
#######################################################################
#
#                 Cambridge Crystallographic Data Centre
#                                CCDC 
#
#######################################################################
#
# If this CIF has been generated from an entry in the Cambridge 
# Structural Database, then it will include bibliographic, chemical, 
# crystal, experimental, refinement or atomic coordinate data resulting 
# from the CCDC's data processing and validation procedures.
#
#######################################################################

data_QURBOV
_symmetry_cell_setting           triclinic
_symmetry_space_group_name_H-M   'P -1'
_symmetry_Int_Tables_number      2
_space_group_name_Hall           '-P 1'
loop_
_symmetry_equiv_pos_site_id
_symmetry_equiv_pos_as_xyz
1 x,y,z
2 -x,-y,-z
_cell_length_a                   10.5037(9)
_cell_length_b                   13.3325(11)
_cell_length_c                   13.6089(12)
_cell_angle_alpha                61.9360(10)
_cell_angle_beta                 85.4460(10)
_cell_angle_gamma                70.3960(10)
_cell_volume                     1577.17
loop_
_atom_site_label
_atom_site_type_symbol
_atom_site_fract_x
_atom_site_fract_y
_atom_site_fract_z
Gd1 Gd 0.547878(15) 0.610281(13) 0.343765(13)
Gd2 Gd 0.933551(16) 0.901447(14) 0.162218(13)
O1 O 0.5729(3) 0.4438(2) 0.1901(2)
O2 O 0.6384(2) 0.5900(2) 0.1834(2)
O3 O 0.9121(3) 0.9869(2) -0.0649(2)
O4 O 0.8829(3) 0.8141(2) 0.0455(2)
O5 O 0.8463(3) 0.9466(2) 0.3084(2)
O6 O 0.9204(3) 1.0702(3) 0.3371(3)
O7 O 0.6035(3) 0.5074(2) 0.5564(2)
O8 O 0.5907(3) 0.6981(2) 0.4647(2)
O9 O 0.7028(3) 0.9100(2) 0.1667(2)
O10 O 0.9157(2) 0.7100(2) 0.2838(2)
O11 O 0.5639(2) 0.8018(2) 0.22589(19)
O12 O 0.7769(2) 0.6016(2) 0.3470(2)
O13 O 0.1116(3) 0.8311(2) 0.3078(2)
O14 O 0.1472(2) 0.7621(2) 0.1499(2)
O15 O 0.3334(2) 0.7412(2) 0.3647(2)
O16 O 0.3699(2) 0.6739(2) 0.2040(2)
N1 N 0.6754(3) 0.6653(3) -0.0436(2)
N2 N 0.7764(3) 0.7996(3) -0.1201(2)
N3 N 0.8410(3) 0.8210(3) 0.5444(2)
N4 N 0.7399(3) 0.6869(3) 0.6226(2)
C1 C 0.7916(4) 0.6147(3) -0.0852(3)
C2 C 0.8440(5) 0.5035(3) -0.0850(3)
H1 H 0.8006 0.4445 -0.0520
C3 C 0.9621(5) 0.4841(4) -0.1356(4)
H2 H 1.0017 0.4090 -0.1362
C4 C 1.0259(4) 0.5703(4) -0.1859(3)
H3 H 1.1067 0.5528 -0.2204
C5 C 0.9743(4) 0.6811(4) -0.1868(3)
H4 H 1.0171 0.7403 -0.2212
C6 C 0.8556(4) 0.7004(3) -0.1341(3)
C7 C 0.6696(4) 0.7759(3) -0.0658(3)
C8 C 0.5603(4) 0.8600(4) -0.0375(3)
H5 H 0.4944 0.8211 0.0025
H6 H 0.5146 0.9335 -0.1064
H7 H 0.5996 0.8811 0.0101
C9 C 0.5775(4) 0.6051(4) 0.0119(3)
H8 H 0.5821 0.5457 -0.0136
H9 H 0.4850 0.6659 -0.0113
C10 C 0.6003(4) 0.5401(3) 0.1393(3)
C11 C 0.8123(4) 0.9072(3) -0.1503(3)
H10 H 0.7299 0.9800 -0.1828
H11 H 0.8779 0.9151 -0.2076
C12 C 0.8748(4) 0.8990(3) -0.0478(3)
C13 C 0.7242(4) 0.8725(3) 0.5847(3)
C14 C 0.6730(4) 0.9840(3) 0.5837(3)
H12 H 0.7176 1.0421 0.5509
C15 C 0.5539(5) 1.0053(4) 0.6329(3)
H13 H 0.5153 1.0805 0.6333
C16 C 0.4877(4) 0.9201(4) 0.6822(3)
H14 H 0.4058 0.9391 0.7149
C17 C 0.5394(4) 0.8081(4) 0.6843(3)
H15 H 0.4957 0.7495 0.7180
C18 C 0.6594(3) 0.7878(3) 0.6337(3)
C19 C 0.8470(4) 0.7101(3) 0.5680(3)
C20 C 0.9569(4) 0.6246(3) 0.5415(3)
H16 H 1.0228 0.6632 0.5010
H17 H 0.9181 0.6020 0.4950
H18 H 1.0024 0.5521 0.6111
C21 C 0.9407(4) 0.8798(3) 0.4916(3)
H19 H 1.0281 0.8175 0.4966
H20 H 0.9558 0.9196 0.5332
C22 C 0.8971(4) 0.9742(3) 0.3683(3)
C23 C 0.7025(4) 0.5805(3) 0.6506(3)
H21 H 0.6449 0.5666 0.7137
H22 H 0.7854 0.5082 0.6742
C24 C 0.6255(3) 0.5993(3) 0.5495(3)
C25 C 0.6780(3) 0.8141(3) 0.2212(3)
C26 C 0.8012(3) 0.6980(3) 0.2898(3)
C27 C 0.2303(3) 0.7718(3) 0.3027(3)
C28 C 0.2510(3) 0.7317(3) 0.2108(3)
O17 O 0.6802(3) 0.3935(2) 0.4053(2)
H23 H 0.6548 0.3698 0.3647
H24 H 0.6696 0.3499 0.4730
O18 O 0.7960(3) 1.1127(2) 0.0658(2)
H25 H 0.8258 1.1500 0.0039
H26 H 0.7927 1.1468 0.1057
Gd1A Gd 0.452122(15) 0.389719(13) 0.656235(13)
Gd2A Gd 1.066449(16) 1.098553(14) -0.162218(13)
Gd2_2 Gd -0.066449(16) 0.901447(14) 0.162218(13)
O3A O 1.0879(3) 1.0131(2) 0.0649(2)
O7A O 0.3965(3) 0.4926(2) 0.4436(2)
O13_2 O 1.1116(3) 0.8311(2) 0.3078(2)
O14_2 O 1.1472(2) 0.7621(2) 0.1499(2)
O19 O 0.7347(4) 1.2520(3) 0.1616(3)
H27 H 0.6873 1.3090 0.1751
H28 H 0.7902 1.1984 0.2186
loop_
_geom_bond_atom_site_label_1
_geom_bond_atom_site_label_2
_geom_bond_site_symmetry_1
_geom_bond_site_symmetry_2
Gd1 O2 1_555 1_555
Gd2 O3 1_555 1_555
O1 C10 1_555 1_555
O2 C10 1_555 1_555
O3 C12 1_555 1_555
O4 Gd2 1_555 1_555
O5 Gd2 1_555 1_555
O6 C22 1_555 1_555
O7 Gd1 1_555 1_555
O8 Gd1 1_555 1_555
O9 Gd2 1_555 1_555
O10 Gd2 1_555 1_555
O11 Gd1 1_555 1_555
O12 Gd1 1_555 1_555
O13 C27 1_555 1_555
O14 C28 1_555 1_555
O15 Gd1 1_555 1_555
O16 Gd1 1_555 1_555
N1 C1 1_555 1_555
N2 C6 1_555 1_555
N3 C13 1_555 1_555
N4 C18 1_555 1_555
C1 C2 1_555 1_555
C2 H1 1_555 1_555
C3 C2 1_555 1_555
H2 C3 1_555 1_555
C4 C3 1_555 1_555
H3 C4 1_555 1_555
C5 C4 1_555 1_555
H4 C5 1_555 1_555
C6 C1 1_555 1_555
C7 N1 1_555 1_555
C8 C7 1_555 1_555
H5 C8 1_555 1_555
H6 C8 1_555 1_555
H7 C8 1_555 1_555
C9 N1 1_555 1_555
H8 C9 1_555 1_555
H9 C9 1_555 1_555
C10 C9 1_555 1_555
C11 N2 1_555 1_555
H10 C11 1_555 1_555
H11 C11 1_555 1_555
C12 O4 1_555 1_555
C13 C14 1_555 1_555
C14 H12 1_555 1_555
C15 C14 1_555 1_555
H13 C15 1_555 1_555
C16 C15 1_555 1_555
H14 C16 1_555 1_555
C17 C16 1_555 1_555
H15 C17 1_555 1_555
C18 C13 1_555 1_555
C19 N3 1_555 1_555
C20 C19 1_555 1_555
H16 C20 1_555 1_555
H17 C20 1_555 1_555
H18 C20 1_555 1_555
C21 N3 1_555 1_555
H19 C21 1_555 1_555
H20 C21 1_555 1_555
C22 O5 1_555 1_555
C23 N4 1_555 1_555
H21 C23 1_555 1_555
H22 C23 1_555 1_555
C24 O7 1_555 1_555
C25 O9 1_555 1_555
C26 O10 1_555 1_555
C27 O15 1_555 1_555
C28 O16 1_555 1_555
O17 Gd1 1_555 1_555
H23 O17 1_555 1_555
H24 O17 1_555 1_555
O18 Gd2 1_555 1_555
H25 O18 1_555 1_555
H26 O18 1_555 1_555
O19 H27 1_555 1_555
H28 O19 1_555 1_555
Gd1A O7 1_555 1_555
Gd2A O3 1_555 1_555
Gd2_2 O13 1_555 1_555
O3A Gd2 1_555 1_555
O7A Gd1 1_555 1_555
O13_2 Gd2 1_555 1_555
O14_2 Gd2 1_555 1_555
O8 C24 1_555 1_555
O11 C25 1_555 1_555
O12 C26 1_555 1_555
O14 Gd2_2 1_555 1_555
N2 C7 1_555 1_555
N4 C19 1_555 1_555
C5 C6 1_555 1_555
C11 C12 1_555 1_555
C17 C18 1_555 1_555
C21 C22 1_555 1_555
C23 C24 1_555 1_555
C25 C26 1_555 1_555
C27 C28 1_555 1_555
Gd1A O7A 1_555 1_555
Gd2A O3A 1_555 1_555

#END
