
#######################################################################
#
#                 Cambridge Crystallographic Data Centre
#                                CCDC 
#
#######################################################################
#
# If this CIF has been generated from an entry in the Cambridge 
# Structural Database, then it will include bibliographic, chemical, 
# crystal, experimental, refinement or atomic coordinate data resulting 
# from the CCDC's data processing and validation procedures.
#
#######################################################################

data_QURBIP
_symmetry_cell_setting           triclinic
_symmetry_space_group_name_H-M   'P -1'
_symmetry_Int_Tables_number      2
_space_group_name_Hall           '-P 1'
loop_
_symmetry_equiv_pos_site_id
_symmetry_equiv_pos_as_xyz
1 x,y,z
2 -x,-y,-z
_cell_length_a                   9.6455(3)
_cell_length_b                   13.6371(5)
_cell_length_c                   13.9511(3)
_cell_angle_alpha                66.8890(10)
_cell_angle_beta                 88.5440(10)
_cell_angle_gamma                70.5200(10)
_cell_volume                     1579.38
loop_
_atom_site_label
_atom_site_type_symbol
_atom_site_fract_x
_atom_site_fract_y
_atom_site_fract_z
Eu1 Eu 1.160777(19) 0.080740(15) 0.481634(14)
Eu2 Eu 0.839119(19) 0.424519(15) 0.027052(14)
N1 N 0.5777(4) 0.3319(3) 0.4870(3)
N2 N 0.3384(4) 0.3767(3) 0.4904(3)
N3 N 0.6612(4) 0.1260(3) -0.0010(3)
N4 N 0.4279(4) 0.1642(3) 0.0233(3)
O1 O 0.8947(3) 0.1112(3) 0.4632(2)
O2 O 0.6961(4) 0.1043(3) 0.5428(3)
O3 O 0.0083(4) 0.3375(3) 0.5691(3)
O4 O 0.2035(4) 0.2073(3) 0.5463(2)
O5 O 0.7701(4) 0.2994(3) -0.0302(2)
O6 O 0.9843(4) 0.2008(3) -0.0666(3)
O7 O 0.2945(4) 0.3907(3) -0.0486(3)
O8 O 0.1108(3) 0.3856(3) 0.0482(2)
O9 O 1.0482(4) 0.2812(2) 0.3573(2)
O10 O 1.0842(3) 0.1069(2) 0.3046(2)
O11 O 0.9184(3) 0.4039(2) 0.2007(2)
O12 O 0.9484(3) 0.2273(2) 0.1499(2)
O13 O 1.3685(3) 0.0997(2) 0.3918(2)
O14 O 1.6151(4) 0.0270(3) 0.4017(3)
O15 O 1.0872(4) 0.0250(3) 0.6580(2)
H1 H 1.0226 -0.0062 0.6640
H2 H 1.0531 0.0819 0.6741
O16 O 0.6278(3) 0.4095(2) 0.1127(2)
O17 O 0.3808(4) 0.4632(3) 0.0933(3)
O18 O 0.9285(4) 0.4439(3) -0.1458(2)
H3 H 0.9435 0.3851 -0.1581
H4 H 1.0037 0.4643 -0.1555
C1 C 0.3937(5) 0.3873(4) 0.5753(3)
C2 C 0.3231(6) 0.4211(4) 0.6513(4)
H7 H 0.2211 0.4411 0.6518
C3 C 0.4122(7) 0.4235(4) 0.7258(4)
H8 H 0.3692 0.4451 0.7782
C4 C 0.5649(7) 0.3941(4) 0.7243(4)
H9 H 0.6209 0.3966 0.7760
C5 C 0.6370(6) 0.3609(4) 0.6480(4)
H10 H 0.7388 0.3417 0.6469
C6 C 0.5461(5) 0.3586(4) 0.5738(3)
C7 C 0.4506(5) 0.3437(3) 0.4379(3)
C8 C 0.4377(6) 0.3272(4) 0.3413(4)
H11 H 0.3361 0.3407 0.3221
H12 H 0.4973 0.2506 0.3527
H13 H 0.4714 0.3796 0.2859
C9 C 0.7255(5) 0.2863(4) 0.4596(4)
H14 H 0.7958 0.3024 0.4942
H15 H 0.7257 0.3236 0.3844
C10 C 0.7728(5) 0.1591(4) 0.4922(3)
C11 C 0.1811(5) 0.4025(4) 0.4626(4)
H16 H 0.1648 0.4141 0.3901
H17 H 0.1236 0.4728 0.4687
C12 C 0.1265(5) 0.3076(4) 0.5326(3)
C13 C 0.4416(5) 0.1438(3) -0.0677(3)
C14 C 0.3380(5) 0.1437(4) -0.1350(3)
H18 H 0.2387 0.1600 -0.1245
C15 C 0.3912(6) 0.1178(4) -0.2188(4)
H19 H 0.3256 0.1166 -0.2656
C16 C 0.5407(6) 0.0934(4) -0.2348(4)
H20 H 0.5717 0.0769 -0.2922
C17 C 0.6434(5) 0.0934(4) -0.1672(4)
H21 H 0.7427 0.0770 -0.1778
C18 C 0.5917(5) 0.1190(3) -0.0824(3)
C19 C 0.5611(5) 0.1542(4) 0.0616(3)
C20 C 0.5924(5) 0.1678(4) 0.1569(3)
H22 H 0.6956 0.1565 0.1669
H23 H 0.5685 0.1127 0.2162
H24 H 0.5338 0.2431 0.1500
C21 C 0.8207(5) 0.1032(4) 0.0134(4)
H25 H 0.8717 0.0526 -0.0196
H26 H 0.8558 0.0643 0.0878
C22 C 0.8603(5) 0.2105(4) -0.0325(3)
C23 C 0.2878(5) 0.2068(4) 0.0618(4)
H27 H 0.3026 0.1772 0.1378
H28 H 0.2158 0.1801 0.0424
C24 C 0.2289(5) 0.3357(4) 0.0160(3)
C25 C 0.9917(5) 0.3055(3) 0.2679(3)
C26 C 1.0091(5) 0.2038(3) 0.2381(3)
C27 C 1.4958(5) 0.0371(4) 0.4400(3)
C28 C 0.5026(5) 0.4626(4) 0.0598(3)
Eu1A Eu 0.839223(19) -0.080740(15) 0.518366(14)
Eu1_2 Eu 0.160777(19) 0.080740(15) 0.481634(14)
Eu1A_2 Eu 1.839223(19) -0.080740(15) 0.518366(14)
Eu2A Eu 0.160881(19) 0.575481(15) -0.027052(14)
Eu2_2 Eu -0.160881(19) 0.424519(15) 0.027052(14)
Eu2A_2 Eu 1.160881(19) 0.575481(15) -0.027052(14)
Eu2A_3 Eu 1.160881(19) -0.424519(15) 0.972948(14)
N1A N 1.4223(4) -0.3319(3) 0.5130(3)
N2A N 1.6616(4) -0.3767(3) 0.5096(3)
N3A N 0.3388(4) 0.8740(3) 0.0010(3)
N4A N 0.5721(4) 0.8358(3) -0.0233(3)
O1A O 1.1053(3) -0.1112(3) 0.5368(2)
O2A O 1.3039(4) -0.1043(3) 0.4572(3)
O3A O 1.9917(4) -0.3375(3) 0.4309(3)
O4A O 1.7965(4) -0.2073(3) 0.4537(2)
O4_2 O 1.2035(4) 0.2073(3) 0.5463(2)
O4A_2 O 0.7965(4) -0.2073(3) 0.4537(2)
O5A O 0.2299(4) 0.7006(3) 0.0302(2)
O6A O 0.0157(4) 0.7992(3) 0.0666(3)
O7A O 0.7055(4) 0.6093(3) 0.0486(3)
O8A O 0.8892(3) 0.6144(3) -0.0482(2)
O8_2 O 1.1108(3) 0.3856(3) 0.0482(2)
O8A_2 O -0.1108(3) 0.6144(3) -0.0482(2)
O9A O 0.9518(4) -0.2812(2) 0.6427(2)
O10A O 0.9158(3) -0.1069(2) 0.6954(2)
O11A O 1.0816(3) -0.4039(2) 0.7993(2)
O11A_2 O 0.0816(3) 0.5961(2) -0.2007(2)
O12A O 1.0516(3) -0.2273(2) 0.8501(2)
O12A_2 O 0.0516(3) 0.7727(2) -0.1499(2)
O13A O 1.6315(3) -0.0997(2) 0.6082(2)
O13A_2 O 0.6315(3) -0.0997(2) 0.6082(2)
O14A O 1.3849(4) -0.0270(3) 0.5983(3)
O14_2 O 0.6151(4) 0.0270(3) 0.4017(3)
O15A O 0.9128(4) -0.0250(3) 0.3420(2)
H1A H 0.9774 0.0062 0.3360
H2A H 0.9469 -0.0819 0.3259
O16A O 0.3722(3) 0.5905(2) -0.1127(2)
O17A O 0.6192(4) 0.5368(3) -0.0933(3)
O18A O 0.0715(4) 0.5561(3) 0.1458(2)
H3A H 0.0565 0.6149 0.1581
H4A H -0.0037 0.5357 0.1555
C1A C 1.6063(5) -0.3873(4) 0.4247(3)
C2A C 1.6769(6) -0.4211(4) 0.3487(4)
H7A H 1.7789 -0.4411 0.3482
C3A C 1.5878(7) -0.4235(4) 0.2742(4)
H8A H 1.6308 -0.4451 0.2218
C4A C 1.4351(7) -0.3941(4) 0.2757(4)
H9A H 1.3791 -0.3966 0.2240
C5A C 1.3630(6) -0.3609(4) 0.3520(4)
H10A H 1.2612 -0.3417 0.3531
C6A C 1.4539(5) -0.3586(4) 0.4262(3)
C7A C 1.5494(5) -0.3437(3) 0.5621(3)
C8A C 1.5623(6) -0.3272(4) 0.6587(4)
H11A H 1.6639 -0.3407 0.6779
H12A H 1.5027 -0.2506 0.6473
H13A H 1.5286 -0.3796 0.7141
C9A C 1.2745(5) -0.2863(4) 0.5404(4)
H14A H 1.2042 -0.3024 0.5058
H15A H 1.2743 -0.3236 0.6156
C10A C 1.2272(5) -0.1591(4) 0.5078(3)
C11A C 1.8189(5) -0.4025(4) 0.5374(4)
H16A H 1.8352 -0.4141 0.6099
H17A H 1.8764 -0.4728 0.5313
C12A C 1.8735(5) -0.3076(4) 0.4674(3)
C13A C 0.5584(5) 0.8562(3) 0.0677(3)
C14A C 0.6620(5) 0.8563(4) 0.1350(3)
H18A H 0.7613 0.8400 0.1245
C15A C 0.6088(6) 0.8822(4) 0.2188(4)
H19A H 0.6744 0.8834 0.2656
C16A C 0.4593(6) 0.9066(4) 0.2348(4)
H20A H 0.4283 0.9231 0.2922
C17A C 0.3566(5) 0.9066(4) 0.1672(4)
H21A H 0.2573 0.9230 0.1778
C18A C 0.4083(5) 0.8810(3) 0.0824(3)
C19A C 0.4389(5) 0.8458(4) -0.0616(3)
C20A C 0.4076(5) 0.8322(4) -0.1569(3)
H22A H 0.3044 0.8435 -0.1669
H23A H 0.4315 0.8873 -0.2162
H24A H 0.4662 0.7569 -0.1500
C21A C 0.1793(5) 0.8968(4) -0.0134(4)
H25A H 0.1283 0.9474 0.0196
H26A H 0.1442 0.9357 -0.0878
C22A C 0.1397(5) 0.7895(4) 0.0325(3)
C23A C 0.7122(5) 0.7932(4) -0.0618(4)
H27A H 0.6974 0.8228 -0.1378
H28A H 0.7842 0.8199 -0.0424
C24A C 0.7711(5) 0.6643(4) -0.0160(3)
C25A C 1.0083(5) -0.3055(3) 0.7321(3)
C26A C 0.9909(5) -0.2038(3) 0.7619(3)
C27A C 1.5042(5) -0.0371(4) 0.5600(3)
C28A C 0.4974(5) 0.5374(4) -0.0598(3)
O19 O 0.0054(4) 0.8335(3) 0.2490(3)
H5 H 0.0011 0.7770 0.3027
H6 H 0.0084 0.8173 0.1958
loop_
_geom_bond_atom_site_label_1
_geom_bond_atom_site_label_2
_geom_bond_site_symmetry_1
_geom_bond_site_symmetry_2
Eu1 O1 1_555 1_555
Eu2 O5 1_555 1_555
N1 C6 1_555 1_555
N2 C1 1_555 1_555
N3 C18 1_555 1_555
N4 C13 1_555 1_555
O1 C10 1_555 1_555
O2 C10 1_555 1_555
O3 C12 1_555 1_555
O4 C12 1_555 1_555
O5 C22 1_555 1_555
O6 C22 1_555 1_555
O7 C24 1_555 1_555
O8 C24 1_555 1_555
O9 Eu1 1_555 1_555
O10 Eu1 1_555 1_555
O11 Eu2 1_555 1_555
O12 Eu2 1_555 1_555
O13 Eu1 1_555 1_555
O14 C27 1_555 1_555
O15 Eu1 1_555 1_555
H1 O15 1_555 1_555
H2 O15 1_555 1_555
O16 Eu2 1_555 1_555
O17 C28 1_555 1_555
O18 Eu2 1_555 1_555
H3 O18 1_555 1_555
H4 O18 1_555 1_555
O19 H5 1_555 1_555
H6 O19 1_555 1_555
C1 C2 1_555 1_555
C2 H7 1_555 1_555
C3 C2 1_555 1_555
H8 C3 1_555 1_555
C4 C3 1_555 1_555
H9 C4 1_555 1_555
C5 C4 1_555 1_555
H10 C5 1_555 1_555
C6 C1 1_555 1_555
C7 N1 1_555 1_555
C8 C7 1_555 1_555
H11 C8 1_555 1_555
H12 C8 1_555 1_555
H13 C8 1_555 1_555
C9 N1 1_555 1_555
H14 C9 1_555 1_555
H15 C9 1_555 1_555
C10 C9 1_555 1_555
C11 N2 1_555 1_555
H16 C11 1_555 1_555
H17 C11 1_555 1_555
C12 C11 1_555 1_555
C13 C14 1_555 1_555
C14 H18 1_555 1_555
C15 C14 1_555 1_555
H19 C15 1_555 1_555
C16 C15 1_555 1_555
H20 C16 1_555 1_555
C17 C16 1_555 1_555
H21 C17 1_555 1_555
C18 C13 1_555 1_555
C19 N3 1_555 1_555
C20 C19 1_555 1_555
H22 C20 1_555 1_555
H23 C20 1_555 1_555
H24 C20 1_555 1_555
C21 N3 1_555 1_555
H25 C21 1_555 1_555
H26 C21 1_555 1_555
C22 C21 1_555 1_555
C23 N4 1_555 1_555
H27 C23 1_555 1_555
H28 C23 1_555 1_555
C24 C23 1_555 1_555
C25 O9 1_555 1_555
C26 O10 1_555 1_555
C27 O13 1_555 1_555
C28 O16 1_555 1_555
Eu1A O1 1_555 1_555
Eu1_2 O4 1_555 1_555
Eu1A_2 O14 1_555 1_555
Eu2A O7 1_555 1_555
Eu2_2 O8 1_555 1_555
Eu2A_2 O8A 1_555 1_555
Eu2A_3 O11A 1_555 1_555
N1A C6A 1_555 1_555
N2A C1A 1_555 1_555
N3A C18A 1_555 1_555
N4A C13A 1_555 1_555
O1A Eu1 1_555 1_555
O2A Eu1 1_555 1_555
O3A C12A 1_555 1_555
O4A Eu1A_2 1_555 1_555
O4_2 Eu1 1_555 1_555
O4A_2 Eu1A 1_555 1_555
O5A Eu2A 1_555 1_555
O6A C22A 1_555 1_555
O7A Eu2 1_555 1_555
O8A Eu2 1_555 1_555
O8_2 Eu2 1_555 1_555
O8A_2 Eu2A 1_555 1_555
O9A Eu1A 1_555 1_555
O10A Eu1A 1_555 1_555
O11A C25A 1_555 1_555
O11A_2 Eu2A 1_555 1_555
O12A Eu2A_3 1_555 1_555
O12A_2 Eu2A 1_555 1_555
O13A Eu1A_2 1_555 1_555
O13A_2 Eu1A 1_555 1_555
O14A Eu1 1_555 1_555
O14_2 Eu1A 1_555 1_555
O15A Eu1A 1_555 1_555
H1A O15A 1_555 1_555
H2A O15A 1_555 1_555
O16A Eu2A 1_555 1_555
O17A Eu2 1_555 1_555
O18A Eu2A 1_555 1_555
H3A O18A 1_555 1_555
H4A O18A 1_555 1_555
C1A C2A 1_555 1_555
C2A H7A 1_555 1_555
C3A C2A 1_555 1_555
H8A C3A 1_555 1_555
C4A C3A 1_555 1_555
H9A C4A 1_555 1_555
C5A C4A 1_555 1_555
H10A C5A 1_555 1_555
C6A C1A 1_555 1_555
C7A N1A 1_555 1_555
C8A C7A 1_555 1_555
H11A C8A 1_555 1_555
H12A C8A 1_555 1_555
H13A C8A 1_555 1_555
C9A N1A 1_555 1_555
H14A C9A 1_555 1_555
H15A C9A 1_555 1_555
C10A O1A 1_555 1_555
C11A N2A 1_555 1_555
H16A C11A 1_555 1_555
H17A C11A 1_555 1_555
C12A O4A 1_555 1_555
C13A C14A 1_555 1_555
C14A H18A 1_555 1_555
C15A C14A 1_555 1_555
H19A C15A 1_555 1_555
C16A C15A 1_555 1_555
H20A C16A 1_555 1_555
C17A C16A 1_555 1_555
H21A C17A 1_555 1_555
C18A C13A 1_555 1_555
C19A N3A 1_555 1_555
C20A C19A 1_555 1_555
H22A C20A 1_555 1_555
H23A C20A 1_555 1_555
H24A C20A 1_555 1_555
C21A N3A 1_555 1_555
H25A C21A 1_555 1_555
H26A C21A 1_555 1_555
C22A O5A 1_555 1_555
C23A N4A 1_555 1_555
H27A C23A 1_555 1_555
H28A C23A 1_555 1_555
C24A O7A 1_555 1_555
C25A O9A 1_555 1_555
C26A O10A 1_555 1_555
C27A C27 1_555 1_555
C28A C28 1_555 1_555
N2 C7 1_555 1_555
N4 C19 1_555 1_555
O2 Eu1A 1_555 1_555
O8 Eu2A 1_555 1_555
O11 C25 1_555 1_555
O12 C26 1_555 1_555
O17 Eu2A 1_555 1_555
C5 C6 1_555 1_555
C17 C18 1_555 1_555
C25 C26 1_555 1_555
Eu1A O1A 1_555 1_555
Eu2_2 O8A_2 1_555 1_555
Eu2A_2 O8_2 1_555 1_555
N2A C7A 1_555 1_555
N4A C19A 1_555 1_555
O2A C10A 1_555 1_555
O8A C24A 1_555 1_555
O12A C26A 1_555 1_555
O13A C27A 1_555 1_555
O14A C27A 1_555 1_555
O16A C28A 1_555 1_555
O17A C28A 1_555 1_555
C5A C6A 1_555 1_555
C9A C10A 1_555 1_555
C11A C12A 1_555 1_555
C17A C18A 1_555 1_555
C21A C22A 1_555 1_555
C23A C24A 1_555 1_555
C25A C26A 1_555 1_555

#END
