
#######################################################################
#
#                 Cambridge Crystallographic Data Centre
#                                CCDC 
#
#######################################################################
#
# If this CIF has been generated from an entry in the Cambridge 
# Structural Database, then it will include bibliographic, chemical, 
# crystal, experimental, refinement or atomic coordinate data resulting 
# from the CCDC's data processing and validation procedures.
#
#######################################################################

data_QURBUB
_symmetry_cell_setting           triclinic
_symmetry_space_group_name_H-M   'P -1'
_symmetry_Int_Tables_number      2
_space_group_name_Hall           '-P 1'
loop_
_symmetry_equiv_pos_site_id
_symmetry_equiv_pos_as_xyz
1 x,y,z
2 -x,-y,-z
_cell_length_a                   10.5173(2)
_cell_length_b                   13.2428(3)
_cell_length_c                   13.6150(3)
_cell_angle_alpha                62.6490(10)
_cell_angle_beta                 85.6270(10)
_cell_angle_gamma                69.6870(10)
_cell_volume                     1571.64
loop_
_atom_site_label
_atom_site_type_symbol
_atom_site_fract_x
_atom_site_fract_y
_atom_site_fract_z
Tb1 Tb 0.428553(18) 0.393744(17) 0.174181(16)
Tb2 Tb 0.043820(18) 0.108530(17) 0.345280(16)
N1 N 0.3346(4) 0.3247(3) 0.5447(3)
N2 N 0.2406(4) 0.1862(3) 0.6223(3)
N3 N 0.1792(4) 0.1621(4) -0.0398(3)
N4 N 0.2804(4) 0.2952(4) -0.1165(3)
C1 C 0.2169(4) 0.3735(4) 0.5873(3)
C2 C 0.1604(5) 0.4860(4) 0.5871(4)
H1 H 0.1995 0.5455 0.5537
C3 C 0.0433(5) 0.5035(5) 0.6394(4)
H2 H 0.0025 0.5768 0.6418
C4 C -0.0159(5) 0.4146(5) 0.6886(4)
H3 H -0.0951 0.4305 0.7229
C5 C 0.0396(5) 0.3029(5) 0.6884(4)
H4 H 0.0000 0.2437 0.7213
C6 C 0.1578(4) 0.2855(4) 0.6359(4)
C7 C 0.3458(4) 0.2124(4) 0.5665(4)
C8 C 0.4566(5) 0.1287(5) 0.5379(4)
H5 H 0.5190 0.1681 0.4981
H6 H 0.4191 0.1061 0.4922
H7 H 0.5039 0.0573 0.6047
C9 C 0.4319(4) 0.3858(4) 0.4944(4)
H8 H 0.5202 0.3251 0.5015
H9 H 0.4413 0.4270 0.5353
C10 C 0.3911(4) 0.4785(4) 0.3715(4)
C11 C 0.2071(5) 0.0796(4) 0.6478(4)
H10 H 0.1537 0.0634 0.7109
H11 H 0.2904 0.0096 0.6676
C12 C 0.1270(4) 0.0988(4) 0.5486(4)
C13 C 0.2941(4) 0.1100(4) -0.0827(4)
C14 C 0.3448(5) -0.0027(4) -0.0828(4)
H12 H 0.3025 -0.0599 -0.0496
C15 C 0.4617(5) -0.0235(5) -0.1354(4)
H13 H 0.4990 -0.0972 -0.1374
C16 C 0.5252(5) 0.0610(5) -0.1850(4)
H14 H 0.6036 0.0424 -0.2193
C17 C 0.4753(5) 0.1732(5) -0.1851(4)
H15 H 0.5178 0.2302 -0.2187
C18 C 0.3574(4) 0.1949(4) -0.1318(4)
C19 C 0.1732(4) 0.2733(4) -0.0610(3)
C20 C 0.0665(5) 0.3591(4) -0.0328(4)
H16 H 0.0868 0.4319 -0.0571
H17 H 0.0627 0.3230 0.0462
H18 H -0.0198 0.3787 -0.0691
C21 C 0.0793(5) 0.1041(5) 0.0123(4)
H19 H 0.0839 0.0463 -0.0140
H20 H -0.0112 0.1656 -0.0110
C22 C 0.1008(4) 0.0376(4) 0.1405(4)
C23 C 0.3123(5) 0.4047(4) -0.1542(4)
H21 H 0.2288 0.4746 -0.1866
H22 H 0.3729 0.4094 -0.2122
C24 C 0.3785(4) 0.4121(4) -0.0633(4)
C25 C 0.7469(4) 0.2280(4) 0.2166(3)
C26 C 0.7250(4) 0.2631(4) 0.3120(4)
C27 C 0.2977(4) 0.1912(4) 0.2917(3)
C28 C 0.1728(4) 0.3094(4) 0.2274(3)
O1 O 0.3412(3) 0.4491(3) 0.3112(3)
O2 O 0.4151(4) 0.5730(3) 0.3390(3)
O3 O 0.1051(3) 0.0068(3) 0.5543(3)
O4 O 0.0888(3) 0.1987(3) 0.4652(3)
O5 O 0.1347(3) 0.0886(3) 0.1859(3)
O6 O 0.0783(4) -0.0599(3) 0.1881(3)
O7 O 0.3776(3) 0.3421(3) 0.0362(3)
O8 O 0.4268(3) 0.4961(3) -0.0980(3)
O9 O 0.6431(3) 0.2604(3) 0.1539(2)
O10 O 0.6050(3) 0.3107(3) 0.3254(3)
O11 O 0.8665(3) 0.1707(3) 0.2075(2)
O12 O 0.8306(3) 0.2387(3) 0.3690(2)
O13 O 0.4128(3) 0.2008(3) 0.2821(2)
O14 O 0.1978(3) 0.4050(3) 0.1787(3)
O15 O 0.2731(3) 0.0952(3) 0.3495(3)
O16 O 0.0577(3) 0.2992(3) 0.2303(2)
O17 O 0.2844(3) 0.6019(3) 0.0573(3)
H23 H 0.3178 0.6313 -0.0040
H24 H 0.2774 0.6454 0.0892
O18 O 0.1730(3) -0.1072(3) 0.4016(3)
H25 H 0.2052 -0.1479 0.4695
H26 H 0.2349 -0.1185 0.3599
Tb1A Tb 0.571447(18) 0.606256(17) -0.174181(16)
Tb2A Tb -0.043820(18) -0.108530(17) 0.654720(16)
Tb2_2 Tb 1.043820(18) 0.108530(17) 0.345280(16)
O3A O -0.1051(3) -0.0068(3) 0.4457(3)
O8A O 0.5732(3) 0.5039(3) 0.0980(3)
O11_2 O -0.1335(3) 0.1707(3) 0.2075(2)
O12_2 O -0.1694(3) 0.2387(3) 0.3690(2)
O19 O 0.2424(4) 0.7495(3) 0.1499(3)
H27 H 0.2953 0.6956 0.2084
H28 H 0.1924 0.8077 0.1622
loop_
_geom_bond_atom_site_label_1
_geom_bond_atom_site_label_2
_geom_bond_site_symmetry_1
_geom_bond_site_symmetry_2
Tb1 O1 1_555 1_555
Tb2 O3 1_555 1_555
N1 C1 1_555 1_555
N2 C6 1_555 1_555
N3 C13 1_555 1_555
N4 C18 1_555 1_555
C1 C2 1_555 1_555
C2 H1 1_555 1_555
C3 C2 1_555 1_555
H2 C3 1_555 1_555
C4 C3 1_555 1_555
H3 C4 1_555 1_555
C5 C4 1_555 1_555
H4 C5 1_555 1_555
C6 C1 1_555 1_555
C7 N1 1_555 1_555
C8 C7 1_555 1_555
H5 C8 1_555 1_555
H6 C8 1_555 1_555
H7 C8 1_555 1_555
C9 N1 1_555 1_555
H8 C9 1_555 1_555
H9 C9 1_555 1_555
C10 C9 1_555 1_555
C11 N2 1_555 1_555
H10 C11 1_555 1_555
H11 C11 1_555 1_555
C12 C11 1_555 1_555
C13 C14 1_555 1_555
C14 H12 1_555 1_555
C15 C14 1_555 1_555
H13 C15 1_555 1_555
C16 C15 1_555 1_555
H14 C16 1_555 1_555
C17 C16 1_555 1_555
H15 C17 1_555 1_555
C18 C13 1_555 1_555
C19 N3 1_555 1_555
C20 C19 1_555 1_555
H16 C20 1_555 1_555
H17 C20 1_555 1_555
H18 C20 1_555 1_555
C21 N3 1_555 1_555
H19 C21 1_555 1_555
H20 C21 1_555 1_555
C22 C21 1_555 1_555
C23 N4 1_555 1_555
H21 C23 1_555 1_555
H22 C23 1_555 1_555
C24 C23 1_555 1_555
C25 C26 1_555 1_555
C26 O10 1_555 1_555
C27 C28 1_555 1_555
C28 O14 1_555 1_555
O1 C10 1_555 1_555
O2 C10 1_555 1_555
O3 C12 1_555 1_555
O4 Tb2 1_555 1_555
O5 Tb2 1_555 1_555
O6 C22 1_555 1_555
O7 Tb1 1_555 1_555
O8 C24 1_555 1_555
O9 Tb1 1_555 1_555
O10 Tb1 1_555 1_555
O11 C25 1_555 1_555
O12 C26 1_555 1_555
O13 Tb1 1_555 1_555
O14 Tb1 1_555 1_555
O15 Tb2 1_555 1_555
O16 Tb2 1_555 1_555
O17 Tb1 1_555 1_555
H23 O17 1_555 1_555
H24 O17 1_555 1_555
O18 Tb2 1_555 1_555
H25 O18 1_555 1_555
H26 O18 1_555 1_555
O19 H27 1_555 1_555
H28 O19 1_555 1_555
Tb1A O8 1_555 1_555
Tb2A O3 1_555 1_555
Tb2_2 O11 1_555 1_555
O3A Tb2 1_555 1_555
O8A Tb1 1_555 1_555
O11_2 Tb2 1_555 1_555
O12_2 Tb2 1_555 1_555
N2 C7 1_555 1_555
N4 C19 1_555 1_555
C5 C6 1_555 1_555
C12 O4 1_555 1_555
C17 C18 1_555 1_555
C22 O5 1_555 1_555
C24 O7 1_555 1_555
C25 O9 1_555 1_555
C27 O13 1_555 1_555
C27 O15 1_555 1_555
C28 O16 1_555 1_555
O12 Tb2_2 1_555 1_555
Tb2A O3A 1_555 1_555

#END
