
#######################################################################
#
#                 Cambridge Crystallographic Data Centre
#                                CCDC 
#
#######################################################################
#
# If this CIF has been generated from an entry in the Cambridge 
# Structural Database, then it will include bibliographic, chemical, 
# crystal, experimental, refinement or atomic coordinate data resulting 
# from the CCDC's data processing and validation procedures.
#
#######################################################################

data_QURCIQ
_symmetry_cell_setting           monoclinic
_symmetry_space_group_name_H-M   'P 21/c'
_symmetry_Int_Tables_number      14
_space_group_name_Hall           '-P 2ybc'
loop_
_symmetry_equiv_pos_site_id
_symmetry_equiv_pos_as_xyz
1 x,y,z
2 -x,1/2+y,1/2-z
3 -x,-y,-z
4 x,1/2-y,1/2+z
_cell_length_a                   10.731(2)
_cell_length_b                   25.736(6)
_cell_length_c                   15.729(4)
_cell_angle_alpha                90
_cell_angle_beta                 106.873(2)
_cell_angle_gamma                90
_cell_volume                     4156.92
loop_
_atom_site_label
_atom_site_type_symbol
_atom_site_fract_x
_atom_site_fract_y
_atom_site_fract_z
Zn1 Zn 0.49082(5) 0.740070(19) 0.27554(3)
Zn2 Zn -0.25991(5) 0.739180(19) -0.02025(3)
Zn3 Zn 0.00791(5) 0.757670(19) 0.26882(3)
Zn4 Zn 0.26053(5) 0.756770(18) -0.02520(3)
O1 O -0.2289(3) 0.85756(13) -0.0054(3)
O2 O -0.1164(3) 0.78488(11) -0.01053(16)
O3 O 0.0523(2) 0.74579(9) 0.15598(15)
O4 O 0.1532(2) 0.74655(9) 0.05298(16)
O5 O 0.3295(2) 0.77922(10) 0.22851(17)
O6 O 0.4488(3) 0.85092(11) 0.2360(2)
O7 O 0.2239(4) 1.01474(13) 0.1325(3)
O8 O 0.0165(4) 1.01662(13) 0.1067(3)
O9 O 0.3017(3) 0.64478(12) 0.0126(2)
O10 O 0.4215(3) 0.71685(10) 0.02114(17)
O11 O 0.5976(2) 0.74942(9) 0.19672(16)
O12 O 0.6985(2) 0.74989(9) 0.09381(15)
O13 O 0.8669(3) 0.71072(10) 0.26005(16)
O14 O 0.9794(3) 0.63820(12) 0.2550(2)
O15 O 0.7317(4) 0.47909(13) 0.1514(3)
O16 O 0.5257(4) 0.48085(14) 0.1102(3)
O17 O 0.5714(2) 0.75735(9) 0.39730(14)
H1 H 0.5088 0.7670 0.4245
O18 O 0.1777(2) 0.75673(9) 0.35206(14)
H2 H 0.2397 0.7657 0.3238
N1 N 0.1185(5) 0.99313(11) 0.1189(3)
N2 N 0.6299(5) 0.50249(12) 0.1321(3)
N3 N 0.0600(4) 0.33171(12) 0.2273(2)
N4 N 0.4286(4) 0.66470(12) 0.2699(2)
N5 N -0.1944(4) 0.66512(13) -0.0250(2)
N6 N 0.3243(4) 0.83200(12) -0.0192(2)
C1 C -0.0006(4) 0.85791(15) 0.0645(2)
C2 C 0.1095(4) 0.82895(12) 0.1100(2)
C3 C 0.2236(4) 0.85502(15) 0.1585(2)
C4 C 0.2263(4) 0.90909(15) 0.1591(3)
H3 H 0.3019 0.9268 0.1889
C5 C 0.1156(5) 0.93611(13) 0.1151(3)
C6 C 0.0016(4) 0.91153(16) 0.0692(3)
H4 H -0.0726 0.9308 0.0419
C7 C -0.1278(4) 0.83256(17) 0.0121(3)
C8 C 0.1049(3) 0.77016(13) 0.1066(2)
C9 C 0.3452(4) 0.82741(16) 0.2121(2)
C10 C 0.5272(4) 0.64090(15) 0.0905(2)
C11 C 0.6398(4) 0.66672(12) 0.1394(2)
C12 C 0.7510(4) 0.63804(15) 0.1852(3)
C13 C 0.7480(4) 0.58393(16) 0.1814(3)
H5 H 0.8214 0.5645 0.2096
C14 C 0.6344(5) 0.55992(13) 0.1351(3)
C15 C 0.5234(4) 0.58697(16) 0.0901(3)
H6 H 0.4477 0.5694 0.0602
C16 C 0.4037(4) 0.66831(16) 0.0368(3)
C17 C 0.6451(3) 0.72592(13) 0.1433(2)
C18 C 0.8772(4) 0.66334(17) 0.2377(3)
C19 C -0.0243(5) 0.37126(17) 0.2025(3)
H7 H -0.1129 0.3641 0.1808
C20 C 0.0168(5) 0.42200(17) 0.2082(3)
H8 H -0.0443 0.4486 0.1927
C21 C 0.1485(5) 0.43412(16) 0.2370(3)
C22 C 0.2349(5) 0.39266(17) 0.2595(3)
H9 H 0.3242 0.3987 0.2777
C23 C 0.1878(5) 0.34281(17) 0.2549(3)
H10 H 0.2468 0.3156 0.2715
C24 C 0.1893(5) 0.48865(17) 0.2397(3)
H11 H 0.1239 0.5136 0.2297
C25 C 0.3111(4) 0.50598(17) 0.2552(3)
H12 H 0.3770 0.4813 0.2649
C26 C 0.3045(4) 0.65109(17) 0.2303(3)
H13 H 0.2446 0.6771 0.2059
C27 C 0.2618(5) 0.60055(17) 0.2240(3)
H14 H 0.1745 0.5930 0.1970
C28 C 0.3494(5) 0.56093(16) 0.2583(3)
C29 C 0.4786(5) 0.57504(16) 0.2980(3)
H15 H 0.5412 0.5495 0.3197
C30 C 0.5138(4) 0.62662(16) 0.3052(3)
H16 H 0.5991 0.6354 0.3355
C31 C -0.0653(4) 0.65459(17) 0.0034(3)
H17 H -0.0068 0.6821 0.0191
C32 C -0.0174(5) 0.60458(17) 0.0097(3)
H18 H 0.0720 0.5988 0.0283
C33 C -0.1036(5) 0.56273(17) -0.0118(3)
C34 C -0.2359(5) 0.57406(17) -0.0414(3)
H19 H -0.2965 0.5473 -0.0569
C35 C -0.2766(5) 0.62494(17) -0.0478(3)
H20 H -0.3654 0.6318 -0.0689
C36 C -0.0607(4) 0.50832(18) -0.0070(3)
H21 H -0.1249 0.4830 -0.0145
C37 C 0.4491(4) 0.84548(17) 0.0206(3)
H22 H 0.5089 0.8196 0.0458
C38 C 0.4908(5) 0.89619(16) 0.0252(3)
H23 H 0.5782 0.9040 0.0513
C39 C 0.4022(5) 0.93611(16) -0.0094(3)
C40 C 0.2734(4) 0.92143(16) -0.0499(3)
H24 H 0.2107 0.9466 -0.0737
C41 C 0.2392(5) 0.86977(17) -0.0547(3)
H25 H 0.1535 0.8607 -0.0836
C42 C 0.4398(4) 0.99108(17) -0.0081(3)
H26 H 0.3732 1.0155 -0.0197
Zn1_2 Zn 1.49082(5) 0.740070(19) 0.27554(3)
Zn1_3 Zn -0.50918(5) 0.740070(19) 0.27554(3)
Zn1C Zn -0.50918(5) 0.759930(19) -0.22446(3)
Zn1A Zn -0.49082(5) 1.240070(19) 0.22446(3)
Zn2_2 Zn 0.74009(5) 0.739180(19) -0.02025(3)
Zn2C Zn 0.74009(5) 0.760820(19) 0.47975(3)
Zn2B Zn 0.25991(5) 0.260820(19) 0.02025(3)
Zn3_2 Zn 1.00791(5) 0.757670(19) 0.26882(3)
Zn3A Zn -0.00791(5) 0.257670(19) 0.23118(3)
Zn3C Zn 0.00791(5) 0.742330(19) -0.23118(3)
Zn4_2 Zn 1.26053(5) 0.756770(18) -0.02520(3)
Zn4C Zn 0.26053(5) 0.743230(18) 0.47480(3)
Zn4B Zn 0.73947(5) 1.243230(18) 0.02520(3)
Zn4_3 Zn -0.73947(5) 0.756770(18) -0.02520(3)
O1_2 O 0.7711(3) 0.85756(13) -0.0054(3)
O2_2 O 0.8836(3) 0.78488(11) -0.01053(16)
O3_2 O 1.0523(2) 0.74579(9) 0.15598(15)
O4_2 O 1.1532(2) 0.74655(9) 0.05298(16)
O5_2 O 1.3295(2) 0.77922(10) 0.22851(17)
O6_2 O 1.4488(3) 0.85092(11) 0.2360(2)
O7_2 O 1.2239(4) 1.01474(13) 0.1325(3)
O8_2 O 1.0165(4) 1.01662(13) 0.1067(3)
O9_2 O -0.6983(3) 0.64478(12) 0.0126(2)
O10_2 O -0.5785(3) 0.71685(10) 0.02114(17)
O10_3 O 1.4215(3) 0.71685(10) 0.02114(17)
O11_2 O -0.4024(2) 0.74942(9) 0.19672(16)
O11_3 O 1.5976(2) 0.74942(9) 0.19672(16)
O12_2 O -0.3015(2) 0.74989(9) 0.09381(15)
O13_2 O -0.1331(3) 0.71072(10) 0.26005(16)
O14_2 O -0.0206(3) 0.63820(12) 0.2550(2)
O15_2 O -0.2683(4) 0.47909(13) 0.1514(3)
O16_2 O -0.4743(4) 0.48085(14) 0.1102(3)
O17C O -0.4286(2) 0.74265(9) -0.10270(14)
O17C_2 O 0.5714(2) 0.74265(9) -0.10270(14)
O17_2 O 1.5714(2) 0.75735(9) 0.39730(14)
H1C H -0.4912 0.7330 -0.0755
H1C_2 H 0.5088 0.7330 -0.0755
H1_2 H 1.5088 0.7670 0.4245
O18C O 0.1777(2) 0.74327(9) -0.14794(14)
O18_2 O 1.1777(2) 0.75673(9) 0.35206(14)
O18C_2 O 1.1777(2) 0.74327(9) -0.14794(14)
H2C H 0.2397 0.7343 -0.1762
H2_2 H 1.2397 0.7657 0.3238
H2C_2 H 1.2397 0.7343 -0.1762
N1_2 N 1.1185(5) 0.99313(11) 0.1189(3)
N2_2 N -0.3701(5) 0.50249(12) 0.1321(3)
N3A N -0.0600(4) 0.83171(12) 0.2727(2)
N3A_2 N 0.9400(4) 0.83171(12) 0.2727(2)
N4A N -0.4286(4) 1.16470(12) 0.2301(2)
N4_2 N 1.4286(4) 0.66470(12) 0.2699(2)
N5B N 0.1944(4) 0.33488(13) 0.0250(2)
N5_2 N 0.8056(4) 0.66512(13) -0.0250(2)
N6B N 0.6757(4) 1.16800(12) 0.0192(2)
N6_2 N 1.3243(4) 0.83200(12) -0.0192(2)
C1_2 C 0.9994(4) 0.85791(15) 0.0645(2)
C2_2 C 1.1095(4) 0.82895(12) 0.1100(2)
C3_2 C 1.2236(4) 0.85502(15) 0.1585(2)
C4_2 C 1.2263(4) 0.90909(15) 0.1591(3)
H3_2 H 1.3019 0.9268 0.1889
C5_2 C 1.1156(5) 0.93611(13) 0.1151(3)
C6_2 C 1.0016(4) 0.91153(16) 0.0692(3)
H4_2 H 0.9274 0.9308 0.0419
C7_2 C 0.8722(4) 0.83256(17) 0.0121(3)
C8_2 C 1.1049(3) 0.77016(13) 0.1066(2)
C9_2 C 1.3452(4) 0.82741(16) 0.2121(2)
C10_2 C -0.4728(4) 0.64090(15) 0.0905(2)
C11_2 C -0.3602(4) 0.66672(12) 0.1394(2)
C12_2 C -0.2490(4) 0.63804(15) 0.1852(3)
C13_2 C -0.2520(4) 0.58393(16) 0.1814(3)
H5_2 H -0.1786 0.5645 0.2096
C14_2 C -0.3656(5) 0.55992(13) 0.1351(3)
C15_2 C -0.4766(4) 0.58697(16) 0.0901(3)
H6_2 H -0.5523 0.5694 0.0602
C16_2 C -0.5963(4) 0.66831(16) 0.0368(3)
C17_2 C -0.3549(3) 0.72592(13) 0.1433(2)
C18_2 C -0.1228(4) 0.66334(17) 0.2377(3)
C19A C 0.0243(5) 0.87126(17) 0.2975(3)
H7A H 0.1129 0.8641 0.3192
C20A C -0.0168(5) 0.92200(17) 0.2918(3)
H8A H 0.0443 0.9486 0.3073
C21A C -0.1485(5) 0.93412(16) 0.2630(3)
C22A C -0.2349(5) 0.89266(17) 0.2405(3)
H9A H -0.3242 0.8987 0.2223
C23A C -0.1878(5) 0.84281(17) 0.2451(3)
H10A H -0.2468 0.8156 0.2285
C24A C -0.1893(5) 0.98865(17) 0.2603(3)
H11A H -0.1239 1.0136 0.2703
C25A C -0.3111(4) 1.00598(17) 0.2448(3)
H12A H -0.3770 0.9813 0.2351
C26A C -0.3045(4) 1.15109(17) 0.2697(3)
H13A H -0.2446 1.1771 0.2941
C27A C -0.2618(5) 1.10055(17) 0.2760(3)
H14A H -0.1745 1.0930 0.3030
C28A C -0.3494(5) 1.06093(16) 0.2417(3)
C29A C -0.4786(5) 1.07504(16) 0.2020(3)
H15A H -0.5412 1.0495 0.1803
C30A C -0.5138(4) 1.12662(16) 0.1948(3)
H16A H -0.5991 1.1354 0.1645
C31B C 0.0653(4) 0.34541(17) -0.0034(3)
H17B H 0.0068 0.3179 -0.0191
C32B C 0.0174(5) 0.39542(17) -0.0097(3)
H18B H -0.0720 0.4012 -0.0283
C33B C 0.1036(5) 0.43727(17) 0.0118(3)
C34B C 0.2359(5) 0.42594(17) 0.0414(3)
H19B H 0.2965 0.4527 0.0569
C35B C 0.2766(5) 0.37506(17) 0.0478(3)
H20B H 0.3654 0.3682 0.0689
C36B C 0.0607(4) 0.49168(18) 0.0070(3)
H21B H 0.1249 0.5170 0.0145
C37B C 0.5509(4) 1.15452(17) -0.0206(3)
H22B H 0.4911 1.1804 -0.0458
C38B C 0.5092(5) 1.10381(16) -0.0252(3)
H23B H 0.4218 1.0960 -0.0513
C39B C 0.5978(5) 1.06389(16) 0.0094(3)
C40B C 0.7266(4) 1.07857(16) 0.0499(3)
H24B H 0.7893 1.0534 0.0737
C41B C 0.7608(5) 1.13023(17) 0.0547(3)
H25B H 0.8465 1.1393 0.0836
C42B C 0.5602(4) 1.00892(17) 0.0081(3)
H26B H 0.6268 0.9845 0.0197
loop_
_geom_bond_atom_site_label_1
_geom_bond_atom_site_label_2
_geom_bond_site_symmetry_1
_geom_bond_site_symmetry_2
Zn1 O5 1_555 1_555
Zn2 O2 1_555 1_555
Zn3 O3 1_555 1_555
Zn4 O4 1_555 1_555
O1 C7 1_555 1_555
O2 C7 1_555 1_555
O3 C8 1_555 1_555
O4 C8 1_555 1_555
O5 C9 1_555 1_555
O6 C9 1_555 1_555
O7 N1 1_555 1_555
O8 N1 1_555 1_555
O9 C16 1_555 1_555
O10 Zn4 1_555 1_555
O11 Zn1 1_555 1_555
O12 C17 1_555 1_555
O13 C18 1_555 1_555
O14 C18 1_555 1_555
O15 N2 1_555 1_555
O16 N2 1_555 1_555
O17 Zn1 1_555 1_555
H1 O17 1_555 1_555
O18 Zn3 1_555 1_555
H2 O18 1_555 1_555
N1 C5 1_555 1_555
N2 C14 1_555 1_555
N3 C19 1_555 1_555
N4 Zn1 1_555 1_555
N5 Zn2 1_555 1_555
N6 Zn4 1_555 1_555
C1 C2 1_555 1_555
C2 C3 1_555 1_555
C3 C4 1_555 1_555
C4 H3 1_555 1_555
C5 C4 1_555 1_555
C6 C1 1_555 1_555
H4 C6 1_555 1_555
C7 C1 1_555 1_555
C8 C2 1_555 1_555
C9 C3 1_555 1_555
C10 C11 1_555 1_555
C11 C12 1_555 1_555
C12 C13 1_555 1_555
C13 H5 1_555 1_555
C14 C13 1_555 1_555
C15 C10 1_555 1_555
H6 C15 1_555 1_555
C16 O10 1_555 1_555
C17 O11 1_555 1_555
C18 C12 1_555 1_555
C19 H7 1_555 1_555
C20 C19 1_555 1_555
H8 C20 1_555 1_555
C21 C20 1_555 1_555
C22 C21 1_555 1_555
H9 C22 1_555 1_555
C23 N3 1_555 1_555
H10 C23 1_555 1_555
C24 C21 1_555 1_555
H11 C24 1_555 1_555
C25 C24 1_555 1_555
H12 C25 1_555 1_555
C26 N4 1_555 1_555
H13 C26 1_555 1_555
C27 C26 1_555 1_555
H14 C27 1_555 1_555
C28 C25 1_555 1_555
C29 C28 1_555 1_555
H15 C29 1_555 1_555
C30 N4 1_555 1_555
H16 C30 1_555 1_555
C31 N5 1_555 1_555
H17 C31 1_555 1_555
C32 C31 1_555 1_555
H18 C32 1_555 1_555
C33 C32 1_555 1_555
C34 C33 1_555 1_555
H19 C34 1_555 1_555
C35 N5 1_555 1_555
H20 C35 1_555 1_555
C36 C33 1_555 1_555
H21 C36 1_555 1_555
C37 N6 1_555 1_555
H22 C37 1_555 1_555
C38 C37 1_555 1_555
H23 C38 1_555 1_555
C39 C38 1_555 1_555
C40 C39 1_555 1_555
H24 C40 1_555 1_555
C41 N6 1_555 1_555
H25 C41 1_555 1_555
C42 C39 1_555 1_555
H26 C42 1_555 1_555
Zn1_2 O5_2 1_555 1_555
Zn1_3 O11_2 1_555 1_555
Zn1C O17C 1_555 1_555
Zn1A N4A 1_555 1_555
Zn2_2 O12 1_555 1_555
Zn2C O17 1_555 1_555
Zn2B N5B 1_555 1_555
Zn3_2 O13 1_555 1_555
Zn3A N3 1_555 1_555
Zn3C O18C 1_555 1_555
Zn4_2 O4_2 1_555 1_555
Zn4C O18 1_555 1_555
Zn4B N6B 1_555 1_555
Zn4_3 O10_2 1_555 1_555
O1_2 C7_2 1_555 1_555
O2_2 Zn2_2 1_555 1_555
O3_2 Zn3_2 1_555 1_555
O4_2 C8_2 1_555 1_555
O5_2 C9_2 1_555 1_555
O6_2 C9_2 1_555 1_555
O7_2 N1_2 1_555 1_555
O8_2 N1_2 1_555 1_555
O9_2 C16_2 1_555 1_555
O10_2 C16_2 1_555 1_555
O10_3 Zn4_2 1_555 1_555
O11_2 C17_2 1_555 1_555
O11_3 Zn1_2 1_555 1_555
O12_2 Zn2 1_555 1_555
O13_2 Zn3 1_555 1_555
O14_2 C18_2 1_555 1_555
O15_2 N2_2 1_555 1_555
O16_2 N2_2 1_555 1_555
O17C Zn2 1_555 1_555
O17C_2 Zn2_2 1_555 1_555
O17_2 Zn1_2 1_555 1_555
H1C O17C 1_555 1_555
H1C_2 O17C_2 1_555 1_555
H1_2 O17_2 1_555 1_555
O18C Zn4 1_555 1_555
O18_2 Zn3_2 1_555 1_555
O18C_2 Zn4_2 1_555 1_555
H2C O18C 1_555 1_555
H2_2 O18_2 1_555 1_555
H2C_2 O18C_2 1_555 1_555
N1_2 C5_2 1_555 1_555
N2_2 C14_2 1_555 1_555
N3A Zn3 1_555 1_555
N3A_2 Zn3_2 1_555 1_555
N4A C26A 1_555 1_555
N4_2 Zn1_2 1_555 1_555
N5B C31B 1_555 1_555
N5_2 Zn2_2 1_555 1_555
N6B C37B 1_555 1_555
N6_2 Zn4_2 1_555 1_555
C1_2 C2_2 1_555 1_555
C2_2 C3_2 1_555 1_555
C3_2 C4_2 1_555 1_555
C4_2 H3_2 1_555 1_555
C5_2 C4_2 1_555 1_555
C6_2 C1_2 1_555 1_555
H4_2 C6_2 1_555 1_555
C7_2 O2_2 1_555 1_555
C8_2 O3_2 1_555 1_555
C9_2 C3_2 1_555 1_555
C10_2 C11_2 1_555 1_555
C11_2 C12_2 1_555 1_555
C12_2 C13_2 1_555 1_555
C13_2 H5_2 1_555 1_555
C14_2 C13_2 1_555 1_555
C15_2 C10_2 1_555 1_555
H6_2 C15_2 1_555 1_555
C16_2 C10_2 1_555 1_555
C17_2 O12_2 1_555 1_555
C18_2 O13_2 1_555 1_555
C19A N3A 1_555 1_555
H7A C19A 1_555 1_555
C20A C19A 1_555 1_555
H8A C20A 1_555 1_555
C21A C20A 1_555 1_555
C22A C21A 1_555 1_555
H9A C22A 1_555 1_555
C23A N3A 1_555 1_555
H10A C23A 1_555 1_555
C24A C21A 1_555 1_555
H11A C24A 1_555 1_555
C25A C24A 1_555 1_555
H12A C25A 1_555 1_555
C26A H13A 1_555 1_555
C27A C26A 1_555 1_555
H14A C27A 1_555 1_555
C28A C25A 1_555 1_555
C29A C28A 1_555 1_555
H15A C29A 1_555 1_555
C30A N4A 1_555 1_555
H16A C30A 1_555 1_555
C31B H17B 1_555 1_555
C32B C31B 1_555 1_555
H18B C32B 1_555 1_555
C33B C32B 1_555 1_555
C34B C33B 1_555 1_555
H19B C34B 1_555 1_555
C35B N5B 1_555 1_555
H20B C35B 1_555 1_555
C36B C36 1_555 1_555
H21B C36B 1_555 1_555
C37B H22B 1_555 1_555
C38B C37B 1_555 1_555
H23B C38B 1_555 1_555
C39B C38B 1_555 1_555
C40B C39B 1_555 1_555
H24B C40B 1_555 1_555
C41B N6B 1_555 1_555
H25B C41B 1_555 1_555
C42B C42 1_555 1_555
H26B C42B 1_555 1_555
C5 C6 1_555 1_555
C10 C16 1_555 1_555
C11 C17 1_555 1_555
C14 C15 1_555 1_555
C22 C23 1_555 1_555
C27 C28 1_555 1_555
C29 C30 1_555 1_555
C34 C35 1_555 1_555
C40 C41 1_555 1_555
C1_2 C7_2 1_555 1_555
C2_2 C8_2 1_555 1_555
C5_2 C6_2 1_555 1_555
C11_2 C17_2 1_555 1_555
C12_2 C18_2 1_555 1_555
C14_2 C15_2 1_555 1_555
C22A C23A 1_555 1_555
C27A C28A 1_555 1_555
C29A C30A 1_555 1_555
C33B C36B 1_555 1_555
C34B C35B 1_555 1_555
C39B C42B 1_555 1_555
C40B C41B 1_555 1_555

#END
