
#######################################################################
#
#                 Cambridge Crystallographic Data Centre
#                                CCDC 
#
#######################################################################
#
# If this CIF has been generated from an entry in the Cambridge 
# Structural Database, then it will include bibliographic, chemical, 
# crystal, experimental, refinement or atomic coordinate data resulting 
# from the CCDC's data processing and validation procedures.
#
#######################################################################

data_QURCOW
_symmetry_cell_setting           monoclinic
_symmetry_space_group_name_H-M   'P 21/n'
_symmetry_Int_Tables_number      14
_space_group_name_Hall           '-P 2yn'
loop_
_symmetry_equiv_pos_site_id
_symmetry_equiv_pos_as_xyz
1 x,y,z
2 1/2-x,1/2+y,1/2-z
3 -x,-y,-z
4 1/2+x,1/2-y,1/2+z
_cell_length_a                   11.8055(9)
_cell_length_b                   14.5531(11)
_cell_length_c                   19.3880(15)
_cell_angle_alpha                90
_cell_angle_beta                 95.7660(10)
_cell_angle_gamma                90
_cell_volume                     3314.13
loop_
_atom_site_label
_atom_site_type_symbol
_atom_site_fract_x
_atom_site_fract_y
_atom_site_fract_z
Cd1 Cd 0.266550(16) 0.759740(13) 0.301600(10)
Cd2 Cd 0.0000 1.0000 0.0000
O1 O 0.11894(16) 0.85675(13) 0.26814(11)
O2 O 0.21935(17) 0.97347(14) 0.23066(11)
O3 O 0.00155(15) 1.03087(13) 0.11584(9)
O4 O 0.11031(16) 1.14953(13) 0.15121(10)
O5 O -0.11612(19) 1.24383(15) 0.16585(12)
O6 O -0.27647(19) 1.18959(18) 0.19888(15)
O7 O -0.2234(2) 1.06632(19) 0.43418(14)
O8 O -0.1075(3) 0.9526(2) 0.45328(16)
N1 N -0.1453(3) 1.0176(2) 0.41828(15)
N2 N 0.1627(2) 0.73579(15) 0.40131(12)
N3 N -0.1395(2) 0.72761(16) 0.70029(12)
N4 N 0.0145(2) 0.84154(16) 0.02841(12)
N5 N 0.1463(2) 0.38205(16) 0.12770(12)
N6 N -0.19894(18) 1.00232(16) 0.00016(12)
C1 C 0.0403(2) 1.00427(18) 0.27387(14)
C2 C -0.0066(2) 1.07440(17) 0.22990(13)
C3 C -0.1042(2) 1.12102(18) 0.24707(15)
C4 C -0.1478(3) 1.1027(2) 0.30981(15)
H1 H -0.2113 1.1342 0.3220
C5 C -0.0960(3) 1.0376(2) 0.35341(15)
C6 C -0.0057(3) 0.9861(2) 0.33596(15)
H2 H 0.0244 0.9396 0.3652
C7 C 0.1350(2) 0.94118(19) 0.25506(14)
C8 C 0.0406(2) 1.08741(17) 0.16110(13)
C9 C -0.1698(3) 1.1903(2) 0.19951(16)
C10 C 0.0489(2) 0.73894(19) 0.39628(15)
H3 H 0.0094 0.7428 0.3524
C11 C -0.0127(2) 0.7368(2) 0.45331(14)
H4 H -0.0918 0.7393 0.4474
C12 C 0.0444(2) 0.73084(18) 0.51951(14)
C13 C 0.1623(2) 0.7259(2) 0.52467(15)
H5 H 0.2040 0.7209 0.5678
C14 C 0.2171(2) 0.7286(2) 0.46467(15)
H6 H 0.2962 0.7253 0.4689
C15 C -0.1744(3) 0.7755(3) 0.64454(18)
H7 H -0.2407 0.8100 0.6450
C16 C -0.1182(3) 0.7774(3) 0.58524(18)
H8 H -0.1478 0.8117 0.5471
C17 C -0.0192(2) 0.72921(19) 0.58227(14)
C18 C 0.0188(3) 0.6807(2) 0.64073(15)
H9 H 0.0867 0.6480 0.6425
C19 C -0.0446(3) 0.6805(2) 0.69723(16)
H10 H -0.0185 0.6449 0.7354
C20 C -0.0240(3) 0.8033(2) 0.08425(16)
H11 H -0.0629 0.8403 0.1131
C21 C -0.0089(3) 0.7114(2) 0.10145(16)
H12 H -0.0387 0.6876 0.1403
C22 C 0.0514(2) 0.6551(2) 0.06001(15)
C23 C 0.0913(3) 0.6954(2) 0.00156(15)
H13 H 0.1318 0.6605 -0.0278
C24 C 0.0705(3) 0.7863(2) -0.01212(15)
H14 H 0.0966 0.8114 -0.0517
C25 C 0.0425(3) 0.4152(2) 0.13354(15)
H15 H -0.0092 0.3776 0.1533
C26 C 0.0069(3) 0.5018(2) 0.11206(15)
H16 H -0.0657 0.5221 0.1192
C27 C 0.0795(2) 0.55829(19) 0.07995(14)
C28 C 0.1843(3) 0.5215(2) 0.06853(16)
H17 H 0.2342 0.5549 0.0439
C29 C 0.2145(3) 0.4357(2) 0.09359(16)
H18 H 0.2863 0.4135 0.0865
C30 C -0.2490(2) 1.0127(2) 0.05874(16)
H19 H -0.2029 1.0195 0.1002
C31 C -0.3650(2) 1.0138(2) 0.06041(15)
H20 H -0.3956 1.0226 0.1023
C32 C -0.4368(2) 1.00165(18) -0.00020(14)
C33 C -0.3844(2) 0.99253(19) -0.06117(15)
H21 H -0.4284 0.9856 -0.1034
C34 C -0.2675(2) 0.99372(19) -0.05882(15)
H22 H -0.2346 0.9883 -0.1002
O9 O 0.16429(17) 0.63369(13) 0.25188(10)
H23 H 0.0985 0.6200 0.2597
H24 H 0.2058 0.5874 0.2557
Cd1B Cd -0.266550(16) 1.240260(13) -0.301600(10)
Cd1A Cd 0.233450(16) 1.259740(13) 0.198400(10)
Cd1C Cd -0.233450(16) 0.740260(13) 0.801600(10)
Cd1A_2 Cd 0.233450(16) 0.259740(13) 0.198400(10)
Cd1C_2 Cd -0.233450(16) 0.740260(13) -0.198400(10)
Cd1C_3 Cd -0.233450(16) 1.740260(13) -0.198400(10)
Cd1C_4 Cd 0.766550(16) 0.740260(13) -0.198400(10)
Cd2_2 Cd -1.0000 1.0000 0.0000
O1B O -0.11894(16) 1.14325(13) -0.26814(11)
O2B O -0.21935(17) 1.02653(14) -0.23066(11)
O3B O -0.00155(15) 0.96913(13) -0.11584(9)
O4B O -0.11031(16) 0.85047(13) -0.15121(10)
O4A O 0.38969(16) 0.64953(13) 0.34879(10)
O4C O -0.38969(16) 1.35047(13) -0.34879(10)
O5B O 0.11612(19) 0.75617(15) -0.16585(12)
O6B O 0.27647(19) 0.81041(18) -0.19888(15)
O7B O 0.2234(2) 0.93368(19) -0.43418(14)
O8B O 0.1075(3) 1.0474(2) -0.45328(16)
N1B N 0.1453(3) 0.9824(2) -0.41828(15)
N2C N 0.6627(2) 0.76421(15) -0.09869(12)
N2B N -0.1627(2) 1.26421(15) -0.40131(12)
N3C N 0.3605(2) 0.77239(16) 0.20029(12)
N3A N -0.3605(2) 1.22761(16) -0.20029(12)
N4B N -0.0145(2) 1.15846(16) -0.02841(12)
N5B N -0.1463(2) 1.61795(16) -0.12770(12)
N5A N 0.3537(2) 0.88205(16) 0.37230(12)
N5C N -0.3537(2) 1.11795(16) -0.37230(12)
N6B N -0.80106(18) 0.99768(16) -0.00016(12)
N6B_2 N 0.19894(18) 0.99768(16) -0.00016(12)
C1B C -0.0403(2) 0.99573(18) -0.27387(14)
C2B C 0.0066(2) 0.92560(17) -0.22990(13)
C3B C 0.1042(2) 0.87898(18) -0.24707(15)
C4B C 0.1478(3) 0.8973(2) -0.30981(15)
H1B H 0.2113 0.8658 -0.3220
C5B C 0.0960(3) 0.9624(2) -0.35341(15)
C6B C 0.0057(3) 1.0139(2) -0.33596(15)
H2B H -0.0244 1.0604 -0.3652
C7B C -0.1350(2) 1.05882(19) -0.25506(14)
C8B C -0.0406(2) 0.91259(17) -0.16110(13)
C9B C 0.1698(3) 0.8097(2) -0.19951(16)
C10C C 0.5489(2) 0.76106(19) -0.10372(15)
H3C H 0.5094 0.7572 -0.1476
C11C C 0.4873(2) 0.7632(2) -0.04669(14)
H4C H 0.4082 0.7607 -0.0526
C12C C 0.5444(2) 0.76916(18) 0.01951(14)
C13C C 0.6623(2) 0.7741(2) 0.02467(15)
H5C H 0.7040 0.7791 0.0678
C14C C 0.7171(2) 0.7714(2) -0.03533(15)
H6C H 0.7962 0.7747 -0.0311
C15C C 0.3256(3) 0.7245(3) 0.14454(18)
H7C H 0.2593 0.6900 0.1450
C16C C 0.3818(3) 0.7226(3) 0.08524(18)
H8C H 0.3522 0.6883 0.0471
C17C C 0.4808(2) 0.77079(19) 0.08227(14)
C18C C 0.5188(3) 0.8193(2) 0.14073(15)
H9C H 0.5867 0.8520 0.1425
C19C C 0.4554(3) 0.8195(2) 0.19723(16)
H10C H 0.4815 0.8551 0.2354
C20B C 0.0240(3) 1.1967(2) -0.08425(16)
H11B H 0.0629 1.1597 -0.1131
C21B C 0.0089(3) 1.2886(2) -0.10145(16)
H12B H 0.0387 1.3124 -0.1403
C22B C -0.0514(2) 1.3449(2) -0.06001(15)
C23B C -0.0913(3) 1.3046(2) -0.00156(15)
H13B H -0.1318 1.3395 0.0278
C24B C -0.0705(3) 1.2137(2) 0.01212(15)
H14B H -0.0966 1.1886 0.0517
C25B C -0.0425(3) 1.5848(2) -0.13354(15)
H15B H 0.0092 1.6224 -0.1533
C26B C -0.0069(3) 1.4982(2) -0.11206(15)
H16B H 0.0657 1.4779 -0.1192
C27B C -0.0795(2) 1.44171(19) -0.07995(14)
C28B C -0.1843(3) 1.4785(2) -0.06853(16)
H17B H -0.2342 1.4451 -0.0439
C29B C -0.2145(3) 1.5643(2) -0.09359(16)
H18B H -0.2863 1.5865 -0.0865
C30B C -0.7510(2) 0.9873(2) -0.05874(16)
H19B H -0.7971 0.9805 -0.1002
C31B C -0.6350(2) 0.9862(2) -0.06041(15)
H20B H -0.6044 0.9774 -0.1023
C32B C -0.5632(2) 0.99835(18) 0.00020(14)
C33B C -0.6156(2) 1.00747(19) 0.06117(15)
H21B H -0.5716 1.0144 0.1034
C34B C -0.7325(2) 1.00628(19) 0.05882(15)
H22B H -0.7654 1.0117 0.1002
O9B O -0.16429(17) 1.36631(13) -0.25188(10)
H23B H -0.0985 1.3800 -0.2597
H24B H -0.2058 1.4126 -0.2557
O10 O -0.1301(2) 0.8284(2) 0.22881(15)
H25 H -0.1593 0.7881 0.2517
H26 H -0.0597 0.8297 0.2376
O11 O -0.3064(2) 0.91946(19) 0.29159(19)
H27 H -0.2625 0.9110 0.2604
H28 H -0.3018 0.8744 0.3188
O12 O -0.4407(2) 1.07002(18) 0.22857(13)
H29 H -0.4069 1.0214 0.2402
H30 H -0.3948 1.1099 0.2186
loop_
_geom_bond_atom_site_label_1
_geom_bond_atom_site_label_2
_geom_bond_site_symmetry_1
_geom_bond_site_symmetry_2
Cd1 O1 1_555 1_555
Cd2 O3 1_555 1_555
O1 C7 1_555 1_555
O2 C7 1_555 1_555
O3 C8 1_555 1_555
O4 C8 1_555 1_555
O5 C9 1_555 1_555
O6 C9 1_555 1_555
O7 N1 1_555 1_555
O8 N1 1_555 1_555
N1 C5 1_555 1_555
N2 Cd1 1_555 1_555
N3 C15 1_555 1_555
N4 Cd2 1_555 1_555
N5 C25 1_555 1_555
N6 Cd2 1_555 1_555
C1 C2 1_555 1_555
C2 C3 1_555 1_555
C3 C4 1_555 1_555
C4 H1 1_555 1_555
C5 C4 1_555 1_555
C6 C1 1_555 1_555
H2 C6 1_555 1_555
C7 C1 1_555 1_555
C8 C2 1_555 1_555
C9 C3 1_555 1_555
C10 N2 1_555 1_555
H3 C10 1_555 1_555
C11 C10 1_555 1_555
H4 C11 1_555 1_555
C12 C11 1_555 1_555
C13 C12 1_555 1_555
H5 C13 1_555 1_555
C14 N2 1_555 1_555
H6 C14 1_555 1_555
C15 H7 1_555 1_555
C16 C15 1_555 1_555
H8 C16 1_555 1_555
C17 C12 1_555 1_555
C18 C17 1_555 1_555
H9 C18 1_555 1_555
C19 N3 1_555 1_555
H10 C19 1_555 1_555
C20 N4 1_555 1_555
H11 C20 1_555 1_555
C21 C20 1_555 1_555
H12 C21 1_555 1_555
C22 C21 1_555 1_555
C23 C22 1_555 1_555
H13 C23 1_555 1_555
C24 N4 1_555 1_555
H14 C24 1_555 1_555
C25 H15 1_555 1_555
C26 C25 1_555 1_555
H16 C26 1_555 1_555
C27 C22 1_555 1_555
C28 C27 1_555 1_555
H17 C28 1_555 1_555
C29 N5 1_555 1_555
H18 C29 1_555 1_555
C30 N6 1_555 1_555
H19 C30 1_555 1_555
C31 C30 1_555 1_555
H20 C31 1_555 1_555
C32 C31 1_555 1_555
C33 C32 1_555 1_555
H21 C33 1_555 1_555
C34 N6 1_555 1_555
H22 C34 1_555 1_555
O9 Cd1 1_555 1_555
H23 O9 1_555 1_555
H24 O9 1_555 1_555
O10 H25 1_555 1_555
H26 O10 1_555 1_555
O11 H27 1_555 1_555
H28 O11 1_555 1_555
O12 H29 1_555 1_555
H30 O12 1_555 1_555
Cd1B O1B 1_555 1_555
Cd1A O4 1_555 1_555
Cd1C N3 1_555 1_555
Cd1A_2 N5 1_555 1_555
Cd1C_2 O4B 1_555 1_555
Cd1C_3 N5B 1_555 1_555
Cd1C_4 N2C 1_555 1_555
Cd2_2 N6B 1_555 1_555
O1B C7B 1_555 1_555
O2B C7B 1_555 1_555
O3B Cd2 1_555 1_555
O4B C8B 1_555 1_555
O4A Cd1 1_555 1_555
O4C Cd1B 1_555 1_555
O5B C9B 1_555 1_555
O6B C9B 1_555 1_555
O7B N1B 1_555 1_555
O8B N1B 1_555 1_555
N1B C5B 1_555 1_555
N2C C10C 1_555 1_555
N2B Cd1B 1_555 1_555
N3C Cd1 1_555 1_555
N3A Cd1B 1_555 1_555
N4B Cd2 1_555 1_555
N5B C25B 1_555 1_555
N5A Cd1 1_555 1_555
N5C Cd1B 1_555 1_555
N6B C30B 1_555 1_555
N6B_2 Cd2 1_555 1_555
C1B C2B 1_555 1_555
C2B C3B 1_555 1_555
C3B C4B 1_555 1_555
C4B H1B 1_555 1_555
C5B C4B 1_555 1_555
C6B C1B 1_555 1_555
H2B C6B 1_555 1_555
C7B C1B 1_555 1_555
C8B O3B 1_555 1_555
C9B C3B 1_555 1_555
C10C H3C 1_555 1_555
C11C C10C 1_555 1_555
H4C C11C 1_555 1_555
C12C C11C 1_555 1_555
C13C C12C 1_555 1_555
H5C C13C 1_555 1_555
C14C N2C 1_555 1_555
H6C C14C 1_555 1_555
C15C N3C 1_555 1_555
H7C C15C 1_555 1_555
C16C C15C 1_555 1_555
H8C C16C 1_555 1_555
C17C C12C 1_555 1_555
C18C C17C 1_555 1_555
H9C C18C 1_555 1_555
C19C N3C 1_555 1_555
H10C C19C 1_555 1_555
C20B N4B 1_555 1_555
H11B C20B 1_555 1_555
C21B C20B 1_555 1_555
H12B C21B 1_555 1_555
C22B C21B 1_555 1_555
C23B C22B 1_555 1_555
H13B C23B 1_555 1_555
C24B N4B 1_555 1_555
H14B C24B 1_555 1_555
C25B H15B 1_555 1_555
C26B C25B 1_555 1_555
H16B C26B 1_555 1_555
C27B C22B 1_555 1_555
C28B C27B 1_555 1_555
H17B C28B 1_555 1_555
C29B N5B 1_555 1_555
H18B C29B 1_555 1_555
C30B H19B 1_555 1_555
C31B C30B 1_555 1_555
H20B C31B 1_555 1_555
C32B C32 1_555 1_555
C33B C32B 1_555 1_555
H21B C33B 1_555 1_555
C34B N6B 1_555 1_555
H22B C34B 1_555 1_555
O9B Cd1B 1_555 1_555
H23B O9B 1_555 1_555
H24B O9B 1_555 1_555
C5 C6 1_555 1_555
C13 C14 1_555 1_555
C16 C17 1_555 1_555
C18 C19 1_555 1_555
C23 C24 1_555 1_555
C26 C27 1_555 1_555
C28 C29 1_555 1_555
C33 C34 1_555 1_555
C2B C8B 1_555 1_555
C5B C6B 1_555 1_555
C13C C14C 1_555 1_555
C16C C17C 1_555 1_555
C18C C19C 1_555 1_555
C23B C24B 1_555 1_555
C26B C27B 1_555 1_555
C28B C29B 1_555 1_555
C31B C32B 1_555 1_555
C33B C34B 1_555 1_555

#END
