
#######################################################################
#
#                 Cambridge Crystallographic Data Centre
#                                CCDC 
#
#######################################################################
#
# If this CIF has been generated from an entry in the Cambridge 
# Structural Database, then it will include bibliographic, chemical, 
# crystal, experimental, refinement or atomic coordinate data resulting 
# from the CCDC's data processing and validation procedures.
#
#######################################################################

data_QURCAI
_symmetry_cell_setting           triclinic
_symmetry_space_group_name_H-M   'P -1'
_symmetry_Int_Tables_number      2
_space_group_name_Hall           '-P 1'
loop_
_symmetry_equiv_pos_site_id
_symmetry_equiv_pos_as_xyz
1 x,y,z
2 -x,-y,-z
_cell_length_a                   7.7029(2)
_cell_length_b                   9.7491(3)
_cell_length_c                   11.4399(3)
_cell_angle_alpha                102.2980(10)
_cell_angle_beta                 91.4960(10)
_cell_angle_gamma                105.4620(10)
_cell_volume                     805.861
loop_
_atom_site_label
_atom_site_type_symbol
_atom_site_fract_x
_atom_site_fract_y
_atom_site_fract_z
Nd1 Nd 0.10385(2) 0.839850(18) 0.058088(16)
N1 N 0.3845(5) 0.6597(3) 0.3712(3)
N2 N 0.3525(4) 0.4267(3) 0.3140(3)
O1 O 0.2647(7) 0.9884(5) 0.3893(5)
O2 O 0.1707(4) 0.7857(4) 0.2486(3)
O3 O 0.1561(4) 0.1093(3) 0.0727(3)
O4 O 0.0614(4) 0.2981(3) 0.1536(3)
O5 O -0.1229(4) 0.6175(3) 0.0664(3)
O6 O -0.2031(3) 0.3748(3) 0.0160(3)
O7 O 0.4282(4) 0.9464(3) 0.1297(3)
O8 O 0.6971(3) 1.0812(3) 0.0973(2)
O9 O -0.1127(5) 0.9235(4) 0.1977(3)
H1 H -0.1511 0.9892 0.1762
H2 H -0.0660 0.9542 0.2699
C1 C 0.2863(5) 0.4486(4) 0.4265(3)
C2 C 0.2145(6) 0.3526(6) 0.4980(5)
H5 H 0.2011 0.2528 0.4738
C3 C 0.1638(7) 0.4149(9) 0.6078(5)
H6 H 0.1130 0.3548 0.6583
C4 C 0.1867(8) 0.5647(9) 0.6445(5)
H7 H 0.1538 0.6020 0.7198
C5 C 0.2564(7) 0.6589(7) 0.5728(4)
H8 H 0.2692 0.7586 0.5968
C6 C 0.3068(5) 0.5977(5) 0.4630(3)
C7 C 0.4084(5) 0.5549(4) 0.2829(3)
C8 C 0.4890(7) 0.5744(6) 0.1711(4)
H9 H 0.5179 0.6758 0.1685
H10 H 0.4047 0.5172 0.1040
H11 H 0.5973 0.5433 0.1675
C9 C 0.4320(7) 0.8163(5) 0.3747(5)
H12 H 0.5274 0.8391 0.3223
H13 H 0.4789 0.8704 0.4557
C10 C 0.2730(6) 0.8664(5) 0.3363(4)
C11 C 0.3419(6) 0.2838(5) 0.2373(4)
H14 H 0.3414 0.2146 0.2870
H15 H 0.4479 0.2910 0.1925
C12 C 0.1728(5) 0.2281(4) 0.1502(3)
C13 C -0.0942(5) 0.4977(4) 0.0239(3)
C14 C 0.5359(5) 1.0076(4) 0.0655(3)
Nd1_2 Nd 0.10385(2) 1.839850(18) 0.058088(16)
Nd1_3 Nd 0.10385(2) -0.160150(18) 0.058088(16)
Nd1A Nd -0.10385(2) 0.160150(18) -0.058088(16)
Nd1A_2 Nd 0.89615(2) 1.160150(18) -0.058088(16)
Nd1A_3 Nd -0.10385(2) 1.160150(18) -0.058088(16)
N1_2 N 0.3845(5) 1.6597(3) 0.3712(3)
N2_2 N 0.3525(4) 1.4267(3) 0.3140(3)
O1_2 O 0.2647(7) 1.9884(5) 0.3893(5)
O2_2 O 0.1707(4) 1.7857(4) 0.2486(3)
O3_2 O 0.1561(4) 1.1093(3) 0.0727(3)
O3A O -0.1561(4) 0.8907(3) -0.0727(3)
O3_3 O 0.1561(4) 2.1093(3) 0.0727(3)
O3A_2 O -0.1561(4) 1.8907(3) -0.0727(3)
O4_2 O 0.0614(4) 1.2981(3) 0.1536(3)
O4A O -0.0614(4) 0.7019(3) -0.1536(3)
O4A_2 O -0.0614(4) 1.7019(3) -0.1536(3)
O5A O 0.1229(4) 0.3825(3) -0.0664(3)
O5_2 O -0.1229(4) 1.6175(3) 0.0664(3)
O6A O 0.2031(3) 0.6252(3) -0.0160(3)
O6A_2 O 0.2031(3) 1.6252(3) -0.0160(3)
O7A O 0.5718(4) 1.0536(3) -0.1297(3)
O7_2 O 0.4282(4) 1.9464(3) 0.1297(3)
O8A O 0.3029(3) 0.9188(3) -0.0973(2)
O8A_2 O 0.3029(3) 1.9188(3) -0.0973(2)
O9_2 O -0.1127(5) 1.9235(4) 0.1977(3)
H1_2 H -0.1511 1.9892 0.1762
H2_2 H -0.0660 1.9542 0.2699
C1_2 C 0.2863(5) 1.4486(4) 0.4265(3)
C2_2 C 0.2145(6) 1.3526(6) 0.4980(5)
H5_2 H 0.2011 1.2528 0.4738
C3_2 C 0.1638(7) 1.4149(9) 0.6078(5)
H6_2 H 0.1130 1.3548 0.6583
C4_2 C 0.1867(8) 1.5647(9) 0.6445(5)
H7_2 H 0.1538 1.6020 0.7198
C5_2 C 0.2564(7) 1.6589(7) 0.5728(4)
H8_2 H 0.2692 1.7586 0.5968
C6_2 C 0.3068(5) 1.5977(5) 0.4630(3)
C7_2 C 0.4084(5) 1.5549(4) 0.2829(3)
C8_2 C 0.4890(7) 1.5744(6) 0.1711(4)
H9_2 H 0.5179 1.6758 0.1685
H10_2 H 0.4047 1.5172 0.1040
H11_2 H 0.5973 1.5433 0.1675
C9_2 C 0.4320(7) 1.8163(5) 0.3747(5)
H12_2 H 0.5274 1.8391 0.3223
H13_2 H 0.4789 1.8704 0.4557
C10_2 C 0.2730(6) 1.8664(5) 0.3363(4)
C11_2 C 0.3419(6) 1.2838(5) 0.2373(4)
H14_2 H 0.3414 1.2146 0.2870
H15_2 H 0.4479 1.2910 0.1925
C12_2 C 0.1728(5) 1.2281(4) 0.1502(3)
C13A C 0.0942(5) 0.5023(4) -0.0239(3)
C14A C 0.4641(5) 0.9924(4) -0.0655(3)
O10 O 0.0781(16) 0.0057(15) 0.5766(8)
H3 H 0.1173 -0.0015 0.5074
H4 H -0.0322 0.0053 0.5702
loop_
_geom_bond_atom_site_label_1
_geom_bond_atom_site_label_2
_geom_bond_site_symmetry_1
_geom_bond_site_symmetry_2
Nd1 O2 1_555 1_555
N1 C6 1_555 1_555
N2 C1 1_555 1_555
O1 C10 1_555 1_555
O2 C10 1_555 1_555
O3 C12 1_555 1_555
O4 C12 1_555 1_555
O5 Nd1 1_555 1_555
O6 C13 1_555 1_555
O7 Nd1 1_555 1_555
O8 C14 1_555 1_555
O9 Nd1 1_555 1_555
H1 O9 1_555 1_555
H2 O9 1_555 1_555
O10 H3 1_555 1_555
H4 O10 1_555 1_555
C1 C2 1_555 1_555
C2 H5 1_555 1_555
C3 C2 1_555 1_555
H6 C3 1_555 1_555
C4 C3 1_555 1_555
H7 C4 1_555 1_555
C5 C4 1_555 1_555
H8 C5 1_555 1_555
C6 C1 1_555 1_555
C7 N1 1_555 1_555
C8 C7 1_555 1_555
H9 C8 1_555 1_555
H10 C8 1_555 1_555
H11 C8 1_555 1_555
C9 N1 1_555 1_555
H12 C9 1_555 1_555
H13 C9 1_555 1_555
C10 C9 1_555 1_555
C11 N2 1_555 1_555
H14 C11 1_555 1_555
H15 C11 1_555 1_555
C12 C11 1_555 1_555
C13 O5 1_555 1_555
C14 O7 1_555 1_555
Nd1_2 O2_2 1_555 1_555
Nd1_3 O3 1_555 1_555
Nd1A O3 1_555 1_555
Nd1A_2 O8 1_555 1_555
Nd1A_3 O3_2 1_555 1_555
N1_2 C6_2 1_555 1_555
N2_2 C1_2 1_555 1_555
O1_2 C10_2 1_555 1_555
O2_2 C10_2 1_555 1_555
O3_2 Nd1 1_555 1_555
O3A Nd1 1_555 1_555
O3_3 Nd1_2 1_555 1_555
O3A_2 Nd1_2 1_555 1_555
O4_2 Nd1A_3 1_555 1_555
O4A Nd1 1_555 1_555
O4A_2 Nd1_2 1_555 1_555
O5A Nd1A 1_555 1_555
O5_2 Nd1_2 1_555 1_555
O6A Nd1 1_555 1_555
O6A_2 Nd1_2 1_555 1_555
O7A Nd1A_2 1_555 1_555
O7_2 Nd1_2 1_555 1_555
O8A Nd1 1_555 1_555
O8A_2 Nd1_2 1_555 1_555
O9_2 Nd1_2 1_555 1_555
H1_2 O9_2 1_555 1_555
H2_2 O9_2 1_555 1_555
C1_2 C2_2 1_555 1_555
C2_2 H5_2 1_555 1_555
C3_2 C2_2 1_555 1_555
H6_2 C3_2 1_555 1_555
C4_2 C3_2 1_555 1_555
H7_2 C4_2 1_555 1_555
C5_2 C4_2 1_555 1_555
H8_2 C5_2 1_555 1_555
C6_2 C1_2 1_555 1_555
C7_2 N1_2 1_555 1_555
C8_2 C7_2 1_555 1_555
H9_2 C8_2 1_555 1_555
H10_2 C8_2 1_555 1_555
H11_2 C8_2 1_555 1_555
C9_2 N1_2 1_555 1_555
H12_2 C9_2 1_555 1_555
H13_2 C9_2 1_555 1_555
C10_2 C9_2 1_555 1_555
C11_2 N2_2 1_555 1_555
H14_2 C11_2 1_555 1_555
H15_2 C11_2 1_555 1_555
C12_2 O3_2 1_555 1_555
C13A C13 1_555 1_555
C14A C14 1_555 1_555
N2 C7 1_555 1_555
O4 Nd1A 1_555 1_555
O6 Nd1A 1_555 1_555
C5 C6 1_555 1_555
Nd1A_3 O3A 1_555 1_555
N2_2 C7_2 1_555 1_555
O4_2 C12_2 1_555 1_555
O5A C13A 1_555 1_555
O6A C13A 1_555 1_555
O7A C14A 1_555 1_555
O8A C14A 1_555 1_555
C5_2 C6_2 1_555 1_555
C11_2 C12_2 1_555 1_555

#END
