
#######################################################################
#
#                 Cambridge Crystallographic Data Centre
#                                CCDC 
#
#######################################################################
#
# If this CIF has been generated from an entry in the Cambridge 
# Structural Database, then it will include bibliographic, chemical, 
# crystal, experimental, refinement or atomic coordinate data resulting 
# from the CCDC's data processing and validation procedures.
#
#######################################################################

data_QURCEM
_symmetry_cell_setting           monoclinic
_symmetry_space_group_name_H-M   'C 2/c'
_symmetry_Int_Tables_number      15
_space_group_name_Hall           '-C 2yn'
loop_
_symmetry_equiv_pos_site_id
_symmetry_equiv_pos_as_xyz
1 x,y,z
2 -x,y,1/2-z
3 1/2+x,1/2+y,z
4 1/2-x,1/2+y,1/2-z
5 -x,-y,-z
6 x,-y,1/2+z
7 1/2-x,1/2-y,-z
8 1/2+x,1/2-y,1/2+z
_cell_length_a                   29.95(2)
_cell_length_b                   11.365(10)
_cell_length_c                   12.272(10)
_cell_angle_alpha                90
_cell_angle_beta                 102.467(9)
_cell_angle_gamma                90
_cell_volume                     4078.67
loop_
_atom_site_label
_atom_site_type_symbol
_atom_site_fract_x
_atom_site_fract_y
_atom_site_fract_z
Zn1 Zn 0.0000 -0.05386(11) 0.7500
Zn2 Zn -0.11443(3) 0.09432(8) 0.46470(7)
O2 O -0.1686(2) 0.2038(5) 0.3788(5)
H3 H -0.1604 0.2697 0.4044
H4 H -0.1891 0.1765 0.4072
O3 O -0.05886(17) -0.0149(5) 0.5442(4)
O4 O -0.02933(18) -0.1713(5) 0.6406(4)
O5 O -0.03732(17) -0.0665(5) 0.3022(4)
O6 O -0.10076(18) 0.0327(4) 0.3128(4)
O7 O -0.11579(18) -0.1466(5) 0.1224(4)
O8 O -0.1824(3) -0.2290(9) 0.1176(6)
O9 O -0.1707(4) -0.5449(8) 0.4022(8)
O10 O -0.1305(5) -0.5160(10) 0.5650(9)
N1 N -0.0664(2) 0.2389(6) 0.4673(5)
N2 N -0.1661(2) -0.0378(6) 0.4728(5)
N3 N -0.1455(4) -0.4851(9) 0.4688(10)
C1 C -0.0676(3) 0.3109(8) 0.3838(8)
H5 H -0.0860 0.2918 0.3149
C2 C -0.0426(3) 0.4148(8) 0.3930(8)
H6 H -0.0454 0.4644 0.3317
C3 C -0.0137(3) 0.4447(7) 0.4925(7)
C4 C -0.0104(3) 0.3630(7) 0.5769(7)
H7 H 0.0103 0.3752 0.6442
C5 C -0.0375(3) 0.2628(7) 0.5626(7)
H8 H -0.0354 0.2107 0.6220
C6 C -0.1686(3) -0.0839(7) 0.5719(6)
H9 H -0.1475 -0.0588 0.6349
C7 C -0.2005(3) -0.1662(8) 0.5857(7)
H10 H -0.2008 -0.1956 0.6563
C8 C -0.2321(3) -0.2045(7) 0.4940(6)
C9 C -0.2297(3) -0.1572(9) 0.3924(7)
H11 H -0.2505 -0.1801 0.3282
C10 C -0.1967(3) -0.0768(8) 0.3860(7)
H12 H -0.1956 -0.0472 0.3159
C11 C -0.0765(3) -0.0581(7) 0.3199(6)
C12 C -0.0949(2) -0.1726(6) 0.3585(6)
C13 C -0.0820(2) -0.2043(7) 0.4705(6)
C14 C -0.0986(3) -0.3091(8) 0.5057(7)
H13 H -0.0900 -0.3321 0.5800
C15 C -0.1274(3) -0.3772(8) 0.4314(8)
C16 C -0.1257(3) -0.2425(7) 0.2837(6)
C17 C -0.1427(3) -0.2066(8) 0.1644(7)
C18 C -0.0547(2) -0.1244(7) 0.5564(6)
C19 C -0.1416(3) -0.3455(8) 0.3222(7)
H14 H -0.1620 -0.3932 0.2735
Zn1D Zn 0.0000 0.05386(11) 0.2500
Zn2D Zn 0.11443(3) -0.09432(8) 0.53530(7)
Zn2E Zn -0.11443(3) -0.09432(8) -0.03530(7)
Zn2D_2 Zn 0.11443(3) 0.90568(8) 0.53530(7)
Zn2F Zn -0.38557(3) -0.59432(8) 0.53530(7)
Zn2A Zn 0.11443(3) 0.09432(8) 1.03530(7)
O2D O 0.1686(2) -0.2038(5) 0.6212(5)
H3D H 0.1604 -0.2697 0.5956
H4D H 0.1891 -0.1765 0.5928
O3D O 0.05886(17) 0.0149(5) 0.4558(4)
O4D O 0.02933(18) 0.1713(5) 0.3594(4)
O4A O 0.02933(18) -0.1713(5) 0.8594(4)
O5D O 0.03732(17) 0.0665(5) 0.6978(4)
O5E O -0.03732(17) 0.0665(5) 0.8022(4)
O6D O 0.10076(18) -0.0327(4) 0.6872(4)
O7D O 0.11579(18) 0.1466(5) 0.8776(4)
O7E O -0.11579(18) 0.1466(5) 0.6224(4)
O7A O 0.11579(18) -0.1466(5) 0.3776(4)
O8D O 0.1824(3) 0.2290(9) 0.8824(6)
O9D O 0.1707(4) 0.5449(8) 0.5978(8)
O10D O 0.1305(5) 0.5160(10) 0.4350(9)
N1D N 0.0664(2) 0.7611(6) 0.5327(5)
N1D_2 N 0.0664(2) -0.2389(6) 0.5327(5)
N2F N -0.3339(2) -0.4622(6) 0.5272(5)
N2D N 0.1661(2) 0.0378(6) 0.5272(5)
N3D N 0.1455(4) 0.4851(9) 0.5312(10)
C1D C 0.0676(3) 0.6891(8) 0.6162(8)
H5D H 0.0860 0.7082 0.6851
C2D C 0.0426(3) 0.5852(8) 0.6070(8)
H6D H 0.0454 0.5356 0.6683
C3D C 0.0137(3) 0.5553(7) 0.5075(7)
C4D C 0.0104(3) 0.6370(7) 0.4231(7)
H7D H -0.0103 0.6248 0.3558
C5D C 0.0375(3) 0.7372(7) 0.4374(7)
H8D H 0.0354 0.7893 0.3780
C6F C -0.3314(3) -0.4161(7) 0.4281(6)
H9F H -0.3525 -0.4412 0.3651
C7F C -0.2995(3) -0.3338(8) 0.4143(7)
H10F H -0.2992 -0.3044 0.3437
C8F C -0.2679(3) -0.2955(7) 0.5060(6)
C9F C -0.2703(3) -0.3428(9) 0.6076(7)
H11F H -0.2495 -0.3199 0.6718
C10F C -0.3033(3) -0.4232(8) 0.6140(7)
H12F H -0.3044 -0.4528 0.6841
C11D C 0.0765(3) 0.0581(7) 0.6801(6)
C12D C 0.0949(2) 0.1726(6) 0.6415(6)
C13D C 0.0820(2) 0.2043(7) 0.5295(6)
C14D C 0.0986(3) 0.3091(8) 0.4943(7)
H13D H 0.0900 0.3321 0.4200
C15D C 0.1274(3) 0.3772(8) 0.5686(8)
C16D C 0.1257(3) 0.2425(7) 0.7163(6)
C17D C 0.1427(3) 0.2066(8) 0.8356(7)
C18D C 0.0547(2) 0.1244(7) 0.4436(6)
C19D C 0.1416(3) 0.3455(8) 0.6778(7)
H14D H 0.1620 0.3932 0.7265
O1 O 0.2532(4) 0.3588(12) 0.9116(15)
H1 H 0.2603 0.3898 0.9731
H2 H 0.2243 0.3561 0.8904
loop_
_geom_bond_atom_site_label_1
_geom_bond_atom_site_label_2
_geom_bond_site_symmetry_1
_geom_bond_site_symmetry_2
Zn1 O4 1_555 1_555
Zn2 O2 1_555 1_555
O1 H1 1_555 1_555
H2 O1 1_555 1_555
O2 H3 1_555 1_555
H4 O2 1_555 1_555
O3 Zn2 1_555 1_555
O4 C18 1_555 1_555
O5 C11 1_555 1_555
O6 Zn2 1_555 1_555
O7 C17 1_555 1_555
O8 C17 1_555 1_555
O9 N3 1_555 1_555
O10 N3 1_555 1_555
N1 Zn2 1_555 1_555
N2 Zn2 1_555 1_555
N3 C15 1_555 1_555
C1 N1 1_555 1_555
H5 C1 1_555 1_555
C2 C1 1_555 1_555
H6 C2 1_555 1_555
C3 C2 1_555 1_555
C4 C3 1_555 1_555
H7 C4 1_555 1_555
C5 N1 1_555 1_555
H8 C5 1_555 1_555
C6 N2 1_555 1_555
H9 C6 1_555 1_555
C7 C6 1_555 1_555
H10 C7 1_555 1_555
C8 C7 1_555 1_555
C9 C8 1_555 1_555
H11 C9 1_555 1_555
C10 N2 1_555 1_555
H12 C10 1_555 1_555
C11 O6 1_555 1_555
C12 C11 1_555 1_555
C13 C12 1_555 1_555
C14 C13 1_555 1_555
H13 C14 1_555 1_555
C15 C14 1_555 1_555
C16 C12 1_555 1_555
C17 C16 1_555 1_555
C18 O3 1_555 1_555
C19 C15 1_555 1_555
H14 C19 1_555 1_555
Zn1D O5 1_555 1_555
Zn2D O2D 1_555 1_555
Zn2E O7 1_555 1_555
Zn2D_2 N1D 1_555 1_555
Zn2F N2F 1_555 1_555
Zn2A O7D 1_555 1_555
O2D H3D 1_555 1_555
H4D O2D 1_555 1_555
O3D Zn2D 1_555 1_555
O4D Zn1D 1_555 1_555
O4A Zn1 1_555 1_555
O5D Zn1 1_555 1_555
O5E Zn1 1_555 1_555
O6D Zn2D 1_555 1_555
O7D C17D 1_555 1_555
O7E Zn2 1_555 1_555
O7A Zn2D 1_555 1_555
O8D C17D 1_555 1_555
O9D N3D 1_555 1_555
O10D N3D 1_555 1_555
N1D C1D 1_555 1_555
N1D_2 Zn2D 1_555 1_555
N2F C6F 1_555 1_555
N2D Zn2D 1_555 1_555
N3D C15D 1_555 1_555
C1D H5D 1_555 1_555
C2D C1D 1_555 1_555
H6D C2D 1_555 1_555
C3D C3 1_555 1_555
C4D C3D 1_555 1_555
H7D C4D 1_555 1_555
C5D N1D 1_555 1_555
H8D C5D 1_555 1_555
C6F H9F 1_555 1_555
C7F C6F 1_555 1_555
H10F C7F 1_555 1_555
C8F C8 1_555 1_555
C9F C8F 1_555 1_555
H11F C9F 1_555 1_555
C10F N2F 1_555 1_555
H12F C10F 1_555 1_555
C11D O5D 1_555 1_555
C12D C11D 1_555 1_555
C13D C12D 1_555 1_555
C14D C13D 1_555 1_555
H13D C14D 1_555 1_555
C15D C14D 1_555 1_555
C16D C12D 1_555 1_555
C17D C16D 1_555 1_555
C18D O3D 1_555 1_555
C19D C15D 1_555 1_555
H14D C19D 1_555 1_555
C4 C5 1_555 1_555
C9 C10 1_555 1_555
C13 C18 1_555 1_555
C16 C19 1_555 1_555
O4D C18D 1_555 1_555
O6D C11D 1_555 1_555
C2D C3D 1_555 1_555
C4D C5D 1_555 1_555
C7F C8F 1_555 1_555
C9F C10F 1_555 1_555
C13D C18D 1_555 1_555
C16D C19D 1_555 1_555

#END
