
#######################################################################
#
#                 Cambridge Crystallographic Data Centre
#                                CCDC 
#
#######################################################################
#
# If this CIF has been generated from an entry in the Cambridge 
# Structural Database, then it will include bibliographic, chemical, 
# crystal, experimental, refinement or atomic coordinate data resulting 
# from the CCDC's data processing and validation procedures.
#
#######################################################################

data_QURDIR
_symmetry_cell_setting           triclinic
_symmetry_space_group_name_H-M   'P -1'
_symmetry_Int_Tables_number      2
_space_group_name_Hall           '-P 1'
loop_
_symmetry_equiv_pos_site_id
_symmetry_equiv_pos_as_xyz
1 x,y,z
2 -x,-y,-z
_cell_length_a                   7.6373(15)
_cell_length_b                   10.047(2)
_cell_length_c                   11.501(2)
_cell_angle_alpha                100.961(2)
_cell_angle_beta                 97.103(2)
_cell_angle_gamma                91.034(2)
_cell_volume                     858.963
loop_
_atom_site_label
_atom_site_type_symbol
_atom_site_fract_x
_atom_site_fract_y
_atom_site_fract_z
Zn1 Zn 0.32121(5) 0.50725(4) 0.61405(4)
O1 O 0.2248(3) 0.4137(3) 0.8223(2)
O2 O 0.0858(3) 0.4793(2) 0.6630(2)
O3 O -0.2962(3) 0.4807(2) 0.5542(2)
O4 O -0.2009(3) 0.2730(2) 0.4992(2)
O5 O -0.6109(3) 0.3127(2) 0.5792(2)
O6 O -0.6028(3) 0.1171(3) 0.6417(2)
N1 N 0.4637(3) 0.6526(3) 0.7399(2)
N2 N 1.1533(4) 1.1699(3) 1.4043(2)
H1 H 1.2242 1.2187 1.4609
C1 C -0.0856(4) 0.3816(3) 0.7873(3)
C2 C -0.2364(4) 0.3474(3) 0.7014(3)
C3 C -0.3815(4) 0.2826(3) 0.7336(3)
C4 C -0.3818(4) 0.2616(3) 0.8492(3)
H2 H -0.4790 0.2178 0.8691
C5 C -0.2398(5) 0.3048(3) 0.9349(3)
H3 H -0.2437 0.2965 1.0137
C6 C -0.0917(4) 0.3606(3) 0.9024(3)
H4 H 0.0069 0.3849 0.9592
C7 C 0.0888(4) 0.4291(3) 0.7567(3)
C8 C -0.2405(4) 0.3667(4) 0.5741(3)
C9 C -0.5438(4) 0.2317(3) 0.6460(3)
C10 C 0.4812(4) 0.7824(3) 0.7302(3)
H5 H 0.4273 0.8090 0.6618
C11 C 0.5767(5) 0.8789(3) 0.8185(3)
H6 H 0.5846 0.9685 0.8087
C12 C 0.6606(4) 0.8430(3) 0.9211(3)
C13 C 0.6416(4) 0.7068(3) 0.9299(3)
H7 H 0.6953 0.6770 0.9968
C14 C 0.5445(4) 0.6179(3) 0.8403(3)
H8 H 0.5331 0.5280 0.8486
C15 C 0.7622(5) 0.9435(3) 1.0166(3)
H9 H 0.7812 1.0299 1.0016
C16 C 0.8287(4) 0.9198(4) 1.1227(3)
H10 H 0.8046 0.8337 1.1371
C17 C 1.1330(5) 1.0389(4) 1.4032(3)
H11 H 1.1939 1.0013 1.4633
C18 C 1.0225(5) 0.9584(4) 1.3135(3)
H12 H 1.0046 0.8668 1.3146
C19 C 0.9362(4) 1.0139(3) 1.2200(3)
C20 C 0.9597(5) 1.1517(3) 1.2272(3)
H13 H 0.9017 1.1925 1.1681
C21 C 1.0681(5) 1.2294(4) 1.3209(3)
H14 H 1.0818 1.3226 1.3260
Zn1A Zn -0.32121(5) 0.49275(4) 0.38595(4)
Zn1_2 Zn -0.67879(5) 0.50725(4) 0.61405(4)
O3A O 0.2962(3) 0.5193(2) 0.4458(2)
O5_2 O 0.3891(3) 0.3127(2) 0.5792(2)
loop_
_geom_bond_atom_site_label_1
_geom_bond_atom_site_label_2
_geom_bond_site_symmetry_1
_geom_bond_site_symmetry_2
Zn1 O2 1_555 1_555
O1 C7 1_555 1_555
O2 C7 1_555 1_555
O3 C8 1_555 1_555
O4 C8 1_555 1_555
O5 C9 1_555 1_555
O6 C9 1_555 1_555
N1 Zn1 1_555 1_555
N2 H1 1_555 1_555
C1 C2 1_555 1_555
C2 C3 1_555 1_555
C3 C4 1_555 1_555
C4 H2 1_555 1_555
C5 C4 1_555 1_555
H3 C5 1_555 1_555
C6 C1 1_555 1_555
H4 C6 1_555 1_555
C7 C1 1_555 1_555
C8 C2 1_555 1_555
C9 C3 1_555 1_555
C10 N1 1_555 1_555
H5 C10 1_555 1_555
C11 C10 1_555 1_555
H6 C11 1_555 1_555
C12 C11 1_555 1_555
C13 C12 1_555 1_555
H7 C13 1_555 1_555
C14 N1 1_555 1_555
H8 C14 1_555 1_555
C15 C12 1_555 1_555
H9 C15 1_555 1_555
C16 C15 1_555 1_555
H10 C16 1_555 1_555
C17 N2 1_555 1_555
H11 C17 1_555 1_555
C18 C17 1_555 1_555
H12 C18 1_555 1_555
C19 C16 1_555 1_555
C20 C19 1_555 1_555
H13 C20 1_555 1_555
C21 N2 1_555 1_555
H14 C21 1_555 1_555
Zn1A O3 1_555 1_555
Zn1_2 O5 1_555 1_555
O3A Zn1 1_555 1_555
O5_2 Zn1 1_555 1_555
C5 C6 1_555 1_555
C13 C14 1_555 1_555
C18 C19 1_555 1_555
C20 C21 1_555 1_555

#END
