
#######################################################################
#
#                 Cambridge Crystallographic Data Centre
#                                CCDC 
#
#######################################################################
#
# If this CIF has been generated from an entry in the Cambridge 
# Structural Database, then it will include bibliographic, chemical, 
# crystal, experimental, refinement or atomic coordinate data resulting 
# from the CCDC's data processing and validation procedures.
#
#######################################################################

data_QURDEN
_symmetry_cell_setting           triclinic
_symmetry_space_group_name_H-M   'P -1'
_symmetry_Int_Tables_number      2
_space_group_name_Hall           '-P 1'
loop_
_symmetry_equiv_pos_site_id
_symmetry_equiv_pos_as_xyz
1 x,y,z
2 -x,-y,-z
_cell_length_a                   8.2630(8)
_cell_length_b                   10.3399(10)
_cell_length_c                   14.1658(13)
_cell_angle_alpha                75.1920(10)
_cell_angle_beta                 77.6090(10)
_cell_angle_gamma                76.6340(10)
_cell_volume                     1122.75
loop_
_atom_site_label
_atom_site_type_symbol
_atom_site_fract_x
_atom_site_fract_y
_atom_site_fract_z
Cd1 Cd 0.199324(16) 0.085583(13) 1.175998(10)
Cd2 Cd 0.591730(16) -0.139440(13) 1.081530(9)
O1 O 0.40548(18) 0.02042(16) 1.27136(11)
O2 O 0.65440(19) -0.01547(15) 1.17296(11)
O3 O 0.70756(18) 0.25791(16) 1.06655(10)
O4 O 0.96928(17) 0.17867(16) 1.09480(10)
O5 O 0.9297(2) 0.46418(17) 1.19741(15)
O6 O 1.11056(18) 0.27270(15) 1.24121(13)
O7 O 0.39006(17) 0.23859(13) 1.05782(10)
H1 H 0.3366 0.3171 1.0467
H2 H 0.4884 0.2359 1.0642
O8 O 0.32756(16) -0.02326(13) 1.05530(9)
H3 H 0.2739 -0.0777 1.0374
O9 O 0.86198(17) -0.26545(14) 1.08761(10)
H4 H 0.9113 -0.2459 1.0300
H5 H 0.8675 -0.3499 1.1057
N1 N -0.4934(2) -0.68409(17) 1.79830(13)
N2 N 0.0603(2) -0.07875(17) 1.28410(12)
C1 C 0.6251(2) 0.12223(18) 1.28707(14)
C2 C 0.7519(2) 0.19560(18) 1.23457(13)
C3 C 0.8195(2) 0.26543(19) 1.28493(15)
C4 C 0.7597(3) 0.2622(2) 1.38527(16)
H8 H 0.8046 0.3091 1.4182
C5 C 0.6348(3) 0.1901(2) 1.43614(16)
H9 H 0.5964 0.1879 1.5031
C6 C 0.5666(3) 0.1207(2) 1.38696(15)
H10 H 0.4815 0.0730 1.4210
C7 C 0.5554(2) 0.03667(19) 1.23941(14)
C8 C 0.8125(2) 0.20874(19) 1.12403(14)
C9 C 0.9630(3) 0.3415(2) 1.23534(16)
C10 C -0.4654(3) -0.6851(2) 1.70181(16)
H11 H -0.4991 -0.7532 1.6828
C11 C -0.3894(3) -0.5909(2) 1.62929(16)
H12 H -0.3746 -0.5954 1.5632
C12 C -0.3347(3) -0.4889(2) 1.65509(15)
C13 C -0.3683(4) -0.4851(3) 1.75442(17)
H13 H -0.3381 -0.4170 1.7753
C14 C -0.4468(4) -0.5829(3) 1.82243(17)
H14 H -0.4684 -0.5781 1.8887
C15 C -0.2448(3) -0.3876(2) 1.58423(16)
H15 H -0.2150 -0.3239 1.6101
C16 C -0.2014(3) -0.3773(2) 1.48703(16)
H16 H -0.2302 -0.4405 1.4603
C17 C 0.0115(3) -0.1738(2) 1.25385(16)
H17 H 0.0346 -0.1737 1.1866
C18 C -0.0720(3) -0.2727(2) 1.31778(16)
H18 H -0.1013 -0.3380 1.2933
C19 C -0.1116(3) -0.2740(2) 1.41825(15)
C20 C -0.0627(3) -0.1730(2) 1.44933(16)
H19 H -0.0878 -0.1685 1.5158
C21 C 0.0226(3) -0.0801(2) 1.38131(16)
H20 H 0.0559 -0.0149 1.4039
Cd1_2 Cd 1.199324(16) 0.085583(13) 1.175998(10)
Cd2A Cd 0.408270(16) 0.139440(13) 0.918470(9)
Cd2A_2 Cd -0.591730(16) -0.860560(13) 1.918470(9)
O4_2 O -0.03072(17) 0.17867(16) 1.09480(10)
O6_2 O 0.11056(18) 0.27270(15) 1.24121(13)
O7A O 0.60994(17) -0.23859(13) 0.94218(10)
H1A H 0.6634 -0.3171 0.9533
H2A H 0.5116 -0.2359 0.9358
O8A O 0.67244(16) 0.02326(13) 0.94470(9)
H3A H 0.7261 0.0777 0.9626
N1A N 0.4934(2) -0.31591(17) 1.20170(13)
O10 O 0.7886(2) 0.51356(17) 0.95993(15)
H6 H 0.7825 0.4350 0.9884
H7 H 0.8627 0.5192 0.9104
loop_
_geom_bond_atom_site_label_1
_geom_bond_atom_site_label_2
_geom_bond_site_symmetry_1
_geom_bond_site_symmetry_2
Cd1 O1 1_555 1_555
Cd2 O2 1_555 1_555
O1 C7 1_555 1_555
O2 C7 1_555 1_555
O3 C8 1_555 1_555
O4 C8 1_555 1_555
O5 C9 1_555 1_555
O6 C9 1_555 1_555
O7 Cd1 1_555 1_555
H1 O7 1_555 1_555
H2 O7 1_555 1_555
O8 Cd1 1_555 1_555
H3 O8 1_555 1_555
O9 Cd2 1_555 1_555
H4 O9 1_555 1_555
H5 O9 1_555 1_555
O10 H6 1_555 1_555
H7 O10 1_555 1_555
N1 C10 1_555 1_555
N2 Cd1 1_555 1_555
C1 C2 1_555 1_555
C2 C3 1_555 1_555
C3 C4 1_555 1_555
C4 H8 1_555 1_555
C5 C4 1_555 1_555
H9 C5 1_555 1_555
C6 C1 1_555 1_555
H10 C6 1_555 1_555
C7 C1 1_555 1_555
C8 C2 1_555 1_555
C9 C3 1_555 1_555
C10 H11 1_555 1_555
C11 C10 1_555 1_555
H12 C11 1_555 1_555
C12 C11 1_555 1_555
C13 C12 1_555 1_555
H13 C13 1_555 1_555
C14 N1 1_555 1_555
H14 C14 1_555 1_555
C15 C12 1_555 1_555
H15 C15 1_555 1_555
C16 C15 1_555 1_555
H16 C16 1_555 1_555
C17 N2 1_555 1_555
H17 C17 1_555 1_555
C18 C17 1_555 1_555
H18 C18 1_555 1_555
C19 C16 1_555 1_555
C20 C19 1_555 1_555
H19 C20 1_555 1_555
C21 N2 1_555 1_555
H20 C21 1_555 1_555
Cd1_2 O4 1_555 1_555
Cd2A O7 1_555 1_555
Cd2A_2 N1 1_555 1_555
O4_2 Cd1 1_555 1_555
O6_2 Cd1 1_555 1_555
O7A Cd2 1_555 1_555
H1A O7A 1_555 1_555
H2A O7A 1_555 1_555
O8A Cd2 1_555 1_555
H3A O8A 1_555 1_555
N1A Cd2 1_555 1_555
Cd2 O8 1_555 1_555
O6 Cd1_2 1_555 1_555
O8 Cd2A 1_555 1_555
C5 C6 1_555 1_555
C13 C14 1_555 1_555
C18 C19 1_555 1_555
C20 C21 1_555 1_555
Cd2A O8A 1_555 1_555

#END
