
#######################################################################
#
#                 Cambridge Crystallographic Data Centre
#                                CCDC 
#
#######################################################################
#
# If this CIF has been generated from an entry in the Cambridge 
# Structural Database, then it will include bibliographic, chemical, 
# crystal, experimental, refinement or atomic coordinate data resulting 
# from the CCDC's data processing and validation procedures.
#
#######################################################################

data_QURJES
_symmetry_cell_setting           monoclinic
_symmetry_space_group_name_H-M   'P 21'
_symmetry_Int_Tables_number      4
_space_group_name_Hall           'P 2yb'
loop_
_symmetry_equiv_pos_site_id
_symmetry_equiv_pos_as_xyz
1 x,y,z
2 -x,1/2+y,-z
_cell_length_a                   9.418(2)
_cell_length_b                   9.3238(13)
_cell_length_c                   10.385(3)
_cell_angle_alpha                90
_cell_angle_beta                 109.899(12)
_cell_angle_gamma                90
_cell_volume                     857.476
loop_
_atom_site_label
_atom_site_type_symbol
_atom_site_fract_x
_atom_site_fract_y
_atom_site_fract_z
Cs1 Cs 1.03567(5) -0.00030(7) 0.07430(6)
O1 O 0.3944(7) 0.0684(8) -0.5253(7)
H1 H 0.3401 -0.0130 -0.5523
O2 O 0.3027(7) 0.3958(8) -0.3906(7)
H2 H 0.3478 0.4656 -0.3559
O3 O 0.4462(7) 0.2009(6) -0.1836(5)
O4 O 0.7716(7) 0.1797(8) -0.1255(6)
H3 H 0.7092 0.1821 -0.0751
O5 O 0.7757(7) 0.3368(7) -0.3642(7)
H4 H 0.8426 0.3291 -0.3991
O6 O 0.8732(7) -0.0336(7) -0.2924(8)
O7 O 0.9949(7) 0.1502(8) -0.3451(7)
O8 O 0.1893(7) 0.2794(10) -0.1071(7)
H5 H 0.1627 0.2160 -0.1857
O9 O 0.2413(8) 0.2667(8) 0.1737(8)
H6 H 0.2224 0.3398 0.1880
O10 O 0.5178(8) 0.1358(8) 0.2707(7)
H7 H 0.4752 0.1313 0.3195
O11 O 0.5982(7) 0.2309(7) 0.0352(6)
O12 O 0.8930(8) 0.2897(11) 0.1810(8)
H8 H 0.9386 0.3513 0.2233
O13 O 1.0007(9) -0.0329(9) 0.4270(9)
H9 H 0.9863 0.0619 0.4635
H10 H 0.9257 -0.1178 0.3946
C1 C 0.3078(9) 0.1627(11) -0.4762(9)
H11 H 0.2728(9) 0.1138(11) -0.4101(9)
H12 H 0.2203(9) 0.1950(11) -0.5513(9)
C2 C 0.4057(9) 0.2908(10) -0.4088(9)
H13 H 0.4546(9) 0.3291(10) -0.4711(9)
C3 C 0.5248(9) 0.2622(9) -0.2701(8)
H14 H 0.5654(9) 0.3553(9) -0.2307(8)
C4 C 0.6600(9) 0.1639(9) -0.2578(8)
H15 H 0.6244(9) 0.0644(9) -0.2676(8)
C5 C 0.7400(9) 0.1897(9) -0.3605(8)
H16 H 0.6710(9) 0.1625(9) -0.4514(8)
C6 C 0.8822(10) 0.0971(9) -0.3279(8)
C7 C 0.4583(9) 0.2744(11) -0.0665(8)
H17 H 0.4581(9) 0.3781(11) -0.0823(8)
C8 C 0.3300(9) 0.2329(11) -0.0146(9)
H18 H 0.3289(9) 0.1289(11) -0.0012(9)
C9 C 0.3561(9) 0.3112(10) 0.1214(8)
H19 H 0.3465(9) 0.4146(10) 0.1040(8)
C10 C 0.5115(10) 0.2805(11) 0.2251(9)
H20 H 0.5284(10) 0.3443(11) 0.3039(9)
C11 C 0.6327(10) 0.3086(11) 0.1621(8)
H21 H 0.6350(10) 0.4114(11) 0.1434(8)
C12 C 0.7880(10) 0.2614(14) 0.2493(10)
H22 H 0.8183(10) 0.3122(14) 0.3359(10)
H23 H 0.7872(10) 0.1596(14) 0.2681(10)
Cs1A Cs 0.96433(5) -0.50030(7) -0.07430(6)
Cs1A_2 Cs 0.96433(5) 0.49970(7) -0.07430(6)
O4A O 1.2284(7) -0.3203(8) 0.1255(6)
O5A O 1.2243(7) -0.1632(7) 0.3642(7)
O8_2 O 1.1893(7) 0.2794(10) -0.1071(7)
O8A O 0.8107(7) -0.2206(10) 0.1071(7)
O9_2 O 1.2413(8) 0.2667(8) 0.1737(8)
O9A O 0.7587(8) -0.2333(8) -0.1737(8)
O12A O 1.1070(8) -0.2103(11) -0.1810(8)
Cs1_2 Cs 0.03567(5) -0.00030(7) 0.07430(6)
Cs1A_3 Cs -0.03567(5) 0.49970(7) -0.07430(6)
H3A H 1.2908 -0.3179 0.0751
H4A H 1.1574 -0.1709 0.3991
H5_2 H 1.1627 0.2160 -0.1857
H5A H 0.8373 -0.2840 0.1857
H6_2 H 1.2224 0.3398 0.1880
H6A H 0.7776 -0.1602 -0.1880
H8A H 1.0614 -0.1487 -0.2233
loop_
_geom_bond_atom_site_label_1
_geom_bond_atom_site_label_2
_geom_bond_site_symmetry_1
_geom_bond_site_symmetry_2
Cs1 O4 1_555 1_555
O1 H1 1_555 1_555
O2 H2 1_555 1_555
O3 C3 1_555 1_555
O4 H3 1_555 1_555
O5 H4 1_555 1_555
O6 Cs1 1_555 1_555
O7 C6 1_555 1_555
O8 H5 1_555 1_555
O9 H6 1_555 1_555
O10 H7 1_555 1_555
O11 C7 1_555 1_555
O12 Cs1 1_555 1_555
H8 O12 1_555 1_555
O13 Cs1 1_555 1_555
H9 O13 1_555 1_555
H10 O13 1_555 1_555
C1 O1 1_555 1_555
H11 C1 1_555 1_555
H12 C1 1_555 1_555
C2 O2 1_555 1_555
H13 C2 1_555 1_555
C3 C2 1_555 1_555
H14 C3 1_555 1_555
C4 O4 1_555 1_555
H15 C4 1_555 1_555
C5 O5 1_555 1_555
H16 C5 1_555 1_555
C6 O6 1_555 1_555
C7 O3 1_555 1_555
H17 C7 1_555 1_555
C8 O8 1_555 1_555
H18 C8 1_555 1_555
C9 O9 1_555 1_555
H19 C9 1_555 1_555
C10 O10 1_555 1_555
H20 C10 1_555 1_555
C11 O11 1_555 1_555
H21 C11 1_555 1_555
C12 O12 1_555 1_555
H22 C12 1_555 1_555
H23 C12 1_555 1_555
Cs1A O4A 1_555 1_555
Cs1A_2 O4 1_555 1_555
O4A Cs1 1_555 1_555
O5A Cs1 1_555 1_555
O8_2 Cs1 1_555 1_555
O8A Cs1 1_555 1_555
O9_2 Cs1 1_555 1_555
O9A Cs1 1_555 1_555
O12A Cs1 1_555 1_555
Cs1_2 O8 1_555 1_555
Cs1A_3 O8 1_555 1_555
H3A O4A 1_555 1_555
H4A O5A 1_555 1_555
H5_2 O8_2 1_555 1_555
H5A O8A 1_555 1_555
H6_2 O9_2 1_555 1_555
H6A O9A 1_555 1_555
H8A O12A 1_555 1_555
O5 Cs1A_2 1_555 1_555
O9 Cs1_2 1_555 1_555
O9 Cs1A_3 1_555 1_555
O12 Cs1A_2 1_555 1_555
C1 C2 1_555 1_555
C3 C4 1_555 1_555
C4 C5 1_555 1_555
C5 C6 1_555 1_555
C7 C8 1_555 1_555
C8 C9 1_555 1_555
C9 C10 1_555 1_555
C10 C11 1_555 1_555
C11 C12 1_555 1_555
Cs1A O8A 1_555 1_555
Cs1A O9A 1_555 1_555
Cs1A O12A 1_555 1_555
Cs1A_2 O8_2 1_555 1_555
Cs1A_2 O9_2 1_555 1_555

#END
