
#######################################################################
#
#                 Cambridge Crystallographic Data Centre
#                                CCDC 
#
#######################################################################
#
# If this CIF has been generated from an entry in the Cambridge 
# Structural Database, then it will include bibliographic, chemical, 
# crystal, experimental, refinement or atomic coordinate data resulting 
# from the CCDC's data processing and validation procedures.
#
#######################################################################

data_QURKUJ
_symmetry_cell_setting           orthorhombic
_symmetry_space_group_name_H-M   'P n a 21'
_symmetry_Int_Tables_number      33
_space_group_name_Hall           'P 2c -2n'
loop_
_symmetry_equiv_pos_site_id
_symmetry_equiv_pos_as_xyz
1 x,y,z
2 -x,-y,1/2+z
3 1/2-x,1/2+y,1/2+z
4 1/2+x,1/2-y,z
_cell_length_a                   9.756(1)
_cell_length_b                   16.300(2)
_cell_length_c                   17.417(3)
_cell_angle_alpha                90
_cell_angle_beta                 90
_cell_angle_gamma                90
_cell_volume                     2769.7
loop_
_atom_site_label
_atom_site_type_symbol
_atom_site_fract_x
_atom_site_fract_y
_atom_site_fract_z
Eu1 Eu -0.00016(8) 0.22243(2) 0.0043
O1 O -0.1205(7) 0.1961(6) 0.1208(5)
O2 O -0.326(1) 0.2426(8) 0.0889(6)
O3 O -0.1820(9) 0.1921(7) 0.2756(5)
O4 O -0.0872(10) 0.3596(6) 0.0422(5)
O5 O 0.0877(8) 0.3633(6) -0.0374(6)
O6 O -0.108(1) 0.5285(7) 0.0453(7)
O7 O -0.1711(8) 0.2599(7) -0.0821(5)
O8 O -0.3794(10) 0.3088(7) -0.1093(5)
O9 O -0.3072(8) 0.3151(7) -0.2590(6)
O10 O -0.1293(9) 0.0988(7) -0.0327(6)
O11 O 0.1342(8) 0.1008(5) 0.0377(6)
C1 C -0.229(1) 0.2133(9) 0.1389(8)
C2 C -0.276(1) 0.2262(7) 0.2245(7)
C3 C -0.381(1) 0.2639(8) 0.2569(8)
C4 C -0.353(2) 0.247(1) 0.3400(10)
C5 C -0.240(1) 0.1961(9) 0.3424(9)
C6 C -0.007(2) 0.3986(5) 0.008(2)
C7 C -0.004(2) 0.4895(4) 0.0128(8)
C8 C 0.083(2) 0.540(1) -0.022(1)
C9 C 0.024(1) 0.6239(6) -0.0037(8)
C10 C -0.093(2) 0.609(1) 0.0395(9)
C11 C -0.2516(10) 0.2793(7) -0.1260(8)
C12 C -0.221(1) 0.2845(7) -0.2052(7)
C13 C -0.110(1) 0.2533(8) -0.2438(7)
C14 C -0.130(1) 0.2617(9) -0.3220(8)
C15 C -0.246(1) 0.2878(9) -0.3329(9)
H1 H -0.4542 0.2929 0.2338
H2 H -0.4018 0.2697 0.3824
H3 H -0.2105 0.1668 0.3866
H4 H 0.1602 0.5291 -0.0499
H5 H 0.0598 0.6756 -0.0178
H6 H -0.1516 0.6500 0.0606
H7 H -0.0326 0.2285 -0.2207
H8 H -0.0637 0.2506 -0.3611
H9 H -0.2907 0.2901 -0.3815
H10 H -0.1996 0.0794 0.0006
H11 H -0.1032 0.0692 -0.0763
H12 H 0.1422 0.0560 0.0025
H13 H 0.1789 0.0968 0.0864
O2C O 0.174(1) 0.2574(8) 0.0889(6)
O8C O 0.1206(10) 0.1912(7) -0.1093(5)
Eu1C Eu -0.50016(8) 0.27757(2) 0.0043
O12 O 1.0220(9) 0.1739(4) 0.5063(9)
O13 O 0.920(1) 0.0609(9) 0.5444(8)
O14 O 1.1021(8) 0.0609(5) 0.5282(5)
N3 N 0.987(1) 0.0990(4) 0.5013(9)
N1 N 0.9383(6) 0.000(1) 0.2498(10)
N2 N 0.2233(6) -0.002(1) 0.252(1)
C16 C 0.6604(7) -0.003(1) 0.254(1)
C17 C 0.732(1) 0.0060(8) 0.1823(8)
C18 C 0.878(1) 0.0219(8) 0.1929(8)
C19 C 0.870(1) -0.0063(7) 0.3256(8)
C20 C 0.733(1) -0.0193(7) 0.3192(7)
C21 C 0.5077(7) 0.001(1) 0.252(1)
C22 C 0.435(1) -0.0652(7) 0.2874(6)
C23 C 0.292(1) -0.0516(7) 0.2985(6)
C24 C 0.292(1) 0.0645(9) 0.2269(8)
C25 C 0.436(1) 0.0532(8) 0.2066(7)
H14 H 0.6957 0.0254 0.1341
H15 H 0.9418 0.0206 0.1336
H16 H 0.9375 -0.0233 0.3646
H17 H 0.6958 -0.0331 0.3693
H18 H 0.4959 -0.1021 0.3302
H19 H 0.2454 -0.0782 0.3396
H20 H 0.2299 0.0852 0.1731
H21 H 0.4770 0.0812 0.1648
H22 H 1.0345 0.0134 0.2571
loop_
_geom_bond_atom_site_label_1
_geom_bond_atom_site_label_2
_geom_bond_site_symmetry_1
_geom_bond_site_symmetry_2
Eu1 O1 1_555 1_555
O1 C1 1_555 1_555
O2 C1 1_555 1_555
O3 C2 1_555 1_555
O4 Eu1 1_555 1_555
O5 Eu1 1_555 1_555
O6 C7 1_555 1_555
O7 Eu1 1_555 1_555
O8 C11 1_555 1_555
O9 C12 1_555 1_555
O10 Eu1 1_555 1_555
O11 Eu1 1_555 1_555
O12 N3 1_555 1_555
O13 N3 1_555 1_555
O14 N3 1_555 1_555
N1 C18 1_555 1_555
N2 C23 1_555 1_555
C1 C2 1_555 1_555
C2 C3 1_555 1_555
C3 C4 1_555 1_555
C4 C5 1_555 1_555
C5 O3 1_555 1_555
C6 O4 1_555 1_555
C7 C6 1_555 1_555
C8 C7 1_555 1_555
C9 C8 1_555 1_555
C10 O6 1_555 1_555
C11 O7 1_555 1_555
C12 C11 1_555 1_555
C13 C12 1_555 1_555
C14 C13 1_555 1_555
C15 O9 1_555 1_555
C16 C17 1_555 1_555
C17 C18 1_555 1_555
C18 H15 1_555 1_555
C19 N1 1_555 1_555
C20 C16 1_555 1_555
C21 C16 1_555 1_555
C22 C21 1_555 1_555
C23 C22 1_555 1_555
C24 N2 1_555 1_555
C25 C21 1_555 1_555
H1 C3 1_555 1_555
H2 C4 1_555 1_555
H3 C5 1_555 1_555
H4 C8 1_555 1_555
H5 C9 1_555 1_555
H6 C10 1_555 1_555
H7 C13 1_555 1_555
H8 C14 1_555 1_555
H9 C15 1_555 1_555
H10 O10 1_555 1_555
H11 O10 1_555 1_555
H12 O11 1_555 1_555
H13 O11 1_555 1_555
H14 C17 1_555 1_555
H16 C19 1_555 1_555
H17 C20 1_555 1_555
H18 C22 1_555 1_555
H19 C23 1_555 1_555
H20 C24 1_555 1_555
H21 C25 1_555 1_555
H22 N1 1_555 1_555
O2C Eu1 1_555 1_555
O8C Eu1 1_555 1_555
Eu1C O2 1_555 1_555
O5 C6 1_555 1_555
O8 Eu1C 1_555 1_555
C9 C10 1_555 1_555
C14 C15 1_555 1_555
C19 C20 1_555 1_555
C24 C25 1_555 1_555

#END
