
#######################################################################
#
#                 Cambridge Crystallographic Data Centre
#                                CCDC 
#
#######################################################################
#
# If this CIF has been generated from an entry in the Cambridge 
# Structural Database, then it will include bibliographic, chemical, 
# crystal, experimental, refinement or atomic coordinate data resulting 
# from the CCDC's data processing and validation procedures.
#
#######################################################################

data_QURMOG
_symmetry_cell_setting           monoclinic
_symmetry_space_group_name_H-M   'P 21/n'
_symmetry_Int_Tables_number      14
_space_group_name_Hall           '-P 2yn'
loop_
_symmetry_equiv_pos_site_id
_symmetry_equiv_pos_as_xyz
1 x,y,z
2 1/2-x,1/2+y,1/2-z
3 -x,-y,-z
4 1/2+x,1/2-y,1/2+z
_cell_length_a                   9.8668(3)
_cell_length_b                   27.9291(9)
_cell_length_c                   11.8500(4)
_cell_angle_alpha                90
_cell_angle_beta                 99.586(2)
_cell_angle_gamma                90
_cell_volume                     3219.92
loop_
_atom_site_label
_atom_site_type_symbol
_atom_site_fract_x
_atom_site_fract_y
_atom_site_fract_z
Co1 Co 0.28790(7) 0.24065(2) 0.06250(6)
O1 O 0.3012(5) 0.30675(12) 0.1743(3)
O2 O 0.4799(4) 0.27437(15) 0.1269(3)
O3 O 0.4997(5) 0.34290(15) 0.2153(3)
O4 O -0.1219(5) 0.20921(17) 0.0109(4)
O5 O 0.0082(5) 0.25800(17) 0.1165(5)
O6 O 0.0906(4) 0.21571(13) -0.0040(3)
N1 N 0.4280(7) 0.3094(2) 0.1744(4)
N2 N -0.0084(6) 0.2285(2) 0.0435(5)
N3 N 0.2592(5) 0.29179(13) -0.0734(3)
N4 N 0.0865(5) 0.42421(15) -0.3479(3)
N5 N 0.2803(4) 0.19616(15) 0.2055(4)
N6 N 0.0868(5) 0.07283(16) 0.4498(4)
N7 N 0.3753(5) 0.19110(13) -0.0413(3)
N8 N 0.4630(5) 0.07319(17) -0.3434(4)
C1 C 0.3369(6) 0.29571(19) -0.1533(5)
H1 H 0.4112 0.2750 -0.1500
C2 C 0.3157(6) 0.3280(2) -0.2404(5)
H2 H 0.3746 0.3287 -0.2940
C3 C 0.2085(6) 0.35927(17) -0.2494(4)
C4 C 0.1278(6) 0.35638(18) -0.1665(5)
H3 H 0.0537 0.3771 -0.1683
C5 C 0.1556(6) 0.32293(18) -0.0802(4)
H4 H 0.0997 0.3220 -0.0244
C6 C 0.1779(6) 0.39374(18) -0.3445(4)
H5 H 0.2290 0.3925 -0.4037
C7 C 0.0613(6) 0.45562(17) -0.4479(4)
H6 H 0.1042 0.4420 -0.5096
C8 C 0.1244(6) 0.50471(19) -0.4137(5)
H7 H 0.0879 0.5168 -0.3482
H8 H 0.2232 0.5016 -0.3921
C9 C -0.0921(7) 0.46020(17) -0.4872(4)
H9 H -0.1351 0.4711 -0.4239
H10 H -0.1301 0.4291 -0.5110
C10 C 0.2475(6) 0.1496(2) 0.1936(5)
H11 H 0.2597 0.1346 0.1260
C11 C 0.1982(6) 0.12295(18) 0.2724(5)
H12 H 0.1723 0.0914 0.2562
C12 C 0.1862(5) 0.14265(19) 0.3776(5)
C13 C 0.2272(6) 0.18960(19) 0.3955(5)
H13 H 0.2248 0.2041 0.4658
C14 C 0.2707(6) 0.21455(19) 0.3109(5)
H14 H 0.2959 0.2463 0.3252
C15 C 0.1265(6) 0.1153(2) 0.4656(5)
H15 H 0.1184 0.1302 0.5343
C16 C 0.0224(7) 0.05024(19) 0.5392(5)
H16 H 0.0116 0.0740 0.5979
C17 C 0.1097(6) 0.0096(2) 0.5929(5)
H17 H 0.2022 0.0212 0.6189
H18 H 0.0734 -0.0016 0.6594
C18 C -0.1160(7) 0.0316(2) 0.4861(6)
H19 H -0.1678 0.0573 0.4440
H20 H -0.1653 0.0217 0.5465
C19 C 0.5122(6) 0.18843(17) -0.0443(5)
H21 H 0.5719 0.2057 0.0099
C20 C 0.5671(6) 0.16191(17) -0.1225(5)
H22 H 0.6617 0.1616 -0.1209
C21 C 0.4816(7) 0.13547(17) -0.2040(4)
C22 C 0.3414(6) 0.13841(19) -0.2039(5)
H23 H 0.2799 0.1217 -0.2578
C23 C 0.2940(6) 0.16641(18) -0.1227(5)
H24 H 0.1995 0.1683 -0.1248
C24 C 0.5388(6) 0.1050(2) -0.2863(5)
H25 H 0.6295 0.1089 -0.2966
C25 C 0.5207(6) 0.04231(19) -0.4202(5)
H26 H 0.6141 0.0530 -0.4253
C26 C 0.4338(6) 0.04382(18) -0.5379(5)
H27 H 0.3391 0.0375 -0.5301
H28 H 0.4375 0.0760 -0.5680
C27 C 0.5258(6) -0.00924(19) -0.3763(5)
H29 H 0.4362 -0.0181 -0.3594
H30 H 0.5914 -0.0113 -0.3058
Co1B Co -0.28790(7) 0.75935(2) -1.06250(6)
Co1B_2 Co -0.28790(7) -0.24065(2) 0.93750(6)
Co1B_3 Co 0.71210(7) -0.24065(2) -1.06250(6)
O1B O -0.3012(5) 0.69325(12) -1.1743(3)
O2B O -0.4799(4) 0.72563(15) -1.1269(3)
O3B O -0.4997(5) 0.65710(15) -1.2153(3)
O4B O 0.1219(5) 0.79079(17) -1.0109(4)
O5B O -0.0082(5) 0.74200(17) -1.1165(5)
O6B O -0.0906(4) 0.78429(13) -0.9960(3)
N1B N -0.4280(7) 0.6906(2) -1.1744(4)
N2B N 0.0084(6) 0.7715(2) -1.0435(5)
N3B N -0.2592(5) 0.70821(13) -0.9266(3)
N4B N -0.0865(5) 0.57579(15) -0.6521(3)
N5B N -0.2803(4) -0.19616(15) 0.7945(4)
N5B_2 N -0.2803(4) 0.80384(15) -1.2055(4)
N6B N -0.0868(5) -0.07283(16) 0.5502(4)
N7B N 0.6247(5) -0.19110(13) -0.9587(3)
N7B_2 N -0.3753(5) 0.80890(13) -0.9587(3)
N8B N 0.5370(5) -0.07319(17) -0.6566(4)
C1B C -0.3369(6) 0.70429(19) -0.8467(5)
H1B H -0.4112 0.7250 -0.8500
C2B C -0.3157(6) 0.6720(2) -0.7596(5)
H2B H -0.3746 0.6713 -0.7060
C3B C -0.2085(6) 0.64073(17) -0.7506(4)
C4B C -0.1278(6) 0.64362(18) -0.8335(5)
H3B H -0.0537 0.6229 -0.8317
C5B C -0.1556(6) 0.67707(18) -0.9198(4)
H4B H -0.0997 0.6780 -0.9756
C6B C -0.1779(6) 0.60626(18) -0.6555(4)
H5B H -0.2290 0.6075 -0.5963
C7B C -0.0613(6) 0.54438(17) -0.5521(4)
H6B H -0.1042 0.5580 -0.4904
C8B C -0.1244(6) 0.49529(19) -0.5863(5)
H7B H -0.0879 0.4832 -0.6518
H8B H -0.2232 0.4984 -0.6079
C9B C 0.0921(7) 0.53980(17) -0.5128(4)
H9B H 0.1351 0.5289 -0.5761
H10B H 0.1301 0.5709 -0.4890
C10B C -0.2475(6) -0.1496(2) 0.8064(5)
H11B H -0.2597 -0.1346 0.8740
C11B C -0.1982(6) -0.12295(18) 0.7276(5)
H12B H -0.1723 -0.0914 0.7438
C12B C -0.1862(5) -0.14265(19) 0.6224(5)
C13B C -0.2272(6) -0.18960(19) 0.6045(5)
H13B H -0.2248 -0.2041 0.5342
C14B C -0.2707(6) -0.21455(19) 0.6891(5)
H14B H -0.2959 -0.2463 0.6748
C15B C -0.1265(6) -0.1153(2) 0.5344(5)
H15B H -0.1184 -0.1302 0.4657
C16B C -0.0224(7) -0.05024(19) 0.4608(5)
H16B H -0.0116 -0.0740 0.4021
C17B C -0.1097(6) -0.0096(2) 0.4071(5)
H17B H -0.2022 -0.0212 0.3811
H18B H -0.0734 0.0016 0.3406
C18B C 0.1160(7) -0.0316(2) 0.5139(6)
H19B H 0.1678 -0.0573 0.5560
H20B H 0.1653 -0.0217 0.4535
C19B C 0.4878(6) -0.18843(17) -0.9557(5)
H21B H 0.4281 -0.2057 -1.0099
C20B C 0.4329(6) -0.16191(17) -0.8775(5)
H22B H 0.3383 -0.1616 -0.8791
C21B C 0.5184(7) -0.13547(17) -0.7960(4)
C22B C 0.6586(6) -0.13841(19) -0.7961(5)
H23B H 0.7201 -0.1217 -0.7422
C23B C 0.7060(6) -0.16641(18) -0.8773(5)
H24B H 0.8005 -0.1683 -0.8752
C24B C 0.4612(6) -0.1050(2) -0.7137(5)
H25B H 0.3705 -0.1089 -0.7034
C25B C 0.4793(6) -0.04231(19) -0.5798(5)
H26B H 0.3859 -0.0530 -0.5747
C26B C 0.5662(6) -0.04382(18) -0.4621(5)
H27B H 0.6609 -0.0375 -0.4699
H28B H 0.5625 -0.0760 -0.4320
C27B C 0.4742(6) 0.00924(19) -0.6237(5)
H29B H 0.5638 0.0181 -0.6406
H30B H 0.4086 0.0113 -0.6942
loop_
_geom_bond_atom_site_label_1
_geom_bond_atom_site_label_2
_geom_bond_site_symmetry_1
_geom_bond_site_symmetry_2
Co1 O1 1_555 1_555
O1 N1 1_555 1_555
O2 Co1 1_555 1_555
O3 N1 1_555 1_555
O4 N2 1_555 1_555
O5 N2 1_555 1_555
O6 Co1 1_555 1_555
N1 O2 1_555 1_555
N2 O6 1_555 1_555
N3 Co1 1_555 1_555
N4 C6 1_555 1_555
N5 Co1 1_555 1_555
N6 C15 1_555 1_555
N7 Co1 1_555 1_555
N8 C24 1_555 1_555
C1 N3 1_555 1_555
H1 C1 1_555 1_555
C2 C1 1_555 1_555
H2 C2 1_555 1_555
C3 C2 1_555 1_555
C4 C3 1_555 1_555
H3 C4 1_555 1_555
C5 N3 1_555 1_555
H4 C5 1_555 1_555
C6 C3 1_555 1_555
H5 C6 1_555 1_555
C7 N4 1_555 1_555
H6 C7 1_555 1_555
C8 C7 1_555 1_555
H7 C8 1_555 1_555
H8 C8 1_555 1_555
C9 C7 1_555 1_555
H9 C9 1_555 1_555
H10 C9 1_555 1_555
C10 N5 1_555 1_555
H11 C10 1_555 1_555
C11 C10 1_555 1_555
H12 C11 1_555 1_555
C12 C11 1_555 1_555
C13 C12 1_555 1_555
H13 C13 1_555 1_555
C14 N5 1_555 1_555
H14 C14 1_555 1_555
C15 C12 1_555 1_555
H15 C15 1_555 1_555
C16 N6 1_555 1_555
H16 C16 1_555 1_555
C17 C16 1_555 1_555
H17 C17 1_555 1_555
H18 C17 1_555 1_555
C18 C16 1_555 1_555
H19 C18 1_555 1_555
H20 C18 1_555 1_555
C19 N7 1_555 1_555
H21 C19 1_555 1_555
C20 C19 1_555 1_555
H22 C20 1_555 1_555
C21 C20 1_555 1_555
C22 C21 1_555 1_555
H23 C22 1_555 1_555
C23 N7 1_555 1_555
H24 C23 1_555 1_555
C24 C21 1_555 1_555
H25 C24 1_555 1_555
C25 N8 1_555 1_555
H26 C25 1_555 1_555
C26 C25 1_555 1_555
H27 C26 1_555 1_555
H28 C26 1_555 1_555
C27 C25 1_555 1_555
H29 C27 1_555 1_555
H30 C27 1_555 1_555
Co1B O1B 1_555 1_555
Co1B_2 N5B 1_555 1_555
Co1B_3 N7B 1_555 1_555
O1B N1B 1_555 1_555
O2B Co1B 1_555 1_555
O3B N1B 1_555 1_555
O4B N2B 1_555 1_555
O5B N2B 1_555 1_555
O6B Co1B 1_555 1_555
N1B O2B 1_555 1_555
N2B O6B 1_555 1_555
N3B Co1B 1_555 1_555
N4B C6B 1_555 1_555
N5B C10B 1_555 1_555
N5B_2 Co1B 1_555 1_555
N6B C15B 1_555 1_555
N7B C19B 1_555 1_555
N7B_2 Co1B 1_555 1_555
N8B C24B 1_555 1_555
C1B N3B 1_555 1_555
H1B C1B 1_555 1_555
C2B C1B 1_555 1_555
H2B C2B 1_555 1_555
C3B C2B 1_555 1_555
C4B C3B 1_555 1_555
H3B C4B 1_555 1_555
C5B N3B 1_555 1_555
H4B C5B 1_555 1_555
C6B C3B 1_555 1_555
H5B C6B 1_555 1_555
C7B N4B 1_555 1_555
H6B C7B 1_555 1_555
C8B C9 1_555 1_555
H7B C8B 1_555 1_555
H8B C8B 1_555 1_555
C9B C8 1_555 1_555
H9B C9B 1_555 1_555
H10B C9B 1_555 1_555
C10B H11B 1_555 1_555
C11B C10B 1_555 1_555
H12B C11B 1_555 1_555
C12B C11B 1_555 1_555
C13B C12B 1_555 1_555
H13B C13B 1_555 1_555
C14B N5B 1_555 1_555
H14B C14B 1_555 1_555
C15B C12B 1_555 1_555
H15B C15B 1_555 1_555
C16B N6B 1_555 1_555
H16B C16B 1_555 1_555
C17B C18 1_555 1_555
H17B C17B 1_555 1_555
H18B C17B 1_555 1_555
C18B C17 1_555 1_555
H19B C18B 1_555 1_555
H20B C18B 1_555 1_555
C19B H21B 1_555 1_555
C20B C19B 1_555 1_555
H22B C20B 1_555 1_555
C21B C20B 1_555 1_555
C22B C21B 1_555 1_555
H23B C22B 1_555 1_555
C23B N7B 1_555 1_555
H24B C23B 1_555 1_555
C24B C21B 1_555 1_555
H25B C24B 1_555 1_555
C25B N8B 1_555 1_555
H26B C25B 1_555 1_555
C26B C27 1_555 1_555
H27B C26B 1_555 1_555
H28B C26B 1_555 1_555
C27B C26 1_555 1_555
H29B C27B 1_555 1_555
H30B C27B 1_555 1_555
C4 C5 1_555 1_555
C13 C14 1_555 1_555
C22 C23 1_555 1_555
C4B C5B 1_555 1_555
C7B C8B 1_555 1_555
C7B C9B 1_555 1_555
C13B C14B 1_555 1_555
C16B C17B 1_555 1_555
C16B C18B 1_555 1_555
C22B C23B 1_555 1_555
C25B C26B 1_555 1_555
C25B C27B 1_555 1_555

#END
