
#######################################################################
#
#                 Cambridge Crystallographic Data Centre
#                                CCDC 
#
#######################################################################
#
# If this CIF has been generated from an entry in the Cambridge 
# Structural Database, then it will include bibliographic, chemical, 
# crystal, experimental, refinement or atomic coordinate data resulting 
# from the CCDC's data processing and validation procedures.
#
#######################################################################

data_QURMUM
_symmetry_cell_setting           monoclinic
_symmetry_space_group_name_H-M   'P 21/n'
_symmetry_Int_Tables_number      14
_space_group_name_Hall           '-P 2yn'
loop_
_symmetry_equiv_pos_site_id
_symmetry_equiv_pos_as_xyz
1 x,y,z
2 1/2-x,1/2+y,1/2-z
3 -x,-y,-z
4 1/2+x,1/2-y,1/2+z
_cell_length_a                   19.5804(11)
_cell_length_b                   12.6698(7)
_cell_length_c                   20.2412(12)
_cell_angle_alpha                90
_cell_angle_beta                 107.407(3)
_cell_angle_gamma                90
_cell_volume                     4791.47
loop_
_atom_site_label
_atom_site_type_symbol
_atom_site_fract_x
_atom_site_fract_y
_atom_site_fract_z
Co1 Co 0.44724(3) 0.23872(5) 0.03138(3)
O1 O 0.48148(17) 0.3038(3) -0.05238(17)
O2 O 0.53468(18) 0.1670(3) 0.00081(16)
O3 O 0.5687(3) 0.2305(5) -0.0832(2)
N1 N 0.4672(2) 0.1475(3) 0.12184(18)
N2 N 0.40366(18) 0.1571(3) 0.32305(17)
H1 H 0.4199 0.1021 0.3515
H2 H 0.3708 0.1322 0.2850
N3 N 0.28202(18) 0.3984(3) 0.49951(18)
H3 H 0.3139 0.4261 0.5372
H4 H 0.2698 0.4497 0.4674
N4 N 0.1219(2) 0.6208(3) 0.53393(18)
N5 N 0.35620(19) 0.3338(3) 0.01715(18)
N6 N 0.1577(2) 0.3332(3) 0.0978(2)
H5 H 0.1977 0.3623 0.1261
H6 H 0.1244 0.3843 0.0854
N7 N 0.0029(2) 0.0756(3) 0.23576(18)
H7 H 0.0342 0.0216 0.2441
H8 H -0.0382 0.0518 0.2062
N8 N -0.01943(19) -0.1436(3) 0.40169(19)
N9 N 0.5299(2) 0.2340(4) -0.0467(2)
C1 C 0.4560(2) 0.1910(4) 0.1780(2)
H9 H 0.4330 0.2560 0.1734
C2 C 0.4771(2) 0.1438(3) 0.2424(2)
C3 C 0.5104(3) 0.0469(4) 0.2483(2)
H10 H 0.5249 0.0122 0.2907
C4 C 0.5220(3) 0.0021(4) 0.1905(2)
H11 H 0.5448 -0.0628 0.1935
C5 C 0.4995(2) 0.0544(4) 0.1289(2)
H12 H 0.5071 0.0234 0.0901
C6 C 0.4640(2) 0.2021(4) 0.3023(2)
H13 H 0.5071 0.1995 0.3415
H14 H 0.4540 0.2755 0.2897
C7 C 0.3678(2) 0.2334(3) 0.3586(2)
H15 H 0.3463 0.2893 0.3254
C8 C 0.3083(2) 0.1785(4) 0.3778(2)
H16 H 0.3280 0.1220 0.4102
H17 H 0.2753 0.1477 0.3367
C9 C 0.2686(2) 0.2556(4) 0.4103(3)
H18 H 0.2327 0.2178 0.4251
H19 H 0.2441 0.3072 0.3759
C10 C 0.3189(2) 0.3124(3) 0.4720(2)
H20 H 0.3377 0.2606 0.5089
C11 C 0.3807(2) 0.3609(4) 0.4538(2)
H21 H 0.4141 0.3892 0.4956
H22 H 0.3632 0.4194 0.4224
C12 C 0.4203(2) 0.2848(4) 0.4205(2)
H23 H 0.4564 0.3225 0.4059
H24 H 0.4440 0.2313 0.4537
C13 C 0.2165(3) 0.3680(4) 0.5188(3)
H25 H 0.2275 0.3097 0.5513
H26 H 0.1791 0.3454 0.4778
C14 C 0.1910(2) 0.4615(4) 0.5511(2)
C15 C 0.1463(2) 0.5351(4) 0.5101(2)
H27 H 0.1322 0.5244 0.4624
C16 C 0.1424(3) 0.6336(4) 0.6029(2)
H28 H 0.1267 0.6928 0.6214
C17 C 0.1859(3) 0.5620(5) 0.6473(3)
H29 H 0.1988 0.5733 0.6948
C18 C 0.2102(3) 0.4747(5) 0.6220(3)
H30 H 0.2388 0.4254 0.6517
C19 C 0.2994(2) 0.2957(4) 0.0320(2)
H31 H 0.3032 0.2295 0.0527
C20 C 0.2348(2) 0.3482(4) 0.0188(2)
C21 C 0.2290(3) 0.4463(4) -0.0126(2)
H32 H 0.1866 0.4844 -0.0227
C22 C 0.2877(3) 0.4860(4) -0.0286(3)
H33 H 0.2853 0.5521 -0.0491
C23 C 0.3497(2) 0.4280(4) -0.0141(2)
H34 H 0.3884 0.4550 -0.0263
C24 C 0.1735(2) 0.2936(4) 0.0346(2)
H35 H 0.1310 0.3020 -0.0047
H36 H 0.1840 0.2187 0.0402
C25 C 0.1320(2) 0.2517(3) 0.1366(2)
H37 H 0.1698 0.1983 0.1504
C26 C 0.1222(3) 0.2963(4) 0.2033(2)
H38 H 0.1676 0.3239 0.2319
H39 H 0.0884 0.3544 0.1918
C27 C 0.0957(3) 0.2158(5) 0.2433(3)
H40 H 0.0846 0.2502 0.2816
H41 H 0.1336 0.1651 0.2626
C28 C 0.0306(3) 0.1580(4) 0.2006(2)
H42 H -0.0074 0.2110 0.1858
C29 C 0.0417(3) 0.1140(4) 0.1347(2)
H43 H 0.0771 0.0581 0.1468
H44 H -0.0028 0.0835 0.1064
C30 C 0.0658(3) 0.1955(5) 0.0938(2)
H45 H 0.0277 0.2466 0.0763
H46 H 0.0755 0.1623 0.0544
C31 C -0.0113(3) 0.1024(4) 0.3023(2)
H47 H 0.0330 0.1240 0.3362
H48 H -0.0445 0.1612 0.2949
C32 C -0.0417(3) 0.0108(4) 0.3291(2)
C33 C 0.0026(2) -0.0581(4) 0.3753(2)
H49 H 0.0514 -0.0440 0.3892
C34 C -0.0904(3) -0.1627(5) 0.3806(3)
H50 H -0.1075 -0.2225 0.3971
C35 C -0.1380(3) -0.0979(6) 0.3360(3)
H51 H -0.1867 -0.1129 0.3238
C36 C -0.1146(3) -0.0114(5) 0.3093(3)
H52 H -0.1469 0.0323 0.2782
Co1A Co 0.05276(3) 0.73872(5) 0.46862(3)
Co1A_2 Co 0.05276(3) -0.26128(5) 0.46862(3)
N4A N 0.3781(2) 0.1208(3) -0.03393(18)
N8A N 0.51943(19) 0.3564(3) 0.09831(19)
O4 O 0.2470(2) 0.0601(3) 0.10144(19)
O5 O 0.3363(3) -0.0157(4) 0.1671(3)
O6 O 0.2928(3) 0.1171(7) 0.2021(3)
N10 N 0.2917(2) 0.0529(4) 0.1584(2)
O7 O 0.5432(2) 0.0201(3) 0.5975(2)
O8 O 0.4485(2) -0.0694(4) 0.5674(3)
O9 O 0.4427(3) 0.0903(4) 0.5401(3)
N11 N 0.4766(3) 0.0149(4) 0.5674(2)
O10 O 0.8891(2) 0.0759(3) 0.7392(3)
O11 O 0.8247(3) 0.0053(5) 0.6516(3)
O12 O 0.7827(3) 0.1198(9) 0.6999(3)
N12 N 0.8318(3) 0.0693(4) 0.6975(3)
O13 O 0.87765(19) 0.0240(4) 0.1239(2)
O14 O 0.8431(4) -0.1114(5) 0.0649(3)
O15 O 0.9252(3) -0.1199(4) 0.1642(3)
N13 N 0.8839(3) -0.0737(5) 0.1163(3)
N14 N 0.8383(3) 0.2969(5) 0.1791(4)
O16 O 0.8586(7) 0.2365(19) 0.1472(7)
O17 O 0.8771(5) 0.2988(7) 0.2327(5)
O18 O 0.7821(5) 0.3027(8) 0.1445(6)
O19 O 0.6931(9) 0.146(2) 0.2953(10)
C37 C 0.7401(15) 0.1693(12) 0.3001(14)
H53 H 0.7574 0.2095 0.3420
H54 H 0.7398 0.2130 0.2612
H55 H 0.7708 0.1097 0.3018
loop_
_geom_bond_atom_site_label_1
_geom_bond_atom_site_label_2
_geom_bond_site_symmetry_1
_geom_bond_site_symmetry_2
Co1 O1 1_555 1_555
O1 N9 1_555 1_555
O2 Co1 1_555 1_555
O3 N9 1_555 1_555
O4 N10 1_555 1_555
O5 N10 1_555 1_555
O6 N10 1_555 1_555
O7 N11 1_555 1_555
O8 N11 1_555 1_555
O9 N11 1_555 1_555
O10 N12 1_555 1_555
O11 N12 1_555 1_555
O12 N12 1_555 1_555
O13 N13 1_555 1_555
O14 N13 1_555 1_555
O15 N13 1_555 1_555
N1 Co1 1_555 1_555
N2 H1 1_555 1_555
H2 N2 1_555 1_555
N3 H3 1_555 1_555
H4 N3 1_555 1_555
N4 C15 1_555 1_555
N5 Co1 1_555 1_555
N6 H5 1_555 1_555
H6 N6 1_555 1_555
N7 H7 1_555 1_555
H8 N7 1_555 1_555
N8 C33 1_555 1_555
N9 O2 1_555 1_555
C1 N1 1_555 1_555
H9 C1 1_555 1_555
C2 C1 1_555 1_555
C3 C2 1_555 1_555
H10 C3 1_555 1_555
C4 C3 1_555 1_555
H11 C4 1_555 1_555
C5 N1 1_555 1_555
H12 C5 1_555 1_555
C6 N2 1_555 1_555
H13 C6 1_555 1_555
H14 C6 1_555 1_555
C7 N2 1_555 1_555
H15 C7 1_555 1_555
C8 C7 1_555 1_555
H16 C8 1_555 1_555
H17 C8 1_555 1_555
C9 C8 1_555 1_555
H18 C9 1_555 1_555
H19 C9 1_555 1_555
C10 N3 1_555 1_555
H20 C10 1_555 1_555
C11 C10 1_555 1_555
H21 C11 1_555 1_555
H22 C11 1_555 1_555
C12 C7 1_555 1_555
H23 C12 1_555 1_555
H24 C12 1_555 1_555
C13 N3 1_555 1_555
H25 C13 1_555 1_555
H26 C13 1_555 1_555
C14 C13 1_555 1_555
C15 C14 1_555 1_555
H27 C15 1_555 1_555
C16 N4 1_555 1_555
H28 C16 1_555 1_555
C17 C16 1_555 1_555
H29 C17 1_555 1_555
C18 C14 1_555 1_555
H30 C18 1_555 1_555
C19 N5 1_555 1_555
H31 C19 1_555 1_555
C20 C19 1_555 1_555
C21 C20 1_555 1_555
H32 C21 1_555 1_555
C22 C21 1_555 1_555
H33 C22 1_555 1_555
C23 N5 1_555 1_555
H34 C23 1_555 1_555
C24 N6 1_555 1_555
H35 C24 1_555 1_555
H36 C24 1_555 1_555
C25 N6 1_555 1_555
H37 C25 1_555 1_555
C26 C25 1_555 1_555
H38 C26 1_555 1_555
H39 C26 1_555 1_555
C27 C26 1_555 1_555
H40 C27 1_555 1_555
H41 C27 1_555 1_555
C28 N7 1_555 1_555
H42 C28 1_555 1_555
C29 C28 1_555 1_555
H43 C29 1_555 1_555
H44 C29 1_555 1_555
C30 C25 1_555 1_555
H45 C30 1_555 1_555
H46 C30 1_555 1_555
C31 N7 1_555 1_555
H47 C31 1_555 1_555
H48 C31 1_555 1_555
C32 C31 1_555 1_555
C33 C32 1_555 1_555
H49 C33 1_555 1_555
C34 N8 1_555 1_555
H50 C34 1_555 1_555
C35 C34 1_555 1_555
H51 C35 1_555 1_555
C36 C32 1_555 1_555
H52 C36 1_555 1_555
N14 O16 1_555 1_555
O17 N14 1_555 1_555
O18 N14 1_555 1_555
O19 C37 1_555 1_555
C37 H53 1_555 1_555
H54 C37 1_555 1_555
H55 C37 1_555 1_555
Co1A N4 1_555 1_555
Co1A_2 N8 1_555 1_555
N4A Co1 1_555 1_555
N8A Co1 1_555 1_555
C2 C6 1_555 1_555
C4 C5 1_555 1_555
C9 C10 1_555 1_555
C11 C12 1_555 1_555
C17 C18 1_555 1_555
C20 C24 1_555 1_555
C22 C23 1_555 1_555
C27 C28 1_555 1_555
C29 C30 1_555 1_555
C35 C36 1_555 1_555

#END
