
#######################################################################
#
#                 Cambridge Crystallographic Data Centre
#                                CCDC 
#
#######################################################################
#
# If this CIF has been generated from an entry in the Cambridge 
# Structural Database, then it will include bibliographic, chemical, 
# crystal, experimental, refinement or atomic coordinate data resulting 
# from the CCDC's data processing and validation procedures.
#
#######################################################################

data_QURNAT
_symmetry_cell_setting           monoclinic
_symmetry_space_group_name_H-M   'C 2/c'
_symmetry_Int_Tables_number      15
_space_group_name_Hall           '-C 2yn'
loop_
_symmetry_equiv_pos_site_id
_symmetry_equiv_pos_as_xyz
1 x,y,z
2 -x,y,1/2-z
3 1/2+x,1/2+y,z
4 1/2-x,1/2+y,1/2-z
5 -x,-y,-z
6 x,-y,1/2+z
7 1/2-x,1/2-y,-z
8 1/2+x,1/2-y,1/2+z
_cell_length_a                   8.8907(2)
_cell_length_b                   13.8821(3)
_cell_length_c                   19.6617(5)
_cell_angle_alpha                90
_cell_angle_beta                 91.0370(10)
_cell_angle_gamma                90
_cell_volume                     2426.28
loop_
_atom_site_label
_atom_site_type_symbol
_atom_site_fract_x
_atom_site_fract_y
_atom_site_fract_z
Co1 Co 0.0000 0.67269(2) 0.2500
N1 N 0.13587(19) 0.57032(12) 0.30343(10)
N2 N 0.5556(2) 0.37509(15) 0.42201(9)
H1 H 0.5987 0.4329 0.4153
H2 H 0.5614 0.3414 0.3831
N3 N 0.2513(2) 0.64881(16) 0.13611(12)
O1 O 0.1493(2) 0.69420(14) 0.16640(10)
O2 O 0.3390(5) 0.6929(2) 0.1023(3)
O3 O 0.2586(3) 0.56160(16) 0.13779(18)
O4 O 0.11799(17) 0.78103(11) 0.30291(8)
C1 C 0.2847(2) 0.58167(18) 0.30924(14)
H3 H 0.3301 0.6293 0.2835
C2 C 0.3744(3) 0.52580(19) 0.35182(14)
H4 H 0.4774 0.5371 0.3546
C3 C 0.3114(2) 0.45321(16) 0.39024(11)
C4 C 0.1574(3) 0.44014(19) 0.38306(14)
H5 H 0.1098 0.3914 0.4069
C5 C 0.0747(2) 0.49980(17) 0.34029(14)
H6 H -0.0287 0.4905 0.3369
C6 C 0.3970(3) 0.3888(2) 0.43894(13)
H7 H 0.3918 0.4160 0.4843
H8 H 0.3482 0.3263 0.4398
C7 C 0.6389(3) 0.32299(18) 0.47721(12)
H9 H 0.6117 0.3510 0.5211
C8 C 0.6014(3) 0.2161(2) 0.47795(13)
H10 H 0.6222 0.1885 0.4338
H11 H 0.4950 0.2079 0.4864
C9 C 0.8064(3) 0.3378(2) 0.46692(14)
H12 H 0.8296 0.4061 0.4690
H13 H 0.8335 0.3143 0.4223
C10 C 0.2311(4) 0.8416(2) 0.27713(16)
H14 H 0.2658 0.8846 0.3123
H15 H 0.1907 0.8784 0.2397
H16 H 0.3136 0.8031 0.2619
Co1F Co 1.5000 -0.17269(2) 0.7500
N1F N 1.36413(19) -0.07032(12) 0.69657(10)
N1A N -0.13587(19) 0.57032(12) 0.19657(10)
N2F N 0.9444(2) 0.12491(15) 0.57799(9)
H1F H 0.9013 0.0671 0.5847
H2F H 0.9386 0.1586 0.6169
N3A N -0.2513(2) 0.64881(16) 0.36389(12)
O1A O -0.1493(2) 0.69420(14) 0.33360(10)
O2A O -0.3390(5) 0.6929(2) 0.3977(3)
O3A O -0.2586(3) 0.56160(16) 0.36221(18)
O4A O -0.11799(17) 0.78103(11) 0.19709(8)
C1F C 1.2153(2) -0.08167(18) 0.69076(14)
H3F H 1.1699 -0.1293 0.7165
C2F C 1.1256(3) -0.02580(19) 0.64818(14)
H4F H 1.0226 -0.0371 0.6454
C3F C 1.1886(2) 0.04679(16) 0.60976(11)
C4F C 1.3426(3) 0.05986(19) 0.61694(14)
H5F H 1.3902 0.1086 0.5931
C5F C 1.4253(2) 0.00020(17) 0.65971(14)
H6F H 1.5287 0.0095 0.6631
C6F C 1.1030(3) 0.1112(2) 0.56106(13)
H7F H 1.1082 0.0840 0.5157
H8F H 1.1518 0.1737 0.5602
C7F C 0.8611(3) 0.17701(18) 0.52279(12)
H9F H 0.8883 0.1490 0.4789
C8F C 0.8986(3) 0.2839(2) 0.52205(13)
H10F H 0.8778 0.3115 0.5662
H11F H 1.0050 0.2921 0.5136
C9F C 0.6936(3) 0.1622(2) 0.53308(14)
H12F H 0.6704 0.0939 0.5310
H13F H 0.6665 0.1857 0.5777
C10A C -0.2311(4) 0.8416(2) 0.22287(16)
H14A H -0.2658 0.8846 0.1877
H15A H -0.1907 0.8784 0.2603
H16A H -0.3136 0.8031 0.2381
loop_
_geom_bond_atom_site_label_1
_geom_bond_atom_site_label_2
_geom_bond_site_symmetry_1
_geom_bond_site_symmetry_2
Co1 N1 1_555 1_555
N1 C1 1_555 1_555
N2 H1 1_555 1_555
H2 N2 1_555 1_555
N3 O1 1_555 1_555
O1 Co1 1_555 1_555
O2 N3 1_555 1_555
O3 N3 1_555 1_555
O4 Co1 1_555 1_555
C1 H3 1_555 1_555
C2 C1 1_555 1_555
H4 C2 1_555 1_555
C3 C2 1_555 1_555
C4 C3 1_555 1_555
H5 C4 1_555 1_555
C5 N1 1_555 1_555
H6 C5 1_555 1_555
C6 N2 1_555 1_555
H7 C6 1_555 1_555
H8 C6 1_555 1_555
C7 N2 1_555 1_555
H9 C7 1_555 1_555
C8 C7 1_555 1_555
H10 C8 1_555 1_555
H11 C8 1_555 1_555
C9 C7 1_555 1_555
H12 C9 1_555 1_555
H13 C9 1_555 1_555
C10 O4 1_555 1_555
H14 C10 1_555 1_555
H15 C10 1_555 1_555
H16 C10 1_555 1_555
Co1F N1F 1_555 1_555
N1F C1F 1_555 1_555
N1A Co1 1_555 1_555
N2F H1F 1_555 1_555
H2F N2F 1_555 1_555
N3A O1A 1_555 1_555
O1A Co1 1_555 1_555
O2A N3A 1_555 1_555
O3A N3A 1_555 1_555
O4A Co1 1_555 1_555
C1F H3F 1_555 1_555
C2F C1F 1_555 1_555
H4F C2F 1_555 1_555
C3F C2F 1_555 1_555
C4F C3F 1_555 1_555
H5F C4F 1_555 1_555
C5F N1F 1_555 1_555
H6F C5F 1_555 1_555
C6F N2F 1_555 1_555
H7F C6F 1_555 1_555
H8F C6F 1_555 1_555
C7F N2F 1_555 1_555
H9F C7F 1_555 1_555
C8F C9 1_555 1_555
H10F C8F 1_555 1_555
H11F C8F 1_555 1_555
C9F C8 1_555 1_555
H12F C9F 1_555 1_555
H13F C9F 1_555 1_555
C10A O4A 1_555 1_555
H14A C10A 1_555 1_555
H15A C10A 1_555 1_555
H16A C10A 1_555 1_555
C3 C6 1_555 1_555
C4 C5 1_555 1_555
C3F C6F 1_555 1_555
C4F C5F 1_555 1_555
C7F C8F 1_555 1_555
C7F C9F 1_555 1_555

#END
