
#######################################################################
#
#                 Cambridge Crystallographic Data Centre
#                                CCDC 
#
#######################################################################
#
# If this CIF has been generated from an entry in the Cambridge 
# Structural Database, then it will include bibliographic, chemical, 
# crystal, experimental, refinement or atomic coordinate data resulting 
# from the CCDC's data processing and validation procedures.
#
#######################################################################

data_QURSEC
_symmetry_cell_setting           orthorhombic
_symmetry_space_group_name_H-M   'C c c a'
_symmetry_Int_Tables_number      68
_space_group_name_Hall           '-C 2a 2bc'
loop_
_symmetry_equiv_pos_site_id
_symmetry_equiv_pos_as_xyz
1 x,y,z
2 -x,1/2-y,z
3 1/2+x,-y,1/2-z
4 1/2-x,1/2+y,1/2-z
5 1/2+x,1/2+y,z
6 1/2-x,-y,z
7 x,1/2-y,1/2-z
8 -x,y,1/2-z
9 -x,-y,-z
10 x,1/2+y,-z
11 1/2-x,y,1/2+z
12 1/2+x,1/2-y,1/2+z
13 1/2-x,1/2-y,-z
14 1/2+x,y,-z
15 -x,1/2+y,1/2+z
16 x,-y,1/2+z
_cell_length_a                   16.958(9)
_cell_length_b                   18.523(9)
_cell_length_c                   25.085(12)
_cell_angle_alpha                90
_cell_angle_beta                 90
_cell_angle_gamma                90
_cell_volume                     7879.53
loop_
_atom_site_label
_atom_site_type_symbol
_atom_site_fract_x
_atom_site_fract_y
_atom_site_fract_z
Pd1 Pd -0.5000 0.2500 0.08808(3)
Zn1 Zn -0.7500 0.0000 -0.16248(4)
O1 O -0.3066(3) 0.4299(3) 0.2927(2)
O2 O -0.3782(4) 0.5197(3) 0.2634(3)
O3 O -0.6930(3) 0.0667(2) -0.1152(2)
O4 O -0.6133(3) -0.0213(3) -0.0877(2)
N1 N -0.5435(3) 0.1841(3) 0.0312(2)
N2 N -0.4558(3) 0.3167(3) 0.1458(2)
C1 C -0.4823(4) 0.3846(4) 0.1497(3)
C2 C -0.4501(4) 0.4325(4) 0.1878(3)
C3 C -0.3908(4) 0.4078(4) 0.2209(2)
C4 C -0.3561(5) 0.4578(4) 0.2624(3)
C5 C -0.3645(4) 0.3391(4) 0.2138(3)
C6 C -0.3977(4) 0.2929(4) 0.1768(2)
C7 C -0.4978(4) 0.1314(4) 0.0107(3)
C8 C -0.5283(4) 0.0845(4) -0.0278(3)
C9 C -0.6052(4) 0.0936(4) -0.0464(3)
C10 C -0.6476(5) 0.1485(5) -0.0257(3)
C11 C -0.6172(4) 0.1943(4) 0.0134(3)
C12 C -0.6388(4) 0.0429(4) -0.0859(2)
H1 H -0.3794 0.2446 0.1736
H2 H -0.3221 0.3222 0.2352
H3 H -0.4691 0.4805 0.1907
H4 H -0.5233 0.4004 0.1267
H5 H -0.6479 0.2331 0.0268
H6 H -0.7002 0.1555 -0.0377
H7 H -0.4966 0.0464 -0.0413
H8 H -0.4448 0.1264 0.0224
Pd1N Pd -0.5000 -0.2500 -0.41192(3)
Zn1K Zn -0.2500 0.5000 0.33752(4)
Zn1A Zn -0.2500 0.5000 -0.16248(4)
O1K O -0.8066(3) 0.0701(3) -0.2073(2)
O1N O -0.6934(3) -0.0701(3) -0.2073(2)
O2N O -0.6218(4) 0.0197(3) -0.2366(3)
O3A O -0.3070(3) 0.4333(2) -0.1152(2)
O3E O -0.8070(3) -0.0667(2) -0.1152(2)
O4A O -0.3867(3) 0.5213(3) -0.0877(2)
N1A N -0.4565(3) 0.3159(3) 0.0312(2)
N2A N -0.5442(3) 0.1833(3) 0.1458(2)
N2N N -0.5442(3) -0.1833(3) -0.3542(2)
C1N C -0.5177(4) -0.1154(4) -0.3503(3)
C2N C -0.5499(4) -0.0675(4) -0.3122(3)
C3N C -0.6092(4) -0.0922(4) -0.2791(2)
C4N C -0.6439(5) -0.0422(4) -0.2376(3)
C5N C -0.6355(4) -0.1609(4) -0.2862(3)
C6N C -0.6023(4) -0.2071(4) -0.3232(2)
C7A C -0.5022(4) 0.3686(4) 0.0107(3)
C8A C -0.4717(4) 0.4155(4) -0.0278(3)
C9A C -0.3948(4) 0.4064(4) -0.0464(3)
C10A C -0.3524(5) 0.3515(5) -0.0257(3)
C11A C -0.3828(4) 0.3057(4) 0.0134(3)
C12A C -0.3612(4) 0.4571(4) -0.0859(2)
H1N H -0.6206 -0.2554 -0.3264
H2N H -0.6779 -0.1778 -0.2648
H3N H -0.5309 -0.0195 -0.3093
H4N H -0.4767 -0.0996 -0.3733
H5A H -0.3521 0.2669 0.0268
H6A H -0.2998 0.3445 -0.0377
H7A H -0.5034 0.4536 -0.0413
H8A H -0.5552 0.3736 0.0224
O5 O -0.2104(6) 0.2187(7) 0.1462(4)
loop_
_geom_bond_atom_site_label_1
_geom_bond_atom_site_label_2
_geom_bond_site_symmetry_1
_geom_bond_site_symmetry_2
Pd1 N1 1_555 1_555
Zn1 O3 1_555 1_555
O1 C4 1_555 1_555
O2 C4 1_555 1_555
O3 C12 1_555 1_555
O4 C12 1_555 1_555
N1 C7 1_555 1_555
N2 Pd1 1_555 1_555
C1 N2 1_555 1_555
C2 C1 1_555 1_555
C3 C2 1_555 1_555
C4 C3 1_555 1_555
C5 C3 1_555 1_555
C6 N2 1_555 1_555
C7 C8 1_555 1_555
C8 C9 1_555 1_555
C9 C10 1_555 1_555
C10 C11 1_555 1_555
C11 N1 1_555 1_555
C12 C9 1_555 1_555
H1 C6 1_555 1_555
H2 C5 1_555 1_555
H3 C2 1_555 1_555
H4 C1 1_555 1_555
H5 C11 1_555 1_555
H6 C10 1_555 1_555
H7 C8 1_555 1_555
H8 C7 1_555 1_555
Pd1N N2N 1_555 1_555
Zn1K O1 1_555 1_555
Zn1A O3A 1_555 1_555
O1K Zn1 1_555 1_555
O1N Zn1 1_555 1_555
O2N C4N 1_555 1_555
O3A C12A 1_555 1_555
O3E Zn1 1_555 1_555
O4A C12A 1_555 1_555
N1A Pd1 1_555 1_555
N2A Pd1 1_555 1_555
N2N C1N 1_555 1_555
C1N C2N 1_555 1_555
C2N C3N 1_555 1_555
C3N C4N 1_555 1_555
C4N O1N 1_555 1_555
C5N C3N 1_555 1_555
C6N N2N 1_555 1_555
C7A N1A 1_555 1_555
C8A C7A 1_555 1_555
C9A C8A 1_555 1_555
C10A C9A 1_555 1_555
C11A N1A 1_555 1_555
C12A C9A 1_555 1_555
H1N C6N 1_555 1_555
H2N C5N 1_555 1_555
H3N C2N 1_555 1_555
H4N C1N 1_555 1_555
H5A C11A 1_555 1_555
H6A C10A 1_555 1_555
H7A C8A 1_555 1_555
H8A C7A 1_555 1_555
C5 C6 1_555 1_555
C5N C6N 1_555 1_555
C10A C11A 1_555 1_555

#END
