
#######################################################################
#
#                 Cambridge Crystallographic Data Centre
#                                CCDC 
#
#######################################################################
#
# If this CIF has been generated from an entry in the Cambridge 
# Structural Database, then it will include bibliographic, chemical, 
# crystal, experimental, refinement or atomic coordinate data resulting 
# from the CCDC's data processing and validation procedures.
#
#######################################################################

data_QURVIJ
_symmetry_cell_setting           triclinic
_symmetry_space_group_name_H-M   'P -1'
_symmetry_Int_Tables_number      2
_space_group_name_Hall           '-P 1'
loop_
_symmetry_equiv_pos_site_id
_symmetry_equiv_pos_as_xyz
1 x,y,z
2 -x,-y,-z
_cell_length_a                   9.0055(17)
_cell_length_b                   13.531(3)
_cell_length_c                   14.507(3)
_cell_angle_alpha                88.756(3)
_cell_angle_beta                 81.254(3)
_cell_angle_gamma                75.653(3)
_cell_volume                     1692.45
loop_
_atom_site_label
_atom_site_type_symbol
_atom_site_fract_x
_atom_site_fract_y
_atom_site_fract_z
Sn1 Sn 0.5000 0.5000 0.5000
Sn2 Sn 0.0000 0.0000 0.0000
O1 O 0.5566(5) 0.6155(3) 0.3988(3)
O2 O 0.0076(6) -0.1247(3) 0.1032(3)
O3 O 0.6400(4) 0.3831(3) 0.3993(2)
O4 O 0.2494(4) -0.0126(3) -0.0144(2)
N1 N 0.5820(5) 0.3314(3) 0.3407(3)
N2 N 0.3069(5) 0.0452(3) 0.0404(3)
C1 C 0.2962(6) 0.5021(4) 0.4436(3)
C2 C 0.2322(7) 0.4180(4) 0.4487(4)
H1 H 0.2752 0.3618 0.4826
C3 C 0.1086(7) 0.4154(5) 0.4056(4)
H2 H 0.0701 0.3574 0.4096
C4 C 0.0418(7) 0.4964(6) 0.3572(4)
H3 H -0.0422 0.4941 0.3278
C5 C 0.0979(7) 0.5822(5) 0.3514(4)
H4 H 0.0510 0.6383 0.3188
C6 C 0.2240(7) 0.5856(4) 0.3939(4)
H5 H 0.2613 0.6440 0.3895
C7 C -0.0455(6) 0.1092(4) 0.1107(4)
C8 C 0.0016(7) 0.0809(5) 0.1961(4)
H6 H 0.0367 0.0120 0.2086
C9 C -0.0029(8) 0.1533(6) 0.2628(4)
H7 H 0.0317 0.1331 0.3192
C10 C -0.0592(7) 0.2565(5) 0.2457(5)
H8 H -0.0631 0.3056 0.2905
C11 C -0.1080(8) 0.2843(5) 0.1631(5)
H9 H -0.1464 0.3531 0.1515
C12 C -0.1015(8) 0.2126(5) 0.0960(5)
H10 H -0.1354 0.2337 0.0397
C13 C 0.5914(7) 0.2326(4) 0.3562(4)
H11 H 0.6325 0.2022 0.4079
C14 C 0.5408(8) 0.1757(4) 0.2963(4)
H12 H 0.5497 0.1067 0.3072
C15 C 0.4764(6) 0.2200(4) 0.2195(3)
C16 C 0.4667(7) 0.3232(4) 0.2072(4)
H13 H 0.4234 0.3560 0.1570
C17 C 0.5203(7) 0.3777(4) 0.2681(4)
H14 H 0.5136 0.4468 0.2588
C18 C 0.3814(7) -0.0011(4) 0.1084(4)
H15 H 0.3943 -0.0708 0.1170
C19 C 0.4384(7) 0.0546(4) 0.1650(4)
H16 H 0.4919 0.0218 0.2116
C20 C 0.4186(6) 0.1592(4) 0.1549(3)
C21 C 0.3419(8) 0.2015(5) 0.0830(4)
H17 H 0.3263 0.2712 0.0729
C22 C 0.2879(8) 0.1436(5) 0.0255(4)
H18 H 0.2382 0.1736 -0.0235
H25 H 0.614(10) 0.596(7) 0.351(4)
H26 H 0.506(6) 0.673(2) 0.400(4)
H27 H -0.044(6) -0.142(5) 0.145(3)
H28 H 0.082(6) -0.148(6) 0.126(5)
Sn2_2 Sn 1.0000 1.0000 1.0000
O1A O 0.4434(5) 0.3845(3) 0.6012(3)
O2A O -0.0076(6) 0.1247(3) -0.1032(3)
O3A O 0.3600(4) 0.6169(3) 0.6007(2)
O4A O 0.7506(4) 1.0126(3) 1.0144(2)
O4A_2 O -0.2494(4) 0.0126(3) 0.0144(2)
N1A N 0.4180(5) 0.6686(3) 0.6593(3)
N2A N 0.6931(5) 0.9548(3) 0.9596(3)
C1A C 0.7038(6) 0.4979(4) 0.5564(3)
C2A C 0.7678(7) 0.5820(4) 0.5513(4)
H1A H 0.7248 0.6382 0.5174
C3A C 0.8914(7) 0.5846(5) 0.5944(4)
H2A H 0.9299 0.6426 0.5904
C4A C 0.9582(7) 0.5036(6) 0.6428(4)
H3A H 1.0422 0.5059 0.6722
C5A C 0.9021(7) 0.4178(5) 0.6486(4)
H4A H 0.9490 0.3617 0.6812
C6A C 0.7760(7) 0.4144(4) 0.6061(4)
H5A H 0.7387 0.3560 0.6105
C7A C 0.0455(6) -0.1092(4) -0.1107(4)
C8A C -0.0016(7) -0.0809(5) -0.1961(4)
H6A H -0.0367 -0.0120 -0.2086
C9A C 0.0029(8) -0.1533(6) -0.2628(4)
H7A H -0.0317 -0.1331 -0.3192
C10A C 0.0592(7) -0.2565(5) -0.2457(5)
H8A H 0.0631 -0.3056 -0.2905
C11A C 0.1080(8) -0.2843(5) -0.1631(5)
H9A H 0.1464 -0.3531 -0.1515
C12A C 0.1015(8) -0.2126(5) -0.0960(5)
H10A H 0.1354 -0.2337 -0.0397
C13A C 0.4086(7) 0.7674(4) 0.6438(4)
H11A H 0.3675 0.7978 0.5921
C14A C 0.4592(8) 0.8243(4) 0.7037(4)
H12A H 0.4503 0.8933 0.6928
C15A C 0.5236(6) 0.7800(4) 0.7805(3)
C16A C 0.5333(7) 0.6768(4) 0.7928(4)
H13A H 0.5766 0.6440 0.8430
C17A C 0.4797(7) 0.6223(4) 0.7319(4)
H14A H 0.4864 0.5532 0.7412
C18A C 0.6186(7) 1.0011(4) 0.8916(4)
H15A H 0.6057 1.0708 0.8830
C19A C 0.5616(7) 0.9454(4) 0.8350(4)
H16A H 0.5081 0.9782 0.7884
C20A C 0.5814(6) 0.8408(4) 0.8451(3)
C21A C 0.6581(8) 0.7985(5) 0.9170(4)
H17A H 0.6737 0.7288 0.9271
C22A C 0.7121(8) 0.8564(5) 0.9745(4)
H18A H 0.7618 0.8264 1.0235
H25A H 0.386(10) 0.404(7) 0.649(4)
H26A H 0.494(6) 0.327(2) 0.600(4)
H27A H 0.044(6) 0.142(5) -0.145(3)
H28A H -0.082(6) 0.148(6) -0.126(5)
S1 S 0.65526(16) 0.60825(11) 0.14143(9)
O5 O 0.7019(4) 0.5589(3) 0.2256(2)
O6 O 0.5061(4) 0.5964(3) 0.1276(3)
O7 O 0.6648(5) 0.7127(3) 0.1356(3)
C23 C 0.7275(6) 0.5017(5) -0.0223(4)
H19 H 0.6206 0.5118 -0.0176
C24 C 0.7883(6) 0.5407(4) 0.0450(3)
C25 C 0.9526(6) 0.5276(4) 0.0386(3)
C26 C 1.0208(7) 0.5666(4) 0.1074(4)
H20 H 0.9571 0.6016 0.1590
C27 C 0.8264(7) 0.4454(5) -0.0998(4)
H21 H 0.7847 0.4174 -0.1447
S1A S 1.34474(16) 0.39175(11) -0.14143(9)
O5A O 1.2981(4) 0.4411(3) -0.2256(2)
O6A O 1.4939(4) 0.4036(3) -0.1276(3)
O7A O 1.3352(5) 0.2873(3) -0.1356(3)
C23A C 1.2725(6) 0.4983(5) 0.0223(4)
H19A H 1.3794 0.4882 0.0176
C24A C 1.2117(6) 0.4593(4) -0.0450(3)
C25A C 1.0474(6) 0.4724(4) -0.0386(3)
C26A C 0.9792(7) 0.4334(4) -0.1074(4)
H20A H 1.0429 0.3984 -0.1590
C27A C 1.1736(7) 0.5546(5) 0.0998(4)
H21A H 1.2153 0.5826 0.1447
S2 S 0.36751(19) 0.89901(11) 0.38190(10)
O8 O 0.3931(5) 0.8037(3) 0.4311(3)
O9 O 0.3155(5) 0.8905(3) 0.2938(3)
O10 O 0.4970(5) 0.9446(3) 0.3732(3)
C28 C 0.1232(8) 1.1392(5) 0.5404(5)
H22 H 0.1449 1.1973 0.5625
C29 C 0.2372(7) 1.0691(4) 0.4883(4)
H23 H 0.3364 1.0798 0.4759
C30 C 0.2102(7) 0.9840(4) 0.4537(4)
C31 C 0.0630(7) 0.9636(4) 0.4721(4)
C32 C -0.0276(8) 1.1248(4) 0.5616(4)
H24 H -0.1047 1.1733 0.5977
S2A S -0.36751(19) 1.10099(11) 0.61810(10)
O8A O -0.3931(5) 1.1963(3) 0.5689(3)
O9A O -0.3155(5) 1.1095(3) 0.7062(3)
O10A O -0.4970(5) 1.0554(3) 0.6268(3)
C28A C -0.1232(8) 0.8608(5) 0.4596(5)
H22A H -0.1449 0.8027 0.4375
C29A C -0.2372(7) 0.9309(4) 0.5117(4)
H23A H -0.3364 0.9202 0.5241
C30A C -0.2102(7) 1.0160(4) 0.5463(4)
C31A C -0.0630(7) 1.0364(4) 0.5279(4)
C32A C 0.0276(8) 0.8752(4) 0.4384(4)
H24A H 0.1047 0.8267 0.4023
O11 O 0.2569(7) 0.7742(4) 0.1638(5)
H29 H 0.323(5) 0.724(3) 0.153(4)
H30 H 0.273(7) 0.804(4) 0.208(3)
O12 O 0.7724(6) 0.8471(4) 0.2308(3)
loop_
_geom_bond_atom_site_label_1
_geom_bond_atom_site_label_2
_geom_bond_site_symmetry_1
_geom_bond_site_symmetry_2
Sn1 O1 1_555 1_555
Sn2 O2 1_555 1_555
S1 O5 1_555 1_555
S2 O8 1_555 1_555
O1 H25 1_555 1_555
O2 H27 1_555 1_555
O3 Sn1 1_555 1_555
O4 Sn2 1_555 1_555
O6 S1 1_555 1_555
O7 S1 1_555 1_555
O9 S2 1_555 1_555
O10 S2 1_555 1_555
O11 H29 1_555 1_555
N1 O3 1_555 1_555
N2 O4 1_555 1_555
C1 Sn1 1_555 1_555
C2 C1 1_555 1_555
H1 C2 1_555 1_555
C3 C2 1_555 1_555
H2 C3 1_555 1_555
C4 C3 1_555 1_555
H3 C4 1_555 1_555
C5 C4 1_555 1_555
H4 C5 1_555 1_555
C6 C1 1_555 1_555
H5 C6 1_555 1_555
C7 Sn2 1_555 1_555
C8 C7 1_555 1_555
H6 C8 1_555 1_555
C9 C8 1_555 1_555
H7 C9 1_555 1_555
C10 C9 1_555 1_555
H8 C10 1_555 1_555
C11 C10 1_555 1_555
H9 C11 1_555 1_555
C12 C7 1_555 1_555
H10 C12 1_555 1_555
C13 N1 1_555 1_555
H11 C13 1_555 1_555
C14 C13 1_555 1_555
H12 C14 1_555 1_555
C15 C14 1_555 1_555
C16 C15 1_555 1_555
H13 C16 1_555 1_555
C17 N1 1_555 1_555
H14 C17 1_555 1_555
C18 N2 1_555 1_555
H15 C18 1_555 1_555
C19 C18 1_555 1_555
H16 C19 1_555 1_555
C20 C15 1_555 1_555
C21 C20 1_555 1_555
H17 C21 1_555 1_555
C22 N2 1_555 1_555
H18 C22 1_555 1_555
C23 H19 1_555 1_555
C24 S1 1_555 1_555
C25 C24 1_555 1_555
C26 C25 1_555 1_555
H20 C26 1_555 1_555
C27 C23 1_555 1_555
H21 C27 1_555 1_555
C28 H22 1_555 1_555
C29 C28 1_555 1_555
H23 C29 1_555 1_555
C30 S2 1_555 1_555
C31 C30 1_555 1_555
C32 C28 1_555 1_555
H24 C32 1_555 1_555
H26 O1 1_555 1_555
H28 O2 1_555 1_555
H30 O11 1_555 1_555
Sn2_2 O4A 1_555 1_555
S1A O5A 1_555 1_555
S2A O8A 1_555 1_555
O1A Sn1 1_555 1_555
O2A Sn2 1_555 1_555
O3A Sn1 1_555 1_555
O4A N2A 1_555 1_555
O4A_2 Sn2 1_555 1_555
O6A S1A 1_555 1_555
O7A S1A 1_555 1_555
O9A S2A 1_555 1_555
O10A S2A 1_555 1_555
N1A O3A 1_555 1_555
N2A C18A 1_555 1_555
C1A Sn1 1_555 1_555
C2A C1A 1_555 1_555
H1A C2A 1_555 1_555
C3A C2A 1_555 1_555
H2A C3A 1_555 1_555
C4A C3A 1_555 1_555
H3A C4A 1_555 1_555
C5A C4A 1_555 1_555
H4A C5A 1_555 1_555
C6A C1A 1_555 1_555
H5A C6A 1_555 1_555
C7A Sn2 1_555 1_555
C8A C7A 1_555 1_555
H6A C8A 1_555 1_555
C9A C8A 1_555 1_555
H7A C9A 1_555 1_555
C10A C9A 1_555 1_555
H8A C10A 1_555 1_555
C11A C10A 1_555 1_555
H9A C11A 1_555 1_555
C12A C7A 1_555 1_555
H10A C12A 1_555 1_555
C13A N1A 1_555 1_555
H11A C13A 1_555 1_555
C14A C13A 1_555 1_555
H12A C14A 1_555 1_555
C15A C14A 1_555 1_555
C16A C15A 1_555 1_555
H13A C16A 1_555 1_555
C17A N1A 1_555 1_555
H14A C17A 1_555 1_555
C18A H15A 1_555 1_555
C19A C18A 1_555 1_555
H16A C19A 1_555 1_555
C20A C15A 1_555 1_555
C21A C20A 1_555 1_555
H17A C21A 1_555 1_555
C22A N2A 1_555 1_555
H18A C22A 1_555 1_555
C23A H19A 1_555 1_555
C24A S1A 1_555 1_555
C25A C25 1_555 1_555
C26A C27 1_555 1_555
H20A C26A 1_555 1_555
C27A C26 1_555 1_555
H21A C27A 1_555 1_555
C28A H22A 1_555 1_555
C29A C28A 1_555 1_555
H23A C29A 1_555 1_555
C30A S2A 1_555 1_555
C31A C31 1_555 1_555
C32A C31 1_555 1_555
H24A C32A 1_555 1_555
H25A O1A 1_555 1_555
H26A O1A 1_555 1_555
H27A O2A 1_555 1_555
H28A O2A 1_555 1_555
C5 C6 1_555 1_555
C11 C12 1_555 1_555
C16 C17 1_555 1_555
C19 C20 1_555 1_555
C21 C22 1_555 1_555
C23 C24 1_555 1_555
C29 C30 1_555 1_555
C32 C31A 1_555 1_555
C5A C6A 1_555 1_555
C11A C12A 1_555 1_555
C16A C17A 1_555 1_555
C19A C20A 1_555 1_555
C21A C22A 1_555 1_555
C23A C24A 1_555 1_555
C23A C27A 1_555 1_555
C24A C25A 1_555 1_555
C25A C26A 1_555 1_555
C28A C32A 1_555 1_555
C29A C30A 1_555 1_555
C30A C31A 1_555 1_555

#END
