
#######################################################################
#
#                 Cambridge Crystallographic Data Centre
#                                CCDC 
#
#######################################################################
#
# If this CIF has been generated from an entry in the Cambridge 
# Structural Database, then it will include bibliographic, chemical, 
# crystal, experimental, refinement or atomic coordinate data resulting 
# from the CCDC's data processing and validation procedures.
#
#######################################################################

data_QURVOP
_symmetry_cell_setting           monoclinic
_symmetry_space_group_name_H-M   'C 2/c'
_symmetry_Int_Tables_number      15
_space_group_name_Hall           '-C 2yn'
loop_
_symmetry_equiv_pos_site_id
_symmetry_equiv_pos_as_xyz
1 x,y,z
2 -x,y,1/2-z
3 1/2+x,1/2+y,z
4 1/2-x,1/2+y,1/2-z
5 -x,-y,-z
6 x,-y,1/2+z
7 1/2-x,1/2-y,-z
8 1/2+x,1/2-y,1/2+z
_cell_length_a                   22.765(5)
_cell_length_b                   13.306(5)
_cell_length_c                   17.780(5)
_cell_angle_alpha                90
_cell_angle_beta                 111.187(5)
_cell_angle_gamma                90
_cell_volume                     5021.71
loop_
_atom_site_label
_atom_site_type_symbol
_atom_site_fract_x
_atom_site_fract_y
_atom_site_fract_z
Sn1 Sn 0.0000 0.24571(3) 0.7500
O1 O -0.02901(14) 0.3643(3) 0.81734(18)
O2 O 0.48226(14) 0.3717(2) 1.32716(17)
N1 N 0.01197(16) 0.4036(3) 0.8854(2)
N2 N 0.42503(17) 0.4142(3) 1.3031(2)
C1 C 0.0942(2) 0.2454(3) 0.8348(3)
H1 H 0.0927 0.2596 0.8876
H2 H 0.1107 0.1778 0.8368
C2 C 0.1412(2) 0.3172(5) 0.8213(4)
H3 H 0.1272 0.3855 0.8240
H4 H 0.1413 0.3067 0.7674
C3 C 0.2103(5) 0.3059(9) 0.8833(5)
H5 H 0.2223 0.2358 0.8929
H6 H 0.2401 0.3406 0.8648
C4 C 0.0205(2) 0.3593(3) 0.9562(3)
H7 H -0.0010 0.3003 0.9577
C5 C 0.0606(2) 0.4006(4) 1.0263(3)
H8 H 0.0665 0.3692 1.0752
C6 C 0.0928(2) 0.4891(4) 1.0253(3)
C7 C 0.0827(2) 0.5326(4) 0.9509(3)
H9 H 0.1037 0.5916 0.9478
C8 C 0.0418(2) 0.4888(4) 0.8812(3)
H10 H 0.0350 0.5185 0.8314
C9 C 0.1354(2) 0.5376(4) 1.1026(3)
H11 H 0.1170 0.5297 1.1436
H12 H 0.1384 0.6090 1.0936
C10 C 0.2014(2) 0.4924(4) 1.1333(3)
H13 H 0.1988 0.4202 1.1391
H14 H 0.2217 0.5051 1.0947
C11 C 0.2401(2) 0.5388(4) 1.2144(3)
H15 H 0.2426 0.6109 1.2081
H16 H 0.2192 0.5268 1.2524
C12 C 0.4128(2) 0.4959(4) 1.2552(3)
H17 H 0.4444 0.5247 1.2407
C13 C 0.3536(2) 0.5364(4) 1.2281(3)
H18 H 0.3455 0.5930 1.1953
C14 C 0.3059(2) 0.4958(4) 1.2479(3)
C15 C 0.3205(2) 0.4128(4) 1.2984(3)
H19 H 0.2896 0.3835 1.3140
C16 C 0.3800(2) 0.3738(4) 1.3253(3)
H20 H 0.3894 0.3185 1.3596
C22 C 0.2067(12) 0.3486(19) 0.9481(14)
H24 H 0.2419 0.3280 0.9945
H25 H 0.1682 0.3285 0.9545
H26 H 0.2072 0.4203 0.9426
Sn1F Sn -0.5000 0.25429(3) 0.2500
Sn1F_2 Sn 0.5000 0.25429(3) 1.2500
O1A O 0.02901(14) 0.3643(3) 0.68266(18)
O2A O -0.48226(14) 0.3717(2) 0.17284(17)
O2F O 0.01774(14) 0.1283(2) 0.67284(17)
O2G O -0.01774(14) 0.1283(2) 0.82716(17)
N1A N -0.01197(16) 0.4036(3) 0.6146(2)
N2A N -0.42503(17) 0.4142(3) 0.1969(2)
C1A C -0.0942(2) 0.2454(3) 0.6652(3)
H1A H -0.0927 0.2596 0.6124
H2A H -0.1107 0.1778 0.6632
C2A C -0.1412(2) 0.3172(5) 0.6787(4)
H3A H -0.1272 0.3855 0.6760
H4A H -0.1413 0.3067 0.7326
C3A C -0.2103(5) 0.3059(9) 0.6167(5)
H5A H -0.2223 0.2358 0.6071
H6A H -0.2401 0.3406 0.6352
C4A C -0.0205(2) 0.3593(3) 0.5438(3)
H7A H 0.0010 0.3003 0.5423
C5A C -0.0606(2) 0.4006(4) 0.4737(3)
H8A H -0.0665 0.3692 0.4248
C6A C -0.0928(2) 0.4891(4) 0.4747(3)
C7A C -0.0827(2) 0.5326(4) 0.5491(3)
H9A H -0.1037 0.5916 0.5522
C8A C -0.0418(2) 0.4888(4) 0.6188(3)
H10A H -0.0350 0.5185 0.6686
C9A C -0.1354(2) 0.5376(4) 0.3974(3)
H11A H -0.1170 0.5297 0.3564
H12A H -0.1384 0.6090 0.4064
C10A C -0.2014(2) 0.4924(4) 0.3667(3)
H13A H -0.1988 0.4202 0.3609
H14A H -0.2217 0.5051 0.4053
C11A C -0.2401(2) 0.5388(4) 0.2856(3)
H15A H -0.2426 0.6109 0.2919
H16A H -0.2192 0.5268 0.2476
C12A C -0.4128(2) 0.4959(4) 0.2448(3)
H17A H -0.4444 0.5247 0.2593
C13A C -0.3536(2) 0.5364(4) 0.2719(3)
H18A H -0.3455 0.5930 0.3047
C14A C -0.3059(2) 0.4958(4) 0.2521(3)
C15A C -0.3205(2) 0.4128(4) 0.2016(3)
H19A H -0.2896 0.3835 0.1860
C16A C -0.3800(2) 0.3738(4) 0.1747(3)
H20A H -0.3894 0.3185 0.1404
C22A C -0.2067(12) 0.3486(19) 0.5519(14)
H24A H -0.2419 0.3280 0.5055
H25A H -0.1682 0.3285 0.5455
H26A H -0.2072 0.4203 0.5574
S1 S 1.09879(7) 0.84322(10) 0.94798(8)
O3 O 1.0613(2) 0.8330(3) 0.8630(2)
O4 O 1.16438(19) 0.8607(3) 0.9616(2)
O5 O 1.0894(2) 0.7623(2) 0.9968(3)
C17 C 1.0711(2) 0.9531(3) 0.9818(3)
C18 C 1.0088(2) 0.9575(3) 0.9821(2)
C19 C 0.9629(3) 0.8804(3) 0.9485(3)
H21 H 0.9734 0.8250 0.9240
C20 C 0.9048(3) 0.8870(4) 0.9518(3)
H22 H 0.8759 0.8356 0.9304
C21 C 0.8876(3) 0.9703(4) 0.9870(3)
H23 H 0.8475 0.9735 0.9893
S1D S 0.90121(7) 1.15678(10) 1.05202(8)
O3D O 0.9387(2) 1.1670(3) 1.1370(2)
O4D O 0.83562(19) 1.1393(3) 1.0384(2)
O5D O 0.9106(2) 1.2377(2) 1.0032(3)
C17D C 0.9289(2) 1.0469(3) 1.0182(3)
C18D C 0.9912(2) 1.0425(3) 1.0179(2)
C19D C 1.0371(3) 1.1196(3) 1.0515(3)
H21D H 1.0266 1.1750 1.0760
C20D C 1.0952(3) 1.1130(4) 1.0482(3)
H22D H 1.1241 1.1644 1.0696
C21D C 1.1124(3) 1.0297(4) 1.0130(3)
H23D H 1.1525 1.0265 1.0107
O6 O 0.0000 0.6927(6) 0.7500
O7 O 0.2677(4) 0.2229(6) 0.6040(4)
O8 O 0.1300(5) 0.3430(9) 0.2456(6)
C23? C 0.2307(16) 0.388(3) 0.9312(16)
H27? H 0.2046 0.3978 0.9625
H28? H 0.2287 0.4457 0.8984
H29? H 0.2735 0.3770 0.9668
loop_
_geom_bond_atom_site_label_1
_geom_bond_atom_site_label_2
_geom_bond_site_symmetry_1
_geom_bond_site_symmetry_2
Sn1 O1 1_555 1_555
S1 O3 1_555 1_555
O1 N1 1_555 1_555
O2 N2 1_555 1_555
O4 S1 1_555 1_555
O5 S1 1_555 1_555
N1 C4 1_555 1_555
N2 C12 1_555 1_555
C1 Sn1 1_555 1_555
H1 C1 1_555 1_555
H2 C1 1_555 1_555
C2 C1 1_555 1_555
H3 C2 1_555 1_555
H4 C2 1_555 1_555
C3 C2 1_555 1_555
H5 C3 1_555 1_555
H6 C3 1_555 1_555
C4 H7 1_555 1_555
C5 C4 1_555 1_555
H8 C5 1_555 1_555
C6 C5 1_555 1_555
C7 C6 1_555 1_555
H9 C7 1_555 1_555
C8 N1 1_555 1_555
H10 C8 1_555 1_555
C9 C6 1_555 1_555
H11 C9 1_555 1_555
H12 C9 1_555 1_555
C10 C9 1_555 1_555
H13 C10 1_555 1_555
H14 C10 1_555 1_555
C11 C10 1_555 1_555
H15 C11 1_555 1_555
H16 C11 1_555 1_555
C12 H17 1_555 1_555
C13 C12 1_555 1_555
H18 C13 1_555 1_555
C14 C11 1_555 1_555
C15 C14 1_555 1_555
H19 C15 1_555 1_555
C16 N2 1_555 1_555
H20 C16 1_555 1_555
C17 S1 1_555 1_555
C18 C17 1_555 1_555
C19 C18 1_555 1_555
H21 C19 1_555 1_555
C20 C19 1_555 1_555
H22 C20 1_555 1_555
C21 C20 1_555 1_555
H23 C21 1_555 1_555
C22 C3 1_555 1_555
H24 C22 1_555 1_555
H25 C22 1_555 1_555
H26 C22 1_555 1_555
Sn1F O2A 1_555 1_555
Sn1F_2 O2 1_555 1_555
S1D O3D 1_555 1_555
O1A Sn1 1_555 1_555
O2A N2A 1_555 1_555
O2F Sn1 1_555 1_555
O2G Sn1 1_555 1_555
O4D S1D 1_555 1_555
O5D S1D 1_555 1_555
N1A O1A 1_555 1_555
N2A C12A 1_555 1_555
C1A Sn1 1_555 1_555
H1A C1A 1_555 1_555
H2A C1A 1_555 1_555
C2A C1A 1_555 1_555
H3A C2A 1_555 1_555
H4A C2A 1_555 1_555
C3A C2A 1_555 1_555
H5A C3A 1_555 1_555
H6A C3A 1_555 1_555
C4A N1A 1_555 1_555
H7A C4A 1_555 1_555
C5A C4A 1_555 1_555
H8A C5A 1_555 1_555
C6A C5A 1_555 1_555
C7A C6A 1_555 1_555
H9A C7A 1_555 1_555
C8A N1A 1_555 1_555
H10A C8A 1_555 1_555
C9A C6A 1_555 1_555
H11A C9A 1_555 1_555
H12A C9A 1_555 1_555
C10A C9A 1_555 1_555
H13A C10A 1_555 1_555
H14A C10A 1_555 1_555
C11A C10A 1_555 1_555
H15A C11A 1_555 1_555
H16A C11A 1_555 1_555
C12A H17A 1_555 1_555
C13A C12A 1_555 1_555
H18A C13A 1_555 1_555
C14A C11A 1_555 1_555
C15A C14A 1_555 1_555
H19A C15A 1_555 1_555
C16A N2A 1_555 1_555
H20A C16A 1_555 1_555
C17D C21 1_555 1_555
C18D C18 1_555 1_555
C19D C18D 1_555 1_555
H21D C19D 1_555 1_555
C20D C19D 1_555 1_555
H22D C20D 1_555 1_555
C21D C17 1_555 1_555
H23D C21D 1_555 1_555
C22A C3A 1_555 1_555
H24A C22A 1_555 1_555
H25A C22A 1_555 1_555
H26A C22A 1_555 1_555
C7 C8 1_555 1_555
C13 C14 1_555 1_555
C15 C16 1_555 1_555
S1D C17D 1_555 1_555
C7A C8A 1_555 1_555
C13A C14A 1_555 1_555
C15A C16A 1_555 1_555
C17D C18D 1_555 1_555
C20D C21D 1_555 1_555

#END
