
#######################################################################
#
#                 Cambridge Crystallographic Data Centre
#                                CCDC 
#
#######################################################################
#
# If this CIF has been generated from an entry in the Cambridge 
# Structural Database, then it will include bibliographic, chemical, 
# crystal, experimental, refinement or atomic coordinate data resulting 
# from the CCDC's data processing and validation procedures.
#
#######################################################################

data_QURVUV
_symmetry_cell_setting           monoclinic
_symmetry_space_group_name_H-M   'C 2/c'
_symmetry_Int_Tables_number      15
_space_group_name_Hall           '-C 2yn'
loop_
_symmetry_equiv_pos_site_id
_symmetry_equiv_pos_as_xyz
1 x,y,z
2 -x,y,1/2-z
3 1/2+x,1/2+y,z
4 1/2-x,1/2+y,1/2-z
5 -x,-y,-z
6 x,-y,1/2+z
7 1/2-x,1/2-y,-z
8 1/2+x,1/2-y,1/2+z
_cell_length_a                   22.376(2)
_cell_length_b                   7.6045(8)
_cell_length_c                   30.762(3)
_cell_angle_alpha                90
_cell_angle_beta                 91.763(2)
_cell_angle_gamma                90
_cell_volume                     5231.93
loop_
_atom_site_label
_atom_site_type_symbol
_atom_site_fract_x
_atom_site_fract_y
_atom_site_fract_z
Sn1 Sn 0.7500 0.7500 0.0000
S1 S 0.88286(4) 0.83722(12) 0.05873(3)
O1 O 0.74244(11) 0.6170(3) 0.06402(7)
O2 O 0.84636(11) 0.8068(3) 0.01810(8)
O3 O 0.84990(11) 0.9278(3) 0.09128(8)
O4 O 0.91258(12) 0.6779(3) 0.07304(8)
O5 O 0.21330(11) 0.8077(4) 0.14857(8)
H1 H 0.1933 0.8442 0.1694
N1 N 0.69949(13) 0.6642(4) 0.09183(9)
N2 N 0.27316(13) 0.8035(4) 0.16087(10)
C1 C 0.72543(17) 0.9973(5) 0.02629(12)
H2 H 0.7213 0.9821 0.0580
H3 H 0.7590 1.0797 0.0222
C2 C 0.6695(2) 1.0839(6) 0.00873(15)
H4 H 0.6381 0.9938 0.0038
H5 H 0.6775 1.1397 -0.0196
C3 C 0.6468(2) 1.2252(5) 0.04077(15)
H6 H 0.6818 1.2906 0.0529
H7 H 0.6215 1.3101 0.0242
C4 C 0.6115(2) 1.1553(7) 0.07812(16)
H8 H 0.5775 1.0865 0.0667
H9 H 0.5969 1.2539 0.0953
H10 H 0.6373 1.0802 0.0966
C5 C 0.64236(16) 0.6272(5) 0.08140(11)
H11 H 0.6323 0.5772 0.0538
C6 C 0.59824(17) 0.6610(5) 0.11021(11)
H12 H 0.5579 0.6333 0.1025
C7 C 0.61197(16) 0.7350(4) 0.15031(11)
C8 C 0.67215(17) 0.7742(5) 0.15972(12)
H13 H 0.6832 0.8257 0.1869
C9 C 0.71538(17) 0.7394(4) 0.13030(12)
H14 H 0.7560 0.7678 0.1369
C10 C 0.56480(16) 0.7667(5) 0.18317(11)
H15 H 0.5747 0.8763 0.1992
H16 H 0.5661 0.6690 0.2045
C11 C 0.50118(16) 0.7820(5) 0.16408(11)
H17 H 0.4988 0.8833 0.1439
H18 H 0.4911 0.6743 0.1473
C12 C 0.45637(16) 0.8066(5) 0.19982(12)
H19 H 0.4629 0.7128 0.2218
H20 H 0.4646 0.9206 0.2144
C13 C 0.39176(17) 0.8031(5) 0.18479(11)
C14 C 0.37082(16) 0.8949(5) 0.14806(11)
H21 H 0.3981 0.9581 0.1309
C15 C 0.31119(17) 0.8943(5) 0.13663(11)
H22 H 0.2969 0.9575 0.1118
C16 C 0.29120(17) 0.7064(5) 0.19539(12)
H23 H 0.2633 0.6383 0.2108
C17 C 0.35043(16) 0.7075(5) 0.20789(11)
H24 H 0.3634 0.6419 0.2327
C18 C 0.93715(16) 1.1543(5) 0.05550(11)
H25 H 0.9091 1.1854 0.0768
C19 C 0.93857(15) 0.9858(5) 0.04003(11)
C20 C 0.98013(15) 0.9340(4) 0.00777(10)
C21 C 0.98320(16) 0.7601(4) -0.00916(11)
H26 H 0.9571 0.6721 0.0013
C22 C 1.02311(17) 0.7183(5) -0.04018(12)
H27 H 1.0241 0.6021 -0.0515
Sn1B Sn 1.2500 1.2500 0.0000
S1D S 1.11714(4) 1.16278(12) -0.05873(3)
O1F O 0.75756(11) 0.8830(3) -0.06402(7)
O2D O 1.15364(11) 1.1932(3) -0.01810(8)
O2F O 0.65364(11) 0.6932(3) -0.01810(8)
O3D O 1.15010(11) 1.0722(3) -0.09128(8)
O4D O 1.08742(12) 1.3221(3) -0.07304(8)
O5F O 1.28670(11) 0.6923(4) -0.14857(8)
H1F H 1.3067 0.6558 -0.1694
N1F N 0.80051(13) 0.8358(4) -0.09183(9)
N2F N 1.22684(13) 0.6965(4) -0.16087(10)
C1F C 0.77457(17) 0.5027(5) -0.02629(12)
H2F H 0.7787 0.5179 -0.0580
H3F H 0.7410 0.4203 -0.0222
C2F C 0.8305(2) 0.4161(6) -0.00873(15)
H4F H 0.8619 0.5062 -0.0038
H5F H 0.8225 0.3603 0.0196
C3F C 0.8532(2) 0.2748(5) -0.04077(15)
H6F H 0.8182 0.2094 -0.0529
H7F H 0.8785 0.1899 -0.0242
C4F C 0.8885(2) 0.3447(7) -0.07812(16)
H8F H 0.9225 0.4135 -0.0667
H9F H 0.9031 0.2461 -0.0953
H10F H 0.8627 0.4198 -0.0966
C5F C 0.85764(16) 0.8728(5) -0.08140(11)
H11F H 0.8677 0.9228 -0.0538
C6F C 0.90176(17) 0.8390(5) -0.11021(11)
H12F H 0.9421 0.8667 -0.1025
C7F C 0.88803(16) 0.7650(4) -0.15031(11)
C8F C 0.82785(17) 0.7258(5) -0.15972(12)
H13F H 0.8168 0.6743 -0.1869
C9F C 0.78462(17) 0.7606(4) -0.13030(12)
H14F H 0.7440 0.7322 -0.1369
C10F C 0.93520(16) 0.7333(5) -0.18317(11)
H15F H 0.9253 0.6237 -0.1992
H16F H 0.9339 0.8310 -0.2045
C11F C 0.99882(16) 0.7180(5) -0.16408(11)
H17F H 1.0012 0.6167 -0.1439
H18F H 1.0089 0.8257 -0.1473
C12F C 1.04363(16) 0.6934(5) -0.19982(12)
H19F H 1.0371 0.7872 -0.2218
H20F H 1.0354 0.5794 -0.2144
C13F C 1.10824(17) 0.6969(5) -0.18479(11)
C14F C 1.12918(16) 0.6051(5) -0.14806(11)
H21F H 1.1019 0.5419 -0.1309
C15F C 1.18881(17) 0.6057(5) -0.13663(11)
H22F H 1.2031 0.5425 -0.1118
C16F C 1.20880(17) 0.7936(5) -0.19539(12)
H23F H 1.2367 0.8617 -0.2108
C17F C 1.14957(16) 0.7925(5) -0.20789(11)
H24F H 1.1366 0.8581 -0.2327
C18D C 1.06285(16) 0.8457(5) -0.05550(11)
H25D H 1.0909 0.8146 -0.0768
C19D C 1.06143(15) 1.0142(5) -0.04003(11)
C20D C 1.01987(15) 1.0660(4) -0.00777(10)
C21D C 1.01680(16) 1.2399(4) 0.00916(11)
H26D H 1.0429 1.3279 -0.0013
C22D C 0.97689(17) 1.2817(5) 0.04018(12)
H27D H 0.9759 1.3979 0.0515
S2 S 0.65437(4) 0.25400(11) 0.25223(3)
O6 O 0.66224(11) 0.3942(3) 0.21945(8)
O7 O 0.65626(11) 0.0812(3) 0.23233(8)
O8 O 0.69363(12) 0.2769(3) 0.28986(8)
C23 C 0.48490(17) 0.2855(5) 0.16832(12)
H28 H 0.4896 0.2909 0.1378
C24 C 0.53414(18) 0.2767(5) 0.19524(12)
H29 H 0.5726 0.2700 0.1831
C25 C 0.52933(17) 0.2771(4) 0.24114(11)
C26 C 0.57990(16) 0.2787(4) 0.27088(11)
C27 C 0.57305(17) 0.2868(4) 0.31496(12)
H30 H 0.6071 0.2933 0.3341
S2A S 0.34563(4) 0.25400(11) 0.24777(3)
O6A O 0.33776(11) 0.3942(3) 0.28055(8)
O7A O 0.34374(11) 0.0812(3) 0.26767(8)
O8A O 0.30637(12) 0.2769(3) 0.21014(8)
C23A C 0.51510(17) 0.2855(5) 0.33168(12)
H28A H 0.5104 0.2909 0.3622
C24A C 0.46586(18) 0.2767(5) 0.30476(12)
H29A H 0.4274 0.2700 0.3169
C25A C 0.47067(17) 0.2771(4) 0.25886(11)
C26A C 0.42010(16) 0.2787(4) 0.22912(11)
C27A C 0.42695(17) 0.2868(4) 0.18504(12)
H30A H 0.3929 0.2933 0.1659
loop_
_geom_bond_atom_site_label_1
_geom_bond_atom_site_label_2
_geom_bond_site_symmetry_1
_geom_bond_site_symmetry_2
Sn1 O1 1_555 1_555
S1 O2 1_555 1_555
S2 O6 1_555 1_555
O1 N1 1_555 1_555
O2 Sn1 1_555 1_555
O3 S1 1_555 1_555
O4 S1 1_555 1_555
O5 H1 1_555 1_555
O7 S2 1_555 1_555
O8 S2 1_555 1_555
N1 C5 1_555 1_555
N2 O5 1_555 1_555
C1 Sn1 1_555 1_555
H2 C1 1_555 1_555
H3 C1 1_555 1_555
C2 C1 1_555 1_555
H4 C2 1_555 1_555
H5 C2 1_555 1_555
C3 C2 1_555 1_555
H6 C3 1_555 1_555
H7 C3 1_555 1_555
C4 C3 1_555 1_555
H8 C4 1_555 1_555
H9 C4 1_555 1_555
H10 C4 1_555 1_555
C5 H11 1_555 1_555
C6 C5 1_555 1_555
H12 C6 1_555 1_555
C7 C6 1_555 1_555
C8 C7 1_555 1_555
H13 C8 1_555 1_555
C9 N1 1_555 1_555
H14 C9 1_555 1_555
C10 C7 1_555 1_555
H15 C10 1_555 1_555
H16 C10 1_555 1_555
C11 C10 1_555 1_555
H17 C11 1_555 1_555
H18 C11 1_555 1_555
C12 C11 1_555 1_555
H19 C12 1_555 1_555
H20 C12 1_555 1_555
C13 C12 1_555 1_555
C14 C13 1_555 1_555
H21 C14 1_555 1_555
C15 N2 1_555 1_555
H22 C15 1_555 1_555
C16 N2 1_555 1_555
H23 C16 1_555 1_555
C17 C13 1_555 1_555
H24 C17 1_555 1_555
C18 H25 1_555 1_555
C19 S1 1_555 1_555
C20 C19 1_555 1_555
C21 C20 1_555 1_555
H26 C21 1_555 1_555
C22 C21 1_555 1_555
H27 C22 1_555 1_555
C23 H28 1_555 1_555
C24 C23 1_555 1_555
H29 C24 1_555 1_555
C25 C24 1_555 1_555
C26 S2 1_555 1_555
C27 C26 1_555 1_555
H30 C27 1_555 1_555
Sn1B O2D 1_555 1_555
S1D O2D 1_555 1_555
S2A O6A 1_555 1_555
O1F Sn1 1_555 1_555
O2F Sn1 1_555 1_555
O3D S1D 1_555 1_555
O4D S1D 1_555 1_555
O5F H1F 1_555 1_555
O7A S2A 1_555 1_555
O8A S2A 1_555 1_555
N1F O1F 1_555 1_555
N2F O5F 1_555 1_555
C1F Sn1 1_555 1_555
H2F C1F 1_555 1_555
H3F C1F 1_555 1_555
C2F C1F 1_555 1_555
H4F C2F 1_555 1_555
H5F C2F 1_555 1_555
C3F C2F 1_555 1_555
H6F C3F 1_555 1_555
H7F C3F 1_555 1_555
C4F C3F 1_555 1_555
H8F C4F 1_555 1_555
H9F C4F 1_555 1_555
H10F C4F 1_555 1_555
C5F N1F 1_555 1_555
H11F C5F 1_555 1_555
C6F C5F 1_555 1_555
H12F C6F 1_555 1_555
C7F C6F 1_555 1_555
C8F C7F 1_555 1_555
H13F C8F 1_555 1_555
C9F N1F 1_555 1_555
H14F C9F 1_555 1_555
C10F C7F 1_555 1_555
H15F C10F 1_555 1_555
H16F C10F 1_555 1_555
C11F C10F 1_555 1_555
H17F C11F 1_555 1_555
H18F C11F 1_555 1_555
C12F C11F 1_555 1_555
H19F C12F 1_555 1_555
H20F C12F 1_555 1_555
C13F C12F 1_555 1_555
C14F C13F 1_555 1_555
H21F C14F 1_555 1_555
C15F N2F 1_555 1_555
H22F C15F 1_555 1_555
C16F N2F 1_555 1_555
H23F C16F 1_555 1_555
C17F C13F 1_555 1_555
H24F C17F 1_555 1_555
C18D C22 1_555 1_555
H25D C18D 1_555 1_555
C19D S1D 1_555 1_555
C20D C20 1_555 1_555
C21D C20D 1_555 1_555
H26D C21D 1_555 1_555
C22D C18 1_555 1_555
H27D C22D 1_555 1_555
C23A C27 1_555 1_555
H28A C23A 1_555 1_555
C24A C23A 1_555 1_555
H29A C24A 1_555 1_555
C25A C25 1_555 1_555
C26A S2A 1_555 1_555
C27A C23 1_555 1_555
H30A C27A 1_555 1_555
C8 C9 1_555 1_555
C14 C15 1_555 1_555
C16 C17 1_555 1_555
C18 C19 1_555 1_555
C25 C26 1_555 1_555
C8F C9F 1_555 1_555
C14F C15F 1_555 1_555
C16F C17F 1_555 1_555
C18D C19D 1_555 1_555
C19D C20D 1_555 1_555
C21D C22D 1_555 1_555
C24A C25A 1_555 1_555
C25A C26A 1_555 1_555
C26A C27A 1_555 1_555

#END
