
#######################################################################
#
#                 Cambridge Crystallographic Data Centre
#                                CCDC 
#
#######################################################################
#
# If this CIF has been generated from an entry in the Cambridge 
# Structural Database, then it will include bibliographic, chemical, 
# crystal, experimental, refinement or atomic coordinate data resulting 
# from the CCDC's data processing and validation procedures.
#
#######################################################################

data_QURWIK
_symmetry_cell_setting           monoclinic
_symmetry_space_group_name_H-M   'P 21/c'
_symmetry_Int_Tables_number      14
_space_group_name_Hall           '-P 2ybc'
loop_
_symmetry_equiv_pos_site_id
_symmetry_equiv_pos_as_xyz
1 x,y,z
2 -x,1/2+y,1/2-z
3 -x,-y,-z
4 x,1/2-y,1/2+z
_cell_length_a                   8.277(5)
_cell_length_b                   11.073(5)
_cell_length_c                   24.350(5)
_cell_angle_alpha                90
_cell_angle_beta                 99.485(5)
_cell_angle_gamma                90
_cell_volume                     2201.2
loop_
_atom_site_label
_atom_site_type_symbol
_atom_site_fract_x
_atom_site_fract_y
_atom_site_fract_z
Sn1 Sn 0.59974(2) 0.148577(19) 0.653718(8)
S1 S 0.67345(9) 0.19081(8) 0.50283(3)
O1 O 0.4473(3) -0.0253(2) 0.63914(10)
O2 O 0.4584(3) 0.6168(2) 0.76594(9)
O3 O 0.4559(3) 0.7858(2) 0.71505(9)
O4 O 0.7434(3) 0.31259(19) 0.67646(9)
O5 O 0.6529(3) 0.1528(2) 0.55889(9)
O6 O 0.6731(3) 0.3207(2) 0.49648(9)
O7 O 0.5572(2) 0.1299(2) 0.46016(8)
N1 N 0.6786(3) 0.4211(2) 0.66019(10)
C1 C 0.3825(4) 0.2382(3) 0.61662(13)
H1 H 0.4130 0.3096 0.5976
H2 H 0.3227 0.1853 0.5886
C2 C 0.2674(4) 0.2766(3) 0.65667(14)
H3 H 0.3239 0.3336 0.6834
H4 H 0.2398 0.2063 0.6770
C3 C 0.1092(4) 0.3348(4) 0.62648(17)
H5 H 0.0530 0.2769 0.6001
H6 H 0.0386 0.3519 0.6536
C4 C 0.1337(5) 0.4502(4) 0.5956(2)
H7 H 0.1860 0.5094 0.6214
H8 H 0.0293 0.4803 0.5778
H9 H 0.2013 0.4342 0.5680
C5 C 0.8275(4) 0.0569(3) 0.66921(13)
H10 H 0.8872 0.0773 0.6394
H11 H 0.8893 0.0893 0.7033
C6 C 0.8277(4) -0.0790(3) 0.67451(14)
H12 H 0.7686 -0.1134 0.6404
H13 H 0.7702 -0.1013 0.7046
C7 C 0.9999(4) -0.1325(3) 0.68578(16)
H14 H 1.0594 -0.1073 0.6566
H15 H 1.0575 -0.1013 0.7208
C8 C 0.9978(5) -0.2702(4) 0.68832(19)
H16 H 0.9394 -0.2956 0.7172
H17 H 1.1082 -0.2999 0.6961
H18 H 0.9446 -0.3017 0.6532
C9 C 0.4821(4) 0.6777(3) 0.72315(13)
C10 C 0.5509(4) 0.6020(3) 0.68110(12)
C11 C 0.5455(4) 0.6403(3) 0.62656(12)
H19 H 0.5008 0.7150 0.6151
C12 C 0.6173(4) 0.4900(3) 0.69726(12)
H20 H 0.6195 0.4628 0.7335
C13 C 0.6762(4) 0.4564(3) 0.60672(12)
H21 H 0.7204 0.4071 0.5820
C14 C 0.6075(4) 0.5657(3) 0.58944(12)
H22 H 0.6026 0.5898 0.5526
C15 C 0.9776(4) 0.2238(3) 0.47886(14)
H23 H 0.9438 0.3033 0.4723
C16 C 0.8727(4) 0.1407(3) 0.49454(12)
C17 C 0.9181(4) 0.0168(3) 0.50353(12)
C18 C 0.8124(4) -0.0734(3) 0.51849(13)
H24 H 0.7059 -0.0528 0.5223
C19 C 1.1371(4) 0.1890(3) 0.47266(14)
H25 H 1.2087 0.2462 0.4623
H26 H 0.437(4) -0.052(3) 0.6086(9)
H27 H 0.452(5) -0.078(3) 0.6604(14)
Sn1A Sn 0.40026(2) 0.648577(19) 0.846282(8)
Sn1B Sn 1.40026(2) -0.148577(19) 0.346282(8)
Sn1C Sn 1.59974(2) -0.648577(19) 0.153718(8)
S1B S 1.32655(9) -0.19081(8) 0.49717(3)
O1B O 1.5527(3) 0.0253(2) 0.36086(10)
O2A O 0.5416(3) 0.1168(2) 0.73406(9)
O2C O 1.4584(3) -0.1168(2) 0.26594(9)
O2B O 1.5416(3) -0.6168(2) 0.23406(9)
O3B O 1.5441(3) -0.7858(2) 0.28495(9)
O4B O 1.2566(3) -0.31259(19) 0.32354(9)
O5B O 1.3471(3) -0.1528(2) 0.44111(9)
O6B O 1.3269(3) -0.3207(2) 0.50352(9)
O7B O 1.4428(2) -0.1299(2) 0.53984(8)
N1B N 1.3214(3) -0.4211(2) 0.33981(10)
C1B C 1.6175(4) -0.2382(3) 0.38338(13)
H1B H 1.5870 -0.3096 0.4024
H2B H 1.6773 -0.1853 0.4114
C2B C 1.7326(4) -0.2766(3) 0.34333(14)
H3B H 1.6761 -0.3336 0.3166
H4B H 1.7602 -0.2063 0.3230
C3B C 1.8908(4) -0.3348(4) 0.37352(17)
H5B H 1.9470 -0.2769 0.3999
H6B H 1.9614 -0.3519 0.3464
C4B C 1.8663(5) -0.4502(4) 0.4044(2)
H7B H 1.8140 -0.5094 0.3786
H8B H 1.9707 -0.4803 0.4222
H9B H 1.7987 -0.4342 0.4320
C5B C 1.1725(4) -0.0569(3) 0.33079(13)
H10B H 1.1128 -0.0773 0.3606
H11B H 1.1107 -0.0893 0.2967
C6B C 1.1723(4) 0.0790(3) 0.32549(14)
H12B H 1.2314 0.1134 0.3596
H13B H 1.2298 0.1013 0.2954
C7B C 1.0001(4) 0.1325(3) 0.31422(16)
H14B H 0.9406 0.1073 0.3434
H15B H 0.9425 0.1013 0.2792
C8B C 1.0022(5) 0.2702(4) 0.31168(19)
H16B H 1.0606 0.2956 0.2828
H17B H 0.8918 0.2999 0.3039
H18B H 1.0554 0.3017 0.3468
C9B C 1.5179(4) -0.6777(3) 0.27685(13)
C10B C 1.4491(4) -0.6020(3) 0.31890(12)
C11B C 1.4545(4) -0.6403(3) 0.37344(12)
H19B H 1.4992 -0.7150 0.3849
C12B C 1.3827(4) -0.4900(3) 0.30274(12)
H20B H 1.3805 -0.4628 0.2665
C13B C 1.3238(4) -0.4564(3) 0.39328(12)
H21B H 1.2796 -0.4071 0.4180
C14B C 1.3925(4) -0.5657(3) 0.41056(12)
H22B H 1.3974 -0.5898 0.4474
C15B C 1.0224(4) -0.2238(3) 0.52114(14)
H23B H 1.0562 -0.3033 0.5277
C16B C 1.1273(4) -0.1407(3) 0.50546(12)
C17B C 1.0819(4) -0.0168(3) 0.49647(12)
C18B C 1.1876(4) 0.0734(3) 0.48151(13)
H24B H 1.2941 0.0528 0.4777
C19B C 0.8629(4) -0.1890(3) 0.52734(14)
H25B H 0.7913 -0.2462 0.5377
H26B H 1.563(4) 0.052(3) 0.3914(9)
H27B H 1.548(5) 0.078(3) 0.3396(14)
loop_
_geom_bond_atom_site_label_1
_geom_bond_atom_site_label_2
_geom_bond_site_symmetry_1
_geom_bond_site_symmetry_2
Sn1 O1 1_555 1_555
S1 O5 1_555 1_555
O1 H26 1_555 1_555
O2 C9 1_555 1_555
O3 C9 1_555 1_555
O4 Sn1 1_555 1_555
O5 Sn1 1_555 1_555
O6 S1 1_555 1_555
O7 S1 1_555 1_555
N1 O4 1_555 1_555
C1 Sn1 1_555 1_555
H1 C1 1_555 1_555
H2 C1 1_555 1_555
C2 C1 1_555 1_555
H3 C2 1_555 1_555
H4 C2 1_555 1_555
C3 C2 1_555 1_555
H5 C3 1_555 1_555
H6 C3 1_555 1_555
C4 C3 1_555 1_555
H7 C4 1_555 1_555
H8 C4 1_555 1_555
H9 C4 1_555 1_555
C5 Sn1 1_555 1_555
H10 C5 1_555 1_555
H11 C5 1_555 1_555
C6 C5 1_555 1_555
H12 C6 1_555 1_555
H13 C6 1_555 1_555
C7 C6 1_555 1_555
H14 C7 1_555 1_555
H15 C7 1_555 1_555
C8 C7 1_555 1_555
H16 C8 1_555 1_555
H17 C8 1_555 1_555
H18 C8 1_555 1_555
C9 C10 1_555 1_555
C10 C11 1_555 1_555
C11 H19 1_555 1_555
C12 N1 1_555 1_555
H20 C12 1_555 1_555
C13 N1 1_555 1_555
H21 C13 1_555 1_555
C14 C11 1_555 1_555
H22 C14 1_555 1_555
C15 H23 1_555 1_555
C16 S1 1_555 1_555
C17 C16 1_555 1_555
C18 C17 1_555 1_555
H24 C18 1_555 1_555
C19 C15 1_555 1_555
H25 C19 1_555 1_555
H27 O1 1_555 1_555
Sn1A O2 1_555 1_555
Sn1B O1B 1_555 1_555
Sn1C O2B 1_555 1_555
S1B O5B 1_555 1_555
O1B H26B 1_555 1_555
O2A Sn1 1_555 1_555
O2C Sn1B 1_555 1_555
O2B C9B 1_555 1_555
O3B C9B 1_555 1_555
O4B Sn1B 1_555 1_555
O5B Sn1B 1_555 1_555
O6B S1B 1_555 1_555
O7B S1B 1_555 1_555
N1B O4B 1_555 1_555
C1B Sn1B 1_555 1_555
H1B C1B 1_555 1_555
H2B C1B 1_555 1_555
C2B C1B 1_555 1_555
H3B C2B 1_555 1_555
H4B C2B 1_555 1_555
C3B C2B 1_555 1_555
H5B C3B 1_555 1_555
H6B C3B 1_555 1_555
C4B C3B 1_555 1_555
H7B C4B 1_555 1_555
H8B C4B 1_555 1_555
H9B C4B 1_555 1_555
C5B Sn1B 1_555 1_555
H10B C5B 1_555 1_555
H11B C5B 1_555 1_555
C6B C5B 1_555 1_555
H12B C6B 1_555 1_555
H13B C6B 1_555 1_555
C7B C6B 1_555 1_555
H14B C7B 1_555 1_555
H15B C7B 1_555 1_555
C8B C7B 1_555 1_555
H16B C8B 1_555 1_555
H17B C8B 1_555 1_555
H18B C8B 1_555 1_555
C9B C10B 1_555 1_555
C10B C11B 1_555 1_555
C11B H19B 1_555 1_555
C12B N1B 1_555 1_555
H20B C12B 1_555 1_555
C13B N1B 1_555 1_555
H21B C13B 1_555 1_555
C14B C11B 1_555 1_555
H22B C14B 1_555 1_555
C15B H23B 1_555 1_555
C16B S1B 1_555 1_555
C17B C17 1_555 1_555
C18B C19 1_555 1_555
H24B C18B 1_555 1_555
C19B C18 1_555 1_555
H25B C19B 1_555 1_555
H27B O1B 1_555 1_555
C10 C12 1_555 1_555
C13 C14 1_555 1_555
C15 C16 1_555 1_555
C10B C12B 1_555 1_555
C13B C14B 1_555 1_555
C15B C16B 1_555 1_555
C15B C19B 1_555 1_555
C16B C17B 1_555 1_555
C17B C18B 1_555 1_555

#END
