
#######################################################################
#
#                 Cambridge Crystallographic Data Centre
#                                CCDC 
#
#######################################################################
#
# If this CIF has been generated from an entry in the Cambridge 
# Structural Database, then it will include bibliographic, chemical, 
# crystal, experimental, refinement or atomic coordinate data resulting 
# from the CCDC's data processing and validation procedures.
#
#######################################################################

data_QURWEG
_symmetry_cell_setting           monoclinic
_symmetry_space_group_name_H-M   'P 21/c'
_symmetry_Int_Tables_number      14
_space_group_name_Hall           '-P 2ybc'
loop_
_symmetry_equiv_pos_site_id
_symmetry_equiv_pos_as_xyz
1 x,y,z
2 -x,1/2+y,1/2-z
3 -x,-y,-z
4 x,1/2-y,1/2+z
_cell_length_a                   15.9172(19)
_cell_length_b                   20.121(2)
_cell_length_c                   15.5682(18)
_cell_angle_alpha                90
_cell_angle_beta                 109.276(2)
_cell_angle_gamma                90
_cell_volume                     4706.51
loop_
_atom_site_label
_atom_site_type_symbol
_atom_site_fract_x
_atom_site_fract_y
_atom_site_fract_z
Sn1 Sn 0.48656(3) 0.74062(3) 0.48891(3)
Sn2 Sn 0.99278(3) 0.748050(18) 0.49302(3)
S1 S 1.11145(10) 0.62161(7) 0.42665(11)
S2 S 0.88361(10) 0.87806(7) 0.56716(11)
O1 O 0.8771(3) 0.7676(2) 0.3680(3)
O2 O 0.1073(3) 0.7277(2) 0.6159(3)
O3 O 0.3917(3) 0.7665(2) 0.5637(4)
O4 O 1.1078(3) 0.5895(2) 0.3432(3)
N1 N 0.1743(3) 0.7744(2) 0.6480(3)
O5 O 1.1976(3) 0.6505(2) 0.4761(3)
C1 C 1.0880(4) 0.5613(3) 0.4995(4)
O6 O 1.0392(3) 0.6711(2) 0.4111(3)
C2 C 0.7402(4) 0.7315(3) 0.3752(4)
H1 H 0.7426 0.7646 0.4176
C3 C 1.0092(4) 0.5222(3) 0.4684(4)
C4 C 0.2427(4) 0.7715(3) 0.6164(4)
H2 H 0.2449 0.7389 0.5749
C5 C 1.1451(4) 0.5561(3) 0.5873(4)
H3 H 1.1967 0.5817 0.6059
N2 N 0.8083(3) 0.7237(3) 0.3404(3)
O7 O 0.4378(4) 0.8661(3) 0.6275(4)
C6 C 0.6657(5) 0.6407(4) 0.2834(5)
H4 H 0.6177 0.6116 0.2643
C7 C 0.8069(5) 0.6772(4) 0.2787(4)
H5 H 0.8542 0.6732 0.2564
C8 C 1.1265(4) 0.5130(3) 0.6489(4)
H6 H 1.1655 0.5101 0.7083
C9 C 0.3869(4) 0.8168(4) 0.6093(5)
C10 C 0.9479(4) 0.5246(3) 0.3776(4)
H7 H 0.9597 0.5527 0.3356
C11 C 0.3104(4) 0.8182(3) 0.6470(4)
C12 C 0.2355(4) 0.8645(4) 0.7419(5)
H8 H 0.2323 0.8957 0.7848
C13 C 0.3066(4) 0.8648(3) 0.7108(5)
H9 H 0.3517 0.8960 0.7324
C14 C 0.1701(4) 0.8192(3) 0.7109(4)
H10 H 0.1223 0.8188 0.7327
C15 C 0.6683(4) 0.6892(3) 0.3459(4)
C16 C 0.7352(5) 0.6354(4) 0.2486(5)
H11 H 0.7331 0.6034 0.2048
O8 O 0.9522(3) 0.8266(2) 0.5790(3)
O9 O 0.8872(3) 0.9078(2) 0.6518(3)
O10 O 0.7965(3) 0.8523(2) 0.5142(3)
C17 C 0.9886(4) 0.9779(3) 0.5309(4)
C18 C 1.0523(4) 0.8274(3) 0.4433(4)
H12 H 1.0069 0.8608 0.4180
H13 H 1.0972 0.8475 0.4949
C19 C 0.9105(4) 0.9389(3) 0.4981(4)
C20 C 1.1209(4) 1.0135(3) 0.6510(4)
H14 H 1.1579 1.0111 0.7113
C21 C 0.9320(4) 0.6695(3) 0.5418(5)
H15 H 0.8905 0.6477 0.4893
H16 H 0.9780 0.6374 0.5709
C22 C 1.0467(4) 0.9755(3) 0.6224(4)
H17 H 1.0335 0.9472 0.6635
C23 C 0.5949(4) 0.6975(4) 0.3864(5)
O11 O 0.5376(4) 0.6547(3) 0.3752(4)
C24 C 0.8574(4) 0.9433(3) 0.4098(4)
H18 H 0.8062 0.9176 0.3892
C25 C 1.0948(5) 0.8114(3) 0.3729(5)
H19 H 1.0535 0.7855 0.3246
H20 H 1.1473 0.7843 0.4004
C26 C 0.8828(5) 0.6849(4) 0.6072(5)
H21 H 0.8307 0.7112 0.5758
H22 H 0.9209 0.7117 0.6565
O12 O 0.5982(3) 0.7506(2) 0.4334(4)
C27 C 1.1215(5) 0.8735(4) 0.3320(5)
H23 H 1.1433 0.8605 0.2831
H24 H 1.0694 0.9012 0.3060
C28 C 0.8539(6) 0.6241(4) 0.6467(6)
H25 H 0.9060 0.5974 0.6772
H26 H 0.8282 0.6382 0.6922
C29 C 1.1927(6) 0.9135(4) 0.4014(6)
H27 H 1.1695 0.9304 0.4467
H28 H 1.2106 0.9500 0.3716
H29 H 1.2432 0.8856 0.4298
C30 C 0.3534(5) 0.8815(4) 0.2643(6)
H30 H 0.3628 0.8576 0.2142
H31 H 0.2917 0.8754 0.2602
C31 C 0.7881(6) 0.5820(4) 0.5784(7)
H32 H 0.7358 0.6077 0.5485
H33 H 0.7723 0.5447 0.6084
H34 H 0.8136 0.5664 0.5342
C32 C 0.3702(6) 0.9533(5) 0.2554(7)
H35 H 0.3665 0.9767 0.3077
H36 H 0.3265 0.9706 0.2016
H37 H 0.4285 0.9591 0.2509
O13 O 0.5482(3) 0.8284(3) 0.5543(4)
O14 O 0.3698(4) 0.6450(3) 0.4623(5)
H38 H 0.3283 0.6545 0.4803
C33 C 0.3943(5) 0.7809(4) 0.3672(5)
H39 H 0.3970 0.7553 0.3154
H40 H 0.3345 0.7772 0.3698
C34 C 0.5702(6) 0.6774(6) 0.5933(6)
H41 H 0.5690 0.6336 0.5668
H42 H 0.6306 0.6938 0.6082
C35 C 0.3823(8) 0.5752(4) 0.4664(8)
H43 H 0.4271 0.5636 0.4403
H44 H 0.3273 0.5537 0.4330
H45 H 0.4008 0.5609 0.5287
C36 C 0.4136(5) 0.8519(4) 0.3542(6)
H46 H 0.4750 0.8557 0.3565
H47 H 0.4068 0.8777 0.4041
C37 C 0.6259(7) 0.6274(5) 0.7456(6)
H48 H 0.6837 0.6450 0.7493
H49 H 0.6197 0.6319 0.8053
C38 C 0.5530(7) 0.6689(5) 0.6768(6)
H50 H 0.4960 0.6471 0.6649
H51 H 0.5496 0.7122 0.7028
C39 C 0.6224(7) 0.5575(5) 0.7221(7)
H52 H 0.5625 0.5416 0.7082
H53 H 0.6611 0.5329 0.7725
H54 H 0.6412 0.5518 0.6700
Sn1_2 Sn 1.48656(3) 0.74062(3) 0.48891(3)
Sn1_3 Sn -0.51344(3) 0.74062(3) 0.48891(3)
Sn2_2 Sn -0.00722(3) 0.748050(18) 0.49302(3)
Sn2B Sn 1.00722(3) 0.251950(18) 0.50698(3)
Sn2B_2 Sn 1.00722(3) 1.251950(18) 0.50698(3)
S1B S 0.88855(10) 0.37839(7) 0.57335(11)
S2B S 1.11639(10) 1.12194(7) 0.43284(11)
O1_2 O -0.1229(3) 0.7676(2) 0.3680(3)
O2_2 O 1.1073(3) 0.7277(2) 0.6159(3)
O3_2 O 1.3917(3) 0.7665(2) 0.5637(4)
O4B O 0.8922(3) 0.4105(2) 0.6568(3)
N1_2 N 1.1743(3) 0.7744(2) 0.6480(3)
O5B O 0.8024(3) 0.3495(2) 0.5239(3)
C1B C 0.9120(4) 0.4387(3) 0.5005(4)
O6B O 0.9608(3) 0.3289(2) 0.5889(3)
O6_2 O 0.0392(3) 0.6711(2) 0.4111(3)
C2_2 C -0.2598(4) 0.7315(3) 0.3752(4)
H1_2 H -0.2574 0.7646 0.4176
C3B C 0.9908(4) 0.4778(3) 0.5316(4)
C4_2 C 1.2427(4) 0.7715(3) 0.6164(4)
H2_2 H 1.2449 0.7389 0.5749
C5B C 0.8549(4) 0.4439(3) 0.4127(4)
H3B H 0.8033 0.4183 0.3941
N2_2 N -0.1917(3) 0.7237(3) 0.3404(3)
O7_2 O 1.4378(4) 0.8661(3) 0.6275(4)
C6_2 C -0.3343(5) 0.6407(4) 0.2834(5)
H4_2 H -0.3823 0.6116 0.2643
C7_2 C -0.1931(5) 0.6772(4) 0.2787(4)
H5_2 H -0.1458 0.6732 0.2564
C8B C 0.8735(4) 0.4870(3) 0.3511(4)
H6B H 0.8345 0.4899 0.2917
C9_2 C 1.3869(4) 0.8168(4) 0.6093(5)
C10B C 1.0521(4) 0.4754(3) 0.6224(4)
H7B H 1.0403 0.4473 0.6644
C11_2 C 1.3104(4) 0.8182(3) 0.6470(4)
C12_2 C 1.2355(4) 0.8645(4) 0.7419(5)
H8_2 H 1.2323 0.8957 0.7848
C13_2 C 1.3066(4) 0.8648(3) 0.7108(5)
H9_2 H 1.3517 0.8960 0.7324
C14_2 C 1.1701(4) 0.8192(3) 0.7109(4)
H10_2 H 1.1223 0.8188 0.7327
C15_2 C -0.3317(4) 0.6892(3) 0.3459(4)
C16_2 C -0.2648(5) 0.6354(4) 0.2486(5)
H11_2 H -0.2669 0.6034 0.2048
O8B O 1.0478(3) 1.1734(2) 0.4210(3)
O8_2 O -0.0478(3) 0.8266(2) 0.5790(3)
O9B O 1.1128(3) 1.0922(2) 0.3482(3)
O10B O 1.2035(3) 1.1477(2) 0.4858(3)
C17B C 1.0114(4) 1.0221(3) 0.4691(4)
C18_2 C 0.0523(4) 0.8274(3) 0.4433(4)
H12_2 H 0.0069 0.8608 0.4180
H13_2 H 0.0972 0.8475 0.4949
C19B C 1.0895(4) 1.0611(3) 0.5019(4)
C20B C 0.8791(4) 0.9865(3) 0.3490(4)
H14B H 0.8421 0.9889 0.2887
C21_2 C -0.0680(4) 0.6695(3) 0.5418(5)
H15_2 H -0.1095 0.6477 0.4893
H16_2 H -0.0220 0.6374 0.5709
C22B C 0.9533(4) 1.0245(3) 0.3776(4)
H17B H 0.9665 1.0528 0.3365
C23_2 C -0.4051(4) 0.6975(4) 0.3864(5)
O11_2 O -0.4624(4) 0.6547(3) 0.3752(4)
C24B C 1.1426(4) 1.0567(3) 0.5902(4)
H18B H 1.1938 1.0824 0.6108
C25_2 C 0.0948(5) 0.8114(3) 0.3729(5)
H19_2 H 0.0535 0.7855 0.3246
H20_2 H 0.1473 0.7843 0.4004
C26_2 C -0.1172(5) 0.6849(4) 0.6072(5)
H21_2 H -0.1693 0.7112 0.5758
H22_2 H -0.0791 0.7117 0.6565
O12_2 O -0.4018(3) 0.7506(2) 0.4334(4)
O12_3 O 1.5982(3) 0.7506(2) 0.4334(4)
C27_2 C 0.1215(5) 0.8735(4) 0.3320(5)
H23_2 H 0.1433 0.8605 0.2831
H24_2 H 0.0694 0.9012 0.3060
C28_2 C -0.1461(6) 0.6241(4) 0.6467(6)
H25_2 H -0.0940 0.5974 0.6772
H26_2 H -0.1718 0.6382 0.6922
C29_2 C 0.1927(6) 0.9135(4) 0.4014(6)
H27_2 H 0.1695 0.9304 0.4467
H28_2 H 0.2106 0.9500 0.3716
H29_2 H 0.2432 0.8856 0.4298
C30_2 C 1.3534(5) 0.8815(4) 0.2643(6)
H30_2 H 1.3628 0.8576 0.2142
H31_2 H 1.2917 0.8754 0.2602
C31_2 C -0.2119(6) 0.5820(4) 0.5784(7)
H32_2 H -0.2642 0.6077 0.5485
H33_2 H -0.2277 0.5447 0.6084
H34_2 H -0.1864 0.5664 0.5342
C32_2 C 1.3702(6) 0.9533(5) 0.2554(7)
H35_2 H 1.3665 0.9767 0.3077
H36_2 H 1.3265 0.9706 0.2016
H37_2 H 1.4285 0.9591 0.2509
O13_2 O 1.5482(3) 0.8284(3) 0.5543(4)
O14_2 O 1.3698(4) 0.6450(3) 0.4623(5)
H38_2 H 1.3283 0.6545 0.4803
C33_2 C 1.3943(5) 0.7809(4) 0.3672(5)
H39_2 H 1.3970 0.7553 0.3154
H40_2 H 1.3345 0.7772 0.3698
C34_2 C 1.5702(6) 0.6774(6) 0.5933(6)
H41_2 H 1.5690 0.6336 0.5668
H42_2 H 1.6306 0.6938 0.6082
C35_2 C 1.3823(8) 0.5752(4) 0.4664(8)
H43_2 H 1.4271 0.5636 0.4403
H44_2 H 1.3273 0.5537 0.4330
H45_2 H 1.4008 0.5609 0.5287
C36_2 C 1.4136(5) 0.8519(4) 0.3542(6)
H46_2 H 1.4750 0.8557 0.3565
H47_2 H 1.4068 0.8777 0.4041
C37_2 C 1.6259(7) 0.6274(5) 0.7456(6)
H48_2 H 1.6837 0.6450 0.7493
H49_2 H 1.6197 0.6319 0.8053
C38_2 C 1.5530(7) 0.6689(5) 0.6768(6)
H50_2 H 1.4960 0.6471 0.6649
H51_2 H 1.5496 0.7122 0.7028
C39_2 C 1.6224(7) 0.5575(5) 0.7221(7)
H52_2 H 1.5625 0.5416 0.7082
H53_2 H 1.6611 0.5329 0.7725
H54_2 H 1.6412 0.5518 0.6700
O15 O 0.6445(5) 0.9149(4) 0.5109(7)
C40 C 0.6255(7) 0.9757(6) 0.4739(9)
H55 H 0.5921 1.0001 0.5048
H56 H 0.5909 0.9716 0.4106
H57 H 0.6798 0.9989 0.4798
loop_
_geom_bond_atom_site_label_1
_geom_bond_atom_site_label_2
_geom_bond_site_symmetry_1
_geom_bond_site_symmetry_2
Sn1 O3 1_555 1_555
Sn2 O1 1_555 1_555
S1 O4 1_555 1_555
S2 O8 1_555 1_555
O1 N2 1_555 1_555
O2 N1 1_555 1_555
O3 C9 1_555 1_555
N1 C4 1_555 1_555
O5 S1 1_555 1_555
C1 S1 1_555 1_555
O6 Sn2 1_555 1_555
C2 H1 1_555 1_555
C3 C1 1_555 1_555
C4 H2 1_555 1_555
C5 C1 1_555 1_555
H3 C5 1_555 1_555
N2 C2 1_555 1_555
O7 C9 1_555 1_555
C6 H4 1_555 1_555
C7 N2 1_555 1_555
H5 C7 1_555 1_555
C8 C5 1_555 1_555
H6 C8 1_555 1_555
C9 C11 1_555 1_555
C10 C3 1_555 1_555
H7 C10 1_555 1_555
C11 C4 1_555 1_555
C12 H8 1_555 1_555
C13 C11 1_555 1_555
H9 C13 1_555 1_555
C14 N1 1_555 1_555
H10 C14 1_555 1_555
C15 C2 1_555 1_555
C16 C6 1_555 1_555
H11 C16 1_555 1_555
O8 Sn2 1_555 1_555
O9 S2 1_555 1_555
O10 S2 1_555 1_555
C17 C19 1_555 1_555
C18 Sn2 1_555 1_555
H12 C18 1_555 1_555
H13 C18 1_555 1_555
C19 S2 1_555 1_555
C20 H14 1_555 1_555
C21 Sn2 1_555 1_555
H15 C21 1_555 1_555
H16 C21 1_555 1_555
C22 C17 1_555 1_555
H17 C22 1_555 1_555
C23 C15 1_555 1_555
O11 C23 1_555 1_555
C24 C19 1_555 1_555
H18 C24 1_555 1_555
C25 C18 1_555 1_555
H19 C25 1_555 1_555
H20 C25 1_555 1_555
C26 C21 1_555 1_555
H21 C26 1_555 1_555
H22 C26 1_555 1_555
O12 Sn1 1_555 1_555
C27 C25 1_555 1_555
H23 C27 1_555 1_555
H24 C27 1_555 1_555
C28 C26 1_555 1_555
H25 C28 1_555 1_555
H26 C28 1_555 1_555
C29 C27 1_555 1_555
H27 C29 1_555 1_555
H28 C29 1_555 1_555
H29 C29 1_555 1_555
C30 H30 1_555 1_555
H31 C30 1_555 1_555
C31 C28 1_555 1_555
H32 C31 1_555 1_555
H33 C31 1_555 1_555
H34 C31 1_555 1_555
C32 C30 1_555 1_555
H35 C32 1_555 1_555
H36 C32 1_555 1_555
H37 C32 1_555 1_555
O13 Sn1 1_555 1_555
O14 Sn1 1_555 1_555
H38 O14 1_555 1_555
C33 Sn1 1_555 1_555
H39 C33 1_555 1_555
H40 C33 1_555 1_555
C34 Sn1 1_555 1_555
H41 C34 1_555 1_555
H42 C34 1_555 1_555
C35 O14 1_555 1_555
H43 C35 1_555 1_555
H44 C35 1_555 1_555
H45 C35 1_555 1_555
C36 C30 1_555 1_555
H46 C36 1_555 1_555
H47 C36 1_555 1_555
C37 H48 1_555 1_555
H49 C37 1_555 1_555
C38 C34 1_555 1_555
H50 C38 1_555 1_555
H51 C38 1_555 1_555
C39 C37 1_555 1_555
H52 C39 1_555 1_555
H53 C39 1_555 1_555
H54 C39 1_555 1_555
O15 C40 1_555 1_555
C40 H55 1_555 1_555
H56 C40 1_555 1_555
H57 C40 1_555 1_555
Sn1_2 O3_2 1_555 1_555
Sn1_3 O12_2 1_555 1_555
Sn2_2 O2 1_555 1_555
Sn2B O6B 1_555 1_555
Sn2B_2 O8B 1_555 1_555
S1B O4B 1_555 1_555
S2B O8B 1_555 1_555
O1_2 Sn2_2 1_555 1_555
O2_2 Sn2 1_555 1_555
O3_2 C9_2 1_555 1_555
N1_2 O2_2 1_555 1_555
O5B S1B 1_555 1_555
C1B S1B 1_555 1_555
O6B S1B 1_555 1_555
O6_2 Sn2_2 1_555 1_555
C2_2 H1_2 1_555 1_555
C3B C3 1_555 1_555
C4_2 N1_2 1_555 1_555
H2_2 C4_2 1_555 1_555
C5B C1B 1_555 1_555
H3B C5B 1_555 1_555
N2_2 O1_2 1_555 1_555
O7_2 C9_2 1_555 1_555
C6_2 H4_2 1_555 1_555
C7_2 N2_2 1_555 1_555
H5_2 C7_2 1_555 1_555
C8B C10 1_555 1_555
H6B C8B 1_555 1_555
C9_2 C11_2 1_555 1_555
C10B C8 1_555 1_555
H7B C10B 1_555 1_555
C11_2 C4_2 1_555 1_555
C12_2 H8_2 1_555 1_555
C13_2 C11_2 1_555 1_555
H9_2 C13_2 1_555 1_555
C14_2 N1_2 1_555 1_555
H10_2 C14_2 1_555 1_555
C15_2 C2_2 1_555 1_555
C16_2 C6_2 1_555 1_555
H11_2 C16_2 1_555 1_555
O8_2 Sn2_2 1_555 1_555
O9B S2B 1_555 1_555
O10B S2B 1_555 1_555
C17B C17 1_555 1_555
C18_2 Sn2_2 1_555 1_555
H12_2 C18_2 1_555 1_555
H13_2 C18_2 1_555 1_555
C19B S2B 1_555 1_555
C20B C24 1_555 1_555
H14B C20B 1_555 1_555
C21_2 Sn2_2 1_555 1_555
H15_2 C21_2 1_555 1_555
H16_2 C21_2 1_555 1_555
C22B C17B 1_555 1_555
H17B C22B 1_555 1_555
C23_2 C15_2 1_555 1_555
O11_2 C23_2 1_555 1_555
C24B C20 1_555 1_555
H18B C24B 1_555 1_555
C25_2 C18_2 1_555 1_555
H19_2 C25_2 1_555 1_555
H20_2 C25_2 1_555 1_555
C26_2 C21_2 1_555 1_555
H21_2 C26_2 1_555 1_555
H22_2 C26_2 1_555 1_555
O12_2 C23_2 1_555 1_555
O12_3 Sn1_2 1_555 1_555
C27_2 C25_2 1_555 1_555
H23_2 C27_2 1_555 1_555
H24_2 C27_2 1_555 1_555
C28_2 C26_2 1_555 1_555
H25_2 C28_2 1_555 1_555
H26_2 C28_2 1_555 1_555
C29_2 C27_2 1_555 1_555
H27_2 C29_2 1_555 1_555
H28_2 C29_2 1_555 1_555
H29_2 C29_2 1_555 1_555
C30_2 H30_2 1_555 1_555
H31_2 C30_2 1_555 1_555
C31_2 C28_2 1_555 1_555
H32_2 C31_2 1_555 1_555
H33_2 C31_2 1_555 1_555
H34_2 C31_2 1_555 1_555
C32_2 C30_2 1_555 1_555
H35_2 C32_2 1_555 1_555
H36_2 C32_2 1_555 1_555
H37_2 C32_2 1_555 1_555
O13_2 Sn1_2 1_555 1_555
O14_2 Sn1_2 1_555 1_555
H38_2 O14_2 1_555 1_555
C33_2 Sn1_2 1_555 1_555
H39_2 C33_2 1_555 1_555
H40_2 C33_2 1_555 1_555
C34_2 Sn1_2 1_555 1_555
H41_2 C34_2 1_555 1_555
H42_2 C34_2 1_555 1_555
C35_2 O14_2 1_555 1_555
H43_2 C35_2 1_555 1_555
H44_2 C35_2 1_555 1_555
H45_2 C35_2 1_555 1_555
C36_2 C30_2 1_555 1_555
H46_2 C36_2 1_555 1_555
H47_2 C36_2 1_555 1_555
C37_2 H48_2 1_555 1_555
H49_2 C37_2 1_555 1_555
C38_2 C34_2 1_555 1_555
H50_2 C38_2 1_555 1_555
H51_2 C38_2 1_555 1_555
C39_2 C37_2 1_555 1_555
H52_2 C39_2 1_555 1_555
H53_2 C39_2 1_555 1_555
H54_2 C39_2 1_555 1_555
S1 O6 1_555 1_555
C6 C15 1_555 1_555
C7 C16 1_555 1_555
C12 C13 1_555 1_555
C12 C14 1_555 1_555
C20 C22 1_555 1_555
C23 O12 1_555 1_555
C33 C36 1_555 1_555
C37 C38 1_555 1_555
C1B C3B 1_555 1_555
C2_2 N2_2 1_555 1_555
C3B C10B 1_555 1_555
C5B C8B 1_555 1_555
C6_2 C15_2 1_555 1_555
C7_2 C16_2 1_555 1_555
C12_2 C13_2 1_555 1_555
C12_2 C14_2 1_555 1_555
C17B C19B 1_555 1_555
C19B C24B 1_555 1_555
C20B C22B 1_555 1_555
C33_2 C36_2 1_555 1_555
C37_2 C38_2 1_555 1_555

#END
