
#######################################################################
#
#                 Cambridge Crystallographic Data Centre
#                                CCDC 
#
#######################################################################
#
# If this CIF has been generated from an entry in the Cambridge 
# Structural Database, then it will include bibliographic, chemical, 
# crystal, experimental, refinement or atomic coordinate data resulting 
# from the CCDC's data processing and validation procedures.
#
#######################################################################

data_QURXEG
_symmetry_cell_setting           orthorhombic
_symmetry_space_group_name_H-M   'P c a 21'
_symmetry_Int_Tables_number      29
_space_group_name_Hall           'P 2c -2ac'
loop_
_symmetry_equiv_pos_site_id
_symmetry_equiv_pos_as_xyz
1 x,y,z
2 -x,-y,1/2+z
3 1/2+x,-y,z
4 1/2-x,y,1/2+z
_cell_length_a                   11.717(4)
_cell_length_b                   11.741(6)
_cell_length_c                   10.478(7)
_cell_angle_alpha                90
_cell_angle_beta                 90
_cell_angle_gamma                90
_cell_volume                     1441.45
loop_
_atom_site_label
_atom_site_type_symbol
_atom_site_fract_x
_atom_site_fract_y
_atom_site_fract_z
Ag1 Ag 0.10365(3) 0.10073(4) -0.00004(10)
O1 O -0.0617(7) 0.2339(6) 0.0359(8)
O2 O 0.0659(7) 0.2480(8) 0.1876(11)
N1 N 0.0975(4) 0.1277(5) -0.2251(5)
N2 N 0.0525(6) 0.2558(5) -0.3964(5)
N3 N 0.2090(4) 0.1210(4) -0.4207(5)
N4 N 0.0103(4) 0.0547(5) -0.4224(4)
C1 C 0.2089(6) 0.1063(5) -0.2810(5)
H1 H 0.2327 0.0303 -0.2605
H2 H 0.2631 0.1581 -0.2442
C2 C 0.0575(7) 0.2390(6) -0.2597(7)
H3 H 0.1076 0.2949 -0.2232
H4 H -0.0171 0.2503 -0.2239
C3 C 0.0176(5) 0.0423(6) -0.2806(5)
H5 H -0.0568 0.0530 -0.2441
H6 H 0.0428 -0.0333 -0.2599
C4 C 0.1265(5) 0.0373(5) -0.4733(5)
H7 H 0.1513 -0.0385 -0.4529
H8 H 0.1245 0.0441 -0.5646
C5 C -0.0248(5) 0.1706(6) -0.4508(7)
H9 H -0.0261 0.1803 -0.5418
H10 H -0.1008 0.1830 -0.4195
C6 C 0.1646(5) 0.2361(5) -0.4491(7)
H11 H 0.2164 0.2916 -0.4147
H12 H 0.1615 0.2468 -0.5398
C7 C -0.0268(7) 0.2746(6) 0.1357(10)
C8 C -0.1022(6) 0.3581(7) 0.2053(8)
C9 C -0.0628(8) 0.4083(7) 0.3203(10)
H13 H 0.0124 0.3931 0.3523
C10 C -0.1380(10) 0.4815(8) 0.3853(12)
H14 H -0.1144 0.5143 0.4650
C11 C -0.2420(11) 0.5054(7) 0.3389(11)
H15 H -0.2909 0.5565 0.3849
C12 C -0.2773(8) 0.4582(8) 0.2282(10)
H16 H -0.3514 0.4774 0.1955
C13 C -0.2089(5) 0.3853(4) 0.1616(5)
H17 H -0.2363 0.3510 0.0843
N3C N 0.2910(4) 0.1210(4) 0.0793(5)
N4A N -0.0103(4) -0.0547(5) 0.0776(4)
Ag1C Ag 0.39635(3) 0.10073(4) -0.50004(10)
Ag1A Ag -0.10365(3) -0.10073(4) -0.50004(10)
O3 O -0.2300(5) 0.1713(4) -0.1379(5)
H18 H -0.1704 0.1938 -0.0762
H19 H -0.1934 0.1332 -0.2111
loop_
_geom_bond_atom_site_label_1
_geom_bond_atom_site_label_2
_geom_bond_site_symmetry_1
_geom_bond_site_symmetry_2
Ag1 O1 1_555 1_555
O1 C7 1_555 1_555
O2 C7 1_555 1_555
N1 Ag1 1_555 1_555
N2 C2 1_555 1_555
N3 C1 1_555 1_555
N4 C3 1_555 1_555
C1 N1 1_555 1_555
H1 C1 1_555 1_555
H2 C1 1_555 1_555
C2 N1 1_555 1_555
H3 C2 1_555 1_555
H4 C2 1_555 1_555
C3 N1 1_555 1_555
H5 C3 1_555 1_555
H6 C3 1_555 1_555
C4 N3 1_555 1_555
H7 C4 1_555 1_555
H8 C4 1_555 1_555
C5 N2 1_555 1_555
H9 C5 1_555 1_555
H10 C5 1_555 1_555
C6 N2 1_555 1_555
H11 C6 1_555 1_555
H12 C6 1_555 1_555
C7 C8 1_555 1_555
C8 C9 1_555 1_555
C9 H13 1_555 1_555
C10 C9 1_555 1_555
H14 C10 1_555 1_555
C11 C10 1_555 1_555
H15 C11 1_555 1_555
C12 C11 1_555 1_555
H16 C12 1_555 1_555
C13 C8 1_555 1_555
H17 C13 1_555 1_555
O3 H18 1_555 1_555
H19 O3 1_555 1_555
N3C Ag1 1_555 1_555
N4A Ag1 1_555 1_555
Ag1C N3 1_555 1_555
Ag1A N4 1_555 1_555
N3 C6 1_555 1_555
N4 C4 1_555 1_555
N4 C5 1_555 1_555
C12 C13 1_555 1_555

#END
