
#######################################################################
#
#                 Cambridge Crystallographic Data Centre
#                                CCDC 
#
#######################################################################
#
# If this CIF has been generated from an entry in the Cambridge 
# Structural Database, then it will include bibliographic, chemical, 
# crystal, experimental, refinement or atomic coordinate data resulting 
# from the CCDC's data processing and validation procedures.
#
#######################################################################

data_QURXAC
_symmetry_cell_setting           orthorhombic
_symmetry_space_group_name_H-M   'P b c a'
_symmetry_Int_Tables_number      61
_space_group_name_Hall           '-P 2ac 2ab'
loop_
_symmetry_equiv_pos_site_id
_symmetry_equiv_pos_as_xyz
1 x,y,z
2 1/2+x,y,1/2-z
3 x,1/2-y,1/2+z
4 1/2-x,1/2+y,z
5 -x,-y,-z
6 1/2-x,-y,1/2+z
7 -x,1/2+y,1/2-z
8 1/2+x,1/2-y,-z
_cell_length_a                   11.488(3)
_cell_length_b                   10.395(3)
_cell_length_c                   19.527(7)
_cell_angle_alpha                90
_cell_angle_beta                 90
_cell_angle_gamma                90
_cell_volume                     2331.87
loop_
_atom_site_label
_atom_site_type_symbol
_atom_site_fract_x
_atom_site_fract_y
_atom_site_fract_z
Ag1 Ag 0.59658(3) 0.21944(4) 0.31298(2)
O1 O 0.4247(4) 0.2540(4) 0.3896(2)
O2 O 0.5301(4) 0.4313(4) 0.3909(2)
O3 O 0.2245(4) 0.6125(4) 0.4475(2)
H1 H 0.1749 0.6471 0.4097
O4 O 0.2627(4) 0.5153(4) 0.3487(2)
N1 N 0.7866(4) 0.2977(4) 0.3265(2)
N2 N 0.9871(4) 0.2949(4) 0.2833(2)
N3 N 0.9035(3) 0.4924(4) 0.3308(2)
N4 N 0.9502(4) 0.3145(4) 0.4059(2)
C1 C 0.4430(5) 0.3692(5) 0.4080(3)
C2 C 0.3516(5) 0.4374(6) 0.4512(3)
H2 H 0.3899 0.4863 0.4863
H3 H 0.3032 0.3745 0.4731
C3 C 0.2759(4) 0.5254(5) 0.4097(3)
C4 C 0.8674(5) 0.2447(5) 0.2749(3)
H4 H 0.8393 0.2660 0.2300
H5 H 0.8688 0.1526 0.2787
C5 C 0.8326(5) 0.2633(5) 0.3958(3)
H6 H 0.8341 0.1714 0.4005
H7 H 0.7816 0.2973 0.4303
C6 C 0.7859(4) 0.4376(5) 0.3210(3)
H8 H 0.7341 0.4726 0.3548
H9 H 0.7572 0.4616 0.2766
C7 C 1.0269(5) 0.2608(5) 0.3539(3)
H10 H 1.1044 0.2927 0.3610
H11 H 1.0288 0.1688 0.3585
C8 C 0.9816(4) 0.4375(5) 0.2783(3)
H12 H 0.9542 0.4615 0.2337
H13 H 1.0584 0.4723 0.2841
C9 C 0.9459(5) 0.4547(5) 0.3998(3)
H14 H 0.8956 0.4898 0.4343
H15 H 1.0227 0.4888 0.4068
N2A N 0.4871(4) 0.2949(4) 0.2167(2)
N3C N 0.5965(3) -0.0076(4) 0.3308(2)
Ag1A Ag 1.09658(3) 0.21944(4) 0.18702(2)
Ag1C Ag 0.90342(3) 0.71944(4) 0.31298(2)
loop_
_geom_bond_atom_site_label_1
_geom_bond_atom_site_label_2
_geom_bond_site_symmetry_1
_geom_bond_site_symmetry_2
Ag1 O1 1_555 1_555
O1 C1 1_555 1_555
O2 C1 1_555 1_555
O3 H1 1_555 1_555
O4 C3 1_555 1_555
N1 Ag1 1_555 1_555
N2 C4 1_555 1_555
N3 C6 1_555 1_555
N4 C5 1_555 1_555
C1 C2 1_555 1_555
C2 H2 1_555 1_555
H3 C2 1_555 1_555
C3 O3 1_555 1_555
C4 N1 1_555 1_555
H4 C4 1_555 1_555
H5 C4 1_555 1_555
C5 N1 1_555 1_555
H6 C5 1_555 1_555
H7 C5 1_555 1_555
C6 N1 1_555 1_555
H8 C6 1_555 1_555
H9 C6 1_555 1_555
C7 N2 1_555 1_555
H10 C7 1_555 1_555
H11 C7 1_555 1_555
C8 N2 1_555 1_555
H12 C8 1_555 1_555
H13 C8 1_555 1_555
C9 N3 1_555 1_555
H14 C9 1_555 1_555
H15 C9 1_555 1_555
N2A Ag1 1_555 1_555
N3C Ag1 1_555 1_555
Ag1A N2 1_555 1_555
Ag1C N3 1_555 1_555
N3 C8 1_555 1_555
N4 C7 1_555 1_555
N4 C9 1_555 1_555
C2 C3 1_555 1_555

#END
