
#######################################################################
#
#                 Cambridge Crystallographic Data Centre
#                                CCDC 
#
#######################################################################
#
# If this CIF has been generated from an entry in the Cambridge 
# Structural Database, then it will include bibliographic, chemical, 
# crystal, experimental, refinement or atomic coordinate data resulting 
# from the CCDC's data processing and validation procedures.
#
#######################################################################

data_QURXIK
_symmetry_cell_setting           orthorhombic
_symmetry_space_group_name_H-M   'P b c a'
_symmetry_Int_Tables_number      61
_space_group_name_Hall           '-P 2ac 2ab'
loop_
_symmetry_equiv_pos_site_id
_symmetry_equiv_pos_as_xyz
1 x,y,z
2 1/2+x,y,1/2-z
3 x,1/2-y,1/2+z
4 1/2-x,1/2+y,z
5 -x,-y,-z
6 1/2-x,-y,1/2+z
7 -x,1/2+y,1/2-z
8 1/2+x,1/2-y,-z
_cell_length_a                   11.620(6)
_cell_length_b                   10.807(5)
_cell_length_c                   23.145(12)
_cell_angle_alpha                90
_cell_angle_beta                 90
_cell_angle_gamma                90
_cell_volume                     2906.49
loop_
_atom_site_label
_atom_site_type_symbol
_atom_site_fract_x
_atom_site_fract_y
_atom_site_fract_z
Ag1 Ag 0.11325(5) 0.16367(6) 0.20759(3)
N1 N 0.1008(5) 0.3764(5) 0.1922(3)
N2 N 0.2053(5) 0.5731(6) 0.1910(3)
N3 N 0.0560(6) 0.5327(6) 0.1201(3)
N4 N 0.0036(5) 0.5679(6) 0.2203(3)
C1 C 0.0152(6) 0.4330(6) 0.2306(4)
H2 H 0.0355 0.4187 0.2703
H3 H -0.0578 0.3942 0.2236
C2 C 0.0651(7) 0.4017(8) 0.1320(4)
H4 H -0.0092 0.3651 0.1259
H5 H 0.1185 0.3640 0.1057
C3 C 0.2119(6) 0.4375(6) 0.2019(4)
H6 H 0.2671 0.4042 0.1753
H7 H 0.2395 0.4224 0.2403
C4 C 0.1674(7) 0.5900(8) 0.1306(4)
H8 H 0.1607 0.6767 0.1222
H9 H 0.2245 0.5551 0.1054
C5 C -0.0290(6) 0.5863(7) 0.1599(4)
H10 H -0.0328 0.6736 0.1526
H11 H -0.1036 0.5512 0.1528
C6 C 0.1173(6) 0.6238(7) 0.2301(4)
H12 H 0.1399 0.6098 0.2695
H13 H 0.1110 0.7114 0.2241
C7 C -0.0417(9) 0.0583(9) 0.1128(4)
C8 C -0.1018(7) -0.0239(8) 0.0724(3)
C9 C -0.0495(9) -0.1296(8) 0.0523(4)
C10 C -0.1095(13) -0.2152(10) 0.0183(5)
H14 H -0.0711 -0.2883 0.0048
C11 C -0.2195(15) -0.1895(12) 0.0043(5)
H15 H -0.2615 -0.2492 -0.0180
C12 C -0.2726(9) -0.0829(12) 0.0214(5)
H16 H -0.3493 -0.0653 0.0083
C13 C -0.2150(9) -0.0036(10) 0.0567(4)
H17 H -0.2534 0.0680 0.0718
O2 O 0.0584(6) 0.0305(8) 0.1267(3)
O3 O -0.0914(7) 0.1488(7) 0.1333(3)
O4 O 0.0611(6) -0.1570(7) 0.0657(3)
H18 H 0.0890 -0.1005 0.0924
N2C N 0.2947(5) 0.0731(6) 0.1910(3)
N4F N -0.0036(5) 0.0679(6) 0.2797(3)
Ag1C Ag 0.38675(5) 0.66367(6) 0.20759(3)
Ag1F Ag -0.11325(5) 0.66367(6) 0.29241(3)
O1 O -0.2559(6) 0.3077(6) 0.1703(3)
H1 H -0.2248 0.2449 0.1560
H19 H -0.3004 0.3842 0.1691
loop_
_geom_bond_atom_site_label_1
_geom_bond_atom_site_label_2
_geom_bond_site_symmetry_1
_geom_bond_site_symmetry_2
Ag1 N1 1_555 1_555
N1 C1 1_555 1_555
N2 C3 1_555 1_555
N3 C2 1_555 1_555
N4 C1 1_555 1_555
O1 H1 1_555 1_555
C1 H2 1_555 1_555
H3 C1 1_555 1_555
C2 N1 1_555 1_555
H4 C2 1_555 1_555
H5 C2 1_555 1_555
C3 N1 1_555 1_555
H6 C3 1_555 1_555
H7 C3 1_555 1_555
C4 N2 1_555 1_555
H8 C4 1_555 1_555
H9 C4 1_555 1_555
C5 N3 1_555 1_555
H10 C5 1_555 1_555
H11 C5 1_555 1_555
C6 N2 1_555 1_555
H12 C6 1_555 1_555
H13 C6 1_555 1_555
C7 C8 1_555 1_555
C8 C9 1_555 1_555
C9 C10 1_555 1_555
C10 H14 1_555 1_555
C11 C10 1_555 1_555
H15 C11 1_555 1_555
C12 C11 1_555 1_555
H16 C12 1_555 1_555
C13 C8 1_555 1_555
H17 C13 1_555 1_555
O2 Ag1 1_555 1_555
O3 C7 1_555 1_555
O4 C9 1_555 1_555
H18 O4 1_555 1_555
H19 O1 1_555 1_555
N2C Ag1 1_555 1_555
N4F Ag1 1_555 1_555
Ag1C N2 1_555 1_555
Ag1F N4 1_555 1_555
N3 C4 1_555 1_555
N4 C5 1_555 1_555
N4 C6 1_555 1_555
C7 O2 1_555 1_555
C12 C13 1_555 1_555

#END
