
#######################################################################
#
#                 Cambridge Crystallographic Data Centre
#                                CCDC 
#
#######################################################################
#
# If this CIF has been generated from an entry in the Cambridge 
# Structural Database, then it will include bibliographic, chemical, 
# crystal, experimental, refinement or atomic coordinate data resulting 
# from the CCDC's data processing and validation procedures.
#
#######################################################################

data_QURYUY
_symmetry_cell_setting           triclinic
_symmetry_space_group_name_H-M   'P -1'
_symmetry_Int_Tables_number      2
_space_group_name_Hall           '-P 1'
loop_
_symmetry_equiv_pos_site_id
_symmetry_equiv_pos_as_xyz
1 x,y,z
2 -x,-y,-z
_cell_length_a                   9.8277(6)
_cell_length_b                   10.7264(6)
_cell_length_c                   12.6304(7)
_cell_angle_alpha                65.838(4)
_cell_angle_beta                 76.628(4)
_cell_angle_gamma                65.879(4)
_cell_volume                     1105.45
loop_
_atom_site_label
_atom_site_type_symbol
_atom_site_fract_x
_atom_site_fract_y
_atom_site_fract_z
Ag1 Ag 0.97747(15) 0.32266(12) -0.14430(10)
C1 C 1.3019(15) -0.1699(16) 0.2504(11)
C2 C 1.2810(15) -0.1579(15) 0.1336(12)
C3 C 1.3425(16) -0.2799(15) 0.0975(12)
H1 H 1.3900 -0.3714 0.1507
C4 C 1.3344(17) -0.2677(17) -0.0135(13)
H2 H 1.3826 -0.3472 -0.0380
C5 C 1.2533(17) -0.1355(16) -0.0862(12)
C6 C 1.126(2) 0.0594(18) -0.2258(13)
H3 H 1.0842 0.1167 -0.2968
C7 C 1.1859(17) -0.0114(15) -0.0525(11)
C8 C 1.1989(16) -0.0255(15) 0.0588(11)
H4 H 1.1521 0.0544 0.0828
C9 C 0.7341(14) 0.3821(15) 0.3127(12)
C10 C 0.7487(15) 0.4887(15) 0.1947(11)
C11 C 0.6862(15) 0.6399(14) 0.1728(12)
H5 H 0.6464 0.6715 0.2356
C12 C 0.6816(17) 0.7416(16) 0.0636(13)
H6 H 0.6386 0.8409 0.0513
C13 C 0.7429(18) 0.6924(15) -0.0286(12)
C14 C 0.8236(19) 0.6579(17) -0.1932(13)
H7 H 0.8453 0.6780 -0.2728
C15 C 0.8099(17) 0.5435(16) -0.0098(12)
C16 C 0.8151(16) 0.4405(14) 0.1007(11)
H8 H 0.8614 0.3414 0.1127
C17 C 1.0198(16) 0.0556(15) 0.5091(11)
C18 C 1.4988(14) 0.0440(13) 0.4348(11)
N1 N 1.1077(14) 0.1082(13) -0.1435(10)
N2 N 1.2134(16) -0.0843(14) -0.1982(10)
H9 H 1.2391 -0.1343 -0.2428
N3 N 0.8619(15) 0.5246(13) -0.1166(10)
N4 N 0.7507(16) 0.7628(14) -0.1478(11)
H10 H 0.7157 0.8554 -0.1853
O1 O 1.2920(12) -0.0575(10) 0.2667(8)
O2 O 1.3374(11) -0.2942(10) 0.3321(7)
O3 O 0.7841(12) 0.2486(10) 0.3278(7)
O4 O 0.6728(11) 0.4227(10) 0.3996(8)
O5 O 1.1554(10) 0.0464(10) 0.4885(8)
O6 O 0.9180(10) 0.1514(10) 0.5414(9)
O7 O 1.4496(11) 0.0077(10) 0.3732(8)
O8 O 1.5464(11) 0.1491(10) 0.3984(7)
O9 O 1.5815(12) -0.3245(11) 0.4513(9)
H11 H 1.5850 -0.3900 0.4284
H12 H 1.6647 -0.3571 0.4803
O11 O 0.8934(13) 0.4064(12) -0.3600(9)
H15 H 0.9426 0.4220 -0.4265
H16 H 0.8470 0.3539 -0.3586
Tb1 Tb 1.33568(7) -0.17795(7) 0.47021(5)
Ag1A Ag 1.02253(15) -0.32266(12) 1.14430(10)
C1A C 0.6981(15) 0.1699(16) 0.7496(11)
C2A C 0.7190(15) 0.1579(15) 0.8664(12)
C3A C 0.6575(16) 0.2799(15) 0.9025(12)
H1A H 0.6100 0.3714 0.8493
C4A C 0.6656(17) 0.2677(17) 1.0135(13)
H2A H 0.6174 0.3472 1.0380
C5A C 0.7467(17) 0.1355(16) 1.0862(12)
C6A C 0.874(2) -0.0594(18) 1.2258(13)
H3A H 0.9158 -0.1167 1.2968
C7A C 0.8141(17) 0.0114(15) 1.0525(11)
C8A C 0.8011(16) 0.0255(15) 0.9412(11)
H4A H 0.8479 -0.0544 0.9172
C9A C 1.2659(14) -0.3821(15) 0.6873(12)
C10A C 1.2513(15) -0.4887(15) 0.8053(11)
C11A C 1.3138(15) -0.6399(14) 0.8272(12)
H5A H 1.3536 -0.6715 0.7644
C12A C 1.3184(17) -0.7416(16) 0.9364(13)
H6A H 1.3614 -0.8409 0.9487
C13A C 1.2571(18) -0.6924(15) 1.0286(12)
C14A C 1.1764(19) -0.6579(17) 1.1932(13)
H7A H 1.1547 -0.6780 1.2728
C15A C 1.1901(17) -0.5435(16) 1.0098(12)
C16A C 1.1849(16) -0.4405(14) 0.8993(11)
H8A H 1.1386 -0.3414 0.8873
C17A C 0.9802(16) -0.0556(15) 0.4909(11)
C18A C 1.5012(14) -0.0440(13) 0.5652(11)
N1A N 0.8923(14) -0.1082(13) 1.1435(10)
N2A N 0.7866(16) 0.0843(14) 1.1982(10)
H9A H 0.7609 0.1343 1.2428
N3A N 1.1381(15) -0.5246(13) 1.1166(10)
N4A N 1.2493(16) -0.7628(14) 1.1478(11)
H10A H 1.2843 -0.8554 1.1853
O1A O 0.7080(12) 0.0575(10) 0.7333(8)
O2A O 0.6626(11) 0.2942(10) 0.6679(7)
O3A O 1.2159(12) -0.2486(10) 0.6722(7)
O4A O 1.3272(11) -0.4227(10) 0.6004(8)
O5A O 0.8446(10) -0.0464(10) 0.5115(8)
O6A O 1.0820(10) -0.1514(10) 0.4586(9)
O7A O 1.5504(11) -0.0077(10) 0.6268(8)
O7A_2 O 0.5504(11) -0.0077(10) 0.6268(8)
O8A O 1.4536(11) -0.1491(10) 0.6016(7)
O8_2 O 0.5464(11) 0.1491(10) 0.3984(7)
O9A O 0.4185(12) 0.3245(11) 0.5487(9)
H11A H 0.4150 0.3900 0.5716
H12A H 0.3353 0.3571 0.5197
O11A O 1.1066(13) -0.4064(12) 1.3600(9)
H15A H 1.0574 -0.4220 1.4265
H16A H 1.1530 -0.3539 1.3586
Tb1A Tb 0.66432(7) 0.17795(7) 0.52979(5)
Tb1A_2 Tb 1.66432(7) 0.17795(7) 0.52979(5)
O10 O 0.1594(12) 0.3039(11) 0.5056(9)
H13 H 0.1646 0.2248 0.5018
H14 H 0.1391 0.3675 0.4384
loop_
_geom_bond_atom_site_label_1
_geom_bond_atom_site_label_2
_geom_bond_site_symmetry_1
_geom_bond_site_symmetry_2
Ag1 N1 1_555 1_555
C1 C2 1_555 1_555
C2 C3 1_555 1_555
C3 H1 1_555 1_555
C4 C3 1_555 1_555
H2 C4 1_555 1_555
C5 C4 1_555 1_555
C6 H3 1_555 1_555
C7 C5 1_555 1_555
C8 C2 1_555 1_555
H4 C8 1_555 1_555
C9 C10 1_555 1_555
C10 C11 1_555 1_555
C11 H5 1_555 1_555
C12 C11 1_555 1_555
H6 C12 1_555 1_555
C13 C12 1_555 1_555
C14 H7 1_555 1_555
C15 C13 1_555 1_555
C16 C10 1_555 1_555
H8 C16 1_555 1_555
C17 O5 1_555 1_555
C18 O7 1_555 1_555
N1 C6 1_555 1_555
N2 C5 1_555 1_555
H9 N2 1_555 1_555
N3 Ag1 1_555 1_555
N4 C13 1_555 1_555
H10 N4 1_555 1_555
O1 C1 1_555 1_555
O2 C1 1_555 1_555
O3 C9 1_555 1_555
O4 C9 1_555 1_555
O5 Tb1 1_555 1_555
O6 C17 1_555 1_555
O7 Tb1 1_555 1_555
O8 C18 1_555 1_555
O9 H11 1_555 1_555
H12 O9 1_555 1_555
O10 H13 1_555 1_555
H14 O10 1_555 1_555
O11 Ag1 1_555 1_555
H15 O11 1_555 1_555
H16 O11 1_555 1_555
Tb1 O1 1_555 1_555
Ag1A N1A 1_555 1_555
C1A C2A 1_555 1_555
C2A C3A 1_555 1_555
C3A H1A 1_555 1_555
C4A C3A 1_555 1_555
H2A C4A 1_555 1_555
C5A C4A 1_555 1_555
C6A H3A 1_555 1_555
C7A C5A 1_555 1_555
C8A C2A 1_555 1_555
H4A C8A 1_555 1_555
C9A C10A 1_555 1_555
C10A C11A 1_555 1_555
C11A H5A 1_555 1_555
C12A C11A 1_555 1_555
H6A C12A 1_555 1_555
C13A C12A 1_555 1_555
C14A H7A 1_555 1_555
C15A C13A 1_555 1_555
C16A C10A 1_555 1_555
H8A C16A 1_555 1_555
C17A C17 1_555 1_555
C18A C18 1_555 1_555
N1A C6A 1_555 1_555
N2A C5A 1_555 1_555
H9A N2A 1_555 1_555
N3A Ag1A 1_555 1_555
N4A C13A 1_555 1_555
H10A N4A 1_555 1_555
O1A C1A 1_555 1_555
O2A C1A 1_555 1_555
O3A Tb1 1_555 1_555
O4A Tb1 1_555 1_555
O5A C17A 1_555 1_555
O6A Tb1 1_555 1_555
O7A C18A 1_555 1_555
O7A_2 Tb1A 1_555 1_555
O8A Tb1 1_555 1_555
O8_2 Tb1A 1_555 1_555
O9A H11A 1_555 1_555
H12A O9A 1_555 1_555
O11A Ag1A 1_555 1_555
H15A O11A 1_555 1_555
H16A O11A 1_555 1_555
Tb1A O3 1_555 1_555
Tb1A_2 O8 1_555 1_555
C6 N2 1_555 1_555
C7 C8 1_555 1_555
C7 N1 1_555 1_555
C14 N3 1_555 1_555
C14 N4 1_555 1_555
C15 C16 1_555 1_555
C15 N3 1_555 1_555
O2 Tb1 1_555 1_555
O4 Tb1A 1_555 1_555
O6 Tb1A 1_555 1_555
O9 Tb1 1_555 1_555
C6A N2A 1_555 1_555
C7A C8A 1_555 1_555
C7A N1A 1_555 1_555
C9A O3A 1_555 1_555
C9A O4A 1_555 1_555
C14A N3A 1_555 1_555
C14A N4A 1_555 1_555
C15A C16A 1_555 1_555
C15A N3A 1_555 1_555
C17A O6A 1_555 1_555
C18A O8A 1_555 1_555
O1A Tb1A 1_555 1_555
O2A Tb1A 1_555 1_555
O5A Tb1A 1_555 1_555
O7A Tb1A_2 1_555 1_555
O9A Tb1A 1_555 1_555

#END
