
#######################################################################
#
#                 Cambridge Crystallographic Data Centre
#                                CCDC 
#
#######################################################################
#
# If this CIF has been generated from an entry in the Cambridge 
# Structural Database, then it will include bibliographic, chemical, 
# crystal, experimental, refinement or atomic coordinate data resulting 
# from the CCDC's data processing and validation procedures.
#
#######################################################################

data_QURYOS
_symmetry_cell_setting           triclinic
_symmetry_space_group_name_H-M   'P -1'
_symmetry_Int_Tables_number      2
_space_group_name_Hall           '-P 1'
loop_
_symmetry_equiv_pos_site_id
_symmetry_equiv_pos_as_xyz
1 x,y,z
2 -x,-y,-z
_cell_length_a                   9.8679(2)
_cell_length_b                   10.7583(2)
_cell_length_c                   12.6584(2)
_cell_angle_alpha                65.7280(10)
_cell_angle_beta                 76.4150(10)
_cell_angle_gamma                65.7650(10)
_cell_volume                     1113.54
loop_
_atom_site_label
_atom_site_type_symbol
_atom_site_fract_x
_atom_site_fract_y
_atom_site_fract_z
Ag1 Ag 1.02294(7) -0.32261(6) 0.64452(5)
C1 C 0.8759(9) -0.0590(8) 0.7275(6)
H1 H 0.9168 -0.1164 0.7987
C2 C 0.8171(7) 0.0106(7) 0.5537(6)
C3 C 0.8013(7) 0.0229(7) 0.4437(6)
H2 H 0.8456 -0.0572 0.4200
C4 C 0.7181(7) 0.1572(7) 0.3697(6)
C5 C 0.6553(8) 0.2791(8) 0.4052(6)
H3 H 0.6039 0.3697 0.3530
C6 C 0.6683(8) 0.2673(8) 0.5141(6)
H4 H 0.6237 0.3474 0.5378
C7 C 0.7495(8) 0.1332(7) 0.5875(6)
C8 C 0.6943(7) 0.1716(7) 0.2527(6)
C9 C 0.9807(7) -0.0563(7) -0.0090(5)
C10 C 0.5014(7) -0.0451(7) 0.0653(5)
C11 C 1.2627(7) -0.3817(7) 0.1875(6)
C12 C 1.2498(7) -0.4898(7) 0.3065(5)
C13 C 1.1830(7) -0.4404(7) 0.3994(6)
H5 H 1.1364 -0.3413 0.3867
C14 C 1.1883(7) -0.5434(7) 0.5107(6)
C15 C 1.1747(10) -0.6571(8) 0.6949(6)
H6 H 1.1536 -0.6771 0.7745
C16 C 1.2573(8) -0.6925(7) 0.5294(6)
C17 C 1.3196(8) -0.7423(7) 0.4382(6)
H7 H 1.3631 -0.8416 0.4510
C18 C 1.3150(7) -0.6399(7) 0.3275(6)
H8 H 1.3563 -0.6713 0.2648
Eu1 Eu 0.66313(3) 0.17892(3) 0.03080(3)
N1 N 0.8950(6) -0.1081(6) 0.6434(5)
N2 N 0.7909(7) 0.0832(6) 0.6994(5)
H9 H 0.7665 0.1341 0.7430
N3 N 1.1374(7) -0.5239(6) 0.6172(5)
N4 N 1.2458(8) -0.7607(6) 0.6483(5)
H10 H 1.2784 -0.8532 0.6858
O1 O 0.6611(5) 0.2935(5) 0.1714(4)
O2 O 0.7052(6) 0.0590(5) 0.2364(4)
O3 O 0.4087(5) 0.3296(5) 0.0515(5)
H11 H 0.329(4) 0.323(7) 0.044(7)
H12 H 0.380(7) 0.406(5) 0.068(7)
O4 O 1.2134(5) -0.2481(4) 0.1730(4)
O5 O 1.3254(5) -0.4234(5) 0.1025(4)
O6 O 0.5492(5) -0.0085(5) 0.1266(4)
O7 O 0.8450(5) -0.0464(5) 0.0115(4)
O9 O 1.1060(6) -0.4038(6) 0.8607(5)
H15 H 1.134(7) -0.4962(14) 0.886(7)
H16 H 1.183(5) -0.385(7) 0.855(8)
O10 O 0.4551(5) -0.1500(5) 0.1005(4)
O11 O 1.0817(5) -0.1506(5) -0.0434(4)
Ag1A Ag 0.97706(7) 0.32261(6) -0.64452(5)
C1A C 1.1241(9) 0.0590(8) -0.7275(6)
H1A H 1.0832 0.1164 -0.7987
C2A C 1.1829(7) -0.0106(7) -0.5537(6)
C3A C 1.1987(7) -0.0229(7) -0.4437(6)
H2A H 1.1544 0.0572 -0.4200
C4A C 1.2819(7) -0.1572(7) -0.3697(6)
C5A C 1.3447(8) -0.2791(8) -0.4052(6)
H3A H 1.3961 -0.3697 -0.3530
C6A C 1.3317(8) -0.2673(8) -0.5141(6)
H4A H 1.3763 -0.3474 -0.5378
C7A C 1.2505(8) -0.1332(7) -0.5875(6)
C8A C 1.3057(7) -0.1716(7) -0.2527(6)
C9A C 1.0193(7) 0.0563(7) 0.0090(5)
C10A C 0.4986(7) 0.0451(7) -0.0653(5)
C11A C 0.7373(7) 0.3817(7) -0.1875(6)
C12A C 0.7502(7) 0.4898(7) -0.3065(5)
C13A C 0.8170(7) 0.4404(7) -0.3994(6)
H5A H 0.8636 0.3413 -0.3867
C14A C 0.8117(7) 0.5434(7) -0.5107(6)
C15A C 0.8253(10) 0.6571(8) -0.6949(6)
H6A H 0.8464 0.6771 -0.7745
C16A C 0.7427(8) 0.6925(7) -0.5294(6)
C17A C 0.6804(8) 0.7423(7) -0.4382(6)
H7A H 0.6369 0.8416 -0.4510
C18A C 0.6850(7) 0.6399(7) -0.3275(6)
H8A H 0.6437 0.6713 -0.2648
Eu1A Eu 1.33687(3) -0.17892(3) -0.03080(3)
Eu1A_2 Eu 0.33687(3) -0.17892(3) -0.03080(3)
N1A N 1.1050(6) 0.1081(6) -0.6434(5)
N2A N 1.2091(7) -0.0832(6) -0.6994(5)
H9A H 1.2335 -0.1341 -0.7430
N3A N 0.8626(7) 0.5239(6) -0.6172(5)
N4A N 0.7542(8) 0.7607(6) -0.6483(5)
H10A H 0.7216 0.8532 -0.6858
O1A O 1.3389(5) -0.2935(5) -0.1714(4)
O2A O 1.2948(6) -0.0590(5) -0.2364(4)
O3A O 1.5913(5) -0.3296(5) -0.0515(5)
H11A H 1.671(4) -0.323(7) -0.044(7)
H12A H 1.620(7) -0.406(5) -0.068(7)
O4A O 0.7866(5) 0.2481(4) -0.1730(4)
O5A O 0.6746(5) 0.4234(5) -0.1025(4)
O6A O 0.4508(5) 0.0085(5) -0.1266(4)
O6A_2 O 1.4508(5) 0.0085(5) -0.1266(4)
O7A O 1.1550(5) 0.0464(5) -0.0115(4)
O9A O 0.8940(6) 0.4038(6) -0.8607(5)
H15A H 0.866(7) 0.4962(14) -0.886(7)
H16A H 0.817(5) 0.385(7) -0.855(8)
O10A O 0.5449(5) 0.1500(5) -0.1005(4)
O10_2 O 1.4551(5) -0.1500(5) 0.1005(4)
O11A O 0.9183(5) 0.1506(5) 0.0434(4)
O8 O 0.1573(6) 0.3042(5) 0.0021(5)
H13 H 0.072(4) 0.336(8) 0.035(7)
H14 H 0.161(8) 0.228(6) -0.006(8)
loop_
_geom_bond_atom_site_label_1
_geom_bond_atom_site_label_2
_geom_bond_site_symmetry_1
_geom_bond_site_symmetry_2
Ag1 N1 1_555 1_555
C1 H1 1_555 1_555
C2 C3 1_555 1_555
C3 H2 1_555 1_555
C4 C3 1_555 1_555
C5 C4 1_555 1_555
H3 C5 1_555 1_555
C6 C5 1_555 1_555
H4 C6 1_555 1_555
C7 C2 1_555 1_555
C8 C4 1_555 1_555
C9 O7 1_555 1_555
C10 O6 1_555 1_555
C11 C12 1_555 1_555
C12 C13 1_555 1_555
C13 H5 1_555 1_555
C14 C13 1_555 1_555
C15 H6 1_555 1_555
C16 C14 1_555 1_555
C17 C16 1_555 1_555
H7 C17 1_555 1_555
C18 C12 1_555 1_555
H8 C18 1_555 1_555
Eu1 O1 1_555 1_555
N1 C1 1_555 1_555
N2 C1 1_555 1_555
H9 N2 1_555 1_555
N3 Ag1 1_555 1_555
N4 C15 1_555 1_555
H10 N4 1_555 1_555
O1 C8 1_555 1_555
O2 C8 1_555 1_555
O3 Eu1 1_555 1_555
H11 O3 1_555 1_555
H12 O3 1_555 1_555
O4 C11 1_555 1_555
O5 C11 1_555 1_555
O6 Eu1 1_555 1_555
O7 Eu1 1_555 1_555
O8 H13 1_555 1_555
H14 O8 1_555 1_555
O9 Ag1 1_555 1_555
H15 O9 1_555 1_555
H16 O9 1_555 1_555
O10 C10 1_555 1_555
O11 C9 1_555 1_555
Ag1A N1A 1_555 1_555
C1A H1A 1_555 1_555
C2A C3A 1_555 1_555
C3A H2A 1_555 1_555
C4A C3A 1_555 1_555
C5A C4A 1_555 1_555
H3A C5A 1_555 1_555
C6A C5A 1_555 1_555
H4A C6A 1_555 1_555
C7A C2A 1_555 1_555
C8A C4A 1_555 1_555
C9A C9 1_555 1_555
C10A C10 1_555 1_555
C11A C12A 1_555 1_555
C12A C13A 1_555 1_555
C13A H5A 1_555 1_555
C14A C13A 1_555 1_555
C15A H6A 1_555 1_555
C16A C14A 1_555 1_555
C17A C16A 1_555 1_555
H7A C17A 1_555 1_555
C18A C12A 1_555 1_555
H8A C18A 1_555 1_555
Eu1A O4 1_555 1_555
Eu1A_2 O10 1_555 1_555
N1A C1A 1_555 1_555
N2A C1A 1_555 1_555
H9A N2A 1_555 1_555
N3A Ag1A 1_555 1_555
N4A C15A 1_555 1_555
H10A N4A 1_555 1_555
O1A C8A 1_555 1_555
O2A C8A 1_555 1_555
O3A Eu1A 1_555 1_555
H11A O3A 1_555 1_555
H12A O3A 1_555 1_555
O4A Eu1 1_555 1_555
O5A Eu1 1_555 1_555
O6A C10A 1_555 1_555
O6A_2 Eu1A 1_555 1_555
O7A C9A 1_555 1_555
O9A Ag1A 1_555 1_555
H15A O9A 1_555 1_555
H16A O9A 1_555 1_555
O10A Eu1 1_555 1_555
O10_2 Eu1A 1_555 1_555
O11A Eu1 1_555 1_555
C2 N1 1_555 1_555
C6 C7 1_555 1_555
C7 N2 1_555 1_555
C14 N3 1_555 1_555
C15 N3 1_555 1_555
C16 N4 1_555 1_555
C17 C18 1_555 1_555
Eu1 O2 1_555 1_555
O5 Eu1A 1_555 1_555
O11 Eu1A 1_555 1_555
C2A N1A 1_555 1_555
C6A C7A 1_555 1_555
C7A N2A 1_555 1_555
C9A O11A 1_555 1_555
C10A O10A 1_555 1_555
C11A O4A 1_555 1_555
C11A O5A 1_555 1_555
C14A N3A 1_555 1_555
C15A N3A 1_555 1_555
C16A N4A 1_555 1_555
C17A C18A 1_555 1_555
Eu1A O1A 1_555 1_555
Eu1A O2A 1_555 1_555
Eu1A O7A 1_555 1_555
Eu1A_2 O6A 1_555 1_555

#END
