
#######################################################################
#
#                 Cambridge Crystallographic Data Centre
#                                CCDC 
#
#######################################################################
#
# If this CIF has been generated from an entry in the Cambridge 
# Structural Database, then it will include bibliographic, chemical, 
# crystal, experimental, refinement or atomic coordinate data resulting 
# from the CCDC's data processing and validation procedures.
#
#######################################################################

data_QURYIM
_symmetry_cell_setting           triclinic
_symmetry_space_group_name_H-M   'P -1'
_symmetry_Int_Tables_number      2
_space_group_name_Hall           '-P 1'
loop_
_symmetry_equiv_pos_site_id
_symmetry_equiv_pos_as_xyz
1 x,y,z
2 -x,-y,-z
_cell_length_a                   10.0978(3)
_cell_length_b                   10.6786(3)
_cell_length_c                   12.6194(4)
_cell_angle_alpha                66.095(2)
_cell_angle_beta                 75.471(2)
_cell_angle_gamma                65.381(2)
_cell_volume                     1125.42
loop_
_atom_site_label
_atom_site_type_symbol
_atom_site_fract_x
_atom_site_fract_y
_atom_site_fract_z
C1 C 0.1017(7) 1.0784(7) -0.2287(5)
H1 H 0.0554 1.1348 -0.2967
C2 C 0.2367(6) 0.8887(6) -0.0975(5)
C3 C 0.3256(7) 0.7517(7) -0.0296(5)
H2 H 0.3713 0.6732 -0.0568
C4 C 0.3420(7) 0.7395(7) 0.0801(5)
H3 H 0.3970 0.6491 0.1292
C5 C 0.2776(6) 0.8602(6) 0.1199(5)
C6 C 0.1913(6) 0.9952(6) 0.0511(4)
H4 H 0.1485 1.0746 0.0772
C7 C 0.1706(6) 1.0086(6) -0.0586(5)
C8 C 0.3053(6) 0.8414(6) 0.2370(5)
C9 C 0.0179(6) 1.0582(5) 0.5094(4)
C10 C 0.5010(6) 0.9538(6) 0.5654(4)
C11 C -0.2577(6) 1.3755(6) 0.3105(5)
C12 C -0.2449(6) 1.4805(6) 0.1897(5)
C13 C -0.1724(6) 1.4254(6) 0.0997(4)
H5 H -0.1232 1.3254 0.1147
C14 C -0.1761(6) 1.5246(6) -0.0126(5)
C15 C -0.1580(8) 1.6354(7) -0.2002(5)
H6 H -0.1349 1.6532 -0.2798
C16 C -0.2473(7) 1.6754(6) -0.0346(5)
C17 C -0.3159(7) 1.7312(6) 0.0554(5)
H7 H -0.3610 1.8316 0.0407
C18 C -0.3144(6) 1.6328(6) 0.1662(5)
H8 H -0.3606 1.6673 0.2279
Cu1 Cu -0.02250(9) 1.31976(8) -0.14215(6)
N1 N 0.0872(5) 1.1282(5) -0.1449(4)
N2 N 0.1900(6) 0.9384(5) -0.2056(4)
H9 H 0.2135 0.8880 -0.2505
N3 N -0.1205(6) 1.5017(5) -0.1196(4)
N4 N -0.2321(6) 1.7405(5) -0.1541(4)
H10 H -0.2649 1.8330 -0.1921
Nd1 Nd 0.33627(3) 0.82367(3) 0.46442(2)
O1 O 0.2928(5) 0.9532(4) 0.2562(3)
O2 O 0.3411(4) 0.7178(4) 0.3134(3)
O3 O 0.1484(4) 1.0515(4) 0.4863(4)
O4 O -0.0848(4) 1.1513(4) 0.5459(3)
O5 O 0.5950(4) 0.6704(5) 0.4418(4)
H11 H 0.656(5) 0.702(6) 0.448(6)
H12 H 0.646(5) 0.587(4) 0.435(6)
O6 O 0.4505(4) 0.8523(4) 0.5992(3)
O7 O -0.2062(4) 1.2403(4) 0.3282(3)
O8 O -0.3251(4) 1.4222(4) 0.3943(3)
O9 O -0.1114(6) 1.4026(5) -0.3528(5)
H13 H -0.141(7) 1.4960(17) -0.387(7)
H14 H -0.191(4) 1.384(7) -0.332(7)
O11 O 0.5536(5) 0.9844(4) 0.6277(3)
C1A C -0.1017(7) 0.9216(7) 1.2287(5)
H1A H -0.0554 0.8652 1.2967
C2A C -0.2367(6) 1.1113(6) 1.0975(5)
C3A C -0.3256(7) 1.2483(7) 1.0296(5)
H2A H -0.3713 1.3268 1.0568
C4A C -0.3420(7) 1.2605(7) 0.9199(5)
H3A H -0.3970 1.3509 0.8708
C5A C -0.2776(6) 1.1398(6) 0.8801(5)
C6A C -0.1913(6) 1.0048(6) 0.9489(4)
H4A H -0.1485 0.9254 0.9228
C7A C -0.1706(6) 0.9914(6) 1.0586(5)
C8A C -0.3053(6) 1.1586(6) 0.7630(5)
C9A C -0.0179(6) 0.9418(5) 0.4906(4)
C10A C 0.4990(6) 1.0462(6) 0.4346(4)
C11A C 0.2577(6) 0.6245(6) 0.6895(5)
C12A C 0.2449(6) 0.5195(6) 0.8103(5)
C13A C 0.1724(6) 0.5746(6) 0.9003(4)
H5A H 0.1232 0.6746 0.8853
C14A C 0.1761(6) 0.4754(6) 1.0126(5)
C15A C 0.1580(8) 0.3646(7) 1.2002(5)
H6A H 0.1349 0.3468 1.2798
C16A C 0.2473(7) 0.3246(6) 1.0346(5)
C17A C 0.3159(7) 0.2688(6) 0.9446(5)
H7A H 0.3610 0.1684 0.9593
C18A C 0.3144(6) 0.3672(6) 0.8338(5)
H8A H 0.3606 0.3327 0.7721
Cu1A Cu 0.02250(9) 0.68024(8) 1.14215(6)
N1A N -0.0872(5) 0.8718(5) 1.1449(4)
N2A N -0.1900(6) 1.0616(5) 1.2056(4)
H9A H -0.2135 1.1120 1.2505
N3A N 0.1205(6) 0.4983(5) 1.1196(4)
N4A N 0.2321(6) 0.2595(5) 1.1541(4)
H10A H 0.2649 0.1670 1.1921
Nd1A Nd -0.33627(3) 1.17633(3) 0.53558(2)
Nd1A_2 Nd 0.66373(3) 1.17633(3) 0.53558(2)
O1A O -0.2928(5) 1.0468(4) 0.7438(3)
O2A O -0.3411(4) 1.2822(4) 0.6866(3)
O3A O -0.1484(4) 0.9485(4) 0.5137(4)
O4A O 0.0848(4) 0.8487(4) 0.4541(3)
O5A O -0.5950(4) 1.3296(5) 0.5582(4)
H11A H -0.656(5) 1.298(6) 0.552(6)
H12A H -0.646(5) 1.413(4) 0.565(6)
O6A O 0.5495(4) 1.1477(4) 0.4008(3)
O6A_2 O -0.4505(4) 1.1477(4) 0.4008(3)
O7A O 0.2062(4) 0.7597(4) 0.6718(3)
O8A O 0.3251(4) 0.5778(4) 0.6057(3)
O9A O 0.1114(6) 0.5974(5) 1.3528(5)
H13A H 0.141(7) 0.5040(17) 1.387(7)
H14A H 0.191(4) 0.616(7) 1.332(7)
O11A O 0.4464(5) 1.0156(4) 0.3723(3)
O11_2 O -0.4464(5) 0.9844(4) 0.6277(3)
O10 O 0.8405(6) 0.6943(5) 0.4979(4)
H15 H 0.815(7) 0.783(3) 0.494(6)
H16 H 0.907(6) 0.684(7) 0.443(5)
loop_
_geom_bond_atom_site_label_1
_geom_bond_atom_site_label_2
_geom_bond_site_symmetry_1
_geom_bond_site_symmetry_2
C1 H1 1_555 1_555
C2 C3 1_555 1_555
C3 H2 1_555 1_555
C4 C3 1_555 1_555
H3 C4 1_555 1_555
C5 C4 1_555 1_555
C6 C5 1_555 1_555
H4 C6 1_555 1_555
C7 C2 1_555 1_555
C8 C5 1_555 1_555
C9 O3 1_555 1_555
C10 O6 1_555 1_555
C11 C12 1_555 1_555
C12 C13 1_555 1_555
C13 H5 1_555 1_555
C14 C13 1_555 1_555
C15 H6 1_555 1_555
C16 C14 1_555 1_555
C17 C16 1_555 1_555
H7 C17 1_555 1_555
C18 C12 1_555 1_555
H8 C18 1_555 1_555
Cu1 N1 1_555 1_555
N1 C1 1_555 1_555
N2 C1 1_555 1_555
H9 N2 1_555 1_555
N3 C14 1_555 1_555
N4 C15 1_555 1_555
H10 N4 1_555 1_555
Nd1 O1 1_555 1_555
O1 C8 1_555 1_555
O2 C8 1_555 1_555
O3 Nd1 1_555 1_555
O4 C9 1_555 1_555
O5 Nd1 1_555 1_555
H11 O5 1_555 1_555
H12 O5 1_555 1_555
O6 Nd1 1_555 1_555
O7 C11 1_555 1_555
O8 C11 1_555 1_555
O9 Cu1 1_555 1_555
H13 O9 1_555 1_555
H14 O9 1_555 1_555
O10 H15 1_555 1_555
H16 O10 1_555 1_555
O11 C10 1_555 1_555
C1A H1A 1_555 1_555
C2A C3A 1_555 1_555
C3A H2A 1_555 1_555
C4A C3A 1_555 1_555
H3A C4A 1_555 1_555
C5A C4A 1_555 1_555
C6A C5A 1_555 1_555
H4A C6A 1_555 1_555
C7A C2A 1_555 1_555
C8A C5A 1_555 1_555
C9A C9 1_555 1_555
C10A C10 1_555 1_555
C11A C12A 1_555 1_555
C12A C13A 1_555 1_555
C13A H5A 1_555 1_555
C14A C13A 1_555 1_555
C15A H6A 1_555 1_555
C16A C14A 1_555 1_555
C17A C16A 1_555 1_555
H7A C17A 1_555 1_555
C18A C12A 1_555 1_555
H8A C18A 1_555 1_555
Cu1A N1A 1_555 1_555
N1A C1A 1_555 1_555
N2A C1A 1_555 1_555
H9A N2A 1_555 1_555
N3A C14A 1_555 1_555
N4A C15A 1_555 1_555
H10A N4A 1_555 1_555
Nd1A O4 1_555 1_555
Nd1A_2 O11 1_555 1_555
O1A C8A 1_555 1_555
O2A C8A 1_555 1_555
O3A C9A 1_555 1_555
O4A Nd1 1_555 1_555
O5A Nd1A 1_555 1_555
H11A O5A 1_555 1_555
H12A O5A 1_555 1_555
O6A C10A 1_555 1_555
O6A_2 Nd1A 1_555 1_555
O7A Nd1 1_555 1_555
O8A Nd1 1_555 1_555
O9A Cu1A 1_555 1_555
H13A O9A 1_555 1_555
H14A O9A 1_555 1_555
O11A Nd1 1_555 1_555
O11_2 Nd1A 1_555 1_555
C2 N2 1_555 1_555
C6 C7 1_555 1_555
C7 N1 1_555 1_555
C15 N3 1_555 1_555
C16 N4 1_555 1_555
C17 C18 1_555 1_555
Cu1 N3 1_555 1_555
Nd1 O2 1_555 1_555
O7 Nd1A 1_555 1_555
O8 Nd1A 1_555 1_555
C2A N2A 1_555 1_555
C6A C7A 1_555 1_555
C7A N1A 1_555 1_555
C9A O4A 1_555 1_555
C10A O11A 1_555 1_555
C11A O7A 1_555 1_555
C11A O8A 1_555 1_555
C15A N3A 1_555 1_555
C16A N4A 1_555 1_555
C17A C18A 1_555 1_555
Cu1A N3A 1_555 1_555
Nd1A O1A 1_555 1_555
Nd1A O2A 1_555 1_555
Nd1A O3A 1_555 1_555
Nd1A_2 O6A 1_555 1_555

#END
