
#######################################################################
#
#                 Cambridge Crystallographic Data Centre
#                                CCDC 
#
#######################################################################
#
# If this CIF has been generated from an entry in the Cambridge 
# Structural Database, then it will include bibliographic, chemical, 
# crystal, experimental, refinement or atomic coordinate data resulting 
# from the CCDC's data processing and validation procedures.
#
#######################################################################

data_QURZIN
_symmetry_cell_setting           monoclinic
_symmetry_space_group_name_H-M   'P 21/c'
_symmetry_Int_Tables_number      14
_space_group_name_Hall           '-P 2ybc'
loop_
_symmetry_equiv_pos_site_id
_symmetry_equiv_pos_as_xyz
1 x,y,z
2 -x,1/2+y,1/2-z
3 -x,-y,-z
4 x,1/2-y,1/2+z
_cell_length_a                   10.9079(5)
_cell_length_b                   16.5599(8)
_cell_length_c                   7.5525(4)
_cell_angle_alpha                90
_cell_angle_beta                 104.247(3)
_cell_angle_gamma                90
_cell_volume                     1322.28
loop_
_atom_site_label
_atom_site_type_symbol
_atom_site_fract_x
_atom_site_fract_y
_atom_site_fract_z
Ag1 Ag 0.22606(4) 0.64380(3) 0.89534(7)
C1 C 0.5058(5) 0.6841(3) 1.1130(8)
H1 H 0.5272 0.6298 1.1130
C2 C 0.5224(5) 0.8137(3) 1.1659(8)
C3 C 0.5593(5) 0.8915(3) 1.2251(9)
H2 H 0.6421 0.9038 1.2861
C4 C 0.4653(5) 0.9492(3) 1.1877(8)
H3 H 0.4850 1.0020 1.2267
C5 C 0.3399(5) 0.9309(3) 1.0921(8)
C6 C 0.3074(5) 0.8537(3) 1.0280(7)
H4 H 0.2260 0.8416 0.9608
C7 C 0.4005(5) 0.7951(3) 1.0677(8)
C8 C 0.2411(5) 0.9943(3) 1.0780(7)
C9 C 0.0557(5) 0.5282(3) 0.9994(8)
C10 C -0.0031(5) 0.7279(3) 0.6691(7)
C11 C -0.1245(5) 0.7608(3) 0.5381(7)
Eu1 Eu 0.05324(2) 1.099120(14) 1.16384(4)
N1 N 0.3925(4) 0.7114(2) 1.0342(6)
N2 N 0.5876(4) 0.7407(3) 1.1931(7)
H5 H 0.6654 0.7336 1.2502
O1 O 0.2684(3) 1.0592(2) 1.1655(5)
O2 O 0.1258(3) 0.98228(19) 0.9882(5)
O3 O 0.1140(3) 0.51546(19) 0.8772(5)
O4 O 0.0790(3) 0.5837(2) 1.1135(5)
O5 O -0.1602(3) 0.83022(19) 0.5634(5)
O6 O 0.0505(3) 0.77216(19) 0.8010(5)
O7 O -0.1759(3) 0.7131(2) 0.4139(5)
O8 O 0.0325(3) 0.65852(19) 0.6384(5)
Ag1B Ag -0.22606(4) 0.35620(3) 1.10466(7)
Ag1B_2 Ag -0.22606(4) 1.35620(3) 1.10466(7)
C1B C -0.5058(5) 1.3159(3) 0.8870(8)
H1B H -0.5272 1.3702 0.8870
C2B C -0.5224(5) 1.1863(3) 0.8341(8)
C3B C -0.5593(5) 1.1085(3) 0.7749(9)
H2B H -0.6421 1.0962 0.7139
C4B C -0.4653(5) 1.0508(3) 0.8123(8)
H3B H -0.4850 0.9980 0.7733
C5B C -0.3399(5) 1.0691(3) 0.9079(8)
C6B C -0.3074(5) 1.1463(3) 0.9720(7)
H4B H -0.2260 1.1584 1.0392
C7B C -0.4005(5) 1.2049(3) 0.9323(8)
C8B C -0.2411(5) 1.0057(3) 0.9220(7)
C9B C -0.0557(5) 0.4718(3) 1.0006(8)
C10B C 0.0031(5) 1.2721(3) 1.3309(7)
C11B C 0.1245(5) 1.2392(3) 1.4619(7)
Eu1B Eu -0.05324(2) 0.900880(14) 0.83616(4)
Eu1C Eu 0.05324(2) 0.400880(14) 0.66384(4)
Eu1A Eu -0.05324(2) 0.599120(14) 1.33616(4)
Eu1A_2 Eu -0.05324(2) 0.599120(14) 0.33616(4)
Eu1C_2 Eu 0.05324(2) 1.400880(14) 1.66384(4)
N1B N -0.3925(4) 1.2886(2) 0.9658(6)
N1B_2 N -0.3925(4) 0.2886(2) 0.9658(6)
N2B N -0.5876(4) 1.2593(3) 0.8069(7)
H5B H -0.6654 1.2664 0.7498
O1B O -0.2684(3) 0.9408(2) 0.8345(5)
O2B O -0.1258(3) 1.01772(19) 1.0118(5)
O3B O -0.1140(3) 0.48454(19) 1.1228(5)
O3C O 0.1140(3) 0.98454(19) 1.3772(5)
O3A O -0.1140(3) 1.01546(19) 0.6228(5)
O4B O -0.0790(3) 0.4163(2) 0.8865(5)
O4A O -0.0790(3) 1.0837(2) 1.3865(5)
O4C O 0.0790(3) 0.9163(2) 0.6135(5)
O5B O 0.1602(3) 1.16978(19) 1.4366(5)
O6B O -0.0505(3) 1.22784(19) 1.1990(5)
O7B O 0.1759(3) 1.2869(2) 1.5861(5)
O7A O 0.1759(3) 1.2131(2) 1.0861(5)
O7C O -0.1759(3) 0.7869(2) 0.9139(5)
O8B O -0.0325(3) 1.34148(19) 1.3616(5)
O8A O -0.0325(3) 1.15852(19) 0.8616(5)
O8B_2 O -0.0325(3) 0.34148(19) 1.3616(5)
O8C O 0.0325(3) 0.84148(19) 1.1384(5)
loop_
_geom_bond_atom_site_label_1
_geom_bond_atom_site_label_2
_geom_bond_site_symmetry_1
_geom_bond_site_symmetry_2
Ag1 N1 1_555 1_555
C1 H1 1_555 1_555
C2 C3 1_555 1_555
C3 H2 1_555 1_555
C4 C3 1_555 1_555
H3 C4 1_555 1_555
C5 C4 1_555 1_555
C6 C5 1_555 1_555
H4 C6 1_555 1_555
C7 C2 1_555 1_555
C8 C5 1_555 1_555
C9 O3 1_555 1_555
C10 C11 1_555 1_555
C11 O5 1_555 1_555
Eu1 O1 1_555 1_555
N1 C1 1_555 1_555
N2 C1 1_555 1_555
H5 N2 1_555 1_555
O1 C8 1_555 1_555
O2 C8 1_555 1_555
O3 Ag1 1_555 1_555
O4 C9 1_555 1_555
O5 Eu1B 1_555 1_555
O6 C10 1_555 1_555
O7 C11 1_555 1_555
O8 Ag1 1_555 1_555
Ag1B N1B_2 1_555 1_555
Ag1B_2 N1B 1_555 1_555
C1B H1B 1_555 1_555
C2B C3B 1_555 1_555
C3B H2B 1_555 1_555
C4B C3B 1_555 1_555
H3B C4B 1_555 1_555
C5B C4B 1_555 1_555
C6B C5B 1_555 1_555
H4B C6B 1_555 1_555
C7B C2B 1_555 1_555
C8B C5B 1_555 1_555
C9B C9 1_555 1_555
C10B C11B 1_555 1_555
C11B O5B 1_555 1_555
Eu1B O2 1_555 1_555
Eu1C O3 1_555 1_555
Eu1A O4 1_555 1_555
Eu1A_2 O7 1_555 1_555
Eu1C_2 O7B 1_555 1_555
N1B C1B 1_555 1_555
N2B C1B 1_555 1_555
H5B N2B 1_555 1_555
O1B C8B 1_555 1_555
O2B Eu1 1_555 1_555
O3B Ag1B 1_555 1_555
O3C Eu1 1_555 1_555
O3A Eu1B 1_555 1_555
O4B C9B 1_555 1_555
O4A Eu1 1_555 1_555
O4C Eu1B 1_555 1_555
O5B Eu1 1_555 1_555
O6B Eu1 1_555 1_555
O7B C11B 1_555 1_555
O7A Eu1 1_555 1_555
O7C Eu1B 1_555 1_555
O8B Ag1B_2 1_555 1_555
O8A Eu1 1_555 1_555
O8B_2 Ag1B 1_555 1_555
O8C Eu1B 1_555 1_555
C2 N2 1_555 1_555
C6 C7 1_555 1_555
C7 N1 1_555 1_555
C10 O8 1_555 1_555
Eu1 O2 1_555 1_555
O6 Eu1B 1_555 1_555
O8 Eu1A_2 1_555 1_555
C2B N2B 1_555 1_555
C6B C7B 1_555 1_555
C7B N1B 1_555 1_555
C8B O2B 1_555 1_555
C9B O3B 1_555 1_555
C10B O6B 1_555 1_555
C10B O8B 1_555 1_555
Eu1B O1B 1_555 1_555
Eu1B O2B 1_555 1_555
Eu1C O4B 1_555 1_555
Eu1A O3B 1_555 1_555
Eu1C_2 O8B 1_555 1_555

#END
