
#######################################################################
#
#                 Cambridge Crystallographic Data Centre
#                                CCDC 
#
#######################################################################
#
# If this CIF has been generated from an entry in the Cambridge 
# Structural Database, then it will include bibliographic, chemical, 
# crystal, experimental, refinement or atomic coordinate data resulting 
# from the CCDC's data processing and validation procedures.
#
#######################################################################

data_QURZEJ
_symmetry_cell_setting           triclinic
_symmetry_space_group_name_H-M   'P -1'
_symmetry_Int_Tables_number      2
_space_group_name_Hall           '-P 1'
loop_
_symmetry_equiv_pos_site_id
_symmetry_equiv_pos_as_xyz
1 x,y,z
2 -x,-y,-z
_cell_length_a                   7.63270(10)
_cell_length_b                   12.49390(10)
_cell_length_c                   14.00870(10)
_cell_angle_alpha                70.4780(10)
_cell_angle_beta                 87.5450(10)
_cell_angle_gamma                81.20
_cell_volume                     1244.23
loop_
_atom_site_label
_atom_site_type_symbol
_atom_site_fract_x
_atom_site_fract_y
_atom_site_fract_z
C1 C -0.1894(5) 0.5359(3) 0.1067(3)
H1 H -0.1555 0.5808 0.1419
C2 C -0.2665(4) 0.4850(3) -0.0185(2)
C3 C -0.2664(4) 0.3932(3) 0.0726(2)
C4 C -0.3180(4) 0.2907(3) 0.0720(2)
H2 H -0.3189 0.2288 0.1316
C5 C -0.3682(4) 0.2832(3) -0.0198(2)
C6 C -0.3639(5) 0.3777(3) -0.1096(3)
H3 H -0.3960 0.3708 -0.1703
C7 C -0.3145(5) 0.4793(3) -0.1112(3)
H4 H -0.3132 0.5410 -0.1709
C8 C -0.4368(4) 0.1791(3) -0.0258(2)
C9 C 0.0313(4) 0.0283(3) 0.0363(3)
C10 C -0.5109(4) -0.0615(3) 0.3145(2)
C11 C -0.6199(4) -0.0432(3) 0.4000(2)
C12 C -0.6692(4) -0.1355(3) 0.4773(2)
H5 H -0.6370 -0.2100 0.4763
C13 C -0.7675(4) -0.1146(3) 0.5561(2)
C14 C -0.9179(4) -0.1237(3) 0.6914(3)
H6 H -0.9741 -0.1517 0.7531
C15 C -0.8187(4) -0.0021(3) 0.5560(2)
C16 C -0.7690(4) 0.0914(3) 0.4793(3)
H7 H -0.8026 0.1659 0.4800
C17 C -0.6685(5) 0.0698(3) 0.4023(3)
H8 H -0.6316 0.1308 0.3506
C18 C -0.0470(4) -0.2635(3) 0.2829(2)
C19 C 0.0729(4) -0.3586(3) 0.3565(2)
C20 C 0.1334(4) -0.4600(3) 0.3341(3)
H9 H 0.1028 -0.4648 0.2723
C21 C 0.2365(5) -0.5521(3) 0.4016(3)
H10 H 0.2785 -0.6182 0.3860
C22 C 0.2748(4) -0.5420(3) 0.4937(2)
C23 C 0.3534(5) -0.5634(3) 0.6485(3)
H11 H 0.4015 -0.5977 0.7134
C24 C 0.2164(4) -0.4415(3) 0.5172(2)
C25 C 0.1143(4) -0.3488(3) 0.4477(2)
H12 H 0.0750 -0.2818 0.4624
Cu1 Cu -0.21683(6) 0.35683(4) 0.30149(3)
Dy1 Dy -0.29227(2) -0.088740(12) 0.152760(11)
N1 N -0.2157(4) 0.5734(2) 0.0064(2)
H13 H -0.2031 0.6404 -0.0349
N2 N -0.2168(4) 0.4282(2) 0.1508(2)
N3 N -0.9169(4) -0.0117(2) 0.6421(2)
H14 H -0.9685 0.0440 0.6610
N4 N -0.8312(4) -0.1902(2) 0.6437(2)
N5 N 0.2690(4) -0.4578(2) 0.6157(2)
N6 N 0.3634(4) -0.6168(2) 0.5796(2)
H15 H 0.4155 -0.6853 0.5874
O1 O -0.5265(3) 0.19125(19) -0.10336(17)
O2 O -0.4060(3) 0.08696(18) 0.04585(17)
O3 O -0.0417(3) 0.0100(2) 0.12007(17)
O4 O 0.1521(3) 0.0893(2) 0.00374(18)
O5 O -0.4502(3) 0.02119(19) 0.25018(17)
O6 O -0.4772(3) -0.16109(18) 0.30679(17)
O7 O -0.0970(3) -0.17175(18) 0.30225(18)
O8 O -0.1036(3) -0.27475(19) 0.20430(17)
C1A C -0.8106(5) -0.5359(3) 0.8933(3)
H1A H -0.8445 -0.5808 0.8581
C2A C -0.7335(4) -0.4850(3) 1.0185(2)
C3A C -0.7336(4) -0.3932(3) 0.9274(2)
C4A C -0.6820(4) -0.2907(3) 0.9280(2)
H2A H -0.6811 -0.2288 0.8684
C5A C -0.6318(4) -0.2832(3) 1.0198(2)
C6A C -0.6361(5) -0.3777(3) 1.1096(3)
H3A H -0.6040 -0.3708 1.1703
C7A C -0.6855(5) -0.4793(3) 1.1112(3)
H4A H -0.6868 -0.5410 1.1709
C8A C -0.5632(4) -0.1791(3) 1.0258(2)
C9A C -0.0313(4) -0.0283(3) -0.0363(3)
C10A C -0.4891(4) 0.0615(3) 0.6855(2)
C11A C -0.3801(4) 0.0432(3) 0.6000(2)
C12A C -0.3308(4) 0.1355(3) 0.5227(2)
H5A H -0.3630 0.2100 0.5237
C13A C -0.2325(4) 0.1146(3) 0.4439(2)
C14A C -0.0821(4) 0.1237(3) 0.3086(3)
H6A H -0.0259 0.1517 0.2469
C15A C -0.1813(4) 0.0021(3) 0.4440(2)
C16A C -0.2310(4) -0.0914(3) 0.5207(3)
H7A H -0.1974 -0.1659 0.5200
C17A C -0.3315(5) -0.0698(3) 0.5977(3)
H8A H -0.3684 -0.1308 0.6494
C18_2 C -1.0470(4) -0.2635(3) 0.2829(2)
C19_2 C -0.9271(4) -0.3586(3) 0.3565(2)
C20_2 C -0.8666(4) -0.4600(3) 0.3341(3)
H9_2 H -0.8972 -0.4648 0.2723
C21_2 C -0.7635(5) -0.5521(3) 0.4016(3)
H10_2 H -0.7215 -0.6182 0.3860
C22_2 C -0.7252(4) -0.5420(3) 0.4937(2)
C23_2 C -0.6466(5) -0.5634(3) 0.6485(3)
H11_2 H -0.5985 -0.5977 0.7134
C24_2 C -0.7836(4) -0.4415(3) 0.5172(2)
C25_2 C -0.8857(4) -0.3488(3) 0.4477(2)
H12_2 H -0.9250 -0.2818 0.4624
Cu1A Cu -0.78317(6) -0.35683(4) 0.69851(3)
Cu1A_2 Cu 0.21683(6) -0.35683(4) 0.69851(3)
Dy1A Dy -0.70773(2) 0.088740(12) -0.152760(11)
Dy1A_2 Dy 0.29227(2) 0.088740(12) -0.152760(11)
Dy1_2 Dy -1.29227(2) -0.088740(12) 0.152760(11)
Dy1A_3 Dy -0.70773(2) 0.088740(12) 0.847240(11)
Dy1_3 Dy -0.29227(2) -0.088740(12) 1.152760(11)
N1A N -0.7843(4) -0.5734(2) 0.9936(2)
H13A H -0.7969 -0.6404 1.0349
N2A N -0.7832(4) -0.4282(2) 0.8492(2)
N3A N -0.0831(4) 0.0117(2) 0.3579(2)
H14A H -0.0315 -0.0440 0.3390
N4A N -0.1688(4) 0.1902(2) 0.3563(2)
N5A N -0.2690(4) 0.4578(2) 0.3843(2)
N5_2 N -0.7310(4) -0.4578(2) 0.6157(2)
N6_2 N -0.6366(4) -0.6168(2) 0.5796(2)
H15_2 H -0.5845 -0.6853 0.5874
O1A O -0.4735(3) -0.19125(19) 0.10336(17)
O1A_2 O -0.4735(3) -0.19125(19) 1.10336(17)
O1_2 O -0.5265(3) 0.19125(19) 0.89664(17)
O2A O -0.5940(3) -0.08696(18) 0.95415(17)
O3A O 0.0417(3) -0.0100(2) -0.12007(17)
O3A_2 O -0.9583(3) -0.0100(2) 0.87993(17)
O4A O -0.1521(3) -0.0893(2) -0.00374(18)
O4_2 O -0.8479(3) 0.0893(2) 1.00374(18)
O5A O -0.5498(3) -0.02119(19) 0.74982(17)
O6A O -0.5228(3) 0.16109(18) 0.69321(17)
O7_2 O -1.0970(3) -0.17175(18) 0.30225(18)
O7A O -0.9030(3) 0.17175(18) 0.69775(18)
O8_2 O -1.1036(3) -0.27475(19) 0.20430(17)
O8A O -0.8964(3) 0.27475(19) 0.79570(17)
O9 O -0.7600(4) 0.1998(2) -0.8675(2)
H16 H -0.664(3) 0.161(3) -0.839(3)
H17 H -0.793(5) 0.162(3) -0.902(3)
loop_
_geom_bond_atom_site_label_1
_geom_bond_atom_site_label_2
_geom_bond_site_symmetry_1
_geom_bond_site_symmetry_2
C1 H1 1_555 1_555
C2 C3 1_555 1_555
C3 C4 1_555 1_555
C4 H2 1_555 1_555
C5 C4 1_555 1_555
C6 C5 1_555 1_555
H3 C6 1_555 1_555
C7 C2 1_555 1_555
H4 C7 1_555 1_555
C8 C5 1_555 1_555
C9 O3 1_555 1_555
C10 C11 1_555 1_555
C11 C12 1_555 1_555
C12 H5 1_555 1_555
C13 C12 1_555 1_555
C14 H6 1_555 1_555
C15 C13 1_555 1_555
C16 C15 1_555 1_555
H7 C16 1_555 1_555
C17 C11 1_555 1_555
H8 C17 1_555 1_555
C18 C19 1_555 1_555
C19 C20 1_555 1_555
C20 H9 1_555 1_555
C21 C20 1_555 1_555
H10 C21 1_555 1_555
C22 C21 1_555 1_555
C23 H11 1_555 1_555
C24 C22 1_555 1_555
C25 C19 1_555 1_555
H12 C25 1_555 1_555
Cu1 N2 1_555 1_555
Dy1 O2 1_555 1_555
N1 C1 1_555 1_555
H13 N1 1_555 1_555
N2 C1 1_555 1_555
N3 C14 1_555 1_555
H14 N3 1_555 1_555
N4 C13 1_555 1_555
N5 C23 1_555 1_555
N6 C22 1_555 1_555
H15 N6 1_555 1_555
O1 C8 1_555 1_555
O2 C8 1_555 1_555
O3 Dy1 1_555 1_555
O4 C9 1_555 1_555
O5 C10 1_555 1_555
O6 C10 1_555 1_555
O7 C18 1_555 1_555
O8 C18 1_555 1_555
O9 H16 1_555 1_555
H17 O9 1_555 1_555
C1A H1A 1_555 1_555
C2A C3A 1_555 1_555
C3A C4A 1_555 1_555
C4A H2A 1_555 1_555
C5A C4A 1_555 1_555
C6A C5A 1_555 1_555
H3A C6A 1_555 1_555
C7A C2A 1_555 1_555
H4A C7A 1_555 1_555
C8A C5A 1_555 1_555
C9A C9 1_555 1_555
C10A C11A 1_555 1_555
C11A C12A 1_555 1_555
C12A H5A 1_555 1_555
C13A C12A 1_555 1_555
C14A H6A 1_555 1_555
C15A C13A 1_555 1_555
C16A C15A 1_555 1_555
H7A C16A 1_555 1_555
C17A C11A 1_555 1_555
H8A C17A 1_555 1_555
C18_2 C19_2 1_555 1_555
C19_2 C20_2 1_555 1_555
C20_2 H9_2 1_555 1_555
C21_2 C20_2 1_555 1_555
H10_2 C21_2 1_555 1_555
C22_2 C21_2 1_555 1_555
C23_2 H11_2 1_555 1_555
C24_2 C22_2 1_555 1_555
C25_2 C19_2 1_555 1_555
H12_2 C25_2 1_555 1_555
Cu1A N4 1_555 1_555
Cu1A_2 N5 1_555 1_555
Dy1A O1 1_555 1_555
Dy1A_2 O4 1_555 1_555
Dy1_2 O7_2 1_555 1_555
Dy1A_3 O1_2 1_555 1_555
Dy1_3 O1A_2 1_555 1_555
N1A C1A 1_555 1_555
H13A N1A 1_555 1_555
N2A C1A 1_555 1_555
N3A C14A 1_555 1_555
H14A N3A 1_555 1_555
N4A Cu1 1_555 1_555
N5A Cu1 1_555 1_555
N5_2 C23_2 1_555 1_555
N6_2 C22_2 1_555 1_555
H15_2 N6_2 1_555 1_555
O1A Dy1 1_555 1_555
O1A_2 C8A 1_555 1_555
O2A C8A 1_555 1_555
O3A C9A 1_555 1_555
O3A_2 Dy1A_3 1_555 1_555
O4A Dy1 1_555 1_555
O4_2 Dy1A_3 1_555 1_555
O5A C10A 1_555 1_555
O6A C10A 1_555 1_555
O7_2 C18_2 1_555 1_555
O7A Dy1A_3 1_555 1_555
O8_2 C18_2 1_555 1_555
O8A Dy1A_3 1_555 1_555
C2 N1 1_555 1_555
C3 N2 1_555 1_555
C6 C7 1_555 1_555
C14 N4 1_555 1_555
C15 N3 1_555 1_555
C16 C17 1_555 1_555
C23 N6 1_555 1_555
C24 C25 1_555 1_555
C24 N5 1_555 1_555
Dy1 O5 1_555 1_555
Dy1 O6 1_555 1_555
Dy1 O7 1_555 1_555
Dy1 O8 1_555 1_555
C2A N1A 1_555 1_555
C3A N2A 1_555 1_555
C6A C7A 1_555 1_555
C9A O4A 1_555 1_555
C13A N4A 1_555 1_555
C14A N4A 1_555 1_555
C15A N3A 1_555 1_555
C16A C17A 1_555 1_555
C23_2 N6_2 1_555 1_555
C24_2 C25_2 1_555 1_555
C24_2 N5_2 1_555 1_555
Cu1A N2A 1_555 1_555
Cu1A N5_2 1_555 1_555
Dy1A_2 O3A 1_555 1_555
Dy1_2 O8_2 1_555 1_555
Dy1A_3 O2A 1_555 1_555
Dy1A_3 O5A 1_555 1_555
Dy1A_3 O6A 1_555 1_555

#END
