
#######################################################################
#
#                 Cambridge Crystallographic Data Centre
#                                CCDC 
#
#######################################################################
#
# If this CIF has been generated from an entry in the Cambridge 
# Structural Database, then it will include bibliographic, chemical, 
# crystal, experimental, refinement or atomic coordinate data resulting 
# from the CCDC's data processing and validation procedures.
#
#######################################################################

data_QURZOT
_symmetry_cell_setting           tetragonal
_symmetry_space_group_name_H-M   'I 4/m'
_symmetry_Int_Tables_number      87
_space_group_name_Hall           '-I 4'
loop_
_symmetry_equiv_pos_site_id
_symmetry_equiv_pos_as_xyz
1 x,y,z
2 -x,-y,z
3 -y,x,z
4 y,-x,z
5 1/2+x,1/2+y,1/2+z
6 1/2-x,1/2-y,1/2+z
7 1/2-y,1/2+x,1/2+z
8 1/2+y,1/2-x,1/2+z
9 -x,-y,-z
10 x,y,-z
11 y,-x,-z
12 -y,x,-z
13 1/2-x,1/2-y,1/2-z
14 1/2+x,1/2+y,1/2-z
15 1/2+y,1/2-x,1/2-z
16 1/2-y,1/2+x,1/2-z
_cell_length_a                   11.9761(3)
_cell_length_b                   11.9761(3)
_cell_length_c                   31.3992(13)
_cell_angle_alpha                90
_cell_angle_beta                 90
_cell_angle_gamma                90
_cell_volume                     4503.49
loop_
_atom_site_label
_atom_site_type_symbol
_atom_site_fract_x
_atom_site_fract_y
_atom_site_fract_z
O1 O 0.5567(7) 0.1827(9) 0.4342(3)
H1 H 0.5062 0.1200 0.4242
H2 H 0.6019 0.1375 0.4091
Pr1 Pr 0.90084(6) 0.20719(5) 0.5000
Pr2 Pr 1.0000 0.0000 0.41545(3)
S1 S 0.91091(17) 0.28244(16) 0.38478(5)
O2 O 1.0612(4) 0.1700(4) 0.45424(15)
O3 O 0.9293(4) 0.1651(4) 0.37509(17)
O4 O 0.8504(5) 0.2954(5) 0.42569(15)
O5 O 0.6396(5) 0.4304(4) 0.23977(16)
C1 C 0.6946(6) 0.3986(6) 0.2762(2)
C2 C 0.7709(6) 0.4739(6) 0.2935(2)
O6 O 1.0109(5) 0.3483(5) 0.38310(18)
C3 C 0.7409(6) 0.2606(6) 0.3273(2)
C4 C 0.8354(6) 0.4379(6) 0.3278(2)
C5 C 0.7883(6) 0.5883(6) 0.2753(2)
C6 C 0.8218(7) 0.3301(6) 0.3438(2)
O7 O 0.6946(8) 0.2597(10) 0.5000
C7 C 0.6759(6) 0.2933(6) 0.2933(2)
O9 O 1.0000 0.0000 0.5000
O10 O 0.9137(16) 0.4162(15) 0.5000
H3 H 0.8766 0.6063 0.2743
H4 H 0.7477 0.1849 0.3398
H5 H 0.8874 0.4863 0.3393
H6 H 0.7812 0.5738 0.2463
H7 H 0.5836 0.3833 0.2387
Pr1A Pr 1.09916(6) -0.20719(5) 0.5000
Pr1C Pr 1.20719(5) 0.09916(6) 0.5000
Pr1B Pr 0.79281(5) -0.09916(6) 0.5000
Pr1B_2 Pr 0.79281(5) 0.90084(6) 0.5000
Pr1A_2 Pr 0.09916(6) 0.79281(5) 0.5000
Pr1C_2 Pr 0.20719(5) 0.09916(6) 0.5000
Pr1C_3 Pr 1.20719(5) -0.90084(6) 0.5000
Pr1_2 Pr 1.90084(6) -0.79281(5) 0.5000
Pr1B_3 Pr 1.79281(5) -0.09916(6) 0.5000
Pr1_3 Pr 0.90084(6) 1.20719(5) 0.5000
Pr1C_4 Pr 1.20719(5) 1.09916(6) 0.5000
Pr1A_3 Pr 1.09916(6) 0.79281(5) 0.5000
Pr2_2 Pr 1.0000 1.0000 0.41545(3)
Pr2H Pr 1.0000 0.0000 0.58455(3)
Pr2_3 Pr 0.0000 1.0000 0.41545(3)
Pr2_4 Pr 0.0000 0.0000 0.41545(3)
Pr2_5 Pr 1.0000 -1.0000 0.41545(3)
Pr2_6 Pr 2.0000 -1.0000 0.41545(3)
Pr2_7 Pr 2.0000 0.0000 0.41545(3)
S1B S 0.71756(16) 0.91091(17) 0.38478(5)
S1A S 0.08909(17) 0.71756(16) 0.38478(5)
S1C S 0.28244(16) 0.08909(17) 0.38478(5)
S1A_2 S 1.08909(17) -0.28244(16) 0.38478(5)
S1C_2 S 1.28244(16) -0.91091(17) 0.38478(5)
S1_2 S 1.91091(17) -0.71756(16) 0.38478(5)
S1B_2 S 1.71756(16) -0.08909(17) 0.38478(5)
O2A O 0.9388(4) -0.1700(4) 0.45424(15)
O2C O 1.1700(4) -0.0612(4) 0.45424(15)
O2B O 0.8300(4) 0.0612(4) 0.45424(15)
O2I O 1.0612(4) 0.1700(4) 0.54576(15)
O2K O 0.8300(4) 0.0612(4) 0.54576(15)
O2B_2 O 0.8300(4) 1.0612(4) 0.45424(15)
O2C_2 O 1.1700(4) 0.9388(4) 0.45424(15)
O2_2 O 1.0612(4) 1.1700(4) 0.45424(15)
O2A_2 O 0.9388(4) 0.8300(4) 0.45424(15)
O2H O 0.9388(4) -0.1700(4) 0.54576(15)
O2J O 1.1700(4) -0.0612(4) 0.54576(15)
O3B O 0.8349(4) 0.9293(4) 0.37509(17)
O3A O 0.0707(4) 0.8349(4) 0.37509(17)
O3C O 0.1651(4) 0.0707(4) 0.37509(17)
O3A_2 O 1.0707(4) -0.1651(4) 0.37509(17)
O3C_2 O 1.1651(4) -0.9293(4) 0.37509(17)
O3_2 O 1.9293(4) -0.8349(4) 0.37509(17)
O3B_2 O 1.8349(4) -0.0707(4) 0.37509(17)
O3B_3 O 0.8349(4) -0.0707(4) 0.37509(17)
O3C_3 O 1.1651(4) 0.0707(4) 0.37509(17)
O3C_4 O 1.1651(4) 1.0707(4) 0.37509(17)
O3A_3 O 1.0707(4) 0.8349(4) 0.37509(17)
O3_3 O 0.9293(4) 1.1651(4) 0.37509(17)
O4B O 0.7046(5) 0.8504(5) 0.42569(15)
O4A O 0.1496(5) 0.7046(5) 0.42569(15)
O4C O 0.2954(5) 0.1496(5) 0.42569(15)
O4A_2 O 1.1496(5) -0.2954(5) 0.42569(15)
O4C_2 O 1.2954(5) -0.8504(5) 0.42569(15)
O4_2 O 1.8504(5) -0.7046(5) 0.42569(15)
O4B_2 O 1.7046(5) -0.1496(5) 0.42569(15)
O4I O 0.8504(5) 0.2954(5) 0.57431(15)
O4H O 1.1496(5) -0.2954(5) 0.57431(15)
O4C_3 O 1.2954(5) 0.1496(5) 0.42569(15)
O4J O 1.2954(5) 0.1496(5) 0.57431(15)
O4B_3 O 0.7046(5) -0.1496(5) 0.42569(15)
O4K O 0.7046(5) -0.1496(5) 0.57431(15)
O5B O 0.5696(4) 0.6396(5) 0.23977(16)
O5A O 0.3604(5) 0.5696(4) 0.23977(16)
O5C O 0.4304(4) 0.3604(5) 0.23977(16)
O5A_2 O 1.3604(5) -0.4304(4) 0.23977(16)
O5C_2 O 1.4304(4) -0.6396(5) 0.23977(16)
O5_2 O 1.6396(5) -0.5696(4) 0.23977(16)
O5B_2 O 1.5696(4) -0.3604(5) 0.23977(16)
C1B C 0.6014(6) 0.6946(6) 0.2762(2)
C1A C 0.3054(6) 0.6014(6) 0.2762(2)
C1C C 0.3986(6) 0.3054(6) 0.2762(2)
C1A_2 C 1.3054(6) -0.3986(6) 0.2762(2)
C1C_2 C 1.3986(6) -0.6946(6) 0.2762(2)
C1_2 C 1.6946(6) -0.6014(6) 0.2762(2)
C1B_2 C 1.6014(6) -0.3054(6) 0.2762(2)
C2B C 0.5261(6) 0.7709(6) 0.2935(2)
C2A C 0.2291(6) 0.5261(6) 0.2935(2)
C2C C 0.4739(6) 0.2291(6) 0.2935(2)
C2A_2 C 1.2291(6) -0.4739(6) 0.2935(2)
C2C_2 C 1.4739(6) -0.7709(6) 0.2935(2)
C2_2 C 1.7709(6) -0.5261(6) 0.2935(2)
C2B_2 C 1.5261(6) -0.2291(6) 0.2935(2)
O6B O 0.6517(5) 1.0109(5) 0.38310(18)
O6A O -0.0109(5) 0.6517(5) 0.38310(18)
O6C O 0.3483(5) -0.0109(5) 0.38310(18)
O6A_2 O 0.9891(5) -0.3483(5) 0.38310(18)
O6C_2 O 1.3483(5) -1.0109(5) 0.38310(18)
O6_2 O 2.0109(5) -0.6517(5) 0.38310(18)
O6B_2 O 1.6517(5) 0.0109(5) 0.38310(18)
C3B C 0.7394(6) 0.7409(6) 0.3273(2)
C3A C 0.2591(6) 0.7394(6) 0.3273(2)
C3C C 0.2606(6) 0.2591(6) 0.3273(2)
C3A_2 C 1.2591(6) -0.2606(6) 0.3273(2)
C3C_2 C 1.2606(6) -0.7409(6) 0.3273(2)
C3_2 C 1.7409(6) -0.7394(6) 0.3273(2)
C3B_2 C 1.7394(6) -0.2591(6) 0.3273(2)
C4B C 0.5621(6) 0.8354(6) 0.3278(2)
C4A C 0.1646(6) 0.5621(6) 0.3278(2)
C4C C 0.4379(6) 0.1646(6) 0.3278(2)
C4A_2 C 1.1646(6) -0.4379(6) 0.3278(2)
C4C_2 C 1.4379(6) -0.8354(6) 0.3278(2)
C4_2 C 1.8354(6) -0.5621(6) 0.3278(2)
C4B_2 C 1.5621(6) -0.1646(6) 0.3278(2)
C5B C 0.4117(6) 0.7883(6) 0.2753(2)
C5A C 0.2117(6) 0.4117(6) 0.2753(2)
C5C C 0.5883(6) 0.2117(6) 0.2753(2)
C5A_2 C 1.2117(6) -0.5883(6) 0.2753(2)
C5C_2 C 1.5883(6) -0.7883(6) 0.2753(2)
C5_2 C 1.7883(6) -0.4117(6) 0.2753(2)
C5B_2 C 1.4117(6) -0.2117(6) 0.2753(2)
C6B C 0.6699(6) 0.8218(7) 0.3438(2)
C6A C 0.1782(7) 0.6699(6) 0.3438(2)
C6C C 0.3301(6) 0.1782(7) 0.3438(2)
C6A_2 C 1.1782(7) -0.3301(6) 0.3438(2)
C6C_2 C 1.3301(6) -0.8218(7) 0.3438(2)
C6_2 C 1.8218(7) -0.6699(6) 0.3438(2)
C6B_2 C 1.6699(6) -0.1782(7) 0.3438(2)
O7A O 1.3054(8) -0.2597(10) 0.5000
O7C O 1.2597(10) 0.3054(8) 0.5000
O7B O 0.7403(10) -0.3054(8) 0.5000
C7B C 0.7067(6) 0.6759(6) 0.2933(2)
C7A C 0.3241(6) 0.7067(6) 0.2933(2)
C7C C 0.2933(6) 0.3241(6) 0.2933(2)
C7A_2 C 1.3241(6) -0.2933(6) 0.2933(2)
C7C_2 C 1.2933(6) -0.6759(6) 0.2933(2)
C7_2 C 1.6759(6) -0.7067(6) 0.2933(2)
C7B_2 C 1.7067(6) -0.3241(6) 0.2933(2)
O9_2 O 1.0000 1.0000 0.5000
O10A O 1.0863(16) -0.4162(15) 0.5000
O10C O 1.4162(15) 0.0863(16) 0.5000
O10B O 0.5838(15) -0.0863(16) 0.5000
H3B H 0.3937 0.8766 0.2743
H3A H 0.1234 0.3937 0.2743
H3C H 0.6063 0.1234 0.2743
H3A_2 H 1.1234 -0.6063 0.2743
H3C_2 H 1.6063 -0.8766 0.2743
H3_2 H 1.8766 -0.3937 0.2743
H3B_2 H 1.3937 -0.1234 0.2743
H4B H 0.8151 0.7477 0.3398
H4A H 0.2523 0.8151 0.3398
H4C H 0.1849 0.2523 0.3398
H4A_2 H 1.2523 -0.1849 0.3398
H4C_2 H 1.1849 -0.7477 0.3398
H4_2 H 1.7477 -0.8151 0.3398
H4B_2 H 1.8151 -0.2523 0.3398
H5B H 0.5137 0.8874 0.3393
H5A H 0.1126 0.5137 0.3393
H5C H 0.4863 0.1126 0.3393
H5A_2 H 1.1126 -0.4863 0.3393
H5C_2 H 1.4863 -0.8874 0.3393
H5_2 H 1.8874 -0.5137 0.3393
H5B_2 H 1.5137 -0.1126 0.3393
H6B H 0.4262 0.7812 0.2463
H6A H 0.2188 0.4262 0.2463
H6C H 0.5738 0.2188 0.2463
H6A_2 H 1.2188 -0.5738 0.2463
H6C_2 H 1.5738 -0.7812 0.2463
H6_2 H 1.7812 -0.4262 0.2463
H6B_2 H 1.4262 -0.2188 0.2463
H7B H 0.6167 0.5836 0.2387
H7A H 0.4164 0.6167 0.2387
H7C H 0.3833 0.4164 0.2387
H7A_2 H 1.4164 -0.3833 0.2387
H7C_2 H 1.3833 -0.5836 0.2387
H7_2 H 1.5836 -0.6167 0.2387
H7B_2 H 1.6167 -0.4164 0.2387
O8? O 0.994(3) 0.404(3) 0.5000
O11? O 1.0000 0.0000 0.3282(19)
loop_
_geom_bond_atom_site_label_1
_geom_bond_atom_site_label_2
_geom_bond_site_symmetry_1
_geom_bond_site_symmetry_2
O1 H1 1_555 1_555
Pr1 O2 1_555 1_555
Pr2 O2 1_555 1_555
S1 O3 1_555 1_555
O2 Pr1C 1_555 1_555
O3 Pr2 1_555 1_555
O4 Pr1 1_555 1_555
O5 C1 1_555 1_555
C1 C2 1_555 1_555
C2 C4 1_555 1_555
O6 S1 1_555 1_555
C3 C6 1_555 1_555
C4 C6 1_555 1_555
C5 C2 1_555 1_555
C6 S1 1_555 1_555
O7 Pr1 1_555 1_555
C7 C1 1_555 1_555
O9 Pr1 1_555 1_555
O10 Pr1 1_555 1_555
H2 O1 1_555 1_555
H3 C5 1_555 1_555
H4 C3 1_555 1_555
H5 C4 1_555 1_555
H6 C5 1_555 1_555
H7 O5 1_555 1_555
Pr1A O9 1_555 1_555
Pr1C O9 1_555 1_555
Pr1B O9 1_555 1_555
Pr1B_2 O2B_2 1_555 1_555
Pr1A_2 O4A 1_555 1_555
Pr1C_2 O4C 1_555 1_555
Pr1C_3 O4C_2 1_555 1_555
Pr1_2 O4_2 1_555 1_555
Pr1B_3 O4B_2 1_555 1_555
Pr1_3 O2B_2 1_555 1_555
Pr1C_4 O2C_2 1_555 1_555
Pr1A_3 O2C_2 1_555 1_555
Pr2_2 O2B_2 1_555 1_555
Pr2H O9 1_555 1_555
Pr2_3 O3A 1_555 1_555
Pr2_4 O3C 1_555 1_555
Pr2_5 O3C_2 1_555 1_555
Pr2_6 O3_2 1_555 1_555
Pr2_7 O3B_2 1_555 1_555
S1B O3B 1_555 1_555
S1A O3A 1_555 1_555
S1C O3C 1_555 1_555
S1A_2 O3A_2 1_555 1_555
S1C_2 O3C_2 1_555 1_555
S1_2 O3_2 1_555 1_555
S1B_2 O3B_2 1_555 1_555
O2A Pr2 1_555 1_555
O2C Pr2 1_555 1_555
O2B Pr1 1_555 1_555
O2I Pr1 1_555 1_555
O2K Pr1 1_555 1_555
O2C_2 Pr2_2 1_555 1_555
O2_2 Pr1_3 1_555 1_555
O2A_2 Pr1B_2 1_555 1_555
O2H Pr1A 1_555 1_555
O2J Pr1A 1_555 1_555
O3B Pr2_2 1_555 1_555
O3A_2 Pr2 1_555 1_555
O3B_3 Pr2 1_555 1_555
O3C_3 Pr2 1_555 1_555
O3C_4 Pr2_2 1_555 1_555
O3A_3 Pr2_2 1_555 1_555
O3_3 Pr2_2 1_555 1_555
O4B Pr1B_2 1_555 1_555
O4A S1A 1_555 1_555
O4C S1C 1_555 1_555
O4A_2 Pr1A 1_555 1_555
O4C_2 S1C_2 1_555 1_555
O4_2 S1_2 1_555 1_555
O4B_2 S1B_2 1_555 1_555
O4I Pr1 1_555 1_555
O4H Pr1A 1_555 1_555
O4C_3 Pr1C 1_555 1_555
O4J Pr1C 1_555 1_555
O4B_3 Pr1B 1_555 1_555
O4K Pr1B 1_555 1_555
O5B C1B 1_555 1_555
O5A C1A 1_555 1_555
O5C C1C 1_555 1_555
O5A_2 C1A_2 1_555 1_555
O5C_2 C1C_2 1_555 1_555
O5_2 C1_2 1_555 1_555
O5B_2 C1B_2 1_555 1_555
C1B C2B 1_555 1_555
C1A C2A 1_555 1_555
C1C C2C 1_555 1_555
C1A_2 C2A_2 1_555 1_555
C1C_2 C2C_2 1_555 1_555
C1_2 C2_2 1_555 1_555
C1B_2 C2B_2 1_555 1_555
C2B C4B 1_555 1_555
C2A C4A 1_555 1_555
C2C C4C 1_555 1_555
C2A_2 C4A_2 1_555 1_555
C2C_2 C4C_2 1_555 1_555
C2_2 C4_2 1_555 1_555
C2B_2 C4B_2 1_555 1_555
O6B S1B 1_555 1_555
O6A S1A 1_555 1_555
O6C S1C 1_555 1_555
O6A_2 S1A_2 1_555 1_555
O6C_2 S1C_2 1_555 1_555
O6_2 S1_2 1_555 1_555
O6B_2 S1B_2 1_555 1_555
C3B C6B 1_555 1_555
C3A C6A 1_555 1_555
C3C C6C 1_555 1_555
C3A_2 C6A_2 1_555 1_555
C3C_2 C6C_2 1_555 1_555
C3_2 C6_2 1_555 1_555
C3B_2 C6B_2 1_555 1_555
C4B C6B 1_555 1_555
C4A C6A 1_555 1_555
C4C C6C 1_555 1_555
C4A_2 C6A_2 1_555 1_555
C4C_2 C6C_2 1_555 1_555
C4_2 C6_2 1_555 1_555
C4B_2 C6B_2 1_555 1_555
C5B C2B 1_555 1_555
C5A C2A 1_555 1_555
C5C C7 1_555 1_555
C5A_2 C2A_2 1_555 1_555
C5C_2 C2C_2 1_555 1_555
C5_2 C2_2 1_555 1_555
C5B_2 C2B_2 1_555 1_555
C6B S1B 1_555 1_555
C6A S1A 1_555 1_555
C6C S1C 1_555 1_555
C6A_2 S1A_2 1_555 1_555
C6C_2 S1C_2 1_555 1_555
C6_2 S1_2 1_555 1_555
C6B_2 S1B_2 1_555 1_555
O7A Pr1A 1_555 1_555
O7C Pr1C 1_555 1_555
O7B Pr1B 1_555 1_555
C7B C5 1_555 1_555
C7A C1A 1_555 1_555
C7C C1C 1_555 1_555
C7A_2 C1A_2 1_555 1_555
C7C_2 C1C_2 1_555 1_555
C7_2 C1_2 1_555 1_555
C7B_2 C1B_2 1_555 1_555
O9_2 Pr1B_2 1_555 1_555
O10A Pr1A 1_555 1_555
O10C Pr1C 1_555 1_555
O10B Pr1B 1_555 1_555
H3B C5B 1_555 1_555
H3A C5A 1_555 1_555
H3C C5C 1_555 1_555
H3A_2 C5A_2 1_555 1_555
H3C_2 C5C_2 1_555 1_555
H3_2 C5_2 1_555 1_555
H3B_2 C5B_2 1_555 1_555
H4B C3B 1_555 1_555
H4A C3A 1_555 1_555
H4C C3C 1_555 1_555
H4A_2 C3A_2 1_555 1_555
H4C_2 C3C_2 1_555 1_555
H4_2 C3_2 1_555 1_555
H4B_2 C3B_2 1_555 1_555
H5B C4B 1_555 1_555
H5A C4A 1_555 1_555
H5C C4C 1_555 1_555
H5A_2 C4A_2 1_555 1_555
H5C_2 C4C_2 1_555 1_555
H5_2 C4_2 1_555 1_555
H5B_2 C4B_2 1_555 1_555
H6B C5B 1_555 1_555
H6A C5A 1_555 1_555
H6C C5C 1_555 1_555
H6A_2 C5A_2 1_555 1_555
H6C_2 C5C_2 1_555 1_555
H6_2 C5_2 1_555 1_555
H6B_2 C5B_2 1_555 1_555
H7B O5B 1_555 1_555
H7A O5A 1_555 1_555
H7C O5C 1_555 1_555
H7A_2 O5A_2 1_555 1_555
H7C_2 O5C_2 1_555 1_555
H7_2 O5_2 1_555 1_555
H7B_2 O5B_2 1_555 1_555
Pr2 O9 1_555 1_555
Pr2 O2B 1_555 1_555
S1 O4 1_555 1_555
C3 C7 1_555 1_555
Pr1A O2A 1_555 1_555
Pr1A O2C 1_555 1_555
Pr1C O2C 1_555 1_555
Pr1C O2I 1_555 1_555
Pr1C O2J 1_555 1_555
Pr1B O2A 1_555 1_555
Pr1B O2B 1_555 1_555
Pr1B O2K 1_555 1_555
Pr1B O2H 1_555 1_555
Pr1_3 O9_2 1_555 1_555
Pr1C_4 O2_2 1_555 1_555
Pr1C_4 O9_2 1_555 1_555
Pr1A_3 O2A_2 1_555 1_555
Pr1A_3 O9_2 1_555 1_555
Pr2_2 O2_2 1_555 1_555
Pr2_2 O2A_2 1_555 1_555
Pr2_2 O9_2 1_555 1_555
Pr2H O2I 1_555 1_555
Pr2H O2K 1_555 1_555
Pr2H O2H 1_555 1_555
Pr2H O2J 1_555 1_555
S1B O4B 1_555 1_555
S1A_2 O4A_2 1_555 1_555
C1B C7B 1_555 1_555
C2C C5C 1_555 1_555
C3B C7B 1_555 1_555
C3A C7A 1_555 1_555
C3C C7C 1_555 1_555
C3A_2 C7A_2 1_555 1_555
C3C_2 C7C_2 1_555 1_555
C3_2 C7_2 1_555 1_555
C3B_2 C7B_2 1_555 1_555
C5B C7A 1_555 1_555
C5A C7C 1_555 1_555
C5A_2 C7C_2 1_555 1_555
C5C_2 C7_2 1_555 1_555
C5_2 C7B_2 1_555 1_555
C5B_2 C7A_2 1_555 1_555

#END
