
#######################################################################
#
#                 Cambridge Crystallographic Data Centre
#                                CCDC 
#
#######################################################################
#
# If this CIF has been generated from an entry in the Cambridge 
# Structural Database, then it will include bibliographic, chemical, 
# crystal, experimental, refinement or atomic coordinate data resulting 
# from the CCDC's data processing and validation procedures.
#
#######################################################################

data_QURZAF
_symmetry_cell_setting           triclinic
_symmetry_space_group_name_H-M   'P -1'
_symmetry_Int_Tables_number      2
_space_group_name_Hall           '-P 1'
loop_
_symmetry_equiv_pos_site_id
_symmetry_equiv_pos_as_xyz
1 x,y,z
2 -x,-y,-z
_cell_length_a                   7.64460(10)
_cell_length_b                   12.53720(10)
_cell_length_c                   14.08460(10)
_cell_angle_alpha                70.4170(10)
_cell_angle_beta                 87.9190(10)
_cell_angle_gamma                81.0570(10)
_cell_volume                     1256.17
loop_
_atom_site_label
_atom_site_type_symbol
_atom_site_fract_x
_atom_site_fract_y
_atom_site_fract_z
C1 C -0.4155(5) 0.3741(3) 1.1941(3)
H1 H -0.4705 0.3456 1.2555
C2 C -0.3202(4) 0.4968(3) 1.0588(2)
C3 C -0.2736(5) 0.5907(3) 0.9824(3)
H2 H -0.3076 0.6649 0.9834
C4 C -0.1751(5) 0.5697(3) 0.9053(3)
H3 H -0.1407 0.6309 0.8534
C5 C -0.1246(4) 0.4575(3) 0.9026(2)
C6 C -0.0184(4) 0.4404(3) 0.8168(2)
C7 C -0.1703(4) 0.3648(3) 0.9796(2)
H4 H -0.1365 0.2907 0.9785
C8 C -0.2672(4) 0.3844(3) 1.0585(2)
C9 C -0.1442(5) -0.0647(3) 1.1502(3)
H5 H -0.0955 -0.0990 1.2148
C10 C -0.2824(4) 0.0569(3) 1.0190(2)
C11 C -0.3838(4) 0.1501(3) 0.9495(2)
H6 H -0.4231 0.2169 0.9640
C12 C -0.4245(4) 0.1403(3) 0.8582(2)
C13 C -0.5446(4) 0.2356(3) 0.7847(2)
C14 C -0.3632(5) 0.0395(3) 0.8364(2)
H7 H -0.3931 0.0352 0.7745
C15 C -0.2600(5) -0.0532(3) 0.9038(2)
H8 H -0.2179 -0.1192 0.8885
C16 C -0.2222(4) -0.0427(3) 0.9959(2)
C17 C -0.3117(5) -0.0372(3) 1.3914(3)
H9 H -0.3445 -0.0817 1.3558
C18 C -0.1806(4) 0.2050(3) 1.4284(2)
H10 H -0.1778 0.2666 1.3692
C19 C -0.1332(4) 0.2115(3) 1.5198(2)
C20 C -0.0629(4) 0.3143(3) 1.5269(2)
C21 C -0.1408(5) 0.1178(3) 1.6095(2)
H11 H -0.1105 0.1245 1.6704
C22 C -0.1911(5) 0.0174(3) 1.6099(3)
H12 H -0.1945 -0.0441 1.6692
C23 C -0.2367(4) 0.0121(3) 1.5174(2)
C24 C 0.5328(5) 0.5279(3) 0.5365(2)
C25 C -0.2329(4) 0.1035(3) 1.4271(2)
Cu1 Cu -0.28089(6) 0.14237(3) 1.19830(3)
N1 N -0.4159(4) 0.4861(2) 1.1449(2)
H13 H -0.4670 0.5414 1.1641
N2 N -0.3292(4) 0.3090(2) 1.1461(2)
N3 N -0.2293(4) 0.0406(2) 1.1175(2)
N4 N -0.1341(4) -0.1180(2) 1.0819(2)
H14 H -0.0822 -0.1865 1.0901
N5 N -0.2889(4) -0.0749(2) 1.4916(2)
H15 H -0.3042 -0.1412 1.5323
N6 N -0.2829(4) 0.0692(2) 1.3481(2)
O1 O 0.0377(3) 0.52401(19) 0.75182(17)
O2 O 0.0182(3) 0.34095(18) 0.80981(17)
O3 O -0.5956(3) 0.32661(18) 0.80428(17)
O4 O -0.5998(3) 0.22354(19) 0.70659(17)
O5 O 0.0229(3) 0.30243(19) 1.60559(17)
O6 O -0.0892(3) 0.40623(19) 1.45463(17)
O7 O 0.4596(3) 0.5098(2) 0.61986(17)
O8 O 0.6551(3) 0.5862(2) 0.50511(17)
Sm1 Sm 0.20229(2) 0.412265(13) 0.653539(12)
C1A C 0.4155(5) 0.6259(3) 0.8059(3)
H1A H 0.4705 0.6544 0.7445
C2A C 0.3202(4) 0.5032(3) 0.9412(2)
C3A C 0.2736(5) 0.4093(3) 1.0176(3)
H2A H 0.3076 0.3351 1.0166
C4A C 0.1751(5) 0.4303(3) 1.0947(3)
H3A H 0.1407 0.3691 1.1466
C5A C 0.1246(4) 0.5425(3) 1.0974(2)
C6A C 0.0184(4) 0.5596(3) 1.1832(2)
C7A C 0.1703(4) 0.6352(3) 1.0204(2)
H4A H 0.1365 0.7093 1.0215
C8A C 0.2672(4) 0.6156(3) 0.9415(2)
C9_2 C 0.8558(5) -0.0647(3) 1.1502(3)
H5_2 H 0.9045 -0.0990 1.2148
C10_2 C 0.7176(4) 0.0569(3) 1.0190(2)
C11_2 C 0.6162(4) 0.1501(3) 0.9495(2)
H6_2 H 0.5769 0.2169 0.9640
C12_2 C 0.5755(4) 0.1403(3) 0.8582(2)
C13_2 C 0.4554(4) 0.2356(3) 0.7847(2)
C14_2 C 0.6368(5) 0.0395(3) 0.8364(2)
H7_2 H 0.6069 0.0352 0.7745
C15_2 C 0.7400(5) -0.0532(3) 0.9038(2)
H8_2 H 0.7821 -0.1192 0.8885
C16_2 C 0.7778(4) -0.0427(3) 0.9959(2)
C17A C 0.3117(5) 1.0372(3) 0.6086(3)
H9A H 0.3445 1.0817 0.6442
C18A C 0.1806(4) 0.7950(3) 0.5716(2)
H10A H 0.1778 0.7334 0.6308
C19A C 0.1332(4) 0.7885(3) 0.4802(2)
C20A C 0.0629(4) 0.6857(3) 0.4731(2)
C21A C 0.1408(5) 0.8822(3) 0.3905(2)
H11A H 0.1105 0.8755 0.3296
C22A C 0.1911(5) 0.9826(3) 0.3901(3)
H12A H 0.1945 1.0441 0.3308
C23A C 0.2367(4) 0.9879(3) 0.4826(2)
C24A C 0.4672(5) 0.4721(3) 0.4635(2)
C25A C 0.2329(4) 0.8965(3) 0.5729(2)
Cu1A Cu 0.28089(6) 0.85763(3) 0.80170(3)
Cu1_2 Cu 0.71911(6) 0.14237(3) 1.19830(3)
N1A N 0.4159(4) 0.5139(2) 0.8551(2)
H13A H 0.4670 0.4586 0.8359
N2A N 0.3292(4) 0.6910(2) 0.8539(2)
N3_2 N 0.7707(4) 0.0406(2) 1.1175(2)
N3A N 0.2293(4) 0.9594(2) 0.8825(2)
N4_2 N 0.8659(4) -0.1180(2) 1.0819(2)
H14_2 H 0.9178 -0.1865 1.0901
N5A N 0.2889(4) 1.0749(2) 0.5084(2)
H15A H 0.3042 1.1412 0.4677
N6A N 0.2829(4) 0.9308(2) 0.6519(2)
O1A O -0.0377(3) 0.47599(19) 1.24818(17)
O2A O -0.0182(3) 0.65905(18) 1.19019(17)
O3_2 O 0.4044(3) 0.32661(18) 0.80428(17)
O3A O -0.4044(3) 0.67339(18) 1.19572(17)
O4_2 O 0.4002(3) 0.22354(19) 0.70659(17)
O4A O -0.4002(3) 0.77646(19) 1.29341(17)
O5A O -0.0229(3) 0.69757(19) 0.39441(17)
O5_2 O 0.0229(3) 0.30243(19) 0.60559(17)
O5A_2 O -0.0229(3) 0.69757(19) 1.39441(17)
O6A O 0.0892(3) 0.59377(19) 0.54537(17)
O7A O 0.5404(3) 0.4902(2) 0.38014(17)
O7A_2 O -0.4596(3) 0.4902(2) 1.38014(17)
O8A O 0.3449(3) 0.4138(2) 0.49489(17)
O8_2 O -0.3449(3) 0.5862(2) 1.50511(17)
Sm1A Sm -0.20229(2) 0.587735(13) 1.346461(12)
Sm1_2 Sm -0.79771(2) 0.412265(13) 0.653539(12)
Sm1_3 Sm 0.20229(2) 0.412265(13) 1.653539(12)
Sm1A_2 Sm 0.79771(2) 0.587735(13) 0.346461(12)
Sm1A_3 Sm -0.20229(2) 0.587735(13) 0.346461(12)
O9 O 0.2664(4) 0.2991(2) 0.36762(19)
H16 H 0.170(3) 0.334(2) 0.337(2)
H17 H 0.296(4) 0.340(2) 0.399(2)
loop_
_geom_bond_atom_site_label_1
_geom_bond_atom_site_label_2
_geom_bond_site_symmetry_1
_geom_bond_site_symmetry_2
C1 H1 1_555 1_555
C2 C3 1_555 1_555
C3 H2 1_555 1_555
C4 C3 1_555 1_555
H3 C4 1_555 1_555
C5 C4 1_555 1_555
C6 C5 1_555 1_555
C7 C5 1_555 1_555
H4 C7 1_555 1_555
C8 C2 1_555 1_555
C9 H5 1_555 1_555
C10 C11 1_555 1_555
C11 H6 1_555 1_555
C12 C11 1_555 1_555
C13 C12 1_555 1_555
C14 C12 1_555 1_555
H7 C14 1_555 1_555
C15 C14 1_555 1_555
H8 C15 1_555 1_555
C16 C10 1_555 1_555
C17 H9 1_555 1_555
C18 H10 1_555 1_555
C19 C18 1_555 1_555
C20 C19 1_555 1_555
C21 C19 1_555 1_555
H11 C21 1_555 1_555
C22 C21 1_555 1_555
H12 C22 1_555 1_555
C23 C22 1_555 1_555
C24 O7 1_555 1_555
C25 C18 1_555 1_555
Cu1 N2 1_555 1_555
N1 C1 1_555 1_555
H13 N1 1_555 1_555
N2 C1 1_555 1_555
N3 C9 1_555 1_555
N4 C9 1_555 1_555
H14 N4 1_555 1_555
N5 C17 1_555 1_555
H15 N5 1_555 1_555
N6 C17 1_555 1_555
O1 C6 1_555 1_555
O2 C6 1_555 1_555
O3 C13 1_555 1_555
O4 C13 1_555 1_555
O5 C20 1_555 1_555
O6 C20 1_555 1_555
O7 Sm1 1_555 1_555
O8 C24 1_555 1_555
O9 H16 1_555 1_555
Sm1 O1 1_555 1_555
H17 O9 1_555 1_555
C1A H1A 1_555 1_555
C2A C3A 1_555 1_555
C3A H2A 1_555 1_555
C4A C3A 1_555 1_555
H3A C4A 1_555 1_555
C5A C4A 1_555 1_555
C6A C5A 1_555 1_555
C7A C5A 1_555 1_555
H4A C7A 1_555 1_555
C8A C2A 1_555 1_555
C9_2 H5_2 1_555 1_555
C10_2 C11_2 1_555 1_555
C11_2 H6_2 1_555 1_555
C12_2 C11_2 1_555 1_555
C13_2 C12_2 1_555 1_555
C14_2 C12_2 1_555 1_555
H7_2 C14_2 1_555 1_555
C15_2 C14_2 1_555 1_555
H8_2 C15_2 1_555 1_555
C16_2 C10_2 1_555 1_555
C17A H9A 1_555 1_555
C18A H10A 1_555 1_555
C19A C18A 1_555 1_555
C20A C19A 1_555 1_555
C21A C19A 1_555 1_555
H11A C21A 1_555 1_555
C22A C21A 1_555 1_555
H12A C22A 1_555 1_555
C23A C22A 1_555 1_555
C24A C24 1_555 1_555
C25A C18A 1_555 1_555
Cu1A N2A 1_555 1_555
Cu1_2 N3_2 1_555 1_555
N1A C1A 1_555 1_555
H13A N1A 1_555 1_555
N2A C1A 1_555 1_555
N3_2 C9_2 1_555 1_555
N3A Cu1A 1_555 1_555
N4_2 C9_2 1_555 1_555
H14_2 N4_2 1_555 1_555
N5A C17A 1_555 1_555
H15A N5A 1_555 1_555
N6A C17A 1_555 1_555
O1A C6A 1_555 1_555
O2A C6A 1_555 1_555
O3_2 Sm1 1_555 1_555
O3A Sm1A 1_555 1_555
O4_2 Sm1 1_555 1_555
O4A Sm1A 1_555 1_555
O5A C20A 1_555 1_555
O5_2 Sm1 1_555 1_555
O5A_2 Sm1A 1_555 1_555
O6A Sm1 1_555 1_555
O7A C24A 1_555 1_555
O7A_2 Sm1A 1_555 1_555
O8A Sm1 1_555 1_555
O8_2 Sm1A 1_555 1_555
Sm1A O6 1_555 1_555
Sm1_2 O3 1_555 1_555
Sm1_3 O5 1_555 1_555
Sm1A_2 O8 1_555 1_555
Sm1A_3 O5A 1_555 1_555
C2 N1 1_555 1_555
C7 C8 1_555 1_555
C8 N2 1_555 1_555
C10 N3 1_555 1_555
C15 C16 1_555 1_555
C16 N4 1_555 1_555
C23 C25 1_555 1_555
C23 N5 1_555 1_555
C25 N6 1_555 1_555
Cu1 N3 1_555 1_555
Cu1 N6 1_555 1_555
O2 Sm1 1_555 1_555
O4 Sm1_2 1_555 1_555
C2A N1A 1_555 1_555
C7A C8A 1_555 1_555
C8A N2A 1_555 1_555
C10_2 N3_2 1_555 1_555
C13_2 O3_2 1_555 1_555
C13_2 O4_2 1_555 1_555
C15_2 C16_2 1_555 1_555
C16_2 N4_2 1_555 1_555
C20A O6A 1_555 1_555
C23A C25A 1_555 1_555
C23A N5A 1_555 1_555
C24A O8A 1_555 1_555
C25A N6A 1_555 1_555
Cu1A N6A 1_555 1_555
O1A Sm1A 1_555 1_555
O2A Sm1A 1_555 1_555
O7A Sm1A_2 1_555 1_555

#END
