
#######################################################################
#
#                 Cambridge Crystallographic Data Centre
#                                CCDC 
#
#######################################################################
#
# If this CIF has been generated from an entry in the Cambridge 
# Structural Database, then it will include bibliographic, chemical, 
# crystal, experimental, refinement or atomic coordinate data resulting 
# from the CCDC's data processing and validation procedures.
#
#######################################################################

data_QUSBUC
_symmetry_cell_setting           monoclinic
_symmetry_space_group_name_H-M   'C c'
_symmetry_Int_Tables_number      9
_space_group_name_Hall           'C -2yc'
loop_
_symmetry_equiv_pos_site_id
_symmetry_equiv_pos_as_xyz
1 x,y,z
2 x,-y,1/2+z
3 1/2+x,1/2+y,z
4 1/2+x,1/2-y,1/2+z
_cell_length_a                   14.141(4)
_cell_length_b                   14.517(3)
_cell_length_c                   13.029(3)
_cell_angle_alpha                90
_cell_angle_beta                 99.737(4)
_cell_angle_gamma                90
_cell_volume                     2636.13
loop_
_atom_site_label
_atom_site_type_symbol
_atom_site_fract_x
_atom_site_fract_y
_atom_site_fract_z
Cd1 Cd 0.63919(6) 0.839778(15) 0.56949(6)
O1 O 0.6964(4) 0.7708(4) 0.4282(4)
O2 O 0.7718(4) 0.7242(4) 0.5789(5)
O3 O 1.0023(4) 0.4538(4) 0.5782(5)
O4 O 1.0570(4) 0.4266(4) 0.4338(4)
O5 O 0.5923(4) 0.7711(3) 0.7166(5)
O6 O 0.5261(5) 0.7129(5) 0.5637(6)
O7 O 0.2311(4) 0.4210(3) 0.7028(4)
H1 H 0.2295 0.4187 0.7738
O8 O 0.2821(5) 0.4592(4) 0.5586(5)
O9 O 0.8695(4) 0.6415(4) 0.1646(4)
H2 H 0.9103 0.6120 0.1409
O10 O 0.4208(4) 0.6247(4) 0.9796(4)
H3 H 0.3765 0.5972 0.9994
C1 C 0.7601(5) 0.7210(4) 0.4839(6)
C2 C 0.8236(6) 0.6619(3) 0.4283(7)
C3 C 0.8189(7) 0.6737(5) 0.3185(8)
H6 H 0.7771 0.7167 0.2825
C4 C 0.8753(6) 0.6219(5) 0.2673(6)
C5 C 0.9353(5) 0.5567(4) 0.3206(6)
H7 H 0.9762 0.5238 0.2851
C6 C 0.9370(6) 0.5385(5) 0.4259(6)
C7 C 0.8799(5) 0.5949(4) 0.4814(5)
H8 H 0.8809 0.5862 0.5523
C8 C 1.0002(5) 0.4667(5) 0.4825(6)
C9 C 0.5364(6) 0.7178(5) 0.6648(7)
C10 C 0.4777(6) 0.6542(4) 0.7197(8)
C11 C 0.4763(7) 0.6664(4) 0.8224(9)
H9 H 0.5161 0.7107 0.8588
C12 C 0.4152(5) 0.6131(5) 0.8766(6)
C13 C 0.3532(5) 0.5475(5) 0.8207(6)
H10 H 0.3132 0.5113 0.8538
C14 C 0.3537(5) 0.5386(5) 0.7137(6)
C15 C 0.4153(6) 0.5875(5) 0.6654(6)
H11 H 0.4165 0.5770 0.5952
C16 C 0.2847(6) 0.4700(5) 0.6546(6)
Cd1B Cd 1.13919(6) 0.339778(15) 0.56949(6)
Cd1B_2 Cd 0.13919(6) 0.339778(15) 0.56949(6)
O3B O 0.5023(4) 0.9538(4) 0.5782(5)
O4B O 0.5570(4) 0.9266(4) 0.4338(4)
O7B O 0.7311(4) 0.9210(3) 0.7028(4)
H1B H 0.7295 0.9187 0.7738
O11 O 0.7190(5) 0.3967(4) 0.3634(5)
N2 N 0.6580(4) 0.4879(4) 0.4753(5)
C19 C 0.7107(6) 0.4200(5) 0.4501(6)
H18 H 0.7452 0.3864 0.5048
C20 C 0.5980(6) 0.5487(5) 0.3992(6)
H19 H 0.6079 0.5336 0.3301
H20 H 0.6156 0.6118 0.4141
H21 H 0.5316 0.5401 0.4042
C21 C 0.6510(7) 0.5030(5) 0.5817(8)
H22 H 0.6922 0.4607 0.6247
H23 H 0.5859 0.4936 0.5914
H24 H 0.6701 0.5650 0.6007
O12 O 1.0582(4) 0.6949(3) 0.7561(4)
C22 C 1.0320(6) 0.7770(5) 0.6857(6)
O13 O 0.8696(4) 0.6458(3) 0.7487(4)
N1 N 0.7444(4) 0.8034(4) 0.8698(5)
H4 H 0.7204 0.7461 0.8595
H5 H 0.7447 0.8286 0.8067
C17 C 0.8429(6) 0.7965(5) 0.9232(7)
H12 H 0.8791 0.7594 0.8828
H13 H 0.8441 0.7687 0.9903
H14 H 0.8706 0.8570 0.9319
C18 C 0.6717(4) 0.8640(4) 0.9298(5)
H15 H 0.6086 0.8644 0.8886
H16 H 0.6950 0.9261 0.9392
H17 H 0.6691 0.8370 0.9965
loop_
_geom_bond_atom_site_label_1
_geom_bond_atom_site_label_2
_geom_bond_site_symmetry_1
_geom_bond_site_symmetry_2
Cd1 O1 1_555 1_555
O1 C1 1_555 1_555
O2 Cd1 1_555 1_555
O3 C8 1_555 1_555
O4 C8 1_555 1_555
O5 Cd1 1_555 1_555
O6 Cd1 1_555 1_555
O7 H1 1_555 1_555
O8 C16 1_555 1_555
O9 H2 1_555 1_555
O10 H3 1_555 1_555
O11 C19 1_555 1_555
O12 C22 1_555 1_555
N1 H4 1_555 1_555
H5 N1 1_555 1_555
N2 C19 1_555 1_555
C1 O2 1_555 1_555
C2 C1 1_555 1_555
C3 C2 1_555 1_555
H6 C3 1_555 1_555
C4 O9 1_555 1_555
C5 C4 1_555 1_555
H7 C5 1_555 1_555
C6 C5 1_555 1_555
C7 C2 1_555 1_555
H8 C7 1_555 1_555
C8 C6 1_555 1_555
C9 O5 1_555 1_555
C10 C9 1_555 1_555
C11 C10 1_555 1_555
H9 C11 1_555 1_555
C12 O10 1_555 1_555
C13 C12 1_555 1_555
H10 C13 1_555 1_555
C14 C13 1_555 1_555
C15 C10 1_555 1_555
H11 C15 1_555 1_555
C16 O7 1_555 1_555
C17 N1 1_555 1_555
H12 C17 1_555 1_555
H13 C17 1_555 1_555
H14 C17 1_555 1_555
C18 N1 1_555 1_555
H15 C18 1_555 1_555
H16 C18 1_555 1_555
H17 C18 1_555 1_555
C19 H18 1_555 1_555
C20 N2 1_555 1_555
H19 C20 1_555 1_555
H20 C20 1_555 1_555
H21 C20 1_555 1_555
C21 N2 1_555 1_555
H22 C21 1_555 1_555
H23 C21 1_555 1_555
H24 C21 1_555 1_555
Cd1B O3 1_555 1_555
Cd1B_2 O7 1_555 1_555
O3B Cd1 1_555 1_555
O4B Cd1 1_555 1_555
O7B Cd1 1_555 1_555
H1B O7B 1_555 1_555
O4 Cd1B 1_555 1_555
O6 C9 1_555 1_555
C3 C4 1_555 1_555
C6 C7 1_555 1_555
C11 C12 1_555 1_555
C14 C15 1_555 1_555
C14 C16 1_555 1_555

#END
