
#######################################################################
#
#                 Cambridge Crystallographic Data Centre
#                                CCDC 
#
#######################################################################
#
# If this CIF has been generated from an entry in the Cambridge 
# Structural Database, then it will include bibliographic, chemical, 
# crystal, experimental, refinement or atomic coordinate data resulting 
# from the CCDC's data processing and validation procedures.
#
#######################################################################

data_QUSCAJ
_symmetry_cell_setting           monoclinic
_symmetry_space_group_name_H-M   'P 21/n'
_symmetry_Int_Tables_number      14
_space_group_name_Hall           '-P 2yn'
loop_
_symmetry_equiv_pos_site_id
_symmetry_equiv_pos_as_xyz
1 x,y,z
2 1/2-x,1/2+y,1/2-z
3 -x,-y,-z
4 1/2+x,1/2-y,1/2+z
_cell_length_a                   9.6892(19)
_cell_length_b                   21.158(4)
_cell_length_c                   17.681(4)
_cell_angle_alpha                90
_cell_angle_beta                 105.426(4)
_cell_angle_gamma                90
_cell_volume                     3494.1
loop_
_atom_site_label
_atom_site_type_symbol
_atom_site_fract_x
_atom_site_fract_y
_atom_site_fract_z
Cd1 Cd -0.42438(2) 0.352616(9) 1.074294(11)
Cd2 Cd -0.5000 0.5000 1.0000
O1 O -0.5361(2) 0.44431(10) 1.10506(12)
O2 O -0.6689(3) 0.35875(11) 1.09415(18)
O3 O -1.2035(2) 0.38710(12) 1.07572(15)
O4 O -1.2766(2) 0.48726(12) 1.05975(15)
O5 O -0.1714(3) 0.79974(12) 1.30721(15)
O6 O -0.1138(3) 0.74289(12) 1.41420(14)
O7 O -0.4341(3) 0.70096(12) 1.05586(15)
O8 O -0.4887(2) 0.60101(11) 1.05067(12)
O9 O 0.1998(5) 0.6839(2) 1.4908(3)
O10 O -0.0585(8) 0.6626(3) 1.5696(4)
N1 N 0.4018(7) 0.6920(3) 1.4525(4)
N2 N -0.1449(8) 0.6309(4) 1.6663(4)
C1 C -0.6561(3) 0.41682(14) 1.10231(16)
C2 C -0.7797(3) 0.45702(14) 1.10903(17)
C3 C -0.7572(3) 0.51978(16) 1.13353(19)
H1 H -0.663(4) 0.5366(17) 1.141(2)
C4 C -0.8704(3) 0.55800(15) 1.1410(2)
C5 C -1.0068(3) 0.53163(16) 1.1203(2)
H2 H -1.092(4) 0.5559(17) 1.125(2)
C6 C -1.0309(3) 0.46912(14) 1.09587(17)
C7 C -0.9164(3) 0.43147(15) 1.09089(17)
H3 H -0.936(4) 0.3927(19) 1.074(2)
C8 C -1.1822(3) 0.44490(15) 1.07499(16)
C9 C -0.8495(4) 0.62644(19) 1.1700(3)
C10 C -0.7042(8) 0.6485(3) 1.1839(9)
H4 H -0.6736 0.6442 1.1368
H5 H -0.6428 0.6239 1.2249
H6 H -0.6992 0.6922 1.1993
C11 C -0.9020(10) 0.6321(4) 1.2431(6)
H7 H -0.8424 0.6070 1.2843
H8 H -0.9990 0.6173 1.2321
H9 H -0.8978 0.6755 1.2593
C12 C -0.9510(12) 0.6680(3) 1.1104(7)
H10 H -0.9245 0.6672 1.0618
H11 H -0.9457 0.7106 1.1298
H12 H -1.0470 0.6525 1.1020
C13 C -0.1659(3) 0.74768(15) 1.34100(18)
C14 C -0.2252(3) 0.68965(14) 1.29481(17)
C15 C -0.2917(3) 0.69513(14) 1.21553(17)
H13 H -0.302(4) 0.7349(18) 1.193(2)
C16 C -0.3481(3) 0.64172(13) 1.17277(16)
C17 C -0.3353(3) 0.58274(14) 1.20958(17)
H14 H -0.379(4) 0.544(2) 1.181(2)
C18 C -0.2673(4) 0.57621(15) 1.28901(17)
C19 C -0.2130(3) 0.63094(16) 1.33094(17)
H15 H -0.161(5) 0.628(2) 1.387(3)
C20 C -0.4269(3) 0.64851(12) 1.08661(17)
C21 C -0.2550(5) 0.51094(18) 1.3280(2)
C22 C -0.2126(9) 0.4619(2) 1.2779(3)
H16 H -0.1168 0.4699 1.2748
H17 H -0.2770 0.4632 1.2262
H18 H -0.2169 0.4209 1.3005
C23 C -0.4102(9) 0.4915(3) 1.3295(5)
H19 H -0.4078 0.4506 1.3535
H20 H -0.4706 0.4899 1.2768
H21 H -0.4473 0.5220 1.3592
C24 C -0.1619(13) 0.5096(3) 1.4082(4)
H22 H -0.0664 0.5213 1.4077
H23 H -0.1612 0.4678 1.4293
H24 H -0.1971 0.5389 1.4402
C25 C 0.4959(13) 0.7292(5) 1.4182(7)
H25 H 0.4605 0.7717 1.4098
H26 H 0.4988 0.7109 1.3689
H27 H 0.5906 0.7295 1.4531
C26 C 0.4423(15) 0.6288(6) 1.4751(10)
H28 H 0.3726 0.6101 1.4979
H29 H 0.5342 0.6286 1.5128
H30 H 0.4475 0.6049 1.4298
C27 C 0.2806(8) 0.7125(3) 1.4619(4)
H31 H 0.2537 0.7533 1.4446
C28 C -0.076(2) 0.6644(6) 1.7348(9)
H32 H -0.0283 0.7006 1.7210
H33 H -0.0072 0.6374 1.7690
H34 H -0.1458 0.6779 1.7611
C29 C -0.2288(14) 0.5818(8) 1.6756(11)
H35 H -0.2730 0.5634 1.6254
H36 H -0.3015 0.5967 1.6989
H37 H -0.1713 0.5506 1.7090
C30 C -0.1041(15) 0.6469(9) 1.6103(8)
H38 H -0.1831 0.6300 1.5739
Li1 Li 0.0231(8) 0.7146(3) 1.5079(3)
Cd1B Cd -0.57562(2) 0.647384(9) 0.925706(11)
Cd1_2 Cd -1.42438(2) 0.352616(9) 1.074294(11)
Cd1A Cd -0.07562(2) 0.852616(9) 1.425706(11)
Cd1B_2 Cd 0.42438(2) 0.647384(9) 0.925706(11)
Cd1C Cd -0.92438(2) 0.147384(9) 0.574294(11)
Cd2_2 Cd -1.5000 0.5000 1.0000
Cd2_3 Cd 0.5000 0.5000 1.0000
O1B O -0.4639(2) 0.55569(10) 0.89494(12)
O2B O -0.3311(3) 0.64125(11) 0.90585(18)
O3B O 0.2035(2) 0.61290(12) 0.92428(15)
O3_2 O -0.2035(2) 0.38710(12) 1.07572(15)
O3B_2 O -0.7965(2) 0.61290(12) 0.92428(15)
O4B O 0.2766(2) 0.51274(12) 0.94025(15)
O4_2 O -0.2766(2) 0.48726(12) 1.05975(15)
O4B_2 O -0.7234(2) 0.51274(12) 0.94025(15)
O5B O -0.8286(3) 0.20026(12) 0.69279(15)
O5A O -0.3286(3) 0.29974(12) 1.19279(15)
O5C O -0.6714(3) 0.70026(12) 0.80721(15)
O6B O -0.8862(3) 0.25711(12) 0.58580(14)
O6A O -0.3862(3) 0.24289(12) 1.08580(14)
O6C O -0.6138(3) 0.75711(12) 0.91420(14)
O7B O -0.5659(3) 0.29904(12) 0.94414(15)
O7C O 0.0659(3) 0.79904(12) 1.55586(15)
O7A O -1.0659(3) 0.20096(12) 0.44414(15)
O8B O -0.5113(2) 0.39899(11) 0.94933(12)
O9B O -1.1998(5) 0.3161(2) 0.5092(3)
O10B O -0.9415(8) 0.3374(3) 0.4304(4)
N1B N -1.4018(7) 0.3080(3) 0.5475(4)
N2B N -0.8551(8) 0.3691(4) 0.3337(4)
C1B C -0.3439(3) 0.58318(14) 0.89769(16)
C2B C -0.2203(3) 0.54298(14) 0.89097(17)
C3B C -0.2428(3) 0.48022(16) 0.86647(19)
H1B H -0.337(4) 0.4634(17) 0.859(2)
C4B C -0.1296(3) 0.44200(15) 0.8590(2)
C5B C 0.0068(3) 0.46837(16) 0.8797(2)
H2B H 0.092(4) 0.4441(17) 0.875(2)
C6B C 0.0309(3) 0.53088(14) 0.90413(17)
C7B C -0.0836(3) 0.56853(15) 0.90911(17)
H3B H -0.064(4) 0.6073(19) 0.926(2)
C8B C 0.1822(3) 0.55510(15) 0.92501(16)
C9B C -0.1505(4) 0.37356(19) 0.8300(3)
C10B C -0.2958(8) 0.3515(3) 0.8161(9)
H4B H -0.3264 0.3558 0.8632
H5B H -0.3572 0.3761 0.7751
H6B H -0.3008 0.3078 0.8007
C11B C -0.0980(10) 0.3679(4) 0.7569(6)
H7B H -0.1576 0.3930 0.7157
H8B H -0.0010 0.3827 0.7679
H9B H -0.1022 0.3245 0.7407
C12B C -0.0490(12) 0.3320(3) 0.8896(7)
H10B H -0.0755 0.3328 0.9382
H11B H -0.0543 0.2894 0.8702
H12B H 0.0470 0.3475 0.8980
C13B C -0.8341(3) 0.25232(15) 0.65900(18)
C14B C -0.7748(3) 0.31035(14) 0.70519(17)
C15B C -0.7083(3) 0.30487(14) 0.78447(17)
H13B H -0.698(4) 0.2651(18) 0.807(2)
C16B C -0.6519(3) 0.35828(13) 0.82723(16)
C17B C -0.6647(3) 0.41726(14) 0.79042(17)
H14B H -0.621(4) 0.456(2) 0.819(2)
C18B C -0.7327(4) 0.42379(15) 0.71099(17)
C19B C -0.7870(3) 0.36906(16) 0.66906(17)
H15B H -0.839(5) 0.372(2) 0.613(3)
C20B C -0.5731(3) 0.35149(12) 0.91339(17)
C21B C -0.7450(5) 0.48906(18) 0.6720(2)
C22B C -0.7874(9) 0.5381(2) 0.7221(3)
H16B H -0.8832 0.5301 0.7252
H17B H -0.7230 0.5368 0.7738
H18B H -0.7831 0.5791 0.6995
C23B C -0.5898(9) 0.5085(3) 0.6705(5)
H19B H -0.5922 0.5494 0.6465
H20B H -0.5294 0.5101 0.7232
H21B H -0.5527 0.4780 0.6408
C24B C -0.8381(13) 0.4904(3) 0.5918(4)
H22B H -0.9336 0.4787 0.5923
H23B H -0.8388 0.5322 0.5707
H24B H -0.8029 0.4611 0.5598
C25B C -1.4959(13) 0.2708(5) 0.5818(7)
H25B H -1.4605 0.2283 0.5902
H26B H -1.4988 0.2891 0.6311
H27B H -1.5906 0.2705 0.5469
C26B C -1.4423(15) 0.3712(6) 0.5249(10)
H28B H -1.3726 0.3899 0.5021
H29B H -1.5342 0.3714 0.4872
H30B H -1.4475 0.3951 0.5702
C27B C -1.2806(8) 0.2875(3) 0.5381(4)
H31B H -1.2537 0.2467 0.5554
C28B C -0.924(2) 0.3356(6) 0.2652(9)
H32B H -0.9717 0.2994 0.2790
H33B H -0.9928 0.3626 0.2310
H34B H -0.8542 0.3221 0.2389
C29B C -0.7712(14) 0.4182(8) 0.3244(11)
H35B H -0.7270 0.4366 0.3746
H36B H -0.6985 0.4033 0.3011
H37B H -0.8287 0.4494 0.2910
C30B C -0.8959(15) 0.3531(9) 0.3897(8)
H38B H -0.8169 0.3700 0.4261
Li1B Li -1.0231(8) 0.2854(3) 0.4921(3)
Li1C Li -0.4769(8) 0.7854(3) 1.0079(3)
Li1A Li -0.5231(8) 0.2146(3) 0.9921(3)
loop_
_geom_bond_atom_site_label_1
_geom_bond_atom_site_label_2
_geom_bond_site_symmetry_1
_geom_bond_site_symmetry_2
Cd1 O1 1_555 1_555
Cd2 O1 1_555 1_555
O1 C1 1_555 1_555
O2 Cd1 1_555 1_555
O3 C8 1_555 1_555
O4 C8 1_555 1_555
O5 C13 1_555 1_555
O6 C13 1_555 1_555
O7 C20 1_555 1_555
O8 Cd2 1_555 1_555
O9 C27 1_555 1_555
O10 C30 1_555 1_555
N1 C25 1_555 1_555
N2 C28 1_555 1_555
C1 O2 1_555 1_555
C2 C1 1_555 1_555
C3 C2 1_555 1_555
H1 C3 1_555 1_555
C4 C3 1_555 1_555
C5 C4 1_555 1_555
H2 C5 1_555 1_555
C6 C5 1_555 1_555
C7 C2 1_555 1_555
H3 C7 1_555 1_555
C8 C6 1_555 1_555
C9 C4 1_555 1_555
C10 C9 1_555 1_555
H4 C10 1_555 1_555
H5 C10 1_555 1_555
H6 C10 1_555 1_555
C11 C9 1_555 1_555
H7 C11 1_555 1_555
H8 C11 1_555 1_555
H9 C11 1_555 1_555
C12 C9 1_555 1_555
H10 C12 1_555 1_555
H11 C12 1_555 1_555
H12 C12 1_555 1_555
C13 C14 1_555 1_555
C14 C15 1_555 1_555
C15 H13 1_555 1_555
C16 C15 1_555 1_555
C17 C16 1_555 1_555
H14 C17 1_555 1_555
C18 C17 1_555 1_555
C19 C14 1_555 1_555
H15 C19 1_555 1_555
C20 O8 1_555 1_555
C21 C18 1_555 1_555
C22 C21 1_555 1_555
H16 C22 1_555 1_555
H17 C22 1_555 1_555
H18 C22 1_555 1_555
C23 C21 1_555 1_555
H19 C23 1_555 1_555
H20 C23 1_555 1_555
H21 C23 1_555 1_555
C24 C21 1_555 1_555
H22 C24 1_555 1_555
H23 C24 1_555 1_555
H24 C24 1_555 1_555
C25 H25 1_555 1_555
H26 C25 1_555 1_555
H27 C25 1_555 1_555
C26 N1 1_555 1_555
H28 C26 1_555 1_555
H29 C26 1_555 1_555
H30 C26 1_555 1_555
C27 N1 1_555 1_555
H31 C27 1_555 1_555
C28 H32 1_555 1_555
H33 C28 1_555 1_555
H34 C28 1_555 1_555
C29 N2 1_555 1_555
H35 C29 1_555 1_555
H36 C29 1_555 1_555
H37 C29 1_555 1_555
C30 N2 1_555 1_555
H38 C30 1_555 1_555
Li1 O6 1_555 1_555
Cd1B O7 1_555 1_555
Cd1_2 O3 1_555 1_555
Cd1A O5 1_555 1_555
Cd1B_2 O3B 1_555 1_555
Cd1C O5B 1_555 1_555
Cd2_2 O4 1_555 1_555
Cd2_3 O4B 1_555 1_555
O1B Cd2 1_555 1_555
O2B Cd1B 1_555 1_555
O3B C8B 1_555 1_555
O3_2 Cd1 1_555 1_555
O3B_2 Cd1B 1_555 1_555
O4B C8B 1_555 1_555
O4_2 Cd2 1_555 1_555
O4B_2 Cd2 1_555 1_555
O5B C13B 1_555 1_555
O5A Cd1 1_555 1_555
O5C Cd1B 1_555 1_555
O6B Cd1C 1_555 1_555
O6A Cd1 1_555 1_555
O6C Cd1B 1_555 1_555
O7B Cd1 1_555 1_555
O7C Li1 1_555 1_555
O7A Cd1C 1_555 1_555
O8B Cd1 1_555 1_555
O9B C27B 1_555 1_555
O10B C30B 1_555 1_555
N1B C25B 1_555 1_555
N2B C28B 1_555 1_555
C1B O1B 1_555 1_555
C2B C1B 1_555 1_555
C3B C2B 1_555 1_555
H1B C3B 1_555 1_555
C4B C3B 1_555 1_555
C5B C4B 1_555 1_555
H2B C5B 1_555 1_555
C6B C5B 1_555 1_555
C7B C2B 1_555 1_555
H3B C7B 1_555 1_555
C8B C6B 1_555 1_555
C9B C4B 1_555 1_555
C10B C9B 1_555 1_555
H4B C10B 1_555 1_555
H5B C10B 1_555 1_555
H6B C10B 1_555 1_555
C11B C9B 1_555 1_555
H7B C11B 1_555 1_555
H8B C11B 1_555 1_555
H9B C11B 1_555 1_555
C12B C9B 1_555 1_555
H10B C12B 1_555 1_555
H11B C12B 1_555 1_555
H12B C12B 1_555 1_555
C13B O6B 1_555 1_555
C14B C13B 1_555 1_555
C15B C14B 1_555 1_555
H13B C15B 1_555 1_555
C16B C15B 1_555 1_555
C17B C16B 1_555 1_555
H14B C17B 1_555 1_555
C18B C17B 1_555 1_555
C19B C14B 1_555 1_555
H15B C19B 1_555 1_555
C20B O7B 1_555 1_555
C21B C18B 1_555 1_555
C22B C21B 1_555 1_555
H16B C22B 1_555 1_555
H17B C22B 1_555 1_555
H18B C22B 1_555 1_555
C23B C21B 1_555 1_555
H19B C23B 1_555 1_555
H20B C23B 1_555 1_555
H21B C23B 1_555 1_555
C24B C21B 1_555 1_555
H22B C24B 1_555 1_555
H23B C24B 1_555 1_555
H24B C24B 1_555 1_555
C25B H25B 1_555 1_555
H26B C25B 1_555 1_555
H27B C25B 1_555 1_555
C26B N1B 1_555 1_555
H28B C26B 1_555 1_555
H29B C26B 1_555 1_555
H30B C26B 1_555 1_555
C27B N1B 1_555 1_555
H31B C27B 1_555 1_555
C28B H32B 1_555 1_555
H33B C28B 1_555 1_555
H34B C28B 1_555 1_555
C29B N2B 1_555 1_555
H35B C29B 1_555 1_555
H36B C29B 1_555 1_555
H37B C29B 1_555 1_555
C30B N2B 1_555 1_555
H38B C30B 1_555 1_555
Li1B O6B 1_555 1_555
Li1C O7 1_555 1_555
Li1A O6A 1_555 1_555
Cd2 O8B 1_555 1_555
O6 Cd1A 1_555 1_555
O8 Cd1B 1_555 1_555
O9 Li1 1_555 1_555
O10 Li1 1_555 1_555
C6 C7 1_555 1_555
C16 C20 1_555 1_555
C18 C19 1_555 1_555
Cd1B O1B 1_555 1_555
Cd1A O7C 1_555 1_555
O2B C1B 1_555 1_555
O6C Li1C 1_555 1_555
O7B Li1A 1_555 1_555
O7A Li1B 1_555 1_555
O8B C20B 1_555 1_555
O9B Li1B 1_555 1_555
O10B Li1B 1_555 1_555
C6B C7B 1_555 1_555
C16B C20B 1_555 1_555
C18B C19B 1_555 1_555

#END
