
#######################################################################
#
#                 Cambridge Crystallographic Data Centre
#                                CCDC 
#
#######################################################################
#
# If this CIF has been generated from an entry in the Cambridge 
# Structural Database, then it will include bibliographic, chemical, 
# crystal, experimental, refinement or atomic coordinate data resulting 
# from the CCDC's data processing and validation procedures.
#
#######################################################################

data_QUSCOX
_symmetry_cell_setting           trigonal
_symmetry_space_group_name_H-M   'P 3'
_symmetry_Int_Tables_number      143
_space_group_name_Hall           'P 3'
loop_
_symmetry_equiv_pos_site_id
_symmetry_equiv_pos_as_xyz
1 x,y,z
2 -y,x-y,z
3 -x+y,-x,z
_cell_length_a                   11.6534(3)
_cell_length_b                   11.6534(3)
_cell_length_c                   13.7499(5)
_cell_angle_alpha                90
_cell_angle_beta                 90
_cell_angle_gamma                120
_cell_volume                     1617.09
loop_
_atom_site_label
_atom_site_type_symbol
_atom_site_fract_x
_atom_site_fract_y
_atom_site_fract_z
N1 N 0.0000 0.0000 1.0879(17)
C15 C -0.103(2) -0.103(4) 1.0317(18)
C15A C 0.103(4) 0.000(4) 1.0317(18)
C15B C 0.000(4) 0.103(2) 1.0317(18)
Cd1 Cd 1.18653(4) 1.18652(2) 1.53222(2)
S1 S 1.00004(13) 1.55936(9) 1.03217(8)
O1 O 1.1105(8) 1.2685(6) 0.6545(4)
O2 O 0.8897(8) 1.1581(6) 0.6545(4)
O3 O 1.1223(7) 1.6831(3) 1.0320(3)
O4 O 0.8772(7) 1.5602(6) 1.0321(3)
O5 O 1.1103(8) 1.2685(6) 1.4099(4)
O6 O 0.8895(8) 1.1580(6) 1.4100(4)
O7 O 1.0000 1.0000 1.5058(9)
O8 O 1.3866(6) 1.3868(4) 1.5319(4)
C1 C 1.0000(7) 1.2414(5) 0.6852(4)
C2 C 0.9997(6) 1.3202(4) 0.7730(3)
C3 C 1.1191(9) 1.4170(7) 0.8131(4)
H1 H 1.1989 1.4329 0.7861
C4 C 1.1191(8) 1.4895(6) 0.8929(4)
H2 H 1.1985 1.5531 0.9206
C5 C 0.9999(6) 1.4660(4) 0.9306(3)
C6 C 0.8805(8) 1.3707(6) 0.8927(4)
H3 H 0.8011 1.3552 0.9201
C7 C 0.8812(9) 1.2981(6) 0.8126(4)
H4 H 0.8015 1.2343 0.7855
C8 C 0.9998(6) 1.4662(4) 1.1337(3)
C9 C 1.1197(8) 1.4899(6) 1.1717(4)
H5 H 1.1991 1.5535 1.1441
C10 C 1.1191(9) 1.4170(7) 1.2517(4)
H6 H 1.1988 1.4328 1.2789
C11 C 0.9999(6) 1.3205(4) 1.2915(3)
C12 C 0.8812(9) 1.2981(6) 1.2514(4)
H7 H 0.8014 1.2340 1.2782
C13 C 0.8808(8) 1.3708(6) 1.1716(4)
H8 H 0.8014 1.3553 1.1442
C14 C 1.0001(7) 1.2414(5) 1.3790(4)
Cd1B Cd 0.99999(4) 0.81347(4) 1.53222(2)
Cd1_2 Cd 1.18653(4) 1.18652(2) 2.53222(2)
Cd1_3 Cd 1.18653(4) 1.18652(2) 0.53222(2)
Cd1A Cd 0.81348(2) 1.00001(4) 0.53222(2)
Cd1A_2 Cd 0.81348(2) 1.00001(4) 1.53222(2)
Cd1B_2 Cd 0.99999(4) 0.81347(4) 0.53222(2)
Cd1A_3 Cd 0.81348(2) 1.00001(4) 2.53222(2)
S1B S 1.55932(16) 0.99996(13) 1.03217(8)
S1_2 S 1.00004(13) 1.55936(9) 2.03217(8)
O1B O 1.1580(10) 0.8895(8) 0.6545(4)
O1_2 O 1.1105(8) 1.2685(6) 1.6545(4)
O1B_2 O 1.1580(10) 0.8895(8) 1.6545(4)
O1_3 O 1.1105(8) 1.2685(6) 2.6545(4)
O2B O 1.2684(10) 1.1103(8) 0.6545(4)
O2_2 O 0.8897(8) 1.1581(6) 1.6545(4)
O2B_2 O 1.2684(10) 1.1103(8) 1.6545(4)
O2A O 0.8419(6) 0.7316(10) 1.6545(4)
O2B_3 O 1.2684(10) 1.1103(8) 2.6545(4)
O3B O 1.5608(8) 0.8777(7) 1.0320(3)
O3_2 O 1.1223(7) 1.6831(3) 2.0320(3)
O4B O 1.6830(9) 1.1228(7) 1.0321(3)
O4_2 O 0.8772(7) 1.5602(6) 2.0321(3)
O5B O 1.1582(10) 0.8897(8) 1.4099(4)
O5_2 O 1.1103(8) 1.2685(6) 2.4099(4)
O6B O 1.2685(10) 1.1105(8) 1.4100(4)
O6_2 O 0.8895(8) 1.1580(6) 2.4100(4)
O6A O 0.8420(6) 0.7315(10) 1.4100(4)
O6B_2 O 1.2685(10) 1.1105(8) 2.4100(4)
O7_2 O 1.0000 1.0000 2.5058(9)
O8B O 1.0002(7) 0.6134(6) 1.5319(4)
O8_2 O 1.3866(6) 1.3868(4) 2.5319(4)
C1B C 1.2414(9) 1.0000(7) 0.6852(4)
C1_2 C 1.0000(7) 1.2414(5) 1.6852(4)
C2B C 1.3205(7) 1.0003(6) 0.7730(3)
C2_2 C 0.9997(6) 1.3202(4) 1.7730(3)
C3B C 1.2979(11) 0.8809(9) 0.8131(4)
C3_2 C 1.1191(9) 1.4170(7) 1.8131(4)
H1B H 1.2340 0.8011 0.7861
H1_2 H 1.1989 1.4329 1.7861
C4B C 1.3704(10) 0.8809(8) 0.8929(4)
C4_2 C 1.1191(8) 1.4895(6) 1.8929(4)
H2B H 1.3546 0.8015 0.9206
H2_2 H 1.1985 1.5531 1.9206
C5B C 1.4661(7) 1.0001(6) 0.9306(3)
C5_2 C 0.9999(6) 1.4660(4) 1.9306(3)
C6B C 1.4902(10) 1.1195(8) 0.8927(4)
C6_2 C 0.8805(8) 1.3707(6) 1.8927(4)
H3B H 1.5541 1.1989 0.9201
H3_2 H 0.8011 1.3552 1.9201
C7B C 1.4169(11) 1.1188(9) 0.8126(4)
C7_2 C 0.8812(9) 1.2981(6) 1.8126(4)
H4B H 1.4328 1.1985 0.7855
H4_2 H 0.8015 1.2343 1.7855
C8B C 1.4664(7) 1.0002(6) 1.1337(3)
C8_2 C 0.9998(6) 1.4662(4) 2.1337(3)
C9B C 1.3702(10) 0.8803(8) 1.1717(4)
C9_2 C 1.1197(8) 1.4899(6) 2.1717(4)
H5B H 1.3544 0.8009 1.1441
H5_2 H 1.1991 1.5535 2.1441
C10B C 1.2979(11) 0.8809(9) 1.2517(4)
C10_2 C 1.1191(9) 1.4170(7) 2.2517(4)
H6B H 1.2340 0.8012 1.2789
H6_2 H 1.1988 1.4328 2.2789
C11B C 1.3206(7) 1.0001(6) 1.2915(3)
C11_2 C 0.9999(6) 1.3205(4) 2.2915(3)
C12B C 1.4169(11) 1.1188(9) 1.2514(4)
C12_2 C 0.8812(9) 1.2981(6) 2.2514(4)
H7B H 1.4326 1.1986 1.2782
H7_2 H 0.8014 1.2340 2.2782
C13B C 1.4900(10) 1.1192(8) 1.1716(4)
C13_2 C 0.8808(8) 1.3708(6) 2.1716(4)
H8B H 1.5539 1.1986 1.1442
H8_2 H 0.8014 1.3553 2.1442
C14B C 1.2413(9) 0.9999(7) 1.3790(4)
C14_2 C 1.0001(7) 1.2414(5) 2.3790(4)
N2? N 0.0000 0.0000 0.9765(17)
O9? O 1.0000 1.0000 0.5590(9)
loop_
_geom_bond_atom_site_label_1
_geom_bond_atom_site_label_2
_geom_bond_site_symmetry_1
_geom_bond_site_symmetry_2
Cd1 O5 1_555 1_555
S1 O3 1_555 1_555
O1 C1 1_555 1_555
O2 C1 1_555 1_555
O4 S1 1_555 1_555
O5 C14 1_555 1_555
O6 C14 1_555 1_555
O7 Cd1 1_555 1_555
O8 Cd1 1_555 1_555
N1 C15 1_555 1_555
C1 C2 1_555 1_555
C2 C3 1_555 1_555
C3 H1 1_555 1_555
C4 C3 1_555 1_555
H2 C4 1_555 1_555
C5 S1 1_555 1_555
C6 C5 1_555 1_555
H3 C6 1_555 1_555
C7 C2 1_555 1_555
H4 C7 1_555 1_555
C8 S1 1_555 1_555
C9 C8 1_555 1_555
H5 C9 1_555 1_555
C10 C9 1_555 1_555
H6 C10 1_555 1_555
C11 C10 1_555 1_555
C12 C11 1_555 1_555
H7 C12 1_555 1_555
C13 C8 1_555 1_555
H8 C13 1_555 1_555
C14 C11 1_555 1_555
Cd1B O7 1_555 1_555
Cd1_2 O1_3 1_555 1_555
Cd1_3 O1 1_555 1_555
Cd1A O2 1_555 1_555
Cd1A_2 O6 1_555 1_555
Cd1B_2 O1B 1_555 1_555
Cd1A_3 O6_2 1_555 1_555
S1B O3B 1_555 1_555
S1_2 O3_2 1_555 1_555
O1B C1B 1_555 1_555
O1_2 Cd1 1_555 1_555
O1B_2 Cd1B 1_555 1_555
O2B Cd1_3 1_555 1_555
O2_2 Cd1A_2 1_555 1_555
O2B_2 Cd1 1_555 1_555
O2A Cd1B 1_555 1_555
O2B_3 Cd1_2 1_555 1_555
O4B S1B 1_555 1_555
O4_2 S1_2 1_555 1_555
O5B Cd1B 1_555 1_555
O5_2 Cd1_2 1_555 1_555
O6B Cd1 1_555 1_555
O6_2 C14_2 1_555 1_555
O6A Cd1B 1_555 1_555
O6B_2 Cd1_2 1_555 1_555
O7_2 Cd1_2 1_555 1_555
O8B Cd1B 1_555 1_555
O8_2 Cd1_2 1_555 1_555
C1B O2B 1_555 1_555
C1_2 O1_2 1_555 1_555
C2B C1B 1_555 1_555
C2_2 C1_2 1_555 1_555
C3B C2B 1_555 1_555
C3_2 C2_2 1_555 1_555
H1B C3B 1_555 1_555
H1_2 C3_2 1_555 1_555
C4B C3B 1_555 1_555
C4_2 C3_2 1_555 1_555
H2B C4B 1_555 1_555
H2_2 C4_2 1_555 1_555
C5B S1B 1_555 1_555
C5_2 S1_2 1_555 1_555
C6B C5B 1_555 1_555
C6_2 C5_2 1_555 1_555
H3B C6B 1_555 1_555
H3_2 C6_2 1_555 1_555
C7B C2B 1_555 1_555
C7_2 C2_2 1_555 1_555
H4B C7B 1_555 1_555
H4_2 C7_2 1_555 1_555
C8B S1B 1_555 1_555
C8_2 S1_2 1_555 1_555
C9B C8B 1_555 1_555
C9_2 C8_2 1_555 1_555
H5B C9B 1_555 1_555
H5_2 C9_2 1_555 1_555
C10B C9B 1_555 1_555
C10_2 C9_2 1_555 1_555
H6B C10B 1_555 1_555
H6_2 C10_2 1_555 1_555
C11B C10B 1_555 1_555
C11_2 C10_2 1_555 1_555
C12B C11B 1_555 1_555
C12_2 C11_2 1_555 1_555
H7B C12B 1_555 1_555
H7_2 C12_2 1_555 1_555
C13B C8B 1_555 1_555
C13_2 C8_2 1_555 1_555
H8B C13B 1_555 1_555
H8_2 C13_2 1_555 1_555
C14B O5B 1_555 1_555
C14_2 O5_2 1_555 1_555
C15A N1 1_555 1_555
C15B N1 1_555 1_555
O7 Cd1A_2 1_555 1_555
C4 C5 1_555 1_555
C6 C7 1_555 1_555
C12 C13 1_555 1_555
Cd1A_3 O7_2 1_555 1_555
O2_2 C1_2 1_555 1_555
O6B C14B 1_555 1_555
C4B C5B 1_555 1_555
C4_2 C5_2 1_555 1_555
C6B C7B 1_555 1_555
C6_2 C7_2 1_555 1_555
C11B C14B 1_555 1_555
C11_2 C14_2 1_555 1_555
C12B C13B 1_555 1_555
C12_2 C13_2 1_555 1_555

#END
