
#######################################################################
#
#                 Cambridge Crystallographic Data Centre
#                                CCDC 
#
#######################################################################
#
# If this CIF has been generated from an entry in the Cambridge 
# Structural Database, then it will include bibliographic, chemical, 
# crystal, experimental, refinement or atomic coordinate data resulting 
# from the CCDC's data processing and validation procedures.
#
#######################################################################

data_QUSCIR
_symmetry_cell_setting           monoclinic
_symmetry_space_group_name_H-M   'C c'
_symmetry_Int_Tables_number      9
_space_group_name_Hall           'C -2yc'
loop_
_symmetry_equiv_pos_site_id
_symmetry_equiv_pos_as_xyz
1 x,y,z
2 x,-y,1/2+z
3 1/2+x,1/2+y,z
4 1/2+x,1/2-y,1/2+z
_cell_length_a                   27.07(4)
_cell_length_b                   6.347(2)
_cell_length_c                   25.67(3)
_cell_angle_alpha                90
_cell_angle_beta                 107.930(3)
_cell_angle_gamma                90
_cell_volume                     4196.25
loop_
_atom_site_label
_atom_site_type_symbol
_atom_site_fract_x
_atom_site_fract_y
_atom_site_fract_z
Cd1 Cd 0.22728(6) 0.97632(5) 0.42322(6)
S1 S 0.04198(14) 1.5608(7) 0.11732(15)
O1 O 0.1632(4) 0.9723(11) 0.3339(5)
C1 C 0.1649(5) 1.158(2) 0.3328(5)
Li1 Li 0.2266(14) 1.4771(12) 0.4242(14)
S2 S 0.41383(15) 1.5604(8) 0.73096(14)
O2 O 0.1900(4) 1.2752(14) 0.3693(4)
C2 C 0.1308(2) 1.2734(10) 0.2775(3)
O3 O 0.2939(5) 0.9698(17) 0.5124(4)
C3 C 0.1423(3) 1.4712(11) 0.2644(3)
H3 H 0.1695 1.5456 0.2884
O4 O 0.2659(4) 1.2913(15) 0.4776(4)
C4 C 0.1140(3) 1.5603(12) 0.2163(3)
H4 H 0.1219 1.6956 0.2074
O5 O -0.0097(5) 1.4690(19) 0.1002(6)
C5 C 0.0743(3) 1.4514(12) 0.1812(3)
O6 O 0.0491(4) 1.7864(16) 0.1214(4)
C6 C 0.0628(3) 1.2537(11) 0.1943(3)
H5 H 0.0356 1.1793 0.1703
O7 O 0.2869(5) 1.0268(13) 0.8719(5)
C7 C 0.0911(3) 1.1646(10) 0.2424(3)
H6 H 0.0832 1.0294 0.2513
O8 O 0.2651(4) 1.3329(14) 0.8923(4)
C8 C 0.2939(4) 1.1736(19) 0.5179(5)
O9 O 0.1599(5) 1.0161(12) -0.0378(5)
C9 C 0.3241(3) 1.2685(11) 0.5657(3)
O10 O 0.1898(4) 1.3424(17) -0.0437(4)
C10 C 0.3640(3) 1.1524(11) 0.6039(3)
H7 H 0.3715 1.0157 0.5957
O11 O 0.4643(4) 1.4734(12) 0.7501(5)
C11 C 0.3924(3) 1.2451(12) 0.6548(3)
H8 H 0.4184 1.1692 0.6798
O12 O 0.4080(4) 1.7872(15) 0.7282(4)
C12 C 0.3808(3) 1.4541(12) 0.6673(3)
C13 C 0.3410(3) 1.5703(11) 0.6290(3)
H9 H 0.3334 1.7069 0.6372
C14 C 0.3126(3) 1.4774(11) 0.5782(3)
H10 H 0.2865 1.5535 0.5532
C15 C 0.2940(4) 1.227(2) 0.8713(5)
C16 C 0.3207(3) 1.3124(12) 0.8377(3)
C17 C 0.3566(3) 1.1829(10) 0.8239(3)
H11 H 0.3613 1.0444 0.8362
C18 C 0.3857(3) 1.2621(11) 0.7914(4)
H12 H 0.4096 1.1762 0.7822
C19 C 0.3786(3) 1.4708(10) 0.7728(4)
C20 C 0.3427(4) 1.6003(10) 0.7866(4)
H13 H 0.3380 1.7389 0.7742
C21 C 0.3137(4) 1.5211(12) 0.8191(3)
H14 H 0.2898 1.6071 0.8283
C22 C 0.1677(4) 1.2041(19) -0.0244(5)
C23 C 0.1311(3) 1.3056(10) 0.0088(3)
C24 C 0.1379(3) 1.5052(11) 0.0265(4)
H15 H 0.1611 1.5920 0.0165
C25 C 0.1111(4) 1.5798(12) 0.0586(4)
H16 H 0.1158 1.7184 0.0709
C26 C 0.0776(4) 1.4549(14) 0.0729(4)
C27 C 0.0709(3) 1.2553(13) 0.0552(4)
H17 H 0.0476 1.1685 0.0651
C28 C 0.0976(3) 1.1807(10) 0.0231(4)
H18 H 0.0929 1.0421 0.0108
Cd1A Cd 0.22728(6) 1.02368(5) 0.92322(6)
Cd1A_2 Cd 0.22728(6) 1.02368(5) -0.07678(6)
Li1A Li 0.2266(14) 1.5229(12) 0.9242(14)
Li1A_2 Li 0.2266(14) 1.5229(12) -0.0758(14)
O7A O 0.2869(5) 0.9732(13) 0.3719(5)
O8A O 0.2651(4) 0.6671(14) 0.3923(4)
O8A_2 O 0.2651(4) 1.6671(14) 0.3923(4)
O9A O 0.1599(5) 0.9839(12) 0.4622(5)
O10A O 0.1898(4) 0.6576(17) 0.4563(4)
O10A_2 O 0.1898(4) 1.6576(17) 0.4563(4)
N1 N 0.4226(5) 0.5502(18) 0.4889(5)
O13 O 0.4822(7) 0.585(3) 0.4355(8)
C29 C 0.4619(5) 0.632(2) 0.4665(6)
H19 H 0.4741 0.7621 0.4821
C30 C 0.3948(5) 0.7135(19) 0.5024(5)
C31 C 0.4063(8) 0.354(3) 0.4686(8)
N2 N 0.2257(7) 0.031(2) 0.1728(6)
H1 H 0.2578 0.0097 0.1703
H2 H 0.2031 -0.0476 0.1470
C32 C 0.2116(13) 0.256(4) 0.1653(14)
H20 H 0.2143 0.3036 0.1308
H21 H 0.2348 0.3366 0.1943
H22 H 0.1766 0.2749 0.1659
C33 C 0.2239(12) -0.028(4) 0.2278(10)
H23 H 0.2303 -0.1766 0.2334
H24 H 0.1902 0.0046 0.2308
H25 H 0.2499 0.0488 0.2550
O14 O 0.0328(5) 0.5564(19) 0.3677(5)
C34 C 0.0665(8) 0.374(3) 0.3916(8)
C35? C 0.4386(10) 0.466(4) 0.5428(7)
loop_
_geom_bond_atom_site_label_1
_geom_bond_atom_site_label_2
_geom_bond_site_symmetry_1
_geom_bond_site_symmetry_2
Cd1 O1 1_555 1_555
S1 O5 1_555 1_555
O1 C1 1_555 1_555
N1 C29 1_555 1_555
C1 O2 1_555 1_555
Li1 O2 1_555 1_555
S2 O11 1_555 1_555
O2 Cd1 1_555 1_555
N2 H1 1_555 1_555
H2 N2 1_555 1_555
C2 C1 1_555 1_555
O3 Cd1 1_555 1_555
C3 C2 1_555 1_555
H3 C3 1_555 1_555
O4 Cd1 1_555 1_555
C4 C3 1_555 1_555
H4 C4 1_555 1_555
C5 S1 1_555 1_555
O6 S1 1_555 1_555
C6 C5 1_555 1_555
H5 C6 1_555 1_555
O7 C15 1_555 1_555
C7 C2 1_555 1_555
H6 C7 1_555 1_555
O8 C15 1_555 1_555
C8 O3 1_555 1_555
O9 C22 1_555 1_555
C9 C8 1_555 1_555
O10 C22 1_555 1_555
C10 C9 1_555 1_555
H7 C10 1_555 1_555
C11 C10 1_555 1_555
H8 C11 1_555 1_555
O12 S2 1_555 1_555
C12 S2 1_555 1_555
O13 C29 1_555 1_555
C13 C12 1_555 1_555
H9 C13 1_555 1_555
O14 C34 1_555 1_555
C14 C9 1_555 1_555
H10 C14 1_555 1_555
C15 C16 1_555 1_555
C16 C17 1_555 1_555
C17 H11 1_555 1_555
C18 C17 1_555 1_555
H12 C18 1_555 1_555
C19 S2 1_555 1_555
C20 C19 1_555 1_555
H13 C20 1_555 1_555
C21 C16 1_555 1_555
H14 C21 1_555 1_555
C22 C23 1_555 1_555
C23 C24 1_555 1_555
C24 H15 1_555 1_555
C25 C24 1_555 1_555
H16 C25 1_555 1_555
C26 S1 1_555 1_555
C27 C26 1_555 1_555
H17 C27 1_555 1_555
C28 C23 1_555 1_555
H18 C28 1_555 1_555
C29 H19 1_555 1_555
C30 N1 1_555 1_555
C31 N1 1_555 1_555
C32 N2 1_555 1_555
H20 C32 1_555 1_555
H21 C32 1_555 1_555
H22 C32 1_555 1_555
C33 N2 1_555 1_555
H23 C33 1_555 1_555
H24 C33 1_555 1_555
H25 C33 1_555 1_555
Cd1A O7 1_555 1_555
Cd1A_2 O9 1_555 1_555
Li1A O8 1_555 1_555
Li1A_2 O10 1_555 1_555
O7A Cd1 1_555 1_555
O8A Cd1 1_555 1_555
O8A_2 Li1 1_555 1_555
O9A Cd1 1_555 1_555
O10A Cd1 1_555 1_555
O10A_2 Li1 1_555 1_555
Li1 O4 1_555 1_555
O4 C8 1_555 1_555
C4 C5 1_555 1_555
C6 C7 1_555 1_555
O8 Cd1A 1_555 1_555
O10 Cd1A_2 1_555 1_555
C11 C12 1_555 1_555
C13 C14 1_555 1_555
C18 C19 1_555 1_555
C20 C21 1_555 1_555
C25 C26 1_555 1_555
C27 C28 1_555 1_555

#END
