
#######################################################################
#
#                 Cambridge Crystallographic Data Centre
#                                CCDC 
#
#######################################################################
#
# If this CIF has been generated from an entry in the Cambridge 
# Structural Database, then it will include bibliographic, chemical, 
# crystal, experimental, refinement or atomic coordinate data resulting 
# from the CCDC's data processing and validation procedures.
#
#######################################################################

data_QUSDIS
_symmetry_cell_setting           triclinic
_symmetry_space_group_name_H-M   'P -1'
_symmetry_Int_Tables_number      2
_space_group_name_Hall           '-P 1'
loop_
_symmetry_equiv_pos_site_id
_symmetry_equiv_pos_as_xyz
1 x,y,z
2 -x,-y,-z
_cell_length_a                   8.8778(18)
_cell_length_b                   10.083(2)
_cell_length_c                   10.093(2)
_cell_angle_alpha                65.05(3)
_cell_angle_beta                 84.49(3)
_cell_angle_gamma                70.63(3)
_cell_volume                     771.773
loop_
_atom_site_label
_atom_site_type_symbol
_atom_site_fract_x
_atom_site_fract_y
_atom_site_fract_z
Sm1 Sm 0.10491(2) 0.18176(2) 0.05846(2)
Cl1 Cl 0.42220(12) 0.17675(13) 0.04691(11)
O1 O 0.0712(3) -0.0571(3) 0.7837(3)
O2 O 0.0862(4) 0.1091(3) 0.8688(3)
O3 O 0.1169(3) 0.4059(3) -0.1613(3)
O4 O 0.0003(3) 0.6297(3) -0.1429(3)
O5 O 0.2656(4) -0.0911(3) 0.1294(3)
H1 H 0.228(7) -0.146(6) 0.109(6)
H2 H 0.347(7) -0.109(7) 0.097(7)
O6 O -0.1644(3) 0.3134(3) -0.0688(3)
H3 H -0.150(5) 0.356(4) -0.1595(11)
N1 N 0.2248(4) 0.0548(4) 0.3449(3)
N2 N 0.1731(4) 0.1318(4) 0.4231(3)
N3 N 0.2578(4) 0.0463(4) 0.5534(3)
N4 N 0.3419(4) -0.0810(4) 0.4184(3)
N5 N 0.4631(4) -0.1962(4) 0.6578(4)
H4 H 0.486(5) -0.188(5) 0.733(3)
H5 H 0.536(4) -0.263(4) 0.637(5)
N6 N 0.2185(4) 0.5605(4) -0.4340(3)
N7 N 0.1299(4) 0.6296(4) -0.5615(4)
N8 N 0.1943(5) 0.5476(4) -0.6335(4)
N9 N 0.3216(4) 0.4239(4) -0.5571(4)
N10 N 0.4480(5) 0.3403(4) -0.3251(4)
H6 H 0.422(6) 0.328(6) -0.238(2)
H7 H 0.510(5) 0.268(4) -0.346(6)
C1 C 0.1217(4) 0.0457(4) 0.7816(4)
C2 C 0.2332(4) 0.1035(4) 0.6659(4)
H8 H 0.1913 0.2155 0.6194
H9 H 0.3360 0.0752 0.7133
C3 C 0.3612(4) -0.0825(4) 0.5477(4)
C4 C 0.0904(4) 0.5468(4) -0.2012(4)
C5 C 0.1825(5) 0.6264(4) -0.3279(4)
H10 H 0.1203 0.7349 -0.3767
H11 H 0.2819 0.6201 -0.2893
C6 C 0.3347(4) 0.4348(4) -0.4330(4)
C7 C -0.3073(5) 0.4108(6) -0.0351(5)
H12 H -0.3915 0.4435 -0.1061
H13 H -0.2876 0.4998 -0.0373
H14 H -0.3382 0.3543 0.0606
Sm1A Sm -0.10491(2) -0.18176(2) 0.94154(2)
Sm1_2 Sm 0.10491(2) 0.18176(2) 1.05846(2)
Sm1A_2 Sm -0.10491(2) 0.81824(2) -0.05846(2)
O1A O -0.0712(3) 0.0571(3) 0.2163(3)
O2_2 O 0.0862(4) 0.1091(3) -0.1312(3)
O4A O -0.0003(3) 0.3703(3) 0.1429(3)
loop_
_geom_bond_atom_site_label_1
_geom_bond_atom_site_label_2
_geom_bond_site_symmetry_1
_geom_bond_site_symmetry_2
Sm1 Cl1 1_555 1_555
O1 C1 1_555 1_555
O2 C1 1_555 1_555
O3 Sm1 1_555 1_555
O4 C4 1_555 1_555
O5 Sm1 1_555 1_555
H1 O5 1_555 1_555
H2 O5 1_555 1_555
O6 Sm1 1_555 1_555
H3 O6 1_555 1_555
N1 Sm1 1_555 1_555
N2 N1 1_555 1_555
N3 N2 1_555 1_555
N4 N1 1_555 1_555
N5 H4 1_555 1_555
H5 N5 1_555 1_555
N6 N7 1_555 1_555
N7 N8 1_555 1_555
N8 N9 1_555 1_555
N9 C6 1_555 1_555
N10 H6 1_555 1_555
H7 N10 1_555 1_555
C1 C2 1_555 1_555
C2 N3 1_555 1_555
H8 C2 1_555 1_555
H9 C2 1_555 1_555
C3 N3 1_555 1_555
C4 O3 1_555 1_555
C5 N6 1_555 1_555
H10 C5 1_555 1_555
H11 C5 1_555 1_555
C6 N6 1_555 1_555
C7 O6 1_555 1_555
H12 C7 1_555 1_555
H13 C7 1_555 1_555
H14 C7 1_555 1_555
Sm1A O1 1_555 1_555
Sm1_2 O2 1_555 1_555
Sm1A_2 O4 1_555 1_555
O1A Sm1 1_555 1_555
O2_2 Sm1 1_555 1_555
O4A Sm1 1_555 1_555
N4 C3 1_555 1_555
N5 C3 1_555 1_555
N10 C6 1_555 1_555
C4 C5 1_555 1_555

#END
