
#######################################################################
#
#                 Cambridge Crystallographic Data Centre
#                                CCDC 
#
#######################################################################
#
# If this CIF has been generated from an entry in the Cambridge 
# Structural Database, then it will include bibliographic, chemical, 
# crystal, experimental, refinement or atomic coordinate data resulting 
# from the CCDC's data processing and validation procedures.
#
#######################################################################

data_QUSDUE
_symmetry_cell_setting           monoclinic
_symmetry_space_group_name_H-M   'P 21/c'
_symmetry_Int_Tables_number      14
_space_group_name_Hall           '-P 2ybc'
loop_
_symmetry_equiv_pos_site_id
_symmetry_equiv_pos_as_xyz
1 x,y,z
2 -x,1/2+y,1/2-z
3 -x,-y,-z
4 x,1/2-y,1/2+z
_cell_length_a                   4.9573(10)
_cell_length_b                   18.121(4)
_cell_length_c                   19.338(4)
_cell_angle_alpha                90
_cell_angle_beta                 92.28(3)
_cell_angle_gamma                90
_cell_volume                     1735.78
loop_
_atom_site_label
_atom_site_type_symbol
_atom_site_fract_x
_atom_site_fract_y
_atom_site_fract_z
Tb1 Tb 0.32338(3) -0.008952(7) 0.244929(7)
O1 O 0.0810(4) -0.05278(12) 0.14334(11)
O2 O -0.2994(4) -0.05966(12) 0.19962(11)
O3 O 0.0023(4) -0.00808(11) 0.32462(12)
O4 O -0.4097(4) -0.04822(11) 0.34638(11)
O5 O 0.4646(4) 0.07130(15) 0.15064(13)
H1 H 0.619(3) 0.084(2) 0.1367(19)
H2 H 0.365(6) 0.075(2) 0.1140(11)
O6 O 0.0030(4) 0.09333(12) 0.22197(12)
H3 H -0.108(5) 0.1019(19) 0.2533(13)
H4 H 0.062(6) 0.1362(8) 0.2130(18)
O7 O 0.5243(5) 0.10026(12) 0.29978(13)
H5 H 0.465(7) 0.1430(9) 0.2894(19)
H6 H 0.492(8) 0.101(2) 0.3426(5)
O8 O 0.2518(5) -0.13960(13) 0.26185(14)
H7 H 0.113(4) -0.1643(18) 0.2493(19)
H8 H 0.392(4) -0.1664(17) 0.260(2)
N1 N -0.1336(5) -0.12581(14) 0.03162(13)
N2 N -0.1022(6) -0.08431(17) -0.02567(15)
N3 N 0.0963(6) -0.11310(17) -0.05781(15)
N4 N 0.1991(6) -0.17296(17) -0.02321(15)
N5 N 0.0858(7) -0.23035(19) 0.08271(18)
H9 H 0.201(6) -0.2645(15) 0.078(2)
H10 H -0.015(7) -0.236(2) 0.1168(15)
N6 N -0.2212(6) -0.11226(14) 0.46863(14)
N7 N -0.2555(7) -0.07250(17) 0.52680(15)
N8 N -0.4348(7) -0.10762(17) 0.56024(16)
N9 N -0.5234(6) -0.16912(16) 0.52685(16)
N10 N -0.4037(8) -0.22343(19) 0.42032(18)
H11 H -0.527(6) -0.2558(17) 0.422(2)
H12 H -0.329(8) -0.216(2) 0.3820(11)
C1 C -0.1619(6) -0.06918(16) 0.14759(16)
C2 C -0.3111(6) -0.10476(18) 0.08593(17)
H13 H -0.4053 -0.1482 0.1015
H14 H -0.4452 -0.0704 0.0672
C3 C 0.0530(7) -0.17944(18) 0.03288(18)
C4 C -0.1607(6) -0.04431(15) 0.35855(15)
C5 C -0.0322(6) -0.08817(17) 0.41791(16)
H15 H 0.0557 -0.1312 0.3993
H16 H 0.1060 -0.0581 0.4410
C6 C -0.3871(7) -0.17069(18) 0.46886(18)
Tb1_2 Tb -0.67662(3) -0.008952(7) 0.244929(7)
O2_2 O 0.7006(4) -0.05966(12) 0.19962(11)
O4_2 O 0.5903(4) -0.04822(11) 0.34638(11)
Cl1 Cl -0.24795(18) -0.24714(5) 0.24304(6)
loop_
_geom_bond_atom_site_label_1
_geom_bond_atom_site_label_2
_geom_bond_site_symmetry_1
_geom_bond_site_symmetry_2
Tb1 O1 1_555 1_555
O1 C1 1_555 1_555
O2 C1 1_555 1_555
O3 Tb1 1_555 1_555
O4 C4 1_555 1_555
O5 Tb1 1_555 1_555
H1 O5 1_555 1_555
H2 O5 1_555 1_555
O6 Tb1 1_555 1_555
H3 O6 1_555 1_555
H4 O6 1_555 1_555
O7 Tb1 1_555 1_555
H5 O7 1_555 1_555
H6 O7 1_555 1_555
O8 Tb1 1_555 1_555
H7 O8 1_555 1_555
H8 O8 1_555 1_555
N1 N2 1_555 1_555
N2 N3 1_555 1_555
N3 N4 1_555 1_555
N4 C3 1_555 1_555
N5 H9 1_555 1_555
H10 N5 1_555 1_555
N6 N7 1_555 1_555
N7 N8 1_555 1_555
N8 N9 1_555 1_555
N9 C6 1_555 1_555
N10 H11 1_555 1_555
H12 N10 1_555 1_555
C1 C2 1_555 1_555
C2 N1 1_555 1_555
H13 C2 1_555 1_555
H14 C2 1_555 1_555
C3 N1 1_555 1_555
C4 O3 1_555 1_555
C5 N6 1_555 1_555
H15 C5 1_555 1_555
H16 C5 1_555 1_555
C6 N6 1_555 1_555
Tb1_2 O2 1_555 1_555
O2_2 Tb1 1_555 1_555
O4_2 Tb1 1_555 1_555
O4 Tb1_2 1_555 1_555
N5 C3 1_555 1_555
N10 C6 1_555 1_555
C4 C5 1_555 1_555

#END
