
#######################################################################
#
#                 Cambridge Crystallographic Data Centre
#                                CCDC 
#
#######################################################################
#
# If this CIF has been generated from an entry in the Cambridge 
# Structural Database, then it will include bibliographic, chemical, 
# crystal, experimental, refinement or atomic coordinate data resulting 
# from the CCDC's data processing and validation procedures.
#
#######################################################################

data_QUSDOY
_symmetry_cell_setting           triclinic
_symmetry_space_group_name_H-M   'P -1'
_symmetry_Int_Tables_number      2
_space_group_name_Hall           '-P 1'
loop_
_symmetry_equiv_pos_site_id
_symmetry_equiv_pos_as_xyz
1 x,y,z
2 -x,-y,-z
_cell_length_a                   8.9228(18)
_cell_length_b                   10.135(2)
_cell_length_c                   10.156(2)
_cell_angle_alpha                65.05(3)
_cell_angle_beta                 70.52(3)
_cell_angle_gamma                84.41(3)
_cell_volume                     784.049
loop_
_atom_site_label
_atom_site_type_symbol
_atom_site_fract_x
_atom_site_fract_y
_atom_site_fract_z
Nd1 Nd -0.10585(2) 0.441370(18) 0.31880(2)
Cl1 Cl -0.42442(11) 0.45263(10) 0.32316(12)
O1 O -0.1188(3) 0.6638(3) 0.0937(3)
O2 O -0.0019(3) 0.6443(3) -0.1286(3)
O3 O -0.0875(3) -0.3681(3) 0.3934(3)
O4 O -0.0729(3) -0.2810(3) 0.5573(3)
O5 O -0.2675(3) 0.3706(3) 0.5940(3)
H1 H -0.233(6) 0.380(6) 0.658(5)
H2 H -0.359(3) 0.404(5) 0.617(6)
O6 O 0.1650(3) 0.5699(3) 0.1853(3)
H3 H 0.153(6) 0.6609(10) 0.143(5)
N1 N -0.2189(4) 0.9348(3) -0.0600(3)
N2 N -0.1312(4) 1.0628(3) -0.1286(4)
N3 N -0.1949(4) 1.1333(4) -0.0458(4)
N4 N -0.3212(4) 1.0579(3) 0.0765(4)
N5 N -0.4466(4) 0.8265(4) 0.1584(4)
H4 H -0.419(5) 0.741(2) 0.169(5)
H5 H -0.510(4) 0.842(5) 0.234(3)
N6 N -0.2591(3) -0.0530(3) 0.4539(3)
N7 N -0.1740(4) 0.0770(3) 0.3685(4)
N8 N -0.2252(4) 0.1542(3) 0.4466(4)
N9 N -0.3436(4) 0.0816(3) 0.5818(4)
N10 N -0.4632(4) -0.1584(3) 0.6964(4)
H6 H -0.531(3) -0.138(4) 0.766(3)
H7 H -0.486(6) -0.232(3) 0.686(6)
C1 C -0.0912(4) 0.7030(4) -0.0464(4)
C2 C -0.1816(5) 0.8299(4) -0.1268(4)
H8 H -0.1182 0.8789 -0.2341
H9 H -0.2798 0.7921 -0.1223
C3 C -0.3342(4) 0.9337(4) 0.0660(4)
C4 C -0.1218(4) -0.2796(3) 0.4550(4)
C5 C -0.2346(4) -0.1652(4) 0.3981(4)
H10 H -0.1939 -0.1194 0.2868
H11 H -0.3368 -0.2133 0.4276
C6 C -0.3616(4) -0.0486(4) 0.5829(4)
C7 C 0.3074(5) 0.5361(5) 0.0878(5)
H12 H 0.3914 0.6067 0.0551
H13 H 0.2876 0.5384 -0.0004
H14 H 0.3383 0.4408 0.1437
Nd1A Nd 0.10585(2) -0.441370(18) 0.68120(2)
Nd1_2 Nd -0.10585(2) -0.558630(18) 0.31880(2)
Nd1A_2 Nd 0.10585(2) 0.558630(18) -0.31880(2)
O2A O 0.0019(3) 0.3557(3) 0.1286(3)
O3_2 O -0.0875(3) 0.6319(3) 0.3934(3)
O4A O 0.0729(3) 0.2810(3) 0.4427(3)
loop_
_geom_bond_atom_site_label_1
_geom_bond_atom_site_label_2
_geom_bond_site_symmetry_1
_geom_bond_site_symmetry_2
Nd1 Cl1 1_555 1_555
O1 Nd1 1_555 1_555
O2 C1 1_555 1_555
O3 C4 1_555 1_555
O4 C4 1_555 1_555
O5 Nd1 1_555 1_555
H1 O5 1_555 1_555
H2 O5 1_555 1_555
O6 Nd1 1_555 1_555
H3 O6 1_555 1_555
N1 N2 1_555 1_555
N2 N3 1_555 1_555
N3 N4 1_555 1_555
N4 C3 1_555 1_555
N5 H4 1_555 1_555
H5 N5 1_555 1_555
N6 N7 1_555 1_555
N7 N8 1_555 1_555
N8 Nd1 1_555 1_555
N9 N8 1_555 1_555
N10 H6 1_555 1_555
H7 N10 1_555 1_555
C1 O1 1_555 1_555
C2 N1 1_555 1_555
H8 C2 1_555 1_555
H9 C2 1_555 1_555
C3 N1 1_555 1_555
C4 C5 1_555 1_555
C5 N6 1_555 1_555
H10 C5 1_555 1_555
H11 C5 1_555 1_555
C6 N6 1_555 1_555
C7 O6 1_555 1_555
H12 C7 1_555 1_555
H13 C7 1_555 1_555
H14 C7 1_555 1_555
Nd1A O4 1_555 1_555
Nd1_2 O3 1_555 1_555
Nd1A_2 O2 1_555 1_555
O2A Nd1 1_555 1_555
O3_2 Nd1 1_555 1_555
O4A Nd1 1_555 1_555
N5 C3 1_555 1_555
N9 C6 1_555 1_555
N10 C6 1_555 1_555
C1 C2 1_555 1_555

#END
