
#######################################################################
#
#                 Cambridge Crystallographic Data Centre
#                                CCDC 
#
#######################################################################
#
# If this CIF has been generated from an entry in the Cambridge 
# Structural Database, then it will include bibliographic, chemical, 
# crystal, experimental, refinement or atomic coordinate data resulting 
# from the CCDC's data processing and validation procedures.
#
#######################################################################

data_QUSDEO
_symmetry_cell_setting           triclinic
_symmetry_space_group_name_H-M   'P -1'
_symmetry_Int_Tables_number      2
_space_group_name_Hall           '-P 1'
loop_
_symmetry_equiv_pos_site_id
_symmetry_equiv_pos_as_xyz
1 x,y,z
2 -x,-y,-z
_cell_length_a                   8.9630(18)
_cell_length_b                   10.197(2)
_cell_length_c                   10.199(2)
_cell_angle_alpha                65.14(3)
_cell_angle_beta                 70.43(3)
_cell_angle_gamma                84.41(3)
_cell_volume                     795.885
loop_
_atom_site_label
_atom_site_type_symbol
_atom_site_fract_x
_atom_site_fract_y
_atom_site_fract_z
Pr1 Pr 0.39408(2) 0.44140(2) 0.81902(2)
Cl1 Cl 0.07445(12) 0.45257(12) 0.82312(14)
O1 O 0.4263(3) -0.2800(3) 1.0574(3)
O2 O 0.4130(4) -0.3673(3) 0.8940(3)
O3 O 0.3811(4) 0.6642(3) 0.5939(3)
O4 O 0.4972(4) 0.6440(3) 0.3723(3)
O5 O 0.2318(4) 0.3707(4) 1.0958(4)
H1 H 0.148(4) 0.416(6) 1.110(7)
H2 H 0.273(6) 0.380(6) 1.155(5)
O6 O 0.6661(4) 0.5706(3) 0.6841(3)
H3 H 0.662(5) 0.6618(7) 0.639(4)
N1 N 0.1564(4) 0.0797(3) 1.0825(4)
N2 N 0.2734(4) 0.1536(4) 0.9471(4)
N3 N 0.3245(4) 0.0764(3) 0.8692(4)
N4 N 0.2401(4) -0.0526(3) 0.9536(4)
N5 N 0.0371(4) -0.1575(4) 1.1957(4)
H4 H 0.021(5) -0.236(2) 1.190(5)
H5 H -0.028(5) -0.139(6) 1.267(4)
N6 N 0.2810(4) 0.9348(3) 0.4409(4)
N7 N 0.3695(5) 1.0633(4) 0.3707(5)
N8 N 0.3047(5) 1.1337(4) 0.4538(5)
N9 N 0.1779(4) 1.0582(4) 0.5763(4)
N10 N 0.0535(5) 0.8262(4) 0.6591(5)
H6 H 0.081(7) 0.743(3) 0.663(7)
H7 H -0.011(5) 0.841(6) 0.734(4)
C1 C 0.3778(4) -0.2795(4) 0.9555(4)
C2 C 0.2654(5) -0.1657(4) 0.8977(4)
H8 H 0.3066 -0.1207 0.7869
H9 H 0.1637 -0.2136 0.9268
C3 C 0.1376(4) -0.0493(4) 1.0838(4)
C4 C 0.4073(5) 0.7032(4) 0.4539(4)
C5 C 0.3190(5) 0.8312(4) 0.3727(4)
H10 H 0.3838 0.8801 0.2665
H11 H 0.2216 0.7948 0.3752
C6 C 0.1657(5) 0.9344(4) 0.5652(5)
C7 C 0.8076(6) 0.5360(6) 0.5872(6)
H12 H 0.8914 0.6066 0.5532
H13 H 0.7873 0.5368 0.5003
H14 H 0.8386 0.4418 0.6435
Pr1A Pr 0.60592(2) -0.44140(2) 1.18098(2)
Pr1_2 Pr 0.39408(2) -0.55860(2) 0.81902(2)
Pr1A_2 Pr 0.60592(2) 0.55860(2) 0.18098(2)
O1A O 0.5737(3) 0.2800(3) 0.9426(3)
O2_2 O 0.4130(4) 0.6327(3) 0.8940(3)
O4A O 0.5028(4) 0.3560(3) 0.6277(3)
loop_
_geom_bond_atom_site_label_1
_geom_bond_atom_site_label_2
_geom_bond_site_symmetry_1
_geom_bond_site_symmetry_2
Pr1 Cl1 1_555 1_555
O1 C1 1_555 1_555
O2 C1 1_555 1_555
O3 Pr1 1_555 1_555
O4 C4 1_555 1_555
O5 Pr1 1_555 1_555
H1 O5 1_555 1_555
H2 O5 1_555 1_555
O6 Pr1 1_555 1_555
H3 O6 1_555 1_555
N1 N2 1_555 1_555
N2 Pr1 1_555 1_555
N3 N2 1_555 1_555
N4 N3 1_555 1_555
N5 H4 1_555 1_555
H5 N5 1_555 1_555
N6 N7 1_555 1_555
N7 N8 1_555 1_555
N8 N9 1_555 1_555
N9 C6 1_555 1_555
N10 H6 1_555 1_555
H7 N10 1_555 1_555
C1 C2 1_555 1_555
C2 N4 1_555 1_555
H8 C2 1_555 1_555
H9 C2 1_555 1_555
C3 N1 1_555 1_555
C4 O3 1_555 1_555
C5 N6 1_555 1_555
H10 C5 1_555 1_555
H11 C5 1_555 1_555
C6 N6 1_555 1_555
C7 O6 1_555 1_555
H12 C7 1_555 1_555
H13 C7 1_555 1_555
H14 C7 1_555 1_555
Pr1A O1 1_555 1_555
Pr1_2 O2 1_555 1_555
Pr1A_2 O4 1_555 1_555
O1A Pr1 1_555 1_555
O2_2 Pr1 1_555 1_555
O4A Pr1 1_555 1_555
N4 C3 1_555 1_555
N5 C3 1_555 1_555
N10 C6 1_555 1_555
C4 C5 1_555 1_555

#END
