
#######################################################################
#
#                 Cambridge Crystallographic Data Centre
#                                CCDC 
#
#######################################################################
#
# If this CIF has been generated from an entry in the Cambridge 
# Structural Database, then it will include bibliographic, chemical, 
# crystal, experimental, refinement or atomic coordinate data resulting 
# from the CCDC's data processing and validation procedures.
#
#######################################################################

data_QUSFOA
_symmetry_cell_setting           triclinic
_symmetry_space_group_name_H-M   'P -1'
_symmetry_Int_Tables_number      2
_space_group_name_Hall           '-P 1'
loop_
_symmetry_equiv_pos_site_id
_symmetry_equiv_pos_as_xyz
1 x,y,z
2 -x,-y,-z
_cell_length_a                   7.137(4)
_cell_length_b                   9.981(5)
_cell_length_c                   11.292(6)
_cell_angle_alpha                83.25(2)
_cell_angle_beta                 83.46(2)
_cell_angle_gamma                82.73(2)
_cell_volume                     788.368
loop_
_atom_site_label
_atom_site_type_symbol
_atom_site_fract_x
_atom_site_fract_y
_atom_site_fract_z
Pt1 Pt 0.76868(12) 0.51277(8) 0.67894(7)
Na1 Na 0.4446(9) 0.1782(6) 0.0070(6)
Na2 Na 0.9216(8) 0.1701(6) 0.0599(5)
O1 O 0.5121(15) 0.0567(10) 0.3171(9)
O2 O 0.6294(14) 0.2057(9) 0.1737(9)
O3 O 0.8209(14) 0.8277(9) 0.0976(9)
O4 O 0.9812(15) 0.9648(10) 0.1764(9)
O5 O 0.3744(14) -0.0273(9) 0.1289(8)
N1 N 0.7150(17) 0.3932(12) 0.5578(11)
N2 N 0.8009(17) 0.6394(12) 0.5229(10)
N3 N 0.8815(19) 0.7082(13) 0.8444(12)
N4 N 0.725(2) 0.3099(14) 0.9074(13)
C1 C 0.669(2) 0.2602(14) 0.5840(13)
C2 C 0.631(2) 0.1883(16) 0.4939(13)
C3 C 0.645(2) 0.2412(15) 0.3743(13)
C4 C 0.691(2) 0.3709(14) 0.3510(13)
C5 C 0.725(2) 0.4450(15) 0.4430(14)
C6 C 0.773(2) 0.5913(15) 0.4200(14)
C7 C 0.7961(18) 0.6598(13) 0.3065(12)
C8 C 0.846(2) 0.7899(15) 0.3017(14)
C9 C 0.870(2) 0.8400(16) 0.4059(14)
C10 C 0.849(2) 0.7654(14) 0.5133(13)
C11 C 0.589(2) 0.1607(16) 0.2819(15)
C12 C 0.885(2) 0.8656(16) 0.1836(15)
C13 C 0.829(2) 0.6410(15) 0.7833(14)
C14 C 0.731(2) 0.3863(17) 0.8247(15)
H1 H 0.6649 0.2192 0.6645
H2 H 0.5937 0.0999 0.5143
H3 H 0.7014 0.4118 0.2706
H4 H 0.7778 0.6189 0.2374
H5 H 0.9028 0.9300 0.4017
H6 H 0.8684 0.8036 0.5835
Na1A Na 0.5554(9) 0.8218(6) -0.0070(6)
Na1A_2 Na 0.5554(9) -0.1782(6) -0.0070(6)
Na1_2 Na 0.4446(9) 0.1782(6) 1.0070(6)
Na2A Na 1.0784(8) 0.8299(6) -0.0599(5)
Na2_2 Na 0.9216(8) 1.1701(6) 0.0599(5)
Na2A_2 Na 1.0784(8) 0.8299(6) 0.9401(5)
Na2_3 Na 0.9216(8) 0.1701(6) 1.0599(5)
O3A O 0.1791(14) 0.1723(9) -0.0976(9)
O3A_2 O 1.1791(14) 0.1723(9) -0.0976(9)
O4_2 O 0.9812(15) -0.0352(10) 0.1764(9)
O5A O 0.6256(14) 0.0273(9) -0.1289(8)
N3A N 1.1185(19) 0.2918(13) 0.1556(12)
N4_2 N 0.725(2) 0.3099(14) -0.0926(13)
O6 O 0.302(3) 0.457(2) -0.050(2)
loop_
_geom_bond_atom_site_label_1
_geom_bond_atom_site_label_2
_geom_bond_site_symmetry_1
_geom_bond_site_symmetry_2
Pt1 N1 1_555 1_555
Na1 O2 1_555 1_555
Na2 O2 1_555 1_555
O1 C11 1_555 1_555
O2 C11 1_555 1_555
O3 C12 1_555 1_555
O4 C12 1_555 1_555
O5 Na1 1_555 1_555
N1 C1 1_555 1_555
N2 Pt1 1_555 1_555
N3 C13 1_555 1_555
N4 C14 1_555 1_555
C1 C2 1_555 1_555
C2 C3 1_555 1_555
C3 C4 1_555 1_555
C4 C5 1_555 1_555
C5 N1 1_555 1_555
C6 N2 1_555 1_555
C7 C6 1_555 1_555
C8 C7 1_555 1_555
C9 C8 1_555 1_555
C10 N2 1_555 1_555
C11 C3 1_555 1_555
C12 C8 1_555 1_555
C13 Pt1 1_555 1_555
C14 Pt1 1_555 1_555
H1 C1 1_555 1_555
H2 C2 1_555 1_555
H3 C4 1_555 1_555
H4 C7 1_555 1_555
H5 C9 1_555 1_555
H6 C10 1_555 1_555
Na1A O3 1_555 1_555
Na1A_2 O5 1_555 1_555
Na1_2 N4 1_555 1_555
Na2A O3 1_555 1_555
Na2_2 O4 1_555 1_555
Na2A_2 N3 1_555 1_555
Na2_3 N4 1_555 1_555
O3A Na1 1_555 1_555
O3A_2 Na2 1_555 1_555
O4_2 Na2 1_555 1_555
O5A Na1 1_555 1_555
N3A Na2 1_555 1_555
N4_2 Na1 1_555 1_555
Na2 N4_2 1_555 1_555
C5 C6 1_555 1_555
C9 C10 1_555 1_555
Na1A_2 O5A 1_555 1_555

#END
