
#######################################################################
#
#                 Cambridge Crystallographic Data Centre
#                                CCDC 
#
#######################################################################
#
# If this CIF has been generated from an entry in the Cambridge 
# Structural Database, then it will include bibliographic, chemical, 
# crystal, experimental, refinement or atomic coordinate data resulting 
# from the CCDC's data processing and validation procedures.
#
#######################################################################

data_QUSFEQ
_symmetry_cell_setting           triclinic
_symmetry_space_group_name_H-M   'P -1'
_symmetry_Int_Tables_number      2
_space_group_name_Hall           '-P 1'
loop_
_symmetry_equiv_pos_site_id
_symmetry_equiv_pos_as_xyz
1 x,y,z
2 -x,-y,-z
_cell_length_a                   9.3212(19)
_cell_length_b                   10.141(2)
_cell_length_c                   10.197(2)
_cell_angle_alpha                60.34(2)
_cell_angle_beta                 76.87(3)
_cell_angle_gamma                86.754(18)
_cell_volume                     813.922
loop_
_atom_site_label
_atom_site_type_symbol
_atom_site_fract_x
_atom_site_fract_y
_atom_site_fract_z
C1 C 0.2841(7) 0.1744(7) 1.0538(7)
C2 C 0.1552(7) 0.2630(7) 1.0862(8)
C3 C 0.2583(7) 0.4870(7) 1.0893(7)
C4 C 0.4037(6) 0.7707(7) 1.2752(7)
C5 C 0.3849(7) 0.7256(7) 1.4437(7)
H1 H 0.3507 0.8105 1.4584
H2 H 0.4795 0.7010 1.4718
C6 C 0.1317(7) 0.5924(7) 1.5763(7)
Eu1 Eu 0.35390(3) 0.88794(3) 0.96325(3)
N1 N 0.1978(7) 0.4215(6) 1.0306(7)
H3 H 0.1133 0.2150 1.1984
H4 H 0.0779 0.2603 1.0388
N2 N 0.1724(7) 0.5286(7) 0.8904(7)
N3 N 0.2159(9) 0.6560(7) 0.8719(8)
N4 N 0.2748(8) 0.6376(7) 0.9903(7)
N5 N 0.2951(8) 0.4170(7) 1.2259(8)
H5 H 0.3254 0.4582 1.2765
H6 H 0.2865 0.3148 1.2753
N6 N 0.2794(6) 0.5947(6) 1.5439(6)
N7 N 0.3234(8) 0.4544(7) 1.6029(8)
N8 N 0.2022(8) 0.3675(7) 1.6649(8)
N9 N 0.0805(7) 0.4492(7) 1.6536(7)
N10 N 0.0540(7) 0.7164(7) 1.5302(8)
H7 H -0.0420 0.6884 1.5654
H8 H 0.0774 0.7723 1.5685
O1 O 0.4108(5) 0.2162(5) 1.0433(5)
O2 O 0.2444(5) 0.0614(6) 1.0474(7)
O3 O 0.3375(6) 0.6963(5) 1.2387(5)
O4 O 0.4806(6) 0.8923(5) 1.1740(5)
O5 O 0.1923(6) 1.0489(6) 0.7872(6)
H9 H 0.2327 1.0629 0.6855
H10 H 0.1889 1.1459 0.7826
O6 O 0.0959(5) 0.8120(6) 1.1013(6)
H11 H 0.0449 0.9006 1.0904
H12 H 0.0911 0.7425 1.2091
O7 O 0.4449(6) 0.9091(7) 0.7068(6)
H13 H 0.5488 0.8946 0.6916
H14 H 0.3942 0.8330 0.7010
Eu1A Eu 0.64610(3) 0.11206(3) 1.03675(3)
Eu1_2 Eu 0.35390(3) -0.11206(3) 0.96325(3)
Eu1A_2 Eu 0.64610(3) 1.11206(3) 1.03675(3)
O1A O 0.5892(5) 0.7838(5) 0.9567(5)
O2_2 O 0.2444(5) 1.0614(6) 1.0474(7)
O4A O 0.5194(6) 1.1077(5) 0.8260(5)
Cl1 Cl 0.8081(2) 0.9475(2) 0.5160(2)
loop_
_geom_bond_atom_site_label_1
_geom_bond_atom_site_label_2
_geom_bond_site_symmetry_1
_geom_bond_site_symmetry_2
C1 C2 1_555 1_555
C2 N1 1_555 1_555
C3 N1 1_555 1_555
C4 C5 1_555 1_555
C5 H1 1_555 1_555
H2 C5 1_555 1_555
C6 N6 1_555 1_555
Eu1 N4 1_555 1_555
N1 N2 1_555 1_555
H3 C2 1_555 1_555
H4 C2 1_555 1_555
N2 N3 1_555 1_555
N3 N4 1_555 1_555
N4 C3 1_555 1_555
N5 C3 1_555 1_555
H5 N5 1_555 1_555
H6 N5 1_555 1_555
N6 C5 1_555 1_555
N7 N6 1_555 1_555
N8 N7 1_555 1_555
N9 C6 1_555 1_555
N10 C6 1_555 1_555
H7 N10 1_555 1_555
H8 N10 1_555 1_555
O1 C1 1_555 1_555
O2 C1 1_555 1_555
O3 C4 1_555 1_555
O4 C4 1_555 1_555
O5 Eu1 1_555 1_555
H9 O5 1_555 1_555
H10 O5 1_555 1_555
O6 Eu1 1_555 1_555
H11 O6 1_555 1_555
H12 O6 1_555 1_555
O7 Eu1 1_555 1_555
H13 O7 1_555 1_555
H14 O7 1_555 1_555
Eu1A O1 1_555 1_555
Eu1_2 O2 1_555 1_555
Eu1A_2 O4 1_555 1_555
O1A Eu1 1_555 1_555
O2_2 Eu1 1_555 1_555
O4A Eu1 1_555 1_555
Eu1 O3 1_555 1_555
Eu1 O4 1_555 1_555
N8 N9 1_555 1_555
Eu1A_2 O4A 1_555 1_555

#END
