
#######################################################################
#
#                 Cambridge Crystallographic Data Centre
#                                CCDC 
#
#######################################################################
#
# If this CIF has been generated from an entry in the Cambridge 
# Structural Database, then it will include bibliographic, chemical, 
# crystal, experimental, refinement or atomic coordinate data resulting 
# from the CCDC's data processing and validation procedures.
#
#######################################################################

data_QUSFAM
_symmetry_cell_setting           triclinic
_symmetry_space_group_name_H-M   'P -1'
_symmetry_Int_Tables_number      2
_space_group_name_Hall           '-P 1'
loop_
_symmetry_equiv_pos_site_id
_symmetry_equiv_pos_as_xyz
1 x,y,z
2 -x,-y,-z
_cell_length_a                   9.3156(19)
_cell_length_b                   10.118(2)
_cell_length_c                   10.184(2)
_cell_angle_alpha                60.41(3)
_cell_angle_beta                 76.80(3)
_cell_angle_gamma                86.80(3)
_cell_volume                     810.813
loop_
_atom_site_label
_atom_site_type_symbol
_atom_site_fract_x
_atom_site_fract_y
_atom_site_fract_z
Gd1 Gd 0.146224(14) 0.111919(13) 1.036644(14)
O1 O 0.1627(2) 0.3026(2) 0.7624(2)
O2 O 0.0189(2) 0.1065(2) 0.8260(2)
O3 O 0.0886(2) 0.7826(2) 0.9562(2)
O4 O 0.2539(2) 0.9381(2) 0.9539(2)
O5 O 0.4060(2) 0.1872(2) 0.8990(3)
H1 H 0.455(3) 0.118(3) 0.889(4)
H2 H 0.437(4) 0.2755(16) 0.823(3)
O6 O 0.0550(2) 0.0928(3) 1.2896(2)
H3 H 0.106(3) 0.072(4) 1.356(3)
H4 H -0.0327(15) 0.089(4) 1.340(4)
O7 O 0.3062(3) -0.0480(2) 1.2105(2)
H5 H 0.303(4) -0.1417(10) 1.236(4)
H6 H 0.306(4) -0.043(4) 1.291(2)
N1 N 0.2194(3) 0.4034(2) 0.4570(2)
N2 N 0.1782(3) 0.5483(3) 0.3981(3)
N3 N 0.2990(3) 0.6334(3) 0.3337(3)
N4 N 0.4209(3) 0.5508(3) 0.3465(3)
N5 N 0.4461(3) 0.2830(3) 0.4696(4)
N6 N 0.3026(3) 0.5792(2) 0.9707(3)
N7 N 0.3273(3) 0.4698(3) 1.1105(3)
N8 N 0.2812(3) 0.3418(3) 1.1318(3)
N9 N 0.2231(3) 0.3619(2) 1.0123(3)
N10 N 0.2051(4) 0.5810(3) 0.7736(4)
H7 H 0.197(5) 0.6766(8) 0.730(4)
H8 H 0.171(4) 0.520(4) 0.751(5)
C1 C 0.0958(3) 0.2275(3) 0.7255(3)
C2 C 0.1122(3) 0.2752(3) 0.5564(3)
H9 H 0.1432 0.1903 0.5401
H10 H 0.0174 0.3026 0.5293
C3 C 0.3678(3) 0.4068(3) 0.4248(3)
C4 C 0.2159(3) 0.8254(3) 0.9461(3)
C5 C 0.3444(3) 0.7381(3) 0.9126(3)
H11 H 0.3841 0.7869 0.8013
H12 H 0.4220 0.7433 0.9596
C6 C 0.2386(3) 0.5100(3) 0.9134(3)
H13 H 0.408(3) 0.204(2) 0.478(4)
H14 H 0.5372(12) 0.304(5) 0.424(4)
Gd1A Gd -0.146224(14) -0.111919(13) 0.963356(14)
Gd1A_2 Gd -0.146224(14) 0.888081(13) 0.963356(14)
Gd1_2 Gd 0.146224(14) 1.111919(13) 1.036644(14)
O2A O -0.0189(2) -0.1065(2) 1.1740(2)
O3A O -0.0886(2) 0.2174(2) 1.0438(2)
O4_2 O 0.2539(2) -0.0619(2) 0.9539(2)
Cl1 Cl 0.72748(9) 0.04408(9) 0.47552(8)
loop_
_geom_bond_atom_site_label_1
_geom_bond_atom_site_label_2
_geom_bond_site_symmetry_1
_geom_bond_site_symmetry_2
Gd1 O1 1_555 1_555
O1 C1 1_555 1_555
O2 Gd1 1_555 1_555
O3 C4 1_555 1_555
O4 C4 1_555 1_555
O5 Gd1 1_555 1_555
H1 O5 1_555 1_555
H2 O5 1_555 1_555
O6 Gd1 1_555 1_555
H3 O6 1_555 1_555
H4 O6 1_555 1_555
O7 Gd1 1_555 1_555
H5 O7 1_555 1_555
H6 O7 1_555 1_555
N1 N2 1_555 1_555
N2 N3 1_555 1_555
N3 N4 1_555 1_555
N4 C3 1_555 1_555
N5 C3 1_555 1_555
N6 N7 1_555 1_555
N7 N8 1_555 1_555
N8 N9 1_555 1_555
N9 Gd1 1_555 1_555
N10 H7 1_555 1_555
H8 N10 1_555 1_555
C1 O2 1_555 1_555
C2 N1 1_555 1_555
H9 C2 1_555 1_555
H10 C2 1_555 1_555
C3 N1 1_555 1_555
C4 C5 1_555 1_555
C5 N6 1_555 1_555
H11 C5 1_555 1_555
H12 C5 1_555 1_555
C6 N6 1_555 1_555
H13 N5 1_555 1_555
H14 N5 1_555 1_555
Gd1A O2 1_555 1_555
Gd1A_2 O3 1_555 1_555
Gd1_2 O4 1_555 1_555
O2A Gd1 1_555 1_555
O3A Gd1 1_555 1_555
O4_2 Gd1 1_555 1_555
N9 C6 1_555 1_555
N10 C6 1_555 1_555
C1 C2 1_555 1_555
Gd1A O2A 1_555 1_555

#END
