
#######################################################################
#
#                 Cambridge Crystallographic Data Centre
#                                CCDC 
#
#######################################################################
#
# If this CIF has been generated from an entry in the Cambridge 
# Structural Database, then it will include bibliographic, chemical, 
# crystal, experimental, refinement or atomic coordinate data resulting 
# from the CCDC's data processing and validation procedures.
#
#######################################################################

data_QUSLAS
_symmetry_cell_setting           monoclinic
_symmetry_space_group_name_H-M   'P 21/c'
_symmetry_Int_Tables_number      14
_space_group_name_Hall           '-P 2ybc'
loop_
_symmetry_equiv_pos_site_id
_symmetry_equiv_pos_as_xyz
1 x,y,z
2 -x,1/2+y,1/2-z
3 -x,-y,-z
4 x,1/2-y,1/2+z
_cell_length_a                   12.017(6)
_cell_length_b                   11.980(6)
_cell_length_c                   7.149(4)
_cell_angle_alpha                90
_cell_angle_beta                 103.190(14)
_cell_angle_gamma                90
_cell_volume                     1002.04
loop_
_atom_site_label
_atom_site_type_symbol
_atom_site_fract_x
_atom_site_fract_y
_atom_site_fract_z
Na1 Na 0.8380(2) 0.74119(19) 0.6944(4)
S1 S 0.18402(12) 0.55036(12) 0.3104(2)
O1 O 0.2357(4) 0.4412(3) 0.3120(7)
O2 O 0.1268(4) 0.5668(4) 0.4651(7)
O3 O 0.1107(4) 0.5774(4) 0.1250(7)
O4 O 0.6861(4) 0.7313(4) 0.3644(7)
O5 O 0.5437(4) 0.8921(4) 0.3883(8)
H1 H 0.6009 0.8675 0.3585
O6 O 0.8309(5) 0.9354(4) 0.6768(8)
H2 H 0.859(6) 0.959(6) 0.785(4)
H3 H 0.860(5) 0.969(5) 0.601(6)
O7 O 0.9698(4) 0.7406(4) 0.4940(7)
H4 H 1.010(6) 0.792(4) 0.547(12)
H5 H 1.012(6) 0.687(5) 0.495(17)
C1 C 0.2961(3) 0.6490(3) 0.3454(6)
C2 C 0.4075(3) 0.6176(2) 0.3451(6)
H6 H 0.4253 0.5426 0.3350
C3 C 0.4921(2) 0.6983(3) 0.3599(6)
C4 C 0.4655(3) 0.8103(3) 0.3750(6)
C5 C 0.3542(3) 0.8417(2) 0.3753(6)
H7 H 0.3364 0.9167 0.3855
C6 C 0.2695(2) 0.7610(3) 0.3606(6)
H8 H 0.1951 0.7820 0.3608
C7 C 0.6066(5) 0.6649(5) 0.3501(9)
H9 H 0.6205 0.5898 0.3323
Na1B Na 0.1620(2) 0.25881(19) 0.3056(4)
Na1C Na 0.8380(2) 0.75881(19) 0.1944(4)
O1B O 0.7643(4) 0.5588(3) 0.6880(7)
O4C O 0.6861(4) 0.7687(4) 0.8644(7)
O7C O 0.9698(4) 0.7594(4) 0.9940(7)
H4C H 1.010(6) 0.708(4) 1.047(12)
H5C H 1.012(6) 0.813(5) 0.995(17)
loop_
_geom_bond_atom_site_label_1
_geom_bond_atom_site_label_2
_geom_bond_site_symmetry_1
_geom_bond_site_symmetry_2
Na1 O4 1_555 1_555
S1 O1 1_555 1_555
O1 Na1B 1_555 1_555
O2 S1 1_555 1_555
O3 S1 1_555 1_555
O4 C7 1_555 1_555
O5 H1 1_555 1_555
O6 Na1 1_555 1_555
H2 O6 1_555 1_555
H3 O6 1_555 1_555
O7 Na1 1_555 1_555
H4 O7 1_555 1_555
H5 O7 1_555 1_555
C1 S1 1_555 1_555
C2 C1 1_555 1_555
H6 C2 1_555 1_555
C3 C2 1_555 1_555
C4 O5 1_555 1_555
C5 C4 1_555 1_555
H7 C5 1_555 1_555
C6 C1 1_555 1_555
H8 C6 1_555 1_555
C7 C3 1_555 1_555
H9 C7 1_555 1_555
Na1C O4 1_555 1_555
O1B Na1 1_555 1_555
O4C Na1 1_555 1_555
O7C Na1 1_555 1_555
H4C O7C 1_555 1_555
H5C O7C 1_555 1_555
O7 Na1C 1_555 1_555
C3 C4 1_555 1_555
C5 C6 1_555 1_555

#END
