
#######################################################################
#
#                 Cambridge Crystallographic Data Centre
#                                CCDC 
#
#######################################################################
#
# If this CIF has been generated from an entry in the Cambridge 
# Structural Database, then it will include bibliographic, chemical, 
# crystal, experimental, refinement or atomic coordinate data resulting 
# from the CCDC's data processing and validation procedures.
#
#######################################################################

data_QUSRIG
_symmetry_cell_setting           monoclinic
_symmetry_space_group_name_H-M   'P 21/n'
_symmetry_Int_Tables_number      14
_space_group_name_Hall           '-P 2yn'
loop_
_symmetry_equiv_pos_site_id
_symmetry_equiv_pos_as_xyz
1 x,y,z
2 1/2-x,1/2+y,1/2-z
3 -x,-y,-z
4 1/2+x,1/2-y,1/2+z
_cell_length_a                   12.173(2)
_cell_length_b                   7.3496(15)
_cell_length_c                   18.450(4)
_cell_angle_alpha                90
_cell_angle_beta                 96.93(3)
_cell_angle_gamma                90
_cell_volume                     1638.6
loop_
_atom_site_label
_atom_site_type_symbol
_atom_site_fract_x
_atom_site_fract_y
_atom_site_fract_z
Pr1 Pr 0.696827(14) 0.77084(2) 0.631049(9)
O1 O 0.8503(2) 0.7784(3) 0.56163(14)
O2 O 1.0146(2) 0.8062(4) 0.62734(13)
O3 O 1.3539(2) 0.7439(3) 0.51018(14)
O4 O 1.34233(19) 0.5043(3) 0.43601(13)
O5 O 1.1967(2) 0.4679(3) 0.30429(12)
O6 O 1.1431(2) 0.7368(3) 0.25849(14)
O7 O 0.85955(19) 0.8997(3) 0.71078(12)
H1 H 0.8519 0.9361 0.7536
H2 H 0.9223 0.9072 0.6951
O8 O 0.64452(19) 1.0912(3) 0.65391(12)
H3 H 0.5773 1.1180 0.6571
H4 H 0.6938 1.1742 0.6584
O9 O 0.4949(2) 0.6989(3) 0.63047(13)
H5 H 0.4629 0.7219 0.6680
H6 H 0.4585 0.6519 0.5928
O10 O 0.61519(19) 0.8942(3) 0.51339(12)
H7 H 0.5458 0.8862 0.5007
H8 H 0.6563 0.9454 0.4852
N1 N 1.0078(3) 0.7236(4) 0.37170(16)
C1 C 0.9538(3) 0.7618(4) 0.4292(2)
C2 C 1.0098(3) 0.7546(4) 0.5003(2)
C3 C 1.1222(3) 0.7181(4) 0.50911(19)
H9 H 1.1613 0.7224 0.5556
C4 C 1.1781(3) 0.6751(4) 0.44956(17)
C5 C 1.1151(3) 0.6752(4) 0.38137(17)
C6 C 0.8350(3) 0.8147(6) 0.4113(2)
H10 H 0.8231 0.8614 0.3624
H11 H 0.8167 0.9067 0.4448
H12 H 0.7889 0.7100 0.4152
C7 C 0.9541(3) 0.7820(4) 0.5684(2)
C8 C 1.3010(3) 0.6373(4) 0.46500(17)
C9 C 1.1570(2) 0.6239(4) 0.31026(17)
Pr1B Pr 1.303173(14) 0.22916(2) 0.368951(9)
Pr1C Pr 1.196827(14) 0.72916(2) 0.131049(9)
O4B O 0.65767(19) 0.4957(3) 0.56399(13)
O5B O 0.8033(2) 0.5321(3) 0.69571(12)
O6C O 0.6431(2) 0.7632(3) 0.75849(14)
O11 O 0.6277(2) 0.1631(4) 0.26353(13)
H13 H 0.5799 0.1953 0.2282
H14 H 0.6496 0.0529 0.2630
O12 O 0.6530(2) 0.7807(4) 0.25317(16)
H15 H 0.7130 0.7304 0.2723
H16 H 0.6379 0.7742 0.2069
O13 O 0.5462(2) 0.7119(3) 0.38021(15)
H17 H 0.5270 0.6036 0.3902
H18 H 0.5799 0.7222 0.3422
loop_
_geom_bond_atom_site_label_1
_geom_bond_atom_site_label_2
_geom_bond_site_symmetry_1
_geom_bond_site_symmetry_2
Pr1 O1 1_555 1_555
O1 C7 1_555 1_555
O2 C7 1_555 1_555
O3 C8 1_555 1_555
O4 C8 1_555 1_555
O5 C9 1_555 1_555
O6 C9 1_555 1_555
O7 Pr1 1_555 1_555
H1 O7 1_555 1_555
H2 O7 1_555 1_555
O8 Pr1 1_555 1_555
H3 O8 1_555 1_555
H4 O8 1_555 1_555
O9 Pr1 1_555 1_555
H5 O9 1_555 1_555
H6 O9 1_555 1_555
O10 Pr1 1_555 1_555
H7 O10 1_555 1_555
H8 O10 1_555 1_555
N1 C1 1_555 1_555
C1 C2 1_555 1_555
C2 C3 1_555 1_555
C3 H9 1_555 1_555
C4 C3 1_555 1_555
C5 N1 1_555 1_555
C6 C1 1_555 1_555
H10 C6 1_555 1_555
H11 C6 1_555 1_555
H12 C6 1_555 1_555
C7 C2 1_555 1_555
C8 C4 1_555 1_555
C9 C5 1_555 1_555
O11 H13 1_555 1_555
H14 O11 1_555 1_555
O12 H15 1_555 1_555
H16 O12 1_555 1_555
O13 H17 1_555 1_555
H18 O13 1_555 1_555
Pr1B O4 1_555 1_555
Pr1C O6 1_555 1_555
O4B Pr1 1_555 1_555
O5B Pr1 1_555 1_555
O6C Pr1 1_555 1_555
O5 Pr1B 1_555 1_555
C4 C5 1_555 1_555

#END
