
#######################################################################
#
#                 Cambridge Crystallographic Data Centre
#                                CCDC 
#
#######################################################################
#
# If this CIF has been generated from an entry in the Cambridge 
# Structural Database, then it will include bibliographic, chemical, 
# crystal, experimental, refinement or atomic coordinate data resulting 
# from the CCDC's data processing and validation procedures.
#
#######################################################################

data_QUSROM
_symmetry_cell_setting           monoclinic
_symmetry_space_group_name_H-M   'P 21/n'
_symmetry_Int_Tables_number      14
_space_group_name_Hall           '-P 2yn'
loop_
_symmetry_equiv_pos_site_id
_symmetry_equiv_pos_as_xyz
1 x,y,z
2 1/2-x,1/2+y,1/2-z
3 -x,-y,-z
4 1/2+x,1/2-y,1/2+z
_cell_length_a                   12.158(2)
_cell_length_b                   7.3294(15)
_cell_length_c                   18.442(4)
_cell_angle_alpha                90
_cell_angle_beta                 96.93(3)
_cell_angle_gamma                90
_cell_volume                     1631.38
loop_
_atom_site_label
_atom_site_type_symbol
_atom_site_fract_x
_atom_site_fract_y
_atom_site_fract_z
Nd1 Nd 0.697148(18) 0.77219(3) 0.631370(12)
O1 O 0.8498(3) 0.7786(4) 0.56153(19)
O2 O 1.0146(3) 0.8057(5) 0.62770(18)
O3 O 1.3545(3) 0.7417(4) 0.51001(19)
O4 O 1.3429(2) 0.5014(4) 0.43601(17)
O5 O 1.1971(3) 0.4664(4) 0.30428(16)
O6 O 1.1437(3) 0.7355(3) 0.25826(17)
O7 O 0.8584(2) 0.9011(4) 0.71064(16)
H1 H 0.8508 0.9376 0.7535
H2 H 0.9211 0.9086 0.6949
O8 O 0.6448(2) 1.0911(4) 0.65395(16)
H3 H 0.5775 1.1178 0.6571
H4 H 0.6940 1.1740 0.6585
O9 O 0.4961(3) 0.7025(4) 0.63068(18)
H5 H 0.4640 0.7255 0.6682
H6 H 0.4596 0.6555 0.5930
O10 O 0.6158(2) 0.8952(4) 0.51398(16)
H7 H 0.5464 0.8872 0.5013
H8 H 0.6569 0.9464 0.4858
N1 N 1.0079(4) 0.7234(5) 0.3717(2)
C1 C 0.9537(4) 0.7612(5) 0.4293(3)
C2 C 1.0097(4) 0.7544(5) 0.5003(3)
C3 C 1.1221(4) 0.7170(5) 0.5092(3)
H9 H 1.1611 0.7209 0.5557
C4 C 1.1782(4) 0.6737(6) 0.4500(2)
C5 C 1.1152(3) 0.6740(6) 0.3814(2)
C6 C 0.8349(4) 0.8144(7) 0.4109(3)
H10 H 0.8231 0.8587 0.3616
H11 H 0.8167 0.9085 0.4436
H12 H 0.7885 0.7101 0.4156
C7 C 0.9538(4) 0.7815(5) 0.5681(3)
C8 C 1.3011(3) 0.6354(6) 0.4655(2)
C9 C 1.1575(3) 0.6225(6) 0.3102(2)
Nd1B Nd 1.302852(18) 0.22781(3) 0.368630(12)
Nd1C Nd 1.197148(18) 0.72781(3) 0.131370(12)
O4B O 0.6571(2) 0.4986(4) 0.56399(17)
O5B O 0.8029(3) 0.5336(4) 0.69572(16)
O6C O 0.6437(3) 0.7645(3) 0.75826(17)
O11 O 0.6272(3) 0.1607(5) 0.26405(17)
H13 H 0.5794 0.1929 0.2288
H14 H 0.6491 0.0506 0.2636
O12 O 0.6530(3) 0.7787(4) 0.2533(2)
H15 H 0.7131 0.7284 0.2724
H16 H 0.6380 0.7722 0.2070
O13 O 0.5453(3) 0.7119(4) 0.3814(2)
H17 H 0.5262 0.6036 0.3914
H18 H 0.5790 0.7222 0.3434
loop_
_geom_bond_atom_site_label_1
_geom_bond_atom_site_label_2
_geom_bond_site_symmetry_1
_geom_bond_site_symmetry_2
Nd1 O1 1_555 1_555
O1 C7 1_555 1_555
O2 C7 1_555 1_555
O3 C8 1_555 1_555
O4 C8 1_555 1_555
O5 C9 1_555 1_555
O6 C9 1_555 1_555
O7 Nd1 1_555 1_555
H1 O7 1_555 1_555
H2 O7 1_555 1_555
O8 Nd1 1_555 1_555
H3 O8 1_555 1_555
H4 O8 1_555 1_555
O9 Nd1 1_555 1_555
H5 O9 1_555 1_555
H6 O9 1_555 1_555
O10 Nd1 1_555 1_555
H7 O10 1_555 1_555
H8 O10 1_555 1_555
N1 C1 1_555 1_555
C1 C2 1_555 1_555
C2 C3 1_555 1_555
C3 H9 1_555 1_555
C4 C3 1_555 1_555
C5 N1 1_555 1_555
C6 C1 1_555 1_555
H10 C6 1_555 1_555
H11 C6 1_555 1_555
H12 C6 1_555 1_555
C7 C2 1_555 1_555
C8 C4 1_555 1_555
C9 C5 1_555 1_555
O11 H13 1_555 1_555
H14 O11 1_555 1_555
O12 H15 1_555 1_555
H16 O12 1_555 1_555
O13 H17 1_555 1_555
H18 O13 1_555 1_555
Nd1B O4 1_555 1_555
Nd1C O6 1_555 1_555
O4B Nd1 1_555 1_555
O5B Nd1 1_555 1_555
O6C Nd1 1_555 1_555
O5 Nd1B 1_555 1_555
C4 C5 1_555 1_555

#END
