
#######################################################################
#
#                 Cambridge Crystallographic Data Centre
#                                CCDC 
#
#######################################################################
#
# If this CIF has been generated from an entry in the Cambridge 
# Structural Database, then it will include bibliographic, chemical, 
# crystal, experimental, refinement or atomic coordinate data resulting 
# from the CCDC's data processing and validation procedures.
#
#######################################################################

data_QUSRUS
_symmetry_cell_setting           monoclinic
_symmetry_space_group_name_H-M   'P 21/n'
_symmetry_Int_Tables_number      14
_space_group_name_Hall           '-P 2yn'
loop_
_symmetry_equiv_pos_site_id
_symmetry_equiv_pos_as_xyz
1 x,y,z
2 1/2-x,1/2+y,1/2-z
3 -x,-y,-z
4 1/2+x,1/2-y,1/2+z
_cell_length_a                   12.119(3)
_cell_length_b                   7.2957(16)
_cell_length_c                   18.367(4)
_cell_angle_alpha                90
_cell_angle_beta                 96.775(2)
_cell_angle_gamma                90
_cell_volume                     1612.61
loop_
_atom_site_label
_atom_site_type_symbol
_atom_site_fract_x
_atom_site_fract_y
_atom_site_fract_z
Sm1 Sm 0.697723(12) 0.77482(2) 0.631884(8)
O1 O 0.84829(19) 0.7787(3) 0.56189(12)
O2 O 1.01382(19) 0.8071(3) 0.62791(13)
O3 O 1.35580(19) 0.7382(3) 0.50983(13)
O4 O 1.34324(18) 0.4943(3) 0.43635(13)
O5 O 1.19879(18) 0.4622(3) 0.30456(12)
O6 O 1.14413(18) 0.7317(3) 0.25779(12)
O7 O 0.85746(17) 0.9028(3) 0.71038(12)
H1 H 0.8498 0.9392 0.7532
H2 H 0.9202 0.9103 0.6947
O8 O 0.64570(18) 1.0906(3) 0.65388(11)
H3 H 0.5784 1.1174 0.6571
H4 H 0.6949 1.1735 0.6584
O9 O 0.49872(19) 0.7080(3) 0.63099(13)
H5 H 0.4667 0.7310 0.6685
H6 H 0.4623 0.6610 0.5933
O10 O 0.61715(18) 0.8970(3) 0.51567(12)
H7 H 0.5477 0.8890 0.5030
H8 H 0.6583 0.9482 0.4875
N1 N 1.0075(2) 0.7216(3) 0.37166(15)
C1 C 0.9532(3) 0.7609(4) 0.42937(18)
C2 C 1.0093(3) 0.7530(4) 0.50034(18)
C3 C 1.1223(3) 0.7147(4) 0.50953(17)
H9 H 1.1621 0.7191 0.5573
C4 C 1.1784(2) 0.6699(4) 0.44986(17)
C5 C 1.1158(2) 0.6708(4) 0.38147(16)
C6 C 0.8344(3) 0.8149(5) 0.41105(19)
H10 H 0.8222 0.8586 0.3603
H11 H 0.8163 0.9129 0.4442
H12 H 0.7866 0.7087 0.4167
C7 C 0.9533(3) 0.7821(4) 0.56882(17)
C8 C 1.3016(2) 0.6303(4) 0.46542(16)
C9 C 1.1586(2) 0.6188(4) 0.31022(16)
Sm1B Sm 1.302277(12) 0.22518(2) 0.368116(8)
Sm1C Sm 1.197723(12) 0.72518(2) 0.131884(8)
O4B O 0.65676(18) 0.5057(3) 0.56365(13)
O5B O 0.80121(18) 0.5378(3) 0.69544(12)
O6C O 0.64413(18) 0.7683(3) 0.75779(12)
O11 O 0.62691(19) 0.1577(4) 0.26410(12)
H13 H 0.5790 0.1899 0.2288
H14 H 0.6488 0.0476 0.2636
O12 O 0.6522(2) 0.7741(3) 0.25424(15)
H15 H 0.7122 0.7238 0.2733
H16 H 0.6372 0.7676 0.2079
O13 O 0.5444(2) 0.7117(3) 0.38348(15)
H17 H 0.5253 0.6034 0.3934
H18 H 0.5782 0.7220 0.3455
loop_
_geom_bond_atom_site_label_1
_geom_bond_atom_site_label_2
_geom_bond_site_symmetry_1
_geom_bond_site_symmetry_2
Sm1 O1 1_555 1_555
O1 C7 1_555 1_555
O2 C7 1_555 1_555
O3 C8 1_555 1_555
O4 C8 1_555 1_555
O5 C9 1_555 1_555
O6 C9 1_555 1_555
O7 Sm1 1_555 1_555
H1 O7 1_555 1_555
H2 O7 1_555 1_555
O8 Sm1 1_555 1_555
H3 O8 1_555 1_555
H4 O8 1_555 1_555
O9 Sm1 1_555 1_555
H5 O9 1_555 1_555
H6 O9 1_555 1_555
O10 Sm1 1_555 1_555
H7 O10 1_555 1_555
H8 O10 1_555 1_555
N1 C1 1_555 1_555
C1 C2 1_555 1_555
C2 C3 1_555 1_555
C3 H9 1_555 1_555
C4 C3 1_555 1_555
C5 N1 1_555 1_555
C6 C1 1_555 1_555
H10 C6 1_555 1_555
H11 C6 1_555 1_555
H12 C6 1_555 1_555
C7 C2 1_555 1_555
C8 C4 1_555 1_555
C9 C5 1_555 1_555
O11 H13 1_555 1_555
H14 O11 1_555 1_555
O12 H15 1_555 1_555
H16 O12 1_555 1_555
O13 H17 1_555 1_555
H18 O13 1_555 1_555
Sm1B O4 1_555 1_555
Sm1C O6 1_555 1_555
O4B Sm1 1_555 1_555
O5B Sm1 1_555 1_555
O6C Sm1 1_555 1_555
O5 Sm1B 1_555 1_555
C4 C5 1_555 1_555

#END
