
#######################################################################
#
#                 Cambridge Crystallographic Data Centre
#                                CCDC 
#
#######################################################################
#
# If this CIF has been generated from an entry in the Cambridge 
# Structural Database, then it will include bibliographic, chemical, 
# crystal, experimental, refinement or atomic coordinate data resulting 
# from the CCDC's data processing and validation procedures.
#
#######################################################################

data_QUSVUW
_symmetry_cell_setting           triclinic
_symmetry_space_group_name_H-M   'P -1'
_symmetry_Int_Tables_number      2
_space_group_name_Hall           '-P 1'
loop_
_symmetry_equiv_pos_site_id
_symmetry_equiv_pos_as_xyz
1 x,y,z
2 -x,-y,-z
_cell_length_a                   9.584(5)
_cell_length_b                   10.442(6)
_cell_length_c                   12.357(6)
_cell_angle_alpha                100.584(3)
_cell_angle_beta                 104.738(8)
_cell_angle_gamma                94.047(5)
_cell_volume                     1166.62
loop_
_atom_site_label
_atom_site_type_symbol
_atom_site_fract_x
_atom_site_fract_y
_atom_site_fract_z
Co1 Co 0.5000 0.0000 0.5000
Co2 Co 0.61484(8) -0.04404(8) 0.77682(7)
O1 O 0.3818(5) -0.0194(4) 0.8010(4)
O2 O 0.4657(4) 0.0493(4) 0.6682(3)
O3 O -0.2874(4) 0.0384(4) 0.5811(4)
O4 O -0.1833(4) -0.0155(4) 0.7463(4)
O5 O 0.0748(4) 0.2728(4) 0.4518(4)
O6 O 0.5186(5) 0.7817(4) 0.6737(4)
O7 O 0.4841(5) 0.7986(4) 0.4911(4)
N1 N 0.6901(6) -0.1569(5) 0.8992(4)
N2 N 0.6833(6) -0.8603(5) 0.8985(5)
C1 C 0.3627(7) 0.0340(6) 0.7165(5)
C2 C 0.2216(6) 0.0836(6) 0.6696(5)
C3 C 0.0972(6) 0.0433(6) 0.6963(5)
H1 H 0.1017 -0.0091 0.7501
C4 C -0.0360(6) 0.0807(5) 0.6431(5)
C5 C -0.0407(6) 0.1611(6) 0.5631(5)
H2 H -0.1285 0.1865 0.5262
C6 C 0.0875(6) 0.2022(5) 0.5398(5)
C7 C 0.2183(7) 0.1657(6) 0.5916(5)
H3 H 0.3031 0.1949 0.5753
C8 C -0.1786(6) 0.0295(6) 0.6584(5)
C9 C 0.1669(6) 0.3881(5) 0.4780(5)
C10 C 0.2351(7) 0.4189(6) 0.3993(5)
H4 H 0.2190 0.3627 0.3284
C11 C 0.3291(7) 0.5359(6) 0.4272(5)
H5 H 0.3745 0.5577 0.3737
C12 C 0.3561(7) 0.6208(6) 0.5336(5)
C13 C 0.2836(7) 0.5884(6) 0.6111(6)
H6 H 0.3001 0.6438 0.6825
C14 C 0.1860(7) 0.4734(6) 0.5827(5)
H7 H 0.1345 0.4543 0.6334
C15 C 0.4616(7) 0.7430(6) 0.5693(5)
C16 C 0.5888(7) -0.2309(6) 0.9251(6)
H8 H 0.4917 -0.2305 0.8873
C17 C 0.6224(7) -0.3082(6) 1.0060(6)
H9 H 0.5487 -0.3578 1.0221
C18 C 0.7668(7) -0.3111(6) 1.0627(5)
C19 C 0.8740(8) -0.2341(7) 1.0351(6)
H10 H 0.9721 -0.2331 1.0708
C20 C 0.8296(6) -0.1595(6) 0.9533(5)
H11 H 0.9005 -0.1086 0.9351
C21 C 0.8104(8) -0.3883(6) 1.1549(5)
H12 H 0.7230 -0.4273 1.1681
H13 H 0.8641 -0.3280 1.2252
C22 C 0.9039(7) -0.4980(6) 1.1286(5)
H14 H 0.9772 -0.4643 1.0960
H15 H 0.9541 -0.5204 1.2001
C23 C 0.8199(7) -0.6219(6) 1.0476(5)
C24 C 0.7599(7) -0.6294(6) 0.9309(5)
H16 H 0.7632 -0.5541 0.9011
C25 C 0.6959(7) -0.7473(6) 0.8600(5)
H17 H 0.6596 -0.7500 0.7822
C26 C 0.7347(7) -0.8507(6) 1.0120(5)
H18 H 0.7237 -0.9258 1.0409
C27 C 0.8023(7) -0.7366(6) 1.0879(5)
H19 H 0.8360 -0.7359 1.1656
Co1_2 Co -0.5000 0.0000 0.5000
Co1_3 Co 0.5000 1.0000 0.5000
Co1_4 Co 1.5000 0.0000 0.5000
Co1_5 Co 0.5000 -1.0000 0.5000
Co2A Co 0.38516(8) 0.04404(8) 0.22318(7)
Co2_2 Co -0.38516(8) -0.04404(8) 0.77682(7)
Co2_3 Co 0.61484(8) 0.95596(8) 0.77682(7)
Co2_4 Co 0.61484(8) -1.04404(8) 0.77682(7)
Co2A_2 Co 1.38516(8) 0.04404(8) 0.22318(7)
Co2A_3 Co 0.38516(8) -0.95596(8) 0.22318(7)
O1A O 0.6182(5) 0.0194(4) 0.1990(4)
O2A O 0.5343(4) -0.0493(4) 0.3318(3)
O3A O 1.2874(4) -0.0384(4) 0.4189(4)
O3_2 O 0.7126(4) 0.0384(4) 0.5811(4)
O3A_2 O 0.2874(4) -0.0384(4) 0.4189(4)
O4A O 1.1833(4) 0.0155(4) 0.2537(4)
O4_2 O 0.8167(4) -0.0155(4) 0.7463(4)
O4A_2 O 0.1833(4) 0.0155(4) 0.2537(4)
O5A O 0.9252(4) -0.2728(4) 0.5482(4)
O6A O 0.4814(5) -0.7817(4) 0.3263(4)
O6_2 O 0.5186(5) -0.2183(4) 0.6737(4)
O6A_2 O 0.4814(5) 0.2183(4) 0.3263(4)
O7A O 0.5159(5) -0.7986(4) 0.5089(4)
O7_2 O 0.4841(5) -0.2014(4) 0.4911(4)
O7A_2 O 0.5159(5) 0.2014(4) 0.5089(4)
N1_2 N 0.6901(6) 0.8431(5) 0.8992(4)
N1A N 0.3099(6) 0.1569(5) 0.1008(4)
N2_2 N 0.6833(6) 0.1397(5) 0.8985(5)
N2A N 0.3167(6) -0.1397(5) 0.1015(5)
C1A C 0.6373(7) -0.0340(6) 0.2835(5)
C2A C 0.7784(6) -0.0836(6) 0.3304(5)
C3A C 0.9028(6) -0.0433(6) 0.3037(5)
H1A H 0.8983 0.0091 0.2499
C4A C 1.0360(6) -0.0807(5) 0.3569(5)
C5A C 1.0407(6) -0.1611(6) 0.4369(5)
H2A H 1.1285 -0.1865 0.4738
C6A C 0.9125(6) -0.2022(5) 0.4602(5)
C7A C 0.7817(7) -0.1657(6) 0.4084(5)
H3A H 0.6969 -0.1949 0.4247
C8A C 1.1786(6) -0.0295(6) 0.3416(5)
C9A C 0.8331(6) -0.3881(5) 0.5220(5)
C10A C 0.7649(7) -0.4189(6) 0.6007(5)
H4A H 0.7810 -0.3627 0.6716
C11A C 0.6709(7) -0.5359(6) 0.5728(5)
H5A H 0.6255 -0.5577 0.6263
C12A C 0.6439(7) -0.6208(6) 0.4664(5)
C13A C 0.7164(7) -0.5884(6) 0.3889(6)
H6A H 0.6999 -0.6438 0.3175
C14A C 0.8140(7) -0.4734(6) 0.4173(5)
H7A H 0.8655 -0.4543 0.3666
C15A C 0.5384(7) -0.7430(6) 0.4307(5)
C16_2 C 0.5888(7) 0.7691(6) 0.9251(6)
H8_2 H 0.4917 0.7695 0.8873
C17_2 C 0.6224(7) 0.6918(6) 1.0060(6)
H9_2 H 0.5487 0.6422 1.0221
C18_2 C 0.7668(7) 0.6889(6) 1.0627(5)
C19_2 C 0.8740(8) 0.7659(7) 1.0351(6)
H10_2 H 0.9721 0.7669 1.0708
C20_2 C 0.8296(6) 0.8405(6) 0.9533(5)
H11_2 H 0.9005 0.8914 0.9351
C21_2 C 0.8104(8) 0.6117(6) 1.1549(5)
H12_2 H 0.7230 0.5727 1.1681
H13_2 H 0.8641 0.6720 1.2252
C22_2 C 0.9039(7) 0.5020(6) 1.1286(5)
H14_2 H 0.9772 0.5357 1.0960
H15_2 H 0.9541 0.4796 1.2001
C23_2 C 0.8199(7) 0.3781(6) 1.0476(5)
C24_2 C 0.7599(7) 0.3706(6) 0.9309(5)
H16_2 H 0.7632 0.4459 0.9011
C25_2 C 0.6959(7) 0.2527(6) 0.8600(5)
H17_2 H 0.6596 0.2500 0.7822
C26_2 C 0.7347(7) 0.1493(6) 1.0120(5)
H18_2 H 0.7237 0.0742 1.0409
C27_2 C 0.8023(7) 0.2634(6) 1.0879(5)
H19_2 H 0.8360 0.2641 1.1656
loop_
_geom_bond_atom_site_label_1
_geom_bond_atom_site_label_2
_geom_bond_site_symmetry_1
_geom_bond_site_symmetry_2
Co1 O2 1_555 1_555
Co2 O1 1_555 1_555
O1 C1 1_555 1_555
O2 Co2 1_555 1_555
O3 C8 1_555 1_555
O4 C8 1_555 1_555
O5 C6 1_555 1_555
O6 C15 1_555 1_555
O7 C15 1_555 1_555
N1 Co2 1_555 1_555
N2 C25 1_555 1_555
C1 O2 1_555 1_555
C2 C1 1_555 1_555
C3 C2 1_555 1_555
H1 C3 1_555 1_555
C4 C3 1_555 1_555
C5 C4 1_555 1_555
H2 C5 1_555 1_555
C6 C5 1_555 1_555
C7 C2 1_555 1_555
H3 C7 1_555 1_555
C8 C4 1_555 1_555
C9 O5 1_555 1_555
C10 C9 1_555 1_555
H4 C10 1_555 1_555
C11 C10 1_555 1_555
H5 C11 1_555 1_555
C12 C11 1_555 1_555
C13 C12 1_555 1_555
H6 C13 1_555 1_555
C14 C9 1_555 1_555
H7 C14 1_555 1_555
C15 C12 1_555 1_555
C16 N1 1_555 1_555
H8 C16 1_555 1_555
C17 C16 1_555 1_555
H9 C17 1_555 1_555
C18 C17 1_555 1_555
C19 C18 1_555 1_555
H10 C19 1_555 1_555
C20 N1 1_555 1_555
H11 C20 1_555 1_555
C21 C18 1_555 1_555
H12 C21 1_555 1_555
H13 C21 1_555 1_555
C22 C21 1_555 1_555
H14 C22 1_555 1_555
H15 C22 1_555 1_555
C23 C22 1_555 1_555
C24 C23 1_555 1_555
H16 C24 1_555 1_555
C25 C24 1_555 1_555
H17 C25 1_555 1_555
C26 N2 1_555 1_555
H18 C26 1_555 1_555
C27 C23 1_555 1_555
H19 C27 1_555 1_555
Co1_2 O3 1_555 1_555
Co1_3 O7 1_555 1_555
Co1_4 O3A 1_555 1_555
Co1_5 O7A 1_555 1_555
Co2A O1A 1_555 1_555
Co2_2 O4 1_555 1_555
Co2_3 O6 1_555 1_555
Co2_4 N2 1_555 1_555
Co2A_2 O4A 1_555 1_555
Co2A_3 O6A 1_555 1_555
O1A C1A 1_555 1_555
O2A Co1 1_555 1_555
O3A C8A 1_555 1_555
O3_2 Co1 1_555 1_555
O3A_2 Co1 1_555 1_555
O4A C8A 1_555 1_555
O4_2 Co2 1_555 1_555
O4A_2 Co2A 1_555 1_555
O5A C6A 1_555 1_555
O6A C15A 1_555 1_555
O6_2 Co2 1_555 1_555
O6A_2 Co2A 1_555 1_555
O7A C15A 1_555 1_555
O7_2 Co1 1_555 1_555
O7A_2 Co1 1_555 1_555
N1_2 Co2_3 1_555 1_555
N1A Co2A 1_555 1_555
N2_2 Co2 1_555 1_555
N2A Co2A 1_555 1_555
C1A O2A 1_555 1_555
C2A C1A 1_555 1_555
C3A C2A 1_555 1_555
H1A C3A 1_555 1_555
C4A C3A 1_555 1_555
C5A C4A 1_555 1_555
H2A C5A 1_555 1_555
C6A C5A 1_555 1_555
C7A C2A 1_555 1_555
H3A C7A 1_555 1_555
C8A C4A 1_555 1_555
C9A O5A 1_555 1_555
C10A C9A 1_555 1_555
H4A C10A 1_555 1_555
C11A C10A 1_555 1_555
H5A C11A 1_555 1_555
C12A C11A 1_555 1_555
C13A C12A 1_555 1_555
H6A C13A 1_555 1_555
C14A C9A 1_555 1_555
H7A C14A 1_555 1_555
C15A C12A 1_555 1_555
C16_2 N1_2 1_555 1_555
H8_2 C16_2 1_555 1_555
C17_2 C16_2 1_555 1_555
H9_2 C17_2 1_555 1_555
C18_2 C17_2 1_555 1_555
C19_2 C18_2 1_555 1_555
H10_2 C19_2 1_555 1_555
C20_2 N1_2 1_555 1_555
H11_2 C20_2 1_555 1_555
C21_2 C18_2 1_555 1_555
H12_2 C21_2 1_555 1_555
H13_2 C21_2 1_555 1_555
C22_2 C21_2 1_555 1_555
H14_2 C22_2 1_555 1_555
H15_2 C22_2 1_555 1_555
C23_2 C22_2 1_555 1_555
C24_2 C23_2 1_555 1_555
H16_2 C24_2 1_555 1_555
C25_2 N2_2 1_555 1_555
H17_2 C25_2 1_555 1_555
C26_2 N2_2 1_555 1_555
H18_2 C26_2 1_555 1_555
C27_2 C23_2 1_555 1_555
H19_2 C27_2 1_555 1_555
C6 C7 1_555 1_555
C13 C14 1_555 1_555
C19 C20 1_555 1_555
C26 C27 1_555 1_555
Co2A O2A 1_555 1_555
C6A C7A 1_555 1_555
C13A C14A 1_555 1_555
C19_2 C20_2 1_555 1_555
C24_2 C25_2 1_555 1_555
C26_2 C27_2 1_555 1_555

#END
