
#######################################################################
#
#                 Cambridge Crystallographic Data Centre
#                                CCDC 
#
#######################################################################
#
# If this CIF has been generated from an entry in the Cambridge 
# Structural Database, then it will include bibliographic, chemical, 
# crystal, experimental, refinement or atomic coordinate data resulting 
# from the CCDC's data processing and validation procedures.
#
#######################################################################

data_QUSVIK
_symmetry_cell_setting           triclinic
_symmetry_space_group_name_H-M   'P -1'
_symmetry_Int_Tables_number      2
_space_group_name_Hall           '-P 1'
loop_
_symmetry_equiv_pos_site_id
_symmetry_equiv_pos_as_xyz
1 x,y,z
2 -x,-y,-z
_cell_length_a                   9.682(2)
_cell_length_b                   10.102(2)
_cell_length_c                   11.134(2)
_cell_angle_alpha                67.128(3)
_cell_angle_beta                 77.118(3)
_cell_angle_gamma                66.641(3)
_cell_volume                     918.075
loop_
_atom_site_label
_atom_site_type_symbol
_atom_site_fract_x
_atom_site_fract_y
_atom_site_fract_z
Co1 Co 0.12703(8) 0.05631(8) 0.90422(7)
Co2 Co -0.07942(8) 1.03255(9) 0.74318(8)
O1 O 0.6793(5) 0.3840(5) 0.8403(5)
O2 O 0.3254(5) 0.0901(5) 0.9245(5)
O3 O 0.0998(5) 0.2579(6) 0.9408(5)
O4 O 0.2203(5) 0.8508(5) 0.8669(4)
O5 O 0.0552(5) 0.8191(5) 0.7780(5)
O6 O 1.0088(5) 0.8193(6) 0.4067(4)
O7 O 0.8498(6) 0.8181(6) 0.2913(4)
O8 O -0.0991(4) 0.0793(5) 0.9010(4)
N1 N -0.2545(6) 1.0420(6) 0.6642(5)
C1 C 0.1757(6) 0.7697(7) 0.8342(6)
C2 C 0.2733(7) 0.6074(7) 0.8562(6)
C3 C 0.2120(7) 0.4935(7) 0.8827(6)
H1 H 0.1081 0.5182 0.8869
C4 C 0.3078(7) 0.3435(7) 0.9025(6)
C5 C 0.4644(7) 0.3043(7) 0.8898(6)
H2 H 0.5275 0.2035 0.9019
C6 C 0.5234(7) 0.4185(7) 0.8588(6)
C7 C 0.4294(7) 0.5691(7) 0.8469(6)
H3 H 0.4709 0.6432 0.8327
C8 C 0.2385(7) 0.2221(7) 0.9268(6)
C9 C 0.7323(7) 0.4836(7) 0.7303(6)
C10 C 0.8412(8) 0.5307(8) 0.7442(7)
H4 H 0.8751 0.5007 0.8258
C11 C 0.8992(8) 0.6233(8) 0.6348(7)
H5 H 0.9739 0.6545 0.6432
C12 C 0.8491(7) 0.6708(7) 0.5133(6)
C13 C 0.7414(8) 0.6205(9) 0.5015(7)
H6 H 0.7078 0.6515 0.4196
C14 C 0.6814(9) 0.5244(9) 0.6088(7)
H7 H 0.6104 0.4890 0.5997
C15 C 0.9070(7) 0.7751(7) 0.3960(6)
C16 C -0.2454(8) 1.0865(10) 0.5331(7)
H8 H -0.1729 1.1297 0.4846
C17 C -0.3391(8) 1.0704(9) 0.4687(6)
H9 H -0.3273 1.1006 0.3779
C18 C -0.4494(6) 1.0111(7) 0.5342(6)
C19 C -0.4663(7) 0.9711(9) 0.6709(6)
H10 H -0.5437 0.9360 0.7202
C20 C -0.3633(8) 0.9858(9) 0.7304(6)
H11 H -0.3709 0.9547 0.8212
H12 H -0.158(14) 0.176(7) 0.899(16)
Co1_2 Co 0.12703(8) -0.94369(8) 0.90422(7)
Co1_3 Co 0.12703(8) 1.05631(8) 0.90422(7)
Co1A Co 0.87297(8) 0.94369(8) 0.09578(7)
Co1A_2 Co -0.12703(8) -0.05631(8) 1.09578(7)
Co1A_3 Co 0.87297(8) -0.05631(8) 0.09578(7)
Co2_2 Co -0.07942(8) 0.03255(9) 0.74318(8)
Co2A Co 1.07942(8) 0.96745(9) 0.25682(8)
Co2A_2 Co -0.92058(8) 0.96745(9) 0.25682(8)
Co2A_3 Co 1.07942(8) -0.03255(9) 0.25682(8)
Co2A_4 Co 0.07942(8) -0.03255(9) 1.25682(8)
O1_2 O 0.6793(5) -0.6160(5) 0.8403(5)
O2_2 O 0.3254(5) -0.9099(5) 0.9245(5)
O3_2 O 0.0998(5) -0.7421(6) 0.9408(5)
O4_2 O 0.2203(5) -0.1492(5) 0.8669(4)
O4_3 O 0.2203(5) -1.1492(5) 0.8669(4)
O5_2 O 0.0552(5) -0.1809(5) 0.7780(5)
O6_2 O 1.0088(5) -0.1807(6) 0.4067(4)
O6A O -0.0088(5) 1.1807(6) 0.5933(4)
O6A_2 O -0.0088(5) 0.1807(6) 0.5933(4)
O7_2 O 0.8498(6) -0.1819(6) 0.2913(4)
O7A O 0.1502(6) 0.1819(6) 0.7087(4)
O7A_2 O 0.1502(6) -0.8181(6) 0.7087(4)
O8A O 0.0991(4) -0.0793(5) 1.0990(4)
O8_2 O -0.0991(4) 1.0793(5) 0.9010(4)
O8_3 O -0.0991(4) -0.9207(5) 0.9010(4)
O8A_2 O 0.0991(4) -1.0793(5) 1.0990(4)
N1A N -0.7455(6) 0.9580(6) 0.3358(5)
N1_2 N -0.2545(6) 0.0420(6) 0.6642(5)
C1_2 C 0.1757(6) -0.2303(7) 0.8342(6)
C2_2 C 0.2733(7) -0.3926(7) 0.8562(6)
C3_2 C 0.2120(7) -0.5065(7) 0.8827(6)
H1_2 H 0.1081 -0.4818 0.8869
C4_2 C 0.3078(7) -0.6565(7) 0.9025(6)
C5_2 C 0.4644(7) -0.6957(7) 0.8898(6)
H2_2 H 0.5275 -0.7965 0.9019
C6_2 C 0.5234(7) -0.5815(7) 0.8588(6)
C7_2 C 0.4294(7) -0.4309(7) 0.8469(6)
H3_2 H 0.4709 -0.3568 0.8327
C8_2 C 0.2385(7) -0.7779(7) 0.9268(6)
C9_2 C 0.7323(7) -0.5164(7) 0.7303(6)
C10_2 C 0.8412(8) -0.4693(8) 0.7442(7)
H4_2 H 0.8751 -0.4993 0.8258
C11_2 C 0.8992(8) -0.3767(8) 0.6348(7)
H5_2 H 0.9739 -0.3455 0.6432
C12_2 C 0.8491(7) -0.3292(7) 0.5133(6)
C13_2 C 0.7414(8) -0.3795(9) 0.5015(7)
H6_2 H 0.7078 -0.3485 0.4196
C14_2 C 0.6814(9) -0.4756(9) 0.6088(7)
H7_2 H 0.6104 -0.5110 0.5997
C15_2 C 0.9070(7) -0.2249(7) 0.3960(6)
C16A C -0.7546(8) 0.9135(10) 0.4669(7)
H8A H -0.8271 0.8703 0.5154
C17A C -0.6609(8) 0.9296(9) 0.5313(6)
H9A H -0.6727 0.8994 0.6221
C18A C -0.5506(6) 0.9889(7) 0.4658(6)
C19A C -0.5337(7) 1.0289(9) 0.3291(6)
H10A H -0.4563 1.0640 0.2798
C20A C -0.6367(8) 1.0142(9) 0.2696(6)
H11A H -0.6291 1.0453 0.1788
H12A H 0.158(14) -0.176(7) 1.101(16)
H12_2 H -0.158(14) 1.176(7) 0.899(16)
H12_3 H -0.158(14) -0.824(7) 0.899(16)
H12A_2 H 0.158(14) -1.176(7) 1.101(16)
loop_
_geom_bond_atom_site_label_1
_geom_bond_atom_site_label_2
_geom_bond_site_symmetry_1
_geom_bond_site_symmetry_2
Co1 O2 1_555 1_555
Co2 O5 1_555 1_555
O1 C6 1_555 1_555
O2 C8 1_555 1_555
O3 Co1 1_555 1_555
O4 C1 1_555 1_555
O5 C1 1_555 1_555
O6 C15 1_555 1_555
O7 C15 1_555 1_555
O8 Co1 1_555 1_555
N1 Co2 1_555 1_555
C1 C2 1_555 1_555
C2 C3 1_555 1_555
C3 H1 1_555 1_555
C4 C3 1_555 1_555
C5 C4 1_555 1_555
H2 C5 1_555 1_555
C6 C5 1_555 1_555
C7 C2 1_555 1_555
H3 C7 1_555 1_555
C8 O3 1_555 1_555
C9 O1 1_555 1_555
C10 C9 1_555 1_555
H4 C10 1_555 1_555
C11 C10 1_555 1_555
H5 C11 1_555 1_555
C12 C11 1_555 1_555
C13 C12 1_555 1_555
H6 C13 1_555 1_555
C14 C9 1_555 1_555
H7 C14 1_555 1_555
C15 C12 1_555 1_555
C16 N1 1_555 1_555
H8 C16 1_555 1_555
C17 C16 1_555 1_555
H9 C17 1_555 1_555
C18 C17 1_555 1_555
C19 C18 1_555 1_555
H10 C19 1_555 1_555
C20 N1 1_555 1_555
H11 C20 1_555 1_555
H12 O8 1_555 1_555
Co1_2 O2_2 1_555 1_555
Co1_3 O4 1_555 1_555
Co1A O7 1_555 1_555
Co1A_2 O8 1_555 1_555
Co1A_3 O7_2 1_555 1_555
Co2_2 O8 1_555 1_555
Co2A O6 1_555 1_555
Co2A_2 N1A 1_555 1_555
Co2A_3 O6_2 1_555 1_555
Co2A_4 O8A 1_555 1_555
O1_2 C6_2 1_555 1_555
O2_2 C8_2 1_555 1_555
O3_2 Co1_2 1_555 1_555
O4_2 Co1 1_555 1_555
O4_3 Co1_2 1_555 1_555
O5_2 Co2_2 1_555 1_555
O6_2 C15_2 1_555 1_555
O6A Co2 1_555 1_555
O6A_2 Co2_2 1_555 1_555
O7_2 C15_2 1_555 1_555
O7A Co1 1_555 1_555
O7A_2 Co1_2 1_555 1_555
O8A Co1 1_555 1_555
O8_2 Co2 1_555 1_555
O8_3 Co1_2 1_555 1_555
O8A_2 Co1_2 1_555 1_555
N1A C16A 1_555 1_555
N1_2 Co2_2 1_555 1_555
C1_2 O4_2 1_555 1_555
C2_2 C1_2 1_555 1_555
C3_2 C2_2 1_555 1_555
H1_2 C3_2 1_555 1_555
C4_2 C3_2 1_555 1_555
C5_2 C4_2 1_555 1_555
H2_2 C5_2 1_555 1_555
C6_2 C5_2 1_555 1_555
C7_2 C2_2 1_555 1_555
H3_2 C7_2 1_555 1_555
C8_2 O3_2 1_555 1_555
C9_2 O1_2 1_555 1_555
C10_2 C9_2 1_555 1_555
H4_2 C10_2 1_555 1_555
C11_2 C10_2 1_555 1_555
H5_2 C11_2 1_555 1_555
C12_2 C11_2 1_555 1_555
C13_2 C12_2 1_555 1_555
H6_2 C13_2 1_555 1_555
C14_2 C9_2 1_555 1_555
H7_2 C14_2 1_555 1_555
C15_2 C12_2 1_555 1_555
C16A H8A 1_555 1_555
C17A C16A 1_555 1_555
H9A C17A 1_555 1_555
C18A C18 1_555 1_555
C19A C18A 1_555 1_555
H10A C19A 1_555 1_555
C20A N1A 1_555 1_555
H11A C20A 1_555 1_555
H12A O8A 1_555 1_555
H12_2 O8_2 1_555 1_555
H12_3 O8_3 1_555 1_555
H12A_2 O8A_2 1_555 1_555
C4 C8 1_555 1_555
C6 C7 1_555 1_555
C13 C14 1_555 1_555
C19 C20 1_555 1_555
Co1_3 O8_2 1_555 1_555
Co1A_2 O8A 1_555 1_555
O5_2 C1_2 1_555 1_555
C4_2 C8_2 1_555 1_555
C6_2 C7_2 1_555 1_555
C13_2 C14_2 1_555 1_555
C17A C18A 1_555 1_555
C19A C20A 1_555 1_555

#END
