
#######################################################################
#
#                 Cambridge Crystallographic Data Centre
#                                CCDC 
#
#######################################################################
#
# If this CIF has been generated from an entry in the Cambridge 
# Structural Database, then it will include bibliographic, chemical, 
# crystal, experimental, refinement or atomic coordinate data resulting 
# from the CCDC's data processing and validation procedures.
#
#######################################################################

data_QUSWAD
_symmetry_cell_setting           triclinic
_symmetry_space_group_name_H-M   'P -1'
_symmetry_Int_Tables_number      2
_space_group_name_Hall           '-P 1'
loop_
_symmetry_equiv_pos_site_id
_symmetry_equiv_pos_as_xyz
1 x,y,z
2 -x,-y,-z
_cell_length_a                   9.435(4)
_cell_length_b                   10.818(4)
_cell_length_c                   12.970(6)
_cell_angle_alpha                66.065(3)
_cell_angle_beta                 70.289(5)
_cell_angle_gamma                87.504(7)
_cell_volume                     1132.37
loop_
_atom_site_label
_atom_site_type_symbol
_atom_site_fract_x
_atom_site_fract_y
_atom_site_fract_z
Co1 Co 0.0000 0.0000 0.0000
Co2 Co -0.17435(8) -0.20101(8) 0.30505(7)
O1 O 0.0065(5) -0.0559(4) 0.1745(4)
O2 O 0.0732(5) -0.1984(4) 0.3222(4)
O3 O 0.6519(5) -0.1376(5) 0.2431(4)
O4 O 0.7796(4) 0.0314(4) 0.0640(4)
O5 O 0.3959(5) 0.3536(4) -0.0144(4)
O6 O -0.0461(5) 0.7929(4) 0.0476(4)
O7 O -0.0987(5) 0.6547(4) 0.2422(4)
N1 N -0.2082(6) -0.0606(6) 0.3911(5)
N2 N -0.3053(6) -0.3535(5) 0.4697(5)
C1 C 0.1028(6) -0.0965(6) 0.2271(5)
C2 C 0.2510(6) -0.0079(6) 0.1720(5)
C3 C 0.3816(7) -0.0612(6) 0.1916(6)
H1 H 0.3781 -0.1523 0.2419
C4 C 0.5160(7) 0.0225(6) 0.1359(5)
C5 C 0.6614(7) -0.0328(6) 0.1484(5)
C6 C 0.5206(7) 0.1624(6) 0.0673(5)
H2 H 0.6112 0.2189 0.0304
C7 C 0.3876(6) 0.2143(6) 0.0558(5)
C8 C 0.2544(7) 0.1312(6) 0.1038(5)
H3 H 0.1674 0.1673 0.0910
C9 C 0.2844(7) 0.4242(6) 0.0286(6)
C10 C 0.2168(8) 0.3986(7) 0.1482(6)
H4 H 0.2415 0.3260 0.2066
C11 C 0.1104(7) 0.4825(6) 0.1817(6)
H5 H 0.0643 0.4644 0.2628
C12 C 0.0729(7) 0.5910(6) 0.0969(6)
C13 C 0.1445(7) 0.6166(6) -0.0247(6)
H6 H 0.1214 0.6902 -0.0833
C14 C 0.2491(7) 0.5342(6) -0.0592(5)
H7 H 0.2954 0.5521 -0.1402
C15 C -0.0312(7) 0.6876(6) 0.1310(6)
C16 C -0.2034(8) 0.0722(7) 0.3263(7)
H8 H -0.2028 0.1004 0.2482
C17 C -0.1994(9) 0.1718(8) 0.3681(7)
H9 H -0.1953 0.2635 0.3192
C18 C -0.2016(10) 0.1295(8) 0.4843(8)
H10 H -0.1992 0.1927 0.5156
C19 C -0.2074(13) -0.0059(10) 0.5527(8)
H11 H -0.2099 -0.0363 0.6315
C20 C -0.2096(10) -0.0979(8) 0.5034(7)
H12 H -0.2121 -0.1899 0.5507
C21 C -0.4537(7) -0.3575(6) 0.5192(6)
H13 H -0.5023 -0.2879 0.4786
C22 C -0.5396(8) -0.4587(7) 0.6270(6)
H14 H -0.6441 -0.4584 0.6573
C23 C -0.4685(8) -0.5615(7) 0.6905(6)
H15 H -0.5240 -0.6308 0.7643
C24 C -0.3125(8) -0.5584(7) 0.6411(7)
H16 H -0.2608 -0.6242 0.6821
C25 C -0.2353(7) -0.4546(6) 0.5290(6)
H17 H -0.1316 -0.4550 0.4936
Co1_2 Co 1.0000 0.0000 0.0000
Co1_3 Co 0.0000 1.0000 0.0000
Co1_4 Co -1.0000 0.0000 0.0000
Co1_5 Co 0.0000 -1.0000 0.0000
Co2A Co 0.17435(8) 0.20101(8) -0.30505(7)
Co2_2 Co 0.82565(8) -0.20101(8) 0.30505(7)
Co2_3 Co -0.17435(8) 0.79899(8) 0.30505(7)
Co2A_2 Co -0.82565(8) 0.20101(8) -0.30505(7)
Co2A_3 Co 0.17435(8) -0.79899(8) -0.30505(7)
O1A O -0.0065(5) 0.0559(4) -0.1745(4)
O2A O -0.0732(5) 0.1984(4) -0.3222(4)
O3A O -0.6519(5) 0.1376(5) -0.2431(4)
O3_2 O -0.3481(5) -0.1376(5) 0.2431(4)
O3A_2 O 0.3481(5) 0.1376(5) -0.2431(4)
O4A O -0.7796(4) -0.0314(4) -0.0640(4)
O4_2 O -0.2204(4) 0.0314(4) 0.0640(4)
O4A_2 O 0.2204(4) -0.0314(4) -0.0640(4)
O5A O -0.3959(5) -0.3536(4) 0.0144(4)
O6A O 0.0461(5) -0.7929(4) -0.0476(4)
O6_2 O -0.0461(5) -0.2071(4) 0.0476(4)
O6A_2 O 0.0461(5) 0.2071(4) -0.0476(4)
O7A O 0.0987(5) -0.6547(4) -0.2422(4)
O7_2 O -0.0987(5) -0.3453(4) 0.2422(4)
O7A_2 O 0.0987(5) 0.3453(4) -0.2422(4)
N1A N 0.2082(6) 0.0606(6) -0.3911(5)
N2A N 0.3053(6) 0.3535(5) -0.4697(5)
C1A C -0.1028(6) 0.0965(6) -0.2271(5)
C2A C -0.2510(6) 0.0079(6) -0.1720(5)
C3A C -0.3816(7) 0.0612(6) -0.1916(6)
H1A H -0.3781 0.1523 -0.2419
C4A C -0.5160(7) -0.0225(6) -0.1359(5)
C5A C -0.6614(7) 0.0328(6) -0.1484(5)
C6A C -0.5206(7) -0.1624(6) -0.0673(5)
H2A H -0.6112 -0.2189 -0.0304
C7A C -0.3876(6) -0.2143(6) -0.0558(5)
C8A C -0.2544(7) -0.1312(6) -0.1038(5)
H3A H -0.1674 -0.1673 -0.0910
C9A C -0.2844(7) -0.4242(6) -0.0286(6)
C10A C -0.2168(8) -0.3986(7) -0.1482(6)
H4A H -0.2415 -0.3260 -0.2066
C11A C -0.1104(7) -0.4825(6) -0.1817(6)
H5A H -0.0643 -0.4644 -0.2628
C12A C -0.0729(7) -0.5910(6) -0.0969(6)
C13A C -0.1445(7) -0.6166(6) 0.0247(6)
H6A H -0.1214 -0.6902 0.0833
C14A C -0.2491(7) -0.5342(6) 0.0592(5)
H7A H -0.2954 -0.5521 0.1402
C15A C 0.0312(7) -0.6876(6) -0.1310(6)
C16A C 0.2034(8) -0.0722(7) -0.3263(7)
H8A H 0.2028 -0.1004 -0.2482
C17A C 0.1994(9) -0.1718(8) -0.3681(7)
H9A H 0.1953 -0.2635 -0.3192
C18A C 0.2016(10) -0.1295(8) -0.4843(8)
H10A H 0.1992 -0.1927 -0.5156
C19A C 0.2074(13) 0.0059(10) -0.5527(8)
H11A H 0.2099 0.0363 -0.6315
C20A C 0.2096(10) 0.0979(8) -0.5034(7)
H12A H 0.2121 0.1899 -0.5507
C21A C 0.4537(7) 0.3575(6) -0.5192(6)
H13A H 0.5023 0.2879 -0.4786
C22A C 0.5396(8) 0.4587(7) -0.6270(6)
H14A H 0.6441 0.4584 -0.6573
C23A C 0.4685(8) 0.5615(7) -0.6905(6)
H15A H 0.5240 0.6308 -0.7643
C24A C 0.3125(8) 0.5584(7) -0.6411(7)
H16A H 0.2608 0.6242 -0.6821
C25A C 0.2353(7) 0.4546(6) -0.5290(6)
H17A H 0.1316 0.4550 -0.4936
loop_
_geom_bond_atom_site_label_1
_geom_bond_atom_site_label_2
_geom_bond_site_symmetry_1
_geom_bond_site_symmetry_2
Co1 O1 1_555 1_555
Co2 O1 1_555 1_555
O1 C1 1_555 1_555
O2 C1 1_555 1_555
O3 C5 1_555 1_555
O4 C5 1_555 1_555
O5 C7 1_555 1_555
O6 C15 1_555 1_555
O7 C15 1_555 1_555
N1 Co2 1_555 1_555
N2 Co2 1_555 1_555
C1 C2 1_555 1_555
C2 C3 1_555 1_555
C3 H1 1_555 1_555
C4 C3 1_555 1_555
C5 C4 1_555 1_555
C6 C4 1_555 1_555
H2 C6 1_555 1_555
C7 C6 1_555 1_555
C8 C2 1_555 1_555
H3 C8 1_555 1_555
C9 O5 1_555 1_555
C10 C9 1_555 1_555
H4 C10 1_555 1_555
C11 C10 1_555 1_555
H5 C11 1_555 1_555
C12 C11 1_555 1_555
C13 C12 1_555 1_555
H6 C13 1_555 1_555
C14 C9 1_555 1_555
H7 C14 1_555 1_555
C15 C12 1_555 1_555
C16 N1 1_555 1_555
H8 C16 1_555 1_555
C17 C16 1_555 1_555
H9 C17 1_555 1_555
C18 C17 1_555 1_555
H10 C18 1_555 1_555
C19 C18 1_555 1_555
H11 C19 1_555 1_555
C20 N1 1_555 1_555
H12 C20 1_555 1_555
C21 N2 1_555 1_555
H13 C21 1_555 1_555
C22 C21 1_555 1_555
H14 C22 1_555 1_555
C23 C22 1_555 1_555
H15 C23 1_555 1_555
C24 C23 1_555 1_555
H16 C24 1_555 1_555
C25 N2 1_555 1_555
H17 C25 1_555 1_555
Co1_2 O4 1_555 1_555
Co1_3 O6 1_555 1_555
Co1_4 O4A 1_555 1_555
Co1_5 O6A 1_555 1_555
Co2A O1A 1_555 1_555
Co2_2 O3 1_555 1_555
Co2_3 O7 1_555 1_555
Co2A_2 O3A 1_555 1_555
Co2A_3 O7A 1_555 1_555
O1A Co1 1_555 1_555
O2A C1A 1_555 1_555
O3A C5A 1_555 1_555
O3_2 Co2 1_555 1_555
O3A_2 Co2A 1_555 1_555
O4A C5A 1_555 1_555
O4_2 Co1 1_555 1_555
O4A_2 Co1 1_555 1_555
O5A C7A 1_555 1_555
O6A C15A 1_555 1_555
O6_2 Co1 1_555 1_555
O6A_2 Co1 1_555 1_555
O7A C15A 1_555 1_555
O7_2 Co2 1_555 1_555
O7A_2 Co2A 1_555 1_555
N1A Co2A 1_555 1_555
N2A Co2A 1_555 1_555
C1A O1A 1_555 1_555
C2A C1A 1_555 1_555
C3A C2A 1_555 1_555
H1A C3A 1_555 1_555
C4A C3A 1_555 1_555
C5A C4A 1_555 1_555
C6A C4A 1_555 1_555
H2A C6A 1_555 1_555
C7A C6A 1_555 1_555
C8A C2A 1_555 1_555
H3A C8A 1_555 1_555
C9A O5A 1_555 1_555
C10A C9A 1_555 1_555
H4A C10A 1_555 1_555
C11A C10A 1_555 1_555
H5A C11A 1_555 1_555
C12A C11A 1_555 1_555
C13A C12A 1_555 1_555
H6A C13A 1_555 1_555
C14A C9A 1_555 1_555
H7A C14A 1_555 1_555
C15A C12A 1_555 1_555
C16A N1A 1_555 1_555
H8A C16A 1_555 1_555
C17A C16A 1_555 1_555
H9A C17A 1_555 1_555
C18A C17A 1_555 1_555
H10A C18A 1_555 1_555
C19A C18A 1_555 1_555
H11A C19A 1_555 1_555
C20A N1A 1_555 1_555
H12A C20A 1_555 1_555
C21A N2A 1_555 1_555
H13A C21A 1_555 1_555
C22A C21A 1_555 1_555
H14A C22A 1_555 1_555
C23A C22A 1_555 1_555
H15A C23A 1_555 1_555
C24A C23A 1_555 1_555
H16A C24A 1_555 1_555
C25A N2A 1_555 1_555
H17A C25A 1_555 1_555
C7 C8 1_555 1_555
C13 C14 1_555 1_555
C19 C20 1_555 1_555
C24 C25 1_555 1_555
C7A C8A 1_555 1_555
C13A C14A 1_555 1_555
C19A C20A 1_555 1_555
C24A C25A 1_555 1_555

#END
