
#######################################################################
#
#                 Cambridge Crystallographic Data Centre
#                                CCDC 
#
#######################################################################
#
# If this CIF has been generated from an entry in the Cambridge 
# Structural Database, then it will include bibliographic, chemical, 
# crystal, experimental, refinement or atomic coordinate data resulting 
# from the CCDC's data processing and validation procedures.
#
#######################################################################

data_QUSWIK
_symmetry_cell_setting           orthorhombic
_symmetry_space_group_name_H-M   'P 21 21 21'
_symmetry_Int_Tables_number      19
_space_group_name_Hall           'P 2ac 2ab'
loop_
_symmetry_equiv_pos_site_id
_symmetry_equiv_pos_as_xyz
1 x,y,z
2 1/2-x,-y,1/2+z
3 -x,1/2+y,1/2-z
4 1/2+x,1/2-y,-z
_cell_length_a                   6.5125(7)
_cell_length_b                   7.6025(7)
_cell_length_c                   24.876(3)
_cell_angle_alpha                90
_cell_angle_beta                 90
_cell_angle_gamma                90
_cell_volume                     1231.64
loop_
_atom_site_label
_atom_site_type_symbol
_atom_site_fract_x
_atom_site_fract_y
_atom_site_fract_z
Zn1 Zn 0.42551(10) 0.93801(8) 0.97650(3)
C1 C 0.1087(8) 1.0485(8) 0.9094(2)
C2 C -0.0060(8) 1.0519(8) 0.8577(2)
C3 C -0.1900(9) 1.1421(8) 0.8535(2)
H1 H -0.2407 1.2025 0.8831
C4 C -0.2995(9) 1.1440(7) 0.8059(2)
H2 H -0.4219 1.2066 0.8038
C5 C -0.2282(8) 1.0525(8) 0.7608(2)
C6 C -0.0419(9) 0.9651(7) 0.7648(2)
H3 H 0.0101 0.9066 0.7349
C7 C 0.0686(10) 0.9631(7) 0.8126(2)
H4 H 0.1925 0.9025 0.8146
C8 C -0.3422(8) 1.0608(8) 0.7083(2)
C9 C -0.5457(9) 1.1165(7) 0.7066(2)
H5 H -0.6132 1.1435 0.7384
C10 C -0.6489(9) 1.1324(8) 0.6584(2)
H6 H -0.7866 1.1648 0.6583
C11 C -0.5487(9) 1.1005(7) 0.6098(2)
C12 C -0.3467(9) 1.0458(10) 0.6112(2)
H7 H -0.2775 1.0230 0.5793
C13 C -0.2476(10) 1.0249(8) 0.6592(2)
H8 H -0.1124 0.9853 0.6591
C14 C -0.6588(9) 1.1228(8) 0.5574(2)
O1 O 0.0330(6) 1.1193(5) 0.95100(15)
O2 O 0.2855(6) 0.9748(5) 0.90969(15)
O3 O -0.8188(6) 1.0296(5) 0.54960(15)
O4 O -0.5975(6) 1.2283(4) 0.52248(15)
O5 O 0.6393(6) 1.1232(6) 0.98265(18)
H9 H 0.7197 1.1147 0.9574
H10 H 0.623(7) 1.202(6) 0.9994(17)
O3A O 0.3188(6) 0.9704(5) 1.04960(15)
O4B O 0.5975(6) 0.7283(4) 0.97752(15)
Zn1A Zn -0.92551(10) 1.06199(8) 0.47650(3)
Zn1B Zn -0.42551(10) 1.43801(8) 0.52350(3)
loop_
_geom_bond_atom_site_label_1
_geom_bond_atom_site_label_2
_geom_bond_site_symmetry_1
_geom_bond_site_symmetry_2
Zn1 O2 1_555 1_555
C1 C2 1_555 1_555
C2 C3 1_555 1_555
C3 H1 1_555 1_555
C4 C3 1_555 1_555
H2 C4 1_555 1_555
C5 C4 1_555 1_555
C6 C5 1_555 1_555
H3 C6 1_555 1_555
C7 C2 1_555 1_555
H4 C7 1_555 1_555
C8 C5 1_555 1_555
C9 C8 1_555 1_555
H5 C9 1_555 1_555
C10 C9 1_555 1_555
H6 C10 1_555 1_555
C11 C10 1_555 1_555
C12 C11 1_555 1_555
H7 C12 1_555 1_555
C13 C8 1_555 1_555
H8 C13 1_555 1_555
C14 C11 1_555 1_555
O1 C1 1_555 1_555
O2 C1 1_555 1_555
O3 C14 1_555 1_555
O4 C14 1_555 1_555
O5 Zn1 1_555 1_555
H9 O5 1_555 1_555
H10 O5 1_555 1_555
O3A Zn1 1_555 1_555
O4B Zn1 1_555 1_555
Zn1A O3 1_555 1_555
Zn1B O4 1_555 1_555
C6 C7 1_555 1_555
C12 C13 1_555 1_555

#END
