
#######################################################################
#
#                 Cambridge Crystallographic Data Centre
#                                CCDC 
#
#######################################################################
#
# If this CIF has been generated from an entry in the Cambridge 
# Structural Database, then it will include bibliographic, chemical, 
# crystal, experimental, refinement or atomic coordinate data resulting 
# from the CCDC's data processing and validation procedures.
#
#######################################################################

data_QUTCUD
_symmetry_cell_setting           triclinic
_symmetry_space_group_name_H-M   'P -1'
_symmetry_Int_Tables_number      2
_space_group_name_Hall           '-P 1'
loop_
_symmetry_equiv_pos_site_id
_symmetry_equiv_pos_as_xyz
1 x,y,z
2 -x,-y,-z
_cell_length_a                   10.7877(19)
_cell_length_b                   12.582(2)
_cell_length_c                   15.409(3)
_cell_angle_alpha                103.860(4)
_cell_angle_beta                 94.123(4)
_cell_angle_gamma                92.573(4)
_cell_volume                     2021.16
loop_
_atom_site_label
_atom_site_type_symbol
_atom_site_fract_x
_atom_site_fract_y
_atom_site_fract_z
Cd1 Cd 1.0000 0.0000 1.0000
Cd2 Cd 0.5000 0.5000 0.5000
C1 C 1.1869(10) 0.1048(9) 0.8714(7)
C2 C 0.7104(9) 0.3633(8) 0.5968(6)
C3 C 1.0610(10) 0.2714(8) 0.8778(7)
H1 H 1.1177 0.3146 0.8541
C4 C 0.9483(10) 0.3010(9) 0.9072(7)
H2 H 0.9096 0.3669 0.9054
C5 C 0.9028(10) 0.2177(10) 0.9393(8)
H3 H 0.8267 0.2184 0.9668
C6 C 1.2004(10) -0.0730(9) 0.7538(7)
H4 H 1.2555 -0.0475 0.7167
C7 C 1.1603(11) -0.1776(9) 0.7442(8)
H5 H 1.1771 -0.2400 0.6990
C8 C 1.0881(16) -0.1730(12) 0.8161(9)
H6 H 1.0456 -0.2353 0.8275
C9 C 1.3809(13) 0.1196(12) 0.9763(8)
H7 H 1.4424 0.1372 0.9400
C10 C 1.4005(13) 0.1017(12) 1.0600(9)
H8 H 1.4789 0.1031 1.0927
C11 C 1.2897(14) 0.0818(10) 1.0870(8)
H9 H 1.2769 0.0689 1.1441
C12 C 0.6057(9) 0.3868(8) 0.7444(6)
H10 H 0.6647 0.3555 0.7780
C13 C 0.4970(9) 0.4285(8) 0.7722(7)
H11 H 0.4655 0.4332 0.8289
C14 C 0.4418(9) 0.4628(8) 0.7001(7)
H12 H 0.3637 0.4948 0.7003
C15 C 0.8934(9) 0.5005(8) 0.6002(7)
H13 H 0.9563 0.4670 0.6288
C16 C 0.9088(10) 0.5956(9) 0.5758(8)
H14 H 0.9835 0.6406 0.5814
C17 C 0.7907(10) 0.6137(9) 0.5404(8)
H15 H 0.7722 0.6762 0.5185
C18 C 0.6516(8) 0.1786(9) 0.4917(6)
H16 H 0.6980 0.1347 0.5228
C19 C 0.5766(9) 0.1409(8) 0.4171(7)
H17 H 0.5581 0.0665 0.3857
C20 C 0.5308(9) 0.2345(10) 0.3949(8)
H18 H 0.4751 0.2335 0.3440
C21 C 1.2668(9) 0.1570(9) 0.8133(6)
H19 H 1.2887 0.2352 0.8429
H20 H 1.3448 0.1188 0.8035
C22 C 1.2596(9) 0.2052(8) 0.6735(7)
H21 H 1.3497 0.1932 0.6770
H22 H 1.2494 0.2849 0.6933
C23 C 1.2044(9) 0.1627(8) 0.5804(6)
C24 C 1.2813(9) 0.1141(8) 0.5129(7)
H23 H 1.3672 0.1084 0.5280
C25 C 1.2319(10) 0.0751(8) 0.4256(8)
H24 H 1.2855 0.0437 0.3813
C26 C 1.1089(10) 0.0798(9) 0.4002(7)
H25 H 1.0770 0.0526 0.3394
C27 C 1.0296(9) 0.1267(7) 0.4671(6)
H26 H 0.9432 0.1296 0.4515
C28 C 1.0783(9) 0.1680(7) 0.5552(6)
C29 C 0.9918(8) 0.2158(8) 0.6240(6)
H27 H 0.9569 0.1576 0.6503
H28 H 1.0378 0.2725 0.6729
C30 C 0.8052(8) 0.3039(8) 0.6451(6)
H29 H 0.8477 0.3554 0.6990
H30 H 0.7629 0.2426 0.6638
N1 N 0.9777(8) 0.1337(8) 0.9279(7)
N2 N 1.0772(8) 0.1684(7) 0.8887(5)
N3 N 1.0852(11) -0.0733(8) 0.8665(7)
N4 N 1.1492(8) -0.0077(7) 0.8261(6)
N5 N 1.2002(9) 0.0823(8) 1.0252(7)
N6 N 1.2584(9) 0.1075(7) 0.9560(6)
N7 N 0.5106(7) 0.4456(7) 0.6311(6)
N8 N 0.6140(7) 0.3985(6) 0.6591(5)
N9 N 0.7065(8) 0.5317(7) 0.5413(6)
N10 N 0.7718(7) 0.4592(6) 0.5772(5)
N11 N 0.5762(8) 0.3247(8) 0.4549(6)
N12 N 0.6516(7) 0.2898(7) 0.5163(5)
O1 O 1.1964(6) 0.1473(5) 0.7311(4)
O2 O 0.8922(5) 0.2639(5) 0.5819(4)
C1A C 0.8131(10) -0.1048(9) 1.1286(7)
C2A C 1.2896(9) -0.3633(8) 1.4032(6)
C3A C 0.9390(10) -0.2714(8) 1.1222(7)
H1A H 0.8823 -0.3146 1.1459
C4A C 1.0517(10) -0.3010(9) 1.0928(7)
H2A H 1.0904 -0.3669 1.0946
C5A C 1.0972(10) -0.2177(10) 1.0607(8)
H3A H 1.1733 -0.2184 1.0332
C6A C 0.7996(10) 0.0730(9) 1.2462(7)
H4A H 0.7445 0.0475 1.2833
C7A C 0.8397(11) 0.1776(9) 1.2558(8)
H5A H 0.8229 0.2400 1.3010
C8A C 0.9119(16) 0.1730(12) 1.1839(9)
H6A H 0.9544 0.2353 1.1725
C9A C 0.6191(13) -0.1196(12) 1.0237(8)
H7A H 0.5576 -0.1372 1.0600
C10A C 0.5995(13) -0.1017(12) 0.9400(9)
H8A H 0.5211 -0.1031 0.9073
C11A C 0.7103(14) -0.0818(10) 0.9130(8)
H9A H 0.7231 -0.0689 0.8559
C12A C 1.3943(9) -0.3868(8) 1.2556(6)
H10A H 1.3353 -0.3555 1.2220
C13A C 1.5030(9) -0.4285(8) 1.2278(7)
H11A H 1.5345 -0.4332 1.1711
C14A C 1.5582(9) -0.4628(8) 1.2999(7)
H12A H 1.6363 -0.4948 1.2997
C15A C 1.1066(9) -0.5005(8) 1.3998(7)
H13A H 1.0437 -0.4670 1.3712
C16A C 1.0912(10) -0.5956(9) 1.4242(8)
H14A H 1.0165 -0.6406 1.4186
C17A C 1.2093(10) -0.6137(9) 1.4596(8)
H15A H 1.2278 -0.6762 1.4815
C18A C 1.3484(8) -0.1786(9) 1.5083(6)
H16A H 1.3020 -0.1347 1.4772
C19A C 1.4234(9) -0.1409(8) 1.5829(7)
H17A H 1.4419 -0.0665 1.6143
C20A C 1.4692(9) -0.2345(10) 1.6051(8)
H18A H 1.5249 -0.2335 1.6560
C21A C 0.7332(9) -0.1570(9) 1.1867(6)
H19A H 0.7113 -0.2352 1.1571
H20A H 0.6552 -0.1188 1.1965
C22A C 0.7404(9) -0.2052(8) 1.3265(7)
H21A H 0.6503 -0.1932 1.3230
H22A H 0.7506 -0.2849 1.3067
C23A C 0.7956(9) -0.1627(8) 1.4196(6)
C24A C 0.7187(9) -0.1141(8) 1.4871(7)
H23A H 0.6328 -0.1084 1.4720
C25A C 0.7681(10) -0.0751(8) 1.5744(8)
H24A H 0.7145 -0.0437 1.6187
C26A C 0.8911(10) -0.0798(9) 1.5998(7)
H25A H 0.9230 -0.0526 1.6606
C27A C 0.9704(9) -0.1267(7) 1.5329(6)
H26A H 1.0568 -0.1296 1.5485
C28A C 0.9217(9) -0.1680(7) 1.4448(6)
C29A C 1.0082(8) -0.2158(8) 1.3760(6)
H27A H 1.0431 -0.1576 1.3497
H28A H 0.9622 -0.2725 1.3271
C30A C 1.1948(8) -0.3039(8) 1.3549(6)
H29A H 1.1523 -0.3554 1.3010
H30A H 1.2371 -0.2426 1.3362
N1A N 1.0223(8) -0.1337(8) 1.0721(7)
N2A N 0.9228(8) -0.1684(7) 1.1113(5)
N3A N 0.9148(11) 0.0733(8) 1.1335(7)
N4A N 0.8508(8) 0.0077(7) 1.1739(6)
N5A N 0.7998(9) -0.0823(8) 0.9748(7)
N6A N 0.7416(9) -0.1075(7) 1.0440(6)
N7A N 1.4894(7) -0.4456(7) 1.3689(6)
N8A N 1.3860(7) -0.3985(6) 1.3409(5)
N9A N 1.2935(8) -0.5317(7) 1.4587(6)
N10A N 1.2282(7) -0.4592(6) 1.4228(5)
N11A N 1.4238(8) -0.3247(8) 1.5451(6)
N12A N 1.3484(7) -0.2898(7) 1.4837(5)
O1A O 0.8036(6) -0.1473(5) 1.2689(4)
O2A O 1.1078(5) -0.2639(5) 1.4181(4)
N7A_2 N 0.4894(7) 0.5544(7) 0.3689(6)
N9A_2 N 0.2935(8) 0.4683(7) 0.4587(6)
N11A_2 N 0.4238(8) 0.6753(8) 0.5451(6)
Cd2_2 Cd 1.5000 -0.5000 1.5000
B1 B 0.1282(11) 0.5189(11) 0.7968(9)
F1 F 0.2211(5) 0.4525(5) 0.8153(4)
F2 F 0.1555(6) 0.5573(5) 0.7232(4)
F3 F 0.0143(5) 0.4601(5) 0.7809(4)
F4 F 0.1258(6) 0.6055(6) 0.8705(5)
B2 B 0.6029(11) 0.1036(11) 0.7694(8)
F5 F 0.5683(5) 0.1301(5) 0.6892(4)
F6 F 0.7272(6) 0.0816(6) 0.7714(4)
F7 F 0.5305(6) 0.0148(5) 0.7770(4)
F8 F 0.5866(6) 0.1912(5) 0.8418(4)
C31 C 0.2630(12) 0.3418(11) 0.1956(9)
C32 C 0.1849(12) 0.3681(12) 0.1262(9)
H31 H 0.2325 0.4154 0.0967
H32 H 0.1141 0.4065 0.1521
H33 H 0.1543 0.3004 0.0821
N13 N 0.3343(14) 0.3257(11) 0.2474(9)
N14 N 0.3771(15) 0.3865(12) -0.0155(10)
C33 C 0.483(2) 0.3645(17) 0.0089(14)
C34 C 0.6042(16) 0.3487(14) 0.0520(12)
H34 H 0.6597 0.4146 0.0589
H35 H 0.6409 0.2855 0.0149
H36 H 0.5928 0.3356 0.1112
loop_
_geom_bond_atom_site_label_1
_geom_bond_atom_site_label_2
_geom_bond_site_symmetry_1
_geom_bond_site_symmetry_2
Cd1 N1 1_555 1_555
Cd2 N7 1_555 1_555
C1 C21 1_555 1_555
C2 C30 1_555 1_555
C3 H1 1_555 1_555
C4 C3 1_555 1_555
H2 C4 1_555 1_555
C5 C4 1_555 1_555
H3 C5 1_555 1_555
C6 H4 1_555 1_555
C7 C6 1_555 1_555
H5 C7 1_555 1_555
C8 C7 1_555 1_555
H6 C8 1_555 1_555
C9 H7 1_555 1_555
C10 C9 1_555 1_555
H8 C10 1_555 1_555
C11 C10 1_555 1_555
H9 C11 1_555 1_555
C12 H10 1_555 1_555
C13 C12 1_555 1_555
H11 C13 1_555 1_555
C14 C13 1_555 1_555
H12 C14 1_555 1_555
C15 H13 1_555 1_555
C16 C15 1_555 1_555
H14 C16 1_555 1_555
C17 C16 1_555 1_555
H15 C17 1_555 1_555
C18 H16 1_555 1_555
C19 C18 1_555 1_555
H17 C19 1_555 1_555
C20 C19 1_555 1_555
H18 C20 1_555 1_555
C21 H19 1_555 1_555
H20 C21 1_555 1_555
C22 H21 1_555 1_555
H22 C22 1_555 1_555
C23 C22 1_555 1_555
C24 C23 1_555 1_555
H23 C24 1_555 1_555
C25 C24 1_555 1_555
H24 C25 1_555 1_555
C26 C25 1_555 1_555
H25 C26 1_555 1_555
C27 C26 1_555 1_555
H26 C27 1_555 1_555
C28 C23 1_555 1_555
C29 C28 1_555 1_555
H27 C29 1_555 1_555
H28 C29 1_555 1_555
C30 H29 1_555 1_555
H30 C30 1_555 1_555
N1 C5 1_555 1_555
N2 C1 1_555 1_555
N3 Cd1 1_555 1_555
N4 C1 1_555 1_555
N5 Cd1 1_555 1_555
N6 C1 1_555 1_555
N7 C14 1_555 1_555
N8 C2 1_555 1_555
N9 Cd2 1_555 1_555
N10 C2 1_555 1_555
N11 Cd2 1_555 1_555
N12 C2 1_555 1_555
O1 C21 1_555 1_555
O2 C29 1_555 1_555
B1 F1 1_555 1_555
B2 F5 1_555 1_555
F2 B1 1_555 1_555
F3 B1 1_555 1_555
F4 B1 1_555 1_555
F6 B2 1_555 1_555
F7 B2 1_555 1_555
F8 B2 1_555 1_555
C31 C32 1_555 1_555
C32 H31 1_555 1_555
H32 C32 1_555 1_555
H33 C32 1_555 1_555
N13 C31 1_555 1_555
N14 C33 1_555 1_555
C33 C34 1_555 1_555
C34 H34 1_555 1_555
H35 C34 1_555 1_555
H36 C34 1_555 1_555
C1A C21A 1_555 1_555
C2A C30A 1_555 1_555
C3A H1A 1_555 1_555
C4A C3A 1_555 1_555
H2A C4A 1_555 1_555
C5A C4A 1_555 1_555
H3A C5A 1_555 1_555
C6A H4A 1_555 1_555
C7A C6A 1_555 1_555
H5A C7A 1_555 1_555
C8A C7A 1_555 1_555
H6A C8A 1_555 1_555
C9A H7A 1_555 1_555
C10A C9A 1_555 1_555
H8A C10A 1_555 1_555
C11A C10A 1_555 1_555
H9A C11A 1_555 1_555
C12A H10A 1_555 1_555
C13A C12A 1_555 1_555
H11A C13A 1_555 1_555
C14A C13A 1_555 1_555
H12A C14A 1_555 1_555
C15A H13A 1_555 1_555
C16A C15A 1_555 1_555
H14A C16A 1_555 1_555
C17A C16A 1_555 1_555
H15A C17A 1_555 1_555
C18A H16A 1_555 1_555
C19A C18A 1_555 1_555
H17A C19A 1_555 1_555
C20A C19A 1_555 1_555
H18A C20A 1_555 1_555
C21A H19A 1_555 1_555
H20A C21A 1_555 1_555
C22A H21A 1_555 1_555
H22A C22A 1_555 1_555
C23A C22A 1_555 1_555
C24A C23A 1_555 1_555
H23A C24A 1_555 1_555
C25A C24A 1_555 1_555
H24A C25A 1_555 1_555
C26A C25A 1_555 1_555
H25A C26A 1_555 1_555
C27A C26A 1_555 1_555
H26A C27A 1_555 1_555
C28A C23A 1_555 1_555
C29A C28A 1_555 1_555
H27A C29A 1_555 1_555
H28A C29A 1_555 1_555
C30A H29A 1_555 1_555
H30A C30A 1_555 1_555
N1A Cd1 1_555 1_555
N2A C1A 1_555 1_555
N3A Cd1 1_555 1_555
N4A C1A 1_555 1_555
N5A Cd1 1_555 1_555
N6A C1A 1_555 1_555
N7A C14A 1_555 1_555
N8A C2A 1_555 1_555
N9A C17A 1_555 1_555
N10A C2A 1_555 1_555
N11A C20A 1_555 1_555
N12A C2A 1_555 1_555
O1A C21A 1_555 1_555
O2A C29A 1_555 1_555
N7A_2 Cd2 1_555 1_555
N9A_2 Cd2 1_555 1_555
N11A_2 Cd2 1_555 1_555
Cd2_2 N7A 1_555 1_555
C3 N2 1_555 1_555
C6 N4 1_555 1_555
C8 N3 1_555 1_555
C9 N6 1_555 1_555
C11 N5 1_555 1_555
C12 N8 1_555 1_555
C15 N10 1_555 1_555
C17 N9 1_555 1_555
C18 N12 1_555 1_555
C20 N11 1_555 1_555
C22 O1 1_555 1_555
C27 C28 1_555 1_555
C30 O2 1_555 1_555
N1 N2 1_555 1_555
N3 N4 1_555 1_555
N5 N6 1_555 1_555
N7 N8 1_555 1_555
N9 N10 1_555 1_555
N11 N12 1_555 1_555
C3A N2A 1_555 1_555
C5A N1A 1_555 1_555
C6A N4A 1_555 1_555
C8A N3A 1_555 1_555
C9A N6A 1_555 1_555
C11A N5A 1_555 1_555
C12A N8A 1_555 1_555
C15A N10A 1_555 1_555
C18A N12A 1_555 1_555
C22A O1A 1_555 1_555
C27A C28A 1_555 1_555
C30A O2A 1_555 1_555
N1A N2A 1_555 1_555
N3A N4A 1_555 1_555
N5A N6A 1_555 1_555
N7A N8A 1_555 1_555
N9A N10A 1_555 1_555
N9A Cd2_2 1_555 1_555
N11A N12A 1_555 1_555
N11A Cd2_2 1_555 1_555

#END
