
#######################################################################
#
#                 Cambridge Crystallographic Data Centre
#                                CCDC 
#
#######################################################################
#
# If this CIF has been generated from an entry in the Cambridge 
# Structural Database, then it will include bibliographic, chemical, 
# crystal, experimental, refinement or atomic coordinate data resulting 
# from the CCDC's data processing and validation procedures.
#
#######################################################################

data_QUTCOX
_symmetry_cell_setting           monoclinic
_symmetry_space_group_name_H-M   'C 2/c'
_symmetry_Int_Tables_number      15
_space_group_name_Hall           '-C 2yn'
loop_
_symmetry_equiv_pos_site_id
_symmetry_equiv_pos_as_xyz
1 x,y,z
2 1/2+x,1/2+y,z
3 x,-y,1/2+z
4 1/2+x,1/2-y,1/2+z
5 -x,-y,-z
6 1/2-x,1/2-y,-z
7 -x,y,1/2-z
8 1/2-x,1/2+y,1/2-z
_cell_length_a                   23.023(3)
_cell_length_b                   12.2588(14)
_cell_length_c                   18.119(2)
_cell_angle_alpha                90
_cell_angle_beta                 121.281(2)
_cell_angle_gamma                90
_cell_volume                     4370.42
loop_
_atom_site_label
_atom_site_type_symbol
_atom_site_fract_x
_atom_site_fract_y
_atom_site_fract_z
Cd1 Cd 0.0000 0.5000 0.0000
C1 C 0.14014(8) 0.64110(14) 0.14105(9)
C2 C 0.20384(8) 0.70548(15) 0.20519(9)
H1 H 0.2446 0.6609 0.2248
H2 H 0.2080 0.7715 0.1778
C3 C 0.25848(9) 0.77853(16) 0.34679(10)
H3 H 0.2624 0.8559 0.3365
H4 H 0.2982 0.7400 0.3533
C4 C 0.25470(8) 0.76493(14) 0.42675(10)
C5 C 0.21403(9) 0.83318(15) 0.44227(11)
H5 H 0.1894 0.8896 0.4033
C6 C 0.29031(9) 0.68173(15) 0.48501(11)
H6 H 0.3178 0.6348 0.4749
O1 O 0.19663(5) 0.73325(10) 0.27562(7)
C7 C 0.18068(9) 0.50207(14) 0.26301(11)
H7 H 0.2204 0.5372 0.3055
C8 C 0.15862(9) 0.40245(15) 0.27023(10)
H8 H 0.1791 0.3557 0.3183
C9 C 0.09952(10) 0.38426(17) 0.19186(11)
H9 H 0.0730 0.3207 0.1780
C10 C 0.07856(9) 0.82024(15) 0.11816(11)
H10 H 0.1162 0.8657 0.1517
C11 C 0.01234(10) 0.85268(17) 0.06876(12)
H11 H -0.0048 0.9240 0.0616
C12 C -0.02382(10) 0.75839(18) 0.03175(13)
H12 H -0.0711 0.7561 -0.0064
C13 C 0.20236(8) 0.61426(16) 0.06022(10)
H13 H 0.2449 0.6437 0.1010
C14 C 0.18536(10) 0.56927(17) -0.01720(11)
H14 H 0.2133 0.5614 -0.0405
C15 C 0.11826(12) 0.5377(2) -0.05416(13)
H15 H 0.0929 0.5037 -0.1084
N1 N 0.08504(8) 0.46826(15) 0.13870(10)
N2 N 0.13521(7) 0.54223(12) 0.18354(8)
N3 N 0.01594(7) 0.67157(14) 0.05622(10)
N4 N 0.08005(6) 0.71066(12) 0.11005(8)
N5 N 0.09414(8) 0.56134(18) -0.00362(10)
N6 N 0.14708(7) 0.60890(12) 0.06781(8)
C6E C 0.20969(9) 0.81827(15) 0.51499(11)
C4E C 0.24530(8) 0.73507(14) 0.57325(10)
C3E C 0.24152(9) 0.72147(16) 0.65321(10)
H3E H 0.2376 0.6441 0.6635
H4E H 0.2018 0.7600 0.6467
O1E O 0.30337(5) 0.76675(10) 0.72438(7)
C2E C 0.29616(8) 0.79452(15) 0.79481(9)
C1E C 0.35986(8) 0.85890(14) 0.85895(9)
N2E N 0.36479(7) 0.95777(12) 0.81646(8)
C7E C 0.31932(9) 0.99793(14) 0.73699(11)
H7E H 0.2796 0.9628 0.6945
C8E C 0.34138(9) 1.09755(15) 0.72977(10)
H8E H 0.3209 1.1443 0.6817
C9E C 0.40048(10) 1.11574(17) 0.80814(11)
H9E H 0.4270 1.1793 0.8220
N1E N 0.41496(8) 1.03174(15) 0.86130(10)
N4E N 0.41995(6) 0.78934(12) 0.88995(8)
C10E C 0.42144(9) 0.67976(15) 0.88184(11)
H10E H 0.3838 0.6343 0.8483
C11E C 0.48766(10) 0.64732(17) 0.93124(12)
H11E H 0.5048 0.5760 0.9384
C12E C 0.52382(10) 0.74161(18) 0.96825(13)
H12E H 0.5711 0.7439 1.0064
N3E N 0.48406(7) 0.82843(14) 0.94378(10)
N6E N 0.35292(7) 0.89110(12) 0.93219(8)
C13E C 0.29764(8) 0.88574(16) 0.93978(10)
H13E H 0.2551 0.8563 0.8990
C14E C 0.31464(10) 0.93073(17) 1.01720(11)
H14E H 0.2867 0.9386 1.0405
C15E C 0.38174(12) 0.9623(2) 1.05416(13)
H15E H 0.4071 0.9963 1.1084
N5E N 0.40586(8) 0.93866(18) 1.00362(10)
H1E H 0.2554 0.8391 0.7752
H2E H 0.2920 0.7285 0.8222
C5E C 0.28597(9) 0.66682(15) 0.55773(11)
H5E H 0.3106 0.6104 0.5967
H6E H 0.1822 0.8652 0.5251
N1D N -0.08504(8) 0.53174(15) -0.13870(10)
N3D N -0.01594(7) 0.32843(14) -0.05622(10)
N5D N -0.09414(8) 0.43866(18) 0.00362(10)
Cd1A Cd 0.5000 1.0000 1.0000
B1 B 0.12392(10) 0.07108(18) 0.23100(14)
F1 F 0.14600(5) 0.15862(9) 0.28853(7)
F2 F 0.09095(7) 0.10944(13) 0.14806(8)
F3 F 0.18025(7) 0.00986(9) 0.24666(10)
F4 F 0.08090(8) 0.00591(9) 0.24372(11)
N7 N 0.17614(10) 0.89868(18) 1.03657(13)
C16 C 0.12871(10) 0.87615(18) 0.97366(14)
C17 C 0.06694(11) 0.8456(2) 0.89343(15)
H16 H 0.0730 0.7744 0.8750
H17 H 0.0576 0.8991 0.8491
H18 H 0.0291 0.8430 0.9028
N8 N 1.0000 0.4175(3) 0.7500
C18 C 1.0000 0.3279(3) 0.7500
C19 C 1.0000 0.2118(4) 0.7500
H19? H 1.0274 0.1855 0.8089
H20? H 1.0189 0.1855 0.7163
H21? H 0.9538 0.1855 0.7248
loop_
_geom_bond_atom_site_label_1
_geom_bond_atom_site_label_2
_geom_bond_site_symmetry_1
_geom_bond_site_symmetry_2
Cd1 N1 1_555 1_555
C1 C2 1_555 1_555
C2 H1 1_555 1_555
H2 C2 1_555 1_555
C3 H3 1_555 1_555
H4 C3 1_555 1_555
C4 C3 1_555 1_555
C5 C4 1_555 1_555
H5 C5 1_555 1_555
C6 C4 1_555 1_555
H6 C6 1_555 1_555
O1 C2 1_555 1_555
C7 H7 1_555 1_555
C8 C7 1_555 1_555
H8 C8 1_555 1_555
C9 C8 1_555 1_555
H9 C9 1_555 1_555
C10 H10 1_555 1_555
C11 C10 1_555 1_555
H11 C11 1_555 1_555
C12 C11 1_555 1_555
H12 C12 1_555 1_555
C13 H13 1_555 1_555
C14 C13 1_555 1_555
H14 C14 1_555 1_555
C15 C14 1_555 1_555
H15 C15 1_555 1_555
N1 C9 1_555 1_555
N2 C1 1_555 1_555
N3 Cd1 1_555 1_555
N4 C1 1_555 1_555
N5 Cd1 1_555 1_555
N6 C1 1_555 1_555
B1 F1 1_555 1_555
F2 B1 1_555 1_555
F3 B1 1_555 1_555
F4 B1 1_555 1_555
N7 C16 1_555 1_555
C16 C17 1_555 1_555
C17 H16 1_555 1_555
H17 C17 1_555 1_555
H18 C17 1_555 1_555
N8 C18 1_555 1_555
C18 C19 1_555 1_555
C6E C5 1_555 1_555
C4E C6E 1_555 1_555
C3E C4E 1_555 1_555
H3E C3E 1_555 1_555
H4E C3E 1_555 1_555
O1E C3E 1_555 1_555
C2E O1E 1_555 1_555
C1E C2E 1_555 1_555
N2E C1E 1_555 1_555
C7E N2E 1_555 1_555
H7E C7E 1_555 1_555
C8E C7E 1_555 1_555
H8E C8E 1_555 1_555
C9E C8E 1_555 1_555
H9E C9E 1_555 1_555
N1E N2E 1_555 1_555
N4E C1E 1_555 1_555
C10E N4E 1_555 1_555
H10E C10E 1_555 1_555
C11E C10E 1_555 1_555
H11E C11E 1_555 1_555
C12E C11E 1_555 1_555
H12E C12E 1_555 1_555
N3E N4E 1_555 1_555
N6E C1E 1_555 1_555
C13E N6E 1_555 1_555
H13E C13E 1_555 1_555
C14E C13E 1_555 1_555
H14E C14E 1_555 1_555
C15E C14E 1_555 1_555
H15E C15E 1_555 1_555
N5E N6E 1_555 1_555
H1E C2E 1_555 1_555
H2E C2E 1_555 1_555
C5E C6 1_555 1_555
H5E C5E 1_555 1_555
H6E C6E 1_555 1_555
N1D Cd1 1_555 1_555
N3D Cd1 1_555 1_555
N5D Cd1 1_555 1_555
Cd1A N1E 1_555 1_555
C3 O1 1_555 1_555
C7 N2 1_555 1_555
C10 N4 1_555 1_555
C12 N3 1_555 1_555
C13 N6 1_555 1_555
C15 N5 1_555 1_555
N1 N2 1_555 1_555
N3 N4 1_555 1_555
N5 N6 1_555 1_555
C4E C5E 1_555 1_555
C9E N1E 1_555 1_555
C12E N3E 1_555 1_555
N3E Cd1A 1_555 1_555
C15E N5E 1_555 1_555
N5E Cd1A 1_555 1_555

#END
