
#######################################################################
#
#                 Cambridge Crystallographic Data Centre
#                                CCDC 
#
#######################################################################
#
# If this CIF has been generated from an entry in the Cambridge 
# Structural Database, then it will include bibliographic, chemical, 
# crystal, experimental, refinement or atomic coordinate data resulting 
# from the CCDC's data processing and validation procedures.
#
#######################################################################

data_QUTDAK
_symmetry_cell_setting           tetragonal
_symmetry_space_group_name_H-M   'P -4 21 c'
_symmetry_Int_Tables_number      114
_space_group_name_Hall           'P -4 2n'
loop_
_symmetry_equiv_pos_site_id
_symmetry_equiv_pos_as_xyz
1 x,y,z
2 -x,-y,z
3 y,-x,-z
4 -y,x,-z
5 1/2-x,1/2+y,1/2-z
6 1/2+x,1/2-y,1/2-z
7 1/2-y,1/2-x,1/2+z
8 1/2+y,1/2+x,1/2+z
_cell_length_a                   22.0558(14)
_cell_length_b                   22.0558(14)
_cell_length_c                   19.5779(18)
_cell_angle_alpha                90
_cell_angle_beta                 90
_cell_angle_gamma                90
_cell_volume                     9523.83
loop_
_atom_site_label
_atom_site_type_symbol
_atom_site_fract_x
_atom_site_fract_y
_atom_site_fract_z
Cd1 Cd 0.51658(4) 0.75004(5) 0.78409(5)
C1 C 0.4662(5) 0.8247(6) 0.9213(5)
C2 C 0.0545(4) 0.8308(4) 0.8546(5)
N1 N 0.5591(4) 0.8182(5) 0.8548(5)
N2 N 0.5291(3) 0.8436(4) 0.9077(4)
C3 C 0.5640(7) 0.8846(10) 0.9404(11)
H1 H 0.5535 0.9081 0.9794
C4 C 0.6175(6) 0.8852(9) 0.9056(9)
H2 H 0.6515 0.9102 0.9150
C5 C 0.6131(6) 0.8448(8) 0.8568(8)
H3 H 0.6451 0.8355 0.8261
N3 N 0.4782(9) 0.7205(6) 0.8829(6)
N4 N 0.4616(4) 0.7628(4) 0.9326(5)
C6 C 0.4515(8) 0.7338(7) 0.9924(7)
H4 H 0.4420 0.7518 1.0352
C7 C 0.4577(14) 0.6731(7) 0.9788(11)
H5 H 0.4519 0.6411 1.0106
C8 C 0.4733(16) 0.6668(5) 0.9134(9)
H6 H 0.4801 0.6290 0.8914
N5 N 0.4358(6) 0.8104(8) 0.8028(6)
N6 N 0.4258(4) 0.8409(5) 0.8628(5)
C9 C 0.3784(6) 0.8765(6) 0.8560(6)
H7 H 0.3619 0.9024 0.8900
C10 C 0.3570(6) 0.8693(9) 0.7908(8)
H8 H 0.3231 0.8888 0.7704
C11 C 0.3935(7) 0.8294(11) 0.7628(7)
H9 H 0.3891 0.8157 0.7170
N7 N -0.0372(5) 0.8139(7) 0.7898(6)
N8 N -0.0059(4) 0.8495(5) 0.8319(5)
C12 C -0.0381(7) 0.8991(8) 0.8490(6)
H10 H -0.0259 0.9292 0.8808
C13 C -0.0906(6) 0.8991(9) 0.8135(6)
H11 H -0.1215 0.9291 0.8119
C14 C -0.0875(6) 0.8431(10) 0.7796(8)
H12 H -0.1193 0.8279 0.7517
N9 N 0.0512(4) 0.7208(4) 0.8239(5)
N10 N 0.0538(4) 0.7643(4) 0.8691(4)
C15 C 0.0471(5) 0.7399(6) 0.9361(5)
H13 H 0.0473 0.7608 0.9785
C16 C 0.0403(6) 0.6776(7) 0.9245(8)
H14 H 0.0337 0.6470 0.9577
C17 C 0.0448(7) 0.6703(8) 0.8571(9)
H15 H 0.0435 0.6317 0.8355
N11 N 0.0897(4) 0.8233(4) 0.7344(5)
N12 N 0.0965(4) 0.8411(4) 0.7994(5)
C18 C 0.1477(6) 0.8773(6) 0.8045(7)
H16 H 0.1625 0.8965 0.8446
C19 C 0.1737(6) 0.8801(6) 0.7385(6)
H17 H 0.2104 0.8997 0.7257
C20 C 0.1331(6) 0.8473(7) 0.6949(7)
H18 H 0.1365 0.8432 0.6467
C21 C 0.4424(5) 0.8608(5) 0.9837(5)
H19 H 0.4676 0.8518 1.0243
H20 H 0.4448 0.9048 0.9744
C22 C 0.3591(4) 0.8782(5) 1.0513(5)
H21 H 0.3544 0.9215 1.0390
H22 H 0.3856 0.8754 1.0921
C23 C 0.2977(4) 0.8495(4) 1.0656(4)
C24 C 0.2929(6) 0.8007(5) 1.1084(5)
H23 H 0.3276 0.7848 1.1309
C25 C 0.2364(6) 0.7748(6) 1.1181(8)
H24 H 0.2320 0.7404 1.1469
C26 C 0.1856(6) 0.7995(6) 1.0854(8)
H25 H 0.1470 0.7818 1.0931
C27 C 0.1898(4) 0.8468(5) 1.0440(5)
C28 C 0.2471(4) 0.8738(4) 1.0348(4)
H26 H 0.2508 0.9090 1.0072
C29 C 0.1364(5) 0.8724(5) 1.0110(5)
H27 H 0.1008 0.8680 1.0414
H28 H 0.1429 0.9162 1.0026
C30 C 0.0696(5) 0.8647(5) 0.9196(5)
H29 H 0.0737 0.9085 0.9095
H30 H 0.0363 0.8596 0.9529
O1 O 0.1248(3) 0.8426(3) 0.9482(4)
O2 O 0.3846(4) 0.8449(4) 0.9956(4)
N7E N 0.4628(5) 0.6861(7) 0.7102(6)
N9E N 0.5512(4) 0.7792(4) 0.6761(5)
N11E N 0.5897(4) 0.6767(4) 0.7656(5)
Cd1E Cd 0.01658(4) 0.74996(5) 0.71591(5)
B1 B 0.2490(6) 1.0027(5) 0.8780(7)
F1 F 0.3008(4) 0.9886(5) 0.9226(4)
F2 F 0.2544(4) 0.9585(5) 0.8308(7)
F3 F 0.2551(6) 1.0554(4) 0.8516(8)
F4 F 0.1955(4) 0.9942(8) 0.9152(5)
B2 B 0.5000 0.5000 0.5000
F5 F 0.5514(2) 0.4976(2) 0.5403(3)
F5A F 0.4486(2) 0.5024(2) 0.5403(3)
F5B F 0.4976(2) 0.4486(2) 0.4597(3)
F5C F 0.5024(2) 0.5514(2) 0.4597(3)
B3 B 0.5000 1.0000 0.0959(13)
F6 F 0.4604(5) 0.9708(7) 0.1344(9)
F7 F 0.5284(5) 0.9358(6) 0.0958(7)
F6A F 0.5396(5) 1.0292(7) 0.1344(9)
F7A F 0.4716(5) 1.0642(6) 0.0958(7)
B4 B 0.5000 0.5000 0.0000
F9 F 0.4599(15) 0.5337(16) 0.0410(17)
F9A F 0.5401(15) 0.4663(16) 0.0410(17)
F9B F 0.5337(16) 0.5401(15) -0.0410(17)
F9C F 0.4663(16) 0.4599(15) -0.0410(17)
O3 O 0.7611(14) 0.8157(15) 0.6005(16)
C31 C 0.740(2) 0.7562(16) 0.630(2)
H31 H 0.7074 0.7381 0.6017
H32 H 0.7738 0.7270 0.6340
C32 C 0.7164(16) 0.7743(16) 0.6991(18)
H33 H 0.7444 0.7598 0.7345
H34 H 0.6763 0.7563 0.7064
H35 H 0.7133 0.8186 0.7016
C33 C 0.785(8) 0.872(4) 0.567(3)
H36 H 0.7645 0.9082 0.5865
H37 H 0.8289 0.8760 0.5754
C34 C 0.7732(19) 0.8695(17) 0.491(2)
H38 H 0.8119 0.8692 0.4669
H39 H 0.7495 0.9050 0.4774
H40 H 0.7505 0.8325 0.4805
N13 N 0.4627 0.7866 0.1482
C35 C 0.5007 0.8160 0.1687
C36 C 0.5459 0.8587 0.2156
H41 H 0.5652 0.8337 0.2508
H42 H 0.5221 0.8909 0.2374
H43 H 0.5771 0.8768 0.1865
F8? F 0.4625(9) 1.0034(7) 0.0363(14)
loop_
_geom_bond_atom_site_label_1
_geom_bond_atom_site_label_2
_geom_bond_site_symmetry_1
_geom_bond_site_symmetry_2
Cd1 N1 1_555 1_555
C1 N2 1_555 1_555
C2 N8 1_555 1_555
N1 N2 1_555 1_555
N2 C3 1_555 1_555
C3 H1 1_555 1_555
C4 C3 1_555 1_555
H2 C4 1_555 1_555
C5 N1 1_555 1_555
H3 C5 1_555 1_555
N3 Cd1 1_555 1_555
N4 C1 1_555 1_555
C6 N4 1_555 1_555
H4 C6 1_555 1_555
C7 C6 1_555 1_555
H5 C7 1_555 1_555
C8 N3 1_555 1_555
H6 C8 1_555 1_555
N5 Cd1 1_555 1_555
N6 C1 1_555 1_555
C9 N6 1_555 1_555
H7 C9 1_555 1_555
C10 C9 1_555 1_555
H8 C10 1_555 1_555
C11 N5 1_555 1_555
H9 C11 1_555 1_555
N7 N8 1_555 1_555
N8 C12 1_555 1_555
C12 H10 1_555 1_555
C13 C12 1_555 1_555
H11 C13 1_555 1_555
C14 N7 1_555 1_555
H12 C14 1_555 1_555
N9 N10 1_555 1_555
N10 C2 1_555 1_555
C15 N10 1_555 1_555
H13 C15 1_555 1_555
C16 C15 1_555 1_555
H14 C16 1_555 1_555
C17 N9 1_555 1_555
H15 C17 1_555 1_555
N11 N12 1_555 1_555
N12 C2 1_555 1_555
C18 N12 1_555 1_555
H16 C18 1_555 1_555
C19 C18 1_555 1_555
H17 C19 1_555 1_555
C20 N11 1_555 1_555
H18 C20 1_555 1_555
C21 C1 1_555 1_555
H19 C21 1_555 1_555
H20 C21 1_555 1_555
C22 H21 1_555 1_555
H22 C22 1_555 1_555
C23 C22 1_555 1_555
C24 C23 1_555 1_555
H23 C24 1_555 1_555
C25 C24 1_555 1_555
H24 C25 1_555 1_555
C26 C25 1_555 1_555
H25 C26 1_555 1_555
C27 C26 1_555 1_555
C28 C23 1_555 1_555
H26 C28 1_555 1_555
C29 C27 1_555 1_555
H27 C29 1_555 1_555
H28 C29 1_555 1_555
C30 C2 1_555 1_555
H29 C30 1_555 1_555
H30 C30 1_555 1_555
O1 C29 1_555 1_555
O2 C21 1_555 1_555
B1 F1 1_555 1_555
F2 B1 1_555 1_555
F3 B1 1_555 1_555
F4 B1 1_555 1_555
B2 F5 1_555 1_555
B3 F6 1_555 1_555
F7 B3 1_555 1_555
B4 F9 1_555 1_555
O3 C31 1_555 1_555
C31 H31 1_555 1_555
H32 C31 1_555 1_555
C32 C31 1_555 1_555
H33 C32 1_555 1_555
H34 C32 1_555 1_555
H35 C32 1_555 1_555
C33 O3 1_555 1_555
H36 C33 1_555 1_555
H37 C33 1_555 1_555
C34 C33 1_555 1_555
H38 C34 1_555 1_555
H39 C34 1_555 1_555
H40 C34 1_555 1_555
N13 C35 1_555 1_555
C35 C36 1_555 1_555
C36 H41 1_555 1_555
H42 C36 1_555 1_555
H43 C36 1_555 1_555
F5A B2 1_555 1_555
F5B B2 1_555 1_555
F5C B2 1_555 1_555
F6A B3 1_555 1_555
F7A B3 1_555 1_555
F9A B4 1_555 1_555
F9B B4 1_555 1_555
F9C B4 1_555 1_555
N7E Cd1 1_555 1_555
N9E Cd1 1_555 1_555
N11E Cd1 1_555 1_555
Cd1E N7 1_555 1_555
C4 C5 1_555 1_555
N3 N4 1_555 1_555
C7 C8 1_555 1_555
N5 N6 1_555 1_555
C10 C11 1_555 1_555
C13 C14 1_555 1_555
N9 Cd1E 1_555 1_555
C16 C17 1_555 1_555
N11 Cd1E 1_555 1_555
C19 C20 1_555 1_555
C22 O2 1_555 1_555
C27 C28 1_555 1_555
C30 O1 1_555 1_555

#END
