
#######################################################################
#
#                 Cambridge Crystallographic Data Centre
#                                CCDC 
#
#######################################################################
#
# If this CIF has been generated from an entry in the Cambridge 
# Structural Database, then it will include bibliographic, chemical, 
# crystal, experimental, refinement or atomic coordinate data resulting 
# from the CCDC's data processing and validation procedures.
#
#######################################################################

data_QUTDAL01
_symmetry_cell_setting           orthorhombic
_symmetry_space_group_name_H-M   'P 21 21 21'
_symmetry_Int_Tables_number      19
_space_group_name_Hall           'P 2ac 2ab'
loop_
_symmetry_equiv_pos_site_id
_symmetry_equiv_pos_as_xyz
1 x,y,z
2 1/2-x,-y,1/2+z
3 -x,1/2+y,1/2-z
4 1/2+x,1/2-y,-z
_cell_length_a                   6.805(5)
_cell_length_b                   13.214(9)
_cell_length_c                   13.214
_cell_angle_alpha                90
_cell_angle_beta                 90
_cell_angle_gamma                90
_cell_volume                     1188.22
loop_
_atom_site_label
_atom_site_type_symbol
_atom_site_fract_x
_atom_site_fract_y
_atom_site_fract_z
Fe1 Fe 0.05795(6) 0.61975(3) 0.01505(2)
N1 N 0.0608(4) 0.46367(15) -0.03902(15)
N2 N -0.0390(4) 0.53166(15) 0.14503(15)
O1 O 0.1349(3) 0.70346(17) -0.11473(15)
O2 O 0.3549(3) 0.60160(15) 0.06579(17)
O3 O -0.0391(3) 0.25086(12) 0.39477(12)
O4 O -0.2644(3) 0.35514(14) 0.46041(13)
O5 O 0.0028(3) 0.08492(13) -0.05099(14)
O6 O -0.0547(3) 0.12595(15) -0.21036(12)
C1 C 0.0907(4) 0.4331(2) -0.1342(2)
H1 H 0.1266 0.4811 -0.1823
C2 C 0.0706(5) 0.3328(2) -0.16479(19)
H2 H 0.0919 0.3152 -0.2321
C3 C 0.0187(4) 0.25859(19) -0.09452(18)
C4 C -0.0078(4) 0.29019(18) 0.00423(18)
H3 H -0.0378 0.2430 0.0541
C5 C 0.0099(3) 0.39199(19) 0.02967(18)
C6 C -0.0302(4) 0.42962(19) 0.13335(18)
C7 C -0.0590(4) 0.36415(19) 0.21459(17)
H4 H -0.0467 0.2946 0.2057
C8 C -0.1058(4) 0.40321(19) 0.30807(18)
C9 C -0.1207(4) 0.5078(2) 0.31935(19)
H5 H -0.1544 0.5362 0.3814
C10 C -0.0841(4) 0.5687(2) 0.23568(19)
H6 H -0.0915 0.6386 0.2435
C11 C -0.0135(4) 0.14681(19) -0.12134(19)
C12 C -0.1430(4) 0.3313(2) 0.3952(2)
H7 H 0.2560(17) 0.718(2) -0.1156(19)
H8 H 0.099(4) 0.687(2) -0.1736(11)
H9 H 0.410(3) 0.5444(10) 0.062(2)
H10 H 0.443(3) 0.6452(14) 0.077(2)
Fe1A Fe -0.55795(6) 0.38025(3) 0.51505(2)
Fe1B Fe -0.05795(6) 0.11975(3) 0.48495(2)
O3B O 0.0391(3) 0.75086(12) 0.10523(12)
O4A O -0.2356(3) 0.64486(14) -0.03959(13)
loop_
_geom_bond_atom_site_label_1
_geom_bond_atom_site_label_2
_geom_bond_site_symmetry_1
_geom_bond_site_symmetry_2
Fe1 N1 1_555 1_555
N1 C1 1_555 1_555
N2 Fe1 1_555 1_555
O1 Fe1 1_555 1_555
O2 Fe1 1_555 1_555
O3 C12 1_555 1_555
O4 C12 1_555 1_555
O5 C11 1_555 1_555
O6 C11 1_555 1_555
C1 H1 1_555 1_555
C2 C1 1_555 1_555
H2 C2 1_555 1_555
C3 C2 1_555 1_555
C4 C3 1_555 1_555
H3 C4 1_555 1_555
C5 N1 1_555 1_555
C6 N2 1_555 1_555
C7 C6 1_555 1_555
H4 C7 1_555 1_555
C8 C7 1_555 1_555
C9 C8 1_555 1_555
H5 C9 1_555 1_555
C10 N2 1_555 1_555
H6 C10 1_555 1_555
C11 C3 1_555 1_555
C12 C8 1_555 1_555
H7 O1 1_555 1_555
H8 O1 1_555 1_555
H9 O2 1_555 1_555
H10 O2 1_555 1_555
Fe1A O4 1_555 1_555
Fe1B O3 1_555 1_555
O3B Fe1 1_555 1_555
O4A Fe1 1_555 1_555
C4 C5 1_555 1_555
C5 C6 1_555 1_555
C9 C10 1_555 1_555

#END
