
#######################################################################
#
#                 Cambridge Crystallographic Data Centre
#                                CCDC 
#
#######################################################################
#
# If this CIF has been generated from an entry in the Cambridge 
# Structural Database, then it will include bibliographic, chemical, 
# crystal, experimental, refinement or atomic coordinate data resulting 
# from the CCDC's data processing and validation procedures.
#
#######################################################################

data_QUTGAO
_symmetry_cell_setting           triclinic
_symmetry_space_group_name_H-M   'P -1'
_symmetry_Int_Tables_number      2
_space_group_name_Hall           '-P 1'
loop_
_symmetry_equiv_pos_site_id
_symmetry_equiv_pos_as_xyz
1 x,y,z
2 -x,-y,-z
_cell_length_a                   14.0340(4)
_cell_length_b                   16.2130(5)
_cell_length_c                   19.4062(6)
_cell_angle_alpha                110.878(3)
_cell_angle_beta                 95.287(2)
_cell_angle_gamma                99.200(2)
_cell_volume                     4018.98
loop_
_atom_site_label
_atom_site_type_symbol
_atom_site_fract_x
_atom_site_fract_y
_atom_site_fract_z
Ca1 Ca 0.60245(4) 0.42051(4) 0.40105(4)
O1 O 0.59507(15) 0.26723(13) 0.31559(12)
H1 H 0.5816 0.2248 0.3314
H2 H 0.6410 0.2573 0.2900
O2 O 0.71268(15) 0.37461(14) 0.47497(12)
H3 H 0.7297 0.3953 0.5221
H4 H 0.7524 0.3424 0.4550
O3 O 0.73312(15) 0.46891(15) 0.34796(12)
H5 H 0.7273 0.4729 0.3054
H6 H 0.7937 0.4784 0.3646
O4 O 0.51419(14) 0.41149(14) 0.28804(11)
H7 H 0.4579 0.4245 0.2892
H8 H 0.5174 0.3787 0.2434
Ca2 Ca 1.09333(4) 0.89810(4) 0.90076(4)
O5 O 1.07847(15) 0.74643(13) 0.82021(12)
H9 H 1.0655 0.7010 0.8324
H10 H 1.1231 0.7389 0.7931
O6 O 1.02172(15) 0.91355(14) 0.79324(12)
H11 H 0.9783 0.9449 0.7945
H12 H 1.0287 0.8878 0.7480
O7 O 1.23439(14) 0.93238(14) 0.84214(12)
H13 H 1.2263 0.9624 0.8148
H14 H 1.2893 0.9559 0.8706
O8 O 1.22958(15) 0.88573(15) 0.97519(12)
H15 H 1.2332 0.8929 1.0210
H16 H 1.2691 0.8528 0.9561
Ca3 Ca 0.76104(4) 0.80947(4) 0.82082(3)
O9 O 0.68407(14) 0.68937(13) 0.85325(12)
H17 H 0.6823 0.6362 0.8228
H18 H 0.6265 0.6934 0.8624
O10 O 0.70932(14) 0.89864(14) 0.93228(12)
H19 H 0.6533 0.8965 0.9456
H20 H 0.7525 0.9179 0.9712
O11 O 0.58059(14) 0.82395(13) 0.79524(11)
H21 H 0.5380 0.7889 0.7580
H22 H 0.5582 0.8262 0.8349
O12 O 0.69124(15) 0.71242(13) 0.69216(11)
H23 H 0.6368 0.7061 0.6657
H24 H 0.7035 0.6604 0.6842
O13 O 0.87021(14) 0.71693(14) 0.76330(12)
H25 H 0.8612 0.6802 0.7181
H26 H 0.9302 0.7266 0.7814
O29 O 1.04261(14) 1.25134(13) 0.72271(11)
C1 C 1.0809(2) 1.3407(2) 0.77937(18)
H57 H 1.0956 1.3360 0.8280
H58 H 1.1407 1.3682 0.7668
H59 H 1.0321 1.3782 0.7816
C2 C 1.0194(2) 1.25156(19) 0.65155(17)
C3 C 0.9264(2) 1.26168(19) 0.62895(17)
C4 C 0.9061(2) 1.26566(18) 0.55899(17)
H60 H 0.8438 1.2746 0.5432
C5 C 0.9757(2) 1.25677(19) 0.51143(17)
C6 C 1.0663(2) 1.24229(19) 0.53426(17)
H61 H 1.1130 1.2343 0.5012
C7 C 1.0900(2) 1.23917(19) 0.60399(18)
P1 P 0.95038(6) 1.27632(5) 0.42636(5)
O30 O 0.98724(14) 1.20213(14) 0.36279(12)
H62 H 1.0483 1.2093 0.3727
O31 O 1.00711(14) 1.36944(13) 0.43918(11)
O32 O 0.84092(14) 1.26082(13) 0.40508(11)
C8 C 0.8488(2) 1.26696(19) 0.67791(16)
H63 H 0.8784 1.3058 0.7301
H64 H 0.7981 1.2952 0.6617
O33 O 0.70936(14) 1.13963(13) 0.55341(11)
C9 C 0.6260(2) 1.1815(2) 0.55529(17)
H65 H 0.6163 1.1969 0.5110
H66 H 0.5675 1.1396 0.5557
H67 H 0.6373 1.2365 0.6004
C10 C 0.7310(2) 1.1149(2) 0.61389(17)
C11 C 0.6874(2) 1.0295(2) 0.61001(17)
C12 C 0.7153(2) 1.00364(19) 0.66885(16)
H68 H 0.6856 0.9459 0.6673
C13 C 0.7851(2) 1.0601(2) 0.72944(17)
C14 C 0.8276(2) 1.1456(2) 0.73160(17)
H69 H 0.8758 1.1846 0.7729
C15 C 0.8010(2) 1.17446(19) 0.67489(17)
P2 P 0.81567(6) 1.02656(5) 0.80584(5)
O34 O 0.74714(14) 1.06485(14) 0.86498(11)
H70 H 0.6883 1.0428 0.8453
O35 O 0.91848(14) 1.07336(15) 0.84437(12)
O36 O 0.79520(16) 0.92561(14) 0.77728(12)
C16 C 0.6136(2) 0.96365(19) 0.54355(17)
H71 H 0.5499 0.9519 0.5600
H72 H 0.6045 0.9912 0.5060
O37 O 0.75879(14) 0.94608(14) 0.45130(12)
C17 C 0.8586(2) 0.9839(2) 0.48971(19)
H73 H 0.8839 1.0382 0.4803
H74 H 0.8601 0.9997 0.5435
H75 H 0.8993 0.9394 0.4713
C18 C 0.7169(2) 0.8686(2) 0.46172(17)
C19 C 0.7416(2) 0.7863(2) 0.42331(17)
C20 C 0.6996(2) 0.7111(2) 0.43702(16)
H76 H 0.7161 0.6546 0.4117
C21 C 0.6340(2) 0.7173(2) 0.48707(17)
C22 C 0.6055(2) 0.79859(19) 0.52077(17)
H77 H 0.5584 0.8022 0.5533
C23 C 0.6452(2) 0.87496(19) 0.50753(16)
P3 P 0.58432(6) 0.61976(5) 0.50574(5)
O38 O 0.67014(14) 0.56789(13) 0.51075(11)
H78 H 0.7082 0.5963 0.5515
O39 O 0.51734(14) 0.54951(13) 0.43707(11)
O40 O 0.54030(14) 0.65040(13) 0.57581(11)
C24 C 1.1881(2) 1.2242(2) 0.63195(17)
H79 H 1.2184 1.2759 0.6787
H80 H 1.1769 1.1693 0.6440
O41 O 0.45236(14) 0.24362(14) 0.77449(12)
C25 C 0.4135(2) 0.1539(2) 0.71770(18)
H81 H 0.3976 0.1586 0.6692
H82 H 0.4625 0.1165 0.7148
H83 H 0.3542 0.1263 0.7309
C26 C 0.4755(2) 0.24403(19) 0.84601(17)
C27 C 0.5678(2) 0.23178(19) 0.86771(17)
C28 C 0.5891(2) 0.23079(18) 0.93846(17)
H84 H 0.6507 0.2200 0.9537
C29 C 0.5218(2) 0.24539(19) 0.98761(17)
C30 C 0.4320(2) 0.26198(19) 0.96549(18)
H85 H 0.3871 0.2741 0.9998
C31 C 0.4068(2) 0.26114(19) 0.89430(17)
P4 P 0.54696(6) 0.23683(5) 1.07703(5)
O42 O 0.66115(14) 0.24178(13) 1.09152(12)
H86 H 0.6914 0.2913 1.0923
O43 O 0.49763(14) 0.14336(14) 1.07005(12)
O44 O 0.51839(14) 0.31379(14) 1.13631(12)
C32 C 0.6455(2) 0.22451(19) 0.81800(17)
H87 H 0.6954 0.1954 0.8341
H88 H 0.6153 0.1859 0.7659
O45 O 0.78720(14) 0.35121(13) 0.94198(11)
C33 C 0.8734(2) 0.3124(2) 0.94066(18)
H89 H 0.8841 0.2971 0.9849
H90 H 0.8641 0.2577 0.8955
H91 H 0.9304 0.3562 0.9408
C34 C 0.7650(2) 0.3759(2) 0.88147(17)
C35 C 0.8088(2) 0.4613(2) 0.88435(17)
C36 C 0.7825(2) 0.4854(2) 0.82460(17)
H92 H 0.8127 0.5426 0.8254
C37 C 0.7136(2) 0.4282(2) 0.76405(17)
C38 C 0.6689(2) 0.34410(19) 0.76309(17)
H93 H 0.6202 0.3052 0.7221
C39 C 0.6945(2) 0.3163(2) 0.82100(17)
P5 P 0.68422(6) 0.46135(5) 0.68618(5)
O46 O 0.58197(14) 0.39651(13) 0.64704(12)
H94 H 0.5554 0.4142 0.6158
O47 O 0.75936(14) 0.44347(13) 0.63482(11)
O48 O 0.67247(14) 0.55817(13) 0.71676(11)
C40 C 0.8818(2) 0.52749(18) 0.95187(16)
H95 H 0.9462 0.5387 0.9362
H96 H 0.8894 0.4999 0.9896
O49 O 0.73771(14) 0.54859(13) 1.04584(12)
C41 C 0.6377(2) 0.5123(2) 1.00696(19)
H97 H 0.6110 0.4581 1.0160
H98 H 0.5979 0.5576 1.0254
H99 H 0.6368 0.4968 0.9532
C42 C 0.7815(2) 0.6255(2) 1.03570(17)
C43 C 0.7599(2) 0.7087(2) 1.07513(17)
C44 C 0.8049(2) 0.7838(2) 1.06133(17)
H100 H 0.7911 0.8413 1.0876
C45 C 0.8687(2) 0.77597(19) 1.01026(17)
C46 C 0.8931(2) 0.69260(19) 0.97473(16)
H101 H 0.9390 0.6875 0.9412
C47 C 0.8512(2) 0.6169(2) 0.98757(17)
P6 P 0.92113(6) 0.87322(5) 0.99180(5)
O50 O 1.03587(13) 0.89092(12) 1.01685(11)
H102 H 1.0481 0.9025 1.0629
O51 O 0.87876(14) 0.95106(13) 1.03679(11)
O52 O 0.91274(14) 0.85350(13) 0.90888(11)
C48 C 0.3089(2) 0.2783(2) 0.86818(17)
H103 H 0.3210 0.3328 0.8557
H104 H 0.2767 0.2267 0.8219
Ca1A Ca 1.39755(4) 1.57949(4) 0.59895(4)
Ca1A_2 Ca 0.39755(4) 0.57949(4) 0.59895(4)
Ca1_2 Ca 1.60245(4) 1.42051(4) 0.40105(4)
O1A O 1.40493(15) 1.73277(13) 0.68441(12)
H1A H 1.4184 1.7752 0.6686
H2A H 1.3590 1.7427 0.7100
O2A O 1.28732(15) 1.62539(14) 0.52503(12)
H3A H 1.2703 1.6047 0.4779
H4A H 1.2476 1.6576 0.5450
O3A O 1.26688(15) 1.53109(15) 0.65204(12)
H5A H 1.2727 1.5271 0.6946
H6A H 1.2063 1.5216 0.6354
O4A O 1.48581(14) 1.58851(14) 0.71196(11)
H7A H 1.5421 1.5755 0.7108
H8A H 1.4826 1.6213 0.7566
Ca2A Ca -0.09333(4) 0.10190(4) 1.09924(4)
Ca2A_2 Ca 0.90667(4) 1.10190(4) 1.09924(4)
Ca2_2 Ca 0.09333(4) -0.10190(4) 0.90076(4)
O5A O -0.07847(15) 0.25357(13) 1.17979(12)
H9A H -0.0655 0.2990 1.1676
H10A H -0.1231 0.2611 1.2069
O6A O -0.02172(15) 0.08645(14) 1.20676(12)
H11A H 0.0217 0.0551 1.2055
H12A H -0.0287 0.1122 1.2520
O7A O -0.23439(14) 0.06762(14) 1.15786(12)
H13A H -0.2263 0.0376 1.1852
H14A H -0.2893 0.0441 1.1294
O8A O -0.22958(15) 0.11427(15) 1.02481(12)
H15A H -0.2332 0.1071 0.9790
H16A H -0.2691 0.1472 1.0439
Ca3A Ca 1.23896(4) 1.19053(4) 0.17918(3)
Ca3A_2 Ca 0.23896(4) 0.19053(4) 1.17918(3)
O9A O 1.31593(14) 1.31063(13) 0.14675(12)
H17A H 1.3177 1.3638 0.1772
H18A H 1.3735 1.3066 0.1376
O10A O 1.29068(14) 1.10136(14) 0.06772(12)
H19A H 1.3467 1.1035 0.0544
H20A H 1.2475 1.0821 0.0288
O11A O 1.41941(14) 1.17605(13) 0.20476(11)
H21A H 1.4620 1.2111 0.2420
H22A H 1.4418 1.1738 0.1651
O12A O 1.30876(15) 1.28758(13) 0.30784(11)
H23A H 1.3632 1.2939 0.3343
H24A H 1.2965 1.3396 0.3158
O13A O 1.12979(14) 1.28307(14) 0.23670(12)
H25A H 1.1388 1.3198 0.2819
H26A H 1.0698 1.2734 0.2186
O29A O 0.95739(14) 0.74866(13) 0.27729(11)
C1A C 0.9191(2) 0.6593(2) 0.22063(18)
H57A H 0.9044 0.6640 0.1720
H58A H 0.8593 0.6318 0.2332
H59A H 0.9679 0.6218 0.2184
C2A C 0.9806(2) 0.74844(19) 0.34845(17)
C3A C 1.0736(2) 0.73832(19) 0.37105(17)
C4A C 1.0939(2) 0.73434(18) 0.44101(17)
H60A H 1.1562 0.7254 0.4568
C5A C 1.0243(2) 0.74323(19) 0.48857(17)
C6A C 0.9337(2) 0.75771(19) 0.46574(17)
H61A H 0.8870 0.7657 0.4988
C7A C 0.9100(2) 0.76083(19) 0.39601(18)
P1A P 1.04962(6) 0.72368(5) 0.57364(5)
O30A O 1.01276(14) 0.79787(14) 0.63721(12)
H62A H 0.9517 0.7907 0.6273
O31A O 0.99289(14) 0.63056(13) 0.56082(11)
O32A O 1.15908(14) 0.73918(13) 0.59492(11)
C8A C 1.1512(2) 0.73304(19) 0.32209(16)
H63A H 1.1216 0.6942 0.2699
H64A H 1.2019 0.7048 0.3383
O33A O 1.29064(14) 0.86037(13) 0.44659(11)
C9A C 1.3740(2) 0.8185(2) 0.44471(17)
H65A H 1.3837 0.8031 0.4890
H66A H 1.4325 0.8604 0.4443
H67A H 1.3627 0.7635 0.3996
C10A C 1.2690(2) 0.8851(2) 0.38611(17)
C11A C 1.3126(2) 0.9705(2) 0.38999(17)
C12A C 1.2847(2) 0.99636(19) 0.33115(16)
H68A H 1.3144 1.0541 0.3327
C13A C 1.2149(2) 0.9399(2) 0.27056(17)
C14A C 1.1724(2) 0.8544(2) 0.26840(17)
H69A H 1.1242 0.8154 0.2271
C15A C 1.1990(2) 0.82554(19) 0.32511(17)
P2A P 1.18433(6) 0.97344(5) 0.19416(5)
O34A O 1.25286(14) 0.93515(14) 0.13502(11)
H70A H 1.3117 0.9572 0.1547
O35A O 1.08152(14) 0.92664(15) 0.15563(12)
O36A O 1.20480(16) 1.07439(14) 0.22272(12)
C16A C 1.3864(2) 1.03635(19) 0.45645(17)
H71A H 1.4501 1.0481 0.4400
H72A H 1.3955 1.0088 0.4940
O37A O 1.24121(14) 1.05392(14) 0.54870(12)
C17A C 1.1414(2) 1.0161(2) 0.51029(19)
H73A H 1.1161 0.9618 0.5197
H74A H 1.1399 1.0003 0.4565
H75A H 1.1007 1.0606 0.5287
C18A C 1.2831(2) 1.1314(2) 0.53828(17)
C19A C 1.2584(2) 1.2137(2) 0.57669(17)
C20A C 1.3004(2) 1.2889(2) 0.56298(16)
H76A H 1.2839 1.3454 0.5883
C21A C 1.3660(2) 1.2827(2) 0.51293(17)
C22A C 1.3945(2) 1.20141(19) 0.47923(17)
H77A H 1.4416 1.1978 0.4467
C23A C 1.3548(2) 1.12504(19) 0.49247(16)
P3A P 1.41568(6) 1.38024(5) 0.49426(5)
O38A O 1.32986(14) 1.43211(13) 0.48925(11)
H78A H 1.2918 1.4037 0.4485
O39A O 1.48266(14) 1.45049(13) 0.56293(11)
O40A O 1.45970(14) 1.34960(13) 0.42419(11)
O40A_2 O 0.45970(14) 0.34960(13) 0.42419(11)
O40_2 O 1.54030(14) 1.65040(13) 0.57581(11)
C24A C 0.8119(2) 0.7758(2) 0.36805(17)
H79A H 0.7816 0.7241 0.3213
H80A H 0.8231 0.8307 0.3560
O41A O 0.54764(14) 0.75638(14) 1.22551(12)
C25A C 0.5865(2) 0.8461(2) 1.28230(18)
H81A H 0.6024 0.8414 1.3308
H82A H 0.5375 0.8835 1.2852
H83A H 0.6458 0.8737 1.2691
C26A C 0.5245(2) 0.75597(19) 1.15399(17)
C27A C 0.4322(2) 0.76822(19) 1.13229(17)
C28A C 0.4109(2) 0.76921(18) 1.06154(17)
H84A H 0.3493 0.7800 1.0463
C29A C 0.4782(2) 0.75461(19) 1.01239(17)
C30A C 0.5680(2) 0.73802(19) 1.03451(18)
H85A H 0.6129 0.7259 1.0002
C31A C 0.5932(2) 0.73886(19) 1.10570(17)
P4A P 0.45304(6) 0.76317(5) 0.92297(5)
O42A O 0.33885(14) 0.75822(13) 0.90848(12)
H86A H 0.3086 0.7087 0.9077
O43A O 0.50237(14) 0.85664(14) 0.92995(12)
O44A O 0.48161(14) 0.68621(14) 0.86369(12)
C32A C 0.3545(2) 0.77549(19) 1.18200(17)
H87A H 0.3046 0.8046 1.1659
H88A H 0.3847 0.8141 1.2341
O45A O 0.21280(14) 0.64879(13) 1.05802(11)
C33A C 0.1266(2) 0.6876(2) 1.05934(18)
H89A H 0.1159 0.7029 1.0151
H90A H 0.1359 0.7423 1.1045
H91A H 0.0696 0.6438 1.0592
C34A C 0.2350(2) 0.6241(2) 1.11853(17)
C35A C 0.1912(2) 0.5387(2) 1.11565(17)
C36A C 0.2175(2) 0.5146(2) 1.17540(17)
H92A H 0.1873 0.4574 1.1746
C37A C 0.2864(2) 0.5718(2) 1.23595(17)
C38A C 0.3311(2) 0.65590(19) 1.23691(17)
H93A H 0.3798 0.6948 1.2779
C39A C 0.3055(2) 0.6837(2) 1.17900(17)
P5A P 0.31578(6) 0.53865(5) 1.31382(5)
O46A O 0.41803(14) 0.60349(13) 1.35296(12)
H94A H 0.4446 0.5858 1.3842
O47A O 0.24064(14) 0.55653(13) 1.36518(11)
O48A O 0.32753(14) 0.44183(13) 1.28324(11)
C40A C 0.1182(2) 0.47251(18) 1.04813(16)
H95A H 0.0538 0.4613 1.0638
H96A H 0.1106 0.5001 1.0104
O49A O 0.26229(14) 0.45141(13) 0.95416(12)
C41A C 0.3623(2) 0.4877(2) 0.99304(19)
H97A H 0.3890 0.5419 0.9840
H98A H 0.4021 0.4424 0.9746
H99A H 0.3632 0.5032 1.0468
C42A C 0.2185(2) 0.3745(2) 0.96430(17)
C43A C 0.2401(2) 0.2913(2) 0.92487(17)
C44A C 0.1951(2) 0.2162(2) 0.93867(17)
H100A H 0.2089 0.1587 0.9124
C45A C 0.1313(2) 0.22403(19) 0.98974(17)
C46A C 0.1069(2) 0.30740(19) 1.02527(16)
H101A H 0.0610 0.3125 1.0588
C47A C 0.1488(2) 0.3831(2) 1.01243(17)
P6A P 0.07887(6) 0.12678(5) 1.00820(5)
O50A O -0.03587(13) 0.10908(12) 0.98315(11)
H102A H -0.0481 0.0975 0.9371
O51A O 0.12124(14) 0.04894(13) 0.96321(11)
O51A_2 O 1.12124(14) 1.04894(13) 0.96321(11)
O51_2 O -0.12124(14) -0.04894(13) 1.03679(11)
O52A O 0.08726(14) 0.14650(13) 1.09112(11)
O52A_2 O 1.08726(14) 1.14650(13) 0.09112(11)
C48A C 0.6911(2) 0.7217(2) 1.13182(17)
H103A H 0.6790 0.6672 1.1443
H104A H 0.7233 0.7733 1.1781
O14 O 0.76936(15) 0.39719(15) 0.09714(12)
H27 H 0.7474 0.4380 0.1288
H28 H 0.7663 0.4063 0.0566
O15 O 0.56661(14) -0.00235(13) 0.08408(12)
H29 H 0.5514 0.0442 0.0792
H30 H 0.5498 -0.0462 0.0421
O16 O 0.82255(14) 0.59887(13) 0.60946(11)
H31 H 0.8095 0.5474 0.6126
H32 H 0.8772 0.6044 0.5942
O17 O 0.92859(14) 0.50297(13) 0.40977(12)
H33 H 0.9425 0.4575 0.4175
H34 H 0.9456 0.5488 0.4504
O18 O 0.77027(14) 0.24091(14) 0.26281(11)
H35 H 0.7996 0.2498 0.3059
H36 H 0.7607 0.1849 0.2362
O19 O 0.26466(15) -0.09469(15) 0.60887(13)
H37 H 0.2285 -0.1457 0.6005
H38 H 0.2665 -0.0880 0.5675
O20 O -0.03791(15) 0.40572(14) 0.15616(12)
H39 H -0.0924 0.4167 0.1431
H40 H -0.0128 0.4451 0.1992
O21 O -0.21950(16) -0.01825(15) 0.25230(13)
H41 H -0.1670 -0.0382 0.2507
H42 H -0.2158 0.0224 0.2953
O22 O 0.17057(15) 0.19441(14) 0.36574(12)
H43 H 0.1744 0.1461 0.3306
H44 H 0.2034 0.2388 0.3588
O23 O 0.03857(15) 0.51897(15) 0.29753(12)
H45 H 0.0993 0.5280 0.3134
H46 H 0.0079 0.5255 0.3342
O24 O 0.44037(15) 0.00492(14) 0.19217(12)
H47 H 0.4285 0.0558 0.1953
H48 H 0.4799 -0.0092 0.1613
O25 O 0.67220(16) 0.47673(15) 0.20335(13)
H49 H 0.6515 0.5237 0.2272
H50 H 0.6261 0.4310 0.1926
O26 O 0.54863(15) 0.10823(15) 0.34351(13)
H51 H 0.5233 0.0690 0.3005
H52 H 0.6032 0.0971 0.3564
O27 O -0.06312(17) -0.09903(16) 0.24435(14)
H53 H -0.0608 -0.1454 0.2548
H54 H -0.0225 -0.0961 0.2150
O28 O 0.57881(17) 0.61105(16) 0.26105(14)
H55 H 0.5357 0.5992 0.2861
H56 H 0.5689 0.6564 0.2512
loop_
_geom_bond_atom_site_label_1
_geom_bond_atom_site_label_2
_geom_bond_site_symmetry_1
_geom_bond_site_symmetry_2
Ca1 O1 1_555 1_555
O1 H1 1_555 1_555
H2 O1 1_555 1_555
O2 Ca1 1_555 1_555
H3 O2 1_555 1_555
H4 O2 1_555 1_555
O3 Ca1 1_555 1_555
H5 O3 1_555 1_555
H6 O3 1_555 1_555
O4 Ca1 1_555 1_555
H7 O4 1_555 1_555
H8 O4 1_555 1_555
Ca2 O5 1_555 1_555
O5 H9 1_555 1_555
H10 O5 1_555 1_555
O6 Ca2 1_555 1_555
H11 O6 1_555 1_555
H12 O6 1_555 1_555
O7 Ca2 1_555 1_555
H13 O7 1_555 1_555
H14 O7 1_555 1_555
O8 Ca2 1_555 1_555
H15 O8 1_555 1_555
H16 O8 1_555 1_555
Ca3 O9 1_555 1_555
O9 H17 1_555 1_555
H18 O9 1_555 1_555
O10 Ca3 1_555 1_555
H19 O10 1_555 1_555
H20 O10 1_555 1_555
O11 Ca3 1_555 1_555
H21 O11 1_555 1_555
H22 O11 1_555 1_555
O12 Ca3 1_555 1_555
H23 O12 1_555 1_555
H24 O12 1_555 1_555
O13 Ca3 1_555 1_555
H25 O13 1_555 1_555
H26 O13 1_555 1_555
O14 H27 1_555 1_555
H28 O14 1_555 1_555
O15 H29 1_555 1_555
H30 O15 1_555 1_555
O16 H31 1_555 1_555
H32 O16 1_555 1_555
O17 H33 1_555 1_555
H34 O17 1_555 1_555
O18 H35 1_555 1_555
H36 O18 1_555 1_555
O19 H37 1_555 1_555
H38 O19 1_555 1_555
O20 H39 1_555 1_555
H40 O20 1_555 1_555
O21 H41 1_555 1_555
H42 O21 1_555 1_555
O22 H43 1_555 1_555
H44 O22 1_555 1_555
O23 H45 1_555 1_555
H46 O23 1_555 1_555
O24 H47 1_555 1_555
H48 O24 1_555 1_555
O25 H49 1_555 1_555
H50 O25 1_555 1_555
O26 H51 1_555 1_555
H52 O26 1_555 1_555
O27 H53 1_555 1_555
H54 O27 1_555 1_555
O28 H55 1_555 1_555
H56 O28 1_555 1_555
O29 C1 1_555 1_555
C1 H57 1_555 1_555
H58 C1 1_555 1_555
H59 C1 1_555 1_555
C2 O29 1_555 1_555
C3 C2 1_555 1_555
C4 C3 1_555 1_555
H60 C4 1_555 1_555
C5 C4 1_555 1_555
C6 C5 1_555 1_555
H61 C6 1_555 1_555
C7 C2 1_555 1_555
P1 C5 1_555 1_555
O30 P1 1_555 1_555
H62 O30 1_555 1_555
O31 P1 1_555 1_555
O32 P1 1_555 1_555
C8 C3 1_555 1_555
H63 C8 1_555 1_555
H64 C8 1_555 1_555
O33 C9 1_555 1_555
C9 H65 1_555 1_555
H66 C9 1_555 1_555
H67 C9 1_555 1_555
C10 O33 1_555 1_555
C11 C10 1_555 1_555
C12 C11 1_555 1_555
H68 C12 1_555 1_555
C13 C12 1_555 1_555
C14 C13 1_555 1_555
H69 C14 1_555 1_555
C15 C8 1_555 1_555
P2 C13 1_555 1_555
O34 P2 1_555 1_555
H70 O34 1_555 1_555
O35 P2 1_555 1_555
O36 Ca3 1_555 1_555
C16 C11 1_555 1_555
H71 C16 1_555 1_555
H72 C16 1_555 1_555
O37 C17 1_555 1_555
C17 H73 1_555 1_555
H74 C17 1_555 1_555
H75 C17 1_555 1_555
C18 O37 1_555 1_555
C19 C18 1_555 1_555
C20 C19 1_555 1_555
H76 C20 1_555 1_555
C21 C20 1_555 1_555
C22 C21 1_555 1_555
H77 C22 1_555 1_555
C23 C16 1_555 1_555
P3 C21 1_555 1_555
O38 Ca1 1_555 1_555
H78 O38 1_555 1_555
O39 Ca1 1_555 1_555
O40 P3 1_555 1_555
C24 C7 1_555 1_555
H79 C24 1_555 1_555
H80 C24 1_555 1_555
O41 C25 1_555 1_555
C25 H81 1_555 1_555
H82 C25 1_555 1_555
H83 C25 1_555 1_555
C26 O41 1_555 1_555
C27 C26 1_555 1_555
C28 C27 1_555 1_555
H84 C28 1_555 1_555
C29 C28 1_555 1_555
C30 C29 1_555 1_555
H85 C30 1_555 1_555
C31 C26 1_555 1_555
P4 C29 1_555 1_555
O42 P4 1_555 1_555
H86 O42 1_555 1_555
O43 P4 1_555 1_555
O44 P4 1_555 1_555
C32 C27 1_555 1_555
H87 C32 1_555 1_555
H88 C32 1_555 1_555
O45 C33 1_555 1_555
C33 H89 1_555 1_555
H90 C33 1_555 1_555
H91 C33 1_555 1_555
C34 O45 1_555 1_555
C35 C34 1_555 1_555
C36 C35 1_555 1_555
H92 C36 1_555 1_555
C37 C36 1_555 1_555
C38 C37 1_555 1_555
H93 C38 1_555 1_555
C39 C32 1_555 1_555
P5 C37 1_555 1_555
O46 P5 1_555 1_555
H94 O46 1_555 1_555
O47 P5 1_555 1_555
O48 P5 1_555 1_555
C40 C35 1_555 1_555
H95 C40 1_555 1_555
H96 C40 1_555 1_555
O49 C41 1_555 1_555
C41 H97 1_555 1_555
H98 C41 1_555 1_555
H99 C41 1_555 1_555
C42 O49 1_555 1_555
C43 C42 1_555 1_555
C44 C43 1_555 1_555
H100 C44 1_555 1_555
C45 C44 1_555 1_555
C46 C45 1_555 1_555
H101 C46 1_555 1_555
C47 C40 1_555 1_555
P6 C45 1_555 1_555
O50 Ca2 1_555 1_555
H102 O50 1_555 1_555
O51 P6 1_555 1_555
O52 Ca2 1_555 1_555
C48 C31 1_555 1_555
H103 C48 1_555 1_555
H104 C48 1_555 1_555
Ca1A O1A 1_555 1_555
Ca1A_2 O40 1_555 1_555
Ca1_2 O40A 1_555 1_555
O1A H1A 1_555 1_555
H2A O1A 1_555 1_555
O2A Ca1A 1_555 1_555
H3A O2A 1_555 1_555
H4A O2A 1_555 1_555
O3A Ca1A 1_555 1_555
H5A O3A 1_555 1_555
H6A O3A 1_555 1_555
O4A Ca1A 1_555 1_555
H7A O4A 1_555 1_555
H8A O4A 1_555 1_555
Ca2A O5A 1_555 1_555
Ca2A_2 O51 1_555 1_555
Ca2_2 O51A 1_555 1_555
O5A H9A 1_555 1_555
H10A O5A 1_555 1_555
O6A Ca2A 1_555 1_555
H11A O6A 1_555 1_555
H12A O6A 1_555 1_555
O7A Ca2A 1_555 1_555
H13A O7A 1_555 1_555
H14A O7A 1_555 1_555
O8A Ca2A 1_555 1_555
H15A O8A 1_555 1_555
H16A O8A 1_555 1_555
Ca3A O9A 1_555 1_555
Ca3A_2 O52A 1_555 1_555
O9A H17A 1_555 1_555
H18A O9A 1_555 1_555
O10A Ca3A 1_555 1_555
H19A O10A 1_555 1_555
H20A O10A 1_555 1_555
O11A Ca3A 1_555 1_555
H21A O11A 1_555 1_555
H22A O11A 1_555 1_555
O12A Ca3A 1_555 1_555
H23A O12A 1_555 1_555
H24A O12A 1_555 1_555
O13A Ca3A 1_555 1_555
H25A O13A 1_555 1_555
H26A O13A 1_555 1_555
O29A C1A 1_555 1_555
C1A H57A 1_555 1_555
H58A C1A 1_555 1_555
H59A C1A 1_555 1_555
C2A O29A 1_555 1_555
C3A C2A 1_555 1_555
C4A C3A 1_555 1_555
H60A C4A 1_555 1_555
C5A C4A 1_555 1_555
C6A C5A 1_555 1_555
H61A C6A 1_555 1_555
C7A C2A 1_555 1_555
P1A C5A 1_555 1_555
O30A P1A 1_555 1_555
H62A O30A 1_555 1_555
O31A P1A 1_555 1_555
O32A P1A 1_555 1_555
C8A C3A 1_555 1_555
H63A C8A 1_555 1_555
H64A C8A 1_555 1_555
O33A C9A 1_555 1_555
C9A H65A 1_555 1_555
H66A C9A 1_555 1_555
H67A C9A 1_555 1_555
C10A O33A 1_555 1_555
C11A C10A 1_555 1_555
C12A C11A 1_555 1_555
H68A C12A 1_555 1_555
C13A C12A 1_555 1_555
C14A C13A 1_555 1_555
H69A C14A 1_555 1_555
C15A C8A 1_555 1_555
P2A C13A 1_555 1_555
O34A P2A 1_555 1_555
H70A O34A 1_555 1_555
O35A P2A 1_555 1_555
O36A Ca3A 1_555 1_555
C16A C11A 1_555 1_555
H71A C16A 1_555 1_555
H72A C16A 1_555 1_555
O37A C17A 1_555 1_555
C17A H73A 1_555 1_555
H74A C17A 1_555 1_555
H75A C17A 1_555 1_555
C18A O37A 1_555 1_555
C19A C24 1_555 1_555
C20A C19A 1_555 1_555
H76A C20A 1_555 1_555
C21A C20A 1_555 1_555
C22A C21A 1_555 1_555
H77A C22A 1_555 1_555
C23A C16A 1_555 1_555
P3A C21A 1_555 1_555
O38A Ca1A 1_555 1_555
H78A O38A 1_555 1_555
O39A Ca1A 1_555 1_555
O40A P3A 1_555 1_555
O40A_2 Ca1 1_555 1_555
O40_2 Ca1A 1_555 1_555
C24A C19 1_555 1_555
H79A C24A 1_555 1_555
H80A C24A 1_555 1_555
O41A C25A 1_555 1_555
C25A H81A 1_555 1_555
H82A C25A 1_555 1_555
H83A C25A 1_555 1_555
C26A O41A 1_555 1_555
C27A C26A 1_555 1_555
C28A C27A 1_555 1_555
H84A C28A 1_555 1_555
C29A C28A 1_555 1_555
C30A C29A 1_555 1_555
H85A C30A 1_555 1_555
C31A C26A 1_555 1_555
P4A C29A 1_555 1_555
O42A P4A 1_555 1_555
H86A O42A 1_555 1_555
O43A P4A 1_555 1_555
O44A P4A 1_555 1_555
C32A C27A 1_555 1_555
H87A C32A 1_555 1_555
H88A C32A 1_555 1_555
O45A C33A 1_555 1_555
C33A H89A 1_555 1_555
H90A C33A 1_555 1_555
H91A C33A 1_555 1_555
C34A O45A 1_555 1_555
C35A C34A 1_555 1_555
C36A C35A 1_555 1_555
H92A C36A 1_555 1_555
C37A C36A 1_555 1_555
C38A C37A 1_555 1_555
H93A C38A 1_555 1_555
C39A C32A 1_555 1_555
P5A C37A 1_555 1_555
O46A P5A 1_555 1_555
H94A O46A 1_555 1_555
O47A P5A 1_555 1_555
O48A P5A 1_555 1_555
C40A C35A 1_555 1_555
H95A C40A 1_555 1_555
H96A C40A 1_555 1_555
O49A C41A 1_555 1_555
C41A H97A 1_555 1_555
H98A C41A 1_555 1_555
H99A C41A 1_555 1_555
C42A O49A 1_555 1_555
C43A C48 1_555 1_555
C44A C43A 1_555 1_555
H100A C44A 1_555 1_555
C45A C44A 1_555 1_555
C46A C45A 1_555 1_555
H101A C46A 1_555 1_555
C47A C40A 1_555 1_555
P6A C45A 1_555 1_555
O50A Ca2A 1_555 1_555
H102A O50A 1_555 1_555
O51A P6A 1_555 1_555
O51A_2 Ca2 1_555 1_555
O51_2 Ca2A 1_555 1_555
O52A Ca2A 1_555 1_555
O52A_2 Ca3A 1_555 1_555
C48A C43 1_555 1_555
H103A C48A 1_555 1_555
H104A C48A 1_555 1_555
Ca3 O52 1_555 1_555
C6 C7 1_555 1_555
C10 C15 1_555 1_555
C14 C15 1_555 1_555
P2 O36 1_555 1_555
C18 C23 1_555 1_555
C22 C23 1_555 1_555
P3 O38 1_555 1_555
P3 O39 1_555 1_555
C30 C31 1_555 1_555
C34 C39 1_555 1_555
C38 C39 1_555 1_555
C42 C47 1_555 1_555
C46 C47 1_555 1_555
P6 O50 1_555 1_555
P6 O52 1_555 1_555
C6A C7A 1_555 1_555
C7A C24A 1_555 1_555
C10A C15A 1_555 1_555
C14A C15A 1_555 1_555
P2A O36A 1_555 1_555
C18A C19A 1_555 1_555
C18A C23A 1_555 1_555
C22A C23A 1_555 1_555
P3A O38A 1_555 1_555
P3A O39A 1_555 1_555
C30A C31A 1_555 1_555
C31A C48A 1_555 1_555
C34A C39A 1_555 1_555
C38A C39A 1_555 1_555
C42A C43A 1_555 1_555
C42A C47A 1_555 1_555
C46A C47A 1_555 1_555
P6A O50A 1_555 1_555
P6A O52A 1_555 1_555

#END
