
#######################################################################
#
#                 Cambridge Crystallographic Data Centre
#                                CCDC 
#
#######################################################################
#
# If this CIF has been generated from an entry in the Cambridge 
# Structural Database, then it will include bibliographic, chemical, 
# crystal, experimental, refinement or atomic coordinate data resulting 
# from the CCDC's data processing and validation procedures.
#
#######################################################################

data_QUTGES
_symmetry_cell_setting           triclinic
_symmetry_space_group_name_H-M   'P -1'
_symmetry_Int_Tables_number      2
_space_group_name_Hall           '-P 1'
loop_
_symmetry_equiv_pos_site_id
_symmetry_equiv_pos_as_xyz
1 x,y,z
2 -x,-y,-z
_cell_length_a                   11.4113(7)
_cell_length_b                   12.9903(9)
_cell_length_c                   15.4684(11)
_cell_angle_alpha                112.047(7)
_cell_angle_beta                 95.814(5)
_cell_angle_gamma                108.467(6)
_cell_volume                     1951.61
loop_
_atom_site_label
_atom_site_type_symbol
_atom_site_fract_x
_atom_site_fract_y
_atom_site_fract_z
Ca1 Ca 0.66179(10) 0.59052(9) 0.46310(8)
Ca2 Ca 1.01197(10) 0.70869(9) 0.50047(8)
O1 O 0.6239(3) 0.7225(3) 0.5975(3)
H1 H 0.6587 0.7989 0.6264
H2 H 0.5591 0.6991 0.6182
O2 O 0.5765(3) 0.4810(3) 0.5675(3)
H3 H 0.5950 0.4190 0.5512
H4 H 0.6015 0.5202 0.6285
O3 O 1.1950(3) 0.8729(3) 0.6095(3)
H5 H 1.2258 0.9382 0.6039
H6 H 1.2541 0.8666 0.6428
O4 O 1.0792(4) 0.8035(3) 0.3999(3)
H7 H 1.0374 0.7589 0.3415
H8 H 1.1583 0.8236 0.4021
O5 O 0.8245(3) 0.5959(3) 0.3655(2)
H9 H 0.8067 0.5206 0.3387
H10 H 0.8276 0.6214 0.3222
O6 O 0.8686(4) 0.8137(3) 0.5337(3)
H11 H 0.8733 0.8476 0.5935
H12 H 0.8590 0.8595 0.5086
O14 O 0.2425(3) 0.7316(3) 0.0359(3)
C1 C 0.1569(5) 0.7910(5) 0.0699(5)
H27 H 0.0955 0.7795 0.0146
H28 H 0.1110 0.7565 0.1090
H29 H 0.2063 0.8772 0.1091
C2 C 0.3349(5) 0.7441(4) 0.1097(4)
C3 C 0.4510(5) 0.8365(4) 0.1414(4)
C4 C 0.5401(5) 0.8485(4) 0.2165(4)
H30 H 0.6204 0.9142 0.2414
C5 C 0.5140(5) 0.7664(4) 0.2558(4)
C6 C 0.3978(5) 0.6695(4) 0.2185(4)
H31 H 0.3809 0.6120 0.2443
C7 C 0.3058(5) 0.6549(4) 0.1445(4)
P1 P 0.62311(16) 0.79371(13) 0.36217(12)
O15 O 0.6150(3) 0.6813(3) 0.3673(3)
O16 O 0.5541(4) 0.8536(4) 0.4482(3)
H32 H 0.4940 0.7983 0.4510
O17 O 0.7424(4) 0.8923(3) 0.3845(3)
C8 C 0.4874(5) 0.9243(4) 0.0977(4)
H33 H 0.4132 0.9441 0.0827
H34 H 0.5571 0.9996 0.1454
C9 C 0.8374(4) 0.8569(4) -0.0697(4)
H35 H 0.8851 0.8893 -0.0019
H36 H 0.8789 0.9139 -0.0958
O18 O 0.7427(3) 0.9423(3) 0.1019(2)
C10 C 0.8208(5) 1.0667(4) 0.1361(4)
H37 H 0.8770 1.0952 0.1996
H38 H 0.8725 1.0774 0.0910
H39 H 0.7665 1.1129 0.1414
C11 C 0.6594(5) 0.8905(4) 0.0113(4)
C12 C 0.6992(5) 0.8475(4) -0.0725(4)
C13 C 0.6116(5) 0.7904(4) -0.1604(4)
H40 H 0.6390 0.7612 -0.2175
C14 C 0.4819(5) 0.7742(4) -0.1676(4)
C15 C 0.4468(5) 0.8165(4) -0.0838(4)
H41 H 0.3595 0.8045 -0.0875
C16 C 0.5307(5) 0.8761(4) 0.0065(4)
P2 P 0.37393(13) 0.70526(11) -0.28563(10)
O19 O 0.3798(3) 0.8033(3) -0.3182(2)
O20 O 0.2408(3) 0.6455(3) -0.2726(2)
O21 O 0.4159(3) 0.6117(3) -0.3529(2)
O22 O 0.7988(3) 0.6818(3) -0.0007(3)
C17 C 0.6690(5) 0.6198(5) -0.0017(4)
H42 H 0.6594 0.6455 0.0644
H43 H 0.6114 0.6387 -0.0392
H44 H 0.6479 0.5328 -0.0312
C18 C 0.8248(5) 0.6521(4) -0.0914(4)
C19 C 0.8370(5) 0.5417(4) -0.1398(4)
C20 C 0.8654(4) 0.5186(4) -0.2287(4)
H45 H 0.8749 0.4450 -0.2627
C21 C 0.8803(4) 0.5982(4) -0.2697(4)
C22 C 0.8694(4) 0.7080(4) -0.2175(4)
H46 H 0.8795 0.7642 -0.2443
C23 C 0.8443(4) 0.7354(4) -0.1276(4)
P3 P 0.91910(13) 0.56061(12) -0.38464(10)
O23 O 0.8412(3) 0.5888(3) -0.4514(2)
O24 O 1.0575(3) 0.6523(3) -0.3675(2)
H47 H 1.1103 0.6403 -0.3345
O25 O 0.9087(3) 0.4326(3) -0.4224(2)
C24 C 0.1788(5) 0.5502(4) 0.1000(4)
H48 H 0.1685 0.5100 0.0296
H49 H 0.1101 0.5811 0.1105
Ca1A Ca 0.33821(10) 0.40948(9) 0.53690(8)
Ca1A_2 Ca 0.33821(10) 0.40948(9) -0.46310(8)
Ca1_2 Ca 0.66179(10) 0.59052(9) -0.53690(8)
Ca2_2 Ca 1.01197(10) 0.70869(9) -0.49953(8)
Ca2A Ca 0.98803(10) 0.29131(9) -0.50047(8)
Ca2A_2 Ca -0.01197(10) 0.29131(9) 0.49953(8)
Ca2_3 Ca 0.01197(10) 0.70869(9) 0.50047(8)
O1A O 0.3761(3) 0.2775(3) 0.4025(3)
H1A H 0.3413 0.2011 0.3736
H2A H 0.4409 0.3009 0.3818
O2A O 0.4235(3) 0.5190(3) 0.4325(3)
H3A H 0.4050 0.5810 0.4488
H4A H 0.3985 0.4798 0.3715
O3_2 O 1.1950(3) 0.8729(3) -0.3905(3)
H5_2 H 1.2258 0.9382 -0.3961
H6_2 H 1.2541 0.8666 -0.3572
O4_2 O 1.0792(4) 0.8035(3) -0.6001(3)
H7_2 H 1.0374 0.7589 -0.6585
H8_2 H 1.1583 0.8236 -0.5979
O5A O 0.1755(3) 0.4041(3) 0.6345(2)
O5_2 O 0.8245(3) 0.5959(3) -0.6345(2)
H9A H 0.1933 0.4794 0.6613
H9_2 H 0.8067 0.5206 -0.6613
H10A H 0.1724 0.3786 0.6778
H10_2 H 0.8276 0.6214 -0.6778
O6A O 0.1314(4) 0.1863(3) 0.4663(3)
O6_2 O 0.8686(4) 0.8137(3) -0.4663(3)
H11A H 0.1267 0.1524 0.4065
H11_2 H 0.8733 0.8476 -0.4065
H12A H 0.1410 0.1405 0.4914
H12_2 H 0.8590 0.8595 -0.4914
O14A O 0.7575(3) 0.2684(3) -0.0359(3)
C1A C 0.8431(5) 0.2090(5) -0.0699(5)
H27A H 0.9045 0.2205 -0.0146
H28A H 0.8890 0.2435 -0.1090
H29A H 0.7937 0.1228 -0.1091
C2A C 0.6651(5) 0.2559(4) -0.1097(4)
C3A C 0.5490(5) 0.1635(4) -0.1414(4)
C4A C 0.4599(5) 0.1515(4) -0.2165(4)
H30A H 0.3796 0.0858 -0.2414
C5A C 0.4860(5) 0.2336(4) -0.2558(4)
C6A C 0.6022(5) 0.3305(4) -0.2185(4)
H31A H 0.6191 0.3880 -0.2443
C7A C 0.6942(5) 0.3451(4) -0.1445(4)
P1A P 0.37689(16) 0.20629(13) -0.36217(12)
O15A O 0.3850(3) 0.3187(3) -0.3673(3)
O15A_2 O 0.3850(3) 0.3187(3) 0.6327(3)
O16A O 0.4459(4) 0.1464(4) -0.4482(3)
H32A H 0.5060 0.2017 -0.4510
O17A O 0.2576(4) 0.1077(3) -0.3845(3)
C8A C 0.5126(5) 0.0757(4) -0.0977(4)
H33A H 0.5868 0.0559 -0.0827
H34A H 0.4429 0.0004 -0.1454
C9A C 0.1626(4) 0.1431(4) 0.0697(4)
H35A H 0.1149 0.1107 0.0019
H36A H 0.1211 0.0861 0.0958
O18A O 0.2573(3) 0.0577(3) -0.1019(2)
C10A C 0.1792(5) -0.0667(4) -0.1361(4)
H37A H 0.1230 -0.0952 -0.1996
H38A H 0.1275 -0.0774 -0.0910
H39A H 0.2335 -0.1129 -0.1414
C11A C 0.3406(5) 0.1095(4) -0.0113(4)
C12A C 0.3008(5) 0.1525(4) 0.0725(4)
C13A C 0.3884(5) 0.2096(4) 0.1604(4)
H40A H 0.3610 0.2388 0.2175
C14A C 0.5181(5) 0.2258(4) 0.1676(4)
C15A C 0.5532(5) 0.1835(4) 0.0838(4)
H41A H 0.6405 0.1955 0.0875
C16A C 0.4693(5) 0.1239(4) -0.0065(4)
P2A P 0.62607(13) 0.29474(11) 0.28563(10)
O19A O 0.6202(3) 0.1967(3) 0.3182(2)
O20A O 0.7592(3) 0.3545(3) 0.2726(2)
O21A O 0.5841(3) 0.3883(3) 0.3529(2)
O21_2 O 0.4159(3) 0.6117(3) 0.6471(2)
O22A O 0.2012(3) 0.3182(3) 0.0007(3)
C17A C 0.3310(5) 0.3802(5) 0.0017(4)
H42A H 0.3406 0.3545 -0.0644
H43A H 0.3886 0.3613 0.0392
H44A H 0.3521 0.4672 0.0312
C18A C 0.1752(5) 0.3479(4) 0.0914(4)
C19A C 0.1630(5) 0.4583(4) 0.1398(4)
C20A C 0.1346(4) 0.4814(4) 0.2287(4)
H45A H 0.1251 0.5550 0.2627
C21A C 0.1197(4) 0.4018(4) 0.2697(4)
C22A C 0.1306(4) 0.2920(4) 0.2175(4)
H46A H 0.1205 0.2358 0.2443
C23A C 0.1557(4) 0.2646(4) 0.1276(4)
P3A P 0.08090(13) 0.43939(12) 0.38464(10)
O23A O 0.1588(3) 0.4112(3) 0.4514(2)
O23_2 O 0.8412(3) 0.5888(3) 0.5486(2)
O24A O -0.0575(3) 0.3477(3) 0.3675(2)
O24_2 O 1.0575(3) 0.6523(3) 0.6325(2)
H47A H -0.1103 0.3597 0.3345
H47_2 H 1.1103 0.6403 0.6655
O25A O 0.0913(3) 0.5674(3) 0.4224(2)
O25A_2 O 1.0913(3) 0.5674(3) 0.4224(2)
O25A_3 O 1.0913(3) 0.5674(3) -0.5776(2)
C24A C 0.8212(5) 0.4498(4) -0.1000(4)
H48A H 0.8315 0.4900 -0.0296
H49A H 0.8899 0.4189 -0.1105
O7 O 0.6425(3) 0.2845(3) 0.5142(3)
H13 H 0.6257 0.2513 0.4531
H14 H 0.7225 0.3244 0.5360
O8 O 0.3592(4) 0.0431(3) 0.2929(3)
H15 H 0.4359 0.0780 0.2927
H16 H 0.3593 0.0083 0.3298
O9 O 0.1069(4) 0.0489(3) 0.2777(3)
H17 H 0.0411 -0.0159 0.2483
H18 H 0.1726 0.0316 0.2749
O10 O 0.3329(4) -0.0803(4) 0.4073(3)
H19 H 0.3439 -0.0240 0.4620
H20 H 0.3916 -0.1068 0.4107
O11 O 0.1319(4) 0.1338(3) 0.7772(3)
H21 H 0.1751 0.1079 0.8056
H22 H 0.1576 0.1331 0.7274
O12 O 0.0421(5) 0.3119(4) 0.7877(3)
H23 H 0.0744 0.2650 0.7967
H24 H 0.1008 0.3816 0.8092
O13 O 0.1852(4) 0.5452(4) 0.8582(3)
H25 H 0.1939 0.5992 0.9135
H26 H 0.1994 0.5781 0.8200
O26 O 0.0000 0.0000 0.5000
loop_
_geom_bond_atom_site_label_1
_geom_bond_atom_site_label_2
_geom_bond_site_symmetry_1
_geom_bond_site_symmetry_2
Ca1 O1 1_555 1_555
Ca2 O3 1_555 1_555
O1 H1 1_555 1_555
H2 O1 1_555 1_555
O2 Ca1 1_555 1_555
H3 O2 1_555 1_555
H4 O2 1_555 1_555
O3 H5 1_555 1_555
H6 O3 1_555 1_555
O4 Ca2 1_555 1_555
H7 O4 1_555 1_555
H8 O4 1_555 1_555
O5 Ca1 1_555 1_555
H9 O5 1_555 1_555
H10 O5 1_555 1_555
O6 Ca1 1_555 1_555
H11 O6 1_555 1_555
H12 O6 1_555 1_555
O7 H13 1_555 1_555
H14 O7 1_555 1_555
O8 H15 1_555 1_555
H16 O8 1_555 1_555
O9 H17 1_555 1_555
H18 O9 1_555 1_555
O10 H19 1_555 1_555
H20 O10 1_555 1_555
O11 H21 1_555 1_555
H22 O11 1_555 1_555
O12 H23 1_555 1_555
H24 O12 1_555 1_555
O13 H25 1_555 1_555
H26 O13 1_555 1_555
O14 C1 1_555 1_555
C1 H27 1_555 1_555
H28 C1 1_555 1_555
H29 C1 1_555 1_555
C2 O14 1_555 1_555
C3 C2 1_555 1_555
C4 C3 1_555 1_555
H30 C4 1_555 1_555
C5 C4 1_555 1_555
C6 C5 1_555 1_555
H31 C6 1_555 1_555
C7 C2 1_555 1_555
P1 C5 1_555 1_555
O15 Ca1 1_555 1_555
O16 P1 1_555 1_555
H32 O16 1_555 1_555
O17 P1 1_555 1_555
C8 C3 1_555 1_555
H33 C8 1_555 1_555
H34 C8 1_555 1_555
C9 H35 1_555 1_555
H36 C9 1_555 1_555
O18 C10 1_555 1_555
C10 H37 1_555 1_555
H38 C10 1_555 1_555
H39 C10 1_555 1_555
C11 O18 1_555 1_555
C12 C9 1_555 1_555
C13 C12 1_555 1_555
H40 C13 1_555 1_555
C14 C13 1_555 1_555
C15 C14 1_555 1_555
H41 C15 1_555 1_555
C16 C8 1_555 1_555
P2 C14 1_555 1_555
O19 P2 1_555 1_555
O20 P2 1_555 1_555
O21 P2 1_555 1_555
O22 C17 1_555 1_555
C17 H42 1_555 1_555
H43 C17 1_555 1_555
H44 C17 1_555 1_555
C18 O22 1_555 1_555
C19 C18 1_555 1_555
C20 C19 1_555 1_555
H45 C20 1_555 1_555
C21 C20 1_555 1_555
C22 C21 1_555 1_555
H46 C22 1_555 1_555
C23 C9 1_555 1_555
P3 C21 1_555 1_555
O23 P3 1_555 1_555
O24 P3 1_555 1_555
H47 O24 1_555 1_555
O25 P3 1_555 1_555
C24 C7 1_555 1_555
H48 C24 1_555 1_555
H49 C24 1_555 1_555
Ca1A O2 1_555 1_555
Ca1A_2 O21 1_555 1_555
Ca1_2 O23 1_555 1_555
Ca2_2 O23 1_555 1_555
Ca2A O25 1_555 1_555
Ca2A_2 O5A 1_555 1_555
Ca2_3 O25A 1_555 1_555
O1A Ca1A 1_555 1_555
H1A O1A 1_555 1_555
H2A O1A 1_555 1_555
O2A Ca1 1_555 1_555
H3A O2A 1_555 1_555
H4A O2A 1_555 1_555
O3_2 Ca2_2 1_555 1_555
H5_2 O3_2 1_555 1_555
H6_2 O3_2 1_555 1_555
O4_2 Ca2_2 1_555 1_555
H7_2 O4_2 1_555 1_555
H8_2 O4_2 1_555 1_555
O5A Ca1A 1_555 1_555
O5_2 Ca1_2 1_555 1_555
H9A O5A 1_555 1_555
H9_2 O5_2 1_555 1_555
H10A O5A 1_555 1_555
H10_2 O5_2 1_555 1_555
O6A Ca1A 1_555 1_555
O6_2 Ca1_2 1_555 1_555
H11A O6A 1_555 1_555
H11_2 O6_2 1_555 1_555
H12A O6A 1_555 1_555
H12_2 O6_2 1_555 1_555
O14A C1A 1_555 1_555
C1A H27A 1_555 1_555
H28A C1A 1_555 1_555
H29A C1A 1_555 1_555
C2A O14A 1_555 1_555
C3A C2A 1_555 1_555
C4A C3A 1_555 1_555
H30A C4A 1_555 1_555
C5A C4A 1_555 1_555
C6A C5A 1_555 1_555
H31A C6A 1_555 1_555
C7A C2A 1_555 1_555
P1A C5A 1_555 1_555
O15A Ca1A_2 1_555 1_555
O15A_2 Ca1A 1_555 1_555
O16A P1A 1_555 1_555
H32A O16A 1_555 1_555
O17A P1A 1_555 1_555
C8A C3A 1_555 1_555
H33A C8A 1_555 1_555
H34A C8A 1_555 1_555
C9A H35A 1_555 1_555
H36A C9A 1_555 1_555
O18A C10A 1_555 1_555
C10A H37A 1_555 1_555
H38A C10A 1_555 1_555
H39A C10A 1_555 1_555
C11A O18A 1_555 1_555
C12A C9A 1_555 1_555
C13A C12A 1_555 1_555
H40A C13A 1_555 1_555
C14A C13A 1_555 1_555
C15A C14A 1_555 1_555
H41A C15A 1_555 1_555
C16A C8A 1_555 1_555
P2A C14A 1_555 1_555
O19A P2A 1_555 1_555
O20A P2A 1_555 1_555
O21A Ca1 1_555 1_555
O21_2 Ca1A 1_555 1_555
O22A C17A 1_555 1_555
C17A H42A 1_555 1_555
H43A C17A 1_555 1_555
H44A C17A 1_555 1_555
C18A O22A 1_555 1_555
C19A C24 1_555 1_555
C20A C19A 1_555 1_555
H45A C20A 1_555 1_555
C21A C20A 1_555 1_555
C22A C21A 1_555 1_555
H46A C22A 1_555 1_555
C23A C9A 1_555 1_555
P3A C21A 1_555 1_555
O23A Ca1A 1_555 1_555
O23_2 Ca1 1_555 1_555
O24A Ca2A_2 1_555 1_555
O24_2 Ca2 1_555 1_555
H47A O24A 1_555 1_555
H47_2 O24_2 1_555 1_555
O25A P3A 1_555 1_555
O25A_2 Ca2 1_555 1_555
O25A_3 Ca2_2 1_555 1_555
C24A C19 1_555 1_555
H48A C24A 1_555 1_555
H49A C24A 1_555 1_555
Ca2 O5 1_555 1_555
Ca2 O6 1_555 1_555
Ca2 O23_2 1_555 1_555
C6 C7 1_555 1_555
P1 O15 1_555 1_555
C11 C12 1_555 1_555
C11 C16 1_555 1_555
C15 C16 1_555 1_555
C18 C23 1_555 1_555
C22 C23 1_555 1_555
O24 Ca2_2 1_555 1_555
Ca1A O2A 1_555 1_555
Ca2_2 O5_2 1_555 1_555
Ca2_2 O6_2 1_555 1_555
Ca2A_2 O6A 1_555 1_555
Ca2A_2 O23A 1_555 1_555
C6A C7A 1_555 1_555
C7A C24A 1_555 1_555
P1A O15A 1_555 1_555
C11A C12A 1_555 1_555
C11A C16A 1_555 1_555
C15A C16A 1_555 1_555
P2A O21A 1_555 1_555
C18A C19A 1_555 1_555
C18A C23A 1_555 1_555
C22A C23A 1_555 1_555
P3A O23A 1_555 1_555
P3A O24A 1_555 1_555

#END
