
#######################################################################
#
#                 Cambridge Crystallographic Data Centre
#                                CCDC 
#
#######################################################################
#
# If this CIF has been generated from an entry in the Cambridge 
# Structural Database, then it will include bibliographic, chemical, 
# crystal, experimental, refinement or atomic coordinate data resulting 
# from the CCDC's data processing and validation procedures.
#
#######################################################################

data_QUTHOD
_symmetry_cell_setting           monoclinic
_symmetry_space_group_name_H-M   'P 2/c'
_symmetry_Int_Tables_number      13
_space_group_name_Hall           '-P 2yc'
loop_
_symmetry_equiv_pos_site_id
_symmetry_equiv_pos_as_xyz
1 x,y,z
2 -x,y,1/2-z
3 -x,-y,-z
4 x,-y,1/2+z
_cell_length_a                   8.1653(8)
_cell_length_b                   7.7354(5)
_cell_length_c                   15.2305(11)
_cell_angle_alpha                90
_cell_angle_beta                 109.283(5)
_cell_angle_gamma                90
_cell_volume                     908.018
loop_
_atom_site_label
_atom_site_type_symbol
_atom_site_fract_x
_atom_site_fract_y
_atom_site_fract_z
Co1 Co 0.0000 0.58657(5) 0.2500
O1 O 0.2129(2) 0.7138(2) 0.31444(11)
O2 O 0.1794(3) 0.8835(3) 0.19462(12)
N1 N 0.0328(2) 0.4263(2) 0.36029(12)
N2 N 0.0073(3) 0.2247(2) 0.45667(12)
C1 C 0.2590(3) 0.8375(3) 0.27350(14)
C2 C 0.4714(3) 1.0866(3) 0.28876(17)
C3 C 0.4306(3) 0.9222(3) 0.32977(17)
H1 H 0.4280 0.9472 0.3930
H2 H 0.5257 0.8387 0.3361
C4 C -0.0627(3) 0.0762(3) 0.49290(17)
H3 H -0.1774 0.0437 0.4484
H4 H -0.0780 0.1072 0.5528
C5 C -0.0557(3) 0.2890(3) 0.37005(15)
H5 H -0.1515 0.2418 0.3220
C6 C 0.1577(3) 0.4497(3) 0.44613(15)
H6 H 0.2407 0.5406 0.4613
C7 C 0.4474(3) 1.2437(4) 0.3272(3)
H7 H 0.4119 1.2446 0.3807
C8 C 0.4746(4) 1.3986(4) 0.2887(4)
H8 H 0.4582 1.5050 0.3158
C9 C 0.1451(3) 0.3256(3) 0.50505(16)
H9 H 0.2174 0.3107 0.5678
Co1_2 Co 1.0000 0.58657(5) 0.2500
Co1B Co 0.0000 -0.58657(5) 0.7500
O1A O 0.7871(2) 0.7138(2) 0.18556(11)
O1A_2 O -0.2129(2) 0.7138(2) 0.18556(11)
O2A O 0.8206(3) 0.8835(3) 0.30538(12)
N1B N -0.0328(2) -0.4263(2) 0.63971(12)
N1A N -0.0328(2) 0.4263(2) 0.13971(12)
N2B N -0.0073(3) -0.2247(2) 0.54333(12)
C1A C 0.7410(3) 0.8375(3) 0.22650(14)
C2A C 0.5286(3) 1.0866(3) 0.21124(17)
C3A C 0.5694(3) 0.9222(3) 0.17023(17)
H1A H 0.5720 0.9472 0.1070
H2A H 0.4743 0.8387 0.1639
C4B C 0.0627(3) -0.0762(3) 0.50710(17)
H3B H 0.1774 -0.0437 0.5516
H4B H 0.0780 -0.1072 0.4472
C5B C 0.0557(3) -0.2890(3) 0.62995(15)
H5B H 0.1515 -0.2418 0.6780
C6B C -0.1577(3) -0.4497(3) 0.55387(15)
H6B H -0.2407 -0.5406 0.5387
C7A C 0.5526(3) 1.2437(4) 0.1728(3)
H7A H 0.5881 1.2446 0.1193
C8A C 0.5254(4) 1.3986(4) 0.2113(4)
H8A H 0.5418 1.5050 0.1842
C9B C -0.1451(3) -0.3256(3) 0.49495(16)
H9B H -0.2174 -0.3107 0.4322
loop_
_geom_bond_atom_site_label_1
_geom_bond_atom_site_label_2
_geom_bond_site_symmetry_1
_geom_bond_site_symmetry_2
Co1 O1 1_555 1_555
O1 C1 1_555 1_555
O2 C1 1_555 1_555
N1 Co1 1_555 1_555
N2 C4 1_555 1_555
C1 C3 1_555 1_555
C2 C3 1_555 1_555
C3 H1 1_555 1_555
H2 C3 1_555 1_555
C4 H3 1_555 1_555
H4 C4 1_555 1_555
C5 N1 1_555 1_555
H5 C5 1_555 1_555
C6 N1 1_555 1_555
H6 C6 1_555 1_555
C7 C2 1_555 1_555
H7 C7 1_555 1_555
C8 C7 1_555 1_555
H8 C8 1_555 1_555
C9 N2 1_555 1_555
H9 C9 1_555 1_555
Co1_2 O1A 1_555 1_555
Co1B N1B 1_555 1_555
O1A C1A 1_555 1_555
O1A_2 Co1 1_555 1_555
O2A C1A 1_555 1_555
N1B C5B 1_555 1_555
N1A Co1 1_555 1_555
N2B C4B 1_555 1_555
C1A C3A 1_555 1_555
C2A C2 1_555 1_555
C3A C2A 1_555 1_555
H1A C3A 1_555 1_555
H2A C3A 1_555 1_555
C4B C4 1_555 1_555
H3B C4B 1_555 1_555
H4B C4B 1_555 1_555
C5B N2B 1_555 1_555
H5B C5B 1_555 1_555
C6B N1B 1_555 1_555
H6B C6B 1_555 1_555
C7A C2A 1_555 1_555
H7A C7A 1_555 1_555
C8A C8 1_555 1_555
H8A C8A 1_555 1_555
C9B N2B 1_555 1_555
H9B C9B 1_555 1_555
N2 C5 1_555 1_555
C6 C9 1_555 1_555
C6B C9B 1_555 1_555
C7A C8A 1_555 1_555

#END
