
#######################################################################
#
#                 Cambridge Crystallographic Data Centre
#                                CCDC 
#
#######################################################################
#
# If this CIF has been generated from an entry in the Cambridge 
# Structural Database, then it will include bibliographic, chemical, 
# crystal, experimental, refinement or atomic coordinate data resulting 
# from the CCDC's data processing and validation procedures.
#
#######################################################################

data_QUTHUJ
_symmetry_cell_setting           orthorhombic
_symmetry_space_group_name_H-M   'P c c n'
_symmetry_Int_Tables_number      56
_space_group_name_Hall           '-P 2ab 2ac'
loop_
_symmetry_equiv_pos_site_id
_symmetry_equiv_pos_as_xyz
1 x,y,z
2 1/2-x,1/2-y,z
3 1/2+x,-y,1/2-z
4 -x,1/2+y,1/2-z
5 -x,-y,-z
6 1/2+x,1/2+y,-z
7 1/2-x,y,1/2+z
8 x,1/2-y,1/2+z
_cell_length_a                   17.640(6)
_cell_length_b                   7.753(3)
_cell_length_c                   13.367(5)
_cell_angle_alpha                90
_cell_angle_beta                 90
_cell_angle_gamma                90
_cell_volume                     1828.11
loop_
_atom_site_label
_atom_site_type_symbol
_atom_site_fract_x
_atom_site_fract_y
_atom_site_fract_z
Co1 Co 0.7500 0.2500 0.71668(3)
O1 O 0.67218(8) 0.3736(2) 0.84591(11)
N1 N 0.70835(10) 0.4363(2) 0.62087(12)
O2 O 0.65351(9) 0.12994(19) 0.76654(11)
N2 N 0.69623(11) 0.6180(2) 0.49535(13)
C1 C 0.72997(13) 0.4731(3) 0.52896(14)
H1 H 0.7648 0.4061 0.4912
C2 C 0.53030(12) 0.3602(3) 0.94578(17)
C3 C 0.65892(13) 0.5660(3) 0.64797(18)
H2 H 0.6338 0.5748 0.7107
C4 C 0.53771(13) 0.3693(3) 1.04845(18)
H3 H 0.5636 0.2800 1.0831
C5 C 0.49219(14) 0.4931(3) 0.89834(16)
H4 H 0.4864 0.4900 0.8277
C6 C 0.65178(14) 0.6781(3) 0.5715(2)
H5 H 0.6216 0.7796 0.5706
C7 C 0.63333(11) 0.2425(3) 0.83005(14)
C8 C 0.71120(16) 0.7100(3) 0.40163(15)
H6 H 0.6726 0.8013 0.3923
H7 H 0.7070 0.6285 0.3449
C9 C 0.56070(14) 0.2089(3) 0.8876(2)
H8 H 0.5213 0.1709 0.8397
H9 H 0.5698 0.1126 0.9348
Co1D Co 0.2500 0.7500 1.28332(3)
Co1_2 Co 0.7500 1.2500 0.71668(3)
O1D O 0.32782(8) 0.6264(2) 1.15409(11)
O1A O 0.82782(8) 0.1264(2) 0.84591(11)
N1A N 0.79165(10) 1.0637(2) 0.62087(12)
N1A_2 N 0.79165(10) 0.0637(2) 0.62087(12)
O2D O 0.34649(9) 0.87006(19) 1.23346(11)
O2A O 0.84649(9) 0.37006(19) 0.76654(11)
N2A N 0.80377(11) 0.8820(2) 0.49535(13)
C1A C 0.77003(13) 1.0269(3) 0.52896(14)
H1A H 0.7352 1.0939 0.4912
C2D C 0.46970(12) 0.6398(3) 1.05422(17)
C3A C 0.84108(13) 0.9340(3) 0.64797(18)
H2A H 0.8662 0.9252 0.7107
C4D C 0.46229(13) 0.6307(3) 0.95155(18)
H3D H 0.4364 0.7200 0.9169
C5D C 0.50781(14) 0.5069(3) 1.10166(16)
H4D H 0.5136 0.5100 1.1723
C6A C 0.84822(14) 0.8219(3) 0.5715(2)
H5A H 0.8784 0.7204 0.5706
C7D C 0.36667(11) 0.7575(3) 1.16995(14)
C8A C 0.78880(16) 0.7900(3) 0.40163(15)
H6A H 0.8274 0.6987 0.3923
H7A H 0.7930 0.8715 0.3449
C9D C 0.43930(14) 0.7911(3) 1.1124(2)
H8D H 0.4787 0.8291 1.1603
H9D H 0.4302 0.8874 1.0652
loop_
_geom_bond_atom_site_label_1
_geom_bond_atom_site_label_2
_geom_bond_site_symmetry_1
_geom_bond_site_symmetry_2
Co1 O1 1_555 1_555
O1 C7 1_555 1_555
N1 Co1 1_555 1_555
O2 Co1 1_555 1_555
N2 C1 1_555 1_555
C1 N1 1_555 1_555
H1 C1 1_555 1_555
C2 C4 1_555 1_555
C3 N1 1_555 1_555
H2 C3 1_555 1_555
C4 H3 1_555 1_555
C5 C2 1_555 1_555
H4 C5 1_555 1_555
C6 N2 1_555 1_555
H5 C6 1_555 1_555
C7 O2 1_555 1_555
C8 N2 1_555 1_555
H6 C8 1_555 1_555
H7 C8 1_555 1_555
C9 C2 1_555 1_555
H8 C9 1_555 1_555
H9 C9 1_555 1_555
Co1D O1D 1_555 1_555
Co1_2 N1A 1_555 1_555
O1D C7D 1_555 1_555
O1A Co1 1_555 1_555
N1A C1A 1_555 1_555
N1A_2 Co1 1_555 1_555
O2D Co1D 1_555 1_555
O2A Co1 1_555 1_555
N2A C1A 1_555 1_555
C1A H1A 1_555 1_555
C2D C4D 1_555 1_555
C3A N1A 1_555 1_555
H2A C3A 1_555 1_555
C4D C5 1_555 1_555
H3D C4D 1_555 1_555
C5D C4 1_555 1_555
H4D C5D 1_555 1_555
C6A N2A 1_555 1_555
H5A C6A 1_555 1_555
C7D O2D 1_555 1_555
C8A C8 1_555 1_555
H6A C8A 1_555 1_555
H7A C8A 1_555 1_555
C9D C2D 1_555 1_555
H8D C9D 1_555 1_555
H9D C9D 1_555 1_555
C3 C6 1_555 1_555
C7 C9 1_555 1_555
N2A C8A 1_555 1_555
C2D C5D 1_555 1_555
C3A C6A 1_555 1_555
C7D C9D 1_555 1_555

#END
