
#######################################################################
#
#                 Cambridge Crystallographic Data Centre
#                                CCDC 
#
#######################################################################
#
# If this CIF has been generated from an entry in the Cambridge 
# Structural Database, then it will include bibliographic, chemical, 
# crystal, experimental, refinement or atomic coordinate data resulting 
# from the CCDC's data processing and validation procedures.
#
#######################################################################

data_QUTHET
_symmetry_cell_setting           triclinic
_symmetry_space_group_name_H-M   'P -1'
_symmetry_Int_Tables_number      2
_space_group_name_Hall           '-P 1'
loop_
_symmetry_equiv_pos_site_id
_symmetry_equiv_pos_as_xyz
1 x,y,z
2 -x,-y,-z
_cell_length_a                   7.0145(6)
_cell_length_b                   9.6647(10)
_cell_length_c                   13.6322(13)
_cell_angle_alpha                86.145(13)
_cell_angle_beta                 85.514(10)
_cell_angle_gamma                85.699(12)
_cell_volume                     916.99
loop_
_atom_site_label
_atom_site_type_symbol
_atom_site_fract_x
_atom_site_fract_y
_atom_site_fract_z
Cd1 Cd 0.34982(4) 0.75006(3) 0.258155(19)
O1 O 0.1881(6) 0.5237(3) 0.2680(2)
O2 O 0.1768(6) 0.6709(4) 0.1419(3)
O3 O 0.1179(6) -0.1619(4) 0.3756(3)
O4 O 0.1906(6) -0.0239(4) 0.2510(3)
N1 N 0.7605(5) 0.5693(4) 0.4625(3)
N2 N 0.5491(5) 0.6925(4) 0.3777(2)
N3 N 0.5768(5) 0.7938(4) 0.1329(2)
N4 N 0.8175(6) 0.8775(5) 0.0421(3)
C1 C 0.6889(7) 0.8485(5) -0.0222(3)
H1 H 0.6984 0.8643 -0.0919
C2 C 0.1387(6) 0.5582(4) 0.1853(3)
C3 C 0.0958(6) -0.0494(4) 0.3287(3)
C4 C -0.1003(6) 0.3648(4) 0.1846(3)
C5 C -0.1384(6) 0.1643(4) 0.2993(3)
C6 C 0.6457(7) 0.6478(5) 0.5287(3)
H2 H 0.6571 0.6500 0.5976
C7 C 0.5447(6) 0.7921(4) 0.0350(3)
H3 H 0.4362 0.7564 0.0107
C8 C 0.9187(7) 0.4610(4) 0.4873(4)
H4 H 0.8757 0.3983 0.5438
H5 H 0.9574 0.4046 0.4301
C9 C 0.5149(6) 0.7203(5) 0.4747(3)
H6 H 0.4138 0.7817 0.5003
C10 C 0.6974(6) 0.6015(5) 0.3739(3)
H7 H 0.7529 0.5633 0.3150
C11 C -0.0261(6) 0.2621(4) 0.2508(3)
H8 H 0.1058 0.2595 0.2628
C12 C -0.3320(7) 0.1690(5) 0.2815(4)
H9 H -0.4118 0.1023 0.3141
C13 C 0.7395(7) 0.8470(6) 0.1339(3)
H10 H 0.7977 0.8628 0.1924
C14 C -0.2934(7) 0.3665(5) 0.1690(4)
H11 H -0.3476 0.4357 0.1246
C15 C -0.0560(7) 0.0558(4) 0.3718(3)
H12 H -0.1625 0.0043 0.4048
H13 H 0.0011 0.1037 0.4231
C16 C -0.4077(8) 0.2701(6) 0.2167(4)
H14 H -0.5397 0.2731 0.2049
C17 C 0.0212(8) 0.4671(4) 0.1289(3)
H15 H -0.0632 0.5299 0.0882
H16 H 0.1118 0.4153 0.0829
C18 C 1.0196(8) 0.9294(5) 0.0103(5)
H17 H 1.1067 0.9120 0.0642
H18 H 1.0778 0.8837 -0.0488
Cd1_2 Cd 0.34982(4) 1.75006(3) 0.258155(19)
Cd1_3 Cd 0.34982(4) -0.24994(3) 0.258155(19)
Cd1A Cd 1.65018(4) 0.24994(3) 0.741845(19)
Cd1A_2 Cd 1.65018(4) 1.24994(3) -0.258155(19)
O1_2 O 0.1881(6) 1.5237(3) 0.2680(2)
O2_2 O 0.1768(6) 1.6709(4) 0.1419(3)
O3_2 O 0.1179(6) 0.8381(4) 0.3756(3)
O3_3 O 0.1179(6) 1.8381(4) 0.3756(3)
O4_2 O 0.1906(6) 0.9761(4) 0.2510(3)
O4_3 O 0.1906(6) 1.9761(4) 0.2510(3)
N1A N 1.2395(5) 0.4307(4) 0.5375(3)
N2A N 1.4509(5) 0.3075(4) 0.6223(2)
N2_2 N 0.5491(5) 1.6925(4) 0.3777(2)
N3A N 1.4232(5) 1.2062(4) -0.1329(2)
N3_2 N 0.5768(5) 1.7938(4) 0.1329(2)
N4A N 1.1825(6) 1.1225(5) -0.0421(3)
C1A C 1.3111(7) 1.1515(5) 0.0222(3)
H1A H 1.3016 1.1357 0.0919
C2_2 C 0.1387(6) 1.5582(4) 0.1853(3)
C3_2 C 0.0958(6) 0.9506(4) 0.3287(3)
C4_2 C -0.1003(6) 1.3648(4) 0.1846(3)
C5_2 C -0.1384(6) 1.1643(4) 0.2993(3)
C6A C 1.3543(7) 0.3522(5) 0.4713(3)
H2A H 1.3429 0.3500 0.4024
C7A C 1.4553(6) 1.2079(4) -0.0350(3)
H3A H 1.5638 1.2436 -0.0107
C8A C 1.0813(7) 0.5390(4) 0.5127(4)
H4A H 1.1243 0.6017 0.4562
H5A H 1.0426 0.5954 0.5699
C9A C 1.4851(6) 0.2797(5) 0.5253(3)
H6A H 1.5862 0.2183 0.4997
C10A C 1.3026(6) 0.3985(5) 0.6261(3)
H7A H 1.2471 0.4367 0.6850
C11_2 C -0.0261(6) 1.2621(4) 0.2508(3)
H8_2 H 0.1058 1.2595 0.2628
C12_2 C -0.3320(7) 1.1690(5) 0.2815(4)
H9_2 H -0.4118 1.1023 0.3141
C13A C 1.2605(7) 1.1530(6) -0.1339(3)
H10A H 1.2023 1.1372 -0.1924
C14_2 C -0.2934(7) 1.3665(5) 0.1690(4)
H11_2 H -0.3476 1.4357 0.1246
C15_2 C -0.0560(7) 1.0558(4) 0.3718(3)
H12_2 H -0.1625 1.0043 0.4048
H13_2 H 0.0011 1.1037 0.4231
C16_2 C -0.4077(8) 1.2701(6) 0.2167(4)
H14_2 H -0.5397 1.2731 0.2049
C17_2 C 0.0212(8) 1.4671(4) 0.1289(3)
H15_2 H -0.0632 1.5299 0.0882
H16_2 H 0.1118 1.4153 0.0829
C18A C 0.9804(8) 1.0706(5) -0.0103(5)
H17A H 0.8933 1.0880 -0.0642
H18A H 0.9222 1.1163 0.0488
loop_
_geom_bond_atom_site_label_1
_geom_bond_atom_site_label_2
_geom_bond_site_symmetry_1
_geom_bond_site_symmetry_2
Cd1 O1 1_555 1_555
O1 C2 1_555 1_555
O2 Cd1 1_555 1_555
O3 C3 1_555 1_555
O4 C3 1_555 1_555
N1 C6 1_555 1_555
N2 Cd1 1_555 1_555
N3 Cd1 1_555 1_555
N4 C1 1_555 1_555
C1 H1 1_555 1_555
C2 O2 1_555 1_555
C3 C15 1_555 1_555
C4 C11 1_555 1_555
C5 C11 1_555 1_555
C6 H2 1_555 1_555
C7 N3 1_555 1_555
H3 C7 1_555 1_555
C8 N1 1_555 1_555
H4 C8 1_555 1_555
H5 C8 1_555 1_555
C9 N2 1_555 1_555
H6 C9 1_555 1_555
C10 N1 1_555 1_555
H7 C10 1_555 1_555
C11 H8 1_555 1_555
C12 C5 1_555 1_555
H9 C12 1_555 1_555
C13 N3 1_555 1_555
H10 C13 1_555 1_555
C14 C4 1_555 1_555
H11 C14 1_555 1_555
C15 C5 1_555 1_555
H12 C15 1_555 1_555
H13 C15 1_555 1_555
C16 C12 1_555 1_555
H14 C16 1_555 1_555
C17 C2 1_555 1_555
H15 C17 1_555 1_555
H16 C17 1_555 1_555
C18 N4 1_555 1_555
H17 C18 1_555 1_555
H18 C18 1_555 1_555
Cd1_2 O1_2 1_555 1_555
Cd1_3 O3 1_555 1_555
Cd1A N2A 1_555 1_555
Cd1A_2 N3A 1_555 1_555
O1_2 C2_2 1_555 1_555
O2_2 Cd1_2 1_555 1_555
O3_2 Cd1 1_555 1_555
O3_3 Cd1_2 1_555 1_555
O4_2 Cd1 1_555 1_555
O4_3 Cd1_2 1_555 1_555
N1A C6A 1_555 1_555
N2A C9A 1_555 1_555
N2_2 Cd1_2 1_555 1_555
N3A C7A 1_555 1_555
N3_2 Cd1_2 1_555 1_555
N4A C1A 1_555 1_555
C1A H1A 1_555 1_555
C2_2 O2_2 1_555 1_555
C3_2 O3_2 1_555 1_555
C4_2 C11_2 1_555 1_555
C5_2 C11_2 1_555 1_555
C6A H2A 1_555 1_555
C7A C1A 1_555 1_555
H3A C7A 1_555 1_555
C8A C8 1_555 1_555
H4A C8A 1_555 1_555
H5A C8A 1_555 1_555
C9A C6A 1_555 1_555
H6A C9A 1_555 1_555
C10A N1A 1_555 1_555
H7A C10A 1_555 1_555
C11_2 H8_2 1_555 1_555
C12_2 C5_2 1_555 1_555
H9_2 C12_2 1_555 1_555
C13A N3A 1_555 1_555
H10A C13A 1_555 1_555
C14_2 C4_2 1_555 1_555
H11_2 C14_2 1_555 1_555
C15_2 C3_2 1_555 1_555
H12_2 C15_2 1_555 1_555
H13_2 C15_2 1_555 1_555
C16_2 C12_2 1_555 1_555
H14_2 C16_2 1_555 1_555
C17_2 C2_2 1_555 1_555
H15_2 C17_2 1_555 1_555
H16_2 C17_2 1_555 1_555
C18A C18 1_555 1_555
H17A C18A 1_555 1_555
H18A C18A 1_555 1_555
O4 Cd1_3 1_555 1_555
N2 C10 1_555 1_555
N4 C13 1_555 1_555
C1 C7 1_555 1_555
C4 C17 1_555 1_555
C6 C9 1_555 1_555
C14 C16 1_555 1_555
O4_2 C3_2 1_555 1_555
N1A C8A 1_555 1_555
N2A C10A 1_555 1_555
N4A C13A 1_555 1_555
N4A C18A 1_555 1_555
C4_2 C17_2 1_555 1_555
C5_2 C15_2 1_555 1_555
C14_2 C16_2 1_555 1_555

#END
