
#######################################################################
#
#                 Cambridge Crystallographic Data Centre
#                                CCDC 
#
#######################################################################
#
# If this CIF has been generated from an entry in the Cambridge 
# Structural Database, then it will include bibliographic, chemical, 
# crystal, experimental, refinement or atomic coordinate data resulting 
# from the CCDC's data processing and validation procedures.
#
#######################################################################

data_QUTHIX
_symmetry_cell_setting           orthorhombic
_symmetry_space_group_name_H-M   'P c c n'
_symmetry_Int_Tables_number      56
_space_group_name_Hall           '-P 2ab 2ac'
loop_
_symmetry_equiv_pos_site_id
_symmetry_equiv_pos_as_xyz
1 x,y,z
2 1/2-x,1/2-y,z
3 1/2+x,-y,1/2-z
4 -x,1/2+y,1/2-z
5 -x,-y,-z
6 1/2+x,1/2+y,-z
7 1/2-x,y,1/2+z
8 x,1/2-y,1/2+z
_cell_length_a                   17.8998(17)
_cell_length_b                   7.8956(6)
_cell_length_c                   13.3048(14)
_cell_angle_alpha                90
_cell_angle_beta                 90
_cell_angle_gamma                90
_cell_volume                     1880.36
loop_
_atom_site_label
_atom_site_type_symbol
_atom_site_fract_x
_atom_site_fract_y
_atom_site_fract_z
Cd1 Cd 0.2500 0.2500 0.20792(2)
O1 O 0.33535(14) 0.3689(3) 0.33654(19)
O2 O 0.35457(14) 0.1207(3) 0.26792(19)
N1 N 0.30496(19) 0.6248(4) -0.0247(2)
N2 N 0.29381(17) 0.4474(4) 0.1012(2)
C1 C 0.3497(2) 0.6819(6) 0.0507(3)
H1 H 0.3800 0.7807 0.0494
C2 C 0.37304(19) 0.2386(5) 0.3269(3)
C3 C 0.2716(2) 0.4838(5) 0.0096(3)
H2 H 0.2365 0.4188 -0.0276
C4 C 0.2890(3) 0.7153(5) -0.1185(3)
H3 H 0.2953 0.6371 -0.1761
H4 H 0.3251 0.8094 -0.1267
C5 C 0.3430(2) 0.5725(5) 0.1272(3)
H5 H 0.3684 0.5805 0.1897
C6 C 0.4436(2) 0.2114(5) 0.3875(4)
H6 H 0.4346 0.1178 0.4355
H7 H 0.4836 0.1741 0.3411
C7 C 0.4718(2) 0.3622(5) 0.4456(3)
C8 C 0.4619(2) 0.3742(6) 0.5479(3)
H8 H 0.4355 0.2874 0.5823
C9 C 0.5103(2) 0.4897(5) 0.3983(3)
H9 H 0.5180 0.4844 0.3278
Cd1D Cd 0.7500 0.7500 0.79208(2)
Cd1_2 Cd 0.2500 1.2500 0.20792(2)
O1D O 0.66465(14) 0.6311(3) 0.66346(19)
O1A O 0.16465(14) 0.1311(3) 0.33654(19)
O2D O 0.64543(14) 0.8793(3) 0.73208(19)
O2A O 0.14543(14) 0.3793(3) 0.26792(19)
N1A N 0.19504(19) 0.8752(4) -0.0247(2)
N2A N 0.20619(17) 1.0526(4) 0.1012(2)
N2A_2 N 0.20619(17) 0.0526(4) 0.1012(2)
C1A C 0.1503(2) 0.8181(6) 0.0507(3)
H1A H 0.1200 0.7193 0.0494
C2D C 0.62696(19) 0.7614(5) 0.6731(3)
C3A C 0.2284(2) 1.0162(5) 0.0096(3)
H2A H 0.2635 1.0812 -0.0276
C4A C 0.2110(3) 0.7847(5) -0.1185(3)
H3A H 0.2047 0.8629 -0.1761
H4A H 0.1749 0.6906 -0.1267
C5A C 0.1570(2) 0.9275(5) 0.1272(3)
H5A H 0.1316 0.9195 0.1897
C6D C 0.5564(2) 0.7886(5) 0.6125(4)
H6D H 0.5654 0.8822 0.5645
H7D H 0.5164 0.8259 0.6589
C7D C 0.5282(2) 0.6378(5) 0.5544(3)
C8D C 0.5381(2) 0.6258(6) 0.4521(3)
H8D H 0.5645 0.7126 0.4177
C9D C 0.4897(2) 0.5103(5) 0.6017(3)
H9D H 0.4820 0.5156 0.6722
loop_
_geom_bond_atom_site_label_1
_geom_bond_atom_site_label_2
_geom_bond_site_symmetry_1
_geom_bond_site_symmetry_2
Cd1 O1 1_555 1_555
O1 C2 1_555 1_555
O2 Cd1 1_555 1_555
N1 C1 1_555 1_555
N2 Cd1 1_555 1_555
C1 H1 1_555 1_555
C2 O2 1_555 1_555
C3 N1 1_555 1_555
H2 C3 1_555 1_555
C4 N1 1_555 1_555
H3 C4 1_555 1_555
H4 C4 1_555 1_555
C5 N2 1_555 1_555
H5 C5 1_555 1_555
C6 C2 1_555 1_555
H6 C6 1_555 1_555
H7 C6 1_555 1_555
C7 C6 1_555 1_555
C8 C7 1_555 1_555
H8 C8 1_555 1_555
C9 C7 1_555 1_555
H9 C9 1_555 1_555
Cd1D O1D 1_555 1_555
Cd1_2 N2A 1_555 1_555
O1D C2D 1_555 1_555
O1A Cd1 1_555 1_555
O2D Cd1D 1_555 1_555
O2A Cd1 1_555 1_555
N1A C1A 1_555 1_555
N2A C3A 1_555 1_555
N2A_2 Cd1 1_555 1_555
C1A H1A 1_555 1_555
C2D O2D 1_555 1_555
C3A N1A 1_555 1_555
H2A C3A 1_555 1_555
C4A C4 1_555 1_555
H3A C4A 1_555 1_555
H4A C4A 1_555 1_555
C5A N2A 1_555 1_555
H5A C5A 1_555 1_555
C6D C2D 1_555 1_555
H6D C6D 1_555 1_555
H7D C6D 1_555 1_555
C7D C6D 1_555 1_555
C8D C9 1_555 1_555
H8D C8D 1_555 1_555
C9D C8 1_555 1_555
H9D C9D 1_555 1_555
N2 C3 1_555 1_555
C1 C5 1_555 1_555
N1A C4A 1_555 1_555
C1A C5A 1_555 1_555
C7D C8D 1_555 1_555
C7D C9D 1_555 1_555

#END
