
#######################################################################
#
#                 Cambridge Crystallographic Data Centre
#                                CCDC 
#
#######################################################################
#
# If this CIF has been generated from an entry in the Cambridge 
# Structural Database, then it will include bibliographic, chemical, 
# crystal, experimental, refinement or atomic coordinate data resulting 
# from the CCDC's data processing and validation procedures.
#
#######################################################################

data_QUTKUM
_symmetry_cell_setting           monoclinic
_symmetry_space_group_name_H-M   'P 21/c'
_symmetry_Int_Tables_number      14
_space_group_name_Hall           '-P 2ybc'
loop_
_symmetry_equiv_pos_site_id
_symmetry_equiv_pos_as_xyz
1 x,y,z
2 -x,1/2+y,1/2-z
3 -x,-y,-z
4 x,1/2-y,1/2+z
_cell_length_a                   9.224(2)
_cell_length_b                   16.039(4)
_cell_length_c                   21.134(5)
_cell_angle_alpha                90
_cell_angle_beta                 99.256(4)
_cell_angle_gamma                90
_cell_volume                     3085.93
loop_
_atom_site_label
_atom_site_type_symbol
_atom_site_fract_x
_atom_site_fract_y
_atom_site_fract_z
Cu1 Cu 1.04717(9) 0.85401(5) 0.14270(4)
O1 O 0.8337(5) 0.8231(3) 0.1189(2)
O3 O 0.8807(5) 0.7957(3) 0.2227(2)
O5 O 0.3326(6) 0.9611(4) 0.1330(3)
O7 O 0.2350(5) 0.8729(3) 0.1964(2)
O9 O 1.0851(7) 0.8822(4) 0.0397(3)
H5 H 1.030(7) 0.879(5) 0.0013(19)
H6 H 1.166(5) 0.852(4) 0.038(3)
N1 N 1.1074(6) 0.7350(4) 0.1284(3)
N2 N 1.1105(6) 0.4268(3) 0.0957(3)
N3 N 0.9818(6) 0.2894(4) 0.1548(3)
H7 H 1.058(5) 0.283(4) 0.186(2)
N4 N 0.9826(6) -0.0268(4) 0.1547(3)
C1 C 1.0292(8) 0.6886(5) 0.0817(4)
H8 H 0.9430 0.7120 0.0576
C2 C 1.0683(8) 0.6092(5) 0.0674(4)
H9 H 1.0103 0.5793 0.0336
C3 C 1.1919(8) 0.5725(4) 0.1020(3)
C4 C 1.2731(9) 0.6201(5) 0.1500(4)
H10 H 1.3589 0.5977 0.1752
C5 C 1.2280(9) 0.7009(5) 0.1610(4)
H11 H 1.2860 0.7331 0.1933
C6 C 1.2339(8) 0.4836(4) 0.0905(4)
H12 H 1.2612 0.4787 0.0472
H13 H 1.3203 0.4676 0.1223
C7 C 1.0618(8) 0.4354(5) 0.1579(3)
H14 H 1.0311 0.4936 0.1640
H15 H 1.1437 0.4217 0.1927
C8 C 0.9344(8) 0.3770(4) 0.1607(4)
H16 H 0.8977 0.3844 0.2019
H17 H 0.8533 0.3902 0.1255
C9 C 1.1595(8) 0.3399(4) 0.0891(4)
H18 H 1.2433 0.3278 0.1234
H19 H 1.1939 0.3334 0.0473
C10 C 1.0373(8) 0.2777(5) 0.0932(3)
H20 H 0.9564 0.2863 0.0569
H21 H 1.0748 0.2202 0.0906
C11 C 0.8597(8) 0.2312(4) 0.1617(4)
H22 H 0.7770 0.2420 0.1266
H23 H 0.8250 0.2431 0.2027
C12 C 1.0485(8) 0.0241(4) 0.2019(3)
H24 H 1.1238 0.0019 0.2334
C13 C 1.0109(8) 0.1062(5) 0.2062(4)
H25 H 1.0595 0.1397 0.2402
C14 C 0.9005(8) 0.1411(5) 0.1604(3)
C15 C 0.8316(8) 0.0889(4) 0.1130(3)
H26 H 0.7560 0.1097 0.0810
C16 C 0.8728(8) 0.0070(5) 0.1124(4)
H27 H 0.8212 -0.0282 0.0803
C17 C 0.5834(7) 0.7668(5) 0.2315(4)
C18 C 0.6073(8) 0.6899(5) 0.2614(4)
H28 H 0.6517 0.6463 0.2409
C19 C 0.5663(9) 0.6761(6) 0.3219(4)
H29 H 0.5813 0.6229 0.3418
C20 C 0.5051(9) 0.7388(6) 0.3518(4)
H30 H 0.4814 0.7302 0.3934
C21 C 0.4764(8) 0.8168(6) 0.3213(4)
H31 H 0.4296 0.8597 0.3416
C22 C 0.5168(8) 0.8306(5) 0.2617(4)
C23 C 0.6317(8) 0.7785(5) 0.1673(4)
H32 H 0.5718 0.8233 0.1437
H33 H 0.6119 0.7264 0.1422
C24 C 0.7932(8) 0.8006(4) 0.1713(4)
C25 C 0.4826(8) 0.9145(5) 0.2304(4)
H34 H 0.5652 0.9308 0.2084
H35 H 0.4758 0.9563 0.2642
C26 C 0.3398(8) 0.9168(5) 0.1816(4)
Cu1_2 Cu 0.04717(9) 0.85401(5) 0.14270(4)
Cu1_3 Cu 1.04717(9) -0.14599(5) 0.14270(4)
O7_2 O 1.2350(5) 0.8729(3) 0.1964(2)
N4_2 N 0.9826(6) 0.9732(4) 0.1547(3)
O2 O 0.6231(9) 0.8457(5) 0.0088(3)
H1 H 0.6896 0.8666 -0.0097
H2 H 0.5373 0.8253 0.0063
O4 O 0.5878(9) 0.3875(5) 0.0118(4)
H3 H 0.497(4) 0.370(6) -0.004(6)
H4 H 0.638(9) 0.340(4) 0.007(5)
O6 O 0.1610(7) 0.0830(4) 0.0522(3)
O8 O 0.6716(8) 0.2236(4) 0.9987(3)
O11 O 0.6880(10) 0.6062(6) 0.0640(4)
O12 O 0.7897(9) 0.5786(6) 0.1601(4)
O13 O 0.6299(15) 0.4972(7) 0.1135(7)
N5 N 0.7014(9) 0.5588(6) 0.1135(4)
O10? O 0.5011(19) 0.9870(14) 0.0402(9)
O14? O 0.737(3) 0.519(2) 0.0679(12)
O15? O 0.568(3) 0.570(4) 0.1129(18)
loop_
_geom_bond_atom_site_label_1
_geom_bond_atom_site_label_2
_geom_bond_site_symmetry_1
_geom_bond_site_symmetry_2
Cu1 O1 1_555 1_555
O1 C24 1_555 1_555
O2 H1 1_555 1_555
H2 O2 1_555 1_555
O3 C24 1_555 1_555
O4 H3 1_555 1_555
H4 O4 1_555 1_555
O5 C26 1_555 1_555
O7 C26 1_555 1_555
O9 Cu1 1_555 1_555
H5 O9 1_555 1_555
H6 O9 1_555 1_555
O11 N5 1_555 1_555
O12 N5 1_555 1_555
O13 N5 1_555 1_555
N1 Cu1 1_555 1_555
N2 C6 1_555 1_555
N3 H7 1_555 1_555
N4 C12 1_555 1_555
C1 N1 1_555 1_555
H8 C1 1_555 1_555
C2 C1 1_555 1_555
H9 C2 1_555 1_555
C3 C2 1_555 1_555
C4 C3 1_555 1_555
H10 C4 1_555 1_555
C5 N1 1_555 1_555
H11 C5 1_555 1_555
C6 C3 1_555 1_555
H12 C6 1_555 1_555
H13 C6 1_555 1_555
C7 N2 1_555 1_555
H14 C7 1_555 1_555
H15 C7 1_555 1_555
C8 N3 1_555 1_555
H16 C8 1_555 1_555
H17 C8 1_555 1_555
C9 N2 1_555 1_555
H18 C9 1_555 1_555
H19 C9 1_555 1_555
C10 N3 1_555 1_555
H20 C10 1_555 1_555
H21 C10 1_555 1_555
C11 N3 1_555 1_555
H22 C11 1_555 1_555
H23 C11 1_555 1_555
C12 H24 1_555 1_555
C13 C12 1_555 1_555
H25 C13 1_555 1_555
C14 C11 1_555 1_555
C15 C14 1_555 1_555
H26 C15 1_555 1_555
C16 N4 1_555 1_555
H27 C16 1_555 1_555
C17 C18 1_555 1_555
C18 H28 1_555 1_555
C19 C18 1_555 1_555
H29 C19 1_555 1_555
C20 C19 1_555 1_555
H30 C20 1_555 1_555
C21 C20 1_555 1_555
H31 C21 1_555 1_555
C22 C17 1_555 1_555
C23 C17 1_555 1_555
H32 C23 1_555 1_555
H33 C23 1_555 1_555
C24 C23 1_555 1_555
C25 C22 1_555 1_555
H34 C25 1_555 1_555
H35 C25 1_555 1_555
C26 C25 1_555 1_555
Cu1_2 O7 1_555 1_555
Cu1_3 N4 1_555 1_555
O7_2 Cu1 1_555 1_555
N4_2 Cu1 1_555 1_555
C4 C5 1_555 1_555
C7 C8 1_555 1_555
C9 C10 1_555 1_555
C13 C14 1_555 1_555
C15 C16 1_555 1_555
C21 C22 1_555 1_555

#END
