
#######################################################################
#
#                 Cambridge Crystallographic Data Centre
#                                CCDC 
#
#######################################################################
#
# If this CIF has been generated from an entry in the Cambridge 
# Structural Database, then it will include bibliographic, chemical, 
# crystal, experimental, refinement or atomic coordinate data resulting 
# from the CCDC's data processing and validation procedures.
#
#######################################################################

data_QUTLIB01
_symmetry_cell_setting           orthorhombic
_symmetry_space_group_name_H-M   'P c c n'
_symmetry_Int_Tables_number      56
_space_group_name_Hall           '-P 2ab 2ac'
loop_
_symmetry_equiv_pos_site_id
_symmetry_equiv_pos_as_xyz
1 x,y,z
2 1/2-x,1/2-y,z
3 -x,1/2+y,1/2-z
4 1/2+x,-y,1/2-z
5 -x,-y,-z
6 1/2+x,1/2+y,-z
7 x,1/2-y,1/2+z
8 1/2-x,y,1/2+z
_cell_length_a                   11.753(4)
_cell_length_b                   28.513(10)
_cell_length_c                   9.064(3)
_cell_angle_alpha                90
_cell_angle_beta                 90
_cell_angle_gamma                90
_cell_volume                     3037.47
loop_
_atom_site_label
_atom_site_type_symbol
_atom_site_fract_x
_atom_site_fract_y
_atom_site_fract_z
Cu1 Cu 0.03311(4) 0.463526(18) 0.07806(6)
N1 N 0.0837(3) 0.40377(13) 0.2083(4)
O1 O 0.0091(3) 0.50462(11) 0.2495(3)
O2 O -0.0485(3) 0.56610(12) 0.1168(4)
O3 O 0.3135(3) 0.49165(11) 0.5615(4)
O4 O 0.3697(3) 0.55306(11) 0.4293(4)
C1 C 0.0604(4) 0.61070(16) 0.3911(5)
C2 C 0.1589(4) 0.60070(17) 0.4690(5)
C3 C 0.2364(5) 0.63691(18) 0.4951(7)
H1 H 0.3005 0.6310 0.5523
C4 C 0.2204(6) 0.68091(19) 0.4383(8)
H2 H 0.2728 0.7045 0.4584
C5 C 0.1274(6) 0.69035(19) 0.3518(8)
H3 H 0.1182 0.7195 0.3073
C6 C 0.0474(5) 0.65518(19) 0.3328(7)
H4 H -0.0178 0.6618 0.2785
C7 C -0.0348(4) 0.57536(17) 0.3737(5)
H5 H -0.0353 0.5547 0.4588
H6 H -0.1070 0.5919 0.3715
C8 C -0.0239(4) 0.54628(17) 0.2361(6)
C9 C 0.1823(4) 0.55262(18) 0.5318(6)
H7 H 0.1255 0.5313 0.4927
H8 H 0.1709 0.5542 0.6376
C10 C 0.2989(4) 0.53090(17) 0.5043(6)
C11 C 0.1803(4) 0.40574(17) 0.2868(6)
H9 H 0.2232 0.4331 0.2827
C12 C 0.2194(4) 0.36965(17) 0.3728(6)
H10 H 0.2879 0.3726 0.4234
C13 C 0.1565(4) 0.32889(16) 0.3841(5)
C14 C 0.0566(5) 0.32714(17) 0.3045(6)
H11 H 0.0110 0.3005 0.3087
C15 C 0.0243(5) 0.36455(16) 0.2193(6)
H12 H -0.0432 0.3622 0.1663
C16 C 0.1969(5) 0.28859(16) 0.4775(6)
H13 H 0.1330 0.2759 0.5322
H14 H 0.2524 0.2999 0.5482
C17 C 0.2500 0.2500 0.3849(8)
H15 H 0.3080 0.2636 0.3219
Cu1A Cu 0.46689(4) 0.036474(18) 0.07806(6)
Cu1D Cu -0.03311(4) 0.536474(18) -0.07806(6)
Cu1G Cu 0.46689(4) 0.463526(18) 0.57806(6)
Cu1C Cu 0.53311(4) 0.536474(18) 0.42194(6)
Cu1C_2 Cu -0.46689(4) 0.536474(18) -0.57806(6)
Cu1G_2 Cu -0.53311(4) 0.463526(18) -0.42194(6)
N1A N 0.4163(3) 0.09623(13) 0.2083(4)
O1D O -0.0091(3) 0.49538(11) -0.2495(3)
O1A O 0.4909(3) -0.00462(11) 0.2495(3)
O2D O 0.0485(3) 0.43390(12) -0.1168(4)
O2E O 0.4515(3) 0.06610(12) -0.1168(4)
O3D O -0.3135(3) 0.50835(11) -0.5615(4)
O3G O 0.1865(3) 0.49165(11) 0.0615(4)
O3F O 0.3135(3) 0.00835(11) 0.0615(4)
O4D O -0.3697(3) 0.44694(11) -0.4293(4)
O4C O -0.1303(3) 0.44694(11) 0.0707(4)
O4B O 0.6303(3) 0.05306(11) 0.0707(4)
C1D C -0.0604(4) 0.38930(16) -0.3911(5)
C2D C -0.1589(4) 0.39930(17) -0.4690(5)
C3D C -0.2364(5) 0.36309(18) -0.4951(7)
H1D H -0.3005 0.3690 -0.5523
C4D C -0.2204(6) 0.31909(19) -0.4383(8)
H2D H -0.2728 0.2955 -0.4584
C5D C -0.1274(6) 0.30965(19) -0.3518(8)
H3D H -0.1182 0.2805 -0.3073
C6D C -0.0474(5) 0.34482(19) -0.3328(7)
H4D H 0.0178 0.3382 -0.2785
C7D C 0.0348(4) 0.42464(17) -0.3737(5)
H5D H 0.0353 0.4453 -0.4588
H6D H 0.1070 0.4081 -0.3715
C8D C 0.0239(4) 0.45372(17) -0.2361(6)
C9D C -0.1823(4) 0.44738(18) -0.5318(6)
H7D H -0.1255 0.4687 -0.4927
H8D H -0.1709 0.4458 -0.6376
C10D C -0.2989(4) 0.46910(17) -0.5043(6)
C11A C 0.3197(4) 0.09426(17) 0.2868(6)
H9A H 0.2768 0.0669 0.2827
C12A C 0.2806(4) 0.13035(17) 0.3728(6)
H10A H 0.2121 0.1274 0.4234
C13A C 0.3435(4) 0.17111(16) 0.3841(5)
C14A C 0.4434(5) 0.17286(17) 0.3045(6)
H11A H 0.4890 0.1995 0.3087
C15A C 0.4757(5) 0.13545(16) 0.2193(6)
H12A H 0.5432 0.1378 0.1663
C16A C 0.3031(5) 0.21141(16) 0.4775(6)
H13A H 0.3670 0.2241 0.5322
H14A H 0.2476 0.2001 0.5482
H15A H 0.1920 0.2364 0.3219
loop_
_geom_bond_atom_site_label_1
_geom_bond_atom_site_label_2
_geom_bond_site_symmetry_1
_geom_bond_site_symmetry_2
Cu1 N1 1_555 1_555
N1 C11 1_555 1_555
O1 Cu1 1_555 1_555
O2 C8 1_555 1_555
O3 C10 1_555 1_555
O4 C10 1_555 1_555
C1 C2 1_555 1_555
C2 C3 1_555 1_555
C3 H1 1_555 1_555
C4 C3 1_555 1_555
H2 C4 1_555 1_555
C5 C4 1_555 1_555
H3 C5 1_555 1_555
C6 C1 1_555 1_555
H4 C6 1_555 1_555
C7 C1 1_555 1_555
H5 C7 1_555 1_555
H6 C7 1_555 1_555
C8 O1 1_555 1_555
C9 C2 1_555 1_555
H7 C9 1_555 1_555
H8 C9 1_555 1_555
C10 C9 1_555 1_555
C11 H9 1_555 1_555
C12 C11 1_555 1_555
H10 C12 1_555 1_555
C13 C12 1_555 1_555
C14 C13 1_555 1_555
H11 C14 1_555 1_555
C15 N1 1_555 1_555
H12 C15 1_555 1_555
C16 C13 1_555 1_555
H13 C16 1_555 1_555
H14 C16 1_555 1_555
C17 C16 1_555 1_555
H15 C17 1_555 1_555
Cu1A N1A 1_555 1_555
Cu1D O2 1_555 1_555
Cu1G O3 1_555 1_555
Cu1C O4 1_555 1_555
Cu1C_2 O3D 1_555 1_555
Cu1G_2 O4D 1_555 1_555
N1A C11A 1_555 1_555
O1D Cu1D 1_555 1_555
O1A Cu1A 1_555 1_555
O2D Cu1 1_555 1_555
O2E Cu1A 1_555 1_555
O3D C10D 1_555 1_555
O3G Cu1 1_555 1_555
O3F Cu1A 1_555 1_555
O4D C10D 1_555 1_555
O4C Cu1 1_555 1_555
O4B Cu1A 1_555 1_555
C1D C2D 1_555 1_555
C2D C3D 1_555 1_555
C3D H1D 1_555 1_555
C4D C3D 1_555 1_555
H2D C4D 1_555 1_555
C5D C4D 1_555 1_555
H3D C5D 1_555 1_555
C6D C1D 1_555 1_555
H4D C6D 1_555 1_555
C7D C1D 1_555 1_555
H5D C7D 1_555 1_555
H6D C7D 1_555 1_555
C8D O1D 1_555 1_555
C9D C2D 1_555 1_555
H7D C9D 1_555 1_555
H8D C9D 1_555 1_555
C10D C9D 1_555 1_555
C11A H9A 1_555 1_555
C12A C11A 1_555 1_555
H10A C12A 1_555 1_555
C13A C12A 1_555 1_555
C14A C13A 1_555 1_555
H11A C14A 1_555 1_555
C15A N1A 1_555 1_555
H12A C15A 1_555 1_555
C16A C17 1_555 1_555
H13A C16A 1_555 1_555
H14A C16A 1_555 1_555
H15A C17 1_555 1_555
C5 C6 1_555 1_555
C7 C8 1_555 1_555
C14 C15 1_555 1_555
O2D C8D 1_555 1_555
C5D C6D 1_555 1_555
C7D C8D 1_555 1_555
C13A C16A 1_555 1_555
C14A C15A 1_555 1_555

#END
