
#######################################################################
#
#                 Cambridge Crystallographic Data Centre
#                                CCDC 
#
#######################################################################
#
# If this CIF has been generated from an entry in the Cambridge 
# Structural Database, then it will include bibliographic, chemical, 
# crystal, experimental, refinement or atomic coordinate data resulting 
# from the CCDC's data processing and validation procedures.
#
#######################################################################

data_QUTLIB
_symmetry_cell_setting           orthorhombic
_symmetry_space_group_name_H-M   'P c c n'
_symmetry_Int_Tables_number      56
_space_group_name_Hall           '-P 2ab 2ac'
loop_
_symmetry_equiv_pos_site_id
_symmetry_equiv_pos_as_xyz
1 x,y,z
2 1/2-x,1/2-y,z
3 -x,1/2+y,1/2-z
4 1/2+x,-y,1/2-z
5 -x,-y,-z
6 1/2+x,1/2+y,-z
7 x,1/2-y,1/2+z
8 1/2-x,y,1/2+z
_cell_length_a                   11.707(2)
_cell_length_b                   28.458(6)
_cell_length_c                   9.0246(19)
_cell_angle_alpha                90
_cell_angle_beta                 90
_cell_angle_gamma                90
_cell_volume                     3006.62
loop_
_atom_site_label
_atom_site_type_symbol
_atom_site_fract_x
_atom_site_fract_y
_atom_site_fract_z
Cu1 Cu 0.03281(3) 0.536292(11) 0.07916(4)
C1 C 0.0225(3) 0.63517(10) 0.2222(4)
H1 H -0.0458 0.6372 0.1700
C2 C 0.0554(3) 0.67284(11) 0.3080(3)
H2 H 0.0098 0.6996 0.3126
C3 C 0.1564(3) 0.67087(10) 0.3874(3)
C4 C 0.2203(3) 0.63004(10) 0.3747(3)
H3 H 0.2893 0.6272 0.4250
C5 C 0.1814(2) 0.59384(10) 0.2876(3)
H4 H 0.2248 0.5665 0.2818
C6 C 0.1970(3) 0.71107(10) 0.4812(3)
H5 H 0.2530 0.6997 0.5518
H6 H 0.1330 0.7237 0.5367
C7 C 0.2500 0.7500 0.3881(5)
H7 H 0.3084 0.7365 0.3248
C8 C -0.0252(2) 0.45350(11) 0.2365(3)
C9 C -0.0363(2) 0.42371(11) 0.3746(3)
H8 H -0.1083 0.4069 0.3714
H9 H -0.0376 0.4441 0.4607
C10 C 0.0604(3) 0.38866(11) 0.3910(3)
C11 C 0.0473(3) 0.34407(11) 0.3308(4)
H10 H -0.0174 0.3374 0.2748
C12 C 0.1276(3) 0.30956(12) 0.3518(4)
H11 H 0.1183 0.2802 0.3081
C13 C 0.2217(3) 0.31871(12) 0.4378(4)
H12 H 0.2747 0.2951 0.4567
C14 C 0.2371(3) 0.36301(11) 0.4959(4)
H13 H 0.3012 0.3690 0.5537
C15 C 0.1593(3) 0.39904(10) 0.4704(3)
C16 C 0.1810(3) 0.44721(11) 0.5332(4)
H14 H 0.1696 0.4457 0.6396
H15 H 0.1235 0.4683 0.4937
C17 C 0.2977(2) 0.46900(11) 0.5049(3)
O1 O 0.00773(18) 0.49510(7) 0.2511(2)
O2 O -0.04911(18) 0.43350(7) 0.1155(2)
O3 O 0.31342(17) 0.50828(7) 0.5643(2)
O4 O 0.36916(17) 0.44714(7) 0.4281(2)
N1 N 0.0837(2) 0.59605(8) 0.2104(3)
Cu1D Cu -0.03281(3) 0.463708(11) -0.07916(4)
Cu1G Cu 0.46719(3) 0.536292(11) 0.57916(4)
Cu1C Cu 0.53281(3) 0.463708(11) 0.42084(4)
Cu1A Cu 0.46719(3) 0.963708(11) 0.07916(4)
Cu1C_2 Cu -0.46719(3) 0.463708(11) -0.57916(4)
Cu1G_2 Cu -0.53281(3) 0.536292(11) -0.42084(4)
C1A C 0.4775(3) 0.86483(10) 0.2222(4)
H1A H 0.5458 0.8628 0.1700
C2A C 0.4446(3) 0.82716(11) 0.3080(3)
H2A H 0.4902 0.8004 0.3126
C3A C 0.3436(3) 0.82913(10) 0.3874(3)
C4A C 0.2797(3) 0.86996(10) 0.3747(3)
H3A H 0.2107 0.8728 0.4250
C5A C 0.3186(2) 0.90616(10) 0.2876(3)
H4A H 0.2752 0.9335 0.2818
C6A C 0.3030(3) 0.78893(10) 0.4812(3)
H5A H 0.2470 0.8003 0.5518
H6A H 0.3670 0.7763 0.5367
H7A H 0.1916 0.7635 0.3248
C8D C 0.0252(2) 0.54650(11) -0.2365(3)
C9D C 0.0363(2) 0.57629(11) -0.3746(3)
H8D H 0.1083 0.5931 -0.3714
H9D H 0.0376 0.5559 -0.4607
C10D C -0.0604(3) 0.61134(11) -0.3910(3)
C11D C -0.0473(3) 0.65593(11) -0.3308(4)
H10D H 0.0174 0.6626 -0.2748
C12D C -0.1276(3) 0.69044(12) -0.3518(4)
H11D H -0.1183 0.7198 -0.3081
C13D C -0.2217(3) 0.68129(12) -0.4378(4)
H12D H -0.2747 0.7049 -0.4567
C14D C -0.2371(3) 0.63699(11) -0.4959(4)
H13D H -0.3012 0.6310 -0.5537
C15D C -0.1593(3) 0.60096(10) -0.4704(3)
C16D C -0.1810(3) 0.55279(11) -0.5332(4)
H14D H -0.1696 0.5543 -0.6396
H15D H -0.1235 0.5317 -0.4937
C17D C -0.2977(2) 0.53100(11) -0.5049(3)
O1D O -0.00773(18) 0.50490(7) -0.2511(2)
O2D O 0.04911(18) 0.56650(7) -0.1155(2)
O3D O -0.31342(17) 0.49172(7) -0.5643(2)
O3G O 0.18658(17) 0.50828(7) 0.0643(2)
O3C O -0.18658(17) 0.49172(7) -0.0643(2)
O4D O -0.36916(17) 0.55286(7) -0.4281(2)
O4C O -0.13084(17) 0.55286(7) 0.0719(2)
O4G O 0.13084(17) 0.44714(7) -0.0719(2)
N1A N 0.4163(2) 0.90395(8) 0.2104(3)
N1D N -0.0837(2) 0.40395(8) -0.2104(3)
loop_
_geom_bond_atom_site_label_1
_geom_bond_atom_site_label_2
_geom_bond_site_symmetry_1
_geom_bond_site_symmetry_2
Cu1 O1 1_555 1_555
C1 H1 1_555 1_555
C2 C1 1_555 1_555
H2 C2 1_555 1_555
C3 C2 1_555 1_555
C4 C3 1_555 1_555
H3 C4 1_555 1_555
C5 C4 1_555 1_555
H4 C5 1_555 1_555
C6 C3 1_555 1_555
H5 C6 1_555 1_555
H6 C6 1_555 1_555
C7 C6 1_555 1_555
H7 C7 1_555 1_555
C8 C9 1_555 1_555
C9 H8 1_555 1_555
H9 C9 1_555 1_555
C10 C9 1_555 1_555
C11 C10 1_555 1_555
H10 C11 1_555 1_555
C12 C11 1_555 1_555
H11 C12 1_555 1_555
C13 C12 1_555 1_555
H12 C13 1_555 1_555
C14 C13 1_555 1_555
H13 C14 1_555 1_555
C15 C10 1_555 1_555
C16 C15 1_555 1_555
H14 C16 1_555 1_555
H15 C16 1_555 1_555
C17 C16 1_555 1_555
O1 C8 1_555 1_555
O2 C8 1_555 1_555
O3 C17 1_555 1_555
O4 C17 1_555 1_555
N1 Cu1 1_555 1_555
Cu1D O2 1_555 1_555
Cu1G O3 1_555 1_555
Cu1C O4 1_555 1_555
Cu1A N1A 1_555 1_555
Cu1C_2 O3D 1_555 1_555
Cu1G_2 O4D 1_555 1_555
C1A H1A 1_555 1_555
C2A C1A 1_555 1_555
H2A C2A 1_555 1_555
C3A C2A 1_555 1_555
C4A C3A 1_555 1_555
H3A C4A 1_555 1_555
C5A C4A 1_555 1_555
H4A C5A 1_555 1_555
C6A C7 1_555 1_555
H5A C6A 1_555 1_555
H6A C6A 1_555 1_555
H7A C7 1_555 1_555
C8D C9D 1_555 1_555
C9D H8D 1_555 1_555
H9D C9D 1_555 1_555
C10D C9D 1_555 1_555
C11D C10D 1_555 1_555
H10D C11D 1_555 1_555
C12D C11D 1_555 1_555
H11D C12D 1_555 1_555
C13D C12D 1_555 1_555
H12D C13D 1_555 1_555
C14D C13D 1_555 1_555
H13D C14D 1_555 1_555
C15D C10D 1_555 1_555
C16D C15D 1_555 1_555
H14D C16D 1_555 1_555
H15D C16D 1_555 1_555
C17D C16D 1_555 1_555
O1D Cu1D 1_555 1_555
O2D Cu1 1_555 1_555
O3D C17D 1_555 1_555
O3G Cu1 1_555 1_555
O3C Cu1D 1_555 1_555
O4D C17D 1_555 1_555
O4C Cu1 1_555 1_555
O4G Cu1D 1_555 1_555
N1A C1A 1_555 1_555
N1D Cu1D 1_555 1_555
C1 N1 1_555 1_555
C5 N1 1_555 1_555
C14 C15 1_555 1_555
C3A C6A 1_555 1_555
C5A N1A 1_555 1_555
C8D O1D 1_555 1_555
C8D O2D 1_555 1_555
C14D C15D 1_555 1_555

#END
