
#######################################################################
#
#                 Cambridge Crystallographic Data Centre
#                                CCDC 
#
#######################################################################
#
# If this CIF has been generated from an entry in the Cambridge 
# Structural Database, then it will include bibliographic, chemical, 
# crystal, experimental, refinement or atomic coordinate data resulting 
# from the CCDC's data processing and validation procedures.
#
#######################################################################

data_QUTLAT
_symmetry_cell_setting           triclinic
_symmetry_space_group_name_H-M   'P -1'
_symmetry_Int_Tables_number      2
_space_group_name_Hall           '-P 1'
loop_
_symmetry_equiv_pos_site_id
_symmetry_equiv_pos_as_xyz
1 x,y,z
2 -x,-y,-z
_cell_length_a                   8.142(3)
_cell_length_b                   8.335(3)
_cell_length_c                   14.222(4)
_cell_angle_alpha                88.369(5)
_cell_angle_beta                 81.920(4)
_cell_angle_gamma                79.925(5)
_cell_volume                     940.832
loop_
_atom_site_label
_atom_site_type_symbol
_atom_site_fract_x
_atom_site_fract_y
_atom_site_fract_z
Cu1 Cu 0.0000 -0.5000 0.0000
Cu2 Cu 0.5000 -0.5000 0.5000
O1 O 0.1861(6) -0.3766(4) 0.4542(2)
O3 O 0.3153(4) -0.6832(4) 0.01351(19)
O4 O 0.1275(3) -0.5119(3) 0.10614(17)
O5 O 0.3746(4) -0.5981(4) 0.41802(19)
N1 N 0.0972(4) -0.3014(3) -0.0497(2)
N2 N 0.2474(4) 0.1403(4) -0.1376(2)
H3 H 0.259(5) 0.196(4) -0.087(2)
N3 N 0.3879(5) 0.3898(5) -0.3872(2)
C1 C 0.0912(5) -0.2472(4) -0.1397(2)
H4 H 0.0487 -0.3115 -0.1816
C2 C 0.1418(5) -0.1069(4) -0.1752(2)
H5 H 0.1350 -0.0768 -0.2397
C3 C 0.2031(4) -0.0089(4) -0.1159(2)
C4 C 0.2124(5) -0.0657(4) -0.0221(2)
H6 H 0.2558 -0.0046 0.0210
C5 C 0.1597(4) -0.2073(4) 0.0069(2)
H7 H 0.1674 -0.2418 0.0706
C6 C 0.3660(5) 0.4567(5) -0.3006(3)
H8 H 0.3861 0.5647 -0.2954
C7 C 0.3160(5) 0.3759(4) -0.2195(3)
H9 H 0.3025 0.4280 -0.1597
C8 C 0.2846(5) 0.2175(5) -0.2242(3)
C9 C 0.3003(6) 0.1510(6) -0.3137(3)
H10 H 0.2761 0.0450 -0.3213
C10 C 0.3514(7) 0.2405(6) -0.3913(3)
H11 H 0.3615 0.1929 -0.4522
C11 C 0.2910(5) -0.7784(5) 0.2357(3)
C12 C 0.1745(5) -0.7387(5) 0.3176(3)
C13 C 0.1131(6) -0.8644(6) 0.3699(3)
H12 H 0.0355 -0.8386 0.4260
C14 C 0.1609(8) -1.0243(6) 0.3432(4)
H13 H 0.1170 -1.1076 0.3804
C15 C 0.2726(8) -1.0632(6) 0.2623(5)
H14 H 0.3051 -1.1736 0.2428
C16 C 0.3382(6) -0.9411(5) 0.2089(4)
H15 H 0.4165 -0.9691 0.1533
C17 C 0.1164(5) -0.5669(5) 0.3520(3)
H16 H 0.0031 -0.5592 0.3893
H17 H 0.1059 -0.4938 0.2963
C18 C 0.2327(7) -0.5066(5) 0.4133(3)
C19 C 0.3632(5) -0.6503(5) 0.1732(3)
H18 H 0.4832 -0.6908 0.1497
H19 H 0.3560 -0.5501 0.2104
C20 C 0.2644(5) -0.6122(5) 0.0896(3)
Cu2_2 Cu 0.5000 0.5000 -0.5000
Cu2_3 Cu -0.5000 -0.5000 -0.5000
Cu2_4 Cu -0.5000 -1.5000 0.5000
O1A O -0.1861(6) -0.6234(4) -0.4542(2)
O3A O -0.3153(4) -0.3168(4) -0.01351(19)
O4A O -0.1275(3) -0.4881(3) -0.10614(17)
O5A O -0.3746(4) -0.4019(4) -0.41802(19)
O5A_2 O 0.6254(4) -0.4019(4) 0.58198(19)
N1A N -0.0972(4) -0.6986(3) 0.0497(2)
N2A N -0.2474(4) -1.1403(4) 0.1376(2)
H3A H -0.259(5) -1.196(4) 0.087(2)
N3A N -0.3879(5) -1.3898(5) 0.3872(2)
N3_2 N 0.3879(5) -0.6102(5) 0.6128(2)
N3A_2 N 0.6121(5) -0.3898(5) 0.3872(2)
C1A C -0.0912(5) -0.7528(4) 0.1397(2)
H4A H -0.0487 -0.6885 0.1816
C2A C -0.1418(5) -0.8931(4) 0.1752(2)
H5A H -0.1350 -0.9232 0.2397
C3A C -0.2031(4) -0.9911(4) 0.1159(2)
C4A C -0.2124(5) -0.9343(4) 0.0221(2)
H6A H -0.2558 -0.9954 -0.0210
C5A C -0.1597(4) -0.7927(4) -0.0069(2)
H7A H -0.1674 -0.7582 -0.0706
C6A C -0.3660(5) -1.4567(5) 0.3006(3)
H8A H -0.3861 -1.5647 0.2954
C7A C -0.3160(5) -1.3759(4) 0.2195(3)
H9A H -0.3025 -1.4280 0.1597
C8A C -0.2846(5) -1.2175(5) 0.2242(3)
C9A C -0.3003(6) -1.1510(6) 0.3137(3)
H10A H -0.2761 -1.0450 0.3213
C10A C -0.3514(7) -1.2405(6) 0.3913(3)
H11A H -0.3615 -1.1929 0.4522
C11A C -0.2910(5) -0.2216(5) -0.2357(3)
C12A C -0.1745(5) -0.2613(5) -0.3176(3)
C13A C -0.1131(6) -0.1356(6) -0.3699(3)
H12A H -0.0355 -0.1614 -0.4260
C14A C -0.1609(8) 0.0243(6) -0.3432(4)
H13A H -0.1170 0.1076 -0.3804
C15A C -0.2726(8) 0.0632(6) -0.2623(5)
H14A H -0.3051 0.1736 -0.2428
C16A C -0.3382(6) -0.0589(5) -0.2089(4)
H15A H -0.4165 -0.0309 -0.1533
C17A C -0.1164(5) -0.4331(5) -0.3520(3)
H16A H -0.0031 -0.4408 -0.3893
H17A H -0.1059 -0.5062 -0.2963
C18A C -0.2327(7) -0.4934(5) -0.4133(3)
C19A C -0.3632(5) -0.3497(5) -0.1732(3)
H18A H -0.4832 -0.3092 -0.1497
H19A H -0.3560 -0.4499 -0.2104
C20A C -0.2644(5) -0.3878(5) -0.0896(3)
O2 O 0.6875(8) -0.8164(8) 0.4248(5)
H1 H 0.698(3) -0.817(9) 0.4882(15)
H2 H 0.5713 -0.8037 0.4381
loop_
_geom_bond_atom_site_label_1
_geom_bond_atom_site_label_2
_geom_bond_site_symmetry_1
_geom_bond_site_symmetry_2
Cu1 O4 1_555 1_555
Cu2 O5 1_555 1_555
O1 C18 1_555 1_555
O2 H1 1_555 1_555
H2 O2 1_555 1_555
O3 C20 1_555 1_555
O4 C20 1_555 1_555
O5 C18 1_555 1_555
N1 Cu1 1_555 1_555
N2 H3 1_555 1_555
N3 C6 1_555 1_555
C1 N1 1_555 1_555
H4 C1 1_555 1_555
C2 C1 1_555 1_555
H5 C2 1_555 1_555
C3 N2 1_555 1_555
C4 C3 1_555 1_555
H6 C4 1_555 1_555
C5 N1 1_555 1_555
H7 C5 1_555 1_555
C6 H8 1_555 1_555
C7 C6 1_555 1_555
H9 C7 1_555 1_555
C8 N2 1_555 1_555
C9 C8 1_555 1_555
H10 C9 1_555 1_555
C10 N3 1_555 1_555
H11 C10 1_555 1_555
C11 C12 1_555 1_555
C12 C13 1_555 1_555
C13 H12 1_555 1_555
C14 C13 1_555 1_555
H13 C14 1_555 1_555
C15 C14 1_555 1_555
H14 C15 1_555 1_555
C16 C11 1_555 1_555
H15 C16 1_555 1_555
C17 C12 1_555 1_555
H16 C17 1_555 1_555
H17 C17 1_555 1_555
C18 C17 1_555 1_555
C19 C11 1_555 1_555
H18 C19 1_555 1_555
H19 C19 1_555 1_555
C20 C19 1_555 1_555
Cu2_2 N3 1_555 1_555
Cu2_3 O5A 1_555 1_555
Cu2_4 N3A 1_555 1_555
O1A C18A 1_555 1_555
O3A C20A 1_555 1_555
O4A Cu1 1_555 1_555
O5A C18A 1_555 1_555
O5A_2 Cu2 1_555 1_555
N1A Cu1 1_555 1_555
N2A H3A 1_555 1_555
N3A C6A 1_555 1_555
N3_2 Cu2 1_555 1_555
N3A_2 Cu2 1_555 1_555
C1A N1A 1_555 1_555
H4A C1A 1_555 1_555
C2A C1A 1_555 1_555
H5A C2A 1_555 1_555
C3A N2A 1_555 1_555
C4A C3A 1_555 1_555
H6A C4A 1_555 1_555
C5A N1A 1_555 1_555
H7A C5A 1_555 1_555
C6A H8A 1_555 1_555
C7A C6A 1_555 1_555
H9A C7A 1_555 1_555
C8A N2A 1_555 1_555
C9A C8A 1_555 1_555
H10A C9A 1_555 1_555
C10A N3A 1_555 1_555
H11A C10A 1_555 1_555
C11A C12A 1_555 1_555
C12A C13A 1_555 1_555
C13A H12A 1_555 1_555
C14A C13A 1_555 1_555
H13A C14A 1_555 1_555
C15A C14A 1_555 1_555
H14A C15A 1_555 1_555
C16A C11A 1_555 1_555
H15A C16A 1_555 1_555
C17A C12A 1_555 1_555
H16A C17A 1_555 1_555
H17A C17A 1_555 1_555
C18A C17A 1_555 1_555
C19A C11A 1_555 1_555
H18A C19A 1_555 1_555
H19A C19A 1_555 1_555
C20A O4A 1_555 1_555
C2 C3 1_555 1_555
C4 C5 1_555 1_555
C7 C8 1_555 1_555
C9 C10 1_555 1_555
C15 C16 1_555 1_555
C2A C3A 1_555 1_555
C4A C5A 1_555 1_555
C7A C8A 1_555 1_555
C9A C10A 1_555 1_555
C15A C16A 1_555 1_555
C19A C20A 1_555 1_555

#END
