
#######################################################################
#
#                 Cambridge Crystallographic Data Centre
#                                CCDC 
#
#######################################################################
#
# If this CIF has been generated from an entry in the Cambridge 
# Structural Database, then it will include bibliographic, chemical, 
# crystal, experimental, refinement or atomic coordinate data resulting 
# from the CCDC's data processing and validation procedures.
#
#######################################################################

data_QUTLEX
_symmetry_cell_setting           monoclinic
_symmetry_space_group_name_H-M   'P 21/c'
_symmetry_Int_Tables_number      14
_space_group_name_Hall           '-P 2ybc'
loop_
_symmetry_equiv_pos_site_id
_symmetry_equiv_pos_as_xyz
1 x,y,z
2 -x,1/2+y,1/2-z
3 -x,-y,-z
4 x,1/2-y,1/2+z
_cell_length_a                   7.2172(6)
_cell_length_b                   8.1561(7)
_cell_length_c                   30.391(3)
_cell_angle_alpha                90
_cell_angle_beta                 93.7510(10)
_cell_angle_gamma                90
_cell_volume                     1785.11
loop_
_atom_site_label
_atom_site_type_symbol
_atom_site_fract_x
_atom_site_fract_y
_atom_site_fract_z
Cu1 Cu 0.10827(3) 0.53827(3) 0.283310(7)
O1 O 0.27193(18) 0.70654(16) 0.32593(4)
O2 O 0.48874(19) 0.77811(17) 0.28055(5)
O3 O 0.30973(18) 0.52993(18) 0.24319(4)
H1 H 0.366(3) 0.443(2) 0.2375(7)
H2 H 0.387(3) 0.603(2) 0.2535(7)
O4 O 0.01475(18) 1.21542(16) 0.25394(4)
O5 O 0.17083(18) 1.32295(16) 0.31178(4)
N1 N -0.1070(2) 0.5412(2) 0.32120(5)
N2 N -0.5018(2) 0.5281(2) 0.45356(5)
C1 C 0.3156(3) 0.9916(2) 0.37727(7)
C2 C 0.3742(3) 0.9795(3) 0.42168(7)
H3 H 0.4961 0.9413 0.4297
C3 C 0.2588(4) 1.0218(3) 0.45445(8)
H4 H 0.3016 1.0123 0.4846
C4 C 0.0826(4) 1.0774(3) 0.44337(8)
H5 H 0.0038 1.1090 0.4657
C5 C 0.0203(3) 1.0873(3) 0.39945(8)
H6 H -0.1025 1.1243 0.3920
C6 C 0.1335(3) 1.0443(2) 0.36595(7)
C7 C 0.4460(3) 0.9511(3) 0.34230(7)
H7 H 0.5718 0.9358 0.3567
H8 H 0.4514 1.0465 0.3223
C8 C 0.3976(3) 0.7992(2) 0.31438(6)
C9 C 0.0535(3) 1.0499(3) 0.31895(7)
H9 H -0.0821 1.0318 0.3191
H10 H 0.1057 0.9568 0.3029
C10 C 0.0852(2) 1.2050(2) 0.29308(6)
C11 C -0.2545(3) 0.4451(2) 0.31074(6)
H11 H -0.2610 0.3899 0.2832
C12 C -0.3965(3) 0.4230(3) 0.33824(7)
H12 H -0.4972 0.3523 0.3298
C13 C -0.3919(3) 0.5044(3) 0.37837(6)
C14 C -0.2412(3) 0.6067(3) 0.38871(7)
H13 H -0.2336 0.6661 0.4157
C15 C -0.1028(3) 0.6217(3) 0.35977(7)
H14 H -0.0005 0.6917 0.3674
C16 C -0.5517(3) 0.4867(3) 0.40754(7)
H15 H -0.6545 0.5588 0.3963
H16 H -0.5971 0.3722 0.4059
C17 C -0.3848(3) 0.4015(3) 0.47517(7)
H17 H -0.2715 0.3864 0.4589
H18 H -0.4529 0.2961 0.4747
C18 C -0.6691(3) 0.5503(3) 0.47765(7)
H19 H -0.7413 0.4470 0.4772
H20 H -0.7481 0.6367 0.4633
Cu1A Cu -0.10827(3) 0.03827(3) 0.216690(7)
Cu1A_2 Cu -0.10827(3) 1.03827(3) 0.216690(7)
Cu1_2 Cu 0.10827(3) 1.53827(3) 0.283310(7)
Cu1B Cu -1.10827(3) 0.46173(3) 0.716690(7)
O1A O -0.27193(18) 0.20654(16) 0.17407(4)
O2A O -0.48874(19) 0.27811(17) 0.21945(5)
O3A O -0.30973(18) 0.02993(18) 0.25681(4)
H1A H -0.366(3) -0.057(2) 0.2625(7)
H2A H -0.387(3) 0.103(2) 0.2465(7)
O4A O -0.01475(18) 0.71542(16) 0.24606(4)
O4_2 O 0.01475(18) 0.21542(16) 0.25394(4)
O5A O -0.17083(18) 0.82295(16) 0.18822(4)
O5_2 O 0.17083(18) 0.32295(16) 0.31178(4)
O5A_2 O -0.17083(18) -0.17705(16) 0.18822(4)
N1B N -0.8930(2) 0.4588(2) 0.67880(5)
N1A N 0.1070(2) 0.0412(2) 0.17880(5)
N2B N -0.4982(2) 0.4719(2) 0.54644(5)
C1A C -0.3156(3) 0.4916(2) 0.12273(7)
C2A C -0.3742(3) 0.4795(3) 0.07832(7)
H3A H -0.4961 0.4413 0.0703
C3A C -0.2588(4) 0.5218(3) 0.04555(8)
H4A H -0.3016 0.5123 0.0154
C4A C -0.0826(4) 0.5774(3) 0.05663(8)
H5A H -0.0038 0.6090 0.0343
C5A C -0.0203(3) 0.5873(3) 0.10055(8)
H6A H 0.1025 0.6243 0.1080
C6A C -0.1335(3) 0.5443(2) 0.13405(7)
C7A C -0.4460(3) 0.4511(3) 0.15770(7)
H7A H -0.5718 0.4358 0.1433
H8A H -0.4514 0.5465 0.1777
C8A C -0.3976(3) 0.2992(2) 0.18562(6)
C9A C -0.0535(3) 0.5499(3) 0.18105(7)
H9A H 0.0821 0.5318 0.1809
H10A H -0.1057 0.4568 0.1971
C10A C -0.0852(2) 0.7050(2) 0.20692(6)
C11B C -0.7455(3) 0.5549(2) 0.68926(6)
H11B H -0.7390 0.6101 0.7168
C12B C -0.6035(3) 0.5770(3) 0.66176(7)
H12B H -0.5028 0.6477 0.6702
C13B C -0.6081(3) 0.4956(3) 0.62163(6)
C14B C -0.7588(3) 0.3933(3) 0.61129(7)
H13B H -0.7664 0.3339 0.5843
C15B C -0.8972(3) 0.3783(3) 0.64023(7)
H14B H -0.9995 0.3083 0.6326
C16B C -0.4483(3) 0.5133(3) 0.59246(7)
H15B H -0.3455 0.4412 0.6037
H16B H -0.4029 0.6278 0.5941
C17B C -0.6152(3) 0.5985(3) 0.52483(7)
H17B H -0.7285 0.6136 0.5411
H18B H -0.5471 0.7039 0.5253
C18B C -0.3309(3) 0.4497(3) 0.52235(7)
H19B H -0.2587 0.5530 0.5228
H20B H -0.2519 0.3633 0.5367
loop_
_geom_bond_atom_site_label_1
_geom_bond_atom_site_label_2
_geom_bond_site_symmetry_1
_geom_bond_site_symmetry_2
Cu1 O1 1_555 1_555
O1 C8 1_555 1_555
O2 C8 1_555 1_555
O3 Cu1 1_555 1_555
H1 O3 1_555 1_555
H2 O3 1_555 1_555
O4 C10 1_555 1_555
O5 C10 1_555 1_555
N1 Cu1 1_555 1_555
N2 C16 1_555 1_555
C1 C2 1_555 1_555
C2 H3 1_555 1_555
C3 C2 1_555 1_555
H4 C3 1_555 1_555
C4 C3 1_555 1_555
H5 C4 1_555 1_555
C5 C4 1_555 1_555
H6 C5 1_555 1_555
C6 C1 1_555 1_555
C7 C1 1_555 1_555
H7 C7 1_555 1_555
H8 C7 1_555 1_555
C8 C7 1_555 1_555
C9 C6 1_555 1_555
H9 C9 1_555 1_555
H10 C9 1_555 1_555
C10 C9 1_555 1_555
C11 N1 1_555 1_555
H11 C11 1_555 1_555
C12 C11 1_555 1_555
H12 C12 1_555 1_555
C13 C12 1_555 1_555
C14 C13 1_555 1_555
H13 C14 1_555 1_555
C15 N1 1_555 1_555
H14 C15 1_555 1_555
C16 C13 1_555 1_555
H15 C16 1_555 1_555
H16 C16 1_555 1_555
C17 N2 1_555 1_555
H17 C17 1_555 1_555
H18 C17 1_555 1_555
C18 N2 1_555 1_555
H19 C18 1_555 1_555
H20 C18 1_555 1_555
Cu1A O1A 1_555 1_555
Cu1A_2 O4 1_555 1_555
Cu1_2 O5 1_555 1_555
Cu1B N1B 1_555 1_555
O1A C8A 1_555 1_555
O2A C8A 1_555 1_555
O3A Cu1A 1_555 1_555
H1A O3A 1_555 1_555
H2A O3A 1_555 1_555
O4A Cu1 1_555 1_555
O4_2 Cu1A 1_555 1_555
O5A Cu1A_2 1_555 1_555
O5_2 Cu1 1_555 1_555
O5A_2 Cu1A 1_555 1_555
N1B C11B 1_555 1_555
N1A Cu1A 1_555 1_555
N2B C16B 1_555 1_555
C1A C2A 1_555 1_555
C2A H3A 1_555 1_555
C3A C2A 1_555 1_555
H4A C3A 1_555 1_555
C4A C3A 1_555 1_555
H5A C4A 1_555 1_555
C5A C4A 1_555 1_555
H6A C5A 1_555 1_555
C6A C1A 1_555 1_555
C7A C1A 1_555 1_555
H7A C7A 1_555 1_555
H8A C7A 1_555 1_555
C8A C7A 1_555 1_555
C9A C6A 1_555 1_555
H9A C9A 1_555 1_555
H10A C9A 1_555 1_555
C10A O4A 1_555 1_555
C11B H11B 1_555 1_555
C12B C11B 1_555 1_555
H12B C12B 1_555 1_555
C13B C12B 1_555 1_555
C14B C13B 1_555 1_555
H13B C14B 1_555 1_555
C15B N1B 1_555 1_555
H14B C15B 1_555 1_555
C16B C13B 1_555 1_555
H15B C16B 1_555 1_555
H16B C16B 1_555 1_555
C17B C18 1_555 1_555
H17B C17B 1_555 1_555
H18B C17B 1_555 1_555
C18B C17 1_555 1_555
H19B C18B 1_555 1_555
H20B C18B 1_555 1_555
C5 C6 1_555 1_555
C14 C15 1_555 1_555
O5A C10A 1_555 1_555
N2B C17B 1_555 1_555
N2B C18B 1_555 1_555
C5A C6A 1_555 1_555
C9A C10A 1_555 1_555
C14B C15B 1_555 1_555

#END
