
#######################################################################
#
#                 Cambridge Crystallographic Data Centre
#                                CCDC 
#
#######################################################################
#
# If this CIF has been generated from an entry in the Cambridge 
# Structural Database, then it will include bibliographic, chemical, 
# crystal, experimental, refinement or atomic coordinate data resulting 
# from the CCDC's data processing and validation procedures.
#
#######################################################################

data_QUTNID
_symmetry_cell_setting           orthorhombic
_symmetry_space_group_name_H-M   'P b c a'
_symmetry_Int_Tables_number      61
_space_group_name_Hall           '-P 2ac 2ab'
loop_
_symmetry_equiv_pos_site_id
_symmetry_equiv_pos_as_xyz
1 x,y,z
2 1/2-x,-y,1/2+z
3 1/2+x,1/2-y,-z
4 -x,1/2+y,1/2-z
5 -x,-y,-z
6 1/2+x,y,1/2-z
7 1/2-x,1/2+y,z
8 x,1/2-y,1/2+z
_cell_length_a                   8.60953(13)
_cell_length_b                   9.89223(14)
_cell_length_c                   11.73140(16)
_cell_angle_alpha                90
_cell_angle_beta                 90
_cell_angle_gamma                90
_cell_volume                     999.133
loop_
_atom_site_label
_atom_site_type_symbol
_atom_site_fract_x
_atom_site_fract_y
_atom_site_fract_z
Cu1 Cu 0.11464(15) 0.08953(13) 0.08884(9)
P1 P -0.21764(24) 0.20849(22) 0.07618(21)
O1 O -0.0835(5) 0.1439(4) 0.01365(34)
O2 O -0.3647(5) 0.1160(4) 0.06162(33)
O3 O -0.2511(5) 0.3540(4) 0.0405(4)
C1 C -0.1695(6) 0.2147(6) 0.2291(4)
C2 C -0.1221(8) 0.0717(6) 0.2634(6)
O4 O -0.0098(6) 0.0128(5) 0.2215(4)
O5 O -0.1978(6) 0.0074(5) 0.3380(4)
O6 O -0.3008(5) 0.2553(5) 0.2912(4)
O1D O 0.0835(5) -0.1439(4) -0.01365(34)
O3B O 0.2489(5) 0.1460(4) -0.0405(4)
O5E O 0.3022(6) 0.0074(5) 0.1620(4)
O6E O 0.1992(5) 0.2553(5) 0.2088(4)
Cu1D Cu -0.11464(15) -0.08953(13) -0.08884(9)
Cu1B Cu -0.38536(15) 0.41047(13) -0.08884(9)
Cu1E Cu -0.38536(15) 0.08953(13) 0.41116(9)
loop_
_geom_bond_atom_site_label_1
_geom_bond_atom_site_label_2
_geom_bond_site_symmetry_1
_geom_bond_site_symmetry_2
Cu1 O1 1_555 1_555
P1 O1 1_555 1_555
O1 Cu1D 1_555 1_555
O2 P1 1_555 1_555
O3 P1 1_555 1_555
C1 P1 1_555 1_555
C2 C1 1_555 1_555
O4 Cu1 1_555 1_555
O5 C2 1_555 1_555
O6 C1 1_555 1_555
O1D Cu1 1_555 1_555
O3B Cu1 1_555 1_555
O5E Cu1 1_555 1_555
O6E Cu1 1_555 1_555
Cu1D O1D 1_555 1_555
Cu1B O3 1_555 1_555
Cu1E O5 1_555 1_555
C2 O4 1_555 1_555
O6 Cu1E 1_555 1_555

#END
