
#######################################################################
#
#                 Cambridge Crystallographic Data Centre
#                                CCDC 
#
#######################################################################
#
# If this CIF has been generated from an entry in the Cambridge 
# Structural Database, then it will include bibliographic, chemical, 
# crystal, experimental, refinement or atomic coordinate data resulting 
# from the CCDC's data processing and validation procedures.
#
#######################################################################

data_QUTQUS
_symmetry_cell_setting           triclinic
_symmetry_space_group_name_H-M   'P -1'
_symmetry_Int_Tables_number      2
_space_group_name_Hall           '-P 1'
loop_
_symmetry_equiv_pos_site_id
_symmetry_equiv_pos_as_xyz
1 x,y,z
2 -x,-y,-z
_cell_length_a                   11.001(4)
_cell_length_b                   11.917(4)
_cell_length_c                   13.102(6)
_cell_angle_alpha                107.45(1)
_cell_angle_beta                 111.97(1)
_cell_angle_gamma                94.28(2)
_cell_volume                     1485.35
loop_
_atom_site_label
_atom_site_type_symbol
_atom_site_fract_x
_atom_site_fract_y
_atom_site_fract_z
Ag1 Ag 0.87565(2) 0.47612(2) 0.19829(2)
Ag2 Ag 0.88056(2) 1.36986(2) 0.87410(2)
S1 S 0.86947(6) 0.66078(6) 0.34158(6)
S2 S 0.85625(7) 1.18869(6) 0.71434(6)
S3 S 0.76688(7) 0.25922(6) 0.12127(6)
F1 F 1.2260(2) 0.2281(1) 0.0821(2)
F2 F 1.3061(2) 0.3442(2) 0.2662(2)
F3 F 1.3612(2) 0.5372(1) 0.2134(1)
F4 F 1.4438(2) 0.3874(2) 0.1449(2)
O1 O 1.1003(2) 0.4616(2) 0.2167(2)
O2 O 1.0039(2) 0.3061(2) 0.0444(2)
O3 O 1.2963(3) 0.3787(3) -0.0687(2)
O4 O 1.1679(2) 0.4925(2) -0.0074(2)
C1 C 0.9654(3) 0.6580(3) 0.4887(2)
C2 C 0.9850(3) 0.7754(2) 0.5834(2)
C3 C 1.0336(3) 0.8836(2) 0.5775(2)
C4 C 1.0305(3) 0.9918(2) 0.6524(2)
C5 C 0.9796(3) 0.9948(2) 0.7345(2)
C6 C 0.9460(3) 0.8884(3) 0.7497(2)
C7 C 0.9479(3) 0.7795(3) 0.6740(2)
C8 C 0.9602(3) 1.1115(3) 0.8055(3)
C9 C 0.6840(3) 1.0990(3) 0.6470(3)
C10 C 0.6669(3) 0.9796(2) 0.5548(2)
C11 C 0.6476(3) 0.8734(2) 0.5756(2)
C12 C 0.6513(3) 0.7649(3) 0.4997(3)
C13 C 0.6731(3) 0.7603(2) 0.4015(2)
C14 C 0.6805(3) 0.8644(3) 0.3751(2)
C15 C 0.6769(3) 0.9730(3) 0.4506(2)
C16 C 0.6966(3) 0.6465(3) 0.3285(3)
C17 C 0.6848(3) 0.2394(2) 0.2142(2)
C18 C 0.6099(3) 0.1123(2) 0.1772(2)
C19 C 0.4813(3) 0.0914(3) 0.1716(2)
C20 C 0.4057(3) -0.0248(3) 0.1240(2)
C21 C 0.4569(3) -0.1226(2) 0.0826(2)
C22 C 0.5890(3) -0.1021(3) 0.0959(2)
C23 C 0.6641(3) 0.0142(3) 0.1425(2)
C24 C 0.6289(3) 0.2476(3) -0.0166(3)
C25 C 1.0988(3) 0.3709(2) 0.1353(2)
C26 C 1.2388(3) 0.3413(2) 0.1540(2)
C27 C 1.3271(3) 0.4259(2) 0.1294(2)
C28 C 1.2594(3) 0.4326(3) 0.0053(3)
H1 H 0.923(3) 0.588(3) 0.498(3)
H2 H 1.043(3) 0.641(3) 0.483(3)
H3 H 1.063(3) 0.881(3) 0.518(3)
H4 H 1.053(3) 1.058(3) 0.644(2)
H5 H 0.916(3) 0.890(3) 0.803(3)
H6 H 0.921(3) 0.707(3) 0.679(3)
H7 H 1.043(3) 1.169(3) 0.846(3)
H8 H 0.923(3) 1.102(2) 0.857(2)
H9 H 0.663(3) 1.089(3) 0.709(3)
H10 H 0.635(3) 1.147(3) 0.613(2)
H11 H 0.640(3) 0.874(2) 0.645(3)
H12 H 0.645(3) 0.696(3) 0.516(2)
H13 H 0.689(3) 0.863(2) 0.308(3)
H14 H 0.684(3) 1.042(3) 0.431(3)
H15 H 0.673(3) 0.578(3) 0.348(2)
H16 H 0.646(3) 0.630(3) 0.247(3)
H17 H 0.626(2) 0.292(2) 0.220(2)
H18 H 0.759(3) 0.264(3) 0.292(3)
H19 H 0.444(3) 0.152(3) 0.193(2)
H20 H 0.318(3) -0.036(3) 0.114(3)
H21 H 0.627(3) -0.166(3) 0.070(3)
H22 H 0.748(3) 0.027(3) 0.147(3)
H23 H 0.676(3) 0.265(3) -0.057(3)
H24 H 0.578(3) 0.308(3) 0.000(3)
Ag1A Ag 0.12435(2) -0.47612(2) -0.19829(2)
Ag1A_2 Ag 1.12435(2) 1.52388(2) 0.80171(2)
Ag2A Ag 1.11944(2) 0.63014(2) 0.12590(2)
Ag2A_2 Ag 0.11944(2) -1.36986(2) -0.87410(2)
S1A S 0.13053(6) -0.66078(6) -0.34158(6)
S2A S 0.14375(7) -1.18869(6) -0.71434(6)
S2A_2 S 1.14375(7) 0.81131(6) 0.28566(6)
S3A S 0.23312(7) -0.25922(6) -0.12127(6)
F1A F 0.7740(2) 1.7719(1) 0.9179(2)
F2A F 0.6939(2) 1.6558(2) 0.7338(2)
F3A F 0.6388(2) 1.4628(1) 0.7866(1)
F4A F 0.5562(2) 1.6126(2) 0.8551(2)
O1A O 0.8997(2) 1.5384(2) 0.7833(2)
O1A_2 O -0.1003(2) -0.4616(2) -0.2167(2)
O2A O 0.9961(2) 1.6939(2) 0.9556(2)
O3A O 0.7037(3) 1.6213(3) 1.0687(2)
O4A O 0.8321(2) 1.5075(2) 1.0074(2)
C1A C 0.0346(3) -0.6580(3) -0.4887(2)
C2A C 0.0150(3) -0.7754(2) -0.5834(2)
C3A C -0.0336(3) -0.8836(2) -0.5775(2)
C4A C -0.0305(3) -0.9918(2) -0.6524(2)
C5A C 0.0204(3) -0.9948(2) -0.7345(2)
C6A C 0.0540(3) -0.8884(3) -0.7497(2)
C7A C 0.0521(3) -0.7795(3) -0.6740(2)
C8A C 0.0398(3) -1.1115(3) -0.8055(3)
C9A C 0.3160(3) -1.0990(3) -0.6470(3)
C10A C 0.3331(3) -0.9796(2) -0.5548(2)
C11A C 0.3524(3) -0.8734(2) -0.5756(2)
C12A C 0.3487(3) -0.7649(3) -0.4997(3)
C13A C 0.3269(3) -0.7603(2) -0.4015(2)
C14A C 0.3195(3) -0.8644(3) -0.3751(2)
C15A C 0.3231(3) -0.9730(3) -0.4506(2)
C16A C 0.3034(3) -0.6465(3) -0.3285(3)
C17A C 0.3152(3) -0.2394(2) -0.2142(2)
C18A C 0.3901(3) -0.1123(2) -0.1772(2)
C19A C 0.5187(3) -0.0914(3) -0.1716(2)
C20A C 0.5943(3) 0.0248(3) -0.1240(2)
C21A C 0.5431(3) 0.1226(2) -0.0826(2)
C22A C 0.4110(3) 0.1021(3) -0.0959(2)
C23A C 0.3359(3) -0.0142(3) -0.1425(2)
C24A C 0.3711(3) -0.2476(3) 0.0166(3)
C25A C 0.9012(3) 1.6291(2) 0.8647(2)
C26A C 0.7612(3) 1.6587(2) 0.8460(2)
C27A C 0.6729(3) 1.5741(2) 0.8706(2)
C28A C 0.7406(3) 1.5674(3) 0.9947(3)
H1A H 0.077(3) -0.588(3) -0.498(3)
H2A H -0.043(3) -0.641(3) -0.483(3)
H3A H -0.063(3) -0.881(3) -0.518(3)
H4A H -0.053(3) -1.058(3) -0.644(2)
H5A H 0.084(3) -0.890(3) -0.803(3)
H6A H 0.079(3) -0.707(3) -0.679(3)
H7A H -0.043(3) -1.169(3) -0.846(3)
H8A H 0.077(3) -1.102(2) -0.857(2)
H9A H 0.337(3) -1.089(3) -0.709(3)
H10A H 0.365(3) -1.147(3) -0.613(2)
H11A H 0.360(3) -0.874(2) -0.645(3)
H12A H 0.355(3) -0.696(3) -0.516(2)
H13A H 0.311(3) -0.863(2) -0.308(3)
H14A H 0.316(3) -1.042(3) -0.431(3)
H15A H 0.327(3) -0.578(3) -0.348(2)
H16A H 0.354(3) -0.630(3) -0.247(3)
H17A H 0.374(2) -0.292(2) -0.220(2)
H18A H 0.241(3) -0.264(3) -0.292(3)
H19A H 0.556(3) -0.152(3) -0.193(2)
H20A H 0.682(3) 0.036(3) -0.114(3)
H21A H 0.373(3) 0.166(3) -0.070(3)
H22A H 0.252(3) -0.027(3) -0.147(3)
H23A H 0.324(3) -0.265(3) 0.057(3)
H24A H 0.422(3) -0.308(3) 0.000(3)
O5 O 0.7643(2) 0.4554(2) 0.5368(2)
C29 C 0.6423(5) 0.3790(6) 0.4975(4)
H25 H 0.682(7) 0.314(6) 0.503(6)
H26 H 0.578(5) 0.374(4) 0.424(5)
H27 H 0.610(6) 0.378(5) 0.549(5)
H28 H 0.803(5) 0.479(4) 0.614(4)
loop_
_geom_bond_atom_site_label_1
_geom_bond_atom_site_label_2
_geom_bond_site_symmetry_1
_geom_bond_site_symmetry_2
Ag1 S1 1_555 1_555
Ag2 S2 1_555 1_555
S1 C1 1_555 1_555
S2 C8 1_555 1_555
S3 Ag1 1_555 1_555
F1 C26 1_555 1_555
F2 C26 1_555 1_555
F3 C27 1_555 1_555
F4 C27 1_555 1_555
O1 Ag1 1_555 1_555
O2 C25 1_555 1_555
O3 C28 1_555 1_555
O4 C28 1_555 1_555
O5 C29 1_555 1_555
C1 C2 1_555 1_555
C2 C3 1_555 1_555
C3 C4 1_555 1_555
C4 C5 1_555 1_555
C5 C6 1_555 1_555
C6 C7 1_555 1_555
C7 C2 1_555 1_555
C8 C5 1_555 1_555
C9 S2 1_555 1_555
C10 C9 1_555 1_555
C11 C10 1_555 1_555
C12 C11 1_555 1_555
C13 C12 1_555 1_555
C14 C13 1_555 1_555
C15 C10 1_555 1_555
C16 S1 1_555 1_555
C17 S3 1_555 1_555
C18 C17 1_555 1_555
C19 C18 1_555 1_555
C20 C19 1_555 1_555
C21 C20 1_555 1_555
C22 C21 1_555 1_555
C23 C18 1_555 1_555
C24 S3 1_555 1_555
C25 O1 1_555 1_555
C26 C25 1_555 1_555
C27 C26 1_555 1_555
C28 C27 1_555 1_555
C29 H25 1_555 1_555
H1 C1 1_555 1_555
H2 C1 1_555 1_555
H3 C3 1_555 1_555
H4 C4 1_555 1_555
H5 C6 1_555 1_555
H6 C7 1_555 1_555
H7 C8 1_555 1_555
H8 C8 1_555 1_555
H9 C9 1_555 1_555
H10 C9 1_555 1_555
H11 C11 1_555 1_555
H12 C12 1_555 1_555
H13 C14 1_555 1_555
H14 C15 1_555 1_555
H15 C16 1_555 1_555
H16 C16 1_555 1_555
H17 C17 1_555 1_555
H18 C17 1_555 1_555
H19 C19 1_555 1_555
H20 C20 1_555 1_555
H21 C22 1_555 1_555
H22 C23 1_555 1_555
H23 C24 1_555 1_555
H24 C24 1_555 1_555
H26 C29 1_555 1_555
H27 C29 1_555 1_555
H28 O5 1_555 1_555
Ag1A S1A 1_555 1_555
Ag1A_2 O1A 1_555 1_555
Ag2A O4 1_555 1_555
Ag2A_2 S2A 1_555 1_555
S1A C1A 1_555 1_555
S2A C8A 1_555 1_555
S2A_2 Ag2A 1_555 1_555
S3A Ag1A 1_555 1_555
F1A C26A 1_555 1_555
F2A C26A 1_555 1_555
F3A C27A 1_555 1_555
F4A C27A 1_555 1_555
O1A C25A 1_555 1_555
O1A_2 Ag1A 1_555 1_555
O2A C25A 1_555 1_555
O3A C28A 1_555 1_555
O4A Ag2 1_555 1_555
C1A C2A 1_555 1_555
C2A C3A 1_555 1_555
C3A C4A 1_555 1_555
C4A C5A 1_555 1_555
C5A C6A 1_555 1_555
C6A C7A 1_555 1_555
C7A C2A 1_555 1_555
C8A C5A 1_555 1_555
C9A S2A 1_555 1_555
C10A C9A 1_555 1_555
C11A C10A 1_555 1_555
C12A C11A 1_555 1_555
C13A C12A 1_555 1_555
C14A C13A 1_555 1_555
C15A C10A 1_555 1_555
C16A S1A 1_555 1_555
C17A S3A 1_555 1_555
C18A C17A 1_555 1_555
C19A C18A 1_555 1_555
C20A C19A 1_555 1_555
C21A C24 1_555 1_555
C22A C21A 1_555 1_555
C23A C18A 1_555 1_555
C24A C21 1_555 1_555
C25A C26A 1_555 1_555
C26A C27A 1_555 1_555
C27A C28A 1_555 1_555
C28A O4A 1_555 1_555
H1A C1A 1_555 1_555
H2A C1A 1_555 1_555
H3A C3A 1_555 1_555
H4A C4A 1_555 1_555
H5A C6A 1_555 1_555
H6A C7A 1_555 1_555
H7A C8A 1_555 1_555
H8A C8A 1_555 1_555
H9A C9A 1_555 1_555
H10A C9A 1_555 1_555
H11A C11A 1_555 1_555
H12A C12A 1_555 1_555
H13A C14A 1_555 1_555
H14A C15A 1_555 1_555
H15A C16A 1_555 1_555
H16A C16A 1_555 1_555
H17A C17A 1_555 1_555
H18A C17A 1_555 1_555
H19A C19A 1_555 1_555
H20A C20A 1_555 1_555
H21A C22A 1_555 1_555
H22A C23A 1_555 1_555
H23A C24A 1_555 1_555
H24A C24A 1_555 1_555
C13 C16 1_555 1_555
C14 C15 1_555 1_555
C22 C23 1_555 1_555
S3A C24A 1_555 1_555
C13A C16A 1_555 1_555
C14A C15A 1_555 1_555
C20A C21A 1_555 1_555
C22A C23A 1_555 1_555

#END
