
#######################################################################
#
#                 Cambridge Crystallographic Data Centre
#                                CCDC 
#
#######################################################################
#
# If this CIF has been generated from an entry in the Cambridge 
# Structural Database, then it will include bibliographic, chemical, 
# crystal, experimental, refinement or atomic coordinate data resulting 
# from the CCDC's data processing and validation procedures.
#
#######################################################################

data_QUTQEC
_symmetry_cell_setting           monoclinic
_symmetry_space_group_name_H-M   'P 21'
_symmetry_Int_Tables_number      4
_space_group_name_Hall           'P 2yb'
loop_
_symmetry_equiv_pos_site_id
_symmetry_equiv_pos_as_xyz
1 x,y,z
2 -x,1/2+y,-z
_cell_length_a                   10.2795(3)
_cell_length_b                   7.6167(2)
_cell_length_c                   13.5752(4)
_cell_angle_alpha                90
_cell_angle_beta                 98.9960(10)
_cell_angle_gamma                90
_cell_volume                     1049.81
loop_
_atom_site_label
_atom_site_type_symbol
_atom_site_fract_x
_atom_site_fract_y
_atom_site_fract_z
Zn1 Zn 0.30992(3) 0.10908(4) 0.96806(2)
O1 O 0.3620(2) 0.3183(3) 0.89794(18)
O2 O 0.5044(2) 0.5410(3) 0.98165(17)
O3 O 0.27558(18) 0.5981(4) 0.93552(16)
O4 O 0.1334(2) 0.3746(3) 0.85880(19)
O5 O 0.2866(2) 0.5219(3) 0.76474(18)
O6 O -0.0752(3) 0.2671(5) 0.7962(2)
H1 H -0.0682 0.2413 0.8554
O7 O 0.0457(3) 0.4089(6) 0.6867(3)
H2 H 0.1177 0.4552 0.6866
O8 O 0.4435(2) 0.6238(5) 0.66593(18)
H3 H 0.3758 0.6612 0.6325
O9 O 0.5154(2) 0.4639(3) 0.81053(18)
O10 O 0.6014(2) 0.2741(3) 0.94262(19)
N1 N 0.2048(3) -0.0379(4) 0.8624(2)
H4 H 0.2124 -0.1511 0.8815
H5 H 0.1194 -0.0080 0.8581
N2 N 0.2363(3) -0.8425(4) 0.0938(3)
N3 N 0.2465(3) -0.1757(4) 0.5337(2)
N4 N 0.2740(3) -0.3691(5) 0.3537(2)
B1 B 0.4950(3) 0.3906(4) 0.9049(3)
B2 B 0.2624(3) 0.4532(5) 0.8632(3)
B3 B 0.3935(3) 0.6393(4) 0.9923(3)
B4 B 0.0361(4) 0.3539(5) 0.7792(3)
B5 B 0.4127(3) 0.5347(5) 0.7467(3)
C1 C 0.2427(4) -0.0232(5) 0.7623(3)
C2 C 0.1353(4) -0.0795(5) 0.6789(3)
H6 H 0.1207 -0.2048 0.6838
H7 H 0.0540 -0.0199 0.6862
C3 C 0.1706(4) -0.0384(5) 0.5777(3)
H8 H 0.0897 -0.0168 0.5320
H9 H 0.2213 0.0695 0.5828
C4 C 0.1591(4) -0.3220(5) 0.4957(3)
C5 C 0.2289(4) -0.4552(5) 0.4390(3)
C6 C 0.3662(4) -0.2310(6) 0.3933(3)
C7 C 0.3009(4) -0.0959(6) 0.4497(3)
C8 C 0.2985(4) -0.6863(5) 0.1459(3)
C9 C 0.2506(5) -0.6346(6) 0.2429(4)
C10 C 0.3390(4) -0.4914(6) 0.2934(3)
H10 H 0.259(3) 0.098(7) 0.761(3)
H11 H 0.127(4) -0.382(7) 0.552(3)
H12 H 0.367(4) -0.425(5) 0.241(3)
H13 H 0.425(7) -0.529(9) 0.339(6)
H14 H 0.269(6) -0.569(10) 0.109(5)
H15 H 0.385(4) -0.184(6) 0.354(4)
H16 H 0.444(5) -0.256(6) 0.425(4)
H17 H 0.154(4) -0.590(5) 0.230(3)
H18 H 0.317(3) -0.093(4) 0.767(2)
H19 H 0.420(5) -0.696(7) 0.156(4)
H20 H 0.184(4) -0.537(5) 0.424(3)
H21 H 0.080(6) -0.286(7) 0.466(4)
H22 H 0.298(4) -0.514(6) 0.485(3)
H23 H 0.150(4) -0.828(4) 0.071(3)
H24 H 0.219(5) 0.002(6) 0.405(4)
H25 H 0.372(5) 0.016(7) 0.467(4)
H26 H 0.244(5) -0.722(7) 0.299(4)
H27 H 0.258(4) -0.958(6) 0.114(3)
Zn1A Zn 0.69008(3) 0.60908(4) 1.03194(2)
Zn1_2 Zn 0.30992(3) -0.89092(4) -0.03194(2)
O2A O 0.4956(2) 0.0410(3) 1.01835(17)
O3A O 0.72442(18) 0.0981(4) 1.06448(16)
O10A O 0.3986(2) 0.7741(3) 1.05738(19)
N2_2 N 0.2363(3) 0.1575(4) 1.0938(3)
B1A B 0.5050(3) 0.8906(4) 1.0951(3)
B3A B 0.6065(3) 0.1393(4) 1.0077(3)
H23_2 H 0.150(4) 0.172(4) 1.071(3)
H27_2 H 0.258(4) 0.042(6) 1.114(3)
O11 O -0.0272(6) 0.1450(10) 0.9901(5)
loop_
_geom_bond_atom_site_label_1
_geom_bond_atom_site_label_2
_geom_bond_site_symmetry_1
_geom_bond_site_symmetry_2
Zn1 O1 1_555 1_555
O1 B1 1_555 1_555
O2 B1 1_555 1_555
O3 B2 1_555 1_555
O4 B2 1_555 1_555
O5 B2 1_555 1_555
O6 H1 1_555 1_555
O7 H2 1_555 1_555
O8 H3 1_555 1_555
O9 B1 1_555 1_555
O10 B1 1_555 1_555
N1 Zn1 1_555 1_555
H4 N1 1_555 1_555
H5 N1 1_555 1_555
N2 C8 1_555 1_555
N3 C3 1_555 1_555
N4 C5 1_555 1_555
B2 O1 1_555 1_555
B3 O2 1_555 1_555
B4 O4 1_555 1_555
B5 O5 1_555 1_555
C1 N1 1_555 1_555
C2 C1 1_555 1_555
H6 C2 1_555 1_555
H7 C2 1_555 1_555
C3 C2 1_555 1_555
H8 C3 1_555 1_555
H9 C3 1_555 1_555
C4 N3 1_555 1_555
C5 C4 1_555 1_555
C6 N4 1_555 1_555
C7 N3 1_555 1_555
C8 C9 1_555 1_555
C9 C10 1_555 1_555
C10 N4 1_555 1_555
H10 C1 1_555 1_555
H11 C4 1_555 1_555
H12 C10 1_555 1_555
H13 C10 1_555 1_555
H14 C8 1_555 1_555
H15 C6 1_555 1_555
H16 C6 1_555 1_555
H17 C9 1_555 1_555
H18 C1 1_555 1_555
H19 C8 1_555 1_555
H20 C5 1_555 1_555
H21 C4 1_555 1_555
H22 C5 1_555 1_555
H23 N2 1_555 1_555
H24 C7 1_555 1_555
H25 C7 1_555 1_555
H26 C9 1_555 1_555
H27 N2 1_555 1_555
Zn1A O2 1_555 1_555
Zn1_2 N2 1_555 1_555
O2A Zn1 1_555 1_555
O3A B3A 1_555 1_555
O10A B3 1_555 1_555
N2_2 Zn1 1_555 1_555
B1A O10A 1_555 1_555
B3A O10 1_555 1_555
H23_2 N2_2 1_555 1_555
H27_2 N2_2 1_555 1_555
O3 B3 1_555 1_555
O6 B4 1_555 1_555
O7 B4 1_555 1_555
O8 B5 1_555 1_555
O9 B5 1_555 1_555
C6 C7 1_555 1_555
O2A B3A 1_555 1_555

#END
