
#######################################################################
#
#                 Cambridge Crystallographic Data Centre
#                                CCDC 
#
#######################################################################
#
# If this CIF has been generated from an entry in the Cambridge 
# Structural Database, then it will include bibliographic, chemical, 
# crystal, experimental, refinement or atomic coordinate data resulting 
# from the CCDC's data processing and validation procedures.
#
#######################################################################

data_QUTQAY
_symmetry_cell_setting           monoclinic
_symmetry_space_group_name_H-M   'P 21/n'
_symmetry_Int_Tables_number      14
_space_group_name_Hall           '-P 2yn'
loop_
_symmetry_equiv_pos_site_id
_symmetry_equiv_pos_as_xyz
1 x,y,z
2 1/2-x,1/2+y,1/2-z
3 -x,-y,-z
4 1/2+x,1/2-y,1/2+z
_cell_length_a                   10.6780(3)
_cell_length_b                   7.9509(2)
_cell_length_c                   13.6214(3)
_cell_angle_alpha                90
_cell_angle_beta                 108.1650(10)
_cell_angle_gamma                90
_cell_volume                     1098.82
loop_
_atom_site_label
_atom_site_type_symbol
_atom_site_fract_x
_atom_site_fract_y
_atom_site_fract_z
Zn1 Zn 0.92343(2) 0.24856(3) 0.229979(17)
O1 O 0.84251(13) 0.45870(18) 0.17061(10)
O2 O 0.73260(13) 0.68392(19) 0.22543(11)
O3 O 1.05076(14) 0.5045(2) 0.14598(11)
H1 H 1.0430 0.4139 0.1160
O4 O 0.93376(14) 0.73664(17) 0.18872(11)
O5 O 0.87202(14) 0.91661(18) 0.30166(10)
O6 O 0.85283(14) 0.6072(2) 0.01905(10)
O7 O 0.64546(14) 0.57011(19) 0.05298(11)
O8 O 0.65487(16) 0.6231(2) -0.11587(11)
H2 H 0.5749 0.6156 -0.1276
B1 B 0.9231(2) 0.5773(3) 0.12958(16)
B2 B 0.8460(2) 0.7790(3) 0.23840(17)
B3 B 0.7128(2) 0.5249(3) 0.16015(16)
B4 B 0.7175(2) 0.6000(3) -0.01184(17)
N1 N 1.06999(19) 0.2596(3) 0.36437(15)
N2 N 1.44654(18) 0.3947(3) 0.61517(14)
C1 C 1.1038(3) 0.4277(3) 0.41098(17)
C2 C 1.2098(2) 0.4277(3) 0.51593(17)
C3 C 1.3447(2) 0.3763(4) 0.51206(16)
H3 H 1.177(3) 0.353(3) 0.560(2)
H4 H 1.525(3) 0.363(3) 0.6141(17)
H5 H 1.366(3) 0.436(4) 0.465(2)
H6 H 1.027(3) 0.473(4) 0.413(2)
H7 H 1.448(3) 0.498(4) 0.633(2)
H8 H 1.214(3) 0.535(4) 0.544(2)
H9 H 1.133(3) 0.497(3) 0.361(2)
H10 H 1.346(3) 0.262(4) 0.488(3)
H11 H 1.138(4) 0.218(4) 0.354(3)
H12 H 1.043(3) 0.203(4) 0.403(2)
Zn1A Zn 0.57657(2) 0.74856(3) 0.270021(17)
Zn1C Zn 1.42343(2) 0.25144(3) 0.729979(17)
O1A O 0.65749(13) 0.95870(18) 0.32939(10)
O2A O 0.76740(13) 0.18392(19) 0.27457(11)
O2A_2 O 0.76740(13) 1.18392(19) 0.27457(11)
O5A O 0.62798(14) 0.41661(18) 0.19834(10)
O7A O 0.85454(14) 1.07011(19) 0.44702(11)
B2A B 0.6540(2) 0.2790(3) 0.26160(17)
B3A B 0.7872(2) 1.0249(3) 0.33985(16)
N2C N 0.94654(18) 0.1053(3) 0.11517(14)
H4C H 1.025(3) 0.137(3) 0.1141(17)
H7C H 0.948(3) 0.002(4) 0.133(2)
O9 O 1.23099(19) 0.1756(3) 0.23630(17)
H13 H 1.261(4) 0.243(4) 0.215(3)
H14 H 1.299(4) 0.118(5) 0.270(3)
loop_
_geom_bond_atom_site_label_1
_geom_bond_atom_site_label_2
_geom_bond_site_symmetry_1
_geom_bond_site_symmetry_2
Zn1 O1 1_555 1_555
O1 B1 1_555 1_555
O2 B2 1_555 1_555
O3 H1 1_555 1_555
O4 B1 1_555 1_555
O5 B2 1_555 1_555
O6 B1 1_555 1_555
O7 B3 1_555 1_555
O8 H2 1_555 1_555
B1 O3 1_555 1_555
B2 O4 1_555 1_555
B3 O1 1_555 1_555
B4 O6 1_555 1_555
N1 Zn1 1_555 1_555
N2 C3 1_555 1_555
C1 N1 1_555 1_555
C2 C1 1_555 1_555
C3 C2 1_555 1_555
O9 H13 1_555 1_555
H3 C2 1_555 1_555
H4 N2 1_555 1_555
H5 C3 1_555 1_555
H6 C1 1_555 1_555
H7 N2 1_555 1_555
H8 C2 1_555 1_555
H9 C1 1_555 1_555
H10 C3 1_555 1_555
H11 N1 1_555 1_555
H12 N1 1_555 1_555
H14 O9 1_555 1_555
Zn1A O2 1_555 1_555
Zn1C N2 1_555 1_555
O1A Zn1A 1_555 1_555
O2A Zn1 1_555 1_555
O2A_2 B3A 1_555 1_555
O5A B3 1_555 1_555
O7A B3A 1_555 1_555
B2A O2A 1_555 1_555
B3A O5 1_555 1_555
N2C Zn1 1_555 1_555
H4C N2C 1_555 1_555
H7C N2C 1_555 1_555
O2 B3 1_555 1_555
O7 B4 1_555 1_555
O8 B4 1_555 1_555
O1A B3A 1_555 1_555
O5A B2A 1_555 1_555

#END
