
#######################################################################
#
#                 Cambridge Crystallographic Data Centre
#                                CCDC 
#
#######################################################################
#
# If this CIF has been generated from an entry in the Cambridge 
# Structural Database, then it will include bibliographic, chemical, 
# crystal, experimental, refinement or atomic coordinate data resulting 
# from the CCDC's data processing and validation procedures.
#
#######################################################################

data_QUTSOO
_symmetry_cell_setting           triclinic
_symmetry_space_group_name_H-M   'P -1'
_symmetry_Int_Tables_number      2
_space_group_name_Hall           '-P 1'
loop_
_symmetry_equiv_pos_site_id
_symmetry_equiv_pos_as_xyz
1 x,y,z
2 -x,-y,-z
_cell_length_a                   8.072(3)
_cell_length_b                   9.557(4)
_cell_length_c                   10.500(4)
_cell_angle_alpha                110.674(4)
_cell_angle_beta                 91.683(5)
_cell_angle_gamma                103.008(5)
_cell_volume                     733.123
loop_
_atom_site_label
_atom_site_type_symbol
_atom_site_fract_x
_atom_site_fract_y
_atom_site_fract_z
Co1 Co 0.15561(5) 0.98077(4) 0.14159(4)
O1 O 0.2487(3) 0.8512(2) 0.2724(2)
O2 O 0.4140(3) 1.0140(2) 0.1994(2)
O3 O 0.7756(3) 0.8650(2) -0.0469(2)
O4 O 0.9072(3) 0.8926(2) 0.1536(2)
N1 N 0.1538(3) 0.7840(3) -0.0418(2)
N2 N 0.1441(3) 0.1702(3) -0.6743(2)
C1 C 0.2624(4) 0.8006(3) -0.1318(3)
H1 H 0.3446 0.8967 -0.1091
C2 C 0.2615(4) 0.6852(3) -0.2560(3)
H2 H 0.3412 0.7039 -0.3166
C3 C 0.1453(4) 0.5417(3) -0.2938(3)
C4 C 0.0344(4) 0.5233(3) -0.1976(3)
H3 H -0.0466 0.4274 -0.2161
C5 C 0.0434(4) 0.6450(3) -0.0759(3)
H4 H -0.0331 0.6295 -0.0123
C6 C 0.2434(4) 0.3120(3) -0.6445(3)
H5 H 0.3165 0.3300 -0.7094
C7 C 0.2454(4) 0.4343(4) -0.5244(3)
H6 H 0.3189 0.5331 -0.5085
C8 C 0.1407(4) 0.4136(3) -0.4266(3)
C9 C 0.0348(4) 0.2662(3) -0.4587(3)
H7 H -0.0418 0.2455 -0.3969
C10 C 0.0417(4) 0.1506(3) -0.5806(3)
H8 H -0.0309 0.0506 -0.5995
C11 C 0.3958(4) 0.9220(3) 0.2628(3)
C12 C 0.5566(4) 0.9000(4) 0.3223(3)
H9 H 0.5407 0.8988 0.4151
H10 H 0.6528 0.9896 0.3322
C13 C 0.6052(4) 0.7516(4) 0.2361(3)
H11 H 0.7198 0.7554 0.2780
C14 C 0.6221(4) 0.7376(3) 0.0873(3)
H12 H 0.6213 0.6293 0.0322
H13 H 0.5197 0.7592 0.0515
C15 C 0.7809(4) 0.8430(3) 0.0639(3)
C16 C 0.4792(5) 0.6096(4) 0.2416(4)
H14 H 0.4717 0.6202 0.3374
H15 H 0.5188 0.5172 0.1930
H16 H 0.3661 0.6000 0.1980
Co1A Co 0.84439(5) 1.01923(4) -0.14159(4)
Co1_2 Co 0.15561(5) -0.01923(4) -0.85841(4)
Co1_3 Co 1.15561(5) 0.98077(4) 0.14159(4)
Co1A_2 Co -0.15561(5) 1.01923(4) -0.14159(4)
Co1A_3 Co 0.84439(5) 2.01923(4) 0.85841(4)
O1A O 0.7513(3) 1.1488(2) -0.2724(2)
O2A O 0.5860(3) 0.9860(2) -0.1994(2)
O3A O 0.2244(3) 1.1350(2) 0.0469(2)
O4A O 0.0928(3) 1.1074(2) -0.1536(2)
O4_2 O -0.0928(3) 0.8926(2) 0.1536(2)
O4A_2 O 1.0928(3) 1.1074(2) -0.1536(2)
N1A N 0.8462(3) 1.2160(3) 0.0418(2)
N2A N 0.8559(3) 1.8298(3) 0.6743(2)
N2_2 N 0.1441(3) 1.1702(3) 0.3257(2)
N2A_2 N 0.8559(3) 0.8298(3) -0.3257(2)
C1A C 0.7376(4) 1.1994(3) 0.1318(3)
H1A H 0.6554 1.1033 0.1091
C2A C 0.7385(4) 1.3148(3) 0.2560(3)
H2A H 0.6588 1.2961 0.3166
C3A C 0.8547(4) 1.4583(3) 0.2938(3)
C4A C 0.9656(4) 1.4767(3) 0.1976(3)
H3A H 1.0466 1.5726 0.2161
C5A C 0.9566(4) 1.3550(3) 0.0759(3)
H4A H 1.0331 1.3705 0.0123
C6A C 0.7566(4) 1.6880(3) 0.6445(3)
H5A H 0.6835 1.6700 0.7094
C7A C 0.7546(4) 1.5657(4) 0.5244(3)
H6A H 0.6811 1.4669 0.5085
C8A C 0.8593(4) 1.5864(3) 0.4266(3)
C9A C 0.9652(4) 1.7338(3) 0.4587(3)
H7A H 1.0418 1.7545 0.3969
C10A C 0.9583(4) 1.8494(3) 0.5806(3)
H8A H 1.0309 1.9494 0.5995
C11A C 0.6042(4) 1.0780(3) -0.2628(3)
C12A C 0.4434(4) 1.1000(4) -0.3223(3)
H9A H 0.4593 1.1012 -0.4151
H10A H 0.3472 1.0104 -0.3322
C13A C 0.3948(4) 1.2484(4) -0.2361(3)
H11A H 0.2802 1.2446 -0.2780
C14A C 0.3779(4) 1.2624(3) -0.0873(3)
H12A H 0.3787 1.3707 -0.0322
H13A H 0.4803 1.2408 -0.0515
C15A C 0.2191(4) 1.1570(3) -0.0639(3)
C16A C 0.5208(5) 1.3904(4) -0.2416(4)
H14A H 0.5283 1.3798 -0.3374
H15A H 0.4812 1.4828 -0.1930
H16A H 0.6339 1.4000 -0.1980
loop_
_geom_bond_atom_site_label_1
_geom_bond_atom_site_label_2
_geom_bond_site_symmetry_1
_geom_bond_site_symmetry_2
Co1 O1 1_555 1_555
O1 C11 1_555 1_555
O2 Co1 1_555 1_555
O3 C15 1_555 1_555
O4 C15 1_555 1_555
N1 Co1 1_555 1_555
N2 C6 1_555 1_555
C1 N1 1_555 1_555
H1 C1 1_555 1_555
C2 C1 1_555 1_555
H2 C2 1_555 1_555
C3 C2 1_555 1_555
C4 C3 1_555 1_555
H3 C4 1_555 1_555
C5 N1 1_555 1_555
H4 C5 1_555 1_555
C6 H5 1_555 1_555
C7 C6 1_555 1_555
H6 C7 1_555 1_555
C8 C3 1_555 1_555
C9 C8 1_555 1_555
H7 C9 1_555 1_555
C10 N2 1_555 1_555
H8 C10 1_555 1_555
C11 O2 1_555 1_555
C12 C11 1_555 1_555
H9 C12 1_555 1_555
H10 C12 1_555 1_555
C13 C12 1_555 1_555
H11 C13 1_555 1_555
C14 C13 1_555 1_555
H12 C14 1_555 1_555
H13 C14 1_555 1_555
C15 C14 1_555 1_555
C16 C13 1_555 1_555
H14 C16 1_555 1_555
H15 C16 1_555 1_555
H16 C16 1_555 1_555
Co1A O3 1_555 1_555
Co1_2 N2 1_555 1_555
Co1_3 O4 1_555 1_555
Co1A_2 O4A 1_555 1_555
Co1A_3 N2A 1_555 1_555
O1A Co1A 1_555 1_555
O2A Co1A 1_555 1_555
O3A Co1 1_555 1_555
O4A C15A 1_555 1_555
O4_2 Co1 1_555 1_555
O4A_2 Co1A 1_555 1_555
N1A Co1A 1_555 1_555
N2A C6A 1_555 1_555
N2_2 Co1 1_555 1_555
N2A_2 Co1A 1_555 1_555
C1A N1A 1_555 1_555
H1A C1A 1_555 1_555
C2A C1A 1_555 1_555
H2A C2A 1_555 1_555
C3A C2A 1_555 1_555
C4A C3A 1_555 1_555
H3A C4A 1_555 1_555
C5A N1A 1_555 1_555
H4A C5A 1_555 1_555
C6A H5A 1_555 1_555
C7A C6A 1_555 1_555
H6A C7A 1_555 1_555
C8A C3A 1_555 1_555
C9A C8A 1_555 1_555
H7A C9A 1_555 1_555
C10A N2A 1_555 1_555
H8A C10A 1_555 1_555
C11A O1A 1_555 1_555
C12A C11A 1_555 1_555
H9A C12A 1_555 1_555
H10A C12A 1_555 1_555
C13A C12A 1_555 1_555
H11A C13A 1_555 1_555
C14A C13A 1_555 1_555
H12A C14A 1_555 1_555
H13A C14A 1_555 1_555
C15A O3A 1_555 1_555
C16A C13A 1_555 1_555
H14A C16A 1_555 1_555
H15A C16A 1_555 1_555
H16A C16A 1_555 1_555
C4 C5 1_555 1_555
C7 C8 1_555 1_555
C9 C10 1_555 1_555
O2A C11A 1_555 1_555
C4A C5A 1_555 1_555
C7A C8A 1_555 1_555
C9A C10A 1_555 1_555
C14A C15A 1_555 1_555

#END
