
#######################################################################
#
#                 Cambridge Crystallographic Data Centre
#                                CCDC 
#
#######################################################################
#
# If this CIF has been generated from an entry in the Cambridge 
# Structural Database, then it will include bibliographic, chemical, 
# crystal, experimental, refinement or atomic coordinate data resulting 
# from the CCDC's data processing and validation procedures.
#
#######################################################################

data_QUTTIJ
_symmetry_cell_setting           triclinic
_symmetry_space_group_name_H-M   'P -1'
_symmetry_Int_Tables_number      2
_space_group_name_Hall           '-P 1'
loop_
_symmetry_equiv_pos_site_id
_symmetry_equiv_pos_as_xyz
1 x,y,z
2 -x,-y,-z
_cell_length_a                   8.7387(7)
_cell_length_b                   8.7711(7)
_cell_length_c                   9.9516(8)
_cell_angle_alpha                94.527(1)
_cell_angle_beta                 105.030(1)
_cell_angle_gamma                103.127(1)
_cell_volume                     709.682
loop_
_atom_site_label
_atom_site_type_symbol
_atom_site_fract_x
_atom_site_fract_y
_atom_site_fract_z
Co1 Co -0.01821(2) 0.65929(2) 0.150033(18)
O1 O 0.15434(12) 0.72307(13) 0.04931(10)
O2 O 0.10970(13) 0.57562(11) -0.15694(10)
O3 O 0.17994(13) 1.28189(12) -0.26982(11)
O4 O 0.00085(12) 1.09312(12) -0.22119(11)
N1 N 0.17793(14) 0.65824(14) 0.33128(12)
N2 N 0.79426(14) 0.66491(14) 0.96252(12)
C1 C 0.16116(18) 0.54824(17) 0.41576(15)
H1 H 0.0610 0.4682 0.3913
C2 C 0.28043(18) 0.54394(17) 0.53615(15)
H2 H 0.2615 0.4622 0.5917
C3 C 0.42845(17) 0.65943(16) 0.57611(14)
C4 C 0.44775(19) 0.77229(19) 0.48659(16)
H3 H 0.5475 0.8525 0.5075
C5 C 0.32214(19) 0.76758(19) 0.36760(16)
H4 H 0.3387 0.8459 0.3084
C6 C 0.65466(18) 0.54963(18) 0.91580(16)
H5 H 0.6374 0.4670 0.9707
C7 C 0.53498(18) 0.54384(18) 0.79315(16)
H6 H 0.4385 0.4590 0.7655
C8 C 0.55558(17) 0.66305(16) 0.70923(15)
C9 C 0.69963(18) 0.78477(17) 0.75896(15)
H7 H 0.7195 0.8699 0.7071
C10 C 0.81291(18) 0.78114(17) 0.88345(15)
H8 H 0.9096 0.8656 0.9151
C11 C 0.15867(16) 0.70523(17) -0.07624(15)
C12 C 0.23144(19) 0.85117(17) -0.13358(16)
H9 H 0.3487 0.8577 -0.1228
H10 H 0.2255 0.9462 -0.0765
C13 C 0.14612(19) 0.85334(17) -0.28781(16)
H11 H 0.1758 0.7757 -0.3475
H12 H 0.0259 0.8205 -0.3039
C14 C 0.1925(2) 1.01616(18) -0.33176(16)
H13 H 0.3134 1.0559 -0.3016
H14 H 0.1555 1.0055 -0.4357
C15 C 0.11961(17) 1.13700(17) -0.27080(14)
Co1A Co 0.01821(2) 0.34071(2) -0.150033(18)
Co1_2 Co -0.01821(2) -0.34071(2) 0.150033(18)
Co1_3 Co 0.98179(2) 0.65929(2) 1.150033(18)
Co1A_2 Co -0.98179(2) 0.34071(2) -1.150033(18)
Co1A_3 Co 0.01821(2) 1.34071(2) -0.150033(18)
O1A O -0.15434(12) 0.27693(13) -0.04931(10)
O2A O -0.10970(13) 0.42438(11) 0.15694(10)
O3A O -0.17994(13) -0.28189(12) 0.26982(11)
O3_2 O 0.17994(13) 0.28189(12) -0.26982(11)
O3A_2 O -0.17994(13) 0.71811(12) 0.26982(11)
O4A O -0.00085(12) -0.09312(12) 0.22119(11)
O4_2 O 0.00085(12) 0.09312(12) -0.22119(11)
O4A_2 O -0.00085(12) 0.90688(12) 0.22119(11)
N1A N -0.17793(14) 0.34176(14) -0.33128(12)
N2A N -0.79426(14) 0.33509(14) -0.96252(12)
N2_2 N -0.20574(14) 0.66491(14) -0.03748(12)
N2A_2 N 0.20574(14) 0.33509(14) 0.03748(12)
C1A C -0.16116(18) 0.45176(17) -0.41576(15)
H1A H -0.0610 0.5318 -0.3913
C2A C -0.28043(18) 0.45606(17) -0.53615(15)
H2A H -0.2615 0.5378 -0.5917
C3A C -0.42845(17) 0.34057(16) -0.57611(14)
C4A C -0.44775(19) 0.22771(19) -0.48659(16)
H3A H -0.5475 0.1475 -0.5075
C5A C -0.32214(19) 0.23242(19) -0.36760(16)
H4A H -0.3387 0.1541 -0.3084
C6A C -0.65466(18) 0.45037(18) -0.91580(16)
H5A H -0.6374 0.5330 -0.9707
C7A C -0.53498(18) 0.45616(18) -0.79315(16)
H6A H -0.4385 0.5410 -0.7655
C8A C -0.55558(17) 0.33695(16) -0.70923(15)
C9A C -0.69963(18) 0.21523(17) -0.75896(15)
H7A H -0.7195 0.1301 -0.7071
C10A C -0.81291(18) 0.21886(17) -0.88345(15)
H8A H -0.9096 0.1344 -0.9151
C11A C -0.15867(16) 0.29477(17) 0.07624(15)
C12A C -0.23144(19) 0.14883(17) 0.13358(16)
H9A H -0.3487 0.1423 0.1228
H10A H -0.2255 0.0538 0.0765
C13A C -0.14612(19) 0.14666(17) 0.28781(16)
H11A H -0.1758 0.2243 0.3475
H12A H -0.0259 0.1795 0.3039
C14A C -0.1925(2) -0.01616(18) 0.33176(16)
H13A H -0.3134 -0.0559 0.3016
H14A H -0.1555 -0.0055 0.4357
C15A C -0.11961(17) -0.13700(17) 0.27080(14)
loop_
_geom_bond_atom_site_label_1
_geom_bond_atom_site_label_2
_geom_bond_site_symmetry_1
_geom_bond_site_symmetry_2
Co1 O1 1_555 1_555
O1 C11 1_555 1_555
O2 C11 1_555 1_555
O3 C15 1_555 1_555
O4 C15 1_555 1_555
N1 Co1 1_555 1_555
N2 C6 1_555 1_555
C1 N1 1_555 1_555
H1 C1 1_555 1_555
C2 C1 1_555 1_555
H2 C2 1_555 1_555
C3 C2 1_555 1_555
C4 C3 1_555 1_555
H3 C4 1_555 1_555
C5 N1 1_555 1_555
H4 C5 1_555 1_555
C6 H5 1_555 1_555
C7 C6 1_555 1_555
H6 C7 1_555 1_555
C8 C3 1_555 1_555
C9 C8 1_555 1_555
H7 C9 1_555 1_555
C10 N2 1_555 1_555
H8 C10 1_555 1_555
C11 C12 1_555 1_555
C12 H9 1_555 1_555
H10 C12 1_555 1_555
C13 C12 1_555 1_555
H11 C13 1_555 1_555
H12 C13 1_555 1_555
C14 C13 1_555 1_555
H13 C14 1_555 1_555
H14 C14 1_555 1_555
C15 C14 1_555 1_555
Co1A O2 1_555 1_555
Co1_2 O3A 1_555 1_555
Co1_3 N2 1_555 1_555
Co1A_2 N2A 1_555 1_555
Co1A_3 O3 1_555 1_555
O1A Co1A 1_555 1_555
O2A Co1 1_555 1_555
O3A C15A 1_555 1_555
O3_2 Co1A 1_555 1_555
O3A_2 Co1 1_555 1_555
O4A Co1_2 1_555 1_555
O4_2 Co1A 1_555 1_555
O4A_2 Co1 1_555 1_555
N1A Co1A 1_555 1_555
N2A C6A 1_555 1_555
N2_2 Co1 1_555 1_555
N2A_2 Co1A 1_555 1_555
C1A N1A 1_555 1_555
H1A C1A 1_555 1_555
C2A C1A 1_555 1_555
H2A C2A 1_555 1_555
C3A C2A 1_555 1_555
C4A C3A 1_555 1_555
H3A C4A 1_555 1_555
C5A N1A 1_555 1_555
H4A C5A 1_555 1_555
C6A H5A 1_555 1_555
C7A C6A 1_555 1_555
H6A C7A 1_555 1_555
C8A C3A 1_555 1_555
C9A C8A 1_555 1_555
H7A C9A 1_555 1_555
C10A N2A 1_555 1_555
H8A C10A 1_555 1_555
C11A O1A 1_555 1_555
C12A C11A 1_555 1_555
H9A C12A 1_555 1_555
H10A C12A 1_555 1_555
C13A C12A 1_555 1_555
H11A C13A 1_555 1_555
H12A C13A 1_555 1_555
C14A C13A 1_555 1_555
H13A C14A 1_555 1_555
H14A C14A 1_555 1_555
C15A O4A 1_555 1_555
O4 Co1A_3 1_555 1_555
C4 C5 1_555 1_555
C7 C8 1_555 1_555
C9 C10 1_555 1_555
O2A C11A 1_555 1_555
C4A C5A 1_555 1_555
C7A C8A 1_555 1_555
C9A C10A 1_555 1_555
C14A C15A 1_555 1_555

#END
