
#######################################################################
#
#                 Cambridge Crystallographic Data Centre
#                                CCDC 
#
#######################################################################
#
# If this CIF has been generated from an entry in the Cambridge 
# Structural Database, then it will include bibliographic, chemical, 
# crystal, experimental, refinement or atomic coordinate data resulting 
# from the CCDC's data processing and validation procedures.
#
#######################################################################

data_QUTTEF
_symmetry_cell_setting           triclinic
_symmetry_space_group_name_H-M   'P -1'
_symmetry_Int_Tables_number      2
_space_group_name_Hall           '-P 1'
loop_
_symmetry_equiv_pos_site_id
_symmetry_equiv_pos_as_xyz
1 x,y,z
2 -x,-y,-z
_cell_length_a                   8.2186(17)
_cell_length_b                   10.987(2)
_cell_length_c                   11.121(2)
_cell_angle_alpha                61.930(2)
_cell_angle_beta                 74.132(2)
_cell_angle_gamma                84.151(2)
_cell_volume                     851.892
loop_
_atom_site_label
_atom_site_type_symbol
_atom_site_fract_x
_atom_site_fract_y
_atom_site_fract_z
Co1 Co 1.13629(3) 0.65247(3) 0.00237(3)
O1 O 0.88007(18) 0.65832(14) 0.07465(15)
O2 O 0.8153(2) 0.44852(15) 0.11443(15)
O3 O 0.39952(18) 0.69093(15) -0.02768(16)
O4 O 0.20959(18) 0.77599(15) 0.09110(16)
N1 N 1.1484(2) 0.47159(17) 0.19416(17)
N2 N 1.1252(2) -0.16098(17) 0.81743(17)
C1 C 1.0496(3) 0.4544(2) 0.3192(2)
H1 H 0.9796 0.5278 0.3221
C2 C 1.0443(3) 0.3353(2) 0.4442(2)
H2 H 0.9735 0.3289 0.5304
C3 C 1.1435(2) 0.22473(19) 0.4432(2)
C4 C 1.2507(3) 0.3688(2) 0.1939(2)
H3 H 1.3264 0.3808 0.1072
C5 C 1.2512(3) 0.2459(2) 0.3140(2)
H4 H 1.3256 0.1757 0.3083
C6 C 1.1330(2) 0.0913(2) 0.5732(2)
C7 C 1.0449(3) 0.0747(2) 0.7065(2)
H5 H 0.9860 0.1496 0.7170
C8 C 1.2148(3) -0.0240(2) 0.5673(2)
H6 H 1.2749 -0.0189 0.4788
C9 C 1.0440(3) -0.0516(2) 0.8237(2)
H7 H 0.9821 -0.0610 0.9135
C10 C 1.2087(3) -0.1457(2) 0.6896(2)
H8 H 1.2666 -0.2223 0.6826
C11 C 0.7797(2) 0.5571(2) 0.1262(2)
C12 C 0.6047(2) 0.5567(2) 0.2183(2)
H9 H 0.6024 0.4862 0.3160
H10 H 0.5228 0.5247 0.1876
C13 C 0.5381(2) 0.6894(2) 0.2241(2)
C14 C 0.5022(3) 0.7982(2) 0.0828(2)
H11 H 0.4708 0.8851 0.0883
H12 H 0.6073 0.8172 0.0063
C15 C 0.6560(3) 0.7557(3) 0.2658(3)
H13 H 0.7170 0.6838 0.3311
H14 H 0.7402 0.8199 0.1811
C16 C 0.5396(3) 0.8341(3) 0.3385(4)
H15 H 0.5705 0.8165 0.4252
H16 H 0.5499 0.9347 0.2745
C17 C 0.3585(3) 0.7809(3) 0.3748(3)
H17 H 0.3008 0.7532 0.4750
H18 H 0.2922 0.8527 0.3148
C18 C 0.3777(3) 0.6566(2) 0.3462(2)
H19 H 0.2777 0.6443 0.3191
H20 H 0.3908 0.5713 0.4308
C19 C 0.3626(3) 0.7540(2) 0.0453(2)
Co1A Co 0.86371(3) 0.34753(3) -0.00237(3)
Co1_2 Co 0.13629(3) 0.65247(3) 0.00237(3)
Co1_3 Co 1.13629(3) -0.34753(3) 1.00237(3)
Co1A_2 Co 0.86371(3) 1.34753(3) -1.00237(3)
Co1A_3 Co 1.86371(3) 0.34753(3) -0.00237(3)
O1A O 1.11993(18) 0.34168(14) -0.07465(15)
O2A O 1.1847(2) 0.55148(15) -0.11443(15)
O3A O 1.60048(18) 0.30907(15) 0.02768(16)
O3_2 O 1.39952(18) 0.69093(15) -0.02768(16)
O3A_2 O 0.60048(18) 0.30907(15) 0.02768(16)
O4A O 1.79041(18) 0.22401(15) -0.09110(16)
O4_2 O 1.20959(18) 0.77599(15) 0.09110(16)
O4A_2 O 0.79041(18) 0.22401(15) -0.09110(16)
N1A N 0.8516(2) 0.52841(17) -0.19416(17)
N2A N 0.8748(2) 1.16098(17) -0.81743(17)
N2_2 N 1.1252(2) 0.83902(17) -0.18257(17)
N2A_2 N 0.8748(2) 0.16098(17) 0.18257(17)
C1A C 0.9504(3) 0.5456(2) -0.3192(2)
H1A H 1.0204 0.4722 -0.3221
C2A C 0.9557(3) 0.6647(2) -0.4442(2)
H2A H 1.0265 0.6711 -0.5304
C3A C 0.8565(2) 0.77527(19) -0.4432(2)
C4A C 0.7493(3) 0.6312(2) -0.1939(2)
H3A H 0.6736 0.6192 -0.1072
C5A C 0.7488(3) 0.7541(2) -0.3140(2)
H4A H 0.6744 0.8243 -0.3083
C6A C 0.8670(2) 0.9087(2) -0.5732(2)
C7A C 0.9551(3) 0.9253(2) -0.7065(2)
H5A H 1.0140 0.8504 -0.7170
C8A C 0.7852(3) 1.0240(2) -0.5673(2)
H6A H 0.7251 1.0189 -0.4788
C9A C 0.9560(3) 1.0516(2) -0.8237(2)
H7A H 1.0179 1.0610 -0.9135
C10A C 0.7913(3) 1.1457(2) -0.6896(2)
H8A H 0.7334 1.2223 -0.6826
C11A C 1.2203(2) 0.4429(2) -0.1262(2)
C12A C 1.3953(2) 0.4433(2) -0.2183(2)
H9A H 1.3976 0.5138 -0.3160
H10A H 1.4772 0.4753 -0.1876
C13A C 1.4619(2) 0.3106(2) -0.2241(2)
C14A C 1.4978(3) 0.2018(2) -0.0828(2)
H11A H 1.5292 0.1149 -0.0883
H12A H 1.3927 0.1828 -0.0063
C15A C 1.3440(3) 0.2443(3) -0.2658(3)
H13A H 1.2830 0.3162 -0.3311
H14A H 1.2598 0.1801 -0.1811
C16A C 1.4604(3) 0.1659(3) -0.3385(4)
H15A H 1.4295 0.1835 -0.4252
H16A H 1.4501 0.0653 -0.2745
C17A C 1.6415(3) 0.2191(3) -0.3748(3)
H17A H 1.6992 0.2468 -0.4750
H18A H 1.7078 0.1473 -0.3148
C18A C 1.6223(3) 0.3434(2) -0.3462(2)
H19A H 1.7223 0.3557 -0.3191
H20A H 1.6092 0.4287 -0.4308
C19A C 1.6374(3) 0.2460(2) -0.0453(2)
loop_
_geom_bond_atom_site_label_1
_geom_bond_atom_site_label_2
_geom_bond_site_symmetry_1
_geom_bond_site_symmetry_2
Co1 O1 1_555 1_555
O1 C11 1_555 1_555
O2 C11 1_555 1_555
O3 C19 1_555 1_555
O4 C19 1_555 1_555
N1 Co1 1_555 1_555
N2 C9 1_555 1_555
C1 N1 1_555 1_555
H1 C1 1_555 1_555
C2 C1 1_555 1_555
H2 C2 1_555 1_555
C3 C2 1_555 1_555
C4 N1 1_555 1_555
H3 C4 1_555 1_555
C5 C3 1_555 1_555
H4 C5 1_555 1_555
C6 C3 1_555 1_555
C7 C6 1_555 1_555
H5 C7 1_555 1_555
C8 C6 1_555 1_555
H6 C8 1_555 1_555
C9 C7 1_555 1_555
H7 C9 1_555 1_555
C10 N2 1_555 1_555
H8 C10 1_555 1_555
C11 C12 1_555 1_555
C12 H9 1_555 1_555
H10 C12 1_555 1_555
C13 C12 1_555 1_555
C14 C13 1_555 1_555
H11 C14 1_555 1_555
H12 C14 1_555 1_555
C15 C13 1_555 1_555
H13 C15 1_555 1_555
H14 C15 1_555 1_555
C16 C15 1_555 1_555
H15 C16 1_555 1_555
H16 C16 1_555 1_555
C17 C16 1_555 1_555
H17 C17 1_555 1_555
H18 C17 1_555 1_555
C18 C13 1_555 1_555
H19 C18 1_555 1_555
H20 C18 1_555 1_555
C19 C14 1_555 1_555
Co1A O2 1_555 1_555
Co1_2 O3 1_555 1_555
Co1_3 N2 1_555 1_555
Co1A_2 N2A 1_555 1_555
Co1A_3 O3A 1_555 1_555
O1A Co1A 1_555 1_555
O2A Co1 1_555 1_555
O3A C19A 1_555 1_555
O3_2 Co1 1_555 1_555
O3A_2 Co1A 1_555 1_555
O4A Co1A_3 1_555 1_555
O4_2 Co1 1_555 1_555
O4A_2 Co1A 1_555 1_555
N1A Co1A 1_555 1_555
N2A C9A 1_555 1_555
N2_2 Co1 1_555 1_555
N2A_2 Co1A 1_555 1_555
C1A N1A 1_555 1_555
H1A C1A 1_555 1_555
C2A C1A 1_555 1_555
H2A C2A 1_555 1_555
C3A C2A 1_555 1_555
C4A N1A 1_555 1_555
H3A C4A 1_555 1_555
C5A C3A 1_555 1_555
H4A C5A 1_555 1_555
C6A C3A 1_555 1_555
C7A C6A 1_555 1_555
H5A C7A 1_555 1_555
C8A C6A 1_555 1_555
H6A C8A 1_555 1_555
C9A C7A 1_555 1_555
H7A C9A 1_555 1_555
C10A N2A 1_555 1_555
H8A C10A 1_555 1_555
C11A O1A 1_555 1_555
C12A C11A 1_555 1_555
H9A C12A 1_555 1_555
H10A C12A 1_555 1_555
C13A C12A 1_555 1_555
C14A C13A 1_555 1_555
H11A C14A 1_555 1_555
H12A C14A 1_555 1_555
C15A C13A 1_555 1_555
H13A C15A 1_555 1_555
H14A C15A 1_555 1_555
C16A C15A 1_555 1_555
H15A C16A 1_555 1_555
H16A C16A 1_555 1_555
C17A C16A 1_555 1_555
H17A C17A 1_555 1_555
H18A C17A 1_555 1_555
C18A C13A 1_555 1_555
H19A C18A 1_555 1_555
H20A C18A 1_555 1_555
C19A O4A 1_555 1_555
O4 Co1_2 1_555 1_555
C4 C5 1_555 1_555
C8 C10 1_555 1_555
C17 C18 1_555 1_555
O2A C11A 1_555 1_555
C4A C5A 1_555 1_555
C8A C10A 1_555 1_555
C14A C19A 1_555 1_555
C17A C18A 1_555 1_555

#END
