
#######################################################################
#
#                 Cambridge Crystallographic Data Centre
#                                CCDC 
#
#######################################################################
#
# If this CIF has been generated from an entry in the Cambridge 
# Structural Database, then it will include bibliographic, chemical, 
# crystal, experimental, refinement or atomic coordinate data resulting 
# from the CCDC's data processing and validation procedures.
#
#######################################################################

data_QUTXOT
_symmetry_cell_setting           monoclinic
_symmetry_space_group_name_H-M   'P 21/c'
_symmetry_Int_Tables_number      14
_space_group_name_Hall           '-P 2ybc'
loop_
_symmetry_equiv_pos_site_id
_symmetry_equiv_pos_as_xyz
1 x,y,z
2 -x,1/2+y,1/2-z
3 -x,-y,-z
4 x,1/2-y,1/2+z
_cell_length_a                   11.403(3)
_cell_length_b                   11.092(2)
_cell_length_c                   22.580(5)
_cell_angle_alpha                90
_cell_angle_beta                 97.59(2)
_cell_angle_gamma                90
_cell_volume                     2830.94
loop_
_atom_site_label
_atom_site_type_symbol
_atom_site_fract_x
_atom_site_fract_y
_atom_site_fract_z
Cu1 Cu 0.2464(13) 0.0209(15) -0.0173(7)
P1 P 0.0806(14) -0.0826(11) 0.1082(6)
P2 P 0.4708(13) -0.5477(10) 0.3931(8)
O1 O 0.168(4) -0.0456(28) 0.0636(12)
O2 O -0.0566(22) -0.0507(23) 0.0756(18)
O3 O 0.5860(26) -0.5190(23) 0.4476(15)
O4 O 0.3560(27) -0.5039(22) 0.4138(13)
N1 N 0.2596(14) 0.1991(15) -0.0252(12)
N2 N 0.2382(24) 0.8416(15) -0.0260(11)
C1 C 0.353(5) -0.2692(30) 0.2670(19)
C2 C 0.142 0.026 0.166
C3 C 0.154 0.144 0.149
C4 C 0.192 0.217 0.189
C5 C 0.234 0.18101 0.24336
C6 C 0.24 0.058 0.258
C7 C 0.197 -0.018 0.21473
C8 C 0.1176(32) -0.2418(12) 0.1326(12)
C9 C 0.2062(29) -0.2883(17) 0.1837(12)
C10 C 0.276(4) -0.2190(23) 0.2167(19)
C11 C 0.239(5) -0.4064(25) 0.1823(21)
C12 C 0.41263 -0.71227 0.38193
C13 C 0.29123 -0.73191 0.37145
C14 C 0.24753 -0.84927 0.36017
C15 C 0.32502 -0.94649 0.36365
C16 C 0.44498 -0.92282 0.37737
C17 C 0.47611 -0.822 0.38515
C18 C 0.4737(22) -0.463(4) 0.3195(13)
C19 C 0.3704(25) -0.3972(30) 0.2747(11)
C20 C 0.325(6) -0.4601(32) 0.2260(23)
C21 C 0.3650(16) 0.2697(18) -0.0281(6)
C22 C 0.179(5) 0.7559(30) 0.0046(25)
C23 C 0.3667(17) 0.3948(19) -0.0319(5)
C24 C 0.190(5) 0.6303(30) -0.0013(25)
C25 C 0.1611(20) 0.4004(25) -0.0345(27)
C26 C 0.3407(32) 0.6704(31) -0.0616(24)
C27 C 0.1609(20) 0.2738(23) -0.0279(27)
C28 C 0.316(4) 0.7948(28) -0.0620(23)
C29 C 0.2665(22) 0.4604(19) -0.0382(24)
C30 C 0.2676(34) 0.5864(18) -0.0384(26)
Cu1B Cu -0.2464(13) -0.0209(15) 0.0173(7)
Cu1A Cu 0.7536(13) -0.4791(15) 0.5173(7)
Cu1C Cu 0.2464(13) -0.5209(15) 0.4827(7)
Cu1_2 Cu 0.2464(13) 1.0209(15) -0.0173(7)
O2B O 0.0566(22) 0.0507(23) -0.0756(18)
O3A O 0.4140(26) -0.0190(23) 0.0524(15)
O4C O 0.3560(27) 0.0039(22) -0.0862(13)
N2_2 N 0.2382(24) -0.1584(15) -0.0260(11)
loop_
_geom_bond_atom_site_label_1
_geom_bond_atom_site_label_2
_geom_bond_site_symmetry_1
_geom_bond_site_symmetry_2
Cu1 O1 1_555 1_555
P1 O1 1_555 1_555
P2 O3 1_555 1_555
O2 P1 1_555 1_555
O3 Cu1A 1_555 1_555
O4 P2 1_555 1_555
N1 Cu1 1_555 1_555
N2 C22 1_555 1_555
C1 C10 1_555 1_555
C2 P1 1_555 1_555
C3 C2 1_555 1_555
C4 C3 1_555 1_555
C5 C4 1_555 1_555
C6 C5 1_555 1_555
C7 C2 1_555 1_555
C8 P1 1_555 1_555
C9 C8 1_555 1_555
C10 C9 1_555 1_555
C11 C9 1_555 1_555
C12 P2 1_555 1_555
C13 C12 1_555 1_555
C14 C13 1_555 1_555
C15 C14 1_555 1_555
C16 C15 1_555 1_555
C17 C12 1_555 1_555
C18 P2 1_555 1_555
C19 C1 1_555 1_555
C20 C11 1_555 1_555
C21 N1 1_555 1_555
C22 C24 1_555 1_555
C23 C21 1_555 1_555
C24 C30 1_555 1_555
C25 C27 1_555 1_555
C26 C28 1_555 1_555
C27 N1 1_555 1_555
C28 N2 1_555 1_555
C29 C23 1_555 1_555
C30 C26 1_555 1_555
Cu1B O2 1_555 1_555
Cu1C O4 1_555 1_555
Cu1_2 N2 1_555 1_555
O2B Cu1 1_555 1_555
O3A Cu1 1_555 1_555
O4C Cu1 1_555 1_555
N2_2 Cu1 1_555 1_555
C6 C7 1_555 1_555
C16 C17 1_555 1_555
C18 C19 1_555 1_555
C19 C20 1_555 1_555
C25 C29 1_555 1_555
C29 C30 1_555 1_555

#END
