
#######################################################################
#
#                 Cambridge Crystallographic Data Centre
#                                CCDC 
#
#######################################################################
#
# If this CIF has been generated from an entry in the Cambridge 
# Structural Database, then it will include bibliographic, chemical, 
# crystal, experimental, refinement or atomic coordinate data resulting 
# from the CCDC's data processing and validation procedures.
#
#######################################################################

data_QUTXOT01
_symmetry_cell_setting           monoclinic
_symmetry_space_group_name_H-M   'P 21/c'
_symmetry_Int_Tables_number      14
_space_group_name_Hall           '-P 2ybc'
loop_
_symmetry_equiv_pos_site_id
_symmetry_equiv_pos_as_xyz
1 x,y,z
2 -x,1/2+y,1/2-z
3 -x,-y,-z
4 x,1/2-y,1/2+z
_cell_length_a                   11.351(3)
_cell_length_b                   11.071(3)
_cell_length_c                   22.530(5)
_cell_angle_alpha                90
_cell_angle_beta                 97.45(2)
_cell_angle_gamma                90
_cell_volume                     2807.38
loop_
_atom_site_label
_atom_site_type_symbol
_atom_site_fract_x
_atom_site_fract_y
_atom_site_fract_z
Cu1 Cu 1.00000 0.50000 0.50000
Cu2 Cu 0.50000 0.50000 0.50000
P1 P 0.7191(15) 0.4983(27) 0.3707(7)
P2 P 0.7711(14) -0.0897(16) 0.1090(7)
O1 O 0.844(4) 0.445(4) 0.4194(22)
O2 O 0.643(4) 0.530(4) 0.4301(17)
O3 O 0.8562(25) -0.059(4) 0.0610(13)
O4 O 0.6448(19) -0.0110(17) 0.0889(8)
C1 C 0.827(4) 0.1850(22) 0.2182(19)
C2 C 0.7497(31) 0.6223(32) 0.3207(11)
C3 C 0.746(4) 0.7405(32) 0.3383(16)
C4 C 0.760(4) 0.834(4) 0.2987(22)
C5 C 0.742(5) 0.813(5) 0.2403(21)
C6 C 0.746(5) 0.698(6) 0.2203(15)
C7 C 0.749(5) 0.601(4) 0.2607(12)
C8 C 0.6340(22) 0.3658(32) 0.3229(14)
C9 C 0.6940(27) 0.2565(25) 0.2865(10)
C10 C 0.775(5) 0.2821(22) 0.2484(25)
C11 C 0.683(4) 0.1354(28) 0.3027(18)
C12 C 0.7409(15) -0.2478(17) 0.1071(5)
C13 C 0.6285(21) -0.2909(17) 0.1071(5)
C14 C 0.6061(29) -0.4132(22) 0.1071(5)
C15 C 0.698(4) -0.4909(20) 0.1071(5)
C16 C 0.8101(34) -0.4504(22) 0.1071(5)
C17 C 0.8302(28) -0.3288(22) 0.1071(5)
C18 C 0.8506(25) -0.0471(17) 0.1913(12)
C19 C 0.7891(26) 0.0652(19) 0.2244(10)
C20 C 0.719(4) 0.0405(24) 0.2666(18)
N1 N 0.99437 0.67796 0.49166
C21 C 1.09823 0.74318 0.48239
C22 C 1.09869 0.87514 0.48425
C23 C 0.89354 0.87189 0.49315
C24 C 0.89381 0.73987 0.49304
N2 N 0.50004 0.68531 0.50781
C25 C 0.60723 0.75188 0.50781
C26 C 0.60441 0.88364 0.50781
C27 C 0.39993 0.88511 0.50781
C28 C 0.39938 0.75125 0.50781
C29 C 0.99202 0.93707 0.49374
C30 C 0.49832 0.94395 0.50781
Cu1A Cu 1.00000 0.00000 0.00000
Cu1_2 Cu 1.00000 1.50000 0.50000
Cu1A_2 Cu 1.00000 1.00000 1.00000
Cu2A Cu 0.50000 0.00000 0.00000
Cu2_2 Cu 0.50000 1.50000 0.50000
Cu2_3 Cu 1.50000 0.50000 0.50000
Cu2A_2 Cu 1.50000 1.00000 1.00000
P1B P 1.2809(15) 0.5017(27) 0.6293(7)
P2B P 1.2289(14) 1.0897(16) 0.8910(7)
O1B O 1.156(4) 0.555(4) 0.5806(22)
O2B O 1.357(4) 0.470(4) 0.5699(17)
O2B_2 O 0.357(4) 0.470(4) 0.5699(17)
O3B O 1.1438(25) 1.059(4) 0.9390(13)
O3A O 1.1438(25) 0.441(4) 0.4390(13)
O3C O 0.8562(25) 0.559(4) 0.5610(13)
O4B O 1.3552(19) 1.0110(17) 0.9111(8)
O4A O 0.3552(19) 0.4890(17) 0.4111(8)
O4C O 0.6448(19) 0.5110(17) 0.5889(8)
C1B C 1.173(4) 0.8150(22) 0.7818(19)
C2B C 1.2503(31) 0.3777(32) 0.6793(11)
C3B C 1.254(4) 0.2595(32) 0.6617(16)
C4B C 1.240(4) 0.166(4) 0.7013(22)
C5B C 1.258(5) 0.187(5) 0.7597(21)
C6B C 1.254(5) 0.302(6) 0.7797(15)
C7B C 1.251(5) 0.399(4) 0.7393(12)
C8B C 1.3660(22) 0.6342(32) 0.6771(14)
C9B C 1.3060(27) 0.7435(25) 0.7135(10)
C10B C 1.225(5) 0.7179(22) 0.7516(25)
C11B C 1.317(4) 0.8646(28) 0.6973(18)
C12B C 1.2591(15) 1.2478(17) 0.8929(5)
C13B C 1.3715(21) 1.2909(17) 0.8929(5)
C14B C 1.3939(29) 1.4132(22) 0.8929(5)
C15B C 1.302(4) 1.4909(20) 0.8929(5)
C16B C 1.1899(34) 1.4504(22) 0.8929(5)
C17B C 1.1698(28) 1.3288(22) 0.8929(5)
C18B C 1.1494(25) 1.0471(17) 0.8087(12)
C19B C 1.2109(26) 0.9348(19) 0.7756(10)
C20B C 1.281(4) 0.9595(24) 0.7334(18)
N1B N 1.00563 1.32204 0.50834
N1B_2 N 1.00563 0.32204 0.50834
C21B C 0.90177 1.25682 0.51761
C22B C 0.90131 1.12486 0.51575
C23B C 1.10646 1.12811 0.50685
C24B C 1.10619 1.26013 0.50696
N2B N 0.49996 1.31469 0.49219
N2B_2 N 0.49996 0.31469 0.49219
C25B C 0.39277 1.24812 0.49219
C26B C 0.39559 1.11636 0.49219
C27B C 0.60007 1.11489 0.49219
C28B C 0.60062 1.24875 0.49219
C29B C 1.00798 1.06293 0.50626
C30B C 0.50168 1.05605 0.49219
loop_
_geom_bond_atom_site_label_1
_geom_bond_atom_site_label_2
_geom_bond_site_symmetry_1
_geom_bond_site_symmetry_2
Cu1 O1 1_555 1_555
Cu2 O2 1_555 1_555
P1 O1 1_555 1_555
P2 O3 1_555 1_555
O2 P1 1_555 1_555
O3 Cu1A 1_555 1_555
O4 P2 1_555 1_555
C1 C10 1_555 1_555
C2 P1 1_555 1_555
C3 C2 1_555 1_555
C4 C3 1_555 1_555
C5 C4 1_555 1_555
C6 C5 1_555 1_555
C7 C2 1_555 1_555
C8 P1 1_555 1_555
C9 C8 1_555 1_555
C10 C9 1_555 1_555
C11 C9 1_555 1_555
C12 P2 1_555 1_555
C13 C12 1_555 1_555
C14 C13 1_555 1_555
C15 C14 1_555 1_555
C16 C15 1_555 1_555
C17 C12 1_555 1_555
C18 P2 1_555 1_555
C19 C1 1_555 1_555
C20 C11 1_555 1_555
N1 Cu1 1_555 1_555
C21 N1 1_555 1_555
C22 C21 1_555 1_555
C23 C24 1_555 1_555
C24 N1 1_555 1_555
N2 Cu2 1_555 1_555
C25 N2 1_555 1_555
C26 C25 1_555 1_555
C27 C28 1_555 1_555
C28 N2 1_555 1_555
C29 C22 1_555 1_555
C30 C26 1_555 1_555
Cu1_2 N1B 1_555 1_555
Cu1A_2 O3B 1_555 1_555
Cu2A O4 1_555 1_555
Cu2_2 N2B 1_555 1_555
Cu2_3 O2B 1_555 1_555
Cu2A_2 O4B 1_555 1_555
P1B O1B 1_555 1_555
P2B O3B 1_555 1_555
O1B Cu1 1_555 1_555
O2B P1B 1_555 1_555
O2B_2 Cu2 1_555 1_555
O3A Cu1 1_555 1_555
O3C Cu1 1_555 1_555
O4B P2B 1_555 1_555
O4A Cu2 1_555 1_555
O4C Cu2 1_555 1_555
C1B C10B 1_555 1_555
C2B P1B 1_555 1_555
C3B C2B 1_555 1_555
C4B C3B 1_555 1_555
C5B C4B 1_555 1_555
C6B C5B 1_555 1_555
C7B C2B 1_555 1_555
C8B P1B 1_555 1_555
C9B C8B 1_555 1_555
C10B C9B 1_555 1_555
C11B C9B 1_555 1_555
C12B P2B 1_555 1_555
C13B C12B 1_555 1_555
C14B C13B 1_555 1_555
C15B C14B 1_555 1_555
C16B C15B 1_555 1_555
C17B C12B 1_555 1_555
C18B P2B 1_555 1_555
C19B C1B 1_555 1_555
C20B C11B 1_555 1_555
N1B C21B 1_555 1_555
N1B_2 Cu1 1_555 1_555
C21B C22B 1_555 1_555
C22B C29B 1_555 1_555
C23B C24B 1_555 1_555
C24B N1B 1_555 1_555
N2B C25B 1_555 1_555
N2B_2 Cu2 1_555 1_555
C25B C26B 1_555 1_555
C26B C30B 1_555 1_555
C27B C28B 1_555 1_555
C28B N2B 1_555 1_555
C29B C29 1_555 1_555
C30B C30 1_555 1_555
C6 C7 1_555 1_555
C16 C17 1_555 1_555
C18 C19 1_555 1_555
C19 C20 1_555 1_555
C23 C29 1_555 1_555
C27 C30 1_555 1_555
C6B C7B 1_555 1_555
C16B C17B 1_555 1_555
C18B C19B 1_555 1_555
C19B C20B 1_555 1_555
C23B C29B 1_555 1_555
C27B C30B 1_555 1_555

#END
