
#######################################################################
#
#                 Cambridge Crystallographic Data Centre
#                                CCDC 
#
#######################################################################
#
# If this CIF has been generated from an entry in the Cambridge 
# Structural Database, then it will include bibliographic, chemical, 
# crystal, experimental, refinement or atomic coordinate data resulting 
# from the CCDC's data processing and validation procedures.
#
#######################################################################

data_QUTXIN
_symmetry_cell_setting           monoclinic
_symmetry_space_group_name_H-M   'P 2/n'
_symmetry_Int_Tables_number      13
_space_group_name_Hall           '-P 2yac'
loop_
_symmetry_equiv_pos_site_id
_symmetry_equiv_pos_as_xyz
1 x,y,z
2 1/2-x,y,1/2-z
3 -x,-y,-z
4 1/2+x,-y,1/2+z
_cell_length_a                   11.4560(10)
_cell_length_b                   11.073(5)
_cell_length_c                   12.449(2)
_cell_angle_alpha                90
_cell_angle_beta                 112.050(10)
_cell_angle_gamma                90
_cell_volume                     1463.68
loop_
_atom_site_label
_atom_site_type_symbol
_atom_site_fract_x
_atom_site_fract_y
_atom_site_fract_z
Cu1 Cu 0.75000 0.25395(8) 0.75000
P1 P 1.01767(14) 0.23576(12) 0.72527(13)
N1 N 0.75000 0.4366(5) 0.75000
N2 N 0.75000 1.0731(5) 0.75000
O1 O 1.0891(4) 0.3090(4) 0.8310(4)
O2 O 0.8758(4) 0.2498(3) 0.6769(3)
O3 O 0.9288(5) 0.2724(4) 0.9504(4)
H1 H 0.941(7) 0.320(5) 0.996(5)
H2 H 0.986(5) 0.278(7) 0.935(7)
C1 C 0.7435(5) 0.4990(5) 0.8397(5)
H5 H 0.7379 0.4569 0.9022
C2 C 0.7448(5) 0.6230(4) 0.8428(5)
H6 H 0.7422 0.6633 0.9074
C3 C 0.75000 0.6878(6) 0.75000
C4 C 0.75000 0.8230(6) 0.75000
C5 C 0.8228(5) 0.8872(4) 0.8478(5)
H7 H 0.8719 0.847 0.9152
C6 C 0.8212(5) 1.0113(5) 0.8436(5)
H8 H 0.8719 1.0539 0.9088
C7 C 1.0576(6) 0.0781(5) 0.7551(5)
C8 C 1.1533(6) 0.0413(5) 0.8568(5)
H9 H 1.1974 0.0987 0.9116
C9 C 1.1839(7) -0.0802(6) 0.8779(6)
H10 H 1.2476 -0.1035 0.9469
C10 C 1.1213(7) -0.1654(6) 0.7981(6)
H11 H 1.1433 -0.2464 0.8121
C11 C 1.0255(7) -0.1318(6) 0.6965(6)
H12 H 0.9811 -0.1899 0.6428
C12 C 0.9962(6) -0.0105(5) 0.6752(5)
H13 H 0.9336 0.0121 0.6054
C13 C 1.0704(6) 0.2645(5) 0.6077(6)
H14 H 1.1615 0.2577 0.6371
H15 H 1.0363 0.2024 0.5492
C14 C 1.0334(6) 0.3862(5) 0.5510(5)
C15 C 0.9162(6) 0.4052(6) 0.4654(6)
H16 H 0.8588 0.342 0.4415
C16 C 0.8841(6) 0.5181(6) 0.4153(5)
H17 H 0.805 0.5295 0.3575
Cu1_2 Cu 0.75000 1.25395(8) 0.75000
Cu1B Cu 1.25000 0.74605(8) 0.25000
P1B P 0.98233(14) 0.76424(12) 0.27473(13)
N2_2 N 0.75000 0.0731(5) 0.75000
O1B O 0.9109(4) 0.6910(4) 0.1690(4)
O2B O 1.1242(4) 0.7502(3) 0.3231(3)
O2A O 0.6242(4) 0.2498(3) 0.8231(3)
O3A O 0.5712(5) 0.2724(4) 0.5496(4)
H1A H 0.559(7) 0.320(5) 0.504(5)
H2A H 0.514(5) 0.278(7) 0.565(7)
C1A C 0.7565(5) 0.4990(5) 0.6603(5)
H5A H 0.7621 0.4569 0.5978
C2A C 0.7552(5) 0.6230(4) 0.6572(5)
H6A H 0.7578 0.6633 0.5926
C5A C 0.6772(5) 0.8872(4) 0.6522(5)
H7A H 0.6281 0.847 0.5848
C6A C 0.6788(5) 1.0113(5) 0.6564(5)
H8A H 0.6281 1.0539 0.5912
C7B C 0.9424(6) 0.9219(5) 0.2449(5)
C8B C 0.8467(6) 0.9587(5) 0.1432(5)
H9B H 0.8026 0.9013 0.0884
C9B C 0.8161(7) 1.0802(6) 0.1221(6)
H10B H 0.7524 1.1035 0.0531
C10B C 0.8787(7) 1.1654(6) 0.2019(6)
H11B H 0.8567 1.2464 0.1879
C11B C 0.9745(7) 1.1318(6) 0.3035(6)
H12B H 1.0189 1.1899 0.3572
C12B C 1.0038(6) 1.0105(5) 0.3248(5)
H13B H 1.0664 0.9879 0.3946
C13B C 0.9296(6) 0.7355(5) 0.3923(6)
H14B H 0.8385 0.7423 0.3629
H15B H 0.9637 0.7976 0.4508
C14B C 0.9666(6) 0.6138(5) 0.4490(5)
C15B C 1.0838(6) 0.5948(6) 0.5346(6)
H16B H 1.1412 0.658 0.5585
C16B C 1.1159(6) 0.4819(6) 0.5847(5)
H17B H 1.195 0.4705 0.6425
O4 O 1.0639(6) 0.5502(5) 0.8694(6)
H3 H 1.073(9) 0.486(4) 0.855(8)
H4 H 1.091(9) 0.586(8) 0.924(5)
loop_
_geom_bond_atom_site_label_1
_geom_bond_atom_site_label_2
_geom_bond_site_symmetry_1
_geom_bond_site_symmetry_2
Cu1 N1 1_555 1_555
P1 O1 1_555 1_555
N1 C1 1_555 1_555
N2 C6 1_555 1_555
O2 Cu1 1_555 1_555
O3 Cu1 1_555 1_555
H1 O3 1_555 1_555
H2 O3 1_555 1_555
O4 H3 1_555 1_555
H4 O4 1_555 1_555
C1 H5 1_555 1_555
C2 C1 1_555 1_555
H6 C2 1_555 1_555
C3 C2 1_555 1_555
C4 C3 1_555 1_555
C5 C4 1_555 1_555
H7 C5 1_555 1_555
C6 C5 1_555 1_555
H8 C6 1_555 1_555
C7 P1 1_555 1_555
C8 C7 1_555 1_555
H9 C8 1_555 1_555
C9 C8 1_555 1_555
H10 C9 1_555 1_555
C10 C9 1_555 1_555
H11 C10 1_555 1_555
C11 C10 1_555 1_555
H12 C11 1_555 1_555
C12 C7 1_555 1_555
H13 C12 1_555 1_555
C13 P1 1_555 1_555
H14 C13 1_555 1_555
H15 C13 1_555 1_555
C14 C13 1_555 1_555
C15 C14 1_555 1_555
H16 C15 1_555 1_555
C16 C15 1_555 1_555
H17 C16 1_555 1_555
Cu1_2 N2 1_555 1_555
Cu1B O2B 1_555 1_555
P1B O1B 1_555 1_555
N2_2 Cu1 1_555 1_555
O2B P1B 1_555 1_555
O2A Cu1 1_555 1_555
O3A Cu1 1_555 1_555
H1A O3A 1_555 1_555
H2A O3A 1_555 1_555
C1A N1 1_555 1_555
H5A C1A 1_555 1_555
C2A C3 1_555 1_555
H6A C2A 1_555 1_555
C5A C4 1_555 1_555
H7A C5A 1_555 1_555
C6A N2 1_555 1_555
H8A C6A 1_555 1_555
C7B P1B 1_555 1_555
C8B C7B 1_555 1_555
H9B C8B 1_555 1_555
C9B C8B 1_555 1_555
H10B C9B 1_555 1_555
C10B C9B 1_555 1_555
H11B C10B 1_555 1_555
C11B C10B 1_555 1_555
H12B C11B 1_555 1_555
C12B C7B 1_555 1_555
H13B C12B 1_555 1_555
C13B P1B 1_555 1_555
H14B C13B 1_555 1_555
H15B C13B 1_555 1_555
C14B C16 1_555 1_555
C15B C14B 1_555 1_555
H16B C15B 1_555 1_555
C16B C14 1_555 1_555
H17B C16B 1_555 1_555
P1 O2 1_555 1_555
C11 C12 1_555 1_555
C1A C2A 1_555 1_555
C5A C6A 1_555 1_555
C11B C12B 1_555 1_555
C13B C14B 1_555 1_555
C15B C16B 1_555 1_555

#END
