
#######################################################################
#
#                 Cambridge Crystallographic Data Centre
#                                CCDC 
#
#######################################################################
#
# If this CIF has been generated from an entry in the Cambridge 
# Structural Database, then it will include bibliographic, chemical, 
# crystal, experimental, refinement or atomic coordinate data resulting 
# from the CCDC's data processing and validation procedures.
#
#######################################################################

data_QUTYAG
_symmetry_cell_setting           triclinic
_symmetry_space_group_name_H-M   'P -1'
_symmetry_Int_Tables_number      2
_space_group_name_Hall           '-P 1'
loop_
_symmetry_equiv_pos_site_id
_symmetry_equiv_pos_as_xyz
1 x,y,z
2 -x,-y,-z
_cell_length_a                   6.0838(5)
_cell_length_b                   10.1516(7)
_cell_length_c                   10.6888(9)
_cell_angle_alpha                111.677(7)
_cell_angle_beta                 100.962(7)
_cell_angle_gamma                105.125(7)
_cell_volume                     561.187
loop_
_atom_site_label
_atom_site_type_symbol
_atom_site_fract_x
_atom_site_fract_y
_atom_site_fract_z
Cu1 Cu 0.5000 0.0000 0.0000
O1 O 0.3669(5) 0.0716(3) 0.1517(2)
N1 N 0.6698(5) -0.0709(3) 0.1244(3)
N2 N 0.8368(5) -0.1682(3) 0.3215(3)
C1 C 0.8105(6) -0.1516(4) 0.1032(3)
H1 H 0.8562 -0.1747 0.0196
O2 O 0.3972(5) 0.0939(3) 0.3717(3)
C2 C 0.6117(6) -0.0372(4) 0.2450(3)
C3 C 0.8933(6) -0.2033(4) 0.1996(3)
C4 C 0.4478(7) 0.0511(4) 0.2599(4)
C5 C 0.6967(7) -0.0851(4) 0.3426(3)
H2 H 0.6549 -0.0584 0.4274
C6 C 1.0372(7) -0.3038(4) 0.1723(4)
H3 H 1.1464 -0.2841 0.2627
H4 H 1.1307 -0.2826 0.1121
H5 H 0.9287 -0.4106 0.1240
Cu2 Cu 0.75896(7) 0.51785(4) 0.50287(4)
N3 N 0.9445(5) 0.4686(3) 0.3647(3)
O3 O 0.9088(4) 0.7606(3) 0.5602(2)
H6 H 0.9087 0.7737 0.4873
H7 H 0.8164 0.7994 0.5960
N4 N 0.5593(5) 0.5360(3) 0.6337(3)
N5 N 0.8731(5) 0.3684(3) 0.2424(3)
N6 N 0.5821(5) 0.5181(3) 0.7410(3)
N7 N 0.8115(6) 0.2781(3) 0.1271(3)
N8 N 0.6049(6) 0.5054(4) 0.8440(3)
O1A O 0.6331(5) -0.0716(3) -0.1517(2)
N1A N 0.3302(5) 0.0709(3) -0.1244(3)
N2A N 0.1632(5) 0.1682(3) -0.3215(3)
C1A C 0.1895(6) 0.1516(4) -0.1032(3)
H1A H 0.1438 0.1747 -0.0196
O2A O 0.6028(5) -0.0939(3) -0.3717(3)
C2A C 0.3883(6) 0.0372(4) -0.2450(3)
C3A C 0.1067(6) 0.2033(4) -0.1996(3)
C4A C 0.5522(7) -0.0511(4) -0.2599(4)
C5A C 0.3033(7) 0.0851(4) -0.3426(3)
H2A H 0.3451 0.0584 -0.4274
C6A C -0.0372(7) 0.3038(4) -0.1723(4)
H3A H -0.1464 0.2841 -0.2627
H4A H -0.1307 0.2826 -0.1121
H5A H 0.0713 0.4106 -0.1240
Cu2A Cu 0.24104(7) -0.51785(4) -0.50287(4)
Cu2A_2 Cu 1.24104(7) 0.48215(4) 0.49713(4)
Cu2A_3 Cu 0.24104(7) 0.48215(4) 0.49713(4)
Cu2_2 Cu -0.24104(7) -0.48215(4) -0.49713(4)
N3A N 0.0555(5) -0.4686(3) -0.3647(3)
N3A_2 N 1.0555(5) 0.5314(3) 0.6353(3)
N3_2 N -0.0555(5) -0.5314(3) -0.6353(3)
O3A O 0.0912(4) -0.7606(3) -0.5602(2)
H6A H 0.0913 -0.7737 -0.4873
H7A H 0.1836 -0.7994 -0.5960
N4A N 0.4407(5) 0.4640(3) 0.3663(3)
N4A_2 N 0.4407(5) -0.5360(3) -0.6337(3)
N4_2 N 0.5593(5) -0.4640(3) -0.3663(3)
N5A N 0.1269(5) -0.3684(3) -0.2424(3)
N6A N 0.4179(5) 0.4819(3) 0.2590(3)
N7A N 0.1885(6) -0.2781(3) -0.1271(3)
N8A N 0.3951(6) 0.4946(4) 0.1560(3)
loop_
_geom_bond_atom_site_label_1
_geom_bond_atom_site_label_2
_geom_bond_site_symmetry_1
_geom_bond_site_symmetry_2
Cu1 O1 1_555 1_555
O1 C4 1_555 1_555
N1 Cu1 1_555 1_555
N2 C3 1_555 1_555
C1 N1 1_555 1_555
H1 C1 1_555 1_555
O2 C4 1_555 1_555
C2 N1 1_555 1_555
C3 C1 1_555 1_555
C4 C2 1_555 1_555
C5 N2 1_555 1_555
H2 C5 1_555 1_555
C6 C3 1_555 1_555
H3 C6 1_555 1_555
H4 C6 1_555 1_555
H5 C6 1_555 1_555
Cu2 N3 1_555 1_555
N3 N5 1_555 1_555
O3 Cu2 1_555 1_555
H6 O3 1_555 1_555
H7 O3 1_555 1_555
N4 Cu2 1_555 1_555
N5 N7 1_555 1_555
N6 N4 1_555 1_555
N7 Cu1 1_555 1_555
N8 N6 1_555 1_555
O1A Cu1 1_555 1_555
N1A Cu1 1_555 1_555
N2A C3A 1_555 1_555
C1A N1A 1_555 1_555
H1A C1A 1_555 1_555
O2A C4A 1_555 1_555
C2A N1A 1_555 1_555
C3A C1A 1_555 1_555
C4A O1A 1_555 1_555
C5A N2A 1_555 1_555
H2A C5A 1_555 1_555
C6A C3A 1_555 1_555
H3A C6A 1_555 1_555
H4A C6A 1_555 1_555
H5A C6A 1_555 1_555
Cu2A N3A 1_555 1_555
Cu2A_2 N3 1_555 1_555
Cu2A_3 N4 1_555 1_555
Cu2_2 N3A 1_555 1_555
N3A N5A 1_555 1_555
N3A_2 Cu2 1_555 1_555
N3_2 Cu2A 1_555 1_555
O3A Cu2A 1_555 1_555
H6A O3A 1_555 1_555
H7A O3A 1_555 1_555
N4A Cu2 1_555 1_555
N4A_2 Cu2A 1_555 1_555
N4_2 Cu2A 1_555 1_555
N5A N7A 1_555 1_555
N6A N4A 1_555 1_555
N7A Cu1 1_555 1_555
N8A N6A 1_555 1_555
C2 C5 1_555 1_555
C2A C4A 1_555 1_555
C2A C5A 1_555 1_555
Cu2A_2 N3A_2 1_555 1_555
Cu2A_3 N4A 1_555 1_555
Cu2_2 N3_2 1_555 1_555

#END
