
#######################################################################
#
#                 Cambridge Crystallographic Data Centre
#                                CCDC 
#
#######################################################################
#
# If this CIF has been generated from an entry in the Cambridge 
# Structural Database, then it will include bibliographic, chemical, 
# crystal, experimental, refinement or atomic coordinate data resulting 
# from the CCDC's data processing and validation procedures.
#
#######################################################################

data_QUTYUA
_symmetry_cell_setting           monoclinic
_symmetry_space_group_name_H-M   'C 2/c'
_symmetry_Int_Tables_number      15
_space_group_name_Hall           '-C 2yn'
loop_
_symmetry_equiv_pos_site_id
_symmetry_equiv_pos_as_xyz
1 x,y,z
2 -x,y,1/2-z
3 1/2+x,1/2+y,z
4 1/2-x,1/2+y,1/2-z
5 -x,-y,-z
6 x,-y,1/2+z
7 1/2-x,1/2-y,-z
8 1/2+x,1/2-y,1/2+z
_cell_length_a                   32.993(3)
_cell_length_b                   6.3394(5)
_cell_length_c                   23.0457(17)
_cell_angle_alpha                90
_cell_angle_beta                 130.831(1)
_cell_angle_gamma                90
_cell_volume                     3647.12
loop_
_atom_site_label
_atom_site_type_symbol
_atom_site_fract_x
_atom_site_fract_y
_atom_site_fract_z
Co1 Co 0.0000 0.5000 0.0000
N1 N -0.01088(6) 0.3122(3) 0.06576(8)
O1 O 0.35899(7) 0.7418(3) 0.49864(10)
O2 O 0.36349(6) 0.5670(3) 0.41998(9)
O3 O 0.06387(5) 0.6750(2) 0.09936(7)
O4 O 0.07934(5) 0.3868(2) 0.06538(7)
C1 C -0.04541(9) -0.0794(4) 0.18234(13)
C2 C 0.0000 -0.2090(5) 0.2500
C3 C 0.31619(7) 0.4062(4) 0.45195(12)
H1 H 0.3249(9) 0.285(3) 0.4391(12)
H2 H 0.3263(8) 0.386(4) 0.5018(14)
C4 C 0.34818(7) 0.5888(4) 0.46008(11)
C5 C 0.15617(7) 0.5688(4) 0.17555(10)
H3 H 0.1658(7) 0.713(3) 0.1759(10)
H4 H 0.1749(9) 0.478(3) 0.1662(13)
C6 C 0.09676(7) 0.5450(3) 0.11019(10)
C7 C 0.00920(8) 0.1172(3) 0.08956(11)
C8 C 0.00009(8) -0.0113(4) 0.12781(12)
C9 C -0.03097(7) 0.0578(3) 0.14473(10)
C10 C -0.05098(8) 0.2611(4) 0.12117(12)
C11 C -0.04104(8) 0.3802(4) 0.08188(12)
C12 C 0.17357(7) 0.5189(3) 0.25471(10)
C13 C 0.15872(8) 0.6982(3) 0.28218(11)
H5 H 0.1750(7) 0.823(3) 0.2836(10)
H6 H 0.1197(8) 0.717(3) 0.2457(12)
C14 C 0.17769(8) 0.6481(3) 0.36154(12)
H7 H 0.1680(9) 0.768(3) 0.3774(13)
C15 C 0.23841(8) 0.6205(3) 0.41864(11)
H8 H 0.2509(8) 0.590(3) 0.4685(13)
H9 H 0.2565(8) 0.753(3) 0.4227(11)
C16 C 0.25493(7) 0.4416(3) 0.39330(10)
C17 C 0.22759(8) 0.2381(3) 0.38791(12)
H10 H 0.2399(8) 0.201(3) 0.4372(12)
H11 H 0.2366(7) 0.124(3) 0.3716(11)
C18 C 0.16677(8) 0.2646(3) 0.33129(11)
H12 H 0.1486(7) 0.133(3) 0.3278(11)
C19 C 0.14770(8) 0.3148(3) 0.25225(11)
H13 H 0.1557(7) 0.200(3) 0.2342(11)
H14 H 0.1085(8) 0.328(3) 0.2160(11)
C20 C 0.15123(9) 0.4452(4) 0.35701(14)
H15 H 0.1625(9) 0.411(4) 0.4061(14)
H16 H 0.1120(10) 0.465(3) 0.3207(14)
C21 C 0.23483(7) 0.4928(3) 0.31321(10)
H17 H 0.2441(7) 0.386(3) 0.2980(10)
H18 H 0.2518(7) 0.622(3) 0.3147(10)
H19 H -0.0550(8) 0.521(3) 0.0645(12)
H20 H 0.0127(8) -0.149(4) 0.1387(12)
H21 H 0.0115(8) -0.305(3) 0.2319(12)
H22 H -0.0611(9) 0.009(3) 0.1971(13)
H23 H -0.0725(9) 0.324(4) 0.1305(13)
H24 H 0.0301(8) 0.069(3) 0.0785(12)
H25 H -0.0732(10) -0.173(4) 0.1436(14)
H26 H 0.3822(11) 0.686(4) 0.4288(16)
Co1A Co 0.0000 0.5000 0.5000
N1A N 0.01088(6) 0.3122(3) 0.43424(8)
N1D N 0.01088(6) 0.6878(3) -0.06576(8)
O1D O -0.35899(7) 0.2582(3) -0.49864(10)
O2D O -0.36349(6) 0.4330(3) -0.41998(9)
O3D O -0.06387(5) 0.3250(2) -0.09936(7)
O4D O -0.07934(5) 0.6132(2) -0.06538(7)
C1A C 0.04541(9) -0.0794(4) 0.31766(13)
C3D C -0.31619(7) 0.5938(4) -0.45195(12)
H1D H -0.3249(9) 0.715(3) -0.4391(12)
H2D H -0.3263(8) 0.614(4) -0.5018(14)
C4D C -0.34818(7) 0.4112(4) -0.46008(11)
C5D C -0.15617(7) 0.4312(4) -0.17555(10)
H3D H -0.1658(7) 0.287(3) -0.1759(10)
H4D H -0.1749(9) 0.522(3) -0.1662(13)
C6D C -0.09676(7) 0.4550(3) -0.11019(10)
C7A C -0.00920(8) 0.1172(3) 0.41044(11)
C8A C -0.00009(8) -0.0113(4) 0.37219(12)
C9A C 0.03097(7) 0.0578(3) 0.35527(10)
C10A C 0.05098(8) 0.2611(4) 0.37883(12)
C11A C 0.04104(8) 0.3802(4) 0.41812(12)
C12D C -0.17357(7) 0.4811(3) -0.25471(10)
C13D C -0.15872(8) 0.3018(3) -0.28218(11)
H5D H -0.1750(7) 0.177(3) -0.2836(10)
H6D H -0.1197(8) 0.283(3) -0.2457(12)
C14D C -0.17769(8) 0.3519(3) -0.36154(12)
H7D H -0.1680(9) 0.232(3) -0.3774(13)
C15D C -0.23841(8) 0.3795(3) -0.41864(11)
H8D H -0.2509(8) 0.410(3) -0.4685(13)
H9D H -0.2565(8) 0.247(3) -0.4227(11)
C16D C -0.25493(7) 0.5584(3) -0.39330(10)
C17D C -0.22759(8) 0.7619(3) -0.38791(12)
H10D H -0.2399(8) 0.799(3) -0.4372(12)
H11D H -0.2366(7) 0.876(3) -0.3716(11)
C18D C -0.16677(8) 0.7354(3) -0.33129(11)
H12D H -0.1486(7) 0.867(3) -0.3278(11)
C19D C -0.14770(8) 0.6852(3) -0.25225(11)
H13D H -0.1557(7) 0.800(3) -0.2342(11)
H14D H -0.1085(8) 0.672(3) -0.2160(11)
C20D C -0.15123(9) 0.5548(4) -0.35701(14)
H15D H -0.1625(9) 0.589(4) -0.4061(14)
H16D H -0.1120(10) 0.535(3) -0.3207(14)
C21D C -0.23483(7) 0.5072(3) -0.31321(10)
H17D H -0.2441(7) 0.614(3) -0.2980(10)
H18D H -0.2518(7) 0.378(3) -0.3147(10)
H19A H 0.0550(8) 0.521(3) 0.4355(12)
H20A H -0.0127(8) -0.149(4) 0.3613(12)
H21A H -0.0115(8) -0.305(3) 0.2681(12)
H22A H 0.0611(9) 0.009(3) 0.3029(13)
H23A H 0.0725(9) 0.324(4) 0.3695(13)
H24A H -0.0301(8) 0.069(3) 0.4215(12)
H25A H 0.0732(10) -0.173(4) 0.3564(14)
H26D H -0.3822(11) 0.314(4) -0.4288(16)
loop_
_geom_bond_atom_site_label_1
_geom_bond_atom_site_label_2
_geom_bond_site_symmetry_1
_geom_bond_site_symmetry_2
Co1 N1 1_555 1_555
N1 C7 1_555 1_555
O1 C4 1_555 1_555
O2 C4 1_555 1_555
O3 Co1 1_555 1_555
O4 Co1 1_555 1_555
C1 C2 1_555 1_555
C2 H21 1_555 1_555
C3 H1 1_555 1_555
H2 C3 1_555 1_555
C4 C3 1_555 1_555
C5 H3 1_555 1_555
H4 C5 1_555 1_555
C6 O3 1_555 1_555
C7 C8 1_555 1_555
C8 C9 1_555 1_555
C9 C1 1_555 1_555
C10 C9 1_555 1_555
C11 N1 1_555 1_555
C12 C5 1_555 1_555
C13 C12 1_555 1_555
H5 C13 1_555 1_555
H6 C13 1_555 1_555
C14 C13 1_555 1_555
H7 C14 1_555 1_555
C15 C14 1_555 1_555
H8 C15 1_555 1_555
H9 C15 1_555 1_555
C16 C3 1_555 1_555
C17 C16 1_555 1_555
H10 C17 1_555 1_555
H11 C17 1_555 1_555
C18 C17 1_555 1_555
H12 C18 1_555 1_555
C19 C12 1_555 1_555
H13 C19 1_555 1_555
H14 C19 1_555 1_555
C20 C14 1_555 1_555
H15 C20 1_555 1_555
H16 C20 1_555 1_555
C21 C12 1_555 1_555
H17 C21 1_555 1_555
H18 C21 1_555 1_555
H19 C11 1_555 1_555
H20 C8 1_555 1_555
H22 C1 1_555 1_555
H23 C10 1_555 1_555
H24 C7 1_555 1_555
H25 C1 1_555 1_555
H26 O2 1_555 1_555
Co1A N1A 1_555 1_555
N1A C7A 1_555 1_555
N1D Co1 1_555 1_555
O1D C4D 1_555 1_555
O2D C4D 1_555 1_555
O3D Co1 1_555 1_555
O4D Co1 1_555 1_555
C1A C2 1_555 1_555
C3D H1D 1_555 1_555
H2D C3D 1_555 1_555
C4D C3D 1_555 1_555
C5D H3D 1_555 1_555
H4D C5D 1_555 1_555
C6D O3D 1_555 1_555
C7A C8A 1_555 1_555
C8A C9A 1_555 1_555
C9A C1A 1_555 1_555
C10A C9A 1_555 1_555
C11A N1A 1_555 1_555
C12D C5D 1_555 1_555
C13D C12D 1_555 1_555
H5D C13D 1_555 1_555
H6D C13D 1_555 1_555
C14D C13D 1_555 1_555
H7D C14D 1_555 1_555
C15D C14D 1_555 1_555
H8D C15D 1_555 1_555
H9D C15D 1_555 1_555
C16D C3D 1_555 1_555
C17D C16D 1_555 1_555
H10D C17D 1_555 1_555
H11D C17D 1_555 1_555
C18D C17D 1_555 1_555
H12D C18D 1_555 1_555
C19D C12D 1_555 1_555
H13D C19D 1_555 1_555
H14D C19D 1_555 1_555
C20D C14D 1_555 1_555
H15D C20D 1_555 1_555
H16D C20D 1_555 1_555
C21D C12D 1_555 1_555
H17D C21D 1_555 1_555
H18D C21D 1_555 1_555
H19A C11A 1_555 1_555
H20A C8A 1_555 1_555
H21A C2 1_555 1_555
H22A C1A 1_555 1_555
H23A C10A 1_555 1_555
H24A C7A 1_555 1_555
H25A C1A 1_555 1_555
H26D O2D 1_555 1_555
O4 C6 1_555 1_555
C5 C6 1_555 1_555
C10 C11 1_555 1_555
C15 C16 1_555 1_555
C16 C21 1_555 1_555
C18 C19 1_555 1_555
C18 C20 1_555 1_555
O4D C6D 1_555 1_555
C5D C6D 1_555 1_555
C10A C11A 1_555 1_555
C15D C16D 1_555 1_555
C16D C21D 1_555 1_555
C18D C19D 1_555 1_555
C18D C20D 1_555 1_555

#END
