
#######################################################################
#
#                 Cambridge Crystallographic Data Centre
#                                CCDC 
#
#######################################################################
#
# If this CIF has been generated from an entry in the Cambridge 
# Structural Database, then it will include bibliographic, chemical, 
# crystal, experimental, refinement or atomic coordinate data resulting 
# from the CCDC's data processing and validation procedures.
#
#######################################################################

data_QUTZOV01
_symmetry_cell_setting           monoclinic
_symmetry_space_group_name_H-M   'C 2/c'
_symmetry_Int_Tables_number      15
_space_group_name_Hall           '-C 2yn'
loop_
_symmetry_equiv_pos_site_id
_symmetry_equiv_pos_as_xyz
1 x,y,z
2 -x,y,1/2-z
3 1/2+x,1/2+y,z
4 1/2-x,1/2+y,1/2-z
5 -x,-y,-z
6 x,-y,1/2+z
7 1/2-x,1/2-y,-z
8 1/2+x,1/2-y,1/2+z
_cell_length_a                   22.624(2)
_cell_length_b                   13.9057(12)
_cell_length_c                   11.2888(10)
_cell_angle_alpha                90
_cell_angle_beta                 113.407(2)
_cell_angle_gamma                90
_cell_volume                     3259.22
loop_
_atom_site_label
_atom_site_type_symbol
_atom_site_fract_x
_atom_site_fract_y
_atom_site_fract_z
Co1 Co 0.0000 0.29778(3) 0.2500
Co2 Co 0.0000 0.10369(3) 0.2500
O1 O 0.07186(9) 0.28752(13) 0.42753(19)
O2 O 0.08202(9) 0.12912(13) 0.4129(2)
O3 O 0.44651(9) 0.38417(13) 0.85370(19)
O4 O 0.43203(9) 0.22587(13) 0.8311(2)
N1 N 0.0000 0.4475(2) 0.2500
N2 N 0.0000 0.9551(2) 0.2500
C1 C 0.10183(13) 0.20954(18) 0.4626(3)
C2 C 0.16896(14) 0.20863(19) 0.5716(3)
H1 H 0.1987 0.1901 0.5330
H2 H 0.1692 0.1569 0.6294
C3 C 0.19829(13) 0.29638(17) 0.6563(3)
C4 C 0.26792(13) 0.26839(18) 0.7439(3)
H3 H 0.2672 0.2121 0.7940
H4 H 0.2910 0.2516 0.6904
C5 C 0.30377(12) 0.34962(18) 0.8357(2)
C6 C 0.26610(14) 0.3760(2) 0.9184(3)
H5 H 0.2656 0.3213 0.9714
H6 H 0.2874 0.4289 0.9753
C7 C 0.19680(14) 0.4048(2) 0.8330(3)
H7 H 0.1736 0.4203 0.8877
C8 C 0.16259(13) 0.3224(2) 0.7420(3)
H8 H 0.1188 0.3412 0.6884
H9 H 0.1608 0.2666 0.7921
C9 C 0.20107(13) 0.38630(19) 0.5785(3)
H10 H 0.2241 0.3712 0.5244
H11 H 0.1577 0.4060 0.5230
C10 C 0.23513(14) 0.46810(19) 0.6705(3)
H12 H 0.2361 0.5248 0.6198
C11 C 0.19815(15) 0.4928(2) 0.7543(3)
H13 H 0.2190 0.5458 0.8115
H14 H 0.1545 0.5121 0.7000
C12 C 0.30444(13) 0.43851(19) 0.7552(3)
H15 H 0.3264 0.4911 0.8120
H16 H 0.3276 0.4239 0.7011
C13 C 0.37176(13) 0.31690(19) 0.9269(3)
H17 H 0.3885 0.3625 0.9975
H18 H 0.3682 0.2552 0.9635
C14 C 0.42005(13) 0.30739(18) 0.8659(2)
C15 C -0.02145(14) 0.49722(18) 0.1402(3)
H19 H -0.0373 0.4634 0.0627
C16 C -0.02139(14) 0.59617(18) 0.1354(3)
H20 H -0.0355 0.6279 0.0564
C17 C 0.0000 0.6479(2) 0.2500
C18 C 0.0000 0.7544(2) 0.2500
C19 C -0.01878(13) 0.80654(17) 0.3346(3)
H21 H -0.0311 0.7746 0.3935
C20 C -0.01898(13) 0.90550(18) 0.3305(3)
H22 H -0.0328 0.9393 0.3859
C15A C 0.02145(14) 0.49722(18) 0.3598(3)
H19A H 0.0373 0.4634 0.4373
C16A C 0.02139(14) 0.59617(18) 0.3646(3)
H20A H 0.0355 0.6279 0.4436
C19A C 0.01878(13) 0.80654(17) 0.1654(3)
H21A H 0.0311 0.7746 0.1065
C20A C 0.01898(13) 0.90550(18) 0.1695(3)
H22A H 0.0328 0.9393 0.1141
O1A O -0.07186(9) 0.28752(13) 0.07247(19)
O2A O -0.08202(9) 0.12912(13) 0.0871(2)
O3A O -0.44651(9) 0.38417(13) -0.35370(19)
O4A O -0.43203(9) 0.22587(13) -0.3311(2)
C1A C -0.10183(13) 0.20954(18) 0.0374(3)
C2A C -0.16896(14) 0.20863(19) -0.0716(3)
H1A H -0.1987 0.1901 -0.0330
H2A H -0.1692 0.1569 -0.1294
C3A C -0.19829(13) 0.29638(17) -0.1563(3)
C4A C -0.26792(13) 0.26839(18) -0.2439(3)
H3A H -0.2672 0.2121 -0.2940
H4A H -0.2910 0.2516 -0.1904
C5A C -0.30377(12) 0.34962(18) -0.3357(2)
C6A C -0.26610(14) 0.3760(2) -0.4184(3)
H5A H -0.2656 0.3213 -0.4714
H6A H -0.2874 0.4289 -0.4753
C7A C -0.19680(14) 0.4048(2) -0.3330(3)
H7A H -0.1736 0.4203 -0.3877
C8A C -0.16259(13) 0.3224(2) -0.2420(3)
H8A H -0.1188 0.3412 -0.1884
H9A H -0.1608 0.2666 -0.2921
C9A C -0.20107(13) 0.38630(19) -0.0785(3)
H10A H -0.2241 0.3712 -0.0244
H11A H -0.1577 0.4060 -0.0230
C10A C -0.23513(14) 0.46810(19) -0.1705(3)
H12A H -0.2361 0.5248 -0.1198
C11A C -0.19815(15) 0.4928(2) -0.2543(3)
H13A H -0.2190 0.5458 -0.3115
H14A H -0.1545 0.5121 -0.2000
C12A C -0.30444(13) 0.43851(19) -0.2552(3)
H15A H -0.3264 0.4911 -0.3120
H16A H -0.3276 0.4239 -0.2011
C13A C -0.37176(13) 0.31690(19) -0.4269(3)
H17A H -0.3885 0.3625 -0.4975
H18A H -0.3682 0.2552 -0.4635
C14A C -0.42005(13) 0.30739(18) -0.3659(2)
Co1F Co -0.5000 0.20222(3) -0.2500
Co1F_2 Co 0.5000 0.20222(3) 0.7500
Co2_2 Co 0.0000 1.10369(3) 0.2500
Co2F Co -0.5000 0.39631(3) -0.2500
Co2F_2 Co 0.5000 0.39631(3) 0.7500
O3F O 0.05349(9) 0.11583(13) 0.14630(19)
O3G O -0.05349(9) 0.11583(13) 0.35370(19)
O4F O 0.06797(9) 0.27413(13) 0.1689(2)
O4G O -0.06797(9) 0.27413(13) 0.3311(2)
N2_2 N 0.0000 -0.0449(2) 0.2500
loop_
_geom_bond_atom_site_label_1
_geom_bond_atom_site_label_2
_geom_bond_site_symmetry_1
_geom_bond_site_symmetry_2
Co1 O1 1_555 1_555
Co2 O2 1_555 1_555
O1 C1 1_555 1_555
O2 C1 1_555 1_555
O3 C14 1_555 1_555
O4 C14 1_555 1_555
N1 Co1 1_555 1_555
N2 C20 1_555 1_555
C1 C2 1_555 1_555
C2 H1 1_555 1_555
H2 C2 1_555 1_555
C3 C2 1_555 1_555
C4 C3 1_555 1_555
H3 C4 1_555 1_555
H4 C4 1_555 1_555
C5 C4 1_555 1_555
C6 C5 1_555 1_555
H5 C6 1_555 1_555
H6 C6 1_555 1_555
C7 C6 1_555 1_555
H7 C7 1_555 1_555
C8 C3 1_555 1_555
H8 C8 1_555 1_555
H9 C8 1_555 1_555
C9 C3 1_555 1_555
H10 C9 1_555 1_555
H11 C9 1_555 1_555
C10 C9 1_555 1_555
H12 C10 1_555 1_555
C11 C7 1_555 1_555
H13 C11 1_555 1_555
H14 C11 1_555 1_555
C12 C5 1_555 1_555
H15 C12 1_555 1_555
H16 C12 1_555 1_555
C13 C5 1_555 1_555
H17 C13 1_555 1_555
H18 C13 1_555 1_555
C14 C13 1_555 1_555
C15 N1 1_555 1_555
H19 C15 1_555 1_555
C16 C15 1_555 1_555
H20 C16 1_555 1_555
C17 C16 1_555 1_555
C18 C17 1_555 1_555
C19 C18 1_555 1_555
H21 C19 1_555 1_555
C20 C19 1_555 1_555
H22 C20 1_555 1_555
C15A N1 1_555 1_555
H19A C15A 1_555 1_555
C16A C17 1_555 1_555
H20A C16A 1_555 1_555
C19A C18 1_555 1_555
H21A C19A 1_555 1_555
C20A N2 1_555 1_555
H22A C20A 1_555 1_555
O1A Co1 1_555 1_555
O2A Co2 1_555 1_555
O3A C14A 1_555 1_555
O4A C14A 1_555 1_555
C1A O1A 1_555 1_555
C2A C1A 1_555 1_555
H1A C2A 1_555 1_555
H2A C2A 1_555 1_555
C3A C2A 1_555 1_555
C4A C3A 1_555 1_555
H3A C4A 1_555 1_555
H4A C4A 1_555 1_555
C5A C4A 1_555 1_555
C6A C5A 1_555 1_555
H5A C6A 1_555 1_555
H6A C6A 1_555 1_555
C7A C6A 1_555 1_555
H7A C7A 1_555 1_555
C8A C3A 1_555 1_555
H8A C8A 1_555 1_555
H9A C8A 1_555 1_555
C9A C3A 1_555 1_555
H10A C9A 1_555 1_555
H11A C9A 1_555 1_555
C10A C9A 1_555 1_555
H12A C10A 1_555 1_555
C11A C7A 1_555 1_555
H13A C11A 1_555 1_555
H14A C11A 1_555 1_555
C12A C5A 1_555 1_555
H15A C12A 1_555 1_555
H16A C12A 1_555 1_555
C13A C5A 1_555 1_555
H17A C13A 1_555 1_555
H18A C13A 1_555 1_555
C14A C13A 1_555 1_555
Co1F O4A 1_555 1_555
Co1F_2 O4 1_555 1_555
Co2_2 N2 1_555 1_555
Co2F O3A 1_555 1_555
Co2F_2 O3 1_555 1_555
O3F Co2 1_555 1_555
O3G Co2 1_555 1_555
O4F Co1 1_555 1_555
O4G Co1 1_555 1_555
N2_2 Co2 1_555 1_555
C7 C8 1_555 1_555
C10 C11 1_555 1_555
C10 C12 1_555 1_555
C15A C16A 1_555 1_555
C19A C20A 1_555 1_555
O2A C1A 1_555 1_555
C7A C8A 1_555 1_555
C10A C11A 1_555 1_555
C10A C12A 1_555 1_555

#END
