
#######################################################################
#
#                 Cambridge Crystallographic Data Centre
#                                CCDC 
#
#######################################################################
#
# If this CIF has been generated from an entry in the Cambridge 
# Structural Database, then it will include bibliographic, chemical, 
# crystal, experimental, refinement or atomic coordinate data resulting 
# from the CCDC's data processing and validation procedures.
#
#######################################################################

data_QUTZIP01
_symmetry_cell_setting           monoclinic
_symmetry_space_group_name_H-M   'C 2/c'
_symmetry_Int_Tables_number      15
_space_group_name_Hall           '-C 2yn'
loop_
_symmetry_equiv_pos_site_id
_symmetry_equiv_pos_as_xyz
1 x,y,z
2 -x,y,1/2-z
3 1/2+x,1/2+y,z
4 1/2-x,1/2+y,1/2-z
5 -x,-y,-z
6 x,-y,1/2+z
7 1/2-x,1/2-y,-z
8 1/2+x,1/2-y,1/2+z
_cell_length_a                   23.5554(5)
_cell_length_b                   11.4644(2)
_cell_length_c                   13.2068(3)
_cell_angle_alpha                90
_cell_angle_beta                 93.4870(10)
_cell_angle_gamma                90
_cell_volume                     3559.87
loop_
_atom_site_label
_atom_site_type_symbol
_atom_site_fract_x
_atom_site_fract_y
_atom_site_fract_z
C1 C 1.10165(9) 0.23852(18) 0.11872(19)
C2 C 1.16483(10) 0.2615(2) 0.1181(2)
C3 C 1.18073(9) 0.39097(19) 0.10509(16)
C4 C 1.14727(11) 0.4700(2) 0.1730(2)
C5 C 1.16614(11) 0.5965(2) 0.1620(3)
C6 C 1.22972(11) 0.6068(3) 0.1927(3)
C7 C 1.26493(10) 0.5290(2) 0.12535(18)
C8 C 1.25317(12) 0.5669(3) 0.0150(2)
C9 C 1.18962(13) 0.5576(3) -0.0147(2)
C10 C 1.17087(13) 0.4310(3) -0.0050(2)
C11 C 1.24434(10) 0.4034(2) 0.13628(19)
C12 C 1.15542(15) 0.6345(3) 0.0531(3)
C13 C 1.32831(11) 0.5426(3) 0.1609(2)
C14 C 1.36947(10) 0.4845(2) 0.09461(19)
C15 C 1.02522(10) -0.0260(2) 0.17912(18)
C16 C 1.02577(10) -0.1458(2) 0.17620(18)
C17 C 1.0000 -0.2090(3) 0.2500
C18 C 1.01686(11) -0.5215(2) 0.33214(19)
C19 C 1.01699(11) -0.4017(2) 0.33555(19)
C20 C 1.0000 -0.3384(3) 0.2500
N1 N 1.0000 0.0351(2) 0.2500
N2 N 1.0000 -0.5830(2) 0.2500
O1 O 1.03313(8) 0.22626(16) 0.40456(12)
O2 O 1.08109(6) 0.23037(13) 0.20394(12)
O3 O 1.07249(6) 0.22979(14) 0.03521(12)
O4 O 1.37248(7) 0.37065(17) 0.10716(14)
O5 O 1.39716(8) 0.53606(16) 0.03456(15)
Co1 Co 1.0000 0.22561(3) 0.2500
H1 H 1.1813(10) 0.219(2) 0.0652(18)
H2 H 1.1800(10) 0.237(2) 0.1834(19)
H3 H 1.1083(11) 0.466(2) 0.1531(17)
H4 H 1.1523(11) 0.445(2) 0.242(2)
H5 H 1.1469(11) 0.645(2) 0.2071(18)
H6 H 1.2397(11) 0.585(2) 0.265(2)
H7 H 1.2417(10) 0.684(2) 0.1847(18)
H8 H 1.2657(11) 0.647(3) 0.0086(18)
H9 H 1.2745(11) 0.518(2) -0.0279(19)
H10 H 1.1846(12) 0.580(2) -0.080(2)
H11 H 1.1928(10) 0.378(2) -0.0465(17)
H12 H 1.1306(11) 0.4226(19) -0.0239(16)
H13 H 1.2515(9) 0.3782(19) 0.2086(18)
H14 H 1.2657(9) 0.353(2) 0.0961(16)
H15 H 1.1147(14) 0.631(3) 0.034(2)
H16 H 1.1657(13) 0.713(3) 0.047(2)
H17 H 1.3330(11) 0.508(2) 0.230(2)
H18 H 1.3366(10) 0.622(2) 0.1619(17)
H19 H 1.3927(13) 0.340(3) 0.061(2)
H20 H 1.0424(9) 0.019(2) 0.1292(17)
H21 H 1.0444(9) -0.183(2) 0.1273(17)
H22 H 1.0290(10) -0.565(2) 0.3897(18)
H23 H 1.0279(10) -0.365(2) 0.3952(18)
H24 H 1.0529(11) 0.176(2) 0.4197(18)
H25 H 1.0011(13) 0.220(2) 0.440(2)
C15A C 0.97478(10) -0.0260(2) 0.32088(18)
C16A C 0.97423(10) -0.1458(2) 0.32380(18)
H20A H 0.9576(9) 0.019(2) 0.3708(17)
H21A H 0.9556(9) -0.183(2) 0.3727(17)
C18A C 0.98314(11) -0.5215(2) 0.16786(19)
C19A C 0.98301(11) -0.4017(2) 0.16445(19)
H22A H 0.9710(10) -0.565(2) 0.1103(18)
H23A H 0.9721(10) -0.365(2) 0.1048(18)
C1A C 0.89835(9) 0.23852(18) 0.38128(19)
C2A C 0.83517(10) 0.2615(2) 0.3819(2)
C3A C 0.81927(9) 0.39097(19) 0.39491(16)
C4A C 0.85273(11) 0.4700(2) 0.3270(2)
C5A C 0.83386(11) 0.5965(2) 0.3380(3)
C6A C 0.77028(11) 0.6068(3) 0.3073(3)
C7A C 0.73507(10) 0.5290(2) 0.37465(18)
C8A C 0.74683(12) 0.5669(3) 0.4850(2)
C9A C 0.81038(13) 0.5576(3) 0.5147(2)
C10A C 0.82913(13) 0.4310(3) 0.5050(2)
C11A C 0.75566(10) 0.4034(2) 0.36372(19)
C12A C 0.84458(15) 0.6345(3) 0.4469(3)
C13A C 0.67169(11) 0.5426(3) 0.3391(2)
C14A C 0.63053(10) 0.4845(2) 0.40539(19)
O1A O 0.96687(8) 0.22626(16) 0.09544(12)
O2A O 0.91891(6) 0.23037(13) 0.29606(12)
O3A O 0.92751(6) 0.22979(14) 0.46479(12)
O4A O 0.62752(7) 0.37065(17) 0.39284(14)
O5A O 0.60284(8) 0.53606(16) 0.46544(15)
H1A H 0.8187(10) 0.219(2) 0.4348(18)
H2A H 0.8200(10) 0.237(2) 0.3166(19)
H3A H 0.8917(11) 0.466(2) 0.3469(17)
H4A H 0.8477(11) 0.445(2) 0.258(2)
H5A H 0.8531(11) 0.645(2) 0.2929(18)
H6A H 0.7603(11) 0.585(2) 0.235(2)
H7A H 0.7583(10) 0.684(2) 0.3153(18)
H8A H 0.7343(11) 0.647(3) 0.4914(18)
H9A H 0.7255(11) 0.518(2) 0.5279(19)
H10A H 0.8154(12) 0.580(2) 0.580(2)
H11A H 0.8072(10) 0.378(2) 0.5465(17)
H12A H 0.8694(11) 0.4226(19) 0.5239(16)
H13A H 0.7485(9) 0.3782(19) 0.2914(18)
H14A H 0.7343(9) 0.353(2) 0.4039(16)
H15A H 0.8853(14) 0.631(3) 0.466(2)
H16A H 0.8343(13) 0.713(3) 0.453(2)
H17A H 0.6670(11) 0.508(2) 0.270(2)
H18A H 0.6634(10) 0.622(2) 0.3381(17)
H19A H 0.6073(13) 0.340(3) 0.439(2)
H24A H 0.9471(11) 0.176(2) 0.0803(18)
H25A H 0.9989(13) 0.220(2) 0.060(2)
N2_2 N 1.0000 0.4170(2) 0.2500
Co1_2 Co 1.0000 -0.77439(3) 0.2500
loop_
_geom_bond_atom_site_label_1
_geom_bond_atom_site_label_2
_geom_bond_site_symmetry_1
_geom_bond_site_symmetry_2
C1 C2 1_555 1_555
C2 C3 1_555 1_555
C3 C4 1_555 1_555
C4 C5 1_555 1_555
C5 C6 1_555 1_555
C6 C7 1_555 1_555
C7 C8 1_555 1_555
C8 C9 1_555 1_555
C9 C10 1_555 1_555
C10 C3 1_555 1_555
C11 C3 1_555 1_555
C12 C5 1_555 1_555
C13 C7 1_555 1_555
C14 C13 1_555 1_555
C15 C16 1_555 1_555
C16 C17 1_555 1_555
C17 C20 1_555 1_555
C18 C19 1_555 1_555
C19 C20 1_555 1_555
C20 C19A 1_555 1_555
N1 C15 1_555 1_555
N2 C18 1_555 1_555
O1 Co1 1_555 1_555
O2 C1 1_555 1_555
O3 C1 1_555 1_555
O4 C14 1_555 1_555
O5 C14 1_555 1_555
Co1 N1 1_555 1_555
H1 C2 1_555 1_555
H2 C2 1_555 1_555
H3 C4 1_555 1_555
H4 C4 1_555 1_555
H5 C5 1_555 1_555
H6 C6 1_555 1_555
H7 C6 1_555 1_555
H8 C8 1_555 1_555
H9 C8 1_555 1_555
H10 C9 1_555 1_555
H11 C10 1_555 1_555
H12 C10 1_555 1_555
H13 C11 1_555 1_555
H14 C11 1_555 1_555
H15 C12 1_555 1_555
H16 C12 1_555 1_555
H17 C13 1_555 1_555
H18 C13 1_555 1_555
H19 O4 1_555 1_555
H20 C15 1_555 1_555
H21 C16 1_555 1_555
H22 C18 1_555 1_555
H23 C19 1_555 1_555
H24 O1 1_555 1_555
H25 O1 1_555 1_555
C15A N1 1_555 1_555
C16A C17 1_555 1_555
H20A C15A 1_555 1_555
H21A C16A 1_555 1_555
C18A N2 1_555 1_555
C19A C18A 1_555 1_555
H22A C18A 1_555 1_555
H23A C19A 1_555 1_555
C1A C2A 1_555 1_555
C2A C3A 1_555 1_555
C3A C4A 1_555 1_555
C4A C5A 1_555 1_555
C5A C6A 1_555 1_555
C6A C7A 1_555 1_555
C7A C8A 1_555 1_555
C8A C9A 1_555 1_555
C9A C10A 1_555 1_555
C10A C3A 1_555 1_555
C11A C3A 1_555 1_555
C12A C5A 1_555 1_555
C13A C7A 1_555 1_555
C14A C13A 1_555 1_555
O1A Co1 1_555 1_555
O2A Co1 1_555 1_555
O3A C1A 1_555 1_555
O4A C14A 1_555 1_555
O5A C14A 1_555 1_555
H1A C2A 1_555 1_555
H2A C2A 1_555 1_555
H3A C4A 1_555 1_555
H4A C4A 1_555 1_555
H5A C5A 1_555 1_555
H6A C6A 1_555 1_555
H7A C6A 1_555 1_555
H8A C8A 1_555 1_555
H9A C8A 1_555 1_555
H10A C9A 1_555 1_555
H11A C10A 1_555 1_555
H12A C10A 1_555 1_555
H13A C11A 1_555 1_555
H14A C11A 1_555 1_555
H15A C12A 1_555 1_555
H16A C12A 1_555 1_555
H17A C13A 1_555 1_555
H18A C13A 1_555 1_555
H19A O4A 1_555 1_555
H24A O1A 1_555 1_555
H25A O1A 1_555 1_555
N2_2 Co1 1_555 1_555
Co1_2 N2 1_555 1_555
C7 C11 1_555 1_555
C9 C12 1_555 1_555
O2 Co1 1_555 1_555
C15A C16A 1_555 1_555
C1A O2A 1_555 1_555
C7A C11A 1_555 1_555
C9A C12A 1_555 1_555

#END
