
#######################################################################
#
#                 Cambridge Crystallographic Data Centre
#                                CCDC 
#
#######################################################################
#
# If this CIF has been generated from an entry in the Cambridge 
# Structural Database, then it will include bibliographic, chemical, 
# crystal, experimental, refinement or atomic coordinate data resulting 
# from the CCDC's data processing and validation procedures.
#
#######################################################################

data_QUTZIP
_symmetry_cell_setting           monoclinic
_symmetry_space_group_name_H-M   'C 2/c'
_symmetry_Int_Tables_number      15
_space_group_name_Hall           '-C 2yn'
loop_
_symmetry_equiv_pos_site_id
_symmetry_equiv_pos_as_xyz
1 x,y,z
2 -x,y,1/2-z
3 1/2+x,1/2+y,z
4 1/2-x,1/2+y,1/2-z
5 -x,-y,-z
6 x,-y,1/2+z
7 1/2-x,1/2-y,-z
8 1/2+x,1/2-y,1/2+z
_cell_length_a                   23.67(2)
_cell_length_b                   11.474(11)
_cell_length_c                   13.229(13)
_cell_angle_alpha                90
_cell_angle_beta                 93.599(17)
_cell_angle_gamma                90
_cell_volume                     3585.77
loop_
_atom_site_label
_atom_site_type_symbol
_atom_site_fract_x
_atom_site_fract_y
_atom_site_fract_z
Co1 Co 0.0000 0.77426(5) 0.2500
N1 N 0.0000 0.5827(3) 0.2500
N2 N 0.0000 -0.0351(3) 0.2500
O1 O -0.03300(8) 0.77372(16) 0.09609(14)
H1 H -0.0028 0.7795 0.0689
H2 H -0.0526 0.8292 0.0816
O2 O 0.08149(8) 0.76960(18) 0.20440(17)
O3 O 0.07254(9) 0.77029(18) 0.03476(18)
O4 O 0.37227(9) 0.6294(2) 0.10711(17)
H3 H 0.3912 0.6557 0.0605
O5 O 0.39706(10) 0.4636(2) 0.0341(2)
C1 C -0.01662(14) 0.5221(3) 0.1673(3)
H4 H -0.0289 0.5628 0.1092
C2 C -0.01641(14) 0.4006(3) 0.1638(2)
H5 H -0.0272 0.3617 0.1039
C3 C 0.0000 0.3387(4) 0.2500
C4 C 0.0000 0.2080(4) 0.2500
C5 C -0.02567(14) 0.1462(3) 0.3243(2)
H6 H -0.0431 0.1848 0.3757
C6 C -0.02484(13) 0.0252(3) 0.3208(2)
H7 H -0.0426 -0.0158 0.3705
C7 C 0.10093(14) 0.7616(3) 0.1182(3)
C8 C 0.16485(12) 0.7384(3) 0.1179(3)
H8 H 0.1829 0.7665 0.1812
H9 H 0.1800 0.7829 0.0635
C9 C 0.18056(13) 0.6090(3) 0.1049(2)
C10 C 0.14711(14) 0.5297(3) 0.1728(3)
H10 H 0.1533 0.5540 0.2428
H11 H 0.1070 0.5360 0.1537
C11 C 0.16628(15) 0.4034(3) 0.1616(3)
H12 H 0.1449 0.3533 0.2055
C12 C 0.23005(14) 0.3930(3) 0.1924(3)
H13 H 0.2368 0.4156 0.2628
H14 H 0.2419 0.3126 0.1858
C13 C 0.26495(14) 0.4708(3) 0.1259(3)
C14 C 0.24423(13) 0.5968(3) 0.1362(2)
H15 H 0.2657 0.6473 0.0940
H16 H 0.2510 0.6219 0.2059
C15 C 0.17079(15) 0.5697(3) -0.0041(3)
H17 H 0.1920 0.6191 -0.0476
H18 H 0.1309 0.5765 -0.0251
C16 C 0.18988(17) 0.4423(3) -0.0144(3)
H19 H 0.1830 0.4177 -0.0850
C17 C 0.25352(15) 0.4335(3) 0.0154(3)
H20 H 0.2662 0.3539 0.0069
H21 H 0.2744 0.4833 -0.0282
C18 C 0.15534(17) 0.3652(3) 0.0529(4)
H22 H 0.1154 0.3722 0.0329
H23 H 0.1663 0.2842 0.0457
C19 C 0.32851(13) 0.4569(3) 0.1608(3)
H24 H 0.3343 0.4882 0.2288
H25 H 0.3373 0.3744 0.1643
C20 C 0.36963(15) 0.5150(3) 0.0947(3)
Co1_2 Co 0.0000 -0.22574(5) 0.2500
N2_2 N 0.0000 0.9649(3) 0.2500
O1A O 0.03300(8) 0.77372(16) 0.40391(14)
H1A H 0.0028 0.7795 0.4311
H2A H 0.0526 0.8292 0.4184
O2A O -0.08149(8) 0.76960(18) 0.29560(17)
O3A O -0.07254(9) 0.77029(18) 0.46524(18)
O4A O -0.37227(9) 0.6294(2) 0.39289(17)
H3A H -0.3912 0.6557 0.4395
O5A O -0.39706(10) 0.4636(2) 0.4659(2)
C1A C 0.01662(14) 0.5221(3) 0.3327(3)
H4A H 0.0289 0.5628 0.3908
C2A C 0.01641(14) 0.4006(3) 0.3362(2)
H5A H 0.0272 0.3617 0.3961
C5A C 0.02567(14) 0.1462(3) 0.1757(2)
H6A H 0.0431 0.1848 0.1243
C6A C 0.02484(13) 0.0252(3) 0.1792(2)
H7A H 0.0426 -0.0158 0.1295
C7A C -0.10093(14) 0.7616(3) 0.3818(3)
C8A C -0.16485(12) 0.7384(3) 0.3821(3)
H8A H -0.1829 0.7665 0.3188
H9A H -0.1800 0.7829 0.4365
C9A C -0.18056(13) 0.6090(3) 0.3951(2)
C10A C -0.14711(14) 0.5297(3) 0.3272(3)
H10A H -0.1533 0.5540 0.2572
H11A H -0.1070 0.5360 0.3463
C11A C -0.16628(15) 0.4034(3) 0.3384(3)
H12A H -0.1449 0.3533 0.2945
C12A C -0.23005(14) 0.3930(3) 0.3076(3)
H13A H -0.2368 0.4156 0.2372
H14A H -0.2419 0.3126 0.3142
C13A C -0.26495(14) 0.4708(3) 0.3741(3)
C14A C -0.24423(13) 0.5968(3) 0.3638(2)
H15A H -0.2657 0.6473 0.4060
H16A H -0.2510 0.6219 0.2941
C15A C -0.17079(15) 0.5697(3) 0.5041(3)
H17A H -0.1920 0.6191 0.5476
H18A H -0.1309 0.5765 0.5251
C16A C -0.18988(17) 0.4423(3) 0.5144(3)
H19A H -0.1830 0.4177 0.5850
C17A C -0.25352(15) 0.4335(3) 0.4846(3)
H20A H -0.2662 0.3539 0.4931
H21A H -0.2744 0.4833 0.5282
C18A C -0.15534(17) 0.3652(3) 0.4471(4)
H22A H -0.1154 0.3722 0.4671
H23A H -0.1663 0.2842 0.4543
C19A C -0.32851(13) 0.4569(3) 0.3392(3)
H24A H -0.3343 0.4882 0.2712
H25A H -0.3373 0.3744 0.3357
C20A C -0.36963(15) 0.5150(3) 0.4053(3)
loop_
_geom_bond_atom_site_label_1
_geom_bond_atom_site_label_2
_geom_bond_site_symmetry_1
_geom_bond_site_symmetry_2
Co1 N1 1_555 1_555
N1 C1 1_555 1_555
N2 C6 1_555 1_555
O1 Co1 1_555 1_555
H1 O1 1_555 1_555
H2 O1 1_555 1_555
O2 Co1 1_555 1_555
O3 C7 1_555 1_555
O4 H3 1_555 1_555
O5 C20 1_555 1_555
C1 H4 1_555 1_555
C2 C1 1_555 1_555
H5 C2 1_555 1_555
C3 C2 1_555 1_555
C4 C3 1_555 1_555
C5 C4 1_555 1_555
H6 C5 1_555 1_555
C6 C5 1_555 1_555
H7 C6 1_555 1_555
C7 O2 1_555 1_555
C8 C7 1_555 1_555
H8 C8 1_555 1_555
H9 C8 1_555 1_555
C9 C8 1_555 1_555
C10 C9 1_555 1_555
H10 C10 1_555 1_555
H11 C10 1_555 1_555
C11 C10 1_555 1_555
H12 C11 1_555 1_555
C12 C11 1_555 1_555
H13 C12 1_555 1_555
H14 C12 1_555 1_555
C13 C12 1_555 1_555
C14 C9 1_555 1_555
H15 C14 1_555 1_555
H16 C14 1_555 1_555
C15 C9 1_555 1_555
H17 C15 1_555 1_555
H18 C15 1_555 1_555
C16 C15 1_555 1_555
H19 C16 1_555 1_555
C17 C13 1_555 1_555
H20 C17 1_555 1_555
H21 C17 1_555 1_555
C18 C11 1_555 1_555
H22 C18 1_555 1_555
H23 C18 1_555 1_555
C19 C13 1_555 1_555
H24 C19 1_555 1_555
H25 C19 1_555 1_555
C20 O4 1_555 1_555
Co1_2 N2 1_555 1_555
N2_2 Co1 1_555 1_555
O1A Co1 1_555 1_555
H1A O1A 1_555 1_555
H2A O1A 1_555 1_555
O2A Co1 1_555 1_555
O3A C7A 1_555 1_555
O4A H3A 1_555 1_555
O5A C20A 1_555 1_555
C1A N1 1_555 1_555
H4A C1A 1_555 1_555
C2A C3 1_555 1_555
H5A C2A 1_555 1_555
C5A C4 1_555 1_555
H6A C5A 1_555 1_555
C6A N2 1_555 1_555
H7A C6A 1_555 1_555
C7A O2A 1_555 1_555
C8A C7A 1_555 1_555
H8A C8A 1_555 1_555
H9A C8A 1_555 1_555
C9A C8A 1_555 1_555
C10A C9A 1_555 1_555
H10A C10A 1_555 1_555
H11A C10A 1_555 1_555
C11A C10A 1_555 1_555
H12A C11A 1_555 1_555
C12A C11A 1_555 1_555
H13A C12A 1_555 1_555
H14A C12A 1_555 1_555
C13A C12A 1_555 1_555
C14A C9A 1_555 1_555
H15A C14A 1_555 1_555
H16A C14A 1_555 1_555
C15A C9A 1_555 1_555
H17A C15A 1_555 1_555
H18A C15A 1_555 1_555
C16A C15A 1_555 1_555
H19A C16A 1_555 1_555
C17A C13A 1_555 1_555
H20A C17A 1_555 1_555
H21A C17A 1_555 1_555
C18A C11A 1_555 1_555
H22A C18A 1_555 1_555
H23A C18A 1_555 1_555
C19A C13A 1_555 1_555
H24A C19A 1_555 1_555
H25A C19A 1_555 1_555
C20A O4A 1_555 1_555
C13 C14 1_555 1_555
C16 C17 1_555 1_555
C16 C18 1_555 1_555
C19 C20 1_555 1_555
C1A C2A 1_555 1_555
C5A C6A 1_555 1_555
C13A C14A 1_555 1_555
C16A C17A 1_555 1_555
C16A C18A 1_555 1_555
C19A C20A 1_555 1_555

#END
