
#######################################################################
#
#                 Cambridge Crystallographic Data Centre
#                                CCDC 
#
#######################################################################
#
# If this CIF has been generated from an entry in the Cambridge 
# Structural Database, then it will include bibliographic, chemical, 
# crystal, experimental, refinement or atomic coordinate data resulting 
# from the CCDC's data processing and validation procedures.
#
#######################################################################

data_QUVBUF
_symmetry_cell_setting           monoclinic
_symmetry_space_group_name_H-M   'P 21/c'
_symmetry_Int_Tables_number      14
_space_group_name_Hall           '-P 2ybc'
loop_
_symmetry_equiv_pos_site_id
_symmetry_equiv_pos_as_xyz
1 x,y,z
2 -x,1/2+y,1/2-z
3 -x,-y,-z
4 x,1/2-y,1/2+z
_cell_length_a                   9.43870(10)
_cell_length_b                   10.11070(10)
_cell_length_c                   11.36910(10)
_cell_angle_alpha                90
_cell_angle_beta                 111.4510(10)
_cell_angle_gamma                90
_cell_volume                     1009.82
loop_
_atom_site_label
_atom_site_type_symbol
_atom_site_fract_x
_atom_site_fract_y
_atom_site_fract_z
Zn1 Zn 0.38920(5) 0.12580(4) 0.53814(4)
O1 O 0.6060(5) 0.5032(4) 0.1304(4)
O2 O 1.0990(6) 0.2361(6) 0.2524(5)
O3 O 1.1849(6) 0.2509(6) 0.4622(5)
O4 O 0.5959(7) 0.3461(6) 0.6723(6)
O5 O 0.5603(6) 0.2606(5) 0.4860(5)
O6 O 0.3653(6) 0.1793(7) 0.7285(5)
H1 H 0.412(9) 0.238(7) 0.784(7)
H2 H 0.274(4) 0.204(10) 0.715(9)
O7 O 0.2651(7) -0.0621(6) 0.5783(5)
H3 H 0.305(13) -0.106(8) 0.648(4)
H4 H 0.260(14) -0.126(6) 0.526(6)
N1 N 0.7885(6) 0.4162(5) 0.4553(5)
C1 C 0.9150(7) 0.3524(6) 0.4595(6)
H5 H 0.9809 0.3159 0.5347
C2 C 0.9457(7) 0.3420(6) 0.3488(6)
C3 C 0.8484(8) 0.3964(6) 0.2374(6)
H6 H 0.8722 0.3921 0.1650
C4 C 0.7105(7) 0.4597(6) 0.2328(6)
C5 C 0.6899(7) 0.4686(6) 0.3485(6)
H7 H 0.6046 0.5126 0.3513
C6 C 1.0887(7) 0.2682(6) 0.3537(6)
C7 C 0.7550(7) 0.4278(7) 0.5714(6)
H8 H 0.7280 0.5189 0.5802
H9 H 0.8467 0.4075 0.6432
C8 C 0.6250(7) 0.3368(7) 0.5762(6)
Zn1_2 Zn 1.38920(5) 0.12580(4) 0.53814(4)
Zn1A Zn 0.61080(5) 0.62580(4) -0.03814(4)
Zn1C Zn 0.38920(5) 0.37420(4) 0.03814(4)
O1A O 0.3940(5) 0.0032(4) 0.3696(4)
O1C O 0.6060(5) -0.0032(4) 0.6304(4)
O3_2 O 0.1849(6) 0.2509(6) 0.4622(5)
loop_
_geom_bond_atom_site_label_1
_geom_bond_atom_site_label_2
_geom_bond_site_symmetry_1
_geom_bond_site_symmetry_2
Zn1 O5 1_555 1_555
O1 C4 1_555 1_555
O2 C6 1_555 1_555
O3 C6 1_555 1_555
O4 C8 1_555 1_555
O5 C8 1_555 1_555
O6 Zn1 1_555 1_555
H1 O6 1_555 1_555
H2 O6 1_555 1_555
O7 Zn1 1_555 1_555
H3 O7 1_555 1_555
H4 O7 1_555 1_555
N1 C1 1_555 1_555
C1 H5 1_555 1_555
C2 C1 1_555 1_555
C3 C2 1_555 1_555
H6 C3 1_555 1_555
C4 C3 1_555 1_555
C5 N1 1_555 1_555
H7 C5 1_555 1_555
C6 C2 1_555 1_555
C7 N1 1_555 1_555
H8 C7 1_555 1_555
H9 C7 1_555 1_555
C8 C7 1_555 1_555
Zn1_2 O3 1_555 1_555
Zn1A O1 1_555 1_555
Zn1C O1 1_555 1_555
O1A Zn1 1_555 1_555
O1C Zn1 1_555 1_555
O3_2 Zn1 1_555 1_555
C4 C5 1_555 1_555

#END
