
#######################################################################
#
#                 Cambridge Crystallographic Data Centre
#                                CCDC 
#
#######################################################################
#
# If this CIF has been generated from an entry in the Cambridge 
# Structural Database, then it will include bibliographic, chemical, 
# crystal, experimental, refinement or atomic coordinate data resulting 
# from the CCDC's data processing and validation procedures.
#
#######################################################################

data_QUVBOZ
_symmetry_cell_setting           monoclinic
_symmetry_space_group_name_H-M   'P 21/c'
_symmetry_Int_Tables_number      14
_space_group_name_Hall           '-P 2ybc'
loop_
_symmetry_equiv_pos_site_id
_symmetry_equiv_pos_as_xyz
1 x,y,z
2 -x,1/2+y,1/2-z
3 -x,-y,-z
4 x,1/2-y,1/2+z
_cell_length_a                   9.43230(10)
_cell_length_b                   10.11150(10)
_cell_length_c                   11.36580(10)
_cell_angle_alpha                90
_cell_angle_beta                 111.4260(10)
_cell_angle_gamma                90
_cell_volume                     1009.09
loop_
_atom_site_label
_atom_site_type_symbol
_atom_site_fract_x
_atom_site_fract_y
_atom_site_fract_z
Cd1 Cd 0.389078(15) 0.625676(14) 0.038033(12)
O1 O 0.60600(15) 0.49711(14) 0.12967(12)
O2 O 1.09912(18) 0.7631(2) 0.25258(15)
O3 O 1.18569(17) 0.74802(17) 0.46284(14)
O4 O 0.5976(2) 0.65341(17) 0.67355(17)
O5 O 0.56106(18) 0.73895(16) 0.48519(15)
O6 O 0.3657(2) 0.67941(19) 0.22824(15)
H1 H 0.291(2) 0.721(3) 0.231(3)
H2 H 0.435(2) 0.717(3) 0.284(2)
O7 O 0.2654(2) 0.43840(18) 0.07811(16)
H3 H 0.309(4) 0.371(2) 0.063(3)
H4 H 0.288(4) 0.436(3) 0.1560(17)
N1 N 0.78873(18) 0.58432(16) 0.45536(14)
C1 C 0.9149(2) 0.64800(19) 0.45892(19)
H5 H 0.9808 0.6846 0.5340
C2 C 0.9457(2) 0.65846(19) 0.34898(18)
C3 C 0.8463(2) 0.6031(2) 0.23737(18)
H6 H 0.8695 0.6070 0.1646
C4 C 0.7117(2) 0.54156(18) 0.23353(17)
C5 C 0.6891(2) 0.5314(2) 0.34815(18)
H7 H 0.6036 0.4873 0.3504
C6 C 1.0882(2) 0.7307(2) 0.35355(18)
C7 C 0.7541(2) 0.5727(2) 0.57188(18)
H8 H 0.8458 0.5924 0.6439
H9 H 0.7263 0.4818 0.5802
C8 C 0.6271(2) 0.6628(2) 0.57645(19)
Cd1B Cd 0.610922(15) 0.374324(14) -0.038033(12)
Cd1A Cd -0.389078(15) 0.125676(14) -0.538033(12)
Cd1A_2 Cd 0.610922(15) 0.125676(14) -0.538033(12)
Cd1C Cd 0.389078(15) 0.874324(14) 0.538033(12)
Cd1C_2 Cd 1.389078(15) 0.874324(14) 0.538033(12)
O1B O 0.39400(15) 0.50289(14) -0.12967(12)
O2B O -0.09912(18) 0.2369(2) -0.25258(15)
O3B O -0.18569(17) 0.25198(17) -0.46284(14)
O3A O 0.81431(17) 0.24802(17) 0.03716(14)
O3C O 0.18569(17) 0.75198(17) -0.03716(14)
O4B O 0.4024(2) 0.34659(17) -0.67355(17)
O5B O 0.43894(18) 0.26105(16) -0.48519(15)
O5A O 0.43894(18) 0.23895(16) 0.01481(15)
O5C O 0.56106(18) 0.76105(16) -0.01481(15)
O6B O 0.6343(2) 0.32059(19) -0.22824(15)
H1B H 0.709(2) 0.279(3) -0.231(3)
H2B H 0.565(2) 0.283(3) -0.284(2)
O7B O 0.7346(2) 0.56160(18) -0.07811(16)
H3B H 0.691(4) 0.629(2) -0.063(3)
H4B H 0.712(4) 0.564(3) -0.1560(17)
N1B N 0.21127(18) 0.41568(16) -0.45536(14)
C1B C 0.0851(2) 0.35200(19) -0.45892(19)
H5B H 0.0192 0.3154 -0.5340
C2B C 0.0543(2) 0.34154(19) -0.34898(18)
C3B C 0.1537(2) 0.3969(2) -0.23737(18)
H6B H 0.1305 0.3930 -0.1646
C4B C 0.2883(2) 0.45844(18) -0.23353(17)
C5B C 0.3109(2) 0.4686(2) -0.34815(18)
H7B H 0.3964 0.5127 -0.3504
C6B C -0.0882(2) 0.2693(2) -0.35355(18)
C7B C 0.2459(2) 0.4273(2) -0.57188(18)
H8B H 0.1542 0.4076 -0.6439
H9B H 0.2737 0.5182 -0.5802
C8B C 0.3729(2) 0.3372(2) -0.57645(19)
loop_
_geom_bond_atom_site_label_1
_geom_bond_atom_site_label_2
_geom_bond_site_symmetry_1
_geom_bond_site_symmetry_2
Cd1 O1 1_555 1_555
O1 C4 1_555 1_555
O2 C6 1_555 1_555
O3 C6 1_555 1_555
O4 C8 1_555 1_555
O5 C8 1_555 1_555
O6 Cd1 1_555 1_555
H1 O6 1_555 1_555
H2 O6 1_555 1_555
O7 Cd1 1_555 1_555
H3 O7 1_555 1_555
H4 O7 1_555 1_555
N1 C1 1_555 1_555
C1 H5 1_555 1_555
C2 C1 1_555 1_555
C3 C2 1_555 1_555
H6 C3 1_555 1_555
C4 C3 1_555 1_555
C5 N1 1_555 1_555
H7 C5 1_555 1_555
C6 C2 1_555 1_555
C7 N1 1_555 1_555
H8 C7 1_555 1_555
H9 C7 1_555 1_555
C8 C7 1_555 1_555
Cd1B O1 1_555 1_555
Cd1A O3B 1_555 1_555
Cd1A_2 O5B 1_555 1_555
Cd1C O5 1_555 1_555
Cd1C_2 O3 1_555 1_555
O1B Cd1 1_555 1_555
O2B C6B 1_555 1_555
O3B C6B 1_555 1_555
O3A Cd1B 1_555 1_555
O3C Cd1 1_555 1_555
O4B C8B 1_555 1_555
O5B C8B 1_555 1_555
O5A Cd1B 1_555 1_555
O5C Cd1 1_555 1_555
O6B Cd1B 1_555 1_555
H1B O6B 1_555 1_555
H2B O6B 1_555 1_555
O7B Cd1B 1_555 1_555
H3B O7B 1_555 1_555
H4B O7B 1_555 1_555
N1B C1B 1_555 1_555
C1B H5B 1_555 1_555
C2B C1B 1_555 1_555
C3B C2B 1_555 1_555
H6B C3B 1_555 1_555
C4B O1B 1_555 1_555
C5B N1B 1_555 1_555
H7B C5B 1_555 1_555
C6B C2B 1_555 1_555
C7B N1B 1_555 1_555
H8B C7B 1_555 1_555
H9B C7B 1_555 1_555
C8B C7B 1_555 1_555
C4 C5 1_555 1_555
Cd1B O1B 1_555 1_555
C3B C4B 1_555 1_555
C4B C5B 1_555 1_555

#END
