
#######################################################################
#
#                 Cambridge Crystallographic Data Centre
#                                CCDC 
#
#######################################################################
#
# If this CIF has been generated from an entry in the Cambridge 
# Structural Database, then it will include bibliographic, chemical, 
# crystal, experimental, refinement or atomic coordinate data resulting 
# from the CCDC's data processing and validation procedures.
#
#######################################################################

data_QUVCAM
_symmetry_cell_setting           monoclinic
_symmetry_space_group_name_H-M   'P 21/c'
_symmetry_Int_Tables_number      14
_space_group_name_Hall           '-P 2ybc'
loop_
_symmetry_equiv_pos_site_id
_symmetry_equiv_pos_as_xyz
1 x,y,z
2 -x,1/2+y,1/2-z
3 -x,-y,-z
4 x,1/2-y,1/2+z
_cell_length_a                   9.12080(10)
_cell_length_b                   10.16950(10)
_cell_length_c                   11.2729(2)
_cell_angle_alpha                90
_cell_angle_beta                 109.9880(10)
_cell_angle_gamma                90
_cell_volume                     982.623
loop_
_atom_site_label
_atom_site_type_symbol
_atom_site_fract_x
_atom_site_fract_y
_atom_site_fract_z
Mn1 Mn 0.61283(3) 0.12192(2) 0.47458(2)
N1 N 0.21235(16) 0.08999(14) 0.05336(13)
O1 O 0.44342(16) 0.22996(14) -0.00780(12)
O2 O 0.7836(2) -0.0163(2) 0.42609(16)
H1 H 0.752(3) -0.038(3) 0.3459(17)
H2 H 0.724(3) -0.078(3) 0.440(3)
O3 O 0.60626(17) 0.20445(15) 0.29656(14)
H3 H 0.686(2) 0.228(2) 0.281(2)
H4 H 0.542(2) 0.263(2) 0.272(2)
O4 O 0.37159(17) 0.13570(14) -0.19844(13)
O5 O -0.11209(16) 0.23527(18) 0.27435(13)
O6 O -0.18022(16) 0.27111(16) 0.06818(13)
O7 O 0.40537(13) -0.00322(12) 0.37502(11)
C1 C 0.08340(19) 0.15261(17) 0.05649(16)
H5 H 0.0142 0.1903 -0.0163
C2 C 0.05540(18) 0.16008(17) 0.16897(16)
C3 C 0.15911(19) 0.10318(17) 0.27690(16)
H6 H 0.1370 0.1043 0.3515
C4 C 0.29662(18) 0.04420(16) 0.27460(15)
C5 C 0.31771(19) 0.03847(17) 0.15766(16)
H7 H 0.4065 -0.0018 0.1518
C6 C 0.2361(2) 0.07084(18) -0.06837(16)
H8 H 0.1380 0.0883 -0.1354
H9 H 0.2614 -0.0209 -0.0748
C7 C 0.3622(2) 0.15458(17) -0.09212(16)
C8 C -0.09091(19) 0.22907(17) 0.17179(17)
Mn1B Mn 0.38717(3) -0.12192(2) 0.52542(2)
Mn1A Mn 0.38717(3) -0.37808(2) 1.02542(2)
Mn1A_2 Mn 1.38717(3) -0.37808(2) 1.02542(2)
Mn1C Mn -0.38717(3) 0.37808(2) -0.02542(2)
Mn1C_2 Mn 0.61283(3) 0.37808(2) -0.02542(2)
N1B N 0.78765(16) -0.08999(14) 0.94664(13)
O1B O 0.55658(16) -0.22996(14) 1.00780(12)
O1A O 0.55658(16) -0.27004(14) 0.50780(12)
O1C O 0.44342(16) 0.27004(14) 0.49220(12)
O2B O 0.2164(2) 0.0163(2) 0.57391(16)
H1B H 0.248(3) 0.038(3) 0.6541(17)
H2B H 0.276(3) 0.078(3) 0.560(3)
O3B O 0.39374(17) -0.20445(15) 0.70344(14)
H3B H 0.314(2) -0.228(2) 0.719(2)
H4B H 0.458(2) -0.263(2) 0.728(2)
O4B O 0.62841(17) -0.13570(14) 1.19844(13)
O5B O 1.11209(16) -0.23527(18) 0.72565(13)
O6B O 1.18022(16) -0.27111(16) 0.93182(13)
O6A O 0.18022(16) -0.22889(16) 0.43182(13)
O6C O 0.81978(16) 0.22889(16) 0.56818(13)
O7B O 0.59463(13) 0.00322(12) 0.62498(11)
C1B C 0.91660(19) -0.15261(17) 0.94351(16)
H5B H 0.9858 -0.1903 1.0163
C2B C 0.94460(18) -0.16008(17) 0.83103(16)
C3B C 0.84089(19) -0.10318(17) 0.72310(16)
H6B H 0.8630 -0.1043 0.6485
C4B C 0.70338(18) -0.04420(16) 0.72540(15)
C5B C 0.68229(19) -0.03847(17) 0.84234(16)
H7B H 0.5935 0.0018 0.8482
C6B C 0.7639(2) -0.07084(18) 1.06837(16)
H8B H 0.8620 -0.0883 1.1354
H9B H 0.7386 0.0209 1.0748
C7B C 0.6378(2) -0.15458(17) 1.09212(16)
C8B C 1.09091(19) -0.22907(17) 0.82821(17)
loop_
_geom_bond_atom_site_label_1
_geom_bond_atom_site_label_2
_geom_bond_site_symmetry_1
_geom_bond_site_symmetry_2
Mn1 O2 1_555 1_555
N1 C1 1_555 1_555
O1 C7 1_555 1_555
O2 H1 1_555 1_555
H2 O2 1_555 1_555
O3 Mn1 1_555 1_555
H3 O3 1_555 1_555
H4 O3 1_555 1_555
O4 C7 1_555 1_555
O5 C8 1_555 1_555
O6 C8 1_555 1_555
O7 Mn1 1_555 1_555
C1 H5 1_555 1_555
C2 C1 1_555 1_555
C3 C2 1_555 1_555
H6 C3 1_555 1_555
C4 O7 1_555 1_555
C5 N1 1_555 1_555
H7 C5 1_555 1_555
C6 N1 1_555 1_555
H8 C6 1_555 1_555
H9 C6 1_555 1_555
C7 C6 1_555 1_555
C8 C2 1_555 1_555
Mn1B O7 1_555 1_555
Mn1A O1B 1_555 1_555
Mn1A_2 O6B 1_555 1_555
Mn1C O6 1_555 1_555
Mn1C_2 O1 1_555 1_555
N1B C1B 1_555 1_555
O1B C7B 1_555 1_555
O1A Mn1B 1_555 1_555
O1C Mn1 1_555 1_555
O2B Mn1B 1_555 1_555
H1B O2B 1_555 1_555
H2B O2B 1_555 1_555
O3B Mn1B 1_555 1_555
H3B O3B 1_555 1_555
H4B O3B 1_555 1_555
O4B C7B 1_555 1_555
O5B C8B 1_555 1_555
O6B C8B 1_555 1_555
O6A Mn1B 1_555 1_555
O6C Mn1 1_555 1_555
O7B Mn1 1_555 1_555
C1B H5B 1_555 1_555
C2B C1B 1_555 1_555
C3B C2B 1_555 1_555
H6B C3B 1_555 1_555
C4B O7B 1_555 1_555
C5B N1B 1_555 1_555
H7B C5B 1_555 1_555
C6B N1B 1_555 1_555
H8B C6B 1_555 1_555
H9B C6B 1_555 1_555
C7B C6B 1_555 1_555
C8B C2B 1_555 1_555
C3 C4 1_555 1_555
C4 C5 1_555 1_555
Mn1B O7B 1_555 1_555
C3B C4B 1_555 1_555
C4B C5B 1_555 1_555

#END
