
#######################################################################
#
#                 Cambridge Crystallographic Data Centre
#                                CCDC 
#
#######################################################################
#
# If this CIF has been generated from an entry in the Cambridge 
# Structural Database, then it will include bibliographic, chemical, 
# crystal, experimental, refinement or atomic coordinate data resulting 
# from the CCDC's data processing and validation procedures.
#
#######################################################################

data_QUVCEQ
_symmetry_cell_setting           monoclinic
_symmetry_space_group_name_H-M   'P 21/c'
_symmetry_Int_Tables_number      14
_space_group_name_Hall           '-P 2ybc'
loop_
_symmetry_equiv_pos_site_id
_symmetry_equiv_pos_as_xyz
1 x,y,z
2 -x,1/2+y,1/2-z
3 -x,-y,-z
4 x,1/2-y,1/2+z
_cell_length_a                   9.04330(10)
_cell_length_b                   9.9917(2)
_cell_length_c                   11.2518(2)
_cell_angle_alpha                90
_cell_angle_beta                 110.6450(10)
_cell_angle_gamma                90
_cell_volume                     951.401
loop_
_atom_site_label
_atom_site_type_symbol
_atom_site_fract_x
_atom_site_fract_y
_atom_site_fract_z
Co1 Co 0.88818(2) 0.61611(2) 0.52523(2)
O1 O 0.90551(13) 0.50595(13) 0.37827(11)
O2 O 0.37925(16) 0.26182(18) 0.27047(13)
O3 O 0.31543(16) 0.22232(16) 0.06351(13)
O4 O 0.94535(15) 0.26159(14) -0.00505(12)
O5 O 0.87655(16) 0.36353(14) -0.19412(13)
O6 O 0.7353(3) 0.4696(2) 0.56817(15)
H1 H 0.654(3) 0.427(4) 0.547(3)
H2 H 0.780(4) 0.452(4) 0.6443(18)
O7 O 0.89630(16) 0.69637(14) 0.69574(13)
H3 H 0.817(2) 0.721(2) 0.711(2)
H4 H 0.960(2) 0.758(2) 0.716(2)
N1 N 0.71205(16) 0.40776(15) 0.05528(13)
C1 C 0.58079(19) 0.34354(18) 0.05635(16)
H5 H 0.5121 0.3037 -0.0170
C2 C 0.55066(18) 0.33819(18) 0.16816(16)
C3 C 0.65402(19) 0.39801(18) 0.27752(16)
H6 H 0.6299 0.3989 0.3513
C4 C 0.79461(18) 0.45707(17) 0.27707(16)
C5 C 0.81721(19) 0.46107(18) 0.16072(16)
H7 H 0.9075 0.5018 0.1561
C6 C 0.40210(19) 0.26729(18) 0.16828(16)
C7 C 0.7375(2) 0.4264(2) -0.06600(16)
H8 H 0.7632 0.5198 -0.0723
H9 H 0.6384 0.4086 -0.1344
C8 C 0.86548(19) 0.34105(18) -0.08808(16)
Co1B Co 1.11182(2) 0.38389(2) 0.47477(2)
Co1A Co 0.11182(2) 0.11611(2) -0.02523(2)
Co1A_2 Co 1.11182(2) 0.11611(2) -0.02523(2)
Co1C Co 0.88818(2) 0.88389(2) 1.02523(2)
Co1C_2 Co 1.88818(2) 0.88389(2) 1.02523(2)
O1B O 1.09449(13) 0.49405(13) 0.62173(11)
O2B O 1.62075(16) 0.73818(18) 0.72953(13)
O3B O 1.68457(16) 0.77768(16) 0.93649(13)
O3A O 0.68457(16) 0.72232(16) 0.43649(13)
O3C O 1.31543(16) 0.27768(16) 0.56351(13)
O4B O 1.05465(15) 0.73841(14) 1.00505(12)
O4A O 1.05465(15) 0.76159(14) 0.50505(12)
O4C O 0.94535(15) 0.23841(14) 0.49495(12)
O5B O 1.12345(16) 0.63647(14) 1.19412(13)
O6B O 1.2647(3) 0.5304(2) 0.43183(15)
H1B H 1.346(3) 0.573(4) 0.453(3)
H2B H 1.220(4) 0.548(4) 0.3557(18)
O7B O 1.10370(16) 0.30363(14) 0.30426(13)
H3B H 1.183(2) 0.279(2) 0.289(2)
H4B H 1.040(2) 0.242(2) 0.284(2)
N1B N 1.28795(16) 0.59224(15) 0.94472(13)
C1B C 1.41921(19) 0.65646(18) 0.94365(16)
H5B H 1.4879 0.6963 1.0170
C2B C 1.44934(18) 0.66181(18) 0.83184(16)
C3B C 1.34598(19) 0.60199(18) 0.72248(16)
H6B H 1.3701 0.6011 0.6487
C4B C 1.20539(18) 0.54293(17) 0.72293(16)
C5B C 1.18279(19) 0.53893(18) 0.83928(16)
H7B H 1.0925 0.4982 0.8439
C6B C 1.59790(19) 0.73271(18) 0.83172(16)
C7B C 1.2625(2) 0.5736(2) 1.06600(16)
H8B H 1.2368 0.4802 1.0723
H9B H 1.3616 0.5914 1.1344
C8B C 1.13452(19) 0.65895(18) 1.08808(16)
loop_
_geom_bond_atom_site_label_1
_geom_bond_atom_site_label_2
_geom_bond_site_symmetry_1
_geom_bond_site_symmetry_2
Co1 O1 1_555 1_555
O1 C4 1_555 1_555
O2 C6 1_555 1_555
O3 C6 1_555 1_555
O4 C8 1_555 1_555
O5 C8 1_555 1_555
O6 Co1 1_555 1_555
H1 O6 1_555 1_555
H2 O6 1_555 1_555
O7 Co1 1_555 1_555
H3 O7 1_555 1_555
H4 O7 1_555 1_555
N1 C1 1_555 1_555
C1 H5 1_555 1_555
C2 C1 1_555 1_555
C3 C2 1_555 1_555
H6 C3 1_555 1_555
C4 C3 1_555 1_555
C5 N1 1_555 1_555
H7 C5 1_555 1_555
C6 C2 1_555 1_555
C7 N1 1_555 1_555
H8 C7 1_555 1_555
H9 C7 1_555 1_555
C8 C7 1_555 1_555
Co1B O1 1_555 1_555
Co1A O3 1_555 1_555
Co1A_2 O4 1_555 1_555
Co1C O4B 1_555 1_555
Co1C_2 O3B 1_555 1_555
O1B Co1 1_555 1_555
O2B C6B 1_555 1_555
O3B C6B 1_555 1_555
O3A Co1 1_555 1_555
O3C Co1B 1_555 1_555
O4B C8B 1_555 1_555
O4A Co1 1_555 1_555
O4C Co1B 1_555 1_555
O5B C8B 1_555 1_555
O6B Co1B 1_555 1_555
H1B O6B 1_555 1_555
H2B O6B 1_555 1_555
O7B Co1B 1_555 1_555
H3B O7B 1_555 1_555
H4B O7B 1_555 1_555
N1B C1B 1_555 1_555
C1B H5B 1_555 1_555
C2B C1B 1_555 1_555
C3B C2B 1_555 1_555
H6B C3B 1_555 1_555
C4B O1B 1_555 1_555
C5B N1B 1_555 1_555
H7B C5B 1_555 1_555
C6B C2B 1_555 1_555
C7B N1B 1_555 1_555
H8B C7B 1_555 1_555
H9B C7B 1_555 1_555
C8B C7B 1_555 1_555
C4 C5 1_555 1_555
Co1B O1B 1_555 1_555
C3B C4B 1_555 1_555
C4B C5B 1_555 1_555

#END
