
#######################################################################
#
#                 Cambridge Crystallographic Data Centre
#                                CCDC 
#
#######################################################################
#
# If this CIF has been generated from an entry in the Cambridge 
# Structural Database, then it will include bibliographic, chemical, 
# crystal, experimental, refinement or atomic coordinate data resulting 
# from the CCDC's data processing and validation procedures.
#
#######################################################################

data_QUVCIU
_symmetry_cell_setting           triclinic
_symmetry_space_group_name_H-M   'P -1'
_symmetry_Int_Tables_number      2
_space_group_name_Hall           '-P 1'
loop_
_symmetry_equiv_pos_site_id
_symmetry_equiv_pos_as_xyz
1 x,y,z
2 -x,-y,-z
_cell_length_a                   10.6297(9)
_cell_length_b                   11.5315(10)
_cell_length_c                   12.0341(18)
_cell_angle_alpha                106.271(2)
_cell_angle_beta                 100.334(2)
_cell_angle_gamma                108.4950(10)
_cell_volume                     1283.25
loop_
_atom_site_label
_atom_site_type_symbol
_atom_site_fract_x
_atom_site_fract_y
_atom_site_fract_z
Pr1 Pr 0.60181(4) -0.55537(3) -0.86225(3)
Pr2 Pr 0.75014(3) -0.94511(3) -0.62360(2)
P1 P 0.25839(16) -0.53287(15) -0.89861(13)
P2 P -0.03304(15) -0.37183(15) -0.62497(13)
O1 O 0.3638(4) -0.5866(4) -0.8649(4)
O2 O 0.2580(4) -0.4870(4) -1.0036(3)
O3 O 0.1073(4) -0.6354(4) -0.9252(3)
H1 H 0.1063 -0.6705 -0.8746
O4 O 0.0638(4) -0.2354(4) -0.5489(3)
O5 O -0.1568(4) -0.3792(4) -0.7204(3)
O6 O -0.0877(4) -0.4614(4) -0.5562(3)
H2 H -0.0252 -0.4798 -0.5250
O7 O 0.5672(5) -0.6695(4) -0.7193(4)
O8 O 0.6161(4) -0.8038(4) -0.6347(4)
O9 O 0.7701(4) -0.6650(4) -0.8240(3)
O10 O 0.8359(4) -0.7804(4) -0.7207(3)
O11 O 0.5680(4) -0.3644(4) -0.9077(3)
O12 O 0.7078(5) -0.1880(4) -0.7443(3)
O13 O 0.5066(4) -0.2065(4) -1.0150(3)
O14 O 0.6281(4) -0.0350(4) -0.8452(3)
O15 O 0.6707(4) -0.8863(4) -0.4349(3)
O16 O 0.4905(4) -0.9134(4) -0.3603(3)
O17 O 0.9741(4) -0.9629(4) -0.6319(3)
O18 O 1.1685(4) -0.9513(4) -0.5135(3)
O19 O 0.5990(6) -0.4013(6) -0.6607(4)
H3 H 0.5424 -0.3657 -0.6756
H4 H 0.5734 -0.4457 -0.6173
N1 N 0.1668(5) -0.3552(4) -0.7473(4)
H11 H 0.2042 -0.2756 -0.6860
N2 N 0.1461(6) 0.0118(6) -0.8115(5)
H12 H 0.1093 0.0655 -0.7827
C1 C 0.2870(6) -0.3938(6) -0.7647(5)
H13 H 0.3220 -0.4121 -0.6941
H14 H 0.3603 -0.3180 -0.7650
C2 C 0.0678(6) -0.4456(5) -0.7051(5)
H15 H 0.1200 -0.4750 -0.6522
H16 H 0.0047 -0.5222 -0.7748
C3 C 0.0904(6) -0.3355(5) -0.8563(5)
H17 H 0.0923 -0.3961 -0.9298
H18 H -0.0060 -0.3566 -0.8578
C4 C 0.1513(6) -0.1983(5) -0.8553(4)
C5 C 0.2557(6) -0.1590(6) -0.9056(5)
H19 H 0.2927 -0.2183 -0.9402
C6 C 0.3072(7) -0.0327(7) -0.9060(6)
H20 H 0.3794 -0.0068 -0.9389
C7 C 0.2510(8) 0.0526(7) -0.8577(7)
H21 H 0.2845 0.1380 -0.8566
C8 C 0.0966(7) -0.1099(6) -0.8086(6)
H22 H 0.0249 -0.1339 -0.7747
C9 C 0.6362(6) -0.7331(5) -0.6984(5)
C10 C 0.7574(6) -0.7255(5) -0.7522(5)
C11 C 0.6236(6) -0.2441(6) -0.8487(5)
C12 C 0.5828(6) -0.1531(6) -0.9081(5)
C13 C 0.5453(6) -0.9415(5) -0.4403(5)
C14 C 1.0403(5) -0.9745(5) -0.5422(5)
Pr1_2 Pr 1.60181(4) -0.55537(3) -0.86225(3)
Pr1A Pr 0.39819(4) -0.44463(3) -1.13775(3)
Pr1_3 Pr -0.39819(4) -0.55537(3) -0.86225(3)
Pr1A_2 Pr 1.39819(4) -0.44463(3) -1.13775(3)
Pr2A Pr 0.24986(3) -0.05489(3) -0.37640(2)
Pr2_2 Pr 0.75014(3) 0.05489(3) -0.62360(2)
Pr2A_2 Pr 0.24986(3) -1.05489(3) -0.37640(2)
Pr2A_3 Pr 1.24986(3) -1.05489(3) -0.37640(2)
Pr2A_4 Pr 1.24986(3) -0.05489(3) -0.37640(2)
Pr2A_5 Pr 0.24986(3) -1.05489(3) -1.37640(2)
Pr2_3 Pr 1.75014(3) -0.94511(3) -0.62360(2)
P1_2 P 1.25839(16) -0.53287(15) -0.89861(13)
P2_2 P 0.96696(15) -0.37183(15) -0.62497(13)
O1_2 O 1.3638(4) -0.5866(4) -0.8649(4)
O2_2 O 1.2580(4) -0.4870(4) -1.0036(3)
O2A O 0.7420(4) -0.5130(4) -0.9964(3)
O2A_2 O 1.7420(4) -0.5130(4) -0.9964(3)
O3_2 O 1.1073(4) -0.6354(4) -0.9252(3)
H1_2 H 1.1063 -0.6705 -0.8746
O4_2 O 1.0638(4) -0.2354(4) -0.5489(3)
O4A O 0.9362(4) -0.7646(4) -0.4511(3)
O5_2 O 0.8432(4) -0.3792(4) -0.7204(3)
O5_3 O 1.8432(4) -0.3792(4) -0.7204(3)
O6_2 O 0.9123(4) -0.4614(4) -0.5562(3)
H2_2 H 0.9748 -0.4798 -0.5250
O7_2 O 1.5672(5) -0.6695(4) -0.7193(4)
O8_2 O 1.6161(4) -0.8038(4) -0.6347(4)
O8A O 0.3839(4) -0.1962(4) -0.3653(4)
O9_2 O 1.7701(4) -0.6650(4) -0.8240(3)
O10_2 O 1.8359(4) -0.7804(4) -0.7207(3)
O10A O 0.1641(4) -0.2196(4) -0.2793(3)
O11A O 0.4320(4) -0.6356(4) -1.0923(3)
O11_2 O 1.5680(4) -0.3644(4) -0.9077(3)
O11A_2 O 1.4320(4) -0.6356(4) -1.0923(3)
O12A O 0.2922(5) -0.8120(4) -1.2557(3)
O12_2 O 0.7078(5) -1.1880(4) -0.7443(3)
O12A_2 O 0.2922(5) 0.1880(4) -0.2557(3)
O13A O 0.4934(4) -0.7935(4) -0.9850(3)
O13A_2 O 1.4934(4) -0.7935(4) -0.9850(3)
O14A O 0.3719(4) -0.9650(4) -1.1548(3)
O14_2 O 0.6281(4) -1.0350(4) -0.8452(3)
O14A_2 O 0.3719(4) 0.0350(4) -0.1548(3)
O15A O 0.3293(4) -1.1137(4) -0.5651(3)
O15A_2 O 0.3293(4) -0.1137(4) -0.5651(3)
O16A O 0.5095(4) -1.0866(4) -0.6397(3)
O16_2 O 0.4905(4) 0.0866(4) -0.3603(3)
O17A O 1.0259(4) -1.0371(4) -0.3681(3)
O17A_2 O 0.0259(4) -0.0371(4) -0.3681(3)
O18A O 0.8315(4) -1.0487(4) -0.4865(3)
O18_2 O 0.1685(4) 0.0487(4) -0.5135(3)
O19_2 O 1.5990(6) -0.4013(6) -0.6607(4)
H3_2 H 1.5424 -0.3657 -0.6756
H4_2 H 1.5734 -0.4457 -0.6173
N1_2 N 1.1668(5) -0.3552(4) -0.7473(4)
H11_2 H 1.2042 -0.2756 -0.6860
N2_2 N 1.1461(6) 0.0118(6) -0.8115(5)
H12_2 H 1.1093 0.0655 -0.7827
C1_2 C 1.2870(6) -0.3938(6) -0.7647(5)
H13_2 H 1.3220 -0.4121 -0.6941
H14_2 H 1.3603 -0.3180 -0.7650
C2_2 C 1.0678(6) -0.4456(5) -0.7051(5)
H15_2 H 1.1200 -0.4750 -0.6522
H16_2 H 1.0047 -0.5222 -0.7748
C3_2 C 1.0904(6) -0.3355(5) -0.8563(5)
H17_2 H 1.0923 -0.3961 -0.9298
H18_2 H 0.9940 -0.3566 -0.8578
C4_2 C 1.1513(6) -0.1983(5) -0.8553(4)
C5_2 C 1.2557(6) -0.1590(6) -0.9056(5)
H19_2 H 1.2927 -0.2183 -0.9402
C6_2 C 1.3072(7) -0.0327(7) -0.9060(6)
H20_2 H 1.3794 -0.0068 -0.9389
C7_2 C 1.2510(8) 0.0526(7) -0.8577(7)
H21_2 H 1.2845 0.1380 -0.8566
C8_2 C 1.0966(7) -0.1099(6) -0.8086(6)
H22_2 H 1.0249 -0.1339 -0.7747
C9_2 C 1.6362(6) -0.7331(5) -0.6984(5)
C10_2 C 1.7574(6) -0.7255(5) -0.7522(5)
C11A C 0.3764(6) -0.7559(6) -1.1513(5)
C12A C 0.4172(6) -0.8469(6) -1.0919(5)
C13A C 0.4547(6) -1.0585(5) -0.5597(5)
C14A C 0.9597(5) -1.0255(5) -0.4578(5)
O20 O 0.0789(5) -0.7594(5) -0.7735(4)
H5 H 0.0268 -0.8311 -0.8311
H6 H 0.0918 -0.7729 -0.7072
O21 O -1.3862(6) -0.2261(5) -0.4424(5)
H7 H -1.4566 -0.2727 -0.5041
H8 H -1.4002 -0.2482 -0.3826
O22 O 0.3038(9) -0.5743(7) -0.5851(5)
H9 H 0.2370 -0.6489 -0.6136
H10 H 0.3517 -0.5628 -0.5154
loop_
_geom_bond_atom_site_label_1
_geom_bond_atom_site_label_2
_geom_bond_site_symmetry_1
_geom_bond_site_symmetry_2
Pr1 O1 1_555 1_555
Pr2 O8 1_555 1_555
P1 O1 1_555 1_555
P2 O4 1_555 1_555
O2 P1 1_555 1_555
O3 P1 1_555 1_555
H1 O3 1_555 1_555
O4 Pr2A 1_555 1_555
O5 P2 1_555 1_555
O6 P2 1_555 1_555
H2 O6 1_555 1_555
O7 Pr1 1_555 1_555
O8 C9 1_555 1_555
O9 Pr1 1_555 1_555
O10 Pr2 1_555 1_555
O11 Pr1 1_555 1_555
O12 C11 1_555 1_555
O13 C12 1_555 1_555
O14 C12 1_555 1_555
O15 Pr2 1_555 1_555
O16 C13 1_555 1_555
O17 Pr2 1_555 1_555
O18 C14 1_555 1_555
O19 Pr1 1_555 1_555
H3 O19 1_555 1_555
H4 O19 1_555 1_555
O20 H5 1_555 1_555
H6 O20 1_555 1_555
O21 H7 1_555 1_555
H8 O21 1_555 1_555
O22 H9 1_555 1_555
H10 O22 1_555 1_555
N1 H11 1_555 1_555
N2 H12 1_555 1_555
C1 P1 1_555 1_555
H13 C1 1_555 1_555
H14 C1 1_555 1_555
C2 P2 1_555 1_555
H15 C2 1_555 1_555
H16 C2 1_555 1_555
C3 N1 1_555 1_555
H17 C3 1_555 1_555
H18 C3 1_555 1_555
C4 C3 1_555 1_555
C5 C4 1_555 1_555
H19 C5 1_555 1_555
C6 C5 1_555 1_555
H20 C6 1_555 1_555
C7 N2 1_555 1_555
H21 C7 1_555 1_555
C8 N2 1_555 1_555
H22 C8 1_555 1_555
C9 O7 1_555 1_555
C10 O9 1_555 1_555
C11 O11 1_555 1_555
C12 C11 1_555 1_555
C13 O15 1_555 1_555
C14 O17 1_555 1_555
Pr1_2 O1_2 1_555 1_555
Pr1A O2 1_555 1_555
Pr1_3 O5 1_555 1_555
Pr1A_2 O2_2 1_555 1_555
Pr2A O8A 1_555 1_555
Pr2_2 O12 1_555 1_555
Pr2A_2 O16 1_555 1_555
Pr2A_3 O18 1_555 1_555
Pr2A_4 O4_2 1_555 1_555
Pr2A_5 O12A 1_555 1_555
Pr2_3 O8_2 1_555 1_555
P1_2 O1_2 1_555 1_555
P2_2 O4_2 1_555 1_555
O2_2 P1_2 1_555 1_555
O2A Pr1 1_555 1_555
O2A_2 Pr1_2 1_555 1_555
O3_2 P1_2 1_555 1_555
H1_2 O3_2 1_555 1_555
O4A Pr2 1_555 1_555
O5_2 Pr1 1_555 1_555
O5_3 Pr1_2 1_555 1_555
O6_2 P2_2 1_555 1_555
H2_2 O6_2 1_555 1_555
O7_2 Pr1_2 1_555 1_555
O8_2 C9_2 1_555 1_555
O9_2 Pr1_2 1_555 1_555
O10_2 Pr2_3 1_555 1_555
O10A Pr2A 1_555 1_555
O11A Pr1 1_555 1_555
O11_2 Pr1_2 1_555 1_555
O11A_2 Pr1_2 1_555 1_555
O12A C11A 1_555 1_555
O12_2 Pr2 1_555 1_555
O12A_2 Pr2A 1_555 1_555
O13A Pr1 1_555 1_555
O13A_2 Pr1_2 1_555 1_555
O14A Pr2A_5 1_555 1_555
O14_2 Pr2 1_555 1_555
O14A_2 Pr2A 1_555 1_555
O15A Pr2A_2 1_555 1_555
O15A_2 Pr2A 1_555 1_555
O16A Pr2 1_555 1_555
O16_2 Pr2A 1_555 1_555
O17A Pr2A_3 1_555 1_555
O17A_2 Pr2A 1_555 1_555
O18A Pr2 1_555 1_555
O18_2 Pr2A 1_555 1_555
O19_2 Pr1_2 1_555 1_555
H3_2 O19_2 1_555 1_555
H4_2 O19_2 1_555 1_555
N1_2 H11_2 1_555 1_555
N2_2 H12_2 1_555 1_555
C1_2 P1_2 1_555 1_555
H13_2 C1_2 1_555 1_555
H14_2 C1_2 1_555 1_555
C2_2 P2_2 1_555 1_555
H15_2 C2_2 1_555 1_555
H16_2 C2_2 1_555 1_555
C3_2 N1_2 1_555 1_555
H17_2 C3_2 1_555 1_555
H18_2 C3_2 1_555 1_555
C4_2 C3_2 1_555 1_555
C5_2 C4_2 1_555 1_555
H19_2 C5_2 1_555 1_555
C6_2 C5_2 1_555 1_555
H20_2 C6_2 1_555 1_555
C7_2 N2_2 1_555 1_555
H21_2 C7_2 1_555 1_555
C8_2 N2_2 1_555 1_555
H22_2 C8_2 1_555 1_555
C9_2 O7_2 1_555 1_555
C10_2 O9_2 1_555 1_555
C11A O11A 1_555 1_555
C12A O13A 1_555 1_555
C13A C13 1_555 1_555
C14A C14 1_555 1_555
O10 C10 1_555 1_555
O11 Pr1A 1_555 1_555
O13 Pr1A 1_555 1_555
O14 Pr2_2 1_555 1_555
N1 C1 1_555 1_555
N1 C2 1_555 1_555
C4 C8 1_555 1_555
C6 C7 1_555 1_555
C9 C10 1_555 1_555
Pr1A O11A 1_555 1_555
Pr1A_2 O11_2 1_555 1_555
Pr1A_2 O11A_2 1_555 1_555
P2_2 O5_2 1_555 1_555
O10_2 C10_2 1_555 1_555
O14A C12A 1_555 1_555
O15A C13A 1_555 1_555
O16A C13A 1_555 1_555
O17A C14A 1_555 1_555
O18A C14A 1_555 1_555
N1_2 C1_2 1_555 1_555
N1_2 C2_2 1_555 1_555
C4_2 C8_2 1_555 1_555
C6_2 C7_2 1_555 1_555
C9_2 C10_2 1_555 1_555
C11A C12A 1_555 1_555

#END
