
#######################################################################
#
#                 Cambridge Crystallographic Data Centre
#                                CCDC 
#
#######################################################################
#
# If this CIF has been generated from an entry in the Cambridge 
# Structural Database, then it will include bibliographic, chemical, 
# crystal, experimental, refinement or atomic coordinate data resulting 
# from the CCDC's data processing and validation procedures.
#
#######################################################################

data_QUVCUG
_symmetry_cell_setting           triclinic
_symmetry_space_group_name_H-M   'P -1'
_symmetry_Int_Tables_number      2
_space_group_name_Hall           '-P 1'
loop_
_symmetry_equiv_pos_site_id
_symmetry_equiv_pos_as_xyz
1 x,y,z
2 -x,-y,-z
_cell_length_a                   10.6986(15)
_cell_length_b                   11.6124(16)
_cell_length_c                   12.073(3)
_cell_angle_alpha                106.204(2)
_cell_angle_beta                 100.678(2)
_cell_angle_gamma                108.841(2)
_cell_volume                     1299.05
loop_
_atom_site_label
_atom_site_type_symbol
_atom_site_fract_x
_atom_site_fract_y
_atom_site_fract_z
O20 O 1.4234(9) 1.2646(7) 0.7747(7)
H5 H 1.4747 1.3367 0.8323
H6 H 1.4626 1.2112 0.7715
O21 O 0.8913(10) 0.7268(8) 0.4396(8)
H7 H 0.8746 0.6912 0.4908
H8 H 0.8378 0.6749 0.3693
O22 O 0.8077(16) 0.9216(12) 0.4171(11)
H9 H 0.7850 0.8763 0.4601
H10 H 0.7542 0.8806 0.3448
Ce1 Ce 0.89318(5) 1.05062(4) 0.86059(4)
Ce2 Ce 1.24973(5) 0.55544(4) 0.37545(4)
P1 P 1.2390(2) 1.0314(2) 0.89483(18)
P2 P 1.5320(2) 0.8732(2) 0.62670(19)
O1 O 1.1324(6) 1.0813(5) 0.8587(5)
O2 O 1.2412(6) 0.9864(6) 1.0001(5)
O3 O 1.3893(6) 1.1349(5) 0.9228(5)
H1 H 1.3901 1.1704 0.8728
O4 O 1.4348(6) 0.7373(5) 0.5494(5)
O5 O 1.6536(6) 0.8817(6) 0.7219(5)
O6 O 1.5859(6) 0.9616(6) 0.5575(5)
H2 H 1.5232 0.9790 0.5256
O7 O 0.9260(7) 1.1631(6) 0.7154(5)
O8 O 0.8826(7) 1.3028(6) 0.6368(5)
O9 O 0.7296(6) 1.1646(5) 0.8248(5)
O10 O 0.6649(6) 1.2810(5) 0.7231(5)
O11 O 0.9318(6) 0.8636(5) 0.9108(5)
O12 O 0.7984(7) 0.6875(6) 0.7463(5)
O13 O 0.9937(6) 0.7076(5) 1.0198(5)
O14 O 0.8727(7) 0.5357(5) 0.8492(5)
O15 O 1.1700(6) 0.6144(5) 0.5643(5)
O16 O 0.9925(6) 0.5860(5) 0.6409(5)
O17 O 1.4744(6) 0.5378(5) 0.3694(5)
O18 O 1.6668(6) 0.5487(5) 0.4873(5)
O19 O 0.8927(9) 0.8930(7) 0.6572(6)
H3 H 0.9480 0.8570 0.6727
H4 H 0.8114 0.8347 0.6200
N1 N 1.3321(7) 0.8550(6) 0.7462(5)
H11 H 1.2952 0.7755 0.6853
N2 N 1.3552(11) 0.4932(9) 0.8093(9)
H12 H 1.3913 0.4394 0.7815
C1 C 1.2120(8) 0.8921(7) 0.7625(6)
H13 H 1.1395 0.8163 0.7631
H14 H 1.1763 0.9087 0.6912
C2 C 1.4298(9) 0.9465(8) 0.7042(8)
H15 H 1.4920 1.0240 0.7736
H16 H 1.3768 0.9735 0.6499
C3 C 1.4089(9) 0.8379(8) 0.8562(7)
H17 H 1.5052 0.8600 0.8588
H18 H 1.4064 0.8982 0.9291
C4 C 1.3477(9) 0.7008(8) 0.8548(7)
C5 C 1.2494(11) 0.6625(10) 0.9097(9)
H19 H 1.2183 0.7235 0.9493
C6 C 1.1940(11) 0.5364(10) 0.9088(9)
H20 H 1.1231 0.5102 0.9423
C7 C 1.2485(15) 0.4543(12) 0.8571(11)
H21 H 1.2131 0.3684 0.8534
C8 C 1.4040(13) 0.6132(10) 0.8054(9)
H22 H 1.4739 0.6375 0.7704
C9 C 0.8597(10) 1.2307(8) 0.6974(7)
C10 C 0.7402(8) 1.2244(7) 0.7536(6)
C11 C 0.8793(9) 0.7422(7) 0.8506(7)
C12 C 0.9190(8) 0.6546(8) 0.9114(7)
C13 C 1.0461(8) 0.5593(7) 0.5590(7)
C14 C 1.5401(9) 0.5257(7) 0.4581(7)
C13A C 0.9539(8) 0.4407(7) 0.4410(7)
O15A O 0.8300(6) 0.3856(5) 0.4357(5)
O16A O 1.0075(6) 0.4140(5) 0.3591(5)
C14A C 1.4599(9) 0.4743(7) 0.5419(7)
O17A O 1.5256(6) 0.4622(5) 0.6306(5)
O18A O 1.3332(6) 0.4513(5) 0.5127(5)
P1A P 0.7610(2) 0.9686(2) 1.10517(18)
P2A P 0.4680(2) 1.1268(2) 1.37330(19)
O1A O 0.8676(6) 0.9187(5) 1.1413(5)
O2A O 0.7588(6) 1.0136(6) 0.9999(5)
O3A O 0.6107(6) 0.8651(5) 1.0772(5)
H1A H 0.6099 0.8296 1.1272
O4A O 0.5652(6) 1.2627(5) 1.4506(5)
O5A O 0.3464(6) 1.1183(6) 1.2781(5)
O6A O 0.4141(6) 1.0384(6) 1.4425(5)
H2A H 0.4768 1.0210 1.4744
N1A N 0.6679(7) 1.1450(6) 1.2538(5)
H11A H 0.7048 1.2245 1.3147
N2A N 0.6448(11) 1.5068(9) 1.1907(9)
H12A H 0.6087 1.5606 1.2185
C1A C 0.7880(8) 1.1079(7) 1.2375(6)
H13A H 0.8605 1.1837 1.2369
H14A H 0.8237 1.0913 1.3088
C2A C 0.5702(9) 1.0535(8) 1.2958(8)
H15A H 0.5080 0.9760 1.2264
H16A H 0.6232 1.0265 1.3501
C3A C 0.5911(9) 1.1621(8) 1.1438(7)
H17A H 0.4948 1.1400 1.1412
H18A H 0.5936 1.1018 1.0709
C4A C 0.6523(9) 1.2992(8) 1.1452(7)
C5A C 0.7506(11) 1.3375(10) 1.0903(9)
H19A H 0.7817 1.2765 1.0507
C6A C 0.8060(11) 1.4636(10) 1.0912(9)
H20A H 0.8769 1.4898 1.0577
C7A C 0.7515(15) 1.5457(12) 1.1429(11)
H21A H 0.7869 1.6316 1.1466
C8A C 0.5960(13) 1.3868(10) 1.1946(9)
H22A H 0.5261 1.3625 1.2296
O11A O 1.0682(6) 1.1364(5) 1.0892(5)
O12A O 1.2016(7) 1.3125(6) 1.2537(5)
O13A O 1.0063(6) 1.2924(5) 0.9802(5)
O14A O 1.1273(7) 1.4643(5) 1.1508(5)
C11A C 1.1207(9) 1.2578(7) 1.1494(7)
C12A C 1.0810(8) 1.3454(8) 1.0886(7)
Ce1A Ce 1.10682(5) 0.94938(4) 1.13941(4)
Ce2A Ce 0.75027(5) 1.44456(4) 1.62455(4)
O7A O 1.0740(7) 0.8369(6) 0.2846(5)
O8A O 1.1174(7) 0.6972(6) 0.3632(5)
O9A O 1.2704(6) 0.8354(5) 0.1752(5)
O10A O 1.3351(6) 0.7190(5) 0.2769(5)
C9A C 1.1403(10) 0.7693(8) 0.3026(7)
C10A C 1.2598(8) 0.7756(7) 0.2464(6)
O19A O 1.1073(9) 1.1070(7) 1.3428(6)
H3A H 1.0520 1.1430 1.3273
H4A H 1.1886 1.1653 1.3800
O5_2 O 0.6536(6) 0.8817(6) 0.7219(5)
O12A_2 O 1.2016(7) 0.3125(6) 0.2537(5)
O14A_2 O 1.1273(7) 0.4643(5) 0.1508(5)
Ce1_2 Ce 1.89318(5) 1.05062(4) 0.86059(4)
Ce2A_2 Ce 0.75027(5) 1.44456(4) 0.62455(4)
Ce2A_3 Ce 0.75027(5) 0.44456(4) 0.62455(4)
Ce2A_4 Ce 1.75027(5) 0.44456(4) 0.62455(4)
Ce1A_2 Ce 0.10682(5) 0.94938(4) 1.13941(4)
Ce2_2 Ce 1.24973(5) 1.55544(4) 1.37545(4)
O7A_2 O 1.0740(7) 0.8369(6) 1.2846(5)
O9A_2 O 1.2704(6) 0.8354(5) 1.1752(5)
O5A_2 O 1.3464(6) 1.1183(6) 1.2781(5)
O15A_2 O 0.8300(6) 1.3856(5) 1.4357(5)
O17A_2 O 0.5256(6) 1.4622(5) 1.6306(5)
O8_2 O 0.8826(7) 1.3028(6) 1.6368(5)
O12_2 O 0.7984(7) 1.6875(6) 1.7463(5)
O18_2 O 0.6668(6) 1.5487(5) 1.4873(5)
O10_2 O 0.6649(6) 1.2810(5) 1.7231(5)
O14_2 O 0.8727(7) 1.5357(5) 1.8492(5)
O16_2 O 0.9925(6) 1.5860(5) 1.6409(5)
Ce1A_3 Ce 1.10682(5) 0.94938(4) 0.13941(4)
loop_
_geom_bond_atom_site_label_1
_geom_bond_atom_site_label_2
_geom_bond_site_symmetry_1
_geom_bond_site_symmetry_2
Ce1 O1 1_555 1_555
Ce2 O4 1_555 1_555
P1 O1 1_555 1_555
P2 O4 1_555 1_555
O2 P1 1_555 1_555
O3 P1 1_555 1_555
H1 O3 1_555 1_555
O5 P2 1_555 1_555
O6 P2 1_555 1_555
H2 O6 1_555 1_555
O7 Ce1 1_555 1_555
O8 C9 1_555 1_555
O9 Ce1 1_555 1_555
O10 C10 1_555 1_555
O11 Ce1 1_555 1_555
O12 C11 1_555 1_555
O13 C12 1_555 1_555
O14 C12 1_555 1_555
O15 Ce2 1_555 1_555
O16 C13 1_555 1_555
O17 Ce2 1_555 1_555
O18 C14 1_555 1_555
O19 Ce1 1_555 1_555
H3 O19 1_555 1_555
H4 O19 1_555 1_555
O20 H5 1_555 1_555
H6 O20 1_555 1_555
O21 H7 1_555 1_555
H8 O21 1_555 1_555
O22 H9 1_555 1_555
H10 O22 1_555 1_555
N1 H11 1_555 1_555
N2 H12 1_555 1_555
C1 P1 1_555 1_555
H13 C1 1_555 1_555
H14 C1 1_555 1_555
C2 P2 1_555 1_555
H15 C2 1_555 1_555
H16 C2 1_555 1_555
C3 N1 1_555 1_555
H17 C3 1_555 1_555
H18 C3 1_555 1_555
C4 C3 1_555 1_555
C5 C4 1_555 1_555
H19 C5 1_555 1_555
C6 C5 1_555 1_555
H20 C6 1_555 1_555
C7 N2 1_555 1_555
H21 C7 1_555 1_555
C8 N2 1_555 1_555
H22 C8 1_555 1_555
C9 O7 1_555 1_555
C10 O9 1_555 1_555
C11 O11 1_555 1_555
C12 C11 1_555 1_555
C13 O15 1_555 1_555
C14 O17 1_555 1_555
C13A C13 1_555 1_555
O15A C13A 1_555 1_555
O16A Ce2 1_555 1_555
C14A C14 1_555 1_555
O17A C14A 1_555 1_555
O18A Ce2 1_555 1_555
P1A O1A 1_555 1_555
P2A O4A 1_555 1_555
O1A Ce1A 1_555 1_555
O2A Ce1 1_555 1_555
O3A P1A 1_555 1_555
H1A O3A 1_555 1_555
O4A Ce2A 1_555 1_555
O5A P2A 1_555 1_555
O6A P2A 1_555 1_555
H2A O6A 1_555 1_555
N1A H11A 1_555 1_555
N2A H12A 1_555 1_555
C1A P1A 1_555 1_555
H13A C1A 1_555 1_555
H14A C1A 1_555 1_555
C2A P2A 1_555 1_555
H15A C2A 1_555 1_555
H16A C2A 1_555 1_555
C3A N1A 1_555 1_555
H17A C3A 1_555 1_555
H18A C3A 1_555 1_555
C4A C3A 1_555 1_555
C5A C4A 1_555 1_555
H19A C5A 1_555 1_555
C6A C5A 1_555 1_555
H20A C6A 1_555 1_555
C7A N2A 1_555 1_555
H21A C7A 1_555 1_555
C8A N2A 1_555 1_555
H22A C8A 1_555 1_555
O11A Ce1 1_555 1_555
O12A C11A 1_555 1_555
O13A Ce1 1_555 1_555
O14A C12A 1_555 1_555
C11A O11A 1_555 1_555
C12A O13A 1_555 1_555
Ce1A O2 1_555 1_555
Ce2A O15A_2 1_555 1_555
O7A C9A 1_555 1_555
O8A Ce2 1_555 1_555
O9A C10A 1_555 1_555
O10A Ce2 1_555 1_555
C9A O8A 1_555 1_555
C10A O10A 1_555 1_555
O19A Ce1A 1_555 1_555
H3A O19A 1_555 1_555
H4A O19A 1_555 1_555
O5_2 Ce1 1_555 1_555
O12A_2 Ce2 1_555 1_555
O14A_2 Ce2 1_555 1_555
Ce1_2 O5 1_555 1_555
Ce2A_2 O8 1_555 1_555
Ce2A_3 O12 1_555 1_555
Ce2A_4 O18 1_555 1_555
Ce1A_2 O5A 1_555 1_555
Ce2_2 O12A 1_555 1_555
O7A_2 Ce1A 1_555 1_555
O9A_2 Ce1A 1_555 1_555
O5A_2 Ce1A 1_555 1_555
O17A_2 Ce2A 1_555 1_555
O8_2 Ce2A 1_555 1_555
O12_2 Ce2A 1_555 1_555
O18_2 Ce2A 1_555 1_555
O10_2 Ce2A 1_555 1_555
O14_2 Ce2A 1_555 1_555
O16_2 Ce2A 1_555 1_555
Ce1A_3 O7A 1_555 1_555
O10 Ce2A_2 1_555 1_555
O11 Ce1A 1_555 1_555
O13 Ce1A 1_555 1_555
O14 Ce2A_3 1_555 1_555
O16 Ce2A_3 1_555 1_555
N1 C1 1_555 1_555
N1 C2 1_555 1_555
C4 C8 1_555 1_555
C6 C7 1_555 1_555
C9 C10 1_555 1_555
C13A O16A 1_555 1_555
O15A Ce2A_3 1_555 1_555
C14A O18A 1_555 1_555
O17A Ce2A_4 1_555 1_555
P1A O2A 1_555 1_555
N1A C1A 1_555 1_555
N1A C2A 1_555 1_555
C4A C8A 1_555 1_555
C6A C7A 1_555 1_555
O11A Ce1A 1_555 1_555
O14A Ce2_2 1_555 1_555
C11A C12A 1_555 1_555
O9A Ce1A_3 1_555 1_555
C9A C10A 1_555 1_555

#END
