
#######################################################################
#
#                 Cambridge Crystallographic Data Centre
#                                CCDC 
#
#######################################################################
#
# If this CIF has been generated from an entry in the Cambridge 
# Structural Database, then it will include bibliographic, chemical, 
# crystal, experimental, refinement or atomic coordinate data resulting 
# from the CCDC's data processing and validation procedures.
#
#######################################################################

data_QUVCOA
_symmetry_cell_setting           triclinic
_symmetry_space_group_name_H-M   'P -1'
_symmetry_Int_Tables_number      2
_space_group_name_Hall           '-P 1'
loop_
_symmetry_equiv_pos_site_id
_symmetry_equiv_pos_as_xyz
1 x,y,z
2 -x,-y,-z
_cell_length_a                   10.6110(18)
_cell_length_b                   11.518(2)
_cell_length_c                   11.997(4)
_cell_angle_alpha                106.032(3)
_cell_angle_beta                 100.770(3)
_cell_angle_gamma                108.584(2)
_cell_volume                     1273.48
loop_
_atom_site_label
_atom_site_type_symbol
_atom_site_fract_x
_atom_site_fract_y
_atom_site_fract_z
Nd1 Nd 0.60365(5) 0.94472(5) -0.36281(4)
Nd2 Nd 0.74984(5) 0.55548(4) -0.12240(4)
P1 P 0.2607(2) 0.9681(2) -0.3970(2)
P2 P -0.0334(2) 1.1268(2) -0.1256(2)
O1 O 0.3676(6) 0.9161(6) -0.3624(6)
O2 O 0.2599(6) 1.0143(6) -0.5018(5)
O3 O 0.1098(6) 0.8653(6) -0.4243(5)
H1 H 0.1089 0.8306 -0.3731
O4 O 0.0635(6) 1.2646(6) -0.0502(6)
O5 O -0.1571(6) 1.1178(6) -0.2222(6)
O6 O -0.0880(6) 1.0386(6) -0.0575(6)
H2 H -0.0253 1.0203 -0.0254
O7 O 0.5680(7) 0.8320(6) -0.2189(6)
O8 O 0.6166(6) 0.6963(6) -0.1353(6)
O9 O 0.7698(6) 0.8337(6) -0.3252(5)
O10 O 0.8342(6) 0.7176(6) -0.2206(5)
O11 O 0.5690(6) 1.1343(6) -0.4069(5)
O12 O 0.7053(7) 1.3102(6) -0.2418(6)
O13 O 0.5060(6) 1.2913(6) -0.5160(5)
O14 O 0.6288(7) 1.4644(6) -0.3440(6)
O15 O 0.6711(6) 0.6140(6) 0.0655(5)
O16 O 0.4910(6) 0.5862(6) 0.1423(6)
O17 O 0.9718(6) 0.5374(6) -0.1321(5)
O18 O 1.1684(6) 0.5470(6) -0.0153(5)
O19 O 0.6043(9) 1.0980(8) -0.1589(7)
H3 H 0.5480 1.1344 -0.1733
H4 H 0.5784 1.0528 -0.1160
N1 N 0.1678(7) 1.1445(7) -0.2471(6)
H11 H 0.2049 1.2244 -0.1860
N2 N 0.1433(10) 1.5081(9) -0.3112(9)
H12 H 0.1069 1.5614 -0.2806
C1 C 0.2887(9) 1.1080(9) -0.2627(8)
H13 H 0.3244 1.0904 -0.1913
H14 H 0.3616 1.1843 -0.2630
C2 C 0.0694(9) 1.0538(8) -0.2040(8)
H15 H 0.1228 1.0262 -0.1496
H16 H 0.0066 0.9761 -0.2735
C3 C 0.0899(9) 1.1626(9) -0.3555(8)
H17 H -0.0066 1.1412 -0.3565
H18 H 0.0908 1.1016 -0.4293
C4 C 0.1510(9) 1.3014(8) -0.3554(8)
C5 C 0.2553(10) 1.3415(9) -0.4070(9)
H19 H 0.2918 1.2821 -0.4419
C6 C 0.3066(11) 1.4664(10) -0.4084(10)
H20 H 0.3788 1.4932 -0.4411
C7 C 0.2467(12) 1.5513(10) -0.3591(10)
H21 H 0.2772 1.6365 -0.3591
C8 C 0.0952(10) 1.3875(9) -0.3091(9)
H22 H 0.0231 1.3621 -0.2759
C9 C 0.6364(9) 0.7670(9) -0.1976(8)
C10 C 0.7594(9) 0.7737(8) -0.2540(8)
C11 C 0.6225(9) 1.2557(9) -0.3473(8)
C12 C 0.5808(9) 1.3460(9) -0.4092(9)
C13 C 0.5446(8) 0.5580(8) 0.0610(8)
C14 C 1.0393(10) 0.5255(8) -0.0416(8)
Nd1_2 Nd 1.60365(5) 0.94472(5) -0.36281(4)
Nd1A Nd 0.39635(5) 1.05528(5) -0.63719(4)
Nd1_3 Nd -0.39635(5) 0.94472(5) -0.36281(4)
Nd1A_2 Nd 1.39635(5) 1.05528(5) -0.63719(4)
Nd2A Nd 0.25016(5) 1.44452(4) 0.12240(4)
Nd2_2 Nd 0.74984(5) 1.55548(4) -0.12240(4)
Nd2A_2 Nd 0.25016(5) 0.44452(4) 0.12240(4)
Nd2A_3 Nd 1.25016(5) 0.44452(4) 0.12240(4)
Nd2A_4 Nd 1.25016(5) 1.44452(4) 0.12240(4)
Nd2A_5 Nd 0.25016(5) 0.44452(4) -0.87760(4)
Nd2_3 Nd 1.74984(5) 0.55548(4) -0.12240(4)
P1_2 P 1.2607(2) 0.9681(2) -0.3970(2)
P2_2 P 0.9666(2) 1.1268(2) -0.1256(2)
O1_2 O 1.3676(6) 0.9161(6) -0.3624(6)
O2_2 O 1.2599(6) 1.0143(6) -0.5018(5)
O2A O 0.7401(6) 0.9857(6) -0.4982(5)
O2A_2 O 1.7401(6) 0.9857(6) -0.4982(5)
O3_2 O 1.1098(6) 0.8653(6) -0.4243(5)
H1_2 H 1.1089 0.8306 -0.3731
O4_2 O 1.0635(6) 1.2646(6) -0.0502(6)
O4A O 0.9365(6) 0.7354(6) 0.0502(6)
O5_2 O 0.8429(6) 1.1178(6) -0.2222(6)
O5_3 O 1.8429(6) 1.1178(6) -0.2222(6)
O6_2 O 0.9120(6) 1.0386(6) -0.0575(6)
H2_2 H 0.9747 1.0203 -0.0254
O7_2 O 1.5680(7) 0.8320(6) -0.2189(6)
O8_2 O 1.6166(6) 0.6963(6) -0.1353(6)
O8A O 0.3834(6) 1.3037(6) 0.1353(6)
O9_2 O 1.7698(6) 0.8337(6) -0.3252(5)
O10_2 O 1.8342(6) 0.7176(6) -0.2206(5)
O10A O 0.1658(6) 1.2824(6) 0.2206(5)
O11A O 0.4310(6) 0.8657(6) -0.5931(5)
O11_2 O 1.5690(6) 1.1343(6) -0.4069(5)
O11A_2 O 1.4310(6) 0.8657(6) -0.5931(5)
O12A O 0.2947(7) 0.6898(6) -0.7582(6)
O12_2 O 0.7053(7) 0.3102(6) -0.2418(6)
O12A_2 O 0.2947(7) 1.6898(6) 0.2418(6)
O13A O 0.4940(6) 0.7087(6) -0.4840(5)
O13A_2 O 1.4940(6) 0.7087(6) -0.4840(5)
O14A O 0.3712(7) 0.5356(6) -0.6560(6)
O14_2 O 0.6288(7) 0.4644(6) -0.3440(6)
O14A_2 O 0.3712(7) 1.5356(6) 0.3440(6)
O15A O 0.3289(6) 0.3860(6) -0.0655(5)
O15A_2 O 0.3289(6) 1.3860(6) -0.0655(5)
O16A O 0.5090(6) 0.4138(6) -0.1423(6)
O16_2 O 0.4910(6) 1.5862(6) 0.1423(6)
O17A O 1.0282(6) 0.4626(6) 0.1321(5)
O17A_2 O 0.0282(6) 1.4626(6) 0.1321(5)
O18A O 0.8316(6) 0.4530(6) 0.0153(5)
O18_2 O 0.1684(6) 1.5470(6) -0.0153(5)
O19_2 O 1.6043(9) 1.0980(8) -0.1589(7)
H3_2 H 1.5480 1.1344 -0.1733
H4_2 H 1.5784 1.0528 -0.1160
N1_2 N 1.1678(7) 1.1445(7) -0.2471(6)
H11_2 H 1.2049 1.2244 -0.1860
N2_2 N 1.1433(10) 1.5081(9) -0.3112(9)
H12_2 H 1.1069 1.5614 -0.2806
C1_2 C 1.2887(9) 1.1080(9) -0.2627(8)
H13_2 H 1.3244 1.0904 -0.1913
H14_2 H 1.3616 1.1843 -0.2630
C2_2 C 1.0694(9) 1.0538(8) -0.2040(8)
H15_2 H 1.1228 1.0262 -0.1496
H16_2 H 1.0066 0.9761 -0.2735
C3_2 C 1.0899(9) 1.1626(9) -0.3555(8)
H17_2 H 0.9934 1.1412 -0.3565
H18_2 H 1.0908 1.1016 -0.4293
C4_2 C 1.1510(9) 1.3014(8) -0.3554(8)
C5_2 C 1.2553(10) 1.3415(9) -0.4070(9)
H19_2 H 1.2918 1.2821 -0.4419
C6_2 C 1.3066(11) 1.4664(10) -0.4084(10)
H20_2 H 1.3788 1.4932 -0.4411
C7_2 C 1.2467(12) 1.5513(10) -0.3591(10)
H21_2 H 1.2772 1.6365 -0.3591
C8_2 C 1.0952(10) 1.3875(9) -0.3091(9)
H22_2 H 1.0231 1.3621 -0.2759
C9_2 C 1.6364(9) 0.7670(9) -0.1976(8)
C10_2 C 1.7594(9) 0.7737(8) -0.2540(8)
C11A C 0.3775(9) 0.7443(9) -0.6527(8)
C12A C 0.4192(9) 0.6540(9) -0.5908(9)
C13A C 0.4554(8) 0.4420(8) -0.0610(8)
C14A C 0.9607(10) 0.4745(8) 0.0416(8)
O20 O 0.9190(7) 0.2607(7) 0.2718(7)
H5 H 0.9282 0.1951 0.2256
H6 H 0.9951 0.3087 0.3285
O21 O 1.3874(9) 0.7273(8) -0.0554(8)
H7 H 1.4002 0.6764 -0.1145
H8 H 1.4606 0.7974 -0.0199
O22 O 0.6927(15) 0.0775(11) 0.0846(11)
H9 H 0.6952 0.0134 0.0304
H10 H 0.7667 0.1111 0.1443
loop_
_geom_bond_atom_site_label_1
_geom_bond_atom_site_label_2
_geom_bond_site_symmetry_1
_geom_bond_site_symmetry_2
Nd1 O1 1_555 1_555
Nd2 O8 1_555 1_555
P1 O1 1_555 1_555
P2 O4 1_555 1_555
O2 P1 1_555 1_555
O3 P1 1_555 1_555
H1 O3 1_555 1_555
O4 Nd2A 1_555 1_555
O5 P2 1_555 1_555
O6 P2 1_555 1_555
H2 O6 1_555 1_555
O7 Nd1 1_555 1_555
O8 C9 1_555 1_555
O9 Nd1 1_555 1_555
O10 Nd2 1_555 1_555
O11 Nd1 1_555 1_555
O12 C11 1_555 1_555
O13 C12 1_555 1_555
O14 C12 1_555 1_555
O15 Nd2 1_555 1_555
O16 C13 1_555 1_555
O17 Nd2 1_555 1_555
O18 C14 1_555 1_555
O19 Nd1 1_555 1_555
H3 O19 1_555 1_555
H4 O19 1_555 1_555
O20 H5 1_555 1_555
H6 O20 1_555 1_555
O21 H7 1_555 1_555
H8 O21 1_555 1_555
O22 H9 1_555 1_555
H10 O22 1_555 1_555
N1 H11 1_555 1_555
N2 H12 1_555 1_555
C1 P1 1_555 1_555
H13 C1 1_555 1_555
H14 C1 1_555 1_555
C2 P2 1_555 1_555
H15 C2 1_555 1_555
H16 C2 1_555 1_555
C3 N1 1_555 1_555
H17 C3 1_555 1_555
H18 C3 1_555 1_555
C4 C3 1_555 1_555
C5 C4 1_555 1_555
H19 C5 1_555 1_555
C6 C5 1_555 1_555
H20 C6 1_555 1_555
C7 N2 1_555 1_555
H21 C7 1_555 1_555
C8 N2 1_555 1_555
H22 C8 1_555 1_555
C9 O7 1_555 1_555
C10 O9 1_555 1_555
C11 O11 1_555 1_555
C12 C11 1_555 1_555
C13 O15 1_555 1_555
C14 O17 1_555 1_555
Nd1_2 O1_2 1_555 1_555
Nd1A O2 1_555 1_555
Nd1_3 O5 1_555 1_555
Nd1A_2 O2_2 1_555 1_555
Nd2A O8A 1_555 1_555
Nd2_2 O12 1_555 1_555
Nd2A_2 O16 1_555 1_555
Nd2A_3 O18 1_555 1_555
Nd2A_4 O4_2 1_555 1_555
Nd2A_5 O12A 1_555 1_555
Nd2_3 O8_2 1_555 1_555
P1_2 O1_2 1_555 1_555
P2_2 O4_2 1_555 1_555
O2_2 P1_2 1_555 1_555
O2A Nd1 1_555 1_555
O2A_2 Nd1_2 1_555 1_555
O3_2 P1_2 1_555 1_555
H1_2 O3_2 1_555 1_555
O4A Nd2 1_555 1_555
O5_2 Nd1 1_555 1_555
O5_3 Nd1_2 1_555 1_555
O6_2 P2_2 1_555 1_555
H2_2 O6_2 1_555 1_555
O7_2 Nd1_2 1_555 1_555
O8_2 C9_2 1_555 1_555
O9_2 Nd1_2 1_555 1_555
O10_2 Nd2_3 1_555 1_555
O10A Nd2A 1_555 1_555
O11A Nd1 1_555 1_555
O11_2 Nd1_2 1_555 1_555
O11A_2 Nd1_2 1_555 1_555
O12A C11A 1_555 1_555
O12_2 Nd2 1_555 1_555
O12A_2 Nd2A 1_555 1_555
O13A Nd1 1_555 1_555
O13A_2 Nd1_2 1_555 1_555
O14A Nd2A_5 1_555 1_555
O14_2 Nd2 1_555 1_555
O14A_2 Nd2A 1_555 1_555
O15A Nd2A_2 1_555 1_555
O15A_2 Nd2A 1_555 1_555
O16A Nd2 1_555 1_555
O16_2 Nd2A 1_555 1_555
O17A Nd2A_3 1_555 1_555
O17A_2 Nd2A 1_555 1_555
O18A Nd2 1_555 1_555
O18_2 Nd2A 1_555 1_555
O19_2 Nd1_2 1_555 1_555
H3_2 O19_2 1_555 1_555
H4_2 O19_2 1_555 1_555
N1_2 H11_2 1_555 1_555
N2_2 H12_2 1_555 1_555
C1_2 P1_2 1_555 1_555
H13_2 C1_2 1_555 1_555
H14_2 C1_2 1_555 1_555
C2_2 P2_2 1_555 1_555
H15_2 C2_2 1_555 1_555
H16_2 C2_2 1_555 1_555
C3_2 N1_2 1_555 1_555
H17_2 C3_2 1_555 1_555
H18_2 C3_2 1_555 1_555
C4_2 C3_2 1_555 1_555
C5_2 C4_2 1_555 1_555
H19_2 C5_2 1_555 1_555
C6_2 C5_2 1_555 1_555
H20_2 C6_2 1_555 1_555
C7_2 N2_2 1_555 1_555
H21_2 C7_2 1_555 1_555
C8_2 N2_2 1_555 1_555
H22_2 C8_2 1_555 1_555
C9_2 O7_2 1_555 1_555
C10_2 O9_2 1_555 1_555
C11A O11A 1_555 1_555
C12A O13A 1_555 1_555
C13A C13 1_555 1_555
C14A C14 1_555 1_555
O10 C10 1_555 1_555
O11 Nd1A 1_555 1_555
O13 Nd1A 1_555 1_555
O14 Nd2_2 1_555 1_555
N1 C1 1_555 1_555
N1 C2 1_555 1_555
C4 C8 1_555 1_555
C6 C7 1_555 1_555
C9 C10 1_555 1_555
Nd1A O11A 1_555 1_555
Nd1A_2 O11_2 1_555 1_555
Nd1A_2 O11A_2 1_555 1_555
P2_2 O5_2 1_555 1_555
O10_2 C10_2 1_555 1_555
O14A C12A 1_555 1_555
O15A C13A 1_555 1_555
O16A C13A 1_555 1_555
O17A C14A 1_555 1_555
O18A C14A 1_555 1_555
N1_2 C1_2 1_555 1_555
N1_2 C2_2 1_555 1_555
C4_2 C8_2 1_555 1_555
C6_2 C7_2 1_555 1_555
C9_2 C10_2 1_555 1_555
C11A C12A 1_555 1_555

#END
