
#######################################################################
#
#                 Cambridge Crystallographic Data Centre
#                                CCDC 
#
#######################################################################
#
# If this CIF has been generated from an entry in the Cambridge 
# Structural Database, then it will include bibliographic, chemical, 
# crystal, experimental, refinement or atomic coordinate data resulting 
# from the CCDC's data processing and validation procedures.
#
#######################################################################

data_QUVDAN
_symmetry_cell_setting           triclinic
_symmetry_space_group_name_H-M   'P -1'
_symmetry_Int_Tables_number      2
_space_group_name_Hall           '-P 1'
loop_
_symmetry_equiv_pos_site_id
_symmetry_equiv_pos_as_xyz
1 x,y,z
2 -x,-y,-z
_cell_length_a                   10.5266(15)
_cell_length_b                   11.4447(16)
_cell_length_c                   11.927(3)
_cell_angle_alpha                105.704(3)
_cell_angle_beta                 101.172(3)
_cell_angle_gamma                108.451(2)
_cell_volume                     1249.21
loop_
_atom_site_label
_atom_site_type_symbol
_atom_site_fract_x
_atom_site_fract_y
_atom_site_fract_z
Sm1 Sm 1.39738(5) 1.55832(5) 0.36471(4)
Sm2 Sm 1.74988(5) 1.05624(4) -0.12056(4)
P1 P 1.7371(2) 1.5310(2) 0.3969(2)
P2 P 2.0345(2) 1.3737(2) 0.1260(2)
O1 O 1.6291(7) 1.5832(7) 0.3619(6)
O2 O 1.7383(6) 1.4817(6) 0.5019(5)
O3 O 1.8878(6) 1.6349(6) 0.4245(6)
H1 H 1.8883 1.6691 0.3724
O4 O 1.9371(6) 1.2360(6) 0.0488(6)
O5 O 2.1599(6) 1.3810(6) 0.2234(6)
O6 O 2.0904(6) 1.4628(6) 0.0567(6)
H2 H 2.0275 1.4815 0.0240
O7 O 1.4346(7) 1.6711(7) 0.2227(6)
O8 O 1.3841(7) 1.8070(6) 0.1354(6)
O9 O 1.2304(6) 1.6648(6) 0.3243(5)
O10 O 1.1646(6) 1.7844(6) 0.2205(6)
O11 O 1.4258(6) 1.3658(6) 0.4032(5)
O12 O 1.2921(8) 1.1889(7) 0.2362(6)
O13 O 1.4931(6) 1.2091(6) 0.5129(6)
O14 O 1.3716(7) 1.0352(6) 0.3395(6)
O15 O 1.6710(6) 1.1145(6) 0.0653(5)
O16 O 1.4901(6) 1.0838(6) 0.1404(6)
O17 O 1.9713(6) 1.0382(6) -0.1332(5)
O18 O 2.1672(6) 1.0431(6) -0.0174(6)
O19 O 1.3993(10) 1.4121(10) 0.1602(8)
H3 H 1.4564 1.3755 0.1736
H4 H 1.3171 1.3533 0.1218
N1 N 1.8324(7) 1.3549(7) 0.2464(7)
H11 H 1.7953 1.2752 0.1845
N2 N 1.8548(10) 0.9877(9) 0.3101(9)
H12 H 1.8908 0.9337 0.2794
C1 C 1.7087(9) 1.3922(9) 0.2618(8)
H13 H 1.6348 1.3153 0.2612
H14 H 1.6732 1.4111 0.1903
C2 C 1.9324(10) 1.4475(9) 0.2052(9)
H15 H 1.9962 1.5243 0.2759
H16 H 1.8794 1.4772 0.1511
C3 C 1.9107(10) 1.3353(9) 0.3570(8)
H17 H 2.0084 1.3575 0.3595
H18 H 1.9084 1.3953 0.4309
C4 C 1.8498(9) 1.1973(9) 0.3550(8)
C5 C 1.7459(10) 1.1581(10) 0.4075(9)
H19 H 1.7114 1.2188 0.4446
C6 C 1.6918(11) 1.0312(11) 0.4062(10)
H20 H 1.6180 1.0043 0.4378
C7 C 1.7495(12) 0.9454(11) 0.3572(11)
H21 H 1.7168 0.8594 0.3564
C8 C 1.9051(11) 1.1103(10) 0.3095(9)
H22 H 1.9788 1.1358 0.2775
C9 C 1.3647(9) 1.7363(9) 0.1989(8)
C10 C 1.2409(9) 1.7274(8) 0.2514(7)
C11 C 1.3741(9) 1.2439(9) 0.3414(9)
C12 C 1.4132(10) 1.1545(10) 0.4034(9)
C13 C 1.5471(8) 1.0571(9) 0.0619(8)
C14 C 2.0413(10) 1.0255(9) -0.0423(8)
Sm1A Sm 1.60262(5) 1.44168(5) 0.63529(4)
Sm1_2 Sm 2.39738(5) 1.55832(5) 0.36471(4)
Sm1A_2 Sm 0.60262(5) 1.44168(5) 0.63529(4)
Sm1A_3 Sm 1.60262(5) 1.44168(5) -0.36471(4)
Sm2A Sm 1.25012(5) 1.94376(4) 1.12056(4)
Sm2A_2 Sm 1.25012(5) 1.94376(4) 0.12056(4)
Sm2A_3 Sm 1.25012(5) 0.94376(4) 0.12056(4)
Sm2A_4 Sm 2.25012(5) 0.94376(4) 0.12056(4)
Sm2_2 Sm 1.74988(5) 2.05624(4) 0.87944(4)
P1A P 1.2629(2) 1.4690(2) 0.6031(2)
P2A P 0.9655(2) 1.6263(2) 0.8740(2)
O1A O 1.3709(7) 1.4168(7) 0.6381(6)
O2A O 1.2617(6) 1.5183(6) 0.4981(5)
O3A O 1.1122(6) 1.3651(6) 0.5755(6)
H1A H 1.1117 1.3309 0.6276
O4A O 1.0629(6) 1.7640(6) 0.9512(6)
O5A O 0.8401(6) 1.6190(6) 0.7766(6)
O5_2 O 1.1599(6) 1.3810(6) 0.2234(6)
O5A_2 O 1.8401(6) 1.6190(6) 0.7766(6)
O6A O 0.9096(6) 1.5372(6) 0.9433(6)
H2A H 0.9725 1.5185 0.9760
O7A O 1.5654(7) 1.3289(7) -0.2227(6)
O7A_2 O 1.5654(7) 1.3289(7) 0.7773(6)
O8A O 1.6159(7) 1.1930(6) -0.1354(6)
O8_2 O 1.3841(7) 1.8070(6) 1.1354(6)
O9A O 1.7696(6) 1.3352(6) -0.3243(5)
O9A_2 O 1.7696(6) 1.3352(6) 0.6757(5)
O10A O 1.8354(6) 1.2156(6) -0.2205(6)
O10_2 O 1.1646(6) 1.7844(6) 1.2205(6)
O11A O 1.5742(6) 1.6342(6) 0.5968(5)
O12A O 1.7079(8) 1.8111(7) 0.7638(6)
O12A_2 O 1.7079(8) 0.8111(7) -0.2362(6)
O12_2 O 1.2921(8) 2.1889(7) 1.2362(6)
O13A O 1.5069(6) 1.7909(6) 0.4871(6)
O14A O 1.6284(7) 1.9648(6) 0.6605(6)
O14A_2 O 1.6284(7) 0.9648(6) -0.3395(6)
O14_2 O 1.3716(7) 2.0352(6) 1.3395(6)
O15A O 1.3290(6) 0.8855(6) -0.0653(5)
O15A_2 O 1.3290(6) 1.8855(6) 0.9347(5)
O16A O 1.5099(6) 0.9162(6) -0.1404(6)
O16_2 O 1.4901(6) 2.0838(6) 1.1404(6)
O17A O 2.0287(6) 0.9618(6) 0.1332(5)
O17A_2 O 1.0287(6) 1.9618(6) 1.1332(5)
O18A O 1.8328(6) 0.9569(6) 0.0174(6)
O18_2 O 1.1672(6) 2.0431(6) 0.9826(6)
O19A O 1.6007(10) 1.5879(10) 0.8398(8)
H3A H 1.5436 1.6245 0.8264
H4A H 1.6829 1.6467 0.8782
N1A N 1.1676(7) 1.6451(7) 0.7536(7)
H11A H 1.2047 1.7248 0.8155
N2A N 1.1452(10) 2.0123(9) 0.6899(9)
H12A H 1.1092 2.0663 0.7206
C1A C 1.2913(9) 1.6078(9) 0.7382(8)
H13A H 1.3652 1.6847 0.7388
H14A H 1.3268 1.5889 0.8097
C2A C 1.0676(10) 1.5525(9) 0.7948(9)
H15A H 1.0038 1.4757 0.7241
H16A H 1.1206 1.5228 0.8489
C3A C 1.0893(10) 1.6647(9) 0.6430(8)
H17A H 0.9916 1.6425 0.6405
H18A H 1.0916 1.6047 0.5691
C4A C 1.1502(9) 1.8027(9) 0.6450(8)
C5A C 1.2541(10) 1.8419(10) 0.5925(9)
H19A H 1.2886 1.7812 0.5554
C6A C 1.3082(11) 1.9688(11) 0.5938(10)
H20A H 1.3820 1.9957 0.5622
C7A C 1.2505(12) 2.0546(11) 0.6428(11)
H21A H 1.2832 2.1406 0.6436
C8A C 1.0949(11) 1.8897(10) 0.6905(9)
H22A H 1.0212 1.8642 0.7225
C9A C 1.6353(9) 1.2637(9) -0.1989(8)
C10A C 1.7591(9) 1.2726(8) -0.2514(7)
C11A C 1.6259(9) 1.7561(9) 0.6586(9)
C12A C 1.5868(10) 1.8455(10) 0.5966(9)
C13A C 1.4529(8) 0.9429(9) -0.0619(8)
C14A C 1.9587(10) 0.9745(9) 0.0423(8)
O20 O -0.9185(8) 0.2394(7) -0.2710(7)
H5 H -0.9560 0.2646 -0.2171
H6 H -0.9586 0.2438 -0.3379
O21 O 1.3960(10) 1.2343(9) -0.0488(9)
H7 H 1.3810 1.1586 -0.0438
H8 H 1.3312 1.2280 -0.1079
O22 O -0.6909(14) 0.4234(12) -0.0831(10)
H9 H -0.7228 0.4525 -0.0261
H10 H -0.7351 0.4265 -0.1492
loop_
_geom_bond_atom_site_label_1
_geom_bond_atom_site_label_2
_geom_bond_site_symmetry_1
_geom_bond_site_symmetry_2
Sm1 O1 1_555 1_555
Sm2 O4 1_555 1_555
P1 O1 1_555 1_555
P2 O4 1_555 1_555
O2 P1 1_555 1_555
O3 P1 1_555 1_555
H1 O3 1_555 1_555
O5 P2 1_555 1_555
O6 P2 1_555 1_555
H2 O6 1_555 1_555
O7 Sm1 1_555 1_555
O8 C9 1_555 1_555
O9 Sm1 1_555 1_555
O10 C10 1_555 1_555
O11 Sm1 1_555 1_555
O12 C11 1_555 1_555
O13 C12 1_555 1_555
O14 C12 1_555 1_555
O15 Sm2 1_555 1_555
O16 C13 1_555 1_555
O17 Sm2 1_555 1_555
O18 C14 1_555 1_555
O19 Sm1 1_555 1_555
H3 O19 1_555 1_555
H4 O19 1_555 1_555
O20 H5 1_555 1_555
H6 O20 1_555 1_555
O21 H7 1_555 1_555
H8 O21 1_555 1_555
O22 H9 1_555 1_555
H10 O22 1_555 1_555
N1 H11 1_555 1_555
N2 H12 1_555 1_555
C1 P1 1_555 1_555
H13 C1 1_555 1_555
H14 C1 1_555 1_555
C2 P2 1_555 1_555
H15 C2 1_555 1_555
H16 C2 1_555 1_555
C3 N1 1_555 1_555
H17 C3 1_555 1_555
H18 C3 1_555 1_555
C4 C3 1_555 1_555
C5 C4 1_555 1_555
H19 C5 1_555 1_555
C6 C5 1_555 1_555
H20 C6 1_555 1_555
C7 N2 1_555 1_555
H21 C7 1_555 1_555
C8 N2 1_555 1_555
H22 C8 1_555 1_555
C9 O7 1_555 1_555
C10 O9 1_555 1_555
C11 O11 1_555 1_555
C12 C11 1_555 1_555
C13 O15 1_555 1_555
C14 O17 1_555 1_555
Sm1A O2 1_555 1_555
Sm1_2 O5 1_555 1_555
Sm1A_2 O5A 1_555 1_555
Sm1A_3 O7A 1_555 1_555
Sm2A O4A 1_555 1_555
Sm2A_2 O8 1_555 1_555
Sm2A_3 O12 1_555 1_555
Sm2A_4 O18 1_555 1_555
Sm2_2 O12A 1_555 1_555
P1A O1A 1_555 1_555
P2A O4A 1_555 1_555
O1A Sm1A 1_555 1_555
O2A Sm1 1_555 1_555
O3A P1A 1_555 1_555
H1A O3A 1_555 1_555
O5A P2A 1_555 1_555
O5_2 Sm1 1_555 1_555
O5A_2 Sm1A 1_555 1_555
O6A P2A 1_555 1_555
H2A O6A 1_555 1_555
O7A C9A 1_555 1_555
O7A_2 Sm1A 1_555 1_555
O8A Sm2 1_555 1_555
O8_2 Sm2A 1_555 1_555
O9A Sm1A_3 1_555 1_555
O9A_2 Sm1A 1_555 1_555
O10A Sm2 1_555 1_555
O10_2 Sm2A 1_555 1_555
O11A Sm1 1_555 1_555
O12A C11A 1_555 1_555
O12A_2 Sm2 1_555 1_555
O12_2 Sm2A 1_555 1_555
O13A Sm1 1_555 1_555
O14A Sm2_2 1_555 1_555
O14A_2 Sm2 1_555 1_555
O14_2 Sm2A 1_555 1_555
O15A Sm2A_3 1_555 1_555
O15A_2 Sm2A 1_555 1_555
O16A Sm2 1_555 1_555
O16_2 Sm2A 1_555 1_555
O17A Sm2A_4 1_555 1_555
O17A_2 Sm2A 1_555 1_555
O18A Sm2 1_555 1_555
O18_2 Sm2A 1_555 1_555
O19A Sm1A 1_555 1_555
H3A O19A 1_555 1_555
H4A O19A 1_555 1_555
N1A H11A 1_555 1_555
N2A H12A 1_555 1_555
C1A P1A 1_555 1_555
H13A C1A 1_555 1_555
H14A C1A 1_555 1_555
C2A P2A 1_555 1_555
H15A C2A 1_555 1_555
H16A C2A 1_555 1_555
C3A N1A 1_555 1_555
H17A C3A 1_555 1_555
H18A C3A 1_555 1_555
C4A C3A 1_555 1_555
C5A C4A 1_555 1_555
H19A C5A 1_555 1_555
C6A C5A 1_555 1_555
H20A C6A 1_555 1_555
C7A N2A 1_555 1_555
H21A C7A 1_555 1_555
C8A N2A 1_555 1_555
H22A C8A 1_555 1_555
C9A O8A 1_555 1_555
C10A O9A 1_555 1_555
C11A O11A 1_555 1_555
C12A O13A 1_555 1_555
C13A C13 1_555 1_555
C14A C14 1_555 1_555
O10 Sm2A_2 1_555 1_555
O11 Sm1A 1_555 1_555
O13 Sm1A 1_555 1_555
O14 Sm2A_3 1_555 1_555
O16 Sm2A_3 1_555 1_555
N1 C1 1_555 1_555
N1 C2 1_555 1_555
C4 C8 1_555 1_555
C6 C7 1_555 1_555
C9 C10 1_555 1_555
Sm1A O11A 1_555 1_555
P1A O2A 1_555 1_555
O10A C10A 1_555 1_555
O14A C12A 1_555 1_555
O15A C13A 1_555 1_555
O16A C13A 1_555 1_555
O17A C14A 1_555 1_555
O18A C14A 1_555 1_555
N1A C1A 1_555 1_555
N1A C2A 1_555 1_555
C4A C8A 1_555 1_555
C6A C7A 1_555 1_555
C9A C10A 1_555 1_555
C11A C12A 1_555 1_555

#END
