
#######################################################################
#
#                 Cambridge Crystallographic Data Centre
#                                CCDC 
#
#######################################################################
#
# If this CIF has been generated from an entry in the Cambridge 
# Structural Database, then it will include bibliographic, chemical, 
# crystal, experimental, refinement or atomic coordinate data resulting 
# from the CCDC's data processing and validation procedures.
#
#######################################################################

data_QUVDOB
_symmetry_cell_setting           orthorhombic
_symmetry_space_group_name_H-M   'P 21 21 21'
_symmetry_Int_Tables_number      19
_space_group_name_Hall           'P 2ac 2ab'
loop_
_symmetry_equiv_pos_site_id
_symmetry_equiv_pos_as_xyz
1 x,y,z
2 1/2-x,-y,1/2+z
3 -x,1/2+y,1/2-z
4 1/2+x,1/2-y,-z
_cell_length_a                   11.4319(14)
_cell_length_b                   14.8457(19)
_cell_length_c                   16.389(2)
_cell_angle_alpha                90
_cell_angle_beta                 90
_cell_angle_gamma                90
_cell_volume                     2781.45
loop_
_atom_site_label
_atom_site_type_symbol
_atom_site_fract_x
_atom_site_fract_y
_atom_site_fract_z
Dy1 Dy 0.72594(7) 0.25592(5) 0.56857(4)
Dy2 Dy 0.76373(8) 0.19486(5) -0.05496(4)
P1 P 0.7417(5) 0.1822(3) 0.1676(3)
P2 P 0.6825(5) 0.0523(3) 0.4527(3)
O1 O 0.8190(16) 0.2361(11) 0.2162(9)
O2 O 0.7676(16) 0.1702(9) 0.0807(7)
O3 O 0.6088(17) 0.2106(14) 0.1715(13)
H1 H 0.6011 0.2527 0.2034
O4 O 0.7392(12) -0.0388(8) 0.4487(7)
O5 O 0.737(2) 0.1155(8) 0.5106(7)
O6 O 0.5497(16) 0.0455(14) 0.4689(11)
H2 H 0.5291 -0.0073 0.4659
O7 O 0.6072(11) 0.2736(11) 0.4484(10)
O8 O 0.4260(12) 0.2632(13) 0.3997(8)
O9 O 0.3476(11) 0.2205(11) 0.5470(8)
O10 O 0.5284(13) 0.2383(13) 0.5987(8)
O11 O 0.7279(16) 0.1503(8) 0.6779(7)
O12 O 0.7406(17) 0.1314(8) 0.8130(7)
O13 O 0.7718(15) 0.3039(9) 0.8338(7)
O14 O 0.7491(15) 0.3273(8) 0.6997(7)
O15 O 0.4686(11) 0.3496(9) 0.0477(9)
O16 O 0.6387(11) 0.3161(10) -0.0080(9)
O17 O 0.5644(12) 0.1528(9) -0.0444(10)
O18 O 0.3916(11) 0.1841(9) 0.0137(9)
O19 O 0.6844(19) 0.4098(11) 0.5511(11)
H3 H 0.7413 0.4336 0.5251
H4 H 0.6790 0.4354 0.5976
N1 N 0.7760(18) 0.0549(10) 0.2957(8)
H9 H 0.7678 -0.0051 0.3056
N2 N 1.1039(19) -0.1000(13) 0.2419(14)
H10 H 1.1226 -0.1537 0.2564
C1 C 0.7424(18) 0.0685(11) 0.2058(9)
H11 H 0.6649 0.0434 0.1977
H12 H 0.7961 0.0336 0.1726
C2 C 0.689(2) 0.1000(15) 0.3476(12)
H13 H 0.6126 0.0946 0.3224
H14 H 0.7080 0.1636 0.3509
C3 C 0.898(2) 0.0772(15) 0.3172(13)
H15 H 0.9113 0.0621 0.3740
H16 H 0.9094 0.1417 0.3114
C4 C 0.990(2) 0.0284(13) 0.2649(13)
C5 C 1.032(2) 0.0610(18) 0.1950(14)
H17 H 1.0061 0.1171 0.1772
C6 C 1.1114(19) 0.0149(18) 0.1484(17)
H18 H 1.1411 0.0401 0.1007
C7 C 1.146(2) -0.068(2) 0.1730(16)
H19 H 1.1983 -0.1014 0.1420
C8 C 1.0313(19) -0.0508(16) 0.2910(14)
H20 H 1.0110 -0.0723 0.3424
C9 C 0.4999(17) 0.2601(16) 0.4566(12)
C10 C 0.4513(19) 0.2353(16) 0.5426(11)
C11 C 0.7387(17) 0.1765(12) 0.7488(10)
C12 C 0.757(2) 0.2769(12) 0.7628(10)
C13 C 0.5375(15) 0.2976(13) 0.0125(11)
C14 C 0.4918(16) 0.2018(15) -0.0077(12)
Dy1C Dy 0.22594(7) 0.24408(5) 0.43143(4)
Dy2_2 Dy 0.76373(8) 0.19486(5) 0.94504(4)
Dy2A Dy 0.73627(8) -0.19486(5) 0.44504(4)
Dy2C Dy 0.26373(8) 0.30514(5) 0.05496(4)
O4A O 0.7608(12) 0.0388(8) -0.0513(7)
O8C O 0.9260(12) 0.2368(13) 0.6003(8)
O9C O 0.8476(11) 0.2795(11) 0.4530(8)
O12_2 O 0.7406(17) 0.1314(8) -0.1870(7)
O13_2 O 0.7718(15) 0.3039(9) -0.1662(7)
O15C O 0.9686(11) 0.1504(9) -0.0477(9)
O18C O 0.8916(11) 0.3159(9) -0.0137(9)
O20 O 0.534(2) 0.340(2) 0.2628(17)
H5 H 0.5417 0.2953 0.2308
H6 H 0.4617 0.3527 0.2684
O21 O 0.539(3) 0.9765(14) 0.045(2)
H7 H 0.5284 0.9572 -0.0034
H8 H 0.4782 1.0056 0.0605
loop_
_geom_bond_atom_site_label_1
_geom_bond_atom_site_label_2
_geom_bond_site_symmetry_1
_geom_bond_site_symmetry_2
Dy1 O5 1_555 1_555
Dy2 O2 1_555 1_555
P1 O1 1_555 1_555
P2 O4 1_555 1_555
O2 P1 1_555 1_555
O3 P1 1_555 1_555
H1 O3 1_555 1_555
O4 Dy2A 1_555 1_555
O5 P2 1_555 1_555
O6 P2 1_555 1_555
H2 O6 1_555 1_555
O7 Dy1 1_555 1_555
O8 C9 1_555 1_555
O9 C10 1_555 1_555
O10 Dy1 1_555 1_555
O11 Dy1 1_555 1_555
O12 C11 1_555 1_555
O13 C12 1_555 1_555
O14 Dy1 1_555 1_555
O15 C13 1_555 1_555
O16 Dy2 1_555 1_555
O17 Dy2 1_555 1_555
O18 C14 1_555 1_555
O19 Dy1 1_555 1_555
H3 O19 1_555 1_555
H4 O19 1_555 1_555
O20 H5 1_555 1_555
H6 O20 1_555 1_555
O21 H7 1_555 1_555
H8 O21 1_555 1_555
N1 H9 1_555 1_555
N2 H10 1_555 1_555
C1 P1 1_555 1_555
H11 C1 1_555 1_555
H12 C1 1_555 1_555
C2 P2 1_555 1_555
H13 C2 1_555 1_555
H14 C2 1_555 1_555
C3 N1 1_555 1_555
H15 C3 1_555 1_555
H16 C3 1_555 1_555
C4 C3 1_555 1_555
C5 C4 1_555 1_555
H17 C5 1_555 1_555
C6 C5 1_555 1_555
H18 C6 1_555 1_555
C7 N2 1_555 1_555
H19 C7 1_555 1_555
C8 N2 1_555 1_555
H20 C8 1_555 1_555
C9 O7 1_555 1_555
C10 O10 1_555 1_555
C11 O11 1_555 1_555
C12 O14 1_555 1_555
C13 O16 1_555 1_555
C14 O17 1_555 1_555
Dy1C O8 1_555 1_555
Dy2_2 O12 1_555 1_555
Dy2C O15 1_555 1_555
O4A Dy2 1_555 1_555
O8C Dy1 1_555 1_555
O9C Dy1 1_555 1_555
O12_2 Dy2 1_555 1_555
O13_2 Dy2 1_555 1_555
O15C Dy2 1_555 1_555
O18C Dy2 1_555 1_555
O9 Dy1C 1_555 1_555
O13 Dy2_2 1_555 1_555
O18 Dy2C 1_555 1_555
N1 C1 1_555 1_555
N1 C2 1_555 1_555
C4 C8 1_555 1_555
C6 C7 1_555 1_555
C9 C10 1_555 1_555
C11 C12 1_555 1_555
C13 C14 1_555 1_555

#END
