
#######################################################################
#
#                 Cambridge Crystallographic Data Centre
#                                CCDC 
#
#######################################################################
#
# If this CIF has been generated from an entry in the Cambridge 
# Structural Database, then it will include bibliographic, chemical, 
# crystal, experimental, refinement or atomic coordinate data resulting 
# from the CCDC's data processing and validation procedures.
#
#######################################################################

data_QUVDIV
_symmetry_cell_setting           triclinic
_symmetry_space_group_name_H-M   'P -1'
_symmetry_Int_Tables_number      2
_space_group_name_Hall           '-P 1'
loop_
_symmetry_equiv_pos_site_id
_symmetry_equiv_pos_as_xyz
1 x,y,z
2 -x,-y,-z
_cell_length_a                   10.7511(14)
_cell_length_b                   11.6741(15)
_cell_length_c                   12.152(3)
_cell_angle_alpha                106.384(2)
_cell_angle_beta                 100.604(2)
_cell_angle_gamma                108.992(2)
_cell_volume                     1318.1
loop_
_atom_site_label
_atom_site_type_symbol
_atom_site_fract_x
_atom_site_fract_y
_atom_site_fract_z
La1 La 0.60769(5) -0.54760(5) -0.85898(4)
La2 La 0.74943(5) -0.94472(4) -0.62573(4)
P1 P 0.2599(2) -0.5308(2) -0.8950(2)
P2 P -0.0319(2) -0.3717(2) -0.6302(2)
O1 O 0.3657(6) -0.5800(6) -0.8590(6)
O2 O 0.2585(6) -0.4862(6) -0.9986(5)
O3 O 0.1105(6) -0.6337(6) -0.9226(5)
H1 H 0.1097 -0.6683 -0.8725
O4 O 0.0661(6) -0.2364(6) -0.5495(5)
O5 O -0.1519(6) -0.3815(6) -0.7239(6)
O6 O -0.0860(6) -0.4600(6) -0.5592(6)
H2 H -0.0239 -0.4779 -0.5286
O7 O 0.5780(7) -0.6597(6) -0.7123(6)
O8 O 0.6189(7) -0.7994(7) -0.6360(6)
O9 O 0.7718(6) -0.6640(5) -0.8238(5)
O10 O 0.8355(6) -0.7786(6) -0.7218(6)
O11 O 0.5666(6) -0.3616(5) -0.9130(5)
O12 O 0.6981(7) -0.1854(6) -0.7493(6)
O13 O 0.5056(6) -0.2077(6) -1.0218(5)
O14 O 0.6247(7) -0.0353(6) -0.8519(6)
O15 O 0.6688(6) -0.8843(5) -0.4379(5)
O16 O 0.4933(6) -0.9156(6) -0.3595(6)
O17 O 0.9763(6) -0.9609(6) -0.6293(5)
O18 O 1.1683(6) -0.9501(6) -0.5106(5)
O19 O 0.6156(8) -0.3809(7) -0.6580(7)
H3 H 0.5590 -0.3453 -0.6729
H4 H 0.5900 -0.4254 -0.6145
N1 N 0.1686(7) -0.3557(7) -0.7467(6)
H11 H 0.2062 -0.2763 -0.6860
N2 N 0.1486(15) 0.0053(13) -0.8058(13)
H12 H 0.1099 0.0570 -0.7801
C1 C 0.2876(8) -0.3913(8) -0.7634(8)
H13 H 0.3244 -0.4067 -0.6925
H14 H 0.3590 -0.3156 -0.7648
C2 C 0.0713(9) -0.4433(8) -0.7053(8)
H15 H 0.1233 -0.4695 -0.6503
H16 H 0.0097 -0.5212 -0.7741
C3 C 0.0940(9) -0.3372(9) -0.8540(8)
H17 H 0.0948 -0.3979 -0.9269
H18 H -0.0016 -0.3579 -0.8559
C4 C 0.1562(10) -0.2016(9) -0.8527(8)
C5 C 0.2489(10) -0.1645(10) -0.9126(10)
H19 H 0.2756 -0.2268 -0.9563
C6 C 0.3037(12) -0.0425(12) -0.9117(12)
H20 H 0.3703 -0.0194 -0.9497
C7 C 0.2593(18) 0.0435(13) -0.8548(15)
H21 H 0.3010 0.1301 -0.8467
C8 C 0.1078(17) -0.1130(13) -0.8016(13)
H22 H 0.0432 -0.1362 -0.7618
C9 C 0.6419(9) -0.7269(9) -0.6948(8)
C10 C 0.7600(8) -0.7220(7) -0.7515(7)
C11 C 0.6195(9) -0.2396(8) -0.8532(8)
C12 C 0.5809(8) -0.1531(8) -0.9153(7)
C13 C 0.5473(8) -0.9407(8) -0.4404(8)
C14 C 1.0427(9) -0.9734(8) -0.5411(8)
La1_2 La 1.60769(5) -0.54760(5) -0.85898(4)
La1A La 0.39231(5) -0.45240(5) -1.14102(4)
La1_3 La -0.39231(5) -0.54760(5) -0.85898(4)
La1A_2 La 1.39231(5) -0.45240(5) -1.14102(4)
La2A La 0.25057(5) -0.05528(4) -0.37427(4)
La2_2 La 0.74943(5) 0.05528(4) -0.62573(4)
La2A_2 La 0.25057(5) -1.05528(4) -0.37427(4)
La2A_3 La 1.25057(5) -1.05528(4) -0.37427(4)
La2A_4 La 1.25057(5) -0.05528(4) -0.37427(4)
La2A_5 La 0.25057(5) -1.05528(4) -1.37427(4)
La2_3 La 1.74943(5) -0.94472(4) -0.62573(4)
P1_2 P 1.2599(2) -0.5308(2) -0.8950(2)
P2_2 P 0.9681(2) -0.3717(2) -0.6302(2)
O1_2 O 1.3657(6) -0.5800(6) -0.8590(6)
O2_2 O 1.2585(6) -0.4862(6) -0.9986(5)
O2A O 0.7415(6) -0.5138(6) -1.0014(5)
O2A_2 O 1.7415(6) -0.5138(6) -1.0014(5)
O3_2 O 1.1105(6) -0.6337(6) -0.9226(5)
H1_2 H 1.1097 -0.6683 -0.8725
O4_2 O 1.0661(6) -0.2364(6) -0.5495(5)
O4A O 0.9339(6) -0.7636(6) -0.4505(5)
O5_2 O 0.8481(6) -0.3815(6) -0.7239(6)
O5_3 O 1.8481(6) -0.3815(6) -0.7239(6)
O6_2 O 0.9140(6) -0.4600(6) -0.5592(6)
H2_2 H 0.9761 -0.4779 -0.5286
O7_2 O 1.5780(7) -0.6597(6) -0.7123(6)
O8_2 O 1.6189(7) -0.7994(7) -0.6360(6)
O8A O 0.3811(7) -0.2006(7) -0.3640(6)
O9_2 O 1.7718(6) -0.6640(5) -0.8238(5)
O10_2 O 1.8355(6) -0.7786(6) -0.7218(6)
O10A O 0.1645(6) -0.2214(6) -0.2782(6)
O11A O 0.4334(6) -0.6384(5) -1.0870(5)
O11_2 O 1.5666(6) -0.3616(5) -0.9130(5)
O11A_2 O 1.4334(6) -0.6384(5) -1.0870(5)
O12A O 0.3019(7) -0.8146(6) -1.2507(6)
O12_2 O 0.6981(7) -1.1854(6) -0.7493(6)
O12A_2 O 0.3019(7) 0.1854(6) -0.2507(6)
O13A O 0.4944(6) -0.7923(6) -0.9782(5)
O13A_2 O 1.4944(6) -0.7923(6) -0.9782(5)
O14A O 0.3753(7) -0.9647(6) -1.1481(6)
O14_2 O 0.6247(7) -1.0353(6) -0.8519(6)
O14A_2 O 0.3753(7) 0.0353(6) -0.1481(6)
O15A O 0.3312(6) -1.1157(5) -0.5621(5)
O15A_2 O 0.3312(6) -0.1157(5) -0.5621(5)
O16A O 0.5067(6) -1.0844(6) -0.6405(6)
O16_2 O 0.4933(6) 0.0844(6) -0.3595(6)
O17A O 1.0237(6) -1.0391(6) -0.3707(5)
O17A_2 O 0.0237(6) -0.0391(6) -0.3707(5)
O18A O 0.8317(6) -1.0499(6) -0.4894(5)
O18_2 O 0.1683(6) 0.0499(6) -0.5106(5)
O19_2 O 1.6156(8) -0.3809(7) -0.6580(7)
H3_2 H 1.5590 -0.3453 -0.6729
H4_2 H 1.5900 -0.4254 -0.6145
N1_2 N 1.1686(7) -0.3557(7) -0.7467(6)
H11_2 H 1.2062 -0.2763 -0.6860
N2_2 N 1.1486(15) 0.0053(13) -0.8058(13)
H12_2 H 1.1099 0.0570 -0.7801
C1_2 C 1.2876(8) -0.3913(8) -0.7634(8)
H13_2 H 1.3244 -0.4067 -0.6925
H14_2 H 1.3590 -0.3156 -0.7648
C2_2 C 1.0713(9) -0.4433(8) -0.7053(8)
H15_2 H 1.1233 -0.4695 -0.6503
H16_2 H 1.0097 -0.5212 -0.7741
C3_2 C 1.0940(9) -0.3372(9) -0.8540(8)
H17_2 H 1.0948 -0.3979 -0.9269
H18_2 H 0.9984 -0.3579 -0.8559
C4_2 C 1.1562(10) -0.2016(9) -0.8527(8)
C5_2 C 1.2489(10) -0.1645(10) -0.9126(10)
H19_2 H 1.2756 -0.2268 -0.9563
C6_2 C 1.3037(12) -0.0425(12) -0.9117(12)
H20_2 H 1.3703 -0.0194 -0.9497
C7_2 C 1.2593(18) 0.0435(13) -0.8548(15)
H21_2 H 1.3010 0.1301 -0.8467
C8_2 C 1.1078(17) -0.1130(13) -0.8016(13)
H22_2 H 1.0432 -0.1362 -0.7618
C9_2 C 1.6419(9) -0.7269(9) -0.6948(8)
C10_2 C 1.7600(8) -0.7220(7) -0.7515(7)
C11A C 0.3805(9) -0.7604(8) -1.1468(8)
C12A C 0.4191(8) -0.8469(8) -1.0847(7)
C13A C 0.4527(8) -1.0593(8) -0.5596(8)
C14A C 0.9573(9) -1.0266(8) -0.4589(8)
O20 O 0.0687(9) -0.7686(9) -0.7851(10)
H5 H 0.0166 -0.8403 -0.8428
H6 H 0.0816 -0.7821 -0.7189
O21 O -1.3928(15) -0.2253(13) -0.4422(13)
H7 H -1.4632 -0.2719 -0.5040
H8 H -1.4068 -0.2474 -0.3824
O22 O 0.297(2) -0.5841(18) -0.5852(17)
H9 H 0.2303 -0.6588 -0.6136
H10 H 0.3451 -0.5726 -0.5154
loop_
_geom_bond_atom_site_label_1
_geom_bond_atom_site_label_2
_geom_bond_site_symmetry_1
_geom_bond_site_symmetry_2
La1 O1 1_555 1_555
La2 O8 1_555 1_555
P1 O1 1_555 1_555
P2 O4 1_555 1_555
O2 P1 1_555 1_555
O3 P1 1_555 1_555
H1 O3 1_555 1_555
O4 La2A 1_555 1_555
O5 P2 1_555 1_555
O6 P2 1_555 1_555
H2 O6 1_555 1_555
O7 La1 1_555 1_555
O8 C9 1_555 1_555
O9 La1 1_555 1_555
O10 La2 1_555 1_555
O11 La1 1_555 1_555
O12 C11 1_555 1_555
O13 C12 1_555 1_555
O14 C12 1_555 1_555
O15 La2 1_555 1_555
O16 C13 1_555 1_555
O17 La2 1_555 1_555
O18 C14 1_555 1_555
O19 La1 1_555 1_555
H3 O19 1_555 1_555
H4 O19 1_555 1_555
O20 H5 1_555 1_555
H6 O20 1_555 1_555
O21 H7 1_555 1_555
H8 O21 1_555 1_555
O22 H9 1_555 1_555
H10 O22 1_555 1_555
N1 H11 1_555 1_555
N2 H12 1_555 1_555
C1 P1 1_555 1_555
H13 C1 1_555 1_555
H14 C1 1_555 1_555
C2 P2 1_555 1_555
H15 C2 1_555 1_555
H16 C2 1_555 1_555
C3 N1 1_555 1_555
H17 C3 1_555 1_555
H18 C3 1_555 1_555
C4 C3 1_555 1_555
C5 C4 1_555 1_555
H19 C5 1_555 1_555
C6 C5 1_555 1_555
H20 C6 1_555 1_555
C7 N2 1_555 1_555
H21 C7 1_555 1_555
C8 N2 1_555 1_555
H22 C8 1_555 1_555
C9 O7 1_555 1_555
C10 O9 1_555 1_555
C11 O11 1_555 1_555
C12 C11 1_555 1_555
C13 O15 1_555 1_555
C14 O17 1_555 1_555
La1_2 O1_2 1_555 1_555
La1A O2 1_555 1_555
La1_3 O5 1_555 1_555
La1A_2 O2_2 1_555 1_555
La2A O8A 1_555 1_555
La2_2 O12 1_555 1_555
La2A_2 O16 1_555 1_555
La2A_3 O18 1_555 1_555
La2A_4 O4_2 1_555 1_555
La2A_5 O12A 1_555 1_555
La2_3 O8_2 1_555 1_555
P1_2 O1_2 1_555 1_555
P2_2 O4_2 1_555 1_555
O2_2 P1_2 1_555 1_555
O2A La1 1_555 1_555
O2A_2 La1_2 1_555 1_555
O3_2 P1_2 1_555 1_555
H1_2 O3_2 1_555 1_555
O4A La2 1_555 1_555
O5_2 La1 1_555 1_555
O5_3 La1_2 1_555 1_555
O6_2 P2_2 1_555 1_555
H2_2 O6_2 1_555 1_555
O7_2 La1_2 1_555 1_555
O8_2 C9_2 1_555 1_555
O9_2 La1_2 1_555 1_555
O10_2 La2_3 1_555 1_555
O10A La2A 1_555 1_555
O11A La1 1_555 1_555
O11_2 La1_2 1_555 1_555
O11A_2 La1_2 1_555 1_555
O12A C11A 1_555 1_555
O12_2 La2 1_555 1_555
O12A_2 La2A 1_555 1_555
O13A La1 1_555 1_555
O13A_2 La1_2 1_555 1_555
O14A La2A_5 1_555 1_555
O14_2 La2 1_555 1_555
O14A_2 La2A 1_555 1_555
O15A La2A_2 1_555 1_555
O15A_2 La2A 1_555 1_555
O16A La2 1_555 1_555
O16_2 La2A 1_555 1_555
O17A La2A_3 1_555 1_555
O17A_2 La2A 1_555 1_555
O18A La2 1_555 1_555
O18_2 La2A 1_555 1_555
O19_2 La1_2 1_555 1_555
H3_2 O19_2 1_555 1_555
H4_2 O19_2 1_555 1_555
N1_2 H11_2 1_555 1_555
N2_2 H12_2 1_555 1_555
C1_2 P1_2 1_555 1_555
H13_2 C1_2 1_555 1_555
H14_2 C1_2 1_555 1_555
C2_2 P2_2 1_555 1_555
H15_2 C2_2 1_555 1_555
H16_2 C2_2 1_555 1_555
C3_2 N1_2 1_555 1_555
H17_2 C3_2 1_555 1_555
H18_2 C3_2 1_555 1_555
C4_2 C3_2 1_555 1_555
C5_2 C4_2 1_555 1_555
H19_2 C5_2 1_555 1_555
C6_2 C5_2 1_555 1_555
H20_2 C6_2 1_555 1_555
C7_2 N2_2 1_555 1_555
H21_2 C7_2 1_555 1_555
C8_2 N2_2 1_555 1_555
H22_2 C8_2 1_555 1_555
C9_2 O7_2 1_555 1_555
C10_2 O9_2 1_555 1_555
C11A O11A 1_555 1_555
C12A O13A 1_555 1_555
C13A C13 1_555 1_555
C14A C14 1_555 1_555
O10 C10 1_555 1_555
O11 La1A 1_555 1_555
O13 La1A 1_555 1_555
O14 La2_2 1_555 1_555
N1 C1 1_555 1_555
N1 C2 1_555 1_555
C4 C8 1_555 1_555
C6 C7 1_555 1_555
C9 C10 1_555 1_555
La1A O11A 1_555 1_555
La1A_2 O11_2 1_555 1_555
La1A_2 O11A_2 1_555 1_555
P2_2 O5_2 1_555 1_555
O10_2 C10_2 1_555 1_555
O14A C12A 1_555 1_555
O15A C13A 1_555 1_555
O16A C13A 1_555 1_555
O17A C14A 1_555 1_555
O18A C14A 1_555 1_555
N1_2 C1_2 1_555 1_555
N1_2 C2_2 1_555 1_555
C4_2 C8_2 1_555 1_555
C6_2 C7_2 1_555 1_555
C9_2 C10_2 1_555 1_555
C11A C12A 1_555 1_555

#END
