
#######################################################################
#
#                 Cambridge Crystallographic Data Centre
#                                CCDC 
#
#######################################################################
#
# If this CIF has been generated from an entry in the Cambridge 
# Structural Database, then it will include bibliographic, chemical, 
# crystal, experimental, refinement or atomic coordinate data resulting 
# from the CCDC's data processing and validation procedures.
#
#######################################################################

data_QUVDER
_symmetry_cell_setting           triclinic
_symmetry_space_group_name_H-M   'P -1'
_symmetry_Int_Tables_number      2
_space_group_name_Hall           '-P 1'
loop_
_symmetry_equiv_pos_site_id
_symmetry_equiv_pos_as_xyz
1 x,y,z
2 -x,-y,-z
_cell_length_a                   10.452(2)
_cell_length_b                   11.491(3)
_cell_length_c                   11.901(5)
_cell_angle_alpha                105.016(4)
_cell_angle_beta                 102.094(4)
_cell_angle_gamma                108.579(3)
_cell_volume                     1240.23
loop_
_atom_site_label
_atom_site_type_symbol
_atom_site_fract_x
_atom_site_fract_y
_atom_site_fract_z
O20 O 0.5920(6) 0.2461(6) 0.2396(6)
H5 H 0.5367 0.2809 0.2142
H6 H 0.5520 0.1633 0.2041
O21 O 0.9035(14) 0.2498(11) 0.4600(13)
H7 H 0.8346 0.2711 0.4694
H8 H 0.8747 0.1668 0.4334
O22 O 0.1897(16) 0.5662(12) 0.5689(11)
H9 H 0.1512 0.6096 0.5366
H10 H 0.1270 0.4910 0.5549
Eu1 Eu 1.10396(4) 0.43903(4) 0.13067(3)
Eu2 Eu 1.25001(3) 0.05971(3) -0.61818(3)
P1 P 1.23046(18) 0.52324(18) -0.11092(16)
P2 P 1.53797(18) 0.37511(17) -0.37315(16)
O1 O 1.2355(5) 0.4758(5) -0.0033(4)
O2 O 1.1157(5) 0.5703(5) -0.1495(5)
O3 O 1.3813(5) 0.6324(5) -0.0818(4)
H1 H 1.3798 0.6649 -0.1356
O4 O 1.5905(5) 0.4637(5) -0.4449(5)
O5 O 1.6674(5) 0.3864(5) -0.2746(4)
O6 O 1.4410(5) 0.2378(4) -0.4482(4)
O7 O 1.3377(5) 0.2165(4) 0.2810(4)
O8 O 1.2719(5) 0.3336(4) 0.1731(4)
O9 O 1.1181(5) 0.1991(5) 0.3665(5)
O10 O 1.0719(5) 0.3378(5) 0.2805(4)
O11 O 1.3322(5) -0.0419(4) -0.4813(4)
O12 O 1.5305(5) -0.0420(5) -0.3680(4)
O13 O 1.1731(5) 0.1163(4) -0.4339(4)
O14 O 0.9912(5) 0.0810(5) -0.3587(4)
O15 O 0.9904(5) 0.2085(5) 0.0126(4)
O16 O 0.8683(6) 0.0378(5) -0.1615(5)
O17 O 0.9218(5) 0.3671(5) -0.0931(4)
O18 O 0.7941(8) 0.1926(6) -0.2665(5)
O19 O 1.1050(17) 0.5978(16) 0.3438(13)
H3 H 1.556(16) 0.515(19) -0.450(14)
N1 N 1.3320(5) 0.3535(5) -0.2551(5)
H11 H 1.2957 0.2743 -0.3168
N2 N 1.3537(8) -0.0123(7) -0.1959(7)
H12 H 1.3887 -0.0660 -0.2278
C1 C 1.2070(7) 0.3876(7) -0.2443(6)
H13 H 1.1722 0.4065 -0.3168
H14 H 1.1323 0.3099 -0.2468
C2 C 1.4326(7) 0.4472(7) -0.2957(7)
H15 H 1.3784 0.4760 -0.3510
H16 H 1.4967 0.5238 -0.2246
C3 C 1.4122(7) 0.3352(7) -0.1429(6)
H17 H 1.4098 0.3945 -0.0695
H18 H 1.5111 0.3580 -0.1393
C4 C 1.3509(7) 0.1976(7) -0.1445(6)
C5 C 1.4038(9) 0.1087(8) -0.1958(7)
H19 H 1.4752 0.1341 -0.2304
C6 C 1.2488(10) -0.0551(9) -0.1476(9)
H20 H 1.2142 -0.1417 -0.1510
C7 C 1.1946(10) 0.0298(8) -0.0939(8)
H21 H 1.1235 0.0025 -0.0595
C8 C 1.2477(9) 0.1577(8) -0.0917(7)
H22 H 1.2131 0.2171 -0.0541
C9 C 1.2600(6) 0.2739(6) 0.2467(6)
C10 C 1.1390(7) 0.2696(7) 0.3025(6)
C11 C 1.4585(7) -0.0252(6) -0.4560(6)
C12 C 1.0466(7) 0.0564(6) -0.4410(6)
C13 C 0.9128(7) 0.1567(7) -0.0969(6)
C14 C 0.8711(7) 0.2464(7) -0.1579(6)
C11A C 1.5415(7) 0.0252(6) -0.5440(6)
O11A O 1.6678(5) 0.0419(4) -0.5187(4)
O12A O 1.4695(5) 0.0420(5) -0.6320(4)
C12A C 0.9534(7) -0.0564(6) -0.5590(6)
O13A O 0.8269(5) -0.1163(4) -0.5661(4)
O14A O 1.0088(5) -0.0810(5) -0.6413(4)
P1A P 0.76954(18) 0.47676(18) 0.11092(16)
P2A P 0.46203(18) 0.62489(17) 0.37315(16)
O1A O 0.7645(5) 0.5242(5) 0.0033(4)
O2A O 0.8843(5) 0.4297(5) 0.1495(5)
O3A O 0.6187(5) 0.3676(5) 0.0818(4)
H1A H 0.6202 0.3351 0.1356
O4A O 0.4095(5) 0.5363(5) 0.4449(5)
O5A O 0.3326(5) 0.6136(5) 0.2746(4)
O6A O 0.5590(5) 0.7622(4) 0.4482(4)
H3A H 0.444(16) 0.485(19) 0.450(14)
N1A N 0.6680(5) 0.6465(5) 0.2551(5)
H11A H 0.7043 0.7257 0.3168
N2A N 0.6463(8) 1.0123(7) 0.1959(7)
H12A H 0.6113 1.0660 0.2278
C1A C 0.7930(7) 0.6124(7) 0.2443(6)
H13A H 0.8278 0.5935 0.3168
H14A H 0.8677 0.6901 0.2468
C2A C 0.5674(7) 0.5528(7) 0.2957(7)
H15A H 0.6216 0.5240 0.3510
H16A H 0.5033 0.4762 0.2246
C3A C 0.5878(7) 0.6648(7) 0.1429(6)
H17A H 0.5902 0.6055 0.0695
H18A H 0.4889 0.6420 0.1393
C4A C 0.6491(7) 0.8024(7) 0.1445(6)
C5A C 0.5962(9) 0.8913(8) 0.1958(7)
H19A H 0.5248 0.8659 0.2304
C6A C 0.7512(10) 1.0551(9) 0.1476(9)
H20A H 0.7858 1.1417 0.1510
C7A C 0.8054(10) 0.9702(8) 0.0939(8)
H21A H 0.8765 0.9975 0.0595
C8A C 0.7523(9) 0.8423(8) 0.0917(7)
H22A H 0.7869 0.7829 0.0541
O15A O 1.0096(5) 0.7915(5) -0.0126(4)
O16A O 1.1317(6) 0.9622(5) 0.1615(5)
O17A O 1.0782(5) 0.6329(5) 0.0931(4)
O18A O 1.2059(8) 0.8074(6) 0.2665(5)
C13A C 1.0872(7) 0.8433(7) 0.0969(6)
C14A C 1.1289(7) 0.7536(7) 0.1579(6)
Eu1A Eu 0.89604(4) 0.56097(4) -0.13067(3)
Eu2A Eu 0.74999(3) 0.94029(3) 0.61818(3)
O7_2 O 1.3377(5) 0.2165(4) -0.7190(4)
O8_2 O 1.2719(5) 0.3336(4) -0.8269(4)
O9_2 O 1.1181(5) 0.1991(5) -0.6335(5)
O10_2 O 1.0719(5) 0.3378(5) -0.7195(4)
C9_2 C 1.2600(6) 0.2739(6) -0.7533(6)
C10_2 C 1.1390(7) 0.2696(7) -0.6975(6)
O19A O 0.8950(17) 0.4022(16) -0.3438(13)
O5A_2 O 1.3326(5) 0.6136(5) 0.2746(4)
O16A_2 O 1.1317(6) -0.0378(5) -0.8385(5)
O18A_2 O 1.2059(8) -0.1926(6) -0.7335(5)
Eu1A_2 Eu 1.89604(4) 0.56097(4) -0.13067(3)
Eu2_2 Eu 1.25001(3) 0.05971(3) 0.38182(3)
Eu2A_2 Eu 1.74999(3) -0.05971(3) -0.38182(3)
Eu2A_3 Eu 0.74999(3) -0.05971(3) -0.38182(3)
Eu1_2 Eu 0.10396(4) 0.43903(4) 0.13067(3)
Eu2_3 Eu 1.25001(3) 1.05971(3) 0.38182(3)
O8A O 0.7281(5) 0.6664(4) -0.1731(4)
O10A O 0.9281(5) 0.6622(5) -0.2805(4)
O5_2 O 0.6674(5) 0.3864(5) -0.2746(4)
O11A_2 O 0.6678(5) 1.0419(4) 0.4813(4)
O13A_2 O 0.8269(5) 0.8837(4) 0.4339(4)
O7A O 0.6623(5) 0.7835(4) 0.7190(4)
O12_2 O 0.5305(5) 0.9580(5) 0.6320(4)
O14_2 O 0.9912(5) 1.0810(5) 0.6413(4)
O16_2 O 0.8683(6) 1.0378(5) 0.8385(5)
O9A O 0.8819(5) 0.8009(5) 0.6335(5)
O18_2 O 0.7941(8) 1.1926(6) 0.7335(5)
Eu1_3 Eu 1.10396(4) 0.43903(4) -0.86933(3)
H2? H 0.2663 0.6087 0.3023
H4? H 1.307(17) 0.933(18) 0.145(16)
loop_
_geom_bond_atom_site_label_1
_geom_bond_atom_site_label_2
_geom_bond_site_symmetry_1
_geom_bond_site_symmetry_2
Eu1 O1 1_555 1_555
Eu2 O6 1_555 1_555
P1 O1 1_555 1_555
P2 O4 1_555 1_555
O2 P1 1_555 1_555
O3 P1 1_555 1_555
H1 O3 1_555 1_555
O4 H3 1_555 1_555
O5 P2 1_555 1_555
O6 P2 1_555 1_555
O7 C9 1_555 1_555
O8 Eu1 1_555 1_555
O9 C10 1_555 1_555
O10 Eu1 1_555 1_555
O11 Eu2 1_555 1_555
O12 C11 1_555 1_555
O13 Eu2 1_555 1_555
O14 C12 1_555 1_555
O15 Eu1 1_555 1_555
O16 C13 1_555 1_555
O17 Eu1 1_555 1_555
O18 C14 1_555 1_555
O19 Eu1 1_555 1_555
O20 H5 1_555 1_555
H6 O20 1_555 1_555
O21 H7 1_555 1_555
H8 O21 1_555 1_555
O22 H9 1_555 1_555
H10 O22 1_555 1_555
N1 H11 1_555 1_555
N2 H12 1_555 1_555
C1 P1 1_555 1_555
H13 C1 1_555 1_555
H14 C1 1_555 1_555
C2 P2 1_555 1_555
H15 C2 1_555 1_555
H16 C2 1_555 1_555
C3 N1 1_555 1_555
H17 C3 1_555 1_555
H18 C3 1_555 1_555
C4 C3 1_555 1_555
C5 N2 1_555 1_555
H19 C5 1_555 1_555
C6 N2 1_555 1_555
H20 C6 1_555 1_555
C7 C6 1_555 1_555
H21 C7 1_555 1_555
C8 C4 1_555 1_555
H22 C8 1_555 1_555
C9 O8 1_555 1_555
C10 O10 1_555 1_555
C11 O11 1_555 1_555
C12 O13 1_555 1_555
C13 O15 1_555 1_555
C14 O17 1_555 1_555
C11A C11 1_555 1_555
O11A C11A 1_555 1_555
O12A Eu2 1_555 1_555
C12A C12 1_555 1_555
O13A C12A 1_555 1_555
O14A Eu2 1_555 1_555
P1A O1A 1_555 1_555
P2A O4A 1_555 1_555
O1A Eu1A 1_555 1_555
O2A Eu1 1_555 1_555
O3A P1A 1_555 1_555
H1A O3A 1_555 1_555
O4A H3A 1_555 1_555
O5A P2A 1_555 1_555
O6A P2A 1_555 1_555
N1A H11A 1_555 1_555
N2A H12A 1_555 1_555
C1A P1A 1_555 1_555
H13A C1A 1_555 1_555
H14A C1A 1_555 1_555
C2A P2A 1_555 1_555
H15A C2A 1_555 1_555
H16A C2A 1_555 1_555
C3A N1A 1_555 1_555
H17A C3A 1_555 1_555
H18A C3A 1_555 1_555
C4A C3A 1_555 1_555
C5A N2A 1_555 1_555
H19A C5A 1_555 1_555
C6A N2A 1_555 1_555
H20A C6A 1_555 1_555
C7A C6A 1_555 1_555
H21A C7A 1_555 1_555
C8A C4A 1_555 1_555
H22A C8A 1_555 1_555
O15A C13A 1_555 1_555
O16A C13A 1_555 1_555
O17A Eu1 1_555 1_555
O18A C14A 1_555 1_555
C13A C14A 1_555 1_555
C14A O17A 1_555 1_555
Eu1A O2 1_555 1_555
Eu2A O6A 1_555 1_555
O7_2 Eu2 1_555 1_555
O8_2 C9_2 1_555 1_555
O9_2 Eu2 1_555 1_555
O10_2 C10_2 1_555 1_555
C9_2 O7_2 1_555 1_555
C10_2 O9_2 1_555 1_555
O19A Eu1A 1_555 1_555
O5A_2 Eu1 1_555 1_555
O16A_2 Eu2 1_555 1_555
O18A_2 Eu2 1_555 1_555
Eu1A_2 O5 1_555 1_555
Eu2_2 O7 1_555 1_555
Eu2A_2 O12 1_555 1_555
Eu2A_3 O14 1_555 1_555
Eu1_2 O5A 1_555 1_555
Eu2_3 O16A 1_555 1_555
O8A Eu1A 1_555 1_555
O10A Eu1A 1_555 1_555
O5_2 Eu1A 1_555 1_555
O11A_2 Eu2A 1_555 1_555
O13A_2 Eu2A 1_555 1_555
O7A Eu2A 1_555 1_555
O12_2 Eu2A 1_555 1_555
O14_2 Eu2A 1_555 1_555
O16_2 Eu2A 1_555 1_555
O9A Eu2A 1_555 1_555
O18_2 Eu2A 1_555 1_555
Eu1_3 O8_2 1_555 1_555
O9 Eu2_2 1_555 1_555
O16 Eu2A_3 1_555 1_555
O17 Eu1A 1_555 1_555
O18 Eu2A_3 1_555 1_555
N1 C1 1_555 1_555
N1 C2 1_555 1_555
C4 C5 1_555 1_555
C7 C8 1_555 1_555
C9 C10 1_555 1_555
C13 C14 1_555 1_555
C11A O12A 1_555 1_555
O11A Eu2A_2 1_555 1_555
C12A O14A 1_555 1_555
O13A Eu2A_3 1_555 1_555
P1A O2A 1_555 1_555
N1A C1A 1_555 1_555
N1A C2A 1_555 1_555
C4A C5A 1_555 1_555
C7A C8A 1_555 1_555
O15A Eu1A 1_555 1_555
O17A Eu1A 1_555 1_555
O18A Eu2_3 1_555 1_555
O10_2 Eu1_3 1_555 1_555
C9_2 C10_2 1_555 1_555

#END
