
#######################################################################
#
#                 Cambridge Crystallographic Data Centre
#                                CCDC 
#
#######################################################################
#
# If this CIF has been generated from an entry in the Cambridge 
# Structural Database, then it will include bibliographic, chemical, 
# crystal, experimental, refinement or atomic coordinate data resulting 
# from the CCDC's data processing and validation procedures.
#
#######################################################################

data_QUVDUH
_symmetry_cell_setting           orthorhombic
_symmetry_space_group_name_H-M   'P 21 21 21'
_symmetry_Int_Tables_number      19
_space_group_name_Hall           'P 2ac 2ab'
loop_
_symmetry_equiv_pos_site_id
_symmetry_equiv_pos_as_xyz
1 x,y,z
2 1/2-x,-y,1/2+z
3 -x,1/2+y,1/2-z
4 1/2+x,1/2-y,-z
_cell_length_a                   11.358(4)
_cell_length_b                   14.829(5)
_cell_length_c                   16.325(6)
_cell_angle_alpha                90
_cell_angle_beta                 90
_cell_angle_gamma                90
_cell_volume                     2749.58
loop_
_atom_site_label
_atom_site_type_symbol
_atom_site_fract_x
_atom_site_fract_y
_atom_site_fract_z
Y1 Y 0.72445(10) 0.25503(6) 0.56866(5)
Y2 Y 0.76720(10) 0.19497(6) -0.05452(6)
P1 P 0.7434(3) 0.18226(19) 0.16747(17)
P2 P 0.6786(3) 0.0518(2) 0.45313(18)
O1 O 0.8229(11) 0.2393(6) 0.2179(6)
O2 O 0.7729(9) 0.1708(6) 0.0797(5)
O3 O 0.6105(10) 0.2104(8) 0.1709(7)
H1 H 0.6025 0.2526 0.2028
O4 O 0.7354(8) -0.0397(5) 0.4501(4)
O5 O 0.7319(10) 0.1157(5) 0.5125(5)
O6 O 0.5456(9) 0.0477(8) 0.4698(7)
H2 H 0.5232 -0.0047 0.4671
O7 O 0.6065(7) 0.2744(6) 0.4493(5)
O8 O 0.4225(7) 0.2652(8) 0.4008(5)
O9 O 0.3453(7) 0.2217(7) 0.5480(5)
O10 O 0.5258(7) 0.2372(7) 0.6008(5)
O11 O 0.7224(9) 0.1501(5) 0.6781(5)
O12 O 0.7401(8) 0.1305(5) 0.8135(4)
O13 O 0.7738(9) 0.3030(5) 0.8348(4)
O14 O 0.7507(8) 0.3268(5) 0.6993(5)
O15 O 0.4692(7) 0.3494(6) 0.0488(6)
O16 O 0.6425(7) 0.3156(6) -0.0068(5)
O17 O 0.5657(7) 0.1529(5) -0.0432(6)
O18 O 0.3934(7) 0.1841(6) 0.0132(5)
O19 O 0.6875(11) 0.4091(8) 0.5514(7)
H3 H 0.7444 0.4328 0.5254
H4 H 0.6820 0.4347 0.5979
N1 N 0.7728(11) 0.0532(6) 0.2958(5)
H9 H 0.7636 -0.0067 0.3059
N2 N 1.1044(11) -0.1011(7) 0.2430(8)
H10 H 1.1294 -0.1529 0.2593
C1 C 0.7436(10) 0.0673(7) 0.2061(6)
H11 H 0.6663 0.0417 0.1961
H12 H 0.7996 0.0328 0.1740
C2 C 0.6866(12) 0.1008(9) 0.3484(7)
H13 H 0.6094 0.0976 0.3231
H14 H 0.7085 0.1638 0.3523
C3 C 0.8977(12) 0.0762(9) 0.3189(8)
H15 H 0.9086 0.1409 0.3142
H16 H 0.9107 0.0597 0.3757
C4 C 0.9875(12) 0.0298(8) 0.2668(8)
C5 C 1.0268(13) 0.0646(11) 0.1963(9)
H17 H 1.0028 0.1218 0.1801
C6 C 1.1060(16) 0.0135(11) 0.1456(10)
H18 H 1.1300 0.0363 0.0952
C7 C 1.1452(13) -0.0670(10) 0.1711(10)
H19 H 1.1996 -0.0991 0.1400
C8 C 1.0242(12) -0.0551(10) 0.2906(9)
H20 H 0.9950 -0.0810 0.3383
C9 C 0.4981(10) 0.2603(8) 0.4566(7)
C10 C 0.4495(10) 0.2368(10) 0.5410(8)
C11 C 0.7382(10) 0.1761(7) 0.7496(6)
C12 C 0.7536(10) 0.2774(7) 0.7629(6)
C13 C 0.5416(12) 0.2974(9) 0.0122(7)
C14 C 0.4942(10) 0.2026(8) -0.0085(7)
Y1C Y 0.22445(10) 0.24497(6) 0.43134(5)
Y2_2 Y 0.76720(10) 0.19497(6) 0.94548(6)
Y2A Y 0.73280(10) -0.19497(6) 0.44548(6)
Y2C Y 0.26720(10) 0.30503(6) 0.05452(6)
O4A O 0.7646(8) 0.0397(5) -0.0499(4)
O8C O 0.9225(7) 0.2348(8) 0.5992(5)
O9C O 0.8453(7) 0.2783(7) 0.4520(5)
O12_2 O 0.7401(8) 0.1305(5) -0.1865(4)
O13_2 O 0.7738(9) 0.3030(5) -0.1652(4)
O15C O 0.9692(7) 0.1506(6) -0.0488(6)
O18C O 0.8934(7) 0.3159(6) -0.0132(5)
O20 O 0.5303(14) 0.3346(11) 0.2606(10)
H5 H 0.5378 0.2898 0.2286
H6 H 0.4578 0.3472 0.2662
O21 O 0.5459(15) 0.9796(9) 0.0473(11)
H7 H 0.5355 0.9602 -0.0013
H8 H 0.4853 1.0086 0.0627
loop_
_geom_bond_atom_site_label_1
_geom_bond_atom_site_label_2
_geom_bond_site_symmetry_1
_geom_bond_site_symmetry_2
Y1 O5 1_555 1_555
Y2 O2 1_555 1_555
P1 O1 1_555 1_555
P2 O4 1_555 1_555
O2 P1 1_555 1_555
O3 P1 1_555 1_555
H1 O3 1_555 1_555
O4 Y2A 1_555 1_555
O5 P2 1_555 1_555
O6 P2 1_555 1_555
H2 O6 1_555 1_555
O7 Y1 1_555 1_555
O8 C9 1_555 1_555
O9 C10 1_555 1_555
O10 Y1 1_555 1_555
O11 Y1 1_555 1_555
O12 C11 1_555 1_555
O13 C12 1_555 1_555
O14 Y1 1_555 1_555
O15 C13 1_555 1_555
O16 Y2 1_555 1_555
O17 Y2 1_555 1_555
O18 C14 1_555 1_555
O19 Y1 1_555 1_555
H3 O19 1_555 1_555
H4 O19 1_555 1_555
O20 H5 1_555 1_555
H6 O20 1_555 1_555
O21 H7 1_555 1_555
H8 O21 1_555 1_555
N1 H9 1_555 1_555
N2 H10 1_555 1_555
C1 P1 1_555 1_555
H11 C1 1_555 1_555
H12 C1 1_555 1_555
C2 P2 1_555 1_555
H13 C2 1_555 1_555
H14 C2 1_555 1_555
C3 N1 1_555 1_555
H15 C3 1_555 1_555
H16 C3 1_555 1_555
C4 C3 1_555 1_555
C5 C4 1_555 1_555
H17 C5 1_555 1_555
C6 C5 1_555 1_555
H18 C6 1_555 1_555
C7 N2 1_555 1_555
H19 C7 1_555 1_555
C8 N2 1_555 1_555
H20 C8 1_555 1_555
C9 O7 1_555 1_555
C10 O10 1_555 1_555
C11 O11 1_555 1_555
C12 O14 1_555 1_555
C13 O16 1_555 1_555
C14 O17 1_555 1_555
Y1C O8 1_555 1_555
Y2_2 O12 1_555 1_555
Y2C O15 1_555 1_555
O4A Y2 1_555 1_555
O8C Y1 1_555 1_555
O9C Y1 1_555 1_555
O12_2 Y2 1_555 1_555
O13_2 Y2 1_555 1_555
O15C Y2 1_555 1_555
O18C Y2 1_555 1_555
O9 Y1C 1_555 1_555
O13 Y2_2 1_555 1_555
O18 Y2C 1_555 1_555
N1 C1 1_555 1_555
N1 C2 1_555 1_555
C4 C8 1_555 1_555
C6 C7 1_555 1_555
C9 C10 1_555 1_555
C11 C12 1_555 1_555
C13 C14 1_555 1_555

#END
