
#######################################################################
#
#                 Cambridge Crystallographic Data Centre
#                                CCDC 
#
#######################################################################
#
# If this CIF has been generated from an entry in the Cambridge 
# Structural Database, then it will include bibliographic, chemical, 
# crystal, experimental, refinement or atomic coordinate data resulting 
# from the CCDC's data processing and validation procedures.
#
#######################################################################

data_QUVFET
_symmetry_cell_setting           orthorhombic
_symmetry_space_group_name_H-M   'P 21 21 21'
_symmetry_Int_Tables_number      19
_space_group_name_Hall           'P 2ac 2ab'
loop_
_symmetry_equiv_pos_site_id
_symmetry_equiv_pos_as_xyz
1 x,y,z
2 1/2-x,-y,1/2+z
3 -x,1/2+y,1/2-z
4 1/2+x,1/2-y,-z
_cell_length_a                   11.2506(10)
_cell_length_b                   14.8354(14)
_cell_length_c                   16.1843(15)
_cell_angle_alpha                90
_cell_angle_beta                 90
_cell_angle_gamma                90
_cell_volume                     2701.28
loop_
_atom_site_label
_atom_site_type_symbol
_atom_site_fract_x
_atom_site_fract_y
_atom_site_fract_z
Lu1 Lu 0.72703(4) 0.25270(3) 0.56811(3)
Lu2 Lu 0.75691(4) 0.19535(3) -0.05502(3)
P1 P 0.7386(4) 0.1815(2) 0.16681(19)
P2 P 0.6878(3) 0.0495(2) 0.4548(2)
O1 O 0.8208(11) 0.2390(7) 0.2158(7)
O2 O 0.7634(10) 0.1722(6) 0.0786(5)
O3 O 0.6040(11) 0.2065(9) 0.1739(8)
H1 H 0.5960 0.2488 0.2059
O4 O 0.7458(9) -0.0406(5) 0.4519(5)
O5 O 0.7407(10) 0.1156(5) 0.5137(5)
O6 O 0.5542(11) 0.0412(8) 0.4744(8)
H2 H 0.5340 -0.0118 0.4713
O7 O 0.6113(7) 0.2687(7) 0.4488(7)
O8 O 0.4261(7) 0.2620(9) 0.3985(5)
O9 O 0.3476(7) 0.2208(7) 0.5487(6)
O10 O 0.5290(8) 0.2351(8) 0.6000(6)
O11 O 0.7246(10) 0.1501(5) 0.6771(5)
O12 O 0.7355(11) 0.1305(5) 0.8146(5)
O13 O 0.7663(10) 0.3021(6) 0.8351(5)
O14 O 0.7479(11) 0.3257(5) 0.6982(5)
O15 O 0.4576(7) 0.3479(6) 0.0505(7)
O16 O 0.6327(8) 0.3154(6) -0.0072(6)
O17 O 0.5570(7) 0.1522(6) -0.0447(7)
O18 O 0.3792(8) 0.1832(7) 0.0118(6)
O19 O 0.6872(12) 0.4047(7) 0.5490(7)
H3 H 0.7441 0.4284 0.5230
H4 H 0.6818 0.4302 0.5955
N1 N 0.7783(11) 0.0532(7) 0.2943(6)
H9 H 0.7726 -0.0070 0.3042
N2 N 1.1124(12) -0.1007(9) 0.2403(9)
H10 H 1.1371 -0.1521 0.2577
C1 C 0.7473(13) 0.0662(7) 0.2055(7)
H11 H 0.6722 0.0363 0.1949
H12 H 0.8073 0.0354 0.1730
C2 C 0.6911(14) 0.0971(10) 0.3492(7)
H13 H 0.6126 0.0914 0.3249
H14 H 0.7095 0.1609 0.3527
C3 C 0.9003(13) 0.0789(10) 0.3146(9)
H15 H 0.9147 0.0670 0.3727
H16 H 0.9101 0.1431 0.3055
C4 C 0.9927(13) 0.0272(9) 0.2625(9)
C5 C 1.0394(14) 0.0647(11) 0.1904(10)
H17 H 1.0172 0.1223 0.1737
C6 C 1.1169(19) 0.0162(14) 0.1451(12)
H18 H 1.1472 0.0405 0.0965
C7 C 1.1520(15) -0.0681(12) 0.1694(10)
H19 H 1.2030 -0.1019 0.1365
C8 C 1.0297(13) -0.0527(11) 0.2885(10)
H20 H 1.0004 -0.0771 0.3374
C9 C 0.5015(11) 0.2563(11) 0.4561(9)
C10 C 0.4542(10) 0.2338(9) 0.5433(8)
C11 C 0.7369(12) 0.1777(8) 0.7499(7)
C12 C 0.7519(12) 0.2767(8) 0.7635(8)
C13 C 0.5306(11) 0.2983(10) 0.0138(8)
C14 C 0.4846(11) 0.2042(12) -0.0060(9)
Lu1C Lu 0.22703(4) 0.24730(3) 0.43189(3)
Lu2_2 Lu 0.75691(4) 0.19535(3) 0.94498(3)
Lu2A Lu 0.74309(4) -0.19535(3) 0.44498(3)
Lu2C Lu 0.25691(4) 0.30465(3) 0.05502(3)
O4A O 0.7542(9) 0.0406(5) -0.0481(5)
O8C O 0.9261(7) 0.2380(9) 0.6015(5)
O9C O 0.8476(7) 0.2792(7) 0.4513(6)
O12_2 O 0.7355(11) 0.1305(5) -0.1854(5)
O13_2 O 0.7663(10) 0.3021(6) -0.1649(5)
O15C O 0.9576(7) 0.1521(6) -0.0505(7)
O18C O 0.8792(8) 0.3168(7) -0.0118(6)
O20 O 0.5352(16) 0.3454(12) 0.2624(10)
H5 H 0.5426 0.3005 0.2304
H6 H 0.4627 0.3579 0.2680
O21 O 0.5227(13) 0.9765(10) 0.0434(12)
H7 H 0.5123 0.9572 -0.0051
H8 H 0.4621 1.0056 0.0588
loop_
_geom_bond_atom_site_label_1
_geom_bond_atom_site_label_2
_geom_bond_site_symmetry_1
_geom_bond_site_symmetry_2
Lu1 O5 1_555 1_555
Lu2 O2 1_555 1_555
P1 O1 1_555 1_555
P2 O4 1_555 1_555
O2 P1 1_555 1_555
O3 P1 1_555 1_555
H1 O3 1_555 1_555
O4 Lu2A 1_555 1_555
O5 P2 1_555 1_555
O6 P2 1_555 1_555
H2 O6 1_555 1_555
O7 Lu1 1_555 1_555
O8 C9 1_555 1_555
O9 C10 1_555 1_555
O10 Lu1 1_555 1_555
O11 Lu1 1_555 1_555
O12 C11 1_555 1_555
O13 C12 1_555 1_555
O14 Lu1 1_555 1_555
O15 C13 1_555 1_555
O16 Lu2 1_555 1_555
O17 Lu2 1_555 1_555
O18 C14 1_555 1_555
O19 Lu1 1_555 1_555
H3 O19 1_555 1_555
H4 O19 1_555 1_555
O20 H5 1_555 1_555
H6 O20 1_555 1_555
O21 H7 1_555 1_555
H8 O21 1_555 1_555
N1 H9 1_555 1_555
N2 H10 1_555 1_555
C1 P1 1_555 1_555
H11 C1 1_555 1_555
H12 C1 1_555 1_555
C2 P2 1_555 1_555
H13 C2 1_555 1_555
H14 C2 1_555 1_555
C3 N1 1_555 1_555
H15 C3 1_555 1_555
H16 C3 1_555 1_555
C4 C3 1_555 1_555
C5 C4 1_555 1_555
H17 C5 1_555 1_555
C6 C5 1_555 1_555
H18 C6 1_555 1_555
C7 N2 1_555 1_555
H19 C7 1_555 1_555
C8 N2 1_555 1_555
H20 C8 1_555 1_555
C9 O7 1_555 1_555
C10 O10 1_555 1_555
C11 O11 1_555 1_555
C12 O14 1_555 1_555
C13 O16 1_555 1_555
C14 O17 1_555 1_555
Lu1C O8 1_555 1_555
Lu2_2 O12 1_555 1_555
Lu2C O15 1_555 1_555
O4A Lu2 1_555 1_555
O8C Lu1 1_555 1_555
O9C Lu1 1_555 1_555
O12_2 Lu2 1_555 1_555
O13_2 Lu2 1_555 1_555
O15C Lu2 1_555 1_555
O18C Lu2 1_555 1_555
O9 Lu1C 1_555 1_555
O13 Lu2_2 1_555 1_555
O18 Lu2C 1_555 1_555
N1 C1 1_555 1_555
N1 C2 1_555 1_555
C4 C8 1_555 1_555
C6 C7 1_555 1_555
C9 C10 1_555 1_555
C11 C12 1_555 1_555
C13 C14 1_555 1_555

#END
