
#######################################################################
#
#                 Cambridge Crystallographic Data Centre
#                                CCDC 
#
#######################################################################
#
# If this CIF has been generated from an entry in the Cambridge 
# Structural Database, then it will include bibliographic, chemical, 
# crystal, experimental, refinement or atomic coordinate data resulting 
# from the CCDC's data processing and validation procedures.
#
#######################################################################

data_QUVFAP
_symmetry_cell_setting           orthorhombic
_symmetry_space_group_name_H-M   'P 21 21 21'
_symmetry_Int_Tables_number      19
_space_group_name_Hall           'P 2ac 2ab'
loop_
_symmetry_equiv_pos_site_id
_symmetry_equiv_pos_as_xyz
1 x,y,z
2 1/2-x,-y,1/2+z
3 -x,1/2+y,1/2-z
4 1/2+x,1/2-y,-z
_cell_length_a                   11.3656(8)
_cell_length_b                   14.8449(11)
_cell_length_c                   16.3071(12)
_cell_angle_alpha                90
_cell_angle_beta                 90
_cell_angle_gamma                90
_cell_volume                     2751.35
loop_
_atom_site_label
_atom_site_type_symbol
_atom_site_fract_x
_atom_site_fract_y
_atom_site_fract_z
Er1 Er 0.72355(4) 0.25482(3) 0.56867(3)
Er2 Er 0.76594(5) 0.19508(3) -0.05490(3)
P1 P 0.7423(3) 0.1821(2) 0.16719(16)
P2 P 0.6795(3) 0.0517(2) 0.45328(18)
O1 O 0.8217(10) 0.2382(7) 0.2169(6)
O2 O 0.7705(9) 0.1707(6) 0.0795(5)
O3 O 0.6099(10) 0.2100(8) 0.1709(7)
H1 H 0.6019 0.2522 0.2028
O4 O 0.7366(7) -0.0393(5) 0.4502(4)
O5 O 0.7311(11) 0.1159(5) 0.5131(5)
O6 O 0.5447(9) 0.0431(9) 0.4706(8)
H2 H 0.5251 -0.0099 0.4674
O7 O 0.6063(7) 0.2737(7) 0.4500(6)
O8 O 0.4224(7) 0.2647(8) 0.3997(5)
O9 O 0.3451(7) 0.2229(6) 0.5481(5)
O10 O 0.5254(8) 0.2366(7) 0.5994(5)
O11 O 0.7210(9) 0.1491(5) 0.6775(5)
O12 O 0.7382(9) 0.1306(5) 0.8138(4)
O13 O 0.7730(9) 0.3037(6) 0.8346(4)
O14 O 0.7495(8) 0.3267(5) 0.6988(4)
O15 O 0.4692(7) 0.3496(6) 0.0487(6)
O16 O 0.6411(8) 0.3166(6) -0.0068(5)
O17 O 0.5646(7) 0.1519(6) -0.0441(6)
O18 O 0.3902(7) 0.1841(6) 0.0132(5)
O19 O 0.6864(11) 0.4080(7) 0.5505(7)
H3 H 0.7433 0.4318 0.5245
H4 H 0.6810 0.4336 0.5970
N1 N 0.7757(10) 0.0541(6) 0.2956(5)
H9 H 0.7681 -0.0060 0.3052
N2 N 1.1043(11) -0.1002(8) 0.2419(8)
H10 H 1.1301 -0.1521 0.2569
C1 C 0.7469(10) 0.0682(8) 0.2064(6)
H11 H 0.6707 0.0410 0.1961
H12 H 0.8042 0.0351 0.1744
C2 C 0.6869(12) 0.0996(10) 0.3487(7)
H13 H 0.6101 0.0945 0.3232
H14 H 0.7061 0.1631 0.3525
C3 C 0.8964(12) 0.0776(9) 0.3179(8)
H15 H 0.9094 0.0627 0.3751
H16 H 0.9071 0.1421 0.3116
C4 C 0.9861(12) 0.0288(9) 0.2657(8)
C5 C 1.0287(12) 0.0634(11) 0.1950(8)
H17 H 1.0035 0.1198 0.1775
C6 C 1.1095(15) 0.0157(12) 0.1482(10)
H18 H 1.1408 0.0407 0.1007
C7 C 1.1407(15) -0.0648(12) 0.1720(9)
H19 H 1.1904 -0.0985 0.1386
C8 C 1.0256(12) -0.0550(10) 0.2907(9)
H20 H 0.9994 -0.0801 0.3397
C9 C 0.4981(10) 0.2599(9) 0.4575(7)
C10 C 0.4504(11) 0.2371(10) 0.5439(7)
C11 C 0.7378(11) 0.1773(7) 0.7488(7)
C12 C 0.7548(11) 0.2774(8) 0.7624(7)
C13 C 0.5393(11) 0.2993(9) 0.0143(7)
C14 C 0.4938(11) 0.2038(9) -0.0066(7)
Er1C Er 0.22355(4) 0.24518(3) 0.43133(3)
Er2_2 Er 0.76594(5) 0.19508(3) 0.94510(3)
Er2A Er 0.73406(5) -0.19508(3) 0.44510(3)
Er2C Er 0.26594(5) 0.30492(3) 0.05490(3)
O4A O 0.7634(7) 0.0393(5) -0.0498(4)
O8C O 0.9224(7) 0.2353(8) 0.6003(5)
O9C O 0.8451(7) 0.2771(6) 0.4519(5)
O12_2 O 0.7382(9) 0.1306(5) -0.1862(4)
O13_2 O 0.7730(9) 0.3037(6) -0.1654(4)
O15C O 0.9692(7) 0.1504(6) -0.0487(6)
O18C O 0.8902(7) 0.3159(6) -0.0132(5)
O20 O 0.5333(14) 0.3399(11) 0.2625(9)
H5 H 0.5408 0.2951 0.2305
H6 H 0.4608 0.3524 0.2681
O21 O 0.5392(16) 0.9785(9) 0.0449(11)
H7 H 0.5287 0.9592 -0.0036
H8 H 0.4786 1.0076 0.0603
loop_
_geom_bond_atom_site_label_1
_geom_bond_atom_site_label_2
_geom_bond_site_symmetry_1
_geom_bond_site_symmetry_2
Er1 O5 1_555 1_555
Er2 O2 1_555 1_555
P1 O1 1_555 1_555
P2 O4 1_555 1_555
O2 P1 1_555 1_555
O3 P1 1_555 1_555
H1 O3 1_555 1_555
O4 Er2A 1_555 1_555
O5 P2 1_555 1_555
O6 P2 1_555 1_555
H2 O6 1_555 1_555
O7 Er1 1_555 1_555
O8 C9 1_555 1_555
O9 C10 1_555 1_555
O10 Er1 1_555 1_555
O11 Er1 1_555 1_555
O12 C11 1_555 1_555
O13 C12 1_555 1_555
O14 Er1 1_555 1_555
O15 C13 1_555 1_555
O16 Er2 1_555 1_555
O17 Er2 1_555 1_555
O18 C14 1_555 1_555
O19 Er1 1_555 1_555
H3 O19 1_555 1_555
H4 O19 1_555 1_555
O20 H5 1_555 1_555
H6 O20 1_555 1_555
O21 H7 1_555 1_555
H8 O21 1_555 1_555
N1 H9 1_555 1_555
N2 H10 1_555 1_555
C1 P1 1_555 1_555
H11 C1 1_555 1_555
H12 C1 1_555 1_555
C2 P2 1_555 1_555
H13 C2 1_555 1_555
H14 C2 1_555 1_555
C3 N1 1_555 1_555
H15 C3 1_555 1_555
H16 C3 1_555 1_555
C4 C3 1_555 1_555
C5 C4 1_555 1_555
H17 C5 1_555 1_555
C6 C5 1_555 1_555
H18 C6 1_555 1_555
C7 N2 1_555 1_555
H19 C7 1_555 1_555
C8 N2 1_555 1_555
H20 C8 1_555 1_555
C9 O7 1_555 1_555
C10 O10 1_555 1_555
C11 O11 1_555 1_555
C12 O14 1_555 1_555
C13 O16 1_555 1_555
C14 O17 1_555 1_555
Er1C O8 1_555 1_555
Er2_2 O12 1_555 1_555
Er2C O15 1_555 1_555
O4A Er2 1_555 1_555
O8C Er1 1_555 1_555
O9C Er1 1_555 1_555
O12_2 Er2 1_555 1_555
O13_2 Er2 1_555 1_555
O15C Er2 1_555 1_555
O18C Er2 1_555 1_555
O9 Er1C 1_555 1_555
O13 Er2_2 1_555 1_555
O18 Er2C 1_555 1_555
N1 C1 1_555 1_555
N1 C2 1_555 1_555
C4 C8 1_555 1_555
C6 C7 1_555 1_555
C9 C10 1_555 1_555
C11 C12 1_555 1_555
C13 C14 1_555 1_555

#END
