
#######################################################################
#
#                 Cambridge Crystallographic Data Centre
#                                CCDC 
#
#######################################################################
#
# If this CIF has been generated from an entry in the Cambridge 
# Structural Database, then it will include bibliographic, chemical, 
# crystal, experimental, refinement or atomic coordinate data resulting 
# from the CCDC's data processing and validation procedures.
#
#######################################################################

data_QUVGAQ
_symmetry_cell_setting           monoclinic
_symmetry_space_group_name_H-M   'P c'
_symmetry_Int_Tables_number      7
_space_group_name_Hall           'P -2yc'
loop_
_symmetry_equiv_pos_site_id
_symmetry_equiv_pos_as_xyz
1 x,y,z
2 x,-y,1/2+z
_cell_length_a                   11.8553(12)
_cell_length_b                   16.4496(16)
_cell_length_c                   12.0020(13)
_cell_angle_alpha                90
_cell_angle_beta                 97.550(5)
_cell_angle_gamma                90
_cell_volume                     2320.28
loop_
_atom_site_label
_atom_site_type_symbol
_atom_site_fract_x
_atom_site_fract_y
_atom_site_fract_z
Ag1 Ag -0.33850(2) 1.174845(16) -0.93659(2)
Ag2 Ag -0.50960(2) 1.299083(19) -0.69261(2)
S1 S -0.48711(7) 1.25253(5) -1.06448(8)
S2 S -0.59225(8) 1.32354(5) -1.51525(8)
S3 S -0.24249(8) 0.95449(5) -0.48587(8)
S4 S -0.34172(8) 1.21149(5) -0.72758(8)
O1 O -0.8452(3) 1.33103(19) -1.3769(3)
O2 O -0.6787(2) 1.39757(17) -1.0700(2)
O3 O -0.1782(3) 1.19408(17) -0.4491(3)
O4 O 0.0289(3) 1.06375(18) -0.4255(3)
C1 C -0.8476(6) 1.3819(3) -1.2833(4)
H1 H -0.9191 1.4113 -1.2905
H2 H -0.7865 1.4214 -1.2804
C2 C -0.8347(4) 1.3343(3) -1.1794(4)
H3 H -0.7796 1.2915 -1.1858
H4 H -0.9069 1.3085 -1.1721
C3 C -0.7974(3) 1.3818(3) -1.0744(4)
H5 H -0.8393 1.4325 -1.0753
H6 H -0.8119 1.3508 -1.0089
C4 C -0.6207(3) 1.4159(2) -0.9676(3)
C5 C -0.6701(3) 1.4494(2) -0.8795(4)
H7 H -0.7474 1.4612 -0.8884
C6 C -0.6032(4) 1.4649(3) -0.7779(4)
H8 H -0.6363 1.4872 -0.7188
C7 C -0.4885(3) 1.4479(2) -0.7635(3)
H9 H -0.4403 1.4841 -0.7127
C8 C -0.4383(3) 1.4149(2) -0.8528(4)
H10 H -0.3606 1.4042 -0.8436
C9 C -0.5034(3) 1.3980(2) -0.9548(3)
C10 C -0.4509(3) 1.3607(2) -1.0496(3)
H11 H -0.3689 1.3668 -1.0356
H12 H -0.4779 1.3889 -1.1190
C11 C -0.4526(3) 1.2348(3) -1.2053(3)
H13 H -0.3777 1.2569 -1.2112
H14 H -0.4499 1.1767 -1.2186
C12 C -0.5391(4) 1.2736(3) -1.2956(4)
H15 H -0.6128 1.2482 -1.2945
H16 H -0.5467 1.3309 -1.2791
C13 C -0.5027(3) 1.2641(2) -1.4114(3)
H17 H -0.5071 1.2072 -1.4329
H18 H -0.4243 1.2815 -1.4092
C14 C -0.7250(3) 1.2646(2) -1.5363(4)
H19 H -0.7225 1.2251 -1.5960
H20 H -0.7357 1.2358 -1.4679
C15 C -0.8206(3) 1.3237(2) -1.5672(4)
C16 C -0.8540(4) 1.3452(3) -1.6800(4)
H21 H -0.8197 1.3203 -1.7365
C17 C -0.9382(4) 1.4037(3) -1.7077(4)
H22 H -0.9600 1.4181 -1.7824
C18 C -0.9889(3) 1.4401(3) -1.6229(4)
H23 H -1.0446 1.4795 -1.6410
C19 C -0.9579(4) 1.4187(3) -1.5118(4)
H24 H -0.9928 1.4436 -1.4558
C20 C -0.8747(3) 1.3600(2) -1.4834(4)
C21 C -0.1457(4) 1.1564(2) -0.3413(4)
H25 H -0.1602 1.0984 -0.3475
H26 H -0.1918 1.1784 -0.2874
C22 C -0.0209(4) 1.1705(2) -0.2990(4)
H27 H -0.0087 1.2280 -0.2841
H28 H -0.0015 1.1415 -0.2287
C23 C 0.0569(4) 1.1430(3) -0.3808(4)
H29 H 0.0529 1.1817 -0.4423
H30 H 0.1346 1.1426 -0.3434
C24 C 0.0396(4) 0.9992(2) -0.3511(4)
C25 C 0.1095(4) 0.9986(3) -0.2498(5)
H31 H 0.1527 1.0442 -0.2266
C26 C 0.1151(4) 0.9296(3) -0.1825(5)
H32 H 0.1623 0.9291 -0.1142
C27 C 0.0522(4) 0.8625(3) -0.2159(5)
H33 H 0.0552 0.8170 -0.1696
C28 C -0.0161(4) 0.8619(3) -0.3182(4)
H34 H -0.0578 0.8155 -0.3407
C29 C -0.0236(3) 0.9300(2) -0.3888(4)
C30 C -0.0954(3) 0.9294(2) -0.5016(4)
H35 H -0.0923 0.8761 -0.5356
H36 H -0.0660 0.9688 -0.5507
C31 C -0.3022(4) 0.9689(2) -0.6315(3)
H37 H -0.2732 0.9265 -0.6762
H38 H -0.3841 0.9622 -0.6375
C32 C -0.2769(4) 1.0511(2) -0.6816(4)
H39 H -0.1987 1.0660 -0.6558
H40 H -0.2851 1.0464 -0.7628
C33 C -0.3550(3) 1.1173(2) -0.6496(3)
H41 H -0.3377 1.1283 -0.5698
H42 H -0.4331 1.0984 -0.6638
C34 C -0.2083(3) 1.2569(2) -0.6630(3)
H43 H -0.1540 1.2138 -0.6417
H44 H -0.1779 1.2905 -0.7185
C35 C -0.2195(3) 1.3078(2) -0.5615(3)
C36 C -0.2464(3) 1.3903(2) -0.5732(4)
H45 H -0.2603 1.4128 -0.6448
C37 C -0.2528(4) 1.4395(3) -0.4799(4)
H46 H -0.2721 1.4941 -0.4891
C38 C -0.2299(4) 1.4063(3) -0.3728(4)
H47 H -0.2337 1.4389 -0.3101
C39 C -0.2015(3) 1.3249(2) -0.3590(4)
H48 H -0.1842 1.3032 -0.2872
C40 C -0.1987(3) 1.2755(2) -0.4534(4)
C41 C -0.6983(4) 1.1986(3) -0.8858(4)
C42 C -0.7689(5) 1.1513(4) -0.9706(5)
H49 H -0.8422 1.1765 -0.9870
H50 H -0.7779 1.0972 -0.9429
H51 H -0.7331 1.1488 -1.0378
N1 N -0.6437(3) 1.2378(3) -0.8214(4)
Ag1A Ag -0.33850(2) 0.825155(16) -0.43659(2)
Ag2_2 Ag -0.50960(2) 1.299083(19) -1.69261(2)
S2_2 S -0.59225(8) 1.32354(5) -0.51525(8)
S3A S -0.24249(8) 1.04551(5) -0.98587(8)
Cl1 Cl -0.12562(8) 1.32226(6) -1.01701(9)
O5 O -0.1489(5) 1.3915(2) -1.0874(4)
O6 O -0.1755(5) 1.2542(2) -1.0813(5)
O7 O -0.1821(4) 1.3278(4) -0.9206(4)
O8 O -0.0078(4) 1.3060(4) -0.9845(5)
Cl2 Cl -0.54699(12) 0.98161(10) -0.91984(16)
O9 O -0.4468(4) 0.9360(3) -0.8852(5)
O10 O -0.5698(12) 0.9768(16) -1.0306(11)
O11 O -0.6454(9) 0.9555(7) -0.8928(18)
O12 O -0.5283(6) 1.0615(3) -0.8953(12)
loop_
_geom_bond_atom_site_label_1
_geom_bond_atom_site_label_2
_geom_bond_site_symmetry_1
_geom_bond_site_symmetry_2
Ag1 S1 1_555 1_555
Ag2 S4 1_555 1_555
Cl1 O5 1_555 1_555
Cl2 O9 1_555 1_555
S1 C10 1_555 1_555
S2 C13 1_555 1_555
S3 C30 1_555 1_555
S4 Ag1 1_555 1_555
O1 C1 1_555 1_555
O2 C3 1_555 1_555
O3 C21 1_555 1_555
O4 C23 1_555 1_555
O6 Cl1 1_555 1_555
O7 Cl1 1_555 1_555
O8 Cl1 1_555 1_555
O10 Cl2 1_555 1_555
O11 Cl2 1_555 1_555
O12 Cl2 1_555 1_555
C1 H1 1_555 1_555
H2 C1 1_555 1_555
C2 C1 1_555 1_555
H3 C2 1_555 1_555
H4 C2 1_555 1_555
C3 C2 1_555 1_555
H5 C3 1_555 1_555
H6 C3 1_555 1_555
C4 O2 1_555 1_555
C5 C4 1_555 1_555
H7 C5 1_555 1_555
C6 C5 1_555 1_555
H8 C6 1_555 1_555
C7 Ag2 1_555 1_555
H9 C7 1_555 1_555
C8 C7 1_555 1_555
H10 C8 1_555 1_555
C9 C4 1_555 1_555
C10 C9 1_555 1_555
H11 C10 1_555 1_555
H12 C10 1_555 1_555
C11 S1 1_555 1_555
H13 C11 1_555 1_555
H14 C11 1_555 1_555
C12 C11 1_555 1_555
H15 C12 1_555 1_555
H16 C12 1_555 1_555
C13 C12 1_555 1_555
H17 C13 1_555 1_555
H18 C13 1_555 1_555
C14 S2 1_555 1_555
H19 C14 1_555 1_555
H20 C14 1_555 1_555
C15 C14 1_555 1_555
C16 C15 1_555 1_555
H21 C16 1_555 1_555
C17 C16 1_555 1_555
H22 C17 1_555 1_555
C18 C17 1_555 1_555
H23 C18 1_555 1_555
C19 C18 1_555 1_555
H24 C19 1_555 1_555
C20 O1 1_555 1_555
C21 H25 1_555 1_555
H26 C21 1_555 1_555
C22 C21 1_555 1_555
H27 C22 1_555 1_555
H28 C22 1_555 1_555
C23 C22 1_555 1_555
H29 C23 1_555 1_555
H30 C23 1_555 1_555
C24 O4 1_555 1_555
C25 C24 1_555 1_555
H31 C25 1_555 1_555
C26 C25 1_555 1_555
H32 C26 1_555 1_555
C27 C26 1_555 1_555
H33 C27 1_555 1_555
C28 C27 1_555 1_555
H34 C28 1_555 1_555
C29 C24 1_555 1_555
C30 C29 1_555 1_555
H35 C30 1_555 1_555
H36 C30 1_555 1_555
C31 S3 1_555 1_555
H37 C31 1_555 1_555
H38 C31 1_555 1_555
C32 C31 1_555 1_555
H39 C32 1_555 1_555
H40 C32 1_555 1_555
C33 S4 1_555 1_555
H41 C33 1_555 1_555
H42 C33 1_555 1_555
C34 S4 1_555 1_555
H43 C34 1_555 1_555
H44 C34 1_555 1_555
C35 C34 1_555 1_555
C36 C35 1_555 1_555
H45 C36 1_555 1_555
C37 C36 1_555 1_555
H46 C37 1_555 1_555
C38 C37 1_555 1_555
H47 C38 1_555 1_555
C39 C38 1_555 1_555
H48 C39 1_555 1_555
C40 O3 1_555 1_555
C41 C42 1_555 1_555
C42 H49 1_555 1_555
H50 C42 1_555 1_555
H51 C42 1_555 1_555
N1 Ag2 1_555 1_555
Ag1A S3 1_555 1_555
Ag2_2 S2 1_555 1_555
S2_2 Ag2 1_555 1_555
S3A Ag1 1_555 1_555
C6 C7 1_555 1_555
C8 C9 1_555 1_555
C15 C20 1_555 1_555
C19 C20 1_555 1_555
C28 C29 1_555 1_555
C32 C33 1_555 1_555
C35 C40 1_555 1_555
C39 C40 1_555 1_555
C41 N1 1_555 1_555

#END
