
#######################################################################
#
#                 Cambridge Crystallographic Data Centre
#                                CCDC 
#
#######################################################################
#
# If this CIF has been generated from an entry in the Cambridge 
# Structural Database, then it will include bibliographic, chemical, 
# crystal, experimental, refinement or atomic coordinate data resulting 
# from the CCDC's data processing and validation procedures.
#
#######################################################################

data_QUVGUK
_symmetry_cell_setting           tetragonal
_symmetry_space_group_name_H-M   'P -4'
_symmetry_Int_Tables_number      81
_space_group_name_Hall           'P -4'
loop_
_symmetry_equiv_pos_site_id
_symmetry_equiv_pos_as_xyz
1 x,y,z
2 -x,-y,z
3 y,-x,-z
4 -y,x,-z
_cell_length_a                   8.918(3)
_cell_length_b                   8.918(3)
_cell_length_c                   7.690(3)
_cell_angle_alpha                90
_cell_angle_beta                 90
_cell_angle_gamma                90
_cell_volume                     611.591
loop_
_atom_site_label
_atom_site_type_symbol
_atom_site_fract_x
_atom_site_fract_y
_atom_site_fract_z
C1 C 0.595(4) 0.002(2) 0.217(2)
H1 H 0.6364 -0.0978 0.2063
H2 H 0.6326 0.0647 0.1240
N1 N 0.628(2) 0.0656(12) 0.384(2)
H3 H 0.6214 0.1661 0.3759
H4 H 0.7227 0.0423 0.4123
Cd1 Cd 0.5000 -0.5000 1.0000
Co1 Co 0.5000 0.0000 0.5611(3)
O1 O 0.6178(9) -0.3889(9) 0.7387(11)
O2 O 0.6048(11) -0.1855(10) 0.5714(12)
O3 O 0.3724(10) -0.0837(9) 0.7374(13)
O4 O 0.3636(10) -0.2874(9) 0.9047(11)
C2 C 0.4205(12) -0.2112(13) 0.7888(15)
C3 C 0.5596(12) -0.2696(12) 0.6927(15)
C1A C 0.405(4) -0.002(2) 0.217(2)
C1C C -0.002(2) -0.405(4) 1.783(2)
C1B C 0.002(2) -0.595(4) 1.783(2)
H1A H 0.3636 0.0978 0.2063
H1C H 0.0978 -0.3636 1.7937
H1B H -0.0978 -0.6364 1.7937
H2A H 0.3674 -0.0647 0.1240
H2C H -0.0647 -0.3674 1.8760
H2B H 0.0647 -0.6326 1.8760
N1A N 0.372(2) -0.0656(12) 0.384(2)
N1C N -0.0656(12) -0.372(2) 1.616(2)
N1B N 0.0656(12) -0.628(2) 1.616(2)
H3A H 0.3786 -0.1661 0.3759
H3C H -0.1661 -0.3786 1.6241
H3B H 0.1661 -0.6214 1.6241
H4A H 0.2773 -0.0423 0.4123
H4C H -0.0423 -0.2773 1.5877
H4B H 0.0423 -0.7227 1.5877
Co1B Co 0.0000 -0.5000 1.4389(3)
Co1_2 Co 0.5000 -1.0000 0.5611(3)
Co1B_2 Co 1.0000 -0.5000 1.4389(3)
O1A O 0.3822(9) -0.6111(9) 0.7387(11)
O1B O 0.6111(9) -0.6178(9) 1.2613(11)
O1C O 0.3889(9) -0.3822(9) 1.2613(11)
O2A O 0.3952(11) -0.8145(10) 0.5714(12)
O2B O 0.8145(10) -0.6048(11) 1.4286(12)
O2C O 0.1855(10) -0.3952(11) 1.4286(12)
O2A_2 O 0.3952(11) 0.1855(10) 0.5714(12)
O2B_2 O -0.1855(10) -0.6048(11) 1.4286(12)
O3A O 0.6276(10) -0.9163(9) 0.7374(13)
O3B O 0.9163(9) -0.3724(10) 1.2626(13)
O3C O 0.0837(9) -0.6276(10) 1.2626(13)
O3A_2 O 0.6276(10) 0.0837(9) 0.7374(13)
O3B_2 O -0.0837(9) -0.3724(10) 1.2626(13)
O4A O 0.6364(10) -0.7126(9) 0.9047(11)
O4B O 0.7126(9) -0.3636(10) 1.0953(11)
O4C O 0.2874(9) -0.6364(10) 1.0953(11)
C2A C 0.5795(12) -0.7888(13) 0.7888(15)
C2B C 0.7888(13) -0.4205(12) 1.2112(15)
C2C C 0.2112(13) -0.5795(12) 1.2112(15)
C3A C 0.4404(12) -0.7304(12) 0.6927(15)
C3B C 0.7304(12) -0.5596(12) 1.3073(15)
C3C C 0.2696(12) -0.4404(12) 1.3073(15)
loop_
_geom_bond_atom_site_label_1
_geom_bond_atom_site_label_2
_geom_bond_site_symmetry_1
_geom_bond_site_symmetry_2
C1 H1 1_555 1_555
H2 C1 1_555 1_555
N1 C1 1_555 1_555
H3 N1 1_555 1_555
H4 N1 1_555 1_555
Cd1 O1 1_555 1_555
Co1 N1 1_555 1_555
O1 C3 1_555 1_555
O2 Co1 1_555 1_555
O3 Co1 1_555 1_555
O4 Cd1 1_555 1_555
C2 O3 1_555 1_555
C3 O2 1_555 1_555
C1A C1 1_555 1_555
C1C C1B 1_555 1_555
C1B H1B 1_555 1_555
H1A C1A 1_555 1_555
H1C C1C 1_555 1_555
H2A C1A 1_555 1_555
H2C C1C 1_555 1_555
H2B C1B 1_555 1_555
N1A Co1 1_555 1_555
N1C C1C 1_555 1_555
N1B C1B 1_555 1_555
H3A N1A 1_555 1_555
H3C N1C 1_555 1_555
H3B N1B 1_555 1_555
H4A N1A 1_555 1_555
H4C N1C 1_555 1_555
H4B N1B 1_555 1_555
Co1B N1C 1_555 1_555
Co1_2 O2A 1_555 1_555
Co1B_2 O2B 1_555 1_555
O1A Cd1 1_555 1_555
O1B Cd1 1_555 1_555
O1C Cd1 1_555 1_555
O2A C3A 1_555 1_555
O2B C3B 1_555 1_555
O2C Co1B 1_555 1_555
O2A_2 Co1 1_555 1_555
O2B_2 Co1B 1_555 1_555
O3A Co1_2 1_555 1_555
O3B Co1B_2 1_555 1_555
O3C Co1B 1_555 1_555
O3A_2 Co1 1_555 1_555
O3B_2 Co1B 1_555 1_555
O4A Cd1 1_555 1_555
O4B Cd1 1_555 1_555
O4C Cd1 1_555 1_555
C2A O3A 1_555 1_555
C2B O3B 1_555 1_555
C2C O3C 1_555 1_555
C3A O1A 1_555 1_555
C3B O1B 1_555 1_555
C3C O1C 1_555 1_555
O4 C2 1_555 1_555
C2 C3 1_555 1_555
C1A N1A 1_555 1_555
N1B Co1B 1_555 1_555
O2C C3C 1_555 1_555
O4A C2A 1_555 1_555
O4B C2B 1_555 1_555
O4C C2C 1_555 1_555
C2A C3A 1_555 1_555
C2B C3B 1_555 1_555
C2C C3C 1_555 1_555

#END
