
#######################################################################
#
#                 Cambridge Crystallographic Data Centre
#                                CCDC 
#
#######################################################################
#
# If this CIF has been generated from an entry in the Cambridge 
# Structural Database, then it will include bibliographic, chemical, 
# crystal, experimental, refinement or atomic coordinate data resulting 
# from the CCDC's data processing and validation procedures.
#
#######################################################################

data_QUVGEU
_symmetry_cell_setting           monoclinic
_symmetry_space_group_name_H-M   'P 21/c'
_symmetry_Int_Tables_number      14
_space_group_name_Hall           '-P 2ybc'
loop_
_symmetry_equiv_pos_site_id
_symmetry_equiv_pos_as_xyz
1 x,y,z
2 -x,1/2+y,1/2-z
3 -x,-y,-z
4 x,1/2-y,1/2+z
_cell_length_a                   9.3690(19)
_cell_length_b                   15.945(3)
_cell_length_c                   14.991(3)
_cell_angle_alpha                90
_cell_angle_beta                 92.51(3)
_cell_angle_gamma                90
_cell_volume                     2237.34
loop_
_atom_site_label
_atom_site_type_symbol
_atom_site_fract_x
_atom_site_fract_y
_atom_site_fract_z
Ag1 Ag 0.02822(3) 0.11102(2) 0.51382(2)
Cl1 Cl -0.30571(12) 0.03115(7) 0.44696(8)
S1 S -0.11444(11) 0.17464(6) 0.63218(7)
S2 S 0.12333(12) 0.32004(6) 0.88133(7)
O1 O 0.3488(3) 0.18752(19) 0.8133(2)
O2 O 0.0672(3) 0.0615(2) 0.8585(2)
O3 O -0.1508(3) 0.0119(2) 0.4417(2)
O4 O -0.3434(3) 0.0586(3) 0.5413(2)
O5 O -0.4091(4) -0.0313(3) 0.4102(3)
O6 O -0.3295(4) 0.1129(3) 0.3909(3)
C1 C 0.3182(5) 0.0504(3) 0.8726(3)
H1 H 0.3113 -0.0086 0.8573
H2 H 0.4011 0.0576 0.9130
C2 C 0.1870(5) 0.0754(3) 0.9201(3)
H3 H 0.1778 0.0418 0.9734
H4 H 0.1923 0.1341 0.9373
C3 C -0.0599(5) 0.0979(3) 0.8773(3)
C4 C -0.0969(5) 0.1218(3) 0.9628(3)
H5 H -0.0329 0.1133 1.0111
C5 C -0.2282(5) 0.1579(3) 0.9759(3)
H6 H -0.2527 0.1738 1.0330
C6 C -0.3242(5) 0.1706(3) 0.9034(3)
H7 H -0.4125 0.1953 0.9118
C7 C -0.2872(5) 0.1464(3) 0.8194(3)
H8 H -0.3523 0.1543 0.7715
C8 C -0.1573(5) 0.1108(2) 0.8042(3)
C9 C -0.1160(5) 0.0868(3) 0.7121(3)
H9 H -0.1821 0.0445 0.6890
H10 H -0.0216 0.0618 0.7161
C10 C 0.0062(5) 0.2478(3) 0.6908(3)
H11 H 0.0677 0.2171 0.7331
H12 H 0.0662 0.2746 0.6481
C11 C -0.0753(5) 0.3146(3) 0.7404(3)
H13 H -0.1354 0.3460 0.6979
H14 H -0.1370 0.2876 0.7821
C12 C 0.0239(5) 0.3746(3) 0.7909(3)
H15 H -0.0313 0.4198 0.8155
H16 H 0.0904 0.3987 0.7502
C13 C 0.3083(5) 0.3520(3) 0.8654(3)
H17 H 0.3168 0.4121 0.8740
H18 H 0.3706 0.3247 0.9099
C14 C 0.3551(5) 0.3298(3) 0.7743(3)
C15 C 0.3769(6) 0.3926(3) 0.7115(4)
H19 H 0.3695 0.4485 0.7283
C16 C 0.4094(6) 0.3733(4) 0.6252(4)
H20 H 0.4242 0.4158 0.5842
C17 C 0.4198(6) 0.2897(4) 0.5997(3)
H21 H 0.4410 0.2766 0.5413
C18 C 0.3987(5) 0.2257(3) 0.6605(3)
H22 H 0.4051 0.1699 0.6428
C19 C 0.3682(5) 0.2454(3) 0.7477(3)
C20 C 0.3402(5) 0.1008(3) 0.7879(4)
H23 H 0.4277 0.0835 0.7609
H24 H 0.2610 0.0919 0.7452
Ag1B Ag -0.02822(3) -0.11102(2) 0.48618(2)
Ag1A Ag -0.02822(3) -0.38898(2) -0.01382(2)
Ag1C Ag 0.02822(3) 0.38898(2) 1.01382(2)
Cl1B Cl 0.30571(12) -0.03115(7) 0.55304(8)
S1B S 0.11444(11) -0.17464(6) 0.36782(7)
S2B S -0.12333(12) -0.32004(6) 0.11867(7)
S2A S -0.12333(12) -0.17996(6) 0.61867(7)
S2C S 0.12333(12) 0.17996(6) 0.38133(7)
O1B O -0.3488(3) -0.18752(19) 0.1867(2)
O2B O -0.0672(3) -0.0615(2) 0.1415(2)
O3B O 0.1508(3) -0.0119(2) 0.5583(2)
O4B O 0.3434(3) -0.0586(3) 0.4587(2)
O5B O 0.4091(4) 0.0313(3) 0.5898(3)
O6B O 0.3295(4) -0.1129(3) 0.6091(3)
C1B C -0.3182(5) -0.0504(3) 0.1274(3)
H1B H -0.3113 0.0086 0.1427
H2B H -0.4011 -0.0576 0.0870
C2B C -0.1870(5) -0.0754(3) 0.0799(3)
H3B H -0.1778 -0.0418 0.0266
H4B H -0.1923 -0.1341 0.0627
C3B C 0.0599(5) -0.0979(3) 0.1227(3)
C4B C 0.0969(5) -0.1218(3) 0.0372(3)
H5B H 0.0329 -0.1133 -0.0111
C5B C 0.2282(5) -0.1579(3) 0.0241(3)
H6B H 0.2527 -0.1738 -0.0330
C6B C 0.3242(5) -0.1706(3) 0.0966(3)
H7B H 0.4125 -0.1953 0.0882
C7B C 0.2872(5) -0.1464(3) 0.1806(3)
H8B H 0.3523 -0.1543 0.2285
C8B C 0.1573(5) -0.1108(2) 0.1958(3)
C9B C 0.1160(5) -0.0868(3) 0.2879(3)
H9B H 0.1821 -0.0445 0.3110
H10B H 0.0216 -0.0618 0.2839
C10B C -0.0062(5) -0.2478(3) 0.3092(3)
H11B H -0.0677 -0.2171 0.2669
H12B H -0.0662 -0.2746 0.3519
C11B C 0.0753(5) -0.3146(3) 0.2596(3)
H13B H 0.1354 -0.3460 0.3021
H14B H 0.1370 -0.2876 0.2179
C12B C -0.0239(5) -0.3746(3) 0.2091(3)
H15B H 0.0313 -0.4198 0.1845
H16B H -0.0904 -0.3987 0.2498
C13B C -0.3083(5) -0.3520(3) 0.1346(3)
H17B H -0.3168 -0.4121 0.1260
H18B H -0.3706 -0.3247 0.0901
C14B C -0.3551(5) -0.3298(3) 0.2257(3)
C15B C -0.3769(6) -0.3926(3) 0.2885(4)
H19B H -0.3695 -0.4485 0.2717
C16B C -0.4094(6) -0.3733(4) 0.3748(4)
H20B H -0.4242 -0.4158 0.4158
C17B C -0.4198(6) -0.2897(4) 0.4003(3)
H21B H -0.4410 -0.2766 0.4587
C18B C -0.3987(5) -0.2257(3) 0.3395(3)
H22B H -0.4051 -0.1699 0.3572
C19B C -0.3682(5) -0.2454(3) 0.2523(3)
C20B C -0.3402(5) -0.1008(3) 0.2121(4)
H23B H -0.4277 -0.0835 0.2391
H24B H -0.2610 -0.0919 0.2548
loop_
_geom_bond_atom_site_label_1
_geom_bond_atom_site_label_2
_geom_bond_site_symmetry_1
_geom_bond_site_symmetry_2
Ag1 S1 1_555 1_555
Cl1 O3 1_555 1_555
S1 C9 1_555 1_555
S2 C12 1_555 1_555
O1 C19 1_555 1_555
O2 C2 1_555 1_555
O3 Ag1 1_555 1_555
O4 Cl1 1_555 1_555
O5 Cl1 1_555 1_555
O6 Cl1 1_555 1_555
C1 H1 1_555 1_555
H2 C1 1_555 1_555
C2 C1 1_555 1_555
H3 C2 1_555 1_555
H4 C2 1_555 1_555
C3 O2 1_555 1_555
C4 C3 1_555 1_555
H5 C4 1_555 1_555
C5 C4 1_555 1_555
H6 C5 1_555 1_555
C6 C5 1_555 1_555
H7 C6 1_555 1_555
C7 C6 1_555 1_555
H8 C7 1_555 1_555
C8 C3 1_555 1_555
C9 C8 1_555 1_555
H9 C9 1_555 1_555
H10 C9 1_555 1_555
C10 S1 1_555 1_555
H11 C10 1_555 1_555
H12 C10 1_555 1_555
C11 C10 1_555 1_555
H13 C11 1_555 1_555
H14 C11 1_555 1_555
C12 C11 1_555 1_555
H15 C12 1_555 1_555
H16 C12 1_555 1_555
C13 S2 1_555 1_555
H17 C13 1_555 1_555
H18 C13 1_555 1_555
C14 C13 1_555 1_555
C15 C14 1_555 1_555
H19 C15 1_555 1_555
C16 C15 1_555 1_555
H20 C16 1_555 1_555
C17 C16 1_555 1_555
H21 C17 1_555 1_555
C18 C17 1_555 1_555
H22 C18 1_555 1_555
C19 C14 1_555 1_555
C20 O1 1_555 1_555
H23 C20 1_555 1_555
H24 C20 1_555 1_555
Ag1B O3 1_555 1_555
Ag1A S2B 1_555 1_555
Ag1C S2 1_555 1_555
Cl1B O3B 1_555 1_555
S1B Ag1B 1_555 1_555
S2B C12B 1_555 1_555
S2A Ag1B 1_555 1_555
S2C Ag1 1_555 1_555
O1B C19B 1_555 1_555
O2B C2B 1_555 1_555
O3B Ag1 1_555 1_555
O4B Cl1B 1_555 1_555
O5B Cl1B 1_555 1_555
O6B Cl1B 1_555 1_555
C1B H1B 1_555 1_555
H2B C1B 1_555 1_555
C2B C1B 1_555 1_555
H3B C2B 1_555 1_555
H4B C2B 1_555 1_555
C3B O2B 1_555 1_555
C4B C3B 1_555 1_555
H5B C4B 1_555 1_555
C5B C4B 1_555 1_555
H6B C5B 1_555 1_555
C6B C5B 1_555 1_555
H7B C6B 1_555 1_555
C7B C6B 1_555 1_555
H8B C7B 1_555 1_555
C8B C3B 1_555 1_555
C9B S1B 1_555 1_555
H9B C9B 1_555 1_555
H10B C9B 1_555 1_555
C10B S1B 1_555 1_555
H11B C10B 1_555 1_555
H12B C10B 1_555 1_555
C11B C10B 1_555 1_555
H13B C11B 1_555 1_555
H14B C11B 1_555 1_555
C12B C11B 1_555 1_555
H15B C12B 1_555 1_555
H16B C12B 1_555 1_555
C13B S2B 1_555 1_555
H17B C13B 1_555 1_555
H18B C13B 1_555 1_555
C14B C13B 1_555 1_555
C15B C14B 1_555 1_555
H19B C15B 1_555 1_555
C16B C15B 1_555 1_555
H20B C16B 1_555 1_555
C17B C16B 1_555 1_555
H21B C17B 1_555 1_555
C18B C17B 1_555 1_555
H22B C18B 1_555 1_555
C19B C14B 1_555 1_555
C20B O1B 1_555 1_555
H23B C20B 1_555 1_555
H24B C20B 1_555 1_555
C1 C20 1_555 1_555
C7 C8 1_555 1_555
C18 C19 1_555 1_555
Ag1B O3B 1_555 1_555
C1B C20B 1_555 1_555
C7B C8B 1_555 1_555
C8B C9B 1_555 1_555
C18B C19B 1_555 1_555

#END
