
#######################################################################
#
#                 Cambridge Crystallographic Data Centre
#                                CCDC 
#
#######################################################################
#
# If this CIF has been generated from an entry in the Cambridge 
# Structural Database, then it will include bibliographic, chemical, 
# crystal, experimental, refinement or atomic coordinate data resulting 
# from the CCDC's data processing and validation procedures.
#
#######################################################################

data_QUVHAR
_symmetry_cell_setting           monoclinic
_symmetry_space_group_name_H-M   'P 21'
_symmetry_Int_Tables_number      4
_space_group_name_Hall           'P 2yb'
loop_
_symmetry_equiv_pos_site_id
_symmetry_equiv_pos_as_xyz
1 x,y,z
2 -x,1/2+y,-z
_cell_length_a                   8.8416(18)
_cell_length_b                   30.394(6)
_cell_length_c                   8.8226(17)
_cell_angle_alpha                90
_cell_angle_beta                 92.158(8)
_cell_angle_gamma                90
_cell_volume                     2369.23
loop_
_atom_site_label
_atom_site_type_symbol
_atom_site_fract_x
_atom_site_fract_y
_atom_site_fract_z
C1 C -0.0724(12) -0.4285(3) 0.2651(11)
C2 C 0.0720(12) -0.4050(3) 0.2128(11)
C3 C 0.2712(10) -0.5352(3) 0.0665(10)
C4 C 0.2022(10) -0.5600(3) -0.0745(10)
C5 C 0.0823(11) -0.4335(3) -0.2968(11)
C6 C -0.0535(11) -0.4063(3) -0.2429(12)
C7 C -0.3054(12) -0.5330(3) -0.1023(12)
C8 C -0.2435(10) -0.5573(3) 0.0371(10)
C9 C -0.0448(14) -0.2842(3) 0.4927(13)
H1 H -0.0851 -0.2815 0.5930
H2 H -0.0743 -0.2585 0.4337
C10 C 0.1250(15) -0.2884(3) 0.5035(13)
H3 H 0.1666 -0.2866 0.4036
H4 H 0.1686 -0.2650 0.5660
C11 C 0.4945(11) -0.6795(3) -0.1113(14)
H5 H 0.5551 -0.7031 -0.1512
H6 H 0.3901 -0.6836 -0.1460
C12 C 0.5072(11) -0.6787(4) 0.0575(14)
H7 H 0.4620 -0.7049 0.0995
H8 H 0.6124 -0.6772 0.0924
Co1 Co 0.0163(2) -0.37353(4) 0.48888(17)
Co2 Co 0.48365(15) -0.59140(4) -0.02455(16)
Mn1 Mn -0.01394(16) -0.48281(5) -0.01606(17)
N1 N -0.1025(11) -0.3246(3) 0.4177(10)
H17 H -0.0964 -0.3220 0.3165
H18 H -0.2001 -0.3288 0.4391
N2 N 0.1575(11) -0.3304(3) 0.5709(10)
H19 H 0.1497 -0.3287 0.6721
H20 H 0.2527 -0.3385 0.5513
N3 N 0.4245(9) -0.6389(3) 0.1027(10)
H21 H 0.4471 -0.6325 0.2006
H22 H 0.3241 -0.6434 0.0920
N4 N 0.5516(10) -0.6361(3) -0.1610(10)
H23 H 0.5167 -0.6303 -0.2560
H24 H 0.6534 -0.6364 -0.1605
O1 O -0.1313(8) -0.4578(2) 0.1849(8)
O2 O 0.1276(8) -0.4165(2) 0.0947(8)
O3 O -0.1215(8) -0.4163(2) 0.3920(8)
O4 O 0.1243(8) -0.3761(2) 0.3059(8)
O5 O 0.1953(8) -0.5054(2) 0.1241(8)
O6 O 0.0777(7) -0.5500(2) -0.1251(8)
O7 O 0.4032(8) -0.5477(2) 0.1133(8)
O8 O 0.2897(7) -0.5899(2) -0.1279(7)
O9 O 0.1281(8) -0.4644(2) -0.2147(8)
O10 O -0.1167(8) -0.4181(2) -0.1264(9)
O11 O 0.1372(8) -0.4220(2) -0.4198(8)
O12 O -0.0965(8) -0.3749(2) -0.3300(8)
O13 O -0.2261(8) -0.5033(2) -0.1551(9)
O14 O -0.1265(8) -0.5439(2) 0.1054(8)
O15 O -0.4373(8) -0.5454(2) -0.1537(8)
O16 O -0.3249(8) -0.5895(2) 0.0852(8)
Co1_2 Co 0.0163(2) -0.37353(4) -0.51112(17)
Co2_2 Co -0.51635(15) -0.59140(4) -0.02455(16)
O11_2 O 0.1372(8) -0.4220(2) 0.5802(8)
O12_2 O -0.0965(8) -0.3749(2) 0.6700(8)
O15_2 O 0.5627(8) -0.5454(2) -0.1537(8)
O16_2 O 0.6751(8) -0.5895(2) 0.0852(8)
C13 C -1.0683(11) -0.1761(3) 0.2839(12)
C14 C -0.9181(11) -0.1554(3) 0.2340(10)
C15 C -0.7118(11) -0.2848(3) 0.0752(12)
C16 C -0.7757(10) -0.3090(3) -0.0669(10)
C17 C -1.0451(10) -0.1533(3) -0.2242(11)
C18 C -0.9160(11) -0.1827(3) -0.2778(11)
C19 C -1.2870(11) -0.2805(3) -0.0876(11)
C20 C -1.2220(11) -0.3058(3) 0.0523(12)
C21 C -0.9937(15) -0.0320(4) 0.5238(13)
H9 H -1.0340 -0.0292 0.6241
H10 H -1.0124 -0.0047 0.4692
C22 C -0.8241(13) -0.0415(3) 0.5360(13)
H11 H -0.7796 -0.0390 0.4376
H12 H -0.7735 -0.0210 0.6053
C23 C -0.4935(13) -0.4309(4) 0.0241(14)
H13 H -0.5529 -0.4565 0.0492
H14 H -0.3898 -0.4356 0.0601
C24 C -0.5004(13) -0.4231(3) -0.1473(14)
H15 H -0.4483 -0.4464 -0.1995
H16 H -0.6045 -0.4219 -0.1859
Co3 Co -0.96874(15) -0.12284(4) 0.50767(16)
Co4 Co -0.49411(19) -0.33962(4) -0.0169(2)
Mn2 Mn -0.99553(19) -0.23098(5) 0.00649(19)
N5 N -1.0666(10) -0.0690(3) 0.4416(10)
H25 H -1.0577 -0.0655 0.3410
H26 H -1.1657 -0.0700 0.4612
N6 N -0.8107(10) -0.0868(3) 0.5939(10)
H27 H -0.8160 -0.0866 0.6956
H28 H -0.7202 -0.0980 0.5706
N7 N -0.5553(11) -0.3915(3) 0.0932(12)
H29 H -0.5217 -0.3896 0.1905
H30 H -0.6570 -0.3932 0.0917
N8 N -0.4240(9) -0.3804(3) -0.1682(11)
H31 H -0.4459 -0.3699 -0.2618
H32 H -0.3231 -0.3837 -0.1575
O17 O -1.1262(8) -0.2058(2) 0.2044(8)
O18 O -0.8634(8) -0.1678(2) 0.1157(8)
O19 O -1.1186(8) -0.1615(2) 0.4057(9)
O20 O -0.8621(7) -0.1259(2) 0.3257(8)
O21 O -0.7876(8) -0.2566(2) 0.1345(8)
O22 O -0.9011(8) -0.2995(2) -0.1181(8)
O23 O -0.5799(8) -0.2983(2) 0.1250(8)
O24 O -0.6858(8) -0.3387(2) -0.1189(9)
O25 O -1.1068(8) -0.1631(2) -0.1033(8)
O26 O -0.8677(8) -0.2127(2) -0.1933(8)
O27 O -1.0818(7) -0.1216(3) -0.3112(8)
O28 O -0.8652(8) -0.1735(2) -0.4085(8)
O29 O -1.2095(8) -0.2487(2) -0.1390(8)
O30 O -1.4194(8) -0.2913(2) -0.1342(8)
O31 O -1.3018(8) -0.3378(2) 0.0936(8)
O32 O -1.1026(8) -0.2931(2) 0.1132(8)
Co3_2 Co -0.96874(15) -0.12284(4) -0.49233(16)
Co4_2 Co -1.49411(19) -0.33962(4) -0.0169(2)
O27_2 O -1.0818(7) -0.1216(3) 0.6888(8)
O28_2 O -0.8652(8) -0.1735(2) 0.5915(8)
O30_2 O -0.4194(8) -0.2913(2) -0.1342(8)
O31_2 O -0.3018(8) -0.3378(2) 0.0936(8)
O33 O 0.3289(9) -0.4741(3) -0.5991(9)
O34 O -1.3332(9) -0.2064(3) 0.5783(10)
O35 O -0.6030(9) -0.5512(3) -0.4448(9)
O36 O -0.5077(10) -0.1273(3) 0.5550(11)
O37 O -0.4315(10) -0.4182(3) 0.3894(11)
O38 O -0.4110(10) -0.2805(3) 0.4000(10)
O39 O -0.5300(10) -0.3499(3) 0.5449(11)
loop_
_geom_bond_atom_site_label_1
_geom_bond_atom_site_label_2
_geom_bond_site_symmetry_1
_geom_bond_site_symmetry_2
C1 C2 1_555 1_555
C2 O2 1_555 1_555
C3 C4 1_555 1_555
C4 O6 1_555 1_555
C5 C6 1_555 1_555
C6 O10 1_555 1_555
C7 C8 1_555 1_555
C8 O14 1_555 1_555
C9 H1 1_555 1_555
H2 C9 1_555 1_555
C10 C9 1_555 1_555
H3 C10 1_555 1_555
H4 C10 1_555 1_555
C11 H5 1_555 1_555
H6 C11 1_555 1_555
C12 C11 1_555 1_555
H7 C12 1_555 1_555
H8 C12 1_555 1_555
C13 C14 1_555 1_555
C14 O18 1_555 1_555
C15 C16 1_555 1_555
C16 O22 1_555 1_555
C17 C18 1_555 1_555
C18 O26 1_555 1_555
C19 C20 1_555 1_555
C20 O31 1_555 1_555
C21 H9 1_555 1_555
H10 C21 1_555 1_555
C22 C21 1_555 1_555
H11 C22 1_555 1_555
H12 C22 1_555 1_555
C23 H13 1_555 1_555
H14 C23 1_555 1_555
C24 C23 1_555 1_555
H15 C24 1_555 1_555
H16 C24 1_555 1_555
Co1 N1 1_555 1_555
Co2 N3 1_555 1_555
Co3 N5 1_555 1_555
Co4 N7 1_555 1_555
Mn1 O1 1_555 1_555
Mn2 O17 1_555 1_555
N1 C9 1_555 1_555
H17 N1 1_555 1_555
H18 N1 1_555 1_555
N2 C10 1_555 1_555
H19 N2 1_555 1_555
H20 N2 1_555 1_555
N3 C12 1_555 1_555
H21 N3 1_555 1_555
H22 N3 1_555 1_555
N4 C11 1_555 1_555
H23 N4 1_555 1_555
H24 N4 1_555 1_555
N5 C21 1_555 1_555
H25 N5 1_555 1_555
H26 N5 1_555 1_555
N6 C22 1_555 1_555
H27 N6 1_555 1_555
H28 N6 1_555 1_555
N7 C23 1_555 1_555
H29 N7 1_555 1_555
H30 N7 1_555 1_555
N8 C24 1_555 1_555
H31 N8 1_555 1_555
H32 N8 1_555 1_555
O1 C1 1_555 1_555
O2 Mn1 1_555 1_555
O3 C1 1_555 1_555
O4 C2 1_555 1_555
O5 C3 1_555 1_555
O6 Mn1 1_555 1_555
O7 C3 1_555 1_555
O8 C4 1_555 1_555
O9 C5 1_555 1_555
O10 Mn1 1_555 1_555
O11 C5 1_555 1_555
O12 C6 1_555 1_555
O13 C7 1_555 1_555
O14 Mn1 1_555 1_555
O15 C7 1_555 1_555
O16 C8 1_555 1_555
O17 C13 1_555 1_555
O18 Mn2 1_555 1_555
O19 C13 1_555 1_555
O20 C14 1_555 1_555
O21 C15 1_555 1_555
O22 Mn2 1_555 1_555
O23 C15 1_555 1_555
O24 C16 1_555 1_555
O25 C17 1_555 1_555
O26 Mn2 1_555 1_555
O27 C17 1_555 1_555
O28 C18 1_555 1_555
O29 C19 1_555 1_555
O30 C19 1_555 1_555
O31 Co4_2 1_555 1_555
O32 C20 1_555 1_555
Co1_2 O11 1_555 1_555
Co2_2 O15 1_555 1_555
Co3_2 O27 1_555 1_555
Co4_2 O30 1_555 1_555
O11_2 Co1 1_555 1_555
O12_2 Co1 1_555 1_555
O15_2 Co2 1_555 1_555
O16_2 Co2 1_555 1_555
O27_2 Co3 1_555 1_555
O28_2 Co3 1_555 1_555
O30_2 Co4 1_555 1_555
O31_2 Co4 1_555 1_555
Co1 N2 1_555 1_555
Co1 O3 1_555 1_555
Co1 O4 1_555 1_555
Co2 N4 1_555 1_555
Co2 O7 1_555 1_555
Co2 O8 1_555 1_555
Co3 N6 1_555 1_555
Co3 O19 1_555 1_555
Co3 O20 1_555 1_555
Co4 N8 1_555 1_555
Co4 O23 1_555 1_555
Co4 O24 1_555 1_555
Mn1 O5 1_555 1_555
Mn1 O9 1_555 1_555
Mn1 O13 1_555 1_555
Mn2 O21 1_555 1_555
Mn2 O25 1_555 1_555
Mn2 O29 1_555 1_555
Mn2 O32 1_555 1_555
O12 Co1_2 1_555 1_555
O16 Co2_2 1_555 1_555
O28 Co3_2 1_555 1_555

#END
