
#######################################################################
#
#                 Cambridge Crystallographic Data Centre
#                                CCDC 
#
#######################################################################
#
# If this CIF has been generated from an entry in the Cambridge 
# Structural Database, then it will include bibliographic, chemical, 
# crystal, experimental, refinement or atomic coordinate data resulting 
# from the CCDC's data processing and validation procedures.
#
#######################################################################

data_QUVHIZ
_symmetry_cell_setting           monoclinic
_symmetry_space_group_name_H-M   'P 21'
_symmetry_Int_Tables_number      4
_space_group_name_Hall           'P 2yb'
loop_
_symmetry_equiv_pos_site_id
_symmetry_equiv_pos_as_xyz
1 x,y,z
2 -x,1/2+y,-z
_cell_length_a                   9.0325(14)
_cell_length_b                   15.476(2)
_cell_length_c                   9.1107(15)
_cell_angle_alpha                90
_cell_angle_beta                 92.883(3)
_cell_angle_gamma                90
_cell_volume                     1271.95
loop_
_atom_site_label
_atom_site_type_symbol
_atom_site_fract_x
_atom_site_fract_y
_atom_site_fract_z
C1 C 0.6902(8) 0.4041(5) 0.9146(8)
C2 C 0.7546(8) 0.3609(5) 1.0573(9)
C3 C 1.2927(9) 0.4079(5) 1.0845(9)
C4 C 1.2259(8) 0.3567(5) 0.9491(9)
C5 C 1.0710(8) 0.6843(5) 1.2323(8)
C6 C 0.9258(8) 0.6424(5) 1.2847(8)
C7 C 1.0856(8) 0.6317(5) 0.6976(8)
C8 C 0.9508(8) 0.6841(5) 0.7496(8)
C9 C 0.4905(10) 0.1128(6) 0.9611(12)
H1 H 0.3868 0.1032 0.9244
H2 H 0.5502 0.0617 0.9356
C10 C 0.4973(9) 0.1259(6) 1.1219(10)
H3 H 0.4429 0.0792 1.1703
H4 H 0.6016 0.1252 1.1608
C11 C 1.1358(12) 0.9189(6) 1.5135(10)
H5 H 1.1763 0.9238 1.4149
H6 H 1.1817 0.9640 1.5780
C12 C 0.9707(12) 0.9283(7) 1.5040(9)
H7 H 0.9320 0.9316 1.6036
H8 H 0.9416 0.9815 1.4496
N1 N 0.5515(7) 0.1927(5) 0.8937(8)
H9 H 0.5155 0.1981 0.7979
H10 H 0.6533 0.1898 0.8943
N2 N 0.4298(7) 0.2094(5) 1.1511(8)
H11 H 0.4593 0.2282 1.2438
H12 H 0.3282 0.2045 1.1458
N3 N 1.1652(8) 0.8314(5) 1.5764(7)
H13 H 1.1599 0.8332 1.6769
H14 H 1.2590 0.8137 1.5551
N4 N 0.9108(8) 0.8507(5) 1.4251(7)
H15 H 0.9195 0.8571 1.3255
H16 H 0.8122 0.8436 1.4427
O1 O 0.8688(6) 0.3909(4) 1.1179(6)
O2 O 0.7582(6) 0.4620(4) 0.8575(6)
O3 O 0.5652(6) 0.3712(4) 0.8674(7)
O4 O 0.6826(6) 0.2967(4) 1.1038(6)
O5 O 1.3005(6) 0.2920(3) 0.9099(6)
O6 O 1.4224(6) 0.3833(4) 1.1257(7)
O7 O 1.2226(6) 0.4674(4) 1.1380(6)
O8 O 1.1067(6) 0.3815(4) 0.8914(6)
O9 O 0.8811(6) 0.6728(4) 1.4053(6)
O10 O 1.1239(5) 0.7436(4) 1.3163(5)
O11 O 1.1265(5) 0.6562(4) 1.1223(6)
O12 O 0.8658(6) 0.5844(4) 1.2129(6)
O13 O 0.8866(5) 0.6591(4) 0.8556(6)
O14 O 1.1330(6) 0.5700(4) 0.7727(6)
O15 O 0.9175(5) 0.7503(4) 0.6709(5)
O16 O 1.1348(6) 0.6564(4) 0.5775(6)
Sr1 Sr 0.99173(7) 0.52192(5) 0.99397(7)
Co1 Co 0.49150(10) 0.28969(6) 1.00744(11)
Co2 Co 1.02215(11) 0.75180(7) 1.49494(10)
O5_2 O 0.3005(6) 0.2920(3) 0.9099(6)
O6_2 O 0.4224(6) 0.3833(4) 1.1257(7)
O15_2 O 0.9175(5) 0.7503(4) 1.6709(5)
O16_2 O 1.1348(6) 0.6564(4) 1.5775(6)
Co1_2 Co 1.49150(10) 0.28969(6) 1.00744(11)
Co2_2 Co 1.02215(11) 0.75180(7) 0.49494(10)
O17 O 0.5297(9) 0.2758(6) 0.4368(10)
O18 O 0.5721(9) 0.6518(7) 0.3997(10)
H17 H 0.563(7) 0.700(5) 0.500(7)
O19 O 0.4021(13) 0.4052(9) 0.5956(13)
O20 O 0.3431(11) 0.5467(7) 0.4182(11)
loop_
_geom_bond_atom_site_label_1
_geom_bond_atom_site_label_2
_geom_bond_site_symmetry_1
_geom_bond_site_symmetry_2
C1 C2 1_555 1_555
C2 O1 1_555 1_555
C3 C4 1_555 1_555
C4 O5 1_555 1_555
C5 C6 1_555 1_555
C6 O9 1_555 1_555
C7 C8 1_555 1_555
C8 O13 1_555 1_555
C9 H1 1_555 1_555
H2 C9 1_555 1_555
C10 C9 1_555 1_555
H3 C10 1_555 1_555
H4 C10 1_555 1_555
C11 H5 1_555 1_555
H6 C11 1_555 1_555
C12 C11 1_555 1_555
H7 C12 1_555 1_555
H8 C12 1_555 1_555
N1 C9 1_555 1_555
H9 N1 1_555 1_555
H10 N1 1_555 1_555
N2 C10 1_555 1_555
H11 N2 1_555 1_555
H12 N2 1_555 1_555
N3 C11 1_555 1_555
H13 N3 1_555 1_555
H14 N3 1_555 1_555
N4 C12 1_555 1_555
H15 N4 1_555 1_555
H16 N4 1_555 1_555
O1 Sr1 1_555 1_555
O2 C1 1_555 1_555
O3 C1 1_555 1_555
O4 C2 1_555 1_555
O5 Co1_2 1_555 1_555
O6 C3 1_555 1_555
O7 C3 1_555 1_555
O8 C4 1_555 1_555
O9 Co2 1_555 1_555
O10 C5 1_555 1_555
O11 C5 1_555 1_555
O12 C6 1_555 1_555
O13 Sr1 1_555 1_555
O14 C7 1_555 1_555
O15 C8 1_555 1_555
O16 C7 1_555 1_555
O18 H17 1_555 1_555
Sr1 O2 1_555 1_555
Co1 N1 1_555 1_555
Co2 N3 1_555 1_555
O5_2 Co1 1_555 1_555
O6_2 Co1 1_555 1_555
O15_2 Co2 1_555 1_555
O16_2 Co2 1_555 1_555
Co1_2 O6 1_555 1_555
Co2_2 O15 1_555 1_555
N2 Co1 1_555 1_555
N4 Co2 1_555 1_555
O3 Co1 1_555 1_555
O4 Co1 1_555 1_555
O7 Sr1 1_555 1_555
O8 Sr1 1_555 1_555
O10 Co2 1_555 1_555
O11 Sr1 1_555 1_555
O12 Sr1 1_555 1_555
O14 Sr1 1_555 1_555
O16 Co2_2 1_555 1_555

#END
