
#######################################################################
#
#                 Cambridge Crystallographic Data Centre
#                                CCDC 
#
#######################################################################
#
# If this CIF has been generated from an entry in the Cambridge 
# Structural Database, then it will include bibliographic, chemical, 
# crystal, experimental, refinement or atomic coordinate data resulting 
# from the CCDC's data processing and validation procedures.
#
#######################################################################

data_QUVHEV
_symmetry_cell_setting           monoclinic
_symmetry_space_group_name_H-M   'P 21'
_symmetry_Int_Tables_number      4
_space_group_name_Hall           'P 2yb'
loop_
_symmetry_equiv_pos_site_id
_symmetry_equiv_pos_as_xyz
1 x,y,z
2 -x,1/2+y,-z
_cell_length_a                   9.0785(17)
_cell_length_b                   15.666(3)
_cell_length_c                   9.1321(17)
_cell_angle_alpha                90
_cell_angle_beta                 92.57
_cell_angle_gamma                90
_cell_volume                     1297.5
loop_
_atom_site_label
_atom_site_type_symbol
_atom_site_fract_x
_atom_site_fract_y
_atom_site_fract_z
C1 C 0.5847(7) 0.4966(4) 0.6957(6)
C2 C 0.4528(6) 0.5500(4) 0.7473(6)
C3 C 0.1866(6) 0.2720(4) 0.9169(6)
C4 C 0.2530(6) 0.2303(4) 1.0592(7)
C5 C 0.7234(6) 0.2257(4) 0.9491(7)
C6 C 0.7918(6) 0.2759(4) 1.0851(7)
C7 C 0.5730(6) 0.5501(4) 1.2320(6)
C8 C 0.4283(7) 0.5085(4) 1.2836(7)
C9 C 0.6428(11) 0.7813(5) 0.5117(9)
H1 H 0.6827 0.7858 0.4152
H2 H 0.6887 0.8245 0.5747
C10 C 0.4790(11) 0.7924(6) 0.5025(8)
H3 H 0.4523 0.8438 0.4484
H4 H 0.4410 0.7965 0.5998
C11 C -0.0016(9) -0.0024(6) 1.1281(11)
H5 H -0.0543 -0.0477 1.1756
H6 H 0.1000 -0.0024 1.1657
C12 C -0.0090(9) -0.0144(6) 0.9649(12)
H7 H 0.0486 -0.0638 0.9387
H8 H -0.1103 -0.0234 0.9299
N1 N 0.6697(7) 0.6949(4) 0.5737(6)
H9 H 0.6645 0.6967 0.6718
H10 H 0.7607 0.6772 0.5526
N2 N 0.4172(7) 0.7147(4) 0.4239(6)
H11 H 0.4253 0.7205 0.3266
H12 H 0.3211 0.7085 0.4420
N3 N 0.0504(6) 0.0630(4) 0.8987(7)
H13 H 0.0160 0.0678 0.8050
H14 H 0.1494 0.0602 0.8994
N4 N -0.0713(6) 0.0808(4) 1.1544(7)
H15 H -0.0444 0.0997 1.2447
H16 H -0.1700 0.0753 1.1485
O1 O 0.6310(5) 0.4365(3) 0.7694(5)
O2 O 0.3869(5) 0.5243(3) 0.8538(5)
O3 O 0.6355(5) 0.5219(3) 0.5732(5)
O4 O 0.4203(5) 0.6152(3) 0.6699(5)
O5 O 0.3656(5) 0.2597(3) 1.1188(5)
O6 O 0.2560(5) 0.3305(3) 0.8589(5)
O7 O 0.0638(5) 0.2408(3) 0.8705(5)
O8 O 0.1795(4) 0.1682(3) 1.1076(5)
O9 O 0.6066(5) 0.2495(3) 0.8930(5)
O10 O 0.7203(5) 0.3356(3) 1.1366(5)
O11 O 0.7999(4) 0.1623(3) 0.9104(5)
O12 O 0.9187(5) 0.2527(3) 1.1267(5)
O13 O 0.3672(5) 0.4520(3) 1.2122(5)
O14 O 0.6260(5) 0.5229(3) 1.1172(5)
O15 O 0.6273(4) 0.6084(3) 1.3138(4)
O16 O 0.3834(5) 0.5390(3) 1.4051(5)
Co1 Co 0.52588(9) 0.61684(6) 0.49308(8)
Co2 Co -0.00984(8) 0.16033(5) 1.01011(9)
Sr1 Sr 0.49028(5) 0.38951(4) 0.99239(5)
O11_2 O -0.2001(4) 0.1623(3) 0.9104(5)
O12_2 O -0.0813(5) 0.2527(3) 1.1267(5)
O15_2 O 0.6273(4) 0.6084(3) 0.3138(4)
O16_2 O 0.3834(5) 0.5390(3) 0.4051(5)
Co1_2 Co 0.52588(9) 0.61684(6) 1.49308(8)
Co2_2 Co 0.99016(8) 0.16033(5) 1.01011(9)
O17 O 0.0244(8) 0.1414(6) 1.4442(9)
O18 O 0.8375(9) 0.4107(6) 1.4141(8)
O19 O -0.0754(10) 0.0157(7) 0.6019(12)
O20 O 0.0981(11) 0.7715(7) 0.4065(10)
loop_
_geom_bond_atom_site_label_1
_geom_bond_atom_site_label_2
_geom_bond_site_symmetry_1
_geom_bond_site_symmetry_2
C1 C2 1_555 1_555
C2 O2 1_555 1_555
C3 C4 1_555 1_555
C4 O5 1_555 1_555
C5 C6 1_555 1_555
C6 O10 1_555 1_555
C7 C8 1_555 1_555
C8 O13 1_555 1_555
C9 H1 1_555 1_555
H2 C9 1_555 1_555
C10 C9 1_555 1_555
H3 C10 1_555 1_555
H4 C10 1_555 1_555
C11 H5 1_555 1_555
H6 C11 1_555 1_555
C12 C11 1_555 1_555
H7 C12 1_555 1_555
H8 C12 1_555 1_555
N1 C9 1_555 1_555
H9 N1 1_555 1_555
H10 N1 1_555 1_555
N2 C10 1_555 1_555
H11 N2 1_555 1_555
H12 N2 1_555 1_555
N3 C12 1_555 1_555
H13 N3 1_555 1_555
H14 N3 1_555 1_555
N4 C11 1_555 1_555
H15 N4 1_555 1_555
H16 N4 1_555 1_555
O1 C1 1_555 1_555
O2 Sr1 1_555 1_555
O3 C1 1_555 1_555
O4 C2 1_555 1_555
O5 Sr1 1_555 1_555
O6 C3 1_555 1_555
O7 C3 1_555 1_555
O8 C4 1_555 1_555
O9 C5 1_555 1_555
O10 Sr1 1_555 1_555
O11 C5 1_555 1_555
O12 C6 1_555 1_555
O13 Sr1 1_555 1_555
O14 C7 1_555 1_555
O15 C7 1_555 1_555
O16 C8 1_555 1_555
Co1 N1 1_555 1_555
Co2 N3 1_555 1_555
Sr1 O1 1_555 1_555
O11_2 Co2 1_555 1_555
O12_2 Co2 1_555 1_555
O15_2 Co1 1_555 1_555
O16_2 Co1 1_555 1_555
Co1_2 O15 1_555 1_555
Co2_2 O11 1_555 1_555
N2 Co1 1_555 1_555
N4 Co2 1_555 1_555
O3 Co1 1_555 1_555
O4 Co1 1_555 1_555
O6 Sr1 1_555 1_555
O7 Co2 1_555 1_555
O8 Co2 1_555 1_555
O9 Sr1 1_555 1_555
O12 Co2_2 1_555 1_555
O14 Sr1 1_555 1_555
O16 Co1_2 1_555 1_555

#END
