
#######################################################################
#
#                 Cambridge Crystallographic Data Centre
#                                CCDC 
#
#######################################################################
#
# If this CIF has been generated from an entry in the Cambridge 
# Structural Database, then it will include bibliographic, chemical, 
# crystal, experimental, refinement or atomic coordinate data resulting 
# from the CCDC's data processing and validation procedures.
#
#######################################################################

data_QUWVUA
_symmetry_cell_setting           monoclinic
_symmetry_space_group_name_H-M   'P 21/c'
_symmetry_Int_Tables_number      14
_space_group_name_Hall           '-P 2ybc'
loop_
_symmetry_equiv_pos_site_id
_symmetry_equiv_pos_as_xyz
1 x,y,z
2 -x,1/2+y,1/2-z
3 -x,-y,-z
4 x,1/2-y,1/2+z
_cell_length_a                   6.9147(5)
_cell_length_b                   20.4704(14)
_cell_length_c                   18.4190(15)
_cell_angle_alpha                90
_cell_angle_beta                 100.168(2)
_cell_angle_gamma                90
_cell_volume                     2566.2
loop_
_atom_site_label
_atom_site_type_symbol
_atom_site_fract_x
_atom_site_fract_y
_atom_site_fract_z
Cd1 Cd 0.0000 0.5000 0.0000
O1 O -0.18602(11) 0.46130(4) 0.08426(15)
H1 H -0.1384 0.4254 0.1026
H2 H -0.3071 0.4556 0.0669
N1 N 0.2212(5) 0.41051(17) 0.0109(2)
N2 N 0.4212(5) 0.41342(17) 0.0257(2)
N3 N 0.3354(5) 0.31207(16) 0.00089(19)
N4 N 0.7727(5) 0.11757(17) 0.3983(2)
N5 N 0.7880(5) 0.05069(17) 0.4056(2)
N6 N 0.5454(5) 0.07149(15) 0.31581(18)
C1 C 0.1752(7) 0.3497(2) -0.0039(3)
H5 H 0.0457 0.3342 -0.0165
C2 C 0.4847(6) 0.3543(2) 0.0200(3)
H6 H 0.6182 0.3426 0.0281
C3 C 0.6276(6) 0.1277(2) 0.3447(2)
H7 H 0.5844 0.1695 0.3278
C4 C 0.6508(6) 0.0248(2) 0.3557(2)
H8 H 0.6293 -0.0203 0.3489
C5 C 0.3420(6) 0.24047(19) -0.0102(2)
C6 C 0.5460(6) 0.2198(2) -0.0222(3)
H9 H 0.6442 0.2319 0.0208
H10 H 0.5786 0.2422 -0.0655
C7 C 0.5487(6) 0.1460(2) -0.0337(2)
H11 H 0.6809 0.1326 -0.0417
C8 C 0.5027(6) 0.1118(2) 0.0359(3)
H12 H 0.6019 0.1240 0.0785
H13 H 0.5090 0.0643 0.0296
C9 C 0.2967(5) 0.13085(18) 0.0503(2)
C10 C 0.2941(5) 0.20540(18) 0.0588(2)
H14 H 0.3906 0.2182 0.1020
H15 H 0.1641 0.2192 0.0671
C11 C 0.1903(7) 0.22182(19) -0.0773(2)
H16 H 0.2199 0.2440 -0.1213
H17 H 0.0591 0.2354 -0.0701
C12 C 0.1954(7) 0.1478(2) -0.0878(2)
H18 H 0.0958 0.1355 -0.1311
C13 C 0.3965(7) 0.1270(2) -0.1012(2)
H19 H 0.4265 0.1487 -0.1453
H20 H 0.3990 0.0797 -0.1090
C14 C 0.1479(6) 0.1132(2) -0.0195(2)
H21 H 0.1491 0.0659 -0.0272
H22 H 0.0156 0.1257 -0.0124
C15 C 0.3729(6) 0.06486(19) 0.2546(2)
C16 C 0.3345(7) -0.0073(2) 0.2376(2)
H23 H 0.3059 -0.0299 0.2814
H24 H 0.4505 -0.0275 0.2233
C17 C 0.1592(7) -0.0124(2) 0.1747(3)
H25 H 0.1323 -0.0591 0.1630
C18 C -0.0212(7) 0.0181(3) 0.1972(3)
H26 H -0.1342 0.0136 0.1571
H27 H -0.0518 -0.0042 0.2409
C19 C 0.0185(6) 0.0896(2) 0.2141(3)
H28 H -0.0994 0.1096 0.2286
C20 C 0.1923(6) 0.0958(2) 0.2784(2)
H29 H 0.2178 0.1420 0.2907
H30 H 0.1622 0.0734 0.3220
C21 C 0.4200(5) 0.09979(18) 0.1865(2)
H31 H 0.5371 0.0801 0.1724
H32 H 0.4489 0.1458 0.1983
C22 C 0.2473(5) 0.09532(18) 0.1211(2)
C23 C 0.2025(6) 0.0226(2) 0.1052(2)
H33 H 0.3152 0.0018 0.0889
H34 H 0.0887 0.0185 0.0654
C24 C 0.0662(6) 0.1255(2) 0.1469(2)
H35 H 0.0919 0.1716 0.1592
H36 H -0.0471 0.1232 0.1066
Cd1A Cd 1.0000 0.0000 0.5000
Cd1A_2 Cd 1.0000 1.0000 0.5000
O1B O 0.18602(11) 0.53870(4) -0.08426(15)
H1B H 0.1384 0.5746 -0.1026
H2B H 0.3071 0.5444 -0.0669
N1A N 0.7788(5) 0.91051(17) 0.4891(2)
N1B N -0.2212(5) 0.58949(17) -0.0109(2)
N2A N 0.5788(5) 0.91342(17) 0.4743(2)
N3A N 0.6646(5) 0.81207(16) 0.49911(19)
N4A N 0.2273(5) 0.61757(17) 0.1017(2)
N5A N 0.2120(5) 0.55069(17) 0.0944(2)
N5C N -0.2120(5) 0.44931(17) -0.0944(2)
N6A N 0.4546(5) 0.57149(15) 0.18419(18)
C1A C 0.8248(7) 0.8497(2) 0.5039(3)
H5A H 0.9543 0.8342 0.5165
C2A C 0.5153(6) 0.8543(2) 0.4800(3)
H6A H 0.3818 0.8426 0.4719
C3A C 0.3724(6) 0.6277(2) 0.1553(2)
H7A H 0.4156 0.6695 0.1722
C4A C 0.3492(6) 0.5248(2) 0.1443(2)
H8A H 0.3707 0.4797 0.1511
C5A C 0.6580(6) 0.74047(19) 0.5102(2)
C6A C 0.4540(6) 0.7198(2) 0.5222(3)
H9A H 0.3558 0.7319 0.4792
H10A H 0.4214 0.7422 0.5655
C7A C 0.4513(6) 0.6460(2) 0.5337(2)
H11A H 0.3191 0.6326 0.5417
C8A C 0.4973(6) 0.6118(2) 0.4641(3)
H12A H 0.3981 0.6240 0.4215
H13A H 0.4910 0.5643 0.4704
C9A C 0.7033(5) 0.63085(18) 0.4497(2)
C10A C 0.7059(5) 0.70540(18) 0.4412(2)
H14A H 0.6094 0.7182 0.3980
H15A H 0.8359 0.7192 0.4329
C11A C 0.8097(7) 0.72182(19) 0.5773(2)
H16A H 0.7801 0.7440 0.6213
H17A H 0.9409 0.7354 0.5701
C12A C 0.8046(7) 0.6478(2) 0.5878(2)
H18A H 0.9042 0.6355 0.6311
C13A C 0.6035(7) 0.6270(2) 0.6012(2)
H19A H 0.5735 0.6487 0.6453
H20A H 0.6010 0.5797 0.6090
C14A C 0.8521(6) 0.6132(2) 0.5195(2)
H21A H 0.8509 0.5659 0.5272
H22A H 0.9844 0.6257 0.5124
C15A C 0.6271(6) 0.56486(19) 0.2454(2)
C16A C 0.6655(7) 0.4927(2) 0.2624(2)
H23A H 0.6941 0.4701 0.2186
H24A H 0.5495 0.4725 0.2767
C17A C 0.8408(7) 0.4876(2) 0.3253(3)
H25A H 0.8677 0.4409 0.3370
C18A C 1.0212(7) 0.5181(3) 0.3028(3)
H26A H 1.1342 0.5136 0.3429
H27A H 1.0518 0.4958 0.2591
C19A C 0.9815(6) 0.5896(2) 0.2859(3)
H28A H 1.0994 0.6096 0.2714
C20A C 0.8077(6) 0.5958(2) 0.2216(2)
H29A H 0.7822 0.6420 0.2093
H30A H 0.8378 0.5734 0.1780
C21A C 0.5800(5) 0.59979(18) 0.3135(2)
H31A H 0.4629 0.5801 0.3276
H32A H 0.5511 0.6458 0.3017
C22A C 0.7527(5) 0.59532(18) 0.3789(2)
C23A C 0.7975(6) 0.5226(2) 0.3948(2)
H33A H 0.6848 0.5018 0.4111
H34A H 0.9113 0.5185 0.4346
C24A C 0.9338(6) 0.6255(2) 0.3531(2)
H35A H 0.9081 0.6716 0.3408
H36A H 1.0471 0.6232 0.3934
Se1 Se 0.70827(11) 0.28331(4) 0.25839(4)
N7 N 0.3447(9) 0.3492(3) 0.1888(3)
C25 C 0.4906(10) 0.3220(3) 0.2162(3)
O2 O -0.05887(19) 0.3405(2) 0.12867(6)
H3 H -0.1108 0.3239 0.1629
H4 H 0.0599 0.3500 0.1461
loop_
_geom_bond_atom_site_label_1
_geom_bond_atom_site_label_2
_geom_bond_site_symmetry_1
_geom_bond_site_symmetry_2
Cd1 O1 1_555 1_555
Se1 C25 1_555 1_555
O1 H1 1_555 1_555
H2 O1 1_555 1_555
O2 H3 1_555 1_555
H4 O2 1_555 1_555
N1 Cd1 1_555 1_555
N2 N1 1_555 1_555
N3 C1 1_555 1_555
N4 N5 1_555 1_555
N5 C4 1_555 1_555
N6 C3 1_555 1_555
N7 C25 1_555 1_555
C1 N1 1_555 1_555
H5 C1 1_555 1_555
C2 N2 1_555 1_555
H6 C2 1_555 1_555
C3 N4 1_555 1_555
H7 C3 1_555 1_555
C4 N6 1_555 1_555
H8 C4 1_555 1_555
C5 N3 1_555 1_555
C6 C5 1_555 1_555
H9 C6 1_555 1_555
H10 C6 1_555 1_555
C7 C6 1_555 1_555
H11 C7 1_555 1_555
C8 C7 1_555 1_555
H12 C8 1_555 1_555
H13 C8 1_555 1_555
C9 C8 1_555 1_555
C10 C5 1_555 1_555
H14 C10 1_555 1_555
H15 C10 1_555 1_555
C11 C5 1_555 1_555
H16 C11 1_555 1_555
H17 C11 1_555 1_555
C12 C11 1_555 1_555
H18 C12 1_555 1_555
C13 C7 1_555 1_555
H19 C13 1_555 1_555
H20 C13 1_555 1_555
C14 C9 1_555 1_555
H21 C14 1_555 1_555
H22 C14 1_555 1_555
C15 N6 1_555 1_555
C16 C15 1_555 1_555
H23 C16 1_555 1_555
H24 C16 1_555 1_555
C17 C16 1_555 1_555
H25 C17 1_555 1_555
C18 C17 1_555 1_555
H26 C18 1_555 1_555
H27 C18 1_555 1_555
C19 C18 1_555 1_555
H28 C19 1_555 1_555
C20 C15 1_555 1_555
H29 C20 1_555 1_555
H30 C20 1_555 1_555
C21 C15 1_555 1_555
H31 C21 1_555 1_555
H32 C21 1_555 1_555
C22 C9 1_555 1_555
C23 C17 1_555 1_555
H33 C23 1_555 1_555
H34 C23 1_555 1_555
C24 C19 1_555 1_555
H35 C24 1_555 1_555
H36 C24 1_555 1_555
Cd1A N5 1_555 1_555
Cd1A_2 N1A 1_555 1_555
O1B Cd1 1_555 1_555
H1B O1B 1_555 1_555
H2B O1B 1_555 1_555
N1A N2A 1_555 1_555
N1B Cd1 1_555 1_555
N2A C2A 1_555 1_555
N3A C1A 1_555 1_555
N4A N5A 1_555 1_555
N5A Cd1 1_555 1_555
N5C Cd1 1_555 1_555
N6A C3A 1_555 1_555
C1A N1A 1_555 1_555
H5A C1A 1_555 1_555
C2A N3A 1_555 1_555
H6A C2A 1_555 1_555
C3A N4A 1_555 1_555
H7A C3A 1_555 1_555
C4A N5A 1_555 1_555
H8A C4A 1_555 1_555
C5A N3A 1_555 1_555
C6A C5A 1_555 1_555
H9A C6A 1_555 1_555
H10A C6A 1_555 1_555
C7A C6A 1_555 1_555
H11A C7A 1_555 1_555
C8A C7A 1_555 1_555
H12A C8A 1_555 1_555
H13A C8A 1_555 1_555
C9A C8A 1_555 1_555
C10A C5A 1_555 1_555
H14A C10A 1_555 1_555
H15A C10A 1_555 1_555
C11A C5A 1_555 1_555
H16A C11A 1_555 1_555
H17A C11A 1_555 1_555
C12A C11A 1_555 1_555
H18A C12A 1_555 1_555
C13A C7A 1_555 1_555
H19A C13A 1_555 1_555
H20A C13A 1_555 1_555
C14A C9A 1_555 1_555
H21A C14A 1_555 1_555
H22A C14A 1_555 1_555
C15A N6A 1_555 1_555
C16A C15A 1_555 1_555
H23A C16A 1_555 1_555
H24A C16A 1_555 1_555
C17A C16A 1_555 1_555
H25A C17A 1_555 1_555
C18A C17A 1_555 1_555
H26A C18A 1_555 1_555
H27A C18A 1_555 1_555
C19A C18A 1_555 1_555
H28A C19A 1_555 1_555
C20A C15A 1_555 1_555
H29A C20A 1_555 1_555
H30A C20A 1_555 1_555
C21A C15A 1_555 1_555
H31A C21A 1_555 1_555
H32A C21A 1_555 1_555
C22A C9A 1_555 1_555
C23A C17A 1_555 1_555
H33A C23A 1_555 1_555
H34A C23A 1_555 1_555
C24A C19A 1_555 1_555
H35A C24A 1_555 1_555
H36A C24A 1_555 1_555
N3 C2 1_555 1_555
C9 C10 1_555 1_555
C12 C13 1_555 1_555
C12 C14 1_555 1_555
C19 C20 1_555 1_555
C21 C22 1_555 1_555
C22 C23 1_555 1_555
C22 C24 1_555 1_555
N6A C4A 1_555 1_555
C9A C10A 1_555 1_555
C12A C13A 1_555 1_555
C12A C14A 1_555 1_555
C19A C20A 1_555 1_555
C21A C22A 1_555 1_555
C22A C23A 1_555 1_555
C22A C24A 1_555 1_555

#END
