
#######################################################################
#
#                 Cambridge Crystallographic Data Centre
#                                CCDC 
#
#######################################################################
#
# If this CIF has been generated from an entry in the Cambridge 
# Structural Database, then it will include bibliographic, chemical, 
# crystal, experimental, refinement or atomic coordinate data resulting 
# from the CCDC's data processing and validation procedures.
#
#######################################################################

data_QUWWOV
_symmetry_cell_setting           monoclinic
_symmetry_space_group_name_H-M   'P 21/c'
_symmetry_Int_Tables_number      14
_space_group_name_Hall           '-P 2ybc'
loop_
_symmetry_equiv_pos_site_id
_symmetry_equiv_pos_as_xyz
1 x,y,z
2 -x,1/2+y,1/2-z
3 -x,-y,-z
4 x,1/2-y,1/2+z
_cell_length_a                   13.3937(4)
_cell_length_b                   7.0389(2)
_cell_length_c                   9.9710(2)
_cell_angle_alpha                90
_cell_angle_beta                 107.555(2)
_cell_angle_gamma                90
_cell_volume                     896.256
loop_
_atom_site_label
_atom_site_type_symbol
_atom_site_fract_x
_atom_site_fract_y
_atom_site_fract_z
Sr1 Sr 0.51212(4) 0.50850(7) 0.31083(6)
C1 C 0.2672(5) 0.1440(9) 0.4152(7)
H1 H 0.2840 0.1571 0.5195
C2 C 0.2706(5) -0.0700(10) 0.3831(7)
H2 H 0.2248 -0.1339 0.4323
C3 C 0.2256(6) -0.1219(10) 0.2281(7)
H3 H 0.2238 -0.2619 0.2176
H4 H 0.2709 -0.0697 0.1749
C4 C 0.1147(5) -0.0421(12) 0.1684(8)
H5 H 0.0887 -0.0686 0.0662
H6 H 0.0676 -0.1070 0.2137
C5 C 0.1114(6) 0.1702(11) 0.1925(8)
H7 H 0.0384 0.2160 0.1548
H8 H 0.1542 0.2363 0.1414
C6 C 0.1533(5) 0.2172(10) 0.3492(7)
H9 H 0.1072 0.1586 0.3989
H10 H 0.1517 0.3565 0.3619
C7 C 0.3426(5) 0.2733(9) 0.3694(7)
C8 C 0.3817(5) -0.1491(9) 0.4510(7)
O1 O 0.3679(3) 0.2369(6) 0.2596(5)
O2 O 0.3750(4) 0.4198(7) 0.4420(5)
O3 O 0.4409(4) -0.1796(7) 0.3749(5)
O4 O 0.4093(3) -0.1808(7) 0.5823(5)
Sr1A Sr 0.48788(4) 0.00850(7) 0.18917(6)
Sr1B Sr 0.48788(4) 0.49150(7) 0.68917(6)
Sr1_2 Sr 0.51212(4) -0.49150(7) 0.31083(6)
Sr1B_2 Sr 0.48788(4) -0.50850(7) 0.68917(6)
Sr1C Sr 0.51212(4) -0.00850(7) 0.81083(6)
O1A O 0.6321(3) 0.7369(6) 0.2404(5)
O2B O 0.6250(4) 0.5802(7) 0.5580(5)
O3_2 O 0.4409(4) 0.8204(7) 0.3749(5)
O3A O 0.5591(4) 0.3204(7) 0.1251(5)
O4B O 0.5907(3) 0.1808(7) 0.4177(5)
O4C O 0.4093(3) 0.6808(7) 0.0823(5)
loop_
_geom_bond_atom_site_label_1
_geom_bond_atom_site_label_2
_geom_bond_site_symmetry_1
_geom_bond_site_symmetry_2
Sr1 O1 1_555 1_555
C1 H1 1_555 1_555
C2 C1 1_555 1_555
H2 C2 1_555 1_555
C3 C2 1_555 1_555
H3 C3 1_555 1_555
H4 C3 1_555 1_555
C4 C3 1_555 1_555
H5 C4 1_555 1_555
H6 C4 1_555 1_555
C5 C4 1_555 1_555
H7 C5 1_555 1_555
H8 C5 1_555 1_555
C6 C1 1_555 1_555
H9 C6 1_555 1_555
H10 C6 1_555 1_555
C7 C1 1_555 1_555
C8 C2 1_555 1_555
O1 C7 1_555 1_555
O2 Sr1 1_555 1_555
O3 C8 1_555 1_555
O4 C8 1_555 1_555
Sr1A O1 1_555 1_555
Sr1B O2 1_555 1_555
Sr1_2 O3 1_555 1_555
Sr1B_2 O4 1_555 1_555
Sr1C O4 1_555 1_555
O1A Sr1 1_555 1_555
O2B Sr1 1_555 1_555
O3_2 Sr1 1_555 1_555
O3A Sr1 1_555 1_555
O4B Sr1 1_555 1_555
O4C Sr1 1_555 1_555
C5 C6 1_555 1_555
C7 O2 1_555 1_555
O3 Sr1A 1_555 1_555
Sr1A O3A 1_555 1_555
Sr1A O4B 1_555 1_555
Sr1B O2B 1_555 1_555

#END
