
#######################################################################
#
#                 Cambridge Crystallographic Data Centre
#                                CCDC 
#
#######################################################################
#
# If this CIF has been generated from an entry in the Cambridge 
# Structural Database, then it will include bibliographic, chemical, 
# crystal, experimental, refinement or atomic coordinate data resulting 
# from the CCDC's data processing and validation procedures.
#
#######################################################################

data_QUXHAT
_symmetry_cell_setting           monoclinic
_symmetry_space_group_name_H-M   'P 21/c'
_symmetry_Int_Tables_number      14
_space_group_name_Hall           '-P 2ybc'
loop_
_symmetry_equiv_pos_site_id
_symmetry_equiv_pos_as_xyz
1 x,y,z
2 -x,1/2+y,1/2-z
3 -x,-y,-z
4 x,1/2-y,1/2+z
_cell_length_a                   14.279(3)
_cell_length_b                   3.6000(7)
_cell_length_c                   13.300(3)
_cell_angle_alpha                90
_cell_angle_beta                 106.43(3)
_cell_angle_gamma                90
_cell_volume                     655.761
loop_
_atom_site_label
_atom_site_type_symbol
_atom_site_fract_x
_atom_site_fract_y
_atom_site_fract_z
C1 C 0.25443(8) 0.4711(3) 0.39664(9)
O1 O 0.32090(8) 0.2294(4) 0.26435(8)
N1 N 0.27984(8) 0.6065(3) 0.49343(8)
N2 N 0.08397(8) 0.5364(4) 0.38343(10)
N3 N 0.12597(9) 0.2931(4) 0.24154(10)
H1 H 0.0649 0.2745 0.2090
H2 H 0.1690 0.2235 0.2115
O2 O 0.42229(7) 0.4275(4) 0.41421(8)
C2 C 0.33887(9) 0.3657(4) 0.35429(10)
C3 C 0.15415(9) 0.4307(4) 0.33936(10)
C4 C 0.20958(10) 0.7070(4) 0.53653(11)
H3 H 0.2262 0.8010 0.6044
C5 C 0.11268(10) 0.6720(4) 0.48077(12)
H4 H 0.0653 0.7459 0.5123
Li1 Li 0.43334(19) 0.6091(9) 0.5591(2)
O3 O 0.44058(8) 1.0866(3) 0.64699(9)
H5 H 0.4986(11) 1.117(6) 0.6825(15)
H6 H 0.4047(13) 1.146(6) 0.6882(14)
O2B O 0.57771(7) 0.5725(4) 0.58579(8)
Li1B Li 0.56666(19) 0.3909(9) 0.4409(2)
Li1_2 Li 0.43334(19) 1.6091(9) 0.5591(2)
O3_2 O 0.44058(8) 0.0866(3) 0.64699(9)
H5_2 H 0.4986(11) 0.117(6) 0.6825(15)
H6_2 H 0.4047(13) 0.146(6) 0.6882(14)
loop_
_geom_bond_atom_site_label_1
_geom_bond_atom_site_label_2
_geom_bond_site_symmetry_1
_geom_bond_site_symmetry_2
C1 N1 1_555 1_555
O1 C2 1_555 1_555
N1 C4 1_555 1_555
N2 C3 1_555 1_555
N3 H1 1_555 1_555
H2 N3 1_555 1_555
O2 C2 1_555 1_555
C2 C1 1_555 1_555
C3 C1 1_555 1_555
C4 H3 1_555 1_555
C5 N2 1_555 1_555
H4 C5 1_555 1_555
Li1 N1 1_555 1_555
O3 Li1 1_555 1_555
H5 O3 1_555 1_555
H6 O3 1_555 1_555
O2B Li1 1_555 1_555
Li1B O2 1_555 1_555
Li1_2 O3 1_555 1_555
O3_2 Li1 1_555 1_555
H5_2 O3_2 1_555 1_555
H6_2 O3_2 1_555 1_555
N3 C3 1_555 1_555
O2 Li1 1_555 1_555
C4 C5 1_555 1_555
O2B Li1B 1_555 1_555

#END
