
#######################################################################
#
#                 Cambridge Crystallographic Data Centre
#                                CCDC 
#
#######################################################################
#
# If this CIF has been generated from an entry in the Cambridge 
# Structural Database, then it will include bibliographic, chemical, 
# crystal, experimental, refinement or atomic coordinate data resulting 
# from the CCDC's data processing and validation procedures.
#
#######################################################################

data_QUXLUR
_symmetry_cell_setting           monoclinic
_symmetry_space_group_name_H-M   'P 2/c'
_symmetry_Int_Tables_number      13
_space_group_name_Hall           '-P 2yc'
loop_
_symmetry_equiv_pos_site_id
_symmetry_equiv_pos_as_xyz
1 x,y,z
2 -x,y,1/2-z
3 -x,-y,-z
4 x,-y,1/2+z
_cell_length_a                   11.702(2)
_cell_length_b                   11.6391(18)
_cell_length_c                   13.424(2)
_cell_angle_alpha                90
_cell_angle_beta                 106.75(2)
_cell_angle_gamma                90
_cell_volume                     1750.78
loop_
_atom_site_label
_atom_site_type_symbol
_atom_site_fract_x
_atom_site_fract_y
_atom_site_fract_z
Mn1 Mn 0.5000 0.71119(6) 0.7500
N1 N 0.3018(2) 0.7070(3) 0.7479(3)
C1 C 0.2710(3) 0.6632(5) 0.8264(4)
H1 H 0.3317 0.6340 0.8829
C2 C 0.1544(4) 0.6575(5) 0.8310(4)
H2 H 0.1373 0.6249 0.8892
C3 C 0.0633(3) 0.7003(4) 0.7491(4)
C4 C 0.0940(3) 0.7447(5) 0.6646(4)
H3 H 0.0352 0.7725 0.6061
C5 C 0.2141(3) 0.7470(5) 0.6684(4)
H4 H 0.2346 0.7788 0.6115
N2 N 0.5000 0.9088(4) 0.7500
N3 N 0.5000 1.5156(3) 0.7500
C6 C 0.4781(4) 0.9689(3) 0.8272(4)
H5 H 0.4624 0.9285 0.8824
C7 C 0.4775(4) 1.0865(4) 0.8300(4)
H6 H 0.4619 1.1249 0.8862
C8 C 0.5000 1.1484(4) 0.7500
C9 C 0.4344(4) 1.4556(4) 0.6684(4)
H7 H 0.3880 1.4963 0.6104
C10 C 0.4314(4) 1.3368(4) 0.6652(4)
H8 H 0.3837 1.2982 0.6063
C11 C 0.5000 1.2758(4) 0.7500
N4 N 0.5534(3) 0.7169(3) 0.9196(3)
C12 C 0.6253(3) 0.6927(3) 0.9963(4)
S1 S 0.72754(14) 0.65840(19) 1.10210(13)
Mn1_2 Mn -0.5000 0.71119(6) 0.7500
Mn1_3 Mn 0.5000 1.71119(6) 0.7500
N1A N -0.3018(2) 0.7070(3) 0.7521(3)
N1A_2 N 0.6982(2) 0.7070(3) 0.7521(3)
C1A C -0.2710(3) 0.6632(5) 0.6736(4)
H1A H -0.3317 0.6340 0.6171
C2A C -0.1544(4) 0.6575(5) 0.6690(4)
H2A H -0.1373 0.6249 0.6108
C3A C -0.0633(3) 0.7003(4) 0.7509(4)
C4A C -0.0940(3) 0.7447(5) 0.8354(4)
H3A H -0.0352 0.7725 0.8939
C5A C -0.2141(3) 0.7470(5) 0.8316(4)
H4A H -0.2346 0.7788 0.8885
N3_2 N 0.5000 0.5156(3) 0.7500
C6A C 0.5219(4) 0.9689(3) 0.6728(4)
H5A H 0.5376 0.9285 0.6176
C7A C 0.5225(4) 1.0865(4) 0.6700(4)
H6A H 0.5381 1.1249 0.6138
C9A C 0.5656(4) 1.4556(4) 0.8316(4)
H7A H 0.6120 1.4963 0.8896
C10A C 0.5686(4) 1.3368(4) 0.8348(4)
H8A H 0.6163 1.2982 0.8937
N4A N 0.4466(3) 0.7169(3) 0.5804(3)
C12A C 0.3747(3) 0.6927(3) 0.5037(4)
S1A S 0.27246(14) 0.65840(19) 0.39790(13)
C13 C 0.0822(10) 0.3656(13) 0.6206(10)
H9 H 0.1479 0.4018 0.6020
H10 H 0.0756 0.3981 0.6853
H11 H 0.0086 0.3787 0.5659
C14 C 0.1059(12) 0.2324(15) 0.6347(9)
H12 H 0.1679 0.2177 0.7002
H13 H 0.0329 0.1930 0.6375
O1 O 0.1431(5) 0.1896(8) 0.5502(5)
C15 C 0.1686(9) 0.0670(10) 0.5534(11)
H14 H 0.0974 0.0238 0.5554
H15 H 0.2328 0.0489 0.6166
C16 C 0.2049(11) 0.0329(12) 0.4606(12)
H16 H 0.1368 0.0383 0.3991
H17 H 0.2341 -0.0456 0.4688
H18 H 0.2676 0.0837 0.4530
loop_
_geom_bond_atom_site_label_1
_geom_bond_atom_site_label_2
_geom_bond_site_symmetry_1
_geom_bond_site_symmetry_2
Mn1 N1 1_555 1_555
N1 C1 1_555 1_555
C1 H1 1_555 1_555
C2 C1 1_555 1_555
H2 C2 1_555 1_555
C3 C2 1_555 1_555
C4 C3 1_555 1_555
H3 C4 1_555 1_555
C5 N1 1_555 1_555
H4 C5 1_555 1_555
N2 Mn1 1_555 1_555
N3 C9 1_555 1_555
C6 N2 1_555 1_555
H5 C6 1_555 1_555
C7 C6 1_555 1_555
H6 C7 1_555 1_555
C8 C7 1_555 1_555
C9 H7 1_555 1_555
C10 C9 1_555 1_555
H8 C10 1_555 1_555
C11 C8 1_555 1_555
N4 Mn1 1_555 1_555
C12 N4 1_555 1_555
S1 C12 1_555 1_555
C13 H9 1_555 1_555
H10 C13 1_555 1_555
H11 C13 1_555 1_555
C14 C13 1_555 1_555
H12 C14 1_555 1_555
H13 C14 1_555 1_555
O1 C14 1_555 1_555
C15 O1 1_555 1_555
H14 C15 1_555 1_555
H15 C15 1_555 1_555
C16 C15 1_555 1_555
H16 C16 1_555 1_555
H17 C16 1_555 1_555
H18 C16 1_555 1_555
Mn1_2 N1A 1_555 1_555
Mn1_3 N3 1_555 1_555
N1A C1A 1_555 1_555
N1A_2 Mn1 1_555 1_555
C1A H1A 1_555 1_555
C2A C1A 1_555 1_555
H2A C2A 1_555 1_555
C3A C3 1_555 1_555
C4A C3A 1_555 1_555
H3A C4A 1_555 1_555
C5A N1A 1_555 1_555
H4A C5A 1_555 1_555
N3_2 Mn1 1_555 1_555
C6A N2 1_555 1_555
H5A C6A 1_555 1_555
C7A C8 1_555 1_555
H6A C7A 1_555 1_555
C9A N3 1_555 1_555
H7A C9A 1_555 1_555
C10A C11 1_555 1_555
H8A C10A 1_555 1_555
N4A Mn1 1_555 1_555
C12A N4A 1_555 1_555
S1A C12A 1_555 1_555
C4 C5 1_555 1_555
C10 C11 1_555 1_555
C2A C3A 1_555 1_555
C4A C5A 1_555 1_555
C6A C7A 1_555 1_555
C9A C10A 1_555 1_555

#END
