
#######################################################################
#
#                 Cambridge Crystallographic Data Centre
#                                CCDC 
#
#######################################################################
#
# If this CIF has been generated from an entry in the Cambridge 
# Structural Database, then it will include bibliographic, chemical, 
# crystal, experimental, refinement or atomic coordinate data resulting 
# from the CCDC's data processing and validation procedures.
#
#######################################################################

data_QUXMUS
_symmetry_cell_setting           triclinic
_symmetry_space_group_name_H-M   'P -1'
_symmetry_Int_Tables_number      2
_space_group_name_Hall           '-P 1'
loop_
_symmetry_equiv_pos_site_id
_symmetry_equiv_pos_as_xyz
1 x,y,z
2 -x,-y,-z
_cell_length_a                   9.851(2)
_cell_length_b                   11.130(2)
_cell_length_c                   18.319(4)
_cell_angle_alpha                90.38(3)
_cell_angle_beta                 98.88(3)
_cell_angle_gamma                115.89(3)
_cell_volume                     1779.08
loop_
_atom_site_label
_atom_site_type_symbol
_atom_site_fract_x
_atom_site_fract_y
_atom_site_fract_z
Zn1 Zn 0.42078(3) 0.23364(2) 0.254511(13)
N1 N 0.21801(19) 0.10323(18) 0.17515(9)
C1 C 0.1234(2) 0.1508(2) 0.14209(11)
H1 H 0.1526 0.2422 0.1492
C2 C -0.0162(2) 0.0710(2) 0.09761(12)
H2 H -0.0790 0.1081 0.0755
C3 C -0.0604(2) -0.0650(2) 0.08669(11)
C4 C 0.0375(3) -0.1155(2) 0.12028(14)
H3 H 0.0115 -0.2064 0.1141
C5 C 0.1747(3) -0.0276(2) 0.16317(14)
H4 H 0.2407 -0.0617 0.1850
S1 S -0.24164(6) -0.16230(6) 0.03032(3)
S2 S -0.24204(6) -0.34128(6) 0.00746(3)
C6 C -0.3406(2) -0.4474(2) 0.07251(11)
C7 C -0.3961(3) -0.4103(2) 0.12877(13)
H5 H -0.3824 -0.3226 0.1357
C8 C -0.4725(3) -0.5053(2) 0.17481(13)
H6 H -0.5116 -0.4795 0.2118
N2 N -0.4932(2) -0.63104(18) 0.16917(9)
C9 C -0.4425(2) -0.6675(2) 0.11302(12)
H7 H -0.4595 -0.7563 0.1069
C10 C -0.3665(2) -0.5801(2) 0.06409(12)
H8 H -0.3330 -0.6094 0.0260
N3 N 0.61670(19) 0.37405(18) 0.33457(10)
C11 C 0.5949(2) 0.4081(2) 0.40060(12)
H9 H 0.4977 0.3640 0.4128
C12 C 0.7090(2) 0.5050(2) 0.45119(12)
H10 H 0.6889 0.5262 0.4962
C13 C 0.8547(2) 0.5704(2) 0.43370(11)
C14 C 0.8780(2) 0.5378(2) 0.36502(12)
H11 H 0.9735 0.5818 0.3509
C15 C 0.7571(2) 0.4390(2) 0.31818(12)
H12 H 0.7740 0.4163 0.2726
S3 S 0.99682(6) 0.69153(6) 0.50235(3)
S4 S 1.20007(6) 0.72797(6) 0.47202(3)
C16 C 1.2462(2) 0.8675(2) 0.41869(11)
C17 C 1.1450(2) 0.9135(2) 0.38416(12)
H13 H 1.0420 0.8714 0.3883
C18 C 1.2001(2) 1.0225(2) 0.34368(13)
H14 H 1.1317 1.0540 0.3214
N4 N 1.34608(19) 1.08651(18) 0.33422(10)
C19 C 1.4430(2) 1.0421(2) 0.36901(12)
H15 H 1.5457 1.0869 0.3644
C20 C 1.3994(2) 0.9344(2) 0.41103(12)
H16 H 1.4707 0.9066 0.4339
O1 O 0.29666(17) 0.33877(16) 0.27800(8)
O2 O 0.2410(2) 0.3097(2) 0.39220(9)
C21 C 0.2319(3) 0.3518(2) 0.33031(13)
C22 C 0.1335(4) 0.4250(4) 0.31603(16)
H17 H 0.0295 0.3630 0.3204
H18 H 0.1692 0.4966 0.3551
C23 C 0.1282(3) 0.4843(3) 0.24333(15)
C24 C 0.2307(3) 0.6123(3) 0.23429(19)
H19 H 0.3012 0.6656 0.2750
C25 C 0.2315(5) 0.6642(4) 0.1657(2)
H20 H 0.3032 0.7509 0.1605
C26 C 0.1280(6) 0.5887(6) 0.1063(2)
H21 H 0.1294 0.6230 0.0601
C27 C 0.0224(5) 0.4634(5) 0.1139(2)
H22 H -0.0500 0.4121 0.0732
C28 C 0.0224(4) 0.4120(3) 0.18197(19)
H23 H -0.0513 0.3259 0.1866
O3 O 0.57013(19) 0.14005(17) 0.23618(8)
O4 O 0.5095(3) 0.0218(2) 0.12864(11)
C29 C 0.5861(3) 0.0632(2) 0.19184(13)
C30 C 0.7158(4) 0.0237(3) 0.21550(17)
H24 H 0.7119 -0.0377 0.1765
H25 H 0.8123 0.1035 0.2188
C31 C 0.7172(3) -0.0404(3) 0.28744(15)
C32 C 0.6281(3) -0.1760(3) 0.28977(17)
H26 H 0.5654 -0.2267 0.2466
C33 C 0.6295(4) -0.2379(3) 0.35429(19)
H27 H 0.5680 -0.3294 0.3543
C34 C 0.7211(4) -0.1654(3) 0.41871(18)
H28 H 0.7226 -0.2070 0.4625
C35 C 0.8096(4) -0.0319(3) 0.41752(18)
H29 H 0.8717 0.0182 0.4610
C36 C 0.8088(3) 0.0305(3) 0.35277(17)
H30 H 0.8710 0.1219 0.3532
Zn1_2 Zn -0.57922(3) -0.76636(2) 0.254511(13)
Zn1_3 Zn 1.42078(3) 1.23364(2) 0.254511(13)
N2_2 N 0.5068(2) 0.36896(18) 0.16917(9)
N4_2 N 0.34608(19) 0.08651(18) 0.33422(10)
O5 O 0.3132(3) -0.1386(2) -0.00858(12)
H31 H 0.3720 -0.0885 -0.0334
H32 H 0.3676 -0.1044 0.0305
loop_
_geom_bond_atom_site_label_1
_geom_bond_atom_site_label_2
_geom_bond_site_symmetry_1
_geom_bond_site_symmetry_2
Zn1 N1 1_555 1_555
N1 C1 1_555 1_555
C1 H1 1_555 1_555
C2 C1 1_555 1_555
H2 C2 1_555 1_555
C3 C2 1_555 1_555
C4 C3 1_555 1_555
H3 C4 1_555 1_555
C5 N1 1_555 1_555
H4 C5 1_555 1_555
S1 C3 1_555 1_555
S2 S1 1_555 1_555
C6 S2 1_555 1_555
C7 C6 1_555 1_555
H5 C7 1_555 1_555
C8 C7 1_555 1_555
H6 C8 1_555 1_555
N2 C8 1_555 1_555
C9 N2 1_555 1_555
H7 C9 1_555 1_555
C10 C6 1_555 1_555
H8 C10 1_555 1_555
N3 Zn1 1_555 1_555
C11 N3 1_555 1_555
H9 C11 1_555 1_555
C12 C11 1_555 1_555
H10 C12 1_555 1_555
C13 C12 1_555 1_555
C14 C13 1_555 1_555
H11 C14 1_555 1_555
C15 N3 1_555 1_555
H12 C15 1_555 1_555
S3 C13 1_555 1_555
S4 S3 1_555 1_555
C16 S4 1_555 1_555
C17 C16 1_555 1_555
H13 C17 1_555 1_555
C18 C17 1_555 1_555
H14 C18 1_555 1_555
N4 C18 1_555 1_555
C19 N4 1_555 1_555
H15 C19 1_555 1_555
C20 C16 1_555 1_555
H16 C20 1_555 1_555
O1 Zn1 1_555 1_555
O2 C21 1_555 1_555
C21 O1 1_555 1_555
C22 C21 1_555 1_555
H17 C22 1_555 1_555
H18 C22 1_555 1_555
C23 C22 1_555 1_555
C24 C23 1_555 1_555
H19 C24 1_555 1_555
C25 C24 1_555 1_555
H20 C25 1_555 1_555
C26 C25 1_555 1_555
H21 C26 1_555 1_555
C27 C26 1_555 1_555
H22 C27 1_555 1_555
C28 C23 1_555 1_555
H23 C28 1_555 1_555
O3 Zn1 1_555 1_555
O4 C29 1_555 1_555
C29 O3 1_555 1_555
C30 C29 1_555 1_555
H24 C30 1_555 1_555
H25 C30 1_555 1_555
C31 C30 1_555 1_555
C32 C31 1_555 1_555
H26 C32 1_555 1_555
C33 C32 1_555 1_555
H27 C33 1_555 1_555
C34 C33 1_555 1_555
H28 C34 1_555 1_555
C35 C34 1_555 1_555
H29 C35 1_555 1_555
C36 C31 1_555 1_555
H30 C36 1_555 1_555
O5 H31 1_555 1_555
H32 O5 1_555 1_555
Zn1_2 N2 1_555 1_555
Zn1_3 N4 1_555 1_555
N2_2 Zn1 1_555 1_555
N4_2 Zn1 1_555 1_555
C4 C5 1_555 1_555
C9 C10 1_555 1_555
C14 C15 1_555 1_555
C19 C20 1_555 1_555
C27 C28 1_555 1_555
C35 C36 1_555 1_555

#END
