
#######################################################################
#
#                 Cambridge Crystallographic Data Centre
#                                CCDC 
#
#######################################################################
#
# If this CIF has been generated from an entry in the Cambridge 
# Structural Database, then it will include bibliographic, chemical, 
# crystal, experimental, refinement or atomic coordinate data resulting 
# from the CCDC's data processing and validation procedures.
#
#######################################################################

data_QUXNON
_symmetry_cell_setting           triclinic
_symmetry_space_group_name_H-M   'P -1'
_symmetry_Int_Tables_number      2
_space_group_name_Hall           '-P 1'
loop_
_symmetry_equiv_pos_site_id
_symmetry_equiv_pos_as_xyz
1 x,y,z
2 -x,-y,-z
_cell_length_a                   8.2616(8)
_cell_length_b                   8.3138(8)
_cell_length_c                   10.2350(10)
_cell_angle_alpha                67.017(2)
_cell_angle_beta                 68.176(2)
_cell_angle_gamma                81.054(2)
_cell_volume                     600.763
loop_
_atom_site_label
_atom_site_type_symbol
_atom_site_fract_x
_atom_site_fract_y
_atom_site_fract_z
Cd1 Cd 0.08672(3) 0.32297(3) 0.90289(3)
O1 O -0.0532(4) 0.6070(4) 0.8593(3)
O2 O 0.0672(4) 0.8334(4) 0.8475(3)
O3 O 0.1082(4) 0.7617(4) 0.1628(3)
O4 O -0.1232(4) 0.6718(4) 0.3685(3)
O5 O 0.2389(4) 0.0533(4) 0.9029(4)
H1 H 0.209(10) 0.017(10) 0.849(9)
H2 H 0.211(10) -0.024(10) 0.994(9)
N1 N 0.3422(4) 0.4507(4) 0.8114(4)
N2 N 0.5999(5) 0.5524(5) 0.6516(4)
H3 H 0.687(9) 0.587(9) 0.570(8)
C1 C 0.0393(5) 0.7429(5) 0.7840(4)
C2 C 0.1174(5) 0.7962(5) 0.6165(4)
C3 C 0.2660(5) 0.8979(5) 0.5366(4)
H4 H 0.3153 0.9372 0.5868
C4 C 0.3406(5) 0.9406(6) 0.3814(5)
H5 H 0.4428 1.0048 0.3284
C5 C 0.2642(5) 0.8885(5) 0.3047(4)
H6 H 0.3145 0.9184 0.2006
C6 C 0.0251(5) 0.7384(5) 0.3016(4)
C7 C 0.0420(4) 0.7439(4) 0.5394(4)
H7 H -0.0575 0.6757 0.5930
C8 C 0.4652(6) 0.4570(6) 0.6844(5)
H8 H 0.4592 0.4010 0.6235
C9 C 0.4032(6) 0.5481(6) 0.8641(5)
H9 H 0.3441 0.5688 0.9532
C10 C 0.5632(6) 0.6097(7) 0.7663(6)
H10 H 0.6338 0.6779 0.7762
C11 C 0.1121(5) 0.7914(5) 0.3837(4)
Cd1A Cd -0.08672(3) 0.67703(3) 1.09711(3)
Cd1A_2 Cd -0.08672(3) 0.67703(3) 0.09711(3)
O1A O 0.0532(4) 0.3930(4) 1.1407(3)
O2A O -0.0672(4) 0.1666(4) 1.1525(3)
O3A O -0.1082(4) 0.2383(4) 0.8372(3)
O4A O 0.1232(4) 0.3282(4) 0.6315(3)
loop_
_geom_bond_atom_site_label_1
_geom_bond_atom_site_label_2
_geom_bond_site_symmetry_1
_geom_bond_site_symmetry_2
Cd1 O1 1_555 1_555
O1 C1 1_555 1_555
O2 C1 1_555 1_555
O3 C6 1_555 1_555
O4 C6 1_555 1_555
O5 Cd1 1_555 1_555
H1 O5 1_555 1_555
H2 O5 1_555 1_555
N1 Cd1 1_555 1_555
N2 H3 1_555 1_555
C1 C2 1_555 1_555
C2 C3 1_555 1_555
C3 H4 1_555 1_555
C4 C3 1_555 1_555
H5 C4 1_555 1_555
C5 C4 1_555 1_555
H6 C5 1_555 1_555
C6 C11 1_555 1_555
C7 C2 1_555 1_555
H7 C7 1_555 1_555
C8 N1 1_555 1_555
H8 C8 1_555 1_555
C9 N1 1_555 1_555
H9 C9 1_555 1_555
C10 N2 1_555 1_555
H10 C10 1_555 1_555
C11 C5 1_555 1_555
Cd1A O1 1_555 1_555
Cd1A_2 O3 1_555 1_555
O1A Cd1 1_555 1_555
O2A Cd1 1_555 1_555
O3A Cd1 1_555 1_555
O4A Cd1 1_555 1_555
O2 Cd1A 1_555 1_555
O4 Cd1A_2 1_555 1_555
N2 C8 1_555 1_555
C7 C11 1_555 1_555
C9 C10 1_555 1_555
Cd1A O1A 1_555 1_555

#END
