
#######################################################################
#
#                 Cambridge Crystallographic Data Centre
#                                CCDC 
#
#######################################################################
#
# If this CIF has been generated from an entry in the Cambridge 
# Structural Database, then it will include bibliographic, chemical, 
# crystal, experimental, refinement or atomic coordinate data resulting 
# from the CCDC's data processing and validation procedures.
#
#######################################################################

data_QUXWUC
_symmetry_cell_setting           monoclinic
_symmetry_space_group_name_H-M   'P 21/c'
_symmetry_Int_Tables_number      14
_space_group_name_Hall           '-P 2ybc'
loop_
_symmetry_equiv_pos_site_id
_symmetry_equiv_pos_as_xyz
1 x,y,z
2 -x,1/2+y,1/2-z
3 -x,-y,-z
4 x,1/2-y,1/2+z
_cell_length_a                   7.0891(14)
_cell_length_b                   10.122(2)
_cell_length_c                   12.685(4)
_cell_angle_alpha                90
_cell_angle_beta                 113.08(2)
_cell_angle_gamma                90
_cell_volume                     837.367
loop_
_atom_site_label
_atom_site_type_symbol
_atom_site_fract_x
_atom_site_fract_y
_atom_site_fract_z
Co1 Co 0.30993(8) -0.38921(6) -0.53843(5)
O1 O 0.2961(5) -0.4313(3) -0.3763(3)
N1 N 0.3036(6) -0.1727(4) -0.1987(3)
N2 N 0.3051(6) -0.3027(4) -0.2197(3)
N3 N 0.2971(5) -0.3160(4) -0.3251(3)
N4 N 0.2849(6) -0.1814(4) -0.4803(3)
N5 N 0.3650(6) -0.5988(4) -0.5436(3)
N6 N 0.2624(6) -0.6837(4) -0.6055(3)
N7 N 0.1639(8) -0.7656(5) -0.6637(4)
C1 C 0.2719(7) -0.0579(5) -0.5091(4)
H1 H 0.2669 -0.0371 -0.5816
C2 C 0.2650(9) 0.0474(5) -0.4373(4)
H2 H 0.2529 0.1337 -0.4644
C3 C 0.2756(8) 0.0249(5) -0.3296(4)
H3 H 0.2724 0.0936 -0.2817
C4 C 0.2914(7) -0.1065(5) -0.2948(4)
C5 C 0.2908(6) -0.1985(4) -0.3742(3)
O2 O -0.0066(6) -0.3972(5) -0.6162(4)
H4 H -0.045(10) -0.364(7) -0.673(6)
H5 H -0.078(12) -0.466(8) -0.626(7)
Co1C Co 0.30993(8) -0.11079(6) -0.03843(5)
Co1B Co 0.69007(8) -0.61079(6) -0.46157(5)
N1C N 0.3036(6) -0.3273(4) -0.6987(3)
N5B N 0.6350(6) -0.4012(4) -0.4564(3)
loop_
_geom_bond_atom_site_label_1
_geom_bond_atom_site_label_2
_geom_bond_site_symmetry_1
_geom_bond_site_symmetry_2
Co1 O1 1_555 1_555
O1 N3 1_555 1_555
N1 N2 1_555 1_555
N2 N3 1_555 1_555
N3 C5 1_555 1_555
N4 Co1 1_555 1_555
N5 Co1 1_555 1_555
N6 N5 1_555 1_555
N7 N6 1_555 1_555
C1 N4 1_555 1_555
H1 C1 1_555 1_555
C2 C1 1_555 1_555
H2 C2 1_555 1_555
C3 C2 1_555 1_555
H3 C3 1_555 1_555
C4 N1 1_555 1_555
C5 N4 1_555 1_555
O2 Co1 1_555 1_555
H4 O2 1_555 1_555
H5 O2 1_555 1_555
Co1C N1 1_555 1_555
Co1B N5 1_555 1_555
N1C Co1 1_555 1_555
N5B Co1 1_555 1_555
C3 C4 1_555 1_555
C4 C5 1_555 1_555
Co1B N5B 1_555 1_555

#END
