
#######################################################################
#
#                 Cambridge Crystallographic Data Centre
#                                CCDC 
#
#######################################################################
#
# If this CIF has been generated from an entry in the Cambridge 
# Structural Database, then it will include bibliographic, chemical, 
# crystal, experimental, refinement or atomic coordinate data resulting 
# from the CCDC's data processing and validation procedures.
#
#######################################################################

data_QUYCET
_symmetry_cell_setting           monoclinic
_symmetry_space_group_name_H-M   'C 2/c'
_symmetry_Int_Tables_number      15
_space_group_name_Hall           '-C 2yn'
loop_
_symmetry_equiv_pos_site_id
_symmetry_equiv_pos_as_xyz
1 x,y,z
2 -x,y,1/2-z
3 1/2+x,1/2+y,z
4 1/2-x,1/2+y,1/2-z
5 -x,-y,-z
6 x,-y,1/2+z
7 1/2-x,1/2-y,-z
8 1/2+x,1/2-y,1/2+z
_cell_length_a                   11.7570(11)
_cell_length_b                   7.2121(7)
_cell_length_c                   17.4547(16)
_cell_angle_alpha                90
_cell_angle_beta                 93.4710(10)
_cell_angle_gamma                90
_cell_volume                     1477.32
loop_
_atom_site_label
_atom_site_type_symbol
_atom_site_fract_x
_atom_site_fract_y
_atom_site_fract_z
Ba1 Ba 0.332689(13) 0.35356(2) 0.305017(8)
N1 N 0.44887(19) 0.2899(3) 0.45739(13)
O1 O 0.55983(18) 0.2658(3) 0.32482(11)
O2 O 0.68945(17) 0.0756(3) 0.38112(12)
O3 O 0.69395(18) 0.0151(3) 0.67349(12)
O4 O 0.63043(17) 0.2757(3) 0.72435(11)
C1 C 0.5531(2) 0.2109(4) 0.45821(15)
C2 C 0.6129(2) 0.1626(3) 0.52576(17)
H1 H 0.6828 0.1027 0.5245
C3 C 0.5685(2) 0.2036(4) 0.59553(15)
C4 C 0.4620(2) 0.2887(4) 0.59501(16)
H2 H 0.4299 0.3208 0.6406
C5 C 0.4053(2) 0.3242(4) 0.52447(17)
H3 H 0.3326 0.3749 0.5241
C6 C 0.6053(2) 0.1797(4) 0.38175(17)
C7 C 0.6353(2) 0.1607(3) 0.67076(16)
Ba1A Ba 0.667311(13) 0.35356(2) 0.194983(8)
Ba1B Ba 0.832689(13) -0.14644(2) 0.305017(8)
Ba1D Ba 0.667311(13) -0.35356(2) 0.694983(8)
Ba1G Ba 0.832689(13) 0.14644(2) 0.805017(8)
Ba1D_2 Ba 0.667311(13) 0.64644(2) 0.694983(8)
O1A O 0.44017(18) 0.2658(3) 0.17518(11)
O2B O 0.18945(17) 0.5756(3) 0.38112(12)
O3D O 0.30605(18) -0.0151(3) 0.32651(12)
O3G O 0.19395(18) 0.4849(3) 0.17349(12)
O4D O 0.36957(17) 0.7243(3) 0.27565(11)
O4G O 0.13043(17) 0.2243(3) 0.22435(11)
loop_
_geom_bond_atom_site_label_1
_geom_bond_atom_site_label_2
_geom_bond_site_symmetry_1
_geom_bond_site_symmetry_2
Ba1 N1 1_555 1_555
N1 C1 1_555 1_555
O1 Ba1 1_555 1_555
O2 C6 1_555 1_555
O3 C7 1_555 1_555
O4 C7 1_555 1_555
C1 C2 1_555 1_555
C2 H1 1_555 1_555
C3 C2 1_555 1_555
C4 C3 1_555 1_555
H2 C4 1_555 1_555
C5 N1 1_555 1_555
H3 C5 1_555 1_555
C6 O1 1_555 1_555
C7 C3 1_555 1_555
Ba1A O1 1_555 1_555
Ba1B O2 1_555 1_555
Ba1D O3 1_555 1_555
Ba1G O3 1_555 1_555
Ba1D_2 O4 1_555 1_555
O1A Ba1 1_555 1_555
O2B Ba1 1_555 1_555
O3D Ba1 1_555 1_555
O3G Ba1 1_555 1_555
O4D Ba1 1_555 1_555
O4G Ba1 1_555 1_555
O4 Ba1G 1_555 1_555
C1 C6 1_555 1_555
C4 C5 1_555 1_555
Ba1A O1A 1_555 1_555

#END
