
#######################################################################
#
#                 Cambridge Crystallographic Data Centre
#                                CCDC 
#
#######################################################################
#
# If this CIF has been generated from an entry in the Cambridge 
# Structural Database, then it will include bibliographic, chemical, 
# crystal, experimental, refinement or atomic coordinate data resulting 
# from the CCDC's data processing and validation procedures.
#
#######################################################################

data_RABBUS
_symmetry_cell_setting           triclinic
_symmetry_space_group_name_H-M   'P -1'
_symmetry_Int_Tables_number      2
_space_group_name_Hall           '-P 1'
loop_
_symmetry_equiv_pos_site_id
_symmetry_equiv_pos_as_xyz
1 x,y,z
2 -x,-y,-z
_cell_length_a                   8.3841(2)
_cell_length_b                   9.2406(2)
_cell_length_c                   13.7990(4)
_cell_angle_alpha                87.9370(10)
_cell_angle_beta                 86.2090(10)
_cell_angle_gamma                67.2040(10)
_cell_volume                     983.342
loop_
_atom_site_label
_atom_site_type_symbol
_atom_site_fract_x
_atom_site_fract_y
_atom_site_fract_z
C1 C 1.1441(6) -0.1598(6) 0.0810(4)
H1 H 1.2412 -0.2399 0.1128
H2 H 1.1373 -0.0552 0.0976
H3 H 1.162 -0.1731 0.0105
C2 C 0.9789(6) -0.1768(5) 0.1148(3)
C3 C 0.8466(7) -0.0610(6) 0.1687(4)
C4 C 0.6786(6) -0.2044(5) 0.1689(3)
C5 C 0.8105(6) -0.3222(5) 0.1177(3)
C6 C 0.7930(6) -0.4700(5) 0.0915(4)
C7 C 0.8103(7) -0.5803(6) 0.2834(3)
C8 C 0.8707(6) -0.4752(5) 0.3376(3)
C9 C 0.7583(7) -0.3667(5) 0.4033(3)
C10 C 0.9762(6) -0.2939(5) 0.4423(3)
C11 C 1.0918(6) -0.4008(5) 0.3782(3)
C12 C 1.2755(6) -0.4180(6) 0.3635(4)
H4 H 1.3518 -0.5272 0.3763
H5 H 1.298 -0.3489 0.4081
H6 H 1.2977 -0.3894 0.2963
Cu1 Cu 0.49827(8) 0.11271(7) 0.26196(4)
Cu2 Cu 0.35688(7) 0.09561(6) 0.45966(4)
Cu3 Cu 0.18285(7) 0.34367(7) 0.22138(4)
I1 I 0.64010(4) 0.14716(3) 0.42401(2)
I2 I 0.22126(4) 0.04860(3) 0.30582(2)
I3 I 0.45453(4) 0.33612(4) 0.13030(2)
N1 N 0.6972(5) -0.0741(4) 0.1955(3)
N2 N 0.9595(5) -0.3073(4) 0.0903(3)
N3 N 0.8104(5) -0.2759(4) 0.4559(3)
N4 N 1.0377(5) -0.4942(4) 0.3252(3)
S1 S 0.91751(15) -0.63999(13) 0.16421(8)
H7 H 0.865(7) 0.043(6) 0.187(4)
H8 H 0.570(6) -0.211(5) 0.184(3)
H9 H 0.836(8) -0.503(7) 0.024(5)
H10 H 0.686(5) -0.462(4) 0.099(3)
H11 H 0.827(8) -0.670(7) 0.319(4)
H12 H 0.692(6) -0.534(5) 0.273(3)
H13 H 0.646(6) -0.354(5) 0.412(3)
H14 H 1.026(6) -0.238(6) 0.477(4)
I1A I 0.35990(4) -0.14716(3) 0.57599(2)
N3A N 0.1896(5) 0.2759(4) 0.5441(3)
N4_2 N 0.0377(5) 0.5058(4) 0.3252(3)
S1_2 S -0.08249(15) 0.36001(13) 0.16421(8)
Cu2A Cu 0.64312(7) -0.09561(6) 0.54034(4)
Cu3_2 Cu 1.18285(7) -0.65633(7) 0.22138(4)
loop_
_geom_bond_atom_site_label_1
_geom_bond_atom_site_label_2
_geom_bond_site_symmetry_1
_geom_bond_site_symmetry_2
C1 H1 1_555 1_555
H2 C1 1_555 1_555
H3 C1 1_555 1_555
C2 C1 1_555 1_555
C3 C2 1_555 1_555
C4 C5 1_555 1_555
C5 C6 1_555 1_555
C6 S1 1_555 1_555
C7 C8 1_555 1_555
C8 C9 1_555 1_555
C9 N3 1_555 1_555
C10 C11 1_555 1_555
C11 C12 1_555 1_555
C12 H4 1_555 1_555
H5 C12 1_555 1_555
H6 C12 1_555 1_555
Cu1 I1 1_555 1_555
Cu2 I1 1_555 1_555
Cu3 I2 1_555 1_555
I1 Cu2A 1_555 1_555
I2 Cu1 1_555 1_555
I3 Cu1 1_555 1_555
N1 C3 1_555 1_555
N2 C2 1_555 1_555
N3 C10 1_555 1_555
N4 C8 1_555 1_555
S1 C7 1_555 1_555
H7 C3 1_555 1_555
H8 C4 1_555 1_555
H9 C6 1_555 1_555
H10 C6 1_555 1_555
H11 C7 1_555 1_555
H12 C7 1_555 1_555
H13 C9 1_555 1_555
H14 C10 1_555 1_555
I1A Cu2 1_555 1_555
N3A Cu2 1_555 1_555
N4_2 Cu3 1_555 1_555
S1_2 Cu3 1_555 1_555
Cu2A N3 1_555 1_555
Cu3_2 N4 1_555 1_555
C4 N1 1_555 1_555
C5 N2 1_555 1_555
C11 N4 1_555 1_555
Cu1 N1 1_555 1_555
Cu2 I2 1_555 1_555
Cu3 I3 1_555 1_555
S1 Cu3_2 1_555 1_555
I1A Cu2A 1_555 1_555

#END
