
#######################################################################
#
#                 Cambridge Crystallographic Data Centre
#                                CCDC 
#
#######################################################################
#
# If this CIF has been generated from an entry in the Cambridge 
# Structural Database, then it will include bibliographic, chemical, 
# crystal, experimental, refinement or atomic coordinate data resulting 
# from the CCDC's data processing and validation procedures.
#
#######################################################################

data_RABFOR
_symmetry_cell_setting           monoclinic
_symmetry_space_group_name_H-M   'P 21/n'
_symmetry_Int_Tables_number      14
_space_group_name_Hall           '-P 2yn'
loop_
_symmetry_equiv_pos_site_id
_symmetry_equiv_pos_as_xyz
1 x,y,z
2 1/2-x,1/2+y,1/2-z
3 -x,-y,-z
4 1/2+x,1/2-y,1/2+z
_cell_length_a                   9.0601(7)
_cell_length_b                   15.7299(12)
_cell_length_c                   10.5108(8)
_cell_angle_alpha                90
_cell_angle_beta                 106.3940(10)
_cell_angle_gamma                90
_cell_volume                     1437.04
loop_
_atom_site_label
_atom_site_type_symbol
_atom_site_fract_x
_atom_site_fract_y
_atom_site_fract_z
U1 U 0.773773(18) 0.127968(10) 0.955965(15)
U2 U 0.779612(18) 0.127104(10) 1.551462(15)
O1 O 0.8443(4) 0.21178(19) 1.3777(3)
O2 O 0.8421(4) 0.04374(19) 1.3742(3)
O3 O 0.7635(4) -0.02216(19) 0.5946(3)
C1 C 0.7575(6) -0.0764(3) 0.6806(5)
O4 O 0.7328(4) -0.22421(19) 0.9013(3)
C2 C 0.7446(6) -0.1697(3) 0.8167(5)
O5 O 0.9723(4) 0.1287(2) 1.6517(3)
O6 O 0.5874(4) 0.1264(2) 1.4487(3)
O7 O 0.6835(4) 0.12518(18) 0.7304(3)
C3 C 0.8452(5) 0.1775(3) 1.2707(5)
C4 C 0.8483(5) 0.0797(3) 1.2700(5)
O8 O 0.8441(4) 0.21373(19) 1.1640(3)
O9 O 0.8542(4) 0.0465(2) 1.1625(3)
O10 O 0.7488(4) -0.02145(19) 0.9049(3)
C5 C 0.7521(6) -0.0760(3) 0.8189(4)
O11 O 0.7530(4) -0.22373(19) 0.5930(3)
C6 C 0.7514(6) -0.1695(3) 0.6799(5)
O12 O 0.9656(4) 0.1302(2) 0.9455(3)
O13 O 0.5835(4) 0.1249(2) 0.9697(3)
U1A U 0.726227(18) -0.372032(10) 0.544035(15)
U2_2 U 0.779612(18) 0.127104(10) 0.551462(15)
U2A U 0.720388(18) -0.372896(10) 0.948538(15)
O3_2 O 0.7635(4) -0.02216(19) 1.5946(3)
O4A O 0.7672(4) 0.27579(19) 1.5987(3)
O7_2 O 0.6835(4) 0.12518(18) 1.7304(3)
O11A O 0.7470(4) 0.27627(19) 0.9070(3)
N1 N 0.3769(4) 0.1097(2) 1.6482(3)
O14 O 0.7491(3) -0.11856(17) 1.1360(3)
loop_
_geom_bond_atom_site_label_1
_geom_bond_atom_site_label_2
_geom_bond_site_symmetry_1
_geom_bond_site_symmetry_2
U1 O7 1_555 1_555
U2 O1 1_555 1_555
O1 C3 1_555 1_555
O2 U2 1_555 1_555
O3 C1 1_555 1_555
C1 C5 1_555 1_555
O4 C2 1_555 1_555
C2 C5 1_555 1_555
O5 U2 1_555 1_555
O6 U2 1_555 1_555
O7 U2_2 1_555 1_555
C3 C4 1_555 1_555
C4 O2 1_555 1_555
O8 U1 1_555 1_555
O9 U1 1_555 1_555
O10 U1 1_555 1_555
C5 O10 1_555 1_555
O11 C6 1_555 1_555
C6 C1 1_555 1_555
O12 U1 1_555 1_555
O13 U1 1_555 1_555
U1A O11 1_555 1_555
U2_2 O3 1_555 1_555
U2A O4 1_555 1_555
O3_2 U2 1_555 1_555
O4A U2 1_555 1_555
O7_2 U2 1_555 1_555
O11A U1 1_555 1_555
C2 C6 1_555 1_555
C3 O8 1_555 1_555
C4 O9 1_555 1_555

#END
