
#######################################################################
#
#                 Cambridge Crystallographic Data Centre
#                                CCDC 
#
#######################################################################
#
# If this CIF has been generated from an entry in the Cambridge 
# Structural Database, then it will include bibliographic, chemical, 
# crystal, experimental, refinement or atomic coordinate data resulting 
# from the CCDC's data processing and validation procedures.
#
#######################################################################

data_RABFEH
_symmetry_cell_setting           monoclinic
_symmetry_space_group_name_H-M   'P 21/c'
_symmetry_Int_Tables_number      14
_space_group_name_Hall           '-P 2ybc'
loop_
_symmetry_equiv_pos_site_id
_symmetry_equiv_pos_as_xyz
1 x,y,z
2 -x,1/2+y,1/2-z
3 -x,-y,-z
4 x,1/2-y,1/2+z
_cell_length_a                   16.731(17)
_cell_length_b                   7.280(8)
_cell_length_c                   15.872(16)
_cell_angle_alpha                90
_cell_angle_beta                 113.294(16)
_cell_angle_gamma                90
_cell_volume                     1775.65
loop_
_atom_site_label
_atom_site_type_symbol
_atom_site_fract_x
_atom_site_fract_y
_atom_site_fract_z
U1 U 0.247069(8) 0.70572(2) 0.120513(9)
O1 O 0.16329(17) 0.4327(4) 0.07160(18)
O2 O 0.33314(18) 0.4524(4) 0.20499(19)
O3 O 0.10803(17) 0.7974(4) 0.00660(18)
O4 O 0.28657(18) 0.6716(4) 0.03324(18)
O5 O 0.20612(18) 0.7352(4) 0.20706(18)
C1 C 0.1791(2) 0.3181(6) 0.0184(3)
C2 C 0.2177(2) 0.1400(6) 0.0309(3)
O6 O 0.24858(19) 0.0314(4) 0.09966(19)
C3 C 0.2058(3) 0.1331(6) -0.0657(3)
O7 O 0.22302(19) 0.0251(4) -0.11722(18)
C4 C 0.1638(3) 0.3196(6) -0.0789(3)
O8 O 0.1306(2) 0.4283(5) -0.1435(2)
C5 C 0.4122(3) 0.4126(6) 0.2230(3)
C6 C 0.5414(3) 0.3545(6) 0.2555(3)
O9 O 0.62000(18) 0.3234(4) 0.27145(19)
C7 C 0.4832(7) 0.3403(13) 0.3039(7)
O10 O 0.4913(4) 0.2909(10) 0.3815(4)
C8 C 0.4700(5) 0.4340(15) 0.1749(5)
O11 O 0.4644(4) 0.4941(9) 0.0990(4)
C9 C 0.0236(2) 1.0068(6) 0.0718(3)
C10 C 0.0491(2) 0.9104(6) 0.0052(2)
O12 O 0.04935(19) 1.0199(5) 0.15663(18)
U1_2 U 0.247069(8) -0.29428(2) 0.120513(9)
U1A U 0.752931(8) 0.20572(2) 0.379487(9)
U1B U -0.247069(8) 1.29428(2) -0.120513(9)
U1B_2 U -0.247069(8) 2.29428(2) -0.120513(9)
U1C U -0.752931(8) 1.79428(2) -0.379487(9)
O1B O -0.16329(17) 1.5673(4) -0.07160(18)
O2B O -0.33314(18) 1.5476(4) -0.20499(19)
O3B O -0.10803(17) 1.2026(4) -0.00660(18)
O4B O -0.28657(18) 1.3284(4) -0.03324(18)
O5B O -0.20612(18) 1.2648(4) -0.20706(18)
C1B C -0.1791(2) 1.6819(6) -0.0184(3)
C2B C -0.2177(2) 1.8600(6) -0.0309(3)
O6_2 O 0.24858(19) 1.0314(4) 0.09966(19)
O6B O -0.24858(19) 0.9686(4) -0.09966(19)
O6B_2 O -0.24858(19) 1.9686(4) -0.09966(19)
C3B C -0.2058(3) 1.8669(6) 0.0657(3)
O7B O -0.22302(19) 1.9749(4) 0.11722(18)
C4B C -0.1638(3) 1.6804(6) 0.0789(3)
O8B O -0.1306(2) 1.5717(5) 0.1435(2)
C5B C -0.4122(3) 1.5874(6) -0.2230(3)
C6B C -0.5414(3) 1.6455(6) -0.2555(3)
O9A O 0.38000(18) 0.8234(4) 0.22855(19)
O9C O -0.38000(18) 1.1766(4) -0.22855(19)
O9B O -0.62000(18) 1.6766(4) -0.27145(19)
C7B C -0.4832(7) 1.6597(13) -0.3039(7)
O10B O -0.4913(4) 1.7091(10) -0.3815(4)
C8B C -0.4700(5) 1.5660(15) -0.1749(5)
O11B O -0.4644(4) 1.5059(9) -0.0990(4)
C9B C -0.0236(2) 0.9932(6) -0.0718(3)
C10B C -0.0491(2) 1.0896(6) -0.0052(2)
O12B O -0.04935(19) 0.9801(5) -0.15663(18)
O13 O 0.0230(3) 0.4852(7) 0.1180(3)
O14 O 0.3767(2) 0.0706(5) 0.4169(2)
N1 N 0.3879(3) 0.6681(6) 0.4350(2)
N2 N 0.2308(2) 1.1763(5) 0.2572(2)
N3 N -0.0680(2) 1.2041(6) 0.2209(3)
C11? C 0.4917(7) 0.4228(12) 0.3061(7)
C12? C 0.4600(5) 0.3339(14) 0.1705(6)
O15? O 0.5077(4) 0.4746(9) 0.3869(4)
O16? O 0.4443(4) 0.2745(9) 0.0927(4)
loop_
_geom_bond_atom_site_label_1
_geom_bond_atom_site_label_2
_geom_bond_site_symmetry_1
_geom_bond_site_symmetry_2
U1 O1 1_555 1_555
O1 C1 1_555 1_555
O2 U1 1_555 1_555
O3 U1 1_555 1_555
O4 U1 1_555 1_555
O5 U1 1_555 1_555
C1 C2 1_555 1_555
C2 O6 1_555 1_555
O6 U1_2 1_555 1_555
C3 C2 1_555 1_555
O7 C3 1_555 1_555
C4 C1 1_555 1_555
O8 C4 1_555 1_555
C5 O2 1_555 1_555
C6 O9 1_555 1_555
O9 U1A 1_555 1_555
C7 C5 1_555 1_555
O10 C7 1_555 1_555
C8 C5 1_555 1_555
O11 C8 1_555 1_555
C9 C10 1_555 1_555
C10 O3 1_555 1_555
O12 C9 1_555 1_555
U1B O1B 1_555 1_555
U1B_2 O6B_2 1_555 1_555
U1C O9B 1_555 1_555
O1B C1B 1_555 1_555
O2B U1B 1_555 1_555
O3B U1B 1_555 1_555
O4B U1B 1_555 1_555
O5B U1B 1_555 1_555
C1B C2B 1_555 1_555
C2B O6B_2 1_555 1_555
O6_2 U1 1_555 1_555
O6B U1B 1_555 1_555
C3B C2B 1_555 1_555
O7B C3B 1_555 1_555
C4B C1B 1_555 1_555
O8B C4B 1_555 1_555
C5B O2B 1_555 1_555
C6B O9B 1_555 1_555
O9A U1 1_555 1_555
O9C U1B 1_555 1_555
C7B C5B 1_555 1_555
O10B C7B 1_555 1_555
C8B C5B 1_555 1_555
O11B C8B 1_555 1_555
C9B C10 1_555 1_555
C10B C9 1_555 1_555
O12B C9B 1_555 1_555
C3 C4 1_555 1_555
C6 C7 1_555 1_555
C6 C8 1_555 1_555
O3B C10B 1_555 1_555
C3B C4B 1_555 1_555
C6B C7B 1_555 1_555
C6B C8B 1_555 1_555
C9B C10B 1_555 1_555

#END
