
#######################################################################
#
#                 Cambridge Crystallographic Data Centre
#                                CCDC 
#
#######################################################################
#
# If this CIF has been generated from an entry in the Cambridge 
# Structural Database, then it will include bibliographic, chemical, 
# crystal, experimental, refinement or atomic coordinate data resulting 
# from the CCDC's data processing and validation procedures.
#
#######################################################################

data_RABGUS
_symmetry_cell_setting           orthorhombic
_symmetry_space_group_name_H-M   'P b a m'
_symmetry_Int_Tables_number      55
_space_group_name_Hall           '-P 2 2ab'
loop_
_symmetry_equiv_pos_site_id
_symmetry_equiv_pos_as_xyz
1 x,y,z
2 -x,-y,z
3 1/2+x,1/2-y,-z
4 1/2-x,1/2+y,-z
5 -x,-y,-z
6 x,y,-z
7 1/2-x,1/2+y,z
8 1/2+x,1/2-y,z
_cell_length_a                   12.1714(7)
_cell_length_b                   15.798(1)
_cell_length_c                   7.737(1)
_cell_angle_alpha                90
_cell_angle_beta                 90
_cell_angle_gamma                90
_cell_volume                     1487.7
loop_
_atom_site_label
_atom_site_type_symbol
_atom_site_fract_x
_atom_site_fract_y
_atom_site_fract_z
Cd1 Cd 0.12877(3) 0.15417(2) 0.00000
Ni1 Ni 0.36711(5) 0.29037(4) 0.5000
N1 N 0.2493(3) 0.1955(3) 0.2176(5)
N2 N -0.0063(3) 0.1216(3) -0.2197(5)
N3 N 0.0417(5) 0.2851(4) 0.00000
N4 N 0.1763(4) 0.0144(3) 0.00000
C1 C 0.2935(3) 0.2313(3) 0.3264(5)
C2 C -0.0556(3) 0.1519(3) -0.3290(5)
C3 C 0.0738(7) 0.3707(5) 0.00000
C4 C 0.1885(5) 0.3941(4) 0.00000
C5 C 0.2896(5) -0.0118(4) 0.00000
H1 H -0.00577 0.28162 0.10553
H2 H 0.03735 0.39941 0.11608
H3 H 0.22689 0.36689 0.11608
H4 H 0.32854 0.01493 -0.11608
H5 H 0.14217 -0.01094 -0.10553
N1E N 0.2493(3) 0.1955(3) -0.2176(5)
N2E N -0.0063(3) 0.1216(3) 0.2197(5)
C1E C 0.2935(3) 0.2313(3) 0.6736(5)
C2B C 0.4444(3) 0.3481(3) 0.3290(5)
C2G C 0.4444(3) 0.3481(3) 0.6710(5)
H1E H -0.00577 0.28162 -0.10553
H5E H 0.14217 -0.01094 0.10553
Ni1B Ni -0.13289(5) 0.20963(4) -0.5000
H2E H 0.03735 0.39941 -0.11608
C5C C 0.2104(5) 0.4882(4) 0.00000
H3E H 0.22689 0.36689 -0.11608
H4E H 0.32854 0.01493 0.11608
C4C C 0.3115(5) -0.1059(4) 0.00000
C6 C 0.1716(11) 0.4952(10) 0.5000
C7 C 0.0701(8) 0.5543(6) 0.5000
C8 C -0.0253(10) 0.5276(10) 0.5000
C9 C -0.0384(12) 0.6121(12) 0.5000
N5 N 0.2752(15) 0.5210(9) 0.5000
C10 C 0.1303(3) 0.3993(3) 0.5000
C8A C 0.0253(10) 0.4724(10) 0.5000
C10A C -0.1303(3) 0.6007(3) 0.5000
C7A C -0.0701(8) 0.4457(6) 0.5000
C9A C 0.0384(12) 0.3879(12) 0.5000
loop_
_geom_bond_atom_site_label_1
_geom_bond_atom_site_label_2
_geom_bond_site_symmetry_1
_geom_bond_site_symmetry_2
Cd1 N1 1_555 1_555
Ni1 C1 1_555 1_555
N1 C1 1_555 1_555
N2 Cd1 1_555 1_555
N3 Cd1 1_555 1_555
N4 Cd1 1_555 1_555
C2 N2 1_555 1_555
C3 N3 1_555 1_555
C4 C3 1_555 1_555
C5 N4 1_555 1_555
C6 C7 1_555 1_555
C7 C8 1_555 1_555
C8 C9 1_555 1_555
C9 C7 1_555 1_555
N5 C6 1_555 1_555
C10 C6 1_555 1_555
H1 N3 1_555 1_555
H2 C3 1_555 1_555
H3 C4 1_555 1_555
H4 C5 1_555 1_555
H5 N4 1_555 1_555
N1E Cd1 1_555 1_555
N2E Cd1 1_555 1_555
C1E Ni1 1_555 1_555
C2B Ni1 1_555 1_555
C2G Ni1 1_555 1_555
H1E N3 1_555 1_555
H5E N4 1_555 1_555
Ni1B C2 1_555 1_555
H2E C3 1_555 1_555
C5C C4 1_555 1_555
H3E C4 1_555 1_555
H4E C5 1_555 1_555
C4C C5 1_555 1_555
C8A C7 1_555 1_555
C10A C8 1_555 1_555
C7A C8 1_555 1_555
C9A C10 1_555 1_555
C8 C8A 1_555 1_555
C9 C10A 1_555 1_555
C10 C8A 1_555 1_555
C8A C9A 1_555 1_555
C8A C7A 1_555 1_555
C7A C9A 1_555 1_555

#END
