
#######################################################################
#
#                 Cambridge Crystallographic Data Centre
#                                CCDC 
#
#######################################################################
#
# If this CIF has been generated from an entry in the Cambridge 
# Structural Database, then it will include bibliographic, chemical, 
# crystal, experimental, refinement or atomic coordinate data resulting 
# from the CCDC's data processing and validation procedures.
#
#######################################################################

data_RABHOT
_symmetry_cell_setting           monoclinic
_symmetry_space_group_name_H-M   'P 21/c'
_symmetry_Int_Tables_number      14
_space_group_name_Hall           '-P 2ybc'
loop_
_symmetry_equiv_pos_site_id
_symmetry_equiv_pos_as_xyz
1 x,y,z
2 -x,1/2+y,1/2-z
3 -x,-y,-z
4 x,1/2-y,1/2+z
_cell_length_a                   9.0217(5)
_cell_length_b                   15.2874(9)
_cell_length_c                   17.1567(10)
_cell_angle_alpha                90
_cell_angle_beta                 93.8610(10)
_cell_angle_gamma                90
_cell_volume                     2360.85
loop_
_atom_site_label
_atom_site_type_symbol
_atom_site_fract_x
_atom_site_fract_y
_atom_site_fract_z
U1 U 0.78159(2) 0.310325(12) 0.114534(11)
O1 O 0.9611(4) 0.3567(3) 0.1287(2)
O2 O 0.6038(4) 0.2625(2) 0.0993(2)
O3 O 0.8850(4) 0.1722(2) 0.1600(2)
O4 O 0.7817(4) 0.2929(2) 0.2515(2)
O5 O 0.6684(4) 0.4350(2) 0.1615(2)
O6 O 0.7354(5) 0.4247(3) 0.0174(2)
O7 O 0.8373(4) 0.2559(2) 0.4958(2)
O8 O 0.4914(6) 0.6708(3) 0.2445(3)
N1 N 0.6688(5) 0.5677(3) -0.0082(3)
N2 N 0.9827(5) 0.0920(3) 0.2621(3)
N3 N 0.5278(5) 0.5285(3) 0.2713(3)
H1 H 0.5539 0.4770 0.2538
N4 N 0.7132(5) 0.3325(3) 0.3992(3)
H2 H 0.7055 0.3428 0.3486
C1 C 0.7121(7) 0.5610(5) -0.0878(4)
H3 H 0.7140 0.4993 -0.1032
H4 H 0.8111 0.5864 -0.0913
H5 H 0.6403 0.5926 -0.1228
C2 C 0.6144(7) 0.6452(4) 0.0183(5)
H6 H 0.6068 0.6941 -0.0159
C3 C 0.5724(7) 0.6535(4) 0.0901(4)
H7 H 0.5330 0.7079 0.1059
C4 C 0.5843(6) 0.5841(3) 0.1441(4)
C5 C 0.6428(6) 0.5059(4) 0.1194(3)
C6 C 0.6844(6) 0.4978(4) 0.0400(4)
C7 C 0.5314(7) 0.5982(4) 0.2237(4)
C8 C 1.0388(7) 0.0267(4) 0.2085(4)
H8 H 1.1010 -0.0158 0.2383
H9 H 1.0979 0.0560 0.1704
H10 H 0.9549 -0.0036 0.1812
C9 C 1.0069(7) 0.0799(4) 0.3419(3)
H11 H 1.0615 0.0304 0.3612
C10 C 0.9541(7) 0.1374(4) 0.3923(3)
H12 H 0.9721 0.1278 0.4469
C11 C 0.8718(6) 0.2123(3) 0.3658(3)
C12 C 0.8514(6) 0.2258(3) 0.2863(3)
C13 C 0.9076(6) 0.1623(3) 0.2328(3)
C14 C 0.8063(6) 0.2694(3) 0.4249(3)
C15 C 0.6237(6) 0.3855(3) 0.4480(3)
H13 H 0.6253 0.3592 0.5007
H14 H 0.5196 0.3853 0.4257
C16 C 0.6780(6) 0.4792(4) 0.4550(3)
C17 C 0.6152(6) 0.5474(4) 0.4090(4)
C18 C 0.6765(7) 0.6302(4) 0.4176(4)
H15 H 0.6341 0.6769 0.3871
C19 C 0.7968(7) 0.6470(4) 0.4690(4)
H16 H 0.8380 0.7041 0.4727
C20 C 0.8574(7) 0.5807(4) 0.5151(4)
H17 H 0.9388 0.5918 0.5518
C21 C 0.7973(7) 0.4971(4) 0.5071(4)
H18 H 0.8398 0.4511 0.5383
C22 C 0.4824(7) 0.5353(4) 0.3505(4)
H19 H 0.4280 0.4816 0.3637
H20 H 0.4140 0.5855 0.3541
U1C U 0.78159(2) 0.189675(12) 0.614534(11)
O7C O 0.8373(4) 0.2441(2) -0.0042(2)
O9 O 0.5804(6) 0.8376(3) 0.2239(3)
C23 C 0.7336(10) 0.8248(6) 0.2228(5)
H21 H 0.7842 0.8815 0.2253
H22 H 0.7555 0.7947 0.1745
H23 H 0.7685 0.7892 0.2678
H24 H 0.5420 0.7943 0.2451
loop_
_geom_bond_atom_site_label_1
_geom_bond_atom_site_label_2
_geom_bond_site_symmetry_1
_geom_bond_site_symmetry_2
U1 O1 1_555 1_555
O2 U1 1_555 1_555
O3 U1 1_555 1_555
O4 U1 1_555 1_555
O5 U1 1_555 1_555
O6 U1 1_555 1_555
O7 C14 1_555 1_555
O8 C7 1_555 1_555
O9 C23 1_555 1_555
N1 C1 1_555 1_555
N2 C8 1_555 1_555
N3 H1 1_555 1_555
N4 H2 1_555 1_555
C1 H3 1_555 1_555
H4 C1 1_555 1_555
H5 C1 1_555 1_555
C2 N1 1_555 1_555
H6 C2 1_555 1_555
C3 C2 1_555 1_555
H7 C3 1_555 1_555
C4 C3 1_555 1_555
C5 O5 1_555 1_555
C6 O6 1_555 1_555
C7 N3 1_555 1_555
C8 H8 1_555 1_555
H9 C8 1_555 1_555
H10 C8 1_555 1_555
C9 N2 1_555 1_555
H11 C9 1_555 1_555
C10 C9 1_555 1_555
H12 C10 1_555 1_555
C11 C10 1_555 1_555
C12 O4 1_555 1_555
C13 O3 1_555 1_555
C14 N4 1_555 1_555
C15 N4 1_555 1_555
H13 C15 1_555 1_555
H14 C15 1_555 1_555
C16 C15 1_555 1_555
C17 C16 1_555 1_555
C18 C17 1_555 1_555
H15 C18 1_555 1_555
C19 C18 1_555 1_555
H16 C19 1_555 1_555
C20 C19 1_555 1_555
H17 C20 1_555 1_555
C21 C16 1_555 1_555
H18 C21 1_555 1_555
C22 N3 1_555 1_555
H19 C22 1_555 1_555
H20 C22 1_555 1_555
C23 H21 1_555 1_555
H22 C23 1_555 1_555
H23 C23 1_555 1_555
H24 O9 1_555 1_555
U1C O7 1_555 1_555
O7C U1 1_555 1_555
N1 C6 1_555 1_555
N2 C13 1_555 1_555
C4 C5 1_555 1_555
C4 C7 1_555 1_555
C5 C6 1_555 1_555
C11 C12 1_555 1_555
C11 C14 1_555 1_555
C12 C13 1_555 1_555
C17 C22 1_555 1_555
C20 C21 1_555 1_555

#END
