
#######################################################################
#
#                 Cambridge Crystallographic Data Centre
#                                CCDC 
#
#######################################################################
#
# If this CIF has been generated from an entry in the Cambridge 
# Structural Database, then it will include bibliographic, chemical, 
# crystal, experimental, refinement or atomic coordinate data resulting 
# from the CCDC's data processing and validation procedures.
#
#######################################################################

data_RABMIS
_symmetry_cell_setting           monoclinic
_symmetry_space_group_name_H-M   'C 2/c'
_symmetry_Int_Tables_number      15
_space_group_name_Hall           '-C 2yn'
loop_
_symmetry_equiv_pos_site_id
_symmetry_equiv_pos_as_xyz
1 x,y,z
2 -x,y,1/2-z
3 1/2+x,1/2+y,z
4 1/2-x,1/2+y,1/2-z
5 -x,-y,-z
6 x,-y,1/2+z
7 1/2-x,1/2-y,-z
8 1/2+x,1/2-y,1/2+z
_cell_length_a                   20.657(4)
_cell_length_b                   12.578(3)
_cell_length_c                   18.299(4)
_cell_angle_alpha                90
_cell_angle_beta                 93.74(3)
_cell_angle_gamma                90
_cell_volume                     4744.39
loop_
_atom_site_label
_atom_site_type_symbol
_atom_site_fract_x
_atom_site_fract_y
_atom_site_fract_z
Cu1 Cu 0.5000 0.8743(2) 0.2500
Cu2 Cu 0.66849(7) 0.63101(13) 0.08812(7)
O1 O 0.7778(4) 0.6501(7) 0.0594(4)
O2 O 0.5522(4) 0.6531(8) 0.1043(5)
O3 O 0.6063(4) 0.8498(8) 0.2296(5)
C1 C 0.6130(6) 0.7764(11) 0.1850(6)
C2 C 0.7804(5) 0.7209(11) 0.0128(6)
C3 C 0.5476(6) 0.7253(11) 0.1507(7)
O4 O 0.6646(3) 0.7439(8) 0.1626(4)
O5 O 0.4950(5) 0.7598(9) 0.1735(6)
N1 N 0.6474(5) 0.5189(9) 0.0143(5)
N2 N 0.6976(5) 0.5317(9) 0.1673(5)
N3 N 0.4840(6) 0.9827(10) 0.1695(6)
C4 C 0.6825(6) 0.4482(11) -0.0254(7)
C5 C 0.5150(6) 1.0745(11) 0.1548(6)
O6 O 0.8341(4) 0.7522(7) -0.0137(5)
C6 C 0.6649(6) 0.4779(10) 0.2213(6)
C7 C 0.5106(8) 1.2120(17) 0.0658(9)
H1 H 0.4920 1.2400 0.0223
C8 C 0.7089(5) 0.4195(11) 0.2651(6)
C9 C 0.6634(8) 0.3117(15) -0.1200(8)
H2 H 0.6355 0.2734 -0.1520
C10 C 0.6422(6) 0.3895(11) -0.0720(6)
C11 C 0.5637(7) 1.2632(13) 0.1025(8)
H3 H 0.5793 1.3273 0.0854
C12 C 0.5724(6) 1.1256(13) 0.1927(7)
H4 H 0.5933 1.0952 0.2342
C13 C 0.6925(7) 0.3536(12) 0.3226(6)
H5 H 0.7232 0.3136 0.3500
C14 C 0.6000(6) 0.4743(12) 0.2351(6)
H6 H 0.5687 0.5108 0.2062
N4 N 0.7696(5) 0.4379(9) 0.2384(5)
H7 H 0.8062 0.4128 0.2556
N5 N 0.5806(5) 0.4241(10) -0.0638(5)
H8 H 0.5452 0.4008 -0.0856
C15 C 0.5839(6) 0.4127(11) 0.2949(6)
H9 H 0.5411 0.4130 0.3075
C16 C 0.6274(7) 0.3525(12) 0.3356(7)
H10 H 0.6131 0.3099 0.3729
C17 C 0.5925(7) 1.2154(12) 0.1655(7)
H11 H 0.6278 1.2491 0.1895
C18 C 0.7315(8) 0.2974(15) -0.1149(10)
H12 H 0.7499 0.2495 -0.1463
C19 C 0.7490(6) 0.4278(13) -0.0198(8)
H13 H 0.7770 0.4641 0.0133
C20 C 0.7711(8) 0.3519(15) -0.0653(10)
H14 H 0.8152 0.3365 -0.0624
N6 N 0.4373(8) 1.0534(15) 0.0718(6)
H15 H 0.4106 1.0599 0.0340
C21 C 0.4868(8) 1.1228(16) 0.0937(7)
C22 C 0.7595(7) 0.5032(11) 0.1797(7)
H16 H 0.7924 0.5259 0.1511
C23 C 0.5873(6) 0.5040(11) -0.0132(6)
H17 H 0.5524 0.5445 0.0007
C24 C 0.4391(11) 0.9751(19) 0.1202(9)
H18 H 0.4095 0.9192 0.1178
Cu2A Cu 0.33151(7) 0.63101(13) 0.41188(7)
Cu2F Cu 0.83151(7) 0.86899(13) -0.08812(7)
O1F O 0.7222(4) 0.8499(7) -0.0594(4)
O1A O 0.2222(4) 0.6501(7) 0.4406(4)
O2A O 0.4478(4) 0.6531(8) 0.3957(5)
O3A O 0.3937(4) 0.8498(8) 0.2704(5)
C1A C 0.3870(6) 0.7764(11) 0.3150(6)
C2F C 0.7196(5) 0.7791(11) -0.0128(6)
C3A C 0.4524(6) 0.7253(11) 0.3493(7)
O4A O 0.3354(3) 0.7439(8) 0.3374(4)
O5A O 0.5050(5) 0.7598(9) 0.3265(6)
N1A N 0.3526(5) 0.5189(9) 0.4857(5)
N2A N 0.3024(5) 0.5317(9) 0.3327(5)
N3A N 0.5160(6) 0.9827(10) 0.3305(6)
C4A C 0.3175(6) 0.4482(11) 0.5254(7)
C5A C 0.4850(6) 1.0745(11) 0.3452(6)
O6F O 0.6659(4) 0.7478(7) 0.0137(5)
O6G O 0.3341(4) 0.7478(7) 0.4863(5)
C6A C 0.3351(6) 0.4779(10) 0.2787(6)
C7A C 0.4894(8) 1.2120(17) 0.4342(9)
H1A H 0.5080 1.2400 0.4777
C8A C 0.2911(5) 0.4195(11) 0.2349(6)
C9A C 0.3366(8) 0.3117(15) 0.6200(8)
H2A H 0.3645 0.2734 0.6520
C10A C 0.3578(6) 0.3895(11) 0.5720(6)
C11A C 0.4363(7) 1.2632(13) 0.3975(8)
H3A H 0.4207 1.3273 0.4146
C12A C 0.4276(6) 1.1256(13) 0.3073(7)
H4A H 0.4067 1.0952 0.2658
C13A C 0.3075(7) 0.3536(12) 0.1774(6)
H5A H 0.2768 0.3136 0.1500
C14A C 0.4000(6) 0.4743(12) 0.2649(6)
H6A H 0.4313 0.5108 0.2938
N4A N 0.2304(5) 0.4379(9) 0.2616(5)
H7A H 0.1938 0.4128 0.2444
N5A N 0.4194(5) 0.4241(10) 0.5638(5)
H8A H 0.4548 0.4008 0.5856
C15A C 0.4161(6) 0.4127(11) 0.2051(6)
H9A H 0.4589 0.4130 0.1925
C16A C 0.3726(7) 0.3525(12) 0.1644(7)
H10A H 0.3869 0.3099 0.1271
C17A C 0.4075(7) 1.2154(12) 0.3345(7)
H11A H 0.3722 1.2491 0.3105
C18A C 0.2685(8) 0.2974(15) 0.6149(10)
H12A H 0.2501 0.2495 0.6463
C19A C 0.2510(6) 0.4278(13) 0.5198(8)
H13A H 0.2230 0.4641 0.4867
C20A C 0.2289(8) 0.3519(15) 0.5653(10)
H14A H 0.1848 0.3365 0.5624
N6A N 0.5627(8) 1.0534(15) 0.4282(6)
H15A H 0.5894 1.0599 0.4660
C21A C 0.5132(8) 1.1228(16) 0.4063(7)
C22A C 0.2405(7) 0.5032(11) 0.3203(7)
H16A H 0.2076 0.5259 0.3489
C23A C 0.4127(6) 0.5040(11) 0.5132(6)
H17A H 0.4476 0.5445 0.4993
C24A C 0.5609(11) 0.9751(19) 0.3798(9)
H18A H 0.5905 0.9192 0.3822
loop_
_geom_bond_atom_site_label_1
_geom_bond_atom_site_label_2
_geom_bond_site_symmetry_1
_geom_bond_site_symmetry_2
Cu1 O3 1_555 1_555
Cu2 O1 1_555 1_555
O1 C2 1_555 1_555
O2 Cu2 1_555 1_555
O3 C1 1_555 1_555
C1 C3 1_555 1_555
C2 O6 1_555 1_555
C3 O2 1_555 1_555
O4 Cu2 1_555 1_555
O5 Cu1 1_555 1_555
N1 Cu2 1_555 1_555
N2 Cu2 1_555 1_555
N3 Cu1 1_555 1_555
C4 N1 1_555 1_555
C5 N3 1_555 1_555
O6 Cu2F 1_555 1_555
C6 N2 1_555 1_555
C7 H1 1_555 1_555
C8 C6 1_555 1_555
C9 H2 1_555 1_555
C10 C4 1_555 1_555
C11 C7 1_555 1_555
H3 C11 1_555 1_555
C12 C5 1_555 1_555
H4 C12 1_555 1_555
C13 C8 1_555 1_555
H5 C13 1_555 1_555
C14 C6 1_555 1_555
H6 C14 1_555 1_555
N4 C8 1_555 1_555
H7 N4 1_555 1_555
N5 C10 1_555 1_555
H8 N5 1_555 1_555
C15 C14 1_555 1_555
H9 C15 1_555 1_555
C16 C13 1_555 1_555
H10 C16 1_555 1_555
C17 C11 1_555 1_555
H11 C17 1_555 1_555
C18 C9 1_555 1_555
H12 C18 1_555 1_555
C19 C4 1_555 1_555
H13 C19 1_555 1_555
C20 C18 1_555 1_555
H14 C20 1_555 1_555
N6 H15 1_555 1_555
C21 C5 1_555 1_555
C22 N2 1_555 1_555
H16 C22 1_555 1_555
C23 N1 1_555 1_555
H17 C23 1_555 1_555
C24 N3 1_555 1_555
H18 C24 1_555 1_555
Cu2A O1A 1_555 1_555
Cu2F O1F 1_555 1_555
O1F C2F 1_555 1_555
O2A Cu2A 1_555 1_555
O3A Cu1 1_555 1_555
C1A O3A 1_555 1_555
C2F C2 1_555 1_555
C3A O2A 1_555 1_555
O4A Cu2A 1_555 1_555
O5A Cu1 1_555 1_555
N1A Cu2A 1_555 1_555
N2A Cu2A 1_555 1_555
N3A Cu1 1_555 1_555
C4A N1A 1_555 1_555
C5A N3A 1_555 1_555
O6F Cu2 1_555 1_555
O6G Cu2A 1_555 1_555
C6A N2A 1_555 1_555
C7A H1A 1_555 1_555
C8A C6A 1_555 1_555
C9A H2A 1_555 1_555
C10A C4A 1_555 1_555
C11A C7A 1_555 1_555
H3A C11A 1_555 1_555
C12A C5A 1_555 1_555
H4A C12A 1_555 1_555
C13A C8A 1_555 1_555
H5A C13A 1_555 1_555
C14A C6A 1_555 1_555
H6A C14A 1_555 1_555
N4A C8A 1_555 1_555
H7A N4A 1_555 1_555
N5A C10A 1_555 1_555
H8A N5A 1_555 1_555
C15A C14A 1_555 1_555
H9A C15A 1_555 1_555
C16A C13A 1_555 1_555
H10A C16A 1_555 1_555
C17A C11A 1_555 1_555
H11A C17A 1_555 1_555
C18A C9A 1_555 1_555
H12A C18A 1_555 1_555
C19A C4A 1_555 1_555
H13A C19A 1_555 1_555
C20A C18A 1_555 1_555
H14A C20A 1_555 1_555
N6A H15A 1_555 1_555
C21A C5A 1_555 1_555
C22A N2A 1_555 1_555
H16A C22A 1_555 1_555
C23A N1A 1_555 1_555
H17A C23A 1_555 1_555
C24A N3A 1_555 1_555
H18A C24A 1_555 1_555
C1 O4 1_555 1_555
C3 O5 1_555 1_555
C7 C21 1_555 1_555
C9 C10 1_555 1_555
C12 C17 1_555 1_555
N4 C22 1_555 1_555
N5 C23 1_555 1_555
C15 C16 1_555 1_555
C19 C20 1_555 1_555
N6 C21 1_555 1_555
N6 C24 1_555 1_555
C1A C3A 1_555 1_555
C1A O4A 1_555 1_555
C2F O6F 1_555 1_555
C3A O5A 1_555 1_555
C7A C21A 1_555 1_555
C9A C10A 1_555 1_555
C12A C17A 1_555 1_555
N4A C22A 1_555 1_555
N5A C23A 1_555 1_555
C15A C16A 1_555 1_555
C19A C20A 1_555 1_555
N6A C21A 1_555 1_555
N6A C24A 1_555 1_555

#END
