
#######################################################################
#
#                 Cambridge Crystallographic Data Centre
#                                CCDC 
#
#######################################################################
#
# If this CIF has been generated from an entry in the Cambridge 
# Structural Database, then it will include bibliographic, chemical, 
# crystal, experimental, refinement or atomic coordinate data resulting 
# from the CCDC's data processing and validation procedures.
#
#######################################################################

data_RABMEO
_symmetry_cell_setting           monoclinic
_symmetry_space_group_name_H-M   'C 2/c'
_symmetry_Int_Tables_number      15
_space_group_name_Hall           '-C 2yn'
loop_
_symmetry_equiv_pos_site_id
_symmetry_equiv_pos_as_xyz
1 x,y,z
2 -x,y,1/2-z
3 1/2+x,1/2+y,z
4 1/2-x,1/2+y,1/2-z
5 -x,-y,-z
6 x,-y,1/2+z
7 1/2-x,1/2-y,-z
8 1/2+x,1/2-y,1/2+z
_cell_length_a                   20.4700(19)
_cell_length_b                   12.4768(15)
_cell_length_c                   18.3523(19)
_cell_angle_alpha                90
_cell_angle_beta                 92.469(5)
_cell_angle_gamma                90
_cell_volume                     4682.83
loop_
_atom_site_label
_atom_site_type_symbol
_atom_site_fract_x
_atom_site_fract_y
_atom_site_fract_z
Ni1 Ni 0.5000 0.86062(17) 0.2500
Ni2 Ni 0.66786(8) 0.63627(9) 0.08586(8)
O1 O 0.7663(3) 0.6474(6) 0.0629(3)
O2 O 0.5673(3) 0.6478(6) 0.1038(3)
O3 O 0.5992(4) 0.8491(6) 0.2338(4)
C1 C 0.6114(5) 0.7804(8) 0.1852(6)
C2 C 0.7807(5) 0.7179(9) 0.0159(5)
C3 C 0.5550(5) 0.7159(9) 0.1495(6)
O4 O 0.6673(3) 0.7589(6) 0.1641(3)
O5 O 0.4984(4) 0.7371(6) 0.1696(4)
N1 N 0.6473(4) 0.5200(7) 0.0076(4)
N2 N 0.6961(4) 0.5312(7) 0.1700(4)
N3 N 0.4823(5) 0.9702(8) 0.1684(5)
C4 C 0.6835(5) 0.4457(11) -0.0282(6)
C5 C 0.5151(6) 1.0668(9) 0.1535(6)
O6 O 0.8352(3) 0.7385(6) -0.0083(3)
C6 C 0.6622(5) 0.4761(9) 0.2221(5)
C7 C 0.5069(8) 1.2117(12) 0.0629(7)
H1 H 0.4874 1.2434 0.0216
C8 C 0.7090(6) 0.4171(9) 0.2656(5)
C9 C 0.6723(8) 0.3098(12) -0.1225(8)
H2 H 0.6463 0.2718 -0.1564
C10 C 0.6451(5) 0.3876(10) -0.0771(6)
C11 C 0.5604(7) 1.2592(11) 0.1013(8)
H3 H 0.5776 1.3229 0.0840
C12 C 0.5666(5) 1.1190(8) 0.1874(6)
H4 H 0.5880 1.0887 0.2281
C13 C 0.6891(6) 0.3531(9) 0.3227(6)
H5 H 0.7196 0.3161 0.3521
C14 C 0.5967(4) 0.4720(8) 0.2371(5)
H6 H 0.5656 0.5115 0.2101
N4 N 0.7678(4) 0.4407(7) 0.2398(5)
H7 H 0.8050 0.4169 0.2561
N5 N 0.5847(5) 0.4249(8) -0.0689(5)
H8 H 0.5499 0.4018 -0.0916
C15 C 0.5793(5) 0.4071(9) 0.2935(5)
H9 H 0.5354 0.4039 0.3047
C16 C 0.6240(5) 0.3458(9) 0.3347(5)
H10 H 0.6095 0.2998 0.3704
C17 C 0.5869(6) 1.2159(9) 0.1614(7)
H11 H 0.6203 1.2523 0.1869
C18 C 0.7368(9) 0.2923(14) -0.1153(11)
H12 H 0.7560 0.2424 -0.1453
C19 C 0.7519(6) 0.4265(12) -0.0184(8)
H13 H 0.7780 0.4641 0.0156
C20 C 0.7766(8) 0.3490(16) -0.0622(12)
H14 H 0.8209 0.3325 -0.0573
N6 N 0.4360(6) 1.0437(11) 0.0685(5)
H15 H 0.4098 1.0511 0.0308
C21 C 0.4851(7) 1.1155(13) 0.0898(6)
C22 C 0.7572(5) 0.5089(9) 0.1832(6)
H16 H 0.7907 0.5372 0.1564
C23 C 0.5872(5) 0.5022(10) -0.0206(5)
H17 H 0.5507 0.5409 -0.0074
C24 C 0.4354(7) 0.9603(11) 0.1157(7)
H18 H 0.4061 0.9033 0.1120
Ni2A Ni 0.33214(8) 0.63627(9) 0.41414(8)
Ni2F Ni 0.83214(8) 0.86373(9) -0.08586(8)
O1F O 0.7337(3) 0.8526(6) -0.0629(3)
O1A O 0.2337(3) 0.6474(6) 0.4371(3)
O2A O 0.4327(3) 0.6478(6) 0.3962(3)
O3A O 0.4008(4) 0.8491(6) 0.2662(4)
C1A C 0.3886(5) 0.7804(8) 0.3148(6)
C2F C 0.7193(5) 0.7821(9) -0.0159(5)
C3A C 0.4450(5) 0.7159(9) 0.3505(6)
O4A O 0.3327(3) 0.7589(6) 0.3359(3)
O5A O 0.5016(4) 0.7371(6) 0.3304(4)
N1A N 0.3527(4) 0.5200(7) 0.4924(4)
N2A N 0.3039(4) 0.5312(7) 0.3300(4)
N3A N 0.5177(5) 0.9702(8) 0.3316(5)
C4A C 0.3165(5) 0.4457(11) 0.5282(6)
C5A C 0.4849(6) 1.0668(9) 0.3465(6)
O6F O 0.6648(3) 0.7615(6) 0.0083(3)
O6G O 0.3352(3) 0.7615(6) 0.4917(3)
C6A C 0.3378(5) 0.4761(9) 0.2779(5)
C7A C 0.4931(8) 1.2117(12) 0.4371(7)
H1A H 0.5126 1.2434 0.4784
C8A C 0.2910(6) 0.4171(9) 0.2344(5)
C9A C 0.3277(8) 0.3098(12) 0.6225(8)
H2A H 0.3537 0.2718 0.6564
C10A C 0.3549(5) 0.3876(10) 0.5771(6)
C11A C 0.4396(7) 1.2592(11) 0.3987(8)
H3A H 0.4224 1.3229 0.4160
C12A C 0.4334(5) 1.1190(8) 0.3126(6)
H4A H 0.4120 1.0887 0.2719
C13A C 0.3109(6) 0.3531(9) 0.1773(6)
H5A H 0.2804 0.3161 0.1479
C14A C 0.4033(4) 0.4720(8) 0.2629(5)
H6A H 0.4344 0.5115 0.2899
N4A N 0.2322(4) 0.4407(7) 0.2602(5)
H7A H 0.1950 0.4169 0.2439
N5A N 0.4153(5) 0.4249(8) 0.5689(5)
H8A H 0.4501 0.4018 0.5916
C15A C 0.4207(5) 0.4071(9) 0.2065(5)
H9A H 0.4646 0.4039 0.1953
C16A C 0.3760(5) 0.3458(9) 0.1653(5)
H10A H 0.3905 0.2998 0.1296
C17A C 0.4131(6) 1.2159(9) 0.3386(7)
H11A H 0.3797 1.2523 0.3131
C18A C 0.2632(9) 0.2923(14) 0.6153(11)
H12A H 0.2440 0.2424 0.6453
C19A C 0.2481(6) 0.4265(12) 0.5184(8)
H13A H 0.2220 0.4641 0.4844
C20A C 0.2234(8) 0.3490(16) 0.5622(12)
H14A H 0.1791 0.3325 0.5573
N6A N 0.5640(6) 1.0437(11) 0.4315(5)
H15A H 0.5902 1.0511 0.4692
C21A C 0.5149(7) 1.1155(13) 0.4102(6)
C22A C 0.2428(5) 0.5089(9) 0.3168(6)
H16A H 0.2093 0.5372 0.3436
C23A C 0.4128(5) 0.5022(10) 0.5206(5)
H17A H 0.4493 0.5409 0.5074
C24A C 0.5646(7) 0.9603(11) 0.3843(7)
H18A H 0.5939 0.9033 0.3880
loop_
_geom_bond_atom_site_label_1
_geom_bond_atom_site_label_2
_geom_bond_site_symmetry_1
_geom_bond_site_symmetry_2
Ni1 O3 1_555 1_555
Ni2 O1 1_555 1_555
O1 C2 1_555 1_555
O2 Ni2 1_555 1_555
O3 C1 1_555 1_555
C1 C3 1_555 1_555
C2 O6 1_555 1_555
C3 O2 1_555 1_555
O4 Ni2 1_555 1_555
O5 Ni1 1_555 1_555
N1 Ni2 1_555 1_555
N2 Ni2 1_555 1_555
N3 Ni1 1_555 1_555
C4 N1 1_555 1_555
C5 N3 1_555 1_555
O6 Ni2F 1_555 1_555
C6 N2 1_555 1_555
C7 H1 1_555 1_555
C8 C6 1_555 1_555
C9 H2 1_555 1_555
C10 C4 1_555 1_555
C11 C7 1_555 1_555
H3 C11 1_555 1_555
C12 C5 1_555 1_555
H4 C12 1_555 1_555
C13 C8 1_555 1_555
H5 C13 1_555 1_555
C14 C6 1_555 1_555
H6 C14 1_555 1_555
N4 C8 1_555 1_555
H7 N4 1_555 1_555
N5 C10 1_555 1_555
H8 N5 1_555 1_555
C15 C14 1_555 1_555
H9 C15 1_555 1_555
C16 C13 1_555 1_555
H10 C16 1_555 1_555
C17 C11 1_555 1_555
H11 C17 1_555 1_555
C18 C9 1_555 1_555
H12 C18 1_555 1_555
C19 C4 1_555 1_555
H13 C19 1_555 1_555
C20 C18 1_555 1_555
H14 C20 1_555 1_555
N6 H15 1_555 1_555
C21 C5 1_555 1_555
C22 N2 1_555 1_555
H16 C22 1_555 1_555
C23 N1 1_555 1_555
H17 C23 1_555 1_555
C24 N3 1_555 1_555
H18 C24 1_555 1_555
Ni2A O1A 1_555 1_555
Ni2F O1F 1_555 1_555
O1F C2F 1_555 1_555
O2A Ni2A 1_555 1_555
O3A Ni1 1_555 1_555
C1A O3A 1_555 1_555
C2F C2 1_555 1_555
C3A O2A 1_555 1_555
O4A Ni2A 1_555 1_555
O5A Ni1 1_555 1_555
N1A Ni2A 1_555 1_555
N2A Ni2A 1_555 1_555
N3A Ni1 1_555 1_555
C4A N1A 1_555 1_555
C5A N3A 1_555 1_555
O6F Ni2 1_555 1_555
O6G Ni2A 1_555 1_555
C6A N2A 1_555 1_555
C7A H1A 1_555 1_555
C8A C6A 1_555 1_555
C9A H2A 1_555 1_555
C10A C4A 1_555 1_555
C11A C7A 1_555 1_555
H3A C11A 1_555 1_555
C12A C5A 1_555 1_555
H4A C12A 1_555 1_555
C13A C8A 1_555 1_555
H5A C13A 1_555 1_555
C14A C6A 1_555 1_555
H6A C14A 1_555 1_555
N4A C8A 1_555 1_555
H7A N4A 1_555 1_555
N5A C10A 1_555 1_555
H8A N5A 1_555 1_555
C15A C14A 1_555 1_555
H9A C15A 1_555 1_555
C16A C13A 1_555 1_555
H10A C16A 1_555 1_555
C17A C11A 1_555 1_555
H11A C17A 1_555 1_555
C18A C9A 1_555 1_555
H12A C18A 1_555 1_555
C19A C4A 1_555 1_555
H13A C19A 1_555 1_555
C20A C18A 1_555 1_555
H14A C20A 1_555 1_555
N6A H15A 1_555 1_555
C21A C5A 1_555 1_555
C22A N2A 1_555 1_555
H16A C22A 1_555 1_555
C23A N1A 1_555 1_555
H17A C23A 1_555 1_555
C24A N3A 1_555 1_555
H18A C24A 1_555 1_555
C1 O4 1_555 1_555
C3 O5 1_555 1_555
C7 C21 1_555 1_555
C9 C10 1_555 1_555
C12 C17 1_555 1_555
N4 C22 1_555 1_555
N5 C23 1_555 1_555
C15 C16 1_555 1_555
C19 C20 1_555 1_555
N6 C21 1_555 1_555
N6 C24 1_555 1_555
C1A C3A 1_555 1_555
C1A O4A 1_555 1_555
C2F O6F 1_555 1_555
C3A O5A 1_555 1_555
C7A C21A 1_555 1_555
C9A C10A 1_555 1_555
C12A C17A 1_555 1_555
N4A C22A 1_555 1_555
N5A C23A 1_555 1_555
C15A C16A 1_555 1_555
C19A C20A 1_555 1_555
N6A C21A 1_555 1_555
N6A C24A 1_555 1_555

#END
