
#######################################################################
#
#                 Cambridge Crystallographic Data Centre
#                                CCDC 
#
#######################################################################
#
# If this CIF has been generated from an entry in the Cambridge 
# Structural Database, then it will include bibliographic, chemical, 
# crystal, experimental, refinement or atomic coordinate data resulting 
# from the CCDC's data processing and validation procedures.
#
#######################################################################

data_RABMOY
_symmetry_cell_setting           monoclinic
_symmetry_space_group_name_H-M   'C c'
_symmetry_Int_Tables_number      9
_space_group_name_Hall           'C -2yc'
loop_
_symmetry_equiv_pos_site_id
_symmetry_equiv_pos_as_xyz
1 x,y,z
2 x,-y,1/2+z
3 1/2+x,1/2+y,z
4 1/2+x,1/2-y,1/2+z
_cell_length_a                   14.551(3)
_cell_length_b                   12.549(3)
_cell_length_c                   9.4577(19)
_cell_angle_alpha                90
_cell_angle_beta                 109.50(3)
_cell_angle_gamma                90
_cell_volume                     1627.92
loop_
_atom_site_label
_atom_site_type_symbol
_atom_site_fract_x
_atom_site_fract_y
_atom_site_fract_z
C1 C 0.2587(5) 0.2498(5) 0.4325(7)
H1 H 0.2015 0.2103 0.3953
Mn1 Mn 0.16772(8) 0.12452(5) 0.73992(10)
O1 O 0.2440(4) -0.1081(3) 0.4796(5)
O2 O 0.0833(3) 0.0926(4) 0.5051(5)
O3 O 0.0787(3) -0.0110(3) 0.3123(5)
O4 O 0.2436(3) -0.0108(3) 0.6766(5)
N1 N 0.3485(4) 0.2638(4) 0.8304(6)
N2 N -0.0173(4) 0.2561(4) 0.6500(7)
C2 C 0.1158(5) 0.0192(5) 0.4448(7)
C3 C 0.2101(5) -0.0373(5) 0.5438(7)
N3 N 0.2822(4) 0.2291(4) 0.7077(6)
N4 N -0.0627(4) 0.3464(4) 0.6652(7)
H2 H -0.1222 0.3615 0.6142
N5 N 0.0720(4) 0.2608(4) 0.7431(6)
N6 N 0.4134(4) 0.3219(4) 0.7930(6)
H3 H 0.4633 0.3525 0.8559
C4 C 0.1561(7) 0.4943(7) 0.9849(12)
H4 H 0.2094 0.5253 1.0572
C5 C 0.4313(5) 0.3766(5) 0.5430(7)
H5 H 0.4870 0.4185 0.5781
C6 C 0.0860(4) 0.3545(4) 0.8208(6)
C7 C 0.1675(4) 0.3960(5) 0.9305(7)
H6 H 0.2262 0.3591 0.9648
C8 C -0.0120(5) 0.5107(5) 0.8284(7)
H7 H -0.0703 0.5484 0.7941
C9 C -0.0022(4) 0.4110(4) 0.7721(6)
C10 C 0.3896(4) 0.3261(4) 0.6393(6)
C11 C 0.3014(5) 0.2972(5) 0.3400(7)
H8 H 0.2737 0.2871 0.2370
C12 C 0.3840(5) 0.3593(6) 0.3935(7)
H9 H 0.4086 0.3910 0.3247
C13 C 0.0679(5) 0.5506(5) 0.9364(8)
H10 H 0.0638 0.6165 0.9790
C14 C 0.3057(4) 0.2641(4) 0.5851(6)
Mn1A Mn 0.16772(8) -0.12452(5) 0.23992(10)
O1A O 0.2440(4) 0.1081(3) 0.9796(5)
O3A O 0.0787(3) 0.0110(3) 0.8123(5)
loop_
_geom_bond_atom_site_label_1
_geom_bond_atom_site_label_2
_geom_bond_site_symmetry_1
_geom_bond_site_symmetry_2
C1 H1 1_555 1_555
Mn1 O2 1_555 1_555
O1 C3 1_555 1_555
O2 C2 1_555 1_555
O3 C2 1_555 1_555
O4 Mn1 1_555 1_555
N1 N3 1_555 1_555
N2 N4 1_555 1_555
C2 C3 1_555 1_555
C3 O4 1_555 1_555
N3 Mn1 1_555 1_555
N4 H2 1_555 1_555
N5 Mn1 1_555 1_555
N6 N1 1_555 1_555
H3 N6 1_555 1_555
C4 H4 1_555 1_555
C5 H5 1_555 1_555
C6 N5 1_555 1_555
C7 C4 1_555 1_555
H6 C7 1_555 1_555
C8 H7 1_555 1_555
C9 N4 1_555 1_555
C10 N6 1_555 1_555
C11 C1 1_555 1_555
H8 C11 1_555 1_555
C12 C5 1_555 1_555
H9 C12 1_555 1_555
C13 C4 1_555 1_555
H10 C13 1_555 1_555
C14 C1 1_555 1_555
Mn1A O1 1_555 1_555
O1A Mn1 1_555 1_555
O3A Mn1 1_555 1_555
O3 Mn1A 1_555 1_555
N2 N5 1_555 1_555
N3 C14 1_555 1_555
C5 C10 1_555 1_555
C6 C7 1_555 1_555
C6 C9 1_555 1_555
C8 C9 1_555 1_555
C8 C13 1_555 1_555
C10 C14 1_555 1_555
C11 C12 1_555 1_555

#END
