
#######################################################################
#
#                 Cambridge Crystallographic Data Centre
#                                CCDC 
#
#######################################################################
#
# If this CIF has been generated from an entry in the Cambridge 
# Structural Database, then it will include bibliographic, chemical, 
# crystal, experimental, refinement or atomic coordinate data resulting 
# from the CCDC's data processing and validation procedures.
#
#######################################################################

data_RABMUE
_symmetry_cell_setting           monoclinic
_symmetry_space_group_name_H-M   'C c'
_symmetry_Int_Tables_number      9
_space_group_name_Hall           'C -2yc'
loop_
_symmetry_equiv_pos_site_id
_symmetry_equiv_pos_as_xyz
1 x,y,z
2 x,-y,1/2+z
3 1/2+x,1/2+y,z
4 1/2+x,1/2-y,1/2+z
_cell_length_a                   14.436(5)
_cell_length_b                   12.353(3)
_cell_length_c                   9.245(4)
_cell_angle_alpha                90
_cell_angle_beta                 109.25(3)
_cell_angle_gamma                90
_cell_volume                     1556.46
loop_
_atom_site_label
_atom_site_type_symbol
_atom_site_fract_x
_atom_site_fract_y
_atom_site_fract_z
C1 C 0.2519(6) 0.2467(6) 0.4256(7)
H1 H 0.1943 0.2039 0.3869
Co1 Co 0.16807(10) 0.12104(5) 0.73972(13)
O1 O 0.2450(5) -0.1112(4) 0.4794(6)
O2 O 0.0842(4) 0.0933(4) 0.5085(6)
O3 O 0.0798(4) -0.0089(4) 0.3059(6)
O4 O 0.2434(4) -0.0127(4) 0.6809(6)
N1 N 0.3459(5) 0.2559(5) 0.8358(8)
N2 N -0.0152(5) 0.2466(6) 0.6500(8)
C2 C 0.1173(6) 0.0190(6) 0.4437(9)
C3 C 0.2093(6) -0.0397(6) 0.5435(9)
N3 N 0.2786(5) 0.2212(5) 0.7099(7)
N4 N -0.0611(6) 0.3376(5) 0.6671(8)
H2 H -0.1230 0.3523 0.6161
N5 N 0.0754(5) 0.2510(5) 0.7454(7)
N6 N 0.4096(5) 0.3167(5) 0.7939(8)
H3 H 0.4608 0.3490 0.8588
C4 C 0.1592(9) 0.4921(8) 0.9891(14)
H4 H 0.2130 0.5245 1.0658
C5 C 0.4263(6) 0.3770(6) 0.5409(8)
H5 H 0.4836 0.4204 0.5789
C6 C 0.0884(5) 0.3482(5) 0.8229(7)
C7 C 0.1724(5) 0.3929(5) 0.9332(7)
H6 H 0.2337 0.3565 0.9663
C8 C -0.0111(6) 0.5069(6) 0.8306(8)
H7 H -0.0715 0.5451 0.7961
C9 C 0.0002(5) 0.4046(5) 0.7737(7)
C10 C 0.3851(5) 0.3227(5) 0.6364(6)
C11 C 0.2933(7) 0.2987(6) 0.3308(9)
H8 H 0.2636 0.2906 0.2232
C12 C 0.3770(6) 0.3627(6) 0.3853(8)
H9 H 0.4012 0.3979 0.3136
C13 C 0.0700(6) 0.5481(6) 0.9385(8)
H10 H 0.0659 0.6172 0.9808
C14 C 0.3003(5) 0.2608(5) 0.5840(7)
Co1A Co 0.16807(10) -0.12104(5) 0.23972(13)
O1A O 0.2450(5) 0.1112(4) 0.9794(6)
O3A O 0.0798(4) 0.0089(4) 0.8059(6)
loop_
_geom_bond_atom_site_label_1
_geom_bond_atom_site_label_2
_geom_bond_site_symmetry_1
_geom_bond_site_symmetry_2
C1 H1 1_555 1_555
Co1 O2 1_555 1_555
O1 C3 1_555 1_555
O2 C2 1_555 1_555
O3 C2 1_555 1_555
O4 Co1 1_555 1_555
N1 N3 1_555 1_555
N2 N4 1_555 1_555
C2 C3 1_555 1_555
C3 O4 1_555 1_555
N3 Co1 1_555 1_555
N4 H2 1_555 1_555
N5 Co1 1_555 1_555
N6 N1 1_555 1_555
H3 N6 1_555 1_555
C4 H4 1_555 1_555
C5 H5 1_555 1_555
C6 N5 1_555 1_555
C7 C4 1_555 1_555
H6 C7 1_555 1_555
C8 H7 1_555 1_555
C9 N4 1_555 1_555
C10 N6 1_555 1_555
C11 C1 1_555 1_555
H8 C11 1_555 1_555
C12 C5 1_555 1_555
H9 C12 1_555 1_555
C13 C4 1_555 1_555
H10 C13 1_555 1_555
C14 C1 1_555 1_555
Co1A O1 1_555 1_555
O1A Co1 1_555 1_555
O3A Co1 1_555 1_555
O3 Co1A 1_555 1_555
N2 N5 1_555 1_555
N3 C14 1_555 1_555
C5 C10 1_555 1_555
C6 C7 1_555 1_555
C6 C9 1_555 1_555
C8 C9 1_555 1_555
C8 C13 1_555 1_555
C10 C14 1_555 1_555
C11 C12 1_555 1_555

#END
