
#######################################################################
#
#                 Cambridge Crystallographic Data Centre
#                                CCDC 
#
#######################################################################
#
# If this CIF has been generated from an entry in the Cambridge 
# Structural Database, then it will include bibliographic, chemical, 
# crystal, experimental, refinement or atomic coordinate data resulting 
# from the CCDC's data processing and validation procedures.
#
#######################################################################

data_RABNEP
_symmetry_cell_setting           monoclinic
_symmetry_space_group_name_H-M   'C c'
_symmetry_Int_Tables_number      9
_space_group_name_Hall           'C -2yc'
loop_
_symmetry_equiv_pos_site_id
_symmetry_equiv_pos_as_xyz
1 x,y,z
2 x,-y,1/2+z
3 1/2+x,1/2+y,z
4 1/2+x,1/2-y,1/2+z
_cell_length_a                   14.3720(14)
_cell_length_b                   12.3909(16)
_cell_length_c                   9.2272(9)
_cell_angle_alpha                90
_cell_angle_beta                 108.751(7)
_cell_angle_gamma                90
_cell_volume                     1555.98
loop_
_atom_site_label
_atom_site_type_symbol
_atom_site_fract_x
_atom_site_fract_y
_atom_site_fract_z
C1 C 0.2536(4) 0.2489(5) 0.4271(6)
H1 H 0.1961 0.2059 0.3893
Zn1 Zn 0.16796(7) 0.12284(4) 0.73987(10)
O1 O 0.2448(4) -0.1106(4) 0.4787(6)
O2 O 0.0848(4) 0.0948(4) 0.5078(6)
O3 O 0.0798(4) -0.0098(3) 0.3091(6)
O4 O 0.2438(3) -0.0127(4) 0.6813(6)
N1 N 0.3474(4) 0.2566(5) 0.8360(7)
N2 N -0.0159(5) 0.2471(5) 0.6485(7)
C2 C 0.1177(5) 0.0206(5) 0.4461(8)
C3 C 0.2104(5) -0.0382(5) 0.5460(8)
N3 N 0.2806(4) 0.2227(4) 0.7098(6)
N4 N -0.0622(4) 0.3387(4) 0.6645(7)
H2 H -0.1237 0.3539 0.6127
N5 N 0.0750(4) 0.2524(4) 0.7424(6)
N6 N 0.4108(4) 0.3181(5) 0.7940(7)
H3 H 0.4619 0.3507 0.8584
C4 C 0.1578(7) 0.4926(7) 0.9854(13)
H4 H 0.2121 0.5259 1.0594
C5 C 0.4275(5) 0.3785(5) 0.5403(7)
H5 H 0.4853 0.4210 0.5775
C6 C 0.0873(4) 0.3480(4) 0.8213(6)
C7 C 0.1703(4) 0.3924(4) 0.9325(6)
H6 H 0.2311 0.3549 0.9685
C8 C -0.0128(4) 0.5068(5) 0.8280(7)
H7 H -0.0732 0.5452 0.7944
C9 C -0.0017(4) 0.4040(4) 0.7707(6)
C10 C 0.3861(4) 0.3240(4) 0.6389(6)
C11 C 0.2938(5) 0.3009(5) 0.3304(7)
H8 H 0.2641 0.2929 0.2230
C12 C 0.3784(5) 0.3660(6) 0.3865(7)
H9 H 0.4024 0.4026 0.3152
C13 C 0.0685(5) 0.5479(5) 0.9347(7)
H10 H 0.0643 0.6171 0.9764
C14 C 0.3012(4) 0.2622(4) 0.5842(6)
Zn1A Zn 0.16796(7) -0.12284(4) 0.23987(10)
O1A O 0.2448(4) 0.1106(4) 0.9787(6)
O3A O 0.0798(4) 0.0098(3) 0.8091(6)
loop_
_geom_bond_atom_site_label_1
_geom_bond_atom_site_label_2
_geom_bond_site_symmetry_1
_geom_bond_site_symmetry_2
C1 H1 1_555 1_555
Zn1 O2 1_555 1_555
O1 C3 1_555 1_555
O2 C2 1_555 1_555
O3 C2 1_555 1_555
O4 Zn1 1_555 1_555
N1 N3 1_555 1_555
N2 N4 1_555 1_555
C2 C3 1_555 1_555
C3 O4 1_555 1_555
N3 Zn1 1_555 1_555
N4 H2 1_555 1_555
N5 Zn1 1_555 1_555
N6 N1 1_555 1_555
H3 N6 1_555 1_555
C4 H4 1_555 1_555
C5 H5 1_555 1_555
C6 N5 1_555 1_555
C7 C4 1_555 1_555
H6 C7 1_555 1_555
C8 H7 1_555 1_555
C9 N4 1_555 1_555
C10 N6 1_555 1_555
C11 C1 1_555 1_555
H8 C11 1_555 1_555
C12 C5 1_555 1_555
H9 C12 1_555 1_555
C13 C4 1_555 1_555
H10 C13 1_555 1_555
C14 C1 1_555 1_555
Zn1A O1 1_555 1_555
O1A Zn1 1_555 1_555
O3A Zn1 1_555 1_555
O3 Zn1A 1_555 1_555
N2 N5 1_555 1_555
N3 C14 1_555 1_555
C5 C10 1_555 1_555
C6 C7 1_555 1_555
C6 C9 1_555 1_555
C8 C9 1_555 1_555
C8 C13 1_555 1_555
C10 C14 1_555 1_555
C11 C12 1_555 1_555

#END
