
#######################################################################
#
#                 Cambridge Crystallographic Data Centre
#                                CCDC 
#
#######################################################################
#
# If this CIF has been generated from an entry in the Cambridge 
# Structural Database, then it will include bibliographic, chemical, 
# crystal, experimental, refinement or atomic coordinate data resulting 
# from the CCDC's data processing and validation procedures.
#
#######################################################################

data_RABNIT
_symmetry_cell_setting           orthorhombic
_symmetry_space_group_name_H-M   'P b c n'
_symmetry_Int_Tables_number      60
_space_group_name_Hall           '-P 2n 2ab'
loop_
_symmetry_equiv_pos_site_id
_symmetry_equiv_pos_as_xyz
1 x,y,z
2 1/2-x,1/2-y,1/2+z
3 -x,y,1/2-z
4 1/2+x,1/2-y,-z
5 -x,-y,-z
6 1/2+x,1/2+y,1/2-z
7 x,-y,1/2+z
8 1/2-x,1/2+y,z
_cell_length_a                   16.642(3)
_cell_length_b                   8.8961(18)
_cell_length_c                   24.002(5)
_cell_angle_alpha                90
_cell_angle_beta                 90
_cell_angle_gamma                90
_cell_volume                     3553.47
loop_
_atom_site_label
_atom_site_type_symbol
_atom_site_fract_x
_atom_site_fract_y
_atom_site_fract_z
C1 C 0.25813(10) 0.18305(18) 0.02938(7)
C2 C 0.22162(10) 0.13601(19) -0.02737(7)
C3 C -0.00601(10) 0.45525(18) 0.02766(7)
Zn1 Zn 0.155261(11) 0.41843(2) -0.002757(8)
O1 O 0.17043(7) 0.22260(14) -0.04761(5)
O2 O 0.31427(7) 0.10236(13) 0.04765(5)
O3 O 0.22915(7) 0.29502(14) 0.05250(5)
O4 O 0.24437(8) 0.01366(13) -0.04776(5)
O5 O -0.07293(8) 0.46654(15) 0.05103(5)
O6 O 0.05263(7) 0.37955(14) 0.04434(5)
C1D C -0.25813(10) 0.81695(18) -0.02938(7)
C2D C -0.22162(10) 0.86399(19) 0.02737(7)
C3D C 0.00601(10) 0.54475(18) -0.02766(7)
Zn1D Zn -0.155261(11) 0.58157(2) 0.002757(8)
Zn1C Zn -0.344739(11) 1.08157(2) 0.002757(8)
Zn1G Zn 0.344739(11) -0.08157(2) -0.002757(8)
O1D O -0.17043(7) 0.77740(14) 0.04761(5)
O2D O -0.31427(7) 0.89764(13) -0.04765(5)
O2C O -0.18573(7) 0.39764(13) -0.04765(5)
O2G O 0.18573(7) 0.60236(13) 0.04765(5)
O3D O -0.22915(7) 0.70498(14) -0.05250(5)
O4D O -0.24437(8) 0.98634(13) 0.04776(5)
O4C O -0.25563(8) 0.48634(13) 0.04776(5)
O4G O 0.25563(8) 0.51366(13) -0.04776(5)
O5D O 0.07293(8) 0.53346(15) -0.05103(5)
O6D O -0.05263(7) 0.62045(14) -0.04434(5)
Zn2 Zn 0.5000 0.79608(3) 0.2500
N1 N 0.61504(9) 0.57851(17) 0.11919(7)
H1 H 0.6570 0.5581 0.0997
N2 N 0.53926(9) 0.67496(18) 0.18615(6)
N3 N 0.35109(10) 1.06999(18) 0.15757(7)
H2 H 0.3325 1.0987 0.1259
N4 N 0.41606(9) 0.93368(17) 0.21977(6)
C4 C 0.33813(11) 1.1394(2) 0.20828(8)
C5 C 0.53757(11) 0.5284(2) 0.10910(8)
C6 C 0.38026(12) 1.0932(2) 0.30343(8)
H3 H 0.4071 1.0357 0.3299
C7 C 0.61246(11) 0.6646(2) 0.16494(8)
H4 H 0.6572 0.7119 0.1801
C8 C 0.49052(11) 0.5898(2) 0.15131(7)
C9 C 0.42363(12) 0.4163(2) 0.06915(9)
H5 H 0.3996 0.3583 0.0416
C10 C 0.37959(11) 1.05335(19) 0.24732(8)
C11 C 0.37575(12) 0.4764(2) 0.11135(9)
H6 H 0.3208 0.4576 0.1111
C12 C 0.40805(11) 0.5629(2) 0.15339(9)
H7 H 0.3763 0.6016 0.1818
C13 C 0.29796(12) 1.3079(2) 0.27852(10)
H8 H 0.2711 1.3941 0.2900
C14 C 0.29593(12) 1.2684(2) 0.22287(9)
H9 H 0.2679 1.3249 0.1967
C15 C 0.33903(13) 1.2225(2) 0.31789(9)
H10 H 0.3388 1.2532 0.3549
C16 C 0.39786(12) 0.9501(2) 0.16661(8)
H11 H 0.4155 0.8857 0.1386
C17 C 0.50532(12) 0.4401(2) 0.06708(8)
H12 H 0.5371 0.3992 0.0390
N1B N 0.38496(9) 0.57851(17) 0.38081(7)
H1B H 0.3430 0.5581 0.4003
N2B N 0.46074(9) 0.67496(18) 0.31385(6)
N3B N 0.64891(10) 1.06999(18) 0.34243(7)
H2B H 0.6675 1.0987 0.3741
N4B N 0.58394(9) 0.93368(17) 0.28023(6)
C4B C 0.66187(11) 1.1394(2) 0.29172(8)
C5B C 0.46243(11) 0.5284(2) 0.39090(8)
C6B C 0.61974(12) 1.0932(2) 0.19657(8)
H3B H 0.5929 1.0357 0.1701
C7B C 0.38754(11) 0.6646(2) 0.33506(8)
H4B H 0.3428 0.7119 0.3199
C8B C 0.50948(11) 0.5898(2) 0.34869(7)
C9B C 0.57637(12) 0.4163(2) 0.43085(9)
H5B H 0.6004 0.3583 0.4584
C10B C 0.62041(11) 1.05335(19) 0.25268(8)
C11B C 0.62425(12) 0.4764(2) 0.38865(9)
H6B H 0.6792 0.4576 0.3889
C12B C 0.59195(11) 0.5629(2) 0.34661(9)
H7B H 0.6237 0.6016 0.3182
C13B C 0.70204(12) 1.3079(2) 0.22148(10)
H8B H 0.7289 1.3941 0.2100
C14B C 0.70407(12) 1.2684(2) 0.27713(9)
H9B H 0.7321 1.3249 0.3033
C15B C 0.66097(13) 1.2225(2) 0.18211(9)
H10B H 0.6612 1.2532 0.1451
C16B C 0.60214(12) 0.9501(2) 0.33339(8)
H11B H 0.5845 0.8857 0.3614
C17B C 0.49468(12) 0.4401(2) 0.43292(8)
H12B H 0.4629 0.3992 0.4610
loop_
_geom_bond_atom_site_label_1
_geom_bond_atom_site_label_2
_geom_bond_site_symmetry_1
_geom_bond_site_symmetry_2
C1 C2 1_555 1_555
C2 O1 1_555 1_555
C3 O5 1_555 1_555
Zn1 O1 1_555 1_555
Zn2 N2 1_555 1_555
O2 C1 1_555 1_555
O3 C1 1_555 1_555
O4 C2 1_555 1_555
O5 Zn1D 1_555 1_555
O6 C3 1_555 1_555
N1 H1 1_555 1_555
N2 C7 1_555 1_555
N3 H2 1_555 1_555
N4 Zn2 1_555 1_555
C4 N3 1_555 1_555
C5 N1 1_555 1_555
C6 H3 1_555 1_555
C7 N1 1_555 1_555
H4 C7 1_555 1_555
C8 N2 1_555 1_555
C9 H5 1_555 1_555
C10 N4 1_555 1_555
C11 C9 1_555 1_555
H6 C11 1_555 1_555
C12 C8 1_555 1_555
H7 C12 1_555 1_555
C13 H8 1_555 1_555
C14 C4 1_555 1_555
H9 C14 1_555 1_555
C15 C6 1_555 1_555
H10 C15 1_555 1_555
C16 N3 1_555 1_555
H11 C16 1_555 1_555
C17 C5 1_555 1_555
H12 C17 1_555 1_555
C1D C2D 1_555 1_555
C2D O1D 1_555 1_555
C3D C3 1_555 1_555
Zn1D O1D 1_555 1_555
Zn1C O2D 1_555 1_555
Zn1G O2 1_555 1_555
O2D C1D 1_555 1_555
O2C Zn1D 1_555 1_555
O2G Zn1 1_555 1_555
O3D C1D 1_555 1_555
O4D C2D 1_555 1_555
O4C Zn1D 1_555 1_555
O4G Zn1 1_555 1_555
O5D Zn1 1_555 1_555
O6D C3D 1_555 1_555
N1B H1B 1_555 1_555
N2B Zn2 1_555 1_555
N3B H2B 1_555 1_555
N4B Zn2 1_555 1_555
C4B N3B 1_555 1_555
C5B N1B 1_555 1_555
C6B H3B 1_555 1_555
C7B N1B 1_555 1_555
H4B C7B 1_555 1_555
C8B N2B 1_555 1_555
C9B H5B 1_555 1_555
C10B N4B 1_555 1_555
C11B C9B 1_555 1_555
H6B C11B 1_555 1_555
C12B C8B 1_555 1_555
H7B C12B 1_555 1_555
C13B H8B 1_555 1_555
C14B C4B 1_555 1_555
H9B C14B 1_555 1_555
C15B C6B 1_555 1_555
H10B C15B 1_555 1_555
C16B N3B 1_555 1_555
H11B C16B 1_555 1_555
C17B C5B 1_555 1_555
H12B C17B 1_555 1_555
Zn1 O3 1_555 1_555
Zn1 O6 1_555 1_555
O4 Zn1G 1_555 1_555
N4 C16 1_555 1_555
C4 C10 1_555 1_555
C5 C8 1_555 1_555
C6 C10 1_555 1_555
C9 C17 1_555 1_555
C11 C12 1_555 1_555
C13 C14 1_555 1_555
C13 C15 1_555 1_555
C3D O5D 1_555 1_555
Zn1D O3D 1_555 1_555
Zn1D O6D 1_555 1_555
Zn1C O4D 1_555 1_555
N2B C7B 1_555 1_555
N4B C16B 1_555 1_555
C4B C10B 1_555 1_555
C5B C8B 1_555 1_555
C6B C10B 1_555 1_555
C9B C17B 1_555 1_555
C11B C12B 1_555 1_555
C13B C14B 1_555 1_555
C13B C15B 1_555 1_555

#END
