
#######################################################################
#
#                 Cambridge Crystallographic Data Centre
#                                CCDC 
#
#######################################################################
#
# If this CIF has been generated from an entry in the Cambridge 
# Structural Database, then it will include bibliographic, chemical, 
# crystal, experimental, refinement or atomic coordinate data resulting 
# from the CCDC's data processing and validation procedures.
#
#######################################################################

data_RABNAL
_symmetry_cell_setting           monoclinic
_symmetry_space_group_name_H-M   'C c'
_symmetry_Int_Tables_number      9
_space_group_name_Hall           'C -2yc'
loop_
_symmetry_equiv_pos_site_id
_symmetry_equiv_pos_as_xyz
1 x,y,z
2 x,-y,1/2+z
3 1/2+x,1/2+y,z
4 1/2+x,1/2-y,1/2+z
_cell_length_a                   14.2379(2)
_cell_length_b                   12.28010(10)
_cell_length_c                   9.38300(10)
_cell_angle_alpha                90
_cell_angle_beta                 108.7210(10)
_cell_angle_gamma                90
_cell_volume                     1553.75
loop_
_atom_site_label
_atom_site_type_symbol
_atom_site_fract_x
_atom_site_fract_y
_atom_site_fract_z
C1 C 0.24790(18) 0.2502(2) 0.4328(2)
H1 H 0.1899 0.2098 0.3955
Cu1 Cu 0.16841(2) 0.124191(13) 0.73839(3)
O1 O 0.24995(13) -0.11099(13) 0.4988(2)
O2 O 0.07518(11) 0.08895(14) 0.49139(18)
O3 O 0.08508(11) -0.01950(13) 0.30768(17)
O4 O 0.23962(12) -0.00190(13) 0.68333(18)
N1 N 0.34287(14) 0.25663(16) 0.8344(2)
N2 N -0.01265(13) 0.24506(15) 0.6538(2)
C2 C 0.11479(13) 0.01505(14) 0.4402(2)
C3 C 0.20985(14) -0.03697(15) 0.5506(2)
N3 N 0.27439(12) 0.22352(14) 0.71130(19)
N4 N -0.05944(14) 0.33458(16) 0.6733(2)
H2 H -0.1200 0.3498 0.6234
N5 N 0.07836(12) 0.24831(14) 0.74735(19)
N6 N 0.40702(13) 0.31720(17) 0.7930(2)
H3 H 0.4580 0.3483 0.8549
C4 C 0.1607(2) 0.4847(2) 1.0006(4)
H4 H 0.2137 0.5164 1.0743
C5 C 0.4240(2) 0.3780(2) 0.5448(3)
H5 H 0.4804 0.4212 0.5814
C6 C 0.09082(13) 0.34173(15) 0.8303(2)
C7 C 0.17367(18) 0.38488(18) 0.9428(3)
H6 H 0.2338 0.3480 0.9761
C8 C -0.01177(19) 0.5002(2) 0.8422(3)
H7 H -0.0715 0.5379 0.8097
C9 C 0.00093(16) 0.39891(18) 0.7825(2)
C10 C 0.38211(15) 0.32386(17) 0.6409(2)
C11 C 0.2908(2) 0.3006(2) 0.3391(3)
H8 H 0.2619 0.2930 0.2356
C12 C 0.3781(3) 0.3641(3) 0.3958(3)
H9 H 0.4045 0.3972 0.3281
C13 C 0.0696(2) 0.5399(2) 0.9514(3)
H10 H 0.0644 0.6066 0.9952
C14 C 0.29561(14) 0.26235(16) 0.5878(2)
Cu1A Cu 0.16841(2) -0.124191(13) 0.23839(3)
O1A O 0.24995(13) 0.11099(13) 0.9988(2)
O3A O 0.08508(11) 0.01950(13) 0.80768(17)
loop_
_geom_bond_atom_site_label_1
_geom_bond_atom_site_label_2
_geom_bond_site_symmetry_1
_geom_bond_site_symmetry_2
C1 H1 1_555 1_555
Cu1 O2 1_555 1_555
O1 C3 1_555 1_555
O2 C2 1_555 1_555
O3 C2 1_555 1_555
O4 Cu1 1_555 1_555
N1 N3 1_555 1_555
N2 N4 1_555 1_555
C2 C3 1_555 1_555
C3 O4 1_555 1_555
N3 Cu1 1_555 1_555
N4 H2 1_555 1_555
N5 Cu1 1_555 1_555
N6 N1 1_555 1_555
H3 N6 1_555 1_555
C4 H4 1_555 1_555
C5 H5 1_555 1_555
C6 N5 1_555 1_555
C7 C4 1_555 1_555
H6 C7 1_555 1_555
C8 H7 1_555 1_555
C9 N4 1_555 1_555
C10 N6 1_555 1_555
C11 C1 1_555 1_555
H8 C11 1_555 1_555
C12 C5 1_555 1_555
H9 C12 1_555 1_555
C13 C4 1_555 1_555
H10 C13 1_555 1_555
C14 C1 1_555 1_555
Cu1A O1 1_555 1_555
O1A Cu1 1_555 1_555
O3A Cu1 1_555 1_555
O3 Cu1A 1_555 1_555
N2 N5 1_555 1_555
N3 C14 1_555 1_555
C5 C10 1_555 1_555
C6 C7 1_555 1_555
C6 C9 1_555 1_555
C8 C9 1_555 1_555
C8 C13 1_555 1_555
C10 C14 1_555 1_555
C11 C12 1_555 1_555

#END
