
#######################################################################
#
#                 Cambridge Crystallographic Data Centre
#                                CCDC 
#
#######################################################################
#
# If this CIF has been generated from an entry in the Cambridge 
# Structural Database, then it will include bibliographic, chemical, 
# crystal, experimental, refinement or atomic coordinate data resulting 
# from the CCDC's data processing and validation procedures.
#
#######################################################################

data_RABQOB
_symmetry_cell_setting           monoclinic
_symmetry_space_group_name_H-M   'P 21/n'
_symmetry_Int_Tables_number      14
_space_group_name_Hall           '-P 2yn'
loop_
_symmetry_equiv_pos_site_id
_symmetry_equiv_pos_as_xyz
1 x,y,z
2 1/2-x,1/2+y,1/2-z
3 -x,-y,-z
4 1/2+x,1/2-y,1/2+z
_cell_length_a                   10.358(8)
_cell_length_b                   7.680(5)
_cell_length_c                   23.191(17)
_cell_angle_alpha                90
_cell_angle_beta                 102.903(10)
_cell_angle_gamma                90
_cell_volume                     1798.25
loop_
_atom_site_label
_atom_site_type_symbol
_atom_site_fract_x
_atom_site_fract_y
_atom_site_fract_z
Cu1 Cu -0.04381(8) -0.14796(9) -0.46280(3)
N1 N 0.0188(5) -0.2318(7) -0.3799(2)
N2 N 0.0146(6) 0.0813(8) -0.2236(2)
N3 N -0.0458(5) -0.1499(8) -0.1843(2)
N4 N -0.1742(5) -0.3341(7) -0.4844(2)
N5 N -0.1537(5) -0.4850(8) -0.4883(2)
N6 N -0.1398(6) -0.6354(8) -0.4936(3)
N7 N -0.0834(5) -0.0488(6) -0.5449(2)
N8 N -0.1556(6) -0.1142(7) -0.5871(3)
N9 N -0.2225(6) -0.1782(9) -0.6274(3)
O1 O 0.0609(7) 0.1805(7) -0.2586(2)
O2 O -0.0735(5) -0.3082(7) -0.1768(2)
O3 O -0.1987(4) 0.0504(5) -0.43875(19)
H1 H -0.1712 0.1443 -0.4137
C1 C 0.0714(6) -0.3908(8) -0.3681(3)
H2 H 0.0852 -0.4580 -0.3995
C2 C 0.1059(6) -0.4594(8) -0.3124(3)
H3 H 0.1422 -0.5705 -0.3063
C3 C 0.0862(6) -0.3618(9) -0.2656(3)
H4 H 0.1088 -0.4056 -0.2273
C4 C 0.0324(6) -0.1978(8) -0.2763(3)
C5 C 0.0002(6) -0.1372(8) -0.3342(2)
H5 H -0.0358 -0.0263 -0.3414
C6 C 0.0003(6) -0.0892(9) -0.2284(3)
C7 C -0.0341(7) 0.1554(9) -0.1727(3)
C8 C -0.0697(7) -0.0124(9) -0.1430(3)
C9 C -0.2119(8) -0.0255(10) -0.1393(4)
H6 H -0.2678 -0.0010 -0.1774
H7 H -0.2293 0.0571 -0.1109
H8 H -0.2296 -0.1410 -0.1273
C10 C 0.0229(10) -0.0503(10) -0.0832(3)
H9 H -0.0042 -0.1560 -0.0672
H10 H 0.0192 0.0442 -0.0565
H11 H 0.1119 -0.0630 -0.0882
C11 C 0.0775(7) 0.2622(10) -0.1375(3)
H12 H 0.1512 0.1877 -0.1215
H13 H 0.0486 0.3194 -0.1058
H14 H 0.1040 0.3479 -0.1627
C12 C -0.1520(8) 0.2704(11) -0.2000(4)
H15 H -0.1214 0.3714 -0.2174
H16 H -0.1966 0.3059 -0.1698
H17 H -0.2122 0.2062 -0.2300
C13 C -0.3347(8) 0.0213(10) -0.4638(4)
H18 H -0.3866 0.1100 -0.4505
H19 H -0.3601 -0.0908 -0.4517
H20 H -0.3496 0.0250 -0.5062
N4B N 0.1742(5) -0.6659(7) -0.5156(2)
N5B N 0.1537(5) -0.5150(8) -0.5117(2)
N6B N 0.1398(6) -0.3646(8) -0.5064(3)
N7B N 0.0834(5) 0.0488(6) -0.4551(2)
Cu1B Cu 0.04381(8) -0.85204(9) -0.53720(3)
Cu1B_2 Cu 0.04381(8) 0.14796(9) -0.53720(3)
N1B N -0.0188(5) -0.7682(7) -0.6201(2)
N2B N -0.0146(6) -1.0813(8) -0.7764(2)
N3B N 0.0458(5) -0.8501(8) -0.8157(2)
O1B O -0.0609(7) -1.1805(7) -0.7414(2)
O2B O 0.0735(5) -0.6918(7) -0.8232(2)
C1B C -0.0714(6) -0.6092(8) -0.6319(3)
H2B H -0.0852 -0.5420 -0.6005
C2B C -0.1059(6) -0.5406(8) -0.6876(3)
H3B H -0.1422 -0.4295 -0.6937
C3B C -0.0862(6) -0.6382(9) -0.7344(3)
H4B H -0.1088 -0.5944 -0.7727
C4B C -0.0324(6) -0.8022(8) -0.7237(3)
C5B C -0.0002(6) -0.8628(8) -0.6658(2)
H5B H 0.0358 -0.9737 -0.6586
C6B C -0.0003(6) -0.9108(9) -0.7716(3)
C7B C 0.0341(7) -1.1554(9) -0.8273(3)
C8B C 0.0697(7) -0.9876(9) -0.8570(3)
C9B C 0.2119(8) -0.9745(10) -0.8607(4)
H6B H 0.2678 -0.9990 -0.8226
H7B H 0.2293 -1.0571 -0.8891
H8B H 0.2296 -0.8590 -0.8727
C10B C -0.0229(10) -0.9497(10) -0.9168(3)
H9B H 0.0042 -0.8440 -0.9328
H10B H -0.0192 -1.0442 -0.9435
H11B H -0.1119 -0.9370 -0.9118
C11B C -0.0775(7) -1.2622(10) -0.8625(3)
H12B H -0.1512 -1.1877 -0.8785
H13B H -0.0486 -1.3194 -0.8942
H14B H -0.1040 -1.3479 -0.8373
C12B C 0.1520(8) -1.2704(11) -0.8000(4)
H15B H 0.1214 -1.3714 -0.7826
H16B H 0.1966 -1.3059 -0.8302
H17B H 0.2122 -1.2062 -0.7700
N7_2 N -0.0834(5) -1.0488(6) -0.5449(2)
N8_2 N -0.1556(6) -1.1142(7) -0.5871(3)
N9_2 N -0.2225(6) -1.1782(9) -0.6274(3)
N7B_2 N 0.0834(5) -0.9512(6) -0.4551(2)
O3B O 0.1987(4) -1.0504(5) -0.56125(19)
H1B H 0.1712 -1.1443 -0.5863
C13B C 0.3347(8) -1.0213(10) -0.5362(4)
H18B H 0.3866 -1.1100 -0.5495
H19B H 0.3601 -0.9092 -0.5483
H20B H 0.3496 -1.0250 -0.4938
Cu1_2 Cu -0.04381(8) -1.14796(9) -0.46280(3)
loop_
_geom_bond_atom_site_label_1
_geom_bond_atom_site_label_2
_geom_bond_site_symmetry_1
_geom_bond_site_symmetry_2
Cu1 N1 1_555 1_555
N1 C1 1_555 1_555
N2 O1 1_555 1_555
N3 O2 1_555 1_555
N4 Cu1 1_555 1_555
N5 N4 1_555 1_555
N6 N5 1_555 1_555
N7 Cu1 1_555 1_555
N8 N7 1_555 1_555
N9 N8 1_555 1_555
O3 Cu1 1_555 1_555
H1 O3 1_555 1_555
C1 H2 1_555 1_555
C2 C1 1_555 1_555
H3 C2 1_555 1_555
C3 C2 1_555 1_555
H4 C3 1_555 1_555
C4 C3 1_555 1_555
C5 N1 1_555 1_555
H5 C5 1_555 1_555
C6 N2 1_555 1_555
C7 N2 1_555 1_555
C8 N3 1_555 1_555
C9 C8 1_555 1_555
H6 C9 1_555 1_555
H7 C9 1_555 1_555
H8 C9 1_555 1_555
C10 C8 1_555 1_555
H9 C10 1_555 1_555
H10 C10 1_555 1_555
H11 C10 1_555 1_555
C11 C7 1_555 1_555
H12 C11 1_555 1_555
H13 C11 1_555 1_555
H14 C11 1_555 1_555
C12 C7 1_555 1_555
H15 C12 1_555 1_555
H16 C12 1_555 1_555
H17 C12 1_555 1_555
C13 O3 1_555 1_555
H18 C13 1_555 1_555
H19 C13 1_555 1_555
H20 C13 1_555 1_555
N4B N5B 1_555 1_555
N5B N6B 1_555 1_555
N6B Cu1 1_555 1_555
N7B Cu1 1_555 1_555
Cu1B N6 1_555 1_555
Cu1B_2 N7 1_555 1_555
N1B Cu1B 1_555 1_555
N2B O1B 1_555 1_555
N3B O2B 1_555 1_555
C1B N1B 1_555 1_555
H2B C1B 1_555 1_555
C2B C1B 1_555 1_555
H3B C2B 1_555 1_555
C3B C2B 1_555 1_555
H4B C3B 1_555 1_555
C4B C3B 1_555 1_555
C5B N1B 1_555 1_555
H5B C5B 1_555 1_555
C6B N2B 1_555 1_555
C7B N2B 1_555 1_555
C8B N3B 1_555 1_555
C9B C8B 1_555 1_555
H6B C9B 1_555 1_555
H7B C9B 1_555 1_555
H8B C9B 1_555 1_555
C10B C8B 1_555 1_555
H9B C10B 1_555 1_555
H10B C10B 1_555 1_555
H11B C10B 1_555 1_555
C11B C7B 1_555 1_555
H12B C11B 1_555 1_555
H13B C11B 1_555 1_555
H14B C11B 1_555 1_555
C12B C7B 1_555 1_555
H15B C12B 1_555 1_555
H16B C12B 1_555 1_555
H17B C12B 1_555 1_555
N7_2 Cu1B 1_555 1_555
N8_2 N7_2 1_555 1_555
N9_2 N8_2 1_555 1_555
N7B_2 Cu1B 1_555 1_555
O3B Cu1B 1_555 1_555
H1B O3B 1_555 1_555
C13B O3B 1_555 1_555
H18B C13B 1_555 1_555
H19B C13B 1_555 1_555
H20B C13B 1_555 1_555
Cu1_2 N7_2 1_555 1_555
N3 C6 1_555 1_555
C4 C5 1_555 1_555
C4 C6 1_555 1_555
C7 C8 1_555 1_555
N4B Cu1B 1_555 1_555
N7B Cu1B_2 1_555 1_555
N3B C6B 1_555 1_555
C4B C5B 1_555 1_555
C4B C6B 1_555 1_555
C7B C8B 1_555 1_555
N7B_2 Cu1_2 1_555 1_555

#END
