
#######################################################################
#
#                 Cambridge Crystallographic Data Centre
#                                CCDC 
#
#######################################################################
#
# If this CIF has been generated from an entry in the Cambridge 
# Structural Database, then it will include bibliographic, chemical, 
# crystal, experimental, refinement or atomic coordinate data resulting 
# from the CCDC's data processing and validation procedures.
#
#######################################################################

data_RABRIR
_symmetry_cell_setting           tetragonal
_symmetry_space_group_name_H-M   'I -4 2 d'
_symmetry_Int_Tables_number      122
_space_group_name_Hall           'I -4 2bw'
loop_
_symmetry_equiv_pos_site_id
_symmetry_equiv_pos_as_xyz
1 x,y,z
2 y,-x,-z
3 x,1/2-y,1/4-z
4 -x,-y,z
5 1/2-y,-x,3/4+z
6 -y,x,-z
7 -x,1/2+y,1/4-z
8 1/2+y,x,3/4+z
9 1/2+x,1/2+y,1/2+z
10 1/2+y,1/2-x,1/2-z
11 1/2+x,-y,3/4-z
12 1/2-x,1/2-y,1/2+z
13 -y,1/2-x,1/4+z
14 1/2-y,1/2+x,1/2-z
15 1/2-x,y,3/4-z
16 y,1/2+x,1/4+z
_cell_length_a                   14.611(3)
_cell_length_b                   14.611(3)
_cell_length_c                   15.119(3)
_cell_angle_alpha                90
_cell_angle_beta                 90
_cell_angle_gamma                90
_cell_volume                     3227.62
loop_
_atom_site_label
_atom_site_type_symbol
_atom_site_fract_x
_atom_site_fract_y
_atom_site_fract_z
Mo1 Mo 0.5000 0.0000 0.2500
Cu1 Cu 0.5000 0.0000 0.0750(1)
Cu2 Cu 0.3505(1) -0.1032(1) 0.2676(1)
Br1 Br 0.5000 0.0000 -0.0758(1)
Br2 Br 0.2500 -0.0089(1) 0.3750
S1 S 0.3744(1) 0.0107(2) 0.1629(1)
N1 N 0.2755(5) -0.2142(5) 0.2522(7)
C1 C 0.1864(8) -0.2087(9) 0.2438(13)
C2 C 0.1317(10) -0.2858(11) 0.2389(18)
C3 C 0.1705(9) -0.3704(9) 0.2481(16)
C4 C 0.2623(9) -0.3763(7) 0.2582(11)
C5 C 0.3137(7) -0.2993(8) 0.2644(8)
Cu1I Cu 0.5000 0.0000 0.4250(1)
Br1I Br 0.5000 0.0000 0.5758(1)
S1I S 0.5107(2) 0.1256(1) 0.3371(1)
Cu2N Cu 0.1495(1) -0.1032(1) 0.4824(1)
Cu2D Cu 0.6032(1) -0.3505(1) 0.0176(1)
Br2D Br 0.5089(1) -0.2500 0.1250
Cu2M Cu 0.6032(1) -0.1495(1) 0.2324(1)
Cu2C Cu 0.6495(1) 0.1032(1) 0.2676(1)
Cu2I Cu 0.3968(1) 0.1495(1) 0.2324(1)
S1C S 0.6256(1) -0.0107(2) 0.1629(1)
Br2C Br 0.7500 0.0089(1) 0.3750
Br2I Br 0.4911(1) 0.2500 0.1250
S1M S 0.4893(2) -0.1256(1) 0.3371(1)
N1M N 0.7142(5) -0.2245(5) 0.2478(7)
C1M C 0.7087(9) -0.3136(8) 0.2562(13)
C2M C 0.7858(11) -0.3683(10) 0.2611(18)
C3M C 0.8704(9) -0.3295(9) 0.2519(16)
C4M C 0.8763(7) -0.2377(9) 0.2418(11)
C5M C 0.7993(8) -0.1863(7) 0.2356(8)
N1I N 0.2858(5) 0.2245(5) 0.2478(7)
C1I C 0.2913(9) 0.3136(8) 0.2562(13)
C2I C 0.2142(11) 0.3683(10) 0.2611(18)
C3I C 0.1296(9) 0.3295(9) 0.2519(16)
C4I C 0.1237(7) 0.2377(9) 0.2418(11)
C5I C 0.2007(8) 0.1863(7) 0.2356(8)
N1C N 0.7245(5) 0.2142(5) 0.2522(7)
C1C C 0.8136(8) 0.2087(9) 0.2438(13)
C2C C 0.8683(10) 0.2858(11) 0.2389(18)
C3C C 0.8295(9) 0.3704(9) 0.2481(16)
C4C C 0.7377(9) 0.3763(7) 0.2582(11)
C5C C 0.6863(7) 0.2993(8) 0.2644(8)
loop_
_geom_bond_atom_site_label_1
_geom_bond_atom_site_label_2
_geom_bond_site_symmetry_1
_geom_bond_site_symmetry_2
Mo1 Cu1 1_555 1_555
Cu1 Br1 1_555 1_555
Cu2 Mo1 1_555 1_555
Br2 Cu2 1_555 1_555
S1 Mo1 1_555 1_555
N1 Cu2 1_555 1_555
C1 N1 1_555 1_555
C2 C1 1_555 1_555
C3 C2 1_555 1_555
C4 C3 1_555 1_555
C5 N1 1_555 1_555
Cu1I Mo1 1_555 1_555
Br1I Cu1I 1_555 1_555
S1I Mo1 1_555 1_555
Cu2N Br2 1_555 1_555
Cu2D Br2D 1_555 1_555
Br2D Cu2M 1_555 1_555
Cu2M Mo1 1_555 1_555
Cu2C Mo1 1_555 1_555
Cu2I Mo1 1_555 1_555
S1C Mo1 1_555 1_555
Br2C Cu2C 1_555 1_555
Br2I Cu2I 1_555 1_555
S1M Mo1 1_555 1_555
N1M Cu2M 1_555 1_555
C1M N1M 1_555 1_555
C2M C1M 1_555 1_555
C3M C2M 1_555 1_555
C4M C3M 1_555 1_555
C5M N1M 1_555 1_555
N1I Cu2I 1_555 1_555
C1I N1I 1_555 1_555
C2I C1I 1_555 1_555
C3I C2I 1_555 1_555
C4I C3I 1_555 1_555
C5I N1I 1_555 1_555
N1C Cu2C 1_555 1_555
C1C N1C 1_555 1_555
C2C C1C 1_555 1_555
C3C C2C 1_555 1_555
C4C C3C 1_555 1_555
C5C N1C 1_555 1_555
Cu1 S1 1_555 1_555
Cu1 S1C 1_555 1_555
Cu2 S1M 1_555 1_555
Cu2 S1 1_555 1_555
S1 Cu2I 1_555 1_555
C4 C5 1_555 1_555
Cu1I S1I 1_555 1_555
Cu1I S1M 1_555 1_555
S1I Cu2C 1_555 1_555
S1I Cu2I 1_555 1_555
Cu2M S1M 1_555 1_555
Cu2M S1C 1_555 1_555
Cu2C S1C 1_555 1_555
C4M C5M 1_555 1_555
C4I C5I 1_555 1_555
C4C C5C 1_555 1_555

#END
