
#######################################################################
#
#                 Cambridge Crystallographic Data Centre
#                                CCDC 
#
#######################################################################
#
# If this CIF has been generated from an entry in the Cambridge 
# Structural Database, then it will include bibliographic, chemical, 
# crystal, experimental, refinement or atomic coordinate data resulting 
# from the CCDC's data processing and validation procedures.
#
#######################################################################

data_RABVOF
_symmetry_cell_setting           orthorhombic
_symmetry_space_group_name_H-M   'P 21 21 21'
_symmetry_Int_Tables_number      19
_space_group_name_Hall           'P 2ac 2ab'
loop_
_symmetry_equiv_pos_site_id
_symmetry_equiv_pos_as_xyz
1 x,y,z
2 1/2-x,-y,1/2+z
3 1/2+x,1/2-y,-z
4 -x,1/2+y,1/2-z
_cell_length_a                   5.5759(4)
_cell_length_b                   6.7452(4)
_cell_length_c                   22.174(1)
_cell_angle_alpha                90
_cell_angle_beta                 90
_cell_angle_gamma                90
_cell_volume                     833.977
loop_
_atom_site_label
_atom_site_type_symbol
_atom_site_fract_x
_atom_site_fract_y
_atom_site_fract_z
N1 N -0.194(5) -0.153(3) 0.2885(5)
N2 N 0.123(4) 0.359(4) 0.3106(8)
N3 N -0.362(3) 0.461(3) 0.4468(11)
N4 N -0.582(5) 0.528(4) 0.5285(6)
C1 C -0.035(3) -0.087(4) 0.2452(13)
C2 C -0.390(3) -0.233(3) 0.2591(11)
C3 C -0.337(4) -0.239(3) 0.1983(9)
C4 C -0.371(4) 0.443(5) 0.5088(11)
C5 C -0.575(5) 0.545(4) 0.4279(6)
C6 C -0.707(3) 0.593(4) 0.4785(13)
Ag1 Ag -0.6477(4) 0.5705(4) 0.62180(18)
Ag2 Ag -0.0925(4) 0.3953(4) 0.38475(16)
N2C N -0.123(4) -0.141(4) 0.1894(8)
N4B N -0.082(5) -0.028(4) 0.4715(6)
Ag1B Ag -0.1477(4) -0.0705(4) 0.37820(18)
Ag2C Ag 0.0925(4) -0.1047(4) 0.11525(16)
loop_
_geom_bond_atom_site_label_1
_geom_bond_atom_site_label_2
_geom_bond_site_symmetry_1
_geom_bond_site_symmetry_2
N1 C1 1_555 1_555
N2 Ag2 1_555 1_555
N3 C4 1_555 1_555
N4 C4 1_555 1_555
C1 N2C 1_555 1_555
C2 N1 1_555 1_555
C3 C2 1_555 1_555
C5 N3 1_555 1_555
C6 N4 1_555 1_555
Ag1 N4 1_555 1_555
Ag2 N3 1_555 1_555
N2C C3 1_555 1_555
N4B Ag1B 1_555 1_555
Ag1B N1 1_555 1_555
Ag2C N2C 1_555 1_555
C5 C6 1_555 1_555
Ag2 Ag1B 1_555 1_555

#END
