
#######################################################################
#
#                 Cambridge Crystallographic Data Centre
#                                CCDC 
#
#######################################################################
#
# If this CIF has been generated from an entry in the Cambridge 
# Structural Database, then it will include bibliographic, chemical, 
# crystal, experimental, refinement or atomic coordinate data resulting 
# from the CCDC's data processing and validation procedures.
#
#######################################################################

data_RABVOF03
_symmetry_cell_setting           orthorhombic
_symmetry_space_group_name_H-M   'P 21 21 21'
_symmetry_Int_Tables_number      19
_space_group_name_Hall           'P 2ac 2ab'
loop_
_symmetry_equiv_pos_site_id
_symmetry_equiv_pos_as_xyz
1 x,y,z
2 1/2-x,-y,1/2+z
3 -x,1/2+y,1/2-z
4 1/2+x,1/2-y,-z
_cell_length_a                   10.798(4)
_cell_length_b                   13.449(4)
_cell_length_c                   14.978(6)
_cell_angle_alpha                90
_cell_angle_beta                 90
_cell_angle_gamma                90
_cell_volume                     2175.14
loop_
_atom_site_label
_atom_site_type_symbol
_atom_site_fract_x
_atom_site_fract_y
_atom_site_fract_z
Ag1 Ag -0.25079(6) 0.66635(5) 1.02175(5)
Ag2 Ag 0.49918(6) 0.21808(5) 0.57399(5)
Ag3 Ag -1.11898(7) 0.89973(6) 1.48335(7)
Ag4 Ag -0.61496(6) 0.75650(6) 1.32842(5)
Ag5 Ag 0.13631(7) 0.47939(6) 0.77908(7)
N1 N -0.3228(6) 0.7149(6) 1.1423(5)
N2 N -0.4551(6) 0.7414(6) 1.2534(5)
C1 C -0.4365(8) 0.7015(7) 1.1731(6)
H1 H -0.4990 0.6662 1.1403
C2 C -0.3435(8) 0.7830(8) 1.2741(7)
H2 H -0.3259 0.8186 1.3282
C3 C -0.2655(9) 0.7681(8) 1.2071(7)
H3 H -0.1810 0.7903 1.2049
N3 N -0.1747(6) 0.6093(5) 0.9064(5)
N4 N -0.0334(6) 0.5332(5) 0.8238(6)
C4 C -0.2306(9) 0.5747(7) 0.8301(7)
H4 H -0.3162 0.5834 0.8147
C5 C -0.1448(9) 0.5293(8) 0.7813(7)
H5 H -0.1592 0.4981 0.7246
C6 C -0.0560(8) 0.5800(7) 0.8980(7)
H6 H 0.0055 0.5914 0.9431
N5 N 0.3030(7) 0.4292(6) 0.7272(7)
N6 N 0.4326(6) 0.3419(6) 0.6414(6)
C7 C 0.3168(8) 0.3538(7) 0.6717(8)
H7 H 0.2493 0.3111 0.6551
C8 C 0.4931(11) 0.4152(9) 0.6810(10)
H8 H 0.5807 0.4266 0.6764
C9 C 0.4179(10) 0.4685(9) 0.7318(10)
H9 H 0.4404 0.5262 0.7659
N7 N 0.5715(6) 0.0863(5) 0.5263(6)
N8 N 0.7083(6) -0.0332(6) 0.5008(6)
C10 C 0.6874(8) 0.0613(6) 0.5229(7)
H10 H 0.7539 0.1068 0.5349
C11 C 0.5932(9) -0.0719(7) 0.4898(7)
H11 H 0.5755 -0.1396 0.4738
C12 C 0.5088(9) 0.0002(7) 0.5046(7)
H12 H 0.4206 -0.0065 0.5000
N9 N -0.9404(7) 0.8456(6) 1.4682(6)
N10 N -0.7604(7) 0.7933(6) 1.4135(5)
C13 C -0.8810(9) 0.8090(8) 1.3971(7)
H13 H -0.9209 0.7944 1.3414
C14 C -0.8517(8) 0.8524(7) 1.5348(7)
H14 H -0.8660 0.8733 1.5952
C15 C -0.7432(9) 0.8204(7) 1.5016(6)
H15 H -0.6653 0.8180 1.5324
Ag3_2 Ag 0.88102(7) -0.10027(6) 0.48335(7)
N8_2 N -1.2917(6) 0.9668(6) 1.5008(6)
loop_
_geom_bond_atom_site_label_1
_geom_bond_atom_site_label_2
_geom_bond_site_symmetry_1
_geom_bond_site_symmetry_2
Ag1 N1 1_555 1_555
Ag2 N6 1_555 1_555
Ag3 N9 1_555 1_555
Ag4 N2 1_555 1_555
Ag5 N4 1_555 1_555
N1 C1 1_555 1_555
N2 C1 1_555 1_555
C1 H1 1_555 1_555
C2 N2 1_555 1_555
H2 C2 1_555 1_555
C3 N1 1_555 1_555
H3 C3 1_555 1_555
N3 Ag1 1_555 1_555
N4 C5 1_555 1_555
C4 N3 1_555 1_555
H4 C4 1_555 1_555
C5 C4 1_555 1_555
H5 C5 1_555 1_555
C6 N3 1_555 1_555
H6 C6 1_555 1_555
N5 Ag5 1_555 1_555
N6 C7 1_555 1_555
C7 N5 1_555 1_555
H7 C7 1_555 1_555
C8 N6 1_555 1_555
H8 C8 1_555 1_555
C9 N5 1_555 1_555
H9 C9 1_555 1_555
N7 Ag2 1_555 1_555
N8 C10 1_555 1_555
C10 N7 1_555 1_555
H10 C10 1_555 1_555
C11 N8 1_555 1_555
H11 C11 1_555 1_555
C12 N7 1_555 1_555
H12 C12 1_555 1_555
N9 C13 1_555 1_555
N10 Ag4 1_555 1_555
C13 N10 1_555 1_555
H13 C13 1_555 1_555
C14 N9 1_555 1_555
H14 C14 1_555 1_555
C15 N10 1_555 1_555
H15 C15 1_555 1_555
Ag3_2 N8 1_555 1_555
N8_2 Ag3 1_555 1_555
C2 C3 1_555 1_555
N4 C6 1_555 1_555
C8 C9 1_555 1_555
C11 C12 1_555 1_555
C14 C15 1_555 1_555

#END
