
#######################################################################
#
#                 Cambridge Crystallographic Data Centre
#                                CCDC 
#
#######################################################################
#
# If this CIF has been generated from an entry in the Cambridge 
# Structural Database, then it will include bibliographic, chemical, 
# crystal, experimental, refinement or atomic coordinate data resulting 
# from the CCDC's data processing and validation procedures.
#
#######################################################################

data_RABVOF02
_symmetry_cell_setting           orthorhombic
_symmetry_space_group_name_H-M   'P b c a'
_symmetry_Int_Tables_number      61
_space_group_name_Hall           '-P 2ac 2ab'
loop_
_symmetry_equiv_pos_site_id
_symmetry_equiv_pos_as_xyz
1 x,y,z
2 1/2-x,-y,1/2+z
3 -x,1/2+y,1/2-z
4 1/2+x,1/2-y,-z
5 -x,-y,-z
6 1/2+x,y,1/2-z
7 x,1/2-y,1/2+z
8 1/2-x,1/2+y,z
_cell_length_a                   10.1747(16)
_cell_length_b                   6.8415(9)
_cell_length_c                   23.881(2)
_cell_angle_alpha                90
_cell_angle_beta                 90
_cell_angle_gamma                90
_cell_volume                     1662.36
loop_
_atom_site_label
_atom_site_type_symbol
_atom_site_fract_x
_atom_site_fract_y
_atom_site_fract_z
Ag1 Ag 0.13223(3) 0.15334(4) 0.564356(8)
Ag2 Ag 0.23017(2) 0.01023(3) 0.312778(9)
N1 N 0.1189(2) 0.1783(4) 0.47810(10)
N2 N 0.1505(2) 0.1335(4) 0.38675(10)
N3 N 0.1292(2) 0.1528(3) 0.65103(10)
N4 N 0.1704(2) 0.0991(3) 0.74144(9)
C1 C 0.1924(3) 0.0984(5) 0.43835(11)
H1 H 0.2669 0.0242 0.4460
C2 C 0.0211(3) 0.2734(5) 0.44954(13)
H2 H -0.0468 0.3448 0.4657
C3 C 0.0396(3) 0.2464(5) 0.39407(12)
H3 H -0.0135 0.2956 0.3657
C4 C 0.2101(3) 0.0723(4) 0.68861(11)
H4 H 0.2861 0.0046 0.6790
C5 C 0.0566(3) 0.2044(4) 0.73704(11)
H5 H 0.0051 0.2468 0.7668
C6 C 0.0311(3) 0.2370(4) 0.68191(11)
H6 H -0.0406 0.3049 0.6677
Ag2A Ag 0.26983(2) -0.01023(3) 0.812778(9)
N4A N 0.3296(2) -0.0991(3) 0.24144(9)
loop_
_geom_bond_atom_site_label_1
_geom_bond_atom_site_label_2
_geom_bond_site_symmetry_1
_geom_bond_site_symmetry_2
Ag1 N1 1_555 1_555
Ag2 N2 1_555 1_555
N1 C1 1_555 1_555
N2 C1 1_555 1_555
N3 Ag1 1_555 1_555
N4 C4 1_555 1_555
C1 H1 1_555 1_555
C2 N1 1_555 1_555
H2 C2 1_555 1_555
C3 N2 1_555 1_555
H3 C3 1_555 1_555
C4 N3 1_555 1_555
H4 C4 1_555 1_555
C5 N4 1_555 1_555
H5 C5 1_555 1_555
C6 N3 1_555 1_555
H6 C6 1_555 1_555
Ag2A N4 1_555 1_555
N4A Ag2 1_555 1_555
C2 C3 1_555 1_555
C5 C6 1_555 1_555

#END
