
#######################################################################
#
#                 Cambridge Crystallographic Data Centre
#                                CCDC 
#
#######################################################################
#
# If this CIF has been generated from an entry in the Cambridge 
# Structural Database, then it will include bibliographic, chemical, 
# crystal, experimental, refinement or atomic coordinate data resulting 
# from the CCDC's data processing and validation procedures.
#
#######################################################################

data_RABVOF01
_symmetry_cell_setting           monoclinic
_symmetry_space_group_name_H-M   'P 21/c'
_symmetry_Int_Tables_number      14
_space_group_name_Hall           '-P 2ybc'
loop_
_symmetry_equiv_pos_site_id
_symmetry_equiv_pos_as_xyz
1 x,y,z
2 -x,1/2+y,1/2-z
3 -x,-y,-z
4 x,1/2-y,1/2+z
_cell_length_a                   11.4604(14)
_cell_length_b                   16.882(2)
_cell_length_c                   9.3032(13)
_cell_angle_alpha                90
_cell_angle_beta                 106.605(11)
_cell_angle_gamma                90
_cell_volume                     1724.87
loop_
_atom_site_label
_atom_site_type_symbol
_atom_site_fract_x
_atom_site_fract_y
_atom_site_fract_z
Ag1 Ag -0.88104(2) 0.199446(15) -0.11872(3)
Ag2 Ag -0.40878(2) 0.065653(17) 0.30344(3)
Ag3 Ag 0.13804(2) 0.119430(15) 0.58182(3)
Ag4 Ag -1.32133(2) 0.313290(18) -0.62016(3)
N1 N -0.7503(2) 0.11774(15) -0.0056(3)
N2 N -0.5763(2) 0.07044(16) 0.1420(3)
N3 N -0.2402(2) 0.06801(16) 0.4629(3)
N4 N -0.0405(2) 0.08433(15) 0.5606(3)
N5 N -1.6813(2) 0.34871(17) -0.8928(3)
N6 N -1.4856(2) 0.32185(16) -0.7857(3)
N7 N -1.1581(2) 0.31367(16) -0.4528(3)
N8 N -1.0001(2) 0.27641(15) -0.2635(3)
C1 C -0.6488(3) 0.13291(19) 0.1038(3)
H1 H -0.6306 0.1823 0.1489
C2 C -0.7404(3) 0.03982(19) -0.0417(4)
H2 H -0.7970 0.0115 -0.1153
C3 C -0.6342(3) 0.01104(19) 0.0478(4)
H3 H -0.6054 -0.0403 0.0459
C4 C -0.1366(3) 0.09331(18) 0.4422(3)
H4 H -0.1319 0.1154 0.3525
C5 C -0.2084(3) 0.0405(2) 0.6072(4)
H5 H -0.2611 0.0190 0.6564
C6 C -0.0862(3) 0.05014(19) 0.6660(4)
H6 H -0.0411 0.0358 0.7624
C7 C -1.5933(3) 0.3389(2) -0.7656(3)
H7 H -1.6057 0.3436 -0.6715
C8 C -1.5066(3) 0.3215(2) -0.9377(4)
H8 H -1.4488 0.3117 -0.9883
C9 C -1.6255(3) 0.3377(3) -1.0022(4)
H9 H -1.6632 0.3409 -1.1048
C10 C -1.1129(3) 0.26030(19) -0.3471(4)
H10 H -1.1558 0.2157 -0.3327
C11 C -0.9706(3) 0.3454(2) -0.3221(4)
H11 H -0.8967 0.3720 -0.2885
C12 C -1.0665(3) 0.3684(2) -0.4371(4)
H12 H -1.0699 0.4136 -0.4954
Ag3C Ag -1.86196(2) 0.380570(15) -0.91818(3)
N5C N 0.3187(2) 0.15129(17) 0.6072(3)
loop_
_geom_bond_atom_site_label_1
_geom_bond_atom_site_label_2
_geom_bond_site_symmetry_1
_geom_bond_site_symmetry_2
Ag1 N1 1_555 1_555
Ag2 N2 1_555 1_555
Ag3 N4 1_555 1_555
Ag4 N6 1_555 1_555
N1 C1 1_555 1_555
N2 C1 1_555 1_555
N3 Ag2 1_555 1_555
N4 C4 1_555 1_555
N5 C7 1_555 1_555
N6 C7 1_555 1_555
N7 Ag4 1_555 1_555
N8 Ag1 1_555 1_555
C1 H1 1_555 1_555
C2 N1 1_555 1_555
H2 C2 1_555 1_555
C3 N2 1_555 1_555
H3 C3 1_555 1_555
C4 N3 1_555 1_555
H4 C4 1_555 1_555
C5 N3 1_555 1_555
H5 C5 1_555 1_555
C6 N4 1_555 1_555
H6 C6 1_555 1_555
C7 H7 1_555 1_555
C8 N6 1_555 1_555
H8 C8 1_555 1_555
C9 N5 1_555 1_555
H9 C9 1_555 1_555
C10 N7 1_555 1_555
H10 C10 1_555 1_555
C11 N8 1_555 1_555
H11 C11 1_555 1_555
C12 N7 1_555 1_555
H12 C12 1_555 1_555
Ag3C N5 1_555 1_555
N5C Ag3 1_555 1_555
N8 C10 1_555 1_555
C2 C3 1_555 1_555
C5 C6 1_555 1_555
C8 C9 1_555 1_555
C11 C12 1_555 1_555

#END
