
#######################################################################
#
#                 Cambridge Crystallographic Data Centre
#                                CCDC 
#
#######################################################################
#
# If this CIF has been generated from an entry in the Cambridge 
# Structural Database, then it will include bibliographic, chemical, 
# crystal, experimental, refinement or atomic coordinate data resulting 
# from the CCDC's data processing and validation procedures.
#
#######################################################################

data_RABWAS
_symmetry_cell_setting           monoclinic
_symmetry_space_group_name_H-M   'P 21/n'
_symmetry_Int_Tables_number      14
_space_group_name_Hall           '-P 2yn'
loop_
_symmetry_equiv_pos_site_id
_symmetry_equiv_pos_as_xyz
1 x,y,z
2 1/2-x,1/2+y,1/2-z
3 -x,-y,-z
4 1/2+x,1/2-y,1/2+z
_cell_length_a                   7.236(3)
_cell_length_b                   16.897(3)
_cell_length_c                   20.52(1)
_cell_angle_alpha                90
_cell_angle_beta                 99.62(2)
_cell_angle_gamma                90
_cell_volume                     2473.63
loop_
_atom_site_label
_atom_site_type_symbol
_atom_site_fract_x
_atom_site_fract_y
_atom_site_fract_z
C1 C -0.2595(25) -0.3306(10) 0.3834(9)
C2 C -0.2446(26) -0.2539(10) 0.4066(9)
C3 C -0.1974(23) -0.1933(10) 0.3674(8)
C4 C -0.1584(25) -0.2091(10) 0.3045(8)
C5 C -0.1686(25) -0.2869(11) 0.2811(9)
C6 C -0.2216(25) -0.3470(10) 0.3229(9)
C7 C -0.3202(26) -0.3937(11) 0.4272(9)
C8 C -0.1835(29) -0.1100(11) 0.3939(9)
C9 C -0.1252(24) -0.3086(10) 0.2138(8)
O1 O -0.3612(20) -0.4613(8) 0.4022(6)
O2 O -0.3313(22) -0.3741(9) 0.4856(6)
O3 O -0.1496(27) -0.0546(8) 0.3565(8)
O4 O -0.2089(23) -0.1019(8) 0.4534(7)
O5 O -0.1105(21) -0.3811(7) 0.2015(6)
O6 O -0.1124(21) -0.2536(8) 0.1730(6)
C10 C 0.1685(24) 0.2006(10) 0.2236(9)
C11 C 0.1598(26) 0.2784(10) 0.2022(8)
C12 C 0.1961(25) 0.2987(11) 0.1387(8)
C13 C 0.2424(25) 0.2389(11) 0.0991(9)
C14 C 0.2583(27) 0.1599(10) 0.1209(8)
C15 C 0.2208(22) 0.1420(11) 0.1817(9)
C16 C 0.1329(24) 0.1790(11) 0.2915(9)
C17 C 0.1808(26) 0.3826(10) 0.1133(8)
C18 C 0.3236(27) 0.0982(10) 0.0772(8)
O7 O 0.1332(23) 0.2322(8) 0.3340(7)
O8 O 0.1138(21) 0.1054(8) 0.3036(7)
O9 O 0.1292(23) 0.4358(7) 0.1508(7)
O10 O 0.2185(24) 0.3917(8) 0.0568(7)
O11 O 0.3669(20) 0.0337(7) 0.1007(6)
O12 O 0.3274(22) 0.1191(9) 0.0172(7)
N2 N -0.0723(27) 0.1786(11) 0.4409(8)
N3 N 0.4429(28) 0.1694(11) 0.4365(9)
O14 O 0.3915(24) 0.1445(9) -0.1468(7)
O15 O -0.6663(24) -0.6174(10) 0.3433(8)
Ag1 Ag 0.4090(3) 0.0576(1) 0.3857(1)
Ag2 Ag -0.1044(3) 0.0672(1) 0.3873(1)
Ag3 Ag -0.2438(3) 0.0039(1) 0.5037(1)
Ag4 Ag -0.5288(3) -0.5538(1) 0.4458(1)
Ag5 Ag 0.4758(3) 0.0568(1) -0.0524(1)
O2B O -0.6687(22) -0.6259(9) 0.5144(6)
O10C O -0.2815(24) 0.1083(8) 0.5568(7)
Ag1A Ag 0.0910(3) 0.5576(1) 0.1143(1)
O11B O 0.6331(20) -0.0337(7) -0.1007(6)
Ag5B Ag 0.5242(3) -0.0568(1) 0.0524(1)
Ag3C Ag 0.2562(3) 0.4961(1) 0.0037(1)
Ag1B Ag -0.4090(3) -0.0576(1) 0.6143(1)
Ag4B Ag -0.4712(3) -0.4462(1) 0.5542(1)
Ag2A Ag -0.3956(3) -0.4328(1) 0.1127(1)
O9A O 0.3708(23) -0.0642(7) 0.3492(7)
Ag3B Ag 0.2438(3) -0.0039(1) 0.4963(1)
O5A O -0.3895(21) 0.1189(7) 0.2985(6)
N1 N -0.0259(28) -0.5242(10) 0.2644(9)
O13 O -0.4422(26) -0.5248(10) 0.2770(8)
loop_
_geom_bond_atom_site_label_1
_geom_bond_atom_site_label_2
_geom_bond_site_symmetry_1
_geom_bond_site_symmetry_2
C1 C2 1_555 1_555
C2 C3 1_555 1_555
C3 C4 1_555 1_555
C4 C5 1_555 1_555
C5 C6 1_555 1_555
C6 C1 1_555 1_555
C7 C1 1_555 1_555
C8 C3 1_555 1_555
C9 C5 1_555 1_555
O1 C7 1_555 1_555
O2 C7 1_555 1_555
O3 C8 1_555 1_555
O4 C8 1_555 1_555
O5 C9 1_555 1_555
O6 C9 1_555 1_555
C10 C11 1_555 1_555
C11 C12 1_555 1_555
C12 C13 1_555 1_555
C13 C14 1_555 1_555
C14 C15 1_555 1_555
C15 C10 1_555 1_555
C16 C10 1_555 1_555
C17 C12 1_555 1_555
C18 C14 1_555 1_555
O7 C16 1_555 1_555
O8 C16 1_555 1_555
O9 C17 1_555 1_555
O10 C17 1_555 1_555
O11 C18 1_555 1_555
O12 C18 1_555 1_555
N2 Ag2 1_555 1_555
N3 Ag1 1_555 1_555
O14 Ag5 1_555 1_555
O15 Ag4 1_555 1_555
Ag1 O8 1_555 1_555
Ag2 O3 1_555 1_555
Ag3 O4 1_555 1_555
Ag4 O1 1_555 1_555
Ag5 O12 1_555 1_555
O2B Ag4 1_555 1_555
O10C Ag3 1_555 1_555
Ag1A O9 1_555 1_555
O11B Ag5 1_555 1_555
Ag5B O11 1_555 1_555
Ag3C O10 1_555 1_555
Ag1B Ag3 1_555 1_555
Ag4B O2 1_555 1_555
Ag2A O5 1_555 1_555
O9A Ag1 1_555 1_555
Ag3B Ag1 1_555 1_555
O5A Ag2 1_555 1_555
O8 Ag2 1_555 1_555
Ag2 Ag3 1_555 1_555
Ag4 Ag4B 1_555 1_555
Ag5 Ag5B 1_555 1_555
Ag1A Ag3C 1_555 1_555

#END
