
#######################################################################
#
#                 Cambridge Crystallographic Data Centre
#                                CCDC 
#
#######################################################################
#
# If this CIF has been generated from an entry in the Cambridge 
# Structural Database, then it will include bibliographic, chemical, 
# crystal, experimental, refinement or atomic coordinate data resulting 
# from the CCDC's data processing and validation procedures.
#
#######################################################################

data_RABWEW
_symmetry_cell_setting           triclinic
_symmetry_space_group_name_H-M   'P -1'
_symmetry_Int_Tables_number      2
_space_group_name_Hall           '-P 1'
loop_
_symmetry_equiv_pos_site_id
_symmetry_equiv_pos_as_xyz
1 x,y,z
2 -x,-y,-z
_cell_length_a                   6.838(4)
_cell_length_b                   7.885(2)
_cell_length_c                   8.072(7)
_cell_angle_alpha                84.54(4)
_cell_angle_beta                 69.56(6)
_cell_angle_gamma                80.34(4)
_cell_volume                     401.723
loop_
_atom_site_label
_atom_site_type_symbol
_atom_site_fract_x
_atom_site_fract_y
_atom_site_fract_z
Ag1 Ag 0.1332(1) 0.7917(1) -1.3268(1)
N1 N -0.2864(9) 1.6123(7) -1.1779(8)
C1 C -0.2282(10) 1.4431(9) -1.1560(9)
C2 C -0.1901(10) 1.3285(8) -1.2888(9)
N2 N 0.2203(8) 0.6178(7) -1.5576(7)
C3 C -0.2821(11) 1.5484(9) -1.4611(10)
C4 C -0.3117(11) 1.6648(9) -1.3309(10)
C5 C -0.2077(10) 1.3871(9) -0.9772(9)
O1 O -0.2451(9) 1.4984(7) -0.8649(7)
O2 O 0.1573(9) 0.7735(6) -1.0445(7)
C6 C -0.1077(11) 1.1369(9) -1.2798(9)
O3 O -0.2394(8) 1.0345(6) -1.2390(8)
O4 O 0.0886(8) 1.0972(6) -1.3315(7)
Ag1A Ag -0.1332(1) 1.2083(1) -1.6732(1)
N2A N -0.2203(8) 1.3822(7) -1.4424(7)
O2A O -0.1573(9) 1.2265(6) -0.9555(7)
Ag1A_2 Ag -0.1332(1) 1.2083(1) -0.6732(1)
N3 N 0.3163(10) 0.1395(9) 0.8957(9)
loop_
_geom_bond_atom_site_label_1
_geom_bond_atom_site_label_2
_geom_bond_site_symmetry_1
_geom_bond_site_symmetry_2
Ag1 N2 1_555 1_555
N1 C1 1_555 1_555
C1 C2 1_555 1_555
C2 C6 1_555 1_555
C3 C4 1_555 1_555
C4 N1 1_555 1_555
C5 C1 1_555 1_555
O1 C5 1_555 1_555
O2 Ag1 1_555 1_555
C6 O3 1_555 1_555
O4 Ag1 1_555 1_555
Ag1A N2A 1_555 1_555
N2A C2 1_555 1_555
O2A C5 1_555 1_555
Ag1A_2 O2A 1_555 1_555
C3 N2A 1_555 1_555
C6 O4 1_555 1_555

#END
