
#######################################################################
#
#                 Cambridge Crystallographic Data Centre
#                                CCDC 
#
#######################################################################
#
# If this CIF has been generated from an entry in the Cambridge 
# Structural Database, then it will include bibliographic, chemical, 
# crystal, experimental, refinement or atomic coordinate data resulting 
# from the CCDC's data processing and validation procedures.
#
#######################################################################

data_RABXIC
_symmetry_cell_setting           monoclinic
_symmetry_space_group_name_H-M   'P 21/n'
_symmetry_Int_Tables_number      14
_space_group_name_Hall           '-P 2yn'
loop_
_symmetry_equiv_pos_site_id
_symmetry_equiv_pos_as_xyz
1 x,y,z
2 1/2+x,1/2-y,1/2+z
3 -x,-y,-z
4 1/2-x,1/2+y,1/2-z
_cell_length_a                   7.0622(6)
_cell_length_b                   9.6969(8)
_cell_length_c                   11.3531(9)
_cell_angle_alpha                90
_cell_angle_beta                 105.308(2)
_cell_angle_gamma                90
_cell_volume                     749.892
loop_
_atom_site_label
_atom_site_type_symbol
_atom_site_fract_x
_atom_site_fract_y
_atom_site_fract_z
Cu1 Cu 0.14825(5) 0.88096(4) 0.71360(3)
O1 O 0.2398(3) 1.0086(2) 0.59851(17)
N1 N 0.4125(4) 0.8411(3) 0.8154(2)
N2 N 0.7387(4) 0.8175(3) 0.9555(3)
N3 N 0.8717(4) 0.9552(3) 1.1384(3)
N4 N 0.0970(3) 1.1055(3) 0.4096(2)
N5 N -0.0027(3) 1.2667(2) 0.2207(2)
H1 H -0.0828 1.3388 0.1939
H2 H 0.0377 1.2333 0.1574
C1 C 0.5627(4) 0.8348(3) 0.8845(3)
C2 C 0.8005(4) 0.8950(3) 1.0517(3)
C3 C 0.0996(4) 1.0324(3) 0.5039(2)
C4 C 0.2605(4) 1.1864(4) 0.3907(3)
H3 H 0.3481 1.2136 0.4683
H4 H 0.3344 1.1336 0.3453
C5 C 0.1680(4) 1.3118(3) 0.3186(3)
H5 H 0.2628 1.3574 0.2836
H6 H 0.1266 1.3767 0.3719
C3B C -0.0996(4) 0.9676(3) 0.4961(2)
O1B O -0.2398(3) 0.9914(2) 0.40149(17)
N4B N -0.0970(3) 0.8945(3) 0.5904(2)
C4B C -0.2605(4) 0.8136(4) 0.6093(3)
H3B H -0.3481 0.7864 0.5317
H4B H -0.3344 0.8664 0.6547
C5B C -0.1680(4) 0.6882(3) 0.6814(3)
N5B N 0.0027(3) 0.7333(2) 0.7793(2)
H1B H 0.0828 0.6612 0.8061
H2B H -0.0377 0.7667 0.8426
H5B H -0.2628 0.6426 0.7164
H6B H -0.1266 0.6233 0.6281
N1B N 0.5875(4) 1.1589(3) 1.1846(2)
N2B N 0.2613(4) 1.1825(3) 1.0445(3)
N3B N 0.1283(4) 1.0448(3) 0.8616(3)
C1B C 0.4373(4) 1.1652(3) 1.1155(3)
C2B C 0.1995(4) 1.1050(3) 0.9483(3)
Cu1B Cu -0.14825(5) 1.11904(4) 0.28640(3)
Cu1B_2 Cu 0.85175(5) 1.11904(4) 1.28640(3)
N1B_2 N -0.4125(4) 1.1589(3) 0.1846(2)
N3_2 N -0.1283(4) 0.9552(3) 0.1384(3)
loop_
_geom_bond_atom_site_label_1
_geom_bond_atom_site_label_2
_geom_bond_site_symmetry_1
_geom_bond_site_symmetry_2
Cu1 O1 1_555 1_555
O1 C3 1_555 1_555
N1 Cu1 1_555 1_555
N2 C1 1_555 1_555
N3 C2 1_555 1_555
N4 C3 1_555 1_555
N5 H1 1_555 1_555
H2 N5 1_555 1_555
C1 N1 1_555 1_555
C2 N2 1_555 1_555
C3 C3B 1_555 1_555
C4 N4 1_555 1_555
H3 C4 1_555 1_555
H4 C4 1_555 1_555
C5 N5 1_555 1_555
H5 C5 1_555 1_555
H6 C5 1_555 1_555
C3B O1B 1_555 1_555
O1B Cu1B 1_555 1_555
N4B Cu1 1_555 1_555
C4B N4B 1_555 1_555
H3B C4B 1_555 1_555
H4B C4B 1_555 1_555
C5B C4B 1_555 1_555
N5B Cu1 1_555 1_555
H1B N5B 1_555 1_555
H2B N5B 1_555 1_555
H5B C5B 1_555 1_555
H6B C5B 1_555 1_555
N1B C1B 1_555 1_555
N2B C1B 1_555 1_555
N3B Cu1 1_555 1_555
C2B N2B 1_555 1_555
Cu1B N4 1_555 1_555
Cu1B_2 N3 1_555 1_555
N1B_2 Cu1B 1_555 1_555
N3_2 Cu1B 1_555 1_555
N5 Cu1B 1_555 1_555
C4 C5 1_555 1_555
C3B N4B 1_555 1_555
C5B N5B 1_555 1_555
N1B Cu1B_2 1_555 1_555
N3B C2B 1_555 1_555

#END
