
#######################################################################
#
#                 Cambridge Crystallographic Data Centre
#                                CCDC 
#
#######################################################################
#
# If this CIF has been generated from an entry in the Cambridge 
# Structural Database, then it will include bibliographic, chemical, 
# crystal, experimental, refinement or atomic coordinate data resulting 
# from the CCDC's data processing and validation procedures.
#
#######################################################################

data_RABYIC
_symmetry_cell_setting           monoclinic
_symmetry_space_group_name_H-M   'P 21/n'
_symmetry_Int_Tables_number      14
_space_group_name_Hall           '-P 2yn'
loop_
_symmetry_equiv_pos_site_id
_symmetry_equiv_pos_as_xyz
1 x,y,z
2 1/2-x,1/2+y,1/2-z
3 -x,-y,-z
4 1/2+x,1/2-y,1/2+z
_cell_length_a                   12.808(2)
_cell_length_b                   11.473(1)
_cell_length_c                   16.064(1)
_cell_angle_alpha                90
_cell_angle_beta                 102.34(1)
_cell_angle_gamma                90
_cell_volume                     2306.01
loop_
_atom_site_label
_atom_site_type_symbol
_atom_site_fract_x
_atom_site_fract_y
_atom_site_fract_z
Sn1 Sn 0.23791(2) 0.16865(2) 0.27915(1)
O1 O 0.1917(2) 0.3329(2) 0.3352(2)
O2 O 0.2829(2) -0.0111(2) 0.2395(1)
C1 C 0.0984(3) 0.1710(3) 0.1807(2)
C2 C 0.0482(4) 0.0717(4) 0.1467(3)
C3 C -0.0433(4) 0.0760(5) 0.0826(4)
C4 C -0.0843(4) 0.1787(5) 0.0517(4)
C5 C -0.0375(4) 0.2773(5) 0.0841(4)
C6 C 0.0539(4) 0.2739(4) 0.1488(3)
C7 C 0.3842(3) 0.2406(3) 0.2636(2)
C8 C 0.3908(3) 0.3095(4) 0.1952(3)
C9 C 0.4857(4) 0.3584(5) 0.1858(3)
C10 C 0.5766(4) 0.3386(5) 0.2455(4)
C11 C 0.5725(4) 0.2730(6) 0.3143(4)
C12 C 0.4766(4) 0.2248(5) 0.3236(3)
C13 C 0.2333(3) 0.0918(3) 0.3987(2)
C14 C 0.3062(4) 0.0093(4) 0.4358(3)
C15 C 0.3010(6) -0.0385(5) 0.5133(3)
C16 C 0.2275(7) -0.0061(7) 0.5549(4)
C17 C 0.1559(5) 0.0744(7) 0.5201(3)
C18 C 0.1561(4) 0.1245(5) 0.4415(3)
C19 C 0.1418(3) 0.5336(4) 0.5441(2)
C20 C 0.1298(4) 0.4708(6) 0.6146(3)
C21 C 0.1126(5) 0.5269(7) 0.6861(3)
C22 C 0.1065(4) 0.6425(7) 0.6885(3)
C23 C 0.1176(4) 0.7066(6) 0.6208(4)
C24 C 0.1348(4) 0.6526(5) 0.5481(3)
C25 C 0.1598(3) 0.4713(4) 0.4692(2)
C26 C 0.1837(3) 0.5140(4) 0.3996(3)
C27 C 0.1991(3) 0.4421(3) 0.3274(2)
O2A O 0.2171(2) 0.4889(2) 0.2605(1)
Sn1A Sn 0.26209(2) 0.66865(2) 0.22085(1)
loop_
_geom_bond_atom_site_label_1
_geom_bond_atom_site_label_2
_geom_bond_site_symmetry_1
_geom_bond_site_symmetry_2
Sn1 O1 1_555 1_555
O1 C27 1_555 1_555
O2 Sn1 1_555 1_555
C1 Sn1 1_555 1_555
C2 C1 1_555 1_555
C3 C2 1_555 1_555
C4 C3 1_555 1_555
C5 C4 1_555 1_555
C6 C1 1_555 1_555
C7 Sn1 1_555 1_555
C8 C7 1_555 1_555
C9 C8 1_555 1_555
C10 C9 1_555 1_555
C11 C10 1_555 1_555
C12 C7 1_555 1_555
C13 Sn1 1_555 1_555
C14 C13 1_555 1_555
C15 C14 1_555 1_555
C16 C15 1_555 1_555
C17 C16 1_555 1_555
C18 C13 1_555 1_555
C19 C20 1_555 1_555
C20 C21 1_555 1_555
C21 C22 1_555 1_555
C22 C23 1_555 1_555
C23 C24 1_555 1_555
C24 C19 1_555 1_555
C25 C19 1_555 1_555
C26 C25 1_555 1_555
C27 C26 1_555 1_555
O2A C27 1_555 1_555
Sn1A O2A 1_555 1_555
C5 C6 1_555 1_555
C11 C12 1_555 1_555
C17 C18 1_555 1_555

#END
