
#######################################################################
#
#                 Cambridge Crystallographic Data Centre
#                                CCDC 
#
#######################################################################
#
# If this CIF has been generated from an entry in the Cambridge 
# Structural Database, then it will include bibliographic, chemical, 
# crystal, experimental, refinement or atomic coordinate data resulting 
# from the CCDC's data processing and validation procedures.
#
#######################################################################

data_RABYIC01
_symmetry_cell_setting           monoclinic
_symmetry_space_group_name_H-M   'P 21/n'
_symmetry_Int_Tables_number      14
_space_group_name_Hall           '-P 2yn'
loop_
_symmetry_equiv_pos_site_id
_symmetry_equiv_pos_as_xyz
1 x,y,z
2 1/2-x,1/2+y,1/2-z
3 -x,-y,-z
4 1/2+x,1/2-y,1/2+z
_cell_length_a                   12.8222(2)
_cell_length_b                   11.4892(2)
_cell_length_c                   16.0870(3)
_cell_angle_alpha                90
_cell_angle_beta                 102.3586(7)
_cell_angle_gamma                90
_cell_volume                     2314.97
loop_
_atom_site_label
_atom_site_type_symbol
_atom_site_fract_x
_atom_site_fract_y
_atom_site_fract_z
C1 C 0.6420(3) 0.0339(4) 0.5439(2)
C2 C 0.6305(4) -0.0302(5) 0.6151(3)
C3 C 0.6114(5) 0.0254(8) 0.6866(3)
C4 C 0.6060(5) 0.1435(8) 0.6896(4)
C5 C 0.6163(5) 0.2073(7) 0.6202(4)
C6 C 0.6348(4) 0.1534(4) 0.5479(3)
C7 C 0.6599(3) -0.0287(3) 0.4688(2)
C8 C 0.6831(3) 0.0142(3) 0.3997(2)
C9 C 0.6984(2) -0.0582(3) 0.32751(19)
C10 C 0.7667(3) 0.0917(3) 0.10136(19)
C11 C 0.8425(4) 0.1248(5) 0.0581(3)
C12 C 0.8452(7) 0.0757(7) -0.0212(4)
C13 C 0.7709(8) -0.0080(7) -0.0548(4)
C14 C 0.6965(6) -0.0416(5) -0.0131(3)
C15 C 0.6924(4) 0.0089(3) 0.0646(2)
C16 C 0.9017(2) 0.1705(3) 0.31963(19)
C17 C 0.9462(3) 0.2746(4) 0.3510(3)
C18 C 1.0370(4) 0.2776(4) 0.4157(3)
C19 C 1.0842(4) 0.1778(5) 0.4493(3)
C20 C 1.0439(4) 0.0741(5) 0.4176(3)
C21 C 0.9516(3) 0.0693(4) 0.3531(3)
C22 C 0.6152(2) 0.2411(3) 0.23606(19)
C23 C 0.5228(3) 0.2255(4) 0.1753(3)
C24 C 0.4274(3) 0.2750(5) 0.1850(4)
C25 C 0.4235(4) 0.3386(5) 0.2557(5)
C26 C 0.5143(4) 0.3587(4) 0.3147(4)
C27 C 0.6100(3) 0.3099(3) 0.3059(3)
H1 H 0.634(4) -0.115(5) 0.613(4)
H2 H 0.607(5) -0.015(6) 0.733(4)
H3 H 0.595(6) 0.179(5) 0.740(5)
H4 H 0.616(5) 0.293(6) 0.621(4)
H5 H 0.641(4) 0.199(4) 0.495(3)
H6 H 0.649(3) -0.107(4) 0.471(2)
H7 H 0.693(3) 0.088(4) 0.395(2)
H8 H 0.893(4) 0.181(4) 0.083(3)
H9 H 0.903(5) 0.101(7) -0.040(5)
H10 H 0.772(6) -0.044(6) -0.110(3)
H11 H 0.644(4) -0.099(5) -0.036(3)
H12 H 0.634(3) -0.016(4) 0.096(3)
H13 H 0.914(3) 0.347(4) 0.327(3)
H14 H 1.066(4) 0.353(4) 0.433(3)
H15 H 1.152(4) 0.179(4) 0.488(3)
H16 H 1.078(4) -0.001(5) 0.443(3)
H17 H 0.922(3) -0.009(4) 0.332(3)
H18 H 0.529(4) 0.177(4) 0.125(3)
H19 H 0.367(5) 0.270(5) 0.138(3)
H20 H 0.359(5) 0.365(5) 0.259(4)
H21 H 0.520(4) 0.406(5) 0.363(3)
H22 H 0.671(4) 0.325(3) 0.350(3)
O1 O 0.71775(17) -0.01085(17) 0.26204(12)
O2 O 0.69152(19) -0.16710(16) 0.33556(15)
Sn1 Sn 0.762072(15) 0.168592(16) 0.220839(12)
O2A O 0.80848(19) 0.33290(16) 0.16444(15)
Sn1A Sn 0.737928(15) -0.331408(16) 0.279161(12)
loop_
_geom_bond_atom_site_label_1
_geom_bond_atom_site_label_2
_geom_bond_site_symmetry_1
_geom_bond_site_symmetry_2
C1 C2 1_555 1_555
C2 C3 1_555 1_555
C3 C4 1_555 1_555
C4 C5 1_555 1_555
C5 C6 1_555 1_555
C6 C1 1_555 1_555
C7 C1 1_555 1_555
C8 C7 1_555 1_555
C9 C8 1_555 1_555
C10 C11 1_555 1_555
C11 C12 1_555 1_555
C12 C13 1_555 1_555
C13 C14 1_555 1_555
C14 C15 1_555 1_555
C15 C10 1_555 1_555
C16 C17 1_555 1_555
C17 C18 1_555 1_555
C18 C19 1_555 1_555
C19 C20 1_555 1_555
C20 C21 1_555 1_555
C21 C16 1_555 1_555
C22 C23 1_555 1_555
C23 C24 1_555 1_555
C24 C25 1_555 1_555
C25 C26 1_555 1_555
C26 C27 1_555 1_555
C27 C22 1_555 1_555
H1 C2 1_555 1_555
H2 C3 1_555 1_555
H3 C4 1_555 1_555
H4 C5 1_555 1_555
H5 C6 1_555 1_555
H6 C7 1_555 1_555
H7 C8 1_555 1_555
H8 C11 1_555 1_555
H9 C12 1_555 1_555
H10 C13 1_555 1_555
H11 C14 1_555 1_555
H12 C15 1_555 1_555
H13 C17 1_555 1_555
H14 C18 1_555 1_555
H15 C19 1_555 1_555
H16 C20 1_555 1_555
H17 C21 1_555 1_555
H18 C23 1_555 1_555
H19 C24 1_555 1_555
H20 C25 1_555 1_555
H21 C26 1_555 1_555
H22 C27 1_555 1_555
O1 C9 1_555 1_555
O2 C9 1_555 1_555
Sn1 C10 1_555 1_555
O2A Sn1 1_555 1_555
Sn1A O2 1_555 1_555
C16 Sn1 1_555 1_555
C22 Sn1 1_555 1_555
O1 Sn1 1_555 1_555

#END
