
#######################################################################
#
#                 Cambridge Crystallographic Data Centre
#                                CCDC 
#
#######################################################################
#
# If this CIF has been generated from an entry in the Cambridge 
# Structural Database, then it will include bibliographic, chemical, 
# crystal, experimental, refinement or atomic coordinate data resulting 
# from the CCDC's data processing and validation procedures.
#
#######################################################################

data_RABYIC02
_symmetry_cell_setting           monoclinic
_symmetry_space_group_name_H-M   'P 21/c'
_symmetry_Int_Tables_number      14
_space_group_name_Hall           '-P 2ybc'
loop_
_symmetry_equiv_pos_site_id
_symmetry_equiv_pos_as_xyz
1 x,y,z
2 -x,1/2+y,1/2-z
3 -x,-y,-z
4 x,1/2-y,1/2+z
_cell_length_a                   12.8128(9)
_cell_length_b                   11.4590(8)
_cell_length_c                   18.2901(11)
_cell_angle_alpha                90
_cell_angle_beta                 120.784(4)
_cell_angle_gamma                90
_cell_volume                     2307.02
loop_
_atom_site_label
_atom_site_type_symbol
_atom_site_fract_x
_atom_site_fract_y
_atom_site_fract_z
Sn1 Sn 0.541265(13) -0.168583(13) -0.220877(8)
O1 O 0.64388(16) -0.33329(13) -0.16453(11)
O2 O 0.54368(14) -0.48938(14) -0.23891(10)
C1 C 0.5817(2) -0.1707(2) -0.31976(14)
C2 C 0.5954(3) -0.2746(3) -0.35104(19)
H1 H 0.5872 -0.3443 -0.3284
C3 C 0.6213(4) -0.2775(3) -0.4160(2)
H2 H 0.6289 -0.3490 -0.4369
C4 C 0.6355(4) -0.1783(3) -0.4490(2)
H3 H 0.6518 -0.1810 -0.4931
C5 C 0.6261(4) -0.0744(4) -0.4177(3)
H4 H 0.6384 -0.0056 -0.4392
C6 C 0.5980(3) -0.0697(3) -0.3533(2)
H5 H 0.5904 0.0023 -0.3330
C7 C 0.3787(2) -0.2408(2) -0.23645(14)
C8 C 0.3044(2) -0.3099(3) -0.30582(18)
H6 H 0.3247 -0.3234 -0.3471
C9 C 0.2002(3) -0.3590(3) -0.3147(3)
H7 H 0.1514 -0.4058 -0.3615
C10 C 0.1686(3) -0.3392(3) -0.2550(3)
H8 H 0.0969 -0.3701 -0.2621
C11 C 0.2421(4) -0.2744(4) -0.1854(3)
H9 H 0.2220 -0.2628 -0.1438
C12 C 0.3476(3) -0.2252(3) -0.1757(2)
H10 H 0.3976 -0.1812 -0.1275
C13 C 0.6649(2) -0.0917(2) -0.10118(14)
C14 C 0.6288(3) -0.0088(3) -0.06454(17)
H11 H 0.5480 0.0150 -0.0926
C15 C 0.7110(6) 0.0401(4) 0.0137(2)
H12 H 0.6848 0.0964 0.0374
C16 C 0.8278(6) 0.0068(6) 0.0553(3)
H13 H 0.8826 0.0396 0.1077
C17 C 0.8654(4) -0.0759(5) 0.0200(3)
H14 H 0.9461 -0.0998 0.0491
C18 C 0.7852(3) -0.1246(3) -0.0587(2)
H15 H 0.8125 -0.1793 -0.0826
C19 C 0.6290(2) -0.4418(2) -0.17254(14)
C20 C 0.7158(2) -0.5143(2) -0.10032(14)
H16 H 0.7040 -0.5947 -0.1039
C21 C 0.8092(2) -0.4713(2) -0.03091(15)
H17 H 0.8173 -0.3905 -0.0293
C22 C 0.9019(2) -0.5338(3) 0.04389(16)
C23 C 0.9846(3) -0.4703(4) 0.11472(19)
H18 H 0.9797 -0.3893 0.1140
C24 C 1.0747(4) -0.5268(6) 0.1868(2)
H19 H 1.1297 -0.4831 0.2337
C25 C 1.0832(4) -0.6440(6) 0.1896(3)
H20 H 1.1431 -0.6811 0.2383
C26 C 1.0033(3) -0.7080(4) 0.1203(3)
H21 H 1.0095 -0.7889 0.1219
C27 C 0.9130(3) -0.6537(3) 0.0476(2)
H22 H 0.8594 -0.6985 0.0009
Sn1A Sn 0.458735(13) -0.668583(13) -0.279123(8)
O2A O 0.45632(14) 0.01062(14) -0.26109(10)
loop_
_geom_bond_atom_site_label_1
_geom_bond_atom_site_label_2
_geom_bond_site_symmetry_1
_geom_bond_site_symmetry_2
Sn1 O1 1_555 1_555
O1 C19 1_555 1_555
O2 C19 1_555 1_555
C1 Sn1 1_555 1_555
C2 C1 1_555 1_555
H1 C2 1_555 1_555
C3 C2 1_555 1_555
H2 C3 1_555 1_555
C4 C3 1_555 1_555
H3 C4 1_555 1_555
C5 C4 1_555 1_555
H4 C5 1_555 1_555
C6 C1 1_555 1_555
H5 C6 1_555 1_555
C7 Sn1 1_555 1_555
C8 C7 1_555 1_555
H6 C8 1_555 1_555
C9 C8 1_555 1_555
H7 C9 1_555 1_555
C10 C9 1_555 1_555
H8 C10 1_555 1_555
C11 C10 1_555 1_555
H9 C11 1_555 1_555
C12 C7 1_555 1_555
H10 C12 1_555 1_555
C13 Sn1 1_555 1_555
C14 C13 1_555 1_555
H11 C14 1_555 1_555
C15 C14 1_555 1_555
H12 C15 1_555 1_555
C16 C15 1_555 1_555
H13 C16 1_555 1_555
C17 C16 1_555 1_555
H14 C17 1_555 1_555
C18 C13 1_555 1_555
H15 C18 1_555 1_555
C19 C20 1_555 1_555
C20 H16 1_555 1_555
C21 C20 1_555 1_555
H17 C21 1_555 1_555
C22 C21 1_555 1_555
C23 C22 1_555 1_555
H18 C23 1_555 1_555
C24 C23 1_555 1_555
H19 C24 1_555 1_555
C25 C24 1_555 1_555
H20 C25 1_555 1_555
C26 C25 1_555 1_555
H21 C26 1_555 1_555
C27 C22 1_555 1_555
H22 C27 1_555 1_555
Sn1A O2 1_555 1_555
O2A Sn1 1_555 1_555
C5 C6 1_555 1_555
C11 C12 1_555 1_555
C17 C18 1_555 1_555
C26 C27 1_555 1_555

#END
