
#######################################################################
#
#                 Cambridge Crystallographic Data Centre
#                                CCDC 
#
#######################################################################
#
# If this CIF has been generated from an entry in the Cambridge 
# Structural Database, then it will include bibliographic, chemical, 
# crystal, experimental, refinement or atomic coordinate data resulting 
# from the CCDC's data processing and validation procedures.
#
#######################################################################

data_RABZOL
_symmetry_cell_setting           monoclinic
_symmetry_space_group_name_H-M   'I 2/a'
_symmetry_Int_Tables_number      15
_space_group_name_Hall           '-I 2ya'
loop_
_symmetry_equiv_pos_site_id
_symmetry_equiv_pos_as_xyz
1 x,y,z
2 1/2-x,y,-z
3 1/2+x,1/2+y,1/2+z
4 -x,1/2+y,1/2-z
5 -x,-y,-z
6 1/2+x,-y,z
7 1/2-x,1/2-y,1/2-z
8 x,1/2-y,1/2+z
_cell_length_a                   16.191(2)
_cell_length_b                   7.3503(8)
_cell_length_c                   21.399(3)
_cell_angle_alpha                90
_cell_angle_beta                 98.349(7)
_cell_angle_gamma                90
_cell_volume                     2519.68
loop_
_atom_site_label
_atom_site_type_symbol
_atom_site_fract_x
_atom_site_fract_y
_atom_site_fract_z
Fe1 Fe 0.5000 0.0000 0.5000
N1 N 0.50959(14) -0.0020(4) 0.81055(10)
N2 N 0.53740(13) 0.0239(3) 0.64797(10)
N3 N 0.47473(13) 0.0182(3) 0.59721(10)
N4 N 0.41729(13) 0.0570(3) 0.68399(10)
N5 N 0.39814(15) -0.1887(3) 0.47637(11)
N6 N 0.34566(15) -0.4887(3) 0.43951(13)
N7 N 0.41900(15) -0.7720(3) 0.47554(11)
C1 C 0.55465(18) -0.0070(4) 0.86845(13)
H1 H 0.5277 -0.0461 0.9027
C2 C 0.63761(19) 0.0413(4) 0.88100(13)
H2 H 0.6674 0.0306 0.9225
C3 C 0.67664(18) 0.1057(4) 0.83213(13)
H3 H 0.7336 0.1413 0.8395
C4 C 0.63145(18) 0.1173(4) 0.77224(13)
H4 H 0.6561 0.1654 0.7381
C5 C 0.54926(17) 0.0572(3) 0.76310(12)
C6 C 0.50290(17) 0.0485(3) 0.69931(13)
C7 C 0.40220(17) 0.0370(3) 0.61898(12)
C8 C 0.31919(18) 0.0391(3) 0.58754(13)
H5 H 0.3075 0.0228 0.5431
C9 C 0.25673(18) 0.0650(4) 0.62248(14)
H6 H 0.2004 0.0644 0.6025
C10 C 0.27492(18) 0.0932(4) 0.68912(14)
H7 H 0.2304 0.1167 0.7124
C11 C 0.35351(17) 0.0873(4) 0.71963(13)
H8 H 0.3650 0.1033 0.7641
C12 C 0.38702(18) -0.6362(4) 0.46021(13)
C13 C 0.37612(17) -0.3329(4) 0.46023(13)
Fe1_2 Fe 0.5000 -1.0000 0.5000
N1D N 0.49041(14) 0.0020(4) 0.18945(10)
N2D N 0.46260(13) -0.0239(3) 0.35203(10)
N3D N 0.52527(13) -0.0182(3) 0.40279(10)
N4D N 0.58271(13) -0.0570(3) 0.31601(10)
N5D N 0.60186(15) -0.8113(3) 0.52363(11)
N5D_2 N 0.60186(15) 0.1887(3) 0.52363(11)
N6D N 0.65434(15) -0.5113(3) 0.56049(13)
N7D N 0.58100(15) -0.2280(3) 0.52446(11)
N7_2 N 0.41900(15) 0.2280(3) 0.47554(11)
C1D C 0.44535(18) 0.0070(4) 0.13155(13)
H1D H 0.4723 0.0461 0.0973
C2D C 0.36239(19) -0.0413(4) 0.11900(13)
H2D H 0.3326 -0.0306 0.0775
C3D C 0.32336(18) -0.1057(4) 0.16787(13)
H3D H 0.2664 -0.1413 0.1605
C4D C 0.36855(18) -0.1173(4) 0.22776(13)
H4D H 0.3439 -0.1654 0.2619
C5D C 0.45074(17) -0.0572(3) 0.23690(12)
C6D C 0.49710(17) -0.0485(3) 0.30069(13)
C7D C 0.59780(17) -0.0370(3) 0.38102(12)
C8D C 0.68081(18) -0.0391(3) 0.41246(13)
H5D H 0.6925 -0.0228 0.4569
C9D C 0.74327(18) -0.0650(4) 0.37752(14)
H6D H 0.7996 -0.0644 0.3975
C10D C 0.72508(18) -0.0932(4) 0.31088(14)
H7D H 0.7696 -0.1167 0.2876
C11D C 0.64649(17) -0.0873(4) 0.28037(13)
H8D H 0.6350 -0.1033 0.2359
C12D C 0.61298(18) -0.3638(4) 0.53979(13)
C13D C 0.62388(17) -0.6671(4) 0.53977(13)
loop_
_geom_bond_atom_site_label_1
_geom_bond_atom_site_label_2
_geom_bond_site_symmetry_1
_geom_bond_site_symmetry_2
Fe1 N3 1_555 1_555
N1 C1 1_555 1_555
N2 N3 1_555 1_555
N3 C7 1_555 1_555
N4 C6 1_555 1_555
N5 Fe1 1_555 1_555
N6 C12 1_555 1_555
N7 C12 1_555 1_555
C1 H1 1_555 1_555
C2 C1 1_555 1_555
H2 C2 1_555 1_555
C3 C2 1_555 1_555
H3 C3 1_555 1_555
C4 C3 1_555 1_555
H4 C4 1_555 1_555
C5 N1 1_555 1_555
C6 N2 1_555 1_555
C7 N4 1_555 1_555
C8 C7 1_555 1_555
H5 C8 1_555 1_555
C9 C8 1_555 1_555
H6 C9 1_555 1_555
C10 C9 1_555 1_555
H7 C10 1_555 1_555
C11 N4 1_555 1_555
H8 C11 1_555 1_555
C13 N5 1_555 1_555
Fe1_2 N7 1_555 1_555
N1D C1D 1_555 1_555
N2D N3D 1_555 1_555
N3D Fe1 1_555 1_555
N4D C6D 1_555 1_555
N5D Fe1_2 1_555 1_555
N5D_2 Fe1 1_555 1_555
N6D C12D 1_555 1_555
N7D Fe1 1_555 1_555
N7_2 Fe1 1_555 1_555
C1D H1D 1_555 1_555
C2D C1D 1_555 1_555
H2D C2D 1_555 1_555
C3D C2D 1_555 1_555
H3D C3D 1_555 1_555
C4D C3D 1_555 1_555
H4D C4D 1_555 1_555
C5D N1D 1_555 1_555
C6D N2D 1_555 1_555
C7D N3D 1_555 1_555
C8D C7D 1_555 1_555
H5D C8D 1_555 1_555
C9D C8D 1_555 1_555
H6D C9D 1_555 1_555
C10D C9D 1_555 1_555
H7D C10D 1_555 1_555
C11D N4D 1_555 1_555
H8D C11D 1_555 1_555
C12D N7D 1_555 1_555
C13D N5D 1_555 1_555
N6 C13 1_555 1_555
C4 C5 1_555 1_555
C5 C6 1_555 1_555
C10 C11 1_555 1_555
N4D C7D 1_555 1_555
N6D C13D 1_555 1_555
C4D C5D 1_555 1_555
C5D C6D 1_555 1_555
C10D C11D 1_555 1_555

#END
