
#######################################################################
#
#                 Cambridge Crystallographic Data Centre
#                                CCDC 
#
#######################################################################
#
# If this CIF has been generated from an entry in the Cambridge 
# Structural Database, then it will include bibliographic, chemical, 
# crystal, experimental, refinement or atomic coordinate data resulting 
# from the CCDC's data processing and validation procedures.
#
#######################################################################

data_RACBOO
_symmetry_cell_setting           triclinic
_symmetry_space_group_name_H-M   'P -1'
_symmetry_Int_Tables_number      2
_space_group_name_Hall           '-P 1'
loop_
_symmetry_equiv_pos_site_id
_symmetry_equiv_pos_as_xyz
1 x,y,z
2 -x,-y,-z
_cell_length_a                   6.027(2)
_cell_length_b                   7.243(3)
_cell_length_c                   14.186(5)
_cell_angle_alpha                92.491(8)
_cell_angle_beta                 101.383(7)
_cell_angle_gamma                97.471(7)
_cell_volume                     600.411
loop_
_atom_site_label
_atom_site_type_symbol
_atom_site_fract_x
_atom_site_fract_y
_atom_site_fract_z
Sr1 Sr 0.17727(4) 0.77032(4) 0.481410(19)
S1 S 0.61661(13) 0.82697(11) 0.32572(5)
S2 S -0.24255(13) 0.71342(11) 0.60449(5)
O1 O 0.4020(4) 0.7486(3) 0.34954(16)
O2 O 0.8053(4) 0.7244(3) 0.35862(16)
O3 O 0.6741(4) 1.0258(3) 0.35370(16)
O4 O -0.1796(4) 0.8966(3) 0.57026(15)
O5 O -0.1029(3) 0.5823(3) 0.57170(14)
O6 O -0.4851(4) 0.6514(3) 0.58119(15)
N1 N 0.6326(6) 0.8031(5) 0.0485(2)
N2 N 0.4138(6) 0.7353(5) 0.0486(2)
H1 H 0.3134 0.6982 -0.0030
N3 N 0.0347(5) 0.6843(5) 0.8786(2)
N4 N -0.1613(5) 0.7576(4) 0.8823(2)
H2 H -0.2026 0.7857 0.9352
C1 C 0.3688(6) 0.7314(5) 0.1371(2)
H3 H 0.2295 0.6891 0.1532
C2 C 0.5683(6) 0.8020(5) 0.1992(2)
C3 C 0.7259(6) 0.8439(6) 0.1416(3)
H4 H 0.8779 0.8943 0.1649
C4 C -0.2811(6) 0.7810(5) 0.7958(2)
H5 H -0.4202 0.8269 0.7825
C5 C -0.1613(5) 0.7245(5) 0.7300(2)
C6 C 0.0328(6) 0.6653(5) 0.7848(2)
H6 H 0.1461 0.6186 0.7588
Sr1_2 Sr 1.17727(4) 0.77032(4) 0.481410(19)
Sr1A Sr 0.82273(4) 1.22968(4) 0.518590(19)
Sr1A_2 Sr -0.17727(4) 1.22968(4) 0.518590(19)
Sr1A_3 Sr -0.17727(4) 0.22968(4) 0.518590(19)
Sr1_3 Sr -0.82273(4) 0.77032(4) 0.481410(19)
O2_2 O -0.1947(4) 0.7244(3) 0.35862(16)
O3A O 0.3259(4) 0.9742(3) 0.64630(16)
O4A O 0.1796(4) 1.1034(3) 0.42974(15)
O5A O 0.1029(3) 0.4177(3) 0.42830(14)
O6_2 O 0.5149(4) 0.6514(3) 0.58119(15)
loop_
_geom_bond_atom_site_label_1
_geom_bond_atom_site_label_2
_geom_bond_site_symmetry_1
_geom_bond_site_symmetry_2
Sr1 O1 1_555 1_555
S1 O1 1_555 1_555
S2 O4 1_555 1_555
O2 S1 1_555 1_555
O3 S1 1_555 1_555
O4 Sr1 1_555 1_555
O5 Sr1 1_555 1_555
O6 S2 1_555 1_555
N1 N2 1_555 1_555
N2 H1 1_555 1_555
N3 N4 1_555 1_555
N4 H2 1_555 1_555
C1 N2 1_555 1_555
H3 C1 1_555 1_555
C2 S1 1_555 1_555
C3 N1 1_555 1_555
H4 C3 1_555 1_555
C4 N4 1_555 1_555
H5 C4 1_555 1_555
C5 S2 1_555 1_555
C6 N3 1_555 1_555
H6 C6 1_555 1_555
Sr1_2 O2 1_555 1_555
Sr1A O3 1_555 1_555
Sr1A_2 O4 1_555 1_555
Sr1A_3 O5 1_555 1_555
Sr1_3 O6 1_555 1_555
O2_2 Sr1 1_555 1_555
O3A Sr1 1_555 1_555
O4A Sr1 1_555 1_555
O5A Sr1 1_555 1_555
O6_2 Sr1 1_555 1_555
S2 O5 1_555 1_555
C1 C2 1_555 1_555
C2 C3 1_555 1_555
C4 C5 1_555 1_555
C5 C6 1_555 1_555
Sr1A_2 O4A 1_555 1_555
Sr1A_3 O5A 1_555 1_555

#END
