
#######################################################################
#
#                 Cambridge Crystallographic Data Centre
#                                CCDC 
#
#######################################################################
#
# If this CIF has been generated from an entry in the Cambridge 
# Structural Database, then it will include bibliographic, chemical, 
# crystal, experimental, refinement or atomic coordinate data resulting 
# from the CCDC's data processing and validation procedures.
#
#######################################################################

data_RACBAA
_symmetry_cell_setting           tetragonal
_symmetry_space_group_name_H-M   'I 41/a'
_symmetry_Int_Tables_number      88
_space_group_name_Hall           '-I 4ad'
loop_
_symmetry_equiv_pos_site_id
_symmetry_equiv_pos_as_xyz
1 x,y,z
2 1/2-x,-y,1/2+z
3 3/4-y,1/4+x,1/4+z
4 3/4+y,3/4-x,3/4+z
5 1/2+x,1/2+y,1/2+z
6 -x,1/2-y,z
7 1/4-y,3/4+x,3/4+z
8 1/4+y,1/4-x,1/4+z
9 -x,-y,-z
10 1/2+x,y,1/2-z
11 1/4+y,3/4-x,3/4-z
12 1/4-y,1/4+x,1/4-z
13 1/2-x,1/2-y,1/2-z
14 x,1/2+y,-z
15 3/4+y,1/4-x,1/4-z
16 3/4-y,3/4+x,3/4-z
_cell_length_a                   9.7332(4)
_cell_length_b                   9.7332(4)
_cell_length_c                   29.9414(12)
_cell_angle_alpha                90
_cell_angle_beta                 90
_cell_angle_gamma                90
_cell_volume                     2836.5
loop_
_atom_site_label
_atom_site_type_symbol
_atom_site_fract_x
_atom_site_fract_y
_atom_site_fract_z
Rb1 Rb 0.5000 0.7500 0.020401(13)
Rb2 Rb 0.0000 0.7500 0.018678(13)
S1 S 0.24397(7) 0.43184(6) 0.047693(19)
O1 O 0.3457(4) 0.5078(3) 0.02315(8)
O2 O 0.1059(3) 0.4782(3) 0.03964(10)
O3 O 0.2575(2) 0.2862(2) 0.04012(6)
N1 N 0.3809(3) 0.5033(3) 0.16973(8)
N2 N 0.2444(3) 0.4966(3) 0.17538(8)
C1 C 0.3997(3) 0.4836(3) 0.12655(8)
H1 H 0.4853 0.4830 0.1127
C2 C 0.2754(2) 0.4638(2) 0.10411(7)
C3 C 0.1771(3) 0.4731(3) 0.13707(9)
H2 H 0.0826 0.4647 0.1335
H3 H 0.203(3) 0.515(3) 0.1989(12)
Rb1H Rb 0.5000 0.2500 -0.020401(13)
Rb1K Rb 0.5000 0.7500 0.229599(13)
Rb1C Rb 0.5000 0.2500 -0.229599(13)
Rb2H Rb 0.0000 0.2500 -0.018678(13)
Rb2K Rb 0.5000 0.2500 0.231322(13)
Rb2H_2 Rb 1.0000 0.2500 -0.018678(13)
Rb2_2 Rb 1.0000 0.7500 0.018678(13)
Rb2C Rb 0.5000 0.7500 -0.231322(13)
S1H S 0.75603(7) 0.56816(6) -0.047693(19)
O1H O 0.6543(4) 0.4922(3) -0.02315(8)
O1E O 0.6543(4) 0.9922(3) 0.02315(8)
O1M O 0.3457(4) 1.0078(3) -0.02315(8)
O2H O 0.8941(3) 0.5218(3) -0.03964(10)
O2E O -0.1059(3) 1.0218(3) 0.03964(10)
O2H_2 O -0.1059(3) 0.5218(3) -0.03964(10)
O2M O 0.1059(3) 0.9782(3) -0.03964(10)
O3H O 0.7425(2) 0.7138(2) -0.04012(6)
O3M O 0.2575(2) 0.7862(2) -0.04012(6)
O3H_2 O -0.2575(2) 0.7138(2) -0.04012(6)
N1H N 0.6191(3) 0.4967(3) -0.16973(8)
N1K N 0.7467(3) 0.6309(3) 0.08027(8)
N1N N 0.2533(3) 0.8691(3) 0.08027(8)
N1K_2 N -0.2533(3) 0.6309(3) 0.08027(8)
N2H N 0.7556(3) 0.5034(3) -0.17538(8)
C1H C 0.6003(3) 0.5164(3) -0.12655(8)
H1H H 0.5147 0.5170 -0.1127
C2H C 0.7246(2) 0.5362(2) -0.10411(7)
C3H C 0.8229(3) 0.5269(3) -0.13707(9)
H2H H 0.9174 0.5353 -0.1335
H3H H 0.797(3) 0.485(3) -0.1989(12)
loop_
_geom_bond_atom_site_label_1
_geom_bond_atom_site_label_2
_geom_bond_site_symmetry_1
_geom_bond_site_symmetry_2
Rb1 O1 1_555 1_555
Rb2 O2 1_555 1_555
S1 O1 1_555 1_555
O1 Rb1H 1_555 1_555
O2 S1 1_555 1_555
O3 S1 1_555 1_555
N1 N2 1_555 1_555
N2 C3 1_555 1_555
C1 N1 1_555 1_555
H1 C1 1_555 1_555
C2 S1 1_555 1_555
C3 C2 1_555 1_555
H2 C3 1_555 1_555
H3 N2 1_555 1_555
Rb1H O3 1_555 1_555
Rb1K N1 1_555 1_555
Rb1C N1H 1_555 1_555
Rb2H O2 1_555 1_555
Rb2K N1 1_555 1_555
Rb2H_2 O2H 1_555 1_555
Rb2_2 O2H 1_555 1_555
Rb2C N1H 1_555 1_555
S1H O1H 1_555 1_555
O1H Rb1 1_555 1_555
O1E Rb1 1_555 1_555
O1M Rb1 1_555 1_555
O2H S1H 1_555 1_555
O2E Rb2 1_555 1_555
O2H_2 Rb2 1_555 1_555
O2M Rb2 1_555 1_555
O3H Rb1 1_555 1_555
O3M Rb1 1_555 1_555
O3H_2 Rb2 1_555 1_555
N1H N2H 1_555 1_555
N1K Rb1 1_555 1_555
N1N Rb1 1_555 1_555
N1K_2 Rb2 1_555 1_555
N2H C3H 1_555 1_555
C1H N1H 1_555 1_555
H1H C1H 1_555 1_555
C2H S1H 1_555 1_555
C3H C2H 1_555 1_555
H2H C3H 1_555 1_555
H3H N2H 1_555 1_555
Rb2 O3M 1_555 1_555
Rb2 N1N 1_555 1_555
O3 Rb2H 1_555 1_555
C1 C2 1_555 1_555
Rb1H O1H 1_555 1_555
Rb2H O2H_2 1_555 1_555
Rb2_2 O3H 1_555 1_555
Rb2_2 N1K 1_555 1_555
S1H O3H 1_555 1_555
C1H C2H 1_555 1_555

#END
