
#######################################################################
#
#                 Cambridge Crystallographic Data Centre
#                                CCDC 
#
#######################################################################
#
# If this CIF has been generated from an entry in the Cambridge 
# Structural Database, then it will include bibliographic, chemical, 
# crystal, experimental, refinement or atomic coordinate data resulting 
# from the CCDC's data processing and validation procedures.
#
#######################################################################

data_RACBUU
_symmetry_cell_setting           monoclinic
_symmetry_space_group_name_H-M   'P 21/c'
_symmetry_Int_Tables_number      14
_space_group_name_Hall           '-P 2ybc'
loop_
_symmetry_equiv_pos_site_id
_symmetry_equiv_pos_as_xyz
1 x,y,z
2 -x,1/2+y,1/2-z
3 -x,-y,-z
4 x,1/2-y,1/2+z
_cell_length_a                   9.0315(10)
_cell_length_b                   13.2968(15)
_cell_length_c                   7.7103(9)
_cell_angle_alpha                90
_cell_angle_beta                 109.747(2)
_cell_angle_gamma                90
_cell_volume                     871.48
loop_
_atom_site_label
_atom_site_type_symbol
_atom_site_fract_x
_atom_site_fract_y
_atom_site_fract_z
Cu1 Cu 0.5000 0.5000 0.0000
S1 S 0.71708(6) 0.59072(4) 0.46778(7)
O1 O 0.7597(2) 0.54705(13) 0.6514(2)
O2 O 0.6301(2) 0.51986(12) 0.3274(2)
O3 O 0.85155(19) 0.63461(12) 0.4335(2)
O4 O 0.30405(18) 0.52269(12) 0.0527(2)
N1 N 0.5119(2) 0.85052(14) 0.4691(2)
N2 N 0.4013(2) 0.78560(14) 0.4820(3)
H1 H 0.3125 0.8036 0.4905
C1 C 0.4460(3) 0.69047(17) 0.4801(3)
H2 H 0.3886 0.6335 0.4873
C2 C 0.5933(2) 0.69250(15) 0.4653(3)
C3 C 0.6293(3) 0.79334(16) 0.4581(3)
H3 H 0.7223 0.8176 0.4472
H4 H 0.2229 0.5027 -0.0188
H5 H 0.3074 0.5070 0.1528
Cu1A Cu 0.5000 1.0000 0.5000
Cu1A_2 Cu 0.5000 0.0000 -0.5000
S1B S 0.28292(6) 0.40928(4) -0.46778(7)
O1B O 0.2403(2) 0.45295(13) -0.6514(2)
O2B O 0.3699(2) 0.48014(12) -0.3274(2)
O3B O 0.14845(19) 0.36539(12) -0.4335(2)
O4B O 0.69595(18) 0.47731(12) -0.0527(2)
N1B N 0.4881(2) 0.14948(14) -0.4691(2)
N1A N 0.4881(2) 0.35052(14) 0.0309(2)
N1C N 0.5119(2) 0.64948(14) -0.0309(2)
N2B N 0.5987(2) 0.21440(14) -0.4820(3)
H1B H 0.6875 0.1964 -0.4905
C1B C 0.5540(3) 0.30953(17) -0.4801(3)
H2B H 0.6114 0.3665 -0.4873
C2B C 0.4067(2) 0.30750(15) -0.4653(3)
C3B C 0.3707(3) 0.20666(16) -0.4581(3)
H3B H 0.2777 0.1824 -0.4472
H4B H 0.7771 0.4973 0.0188
H5B H 0.6926 0.4930 -0.1528
O5 O 0.03962(19) 0.44578(14) 0.8255(2)
H6 H -0.0368 0.4824 0.7755
H7 H 0.0662 0.4249 0.7442
O6 O 0.8938(3) 0.2857(2) 0.9712(5)
H8 H 0.9288 0.3274 0.9220
H9 H 0.9402 0.2334 0.9806
loop_
_geom_bond_atom_site_label_1
_geom_bond_atom_site_label_2
_geom_bond_site_symmetry_1
_geom_bond_site_symmetry_2
Cu1 O2 1_555 1_555
S1 O1 1_555 1_555
O2 S1 1_555 1_555
O3 S1 1_555 1_555
O4 Cu1 1_555 1_555
O5 H6 1_555 1_555
O6 H8 1_555 1_555
N1 N2 1_555 1_555
N2 H1 1_555 1_555
C1 N2 1_555 1_555
H2 C1 1_555 1_555
C2 S1 1_555 1_555
C3 N1 1_555 1_555
H3 C3 1_555 1_555
H4 O4 1_555 1_555
H5 O4 1_555 1_555
H7 O5 1_555 1_555
H9 O6 1_555 1_555
Cu1A N1 1_555 1_555
Cu1A_2 N1B 1_555 1_555
S1B O1B 1_555 1_555
O2B Cu1 1_555 1_555
O3B S1B 1_555 1_555
O4B Cu1 1_555 1_555
N1B N2B 1_555 1_555
N1A Cu1 1_555 1_555
N1C Cu1 1_555 1_555
N2B H1B 1_555 1_555
C1B N2B 1_555 1_555
H2B C1B 1_555 1_555
C2B S1B 1_555 1_555
C3B N1B 1_555 1_555
H3B C3B 1_555 1_555
H4B O4B 1_555 1_555
H5B O4B 1_555 1_555
C1 C2 1_555 1_555
C2 C3 1_555 1_555
S1B O2B 1_555 1_555
C1B C2B 1_555 1_555
C2B C3B 1_555 1_555

#END
