
#######################################################################
#
#                 Cambridge Crystallographic Data Centre
#                                CCDC 
#
#######################################################################
#
# If this CIF has been generated from an entry in the Cambridge 
# Structural Database, then it will include bibliographic, chemical, 
# crystal, experimental, refinement or atomic coordinate data resulting 
# from the CCDC's data processing and validation procedures.
#
#######################################################################

data_RACLUD
_symmetry_cell_setting           monoclinic
_symmetry_space_group_name_H-M   'P 2/c'
_symmetry_Int_Tables_number      13
_space_group_name_Hall           '-P 2yc'
loop_
_symmetry_equiv_pos_site_id
_symmetry_equiv_pos_as_xyz
1 x,y,z
2 x,-y,1/2+z
3 -x,-y,-z
4 -x,y,1/2-z
_cell_length_a                   10.0956(11)
_cell_length_b                   6.8710(7)
_cell_length_c                   18.6152(19)
_cell_angle_alpha                90
_cell_angle_beta                 97.270(2)
_cell_angle_gamma                90
_cell_volume                     1280.9
loop_
_atom_site_label
_atom_site_type_symbol
_atom_site_fract_x
_atom_site_fract_y
_atom_site_fract_z
Cu1 Cu 0.5000 0.5000 0.5000
C1 C 0.2828(2) 0.4039(3) 0.38075(11)
H1 H 0.2649 0.5396 0.3816
C2 C 0.1990(2) 0.2860(3) 0.33511(11)
C3 C 0.2236(2) 0.0868(3) 0.33456(12)
H2 H 0.1652 0.0016 0.3054
C4 C 0.3344(2) 0.0159(3) 0.37713(13)
H3 H 0.3556 -0.1188 0.3767
C5 C 0.4144(2) 0.1434(3) 0.42045(11)
H4 H 0.4914 0.0936 0.4491
C6 C 0.0871(2) 0.3715(3) 0.28812(11)
C7 C 0.3290(2) 0.3346(3) 0.61291(12)
C8 C 0.2324(2) 0.4815(3) 0.59409(13)
H5 H 0.1535 0.4799 0.6170
C9 C 0.2461(2) 0.6261(3) 0.54468(12)
C10 C 0.3014(3) 0.1963(4) 0.67422(14)
C11 C 0.1314(2) 0.7704(4) 0.52696(15)
N1 N 0.38839(16) 0.3335(2) 0.42392(9)
N2 N 0.05812(18) 0.5514(3) 0.27559(10)
O1 O 0.0000 0.2467(3) 0.2500
O2 O 0.43487(15) 0.3076(2) 0.58827(8)
O3 O 0.34116(13) 0.6605(2) 0.50826(7)
F1 F 0.17229(15) 0.1543(2) 0.67309(8)
F2 F 0.36610(19) 0.0294(2) 0.67196(10)
F3 F 0.34118(16) 0.2797(3) 0.73833(8)
F4 F 0.03795(18) 0.7592(3) 0.57021(11)
F5 F 0.07336(16) 0.7421(3) 0.45924(10)
F6 F 0.17479(17) 0.9533(2) 0.52892(9)
N2C N -0.05812(18) 0.5514(3) 0.22441(10)
C6C C -0.0871(2) 0.3715(3) 0.21188(11)
C2C C -0.1990(2) 0.2860(3) 0.16489(11)
C1C C -0.2828(2) 0.4039(3) 0.11925(11)
H1C H -0.2649 0.5396 0.1184
N1C N -0.38839(16) 0.3335(2) 0.07608(9)
C5C C -0.4144(2) 0.1434(3) 0.07955(11)
C4C C -0.3344(2) 0.0159(3) 0.12287(13)
C3C C -0.2236(2) 0.0868(3) 0.16544(12)
H2C H -0.1652 0.0016 0.1946
H3C H -0.3556 -0.1188 0.1233
H4C H -0.4914 0.0936 0.0509
C7B C 0.6710(2) 0.6654(3) 0.38709(12)
C8B C 0.7676(2) 0.5185(3) 0.40591(13)
H5B H 0.8465 0.5201 0.3830
C9B C 0.7539(2) 0.3739(3) 0.45532(12)
C10B C 0.6986(3) 0.8037(4) 0.32578(14)
C11B C 0.8686(2) 0.2296(4) 0.47304(15)
O2B O 0.56513(15) 0.6924(2) 0.41173(8)
O3B O 0.65884(13) 0.3395(2) 0.49174(7)
F1B F 0.82771(15) 0.8457(2) 0.32691(8)
F2B F 0.63390(19) 0.9706(2) 0.32804(10)
F3B F 0.65882(16) 0.7203(3) 0.26167(8)
F4B F 0.96205(18) 0.2408(3) 0.42979(11)
F5B F 0.92664(16) 0.2579(3) 0.54076(10)
F6B F 0.82521(17) 0.0467(2) 0.47108(9)
N1B N 0.61161(16) 0.6665(2) 0.57608(9)
Cu1A Cu -0.5000 0.5000 0.0000
loop_
_geom_bond_atom_site_label_1
_geom_bond_atom_site_label_2
_geom_bond_site_symmetry_1
_geom_bond_site_symmetry_2
Cu1 N1 1_555 1_555
C1 H1 1_555 1_555
C2 C1 1_555 1_555
C3 C2 1_555 1_555
H2 C3 1_555 1_555
C4 C3 1_555 1_555
H3 C4 1_555 1_555
C5 C4 1_555 1_555
H4 C5 1_555 1_555
C6 C2 1_555 1_555
C7 C8 1_555 1_555
C8 H5 1_555 1_555
C9 C8 1_555 1_555
C10 C7 1_555 1_555
C11 C9 1_555 1_555
N1 C1 1_555 1_555
N2 C6 1_555 1_555
O1 C6 1_555 1_555
O2 Cu1 1_555 1_555
O3 Cu1 1_555 1_555
F1 C10 1_555 1_555
F2 C10 1_555 1_555
F3 C10 1_555 1_555
F4 C11 1_555 1_555
F5 C11 1_555 1_555
F6 C11 1_555 1_555
N2C N2 1_555 1_555
C6C O1 1_555 1_555
C2C C6C 1_555 1_555
C1C C2C 1_555 1_555
H1C C1C 1_555 1_555
N1C C1C 1_555 1_555
C5C N1C 1_555 1_555
C4C C5C 1_555 1_555
C3C C2C 1_555 1_555
H2C C3C 1_555 1_555
H3C C4C 1_555 1_555
H4C C5C 1_555 1_555
C7B C8B 1_555 1_555
C8B H5B 1_555 1_555
C9B C8B 1_555 1_555
C10B C7B 1_555 1_555
C11B C9B 1_555 1_555
O2B Cu1 1_555 1_555
O3B Cu1 1_555 1_555
F1B C10B 1_555 1_555
F2B C10B 1_555 1_555
F3B C10B 1_555 1_555
F4B C11B 1_555 1_555
F5B C11B 1_555 1_555
F6B C11B 1_555 1_555
N1B Cu1 1_555 1_555
Cu1A N1C 1_555 1_555
C5 N1 1_555 1_555
C7 O2 1_555 1_555
C9 O3 1_555 1_555
N2C C6C 1_555 1_555
C4C C3C 1_555 1_555
C7B O2B 1_555 1_555
C9B O3B 1_555 1_555

#END
