
#######################################################################
#
#                 Cambridge Crystallographic Data Centre
#                                CCDC 
#
#######################################################################
#
# If this CIF has been generated from an entry in the Cambridge 
# Structural Database, then it will include bibliographic, chemical, 
# crystal, experimental, refinement or atomic coordinate data resulting 
# from the CCDC's data processing and validation procedures.
#
#######################################################################

data_RACMEO
_symmetry_cell_setting           triclinic
_symmetry_space_group_name_H-M   'P -1'
_symmetry_Int_Tables_number      2
_space_group_name_Hall           '-P 1'
loop_
_symmetry_equiv_pos_site_id
_symmetry_equiv_pos_as_xyz
1 x,y,z
2 -x,-y,-z
_cell_length_a                   6.9932(7)
_cell_length_b                   11.5777(12)
_cell_length_c                   12.5291(13)
_cell_angle_alpha                109.401(2)
_cell_angle_beta                 103.922(2)
_cell_angle_gamma                95.316(2)
_cell_volume                     912.063
loop_
_atom_site_label
_atom_site_type_symbol
_atom_site_fract_x
_atom_site_fract_y
_atom_site_fract_z
Cu1 Cu 0.0000 1.0000 0.0000
Cu2 Cu 1.0000 1.0000 0.5000
C1 C 0.2112(4) 0.7875(3) -0.0385(3)
H1 H 0.3041 0.8406 0.0344
C2 C 0.2576(4) 0.6742(3) -0.1002(3)
C3 C 0.1192(5) 0.5956(3) -0.2067(3)
H2 H 0.1475 0.5188 -0.2519
C4 C -0.0575(5) 0.6314(3) -0.2447(3)
H3 H -0.1554 0.5785 -0.3157
C5 C -0.0924(5) 0.7455(3) -0.1787(3)
H4 H -0.2161 0.7692 -0.2058
C6 C 0.4490(4) 0.6419(3) -0.0581(3)
C7 C 0.7330(4) 0.6564(3) 0.0612(3)
C8 C 0.8784(5) 0.7993(3) 0.2675(3)
H5 H 0.7546 0.8278 0.2631
C9 C 0.8981(4) 0.7065(3) 0.1703(3)
C10 C 1.0779(5) 0.6631(3) 0.1764(3)
H6 H 1.0950 0.5996 0.1101
C11 C 1.2303(5) 0.7144(3) 0.2807(3)
H7 H 1.3542 0.6860 0.2880
C12 C 1.2014(5) 0.8072(3) 0.3744(3)
H8 H 1.3074 0.8418 0.4461
N1 N 0.0418(3) 0.8243(2) -0.0778(2)
N2 N 1.0298(4) 0.8512(2) 0.3688(2)
N3 N 0.5341(4) 0.5561(2) -0.1150(2)
N4 N 0.7219(4) 0.5661(2) -0.0353(2)
O1 O 0.5650(3) 0.70883(17) 0.05492(17)
O2 O 0.1058(3) 0.9947(2) 0.1922(2)
H9 H 0.031(5) 1.027(3) 0.229(3)
H10 H 0.220(3) 1.004(3) 0.235(3)
O3 O 0.2763(3) 1.0741(2) 0.01073(19)
H11 H 0.374(4) 1.072(3) 0.066(2)
H12 H 0.316(5) 1.034(3) -0.044(3)
O4 O 1.2706(4) 1.0800(3) 0.5174(2)
H13 H 1.290(7) 1.151(3) 0.506(4)
H14 H 1.358(5) 1.066(4) 0.566(3)
S1 S 1.35690(10) 0.90589(7) 0.70320(6)
O5 O 1.1503(3) 0.9202(2) 0.65566(18)
O6 O 1.4961(3) 0.9873(3) 0.6762(2)
O7 O 1.4072(3) 0.9454(2) 0.83380(17)
O8 O 1.3783(4) 0.7772(2) 0.6529(2)
C1A C -0.2112(4) 1.2125(3) 0.0385(3)
H1A H -0.3041 1.1594 -0.0344
C2A C -0.2576(4) 1.3258(3) 0.1002(3)
C3A C -0.1192(5) 1.4044(3) 0.2067(3)
H2A H -0.1475 1.4812 0.2519
C4A C 0.0575(5) 1.3686(3) 0.2447(3)
H3A H 0.1554 1.4215 0.3157
C5A C 0.0924(5) 1.2545(3) 0.1787(3)
H4A H 0.2161 1.2308 0.2058
C6A C -0.4490(4) 1.3581(3) 0.0581(3)
C7A C -0.7330(4) 1.3436(3) -0.0612(3)
C8A C -0.8784(5) 1.2007(3) -0.2675(3)
H5A H -0.7546 1.1722 -0.2631
C9A C -0.8981(4) 1.2935(3) -0.1703(3)
C10A C -1.0779(5) 1.3369(3) -0.1764(3)
H6A H -1.0950 1.4004 -0.1101
C11A C -1.2303(5) 1.2856(3) -0.2807(3)
H7A H -1.3542 1.3140 -0.2880
C12A C -1.2014(5) 1.1928(3) -0.3744(3)
H8A H -1.3074 1.1582 -0.4461
N1A N -0.0418(3) 1.1757(2) 0.0778(2)
N2A N -1.0298(4) 1.1488(2) -0.3688(2)
N3A N -0.5341(4) 1.4439(2) 0.1150(2)
N4A N -0.7219(4) 1.4339(2) 0.0353(2)
O1A O -0.5650(3) 1.29117(17) -0.05492(17)
O2A O -0.1058(3) 1.0053(2) -0.1922(2)
H9A H -0.031(5) 0.973(3) -0.229(3)
H10A H -0.220(3) 0.996(3) -0.235(3)
O3A O -0.2763(3) 0.9259(2) -0.01073(19)
H11A H -0.374(4) 0.928(3) -0.066(2)
H12A H -0.316(5) 0.966(3) 0.044(3)
O4A O 0.7294(4) 0.9200(3) 0.4826(2)
H13A H 0.710(7) 0.849(3) 0.494(4)
H14A H 0.642(5) 0.934(4) 0.434(3)
S1A S 0.64310(10) 1.09411(7) 0.29680(6)
O5A O 0.8497(3) 1.0798(2) 0.34434(18)
O6A O 0.5039(3) 1.0127(3) 0.3238(2)
O7A O 0.5928(3) 1.0546(2) 0.16620(17)
O8A O 0.6217(4) 1.2228(2) 0.3471(2)
N2A_2 N 0.9702(4) 1.1488(2) 0.6312(2)
Cu2_2 Cu -1.0000 1.0000 -0.5000
O9 O 0.0166(4) 0.6160(2) 0.4897(2)
H15 H 0.1182 0.6620 0.5402
H16 H -0.0260 0.6274 0.4308
O10 O 0.3635(5) 0.2864(3) 0.4930(3)
O12 O 0.4677(8) 0.5238(6) 0.6420(5)
O11? O 0.3186(19) 0.3631(13) 0.5874(11)
O13? O 0.488(2) 0.5587(13) 0.5587(15)
loop_
_geom_bond_atom_site_label_1
_geom_bond_atom_site_label_2
_geom_bond_site_symmetry_1
_geom_bond_site_symmetry_2
Cu1 N1 1_555 1_555
Cu2 N2 1_555 1_555
C1 H1 1_555 1_555
C2 C1 1_555 1_555
C3 C2 1_555 1_555
H2 C3 1_555 1_555
C4 C3 1_555 1_555
H3 C4 1_555 1_555
C5 C4 1_555 1_555
H4 C5 1_555 1_555
C6 C2 1_555 1_555
C7 C9 1_555 1_555
C8 H5 1_555 1_555
C9 C8 1_555 1_555
C10 C9 1_555 1_555
H6 C10 1_555 1_555
C11 C10 1_555 1_555
H7 C11 1_555 1_555
C12 C11 1_555 1_555
H8 C12 1_555 1_555
N1 C1 1_555 1_555
N2 C8 1_555 1_555
N3 C6 1_555 1_555
N4 C7 1_555 1_555
O1 C6 1_555 1_555
O2 Cu1 1_555 1_555
H9 O2 1_555 1_555
H10 O2 1_555 1_555
O3 Cu1 1_555 1_555
H11 O3 1_555 1_555
H12 O3 1_555 1_555
O4 Cu2 1_555 1_555
H13 O4 1_555 1_555
H14 O4 1_555 1_555
S1 O5 1_555 1_555
O5 Cu2 1_555 1_555
O6 S1 1_555 1_555
O7 S1 1_555 1_555
O8 S1 1_555 1_555
O9 H15 1_555 1_555
H16 O9 1_555 1_555
C1A H1A 1_555 1_555
C2A C1A 1_555 1_555
C3A C2A 1_555 1_555
H2A C3A 1_555 1_555
C4A C3A 1_555 1_555
H3A C4A 1_555 1_555
C5A C4A 1_555 1_555
H4A C5A 1_555 1_555
C6A C2A 1_555 1_555
C7A C9A 1_555 1_555
C8A H5A 1_555 1_555
C9A C8A 1_555 1_555
C10A C9A 1_555 1_555
H6A C10A 1_555 1_555
C11A C10A 1_555 1_555
H7A C11A 1_555 1_555
C12A C11A 1_555 1_555
H8A C12A 1_555 1_555
N1A Cu1 1_555 1_555
N2A C8A 1_555 1_555
N3A C6A 1_555 1_555
N4A C7A 1_555 1_555
O1A C6A 1_555 1_555
O2A Cu1 1_555 1_555
H9A O2A 1_555 1_555
H10A O2A 1_555 1_555
O3A Cu1 1_555 1_555
H11A O3A 1_555 1_555
H12A O3A 1_555 1_555
O4A Cu2 1_555 1_555
H13A O4A 1_555 1_555
H14A O4A 1_555 1_555
S1A O5A 1_555 1_555
O5A Cu2 1_555 1_555
O6A S1A 1_555 1_555
O7A S1A 1_555 1_555
O8A S1A 1_555 1_555
N2A_2 Cu2 1_555 1_555
Cu2_2 N2A 1_555 1_555
C5 N1 1_555 1_555
C7 O1 1_555 1_555
C12 N2 1_555 1_555
N3 N4 1_555 1_555
C1A N1A 1_555 1_555
C5A N1A 1_555 1_555
C7A O1A 1_555 1_555
C12A N2A 1_555 1_555
N3A N4A 1_555 1_555

#END
