
#######################################################################
#
#                 Cambridge Crystallographic Data Centre
#                                CCDC 
#
#######################################################################
#
# If this CIF has been generated from an entry in the Cambridge 
# Structural Database, then it will include bibliographic, chemical, 
# crystal, experimental, refinement or atomic coordinate data resulting 
# from the CCDC's data processing and validation procedures.
#
#######################################################################

data_RACMAK
_symmetry_cell_setting           monoclinic
_symmetry_space_group_name_H-M   'P 21/c'
_symmetry_Int_Tables_number      14
_space_group_name_Hall           '-P 2ybc'
loop_
_symmetry_equiv_pos_site_id
_symmetry_equiv_pos_as_xyz
1 x,y,z
2 x,1/2-y,1/2+z
3 -x,-y,-z
4 -x,1/2+y,1/2-z
_cell_length_a                   9.2277(5)
_cell_length_b                   16.0479(9)
_cell_length_c                   18.3403(11)
_cell_angle_alpha                90
_cell_angle_beta                 91.1260(10)
_cell_angle_gamma                90
_cell_volume                     2715.4
loop_
_atom_site_label
_atom_site_type_symbol
_atom_site_fract_x
_atom_site_fract_y
_atom_site_fract_z
Cu1 Cu 0.51134(6) 0.35664(3) 0.22700(3)
C1 C 0.2469(5) 0.4355(3) 0.2840(2)
H1 H 0.2995 0.4844 0.2783
C2 C 0.1098(5) 0.4403(3) 0.3122(2)
C3 C 0.0313(5) 0.3675(3) 0.3209(2)
H2 H -0.0614 0.3689 0.3399
C4 C 0.0929(5) 0.2929(3) 0.3008(3)
H3 H 0.0428 0.2431 0.3063
C5 C 0.2294(5) 0.2934(3) 0.2727(2)
H4 H 0.2701 0.2431 0.2586
C6 C 0.0555(5) 0.5203(3) 0.3353(2)
C7 C 0.0590(5) 0.6510(3) 0.3548(3)
C8 C 0.2359(5) 0.7559(3) 0.3152(2)
H5 H 0.2809 0.7146 0.2882
C9 C 0.1153(5) 0.7356(3) 0.3543(2)
C10 C 0.0466(5) 0.7974(3) 0.3934(3)
H6 H -0.0352 0.7854 0.4203
C11 C 0.1022(6) 0.8769(3) 0.3916(3)
H7 H 0.0582 0.9196 0.4174
C12 C 0.2215(6) 0.8922(3) 0.3521(3)
H8 H 0.2572 0.9464 0.3508
C13 C 0.6056(5) 0.4331(3) 0.3665(2)
H9 H 0.5834 0.4824 0.3420
C14 C 0.6533(4) 0.4380(3) 0.4372(2)
C15 C 0.6850(5) 0.3648(3) 0.4742(3)
H10 H 0.7165 0.3660 0.5227
C16 C 0.6690(5) 0.2904(3) 0.4378(3)
H11 H 0.6903 0.2404 0.4613
C17 C 0.6213(5) 0.2906(3) 0.3667(3)
H12 H 0.6110 0.2399 0.3426
C18 C 0.6712(5) 0.5185(3) 0.4736(2)
C19 C 0.6718(5) 0.6496(3) 0.4843(2)
C20 C 0.5904(5) 0.7560(3) 0.3959(2)
H13 H 0.5556 0.7131 0.3663
C21 C 0.6554(4) 0.7359(3) 0.4622(2)
C22 C 0.7058(5) 0.8000(3) 0.5068(2)
H14 H 0.7475 0.7887 0.5523
C23 C 0.6926(5) 0.8808(3) 0.4821(3)
H15 H 0.7285 0.9247 0.5102
C24 C 0.6264(5) 0.8962(3) 0.4158(3)
H16 H 0.6163 0.9511 0.4004
N1 N 0.3071(4) 0.3638(2) 0.26455(19)
N2 N -0.0617(5) 0.5374(3) 0.3688(3)
N3 N -0.0601(5) 0.6241(3) 0.3810(3)
N4 N 0.2908(4) 0.8332(2) 0.31469(19)
N5 N 0.5890(4) 0.3607(2) 0.33040(19)
N6 N 0.7172(4) 0.5337(2) 0.5380(2)
N7 N 0.7167(4) 0.6206(2) 0.5456(2)
N8 N 0.5756(4) 0.8351(2) 0.37267(19)
O1 O 0.1396(3) 0.58886(18) 0.32495(16)
O2 O 0.6376(3) 0.58878(16) 0.43521(14)
Cl1 Cl 0.57543(14) 0.58495(7) 0.21016(7)
O3 O 0.5179(4) 0.50177(19) 0.21016(19)
O4 O 0.4920(4) 0.6363(2) 0.2553(2)
O5 O 0.5748(6) 0.6155(3) 0.1405(2)
O6 O 0.7189(5) 0.5819(3) 0.2401(3)
N4C N 0.7092(4) 0.3332(2) 0.18531(19)
N8C N 0.4244(4) 0.3351(2) 0.12733(19)
Cu1C Cu 0.48866(6) 0.85664(3) 0.27300(3)
Cl2 Cl 0.1123(2) 0.59541(10) 0.11075(10)
O7 O 0.1169(9) 0.5181(4) 0.1478(4)
O8 O 0.1538(6) 0.6537(3) 0.1631(3)
O9 O -0.0011(8) 0.6159(7) 0.0773(4)
O10 O 0.2260(7) 0.5863(4) 0.0597(3)
loop_
_geom_bond_atom_site_label_1
_geom_bond_atom_site_label_2
_geom_bond_site_symmetry_1
_geom_bond_site_symmetry_2
Cu1 N1 1_555 1_555
C1 H1 1_555 1_555
C2 C1 1_555 1_555
C3 C2 1_555 1_555
H2 C3 1_555 1_555
C4 C3 1_555 1_555
H3 C4 1_555 1_555
C5 C4 1_555 1_555
H4 C5 1_555 1_555
C6 C2 1_555 1_555
C7 C9 1_555 1_555
C8 H5 1_555 1_555
C9 C8 1_555 1_555
C10 C9 1_555 1_555
H6 C10 1_555 1_555
C11 C10 1_555 1_555
H7 C11 1_555 1_555
C12 C11 1_555 1_555
H8 C12 1_555 1_555
C13 H9 1_555 1_555
C14 C13 1_555 1_555
C15 C14 1_555 1_555
H10 C15 1_555 1_555
C16 C15 1_555 1_555
H11 C16 1_555 1_555
C17 C16 1_555 1_555
H12 C17 1_555 1_555
C18 C14 1_555 1_555
C19 C21 1_555 1_555
C20 H13 1_555 1_555
C21 C20 1_555 1_555
C22 C21 1_555 1_555
H14 C22 1_555 1_555
C23 C22 1_555 1_555
H15 C23 1_555 1_555
C24 C23 1_555 1_555
H16 C24 1_555 1_555
N1 C1 1_555 1_555
N2 C6 1_555 1_555
N3 C7 1_555 1_555
N4 C8 1_555 1_555
N5 Cu1 1_555 1_555
N6 C18 1_555 1_555
N7 C19 1_555 1_555
N8 C20 1_555 1_555
O1 C6 1_555 1_555
O2 C18 1_555 1_555
Cl1 O3 1_555 1_555
O3 Cu1 1_555 1_555
O4 Cl1 1_555 1_555
O5 Cl1 1_555 1_555
O6 Cl1 1_555 1_555
Cl2 O7 1_555 1_555
O8 Cl2 1_555 1_555
O9 Cl2 1_555 1_555
O10 Cl2 1_555 1_555
N4C Cu1 1_555 1_555
N8C Cu1 1_555 1_555
Cu1C N4 1_555 1_555
C5 N1 1_555 1_555
C7 O1 1_555 1_555
C12 N4 1_555 1_555
C13 N5 1_555 1_555
C17 N5 1_555 1_555
C19 O2 1_555 1_555
C24 N8 1_555 1_555
N2 N3 1_555 1_555
N6 N7 1_555 1_555
N8 Cu1C 1_555 1_555

#END
