
#######################################################################
#
#                 Cambridge Crystallographic Data Centre
#                                CCDC 
#
#######################################################################
#
# If this CIF has been generated from an entry in the Cambridge 
# Structural Database, then it will include bibliographic, chemical, 
# crystal, experimental, refinement or atomic coordinate data resulting 
# from the CCDC's data processing and validation procedures.
#
#######################################################################

data_RACWEZ01
_symmetry_cell_setting           triclinic
_symmetry_space_group_name_H-M   'P -1'
_symmetry_Int_Tables_number      2
_space_group_name_Hall           '-P 1'
loop_
_symmetry_equiv_pos_site_id
_symmetry_equiv_pos_as_xyz
1 x,y,z
2 -x,-y,-z
_cell_length_a                   9.532(2)
_cell_length_b                   9.496(2)
_cell_length_c                   11.693(3)
_cell_angle_alpha                69.36(3)
_cell_angle_beta                 89.50(3)
_cell_angle_gamma                65.56(4)
_cell_volume                     889.962
loop_
_atom_site_label
_atom_site_type_symbol
_atom_site_fract_x
_atom_site_fract_y
_atom_site_fract_z
Fe1 Fe 0.5000 0.0000 0.5000
N1 N 0.0150(3) 0.1540(3) 0.3712(3)
N2 N 0.0902(3) 0.1178(3) 0.2821(2)
N3 N 0.2417(3) 0.0625(3) 0.3052(2)
N4 N 0.2698(3) 0.0604(3) 0.4171(2)
C1 C 0.0086(4) 0.1495(4) 0.1637(3)
H1 H -0.0687 0.1046 0.1791
H2 H 0.0837 0.0914 0.1190
C2 C -0.0720(4) 0.3337(4) 0.0852(3)
H3 H -0.1415 0.3921 0.1327
H4 H -0.1367 0.3512 0.0122
C3 C 0.0408(4) 0.4095(4) 0.0431(3)
H5 H 0.0996 0.4003 0.1159
H6 H 0.1154 0.3458 0.0012
C4 C 0.1312(4) 0.1153(4) 0.4541(3)
H7 H 0.1181 0.1254 0.5311
N5 N 0.4767(3) 0.3640(3) 0.1411(2)
N6 N 0.5746(3) 0.2186(3) 0.1373(2)
N7 N 0.6063(3) 0.0906(3) 0.2414(2)
N8 N 0.5274(3) 0.1535(3) 0.3194(2)
C5 C 0.6318(3) 0.2002(4) 0.0251(3)
H8 H 0.7206 0.0899 0.0468
H9 H 0.6683 0.2855 -0.0154
C6 C 0.5054(3) 0.2181(4) -0.0639(3)
H10 H 0.5476 0.2094 -0.1392
H11 H 0.4193 0.3304 -0.0874
C7 C 0.4400(3) 0.0899(3) -0.0144(3)
H12 H 0.3982 0.0975 0.0612
H13 H 0.3531 0.1183 -0.0756
C8 C 0.4501(4) 0.3179(4) 0.2558(3)
H14 H 0.3837 0.3930 0.2895
N9 N 0.6014(3) -0.2185(3) 0.4531(2)
C9 C 0.6635(4) -0.3282(4) 0.4251(3)
C10 C 0.7464(5) -0.4698(5) 0.3891(4)
H15 H 0.8505 -0.5369 0.4373
H16 H 0.7540 -0.4289 0.3018
H17 H 0.6901 -0.5377 0.4042
Fe1_2 Fe -0.5000 1.0000 -0.5000
Fe1_3 Fe 0.5000 0.0000 -0.5000
N1A N -0.0150(3) 0.8460(3) -0.3712(3)
N2A N -0.0902(3) 0.8822(3) -0.2821(2)
N3A N -0.2417(3) 0.9375(3) -0.3052(2)
N4A N -0.2698(3) 0.9396(3) -0.4171(2)
N4A_2 N 0.7302(3) -0.0604(3) 0.5829(2)
C1A C -0.0086(4) 0.8505(4) -0.1637(3)
H1A H 0.0687 0.8954 -0.1791
H2A H -0.0837 0.9086 -0.1190
C2A C 0.0720(4) 0.6663(4) -0.0852(3)
H3A H 0.1415 0.6079 -0.1327
H4A H 0.1367 0.6488 -0.0122
C3A C -0.0408(4) 0.5905(4) -0.0431(3)
H5A H -0.0996 0.5997 -0.1159
H6A H -0.1154 0.6542 -0.0012
C4A C -0.1312(4) 0.8847(4) -0.4541(3)
H7A H -0.1181 0.8746 -0.5311
N5A N 0.5233(3) -0.3640(3) -0.1411(2)
N6A N 0.4254(3) -0.2186(3) -0.1373(2)
N7A N 0.3937(3) -0.0906(3) -0.2414(2)
N8A N 0.4726(3) -0.1535(3) -0.3194(2)
N8A_2 N 0.4726(3) -0.1535(3) 0.6806(2)
C5A C 0.3682(3) -0.2002(4) -0.0251(3)
H8A H 0.2794 -0.0899 -0.0468
H9A H 0.3317 -0.2855 0.0154
C6A C 0.4946(3) -0.2181(4) 0.0639(3)
H10A H 0.4524 -0.2094 0.1392
H11A H 0.5807 -0.3304 0.0874
C7A C 0.5600(3) -0.0899(3) 0.0144(3)
H12A H 0.6018 -0.0975 -0.0612
H13A H 0.6469 -0.1183 0.0756
C8A C 0.5499(4) -0.3179(4) -0.2558(3)
H14A H 0.6163 -0.3930 -0.2895
N9A N 0.3986(3) 0.2185(3) 0.5469(2)
C9A C 0.3365(4) 0.3282(4) 0.5749(3)
C10A C 0.2536(5) 0.4698(5) 0.6109(4)
H15A H 0.1495 0.5369 0.5627
H16A H 0.2460 0.4289 0.6982
H17A H 0.3099 0.5377 0.5958
Cl1 Cl 0.92783(12) -0.70498(11) 0.74548(8)
O1 O 1.011(3) -0.767(2) 0.6690(14)
O2 O 0.990(3) -0.8102(16) 0.8697(9)
O3 O 0.7730(16) -0.6859(17) 0.726(3)
O4 O 0.919(2) -0.549(2) 0.7308(18)
O5? O 0.946(2) -0.7883(15) 0.6580(10)
O6? O 1.0656(14) -0.796(2) 0.830(2)
O7? O 0.8009(17) -0.7086(16) 0.7985(14)
O8? O 0.8954(17) -0.5295(19) 0.6748(15)
loop_
_geom_bond_atom_site_label_1
_geom_bond_atom_site_label_2
_geom_bond_site_symmetry_1
_geom_bond_site_symmetry_2
Fe1 N4 1_555 1_555
Cl1 O1 1_555 1_555
O2 Cl1 1_555 1_555
O3 Cl1 1_555 1_555
O4 Cl1 1_555 1_555
N1 N2 1_555 1_555
N2 N3 1_555 1_555
N3 N4 1_555 1_555
N4 C4 1_555 1_555
C1 N2 1_555 1_555
H1 C1 1_555 1_555
H2 C1 1_555 1_555
C2 C1 1_555 1_555
H3 C2 1_555 1_555
H4 C2 1_555 1_555
C3 C2 1_555 1_555
H5 C3 1_555 1_555
H6 C3 1_555 1_555
C4 N1 1_555 1_555
H7 C4 1_555 1_555
N5 N6 1_555 1_555
N6 N7 1_555 1_555
N7 N8 1_555 1_555
N8 Fe1 1_555 1_555
C5 N6 1_555 1_555
H8 C5 1_555 1_555
H9 C5 1_555 1_555
C6 C5 1_555 1_555
H10 C6 1_555 1_555
H11 C6 1_555 1_555
C7 C6 1_555 1_555
H12 C7 1_555 1_555
H13 C7 1_555 1_555
C8 N5 1_555 1_555
H14 C8 1_555 1_555
N9 Fe1 1_555 1_555
C9 N9 1_555 1_555
C10 C9 1_555 1_555
H15 C10 1_555 1_555
H16 C10 1_555 1_555
H17 C10 1_555 1_555
Fe1_2 N4A 1_555 1_555
Fe1_3 N8A 1_555 1_555
N1A N2A 1_555 1_555
N2A N3A 1_555 1_555
N3A N4A 1_555 1_555
N4A C4A 1_555 1_555
N4A_2 Fe1 1_555 1_555
C1A N2A 1_555 1_555
H1A C1A 1_555 1_555
H2A C1A 1_555 1_555
C2A C1A 1_555 1_555
H3A C2A 1_555 1_555
H4A C2A 1_555 1_555
C3A C3 1_555 1_555
H5A C3A 1_555 1_555
H6A C3A 1_555 1_555
C4A N1A 1_555 1_555
H7A C4A 1_555 1_555
N5A N6A 1_555 1_555
N6A N7A 1_555 1_555
N7A N8A 1_555 1_555
N8A C8A 1_555 1_555
N8A_2 Fe1 1_555 1_555
C5A N6A 1_555 1_555
H8A C5A 1_555 1_555
H9A C5A 1_555 1_555
C6A C5A 1_555 1_555
H10A C6A 1_555 1_555
H11A C6A 1_555 1_555
C7A C7 1_555 1_555
H12A C7A 1_555 1_555
H13A C7A 1_555 1_555
C8A N5A 1_555 1_555
H14A C8A 1_555 1_555
N9A Fe1 1_555 1_555
C9A N9A 1_555 1_555
C10A C9A 1_555 1_555
H15A C10A 1_555 1_555
H16A C10A 1_555 1_555
H17A C10A 1_555 1_555
N8 C8 1_555 1_555
C2A C3A 1_555 1_555
C6A C7A 1_555 1_555

#END
