
#######################################################################
#
#                 Cambridge Crystallographic Data Centre
#                                CCDC 
#
#######################################################################
#
# If this CIF has been generated from an entry in the Cambridge 
# Structural Database, then it will include bibliographic, chemical, 
# crystal, experimental, refinement or atomic coordinate data resulting 
# from the CCDC's data processing and validation procedures.
#
#######################################################################

data_RACWEZ03
_symmetry_cell_setting           triclinic
_symmetry_space_group_name_H-M   'P -1'
_symmetry_Int_Tables_number      2
_space_group_name_Hall           '-P 1'
loop_
_symmetry_equiv_pos_site_id
_symmetry_equiv_pos_as_xyz
1 x,y,z
2 -x,-y,-z
_cell_length_a                   9.561(2)
_cell_length_b                   9.374(2)
_cell_length_c                   11.565(3)
_cell_angle_alpha                70.44(3)
_cell_angle_beta                 90.54(3)
_cell_angle_gamma                65.86(4)
_cell_volume                     878.28
loop_
_atom_site_label
_atom_site_type_symbol
_atom_site_fract_x
_atom_site_fract_y
_atom_site_fract_z
Fe1 Fe 0.5000 0.0000 0.5000
N1 N 0.0201(3) 0.1450(3) 0.3671(2)
N2 N 0.0958(3) 0.1114(3) 0.2768(2)
N3 N 0.2473(2) 0.0578(3) 0.3010(2)
N4 N 0.2747(2) 0.0552(3) 0.41522(19)
C1 C 0.0158(3) 0.1405(3) 0.1564(3)
H1 H -0.0605 0.0928 0.1703
H2 H 0.0924 0.0830 0.1108
C2 C -0.0673(3) 0.3277(3) 0.0793(3)
H3 H -0.1294 0.3449 0.0027
H4 H -0.1403 0.3846 0.1273
C3 C 0.0415(3) 0.4092(3) 0.0431(3)
H5 H 0.0962 0.4021 0.1194
H6 H 0.1207 0.3460 0.0020
C4 C 0.1357(3) 0.1077(3) 0.4520(3)
H7 H 0.1221 0.1169 0.5309
N5 N 0.4718(3) 0.3677(3) 0.1446(2)
N6 N 0.5727(2) 0.2213(3) 0.1410(2)
N7 N 0.6071(2) 0.0920(3) 0.2446(2)
N8 N 0.5251(2) 0.1548(3) 0.3231(2)
C5 C 0.6298(3) 0.2041(3) 0.0267(2)
H8 H 0.7201 0.0930 0.0478
H9 H 0.6647 0.2923 -0.0131
C6 C 0.5025(3) 0.2204(3) -0.0640(2)
H10 H 0.5438 0.2114 -0.1407
H11 H 0.4151 0.3339 -0.0872
C7 C 0.4397(3) 0.0898(3) -0.0142(3)
H12 H 0.3986 0.0981 0.0627
H13 H 0.3520 0.1163 -0.0764
C8 C 0.4454(3) 0.3195(4) 0.2599(3)
H14 H 0.3765 0.3948 0.2942
N9 N 0.6043(3) -0.2156(3) 0.4498(2)
C9 C 0.6697(3) -0.3273(4) 0.4212(3)
C10 C 0.7534(4) -0.4683(4) 0.3827(3)
H15 H 0.7882 -0.5741 0.4547
H16 H 0.8440 -0.4584 0.3486
H17 H 0.6845 -0.4672 0.3188
Fe1_2 Fe -0.5000 1.0000 -0.5000
Fe1_3 Fe 0.5000 0.0000 -0.5000
N1A N -0.0201(3) 0.8550(3) -0.3671(2)
N2A N -0.0958(3) 0.8886(3) -0.2768(2)
N3A N -0.2473(2) 0.9422(3) -0.3010(2)
N4A N -0.2747(2) 0.9448(3) -0.41522(19)
N4A_2 N 0.7253(2) -0.0552(3) 0.58478(19)
C1A C -0.0158(3) 0.8595(3) -0.1564(3)
H1A H 0.0605 0.9072 -0.1703
H2A H -0.0924 0.9170 -0.1108
C2A C 0.0673(3) 0.6723(3) -0.0793(3)
H3A H 0.1294 0.6551 -0.0027
H4A H 0.1403 0.6154 -0.1273
C3A C -0.0415(3) 0.5908(3) -0.0431(3)
H5A H -0.0962 0.5979 -0.1194
H6A H -0.1207 0.6540 -0.0020
C4A C -0.1357(3) 0.8923(3) -0.4520(3)
H7A H -0.1221 0.8831 -0.5309
N5A N 0.5282(3) -0.3677(3) -0.1446(2)
N6A N 0.4273(2) -0.2213(3) -0.1410(2)
N7A N 0.3929(2) -0.0920(3) -0.2446(2)
N8A N 0.4749(2) -0.1548(3) -0.3231(2)
N8A_2 N 0.4749(2) -0.1548(3) 0.6769(2)
C5A C 0.3702(3) -0.2041(3) -0.0267(2)
H8A H 0.2799 -0.0930 -0.0478
H9A H 0.3353 -0.2923 0.0131
C6A C 0.4975(3) -0.2204(3) 0.0640(2)
H10A H 0.4562 -0.2114 0.1407
H11A H 0.5849 -0.3339 0.0872
C7A C 0.5603(3) -0.0898(3) 0.0142(3)
H12A H 0.6014 -0.0981 -0.0627
H13A H 0.6480 -0.1163 0.0764
C8A C 0.5546(3) -0.3195(4) -0.2599(3)
H14A H 0.6235 -0.3948 -0.2942
N9A N 0.3957(3) 0.2156(3) 0.5502(2)
C9A C 0.3303(3) 0.3273(4) 0.5788(3)
C10A C 0.2466(4) 0.4683(4) 0.6173(3)
H15A H 0.2118 0.5741 0.5453
H16A H 0.1560 0.4584 0.6514
H17A H 0.3155 0.4672 0.6812
Cl1 Cl 0.92781(9) -0.70522(9) 0.74270(7)
O1 O 0.9502(5) -0.7829(3) 0.6511(3)
O2 O 1.0629(4) -0.7967(4) 0.8369(4)
O3 O 0.7953(3) -0.7117(4) 0.7954(4)
O4 O 0.8997(4) -0.5330(4) 0.6825(4)
O5? O 1.033(3) -0.767(3) 0.670(2)
O6? O 0.985(3) -0.810(3) 0.876(2)
O7? O 0.773(2) -0.679(3) 0.718(3)
O8? O 0.932(3) -0.541(3) 0.743(2)
loop_
_geom_bond_atom_site_label_1
_geom_bond_atom_site_label_2
_geom_bond_site_symmetry_1
_geom_bond_site_symmetry_2
Fe1 N4 1_555 1_555
Cl1 O1 1_555 1_555
O2 Cl1 1_555 1_555
O3 Cl1 1_555 1_555
O4 Cl1 1_555 1_555
N1 N2 1_555 1_555
N2 N3 1_555 1_555
N3 N4 1_555 1_555
N4 C4 1_555 1_555
C1 N2 1_555 1_555
H1 C1 1_555 1_555
H2 C1 1_555 1_555
C2 C1 1_555 1_555
H3 C2 1_555 1_555
H4 C2 1_555 1_555
C3 C2 1_555 1_555
H5 C3 1_555 1_555
H6 C3 1_555 1_555
C4 N1 1_555 1_555
H7 C4 1_555 1_555
N5 N6 1_555 1_555
N6 N7 1_555 1_555
N7 N8 1_555 1_555
N8 Fe1 1_555 1_555
C5 N6 1_555 1_555
H8 C5 1_555 1_555
H9 C5 1_555 1_555
C6 C5 1_555 1_555
H10 C6 1_555 1_555
H11 C6 1_555 1_555
C7 C6 1_555 1_555
H12 C7 1_555 1_555
H13 C7 1_555 1_555
C8 N5 1_555 1_555
H14 C8 1_555 1_555
N9 Fe1 1_555 1_555
C9 N9 1_555 1_555
C10 C9 1_555 1_555
H15 C10 1_555 1_555
H16 C10 1_555 1_555
H17 C10 1_555 1_555
Fe1_2 N4A 1_555 1_555
Fe1_3 N8A 1_555 1_555
N1A N2A 1_555 1_555
N2A N3A 1_555 1_555
N3A N4A 1_555 1_555
N4A C4A 1_555 1_555
N4A_2 Fe1 1_555 1_555
C1A N2A 1_555 1_555
H1A C1A 1_555 1_555
H2A C1A 1_555 1_555
C2A C1A 1_555 1_555
H3A C2A 1_555 1_555
H4A C2A 1_555 1_555
C3A C3 1_555 1_555
H5A C3A 1_555 1_555
H6A C3A 1_555 1_555
C4A N1A 1_555 1_555
H7A C4A 1_555 1_555
N5A N6A 1_555 1_555
N6A N7A 1_555 1_555
N7A N8A 1_555 1_555
N8A C8A 1_555 1_555
N8A_2 Fe1 1_555 1_555
C5A N6A 1_555 1_555
H8A C5A 1_555 1_555
H9A C5A 1_555 1_555
C6A C5A 1_555 1_555
H10A C6A 1_555 1_555
H11A C6A 1_555 1_555
C7A C7 1_555 1_555
H12A C7A 1_555 1_555
H13A C7A 1_555 1_555
C8A N5A 1_555 1_555
H14A C8A 1_555 1_555
N9A Fe1 1_555 1_555
C9A N9A 1_555 1_555
C10A C9A 1_555 1_555
H15A C10A 1_555 1_555
H16A C10A 1_555 1_555
H17A C10A 1_555 1_555
N8 C8 1_555 1_555
C2A C3A 1_555 1_555
C6A C7A 1_555 1_555

#END
