
#######################################################################
#
#                 Cambridge Crystallographic Data Centre
#                                CCDC 
#
#######################################################################
#
# If this CIF has been generated from an entry in the Cambridge 
# Structural Database, then it will include bibliographic, chemical, 
# crystal, experimental, refinement or atomic coordinate data resulting 
# from the CCDC's data processing and validation procedures.
#
#######################################################################

data_RACWEZ05
_symmetry_cell_setting           triclinic
_symmetry_space_group_name_H-M   'P -1'
_symmetry_Int_Tables_number      2
_space_group_name_Hall           '-P 1'
loop_
_symmetry_equiv_pos_site_id
_symmetry_equiv_pos_as_xyz
1 x,y,z
2 -x,-y,-z
_cell_length_a                   9.490(2)
_cell_length_b                   9.344(2)
_cell_length_c                   11.440(3)
_cell_angle_alpha                70.12(3)
_cell_angle_beta                 90.70(3)
_cell_angle_gamma                65.86(4)
_cell_volume                     856.922
loop_
_atom_site_label
_atom_site_type_symbol
_atom_site_fract_x
_atom_site_fract_y
_atom_site_fract_z
Fe1 Fe 0.5000 0.0000 0.5000
N1 N 0.0317(3) 0.1403(3) 0.3735(2)
N2 N 0.1065(3) 0.1051(3) 0.2821(2)
N3 N 0.2590(3) 0.0530(3) 0.3058(2)
N4 N 0.2869(3) 0.0529(3) 0.4202(2)
C1 C 0.0239(3) 0.1342(4) 0.1609(3)
H1 H -0.0518 0.0847 0.1765
H2 H 0.1005 0.0768 0.1146
C2 C -0.0630(3) 0.3226(3) 0.0808(3)
H3 H -0.1239 0.3379 0.0030
H4 H -0.1384 0.3791 0.1282
C3 C 0.0449(3) 0.4082(3) 0.0443(3)
H5 H 0.0990 0.4024 0.1215
H6 H 0.1258 0.3466 0.0027
C4 C 0.1479(3) 0.1051(4) 0.4589(3)
H7 H 0.1350 0.1154 0.5384
N5 N 0.4722(3) 0.3630(3) 0.1537(2)
N6 N 0.5737(2) 0.2170(3) 0.1492(2)
N7 N 0.6062(3) 0.0839(3) 0.2540(2)
N8 N 0.5220(3) 0.1456(3) 0.3323(2)
C5 C 0.6318(3) 0.2023(3) 0.0332(2)
H8 H 0.7227 0.0905 0.0544
H9 H 0.6674 0.2910 -0.0057
C6 C 0.5031(3) 0.2217(3) -0.0607(3)
H10 H 0.5450 0.2148 -0.1384
H11 H 0.4151 0.3360 -0.0838
C7 C 0.4387(3) 0.0903(3) -0.0131(3)
H12 H 0.3981 0.0952 0.0655
H13 H 0.3497 0.1197 -0.0769
C8 C 0.4422(3) 0.3140(3) 0.2696(3)
H14 H 0.3726 0.3890 0.3044
N9 N 0.5944(3) -0.1971(3) 0.4531(2)
C9 C 0.6564(3) -0.3082(3) 0.4220(2)
C10 C 0.7367(4) -0.4487(4) 0.3817(3)
H15 H 0.7721 -0.5560 0.4544
H16 H 0.8276 -0.4398 0.3461
H17 H 0.6646 -0.4450 0.3174
Fe1_2 Fe -0.5000 1.0000 -0.5000
Fe1_3 Fe 0.5000 0.0000 -0.5000
N1A N -0.0317(3) 0.8597(3) -0.3735(2)
N2A N -0.1065(3) 0.8949(3) -0.2821(2)
N3A N -0.2590(3) 0.9470(3) -0.3058(2)
N4A N -0.2869(3) 0.9471(3) -0.4202(2)
N4A_2 N 0.7131(3) -0.0529(3) 0.5798(2)
C1A C -0.0239(3) 0.8658(4) -0.1609(3)
H1A H 0.0518 0.9153 -0.1765
H2A H -0.1005 0.9232 -0.1146
C2A C 0.0630(3) 0.6774(3) -0.0808(3)
H3A H 0.1239 0.6621 -0.0030
H4A H 0.1384 0.6209 -0.1282
C3A C -0.0449(3) 0.5918(3) -0.0443(3)
H5A H -0.0990 0.5976 -0.1215
H6A H -0.1258 0.6534 -0.0027
C4A C -0.1479(3) 0.8949(4) -0.4589(3)
H7A H -0.1350 0.8846 -0.5384
N5A N 0.5278(3) -0.3630(3) -0.1537(2)
N6A N 0.4263(2) -0.2170(3) -0.1492(2)
N7A N 0.3938(3) -0.0839(3) -0.2540(2)
N8A N 0.4780(3) -0.1456(3) -0.3323(2)
N8A_2 N 0.4780(3) -0.1456(3) 0.6677(2)
C5A C 0.3682(3) -0.2023(3) -0.0332(2)
H8A H 0.2773 -0.0905 -0.0544
H9A H 0.3326 -0.2910 0.0057
C6A C 0.4969(3) -0.2217(3) 0.0607(3)
H10A H 0.4550 -0.2148 0.1384
H11A H 0.5849 -0.3360 0.0838
C7A C 0.5613(3) -0.0903(3) 0.0131(3)
H12A H 0.6019 -0.0952 -0.0655
H13A H 0.6503 -0.1197 0.0769
C8A C 0.5578(3) -0.3140(3) -0.2696(3)
H14A H 0.6274 -0.3890 -0.3044
N9A N 0.4056(3) 0.1971(3) 0.5469(2)
C9A C 0.3436(3) 0.3082(3) 0.5780(2)
C10A C 0.2633(4) 0.4487(4) 0.6183(3)
H15A H 0.2279 0.5560 0.5456
H16A H 0.1724 0.4398 0.6539
H17A H 0.3354 0.4450 0.6826
Cl1 Cl 0.92579(8) -0.70165(8) 0.74044(6)
O1 O 0.9442(4) -0.7786(3) 0.6476(2)
O2 O 1.0635(4) -0.7961(4) 0.8368(3)
O3 O 0.7903(3) -0.7034(3) 0.7945(3)
O4 O 0.9013(3) -0.5289(3) 0.6786(4)
O5? O 1.027(4) -0.764(4) 0.673(3)
O6? O 1.011(4) -0.819(4) 0.879(3)
O7? O 0.773(4) -0.685(5) 0.728(4)
O8? O 0.928(3) -0.534(3) 0.737(3)
loop_
_geom_bond_atom_site_label_1
_geom_bond_atom_site_label_2
_geom_bond_site_symmetry_1
_geom_bond_site_symmetry_2
Fe1 N4 1_555 1_555
Cl1 O1 1_555 1_555
O2 Cl1 1_555 1_555
O3 Cl1 1_555 1_555
O4 Cl1 1_555 1_555
N1 N2 1_555 1_555
N2 N3 1_555 1_555
N3 N4 1_555 1_555
N4 C4 1_555 1_555
C1 N2 1_555 1_555
H1 C1 1_555 1_555
H2 C1 1_555 1_555
C2 C1 1_555 1_555
H3 C2 1_555 1_555
H4 C2 1_555 1_555
C3 C2 1_555 1_555
H5 C3 1_555 1_555
H6 C3 1_555 1_555
C4 N1 1_555 1_555
H7 C4 1_555 1_555
N5 N6 1_555 1_555
N6 N7 1_555 1_555
N7 N8 1_555 1_555
N8 Fe1 1_555 1_555
C5 N6 1_555 1_555
H8 C5 1_555 1_555
H9 C5 1_555 1_555
C6 C5 1_555 1_555
H10 C6 1_555 1_555
H11 C6 1_555 1_555
C7 C6 1_555 1_555
H12 C7 1_555 1_555
H13 C7 1_555 1_555
C8 N5 1_555 1_555
H14 C8 1_555 1_555
N9 Fe1 1_555 1_555
C9 N9 1_555 1_555
C10 C9 1_555 1_555
H15 C10 1_555 1_555
H16 C10 1_555 1_555
H17 C10 1_555 1_555
Fe1_2 N4A 1_555 1_555
Fe1_3 N8A 1_555 1_555
N1A N2A 1_555 1_555
N2A N3A 1_555 1_555
N3A N4A 1_555 1_555
N4A C4A 1_555 1_555
N4A_2 Fe1 1_555 1_555
C1A N2A 1_555 1_555
H1A C1A 1_555 1_555
H2A C1A 1_555 1_555
C2A C1A 1_555 1_555
H3A C2A 1_555 1_555
H4A C2A 1_555 1_555
C3A C3 1_555 1_555
H5A C3A 1_555 1_555
H6A C3A 1_555 1_555
C4A N1A 1_555 1_555
H7A C4A 1_555 1_555
N5A N6A 1_555 1_555
N6A N7A 1_555 1_555
N7A N8A 1_555 1_555
N8A C8A 1_555 1_555
N8A_2 Fe1 1_555 1_555
C5A N6A 1_555 1_555
H8A C5A 1_555 1_555
H9A C5A 1_555 1_555
C6A C5A 1_555 1_555
H10A C6A 1_555 1_555
H11A C6A 1_555 1_555
C7A C7 1_555 1_555
H12A C7A 1_555 1_555
H13A C7A 1_555 1_555
C8A N5A 1_555 1_555
H14A C8A 1_555 1_555
N9A Fe1 1_555 1_555
C9A N9A 1_555 1_555
C10A C9A 1_555 1_555
H15A C10A 1_555 1_555
H16A C10A 1_555 1_555
H17A C10A 1_555 1_555
N8 C8 1_555 1_555
C2A C3A 1_555 1_555
C6A C7A 1_555 1_555

#END
