
#######################################################################
#
#                 Cambridge Crystallographic Data Centre
#                                CCDC 
#
#######################################################################
#
# If this CIF has been generated from an entry in the Cambridge 
# Structural Database, then it will include bibliographic, chemical, 
# crystal, experimental, refinement or atomic coordinate data resulting 
# from the CCDC's data processing and validation procedures.
#
#######################################################################

data_RACWEZ02
_symmetry_cell_setting           triclinic
_symmetry_space_group_name_H-M   'P -1'
_symmetry_Int_Tables_number      2
_space_group_name_Hall           '-P 1'
loop_
_symmetry_equiv_pos_site_id
_symmetry_equiv_pos_as_xyz
1 x,y,z
2 -x,-y,-z
_cell_length_a                   9.548(2)
_cell_length_b                   9.436(2)
_cell_length_c                   11.635(3)
_cell_angle_alpha                69.84(3)
_cell_angle_beta                 89.99(3)
_cell_angle_gamma                65.69(4)
_cell_volume                     884.391
loop_
_atom_site_label
_atom_site_type_symbol
_atom_site_fract_x
_atom_site_fract_y
_atom_site_fract_z
Fe1 Fe 0.5000 0.0000 0.5000
N1 N 0.0169(3) 0.1493(3) 0.3693(2)
N2 N 0.0927(3) 0.1145(3) 0.2793(2)
N3 N 0.2440(3) 0.0600(3) 0.3026(2)
N4 N 0.2718(3) 0.0578(3) 0.4157(2)
C1 C 0.0115(3) 0.1445(4) 0.1600(3)
H1 H -0.0658 0.0981 0.1749
H2 H 0.0876 0.0863 0.1145
C2 C -0.0703(3) 0.3311(4) 0.0823(3)
H3 H -0.1351 0.3492 0.0075
H4 H -0.1409 0.3889 0.1309
C3 C 0.0404(3) 0.4094(3) 0.0422(3)
H5 H 0.0994 0.3992 0.1169
H6 H 0.1161 0.3462 -0.0008
C4 C 0.1333(4) 0.1110(4) 0.4528(3)
H7 H 0.1202 0.1202 0.5313
N5 N 0.4746(3) 0.3665(3) 0.1421(2)
N6 N 0.5736(2) 0.2203(3) 0.1388(2)
N7 N 0.6063(2) 0.0914(3) 0.2428(2)
N8 N 0.5262(2) 0.1545(3) 0.3211(2)
C5 C 0.6300(3) 0.2031(3) 0.0248(2)
H8 H 0.7203 0.0920 0.0460
H9 H 0.6653 0.2907 -0.0158
C6 C 0.5029(3) 0.2199(3) -0.0645(3)
H10 H 0.5444 0.2115 -0.1411
H11 H 0.4153 0.3331 -0.0876
C7 C 0.4401(3) 0.0897(3) -0.0143(3)
H12 H 0.3989 0.0976 0.0625
H13 H 0.3521 0.1172 -0.0759
C8 C 0.4481(4) 0.3193(4) 0.2577(3)
H14 H 0.3805 0.3951 0.2919
N9 N 0.6038(3) -0.2185(3) 0.4516(2)
C9 C 0.6679(4) -0.3293(4) 0.4237(3)
C10 C 0.7510(4) -0.4704(4) 0.3863(3)
H15 H 0.7855 -0.5758 0.4587
H16 H 0.8419 -0.4614 0.3516
H17 H 0.6817 -0.4690 0.3234
Fe1_2 Fe -0.5000 1.0000 -0.5000
Fe1_3 Fe 0.5000 0.0000 -0.5000
N1A N -0.0169(3) 0.8507(3) -0.3693(2)
N2A N -0.0927(3) 0.8855(3) -0.2793(2)
N3A N -0.2440(3) 0.9400(3) -0.3026(2)
N4A N -0.2718(3) 0.9422(3) -0.4157(2)
N4A_2 N 0.7282(3) -0.0578(3) 0.5843(2)
C1A C -0.0115(3) 0.8555(4) -0.1600(3)
H1A H 0.0658 0.9019 -0.1749
H2A H -0.0876 0.9137 -0.1145
C2A C 0.0703(3) 0.6689(4) -0.0823(3)
H3A H 0.1351 0.6508 -0.0075
H4A H 0.1409 0.6111 -0.1309
C3A C -0.0404(3) 0.5906(3) -0.0422(3)
H5A H -0.0994 0.6008 -0.1169
H6A H -0.1161 0.6538 0.0008
C4A C -0.1333(4) 0.8890(4) -0.4528(3)
H7A H -0.1202 0.8798 -0.5313
N5A N 0.5254(3) -0.3665(3) -0.1421(2)
N6A N 0.4264(2) -0.2203(3) -0.1388(2)
N7A N 0.3937(2) -0.0914(3) -0.2428(2)
N8A N 0.4738(2) -0.1545(3) -0.3211(2)
N8A_2 N 0.4738(2) -0.1545(3) 0.6789(2)
C5A C 0.3700(3) -0.2031(3) -0.0248(2)
H8A H 0.2797 -0.0920 -0.0460
H9A H 0.3347 -0.2907 0.0158
C6A C 0.4971(3) -0.2199(3) 0.0645(3)
H10A H 0.4556 -0.2115 0.1411
H11A H 0.5847 -0.3331 0.0876
C7A C 0.5599(3) -0.0897(3) 0.0143(3)
H12A H 0.6011 -0.0976 -0.0625
H13A H 0.6479 -0.1172 0.0759
C8A C 0.5519(4) -0.3193(4) -0.2577(3)
H14A H 0.6195 -0.3951 -0.2919
N9A N 0.3962(3) 0.2185(3) 0.5484(2)
C9A C 0.3321(4) 0.3293(4) 0.5763(3)
C10A C 0.2490(4) 0.4704(4) 0.6137(3)
H15A H 0.2145 0.5758 0.5413
H16A H 0.1581 0.4614 0.6484
H17A H 0.3183 0.4690 0.6766
Cl1 Cl 0.92821(11) -0.70534(11) 0.74441(8)
O1 O 0.9536(10) -0.7821(5) 0.6539(4)
O2 O 1.0600(8) -0.8005(6) 0.8408(7)
O3 O 0.7941(6) -0.7094(6) 0.7927(8)
O4 O 0.8991(8) -0.5350(8) 0.6857(8)
O5? O 1.035(3) -0.766(2) 0.6772(18)
O6? O 0.969(3) -0.8069(19) 0.8756(13)
O7? O 0.7757(19) -0.6834(19) 0.712(2)
O8? O 0.929(3) -0.542(3) 0.740(2)
loop_
_geom_bond_atom_site_label_1
_geom_bond_atom_site_label_2
_geom_bond_site_symmetry_1
_geom_bond_site_symmetry_2
Fe1 N4 1_555 1_555
Cl1 O1 1_555 1_555
O2 Cl1 1_555 1_555
O3 Cl1 1_555 1_555
O4 Cl1 1_555 1_555
N1 N2 1_555 1_555
N2 N3 1_555 1_555
N3 N4 1_555 1_555
N4 C4 1_555 1_555
C1 N2 1_555 1_555
H1 C1 1_555 1_555
H2 C1 1_555 1_555
C2 C1 1_555 1_555
H3 C2 1_555 1_555
H4 C2 1_555 1_555
C3 C2 1_555 1_555
H5 C3 1_555 1_555
H6 C3 1_555 1_555
C4 N1 1_555 1_555
H7 C4 1_555 1_555
N5 N6 1_555 1_555
N6 N7 1_555 1_555
N7 N8 1_555 1_555
N8 Fe1 1_555 1_555
C5 N6 1_555 1_555
H8 C5 1_555 1_555
H9 C5 1_555 1_555
C6 C5 1_555 1_555
H10 C6 1_555 1_555
H11 C6 1_555 1_555
C7 C6 1_555 1_555
H12 C7 1_555 1_555
H13 C7 1_555 1_555
C8 N5 1_555 1_555
H14 C8 1_555 1_555
N9 Fe1 1_555 1_555
C9 N9 1_555 1_555
C10 C9 1_555 1_555
H15 C10 1_555 1_555
H16 C10 1_555 1_555
H17 C10 1_555 1_555
Fe1_2 N4A 1_555 1_555
Fe1_3 N8A 1_555 1_555
N1A N2A 1_555 1_555
N2A N3A 1_555 1_555
N3A N4A 1_555 1_555
N4A C4A 1_555 1_555
N4A_2 Fe1 1_555 1_555
C1A N2A 1_555 1_555
H1A C1A 1_555 1_555
H2A C1A 1_555 1_555
C2A C1A 1_555 1_555
H3A C2A 1_555 1_555
H4A C2A 1_555 1_555
C3A C3 1_555 1_555
H5A C3A 1_555 1_555
H6A C3A 1_555 1_555
C4A N1A 1_555 1_555
H7A C4A 1_555 1_555
N5A N6A 1_555 1_555
N6A N7A 1_555 1_555
N7A N8A 1_555 1_555
N8A C8A 1_555 1_555
N8A_2 Fe1 1_555 1_555
C5A N6A 1_555 1_555
H8A C5A 1_555 1_555
H9A C5A 1_555 1_555
C6A C5A 1_555 1_555
H10A C6A 1_555 1_555
H11A C6A 1_555 1_555
C7A C7 1_555 1_555
H12A C7A 1_555 1_555
H13A C7A 1_555 1_555
C8A N5A 1_555 1_555
H14A C8A 1_555 1_555
N9A Fe1 1_555 1_555
C9A N9A 1_555 1_555
C10A C9A 1_555 1_555
H15A C10A 1_555 1_555
H16A C10A 1_555 1_555
H17A C10A 1_555 1_555
N8 C8 1_555 1_555
C2A C3A 1_555 1_555
C6A C7A 1_555 1_555

#END
