
#######################################################################
#
#                 Cambridge Crystallographic Data Centre
#                                CCDC 
#
#######################################################################
#
# If this CIF has been generated from an entry in the Cambridge 
# Structural Database, then it will include bibliographic, chemical, 
# crystal, experimental, refinement or atomic coordinate data resulting 
# from the CCDC's data processing and validation procedures.
#
#######################################################################

data_RACXIE01
_symmetry_cell_setting           triclinic
_symmetry_space_group_name_H-M   'P -1'
_symmetry_Int_Tables_number      2
_space_group_name_Hall           '-P 1'
loop_
_symmetry_equiv_pos_site_id
_symmetry_equiv_pos_as_xyz
1 x,y,z
2 -x,-y,-z
_cell_length_a                   9.847(2)
_cell_length_b                   9.220(2)
_cell_length_c                   11.772(3)
_cell_angle_alpha                69.50(3)
_cell_angle_beta                 89.56(3)
_cell_angle_gamma                60.68(4)
_cell_volume                     855.109
loop_
_atom_site_label
_atom_site_type_symbol
_atom_site_fract_x
_atom_site_fract_y
_atom_site_fract_z
Fe1 Fe 0.5000 0.0000 0.5000
N1 N 0.02579(17) 0.1326(2) 0.36438(13)
N2 N 0.09596(16) 0.13183(18) 0.26721(12)
N3 N 0.24300(16) 0.09254(18) 0.28808(12)
N4 N 0.27448(16) 0.06350(18) 0.40636(12)
C1 C 0.0110(2) 0.1817(2) 0.14523(14)
H1 H -0.0419 0.1117 0.1539
H2 H 0.0878 0.1508 0.0904
C2 C -0.1129(2) 0.3839(2) 0.08736(15)
H3 H -0.1841 0.4150 0.1458
H4 H -0.1784 0.4106 0.0112
C3 C -0.04122(19) 0.5037(2) 0.05489(15)
H5 H -0.1266 0.6305 0.0355
H6 H 0.0367 0.4648 0.1279
C4 C 0.1409(2) 0.0888(2) 0.45016(15)
H7 H 0.1308 0.0766 0.5328
N5 N 0.56325(19) 0.3334(2) 0.15907(13)
N6 N 0.61928(16) 0.17316(19) 0.15213(12)
N7 N 0.60955(17) 0.05335(19) 0.24726(12)
N8 N 0.54510(16) 0.13543(18) 0.32267(12)
C5 C 0.6802(2) 0.1350(2) 0.04524(15)
H8 H 0.7566 0.0033 0.0722
H9 H 0.7375 0.1990 0.0119
C6 C 0.5460(2) 0.1956(2) -0.05636(15)
H10 H 0.5917 0.1727 -0.1278
H11 H 0.4723 0.3280 -0.0843
C7 C 0.45059(19) 0.1023(2) -0.01852(15)
H12 H 0.4029 0.1267 0.0519
H13 H 0.3625 0.1559 -0.0884
C8 C 0.5182(2) 0.3052(2) 0.26689(15)
H14 H 0.4723 0.3939 0.3012
O5 O 0.62973(14) -0.25171(15) 0.48781(10)
H15 H 0.7048 -0.3387 0.5465
C9 C 0.5973(2) -0.3182(2) 0.40313(16)
H16 H 0.5237 -0.2143 0.3266
H17 H 0.5449 -0.3863 0.4416
C10 C 0.7479(3) -0.4394(3) 0.37098(18)
H18 H 0.7230 -0.4830 0.3139
H19 H 0.8203 -0.5430 0.4466
H20 H 0.7987 -0.3713 0.3314
Fe1_2 Fe -0.5000 1.0000 -0.5000
Fe1_3 Fe 0.5000 0.0000 -0.5000
N1A N -0.02579(17) 0.8674(2) -0.36438(13)
N2A N -0.09596(16) 0.86817(18) -0.26721(12)
N3A N -0.24300(16) 0.90746(18) -0.28808(12)
N4A N -0.27448(16) 0.93650(18) -0.40636(12)
N4A_2 N 0.72552(16) -0.06350(18) 0.59364(12)
C1A C -0.0110(2) 0.8183(2) -0.14523(14)
H1A H 0.0419 0.8883 -0.1539
H2A H -0.0878 0.8492 -0.0904
C2A C 0.1129(2) 0.6161(2) -0.08736(15)
H3A H 0.1841 0.5850 -0.1458
H4A H 0.1784 0.5894 -0.0112
C3A C 0.04122(19) 0.4963(2) -0.05489(15)
H5A H 0.1266 0.3695 -0.0355
H6A H -0.0367 0.5352 -0.1279
C4A C -0.1409(2) 0.9112(2) -0.45016(15)
H7A H -0.1308 0.9234 -0.5328
N5A N 0.43675(19) -0.3334(2) -0.15907(13)
N6A N 0.38072(16) -0.17316(19) -0.15213(12)
N7A N 0.39045(17) -0.05335(19) -0.24726(12)
N8A N 0.45490(16) -0.13543(18) -0.32267(12)
N8A_2 N 0.45490(16) -0.13543(18) 0.67733(12)
C5A C 0.3198(2) -0.1350(2) -0.04524(15)
H8A H 0.2434 -0.0033 -0.0722
H9A H 0.2625 -0.1990 -0.0119
C6A C 0.4540(2) -0.1956(2) 0.05636(15)
H10A H 0.4083 -0.1727 0.1278
H11A H 0.5277 -0.3280 0.0843
C7A C 0.54941(19) -0.1023(2) 0.01852(15)
H12A H 0.5971 -0.1267 -0.0519
H13A H 0.6375 -0.1559 0.0884
C8A C 0.4818(2) -0.3052(2) -0.26689(15)
H14A H 0.5277 -0.3939 -0.3012
O5A O 0.37027(14) 0.25171(15) 0.51219(10)
H15A H 0.2952 0.3387 0.4535
C9A C 0.4027(2) 0.3182(2) 0.59687(16)
H16A H 0.4763 0.2143 0.6734
H17A H 0.4551 0.3863 0.5584
C10A C 0.2521(3) 0.4394(3) 0.62902(18)
H18A H 0.2770 0.4830 0.6861
H19A H 0.1797 0.5430 0.5534
H20A H 0.2013 0.3713 0.6686
Cl1 Cl 0.88649(5) -0.70069(5) 0.73678(3)
O1 O 0.74318(16) -0.68793(19) 0.69407(13)
O2 O 1.01597(16) -0.81217(18) 0.69151(12)
O3 O 0.92390(17) -0.77735(18) 0.86965(11)
O4 O 0.86208(16) -0.51944(16) 0.69107(11)
loop_
_geom_bond_atom_site_label_1
_geom_bond_atom_site_label_2
_geom_bond_site_symmetry_1
_geom_bond_site_symmetry_2
Fe1 N4 1_555 1_555
Cl1 O1 1_555 1_555
O2 Cl1 1_555 1_555
O3 Cl1 1_555 1_555
O4 Cl1 1_555 1_555
N1 N2 1_555 1_555
N2 N3 1_555 1_555
N3 N4 1_555 1_555
N4 C4 1_555 1_555
C1 N2 1_555 1_555
H1 C1 1_555 1_555
H2 C1 1_555 1_555
C2 C1 1_555 1_555
H3 C2 1_555 1_555
H4 C2 1_555 1_555
C3 C2 1_555 1_555
H5 C3 1_555 1_555
H6 C3 1_555 1_555
C4 N1 1_555 1_555
H7 C4 1_555 1_555
N5 N6 1_555 1_555
N6 N7 1_555 1_555
N7 N8 1_555 1_555
N8 Fe1 1_555 1_555
C5 N6 1_555 1_555
H8 C5 1_555 1_555
H9 C5 1_555 1_555
C6 C5 1_555 1_555
H10 C6 1_555 1_555
H11 C6 1_555 1_555
C7 C6 1_555 1_555
H12 C7 1_555 1_555
H13 C7 1_555 1_555
C8 N5 1_555 1_555
H14 C8 1_555 1_555
O5 Fe1 1_555 1_555
H15 O5 1_555 1_555
C9 O5 1_555 1_555
H16 C9 1_555 1_555
H17 C9 1_555 1_555
C10 C9 1_555 1_555
H18 C10 1_555 1_555
H19 C10 1_555 1_555
H20 C10 1_555 1_555
Fe1_2 N4A 1_555 1_555
Fe1_3 N8A 1_555 1_555
N1A N2A 1_555 1_555
N2A N3A 1_555 1_555
N3A N4A 1_555 1_555
N4A C4A 1_555 1_555
N4A_2 Fe1 1_555 1_555
C1A N2A 1_555 1_555
H1A C1A 1_555 1_555
H2A C1A 1_555 1_555
C2A C1A 1_555 1_555
H3A C2A 1_555 1_555
H4A C2A 1_555 1_555
C3A C3 1_555 1_555
H5A C3A 1_555 1_555
H6A C3A 1_555 1_555
C4A N1A 1_555 1_555
H7A C4A 1_555 1_555
N5A N6A 1_555 1_555
N6A N7A 1_555 1_555
N7A N8A 1_555 1_555
N8A C8A 1_555 1_555
N8A_2 Fe1 1_555 1_555
C5A N6A 1_555 1_555
H8A C5A 1_555 1_555
H9A C5A 1_555 1_555
C6A C5A 1_555 1_555
H10A C6A 1_555 1_555
H11A C6A 1_555 1_555
C7A C7 1_555 1_555
H12A C7A 1_555 1_555
H13A C7A 1_555 1_555
C8A N5A 1_555 1_555
H14A C8A 1_555 1_555
O5A Fe1 1_555 1_555
H15A O5A 1_555 1_555
C9A O5A 1_555 1_555
H16A C9A 1_555 1_555
H17A C9A 1_555 1_555
C10A C9A 1_555 1_555
H18A C10A 1_555 1_555
H19A C10A 1_555 1_555
H20A C10A 1_555 1_555
N8 C8 1_555 1_555
C2A C3A 1_555 1_555
C6A C7A 1_555 1_555

#END
