
#######################################################################
#
#                 Cambridge Crystallographic Data Centre
#                                CCDC 
#
#######################################################################
#
# If this CIF has been generated from an entry in the Cambridge 
# Structural Database, then it will include bibliographic, chemical, 
# crystal, experimental, refinement or atomic coordinate data resulting 
# from the CCDC's data processing and validation procedures.
#
#######################################################################

data_RACYIE01
_symmetry_cell_setting           monoclinic
_symmetry_space_group_name_H-M   'C 2/c'
_symmetry_Int_Tables_number      15
_space_group_name_Hall           '-C 2yn'
loop_
_symmetry_equiv_pos_site_id
_symmetry_equiv_pos_as_xyz
1 x,y,z
2 -x,y,1/2-z
3 1/2+x,1/2+y,z
4 1/2-x,1/2+y,1/2-z
5 -x,-y,-z
6 x,-y,1/2+z
7 1/2-x,1/2-y,-z
8 1/2+x,1/2-y,1/2+z
_cell_length_a                   9.2643(19)
_cell_length_b                   19.948(4)
_cell_length_c                   10.253(2)
_cell_angle_alpha                90
_cell_angle_beta                 109.05(3)
_cell_angle_gamma                90
_cell_volume                     1791.03
loop_
_atom_site_label
_atom_site_type_symbol
_atom_site_fract_x
_atom_site_fract_y
_atom_site_fract_z
La1 La 0.0000 0.487165(5) 0.7500
O1 O -0.10335(15) 0.56759(6) 0.87339(12)
O2 O -0.06057(16) 0.60636(6) 1.08496(11)
O5 O 0.25231(16) 0.44176(7) 0.72496(13)
H1 H 0.276(3) 0.4015(13) 0.754(2)
H2 H 0.322(3) 0.4663(15) 0.758(3)
O6 O -0.22306(16) 0.54371(8) 0.56054(13)
H3 H -0.226(3) 0.5451(15) 0.483(3)
H4 H -0.315(4) 0.5474(15) 0.570(3)
N1 N -0.16012(19) 0.81533(7) 0.80382(16)
C1 C -0.0999(2) 0.80304(9) 0.9386(2)
H5 H -0.072(3) 0.8403(12) 0.994(2)
C2 C -0.0760(2) 0.73897(8) 0.99261(16)
H6 H -0.035(2) 0.7316(9) 1.0857(19)
C3 C -0.11455(17) 0.68481(7) 0.90382(14)
C4 C -0.1754(2) 0.69733(9) 0.76331(16)
H7 H -0.208(2) 0.6623(10) 0.7017(19)
C5 C -0.1966(2) 0.76294(9) 0.71917(19)
H8 H -0.245(3) 0.7741(12) 0.628(3)
C6 C -0.09077(18) 0.61410(8) 0.95800(15)
La1D La 0.0000 0.512835(5) 1.2500
La1D_2 La 0.0000 0.512835(5) 0.2500
O1E O -0.10335(15) 0.43241(6) 0.37339(12)
O1A O 0.10335(15) 0.56759(6) 0.62661(12)
O2E O -0.06057(16) 0.39364(6) 0.58496(11)
O2D O 0.06057(16) 0.39364(6) 0.91504(11)
O5A O -0.25231(16) 0.44176(7) 0.77504(13)
H1A H -0.276(3) 0.4015(13) 0.746(2)
H2A H -0.322(3) 0.4663(15) 0.742(3)
O6A O 0.22306(16) 0.54371(8) 0.93946(13)
H3A H 0.226(3) 0.5451(15) 1.017(3)
H4A H 0.315(4) 0.5474(15) 0.930(3)
N1E N -0.16012(19) 0.18467(7) 0.30382(16)
C1E C -0.0999(2) 0.19696(9) 0.4386(2)
H5E H -0.072(3) 0.1597(12) 0.494(2)
C2E C -0.0760(2) 0.26103(8) 0.49261(16)
H6E H -0.035(2) 0.2684(9) 0.5857(19)
C3E C -0.11455(17) 0.31519(7) 0.40382(14)
C4E C -0.1754(2) 0.30267(9) 0.26331(16)
H7E H -0.208(2) 0.3377(10) 0.2017(19)
C5E C -0.1966(2) 0.23706(9) 0.21917(19)
H8E H -0.245(3) 0.2259(12) 0.128(3)
C6E C -0.09077(18) 0.38590(8) 0.45800(15)
O3 O 0.5000 0.62910(12) 0.7500
O4 O 0.48373(18) 0.53579(9) 0.84964(15)
N2 N 0.5000 0.56785(11) 0.7500
O4A O 0.51627(18) 0.53579(9) 0.65036(15)
loop_
_geom_bond_atom_site_label_1
_geom_bond_atom_site_label_2
_geom_bond_site_symmetry_1
_geom_bond_site_symmetry_2
La1 O1 1_555 1_555
O1 C6 1_555 1_555
O2 C6 1_555 1_555
O3 N2 1_555 1_555
O4 N2 1_555 1_555
O5 La1 1_555 1_555
H1 O5 1_555 1_555
H2 O5 1_555 1_555
O6 La1 1_555 1_555
H3 O6 1_555 1_555
H4 O6 1_555 1_555
N1 C1 1_555 1_555
N2 O4A 1_555 1_555
C1 H5 1_555 1_555
C2 C1 1_555 1_555
H6 C2 1_555 1_555
C3 C2 1_555 1_555
C4 C3 1_555 1_555
H7 C4 1_555 1_555
C5 N1 1_555 1_555
H8 C5 1_555 1_555
C6 C3 1_555 1_555
La1D O2 1_555 1_555
La1D_2 O1E 1_555 1_555
O1E C6E 1_555 1_555
O1A La1 1_555 1_555
O2E La1 1_555 1_555
O2D La1 1_555 1_555
O5A La1 1_555 1_555
H1A O5A 1_555 1_555
H2A O5A 1_555 1_555
O6A La1 1_555 1_555
H3A O6A 1_555 1_555
H4A O6A 1_555 1_555
N1E C1E 1_555 1_555
C1E H5E 1_555 1_555
C2E C1E 1_555 1_555
H6E C2E 1_555 1_555
C3E C2E 1_555 1_555
C4E C3E 1_555 1_555
H7E C4E 1_555 1_555
C5E N1E 1_555 1_555
H8E C5E 1_555 1_555
C6E O2E 1_555 1_555
C4 C5 1_555 1_555
C3E C6E 1_555 1_555
C4E C5E 1_555 1_555

#END
