
#######################################################################
#
#                 Cambridge Crystallographic Data Centre
#                                CCDC 
#
#######################################################################
#
# If this CIF has been generated from an entry in the Cambridge 
# Structural Database, then it will include bibliographic, chemical, 
# crystal, experimental, refinement or atomic coordinate data resulting 
# from the CCDC's data processing and validation procedures.
#
#######################################################################

data_RACYIE
_symmetry_cell_setting           monoclinic
_symmetry_space_group_name_H-M   'C 2/c'
_symmetry_Int_Tables_number      15
_space_group_name_Hall           '-C 2yn'
loop_
_symmetry_equiv_pos_site_id
_symmetry_equiv_pos_as_xyz
1 x,y,z
2 1/2+x,1/2+y,z
3 x,-y,1/2+z
4 1/2+x,1/2-y,1/2+z
5 -x,-y,-z
6 1/2-x,1/2-y,-z
7 -x,y,1/2-z
8 1/2-x,1/2+y,1/2-z
_cell_length_a                   9.2732(12)
_cell_length_b                   19.963(3)
_cell_length_c                   10.2565(13)
_cell_angle_alpha                90
_cell_angle_beta                 109.021(2)
_cell_angle_gamma                90
_cell_volume                     1795.02
loop_
_atom_site_label
_atom_site_type_symbol
_atom_site_fract_x
_atom_site_fract_y
_atom_site_fract_z
La1 La 0.5000 0.487145(15) 0.7500
O1 O 0.4394(3) 0.39359(14) 0.5849(3)
O2 O 0.3967(3) 0.43237(13) 0.3728(3)
N1 N 0.3402(4) 0.18481(17) 0.3036(4)
C1 C 0.4002(5) 0.1967(2) 0.4389(4)
H1 H 0.4271 0.1605 0.4992
C2 C 0.4239(4) 0.26127(19) 0.4927(4)
H2 H 0.4650 0.2682 0.5873
C3 C 0.3852(4) 0.31512(18) 0.4029(4)
C4 C 0.3245(4) 0.3027(2) 0.2639(4)
H3 H 0.2978 0.3379 0.2011
C5 C 0.3038(5) 0.2370(2) 0.2193(4)
H4 H 0.2622 0.2290 0.1251
C6 C 0.4094(4) 0.38616(19) 0.4585(4)
O5 O 0.7240(3) 0.54390(16) 0.9406(3)
O6 O 0.2464(3) 0.44155(13) 0.7742(3)
O1F O 0.5606(3) 0.39359(14) 0.9151(3)
O2F O 0.6033(3) 0.43237(13) 1.1272(3)
N1F N 0.6598(4) 0.18481(17) 1.1964(4)
C1F C 0.5998(5) 0.1967(2) 1.0611(4)
H1F H 0.5729 0.1605 1.0008
C2F C 0.5761(4) 0.26127(19) 1.0073(4)
H2F H 0.5350 0.2682 0.9127
C3F C 0.6148(4) 0.31512(18) 1.0971(4)
C4F C 0.6755(4) 0.3027(2) 1.2361(4)
H3F H 0.7022 0.3379 1.2989
C5F C 0.6962(5) 0.2370(2) 1.2807(4)
H4F H 0.7378 0.2290 1.3749
C6F C 0.5906(4) 0.38616(19) 1.0415(4)
O5F O 0.2760(3) 0.54390(16) 0.5594(3)
O6F O 0.7536(3) 0.44155(13) 0.7258(3)
O2B O 0.3967(3) 0.56763(13) 0.8728(3)
O2D O 0.6033(3) 0.56763(13) 0.6272(3)
La1B La 0.5000 0.512855(15) 0.2500
La1B_2 La 0.5000 0.512855(15) 1.2500
N2 N 0.5000 1.0683(3) -0.2500
O3 O 0.5000 1.1291(3) -0.2500
O4 O 0.4837(4) 1.03588(19) -0.1509(3)
O4F O 0.5163(4) 1.03588(19) -0.3491(3)
loop_
_geom_bond_atom_site_label_1
_geom_bond_atom_site_label_2
_geom_bond_site_symmetry_1
_geom_bond_site_symmetry_2
La1 O1 1_555 1_555
O1 C6 1_555 1_555
O2 C6 1_555 1_555
N1 C1 1_555 1_555
C1 H1 1_555 1_555
C2 C1 1_555 1_555
H2 C2 1_555 1_555
C3 C2 1_555 1_555
C4 C3 1_555 1_555
H3 C4 1_555 1_555
C5 N1 1_555 1_555
H4 C5 1_555 1_555
C6 C3 1_555 1_555
N2 O3 1_555 1_555
O4 N2 1_555 1_555
O5 La1 1_555 1_555
O6 La1 1_555 1_555
O4F N2 1_555 1_555
O1F La1 1_555 1_555
O2F C6F 1_555 1_555
N1F C1F 1_555 1_555
C1F H1F 1_555 1_555
C2F C1F 1_555 1_555
H2F C2F 1_555 1_555
C3F C2F 1_555 1_555
C4F C3F 1_555 1_555
H3F C4F 1_555 1_555
C5F N1F 1_555 1_555
H4F C5F 1_555 1_555
C6F O1F 1_555 1_555
O5F La1 1_555 1_555
O6F La1 1_555 1_555
O2B La1 1_555 1_555
O2D La1 1_555 1_555
La1B O2 1_555 1_555
La1B_2 O2F 1_555 1_555
C4 C5 1_555 1_555
C3F C6F 1_555 1_555
C4F C5F 1_555 1_555

#END
