
#######################################################################
#
#                 Cambridge Crystallographic Data Centre
#                                CCDC 
#
#######################################################################
#
# If this CIF has been generated from an entry in the Cambridge 
# Structural Database, then it will include bibliographic, chemical, 
# crystal, experimental, refinement or atomic coordinate data resulting 
# from the CCDC's data processing and validation procedures.
#
#######################################################################

data_RACZAX
_symmetry_cell_setting           monoclinic
_symmetry_space_group_name_H-M   'C c'
_symmetry_Int_Tables_number      9
_space_group_name_Hall           'C -2yc'
loop_
_symmetry_equiv_pos_site_id
_symmetry_equiv_pos_as_xyz
1 x,y,z
2 x,-y,1/2+z
3 1/2+x,1/2+y,z
4 1/2+x,1/2-y,1/2+z
_cell_length_a                   14.260(5)
_cell_length_b                   9.660(2)
_cell_length_c                   12.789(5)
_cell_angle_alpha                90
_cell_angle_beta                 120.878(12)
_cell_angle_gamma                90
_cell_volume                     1512
loop_
_atom_site_label
_atom_site_type_symbol
_atom_site_fract_x
_atom_site_fract_y
_atom_site_fract_z
Cu1 Cu 0.37752(3) 0.24939(2) 0.43022(3)
N1 N 0.44323(11) 0.16794(19) 0.34346(12)
N2 N 0.50825(14) 0.0578(2) 0.22143(17)
N3 N 0.41739(12) -0.09309(16) 0.04535(13)
N4 N 0.38428(10) 0.44487(16) 0.37902(11)
N5 N 0.28288(10) 0.33669(14) 0.48467(11)
C1 C 0.46648(13) 0.1129(2) 0.28186(15)
C2 C 0.45370(12) -0.0244(2) 0.12794(15)
C3 C 0.43935(14) 0.4951(2) 0.32990(16)
H1 H 0.4738 0.4342 0.3041
C4 C 0.44692(15) 0.6367(2) 0.31596(17)
H2 H 0.4865 0.6690 0.2815
C5 C 0.39659(19) 0.7287(2) 0.3525(2)
H3 H 0.4021 0.8233 0.3435
C6 C 0.33732(14) 0.67952(19) 0.40307(16)
C7 C 0.28131(19) 0.7655(2) 0.4459(2)
H4 H 0.2820 0.8611 0.4376
C8 C 0.22737(16) 0.7103(2) 0.49823(18)
H5 H 0.1916 0.7682 0.5246
C9 C 0.22530(13) 0.5632(2) 0.51294(15)
C10 C 0.17059(12) 0.4964(2) 0.56608(16)
H6 H 0.1346 0.5487 0.5958
C11 C 0.17122(13) 0.3565(2) 0.57308(15)
H7 H 0.1338 0.3123 0.6054
C12 C 0.22851(15) 0.2789(2) 0.53150(17)
H8 H 0.2283 0.1829 0.5370
C13 C 0.27837(11) 0.47773(17) 0.47230(13)
C14 C 0.33392(12) 0.53514(18) 0.41469(13)
N3A N 0.41739(12) 0.09309(16) 0.54535(13)
Cu1A Cu 0.37752(3) -0.24939(2) -0.06978(3)
Cl1 Cl 1.13815(4) 0.05316(4) 0.18648(4)
O1 O 1.06513(14) -0.0556(2) 0.17678(16)
O2 O 1.20426(13) 0.0083(2) 0.13894(16)
O3 O 1.07396(14) 0.1713(2) 0.12134(15)
O4 O 1.20552(16) 0.0885(2) 0.30898(16)
loop_
_geom_bond_atom_site_label_1
_geom_bond_atom_site_label_2
_geom_bond_site_symmetry_1
_geom_bond_site_symmetry_2
Cu1 N1 1_555 1_555
Cl1 O1 1_555 1_555
O2 Cl1 1_555 1_555
O3 Cl1 1_555 1_555
O4 Cl1 1_555 1_555
N1 C1 1_555 1_555
N2 C1 1_555 1_555
N3 C2 1_555 1_555
N4 Cu1 1_555 1_555
N5 Cu1 1_555 1_555
C2 N2 1_555 1_555
C3 N4 1_555 1_555
H1 C3 1_555 1_555
C4 C3 1_555 1_555
H2 C4 1_555 1_555
C5 C4 1_555 1_555
H3 C5 1_555 1_555
C6 C5 1_555 1_555
C7 C6 1_555 1_555
H4 C7 1_555 1_555
C8 C7 1_555 1_555
H5 C8 1_555 1_555
C9 C8 1_555 1_555
C10 C9 1_555 1_555
H6 C10 1_555 1_555
C11 C10 1_555 1_555
H7 C11 1_555 1_555
C12 N5 1_555 1_555
H8 C12 1_555 1_555
C13 N5 1_555 1_555
C14 N4 1_555 1_555
N3A Cu1 1_555 1_555
Cu1A N3 1_555 1_555
C6 C14 1_555 1_555
C9 C13 1_555 1_555
C11 C12 1_555 1_555
C13 C14 1_555 1_555

#END
