
#######################################################################
#
#                 Cambridge Crystallographic Data Centre
#                                CCDC 
#
#######################################################################
#
# If this CIF has been generated from an entry in the Cambridge 
# Structural Database, then it will include bibliographic, chemical, 
# crystal, experimental, refinement or atomic coordinate data resulting 
# from the CCDC's data processing and validation procedures.
#
#######################################################################

data_RADBEF
_symmetry_cell_setting           triclinic
_symmetry_space_group_name_H-M   'P -1'
_symmetry_Int_Tables_number      2
_space_group_name_Hall           '-P 1'
loop_
_symmetry_equiv_pos_site_id
_symmetry_equiv_pos_as_xyz
1 x,y,z
2 -x,-y,-z
_cell_length_a                   17.514(3)
_cell_length_b                   18.087(3)
_cell_length_c                   38.106(7)
_cell_angle_alpha                90.764(5)
_cell_angle_beta                 97.408(5)
_cell_angle_gamma                102.736(5)
_cell_volume                     11664.9
loop_
_atom_site_label
_atom_site_type_symbol
_atom_site_fract_x
_atom_site_fract_y
_atom_site_fract_z
Cl3 Cl 1.1629(10) 0.8593(9) 0.7621(4)
C2 C 1.125(3) 0.905(3) 0.7901(13)
H3 H 1.0964 0.8686 0.8048
H4 H 1.0878 0.9301 0.7769
Cl4 Cl 1.1929(10) 0.9725(10) 0.8176(5)
Re1 Re 0.43527(5) 0.62879(5) 0.79438(2)
Re2 Re 0.67996(5) 0.29511(5) 0.82036(2)
Re3 Re 0.78142(5) 0.62333(5) 0.67434(2)
Re4 Re 0.38879(5) 0.30754(5) 0.63968(2)
Mn1 Mn 0.39915(18) 0.33501(17) 0.77675(8)
Mn2 Mn 0.47830(18) 0.60098(17) 0.66233(8)
Mn3 Mn 0.68857(19) 0.32925(19) 0.68392(8)
Mn4 Mn 0.71340(19) 0.57942(19) 0.80200(8)
P1 P 0.2482(3) 0.2963(3) 0.62379(13)
P2 P 0.6727(4) 0.2877(4) 0.88328(16)
P3 P 0.4552(4) 0.7651(3) 0.80007(15)
P4 P 0.8145(3) 0.2819(4) 0.83380(16)
P5 P 0.8048(3) 0.6310(3) 0.61337(13)
P6 P 0.4120(3) 0.6342(3) 0.85519(14)
P7 P 0.9180(3) 0.6187(3) 0.68946(13)
P8 P 0.6423(3) 0.1582(3) 0.81705(15)
P9 P 0.3943(3) 0.3050(3) 0.57643(13)
P10 P 0.2962(3) 0.6238(3) 0.77690(14)
P11 P 0.8234(3) 0.7599(3) 0.67591(14)
C3 C 0.6609(11) 0.6211(10) 0.6617(5)
P12 P 0.3606(4) 0.1706(3) 0.63635(14)
N1 N 0.5975(10) 0.6155(9) 0.6573(4)
C4 C 0.7170(12) 0.4158(12) 0.8219(5)
C5 C 0.4094(10) 0.5099(10) 0.7882(5)
C6 C 0.7504(10) 0.5030(10) 0.6759(4)
N2 N 0.5751(10) 0.3247(10) 0.6603(5)
C7 C 0.4136(10) 0.4268(10) 0.6467(4)
N3 N 0.3977(11) 0.4479(11) 0.7825(5)
N4 N 0.7367(10) 0.4431(10) 0.6821(4)
C8 C 0.9541(11) 0.5385(11) 0.6729(5)
C9 C 0.7601(10) 0.6215(9) 0.7264(4)
N5 N 0.5066(11) 0.3223(11) 0.8024(5)
N6 N 0.7448(11) 0.6205(11) 0.7546(5)
N7 N 0.4198(11) 0.6641(11) 0.6255(5)
N8 N 0.4255(10) 0.4876(9) 0.6528(4)
N9 N 0.3953(10) 0.3105(10) 0.7246(5)
C10 C 0.4573(10) 0.6306(10) 0.7421(4)
C11 C 0.5531(11) 0.6209(10) 0.8076(5)
C12 C 0.4607(13) 0.4545(12) 0.5674(6)
H5 H 0.4924 0.4499 0.5885
N10 N 0.3012(11) 0.2634(10) 0.7940(5)
C13 C 0.2433(12) 0.2288(12) 0.8024(5)
C14 C 0.2202(13) 0.3477(12) 0.6881(6)
H6 H 0.2626 0.3872 0.6852
C15 C 0.4569(12) 0.9363(11) 0.5384(5)
C16 C 0.3743(13) 0.9143(12) 0.5345(6)
H7 H 0.3444 0.9442 0.5218
C17 C 0.2237(13) 0.5411(12) 0.7879(6)
C18 C 0.7160(13) 0.4891(12) 0.5899(6)
H8 H 0.6851 0.4968 0.6070
C19 C 0.7817(12) 0.5427(12) 0.5850(5)
C20 C 0.4449(13) 0.1251(13) 0.6455(6)
C21 C 0.4047(11) 0.3945(11) 0.5532(5)
C22 C 0.5002(12) 0.8936(11) 0.5584(5)
H9 H 0.5551 0.9084 0.5616
C23 C 0.1924(12) 0.2919(12) 0.6611(5)
C24 C 0.1747(13) 0.1896(13) 0.8126(6)
C25 C 0.3979(12) 0.5450(12) 0.8789(6)
C26 C 0.4949(13) 0.1463(13) 0.6762(6)
H10 H 0.4845 0.1826 0.6913
N11 N 0.6774(11) 0.3053(10) 0.7360(5)
C27 C 0.2646(12) 0.6242(12) 0.7288(5)
C28 C 0.5103(11) 0.3151(11) 0.6525(5)
C29 C 0.4735(11) 0.2721(11) 0.5595(5)
C30 C 0.7493(13) 0.6908(12) 0.5842(6)
C31 C 0.6827(12) 0.2977(12) 0.7653(6)
C32 C 0.3819(13) 0.8051(12) 0.5697(6)
C33 C 0.4908(12) 0.2843(12) 0.5251(5)
H11 H 0.4588 0.3081 0.5099
C34 C 0.9096(14) 0.5579(13) 0.7548(6)
H12 H 0.8678 0.5226 0.7424
N12 N 0.4710(10) 0.6283(10) 0.7145(5)
C35 C 0.9522(12) 0.6166(12) 0.7375(6)
C36 C 0.4408(13) 0.8218(13) 0.7607(6)
C37 C 0.2571(14) 0.4338(12) 0.5900(6)
H13 H 0.3113 0.4415 0.5966
C38 C 0.3144(13) 0.1332(12) 0.5921(6)
H14 H 0.3560 0.1320 0.5777
H15 H 0.2862 0.0812 0.5940
C39 C 0.4388(13) 0.4285(13) 0.8932(6)
H16 H 0.4728 0.3963 0.8910
C40 C 0.8687(14) 0.8155(14) 0.7164(7)
C41 C 0.1545(13) 0.2058(13) 0.8467(6)
C42 C 0.5660(12) 0.3102(11) 0.8089(5)
C43 C 0.6014(13) 0.2293(12) 0.5336(6)
H17 H 0.6440 0.2159 0.5250
C44 C 0.3571(13) 0.4004(13) 0.5213(6)
H18 H 0.3183 0.3592 0.5112
C45 C 0.9055(14) 0.4820(13) 0.6501(6)
H19 H 0.8547 0.4859 0.6410
C46 C 0.3369(14) 0.8501(13) 0.5488(6)
H20 H 0.2820 0.8354 0.5451
C47 C 0.3870(11) 0.3079(11) 0.6942(5)
C48 C 0.3024(12) 0.2441(12) 0.5526(6)
H21 H 0.2665 0.2766 0.5453
H22 H 0.3156 0.2234 0.5312
C49 C 0.1843(13) 0.4244(13) 0.8179(6)
H23 H 0.1979 0.3899 0.8341
C50 C 1.0086(15) 0.4121(15) 0.6544(7)
H24 H 1.0273 0.3702 0.6480
C51 C 0.5249(12) 0.2354(11) 0.5818(5)
H25 H 0.5163 0.2256 0.6050
C52 C 0.8643(14) 0.3387(14) 0.7703(6)
H26 H 0.8409 0.3783 0.7755
C53 C 0.5531(12) 0.2627(12) 0.5127(6)
H27 H 0.5619 0.2715 0.4895
C54 C 0.5882(13) 0.2144(13) 0.5684(6)
H28 H 0.6215 0.1903 0.5828
C55 C 0.3830(12) 0.6953(12) 0.6071(6)
C56 C 0.8988(14) 0.7915(13) 0.6467(6)
H29 H 0.8723 0.8031 0.6241
H30 H 0.9332 0.8384 0.6569
C57 C 0.1443(14) 0.5295(14) 0.7710(7)
H31 H 0.1309 0.5648 0.7552
C58 C 0.4638(12) 0.8283(12) 0.5739(5)
H32 H 0.4944 0.8000 0.5872
N13 N 0.7327(11) 0.4754(11) 0.8192(5)
C59 C 0.3084(15) 0.7344(14) 0.8323(7)
C60 C 0.4258(15) 0.5307(15) 0.5201(7)
H33 H 0.4325 0.5767 0.5090
C61 C 0.9850(15) 0.7015(14) 0.6741(7)
H34 H 0.9976 0.7413 0.6926
H35 H 1.0339 0.6872 0.6707
N14 N 0.1894(12) 0.3481(11) 1.1644(5)
C62 C 0.9346(15) 0.4183(14) 0.6408(7)
H36 H 0.9028 0.3804 0.6253
C63 C 0.4422(13) 0.4948(12) 0.8730(6)
H37 H 0.4754 0.5035 0.8556
C64 C 0.2065(14) 0.2599(13) 0.8712(6)
H38 H 0.2556 0.2833 0.8651
C65 C 0.6637(14) 0.7776(13) 0.5463(6)
H39 H 0.6342 0.8084 0.5341
C66 C 0.2978(15) 0.1142(14) 0.6656(7)
C67 C 0.8672(14) 0.2787(14) 0.7951(6)
C68 C 0.2655(14) 0.7050(13) 0.7957(6)
H40 H 0.2736 0.7461 0.7795
H41 H 0.2093 0.6904 0.7971
C69 C 0.1263(13) 0.2358(13) 0.6661(6)
H42 H 0.1042 0.1996 0.6479
C70 C 0.6965(14) 0.4232(14) 0.5689(6)
H43 H 0.6523 0.3862 0.5724
C71 C 0.1451(16) 0.4802(16) 0.5641(7)
H44 H 0.1236 0.5181 0.5532
C72 C 0.3431(15) 0.5274(14) 0.9042(7)
H45 H 0.3106 0.5603 0.9079
C73 C 0.8048(15) 0.4652(14) 0.5374(7)
H46 H 0.8343 0.4586 0.5194
C74 C 0.2285(14) 0.6778(14) 0.7122(7)
H47 H 0.2180 0.7169 0.7256
C75 C 0.8257(15) 0.5318(14) 0.5596(6)
H48 H 0.8705 0.5686 0.5566
C76 C 0.9290(17) 0.2826(17) 0.7316(8)
H49 H 0.9479 0.2826 0.7099
C77 C 0.9523(14) 0.7343(14) 0.6392(6)
C78 C 0.4714(15) 0.5241(14) 0.5507(7)
H50 H 0.5099 0.5655 0.5607
C79 C 0.2571(14) 0.5596(14) 0.6717(6)
H51 H 0.2654 0.5197 0.6581
C80 C 0.2067(13) 0.2072(12) 0.5972(6)
H52 H 0.1910 0.1678 0.6135
H53 H 0.1587 0.2135 0.5829
C81 C 0.7396(15) 0.4102(15) 0.5430(7)
H54 H 0.7254 0.3651 0.5293
C82 C 0.3697(14) 0.4693(13) 0.5054(7)
H55 H 0.3391 0.4742 0.4840
C83 C 0.7895(14) 0.7483(13) 0.5653(6)
H56 H 0.8440 0.7573 0.5656
C84 C 0.1077(15) 0.4130(14) 0.8013(6)
H57 H 0.0698 0.3705 0.8055
C85 C 0.2661(14) 0.1457(14) 0.6917(6)
H58 H 0.2788 0.1982 0.6952
C86 C 0.3433(14) 0.7362(14) 0.5856(6)
C87 C 0.2044(15) 0.1243(14) 0.5449(7)
H59 H 0.1690 0.0864 0.5560
H60 H 0.2358 0.1003 0.5316
H61 H 0.1744 0.1519 0.5293
C88 C 0.1218(16) 0.1360(15) 0.7898(7)
C89 C 0.2794(15) 0.5652(15) 0.7082(7)
H62 H 0.3042 0.5294 0.7192
C90 C 0.6784(15) 0.1030(14) 0.7841(7)
C91 C 0.6691(12) 0.6766(12) 0.5831(6)
H63 H 0.6430 0.6368 0.5953
C92 C 0.3881(15) 0.7930(15) 0.8293(7)
H64 H 0.4171 0.8042 0.8529
H65 H 0.3752 0.8398 0.8209
C93 C 0.2096(13) 0.3680(12) 0.5984(6)
C94 C 0.9072(15) 0.2242(15) 0.7866(7)
H66 H 0.9138 0.1873 0.8028
C95 C 0.2277(14) 0.4896(13) 0.5722(6)
H67 H 0.2618 0.5327 0.5656
C96 C 0.1875(14) 0.3465(14) 0.7184(6)
H68 H 0.2078 0.3843 0.7361
C97 C 0.4100(13) 0.7889(13) 0.7283(6)
H69 H 0.3920 0.7365 0.7257
C98 C 0.5387(15) 0.1179(14) 0.8083(7)
C99 C 0.4050(13) 0.8332(13) 0.6989(6)
H70 H 0.3868 0.8101 0.6765
C100 C 0.7427(14) 0.8079(14) 0.6638(7)
C101 C 0.9299(16) 0.5519(16) 0.7913(7)
H71 H 0.9037 0.5115 0.8033
C102 C 0.9081(13) 0.6708(13) 0.6109(6)
H72 H 0.9357 0.6298 0.6126
H73 H 0.9124 0.6913 0.5876
C103 C 0.2421(14) 0.4876(12) 0.8106(6)
H74 H 0.2938 0.4932 0.8215
C104 C 0.3381(16) 0.4643(15) 0.9224(8)
H75 H 0.3042 0.4542 0.9395
C105 C 0.2563(12) 0.1767(12) 0.5721(6)
C106 C 0.1398(15) 0.3137(14) 1.1467(7)
C107 C 0.6822(15) 0.7920(15) 0.6846(7)
H76 H 0.6847 0.7579 0.7025
C108 C 1.0294(15) 0.5287(15) 0.6862(7)
H77 H 1.0629 0.5655 0.7017
C109 C 1.0139(14) 0.6700(14) 0.7548(6)
H78 H 1.0430 0.7086 0.7428
C110 C 0.1242(15) 0.2890(14) 0.7231(7)
H79 H 0.1019 0.2878 0.7440
C111 C 0.7426(14) 0.7931(14) 0.5452(7)
H80 H 0.7660 0.8320 0.5317
C112 C 0.5780(16) 0.0664(15) 0.6625(7)
H81 H 0.6243 0.0492 0.6677
C113 C 0.9373(16) 0.2228(16) 0.7552(7)
H82 H 0.9621 0.1847 0.7495
C114 C 0.6763(16) 0.1215(15) 0.8591(7)
H83 H 0.6351 0.1183 0.8741
H84 H 0.6817 0.0702 0.8545
C115 C 0.9913(17) 0.6090(16) 0.8094(8)
H85 H 1.0032 0.6079 0.8339
C116 C 0.7222(14) 0.1345(14) 0.7593(6)
H86 H 0.7364 0.1871 0.7589
C117 C 0.2082(15) 0.6731(15) 0.6758(7)
H87 H 0.1846 0.7096 0.6648
C118 C 0.6968(16) 0.3768(15) 0.9097(7)
C119 C 1.0315(18) 0.6631(17) 0.7926(8)
H88 H 1.0728 0.6985 0.8053
C120 C 0.0931(15) 0.2323(15) 0.6965(7)
H89 H 0.0506 0.1931 0.6996
C121 C 0.4681(16) 0.7419(15) 0.9137(7)
H90 H 0.4159 0.7450 0.9142
C122 C 0.7386(17) 0.8579(16) 0.6362(8)
H91 H 0.7781 0.8685 0.6218
C123 C 0.8956(14) 0.3371(14) 0.7399(7)
H92 H 0.8932 0.3760 0.7243
C124 C 0.4630(16) 0.0689(15) 0.6222(7)
H93 H 0.4301 0.0518 0.6012
C125 C 0.8740(17) 0.4139(16) 0.8773(7)
H94 H 0.8220 0.4191 0.8750
C126 C 0.8833(16) 0.7857(16) 0.7487(7)
H95 H 0.8724 0.7332 0.7499
C127 C 0.6270(15) 0.7219(14) 0.5635(6)
H96 H 0.5723 0.7126 0.5626
C128 C 0.1262(15) 0.3560(14) 0.5902(7)
H97 H 0.0933 0.3119 0.5965
C129 C 0.4257(17) 0.9066(17) 0.7025(8)
H98 H 0.4202 0.9351 0.6826
C130 C 1.0541(18) 0.4657(16) 0.6766(8)
H99 H 1.1042 0.4603 0.6860
C131 C 0.7543(15) 0.1655(15) 0.8803(7)
C132 C 0.9690(15) 0.3443(15) 0.8654(7)
H100 H 0.9837 0.3031 0.8555
C133 C 0.3841(16) 0.4146(16) 0.9156(7)
H101 H 0.3770 0.3690 0.9270
C134 C 0.2222(16) 0.6155(16) 0.6559(8)
H102 H 0.2083 0.6134 0.6315
C135 C 1.0243(19) 0.4041(17) 0.8856(8)
H103 H 1.0770 0.4009 0.8882
C136 C 0.0877(16) 0.4688(15) 0.7772(7)
H104 H 0.0362 0.4631 0.7660
C137 C 0.7471(17) 0.0921(16) 0.7344(8)
H105 H 0.7775 0.1168 0.7179
C138 C 0.8899(15) 0.3525(14) 0.8617(7)
C139 C 0.1690(18) 0.2711(17) 1.0390(8)
H106 H 0.2185 0.2894 1.0320
C140 C 0.3217(14) 0.6708(13) 0.8577(6)
H107 H 0.2762 0.6285 0.8530
H108 H 0.3233 0.6897 0.8818
C141 C 0.6736(17) 0.8913(17) 0.6310(8)
H109 H 0.6697 0.9252 0.6131
C142 C 0.0954(17) 0.4110(15) 0.5728(7)
H110 H 0.0411 0.4030 0.5666
C143 C 0.5078(15) 0.2234(14) 0.8778(7)
H111 H 0.5084 0.2207 0.8535
N15 N 0.193(2) 0.6902(19) 0.5698(9)
N16 N -0.057(2) 0.1974(19) 1.1426(9)
C144 C 0.5763(16) 0.2480(16) 0.8993(7)
C145 C 0.4969(17) 0.0643(17) 0.8280(8)
H112 H 0.5228 0.0443 0.8471
C146 C 0.7282(17) 0.0163(17) 0.7336(8)
H113 H 0.7490 -0.0115 0.7181
C147 C 0.0841(18) 0.2604(17) 1.0851(8)
C148 C 1.0082(19) 0.4640(18) 0.9013(8)
H114 H 1.0472 0.5002 0.9148
C149 C 0.6558(17) 0.4311(16) 0.8984(8)
H115 H 0.6188 0.4208 0.8782
C150 C 0.2167(15) 0.1037(15) 0.7126(7)
H116 H 0.1949 0.1274 0.7294
C151 C 0.5602(15) 0.1162(14) 0.6859(7)
H117 H 0.5912 0.1294 0.7078
N17 N 0.0791(18) 0.0918(17) 0.7706(8)
C152 C 0.7393(16) 0.2307(15) 0.9033(7)
H118 H 0.7900 0.2647 0.9112
H119 H 0.7188 0.2090 0.9242
C153 C 0.1874(16) 0.2793(16) 0.9033(7)
H120 H 0.2230 0.3152 0.9186
C154 C 0.4854(15) 0.6966(14) 0.8883(7)
C155 C 0.005(2) 0.2339(19) 1.1334(9)
C156 C 0.4973(15) 0.1429(15) 0.7775(7)
H121 H 0.5256 0.1757 0.7628
C157 C 0.1092(17) 0.2239(16) 1.0154(8)
C158 C 0.5631(16) 0.6936(15) 0.8891(7)
H122 H 0.5767 0.6626 0.8724
C159 C 0.5266(19) 0.7832(18) 0.9386(9)
H123 H 0.5141 0.8137 0.9559
C160 C 0.244(2) -0.007(2) 0.6855(10)
H124 H 0.2388 -0.0589 0.6867
C161 C 0.415(2) 0.1193(19) 0.7691(10)
H125 H 0.3895 0.1381 0.7494
C162 C 0.1554(17) 0.2901(16) 1.0715(8)
H126 H 0.1950 0.3244 1.0858
C163 C 0.0728(17) 0.2700(16) 1.1227(8)
C164 C 0.462(2) 0.899(2) 0.7641(10)
H127 H 0.4821 0.9227 0.7862
C165 C 0.288(2) 0.0322(19) 0.6631(9)
H128 H 0.3109 0.0085 0.6468
C166 C 1.0245(17) 0.7835(17) 0.6238(8)
H129 H 1.0537 0.8212 0.6414
H130 H 1.0060 0.8080 0.6033
H131 H 1.0580 0.7516 0.6174
C167 C 0.023(2) 0.2182(19) 1.0604(9)
H132 H -0.0273 0.2023 1.0667
C168 C 0.6019(19) 0.7791(17) 0.9378(8)
H133 H 0.6411 0.8079 0.9544
C169 C 0.8183(16) 0.1924(15) 0.8560(7)
H134 H 0.8137 0.1528 0.8379
H135 H 0.8697 0.1984 0.8700
C170 C 0.4363(17) 0.2019(16) 0.8909(8)
H136 H 0.3900 0.1856 0.8753
C171 C 0.8854(19) 0.8964(19) 0.7145(9)
H137 H 0.8752 0.9180 0.6929
C172 C 0.2550(18) 0.7780(17) 0.8490(8)
H138 H 0.2413 0.8150 0.8329
H139 H 0.2826 0.8031 0.8708
H140 H 0.2078 0.7431 0.8535
C173 C 0.5288(17) 0.0415(16) 0.6316(8)
H141 H 0.5407 0.0054 0.6169
C174 C 0.6176(17) 0.8259(16) 0.6792(7)
H142 H 0.5772 0.8163 0.6933
C175 C 0.038(2) 0.1999(19) 1.0263(9)
H143 H -0.0031 0.1703 1.0108
C176 C 0.9136(18) 0.8291(18) 0.7801(9)
H144 H 0.9226 0.8057 0.8013
C177 C 0.372(3) 0.068(2) 0.7900(11)
H145 H 0.3172 0.0525 0.7848
C178 C 0.6224(18) 0.7358(17) 0.9143(8)
H146 H 0.6749 0.7333 0.9145
C179 C 0.668(2) 0.500(2) 0.9164(9)
H147 H 0.6412 0.5368 0.9086
C180 C 0.261(2) 0.7101(19) 0.5769(9)
C181 C 0.918(3) 0.944(3) 0.7454(13)
H148 H 0.9301 0.9967 0.7441
C182 C 0.930(2) 0.909(2) 0.7789(12)
H149 H 0.9493 0.9385 0.7996
C183 C 0.411(2) 0.039(2) 0.8186(11)
H150 H 0.3831 0.0031 0.8321
C184 C 0.745(2) 0.389(2) 0.9412(9)
H151 H 0.7701 0.3516 0.9500
C185 C 0.726(3) 0.513(3) 0.9483(12)
H152 H 0.7392 0.5601 0.9602
C186 C 0.6176(18) 0.8747(16) 0.6516(8)
H153 H 0.5749 0.8976 0.6471
C187 C 0.655(2) 0.025(2) 0.7827(10)
H154 H 0.6238 0.0012 0.7992
C188 C 0.7834(18) 0.1126(17) 0.9059(8)
H155 H 0.7433 0.0927 0.9203
H156 H 0.8302 0.1394 0.9206
H157 H 0.7955 0.0716 0.8930
C189 C 0.496(2) 0.226(2) 0.9465(10)
H158 H 0.4929 0.2270 0.9706
C190 C 0.931(2) 0.469(2) 0.8963(9)
H159 H 0.9173 0.5107 0.9061
C191 C 0.678(2) -0.020(2) 0.7558(11)
H160 H 0.6589 -0.0726 0.7537
C192 C 0.571(2) 0.247(2) 0.9355(10)
H161 H 0.6165 0.2613 0.9520
C193 C 0.455(3) 0.944(3) 0.7344(13)
H162 H 0.4700 0.9965 0.7364
C194 C 0.758(3) 0.458(2) 0.9602(12)
H163 H 0.7912 0.4655 0.9818
C195 C 0.433(3) 0.204(2) 0.9249(11)
H164 H 0.3846 0.1902 0.9333
C196 C 0.201(3) 0.033(3) 0.7089(12)
H165 H 0.1628 0.0049 0.7209
C197 C 0.4943(11) 1.0075(11) 0.5206(5)
C198 C 0.5758(11) 1.0382(10) 0.5393(5)
C199 C 0.4463(11) 1.0667(11) 0.5205(5)
C200 C 0.1366(16) 0.3402(16) 0.9621(7)
C201 C 0.0983(15) 0.2620(15) 0.9507(7)
C202 C 0.0818(15) 0.1747(14) 0.8580(7)
H166 H 0.0441 0.1413 0.8425
C203 C 0.1149(15) 0.2450(14) 0.9129(7)
C204 C 0.0634(16) 0.1906(15) 0.8901(7)
H167 H 0.0160 0.1649 0.8970
C205 C 0.1228(17) 0.2043(16) 0.9780(8)
C206 C 0.5527(16) 0.8142(15) 0.8195(7)
C207 C 0.5771(17) 0.4757(16) 0.7337(7)
H168 H 0.5492 0.4235 0.7314
H169 H 0.6097 0.4866 0.7152
H170 H 0.5398 0.5077 0.7321
C208 C 0.6143(18) 0.8001(18) 0.8043(9)
H171 H 0.6037 0.7675 0.7843
O1 O 0.6212(18) 0.4883(18) 0.7644(6)
C209 C 0.5687(18) 0.8637(16) 0.8487(8)
H172 H 0.5273 0.8765 0.8587
C210 C 0.2086(19) 0.2064(17) 0.9780(8)
C211 C 0.080(2) 0.132(2) 0.9681(9)
C212 C 0.649(2) 0.896(2) 0.8638(11)
H173 H 0.6616 0.9264 0.8844
N18 N 0.044(3) 0.069(2) 0.9588(11)
N19 N 0.4031(11) 1.1040(10) 0.5187(5)
N20 N 0.6381(11) 1.0540(11) 0.5543(5)
N21 N 0.6140(11) 0.6126(10) 0.8142(5)
N22 N 0.1728(15) 0.4014(15) 0.9717(7)
N23 N -0.0531(18) 0.2549(16) 0.9482(8)
C213 C 0.0118(19) 0.2593(17) 0.9490(8)
N24 N 0.275(2) 0.2081(18) 0.9760(9)
C214 C 0.704(2) 0.879(2) 0.8462(11)
H174 H 0.7565 0.9011 0.8548
C215 C 0.691(3) 0.832(3) 0.8172(12)
H175 H 0.7328 0.8216 0.8065
N25 N 0.7489(9) 0.2563(8) 0.6567(4)
C216 C 0.841(3) 0.193(2) 0.6333(12)
C217 C 0.869(2) 0.134(2) 0.6556(11)
N26 N 0.902(2) 0.0840(19) 0.6706(9)
C218 C 0.778(3) 0.238(3) 0.6488(13)
C219 C 0.832(2) 0.252(2) 0.5726(10)
H176 H 0.7904 0.2706 0.5793
C220 C 0.953(3) 0.201(3) 0.5531(12)
H177 H 0.9896 0.1747 0.5472
C221 C 0.919(3) 0.244(3) 0.5312(16)
N27 N 0.987(3) 0.413(3) 0.4849(13)
C222 C 0.969(4) 0.353(5) 0.483(2)
C223 C 0.944(4) 0.263(4) 0.494(2)
H178 H 0.8961 0.2417 0.4772
N28 N 1.060(5) 0.235(6) 0.493(3)
C224 C 1.015(5) 0.226(5) 0.480(2)
C225 C 0.849(3) 0.264(2) 0.5375(11)
H179 H 0.8168 0.2836 0.5204
C226 C 0.925(2) 0.201(2) 0.5885(11)
H180 H 0.9599 0.1863 0.6062
C227 C 0.872(3) 0.214(2) 0.5986(12)
C197A C 0.5057(11) 0.9925(11) 0.4794(5)
C15A C 0.5431(12) 1.0637(11) 0.4616(5)
C16A C 0.6257(13) 1.0857(12) 0.4655(6)
H7A H 0.6556 1.0558 0.4782
C46A C 0.6631(14) 1.1499(13) 0.4512(6)
C32A C 0.6181(13) 1.1949(12) 0.4303(6)
C86A C 0.6567(14) 1.2638(14) 0.4144(6)
C55A C 0.6170(12) 1.3047(12) 0.3929(6)
N7A N 0.5802(11) 1.3359(11) 0.3745(5)
C180A C 0.739(2) 1.2899(19) 0.4231(9)
N15A N 0.807(2) 1.3098(19) 0.4302(9)
C58A C 0.5362(12) 1.1717(12) 0.4261(5)
C22A C 0.4998(12) 1.1064(11) 0.4416(5)
H9A H 0.4449 1.0916 0.4384
H32A H 0.5056 1.2000 0.4128
H20A H 0.7180 1.1646 0.4549
C198A C 0.4242(11) 0.9618(10) 0.4607(5)
N20A N 0.3619(11) 0.9460(11) 0.4457(5)
C199A C 0.5537(11) 0.9333(11) 0.4795(5)
N19A N 0.5969(11) 0.8960(10) 0.4813(5)
N10A N 0.6988(11) 0.7366(10) 1.2060(5)
C13A C 0.7567(12) 0.7712(12) 1.1976(5)
C24A C 0.8253(13) 0.8104(13) 1.1874(6)
C41A C 0.8455(13) 0.7942(13) 1.1533(6)
N14A N 0.8106(12) 0.6519(11) 0.8356(5)
C64A C 0.7935(14) 0.7401(13) 1.1288(6)
H38A H 0.7444 0.7167 1.1349
C88A C 0.8782(16) 0.8640(15) 1.2102(7)
C106A C 0.8602(15) 0.6863(14) 0.8533(7)
C139A C 0.8310(18) 0.7289(17) 0.9610(8)
H106A H 0.7815 0.7106 0.9680
N16A N 1.057(2) 0.8026(19) 0.8574(9)
C147A C 0.9159(18) 0.7396(17) 0.9149(8)
N17A N 0.9209(18) 0.9082(17) 1.2294(8)
C153A C 0.8126(16) 0.7207(16) 1.0967(7)
H120A H 0.7770 0.6848 1.0814
C155A C 0.995(2) 0.7661(19) 0.8666(9)
C157A C 0.8908(17) 0.7761(16) 0.9846(8)
C162A C 0.8446(17) 0.7099(16) 0.9285(8)
H126A H 0.8050 0.6756 0.9142
C163A C 0.9272(17) 0.7300(16) 0.8773(8)
C167A C 0.977(2) 0.7818(19) 0.9396(9)
H132A H 1.0273 0.7977 0.9333
C175A C 0.962(2) 0.8001(19) 0.9737(9)
H143A H 1.0031 0.8297 0.9892
C200A C 0.8634(16) 0.6598(16) 1.0379(7)
C201A C 0.9017(15) 0.7380(15) 1.0493(7)
C202A C 0.9182(15) 0.8253(14) 1.1420(7)
H166A H 0.9559 0.8587 1.1575
C203A C 0.8851(15) 0.7550(14) 1.0871(7)
C204A C 0.9366(16) 0.8094(15) 1.1099(7)
H167A H 0.9840 0.8351 1.1030
C205A C 0.8772(17) 0.7957(16) 1.0220(8)
C210A C 0.7914(19) 0.7936(17) 1.0220(8)
C211A C 0.920(2) 0.868(2) 1.0319(9)
N18A N 0.956(3) 0.931(2) 1.0412(11)
N22A N 0.8272(15) 0.5986(15) 1.0283(7)
N23A N 1.0531(18) 0.7451(16) 1.0518(8)
C213A C 0.9882(19) 0.7407(17) 1.0510(8)
N24A N 0.725(2) 0.7919(18) 1.0240(9)
Mn1A Mn 0.60085(18) 0.66499(17) 1.22325(8)
Mn2A Mn 0.52170(18) 1.39902(17) 0.33767(8)
Mn4A Mn 0.28660(19) 0.42058(19) 1.19800(8)
C5A C 0.5906(10) 0.4901(10) 1.2118(5)
N3A N 0.6023(11) 0.5521(11) 1.2175(5)
N5A N 0.4934(11) 0.6777(11) 1.1976(5)
C42A C 0.4340(12) 0.6898(11) 1.1911(5)
N9A N 0.6047(10) 0.6895(10) 1.2754(5)
C47A C 0.6130(11) 0.6921(11) 1.3058(5)
C3A C 0.3391(11) 1.3789(10) 0.3383(5)
N1A N 0.4025(10) 1.3845(9) 0.3427(4)
C7A C 0.5864(10) 1.5732(10) 0.3533(4)
N8A N 0.5745(10) 1.5124(9) 0.3472(4)
C10A C 0.5427(10) 1.3694(10) 0.2579(4)
N12A N 0.5290(10) 1.3717(10) 0.2855(5)
C9A C 0.2399(10) 0.3785(9) 1.2736(4)
N6A N 0.2552(11) 0.3795(11) 1.2454(5)
C4A C 0.2830(12) 0.5842(12) 1.1781(5)
N13A N 0.2673(11) 0.5246(11) 1.1808(5)
C207A C 0.4229(17) 0.5243(16) 1.2663(7)
H168A H 0.4508 0.5765 1.2686
H169A H 0.3903 0.5134 1.2848
H170A H 0.4602 0.4923 1.2679
O1A O 0.3788(18) 0.5117(18) 1.2356(6)
C11A C 0.4469(11) 0.3791(10) 1.1924(5)
N21A N 0.3860(11) 0.3874(10) 1.1858(5)
Re1A Re 0.56473(5) 0.37121(5) 1.20562(2)
Re2A Re 0.32004(5) 0.70489(5) 1.17964(2)
Re3A Re 0.21858(5) 1.37667(5) 0.32566(2)
Re4A Re 0.61121(5) 1.69246(5) 0.36032(2)
P3A P 0.5448(4) 0.2349(3) 1.19993(15)
P6A P 0.5880(3) 0.3658(3) 1.14481(14)
P10A P 0.7038(3) 0.3762(3) 1.22310(14)
C17A C 0.7763(13) 0.4589(12) 1.2121(6)
C25A C 0.6021(12) 0.4550(12) 1.1211(6)
C27A C 0.7354(12) 0.3758(12) 1.2712(5)
C36A C 0.5592(13) 0.1782(13) 1.2393(6)
C39A C 0.5612(13) 0.5715(13) 1.1068(6)
H16A H 0.5272 0.6037 1.1090
C49A C 0.8157(13) 0.5756(13) 1.1821(6)
H23A H 0.8021 0.6101 1.1659
C57A C 0.8557(14) 0.4705(14) 1.2290(7)
H31A H 0.8691 0.4352 1.2448
C59A C 0.6916(15) 0.2656(14) 1.1677(7)
C63A C 0.5578(13) 0.5052(12) 1.1270(6)
H37A H 0.5246 0.4965 1.1444
C68A C 0.7345(14) 0.2950(13) 1.2043(6)
H40A H 0.7264 0.2539 1.2205
H41A H 0.7907 0.3096 1.2029
C72A C 0.6569(15) 0.4726(14) 1.0958(7)
H45A H 0.6894 0.4397 1.0921
C74A C 0.7715(14) 0.3222(14) 1.2878(7)
H47A H 0.7820 0.2831 1.2744
C79A C 0.7429(14) 0.4404(14) 1.3283(6)
H51A H 0.7346 0.4803 1.3419
C84A C 0.8923(15) 0.5870(14) 1.1987(6)
H57A H 0.9302 0.6295 1.1945
C89A C 0.7206(15) 0.4348(15) 1.2918(7)
H62A H 0.6958 0.4706 1.2808
C92A C 0.6119(15) 0.2070(15) 1.1707(7)
H64A H 0.5829 0.1958 1.1471
H65A H 0.6248 0.1602 1.1791
C97A C 0.5900(13) 0.2111(13) 1.2717(6)
H69A H 0.6080 0.2635 1.2743
C99A C 0.5950(13) 0.1668(13) 1.3011(6)
H70A H 0.6132 0.1899 1.3235
C103A C 0.7579(14) 0.5124(12) 1.1894(6)
H74A H 0.7062 0.5068 1.1785
C104A C 0.6619(16) 0.5357(15) 1.0776(8)
H75A H 0.6958 0.5458 1.0605
C117A C 0.7918(15) 0.3269(15) 1.3242(7)
H87A H 0.8154 0.2904 1.3352
C121A C 0.5319(16) 0.2581(15) 1.0863(7)
H90A H 0.5841 0.2550 1.0858
C129A C 0.5743(17) 0.0934(17) 1.2975(8)
H98A H 0.5798 0.0649 1.3174
C133A C 0.6159(16) 0.5854(16) 1.0844(7)
H101A H 0.6230 0.6310 1.0730
C134A C 0.7778(16) 0.3845(16) 1.3441(8)
H102A H 0.7917 0.3866 1.3685
C136A C 0.9123(16) 0.5312(15) 1.2228(7)
H104A H 0.9638 0.5369 1.2340
C140A C 0.6783(14) 0.3292(13) 1.1423(6)
H107A H 0.7238 0.3715 1.1470
H108A H 0.6767 0.3103 1.1182
C154A C 0.5146(15) 0.3034(14) 1.1117(7)
C158A C 0.4369(16) 0.3064(15) 1.1109(7)
H122A H 0.4233 0.3374 1.1276
C159A C 0.4734(19) 0.2168(18) 1.0614(9)
H123A H 0.4859 0.1863 1.0441
C164A C 0.538(2) 0.101(2) 1.2359(10)
H127A H 0.5179 0.0773 1.2138
C168A C 0.3981(19) 0.2209(17) 1.0622(8)
H133A H 0.3589 0.1921 1.0456
C172A C 0.7450(18) 0.2220(17) 1.1510(8)
H138A H 0.7587 0.1850 1.1671
H139A H 0.7174 0.1969 1.1292
H140A H 0.7922 0.2569 1.1465
C178A C 0.3776(18) 0.2642(17) 1.0857(8)
H146A H 0.3251 0.2667 1.0855
C193A C 0.545(3) 0.056(3) 1.2656(13)
H162A H 0.5300 0.0035 1.2636
C206A C 0.4473(16) 0.1858(15) 1.1805(7)
C208A C 0.3857(18) 0.1999(18) 1.1957(9)
H171A H 0.3963 0.2325 1.2157
C209A C 0.4313(18) 0.1363(16) 1.1513(8)
H172A H 0.4727 0.1235 1.1413
C212A C 0.351(2) 0.104(2) 1.1362(11)
H173A H 0.3384 0.0736 1.1156
C214A C 0.296(2) 0.121(2) 1.1538(11)
H174A H 0.2435 0.0989 1.1452
C215A C 0.309(3) 0.168(3) 1.1828(12)
H175A H 0.2672 0.1784 1.1935
P2A P 0.3273(4) 0.7123(4) 1.11672(16)
P4A P 0.1855(3) 0.7181(4) 1.16620(16)
P8A P 0.3577(3) 0.8418(3) 1.18295(15)
C52A C 0.1357(14) 0.6613(14) 1.2297(6)
H26A H 0.1591 0.6217 1.2245
C67A C 0.1328(14) 0.7213(14) 1.2049(6)
C76A C 0.0710(17) 0.7174(17) 1.2684(8)
H49A H 0.0521 0.7174 1.2901
C90A C 0.3216(15) 0.8970(14) 1.2159(7)
C94A C 0.0928(15) 0.7758(15) 1.2134(7)
H66A H 0.0862 0.8127 1.1972
C98A C 0.4613(15) 0.8821(14) 1.1917(7)
C113A C 0.0627(16) 0.7772(16) 1.2448(7)
H82A H 0.0379 0.8153 1.2505
C114A C 0.3237(16) 0.8785(15) 1.1409(7)
H83A H 0.3649 0.8817 1.1259
H84A H 0.3183 0.9298 1.1455
C116A C 0.2778(14) 0.8655(14) 1.2407(6)
H86A H 0.2636 0.8129 1.2411
C118A C 0.3032(16) 0.6232(15) 1.0903(7)
C123A C 0.1044(14) 0.6629(14) 1.2601(7)
H92A H 0.1068 0.6240 1.2757
C125A C 0.1260(17) 0.5861(16) 1.1227(7)
H94A H 0.1780 0.5809 1.1250
C131A C 0.2457(15) 0.8345(15) 1.1197(7)
C132A C 0.0310(15) 0.6557(15) 1.1346(7)
H100A H 0.0163 0.6969 1.1445
C135A C -0.0243(19) 0.5959(17) 1.1144(8)
H103A H -0.0770 0.5991 1.1118
C137A C 0.2529(17) 0.9079(16) 1.2656(8)
H105A H 0.2225 0.8832 1.2821
C138A C 0.1101(15) 0.6475(14) 1.1383(7)
C143A C 0.4922(15) 0.7766(14) 1.1222(7)
H111A H 0.4916 0.7793 1.1465
C144A C 0.4237(16) 0.7520(16) 1.1007(7)
C145A C 0.5031(17) 0.9357(17) 1.1720(8)
H112A H 0.4772 0.9557 1.1529
C146A C 0.2718(17) 0.9837(17) 1.2664(8)
H113A H 0.2510 1.0115 1.2819
C148A C -0.0082(19) 0.5360(18) 1.0987(8)
H114A H -0.0472 0.4998 1.0852
C149A C 0.3442(17) 0.5689(16) 1.1016(8)
H115A H 0.3812 0.5792 1.1218
C152A C 0.2607(16) 0.7693(15) 1.0967(7)
H118A H 0.2100 0.7353 1.0888
H119A H 0.2812 0.7910 1.0758
C156A C 0.5027(15) 0.8571(15) 1.2225(7)
H121A H 0.4744 0.8243 1.2372
C161A C 0.585(2) 0.8807(19) 1.2309(10)
H125A H 0.6105 0.8619 1.2506
C169A C 0.1817(16) 0.8076(15) 1.1440(7)
H134A H 0.1863 0.8472 1.1621
H135A H 0.1303 0.8016 1.1300
C170A C 0.5637(17) 0.7981(16) 1.1091(8)
H136A H 0.6100 0.8144 1.1247
C177A C 0.628(3) 0.932(2) 1.2100(11)
H145A H 0.6828 0.9475 1.2152
C179A C 0.332(2) 0.500(2) 1.0836(9)
H147A H 0.3588 0.4632 1.0914
C183A C 0.589(2) 0.961(2) 1.1814(11)
H150A H 0.6169 0.9969 1.1679
C184A C 0.255(2) 0.611(2) 1.0588(9)
H151A H 0.2299 0.6484 1.0500
C185A C 0.274(3) 0.487(3) 1.0517(12)
H152A H 0.2608 0.4399 1.0398
C187A C 0.345(2) 0.975(2) 1.2173(10)
H154A H 0.3762 0.9988 1.2008
C188A C 0.2166(18) 0.8874(17) 1.0941(8)
H155A H 0.2567 0.9073 1.0797
H156A H 0.1698 0.8606 1.0794
H157A H 0.2045 0.9284 1.1070
C189A C 0.504(2) 0.774(2) 1.0535(10)
H158A H 0.5071 0.7730 1.0294
C190A C 0.069(2) 0.531(2) 1.1037(9)
H159A H 0.0827 0.4893 1.0939
C191A C 0.322(2) 1.020(2) 1.2442(11)
H160A H 0.3411 1.0726 1.2463
C192A C 0.429(2) 0.753(2) 1.0645(10)
H161A H 0.3835 0.7387 1.0480
C194A C 0.242(3) 0.542(2) 1.0398(12)
H163A H 0.2088 0.5345 1.0182
C195A C 0.567(3) 0.796(2) 1.0751(11)
H164A H 0.6154 0.8098 1.0667
N11A N 0.3226(11) 0.6947(10) 1.2640(5)
C31A C 0.3173(12) 0.7023(12) 1.2347(6)
P5A P 0.1952(3) 1.3690(3) 0.38663(13)
P7A P 0.0820(3) 1.3813(3) 0.31054(13)
P11A P 0.1766(3) 1.2401(3) 0.32409(14)
C8A C 0.0459(11) 1.4615(11) 0.3271(5)
C18A C 0.2840(13) 1.5109(12) 0.4101(6)
H8A H 0.3149 1.5032 0.3930
C19A C 0.2183(12) 1.4573(12) 0.4150(5)
C30A C 0.2507(13) 1.3092(12) 0.4158(6)
C34A C 0.0904(14) 1.4421(13) 0.2452(6)
H12A H 0.1322 1.4774 0.2576
C35A C 0.0478(12) 1.3834(12) 0.2625(6)
C40A C 0.1313(14) 1.1845(14) 0.2836(7)
C45A C 0.0945(14) 1.5180(13) 0.3499(6)
H19A H 0.1453 1.5141 0.3590
C50A C -0.0086(15) 1.5879(15) 0.3456(7)
H24A H -0.0273 1.6298 0.3520
C56A C 0.1012(14) 1.2085(13) 0.3533(6)
H29A H 0.1277 1.1969 0.3759
H30A H 0.0668 1.1616 0.3431
C61A C 0.0150(15) 1.2985(14) 0.3259(7)
H34A H 0.0024 1.2587 0.3074
H35A H -0.0339 1.3128 0.3293
C62A C 0.0654(15) 1.5817(14) 0.3592(7)
H36A H 0.0972 1.6196 0.3747
C65A C 0.3363(14) 1.2224(13) 0.4537(6)
H39A H 0.3658 1.1916 0.4659
C70A C 0.3035(14) 1.5768(14) 0.4311(6)
H43A H 0.3477 1.6138 0.4276
C73A C 0.1952(15) 1.5348(14) 0.4626(7)
H46A H 0.1657 1.5414 0.4806
C75A C 0.1743(15) 1.4682(14) 0.4404(6)
H48A H 0.1295 1.4314 0.4434
C77A C 0.0477(14) 1.2657(14) 0.3608(6)
C81A C 0.2604(15) 1.5898(15) 0.4570(7)
H54A H 0.2746 1.6349 0.4707
C83A C 0.2105(14) 1.2517(13) 0.4347(6)
H56A H 0.1560 1.2427 0.4344
C91A C 0.3309(12) 1.3234(12) 0.4169(6)
H63A H 0.3570 1.3632 0.4047
C100A C 0.2573(14) 1.1921(14) 0.3362(7)
C101A C 0.0701(16) 1.4481(16) 0.2087(7)
H71A H 0.0963 1.4885 0.1967
C102A C 0.0919(13) 1.3292(13) 0.3891(6)
H72A H 0.0643 1.3702 0.3874
H73A H 0.0876 1.3087 0.4124
C107A C 0.3178(15) 1.2080(15) 0.3154(7)
H76A H 0.3153 1.2421 0.2975
C108A C -0.0294(15) 1.4713(15) 0.3138(7)
H77A H -0.0629 1.4345 0.2983
C109A C -0.0139(14) 1.3300(14) 0.2452(6)
H78A H -0.0430 1.2914 0.2572
C111A C 0.2574(14) 1.2069(14) 0.4548(7)
H80A H 0.2340 1.1680 0.4683
C115A C 0.0087(17) 1.3910(16) 0.1906(8)
H85A H -0.0032 1.3921 0.1661
C119A C -0.0315(18) 1.3369(17) 0.2074(8)
H88A H -0.0728 1.3015 0.1947
C122A C 0.2614(17) 1.1421(16) 0.3638(8)
H91A H 0.2219 1.1315 0.3782
C126A C 0.1167(16) 1.2143(16) 0.2513(7)
H95A H 0.1276 1.2668 0.2501
C127A C 0.3730(15) 1.2781(14) 0.4365(6)
H96A H 0.4277 1.2874 0.4374
C130A C -0.0541(18) 1.5343(16) 0.3234(8)
H99A H -0.1042 1.5397 0.3140
C141A C 0.3264(17) 1.1087(17) 0.3690(8)
H109A H 0.3303 1.0748 0.3869
C166A C -0.0245(17) 1.2165(17) 0.3762(8)
H129A H -0.0537 1.1788 0.3586
H130A H -0.0060 1.1920 0.3967
H131A H -0.0580 1.2484 0.3826
C171A C 0.1146(19) 1.1036(19) 0.2855(9)
H137A H 0.1248 1.0820 0.3071
C174A C 0.3824(17) 1.1741(16) 0.3208(7)
H142A H 0.4228 1.1837 0.3067
C176A C 0.0864(18) 1.1709(18) 0.2199(9)
H144A H 0.0774 1.1943 0.1987
C181A C 0.082(3) 1.056(3) 0.2546(13)
H148A H 0.0699 1.0033 0.2559
C182A C 0.070(2) 1.091(2) 0.2211(12)
H149A H 0.0507 1.0615 0.2004
C186A C 0.3824(18) 1.1253(16) 0.3484(8)
H153A H 0.4251 1.1024 0.3529
C6A C 0.2496(10) 1.4970(10) 0.3241(4)
N4A N 0.2633(10) 1.5569(10) 0.3179(4)
P1A P 0.7518(3) 1.7037(3) 0.37621(13)
P9A P 0.6057(3) 1.6950(3) 0.42357(13)
P12A P 0.6394(4) 1.8294(3) 0.36365(14)
C12A C 0.5393(13) 1.5455(12) 0.4326(6)
H5A H 0.5076 1.5501 0.4115
C14A C 0.7798(13) 1.6523(12) 0.3119(6)
H6A H 0.7374 1.6128 0.3148
C20A C 0.5551(13) 1.8749(13) 0.3545(6)
C21A C 0.5953(11) 1.6055(11) 0.4468(5)
C23A C 0.8076(12) 1.7081(12) 0.3389(5)
C26A C 0.5051(13) 1.8537(13) 0.3238(6)
H10A H 0.5155 1.8174 0.3087
C29A C 0.5265(11) 1.7279(11) 0.4405(5)
C33A C 0.5092(12) 1.7157(12) 0.4749(5)
H11A H 0.5412 1.6919 0.4901
C37A C 0.7429(14) 1.5662(12) 0.4100(6)
H13A H 0.6887 1.5585 0.4034
C38A C 0.6856(13) 1.8668(12) 0.4079(6)
H14A H 0.6440 1.8680 0.4223
H15A H 0.7138 1.9188 0.4060
C43A C 0.3986(13) 1.7707(12) 0.4664(6)
H17A H 0.3560 1.7841 0.4750
C44A C 0.6429(13) 1.5996(13) 0.4787(6)
H18A H 0.6817 1.6408 0.4888
C48A C 0.6976(12) 1.7559(12) 0.4474(6)
H21A H 0.7335 1.7234 0.4547
H22A H 0.6844 1.7766 0.4688
C51A C 0.4751(12) 1.7646(11) 0.4182(5)
H25A H 0.4837 1.7744 0.3950
C53A C 0.4469(12) 1.7373(12) 0.4873(6)
H27A H 0.4381 1.7285 0.5105
C54A C 0.4118(13) 1.7856(13) 0.4316(6)
H28A H 0.3785 1.8097 0.4172
C60A C 0.5742(15) 1.4693(15) 0.4799(7)
H33A H 0.5675 1.4233 0.4910
C66A C 0.7022(15) 1.8858(14) 0.3344(7)
C69A C 0.8737(13) 1.7642(13) 0.3339(6)
H42A H 0.8958 1.8004 0.3521
C71A C 0.8549(16) 1.5198(16) 0.4359(7)
H44A H 0.8764 1.4819 0.4468
C78A C 0.5286(15) 1.4759(14) 0.4493(7)
H50A H 0.4901 1.4345 0.4393
C80A C 0.7933(13) 1.7928(12) 0.4028(6)
H52A H 0.8090 1.8322 0.3865
H53A H 0.8413 1.7865 0.4171
C82A C 0.6303(14) 1.5307(13) 0.4946(7)
H55A H 0.6609 1.5258 0.5160
C85A C 0.7339(14) 1.8543(14) 0.3083(6)
H58A H 0.7212 1.8018 0.3048
C87A C 0.7956(15) 1.8757(14) 0.4551(7)
H59A H 0.8310 1.9136 0.4440
H60A H 0.7642 1.8997 0.4684
H61A H 0.8256 1.8481 0.4707
C93A C 0.7904(13) 1.6320(12) 0.4016(6)
C95A C 0.7723(14) 1.5104(13) 0.4278(6)
H67A H 0.7382 1.4673 0.4344
C96A C 0.8125(14) 1.6535(14) 0.2816(6)
H68A H 0.7922 1.6157 0.2639
C105A C 0.7437(12) 1.8233(12) 0.4279(6)
C110A C 0.8758(15) 1.7110(14) 0.2769(7)
H79A H 0.8981 1.7122 0.2560
C112A C 0.4220(16) 1.9336(15) 0.3375(7)
H81A H 0.3757 1.9508 0.3323
C120A C 0.9069(15) 1.7677(15) 0.3035(7)
H89A H 0.9494 1.8069 0.3004
C124A C 0.5370(16) 1.9311(15) 0.3778(7)
H93A H 0.5699 1.9482 0.3988
C128A C 0.8738(15) 1.6440(14) 0.4098(7)
H97A H 0.9067 1.6881 0.4035
C142A C 0.9046(17) 1.5890(15) 0.4272(7)
H110A H 0.9589 1.5970 0.4334
C150A C 0.7833(15) 1.8963(15) 0.2874(7)
H116A H 0.8051 1.8726 0.2706
C151A C 0.4398(15) 1.8838(14) 0.3141(7)
H117A H 0.4088 1.8706 0.2922
C160A C 0.756(2) 2.007(2) 0.3145(10)
H124A H 0.7612 2.0589 0.3133
C165A C 0.712(2) 1.9678(19) 0.3369(9)
H128A H 0.6891 1.9915 0.3532
C173A C 0.4712(17) 1.9585(16) 0.3684(8)
H141A H 0.4593 1.9946 0.3831
C196A C 0.799(3) 1.967(3) 0.2911(12)
H165A H 0.8372 1.9951 0.2791
N2A N 0.4249(10) 1.6753(10) 0.3397(5)
C28A C 0.4897(11) 1.6849(11) 0.3475(5)
Mn3A Mn 0.31143(19) 1.67075(19) 0.31608(8)
N25A N 0.2511(9) 1.7437(8) 0.3433(4)
C216A C 0.159(3) 1.807(2) 0.3667(12)
C217A C 0.131(2) 1.866(2) 0.3444(11)
N26A N 0.098(2) 1.9160(19) 0.3294(9)
C218A C 0.222(3) 1.762(3) 0.3512(13)
C219A C 0.168(2) 1.748(2) 0.4274(10)
H176A H 0.2096 1.7294 0.4207
C220A C 0.047(3) 1.799(3) 0.4469(12)
H177A H 0.0104 1.8253 0.4528
C221A C 0.081(3) 1.756(3) 0.4688(16)
N27A N 0.013(3) 1.587(3) 0.5151(13)
C222A C 0.031(4) 1.647(5) 0.517(2)
C223A C 0.056(4) 1.737(4) 0.506(2)
H178A H 0.1039 1.7583 0.5228
N28A N -0.060(5) 1.765(6) 0.507(3)
C224A C -0.015(5) 1.774(5) 0.520(2)
C225A C 0.151(3) 1.736(2) 0.4625(11)
H179A H 0.1832 1.7164 0.4796
C226A C 0.075(2) 1.799(2) 0.4115(11)
H180A H 0.0401 1.8137 0.3938
C227A C 0.128(3) 1.786(2) 0.4014(12)
Re4A_2 Re 0.61121(5) 0.69246(5) 1.36032(2)
Re1A_2 Re 0.56473(5) 1.37121(5) 0.20562(2)
Re3A_2 Re 0.21858(5) 0.37667(5) 1.32566(2)
C10A_2 C 0.5427(10) 0.3694(10) 1.2579(4)
C9A_2 C 0.2399(10) 1.3785(9) 0.2736(4)
C47A_2 C 0.6130(11) 1.6921(11) 0.3058(5)
Mn3A_2 Mn 0.31143(19) 0.67075(19) 1.31608(8)
N11A_2 N 0.3226(11) 1.6947(10) 0.2640(5)
Cl1 Cl 0.4407(8) 0.5943(8) 0.9979(4)
Cl2 Cl 0.6067(9) 0.6231(8) 0.9922(4)
C1 C 0.5150(19) 0.590(2) 0.9732(9)
H1 H 0.5097 0.5370 0.9660
H2 H 0.5067 0.6171 0.9518
loop_
_geom_bond_atom_site_label_1
_geom_bond_atom_site_label_2
_geom_bond_site_symmetry_1
_geom_bond_site_symmetry_2
Cl1 C1 1_555 1_555
Cl2 C1 1_555 1_555
C1 H1 1_555 1_555
H2 C1 1_555 1_555
Cl3 C2 1_555 1_555
C2 H3 1_555 1_555
H4 C2 1_555 1_555
Cl4 C2 1_555 1_555
Re1 P3 1_555 1_555
Re2 P2 1_555 1_555
Re3 P5 1_555 1_555
Re4 P1 1_555 1_555
Mn1 N3 1_555 1_555
Mn2 N1 1_555 1_555
Mn3 N2 1_555 1_555
Mn4 N6 1_555 1_555
P1 C23 1_555 1_555
P2 C118 1_555 1_555
P3 C36 1_555 1_555
P4 Re2 1_555 1_555
P5 C19 1_555 1_555
P6 Re1 1_555 1_555
P7 Re3 1_555 1_555
P8 Re2 1_555 1_555
P9 Re4 1_555 1_555
P10 Re1 1_555 1_555
P11 Re3 1_555 1_555
C3 Re3 1_555 1_555
P12 Re4 1_555 1_555
N1 C3 1_555 1_555
C4 Re2 1_555 1_555
C5 Re1 1_555 1_555
C6 Re3 1_555 1_555
N2 C28 1_555 1_555
C7 Re4 1_555 1_555
N3 C5 1_555 1_555
N4 Mn3 1_555 1_555
C8 P7 1_555 1_555
C9 Re3 1_555 1_555
N5 Mn1 1_555 1_555
N6 C9 1_555 1_555
N7 Mn2 1_555 1_555
N8 Mn2 1_555 1_555
N9 Mn1 1_555 1_555
C10 Re1 1_555 1_555
C11 Re1 1_555 1_555
C12 H5 1_555 1_555
N10 Mn1 1_555 1_555
C13 N10 1_555 1_555
C14 H6 1_555 1_555
C15 C16 1_555 1_555
C16 H7 1_555 1_555
C17 P10 1_555 1_555
C18 H8 1_555 1_555
C19 C18 1_555 1_555
C20 P12 1_555 1_555
C21 P9 1_555 1_555
C22 C15 1_555 1_555
H9 C22 1_555 1_555
C23 C14 1_555 1_555
C24 C13 1_555 1_555
C25 P6 1_555 1_555
C26 C20 1_555 1_555
H10 C26 1_555 1_555
N11 Mn3 1_555 1_555
C27 P10 1_555 1_555
C28 Re4 1_555 1_555
C29 P9 1_555 1_555
C30 P5 1_555 1_555
C31 Re2 1_555 1_555
C32 C46 1_555 1_555
C33 C29 1_555 1_555
H11 C33 1_555 1_555
C34 H12 1_555 1_555
N12 Mn2 1_555 1_555
C35 P7 1_555 1_555
C36 C97 1_555 1_555
C37 H13 1_555 1_555
C38 P12 1_555 1_555
H14 C38 1_555 1_555
H15 C38 1_555 1_555
C39 H16 1_555 1_555
C40 P11 1_555 1_555
C41 C24 1_555 1_555
C42 Re2 1_555 1_555
C43 H17 1_555 1_555
C44 C21 1_555 1_555
H18 C44 1_555 1_555
C45 C8 1_555 1_555
H19 C45 1_555 1_555
C46 C16 1_555 1_555
H20 C46 1_555 1_555
C47 Re4 1_555 1_555
C48 P9 1_555 1_555
H21 C48 1_555 1_555
H22 C48 1_555 1_555
C49 H23 1_555 1_555
C50 H24 1_555 1_555
C51 C29 1_555 1_555
H25 C51 1_555 1_555
C52 H26 1_555 1_555
C53 C33 1_555 1_555
H27 C53 1_555 1_555
C54 C43 1_555 1_555
H28 C54 1_555 1_555
C55 N7 1_555 1_555
C56 P11 1_555 1_555
H29 C56 1_555 1_555
H30 C56 1_555 1_555
C57 C17 1_555 1_555
H31 C57 1_555 1_555
C58 C22 1_555 1_555
H32 C58 1_555 1_555
N13 Mn4 1_555 1_555
C59 C68 1_555 1_555
C60 H33 1_555 1_555
C61 P7 1_555 1_555
H34 C61 1_555 1_555
H35 C61 1_555 1_555
N14 C106 1_555 1_555
C62 C45 1_555 1_555
H36 C62 1_555 1_555
C63 C25 1_555 1_555
H37 C63 1_555 1_555
C64 C41 1_555 1_555
H38 C64 1_555 1_555
C65 H39 1_555 1_555
C66 P12 1_555 1_555
C67 P4 1_555 1_555
C68 P10 1_555 1_555
H40 C68 1_555 1_555
H41 C68 1_555 1_555
C69 C23 1_555 1_555
H42 C69 1_555 1_555
C70 C18 1_555 1_555
H43 C70 1_555 1_555
C71 H44 1_555 1_555
C72 C25 1_555 1_555
H45 C72 1_555 1_555
C73 H46 1_555 1_555
C74 C27 1_555 1_555
H47 C74 1_555 1_555
C75 C19 1_555 1_555
H48 C75 1_555 1_555
C76 H49 1_555 1_555
C77 C56 1_555 1_555
C78 C12 1_555 1_555
H50 C78 1_555 1_555
C79 H51 1_555 1_555
C80 P1 1_555 1_555
H52 C80 1_555 1_555
H53 C80 1_555 1_555
C81 C70 1_555 1_555
H54 C81 1_555 1_555
C82 C44 1_555 1_555
H55 C82 1_555 1_555
C83 C30 1_555 1_555
H56 C83 1_555 1_555
C84 C49 1_555 1_555
H57 C84 1_555 1_555
C85 C66 1_555 1_555
H58 C85 1_555 1_555
C86 C32 1_555 1_555
C87 H59 1_555 1_555
H60 C87 1_555 1_555
H61 C87 1_555 1_555
C88 C24 1_555 1_555
C89 C27 1_555 1_555
H62 C89 1_555 1_555
C90 P8 1_555 1_555
C91 C30 1_555 1_555
H63 C91 1_555 1_555
C92 P3 1_555 1_555
H64 C92 1_555 1_555
H65 C92 1_555 1_555
C93 P1 1_555 1_555
C94 C67 1_555 1_555
H66 C94 1_555 1_555
C95 C37 1_555 1_555
H67 C95 1_555 1_555
C96 C14 1_555 1_555
H68 C96 1_555 1_555
C97 H69 1_555 1_555
C98 P8 1_555 1_555
C99 C97 1_555 1_555
H70 C99 1_555 1_555
C100 P11 1_555 1_555
C101 C34 1_555 1_555
H71 C101 1_555 1_555
C102 P5 1_555 1_555
H72 C102 1_555 1_555
H73 C102 1_555 1_555
C103 C17 1_555 1_555
H74 C103 1_555 1_555
C104 C72 1_555 1_555
H75 C104 1_555 1_555
C105 C38 1_555 1_555
C106 C163 1_555 1_555
C107 C100 1_555 1_555
H76 C107 1_555 1_555
C108 C8 1_555 1_555
H77 C108 1_555 1_555
C109 C35 1_555 1_555
H78 C109 1_555 1_555
C110 C96 1_555 1_555
H79 C110 1_555 1_555
C111 C65 1_555 1_555
H80 C111 1_555 1_555
C112 H81 1_555 1_555
C113 C76 1_555 1_555
H82 C113 1_555 1_555
C114 P8 1_555 1_555
H83 C114 1_555 1_555
H84 C114 1_555 1_555
C115 C101 1_555 1_555
H85 C115 1_555 1_555
C116 C90 1_555 1_555
H86 C116 1_555 1_555
C117 C74 1_555 1_555
H87 C117 1_555 1_555
C118 C149 1_555 1_555
C119 C109 1_555 1_555
H88 C119 1_555 1_555
C120 C69 1_555 1_555
H89 C120 1_555 1_555
C121 H90 1_555 1_555
C122 C100 1_555 1_555
H91 C122 1_555 1_555
C123 C52 1_555 1_555
H92 C123 1_555 1_555
C124 C20 1_555 1_555
H93 C124 1_555 1_555
C125 H94 1_555 1_555
C126 C40 1_555 1_555
H95 C126 1_555 1_555
C127 C65 1_555 1_555
H96 C127 1_555 1_555
C128 C93 1_555 1_555
H97 C128 1_555 1_555
C129 C99 1_555 1_555
H98 C129 1_555 1_555
C130 C50 1_555 1_555
H99 C130 1_555 1_555
C131 C114 1_555 1_555
C132 H100 1_555 1_555
C133 C39 1_555 1_555
H101 C133 1_555 1_555
C134 C79 1_555 1_555
H102 C134 1_555 1_555
C135 C132 1_555 1_555
H103 C135 1_555 1_555
C136 C57 1_555 1_555
H104 C136 1_555 1_555
C137 C116 1_555 1_555
H105 C137 1_555 1_555
C138 P4 1_555 1_555
C139 H106 1_555 1_555
C140 P6 1_555 1_555
H107 C140 1_555 1_555
H108 C140 1_555 1_555
C141 C122 1_555 1_555
H109 C141 1_555 1_555
C142 C71 1_555 1_555
H110 C142 1_555 1_555
C143 H111 1_555 1_555
N15 C180 1_555 1_555
N16 C155 1_555 1_555
C144 P2 1_555 1_555
C145 C98 1_555 1_555
H112 C145 1_555 1_555
C146 C137 1_555 1_555
H113 C146 1_555 1_555
C147 C162 1_555 1_555
C148 C135 1_555 1_555
H114 C148 1_555 1_555
C149 H115 1_555 1_555
C150 C85 1_555 1_555
H116 C150 1_555 1_555
C151 C26 1_555 1_555
H117 C151 1_555 1_555
N17 C88 1_555 1_555
C152 P2 1_555 1_555
H118 C152 1_555 1_555
H119 C152 1_555 1_555
C153 C64 1_555 1_555
H120 C153 1_555 1_555
C154 P6 1_555 1_555
C155 C163 1_555 1_555
C156 C98 1_555 1_555
H121 C156 1_555 1_555
C157 C139 1_555 1_555
C158 C154 1_555 1_555
H122 C158 1_555 1_555
C159 C121 1_555 1_555
H123 C159 1_555 1_555
C160 H124 1_555 1_555
C161 C156 1_555 1_555
H125 C161 1_555 1_555
C162 C139 1_555 1_555
H126 C162 1_555 1_555
C163 C147 1_555 1_555
C164 C36 1_555 1_555
H127 C164 1_555 1_555
C165 C66 1_555 1_555
H128 C165 1_555 1_555
C166 C77 1_555 1_555
H129 C166 1_555 1_555
H130 C166 1_555 1_555
H131 C166 1_555 1_555
C167 C147 1_555 1_555
H132 C167 1_555 1_555
C168 C159 1_555 1_555
H133 C168 1_555 1_555
C169 P4 1_555 1_555
H134 C169 1_555 1_555
H135 C169 1_555 1_555
C170 C143 1_555 1_555
H136 C170 1_555 1_555
C171 C40 1_555 1_555
H137 C171 1_555 1_555
C172 C59 1_555 1_555
H138 C172 1_555 1_555
H139 C172 1_555 1_555
H140 C172 1_555 1_555
C173 C112 1_555 1_555
H141 C173 1_555 1_555
C174 C107 1_555 1_555
H142 C174 1_555 1_555
C175 C157 1_555 1_555
H143 C175 1_555 1_555
C176 C126 1_555 1_555
H144 C176 1_555 1_555
C177 C161 1_555 1_555
H145 C177 1_555 1_555
C178 C158 1_555 1_555
H146 C178 1_555 1_555
C179 C149 1_555 1_555
H147 C179 1_555 1_555
C180 C86 1_555 1_555
C181 C171 1_555 1_555
H148 C181 1_555 1_555
C182 C176 1_555 1_555
H149 C182 1_555 1_555
C183 C145 1_555 1_555
H150 C183 1_555 1_555
C184 C118 1_555 1_555
H151 C184 1_555 1_555
C185 C179 1_555 1_555
H152 C185 1_555 1_555
C186 C141 1_555 1_555
H153 C186 1_555 1_555
C187 C90 1_555 1_555
H154 C187 1_555 1_555
C188 C131 1_555 1_555
H155 C188 1_555 1_555
H156 C188 1_555 1_555
H157 C188 1_555 1_555
C189 H158 1_555 1_555
C190 C125 1_555 1_555
H159 C190 1_555 1_555
C191 C146 1_555 1_555
H160 C191 1_555 1_555
C192 C144 1_555 1_555
H161 C192 1_555 1_555
C193 C129 1_555 1_555
H162 C193 1_555 1_555
C194 C184 1_555 1_555
H163 C194 1_555 1_555
C195 C170 1_555 1_555
H164 C195 1_555 1_555
C196 C150 1_555 1_555
H165 C196 1_555 1_555
C197 C15 1_555 1_555
C198 C197 1_555 1_555
C199 C197 1_555 1_555
C200 C201 1_555 1_555
C201 C203 1_555 1_555
C202 C41 1_555 1_555
H166 C202 1_555 1_555
C203 C153 1_555 1_555
C204 C202 1_555 1_555
H167 C204 1_555 1_555
C205 C157 1_555 1_555
C206 P3 1_555 1_555
C207 H168 1_555 1_555
H169 C207 1_555 1_555
H170 C207 1_555 1_555
C208 C206 1_555 1_555
H171 C208 1_555 1_555
O1 Mn4 1_555 1_555
C209 C206 1_555 1_555
H172 C209 1_555 1_555
C210 C205 1_555 1_555
C211 C205 1_555 1_555
C212 C209 1_555 1_555
H173 C212 1_555 1_555
N18 C211 1_555 1_555
N19 C199 1_555 1_555
N20 C198 1_555 1_555
N21 Mn4 1_555 1_555
N22 C200 1_555 1_555
N23 C213 1_555 1_555
C213 C201 1_555 1_555
N24 C210 1_555 1_555
C214 C212 1_555 1_555
H174 C214 1_555 1_555
C215 C208 1_555 1_555
H175 C215 1_555 1_555
N25 Mn3 1_555 1_555
C216 C217 1_555 1_555
C217 N26 1_555 1_555
C218 N25 1_555 1_555
C219 H176 1_555 1_555
C220 H177 1_555 1_555
C221 C220 1_555 1_555
N27 C222 1_555 1_555
C222 C223 1_555 1_555
C223 C221 1_555 1_555
H178 C223 1_555 1_555
N28 C224 1_555 1_555
C224 C223 1_555 1_555
C225 C219 1_555 1_555
H179 C225 1_555 1_555
C226 C220 1_555 1_555
H180 C226 1_555 1_555
C227 C216 1_555 1_555
C197A C197 1_555 1_555
C15A C197A 1_555 1_555
C16A C15A 1_555 1_555
H7A C16A 1_555 1_555
C46A C16A 1_555 1_555
C32A C46A 1_555 1_555
C86A C32A 1_555 1_555
C55A C86A 1_555 1_555
N7A C55A 1_555 1_555
C180A C86A 1_555 1_555
N15A C180A 1_555 1_555
C58A C32A 1_555 1_555
C22A C15A 1_555 1_555
H9A C22A 1_555 1_555
H32A C58A 1_555 1_555
H20A C46A 1_555 1_555
C198A C197A 1_555 1_555
N20A C198A 1_555 1_555
C199A C197A 1_555 1_555
N19A C199A 1_555 1_555
N10A C13A 1_555 1_555
C13A C24A 1_555 1_555
C24A C41A 1_555 1_555
C41A C64A 1_555 1_555
N14A Mn4 1_555 1_555
C64A H38A 1_555 1_555
C88A C24A 1_555 1_555
C106A N14A 1_555 1_555
C139A H106A 1_555 1_555
N16A C155A 1_555 1_555
C147A C162A 1_555 1_555
N17A C88A 1_555 1_555
C153A C64A 1_555 1_555
H120A C153A 1_555 1_555
C155A C163A 1_555 1_555
C157A C139A 1_555 1_555
C162A C139A 1_555 1_555
H126A C162A 1_555 1_555
C163A C106A 1_555 1_555
C167A C147A 1_555 1_555
H132A C167A 1_555 1_555
C175A C157A 1_555 1_555
H143A C175A 1_555 1_555
C200A C201A 1_555 1_555
C201A C203A 1_555 1_555
C202A C41A 1_555 1_555
H166A C202A 1_555 1_555
C203A C153A 1_555 1_555
C204A C202A 1_555 1_555
H167A C204A 1_555 1_555
C205A C157A 1_555 1_555
C210A C205A 1_555 1_555
C211A C205A 1_555 1_555
N18A C211A 1_555 1_555
N22A C200A 1_555 1_555
N23A C213A 1_555 1_555
C213A C201A 1_555 1_555
N24A C210A 1_555 1_555
Mn1A N10A 1_555 1_555
Mn2A N7A 1_555 1_555
Mn4A N14 1_555 1_555
C5A N3A 1_555 1_555
N3A Mn1A 1_555 1_555
N5A Mn1A 1_555 1_555
C42A N5A 1_555 1_555
N9A Mn1A 1_555 1_555
C47A N9A 1_555 1_555
C3A N1A 1_555 1_555
N1A Mn2A 1_555 1_555
C7A N8A 1_555 1_555
N8A Mn2A 1_555 1_555
C10A N12A 1_555 1_555
N12A Mn2A 1_555 1_555
C9A N6A 1_555 1_555
N6A Mn4A 1_555 1_555
C4A N13A 1_555 1_555
N13A Mn4A 1_555 1_555
C207A H168A 1_555 1_555
H169A C207A 1_555 1_555
H170A C207A 1_555 1_555
O1A Mn4A 1_555 1_555
C11A N21A 1_555 1_555
N21A Mn4A 1_555 1_555
Re1A C5A 1_555 1_555
Re2A C42A 1_555 1_555
Re3A C3A 1_555 1_555
Re4A C7A 1_555 1_555
P3A Re1A 1_555 1_555
P6A Re1A 1_555 1_555
P10A Re1A 1_555 1_555
C17A P10A 1_555 1_555
C25A P6A 1_555 1_555
C27A P10A 1_555 1_555
C36A P3A 1_555 1_555
C39A H16A 1_555 1_555
C49A H23A 1_555 1_555
C57A C17A 1_555 1_555
H31A C57A 1_555 1_555
C59A C68A 1_555 1_555
C63A C25A 1_555 1_555
H37A C63A 1_555 1_555
C68A P10A 1_555 1_555
H40A C68A 1_555 1_555
H41A C68A 1_555 1_555
C72A C25A 1_555 1_555
H45A C72A 1_555 1_555
C74A C27A 1_555 1_555
H47A C74A 1_555 1_555
C79A H51A 1_555 1_555
C84A C49A 1_555 1_555
H57A C84A 1_555 1_555
C89A C27A 1_555 1_555
H62A C89A 1_555 1_555
C92A P3A 1_555 1_555
H64A C92A 1_555 1_555
H65A C92A 1_555 1_555
C97A C36A 1_555 1_555
H69A C97A 1_555 1_555
C99A C97A 1_555 1_555
H70A C99A 1_555 1_555
C103A C17A 1_555 1_555
H74A C103A 1_555 1_555
C104A C72A 1_555 1_555
H75A C104A 1_555 1_555
C117A C74A 1_555 1_555
H87A C117A 1_555 1_555
C121A H90A 1_555 1_555
C129A C99A 1_555 1_555
H98A C129A 1_555 1_555
C133A C39A 1_555 1_555
H101A C133A 1_555 1_555
C134A C79A 1_555 1_555
H102A C134A 1_555 1_555
C136A C57A 1_555 1_555
H104A C136A 1_555 1_555
C140A P6A 1_555 1_555
H107A C140A 1_555 1_555
H108A C140A 1_555 1_555
C154A P6A 1_555 1_555
C158A C154A 1_555 1_555
H122A C158A 1_555 1_555
C159A C121A 1_555 1_555
H123A C159A 1_555 1_555
C164A C36A 1_555 1_555
H127A C164A 1_555 1_555
C168A C159A 1_555 1_555
H133A C168A 1_555 1_555
C172A C59A 1_555 1_555
H138A C172A 1_555 1_555
H139A C172A 1_555 1_555
H140A C172A 1_555 1_555
C178A C158A 1_555 1_555
H146A C178A 1_555 1_555
C193A C129A 1_555 1_555
H162A C193A 1_555 1_555
C206A P3A 1_555 1_555
C208A C206A 1_555 1_555
H171A C208A 1_555 1_555
C209A C206A 1_555 1_555
H172A C209A 1_555 1_555
C212A C209A 1_555 1_555
H173A C212A 1_555 1_555
C214A C212A 1_555 1_555
H174A C214A 1_555 1_555
C215A C208A 1_555 1_555
H175A C215A 1_555 1_555
P2A Re2A 1_555 1_555
P4A Re2A 1_555 1_555
P8A Re2A 1_555 1_555
C52A H26A 1_555 1_555
C67A P4A 1_555 1_555
C76A H49A 1_555 1_555
C90A P8A 1_555 1_555
C94A C67A 1_555 1_555
H66A C94A 1_555 1_555
C98A P8A 1_555 1_555
C113A C76A 1_555 1_555
H82A C113A 1_555 1_555
C114A P8A 1_555 1_555
H83A C114A 1_555 1_555
H84A C114A 1_555 1_555
C116A C90A 1_555 1_555
H86A C116A 1_555 1_555
C118A P2A 1_555 1_555
C123A C52A 1_555 1_555
H92A C123A 1_555 1_555
C125A H94A 1_555 1_555
C131A C114A 1_555 1_555
C132A H100A 1_555 1_555
C135A C132A 1_555 1_555
H103A C135A 1_555 1_555
C137A C116A 1_555 1_555
H105A C137A 1_555 1_555
C138A P4A 1_555 1_555
C143A H111A 1_555 1_555
C144A P2A 1_555 1_555
C145A C98A 1_555 1_555
H112A C145A 1_555 1_555
C146A C137A 1_555 1_555
H113A C146A 1_555 1_555
C148A C135A 1_555 1_555
H114A C148A 1_555 1_555
C149A C118A 1_555 1_555
H115A C149A 1_555 1_555
C152A P2A 1_555 1_555
H118A C152A 1_555 1_555
H119A C152A 1_555 1_555
C156A C98A 1_555 1_555
H121A C156A 1_555 1_555
C161A C156A 1_555 1_555
H125A C161A 1_555 1_555
C169A P4A 1_555 1_555
H134A C169A 1_555 1_555
H135A C169A 1_555 1_555
C170A C143A 1_555 1_555
H136A C170A 1_555 1_555
C177A C161A 1_555 1_555
H145A C177A 1_555 1_555
C179A C149A 1_555 1_555
H147A C179A 1_555 1_555
C183A C145A 1_555 1_555
H150A C183A 1_555 1_555
C184A C118A 1_555 1_555
H151A C184A 1_555 1_555
C185A C179A 1_555 1_555
H152A C185A 1_555 1_555
C187A C90A 1_555 1_555
H154A C187A 1_555 1_555
C188A C131A 1_555 1_555
H155A C188A 1_555 1_555
H156A C188A 1_555 1_555
H157A C188A 1_555 1_555
C189A H158A 1_555 1_555
C190A C125A 1_555 1_555
H159A C190A 1_555 1_555
C191A C146A 1_555 1_555
H160A C191A 1_555 1_555
C192A C144A 1_555 1_555
H161A C192A 1_555 1_555
C194A C184A 1_555 1_555
H163A C194A 1_555 1_555
C195A C170A 1_555 1_555
H164A C195A 1_555 1_555
N11A C31A 1_555 1_555
C31A Re2A 1_555 1_555
P5A Re3A 1_555 1_555
P7A Re3A 1_555 1_555
P11A Re3A 1_555 1_555
C8A P7A 1_555 1_555
C18A H8A 1_555 1_555
C19A P5A 1_555 1_555
C30A P5A 1_555 1_555
C34A H12A 1_555 1_555
C35A P7A 1_555 1_555
C40A P11A 1_555 1_555
C45A C8A 1_555 1_555
H19A C45A 1_555 1_555
C50A H24A 1_555 1_555
C56A P11A 1_555 1_555
H29A C56A 1_555 1_555
H30A C56A 1_555 1_555
C61A P7A 1_555 1_555
H34A C61A 1_555 1_555
H35A C61A 1_555 1_555
C62A C45A 1_555 1_555
H36A C62A 1_555 1_555
C65A H39A 1_555 1_555
C70A C18A 1_555 1_555
H43A C70A 1_555 1_555
C73A H46A 1_555 1_555
C75A C19A 1_555 1_555
H48A C75A 1_555 1_555
C77A C56A 1_555 1_555
C81A C70A 1_555 1_555
H54A C81A 1_555 1_555
C83A C30A 1_555 1_555
H56A C83A 1_555 1_555
C91A C30A 1_555 1_555
H63A C91A 1_555 1_555
C100A P11A 1_555 1_555
C101A C34A 1_555 1_555
H71A C101A 1_555 1_555
C102A P5A 1_555 1_555
H72A C102A 1_555 1_555
H73A C102A 1_555 1_555
C107A C100A 1_555 1_555
H76A C107A 1_555 1_555
C108A C8A 1_555 1_555
H77A C108A 1_555 1_555
C109A C35A 1_555 1_555
H78A C109A 1_555 1_555
C111A C65A 1_555 1_555
H80A C111A 1_555 1_555
C115A C101A 1_555 1_555
H85A C115A 1_555 1_555
C119A C109A 1_555 1_555
H88A C119A 1_555 1_555
C122A C100A 1_555 1_555
H91A C122A 1_555 1_555
C126A C40A 1_555 1_555
H95A C126A 1_555 1_555
C127A C65A 1_555 1_555
H96A C127A 1_555 1_555
C130A C50A 1_555 1_555
H99A C130A 1_555 1_555
C141A C122A 1_555 1_555
H109A C141A 1_555 1_555
C166A C77A 1_555 1_555
H129A C166A 1_555 1_555
H130A C166A 1_555 1_555
H131A C166A 1_555 1_555
C171A C40A 1_555 1_555
H137A C171A 1_555 1_555
C174A C107A 1_555 1_555
H142A C174A 1_555 1_555
C176A C126A 1_555 1_555
H144A C176A 1_555 1_555
C181A C171A 1_555 1_555
H148A C181A 1_555 1_555
C182A C176A 1_555 1_555
H149A C182A 1_555 1_555
C186A C141A 1_555 1_555
H153A C186A 1_555 1_555
C6A Re3A 1_555 1_555
N4A C6A 1_555 1_555
P1A Re4A 1_555 1_555
P9A Re4A 1_555 1_555
P12A Re4A 1_555 1_555
C12A H5A 1_555 1_555
C14A H6A 1_555 1_555
C20A P12A 1_555 1_555
C21A P9A 1_555 1_555
C23A P1A 1_555 1_555
C26A C20A 1_555 1_555
H10A C26A 1_555 1_555
C29A P9A 1_555 1_555
C33A C29A 1_555 1_555
H11A C33A 1_555 1_555
C37A H13A 1_555 1_555
C38A P12A 1_555 1_555
H14A C38A 1_555 1_555
H15A C38A 1_555 1_555
C43A H17A 1_555 1_555
C44A C21A 1_555 1_555
H18A C44A 1_555 1_555
C48A P9A 1_555 1_555
H21A C48A 1_555 1_555
H22A C48A 1_555 1_555
C51A C29A 1_555 1_555
H25A C51A 1_555 1_555
C53A C33A 1_555 1_555
H27A C53A 1_555 1_555
C54A C43A 1_555 1_555
H28A C54A 1_555 1_555
C60A H33A 1_555 1_555
C66A P12A 1_555 1_555
C69A C23A 1_555 1_555
H42A C69A 1_555 1_555
C71A H44A 1_555 1_555
C78A C12A 1_555 1_555
H50A C78A 1_555 1_555
C80A P1A 1_555 1_555
H52A C80A 1_555 1_555
H53A C80A 1_555 1_555
C82A C44A 1_555 1_555
H55A C82A 1_555 1_555
C85A C66A 1_555 1_555
H58A C85A 1_555 1_555
C87A H59A 1_555 1_555
H60A C87A 1_555 1_555
H61A C87A 1_555 1_555
C93A P1A 1_555 1_555
C95A C37A 1_555 1_555
H67A C95A 1_555 1_555
C96A C14A 1_555 1_555
H68A C96A 1_555 1_555
C105A C38A 1_555 1_555
C110A C96A 1_555 1_555
H79A C110A 1_555 1_555
C112A H81A 1_555 1_555
C120A C69A 1_555 1_555
H89A C120A 1_555 1_555
C124A C20A 1_555 1_555
H93A C124A 1_555 1_555
C128A C93A 1_555 1_555
H97A C128A 1_555 1_555
C142A C71A 1_555 1_555
H110A C142A 1_555 1_555
C150A C85A 1_555 1_555
H116A C150A 1_555 1_555
C151A C26A 1_555 1_555
H117A C151A 1_555 1_555
C160A H124A 1_555 1_555
C165A C66A 1_555 1_555
H128A C165A 1_555 1_555
C173A C112A 1_555 1_555
H141A C173A 1_555 1_555
C196A C150A 1_555 1_555
H165A C196A 1_555 1_555
N2A C28A 1_555 1_555
C28A Re4A 1_555 1_555
Mn3A N4A 1_555 1_555
N25A Mn3A 1_555 1_555
C216A C217A 1_555 1_555
C217A N26A 1_555 1_555
C218A N25A 1_555 1_555
C219A H176A 1_555 1_555
C220A H177A 1_555 1_555
C221A C220A 1_555 1_555
N27A C222A 1_555 1_555
C222A C223A 1_555 1_555
C223A C221A 1_555 1_555
H178A C223A 1_555 1_555
N28A C224A 1_555 1_555
C224A C223A 1_555 1_555
C225A C219A 1_555 1_555
H179A C225A 1_555 1_555
C226A C220A 1_555 1_555
H180A C226A 1_555 1_555
C227A C216A 1_555 1_555
Re4A_2 C47A 1_555 1_555
Re1A_2 C10A 1_555 1_555
Re3A_2 C9A 1_555 1_555
C10A_2 Re1A 1_555 1_555
C9A_2 Re3A 1_555 1_555
C47A_2 Re4A 1_555 1_555
Mn3A_2 N11A 1_555 1_555
N11A_2 Mn3A 1_555 1_555
C4 N13 1_555 1_555
C6 N4 1_555 1_555
C7 N8 1_555 1_555
N5 C42 1_555 1_555
N9 C47 1_555 1_555
C10 N12 1_555 1_555
C11 N21 1_555 1_555
C12 C21 1_555 1_555
N11 C31 1_555 1_555
C32 C58 1_555 1_555
C34 C35 1_555 1_555
C37 C93 1_555 1_555
C39 C63 1_555 1_555
C43 C53 1_555 1_555
C48 C105 1_555 1_555
C49 C103 1_555 1_555
C50 C62 1_555 1_555
C51 C54 1_555 1_555
C52 C67 1_555 1_555
C55 C86 1_555 1_555
C59 C92 1_555 1_555
C59 C140 1_555 1_555
C60 C78 1_555 1_555
C60 C82 1_555 1_555
C61 C77 1_555 1_555
C71 C95 1_555 1_555
C73 C75 1_555 1_555
C73 C81 1_555 1_555
C76 C123 1_555 1_555
C77 C102 1_555 1_555
C79 C89 1_555 1_555
C80 C105 1_555 1_555
C83 C111 1_555 1_555
C84 C136 1_555 1_555
C87 C105 1_555 1_555
C91 C127 1_555 1_555
C94 C113 1_555 1_555
C104 C133 1_555 1_555
C108 C130 1_555 1_555
C110 C120 1_555 1_555
C112 C151 1_555 1_555
C115 C119 1_555 1_555
C117 C134 1_555 1_555
C121 C154 1_555 1_555
C124 C173 1_555 1_555
C125 C138 1_555 1_555
C128 C142 1_555 1_555
C131 C152 1_555 1_555
C131 C169 1_555 1_555
C132 C138 1_555 1_555
C143 C144 1_555 1_555
C148 C190 1_555 1_555
C160 C165 1_555 1_555
C160 C196 1_555 1_555
C164 C193 1_555 1_555
C167 C175 1_555 1_555
C168 C178 1_555 1_555
C174 C186 1_555 1_555
C177 C183 1_555 1_555
C181 C182 1_555 1_555
C185 C194 1_555 1_555
C187 C191 1_555 1_555
C189 C192 1_555 1_555
C189 C195 1_555 1_555
C201 C205 1_555 1_555
C203 C204 1_555 1_555
C207 O1 1_555 1_555
C214 C215 1_555 1_555
C216 C218 1_555 1_555
C219 C227 1_555 1_555
C221 C225 1_555 1_555
C226 C227 1_555 1_555
C58A C22A 1_555 1_555
C147A C163A 1_555 1_555
C167A C175A 1_555 1_555
C201A C205A 1_555 1_555
C203A C204A 1_555 1_555
C4A Re2A 1_555 1_555
C207A O1A 1_555 1_555
C11A Re1A 1_555 1_555
C39A C63A 1_555 1_555
C49A C103A 1_555 1_555
C59A C92A 1_555 1_555
C59A C140A 1_555 1_555
C79A C89A 1_555 1_555
C84A C136A 1_555 1_555
C104A C133A 1_555 1_555
C117A C134A 1_555 1_555
C121A C154A 1_555 1_555
C164A C193A 1_555 1_555
C168A C178A 1_555 1_555
C214A C215A 1_555 1_555
C52A C67A 1_555 1_555
C76A C123A 1_555 1_555
C94A C113A 1_555 1_555
C125A C138A 1_555 1_555
C131A C152A 1_555 1_555
C131A C169A 1_555 1_555
C132A C138A 1_555 1_555
C143A C144A 1_555 1_555
C148A C190A 1_555 1_555
C177A C183A 1_555 1_555
C185A C194A 1_555 1_555
C187A C191A 1_555 1_555
C189A C192A 1_555 1_555
C189A C195A 1_555 1_555
C18A C19A 1_555 1_555
C34A C35A 1_555 1_555
C50A C62A 1_555 1_555
C61A C77A 1_555 1_555
C73A C75A 1_555 1_555
C73A C81A 1_555 1_555
C77A C102A 1_555 1_555
C83A C111A 1_555 1_555
C91A C127A 1_555 1_555
C108A C130A 1_555 1_555
C115A C119A 1_555 1_555
C174A C186A 1_555 1_555
C181A C182A 1_555 1_555
C12A C21A 1_555 1_555
C14A C23A 1_555 1_555
C37A C93A 1_555 1_555
C43A C53A 1_555 1_555
C48A C105A 1_555 1_555
C51A C54A 1_555 1_555
C60A C78A 1_555 1_555
C60A C82A 1_555 1_555
C71A C95A 1_555 1_555
C80A C105A 1_555 1_555
C87A C105A 1_555 1_555
C110A C120A 1_555 1_555
C112A C151A 1_555 1_555
C124A C173A 1_555 1_555
C128A C142A 1_555 1_555
C160A C165A 1_555 1_555
C160A C196A 1_555 1_555
N2A Mn3A 1_555 1_555
C216A C218A 1_555 1_555
C219A C227A 1_555 1_555
C221A C225A 1_555 1_555
C226A C227A 1_555 1_555

#END
