
#######################################################################
#
#                 Cambridge Crystallographic Data Centre
#                                CCDC 
#
#######################################################################
#
# If this CIF has been generated from an entry in the Cambridge 
# Structural Database, then it will include bibliographic, chemical, 
# crystal, experimental, refinement or atomic coordinate data resulting 
# from the CCDC's data processing and validation procedures.
#
#######################################################################

data_RADPAP
_symmetry_cell_setting           monoclinic
_symmetry_space_group_name_H-M   'P 21/c'
_symmetry_Int_Tables_number      14
_space_group_name_Hall           '-P 2ybc'
loop_
_symmetry_equiv_pos_site_id
_symmetry_equiv_pos_as_xyz
1 x,y,z
2 -x,1/2+y,1/2-z
3 -x,-y,-z
4 x,1/2-y,1/2+z
_cell_length_a                   12.3691(17)
_cell_length_b                   14.118(2)
_cell_length_c                   23.229(3)
_cell_angle_alpha                90
_cell_angle_beta                 91.595(5)
_cell_angle_gamma                90
_cell_volume                     4054.84
loop_
_atom_site_label
_atom_site_type_symbol
_atom_site_fract_x
_atom_site_fract_y
_atom_site_fract_z
Fe1 Fe 0.25197(4) 0.80695(4) 0.19682(2)
C1 C 0.3837(3) 0.7844(3) 0.24124(16)
N1 N 0.4608(2) 0.7618(2) 0.26635(14)
C2 C 0.1914(3) 0.8697(3) 0.26192(18)
N2 N 0.1550(3) 0.9091(3) 0.30017(16)
C3 C 0.3055(3) 0.9290(3) 0.17593(16)
N3 N 0.3358(2) 1.0041(2) 0.16488(13)
N4 N 0.1961(2) 0.6811(2) 0.22053(15)
N5 N 0.1465(2) 0.6240(2) 0.18100(15)
N6 N 0.3135(2) 0.7471(2) 0.12871(14)
C4 C 0.1936(3) 0.6362(3) 0.27124(19)
H1 H 0.2230 0.6594 0.3057
C5 C 0.1405(3) 0.5496(3) 0.2647(2)
H2 H 0.1270 0.5050 0.2931
C6 C 0.1125(3) 0.5446(3) 0.2073(2)
H3 H 0.0760 0.4946 0.1893
N7 N 0.2568(3) 0.6788(2) 0.09992(15)
N8 N 0.1174(2) 0.8247(2) 0.15098(13)
C7 C 0.4078(3) 0.7572(3) 0.10229(17)
H4 H 0.4617 0.8002 0.1129
C8 C 0.4127(4) 0.6946(3) 0.0573(2)
H5 H 0.4695 0.6865 0.0325
C9 C 0.3155(4) 0.6459(3) 0.05659(19)
H6 H 0.2947 0.5988 0.0306
N9 N 0.0784(2) 0.7521(2) 0.11752(15)
N10 N 0.5028(3) 0.5598(2) 0.24642(14)
C10 C 0.0503(3) 0.8970(3) 0.14328(19)
H7 H 0.0575 0.9557 0.1612
C11 C -0.0322(4) 0.8723(3) 0.1047(2)
H8 H -0.0896 0.9100 0.0918
C12 C -0.0116(3) 0.7813(3) 0.0895(2)
H9 H -0.0532 0.7452 0.0638
B1 B 0.1398(4) 0.6566(3) 0.1185(2)
H10 H 0.099(3) 0.609(3) 0.0906(17)
Mn1 Mn 0.57035(4) 0.63947(4) 0.30680(3)
N11 N 0.6899(3) 0.6560(3) 0.25208(17)
O1 O 0.45684(19) 0.61164(17) 0.35578(11)
O2 O 0.6384(2) 0.72361(19) 0.35821(13)
C13 C 0.7384(3) 0.7556(3) 0.3609(2)
C14 C 0.7644(4) 0.8145(3) 0.4126(2)
C15 C 0.6880(4) 0.8363(3) 0.4527(2)
H11 H 0.6172 0.8152 0.4473
C16 C 0.7163(5) 0.8894(4) 0.5006(3)
H12 H 0.6635 0.9042 0.5268
C17 C 0.8201(5) 0.9210(4) 0.5107(3)
H13 H 0.8381 0.9559 0.5435
C18 C 0.8951(4) 0.9001(3) 0.4716(2)
H14 H 0.9656 0.9209 0.4787
C19 C 0.8732(4) 0.8489(4) 0.4210(3)
C20 C 0.9446(4) 0.8275(4) 0.3791(3)
H15 H 1.0152 0.8487 0.3849
C21 C 0.9235(4) 0.7791(4) 0.3305(3)
H16 H 0.9770 0.7701 0.3037
C22 C 0.8131(3) 0.7401(4) 0.3199(2)
C23 C 0.7893(4) 0.6898(3) 0.2669(3)
C24 C 0.8759(4) 0.6762(5) 0.2220(3)
H17 H 0.8457 0.6421 0.1896
H18 H 0.9354 0.6410 0.2386
H19 H 0.9010 0.7370 0.2095
C25 C 0.6662(4) 0.6051(4) 0.1990(2)
H20 H 0.7028 0.5444 0.2000
H21 H 0.6928 0.6410 0.1667
C26 C 0.5454(5) 0.5896(4) 0.1908(2)
H22 H 0.5105 0.6478 0.1780
H23 H 0.5314 0.5412 0.1619
C27 C 0.4295(3) 0.4957(3) 0.25272(18)
C28 C 0.3756(4) 0.4504(4) 0.2009(2)
H24 H 0.4059 0.4758 0.1665
H25 H 0.2994 0.4634 0.2008
H26 H 0.3872 0.3832 0.2022
C29 C 0.3965(3) 0.4682(3) 0.31036(18)
C30 C 0.3453(3) 0.3785(3) 0.3186(2)
H27 H 0.3341 0.3391 0.2870
C31 C 0.3129(3) 0.3491(3) 0.3700(2)
H28 H 0.2823 0.2893 0.3736
C32 C 0.3247(3) 0.4083(3) 0.4193(2)
C33 C 0.2907(4) 0.3815(4) 0.4746(2)
H29 H 0.2583 0.3226 0.4790
C34 C 0.3034(5) 0.4377(5) 0.5210(2)
H30 H 0.2804 0.4179 0.5569
C35 C 0.3526(5) 0.5281(4) 0.5144(2)
H31 H 0.3613 0.5679 0.5461
C36 C 0.3869(4) 0.5566(3) 0.46212(18)
H32 H 0.4196 0.6155 0.4586
C37 C 0.3738(3) 0.4982(3) 0.41318(17)
C38 C 0.4115(3) 0.5267(2) 0.35811(16)
N3A N 0.6642(2) 0.5041(2) 0.33512(13)
Mn1A Mn 0.42965(4) 1.13947(4) 0.19320(3)
loop_
_geom_bond_atom_site_label_1
_geom_bond_atom_site_label_2
_geom_bond_site_symmetry_1
_geom_bond_site_symmetry_2
Fe1 C1 1_555 1_555
C1 N1 1_555 1_555
N1 Mn1 1_555 1_555
C2 Fe1 1_555 1_555
N2 C2 1_555 1_555
C3 Fe1 1_555 1_555
N3 C3 1_555 1_555
N4 Fe1 1_555 1_555
N5 N4 1_555 1_555
N6 Fe1 1_555 1_555
C4 N4 1_555 1_555
H1 C4 1_555 1_555
C5 C4 1_555 1_555
H2 C5 1_555 1_555
C6 N5 1_555 1_555
H3 C6 1_555 1_555
N7 N6 1_555 1_555
N8 Fe1 1_555 1_555
C7 N6 1_555 1_555
H4 C7 1_555 1_555
C8 C7 1_555 1_555
H5 C8 1_555 1_555
C9 N7 1_555 1_555
H6 C9 1_555 1_555
N9 N8 1_555 1_555
N10 Mn1 1_555 1_555
C10 N8 1_555 1_555
H7 C10 1_555 1_555
C11 C10 1_555 1_555
H8 C11 1_555 1_555
C12 N9 1_555 1_555
H9 C12 1_555 1_555
B1 N5 1_555 1_555
H10 B1 1_555 1_555
Mn1 N11 1_555 1_555
N11 C23 1_555 1_555
O1 Mn1 1_555 1_555
O2 Mn1 1_555 1_555
C13 O2 1_555 1_555
C14 C13 1_555 1_555
C15 C14 1_555 1_555
H11 C15 1_555 1_555
C16 C15 1_555 1_555
H12 C16 1_555 1_555
C17 C16 1_555 1_555
H13 C17 1_555 1_555
C18 C17 1_555 1_555
H14 C18 1_555 1_555
C19 C14 1_555 1_555
C20 C19 1_555 1_555
H15 C20 1_555 1_555
C21 C20 1_555 1_555
H16 C21 1_555 1_555
C22 C13 1_555 1_555
C23 C22 1_555 1_555
C24 C23 1_555 1_555
H17 C24 1_555 1_555
H18 C24 1_555 1_555
H19 C24 1_555 1_555
C25 N11 1_555 1_555
H20 C25 1_555 1_555
H21 C25 1_555 1_555
C26 N10 1_555 1_555
H22 C26 1_555 1_555
H23 C26 1_555 1_555
C27 N10 1_555 1_555
C28 C27 1_555 1_555
H24 C28 1_555 1_555
H25 C28 1_555 1_555
H26 C28 1_555 1_555
C29 C27 1_555 1_555
C30 C29 1_555 1_555
H27 C30 1_555 1_555
C31 C30 1_555 1_555
H28 C31 1_555 1_555
C32 C31 1_555 1_555
C33 C32 1_555 1_555
H29 C33 1_555 1_555
C34 C33 1_555 1_555
H30 C34 1_555 1_555
C35 C34 1_555 1_555
H31 C35 1_555 1_555
C36 C35 1_555 1_555
H32 C36 1_555 1_555
C37 C32 1_555 1_555
C38 O1 1_555 1_555
N3A Mn1 1_555 1_555
Mn1A N3 1_555 1_555
C5 C6 1_555 1_555
N7 B1 1_555 1_555
C8 C9 1_555 1_555
N9 B1 1_555 1_555
C11 C12 1_555 1_555
C18 C19 1_555 1_555
C21 C22 1_555 1_555
C25 C26 1_555 1_555
C29 C38 1_555 1_555
C36 C37 1_555 1_555
C37 C38 1_555 1_555

#END
