
#######################################################################
#
#                 Cambridge Crystallographic Data Centre
#                                CCDC 
#
#######################################################################
#
# If this CIF has been generated from an entry in the Cambridge 
# Structural Database, then it will include bibliographic, chemical, 
# crystal, experimental, refinement or atomic coordinate data resulting 
# from the CCDC's data processing and validation procedures.
#
#######################################################################

data_RADWAV
_symmetry_cell_setting           monoclinic
_symmetry_space_group_name_H-M   'P 21/n'
_symmetry_Int_Tables_number      14
_space_group_name_Hall           '-P 2yn'
loop_
_symmetry_equiv_pos_site_id
_symmetry_equiv_pos_as_xyz
1 x,y,z
2 1/2+x,1/2-y,1/2+z
3 -x,-y,-z
4 1/2-x,1/2+y,1/2-z
_cell_length_a                   5.9761(6)
_cell_length_b                   16.1613(16)
_cell_length_c                   22.729(2)
_cell_angle_alpha                90
_cell_angle_beta                 90.932(2)
_cell_angle_gamma                90
_cell_volume                     2194.91
loop_
_atom_site_label
_atom_site_type_symbol
_atom_site_fract_x
_atom_site_fract_y
_atom_site_fract_z
Ag1 Ag 0.00956(9) 0.75371(3) 0.16699(3)
N1 N -0.0254(10) 0.6216(4) 0.1680(3)
N2 N 0.0481(10) 0.8854(4) 0.1720(3)
C1 C -0.8511(13) 0.5552(5) 0.0263(3)
C2 C -0.8156(13) 0.4708(5) 0.0318(3)
H1 H -0.6897 0.4511 0.0537
C3 C -1.0364(12) 0.5855(4) -0.0055(3)
H2 H -1.0611 0.6433 -0.0090
C4 C 0.8551(12) 0.9474(5) 0.0280(3)
C5 C 0.8162(12) 1.0323(5) 0.0304(3)
H3 H 0.6924 1.0537 0.0512
C6 C 1.0379(12) 0.9151(4) -0.0018(3)
H4 H 1.0624 0.8570 -0.0025
C7 C -0.7024(13) 0.6170(4) 0.0558(3)
O1 O -0.7369(9) 0.6908(3) 0.0579(3)
O2 O -0.5245(9) 0.5804(3) 0.0810(2)
C8 C -0.3684(13) 0.6335(4) 0.1129(3)
H5 H -0.4491 0.6662 0.1427
H6 H -0.2966 0.6725 0.0854
C9 C -0.1952(12) 0.5807(4) 0.1423(3)
C10 C -0.2060(12) 0.4943(4) 0.1431(3)
H7 H -0.3293 0.4662 0.1254
C11 C -0.0338(11) 0.4500(4) 0.1703(3)
H8 H -0.0377 0.3912 0.1710
C12 C 0.1428(12) 0.4921(5) 0.1964(3)
H9 H 0.2640 0.4631 0.2144
C13 C 0.1380(13) 0.5780(5) 0.1953(3)
H10 H 0.2554 0.6074 0.2147
C14 C 0.7077(12) 0.8886(5) 0.0598(3)
O3 O 0.7432(10) 0.8147(3) 0.0640(3)
O4 O 0.5344(9) 0.9260(3) 0.0848(2)
C15 C 0.3872(13) 0.8728(4) 0.1176(3)
H11 H 0.4735 0.8422 0.1481
H12 H 0.3145 0.8321 0.0909
C16 C 0.2136(12) 0.9262(4) 0.1458(3)
C17 C 0.2183(13) 1.0128(5) 0.1451(3)
H13 H 0.3385 1.0409 0.1270
C18 C 0.0510(12) 1.0567(5) 0.1702(4)
H14 H 0.0514 1.1154 0.1694
C19 C -0.1214(13) 1.0135(5) 0.1973(3)
H15 H -0.2406 1.0428 0.2151
C20 C -0.1175(13) 0.9282(4) 0.1981(3)
H16 H -0.2332 0.8990 0.2174
C3B C -0.9636(12) 0.4145(4) 0.0055(3)
C1B C -1.1489(13) 0.4448(5) -0.0263(3)
C2B C -1.1844(13) 0.5292(5) -0.0318(3)
H1B H -1.3103 0.5489 -0.0537
C7B C -1.2976(13) 0.3830(4) -0.0558(3)
O1B O -1.2631(9) 0.3092(3) -0.0579(3)
O2B O -1.4755(9) 0.4196(3) -0.0810(2)
C8B C -1.6316(13) 0.3665(4) -0.1129(3)
H5B H -1.5509 0.3338 -0.1427
H6B H -1.7034 0.3275 -0.0854
C9B C -1.8048(12) 0.4193(4) -0.1423(3)
N1B N -1.9746(10) 0.3784(4) -0.1680(3)
C13B C -2.1380(13) 0.4220(5) -0.1953(3)
C12B C -2.1428(12) 0.5079(5) -0.1964(3)
C11B C -1.9662(11) 0.5500(4) -0.1703(3)
C10B C -1.7940(12) 0.5057(4) -0.1431(3)
H7B H -1.6707 0.5338 -0.1254
H8B H -1.9623 0.6088 -0.1710
H9B H -2.2640 0.5369 -0.2144
H10B H -2.2554 0.3926 -0.2147
H2B H -0.9389 0.3567 0.0090
C6B C 0.9621(12) 1.0849(4) 0.0018(3)
C4B C 1.1449(12) 1.0526(5) -0.0280(3)
C5B C 1.1838(12) 0.9677(5) -0.0304(3)
H3B H 1.3076 0.9463 -0.0512
C14B C 1.2923(12) 1.1114(5) -0.0598(3)
O3B O 1.2568(10) 1.1853(3) -0.0640(3)
O4B O 1.4656(9) 1.0740(3) -0.0848(2)
C15B C 1.6128(13) 1.1272(4) -0.1176(3)
H11B H 1.5265 1.1578 -0.1481
H12B H 1.6855 1.1679 -0.0909
C16B C 1.7864(12) 1.0738(4) -0.1458(3)
N2B N 1.9519(10) 1.1146(4) -0.1720(3)
C20B C 2.1175(13) 1.0718(4) -0.1981(3)
C19B C 2.1214(13) 0.9865(5) -0.1973(3)
C18B C 1.9490(12) 0.9433(5) -0.1702(4)
C17B C 1.7817(13) 0.9872(5) -0.1451(3)
H13B H 1.6615 0.9591 -0.1270
H14B H 1.9486 0.8846 -0.1694
H15B H 2.2406 0.9572 -0.2151
H16B H 2.2332 1.1010 -0.2174
H4B H 0.9376 1.1430 0.0025
Ag1B Ag -2.00956(9) 0.24629(3) -0.16699(3)
Ag1B_2 Ag 1.99044(9) 1.24629(3) -0.16699(3)
N2B_2 N -2.0481(10) 0.1146(4) -0.1720(3)
C21 C 0.9714(16) 0.7450(5) 0.4087(4)
F1 F 1.0397(11) 0.8080(3) 0.4421(2)
F2 F 1.0526(12) 0.6753(3) 0.4308(3)
F3 F 0.7479(10) 0.7408(4) 0.4138(3)
S1 S 1.0483(3) 0.75981(11) 0.33227(9)
O5 O 0.9496(12) 0.6894(4) 0.3028(3)
O6 O 0.9564(11) 0.8383(4) 0.3168(3)
O7 O 1.2911(11) 0.7582(4) 0.3357(3)
O8 O 0.5533(11) 0.7408(4) 0.2346(3)
H17 H 0.3979 0.7533 0.2406
H18 H 0.7041 0.7336 0.2560
loop_
_geom_bond_atom_site_label_1
_geom_bond_atom_site_label_2
_geom_bond_site_symmetry_1
_geom_bond_site_symmetry_2
Ag1 N1 1_555 1_555
N1 C9 1_555 1_555
N2 Ag1 1_555 1_555
C1 C2 1_555 1_555
C2 H1 1_555 1_555
C3 C1 1_555 1_555
H2 C3 1_555 1_555
C4 C5 1_555 1_555
C5 H3 1_555 1_555
C6 C4 1_555 1_555
H4 C6 1_555 1_555
C7 C1 1_555 1_555
O1 C7 1_555 1_555
O2 C7 1_555 1_555
C8 O2 1_555 1_555
H5 C8 1_555 1_555
H6 C8 1_555 1_555
C9 C8 1_555 1_555
C10 C9 1_555 1_555
H7 C10 1_555 1_555
C11 C10 1_555 1_555
H8 C11 1_555 1_555
C12 C11 1_555 1_555
H9 C12 1_555 1_555
C13 N1 1_555 1_555
H10 C13 1_555 1_555
C14 C4 1_555 1_555
O3 C14 1_555 1_555
O4 C14 1_555 1_555
C15 O4 1_555 1_555
H11 C15 1_555 1_555
H12 C15 1_555 1_555
C16 N2 1_555 1_555
C17 C16 1_555 1_555
H13 C17 1_555 1_555
C18 C17 1_555 1_555
H14 C18 1_555 1_555
C19 C18 1_555 1_555
H15 C19 1_555 1_555
C20 N2 1_555 1_555
H16 C20 1_555 1_555
C21 F1 1_555 1_555
F2 C21 1_555 1_555
F3 C21 1_555 1_555
S1 C21 1_555 1_555
O5 S1 1_555 1_555
O6 S1 1_555 1_555
O7 S1 1_555 1_555
O8 H17 1_555 1_555
H18 O8 1_555 1_555
C3B C2 1_555 1_555
C1B C3B 1_555 1_555
C2B C3 1_555 1_555
H1B C2B 1_555 1_555
C7B C1B 1_555 1_555
O1B C7B 1_555 1_555
O2B C7B 1_555 1_555
C8B O2B 1_555 1_555
H5B C8B 1_555 1_555
H6B C8B 1_555 1_555
C9B C8B 1_555 1_555
N1B C9B 1_555 1_555
C13B N1B 1_555 1_555
C12B C13B 1_555 1_555
C11B C12B 1_555 1_555
C10B C9B 1_555 1_555
H7B C10B 1_555 1_555
H8B C11B 1_555 1_555
H9B C12B 1_555 1_555
H10B C13B 1_555 1_555
H2B C3B 1_555 1_555
C6B C5 1_555 1_555
C4B C6B 1_555 1_555
C5B C6 1_555 1_555
H3B C5B 1_555 1_555
C14B C4B 1_555 1_555
O3B C14B 1_555 1_555
O4B C14B 1_555 1_555
C15B O4B 1_555 1_555
H11B C15B 1_555 1_555
H12B C15B 1_555 1_555
C16B C15B 1_555 1_555
N2B C16B 1_555 1_555
C20B N2B 1_555 1_555
C19B C20B 1_555 1_555
C18B C19B 1_555 1_555
C17B C16B 1_555 1_555
H13B C17B 1_555 1_555
H14B C18B 1_555 1_555
H15B C19B 1_555 1_555
H16B C20B 1_555 1_555
H4B C6B 1_555 1_555
Ag1B N1B 1_555 1_555
Ag1B_2 N2B 1_555 1_555
N2B_2 Ag1B 1_555 1_555
C12 C13 1_555 1_555
C15 C16 1_555 1_555
C19 C20 1_555 1_555
C1B C2B 1_555 1_555
C11B C10B 1_555 1_555
C4B C5B 1_555 1_555
C18B C17B 1_555 1_555

#END
