
#######################################################################
#
#                 Cambridge Crystallographic Data Centre
#                                CCDC 
#
#######################################################################
#
# If this CIF has been generated from an entry in the Cambridge 
# Structural Database, then it will include bibliographic, chemical, 
# crystal, experimental, refinement or atomic coordinate data resulting 
# from the CCDC's data processing and validation procedures.
#
#######################################################################

data_RADXEA
_symmetry_cell_setting           monoclinic
_symmetry_space_group_name_H-M   'P 21/c'
_symmetry_Int_Tables_number      14
_space_group_name_Hall           '-P 2ybc'
loop_
_symmetry_equiv_pos_site_id
_symmetry_equiv_pos_as_xyz
1 x,y,z
2 x,1/2-y,1/2+z
3 -x,-y,-z
4 -x,1/2+y,1/2-z
_cell_length_a                   11.385(3)
_cell_length_b                   10.310(3)
_cell_length_c                   18.395(5)
_cell_angle_alpha                90
_cell_angle_beta                 121.833(4)
_cell_angle_gamma                90
_cell_volume                     1834.43
loop_
_atom_site_label
_atom_site_type_symbol
_atom_site_fract_x
_atom_site_fract_y
_atom_site_fract_z
Co1 Co 0.06933(7) 0.26110(7) 0.31391(5)
N1 N 0.1408(5) 0.1408(4) 0.4194(3)
O1 O 0.0131(4) 0.0599(4) 0.2629(2)
O2 O 0.0147(4) -0.1471(4) 0.3011(2)
O3 O 0.1702(4) 0.3878(4) 0.4214(3)
O4 O 0.3119(5) 0.3933(4) 0.5636(3)
C1 C 0.1113(6) 0.0132(5) 0.4095(4)
C2 C 0.1413(8) -0.0642(7) 0.4780(4)
H1 H 0.1191 -0.1520 0.4707
C3 C 0.2062(10) -0.0069(7) 0.5590(5)
H2 H 0.2263 -0.0564 0.6065
C4 C 0.2406(9) 0.1229(7) 0.5686(4)
H3 H 0.2867 0.1611 0.6225
C5 C 0.2055(6) 0.1950(6) 0.4968(4)
C6 C 0.0406(5) -0.0283(5) 0.3167(4)
C7 C 0.2330(6) 0.3379(6) 0.4956(4)
N2 N 0.2558(5) 0.2565(5) 0.3109(3)
N3 N 0.8728(4) 0.2793(5) 0.3038(3)
C8 C 0.2865(6) 0.1647(7) 0.2724(4)
H4 H 0.2265 0.0946 0.2487
C9 C 0.4016(6) 0.1671(6) 0.2655(4)
H5 H 0.4170 0.1008 0.2373
C10 C 0.4937(6) 0.2694(6) 0.3011(4)
C11 C 0.4630(7) 0.3651(6) 0.3415(5)
H6 H 0.5221 0.4355 0.3669
C12 C 0.3441(7) 0.3553(6) 0.3437(5)
H7 H 0.3243 0.4218 0.3698
C13 C 0.7580(6) 0.2262(6) 0.2383(4)
H8 H 0.7626 0.1896 0.1937
C14 C 0.6322(6) 0.2233(6) 0.2339(4)
H9 H 0.5552 0.1852 0.1872
C15 C 0.6224(5) 0.2773(5) 0.2994(4)
C16 C 0.7402(6) 0.3357(6) 0.3653(4)
H10 H 0.7379 0.3758 0.4098
C17 C 0.8594(6) 0.3343(6) 0.3650(4)
H11 H 0.9368 0.3743 0.4102
O2C O -0.0147(4) 0.3529(4) 0.1989(2)
N3_2 N -0.1272(4) 0.2793(5) 0.3038(3)
Co1C Co -0.06933(7) -0.23890(7) 0.18609(5)
Co1_2 Co 1.06933(7) 0.26110(7) 0.31391(5)
C18 C 0.8140(18) 0.1518(13) 0.0682(9)
H12 H 0.8245 0.2133 0.1103
H13 H 0.7789 0.0717 0.0759
H14 H 0.7505 0.1853 0.0120
O5 O 0.9476(17) 0.129(2) 0.0776(11)
H15 H 1.0095 0.1456 0.1268
loop_
_geom_bond_atom_site_label_1
_geom_bond_atom_site_label_2
_geom_bond_site_symmetry_1
_geom_bond_site_symmetry_2
Co1 N1 1_555 1_555
N1 C1 1_555 1_555
O1 Co1 1_555 1_555
O2 C6 1_555 1_555
O3 Co1 1_555 1_555
O4 C7 1_555 1_555
C1 C2 1_555 1_555
C2 H1 1_555 1_555
C3 C2 1_555 1_555
H2 C3 1_555 1_555
C4 C3 1_555 1_555
H3 C4 1_555 1_555
C5 N1 1_555 1_555
C6 O1 1_555 1_555
C7 O3 1_555 1_555
N2 Co1 1_555 1_555
N3 C13 1_555 1_555
C8 N2 1_555 1_555
H4 C8 1_555 1_555
C9 C8 1_555 1_555
H5 C9 1_555 1_555
C10 C9 1_555 1_555
C11 C10 1_555 1_555
H6 C11 1_555 1_555
C12 N2 1_555 1_555
H7 C12 1_555 1_555
C13 H8 1_555 1_555
C14 C13 1_555 1_555
H9 C14 1_555 1_555
C15 C10 1_555 1_555
C16 C15 1_555 1_555
H10 C16 1_555 1_555
C17 N3 1_555 1_555
H11 C17 1_555 1_555
C18 H12 1_555 1_555
H13 C18 1_555 1_555
H14 C18 1_555 1_555
O5 C18 1_555 1_555
H15 O5 1_555 1_555
O2C Co1 1_555 1_555
N3_2 Co1 1_555 1_555
Co1C O2 1_555 1_555
Co1_2 N3 1_555 1_555
C1 C6 1_555 1_555
C4 C5 1_555 1_555
C5 C7 1_555 1_555
C11 C12 1_555 1_555
C14 C15 1_555 1_555
C16 C17 1_555 1_555

#END
