
#######################################################################
#
#                 Cambridge Crystallographic Data Centre
#                                CCDC 
#
#######################################################################
#
# If this CIF has been generated from an entry in the Cambridge 
# Structural Database, then it will include bibliographic, chemical, 
# crystal, experimental, refinement or atomic coordinate data resulting 
# from the CCDC's data processing and validation procedures.
#
#######################################################################

data_RADXID
_symmetry_cell_setting           monoclinic
_symmetry_space_group_name_H-M   'P 21/c'
_symmetry_Int_Tables_number      14
_space_group_name_Hall           '-P 2ybc'
loop_
_symmetry_equiv_pos_site_id
_symmetry_equiv_pos_as_xyz
1 x,y,z
2 -x,1/2+y,1/2-z
3 -x,-y,-z
4 x,1/2-y,1/2+z
_cell_length_a                   5.538(1)
_cell_length_b                   24.334(4)
_cell_length_c                   7.923(2)
_cell_angle_alpha                90
_cell_angle_beta                 92.11(1)
_cell_angle_gamma                90
_cell_volume                     1066.99
loop_
_atom_site_label
_atom_site_type_symbol
_atom_site_fract_x
_atom_site_fract_y
_atom_site_fract_z
S1 S 0.35210(7) 0.069050(15) -0.18737(5)
Na1 Na 0.11549(11) -0.06102(3) -0.08462(8)
O1 O 0.2108(2) 0.03463(4) -0.07956(15)
O2 O 0.6116(2) 0.06375(5) -0.15940(15)
O3 O 0.2791(2) 0.06664(5) -0.36441(15)
O4 O 0.3972(3) -0.10077(6) -0.2531(2)
O5 O -0.1828(2) -0.03591(6) -0.3009(2)
N1 N 0.3038(2) 0.13755(5) -0.1411(2)
N2 N 0.1216(2) 0.14471(5) -0.0530(2)
N3 N -0.1640(3) 0.36069(6) 0.0715(2)
C1 C 0.0630(3) 0.20031(6) -0.0221(2)
C2 C 0.2038(3) 0.24510(7) -0.0704(2)
C3 C 0.1316(3) 0.29769(7) -0.0370(2)
C4 C -0.0860(3) 0.30737(7) 0.0449(2)
C5 C -0.2256(3) 0.26255(7) 0.0929(2)
C6 C -0.1514(3) 0.20951(7) 0.0604(2)
H1 H 0.3489(43) 0.2386(9) -0.1316(29)
H2 H 0.2168(38) 0.3274(9) -0.0718(25)
H3 H -0.3741(40) 0.2701(9) 0.1531(26)
H4 H -0.2447(37) 0.1801(9) 0.0957(25)
H5 H -0.2595(44) 0.3646(9) 0.1518(31)
H6 H -0.0470(48) 0.3859(11) 0.0742(30)
H7 H 0.3544(45) -0.1099(10) -0.3488(33)
H8 H 0.5168(53) -0.0812(11) -0.2676(32)
H9 H -0.1878(48) -0.0343(11) -0.3953(37)
H10 H -0.2353(50) -0.0042(12) -0.2719(34)
O1B O -0.2108(2) -0.03463(4) 0.07956(15)
O2B O 0.3884(2) -0.06375(5) 0.15940(15)
Na1B Na -0.11549(11) 0.06102(3) 0.08462(8)
Na1B_2 Na 0.88451(11) 0.06102(3) 0.08462(8)
N2B N -0.1216(2) -0.14471(5) 0.0530(2)
loop_
_geom_bond_atom_site_label_1
_geom_bond_atom_site_label_2
_geom_bond_site_symmetry_1
_geom_bond_site_symmetry_2
S1 O1 1_555 1_555
Na1 O1 1_555 1_555
O1 Na1B 1_555 1_555
O2 S1 1_555 1_555
O3 S1 1_555 1_555
O4 Na1 1_555 1_555
O5 Na1 1_555 1_555
N1 S1 1_555 1_555
N2 N1 1_555 1_555
N3 C4 1_555 1_555
C1 N2 1_555 1_555
C2 C1 1_555 1_555
C3 C2 1_555 1_555
C4 C3 1_555 1_555
C5 C4 1_555 1_555
C6 C1 1_555 1_555
H1 C2 1_555 1_555
H2 C3 1_555 1_555
H3 C5 1_555 1_555
H4 C6 1_555 1_555
H5 N3 1_555 1_555
H6 N3 1_555 1_555
H7 O4 1_555 1_555
H8 O4 1_555 1_555
H9 O5 1_555 1_555
H10 O5 1_555 1_555
O1B Na1 1_555 1_555
O2B Na1 1_555 1_555
Na1B N2 1_555 1_555
Na1B_2 O2 1_555 1_555
N2B Na1 1_555 1_555
C5 C6 1_555 1_555
O1B Na1B 1_555 1_555

#END
