
#######################################################################
#
#                 Cambridge Crystallographic Data Centre
#                                CCDC 
#
#######################################################################
#
# If this CIF has been generated from an entry in the Cambridge 
# Structural Database, then it will include bibliographic, chemical, 
# crystal, experimental, refinement or atomic coordinate data resulting 
# from the CCDC's data processing and validation procedures.
#
#######################################################################

data_RADYOM
_symmetry_cell_setting           triclinic
_symmetry_space_group_name_H-M   'P -1'
_symmetry_Int_Tables_number      2
_space_group_name_Hall           '-P 1'
loop_
_symmetry_equiv_pos_site_id
_symmetry_equiv_pos_as_xyz
1 x,y,z
2 -x,-y,-z
_cell_length_a                   7.816(5)
_cell_length_b                   14.875(13)
_cell_length_c                   15.196(11)
_cell_angle_alpha                63.78(3)
_cell_angle_beta                 81.62(3)
_cell_angle_gamma                81.61(3)
_cell_volume                     1561.39
loop_
_atom_site_label
_atom_site_type_symbol
_atom_site_fract_x
_atom_site_fract_y
_atom_site_fract_z
Yb1 Yb 0.35291(9) 0.25083(5) 0.25100(5)
Ag1 Ag 0.1312(2) 0.09114(10) 0.49240(11)
Ag2 Ag 0.1805(2) 0.40837(10) 0.00676(11)
Ag3 Ag -0.2132(2) 0.33026(12) 0.01868(14)
Ag4 Ag 0.3033(2) -0.17140(12) 0.51530(14)
Ag5 Ag -0.1477(2) 0.25114(12) 0.25187(14)
O1 O 0.1017(18) 0.2539(10) 0.0329(11)
O2 O 0.3145(17) 0.2159(10) 0.1253(10)
O3 O 0.1445(17) -0.0139(9) 0.4050(9)
O4 O 0.1183(15) 0.1456(9) 0.2989(9)
O5 O -0.0266(18) 0.2443(10) 0.4660(11)
O6 O 0.2205(17) 0.2877(9) 0.3735(10)
O7 O 0.0850(17) 0.5139(9) 0.0947(9)
O8 O 0.0868(15) 0.3549(8) 0.2022(9)
O9 O 0.558(2) 0.3383(11) 0.4368(12)
O10 O 0.5699(15) 0.3044(9) 0.3078(10)
O11 O 0.7069(18) 0.4407(10) 0.0953(11)
O12 O 0.4383(18) 0.3955(9) 0.1275(11)
O13 O 0.7255(17) 0.0623(9) 0.4075(10)
O14 O 0.4487(15) 0.1066(9) 0.3752(9)
O15 O 0.6344(16) 0.1985(9) 0.1939(10)
O16 O 0.7184(18) 0.1669(11) 0.0649(10)
C1 C 0.192(2) 0.1908(13) 0.0983(13)
C2 C 0.161(3) 0.0816(13) 0.1378(15)
C3 C 0.155(3) 0.0463(16) 0.0679(16)
H1 H 0.1664 0.0895 0.0011
C4 C 0.130(3) -0.053(2) 0.098(2)
H2 H 0.1338 -0.0782 0.0512
C5 C 0.100(3) -0.1188(16) 0.1992(17)
H3 H 0.0784 -0.1853 0.2193
C6 C 0.102(3) -0.0807(15) 0.2670(17)
H4 H 0.0857 -0.1231 0.3338
C7 C 0.130(2) 0.0190(12) 0.2383(15)
C8 C 0.132(2) 0.0513(12) 0.3164(13)
C9 C 0.067(3) 0.3088(15) 0.3975(15)
C10 C -0.010(3) 0.4153(15) 0.3624(15)
C11 C -0.091(3) 0.4525(16) 0.4297(17)
H5 H -0.1084 0.4086 0.4960
C12 C -0.143(4) 0.553(2) 0.399(2)
H6 H -0.1883 0.5768 0.4456
C13 C -0.131(3) 0.6178(16) 0.3014(18)
H7 H -0.1654 0.6860 0.2816
C14 C -0.069(3) 0.5821(14) 0.2328(15)
H8 H -0.0726 0.6254 0.1663
C15 C 0.000(2) 0.4823(13) 0.2598(13)
C16 C 0.057(2) 0.4478(13) 0.1814(12)
C17 C 0.538(2) 0.3633(14) 0.3514(14)
C18 C 0.486(3) 0.4723(15) 0.2899(15)
C19 C 0.427(3) 0.5395(18) 0.331(2)
H9 H 0.4146 0.5144 0.3995
C20 C 0.386(3) 0.6387(18) 0.278(2)
H10 H 0.3461 0.6809 0.3086
C21 C 0.405(3) 0.6762(15) 0.1748(19)
H11 H 0.3752 0.7441 0.1362
C22 C 0.467(3) 0.6130(15) 0.1297(18)
H12 H 0.4852 0.6394 0.0614
C23 C 0.502(2) 0.5121(13) 0.1852(13)
C24 C 0.555(2) 0.4422(13) 0.1345(13)
C25 C 0.659(2) 0.1403(13) 0.1536(14)
C26 C 0.624(2) 0.0316(13) 0.2139(15)
C27 C 0.625(3) -0.0314(16) 0.1669(17)
H13 H 0.6423 -0.0067 0.0987
C28 C 0.597(4) -0.1329(18) 0.2267(19)
H14 H 0.5806 -0.1738 0.1975
C29 C 0.595(3) -0.1713(18) 0.3234(19)
H15 H 0.5901 -0.2402 0.3604
C30 C 0.600(3) -0.1095(15) 0.3722(17)
H16 H 0.5975 -0.1374 0.4404
C31 C 0.609(2) -0.0059(13) 0.3159(14)
C32 C 0.597(3) 0.0593(13) 0.3695(14)
Ag1A Ag -0.1312(2) -0.09114(10) 0.50760(11)
Ag1A_2 Ag 0.8688(2) -0.09114(10) 0.50760(11)
Ag2A Ag -0.1805(2) 0.59163(10) -0.00676(11)
Ag2A_2 Ag 0.8195(2) 0.59163(10) -0.00676(11)
Ag3A Ag 0.2132(2) 0.66974(12) -0.01868(14)
Ag3_2 Ag 0.7868(2) 0.33026(12) 0.01868(14)
Ag4A Ag -0.3033(2) 0.17140(12) 0.48470(14)
Ag4A_2 Ag 0.6967(2) 0.17140(12) 0.48470(14)
Ag5_2 Ag 0.8523(2) 0.25114(12) 0.25187(14)
O3A O -0.1445(17) 0.0139(9) 0.5950(9)
O5A O 0.0266(18) -0.2443(10) 0.5340(11)
O7A O -0.0850(17) 0.4861(9) -0.0947(9)
O9A O 0.442(2) -0.3383(11) 0.5632(12)
O10_2 O -0.4301(15) 0.3044(9) 0.3078(10)
O11A O 0.2931(18) 0.5593(10) -0.0953(11)
O11_2 O -0.2931(18) 0.4407(10) 0.0953(11)
O13A O 0.2745(17) -0.0623(9) 0.5925(10)
O15_2 O -0.3656(16) 0.1985(9) 0.1939(10)
O16_2 O -0.2816(18) 0.1669(11) 0.0649(10)
loop_
_geom_bond_atom_site_label_1
_geom_bond_atom_site_label_2
_geom_bond_site_symmetry_1
_geom_bond_site_symmetry_2
Yb1 O2 1_555 1_555
Ag1 O3 1_555 1_555
Ag2 O1 1_555 1_555
Ag3 O1 1_555 1_555
Ag4 O3 1_555 1_555
Ag5 O4 1_555 1_555
O1 C1 1_555 1_555
O2 C1 1_555 1_555
O3 C8 1_555 1_555
O4 Yb1 1_555 1_555
O5 Ag1 1_555 1_555
O6 Yb1 1_555 1_555
O7 Ag2 1_555 1_555
O8 Yb1 1_555 1_555
O9 C17 1_555 1_555
O10 Yb1 1_555 1_555
O11 C24 1_555 1_555
O12 Yb1 1_555 1_555
O13 C32 1_555 1_555
O14 Yb1 1_555 1_555
O15 Yb1 1_555 1_555
O16 C25 1_555 1_555
C1 C2 1_555 1_555
C2 C3 1_555 1_555
C3 H1 1_555 1_555
C4 C3 1_555 1_555
H2 C4 1_555 1_555
C5 C4 1_555 1_555
H3 C5 1_555 1_555
C6 C5 1_555 1_555
H4 C6 1_555 1_555
C7 C2 1_555 1_555
C8 O4 1_555 1_555
C9 O5 1_555 1_555
C10 C9 1_555 1_555
C11 C10 1_555 1_555
H5 C11 1_555 1_555
C12 C11 1_555 1_555
H6 C12 1_555 1_555
C13 C12 1_555 1_555
H7 C13 1_555 1_555
C14 C13 1_555 1_555
H8 C14 1_555 1_555
C15 C10 1_555 1_555
C16 O7 1_555 1_555
C17 O10 1_555 1_555
C18 C17 1_555 1_555
C19 C18 1_555 1_555
H9 C19 1_555 1_555
C20 C19 1_555 1_555
H10 C20 1_555 1_555
C21 C20 1_555 1_555
H11 C21 1_555 1_555
C22 C21 1_555 1_555
H12 C22 1_555 1_555
C23 C18 1_555 1_555
C24 O12 1_555 1_555
C25 O15 1_555 1_555
C26 C25 1_555 1_555
C27 C26 1_555 1_555
H13 C27 1_555 1_555
C28 C27 1_555 1_555
H14 C28 1_555 1_555
C29 C28 1_555 1_555
H15 C29 1_555 1_555
C30 C29 1_555 1_555
H16 C30 1_555 1_555
C31 C26 1_555 1_555
C32 O14 1_555 1_555
Ag1A O3 1_555 1_555
Ag1A_2 O13 1_555 1_555
Ag2A O7 1_555 1_555
Ag2A_2 O11 1_555 1_555
Ag3A O7 1_555 1_555
Ag3_2 O11 1_555 1_555
Ag4A O5 1_555 1_555
Ag4A_2 O9 1_555 1_555
Ag5_2 O10 1_555 1_555
O3A Ag1 1_555 1_555
O5A Ag4 1_555 1_555
O7A Ag2 1_555 1_555
O9A Ag4 1_555 1_555
O10_2 Ag5 1_555 1_555
O11A Ag2 1_555 1_555
O11_2 Ag3 1_555 1_555
O13A Ag1 1_555 1_555
O15_2 Ag5 1_555 1_555
O16_2 Ag3 1_555 1_555
Ag3 O7A 1_555 1_555
Ag4 O13A 1_555 1_555
Ag5 O8 1_555 1_555
O6 C9 1_555 1_555
O8 C16 1_555 1_555
O13 Ag4A_2 1_555 1_555
O15 Ag5_2 1_555 1_555
O16 Ag3_2 1_555 1_555
C6 C7 1_555 1_555
C7 C8 1_555 1_555
C14 C15 1_555 1_555
C15 C16 1_555 1_555
C22 C23 1_555 1_555
C23 C24 1_555 1_555
C30 C31 1_555 1_555
C31 C32 1_555 1_555
Ag1A O3A 1_555 1_555
Ag1A O5A 1_555 1_555
Ag2A O7A 1_555 1_555
Ag2A O11_2 1_555 1_555
Ag3A O11A 1_555 1_555
Ag4A O3A 1_555 1_555

#END
