
#######################################################################
#
#                 Cambridge Crystallographic Data Centre
#                                CCDC 
#
#######################################################################
#
# If this CIF has been generated from an entry in the Cambridge 
# Structural Database, then it will include bibliographic, chemical, 
# crystal, experimental, refinement or atomic coordinate data resulting 
# from the CCDC's data processing and validation procedures.
#
#######################################################################

data_RADYUS
_symmetry_cell_setting           triclinic
_symmetry_space_group_name_H-M   'P -1'
_symmetry_Int_Tables_number      2
_space_group_name_Hall           '-P 1'
loop_
_symmetry_equiv_pos_site_id
_symmetry_equiv_pos_as_xyz
1 x,y,z
2 -x,-y,-z
_cell_length_a                   7.9028(11)
_cell_length_b                   14.954(2)
_cell_length_c                   15.182(2)
_cell_angle_alpha                63.4592(17)
_cell_angle_beta                 81.4312(19)
_cell_angle_gamma                81.2837(17)
_cell_volume                     1579.85
loop_
_atom_site_label
_atom_site_type_symbol
_atom_site_fract_x
_atom_site_fract_y
_atom_site_fract_z
Eu1 Eu 0.35555(3) 0.25131(2) 0.25159(2)
Ag1 Ag 0.12553(6) 0.08966(3) 0.49158(3)
Ag2 Ag 0.17520(7) 0.40995(3) 0.00756(3)
Ag3 Ag -0.21533(7) 0.33114(4) 0.01772(4)
Ag4 Ag 0.30890(7) -0.17086(4) 0.51331(4)
Ag5 Ag -0.14562(6) 0.25177(4) 0.25233(4)
O1 O 0.0989(6) 0.2568(3) 0.0346(3)
O2 O 0.3228(5) 0.2148(3) 0.1212(3)
O3 O 0.1446(5) -0.0151(3) 0.4030(3)
O4 O 0.1203(5) 0.1448(3) 0.2950(3)
O5 O -0.0316(5) 0.2412(3) 0.4643(3)
O6 O 0.2174(5) 0.2884(3) 0.3798(3)
O7 O 0.0841(5) 0.5166(3) 0.0955(3)
O8 O 0.0863(5) 0.3562(3) 0.2031(3)
O9 O 0.5575(6) 0.3374(3) 0.4415(3)
O10 O 0.5726(5) 0.3061(3) 0.3105(3)
O11 O 0.7127(5) 0.4398(3) 0.0983(3)
O12 O 0.4431(5) 0.4013(3) 0.1236(3)
O13 O 0.7337(5) 0.0629(3) 0.4052(3)
O14 O 0.4559(5) 0.1025(3) 0.3811(3)
O15 O 0.6396(5) 0.1977(3) 0.1956(3)
O16 O 0.7251(6) 0.1662(3) 0.0648(3)
C1 C 0.1962(8) 0.1927(4) 0.0955(4)
C2 C 0.1630(7) 0.0845(4) 0.1342(4)
C3 C 0.1633(8) 0.0480(5) 0.0650(5)
H1 H 0.1804 0.0908 -0.0020
C4 C 0.1385(9) -0.0511(5) 0.0941(5)
H2 H 0.1410 -0.0749 0.0468
C5 C 0.1102(9) -0.1147(5) 0.1926(5)
H3 H 0.0921 -0.1813 0.2123
C6 C 0.1090(8) -0.0787(4) 0.2619(5)
H4 H 0.0886 -0.1218 0.3286
C7 C 0.1372(7) 0.0198(4) 0.2352(4)
C8 C 0.1345(7) 0.0509(4) 0.3162(4)
C9 C 0.0608(8) 0.3072(4) 0.4036(4)
C10 C -0.0160(7) 0.4147(4) 0.3631(4)
C11 C -0.0965(8) 0.4488(5) 0.4320(5)
H5 H -0.1103 0.4039 0.4985
C12 C -0.1558(10) 0.5487(5) 0.4025(5)
H6 H -0.2065 0.5714 0.4492
C13 C -0.1397(9) 0.6150(5) 0.3036(5)
H7 H -0.1787 0.6824 0.2840
C14 C -0.0674(9) 0.5827(4) 0.2342(5)
H8 H -0.0596 0.6279 0.1677
C15 C -0.0050(7) 0.4820(4) 0.2626(4)
C16 C 0.0598(7) 0.4501(4) 0.1822(4)
C17 C 0.5412(7) 0.3652(4) 0.3532(5)
C18 C 0.4911(8) 0.4745(4) 0.2887(4)
C19 C 0.4338(8) 0.5401(5) 0.3307(5)
H9 H 0.4255 0.5158 0.3991
C20 C 0.3887(9) 0.6410(5) 0.2737(5)
H10 H 0.3446 0.6835 0.3032
C21 C 0.4109(9) 0.6774(5) 0.1714(5)
H11 H 0.3851 0.7455 0.1321
C22 C 0.4697(8) 0.6148(5) 0.1276(5)
H12 H 0.4861 0.6410 0.0590
C23 C 0.5059(7) 0.5111(4) 0.1853(4)
C24 C 0.5592(7) 0.4449(4) 0.1330(4)
C25 C 0.6686(7) 0.1392(4) 0.1515(4)
C26 C 0.6320(7) 0.0314(4) 0.2147(4)
C27 C 0.6233(8) -0.0306(5) 0.1708(5)
H13 H 0.6316 -0.0043 0.1022
C28 C 0.6026(9) -0.1314(5) 0.2273(5)
H14 H 0.5941 -0.1721 0.1967
C29 C 0.5944(9) -0.1715(5) 0.3291(5)
H15 H 0.5831 -0.2395 0.3671
C30 C 0.6032(8) -0.1106(4) 0.3741(5)
H16 H 0.6014 -0.1387 0.4425
C31 C 0.6147(7) -0.0073(4) 0.3191(4)
C32 C 0.6028(7) 0.0586(4) 0.3707(4)
Ag1A Ag -0.12553(6) -0.08966(3) 0.50842(3)
Ag1A_2 Ag 0.87447(6) -0.08966(3) 0.50842(3)
Ag2A Ag -0.17520(7) 0.59005(3) -0.00756(3)
Ag2A_2 Ag 0.82480(7) 0.59005(3) -0.00756(3)
Ag3A Ag 0.21533(7) 0.66886(4) -0.01772(4)
Ag3_2 Ag 0.78467(7) 0.33114(4) 0.01772(4)
Ag4A Ag -0.30890(7) 0.17086(4) 0.48669(4)
Ag4A_2 Ag 0.69110(7) 0.17086(4) 0.48669(4)
Ag5_2 Ag 0.85438(6) 0.25177(4) 0.25233(4)
O3A O -0.1446(5) 0.0151(3) 0.5970(3)
O5A O 0.0316(5) -0.2412(3) 0.5357(3)
O7A O -0.0841(5) 0.4834(3) -0.0955(3)
O9A O 0.4425(6) -0.3374(3) 0.5585(3)
O10_2 O -0.4274(5) 0.3061(3) 0.3105(3)
O11A O 0.2873(5) 0.5602(3) -0.0983(3)
O11_2 O -0.2873(5) 0.4398(3) 0.0983(3)
O13A O 0.2663(5) -0.0629(3) 0.5948(3)
O15_2 O -0.3604(5) 0.1977(3) 0.1956(3)
O16_2 O -0.2749(6) 0.1662(3) 0.0648(3)
loop_
_geom_bond_atom_site_label_1
_geom_bond_atom_site_label_2
_geom_bond_site_symmetry_1
_geom_bond_site_symmetry_2
Eu1 O2 1_555 1_555
Ag1 O3 1_555 1_555
Ag2 O1 1_555 1_555
Ag3 O1 1_555 1_555
Ag4 O3 1_555 1_555
Ag5 O4 1_555 1_555
O1 C1 1_555 1_555
O2 C1 1_555 1_555
O3 C8 1_555 1_555
O4 Eu1 1_555 1_555
O5 Ag1 1_555 1_555
O6 Eu1 1_555 1_555
O7 Ag2 1_555 1_555
O8 Eu1 1_555 1_555
O9 C17 1_555 1_555
O10 Eu1 1_555 1_555
O11 C24 1_555 1_555
O12 Eu1 1_555 1_555
O13 C32 1_555 1_555
O14 Eu1 1_555 1_555
O15 Eu1 1_555 1_555
O16 C25 1_555 1_555
C1 C2 1_555 1_555
C2 C3 1_555 1_555
C3 H1 1_555 1_555
C4 C3 1_555 1_555
H2 C4 1_555 1_555
C5 C4 1_555 1_555
H3 C5 1_555 1_555
C6 C5 1_555 1_555
H4 C6 1_555 1_555
C7 C2 1_555 1_555
C8 O4 1_555 1_555
C9 O5 1_555 1_555
C10 C9 1_555 1_555
C11 C10 1_555 1_555
H5 C11 1_555 1_555
C12 C11 1_555 1_555
H6 C12 1_555 1_555
C13 C12 1_555 1_555
H7 C13 1_555 1_555
C14 C13 1_555 1_555
H8 C14 1_555 1_555
C15 C10 1_555 1_555
C16 O7 1_555 1_555
C17 O10 1_555 1_555
C18 C17 1_555 1_555
C19 C18 1_555 1_555
H9 C19 1_555 1_555
C20 C19 1_555 1_555
H10 C20 1_555 1_555
C21 C20 1_555 1_555
H11 C21 1_555 1_555
C22 C21 1_555 1_555
H12 C22 1_555 1_555
C23 C18 1_555 1_555
C24 O12 1_555 1_555
C25 O15 1_555 1_555
C26 C25 1_555 1_555
C27 C26 1_555 1_555
H13 C27 1_555 1_555
C28 C27 1_555 1_555
H14 C28 1_555 1_555
C29 C28 1_555 1_555
H15 C29 1_555 1_555
C30 C29 1_555 1_555
H16 C30 1_555 1_555
C31 C26 1_555 1_555
C32 O14 1_555 1_555
Ag1A O3 1_555 1_555
Ag1A_2 O13 1_555 1_555
Ag2A O7 1_555 1_555
Ag2A_2 O11 1_555 1_555
Ag3A O7 1_555 1_555
Ag3_2 O11 1_555 1_555
Ag4A O5 1_555 1_555
Ag4A_2 O9 1_555 1_555
Ag5_2 O10 1_555 1_555
O3A Ag1 1_555 1_555
O5A Ag4 1_555 1_555
O7A Ag2 1_555 1_555
O9A Ag4 1_555 1_555
O10_2 Ag5 1_555 1_555
O11A Ag2 1_555 1_555
O11_2 Ag3 1_555 1_555
O13A Ag1 1_555 1_555
O15_2 Ag5 1_555 1_555
O16_2 Ag3 1_555 1_555
Ag3 O7A 1_555 1_555
Ag4 O13A 1_555 1_555
Ag5 O8 1_555 1_555
O6 C9 1_555 1_555
O8 C16 1_555 1_555
O13 Ag4A_2 1_555 1_555
O15 Ag5_2 1_555 1_555
O16 Ag3_2 1_555 1_555
C6 C7 1_555 1_555
C7 C8 1_555 1_555
C14 C15 1_555 1_555
C15 C16 1_555 1_555
C22 C23 1_555 1_555
C23 C24 1_555 1_555
C30 C31 1_555 1_555
C31 C32 1_555 1_555
Ag1A O3A 1_555 1_555
Ag1A O5A 1_555 1_555
Ag2A O7A 1_555 1_555
Ag2A O11_2 1_555 1_555
Ag3A O11A 1_555 1_555
Ag4A O3A 1_555 1_555

#END
