
#######################################################################
#
#                 Cambridge Crystallographic Data Centre
#                                CCDC 
#
#######################################################################
#
# If this CIF has been generated from an entry in the Cambridge 
# Structural Database, then it will include bibliographic, chemical, 
# crystal, experimental, refinement or atomic coordinate data resulting 
# from the CCDC's data processing and validation procedures.
#
#######################################################################

data_RADZAZ
_symmetry_cell_setting           triclinic
_symmetry_space_group_name_H-M   'P -1'
_symmetry_Int_Tables_number      2
_space_group_name_Hall           '-P 1'
loop_
_symmetry_equiv_pos_site_id
_symmetry_equiv_pos_as_xyz
1 x,y,z
2 -x,-y,-z
_cell_length_a                   7.8516(16)
_cell_length_b                   14.938(3)
_cell_length_c                   15.208(3)
_cell_angle_alpha                63.69(3)
_cell_angle_beta                 81.53(3)
_cell_angle_gamma                81.41(3)
_cell_volume                     1574.36
loop_
_atom_site_label
_atom_site_type_symbol
_atom_site_fract_x
_atom_site_fract_y
_atom_site_fract_z
Er1 Er 0.35371(6) 0.25125(4) 0.25139(3)
Ag1 Ag 0.12902(13) 0.09026(7) 0.49223(6)
Ag2 Ag 0.17915(13) 0.40899(7) 0.00682(7)
Ag3 Ag -0.21374(15) 0.33131(8) 0.01806(8)
Ag4 Ag 0.30624(15) -0.17051(8) 0.51362(8)
Ag5 Ag -0.14703(12) 0.25167(8) 0.25238(8)
O1 O 0.1021(12) 0.2551(7) 0.0335(6)
O2 O 0.3192(10) 0.2144(6) 0.1244(5)
O3 O 0.1430(11) -0.0133(7) 0.4035(5)
O4 O 0.1200(10) 0.1453(6) 0.2962(5)
O5 O -0.0281(12) 0.2420(7) 0.4679(6)
O6 O 0.2170(10) 0.2874(6) 0.3768(5)
O7 O 0.0843(11) 0.5147(6) 0.0941(5)
O8 O 0.0860(10) 0.3561(6) 0.2019(5)
O9 O 0.5572(13) 0.3354(7) 0.4410(6)
O10 O 0.5715(9) 0.3047(6) 0.3098(5)
O11 O 0.7090(10) 0.4408(6) 0.0974(6)
O12 O 0.4399(10) 0.3976(6) 0.1268(6)
O13 O 0.7297(11) 0.0624(7) 0.4065(6)
O14 O 0.4519(10) 0.1050(6) 0.3773(6)
O15 O 0.6359(9) 0.1999(6) 0.1950(5)
O16 O 0.7205(12) 0.1686(7) 0.0647(6)
C1 C 0.1945(16) 0.1926(9) 0.0960(8)
C2 C 0.1620(15) 0.0843(9) 0.1365(7)
C3 C 0.1587(17) 0.0457(10) 0.0683(9)
H1 H 0.1749 0.0881 0.0015
C4 C 0.1325(19) -0.0520(10) 0.0960(9)
H2 H 0.1332 -0.0754 0.0486
C5 C 0.105(2) -0.1151(11) 0.1940(10)
H3 H 0.0872 -0.1817 0.2135
C6 C 0.1042(18) -0.0792(10) 0.2638(9)
H4 H 0.0827 -0.1214 0.3303
C7 C 0.1349(16) 0.0186(8) 0.2354(8)
C8 C 0.1338(15) 0.0518(9) 0.3161(8)
C9 C 0.0612(14) 0.3072(9) 0.4037(7)
C10 C -0.0136(15) 0.4144(9) 0.3617(8)
C11 C -0.0972(17) 0.4487(11) 0.4316(9)
H5 H -0.1146 0.4039 0.4976
C12 C -0.153(2) 0.5505(11) 0.4008(9)
H6 H -0.2022 0.5736 0.4474
C13 C -0.138(2) 0.6167(11) 0.3036(11)
H7 H -0.1753 0.6843 0.2844
C14 C -0.0650(19) 0.5815(10) 0.2318(9)
H8 H -0.0575 0.6260 0.1653
C15 C -0.0047(14) 0.4811(9) 0.2607(8)
C16 C 0.0599(15) 0.4483(9) 0.1818(8)
C17 C 0.5426(15) 0.3638(9) 0.3554(9)
C18 C 0.4869(16) 0.4717(9) 0.2897(8)
C19 C 0.4277(18) 0.5376(11) 0.3333(12)
H9 H 0.4152 0.5128 0.4016
C20 C 0.388(2) 0.6386(10) 0.2761(11)
H10 H 0.3479 0.6809 0.3064
C21 C 0.4071(18) 0.6786(10) 0.1726(10)
H11 H 0.3800 0.7466 0.1341
C22 C 0.4681(16) 0.6131(9) 0.1290(10)
H12 H 0.4859 0.6385 0.0608
C23 C 0.5027(15) 0.5104(9) 0.1867(9)
C24 C 0.5549(16) 0.4440(8) 0.1350(8)
C25 C 0.6625(14) 0.1406(8) 0.1527(8)
C26 C 0.6278(15) 0.0326(9) 0.2118(8)
C27 C 0.6231(18) -0.0306(10) 0.1694(9)
H13 H 0.6342 -0.0045 0.1010
C28 C 0.603(2) -0.1304(11) 0.2227(11)
H14 H 0.5943 -0.1707 0.1916
C29 C 0.5948(17) -0.1708(10) 0.3263(11)
H15 H 0.5857 -0.2391 0.3641
C30 C 0.6006(16) -0.1098(9) 0.3718(9)
H16 H 0.5973 -0.1373 0.4401
C31 C 0.6113(15) -0.0065(9) 0.3162(9)
C32 C 0.6005(14) 0.0594(9) 0.3711(8)
Ag1A Ag -0.12902(13) -0.09026(7) 0.50777(6)
Ag1A_2 Ag 0.87098(13) -0.09026(7) 0.50777(6)
Ag2A Ag -0.17915(13) 0.59101(7) -0.00682(7)
Ag2A_2 Ag 0.82085(13) 0.59101(7) -0.00682(7)
Ag3A Ag 0.21374(15) 0.66869(8) -0.01806(8)
Ag3_2 Ag 0.78626(15) 0.33131(8) 0.01806(8)
Ag4A Ag -0.30624(15) 0.17051(8) 0.48638(8)
Ag4A_2 Ag 0.69376(15) 0.17051(8) 0.48638(8)
Ag5_2 Ag 0.85297(12) 0.25167(8) 0.25238(8)
O3A O -0.1430(11) 0.0133(7) 0.5965(5)
O5A O 0.0281(12) -0.2420(7) 0.5321(6)
O7A O -0.0843(11) 0.4853(6) -0.0941(5)
O9A O 0.4428(13) -0.3354(7) 0.5590(6)
O10_2 O -0.4285(9) 0.3047(6) 0.3098(5)
O11A O 0.2910(10) 0.5592(6) -0.0974(6)
O11_2 O -0.2910(10) 0.4408(6) 0.0974(6)
O13A O 0.2703(11) -0.0624(7) 0.5935(6)
O15_2 O -0.3641(9) 0.1999(6) 0.1950(5)
O16_2 O -0.2795(12) 0.1686(7) 0.0647(6)
loop_
_geom_bond_atom_site_label_1
_geom_bond_atom_site_label_2
_geom_bond_site_symmetry_1
_geom_bond_site_symmetry_2
Er1 O2 1_555 1_555
Ag1 O3 1_555 1_555
Ag2 O1 1_555 1_555
Ag3 O1 1_555 1_555
Ag4 O3 1_555 1_555
Ag5 O4 1_555 1_555
O1 C1 1_555 1_555
O2 C1 1_555 1_555
O3 C8 1_555 1_555
O4 Er1 1_555 1_555
O5 Ag1 1_555 1_555
O6 Er1 1_555 1_555
O7 Ag2 1_555 1_555
O8 Er1 1_555 1_555
O9 C17 1_555 1_555
O10 Er1 1_555 1_555
O11 C24 1_555 1_555
O12 Er1 1_555 1_555
O13 C32 1_555 1_555
O14 Er1 1_555 1_555
O15 Er1 1_555 1_555
O16 C25 1_555 1_555
C1 C2 1_555 1_555
C2 C3 1_555 1_555
C3 H1 1_555 1_555
C4 C3 1_555 1_555
H2 C4 1_555 1_555
C5 C4 1_555 1_555
H3 C5 1_555 1_555
C6 C5 1_555 1_555
H4 C6 1_555 1_555
C7 C2 1_555 1_555
C8 O4 1_555 1_555
C9 O5 1_555 1_555
C10 C9 1_555 1_555
C11 C10 1_555 1_555
H5 C11 1_555 1_555
C12 C11 1_555 1_555
H6 C12 1_555 1_555
C13 C12 1_555 1_555
H7 C13 1_555 1_555
C14 C13 1_555 1_555
H8 C14 1_555 1_555
C15 C10 1_555 1_555
C16 O7 1_555 1_555
C17 O10 1_555 1_555
C18 C17 1_555 1_555
C19 C18 1_555 1_555
H9 C19 1_555 1_555
C20 C19 1_555 1_555
H10 C20 1_555 1_555
C21 C20 1_555 1_555
H11 C21 1_555 1_555
C22 C21 1_555 1_555
H12 C22 1_555 1_555
C23 C18 1_555 1_555
C24 O12 1_555 1_555
C25 O15 1_555 1_555
C26 C25 1_555 1_555
C27 C26 1_555 1_555
H13 C27 1_555 1_555
C28 C27 1_555 1_555
H14 C28 1_555 1_555
C29 C28 1_555 1_555
H15 C29 1_555 1_555
C30 C29 1_555 1_555
H16 C30 1_555 1_555
C31 C26 1_555 1_555
C32 O14 1_555 1_555
Ag1A O3 1_555 1_555
Ag1A_2 O13 1_555 1_555
Ag2A O7 1_555 1_555
Ag2A_2 O11 1_555 1_555
Ag3A O7 1_555 1_555
Ag3_2 O11 1_555 1_555
Ag4A O5 1_555 1_555
Ag4A_2 O9 1_555 1_555
Ag5_2 O10 1_555 1_555
O3A Ag1 1_555 1_555
O5A Ag4 1_555 1_555
O7A Ag2 1_555 1_555
O9A Ag4 1_555 1_555
O10_2 Ag5 1_555 1_555
O11A Ag2 1_555 1_555
O11_2 Ag3 1_555 1_555
O13A Ag1 1_555 1_555
O15_2 Ag5 1_555 1_555
O16_2 Ag3 1_555 1_555
Ag3 O7A 1_555 1_555
Ag4 O13A 1_555 1_555
Ag5 O8 1_555 1_555
O6 C9 1_555 1_555
O8 C16 1_555 1_555
O13 Ag4A_2 1_555 1_555
O15 Ag5_2 1_555 1_555
O16 Ag3_2 1_555 1_555
C6 C7 1_555 1_555
C7 C8 1_555 1_555
C14 C15 1_555 1_555
C15 C16 1_555 1_555
C22 C23 1_555 1_555
C23 C24 1_555 1_555
C30 C31 1_555 1_555
C31 C32 1_555 1_555
Ag1A O3A 1_555 1_555
Ag1A O5A 1_555 1_555
Ag2A O7A 1_555 1_555
Ag2A O11_2 1_555 1_555
Ag3A O11A 1_555 1_555
Ag4A O3A 1_555 1_555

#END
