
#######################################################################
#
#                 Cambridge Crystallographic Data Centre
#                                CCDC 
#
#######################################################################
#
# If this CIF has been generated from an entry in the Cambridge 
# Structural Database, then it will include bibliographic, chemical, 
# crystal, experimental, refinement or atomic coordinate data resulting 
# from the CCDC's data processing and validation procedures.
#
#######################################################################

data_RADZED
_symmetry_cell_setting           triclinic
_symmetry_space_group_name_H-M   'P -1'
_symmetry_Int_Tables_number      2
_space_group_name_Hall           '-P 1'
loop_
_symmetry_equiv_pos_site_id
_symmetry_equiv_pos_as_xyz
1 x,y,z
2 -x,-y,-z
_cell_length_a                   7.858(5)
_cell_length_b                   14.940(10)
_cell_length_c                   15.211(11)
_cell_angle_alpha                63.63(3)
_cell_angle_beta                 81.49(3)
_cell_angle_gamma                81.38(2)
_cell_volume                     1575.16
loop_
_atom_site_label
_atom_site_type_symbol
_atom_site_fract_x
_atom_site_fract_y
_atom_site_fract_z
Ho1 Ho 0.35415(7) 0.25110(4) 0.25135(4)
Ag1 Ag 0.12829(13) 0.09028(8) 0.49206(8)
Ag2 Ag 0.17800(14) 0.40920(8) 0.00700(8)
Ag3 Ag -0.21414(16) 0.33116(8) 0.01814(10)
Ag4 Ag 0.30631(16) -0.17101(8) 0.51387(10)
Ag5 Ag -0.14679(13) 0.25155(8) 0.25213(10)
O1 O 0.0996(13) 0.2554(7) 0.0336(8)
O2 O 0.3192(11) 0.2138(6) 0.1236(7)
O3 O 0.1417(13) -0.0133(7) 0.4029(8)
O4 O 0.1199(10) 0.1459(6) 0.2953(6)
O5 O -0.0270(13) 0.2419(7) 0.4671(8)
O6 O 0.2192(11) 0.2873(7) 0.3769(7)
O7 O 0.0841(11) 0.5144(7) 0.0955(7)
O8 O 0.0876(9) 0.3554(6) 0.2018(7)
O9 O 0.5597(13) 0.3376(7) 0.4393(7)
O10 O 0.5704(11) 0.3054(7) 0.3095(7)
O11 O 0.7097(12) 0.4405(7) 0.0977(7)
O12 O 0.4404(12) 0.3972(7) 0.1271(7)
O13 O 0.7301(11) 0.0611(7) 0.4065(8)
O14 O 0.4534(11) 0.1049(6) 0.3787(7)
O15 O 0.6343(10) 0.1987(7) 0.1950(7)
O16 O 0.7210(13) 0.1679(7) 0.0645(7)
C1 C 0.1934(18) 0.1922(9) 0.0966(9)
C2 C 0.1614(17) 0.0836(10) 0.1358(10)
C3 C 0.158(2) 0.0472(11) 0.0669(12)
H1 H 0.1729 0.0900 0.0001
C4 C 0.134(2) -0.0519(12) 0.0964(12)
H2 H 0.1379 -0.0758 0.0490
C5 C 0.105(2) -0.1163(11) 0.1943(12)
H3 H 0.0841 -0.1823 0.2134
C6 C 0.108(2) -0.0806(11) 0.2640(12)
H4 H 0.0915 -0.1240 0.3305
C7 C 0.1348(16) 0.0189(9) 0.2370(10)
C8 C 0.1355(14) 0.0511(8) 0.3175(8)
C9 C 0.0618(17) 0.3062(10) 0.4039(9)
C10 C -0.0127(17) 0.4144(9) 0.3634(9)
C11 C -0.094(2) 0.4494(10) 0.4310(11)
H5 H -0.1102 0.4048 0.4972
C12 C -0.153(2) 0.5507(12) 0.4009(14)
H6 H -0.2012 0.5732 0.4479
C13 C -0.140(2) 0.6160(12) 0.3056(13)
H7 H -0.1771 0.6835 0.2867
C14 C -0.069(2) 0.5814(10) 0.2343(11)
H8 H -0.0663 0.6260 0.1679
C15 C -0.0012(17) 0.4812(9) 0.2611(11)
C16 C 0.0606(16) 0.4480(9) 0.1831(9)
C17 C 0.5407(17) 0.3660(10) 0.3530(12)
C18 C 0.4892(18) 0.4754(9) 0.2859(11)
C19 C 0.4293(18) 0.5390(11) 0.3320(12)
H9 H 0.4184 0.5129 0.4004
C20 C 0.387(2) 0.6385(13) 0.2773(16)
H10 H 0.3451 0.6806 0.3075
C21 C 0.409(2) 0.6768(12) 0.1729(14)
H11 H 0.3810 0.7447 0.1341
C22 C 0.4714(17) 0.6129(10) 0.1283(11)
H12 H 0.4923 0.6388 0.0600
C23 C 0.5026(15) 0.5101(9) 0.1862(10)
C24 C 0.5572(14) 0.4423(8) 0.1347(9)
C25 C 0.6645(16) 0.1405(10) 0.1511(9)
C26 C 0.6281(15) 0.0308(9) 0.2157(10)
C27 C 0.6240(18) -0.0316(10) 0.1686(11)
H13 H 0.6370 -0.0057 0.1002
C28 C 0.601(2) -0.1308(10) 0.2250(13)
H14 H 0.5887 -0.1716 0.1950
C29 C 0.594(2) -0.1709(11) 0.3270(14)
H15 H 0.5850 -0.2392 0.3649
C30 C 0.6017(18) -0.1094(10) 0.3722(12)
H16 H 0.6003 -0.1372 0.4404
C31 C 0.6113(14) -0.0052(9) 0.3167(9)
C32 C 0.6005(15) 0.0586(9) 0.3698(9)
Ag1A Ag -0.12829(13) -0.09028(8) 0.50794(8)
Ag1A_2 Ag 0.87171(13) -0.09028(8) 0.50794(8)
Ag2A Ag -0.17800(14) 0.59080(8) -0.00700(8)
Ag2A_2 Ag 0.82200(14) 0.59080(8) -0.00700(8)
Ag3A Ag 0.21414(16) 0.66884(8) -0.01814(10)
Ag3_2 Ag 0.78586(16) 0.33116(8) 0.01814(10)
Ag4A Ag -0.30631(16) 0.17101(8) 0.48613(10)
Ag4A_2 Ag 0.69369(16) 0.17101(8) 0.48613(10)
Ag5_2 Ag 0.85321(13) 0.25155(8) 0.25213(10)
O3A O -0.1417(13) 0.0133(7) 0.5971(8)
O5A O 0.0270(13) -0.2419(7) 0.5329(8)
O7A O -0.0841(11) 0.4856(7) -0.0955(7)
O9A O 0.4403(13) -0.3376(7) 0.5607(7)
O10_2 O -0.4296(11) 0.3054(7) 0.3095(7)
O11A O 0.2903(12) 0.5595(7) -0.0977(7)
O11_2 O -0.2903(12) 0.4405(7) 0.0977(7)
O13A O 0.2699(11) -0.0611(7) 0.5935(8)
O15_2 O -0.3657(10) 0.1987(7) 0.1950(7)
O16_2 O -0.2790(13) 0.1679(7) 0.0645(7)
loop_
_geom_bond_atom_site_label_1
_geom_bond_atom_site_label_2
_geom_bond_site_symmetry_1
_geom_bond_site_symmetry_2
Ho1 O2 1_555 1_555
Ag1 O3 1_555 1_555
Ag2 O1 1_555 1_555
Ag3 O1 1_555 1_555
Ag4 O3 1_555 1_555
Ag5 O4 1_555 1_555
O1 C1 1_555 1_555
O2 C1 1_555 1_555
O3 C8 1_555 1_555
O4 Ho1 1_555 1_555
O5 Ag1 1_555 1_555
O6 Ho1 1_555 1_555
O7 Ag2 1_555 1_555
O8 Ho1 1_555 1_555
O9 C17 1_555 1_555
O10 Ho1 1_555 1_555
O11 C24 1_555 1_555
O12 Ho1 1_555 1_555
O13 C32 1_555 1_555
O14 Ho1 1_555 1_555
O15 Ho1 1_555 1_555
O16 C25 1_555 1_555
C1 C2 1_555 1_555
C2 C3 1_555 1_555
C3 H1 1_555 1_555
C4 C3 1_555 1_555
H2 C4 1_555 1_555
C5 C4 1_555 1_555
H3 C5 1_555 1_555
C6 C5 1_555 1_555
H4 C6 1_555 1_555
C7 C2 1_555 1_555
C8 O4 1_555 1_555
C9 O5 1_555 1_555
C10 C9 1_555 1_555
C11 C10 1_555 1_555
H5 C11 1_555 1_555
C12 C11 1_555 1_555
H6 C12 1_555 1_555
C13 C12 1_555 1_555
H7 C13 1_555 1_555
C14 C13 1_555 1_555
H8 C14 1_555 1_555
C15 C10 1_555 1_555
C16 O7 1_555 1_555
C17 O10 1_555 1_555
C18 C17 1_555 1_555
C19 C18 1_555 1_555
H9 C19 1_555 1_555
C20 C19 1_555 1_555
H10 C20 1_555 1_555
C21 C20 1_555 1_555
H11 C21 1_555 1_555
C22 C21 1_555 1_555
H12 C22 1_555 1_555
C23 C18 1_555 1_555
C24 O12 1_555 1_555
C25 O15 1_555 1_555
C26 C25 1_555 1_555
C27 C26 1_555 1_555
H13 C27 1_555 1_555
C28 C27 1_555 1_555
H14 C28 1_555 1_555
C29 C28 1_555 1_555
H15 C29 1_555 1_555
C30 C29 1_555 1_555
H16 C30 1_555 1_555
C31 C26 1_555 1_555
C32 O14 1_555 1_555
Ag1A O3 1_555 1_555
Ag1A_2 O13 1_555 1_555
Ag2A O7 1_555 1_555
Ag2A_2 O11 1_555 1_555
Ag3A O7 1_555 1_555
Ag3_2 O11 1_555 1_555
Ag4A O5 1_555 1_555
Ag4A_2 O9 1_555 1_555
Ag5_2 O10 1_555 1_555
O3A Ag1 1_555 1_555
O5A Ag4 1_555 1_555
O7A Ag2 1_555 1_555
O9A Ag4 1_555 1_555
O10_2 Ag5 1_555 1_555
O11A Ag2 1_555 1_555
O11_2 Ag3 1_555 1_555
O13A Ag1 1_555 1_555
O15_2 Ag5 1_555 1_555
O16_2 Ag3 1_555 1_555
Ag3 O7A 1_555 1_555
Ag4 O13A 1_555 1_555
Ag5 O8 1_555 1_555
O6 C9 1_555 1_555
O8 C16 1_555 1_555
O13 Ag4A_2 1_555 1_555
O15 Ag5_2 1_555 1_555
O16 Ag3_2 1_555 1_555
C6 C7 1_555 1_555
C7 C8 1_555 1_555
C14 C15 1_555 1_555
C15 C16 1_555 1_555
C22 C23 1_555 1_555
C23 C24 1_555 1_555
C30 C31 1_555 1_555
C31 C32 1_555 1_555
Ag1A O3A 1_555 1_555
Ag1A O5A 1_555 1_555
Ag2A O7A 1_555 1_555
Ag2A O11_2 1_555 1_555
Ag3A O11A 1_555 1_555
Ag4A O3A 1_555 1_555

#END
