
#######################################################################
#
#                 Cambridge Crystallographic Data Centre
#                                CCDC 
#
#######################################################################
#
# If this CIF has been generated from an entry in the Cambridge 
# Structural Database, then it will include bibliographic, chemical, 
# crystal, experimental, refinement or atomic coordinate data resulting 
# from the CCDC's data processing and validation procedures.
#
#######################################################################

data_RAFFIP
_symmetry_cell_setting           orthorhombic
_symmetry_space_group_name_H-M   'P n a 21'
_symmetry_Int_Tables_number      33
_space_group_name_Hall           'P 2c -2n'
loop_
_symmetry_equiv_pos_site_id
_symmetry_equiv_pos_as_xyz
1 x,y,z
2 -x,-y,1/2+z
3 1/2-x,1/2+y,1/2+z
4 1/2+x,1/2-y,z
_cell_length_a                   18.8684(4)
_cell_length_b                   6.57688(13)
_cell_length_c                   18.7367(4)
_cell_angle_alpha                90
_cell_angle_beta                 90
_cell_angle_gamma                90
_cell_volume                     2325.13
loop_
_atom_site_label
_atom_site_type_symbol
_atom_site_fract_x
_atom_site_fract_y
_atom_site_fract_z
La1 La 0.755590(16) 0.13782(4) 0.147877(18)
La2 La 0.521483(18) 0.13649(5) 0.18723(2)
S1 S 0.75838(7) 0.63730(18) 0.14877(12)
Cl1 Cl 0.48837(18) 0.4267(8) 0.1178(2)
N1 N 0.7355(3) 0.1381(8) 0.0074(3)
N2 N 0.7681(3) 0.1286(7) 0.2909(3)
O1 O 0.8553(2) 0.0419(8) 0.0697(3)
O2 O 0.9117(3) 0.0108(10) -0.0347(3)
O3 O 0.6283(2) 0.2157(8) 0.0967(2)
O4 O 0.5602(3) 0.3135(11) 0.0045(3)
O5 O 0.6504(2) 0.0562(7) 0.2251(3)
O6 O 0.5867(2) 0.0266(8) 0.3221(3)
O7 O 0.8750(2) 0.2308(7) 0.2065(2)
O8 O 0.9514(3) 0.2330(9) 0.2954(3)
O9 O 0.7950(2) 0.5000(6) 0.0981(2)
O10 O 0.7204(2) 0.5003(6) 0.1973(3)
O11 O 0.7096(2) 0.7739(6) 0.1108(3)
O12 O 0.8079(2) 0.7696(6) 0.1886(3)
C1 C 0.8585(4) 0.0454(11) 0.0011(4)
C2 C 0.7897(4) 0.0956(10) -0.0364(4)
C3 C 0.7825(4) 0.0937(11) -0.1093(4)
H1 H 0.8216 0.0671 -0.1380
C4 C 0.7187(4) 0.1303(10) -0.1399(4)
H2 H 0.7133 0.1266 -0.1892
C5 C 0.6603(4) 0.1744(10) -0.0947(4)
H3 H 0.6155 0.1993 -0.1134
C6 C 0.6724(3) 0.1793(10) -0.0217(3)
C7 C 0.6152(4) 0.2389(11) 0.0300(4)
C8 C 0.6438(3) 0.0529(10) 0.2924(3)
C9 C 0.7116(3) 0.0947(10) 0.3329(4)
C10 C 0.7144(4) 0.0973(11) 0.4073(4)
H4 H 0.6743 0.0751 0.4351
C11 C 0.7816(4) 0.1357(11) 0.4383(4)
H5 H 0.7864 0.1379 0.4877
C12 C 0.8388(4) 0.1691(11) 0.3962(4)
H6 H 0.8831 0.1944 0.4162
C13 C 0.8300(4) 0.1647(10) 0.3226(4)
C14 C 0.8891(3) 0.2128(10) 0.2718(4)
O13 O 0.5650(3) -0.1909(8) 0.1358(4)
H7 H 0.5512 -0.2410 0.1753
H8 H 0.5833 -0.2867 0.1115
O14 O 0.4443(3) 0.0241(8) 0.0847(3)
H9 H 0.4029 0.0352 0.0670
H10 H 0.4427 -0.0667 0.1169
O15 O 0.5822(3) 0.4397(8) 0.2453(3)
H11 H 0.6194 0.4760 0.2231
H12 H 0.5593 0.5466 0.2560
O18 O 0.4442(3) -0.1500(8) 0.2361(3)
H17 H 0.4082 -0.1870 0.2121
H18 H 0.4527 -0.2421 0.2668
La1_2 La 0.755590(16) 1.13782(4) 0.147877(18)
La2C La 1.021483(18) 0.36351(5) 0.18723(2)
O7C O 0.3750(2) 0.2692(7) 0.2065(2)
O8C O 0.4514(3) 0.2670(9) 0.2954(3)
O11_2 O 0.7096(2) -0.2261(6) 0.1108(3)
O12_2 O 0.8079(2) -0.2304(6) 0.1886(3)
O16 O 0.4919(3) 0.3409(10) 0.8488(3)
H13 H 0.4898 0.3445 0.8941
H14 H 0.4587 0.2641 0.8342
O17 O 0.9895(4) 0.6539(10) 0.9610(4)
H15 H 0.9778 0.7722 0.9470
H16 H 0.9785 0.5706 0.9281
loop_
_geom_bond_atom_site_label_1
_geom_bond_atom_site_label_2
_geom_bond_site_symmetry_1
_geom_bond_site_symmetry_2
La1 N1 1_555 1_555
La2 Cl1 1_555 1_555
S1 O9 1_555 1_555
N1 C2 1_555 1_555
N2 La1 1_555 1_555
O1 La1 1_555 1_555
O2 C1 1_555 1_555
O3 La1 1_555 1_555
O4 C7 1_555 1_555
O5 La1 1_555 1_555
O6 La2 1_555 1_555
O7 La1 1_555 1_555
O8 C14 1_555 1_555
O9 La1 1_555 1_555
O10 La1 1_555 1_555
O11 S1 1_555 1_555
O12 S1 1_555 1_555
C1 O1 1_555 1_555
C2 C1 1_555 1_555
C3 C2 1_555 1_555
H1 C3 1_555 1_555
C4 C3 1_555 1_555
H2 C4 1_555 1_555
C5 C4 1_555 1_555
H3 C5 1_555 1_555
C6 N1 1_555 1_555
C7 O3 1_555 1_555
C8 O5 1_555 1_555
C9 N2 1_555 1_555
C10 C9 1_555 1_555
H4 C10 1_555 1_555
C11 C10 1_555 1_555
H5 C11 1_555 1_555
C12 C11 1_555 1_555
H6 C12 1_555 1_555
C13 N2 1_555 1_555
C14 O7 1_555 1_555
O13 La2 1_555 1_555
H7 O13 1_555 1_555
H8 O13 1_555 1_555
O14 La2 1_555 1_555
H9 O14 1_555 1_555
H10 O14 1_555 1_555
O15 La2 1_555 1_555
H11 O15 1_555 1_555
H12 O15 1_555 1_555
O16 H13 1_555 1_555
H14 O16 1_555 1_555
O17 H15 1_555 1_555
H16 O17 1_555 1_555
O18 La2 1_555 1_555
H17 O18 1_555 1_555
H18 O18 1_555 1_555
La1_2 O11 1_555 1_555
La2C O7 1_555 1_555
O7C La2 1_555 1_555
O8C La2 1_555 1_555
O11_2 La1 1_555 1_555
O12_2 La1 1_555 1_555
La2 O3 1_555 1_555
La2 O5 1_555 1_555
S1 O10 1_555 1_555
O6 C8 1_555 1_555
O8 La2C 1_555 1_555
O12 La1_2 1_555 1_555
C5 C6 1_555 1_555
C6 C7 1_555 1_555
C8 C9 1_555 1_555
C12 C13 1_555 1_555
C13 C14 1_555 1_555

#END
