
#######################################################################
#
#                 Cambridge Crystallographic Data Centre
#                                CCDC 
#
#######################################################################
#
# If this CIF has been generated from an entry in the Cambridge 
# Structural Database, then it will include bibliographic, chemical, 
# crystal, experimental, refinement or atomic coordinate data resulting 
# from the CCDC's data processing and validation procedures.
#
#######################################################################

data_RAFGIQ
_symmetry_cell_setting           monoclinic
_symmetry_space_group_name_H-M   'P 21'
_symmetry_Int_Tables_number      4
_space_group_name_Hall           'P 2yb'
loop_
_symmetry_equiv_pos_site_id
_symmetry_equiv_pos_as_xyz
1 x,y,z
2 -x,1/2+y,-z
_cell_length_a                   9.2223(18)
_cell_length_b                   6.1911(12)
_cell_length_c                   9.4696(19)
_cell_angle_alpha                90
_cell_angle_beta                 116.99(3)
_cell_angle_gamma                90
_cell_volume                     481.79
loop_
_atom_site_label
_atom_site_type_symbol
_atom_site_fract_x
_atom_site_fract_y
_atom_site_fract_z
Cu1 Cu 0.17738(8) 0.69117(8) 0.62827(7)
Cu2 Cu 0.52430(7) 0.84598(10) 0.75937(7)
O1 O 0.3488(4) 0.7057(7) 0.5570(4)
O2 O 0.4691(4) 0.6373(6) 0.4019(4)
O3 O 0.3721(4) 0.0104(6) 0.1107(4)
O4 O 0.1592(5) -0.2054(6) 0.0668(5)
O5 O 0.0369(4) 0.5218(7) 0.4479(4)
O6 O 0.6561(5) 1.0008(7) 0.9559(4)
H1 H 0.7214 0.9176 1.0285
H2 H 0.7124 1.0943 0.9369
O7 O 0.3286(4) 0.8831(7) 0.7843(4)
H3 H 0.3474 0.9025 0.8797
N1 N 0.0035(5) 0.2127(8) 0.3122(5)
N2 N 0.2819(5) 0.2888(7) 0.2798(5)
C1 C 0.3628(6) 0.6017(9) 0.4440(6)
C2 C 0.2406(6) 0.4253(8) 0.3639(6)
C3 C 0.1907(6) 0.1132(9) 0.2142(6)
C4 C 0.0510(7) 0.0743(9) 0.2322(6)
H6 H -0.0101 -0.0495 0.1882
C5 C 0.0943(6) 0.3934(9) 0.3784(6)
C6 C 0.2450(7) -0.0398(9) 0.1223(6)
Cu1A Cu -0.17738(8) 0.19117(8) 0.37173(7)
Cu2A Cu 0.47570(7) 0.34598(10) 0.24063(7)
O2A O 0.5309(4) 1.1373(6) 0.5981(4)
O3A O 0.6279(4) 0.5104(6) 0.8893(4)
N1A N -0.0035(5) 0.7127(8) 0.6878(5)
N2A N 0.7181(5) 0.7888(7) 0.7202(5)
O8 O 0.3098(4) 0.3483(7) 0.7635(4)
H4 H 0.4045 0.4008 0.7999
H5 H 0.3074 0.2116 0.7618
loop_
_geom_bond_atom_site_label_1
_geom_bond_atom_site_label_2
_geom_bond_site_symmetry_1
_geom_bond_site_symmetry_2
Cu1 O1 1_555 1_555
Cu2 O1 1_555 1_555
O1 C1 1_555 1_555
O2 C1 1_555 1_555
O3 C6 1_555 1_555
O4 C6 1_555 1_555
O5 Cu1 1_555 1_555
O6 Cu2 1_555 1_555
H1 O6 1_555 1_555
H2 O6 1_555 1_555
O7 Cu1 1_555 1_555
H3 O7 1_555 1_555
O8 H4 1_555 1_555
H5 O8 1_555 1_555
N1 C4 1_555 1_555
N2 C2 1_555 1_555
C1 C2 1_555 1_555
C2 C5 1_555 1_555
C3 N2 1_555 1_555
C4 C3 1_555 1_555
H6 C4 1_555 1_555
C5 O5 1_555 1_555
C6 C3 1_555 1_555
Cu1A N1 1_555 1_555
Cu2A O2 1_555 1_555
O2A Cu2 1_555 1_555
O3A Cu2 1_555 1_555
N1A Cu1 1_555 1_555
N2A Cu2 1_555 1_555
Cu2 O7 1_555 1_555
O3 Cu2A 1_555 1_555
N1 C5 1_555 1_555
N2 Cu2A 1_555 1_555

#END
