
#######################################################################
#
#                 Cambridge Crystallographic Data Centre
#                                CCDC 
#
#######################################################################
#
# If this CIF has been generated from an entry in the Cambridge 
# Structural Database, then it will include bibliographic, chemical, 
# crystal, experimental, refinement or atomic coordinate data resulting 
# from the CCDC's data processing and validation procedures.
#
#######################################################################

data_RAFGEM
_symmetry_cell_setting           monoclinic
_symmetry_space_group_name_H-M   'P 21/c'
_symmetry_Int_Tables_number      14
_space_group_name_Hall           '-P 2ybc'
loop_
_symmetry_equiv_pos_site_id
_symmetry_equiv_pos_as_xyz
1 x,y,z
2 -x,1/2+y,1/2-z
3 -x,-y,-z
4 x,1/2-y,1/2+z
_cell_length_a                   6.5939(13)
_cell_length_b                   12.493(3)
_cell_length_c                   14.112(4)
_cell_angle_alpha                90
_cell_angle_beta                 107.30(3)
_cell_angle_gamma                90
_cell_volume                     1109.92
loop_
_atom_site_label
_atom_site_type_symbol
_atom_site_fract_x
_atom_site_fract_y
_atom_site_fract_z
Cu1 Cu 0.25019(4) 0.83604(2) 0.982924(19)
N1 N 0.2580(3) 0.78031(15) 0.83316(13)
N2 N 0.2442(3) 0.72542(16) 0.64294(14)
O1 O 0.2296(2) 0.97925(13) 0.88768(11)
O2 O 0.2006(3) 1.04130(13) 0.73512(12)
O3 O 0.2525(2) 0.52820(12) 0.58186(11)
O4 O 0.3046(3) 0.45808(13) 0.73066(11)
O5 O 0.3001(3) 0.50501(13) 0.89466(11)
H1 H 0.294(4) 0.480(2) 0.815(2)
O6 O 0.2763(3) 0.65265(13) 0.97621(11)
O7 O -0.0696(2) 0.81688(13) 0.93843(12)
H2 H -0.0759 0.7492 0.9427
H3 H -0.1702 0.8533 0.9482
O8 O 0.5731(2) 0.83644(12) 1.02997(12)
H4 H 0.6203 0.9000 1.0447
H5 H 0.6319 0.7884 1.0719
C1 C 0.2208(3) 0.96892(18) 0.79803(16)
C2 C 0.2361(3) 0.85485(18) 0.76417(16)
C3 C 0.2697(3) 0.67738(17) 0.80963(16)
C4 C 0.2837(3) 0.60748(19) 0.90020(16)
C5 C 0.2733(3) 0.53716(19) 0.67158(16)
C6 C 0.2635(3) 0.64937(18) 0.71257(16)
C7 C 0.2290(4) 0.82691(18) 0.66792(17)
H10 H 0.2135 0.8802 0.6202
Cu1C Cu 0.25019(4) 0.66396(2) 0.482924(19)
N2C N 0.2442(3) 0.77458(16) 1.14294(14)
O3C O 0.2525(2) 0.97180(12) 1.08186(11)
O9 O 0.7763(3) 0.75247(13) 0.70566(13)
H6 H 0.7816 0.6899 0.7313
H7 H 0.7515 0.8036 0.7408
O10 O 0.7575(3) 0.62326(14) 0.94403(13)
H8 H 0.7714 0.5807 0.8986
H9 H 0.7517 0.5930 0.9973
loop_
_geom_bond_atom_site_label_1
_geom_bond_atom_site_label_2
_geom_bond_site_symmetry_1
_geom_bond_site_symmetry_2
Cu1 N1 1_555 1_555
N1 C2 1_555 1_555
N2 C6 1_555 1_555
O1 Cu1 1_555 1_555
O2 C1 1_555 1_555
O3 C5 1_555 1_555
O4 C5 1_555 1_555
O5 H1 1_555 1_555
O6 Cu1 1_555 1_555
O7 Cu1 1_555 1_555
H2 O7 1_555 1_555
H3 O7 1_555 1_555
O8 Cu1 1_555 1_555
H4 O8 1_555 1_555
H5 O8 1_555 1_555
O9 H6 1_555 1_555
H7 O9 1_555 1_555
O10 H8 1_555 1_555
H9 O10 1_555 1_555
C1 O1 1_555 1_555
C2 C1 1_555 1_555
C3 N1 1_555 1_555
C4 O5 1_555 1_555
C5 C6 1_555 1_555
C6 C3 1_555 1_555
C7 N2 1_555 1_555
H10 C7 1_555 1_555
Cu1C N2 1_555 1_555
N2C Cu1 1_555 1_555
O3C Cu1 1_555 1_555
O3 Cu1C 1_555 1_555
O6 C4 1_555 1_555
C2 C7 1_555 1_555
C3 C4 1_555 1_555

#END
