
#######################################################################
#
#                 Cambridge Crystallographic Data Centre
#                                CCDC 
#
#######################################################################
#
# If this CIF has been generated from an entry in the Cambridge 
# Structural Database, then it will include bibliographic, chemical, 
# crystal, experimental, refinement or atomic coordinate data resulting 
# from the CCDC's data processing and validation procedures.
#
#######################################################################

data_RAFGOW
_symmetry_cell_setting           triclinic
_symmetry_space_group_name_H-M   'P -1'
_symmetry_Int_Tables_number      2
_space_group_name_Hall           '-P 1'
loop_
_symmetry_equiv_pos_site_id
_symmetry_equiv_pos_as_xyz
1 x,y,z
2 -x,-y,-z
_cell_length_a                   6.7279(13)
_cell_length_b                   7.8542(16)
_cell_length_c                   9.6382(19)
_cell_angle_alpha                83.12(3)
_cell_angle_beta                 83.79(3)
_cell_angle_gamma                77.95(3)
_cell_volume                     492.678
loop_
_atom_site_label
_atom_site_type_symbol
_atom_site_fract_x
_atom_site_fract_y
_atom_site_fract_z
Cu1 Cu 0.5000 0.5000 0.5000
N1 N 0.2426(2) 0.6106(2) 0.60447(17)
N2 N -0.1376(3) 0.7899(2) 0.70320(18)
O1 O 0.3422(2) 0.5689(2) 0.33658(14)
O2 O 0.0230(2) 0.6877(2) 0.28141(14)
O3 O -0.2251(2) 0.99143(19) 0.39659(15)
H1 H -0.3014 1.0171 0.3332
O4 O -0.4041(2) 0.7804(2) 0.46579(14)
O5 O -0.2017(2) 0.8415(2) 0.98178(17)
O6 O 0.1016(2) 0.6627(2) 1.01852(15)
H2 H 0.0695 0.6799 1.1009
C1 C 0.0981(3) 0.6792(3) 0.5159(2)
C2 C -0.0918(3) 0.7693(3) 0.5664(2)
C3 C 0.0087(3) 0.7204(3) 0.7887(2)
C4 C 0.2010(3) 0.6295(3) 0.7402(2)
H3 H 0.2990 0.5827 0.8027
C5 C 0.1588(3) 0.6441(3) 0.3644(2)
C6 C -0.2579(3) 0.8471(3) 0.4695(2)
C7 C -0.0427(3) 0.7487(3) 0.9419(2)
Cu1_2 Cu -0.5000 0.5000 0.5000
N1A N -0.2426(2) 0.3894(2) 0.39553(17)
N1A_2 N 0.7574(2) 0.3894(2) 0.39553(17)
N2A N 0.1376(3) 0.2101(2) 0.29680(18)
O1A O -0.3422(2) 0.4311(2) 0.66342(14)
O1A_2 O 0.6578(2) 0.4311(2) 0.66342(14)
O2A O -0.0230(2) 0.3123(2) 0.71859(14)
O3A O 0.2251(2) 0.00857(19) 0.60341(15)
H1A H 0.3014 -0.0171 0.6668
O4A O 0.4041(2) 0.2196(2) 0.53421(14)
O4_2 O 0.5959(2) 0.7804(2) 0.46579(14)
O5A O 0.2017(2) 0.1585(2) 0.01822(17)
O6A O -0.1016(2) 0.3373(2) -0.01852(15)
H2A H -0.0695 0.3201 -0.1009
C1A C -0.0981(3) 0.3208(3) 0.4841(2)
C2A C 0.0918(3) 0.2307(3) 0.4336(2)
C3A C -0.0087(3) 0.2796(3) 0.2113(2)
C4A C -0.2010(3) 0.3705(3) 0.2598(2)
H3A H -0.2990 0.4173 0.1973
C5A C -0.1588(3) 0.3559(3) 0.6356(2)
C6A C 0.2579(3) 0.1529(3) 0.5305(2)
C7A C 0.0427(3) 0.2513(3) 0.0581(2)
O7 O 0.5795(2) 0.0774(2) 0.18069(16)
H4 H 0.4508 0.1055 0.1884
H5 H 0.6300 -0.0002 0.1248
loop_
_geom_bond_atom_site_label_1
_geom_bond_atom_site_label_2
_geom_bond_site_symmetry_1
_geom_bond_site_symmetry_2
Cu1 N1 1_555 1_555
N1 C1 1_555 1_555
N2 C2 1_555 1_555
O1 Cu1 1_555 1_555
O2 C5 1_555 1_555
O3 H1 1_555 1_555
O4 C6 1_555 1_555
O5 C7 1_555 1_555
O6 H2 1_555 1_555
C1 C2 1_555 1_555
C2 C6 1_555 1_555
C3 N2 1_555 1_555
C4 N1 1_555 1_555
H3 C4 1_555 1_555
C5 O1 1_555 1_555
C6 O3 1_555 1_555
C7 O6 1_555 1_555
O7 H4 1_555 1_555
H5 O7 1_555 1_555
Cu1_2 O4 1_555 1_555
N1A Cu1_2 1_555 1_555
N1A_2 Cu1 1_555 1_555
N2A C2A 1_555 1_555
O1A Cu1_2 1_555 1_555
O1A_2 Cu1 1_555 1_555
O2A C5A 1_555 1_555
O3A H1A 1_555 1_555
O4A Cu1 1_555 1_555
O4_2 Cu1 1_555 1_555
O5A C7A 1_555 1_555
O6A H2A 1_555 1_555
C1A N1A 1_555 1_555
C2A C1A 1_555 1_555
C3A N2A 1_555 1_555
C4A N1A 1_555 1_555
H3A C4A 1_555 1_555
C5A O1A 1_555 1_555
C6A O3A 1_555 1_555
C7A O6A 1_555 1_555
C1 C5 1_555 1_555
C3 C4 1_555 1_555
C3 C7 1_555 1_555
O4A C6A 1_555 1_555
C1A C5A 1_555 1_555
C2A C6A 1_555 1_555
C3A C4A 1_555 1_555
C3A C7A 1_555 1_555

#END
