
#######################################################################
#
#                 Cambridge Crystallographic Data Centre
#                                CCDC 
#
#######################################################################
#
# If this CIF has been generated from an entry in the Cambridge 
# Structural Database, then it will include bibliographic, chemical, 
# crystal, experimental, refinement or atomic coordinate data resulting 
# from the CCDC's data processing and validation procedures.
#
#######################################################################

data_RAFLUG
_symmetry_cell_setting           triclinic
_symmetry_space_group_name_H-M   'P -1'
_symmetry_Int_Tables_number      2
_space_group_name_Hall           '-P 1'
loop_
_symmetry_equiv_pos_site_id
_symmetry_equiv_pos_as_xyz
1 x,y,z
2 -x,-y,-z
_cell_length_a                   9.107(4)
_cell_length_b                   12.766(6)
_cell_length_c                   13.148(6)
_cell_angle_alpha                115.056(8)
_cell_angle_beta                 105.155(8)
_cell_angle_gamma                95.902(8)
_cell_volume                     1296.11
loop_
_atom_site_label
_atom_site_type_symbol
_atom_site_fract_x
_atom_site_fract_y
_atom_site_fract_z
Pd1 Pd -0.5000 0.5000 0.0000
K1 K -0.00298(12) 0.18142(10) 0.11756(10)
N1 N -0.2505(7) 0.3018(6) 0.1475(5)
N2 N -0.7506(10) 0.1834(6) -0.3154(6)
O1 O 0.2677(4) 0.3592(3) 0.2573(3)
O2 O 0.1596(4) 0.2430(3) 0.3514(3)
O3 O -0.1045(4) 0.0508(3) 0.2174(3)
O4 O -0.2227(4) -0.0490(3) -0.0420(3)
O5 O -0.1677(4) 0.1383(3) -0.1005(3)
O6 O 0.1036(4) 0.3193(3) 0.0245(3)
S1 S -0.29747(18) 0.52506(17) 0.16548(15)
S2 S -0.4933(2) 0.30221(16) -0.10089(17)
C1 C 0.3800(6) 0.3460(4) 0.3406(4)
C2 C 0.5364(6) 0.3898(5) 0.3750(4)
H1 H 0.5743 0.4342 0.3425
C3 C 0.6428(6) 0.3689(5) 0.4599(4)
C4 C 0.8040(6) 0.4141(5) 0.5001(5)
H2 H 0.8446 0.4618 0.4717
C5 C 0.9049(7) 0.3900(6) 0.5809(5)
H3 H 1.0122 0.4228 0.6074
C6 C 0.8492(7) 0.3184(6) 0.6225(5)
H4 H 0.9184 0.2994 0.6742
C7 C 0.6910(7) 0.2750(5) 0.5875(5)
H5 H 0.6532 0.2273 0.6169
C8 C 0.5849(6) 0.3008(5) 0.5084(4)
C9 C 0.4196(6) 0.2580(5) 0.4730(4)
H6 H 0.3795 0.2142 0.5052
C10 C 0.3197(6) 0.2813(5) 0.3915(4)
C11 C 0.0926(6) 0.1787(5) 0.4029(5)
H7 H 0.1126 0.2304 0.4869
H8 H 0.1375 0.1111 0.3951
C12 C -0.0809(6) 0.1371(5) 0.3351(5)
H9 H -0.1345 0.1028 0.3728
H10 H -0.1227 0.2038 0.3346
C13 C -0.2660(5) 0.0040(5) 0.1469(5)
H11 H -0.3111 0.0668 0.1388
H12 H -0.3217 -0.0276 0.1854
C14 C -0.2832(6) -0.0930(5) 0.0263(5)
H13 H -0.2284 -0.1513 0.0357
H14 H -0.3934 -0.1329 -0.0170
C15 C -0.3405(6) -0.0222(5) -0.1165(5)
H15 H -0.3871 0.0358 -0.0681
H16 H -0.4225 -0.0939 -0.1729
C16 C -0.2694(6) 0.0264(5) -0.1823(5)
H17 H -0.2120 -0.0272 -0.2233
H18 H -0.3511 0.0340 -0.2412
C17 C -0.1059(6) 0.1965(5) -0.1570(5)
H19 H -0.1901 0.1968 -0.2197
H20 H -0.0343 0.1551 -0.1923
C18 C -0.0209(6) 0.3219(5) -0.0638(5)
H21 H 0.0198 0.3650 -0.1002
H22 H -0.0926 0.3626 -0.0281
C19 C 0.1832(6) 0.4341(5) 0.1205(5)
H23 H 0.1134 0.4678 0.1632
H24 H 0.2165 0.4864 0.0904
C20 C 0.3218(6) 0.4243(5) 0.2024(5)
H25 H 0.3861 0.3830 0.1581
H26 H 0.3849 0.5031 0.2630
C21 C -0.2734(7) 0.3867(7) 0.1485(6)
C22 C -0.6496(10) 0.2328(7) -0.2333(7)
N1A N -0.7495(7) 0.6982(6) -0.1475(5)
S1A S -0.70253(18) 0.47494(17) -0.16548(15)
C21A C -0.7266(7) 0.6133(7) -0.1485(6)
N2A N -0.2494(10) 0.8166(6) 0.3154(6)
S2A S -0.5067(2) 0.69779(16) 0.10089(17)
C22A C -0.3504(10) 0.7672(7) 0.2333(7)
K1A K -0.99702(12) 0.81858(10) -0.11756(10)
O1A O -0.2677(4) -0.3592(3) -0.2573(3)
O2A O -0.1596(4) -0.2430(3) -0.3514(3)
O3A O 0.1045(4) -0.0508(3) -0.2174(3)
O4A O 0.2227(4) 0.0490(3) 0.0420(3)
O5A O 0.1677(4) -0.1383(3) 0.1005(3)
O6A O -0.1036(4) -0.3193(3) -0.0245(3)
C1A C -0.3800(6) -0.3460(4) -0.3406(4)
C2A C -0.5364(6) -0.3898(5) -0.3750(4)
H1A H -0.5743 -0.4342 -0.3425
C3A C -0.6428(6) -0.3689(5) -0.4599(4)
C4A C -0.8040(6) -0.4141(5) -0.5001(5)
H2A H -0.8446 -0.4618 -0.4717
C5A C -0.9049(7) -0.3900(6) -0.5809(5)
H3A H -1.0122 -0.4228 -0.6074
C6A C -0.8492(7) -0.3184(6) -0.6225(5)
H4A H -0.9184 -0.2994 -0.6742
C7A C -0.6910(7) -0.2750(5) -0.5875(5)
H5A H -0.6532 -0.2273 -0.6169
C8A C -0.5849(6) -0.3008(5) -0.5084(4)
C9A C -0.4196(6) -0.2580(5) -0.4730(4)
H6A H -0.3795 -0.2142 -0.5052
C10A C -0.3197(6) -0.2813(5) -0.3915(4)
C11A C -0.0926(6) -0.1787(5) -0.4029(5)
H7A H -0.1126 -0.2304 -0.4869
H8A H -0.1375 -0.1111 -0.3951
C12A C 0.0809(6) -0.1371(5) -0.3351(5)
H9A H 0.1345 -0.1028 -0.3728
H10A H 0.1227 -0.2038 -0.3346
C13A C 0.2660(5) -0.0040(5) -0.1469(5)
H11A H 0.3111 -0.0668 -0.1388
H12A H 0.3217 0.0276 -0.1854
C14A C 0.2832(6) 0.0930(5) -0.0263(5)
H13A H 0.2284 0.1513 -0.0357
H14A H 0.3934 0.1329 0.0170
C15A C 0.3405(6) 0.0222(5) 0.1165(5)
H15A H 0.3871 -0.0358 0.0681
H16A H 0.4225 0.0939 0.1729
C16A C 0.2694(6) -0.0264(5) 0.1823(5)
H17A H 0.2120 0.0272 0.2233
H18A H 0.3511 -0.0340 0.2412
C17A C 0.1059(6) -0.1965(5) 0.1570(5)
H19A H 0.1901 -0.1968 0.2197
H20A H 0.0343 -0.1551 0.1923
C18A C 0.0209(6) -0.3219(5) 0.0638(5)
H21A H -0.0198 -0.3650 0.1002
H22A H 0.0926 -0.3626 0.0281
C19A C -0.1832(6) -0.4341(5) -0.1205(5)
H23A H -0.1134 -0.4678 -0.1632
H24A H -0.2165 -0.4864 -0.0904
C20A C -0.3218(6) -0.4243(5) -0.2024(5)
H25A H -0.3861 -0.3830 -0.1581
H26A H -0.3849 -0.5031 -0.2630
K1A_2 K 0.00298(12) -0.18142(10) -0.11756(10)
O1A_2 O -1.2677(4) 0.6408(3) -0.2573(3)
O2A_2 O -1.1596(4) 0.7570(3) -0.3514(3)
O3A_2 O -0.8955(4) 0.9492(3) -0.2174(3)
O4_2 O -1.2227(4) 0.9510(3) -0.0420(3)
O4A_2 O -0.7773(4) 1.0490(3) 0.0420(3)
O5A_2 O -0.8323(4) 0.8617(3) 0.1005(3)
O6A_2 O -1.1036(4) 0.6807(3) -0.0245(3)
loop_
_geom_bond_atom_site_label_1
_geom_bond_atom_site_label_2
_geom_bond_site_symmetry_1
_geom_bond_site_symmetry_2
Pd1 S1 1_555 1_555
K1 N1 1_555 1_555
N1 C21 1_555 1_555
N2 C22 1_555 1_555
O1 K1 1_555 1_555
O2 K1 1_555 1_555
O3 K1 1_555 1_555
O4 K1 1_555 1_555
O5 K1 1_555 1_555
O6 K1 1_555 1_555
S1 C21 1_555 1_555
S2 Pd1 1_555 1_555
C1 O1 1_555 1_555
C2 C1 1_555 1_555
H1 C2 1_555 1_555
C3 C2 1_555 1_555
C4 C3 1_555 1_555
H2 C4 1_555 1_555
C5 C4 1_555 1_555
H3 C5 1_555 1_555
C6 C5 1_555 1_555
H4 C6 1_555 1_555
C7 C6 1_555 1_555
H5 C7 1_555 1_555
C8 C3 1_555 1_555
C9 C8 1_555 1_555
H6 C9 1_555 1_555
C10 O2 1_555 1_555
C11 O2 1_555 1_555
H7 C11 1_555 1_555
H8 C11 1_555 1_555
C12 O3 1_555 1_555
H9 C12 1_555 1_555
H10 C12 1_555 1_555
C13 O3 1_555 1_555
H11 C13 1_555 1_555
H12 C13 1_555 1_555
C14 O4 1_555 1_555
H13 C14 1_555 1_555
H14 C14 1_555 1_555
C15 O4 1_555 1_555
H15 C15 1_555 1_555
H16 C15 1_555 1_555
C16 O5 1_555 1_555
H17 C16 1_555 1_555
H18 C16 1_555 1_555
C17 O5 1_555 1_555
H19 C17 1_555 1_555
H20 C17 1_555 1_555
C18 O6 1_555 1_555
H21 C18 1_555 1_555
H22 C18 1_555 1_555
C19 O6 1_555 1_555
H23 C19 1_555 1_555
H24 C19 1_555 1_555
C20 O1 1_555 1_555
H25 C20 1_555 1_555
H26 C20 1_555 1_555
C22 S2 1_555 1_555
N1A C21A 1_555 1_555
S1A Pd1 1_555 1_555
C21A S1A 1_555 1_555
N2A C22A 1_555 1_555
S2A Pd1 1_555 1_555
C22A S2A 1_555 1_555
K1A N1A 1_555 1_555
O1A C1A 1_555 1_555
O2A C10A 1_555 1_555
O3A C12A 1_555 1_555
O4A K1 1_555 1_555
O5A C16A 1_555 1_555
O6A C18A 1_555 1_555
C1A C2A 1_555 1_555
C2A H1A 1_555 1_555
C3A C2A 1_555 1_555
C4A C3A 1_555 1_555
H2A C4A 1_555 1_555
C5A C4A 1_555 1_555
H3A C5A 1_555 1_555
C6A C5A 1_555 1_555
H4A C6A 1_555 1_555
C7A C6A 1_555 1_555
H5A C7A 1_555 1_555
C8A C3A 1_555 1_555
C9A C8A 1_555 1_555
H6A C9A 1_555 1_555
C10A C1A 1_555 1_555
C11A O2A 1_555 1_555
H7A C11A 1_555 1_555
H8A C11A 1_555 1_555
C12A C11A 1_555 1_555
H9A C12A 1_555 1_555
H10A C12A 1_555 1_555
C13A O3A 1_555 1_555
H11A C13A 1_555 1_555
H12A C13A 1_555 1_555
C14A O4A 1_555 1_555
H13A C14A 1_555 1_555
H14A C14A 1_555 1_555
C15A O4A 1_555 1_555
H15A C15A 1_555 1_555
H16A C15A 1_555 1_555
C16A C15A 1_555 1_555
H17A C16A 1_555 1_555
H18A C16A 1_555 1_555
C17A O5A 1_555 1_555
H19A C17A 1_555 1_555
H20A C17A 1_555 1_555
C18A C17A 1_555 1_555
H21A C18A 1_555 1_555
H22A C18A 1_555 1_555
C19A O6A 1_555 1_555
H23A C19A 1_555 1_555
H24A C19A 1_555 1_555
C20A O1A 1_555 1_555
H25A C20A 1_555 1_555
H26A C20A 1_555 1_555
K1A_2 O4 1_555 1_555
O1A_2 K1A 1_555 1_555
O2A_2 K1A 1_555 1_555
O3A_2 K1A 1_555 1_555
O4_2 K1A 1_555 1_555
O4A_2 K1A 1_555 1_555
O5A_2 K1A 1_555 1_555
O6A_2 K1A 1_555 1_555
C1 C10 1_555 1_555
C7 C8 1_555 1_555
C9 C10 1_555 1_555
C11 C12 1_555 1_555
C13 C14 1_555 1_555
C15 C16 1_555 1_555
C17 C18 1_555 1_555
C19 C20 1_555 1_555
O1A K1A_2 1_555 1_555
O2A K1A_2 1_555 1_555
O3A K1A_2 1_555 1_555
O4A K1A_2 1_555 1_555
O5A K1A_2 1_555 1_555
O6A K1A_2 1_555 1_555
C7A C8A 1_555 1_555
C9A C10A 1_555 1_555
C13A C14A 1_555 1_555
C19A C20A 1_555 1_555

#END
