
#######################################################################
#
#                 Cambridge Crystallographic Data Centre
#                                CCDC 
#
#######################################################################
#
# If this CIF has been generated from an entry in the Cambridge 
# Structural Database, then it will include bibliographic, chemical, 
# crystal, experimental, refinement or atomic coordinate data resulting 
# from the CCDC's data processing and validation procedures.
#
#######################################################################

data_RAFLIU
_symmetry_cell_setting           triclinic
_symmetry_space_group_name_H-M   'P -1'
_symmetry_Int_Tables_number      2
_space_group_name_Hall           '-P 1'
loop_
_symmetry_equiv_pos_site_id
_symmetry_equiv_pos_as_xyz
1 x,y,z
2 -x,-y,-z
_cell_length_a                   12.352(3)
_cell_length_b                   13.105(4)
_cell_length_c                   16.560(4)
_cell_angle_alpha                81.722(19)
_cell_angle_beta                 71.43(2)
_cell_angle_gamma                61.93(2)
_cell_volume                     2242.1
loop_
_atom_site_label
_atom_site_type_symbol
_atom_site_fract_x
_atom_site_fract_y
_atom_site_fract_z
Y1 Y -0.21394(5) -0.36028(4) 0.10371(3)
Y2 Y -0.92728(5) -0.16586(4) 0.44055(3)
O1 O -0.0132(4) -0.3950(3) 0.0879(2)
O2 O 0.1509(4) -0.5523(3) 0.0220(2)
O3 O -0.1525(4) -0.5227(3) 0.1898(3)
O4 O -0.3869(4) -0.2831(3) 0.2309(2)
O5 O -0.2510(4) -0.2106(4) 0.1916(3)
O6 O -0.3049(4) -0.4948(3) 0.1359(2)
N1 N -0.1920(6) -0.2078(4) -0.0056(3)
C1 C -0.0939(8) -0.1851(6) -0.0313(5)
H1 H -0.0331 -0.2185 -0.0015
C2 C -0.0731(10) -0.1134(7) -0.1014(6)
H2 H -0.0023 -0.0990 -0.1170
C3 C -0.1622(11) -0.0675(7) -0.1439(6)
H3 H -0.1510 -0.0213 -0.1909
C4 C -0.2694(10) -0.0859(7) -0.1208(5)
C5 C -0.3711(12) -0.0379(8) -0.1626(6)
H4 H -0.3630 0.0062 -0.2114
C6 C -0.4751(13) -0.0551(9) -0.1333(7)
H5 H -0.5376 -0.0222 -0.1618
C7 C -0.4922(10) -0.1221(6) -0.0603(5)
C8 C -0.6008(10) -0.1389(8) -0.0263(7)
H6 H -0.6660 -0.1068 -0.0526
C9 C -0.6113(8) -0.2022(8) 0.0452(7)
H7 H -0.6838 -0.2137 0.0694
C10 C -0.5109(7) -0.2497(6) 0.0814(5)
H8 H -0.5191 -0.2930 0.1307
N2 N -0.4041(5) -0.2380(4) 0.0513(3)
C11 C -0.3947(7) -0.1747(5) -0.0186(4)
C12 C -0.2827(8) -0.1574(5) -0.0491(4)
O7 O -0.8022(3) -0.0791(3) 0.4356(2)
O8 O -0.8556(4) 0.0863(3) 0.4941(2)
O9 O -0.0201(4) -1.0012(3) 0.3660(2)
O10 O -0.0729(4) -0.8335(4) 0.4211(2)
O11 O 0.0447(4) -0.2554(3) 0.3397(2)
O12 O 0.2092(4) -0.2164(3) 0.2930(2)
N3 N -0.9614(5) -0.3372(4) 0.5249(3)
C13 C -1.0741(7) -0.3272(6) 0.5726(4)
H9 H -1.1454 -0.2565 0.5728
C14 C -1.0939(8) -0.4153(7) 0.6228(4)
H10 H -1.1757 -0.4026 0.6561
C15 C -0.9916(9) -0.5200(7) 0.6223(5)
H11 H -1.0029 -0.5804 0.6544
C16 C -0.8681(8) -0.5364(6) 0.5729(4)
C17 C -0.7558(9) -0.6434(6) 0.5682(5)
H12 H -0.7627 -0.7056 0.6001
C18 C -0.6413(9) -0.6565(6) 0.5195(5)
H13 H -0.5705 -0.7283 0.5164
C19 C -0.6251(7) -0.5623(5) 0.4719(4)
C20 C -0.5077(8) -0.5713(6) 0.4214(5)
H14 H -0.4345 -0.6417 0.4164
C21 C -0.4992(7) -0.4778(6) 0.3792(4)
H15 H -0.4206 -0.4827 0.3453
C22 C -0.6113(6) -0.3736(5) 0.3876(4)
H16 H -0.6046 -0.3098 0.3583
N4 N -0.7257(5) -0.3599(4) 0.4343(3)
C23 C -0.7343(6) -0.4538(5) 0.4761(4)
C24 C -0.8580(7) -0.4412(5) 0.5256(4)
C25 C 0.1022(6) -0.4679(5) 0.0707(3)
C26 C 0.1853(5) -0.4500(5) 0.1109(3)
C27 C 0.3178(6) -0.5149(6) 0.0830(4)
H17 H 0.3553 -0.5697 0.0398
C28 C 0.3931(6) -0.4970(7) 0.1203(4)
H18 H 0.4817 -0.5392 0.1009
C29 C 0.3395(6) -0.4178(6) 0.1856(4)
H19 H 0.3914 -0.4077 0.2106
C30 C 0.2073(6) -0.3534(5) 0.2135(3)
C31 C 0.1310(5) -0.3700(5) 0.1761(3)
H20 H 0.0425 -0.3268 0.1949
C32 C -0.2294(6) -0.5550(5) 0.1787(4)
C33 C -0.2252(5) -0.6676(5) 0.2172(4)
C34 C -0.2860(7) -0.7166(6) 0.1916(4)
H21 H -0.3337 -0.6777 0.1536
C35 C -0.2764(8) -0.8230(7) 0.2221(5)
H22 H -0.3171 -0.8565 0.2048
C36 C -0.2064(7) -0.8786(6) 0.2782(4)
H23 H -0.1980 -0.9515 0.2973
C37 C -0.1481(5) -0.8305(5) 0.3072(3)
C38 C -0.1600(5) -0.7223(4) 0.2758(3)
H24 H -0.1228 -0.6869 0.2952
C39 C -0.6431(5) -0.0175(5) 0.4080(3)
C40 C -0.6022(6) 0.0560(5) 0.4277(4)
H25 H -0.6574 0.1155 0.4673
C41 C -0.4779(6) 0.0391(6) 0.3873(4)
H26 H -0.4495 0.0866 0.4014
C42 C -0.3963(6) -0.0459(5) 0.3274(4)
H27 H -0.3142 -0.0540 0.2996
C43 C -0.4361(5) -0.1198(4) 0.3082(3)
C44 C -0.5590(5) -0.1044(5) 0.3488(3)
H28 H -0.5858 -0.1540 0.3359
C45 C -0.3518(6) -0.2102(5) 0.2402(4)
C46 C 0.1487(6) -0.2680(5) 0.2856(4)
C47 C -0.0738(5) -0.8938(5) 0.3695(3)
C48 C -0.7767(5) -0.0020(5) 0.4490(3)
O2A O -0.1509(4) -0.4477(3) -0.0220(2)
Y1A Y 0.21394(5) -0.63972(4) -0.10371(3)
Y2_2 Y 0.07272(5) -0.16586(4) 0.44055(3)
O8A O -1.1444(4) -0.0863(3) 0.5059(2)
Y2A Y -1.07272(5) 0.16586(4) 0.55945(3)
O10A O -0.9271(4) -0.1665(4) 0.5789(2)
O9_2 O -1.0201(4) -0.0012(3) 0.3660(2)
O11_2 O -0.9553(4) -0.2554(3) 0.3397(2)
O12_2 O -0.7908(4) -0.2164(3) 0.2930(2)
Y2A_2 Y -0.07272(5) -0.83414(4) 0.55945(3)
Y2_3 Y 0.07272(5) -1.16586(4) 0.44055(3)
loop_
_geom_bond_atom_site_label_1
_geom_bond_atom_site_label_2
_geom_bond_site_symmetry_1
_geom_bond_site_symmetry_2
Y1 O1 1_555 1_555
Y2 O7 1_555 1_555
O1 C25 1_555 1_555
O2 C25 1_555 1_555
O3 Y1 1_555 1_555
O4 Y1 1_555 1_555
O5 Y1 1_555 1_555
O6 Y1 1_555 1_555
N1 Y1 1_555 1_555
C1 N1 1_555 1_555
H1 C1 1_555 1_555
C2 C1 1_555 1_555
H2 C2 1_555 1_555
C3 C2 1_555 1_555
H3 C3 1_555 1_555
C4 C3 1_555 1_555
C5 C4 1_555 1_555
H4 C5 1_555 1_555
C6 C5 1_555 1_555
H5 C6 1_555 1_555
C7 C6 1_555 1_555
C8 C7 1_555 1_555
H6 C8 1_555 1_555
C9 C8 1_555 1_555
H7 C9 1_555 1_555
C10 C9 1_555 1_555
H8 C10 1_555 1_555
N2 Y1 1_555 1_555
C11 C7 1_555 1_555
C12 N1 1_555 1_555
O7 C48 1_555 1_555
O8 C48 1_555 1_555
O9 C47 1_555 1_555
O10 C47 1_555 1_555
O11 C46 1_555 1_555
O12 C46 1_555 1_555
N3 Y2 1_555 1_555
C13 N3 1_555 1_555
H9 C13 1_555 1_555
C14 C13 1_555 1_555
H10 C14 1_555 1_555
C15 C14 1_555 1_555
H11 C15 1_555 1_555
C16 C15 1_555 1_555
C17 C16 1_555 1_555
H12 C17 1_555 1_555
C18 C17 1_555 1_555
H13 C18 1_555 1_555
C19 C18 1_555 1_555
C20 C19 1_555 1_555
H14 C20 1_555 1_555
C21 C20 1_555 1_555
H15 C21 1_555 1_555
C22 C21 1_555 1_555
H16 C22 1_555 1_555
N4 Y2 1_555 1_555
C23 C19 1_555 1_555
C24 N3 1_555 1_555
C25 C26 1_555 1_555
C26 C27 1_555 1_555
C27 H17 1_555 1_555
C28 C27 1_555 1_555
H18 C28 1_555 1_555
C29 C28 1_555 1_555
H19 C29 1_555 1_555
C30 C29 1_555 1_555
C31 C26 1_555 1_555
H20 C31 1_555 1_555
C32 O3 1_555 1_555
C33 C32 1_555 1_555
C34 C33 1_555 1_555
H21 C34 1_555 1_555
C35 C34 1_555 1_555
H22 C35 1_555 1_555
C36 C35 1_555 1_555
H23 C36 1_555 1_555
C37 C36 1_555 1_555
C38 C33 1_555 1_555
H24 C38 1_555 1_555
C39 C40 1_555 1_555
C40 H25 1_555 1_555
C41 C40 1_555 1_555
H26 C41 1_555 1_555
C42 C41 1_555 1_555
H27 C42 1_555 1_555
C43 C42 1_555 1_555
C44 C39 1_555 1_555
H28 C44 1_555 1_555
C45 O4 1_555 1_555
C46 C30 1_555 1_555
C47 C37 1_555 1_555
C48 C39 1_555 1_555
O2A Y1 1_555 1_555
Y1A O2 1_555 1_555
Y2_2 O11 1_555 1_555
O8A Y2 1_555 1_555
Y2A O8 1_555 1_555
O10A Y2 1_555 1_555
O9_2 Y2 1_555 1_555
O11_2 Y2 1_555 1_555
O12_2 Y2 1_555 1_555
Y2A_2 O10 1_555 1_555
Y2_3 O9 1_555 1_555
O5 C45 1_555 1_555
O6 C32 1_555 1_555
C4 C12 1_555 1_555
C10 N2 1_555 1_555
N2 C11 1_555 1_555
C11 C12 1_555 1_555
O12 Y2_2 1_555 1_555
C16 C24 1_555 1_555
C22 N4 1_555 1_555
N4 C23 1_555 1_555
C23 C24 1_555 1_555
C30 C31 1_555 1_555
C37 C38 1_555 1_555
C43 C45 1_555 1_555
C43 C44 1_555 1_555

#END
