
#######################################################################
#
#                 Cambridge Crystallographic Data Centre
#                                CCDC 
#
#######################################################################
#
# If this CIF has been generated from an entry in the Cambridge 
# Structural Database, then it will include bibliographic, chemical, 
# crystal, experimental, refinement or atomic coordinate data resulting 
# from the CCDC's data processing and validation procedures.
#
#######################################################################

data_RAFNIV
_symmetry_cell_setting           triclinic
_symmetry_space_group_name_H-M   'I -1'
_symmetry_Int_Tables_number      2
_space_group_name_Hall           '-I 1'
loop_
_symmetry_equiv_pos_site_id
_symmetry_equiv_pos_as_xyz
1 x,y,z
2 1/2+x,1/2+y,1/2+z
3 -x,-y,-z
4 1/2-x,1/2-y,1/2-z
_cell_length_a                   5.7018(2)
_cell_length_b                   21.6612(4)
_cell_length_c                   21.5687(4)
_cell_angle_alpha                89.9760(10)
_cell_angle_beta                 89.992(2)
_cell_angle_gamma                89.989(2)
_cell_volume                     2663.9
loop_
_atom_site_label
_atom_site_type_symbol
_atom_site_fract_x
_atom_site_fract_y
_atom_site_fract_z
Ag1 Ag 0.86944(13) 0.00060(6) 0.24984(7)
N1 N 0.5952(26) -0.0784(6) 0.2496(6)
N2 N 0.6084(23) 0.0766(6) 0.2500(6)
N3 N 1.1411(20) 0.0027(7) 0.1719(6)
N4 N 1.1400(23) 0.0029(7) 0.3298(6)
C1 C 0.2306(13) -0.1484(3) 0.2493(3)
C2 C 0.1319(19) -0.1678(5) 0.1937(3)
H1 H 0.1941(27) -0.1535(7) 0.1554(3)
C3 C -0.0578(19) -0.2081(5) 0.1941(3)
H2 H -0.1253(28) -0.2213(7) 0.1561(4)
C4 C -0.1488(14) -0.2290(4) 0.2500(4)
C5 C -0.0502(18) -0.2096(5) 0.3057(3)
H3 H -0.1124(26) -0.2239(7) 0.3439(4)
C6 C 0.1396(18) -0.1693(5) 0.3053(3)
H4 H 0.2070(26) -0.1561(7) 0.3433(3)
C7 C 0.4317(32) -0.1096(7) 0.2498(7)
C8 C 0.2368(15) 0.1476(3) 0.2501(4)
C9 C 0.1414(18) 0.1677(5) 0.1943(3)
H5 H 0.2072(25) 0.1542(7) 0.1561(4)
C10 C -0.0501(18) 0.2074(5) 0.1943(4)
H6 H -0.1153(25) 0.2211(7) 0.1562(4)
C11 C -0.1463(14) 0.2270(4) 0.2502(5)
C12 C -0.0510(18) 0.2069(5) 0.3059(4)
H7 H -0.1167(25) 0.2203(7) 0.3441(4)
C13 C 0.1406(18) 0.1672(5) 0.3059(3)
H8 H 0.2057(25) 0.1535(7) 0.3440(4)
C14 C 0.4490(28) 0.1070(6) 0.2505(7)
C15 C 1.5145(14) 0.0019(4) 0.1027(4)
C16 C 1.6094(16) 0.0571(3) 0.0813(5)
H9 H 1.5434(23) 0.0953(4) 0.0940(7)
C17 C 1.8008(16) 0.0562(3) 0.0414(5)
H10 H 1.8656(23) 0.0939(4) 0.0268(7)
C18 C 1.8973(14) 0.0003(4) 0.0229(3)
C19 C 1.8025(19) -0.0549(3) 0.0443(4)
H11 H 1.8684(27) -0.0931(4) 0.0317(6)
C20 C 1.6110(19) -0.0541(3) 0.0842(4)
H12 H 1.5462(26) -0.0917(4) 0.0989(7)
C21 C 1.3131(26) 0.0016(6) 0.1409(6)
C22 C 1.5167(14) 0.0021(4) 0.3970(4)
C23 C 1.6119(18) -0.0538(3) 0.4162(5)
H13 H 1.5467(26) -0.0915(4) 0.4018(7)
C24 C 1.8025(19) -0.0545(3) 0.4563(4)
H14 H 1.8675(27) -0.0927(4) 0.4694(7)
C25 C 1.8979(14) 0.0007(4) 0.4774(3)
C26 C 1.8027(17) 0.0566(3) 0.4582(5)
H15 H 1.8679(24) 0.0943(4) 0.4726(7)
C27 C 1.6121(17) 0.0573(3) 0.4180(5)
H16 H 1.5471(25) 0.0956(4) 0.4049(7)
C28 C 1.3087(29) 0.0009(6) 0.3599(6)
C4C C -0.3512(14) -0.2710(4) 0.2500(4)
C11C C -0.3537(14) 0.2730(4) 0.2498(5)
C18B C 2.1027(14) -0.0003(4) -0.0229(3)
C25B C 2.1021(14) -0.0007(4) 0.5226(3)
Sb1 Sb 0.7496(5) -0.25001(7) -0.00247(4)
F1 F 0.5997(14) -0.2037(3) 0.0580(3)
F2 F 0.8994(16) -0.2968(4) -0.0629(3)
F3 F 0.5019(13) -0.3056(3) -0.0026(5)
F4 F 0.9969(13) -0.1945(3) -0.0029(5)
F5 F 0.6013(17) -0.2040(4) -0.0638(3)
F6 F 0.8983(14) -0.2960(3) 0.0584(3)
Sb2? Sb 0.4757(20) -0.2461(5) 0.0073(6)
F7? F 0.3651(34) -0.1900(8) 0.0655(8)
F8? F 0.5867(35) -0.3022(8) -0.0507(8)
F9? F 0.7474(28) -0.2565(11) 0.0537(9)
F10? F 0.2042(29) -0.2357(11) -0.0389(10)
F11? F 0.3348(41) -0.3100(8) 0.0509(10)
F12? F 0.6170(43) -0.1821(8) -0.0361(10)
loop_
_geom_bond_atom_site_label_1
_geom_bond_atom_site_label_2
_geom_bond_site_symmetry_1
_geom_bond_site_symmetry_2
Sb1 F1 1_555 1_555
F2 Sb1 1_555 1_555
F3 Sb1 1_555 1_555
F4 Sb1 1_555 1_555
F5 Sb1 1_555 1_555
F6 Sb1 1_555 1_555
Ag1 N1 1_555 1_555
N1 C7 1_555 1_555
N2 Ag1 1_555 1_555
N3 Ag1 1_555 1_555
N4 Ag1 1_555 1_555
C1 C2 1_555 1_555
C2 H1 1_555 1_555
C3 C2 1_555 1_555
H2 C3 1_555 1_555
C4 C3 1_555 1_555
C5 C4 1_555 1_555
H3 C5 1_555 1_555
C6 C1 1_555 1_555
H4 C6 1_555 1_555
C7 C1 1_555 1_555
C8 C9 1_555 1_555
C9 H5 1_555 1_555
C10 C9 1_555 1_555
H6 C10 1_555 1_555
C11 C10 1_555 1_555
C12 C11 1_555 1_555
H7 C12 1_555 1_555
C13 C8 1_555 1_555
H8 C13 1_555 1_555
C14 N2 1_555 1_555
C15 C16 1_555 1_555
C16 H9 1_555 1_555
C17 C16 1_555 1_555
H10 C17 1_555 1_555
C18 C17 1_555 1_555
C19 C18 1_555 1_555
H11 C19 1_555 1_555
C20 C15 1_555 1_555
H12 C20 1_555 1_555
C21 N3 1_555 1_555
C22 C23 1_555 1_555
C23 H13 1_555 1_555
C24 C23 1_555 1_555
H14 C24 1_555 1_555
C25 C24 1_555 1_555
C26 C25 1_555 1_555
H15 C26 1_555 1_555
C27 C22 1_555 1_555
H16 C27 1_555 1_555
C28 N4 1_555 1_555
C4C C4 1_555 1_555
C11C C11 1_555 1_555
C18B C18 1_555 1_555
C25B C25 1_555 1_555
C5 C6 1_555 1_555
C8 C14 1_555 1_555
C12 C13 1_555 1_555
C15 C21 1_555 1_555
C19 C20 1_555 1_555
C22 C28 1_555 1_555
C26 C27 1_555 1_555

#END
