
#######################################################################
#
#                 Cambridge Crystallographic Data Centre
#                                CCDC 
#
#######################################################################
#
# If this CIF has been generated from an entry in the Cambridge 
# Structural Database, then it will include bibliographic, chemical, 
# crystal, experimental, refinement or atomic coordinate data resulting 
# from the CCDC's data processing and validation procedures.
#
#######################################################################

data_RAFNUH01
_symmetry_cell_setting           tetragonal
_symmetry_space_group_name_H-M   'I -4 2 d'
_symmetry_Int_Tables_number      122
_space_group_name_Hall           'I -4 2bw'
loop_
_symmetry_equiv_pos_site_id
_symmetry_equiv_pos_as_xyz
1 x,y,z
2 y,-x,-z
3 x,1/2-y,1/4-z
4 -x,-y,z
5 1/2-y,-x,3/4+z
6 -y,x,-z
7 -x,1/2+y,1/4-z
8 1/2+y,x,3/4+z
9 1/2+x,1/2+y,1/2+z
10 1/2+y,1/2-x,1/2-z
11 1/2+x,-y,3/4-z
12 1/2-x,1/2-y,1/2+z
13 -y,1/2-x,1/4+z
14 1/2-y,1/2+x,1/2-z
15 1/2-x,y,3/4-z
16 y,1/2+x,1/4+z
_cell_length_a                   24.8606(5)
_cell_length_b                   24.8606(5)
_cell_length_c                   4.8016(2)
_cell_angle_alpha                90
_cell_angle_beta                 90
_cell_angle_gamma                90
_cell_volume                     2967.63
loop_
_atom_site_label
_atom_site_type_symbol
_atom_site_fract_x
_atom_site_fract_y
_atom_site_fract_z
Ag1 Ag 1.0000 0.0000 -0.5000
N1 N 1.0318(3) -0.0682(3) -0.2312(16)
C1 C 1.0368(3) -0.1440(3) 0.1335(17)
C2 C 1.0853(4) -0.1646(4) 0.2320(22)
H1 H 1.1184(4) -0.1498(4) 0.1698(22)
C3 C 1.0851(4) -0.2061(4) 0.4188(21)
H2 H 1.1185(4) -0.2206(4) 0.4780(21)
C4 C 1.0387(3) -0.2276(3) 0.5237(17)
C5 C 0.9913(4) -0.2056(4) 0.4235(21)
H3 H 0.9581(4) -0.2192(4) 0.4928(21)
C6 C 0.9898(4) -0.1656(3) 0.2310(21)
H4 H 0.9563(4) -0.1527(3) 0.1642(21)
C7 C 1.0350(3) -0.1019(3) -0.0677(16)
N1A N 0.9318(3) -0.0318(3) -0.7688(16)
N1C N 0.9682(3) 0.0682(3) -0.2312(16)
N1E N 1.0682(3) 0.0318(3) -0.7688(16)
C4B C 1.0387(3) -0.2724(3) 0.7263(17)
As1 As 0.83459(13) -0.2522(3) 0.0378(10)
F1 F 0.8820(10) -0.2065(9) -0.0590(60)
F2 F 0.7871(8) -0.2970(8) 0.1299(53)
F3 F 0.8152(9) -0.2097(7) 0.2926(38)
F4 F 0.8566(8) -0.2944(8) -0.2154(45)
F5 F 0.7918(11) -0.2224(12) -0.1879(53)
F6 F 0.8781(11) -0.2815(10) 0.2655(50)
As1B As 0.83459(13) -0.2478(3) 0.2122(10)
F1B F 0.8820(10) -0.2935(9) 0.3090(60)
F2B F 0.7871(8) -0.2030(8) 0.1201(53)
F3B F 0.8152(9) -0.2903(7) -0.0426(38)
F6B F 0.8781(11) -0.2185(10) -0.0155(50)
F5B F 0.7918(11) -0.2776(12) 0.4379(53)
F4B F 0.8566(8) -0.2056(8) 0.4654(45)
loop_
_geom_bond_atom_site_label_1
_geom_bond_atom_site_label_2
_geom_bond_site_symmetry_1
_geom_bond_site_symmetry_2
Ag1 N1 1_555 1_555
N1 C7 1_555 1_555
C1 C2 1_555 1_555
C2 H1 1_555 1_555
C3 C2 1_555 1_555
H2 C3 1_555 1_555
C4 C3 1_555 1_555
C5 C4 1_555 1_555
H3 C5 1_555 1_555
C6 C1 1_555 1_555
H4 C6 1_555 1_555
C7 C1 1_555 1_555
As1 F1 1_555 1_555
F1 As1B 1_555 1_555
F2 As1 1_555 1_555
F3 As1 1_555 1_555
F4 As1 1_555 1_555
F5 As1 1_555 1_555
F6 As1 1_555 1_555
N1A Ag1 1_555 1_555
N1C Ag1 1_555 1_555
N1E Ag1 1_555 1_555
C4B C4 1_555 1_555
As1B As1 1_555 1_555
F1B As1 1_555 1_555
F2B As1 1_555 1_555
F3B As1 1_555 1_555
F6B As1 1_555 1_555
F5B F2 1_555 1_555
F4B F3 1_555 1_555
C5 C6 1_555 1_555
F1 F6B 1_555 1_555
F2 As1B 1_555 1_555
F2 F3B 1_555 1_555
F3 As1B 1_555 1_555
F3 F2B 1_555 1_555
F4 F3B 1_555 1_555
F5 F2B 1_555 1_555
F6 As1B 1_555 1_555
F6 F1B 1_555 1_555
As1B F1B 1_555 1_555
As1B F2B 1_555 1_555
As1B F3B 1_555 1_555
As1B F6B 1_555 1_555
As1B F5B 1_555 1_555
As1B F4B 1_555 1_555

#END
