
#######################################################################
#
#                 Cambridge Crystallographic Data Centre
#                                CCDC 
#
#######################################################################
#
# If this CIF has been generated from an entry in the Cambridge 
# Structural Database, then it will include bibliographic, chemical, 
# crystal, experimental, refinement or atomic coordinate data resulting 
# from the CCDC's data processing and validation procedures.
#
#######################################################################

data_RAFQOF
_symmetry_cell_setting           monoclinic
_symmetry_space_group_name_H-M   'C 2/c'
_symmetry_Int_Tables_number      15
_space_group_name_Hall           '-C 2yn'
loop_
_symmetry_equiv_pos_site_id
_symmetry_equiv_pos_as_xyz
1 x,y,z
2 1/2+x,1/2+y,z
3 x,-y,1/2+z
4 1/2+x,1/2-y,1/2+z
5 -x,-y,-z
6 1/2-x,1/2-y,-z
7 -x,y,1/2-z
8 1/2-x,1/2+y,1/2-z
_cell_length_a                   10.6586(19)
_cell_length_b                   11.1828(18)
_cell_length_c                   25.769(4)
_cell_angle_alpha                90
_cell_angle_beta                 94.624(3)
_cell_angle_gamma                90
_cell_volume                     3061.49
loop_
_atom_site_label
_atom_site_type_symbol
_atom_site_fract_x
_atom_site_fract_y
_atom_site_fract_z
Cd1 Cd -0.16563(4) 0.40451(3) -0.031330(14)
N1 N -0.3650(4) 0.4981(3) -0.04499(18)
H1 H -0.3782 0.5421 -0.0167
H2 H -0.4247 0.4410 -0.0479
N2 N -0.0341(4) 0.7815(4) -0.01787(17)
N3 N -0.2440(4) 0.2327(3) -0.07440(15)
N4 N -0.1262(4) 0.6092(3) -0.02784(15)
N5 N -0.0305(4) 0.6691(4) -0.00257(16)
N6 N -0.0737(4) 0.3982(3) -0.11212(16)
H3 H -0.0247 0.3327 -0.1121
H4 H -0.0226 0.4621 -0.1135
N7 N -0.1310(4) 0.7986(4) -0.05235(18)
C1 C -0.2759(5) 0.2241(4) -0.12520(18)
C2 C -0.1550(5) 0.3968(4) -0.15881(19)
C3 C -0.1871(5) 0.6913(4) -0.05843(19)
C4 C -0.3804(5) 0.5741(4) -0.0901(2)
C5 C -0.2528(5) 0.3142(4) -0.16545(18)
C6 C -0.2947(5) 0.6668(4) -0.0962(2)
C7 C -0.3134(6) 0.3959(5) -0.2495(2)
H5 H -0.3663 0.3948 -0.2800
C8 C -0.3111(5) 0.7370(5) -0.1407(2)
H6 H -0.2572 0.8012 -0.1445
C9 C -0.1394(6) 0.4797(5) -0.1982(2)
H7 H -0.0748 0.5356 -0.1940
C10 C -0.4764(6) 0.5534(5) -0.1286(3)
H8 H -0.5339 0.4923 -0.1246
C11 C -0.4865(6) 0.6239(5) -0.1728(3)
H9 H -0.5507 0.6090 -0.1986
C12 C -0.3300(5) 0.3148(4) -0.2113(2)
H10 H -0.3943 0.2587 -0.2161
C13 C -0.2186(6) 0.4799(5) -0.2432(2)
H11 H -0.2081 0.5361 -0.2691
C14 C -0.4042(6) 0.7145(5) -0.1791(2)
H12 H -0.4112 0.7607 -0.2092
N8 N -0.3397(5) 0.1230(4) -0.13628(17)
N9 N -0.3466(5) 0.0685(4) -0.09088(18)
N10 N -0.2887(4) 0.1331(4) -0.05371(16)
Cd1D Cd 0.16563(4) 0.59549(3) 0.031330(14)
N5D N 0.0305(4) 0.3309(4) 0.00257(16)
N10E N -0.2113(4) 0.3669(4) 0.05371(16)
Cd1E Cd -0.33437(4) 0.09549(3) 0.031330(14)
loop_
_geom_bond_atom_site_label_1
_geom_bond_atom_site_label_2
_geom_bond_site_symmetry_1
_geom_bond_site_symmetry_2
Cd1 N1 1_555 1_555
N1 H1 1_555 1_555
H2 N1 1_555 1_555
N2 N5 1_555 1_555
N3 Cd1 1_555 1_555
N4 Cd1 1_555 1_555
N5 N4 1_555 1_555
N6 Cd1 1_555 1_555
H3 N6 1_555 1_555
H4 N6 1_555 1_555
N7 N2 1_555 1_555
C1 N3 1_555 1_555
C2 N6 1_555 1_555
C3 N4 1_555 1_555
C4 N1 1_555 1_555
C5 C1 1_555 1_555
C6 C3 1_555 1_555
C7 H5 1_555 1_555
C8 C6 1_555 1_555
H6 C8 1_555 1_555
C9 C2 1_555 1_555
H7 C9 1_555 1_555
C10 C4 1_555 1_555
H8 C10 1_555 1_555
C11 C10 1_555 1_555
H9 C11 1_555 1_555
C12 C5 1_555 1_555
H10 C12 1_555 1_555
C13 C7 1_555 1_555
H11 C13 1_555 1_555
C14 C8 1_555 1_555
H12 C14 1_555 1_555
N8 C1 1_555 1_555
N9 N8 1_555 1_555
N10 N3 1_555 1_555
Cd1D N5 1_555 1_555
N5D Cd1 1_555 1_555
N10E Cd1 1_555 1_555
Cd1E N10 1_555 1_555
N7 C3 1_555 1_555
C2 C5 1_555 1_555
C4 C6 1_555 1_555
C7 C12 1_555 1_555
C9 C13 1_555 1_555
C11 C14 1_555 1_555
N9 N10 1_555 1_555

#END
