
#######################################################################
#
#                 Cambridge Crystallographic Data Centre
#                                CCDC 
#
#######################################################################
#
# If this CIF has been generated from an entry in the Cambridge 
# Structural Database, then it will include bibliographic, chemical, 
# crystal, experimental, refinement or atomic coordinate data resulting 
# from the CCDC's data processing and validation procedures.
#
#######################################################################

data_RAFQEV
_symmetry_cell_setting           monoclinic
_symmetry_space_group_name_H-M   'P 21/n'
_symmetry_Int_Tables_number      14
_space_group_name_Hall           '-P 2yn'
loop_
_symmetry_equiv_pos_site_id
_symmetry_equiv_pos_as_xyz
1 x,y,z
2 1/2+x,1/2-y,1/2+z
3 -x,-y,-z
4 1/2-x,1/2+y,1/2-z
_cell_length_a                   10.3924(6)
_cell_length_b                   15.8057(9)
_cell_length_c                   11.3783(6)
_cell_angle_alpha                90
_cell_angle_beta                 116.2290(10)
_cell_angle_gamma                90
_cell_volume                     1676.55
loop_
_atom_site_label
_atom_site_type_symbol
_atom_site_fract_x
_atom_site_fract_y
_atom_site_fract_z
Zn1 Zn -0.73712(3) -0.315500(18) 0.27802(3)
N1 N -0.5626(2) -0.38940(14) 0.2897(2)
N2 N -0.7836(3) -0.43532(13) 0.3298(2)
C1 C -0.4553(3) -0.3604(2) 0.2670(3)
H1 H -0.4522 -0.3029 0.2507
C2 C -0.3489(4) -0.4119(2) 0.2665(4)
H2 H -0.2747 -0.3900 0.2511
C3 C -0.3554(4) -0.4967(2) 0.2893(4)
H3 H -0.2857 -0.5331 0.2882
C4 C -0.4651(3) -0.5280(2) 0.3139(3)
H4 H -0.4699 -0.5853 0.3303
C5 C -0.5681(3) -0.47203(17) 0.3135(3)
C6 C -0.6912(3) -0.49781(16) 0.3387(3)
C7 C -0.2886(4) 0.58000(18) 0.6310(3)
H5 H -0.3540 0.6221 0.6246
C8 C -0.1711(4) 0.59884(19) 0.6105(3)
H6 H -0.1557 0.6538 0.5906
C9 C -0.0765(4) 0.5354(2) 0.6197(3)
H7 H 0.0038 0.5468 0.6063
C10 C -0.1028(3) 0.45437(19) 0.6492(3)
H8 H -0.0392 0.4115 0.6547
O1 O -0.6166(2) -0.21099(12) 0.34979(19)
O2 O -0.6369(2) -0.24757(12) 0.5283(2)
O3 O -0.7239(2) 0.19045(13) 0.5896(2)
O4 O -0.6828(2) 0.20728(11) 0.41576(19)
C11 C -0.6124(3) -0.19421(16) 0.4595(3)
C12 C -0.5963(3) -0.10190(15) 0.4985(2)
C13 C -0.7059(3) -0.07128(17) 0.5223(3)
H9 H -0.7699 -0.1089 0.5310
C14 C -0.7230(3) 0.01543(17) 0.5339(3)
H10 H -0.7981 0.0344 0.5505
C15 C -0.6317(3) 0.07308(15) 0.5213(2)
C16 C -0.6801(3) 0.16447(16) 0.5100(3)
C17 C -0.5094(3) 0.04480(15) 0.5060(2)
O5 O -0.0830(2) 0.25460(14) 0.7292(2)
H11 H -0.014(2) 0.257(2) 0.8055(13)
H12 H -0.050(3) 0.253(2) 0.673(2)
O4C O -0.8172(2) -0.29272(11) 0.08424(19)
Zn1C Zn -0.76288(3) 0.184500(18) 0.22198(3)
C12B C -0.4037(3) 0.10190(15) 0.5015(2)
C11B C -0.3876(3) 0.19421(16) 0.5405(3)
O1B O -0.3834(2) 0.21099(12) 0.65021(19)
Zn1B Zn -0.26288(3) 0.315500(18) 0.72198(3)
N1B N -0.4374(2) 0.38940(14) 0.7103(2)
C1B C -0.5447(3) 0.3604(2) 0.7330(3)
H1B H -0.5478 0.3029 0.7493
C2B C -0.6511(4) 0.4119(2) 0.7335(4)
H2B H -0.7253 0.3900 0.7489
C3B C -0.6446(4) 0.4967(2) 0.7107(4)
H3B H -0.7143 0.5331 0.7118
C4B C -0.5349(3) 0.5280(2) 0.6861(3)
H4B H -0.5301 0.5853 0.6697
C5B C -0.4319(3) 0.47203(17) 0.6865(3)
C6B C -0.3088(3) 0.49781(16) 0.6613(3)
N2B N -0.2164(3) 0.43532(13) 0.6702(2)
O4A O -0.1828(2) 0.29272(11) 0.91576(19)
O2B O -0.3631(2) 0.24757(12) 0.4717(2)
C13B C -0.2941(3) 0.07128(17) 0.4777(3)
C17B C -0.4906(3) -0.04480(15) 0.4940(2)
C15B C -0.3683(3) -0.07308(15) 0.4787(2)
O5B O -0.9170(2) -0.25460(14) 0.2708(2)
H11B H -0.986(2) -0.257(2) 0.1945(13)
H12B H -0.950(3) -0.253(2) 0.327(2)
C10B C -0.8972(3) -0.45437(19) 0.3508(3)
C9B C -0.9235(4) -0.5354(2) 0.3803(3)
C8B C -0.8289(4) -0.59884(19) 0.3895(3)
C7B C -0.7114(4) -0.58000(18) 0.3690(3)
H5B H -0.6460 -0.6221 0.3754
H6B H -0.8443 -0.6538 0.4094
H7B H -1.0038 -0.5468 0.3937
H8B H -0.9608 -0.4115 0.3453
H9B H -0.2301 0.1089 0.4690
C14B C -0.2770(3) -0.01543(17) 0.4661(3)
C16B C -0.3199(3) -0.16447(16) 0.4900(3)
H10B H -0.2019 -0.0344 0.4495
O3B O -0.2761(2) -0.19045(13) 0.4104(2)
O4B O -0.3172(2) -0.20728(11) 0.58424(19)
Zn1A Zn -0.23712(3) -0.184500(18) 0.77802(3)
O6 O -0.8134(3) -0.31647(18) -0.3473(3)
H13 H -0.788(4) -0.318(2) -0.2648(13)
H14 H -0.750(3) -0.289(2) -0.360(3)
O7 O -0.4658(5) -0.7682(4) 0.0659(4)
H15 H -0.504(6) -0.719(2) 0.036(8)
H16 H -0.379(3) -0.766(4) 0.076(7)
loop_
_geom_bond_atom_site_label_1
_geom_bond_atom_site_label_2
_geom_bond_site_symmetry_1
_geom_bond_site_symmetry_2
Zn1 N1 1_555 1_555
N1 C1 1_555 1_555
N2 Zn1 1_555 1_555
C1 H1 1_555 1_555
C2 C1 1_555 1_555
H2 C2 1_555 1_555
C3 C2 1_555 1_555
H3 C3 1_555 1_555
C4 C3 1_555 1_555
H4 C4 1_555 1_555
C5 N1 1_555 1_555
C6 N2 1_555 1_555
C7 H5 1_555 1_555
C8 C7 1_555 1_555
H6 C8 1_555 1_555
C9 C8 1_555 1_555
H7 C9 1_555 1_555
C10 C9 1_555 1_555
H8 C10 1_555 1_555
O1 Zn1 1_555 1_555
O2 C11 1_555 1_555
O3 C16 1_555 1_555
O4 C16 1_555 1_555
C11 O1 1_555 1_555
C12 C11 1_555 1_555
C13 C12 1_555 1_555
H9 C13 1_555 1_555
C14 C13 1_555 1_555
H10 C14 1_555 1_555
C15 C14 1_555 1_555
C16 C15 1_555 1_555
C17 C15 1_555 1_555
O5 H11 1_555 1_555
H12 O5 1_555 1_555
O6 H13 1_555 1_555
H14 O6 1_555 1_555
O7 H15 1_555 1_555
H16 O7 1_555 1_555
O4C Zn1 1_555 1_555
Zn1C O4 1_555 1_555
C12B C17 1_555 1_555
C11B C12B 1_555 1_555
O1B C11B 1_555 1_555
Zn1B O5 1_555 1_555
N1B Zn1B 1_555 1_555
C1B N1B 1_555 1_555
H1B C1B 1_555 1_555
C2B C1B 1_555 1_555
H2B C2B 1_555 1_555
C3B C2B 1_555 1_555
H3B C3B 1_555 1_555
C4B C3B 1_555 1_555
H4B C4B 1_555 1_555
C5B N1B 1_555 1_555
C6B C7 1_555 1_555
N2B C10 1_555 1_555
O4A Zn1B 1_555 1_555
O2B C11B 1_555 1_555
C13B C12B 1_555 1_555
C17B C12 1_555 1_555
C15B C17B 1_555 1_555
O5B Zn1 1_555 1_555
H11B O5B 1_555 1_555
H12B O5B 1_555 1_555
C10B N2 1_555 1_555
C9B C10B 1_555 1_555
C8B C9B 1_555 1_555
C7B C6 1_555 1_555
H5B C7B 1_555 1_555
H6B C8B 1_555 1_555
H7B C9B 1_555 1_555
H8B C10B 1_555 1_555
H9B C13B 1_555 1_555
C14B C13B 1_555 1_555
C16B C15B 1_555 1_555
H10B C14B 1_555 1_555
O3B C16B 1_555 1_555
O4B C16B 1_555 1_555
Zn1A O4B 1_555 1_555
C4 C5 1_555 1_555
C5 C6 1_555 1_555
C17 C17B 1_555 1_555
O1B Zn1B 1_555 1_555
Zn1B N2B 1_555 1_555
C4B C5B 1_555 1_555
C5B C6B 1_555 1_555
C6B N2B 1_555 1_555
C15B C14B 1_555 1_555
C8B C7B 1_555 1_555

#END
