
#######################################################################
#
#                 Cambridge Crystallographic Data Centre
#                                CCDC 
#
#######################################################################
#
# If this CIF has been generated from an entry in the Cambridge 
# Structural Database, then it will include bibliographic, chemical, 
# crystal, experimental, refinement or atomic coordinate data resulting 
# from the CCDC's data processing and validation procedures.
#
#######################################################################

data_RAFRAS
_symmetry_cell_setting           monoclinic
_symmetry_space_group_name_H-M   'P n'
_symmetry_Int_Tables_number      7
_space_group_name_Hall           'P -2yac'
loop_
_symmetry_equiv_pos_site_id
_symmetry_equiv_pos_as_xyz
1 x,y,z
2 1/2+x,-y,1/2+z
_cell_length_a                   13.3066(2)
_cell_length_b                   13.6343(3)
_cell_length_c                   13.6501(2)
_cell_angle_alpha                90
_cell_angle_beta                 97.8044(12)
_cell_angle_gamma                90
_cell_volume                     2453.55
loop_
_atom_site_label
_atom_site_type_symbol
_atom_site_fract_x
_atom_site_fract_y
_atom_site_fract_z
Cd1 Cd 0.86699(2) -0.01848(3) 0.25083(2)
O1 O 0.7442(4) -0.1401(6) 0.2837(4)
O2 O 0.7056(4) -0.2324(4) 0.4027(5)
O3 O 0.8546(4) -0.1747(5) 0.4029(4)
O4 O 0.9818(4) 0.1069(4) 0.2151(4)
O5 O 1.0195(3) 0.2324(3) 0.1283(4)
O6 O 0.8825(4) 0.1493(4) 0.0885(4)
N1 N 0.9043(4) 0.0544(4) 0.4084(4)
N2 N 1.0104(4) 0.1240(4) 0.5326(4)
N3 N 0.9195(4) 0.1012(4) 0.5620(4)
N4 N 0.8085(4) 0.1109(3) 0.6792(4)
N5 N 0.6919(4) 0.1173(4) 0.7917(3)
N6 N 0.6665(4) 0.1389(4) 0.8840(4)
N7 N 0.5287(4) 0.0911(4) 0.7810(4)
N8 N 0.7079(4) 0.0558(4) 0.2128(4)
N9 N 0.5739(4) 0.1151(4) 0.1099(4)
N10 N 0.5467(4) 0.0927(4) 0.2009(4)
N11 N 0.4310(4) 0.1017(4) 0.3128(3)
N12 N 0.3223(4) 0.1127(4) 0.4321(4)
N13 N 0.2407(4) 0.1590(4) 0.4641(4)
N14 N 0.3376(4) 0.0829(4) 0.5899(4)
N15 N 0.7653(3) -0.1846(3) 0.3615(3)
N16 N 0.9608(3) 0.1623(3) 0.1441(3)
C1 C 0.8571(5) 0.0604(4) 0.4869(5)
H1 H 0.7896 0.0393 0.4901
C2 C 0.9981(5) 0.0940(4) 0.4401(5)
H2 H 1.0498 0.0992 0.3987
C3 C 0.9042(5) 0.1241(4) 0.6619(5)
C4 C 0.9840(5) 0.1535(5) 0.7285(5)
H3 H 1.0500 0.1619 0.7107
C5 C 0.9631(5) 0.1707(5) 0.8252(5)
H4 H 1.0157 0.1915 0.8749
C6 C 0.8668(5) 0.1575(5) 0.8475(5)
H5 H 0.8513 0.1674 0.9127
C7 C 0.7928(5) 0.1291(4) 0.7716(5)
C8 C 0.6087(5) 0.0873(4) 0.7325(5)
H6 H 0.6072 0.0666 0.6658
C9 C 0.5694(5) 0.1220(5) 0.8722(4)
H7 H 0.5296 0.1307 0.9242
C10 C 0.6255(4) 0.0561(4) 0.2605(5)
H8 H 0.6239 0.0338 0.3262
C11 C 0.6708(5) 0.0921(6) 0.1208(5)
H9 H 0.7118 0.0998 0.0696
C12 C 0.4439(5) 0.1104(4) 0.2191(5)
C13 C 0.3722(5) 0.1364(4) 0.1408(5)
H10 H 0.3880 0.1419 0.0752
C14 C 0.2760(5) 0.1541(5) 0.1639(4)
H11 H 0.2234 0.1731 0.1133
C15 C 0.2557(5) 0.1443(5) 0.2595(5)
H12 H 0.1894 0.1541 0.2759
C16 C 0.3367(5) 0.1194(5) 0.3318(5)
C17 C 0.3775(5) 0.0674(4) 0.5071(5)
H13 H 0.4366 0.0296 0.5023
C18 C 0.2544(5) 0.1389(5) 0.5581(5)
H14 H 0.2095 0.1616 0.6018
N7A N 1.0287(4) -0.0911(4) 0.2810(4)
N14A N 0.8376(4) -0.0829(4) 0.0899(4)
Cd1A Cd 0.36699(2) 0.01848(3) 0.75083(2)
Cd2 Cd 0.46494(2) 0.49001(3) 0.46381(2)
O7 O 0.3902(4) 0.6293(3) 0.5217(3)
H15 H 0.434(3) 0.666(4) 0.553(5)
H16 H 0.341(3) 0.639(5) 0.553(4)
O8 O 0.5134(3) 0.3501(3) 0.3919(3)
H17 H 0.516(4) 0.378(5) 0.337(3)
H18 H 0.570(3) 0.323(5) 0.401(5)
N17 N 0.4332(4) 0.5649(4) 0.3065(4)
N18 N 0.3265(4) 0.6367(4) 0.1847(4)
N19 N 0.4174(3) 0.6131(3) 0.1525(4)
N20 N 0.5265(4) 0.6140(4) 0.0329(4)
N21 N 0.6426(4) 0.6134(4) -0.0785(4)
N22 N 0.6688(4) 0.6326(4) -0.1692(4)
N23 N 0.8017(4) 0.5744(4) -0.0663(4)
N24 N 0.6276(4) 0.5540(4) 0.4995(4)
N25 N 0.7602(4) 0.6069(4) 0.6047(4)
N26 N 0.7891(4) 0.5866(4) 0.5140(4)
N27 N 0.9050(4) 0.5938(4) 0.4017(4)
N28 N 1.0123(4) 0.6093(4) 0.2819(4)
N29 N 1.0985(4) 0.6450(5) 0.2514(4)
N30 N 0.9954(4) 0.5799(4) 0.1234(4)
C19 C 0.4797(4) 0.5701(4) 0.2259(4)
H19 H 0.5463 0.5471 0.2212
C20 C 0.3408(4) 0.6071(4) 0.2771(5)
H20 H 0.2908 0.6144 0.3201
C21 C 0.4342(5) 0.6339(4) 0.0547(4)
C22 C 0.3558(4) 0.6731(5) -0.0126(4)
H21 H 0.2911 0.6858 0.0068
C23 C 0.3743(4) 0.6927(4) -0.1072(4)
H22 H 0.3225 0.7190 -0.1547
C24 C 0.4710(5) 0.6730(5) -0.1323(5)
H23 H 0.4873 0.6860 -0.1967
C25 C 0.5419(4) 0.6339(4) -0.0590(5)
C26 C 0.7227(4) 0.5792(5) -0.0175(5)
H24 H 0.7225 0.5615 0.0498
C27 C 0.7666(5) 0.6088(5) -0.1586(4)
H25 H 0.8078 0.6151 -0.2099
C28 C 0.7064(5) 0.5565(5) 0.4530(5)
H26 H 0.7060 0.5395 0.3854
C29 C 0.6642(5) 0.5865(5) 0.5923(5)
H27 H 0.6228 0.5934 0.6433
C30 C 0.8875(5) 0.6065(4) 0.4959(4)
C31 C 0.9608(5) 0.6380(5) 0.5718(4)
H28 H 0.9458 0.6452 0.6375
C32 C 1.0559(5) 0.6584(5) 0.5481(5)
H29 H 1.1079 0.6798 0.5981
C33 C 1.0764(5) 0.6478(5) 0.4515(5)
H30 H 1.1416 0.6611 0.4335
C34 C 0.9973(5) 0.6172(5) 0.3839(5)
C35 C 0.9511(5) 0.5707(5) 0.2043(4)
H31 H 0.8867 0.5416 0.2072
C36 C 1.0840(5) 0.6264(5) 0.1550(4)
H32 H 1.1315 0.6440 0.1121
N23A N 0.3017(4) 0.4256(4) 0.4337(4)
N30A N 0.4954(4) 0.4201(4) 0.6234(4)
Cd2A Cd 0.96494(2) 0.50999(3) -0.03619(2)
N31 N 0.6123(3) 0.1461(3) 0.4831(3)
O9 O 0.6694(3) 0.1867(3) 0.4299(3)
O10 O 0.5483(3) 0.1964(3) 0.5217(3)
O11 O 0.6168(3) 0.0546(4) 0.4982(3)
N32 N 0.7185(3) 0.4232(4) 0.2207(3)
O12 O 0.7789(3) 0.3738(4) 0.1771(3)
O13 O 0.6631(3) 0.3811(4) 0.2726(3)
O14 O 0.7158(4) 0.5161(3) 0.2121(4)
loop_
_geom_bond_atom_site_label_1
_geom_bond_atom_site_label_2
_geom_bond_site_symmetry_1
_geom_bond_site_symmetry_2
Cd1 O1 1_555 1_555
O1 N15 1_555 1_555
O2 N15 1_555 1_555
O3 N15 1_555 1_555
O4 Cd1 1_555 1_555
O5 N16 1_555 1_555
O6 N16 1_555 1_555
N1 Cd1 1_555 1_555
N2 N3 1_555 1_555
N3 C1 1_555 1_555
N4 C3 1_555 1_555
N5 N6 1_555 1_555
N6 C9 1_555 1_555
N7 C8 1_555 1_555
N8 Cd1 1_555 1_555
N9 N10 1_555 1_555
N10 C10 1_555 1_555
N11 C12 1_555 1_555
N12 N13 1_555 1_555
N13 C18 1_555 1_555
N14 C17 1_555 1_555
N16 O4 1_555 1_555
C1 N1 1_555 1_555
H1 C1 1_555 1_555
C2 N1 1_555 1_555
H2 C2 1_555 1_555
C3 N3 1_555 1_555
C4 C3 1_555 1_555
H3 C4 1_555 1_555
C5 C4 1_555 1_555
H4 C5 1_555 1_555
C6 C5 1_555 1_555
H5 C6 1_555 1_555
C7 N4 1_555 1_555
C8 N5 1_555 1_555
H6 C8 1_555 1_555
C9 N7 1_555 1_555
H7 C9 1_555 1_555
C10 N8 1_555 1_555
H8 C10 1_555 1_555
C11 N8 1_555 1_555
H9 C11 1_555 1_555
C12 N10 1_555 1_555
C13 C12 1_555 1_555
H10 C13 1_555 1_555
C14 C13 1_555 1_555
H11 C14 1_555 1_555
C15 C14 1_555 1_555
H12 C15 1_555 1_555
C16 N11 1_555 1_555
C17 N12 1_555 1_555
H13 C17 1_555 1_555
C18 N14 1_555 1_555
H14 C18 1_555 1_555
Cd2 O7 1_555 1_555
O7 H15 1_555 1_555
H16 O7 1_555 1_555
O8 Cd2 1_555 1_555
H17 O8 1_555 1_555
H18 O8 1_555 1_555
N17 Cd2 1_555 1_555
N18 N19 1_555 1_555
N19 C19 1_555 1_555
N20 C21 1_555 1_555
N21 N22 1_555 1_555
N22 C27 1_555 1_555
N23 C26 1_555 1_555
N24 Cd2 1_555 1_555
N25 N26 1_555 1_555
N26 C28 1_555 1_555
N27 C30 1_555 1_555
N28 N29 1_555 1_555
N29 C36 1_555 1_555
N30 C35 1_555 1_555
C19 N17 1_555 1_555
H19 C19 1_555 1_555
C20 N17 1_555 1_555
H20 C20 1_555 1_555
C21 N19 1_555 1_555
C22 C21 1_555 1_555
H21 C22 1_555 1_555
C23 C22 1_555 1_555
H22 C23 1_555 1_555
C24 C23 1_555 1_555
H23 C24 1_555 1_555
C25 N20 1_555 1_555
C26 N21 1_555 1_555
H24 C26 1_555 1_555
C27 N23 1_555 1_555
H25 C27 1_555 1_555
C28 N24 1_555 1_555
H26 C28 1_555 1_555
C29 N24 1_555 1_555
H27 C29 1_555 1_555
C30 N26 1_555 1_555
C31 C30 1_555 1_555
H28 C31 1_555 1_555
C32 C31 1_555 1_555
H29 C32 1_555 1_555
C33 C32 1_555 1_555
H30 C33 1_555 1_555
C34 N27 1_555 1_555
C35 N28 1_555 1_555
H31 C35 1_555 1_555
C36 N30 1_555 1_555
H32 C36 1_555 1_555
N31 O9 1_555 1_555
O10 N31 1_555 1_555
O11 N31 1_555 1_555
N32 O12 1_555 1_555
O13 N32 1_555 1_555
O14 N32 1_555 1_555
N7A Cd1 1_555 1_555
N14A Cd1 1_555 1_555
Cd1A N7 1_555 1_555
N23A Cd2 1_555 1_555
N30A Cd2 1_555 1_555
Cd2A N23 1_555 1_555
N2 C2 1_555 1_555
N5 C7 1_555 1_555
N9 C11 1_555 1_555
N12 C16 1_555 1_555
N14 Cd1A 1_555 1_555
C6 C7 1_555 1_555
C15 C16 1_555 1_555
N18 C20 1_555 1_555
N21 C25 1_555 1_555
N25 C29 1_555 1_555
N28 C34 1_555 1_555
N30 Cd2A 1_555 1_555
C24 C25 1_555 1_555
C33 C34 1_555 1_555

#END
