
#######################################################################
#
#                 Cambridge Crystallographic Data Centre
#                                CCDC 
#
#######################################################################
#
# If this CIF has been generated from an entry in the Cambridge 
# Structural Database, then it will include bibliographic, chemical, 
# crystal, experimental, refinement or atomic coordinate data resulting 
# from the CCDC's data processing and validation procedures.
#
#######################################################################

data_RAFVIF
_symmetry_cell_setting           monoclinic
_symmetry_space_group_name_H-M   'C 2/c'
_symmetry_Int_Tables_number      15
_space_group_name_Hall           '-C 2yn'
loop_
_symmetry_equiv_pos_site_id
_symmetry_equiv_pos_as_xyz
1 x,y,z
2 -x,y,1/2-z
3 1/2+x,1/2+y,z
4 1/2-x,1/2+y,1/2-z
5 -x,-y,-z
6 x,-y,1/2+z
7 1/2-x,1/2-y,-z
8 1/2+x,1/2-y,1/2+z
_cell_length_a                   22.744(2)
_cell_length_b                   10.7218(12)
_cell_length_c                   17.5243(19)
_cell_angle_alpha                90
_cell_angle_beta                 122.457(2)
_cell_angle_gamma                90
_cell_volume                     3605.89
loop_
_atom_site_label
_atom_site_type_symbol
_atom_site_fract_x
_atom_site_fract_y
_atom_site_fract_z
Cu1 Cu 0.0000 0.92865(6) 0.2500
S1 S 0.19001(6) 1.37290(10) 0.53709(7)
S2 S 0.22847(5) 1.48842(10) 0.48212(8)
N1 N 0.06337(15) 1.0653(3) 0.3357(2)
N2 N 0.06864(15) 1.7961(3) 0.3305(2)
C1 C 0.0787(2) 1.0670(4) 0.4207(3)
H1 H 0.0629 1.0018 0.4400
C2 C 0.1169(2) 1.1607(4) 0.4811(3)
H2 H 0.1263 1.1582 0.5397
C3 C 0.14132(18) 1.2587(3) 0.4540(2)
C4 C 0.1256(2) 1.2576(4) 0.3664(3)
H3 H 0.1412 1.3215 0.3456
C5 C 0.0866(2) 1.1605(4) 0.3098(3)
H4 H 0.0758 1.1616 0.2506
C6 C 0.16357(18) 1.6050(3) 0.4249(2)
C7 C 0.18341(18) 1.7086(3) 0.3975(2)
H5 H 0.2285 1.7156 0.4099
C8 C 0.13526(19) 1.8013(3) 0.3516(2)
H6 H 0.1492 1.8714 0.3341
C9 C 0.05135(19) 1.6949(4) 0.3592(3)
H7 H 0.0061 1.6899 0.3466
C10 C 0.09607(19) 1.5982(4) 0.4062(3)
H8 H 0.0815 1.5302 0.4249
O4 O 0.0572(2) 0.8938(4) 0.1581(3)
H13 H 0.030(3) 0.877(5) 0.098(4)
H14 H 0.081(3) 0.940(5) 0.156(4)
Cu1_2 Cu 0.0000 1.92865(6) 0.2500
S1A S -0.19001(6) 1.37290(10) -0.03709(7)
S2A S -0.22847(5) 1.48842(10) 0.01788(8)
N1A N -0.06337(15) 1.0653(3) 0.1643(2)
N2A N -0.06864(15) 1.7961(3) 0.1695(2)
N2_2 N 0.06864(15) 0.7961(3) 0.3305(2)
N2A_2 N -0.06864(15) 0.7961(3) 0.1695(2)
C1A C -0.0787(2) 1.0670(4) 0.0793(3)
H1A H -0.0629 1.0018 0.0600
C2A C -0.1169(2) 1.1607(4) 0.0189(3)
H2A H -0.1263 1.1582 -0.0397
C3A C -0.14132(18) 1.2587(3) 0.0460(2)
C4A C -0.1256(2) 1.2576(4) 0.1336(3)
H3A H -0.1412 1.3215 0.1544
C5A C -0.0866(2) 1.1605(4) 0.1902(3)
H4A H -0.0758 1.1616 0.2494
C6A C -0.16357(18) 1.6050(3) 0.0751(2)
C7A C -0.18341(18) 1.7086(3) 0.1025(2)
H5A H -0.2285 1.7156 0.0901
C8A C -0.13526(19) 1.8013(3) 0.1484(2)
H6A H -0.1492 1.8714 0.1659
C9A C -0.05135(19) 1.6949(4) 0.1408(3)
H7A H -0.0061 1.6899 0.1534
C10A C -0.09607(19) 1.5982(4) 0.0938(3)
H8A H -0.0815 1.5302 0.0751
O4A O -0.0572(2) 0.8938(4) 0.3419(3)
H13A H -0.030(3) 0.877(5) 0.402(4)
H14A H -0.081(3) 0.940(5) 0.344(4)
S3 S 0.11736(5) 0.82814(10) 0.59734(7)
O1 O 0.13976(16) 0.9064(3) 0.6764(2)
O2 O 0.04489(14) 0.8454(3) 0.5276(2)
O3 O 0.16375(14) 0.8360(3) 0.5654(2)
N3 N 0.0689(2) 0.4769(4) 0.6256(3)
C11 C 0.1238(2) 0.6732(4) 0.6363(3)
C12 C 0.0667(2) 0.5949(5) 0.5992(3)
H9 H 0.0241 0.6261 0.5530
C13 C 0.1306(3) 0.4355(5) 0.6903(3)
H10 H 0.1335 0.3532 0.7088
C14 C 0.1898(3) 0.5039(5) 0.7316(3)
H11 H 0.2316 0.4696 0.7774
C15 C 0.1868(2) 0.6254(4) 0.7041(3)
H12 H 0.2267 0.6745 0.7310
loop_
_geom_bond_atom_site_label_1
_geom_bond_atom_site_label_2
_geom_bond_site_symmetry_1
_geom_bond_site_symmetry_2
Cu1 N1 1_555 1_555
S1 S2 1_555 1_555
S2 C6 1_555 1_555
S3 O1 1_555 1_555
N1 C1 1_555 1_555
N2 C8 1_555 1_555
O2 S3 1_555 1_555
O3 S3 1_555 1_555
C1 H1 1_555 1_555
C2 C1 1_555 1_555
H2 C2 1_555 1_555
C3 S1 1_555 1_555
C4 C3 1_555 1_555
H3 C4 1_555 1_555
C5 N1 1_555 1_555
H4 C5 1_555 1_555
C6 C7 1_555 1_555
C7 H5 1_555 1_555
C8 C7 1_555 1_555
H6 C8 1_555 1_555
C9 N2 1_555 1_555
H7 C9 1_555 1_555
C10 C6 1_555 1_555
H8 C10 1_555 1_555
N3 C12 1_555 1_555
C11 S3 1_555 1_555
C12 C11 1_555 1_555
H9 C12 1_555 1_555
C13 N3 1_555 1_555
H10 C13 1_555 1_555
C14 C13 1_555 1_555
H11 C14 1_555 1_555
C15 C11 1_555 1_555
H12 C15 1_555 1_555
O4 Cu1 1_555 1_555
H13 O4 1_555 1_555
H14 O4 1_555 1_555
Cu1_2 N2 1_555 1_555
S1A S2A 1_555 1_555
S2A C6A 1_555 1_555
N1A Cu1 1_555 1_555
N2A Cu1_2 1_555 1_555
N2_2 Cu1 1_555 1_555
N2A_2 Cu1 1_555 1_555
C1A N1A 1_555 1_555
H1A C1A 1_555 1_555
C2A C1A 1_555 1_555
H2A C2A 1_555 1_555
C3A S1A 1_555 1_555
C4A C3A 1_555 1_555
H3A C4A 1_555 1_555
C5A N1A 1_555 1_555
H4A C5A 1_555 1_555
C6A C7A 1_555 1_555
C7A H5A 1_555 1_555
C8A N2A 1_555 1_555
H6A C8A 1_555 1_555
C9A N2A 1_555 1_555
H7A C9A 1_555 1_555
C10A C6A 1_555 1_555
H8A C10A 1_555 1_555
O4A Cu1 1_555 1_555
H13A O4A 1_555 1_555
H14A O4A 1_555 1_555
C2 C3 1_555 1_555
C4 C5 1_555 1_555
C9 C10 1_555 1_555
C14 C15 1_555 1_555
C2A C3A 1_555 1_555
C4A C5A 1_555 1_555
C7A C8A 1_555 1_555
C9A C10A 1_555 1_555

#END
