
#######################################################################
#
#                 Cambridge Crystallographic Data Centre
#                                CCDC 
#
#######################################################################
#
# If this CIF has been generated from an entry in the Cambridge 
# Structural Database, then it will include bibliographic, chemical, 
# crystal, experimental, refinement or atomic coordinate data resulting 
# from the CCDC's data processing and validation procedures.
#
#######################################################################

data_RAFVUR
_symmetry_cell_setting           monoclinic
_symmetry_space_group_name_H-M   'C 2/c'
_symmetry_Int_Tables_number      15
_space_group_name_Hall           '-C 2yn'
loop_
_symmetry_equiv_pos_site_id
_symmetry_equiv_pos_as_xyz
1 x,y,z
2 -x,y,1/2-z
3 1/2+x,1/2+y,z
4 1/2-x,1/2+y,1/2-z
5 -x,-y,-z
6 x,-y,1/2+z
7 1/2-x,1/2-y,-z
8 1/2+x,1/2-y,1/2+z
_cell_length_a                   24.729(4)
_cell_length_b                   10.767(2)
_cell_length_c                   16.196(3)
_cell_angle_alpha                90
_cell_angle_beta                 125.779(3)
_cell_angle_gamma                90
_cell_volume                     3498.48
loop_
_atom_site_label
_atom_site_type_symbol
_atom_site_fract_x
_atom_site_fract_y
_atom_site_fract_z
Cu1 Cu 0.5000 0.46582(9) -0.2500
S1 S 0.72415(7) 0.02185(13) -0.06730(11)
S2 S 0.71459(7) -0.08882(13) 0.02442(11)
N1 N 0.5726(2) 0.3335(4) -0.1776(3)
N2 N 0.5694(2) -0.3974(4) -0.1669(3)
C1 C 0.6261(3) 0.3417(5) -0.1782(4)
H1 H 0.6324 0.4142 -0.2029
C2 C 0.6724(3) 0.2492(5) -0.1444(4)
H2 H 0.7087 0.2581 -0.1473
C3 C 0.6641(3) 0.1412(5) -0.1054(4)
C4 C 0.6093(3) 0.1308(5) -0.1027(4)
H3 H 0.6022 0.0600 -0.0774
C5 C 0.5658(3) 0.2299(5) -0.1390(4)
H4 H 0.5293 0.2243 -0.1364
C6 C 0.6566(2) -0.2054(5) -0.0555(4)
C7 C 0.6194(3) -0.2062(5) -0.1594(4)
H5 H 0.6229 -0.1412 -0.1937
C8 C 0.5768(3) -0.3029(5) -0.2129(4)
H6 H 0.5523 -0.3028 -0.2835
C9 C 0.6048(3) -0.3957(5) -0.0646(4)
H7 H 0.5997 -0.4605 -0.0317
C10 C 0.6477(3) -0.3021(5) -0.0082(4)
H8 H 0.6711 -0.3029 0.0623
O1 O 0.4823(3) 0.4521(5) -0.1167(4)
H9 H 0.493(3) 0.409(5) -0.074(4)
H10 H 0.452(3) 0.480(7) -0.123(5)
Cu1_2 Cu 0.5000 -0.53418(9) -0.2500
S1A S 0.27585(7) 0.02185(13) -0.43270(11)
S2A S 0.28541(7) -0.08882(13) -0.52442(11)
N1A N 0.4274(2) 0.3335(4) -0.3224(3)
N2A N 0.4306(2) -0.3974(4) -0.3331(3)
N2_2 N 0.5694(2) 0.6026(4) -0.1669(3)
N2A_2 N 0.4306(2) 0.6026(4) -0.3331(3)
C1A C 0.3739(3) 0.3417(5) -0.3218(4)
H1A H 0.3676 0.4142 -0.2971
C2A C 0.3276(3) 0.2492(5) -0.3556(4)
H2A H 0.2913 0.2581 -0.3527
C3A C 0.3359(3) 0.1412(5) -0.3946(4)
C4A C 0.3907(3) 0.1308(5) -0.3973(4)
H3A H 0.3978 0.0600 -0.4226
C5A C 0.4342(3) 0.2299(5) -0.3610(4)
H4A H 0.4707 0.2243 -0.3636
C6A C 0.3434(2) -0.2054(5) -0.4445(4)
C7A C 0.3806(3) -0.2062(5) -0.3406(4)
H5A H 0.3771 -0.1412 -0.3063
C8A C 0.4232(3) -0.3029(5) -0.2871(4)
H6A H 0.4477 -0.3028 -0.2165
C9A C 0.3952(3) -0.3957(5) -0.4354(4)
H7A H 0.4003 -0.4605 -0.4683
C10A C 0.3523(3) -0.3021(5) -0.4918(4)
H8A H 0.3289 -0.3029 -0.5623
O1A O 0.5177(3) 0.4521(5) -0.3833(4)
H9A H 0.507(3) 0.409(5) -0.426(4)
H10A H 0.548(3) 0.480(7) -0.377(5)
O2 O 0.69850(18) 1.0942(4) -0.2876(3)
O3 O 0.7702(2) 0.9402(4) -0.2431(3)
O4 O 0.5526(2) 0.7171(4) -0.4546(3)
O5 O 0.62548(17) 0.5682(4) -0.3669(3)
C11 C 0.7102(3) 0.9865(6) -0.2901(4)
C12 C 0.6655(3) 0.7727(5) -0.3373(4)
H11 H 0.7088 0.7428 -0.2941
C13 C 0.6572(3) 0.8917(5) -0.3463(4)
H12 H 0.6139 0.9205 -0.3924
C14 C 0.6105(3) 0.6802(5) -0.3913(4)
H13 H 0.805(3) 0.993(6) -0.211(5)
O6 O 0.5560(4) 1.1337(8) -0.3967(8)
O7 O 0.4862(5) 0.9227(9) -0.4155(9)
loop_
_geom_bond_atom_site_label_1
_geom_bond_atom_site_label_2
_geom_bond_site_symmetry_1
_geom_bond_site_symmetry_2
Cu1 N1 1_555 1_555
S1 S2 1_555 1_555
S2 C6 1_555 1_555
N1 C1 1_555 1_555
N2 C8 1_555 1_555
C1 H1 1_555 1_555
C2 C1 1_555 1_555
H2 C2 1_555 1_555
C3 S1 1_555 1_555
C4 C3 1_555 1_555
H3 C4 1_555 1_555
C5 N1 1_555 1_555
H4 C5 1_555 1_555
C6 C7 1_555 1_555
C7 H5 1_555 1_555
C8 C7 1_555 1_555
H6 C8 1_555 1_555
C9 N2 1_555 1_555
H7 C9 1_555 1_555
C10 C6 1_555 1_555
H8 C10 1_555 1_555
O1 Cu1 1_555 1_555
H9 O1 1_555 1_555
H10 O1 1_555 1_555
O2 C11 1_555 1_555
O3 C11 1_555 1_555
O4 C14 1_555 1_555
O5 C14 1_555 1_555
C11 C13 1_555 1_555
C12 H11 1_555 1_555
C13 C12 1_555 1_555
H12 C13 1_555 1_555
C14 C12 1_555 1_555
H13 O3 1_555 1_555
Cu1_2 N2 1_555 1_555
S1A S2A 1_555 1_555
S2A C6A 1_555 1_555
N1A Cu1 1_555 1_555
N2A Cu1_2 1_555 1_555
N2_2 Cu1 1_555 1_555
N2A_2 Cu1 1_555 1_555
C1A N1A 1_555 1_555
H1A C1A 1_555 1_555
C2A C1A 1_555 1_555
H2A C2A 1_555 1_555
C3A S1A 1_555 1_555
C4A C3A 1_555 1_555
H3A C4A 1_555 1_555
C5A N1A 1_555 1_555
H4A C5A 1_555 1_555
C6A C7A 1_555 1_555
C7A H5A 1_555 1_555
C8A N2A 1_555 1_555
H6A C8A 1_555 1_555
C9A N2A 1_555 1_555
H7A C9A 1_555 1_555
C10A C6A 1_555 1_555
H8A C10A 1_555 1_555
O1A Cu1 1_555 1_555
H9A O1A 1_555 1_555
H10A O1A 1_555 1_555
C2 C3 1_555 1_555
C4 C5 1_555 1_555
C9 C10 1_555 1_555
C2A C3A 1_555 1_555
C4A C5A 1_555 1_555
C7A C8A 1_555 1_555
C9A C10A 1_555 1_555

#END
