
#######################################################################
#
#                 Cambridge Crystallographic Data Centre
#                                CCDC 
#
#######################################################################
#
# If this CIF has been generated from an entry in the Cambridge 
# Structural Database, then it will include bibliographic, chemical, 
# crystal, experimental, refinement or atomic coordinate data resulting 
# from the CCDC's data processing and validation procedures.
#
#######################################################################

data_RAFWAY
_symmetry_cell_setting           orthorhombic
_symmetry_space_group_name_H-M   'A b a 2'
_symmetry_Int_Tables_number      41
_space_group_name_Hall           'A 2 -2ab'
loop_
_symmetry_equiv_pos_site_id
_symmetry_equiv_pos_as_xyz
1 x,y,z
2 -x,-y,z
3 1/2+x,1/2-y,z
4 1/2-x,1/2+y,z
5 x,1/2+y,1/2+z
6 -x,1/2-y,1/2+z
7 1/2+x,-y,1/2+z
8 1/2-x,y,1/2+z
_cell_length_a                   21.1044(16)
_cell_length_b                   10.9531(8)
_cell_length_c                   16.1799(12)
_cell_angle_alpha                90
_cell_angle_beta                 90
_cell_angle_gamma                90
_cell_volume                     3740.12
loop_
_atom_site_label
_atom_site_type_symbol
_atom_site_fract_x
_atom_site_fract_y
_atom_site_fract_z
Zn1 Zn 1.0000 0.5000 0.60956(5)
S1 S 0.78426(4) 0.05014(9) 0.55377(6)
S2 S 0.78074(4) -0.06111(9) 0.65363(6)
N1 N 0.92551(14) 0.3573(3) 0.6035(2)
N2 N 0.92713(13) -0.3609(2) 0.6136(2)
O1 O 1.0000 0.5000 0.4782(3)
O2 O 1.0000 0.5000 0.7411(3)
C1 C 0.9227(2) 0.2619(3) 0.6550(2)
H1 H 0.9504 0.2603 0.6997
C2 C 0.88081(17) 0.1650(4) 0.6455(2)
H2 H 0.8805 0.1006 0.6829
C3 C 0.83983(16) 0.1669(3) 0.5796(2)
C4 C 0.84182(18) 0.2644(3) 0.5258(2)
H3 H 0.8146 0.2679 0.4806
C5 C 0.88455(15) 0.3561(3) 0.5400(2)
H4 H 0.8852 0.4216 0.5035
C6 C 0.87749(15) -0.3731(3) 0.6644(2)
H5 H 0.8733 -0.4461 0.6933
C7 C 0.83262(16) -0.2850(3) 0.6765(2)
H6 H 0.7989 -0.2983 0.7124
C8 C 0.83845(15) -0.1749(3) 0.6342(2)
C9 C 0.88930(16) -0.1619(3) 0.5800(2)
H7 H 0.8942 -0.0909 0.5490
C10 C 0.93180(19) -0.2551(3) 0.5732(2)
H8 H 0.9663 -0.2443 0.5381
H9 H 0.9823(17) 0.551(3) 0.455(2)
H10 H 0.9749(17) 0.535(4) 0.771(2)
Zn1_2 Zn 1.0000 -0.5000 0.60956(5)
S1A S 1.21574(4) -0.05014(9) 0.55377(6)
S2A S 1.21926(4) 0.06111(9) 0.65363(6)
N1A N 1.07449(14) -0.3573(3) 0.6035(2)
N1A_2 N 1.07449(14) 0.6427(3) 0.6035(2)
N2A N 1.07287(13) 0.3609(2) 0.6136(2)
N2_2 N 0.92713(13) 0.6391(2) 0.6136(2)
C1A C 1.0773(2) -0.2619(3) 0.6550(2)
H1A H 1.0496 -0.2603 0.6997
C2A C 1.11919(17) -0.1650(4) 0.6455(2)
H2A H 1.1195 -0.1006 0.6829
C3A C 1.16017(16) -0.1669(3) 0.5796(2)
C4A C 1.15818(18) -0.2644(3) 0.5258(2)
H3A H 1.1854 -0.2679 0.4806
C5A C 1.11545(15) -0.3561(3) 0.5400(2)
H4A H 1.1148 -0.4216 0.5035
C6A C 1.12251(15) 0.3731(3) 0.6644(2)
H5A H 1.1267 0.4461 0.6933
C7A C 1.16738(16) 0.2850(3) 0.6765(2)
H6A H 1.2011 0.2983 0.7124
C8A C 1.16155(15) 0.1749(3) 0.6342(2)
C9A C 1.11070(16) 0.1619(3) 0.5800(2)
H7A H 1.1058 0.0909 0.5490
C10A C 1.06820(19) 0.2551(3) 0.5732(2)
H8A H 1.0337 0.2443 0.5381
H9A H 1.0177(17) 0.449(3) 0.455(2)
H10A H 1.0251(17) 0.465(4) 0.771(2)
O3 O 0.76733(10) -0.1082(2) 0.85908(16)
O4 O 0.63493(10) -0.4788(2) 0.85760(19)
C11 C 0.61926(15) -0.3692(3) 0.8678(2)
O5 O 0.56377(10) -0.3353(2) 0.88114(16)
C12 C 0.67024(14) -0.2757(3) 0.8629(2)
H11 H 0.7121 -0.3023 0.8611
C13 C 0.65946(15) -0.1584(3) 0.8609(2)
H12 H 0.6177 -0.1321 0.8646
C14 C 0.70980(14) -0.0644(3) 0.85316(19)
O6 O 0.69814(12) 0.0431(2) 0.84252(17)
H13 H 0.797(2) -0.050(5) 0.856(3)
O7 O 0.44978(16) -0.3519(3) 0.7929(2)
H14 H 0.421(2) -0.412(4) 0.806(3)
H15 H 0.492(2) -0.362(4) 0.818(3)
O8 O 0.92819(16) 0.6252(3) 0.8533(2)
H16 H 0.9440(17) 0.695(4) 0.842(2)
H17 H 0.886(3) 0.607(5) 0.849(3)
O9 O 1.0000 0.5000 0.9796(4)
H18 H 0.978(3) 0.544(6) 0.957(4)
H18A H 1.022(3) 0.456(6) 0.957(4)
loop_
_geom_bond_atom_site_label_1
_geom_bond_atom_site_label_2
_geom_bond_site_symmetry_1
_geom_bond_site_symmetry_2
Zn1 N1 1_555 1_555
S1 S2 1_555 1_555
S2 C8 1_555 1_555
N1 C1 1_555 1_555
N2 C6 1_555 1_555
O1 Zn1 1_555 1_555
O2 Zn1 1_555 1_555
C1 H1 1_555 1_555
C2 C1 1_555 1_555
H2 C2 1_555 1_555
C3 S1 1_555 1_555
C4 C3 1_555 1_555
H3 C4 1_555 1_555
C5 N1 1_555 1_555
H4 C5 1_555 1_555
C6 H5 1_555 1_555
C7 C6 1_555 1_555
H6 C7 1_555 1_555
C8 C7 1_555 1_555
C9 C8 1_555 1_555
H7 C9 1_555 1_555
C10 N2 1_555 1_555
H8 C10 1_555 1_555
H9 O1 1_555 1_555
H10 O2 1_555 1_555
O3 C14 1_555 1_555
O4 C11 1_555 1_555
C11 O5 1_555 1_555
C12 C11 1_555 1_555
H11 C12 1_555 1_555
C13 C12 1_555 1_555
H12 C13 1_555 1_555
C14 C13 1_555 1_555
O6 C14 1_555 1_555
H13 O3 1_555 1_555
O7 H14 1_555 1_555
H15 O7 1_555 1_555
O8 H16 1_555 1_555
H17 O8 1_555 1_555
O9 H18 1_555 1_555
Zn1_2 N2 1_555 1_555
S1A S2A 1_555 1_555
S2A C8A 1_555 1_555
N1A Zn1_2 1_555 1_555
N1A_2 Zn1 1_555 1_555
N2A Zn1 1_555 1_555
N2_2 Zn1 1_555 1_555
C1A N1A 1_555 1_555
H1A C1A 1_555 1_555
C2A C1A 1_555 1_555
H2A C2A 1_555 1_555
C3A S1A 1_555 1_555
C4A C3A 1_555 1_555
H3A C4A 1_555 1_555
C5A N1A 1_555 1_555
H4A C5A 1_555 1_555
C6A N2A 1_555 1_555
H5A C6A 1_555 1_555
C7A C6A 1_555 1_555
H6A C7A 1_555 1_555
C8A C7A 1_555 1_555
C9A C8A 1_555 1_555
H7A C9A 1_555 1_555
C10A N2A 1_555 1_555
H8A C10A 1_555 1_555
H9A O1 1_555 1_555
H10A O2 1_555 1_555
H18A O9 1_555 1_555
C2 C3 1_555 1_555
C4 C5 1_555 1_555
C9 C10 1_555 1_555
C2A C3A 1_555 1_555
C4A C5A 1_555 1_555
C9A C10A 1_555 1_555

#END
