
#######################################################################
#
#                 Cambridge Crystallographic Data Centre
#                                CCDC 
#
#######################################################################
#
# If this CIF has been generated from an entry in the Cambridge 
# Structural Database, then it will include bibliographic, chemical, 
# crystal, experimental, refinement or atomic coordinate data resulting 
# from the CCDC's data processing and validation procedures.
#
#######################################################################

data_RAFXIH
_symmetry_cell_setting           orthorhombic
_symmetry_space_group_name_H-M   'P b c a'
_symmetry_Int_Tables_number      61
_space_group_name_Hall           '-P 2ac 2ab'
loop_
_symmetry_equiv_pos_site_id
_symmetry_equiv_pos_as_xyz
1 x,y,z
2 1/2-x,-y,1/2+z
3 1/2+x,1/2-y,-z
4 -x,1/2+y,1/2-z
5 -x,-y,-z
6 1/2+x,y,1/2-z
7 1/2-x,1/2+y,z
8 x,1/2-y,1/2+z
_cell_length_a                   15.0797(8)
_cell_length_b                   23.6946(8)
_cell_length_c                   37.9955(12)
_cell_angle_alpha                90
_cell_angle_beta                 90
_cell_angle_gamma                90
_cell_volume                     13576.1
loop_
_atom_site_label
_atom_site_type_symbol
_atom_site_fract_x
_atom_site_fract_y
_atom_site_fract_z
Cd1 Cd 0.36028(4) 0.22770(2) 0.653172(15)
Cd2 Cd 0.58087(4) 0.14173(2) 0.606470(12)
Cd3 Cd 0.82002(4) 0.06161(2) 0.565641(13)
C1 C 0.8245(6) 0.1717(4) 0.3803(2)
C2 C 0.8084(5) 0.1179(3) 0.4001(2)
C3 C 0.8149(5) 0.1170(3) 0.43628(19)
H1 H 0.8283 0.1499 0.4485
C4 C 0.8015(5) 0.0671(3) 0.45442(19)
C5 C 0.7790(5) 0.0188(3) 0.43626(19)
H2 H 0.7689 -0.0149 0.4482
C6 C 0.7717(5) 0.0213(4) 0.4001(2)
H3 H 0.7574 -0.0113 0.3878
C7 C 0.7848(5) 0.0698(4) 0.3820(2)
H4 H 0.7778 0.0706 0.3577
C8 C 0.8086(5) 0.0650(4) 0.4943(2)
C9 C 0.9561(5) 0.0815(4) 0.6976(2)
C10 C 1.0004(5) 0.0685(4) 0.6659(2)
H5 H 1.0521 0.0471 0.6668
C11 C 0.9689(5) 0.0867(3) 0.6329(2)
C12 C 0.8892(5) 0.1162(3) 0.6314(2)
C13 C 0.8446(5) 0.1300(3) 0.66330(19)
C14 C 0.8805(5) 0.1111(4) 0.6944(2)
H6 H 0.8499 0.1195 0.7150
C15 C 0.9922(6) 0.0612(5) 0.7324(2)
H7 H 1.0473 0.0418 0.7286
H8 H 0.9504 0.0359 0.7431
H9 H 1.0020 0.0929 0.7476
C16 C 1.0179(6) 0.0729(4) 0.5997(2)
H10 H 1.0282 0.1074 0.5866
H11 H 1.0751 0.0568 0.6057
C17 C 0.7590(5) 0.1615(3) 0.6604(2)
H12 H 0.7452 0.1792 0.6828
H13 H 0.7644 0.1910 0.6429
C18 C 0.6452(5) 0.0943(4) 0.68043(18)
H14 H 0.6217 0.1227 0.6963
H15 H 0.6902 0.0732 0.6931
C19 C 0.5711(5) 0.0545(3) 0.6699(2)
H16 H 0.5958 0.0220 0.6579
H17 H 0.5406 0.0413 0.6908
C20 C 0.4303(5) 0.0460(3) 0.63793(19)
H18 H 0.4081 0.0558 0.6148
H19 H 0.4492 0.0069 0.6374
C21 C 0.3578(5) 0.0530(3) 0.66461(19)
C22 C 0.3414(5) 0.0144(3) 0.6913(2)
H20 H 0.3735 -0.0192 0.6917
C23 C 0.2785(6) 0.0243(4) 0.7173(2)
C24 C 0.2623(8) -0.0193(4) 0.7467(3)
H21 H 0.2166 -0.0059 0.7622
H22 H 0.3161 -0.0248 0.7598
H23 H 0.2443 -0.0545 0.7365
C25 C 0.2318(6) 0.0740(4) 0.7156(2)
H24 H 0.1892 0.0811 0.7327
C26 C 0.2454(5) 0.1143(4) 0.6894(2)
C27 C 0.3109(5) 0.1037(3) 0.66331(19)
C28 C 0.1888(7) 0.1660(5) 0.6869(3)
H25 H 0.1599 0.1664 0.6641
H26 H 0.1428 0.1638 0.7047
C29 C 0.2659(9) 0.2306(5) 0.7275(3)
H27 H 0.2576 0.2703 0.7327
H28 H 0.2287 0.2091 0.7435
C30 C 0.3574(10) 0.2157(5) 0.7333(2)
H29 H 0.3642 0.1753 0.7304
H30 H 0.3731 0.2249 0.7574
C31 C 0.5096(6) 0.2270(4) 0.7141(2)
H31 H 0.5131 0.1865 0.7107
H32 H 0.5277 0.2351 0.7380
C32 C 0.5733(6) 0.2556(3) 0.68894(19)
C33 C 0.5630(6) 0.2480(3) 0.6521(2)
C34 C 0.6177(6) 0.2774(3) 0.6291(2)
C35 C 0.6841(7) 0.3106(3) 0.6424(2)
H33 H 0.7219 0.3285 0.6266
C36 C 0.6981(7) 0.3190(3) 0.6776(3)
C37 C 0.6392(7) 0.2923(4) 0.7001(2)
H34 H 0.6441 0.2994 0.7240
C38 C 0.7720(9) 0.3552(5) 0.6917(3)
H35 H 0.8063 0.3697 0.6724
H36 H 0.8094 0.3330 0.7067
H37 H 0.7474 0.3860 0.7049
C39 C 0.5993(6) 0.2727(3) 0.5902(2)
H38 H 0.5359 0.2754 0.5861
H39 H 0.6275 0.3039 0.5780
C40 C 0.6042(8) 0.2096(4) 0.5392(2)
H40 H 0.6442 0.1832 0.5279
H41 H 0.6073 0.2450 0.5265
C41 C 0.5099(7) 0.1867(4) 0.5373(2)
H42 H 0.4696 0.2132 0.5483
H43 H 0.4926 0.1828 0.5128
C42 C 0.5328(6) 0.0839(3) 0.53340(18)
H44 H 0.5880 0.0938 0.5218
H45 H 0.4891 0.0765 0.5152
C43 C 0.5468(5) 0.0308(3) 0.55448(17)
C44 C 0.4887(6) -0.0146(3) 0.5524(2)
H46 H 0.4374 -0.0106 0.5391
C45 C 0.5035(6) -0.0647(3) 0.5689(2)
C46 C 0.5802(5) -0.0692(3) 0.5892(2)
H47 H 0.5907 -0.1028 0.6012
C47 C 0.6418(5) -0.0256(3) 0.59230(18)
C48 C 0.6226(5) 0.0259(3) 0.57512(17)
C49 C 0.4385(6) -0.1137(4) 0.5670(3)
H48 H 0.4613 -0.1450 0.5803
H49 H 0.4305 -0.1248 0.5429
H50 H 0.3825 -0.1022 0.5767
C50 C 0.7255(5) -0.0322(3) 0.61392(19)
H51 H 0.7275 -0.0029 0.6318
H52 H 0.7246 -0.0684 0.6258
C51 C 0.8871(5) -0.0383(4) 0.6120(2)
H53 H 0.8892 -0.0772 0.6199
H54 H 0.8880 -0.0142 0.6327
C52 C 0.9672(6) -0.0257(4) 0.5893(2)
H55 H 1.0208 -0.0335 0.6025
H56 H 0.9667 -0.0505 0.5689
N1 N 0.4185(5) 0.2447(4) 0.70945(18)
N2 N 0.2381(6) 0.2196(3) 0.6915(2)
N3 N 0.5084(4) 0.0831(2) 0.64683(15)
N4 N 0.6863(4) 0.1222(2) 0.65041(15)
N5 N 0.9684(5) 0.0327(4) 0.5775(2)
N6 N 0.8047(4) -0.0284(3) 0.59190(17)
N7 N 0.5030(6) 0.1320(3) 0.55481(18)
N8 N 0.6327(6) 0.2187(3) 0.57561(17)
O1 O 0.8015(5) 0.0193(2) 0.50910(14)
O2 O 0.8209(5) 0.1088(3) 0.51110(14)
O4 O 0.8337(5) 0.2176(3) 0.39651(17)
O6 O 0.8248(6) 0.1705(3) 0.34761(18)
O8 O 0.8539(4) 0.1327(2) 0.60097(13)
O10 O 0.6757(3) 0.07111(19) 0.57988(12)
O12 O 0.5033(3) 0.2102(2) 0.64009(13)
O14 O 0.3260(4) 0.1410(2) 0.63828(14)
H57 H 0.425(4) 0.277(2) 0.7111(14)
H58 H 0.482(4) 0.119(3) 0.6590(17)
H59 H 0.986(4) 0.033(3) 0.5621(17)
H60 H 0.807(4) -0.057(3) 0.5806(17)
H61 H 0.458(5) 0.128(3) 0.561(2)
H62 H 0.691(6) 0.222(3) 0.569(2)
Cd1B Cd 0.86028(4) 0.27230(2) 0.346828(15)
C1B C 0.3245(6) 0.3283(4) 0.6197(2)
O4B O 0.3337(5) 0.2824(3) 0.60349(17)
O6B O 0.3248(6) 0.3295(3) 0.65239(18)
C53 C 0.9787(17) 0.0952(11) 0.3041(7)
O5 O 0.9028(10) 0.1221(6) 0.2909(4)
O3 O 0.3007(6) 0.1241(3) 0.5695(2)
O7 O 0.7469(11) 0.2645(7) 0.4543(4)
O9 O 0.8518(11) 0.2377(7) 0.5806(5)
O11 O 0.8648(14) 0.2182(9) 0.5086(6)
O13 O 0.9558(13) -0.0466(8) 0.4960(5)
O15 O 0.096(2) 0.3099(15) 0.6892(9)
O16 O 0.306(2) 0.0900(13) 0.4955(8)
O17? O 0.225(2) 0.1146(14) 0.4708(9)
loop_
_geom_bond_atom_site_label_1
_geom_bond_atom_site_label_2
_geom_bond_site_symmetry_1
_geom_bond_site_symmetry_2
Cd1 N1 1_555 1_555
Cd2 N3 1_555 1_555
Cd3 N5 1_555 1_555
C1 C2 1_555 1_555
C2 C3 1_555 1_555
C3 H1 1_555 1_555
C4 C3 1_555 1_555
C5 C4 1_555 1_555
H2 C5 1_555 1_555
C6 C5 1_555 1_555
H3 C6 1_555 1_555
C7 C2 1_555 1_555
H4 C7 1_555 1_555
C8 C4 1_555 1_555
C9 C10 1_555 1_555
C10 H5 1_555 1_555
C11 C10 1_555 1_555
C12 C11 1_555 1_555
C13 C12 1_555 1_555
C14 C9 1_555 1_555
H6 C14 1_555 1_555
C15 C9 1_555 1_555
H7 C15 1_555 1_555
H8 C15 1_555 1_555
H9 C15 1_555 1_555
C16 C11 1_555 1_555
H10 C16 1_555 1_555
H11 C16 1_555 1_555
C17 C13 1_555 1_555
H12 C17 1_555 1_555
H13 C17 1_555 1_555
C18 H14 1_555 1_555
H15 C18 1_555 1_555
C19 C18 1_555 1_555
H16 C19 1_555 1_555
H17 C19 1_555 1_555
C20 H18 1_555 1_555
H19 C20 1_555 1_555
C21 C20 1_555 1_555
C22 C21 1_555 1_555
H20 C22 1_555 1_555
C23 C22 1_555 1_555
C24 C23 1_555 1_555
H21 C24 1_555 1_555
H22 C24 1_555 1_555
H23 C24 1_555 1_555
C25 C23 1_555 1_555
H24 C25 1_555 1_555
C26 C25 1_555 1_555
C27 C21 1_555 1_555
C28 C26 1_555 1_555
H25 C28 1_555 1_555
H26 C28 1_555 1_555
C29 H27 1_555 1_555
H28 C29 1_555 1_555
C30 C29 1_555 1_555
H29 C30 1_555 1_555
H30 C30 1_555 1_555
C31 H31 1_555 1_555
H32 C31 1_555 1_555
C32 C31 1_555 1_555
C33 C32 1_555 1_555
C34 C33 1_555 1_555
C35 C34 1_555 1_555
H33 C35 1_555 1_555
C36 C35 1_555 1_555
C37 C32 1_555 1_555
H34 C37 1_555 1_555
C38 C36 1_555 1_555
H35 C38 1_555 1_555
H36 C38 1_555 1_555
H37 C38 1_555 1_555
C39 C34 1_555 1_555
H38 C39 1_555 1_555
H39 C39 1_555 1_555
C40 H40 1_555 1_555
H41 C40 1_555 1_555
C41 C40 1_555 1_555
H42 C41 1_555 1_555
H43 C41 1_555 1_555
C42 H44 1_555 1_555
H45 C42 1_555 1_555
C43 C42 1_555 1_555
C44 C43 1_555 1_555
H46 C44 1_555 1_555
C45 C44 1_555 1_555
C46 C45 1_555 1_555
H47 C46 1_555 1_555
C47 C46 1_555 1_555
C48 C43 1_555 1_555
C49 C45 1_555 1_555
H48 C49 1_555 1_555
H49 C49 1_555 1_555
H50 C49 1_555 1_555
C50 C47 1_555 1_555
H51 C50 1_555 1_555
H52 C50 1_555 1_555
C51 H53 1_555 1_555
H54 C51 1_555 1_555
C52 C51 1_555 1_555
H55 C52 1_555 1_555
H56 C52 1_555 1_555
C53 O5 1_555 1_555
N1 C30 1_555 1_555
N2 Cd1 1_555 1_555
N3 C19 1_555 1_555
N4 Cd2 1_555 1_555
N5 C16 1_555 1_555
N6 Cd3 1_555 1_555
N7 Cd2 1_555 1_555
N8 Cd2 1_555 1_555
O1 Cd3 1_555 1_555
O2 Cd3 1_555 1_555
O4 C1 1_555 1_555
O6 C1 1_555 1_555
O8 Cd3 1_555 1_555
O10 Cd2 1_555 1_555
O12 Cd1 1_555 1_555
O14 Cd1 1_555 1_555
H57 N1 1_555 1_555
H58 N3 1_555 1_555
H59 N5 1_555 1_555
H60 N6 1_555 1_555
H61 N7 1_555 1_555
H62 N8 1_555 1_555
Cd1B O4 1_555 1_555
C1B O4B 1_555 1_555
O4B Cd1 1_555 1_555
O6B Cd1 1_555 1_555
Cd2 O12 1_555 1_555
Cd3 O10 1_555 1_555
C6 C7 1_555 1_555
C8 O1 1_555 1_555
C8 O2 1_555 1_555
C12 O8 1_555 1_555
C13 C14 1_555 1_555
C17 N4 1_555 1_555
C18 N4 1_555 1_555
C20 N3 1_555 1_555
C26 C27 1_555 1_555
C27 O14 1_555 1_555
C28 N2 1_555 1_555
C29 N2 1_555 1_555
C31 N1 1_555 1_555
C33 O12 1_555 1_555
C36 C37 1_555 1_555
C39 N8 1_555 1_555
C40 N8 1_555 1_555
C41 N7 1_555 1_555
C42 N7 1_555 1_555
C47 C48 1_555 1_555
C48 O10 1_555 1_555
C50 N6 1_555 1_555
C51 N6 1_555 1_555
C52 N5 1_555 1_555
O6 Cd1B 1_555 1_555
C1B O6B 1_555 1_555

#END
