
#######################################################################
#
#                 Cambridge Crystallographic Data Centre
#                                CCDC 
#
#######################################################################
#
# If this CIF has been generated from an entry in the Cambridge 
# Structural Database, then it will include bibliographic, chemical, 
# crystal, experimental, refinement or atomic coordinate data resulting 
# from the CCDC's data processing and validation procedures.
#
#######################################################################

data_RAFZUU
_symmetry_cell_setting           monoclinic
_symmetry_space_group_name_H-M   'C 2/c'
_symmetry_Int_Tables_number      15
_space_group_name_Hall           '-C 2yn'
loop_
_symmetry_equiv_pos_site_id
_symmetry_equiv_pos_as_xyz
1 x,y,z
2 1/2+x,1/2+y,z
3 x,-y,1/2+z
4 1/2+x,1/2-y,1/2+z
5 -x,-y,-z
6 1/2-x,1/2-y,-z
7 -x,y,1/2-z
8 1/2-x,1/2+y,1/2-z
_cell_length_a                   37.29(5)
_cell_length_b                   9.90(3)
_cell_length_c                   14.88(3)
_cell_angle_alpha                90
_cell_angle_beta                 113.2(2)
_cell_angle_gamma                90
_cell_volume                     5049.05
loop_
_atom_site_label
_atom_site_type_symbol
_atom_site_fract_x
_atom_site_fract_y
_atom_site_fract_z
Zn1 Zn 0.0000 0.67413(3) 0.2500
Zn2 Zn 0.169260(8) -0.11596(3) 0.603270(17)
O1 O 0.21385(6) 0.03387(18) 0.63321(13)
O3 O 0.15417(6) 0.10716(19) 0.59188(15)
O4 O 0.04391(6) 0.5465(2) 0.36796(16)
O5 O 0.04572(5) 0.5802(2) 0.22515(14)
O6 O 0.17467(5) 0.36543(16) 0.56646(11)
O7 O 0.18470(6) 0.1731(2) 0.25861(12)
O8 O 0.12715(5) 0.2059(2) 0.14310(12)
N1 N 0.01790(5) 0.8376(2) 0.34777(14)
N2 N 0.14381(5) -0.1212(2) 0.44899(13)
N3 N 0.20092(5) -0.27402(18) 0.57527(12)
C1 C 0.03675(8) 0.8356(3) 0.44385(18)
H3 H 0.0429 0.7524 0.4754
C2 C 0.04776(9) 0.9533(3) 0.5000(2)
H4 H 0.0612 0.9478 0.5674
C3 C 0.03869(8) 1.0762(3) 0.4555(2)
H5 H 0.0455 1.1550 0.4925
C4 C 0.01900(7) 1.0835(3) 0.3537(2)
C5 C 0.00953(6) 0.9604(2) 0.30224(17)
C6 C 0.00897(9) 1.2066(3) 0.2994(2)
H6 H 0.0149 1.2886 0.3326
C7 C 0.09531(6) 0.4416(2) 0.33832(17)
C8 C 0.10515(6) 0.3706(2) 0.26960(16)
H7 H 0.0896 0.3767 0.2032
C9 C 0.13832(6) 0.2917(2) 0.30224(15)
C10 C 0.16222(6) 0.2843(2) 0.40135(15)
H8 H 0.1845 0.2307 0.4226
C11 C 0.15254(6) 0.3579(2) 0.46826(15)
C12 C 0.20452(7) 0.2689(2) 0.60796(16)
H9 H 0.2208 0.2966 0.6741
H10 H 0.2207 0.2670 0.5705
C13 C 0.11885(6) 0.4345(2) 0.43662(16)
H11 H 0.1120 0.4815 0.4817
C14 C 0.18914(8) 0.1269(2) 0.61084(16)
C15 C 0.11595(7) -0.0423(3) 0.38781(18)
H12 H 0.1059 0.0268 0.4133
C16 C 0.10133(7) -0.0600(4) 0.28664(19)
H13 H 0.0816 -0.0042 0.2458
C17 C 0.11623(7) -0.1597(3) 0.24813(17)
H14 H 0.1064 -0.1728 0.1808
C18 C 0.14653(7) -0.2426(3) 0.31018(15)
C19 C 0.16518(9) -0.3447(3) 0.27704(18)
H15 H 0.1559 -0.3645 0.2106
C20 C 0.19620(9) -0.4137(3) 0.3399(2)
H16 H 0.2087 -0.4765 0.3157
C21 C 0.21016(7) -0.3914(2) 0.44349(17)
C22 C 0.24213(8) -0.4597(3) 0.5136(2)
H17 H 0.2565 -0.5205 0.4937
C23 C 0.25189(7) -0.4366(3) 0.6105(2)
H18 H 0.2728 -0.4820 0.6572
C24 C 0.23038(7) -0.3446(2) 0.63890(16)
H19 H 0.2368 -0.3315 0.7053
C25 C 0.15928(6) -0.2184(2) 0.41122(14)
C26 C 0.19095(6) -0.2969(2) 0.47861(14)
C27 C 0.05954(7) 0.5279(2) 0.3086(2)
C28 C 0.15090(7) 0.2185(2) 0.23083(16)
C5F C -0.00953(6) 0.9604(2) 0.19776(17)
N1F N -0.01790(5) 0.8376(2) 0.15223(14)
C1F C -0.03675(8) 0.8356(3) 0.05615(18)
H3F H -0.0429 0.7524 0.0246
C2F C -0.04776(9) 0.9533(3) 0.0000(2)
H4F H -0.0612 0.9478 -0.0674
C3F C -0.03869(8) 1.0762(3) 0.0445(2)
H5F H -0.0455 1.1550 0.0075
C4F C -0.01900(7) 1.0835(3) 0.1463(2)
C6F C -0.00897(9) 1.2066(3) 0.2006(2)
H6F H -0.0149 1.2886 0.1674
O1F O -0.21385(6) 0.03387(18) -0.13321(13)
O3F O -0.15417(6) 0.10716(19) -0.09188(15)
O4F O -0.04391(6) 0.5465(2) 0.13204(16)
O5F O -0.04572(5) 0.5802(2) 0.27485(14)
O6F O -0.17467(5) 0.36543(16) -0.06646(11)
O7F O -0.18470(6) 0.1731(2) 0.24139(12)
O8F O -0.12715(5) 0.2059(2) 0.35690(12)
C7F C -0.09531(6) 0.4416(2) 0.16168(17)
C8F C -0.10515(6) 0.3706(2) 0.23040(16)
H7F H -0.0896 0.3767 0.2968
C9F C -0.13832(6) 0.2917(2) 0.19776(15)
C10F C -0.16222(6) 0.2843(2) 0.09865(15)
H8F H -0.1845 0.2307 0.0774
C11F C -0.15254(6) 0.3579(2) 0.03174(15)
C12F C -0.20452(7) 0.2689(2) -0.10796(16)
H9F H -0.2208 0.2966 -0.1741
H10F H -0.2207 0.2670 -0.0705
C13F C -0.11885(6) 0.4345(2) 0.06338(16)
H11F H -0.1120 0.4815 0.0183
C14F C -0.18914(8) 0.1269(2) -0.11084(16)
C27F C -0.05954(7) 0.5279(2) 0.1914(2)
C28F C -0.15090(7) 0.2185(2) 0.26917(16)
Zn2F Zn -0.169260(8) -0.11596(3) -0.103270(17)
N2F N -0.14381(5) -0.1212(2) 0.05101(13)
N3F N -0.20092(5) -0.27402(18) -0.07527(12)
C15F C -0.11595(7) -0.0423(3) 0.11219(18)
H12F H -0.1059 0.0268 0.0867
C16F C -0.10133(7) -0.0600(4) 0.21336(19)
H13F H -0.0816 -0.0042 0.2542
C17F C -0.11623(7) -0.1597(3) 0.25187(17)
H14F H -0.1064 -0.1728 0.3192
C18F C -0.14653(7) -0.2426(3) 0.18982(15)
C19F C -0.16518(9) -0.3447(3) 0.22296(18)
H15F H -0.1559 -0.3645 0.2894
C20F C -0.19620(9) -0.4137(3) 0.1601(2)
H16F H -0.2087 -0.4765 0.1843
C21F C -0.21016(7) -0.3914(2) 0.05651(17)
C22F C -0.24213(8) -0.4597(3) -0.0136(2)
H17F H -0.2565 -0.5205 0.0063
C23F C -0.25189(7) -0.4366(3) -0.1105(2)
H18F H -0.2728 -0.4820 -0.1572
C24F C -0.23038(7) -0.3446(2) -0.13890(16)
H19F H -0.2368 -0.3315 -0.2053
C25F C -0.15928(6) -0.2184(2) 0.08878(14)
C26F C -0.19095(6) -0.2969(2) 0.02139(14)
O7B O 0.18470(6) -0.1731(2) 0.75861(12)
O8B O 0.12715(5) -0.2059(2) 0.64310(12)
Zn2B Zn 0.169260(8) 0.11596(3) 0.103270(17)
Zn2D Zn -0.169260(8) 0.11596(3) 0.396730(17)
O7D O -0.18470(6) -0.1731(2) -0.25861(12)
O8D O -0.12715(5) -0.2059(2) -0.14310(12)
O2 O 0.0466(3) 0.3835(3) 0.5396(4)
H1 H 0.059(3) 0.442(8) 0.524(8)
H2 H 0.027(2) 0.429(11) 0.536(9)
loop_
_geom_bond_atom_site_label_1
_geom_bond_atom_site_label_2
_geom_bond_site_symmetry_1
_geom_bond_site_symmetry_2
Zn1 O4 1_555 1_555
Zn2 O1 1_555 1_555
O1 C14 1_555 1_555
O2 H1 1_555 1_555
H2 O2 1_555 1_555
O3 Zn2 1_555 1_555
O4 C27 1_555 1_555
O5 Zn1 1_555 1_555
O6 C11 1_555 1_555
O7 C28 1_555 1_555
O8 C28 1_555 1_555
N1 Zn1 1_555 1_555
N2 Zn2 1_555 1_555
N3 Zn2 1_555 1_555
C1 N1 1_555 1_555
H3 C1 1_555 1_555
C2 C1 1_555 1_555
H4 C2 1_555 1_555
C3 C2 1_555 1_555
H5 C3 1_555 1_555
C4 C3 1_555 1_555
C5 N1 1_555 1_555
C6 C4 1_555 1_555
H6 C6 1_555 1_555
C7 C8 1_555 1_555
C8 H7 1_555 1_555
C9 C8 1_555 1_555
C10 C9 1_555 1_555
H8 C10 1_555 1_555
C11 C10 1_555 1_555
C12 O6 1_555 1_555
H9 C12 1_555 1_555
H10 C12 1_555 1_555
C13 C7 1_555 1_555
H11 C13 1_555 1_555
C14 O3 1_555 1_555
C15 N2 1_555 1_555
H12 C15 1_555 1_555
C16 C15 1_555 1_555
H13 C16 1_555 1_555
C17 C16 1_555 1_555
H14 C17 1_555 1_555
C18 C17 1_555 1_555
C19 C18 1_555 1_555
H15 C19 1_555 1_555
C20 C19 1_555 1_555
H16 C20 1_555 1_555
C21 C20 1_555 1_555
C22 C21 1_555 1_555
H17 C22 1_555 1_555
C23 C22 1_555 1_555
H18 C23 1_555 1_555
C24 N3 1_555 1_555
H19 C24 1_555 1_555
C25 N2 1_555 1_555
C26 N3 1_555 1_555
C27 O5 1_555 1_555
C28 C9 1_555 1_555
C5F C5 1_555 1_555
N1F Zn1 1_555 1_555
C1F N1F 1_555 1_555
H3F C1F 1_555 1_555
C2F C1F 1_555 1_555
H4F C2F 1_555 1_555
C3F C2F 1_555 1_555
H5F C3F 1_555 1_555
C4F C5F 1_555 1_555
C6F C6 1_555 1_555
H6F C6F 1_555 1_555
O1F C14F 1_555 1_555
O3F C14F 1_555 1_555
O4F Zn1 1_555 1_555
O5F Zn1 1_555 1_555
O6F C11F 1_555 1_555
O7F C28F 1_555 1_555
O8F C28F 1_555 1_555
C7F C8F 1_555 1_555
C8F H7F 1_555 1_555
C9F C8F 1_555 1_555
C10F C9F 1_555 1_555
H8F C10F 1_555 1_555
C11F C10F 1_555 1_555
C12F O6F 1_555 1_555
H9F C12F 1_555 1_555
H10F C12F 1_555 1_555
C13F C7F 1_555 1_555
H11F C13F 1_555 1_555
C14F C12F 1_555 1_555
C27F O4F 1_555 1_555
C28F C9F 1_555 1_555
Zn2F O1F 1_555 1_555
N2F Zn2F 1_555 1_555
N3F Zn2F 1_555 1_555
C15F N2F 1_555 1_555
H12F C15F 1_555 1_555
C16F C15F 1_555 1_555
H13F C16F 1_555 1_555
C17F C16F 1_555 1_555
H14F C17F 1_555 1_555
C18F C17F 1_555 1_555
C19F C18F 1_555 1_555
H15F C19F 1_555 1_555
C20F C19F 1_555 1_555
H16F C20F 1_555 1_555
C21F C20F 1_555 1_555
C22F C21F 1_555 1_555
H17F C22F 1_555 1_555
C23F C22F 1_555 1_555
H18F C23F 1_555 1_555
C24F N3F 1_555 1_555
H19F C24F 1_555 1_555
C25F N2F 1_555 1_555
C26F N3F 1_555 1_555
O7B Zn2 1_555 1_555
O8B Zn2 1_555 1_555
Zn2B O7 1_555 1_555
Zn2D O7F 1_555 1_555
O7D Zn2F 1_555 1_555
O8D Zn2F 1_555 1_555
O8 Zn2B 1_555 1_555
C4 C5 1_555 1_555
C7 C27 1_555 1_555
C11 C13 1_555 1_555
C12 C14 1_555 1_555
C18 C25 1_555 1_555
C21 C26 1_555 1_555
C23 C24 1_555 1_555
C25 C26 1_555 1_555
C5F N1F 1_555 1_555
C3F C4F 1_555 1_555
C4F C6F 1_555 1_555
O3F Zn2F 1_555 1_555
O5F C27F 1_555 1_555
O8F Zn2D 1_555 1_555
C7F C27F 1_555 1_555
C11F C13F 1_555 1_555
C18F C25F 1_555 1_555
C21F C26F 1_555 1_555
C23F C24F 1_555 1_555
C25F C26F 1_555 1_555

#END
