
#######################################################################
#
#                 Cambridge Crystallographic Data Centre
#                                CCDC 
#
#######################################################################
#
# If this CIF has been generated from an entry in the Cambridge 
# Structural Database, then it will include bibliographic, chemical, 
# crystal, experimental, refinement or atomic coordinate data resulting 
# from the CCDC's data processing and validation procedures.
#
#######################################################################

data_RAFZIJ
_symmetry_cell_setting           triclinic
_symmetry_space_group_name_H-M   'P -1'
_symmetry_Int_Tables_number      2
_space_group_name_Hall           '-P 1'
loop_
_symmetry_equiv_pos_site_id
_symmetry_equiv_pos_as_xyz
1 x,y,z
2 -x,-y,-z
_cell_length_a                   12.9994(12)
_cell_length_b                   13.8983(13)
_cell_length_c                   16.1641(15)
_cell_angle_alpha                83.977(2)
_cell_angle_beta                 74.924(2)
_cell_angle_gamma                66.1670(10)
_cell_volume                     2579.39
loop_
_atom_site_label
_atom_site_type_symbol
_atom_site_fract_x
_atom_site_fract_y
_atom_site_fract_z
C1 C 0.6048(3) -0.3763(3) 0.2183(3)
O1 O 0.6397(2) -0.4495(2) 0.26702(19)
O2 O 0.6162(2) -0.3945(2) 0.14026(19)
Zn2 Zn 0.69149(4) -0.55269(3) 0.14769(3)
F7 F 0.12901(19) 0.1640(2) 0.34249(18)
F8 F 0.2310(2) 0.0814(2) 0.22535(17)
F9 F 0.1812(2) -0.0023(2) 0.33587(18)
F10 F 0.2404(2) 0.1735(2) 0.45334(15)
F11 F 0.3961(2) 0.0410(2) 0.46170(14)
F12 F 0.2373(2) 0.0206(2) 0.47766(16)
N3 N 0.8659(2) -0.5943(2) 0.14310(18)
N4 N 0.7624(2) -0.5785(2) 0.01559(18)
O7 O 0.6351(2) 0.3416(2) 0.20260(15)
O8 O 0.5081(2) 0.4090(2) 0.12199(19)
C31 C 0.9154(3) -0.6012(3) 0.2066(2)
H17 H 0.8697 -0.5906 0.2623
C32 C 1.0324(3) -0.6235(3) 0.1937(3)
H18 H 1.0635 -0.6264 0.2400
C33 C 1.1020(3) -0.6415(3) 0.1122(3)
H19 H 1.1810 -0.6584 0.1030
C34 C 1.0527(3) -0.6340(3) 0.0429(2)
C35 C 1.1173(3) -0.6510(3) -0.0442(3)
H20 H 1.1963 -0.6662 -0.0571
C36 C 1.0661(3) -0.6455(3) -0.1081(2)
H21 H 1.1106 -0.6576 -0.1642
C37 C 0.9449(3) -0.6216(3) -0.0916(2)
C38 C 0.8856(3) -0.6126(3) -0.1548(2)
H22 H 0.9258 -0.6246 -0.2119
C39 C 0.7696(4) -0.5864(3) -0.1327(3)
H23 H 0.7298 -0.5794 -0.1747
C40 C 0.7101(3) -0.5700(3) -0.0466(2)
H24 H 0.6306 -0.5525 -0.0323
C41 C 0.8788(3) -0.6026(3) -0.0066(2)
C42 C 0.9338(3) -0.6109(3) 0.0618(2)
C43 C 0.5472(3) 0.3469(3) 0.1785(2)
C44 C 0.4911(3) 0.2730(3) 0.2208(2)
C45 C 0.3762(3) 0.2971(3) 0.2227(3)
H25 H 0.3338 0.3596 0.1985
C46 C 0.3241(3) 0.2288(3) 0.2604(3)
H26 H 0.2459 0.2477 0.2634
C47 C 0.3852(3) 0.1336(3) 0.2936(2)
C48 C 0.5000(3) 0.1107(3) 0.2924(2)
H27 H 0.5427 0.0476 0.3158
C49 C 0.5520(3) 0.1799(3) 0.2571(2)
H28 H 0.6286 0.1635 0.2579
C50 C 0.3310(3) 0.0561(3) 0.3357(2)
C51 C 0.2169(4) 0.0749(4) 0.3103(3)
C52 C 0.3007(4) 0.0710(4) 0.4334(3)
C53 C 0.4120(3) -0.0577(3) 0.3085(2)
C54 C 0.4630(3) -0.0783(3) 0.2223(3)
H29 H 0.4542 -0.0226 0.1838
C55 C 0.5271(3) -0.1804(3) 0.1924(3)
H30 H 0.5592 -0.1929 0.1340
C56 C 0.5433(3) -0.2639(3) 0.2495(3)
C57 C 0.4981(3) -0.2437(3) 0.3351(3)
H31 H 0.5118 -0.2987 0.3743
C58 C 0.4317(3) -0.1413(3) 0.3637(3)
H32 H 0.3997 -0.1291 0.4221
Zn2_2 Zn 0.69149(4) 0.44731(3) 0.14769(3)
O7_2 O 0.6351(2) -0.6584(2) 0.20260(15)
C2 C 0.1312(3) 0.9436(3) 0.6588(3)
O3 O 0.0604(2) 1.0311(2) 0.64290(17)
O4 O 0.1829(2) 0.9319(2) 0.71781(17)
Zn1 Zn 0.10849(4) 1.08951(4) 0.74577(3)
F1 F 0.1567(2) 0.5021(2) 0.37261(16)
F2 F 0.0345(2) 0.6300(2) 0.45566(16)
F3 F 0.1432(2) 0.6597(2) 0.34011(15)
F4 F 0.3766(2) 0.4860(2) 0.33227(15)
F5 F 0.43562(19) 0.5295(2) 0.42926(16)
F6 F 0.3447(2) 0.6472(2) 0.34740(15)
N1 N 0.1445(3) 1.0859(2) 0.8671(2)
N2 N -0.0580(3) 1.1252(3) 0.8292(2)
O5 O 0.2834(3) 0.1290(2) 0.6624(2)
O6 O 0.0995(3) 0.2304(2) 0.70549(18)
C3 C 0.2451(4) 1.0677(3) 0.8838(3)
H1 H 0.3102 1.0524 0.8384
C4 C 0.2579(6) 1.0704(4) 0.9647(4)
H2 H 0.3305 1.0564 0.9735
C5 C 0.1666(6) 1.0931(4) 1.0304(4)
H3 H 0.1752 1.0956 1.0854
C6 C 0.0559(5) 1.1137(3) 1.0176(3)
C7 C -0.0462(6) 1.1380(4) 1.0825(3)
H4 H -0.0426 1.1403 1.1389
C8 C -0.1477(6) 1.1578(4) 1.0663(3)
H5 H -0.2131 1.1730 1.1115
C9 C -0.1585(4) 1.1562(3) 0.9797(4)
C10 C -0.2602(5) 1.1761(4) 0.9555(5)
H6 H -0.3292 1.1929 0.9973
C11 C -0.2611(5) 1.1715(4) 0.8716(5)
H7 H -0.3302 1.1859 0.8565
C12 C -0.1566(4) 1.1449(4) 0.8084(4)
H8 H -0.1567 1.1411 0.7513
C13 C -0.0590(3) 1.1312(3) 0.9120(3)
C14 C 0.0486(4) 1.1100(3) 0.9325(2)
C15 C 0.2041(4) 0.2137(4) 0.6640(3)
C16 C 0.2196(3) 0.3077(3) 0.6153(2)
C17 C 0.1352(3) 0.4081(3) 0.6326(2)
H9 H 0.0710 0.4185 0.6781
C18 C 0.1446(3) 0.4933(3) 0.5836(2)
H10 H 0.0878 0.5604 0.5973
C19 C 0.2383(3) 0.4793(3) 0.5138(2)
C20 C 0.3234(3) 0.3799(3) 0.4975(2)
H11 H 0.3878 0.3693 0.4521
C21 C 0.3143(3) 0.2948(3) 0.5483(3)
H12 H 0.3732 0.2283 0.5366
C22 C 0.2331(3) 0.5765(3) 0.4560(2)
C23 C 0.1410(4) 0.5925(4) 0.4057(3)
C24 C 0.3481(4) 0.5583(4) 0.3911(3)
C25 C 0.2028(3) 0.6751(3) 0.5091(2)
C26 C 0.1281(3) 0.7755(3) 0.4917(2)
H13 H 0.0926 0.7858 0.4466
C27 C 0.1065(3) 0.8594(3) 0.5408(2)
H14 H 0.0552 0.9256 0.5285
C28 C 0.1572(3) 0.8496(3) 0.6069(2)
C29 C 0.2332(3) 0.7502(3) 0.6247(2)
H15 H 0.2693 0.7412 0.6693
C30 C 0.2554(3) 0.6643(3) 0.5764(2)
H16 H 0.3064 0.5981 0.5891
Zn1_2 Zn 0.10849(4) 0.08951(4) 0.74577(3)
O6_2 O 0.0995(3) 1.2304(2) 0.70549(18)
O9 O 0.4298(4) 0.3048(3) 0.0133(2)
O10 O 0.4540(5) 0.1051(5) 0.0538(4)
loop_
_geom_bond_atom_site_label_1
_geom_bond_atom_site_label_2
_geom_bond_site_symmetry_1
_geom_bond_site_symmetry_2
C1 O1 1_555 1_555
C2 O3 1_555 1_555
O1 Zn2 1_555 1_555
O2 C1 1_555 1_555
O3 Zn1 1_555 1_555
O4 C2 1_555 1_555
Zn1 O4 1_555 1_555
Zn2 O2 1_555 1_555
F1 C23 1_555 1_555
F2 C23 1_555 1_555
F3 C23 1_555 1_555
F4 C24 1_555 1_555
F5 C24 1_555 1_555
F6 C24 1_555 1_555
F7 C51 1_555 1_555
F8 C51 1_555 1_555
F9 C51 1_555 1_555
F10 C52 1_555 1_555
F11 C52 1_555 1_555
F12 C52 1_555 1_555
N1 Zn1 1_555 1_555
N2 Zn1 1_555 1_555
N3 Zn2 1_555 1_555
N4 Zn2 1_555 1_555
O5 C15 1_555 1_555
O6 C15 1_555 1_555
O7 C43 1_555 1_555
O8 C43 1_555 1_555
C3 N1 1_555 1_555
H1 C3 1_555 1_555
C4 C3 1_555 1_555
H2 C4 1_555 1_555
C5 C4 1_555 1_555
H3 C5 1_555 1_555
C6 C5 1_555 1_555
C7 C6 1_555 1_555
H4 C7 1_555 1_555
C8 C7 1_555 1_555
H5 C8 1_555 1_555
C9 C8 1_555 1_555
C10 C9 1_555 1_555
H6 C10 1_555 1_555
C11 C10 1_555 1_555
H7 C11 1_555 1_555
C12 N2 1_555 1_555
H8 C12 1_555 1_555
C13 N2 1_555 1_555
C14 N1 1_555 1_555
C15 C16 1_555 1_555
C16 C17 1_555 1_555
C17 H9 1_555 1_555
C18 C17 1_555 1_555
H10 C18 1_555 1_555
C19 C18 1_555 1_555
C20 C19 1_555 1_555
H11 C20 1_555 1_555
C21 C16 1_555 1_555
H12 C21 1_555 1_555
C22 C19 1_555 1_555
C23 C22 1_555 1_555
C24 C22 1_555 1_555
C25 C22 1_555 1_555
C26 C25 1_555 1_555
H13 C26 1_555 1_555
C27 C26 1_555 1_555
H14 C27 1_555 1_555
C28 C2 1_555 1_555
C29 C28 1_555 1_555
H15 C29 1_555 1_555
C30 C25 1_555 1_555
H16 C30 1_555 1_555
C31 N3 1_555 1_555
H17 C31 1_555 1_555
C32 C31 1_555 1_555
H18 C32 1_555 1_555
C33 C32 1_555 1_555
H19 C33 1_555 1_555
C34 C33 1_555 1_555
C35 C34 1_555 1_555
H20 C35 1_555 1_555
C36 C35 1_555 1_555
H21 C36 1_555 1_555
C37 C36 1_555 1_555
C38 C37 1_555 1_555
H22 C38 1_555 1_555
C39 C38 1_555 1_555
H23 C39 1_555 1_555
C40 N4 1_555 1_555
H24 C40 1_555 1_555
C41 N4 1_555 1_555
C42 N3 1_555 1_555
C43 C44 1_555 1_555
C44 C45 1_555 1_555
C45 H25 1_555 1_555
C46 C45 1_555 1_555
H26 C46 1_555 1_555
C47 C46 1_555 1_555
C48 C47 1_555 1_555
H27 C48 1_555 1_555
C49 C44 1_555 1_555
H28 C49 1_555 1_555
C50 C47 1_555 1_555
C51 C50 1_555 1_555
C52 C50 1_555 1_555
C53 C50 1_555 1_555
C54 C53 1_555 1_555
H29 C54 1_555 1_555
C55 C54 1_555 1_555
H30 C55 1_555 1_555
C56 C1 1_555 1_555
C57 C56 1_555 1_555
H31 C57 1_555 1_555
C58 C53 1_555 1_555
H32 C58 1_555 1_555
Zn1_2 O6 1_555 1_555
Zn2_2 O7 1_555 1_555
O6_2 Zn1 1_555 1_555
O7_2 Zn2 1_555 1_555
C6 C14 1_555 1_555
C9 C13 1_555 1_555
C11 C12 1_555 1_555
C13 C14 1_555 1_555
C20 C21 1_555 1_555
C27 C28 1_555 1_555
C29 C30 1_555 1_555
C34 C42 1_555 1_555
C37 C41 1_555 1_555
C39 C40 1_555 1_555
C41 C42 1_555 1_555
C48 C49 1_555 1_555
C55 C56 1_555 1_555
C57 C58 1_555 1_555

#END
