
#######################################################################
#
#                 Cambridge Crystallographic Data Centre
#                                CCDC 
#
#######################################################################
#
# If this CIF has been generated from an entry in the Cambridge 
# Structural Database, then it will include bibliographic, chemical, 
# crystal, experimental, refinement or atomic coordinate data resulting 
# from the CCDC's data processing and validation procedures.
#
#######################################################################

data_RAGBIM
_symmetry_cell_setting           triclinic
_symmetry_space_group_name_H-M   'P -1'
_symmetry_Int_Tables_number      2
_space_group_name_Hall           '-P 1'
loop_
_symmetry_equiv_pos_site_id
_symmetry_equiv_pos_as_xyz
1 x,y,z
2 -x,-y,-z
_cell_length_a                   8.83790(10)
_cell_length_b                   10.8247(2)
_cell_length_c                   12.3044(3)
_cell_angle_alpha                99.2990(8)
_cell_angle_beta                 99.4480(8)
_cell_angle_gamma                104.3970(9)
_cell_volume                     1099.17
loop_
_atom_site_label
_atom_site_type_symbol
_atom_site_fract_x
_atom_site_fract_y
_atom_site_fract_z
Ba1 Ba 0.28119(2) 0.602609(18) 0.002420(16)
Cl1 Cl 0.11021(16) 0.09037(12) -0.28173(12)
Cl2 Cl 0.44129(15) 0.19826(15) -0.28412(12)
Cl3 Cl 0.2056(2) 0.30472(18) -0.38793(12)
Cl4 Cl 0.23919(19) 0.2623(2) 0.30846(16)
Cl5 Cl -0.0787(2) 0.28044(18) 0.25776(17)
Cl6 Cl 0.0389(2) 0.12775(14) 0.09720(17)
O1 O 0.4367(3) 0.8741(3) 0.0201(3)
O2 O 0.1551(3) 0.3646(3) -0.1493(3)
O3 O 0.4061(3) 0.3695(3) -0.0937(2)
O4 O 0.2865(3) 0.4403(3) 0.1595(3)
O5 O 0.0337(3) 0.4162(3) 0.0856(3)
O8 O 0.4228(4) 0.6283(3) -0.1820(3)
O9 O 0.1690(3) 0.7432(3) 0.1638(2)
C1 C 0.2761(4) 0.3324(3) -0.1599(3)
C2 C 0.2594(4) 0.2353(4) -0.2730(3)
C3 C 0.1419(4) 0.3872(3) 0.1437(3)
C4 C 0.0884(4) 0.2707(4) 0.2019(3)
C5 C 0.3903(6) 0.9857(4) 0.0696(4)
H1 H 0.4585 1.0249 0.1437
H2 H 0.2810 0.9572 0.0789
C6 C 0.5970(5) 0.9156(4) 0.0013(5)
H3 H 0.6251 0.8407 -0.0355
H4 H 0.6718 0.9523 0.0732
H13 H 0.507(5) 0.604(6) -0.189(6)
H14 H 0.410(8) 0.623(7) -0.2519(19)
H15 H 0.0677 0.7305 0.1415
H16 H 0.1629 0.7615 0.2384
Ba1A Ba -0.28119(2) 0.397391(18) -0.002420(16)
Ba1_2 Ba -0.71881(2) 0.602609(18) 0.002420(16)
Ba1A_2 Ba 0.71881(2) 0.397391(18) -0.002420(16)
Ba1A_3 Ba 0.71881(2) 1.397391(18) -0.002420(16)
Cl1A Cl -0.11021(16) 0.90963(12) 0.28173(12)
Cl2A Cl -0.44129(15) 0.80174(15) 0.28412(12)
Cl3A Cl -0.2056(2) 0.69528(18) 0.38793(12)
Cl4A Cl -0.23919(19) 0.7377(2) -0.30846(16)
Cl5A Cl 0.0787(2) 0.71956(18) -0.25776(17)
Cl6A Cl -0.0389(2) 0.87225(14) -0.09720(17)
O1A O 0.5633(3) 1.1259(3) -0.0201(3)
O1A_2 O -0.4367(3) 0.1259(3) -0.0201(3)
O2A O -0.1551(3) 0.6354(3) 0.1493(3)
O3A O -0.4061(3) 0.6305(3) 0.0937(2)
O3_2 O -0.5939(3) 0.3695(3) -0.0937(2)
O3A_2 O 0.5939(3) 0.6305(3) 0.0937(2)
O4A O -0.2865(3) 0.5597(3) -0.1595(3)
O5A O -0.0337(3) 0.5838(3) -0.0856(3)
O8A O -0.4228(4) 0.3717(3) 0.1820(3)
O9A O -0.1690(3) 0.2568(3) -0.1638(2)
C1A C -0.2761(4) 0.6676(3) 0.1599(3)
C2A C -0.2594(4) 0.7647(4) 0.2730(3)
C3A C -0.1419(4) 0.6128(3) -0.1437(3)
C4A C -0.0884(4) 0.7293(4) -0.2019(3)
C5A C 0.6097(6) 1.0143(4) -0.0696(4)
H1A H 0.5415 0.9751 -0.1437
H2A H 0.7190 1.0428 -0.0789
C6A C 0.4030(5) 1.0844(4) -0.0013(5)
H3A H 0.3749 1.1593 0.0355
H4A H 0.3282 1.0477 -0.0732
H13A H -0.507(5) 0.396(6) 0.189(6)
H14A H -0.410(8) 0.377(7) 0.2519(19)
H15A H -0.0677 0.2695 -0.1415
H16A H -0.1629 0.2385 -0.2384
O6 O 0.3576(5) 0.7157(4) 0.6108(3)
O7 O 0.2515(5) 0.7723(4) 0.4014(3)
C7 C 0.2572(7) 0.8561(6) 0.5020(4)
H5 H 0.1538 0.8344 0.5225
H6 H 0.2813 0.9454 0.4918
C8 C 0.3804(8) 0.8444(6) 0.5926(5)
H7 H 0.4843 0.8735 0.5742
H8 H 0.3808 0.9017 0.6620
C9 C 0.3506(10) 0.6295(7) 0.5092(6)
H9 H 0.3258 0.5405 0.5202
H10 H 0.4538 0.6501 0.4885
C10 C 0.2254(10) 0.6410(7) 0.4164(6)
H11 H 0.2262 0.5849 0.3467
H12 H 0.1209 0.6115 0.4339
loop_
_geom_bond_atom_site_label_1
_geom_bond_atom_site_label_2
_geom_bond_site_symmetry_1
_geom_bond_site_symmetry_2
Ba1 O1 1_555 1_555
Cl1 C2 1_555 1_555
Cl2 C2 1_555 1_555
Cl3 C2 1_555 1_555
Cl4 C4 1_555 1_555
Cl5 C4 1_555 1_555
Cl6 C4 1_555 1_555
O1 C5 1_555 1_555
O2 Ba1 1_555 1_555
O3 Ba1 1_555 1_555
O4 Ba1 1_555 1_555
O5 Ba1 1_555 1_555
O6 C8 1_555 1_555
O7 C7 1_555 1_555
O8 Ba1 1_555 1_555
O9 Ba1 1_555 1_555
C1 O2 1_555 1_555
C2 C1 1_555 1_555
C3 O4 1_555 1_555
C4 C3 1_555 1_555
C5 H1 1_555 1_555
H2 C5 1_555 1_555
C6 O1 1_555 1_555
H3 C6 1_555 1_555
H4 C6 1_555 1_555
C7 H5 1_555 1_555
H6 C7 1_555 1_555
C8 C7 1_555 1_555
H7 C8 1_555 1_555
H8 C8 1_555 1_555
C9 O6 1_555 1_555
H9 C9 1_555 1_555
H10 C9 1_555 1_555
C10 O7 1_555 1_555
H11 C10 1_555 1_555
H12 C10 1_555 1_555
H13 O8 1_555 1_555
H14 O8 1_555 1_555
H15 O9 1_555 1_555
H16 O9 1_555 1_555
Ba1A O5 1_555 1_555
Ba1_2 O3A 1_555 1_555
Ba1A_2 O3 1_555 1_555
Ba1A_3 O1A 1_555 1_555
Cl1A C2A 1_555 1_555
Cl2A C2A 1_555 1_555
Cl3A C2A 1_555 1_555
Cl4A C4A 1_555 1_555
Cl5A C4A 1_555 1_555
Cl6A C4A 1_555 1_555
O1A C5A 1_555 1_555
O1A_2 Ba1A 1_555 1_555
O2A Ba1A 1_555 1_555
O3A Ba1A 1_555 1_555
O3_2 Ba1A 1_555 1_555
O3A_2 Ba1 1_555 1_555
O4A Ba1A 1_555 1_555
O5A Ba1 1_555 1_555
O8A Ba1A 1_555 1_555
O9A Ba1A 1_555 1_555
C1A O2A 1_555 1_555
C2A C1A 1_555 1_555
C3A O4A 1_555 1_555
C4A C3A 1_555 1_555
C5A C6 1_555 1_555
H1A C5A 1_555 1_555
H2A C5A 1_555 1_555
C6A C5 1_555 1_555
H3A C6A 1_555 1_555
H4A C6A 1_555 1_555
H13A O8A 1_555 1_555
H14A O8A 1_555 1_555
H15A O9A 1_555 1_555
H16A O9A 1_555 1_555
O3 C1 1_555 1_555
O5 C3 1_555 1_555
C9 C10 1_555 1_555
Ba1A O5A 1_555 1_555
Ba1_2 O3_2 1_555 1_555
Ba1A_2 O3A_2 1_555 1_555
O1A C6A 1_555 1_555
O3A C1A 1_555 1_555
O5A C3A 1_555 1_555

#END
