
#######################################################################
#
#                 Cambridge Crystallographic Data Centre
#                                CCDC 
#
#######################################################################
#
# If this CIF has been generated from an entry in the Cambridge 
# Structural Database, then it will include bibliographic, chemical, 
# crystal, experimental, refinement or atomic coordinate data resulting 
# from the CCDC's data processing and validation procedures.
#
#######################################################################

data_RAGCEI
_symmetry_cell_setting           orthorhombic
_symmetry_space_group_name_H-M   'C 2 2 21'
_symmetry_Int_Tables_number      20
_space_group_name_Hall           'C 2n 2'
loop_
_symmetry_equiv_pos_site_id
_symmetry_equiv_pos_as_xyz
1 x,y,z
2 -x,-y,1/2+z
3 -x,y,1/2-z
4 x,-y,-z
5 1/2+x,1/2+y,z
6 1/2-x,1/2-y,1/2+z
7 1/2-x,1/2+y,1/2-z
8 1/2+x,1/2-y,-z
_cell_length_a                   9.9512(4)
_cell_length_b                   14.7129(6)
_cell_length_c                   22.50660(10)
_cell_angle_alpha                90
_cell_angle_beta                 90
_cell_angle_gamma                90
_cell_volume                     3295.21
loop_
_atom_site_label
_atom_site_type_symbol
_atom_site_fract_x
_atom_site_fract_y
_atom_site_fract_z
Zn1 Zn 0.0000 0.79310(8) 0.2500
Zn2 Zn 0.51077(9) 0.94740(5) 0.15540(4)
Zn3 Zn 0.16577(9) 0.76468(6) 0.45663(4)
P1 P 0.29865(19) 0.87518(13) 0.24859(12)
P2 P 0.1097(2) 0.64994(14) 0.34328(10)
P3 P 0.5522(2) 0.85158(14) 0.02588(9)
O1 O 0.3698(6) 0.8719(4) 0.1883(2)
O2 O 0.3435(5) 0.9527(3) 0.2868(2)
O3 O 0.1484(5) 0.8730(4) 0.2402(3)
O4 O 0.0055(6) 0.7175(3) 0.3212(2)
O5 O 0.0438(7) 0.5660(3) 0.3677(2)
O6 O 0.2040(5) 0.6908(4) 0.3880(3)
O7 O 0.6698(5) 0.7966(3) 0.0016(2)
O8 O 0.4212(5) 0.7997(4) 0.0209(2)
O9 O 0.5816(6) 0.8839(4) 0.0873(2)
N1 N 0.0563(7) 0.8727(4) 0.4335(3)
N2 N -0.0086(7) 0.9861(4) 0.3789(3)
N3 N 0.2529(7) 1.2335(5) 0.3801(3)
H1 H 0.3410 1.2281 0.3859
H2 H 0.2143 1.2543 0.4131
H3 H 0.2378 1.2721 0.3504
C1 C -0.0667(9) 0.9000(5) 0.4516(4)
H4 H -0.1151 0.8744 0.4828
C2 C -0.1087(9) 0.9697(6) 0.4178(4)
H5 H -0.1901 1.0004 0.4207
C3 C 0.0874(8) 0.9261(5) 0.3890(4)
H6 H 0.1668 0.9222 0.3673
C4 C -0.0058(10) 1.0568(5) 0.3323(3)
H7 H -0.0964 1.0666 0.3178
H8 H 0.0483 1.0354 0.2993
C5 C 0.0508(9) 1.1462(6) 0.3543(4)
H9 H 0.0315 1.1931 0.3253
H10 H 0.0056 1.1627 0.3910
C6 C 0.1957(9) 1.1437(6) 0.3650(5)
H11 H 0.2402 1.1207 0.3298
H12 H 0.2140 1.1018 0.3973
H13 H 0.339(7) 0.799(4) 0.280(3)
H14 H 0.179(7) 0.630(4) 0.297(3)
H15 H 0.540(5) 0.922(4) -0.008(2)
P1B P -0.29865(19) 0.87518(13) 0.25141(12)
O1B O -0.3698(6) 0.8719(4) 0.3117(2)
O2B O -0.3435(5) 0.9527(3) 0.2132(2)
O3B O -0.1484(5) 0.8730(4) 0.2598(3)
H13B H -0.339(7) 0.799(4) 0.220(3)
P2B P -0.1097(2) 0.64994(14) 0.15672(10)
O4B O -0.0055(6) 0.7175(3) 0.1788(2)
O5B O -0.0438(7) 0.5660(3) 0.1323(2)
O6B O -0.2040(5) 0.6908(4) 0.1120(3)
H14B H -0.179(7) 0.630(4) 0.203(3)
Zn2B Zn -0.51077(9) 0.94740(5) 0.34460(4)
Zn3B Zn -0.16577(9) 0.76468(6) 0.04337(4)
P3B P 0.4478(2) 0.85158(14) 0.47412(9)
O7B O 0.3302(5) 0.7966(3) 0.4984(2)
O8B O 0.5788(5) 0.7997(4) 0.4791(2)
O9B O 0.4184(6) 0.8839(4) 0.4127(2)
H15B H 0.460(5) 0.922(4) 0.508(2)
N1B N -0.0563(7) 0.8727(4) 0.0665(3)
N2B N 0.0086(7) 0.9861(4) 0.1211(3)
N3B N -0.2529(7) 1.2335(5) 0.1199(3)
H1B H -0.3410 1.2281 0.1141
H2B H -0.2143 1.2543 0.0869
H3B H -0.2378 1.2721 0.1496
C1B C 0.0667(9) 0.9000(5) 0.0484(4)
H4B H 0.1151 0.8744 0.0172
C2B C 0.1087(9) 0.9697(6) 0.0822(4)
H5B H 0.1901 1.0004 0.0793
C3B C -0.0874(8) 0.9261(5) 0.1110(4)
H6B H -0.1668 0.9222 0.1327
C4B C 0.0058(10) 1.0568(5) 0.1677(3)
H7B H 0.0964 1.0666 0.1822
H8B H -0.0483 1.0354 0.2007
C5B C -0.0508(9) 1.1462(6) 0.1457(4)
H9B H -0.0315 1.1931 0.1747
H10B H -0.0056 1.1627 0.1090
C6B C -0.1957(9) 1.1437(6) 0.1350(5)
H11B H -0.2402 1.1207 0.1702
H12B H -0.2140 1.1018 0.1027
O2B_2 O 0.6565(5) 0.9527(3) 0.2132(2)
O5F O 0.4562(7) 1.0660(3) 0.1323(2)
O8E O 0.0788(5) 0.7003(4) 0.5209(2)
Zn2B_2 Zn 0.48923(9) 0.94740(5) 0.34460(4)
Zn2F Zn -0.01077(9) 0.44740(5) 0.34460(4)
Zn3B_2 Zn 0.83423(9) 0.76468(6) 0.04337(4)
Zn3E Zn 0.33423(9) 0.73532(6) -0.04337(4)
Zn2_2 Zn -0.48923(9) 0.94740(5) 0.15540(4)
Zn2D Zn 0.01077(9) 0.44740(5) 0.15540(4)
O2_2 O -0.6565(5) 0.9527(3) 0.2868(2)
O5D O -0.4562(7) 1.0660(3) 0.3677(2)
O9B_2 O -0.5816(6) 0.8839(4) 0.4127(2)
O7_2 O -0.3302(5) 0.7966(3) 0.0016(2)
O8G O -0.0788(5) 0.7003(4) -0.0209(2)
Zn3G Zn 0.66577(9) 0.73532(6) 0.54337(4)
loop_
_geom_bond_atom_site_label_1
_geom_bond_atom_site_label_2
_geom_bond_site_symmetry_1
_geom_bond_site_symmetry_2
Zn1 O3 1_555 1_555
Zn2 O1 1_555 1_555
Zn3 O6 1_555 1_555
P1 O1 1_555 1_555
P2 O4 1_555 1_555
P3 O7 1_555 1_555
O2 P1 1_555 1_555
O3 P1 1_555 1_555
O4 Zn1 1_555 1_555
O5 P2 1_555 1_555
O6 P2 1_555 1_555
O7 Zn3B_2 1_555 1_555
O8 P3 1_555 1_555
O9 Zn2 1_555 1_555
N1 Zn3 1_555 1_555
N2 C2 1_555 1_555
N3 H1 1_555 1_555
H2 N3 1_555 1_555
H3 N3 1_555 1_555
C1 N1 1_555 1_555
H4 C1 1_555 1_555
C2 C1 1_555 1_555
H5 C2 1_555 1_555
C3 N1 1_555 1_555
H6 C3 1_555 1_555
C4 N2 1_555 1_555
H7 C4 1_555 1_555
H8 C4 1_555 1_555
C5 C4 1_555 1_555
H9 C5 1_555 1_555
H10 C5 1_555 1_555
C6 N3 1_555 1_555
H11 C6 1_555 1_555
H12 C6 1_555 1_555
H13 P1 1_555 1_555
H14 P2 1_555 1_555
H15 P3 1_555 1_555
P1B O1B 1_555 1_555
O1B Zn2B 1_555 1_555
O2B P1B 1_555 1_555
O3B Zn1 1_555 1_555
H13B P1B 1_555 1_555
P2B O4B 1_555 1_555
O4B Zn1 1_555 1_555
O5B P2B 1_555 1_555
O6B P2B 1_555 1_555
H14B P2B 1_555 1_555
Zn2B O2_2 1_555 1_555
Zn3B O6B 1_555 1_555
P3B O7B 1_555 1_555
O7B Zn3 1_555 1_555
O8B P3B 1_555 1_555
O9B P3B 1_555 1_555
H15B P3B 1_555 1_555
N1B Zn3B 1_555 1_555
N2B C2B 1_555 1_555
N3B H1B 1_555 1_555
H2B N3B 1_555 1_555
H3B N3B 1_555 1_555
C1B N1B 1_555 1_555
H4B C1B 1_555 1_555
C2B C1B 1_555 1_555
H5B C2B 1_555 1_555
C3B N1B 1_555 1_555
H6B C3B 1_555 1_555
C4B N2B 1_555 1_555
H7B C4B 1_555 1_555
H8B C4B 1_555 1_555
C5B C4B 1_555 1_555
H9B C5B 1_555 1_555
H10B C5B 1_555 1_555
C6B N3B 1_555 1_555
H11B C6B 1_555 1_555
H12B C6B 1_555 1_555
O2B_2 Zn2 1_555 1_555
O5F Zn2 1_555 1_555
O8E Zn3 1_555 1_555
Zn2B_2 O2 1_555 1_555
Zn2F O5 1_555 1_555
Zn3E O8 1_555 1_555
Zn2_2 O2B 1_555 1_555
Zn2D O5B 1_555 1_555
O5D Zn2B 1_555 1_555
O9B_2 Zn2B 1_555 1_555
O7_2 Zn3B 1_555 1_555
O8G Zn3B 1_555 1_555
Zn3G O8B 1_555 1_555
P3 O9 1_555 1_555
N2 C3 1_555 1_555
C5 C6 1_555 1_555
P1B O3B 1_555 1_555
O9B Zn2B_2 1_555 1_555
N2B C3B 1_555 1_555
C5B C6B 1_555 1_555

#END
