
#######################################################################
#
#                 Cambridge Crystallographic Data Centre
#                                CCDC 
#
#######################################################################
#
# If this CIF has been generated from an entry in the Cambridge 
# Structural Database, then it will include bibliographic, chemical, 
# crystal, experimental, refinement or atomic coordinate data resulting 
# from the CCDC's data processing and validation procedures.
#
#######################################################################

data_RAGCAE01
_symmetry_cell_setting           triclinic
_symmetry_space_group_name_H-M   'P -1'
_symmetry_Int_Tables_number      2
_space_group_name_Hall           '-P 1'
loop_
_symmetry_equiv_pos_site_id
_symmetry_equiv_pos_as_xyz
1 x,y,z
2 -x,-y,-z
_cell_length_a                   9.7559(9)
_cell_length_b                   13.8997(13)
_cell_length_c                   19.7171(18)
_cell_angle_alpha                101.657(2)
_cell_angle_beta                 93.949(2)
_cell_angle_gamma                110.477(2)
_cell_volume                     2424.57
loop_
_atom_site_label
_atom_site_type_symbol
_atom_site_fract_x
_atom_site_fract_y
_atom_site_fract_z
Cu1 Cu 0.07132(5) 0.48511(4) 0.08206(3)
Cu2 Cu 0.56349(5) 0.37959(4) 0.39430(3)
V1 V 0.21581(7) 0.48405(5) 0.24060(4)
V2 V -0.28744(7) 0.47508(5) 0.26240(4)
P1 P 0.03604(11) 0.62859(8) 0.22461(5)
P2 P 0.53340(11) 0.58613(8) 0.35292(5)
P3 P 0.36733(11) 0.31873(8) 0.25379(5)
P4 P -0.12693(11) 0.34707(8) 0.16687(5)
O1 O -0.1106(3) 0.5863(2) 0.25162(17)
O2 O 0.0239(3) 0.5912(3) 0.14529(16)
O3 O 0.1620(3) 0.6101(2) 0.26413(16)
O4 O 0.2575(3) 0.4849(3) 0.16325(16)
O5 O 0.2391(3) 0.3570(2) 0.26009(16)
O6 O 0.3889(3) 0.5722(2) 0.31012(16)
O7 O 0.5192(3) 0.5053(2) 0.39633(16)
O8 O 0.6586(3) 0.5960(2) 0.30851(16)
O9 O 0.4082(3) 0.2864(2) 0.31939(17)
O10 O 0.5006(3) 0.3982(2) 0.23327(16)
O11 O -0.2485(3) 0.4323(3) 0.32825(16)
O12 O -0.2597(3) 0.3773(2) 0.18241(16)
O13 O 0.0029(3) 0.4019(2) 0.22660(16)
O14 O -0.0834(3) 0.3618(2) 0.09600(16)
N1 N 0.6215(4) 0.2564(3) 0.40271(19)
N2 N 0.7050(4) 0.4474(3) 0.48434(18)
N3 N 0.2199(4) 0.5977(3) 0.04664(18)
N4 N 0.1251(4) 0.3911(3) 0.00487(19)
C1 C 0.5701(5) 0.1596(4) 0.3621(3)
H1 H 0.4916 0.1409 0.3247
C2 C 0.6277(5) 0.0830(4) 0.3723(3)
H2 H 0.5882 0.0139 0.3422
C3 C 0.7410(5) 0.1087(4) 0.4259(3)
H3 H 0.7818 0.0580 0.4327
C4 C 0.7967(5) 0.2112(4) 0.4708(2)
C5 C 0.9086(5) 0.2455(4) 0.5314(3)
H4 H 0.9526 0.1981 0.5419
C6 C 0.9527(5) 0.3450(4) 0.5740(3)
H5 H 1.0272 0.3658 0.6136
C7 C 0.8878(5) 0.4182(4) 0.5599(2)
C8 C 0.9229(5) 0.5207(4) 0.6026(2)
H6 H 0.9980 0.5470 0.6424
C9 C 0.8480(5) 0.5823(4) 0.5865(2)
H7 H 0.8697 0.6510 0.6154
C10 C 0.7385(5) 0.5429(4) 0.5265(2)
H8 H 0.6868 0.5859 0.5159
C11 C 0.7779(5) 0.3859(4) 0.5010(2)
C12 C 0.7325(5) 0.2823(4) 0.4569(2)
C13 C -0.1870(4) 0.2072(3) 0.1633(2)
C14 C -0.1742(6) 0.1745(4) 0.2251(3)
H9 H -0.1337 0.2259 0.2683
C15 C -0.2201(7) 0.0676(4) 0.2240(3)
H10 H -0.2104 0.0462 0.2664
C16 C -0.2802(6) -0.0082(4) 0.1611(3)
H11 H -0.3121 -0.0813 0.1603
C17 C -0.2934(5) 0.0237(4) 0.0994(3)
H12 H -0.3345 -0.0279 0.0563
C18 C -0.2468(5) 0.1303(3) 0.1005(2)
H13 H -0.2557 0.1513 0.0579
C19 C 0.5849(4) 0.7133(3) 0.4143(2)
C20 C 0.4920(5) 0.7707(3) 0.4173(2)
H14 H 0.4018 0.7442 0.3858
C21 C 0.5323(6) 0.8671(4) 0.4668(3)
H15 H 0.4694 0.9062 0.4685
C22 C 0.6621(6) 0.9059(4) 0.5132(3)
H16 H 0.6868 0.9706 0.5475
C23 C 0.7570(6) 0.8510(4) 0.5101(3)
H17 H 0.8473 0.8783 0.5417
C24 C 0.7189(5) 0.7552(4) 0.4600(3)
H18 H 0.7847 0.7183 0.4571
C25 C 0.3036(4) 0.2019(3) 0.1827(2)
C26 C 0.4033(5) 0.1555(3) 0.1586(2)
H19 H 0.5045 0.1862 0.1793
C27 C 0.3537(5) 0.0643(4) 0.1044(3)
H20 H 0.4211 0.0324 0.0885
C28 C 0.2060(6) 0.0195(4) 0.0733(3)
H21 H 0.1724 -0.0432 0.0367
C29 C 0.1070(5) 0.0668(4) 0.0961(3)
H22 H 0.0064 0.0369 0.0745
C30 C 0.1560(5) 0.1581(4) 0.1506(2)
H23 H 0.0888 0.1905 0.1659
C31 C 0.0846(5) 0.7700(3) 0.2467(2)
C32 C 0.2229(6) 0.8379(4) 0.2373(3)
H24 H 0.2932 0.8096 0.2205
C33 C 0.2577(8) 0.9465(4) 0.2523(3)
H25 H 0.3503 0.9920 0.2441
C34 C 0.1581(9) 0.9888(5) 0.2791(4)
H26 H 0.1822 1.0631 0.2888
C35 C 0.0240(8) 0.9236(5) 0.2917(4)
H27 H -0.0420 0.9533 0.3122
C36 C -0.0149(6) 0.8133(4) 0.2745(3)
H28 H -0.1087 0.7683 0.2817
C37 C 0.2646(5) 0.7022(3) 0.0697(2)
H29 H 0.2140 0.7306 0.1028
C38 C 0.3840(5) 0.7716(4) 0.0466(3)
H30 H 0.4147 0.8458 0.0647
C39 C 0.4567(5) 0.7322(4) -0.0024(3)
H31 H 0.5375 0.7789 -0.0185
C40 C 0.4105(5) 0.6221(4) -0.0285(2)
C41 C 0.4777(5) 0.5717(4) -0.0798(2)
H32 H 0.5601 0.6139 -0.0975
C42 C 0.4251(5) 0.4652(4) -0.1033(2)
H33 H 0.4704 0.4337 -0.1376
C43 C 0.3019(5) 0.3988(3) -0.0771(2)
C44 C 0.2403(5) 0.2872(4) -0.0995(3)
H34 H 0.2781 0.2510 -0.1350
C45 C 0.1252(6) 0.2318(4) -0.0693(3)
H35 H 0.0823 0.1567 -0.0842
C46 C 0.0707(5) 0.2860(4) -0.0164(2)
H36 H -0.0074 0.2464 0.0048
C47 C 0.2381(4) 0.4463(3) -0.0256(2)
C48 C 0.2912(4) 0.5590(3) -0.0018(2)
Cu2_2 Cu -0.43651(5) 0.37959(4) 0.39430(3)
V2_2 V 0.71256(7) 0.47508(5) 0.26240(4)
O8_2 O -0.3414(3) 0.5960(2) 0.30851(16)
O10_2 O -0.4994(3) 0.3982(2) 0.23327(16)
O11_2 O 0.7515(3) 0.4323(3) 0.32825(16)
O15 O 0.5627(7) 0.7475(4) 0.2358(3)
loop_
_geom_bond_atom_site_label_1
_geom_bond_atom_site_label_2
_geom_bond_site_symmetry_1
_geom_bond_site_symmetry_2
Cu1 O2 1_555 1_555
Cu2 O7 1_555 1_555
V1 O3 1_555 1_555
V2 O1 1_555 1_555
P1 O1 1_555 1_555
P2 O6 1_555 1_555
P3 O5 1_555 1_555
P4 O12 1_555 1_555
O2 P1 1_555 1_555
O3 P1 1_555 1_555
O4 Cu1 1_555 1_555
O5 V1 1_555 1_555
O6 V1 1_555 1_555
O7 P2 1_555 1_555
O8 P2 1_555 1_555
O9 Cu2 1_555 1_555
O10 P3 1_555 1_555
O11 V2 1_555 1_555
O12 V2 1_555 1_555
O13 V1 1_555 1_555
O14 Cu1 1_555 1_555
N1 Cu2 1_555 1_555
N2 Cu2 1_555 1_555
N3 Cu1 1_555 1_555
N4 Cu1 1_555 1_555
C1 N1 1_555 1_555
H1 C1 1_555 1_555
C2 C1 1_555 1_555
H2 C2 1_555 1_555
C3 C2 1_555 1_555
H3 C3 1_555 1_555
C4 C3 1_555 1_555
C5 C4 1_555 1_555
H4 C5 1_555 1_555
C6 C5 1_555 1_555
H5 C6 1_555 1_555
C7 C6 1_555 1_555
C8 C7 1_555 1_555
H6 C8 1_555 1_555
C9 C8 1_555 1_555
H7 C9 1_555 1_555
C10 N2 1_555 1_555
H8 C10 1_555 1_555
C11 N2 1_555 1_555
C12 N1 1_555 1_555
C13 P4 1_555 1_555
C14 C13 1_555 1_555
H9 C14 1_555 1_555
C15 C14 1_555 1_555
H10 C15 1_555 1_555
C16 C15 1_555 1_555
H11 C16 1_555 1_555
C17 C16 1_555 1_555
H12 C17 1_555 1_555
C18 C13 1_555 1_555
H13 C18 1_555 1_555
C19 P2 1_555 1_555
C20 C19 1_555 1_555
H14 C20 1_555 1_555
C21 C20 1_555 1_555
H15 C21 1_555 1_555
C22 C21 1_555 1_555
H16 C22 1_555 1_555
C23 C22 1_555 1_555
H17 C23 1_555 1_555
C24 C19 1_555 1_555
H18 C24 1_555 1_555
C25 P3 1_555 1_555
C26 C25 1_555 1_555
H19 C26 1_555 1_555
C27 C26 1_555 1_555
H20 C27 1_555 1_555
C28 C27 1_555 1_555
H21 C28 1_555 1_555
C29 C28 1_555 1_555
H22 C29 1_555 1_555
C30 C25 1_555 1_555
H23 C30 1_555 1_555
C31 P1 1_555 1_555
C32 C31 1_555 1_555
H24 C32 1_555 1_555
C33 C32 1_555 1_555
H25 C33 1_555 1_555
C34 C33 1_555 1_555
H26 C34 1_555 1_555
C35 C34 1_555 1_555
H27 C35 1_555 1_555
C36 C31 1_555 1_555
H28 C36 1_555 1_555
C37 N3 1_555 1_555
H29 C37 1_555 1_555
C38 C37 1_555 1_555
H30 C38 1_555 1_555
C39 C38 1_555 1_555
H31 C39 1_555 1_555
C40 C39 1_555 1_555
C41 C40 1_555 1_555
H32 C41 1_555 1_555
C42 C41 1_555 1_555
H33 C42 1_555 1_555
C43 C42 1_555 1_555
C44 C43 1_555 1_555
H34 C44 1_555 1_555
C45 C44 1_555 1_555
H35 C45 1_555 1_555
C46 N4 1_555 1_555
H36 C46 1_555 1_555
C47 N4 1_555 1_555
C48 N3 1_555 1_555
Cu2_2 O11 1_555 1_555
V2_2 O8 1_555 1_555
O8_2 V2 1_555 1_555
O10_2 V2 1_555 1_555
O11_2 Cu2 1_555 1_555
V1 O4 1_555 1_555
P3 O9 1_555 1_555
P4 O13 1_555 1_555
P4 O14 1_555 1_555
O10 V2_2 1_555 1_555
C4 C12 1_555 1_555
C7 C11 1_555 1_555
C9 C10 1_555 1_555
C11 C12 1_555 1_555
C17 C18 1_555 1_555
C23 C24 1_555 1_555
C29 C30 1_555 1_555
C35 C36 1_555 1_555
C40 C48 1_555 1_555
C43 C47 1_555 1_555
C45 C46 1_555 1_555
C47 C48 1_555 1_555
V2_2 O11_2 1_555 1_555

#END
