
#######################################################################
#
#                 Cambridge Crystallographic Data Centre
#                                CCDC 
#
#######################################################################
#
# If this CIF has been generated from an entry in the Cambridge 
# Structural Database, then it will include bibliographic, chemical, 
# crystal, experimental, refinement or atomic coordinate data resulting 
# from the CCDC's data processing and validation procedures.
#
#######################################################################

data_RAGDAG
_symmetry_cell_setting           orthorhombic
_symmetry_space_group_name_H-M   'P c a b'
_symmetry_Int_Tables_number      61
_space_group_name_Hall           '-P 2bc 2ac'
loop_
_symmetry_equiv_pos_site_id
_symmetry_equiv_pos_as_xyz
1 x,y,z
2 -x,1/2-y,1/2+z
3 1/2+x,-y,1/2-z
4 1/2-x,1/2+y,-z
5 -x,-y,-z
6 x,1/2+y,1/2-z
7 1/2-x,y,1/2+z
8 1/2+x,1/2-y,z
_cell_length_a                   8.8090(2)
_cell_length_b                   19.9017(4)
_cell_length_c                   20.9053(5)
_cell_angle_alpha                90
_cell_angle_beta                 90
_cell_angle_gamma                90
_cell_volume                     3664.99
loop_
_atom_site_label
_atom_site_type_symbol
_atom_site_fract_x
_atom_site_fract_y
_atom_site_fract_z
C1 C 0.2273(4) 0.02862(16) 0.45790(16)
H1 H 0.1798 0.0658 0.4399
C2 C 0.3060(4) -0.01413(18) 0.41827(18)
H2 H 0.311 -0.0058 0.3746
C3 C 0.3770(4) -0.06940(19) 0.4441(2)
H3 H 0.4319 -0.0988 0.4183
C4 C 0.3652(4) -0.08009(18) 0.5081(2)
H4 H 0.4119 -0.1171 0.5268
C5 C 0.2830(4) -0.03545(16) 0.54523(18)
H5 H 0.2742 -0.0439 0.5888
C6 C 0.1257(4) 0.09736(17) 0.71225(16)
H6 H 0.1883 0.137 0.7179
H7 H 0.1258 0.0722 0.752
C7 C -0.0333(4) 0.11746(18) 0.69521(16)
H8 H -0.1003 0.0789 0.6975
H9 H -0.0699 0.1514 0.7247
C8 C -0.2344(4) 0.22163(17) 0.65805(17)
H10 H -0.2762 0.1859 0.6834
H11 H -0.3139 0.2426 0.6338
H12 H -0.1879 0.2543 0.6856
C9 C -0.1166(3) 0.19342(14) 0.61287(14)
C10 C -0.1085(3) 0.21966(14) 0.54728(14)
C11 C -0.1603(3) 0.28666(15) 0.53460(15)
C12 C -0.1244(4) 0.26748(18) 0.42205(14)
C13 C -0.1460(6) 0.3012(2) 0.3588(2)
H13 H -0.0797 0.3394 0.3559
H14 H -0.2495 0.3158 0.3549
H15 H -0.1228 0.2702 0.3251
C14 C -0.0700(4) 0.20627(18) 0.43217(15)
H16 H -0.0417 0.1798 0.3975
C15 C -0.0541(3) 0.18023(15) 0.49603(14)
N1 N 0.2158(3) 0.01933(12) 0.52137(12)
N2 N 0.1869(3) 0.05540(13) 0.65998(12)
H17 H 0.1582 0.0124 0.6655
H18 H 0.289 0.057 0.6602
N3 N -0.0300(3) 0.14435(12) 0.62977(12)
O1 O 0.0066(2) 0.12212(10) 0.50150(10)
O2 O -0.1684(3) 0.30769(10) 0.47159(11)
O3 O -0.1950(3) 0.33001(10) 0.57362(11)
Cu1 Cu 0.10791(4) 0.089862(17) 0.576431(17)
O3G O 0.3050(3) 0.16999(10) 0.57362(11)
Cu1G Cu -0.39209(4) 0.410138(17) 0.576431(17)
O4 O -0.1778(3) 0.09728(16) 0.29504(16)
O5 O 0.0241(4) 0.16739(14) 0.26635(16)
O6 O -0.0210(4) 0.06891(19) 0.21098(16)
O7 O 0.0701(4) 0.06507(16) 0.31535(17)
Cl1 Cl -0.02517(10) 0.09943(4) 0.27165(4)
loop_
_geom_bond_atom_site_label_1
_geom_bond_atom_site_label_2
_geom_bond_site_symmetry_1
_geom_bond_site_symmetry_2
C1 H1 1_555 1_555
C2 C1 1_555 1_555
H2 C2 1_555 1_555
C3 C2 1_555 1_555
H3 C3 1_555 1_555
C4 C3 1_555 1_555
H4 C4 1_555 1_555
C5 C4 1_555 1_555
H5 C5 1_555 1_555
C6 H6 1_555 1_555
H7 C6 1_555 1_555
C7 C6 1_555 1_555
H8 C7 1_555 1_555
H9 C7 1_555 1_555
C8 H10 1_555 1_555
H11 C8 1_555 1_555
H12 C8 1_555 1_555
C9 C8 1_555 1_555
C10 C9 1_555 1_555
C11 C10 1_555 1_555
C12 C13 1_555 1_555
C13 H13 1_555 1_555
H14 C13 1_555 1_555
H15 C13 1_555 1_555
C14 C12 1_555 1_555
H16 C14 1_555 1_555
C15 C10 1_555 1_555
N1 C1 1_555 1_555
N2 C6 1_555 1_555
H17 N2 1_555 1_555
H18 N2 1_555 1_555
N3 C7 1_555 1_555
O1 C15 1_555 1_555
O2 C11 1_555 1_555
O3 C11 1_555 1_555
Cu1 N1 1_555 1_555
O4 Cl1 1_555 1_555
O5 Cl1 1_555 1_555
O6 Cl1 1_555 1_555
O7 Cl1 1_555 1_555
O3G Cu1 1_555 1_555
Cu1G O3 1_555 1_555
C5 N1 1_555 1_555
C9 N3 1_555 1_555
C12 O2 1_555 1_555
C14 C15 1_555 1_555
N2 Cu1 1_555 1_555
N3 Cu1 1_555 1_555
O1 Cu1 1_555 1_555

#END
