
#######################################################################
#
#                 Cambridge Crystallographic Data Centre
#                                CCDC 
#
#######################################################################
#
# If this CIF has been generated from an entry in the Cambridge 
# Structural Database, then it will include bibliographic, chemical, 
# crystal, experimental, refinement or atomic coordinate data resulting 
# from the CCDC's data processing and validation procedures.
#
#######################################################################

data_RAGDOT
_symmetry_cell_setting           monoclinic
_symmetry_space_group_name_H-M   'C 2/c'
_symmetry_Int_Tables_number      15
_space_group_name_Hall           '-C 2yn'
loop_
_symmetry_equiv_pos_site_id
_symmetry_equiv_pos_as_xyz
1 x,y,z
2 1/2+x,1/2+y,z
3 -x,y,1/2-z
4 1/2-x,1/2+y,1/2-z
5 -x,-y,-z
6 1/2-x,1/2-y,-z
7 x,-y,1/2+z
8 1/2+x,1/2-y,1/2+z
_cell_length_a                   15.256(2)
_cell_length_b                   14.3088(19)
_cell_length_c                   6.8608(10)
_cell_angle_alpha                90
_cell_angle_beta                 105.757(7)
_cell_angle_gamma                90
_cell_volume                     1441.4
loop_
_atom_site_label
_atom_site_type_symbol
_atom_site_fract_x
_atom_site_fract_y
_atom_site_fract_z
Zn1 Zn 0.0000 0.70226(5) -0.2500
Se1 Se 0.0000 0.64023(4) 0.2500
O1 O 0.0323(2) 0.7055(2) 0.0858(4)
O2 O -0.0849(2) 0.5736(2) 0.1271(4)
O3 O 0.1021(2) 0.6050(2) -0.2383(4)
N1 N -0.0895(2) 0.8167(3) -0.2668(5)
C1 C -0.1782(3) 0.8159(4) -0.2821(7)
H1 H -0.2077 0.7586 -0.2885
C2 C -0.2289(3) 0.8979(5) -0.2891(8)
H2 H -0.2908 0.8946 -0.2986
C3 C -0.1877(4) 0.9815(5) -0.2820(7)
H3 H -0.2213 1.0361 -0.2871
C4 C -0.0941(4) 0.9864(3) -0.2669(6)
C5 C -0.0484(3) 0.9014(3) -0.2597(6)
C6 C -0.0446(4) 1.0706(4) -0.2571(7)
H4 H -0.0747 1.1273 -0.2605
O1B O -0.0323(2) 0.7055(2) 0.4142(4)
O2B O 0.0849(2) 0.5736(2) 0.3729(4)
C5B C 0.0484(3) 0.9014(3) -0.2403(6)
N1B N 0.0895(2) 0.8167(3) -0.2332(5)
C1B C 0.1782(3) 0.8159(4) -0.2179(7)
H1B H 0.2077 0.7586 -0.2115
C2B C 0.2289(3) 0.8979(5) -0.2109(8)
H2B H 0.2908 0.8946 -0.2014
C3B C 0.1877(4) 0.9815(5) -0.2180(7)
H3B H 0.2213 1.0361 -0.2129
C4B C 0.0941(4) 0.9864(3) -0.2331(6)
C6B C 0.0446(4) 1.0706(4) -0.2429(7)
H4B H 0.0747 1.1273 -0.2395
O3B O -0.1021(2) 0.6050(2) -0.2617(4)
O1B_2 O -0.0323(2) 0.7055(2) -0.5858(4)
Zn1_2 Zn 0.0000 0.70226(5) 0.7500
loop_
_geom_bond_atom_site_label_1
_geom_bond_atom_site_label_2
_geom_bond_site_symmetry_1
_geom_bond_site_symmetry_2
Zn1 O1 1_555 1_555
Se1 O1 1_555 1_555
O2 Se1 1_555 1_555
O3 Zn1 1_555 1_555
N1 Zn1 1_555 1_555
C1 N1 1_555 1_555
H1 C1 1_555 1_555
C2 C1 1_555 1_555
H2 C2 1_555 1_555
C3 C2 1_555 1_555
H3 C3 1_555 1_555
C4 C3 1_555 1_555
C5 N1 1_555 1_555
C6 C4 1_555 1_555
H4 C6 1_555 1_555
O1B Se1 1_555 1_555
O2B Se1 1_555 1_555
C5B C5 1_555 1_555
N1B Zn1 1_555 1_555
C1B N1B 1_555 1_555
H1B C1B 1_555 1_555
C2B C1B 1_555 1_555
H2B C2B 1_555 1_555
C3B C2B 1_555 1_555
H3B C3B 1_555 1_555
C4B C5B 1_555 1_555
C6B C6 1_555 1_555
H4B C6B 1_555 1_555
O3B Zn1 1_555 1_555
O1B_2 Zn1 1_555 1_555
Zn1_2 O1B 1_555 1_555
C4 C5 1_555 1_555
C5B N1B 1_555 1_555
C3B C4B 1_555 1_555
C4B C6B 1_555 1_555

#END
