
#######################################################################
#
#                 Cambridge Crystallographic Data Centre
#                                CCDC 
#
#######################################################################
#
# If this CIF has been generated from an entry in the Cambridge 
# Structural Database, then it will include bibliographic, chemical, 
# crystal, experimental, refinement or atomic coordinate data resulting 
# from the CCDC's data processing and validation procedures.
#
#######################################################################

data_RAGMET
_symmetry_cell_setting           monoclinic
_symmetry_space_group_name_H-M   'P 21'
_symmetry_Int_Tables_number      4
_space_group_name_Hall           'P 2yb'
loop_
_symmetry_equiv_pos_site_id
_symmetry_equiv_pos_as_xyz
1 x,y,z
2 -x,1/2+y,-z
_cell_length_a                   8.2470(2)
_cell_length_b                   17.4961(5)
_cell_length_c                   10.2007(3)
_cell_angle_alpha                90
_cell_angle_beta                 92.590(2)
_cell_angle_gamma                90
_cell_volume                     1470.36
loop_
_atom_site_label
_atom_site_type_symbol
_atom_site_fract_x
_atom_site_fract_y
_atom_site_fract_z
O1 O 0.67326(14) 1.04121(6) -0.15108(12)
O2 O 0.91450(14) 1.14592(8) -0.27808(11)
O3 O 0.93005(15) 1.00724(7) -0.17051(13)
C1 C 0.79195(18) 0.99741(8) -0.12714(14)
Ca1 Ca 0.62417(3) 1.148180(16) -0.27539(2)
O4 O 0.40154(14) 0.75678(7) 0.16071(12)
O5 O 0.30024(14) 0.84479(7) 0.02402(12)
C2 C 0.58613(17) 0.84074(8) 0.06128(13)
C3 C 0.87788(18) 0.82702(8) 0.09651(15)
C4 C 0.71942(19) 0.80243(8) 0.11747(14)
H1 H 0.7033 0.7598 0.1698
C5 C 0.41640(18) 0.81218(8) 0.08315(14)
C6 C 0.60935(18) 0.90472(8) -0.01717(13)
H2 H 0.5203 0.9314 -0.0527
N1 N 0.67411(17) 1.07614(7) -0.48378(12)
C7 C 0.76550(19) 0.92846(8) -0.04213(13)
O6 O 0.35339(17) 1.10638(9) -0.26300(16)
N2 N 0.51235(18) 1.21229(8) -0.48280(13)
C8 C 0.5291(2) 1.17611(9) -0.59979(15)
C9 C 0.89786(18) 0.88983(8) 0.01382(14)
H3 H 1.0021 0.9059 -0.0039
C10 C 0.6160(2) 1.10455(9) -0.60049(15)
N3 N 1.0101(2) 0.79318(10) 0.15873(17)
C11 C 0.6396(2) 1.06765(10) -0.72070(16)
C12 C 0.7292(2) 0.99937(11) -0.71697(17)
H4 H 0.7468 0.9730 -0.7942
C13 C 0.4658(2) 1.20646(11) -0.71977(17)
C14 C 0.3807(3) 1.27538(13) -0.7156(2)
H5 H 0.3354 1.2967 -0.7923
C15 C 0.4325(3) 1.27784(10) -0.48427(19)
H6 H 0.4213 1.3031 -0.4050
C16 C 0.7597(2) 1.01201(10) -0.48583(17)
H7 H 0.8018 0.9927 -0.4064
C17 C 0.7900(2) 0.97198(10) -0.59987(18)
H8 H 0.8509 0.9272 -0.5962
C18 C 0.4896(3) 1.16599(11) -0.83930(17)
H9 H 0.4462 1.1858 -0.9179
C19 C 0.5728(3) 1.10041(12) -0.84047(17)
H10 H 0.5877 1.0757 -0.9198
C20 C 0.3644(3) 1.31116(12) -0.5980(2)
H11 H 0.3085 1.3572 -0.5939
H20 H 0.963(3) 1.1505(15) -0.343(2)
H21 H 0.334(3) 1.0669(15) -0.226(2)
H24 H 1.001(2) 0.7497(12) 0.1841(19)
H25 H 1.109(3) 0.8022(14) 0.127(2)
H26 H 0.937(3) 1.1042(15) -0.252(2)
H27 H 0.296(3) 1.1059(15) -0.328(3)
Ca1A Ca 0.37583(3) 0.648180(16) 0.27539(2)
O4A O 0.59846(14) 1.25678(7) -0.16071(12)
C21 C 0.1286(2) 0.09120(10) 0.37167(16)
N4 N 0.0206(2) 0.20022(9) 0.48366(15)
N5 N 0.1861(2) 0.06262(8) 0.48914(15)
C22 C 0.0450(2) 0.16378(9) 0.36877(16)
C23 C 0.1485(2) 0.05219(12) 0.25264(18)
C24 C 0.0900(3) 0.08559(15) 0.1314(2)
H12 H 0.1048 0.0598 0.0531
C25 C -0.0885(3) 0.26533(15) 0.2471(2)
H13 H -0.1264 0.2873 0.1686
C26 C -0.0520(3) 0.26712(12) 0.4787(2)
H14 H -0.0667 0.2926 0.5573
C27 C 0.2578(3) -0.00503(12) 0.4886(2)
H15 H 0.2962 -0.0251 0.5685
C28 C 0.0141(3) 0.15356(17) 0.12862(18)
H16 H -0.0227 0.1741 0.0486
C29 C 0.2264(3) -0.01914(14) 0.2579(2)
H17 H 0.2415 -0.0465 0.1813
C30 C -0.0108(3) 0.19435(12) 0.24619(18)
C31 C -0.1085(3) 0.30224(14) 0.3625(2)
H18 H -0.1587 0.3498 0.3640
C32 C 0.2795(3) -0.04798(13) 0.3760(3)
H19 H 0.3295 -0.0956 0.3814
O7 O 0.2468(2) 0.96399(10) 0.83033(18)
H22 H 0.265(4) 0.9334(18) 0.888(3)
H23 H 0.158(4) 0.9691(16) 0.830(3)
loop_
_geom_bond_atom_site_label_1
_geom_bond_atom_site_label_2
_geom_bond_site_symmetry_1
_geom_bond_site_symmetry_2
O1 C1 1_555 1_555
O2 Ca1 1_555 1_555
O3 C1 1_555 1_555
C1 C7 1_555 1_555
Ca1 O1 1_555 1_555
O4 C5 1_555 1_555
O5 C5 1_555 1_555
C2 C4 1_555 1_555
C3 C4 1_555 1_555
C4 H1 1_555 1_555
C5 C2 1_555 1_555
C6 C2 1_555 1_555
H2 C6 1_555 1_555
N1 Ca1 1_555 1_555
C7 C6 1_555 1_555
O6 Ca1 1_555 1_555
N2 Ca1 1_555 1_555
C8 N2 1_555 1_555
C9 C3 1_555 1_555
H3 C9 1_555 1_555
C10 N1 1_555 1_555
N3 C3 1_555 1_555
C11 C10 1_555 1_555
C12 C11 1_555 1_555
H4 C12 1_555 1_555
C13 C8 1_555 1_555
C14 C13 1_555 1_555
H5 C14 1_555 1_555
C15 N2 1_555 1_555
H6 C15 1_555 1_555
C16 N1 1_555 1_555
H7 C16 1_555 1_555
C17 C12 1_555 1_555
H8 C17 1_555 1_555
C18 C13 1_555 1_555
H9 C18 1_555 1_555
C19 C11 1_555 1_555
H10 C19 1_555 1_555
C20 C14 1_555 1_555
H11 C20 1_555 1_555
C21 N5 1_555 1_555
N4 C22 1_555 1_555
N5 C27 1_555 1_555
C22 C21 1_555 1_555
C23 C21 1_555 1_555
C24 C23 1_555 1_555
H12 C24 1_555 1_555
C25 H13 1_555 1_555
C26 N4 1_555 1_555
H14 C26 1_555 1_555
C27 H15 1_555 1_555
C28 C24 1_555 1_555
H16 C28 1_555 1_555
C29 C23 1_555 1_555
H17 C29 1_555 1_555
C30 C22 1_555 1_555
C31 C25 1_555 1_555
H18 C31 1_555 1_555
C32 C27 1_555 1_555
H19 C32 1_555 1_555
O7 H22 1_555 1_555
H20 O2 1_555 1_555
H21 O6 1_555 1_555
H23 O7 1_555 1_555
H24 N3 1_555 1_555
H25 N3 1_555 1_555
H26 O2 1_555 1_555
H27 O6 1_555 1_555
Ca1A O4 1_555 1_555
O4A Ca1 1_555 1_555
C7 C9 1_555 1_555
C8 C10 1_555 1_555
C15 C20 1_555 1_555
C16 C17 1_555 1_555
C18 C19 1_555 1_555
C25 C30 1_555 1_555
C26 C31 1_555 1_555
C28 C30 1_555 1_555
C29 C32 1_555 1_555

#END
