
#######################################################################
#
#                 Cambridge Crystallographic Data Centre
#                                CCDC 
#
#######################################################################
#
# If this CIF has been generated from an entry in the Cambridge 
# Structural Database, then it will include bibliographic, chemical, 
# crystal, experimental, refinement or atomic coordinate data resulting 
# from the CCDC's data processing and validation procedures.
#
#######################################################################

data_RAGPIA
_symmetry_cell_setting           monoclinic
_symmetry_space_group_name_H-M   'P 21/c'
_symmetry_Int_Tables_number      14
_space_group_name_Hall           '-P 2ybc'
loop_
_symmetry_equiv_pos_site_id
_symmetry_equiv_pos_as_xyz
1 x,y,z
2 -x,1/2+y,1/2-z
3 -x,-y,-z
4 x,1/2-y,1/2+z
_cell_length_a                   9.6197(8)
_cell_length_b                   28.063(3)
_cell_length_c                   34.340(3)
_cell_angle_alpha                90
_cell_angle_beta                 90.078(3)
_cell_angle_gamma                90
_cell_volume                     9270.34
loop_
_atom_site_label
_atom_site_type_symbol
_atom_site_fract_x
_atom_site_fract_y
_atom_site_fract_z
V1 V 0.73311(8) 0.94894(2) 0.211149(18)
V2 V 0.73433(8) 0.80069(2) 0.209506(18)
V3 V 0.51713(7) 0.87506(3) 0.162723(14)
V4 V 0.99385(8) 0.87485(4) 0.213167(19)
Na1 Na 0.75003(17) 1.07535(5) 0.15843(4)
Na2 Na 0.74831(17) 0.67243(5) 0.15413(4)
Na3 Na 0.75435(15) 1.12298(9) 0.04903(3)
Na4 Na 0.75338(15) 0.62550(9) 0.04212(4)
O1 O 0.7498(4) 1.00715(14) 0.20836(10)
O2 O 0.6596(4) 0.93601(12) 0.25325(9)
O3 O 0.7466(4) 0.74273(14) 0.20528(10)
O4 O 0.6638(4) 0.81275(12) 0.25145(9)
O5 O 0.4698(3) 0.87557(16) 0.11635(7)
O6 O 0.3821(3) 0.87322(15) 0.19104(7)
H1 H 0.3112 0.8816 0.1785
O7 O 1.0779(3) 0.87532(13) 0.25552(7)
O8 O 1.1145(3) 0.87530(13) 0.17847(7)
O9 O 0.7489(3) 1.13924(10) 0.11460(8)
H2 H 0.7463 1.1712 0.1237
O10 O 0.7467(3) 0.61035(10) 0.10891(8)
H3 H 0.7433 0.5783 0.1179
O11 O 0.5691(3) 1.12065(18) 0.19088(8)
O12 O -0.0719(3) 1.11856(17) 0.18936(8)
O13 O 0.5615(5) 1.03676(15) 0.13129(11)
O14 O -0.0669(5) 1.03195(15) 0.13081(11)
O15 O 0.5785(5) 1.06660(15) 0.03822(11)
O16 O -0.0666(5) 1.06857(15) 0.03730(11)
O17 O 0.5760(5) 1.18071(16) 0.04050(11)
O18 O -0.0682(5) 1.17927(16) 0.03775(11)
O19 O 0.5799(5) 1.21663(15) 0.13560(11)
O20 O -0.0656(4) 1.21010(15) 0.13066(11)
O21 O 0.5619(5) 0.71348(15) 0.12886(11)
O22 O -0.0705(5) 0.71845(14) 0.12798(11)
O23 O 0.5692(3) 0.62950(18) 0.18786(8)
O24 O -0.0735(3) 0.63125(17) 0.18656(8)
O25 O 0.5764(5) 0.53279(15) 0.13253(11)
O26 O -0.0658(5) 0.54002(15) 0.12802(11)
O27 O 0.5711(5) 0.56795(15) 0.03702(11)
O28 O -0.0678(5) 0.56995(15) 0.03616(11)
O29 O 0.5756(5) 0.68279(15) 0.03604(11)
O30 O -0.0680(5) 0.67952(16) 0.03443(11)
O31 O 0.6228(3) 0.82273(11) 0.17018(8)
O32 O 0.6212(3) 0.92709(11) 0.17183(8)
O33 O 0.9005(4) 0.92227(12) 0.20636(9)
O34 O 0.9040(4) 0.82737(12) 0.20590(9)
N1 N 0.3709(5) 1.16002(19) 0.21074(13)
N2 N 0.1217(5) 1.15804(18) 0.21577(13)
N3 N 0.3789(6) 1.0797(2) 0.21614(13)
N4 N 0.1203(6) 1.07952(19) 0.21253(13)
N5 N 0.3748(6) 1.01564(19) 0.16928(13)
N6 N 0.1197(6) 1.01193(18) 0.16944(14)
N7 N 0.3792(6) 0.99230(18) 0.10727(14)
N8 N 0.1234(6) 0.99243(18) 0.10704(13)
N9 N 0.3830(6) 1.0183(2) 0.03975(15)
N10 N 0.1253(6) 1.0186(2) 0.03998(14)
N11 N 0.3833(6) 1.0815(2) -0.00021(15)
N12 N 0.1274(6) 1.0810(2) 0.00017(14)
N13 N 0.3811(6) 1.1672(2) 0.00119(14)
N14 N 0.1285(6) 1.1679(2) 0.00077(14)
N15 N 0.3826(6) 1.2274(2) 0.04181(14)
N16 N 0.1270(6) 1.2298(2) 0.04096(14)
N17 N 0.3820(6) 1.25178(19) 0.11059(15)
N18 N 0.1277(6) 1.2518(2) 0.10806(16)
N19 N 0.3815(6) 1.23166(19) 0.17266(15)
N20 N 0.1310(6) 1.22338(18) 0.16861(13)
N21 N 0.3776(6) 0.7560(2) 0.10379(15)
N22 N 0.1242(6) 0.75683(19) 0.10267(15)
N23 N 0.3711(6) 0.73483(19) 0.16561(14)
N24 N 0.1216(6) 0.73781(18) 0.16560(13)
N25 N 0.3788(5) 0.66953(19) 0.21255(13)
N26 N 0.1253(6) 0.66934(19) 0.20992(13)
N27 N 0.3695(6) 0.5903(2) 0.20860(14)
N28 N 0.1113(6) 0.5909(2) 0.21247(14)
N29 N 0.3849(6) 0.51826(18) 0.17021(13)
N30 N 0.1278(5) 0.52637(17) 0.16589(14)
N31 N 0.3801(6) 0.49715(19) 0.10754(14)
N32 N 0.1221(6) 0.49602(18) 0.10683(13)
N33 N 0.3807(6) 0.5196(2) 0.03900(14)
N34 N 0.1220(5) 0.51837(19) 0.03856(14)
N35 N 0.3793(6) 0.5817(2) -0.00200(14)
N36 N 0.1270(6) 0.5810(2) -0.00213(14)
N37 N 0.3812(6) 0.6673(2) -0.00220(14)
N38 N 0.1269(6) 0.6684(2) -0.00337(14)
N39 N 0.3818(6) 0.7294(2) 0.03639(14)
N40 N 0.1268(6) 0.7294(2) 0.03644(14)
C1 C 0.4513(6) 1.1202(3) 0.20416(12)
C2 C 0.0459(6) 1.1182(3) 0.20320(13)
C3 C 0.2480(7) 1.1482(2) 0.23425(18)
H4 H 0.2528 1.1619 0.2611
C4 C 0.2485(7) 1.0923(2) 0.23430(18)
H5 H 0.2445 1.0797 0.2615
C5 C 0.4214(7) 1.0338(2) 0.20595(17)
H6 H 0.3895 1.0116 0.2265
H7 H 0.5243 1.0331 0.2060
C6 C 0.0767(7) 1.0312(2) 0.20599(16)
H8 H 0.1144 1.0110 0.2271
H9 H -0.0260 1.0298 0.2075
C7 C 0.4502(8) 1.0178(2) 0.13525(17)
C8 C 0.0465(8) 1.0128(2) 0.13597(18)
C9 C 0.2540(7) 0.9862(2) 0.16500(16)
H10 H 0.2586 0.9578 0.1825
C10 C 0.2498(7) 0.9711(2) 0.12171(16)
H11 H 0.2494 0.9357 0.1187
C11 C 0.4366(7) 0.9855(2) 0.06872(15)
H12 H 0.4167 0.9525 0.0601
H13 H 0.5388 0.9892 0.0702
C12 C 0.0725(7) 0.9852(2) 0.06780(16)
H14 H 0.0977 0.9526 0.0593
H15 H -0.0302 0.9874 0.0680
C13 C 0.4570(9) 1.0565(3) 0.0273(2)
C14 C 0.0473(9) 1.0578(3) 0.02809(19)
C15 C 0.2540(7) 1.0127(3) 0.01823(17)
H16 H 0.2536 0.9822 0.0032
C16 C 0.2534(7) 1.0563(2) -0.00954(17)
H17 H 0.2524 1.0458 -0.0374
C17 C 0.4313(4) 1.1246(3) -0.01765(11)
H18 H 0.4017 1.1251 -0.0453
H19 H 0.5342 1.1248 -0.0171
C18 C 0.0784(4) 1.1239(3) -0.01865(11)
H20 H -0.0245 1.1239 -0.0187
H21 H 0.1100 1.1240 -0.0461
C19 C 0.4604(7) 1.1892(2) 0.02941(18)
C20 C 0.0500(7) 1.1908(2) 0.02767(17)
C21 C 0.2560(8) 1.1924(2) -0.00882(17)
H22 H 0.2568 1.2031 -0.0366
C22 C 0.2550(7) 1.2349(2) 0.01946(17)
H23 H 0.2578 1.2659 0.0051
C23 C 0.4332(7) 1.2605(2) 0.07109(17)
H24 H 0.4062 1.2932 0.0633
H25 H 0.5360 1.2591 0.0715
C24 C 0.0747(7) 1.2630(2) 0.06942(17)
H26 H -0.0282 1.2617 0.0697
H27 H 0.1028 1.2957 0.0622
C25 C 0.4590(8) 1.2302(2) 0.13899(18)
C26 C 0.0514(7) 1.2262(2) 0.13546(18)
C27 C 0.2555(7) 1.2721(2) 0.12491(16)
H28 H 0.2564 1.3076 0.1231
C28 C 0.2479(7) 1.2547(2) 0.16824(17)
H29 H 0.2362 1.2818 0.1868
C29 C 0.4306(7) 1.2078(2) 0.20733(17)
H30 H 0.4050 1.2269 0.2305
H31 H 0.5332 1.2055 0.2065
C30 C 0.0695(7) 1.2061(2) 0.20480(16)
H32 H -0.0328 1.2048 0.2018
H33 H 0.0910 1.2289 0.2260
C31 C 0.4496(8) 0.7319(2) 0.13216(19)
C32 C 0.0456(7) 0.7350(2) 0.13202(18)
C33 C 0.2545(7) 0.7767(2) 0.11823(16)
H34 H 0.2565 0.8121 0.1151
C34 C 0.2486(8) 0.7627(3) 0.16260(18)
H35 H 0.2514 0.7913 0.1800
C35 C 0.4300(7) 0.7159(2) 0.20283(16)
H36 H 0.5325 0.7145 0.2006
H37 H 0.4070 0.7382 0.2242
C36 C 0.0754(7) 0.7193(2) 0.20247(16)
H38 H -0.0275 0.7197 0.2031
H39 H 0.1094 0.7403 0.2236
C37 C 0.4528(5) 0.6293(3) 0.20109(12)
C38 C 0.0446(6) 0.6312(3) 0.20072(13)
C39 C 0.2501(7) 0.6586(2) 0.23148(18)
H40 H 0.2467 0.6714 0.2586
C40 C 0.2475(7) 0.6024(2) 0.23068(18)
H41 H 0.2533 0.5891 0.2577
C41 C 0.4201(7) 0.5422(2) 0.20438(16)
H42 H 0.5227 0.5429 0.2064
H43 H 0.3851 0.5233 0.2266
C42 C 0.0698(7) 0.5439(2) 0.20268(15)
H44 H -0.0329 0.5428 0.2010
H45 H 0.0986 0.5221 0.2239
C43 C 0.4552(8) 0.5191(2) 0.13535(17)
C44 C 0.0494(8) 0.5221(2) 0.13302(18)
C45 C 0.2487(7) 0.4949(2) 0.16476(17)
H46 H 0.2373 0.4681 0.1837
C46 C 0.2491(8) 0.4758(3) 0.12251(17)
H47 H 0.2498 0.4402 0.1214
C47 C 0.4330(7) 0.4880(2) 0.06908(15)
H48 H 0.4097 0.4548 0.0618
H49 H 0.5357 0.4906 0.0698
C48 C 0.0689(7) 0.4864(2) 0.06758(15)
H50 H 0.0936 0.4534 0.0602
H51 H -0.0337 0.4887 0.0679
C49 C 0.4529(9) 0.5583(3) 0.02551(19)
C50 C 0.0453(9) 0.5585(3) 0.02617(18)
C51 C 0.2491(7) 0.5125(2) 0.01786(18)
H52 H 0.2499 0.4815 0.0036
C52 C 0.2529(7) 0.5552(2) -0.01130(18)
H53 H 0.2530 0.5439 -0.0389
C53 C 0.4290(4) 0.6242(3) -0.02104(11)
H54 H 0.3969 0.6241 -0.0484
H55 H 0.5319 0.6239 -0.0212
C54 C 0.0805(4) 0.6240(3) -0.02200(12)
H56 H -0.0223 0.6240 -0.0231
H57 H 0.1154 0.6234 -0.0491
C55 C 0.4586(7) 0.6904(2) 0.02514(17)
C56 C 0.0505(7) 0.6905(2) 0.02367(17)
C57 C 0.2538(8) 0.6921(2) -0.01293(17)
H58 H 0.2553 0.7020 -0.0409
C58 C 0.2532(7) 0.7358(2) 0.01441(16)
H59 H 0.2528 0.7664 -0.0005
C59 C 0.4337(7) 0.7636(2) 0.06444(16)
H60 H 0.4091 0.7961 0.0556
H61 H 0.5364 0.7614 0.0655
C60 C 0.0739(7) 0.7639(2) 0.06394(17)
H62 H 0.1004 0.7963 0.0552
H63 H -0.0289 0.7622 0.0641
Na1_2 Na -0.24997(17) 1.07535(5) 0.15843(4)
Na2_2 Na -0.25169(17) 0.67243(5) 0.15413(4)
Na3_2 Na -0.24565(15) 1.12298(9) 0.04903(3)
Na4_2 Na -0.24662(15) 0.62550(9) 0.04212(4)
O12_2 O 0.9281(3) 1.11856(17) 0.18936(8)
O14_2 O 0.9331(5) 1.03195(15) 0.13081(11)
O16_2 O 0.9334(5) 1.06857(15) 0.03730(11)
O18_2 O 0.9318(5) 1.17927(16) 0.03775(11)
O22_2 O 0.9295(5) 0.71845(14) 0.12798(11)
O24_2 O 0.9265(3) 0.63125(17) 0.18656(8)
O28_2 O 0.9322(5) 0.56995(15) 0.03616(11)
O30_2 O 0.9320(5) 0.67952(16) 0.03443(11)
Cl1 Cl 0.74965(10) 0.62592(5) -0.06045(2)
O35 O 0.2547(3) 0.87513(17) 0.05792(7)
O36 O 0.0189(3) 0.87205(16) 0.10737(7)
O37 O 0.7744(4) 0.80175(14) 0.10187(10)
O38 O 0.7716(4) 0.94861(15) 0.10287(11)
O39 O 0.7039(3) 0.87551(15) 0.32315(7)
O40 O 0.4722(3) 0.87700(17) 0.37638(7)
O41 O 0.9796(3) 0.87231(16) 0.37503(7)
O42 O 1.0268(3) 0.93260(12) 0.31283(9)
O43 O 1.0230(3) 0.81679(12) 0.31344(9)
O44 O 1.2427(4) 0.99699(14) 0.30103(10)
O45 O 1.2464(5) 0.75270(15) 0.29922(10)
O46 O 1.2398(4) 0.80865(14) 0.39077(10)
O47 O 1.3937(7) 0.8256(2) 0.26596(18)
O48 O 1.2379(4) 0.94134(15) 0.39195(11)
O49 O 1.3894(7) 0.9274(2) 0.26662(18)
O50 O 0.3962(6) 0.6222(4) 0.09738(15)
O51 O 0.4024(6) 1.1256(4) 0.09996(14)
O52 O 0.1044(6) 0.6310(3) 0.10786(15)
O53 O 0.1102(6) 1.1198(3) 0.10682(15)
loop_
_geom_bond_atom_site_label_1
_geom_bond_atom_site_label_2
_geom_bond_site_symmetry_1
_geom_bond_site_symmetry_2
V1 O1 1_555 1_555
V2 O3 1_555 1_555
V3 O5 1_555 1_555
V4 O7 1_555 1_555
Na1 O1 1_555 1_555
Na2 O3 1_555 1_555
Na3 O9 1_555 1_555
Na4 O10 1_555 1_555
O2 V1 1_555 1_555
O4 V2 1_555 1_555
O6 V3 1_555 1_555
H1 O6 1_555 1_555
O8 V4 1_555 1_555
O9 Na1 1_555 1_555
H2 O9 1_555 1_555
O10 Na2 1_555 1_555
H3 O10 1_555 1_555
O11 Na1 1_555 1_555
O12 C2 1_555 1_555
O13 Na1 1_555 1_555
O14 C8 1_555 1_555
O15 Na3 1_555 1_555
O16 C14 1_555 1_555
O17 Na3 1_555 1_555
O18 C20 1_555 1_555
O19 C25 1_555 1_555
O20 C26 1_555 1_555
O21 Na2 1_555 1_555
O22 C32 1_555 1_555
O23 Na2 1_555 1_555
O24 C38 1_555 1_555
O25 C43 1_555 1_555
O26 C44 1_555 1_555
O27 Na4 1_555 1_555
O28 C50 1_555 1_555
O29 Na4 1_555 1_555
O30 C56 1_555 1_555
O31 V2 1_555 1_555
O32 V1 1_555 1_555
O33 V1 1_555 1_555
O34 V2 1_555 1_555
N1 C1 1_555 1_555
N2 C2 1_555 1_555
N3 C1 1_555 1_555
N4 C2 1_555 1_555
N5 C5 1_555 1_555
N6 C6 1_555 1_555
N7 C7 1_555 1_555
N8 C8 1_555 1_555
N9 C11 1_555 1_555
N10 C12 1_555 1_555
N11 C13 1_555 1_555
N12 C14 1_555 1_555
N13 C17 1_555 1_555
N14 C18 1_555 1_555
N15 C19 1_555 1_555
N16 C20 1_555 1_555
N17 C23 1_555 1_555
N18 C24 1_555 1_555
N19 C25 1_555 1_555
N20 C26 1_555 1_555
N21 C31 1_555 1_555
N22 C32 1_555 1_555
N23 C31 1_555 1_555
N24 C32 1_555 1_555
N25 C35 1_555 1_555
N26 C36 1_555 1_555
N27 C37 1_555 1_555
N28 C38 1_555 1_555
N29 C41 1_555 1_555
N30 C42 1_555 1_555
N31 C43 1_555 1_555
N32 C44 1_555 1_555
N33 C47 1_555 1_555
N34 C48 1_555 1_555
N35 C49 1_555 1_555
N36 C50 1_555 1_555
N37 C53 1_555 1_555
N38 C54 1_555 1_555
N39 C55 1_555 1_555
N40 C56 1_555 1_555
C1 O11 1_555 1_555
C3 N1 1_555 1_555
H4 C3 1_555 1_555
C4 N3 1_555 1_555
H5 C4 1_555 1_555
C5 N3 1_555 1_555
H6 C5 1_555 1_555
H7 C5 1_555 1_555
C6 N4 1_555 1_555
H8 C6 1_555 1_555
H9 C6 1_555 1_555
C7 O13 1_555 1_555
C8 N6 1_555 1_555
C9 N5 1_555 1_555
H10 C9 1_555 1_555
C10 N7 1_555 1_555
H11 C10 1_555 1_555
C11 N7 1_555 1_555
H12 C11 1_555 1_555
H13 C11 1_555 1_555
C12 N8 1_555 1_555
H14 C12 1_555 1_555
H15 C12 1_555 1_555
C13 O15 1_555 1_555
C14 N10 1_555 1_555
C15 N9 1_555 1_555
H16 C15 1_555 1_555
C16 N11 1_555 1_555
H17 C16 1_555 1_555
C17 N11 1_555 1_555
H18 C17 1_555 1_555
H19 C17 1_555 1_555
C18 N12 1_555 1_555
H20 C18 1_555 1_555
H21 C18 1_555 1_555
C19 O17 1_555 1_555
C20 N14 1_555 1_555
C21 N13 1_555 1_555
H22 C21 1_555 1_555
C22 N15 1_555 1_555
H23 C22 1_555 1_555
C23 N15 1_555 1_555
H24 C23 1_555 1_555
H25 C23 1_555 1_555
C24 N16 1_555 1_555
H26 C24 1_555 1_555
H27 C24 1_555 1_555
C25 N17 1_555 1_555
C26 N18 1_555 1_555
C27 N17 1_555 1_555
H28 C27 1_555 1_555
C28 N19 1_555 1_555
H29 C28 1_555 1_555
C29 N1 1_555 1_555
H30 C29 1_555 1_555
H31 C29 1_555 1_555
C30 N2 1_555 1_555
H32 C30 1_555 1_555
H33 C30 1_555 1_555
C31 O21 1_555 1_555
C33 N21 1_555 1_555
H34 C33 1_555 1_555
C34 N23 1_555 1_555
H35 C34 1_555 1_555
C35 N23 1_555 1_555
H36 C35 1_555 1_555
H37 C35 1_555 1_555
C36 N24 1_555 1_555
H38 C36 1_555 1_555
H39 C36 1_555 1_555
C37 O23 1_555 1_555
C38 N26 1_555 1_555
C39 N25 1_555 1_555
H40 C39 1_555 1_555
C40 N27 1_555 1_555
H41 C40 1_555 1_555
C41 N27 1_555 1_555
H42 C41 1_555 1_555
H43 C41 1_555 1_555
C42 N28 1_555 1_555
H44 C42 1_555 1_555
H45 C42 1_555 1_555
C43 N29 1_555 1_555
C44 N30 1_555 1_555
C45 N29 1_555 1_555
H46 C45 1_555 1_555
C46 N31 1_555 1_555
H47 C46 1_555 1_555
C47 N31 1_555 1_555
H48 C47 1_555 1_555
H49 C47 1_555 1_555
C48 N32 1_555 1_555
H50 C48 1_555 1_555
H51 C48 1_555 1_555
C49 O27 1_555 1_555
C50 N34 1_555 1_555
C51 N33 1_555 1_555
H52 C51 1_555 1_555
C52 N35 1_555 1_555
H53 C52 1_555 1_555
C53 N35 1_555 1_555
H54 C53 1_555 1_555
H55 C53 1_555 1_555
C54 N36 1_555 1_555
H56 C54 1_555 1_555
H57 C54 1_555 1_555
C55 O29 1_555 1_555
C56 N38 1_555 1_555
C57 N37 1_555 1_555
H58 C57 1_555 1_555
C58 N39 1_555 1_555
H59 C58 1_555 1_555
C59 N21 1_555 1_555
H60 C59 1_555 1_555
H61 C59 1_555 1_555
C60 N22 1_555 1_555
H62 C60 1_555 1_555
H63 C60 1_555 1_555
Na1_2 O12 1_555 1_555
Na2_2 O22 1_555 1_555
Na3_2 O16 1_555 1_555
Na4_2 O28 1_555 1_555
O12_2 Na1 1_555 1_555
O14_2 Na1 1_555 1_555
O16_2 Na3 1_555 1_555
O18_2 Na3 1_555 1_555
O22_2 Na2 1_555 1_555
O24_2 Na2 1_555 1_555
O28_2 Na4 1_555 1_555
O30_2 Na4 1_555 1_555
V3 O31 1_555 1_555
V3 O32 1_555 1_555
V4 O33 1_555 1_555
V4 O34 1_555 1_555
O14 Na1_2 1_555 1_555
O18 Na3_2 1_555 1_555
O24 Na2_2 1_555 1_555
O30 Na4_2 1_555 1_555
N2 C3 1_555 1_555
N4 C4 1_555 1_555
N5 C7 1_555 1_555
N6 C9 1_555 1_555
N8 C10 1_555 1_555
N9 C13 1_555 1_555
N10 C15 1_555 1_555
N12 C16 1_555 1_555
N13 C19 1_555 1_555
N14 C21 1_555 1_555
N16 C22 1_555 1_555
N18 C27 1_555 1_555
N19 C29 1_555 1_555
N20 C28 1_555 1_555
N20 C30 1_555 1_555
N22 C33 1_555 1_555
N24 C34 1_555 1_555
N25 C37 1_555 1_555
N26 C39 1_555 1_555
N28 C40 1_555 1_555
N30 C45 1_555 1_555
N32 C46 1_555 1_555
N33 C49 1_555 1_555
N34 C51 1_555 1_555
N36 C52 1_555 1_555
N37 C55 1_555 1_555
N38 C57 1_555 1_555
N39 C59 1_555 1_555
N40 C58 1_555 1_555
N40 C60 1_555 1_555
C3 C4 1_555 1_555
C9 C10 1_555 1_555
C15 C16 1_555 1_555
C21 C22 1_555 1_555
C27 C28 1_555 1_555
C33 C34 1_555 1_555
C39 C40 1_555 1_555
C45 C46 1_555 1_555
C51 C52 1_555 1_555
C57 C58 1_555 1_555

#END
