
#######################################################################
#
#                 Cambridge Crystallographic Data Centre
#                                CCDC 
#
#######################################################################
#
# If this CIF has been generated from an entry in the Cambridge 
# Structural Database, then it will include bibliographic, chemical, 
# crystal, experimental, refinement or atomic coordinate data resulting 
# from the CCDC's data processing and validation procedures.
#
#######################################################################

data_RAGRIC
_symmetry_cell_setting           orthorhombic
_symmetry_space_group_name_H-M   'P 21 21 21'
_symmetry_Int_Tables_number      19
_space_group_name_Hall           'P 2ac 2ab'
loop_
_symmetry_equiv_pos_site_id
_symmetry_equiv_pos_as_xyz
1 x,y,z
2 1/2-x,-y,1/2+z
3 -x,1/2+y,1/2-z
4 1/2+x,1/2-y,-z
_cell_length_a                   9.9545(4)
_cell_length_b                   12.5791(6)
_cell_length_c                   24.7887(11)
_cell_angle_alpha                90
_cell_angle_beta                 90
_cell_angle_gamma                90
_cell_volume                     3104.01
loop_
_atom_site_label
_atom_site_type_symbol
_atom_site_fract_x
_atom_site_fract_y
_atom_site_fract_z
Cu1 Cu 0.37467(4) -0.42600(3) 0.298630(15)
N1 N 0.3348(3) -0.4241(3) 0.22012(11)
H1 H 0.2993 -0.4886 0.2100
H2 H 0.2719 -0.3724 0.2130
O1 O 0.5638(2) -0.4359(2) 0.27408(9)
O2 O 0.6917(2) -0.4013(2) 0.20240(9)
C1 C 0.5805(3) -0.4136(3) 0.22519(14)
C2 C 0.4581(3) -0.4028(3) 0.18821(12)
H3 H 0.4650 -0.4581 0.1594
C3 C 0.4551(3) -0.2944(3) 0.16128(14)
H4 H 0.5460 -0.2774 0.1475
H5 H 0.4311 -0.2399 0.1885
C4 C 0.3552(3) -0.2890(3) 0.11475(13)
C5 C 0.3868(4) -0.3350(3) 0.06512(13)
H6 H 0.4691 -0.3722 0.0607
C6 C 0.2978(4) -0.3263(3) 0.02215(15)
H7 H 0.3199 -0.3575 -0.0116
C7 C 0.1774(4) -0.2727(3) 0.02807(17)
H8 H 0.1175 -0.2663 -0.0016
C8 C 0.1450(4) -0.2287(3) 0.07734(17)
H9 H 0.0618 -0.1928 0.0817
C9 C 0.2326(4) -0.2365(3) 0.12053(16)
H10 H 0.2091 -0.2059 0.1543
Cu2 Cu -0.12081(4) -0.40580(4) 0.225850(16)
O3 O -0.1212(3) -0.5862(2) 0.25759(11)
H11 H -0.040(3) -0.609(3) 0.2711(16)
H12 H -0.158(4) -0.638(3) 0.2345(14)
N2 N -0.1618(2) -0.3640(2) 0.30089(11)
H13 H -0.2063 -0.2999 0.3007
H14 H -0.2179 -0.4139 0.3161
O4 O 0.0675(2) -0.3964(2) 0.24965(10)
O5 O 0.1912(2) -0.3980(2) 0.32423(9)
C10 C 0.0833(3) -0.3867(3) 0.29981(14)
C11 C -0.0397(3) -0.3545(3) 0.33405(13)
H15 H -0.0290 -0.2779 0.3440
C12 C -0.0467(3) -0.4183(3) 0.38612(14)
H16 H 0.0453 -0.4242 0.4009
H17 H -0.0772 -0.4911 0.3772
C13 C -0.1380(4) -0.3746(3) 0.43037(14)
C14 C -0.1153(4) -0.4093(3) 0.48310(14)
H18 H -0.0434 -0.4566 0.4908
C15 C -0.2003(5) -0.3733(4) 0.52481(15)
H19 H -0.1856 -0.3974 0.5606
C16 C -0.3031(5) -0.3046(4) 0.51464(17)
H20 H -0.3591 -0.2805 0.5432
C17 C -0.3251(4) -0.2704(3) 0.46240(16)
H21 H -0.3975 -0.2234 0.4550
C18 C -0.2423(4) -0.3039(3) 0.42062(15)
H22 H -0.2571 -0.2782 0.3851
N3 N 0.4288(3) -0.4430(2) 0.37576(11)
C19 C 0.5195(3) -0.5169(3) 0.38913(14)
H23 H 0.5663 -0.5528 0.3611
C20 C 0.5479(3) -0.5431(3) 0.44171(14)
H24 H 0.6130 -0.5963 0.4493
C21 C 0.4819(3) -0.4924(3) 0.48385(14)
C22 C 0.3902(3) -0.4147(3) 0.46969(13)
H25 H 0.3435 -0.3765 0.4970
C23 C 0.3661(4) -0.3923(3) 0.41565(13)
H26 H 0.3024 -0.3388 0.4068
C24 C 0.5104(3) -0.5178(3) 0.54155(13)
C25 C 0.6149(3) -0.5849(3) 0.55583(12)
H27 H 0.6686 -0.6169 0.5286
C26 C 0.6412(3) -0.6054(3) 0.60917(13)
H28 H 0.7137 -0.6515 0.6177
C27 C 0.4692(3) -0.4987(3) 0.63657(14)
H29 H 0.4177 -0.4681 0.6648
C28 C 0.4360(3) -0.4736(3) 0.58405(13)
H30 H 0.3633 -0.4268 0.5767
N4 N 0.5701(3) -0.5638(2) 0.64974(11)
N5 N 0.2061(4) -0.6487(2) 0.32731(13)
O6 O 0.3119(2) -0.6186(2) 0.30243(11)
O7 O 0.1122(3) -0.6920(2) 0.30092(13)
O8 O 0.2005(4) -0.6379(3) 0.37666(12)
N6 N 0.3612(4) -0.1753(3) 0.32809(13)
O9 O 0.2447(3) -0.1540(3) 0.34161(12)
O10 O 0.4571(3) -0.1487(3) 0.35839(13)
O11 O 0.3883(4) -0.2268(2) 0.28732(12)
Cu2_2 Cu 0.87919(4) -0.40580(4) 0.225850(16)
O2_2 O -0.3083(2) -0.4013(2) 0.20240(9)
N4A N -0.0701(3) -0.4362(2) 0.14974(11)
O7B O -0.1122(3) -0.1920(2) 0.19908(13)
Cu2A Cu 0.62081(4) -0.59420(4) 0.725850(16)
Cu2B Cu 0.12081(4) -0.90580(4) 0.274150(16)
O12 O 0.2942(3) -0.6561(2) 0.19421(11)
H31 H 0.296(4) -0.663(4) 0.2328(8)
H32 H 0.379(2) -0.671(3) 0.1806(16)
loop_
_geom_bond_atom_site_label_1
_geom_bond_atom_site_label_2
_geom_bond_site_symmetry_1
_geom_bond_site_symmetry_2
Cu1 N1 1_555 1_555
N1 H1 1_555 1_555
H2 N1 1_555 1_555
O1 Cu1 1_555 1_555
O2 C1 1_555 1_555
C1 O1 1_555 1_555
C2 N1 1_555 1_555
H3 C2 1_555 1_555
C3 C2 1_555 1_555
H4 C3 1_555 1_555
H5 C3 1_555 1_555
C4 C3 1_555 1_555
C5 C4 1_555 1_555
H6 C5 1_555 1_555
C6 C5 1_555 1_555
H7 C6 1_555 1_555
C7 C6 1_555 1_555
H8 C7 1_555 1_555
C8 C7 1_555 1_555
H9 C8 1_555 1_555
C9 C4 1_555 1_555
H10 C9 1_555 1_555
Cu2 O3 1_555 1_555
O3 H11 1_555 1_555
H12 O3 1_555 1_555
N2 Cu2 1_555 1_555
H13 N2 1_555 1_555
H14 N2 1_555 1_555
O4 Cu2 1_555 1_555
O5 Cu1 1_555 1_555
C10 O4 1_555 1_555
C11 N2 1_555 1_555
H15 C11 1_555 1_555
C12 C11 1_555 1_555
H16 C12 1_555 1_555
H17 C12 1_555 1_555
C13 C12 1_555 1_555
C14 C13 1_555 1_555
H18 C14 1_555 1_555
C15 C14 1_555 1_555
H19 C15 1_555 1_555
C16 C15 1_555 1_555
H20 C16 1_555 1_555
C17 C16 1_555 1_555
H21 C17 1_555 1_555
C18 C13 1_555 1_555
H22 C18 1_555 1_555
N3 Cu1 1_555 1_555
C19 N3 1_555 1_555
H23 C19 1_555 1_555
C20 C19 1_555 1_555
H24 C20 1_555 1_555
C21 C20 1_555 1_555
C22 C21 1_555 1_555
H25 C22 1_555 1_555
C23 N3 1_555 1_555
H26 C23 1_555 1_555
C24 C21 1_555 1_555
C25 C24 1_555 1_555
H27 C25 1_555 1_555
C26 C25 1_555 1_555
H28 C26 1_555 1_555
C27 H29 1_555 1_555
C28 C24 1_555 1_555
H30 C28 1_555 1_555
N4 C26 1_555 1_555
N5 O6 1_555 1_555
O6 Cu1 1_555 1_555
O7 N5 1_555 1_555
O8 N5 1_555 1_555
N6 O9 1_555 1_555
O10 N6 1_555 1_555
O11 Cu1 1_555 1_555
O12 H31 1_555 1_555
H32 O12 1_555 1_555
Cu2_2 O2 1_555 1_555
O2_2 Cu2 1_555 1_555
N4A Cu2 1_555 1_555
O7B Cu2 1_555 1_555
Cu2A N4 1_555 1_555
Cu2B O7 1_555 1_555
C1 C2 1_555 1_555
C8 C9 1_555 1_555
O5 C10 1_555 1_555
C10 C11 1_555 1_555
C17 C18 1_555 1_555
C22 C23 1_555 1_555
C27 C28 1_555 1_555
C27 N4 1_555 1_555
N6 O11 1_555 1_555

#END
