
#######################################################################
#
#                 Cambridge Crystallographic Data Centre
#                                CCDC 
#
#######################################################################
#
# If this CIF has been generated from an entry in the Cambridge 
# Structural Database, then it will include bibliographic, chemical, 
# crystal, experimental, refinement or atomic coordinate data resulting 
# from the CCDC's data processing and validation procedures.
#
#######################################################################

data_RAGTOK
_symmetry_cell_setting           triclinic
_symmetry_space_group_name_H-M   'P -1'
_symmetry_Int_Tables_number      2
_space_group_name_Hall           '-P 1'
loop_
_symmetry_equiv_pos_site_id
_symmetry_equiv_pos_as_xyz
1 x,y,z
2 -x,-y,-z
_cell_length_a                   10.0021(4)
_cell_length_b                   10.2765(4)
_cell_length_c                   11.7623(5)
_cell_angle_alpha                91.316(1)
_cell_angle_beta                 104.012(1)
_cell_angle_gamma                106.023(1)
_cell_volume                     1122.22
loop_
_atom_site_label
_atom_site_type_symbol
_atom_site_fract_x
_atom_site_fract_y
_atom_site_fract_z
Re1 Re 0.37964(2) 0.04613(2) 0.082440(19)
Re2 Re 0.47090(2) 0.13021(2) -0.102961(19)
Re3 Re 0.34272(2) -0.12923(2) -0.097190(19)
Yb1 Yb -0.12634(3) -0.50160(2) -0.41099(2)
Se1 Se 0.50624(7) 0.29304(6) 0.07341(6)
Se2 Se 0.43503(7) -0.04299(6) -0.27089(5)
Se3 Se 0.20511(6) 0.04476(6) -0.11320(5)
Se4 Se 0.73836(6) 0.20409(6) -0.08361(5)
O1 O -0.2641(6) -0.4843(6) -0.2809(5)
O2 O 0.0251(4) -0.6003(4) -0.4550(4)
O3 O -0.0542(5) -0.6544(6) -0.2664(4)
O4 O -0.2642(5) -0.7340(4) -0.4558(4)
O5 O 0.1510(5) -0.7300(4) -0.5738(4)
O6 O -0.3429(5) -0.5257(5) -0.5506(5)
N1 N 0.0681(6) -0.3562(6) -0.2647(5)
N2 N 0.4364(7) 0.3520(6) -0.2922(6)
N3 N 0.1852(7) 0.1283(7) 0.2425(6)
C1 C 0.0533(9) -0.8112(7) -0.5108(7)
H1 H -0.0431 -0.8460 -0.5624
H2 H 0.0861 -0.8874 -0.4813
C2 C 0.2483(7) 0.0966(7) 0.1821(6)
C3 C 0.4443(7) 0.2761(7) -0.2238(6)
C4 C -0.2094(7) -0.8379(6) -0.4002(6)
H3 H -0.2630 -0.8762 -0.3443
H4 H -0.2190 -0.9104 -0.4586
C5 C -0.0531(8) -0.7747(7) -0.3376(6)
H5 H -0.0181 -0.8381 -0.2857
C6 C 0.0541(7) -0.7158(6) -0.4091(6)
H6 H 0.1510 -0.6885 -0.3556
C7 C 0.1648(7) -0.2757(6) -0.2057(5)
Re1A Re 0.62036(2) -0.04613(2) -0.082440(19)
Re2A Re 0.52910(2) -0.13021(2) 0.102961(19)
Re3A Re 0.65728(2) 0.12923(2) 0.097190(19)
Yb1A Yb 0.12634(3) -0.49840(2) -0.58901(2)
Se1A Se 0.49376(7) -0.29304(6) -0.07341(6)
Se2A Se 0.56497(7) 0.04299(6) 0.27089(5)
Se4A Se 0.26164(6) -0.20409(6) 0.08361(5)
O2A O -0.0251(4) -0.3997(4) -0.5450(4)
O5A O -0.1510(5) -0.2700(4) -0.4262(4)
O7 O 0.1134(15) 0.3656(16) 0.0725(12)
O8 O 0.4498(6) 0.2275(6) 0.4623(6)
O9 O 0.7878(9) 0.5901(8) 0.1185(8)
loop_
_geom_bond_atom_site_label_1
_geom_bond_atom_site_label_2
_geom_bond_site_symmetry_1
_geom_bond_site_symmetry_2
Re1 Re2 1_555 1_555
Re2 Re3 1_555 1_555
Re3 Re1 1_555 1_555
Yb1 O1 1_555 1_555
Se1 Re1 1_555 1_555
Se2 Re2 1_555 1_555
Se3 Re1 1_555 1_555
Se4 Re2 1_555 1_555
O2 Yb1 1_555 1_555
O3 Yb1 1_555 1_555
O4 Yb1 1_555 1_555
O5 C1 1_555 1_555
O6 Yb1 1_555 1_555
N1 Yb1 1_555 1_555
N2 C3 1_555 1_555
N3 C2 1_555 1_555
C1 H1 1_555 1_555
H2 C1 1_555 1_555
C2 Re1 1_555 1_555
C3 Re2 1_555 1_555
C4 O4 1_555 1_555
H3 C4 1_555 1_555
H4 C4 1_555 1_555
C5 O3 1_555 1_555
H5 C5 1_555 1_555
C6 O2 1_555 1_555
H6 C6 1_555 1_555
C7 Re3 1_555 1_555
Re1A Re2 1_555 1_555
Re2A Re1 1_555 1_555
Re3A Re1 1_555 1_555
Yb1A O2 1_555 1_555
Se1A Re3 1_555 1_555
Se2A Re1 1_555 1_555
Se4A Re1 1_555 1_555
O2A Yb1 1_555 1_555
O5A Yb1 1_555 1_555
Re2 Se1 1_555 1_555
Re2 Se3 1_555 1_555
Re2 Re3A 1_555 1_555
Re3 Se2 1_555 1_555
Re3 Se3 1_555 1_555
Re3 Re1A 1_555 1_555
Re3 Re2A 1_555 1_555
Re3 Se4A 1_555 1_555
Se1 Re3A 1_555 1_555
Se2 Re1A 1_555 1_555
Se4 Re1A 1_555 1_555
Se4 Re3A 1_555 1_555
O5 Yb1A 1_555 1_555
N1 C7 1_555 1_555
C1 C6 1_555 1_555
C4 C5 1_555 1_555
C5 C6 1_555 1_555
Re1A Re2A 1_555 1_555
Re1A Re3A 1_555 1_555
Re1A Se1A 1_555 1_555
Re2A Re3A 1_555 1_555
Re2A Se1A 1_555 1_555
Re2A Se2A 1_555 1_555
Re2A Se4A 1_555 1_555
Re3A Se2A 1_555 1_555
Yb1A O2A 1_555 1_555

#END
