
#######################################################################
#
#                 Cambridge Crystallographic Data Centre
#                                CCDC 
#
#######################################################################
#
# If this CIF has been generated from an entry in the Cambridge 
# Structural Database, then it will include bibliographic, chemical, 
# crystal, experimental, refinement or atomic coordinate data resulting 
# from the CCDC's data processing and validation procedures.
#
#######################################################################

data_RAGTEA
_symmetry_cell_setting           triclinic
_symmetry_space_group_name_H-M   'P -1'
_symmetry_Int_Tables_number      2
_space_group_name_Hall           '-P 1'
loop_
_symmetry_equiv_pos_site_id
_symmetry_equiv_pos_as_xyz
1 x,y,z
2 -x,-y,-z
_cell_length_a                   10.308(2)
_cell_length_b                   10.505(2)
_cell_length_c                   11.154(2)
_cell_angle_alpha                88.211(3)
_cell_angle_beta                 81.830(3)
_cell_angle_gamma                78.501(4)
_cell_volume                     1171.56
loop_
_atom_site_label
_atom_site_type_symbol
_atom_site_fract_x
_atom_site_fract_y
_atom_site_fract_z
Re1 Re 0.14941(5) 0.46660(4) 0.58010(4)
Re2 Re -0.07415(5) 0.37799(4) 0.59796(4)
Re3 Re -0.08232(5) 0.62903(4) 0.61146(4)
Tb1 Tb -0.35282(6) 1.05424(5) 0.90830(5)
Se1 Se 0.15052(13) 0.22726(10) 0.56224(10)
Se2 Se 0.29305(13) 0.46096(11) 0.37587(10)
Se3 Se 0.13384(13) 0.70941(11) 0.59112(10)
Se4 Se -0.00625(13) 0.47494(11) 0.77761(10)
O1 O -0.4911(9) 1.2704(7) 0.9120(7)
O2 O -0.2754(9) 1.1765(7) 1.0698(7)
O3 O -0.1871(9) 0.9297(8) 1.0221(8)
O4 O -0.4269(10) 1.4016(8) 1.1202(8)
O5 O -0.4681(8) 1.0369(7) 1.0955(7)
O7 O -0.5624(9) 0.9211(8) 1.2861(7)
N1 N -0.2028(11) 0.1720(9) 0.7795(8)
C1 C -0.5293(14) 1.4562(11) 1.0494(10)
H1 H -0.6026 1.5125 1.1036
C2 C 0.3174(13) 0.4264(11) 0.6698(11)
C3 C -0.4198(13) 1.0635(11) 1.2027(9)
H2 H -0.4793 1.1427 1.2416
C4 C -0.2762(13) 1.0888(11) 1.1743(10)
H3 H -0.2538 1.1320 1.2452
N2 N 0.4115(13) 0.4001(10) 0.7176(10)
N3 N -0.2302(11) 0.8639(10) 0.7942(9)
C5 C -0.1776(13) 0.7788(11) 0.7303(9)
C6 C -0.1567(12) 0.2434(11) 0.7115(10)
C7 C -0.1677(13) 0.9750(12) 1.1358(10)
H4 H -0.0796 1.0007 1.1288
H5 H -0.1694 0.9049 1.1971
C8 C -0.4289(13) 0.9473(12) 1.2876(11)
H6 H -0.3597 0.8709 1.2584
H7 H -0.4166 0.9684 1.3706
C9 C -0.5865(13) 1.3476(11) 1.0022(11)
H8 H -0.6682 1.3856 0.9664
H9 H -0.6119 1.2910 1.0706
Re1A Re -0.14941(5) 0.53340(4) 0.41990(4)
Re2A Re 0.07415(5) 0.62201(4) 0.40204(4)
Re3A Re 0.08232(5) 0.37097(4) 0.38854(4)
Tb1A Tb 0.35282(6) -0.05424(5) 0.09170(5)
Tb1A_2 Tb -0.64718(6) 0.94576(5) 1.09170(5)
Tb1_2 Tb -0.35282(6) 0.05424(5) 0.90830(5)
Tb1A_3 Tb -0.64718(6) 1.94576(5) 1.09170(5)
Tb1A_4 Tb 0.35282(6) 0.94576(5) 0.09170(5)
Tb1_3 Tb 0.64718(6) 0.05424(5) -0.09170(5)
Se1A Se -0.15052(13) 0.77274(10) 0.43776(10)
Se2A Se -0.29305(13) 0.53904(11) 0.62413(10)
Se3A Se -0.13384(13) 0.29059(11) 0.40888(10)
Se4A Se 0.00625(13) 0.52506(11) 0.22239(10)
O1A O -0.5089(9) 1.7296(7) 1.0880(7)
O1A_2 O 0.4911(9) -0.2704(7) 0.0880(7)
O2A O -0.7246(9) 0.8235(7) 0.9302(7)
O2A_2 O 0.2754(9) -0.1765(7) -0.0698(7)
O3A O -0.8129(9) 1.0703(8) 0.9779(8)
O3A_2 O 0.1871(9) 0.0703(8) -0.0221(8)
O4A O -0.5731(10) 1.5984(8) 0.8798(8)
O5A O -0.5319(8) 0.9631(7) 0.9045(7)
O5_2 O 0.5319(8) 0.0369(7) 0.0955(7)
O5A_2 O 0.4681(8) -0.0369(7) -0.0955(7)
O7A O -0.4376(9) 1.0789(8) 0.7139(7)
O7_2 O 0.4376(9) -0.0789(8) 0.2861(7)
N1A N 0.2028(11) 0.8280(9) 0.2205(8)
N1_2 N -0.2028(11) 1.1720(9) 0.7795(8)
N1A_2 N 0.2028(11) -0.1720(9) 0.2205(8)
C1A C -0.4707(14) 1.5438(11) 0.9506(10)
H1A H -0.3974 1.4875 0.8964
C2A C -0.3174(13) 0.5736(11) 0.3302(11)
C3A C -0.5802(13) 0.9365(11) 0.7973(9)
H2A H -0.5207 0.8573 0.7584
C4A C -0.7238(13) 0.9112(11) 0.8257(10)
H3A H -0.7462 0.8680 0.7548
N2A N -0.4115(13) 0.5999(10) 0.2824(10)
N3A N 0.2302(11) 0.1361(10) 0.2058(9)
C5A C 0.1776(13) 0.2212(11) 0.2697(9)
C6A C 0.1567(12) 0.7566(11) 0.2885(10)
C7A C -0.8323(13) 1.0250(12) 0.8642(10)
H4A H -0.9204 0.9993 0.8712
H5A H -0.8306 1.0951 0.8029
C8A C -0.5711(13) 1.0527(12) 0.7124(11)
H6A H -0.6403 1.1291 0.7416
H7A H -0.5834 1.0316 0.6294
C9A C -0.4135(13) 1.6524(11) 0.9978(11)
H8A H -0.3318 1.6144 1.0336
H9A H -0.3881 1.7090 0.9294
O6 O -0.0207(10) 0.2570(9) 1.0369(9)
O8 O 0.4353(11) 0.7836(11) 0.4987(9)
loop_
_geom_bond_atom_site_label_1
_geom_bond_atom_site_label_2
_geom_bond_site_symmetry_1
_geom_bond_site_symmetry_2
Re1 Re2 1_555 1_555
Re2 Re3 1_555 1_555
Re3 Re1 1_555 1_555
Tb1 O1 1_555 1_555
Se1 Re1 1_555 1_555
Se2 Re1 1_555 1_555
Se3 Re1 1_555 1_555
Se4 Re1 1_555 1_555
O1 C9 1_555 1_555
O2 Tb1 1_555 1_555
O3 Tb1 1_555 1_555
O4 C1 1_555 1_555
O5 Tb1 1_555 1_555
O7 C8 1_555 1_555
N1 C6 1_555 1_555
C1 H1 1_555 1_555
C2 Re1 1_555 1_555
C3 O5 1_555 1_555
H2 C3 1_555 1_555
C4 O2 1_555 1_555
H3 C4 1_555 1_555
N2 C2 1_555 1_555
N3 Tb1 1_555 1_555
C5 Re3 1_555 1_555
C6 Re2 1_555 1_555
C7 O3 1_555 1_555
H4 C7 1_555 1_555
H5 C7 1_555 1_555
C8 C3 1_555 1_555
H6 C8 1_555 1_555
H7 C8 1_555 1_555
C9 C1 1_555 1_555
H8 C9 1_555 1_555
H9 C9 1_555 1_555
Re1A Re2 1_555 1_555
Re2A Re1 1_555 1_555
Re3A Re1 1_555 1_555
Tb1A Tb1_3 1_555 1_555
Tb1A_2 Tb1 1_555 1_555
Tb1_2 N1 1_555 1_555
Tb1A_3 O1A 1_555 1_555
Tb1A_4 N1A 1_555 1_555
Tb1_3 O5_2 1_555 1_555
Se1A Re3 1_555 1_555
Se2A Re2 1_555 1_555
Se3A Re2 1_555 1_555
Se4A Re1A 1_555 1_555
O1A C9A 1_555 1_555
O1A_2 Tb1A 1_555 1_555
O2A Tb1A_2 1_555 1_555
O2A_2 Tb1A 1_555 1_555
O3A Tb1A_2 1_555 1_555
O3A_2 Tb1A 1_555 1_555
O4A C1A 1_555 1_555
O5A Tb1 1_555 1_555
O5_2 Tb1A 1_555 1_555
O5A_2 Tb1A 1_555 1_555
O7A Tb1 1_555 1_555
O7_2 Tb1A 1_555 1_555
N1A C6A 1_555 1_555
N1_2 Tb1 1_555 1_555
N1A_2 Tb1A 1_555 1_555
C1A C1 1_555 1_555
H1A C1A 1_555 1_555
C2A Re1A 1_555 1_555
C3A O5A 1_555 1_555
H2A C3A 1_555 1_555
C4A O2A 1_555 1_555
H3A C4A 1_555 1_555
N2A C2A 1_555 1_555
N3A Tb1A 1_555 1_555
C5A Re3A 1_555 1_555
C6A Re2A 1_555 1_555
C7A O3A 1_555 1_555
H4A C7A 1_555 1_555
H5A C7A 1_555 1_555
C8A O7A 1_555 1_555
H6A C8A 1_555 1_555
H7A C8A 1_555 1_555
C9A C1A 1_555 1_555
H8A C9A 1_555 1_555
H9A C9A 1_555 1_555
Re2 Se1 1_555 1_555
Re2 Se4 1_555 1_555
Re2 Re3A 1_555 1_555
Re3 Se3 1_555 1_555
Re3 Se4 1_555 1_555
Re3 Re1A 1_555 1_555
Re3 Re2A 1_555 1_555
Re3 Se2A 1_555 1_555
Se1 Re3A 1_555 1_555
Se2 Re2A 1_555 1_555
Se2 Re3A 1_555 1_555
Se3 Re2A 1_555 1_555
O5 Tb1A_2 1_555 1_555
O7 Tb1A_2 1_555 1_555
C3 C4 1_555 1_555
C4 C7 1_555 1_555
N3 C5 1_555 1_555
Re1A Re2A 1_555 1_555
Re1A Re3A 1_555 1_555
Re1A Se1A 1_555 1_555
Re1A Se2A 1_555 1_555
Re1A Se3A 1_555 1_555
Re2A Re3A 1_555 1_555
Re2A Se1A 1_555 1_555
Re2A Se4A 1_555 1_555
Re3A Se3A 1_555 1_555
Re3A Se4A 1_555 1_555
Tb1A_2 O5A 1_555 1_555
Tb1_3 O5A_2 1_555 1_555
C3A C4A 1_555 1_555
C3A C8A 1_555 1_555
C4A C7A 1_555 1_555
N3A C5A 1_555 1_555

#END
