
#######################################################################
#
#                 Cambridge Crystallographic Data Centre
#                                CCDC 
#
#######################################################################
#
# If this CIF has been generated from an entry in the Cambridge 
# Structural Database, then it will include bibliographic, chemical, 
# crystal, experimental, refinement or atomic coordinate data resulting 
# from the CCDC's data processing and validation procedures.
#
#######################################################################

data_RAGXUS
_symmetry_cell_setting           monoclinic
_symmetry_space_group_name_H-M   'P 21/c'
_symmetry_Int_Tables_number      14
_space_group_name_Hall           '-P 2ybc'
loop_
_symmetry_equiv_pos_site_id
_symmetry_equiv_pos_as_xyz
1 x,y,z
2 x,1/2-y,1/2+z
3 -x,-y,-z
4 -x,1/2+y,1/2-z
_cell_length_a                   10.8923(2)
_cell_length_b                   10.8488(1)
_cell_length_c                   23.4237(2)
_cell_angle_alpha                90
_cell_angle_beta                 100.45
_cell_angle_gamma                90
_cell_volume                     2722.03
loop_
_atom_site_label
_atom_site_type_symbol
_atom_site_fract_x
_atom_site_fract_y
_atom_site_fract_z
O1 O 0.5487(4) 1.0747(4) 0.1900(2)
O2 O 0.5431(4) 1.1534(5) 0.0730(2)
O3 O 0.3269(3) 1.0646(4) 0.1072(2)
O4 O 0.6385(4) 0.9191(5) 0.1129(2)
O5 O 0.4364(4) 0.8546(5) 0.1614(2)
O6 O 0.4268(4) 0.9282(5) 0.0398(2)
O7 O 0.0901(4) 1.0870(5) 0.0424(2)
O8 O 0.1821(4) 0.8609(5) 0.0698(2)
O9 O 0.1916(4) 0.9350(5) -0.0395(2)
O10 O 0.6885(4) 0.8620(4) 0.0070(2)
O11 O 0.1614(5) 0.9246(5) -0.1603(2)
O12 O 0.1042(4) 1.1445(5) -0.1147(2)
O13 O 0.5097(4) 0.6820(6) 0.0187(3)
N1 N 1.3711(5) 0.4735(5) 0.0852(2)
N2 N 0.7154(5) 0.4679(6) 0.0741(2)
N3 N 0.7648(5) 0.2676(5) 0.2567(2)
N4 N 0.7712(5) 0.9194(5) 0.2655(2)
C1 C 1.3057(6) 0.5764(7) 0.0825(3)
H1 H 1.3472(6) 0.6510(7) 0.0814(3)
C2 C 1.1765(6) 0.5783(7) 0.0810(3)
H2 H 1.1337(6) 0.6528(7) 0.0789(3)
C3 C 1.1136(5) 0.4682(6) 0.0829(2)
C4 C 1.1831(5) 0.3614(6) 0.0882(3)
H3 H 1.1447(5) 0.2856(6) 0.0908(3)
C5 C 1.3115(5) 0.3679(6) 0.0895(3)
H4 H 1.3575(5) 0.2952(6) 0.0937(3)
C6 C 0.7790(6) 0.3635(8) 0.0753(4)
H5 H 1.2646(6) 0.7104(8) -0.0746(4)
C7 C 0.9077(6) 0.3585(7) 0.0777(3)
H6 H 1.0521(6) 0.7172(7) -0.0779(3)
C8 C 0.9749(5) 0.4666(6) 0.0797(2)
C9 C 0.9090(6) 0.5751(7) 0.0782(3)
H7 H 0.9506(6) 0.6501(7) 0.0786(3)
C10 C 0.7808(6) 0.5735(7) 0.0760(3)
H8 H 0.7387(6) 0.6480(7) 0.0759(3)
C11 C 0.8475(6) 0.3270(6) 0.2969(2)
H9 H 0.9028(6) 0.2804(6) 0.3233(2)
C12 C 0.8543(6) 0.4544(6) 0.3010(3)
H10 H 0.9145(6) 0.4920(6) 0.3288(3)
C13 C 0.7696(6) 0.5255(6) 0.2628(3)
C14 C 0.6851(7) 0.4630(7) 0.2218(3)
H11 H 0.6280(7) 0.5071(7) 0.1952(3)
C15 C 0.6843(7) 0.3379(6) 0.2200(3)
H12 H 0.6256(7) 0.2989(6) 0.1920(3)
C16 C 0.6664(6) 0.8547(6) 0.2621(3)
H13 H 0.4082(6) 0.1027(6) -0.2606(3)
C17 C 0.6626(6) 0.7276(6) 0.2607(3)
H14 H 0.4136(6) 0.3132(6) -0.2562(3)
C18 C 0.7725(6) 0.6609(6) 0.2660(3)
C19 C 0.8833(6) 0.7278(6) 0.2730(3)
H15 H 0.9596(6) 0.6870(6) 0.2782(3)
C20 C 0.8792(6) 0.8541(6) 0.2722(3)
H16 H 0.9541(6) 0.8972(6) 0.2764(3)
Mo1 Mo 0.48158(5) 0.98611(5) 0.13196(2)
Mo2 Mo 0.21552(5) 0.99641(5) 0.04087(2)
Mo3 Mo 0.79367(5) 0.97502(6) 0.10407(2)
Mo4 Mo 0.52427(5) 0.83408(5) -0.00010(2)
Cu1 Cu 1.53921(7) 0.47507(9) 0.07150(4)
Cu2 Cu 0.76158(8) 0.09259(8) 0.25160(4)
Cu1_2 Cu 0.53921(7) 0.47507(9) 0.07150(4)
N1_2 N 0.3711(5) 0.4735(5) 0.0852(2)
Cu1B Cu 0.46079(7) 0.52493(9) -0.07150(4)
O13B O 0.4903(4) 0.3180(6) -0.0187(3)
Cu2_2 Cu 0.76158(8) 1.09259(8) 0.25160(4)
Mo4B Mo 0.47573(5) 1.16592(5) 0.00010(2)
Mo3B Mo 0.20633(5) 1.02498(6) -0.10407(2)
O4B O 0.3615(4) 1.0809(5) -0.1129(2)
Mo1B Mo 0.51842(5) 1.01389(5) -0.13196(2)
O1B O 0.4513(4) 0.9253(4) -0.1900(2)
Cu2B Cu 0.23842(8) 0.90741(8) -0.25160(4)
N3B N 0.2352(5) 0.7324(5) -0.2567(2)
C11B C 0.1525(6) 0.6730(6) -0.2969(2)
H9B H 0.0972(6) 0.7196(6) -0.3233(2)
C12B C 0.1457(6) 0.5456(6) -0.3010(3)
H10B H 0.0855(6) 0.5080(6) -0.3288(3)
C13B C 0.2304(6) 0.4745(6) -0.2628(3)
C14B C 0.3149(7) 0.5370(7) -0.2218(3)
H11B H 0.3720(7) 0.4929(7) -0.1952(3)
C15B C 0.3157(7) 0.6621(6) -0.2200(3)
H12B H 0.3744(7) 0.7011(6) -0.1920(3)
C18B C 0.2275(6) 0.3391(6) -0.2660(3)
C17B C 0.3374(6) 0.2724(6) -0.2607(3)
C16B C 0.3336(6) 0.1453(6) -0.2621(3)
N4B N 0.2288(5) 0.0806(5) -0.2655(2)
C20B C 0.1208(6) 0.1459(6) -0.2722(3)
C19B C 0.1167(6) 0.2722(6) -0.2730(3)
H15B H 0.0404(6) 0.3130(6) -0.2782(3)
H16B H 0.0459(6) 0.1028(6) -0.2764(3)
Cu2B_2 Cu 0.23842(8) -0.09259(8) -0.25160(4)
N4B_2 N 0.2288(5) 1.0806(5) -0.2655(2)
O2B O 0.4569(4) 0.8466(5) -0.0730(2)
O3B O 0.6731(3) 0.9354(4) -0.1072(2)
Mo2B Mo 0.78448(5) 1.00359(5) -0.04087(2)
O6B O 0.5732(4) 1.0718(5) -0.0398(2)
O7B O 0.9099(4) 0.9130(5) -0.0424(2)
O8B O 0.8179(4) 1.1391(5) -0.0698(2)
O9B O 0.8084(4) 1.0650(5) 0.0395(2)
O5B O 0.5636(4) 1.1454(5) -0.1614(2)
O10B O 0.3115(4) 1.1380(4) -0.0070(2)
O13B_2 O 0.4903(4) 1.3180(6) -0.0187(3)
Cu1B_2 Cu 0.46079(7) 1.52493(9) -0.07150(4)
O11B O 0.8386(5) 1.0754(5) 0.1603(2)
N3_2 N 0.7648(5) 1.2676(5) 0.2567(2)
H13B H 0.5918(6) 0.8973(6) 0.2606(3)
H14B H 0.5864(6) 0.6868(6) 0.2562(3)
N1B N 0.6289(5) 0.5265(5) -0.0852(2)
C1B C 0.6943(6) 0.4236(7) -0.0825(3)
H1B H 0.6528(6) 0.3490(7) -0.0814(3)
C2B C 0.8235(6) 0.4217(7) -0.0810(3)
H2B H 0.8663(6) 0.3472(7) -0.0789(3)
C3B C 0.8864(5) 0.5318(6) -0.0829(2)
C4B C 0.8169(5) 0.6386(6) -0.0882(3)
H3B H 0.8553(5) 0.7144(6) -0.0908(3)
C5B C 0.6885(5) 0.6321(6) -0.0895(3)
H4B H 0.6425(5) 0.7048(6) -0.0937(3)
C8B C 1.0251(5) 0.5334(6) -0.0797(2)
C7B C 1.0923(6) 0.6415(7) -0.0777(3)
C6B C 1.2210(6) 0.6365(8) -0.0753(4)
N2B N 1.2846(5) 0.5321(6) -0.0741(2)
C10B C 1.2192(6) 0.4265(7) -0.0760(3)
C9B C 1.0910(6) 0.4249(7) -0.0782(3)
H7B H 1.0494(6) 0.3499(7) -0.0786(3)
H8B H 1.2613(6) 0.3520(7) -0.0759(3)
Cu1B_3 Cu 1.46079(7) 0.52493(9) -0.07150(4)
N2B_2 N 0.2846(5) 0.5321(6) -0.0741(2)
H5B H 0.7354(6) 0.2896(8) 0.0746(4)
H6B H 0.9479(6) 0.2828(7) 0.0779(3)
O12B O 0.8958(4) 0.8555(5) 0.1147(2)
loop_
_geom_bond_atom_site_label_1
_geom_bond_atom_site_label_2
_geom_bond_site_symmetry_1
_geom_bond_site_symmetry_2
O1 Mo1 1_555 1_555
O2 Mo1 1_555 1_555
O3 Mo1 1_555 1_555
O4 Mo1 1_555 1_555
O5 Mo1 1_555 1_555
O6 Mo1 1_555 1_555
O7 Mo2 1_555 1_555
O8 Mo2 1_555 1_555
O9 Mo2 1_555 1_555
O10 Mo4 1_555 1_555
O11 Mo3B 1_555 1_555
O12 Mo3B 1_555 1_555
O13 Mo4 1_555 1_555
N1 C1 1_555 1_555
N2 C6 1_555 1_555
N3 C11 1_555 1_555
N4 C16 1_555 1_555
C1 H1 1_555 1_555
C2 C1 1_555 1_555
H2 C2 1_555 1_555
C3 C2 1_555 1_555
C4 C3 1_555 1_555
H3 C4 1_555 1_555
C5 N1 1_555 1_555
H4 C5 1_555 1_555
C6 C7 1_555 1_555
H5 C6B 1_555 1_555
C7 C8 1_555 1_555
H6 C7B 1_555 1_555
C8 C3 1_555 1_555
C9 C8 1_555 1_555
H7 C9 1_555 1_555
C10 N2 1_555 1_555
H8 C10 1_555 1_555
C11 H9 1_555 1_555
C12 C11 1_555 1_555
H10 C12 1_555 1_555
C13 C12 1_555 1_555
C14 C13 1_555 1_555
H11 C14 1_555 1_555
C15 N3 1_555 1_555
H12 C15 1_555 1_555
C16 C17 1_555 1_555
H13 C16B 1_555 1_555
C17 C18 1_555 1_555
H14 C17B 1_555 1_555
C18 C13 1_555 1_555
C19 C18 1_555 1_555
H15 C19 1_555 1_555
C20 N4 1_555 1_555
H16 C20 1_555 1_555
Mo2 O3 1_555 1_555
Mo3 O4 1_555 1_555
Mo4 O6 1_555 1_555
Cu1 N1 1_555 1_555
Cu2 N3 1_555 1_555
Cu1_2 O13 1_555 1_555
N1_2 Cu1_2 1_555 1_555
Cu1B Cu1_2 1_555 1_555
O13B Cu1B 1_555 1_555
Cu2_2 O1 1_555 1_555
Mo4B O2 1_555 1_555
Mo3B O9 1_555 1_555
O4B Mo3B 1_555 1_555
Mo1B O4B 1_555 1_555
O1B Mo1B 1_555 1_555
Cu2B O11 1_555 1_555
N3B Cu2B 1_555 1_555
C11B N3B 1_555 1_555
H9B C11B 1_555 1_555
C12B C11B 1_555 1_555
H10B C12B 1_555 1_555
C13B C12B 1_555 1_555
C14B C13B 1_555 1_555
H11B C14B 1_555 1_555
C15B N3B 1_555 1_555
H12B C15B 1_555 1_555
C18B C13B 1_555 1_555
C17B C18B 1_555 1_555
C16B C17B 1_555 1_555
N4B C16B 1_555 1_555
C20B N4B 1_555 1_555
C19B C18B 1_555 1_555
H15B C19B 1_555 1_555
H16B C20B 1_555 1_555
Cu2B_2 N4B 1_555 1_555
N4B_2 Cu2B 1_555 1_555
O2B Mo4 1_555 1_555
O3B Mo1B 1_555 1_555
Mo2B O10 1_555 1_555
O6B Mo4B 1_555 1_555
O7B Mo2B 1_555 1_555
O8B Mo2B 1_555 1_555
O9B Mo3 1_555 1_555
O5B Mo1B 1_555 1_555
O10B Mo2 1_555 1_555
O13B_2 Mo4B 1_555 1_555
Cu1B_2 O13B_2 1_555 1_555
O11B Mo3 1_555 1_555
N3_2 Cu2_2 1_555 1_555
H13B C16 1_555 1_555
H14B C17 1_555 1_555
N1B Cu1B 1_555 1_555
C1B N1B 1_555 1_555
H1B C1B 1_555 1_555
C2B C1B 1_555 1_555
H2B C2B 1_555 1_555
C3B C2B 1_555 1_555
C4B C3B 1_555 1_555
H3B C4B 1_555 1_555
C5B N1B 1_555 1_555
H4B C5B 1_555 1_555
C8B C3B 1_555 1_555
C7B C8B 1_555 1_555
C6B C7B 1_555 1_555
N2B C6B 1_555 1_555
C10B N2B 1_555 1_555
C9B C8B 1_555 1_555
H7B C9B 1_555 1_555
H8B C10B 1_555 1_555
Cu1B_3 Cu1 1_555 1_555
N2B_2 Cu1B 1_555 1_555
H5B C6 1_555 1_555
H6B C7 1_555 1_555
O12B Mo3 1_555 1_555
O6 Mo2 1_555 1_555
N2 Cu1_2 1_555 1_555
N4 Cu2_2 1_555 1_555
C4 C5 1_555 1_555
C9 C10 1_555 1_555
C14 C15 1_555 1_555
C19 C20 1_555 1_555
Cu2_2 O11B 1_555 1_555
Mo4B O10B 1_555 1_555
Mo1B O2B 1_555 1_555
Mo1B O6B 1_555 1_555
O1B Cu2B 1_555 1_555
C14B C15B 1_555 1_555
C20B C19B 1_555 1_555
O3B Mo2B 1_555 1_555
Mo2B O6B 1_555 1_555
Mo2B O9B 1_555 1_555
C4B C5B 1_555 1_555
N2B Cu1B_3 1_555 1_555
C10B C9B 1_555 1_555

#END
