
#######################################################################
#
#                 Cambridge Crystallographic Data Centre
#                                CCDC 
#
#######################################################################
#
# If this CIF has been generated from an entry in the Cambridge 
# Structural Database, then it will include bibliographic, chemical, 
# crystal, experimental, refinement or atomic coordinate data resulting 
# from the CCDC's data processing and validation procedures.
#
#######################################################################

data_RAGYED
_symmetry_cell_setting           monoclinic
_symmetry_space_group_name_H-M   'I 2/a'
_symmetry_Int_Tables_number      15
_space_group_name_Hall           '-I 2ya'
loop_
_symmetry_equiv_pos_site_id
_symmetry_equiv_pos_as_xyz
1 x,y,z
2 1/2+x,1/2+y,1/2+z
3 1/2+x,-y,z
4 x,1/2-y,1/2+z
5 -x,-y,-z
6 1/2-x,1/2-y,1/2-z
7 1/2-x,y,-z
8 -x,1/2+y,1/2-z
_cell_length_a                   21.797(2)
_cell_length_b                   3.7557(4)
_cell_length_c                   24.425(4)
_cell_angle_alpha                90
_cell_angle_beta                 108.823(2)
_cell_angle_gamma                90
_cell_volume                     1892.57
loop_
_atom_site_label
_atom_site_type_symbol
_atom_site_fract_x
_atom_site_fract_y
_atom_site_fract_z
Mo1 Mo 0.94197(6) 0.0821(3) 0.33245(5)
Mo2 Mo 0.92672(9) -0.4213(5) 0.21808(8)
O1 O 0.9658(5) 0.0746(34) 0.4052(4)
O2 O 0.8571(5) 0.0749(33) 0.3123(6)
O3 O 0.9503(5) -0.4214(28) 0.3165(5)
O4 O 1.0483(5) 0.0797(29) 0.3412(5)
O5 O 0.9441(6) 0.0818(29) 0.2436(4)
O6 O 0.8494(10) -0.4211(24) 0.1960(8)
O3_2 O 0.9503(5) 0.5786(28) 0.3165(5)
Mo1_2 Mo 0.94197(6) 1.0821(3) 0.33245(5)
Mo2_2 Mo 0.92672(9) 0.5787(5) 0.21808(8)
O4G O 0.9517(5) -0.4203(29) 0.1588(5)
O5_2 O 0.9441(6) -0.9182(29) 0.2436(4)
O1_2 O 0.9658(5) 1.0746(34) 0.4052(4)
O2_2 O 0.8571(5) 1.0749(33) 0.3123(6)
O6_2 O 0.8494(10) 0.5789(24) 0.1960(8)
Mo1_3 Mo 0.94197(6) -0.9179(3) 0.33245(5)
Mo2G Mo 1.07328(9) 0.0787(5) 0.28192(8)
O3_3 O 0.9503(5) 1.5786(28) 0.3165(5)
O4_2 O 1.0483(5) 1.0797(29) 0.3412(5)
O5_3 O 0.9441(6) 1.0818(29) 0.2436(4)
O4G_2 O 0.9517(5) 0.5797(29) 0.1588(5)
Mo1G Mo 1.05803(6) -0.4179(3) 0.16755(5)
Mo2_3 Mo 0.92672(9) -1.4213(5) 0.21808(8)
Cu1 Cu 1.0000 0.5000 0.5000
N1 N 0.9120(5) 0.5115(33) 0.4980(5)
C1 C 0.8980(6) 0.4177(41) 0.5461(6)
H1 H 0.9313(6) 0.3456(41) 0.5788(6)
C2 C 0.8339(6) 0.4265(39) 0.5479(6)
H2 H 0.8258(6) 0.3664(39) 0.5818(6)
C3 C 0.7838(5) 0.5231(32) 0.4999(5)
C4 C 0.7992(6) 0.6128(41) 0.4498(6)
H3 H 0.7665(6) 0.6735(41) 0.4159(6)
C5 C 0.8622(7) 0.6101(49) 0.4515(7)
H4 H 0.8714(7) 0.6805(49) 0.4184(7)
C3F C 0.7162(5) 0.5231(32) 0.5001(5)
C2F C 0.6661(6) 0.4265(39) 0.4521(6)
C1F C 0.6020(6) 0.4177(41) 0.4539(6)
N1F N 0.5880(5) 0.5115(33) 0.5020(5)
C5F C 0.6378(7) 0.6101(49) 0.5485(7)
C4F C 0.7008(6) 0.6128(41) 0.5502(6)
H3F H 0.7335(6) 0.6735(41) 0.5841(6)
H4F H 0.6286(7) 0.6805(49) 0.5816(7)
H1F H 0.5687(6) 0.3456(41) 0.4212(6)
H2F H 0.6742(6) 0.3664(39) 0.4182(6)
N1D N 1.0880(5) 0.4885(33) 0.5020(5)
Cu1B Cu 0.5000 0.5000 0.5000
O7 O 1.1960(20) 0.0678(35) 0.2529(19)
loop_
_geom_bond_atom_site_label_1
_geom_bond_atom_site_label_2
_geom_bond_site_symmetry_1
_geom_bond_site_symmetry_2
Mo1 O1 1_555 1_555
Mo2 O3 1_555 1_555
Cu1 N1 1_555 1_555
O2 Mo1 1_555 1_555
O3 Mo1 1_555 1_555
O4 Mo1 1_555 1_555
O5 Mo1 1_555 1_555
O6 Mo2 1_555 1_555
N1 C1 1_555 1_555
C1 H1 1_555 1_555
C2 C1 1_555 1_555
H2 C2 1_555 1_555
C3 C2 1_555 1_555
C4 C3 1_555 1_555
H3 C4 1_555 1_555
C5 N1 1_555 1_555
H4 C5 1_555 1_555
C3F C3 1_555 1_555
C2F C3F 1_555 1_555
C1F C2F 1_555 1_555
N1F C1F 1_555 1_555
C5F N1F 1_555 1_555
C4F C3F 1_555 1_555
H3F C4F 1_555 1_555
H4F C5F 1_555 1_555
H1F C1F 1_555 1_555
H2F C2F 1_555 1_555
O3_2 Mo1 1_555 1_555
Mo1_2 O3_2 1_555 1_555
Mo2_2 O5 1_555 1_555
O4G Mo2 1_555 1_555
O5_2 Mo2 1_555 1_555
O1_2 Mo1_2 1_555 1_555
O2_2 Mo1_2 1_555 1_555
O6_2 Mo2_2 1_555 1_555
N1D Cu1 1_555 1_555
Mo1_3 O3 1_555 1_555
Mo2G O4 1_555 1_555
Cu1B N1F 1_555 1_555
O3_3 Mo1_2 1_555 1_555
O4_2 Mo1_2 1_555 1_555
O5_3 Mo1_2 1_555 1_555
O4G_2 Mo2_2 1_555 1_555
Mo1G O4G 1_555 1_555
Mo2_3 O5_2 1_555 1_555
Mo2 O5 1_555 1_555
C4 C5 1_555 1_555
C5F C4F 1_555 1_555
O3_2 Mo2_2 1_555 1_555
Mo2_2 O5_3 1_555 1_555
O5_2 Mo1_3 1_555 1_555

#END
