
#######################################################################
#
#                 Cambridge Crystallographic Data Centre
#                                CCDC 
#
#######################################################################
#
# If this CIF has been generated from an entry in the Cambridge 
# Structural Database, then it will include bibliographic, chemical, 
# crystal, experimental, refinement or atomic coordinate data resulting 
# from the CCDC's data processing and validation procedures.
#
#######################################################################

data_RAGYAB
_symmetry_cell_setting           tetragonal
_symmetry_space_group_name_H-M   'P 41'
_symmetry_Int_Tables_number      76
_space_group_name_Hall           'P 4w'
loop_
_symmetry_equiv_pos_site_id
_symmetry_equiv_pos_as_xyz
1 x,y,z
2 -x,-y,1/2+z
3 -y,x,1/4+z
4 y,-x,3/4+z
_cell_length_a                   8.5033(2)
_cell_length_b                   8.5033(2)
_cell_length_c                   30.9393(11)
_cell_angle_alpha                90
_cell_angle_beta                 90
_cell_angle_gamma                90
_cell_volume                     2237.1
loop_
_atom_site_label
_atom_site_type_symbol
_atom_site_fract_x
_atom_site_fract_y
_atom_site_fract_z
Ba1 Ba 0.50239(4) -0.49614(3) 0.422220(5)
Ge1 Ge -0.00136(6) -0.99681(5) 0.501600(12)
Ge2 Ge 0.00027(5) -1.00039(5) 0.349930(12)
O1 O 0.1686(3) -1.1461(3) 0.35235(9)
O2 O 0.2439(3) -1.3573(3) 0.38881(10)
O3 O -0.1058(3) -1.1314(3) 0.38739(9)
O4 O 0.0976(3) -1.1300(3) 0.46401(9)
O5 O -0.1735(3) -1.1412(3) 0.49915(9)
O6 O -0.2469(3) -1.3634(4) 0.46774(10)
O7 O -0.1686(3) -0.8537(3) 0.35236(9)
O8 O -0.2381(3) -0.6337(3) 0.38538(9)
O9 O 0.1040(3) -0.8722(3) 0.38809(8)
O10 O -0.1005(3) -0.8631(3) 0.46437(8)
O11 O 0.1711(3) -0.8540(3) 0.49970(9)
O12 O 0.2533(3) -0.6399(3) 0.46489(10)
O13 O -0.0937(3) -1.0966(3) 0.30022(8)
O14 O 0.0968(3) -0.9008(3) 0.30081(9)
O15 O 0.3774(4) -0.2877(5) 0.47930(12)
O16 O 0.5952(4) -0.7645(4) 0.46638(12)
O17 O 0.5845(4) -0.2098(4) 0.38307(13)
O18 O 0.4512(6) -0.5528(6) 0.33414(19)
C1 C 0.1474(4) -1.2571(4) 0.37985(13)
C2 C -0.0147(4) -1.2597(4) 0.40118(11)
H1 H -0.0685 -1.3571 0.3929
C3 C 0.0079(4) -1.2593(4) 0.45059(12)
H2 H 0.0640 -1.3556 0.4587
C4 C -0.1516(4) -1.2595(5) 0.47318(12)
C5 C -0.1436(4) -0.7383(4) 0.37891(12)
C6 C 0.0166(4) -0.7396(4) 0.40101(12)
H3 H 0.0741 -0.6448 0.3923
C7 C -0.0071(4) -0.7352(4) 0.44999(12)
H4 H -0.0603 -0.6369 0.4576
C8 C 0.1525(4) -0.7383(5) 0.47191(12)
H5 H -0.1912 -1.0993 0.2987
H6 H 0.1838 -0.9040 0.3004
H7 H 0.4171 -0.2552 0.5074
H8 H 0.3008 -0.2015 0.4780
H9 H 0.5763 -0.7747 0.4905
H10 H 0.6980 -0.8017 0.4632
H11 H 0.5376 -0.1094 0.3956
H12 H 0.6588 -0.1509 0.3876
H13 H 0.3638 -0.5246 0.3220
Ba1_2 Ba 0.50239(4) -1.49614(3) 0.422220(5)
Ba1_3 Ba -0.49761(4) -0.49614(3) 0.422220(5)
Ba1_4 Ba -0.49761(4) -1.49614(3) 0.422220(5)
Ge1C Ge 0.00319(5) -0.99864(6) 0.251600(12)
O2_2 O 0.2439(3) -0.3573(3) 0.38881(10)
O6_2 O 0.7531(3) -0.3634(4) 0.46774(10)
O8_2 O 0.7619(3) -0.6337(3) 0.38538(9)
O13B O 0.0966(3) -1.0937(3) 0.55022(8)
O14B O -0.0992(3) -0.9032(3) 0.55081(9)
O19 O 0.8345(4) 0.4543(4) 0.29627(11)
H14 H 0.8351 0.3434 0.2942
O20 O 1.1546(4) -0.4636(4) 0.29466(12)
H15 H 1.0495 -0.4755 0.2955
H16 H 1.1714 -0.3595 0.2835
O21 O 0.1533(4) 0.5937(3) 0.54512(12)
H17 H 0.1852 0.5871 0.5739
H18 H 0.2408 0.5756 0.5259
O22 O 0.8721(5) 0.4141(4) 0.55740(18)
H19 H 0.9623 0.4846 0.5518
O23 O 1.4225(5) 0.0722(7) 0.40213(16)
H20 H 1.4585 0.1395 0.4245
loop_
_geom_bond_atom_site_label_1
_geom_bond_atom_site_label_2
_geom_bond_site_symmetry_1
_geom_bond_site_symmetry_2
Ba1 O12 1_555 1_555
Ge1 O4 1_555 1_555
Ge2 O1 1_555 1_555
O1 C1 1_555 1_555
O2 C1 1_555 1_555
O3 Ge2 1_555 1_555
O4 C3 1_555 1_555
O5 Ge1 1_555 1_555
O6 C4 1_555 1_555
O7 Ge2 1_555 1_555
O8 C5 1_555 1_555
O9 Ge2 1_555 1_555
O10 Ge1 1_555 1_555
O11 Ge1 1_555 1_555
O12 C8 1_555 1_555
O13 Ge2 1_555 1_555
O14 Ge2 1_555 1_555
O15 Ba1 1_555 1_555
O16 Ba1 1_555 1_555
O17 Ba1 1_555 1_555
O18 Ba1 1_555 1_555
C1 C2 1_555 1_555
C2 O3 1_555 1_555
H1 C2 1_555 1_555
C3 C2 1_555 1_555
H2 C3 1_555 1_555
C4 O5 1_555 1_555
C5 O7 1_555 1_555
C6 O9 1_555 1_555
H3 C6 1_555 1_555
C7 O10 1_555 1_555
H4 C7 1_555 1_555
C8 O11 1_555 1_555
O19 H14 1_555 1_555
O20 H15 1_555 1_555
O21 H17 1_555 1_555
O22 H19 1_555 1_555
O23 H20 1_555 1_555
H5 O13 1_555 1_555
H6 O14 1_555 1_555
H7 O15 1_555 1_555
H8 O15 1_555 1_555
H9 O16 1_555 1_555
H10 O16 1_555 1_555
H11 O17 1_555 1_555
H12 O17 1_555 1_555
H13 O18 1_555 1_555
H16 O20 1_555 1_555
H18 O21 1_555 1_555
Ba1_2 O2 1_555 1_555
Ba1_3 O8 1_555 1_555
Ba1_4 O6 1_555 1_555
Ge1C O13 1_555 1_555
O2_2 Ba1 1_555 1_555
O6_2 Ba1 1_555 1_555
O8_2 Ba1 1_555 1_555
O13B Ge1 1_555 1_555
O14B Ge1 1_555 1_555
O14 Ge1C 1_555 1_555
C3 C4 1_555 1_555
C5 C6 1_555 1_555
C6 C7 1_555 1_555
C7 C8 1_555 1_555

#END
