
#######################################################################
#
#                 Cambridge Crystallographic Data Centre
#                                CCDC 
#
#######################################################################
#
# If this CIF has been generated from an entry in the Cambridge 
# Structural Database, then it will include bibliographic, chemical, 
# crystal, experimental, refinement or atomic coordinate data resulting 
# from the CCDC's data processing and validation procedures.
#
#######################################################################

data_RAHBEJ
_symmetry_cell_setting           monoclinic
_symmetry_space_group_name_H-M   'P 21/n'
_symmetry_Int_Tables_number      14
_space_group_name_Hall           '-P 2yn'
loop_
_symmetry_equiv_pos_site_id
_symmetry_equiv_pos_as_xyz
1 x,y,z
2 1/2-x,1/2+y,1/2-z
3 -x,-y,-z
4 1/2+x,1/2-y,1/2+z
_cell_length_a                   13.753(11)
_cell_length_b                   14.407(11)
_cell_length_c                   17.732(14)
_cell_angle_alpha                90
_cell_angle_beta                 110.729(9)
_cell_angle_gamma                90
_cell_volume                     3285.97
loop_
_atom_site_label
_atom_site_type_symbol
_atom_site_fract_x
_atom_site_fract_y
_atom_site_fract_z
Co1 Co 1.0000 1.5000 0.0000
Co2 Co 1.0000 1.0000 0.5000
I1 I 0.93064(4) 1.62298(3) 0.23333(3)
I2 I 0.72726(4) 1.76857(3) -0.10659(3)
I3 I 0.78414(5) 2.02083(4) 0.17675(4)
C1 C 0.8618(5) 1.7334(4) 0.1539(4)
C2 C 0.8495(5) 1.8183(5) 0.1852(4)
C3 C 0.8011(6) 1.8900(5) 0.1307(5)
C4 C 0.7674(6) 1.8786(5) 0.0466(5)
C5 C 0.7799(5) 1.7897(5) 0.0183(4)
C6 C 0.8280(5) 1.7183(4) 0.0714(4)
C7 C 0.8461(5) 1.6251(4) 0.0370(4)
C8 C 0.8881(6) 1.8382(5) 0.2750(4)
C9 C 0.8994(6) 1.3765(5) 0.0972(5)
H1 H 0.8365 1.3972 0.0575
C10 C 0.8933(6) 1.3142(5) 0.1553(4)
H2 H 0.8275 1.2954 0.1562
C11 C 0.9835(5) 1.2798(4) 0.2116(4)
C12 C 1.0755(6) 1.3111(7) 0.2077(5)
H3 H 1.1396 1.2892 0.2452
C13 C 1.0752(6) 1.3751(6) 0.1491(5)
H4 H 1.1402 1.3959 0.1479
C14 C 0.9806(5) 1.2117(4) 0.2741(4)
C15 C 1.0586(6) 1.1454(6) 0.3033(5)
H5 H 1.1133 1.1427 0.2824
C16 C 1.0572(6) 1.0836(5) 0.3625(4)
H6 H 1.1104 1.0380 0.3804
C17 C 0.9073(5) 1.1484(4) 0.3668(4)
H7 H 0.8541 1.1498 0.3894
C18 C 0.9019(5) 1.2116(4) 0.3062(4)
H8 H 0.8454 1.2539 0.2870
N1 N 0.7241(6) 1.9508(5) -0.0060(4)
N2 N 0.9889(4) 1.4088(4) 0.0946(3)
N3 N 0.9836(4) 1.0857(4) 0.3953(3)
O1 O 0.9362(3) 1.6121(3) 0.0381(3)
O2 O 0.7713(3) 1.5691(3) 0.0130(3)
O3 O 0.8257(4) 1.8307(4) 0.3111(3)
O4 O 0.9828(4) 1.8610(4) 0.3041(3)
O7 O 1.1483(3) 1.5437(3) 0.0745(3)
H23 H 1.1753 1.5219 0.1219
H24 H 1.1815 1.5831 0.0573
O8 O 0.8518(3) 0.9390(3) 0.4390(3)
H25 H 0.8464 0.8931 0.4077
H26 H 0.7980 0.9605 0.4460
O9 O 1.0655(4) 0.8961(3) 0.4567(3)
H27 H 1.0381 0.8793 0.4078
H28 H 1.1202 0.8694 0.4876
Co1_2 Co 1.0000 0.5000 1.0000
I1B I 1.06936(4) 1.37702(3) -0.23333(3)
I2B I 1.27274(4) 1.23143(3) 0.10659(3)
I3B I 1.21586(5) 0.97917(4) -0.17675(4)
C1B C 1.1382(5) 1.2666(4) -0.1539(4)
C2B C 1.1505(5) 1.1817(5) -0.1852(4)
C3B C 1.1989(6) 1.1100(5) -0.1307(5)
C4B C 1.2326(6) 1.1214(5) -0.0466(5)
C5B C 1.2201(5) 1.2103(5) -0.0183(4)
C6B C 1.1720(5) 1.2817(4) -0.0714(4)
C7B C 1.1539(5) 1.3749(4) -0.0370(4)
C8B C 1.1119(6) 1.1618(5) -0.2750(4)
C9B C 1.1006(6) 0.6235(5) 0.9028(5)
H1B H 1.1635 0.6028 0.9425
C10B C 1.1067(6) 0.6858(5) 0.8447(4)
H2B H 1.1725 0.7046 0.8438
C11B C 1.0165(5) 0.7202(4) 0.7884(4)
C12B C 0.9245(6) 0.6889(7) 0.7923(5)
H3B H 0.8604 0.7108 0.7548
C13B C 0.9248(6) 0.6249(6) 0.8509(5)
H4B H 0.8598 0.6041 0.8521
C14B C 1.0194(5) 0.7883(4) 0.7259(4)
C15B C 0.9414(6) 0.8546(6) 0.6967(5)
H5B H 0.8867 0.8573 0.7176
C16B C 0.9428(6) 0.9164(5) 0.6375(4)
H6B H 0.8896 0.9620 0.6196
C17B C 1.0927(5) 0.8516(4) 0.6332(4)
H7B H 1.1459 0.8502 0.6106
C18B C 1.0981(5) 0.7884(4) 0.6938(4)
H8B H 1.1546 0.7461 0.7130
N1B N 1.2759(6) 1.0492(5) 0.0060(4)
N2B N 1.0111(4) 1.5912(4) -0.0946(3)
N2B_2 N 1.0111(4) 0.5912(4) 0.9054(3)
N3B N 1.0164(4) 0.9143(4) 0.6047(3)
O1B O 1.0638(3) 1.3879(3) -0.0381(3)
O2B O 1.2287(3) 1.4309(3) -0.0130(3)
O3B O 1.1743(4) 1.1693(4) -0.3111(3)
O4B O 1.0172(4) 1.1390(4) -0.3041(3)
O7B O 0.8517(3) 1.4563(3) -0.0745(3)
H23B H 0.8247 1.4781 -0.1219
H24B H 0.8185 1.4169 -0.0573
O8B O 1.1482(3) 1.0610(3) 0.5610(3)
H25B H 1.1536 1.1069 0.5923
H26B H 1.2020 1.0395 0.5540
O9B O 0.9345(4) 1.1039(3) 0.5433(3)
H27B H 0.9619 1.1207 0.5922
H28B H 0.8798 1.1306 0.5124
C19 C 0.4729(14) 0.8210(10) -0.0120(11)
H9 H 0.5397 0.8527 0.0000
H10 H 0.4283 0.8342 -0.0677
H11 H 0.4845 0.7540 -0.0051
C20 C 0.3208(11) 0.8225(8) 0.0450(9)
H12 H 0.3046 0.8547 0.0879
H13 H 0.3240 0.7555 0.0551
H14 H 0.2665 0.8358 -0.0071
C21 C 0.4774(12) 0.9195(8) 0.0949(8)
H15 H 0.5439 0.9392 0.0964
N4 N 0.4214(10) 0.8549(6) 0.0440(7)
O5 O 0.4248(11) 0.9589(7) 0.1505(7)
C22 C 1.1163(16) 0.907(3) 0.183(2)
H16 H 1.0848 0.9681 0.1660
H17 H 1.1921 0.9134 0.2059
H18 H 1.0906 0.8806 0.2230
C23 C 1.0288(13) 0.8670(14) 0.0233(10)
H19 H 1.0032 0.9310 0.0178
H20 H 0.9698 0.8243 0.0025
H21 H 1.0752 0.8592 -0.0073
C24 C 1.1352(18) 0.7455(14) 0.1330(10)
H22 H 1.1355 0.6968 0.0970
N5 N 1.0886(9) 0.8457(9) 0.1128(8)
O6 O 1.1733(8) 0.7461(8) 0.2117(6)
O10 O 1.2016(8) 0.5590(9) 0.2339(6)
H29 H 1.2043 0.5704 0.1876
H30 H 1.2183 0.5055 0.2548
loop_
_geom_bond_atom_site_label_1
_geom_bond_atom_site_label_2
_geom_bond_site_symmetry_1
_geom_bond_site_symmetry_2
Co1 N2 1_555 1_555
Co2 N3 1_555 1_555
I1 C1 1_555 1_555
I2 C5 1_555 1_555
I3 C3 1_555 1_555
C1 C2 1_555 1_555
C2 C3 1_555 1_555
C3 C4 1_555 1_555
C4 C5 1_555 1_555
C5 C6 1_555 1_555
C6 C1 1_555 1_555
C7 C6 1_555 1_555
C8 C2 1_555 1_555
C9 H1 1_555 1_555
C10 C9 1_555 1_555
H2 C10 1_555 1_555
C11 C10 1_555 1_555
C12 C11 1_555 1_555
H3 C12 1_555 1_555
C13 C12 1_555 1_555
H4 C13 1_555 1_555
C14 C11 1_555 1_555
C15 C14 1_555 1_555
H5 C15 1_555 1_555
C16 C15 1_555 1_555
H6 C16 1_555 1_555
C17 H7 1_555 1_555
C18 C14 1_555 1_555
H8 C18 1_555 1_555
C19 H9 1_555 1_555
H10 C19 1_555 1_555
H11 C19 1_555 1_555
C20 H12 1_555 1_555
H13 C20 1_555 1_555
H14 C20 1_555 1_555
C21 H15 1_555 1_555
C22 H16 1_555 1_555
H17 C22 1_555 1_555
H18 C22 1_555 1_555
C23 H19 1_555 1_555
H20 C23 1_555 1_555
H21 C23 1_555 1_555
C24 H22 1_555 1_555
N1 C4 1_555 1_555
N2 C9 1_555 1_555
N3 C16 1_555 1_555
N4 C19 1_555 1_555
N5 C22 1_555 1_555
O1 Co1 1_555 1_555
O2 C7 1_555 1_555
O3 C8 1_555 1_555
O4 C8 1_555 1_555
O5 C21 1_555 1_555
O6 C24 1_555 1_555
O7 Co1 1_555 1_555
H23 O7 1_555 1_555
H24 O7 1_555 1_555
O8 Co2 1_555 1_555
H25 O8 1_555 1_555
H26 O8 1_555 1_555
O9 Co2 1_555 1_555
H27 O9 1_555 1_555
H28 O9 1_555 1_555
O10 H29 1_555 1_555
H30 O10 1_555 1_555
Co1_2 N2B_2 1_555 1_555
I1B C1B 1_555 1_555
I2B C5B 1_555 1_555
I3B C3B 1_555 1_555
C1B C2B 1_555 1_555
C2B C3B 1_555 1_555
C3B C4B 1_555 1_555
C4B C5B 1_555 1_555
C5B C6B 1_555 1_555
C6B C1B 1_555 1_555
C7B C6B 1_555 1_555
C8B C2B 1_555 1_555
C9B H1B 1_555 1_555
C10B C9B 1_555 1_555
H2B C10B 1_555 1_555
C11B C10B 1_555 1_555
C12B C11B 1_555 1_555
H3B C12B 1_555 1_555
C13B C12B 1_555 1_555
H4B C13B 1_555 1_555
C14B C11B 1_555 1_555
C15B C14B 1_555 1_555
H5B C15B 1_555 1_555
C16B C15B 1_555 1_555
H6B C16B 1_555 1_555
C17B H7B 1_555 1_555
C18B C14B 1_555 1_555
H8B C18B 1_555 1_555
N1B C4B 1_555 1_555
N2B Co1 1_555 1_555
N2B_2 C9B 1_555 1_555
N3B Co2 1_555 1_555
O1B Co1 1_555 1_555
O2B C7B 1_555 1_555
O3B C8B 1_555 1_555
O4B C8B 1_555 1_555
O7B Co1 1_555 1_555
H23B O7B 1_555 1_555
H24B O7B 1_555 1_555
O8B Co2 1_555 1_555
H25B O8B 1_555 1_555
H26B O8B 1_555 1_555
O9B Co2 1_555 1_555
H27B O9B 1_555 1_555
H28B O9B 1_555 1_555
C7 O1 1_555 1_555
C13 N2 1_555 1_555
C17 C18 1_555 1_555
C17 N3 1_555 1_555
C20 N4 1_555 1_555
C21 N4 1_555 1_555
C23 N5 1_555 1_555
C24 N5 1_555 1_555
C7B O1B 1_555 1_555
C13B N2B_2 1_555 1_555
C16B N3B 1_555 1_555
C17B C18B 1_555 1_555
C17B N3B 1_555 1_555

#END
