
#######################################################################
#
#                 Cambridge Crystallographic Data Centre
#                                CCDC 
#
#######################################################################
#
# If this CIF has been generated from an entry in the Cambridge 
# Structural Database, then it will include bibliographic, chemical, 
# crystal, experimental, refinement or atomic coordinate data resulting 
# from the CCDC's data processing and validation procedures.
#
#######################################################################

data_RAHBUZ
_symmetry_cell_setting           orthorhombic
_symmetry_space_group_name_H-M   'P 21 21 21'
_symmetry_Int_Tables_number      19
_space_group_name_Hall           'P 2ac 2ab'
loop_
_symmetry_equiv_pos_site_id
_symmetry_equiv_pos_as_xyz
1 x,y,z
2 1/2-x,-y,1/2+z
3 -x,1/2+y,1/2-z
4 1/2+x,1/2-y,-z
_cell_length_a                   10.1209(5)
_cell_length_b                   13.9753(6)
_cell_length_c                   18.0091(7)
_cell_angle_alpha                90
_cell_angle_beta                 90
_cell_angle_gamma                90
_cell_volume                     2547.25
loop_
_atom_site_label
_atom_site_type_symbol
_atom_site_fract_x
_atom_site_fract_y
_atom_site_fract_z
Zn1 Zn 0.44480(6) 0.52352(4) 0.41257(3)
Zn2 Zn 0.23980(5) 0.36410(4) 0.34091(3)
O1 O 0.5509(4) 0.4182(3) 0.3749(2)
O2 O 0.4140(3) 0.3002(3) 0.3418(3)
C1 C 0.5277(5) 0.3344(4) 0.3556(3)
O3 O 0.6631(4) 0.0849(3) 0.1612(2)
O4 O 0.7292(5) -0.0359(3) 0.2324(2)
C2 C 0.7062(5) 0.0495(4) 0.2216(3)
O5 O 1.1228(4) 0.2517(3) 0.3133(3)
O6 O 1.0230(4) 0.3883(3) 0.3308(3)
C3 C 1.0186(5) 0.2995(4) 0.3227(3)
O7 O 0.8662(5) 0.0207(3) 0.4965(2)
O8 O 0.7254(4) 0.1189(3) 0.5507(2)
C4 C 0.7855(5) 0.0886(4) 0.4962(3)
C5 C 0.6422(4) 0.2650(3) 0.3494(3)
C6 C 0.7320(5) 0.1204(3) 0.2837(3)
C7 C 0.8867(4) 0.2471(4) 0.3312(3)
C8 C 0.7663(5) 0.1397(3) 0.4217(3)
C9 C 0.6179(5) 0.1922(4) 0.2878(3)
H1 H 0.6093 0.2258 0.2397
H2 H 0.5343 0.1576 0.2975
C10 C 0.7721(4) 0.3184(3) 0.3349(3)
H3 H 0.7659 0.3539 0.2874
H4 H 0.7882 0.3651 0.3752
C11 C 0.6520(5) 0.2111(4) 0.4249(3)
H5 H 0.6670 0.2574 0.4656
H6 H 0.5682 0.1768 0.4350
C12 C 0.8623(5) 0.1744(4) 0.2689(3)
H7 H 0.9366 0.1284 0.2666
H8 H 0.8571 0.2079 0.2205
C13 C 0.7434(5) 0.0670(3) 0.3575(3)
H9 H 0.8181 0.0213 0.3552
H10 H 0.6615 0.0303 0.3668
C14 C 0.8969(5) 0.1936(4) 0.4057(3)
H11 H 0.9148 0.2399 0.4461
H12 H 0.9711 0.1475 0.4038
O9 O 0.5716(4) 0.6196(3) 0.4471(3)
C15 C 0.6567(6) 0.6675(4) 0.4129(4)
C16 C 0.6814(9) 0.6488(8) 0.3318(5)
H13 H 0.7507 0.6919 0.3138
H14 H 0.5999 0.6600 0.3037
H15 H 0.7096 0.5823 0.3251
N1 N 0.7280(6) 0.7316(4) 0.4483(5)
C17 C 0.8237(9) 0.7932(6) 0.4105(7)
H16 H 0.8654 0.8359 0.4468
H17 H 0.7784 0.8314 0.3727
H18 H 0.8915 0.7535 0.3868
C18 C 0.7117(10) 0.7465(7) 0.5293(6)
H19 H 0.7714 0.7973 0.5459
H20 H 0.7326 0.6871 0.5557
H21 H 0.6202 0.7650 0.5399
Zn1B Zn 0.55520(6) 0.02352(4) 0.08743(3)
Zn1C Zn 0.94480(6) -0.02352(4) 0.58743(3)
Zn2B Zn 0.76020(5) -0.13590(4) 0.15909(3)
Zn2_2 Zn 1.23980(5) 0.36410(4) 0.34091(3)
Zn2C Zn 0.73980(5) 0.13590(4) 0.65909(3)
O3B O 0.3369(4) 0.5849(3) 0.3388(2)
O4B O 0.2708(5) 0.4641(3) 0.2676(2)
O5_2 O 0.1228(4) 0.2517(3) 0.3133(3)
O6_2 O 0.0230(4) 0.3883(3) 0.3308(3)
O7C O 0.3662(5) 0.4793(3) 0.5035(2)
O8C O 0.2254(4) 0.3811(3) 0.4493(2)
O10 O 1.0039(9) 0.6239(6) 0.5642(6)
C19 C 0.9426(12) 0.5536(7) 0.5434(7)
C20 C 0.9465(12) 0.5305(9) 0.4597(7)
H22 H 0.8943 0.4728 0.4499
H23 H 1.0382 0.5197 0.4443
H24 H 0.9096 0.5843 0.4317
N2 N 0.8571(11) 0.5056(6) 0.5885(5)
C21 C 0.7791(11) 0.4269(7) 0.5598(7)
H25 H 0.7240 0.4007 0.5997
H26 H 0.8381 0.3769 0.5410
H27 H 0.7226 0.4499 0.5195
C22 C 0.8498(16) 0.5316(11) 0.6662(5)
H28 H 0.7847 0.4910 0.6913
H29 H 0.8233 0.5988 0.6706
H30 H 0.9366 0.5227 0.6893
loop_
_geom_bond_atom_site_label_1
_geom_bond_atom_site_label_2
_geom_bond_site_symmetry_1
_geom_bond_site_symmetry_2
Zn1 O1 1_555 1_555
Zn2 O2 1_555 1_555
O1 C1 1_555 1_555
O2 C1 1_555 1_555
C1 C5 1_555 1_555
O3 C2 1_555 1_555
O4 C2 1_555 1_555
C2 C6 1_555 1_555
O5 C3 1_555 1_555
O6 C3 1_555 1_555
C3 C7 1_555 1_555
O7 C4 1_555 1_555
O8 C4 1_555 1_555
C4 C8 1_555 1_555
C5 C9 1_555 1_555
C6 C9 1_555 1_555
C7 C10 1_555 1_555
C8 C11 1_555 1_555
C9 H1 1_555 1_555
H2 C9 1_555 1_555
C10 C5 1_555 1_555
H3 C10 1_555 1_555
H4 C10 1_555 1_555
C11 C5 1_555 1_555
H5 C11 1_555 1_555
H6 C11 1_555 1_555
C12 C6 1_555 1_555
H7 C12 1_555 1_555
H8 C12 1_555 1_555
C13 C6 1_555 1_555
H9 C13 1_555 1_555
H10 C13 1_555 1_555
C14 C7 1_555 1_555
H11 C14 1_555 1_555
H12 C14 1_555 1_555
O9 Zn1 1_555 1_555
C15 O9 1_555 1_555
C16 C15 1_555 1_555
H13 C16 1_555 1_555
H14 C16 1_555 1_555
H15 C16 1_555 1_555
N1 C15 1_555 1_555
C17 N1 1_555 1_555
H16 C17 1_555 1_555
H17 C17 1_555 1_555
H18 C17 1_555 1_555
C18 N1 1_555 1_555
H19 C18 1_555 1_555
H20 C18 1_555 1_555
H21 C18 1_555 1_555
O10 C19 1_555 1_555
C19 C20 1_555 1_555
C20 H22 1_555 1_555
H23 C20 1_555 1_555
H24 C20 1_555 1_555
N2 C19 1_555 1_555
C21 N2 1_555 1_555
H25 C21 1_555 1_555
H26 C21 1_555 1_555
H27 C21 1_555 1_555
C22 N2 1_555 1_555
H28 C22 1_555 1_555
H29 C22 1_555 1_555
H30 C22 1_555 1_555
Zn1B O3 1_555 1_555
Zn1C O7 1_555 1_555
Zn2B O4 1_555 1_555
Zn2_2 O5 1_555 1_555
Zn2C O8 1_555 1_555
O3B Zn1 1_555 1_555
O4B Zn2 1_555 1_555
O5_2 Zn2 1_555 1_555
O6_2 Zn2 1_555 1_555
O7C Zn1 1_555 1_555
O8C Zn2 1_555 1_555
O6 Zn2_2 1_555 1_555
C7 C12 1_555 1_555
C8 C13 1_555 1_555
C8 C14 1_555 1_555

#END
