
#######################################################################
#
#                 Cambridge Crystallographic Data Centre
#                                CCDC 
#
#######################################################################
#
# If this CIF has been generated from an entry in the Cambridge 
# Structural Database, then it will include bibliographic, chemical, 
# crystal, experimental, refinement or atomic coordinate data resulting 
# from the CCDC's data processing and validation procedures.
#
#######################################################################

data_RAHCAG
_symmetry_cell_setting           monoclinic
_symmetry_space_group_name_H-M   'P 21/c'
_symmetry_Int_Tables_number      14
_space_group_name_Hall           '-P 2ybc'
loop_
_symmetry_equiv_pos_site_id
_symmetry_equiv_pos_as_xyz
1 x,y,z
2 -x,1/2+y,1/2-z
3 -x,-y,-z
4 x,1/2-y,1/2+z
_cell_length_a                   6.280(1)
_cell_length_b                   11.781(1)
_cell_length_c                   12.112(1)
_cell_angle_alpha                90
_cell_angle_beta                 97.21(1)
_cell_angle_gamma                90
_cell_volume                     889.017
loop_
_atom_site_label
_atom_site_type_symbol
_atom_site_fract_x
_atom_site_fract_y
_atom_site_fract_z
Ag1 Ag 0.51655(6) 0.75323(2) 0.03252(3)
N1 N 0.4437(5) 0.5987(3) -0.0649(3)
H1 H 0.3868 0.6227 -0.1337
N2 N 0.6201(5) 0.9278(3) 0.0782(3)
H2 H 0.7247 0.9227 0.1372
C1 C 0.2791(6) 0.5267(4) -0.0254(4)
H3 H 0.2338 0.4692 -0.0807
H4 H 0.1550 0.5724 -0.0143
C2 C 0.6328(7) 0.5295(4) -0.0829(4)
H5 H 0.7418 0.5774 -0.1088
H6 H 0.5918 0.4722 -0.1390
C3 C 0.4507(6) 1.0021(3) 0.1122(3)
H7 H 0.5116 1.0745 0.1377
H8 H 0.3867 0.9673 0.1727
C4 C 0.7169(6) 0.9805(3) -0.0138(3)
H9 H 0.8300 0.9320 -0.0348
H10 H 0.7800 1.0529 0.0101
Ag1B Ag 0.48345(6) 0.24677(2) -0.03252(3)
Ag1B_2 Ag 0.48345(6) 1.24677(2) -0.03252(3)
N1B N 0.5563(5) 0.4013(3) 0.0649(3)
H1B H 0.6132 0.3773 0.1337
N2B N 0.3799(5) 1.0722(3) -0.0782(3)
N2B_2 N 0.3799(5) 0.0722(3) -0.0782(3)
H2B H 0.2753 1.0773 -0.1372
H2B_2 H 0.2753 0.0773 -0.1372
C1B C 0.7209(6) 0.4733(4) 0.0254(4)
H3B H 0.7662 0.5308 0.0807
H4B H 0.8450 0.4276 0.0143
C2B C 0.3672(7) 0.4705(4) 0.0829(4)
H5B H 0.2582 0.4226 0.1088
H6B H 0.4082 0.5278 0.1390
C3B C 0.5493(6) 0.9979(3) -0.1122(3)
H7B H 0.4884 0.9255 -0.1377
H8B H 0.6133 1.0327 -0.1727
C4B C 0.2831(6) 1.0195(3) 0.0138(3)
H9B H 0.1700 1.0680 0.0348
H10B H 0.2200 0.9471 -0.0101
O1 O 0.3166(6) 0.7478(2) 0.2258(4)
S1 S 0.08715(16) 0.76891(8) 0.19741(8)
O2 O 0.0308(5) 0.8839(2) 0.2272(2)
O3 O 0.0073(7) 0.7407(2) 0.0833(3)
C5 C -0.0454(9) 0.6789(4) 0.2821(4)
H11 H 0.0030 0.6947 0.3589
H12 H -0.0142 0.6013 0.2660
H13 H -0.1973 0.6915 0.2676
loop_
_geom_bond_atom_site_label_1
_geom_bond_atom_site_label_2
_geom_bond_site_symmetry_1
_geom_bond_site_symmetry_2
Ag1 N1 1_555 1_555
N1 H1 1_555 1_555
N2 Ag1 1_555 1_555
H2 N2 1_555 1_555
C1 N1 1_555 1_555
H3 C1 1_555 1_555
H4 C1 1_555 1_555
C2 N1 1_555 1_555
H5 C2 1_555 1_555
H6 C2 1_555 1_555
C3 N2 1_555 1_555
H7 C3 1_555 1_555
H8 C3 1_555 1_555
C4 N2 1_555 1_555
H9 C4 1_555 1_555
H10 C4 1_555 1_555
O1 S1 1_555 1_555
S1 O2 1_555 1_555
O3 S1 1_555 1_555
C5 S1 1_555 1_555
H11 C5 1_555 1_555
H12 C5 1_555 1_555
H13 C5 1_555 1_555
Ag1B N1B 1_555 1_555
Ag1B_2 N2B 1_555 1_555
N1B H1B 1_555 1_555
N2B H2B 1_555 1_555
N2B_2 Ag1B 1_555 1_555
H2B_2 N2B_2 1_555 1_555
C1B C2 1_555 1_555
H3B C1B 1_555 1_555
H4B C1B 1_555 1_555
C2B C1 1_555 1_555
H5B C2B 1_555 1_555
H6B C2B 1_555 1_555
C3B C4 1_555 1_555
H7B C3B 1_555 1_555
H8B C3B 1_555 1_555
C4B C3 1_555 1_555
H9B C4B 1_555 1_555
H10B C4B 1_555 1_555
N1B C1B 1_555 1_555
N1B C2B 1_555 1_555
N2B C3B 1_555 1_555
N2B C4B 1_555 1_555

#END
