
#######################################################################
#
#                 Cambridge Crystallographic Data Centre
#                                CCDC 
#
#######################################################################
#
# If this CIF has been generated from an entry in the Cambridge 
# Structural Database, then it will include bibliographic, chemical, 
# crystal, experimental, refinement or atomic coordinate data resulting 
# from the CCDC's data processing and validation procedures.
#
#######################################################################

data_RAHCEK
_symmetry_cell_setting           orthorhombic
_symmetry_space_group_name_H-M   'C m c a'
_symmetry_Int_Tables_number      64
_space_group_name_Hall           '-C 2ac 2'
loop_
_symmetry_equiv_pos_site_id
_symmetry_equiv_pos_as_xyz
1 x,y,z
2 -x,1/2-y,1/2+z
3 -x,1/2+y,1/2-z
4 x,-y,-z
5 1/2+x,1/2+y,z
6 1/2-x,-y,1/2+z
7 1/2-x,y,1/2-z
8 1/2+x,1/2-y,-z
9 -x,-y,-z
10 x,1/2+y,1/2-z
11 x,1/2-y,1/2+z
12 -x,y,z
13 1/2-x,1/2-y,-z
14 1/2+x,y,1/2-z
15 1/2+x,-y,1/2+z
16 1/2-x,1/2+y,z
_cell_length_a                   13.039(1)
_cell_length_b                   10.450(1)
_cell_length_c                   12.837(1)
_cell_angle_alpha                90
_cell_angle_beta                 90
_cell_angle_gamma                90
_cell_volume                     1749.14
loop_
_atom_site_label
_atom_site_type_symbol
_atom_site_fract_x
_atom_site_fract_y
_atom_site_fract_z
Ag1 Ag -0.36066(3) 0.5000 0.5000
N1 N -0.3376(3) 0.3021(3) 0.5535(2)
H1 H -0.3874 0.2855 0.6012
C1 C -0.3487(3) 0.2063(5) 0.4696(4)
H2 H -0.4134 0.2193 0.4338
H3 H -0.3490 0.1210 0.4993
C2 C -0.2378(3) 0.2818(4) 0.6064(3)
H4 H -0.2366 0.1974 0.6378
H5 H -0.2295 0.3446 0.6614
Ag1L Ag -0.13934(3) 0.0000 0.5000
N1L N -0.1624(3) 0.1979(3) 0.4465(2)
N1C N -0.3376(3) 0.6979(3) 0.4465(2)
H1L H -0.1126 0.2145 0.3988
H1C H -0.3874 0.7145 0.3988
C1L C -0.1513(3) 0.2937(5) 0.5304(4)
H2L H -0.0866 0.2807 0.5662
H3L H -0.1510 0.3790 0.5007
C2L C -0.2622(3) 0.2182(4) 0.3936(3)
H4L H -0.2634 0.3026 0.3622
H5L H -0.2705 0.1554 0.3386
P1 P -0.5000 0.41770(14) 0.24956(13)
F2 F -0.3926(12) 0.4813(16) 0.2129(13)
O1 O -0.5000 0.4370(5) 0.3610(4)
O2 O -0.5000 0.2921(5) 0.2004(4)
F2K F -0.6074(12) 0.4813(16) 0.2129(13)
F1? F -0.5619(17) 0.510(2) 0.1913(19)
loop_
_geom_bond_atom_site_label_1
_geom_bond_atom_site_label_2
_geom_bond_site_symmetry_1
_geom_bond_site_symmetry_2
Ag1 N1 1_555 1_555
P1 F2 1_555 1_555
O1 P1 1_555 1_555
O2 P1 1_555 1_555
N1 H1 1_555 1_555
C1 N1 1_555 1_555
H2 C1 1_555 1_555
H3 C1 1_555 1_555
C2 N1 1_555 1_555
H4 C2 1_555 1_555
H5 C2 1_555 1_555
Ag1L N1L 1_555 1_555
F2K P1 1_555 1_555
N1L H1L 1_555 1_555
N1C Ag1 1_555 1_555
H1C N1C 1_555 1_555
C1L C2 1_555 1_555
H2L C1L 1_555 1_555
H3L C1L 1_555 1_555
C2L C1 1_555 1_555
H4L C2L 1_555 1_555
H5L C2L 1_555 1_555
N1L C1L 1_555 1_555
N1L C2L 1_555 1_555

#END
