
#######################################################################
#
#                 Cambridge Crystallographic Data Centre
#                                CCDC 
#
#######################################################################
#
# If this CIF has been generated from an entry in the Cambridge 
# Structural Database, then it will include bibliographic, chemical, 
# crystal, experimental, refinement or atomic coordinate data resulting 
# from the CCDC's data processing and validation procedures.
#
#######################################################################

data_RAHCUA
_symmetry_cell_setting           triclinic
_symmetry_space_group_name_H-M   'P -1'
_symmetry_Int_Tables_number      2
_space_group_name_Hall           '-P 1'
loop_
_symmetry_equiv_pos_site_id
_symmetry_equiv_pos_as_xyz
1 x,y,z
2 -x,-y,-z
_cell_length_a                   19.458(3)
_cell_length_b                   20.410(2)
_cell_length_c                   22.234(2)
_cell_angle_alpha                87.882(8)
_cell_angle_beta                 89.488(7)
_cell_angle_gamma                69.739(11)
_cell_volume                     8277.88
loop_
_atom_site_label
_atom_site_type_symbol
_atom_site_fract_x
_atom_site_fract_y
_atom_site_fract_z
Pb1 Pb 0.64196(3) -0.30827(3) 0.44409(3)
Fe2 Fe 0.50000 -0.50000 0.50000
N4 N 0.6014(8) -0.4110(7) 0.4994(7)
N5 N 0.6050(9) -0.5911(8) 0.4034(8)
N6 N 0.4031(10) -0.4003(10) 0.4035(9)
C4 C 0.5646(9) -0.4447(9) 0.4999(9)
C5 C 0.5642(9) -0.5556(8) 0.4377(8)
C6 C 0.4425(9) -0.4391(9) 0.4402(9)
N25 N 0.6223(8) -0.1981(7) 0.5119(7)
C25 C 0.6779(10) -0.1782(9) 0.5201(9)
H1 H 0.725 -0.207 0.5105
C26 C 0.6650(10) -0.1105(9) 0.5443(9)
H2 H 0.7046 -0.0963 0.5521
C27 C 0.5958(12) -0.0670(12) 0.5560(11)
H3 H 0.5863 -0.021 0.5667
C28 C 0.5396(11) -0.0945(10) 0.5512(10)
H4 H 0.4929 -0.0699 0.5651
C29 C 0.5541(9) -0.1597(9) 0.5253(9)
N26 N 0.5099(8) -0.2439(7) 0.4808(7)
C30 C 0.4931(9) -0.1858(8) 0.5145(8)
C31 C 0.4250(9) -0.1582(9) 0.5393(9)
H5 H 0.4143 -0.1199 0.5637
C32 C 0.3721(10) -0.1876(9) 0.5280(9)
H6 H 0.3251 -0.1679 0.5434
C33 C 0.3898(10) -0.2471(9) 0.4931(9)
H7 H 0.355 -0.2676 0.4852
C34 C 0.4602(9) -0.2747(8) 0.4708(8)
H8 H 0.4734 -0.3149 0.4487
N27 N 0.5798(8) -0.2112(7) 0.3613(7)
C35 C 0.5778(10) -0.1460(10) 0.3675(10)
H9 H 0.6148 -0.1389 0.3896
C36 C 0.5215(10) -0.0862(10) 0.3417(9)
H10 H 0.5196 -0.0409 0.3484
C37 C 0.4700(12) -0.0995(11) 0.3062(11)
H11 H 0.4321 -0.0623 0.2888
C38 C 0.4744(11) -0.1695(10) 0.2960(10)
H12 H 0.4408 -0.1787 0.2713
C39 C 0.5312(9) -0.2241(9) 0.3245(9)
N28 N 0.5815(8) -0.3450(8) 0.3532(8)
C40 C 0.5427(10) -0.2966(10) 0.3142(10)
C41 C 0.5168(14) -0.3237(14) 0.2617(13)
H13 H 0.4879 -0.2918 0.2333
C42 C 0.5330(13) -0.3926(13) 0.2527(13)
H14 H 0.5163 -0.4069 0.2183
C43 C 0.5722(11) -0.4391(11) 0.2925(10)
H15 H 0.5833 -0.4865 0.2865
C44 C 0.5982(12) -0.4163(11) 0.3457(11)
H16 H 0.6257 -0.4488 0.3745
O1 O 0.7629(7) -0.2782(7) 0.4042(6)
O2 O 0.7592(10) -0.4412(10) 0.4400(9)
Pb1A Pb 0.35804(3) -0.69173(3) 0.55591(3)
N4A N 0.3986(8) -0.5890(7) 0.5006(7)
N5A N 0.3950(9) -0.4089(8) 0.5966(8)
N6A N 0.5969(10) -0.5997(10) 0.5965(9)
C4A C 0.4354(9) -0.5553(9) 0.5001(9)
C5A C 0.4358(9) -0.4444(8) 0.5623(8)
C6A C 0.5575(9) -0.5609(9) 0.5598(9)
N25A N 0.3777(8) -0.8019(7) 0.4881(7)
C25A C 0.3221(10) -0.8218(9) 0.4799(9)
H1A H 0.275 -0.793 0.4895
C26A C 0.3350(10) -0.8895(9) 0.4557(9)
H2A H 0.2954 -0.9037 0.4479
C27A C 0.4042(12) -0.9330(12) 0.4440(11)
H3A H 0.4137 -0.979 0.4333
C28A C 0.4604(11) -0.9055(10) 0.4488(10)
H4A H 0.5071 -0.9301 0.4349
C29A C 0.4459(9) -0.8403(9) 0.4747(9)
N26A N 0.4901(8) -0.7561(7) 0.5192(7)
C30A C 0.5069(9) -0.8142(8) 0.4855(8)
C31A C 0.5750(9) -0.8418(9) 0.4607(9)
H5A H 0.5857 -0.8801 0.4363
C32A C 0.6279(10) -0.8124(9) 0.4720(9)
H6A H 0.6749 -0.8321 0.4566
C33A C 0.6102(10) -0.7529(9) 0.5069(9)
H7A H 0.645 -0.7324 0.5148
C34A C 0.5398(9) -0.7253(8) 0.5292(8)
H8A H 0.5266 -0.6851 0.5513
N27A N 0.4202(8) -0.7888(7) 0.6387(7)
C35A C 0.4222(10) -0.8540(10) 0.6325(10)
H9A H 0.3852 -0.8611 0.6104
C36A C 0.4785(10) -0.9138(10) 0.6583(9)
H10A H 0.4804 -0.9591 0.6516
C37A C 0.5300(12) -0.9005(11) 0.6938(11)
H11A H 0.5679 -0.9377 0.7112
C38A C 0.5256(11) -0.8305(10) 0.7040(10)
H12A H 0.5592 -0.8213 0.7287
C39A C 0.4688(9) -0.7759(9) 0.6755(9)
N28A N 0.4185(8) -0.6550(8) 0.6468(8)
C40A C 0.4573(10) -0.7034(10) 0.6858(10)
C41A C 0.4832(14) -0.6763(14) 0.7383(13)
H13A H 0.5121 -0.7082 0.7667
C42A C 0.4670(13) -0.6074(13) 0.7473(13)
H14A H 0.4837 -0.5931 0.7817
C43A C 0.4278(11) -0.5609(11) 0.7075(10)
H15A H 0.4167 -0.5135 0.7135
C44A C 0.4018(12) -0.5837(11) 0.6543(11)
H16A H 0.3743 -0.5512 0.6255
O1A O 0.2371(7) -0.7218(7) 0.5958(6)
O2A O 0.2408(10) -0.5588(10) 0.5600(9)
Pb2 Pb 0.03968(3) -0.10326(3) 0.25368(4)
Pb3 Pb 0.46185(4) 0.12533(4) 0.23765(4)
Fe5 Fe 0.25180(12) 0.00520(11) 0.16974(11)
Fe6 Fe -0.25539(11) 0.00617(11) 0.32992(11)
N13 N 0.1235(8) -0.0501(8) 0.1747(7)
N14 N 0.3794(9) 0.0666(8) 0.1688(8)
N15 N 0.1447(9) 0.1598(9) 0.1667(8)
N16 N 0.2526(11) 0.0060(10) 0.3082(10)
N17 N 0.2524(9) 0.0070(8) 0.0315(8)
N18 N 0.3553(9) -0.1516(9) 0.1705(8)
N19 N -0.2595(10) 0.0102(9) 0.1904(10)
N20 N -0.2395(8) -0.1521(8) 0.3364(8)
N21 N -0.0865(8) -0.0462(8) 0.3266(8)
N22 N -0.2543(8) -0.0022(8) 0.4703(8)
N23 N -0.4256(8) 0.0573(7) 0.3239(7)
N24 N -0.2691(8) 0.1641(8) 0.3311(7)
C13 C 0.1704(8) -0.0278(8) 0.1722(8)
C14 C 0.3326(9) 0.0406(9) 0.1695(9)
C15 C 0.1835(9) 0.1027(9) 0.1676(9)
C16 C 0.2515(11) 0.0070(10) 0.2547(10)
C17 C 0.2515(8) 0.0048(8) 0.0828(8)
C18 C 0.3193(11) -0.0947(10) 0.1737(10)
C19 C -0.2573(10) 0.0079(9) 0.2444(10)
C20 C -0.2468(9) -0.0909(9) 0.3325(8)
C21 C -0.1498(8) -0.0260(8) 0.3281(8)
C22 C -0.2551(9) 0.0042(9) 0.4164(9)
C23 C -0.3617(9) 0.0367(8) 0.3278(8)
C24 C -0.2648(10) 0.1055(9) 0.3295(9)
N29 N 0.0366(8) -0.2078(7) 0.3149(7)
C45 C -0.0270(10) -0.2230(9) 0.3245(9)
H17 H -0.0717 -0.1914 0.3108
C46 C -0.0249(11) -0.2850(10) 0.3542(10)
H18 H -0.068 -0.2948 0.3579
C47 C 0.0349(12) -0.3294(12) 0.3769(11)
H19 H 0.0342 -0.3706 0.3958
C48 C 0.1021(12) -0.3156(11) 0.3731(10)
H20 H 0.1446 -0.3454 0.3917
C49 C 0.1014(10) -0.2561(9) 0.3406(9)
N30 N 0.1506(8) -0.1618(8) 0.3208(8)
C50 C 0.1654(10) -0.2304(9) 0.3369(9)
C51 C 0.2376(12) -0.2770(12) 0.3501(11)
H21 H 0.2451 -0.3231 0.3619
C52 C 0.2965(12) -0.2546(11) 0.3457(11)
H22 H 0.3443 -0.2845 0.3529
C53 C 0.2797(13) -0.1823(12) 0.3294(11)
H23 H 0.3179 -0.165 0.325
C54 C 0.2074(11) -0.1363(10) 0.3197(10)
H24 H 0.1981 -0.0889 0.3125
N31 N 0.1160(8) -0.2087(7) 0.1943(7)
C55 C 0.1907(10) -0.2259(9) 0.1896(9)
H25 H 0.2115 -0.1951 0.2046
C56 C 0.2373(11) -0.2868(10) 0.1635(9)
H26 H 0.2878 -0.2973 0.162
C57 C 0.2029(11) -0.3321(11) 0.1394(10)
H27 H 0.2317 -0.3731 0.1217
C58 C 0.1263(12) -0.3155(11) 0.1418(11)
H28 H 0.1035 -0.3444 0.1262
C59 C 0.0853(11) -0.2512(10) 0.1699(10)
N32 N -0.0320(9) -0.1598(8) 0.1883(8)
C60 C 0.0020(11) -0.2267(10) 0.1701(10)
C61 C -0.0322(12) -0.2784(12) 0.1562(11)
H29 H -0.0056 -0.3241 0.1465
C62 C -0.1120(15) -0.2508(14) 0.1591(14)
H30 H -0.1401 -0.2781 0.1511
C63 C -0.1422(14) -0.1849(13) 0.1737(12)
H31 H -0.1931 -0.1671 0.1745
C64 C -0.1056(12) -0.1377(12) 0.1885(11)
H32 H -0.1326 -0.092 0.1981
N33 N 0.4649(8) 0.2206(7) 0.3023(7)
C65 C 0.5272(11) 0.2372(10) 0.3081(10)
H33 H 0.5687 0.2105 0.2875
C66 C 0.5331(12) 0.2911(10) 0.3424(10)
H34 H 0.5771 0.2989 0.3466
C67 C 0.4680(11) 0.3328(10) 0.3703(10)
H35 H 0.4695 0.3695 0.3932
C68 C 0.4022(10) 0.3215(10) 0.3652(10)
H36 H 0.3595 0.349 0.3839
C69 C 0.4046(10) 0.2649(9) 0.3294(9)
N34 N 0.3497(9) 0.1782(8) 0.3059(8)
C70 C 0.3382(11) 0.2459(10) 0.3267(10)
C71 C 0.2687(11) 0.2912(11) 0.3402(10)
H37 H 0.262 0.3366 0.351
C72 C 0.2083(14) 0.2685(13) 0.3376(12)
H38 H 0.1613 0.2971 0.3477
C73 C 0.2229(13) 0.2026(12) 0.3194(11)
H39 H 0.1838 0.1864 0.3181
C74 C 0.2915(12) 0.1564(11) 0.3022(11)
H40 H 0.2969 0.1123 0.2888
N35 N 0.3815(9) 0.2340(8) 0.1782(8)
C75 C 0.3052(10) 0.2487(10) 0.1732(9)
H41 H 0.2857 0.217 0.1908
C76 C 0.2582(12) 0.3071(11) 0.1439(10)
H42 H 0.2086 0.3141 0.1403
C77 C 0.2881(12) 0.3565(12) 0.1195(11)
H43 H 0.2572 0.3972 0.1004
C78 C 0.3620(14) 0.3456(13) 0.1232(13)
H44 H 0.3813 0.378 0.1067
C79 C 0.4076(11) 0.2832(11) 0.1531(11)
N36 N 0.5271(9) 0.1943(8) 0.1703(8)
C80 C 0.4897(11) 0.2608(10) 0.1569(10)
C81 C 0.5169(13) 0.3164(12) 0.1431(11)
H45 H 0.4866 0.3619 0.1335
C82 C 0.5936(14) 0.2958(14) 0.1453(13)
H46 H 0.6161 0.3289 0.1393
C83 C 0.6331(17) 0.2309(15) 0.1557(14)
H47 H 0.6838 0.2183 0.1546
C84 C 0.6035(13) 0.1792(13) 0.1686(12)
H48 H 0.6347 0.1335 0.1763
Pb3_2 Pb -0.53815(4) 0.12533(4) 0.23765(4)
N23_2 N 0.5744(8) 0.0573(7) 0.3239(7)
Pb4 Pb -0.14121(3) -0.68878(3) 0.43593(3)
Fe1 Fe 0.00000 -0.50000 0.50000
N1 N -0.1005(8) -0.5888(7) 0.4896(7)
N2 N -0.1063(10) -0.4150(10) 0.5967(9)
N3 N 0.1031(9) -0.5977(9) 0.5977(8)
C1 C -0.0630(9) -0.5545(9) 0.4928(8)
C2 C -0.0637(10) -0.4444(10) 0.5592(9)
C3 C 0.0617(9) -0.5606(9) 0.5623(9)
N37 N -0.1182(8) -0.8035(7) 0.5003(7)
C85 C -0.1785(11) -0.8222(10) 0.5090(10)
H49 H -0.2254 -0.7914 0.500
C86 C -0.1657(11) -0.8932(11) 0.5330(10)
H50 H -0.2049 -0.9091 0.5372
C87 C -0.0953(11) -0.9374(11) 0.5499(10)
H51 H -0.0869 -0.9816 0.5674
C88 C -0.0386(12) -0.9117(11) 0.5392(10)
H52 H 0.0092 -0.9417 0.5461
C89 C -0.0492(9) -0.8455(9) 0.5190(9)
N38 N -0.0087(7) -0.7528(7) 0.4757(7)
C90 C 0.0070(9) -0.8132(8) 0.5084(8)
C91 C 0.0797(9) -0.8473(9) 0.5321(9)
H53 H 0.0916 -0.8905 0.5525
C92 C 0.1327(11) -0.8152(10) 0.5243(9)
H54 H 0.1787 -0.8339 0.5423
C93 C 0.1129(10) -0.7538(10) 0.4881(9)
H55 H 0.1479 -0.733 0.4803
C94 C 0.0426(9) -0.7222(9) 0.4632(9)
H56 H 0.0312 -0.6817 0.439
N39 N -0.0783(7) -0.7836(7) 0.3564(7)
C95 C -0.0774(10) -0.8506(9) 0.3643(9)
H57 H -0.1122 -0.8606 0.3883
C96 C -0.0214(13) -0.9053(12) 0.3346(12)
H58 H -0.019 -0.9513 0.3412
C97 C 0.0280(12) -0.8918(12) 0.2973(11)
H59 H 0.0623 -0.9278 0.2772
C98 C 0.0265(11) -0.8231(10) 0.2895(10)
H60 H 0.0616 -0.8131 0.2659
C99 C -0.0277(11) -0.7703(10) 0.3172(10)
N40 N -0.0747(8) -0.6492(8) 0.3474(8)
C100 C -0.0332(11) -0.6989(11) 0.3080(11)
C101 C -0.0064(16) -0.6686(15) 0.2578(15)
H61 H 0.0171 -0.6977 0.2271
C102 C -0.0135(17) -0.5980(16) 0.2524(16)
H62 H 0.0064 -0.5811 0.2197
C103 C -0.0471(13) -0.5586(13) 0.2923(12)
H63 H -0.0492 -0.5123 0.2909
C104 C -0.0816(11) -0.5819(11) 0.3389(10)
H64 H -0.1107 -0.5496 0.3653
O3 O -0.2623(7) -0.7151(6) 0.3942(6)
O4 O -0.2535(12) -0.6047(11) 0.5257(10)
O5 O -0.2529(13) -0.5558(12) 0.3929(11)
Pb4A Pb 0.14121(3) -0.31122(3) 0.56407(3)
N1A N 0.1005(8) -0.4112(7) 0.5104(7)
N2A N 0.1063(10) -0.5850(10) 0.4033(9)
N3A N -0.1031(9) -0.4023(9) 0.4023(8)
C1A C 0.0630(9) -0.4455(9) 0.5072(8)
C2A C 0.0637(10) -0.5556(10) 0.4408(9)
C3A C -0.0617(9) -0.4394(9) 0.4377(9)
N37A N 0.1182(8) -0.1965(7) 0.4997(7)
C85A C 0.1785(11) -0.1778(10) 0.4910(10)
H49A H 0.2254 -0.2086 0.500
C86A C 0.1657(11) -0.1068(11) 0.4670(10)
H50A H 0.2049 -0.0909 0.4628
C87A C 0.0953(11) -0.0626(11) 0.4501(10)
H51A H 0.0869 -0.0184 0.4326
C88A C 0.0386(12) -0.0883(11) 0.4608(10)
H52A H -0.0092 -0.0583 0.4539
C89A C 0.0492(9) -0.1545(9) 0.4810(9)
N38A N 0.0087(7) -0.2472(7) 0.5243(7)
C90A C -0.0070(9) -0.1868(8) 0.4916(8)
C91A C -0.0797(9) -0.1527(9) 0.4679(9)
H53A H -0.0916 -0.1095 0.4475
C92A C -0.1327(11) -0.1848(10) 0.4757(9)
H54A H -0.1787 -0.1661 0.4577
C93A C -0.1129(10) -0.2462(10) 0.5119(9)
H55A H -0.1479 -0.267 0.5197
C94A C -0.0426(9) -0.2778(9) 0.5368(9)
H56A H -0.0312 -0.3183 0.561
N39A N 0.0783(7) -0.2164(7) 0.6436(7)
C95A C 0.0774(10) -0.1494(9) 0.6357(9)
H57A H 0.1122 -0.1394 0.6117
C96A C 0.0214(13) -0.0947(12) 0.6654(12)
H58A H 0.019 -0.0487 0.6588
C97A C -0.0280(12) -0.1082(12) 0.7027(11)
H59A H -0.0623 -0.0722 0.7228
C98A C -0.0265(11) -0.1769(10) 0.7105(10)
H60A H -0.0616 -0.1869 0.7341
C99A C 0.0277(11) -0.2297(10) 0.6828(10)
N40A N 0.0747(8) -0.3508(8) 0.6526(8)
C100A C 0.0332(11) -0.3011(11) 0.6920(11)
C101A C 0.0064(16) -0.3314(15) 0.7422(15)
H61A H -0.0171 -0.3023 0.7729
C102A C 0.0135(17) -0.4020(16) 0.7476(16)
H62A H -0.0064 -0.4189 0.7803
C103A C 0.0471(13) -0.4414(13) 0.7077(12)
H63A H 0.0492 -0.4877 0.7091
C104A C 0.0816(11) -0.4181(11) 0.6611(10)
H64A H 0.1107 -0.4504 0.6347
O3A O 0.2623(7) -0.2849(6) 0.6058(6)
O4A O 0.2535(12) -0.3953(11) 0.4743(10)
O5A O 0.2529(13) -0.4442(12) 0.6071(11)
Pb5 Pb 0.08851(3) -0.30748(3) -0.05516(3)
Fe3 Fe 0.00000 -0.50000 0.00000
N7 N 0.0086(8) -0.3595(8) 0.0380(7)
N8 N -0.1556(12) -0.4684(11) 0.0518(10)
N9 N 0.0722(14) -0.5916(13) 0.1097(13)
C7 C 0.0017(9) -0.4127(9) 0.0278(9)
C8 C -0.0991(12) -0.4784(11) 0.0268(11)
C9 C 0.0350(13) -0.5493(13) 0.0726(12)
N41 N 0.0825(8) -0.2093(7) -0.1370(7)
C105 C 0.0330(10) -0.1432(9) -0.1302(9)
H65 H -0.0078 -0.1379 -0.1062
C106 C 0.0407(11) -0.0833(10) -0.1576(10)
H66 H 0.0081 -0.0386 -0.1509
C107 C 0.1031(12) -0.0960(12) -0.1969(12)
H67 H 0.1106 -0.0583 -0.217
C108 C 0.1501(10) -0.1602(9) -0.2052(9)
H68 H 0.1896 -0.167 -0.2311
C109 C 0.1402(10) -0.2160(9) -0.1757(9)
N42 N 0.1934(8) -0.3392(8) -0.1401(8)
C110 C 0.1907(11) -0.2924(10) -0.1852(10)
C111 C 0.2318(11) -0.3106(11) -0.2362(11)
H69 H 0.2284 -0.2774 -0.2669
C112 C 0.2784(13) -0.3784(12) -0.2415(12)
H70 H 0.3072 -0.3901 -0.2758
C113 C 0.2839(14) -0.4293(14) -0.1980(13)
H71 H 0.3136 -0.4756 -0.2025
C114 C 0.2411(11) -0.4068(10) -0.1454(10)
H72 H 0.2454 -0.4389 -0.1136
N43 N 0.0279(7) -0.2012(7) 0.0069(7)
C115 C -0.0468(10) -0.1804(9) 0.0135(9)
H73 H -0.0709 -0.2114 0.0059
C116 C -0.0883(11) -0.1110(10) 0.0321(10)
H74 H -0.1392 -0.0953 0.033
C117 C -0.0488(11) -0.0662(10) 0.0494(10)
H75 H -0.0731 -0.0218 0.0637
C118 C 0.0291(11) -0.0929(10) 0.0436(10)
H76 H 0.0563 -0.0651 0.0529
C119 C 0.0638(9) -0.1591(9) 0.0245(9)
N44 N 0.1744(7) -0.2522(7) -0.0109(7)
C120 C 0.1481(8) -0.1890(8) 0.0163(8)
C121 C 0.1946(10) -0.1603(9) 0.0398(9)
H77 H 0.1758 -0.1189 0.0603
C122 C 0.2701(11) -0.1918(10) 0.0339(10)
H78 H 0.3016 -0.1716 0.0501
C123 C 0.2966(12) -0.2514(10) 0.0046(10)
H79 H 0.3468 -0.2719 -0.0012
C124 C 0.2503(9) -0.2824(9) -0.0169(9)
H80 H 0.2697 -0.3246 -0.036
O6 O 0.1888(8) -0.4119(7) 0.0070(7)
O7 O -0.0485(8) -0.2765(7) -0.1025(7)
Pb5A Pb -0.08851(3) -0.69252(3) 0.05516(3)
N7A N -0.0086(8) -0.6405(8) -0.0380(7)
N8A N 0.1556(12) -0.5316(11) -0.0518(10)
N9A N -0.0722(14) -0.4084(13) -0.1097(13)
C7A C -0.0017(9) -0.5873(9) -0.0278(9)
C8A C 0.0991(12) -0.5216(11) -0.0268(11)
C9A C -0.0350(13) -0.4507(13) -0.0726(12)
N41A N -0.0825(8) -0.7907(7) 0.1370(7)
C105A C -0.0330(10) -0.8568(9) 0.1302(9)
H65A H 0.0078 -0.8621 0.1062
C106A C -0.0407(11) -0.9167(10) 0.1576(10)
H66A H -0.0081 -0.9614 0.1509
C107A C -0.1031(12) -0.9040(12) 0.1969(12)
H67A H -0.1106 -0.9417 0.217
C108A C -0.1501(10) -0.8398(9) 0.2052(9)
H68A H -0.1896 -0.833 0.2311
C109A C -0.1402(10) -0.7840(9) 0.1757(9)
N42A N -0.1934(8) -0.6608(8) 0.1401(8)
C110A C -0.1907(11) -0.7076(10) 0.1852(10)
C111A C -0.2318(11) -0.6894(11) 0.2362(11)
H69A H -0.2284 -0.7226 0.2669
C112A C -0.2784(13) -0.6216(12) 0.2415(12)
H70A H -0.3072 -0.6099 0.2758
C113A C -0.2839(14) -0.5707(14) 0.1980(13)
H71A H -0.3136 -0.5244 0.2025
C114A C -0.2411(11) -0.5932(10) 0.1454(10)
H72A H -0.2454 -0.5611 0.1136
N43A N -0.0279(7) -0.7988(7) -0.0069(7)
C115A C 0.0468(10) -0.8196(9) -0.0135(9)
H73A H 0.0709 -0.7886 -0.0059
C116A C 0.0883(11) -0.8890(10) -0.0321(10)
H74A H 0.1392 -0.9047 -0.033
C117A C 0.0488(11) -0.9338(10) -0.0494(10)
H75A H 0.0731 -0.9782 -0.0637
C118A C -0.0291(11) -0.9071(10) -0.0436(10)
H76A H -0.0563 -0.9349 -0.0529
C119A C -0.0638(9) -0.8409(9) -0.0245(9)
N44A N -0.1744(7) -0.7478(7) 0.0109(7)
C120A C -0.1481(8) -0.8110(8) -0.0163(8)
C121A C -0.1946(10) -0.8397(9) -0.0398(9)
H77A H -0.1758 -0.8811 -0.0603
C122A C -0.2701(11) -0.8082(10) -0.0339(10)
H78A H -0.3016 -0.8284 -0.0501
C123A C -0.2966(12) -0.7486(10) -0.0046(10)
H79A H -0.3468 -0.7281 0.0012
C124A C -0.2503(9) -0.7176(9) 0.0169(9)
H80A H -0.2697 -0.6754 0.036
O6A O -0.1888(8) -0.5881(7) -0.0070(7)
O7A O 0.0485(8) -0.7235(7) 0.1025(7)
Pb6 Pb 0.58760(3) -0.30637(3) 0.07608(4)
Fe4 Fe 0.50000 -0.50000 0.00000
N10 N 0.4469(13) -0.4950(12) -0.1310(13)
N11 N 0.4951(9) -0.3497(9) 0.0016(8)
N12 N 0.6633(10) -0.5400(9) -0.0380(9)
C10 C 0.4683(13) -0.4965(12) -0.0820(12)
C11 C 0.4968(11) -0.4054(10) -0.0073(10)
C12 C 0.6001(12) -0.5256(11) -0.0245(11)
N45 N 0.5846(8) -0.2073(8) 0.1490(8)
C125 C 0.5310(10) -0.1403(9) 0.1387(9)
H81 H 0.4899 -0.1352 0.1154
C126 C 0.5399(10) -0.0817(10) 0.1638(9)
H82 H 0.5059 -0.0375 0.1551
C127 C 0.5986(11) -0.0889(11) 0.2013(10)
H83 H 0.6036 -0.0502 0.2189
C128 C 0.6496(11) -0.1548(9) 0.2122(9)
H84 H 0.6894 -0.1593 0.2369
C129 C 0.6438(10) -0.2168(9) 0.1870(9)
N46 N 0.6894(9) -0.3343(8) 0.1618(8)
C130 C 0.6909(10) -0.2850(10) 0.1997(10)
C131 C 0.7377(11) -0.3106(11) 0.2527(11)
H85 H 0.7374 -0.2787 0.2816
C132 C 0.7824(14) -0.3790(13) 0.2624(14)
H86 H 0.8117 -0.393 0.2966
C133 C 0.7822(14) -0.4267(14) 0.2191(13)
H87 H 0.8136 -0.4729 0.2228
C134 C 0.7362(12) -0.4054(12) 0.1719(12)
H88 H 0.7348 -0.4383 0.1446
N47 N 0.5316(7) -0.2007(7) 0.0055(7)
C135 C 0.4577(11) -0.1781(10) -0.0015(10)
H89 H 0.4317 -0.2067 0.0111
C136 C 0.4208(11) -0.1123(10) -0.0273(10)
H90 H 0.3701 -0.0971 -0.0311
C137 C 0.4587(12) -0.0682(12) -0.0477(11)
H91 H 0.4352 -0.0237 -0.0647
C138 C 0.5375(10) -0.0981(9) -0.0400(9)
H92 H 0.5662 -0.072 -0.0525
C139 C 0.5705(9) -0.1631(8) -0.0152(8)
N48 N 0.6780(7) -0.2573(7) 0.0276(7)
C140 C 0.6525(9) -0.1965(9) -0.0056(9)
C141 C 0.7027(10) -0.1715(10) -0.0310(10)
H93 H 0.6854 -0.1294 -0.0531
C142 C 0.7746(10) -0.2030(10) -0.0263(10)
H94 H 0.8064 -0.183 -0.0441
C143 C 0.8021(11) -0.2678(10) 0.0062(9)
H95 H 0.8521 -0.2926 0.0089
C144 C 0.7536(10) -0.2918(10) 0.0327(10)
H96 H 0.7707 -0.3334 0.0556
O8 O 0.6880(8) -0.4223(7) 0.0301(7)
O9 O 0.4485(8) -0.2783(8) 0.1232(7)
Pb6A Pb 0.41240(3) -0.69363(3) -0.07608(4)
N10A N 0.5531(13) -0.5050(12) 0.1310(13)
N11A N 0.5049(9) -0.6503(9) -0.0016(8)
N12A N 0.3367(10) -0.4600(9) 0.0380(9)
C10A C 0.5317(13) -0.5035(12) 0.0820(12)
C11A C 0.5032(11) -0.5946(10) 0.0073(10)
C12A C 0.3999(12) -0.4744(11) 0.0245(11)
N45A N 0.4154(8) -0.7927(8) -0.1490(8)
C125A C 0.4690(10) -0.8597(9) -0.1387(9)
H81A H 0.5101 -0.8648 -0.1154
C126A C 0.4601(10) -0.9183(10) -0.1638(9)
H82A H 0.4941 -0.9625 -0.1551
C127A C 0.4014(11) -0.9111(11) -0.2013(10)
H83A H 0.3964 -0.9498 -0.2189
C128A C 0.3504(11) -0.8452(9) -0.2122(9)
H84A H 0.3106 -0.8407 -0.2369
C129A C 0.3562(10) -0.7832(9) -0.1870(9)
N46A N 0.3106(9) -0.6657(8) -0.1618(8)
C130A C 0.3091(10) -0.7150(10) -0.1997(10)
C131A C 0.2623(11) -0.6894(11) -0.2527(11)
H85A H 0.2626 -0.7213 -0.2816
C132A C 0.2176(14) -0.6210(13) -0.2624(14)
H86A H 0.1883 -0.607 -0.2966
C133A C 0.2178(14) -0.5733(14) -0.2191(13)
H87A H 0.1864 -0.5271 -0.2228
C134A C 0.2638(12) -0.5946(12) -0.1719(12)
H88A H 0.2652 -0.5617 -0.1446
N47A N 0.4684(7) -0.7993(7) -0.0055(7)
C135A C 0.5423(11) -0.8219(10) 0.0015(10)
H89A H 0.5683 -0.7933 -0.0111
C136A C 0.5792(11) -0.8877(10) 0.0273(10)
H90A H 0.6299 -0.9029 0.0311
C137A C 0.5413(12) -0.9318(12) 0.0477(11)
H91A H 0.5648 -0.9763 0.0647
C138A C 0.4625(10) -0.9019(9) 0.0400(9)
H92A H 0.4338 -0.928 0.0525
C139A C 0.4295(9) -0.8369(8) 0.0152(8)
N48A N 0.3220(7) -0.7427(7) -0.0276(7)
C140A C 0.3475(9) -0.8035(9) 0.0056(9)
C141A C 0.2973(10) -0.8285(10) 0.0310(10)
H93A H 0.3146 -0.8706 0.0531
C142A C 0.2254(10) -0.7970(10) 0.0263(10)
H94A H 0.1936 -0.817 0.0441
C143A C 0.1979(11) -0.7322(10) -0.0062(9)
H95A H 0.1479 -0.7074 -0.0089
C144A C 0.2464(10) -0.7082(10) -0.0327(10)
H96A H 0.2293 -0.6666 -0.0556
O8A O 0.3120(8) -0.5777(7) -0.0301(7)
O9A O 0.5515(8) -0.7217(8) -0.1232(7)
N49 N 0.7108(17) -0.5048(15) 0.6883(16)
C145 C 0.637(2) -0.494(2) 0.680(2)
H97 H 0.6222 -0.487 0.64
C146 C 0.579(2) -0.4899(19) 0.721(2)
H98 H 0.5329 -0.4888 0.7098
C147 C 0.600(2) -0.4885(18) 0.776(2)
H99 H 0.565 -0.4825 0.8057
C148 C 0.6717(18) -0.4951(16) 0.7955(17)
H100 H 0.6829 -0.4935 0.8359
C149 C 0.7273(17) -0.5047(15) 0.7477(16)
N50 N 0.8162(17) -0.5121(15) 0.8207(16)
C150 C 0.7992(13) -0.5132(12) 0.7585(13)
C151 C 0.855(2) -0.5256(18) 0.718(2)
H101 H 0.8438 -0.5257 0.6777
C152 C 0.930(2) -0.5387(19) 0.7350(19)
H102 H 0.9656 -0.5485 0.7053
C153 C 0.950(3) -0.537(2) 0.795(2)
H103 H 0.9983 -0.5455 0.8064
C154 C 0.892(2) -0.521(2) 0.837(2)
H104 H 0.9018 -0.5157 0.8773
O10 O 0.7680(17) -0.4672(16) 0.5801(15)
O11 O 0.2981(16) 0.0603(15) -0.0868(14)
O12 O 0.7856(17) 0.0614(15) 0.0793(15)
O13 O -0.167(2) -1.0659(18) 0.5824(18)
O14 O 0.6700(19) 0.0603(18) 0.5816(17)
loop_
_geom_bond_atom_site_label_1
_geom_bond_atom_site_label_2
_geom_bond_site_symmetry_1
_geom_bond_site_symmetry_2
Pb1 N4 1_555 1_555
Pb2 N13 1_555 1_555
Pb3 N14 1_555 1_555
Pb4 N1 1_555 1_555
Pb5 N7 1_555 1_555
Pb6 N11 1_555 1_555
Fe1 C1 1_555 1_555
Fe2 C4 1_555 1_555
Fe3 C7 1_555 1_555
Fe4 C10 1_555 1_555
Fe5 C13 1_555 1_555
Fe6 C19 1_555 1_555
N1 C1 1_555 1_555
N2 C2 1_555 1_555
N3 C3 1_555 1_555
N4 C4 1_555 1_555
N5 C5 1_555 1_555
N6 C6 1_555 1_555
N7 C7 1_555 1_555
N8 C8 1_555 1_555
N9 C9 1_555 1_555
N10 C10 1_555 1_555
N11 C11 1_555 1_555
N12 C12 1_555 1_555
N13 C13 1_555 1_555
N14 C14 1_555 1_555
N15 C15 1_555 1_555
N16 C16 1_555 1_555
N17 C17 1_555 1_555
N18 C18 1_555 1_555
N19 C19 1_555 1_555
N20 C20 1_555 1_555
N21 Pb2 1_555 1_555
N22 C22 1_555 1_555
N23 C23 1_555 1_555
N24 C24 1_555 1_555
C2 Fe1 1_555 1_555
C3 Fe1 1_555 1_555
C5 Fe2 1_555 1_555
C6 Fe2 1_555 1_555
C8 Fe3 1_555 1_555
C9 Fe3 1_555 1_555
C11 Fe4 1_555 1_555
C12 Fe4 1_555 1_555
C14 Fe5 1_555 1_555
C15 Fe5 1_555 1_555
C16 Fe5 1_555 1_555
C17 Fe5 1_555 1_555
C18 Fe5 1_555 1_555
C20 Fe6 1_555 1_555
C21 Fe6 1_555 1_555
C22 Fe6 1_555 1_555
C23 Fe6 1_555 1_555
C24 Fe6 1_555 1_555
N25 Pb1 1_555 1_555
C25 N25 1_555 1_555
H1 C25 1_555 1_555
C26 C25 1_555 1_555
H2 C26 1_555 1_555
C27 C26 1_555 1_555
H3 C27 1_555 1_555
C28 C27 1_555 1_555
H4 C28 1_555 1_555
C29 N25 1_555 1_555
N26 Pb1 1_555 1_555
C30 C29 1_555 1_555
C31 C30 1_555 1_555
H5 C31 1_555 1_555
C32 C31 1_555 1_555
H6 C32 1_555 1_555
C33 C32 1_555 1_555
H7 C33 1_555 1_555
C34 N26 1_555 1_555
H8 C34 1_555 1_555
N27 Pb1 1_555 1_555
C35 N27 1_555 1_555
H9 C35 1_555 1_555
C36 C35 1_555 1_555
H10 C36 1_555 1_555
C37 C36 1_555 1_555
H11 C37 1_555 1_555
C38 C37 1_555 1_555
H12 C38 1_555 1_555
C39 N27 1_555 1_555
N28 Pb1 1_555 1_555
C40 C39 1_555 1_555
C41 C40 1_555 1_555
H13 C41 1_555 1_555
C42 C41 1_555 1_555
H14 C42 1_555 1_555
C43 C42 1_555 1_555
H15 C43 1_555 1_555
C44 N28 1_555 1_555
H16 C44 1_555 1_555
N29 Pb2 1_555 1_555
C45 N29 1_555 1_555
H17 C45 1_555 1_555
C46 C45 1_555 1_555
H18 C46 1_555 1_555
C47 C46 1_555 1_555
H19 C47 1_555 1_555
C48 C47 1_555 1_555
H20 C48 1_555 1_555
C49 N29 1_555 1_555
N30 Pb2 1_555 1_555
C50 C49 1_555 1_555
C51 C50 1_555 1_555
H21 C51 1_555 1_555
C52 C51 1_555 1_555
H22 C52 1_555 1_555
C53 C52 1_555 1_555
H23 C53 1_555 1_555
C54 N30 1_555 1_555
H24 C54 1_555 1_555
N31 Pb2 1_555 1_555
C55 N31 1_555 1_555
H25 C55 1_555 1_555
C56 C55 1_555 1_555
H26 C56 1_555 1_555
C57 C56 1_555 1_555
H27 C57 1_555 1_555
C58 C57 1_555 1_555
H28 C58 1_555 1_555
C59 N31 1_555 1_555
N32 Pb2 1_555 1_555
C60 C59 1_555 1_555
C61 C60 1_555 1_555
H29 C61 1_555 1_555
C62 C61 1_555 1_555
H30 C62 1_555 1_555
C63 C62 1_555 1_555
H31 C63 1_555 1_555
C64 N32 1_555 1_555
H32 C64 1_555 1_555
N33 Pb3 1_555 1_555
C65 N33 1_555 1_555
H33 C65 1_555 1_555
C66 C65 1_555 1_555
H34 C66 1_555 1_555
C67 C66 1_555 1_555
H35 C67 1_555 1_555
C68 C67 1_555 1_555
H36 C68 1_555 1_555
C69 N33 1_555 1_555
N34 Pb3 1_555 1_555
C70 C69 1_555 1_555
C71 C70 1_555 1_555
H37 C71 1_555 1_555
C72 C71 1_555 1_555
H38 C72 1_555 1_555
C73 C72 1_555 1_555
H39 C73 1_555 1_555
C74 N34 1_555 1_555
H40 C74 1_555 1_555
N35 Pb3 1_555 1_555
C75 N35 1_555 1_555
H41 C75 1_555 1_555
C76 C75 1_555 1_555
H42 C76 1_555 1_555
C77 C76 1_555 1_555
H43 C77 1_555 1_555
C78 C77 1_555 1_555
H44 C78 1_555 1_555
C79 N35 1_555 1_555
N36 Pb3 1_555 1_555
C80 C79 1_555 1_555
C81 C80 1_555 1_555
H45 C81 1_555 1_555
C82 C81 1_555 1_555
H46 C82 1_555 1_555
C83 C82 1_555 1_555
H47 C83 1_555 1_555
C84 N36 1_555 1_555
H48 C84 1_555 1_555
N37 Pb4 1_555 1_555
C85 N37 1_555 1_555
H49 C85 1_555 1_555
C86 C85 1_555 1_555
H50 C86 1_555 1_555
C87 C86 1_555 1_555
H51 C87 1_555 1_555
C88 C87 1_555 1_555
H52 C88 1_555 1_555
C89 N37 1_555 1_555
N38 Pb4 1_555 1_555
C90 C89 1_555 1_555
C91 C90 1_555 1_555
H53 C91 1_555 1_555
C92 C91 1_555 1_555
H54 C92 1_555 1_555
C93 C92 1_555 1_555
H55 C93 1_555 1_555
C94 N38 1_555 1_555
H56 C94 1_555 1_555
N39 Pb4 1_555 1_555
C95 N39 1_555 1_555
H57 C95 1_555 1_555
C96 C95 1_555 1_555
H58 C96 1_555 1_555
C97 C96 1_555 1_555
H59 C97 1_555 1_555
C98 C97 1_555 1_555
H60 C98 1_555 1_555
C99 N39 1_555 1_555
N40 Pb4 1_555 1_555
C100 C99 1_555 1_555
C101 C100 1_555 1_555
H61 C101 1_555 1_555
C102 C101 1_555 1_555
H62 C102 1_555 1_555
C103 C102 1_555 1_555
H63 C103 1_555 1_555
C104 N40 1_555 1_555
H64 C104 1_555 1_555
N41 Pb5 1_555 1_555
C105 N41 1_555 1_555
H65 C105 1_555 1_555
C106 C105 1_555 1_555
H66 C106 1_555 1_555
C107 C106 1_555 1_555
H67 C107 1_555 1_555
C108 C107 1_555 1_555
H68 C108 1_555 1_555
C109 N41 1_555 1_555
N42 Pb5 1_555 1_555
C110 C109 1_555 1_555
C111 C110 1_555 1_555
H69 C111 1_555 1_555
C112 C111 1_555 1_555
H70 C112 1_555 1_555
C113 C112 1_555 1_555
H71 C113 1_555 1_555
C114 N42 1_555 1_555
H72 C114 1_555 1_555
N43 Pb5 1_555 1_555
C115 N43 1_555 1_555
H73 C115 1_555 1_555
C116 C115 1_555 1_555
H74 C116 1_555 1_555
C117 C116 1_555 1_555
H75 C117 1_555 1_555
C118 C117 1_555 1_555
H76 C118 1_555 1_555
C119 N43 1_555 1_555
N44 Pb5 1_555 1_555
C120 C119 1_555 1_555
C121 C120 1_555 1_555
H77 C121 1_555 1_555
C122 C121 1_555 1_555
H78 C122 1_555 1_555
C123 C122 1_555 1_555
H79 C123 1_555 1_555
C124 N44 1_555 1_555
H80 C124 1_555 1_555
N45 Pb6 1_555 1_555
C125 N45 1_555 1_555
H81 C125 1_555 1_555
C126 C125 1_555 1_555
H82 C126 1_555 1_555
C127 C126 1_555 1_555
H83 C127 1_555 1_555
C128 C127 1_555 1_555
H84 C128 1_555 1_555
C129 N45 1_555 1_555
N46 Pb6 1_555 1_555
C130 C129 1_555 1_555
C131 C130 1_555 1_555
H85 C131 1_555 1_555
C132 C131 1_555 1_555
H86 C132 1_555 1_555
C133 C132 1_555 1_555
H87 C133 1_555 1_555
C134 N46 1_555 1_555
H88 C134 1_555 1_555
N47 Pb6 1_555 1_555
C135 N47 1_555 1_555
H89 C135 1_555 1_555
C136 C135 1_555 1_555
H90 C136 1_555 1_555
C137 C136 1_555 1_555
H91 C137 1_555 1_555
C138 C137 1_555 1_555
H92 C138 1_555 1_555
C139 N47 1_555 1_555
N48 Pb6 1_555 1_555
C140 C139 1_555 1_555
C141 C140 1_555 1_555
H93 C141 1_555 1_555
C142 C141 1_555 1_555
H94 C142 1_555 1_555
C143 C142 1_555 1_555
H95 C143 1_555 1_555
C144 N48 1_555 1_555
H96 C144 1_555 1_555
N49 C145 1_555 1_555
C145 H97 1_555 1_555
C146 C145 1_555 1_555
H98 C146 1_555 1_555
C147 C146 1_555 1_555
H99 C147 1_555 1_555
C148 C147 1_555 1_555
H100 C148 1_555 1_555
C149 N49 1_555 1_555
N50 C150 1_555 1_555
C150 C149 1_555 1_555
C151 C150 1_555 1_555
H101 C151 1_555 1_555
C152 C151 1_555 1_555
H102 C152 1_555 1_555
C153 C152 1_555 1_555
H103 C153 1_555 1_555
C154 N50 1_555 1_555
H104 C154 1_555 1_555
O1 Pb1 1_555 1_555
O2 Pb1 1_555 1_555
O3 Pb4 1_555 1_555
O4 Pb4 1_555 1_555
O5 Pb4 1_555 1_555
O6 Pb5 1_555 1_555
O7 Pb5 1_555 1_555
O8 Pb6 1_555 1_555
O9 Pb6 1_555 1_555
Pb1A N4A 1_555 1_555
Pb3_2 N23 1_555 1_555
Pb4A N1A 1_555 1_555
Pb5A N7A 1_555 1_555
Pb6A N11A 1_555 1_555
N1A C1A 1_555 1_555
N2A C2A 1_555 1_555
N3A C3A 1_555 1_555
N4A C4A 1_555 1_555
N5A C5A 1_555 1_555
N6A C6A 1_555 1_555
N7A C7A 1_555 1_555
N8A C8A 1_555 1_555
N9A C9A 1_555 1_555
N10A C10A 1_555 1_555
N11A C11A 1_555 1_555
N12A C12A 1_555 1_555
N23_2 Pb3 1_555 1_555
C1A Fe1 1_555 1_555
C2A Fe1 1_555 1_555
C3A Fe1 1_555 1_555
C4A Fe2 1_555 1_555
C5A Fe2 1_555 1_555
C6A Fe2 1_555 1_555
C7A Fe3 1_555 1_555
C8A Fe3 1_555 1_555
C9A Fe3 1_555 1_555
C10A Fe4 1_555 1_555
C11A Fe4 1_555 1_555
C12A Fe4 1_555 1_555
N25A Pb1A 1_555 1_555
C25A N25A 1_555 1_555
H1A C25A 1_555 1_555
C26A C25A 1_555 1_555
H2A C26A 1_555 1_555
C27A C26A 1_555 1_555
H3A C27A 1_555 1_555
C28A C27A 1_555 1_555
H4A C28A 1_555 1_555
C29A N25A 1_555 1_555
N26A Pb1A 1_555 1_555
C30A C29A 1_555 1_555
C31A C30A 1_555 1_555
H5A C31A 1_555 1_555
C32A C31A 1_555 1_555
H6A C32A 1_555 1_555
C33A C32A 1_555 1_555
H7A C33A 1_555 1_555
C34A N26A 1_555 1_555
H8A C34A 1_555 1_555
N27A Pb1A 1_555 1_555
C35A N27A 1_555 1_555
H9A C35A 1_555 1_555
C36A C35A 1_555 1_555
H10A C36A 1_555 1_555
C37A C36A 1_555 1_555
H11A C37A 1_555 1_555
C38A C37A 1_555 1_555
H12A C38A 1_555 1_555
C39A N27A 1_555 1_555
N28A Pb1A 1_555 1_555
C40A C39A 1_555 1_555
C41A C40A 1_555 1_555
H13A C41A 1_555 1_555
C42A C41A 1_555 1_555
H14A C42A 1_555 1_555
C43A C42A 1_555 1_555
H15A C43A 1_555 1_555
C44A N28A 1_555 1_555
H16A C44A 1_555 1_555
N37A Pb4A 1_555 1_555
C85A N37A 1_555 1_555
H49A C85A 1_555 1_555
C86A C85A 1_555 1_555
H50A C86A 1_555 1_555
C87A C86A 1_555 1_555
H51A C87A 1_555 1_555
C88A C87A 1_555 1_555
H52A C88A 1_555 1_555
C89A N37A 1_555 1_555
N38A Pb4A 1_555 1_555
C90A C89A 1_555 1_555
C91A C90A 1_555 1_555
H53A C91A 1_555 1_555
C92A C91A 1_555 1_555
H54A C92A 1_555 1_555
C93A C92A 1_555 1_555
H55A C93A 1_555 1_555
C94A N38A 1_555 1_555
H56A C94A 1_555 1_555
N39A Pb4A 1_555 1_555
C95A N39A 1_555 1_555
H57A C95A 1_555 1_555
C96A C95A 1_555 1_555
H58A C96A 1_555 1_555
C97A C96A 1_555 1_555
H59A C97A 1_555 1_555
C98A C97A 1_555 1_555
H60A C98A 1_555 1_555
C99A N39A 1_555 1_555
N40A Pb4A 1_555 1_555
C100A C99A 1_555 1_555
C101A C100A 1_555 1_555
H61A C101A 1_555 1_555
C102A C101A 1_555 1_555
H62A C102A 1_555 1_555
C103A C102A 1_555 1_555
H63A C103A 1_555 1_555
C104A N40A 1_555 1_555
H64A C104A 1_555 1_555
N41A Pb5A 1_555 1_555
C105A N41A 1_555 1_555
H65A C105A 1_555 1_555
C106A C105A 1_555 1_555
H66A C106A 1_555 1_555
C107A C106A 1_555 1_555
H67A C107A 1_555 1_555
C108A C107A 1_555 1_555
H68A C108A 1_555 1_555
C109A N41A 1_555 1_555
N42A Pb5A 1_555 1_555
C110A C109A 1_555 1_555
C111A C110A 1_555 1_555
H69A C111A 1_555 1_555
C112A C111A 1_555 1_555
H70A C112A 1_555 1_555
C113A C112A 1_555 1_555
H71A C113A 1_555 1_555
C114A N42A 1_555 1_555
H72A C114A 1_555 1_555
N43A Pb5A 1_555 1_555
C115A N43A 1_555 1_555
H73A C115A 1_555 1_555
C116A C115A 1_555 1_555
H74A C116A 1_555 1_555
C117A C116A 1_555 1_555
H75A C117A 1_555 1_555
C118A C117A 1_555 1_555
H76A C118A 1_555 1_555
C119A N43A 1_555 1_555
N44A Pb5A 1_555 1_555
C120A C119A 1_555 1_555
C121A C120A 1_555 1_555
H77A C121A 1_555 1_555
C122A C121A 1_555 1_555
H78A C122A 1_555 1_555
C123A C122A 1_555 1_555
H79A C123A 1_555 1_555
C124A N44A 1_555 1_555
H80A C124A 1_555 1_555
N45A Pb6A 1_555 1_555
C125A N45A 1_555 1_555
H81A C125A 1_555 1_555
C126A C125A 1_555 1_555
H82A C126A 1_555 1_555
C127A C126A 1_555 1_555
H83A C127A 1_555 1_555
C128A C127A 1_555 1_555
H84A C128A 1_555 1_555
C129A N45A 1_555 1_555
N46A Pb6A 1_555 1_555
C130A C129A 1_555 1_555
C131A C130A 1_555 1_555
H85A C131A 1_555 1_555
C132A C131A 1_555 1_555
H86A C132A 1_555 1_555
C133A C132A 1_555 1_555
H87A C133A 1_555 1_555
C134A N46A 1_555 1_555
H88A C134A 1_555 1_555
N47A Pb6A 1_555 1_555
C135A N47A 1_555 1_555
H89A C135A 1_555 1_555
C136A C135A 1_555 1_555
H90A C136A 1_555 1_555
C137A C136A 1_555 1_555
H91A C137A 1_555 1_555
C138A C137A 1_555 1_555
H92A C138A 1_555 1_555
C139A N47A 1_555 1_555
N48A Pb6A 1_555 1_555
C140A C139A 1_555 1_555
C141A C140A 1_555 1_555
H93A C141A 1_555 1_555
C142A C141A 1_555 1_555
H94A C142A 1_555 1_555
C143A C142A 1_555 1_555
H95A C143A 1_555 1_555
C144A N48A 1_555 1_555
H96A C144A 1_555 1_555
O1A Pb1A 1_555 1_555
O2A Pb1A 1_555 1_555
O3A Pb4A 1_555 1_555
O4A Pb4A 1_555 1_555
O5A Pb4A 1_555 1_555
O6A Pb5A 1_555 1_555
O7A Pb5A 1_555 1_555
O8A Pb6A 1_555 1_555
O9A Pb6A 1_555 1_555
N21 C21 1_555 1_555
C28 C29 1_555 1_555
N26 C30 1_555 1_555
C33 C34 1_555 1_555
C38 C39 1_555 1_555
N28 C40 1_555 1_555
C43 C44 1_555 1_555
C48 C49 1_555 1_555
N30 C50 1_555 1_555
C53 C54 1_555 1_555
C58 C59 1_555 1_555
N32 C60 1_555 1_555
C63 C64 1_555 1_555
C68 C69 1_555 1_555
N34 C70 1_555 1_555
C73 C74 1_555 1_555
C78 C79 1_555 1_555
N36 C80 1_555 1_555
C83 C84 1_555 1_555
C88 C89 1_555 1_555
N38 C90 1_555 1_555
C93 C94 1_555 1_555
C98 C99 1_555 1_555
N40 C100 1_555 1_555
C103 C104 1_555 1_555
C108 C109 1_555 1_555
N42 C110 1_555 1_555
C113 C114 1_555 1_555
C118 C119 1_555 1_555
N44 C120 1_555 1_555
C123 C124 1_555 1_555
C128 C129 1_555 1_555
N46 C130 1_555 1_555
C133 C134 1_555 1_555
C138 C139 1_555 1_555
N48 C140 1_555 1_555
C143 C144 1_555 1_555
C148 C149 1_555 1_555
C153 C154 1_555 1_555
C28A C29A 1_555 1_555
N26A C30A 1_555 1_555
C33A C34A 1_555 1_555
C38A C39A 1_555 1_555
N28A C40A 1_555 1_555
C43A C44A 1_555 1_555
C88A C89A 1_555 1_555
N38A C90A 1_555 1_555
C93A C94A 1_555 1_555
C98A C99A 1_555 1_555
N40A C100A 1_555 1_555
C103A C104A 1_555 1_555
C108A C109A 1_555 1_555
N42A C110A 1_555 1_555
C113A C114A 1_555 1_555
C118A C119A 1_555 1_555
N44A C120A 1_555 1_555
C123A C124A 1_555 1_555
C128A C129A 1_555 1_555
N46A C130A 1_555 1_555
C133A C134A 1_555 1_555
C138A C139A 1_555 1_555
N48A C140A 1_555 1_555
C143A C144A 1_555 1_555

#END
