
#######################################################################
#
#                 Cambridge Crystallographic Data Centre
#                                CCDC 
#
#######################################################################
#
# If this CIF has been generated from an entry in the Cambridge 
# Structural Database, then it will include bibliographic, chemical, 
# crystal, experimental, refinement or atomic coordinate data resulting 
# from the CCDC's data processing and validation procedures.
#
#######################################################################

data_RAHFIP
_symmetry_cell_setting           orthorhombic
_symmetry_space_group_name_H-M   'P b c a'
_symmetry_Int_Tables_number      61
_space_group_name_Hall           '-P 2ac 2ab'
loop_
_symmetry_equiv_pos_site_id
_symmetry_equiv_pos_as_xyz
1 x,y,z
2 1/2-x,-y,1/2+z
3 1/2+x,1/2-y,-z
4 -x,1/2+y,1/2-z
5 -x,-y,-z
6 1/2+x,y,1/2-z
7 1/2-x,1/2+y,z
8 x,1/2-y,1/2+z
_cell_length_a                   13.95700(10)
_cell_length_b                   12.9684(3)
_cell_length_c                   14.8453(3)
_cell_angle_alpha                90
_cell_angle_beta                 90
_cell_angle_gamma                90
_cell_volume                     2687
loop_
_atom_site_label
_atom_site_type_symbol
_atom_site_fract_x
_atom_site_fract_y
_atom_site_fract_z
Ge1 Ge 0.1683(1) 0.8397(1) 0.0110(1)
Ge2 Ge 0.0253(1) 0.8245(1) -0.1450(1)
Ge3 Ge 0.0105(1) 0.7764(1) 0.1488(1)
Ge4 Ge -0.1252(1) 0.7673(1) 0.0023(1)
Ge5 Ge 0.0000 1.0000 0.0000
Zn1 Zn 0.3591(1) 0.9064(1) 0.1437(1)
O1 O 0.1316(4) 0.9680(4) 0.0149(4)
O2 O 0.1331(4) 0.7850(4) -0.0931(4)
O3 O 0.0031(4) 0.9534(4) -0.1215(4)
O4 O 0.0386(4) 0.8150(4) -0.2611(4)
O5 O -0.0843(4) 0.7016(4) 0.1027(4)
O6 O 0.1273(4) 0.7676(4) 0.1042(4)
O7 O -0.0287(4) 0.8643(4) 0.0370(4)
O8 O 0.2936(4) 0.8449(4) 0.0252(4)
O9 O -0.0694(4) 0.7447(4) -0.1062(4)
O10 O -0.0157(5) 0.8814(4) 0.2196(4)
O11 O -0.2218(4) 0.8546(4) 0.0028(4)
N1 N 0.2744(5) 0.8464(6) 0.2444(5)
N2 N 0.2871(6) 1.0453(6) 0.1750(5)
C1 C 0.2373(8) 0.9341(8) 0.2970(7)
C2 C 0.2145(10) 1.0226(8) 0.2400(9)
C3 C 0.5339(7) 0.9735(7) 0.0326(6)
N3 N 0.4891(6) 0.9746(6) 0.1226(5)
H1 H -0.0163(70) 0.9347(11) 0.1899(12)
H2 H -0.2013(5) 0.9136(7) 0.0074(62)
H3 H 0.2256(5) 0.8101(6) 0.2206(5)
H4 H 0.3090(5) 0.8043(6) 0.2799(5)
H5 H 0.3287(6) 1.0916(6) 0.1976(5)
H6 H 0.2604(6) 1.0721(6) 0.1250(5)
H7 H 0.1800(8) 0.9128(8) 0.3290(7)
H8 H 0.2847(8) 0.9544(8) 0.3414(7)
H9 H 0.1548(10) 1.0092(8) 0.2087(9)
H10 H 0.2050(10) 1.0826(8) 0.2779(9)
H11 H 0.5454(7) 0.9031(7) 0.0134(6)
H12 H 0.5948(7) 1.0096(7) 0.0342(6)
H13 H 0.4835(6) 1.0410(6) 0.1393(5)
H14 H 0.5309(6) 0.9451(6) 0.1610(5)
C3D C 0.4661(7) 1.0265(7) -0.0326(6)
N3D N 0.5109(6) 1.0254(6) -0.1226(5)
H13D H 0.5165(6) 0.9590(6) -0.1393(5)
H14D H 0.4691(6) 1.0549(6) -0.1610(5)
H11D H 0.4546(7) 1.0969(7) -0.0134(6)
H12D H 0.4052(7) 0.9904(7) -0.0342(6)
O1D O -0.1316(4) 1.0320(4) -0.0149(4)
O3D O -0.0031(4) 1.0466(4) 0.1215(4)
O7D O 0.0287(4) 1.1357(4) -0.0370(4)
Ge1D Ge -0.1683(1) 1.1603(1) -0.0110(1)
Ge2D Ge -0.0253(1) 1.1755(1) 0.1450(1)
Ge3D Ge -0.0105(1) 1.2236(1) -0.1488(1)
Ge4D Ge 0.1252(1) 1.2327(1) -0.0023(1)
O4G O 0.0386(4) 0.6850(4) 0.2389(4)
O8B O -0.2064(4) 0.6551(4) -0.0252(4)
O2D O -0.1331(4) 1.2150(4) 0.0931(4)
O6D O -0.1273(4) 1.2324(4) -0.1042(4)
O9D O 0.0694(4) 1.2553(4) 0.1062(4)
O5D O 0.0843(4) 1.2984(4) -0.1027(4)
O10D O 0.0157(5) 1.1186(4) -0.2196(4)
H1D H 0.0163(70) 1.0653(11) -0.1899(12)
O11D O 0.2218(4) 1.1454(4) -0.0028(4)
H2D H 0.2013(5) 1.0864(7) -0.0074(62)
Zn1B Zn -0.1409(1) 0.5936(1) -0.1437(1)
O9B O 0.4306(4) 0.7553(4) 0.1062(4)
Ge3G Ge 0.0105(1) 0.7236(1) -0.3512(1)
Ge4B Ge 0.3748(1) 0.7327(1) -0.0023(1)
Zn1D Zn 0.6409(1) 1.0936(1) -0.1437(1)
O8D O -0.2936(4) 1.1551(4) -0.0252(4)
O4D O -0.0386(4) 1.1850(4) 0.2611(4)
O4C O -0.0386(4) 1.3150(4) -0.2389(4)
O8F O 0.2064(4) 1.3449(4) 0.0252(4)
Ge2G Ge 0.0253(1) 0.6755(1) 0.3550(1)
Ge1B Ge -0.3317(1) 0.6603(1) -0.0110(1)
Zn1F Zn 0.1409(1) 1.4064(1) 0.1437(1)
N1B N -0.2256(5) 0.6536(6) -0.2444(5)
N2B N -0.2129(6) 0.4547(6) -0.1750(5)
N3B N -0.0109(6) 0.5254(6) -0.1226(5)
H3B H -0.2744(5) 0.6899(6) -0.2206(5)
H4B H -0.1910(5) 0.6957(6) -0.2799(5)
H5B H -0.1713(6) 0.4084(6) -0.1976(5)
H6B H -0.2396(6) 0.4279(6) -0.1250(5)
H13B H -0.0165(6) 0.4590(6) -0.1393(5)
H14B H 0.0309(6) 0.5549(6) -0.1610(5)
C1B C -0.2627(8) 0.5659(8) -0.2970(7)
C2B C -0.2855(10) 0.4774(8) -0.2400(9)
H7B H -0.3200(8) 0.5872(8) -0.3290(7)
H8B H -0.2153(8) 0.5456(8) -0.3414(7)
H9B H -0.3452(10) 0.4908(8) -0.2087(9)
H10B H -0.2950(10) 0.4174(8) -0.2779(9)
loop_
_geom_bond_atom_site_label_1
_geom_bond_atom_site_label_2
_geom_bond_site_symmetry_1
_geom_bond_site_symmetry_2
Ge1 O1 1_555 1_555
Ge2 O2 1_555 1_555
Ge3 O5 1_555 1_555
Ge4 O5 1_555 1_555
Ge5 O1 1_555 1_555
Zn1 O8 1_555 1_555
O2 Ge1 1_555 1_555
O3 Ge2 1_555 1_555
O4 Ge2 1_555 1_555
O6 Ge1 1_555 1_555
O7 Ge3 1_555 1_555
O8 Ge1 1_555 1_555
O9 Ge2 1_555 1_555
O10 Ge3 1_555 1_555
O11 Ge4 1_555 1_555
N1 Zn1 1_555 1_555
N2 Zn1 1_555 1_555
C1 N1 1_555 1_555
C2 N2 1_555 1_555
C3 N3 1_555 1_555
N3 Zn1 1_555 1_555
H1 O10 1_555 1_555
H2 O11 1_555 1_555
H3 N1 1_555 1_555
H4 N1 1_555 1_555
H5 N2 1_555 1_555
H6 N2 1_555 1_555
H7 C1 1_555 1_555
H8 C1 1_555 1_555
H9 C2 1_555 1_555
H10 C2 1_555 1_555
H11 C3 1_555 1_555
H12 C3 1_555 1_555
H13 N3 1_555 1_555
H14 N3 1_555 1_555
C3D C3 1_555 1_555
N3D C3D 1_555 1_555
H13D N3D 1_555 1_555
H14D N3D 1_555 1_555
H11D C3D 1_555 1_555
H12D C3D 1_555 1_555
O1D Ge5 1_555 1_555
O3D Ge5 1_555 1_555
O7D Ge5 1_555 1_555
Ge1D O1D 1_555 1_555
Ge2D O3D 1_555 1_555
Ge3D O7D 1_555 1_555
Ge4D O7D 1_555 1_555
O4G Ge3 1_555 1_555
O8B Ge4 1_555 1_555
O2D Ge1D 1_555 1_555
O6D Ge1D 1_555 1_555
O9D Ge2D 1_555 1_555
O5D Ge3D 1_555 1_555
O10D Ge3D 1_555 1_555
H1D O10D 1_555 1_555
O11D Ge4D 1_555 1_555
H2D O11D 1_555 1_555
Zn1B O9 1_555 1_555
O9B Zn1 1_555 1_555
Ge3G O4 1_555 1_555
Ge4B O8 1_555 1_555
Zn1D N3D 1_555 1_555
O8D Ge1D 1_555 1_555
O4D Ge2D 1_555 1_555
O4C Ge3D 1_555 1_555
O8F Ge4D 1_555 1_555
Ge2G O4G 1_555 1_555
Ge1B O8B 1_555 1_555
Zn1F O9D 1_555 1_555
N1B Zn1B 1_555 1_555
N2B Zn1B 1_555 1_555
N3B Zn1B 1_555 1_555
H3B N1B 1_555 1_555
H4B N1B 1_555 1_555
H5B N2B 1_555 1_555
H6B N2B 1_555 1_555
H13B N3B 1_555 1_555
H14B N3B 1_555 1_555
C1B N1B 1_555 1_555
C2B N2B 1_555 1_555
H7B C1B 1_555 1_555
H8B C1B 1_555 1_555
H9B C2B 1_555 1_555
H10B C2B 1_555 1_555
Ge3 O6 1_555 1_555
Ge4 O7 1_555 1_555
Ge4 O9 1_555 1_555
Ge5 O3 1_555 1_555
Ge5 O7 1_555 1_555
C1 C2 1_555 1_555
Ge2D O2D 1_555 1_555
Ge3D O6D 1_555 1_555
Ge4D O5D 1_555 1_555
Ge4D O9D 1_555 1_555
O8B Zn1B 1_555 1_555
O9B Ge4B 1_555 1_555
O8F Zn1F 1_555 1_555
C1B C2B 1_555 1_555

#END
