
#######################################################################
#
#                 Cambridge Crystallographic Data Centre
#                                CCDC 
#
#######################################################################
#
# If this CIF has been generated from an entry in the Cambridge 
# Structural Database, then it will include bibliographic, chemical, 
# crystal, experimental, refinement or atomic coordinate data resulting 
# from the CCDC's data processing and validation procedures.
#
#######################################################################

data_RAHFOX
_symmetry_cell_setting           orthorhombic
_symmetry_space_group_name_H-M   'P b c a'
_symmetry_Int_Tables_number      61
_space_group_name_Hall           '-P 2ac 2ab'
loop_
_symmetry_equiv_pos_site_id
_symmetry_equiv_pos_as_xyz
1 x,y,z
2 1/2-x,-y,1/2+z
3 -x,1/2+y,1/2-z
4 1/2+x,1/2-y,-z
5 -x,-y,-z
6 1/2+x,y,1/2-z
7 x,1/2-y,1/2+z
8 1/2-x,1/2+y,z
_cell_length_a                   10.6161(16)
_cell_length_b                   16.340(3)
_cell_length_c                   18.840(3)
_cell_angle_alpha                90
_cell_angle_beta                 90
_cell_angle_gamma                90
_cell_volume                     3268.12
loop_
_atom_site_label
_atom_site_type_symbol
_atom_site_fract_x
_atom_site_fract_y
_atom_site_fract_z
Cu1 Cu -0.38725(3) -0.17606(2) -0.474780(19)
Cl1 Cl -0.81065(9) 0.06794(6) -0.69042(5)
S1 S 0.05267(8) -0.18087(6) -0.45134(5)
O1 O -0.39307(19) -0.11257(14) -0.56039(12)
N1 N -0.5547(2) -0.14111(15) -0.44555(13)
N2 N -0.3894(2) -0.23100(15) -0.37906(13)
N3 N -0.2035(3) -0.18472(18) -0.48270(15)
C1 C -0.6059(3) -0.06271(18) -0.55106(16)
C2 C -0.4900(3) -0.07394(18) -0.58711(16)
C3 C -0.4793(3) -0.0395(2) -0.65579(17)
H2 H -0.4043 -0.0457 -0.6807
C4 C -0.5763(4) 0.0028(2) -0.68662(17)
H3 H -0.5670 0.0243 -0.7320
C5 C -0.6886(3) 0.01343(19) -0.64982(17)
C6 C -0.7036(3) -0.01826(19) -0.58338(17)
H4 H -0.7791 -0.0104 -0.5593
C7 C -0.6296(3) -0.09514(19) -0.48136(16)
H5 H -0.7060 -0.0816 -0.4603
C8 C -0.5965(3) -0.1713(2) -0.37664(17)
H6 H -0.6646 -0.2101 -0.3831
H7 H -0.6278 -0.1261 -0.3484
C9 C -0.4893(3) -0.21206(18) -0.33858(16)
C10 C -0.4935(3) -0.2324(2) -0.26746(17)
H8 H -0.5613 -0.2162 -0.2396
C11 C -0.3965(4) -0.2768(2) -0.23830(19)
H9 H -0.3971 -0.2900 -0.1903
C12 C -0.2989(3) -0.3013(2) -0.28080(19)
H10 H -0.2354 -0.3347 -0.2631
C13 C -0.2967(3) -0.2755(2) -0.35021(18)
H11 H -0.2280 -0.2895 -0.3783
C14 C -0.0975(3) -0.18253(19) -0.46920(16)
Cu1C Cu 0.11275(3) -0.32394(2) -0.525220(19)
S1C S -0.44733(8) -0.31913(6) -0.54866(5)
O2 O -0.1738(3) -0.1122(3) -0.64361(18)
H1 H -0.2369 -0.1047 -0.6193
C15 C -0.0790(5) -0.0599(3) -0.6216(3)
H12 H -0.1100 -0.0047 -0.6211
H13 H -0.0089 -0.0638 -0.6536
H14 H -0.0522 -0.0749 -0.5747
loop_
_geom_bond_atom_site_label_1
_geom_bond_atom_site_label_2
_geom_bond_site_symmetry_1
_geom_bond_site_symmetry_2
Cu1 O1 1_555 1_555
Cl1 C5 1_555 1_555
S1 C14 1_555 1_555
O1 C2 1_555 1_555
O2 H1 1_555 1_555
N1 Cu1 1_555 1_555
N2 Cu1 1_555 1_555
N3 Cu1 1_555 1_555
C1 C2 1_555 1_555
C2 C3 1_555 1_555
C3 H2 1_555 1_555
C4 C3 1_555 1_555
H3 C4 1_555 1_555
C5 C4 1_555 1_555
C6 C1 1_555 1_555
H4 C6 1_555 1_555
C7 N1 1_555 1_555
H5 C7 1_555 1_555
C8 N1 1_555 1_555
H6 C8 1_555 1_555
H7 C8 1_555 1_555
C9 N2 1_555 1_555
C10 C9 1_555 1_555
H8 C10 1_555 1_555
C11 C10 1_555 1_555
H9 C11 1_555 1_555
C12 C11 1_555 1_555
H10 C12 1_555 1_555
C13 N2 1_555 1_555
H11 C13 1_555 1_555
C14 N3 1_555 1_555
C15 O2 1_555 1_555
H12 C15 1_555 1_555
H13 C15 1_555 1_555
H14 C15 1_555 1_555
Cu1C S1 1_555 1_555
S1C Cu1 1_555 1_555
C1 C7 1_555 1_555
C5 C6 1_555 1_555
C8 C9 1_555 1_555
C12 C13 1_555 1_555

#END
