
#######################################################################
#
#                 Cambridge Crystallographic Data Centre
#                                CCDC 
#
#######################################################################
#
# If this CIF has been generated from an entry in the Cambridge 
# Structural Database, then it will include bibliographic, chemical, 
# crystal, experimental, refinement or atomic coordinate data resulting 
# from the CCDC's data processing and validation procedures.
#
#######################################################################

data_RAHFOW
_symmetry_cell_setting           monoclinic
_symmetry_space_group_name_H-M   'P 21/c'
_symmetry_Int_Tables_number      14
_space_group_name_Hall           '-P 2ybc'
loop_
_symmetry_equiv_pos_site_id
_symmetry_equiv_pos_as_xyz
1 x,y,z
2 x,1/2-y,1/2+z
3 -x,-y,-z
4 -x,1/2+y,1/2-z
_cell_length_a                   8.9678(5)
_cell_length_b                   13.0984(8)
_cell_length_c                   16.7159(10)
_cell_angle_alpha                90
_cell_angle_beta                 90.0980(10)
_cell_angle_gamma                90
_cell_volume                     1963.51
loop_
_atom_site_label
_atom_site_type_symbol
_atom_site_fract_x
_atom_site_fract_y
_atom_site_fract_z
Ag1 Ag -0.11506(3) 0.23157(2) 0.231010(15)
C1 C 0.6194(3) 0.3214(2) 0.08332(18)
H1 H 0.5645 0.3406 0.0334
C2 C 0.2768(4) 0.2381(2) 0.2722(2)
H2 H 0.3842 0.2359 0.2883
C3 C 0.5173(3) 0.3455(2) 0.15329(19)
H3 H 0.5165 0.4201 0.1626
H4 H 0.5563 0.3121 0.2022
C4 C 0.3573(3) 0.3085(2) 0.13754(18)
H5 H 0.3149 0.3472 0.0920
H6 H 0.3596 0.2354 0.1225
C5 C 0.2572(4) 0.3222(2) 0.2103(2)
H7 H 0.2794 0.3888 0.2356
H8 H 0.1518 0.3234 0.1926
C6 C 0.6373(3) 0.1532(3) 0.01280(19)
H9 H 0.6057 0.1744 -0.0388
C7 C 0.6751(4) 0.0564(3) 0.0349(2)
H10 H 0.6754 -0.0032 0.0025
C8 C 0.7133(4) 0.0639(2) 0.1156(2)
H11 H 0.7453 0.0079 0.1474
C9 C 0.7745(4) 0.4699(2) 0.0437(2)
H12 H 0.7168 0.4918 -0.0008
C10 C 0.8927(4) 0.5197(2) 0.0763(2)
H13 H 0.9353 0.5825 0.0592
C11 C 0.9376(4) 0.4592(3) 0.1398(2)
H14 H 1.0190 0.4750 0.1741
C12 C 0.3311(4) 0.0596(3) 0.22705(19)
H15 H 0.4288 0.0533 0.2486
C13 C 0.2588(4) -0.0100(3) 0.1808(2)
H16 H 0.2947 -0.0748 0.1641
C14 C 0.1208(4) 0.0335(3) 0.1633(2)
H17 H 0.0459 0.0018 0.1317
C15 C 0.2407(4) 0.2673(3) 0.4186(2)
H18 H 0.3415 0.2590 0.4349
C16 C 0.1239(4) 0.2910(3) 0.4668(2)
H19 H 0.1259 0.3033 0.5228
C17 C 0.0005(4) 0.2932(3) 0.4163(2)
H20 H -0.0984 0.3068 0.4334
N1 N 0.6996(3) 0.1586(2) 0.14260(16)
N2 N 0.6530(3) 0.21295(19) 0.07775(15)
N3 N 0.8530(3) 0.3761(2) 0.14727(17)
N4 N 0.7542(3) 0.38332(19) 0.08617(16)
N5 N 0.1078(3) 0.1256(2) 0.19652(17)
N6 N 0.2380(3) 0.1394(2) 0.23638(16)
N7 N 0.0387(3) 0.2740(2) 0.34086(17)
N8 N 0.1878(3) 0.2579(2) 0.34358(16)
Ag1_2 Ag 0.88494(3) 0.23157(2) 0.231010(15)
N1_2 N -0.3004(3) 0.1586(2) 0.14260(16)
N3_2 N -0.1470(3) 0.3761(2) 0.14727(17)
N9 N 0.6438(3) 0.1418(2) 0.35338(15)
O1 O 0.7341(3) 0.0797(2) 0.32632(16)
O2 O 0.6545(3) 0.23498(18) 0.33695(15)
O3 O 0.5393(3) 0.1123(2) 0.39713(15)
loop_
_geom_bond_atom_site_label_1
_geom_bond_atom_site_label_2
_geom_bond_site_symmetry_1
_geom_bond_site_symmetry_2
Ag1 N5 1_555 1_555
C1 H1 1_555 1_555
C2 H2 1_555 1_555
C3 C1 1_555 1_555
H3 C3 1_555 1_555
H4 C3 1_555 1_555
C4 C3 1_555 1_555
H5 C4 1_555 1_555
H6 C4 1_555 1_555
C5 C2 1_555 1_555
H7 C5 1_555 1_555
H8 C5 1_555 1_555
C6 H9 1_555 1_555
C7 C6 1_555 1_555
H10 C7 1_555 1_555
C8 C7 1_555 1_555
H11 C8 1_555 1_555
C9 H12 1_555 1_555
C10 C9 1_555 1_555
H13 C10 1_555 1_555
C11 C10 1_555 1_555
H14 C11 1_555 1_555
C12 H15 1_555 1_555
C13 C12 1_555 1_555
H16 C13 1_555 1_555
C14 C13 1_555 1_555
H17 C14 1_555 1_555
C15 H18 1_555 1_555
C16 C15 1_555 1_555
H19 C16 1_555 1_555
C17 C16 1_555 1_555
H20 C17 1_555 1_555
N1 C8 1_555 1_555
N2 C1 1_555 1_555
N3 C11 1_555 1_555
N4 C1 1_555 1_555
N5 C14 1_555 1_555
N6 C2 1_555 1_555
N7 Ag1 1_555 1_555
N8 C2 1_555 1_555
N9 O1 1_555 1_555
O2 N9 1_555 1_555
O3 N9 1_555 1_555
Ag1_2 N1 1_555 1_555
N1_2 Ag1 1_555 1_555
N3_2 Ag1 1_555 1_555
C4 C5 1_555 1_555
C6 N2 1_555 1_555
C9 N4 1_555 1_555
C12 N6 1_555 1_555
C15 N8 1_555 1_555
C17 N7 1_555 1_555
N1 N2 1_555 1_555
N3 Ag1_2 1_555 1_555
N3 N4 1_555 1_555
N5 N6 1_555 1_555
N7 N8 1_555 1_555

#END
