
#######################################################################
#
#                 Cambridge Crystallographic Data Centre
#                                CCDC 
#
#######################################################################
#
# If this CIF has been generated from an entry in the Cambridge 
# Structural Database, then it will include bibliographic, chemical, 
# crystal, experimental, refinement or atomic coordinate data resulting 
# from the CCDC's data processing and validation procedures.
#
#######################################################################

data_RAHFOV
_symmetry_cell_setting           monoclinic
_symmetry_space_group_name_H-M   'P 21/c'
_symmetry_Int_Tables_number      14
_space_group_name_Hall           '-P 2ybc'
loop_
_symmetry_equiv_pos_site_id
_symmetry_equiv_pos_as_xyz
1 x,y,z
2 -x,1/2+y,1/2-z
3 -x,-y,-z
4 x,1/2-y,1/2+z
_cell_length_a                   14.9037(2)
_cell_length_b                   13.03790(10)
_cell_length_c                   14.24900(10)
_cell_angle_alpha                90
_cell_angle_beta                 91.51
_cell_angle_gamma                90
_cell_volume                     2767.8
loop_
_atom_site_label
_atom_site_type_symbol
_atom_site_fract_x
_atom_site_fract_y
_atom_site_fract_z
Ge1 Ge -0.4869(1) 0.6664(1) 0.8395(1)
Ge2 Ge -0.8678(1) 1.1881(1) 1.0113(1)
Ge3 Ge -0.6315(1) 0.6883(1) 0.9876(1)
Ge4 Ge -1.0171(1) 1.1675(1) 1.1563(1)
Ge5 Ge -0.9813(1) 0.7761(1) 1.1353(1)
Ge6 Ge -0.6618(1) 1.2933(1) 1.0072(1)
Ge7 Ge -0.5244(1) 1.2716(1) 0.8660(1)
Ge8 Ge -0.8362(1) 0.7913(1) 0.9983(1)
Ge9 Ge -1.0000 1.0000 1.0000
Ge10 Ge -0.5000 0.5000 1.0000
Zn1 Zn -0.6414(1) 1.1033(1) 1.1823(1)
Zn2 Zn -1.1365(1) 1.0810(1) 1.3292(1)
O1 O -0.9524(3) 0.8694(3) 1.0353(3)
O2 O -1.1183(3) 1.2222(3) 1.1178(3)
O3 O -0.7463(3) 0.7013(3) 0.9804(3)
O4 O -0.5836(3) 0.7291(3) 0.8818(3)
O5 O -0.9220(3) 1.2329(3) 1.1152(3)
O6 O -0.9099(3) 1.2566(3) 0.9126(3)
O7 O -0.4880(3) 0.5371(3) 0.8710(3)
O8 O -0.4882(3) 0.6682(3) 0.7182(3)
O9 O -0.6266(3) 1.2168(3) 0.9109(3)
O10 O -0.5852(3) 0.7556(3) 1.0850(3)
O11 O -0.8823(3) 1.0564(3) 0.9967(3)
O12 O -1.0094(3) 1.0379(3) 1.1267(3)
O13 O -0.7545(3) 1.2059(3) 1.0339(3)
O14 O -0.6157(3) 0.5560(3) 1.0022(3)
O15 O -1.0215(3) 1.1633(3) 1.2795(3)
O16 O -0.6100(3) 1.2656(3) 1.1205(3)
O17 O -0.8823(3) 0.7141(3) 1.0899(3)
O18 O -0.5489(3) 1.3695(3) 0.9682(3)
O19 O -0.5370(3) 1.3729(3) 0.7780(3)
O20 O -0.7284(3) 1.4041(3) 0.9980(4)
O21 O -0.9809(3) 0.8654(3) 1.2284(3)
O22 O -0.7690(3) 0.9002(3) 1.0237(3)
N1 N -0.7549(4) 1.1503(4) 1.2461(4)
C1 C -0.8128(6) 1.0580(7) 1.2642(7)
C2 C -0.7588(7) 0.9653(6) 1.2881(7)
N2 N -0.6872(5) 0.9510(5) 1.2265(5)
N3 N -1.2685(6) 1.1240(8) 1.2916(7)
C3 C -1.3055(6) 1.0607(8) 1.2184(7)
C4 C -1.2652(7) 0.9566(8) 1.2244(8)
N4 N -1.1701(5) 0.9647(5) 1.2272(5)
N5 N -0.6076(4) 1.0423(4) 1.0567(4)
C5 C -0.5111(5) 1.0232(5) 1.0473(5)
N6 N -1.1052(5) 0.9740(5) 1.4285(5)
C6 C -1.0468(5) 0.9980(6) 1.5132(6)
H1 H -0.6959(3) 1.4547(6) 0.9951(55)
H2 H -0.9810(51) 0.9238(3) 1.2070(3)
H3 H -0.8006(8) 0.9517(7) 1.0232(50)
H4 H -0.7850(4) 1.1951(4) 1.2090(4)
H5 H -0.7405(4) 1.1817(4) 1.3007(4)
H6 H -0.8500(6) 1.0440(7) 1.2088(7)
H7 H -0.8522(6) 1.0731(7) 1.3155(7)
H8 H -0.7975(7) 0.9054(6) 1.2855(7)
H9 H -0.7349(7) 0.9715(6) 1.3518(7)
H10 H -0.6420(5) 0.9170(5) 1.2559(5)
H11 H -0.7057(5) 0.9142(5) 1.1762(5)
H12 H -1.3030(6) 1.1195(8) 1.3423(7)
H13 H -1.2688(6) 1.1898(8) 1.2723(7)
H14 H -1.2934(6) 1.0909(8) 1.1579(7)
H15 H -1.3700(6) 1.0560(8) 1.2244(7)
H16 H -1.2850(7) 0.9222(8) 1.2805(8)
H17 H -1.2845(7) 0.9163(8) 1.1704(8)
H18 H -1.1500(5) 0.9825(5) 1.1704(5)
H19 H -1.1451(5) 0.9044(5) 1.2440(5)
H20 H -0.6261(4) 1.0853(4) 1.0107(4)
H21 H -0.6373(4) 0.9827(4) 1.0485(4)
H22 H -0.4788(5) 1.0874(5) 1.0552(5)
H23 H -0.4908(5) 0.9771(5) 1.0968(5)
H24 H -1.1575(5) 0.9502(5) 1.4499(5)
H25 H -1.0792(5) 0.9214(5) 1.3987(5)
H26 H -1.0643(5) 1.0634(6) 1.5395(6)
H27 H -1.0544(5) 0.9455(6) 1.5606(6)
C5B C -0.4889(5) 0.9768(5) 0.9527(5)
N5B N -0.3924(4) 0.9577(4) 0.9433(4)
H20B H -0.3739(4) 0.9147(4) 0.9893(4)
H21B H -0.3627(4) 1.0173(4) 0.9515(4)
H22B H -0.5212(5) 0.9126(5) 0.9448(5)
H23B H -0.5092(5) 1.0229(5) 0.9032(5)
C6B C -0.9532(5) 1.0020(6) 1.4868(6)
N6B N -0.8948(5) 1.0260(5) 1.5715(5)
H24B H -0.8425(5) 1.0498(5) 1.5501(5)
H25B H -0.9208(5) 1.0786(5) 1.6013(5)
H26B H -0.9357(5) 0.9366(6) 1.4605(6)
H27B H -0.9456(5) 1.0545(6) 1.4394(6)
O1B O -1.0476(3) 1.1306(3) 0.9647(3)
O11B O -1.1177(3) 0.9436(3) 1.0033(3)
O12B O -0.9906(3) 0.9621(3) 0.8733(3)
Ge2B Ge -1.1322(1) 0.8119(1) 0.9887(1)
Ge4B Ge -0.9829(1) 0.8325(1) 0.8437(1)
Ge5B Ge -1.0187(1) 1.2239(1) 0.8647(1)
Ge8B Ge -1.1638(1) 1.2087(1) 1.0017(1)
O6B O -1.0901(3) 0.7434(3) 1.0874(3)
O15A O -0.9785(3) 0.6633(3) 1.2205(3)
O2B O -0.8817(3) 0.7778(3) 0.8822(3)
O5B O -1.0780(3) 0.7671(3) 0.8848(3)
O13B O -1.2455(3) 0.7941(3) 0.9661(3)
O17B O -1.1177(3) 1.2859(3) 0.9101(3)
O21B O -1.0191(3) 1.1346(3) 0.7716(3)
H2B H -1.0190(51) 1.0762(3) 0.7930(3)
O3B O -1.2537(3) 1.2987(3) 1.0196(3)
O22B O -1.2310(3) 1.0998(3) 0.9763(3)
H3B H -1.1994(8) 1.0483(7) 0.9768(50)
Ge3B Ge -1.3685(1) 1.3117(1) 1.0124(1)
Ge6B Ge -1.3382(1) 0.7067(1) 0.9928(1)
Zn2A Zn -0.8635(1) 0.5810(1) 1.1708(1)
O4B O -1.4164(3) 1.2709(3) 1.1182(3)
O10B O -1.4148(3) 1.2444(3) 0.9150(3)
O14B O -1.3843(3) 1.4440(3) 0.9978(3)
O9B O -1.3734(3) 0.7832(3) 1.0891(3)
O16B O -1.3900(3) 0.7344(3) 0.8795(3)
O18B O -1.4511(3) 0.6305(3) 1.0318(3)
O20B O -1.2716(3) 0.5959(3) 1.0020(4)
H1B H -1.3041(3) 0.5453(6) 1.0049(55)
Ge1B Ge -1.5131(1) 1.3336(1) 1.1605(1)
Ge7B Ge -1.4756(1) 0.7284(1) 1.1340(1)
Zn1B Zn -1.3586(1) 0.8967(1) 0.8177(1)
O8A O -0.5118(3) 1.1682(3) 0.7818(3)
O7B O -0.5120(3) 0.4629(3) 1.1290(3)
O19C O -0.5370(3) 1.1271(3) 1.2780(3)
N1B N -1.2451(4) 0.8497(4) 0.7539(4)
C1B C -1.1872(6) 0.9420(7) 0.7358(7)
C2B C -1.2412(7) 1.0347(6) 0.7119(7)
N2B N -1.3128(5) 1.0490(5) 0.7735(5)
H4B H -1.2150(4) 0.8049(4) 0.7910(4)
H5B H -1.2595(4) 0.8183(4) 0.6993(4)
H6B H -1.1500(6) 0.9560(7) 0.7912(7)
H7B H -1.1478(6) 0.9269(7) 0.6845(7)
H8B H -1.2025(7) 1.0946(6) 0.7145(7)
H9B H -1.2651(7) 1.0285(6) 0.6482(7)
H10B H -1.3580(5) 1.0830(5) 0.7441(5)
H11B H -1.2943(5) 1.0858(5) 0.8238(5)
O16B_2 O -0.3900(3) 0.7344(3) 0.8795(3)
O10B_2 O -0.4148(3) 1.2444(3) 0.9150(3)
O14B_2 O -0.3843(3) 0.4440(3) 0.9978(3)
O18_2 O -0.5489(3) 0.3695(3) 0.9682(3)
O18B_2 O -0.4511(3) 0.6305(3) 1.0318(3)
O17A O -1.1177(3) 1.2141(3) 1.4101(3)
Ge7A Ge -0.4756(1) 0.7716(1) 0.6340(1)
Ge7B_2 Ge -0.4756(1) 0.7284(1) 1.1340(1)
Ge5A Ge -1.0187(1) 1.2761(1) 1.3647(1)
Ge1B_2 Ge -0.5131(1) 1.3336(1) 1.1605(1)
Ge10_2 Ge -0.5000 1.5000 1.0000
Zn1C Zn -0.6414(1) 1.3967(1) 0.6823(1)
Zn1B_2 Zn -0.3586(1) 0.8967(1) 0.8177(1)
Zn2B Zn -0.8635(1) 0.9190(1) 1.6708(1)
O15B O -0.9785(3) 0.8367(3) 0.7205(3)
O15C O -1.0215(3) 1.3367(3) 0.7795(3)
Ge4A Ge -0.9829(1) 0.6675(1) 1.3437(1)
Zn2C Zn -1.1365(1) 1.4190(1) 0.8292(1)
N3A N -0.7315(6) 0.6240(8) 1.2084(7)
N4A N -0.8299(5) 0.4647(5) 1.2728(5)
N6A N -0.8948(5) 0.4740(5) 1.0715(5)
Ge7_2 Ge -1.5244(1) 1.2716(1) 0.8660(1)
Ge10_3 Ge -1.5000 1.5000 1.0000
Ge1_2 Ge -1.4869(1) 0.6664(1) 0.8395(1)
Ge10_4 Ge -1.5000 0.5000 1.0000
O7B_2 O -1.5120(3) 1.4629(3) 1.1290(3)
O8B O -1.5118(3) 1.3318(3) 1.2818(3)
O16_2 O -1.6100(3) 1.2656(3) 1.1205(3)
O8C O -1.4882(3) 0.8318(3) 1.2182(3)
O10_2 O -1.5852(3) 0.7556(3) 1.0850(3)
O19B O -1.4630(3) 0.6271(3) 1.2220(3)
O19A O -1.4630(3) 0.8729(3) 0.7220(3)
N5B_2 N -1.3924(4) 0.9577(4) 0.9433(4)
Ge1A Ge -0.5131(1) 1.1664(1) 0.6605(1)
Ge1B_3 Ge -0.5131(1) 0.3336(1) 1.1605(1)
Ge7C Ge -0.5244(1) 1.2284(1) 1.3660(1)
H12A H -0.6970(6) 0.6195(8) 1.1577(7)
H13A H -0.7312(6) 0.6898(8) 1.2277(7)
H18A H -0.8500(5) 0.4825(5) 1.3296(5)
H19A H -0.8549(5) 0.4044(5) 1.2560(5)
H24A H -0.8425(5) 0.4502(5) 1.0501(5)
H25A H -0.9208(5) 0.4214(5) 1.1013(5)
H20B_2 H -1.3739(4) 0.9147(4) 0.9893(4)
H21B_2 H -1.3627(4) 1.0173(4) 0.9515(4)
C3A C -0.6945(6) 0.5607(8) 1.2816(7)
C4A C -0.7348(7) 0.4566(8) 1.2756(8)
H14A H -0.7066(6) 0.5909(8) 1.3421(7)
H15A H -0.6300(6) 0.5560(8) 1.2756(7)
H16A H -0.7150(7) 0.4222(8) 1.2195(8)
H17A H -0.7155(7) 0.4163(8) 1.3296(8)
loop_
_geom_bond_atom_site_label_1
_geom_bond_atom_site_label_2
_geom_bond_site_symmetry_1
_geom_bond_site_symmetry_2
Ge1 O4 1_555 1_555
Ge2 O5 1_555 1_555
Ge3 O3 1_555 1_555
Ge4 O2 1_555 1_555
Ge5 O1 1_555 1_555
Ge6 O9 1_555 1_555
Ge7 O9 1_555 1_555
Ge8 O1 1_555 1_555
Ge9 O1 1_555 1_555
Ge10 O7 1_555 1_555
Zn1 O16 1_555 1_555
Zn2 O15 1_555 1_555
O2 Ge8B 1_555 1_555
O3 Ge8 1_555 1_555
O4 Ge3 1_555 1_555
O5 Ge4 1_555 1_555
O6 Ge2 1_555 1_555
O7 Ge1 1_555 1_555
O8 Ge1 1_555 1_555
O10 Ge3 1_555 1_555
O11 Ge2 1_555 1_555
O12 Ge4 1_555 1_555
O13 Ge2 1_555 1_555
O14 Ge3 1_555 1_555
O15 Ge4 1_555 1_555
O16 Ge6 1_555 1_555
O17 Ge5 1_555 1_555
O18 Ge6 1_555 1_555
O19 Ge7 1_555 1_555
O20 Ge6 1_555 1_555
O21 Ge5 1_555 1_555
O22 Ge8 1_555 1_555
N1 Zn1 1_555 1_555
C1 N1 1_555 1_555
C2 C1 1_555 1_555
N2 Zn1 1_555 1_555
N3 Zn2 1_555 1_555
C3 N3 1_555 1_555
C4 C3 1_555 1_555
N4 Zn2 1_555 1_555
N5 Zn1 1_555 1_555
C5 N5 1_555 1_555
N6 Zn2 1_555 1_555
C6 N6 1_555 1_555
H1 O20 1_555 1_555
H2 O21 1_555 1_555
H3 O22 1_555 1_555
H4 N1 1_555 1_555
H5 N1 1_555 1_555
H6 C1 1_555 1_555
H7 C1 1_555 1_555
H8 C2 1_555 1_555
H9 C2 1_555 1_555
H10 N2 1_555 1_555
H11 N2 1_555 1_555
H12 N3 1_555 1_555
H13 N3 1_555 1_555
H14 C3 1_555 1_555
H15 C3 1_555 1_555
H16 C4 1_555 1_555
H17 C4 1_555 1_555
H18 N4 1_555 1_555
H19 N4 1_555 1_555
H20 N5 1_555 1_555
H21 N5 1_555 1_555
H22 C5 1_555 1_555
H23 C5 1_555 1_555
H24 N6 1_555 1_555
H25 N6 1_555 1_555
H26 C6 1_555 1_555
H27 C6 1_555 1_555
C5B C5 1_555 1_555
N5B C5B 1_555 1_555
H20B N5B 1_555 1_555
H21B N5B 1_555 1_555
H22B C5B 1_555 1_555
H23B C5B 1_555 1_555
C6B C6 1_555 1_555
N6B C6B 1_555 1_555
H24B N6B 1_555 1_555
H25B N6B 1_555 1_555
H26B C6B 1_555 1_555
H27B C6B 1_555 1_555
O1B Ge9 1_555 1_555
O11B Ge9 1_555 1_555
O12B Ge9 1_555 1_555
Ge2B O11B 1_555 1_555
Ge4B O12B 1_555 1_555
Ge5B O6 1_555 1_555
Ge8B O1B 1_555 1_555
O6B Ge5 1_555 1_555
O15A Ge5 1_555 1_555
O2B Ge8 1_555 1_555
O5B Ge2B 1_555 1_555
O13B Ge2B 1_555 1_555
O17B Ge5B 1_555 1_555
O21B Ge5B 1_555 1_555
H2B O21B 1_555 1_555
O3B Ge8B 1_555 1_555
O22B Ge8B 1_555 1_555
H3B O22B 1_555 1_555
Ge3B O3B 1_555 1_555
Ge6B O13B 1_555 1_555
Zn2A O17 1_555 1_555
O4B Ge3B 1_555 1_555
O10B Ge3B 1_555 1_555
O14B Ge3B 1_555 1_555
O9B Ge6B 1_555 1_555
O16B Ge6B 1_555 1_555
O18B Ge6B 1_555 1_555
O20B Ge6B 1_555 1_555
H1B O20B 1_555 1_555
Ge1B O4B 1_555 1_555
Ge7B O9B 1_555 1_555
Zn1B O16B 1_555 1_555
O8A Ge7 1_555 1_555
O7B Ge10 1_555 1_555
O19C Zn1 1_555 1_555
N1B Zn1B 1_555 1_555
C1B N1B 1_555 1_555
C2B C1B 1_555 1_555
N2B Zn1B 1_555 1_555
H4B N1B 1_555 1_555
H5B N1B 1_555 1_555
H6B C1B 1_555 1_555
H7B C1B 1_555 1_555
H8B C2B 1_555 1_555
H9B C2B 1_555 1_555
H10B N2B 1_555 1_555
H11B N2B 1_555 1_555
O16B_2 Ge1 1_555 1_555
O10B_2 Ge7 1_555 1_555
O14B_2 Ge10 1_555 1_555
O18_2 Ge10 1_555 1_555
O18B_2 Ge10 1_555 1_555
O17A Zn2 1_555 1_555
Ge7A O8 1_555 1_555
Ge7B_2 O10 1_555 1_555
Ge5A O15 1_555 1_555
Ge1B_2 O16 1_555 1_555
Ge10_2 O18 1_555 1_555
Zn1C O19 1_555 1_555
Zn1B_2 N5B 1_555 1_555
Zn2B N6B 1_555 1_555
O15B Ge4B 1_555 1_555
O15C Ge5B 1_555 1_555
Ge4A O15A 1_555 1_555
Zn2C O17B 1_555 1_555
N3A Zn2A 1_555 1_555
N4A Zn2A 1_555 1_555
N6A Zn2A 1_555 1_555
Ge7_2 O10B 1_555 1_555
Ge10_3 O14B 1_555 1_555
Ge1_2 O16B 1_555 1_555
Ge10_4 O18B 1_555 1_555
O7B_2 Ge1B 1_555 1_555
O8B Ge1B 1_555 1_555
O16_2 Ge1B 1_555 1_555
O8C Ge7B 1_555 1_555
O10_2 Ge7B 1_555 1_555
O19B Ge7B 1_555 1_555
O19A Zn1B 1_555 1_555
N5B_2 Zn1B 1_555 1_555
Ge1A O8A 1_555 1_555
Ge1B_3 O7B 1_555 1_555
Ge7C O19C 1_555 1_555
H12A N3A 1_555 1_555
H13A N3A 1_555 1_555
H18A N4A 1_555 1_555
H19A N4A 1_555 1_555
H24A N6A 1_555 1_555
H25A N6A 1_555 1_555
H20B_2 N5B_2 1_555 1_555
H21B_2 N5B_2 1_555 1_555
C3A N3A 1_555 1_555
C4A N4A 1_555 1_555
H14A C3A 1_555 1_555
H15A C3A 1_555 1_555
H16A C4A 1_555 1_555
H17A C4A 1_555 1_555
Ge6 O13 1_555 1_555
Ge7 O18 1_555 1_555
Ge8 O17 1_555 1_555
Ge9 O11 1_555 1_555
Ge9 O12 1_555 1_555
Ge10 O14 1_555 1_555
C2 N2 1_555 1_555
C4 N4 1_555 1_555
O1B Ge5B 1_555 1_555
Ge2B O6B 1_555 1_555
Ge4B O2B 1_555 1_555
Ge4B O5B 1_555 1_555
Ge8B O17B 1_555 1_555
O15A Zn2A 1_555 1_555
O18B Ge7B 1_555 1_555
C2B N2B 1_555 1_555
O16B_2 Zn1B_2 1_555 1_555
O18B_2 Ge7B_2 1_555 1_555
O17A Ge5A 1_555 1_555
O15C Zn2C 1_555 1_555
Ge10_3 O7B_2 1_555 1_555
C3A C4A 1_555 1_555

#END
