
#######################################################################
#
#                 Cambridge Crystallographic Data Centre
#                                CCDC 
#
#######################################################################
#
# If this CIF has been generated from an entry in the Cambridge 
# Structural Database, then it will include bibliographic, chemical, 
# crystal, experimental, refinement or atomic coordinate data resulting 
# from the CCDC's data processing and validation procedures.
#
#######################################################################

data_RAHKAO
_symmetry_cell_setting           monoclinic
_symmetry_space_group_name_H-M   'P 21'
_symmetry_Int_Tables_number      4
_space_group_name_Hall           'P 2yb'
loop_
_symmetry_equiv_pos_site_id
_symmetry_equiv_pos_as_xyz
1 x,y,z
2 -x,1/2+y,-z
_cell_length_a                   5.8742(1)
_cell_length_b                   6.2079(1)
_cell_length_c                   15.5401(3)
_cell_angle_alpha                90
_cell_angle_beta                 90.741(1)
_cell_angle_gamma                90
_cell_volume                     566.645
loop_
_atom_site_label
_atom_site_type_symbol
_atom_site_fract_x
_atom_site_fract_y
_atom_site_fract_z
Sb1 Sb -0.075553(8) 0.98505(2) 0.910949(3)
F1 F -0.32967(16) 1.02436(13) 0.83367(6)
F2 F -0.2741(2) 0.7998(2) 0.97883(8)
F3 F -0.2077(2) 1.2163(2) 0.98141(8)
N1 N 0.49747(16) 0.44913(16) 0.86211(6)
H1 H 0.4834 0.3217 0.8363
H2 H 0.4697 0.4348 0.9180
H3 H 0.6383 0.4985 0.8553
O1 O -0.07177(16) 0.6368(2) 0.82942(8)
O2 O 0.07792(19) 0.30620(18) 0.82656(8)
C1 C 0.1896(3) 0.4414(4) 0.61770(10)
H4 H 0.0686 0.5375 0.6213
C2 C 0.1766(5) 0.2675(6) 0.56173(14)
H5 H 0.0465 0.2482 0.5279
C3 C 0.3543(6) 0.1228(5) 0.55566(16)
H6 H 0.3449 0.0067 0.5180
C4 C 0.5475(5) 0.1538(4) 0.60691(14)
H7 H 0.6672 0.0561 0.6039
C5 C 0.5642(3) 0.3281(3) 0.66237(10)
H8 H 0.6955 0.3488 0.6954
C6 C 0.3835(2) 0.4718(4) 0.66836(6)
C7 C 0.3960(2) 0.6597(2) 0.73021(8)
H9 H 0.2947 0.7723 0.7095
H10 H 0.5496 0.7170 0.7302
C8 C 0.33221(16) 0.60334(16) 0.82330(7)
H11 H 0.3353 0.7361 0.8574
C9 C 0.09326(16) 0.5070(2) 0.82781(6)
Sb1_2 Sb -0.075553(8) -0.01495(2) 0.910949(3)
O2_2 O 0.07792(19) 1.30620(18) 0.82656(8)
loop_
_geom_bond_atom_site_label_1
_geom_bond_atom_site_label_2
_geom_bond_site_symmetry_1
_geom_bond_site_symmetry_2
Sb1 F1 1_555 1_555
F2 Sb1 1_555 1_555
F3 Sb1 1_555 1_555
N1 H1 1_555 1_555
H2 N1 1_555 1_555
H3 N1 1_555 1_555
O1 Sb1 1_555 1_555
O2 C9 1_555 1_555
C1 H4 1_555 1_555
C2 C1 1_555 1_555
H5 C2 1_555 1_555
C3 C2 1_555 1_555
H6 C3 1_555 1_555
C4 C3 1_555 1_555
H7 C4 1_555 1_555
C5 C4 1_555 1_555
H8 C5 1_555 1_555
C6 C1 1_555 1_555
C7 C6 1_555 1_555
H9 C7 1_555 1_555
H10 C7 1_555 1_555
C8 N1 1_555 1_555
H11 C8 1_555 1_555
C9 O1 1_555 1_555
Sb1_2 O2 1_555 1_555
O2_2 Sb1 1_555 1_555
C5 C6 1_555 1_555
C7 C8 1_555 1_555
C8 C9 1_555 1_555

#END
