
#######################################################################
#
#                 Cambridge Crystallographic Data Centre
#                                CCDC 
#
#######################################################################
#
# If this CIF has been generated from an entry in the Cambridge 
# Structural Database, then it will include bibliographic, chemical, 
# crystal, experimental, refinement or atomic coordinate data resulting 
# from the CCDC's data processing and validation procedures.
#
#######################################################################

data_RAHKIW
_symmetry_cell_setting           monoclinic
_symmetry_space_group_name_H-M   'C 2/c'
_symmetry_Int_Tables_number      15
_space_group_name_Hall           '-C 2yn'
loop_
_symmetry_equiv_pos_site_id
_symmetry_equiv_pos_as_xyz
1 x,y,z
2 1/2+x,1/2+y,z
3 -x,y,1/2-z
4 1/2-x,1/2+y,1/2-z
5 -x,-y,-z
6 1/2-x,1/2-y,-z
7 x,-y,1/2+z
8 1/2+x,1/2-y,1/2+z
_cell_length_a                   23.900(3)
_cell_length_b                   20.5531(9)
_cell_length_c                   15.2849(13)
_cell_angle_alpha                90
_cell_angle_beta                 127.544(3)
_cell_angle_gamma                90
_cell_volume                     5953.17
loop_
_atom_site_label
_atom_site_type_symbol
_atom_site_fract_x
_atom_site_fract_y
_atom_site_fract_z
Zn1 Zn 0.28931(6) -0.02441(5) 0.58246(10)
Cl1 Cl 0.23901(15) 0.04050(14) 0.6378(2)
Cl2 Cl 0.40190(13) 0.01470(11) 0.6644(2)
Cl3 Cl 0.29613(17) -0.12754(12) 0.6415(2)
Cl4 Cl 0.23225(16) -0.02299(14) 0.3974(2)
Zn2 Zn 0.51215(13) -0.28291(13) 0.7284(2)
Cl5 Cl 0.4912(8) -0.1783(4) 0.7223(7)
Cl6 Cl 0.5295(4) -0.2674(3) 0.5998(6)
Cl7 Cl 0.4043(2) -0.3408(2) 0.6445(4)
Zn2B Zn 0.48785(13) -0.28291(13) 0.7716(2)
Cl5B Cl 0.5088(8) -0.1783(4) 0.7777(7)
Cl6B Cl 0.4705(4) -0.2674(3) 0.9002(6)
Cl7B Cl 0.5957(2) -0.3408(2) 0.8555(4)
O9 O 0.4219(5) -0.5239(4) 0.6744(8)
O10 O 0.2777(8) -0.1049(6) -0.1677(10)
Tb1 Tb 0.38165(4) -0.25722(3) 0.11873(6)
O1 O 0.4257(3) -0.1802(3) 0.2557(6)
O2 O 0.5408(4) -0.2015(3) 0.3928(6)
O3 O 0.2929(4) -0.2499(3) 0.1359(6)
O4 O 0.1810(4) -0.2380(3) 0.0714(6)
O5 O 0.4356(4) -0.3164(3) 0.2836(6)
O6 O 0.5526(4) -0.3374(3) 0.3911(6)
N1 N 0.4726(6) -0.0537(5) 0.5661(9)
H1 H 0.4707 -0.0291 0.6098
N2 N 0.3169(6) -0.2006(5) 0.4692(8)
H2 H 0.3314 -0.1915 0.5349
N3 N 0.4742(8) -0.4514(5) 0.5808(12)
H3 H 0.4711 -0.4734 0.6255
C1 C 0.4822(5) -0.1716(4) 0.3539(8)
C2 C 0.4792(5) -0.1280(4) 0.4249(8)
C3 C 0.5368(6) -0.1222(5) 0.5366(9)
H4 H 0.5791 -0.1429 0.5636
C4 C 0.5310(7) -0.0857(5) 0.6071(11)
H5 H 0.5681 -0.0840 0.6823
C5 C 0.4140(6) -0.0568(5) 0.4575(10)
H6 H 0.3728 -0.0349 0.4335
C6 C 0.4171(6) -0.0923(5) 0.3861(9)
H7 H 0.3786 -0.0933 0.3117
C7 C 0.2459(5) -0.2392(4) 0.1472(8)
C8 C 0.2702(5) -0.2276(4) 0.2643(8)
C9 C 0.3399(6) -0.2383(5) 0.3529(9)
H8 H 0.3717 -0.2561 0.3434
C10 C 0.3613(7) -0.2209(7) 0.4599(10)
H9 H 0.4082 -0.2248 0.5216
C11 C 0.2490(8) -0.1914(6) 0.3887(11)
H10 H 0.2191 -0.1756 0.4034
C12 C 0.2238(6) -0.2057(5) 0.2821(9)
H11 H 0.1762 -0.2006 0.2236
C13 C 0.4909(5) -0.3423(4) 0.3628(8)
C14 C 0.4837(5) -0.3832(4) 0.4373(8)
C15 C 0.5447(7) -0.4031(6) 0.5409(10)
H12 H 0.5896 -0.3945 0.5618
C16 C 0.5354(10) -0.4365(6) 0.6119(11)
H13 H 0.5747 -0.4477 0.6825
C17 C 0.4114(8) -0.4344(7) 0.4782(13)
H14 H 0.3677 -0.4460 0.4594
C18 C 0.4166(7) -0.4000(5) 0.4068(11)
H15 H 0.3760 -0.3876 0.3382
O7 O 0.3184(4) -0.3587(3) 0.0605(6)
O8 O 0.3279(3) -0.1509(3) 0.0377(5)
Tb1B Tb 0.61835(4) -0.25722(3) 0.38127(6)
Tb1E Tb 0.11835(4) -0.24278(3) -0.11873(6)
O2B O 0.4592(4) -0.2015(3) 0.1072(6)
O4E O 0.3190(4) -0.2620(3) -0.0714(6)
O6B O 0.4474(4) -0.3374(3) 0.1089(6)
loop_
_geom_bond_atom_site_label_1
_geom_bond_atom_site_label_2
_geom_bond_site_symmetry_1
_geom_bond_site_symmetry_2
Tb1 O1 1_555 1_555
Zn1 Cl1 1_555 1_555
Zn2 Cl5 1_555 1_555
Cl2 Zn1 1_555 1_555
Cl3 Zn1 1_555 1_555
Cl4 Zn1 1_555 1_555
Cl5 Zn2B 1_555 1_555
Cl6 Zn2 1_555 1_555
Cl7 Zn2 1_555 1_555
O1 C1 1_555 1_555
O2 C1 1_555 1_555
O3 Tb1 1_555 1_555
O4 C7 1_555 1_555
O5 Tb1 1_555 1_555
O6 C13 1_555 1_555
N1 H1 1_555 1_555
N2 H2 1_555 1_555
N3 H3 1_555 1_555
C1 C2 1_555 1_555
C2 C3 1_555 1_555
C3 H4 1_555 1_555
C4 N1 1_555 1_555
H5 C4 1_555 1_555
C5 N1 1_555 1_555
H6 C5 1_555 1_555
C6 C2 1_555 1_555
H7 C6 1_555 1_555
C7 O3 1_555 1_555
C8 C7 1_555 1_555
C9 C8 1_555 1_555
H8 C9 1_555 1_555
C10 N2 1_555 1_555
H9 C10 1_555 1_555
C11 N2 1_555 1_555
H10 C11 1_555 1_555
C12 C8 1_555 1_555
H11 C12 1_555 1_555
C13 O5 1_555 1_555
C14 C13 1_555 1_555
C15 C14 1_555 1_555
H12 C15 1_555 1_555
C16 N3 1_555 1_555
H13 C16 1_555 1_555
C17 N3 1_555 1_555
H14 C17 1_555 1_555
C18 C14 1_555 1_555
H15 C18 1_555 1_555
O7 Tb1 1_555 1_555
O8 Tb1 1_555 1_555
Tb1B O2 1_555 1_555
Tb1E O4 1_555 1_555
Zn2B Zn2 1_555 1_555
Cl5B Zn2 1_555 1_555
Cl6B Zn2B 1_555 1_555
Cl7B Zn2 1_555 1_555
O2B Tb1 1_555 1_555
O4E Tb1 1_555 1_555
O6B Tb1 1_555 1_555
Cl5 Cl5B 1_555 1_555
Cl7 Zn2B 1_555 1_555
O6 Tb1B 1_555 1_555
C3 C4 1_555 1_555
C5 C6 1_555 1_555
C9 C10 1_555 1_555
C11 C12 1_555 1_555
C15 C16 1_555 1_555
C17 C18 1_555 1_555
Zn2B Cl5B 1_555 1_555
Zn2B Cl7B 1_555 1_555

#END
