
#######################################################################
#
#                 Cambridge Crystallographic Data Centre
#                                CCDC 
#
#######################################################################
#
# If this CIF has been generated from an entry in the Cambridge 
# Structural Database, then it will include bibliographic, chemical, 
# crystal, experimental, refinement or atomic coordinate data resulting 
# from the CCDC's data processing and validation procedures.
#
#######################################################################

data_RAHPOH
_symmetry_cell_setting           monoclinic
_symmetry_space_group_name_H-M   'P 21/n'
_symmetry_Int_Tables_number      14
_space_group_name_Hall           '-P 2yn'
loop_
_symmetry_equiv_pos_site_id
_symmetry_equiv_pos_as_xyz
1 x,y,z
2 1/2-x,1/2+y,1/2-z
3 -x,-y,-z
4 1/2+x,1/2-y,1/2+z
_cell_length_a                   11.4051(3)
_cell_length_b                   18.8143(6)
_cell_length_c                   11.9865(4)
_cell_angle_alpha                90
_cell_angle_beta                 110.787(2)
_cell_angle_gamma                90
_cell_volume                     2404.63
loop_
_atom_site_label
_atom_site_type_symbol
_atom_site_fract_x
_atom_site_fract_y
_atom_site_fract_z
Sr1 Sr 0.56589(4) 0.28031(2) 0.60075(3)
O1 O 0.4600(3) 0.16912(14) 0.4777(2)
O2 O 0.4677(3) 0.19231(15) 0.2799(2)
O3 O 0.4002(3) 0.07901(14) 0.3353(2)
O4 O 0.5213(3) 0.18553(15) 0.7374(3)
C1 C 0.1913(4) 0.1990(2) 0.4171(4)
O5 O 0.6189(3) 0.11771(16) 0.4083(2)
O6 O 0.5260(3) 0.08624(17) 0.8353(3)
C2 C 0.6689(4) 0.1455(2) 0.3355(4)
O7 O 0.1912(3) 0.18506(18) 0.3183(2)
O8 O 0.6719(4) 0.28485(19) 0.4440(3)
O9 O 0.5552(3) 0.03795(16) 0.1722(3)
H1 H 0.5292 -0.0105 0.1735
O10 O 0.3728(3) 0.06961(17) 0.0372(3)
O11 O 0.2608(3) 0.02197(17) 0.3951(3)
O12 O 0.1220(4) 0.2483(2) 0.4374(3)
H2 H 0.0665 0.2761 0.3732
O13 O 0.7776(3) 0.1388(2) 0.3450(3)
C3 C 0.3379(4) 0.0684(2) 0.4077(3)
C4 C 0.5033(4) 0.1200(2) 0.7402(4)
O14 O 0.7527(4) 0.3550(2) 0.3419(3)
H3 H 0.7988 0.3819 0.4119
C5 C 0.6833(4) 0.3020(2) 0.3517(4)
C6 C 0.4781(4) 0.0841(2) 0.1045(3)
C7 C 0.2712(4) 0.1602(2) 0.5269(3)
H4 H 0.3046 0.1935 0.5910
H5 H 0.2200 0.1260 0.5477
C8 C 0.3805(4) 0.1211(2) 0.5113(3)
C9 C 0.6225(5) 0.2648(2) 0.2340(4)
H6 H 0.5528 0.2920 0.1831
H7 H 0.6829 0.2587 0.1958
C10 C 0.4551(4) 0.0789(2) 0.6243(3)
H8 H 0.5237 0.0575 0.6079
H9 H 0.3991 0.0425 0.6311
C11 C 0.5333(5) 0.1576(2) 0.1150(3)
H10 H 0.6069 0.1565 0.0939
H11 H 0.4723 0.1889 0.0618
C12 C 0.5717(4) 0.1904(2) 0.2406(3)
B1 B 0.4848(5) 0.1417(2) 0.3752(4)
O15 O 0.3934(4) 0.3297(2) 0.6723(3)
H12 H 0.3715 0.3342 0.7420
H13 H 0.3487 0.3610 0.6217
O16 O 0.7771(3) 0.21120(18) 0.6833(3)
H14 H 0.8047 0.1754 0.6445
H15 H 0.8517 0.2427 0.7148
O17 O 0.6356(4) 0.4124(2) 0.6068(3)
H16 H 0.5858 0.4501 0.6193
H17 H 0.7154 0.4242 0.6572
O18 O 0.3961(4) 0.3425(2) 0.4224(3)
H18 H 0.3430 0.3287 0.3457
H19 H 0.3438 0.3722 0.4609
Sr1C Sr 0.06589(4) 0.21969(2) 0.10075(3)
O7C O 0.6912(3) 0.31494(18) 0.8183(2)
O19 O 0.8894(5) 0.0983(3) 0.6038(5)
H20 H 0.8484 0.1132 0.5177
H21 H 0.8476 0.0544 0.6118
O20 O 0.7800(6) 0.0606(3) 0.0209(5)
H22 H 0.6851 0.0624 -0.0354
H23 H 0.7792 0.0392 0.0886
O21 O 1.0177(6) 0.0264(3) 0.8505(6)
H24 H 0.9879 0.0343 0.7690
H25 H 0.9766 0.0623 0.8781
loop_
_geom_bond_atom_site_label_1
_geom_bond_atom_site_label_2
_geom_bond_site_symmetry_1
_geom_bond_site_symmetry_2
Sr1 O1 1_555 1_555
O1 C8 1_555 1_555
O2 C12 1_555 1_555
O3 C3 1_555 1_555
O4 Sr1 1_555 1_555
C1 O7 1_555 1_555
O5 C2 1_555 1_555
O6 C4 1_555 1_555
C2 O13 1_555 1_555
O7 Sr1C 1_555 1_555
O8 Sr1 1_555 1_555
O9 H1 1_555 1_555
O10 C6 1_555 1_555
O11 C3 1_555 1_555
O12 C1 1_555 1_555
H2 O12 1_555 1_555
C3 C8 1_555 1_555
C4 O4 1_555 1_555
O14 H3 1_555 1_555
C5 O8 1_555 1_555
C6 O9 1_555 1_555
C7 C1 1_555 1_555
H4 C7 1_555 1_555
H5 C7 1_555 1_555
C8 C7 1_555 1_555
C9 C5 1_555 1_555
H6 C9 1_555 1_555
H7 C9 1_555 1_555
C10 C4 1_555 1_555
H8 C10 1_555 1_555
H9 C10 1_555 1_555
C11 C6 1_555 1_555
H10 C11 1_555 1_555
H11 C11 1_555 1_555
C12 C2 1_555 1_555
B1 O1 1_555 1_555
O15 Sr1 1_555 1_555
H12 O15 1_555 1_555
H13 O15 1_555 1_555
O16 Sr1 1_555 1_555
H14 O16 1_555 1_555
H15 O16 1_555 1_555
O17 Sr1 1_555 1_555
H16 O17 1_555 1_555
H17 O17 1_555 1_555
O18 Sr1 1_555 1_555
H18 O18 1_555 1_555
H19 O18 1_555 1_555
O19 H20 1_555 1_555
H21 O19 1_555 1_555
O20 H22 1_555 1_555
H23 O20 1_555 1_555
O21 H24 1_555 1_555
H25 O21 1_555 1_555
O7C Sr1 1_555 1_555
O2 B1 1_555 1_555
O3 B1 1_555 1_555
O5 B1 1_555 1_555
O14 C5 1_555 1_555
C8 C10 1_555 1_555
C9 C12 1_555 1_555
C11 C12 1_555 1_555

#END
