
#######################################################################
#
#                 Cambridge Crystallographic Data Centre
#                                CCDC 
#
#######################################################################
#
# If this CIF has been generated from an entry in the Cambridge 
# Structural Database, then it will include bibliographic, chemical, 
# crystal, experimental, refinement or atomic coordinate data resulting 
# from the CCDC's data processing and validation procedures.
#
#######################################################################

data_RAHQAT
_symmetry_cell_setting           monoclinic
_symmetry_space_group_name_H-M   'P 21/c'
_symmetry_Int_Tables_number      14
_space_group_name_Hall           '-P 2ybc'
loop_
_symmetry_equiv_pos_site_id
_symmetry_equiv_pos_as_xyz
1 x,y,z
2 x,1/2-y,1/2+z
3 -x,-y,-z
4 -x,1/2+y,1/2-z
_cell_length_a                   16.468(3)
_cell_length_b                   5.0590(10)
_cell_length_c                   23.804(5)
_cell_angle_alpha                90.00
_cell_angle_beta                 107.37(3)
_cell_angle_gamma                90.00
_cell_volume                     1892.71
loop_
_atom_site_label
_atom_site_type_symbol
_atom_site_fract_x
_atom_site_fract_y
_atom_site_fract_z
Ag1 Ag 0.023726(14) 0.39483(4) 0.283220(9)
Ag2 Ag 0.114009(14) 0.34417(4) 0.414770(9)
S1 S -0.04639(5) 0.88489(12) 0.36257(3)
S2 S 0.18291(4) 0.87092(12) 0.33501(3)
O1 O -0.02487(13) 0.6061(3) 0.35939(9)
O2 O -0.05668(13) 1.0230(4) 0.30713(8)
O3 O 0.01143(12) 1.0177(4) 0.41306(8)
O4 O 0.16144(12) 0.5910(3) 0.33732(9)
O5 O 0.12114(12) 1.0118(4) 0.28796(9)
O6 O 0.19999(13) 0.9990(4) 0.39227(8)
C1 C -0.14772(18) 0.9008(5) 0.37489(12)
C2 C -0.20338(19) 1.0881(5) 0.34367(13)
C3 C -0.2818(2) 1.1301(6) 0.35485(14)
C4 C -0.3026(2) 0.9860(6) 0.39647(14)
C5 C -0.24727(18) 0.7872(5) 0.42922(12)
C6 C -0.2703(2) 0.6309(6) 0.47121(13)
C7 C -0.2194(2) 0.4319(6) 0.50045(13)
C8 C -0.1397(2) 0.3862(5) 0.49090(12)
C9 C -0.1143(2) 0.5412(5) 0.45143(12)
C10 C -0.16751(17) 0.7412(5) 0.41860(11)
C11 C 0.28079(18) 0.8849(5) 0.31753(12)
C12 C 0.2867(2) 1.0707(6) 0.27704(13)
H1 H 0.2386 1.1757 0.2578
C13 C 0.3644(2) 1.1065(6) 0.26384(14)
H2 H 0.3684 1.2353 0.2357
C14 C 0.4332(2) 0.9563(7) 0.29150(15)
H3 H 0.4850 0.9811 0.2822
C15 C 0.42942(19) 0.7641(6) 0.33372(14)
C16 C 0.5018(2) 0.6096(6) 0.36358(16)
H4 H 0.5534 0.6323 0.3540
C17 C 0.4985(2) 0.4320(7) 0.40506(17)
H5 H 0.5480 0.3350 0.4252
C18 C 0.4219(2) 0.3900(6) 0.41858(15)
H6 H 0.4198 0.2624 0.4474
C19 C 0.35078(19) 0.5306(6) 0.39067(13)
H7 H 0.2995 0.4983 0.4001
C20 C 0.35163(18) 0.7246(5) 0.34776(12)
H8 H -0.1906(18) 1.186(6) 0.3131(13)
H9 H -0.318(2) 1.261(7) 0.3347(14)
H10 H -0.3534(18) 1.012(5) 0.4048(11)
H11 H -0.3195(19) 0.662(5) 0.4777(12)
H12 H -0.2350(19) 0.316(6) 0.5265(13)
H13 H -0.101(2) 0.242(6) 0.5114(13)
H14 H -0.0648(18) 0.504(5) 0.4459(12)
Ag1C Ag -0.023726(14) -0.10517(4) 0.216780(9)
Ag1C_2 Ag -0.023726(14) 0.89483(4) 0.216780(9)
O2_2 O -0.05668(13) 0.0230(4) 0.30713(8)
O2C O 0.05668(13) 0.5230(4) 0.19287(8)
O5_2 O 0.12114(12) 0.0118(4) 0.28796(9)
O5C O -0.12114(12) 0.5118(4) 0.21204(9)
O3_2 O 0.01143(12) 0.0177(4) 0.41306(8)
O6_2 O 0.19999(13) -0.0010(4) 0.39227(8)
C7B C 0.2194(2) 0.5681(6) 0.49955(13)
C8B C 0.1397(2) 0.6138(5) 0.50910(12)
Ag1_2 Ag 0.023726(14) 1.39483(4) 0.283220(9)
Ag2_2 Ag 0.114009(14) 1.34417(4) 0.414770(9)
Ag2B Ag -0.114009(14) 0.65583(4) 0.585230(9)
H12B H 0.2350(19) 0.684(6) 0.4735(13)
H13B H 0.101(2) 0.758(6) 0.4886(13)
loop_
_geom_bond_atom_site_label_1
_geom_bond_atom_site_label_2
_geom_bond_site_symmetry_1
_geom_bond_site_symmetry_2
Ag1 O1 1_555 1_555
Ag2 O1 1_555 1_555
S1 O1 1_555 1_555
S2 O4 1_555 1_555
O2 S1 1_555 1_555
O3 S1 1_555 1_555
O4 Ag1 1_555 1_555
O5 S2 1_555 1_555
O6 S2 1_555 1_555
C1 S1 1_555 1_555
C2 C1 1_555 1_555
C3 C2 1_555 1_555
C4 C3 1_555 1_555
C5 C4 1_555 1_555
C6 C5 1_555 1_555
C7 C6 1_555 1_555
C8 C7 1_555 1_555
C9 C8 1_555 1_555
C10 C1 1_555 1_555
C11 S2 1_555 1_555
C12 C11 1_555 1_555
H1 C12 1_555 1_555
C13 C12 1_555 1_555
H2 C13 1_555 1_555
C14 C13 1_555 1_555
H3 C14 1_555 1_555
C15 C14 1_555 1_555
C16 C15 1_555 1_555
H4 C16 1_555 1_555
C17 C16 1_555 1_555
H5 C17 1_555 1_555
C18 C17 1_555 1_555
H6 C18 1_555 1_555
C19 C18 1_555 1_555
H7 C19 1_555 1_555
C20 C11 1_555 1_555
H8 C2 1_555 1_555
H9 C3 1_555 1_555
H10 C4 1_555 1_555
H11 C6 1_555 1_555
H12 C7 1_555 1_555
H13 C8 1_555 1_555
H14 C9 1_555 1_555
Ag1C O2_2 1_555 1_555
Ag1C_2 O2 1_555 1_555
O2_2 Ag1 1_555 1_555
O2C Ag1 1_555 1_555
O5_2 Ag1 1_555 1_555
O5C Ag1 1_555 1_555
O3_2 Ag2 1_555 1_555
O6_2 Ag2 1_555 1_555
C7B Ag2 1_555 1_555
C8B Ag2 1_555 1_555
Ag1_2 O2 1_555 1_555
Ag2_2 O3 1_555 1_555
Ag2B C7 1_555 1_555
H12B C7B 1_555 1_555
H13B C8B 1_555 1_555
Ag2 O4 1_555 1_555
O5 Ag1_2 1_555 1_555
O5 Ag1C_2 1_555 1_555
O6 Ag2_2 1_555 1_555
C5 C10 1_555 1_555
C8 Ag2B 1_555 1_555
C9 C10 1_555 1_555
C15 C20 1_555 1_555
C19 C20 1_555 1_555
Ag1C O5_2 1_555 1_555
Ag1C_2 O2C 1_555 1_555
Ag1C_2 O5C 1_555 1_555
C7B C8B 1_555 1_555

#END
