
#######################################################################
#
#                 Cambridge Crystallographic Data Centre
#                                CCDC 
#
#######################################################################
#
# If this CIF has been generated from an entry in the Cambridge 
# Structural Database, then it will include bibliographic, chemical, 
# crystal, experimental, refinement or atomic coordinate data resulting 
# from the CCDC's data processing and validation procedures.
#
#######################################################################

data_RAHQUO
_symmetry_cell_setting           triclinic
_symmetry_space_group_name_H-M   'P -1'
_symmetry_Int_Tables_number      2
_space_group_name_Hall           '-P 1'
loop_
_symmetry_equiv_pos_site_id
_symmetry_equiv_pos_as_xyz
1 x,y,z
2 -x,-y,-z
_cell_length_a                   8.518(3)
_cell_length_b                   9.978(4)
_cell_length_c                   10.444(4)
_cell_angle_alpha                108.853(4)
_cell_angle_beta                 98.761(4)
_cell_angle_gamma                103.085(4)
_cell_volume                     793.374
loop_
_atom_site_label
_atom_site_type_symbol
_atom_site_fract_x
_atom_site_fract_y
_atom_site_fract_z
Cu1 Cu 0.0000 1.0000 0.0000
S1 S -0.08636(9) 1.12173(8) 0.43111(7)
S2 S 0.27692(9) 1.26983(8) 0.57036(7)
O1 O -0.0887(2) 0.7931(2) -0.03060(18)
O2 O -0.4152(3) 0.6437(3) -0.0884(2)
O3 O -0.4141(3) 0.4174(3) -0.1471(2)
O4 O -0.1609(3) 0.3498(3) 0.2737(3)
O5 O 0.0923(3) 0.4826(3) 0.3791(3)
O6 O 0.3314(2) 0.9050(2) 0.2859(2)
O7 O 0.2456(2) 0.9131(2) 0.0840(2)
N1 N -0.3528(3) 0.5492(3) -0.0765(2)
N2 N -0.0381(4) 0.4514(3) 0.2937(3)
N3 N 0.2272(3) 0.8628(3) 0.1760(3)
N4 N -0.0166(2) 1.0640(2) 0.1979(2)
N5 N 0.1349(2) 1.1397(2) 0.2938(2)
C1 C -0.1996(3) 0.5929(3) 0.0310(3)
C2 C -0.1914(3) 0.5046(3) 0.1066(3)
H1 H -0.2796 0.4214 0.0893
C3 C -0.0491(3) 0.5421(3) 0.2093(3)
C4 C 0.0835(3) 0.6617(3) 0.2326(3)
H2 H 0.1787 0.6853 0.3022
C5 C 0.0748(3) 0.7467(3) 0.1523(3)
C6 C -0.0693(3) 0.7201(3) 0.0477(2)
C7 C -0.3194(3) 0.9740(4) 0.1727(3)
H3 H -0.3235 0.9250 0.0760
H4 H -0.3773 1.0475 0.1818
H5 H -0.3713 0.9027 0.2085
C8 C -0.1436(3) 1.0465(3) 0.2527(3)
C9 C 0.1177(3) 1.1769(3) 0.4202(3)
C10 C 0.4555(3) 1.2981(3) 0.4959(3)
H6 H 0.5547 1.3165 0.5663
H7 H 0.4442 1.2071 0.4193
C11 C 0.4804(3) 1.4238(3) 0.4428(3)
H8 H 0.3804 1.4073 0.3741
H9 H 0.5706 1.4225 0.3963
Cu1_2 Cu 1.0000 2.0000 1.0000
S1A S 1.08636(9) 1.87827(8) 0.56889(7)
S2A S 0.72308(9) 1.73017(8) 0.42964(7)
O1A O 0.0887(2) 1.2069(2) 0.03060(18)
O2A O 0.4152(3) 1.3563(3) 0.0884(2)
O3A O 0.4141(3) 1.5826(3) 0.1471(2)
O4A O 0.1609(3) 1.6502(3) -0.2737(3)
O5A O -0.0923(3) 1.5174(3) -0.3791(3)
O6A O -0.3314(2) 1.0950(2) -0.2859(2)
O7A O -0.2456(2) 1.0869(2) -0.0840(2)
N1A N 0.3528(3) 1.4508(3) 0.0765(2)
N2A N 0.0381(4) 1.5486(3) -0.2937(3)
N3A N -0.2272(3) 1.1372(3) -0.1760(3)
N4A N 1.0166(2) 1.9360(2) 0.8021(2)
N4A_2 N 0.0166(2) 0.9360(2) -0.1979(2)
N5A N 0.8651(2) 1.8603(2) 0.7062(2)
C1A C 0.1996(3) 1.4071(3) -0.0310(3)
C2A C 0.1914(3) 1.4954(3) -0.1066(3)
H1A H 0.2796 1.5786 -0.0893
C3A C 0.0491(3) 1.4579(3) -0.2093(3)
C4A C -0.0835(3) 1.3383(3) -0.2326(3)
H2A H -0.1787 1.3147 -0.3022
C5A C -0.0748(3) 1.2533(3) -0.1523(3)
C6A C 0.0693(3) 1.2799(3) -0.0477(2)
C7A C 1.3194(3) 2.0260(4) 0.8273(3)
H3A H 1.3235 2.0750 0.9240
H4A H 1.3773 1.9525 0.8182
H5A H 1.3713 2.0973 0.7915
C8A C 1.1436(3) 1.9535(3) 0.7473(3)
C9A C 0.8823(3) 1.8231(3) 0.5798(3)
C10A C 0.5445(3) 1.7019(3) 0.5041(3)
H6A H 0.4453 1.6835 0.4337
H7A H 0.5558 1.7929 0.5807
C11A C 0.5196(3) 1.5762(3) 0.5572(3)
H8A H 0.6196 1.5927 0.6259
H9A H 0.4294 1.5775 0.6037
loop_
_geom_bond_atom_site_label_1
_geom_bond_atom_site_label_2
_geom_bond_site_symmetry_1
_geom_bond_site_symmetry_2
Cu1 O1 1_555 1_555
S1 C8 1_555 1_555
S2 C9 1_555 1_555
O1 C6 1_555 1_555
O2 N1 1_555 1_555
O3 N1 1_555 1_555
O4 N2 1_555 1_555
O5 N2 1_555 1_555
O6 N3 1_555 1_555
O7 Cu1 1_555 1_555
N1 C1 1_555 1_555
N2 C3 1_555 1_555
N3 O7 1_555 1_555
N4 Cu1 1_555 1_555
N5 N4 1_555 1_555
C1 C2 1_555 1_555
C2 H1 1_555 1_555
C3 C2 1_555 1_555
C4 C3 1_555 1_555
H2 C4 1_555 1_555
C5 N3 1_555 1_555
C6 C1 1_555 1_555
C7 H3 1_555 1_555
H4 C7 1_555 1_555
H5 C7 1_555 1_555
C8 N4 1_555 1_555
C9 S1 1_555 1_555
C10 S2 1_555 1_555
H6 C10 1_555 1_555
H7 C10 1_555 1_555
C11 C10 1_555 1_555
H8 C11 1_555 1_555
H9 C11 1_555 1_555
Cu1_2 N4A 1_555 1_555
S1A C8A 1_555 1_555
S2A C9A 1_555 1_555
O1A Cu1 1_555 1_555
O2A N1A 1_555 1_555
O3A N1A 1_555 1_555
O4A N2A 1_555 1_555
O5A N2A 1_555 1_555
O6A N3A 1_555 1_555
O7A Cu1 1_555 1_555
N1A C1A 1_555 1_555
N2A C3A 1_555 1_555
N3A O7A 1_555 1_555
N4A N5A 1_555 1_555
N4A_2 Cu1 1_555 1_555
N5A C9A 1_555 1_555
C1A C2A 1_555 1_555
C2A H1A 1_555 1_555
C3A C2A 1_555 1_555
C4A C3A 1_555 1_555
H2A C4A 1_555 1_555
C5A N3A 1_555 1_555
C6A O1A 1_555 1_555
C7A H3A 1_555 1_555
H4A C7A 1_555 1_555
H5A C7A 1_555 1_555
C8A N4A 1_555 1_555
C9A S1A 1_555 1_555
C10A S2A 1_555 1_555
H6A C10A 1_555 1_555
H7A C10A 1_555 1_555
C11A C11 1_555 1_555
H8A C11A 1_555 1_555
H9A C11A 1_555 1_555
N5 C9 1_555 1_555
C4 C5 1_555 1_555
C5 C6 1_555 1_555
C7 C8 1_555 1_555
C1A C6A 1_555 1_555
C4A C5A 1_555 1_555
C5A C6A 1_555 1_555
C7A C8A 1_555 1_555
C10A C11A 1_555 1_555

#END
