
#######################################################################
#
#                 Cambridge Crystallographic Data Centre
#                                CCDC 
#
#######################################################################
#
# If this CIF has been generated from an entry in the Cambridge 
# Structural Database, then it will include bibliographic, chemical, 
# crystal, experimental, refinement or atomic coordinate data resulting 
# from the CCDC's data processing and validation procedures.
#
#######################################################################

data_RAHQOI
_symmetry_cell_setting           triclinic
_symmetry_space_group_name_H-M   'P -1'
_symmetry_Int_Tables_number      2
_space_group_name_Hall           '-P 1'
loop_
_symmetry_equiv_pos_site_id
_symmetry_equiv_pos_as_xyz
1 x,y,z
2 -x,-y,-z
_cell_length_a                   8.9671(12)
_cell_length_b                   9.2622(12)
_cell_length_c                   10.6485(14)
_cell_angle_alpha                66.8760(10)
_cell_angle_beta                 85.434(2)
_cell_angle_gamma                70.6060(10)
_cell_volume                     765.887
loop_
_atom_site_label
_atom_site_type_symbol
_atom_site_fract_x
_atom_site_fract_y
_atom_site_fract_z
Cu1 Cu 0.0000 0.0000 1.0000
S1 S 0.48473(7) -0.13589(8) 1.19192(7)
S2 S 0.63951(7) -0.37369(9) 1.05433(8)
O1 O 0.06946(19) 0.05900(19) 0.81493(15)
O2 O 0.4028(4) -0.0908(3) 0.6288(3)
O3 O 0.1593(4) -0.0720(4) 0.6127(3)
O4 O 0.3677(4) 0.5122(4) 0.3429(3)
O5 O 0.2486(4) 0.6841(3) 0.4334(3)
O6 O -0.0747(3) 0.5404(2) 0.8020(3)
O7 O -0.0361(2) 0.2891(2) 0.93853(18)
N1 N 0.2242(2) -0.0680(2) 1.07197(18)
N2 N 0.3320(2) -0.1812(2) 1.02594(19)
N3 N 0.2610(3) -0.0171(3) 0.6214(2)
N4 N 0.2884(3) 0.5472(4) 0.4298(3)
N5 N -0.0147(2) 0.3919(2) 0.8301(2)
C1 C 0.1939(3) 0.0803(3) 1.2279(3)
H1 H 0.0964 0.1539 1.1758
H2 H 0.2560 0.1442 1.2344
H3 H 0.1714 0.0151 1.3181
C2 C 0.2838(3) -0.0317(3) 1.1590(2)
C3 C 0.4726(3) -0.2287(3) 1.0822(2)
C4 C 0.5482(3) -0.4473(3) 0.9562(3)
H4 H 0.4801 -0.3528 0.8821
H5 H 0.6301 -0.5123 0.9161
C5 C 0.1156(2) 0.1757(3) 0.7319(2)
C6 C 0.2128(3) 0.1493(3) 0.6233(2)
C7 C 0.2713(3) 0.2644(3) 0.5277(2)
H6 H 0.3360 0.2388 0.4615
C8 C 0.2311(3) 0.4201(3) 0.5327(2)
C9 C 0.1386(3) 0.4587(3) 0.6313(2)
H7 H 0.1128 0.5641 0.6325
C10 C 0.0837(3) 0.3393(3) 0.7297(2)
Cu1_2 Cu 1.0000 -1.0000 1.0000
S1A S 0.51527(7) -0.86411(8) 0.80808(7)
S2A S 0.36049(7) -0.62631(9) 0.94567(8)
O1A O -0.06946(19) -0.05900(19) 1.18507(15)
O2A O -0.4028(4) 0.0908(3) 1.3712(3)
O3A O -0.1593(4) 0.0720(4) 1.3873(3)
O4A O -0.3677(4) -0.5122(4) 1.6571(3)
O5A O -0.2486(4) -0.6841(3) 1.5666(3)
O6A O 0.0747(3) -0.5404(2) 1.1980(3)
O7A O 0.0361(2) -0.2891(2) 1.06147(18)
N1A N 0.7758(2) -0.9320(2) 0.92803(18)
N1A_2 N -0.2242(2) 0.0680(2) 0.92803(18)
N2A N 0.6680(2) -0.8188(2) 0.97406(19)
N3A N -0.2610(3) 0.0171(3) 1.3786(2)
N4A N -0.2884(3) -0.5472(4) 1.5702(3)
N5A N 0.0147(2) -0.3919(2) 1.1699(2)
C1A C 0.8061(3) -1.0803(3) 0.7721(3)
H1A H 0.9036 -1.1539 0.8242
H2A H 0.7440 -1.1442 0.7656
H3A H 0.8286 -1.0151 0.6819
C2A C 0.7162(3) -0.9683(3) 0.8410(2)
C3A C 0.5274(3) -0.7713(3) 0.9178(2)
C4A C 0.4518(3) -0.5527(3) 1.0438(3)
H4A H 0.5199 -0.6472 1.1179
H5A H 0.3699 -0.4877 1.0839
C5A C -0.1156(2) -0.1757(3) 1.2681(2)
C6A C -0.2128(3) -0.1493(3) 1.3767(2)
C7A C -0.2713(3) -0.2644(3) 1.4723(2)
H6A H -0.3360 -0.2388 1.5385
C8A C -0.2311(3) -0.4201(3) 1.4673(2)
C9A C -0.1386(3) -0.4587(3) 1.3687(2)
H7A H -0.1128 -0.5641 1.3675
C10A C -0.0837(3) -0.3393(3) 1.2703(2)
loop_
_geom_bond_atom_site_label_1
_geom_bond_atom_site_label_2
_geom_bond_site_symmetry_1
_geom_bond_site_symmetry_2
Cu1 O1 1_555 1_555
S1 C2 1_555 1_555
S2 C3 1_555 1_555
O1 C5 1_555 1_555
O2 N3 1_555 1_555
O3 N3 1_555 1_555
O4 N4 1_555 1_555
O5 N4 1_555 1_555
O6 N5 1_555 1_555
O7 Cu1 1_555 1_555
N1 Cu1 1_555 1_555
N2 N1 1_555 1_555
N3 C6 1_555 1_555
N4 C8 1_555 1_555
N5 O7 1_555 1_555
C1 H1 1_555 1_555
H2 C1 1_555 1_555
H3 C1 1_555 1_555
C2 N1 1_555 1_555
C3 S1 1_555 1_555
C4 S2 1_555 1_555
H4 C4 1_555 1_555
H5 C4 1_555 1_555
C5 C6 1_555 1_555
C6 C7 1_555 1_555
C7 H6 1_555 1_555
C8 C7 1_555 1_555
C9 C8 1_555 1_555
H7 C9 1_555 1_555
C10 N5 1_555 1_555
Cu1_2 N1A 1_555 1_555
S1A C2A 1_555 1_555
S2A C3A 1_555 1_555
O1A Cu1 1_555 1_555
O2A N3A 1_555 1_555
O3A N3A 1_555 1_555
O4A N4A 1_555 1_555
O5A N4A 1_555 1_555
O6A N5A 1_555 1_555
O7A Cu1 1_555 1_555
N1A N2A 1_555 1_555
N1A_2 Cu1 1_555 1_555
N2A C3A 1_555 1_555
N3A C6A 1_555 1_555
N4A C8A 1_555 1_555
N5A O7A 1_555 1_555
C1A H1A 1_555 1_555
H2A C1A 1_555 1_555
H3A C1A 1_555 1_555
C2A N1A 1_555 1_555
C3A S1A 1_555 1_555
C4A C4 1_555 1_555
H4A C4A 1_555 1_555
H5A C4A 1_555 1_555
C5A O1A 1_555 1_555
C6A C5A 1_555 1_555
C7A C6A 1_555 1_555
H6A C7A 1_555 1_555
C8A C7A 1_555 1_555
C9A C8A 1_555 1_555
H7A C9A 1_555 1_555
C10A N5A 1_555 1_555
N2 C3 1_555 1_555
C1 C2 1_555 1_555
C5 C10 1_555 1_555
C9 C10 1_555 1_555
S2A C4A 1_555 1_555
C1A C2A 1_555 1_555
C5A C10A 1_555 1_555
C9A C10A 1_555 1_555

#END
