
#######################################################################
#
#                 Cambridge Crystallographic Data Centre
#                                CCDC 
#
#######################################################################
#
# If this CIF has been generated from an entry in the Cambridge 
# Structural Database, then it will include bibliographic, chemical, 
# crystal, experimental, refinement or atomic coordinate data resulting 
# from the CCDC's data processing and validation procedures.
#
#######################################################################

data_RAHRUP
_symmetry_cell_setting           triclinic
_symmetry_space_group_name_H-M   'P -1'
_symmetry_Int_Tables_number      2
_space_group_name_Hall           '-P 1'
loop_
_symmetry_equiv_pos_site_id
_symmetry_equiv_pos_as_xyz
1 x,y,z
2 -x,-y,-z
_cell_length_a                   14.216(4)
_cell_length_b                   14.255(6)
_cell_length_c                   20.026(9)
_cell_angle_alpha                76.705(7)
_cell_angle_beta                 84.256(6)
_cell_angle_gamma                60.370(4)
_cell_volume                     3432.59
loop_
_atom_site_label
_atom_site_type_symbol
_atom_site_fract_x
_atom_site_fract_y
_atom_site_fract_z
Nd1 Nd 1.06571(3) 0.48293(3) 0.39393(2)
Nd2 Nd 1.05429(3) 0.45281(3) 0.10539(2)
S1 S 1.2133(2) 0.6374(2) 0.37196(14)
S2 S 1.2561(2) 0.2124(2) 0.36798(16)
S3 S 1.2536(2) 0.5219(2) 0.13872(18)
S4 S 1.1909(2) 0.15318(18) 0.12314(12)
O1 O 1.2130(5) 0.5327(5) 0.3706(3)
O2 O 1.2375(5) 0.3195(5) 0.3808(4)
O3 O 1.2281(5) 0.4390(6) 0.1239(4)
O4 O 1.1963(5) 0.2547(5) 0.1295(3)
O5 O 0.9906(5) 0.6656(4) 0.4217(3)
O6 O 1.0325(5) 0.6003(5) 0.2839(3)
O7 O 0.9621(5) 0.6639(5) 0.5334(3)
O8 O 1.0214(5) 0.5796(5) 0.1799(3)
O9 O 1.0236(5) 0.3698(5) 0.2147(3)
O10 O 1.0256(5) 0.6536(5) -0.0765(3)
O11 O 0.8655(5) 0.5703(5) 0.3843(3)
O12 O 0.8588(4) 0.5564(5) 0.4960(3)
O13 O 0.5035(7) 0.7138(10) 0.6002(5)
O14 O 0.3651(10) 0.8369(10) 0.5361(6)
O15 O 0.3834(10) 0.8442(10) 0.2927(6)
O16 O 0.5355(8) 0.7894(9) 0.2461(4)
O17 O 0.7167(8) 0.8895(8) 0.3733(5)
O18 O 0.5720(8) 0.9820(10) 0.3142(6)
O19 O 0.7259(9) 0.8768(10) 0.0307(5)
O20 O 0.5754(8) 0.9680(10) 0.0748(6)
O21 O 0.8541(4) 0.5615(5) 0.1158(3)
O22 O 0.5307(7) 0.8125(8) -0.1354(4)
O23 O 0.3797(7) 0.8466(11) -0.0886(5)
O24 O 0.3593(7) 0.7373(11) 0.1528(6)
O25 O 0.5026(8) 0.6217(8) 0.2110(5)
O26 O 1.1592(9) 1.0121(8) -0.1717(5)
O27 O 1.2037(9) 0.8623(9) -0.2045(5)
O28 O 1.1585(11) 0.9714(9) 0.0754(6)
O29 O 1.0994(9) 0.8678(9) 0.1374(5)
O30 O 1.0359(6) 0.6268(5) 0.0368(3)
O31 O 0.9993(9) 0.9847(8) 0.2771(5)
O32 O 0.9331(11) 1.1367(8) 0.3127(6)
O33 O 0.8183(8) 1.1450(7) 0.5469(6)
O34 O 0.8113(11) 1.0086(9) 0.6077(6)
O35 O 0.5843(8) 0.3744(11) 0.2079(6)
O36 O 0.6045(10) 0.4081(10) 0.4408(6)
O37 O 0.7462(9) 0.3925(10) 0.4754(5)
O38 O 0.8677(5) 0.5821(5) 0.0041(3)
O39 O 1.0286(5) 0.3908(5) 0.3202(3)
O40 O 0.6929(7) 0.4004(7) 0.1343(5)
C1 C 0.8277(7) 0.7740(7) 0.1540(5)
H1 H 0.8634 0.7440 0.1164
N1 N 0.4771(7) 0.8068(8) -0.0863(5)
N2 N 0.4558(7) 0.6852(8) 0.1592(5)
N3 N 0.6644(8) 0.3861(8) 0.1922(6)
N4 N 0.6949(9) 0.3944(9) 0.4322(5)
N5 N 0.4822(8) 0.7996(9) 0.2960(5)
N6 N 0.4627(8) 0.7623(11) 0.5451(6)
N7 N 0.8328(8) 1.0529(9) 0.5557(7)
N8 N 0.9562(9) 1.0400(8) 0.3200(6)
N9 N 1.1271(8) 0.9039(7) 0.0833(6)
N10 N 1.1700(8) 0.9204(9) -0.1624(6)
N11 N 0.6723(8) 0.9057(8) 0.0796(5)
N12 N 0.6684(8) 0.9178(8) 0.3211(5)
C2 C 1.3529(10) 0.5994(12) 0.3749(7)
H2 H 1.3836 0.5531 0.4187
H3 H 1.3597 0.6647 0.3684
H4 H 1.3905 0.5601 0.3393
C3 C 1.1823(12) 0.7188(11) 0.2883(7)
H5 H 1.1074 0.7471 0.2779
H6 H 1.2266 0.6746 0.2561
H7 H 1.1961 0.7792 0.2852
C4 C 1.3641(11) 0.1111(10) 0.4244(7)
H8 H 1.3393 0.1094 0.4708
H9 H 1.4218 0.1287 0.4194
H10 H 1.3898 0.0402 0.4135
C5 C 1.3217(13) 0.1989(12) 0.2903(7)
H11 H 1.2715 0.2496 0.2537
H12 H 1.3501 0.1248 0.2842
H13 H 1.3800 0.2148 0.2900
C6 C 1.3335(12) 0.4554(14) 0.2156(7)
H14 H 1.2885 0.4498 0.2536
H15 H 1.3656 0.4978 0.2231
H16 H 1.3896 0.3829 0.2115
C7 C 1.3602(12) 0.5160(14) 0.0809(8)
H17 H 1.3311 0.5503 0.0351
H18 H 1.4139 0.4404 0.0825
H19 H 1.3927 0.5543 0.0941
C8 C 1.1405(11) 0.1106(10) 0.2023(6)
H20 H 1.0650 0.1619 0.2053
H21 H 1.1795 0.1085 0.2395
H22 H 1.1498 0.0385 0.2048
C9 C 1.3269(9) 0.0466(8) 0.1318(6)
H23 H 1.3659 0.0581 0.0917
H24 H 1.3293 -0.0232 0.1369
H25 H 1.3593 0.0468 0.1715
C10 C 0.8765(7) 0.9925(8) 0.4999(5)
C11 C 0.9042(7) 0.8826(7) 0.5130(5)
H26 H 0.8985 0.8467 0.5571
C12 C 0.9400(6) 0.8271(6) 0.4606(4)
C13 C 0.9536(8) 0.8802(7) 0.3968(5)
H27 H 0.9783 0.8435 0.3606
C14 C 0.9302(8) 0.9882(8) 0.3873(5)
C15 C 0.8889(8) 1.0467(8) 0.4375(6)
H28 H 0.8699 1.1209 0.4295
C16 C 0.9870(6) 0.6278(6) 0.2277(4)
C17 C 1.0842(7) 0.7927(7) 0.0282(5)
H29 H 1.0671 0.7634 0.0712
C18 C 1.1178(7) 0.8697(8) 0.0214(5)
C19 C 1.1440(8) 0.9153(8) -0.0402(6)
H30 H 1.1647 0.9688 -0.0442
C20 C 1.1382(8) 0.8780(8) -0.0954(5)
C21 C 1.1063(8) 0.8000(7) -0.0915(5)
H31 H 1.1052 0.7754 -0.1304
C22 C 1.0762(7) 0.7594(7) -0.0292(4)
C23 C 1.0419(6) 0.6722(6) -0.0225(4)
C24 C 0.6917(7) 0.6526(6) 0.0501(4)
C25 C 0.6318(7) 0.6493(7) 0.1072(5)
H32 H 0.6648 0.6156 0.1503
C26 C 0.5202(8) 0.6975(8) 0.0996(5)
C27 C 0.4662(8) 0.7515(9) 0.0376(5)
H33 H 0.3913 0.7844 0.0337
C28 C 0.5301(7) 0.7534(8) -0.0180(5)
C29 C 0.6408(7) 0.7061(7) -0.0132(5)
H34 H 0.6811 0.7102 -0.0523
C30 C 0.8131(6) 0.5965(6) 0.0567(4)
C31 C 0.8780(7) 0.3835(6) 0.2860(4)
C32 C 0.8355(7) 0.3855(7) 0.3510(5)
H35 H 0.8729 0.3853 0.3866
C33 C 0.7380(8) 0.3877(7) 0.3627(5)
C34 C 0.6803(9) 0.3878(9) 0.3119(6)
H36 H 0.6142 0.3890 0.3207
C35 C 0.7229(7) 0.3861(8) 0.2483(5)
C36 C 0.8217(7) 0.3846(7) 0.2338(5)
H37 H 0.8489 0.3843 0.1896
C37 C 0.8258(7) 0.7813(7) 0.2718(4)
H38 H 0.8606 0.7555 0.3143
C38 C 0.9835(6) 0.3833(6) 0.2725(4)
C39 C 0.5330(8) 0.7541(8) 0.3642(5)
C40 C 0.4713(7) 0.7789(8) 0.4205(6)
H39 H 0.3965 0.8232 0.4166
C41 C 0.5236(7) 0.7360(9) 0.4838(5)
C42 C 0.6345(7) 0.6713(8) 0.4913(5)
H40 H 0.6674 0.6429 0.5345
C43 C 0.6954(6) 0.6498(6) 0.4329(4)
C44 C 0.6434(7) 0.6911(7) 0.3686(4)
H41 H 0.6837 0.6759 0.3291
C45 C 0.8177(6) 0.5862(6) 0.4374(4)
C46 C 0.7234(8) 0.8630(8) 0.1473(5)
C47 C 0.6704(8) 0.9112(8) 0.1998(5)
H42 H 0.6005 0.9706 0.1942
C48 C 0.7239(7) 0.8689(7) 0.2621(5)
C49 C 0.8765(7) 0.7318(7) 0.2175(4)
C50 C 0.9661(6) 0.7080(6) 0.4730(4)
Nd1A Nd 0.93429(3) 0.51707(3) 0.60607(2)
Nd2A Nd 0.94571(3) 0.54719(3) -0.10539(2)
O7A O 1.0379(5) 0.3361(5) 0.4666(3)
O10A O 0.9744(5) 0.3464(5) 0.0765(3)
O12A O 1.1412(4) 0.4436(5) 0.5040(3)
O38A O 1.1323(5) 0.4179(5) -0.0041(3)
loop_
_geom_bond_atom_site_label_1
_geom_bond_atom_site_label_2
_geom_bond_site_symmetry_1
_geom_bond_site_symmetry_2
Nd1 O1 1_555 1_555
Nd2 O3 1_555 1_555
S1 O1 1_555 1_555
S2 O2 1_555 1_555
S3 O3 1_555 1_555
S4 O4 1_555 1_555
O2 Nd1 1_555 1_555
O4 Nd2 1_555 1_555
O5 Nd1 1_555 1_555
O6 Nd1 1_555 1_555
O7 C50 1_555 1_555
O8 Nd2 1_555 1_555
O9 Nd2 1_555 1_555
O10 C23 1_555 1_555
O11 Nd1 1_555 1_555
O12 C45 1_555 1_555
O13 N6 1_555 1_555
O14 N6 1_555 1_555
O15 N5 1_555 1_555
O16 N5 1_555 1_555
O17 N12 1_555 1_555
O18 N12 1_555 1_555
O19 N11 1_555 1_555
O20 N11 1_555 1_555
O21 Nd2 1_555 1_555
O22 N1 1_555 1_555
O23 N1 1_555 1_555
O24 N2 1_555 1_555
O25 N2 1_555 1_555
O26 N10 1_555 1_555
O27 N10 1_555 1_555
O28 N9 1_555 1_555
O29 N9 1_555 1_555
O30 Nd2 1_555 1_555
O31 N8 1_555 1_555
O32 N8 1_555 1_555
O33 N7 1_555 1_555
O34 N7 1_555 1_555
O35 N3 1_555 1_555
O36 N4 1_555 1_555
O37 N4 1_555 1_555
O38 C30 1_555 1_555
O39 Nd1 1_555 1_555
O40 N3 1_555 1_555
C1 H1 1_555 1_555
N1 C28 1_555 1_555
N2 C26 1_555 1_555
N3 C35 1_555 1_555
N4 C33 1_555 1_555
N5 C39 1_555 1_555
N6 C41 1_555 1_555
N7 C10 1_555 1_555
N8 C14 1_555 1_555
N9 C18 1_555 1_555
N10 C20 1_555 1_555
N11 C46 1_555 1_555
N12 C48 1_555 1_555
C2 S1 1_555 1_555
H2 C2 1_555 1_555
H3 C2 1_555 1_555
H4 C2 1_555 1_555
C3 S1 1_555 1_555
H5 C3 1_555 1_555
H6 C3 1_555 1_555
H7 C3 1_555 1_555
C4 S2 1_555 1_555
H8 C4 1_555 1_555
H9 C4 1_555 1_555
H10 C4 1_555 1_555
C5 S2 1_555 1_555
H11 C5 1_555 1_555
H12 C5 1_555 1_555
H13 C5 1_555 1_555
C6 S3 1_555 1_555
H14 C6 1_555 1_555
H15 C6 1_555 1_555
H16 C6 1_555 1_555
C7 S3 1_555 1_555
H17 C7 1_555 1_555
H18 C7 1_555 1_555
H19 C7 1_555 1_555
C8 S4 1_555 1_555
H20 C8 1_555 1_555
H21 C8 1_555 1_555
H22 C8 1_555 1_555
C9 S4 1_555 1_555
H23 C9 1_555 1_555
H24 C9 1_555 1_555
H25 C9 1_555 1_555
C10 C11 1_555 1_555
C11 H26 1_555 1_555
C12 C11 1_555 1_555
C13 C12 1_555 1_555
H27 C13 1_555 1_555
C14 C13 1_555 1_555
C15 C10 1_555 1_555
H28 C15 1_555 1_555
C16 O6 1_555 1_555
C17 H29 1_555 1_555
C18 C17 1_555 1_555
C19 C18 1_555 1_555
H30 C19 1_555 1_555
C20 C19 1_555 1_555
C21 C20 1_555 1_555
H31 C21 1_555 1_555
C22 C17 1_555 1_555
C23 O30 1_555 1_555
C24 C25 1_555 1_555
C25 H32 1_555 1_555
C26 C25 1_555 1_555
C27 C26 1_555 1_555
H33 C27 1_555 1_555
C28 C27 1_555 1_555
C29 C24 1_555 1_555
H34 C29 1_555 1_555
C30 O21 1_555 1_555
C31 C32 1_555 1_555
C32 H35 1_555 1_555
C33 C32 1_555 1_555
C34 C33 1_555 1_555
H36 C34 1_555 1_555
C35 C34 1_555 1_555
C36 C31 1_555 1_555
H37 C36 1_555 1_555
C37 H38 1_555 1_555
C38 O9 1_555 1_555
C39 C40 1_555 1_555
C40 H39 1_555 1_555
C41 C40 1_555 1_555
C42 C41 1_555 1_555
H40 C42 1_555 1_555
C43 C42 1_555 1_555
C44 C39 1_555 1_555
H41 C44 1_555 1_555
C45 O11 1_555 1_555
C46 C1 1_555 1_555
C47 C46 1_555 1_555
H42 C47 1_555 1_555
C48 C37 1_555 1_555
C49 C1 1_555 1_555
C50 O5 1_555 1_555
Nd1A O7 1_555 1_555
Nd2A O10 1_555 1_555
O7A Nd1 1_555 1_555
O10A Nd2 1_555 1_555
O12A Nd1 1_555 1_555
O38A Nd2 1_555 1_555
O8 C16 1_555 1_555
O12 Nd1A 1_555 1_555
O38 Nd2A 1_555 1_555
O39 C38 1_555 1_555
C12 C50 1_555 1_555
C14 C15 1_555 1_555
C16 C49 1_555 1_555
C21 C22 1_555 1_555
C22 C23 1_555 1_555
C24 C30 1_555 1_555
C28 C29 1_555 1_555
C31 C38 1_555 1_555
C35 C36 1_555 1_555
C37 C49 1_555 1_555
C43 C44 1_555 1_555
C43 C45 1_555 1_555
C47 C48 1_555 1_555

#END
