
#######################################################################
#
#                 Cambridge Crystallographic Data Centre
#                                CCDC 
#
#######################################################################
#
# If this CIF has been generated from an entry in the Cambridge 
# Structural Database, then it will include bibliographic, chemical, 
# crystal, experimental, refinement or atomic coordinate data resulting 
# from the CCDC's data processing and validation procedures.
#
#######################################################################

data_RAHREZ
_symmetry_cell_setting           triclinic
_symmetry_space_group_name_H-M   'P -1'
_symmetry_Int_Tables_number      2
_space_group_name_Hall           '-P 1'
loop_
_symmetry_equiv_pos_site_id
_symmetry_equiv_pos_as_xyz
1 x,y,z
2 -x,-y,-z
_cell_length_a                   8.7088(12)
_cell_length_b                   11.4924(16)
_cell_length_c                   11.8448(17)
_cell_angle_alpha                65.594(2)
_cell_angle_beta                 70.588(2)
_cell_angle_gamma                73.989(2)
_cell_volume                     1004.86
loop_
_atom_site_label
_atom_site_type_symbol
_atom_site_fract_x
_atom_site_fract_y
_atom_site_fract_z
Cu1 Cu 0.5000 1.0000 0.5000
S1 S -0.04129(10) 1.03231(9) 0.69528(8)
S2 S -0.00271(11) 0.82549(10) 0.94680(9)
S3 S 0.42660(11) 0.09154(7) 1.11444(7)
S4 S 0.30196(13) 0.37605(8) 1.04862(8)
O1 O 0.7934(3) 1.2120(2) 0.4934(3)
O2 O 0.9007(3) 1.3263(3) 0.2985(3)
O3 O 0.6029(3) 1.7648(2) 0.1651(2)
O4 O 0.3394(3) 1.7885(2) 0.1928(3)
O5 O 0.0668(3) 1.3871(3) 0.4626(3)
O6 O 0.1517(4) 1.3157(3) 0.6334(3)
O7 O 0.4712(3) 1.20417(19) 0.5154(2)
N1 N 0.2667(3) 0.9883(2) 0.6072(2)
N2 N 0.2387(3) 0.9011(2) 0.7319(2)
N3 N 0.4252(3) 0.0748(2) 1.3340(2)
N4 N 0.3697(3) 0.2052(2) 1.2744(2)
N5 N 0.7829(4) 1.3003(3) 0.3922(3)
N6 N 0.4710(4) 1.7226(2) 0.2141(2)
N7 N 0.1708(3) 1.3696(3) 0.5185(3)
C1 C 0.1342(4) 1.0607(3) 0.5755(3)
H1 H 0.1345 1.1229 0.4945
C2 C 0.0833(4) 0.9152(3) 0.7893(3)
C3 C 0.1696(5) 0.6878(4) 0.9772(4)
H2 H 0.2023 0.6499 0.9115
H3 H 0.2641 0.7176 0.9761
C4 C 0.1107(5) 0.5919(4) 1.1030(4)
H4 H 0.0198 0.5601 1.1008
H5 H 0.0690 0.6337 1.1661
C5 C 0.4577(4) 0.0071(3) 1.2631(3)
H6 H 0.4955 -0.0816 1.2912
C6 C 0.3646(4) 0.2269(3) 1.1580(3)
C7 C 0.2432(5) 0.4783(3) 1.1441(4)
H7 H 0.2033 0.4269 1.2334
H8 H 0.3396 0.5104 1.1363
C8 C 0.4750(4) 1.3221(3) 0.4542(3)
C9 C 0.6222(4) 1.3802(3) 0.3832(3)
C10 C 0.6201(4) 1.5085(3) 0.3068(3)
H9 H 0.7186 1.5406 0.2613
C11 C 0.4713(4) 1.5894(3) 0.2980(3)
C12 C 0.3227(4) 1.5439(3) 0.3662(3)
H10 H 0.2226 1.5988 0.3597
C13 C 0.3276(4) 1.4166(3) 0.4430(3)
Cu1_2 Cu 0.5000 0.0000 1.5000
S1A S 1.04129(10) -0.03231(9) 1.30472(8)
S2A S 1.00271(11) 0.17451(10) 1.05320(9)
S3A S 0.57340(11) 0.90846(7) 0.88556(7)
S4A S 0.69804(13) 0.62395(8) 0.95138(8)
O1A O 0.2066(3) 0.7880(2) 0.5066(3)
O2A O 0.0993(3) 0.6737(3) 0.7015(3)
O3A O 0.3971(3) 0.2352(2) 0.8349(2)
O4A O 0.6606(3) 0.2115(2) 0.8072(3)
O5A O 0.9332(3) 0.6129(3) 0.5374(3)
O6A O 0.8483(4) 0.6843(3) 0.3666(3)
O7A O 0.5288(3) 0.79583(19) 0.4846(2)
N1A N 0.7333(3) 0.0117(2) 1.3928(2)
N1A_2 N 0.7333(3) 1.0117(2) 0.3928(2)
N2A N 0.7613(3) 0.0989(2) 1.2681(2)
N3A N 0.5748(3) 0.9252(2) 0.6660(2)
N3_2 N 0.4252(3) 1.0748(2) 0.3340(2)
N4A N 0.6303(3) 0.7948(2) 0.7256(2)
N5A N 0.2171(4) 0.6997(3) 0.6078(3)
N6A N 0.5290(4) 0.2774(2) 0.7859(2)
N7A N 0.8292(3) 0.6304(3) 0.4815(3)
C1A C 0.8658(4) -0.0607(3) 1.4245(3)
H1A H 0.8655 -0.1229 1.5055
C2A C 0.9167(4) 0.0848(3) 1.2107(3)
C3A C 0.8304(5) 0.3122(4) 1.0228(4)
H2A H 0.7977 0.3501 1.0885
H3A H 0.7359 0.2824 1.0239
C4A C 0.8893(5) 0.4081(4) 0.8970(4)
H4A H 0.9802 0.4399 0.8992
H5A H 0.9310 0.3663 0.8339
C5A C 0.5423(4) 0.9929(3) 0.7369(3)
H6A H 0.5045 1.0816 0.7088
C6A C 0.6354(4) 0.7731(3) 0.8420(3)
C7A C 0.7568(5) 0.5217(3) 0.8559(4)
H7A H 0.7967 0.5731 0.7666
H8A H 0.6604 0.4896 0.8637
C8A C 0.5250(4) 0.6779(3) 0.5458(3)
C9A C 0.3778(4) 0.6198(3) 0.6168(3)
C10A C 0.3799(4) 0.4915(3) 0.6932(3)
H9A H 0.2814 0.4594 0.7387
C11A C 0.5287(4) 0.4106(3) 0.7020(3)
C12A C 0.6773(4) 0.4561(3) 0.6338(3)
H10A H 0.7774 0.4012 0.6403
C13A C 0.6724(4) 0.5834(3) 0.5570(3)
loop_
_geom_bond_atom_site_label_1
_geom_bond_atom_site_label_2
_geom_bond_site_symmetry_1
_geom_bond_site_symmetry_2
Cu1 O7 1_555 1_555
S1 C1 1_555 1_555
S2 C2 1_555 1_555
S3 C5 1_555 1_555
S4 C6 1_555 1_555
O1 N5 1_555 1_555
O2 N5 1_555 1_555
O3 N6 1_555 1_555
O4 N6 1_555 1_555
O5 N7 1_555 1_555
O6 N7 1_555 1_555
O7 C8 1_555 1_555
N1 Cu1 1_555 1_555
N2 N1 1_555 1_555
N3 N4 1_555 1_555
N4 C6 1_555 1_555
N5 C9 1_555 1_555
N6 C11 1_555 1_555
N7 C13 1_555 1_555
C1 N1 1_555 1_555
H1 C1 1_555 1_555
C2 S1 1_555 1_555
C3 S2 1_555 1_555
H2 C3 1_555 1_555
H3 C3 1_555 1_555
C4 C3 1_555 1_555
H4 C4 1_555 1_555
H5 C4 1_555 1_555
C5 N3 1_555 1_555
H6 C5 1_555 1_555
C6 S3 1_555 1_555
C7 S4 1_555 1_555
H7 C7 1_555 1_555
H8 C7 1_555 1_555
C8 C9 1_555 1_555
C9 C10 1_555 1_555
C10 H9 1_555 1_555
C11 C10 1_555 1_555
C12 C11 1_555 1_555
H10 C12 1_555 1_555
C13 C8 1_555 1_555
Cu1_2 N3 1_555 1_555
S1A C1A 1_555 1_555
S2A C2A 1_555 1_555
S3A C5A 1_555 1_555
S4A C6A 1_555 1_555
O1A N5A 1_555 1_555
O2A N5A 1_555 1_555
O3A N6A 1_555 1_555
O4A N6A 1_555 1_555
O5A N7A 1_555 1_555
O6A N7A 1_555 1_555
O7A Cu1 1_555 1_555
N1A Cu1_2 1_555 1_555
N1A_2 Cu1 1_555 1_555
N2A N1A 1_555 1_555
N3A Cu1 1_555 1_555
N3_2 Cu1 1_555 1_555
N4A N3A 1_555 1_555
N5A C9A 1_555 1_555
N6A C11A 1_555 1_555
N7A C13A 1_555 1_555
C1A N1A 1_555 1_555
H1A C1A 1_555 1_555
C2A S1A 1_555 1_555
C3A S2A 1_555 1_555
H2A C3A 1_555 1_555
H3A C3A 1_555 1_555
C4A C3A 1_555 1_555
H4A C4A 1_555 1_555
H5A C4A 1_555 1_555
C5A N3A 1_555 1_555
H6A C5A 1_555 1_555
C6A S3A 1_555 1_555
C7A S4A 1_555 1_555
H7A C7A 1_555 1_555
H8A C7A 1_555 1_555
C8A O7A 1_555 1_555
C9A C8A 1_555 1_555
C10A C9A 1_555 1_555
H9A C10A 1_555 1_555
C11A C10A 1_555 1_555
C12A C11A 1_555 1_555
H10A C12A 1_555 1_555
C13A C8A 1_555 1_555
N2 C2 1_555 1_555
C4 C7 1_555 1_555
C12 C13 1_555 1_555
N2A C2A 1_555 1_555
N4A C6A 1_555 1_555
C4A C7A 1_555 1_555
C12A C13A 1_555 1_555

#END
