
#######################################################################
#
#                 Cambridge Crystallographic Data Centre
#                                CCDC 
#
#######################################################################
#
# If this CIF has been generated from an entry in the Cambridge 
# Structural Database, then it will include bibliographic, chemical, 
# crystal, experimental, refinement or atomic coordinate data resulting 
# from the CCDC's data processing and validation procedures.
#
#######################################################################

data_RAHSAW
_symmetry_cell_setting           triclinic
_symmetry_space_group_name_H-M   'P -1'
_symmetry_Int_Tables_number      2
_space_group_name_Hall           '-P 1'
loop_
_symmetry_equiv_pos_site_id
_symmetry_equiv_pos_as_xyz
1 x,y,z
2 -x,-y,-z
_cell_length_a                   14.293(6)
_cell_length_b                   14.334(6)
_cell_length_c                   20.281(13)
_cell_angle_alpha                97.899(9)
_cell_angle_beta                 95.891(9)
_cell_angle_gamma                119.560(6)
_cell_volume                     3509.23
loop_
_atom_site_label
_atom_site_type_symbol
_atom_site_fract_x
_atom_site_fract_y
_atom_site_fract_z
La1 La 0.00755(5) 0.45135(5) 0.89555(3)
La2 La 0.04880(5) 0.48207(5) 0.60476(3)
C1 C 0.2838(11) 0.3015(12) 1.1010(7)
C2 C 0.2828(12) 0.2475(12) 1.0393(7)
H1 H 0.3257 0.2158 1.0346
C3 C 0.2130(11) 0.2434(11) 0.9844(7)
C4 C 0.1533(11) 0.2924(11) 0.9898(7)
H2 H 0.1100 0.2899 0.9513
C5 C 0.1568(10) 0.3464(10) 1.0527(7)
C6 C 0.2186(11) 0.3489(11) 1.1089(7)
H3 H 0.2179 0.3811 1.1518
C7 C 0.0922(10) 0.4047(10) 1.0602(7)
C8 C -0.2190(10) 0.3245(10) 0.9754(7)
C9 C -0.3394(11) 0.2395(11) 0.9687(7)
C10 C -0.3782(11) 0.2088(11) 1.0267(7)
H4 H -0.3317 0.2401 1.0691
C11 C -0.4880(11) 0.1302(11) 1.0198(7)
C12 C -0.5603(12) 0.0830(12) 0.9592(7)
H5 H -0.6332 0.0286 0.9553
C13 C -0.5177(11) 0.1213(12) 0.9039(7)
C14 C -0.4100(11) 0.1985(11) 0.9076(7)
H6 H -0.3853 0.2225 0.8691
C15 C -0.2476(12) 0.1093(12) 0.7999(7)
H7 H -0.2687 0.1628 0.7965
H8 H -0.3118 0.0391 0.7973
H9 H -0.2117 0.1041 0.7632
C16 C -0.1287(13) 0.0422(11) 0.8686(8)
H10 H -0.1000 0.0397 0.8280
H11 H -0.1949 -0.0265 0.8654
H12 H -0.0755 0.0551 0.9071
C17 C 0.3774(13) 0.5082(14) 0.9163(8)
H13 H 0.3837 0.5400 0.9626
H14 H 0.4469 0.5469 0.9030
H15 H 0.3555 0.4323 0.9122
C18 C 0.2906(13) 0.4542(13) 0.7860(8)
H16 H 0.2887 0.3878 0.7912
H17 H 0.3588 0.5033 0.7741
H18 H 0.2308 0.4371 0.7507
C19 C -0.1330(10) 0.3792(10) 0.7254(6)
C20 C -0.2383(10) 0.3802(10) 0.7115(6)
C21 C -0.2929(10) 0.3820(10) 0.7629(7)
H19 H -0.2668 0.3807 0.8065
C22 C -0.3899(11) 0.3859(11) 0.7482(7)
C23 C -0.4292(11) 0.3886(11) 0.6841(7)
H20 H -0.4931 0.3908 0.6745
C24 C -0.3712(11) 0.3879(11) 0.6355(7)
C25 C -0.2772(10) 0.3827(10) 0.6471(7)
H21 H -0.2407 0.3810 0.6120
C26 C 0.1176(10) 0.6269(10) 0.7732(6)
C27 C 0.1107(10) 0.7311(10) 0.7845(6)
C28 C 0.1038(10) 0.7715(10) 0.8478(7)
H22 H 0.1097 0.7410 0.8845
C29 C 0.0873(11) 0.8611(11) 0.8551(7)
C30 C 0.0810(11) 0.9090(11) 0.8023(7)
H23 H 0.0685 0.9671 0.8077
C31 C 0.0939(11) 0.8674(11) 0.7403(7)
C32 C 0.1099(11) 0.7810(11) 0.7311(7)
H24 H 0.1202 0.7558 0.6893
C33 C 0.0147(13) 0.1958(13) 0.7070(8)
H25 H 0.0861 0.2047 0.7089
H26 H -0.0355 0.1246 0.7144
H27 H 0.0188 0.2515 0.7415
C34 C -0.0176(14) 0.1087(13) 0.5750(9)
H28 H -0.0154 0.1235 0.5302
H29 H -0.0791 0.0370 0.5729
H30 H 0.0490 0.1118 0.5928
C35 C 0.4553(13) 0.6002(14) 0.6261(8)
H31 H 0.4211 0.5245 0.6034
H32 H 0.4905 0.6105 0.6716
H33 H 0.5089 0.6454 0.6019
C36 C 0.4003(13) 0.7189(13) 0.7123(8)
H34 H 0.3417 0.7243 0.7280
H35 H 0.4599 0.7911 0.7127
H36 H 0.4253 0.6851 0.7416
C37 C -0.0973(10) 0.5870(10) 0.5663(6)
C38 C -0.1655(11) 0.6945(11) 0.6333(7)
H37 H -0.1390 0.6821 0.6729
C39 C -0.2140(11) 0.7558(12) 0.6367(7)
C40 C -0.2522(11) 0.7792(11) 0.5801(7)
H38 H -0.2841 0.8222 0.5833
C41 C -0.2413(11) 0.7356(12) 0.5176(7)
C42 C -0.1957(11) 0.6700(11) 0.5102(7)
H39 H -0.1919 0.6405 0.4675
C43 C -0.1552(10) 0.6492(11) 0.5694(7)
C44 C 0.1776(10) 0.7130(10) 0.5297(7)
C45 C 0.2685(10) 0.8309(11) 0.5424(7)
C46 C 0.2892(11) 0.8848(11) 0.4904(7)
H40 H 0.2475 0.8493 0.4468
C47 C 0.3735(11) 0.9938(11) 0.5039(7)
C48 C 0.4381(12) 1.0491(12) 0.5660(7)
H41 H 0.4908 1.1235 0.5748
C49 C 0.4210(12) 0.9878(12) 0.6163(7)
C50 C 0.3365(11) 0.8840(11) 0.6064(7)
H42 H 0.3235 0.8477 0.6421
N1 N 0.3606(10) 0.3150(10) 1.1597(6)
N2 N 0.2128(10) 0.1910(10) 0.9168(6)
N3 N -0.5293(10) 0.0981(10) 1.0830(6)
N4 N -0.5929(10) 0.0793(10) 0.8379(6)
N5 N -0.4465(9) 0.3883(9) 0.8035(6)
N6 N -0.4068(9) 0.3950(9) 0.5663(6)
N7 N 0.0792(10) 0.9018(10) 0.9221(6)
N8 N 0.0879(9) 0.9154(9) 0.6815(6)
N9 N 0.4981(10) 1.0387(10) 0.6828(7)
N10 N 0.3892(10) 1.0546(10) 0.4495(7)
N11 N -0.2198(10) 0.8022(10) 0.7036(6)
N12 N -0.2757(10) 0.7616(11) 0.4562(6)
O1 O -0.0503(7) 0.2504(7) 0.8726(4)
O2 O 0.1725(7) 0.4375(7) 0.8802(5)
O3 O 0.0509(7) 0.4182(7) 1.0088(4)
O4 O -0.1841(7) 0.3430(7) 0.9216(4)
O5 O -0.1067(7) 0.3656(7) 0.7832(4)
O6 O 0.1044(7) 0.5781(7) 0.8212(4)
O7 O -0.0819(7) 0.3855(7) 0.6785(4)
O8 O 0.1352(7) 0.5991(7) 0.7180(4)
O9 O 0.1501(9) 0.1818(9) 0.8680(6)
O10 O 0.2690(10) 0.1474(10) 0.9130(6)
O11 O 0.4097(10) 0.2664(10) 1.1532(6)
O12 O 0.3779(10) 0.3769(10) 1.2118(6)
O13 O -0.4656(10) 0.1326(10) 1.1345(6)
O14 O -0.6277(10) 0.0291(10) 1.0738(6)
O15 O -0.5715(9) 0.1330(10) 0.7964(6)
O16 O -0.6725(10) -0.0130(10) 0.8292(6)
O17 O -0.4075(8) 0.3972(8) 0.8600(5)
O18 O -0.5406(9) 0.3729(10) 0.7859(6)
O19 O -0.3583(9) 0.3937(9) 0.5235(5)
O20 O -0.4855(9) 0.4079(10) 0.5570(6)
O21 O 0.2482(7) 0.5332(7) 0.6277(4)
O22 O 0.0571(7) 0.3141(7) 0.6166(4)
O23 O -0.0654(7) 0.5725(7) 0.6200(4)
O24 O 0.1581(7) 0.6703(7) 0.5803(4)
O25 O -0.1764(9) 0.7924(9) 0.7541(5)
O26 O -0.2757(10) 0.8468(10) 0.7065(6)
O27 O -0.2927(10) 0.8401(11) 0.4647(6)
O28 O -0.2897(9) 0.7059(10) 0.4008(6)
O29 O 0.0406(10) 0.9619(10) 0.9266(6)
O30 O 0.0987(10) 0.8707(10) 0.9688(6)
O31 O 0.0523(10) 0.9782(9) 0.6893(6)
O32 O 0.1046(9) 0.8879(8) 0.6299(5)
O33 O 0.3257(10) 1.0117(10) 0.3984(6)
O34 O 0.4656(10) 1.1454(9) 0.4588(6)
O35 O 0.5702(10) 1.1377(10) 0.6922(7)
O36 O 0.4853(10) 0.9850(9) 0.7252(6)
O37 O -0.1667(7) 0.3713(7) 1.0342(4)
O38 O 0.0877(7) 0.4400(7) 1.1198(4)
O39 O 0.1276(7) 0.6698(7) 0.4695(4)
O40 O -0.0829(7) 0.5560(7) 0.5088(4)
S1 S -0.1571(3) 0.1494(3) 0.87807(17)
S2 S 0.2785(3) 0.5180(3) 0.8635(2)
S3 S -0.0307(3) 0.2079(3) 0.6282(2)
S4 S 0.3527(3) 0.6383(3) 0.62851(19)
La1A La -0.00755(5) 0.54865(5) 1.10445(3)
La2A La -0.04880(5) 0.51793(5) 0.39524(3)
O3A O -0.0509(7) 0.5818(7) 0.9912(4)
O37A O 0.1667(7) 0.6287(7) 0.9658(4)
O38A O -0.0877(7) 0.5600(7) 0.8802(4)
O39A O -0.1276(7) 0.3302(7) 0.5305(4)
O40A O 0.0829(7) 0.4440(7) 0.4912(4)
loop_
_geom_bond_atom_site_label_1
_geom_bond_atom_site_label_2
_geom_bond_site_symmetry_1
_geom_bond_site_symmetry_2
La1 O1 1_555 1_555
La2 O7 1_555 1_555
C1 C2 1_555 1_555
C2 H1 1_555 1_555
C3 C2 1_555 1_555
C4 C3 1_555 1_555
H2 C4 1_555 1_555
C5 C4 1_555 1_555
C6 C1 1_555 1_555
H3 C6 1_555 1_555
C7 C5 1_555 1_555
C8 C9 1_555 1_555
C9 C10 1_555 1_555
C10 H4 1_555 1_555
C11 C10 1_555 1_555
C12 C11 1_555 1_555
H5 C12 1_555 1_555
C13 C12 1_555 1_555
C14 C9 1_555 1_555
H6 C14 1_555 1_555
C15 H7 1_555 1_555
H8 C15 1_555 1_555
H9 C15 1_555 1_555
C16 H10 1_555 1_555
H11 C16 1_555 1_555
H12 C16 1_555 1_555
C17 H13 1_555 1_555
H14 C17 1_555 1_555
H15 C17 1_555 1_555
C18 H16 1_555 1_555
H17 C18 1_555 1_555
H18 C18 1_555 1_555
C19 C20 1_555 1_555
C20 C21 1_555 1_555
C21 H19 1_555 1_555
C22 C21 1_555 1_555
C23 C22 1_555 1_555
H20 C23 1_555 1_555
C24 C23 1_555 1_555
C25 C20 1_555 1_555
H21 C25 1_555 1_555
C26 C27 1_555 1_555
C27 C28 1_555 1_555
C28 H22 1_555 1_555
C29 C28 1_555 1_555
C30 C29 1_555 1_555
H23 C30 1_555 1_555
C31 C30 1_555 1_555
C32 C27 1_555 1_555
H24 C32 1_555 1_555
C33 H25 1_555 1_555
H26 C33 1_555 1_555
H27 C33 1_555 1_555
C34 H28 1_555 1_555
H29 C34 1_555 1_555
H30 C34 1_555 1_555
C35 H31 1_555 1_555
H32 C35 1_555 1_555
H33 C35 1_555 1_555
C36 H34 1_555 1_555
H35 C36 1_555 1_555
H36 C36 1_555 1_555
C37 C43 1_555 1_555
C38 H37 1_555 1_555
C39 C38 1_555 1_555
C40 C39 1_555 1_555
H38 C40 1_555 1_555
C41 C40 1_555 1_555
C42 C41 1_555 1_555
H39 C42 1_555 1_555
C43 C38 1_555 1_555
C44 C45 1_555 1_555
C45 C46 1_555 1_555
C46 H40 1_555 1_555
C47 C46 1_555 1_555
C48 C47 1_555 1_555
H41 C48 1_555 1_555
C49 C48 1_555 1_555
C50 C45 1_555 1_555
H42 C50 1_555 1_555
N1 C1 1_555 1_555
N2 C3 1_555 1_555
N3 C11 1_555 1_555
N4 C13 1_555 1_555
N5 C22 1_555 1_555
N6 C24 1_555 1_555
N7 C29 1_555 1_555
N8 C31 1_555 1_555
N9 C49 1_555 1_555
N10 C47 1_555 1_555
N11 C39 1_555 1_555
N12 C41 1_555 1_555
O1 S1 1_555 1_555
O2 La1 1_555 1_555
O3 La1 1_555 1_555
O4 La1 1_555 1_555
O5 La1 1_555 1_555
O6 La1 1_555 1_555
O7 C19 1_555 1_555
O8 La2 1_555 1_555
O9 N2 1_555 1_555
O10 N2 1_555 1_555
O11 N1 1_555 1_555
O12 N1 1_555 1_555
O13 N3 1_555 1_555
O14 N3 1_555 1_555
O15 N4 1_555 1_555
O16 N4 1_555 1_555
O17 N5 1_555 1_555
O18 N5 1_555 1_555
O19 N6 1_555 1_555
O20 N6 1_555 1_555
O21 La2 1_555 1_555
O22 La2 1_555 1_555
O23 La2 1_555 1_555
O24 La2 1_555 1_555
O25 N11 1_555 1_555
O26 N11 1_555 1_555
O27 N12 1_555 1_555
O28 N12 1_555 1_555
O29 N7 1_555 1_555
O30 N7 1_555 1_555
O31 N8 1_555 1_555
O32 N8 1_555 1_555
O33 N10 1_555 1_555
O34 N10 1_555 1_555
O35 N9 1_555 1_555
O36 N9 1_555 1_555
O37 C8 1_555 1_555
O38 C7 1_555 1_555
O39 C44 1_555 1_555
O40 C37 1_555 1_555
S1 C15 1_555 1_555
S2 C17 1_555 1_555
S3 C33 1_555 1_555
S4 C35 1_555 1_555
La1A O3 1_555 1_555
La2A O39 1_555 1_555
O3A La1 1_555 1_555
O37A La1 1_555 1_555
O38A La1 1_555 1_555
O39A La2 1_555 1_555
O40A La2 1_555 1_555
C5 C6 1_555 1_555
C7 O3 1_555 1_555
C8 O4 1_555 1_555
C13 C14 1_555 1_555
C16 S1 1_555 1_555
C18 S2 1_555 1_555
C19 O5 1_555 1_555
C24 C25 1_555 1_555
C26 O6 1_555 1_555
C26 O8 1_555 1_555
C31 C32 1_555 1_555
C34 S3 1_555 1_555
C36 S4 1_555 1_555
C37 O23 1_555 1_555
C42 C43 1_555 1_555
C44 O24 1_555 1_555
C49 C50 1_555 1_555
O2 S2 1_555 1_555
O21 S4 1_555 1_555
O22 S3 1_555 1_555
O37 La1A 1_555 1_555
O38 La1A 1_555 1_555
O40 La2A 1_555 1_555
La1A O3A 1_555 1_555

#END
