
#######################################################################
#
#                 Cambridge Crystallographic Data Centre
#                                CCDC 
#
#######################################################################
#
# If this CIF has been generated from an entry in the Cambridge 
# Structural Database, then it will include bibliographic, chemical, 
# crystal, experimental, refinement or atomic coordinate data resulting 
# from the CCDC's data processing and validation procedures.
#
#######################################################################

data_RAJBEL
_symmetry_cell_setting           triclinic
_symmetry_space_group_name_H-M   'P -1'
_symmetry_Int_Tables_number      2
_space_group_name_Hall           '-P 1'
loop_
_symmetry_equiv_pos_site_id
_symmetry_equiv_pos_as_xyz
1 x,y,z
2 -x,-y,-z
_cell_length_a                   9.7200(11)
_cell_length_b                   11.6077(14)
_cell_length_c                   12.7189(15)
_cell_angle_alpha                68.2730(10)
_cell_angle_beta                 72.6230(10)
_cell_angle_gamma                81.3610(10)
_cell_volume                     1270.97
loop_
_atom_site_label
_atom_site_type_symbol
_atom_site_fract_x
_atom_site_fract_y
_atom_site_fract_z
Cu1 Cu 0.58853(3) -0.04879(2) 0.24322(2)
N1 N 0.7483(2) -0.11658(17) 0.14000(17)
N2 N 0.6353(2) -0.20263(17) 0.36389(17)
O1 O 0.42616(17) 0.00276(15) 0.35231(14)
O2 O 0.2498(2) -0.05946(18) 0.30826(17)
O3 O 0.2463(2) -0.16263(15) 0.58840(15)
O4 O 0.2428(2) -0.06494(16) 0.71082(16)
H1 H 0.2787 -0.1312 0.7461
O5 O 0.55431(18) 0.10068(14) 0.11675(14)
O6 O 0.6292(2) 0.24532(16) 0.16194(17)
O7 O 0.7369(2) 0.23735(19) -0.13148(17)
O8 O 0.5757(2) 0.1934(2) -0.2013(2)
H2 H 0.6446 0.1562 -0.2322
F1 F 0.02995(15) 0.10796(14) 0.70523(12)
F2 F -0.08532(18) 0.30990(15) 0.56989(15)
F3 F -0.02491(19) 0.35904(14) 0.33579(15)
F4 F 0.14802(18) 0.20264(14) 0.23790(12)
F5 F 0.35088(18) 0.37344(15) 0.19202(13)
F6 F 0.17673(19) 0.52608(16) 0.06914(18)
F7 F 0.2117(2) 0.54889(15) -0.15777(18)
F8 F 0.42642(19) 0.42010(15) -0.26054(13)
C1 C 0.1882(2) 0.0722(2) 0.4205(2)
C2 C 0.1585(2) 0.0463(2) 0.54244(19)
C3 C 0.0655(2) 0.1284(2) 0.5897(2)
C4 C 0.0039(3) 0.2323(2) 0.5213(2)
C5 C 0.0332(3) 0.2571(2) 0.4033(2)
C6 C 0.1230(3) 0.1757(2) 0.3546(2)
C7 C 0.2963(3) -0.0042(2) 0.3555(2)
C8 C 0.2212(2) -0.0714(2) 0.6154(2)
C9 C 0.4791(2) 0.3073(2) 0.0326(2)
C10 C 0.4973(2) 0.3184(2) -0.0843(2)
C11 C 0.4078(3) 0.4022(2) -0.1465(2)
C12 C 0.3000(3) 0.4718(2) -0.0961(3)
C13 C 0.2821(3) 0.4606(2) 0.0177(3)
C14 C 0.3732(3) 0.3809(2) 0.0803(2)
C15 C 0.5636(3) 0.2102(2) 0.1103(2)
C16 C 0.6178(3) 0.2459(2) -0.1418(2)
C17 C 0.8090(2) -0.2253(2) 0.1957(2)
C18 C 0.9242(3) -0.2811(3) 0.1356(2)
H3 H 0.9663 -0.3557 0.1752
C19 C 0.9764(3) -0.2252(3) 0.0158(3)
H4 H 1.0545 -0.2615 -0.0260
C20 C 0.9121(3) -0.1158(3) -0.0411(2)
H5 H 0.9445 -0.0778 -0.1220
C21 C 0.7991(3) -0.0633(2) 0.0237(2)
H6 H 0.7564 0.0118 -0.0145
C22 C 0.7430(2) -0.2764(2) 0.3241(2)
C23 C 0.7839(3) -0.3869(2) 0.3990(2)
H7 H 0.8579 -0.4372 0.3704
C24 C 0.7141(4) -0.4229(3) 0.5176(3)
H8 H 0.7400 -0.4981 0.5693
C25 C 0.6068(3) -0.3472(3) 0.5581(3)
H9 H 0.5596 -0.3693 0.6376
C26 C 0.5698(3) -0.2378(2) 0.4791(2)
H10 H 0.4967 -0.1861 0.5065
Cu1A Cu 0.41147(3) 0.04879(2) 0.75678(2)
Cu1A_2 Cu 0.41147(3) 0.04879(2) -0.24322(2)
O4A O 0.7572(2) 0.06494(16) 0.28918(16)
H1A H 0.7213 0.1312 0.2539
O8A O 0.4243(2) -0.1934(2) 0.2013(2)
H2A H 0.3554 -0.1562 0.2322
loop_
_geom_bond_atom_site_label_1
_geom_bond_atom_site_label_2
_geom_bond_site_symmetry_1
_geom_bond_site_symmetry_2
Cu1 N1 1_555 1_555
N1 C17 1_555 1_555
N2 Cu1 1_555 1_555
O1 Cu1 1_555 1_555
O2 C7 1_555 1_555
O3 C8 1_555 1_555
O4 H1 1_555 1_555
O5 Cu1 1_555 1_555
O6 C15 1_555 1_555
O7 C16 1_555 1_555
O8 H2 1_555 1_555
F1 C3 1_555 1_555
F2 C4 1_555 1_555
F3 C5 1_555 1_555
F4 C6 1_555 1_555
F5 C14 1_555 1_555
F6 C13 1_555 1_555
F7 C12 1_555 1_555
F8 C11 1_555 1_555
C1 C2 1_555 1_555
C2 C3 1_555 1_555
C3 C4 1_555 1_555
C4 C5 1_555 1_555
C5 C6 1_555 1_555
C6 C1 1_555 1_555
C7 O1 1_555 1_555
C8 O4 1_555 1_555
C9 C10 1_555 1_555
C10 C11 1_555 1_555
C11 C12 1_555 1_555
C12 C13 1_555 1_555
C13 C14 1_555 1_555
C14 C9 1_555 1_555
C15 O5 1_555 1_555
C16 O8 1_555 1_555
C17 C18 1_555 1_555
C18 H3 1_555 1_555
C19 C18 1_555 1_555
H4 C19 1_555 1_555
C20 C19 1_555 1_555
H5 C20 1_555 1_555
C21 N1 1_555 1_555
H6 C21 1_555 1_555
C22 N2 1_555 1_555
C23 C22 1_555 1_555
H7 C23 1_555 1_555
C24 C23 1_555 1_555
H8 C24 1_555 1_555
C25 C24 1_555 1_555
H9 C25 1_555 1_555
C26 N2 1_555 1_555
H10 C26 1_555 1_555
Cu1A O4 1_555 1_555
Cu1A_2 O8 1_555 1_555
O4A Cu1 1_555 1_555
H1A O4A 1_555 1_555
O8A Cu1 1_555 1_555
H2A O8A 1_555 1_555
C1 C7 1_555 1_555
C2 C8 1_555 1_555
C9 C15 1_555 1_555
C10 C16 1_555 1_555
C17 C22 1_555 1_555
C20 C21 1_555 1_555
C25 C26 1_555 1_555

#END
