
#######################################################################
#
#                 Cambridge Crystallographic Data Centre
#                                CCDC 
#
#######################################################################
#
# If this CIF has been generated from an entry in the Cambridge 
# Structural Database, then it will include bibliographic, chemical, 
# crystal, experimental, refinement or atomic coordinate data resulting 
# from the CCDC's data processing and validation procedures.
#
#######################################################################

data_RAJCUC
_symmetry_cell_setting           orthorhombic
_symmetry_space_group_name_H-M   'P b c a'
_symmetry_Int_Tables_number      61
_space_group_name_Hall           '-P 2ac 2ab'
loop_
_symmetry_equiv_pos_site_id
_symmetry_equiv_pos_as_xyz
1 x,y,z
2 1/2-x,-y,1/2+z
3 -x,1/2+y,1/2-z
4 1/2+x,1/2-y,-z
5 -x,-y,-z
6 1/2+x,y,1/2-z
7 x,1/2-y,1/2+z
8 1/2-x,1/2+y,z
_cell_length_a                   9.9298(7)
_cell_length_b                   18.0293(13)
_cell_length_c                   24.5124(17)
_cell_angle_alpha                90
_cell_angle_beta                 90
_cell_angle_gamma                90
_cell_volume                     4388.39
loop_
_atom_site_label
_atom_site_type_symbol
_atom_site_fract_x
_atom_site_fract_y
_atom_site_fract_z
Ni1 Ni 0.66704(2) 0.178469(12) 0.466304(9)
O1 O 0.79209(12) 0.21547(7) 0.40447(5)
O2 O 0.97209(13) 0.16479(7) 0.44432(6)
O3 O 1.05431(13) 0.32617(7) 0.46055(5)
O4 O 1.25699(13) 0.27776(7) 0.45854(5)
O5 O 0.87665(14) 0.17271(7) 0.29191(5)
O6 O 0.73718(15) -0.15805(8) 0.35000(6)
H1 H 0.7414 -0.1993 0.3640
O7 O 0.96093(15) -0.16599(8) 0.35513(7)
O8 O 0.57021(15) 0.27842(7) 0.45753(6)
H2 H 0.5510 0.2856 0.4242
H3 H 0.5277 0.2942 0.4853
N1 N 0.54224(15) 0.11952(9) 0.41493(6)
N2 N 0.73074(16) 0.07188(8) 0.48167(6)
C1 C 0.98820(19) 0.21488(10) 0.30817(8)
C2 C 1.00874(18) 0.23093(9) 0.36308(7)
C3 C 1.12281(18) 0.27254(10) 0.37691(7)
C4 C 1.2104(2) 0.29741(11) 0.33688(8)
H4 H 1.2864 0.3245 0.3466
C5 C 1.1850(2) 0.28217(12) 0.28268(9)
H5 H 1.2428 0.3001 0.2559
C6 C 1.0743(2) 0.24045(11) 0.26797(8)
H6 H 1.0579 0.2296 0.2315
C7 C 0.91851(19) 0.20080(10) 0.40788(7)
C8 C 1.14730(19) 0.29296(10) 0.43548(8)
C9 C 0.8782(2) 0.09793(10) 0.30362(7)
C10 C 0.9923(2) 0.06061(11) 0.32021(9)
H7 H 1.0737 0.0857 0.3239
C11 C 0.9843(2) -0.01444(11) 0.33125(9)
H8 H 1.0613 -0.0398 0.3421
C12 C 0.8638(2) -0.05245(11) 0.32639(8)
C13 C 0.7506(2) -0.01446(11) 0.30824(8)
H9 H 0.6696 -0.0396 0.3038
C14 C 0.7577(2) 0.06047(11) 0.29672(8)
H10 H 0.6818 0.0856 0.2844
C15 C 0.8593(2) -0.13085(11) 0.34466(8)
C16 C 0.4543(2) 0.14763(12) 0.37911(9)
H11 H 0.4459 0.1989 0.3766
C17 C 0.3757(2) 0.10394(14) 0.34583(9)
H12 H 0.3175 0.1253 0.3206
C18 C 0.3849(2) 0.02822(14) 0.35062(9)
H13 H 0.3319 -0.0025 0.3290
C19 C 0.4736(2) -0.00191(12) 0.38781(9)
H14 H 0.4804 -0.0531 0.3918
C20 C 0.55278(19) 0.04521(10) 0.41918(8)
C21 C 0.65527(19) 0.01849(10) 0.45839(8)
C22 C 0.6735(2) -0.05587(11) 0.47107(9)
H15 H 0.6211 -0.0921 0.4544
C23 C 0.7702(2) -0.07530(12) 0.50870(9)
H16 H 0.7828 -0.1248 0.5182
C24 C 0.8476(2) -0.02106(12) 0.53208(9)
H17 H 0.9141 -0.0332 0.5573
C25 C 0.8253(2) 0.05201(11) 0.51759(8)
H18 H 0.8781 0.0888 0.5335
Ni1C Ni 1.16704(2) 0.321531(12) 0.533696(9)
O3C O 0.55431(13) 0.17383(7) 0.53945(5)
O4C O 0.75699(13) 0.22224(7) 0.54146(5)
loop_
_geom_bond_atom_site_label_1
_geom_bond_atom_site_label_2
_geom_bond_site_symmetry_1
_geom_bond_site_symmetry_2
Ni1 O1 1_555 1_555
O1 C7 1_555 1_555
O2 C7 1_555 1_555
O3 C8 1_555 1_555
O4 C8 1_555 1_555
O5 C1 1_555 1_555
O6 H1 1_555 1_555
O7 C15 1_555 1_555
O8 Ni1 1_555 1_555
H2 O8 1_555 1_555
H3 O8 1_555 1_555
N1 Ni1 1_555 1_555
N2 Ni1 1_555 1_555
C1 C2 1_555 1_555
C2 C3 1_555 1_555
C3 C4 1_555 1_555
C4 H4 1_555 1_555
C5 C4 1_555 1_555
H5 C5 1_555 1_555
C6 C1 1_555 1_555
H6 C6 1_555 1_555
C7 C2 1_555 1_555
C8 C3 1_555 1_555
C9 O5 1_555 1_555
C10 C9 1_555 1_555
H7 C10 1_555 1_555
C11 C10 1_555 1_555
H8 C11 1_555 1_555
C12 C11 1_555 1_555
C13 C12 1_555 1_555
H9 C13 1_555 1_555
C14 C9 1_555 1_555
H10 C14 1_555 1_555
C15 O6 1_555 1_555
C16 N1 1_555 1_555
H11 C16 1_555 1_555
C17 C16 1_555 1_555
H12 C17 1_555 1_555
C18 C17 1_555 1_555
H13 C18 1_555 1_555
C19 C18 1_555 1_555
H14 C19 1_555 1_555
C20 N1 1_555 1_555
C21 N2 1_555 1_555
C22 C21 1_555 1_555
H15 C22 1_555 1_555
C23 C22 1_555 1_555
H16 C23 1_555 1_555
C24 C23 1_555 1_555
H17 C24 1_555 1_555
C25 N2 1_555 1_555
H18 C25 1_555 1_555
Ni1C O3 1_555 1_555
O3C Ni1 1_555 1_555
O4C Ni1 1_555 1_555
O4 Ni1C 1_555 1_555
C5 C6 1_555 1_555
C12 C15 1_555 1_555
C13 C14 1_555 1_555
C19 C20 1_555 1_555
C20 C21 1_555 1_555
C24 C25 1_555 1_555

#END
