
#######################################################################
#
#                 Cambridge Crystallographic Data Centre
#                                CCDC 
#
#######################################################################
#
# If this CIF has been generated from an entry in the Cambridge 
# Structural Database, then it will include bibliographic, chemical, 
# crystal, experimental, refinement or atomic coordinate data resulting 
# from the CCDC's data processing and validation procedures.
#
#######################################################################

data_RAJJUJ
_symmetry_cell_setting           monoclinic
_symmetry_space_group_name_H-M   'C 2/c'
_symmetry_Int_Tables_number      15
_space_group_name_Hall           '-C 2yn'
loop_
_symmetry_equiv_pos_site_id
_symmetry_equiv_pos_as_xyz
1 x,y,z
2 -x,y,1/2-z
3 1/2+x,1/2+y,z
4 1/2-x,1/2+y,1/2-z
5 -x,-y,-z
6 x,-y,1/2+z
7 1/2-x,1/2-y,-z
8 1/2+x,1/2-y,1/2+z
_cell_length_a                   19.7179(17)
_cell_length_b                   14.1074(13)
_cell_length_c                   11.2581(10)
_cell_angle_alpha                90
_cell_angle_beta                 98.3080(10)
_cell_angle_gamma                90
_cell_volume                     3098.78
loop_
_atom_site_label
_atom_site_type_symbol
_atom_site_fract_x
_atom_site_fract_y
_atom_site_fract_z
Ag1 Ag 0.58113(2) 0.71529(3) 0.70204(4)
O1 O 0.5424(2) 0.8491(3) 0.6020(3)
O2 O 0.4645(2) 0.7385(3) 0.5908(3)
P1 P 0.66255(6) 0.60441(8) 0.78191(10)
C1 C 0.4847(3) 0.8174(4) 0.5631(5)
C2 C 0.4396(3) 0.8748(5) 0.4716(6)
H1 H 0.4540 0.9399 0.4768
H2 H 0.3930 0.8705 0.4866
H3 H 0.4428 0.8509 0.3928
C3 C 0.7003(3) 0.6388(3) 0.9331(4)
H4 H 0.6647 0.6409 0.9840
H5 H 0.7334 0.5910 0.9653
C4 C 0.7360(3) 0.7350(3) 0.9369(4)
H6 H 0.7732 0.7320 0.8894
H7 H 0.7036 0.7823 0.9011
C5 C 0.7350(2) 0.5872(3) 0.7029(4)
C6 C 0.7932(3) 0.5393(4) 0.7515(4)
H8 H 0.7951 0.5116 0.8269
C7 C 0.8491(3) 0.5313(4) 0.6906(5)
H9 H 0.8879 0.4982 0.7241
C8 C 0.8462(3) 0.5730(4) 0.5801(5)
H10 H 0.8836 0.5687 0.5386
C9 C 0.7891(3) 0.6207(4) 0.5304(5)
H11 H 0.7878 0.6492 0.4556
C10 C 0.7338(3) 0.6269(3) 0.5899(4)
H12 H 0.6946 0.6583 0.5542
C11 C 0.6281(2) 0.4871(3) 0.8064(4)
C12 C 0.6529(3) 0.4045(3) 0.7624(4)
H13 H 0.6877 0.4072 0.7147
C13 C 0.6260(3) 0.3182(4) 0.7892(5)
H14 H 0.6434 0.2628 0.7606
C14 C 0.5743(3) 0.3128(4) 0.8570(5)
H15 H 0.5562 0.2544 0.8741
C15 C 0.5494(3) 0.3944(4) 0.8995(5)
H16 H 0.5145 0.3914 0.9468
C16 C 0.5753(3) 0.4807(4) 0.8733(4)
H17 H 0.5569 0.5358 0.9011
Ag1A Ag 0.41887(2) 0.71529(3) 0.79796(4)
Ag1F Ag 0.91887(2) 0.78471(3) 1.29796(4)
O1A O 0.4576(2) 0.8491(3) 0.8980(3)
O2A O 0.5355(2) 0.7385(3) 0.9092(3)
P1F P 0.83745(6) 0.89559(8) 1.21809(10)
P1A P 0.33745(6) 0.60441(8) 0.71809(10)
C1A C 0.5153(3) 0.8174(4) 0.9369(5)
C2A C 0.5604(3) 0.8748(5) 1.0284(6)
H1A H 0.5460 0.9399 1.0232
H2A H 0.6070 0.8705 1.0134
H3A H 0.5572 0.8509 1.1072
C3F C 0.7997(3) 0.8612(3) 1.0669(4)
H4F H 0.8353 0.8591 1.0160
H5F H 0.7666 0.9090 1.0347
C4F C 0.7640(3) 0.7650(3) 1.0631(4)
H6F H 0.7268 0.7680 1.1106
H7F H 0.7964 0.7177 1.0989
C5F C 0.7650(2) 0.9128(3) 1.2971(4)
C6F C 0.7068(3) 0.9607(4) 1.2485(4)
H8F H 0.7049 0.9884 1.1731
C7F C 0.6509(3) 0.9687(4) 1.3094(5)
H9F H 0.6121 1.0018 1.2759
C8F C 0.6538(3) 0.9270(4) 1.4199(5)
H10F H 0.6164 0.9313 1.4614
C9F C 0.7109(3) 0.8793(4) 1.4696(5)
H11F H 0.7122 0.8508 1.5444
C10F C 0.7662(3) 0.8731(3) 1.4101(4)
H12F H 0.8054 0.8417 1.4458
C11F C 0.8719(2) 1.0129(3) 1.1936(4)
C12F C 0.8471(3) 1.0955(3) 1.2376(4)
H13F H 0.8123 1.0928 1.2853
C13F C 0.8740(3) 1.1818(4) 1.2108(5)
H14F H 0.8566 1.2372 1.2394
C14F C 0.9257(3) 1.1872(4) 1.1430(5)
H15F H 0.9438 1.2456 1.1259
C15F C 0.9506(3) 1.1056(4) 1.1005(5)
H16F H 0.9855 1.1086 1.0532
C16F C 0.9247(3) 1.0193(4) 1.1267(4)
H17F H 0.9431 0.9642 1.0989
loop_
_geom_bond_atom_site_label_1
_geom_bond_atom_site_label_2
_geom_bond_site_symmetry_1
_geom_bond_site_symmetry_2
Ag1 O1 1_555 1_555
O1 C1 1_555 1_555
O2 Ag1 1_555 1_555
P1 Ag1 1_555 1_555
C1 O2 1_555 1_555
C2 C1 1_555 1_555
H1 C2 1_555 1_555
H2 C2 1_555 1_555
H3 C2 1_555 1_555
C3 P1 1_555 1_555
H4 C3 1_555 1_555
H5 C3 1_555 1_555
C4 C3 1_555 1_555
H6 C4 1_555 1_555
H7 C4 1_555 1_555
C5 P1 1_555 1_555
C6 C5 1_555 1_555
H8 C6 1_555 1_555
C7 C6 1_555 1_555
H9 C7 1_555 1_555
C8 C7 1_555 1_555
H10 C8 1_555 1_555
C9 C8 1_555 1_555
H11 C9 1_555 1_555
C10 C5 1_555 1_555
H12 C10 1_555 1_555
C11 P1 1_555 1_555
C12 C11 1_555 1_555
H13 C12 1_555 1_555
C13 C12 1_555 1_555
H14 C13 1_555 1_555
C14 C13 1_555 1_555
H15 C14 1_555 1_555
C15 C14 1_555 1_555
H16 C15 1_555 1_555
C16 C11 1_555 1_555
H17 C16 1_555 1_555
Ag1A O2 1_555 1_555
Ag1F P1F 1_555 1_555
O1A Ag1A 1_555 1_555
O2A Ag1 1_555 1_555
P1F C3F 1_555 1_555
P1A Ag1A 1_555 1_555
C1A O1A 1_555 1_555
C2A C1A 1_555 1_555
H1A C2A 1_555 1_555
H2A C2A 1_555 1_555
H3A C2A 1_555 1_555
C3F H4F 1_555 1_555
H5F C3F 1_555 1_555
C4F C4 1_555 1_555
H6F C4F 1_555 1_555
H7F C4F 1_555 1_555
C5F P1F 1_555 1_555
C6F C5F 1_555 1_555
H8F C6F 1_555 1_555
C7F C6F 1_555 1_555
H9F C7F 1_555 1_555
C8F C7F 1_555 1_555
H10F C8F 1_555 1_555
C9F C8F 1_555 1_555
H11F C9F 1_555 1_555
C10F C5F 1_555 1_555
H12F C10F 1_555 1_555
C11F P1F 1_555 1_555
C12F C11F 1_555 1_555
H13F C12F 1_555 1_555
C13F C12F 1_555 1_555
H14F C13F 1_555 1_555
C14F C13F 1_555 1_555
H15F C14F 1_555 1_555
C15F C14F 1_555 1_555
H16F C15F 1_555 1_555
C16F C11F 1_555 1_555
H17F C16F 1_555 1_555
C9 C10 1_555 1_555
C15 C16 1_555 1_555
Ag1A O2A 1_555 1_555
O2A C1A 1_555 1_555
C3F C4F 1_555 1_555
C9F C10F 1_555 1_555
C15F C16F 1_555 1_555

#END
