
#######################################################################
#
#                 Cambridge Crystallographic Data Centre
#                                CCDC 
#
#######################################################################
#
# If this CIF has been generated from an entry in the Cambridge 
# Structural Database, then it will include bibliographic, chemical, 
# crystal, experimental, refinement or atomic coordinate data resulting 
# from the CCDC's data processing and validation procedures.
#
#######################################################################

data_RAJKAQ
_symmetry_cell_setting           monoclinic
_symmetry_space_group_name_H-M   'C 2/c'
_symmetry_Int_Tables_number      15
_space_group_name_Hall           '-C 2yn'
loop_
_symmetry_equiv_pos_site_id
_symmetry_equiv_pos_as_xyz
1 x,y,z
2 -x,y,1/2-z
3 1/2+x,1/2+y,z
4 1/2-x,1/2+y,1/2-z
5 -x,-y,-z
6 x,-y,1/2+z
7 1/2-x,1/2-y,-z
8 1/2+x,1/2-y,1/2+z
_cell_length_a                   16.133(2)
_cell_length_b                   17.828(2)
_cell_length_c                   10.2487(14)
_cell_angle_alpha                90
_cell_angle_beta                 116.650(2)
_cell_angle_gamma                90
_cell_volume                     2634.57
loop_
_atom_site_label
_atom_site_type_symbol
_atom_site_fract_x
_atom_site_fract_y
_atom_site_fract_z
Cd1 Cd 0.19119(3) 1.039287(19) 0.86135(4)
O1 O 0.1277(3) 0.93374(19) 0.9264(4)
O2 O 0.1907(3) 0.91427(19) 0.7795(4)
O3 O 0.2558(3) 0.6604(2) 0.6709(5)
O4 O 0.2046(3) 0.56211(19) 0.7391(4)
O5 O 0.0384(3) 0.6758(2) 1.0191(4)
O6 O 0.1144(3) 1.1068(2) 0.9723(4)
H1 H 0.1409 1.1080 1.0651
H2 H 0.1077 1.1536 0.9547
O7 O 0.0698(3) 1.0585(3) 0.6377(4)
H3 H 0.0114 1.0632 0.6044
H4 H 0.0786 1.0417 0.5673
O8 O 0.3176(3) 1.0414(2) 1.0896(4)
H5 H 0.3247 1.0880 1.1087
H6 H 0.3039 1.0107 1.1404
C1 C 0.1519(4) 0.8900(3) 0.8541(5)
C2 C 0.1375(3) 0.8071(3) 0.8587(5)
C3 C 0.0919(3) 0.7771(3) 0.9329(5)
H7 H 0.0667 0.8088 0.9778
C4 C 0.0833(3) 0.7001(3) 0.9409(5)
C5 C 0.1205(3) 0.6524(3) 0.8736(5)
H8 H 0.1145 0.6007 0.8783
C6 C 0.1670(3) 0.6824(2) 0.7988(5)
C7 C 0.1750(3) 0.7593(3) 0.7911(5)
H9 H 0.2055 0.7793 0.7406
C8 C 0.2113(3) 0.6324(3) 0.7322(5)
C9 C 0.0299(5) 0.5972(3) 1.0321(7)
H10 H -0.0048 0.5758 0.9368
H11 H -0.0017 0.5876 1.0904
H12 H 0.0905 0.5749 1.0777
Cd1C Cd 0.30881(3) 0.539287(19) 0.63865(4)
O3C O 0.2442(3) 1.1604(2) 0.8291(5)
O4C O 0.2954(3) 1.06211(19) 0.7609(4)
O9 O 0.3371(9) 0.2052(8) 0.1266(11)
H13 H 0.3105 0.2438 0.1391
H14 H 0.3235 0.1710 0.1715
O10? O 0.4431(12) 0.2604(10) 0.1492(16)
H15? H 0.3857 0.2500 0.1153
H16? H 0.4859 0.2805 0.2245
loop_
_geom_bond_atom_site_label_1
_geom_bond_atom_site_label_2
_geom_bond_site_symmetry_1
_geom_bond_site_symmetry_2
Cd1 O1 1_555 1_555
O1 C1 1_555 1_555
O2 Cd1 1_555 1_555
O3 C8 1_555 1_555
O4 C8 1_555 1_555
O5 C4 1_555 1_555
O6 Cd1 1_555 1_555
H1 O6 1_555 1_555
H2 O6 1_555 1_555
O7 Cd1 1_555 1_555
H3 O7 1_555 1_555
H4 O7 1_555 1_555
O8 Cd1 1_555 1_555
H5 O8 1_555 1_555
H6 O8 1_555 1_555
C1 O2 1_555 1_555
C2 C1 1_555 1_555
C3 C2 1_555 1_555
H7 C3 1_555 1_555
C4 C3 1_555 1_555
C5 C4 1_555 1_555
H8 C5 1_555 1_555
C6 C5 1_555 1_555
C7 C2 1_555 1_555
H9 C7 1_555 1_555
C8 C6 1_555 1_555
C9 O5 1_555 1_555
H10 C9 1_555 1_555
H11 C9 1_555 1_555
H12 C9 1_555 1_555
O9 H13 1_555 1_555
H14 O9 1_555 1_555
Cd1C O3 1_555 1_555
O3C Cd1 1_555 1_555
O4C Cd1 1_555 1_555
O4 Cd1C 1_555 1_555
C6 C7 1_555 1_555

#END
