
#######################################################################
#
#                 Cambridge Crystallographic Data Centre
#                                CCDC 
#
#######################################################################
#
# If this CIF has been generated from an entry in the Cambridge 
# Structural Database, then it will include bibliographic, chemical, 
# crystal, experimental, refinement or atomic coordinate data resulting 
# from the CCDC's data processing and validation procedures.
#
#######################################################################

data_RAJMIA
_symmetry_cell_setting           monoclinic
_symmetry_space_group_name_H-M   'P 21/n'
_symmetry_Int_Tables_number      14
_space_group_name_Hall           '-P 2yn'
loop_
_symmetry_equiv_pos_site_id
_symmetry_equiv_pos_as_xyz
1 x,y,z
2 1/2-x,1/2+y,1/2-z
3 -x,-y,-z
4 1/2+x,1/2-y,1/2+z
_cell_length_a                   12.580(5)
_cell_length_b                   13.216(5)
_cell_length_c                   29.246(5)
_cell_angle_alpha                90
_cell_angle_beta                 100.742(5)
_cell_angle_gamma                90
_cell_volume                     4777.15
loop_
_atom_site_label
_atom_site_type_symbol
_atom_site_fract_x
_atom_site_fract_y
_atom_site_fract_z
Cd1 Cd 0.49681(4) 0.47125(3) 0.317838(16)
Co1 Co 1.00929(7) 0.32374(6) 0.35804(3)
O1 O 0.7765(4) 0.1111(3) 0.33544(18)
O2 O 1.2865(4) 0.2785(4) 0.44910(18)
O3 O 0.3873(4) 0.8572(3) 0.26319(15)
O4 O 0.6442(4) 1.0484(3) 0.08829(16)
N1 N 0.8790(4) 0.2545(4) 0.32778(18)
N2 N 1.1461(5) 0.3551(4) 0.39786(18)
N3 N 0.4161(4) 0.7916(4) 0.19325(17)
N4 N 0.5705(4) 0.8936(4) 0.10023(18)
N5 N 1.0320(5) 0.2019(4) 0.39047(18)
N6 N 0.5147(4) 0.9458(4) 0.17432(18)
N7 N 0.6409(4) 0.4150(4) 0.28675(19)
N8 N 1.3527(4) 0.5064(4) 0.35435(18)
N9 N 0.4017(4) 0.5473(4) 0.25073(18)
N10 N 0.6890(5) 0.7319(4) 0.0203(2)
N11 N 0.5950(5) 0.4042(5) 0.4694(2)
N12 N 0.6498(6) 0.7532(5) 0.3859(2)
C1 C 1.0554(7) 0.0299(5) 0.4410(3)
H1 H 1.0652 -0.0310 0.4585
C2 C 0.9615(7) 0.0437(5) 0.4072(3)
H2 H 0.9067 -0.0067 0.4019
C3 C 0.9513(6) 0.1314(5) 0.3823(2)
C4 C 1.1191(6) 0.1905(5) 0.4230(2)
C5 C 1.1329(7) 0.1037(5) 0.4489(2)
H3 H 1.1958 0.0948 0.4722
C6 C 0.8601(6) 0.1636(5) 0.3456(2)
C7 C 0.7970(5) 0.3068(4) 0.2962(2)
C8 C 0.8019(6) 0.3194(6) 0.2499(2)
H4 H 0.8567 0.2867 0.2370
C9 C 0.7260(6) 0.3803(6) 0.2222(3)
H5 H 0.7276 0.3894 0.1901
C10 C 0.6482(6) 0.4274(5) 0.2424(2)
H6 H 0.5976 0.4706 0.2236
C11 C 0.7135(5) 0.3550(5) 0.3129(2)
H7 H 0.7078 0.3446 0.3445
C12 C 1.1935(7) 0.2805(5) 0.4253(2)
C13 C 1.2085(5) 0.4417(5) 0.3893(2)
C14 C 1.1806(5) 0.5380(5) 0.3990(2)
H8 H 1.1225 0.5492 0.4150
C15 C 1.2367(5) 0.6195(5) 0.3855(2)
H9 H 1.2166 0.6870 0.3912
C16 C 1.3226(5) 0.5999(5) 0.3636(2)
H10 H 1.3622 0.6555 0.3546
C17 C 1.2955(5) 0.4293(5) 0.3671(2)
H11 H 1.3159 0.3624 0.3605
C18 C 0.5536(6) 1.1221(5) 0.2218(2)
H12 H 0.5687 1.1833 0.2388
C19 C 0.4966(6) 1.0456(5) 0.2389(3)
H13 H 0.4718 1.0537 0.2674
C20 C 0.4766(5) 0.9564(5) 0.2132(2)
C21 C 0.5695(5) 1.0173(4) 0.1567(2)
C22 C 0.5888(5) 1.1098(5) 0.1800(2)
H14 H 0.6252 1.1630 0.1674
C23 C 0.4209(5) 0.8622(5) 0.2258(2)
C24 C 0.3787(5) 0.6942(4) 0.2022(2)
C25 C 0.2843(5) 0.6519(5) 0.1764(2)
H15 H 0.2435 0.6877 0.1508
C26 C 0.2510(5) 0.5577(5) 0.1885(2)
H16 H 0.1876 0.5275 0.1712
C27 C 0.3112(6) 0.5077(5) 0.2263(2)
H17 H 0.2874 0.4435 0.2350
C28 C 0.4346(5) 0.6378(4) 0.2391(2)
H18 H 0.4992 0.6652 0.2569
C29 C 0.6010(5) 0.9885(5) 0.1114(2)
C30 C 0.5866(6) 0.8496(5) 0.0575(2)
C31 C 0.5151(6) 0.8656(5) 0.0160(2)
H19 H 0.4554 0.9104 0.0142
C32 C 0.5341(6) 0.8138(6) -0.0227(2)
H20 H 0.4881 0.8247 -0.0519
C33 C 0.6177(6) 0.7475(5) -0.0196(2)
H21 H 0.6262 0.7107 -0.0465
C34 C 0.6724(6) 0.7818(5) 0.0576(2)
H22 H 0.7214 0.7709 0.0861
C35 C 0.5556(6) 0.3903(6) 0.4248(3)
H23 H 0.4957 0.3457 0.4172
C36 C 0.5513(7) 0.3504(7) 0.5054(3)
H24 H 0.4985 0.3000 0.4908
H25 H 0.5158 0.3987 0.5231
H26 H 0.6103 0.3164 0.5264
C37 C 0.6857(7) 0.4735(6) 0.4843(3)
H27 H 0.7140 0.4964 0.4570
H28 H 0.7430 0.4383 0.5057
H29 H 0.6609 0.5320 0.5000
C38 C 0.6344(6) 0.6592(6) 0.3695(3)
H30 H 0.6821 0.6079 0.3839
C39 C 0.5761(9) 0.8371(6) 0.3663(4)
H31 H 0.5315 0.8153 0.3368
H32 H 0.6191 0.8962 0.3608
H33 H 0.5292 0.8549 0.3883
C40 C 0.7366(8) 0.7748(7) 0.4259(3)
H34 H 0.7837 0.8280 0.4174
H35 H 0.7791 0.7133 0.4345
H36 H 0.7048 0.7975 0.4522
O8 O 0.5895(4) 0.4298(4) 0.39243(16)
O9 O 0.5612(4) 0.6344(4) 0.33660(17)
O10 O 0.4338(4) 0.3049(3) 0.30918(15)
H37 H 0.385(6) 0.287(6) 0.281(2)
H38 H 0.483(6) 0.250(5) 0.317(3)
Cd1_2 Cd 1.49681(4) 0.47125(3) 0.317838(16)
Co1A Co 0.49071(7) 0.82374(6) 0.14196(3)
N3A N 1.0839(4) 0.2916(4) 0.30675(17)
N4A N 0.9295(4) 0.3936(4) 0.39977(18)
N6A N 0.9853(4) 0.4458(4) 0.32568(18)
N8_2 N 0.3527(4) 0.5064(4) 0.35435(18)
O5 O 0.0531(5) 0.8285(4) 0.31446(19)
O6 O -0.0208(5) 0.8234(4) 0.37579(19)
O7 O 0.1503(5) 0.8598(4) 0.3813(2)
N13 N 0.0616(6) 0.8375(4) 0.3567(2)
O11 O 0.5662(5) 0.1550(4) 0.3474(2)
O12 O 0.2996(4) 0.2435(3) 0.23138(16)
O13 O 0.6566(12) 0.0836(11) 0.4881(4)
O14 O 0.6423(8) 0.0738(7) 0.5760(3)
O15 O 0.4504(9) 0.1203(8) 0.4271(4)
O16? O 0.699(2) 0.043(2) 0.4763(8)
O17? O 0.642(3) 0.147(3) 0.6386(13)
O18? O 0.5006(14) 0.0421(13) 0.4165(6)
loop_
_geom_bond_atom_site_label_1
_geom_bond_atom_site_label_2
_geom_bond_site_symmetry_1
_geom_bond_site_symmetry_2
Cd1 N7 1_555 1_555
Co1 N1 1_555 1_555
O1 C6 1_555 1_555
O2 C12 1_555 1_555
O3 C23 1_555 1_555
O4 C29 1_555 1_555
O5 N13 1_555 1_555
O6 N13 1_555 1_555
O7 N13 1_555 1_555
N1 C6 1_555 1_555
N2 Co1 1_555 1_555
N3 C23 1_555 1_555
N4 C29 1_555 1_555
N5 Co1 1_555 1_555
N6 C20 1_555 1_555
N7 C10 1_555 1_555
N8 C16 1_555 1_555
N9 Cd1 1_555 1_555
N10 C33 1_555 1_555
N11 C35 1_555 1_555
N12 C38 1_555 1_555
C1 H1 1_555 1_555
C2 C1 1_555 1_555
H2 C2 1_555 1_555
C3 N5 1_555 1_555
C4 N5 1_555 1_555
C5 C1 1_555 1_555
H3 C5 1_555 1_555
C6 C3 1_555 1_555
C7 N1 1_555 1_555
C8 C7 1_555 1_555
H4 C8 1_555 1_555
C9 C8 1_555 1_555
H5 C9 1_555 1_555
C10 C9 1_555 1_555
H6 C10 1_555 1_555
C11 N7 1_555 1_555
H7 C11 1_555 1_555
C12 N2 1_555 1_555
C13 N2 1_555 1_555
C14 C13 1_555 1_555
H8 C14 1_555 1_555
C15 C14 1_555 1_555
H9 C15 1_555 1_555
C16 C15 1_555 1_555
H10 C16 1_555 1_555
C17 N8 1_555 1_555
H11 C17 1_555 1_555
C18 H12 1_555 1_555
C19 C18 1_555 1_555
H13 C19 1_555 1_555
C20 C19 1_555 1_555
C21 N6 1_555 1_555
C22 C18 1_555 1_555
H14 C22 1_555 1_555
C23 C20 1_555 1_555
C24 N3 1_555 1_555
C25 C24 1_555 1_555
H15 C25 1_555 1_555
C26 C25 1_555 1_555
H16 C26 1_555 1_555
C27 N9 1_555 1_555
H17 C27 1_555 1_555
C28 N9 1_555 1_555
H18 C28 1_555 1_555
C29 C21 1_555 1_555
C30 N4 1_555 1_555
C31 C30 1_555 1_555
H19 C31 1_555 1_555
C32 C31 1_555 1_555
H20 C32 1_555 1_555
C33 C32 1_555 1_555
H21 C33 1_555 1_555
C34 N10 1_555 1_555
H22 C34 1_555 1_555
C35 H23 1_555 1_555
C36 N11 1_555 1_555
H24 C36 1_555 1_555
H25 C36 1_555 1_555
H26 C36 1_555 1_555
C37 N11 1_555 1_555
H27 C37 1_555 1_555
H28 C37 1_555 1_555
H29 C37 1_555 1_555
C38 H30 1_555 1_555
C39 N12 1_555 1_555
H31 C39 1_555 1_555
H32 C39 1_555 1_555
H33 C39 1_555 1_555
C40 N12 1_555 1_555
H34 C40 1_555 1_555
H35 C40 1_555 1_555
H36 C40 1_555 1_555
O8 Cd1 1_555 1_555
O9 Cd1 1_555 1_555
O10 Cd1 1_555 1_555
H37 O10 1_555 1_555
H38 O10 1_555 1_555
Cd1_2 N8 1_555 1_555
Co1A N3 1_555 1_555
N3A Co1 1_555 1_555
N4A Co1 1_555 1_555
N6A Co1 1_555 1_555
N8_2 Cd1 1_555 1_555
N4 Co1A 1_555 1_555
N6 Co1A 1_555 1_555
C2 C3 1_555 1_555
C4 C5 1_555 1_555
C4 C12 1_555 1_555
C7 C11 1_555 1_555
C13 C17 1_555 1_555
C21 C22 1_555 1_555
C24 C28 1_555 1_555
C26 C27 1_555 1_555
C30 C34 1_555 1_555
C35 O8 1_555 1_555
C38 O9 1_555 1_555

#END
