
#######################################################################
#
#                 Cambridge Crystallographic Data Centre
#                                CCDC 
#
#######################################################################
#
# If this CIF has been generated from an entry in the Cambridge 
# Structural Database, then it will include bibliographic, chemical, 
# crystal, experimental, refinement or atomic coordinate data resulting 
# from the CCDC's data processing and validation procedures.
#
#######################################################################

data_RAJMEU
_symmetry_cell_setting           monoclinic
_symmetry_space_group_name_H-M   'P 21/c'
_symmetry_Int_Tables_number      14
_space_group_name_Hall           '-P 2ybc'
loop_
_symmetry_equiv_pos_site_id
_symmetry_equiv_pos_as_xyz
1 x,y,z
2 -x,1/2+y,1/2-z
3 -x,-y,-z
4 x,1/2-y,1/2+z
_cell_length_a                   7.9940(10)
_cell_length_b                   31.8530(10)
_cell_length_c                   24.3020(10)
_cell_angle_alpha                90.00
_cell_angle_beta                 93.460(10)
_cell_angle_gamma                90.00
_cell_volume                     6176.81
loop_
_atom_site_label
_atom_site_type_symbol
_atom_site_fract_x
_atom_site_fract_y
_atom_site_fract_z
Pb1 Pb 0.61122(4) 0.309502(8) -0.293224(12)
S1 S 0.4278(2) 0.19136(6) -0.46861(9)
C1 C 0.4005(10) 0.1359(2) -0.4803(3)
H1 H 0.3644 0.1226 -0.4461
H2 H 0.3105 0.1316 -0.5095
S2 S 0.4699(2) 0.43904(6) -0.46389(9)
C2 C 0.4059(9) 0.3860(2) -0.4811(3)
H3 H 0.3571 0.3729 -0.4488
H4 H 0.3180 0.3867 -0.5116
O1 O 0.3064(6) 0.31381(15) -0.3063(2)
O2 O 0.4881(7) 0.37622(16) -0.2387(2)
O3 O 0.5494(7) 0.26673(16) -0.3735(2)
O4 O 0.5727(8) 0.36017(16) -0.3646(2)
O5 O 0.8995(9) 0.3100(2) -0.3382(5)
C3 C 0.5791(8) 0.2281(2) -0.3722(3)
C4 C 0.6801(9) 0.2006(2) -0.3342(3)
O7 O 0.7750(7) 0.20573(19) -0.2935(2)
C5 C 0.6211(9) 0.1640(2) -0.3687(3)
O8 O 0.6398(7) 0.12630(16) -0.3653(3)
C6 C 0.5358(9) 0.1934(2) -0.4059(3)
C7 C 0.6201(9) 0.3980(2) -0.3659(3)
C8 C 0.7338(9) 0.4250(2) -0.3320(3)
O9 O 0.8320(8) 0.4207(2) -0.2925(3)
C9 C 0.6801(9) 0.4606(2) -0.3702(3)
O10 O 0.7077(7) 0.49813(16) -0.3708(3)
C10 C 0.5808(9) 0.4312(2) -0.4030(3)
Pb2 Pb 0.26132(4) 0.186185(9) -0.680170(13)
S3 S 0.5242(2) 0.05897(6) -0.51256(9)
C11 C 0.5591(8) 0.1144(2) -0.4972(3)
H5 H 0.6475 0.1171 -0.4671
H6 H 0.5992 0.1285 -0.5302
S4 S 0.4906(2) 0.30576(6) -0.51242(9)
C12 C 0.5517(9) 0.3597(2) -0.4982(3)
H7 H 0.6418 0.3602 -0.4684
H8 H 0.5970 0.3721 -0.5316
O12 O 0.0395(8) 0.1775(2) -0.6135(3)
O13 O 0.2981(8) 0.23937(17) -0.6066(3)
O14 O 0.3567(7) 0.13222(17) -0.6118(2)
O15 O 0.0093(10) 0.2327(3) -0.7205(3)
O16 O 0.0508(10) 0.1330(3) -0.7224(3)
C13 C 0.3052(9) 0.2781(2) -0.6085(3)
C14 C 0.2310(10) 0.3107(2) -0.6457(3)
O17 O 0.1330(8) 0.31171(19) -0.6863(3)
C15 C 0.3201(10) 0.3423(2) -0.6110(3)
O18 O 0.3296(8) 0.38128(18) -0.6121(3)
C16 C 0.3808(9) 0.3097(2) -0.5743(3)
C17 C 0.3558(9) 0.0937(2) -0.6120(3)
C18 C 0.2782(10) 0.0605(3) -0.6490(3)
O19 O 0.1850(9) 0.0599(2) -0.6904(3)
C19 C 0.3568(9) 0.0288(3) -0.6108(3)
O20 O 0.3608(8) -0.01027(18) -0.6104(3)
C20 C 0.4201(9) 0.0614(2) -0.5756(3)
O6 O -0.5657(7) 0.24358(17) -0.2419(2)
O11 O 0.6072(7) 0.19269(16) -0.6683(3)
Pb3 Pb -0.21617(4) 0.062405(9) -0.187171(12)
S5 S 0.0010(2) 0.17882(6) -0.00763(8)
C21 C 0.0462(9) 0.2333(2) 0.0111(3)
H9 H 0.1346 0.2340 0.0414
H10 H 0.0894 0.2481 -0.0210
S6 S 0.0454(2) -0.06618(6) -0.02212(9)
C22 C 0.0795(9) -0.0105(2) -0.0081(3)
H11 H 0.1675 -0.0073 0.0220
H12 H 0.1193 0.0033 -0.0414
O21 O 0.1251(7) 0.06610(16) -0.1793(2)
O22 O -0.4343(7) 0.05560(19) -0.1185(3)
O23 O -0.1588(8) 0.11457(17) -0.1111(3)
O24 O -0.1262(7) 0.00576(17) -0.1225(2)
O25 O -0.4246(9) 0.0087(3) -0.2293(3)
O26 O -0.4594(10) 0.1119(3) -0.2266(3)
C23 C -0.1696(9) 0.1533(2) -0.1083(3)
C24 C -0.2546(10) 0.1870(2) -0.1415(3)
O27 O -0.3513(8) 0.1879(2) -0.1829(3)
C25 C -0.1804(10) 0.2180(2) -0.1023(3)
O28 O -0.1835(8) 0.25668(17) -0.0993(3)
C26 C -0.1083(9) 0.1842(2) -0.0696(3)
C27 C -0.1261(9) -0.0325(2) -0.1212(3)
C28 C -0.2014(10) -0.0664(3) -0.1581(3)
O29 O -0.2966(8) -0.0674(2) -0.1986(3)
C29 C -0.1235(10) -0.0977(2) -0.1196(3)
O30 O -0.1207(7) -0.13654(17) -0.1191(3)
C30 C -0.0599(9) -0.0644(2) -0.0852(3)
Pb4 Pb 0.12502(4) 0.436278(8) 0.198442(12)
S7 S -0.0744(2) 0.31194(6) 0.03603(9)
C31 C -0.1071(9) 0.2557(2) 0.0290(4)
H13 H -0.1381 0.2441 0.0648
H14 H -0.2016 0.2505 0.0016
S8 S -0.0039(3) 0.56606(6) 0.02706(9)
C32 C -0.0747(8) 0.5139(2) 0.0078(3)
H15 H -0.1300 0.5009 0.0390
H16 H -0.1580 0.5158 -0.0239
O31 O -0.1804(6) 0.43877(14) 0.1843(2)
O32 O -0.0019(7) 0.50239(15) 0.2512(2)
O33 O 0.0702(7) 0.39119(16) 0.1203(2)
O34 O 0.0815(7) 0.48515(16) 0.1255(2)
O35 O 0.4146(9) 0.4378(2) 0.1550(5)
C33 C 0.0940(9) 0.3527(2) 0.1260(3)
C34 C 0.1940(9) 0.3263(2) 0.1664(3)
O37 O 0.2907(7) 0.33296(19) 0.2061(3)
C35 C 0.1254(9) 0.2885(2) 0.1364(3)
O38 O 0.1348(8) 0.25072(17) 0.1438(3)
C36 C 0.0434(9) 0.3162(2) 0.0968(3)
C37 C 0.1345(9) 0.5224(2) 0.1246(3)
C38 C 0.2522(9) 0.5482(3) 0.1604(3)
O39 O 0.3487(8) 0.5424(2) 0.1987(3)
C39 C 0.2046(9) 0.5844(2) 0.1225(3)
O40 O 0.2353(8) 0.62233(18) 0.1227(3)
C40 C 0.1040(9) 0.5565(2) 0.0883(3)
C22B C -0.0795(9) 0.0105(2) 0.0081(3)
S6B S -0.0454(2) 0.06618(6) 0.02212(9)
C30B C 0.0599(9) 0.0644(2) 0.0852(3)
C27B C 0.1261(9) 0.0325(2) 0.1212(3)
O24B O 0.1262(7) -0.00576(17) 0.1225(2)
C28B C 0.2014(10) 0.0664(3) 0.1581(3)
O29B O 0.2966(8) 0.0674(2) 0.1986(3)
C29B C 0.1235(10) 0.0977(2) 0.1196(3)
O30B O 0.1207(7) 0.13654(17) 0.1191(3)
H11B H -0.1675 0.0073 -0.0220
H12B H -0.1193 -0.0033 0.0414
C32B C 0.0747(8) 0.4861(2) -0.0078(3)
S8B S 0.0039(3) 0.43394(6) -0.02706(9)
C40B C -0.1040(9) 0.4435(2) -0.0883(3)
C37B C -0.1345(9) 0.4776(2) -0.1246(3)
O34B O -0.0815(7) 0.51485(16) -0.1255(2)
C38B C -0.2522(9) 0.4518(3) -0.1604(3)
O39B O -0.3487(8) 0.4576(2) -0.1987(3)
C39B C -0.2046(9) 0.4156(2) -0.1225(3)
O40B O -0.2353(8) 0.37767(18) -0.1227(3)
H15B H 0.1300 0.4991 -0.0390
H16B H 0.1580 0.4842 0.0239
Pb3B Pb 0.21617(4) -0.062405(9) 0.187171(12)
O21B O -0.1251(7) -0.06610(16) 0.1793(2)
O22B O 0.4343(7) -0.05560(19) 0.1185(3)
S5B S -0.0010(2) -0.17882(6) 0.00763(8)
C21B C -0.0462(9) -0.2333(2) -0.0111(3)
H9B H -0.1346 -0.2340 -0.0414
H10B H -0.0894 -0.2481 0.0210
O23B O 0.1588(8) -0.11457(17) 0.1111(3)
C23B C 0.1696(9) -0.1533(2) 0.1083(3)
C24B C 0.2546(10) -0.1870(2) 0.1415(3)
O27B O 0.3513(8) -0.1879(2) 0.1829(3)
C25B C 0.1804(10) -0.2180(2) 0.1023(3)
O28B O 0.1835(8) -0.25668(17) 0.0993(3)
C26B C 0.1083(9) -0.1842(2) 0.0696(3)
S7B S 0.0744(2) -0.31194(6) -0.03603(9)
C31B C 0.1071(9) -0.2557(2) -0.0290(4)
H13B H 0.1381 -0.2441 -0.0648
H14B H 0.2016 -0.2505 -0.0016
O33B O -0.0702(7) -0.39119(16) -0.1203(2)
C33B C -0.0940(9) -0.3527(2) -0.1260(3)
C34B C -0.1940(9) -0.3263(2) -0.1664(3)
O37B O -0.2907(7) -0.33296(19) -0.2061(3)
C35B C -0.1254(9) -0.2885(2) -0.1364(3)
O38B O -0.1348(8) -0.25072(17) -0.1438(3)
C36B C -0.0434(9) -0.3162(2) -0.0968(3)
O25B O 0.4246(9) -0.0087(3) 0.2293(3)
O26B O 0.4594(10) -0.1119(3) 0.2266(3)
Pb4B Pb -0.12502(4) -0.436278(8) -0.198442(12)
O31B O 0.1804(6) -0.43877(14) -0.1843(2)
O32B O 0.0019(7) -0.50239(15) -0.2512(2)
O35B O -0.4146(9) -0.4378(2) -0.1550(5)
Pb4B_2 Pb -0.12502(4) 0.563722(8) -0.198442(12)
O34B_2 O -0.0815(7) -0.48515(16) -0.1255(2)
O36 O -0.0565(7) 0.36938(17) 0.2508(2)
loop_
_geom_bond_atom_site_label_1
_geom_bond_atom_site_label_2
_geom_bond_site_symmetry_1
_geom_bond_site_symmetry_2
Pb1 O1 1_555 1_555
S1 C1 1_555 1_555
C1 H1 1_555 1_555
H2 C1 1_555 1_555
S2 C2 1_555 1_555
C2 H3 1_555 1_555
H4 C2 1_555 1_555
O2 Pb1 1_555 1_555
O3 Pb1 1_555 1_555
O4 Pb1 1_555 1_555
O5 Pb1 1_555 1_555
C3 O3 1_555 1_555
C4 C3 1_555 1_555
O7 C4 1_555 1_555
C5 C4 1_555 1_555
O8 C5 1_555 1_555
C6 S1 1_555 1_555
C7 O4 1_555 1_555
C8 C7 1_555 1_555
O9 C8 1_555 1_555
C9 C8 1_555 1_555
O10 C9 1_555 1_555
C10 S2 1_555 1_555
Pb2 O12 1_555 1_555
S3 C11 1_555 1_555
C11 C1 1_555 1_555
H5 C11 1_555 1_555
H6 C11 1_555 1_555
S4 C12 1_555 1_555
C12 C2 1_555 1_555
H7 C12 1_555 1_555
H8 C12 1_555 1_555
O13 Pb2 1_555 1_555
O14 Pb2 1_555 1_555
O15 Pb2 1_555 1_555
O16 Pb2 1_555 1_555
C13 O13 1_555 1_555
C14 C13 1_555 1_555
O17 C14 1_555 1_555
C15 C14 1_555 1_555
O18 C15 1_555 1_555
C16 S4 1_555 1_555
C17 O14 1_555 1_555
C18 C17 1_555 1_555
O19 C18 1_555 1_555
C19 C18 1_555 1_555
O20 C19 1_555 1_555
C20 S3 1_555 1_555
Pb3 O21 1_555 1_555
S5 C21 1_555 1_555
C21 H9 1_555 1_555
H10 C21 1_555 1_555
S6 C22 1_555 1_555
C22 H11 1_555 1_555
H12 C22 1_555 1_555
O22 Pb3 1_555 1_555
O23 Pb3 1_555 1_555
O24 Pb3 1_555 1_555
O25 Pb3 1_555 1_555
O26 Pb3 1_555 1_555
C23 O23 1_555 1_555
C24 C23 1_555 1_555
O27 C24 1_555 1_555
C25 C24 1_555 1_555
O28 C25 1_555 1_555
C26 S5 1_555 1_555
C27 O24 1_555 1_555
C28 C27 1_555 1_555
O29 C28 1_555 1_555
C29 C28 1_555 1_555
O30 C29 1_555 1_555
C30 S6 1_555 1_555
Pb4 O31 1_555 1_555
S7 C31 1_555 1_555
C31 C21 1_555 1_555
H13 C31 1_555 1_555
H14 C31 1_555 1_555
S8 C32 1_555 1_555
C32 H15 1_555 1_555
H16 C32 1_555 1_555
O32 Pb4 1_555 1_555
O33 Pb4 1_555 1_555
O34 Pb4 1_555 1_555
O35 Pb4 1_555 1_555
C33 O33 1_555 1_555
C34 C33 1_555 1_555
O37 C34 1_555 1_555
C35 C34 1_555 1_555
O38 C35 1_555 1_555
C36 S7 1_555 1_555
C37 O34 1_555 1_555
C38 C37 1_555 1_555
O39 C38 1_555 1_555
C39 C38 1_555 1_555
O40 C39 1_555 1_555
C40 S8 1_555 1_555
C22B C22 1_555 1_555
S6B C22B 1_555 1_555
C30B S6B 1_555 1_555
C27B C30B 1_555 1_555
O24B C27B 1_555 1_555
C28B C27B 1_555 1_555
O29B C28B 1_555 1_555
C29B C30B 1_555 1_555
O30B C29B 1_555 1_555
H11B C22B 1_555 1_555
H12B C22B 1_555 1_555
C32B C32 1_555 1_555
S8B C32B 1_555 1_555
C40B S8B 1_555 1_555
C37B C40B 1_555 1_555
O34B C37B 1_555 1_555
C38B C37B 1_555 1_555
O39B C38B 1_555 1_555
C39B C40B 1_555 1_555
O40B C39B 1_555 1_555
H15B C32B 1_555 1_555
H16B C32B 1_555 1_555
Pb3B O24B 1_555 1_555
O21B Pb3B 1_555 1_555
O22B Pb3B 1_555 1_555
S5B C21B 1_555 1_555
C21B H9B 1_555 1_555
H10B C21B 1_555 1_555
O23B Pb3B 1_555 1_555
C23B O23B 1_555 1_555
C24B C23B 1_555 1_555
O27B C24B 1_555 1_555
C25B C24B 1_555 1_555
O28B C25B 1_555 1_555
C26B S5B 1_555 1_555
S7B C31B 1_555 1_555
C31B C21B 1_555 1_555
H13B C31B 1_555 1_555
H14B C31B 1_555 1_555
O33B C33B 1_555 1_555
C33B C34B 1_555 1_555
C34B O37B 1_555 1_555
C35B C34B 1_555 1_555
O38B C35B 1_555 1_555
C36B S7B 1_555 1_555
O25B Pb3B 1_555 1_555
O26B Pb3B 1_555 1_555
Pb4B O33B 1_555 1_555
O31B Pb4B 1_555 1_555
O32B Pb4B 1_555 1_555
O35B Pb4B 1_555 1_555
Pb4B_2 O34B 1_555 1_555
O34B_2 Pb4B 1_555 1_555
C3 C6 1_555 1_555
C5 C6 1_555 1_555
C7 C10 1_555 1_555
C9 C10 1_555 1_555
C13 C16 1_555 1_555
C15 C16 1_555 1_555
C17 C20 1_555 1_555
C19 C20 1_555 1_555
C23 C26 1_555 1_555
C25 C26 1_555 1_555
C27 C30 1_555 1_555
C29 C30 1_555 1_555
C33 C36 1_555 1_555
C35 C36 1_555 1_555
C37 C40 1_555 1_555
C39 C40 1_555 1_555
C28B C29B 1_555 1_555
C38B C39B 1_555 1_555
C23B C26B 1_555 1_555
C25B C26B 1_555 1_555
C33B C36B 1_555 1_555
C35B C36B 1_555 1_555

#END
