
#######################################################################
#
#                 Cambridge Crystallographic Data Centre
#                                CCDC 
#
#######################################################################
#
# If this CIF has been generated from an entry in the Cambridge 
# Structural Database, then it will include bibliographic, chemical, 
# crystal, experimental, refinement or atomic coordinate data resulting 
# from the CCDC's data processing and validation procedures.
#
#######################################################################

data_RAJNUN
_symmetry_cell_setting           monoclinic
_symmetry_space_group_name_H-M   'C 2/c'
_symmetry_Int_Tables_number      15
_space_group_name_Hall           '-C 2yn'
loop_
_symmetry_equiv_pos_site_id
_symmetry_equiv_pos_as_xyz
1 x,y,z
2 -x,y,1/2-z
3 1/2+x,1/2+y,z
4 1/2-x,1/2+y,1/2-z
5 -x,-y,-z
6 x,-y,1/2+z
7 1/2-x,1/2-y,-z
8 1/2+x,1/2-y,1/2+z
_cell_length_a                   20.2216(5)
_cell_length_b                   23.6482(6)
_cell_length_c                   14.7377(3)
_cell_angle_alpha                90
_cell_angle_beta                 94.256(2)
_cell_angle_gamma                90
_cell_volume                     7028.2
loop_
_atom_site_label
_atom_site_type_symbol
_atom_site_fract_x
_atom_site_fract_y
_atom_site_fract_z
Cu1 Cu 0.266442(18) 0.159636(16) 0.14107(2)
Cu2 Cu 0.2500 0.2500 0.0000
C1 C 0.38171(15) 0.23031(15) 0.1009(2)
C2 C 0.41183(16) 0.28239(15) 0.1235(2)
C3 C 0.24027(18) 0.23997(14) 0.2924(2)
H1 H 0.2336 0.2617 0.2399
C4 C 0.47969(17) 0.28841(17) 0.1237(2)
H2 H 0.4991 0.3235 0.1362
C5 C 0.23885(17) 0.26709(16) 0.3745(2)
H3 H 0.2313 0.3058 0.3766
C6 C 0.51944(17) 0.24197(18) 0.1052(3)
C7 C 0.24889(14) 0.23592(14) 0.4551(2)
C8 C 0.48976(17) 0.19031(17) 0.0888(2)
H4 H 0.5163 0.1590 0.0792
C9 C 0.25660(17) 0.17908(15) 0.4455(2)
H5 H 0.2611 0.1562 0.4970
C10 C 0.42073(16) 0.18328(16) 0.0860(2)
C11 C 0.25789(18) 0.15466(15) 0.3591(2)
H6 H 0.2642 0.1158 0.3552
C12 C 0.38892(16) 0.12699(15) 0.0712(2)
H7 H 0.4229 0.0989 0.0628
H8 H 0.3597 0.1281 0.0160
C13 C 0.32409(17) 0.05054(15) 0.1357(2)
H9 H 0.3567 0.0281 0.1067
H10 H 0.3175 0.0336 0.1943
C14 C 0.26023(17) 0.04983(14) 0.0782(2)
H11 H 0.2425 0.0117 0.0753
H12 H 0.2677 0.0618 0.0169
C15 C 0.15438(15) 0.09971(14) 0.0492(2)
H13 H 0.1714 0.1117 -0.0075
H14 H 0.1301 0.0647 0.0376
C16 C 0.10768(15) 0.14390(14) 0.0796(2)
C17 C 0.04185(16) 0.13193(15) 0.0929(2)
H15 H 0.0263 0.0952 0.0842
C18 C -0.00160(16) 0.17375(15) 0.1191(2)
C19 C 0.02325(15) 0.22879(14) 0.1313(2)
H16 H -0.0049 0.2575 0.1478
C20 C 0.08852(16) 0.24104(13) 0.1191(2)
C21 C 0.13173(14) 0.19849(14) 0.0927(2)
C22 C 0.59366(19) 0.2499(2) 0.1060(4)
H17 H 0.6117 0.2562 0.1673
H18 H 0.6032 0.2819 0.0690
H19 H 0.6133 0.2166 0.0822
C23 C -0.07222(17) 0.16118(17) 0.1348(3)
H20 H -0.0762 0.1546 0.1984
H21 H -0.0864 0.1281 0.1009
H22 H -0.0995 0.1927 0.1151
C24 C 0.39925(19) 0.37641(16) 0.1796(3)
H23 H 0.4237 0.3686 0.2365
H24 H 0.3652 0.4036 0.1889
H25 H 0.4287 0.3913 0.1373
C25 C 0.39323(17) 0.11301(16) 0.2357(2)
H26 H 0.3692 0.1002 0.2856
H27 H 0.4069 0.1515 0.2461
H28 H 0.4316 0.0896 0.2308
C26 C 0.18581(17) 0.06288(15) 0.1997(2)
H29 H 0.1614 0.0293 0.1825
H30 H 0.1571 0.0892 0.2269
H31 H 0.2221 0.0534 0.2427
C27 C 0.07463(18) 0.33795(15) 0.1592(3)
H32 H 0.0391 0.3440 0.1133
H33 H 0.0998 0.3721 0.1683
H34 H 0.0566 0.3273 0.2152
N1 N 0.34970(13) 0.10948(12) 0.14967(18)
N2 N 0.25057(12) 0.18423(12) 0.28241(17)
N3 N 0.21176(13) 0.08873(11) 0.11802(17)
O1 O 0.31436(10) 0.22573(9) 0.09819(14)
O2 O 0.26339(12) 0.15769(10) -0.09982(18)
O3 O 0.36950(11) 0.32513(10) 0.14379(16)
O4 O 0.19704(10) 0.20984(9) 0.08471(13)
O5 O 0.11651(10) 0.29411(9) 0.13088(15)
H35 H 0.2274(13) 0.1596(17) -0.138(2)
H36 H 0.2947(16) 0.1807(15) -0.106(3)
Cu1F Cu 0.233558(18) 0.340364(16) -0.14107(2)
Cu1F_2 Cu 0.233558(18) 0.340364(16) 0.85893(2)
C1F C 0.11829(15) 0.26969(15) -0.1009(2)
C2F C 0.08817(16) 0.21761(15) -0.1235(2)
C3F C 0.25973(18) 0.26003(14) 0.7076(2)
H1F H 0.2664 0.2383 0.7601
C4F C 0.02031(17) 0.21159(17) -0.1237(2)
H2F H 0.0009 0.1765 -0.1362
C5F C 0.26115(17) 0.23291(16) 0.6255(2)
H3F H 0.2687 0.1942 0.6234
C6F C -0.01944(17) 0.25803(18) -0.1052(3)
C7F C 0.25111(14) 0.26408(14) 0.5449(2)
C8F C 0.01024(17) 0.30969(17) -0.0888(2)
H4F H -0.0163 0.3410 -0.0792
C9F C 0.24340(17) 0.32092(15) 0.5545(2)
H5F H 0.2389 0.3438 0.5030
C10F C 0.07927(16) 0.31672(16) -0.0860(2)
C11F C 0.24211(18) 0.34534(15) 0.6409(2)
H6F H 0.2358 0.3842 0.6448
C12F C 0.11108(16) 0.37301(15) -0.0712(2)
H7F H 0.0771 0.4011 -0.0628
H8F H 0.1403 0.3719 -0.0160
C13F C 0.17591(17) 0.44946(15) -0.1357(2)
H9F H 0.1433 0.4719 -0.1067
H10F H 0.1825 0.4664 -0.1943
C14F C 0.23977(17) 0.45017(14) -0.0782(2)
H11F H 0.2575 0.4883 -0.0753
H12F H 0.2323 0.4382 -0.0169
C15F C 0.34562(15) 0.40029(14) -0.0492(2)
H13F H 0.3286 0.3883 0.0075
H14F H 0.3699 0.4353 -0.0376
C16F C 0.39232(15) 0.35610(14) -0.0796(2)
C17F C 0.45815(16) 0.36807(15) -0.0929(2)
H15F H 0.4737 0.4048 -0.0842
C18F C 0.50160(16) 0.32625(15) -0.1191(2)
C19F C 0.47675(15) 0.27121(14) -0.1313(2)
H16F H 0.5049 0.2425 -0.1478
C20F C 0.41148(16) 0.25896(13) -0.1191(2)
C21F C 0.36827(14) 0.30151(14) -0.0927(2)
C22F C -0.09366(19) 0.2501(2) -0.1060(4)
H17F H -0.1117 0.2438 -0.1673
H18F H -0.1032 0.2181 -0.0690
H19F H -0.1133 0.2834 -0.0822
C23F C 0.57222(17) 0.33882(17) -0.1348(3)
H20F H 0.5762 0.3454 -0.1984
H21F H 0.5864 0.3719 -0.1009
H22F H 0.5995 0.3073 -0.1151
C24F C 0.10075(19) 0.12359(16) -0.1796(3)
H23F H 0.0763 0.1314 -0.2365
H24F H 0.1348 0.0964 -0.1889
H25F H 0.0713 0.1087 -0.1373
C25F C 0.10677(17) 0.38699(16) -0.2357(2)
H26F H 0.1308 0.3998 -0.2856
H27F H 0.0931 0.3485 -0.2461
H28F H 0.0684 0.4104 -0.2308
C26F C 0.31419(17) 0.43712(15) -0.1997(2)
H29F H 0.3386 0.4707 -0.1825
H30F H 0.3429 0.4108 -0.2269
H31F H 0.2779 0.4466 -0.2427
C27F C 0.42537(18) 0.16205(15) -0.1592(3)
H32F H 0.4609 0.1560 -0.1133
H33F H 0.4002 0.1279 -0.1683
H34F H 0.4434 0.1727 -0.2152
N1F N 0.15030(13) 0.39052(12) -0.14967(18)
N2F N 0.24943(12) 0.31577(12) 0.71759(17)
N2F_2 N 0.24943(12) 0.31577(12) -0.28241(17)
N3F N 0.28824(13) 0.41127(11) -0.11802(17)
O1F O 0.18564(10) 0.27427(9) -0.09819(14)
O2F O 0.23661(12) 0.34231(10) 0.09982(18)
O3F O 0.13050(11) 0.17487(10) -0.14379(16)
O4F O 0.30296(10) 0.29016(9) -0.08471(13)
O5F O 0.38349(10) 0.20589(9) -0.13088(15)
H35F H 0.2726(13) 0.3404(17) 0.138(2)
H36F H 0.2053(16) 0.3193(15) 0.106(3)
loop_
_geom_bond_atom_site_label_1
_geom_bond_atom_site_label_2
_geom_bond_site_symmetry_1
_geom_bond_site_symmetry_2
Cu1 N1 1_555 1_555
Cu2 O1 1_555 1_555
C1 C2 1_555 1_555
C2 C4 1_555 1_555
C3 H1 1_555 1_555
C4 H2 1_555 1_555
C5 C3 1_555 1_555
H3 C5 1_555 1_555
C6 C4 1_555 1_555
C7 C5 1_555 1_555
C8 C6 1_555 1_555
H4 C8 1_555 1_555
C9 C7 1_555 1_555
H5 C9 1_555 1_555
C10 C1 1_555 1_555
C11 C9 1_555 1_555
H6 C11 1_555 1_555
C12 C10 1_555 1_555
H7 C12 1_555 1_555
H8 C12 1_555 1_555
C13 H9 1_555 1_555
H10 C13 1_555 1_555
C14 C13 1_555 1_555
H11 C14 1_555 1_555
H12 C14 1_555 1_555
C15 H13 1_555 1_555
H14 C15 1_555 1_555
C16 C15 1_555 1_555
C17 C16 1_555 1_555
H15 C17 1_555 1_555
C18 C17 1_555 1_555
C19 C18 1_555 1_555
H16 C19 1_555 1_555
C20 C19 1_555 1_555
C21 C16 1_555 1_555
C22 C6 1_555 1_555
H17 C22 1_555 1_555
H18 C22 1_555 1_555
H19 C22 1_555 1_555
C23 C18 1_555 1_555
H20 C23 1_555 1_555
H21 C23 1_555 1_555
H22 C23 1_555 1_555
C24 H23 1_555 1_555
H24 C24 1_555 1_555
H25 C24 1_555 1_555
C25 H26 1_555 1_555
H27 C25 1_555 1_555
H28 C25 1_555 1_555
C26 H29 1_555 1_555
H30 C26 1_555 1_555
H31 C26 1_555 1_555
C27 H32 1_555 1_555
H33 C27 1_555 1_555
H34 C27 1_555 1_555
N1 C12 1_555 1_555
N2 Cu1 1_555 1_555
N3 Cu1 1_555 1_555
O1 Cu1 1_555 1_555
O2 Cu2 1_555 1_555
O3 C2 1_555 1_555
O4 Cu1 1_555 1_555
O5 C20 1_555 1_555
H35 O2 1_555 1_555
H36 O2 1_555 1_555
Cu1F N1F 1_555 1_555
Cu1F_2 N2F 1_555 1_555
C1F C2F 1_555 1_555
C2F C4F 1_555 1_555
C3F H1F 1_555 1_555
C4F H2F 1_555 1_555
C5F C3F 1_555 1_555
H3F C5F 1_555 1_555
C6F C4F 1_555 1_555
C7F C7 1_555 1_555
C8F C6F 1_555 1_555
H4F C8F 1_555 1_555
C9F C7F 1_555 1_555
H5F C9F 1_555 1_555
C10F C1F 1_555 1_555
C11F C9F 1_555 1_555
H6F C11F 1_555 1_555
C12F C10F 1_555 1_555
H7F C12F 1_555 1_555
H8F C12F 1_555 1_555
C13F H9F 1_555 1_555
H10F C13F 1_555 1_555
C14F C13F 1_555 1_555
H11F C14F 1_555 1_555
H12F C14F 1_555 1_555
C15F H13F 1_555 1_555
H14F C15F 1_555 1_555
C16F C15F 1_555 1_555
C17F C16F 1_555 1_555
H15F C17F 1_555 1_555
C18F C17F 1_555 1_555
C19F C18F 1_555 1_555
H16F C19F 1_555 1_555
C20F C19F 1_555 1_555
C21F C16F 1_555 1_555
C22F C6F 1_555 1_555
H17F C22F 1_555 1_555
H18F C22F 1_555 1_555
H19F C22F 1_555 1_555
C23F C18F 1_555 1_555
H20F C23F 1_555 1_555
H21F C23F 1_555 1_555
H22F C23F 1_555 1_555
C24F H23F 1_555 1_555
H24F C24F 1_555 1_555
H25F C24F 1_555 1_555
C25F H26F 1_555 1_555
H27F C25F 1_555 1_555
H28F C25F 1_555 1_555
C26F H29F 1_555 1_555
H30F C26F 1_555 1_555
H31F C26F 1_555 1_555
C27F H32F 1_555 1_555
H33F C27F 1_555 1_555
H34F C27F 1_555 1_555
N1F C12F 1_555 1_555
N2F C3F 1_555 1_555
N2F_2 Cu1F 1_555 1_555
N3F Cu1F 1_555 1_555
O1F Cu2 1_555 1_555
O2F Cu2 1_555 1_555
O3F C2F 1_555 1_555
O4F Cu2 1_555 1_555
O5F C20F 1_555 1_555
H35F O2F 1_555 1_555
H36F O2F 1_555 1_555
Cu2 O4 1_555 1_555
C1 O1 1_555 1_555
C3 N2 1_555 1_555
C8 C10 1_555 1_555
C11 N2 1_555 1_555
C13 N1 1_555 1_555
C14 N3 1_555 1_555
C15 N3 1_555 1_555
C20 C21 1_555 1_555
C21 O4 1_555 1_555
C24 O3 1_555 1_555
C25 N1 1_555 1_555
C26 N3 1_555 1_555
C27 O5 1_555 1_555
Cu1F O1F 1_555 1_555
Cu1F O4F 1_555 1_555
C1F O1F 1_555 1_555
C5F C7F 1_555 1_555
C8F C10F 1_555 1_555
C11F N2F 1_555 1_555
C13F N1F 1_555 1_555
C14F N3F 1_555 1_555
C15F N3F 1_555 1_555
C20F C21F 1_555 1_555
C21F O4F 1_555 1_555
C24F O3F 1_555 1_555
C25F N1F 1_555 1_555
C26F N3F 1_555 1_555
C27F O5F 1_555 1_555

#END
