
#######################################################################
#
#                 Cambridge Crystallographic Data Centre
#                                CCDC 
#
#######################################################################
#
# If this CIF has been generated from an entry in the Cambridge 
# Structural Database, then it will include bibliographic, chemical, 
# crystal, experimental, refinement or atomic coordinate data resulting 
# from the CCDC's data processing and validation procedures.
#
#######################################################################

data_RAJNOG
_symmetry_cell_setting           orthorhombic
_symmetry_space_group_name_H-M   'P b c a'
_symmetry_Int_Tables_number      61
_space_group_name_Hall           '-P 2ac 2ab'
loop_
_symmetry_equiv_pos_site_id
_symmetry_equiv_pos_as_xyz
1 x,y,z
2 1/2-x,-y,1/2+z
3 -x,1/2+y,1/2-z
4 1/2+x,1/2-y,-z
5 -x,-y,-z
6 1/2+x,y,1/2-z
7 x,1/2-y,1/2+z
8 1/2-x,1/2+y,z
_cell_length_a                   10.776(2)
_cell_length_b                   13.283(3)
_cell_length_c                   20.890(4)
_cell_angle_alpha                90
_cell_angle_beta                 90
_cell_angle_gamma                90
_cell_volume                     2990.14
loop_
_atom_site_label
_atom_site_type_symbol
_atom_site_fract_x
_atom_site_fract_y
_atom_site_fract_z
Cd1 Cd 0.653341(11) 0.314473(9) 0.586353(6)
N1 N 0.54328(14) 0.43258(11) 0.64561(7)
N2 N 0.72842(15) 0.31923(11) 0.69342(7)
N3 N 0.48533(13) 0.25651(10) 0.53209(6)
N4 N 0.32025(13) 0.21079(11) 0.47391(7)
O1 O 0.61786(14) 0.14583(11) 0.62170(6)
O2 O 0.50979(14) 0.00778(9) 0.59928(6)
O3 O 0.18642(12) 0.03329(9) 0.47590(7)
O4 O 0.32350(13) -0.04077(9) 0.53914(7)
C1 C 0.45973(19) 0.49324(15) 0.61861(9)
C2 C 0.3894(2) 0.56005(17) 0.65304(11)
C3 C 0.4035(2) 0.56235(18) 0.71874(11)
C4 C 0.4897(2) 0.50018(16) 0.74701(10)
C5 C 0.56004(17) 0.43604(13) 0.70912(8)
C6 C 0.65815(16) 0.36937(14) 0.73574(9)
C7 C 0.6785(2) 0.35963(17) 0.80133(9)
C8 C 0.7740(2) 0.30030(16) 0.82298(10)
C9 C 0.8471(2) 0.25062(18) 0.77951(12)
C10 C 0.82062(19) 0.26111(17) 0.71526(11)
C11 C 0.40024(16) 0.28417(13) 0.48890(8)
C12 C 0.53506(17) 0.10097(13) 0.59159(7)
C13 C 0.45860(15) 0.15813(11) 0.54546(7)
C14 C 0.35671(14) 0.13011(12) 0.50973(8)
C15 C 0.28419(16) 0.03574(12) 0.50696(8)
H1 H 0.4487 0.4901 0.5745
H2 H 0.3335 0.6028 0.6327
H3 H 0.3553 0.6054 0.7436
H4 H 0.5008 0.5011 0.7912
H5 H 0.6276 0.3932 0.8303
H6 H 0.7889 0.2939 0.8666
H7 H 0.9130 0.2108 0.7930
H8 H 0.8690 0.2262 0.6858
H9 H 0.3970 0.3482 0.4710
H10 H 0.3866(17) -0.027(2) 0.5623(11)
N4C N 0.82025(13) 0.28921(11) 0.52609(7)
O3C O 0.68642(12) 0.46671(9) 0.52410(7)
Cd1C Cd 0.153341(11) 0.185527(9) 0.413647(6)
loop_
_geom_bond_atom_site_label_1
_geom_bond_atom_site_label_2
_geom_bond_site_symmetry_1
_geom_bond_site_symmetry_2
Cd1 N1 1_555 1_555
N1 C1 1_555 1_555
N2 Cd1 1_555 1_555
N3 Cd1 1_555 1_555
N4 C11 1_555 1_555
O1 Cd1 1_555 1_555
O2 C12 1_555 1_555
O3 C15 1_555 1_555
O4 C15 1_555 1_555
C1 C2 1_555 1_555
C2 C3 1_555 1_555
C3 C4 1_555 1_555
C4 C5 1_555 1_555
C5 N1 1_555 1_555
C6 N2 1_555 1_555
C7 C6 1_555 1_555
C8 C7 1_555 1_555
C9 C8 1_555 1_555
C10 N2 1_555 1_555
C11 N3 1_555 1_555
C12 O1 1_555 1_555
C13 N3 1_555 1_555
C14 N4 1_555 1_555
C15 C14 1_555 1_555
H1 C1 1_555 1_555
H2 C2 1_555 1_555
H3 C3 1_555 1_555
H4 C4 1_555 1_555
H5 C7 1_555 1_555
H6 C8 1_555 1_555
H7 C9 1_555 1_555
H8 C10 1_555 1_555
H9 C11 1_555 1_555
H10 O4 1_555 1_555
N4C Cd1 1_555 1_555
O3C Cd1 1_555 1_555
Cd1C N4 1_555 1_555
O3 Cd1C 1_555 1_555
C5 C6 1_555 1_555
C9 C10 1_555 1_555
C12 C13 1_555 1_555
C13 C14 1_555 1_555

#END
