
#######################################################################
#
#                 Cambridge Crystallographic Data Centre
#                                CCDC 
#
#######################################################################
#
# If this CIF has been generated from an entry in the Cambridge 
# Structural Database, then it will include bibliographic, chemical, 
# crystal, experimental, refinement or atomic coordinate data resulting 
# from the CCDC's data processing and validation procedures.
#
#######################################################################

data_RAJROJ
_symmetry_cell_setting           monoclinic
_symmetry_space_group_name_H-M   'P 21'
_symmetry_Int_Tables_number      4
_space_group_name_Hall           'P 2yb'
loop_
_symmetry_equiv_pos_site_id
_symmetry_equiv_pos_as_xyz
1 x,y,z
2 -x,1/2+y,-z
_cell_length_a                   10.096(2)
_cell_length_b                   15.848(3)
_cell_length_c                   11.814(2)
_cell_angle_alpha                90
_cell_angle_beta                 92.61(3)
_cell_angle_gamma                90
_cell_volume                     1888.3
loop_
_atom_site_label
_atom_site_type_symbol
_atom_site_fract_x
_atom_site_fract_y
_atom_site_fract_z
Zn1 Zn 0.14311(5) 0.30253(2) 0.87119(4)
Zn2 Zn 0.14951(5) 0.14985(3) 1.36912(4)
O1 O 0.1789(3) 0.1865(2) 0.9295(3)
O2 O 0.3753(4) 0.2455(2) 0.9670(3)
O3 O 0.2131(4) 0.1699(2) 1.1772(4)
O4 O 0.2242(5) 0.0548(3) 1.2736(3)
C1 C 0.3006(4) 0.1849(3) 0.9634(3)
C2 C 0.2460(5) 0.0952(4) 1.1876(4)
C3 C 0.3556(4) 0.0985(3) 0.9984(3)
C4 C 0.3271(4) 0.0542(3) 1.0969(4)
C5 C 0.3854(6) -0.0239(4) 1.1189(5)
H1 H 0.3649 -0.0542 1.1862
C6 C 0.4722(6) -0.0582(4) 1.0429(5)
H2 H 0.5126 -0.1122 1.0574
C7 C 0.5014(6) -0.0140(4) 0.9485(5)
H3 H 0.5601 -0.0373 0.8950
C8 C 0.4457(5) 0.0623(4) 0.9260(4)
H4 H 0.4679 0.0917 0.8584
O5 O 0.2793(4) 0.2347(3) 0.4157(3)
O6 O 0.1150(3) 0.2976(2) 0.5014(3)
O7 O 0.1383(4) 0.4478(3) 0.7215(3)
C9 C 0.2305(5) 0.2951(3) 0.4734(3)
O8 O 0.2349(3) 0.3221(3) 0.7348(3)
C10 C 0.2164(5) 0.3965(3) 0.6904(4)
C11 C 0.3236(4) 0.3668(3) 0.5015(4)
C12 C 0.3107(4) 0.4156(3) 0.5971(4)
C13 C 0.3921(6) 0.4847(4) 0.6157(5)
H5 H 0.3788 0.5183 0.6818
C14 C 0.4899(7) 0.5067(5) 0.5441(6)
H6 H 0.5504 0.5519 0.5624
C15 C 0.5028(6) 0.4592(6) 0.4484(6)
H7 H 0.5656 0.4762 0.3943
C16 C 0.4221(5) 0.3892(4) 0.4274(5)
H8 H 0.4343 0.3550 0.3616
N1 N -0.0556(4) 0.2911(3) 0.8219(3)
C17 C -0.1483(5) 0.2690(4) 0.8938(4)
H9 H -0.1215 0.2599 0.9718
C18 C -0.2780(5) 0.2560(4) 0.8609(4)
H10 H -0.3404 0.2393 0.9156
C19 C -0.3211(5) 0.2692(3) 0.7477(4)
C20 C -0.2270(5) 0.2958(4) 0.6752(4)
H11 H -0.2505 0.3052 0.5965
C21 C -0.0950(4) 0.3043(4) 0.7145(4)
H12 H -0.0319 0.3240 0.6622
C22 C -0.4598(5) 0.2552(6) 0.7066(5)
H13 H -0.4701 0.2669 0.6269
H14 H -0.4826 0.1974 0.7203
H15 H -0.5170 0.2915 0.7472
N2 N 0.1371(4) 0.3857(3) 1.0033(3)
C23 C 0.0985(6) 0.4648(3) 0.9913(5)
H16 H 0.0635 0.4824 0.9182
C24 C 0.1016(7) 0.5229(4) 1.0775(5)
H17 H 0.0751 0.5802 1.0631
C25 C 0.1489(6) 0.4986(4) 1.1848(4)
C26 C 0.1807(5) 0.4152(4) 1.1988(5)
H18 H 0.2061 0.3949 1.2732
C27 C 0.1782(5) 0.3609(3) 1.1087(4)
H19 H 0.2072 0.3037 1.1197
C28 C 0.1625(7) 0.5593(5) 1.2832(6)
H20 H 0.1350 0.6143 1.2573
H21 H 0.1070 0.5412 1.3424
H22 H 0.2530 0.5617 1.3117
N3 N -0.0458(4) 0.1679(3) 1.3223(3)
C29 C -0.1337(5) 0.1910(4) 1.3972(5)
H23 H -0.1029 0.1982 1.4746
C30 C -0.3119(5) 0.1899(4) 1.2588(5)
C31 C -0.2652(5) 0.2017(5) 1.3711(5)
H24 H -0.3244 0.2188 1.4281
C32 C -0.2225(5) 0.1656(4) 1.1824(4)
H25 H -0.2524 0.1522 1.1062
C33 C -0.0923(5) 0.1557(4) 1.2146(4)
H26 H -0.0302 0.1435 1.1577
C34 C -0.4544(6) 0.2047(7) 1.2244(6)
H27 H -0.4672 0.1931 1.1449
H28 H -0.5092 0.1677 1.2664
H29 H -0.4783 0.2622 1.2389
N4 N 0.1398(4) 0.0746(3) 1.5123(3)
C35 C 0.1819(5) 0.1006(3) 1.6143(5)
H30 H 0.2055 0.1590 1.6236
C36 C 0.1919(6) 0.0480(4) 1.7069(5)
H31 H 0.2240 0.0707 1.7783
C37 C 0.1571(5) -0.0367(4) 1.6968(5)
C38 C 0.1088(6) -0.0618(4) 1.5905(5)
H32 H 0.0760 -0.1183 1.5802
C39 C 0.1005(6) -0.0066(4) 1.5033(5)
H33 H 0.0714 -0.0275 1.4301
C40 C 0.1750(7) -0.0967(5) 1.7943(5)
H34 H 0.2117 -0.0670 1.8592
H35 H 0.0908 -0.1204 1.8118
H36 H 0.2342 -0.1411 1.7743
O5_2 O 0.2793(4) 0.2347(3) 1.4157(3)
Zn2_2 Zn 0.14951(5) 0.14985(3) 0.36912(4)
loop_
_geom_bond_atom_site_label_1
_geom_bond_atom_site_label_2
_geom_bond_site_symmetry_1
_geom_bond_site_symmetry_2
Zn1 O1 1_555 1_555
Zn2 O3 1_555 1_555
O1 C1 1_555 1_555
O2 C1 1_555 1_555
O3 C2 1_555 1_555
O4 Zn2 1_555 1_555
C1 C3 1_555 1_555
C2 O4 1_555 1_555
C3 C4 1_555 1_555
C4 C2 1_555 1_555
C5 C4 1_555 1_555
H1 C5 1_555 1_555
C6 C5 1_555 1_555
H2 C6 1_555 1_555
C7 C6 1_555 1_555
H3 C7 1_555 1_555
C8 C3 1_555 1_555
H4 C8 1_555 1_555
O5 C9 1_555 1_555
O6 C9 1_555 1_555
O7 C10 1_555 1_555
C9 C11 1_555 1_555
O8 Zn1 1_555 1_555
C10 O8 1_555 1_555
C11 C12 1_555 1_555
C12 C10 1_555 1_555
C13 C12 1_555 1_555
H5 C13 1_555 1_555
C14 C13 1_555 1_555
H6 C14 1_555 1_555
C15 C14 1_555 1_555
H7 C15 1_555 1_555
C16 C11 1_555 1_555
H8 C16 1_555 1_555
N1 Zn1 1_555 1_555
C17 N1 1_555 1_555
H9 C17 1_555 1_555
C18 C17 1_555 1_555
H10 C18 1_555 1_555
C19 C18 1_555 1_555
C20 C19 1_555 1_555
H11 C20 1_555 1_555
C21 N1 1_555 1_555
H12 C21 1_555 1_555
C22 C19 1_555 1_555
H13 C22 1_555 1_555
H14 C22 1_555 1_555
H15 C22 1_555 1_555
N2 Zn1 1_555 1_555
C23 N2 1_555 1_555
H16 C23 1_555 1_555
C24 C23 1_555 1_555
H17 C24 1_555 1_555
C25 C24 1_555 1_555
C26 C25 1_555 1_555
H18 C26 1_555 1_555
C27 N2 1_555 1_555
H19 C27 1_555 1_555
C28 C25 1_555 1_555
H20 C28 1_555 1_555
H21 C28 1_555 1_555
H22 C28 1_555 1_555
N3 Zn2 1_555 1_555
C29 N3 1_555 1_555
H23 C29 1_555 1_555
C30 C31 1_555 1_555
C31 C29 1_555 1_555
H24 C31 1_555 1_555
C32 C30 1_555 1_555
H25 C32 1_555 1_555
C33 N3 1_555 1_555
H26 C33 1_555 1_555
C34 C30 1_555 1_555
H27 C34 1_555 1_555
H28 C34 1_555 1_555
H29 C34 1_555 1_555
N4 Zn2 1_555 1_555
C35 N4 1_555 1_555
H30 C35 1_555 1_555
C36 C35 1_555 1_555
H31 C36 1_555 1_555
C37 C36 1_555 1_555
C38 C37 1_555 1_555
H32 C38 1_555 1_555
C39 N4 1_555 1_555
H33 C39 1_555 1_555
C40 C37 1_555 1_555
H34 C40 1_555 1_555
H35 C40 1_555 1_555
H36 C40 1_555 1_555
O5_2 Zn2 1_555 1_555
Zn2_2 O5 1_555 1_555
C7 C8 1_555 1_555
C15 C16 1_555 1_555
C20 C21 1_555 1_555
C26 C27 1_555 1_555
C32 C33 1_555 1_555
C38 C39 1_555 1_555

#END
