
#######################################################################
#
#                 Cambridge Crystallographic Data Centre
#                                CCDC 
#
#######################################################################
#
# If this CIF has been generated from an entry in the Cambridge 
# Structural Database, then it will include bibliographic, chemical, 
# crystal, experimental, refinement or atomic coordinate data resulting 
# from the CCDC's data processing and validation procedures.
#
#######################################################################

data_RAJSIG
_symmetry_cell_setting           monoclinic
_symmetry_space_group_name_H-M   'P 21'
_symmetry_Int_Tables_number      4
_space_group_name_Hall           'P 2yb'
loop_
_symmetry_equiv_pos_site_id
_symmetry_equiv_pos_as_xyz
1 x,y,z
2 -x,1/2+y,-z
_cell_length_a                   9.3915(4)
_cell_length_b                   7.3850(3)
_cell_length_c                   13.1072(4)
_cell_angle_alpha                90
_cell_angle_beta                 109.658(2)
_cell_angle_gamma                90
_cell_volume                     856.083
loop_
_atom_site_label
_atom_site_type_symbol
_atom_site_fract_x
_atom_site_fract_y
_atom_site_fract_z
C1 C 0.3374(6) -0.2357(8) 0.2380(4)
C2 C 0.3747(6) -0.1336(10) 0.3316(4)
H1 H 0.3514 -0.1759 0.3910
C3 C 0.4460(7) 0.0300(8) 0.3373(4)
H2 H 0.4699 0.0972 0.4009
C4 C 0.4491(6) -0.0045(9) 0.1624(4)
H3 H 0.4737 0.0399 0.1040
C5 C 0.3796(6) -0.1719(8) 0.1527(4)
H4 H 0.3614 -0.2404 0.0901
C6 C 0.2576(6) -0.4142(8) 0.2318(4)
C7 C 0.0224(7) -0.2610(8) 0.2265(4)
H5 H 0.0843 -0.1526 0.2440
H6 H -0.0319 -0.2699 0.2775
C8 C -0.0917(7) -0.2425(9) 0.1121(5)
H7 H -0.1457 -0.3577 0.0920
C9 C -0.0153(7) -0.2005(9) 0.0303(4)
H8 H 0.0549 -0.2953 0.0309
H9 H 0.0379 -0.0876 0.0485
H10 H -0.0900 -0.1918 -0.0406
C10 C -0.2067(7) -0.0953(11) 0.1123(5)
H11 H -0.2800 -0.0842 0.0410
H12 H -0.1553 0.0181 0.1335
H13 H -0.2568 -0.1276 0.1626
C11 C 0.0557(6) -0.5951(8) 0.2559(4)
H14 H 0.1164 -0.6927 0.2428
H15 H -0.0455 -0.6062 0.2036
C12 C 0.0482(6) -0.6146(10) 0.3708(4)
H16 H -0.0236 -0.5251 0.3799
C13 C -0.0113(8) -0.8026(10) 0.3811(5)
H17 H -0.0176 -0.8172 0.4523
H18 H 0.0561 -0.8920 0.3697
H19 H -0.1099 -0.8175 0.3279
C14 C 0.2013(7) -0.5808(9) 0.4569(4)
H20 H 0.1923 -0.5921 0.5274
H21 H 0.2353 -0.4610 0.4483
H22 H 0.2729 -0.6679 0.4492
N1 N 0.4827(5) 0.0968(7) 0.2530(3)
N2 N 0.1212(5) -0.4196(6) 0.2393(3)
O1 O 0.3253(4) -0.5578(6) 0.2222(3)
Cl1 Cl 0.66746(16) -0.5394(2) 0.41870(10)
Cl2 Cl 0.62530(15) -0.59178(18) 0.11646(9)
Co1 Co 0.53862(9) -0.63467(12) 0.25286(6)
N1_2 N 0.4827(5) -0.9032(7) 0.2530(3)
Co1_2 Co 0.53862(9) 0.36533(12) 0.25286(6)
loop_
_geom_bond_atom_site_label_1
_geom_bond_atom_site_label_2
_geom_bond_site_symmetry_1
_geom_bond_site_symmetry_2
C1 C2 1_555 1_555
C2 H1 1_555 1_555
C3 C2 1_555 1_555
H2 C3 1_555 1_555
C4 H3 1_555 1_555
C5 C1 1_555 1_555
H4 C5 1_555 1_555
C6 C1 1_555 1_555
C7 H5 1_555 1_555
H6 C7 1_555 1_555
C8 C7 1_555 1_555
H7 C8 1_555 1_555
C9 C8 1_555 1_555
H8 C9 1_555 1_555
H9 C9 1_555 1_555
H10 C9 1_555 1_555
C10 C8 1_555 1_555
H11 C10 1_555 1_555
H12 C10 1_555 1_555
H13 C10 1_555 1_555
C11 H14 1_555 1_555
H15 C11 1_555 1_555
C12 C11 1_555 1_555
H16 C12 1_555 1_555
C13 C12 1_555 1_555
H17 C13 1_555 1_555
H18 C13 1_555 1_555
H19 C13 1_555 1_555
C14 C12 1_555 1_555
H20 C14 1_555 1_555
H21 C14 1_555 1_555
H22 C14 1_555 1_555
N1 C3 1_555 1_555
N2 C6 1_555 1_555
O1 C6 1_555 1_555
Cl1 Co1 1_555 1_555
Cl2 Co1 1_555 1_555
Co1 O1 1_555 1_555
N1_2 Co1 1_555 1_555
Co1_2 N1 1_555 1_555
C4 C5 1_555 1_555
C4 N1 1_555 1_555
C7 N2 1_555 1_555
C11 N2 1_555 1_555

#END
