
#######################################################################
#
#                 Cambridge Crystallographic Data Centre
#                                CCDC 
#
#######################################################################
#
# If this CIF has been generated from an entry in the Cambridge 
# Structural Database, then it will include bibliographic, chemical, 
# crystal, experimental, refinement or atomic coordinate data resulting 
# from the CCDC's data processing and validation procedures.
#
#######################################################################

data_RAKBIO
_symmetry_cell_setting           trigonal
_symmetry_space_group_name_H-M   'P 31 2 1'
_symmetry_Int_Tables_number      152
_space_group_name_Hall           'P 31 2"'
loop_
_symmetry_equiv_pos_site_id
_symmetry_equiv_pos_as_xyz
1 x,y,z
2 -y,x-y,1/3+z
3 -x+y,-x,2/3+z
4 y,x,-z
5 x-y,-y,2/3-z
6 -x,-x+y,1/3-z
_cell_length_a                   11.980(2)
_cell_length_b                   11.980(2)
_cell_length_c                   8.335(2)
_cell_angle_alpha                90
_cell_angle_beta                 90
_cell_angle_gamma                120
_cell_volume                     1035.98
loop_
_atom_site_label
_atom_site_type_symbol
_atom_site_fract_x
_atom_site_fract_y
_atom_site_fract_z
C1 C -0.6335(6) 0.4839(6) 0.2143(6)
H1 H -0.7139 0.4226 0.1689
C2 C -0.5542(8) 0.5946(5) 0.1256(5)
H2 H -0.5813 0.6092 0.0246
C3 C -0.4339(6) 0.6833(6) 0.1889(5)
C4 C -0.4007(5) 0.6579(6) 0.3380(5)
H3 H -0.3195 0.7167 0.3839
C5 C -0.4859(5) 0.5464(5) 0.4208(5)
C6 C -0.3388(6) 0.8060(6) 0.0996(6)
N1 N -0.6036(5) 0.4591(4) 0.3580(4)
O1 O -0.2288(4) 0.8758(4) 0.1619(4)
O2 O -0.3799(5) 0.8283(5) -0.0295(4)
O3 O -0.8713(4) 0.2134(5) 0.3477(4)
Co1 Co -0.70977(9) 0.29023(9) 0.5000
H4 H -0.861(4) 0.161(5) 0.294(5)
H5 H -0.960(6) 0.172(6) 0.393(5)
C5C C -0.4536(5) 0.5141(5) 0.5792(5)
C4C C -0.3421(6) 0.5993(5) 0.6620(5)
C3C C -0.3167(6) 0.5661(6) 0.8111(5)
C2C C -0.4054(5) 0.4458(8) 0.8744(5)
C1C C -0.5161(6) 0.3665(6) 0.7857(6)
H1C H -0.5774 0.2861 0.8311
N1C N -0.5409(4) 0.3964(5) 0.6420(4)
H2C H -0.3908 0.4187 0.9754
C6C C -0.1940(6) 0.6612(6) 0.9004(6)
O1C O -0.1242(4) 0.7712(4) 0.8381(4)
O2C O -0.1717(5) 0.6201(5) 1.0295(4)
H3C H -0.2833 0.6805 0.6161
O3C O -0.7866(5) 0.1287(4) 0.6523(4)
H4C H -0.839(5) 0.139(4) 0.706(5)
H5C H -0.828(6) 0.040(6) 0.607(5)
Co1A Co -0.29023(9) 1.00000(13) -0.1667
O2B O -0.7918(7) 0.3799(5) 0.6372(4)
O2E O -0.6201(5) 0.2082(7) 0.3628(4)
Co1B Co 0.00000(13) 0.70977(9) 1.1667
loop_
_geom_bond_atom_site_label_1
_geom_bond_atom_site_label_2
_geom_bond_site_symmetry_1
_geom_bond_site_symmetry_2
C1 H1 1_555 1_555
C2 C1 1_555 1_555
H2 C2 1_555 1_555
C3 C2 1_555 1_555
C4 C3 1_555 1_555
H3 C4 1_555 1_555
C5 C4 1_555 1_555
C6 C3 1_555 1_555
N1 C1 1_555 1_555
O1 C6 1_555 1_555
O2 C6 1_555 1_555
O3 Co1 1_555 1_555
Co1 N1 1_555 1_555
H4 O3 1_555 1_555
H5 O3 1_555 1_555
C5C C5 1_555 1_555
C4C C5C 1_555 1_555
C3C C4C 1_555 1_555
C2C C3C 1_555 1_555
C1C C2C 1_555 1_555
H1C C1C 1_555 1_555
N1C Co1 1_555 1_555
H2C C2C 1_555 1_555
C6C C3C 1_555 1_555
O1C C6C 1_555 1_555
O2C C6C 1_555 1_555
H3C C4C 1_555 1_555
O3C Co1 1_555 1_555
H4C O3C 1_555 1_555
H5C O3C 1_555 1_555
Co1A O2 1_555 1_555
O2B Co1 1_555 1_555
O2E Co1 1_555 1_555
Co1B O2C 1_555 1_555
C5 N1 1_555 1_555
C5C N1C 1_555 1_555
C1C N1C 1_555 1_555

#END
