
#######################################################################
#
#                 Cambridge Crystallographic Data Centre
#                                CCDC 
#
#######################################################################
#
# If this CIF has been generated from an entry in the Cambridge 
# Structural Database, then it will include bibliographic, chemical, 
# crystal, experimental, refinement or atomic coordinate data resulting 
# from the CCDC's data processing and validation procedures.
#
#######################################################################

data_RAKBOU
_symmetry_cell_setting           monoclinic
_symmetry_space_group_name_H-M   'P 21/n'
_symmetry_Int_Tables_number      14
_space_group_name_Hall           '-P 2yn'
loop_
_symmetry_equiv_pos_site_id
_symmetry_equiv_pos_as_xyz
1 x,y,z
2 1/2+x,1/2-y,1/2+z
3 -x,-y,-z
4 1/2-x,1/2+y,1/2-z
_cell_length_a                   10.756(2)
_cell_length_b                   9.790(2)
_cell_length_c                   18.593(4)
_cell_angle_alpha                90
_cell_angle_beta                 91.15(3)
_cell_angle_gamma                90
_cell_volume                     1957.47
loop_
_atom_site_label
_atom_site_type_symbol
_atom_site_fract_x
_atom_site_fract_y
_atom_site_fract_z
Cu1 Cu 0.85901(3) 0.92568(4) 0.512726(18)
N1 N 0.7625(2) 1.1027(3) 0.49543(14)
N2 N 0.7176(2) 0.8503(3) 0.45185(12)
C1 C 0.7848(4) 1.2276(4) 0.5191(2)
H1 H 0.8562 1.2433 0.5469
C2 C 0.7052(5) 1.3373(4) 0.5039(3)
H2 H 0.7231 1.4236 0.5223
C3 C 0.6019(4) 1.3171(4) 0.4623(2)
H3 H 0.5493 1.3899 0.4514
C4 C 0.5745(3) 1.1869(4) 0.43573(19)
C5 C 0.4654(4) 1.1531(6) 0.3925(2)
H4 H 0.4095 1.2217 0.3795
C6 C 0.4438(3) 1.0262(6) 0.3709(2)
H5 H 0.3731 1.0080 0.3430
C7 C 0.5259(3) 0.9164(4) 0.38934(17)
C8 C 0.5082(3) 0.7808(5) 0.36969(18)
H6 H 0.4387 0.7559 0.3421
C9 C 0.5920(3) 0.6847(4) 0.39061(18)
H7 H 0.5799 0.5940 0.3775
C10 C 0.6962(3) 0.7217(4) 0.43171(16)
H8 H 0.7527 0.6544 0.4456
C11 C 0.6337(3) 0.9464(3) 0.43129(15)
C12 C 0.6570(3) 1.0819(3) 0.45472(16)
C13 C 0.9530(3) 1.0417(4) 0.63667(17)
C14 C 1.0403(3) 1.1298(5) 0.68193(19)
H9 H 0.9937 1.1759 0.7189
H10 H 1.0774 1.1990 0.6518
C15 C 1.1429(3) 1.0431(4) 0.71717(18)
H11 H 1.1060 0.9741 0.7475
H12 H 1.1896 0.9969 0.6803
C16 C 1.2306(3) 1.1325(5) 0.76251(18)
H13 H 1.2673 1.2007 0.7316
H14 H 1.1826 1.1801 0.7983
C17 C 1.3342(3) 1.0535(4) 0.80050(19)
H15 H 1.2982 0.9901 0.8343
H16 H 1.3792 1.0008 0.7653
C18 C 1.4244(3) 1.1468(4) 0.84047(19)
H17 H 1.3778 1.2091 0.8702
H18 H 1.4693 1.2008 0.8058
C19 C 1.5172(3) 1.0698(4) 0.8877(2)
H19 H 1.4733 1.0201 0.9244
H20 H 1.5614 1.0041 0.8587
C20 C 1.6093(3) 1.1664(4) 0.92302(17)
O1 O 0.98398(19) 1.0201(3) 0.57174(11)
O2 O 0.8579(3) 0.9946(5) 0.66182(15)
O3 O 1.7199(2) 1.1588(4) 0.90861(17)
O4 O 1.5638(2) 1.2508(2) 0.96727(12)
O1B O 1.01602(19) 0.9799(3) 0.42826(11)
O4C O 0.9362(2) 0.7508(2) 0.53273(12)
Cu1B Cu 1.14099(3) 1.07432(4) 0.487274(18)
Cu1C Cu 1.64099(3) 1.42568(4) 0.987274(18)
O5 O 1.8591(4) 0.9942(6) 0.8189(2)
H21 H 1.8598 1.0202 0.8626
H22 H 1.7747 0.9325 0.8139
O6 O 0.2575(10) 0.7295(14) 0.2595(6)
loop_
_geom_bond_atom_site_label_1
_geom_bond_atom_site_label_2
_geom_bond_site_symmetry_1
_geom_bond_site_symmetry_2
Cu1 N1 1_555 1_555
N1 C1 1_555 1_555
N2 Cu1 1_555 1_555
C1 H1 1_555 1_555
C2 C1 1_555 1_555
H2 C2 1_555 1_555
C3 C2 1_555 1_555
H3 C3 1_555 1_555
C4 C3 1_555 1_555
C5 C4 1_555 1_555
H4 C5 1_555 1_555
C6 C5 1_555 1_555
H5 C6 1_555 1_555
C7 C6 1_555 1_555
C8 C7 1_555 1_555
H6 C8 1_555 1_555
C9 C8 1_555 1_555
H7 C9 1_555 1_555
C10 N2 1_555 1_555
H8 C10 1_555 1_555
C11 N2 1_555 1_555
C12 N1 1_555 1_555
C13 C14 1_555 1_555
C14 H9 1_555 1_555
H10 C14 1_555 1_555
C15 C14 1_555 1_555
H11 C15 1_555 1_555
H12 C15 1_555 1_555
C16 C15 1_555 1_555
H13 C16 1_555 1_555
H14 C16 1_555 1_555
C17 C16 1_555 1_555
H15 C17 1_555 1_555
H16 C17 1_555 1_555
C18 C17 1_555 1_555
H17 C18 1_555 1_555
H18 C18 1_555 1_555
C19 C18 1_555 1_555
H19 C19 1_555 1_555
H20 C19 1_555 1_555
C20 C19 1_555 1_555
O1 Cu1 1_555 1_555
O2 C13 1_555 1_555
O3 C20 1_555 1_555
O4 C20 1_555 1_555
O5 H21 1_555 1_555
H22 O5 1_555 1_555
O1B Cu1 1_555 1_555
O4C Cu1 1_555 1_555
Cu1B O1 1_555 1_555
Cu1C O4 1_555 1_555
C4 C12 1_555 1_555
C7 C11 1_555 1_555
C9 C10 1_555 1_555
C11 C12 1_555 1_555
C13 O1 1_555 1_555
O1B Cu1B 1_555 1_555

#END
