
#######################################################################
#
#                 Cambridge Crystallographic Data Centre
#                                CCDC 
#
#######################################################################
#
# If this CIF has been generated from an entry in the Cambridge 
# Structural Database, then it will include bibliographic, chemical, 
# crystal, experimental, refinement or atomic coordinate data resulting 
# from the CCDC's data processing and validation procedures.
#
#######################################################################

data_RAKBIO02
_symmetry_cell_setting           trigonal
_symmetry_space_group_name_H-M   'P 31 2 1'
_symmetry_Int_Tables_number      152
_space_group_name_Hall           'P 31 2"'
loop_
_symmetry_equiv_pos_site_id
_symmetry_equiv_pos_as_xyz
1 x,y,z
2 -y,x-y,1/3+z
3 -x+y,-x,2/3+z
4 y,x,-z
5 -x,-x+y,1/3-z
6 x-y,-y,2/3-z
_cell_length_a                   11.924(5)
_cell_length_b                   11.924(5)
_cell_length_c                   8.333(5)
_cell_angle_alpha                90
_cell_angle_beta                 90
_cell_angle_gamma                120
_cell_volume                     1026.07
loop_
_atom_site_label
_atom_site_type_symbol
_atom_site_fract_x
_atom_site_fract_y
_atom_site_fract_z
Co1 Co -0.29024(6) 0.00000(6) -0.1667
O1 O -0.7701(3) 0.1051(3) 0.1708(3)
O2 O -0.6212(3) 0.2074(3) 0.3617(3)
O3 O -0.2147(3) -0.0854(3) -0.3180(3)
N1 N -0.3974(3) 0.0627(3) -0.0253(3)
C1 C -0.6604(4) 0.1457(4) 0.2323(5)
C2 C -0.5667(4) 0.1168(4) 0.1441(5)
C3 C -0.4475(5) 0.1474(5) 0.2069(5)
C4 C -0.3665(5) 0.1179(5) 0.1199(5)
C5 C -0.5141(4) 0.0318(4) -0.0862(4)
C6 C -0.5996(4) 0.0584(4) -0.0038(5)
H1 H -0.162(4) -0.028(4) -0.374(5)
H2 H -0.184(4) -0.125(5) -0.284(5)
H3 H -0.272(4) 0.153(3) 0.161(4)
H4 H -0.422(4) 0.190(4) 0.302(5)
H5 H -0.675(4) 0.044(4) -0.055(5)
Co1B Co -0.70976(8) 0.29024(6) 0.5000
Co1A Co -1.00000(6) -0.29024(8) -0.8334
O1E O -0.8752(4) -0.1051(3) -0.5041(3)
O2E O -0.8286(4) -0.2074(3) -0.6950(3)
O2A O -0.2074(3) 0.1714(4) -0.3050(3)
O2D O -0.3788(3) -0.1714(4) -0.0284(3)
O3E O -0.1293(4) 0.0854(3) -0.0153(3)
N1E N -0.4601(4) -0.0627(3) -0.3080(3)
C1E C -0.8061(6) -0.1457(4) -0.5656(5)
C2E C -0.6835(6) -0.1168(4) -0.4774(5)
C3E C -0.5949(7) -0.1474(5) -0.5402(5)
C4E C -0.4844(7) -0.1179(5) -0.4532(5)
C5E C -0.5459(6) -0.0318(4) -0.2471(4)
C6E C -0.6580(6) -0.0584(4) -0.3295(5)
H1E H -0.134(6) 0.028(4) 0.041(5)
H2E H -0.059(6) 0.125(5) -0.049(5)
H3E H -0.425(5) -0.153(3) -0.494(4)
H4E H -0.612(6) -0.190(4) -0.635(5)
H5E H -0.719(6) -0.044(4) -0.278(5)
loop_
_geom_bond_atom_site_label_1
_geom_bond_atom_site_label_2
_geom_bond_site_symmetry_1
_geom_bond_site_symmetry_2
Co1 O3 1_555 1_555
O1 C1 1_555 1_555
O2 C1 1_555 1_555
O3 H1 1_555 1_555
N1 Co1 1_555 1_555
C1 C2 1_555 1_555
C2 C3 1_555 1_555
C3 C4 1_555 1_555
C4 N1 1_555 1_555
C5 N1 1_555 1_555
C6 C2 1_555 1_555
H2 O3 1_555 1_555
H3 C4 1_555 1_555
H4 C3 1_555 1_555
H5 C6 1_555 1_555
Co1B O2 1_555 1_555
Co1A O2E 1_555 1_555
O1E C1E 1_555 1_555
O2E C1E 1_555 1_555
O2A Co1 1_555 1_555
O2D Co1 1_555 1_555
O3E Co1 1_555 1_555
N1E Co1 1_555 1_555
C1E C2E 1_555 1_555
C2E C3E 1_555 1_555
C3E C4E 1_555 1_555
C4E N1E 1_555 1_555
C5E C5 1_555 1_555
C6E C2E 1_555 1_555
H1E O3E 1_555 1_555
H2E O3E 1_555 1_555
H3E C4E 1_555 1_555
H4E C3E 1_555 1_555
H5E C6E 1_555 1_555
C5 C6 1_555 1_555
N1E C5E 1_555 1_555
C5E C6E 1_555 1_555

#END
