
#######################################################################
#
#                 Cambridge Crystallographic Data Centre
#                                CCDC 
#
#######################################################################
#
# If this CIF has been generated from an entry in the Cambridge 
# Structural Database, then it will include bibliographic, chemical, 
# crystal, experimental, refinement or atomic coordinate data resulting 
# from the CCDC's data processing and validation procedures.
#
#######################################################################

data_RAKNAU
_symmetry_cell_setting           monoclinic
_symmetry_space_group_name_H-M   'C 2/c'
_symmetry_Int_Tables_number      15
_space_group_name_Hall           '-C 2yn'
loop_
_symmetry_equiv_pos_site_id
_symmetry_equiv_pos_as_xyz
1 x,y,z
2 -x,y,1/2-z
3 1/2+x,1/2+y,z
4 1/2-x,1/2+y,1/2-z
5 -x,-y,-z
6 x,-y,1/2+z
7 1/2-x,1/2-y,-z
8 1/2+x,1/2-y,1/2+z
_cell_length_a                   21.155(13)
_cell_length_b                   6.867(4)
_cell_length_c                   17.533(11)
_cell_angle_alpha                90
_cell_angle_beta                 91.690(8)
_cell_angle_gamma                90
_cell_volume                     2545.94
loop_
_atom_site_label
_atom_site_type_symbol
_atom_site_fract_x
_atom_site_fract_y
_atom_site_fract_z
Cu1 Cu 0.249275(16) 0.26365(5) 0.25167(2)
C1 C 0.41038(16) 0.5127(4) 0.33833(19)
N1 N 0.59332(13) 0.5103(4) 0.43858(16)
O1 O 0.71719(11) 0.3488(4) 0.37341(13)
N2 N 0.37931(12) 0.6751(4) 0.31819(15)
C2 C 0.47450(16) 0.5124(4) 0.3725(2)
O2 O 0.71766(12) 0.6728(4) 0.37504(13)
C3 C 0.50901(17) 0.6822(6) 0.3788(2)
H1 H 0.4921 0.7988 0.3604
N3 N 0.32391(11) 0.6102(4) 0.29086(14)
N4 N 0.32242(12) 0.4175(4) 0.29429(15)
C4 C 0.56865(16) 0.6779(6) 0.4124(2)
H2 H 0.5920 0.7923 0.4171
N5 N 0.37688(11) 0.3514(4) 0.32412(15)
C5 C 0.56091(16) 0.3449(6) 0.4328(2)
H3 H 0.5788 0.2300 0.4513
N6 N 0.19993(12) 0.5154(3) 0.25785(16)
C6 C 0.50096(17) 0.3418(6) 0.3995(2)
H4 H 0.4786 0.2254 0.3953
N7 N 0.14666(14) 0.5207(4) 0.28084(17)
C7 C 0.65973(16) 0.5091(4) 0.46958(19)
H5 H 0.6673 0.3936 0.5004
H6 H 0.6676 0.6230 0.5012
N8 N 0.09589(16) 0.5276(5) 0.3019(2)
C8 C 0.70351(15) 0.5102(4) 0.4005(2)
Cu1A Cu 0.750725(16) 0.26365(5) 0.24833(2)
Cu1B Cu 0.749275(16) 0.76365(5) 0.25167(2)
Cu1C Cu 0.250725(16) 0.76365(5) 0.24833(2)
O1A O 0.28281(11) 0.3488(4) 0.12659(13)
O2B O 0.21766(12) 0.1728(4) 0.37504(13)
N3C N 0.17609(11) 0.1102(4) 0.20914(14)
N6C N 0.30007(12) 0.0154(3) 0.24215(16)
O3 O 0.21154(18) 0.4892(5) 0.9575(2)
H7 H 0.215(2) 0.578(7) 0.932(3)
H8 H 0.214(2) 0.402(7) 0.931(3)
O4 O 0.38805(18) 0.0007(4) 0.9484(3)
H9 H 0.382(3) -0.001(7) 0.904(4)
H10 H 0.354(4) 0.007(7) 0.975(3)
loop_
_geom_bond_atom_site_label_1
_geom_bond_atom_site_label_2
_geom_bond_site_symmetry_1
_geom_bond_site_symmetry_2
Cu1 N4 1_555 1_555
C1 N2 1_555 1_555
N1 C4 1_555 1_555
O1 C8 1_555 1_555
N2 N3 1_555 1_555
C2 C1 1_555 1_555
O2 C8 1_555 1_555
O3 H7 1_555 1_555
C3 C2 1_555 1_555
H1 C3 1_555 1_555
N3 N4 1_555 1_555
N4 N5 1_555 1_555
O4 H9 1_555 1_555
C4 C3 1_555 1_555
H2 C4 1_555 1_555
N5 C1 1_555 1_555
C5 N1 1_555 1_555
H3 C5 1_555 1_555
N6 Cu1 1_555 1_555
C6 C2 1_555 1_555
H4 C6 1_555 1_555
N7 N6 1_555 1_555
C7 N1 1_555 1_555
H5 C7 1_555 1_555
H6 C7 1_555 1_555
N8 N7 1_555 1_555
C8 C7 1_555 1_555
H8 O3 1_555 1_555
H10 O4 1_555 1_555
Cu1A O1 1_555 1_555
Cu1B O2 1_555 1_555
Cu1C N3 1_555 1_555
O1A Cu1 1_555 1_555
O2B Cu1 1_555 1_555
N3C Cu1 1_555 1_555
N6C Cu1 1_555 1_555
C5 C6 1_555 1_555
N6 Cu1C 1_555 1_555

#END
