
#######################################################################
#
#                 Cambridge Crystallographic Data Centre
#                                CCDC 
#
#######################################################################
#
# If this CIF has been generated from an entry in the Cambridge 
# Structural Database, then it will include bibliographic, chemical, 
# crystal, experimental, refinement or atomic coordinate data resulting 
# from the CCDC's data processing and validation procedures.
#
#######################################################################

data_RAKPAV
_symmetry_cell_setting           monoclinic
_symmetry_space_group_name_H-M   'P 21/c'
_symmetry_Int_Tables_number      14
_space_group_name_Hall           '-P 2ybc'
loop_
_symmetry_equiv_pos_site_id
_symmetry_equiv_pos_as_xyz
1 x,y,z
2 -x,1/2+y,1/2-z
3 -x,-y,-z
4 x,1/2-y,1/2+z
_cell_length_a                   6.1071(6)
_cell_length_b                   21.710(2)
_cell_length_c                   13.7316(13)
_cell_angle_alpha                90
_cell_angle_beta                 102.521(2)
_cell_angle_gamma                90
_cell_volume                     1777.31
loop_
_atom_site_label
_atom_site_type_symbol
_atom_site_fract_x
_atom_site_fract_y
_atom_site_fract_z
La1 La 0.34031(11) 0.48499(3) 0.62502(5)
P1 P 0.8264(5) 0.55863(12) 0.6571(2)
P2 P 1.2026(5) 0.89320(13) 0.9405(2)
P3 P 0.6059(5) 0.38540(13) 0.8466(2)
O1 O 0.7274(13) 0.5316(3) 0.5563(6)
O2 O 1.0653(12) 0.5401(3) 0.7038(6)
O3 O 0.6669(13) 0.5476(3) 0.7286(6)
O4 O 0.9610(12) 0.9098(4) 0.8961(6)
O5 O 1.2782(13) 0.9094(3) 1.0495(6)
O6 O 1.3643(14) 0.9100(4) 0.8768(6)
O7 O 0.4288(12) 0.4293(3) 0.7947(6)
O8 O 0.5845(15) 0.3763(4) 0.9590(6)
H1 H 0.5695 0.4100 0.9838
O9 O 0.6261(14) 0.3236(4) 0.8024(6)
C1 C 0.813(2) 0.6413(5) 0.6305(9)
H2 H 0.8948 0.6495 0.5788
H3 H 0.6575 0.6525 0.6044
C2 C 0.839(2) 0.7476(5) 0.7012(9)
H4 H 0.6769 0.7499 0.6789
H5 H 0.9048 0.7638 0.6484
C3 C 0.910(2) 0.7866(5) 0.7924(9)
H6 H 0.8277 0.7742 0.8421
H7 H 0.8735 0.8293 0.7755
C4 C 1.2386(19) 0.7152(5) 0.8423(9)
H8 H 1.4013 0.7142 0.8579
H9 H 1.1875 0.6948 0.8962
C5 C 1.154(2) 0.6804(6) 0.7476(9)
H10 H 1.2151 0.6985 0.6945
H11 H 1.2047 0.6380 0.7561
C6 C 1.214(2) 0.8089(5) 0.9385(9)
H12 H 1.3627 0.7959 0.9724
H13 H 1.1084 0.7929 0.9759
C7 C 0.8797(18) 0.4228(5) 0.8667(9)
H14 H 0.9812 0.4007 0.9194
H15 H 0.9365 0.4182 0.8064
C8 C 0.7632(18) 0.5080(5) 0.9732(8)
H16 H 0.7496 0.5525 0.9748
H17 H 0.6131 0.4909 0.9558
C9 C 1.1221(17) 0.5146(6) 0.9247(8)
H18 H 1.1182 0.5593 0.9249
H19 H 1.2079 0.5017 0.8766
N1 N 0.9064(15) 0.6819(4) 0.7195(7)
H20 H 0.8522 0.6681 0.7723
N2 N 1.1613(15) 0.7810(4) 0.8364(7)
H21 H 1.2369 0.8022 0.7969
N3 N 0.8889(14) 0.4905(4) 0.8940(6)
H22 H 0.8230 0.5113 0.8377
La1B La 0.65969(11) 0.51501(3) 0.37498(5)
La1_2 La 1.34031(11) 0.48499(3) 0.62502(5)
La1A La 0.65969(11) 0.98499(3) 0.87498(5)
La1C La 1.34031(11) 1.01501(3) 1.12502(5)
La1A_2 La 1.65969(11) 0.98499(3) 0.87498(5)
La1B_2 La 1.65969(11) 0.51501(3) 1.37498(5)
La1B_3 La -0.34031(11) 0.51501(3) 0.37498(5)
La1C_2 La 0.34031(11) 0.01501(3) 0.12502(5)
La1A_3 La -0.34031(11) -0.01501(3) -0.12502(5)
La1C_3 La -0.65969(11) 0.01501(3) 0.12502(5)
P1B P 0.1736(5) 0.44137(12) 0.3429(2)
P2B P -0.2026(5) 0.10680(13) 0.0595(2)
P3B P 1.3941(5) 0.61460(13) 1.1534(2)
O1B O 0.2726(13) 0.4684(3) 0.4437(6)
O2B O -0.0653(12) 0.4599(3) 0.2962(6)
O2_2 O 0.0653(12) 0.5401(3) 0.7038(6)
O2B_2 O 0.9347(12) 0.4599(3) 0.2962(6)
O3B O 0.3331(13) 0.4524(3) 0.2714(6)
O4B O 0.0390(12) 0.0902(4) 0.1039(6)
O4A O 0.0390(12) 0.4098(4) 0.6039(6)
O4C O 0.9610(12) 0.5902(4) 0.3961(6)
O5B O -0.2782(13) 0.0906(3) -0.0495(6)
O5C O 0.2782(13) 0.5906(3) 0.5495(6)
O5A O 0.7218(13) 0.4094(3) 0.4505(6)
O6B O -0.3643(14) 0.0900(4) 0.1232(6)
O6A O 0.6357(14) 0.4100(4) 0.6232(6)
O6C O 0.3643(14) 0.5900(4) 0.3768(6)
O7B O 1.5712(12) 0.5707(3) 1.2053(6)
O7B_2 O 0.5712(12) 0.5707(3) 0.2053(6)
O8B O 1.4155(15) 0.6237(4) 1.0410(6)
H1B H 1.4305 0.5900 1.0162
O9B O 1.3739(14) 0.6764(4) 1.1976(6)
C1B C 0.187(2) 0.3587(5) 0.3695(9)
H2B H 0.1052 0.3505 0.4212
H3B H 0.3425 0.3475 0.3956
C2B C 0.161(2) 0.2524(5) 0.2988(9)
H4B H 0.3231 0.2501 0.3211
H5B H 0.0952 0.2362 0.3516
C3B C 0.090(2) 0.2134(5) 0.2076(9)
H6B H 0.1723 0.2258 0.1579
H7B H 0.1265 0.1707 0.2245
C4B C -0.2386(19) 0.2848(5) 0.1577(9)
H8B H -0.4013 0.2858 0.1421
H9B H -0.1875 0.3052 0.1038
C5B C -0.154(2) 0.3196(6) 0.2524(9)
H10B H -0.2151 0.3015 0.3055
H11B H -0.2047 0.3620 0.2439
C6B C -0.214(2) 0.1911(5) 0.0615(9)
H12B H -0.3627 0.2041 0.0276
H13B H -0.1084 0.2071 0.0241
C7B C 1.1203(18) 0.5772(5) 1.1333(9)
H14B H 1.0188 0.5993 1.0806
H15B H 1.0635 0.5818 1.1936
C8B C 1.2368(18) 0.4920(5) 1.0268(8)
H16B H 1.2504 0.4475 1.0252
H17B H 1.3869 0.5091 1.0442
C9B C 0.8779(17) 0.4854(6) 1.0753(8)
H18B H 0.8818 0.4407 1.0751
H19B H 0.7921 0.4983 1.1234
N1B N 0.0936(15) 0.3181(4) 0.2805(7)
H20B H 0.1478 0.3319 0.2277
N2B N -0.1613(15) 0.2190(4) 0.1636(7)
H21B H -0.2369 0.1978 0.2031
N3B N 1.1111(14) 0.5095(4) 1.1060(6)
H22B H 1.1770 0.4887 1.1623
Cl1 Cl 0.2131(6) 0.32672(17) 1.0551(3)
loop_
_geom_bond_atom_site_label_1
_geom_bond_atom_site_label_2
_geom_bond_site_symmetry_1
_geom_bond_site_symmetry_2
La1 O1 1_555 1_555
P1 O1 1_555 1_555
P2 O4 1_555 1_555
P3 O7 1_555 1_555
O1 La1B 1_555 1_555
O2 P1 1_555 1_555
O3 La1 1_555 1_555
O4 La1A 1_555 1_555
O5 P2 1_555 1_555
O6 P2 1_555 1_555
O7 La1 1_555 1_555
O8 P3 1_555 1_555
H1 O8 1_555 1_555
O9 P3 1_555 1_555
C1 P1 1_555 1_555
H2 C1 1_555 1_555
H3 C1 1_555 1_555
C2 H4 1_555 1_555
H5 C2 1_555 1_555
C3 C2 1_555 1_555
H6 C3 1_555 1_555
H7 C3 1_555 1_555
C4 H8 1_555 1_555
H9 C4 1_555 1_555
C5 C4 1_555 1_555
H10 C5 1_555 1_555
H11 C5 1_555 1_555
C6 P2 1_555 1_555
H12 C6 1_555 1_555
H13 C6 1_555 1_555
C7 P3 1_555 1_555
H14 C7 1_555 1_555
H15 C7 1_555 1_555
C8 H16 1_555 1_555
H17 C8 1_555 1_555
C9 H18 1_555 1_555
H19 C9 1_555 1_555
N1 C1 1_555 1_555
H20 N1 1_555 1_555
N2 C3 1_555 1_555
H21 N2 1_555 1_555
N3 C7 1_555 1_555
H22 N3 1_555 1_555
La1B O1B 1_555 1_555
La1_2 O2 1_555 1_555
La1C O5 1_555 1_555
La1A_2 O6 1_555 1_555
La1B_2 O7B 1_555 1_555
La1B_3 O2B 1_555 1_555
La1C_2 O4B 1_555 1_555
La1A_3 O5B 1_555 1_555
La1C_3 O6B 1_555 1_555
P1B O1B 1_555 1_555
P2B O4B 1_555 1_555
P3B O7B 1_555 1_555
O1B La1 1_555 1_555
O2B P1B 1_555 1_555
O2_2 La1 1_555 1_555
O2B_2 La1B 1_555 1_555
O3B La1B 1_555 1_555
O4A La1 1_555 1_555
O4C La1B 1_555 1_555
O5B P2B 1_555 1_555
O5C La1 1_555 1_555
O5A La1B 1_555 1_555
O6B P2B 1_555 1_555
O6A La1 1_555 1_555
O6C La1B 1_555 1_555
O7B_2 La1B 1_555 1_555
O8B P3B 1_555 1_555
H1B O8B 1_555 1_555
O9B P3B 1_555 1_555
C1B P1B 1_555 1_555
H2B C1B 1_555 1_555
H3B C1B 1_555 1_555
C2B H4B 1_555 1_555
H5B C2B 1_555 1_555
C3B C2B 1_555 1_555
H6B C3B 1_555 1_555
H7B C3B 1_555 1_555
C4B H8B 1_555 1_555
H9B C4B 1_555 1_555
C5B C4B 1_555 1_555
H10B C5B 1_555 1_555
H11B C5B 1_555 1_555
C6B P2B 1_555 1_555
H12B C6B 1_555 1_555
H13B C6B 1_555 1_555
C7B P3B 1_555 1_555
H14B C7B 1_555 1_555
H15B C7B 1_555 1_555
C8B C9 1_555 1_555
H16B C8B 1_555 1_555
H17B C8B 1_555 1_555
C9B C8 1_555 1_555
H18B C9B 1_555 1_555
H19B C9B 1_555 1_555
N1B C1B 1_555 1_555
H20B N1B 1_555 1_555
N2B C3B 1_555 1_555
H21B N2B 1_555 1_555
N3B C7B 1_555 1_555
H22B N3B 1_555 1_555
P1 O3 1_555 1_555
C2 N1 1_555 1_555
C4 N2 1_555 1_555
C5 N1 1_555 1_555
C6 N2 1_555 1_555
C8 N3 1_555 1_555
C9 N3 1_555 1_555
P1B O3B 1_555 1_555
C2B N1B 1_555 1_555
C4B N2B 1_555 1_555
C5B N1B 1_555 1_555
C6B N2B 1_555 1_555
C8B N3B 1_555 1_555
C9B N3B 1_555 1_555

#END
