
#######################################################################
#
#                 Cambridge Crystallographic Data Centre
#                                CCDC 
#
#######################################################################
#
# If this CIF has been generated from an entry in the Cambridge 
# Structural Database, then it will include bibliographic, chemical, 
# crystal, experimental, refinement or atomic coordinate data resulting 
# from the CCDC's data processing and validation procedures.
#
#######################################################################

data_RAKQIE
_symmetry_cell_setting           monoclinic
_symmetry_space_group_name_H-M   'P 21/c'
_symmetry_Int_Tables_number      14
_space_group_name_Hall           '-P 2ybc'
loop_
_symmetry_equiv_pos_site_id
_symmetry_equiv_pos_as_xyz
1 x,y,z
2 -x,1/2+y,1/2-z
3 -x,-y,-z
4 x,1/2-y,1/2+z
_cell_length_a                   23.185(9)
_cell_length_b                   9.2020(10)
_cell_length_c                   9.706(4)
_cell_angle_alpha                90
_cell_angle_beta                 89.94(5)
_cell_angle_gamma                90
_cell_volume                     2070.76
loop_
_atom_site_label
_atom_site_type_symbol
_atom_site_fract_x
_atom_site_fract_y
_atom_site_fract_z
Co1 Co 0.73658(5) 0.23260(12) 0.49108(10)
Co2 Co 0.72601(5) 0.03669(12) 0.22641(12)
P1 P 0.82358(7) 0.30628(19) 0.24341(17)
P2 P 0.65776(8) 0.36266(19) 0.23894(18)
O1 O 0.78793(18) 0.1893(5) 0.3174(5)
O2 O 0.79520(19) 0.3776(5) 0.1211(4)
O3 O 0.7762(2) 0.4214(5) 0.5462(5)
O4 O 0.7912(3) 0.6377(7) 0.4548(6)
O5 O 0.6779(2) 0.3672(5) 0.3866(4)
O6 O 0.6829(2) 0.2334(5) 0.1564(5)
O7 O 0.6969(2) 0.4571(5) -0.0728(5)
O8 O 0.6655(3) 0.6824(6) -0.0335(5)
O9 O 0.7738(2) -0.1489(5) 0.2572(5)
O10 O 0.6623(2) -0.0594(5) 0.1092(5)
C1 C 0.8458(3) 0.4496(8) 0.3698(7)
H1 H 0.8767 0.4111 0.4263
H2 H 0.8612 0.5318 0.319
C2 C 0.7981(3) 0.5039(9) 0.4640(8)
C3 C 0.6788(3) 0.5337(8) 0.1667(7)
H3 H 0.6545 0.6074 0.2082
H4 H 0.7179 0.5529 0.1976
C4 C 0.6778(3) 0.5600(10) 0.0056(9)
C5 C 0.9264(3) 0.3083(6) 0.1044(7)
H5 H 0.914 0.3973 0.0699
C6 C 0.9813(3) 0.2576(8) 0.0730(7)
H6 H 1.0057 0.3126 0.0175
C7 C 0.9998(2) 0.1246(9) 0.1245(8)
H7 H 1.0366 0.0907 0.1036
C8 C 0.9634(3) 0.0424(6) 0.2074(7)
H8 H 0.9758 -0.0466 0.2419
C9 C 0.9085(3) 0.0931(7) 0.2388(6)
H9 H 0.8841 0.0381 0.2943
C10 C 0.8900(2) 0.2261(7) 0.1873(6)
C11 C 0.5556(3) 0.3114(10) 0.1053(7)
H10 H 0.5781 0.278 0.0325
C12 C 0.4959(3) 0.3162(10) 0.0927(8)
H11 H 0.4785 0.2861 0.0114
C13 C 0.4624(2) 0.3662(10) 0.2016(10)
H12 H 0.4224 0.3694 0.1931
C14 C 0.4885(3) 0.4113(11) 0.3231(9)
H13 H 0.466 0.4447 0.396
C15 C 0.5482(3) 0.4065(9) 0.3358(6)
H14 H 0.5656 0.4367 0.4171
C16 C 0.5817(2) 0.3565(7) 0.2269(7)
Co1C Co 0.73658(5) 0.26740(12) -0.00892(10)
Co2C Co 0.72601(5) 0.46331(12) 0.72641(12)
Co2C_2 Co 0.72601(5) 0.46331(12) -0.27359(12)
O2C O 0.79520(19) 0.1224(5) 0.6211(4)
O3C O 0.7762(2) 0.0786(5) 0.0462(5)
O6C O 0.6829(2) 0.2666(5) 0.6564(5)
O7C O 0.6969(2) 0.0429(5) 0.4272(5)
O11 O 0.8506(8) 0.8534(17) 0.5836(17)
loop_
_geom_bond_atom_site_label_1
_geom_bond_atom_site_label_2
_geom_bond_site_symmetry_1
_geom_bond_site_symmetry_2
Co1 O1 1_555 1_555
Co2 O1 1_555 1_555
P1 O1 1_555 1_555
P2 O5 1_555 1_555
O2 P1 1_555 1_555
O3 Co1 1_555 1_555
O4 C2 1_555 1_555
O5 Co1 1_555 1_555
O6 Co2 1_555 1_555
O7 C4 1_555 1_555
O8 C4 1_555 1_555
O9 Co2 1_555 1_555
O10 Co2 1_555 1_555
C1 P1 1_555 1_555
H1 C1 1_555 1_555
H2 C1 1_555 1_555
C2 O3 1_555 1_555
C3 P2 1_555 1_555
H3 C3 1_555 1_555
H4 C3 1_555 1_555
C4 C3 1_555 1_555
C5 H5 1_555 1_555
C6 C5 1_555 1_555
H6 C6 1_555 1_555
C7 C6 1_555 1_555
H7 C7 1_555 1_555
C8 C7 1_555 1_555
H8 C8 1_555 1_555
C9 C8 1_555 1_555
H9 C9 1_555 1_555
C10 P1 1_555 1_555
C11 H10 1_555 1_555
C12 C11 1_555 1_555
H11 C12 1_555 1_555
C13 C12 1_555 1_555
H12 C13 1_555 1_555
C14 C13 1_555 1_555
H13 C14 1_555 1_555
C15 C14 1_555 1_555
H14 C15 1_555 1_555
C16 P2 1_555 1_555
Co1C O2 1_555 1_555
Co2C O3 1_555 1_555
Co2C_2 O7 1_555 1_555
O2C Co1 1_555 1_555
O3C Co2 1_555 1_555
O6C Co1 1_555 1_555
O7C Co1 1_555 1_555
Co2 O7C 1_555 1_555
P2 O6 1_555 1_555
O6 Co1C 1_555 1_555
O7 Co1C 1_555 1_555
C1 C2 1_555 1_555
C5 C10 1_555 1_555
C9 C10 1_555 1_555
C11 C16 1_555 1_555
C15 C16 1_555 1_555
Co1C O3C 1_555 1_555
Co2C O6C 1_555 1_555

#END
