
#######################################################################
#
#                 Cambridge Crystallographic Data Centre
#                                CCDC 
#
#######################################################################
#
# If this CIF has been generated from an entry in the Cambridge 
# Structural Database, then it will include bibliographic, chemical, 
# crystal, experimental, refinement or atomic coordinate data resulting 
# from the CCDC's data processing and validation procedures.
#
#######################################################################

data_RAKSUS
_symmetry_cell_setting           triclinic
_symmetry_space_group_name_H-M   'P -1'
_symmetry_Int_Tables_number      2
_space_group_name_Hall           '-P 1'
loop_
_symmetry_equiv_pos_site_id
_symmetry_equiv_pos_as_xyz
1 x,y,z
2 -x,-y,-z
_cell_length_a                   7.3894(6)
_cell_length_b                   7.6342(6)
_cell_length_c                   16.6031(12)
_cell_angle_alpha                81.074(9)
_cell_angle_beta                 84.624(9)
_cell_angle_gamma                64.709(8)
_cell_volume                     836.192
loop_
_atom_site_label
_atom_site_type_symbol
_atom_site_fract_x
_atom_site_fract_y
_atom_site_fract_z
Cd1 Cd 1.0000 0.0000 0.0000
Cl1 Cl 0.72763(11) -0.04255(10) -0.08435(4)
S1 S 0.82666(12) -0.10156(11) 0.13331(5)
N1 N 0.5816(4) 0.1703(4) 0.22485(16)
C1 C 0.4765(5) 0.3530(5) 0.2463(2)
N2 N 0.4662(4) 0.5147(4) 0.20281(18)
C2 C 0.5778(5) 0.4816(4) 0.13243(19)
C3 C 0.6898(4) 0.2999(4) 0.10615(17)
C4 C 0.6945(4) 0.1293(4) 0.15453(17)
N3 N 0.7839(4) 0.3199(4) 0.03245(16)
C5 C 0.7310(5) 0.5103(5) 0.0151(2)
N4 N 0.6064(4) 0.6134(4) 0.07362(18)
H1 H 0.569(8) 0.071(8) 0.257(3)
H2 H 0.395(7) 0.348(7) 0.294(3)
H3 H 0.777(7) 0.566(6) -0.032(3)
H4 H 0.555(9) 0.719(9) 0.077(4)
Cl1A Cl 1.27237(11) 0.04255(10) 0.08435(4)
S1A S 1.17334(12) 0.10156(11) -0.13331(5)
N1A N 1.4184(4) -0.1703(4) -0.22485(16)
C1A C 1.5235(5) -0.3530(5) -0.2463(2)
N2A N 1.5338(4) -0.5147(4) -0.20281(18)
C2A C 1.4222(5) -0.4816(4) -0.13243(19)
C3A C 1.3102(4) -0.2999(4) -0.10615(17)
C4A C 1.3055(4) -0.1293(4) -0.15453(17)
N3A N 1.2161(4) -0.3199(4) -0.03245(16)
C5A C 1.2690(5) -0.5103(5) -0.0151(2)
N4A N 1.3936(4) -0.6134(4) -0.07362(18)
H1A H 1.431(8) -0.071(8) -0.257(3)
H2A H 1.605(7) -0.348(7) -0.294(3)
H3A H 1.223(7) -0.566(6) 0.032(3)
H4A H 1.445(9) -0.719(9) -0.077(4)
Cd2 Cd 0.86287(3) 0.59523(3) 0.391011(13)
Cl2 Cl 1.22749(10) 0.36086(10) 0.45000(4)
Cl3 Cl 0.51964(11) 0.85985(12) 0.35412(5)
S2 S 0.99533(12) 0.42959(11) 0.24934(4)
N5 N 1.0846(4) 1.0450(4) 0.25866(15)
C6 C 1.0767(5) 0.8747(4) 0.29123(17)
N6 N 0.9774(4) 0.8506(4) 0.35934(16)
C7 C 0.8878(4) 1.0147(4) 0.39647(17)
C8 C 0.8950(4) 1.1913(4) 0.36735(17)
C9 C 0.9938(4) 0.2158(4) 0.29312(17)
N7 N 0.7920(4) 0.3262(4) 0.41986(15)
C10 C 0.7237(5) 0.2322(4) 0.47936(18)
N8 N 0.7757(4) 1.0426(4) 0.46735(16)
H5 H 1.140(8) 1.056(8) 0.219(4)
H6 H 1.132(7) 0.771(7) 0.259(3)
H7 H 0.659(7) 0.282(7) 0.525(3)
H8 H 0.731(7) 0.956(7) 0.504(3)
Cd2A Cd 1.13713(3) 0.40477(3) 0.608989(13)
Cd2_2 Cd 0.86287(3) -0.40477(3) 0.391011(13)
Cd2_3 Cd 0.86287(3) 1.59523(3) 0.391011(13)
Cl2A Cl 0.77251(10) 0.63914(10) 0.55000(4)
Cl3A Cl 1.48036(11) 0.14015(12) 0.64588(5)
S2A S 1.00467(12) 0.57041(11) 0.75066(4)
S2_2 S 0.99533(12) 1.42959(11) 0.24934(4)
N5_2 N 1.0846(4) 0.0450(4) 0.25866(15)
C6_2 C 1.0767(5) -0.1253(4) 0.29123(17)
N6_2 N 0.9774(4) -0.1494(4) 0.35934(16)
N6A N 1.0226(4) 0.1494(4) 0.64066(16)
C7_2 C 0.8878(4) 0.0147(4) 0.39647(17)
C8_2 C 0.8950(4) 0.1913(4) 0.36735(17)
C9_2 C 0.9938(4) 1.2158(4) 0.29312(17)
N7A N 1.2080(4) 0.6738(4) 0.58014(15)
N7_2 N 0.7920(4) 1.3262(4) 0.41986(15)
C10_2 C 0.7237(5) 1.2322(4) 0.47936(18)
N8_2 N 0.7757(4) 0.0426(4) 0.46735(16)
H5_2 H 1.140(8) 0.056(8) 0.219(4)
H6_2 H 1.132(7) -0.229(7) 0.259(3)
H7_2 H 0.659(7) 1.282(7) 0.525(3)
H8_2 H 0.731(7) -0.044(7) 0.504(3)
loop_
_geom_bond_atom_site_label_1
_geom_bond_atom_site_label_2
_geom_bond_site_symmetry_1
_geom_bond_site_symmetry_2
Cd1 Cl1 1_555 1_555
Cd2 Cl2 1_555 1_555
Cl2 Cd2A 1_555 1_555
Cl3 Cd2 1_555 1_555
S1 Cd1 1_555 1_555
N1 C1 1_555 1_555
C1 N2 1_555 1_555
N2 C2 1_555 1_555
C2 C3 1_555 1_555
C3 C4 1_555 1_555
C4 S1 1_555 1_555
N3 Cd1 1_555 1_555
C5 N3 1_555 1_555
N4 C2 1_555 1_555
S2 Cd2 1_555 1_555
N5 C6 1_555 1_555
C6 N6 1_555 1_555
N6 Cd2 1_555 1_555
C7 N6 1_555 1_555
C8 C7 1_555 1_555
C9 S2 1_555 1_555
N7 Cd2 1_555 1_555
C10 N7 1_555 1_555
N8 C7 1_555 1_555
H1 N1 1_555 1_555
H2 C1 1_555 1_555
H3 C5 1_555 1_555
H4 N4 1_555 1_555
H5 N5 1_555 1_555
H6 C6 1_555 1_555
H7 C10 1_555 1_555
H8 N8 1_555 1_555
Cd2A Cl2A 1_555 1_555
Cd2_2 N6_2 1_555 1_555
Cd2_3 S2_2 1_555 1_555
Cl1A Cd1 1_555 1_555
Cl2A Cd2 1_555 1_555
Cl3A Cd2A 1_555 1_555
S1A Cd1 1_555 1_555
N1A C1A 1_555 1_555
C1A N2A 1_555 1_555
N2A C2A 1_555 1_555
C2A C3A 1_555 1_555
C3A C4A 1_555 1_555
C4A S1A 1_555 1_555
N3A Cd1 1_555 1_555
C5A N3A 1_555 1_555
N4A C2A 1_555 1_555
S2A Cd2A 1_555 1_555
S2_2 C9_2 1_555 1_555
N5_2 C9 1_555 1_555
C6_2 N5_2 1_555 1_555
N6_2 C6_2 1_555 1_555
N6A Cd2A 1_555 1_555
C7_2 N6_2 1_555 1_555
C8_2 C9 1_555 1_555
C9_2 N5 1_555 1_555
N7A Cd2A 1_555 1_555
N7_2 C8 1_555 1_555
C10_2 N8 1_555 1_555
N8_2 C10 1_555 1_555
H1A N1A 1_555 1_555
H2A C1A 1_555 1_555
H3A C5A 1_555 1_555
H4A N4A 1_555 1_555
H5_2 N5_2 1_555 1_555
H6_2 C6_2 1_555 1_555
H7_2 C10_2 1_555 1_555
H8_2 N8_2 1_555 1_555
N1 C4 1_555 1_555
C3 N3 1_555 1_555
C5 N4 1_555 1_555
C8 C9_2 1_555 1_555
N7 C8_2 1_555 1_555
Cd2_3 N7_2 1_555 1_555
N1A C4A 1_555 1_555
C3A N3A 1_555 1_555
C5A N4A 1_555 1_555
C7_2 C8_2 1_555 1_555
C7_2 N8_2 1_555 1_555
N7_2 C10_2 1_555 1_555

#END
