
#######################################################################
#
#                 Cambridge Crystallographic Data Centre
#                                CCDC 
#
#######################################################################
#
# If this CIF has been generated from an entry in the Cambridge 
# Structural Database, then it will include bibliographic, chemical, 
# crystal, experimental, refinement or atomic coordinate data resulting 
# from the CCDC's data processing and validation procedures.
#
#######################################################################

data_RAKYUX
_symmetry_cell_setting           triclinic
_symmetry_space_group_name_H-M   'P -1'
_symmetry_Int_Tables_number      2
_space_group_name_Hall           '-P 1'
loop_
_symmetry_equiv_pos_site_id
_symmetry_equiv_pos_as_xyz
1 x,y,z
2 -x,-y,-z
_cell_length_a                   7.8971(8)
_cell_length_b                   8.1750(8)
_cell_length_c                   11.2358(11)
_cell_angle_alpha                73.945(2)
_cell_angle_beta                 83.063(2)
_cell_angle_gamma                83.435(2)
_cell_volume                     689.48
loop_
_atom_site_label
_atom_site_type_symbol
_atom_site_fract_x
_atom_site_fract_y
_atom_site_fract_z
Ca1 Ca 0.22620(4) 0.24250(3) 1.00328(3)
S1 S 0.58514(5) 0.05653(5) 1.18485(3)
S2 S -0.09775(5) 0.46076(5) 0.81215(3)
O1 O 0.71536(16) 0.17480(16) 1.17051(12)
O2 O 0.42122(16) 0.14641(17) 1.15034(11)
O3 O 0.63975(18) -0.07553(16) 1.12126(12)
O4 O -0.27123(16) 0.42153(19) 0.81378(13)
O5 O 0.01607(16) 0.30684(14) 0.85885(11)
O6 O -0.08128(19) 0.58935(16) 0.87630(11)
O7 O 0.04997(17) 0.03692(16) 1.12536(13)
H1 H 0.0461 -0.0664 1.1199
H2 H -0.0538 0.0712 1.1397
O8 O 0.38087(18) 0.46689(17) 0.88638(15)
H3 H 0.3521 0.5746 0.8719
H4 H 0.4882 0.4638 0.8602
C1 C 0.55784(19) -0.0490(2) 1.34559(14)
C2 C 0.5982(2) -0.2227(2) 1.38138(15)
H5 H 0.6313 -0.2823 1.3217
C3 C 0.5893(2) -0.3099(2) 1.50833(15)
H6 H 0.6170 -0.4273 1.5320
C4 C 0.5407(2) -0.22488(19) 1.59771(15)
H7 H 0.5368 -0.2850 1.6812
C5 C 0.50408(19) 0.04594(19) 1.43552(14)
C6 C -0.0208(2) 0.5488(2) 0.65492(14)
C7 C 0.0440(3) 0.7049(2) 0.62428(16)
H8 H 0.0494 0.7601 0.6857
C8 C 0.1022(3) 0.7819(2) 0.50063(16)
H9 H 0.1456 0.8882 0.4806
C9 C 0.0957(2) 0.7024(2) 0.40920(15)
H10 H 0.1350 0.7551 0.3277
C10 C -0.0299(2) 0.45971(19) 0.56273(14)
C5A C 0.49592(19) -0.04594(19) 1.56448(14)
C1A C 0.44216(19) 0.0490(2) 1.65441(14)
S1A S 0.41486(5) -0.05653(5) 1.81515(3)
O1A O 0.28464(16) -0.17480(16) 1.82949(12)
O2A O 0.57878(16) -0.14641(17) 1.84966(11)
O3A O 0.36025(18) 0.07553(16) 1.87874(12)
C2A C 0.4018(2) 0.2227(2) 1.61862(15)
H5A H 0.3687 0.2823 1.6783
C3A C 0.4107(2) 0.3099(2) 1.49167(15)
H6A H 0.3830 0.4273 1.4680
C4A C 0.4593(2) 0.22488(19) 1.40229(15)
H7A H 0.4632 0.2850 1.3188
C10A C 0.0299(2) 0.54029(19) 0.43727(14)
C6A C 0.0208(2) 0.4512(2) 0.34508(14)
S2A S 0.09775(5) 0.53924(5) 0.18785(3)
O4A O 0.27123(16) 0.57847(19) 0.18622(13)
O5A O -0.01607(16) 0.69316(14) 0.14115(11)
O6A O 0.08128(19) 0.41065(16) 0.12370(11)
C7A C -0.0440(3) 0.2951(2) 0.37572(16)
H8A H -0.0494 0.2399 0.3143
C8A C -0.1022(3) 0.2181(2) 0.49937(16)
H9A H -0.1456 0.1118 0.5194
C9A C -0.0957(2) 0.2976(2) 0.59080(15)
H10A H -0.1350 0.2449 0.6723
Ca1A Ca 0.77380(4) -0.24250(3) 1.99672(3)
O3A_2 O 0.36025(18) 0.07553(16) 0.87874(12)
O6A_2 O 0.08128(19) 0.41065(16) 1.12370(11)
Ca1A_2 Ca 0.77380(4) -0.24250(3) 0.99672(3)
Ca1A_3 Ca -0.22620(4) 0.75750(3) 0.99672(3)
Ca1_2 Ca 0.22620(4) 0.24250(3) 2.00328(3)
Ca1A_4 Ca -0.22620(4) 0.75750(3) -0.00328(3)
Ca1_3 Ca 0.22620(4) 0.24250(3) 0.00328(3)
O2_2 O 0.42122(16) 0.14641(17) 0.15034(11)
O3A_3 O 0.36025(18) 0.07553(16) -0.12126(12)
O5_2 O 0.01607(16) 0.30684(14) -0.14115(11)
O7_2 O 0.04997(17) 0.03692(16) 0.12536(13)
O8_2 O 0.38087(18) 0.46689(17) -0.11362(15)
H1_2 H 0.0461 -0.0664 0.1199
H2_2 H -0.0538 0.0712 0.1397
H3_2 H 0.3521 0.5746 -0.1281
H4_2 H 0.4882 0.4638 -0.1398
loop_
_geom_bond_atom_site_label_1
_geom_bond_atom_site_label_2
_geom_bond_site_symmetry_1
_geom_bond_site_symmetry_2
Ca1 O2 1_555 1_555
S1 O1 1_555 1_555
S2 O4 1_555 1_555
O2 S1 1_555 1_555
O3 S1 1_555 1_555
O5 Ca1 1_555 1_555
O6 S2 1_555 1_555
O7 Ca1 1_555 1_555
H1 O7 1_555 1_555
H2 O7 1_555 1_555
O8 Ca1 1_555 1_555
H3 O8 1_555 1_555
H4 O8 1_555 1_555
C1 S1 1_555 1_555
C2 C1 1_555 1_555
H5 C2 1_555 1_555
C3 C2 1_555 1_555
H6 C3 1_555 1_555
C4 C3 1_555 1_555
H7 C4 1_555 1_555
C5 C1 1_555 1_555
C6 S2 1_555 1_555
C7 C6 1_555 1_555
H8 C7 1_555 1_555
C8 C7 1_555 1_555
H9 C8 1_555 1_555
C9 C8 1_555 1_555
H10 C9 1_555 1_555
C10 C6 1_555 1_555
C5A C4 1_555 1_555
C1A C5A 1_555 1_555
S1A C1A 1_555 1_555
O1A S1A 1_555 1_555
O2A S1A 1_555 1_555
O3A S1A 1_555 1_555
C2A C1A 1_555 1_555
H5A C2A 1_555 1_555
C3A C2A 1_555 1_555
H6A C3A 1_555 1_555
C4A C5 1_555 1_555
H7A C4A 1_555 1_555
C10A C9 1_555 1_555
C6A C10A 1_555 1_555
S2A C6A 1_555 1_555
O4A S2A 1_555 1_555
O5A S2A 1_555 1_555
O6A S2A 1_555 1_555
C7A C6A 1_555 1_555
H8A C7A 1_555 1_555
C8A C7A 1_555 1_555
H9A C8A 1_555 1_555
C9A C10 1_555 1_555
H10A C9A 1_555 1_555
Ca1A O2A 1_555 1_555
O3A_2 Ca1 1_555 1_555
O6A_2 Ca1 1_555 1_555
Ca1A_2 O3 1_555 1_555
Ca1A_3 O6 1_555 1_555
Ca1_2 O3A 1_555 1_555
Ca1A_4 O5A 1_555 1_555
Ca1_3 O6A 1_555 1_555
O2_2 Ca1_3 1_555 1_555
O3A_3 Ca1_3 1_555 1_555
O5_2 Ca1_3 1_555 1_555
O7_2 Ca1_3 1_555 1_555
O8_2 Ca1_3 1_555 1_555
H1_2 O7_2 1_555 1_555
H2_2 O7_2 1_555 1_555
H3_2 O8_2 1_555 1_555
H4_2 O8_2 1_555 1_555
S2 O5 1_555 1_555
C5 C5A 1_555 1_555
C10 C10A 1_555 1_555
C3A C4A 1_555 1_555
C8A C9A 1_555 1_555

#END
