
#######################################################################
#
#                 Cambridge Crystallographic Data Centre
#                                CCDC 
#
#######################################################################
#
# If this CIF has been generated from an entry in the Cambridge 
# Structural Database, then it will include bibliographic, chemical, 
# crystal, experimental, refinement or atomic coordinate data resulting 
# from the CCDC's data processing and validation procedures.
#
#######################################################################

data_RAKYUX01
_symmetry_cell_setting           triclinic
_symmetry_space_group_name_H-M   'P -1'
_symmetry_Int_Tables_number      2
_space_group_name_Hall           '-P 1'
loop_
_symmetry_equiv_pos_site_id
_symmetry_equiv_pos_as_xyz
1 x,y,z
2 -x,-y,-z
_cell_length_a                   7.8999(16)
_cell_length_b                   8.1958(16)
_cell_length_c                   11.243(2)
_cell_angle_alpha                73.89(3)
_cell_angle_beta                 82.96(3)
_cell_angle_gamma                83.43(3)
_cell_volume                     691.609
loop_
_atom_site_label
_atom_site_type_symbol
_atom_site_fract_x
_atom_site_fract_y
_atom_site_fract_z
Ca1 Ca 0.72638(5) 0.24264(4) 0.50326(3)
S1 S 0.91504(6) -0.05632(6) 0.31519(4)
S2 S 0.40237(6) 0.46064(6) 0.31212(4)
O1 O 0.7848(2) -0.1749(2) 0.32990(14)
O2 O 0.8605(2) 0.0756(2) 0.37890(13)
O3 O 0.5164(2) 0.30640(18) 0.35870(13)
O4 O 0.4190(2) 0.5894(2) 0.37622(13)
C1 C 0.4791(3) 0.5492(2) 0.15469(17)
O5 O 0.2287(2) 0.4216(2) 0.31343(15)
O6 O 0.5498(3) 0.0371(2) 0.62516(17)
O7 O 1.0789(2) -0.1462(2) 0.34956(14)
O8 O 0.8811(3) 0.4667(2) 0.38644(19)
C2 C 0.9590(3) 0.2253(2) -0.09753(17)
C3 C 0.9020(3) 0.2229(3) 0.11884(18)
H1 H 0.8691 0.2823 0.1786
C4 C 0.4703(2) 0.4600(2) 0.06233(17)
C5 C 0.9423(3) 0.0493(2) 0.15449(17)
C6 C 0.9106(3) 0.3103(2) -0.00872(18)
H2 H 0.8829 0.4274 -0.0326
C7 C 0.5439(3) 0.7049(3) 0.12454(19)
H3 H 0.5491 0.7594 0.1862
C8 C 0.4048(3) 0.2970(3) 0.09129(18)
C9 C 0.6024(3) 0.7826(3) 0.00106(19)
C10 C 0.9956(2) -0.0454(2) 0.06400(17)
H4 H 0.368(4) 0.250(3) 0.182(3)
H5 H 0.973(3) 0.286(3) -0.178(2)
H6 H 0.653(3) 0.891(3) -0.010(2)
H7 H 0.859(5) 0.565(4) 0.380(3)
H8 H 0.986(5) 0.461(4) 0.379(3)
H9 H 0.460(5) 0.061(4) 0.632(3)
H10 H 0.546(4) -0.054(4) 0.625(3)
S1A S 1.08496(6) 0.05632(6) -0.31519(4)
O1A O 1.2152(2) 0.1749(2) -0.32990(14)
O2A O 1.1395(2) -0.0756(2) -0.37890(13)
O7A O 0.9211(2) 0.1462(2) -0.34956(14)
C2A C 1.0410(3) -0.2253(2) 0.09753(17)
C3A C 1.0980(3) -0.2229(3) -0.11884(18)
H1A H 1.1309 -0.2823 -0.1786
C5A C 1.0577(3) -0.0493(2) -0.15449(17)
C6A C 1.0894(3) -0.3103(2) 0.00872(18)
H2A H 1.1171 -0.4274 0.0326
C10A C 1.0044(2) 0.0454(2) -0.06400(17)
H5A H 1.027(3) -0.286(3) 0.178(2)
S2A S 0.59763(6) 0.53936(6) -0.31212(4)
O3A O 0.4836(2) 0.69360(18) -0.35870(13)
C1A C 0.5209(3) 0.4508(2) -0.15469(17)
O5A O 0.7713(2) 0.5784(2) -0.31343(15)
C4A C 0.5297(2) 0.5400(2) -0.06233(17)
C7A C 0.4561(3) 0.2951(3) -0.12454(19)
H3A H 0.4509 0.2406 -0.1862
C8A C 0.5952(3) 0.7030(3) -0.09129(18)
C9A C 0.3976(3) 0.2174(3) -0.00106(19)
H4A H 0.632(4) 0.750(3) -0.182(3)
H6A H 0.347(3) 0.109(3) 0.010(2)
O4A O 0.5810(2) 0.4106(2) -0.37622(13)
Ca1A Ca 0.27362(5) 0.75736(4) -0.50326(3)
O6A O 0.4502(3) 0.9629(2) -0.62516(17)
O8A O 0.1189(3) 0.5333(2) -0.38644(19)
H7A H 0.141(5) 0.435(4) -0.380(3)
H8A H 0.014(5) 0.539(4) -0.379(3)
H9A H 0.540(5) 0.939(4) -0.632(3)
H10A H 0.454(4) 1.054(4) -0.625(3)
Ca1_2 Ca 0.72638(5) 0.24264(4) -0.49674(3)
Ca1A_2 Ca 0.27362(5) 0.75736(4) 0.49674(3)
Ca1A_3 Ca 1.27362(5) -0.24264(4) -0.50326(3)
Ca1A_4 Ca 1.27362(5) -0.24264(4) 0.49674(3)
O2A_2 O 0.1395(2) 0.9244(2) -0.37890(13)
O4_2 O 0.4190(2) 0.5894(2) -0.62378(13)
O4A_2 O 0.5810(2) 0.4106(2) 0.62378(13)
O7_2 O 0.0789(2) 0.8538(2) -0.65044(14)
O7A_2 O 0.9211(2) 0.1462(2) 0.65044(14)
loop_
_geom_bond_atom_site_label_1
_geom_bond_atom_site_label_2
_geom_bond_site_symmetry_1
_geom_bond_site_symmetry_2
Ca1 O2 1_555 1_555
S1 O1 1_555 1_555
S2 O3 1_555 1_555
O2 S1 1_555 1_555
O3 Ca1 1_555 1_555
O4 S2 1_555 1_555
C1 S2 1_555 1_555
O5 S2 1_555 1_555
O6 Ca1 1_555 1_555
O7 S1 1_555 1_555
O8 Ca1 1_555 1_555
C2 C6 1_555 1_555
C3 H1 1_555 1_555
C4 C1 1_555 1_555
C5 S1 1_555 1_555
C6 C3 1_555 1_555
H2 C6 1_555 1_555
C7 C1 1_555 1_555
H3 C7 1_555 1_555
C8 C4 1_555 1_555
C9 C7 1_555 1_555
C10 C5 1_555 1_555
H4 C8 1_555 1_555
H5 C2 1_555 1_555
H6 C9 1_555 1_555
H7 O8 1_555 1_555
H8 O8 1_555 1_555
H9 O6 1_555 1_555
H10 O6 1_555 1_555
S1A O1A 1_555 1_555
O2A S1A 1_555 1_555
O7A S1A 1_555 1_555
C2A C10 1_555 1_555
C3A H1A 1_555 1_555
C5A S1A 1_555 1_555
C6A C2A 1_555 1_555
H2A C6A 1_555 1_555
C10A C2 1_555 1_555
H5A C2A 1_555 1_555
S2A O3A 1_555 1_555
O3A Ca1A 1_555 1_555
C1A S2A 1_555 1_555
O5A S2A 1_555 1_555
C4A C4 1_555 1_555
C7A C1A 1_555 1_555
H3A C7A 1_555 1_555
C8A C9 1_555 1_555
C9A C8 1_555 1_555
H4A C8A 1_555 1_555
H6A C9A 1_555 1_555
O4A S2A 1_555 1_555
Ca1A O6A 1_555 1_555
O6A H9A 1_555 1_555
O8A Ca1A 1_555 1_555
H7A O8A 1_555 1_555
H8A O8A 1_555 1_555
H10A O6A 1_555 1_555
Ca1_2 O7A 1_555 1_555
Ca1A_2 O4 1_555 1_555
Ca1A_3 O2A 1_555 1_555
Ca1A_4 O7 1_555 1_555
O2A_2 Ca1A 1_555 1_555
O4_2 Ca1A 1_555 1_555
O4A_2 Ca1 1_555 1_555
O7_2 Ca1A 1_555 1_555
O7A_2 Ca1 1_555 1_555
C3 C5 1_555 1_555
C10 C10A 1_555 1_555
C3A C5A 1_555 1_555
C3A C6A 1_555 1_555
C5A C10A 1_555 1_555
C1A C4A 1_555 1_555
C4A C8A 1_555 1_555
C7A C9A 1_555 1_555
O4A Ca1_2 1_555 1_555

#END
