
#######################################################################
#
#                 Cambridge Crystallographic Data Centre
#                                CCDC 
#
#######################################################################
#
# If this CIF has been generated from an entry in the Cambridge 
# Structural Database, then it will include bibliographic, chemical, 
# crystal, experimental, refinement or atomic coordinate data resulting 
# from the CCDC's data processing and validation procedures.
#
#######################################################################

data_RAKYAD
_symmetry_cell_setting           monoclinic
_symmetry_space_group_name_H-M   'P 21/c'
_symmetry_Int_Tables_number      14
_space_group_name_Hall           '-P 2ybc'
loop_
_symmetry_equiv_pos_site_id
_symmetry_equiv_pos_as_xyz
1 x,y,z
2 -x,1/2+y,1/2-z
3 -x,-y,-z
4 x,1/2-y,1/2+z
_cell_length_a                   10.8901(17)
_cell_length_b                   7.8842(13)
_cell_length_c                   8.0619(13)
_cell_angle_alpha                90
_cell_angle_beta                 104.228(3)
_cell_angle_gamma                90
_cell_volume                     670.96
loop_
_atom_site_label
_atom_site_type_symbol
_atom_site_fract_x
_atom_site_fract_y
_atom_site_fract_z
S1 S 0.82435(3) 1.01202(4) 0.58212(4)
Li1 Li 0.9093(2) 0.6449(3) 0.7512(3)
O1 O 0.85128(9) 0.87409(13) 0.70623(13)
O2 O 0.82737(10) 0.95808(16) 0.41179(14)
O3 O 0.90527(9) 1.15798(13) 0.64168(14)
O4 O 0.86614(13) 0.51191(16) 0.54838(17)
H1 H 0.858(2) 0.543(3) 0.452(4)
H2 H 0.891(2) 0.409(3) 0.550(3)
C1 C 0.66697(11) 1.07846(15) 0.57230(16)
C2 C 0.64935(12) 1.23803(17) 0.63050(18)
H3 H 0.7189 1.3065 0.6769
C3 C 0.56217(11) 0.96836(16) 0.50425(16)
C4 C 0.57708(12) 0.80127(17) 0.44675(18)
H4 H 0.6580 0.7589 0.4546
C5 C 0.52589(13) 1.29793(18) 0.6199(2)
H5 H 0.5144 1.4064 0.6588
C4B C 0.42292(12) 1.19873(17) 0.55325(18)
C3B C 0.43783(11) 1.03164(16) 0.49575(16)
C1B C 0.33303(11) 0.92154(15) 0.42770(16)
S1B S 0.17565(3) 0.98798(4) 0.41788(4)
O1B O 0.14872(9) 1.12591(13) 0.29377(13)
O2B O 0.17263(10) 1.04192(16) 0.58821(14)
O3B O 0.09473(9) 0.84202(13) 0.35832(14)
C2B C 0.35065(12) 0.76197(17) 0.36950(18)
H3B H 0.2811 0.6935 0.3231
C5B C 0.47411(13) 0.70207(18) 0.3801(2)
H5B H 0.4856 0.5936 0.3412
H4B H 0.3420 1.2411 0.5454
Li1B Li 0.0907(2) 1.3551(3) 0.2488(3)
O4B O 0.13386(13) 1.48809(16) 0.45162(17)
H1B H 0.142(2) 1.457(3) 0.548(4)
H2B H 0.109(2) 1.591(3) 0.450(3)
O2C O 0.82737(10) 0.54192(16) 0.91179(14)
O3A O 1.09473(9) 0.65798(13) 0.85832(14)
Li1C Li 0.9093(2) 0.8551(3) 0.2512(3)
Li1A Li 1.0907(2) 1.1449(3) 0.7488(3)
Li1A_2 Li 0.0907(2) 1.1449(3) 0.7488(3)
Li1C_2 Li -0.0907(2) 0.8551(3) 0.2512(3)
O2A O 0.17263(10) 1.45808(16) 0.08821(14)
O3C O -0.09473(9) 1.34202(13) 0.14168(14)
loop_
_geom_bond_atom_site_label_1
_geom_bond_atom_site_label_2
_geom_bond_site_symmetry_1
_geom_bond_site_symmetry_2
S1 O1 1_555 1_555
Li1 O1 1_555 1_555
O2 S1 1_555 1_555
O3 S1 1_555 1_555
O4 Li1 1_555 1_555
H1 O4 1_555 1_555
H2 O4 1_555 1_555
C1 S1 1_555 1_555
C2 C1 1_555 1_555
H3 C2 1_555 1_555
C3 C1 1_555 1_555
C4 C3 1_555 1_555
H4 C4 1_555 1_555
C5 C2 1_555 1_555
H5 C5 1_555 1_555
C4B C5 1_555 1_555
C3B C3 1_555 1_555
C1B C3B 1_555 1_555
S1B C1B 1_555 1_555
O1B S1B 1_555 1_555
O2B S1B 1_555 1_555
O3B S1B 1_555 1_555
C2B C1B 1_555 1_555
H3B C2B 1_555 1_555
C5B C4 1_555 1_555
H5B C5B 1_555 1_555
H4B C4B 1_555 1_555
Li1B O1B 1_555 1_555
O4B Li1B 1_555 1_555
H1B O4B 1_555 1_555
H2B O4B 1_555 1_555
O2C Li1 1_555 1_555
O3A Li1 1_555 1_555
Li1C O2 1_555 1_555
Li1A O3 1_555 1_555
Li1A_2 O2B 1_555 1_555
Li1C_2 O3B 1_555 1_555
O2A Li1B 1_555 1_555
O3C Li1B 1_555 1_555
C4B C3B 1_555 1_555
C2B C5B 1_555 1_555

#END
