
#######################################################################
#
#                 Cambridge Crystallographic Data Centre
#                                CCDC 
#
#######################################################################
#
# If this CIF has been generated from an entry in the Cambridge 
# Structural Database, then it will include bibliographic, chemical, 
# crystal, experimental, refinement or atomic coordinate data resulting 
# from the CCDC's data processing and validation procedures.
#
#######################################################################

data_RAKYEH
_symmetry_cell_setting           monoclinic
_symmetry_space_group_name_H-M   'P 21/c'
_symmetry_Int_Tables_number      14
_space_group_name_Hall           '-P 2ybc'
loop_
_symmetry_equiv_pos_site_id
_symmetry_equiv_pos_as_xyz
1 x,y,z
2 -x,1/2+y,1/2-z
3 -x,-y,-z
4 x,1/2-y,1/2+z
_cell_length_a                   11.6398(17)
_cell_length_b                   5.5507(8)
_cell_length_c                   10.7148(16)
_cell_angle_alpha                90
_cell_angle_beta                 96.187(3)
_cell_angle_gamma                90
_cell_volume                     688.241
loop_
_atom_site_label
_atom_site_type_symbol
_atom_site_fract_x
_atom_site_fract_y
_atom_site_fract_z
Na1 Na 0.60064(6) -0.09071(11) 0.68026(6)
S1 S 0.70611(3) 0.07573(6) 0.99844(3)
O1 O 0.68449(10) 0.1058(2) 0.86273(11)
O2 O 0.64795(10) 0.2544(2) 1.06735(12)
O3 O 0.68285(10) -0.1713(2) 1.03583(10)
O4 O 0.41353(12) 0.0735(2) 0.68658(13)
C1 C 0.85708(12) 0.1246(2) 1.03620(13)
C2 C 0.94004(12) -0.0257(3) 0.98395(13)
C3 C 0.90822(13) -0.2221(3) 0.90238(14)
H1 H 0.8304 -0.2567 0.8809
C4 C 0.89168(13) 0.3125(3) 1.11398(14)
H2 H 0.8367 0.4088 1.1466
C5 C 0.98995(14) -0.3606(3) 0.85514(15)
H3 H 0.9673 -0.4884 0.8019
H4 H 0.388(3) 0.134(7) 0.612(4)
H5 H 0.377(3) -0.040(6) 0.687(3)
C2B C 1.05996(12) 0.0257(3) 1.01605(13)
C1B C 1.14292(12) -0.1246(2) 0.96380(13)
S1B S 1.29389(3) -0.07573(6) 1.00156(3)
O1B O 1.31551(10) -0.1058(2) 1.13727(11)
O2B O 1.35205(10) -0.2544(2) 0.93265(12)
O3B O 1.31715(10) 0.1713(2) 0.96417(10)
C4B C 1.10832(13) -0.3125(3) 0.88602(14)
H2B H 1.1633 -0.4088 0.8534
C3B C 1.09178(13) 0.2221(3) 1.09762(14)
H1B H 1.1696 0.2567 1.1191
C5B C 1.01005(14) 0.3606(3) 1.14486(15)
H3B H 1.0327 0.4884 1.1981
O4A O 0.58647(12) -0.4265(2) 0.81342(13)
H4A H 0.612(3) -0.366(7) 0.888(4)
H5A H 0.623(3) -0.540(6) 0.813(3)
Na1B Na 1.39936(6) 0.09071(11) 1.31974(6)
O2C O 0.64795(10) 0.2456(2) 0.56735(12)
O3C O 0.68285(10) -0.3287(2) 0.53583(10)
Na1C Na 0.60064(6) 0.59071(11) 1.18026(6)
Na1C_2 Na 0.60064(6) -0.40929(11) 1.18026(6)
Na1A Na 0.39936(6) 0.40929(11) 0.81974(6)
Na1A_2 Na 1.39936(6) -0.59071(11) 0.81974(6)
Na1A_3 Na 1.39936(6) 0.40929(11) 0.81974(6)
Na1A_4 Na 0.39936(6) -0.59071(11) 0.81974(6)
O2A O 1.35205(10) -0.2456(2) 1.43265(12)
O3A O 1.31715(10) 0.3287(2) 1.46417(10)
O4C O 1.41353(12) 0.4265(2) 1.18658(13)
O4B O 1.58647(12) -0.0735(2) 1.31342(13)
H4C H 1.388(3) 0.366(7) 1.112(4)
H5C H 1.377(3) 0.540(6) 1.187(3)
H4B H 1.612(3) -0.134(7) 1.388(4)
H5B H 1.623(3) 0.040(6) 1.313(3)
loop_
_geom_bond_atom_site_label_1
_geom_bond_atom_site_label_2
_geom_bond_site_symmetry_1
_geom_bond_site_symmetry_2
Na1 O1 1_555 1_555
S1 O1 1_555 1_555
O2 S1 1_555 1_555
O3 S1 1_555 1_555
O4 Na1 1_555 1_555
C1 S1 1_555 1_555
C2 C1 1_555 1_555
C3 C2 1_555 1_555
H1 C3 1_555 1_555
C4 C1 1_555 1_555
H2 C4 1_555 1_555
C5 C3 1_555 1_555
H3 C5 1_555 1_555
H4 O4 1_555 1_555
H5 O4 1_555 1_555
C2B C2 1_555 1_555
C1B C2B 1_555 1_555
S1B C1B 1_555 1_555
O1B S1B 1_555 1_555
O2B S1B 1_555 1_555
O3B S1B 1_555 1_555
C4B C5 1_555 1_555
H2B C4B 1_555 1_555
C3B C2B 1_555 1_555
H1B C3B 1_555 1_555
C5B C4 1_555 1_555
H3B C5B 1_555 1_555
O4A Na1 1_555 1_555
H4A O4A 1_555 1_555
H5A O4A 1_555 1_555
Na1B O1B 1_555 1_555
O2C Na1 1_555 1_555
O3C Na1 1_555 1_555
Na1C O2 1_555 1_555
Na1C_2 O3 1_555 1_555
Na1A O4 1_555 1_555
Na1A_2 O2B 1_555 1_555
Na1A_3 O3B 1_555 1_555
Na1A_4 O4A 1_555 1_555
O2A Na1B 1_555 1_555
O3A Na1B 1_555 1_555
O4C Na1B 1_555 1_555
O4B Na1B 1_555 1_555
H4C O4C 1_555 1_555
H5C O4C 1_555 1_555
H4B O4B 1_555 1_555
H5B O4B 1_555 1_555
C1B C4B 1_555 1_555
C3B C5B 1_555 1_555

#END
