
#######################################################################
#
#                 Cambridge Crystallographic Data Centre
#                                CCDC 
#
#######################################################################
#
# If this CIF has been generated from an entry in the Cambridge 
# Structural Database, then it will include bibliographic, chemical, 
# crystal, experimental, refinement or atomic coordinate data resulting 
# from the CCDC's data processing and validation procedures.
#
#######################################################################

data_RAKZAE
_symmetry_cell_setting           orthorhombic
_symmetry_space_group_name_H-M   'P n m a'
_symmetry_Int_Tables_number      62
_space_group_name_Hall           '-P 2ac 2n'
loop_
_symmetry_equiv_pos_site_id
_symmetry_equiv_pos_as_xyz
1 x,y,z
2 1/2-x,-y,1/2+z
3 -x,1/2+y,-z
4 1/2+x,1/2-y,1/2-z
5 -x,-y,-z
6 1/2+x,y,1/2-z
7 x,1/2-y,z
8 1/2-x,1/2+y,1/2+z
_cell_length_a                   9.5424(11)
_cell_length_b                   21.705(2)
_cell_length_c                   5.8137(7)
_cell_angle_alpha                90
_cell_angle_beta                 90
_cell_angle_gamma                90
_cell_volume                     1204.12
loop_
_atom_site_label
_atom_site_type_symbol
_atom_site_fract_x
_atom_site_fract_y
_atom_site_fract_z
Sr1 Sr -0.21680(2) 0.2500 -0.91416(4)
S1 S -0.05220(5) 0.343830(19) -0.42884(7)
O1 O -0.1181(2) 0.31616(6) -0.2312(3)
O2 O 0.09408(16) 0.32613(7) -0.4506(3)
O3 O -0.12962(18) 0.33370(7) -0.6408(3)
O4 O 0.0987(3) 0.2500 -0.9362(4)
C1 C -0.14259(18) 0.50660(8) -0.1356(3)
H1 H -0.1922 0.5191 -0.0061
C2 C -0.12977(19) 0.44371(8) -0.1833(3)
H2 H -0.1701 0.4149 -0.0852
C3 C -0.05782(17) 0.42449(8) -0.3744(3)
C4 C 0.00666(18) 0.46789(8) -0.5258(3)
C5 C -0.08377(18) 0.54987(8) -0.2751(3)
H3 H -0.0941 0.5914 -0.2401
H4 H 0.103(3) 0.2800(13) -1.006(5)
C4D C -0.00666(18) 0.53211(8) -0.4742(3)
C3D C 0.05782(17) 0.57551(8) -0.6256(3)
S1D S 0.05220(5) 0.656170(19) -0.57116(7)
O1D O 0.1181(2) 0.68384(6) -0.7688(3)
O2D O -0.09408(16) 0.67387(7) -0.5494(3)
O3D O 0.12962(18) 0.66630(7) -0.3592(3)
C2D C 0.12977(19) 0.55629(8) -0.8167(3)
C1D C 0.14259(18) 0.49340(8) -0.8644(3)
H1D H 0.1922 0.4809 -0.9939
C5D C 0.08377(18) 0.45013(8) -0.7249(3)
H3D H 0.0941 0.4086 -0.7599
H2D H 0.1701 0.5851 -0.9148
Sr1E Sr 0.28320(2) 0.2500 -0.58584(4)
Sr1_2 Sr -0.21680(2) 0.2500 0.08584(4)
Sr1D Sr 0.21680(2) 0.7500 -1.08584(4)
Sr1G Sr -0.28320(2) 0.7500 -0.41416(4)
Sr1D_2 Sr 0.21680(2) 0.7500 -0.08584(4)
O1_2 O -0.1181(2) 0.31616(6) -1.2312(3)
O1F O -0.1181(2) 0.18384(6) -1.2312(3)
O2E O -0.40592(16) 0.32613(7) -1.0494(3)
O2C O -0.40592(16) 0.17387(7) -1.0494(3)
O3F O -0.12962(18) 0.16630(7) -0.6408(3)
O4E O -0.4013(3) 0.2500 -0.5638(4)
H4F H 0.103(3) 0.2200(13) -1.006(5)
H4E H -0.397(3) 0.2800(13) -0.494(5)
H4C H -0.397(3) 0.2200(13) -0.494(5)
loop_
_geom_bond_atom_site_label_1
_geom_bond_atom_site_label_2
_geom_bond_site_symmetry_1
_geom_bond_site_symmetry_2
Sr1 O3 1_555 1_555
S1 O1 1_555 1_555
O1 Sr1_2 1_555 1_555
O2 S1 1_555 1_555
O3 S1 1_555 1_555
O4 Sr1 1_555 1_555
C1 H1 1_555 1_555
C2 C1 1_555 1_555
H2 C2 1_555 1_555
C3 S1 1_555 1_555
C4 C3 1_555 1_555
C5 C1 1_555 1_555
H3 C5 1_555 1_555
H4 O4 1_555 1_555
C4D C4 1_555 1_555
C3D C4D 1_555 1_555
S1D C3D 1_555 1_555
O1D S1D 1_555 1_555
O2D S1D 1_555 1_555
O3D S1D 1_555 1_555
C2D C3D 1_555 1_555
C1D C2D 1_555 1_555
H1D C1D 1_555 1_555
C5D C4 1_555 1_555
H3D C5D 1_555 1_555
H2D C2D 1_555 1_555
Sr1E O2 1_555 1_555
Sr1D O1D 1_555 1_555
Sr1G O2D 1_555 1_555
Sr1D_2 O3D 1_555 1_555
O1_2 Sr1 1_555 1_555
O1F Sr1 1_555 1_555
O2E Sr1 1_555 1_555
O2C Sr1 1_555 1_555
O3F Sr1 1_555 1_555
O4E Sr1 1_555 1_555
H4F O4 1_555 1_555
H4E O4E 1_555 1_555
H4C O4E 1_555 1_555
O4 Sr1E 1_555 1_555
C2 C3 1_555 1_555
C5 C4D 1_555 1_555
C1D C5D 1_555 1_555

#END
