
#######################################################################
#
#                 Cambridge Crystallographic Data Centre
#                                CCDC 
#
#######################################################################
#
# If this CIF has been generated from an entry in the Cambridge 
# Structural Database, then it will include bibliographic, chemical, 
# crystal, experimental, refinement or atomic coordinate data resulting 
# from the CCDC's data processing and validation procedures.
#
#######################################################################

data_RALJUL
_symmetry_cell_setting           triclinic
_symmetry_space_group_name_H-M   'P -1'
_symmetry_Int_Tables_number      2
_space_group_name_Hall           '-P 1'
loop_
_symmetry_equiv_pos_site_id
_symmetry_equiv_pos_as_xyz
1 x,y,z
2 -x,-y,-z
_cell_length_a                   9.2194(2)
_cell_length_b                   12.2574(2)
_cell_length_c                   13.5866(3)
_cell_angle_alpha                69.0100(10)
_cell_angle_beta                 72.4120(10)
_cell_angle_gamma                82.8050(10)
_cell_volume                     1366.22
loop_
_atom_site_label
_atom_site_type_symbol
_atom_site_fract_x
_atom_site_fract_y
_atom_site_fract_z
Mn1 Mn 0.10827(3) 0.82119(2) 0.474941(18)
O1 O 0.03063(15) 0.64716(12) 0.34288(10)
O2 O 0.20283(13) 0.76320(10) 0.33548(9)
O3 O 0.98973(13) 1.02459(10) -0.38254(9)
O4 O 1.02317(15) 0.83752(11) -0.36783(9)
O5 O -0.09675(14) 0.72377(12) 0.50642(10)
N1 N 0.22857(16) 0.65095(12) -0.42982(11)
N2 N 0.42772(16) 0.66185(13) -0.19406(11)
N3 N 0.32541(15) 0.92165(12) 0.41941(11)
N4 N 0.71381(16) 0.83123(14) 0.20305(11)
C1 C 0.2393(2) 0.54967(16) -0.44844(15)
C2 C 0.3133(3) 0.45225(17) -0.39628(18)
C3 C 0.3827(2) 0.45807(17) -0.32147(17)
C4 C 0.37213(18) 0.56088(14) -0.29905(13)
C5 C 0.2938(2) 0.65422(15) -0.35560(13)
C6 C 0.4462(2) 0.57208(17) -0.22129(13)
C7 C 0.5160(2) 0.6697(2) -0.12421(15)
C8 C 0.41644(19) 0.68206(16) -0.01721(13)
C9 C 0.4631(2) 0.75045(17) 0.02937(14)
C10 C 0.3785(2) 0.75696(16) 0.13048(14)
C11 C 0.24490(18) 0.69502(14) 0.18713(12)
C12 C 0.1982(2) 0.62711(16) 0.14049(14)
C13 C 0.2825(2) 0.62101(17) 0.03932(15)
C14 C 0.15141(18) 0.70218(14) 0.29712(12)
C15 C 0.45307(19) 0.88608(16) 0.35926(14)
C16 C 0.58454(19) 0.95060(16) 0.30949(13)
C17 C 0.5831(2) 1.05674(17) 0.32377(16)
C18 C 0.4519(2) 1.09486(17) 0.38534(17)
C19 C 0.3265(2) 1.02534(16) 0.43106(14)
C20 C 0.7213(2) 0.90664(18) 0.24375(15)
C21 C 0.8576(2) 0.7917(2) 0.14286(15)
C22 C 0.87095(19) 0.82173(16) 0.02249(13)
C23 C 0.8416(2) 0.93371(17) -0.04168(14)
C24 C 0.8735(2) 0.96414(16) -0.15421(13)
C25 C 0.93446(18) 0.88260(14) -0.20501(12)
C26 C 0.9561(2) 0.76865(16) -0.14084(14)
C27 C 0.9237(2) 0.73901(17) -0.02808(15)
C28 C 0.98393(17) 0.91810(14) -0.32835(12)
C29 C -0.1739(3) 0.6437(2) 0.6069(2)
H1 H 0.191(2) 0.5481(16) -0.5001(15)
H2 H 0.321(2) 0.3822(19) -0.4171(18)
H3 H 0.434(2) 0.3954(19) -0.2847(17)
H4 H 0.2858(19) 0.7258(16) -0.3423(14)
H5 H 0.509(2) 0.5091(17) -0.1916(15)
H6 H 0.582(2) 0.7432(17) -0.1653(16)
H7 H 0.583(2) 0.6030(19) -0.1082(16)
H8 H 0.557(2) 0.7949(18) -0.0097(16)
H9 H 0.4100(19) 0.8021(15) 0.1618(14)
H10 H 0.251(2) 0.5732(17) 0.0090(16)
H11 H 0.110(2) 0.5843(17) 0.1768(16)
H12 H 0.451(2) 0.8125(17) 0.3503(15)
H13 H 0.677(3) 1.1033(19) 0.2905(18)
H14 H 0.447(2) 1.1687(19) 0.3975(18)
H15 H 0.240(2) 1.0499(15) 0.4714(15)
H16 H 0.858(2) 0.7119(19) 0.1700(17)
H17 H 0.947(2) 0.8313(19) 0.1508(17)
H18 H 0.803(2) 0.9934(17) -0.0077(16)
H19 H 0.855(2) 1.0371(17) -0.1958(16)
H20 H 0.937(2) 0.6609(19) 0.0131(17)
H21 H 0.993(2) 0.7059(18) -0.1764(17)
H22 H 0.817(2) 0.9412(17) 0.2355(16)
H23 H -0.188(3) 0.678(2) 0.660(2)
H24 H -0.112(4) 0.573(3) 0.626(3)
H25 H -0.261(3) 0.618(2) 0.610(2)
H26 H -0.067(3) 0.689(2) 0.459(2)
Mn1A Mn 0.89173(3) 1.17881(2) -0.474941(18)
Mn1_2 Mn 1.10827(3) 0.82119(2) -0.525059(18)
Mn1_3 Mn 0.10827(3) 0.82119(2) -0.525059(18)
O3A O 0.01027(13) 0.97541(10) 0.38254(9)
O4_2 O 0.02317(15) 0.83752(11) 0.63217(9)
N1_2 N 0.22857(16) 0.65095(12) 0.57018(11)
loop_
_geom_bond_atom_site_label_1
_geom_bond_atom_site_label_2
_geom_bond_site_symmetry_1
_geom_bond_site_symmetry_2
Mn1 O2 1_555 1_555
O1 C14 1_555 1_555
O2 C14 1_555 1_555
O3 C28 1_555 1_555
O4 C28 1_555 1_555
O5 Mn1 1_555 1_555
N1 C1 1_555 1_555
N2 C6 1_555 1_555
N3 Mn1 1_555 1_555
N4 C20 1_555 1_555
C1 C2 1_555 1_555
C2 C3 1_555 1_555
C3 C4 1_555 1_555
C4 C5 1_555 1_555
C5 N1 1_555 1_555
C6 C4 1_555 1_555
C7 N2 1_555 1_555
C8 C7 1_555 1_555
C9 C8 1_555 1_555
C10 C9 1_555 1_555
C11 C10 1_555 1_555
C12 C11 1_555 1_555
C13 C8 1_555 1_555
C14 C11 1_555 1_555
C15 N3 1_555 1_555
C16 C15 1_555 1_555
C17 C16 1_555 1_555
C18 C17 1_555 1_555
C19 N3 1_555 1_555
C20 C16 1_555 1_555
C21 N4 1_555 1_555
C22 C21 1_555 1_555
C23 C22 1_555 1_555
C24 C23 1_555 1_555
C25 C24 1_555 1_555
C26 C25 1_555 1_555
C27 C22 1_555 1_555
C28 C25 1_555 1_555
C29 O5 1_555 1_555
H1 C1 1_555 1_555
H2 C2 1_555 1_555
H3 C3 1_555 1_555
H4 C5 1_555 1_555
H5 C6 1_555 1_555
H6 C7 1_555 1_555
H7 C7 1_555 1_555
H8 C9 1_555 1_555
H9 C10 1_555 1_555
H10 C13 1_555 1_555
H11 C12 1_555 1_555
H12 C15 1_555 1_555
H13 C17 1_555 1_555
H14 C18 1_555 1_555
H15 C19 1_555 1_555
H16 C21 1_555 1_555
H17 C21 1_555 1_555
H18 C23 1_555 1_555
H19 C24 1_555 1_555
H20 C27 1_555 1_555
H21 C26 1_555 1_555
H22 C20 1_555 1_555
H23 C29 1_555 1_555
H24 C29 1_555 1_555
H25 C29 1_555 1_555
H26 O5 1_555 1_555
Mn1A O3 1_555 1_555
Mn1_2 O4 1_555 1_555
Mn1_3 N1 1_555 1_555
O3A Mn1 1_555 1_555
O4_2 Mn1 1_555 1_555
N1_2 Mn1 1_555 1_555
C12 C13 1_555 1_555
C18 C19 1_555 1_555
C26 C27 1_555 1_555

#END
