
#######################################################################
#
#                 Cambridge Crystallographic Data Centre
#                                CCDC 
#
#######################################################################
#
# If this CIF has been generated from an entry in the Cambridge 
# Structural Database, then it will include bibliographic, chemical, 
# crystal, experimental, refinement or atomic coordinate data resulting 
# from the CCDC's data processing and validation procedures.
#
#######################################################################

data_RALKUK
_symmetry_cell_setting           monoclinic
_symmetry_space_group_name_H-M   'P 21/c'
_symmetry_Int_Tables_number      14
_space_group_name_Hall           '-P 2ybc'
loop_
_symmetry_equiv_pos_site_id
_symmetry_equiv_pos_as_xyz
1 x,y,z
2 x,1/2-y,1/2+z
3 -x,-y,-z
4 -x,1/2+y,1/2-z
_cell_length_a                   8.8937(18)
_cell_length_b                   20.872(4)
_cell_length_c                   25.581(5)
_cell_angle_alpha                90
_cell_angle_beta                 91.62(3)
_cell_angle_gamma                90
_cell_volume                     4746.69
loop_
_atom_site_label
_atom_site_type_symbol
_atom_site_fract_x
_atom_site_fract_y
_atom_site_fract_z
Mo1 Mo 0.12227(3) 0.256065(14) 0.447797(12)
Mo2 Mo 0.07603(3) 0.245793(14) 0.555849(12)
S1 S 0.00713(13) 0.21075(5) 0.37106(5)
S2 S 0.00893(14) 0.31034(6) 0.37337(5)
S3 S 0.06557(11) 0.16409(4) 0.49418(4)
S4 S 0.05141(11) 0.33718(4) 0.50404(4)
S5 S -0.09304(14) 0.18842(6) 0.60987(5)
S6 S -0.09999(15) 0.28770(6) 0.61584(5)
O1 O 0.3106(3) 0.25860(14) 0.44104(12)
O2 O 0.2491(4) 0.24629(16) 0.58348(13)
Mo3 Mo 0.80978(4) -0.007332(17) 0.211827(15)
Mo4 Mo 0.91367(4) -0.009097(17) 0.317185(15)
S7 S 0.91757(15) -0.03444(6) 0.13023(5)
S8 S 0.85071(17) 0.06017(6) 0.13791(6)
S9 S 0.96950(13) -0.08058(5) 0.25163(4)
S10 S 0.82387(17) 0.07858(6) 0.26993(5)
S11 S 1.14496(16) -0.03612(6) 0.36326(6)
S12 S 1.08094(15) 0.05958(6) 0.36493(5)
O3 O 0.6311(4) -0.03610(19) 0.21242(15)
O4 O 0.7707(5) -0.0371(2) 0.35231(17)
Ni1 Ni 0.5000 0.5000 0.5000
Ni2 Ni 0.45476(5) 0.23916(2) 0.284540(18)
Ni3 Ni 0.5000 0.0000 0.5000
N1 N 0.4838(4) 0.56650(16) 0.43706(13)
H1 H 0.5588 0.5600 0.4148
H2 H 0.3955 0.5617 0.4194
N2 N 0.2694(3) 0.47695(16) 0.49418(14)
H3 H 0.2405 0.4739 0.4603
H4 H 0.2536 0.4388 0.5094
N3 N 0.5845(3) 0.41661(14) 0.45694(12)
N4 N 0.4279(4) 0.32424(15) 0.33752(12)
H5 H 0.4039 0.3575 0.3165
H6 H 0.3460 0.3162 0.3564
N5 N 0.6925(4) 0.24557(16) 0.29441(13)
H7 H 0.7160 0.2615 0.3263
H8 H 0.7333 0.2062 0.2922
N6 N 0.2276(4) 0.25687(19) 0.26179(14)
H9 H 0.1742 0.2203 0.2624
H10 H 0.1861 0.2850 0.2838
N7 N 0.5010(4) 0.28882(15) 0.21472(12)
N8 N 0.4720(4) 0.15848(16) 0.23392(14)
H11 H 0.5100 0.1247 0.2517
H12 H 0.3806 0.1477 0.2207
N9 N 0.4054(4) 0.17665(16) 0.34627(12)
H13 H 0.3317 0.1948 0.3646
H14 H 0.3672 0.1405 0.3320
N10 N 0.5752(3) 0.08881(14) 0.46495(12)
N11 N 0.2649(3) 0.01790(15) 0.49420(14)
H15 H 0.2433 0.0540 0.5117
H16 H 0.2368 0.0235 0.4604
N12 N 0.4945(4) -0.05946(15) 0.43137(13)
H17 H 0.4061 -0.0549 0.4137
H18 H 0.5691 -0.0485 0.4101
C1 C 0.4947(6) 0.6316(2) 0.45980(18)
H19 H 0.4668 0.6631 0.4334
H20 H 0.5975 0.6400 0.4715
C2 C 0.1796(5) 0.5263(2) 0.5197(2)
H21 H 0.0920 0.5064 0.5346
H22 H 0.1447 0.5572 0.4938
C3 C 0.6080(5) 0.3631(2) 0.49488(17)
H23 H 0.7116 0.3635 0.5078
H24 H 0.5900 0.3226 0.4772
C4 C 0.7309(4) 0.4393(2) 0.43757(18)
H25 H 0.7135 0.4681 0.4083
H26 H 0.7883 0.4030 0.4254
C5 C 0.4828(4) 0.39774(18) 0.41281(15)
H27 H 0.4564 0.4360 0.3930
H28 H 0.3908 0.3811 0.4271
C6 C 0.5436(4) 0.34789(19) 0.37477(16)
H29 H 0.6248 0.3668 0.3555
H30 H 0.5846 0.3120 0.3946
C7 C 0.7551(5) 0.2878(2) 0.25340(18)
H31 H 0.8014 0.2618 0.2269
H32 H 0.8321 0.3153 0.2690
C8 C 0.6317(5) 0.3288(2) 0.22827(18)
H33 H 0.6029 0.3622 0.2523
H34 H 0.6686 0.3490 0.1970
C9 C 0.3630(5) 0.3259(2) 0.20166(17)
H35 H 0.3660 0.3411 0.1659
H36 H 0.3567 0.3628 0.2246
C10 C 0.2272(5) 0.2834(3) 0.20817(17)
H37 H 0.1360 0.3080 0.2017
H38 H 0.2291 0.2486 0.1830
C11 C 0.5321(5) 0.2426(2) 0.17157(16)
H39 H 0.6143 0.2589 0.1513
H40 H 0.4439 0.2397 0.1485
C12 C 0.5722(5) 0.1764(2) 0.19142(17)
H41 H 0.5620 0.1457 0.1631
H42 H 0.6759 0.1759 0.2042
C13 C 0.5249(4) 0.15784(18) 0.38368(15)
H43 H 0.5603 0.1953 0.4028
H44 H 0.6089 0.1404 0.3649
C14 C 0.4689(4) 0.10785(17) 0.42225(14)
H45 H 0.3785 0.1244 0.4378
H46 H 0.4406 0.0697 0.4027
C15 C 0.7242(4) 0.0730(2) 0.44392(16)
H47 H 0.7757 0.1122 0.4347
H48 H 0.7108 0.0475 0.4125
C16 C 0.5889(5) 0.13903(19) 0.50600(16)
H49 H 0.5646 0.1804 0.4907
H50 H 0.6921 0.1407 0.5192
C17 C 0.1811(4) -0.0362(2) 0.51607(19)
H51 H 0.1496 -0.0648 0.4880
H52 H 0.0915 -0.0202 0.5325
C18 C 0.5136(5) -0.12651(19) 0.44928(17)
H53 H 0.6173 -0.1337 0.4605
H54 H 0.4896 -0.1557 0.4207
N1B N 0.5162(4) 0.43350(16) 0.56294(13)
N2B N 0.7306(3) 0.52305(16) 0.50582(14)
N3B N 0.4155(3) 0.58339(14) 0.54306(12)
N10B N 0.4248(3) -0.08881(14) 0.53505(12)
N11B N 0.7351(3) -0.01790(15) 0.50580(14)
N12B N 0.5055(4) 0.05946(15) 0.56863(13)
C3B C 0.3920(5) 0.6369(2) 0.50512(17)
C4B C 0.2691(4) 0.5607(2) 0.56243(18)
C1B C 0.5053(6) 0.3684(2) 0.54020(18)
C2B C 0.8204(5) 0.4737(2) 0.4803(2)
C17B C 0.8189(4) 0.0362(2) 0.48393(19)
C18B C 0.4864(5) 0.12651(19) 0.55072(17)
C15B C 0.2758(4) -0.0730(2) 0.55608(16)
C16B C 0.4111(5) -0.13903(19) 0.49400(16)
H1B H 0.4412 0.4400 0.5852
H2B H 0.6045 0.4383 0.5806
H19B H 0.5332 0.3369 0.5666
H20B H 0.4025 0.3600 0.5285
H3B H 0.7595 0.5261 0.5397
H4B H 0.7464 0.5612 0.4906
H21B H 0.9080 0.4936 0.4654
H22B H 0.8553 0.4428 0.5062
H25B H 0.2865 0.5319 0.5917
H26B H 0.2117 0.5970 0.5746
H23B H 0.2884 0.6365 0.4922
H24B H 0.4100 0.6774 0.5228
C5B C 0.5172(4) 0.60226(18) 0.58719(15)
H27B H 0.5436 0.5640 0.6070
H28B H 0.6092 0.6189 0.5729
C6B C 0.4564(4) 0.65211(19) 0.62523(16)
N4B N 0.5721(4) 0.67576(15) 0.66248(12)
H29B H 0.3752 0.6332 0.6445
H30B H 0.4154 0.6880 0.6054
Ni2B Ni 0.54524(5) 0.76084(2) 0.715460(18)
H5B H 0.5961 0.6425 0.6835
H6B H 0.6540 0.6838 0.6436
H53B H 0.3827 0.1337 0.5395
H54B H 0.5104 0.1557 0.5793
H17B H 0.5939 0.0549 0.5863
H18B H 0.4309 0.0485 0.5899
H49B H 0.4354 -0.1804 0.5093
H50B H 0.3079 -0.1407 0.4808
H47B H 0.2243 -0.1122 0.5653
H48B H 0.2892 -0.0475 0.5875
C14B C 0.5311(4) -0.10785(17) 0.57775(14)
C13B C 0.4751(4) -0.15784(18) 0.61632(15)
H45B H 0.6215 -0.1244 0.5622
H46B H 0.5594 -0.0697 0.5973
N9B N 0.5946(4) -0.17665(16) 0.65373(12)
H43B H 0.4397 -0.1953 0.5972
H44B H 0.3911 -0.1404 0.6351
Ni2B_2 Ni 0.54524(5) -0.23916(2) 0.715460(18)
H13B H 0.6683 -0.1948 0.6354
H14B H 0.6328 -0.1405 0.6680
N5B N 0.3075(4) 0.75443(16) 0.70559(13)
N6B N 0.7724(4) 0.74313(19) 0.73821(14)
N7B N 0.4990(4) 0.71118(15) 0.78528(12)
N8B N 0.5280(4) 0.84152(16) 0.76608(14)
N9B_2 N 0.5946(4) 0.82335(16) 0.65373(12)
C8B C 0.3683(5) 0.6712(2) 0.77173(18)
C9B C 0.6370(5) 0.6741(2) 0.79834(17)
C11B C 0.4679(5) 0.7574(2) 0.82843(16)
H7B H 0.2840 0.7385 0.6737
H8B H 0.2667 0.7938 0.7078
C7B C 0.2449(5) 0.7122(2) 0.74660(18)
H11B H 0.4900 0.8753 0.7483
H12B H 0.6194 0.8523 0.7793
C12B C 0.4278(5) 0.8236(2) 0.80858(17)
H13B_2 H 0.6683 0.8052 0.6354
H14B_2 H 0.6328 0.8595 0.6680
H9B H 0.8258 0.7797 0.7376
H10B H 0.8139 0.7150 0.7162
C10B C 0.7728(5) 0.7166(3) 0.79183(17)
H31B H 0.1986 0.7382 0.7731
H32B H 0.1679 0.6847 0.7310
H33B H 0.3971 0.6378 0.7477
H34B H 0.3314 0.6510 0.8030
H37B H 0.8640 0.6920 0.7983
H38B H 0.7709 0.7514 0.8170
H41B H 0.4380 0.8543 0.8369
H42B H 0.3241 0.8241 0.7958
H35B H 0.6340 0.6589 0.8341
H36B H 0.6433 0.6372 0.7754
H39B H 0.3857 0.7411 0.8487
H40B H 0.5561 0.7603 0.8515
H15B H 0.7567 -0.0540 0.4883
H16B H 0.7632 -0.0235 0.5396
H51B H 0.8504 0.0648 0.5120
H52B H 0.9085 0.0202 0.4675
O5 O 0.4352(7) 0.0277(3) 0.2981(3)
O6 O 0.7505(9) 0.5987(4) 0.3720(3)
O7 O 0.1236(16) 0.1332(7) 0.2250(6)
O8 O 0.2882(15) -0.0147(6) 0.1948(5)
loop_
_geom_bond_atom_site_label_1
_geom_bond_atom_site_label_2
_geom_bond_site_symmetry_1
_geom_bond_site_symmetry_2
Mo1 S1 1_555 1_555
Mo2 S3 1_555 1_555
Mo3 S7 1_555 1_555
Mo4 S9 1_555 1_555
Ni1 N1 1_555 1_555
Ni2 N4 1_555 1_555
Ni3 N10 1_555 1_555
S1 S2 1_555 1_555
S2 Mo1 1_555 1_555
S3 Mo1 1_555 1_555
S4 Mo1 1_555 1_555
S5 Mo2 1_555 1_555
S6 Mo2 1_555 1_555
S7 S8 1_555 1_555
S8 Mo3 1_555 1_555
S9 Mo3 1_555 1_555
S10 Mo3 1_555 1_555
S11 Mo4 1_555 1_555
S12 Mo4 1_555 1_555
O1 Mo1 1_555 1_555
O2 Mo2 1_555 1_555
O3 Mo3 1_555 1_555
O4 Mo4 1_555 1_555
N1 H1 1_555 1_555
H2 N1 1_555 1_555
N2 Ni1 1_555 1_555
H3 N2 1_555 1_555
H4 N2 1_555 1_555
N3 Ni1 1_555 1_555
N4 H5 1_555 1_555
H6 N4 1_555 1_555
N5 Ni2 1_555 1_555
H7 N5 1_555 1_555
H8 N5 1_555 1_555
N6 Ni2 1_555 1_555
H9 N6 1_555 1_555
H10 N6 1_555 1_555
N7 Ni2 1_555 1_555
N8 Ni2 1_555 1_555
H11 N8 1_555 1_555
H12 N8 1_555 1_555
N9 Ni2 1_555 1_555
H13 N9 1_555 1_555
H14 N9 1_555 1_555
N10 C14 1_555 1_555
N11 Ni3 1_555 1_555
H15 N11 1_555 1_555
H16 N11 1_555 1_555
N12 Ni3 1_555 1_555
H17 N12 1_555 1_555
H18 N12 1_555 1_555
C1 N1 1_555 1_555
H19 C1 1_555 1_555
H20 C1 1_555 1_555
C2 N2 1_555 1_555
H21 C2 1_555 1_555
H22 C2 1_555 1_555
C3 N3 1_555 1_555
H23 C3 1_555 1_555
H24 C3 1_555 1_555
C4 N3 1_555 1_555
H25 C4 1_555 1_555
H26 C4 1_555 1_555
C5 N3 1_555 1_555
H27 C5 1_555 1_555
H28 C5 1_555 1_555
C6 N4 1_555 1_555
H29 C6 1_555 1_555
H30 C6 1_555 1_555
C7 N5 1_555 1_555
H31 C7 1_555 1_555
H32 C7 1_555 1_555
C8 N7 1_555 1_555
H33 C8 1_555 1_555
H34 C8 1_555 1_555
C9 N7 1_555 1_555
H35 C9 1_555 1_555
H36 C9 1_555 1_555
C10 N6 1_555 1_555
H37 C10 1_555 1_555
H38 C10 1_555 1_555
C11 N7 1_555 1_555
H39 C11 1_555 1_555
H40 C11 1_555 1_555
C12 N8 1_555 1_555
H41 C12 1_555 1_555
H42 C12 1_555 1_555
C13 N9 1_555 1_555
H43 C13 1_555 1_555
H44 C13 1_555 1_555
C14 C13 1_555 1_555
H45 C14 1_555 1_555
H46 C14 1_555 1_555
C15 N10 1_555 1_555
H47 C15 1_555 1_555
H48 C15 1_555 1_555
C16 N10 1_555 1_555
H49 C16 1_555 1_555
H50 C16 1_555 1_555
C17 N11 1_555 1_555
H51 C17 1_555 1_555
H52 C17 1_555 1_555
C18 N12 1_555 1_555
H53 C18 1_555 1_555
H54 C18 1_555 1_555
N1B Ni1 1_555 1_555
N2B Ni1 1_555 1_555
N3B Ni1 1_555 1_555
N10B Ni3 1_555 1_555
N11B Ni3 1_555 1_555
N12B Ni3 1_555 1_555
C3B C1 1_555 1_555
C4B C2 1_555 1_555
C1B C3 1_555 1_555
C2B C4 1_555 1_555
C17B C15 1_555 1_555
C18B C16 1_555 1_555
C15B C17 1_555 1_555
C16B C18 1_555 1_555
H1B N1B 1_555 1_555
H2B N1B 1_555 1_555
H19B C1B 1_555 1_555
H20B C1B 1_555 1_555
H3B N2B 1_555 1_555
H4B N2B 1_555 1_555
H21B C2B 1_555 1_555
H22B C2B 1_555 1_555
H25B C4B 1_555 1_555
H26B C4B 1_555 1_555
H23B C3B 1_555 1_555
H24B C3B 1_555 1_555
C5B N3B 1_555 1_555
H27B C5B 1_555 1_555
H28B C5B 1_555 1_555
C6B C5B 1_555 1_555
N4B C6B 1_555 1_555
H29B C6B 1_555 1_555
H30B C6B 1_555 1_555
Ni2B N4B 1_555 1_555
H5B N4B 1_555 1_555
H6B N4B 1_555 1_555
H53B C18B 1_555 1_555
H54B C18B 1_555 1_555
H17B N12B 1_555 1_555
H18B N12B 1_555 1_555
H49B C16B 1_555 1_555
H50B C16B 1_555 1_555
H47B C15B 1_555 1_555
H48B C15B 1_555 1_555
C14B N10B 1_555 1_555
C13B C14B 1_555 1_555
H45B C14B 1_555 1_555
H46B C14B 1_555 1_555
N9B C13B 1_555 1_555
H43B C13B 1_555 1_555
H44B C13B 1_555 1_555
Ni2B_2 N9B 1_555 1_555
H13B N9B 1_555 1_555
H14B N9B 1_555 1_555
N5B Ni2B 1_555 1_555
N6B Ni2B 1_555 1_555
N7B Ni2B 1_555 1_555
N8B Ni2B 1_555 1_555
N9B_2 Ni2B 1_555 1_555
C8B N7B 1_555 1_555
C9B N7B 1_555 1_555
C11B N7B 1_555 1_555
H7B N5B 1_555 1_555
H8B N5B 1_555 1_555
C7B N5B 1_555 1_555
H11B N8B 1_555 1_555
H12B N8B 1_555 1_555
C12B N8B 1_555 1_555
H13B_2 N9B_2 1_555 1_555
H14B_2 N9B_2 1_555 1_555
H9B N6B 1_555 1_555
H10B N6B 1_555 1_555
C10B N6B 1_555 1_555
H31B C7B 1_555 1_555
H32B C7B 1_555 1_555
H33B C8B 1_555 1_555
H34B C8B 1_555 1_555
H37B C10B 1_555 1_555
H38B C10B 1_555 1_555
H41B C12B 1_555 1_555
H42B C12B 1_555 1_555
H35B C9B 1_555 1_555
H36B C9B 1_555 1_555
H39B C11B 1_555 1_555
H40B C11B 1_555 1_555
H15B N11B 1_555 1_555
H16B N11B 1_555 1_555
H51B C17B 1_555 1_555
H52B C17B 1_555 1_555
Mo2 S4 1_555 1_555
Mo4 S10 1_555 1_555
S5 S6 1_555 1_555
S11 S12 1_555 1_555
C5 C6 1_555 1_555
C7 C8 1_555 1_555
C9 C10 1_555 1_555
C11 C12 1_555 1_555
N1B C1B 1_555 1_555
N2B C2B 1_555 1_555
N3B C3B 1_555 1_555
N3B C4B 1_555 1_555
N10B C15B 1_555 1_555
N10B C16B 1_555 1_555
N11B C17B 1_555 1_555
N12B C18B 1_555 1_555
C8B C7B 1_555 1_555
C9B C10B 1_555 1_555
C11B C12B 1_555 1_555

#END
