
#######################################################################
#
#                 Cambridge Crystallographic Data Centre
#                                CCDC 
#
#######################################################################
#
# If this CIF has been generated from an entry in the Cambridge 
# Structural Database, then it will include bibliographic, chemical, 
# crystal, experimental, refinement or atomic coordinate data resulting 
# from the CCDC's data processing and validation procedures.
#
#######################################################################

data_RALPOK
_symmetry_cell_setting           orthorhombic
_symmetry_space_group_name_H-M   'P c a 21'
_symmetry_Int_Tables_number      29
_space_group_name_Hall           'P 2c -2ac'
loop_
_symmetry_equiv_pos_site_id
_symmetry_equiv_pos_as_xyz
1 x,y,z
2 -x,-y,1/2+z
3 1/2+x,-y,z
4 1/2-x,y,1/2+z
_cell_length_a                   11.750(2)
_cell_length_b                   7.410(2)
_cell_length_c                   33.842(7)
_cell_angle_alpha                90
_cell_angle_beta                 90
_cell_angle_gamma                90
_cell_volume                     2946.54
loop_
_atom_site_label
_atom_site_type_symbol
_atom_site_fract_x
_atom_site_fract_y
_atom_site_fract_z
Zn1 Zn 0.66576(4) 0.59178(8) 0.323031(17)
Br1 Br 0.92436(6) 0.01633(13) 0.17001(2)
S1 S 0.79589(11) 0.38313(19) 0.37642(5)
O1 O 0.6274(3) 0.4023(5) 0.28679(11)
N1 N 0.8028(3) 0.6530(6) 0.29375(12)
N2 N 0.7017(3) 0.8253(5) 0.35397(13)
N3 N 1.0151(4) 0.4247(6) 0.34711(14)
C1 C 0.6958(4) 0.3227(8) 0.26187(15)
C2 C 0.6574(4) 0.1747(8) 0.2406(2)
H1 H 0.5832 0.1355 0.2447
C3 C 0.7234(5) 0.0838(8) 0.21407(19)
H2 H 0.6942 -0.0146 0.2004
C4 C 0.8355(5) 0.1406(9) 0.20771(17)
C5 C 0.8764(4) 0.2870(8) 0.22697(15)
H3 H 0.9506 0.3251 0.2223
C6 C 0.8083(4) 0.3823(8) 0.25398(14)
C7 C 0.8542(4) 0.5470(8) 0.26954(16)
H4 H 0.9269 0.5797 0.2615
C8 C 0.8577(4) 0.8196(8) 0.30593(18)
H5 H 0.8340 0.9179 0.2889
H6 H 0.9397 0.8073 0.3039
C9 C 0.8246(4) 0.8588(7) 0.34780(18)
H7 H 0.8684 0.7828 0.3655
H8 H 0.8419 0.9836 0.3540
C10 C 0.6331(5) 0.9681(9) 0.3356(3)
H9 H 0.6557 1.0832 0.3460
H10 H 0.5541 0.9477 0.3413
H11 H 0.6447 0.9667 0.3075
C11 C 0.6781(5) 0.8246(10) 0.39641(19)
H12 H 0.6928 0.9423 0.4071
H13 H 0.7262 0.7377 0.4092
H14 H 0.5998 0.7935 0.4008
C12 C 0.9241(4) 0.4064(6) 0.35891(15)
Zn1B Zn 1.16576(4) 0.40822(8) 0.323031(17)
N3B N 0.5151(4) 0.5753(6) 0.34711(14)
Zn2 Zn 0.43190(4) 0.91672(8) 0.017316(17)
Br2 Br 0.67917(5) 1.54132(11) 0.16338(2)
S2 S 0.56244(11) 1.1272(2) -0.03568(5)
O2 O 0.3890(3) 1.1065(5) 0.05298(11)
N4 N 0.5687(3) 0.8648(6) 0.04772(12)
N5 N 0.4708(3) 0.6838(6) -0.01325(13)
N6 N 0.7803(4) 1.0735(6) -0.00715(15)
C13 C 0.4561(4) 1.1911(8) 0.07765(15)
C14 C 0.4140(5) 1.3448(9) 0.09701(16)
H15 H 0.3390 1.3797 0.0925
C15 C 0.4788(5) 1.4438(8) 0.12196(16)
H16 H 0.4483 1.5449 0.1343
C16 C 0.5913(4) 1.3943(8) 0.12909(15)
C17 C 0.6349(4) 1.2431(8) 0.11234(15)
H17 H 0.7091 1.2085 0.1181
C18 C 0.5689(4) 1.1371(8) 0.08613(15)
C19 C 0.6171(4) 0.9712(8) 0.07174(16)
H18 H 0.6891 0.9397 0.0807
C20 C 0.6258(4) 0.6962(8) 0.03607(17)
H19 H 0.6015 0.5983 0.0531
H20 H 0.7076 0.7095 0.0386
C21 C 0.5953(4) 0.6549(8) -0.00608(19)
H21 H 0.6390 0.7321 -0.0236
H22 H 0.6148 0.5306 -0.0120
C22 C 0.4518(5) 0.6858(9) -0.0563(2)
H23 H 0.4812 0.5767 -0.0677
H24 H 0.4900 0.7878 -0.0677
H25 H 0.3717 0.6942 -0.0615
C23 C 0.4024(5) 0.5406(9) 0.0060(3)
H26 H 0.4114 0.4295 -0.0082
H27 H 0.3236 0.5749 0.0060
H28 H 0.4278 0.5247 0.0327
C24 C 0.6914(4) 1.0975(6) -0.01873(15)
Zn2B Zn 0.93190(4) 1.08328(8) 0.017316(17)
N6B N 0.2803(4) 0.9265(6) -0.00715(15)
loop_
_geom_bond_atom_site_label_1
_geom_bond_atom_site_label_2
_geom_bond_site_symmetry_1
_geom_bond_site_symmetry_2
Zn1 S1 1_555 1_555
Zn2 S2 1_555 1_555
Br1 C4 1_555 1_555
Br2 C16 1_555 1_555
S1 C12 1_555 1_555
S2 C24 1_555 1_555
O1 Zn1 1_555 1_555
O2 Zn2 1_555 1_555
N1 Zn1 1_555 1_555
N2 Zn1 1_555 1_555
N3 C12 1_555 1_555
N4 Zn2 1_555 1_555
N5 Zn2 1_555 1_555
N6 C24 1_555 1_555
C1 O1 1_555 1_555
C2 C1 1_555 1_555
H1 C2 1_555 1_555
C3 C2 1_555 1_555
H2 C3 1_555 1_555
C4 C3 1_555 1_555
C5 C4 1_555 1_555
H3 C5 1_555 1_555
C6 C1 1_555 1_555
C7 N1 1_555 1_555
H4 C7 1_555 1_555
C8 N1 1_555 1_555
H5 C8 1_555 1_555
H6 C8 1_555 1_555
C9 N2 1_555 1_555
H7 C9 1_555 1_555
H8 C9 1_555 1_555
C10 N2 1_555 1_555
H9 C10 1_555 1_555
H10 C10 1_555 1_555
H11 C10 1_555 1_555
C11 N2 1_555 1_555
H12 C11 1_555 1_555
H13 C11 1_555 1_555
H14 C11 1_555 1_555
C13 O2 1_555 1_555
C14 C13 1_555 1_555
H15 C14 1_555 1_555
C15 C14 1_555 1_555
H16 C15 1_555 1_555
C16 C15 1_555 1_555
C17 C16 1_555 1_555
H17 C17 1_555 1_555
C18 C13 1_555 1_555
C19 N4 1_555 1_555
H18 C19 1_555 1_555
C20 N4 1_555 1_555
H19 C20 1_555 1_555
H20 C20 1_555 1_555
C21 N5 1_555 1_555
H21 C21 1_555 1_555
H22 C21 1_555 1_555
C22 N5 1_555 1_555
H23 C22 1_555 1_555
H24 C22 1_555 1_555
H25 C22 1_555 1_555
C23 N5 1_555 1_555
H26 C23 1_555 1_555
H27 C23 1_555 1_555
H28 C23 1_555 1_555
Zn1B N3 1_555 1_555
Zn2B N6 1_555 1_555
N3B Zn1 1_555 1_555
N6B Zn2 1_555 1_555
C5 C6 1_555 1_555
C6 C7 1_555 1_555
C8 C9 1_555 1_555
C17 C18 1_555 1_555
C18 C19 1_555 1_555
C20 C21 1_555 1_555

#END
