
#######################################################################
#
#                 Cambridge Crystallographic Data Centre
#                                CCDC 
#
#######################################################################
#
# If this CIF has been generated from an entry in the Cambridge 
# Structural Database, then it will include bibliographic, chemical, 
# crystal, experimental, refinement or atomic coordinate data resulting 
# from the CCDC's data processing and validation procedures.
#
#######################################################################

data_RALRON
_symmetry_cell_setting           triclinic
_symmetry_space_group_name_H-M   'P -1'
_symmetry_Int_Tables_number      2
_space_group_name_Hall           '-P 1'
loop_
_symmetry_equiv_pos_site_id
_symmetry_equiv_pos_as_xyz
1 x,y,z
2 -x,-y,-z
_cell_length_a                   8.3038(6)
_cell_length_b                   8.6157(7)
_cell_length_c                   9.9506(7)
_cell_angle_alpha                71.776(6)
_cell_angle_beta                 73.441(7)
_cell_angle_gamma                87.798(6)
_cell_volume                     647.139
loop_
_atom_site_label
_atom_site_type_symbol
_atom_site_fract_x
_atom_site_fract_y
_atom_site_fract_z
C1 C 0.7327(3) 0.8139(3) 0.3239(2)
H1 H 0.7600 0.7944 0.2334
C2 C 0.6245(3) 0.7886(3) 0.5515(2)
H2 H 0.5620 0.7489 0.6503
C3 C 0.7913(3) 0.9432(3) 0.3479(3)
H3 H 0.8652 1.0280 0.2784
C4 C 0.7471(4) 1.0380(3) 0.5705(3)
H4 H 0.8502 1.1029 0.5165
H5 H 0.7526 0.9761 0.6676
H6 H 0.6548 1.1085 0.5783
C5 C 0.5521(3) 0.3304(3) 0.7998(2)
H7 H 0.4376 0.3198 0.8487
C6 C 0.7865(3) 0.3912(3) 0.6321(3)
H8 H 0.8661 0.4315 0.5405
C7 C 0.8207(3) 0.3138(4) 0.7593(3)
H9 H 0.9268 0.2914 0.7719
C8 C 0.6449(5) 0.1821(6) 1.0224(4)
H10 H 0.524(5) 0.146(5) 1.070(5)
H11 H 0.670(5) 0.261(5) 1.058(5)
H12 H 0.711(6) 0.099(7) 1.023(8)
C9 C 0.8320(2) 0.4478(3) 0.1985(2)
C10 C 1.1098(3) 0.2902(3) 0.0608(2)
N1 N 0.6272(2) 0.7157(2) 0.45245(18)
N2 N 0.7219(2) 0.9259(2) 0.4929(2)
N3 N 0.6161(2) 0.4020(2) 0.65801(18)
N4 N 0.6717(3) 0.2741(3) 0.8660(2)
N5 N 0.7323(2) 0.4257(3) 0.30970(19)
N6 N 1.1758(4) 0.1715(4) 0.0895(3)
Cu1 Cu 0.5000 0.5000 0.5000
Pd1 Pd 1.0000 0.5000 0.0000
C1A C 0.2673(3) 0.1861(3) 0.6761(2)
H1A H 0.2400 0.2056 0.7666
C2A C 0.3755(3) 0.2114(3) 0.4485(2)
H2A H 0.4380 0.2511 0.3497
C3A C 0.2087(3) 0.0568(3) 0.6521(3)
H3A H 0.1348 -0.0280 0.7216
C4A C 0.2529(4) -0.0380(3) 0.4295(3)
H4A H 0.1498 -0.1029 0.4835
H5A H 0.2474 0.0239 0.3324
H6A H 0.3452 -0.1085 0.4217
C5A C 0.4479(3) 0.6696(3) 0.2002(2)
H7A H 0.5624 0.6802 0.1513
C6A C 0.2135(3) 0.6088(3) 0.3679(3)
H8A H 0.1339 0.5685 0.4595
C7A C 0.1793(3) 0.6862(4) 0.2407(3)
H9A H 0.0732 0.7086 0.2281
C8A C 0.3551(5) 0.8179(6) -0.0224(4)
H10A H 0.476(5) 0.854(5) -0.070(5)
H11A H 0.330(5) 0.739(5) -0.058(5)
H12A H 0.289(6) 0.901(7) -0.023(8)
C9A C 0.1680(2) 0.5522(3) 0.8015(2)
C9A_2 C 1.1680(2) 0.5522(3) -0.1985(2)
C10A C 0.8902(3) 0.7098(3) -0.0608(2)
N1A N 0.3728(2) 0.2843(2) 0.54755(18)
N2A N 0.2781(2) 0.0741(2) 0.5071(2)
N3A N 0.3839(2) 0.5980(2) 0.34199(18)
N4A N 0.3283(3) 0.7259(3) 0.1340(2)
N5A N 0.2677(2) 0.5743(3) 0.69030(19)
N6A N 0.8242(4) 0.8285(4) -0.0895(3)
Pd1_2 Pd 0.0000 0.5000 1.0000
loop_
_geom_bond_atom_site_label_1
_geom_bond_atom_site_label_2
_geom_bond_site_symmetry_1
_geom_bond_site_symmetry_2
C1 H1 1_555 1_555
C2 H2 1_555 1_555
C3 C1 1_555 1_555
H3 C3 1_555 1_555
C4 H4 1_555 1_555
H5 C4 1_555 1_555
H6 C4 1_555 1_555
C5 H7 1_555 1_555
C6 H8 1_555 1_555
C7 C6 1_555 1_555
H9 C7 1_555 1_555
C8 H10 1_555 1_555
H11 C8 1_555 1_555
H12 C8 1_555 1_555
C9 N5 1_555 1_555
C10 N6 1_555 1_555
N1 C1 1_555 1_555
N2 C2 1_555 1_555
N3 C5 1_555 1_555
N4 C5 1_555 1_555
N5 Cu1 1_555 1_555
Cu1 N1 1_555 1_555
Pd1 C9 1_555 1_555
C1A H1A 1_555 1_555
C2A H2A 1_555 1_555
C3A C1A 1_555 1_555
H3A C3A 1_555 1_555
C4A H4A 1_555 1_555
H5A C4A 1_555 1_555
H6A C4A 1_555 1_555
C5A H7A 1_555 1_555
C6A H8A 1_555 1_555
C7A C6A 1_555 1_555
H9A C7A 1_555 1_555
C8A H10A 1_555 1_555
H11A C8A 1_555 1_555
H12A C8A 1_555 1_555
C9A N5A 1_555 1_555
C9A_2 Pd1 1_555 1_555
C10A Pd1 1_555 1_555
N1A Cu1 1_555 1_555
N2A C2A 1_555 1_555
N3A Cu1 1_555 1_555
N4A C5A 1_555 1_555
N5A Cu1 1_555 1_555
N6A C10A 1_555 1_555
Pd1_2 C9A 1_555 1_555
C2 N1 1_555 1_555
C3 N2 1_555 1_555
C4 N2 1_555 1_555
C6 N3 1_555 1_555
C7 N4 1_555 1_555
C8 N4 1_555 1_555
C10 Pd1 1_555 1_555
N3 Cu1 1_555 1_555
C1A N1A 1_555 1_555
C2A N1A 1_555 1_555
C3A N2A 1_555 1_555
C4A N2A 1_555 1_555
C5A N3A 1_555 1_555
C6A N3A 1_555 1_555
C7A N4A 1_555 1_555
C8A N4A 1_555 1_555

#END
