
#######################################################################
#
#                 Cambridge Crystallographic Data Centre
#                                CCDC 
#
#######################################################################
#
# If this CIF has been generated from an entry in the Cambridge 
# Structural Database, then it will include bibliographic, chemical, 
# crystal, experimental, refinement or atomic coordinate data resulting 
# from the CCDC's data processing and validation procedures.
#
#######################################################################

data_RALVOR
_symmetry_cell_setting           monoclinic
_symmetry_space_group_name_H-M   'P 21/c'
_symmetry_Int_Tables_number      14
_space_group_name_Hall           '-P 2ybc'
loop_
_symmetry_equiv_pos_site_id
_symmetry_equiv_pos_as_xyz
1 x,y,z
2 -x,1/2+y,1/2-z
3 -x,-y,-z
4 x,1/2-y,1/2+z
_cell_length_a                   9.8481(8)
_cell_length_b                   9.4424(6)
_cell_length_c                   14.9648(13)
_cell_angle_alpha                90
_cell_angle_beta                 116.516(6)
_cell_angle_gamma                90
_cell_volume                     1245.19
loop_
_atom_site_label
_atom_site_type_symbol
_atom_site_fract_x
_atom_site_fract_y
_atom_site_fract_z
Ni1 Ni 0.00000 0.00000 0.00000
V1 V 0.13902(2) 0.10721(2) 0.267145(16)
V2 V -0.15115(2) -0.04078(2) 0.286420(17)
O1 O 0.06466(10) 0.05411(10) 0.14916(7)
O2 O 0.31238(10) 0.04177(11) 0.32715(8)
O3 O -0.18473(13) -0.06682(12) 0.38384(9)
O4 O 0.03063(13) 0.04690(14) 0.32829(9)
O5 O 0.14983(17) 0.29574(11) 0.27598(10)
O6 O -0.28702(15) 0.05873(15) 0.20771(10)
N1 N 0.21719(11) -0.11436(11) 0.03985(8)
N2 N 0.11939(12) 0.17220(11) -0.01464(9)
H1 H 0.0999 0.1828 -0.076
H2 H 0.1026 0.2579 0.0017
N3 N 0.39976(13) -0.37506(12) 0.11348(10)
H3 H 0.4904 -0.4159 0.1325
H4 H 0.329 -0.4389 0.1141
C1 C 0.28200(15) -0.16058(16) 0.14516(10)
H5 H 0.2058 -0.2149 0.1546
H6 H 0.3046 -0.0772 0.1873
C2 C 0.28265(16) 0.13945(16) 0.04358(14)
H7 H 0.3423 0.2065 0.0267
H8 H 0.3114 0.1485 0.1143
C3 C 0.34053(17) -0.33015(18) 0.00734(12)
H9 H 0.3187 -0.413 -0.0352
H10 H 0.4166 -0.2742 -0.0011
C4 C 0.19663(16) -0.24284(17) -0.02306(11)
H11 H 0.1606 -0.2136 -0.092
H12 H 0.119 -0.3023 -0.0193
C5 C 0.42564(16) -0.24986(16) 0.17996(11)
H13 H 0.5072 -0.1926 0.1796
H14 H 0.4559 -0.2817 0.2478
C6 C 0.31533(17) -0.00840(17) 0.02151(14)
H15 H 0.2974 -0.0142 -0.0476
H16 H 0.4212 -0.0306 0.0635
V1B V -0.13902(2) -0.10721(2) -0.267145(16)
V2B V 0.15115(2) 0.04078(2) -0.286420(17)
V2A V 0.15115(2) 0.45922(2) 0.213580(17)
V2C V -0.15115(2) -0.45922(2) -0.213580(17)
O1B O -0.06466(10) -0.05411(10) -0.14916(7)
O2B O -0.31238(10) -0.04177(11) -0.32715(8)
O3B O 0.18473(13) 0.06682(12) -0.38384(9)
O4B O -0.03063(13) -0.04690(14) -0.32829(9)
O5B O -0.14983(17) -0.29574(11) -0.27598(10)
O5A O -0.14983(17) -0.20426(11) 0.22402(10)
O5C O 0.14983(17) 0.20426(11) -0.22402(10)
O6B O 0.28702(15) -0.05873(15) -0.20771(10)
N1B N -0.21719(11) 0.11436(11) -0.03985(8)
N2B N -0.11939(12) -0.17220(11) 0.01464(9)
H1B H -0.0999 -0.1828 0.076
H2B H -0.1026 -0.2579 -0.0017
N3B N -0.39976(13) 0.37506(12) -0.11348(10)
H3B H -0.4904 0.4159 -0.1325
H4B H -0.329 0.4389 -0.1141
C1B C -0.28200(15) 0.16058(16) -0.14516(10)
H5B H -0.2058 0.2149 -0.1546
H6B H -0.3046 0.0772 -0.1873
C2B C -0.28265(16) -0.13945(16) -0.04358(14)
H7B H -0.3423 -0.2065 -0.0267
H8B H -0.3114 -0.1485 -0.1143
C3B C -0.34053(17) 0.33015(18) -0.00734(12)
H9B H -0.3187 0.413 0.0352
H10B H -0.4166 0.2742 0.0011
C4B C -0.19663(16) 0.24284(17) 0.02306(11)
H11B H -0.1606 0.2136 0.092
H12B H -0.119 0.3023 0.0193
C5B C -0.42564(16) 0.24986(16) -0.17996(11)
H13B H -0.5072 0.1926 -0.1796
H14B H -0.4559 0.2817 -0.2478
C6B C -0.31533(17) 0.00840(17) -0.02151(14)
H15B H -0.2974 0.0142 0.0476
H16B H -0.4212 0.0306 -0.0635
loop_
_geom_bond_atom_site_label_1
_geom_bond_atom_site_label_2
_geom_bond_site_symmetry_1
_geom_bond_site_symmetry_2
Ni1 O1 1_555 1_555
V1 O1 1_555 1_555
V2 O3 1_555 1_555
O2 V1 1_555 1_555
O4 V1 1_555 1_555
O5 V1 1_555 1_555
O6 V2 1_555 1_555
N1 Ni1 1_555 1_555
N2 Ni1 1_555 1_555
H1 N2 1_555 1_555
H2 N2 1_555 1_555
N3 H3 1_555 1_555
H4 N3 1_555 1_555
C1 N1 1_555 1_555
H5 C1 1_555 1_555
H6 C1 1_555 1_555
C2 N2 1_555 1_555
H7 C2 1_555 1_555
H8 C2 1_555 1_555
C3 N3 1_555 1_555
H9 C3 1_555 1_555
H10 C3 1_555 1_555
C4 N1 1_555 1_555
H11 C4 1_555 1_555
H12 C4 1_555 1_555
C5 N3 1_555 1_555
H13 C5 1_555 1_555
H14 C5 1_555 1_555
C6 N1 1_555 1_555
H15 C6 1_555 1_555
H16 C6 1_555 1_555
V1B O1B 1_555 1_555
V2B O3B 1_555 1_555
V2A O5 1_555 1_555
V2C O5B 1_555 1_555
O1B Ni1 1_555 1_555
O2B V1B 1_555 1_555
O4B V1B 1_555 1_555
O5B V1B 1_555 1_555
O5A V2 1_555 1_555
O5C V2B 1_555 1_555
O6B V2B 1_555 1_555
N1B Ni1 1_555 1_555
N2B Ni1 1_555 1_555
H1B N2B 1_555 1_555
H2B N2B 1_555 1_555
N3B H3B 1_555 1_555
H4B N3B 1_555 1_555
C1B N1B 1_555 1_555
H5B C1B 1_555 1_555
H6B C1B 1_555 1_555
C2B N2B 1_555 1_555
H7B C2B 1_555 1_555
H8B C2B 1_555 1_555
C3B N3B 1_555 1_555
H9B C3B 1_555 1_555
H10B C3B 1_555 1_555
C4B N1B 1_555 1_555
H11B C4B 1_555 1_555
H12B C4B 1_555 1_555
C5B N3B 1_555 1_555
H13B C5B 1_555 1_555
H14B C5B 1_555 1_555
C6B N1B 1_555 1_555
H15B C6B 1_555 1_555
H16B C6B 1_555 1_555
V2 O4 1_555 1_555
C1 C5 1_555 1_555
C2 C6 1_555 1_555
C3 C4 1_555 1_555
V2B O4B 1_555 1_555
C1B C5B 1_555 1_555
C2B C6B 1_555 1_555
C3B C4B 1_555 1_555

#END
