
#######################################################################
#
#                 Cambridge Crystallographic Data Centre
#                                CCDC 
#
#######################################################################
#
# If this CIF has been generated from an entry in the Cambridge 
# Structural Database, then it will include bibliographic, chemical, 
# crystal, experimental, refinement or atomic coordinate data resulting 
# from the CCDC's data processing and validation procedures.
#
#######################################################################

data_RALYIO
_symmetry_cell_setting           monoclinic
_symmetry_space_group_name_H-M   'P 21/c'
_symmetry_Int_Tables_number      14
_space_group_name_Hall           '-P 2ybc'
loop_
_symmetry_equiv_pos_site_id
_symmetry_equiv_pos_as_xyz
1 x,y,z
2 -x,1/2+y,1/2-z
3 -x,-y,-z
4 x,1/2-y,1/2+z
_cell_length_a                   7.2227(7)
_cell_length_b                   26.181(2)
_cell_length_c                   14.2067(12)
_cell_angle_alpha                90
_cell_angle_beta                 106.151(4)
_cell_angle_gamma                90
_cell_volume                     2580.42
loop_
_atom_site_label
_atom_site_type_symbol
_atom_site_fract_x
_atom_site_fract_y
_atom_site_fract_z
Co1 Co 0.66941(5) 0.001553(12) 0.77120(2)
Co2 Co 0.5000 0.0000 1.0000
Co3 Co 0.5000 0.5000 1.0000
C1 C 0.6913(4) -0.08824(9) 0.91140(19)
C2 C 0.7281(4) -0.14442(9) 0.93230(19)
C3 C 0.6934(4) -0.17980(10) 0.8561(2)
H1 H 0.6561 -0.1685 0.7915
C4 C 0.7137(5) -0.23127(10) 0.8753(2)
H2 H 0.6882 -0.2542 0.8232
C5 C 0.7713(4) -0.25004(9) 0.9708(2)
C6 C 0.8125(4) -0.21445(10) 1.0466(2)
H3 H 0.8557 -0.2257 1.1111
C7 C 0.7903(4) -0.16242(10) 1.0275(2)
H4 H 0.8175 -0.1394 1.0794
C8 C 0.7801(4) -0.30588(9) 0.9899(2)
C9 C 0.8066(4) -0.34102(10) 0.9211(2)
H5 H 0.8264 -0.3292 0.8629
C10 C 0.8042(4) -0.39242(10) 0.9372(2)
H6 H 0.8234 -0.4150 0.8903
C11 C 0.7522(4) -0.37861(10) 1.0899(2)
H7 H 0.7346 -0.3915 1.1478
C12 C 0.7556(5) -0.32665(10) 1.0755(2)
H8 H 0.7411 -0.3048 1.1246
C13 C 0.6720(4) 0.40929(9) 1.13939(19)
C14 C 0.7144(4) 0.35333(9) 1.13043(19)
C15 C 0.7205(4) 0.33357(9) 1.0415(2)
H9 H 0.7075 0.3553 0.9882
C16 C 0.7460(4) 0.28176(9) 1.0307(2)
H10 H 0.7504 0.2692 0.9702
C17 C 0.7649(4) 0.24808(9) 1.1083(2)
C18 C 0.7659(5) 0.26886(10) 1.1987(2)
H11 H 0.7833 0.2475 1.2527
C19 C 0.7415(5) 0.32055(10) 1.2096(2)
H12 H 0.7433 0.3335 1.2708
C20 C 0.7745(4) 0.19223(9) 1.09368(19)
C21 C 0.7139(5) 0.17119(10) 1.0006(2)
H13 H 0.6716 0.1927 0.9468
C22 C 0.7146(5) 0.11936(10) 0.9859(2)
H14 H 0.6740 0.1060 0.9229
C23 C 0.8354(4) 0.10621(10) 1.1541(2)
H15 H 0.8775 0.0839 1.2066
C24 C 0.8364(5) 0.15788(10) 1.1702(2)
H16 H 0.8796 0.1702 1.2340
O1 O 0.6919(3) -0.07279(6) 0.82814(13)
O2 O 0.6602(3) -0.06259(6) 0.98027(13)
O3 O 0.7690(3) -0.46110(6) 1.03192(13)
O4 O 0.6566(3) 0.42436(6) 1.22005(13)
O5 O 0.6530(3) 0.43557(6) 1.06329(13)
O6 O 0.7700(3) 0.03706(6) 1.04890(12)
O7 O 0.8970(3) 0.02622(7) 0.88999(13)
H17 H 1.0030 0.0106 0.8972
H18 H 0.8660 0.0269 0.9484
O8 O 0.9139(3) -0.01289(7) 0.71623(13)
H19 H 0.9911 0.0120 0.7215
H20 H 0.8633 -0.0176 0.6548
N1 N 0.7745(3) -0.41055(8) 1.02001(16)
N2 N 0.7744(3) 0.08808(7) 1.06330(15)
N3 N 0.5302(3) -0.02321(8) 1.14728(15)
N4 N 0.6687(4) -0.04830(8) 1.18740(16)
N5 N 0.8020(4) -0.07252(11) 1.22536(18)
N6 N 0.4715(4) -0.02404(8) 0.63990(16)
N7 N 0.3545(4) -0.05646(9) 0.64225(16)
N8 N 0.2443(5) -0.08790(12) 0.6447(2)
Co1B Co 0.33059(5) -0.001553(12) 1.22880(2)
Co1C Co 0.66941(5) 0.498447(12) 1.27120(2)
Co1A Co 0.33059(5) -0.498447(12) 0.72880(2)
Co1A_2 Co 0.33059(5) 0.501553(12) 0.72880(2)
Co3_2 Co 0.5000 -0.5000 1.0000
Co3A Co 0.5000 0.0000 0.5000
C1B C 0.3087(4) 0.08824(9) 1.08860(19)
C2B C 0.2719(4) 0.14442(9) 1.06770(19)
C3B C 0.3066(4) 0.17980(10) 1.1439(2)
H1B H 0.3439 0.1685 1.2085
C4B C 0.2863(5) 0.23127(10) 1.1247(2)
H2B H 0.3118 0.2542 1.1768
C5B C 0.2287(4) 0.25004(9) 1.0292(2)
C6B C 0.1875(4) 0.21445(10) 0.9534(2)
H3B H 0.1443 0.2257 0.8889
C7B C 0.2097(4) 0.16242(10) 0.9725(2)
H4B H 0.1825 0.1394 0.9206
C8B C 0.2199(4) 0.30588(9) 1.0101(2)
C9B C 0.1934(4) 0.34102(10) 1.0789(2)
H5B H 0.1736 0.3292 1.1371
C10B C 0.1958(4) 0.39242(10) 1.0628(2)
H6B H 0.1766 0.4150 1.1097
C11B C 0.2478(4) 0.37861(10) 0.9101(2)
H7B H 0.2654 0.3915 0.8522
C12B C 0.2444(5) 0.32665(10) 0.9245(2)
H8B H 0.2589 0.3048 0.8754
C13B C 0.3280(4) -0.40929(9) 0.86061(19)
C14B C 0.2856(4) -0.35333(9) 0.86957(19)
C15B C 0.2795(4) -0.33357(9) 0.9585(2)
H9B H 0.2925 -0.3553 1.0118
C16B C 0.2540(4) -0.28176(9) 0.9693(2)
H10B H 0.2496 -0.2692 1.0298
C17B C 0.2351(4) -0.24808(9) 0.8917(2)
C18B C 0.2341(5) -0.26886(10) 0.8013(2)
H11B H 0.2167 -0.2475 0.7473
C19B C 0.2585(5) -0.32055(10) 0.7904(2)
H12B H 0.2567 -0.3335 0.7292
C20B C 0.2255(4) -0.19223(9) 0.90632(19)
C21B C 0.2861(5) -0.17119(10) 0.9994(2)
H13B H 0.3284 -0.1927 1.0532
C22B C 0.2854(5) -0.11936(10) 1.0141(2)
H14B H 0.3260 -0.1060 1.0771
C23B C 0.1646(4) -0.10621(10) 0.8459(2)
H15B H 0.1225 -0.0839 0.7934
C24B C 0.1636(5) -0.15788(10) 0.8298(2)
H16B H 0.1204 -0.1702 0.7660
O1B O 0.3081(3) 0.07279(6) 1.17186(13)
O2B O 0.3398(3) 0.06259(6) 1.01973(13)
O3B O 0.2310(3) 0.46110(6) 0.96808(13)
O3_2 O 0.7690(3) 0.53890(6) 1.03192(13)
O4B O 0.3434(3) -0.42436(6) 0.77995(13)
O4C O 0.6566(3) 0.07564(6) 0.72005(13)
O4A O 0.3434(3) -0.07564(6) 1.27995(13)
O5B O 0.3470(3) -0.43557(6) 0.93671(13)
O5B_2 O 0.3470(3) 0.56443(6) 0.93671(13)
O6B O 0.2300(3) -0.03706(6) 0.95110(12)
O7B O 0.1030(3) -0.02622(7) 1.11001(13)
H17B H -0.0030 -0.0106 1.1028
H18B H 0.1340 -0.0269 1.0516
O8B O 0.0861(3) 0.01289(7) 1.28377(13)
H19B H 0.0089 -0.0120 1.2785
H20B H 0.1367 0.0176 1.3452
N1B N 0.2255(3) 0.41055(8) 0.97999(16)
N2B N 0.2256(3) -0.08808(7) 0.93670(15)
N3B N 0.4698(3) 0.02321(8) 0.85272(15)
N4B N 0.3313(4) 0.04830(8) 0.81260(16)
N5B N 0.1980(4) 0.07252(11) 0.77464(18)
N6A N 0.5285(4) 0.47596(8) 0.86010(16)
N6C N 0.4715(4) 0.52404(8) 1.13990(16)
N6B N 0.5285(4) 0.02404(8) 1.36010(16)
N7A N 0.6455(4) 0.44354(9) 0.85775(16)
N8A N 0.7557(5) 0.41210(12) 0.8553(2)
loop_
_geom_bond_atom_site_label_1
_geom_bond_atom_site_label_2
_geom_bond_site_symmetry_1
_geom_bond_site_symmetry_2
Co1 O1 1_555 1_555
Co2 O2 1_555 1_555
Co3 O5 1_555 1_555
C1 C2 1_555 1_555
C2 C3 1_555 1_555
C3 H1 1_555 1_555
C4 C3 1_555 1_555
H2 C4 1_555 1_555
C5 C4 1_555 1_555
C6 C5 1_555 1_555
H3 C6 1_555 1_555
C7 C2 1_555 1_555
H4 C7 1_555 1_555
C8 C5 1_555 1_555
C9 C8 1_555 1_555
H5 C9 1_555 1_555
C10 C9 1_555 1_555
H6 C10 1_555 1_555
C11 H7 1_555 1_555
C12 C8 1_555 1_555
H8 C12 1_555 1_555
C13 C14 1_555 1_555
C14 C15 1_555 1_555
C15 H9 1_555 1_555
C16 C15 1_555 1_555
H10 C16 1_555 1_555
C17 C16 1_555 1_555
C18 C17 1_555 1_555
H11 C18 1_555 1_555
C19 C14 1_555 1_555
H12 C19 1_555 1_555
C20 C17 1_555 1_555
C21 C20 1_555 1_555
H13 C21 1_555 1_555
C22 C21 1_555 1_555
H14 C22 1_555 1_555
C23 H15 1_555 1_555
C24 C20 1_555 1_555
H16 C24 1_555 1_555
O1 C1 1_555 1_555
O2 C1 1_555 1_555
O3 N1 1_555 1_555
O4 C13 1_555 1_555
O5 C13 1_555 1_555
O6 Co2 1_555 1_555
O7 Co1 1_555 1_555
H17 O7 1_555 1_555
H18 O7 1_555 1_555
O8 Co1 1_555 1_555
H19 O8 1_555 1_555
H20 O8 1_555 1_555
N1 C10 1_555 1_555
N2 C22 1_555 1_555
N3 Co2 1_555 1_555
N4 N3 1_555 1_555
N5 N4 1_555 1_555
N6 Co1 1_555 1_555
N7 N6 1_555 1_555
N8 N7 1_555 1_555
Co1B N3 1_555 1_555
Co1C O4 1_555 1_555
Co1A O4B 1_555 1_555
Co1A_2 N6A 1_555 1_555
Co3_2 O3 1_555 1_555
Co3A N6 1_555 1_555
C1B C2B 1_555 1_555
C2B C3B 1_555 1_555
C3B H1B 1_555 1_555
C4B C3B 1_555 1_555
H2B C4B 1_555 1_555
C5B C4B 1_555 1_555
C6B C5B 1_555 1_555
H3B C6B 1_555 1_555
C7B C2B 1_555 1_555
H4B C7B 1_555 1_555
C8B C5B 1_555 1_555
C9B C8B 1_555 1_555
H5B C9B 1_555 1_555
C10B C9B 1_555 1_555
H6B C10B 1_555 1_555
C11B H7B 1_555 1_555
C12B C8B 1_555 1_555
H8B C12B 1_555 1_555
C13B C14B 1_555 1_555
C14B C15B 1_555 1_555
C15B H9B 1_555 1_555
C16B C15B 1_555 1_555
H10B C16B 1_555 1_555
C17B C16B 1_555 1_555
C18B C17B 1_555 1_555
H11B C18B 1_555 1_555
C19B C14B 1_555 1_555
H12B C19B 1_555 1_555
C20B C17B 1_555 1_555
C21B C20B 1_555 1_555
H13B C21B 1_555 1_555
C22B C21B 1_555 1_555
H14B C22B 1_555 1_555
C23B H15B 1_555 1_555
C24B C20B 1_555 1_555
H16B C24B 1_555 1_555
O1B Co1B 1_555 1_555
O2B Co2 1_555 1_555
O3B Co3 1_555 1_555
O3_2 Co3 1_555 1_555
O4B C13B 1_555 1_555
O4C Co1 1_555 1_555
O4A Co1B 1_555 1_555
O5B Co3_2 1_555 1_555
O5B_2 Co3 1_555 1_555
O6B Co2 1_555 1_555
O7B Co1B 1_555 1_555
H17B O7B 1_555 1_555
H18B O7B 1_555 1_555
O8B Co1B 1_555 1_555
H19B O8B 1_555 1_555
H20B O8B 1_555 1_555
N1B C10B 1_555 1_555
N2B C22B 1_555 1_555
N3B Co1 1_555 1_555
N4B N3B 1_555 1_555
N5B N4B 1_555 1_555
N6A Co3 1_555 1_555
N6C Co3 1_555 1_555
N6B Co1B 1_555 1_555
N7A N6A 1_555 1_555
N8A N7A 1_555 1_555
Co2 N3B 1_555 1_555
C6 C7 1_555 1_555
C11 C12 1_555 1_555
C11 N1 1_555 1_555
C18 C19 1_555 1_555
C23 C24 1_555 1_555
C23 N2 1_555 1_555
O6 N2 1_555 1_555
Co1C N6C 1_555 1_555
C1B O1B 1_555 1_555
C1B O2B 1_555 1_555
C6B C7B 1_555 1_555
C11B C12B 1_555 1_555
C11B N1B 1_555 1_555
C13B O5B 1_555 1_555
C18B C19B 1_555 1_555
C23B C24B 1_555 1_555
C23B N2B 1_555 1_555
O3B N1B 1_555 1_555
O6B N2B 1_555 1_555

#END
