
#######################################################################
#
#                 Cambridge Crystallographic Data Centre
#                                CCDC 
#
#######################################################################
#
# If this CIF has been generated from an entry in the Cambridge 
# Structural Database, then it will include bibliographic, chemical, 
# crystal, experimental, refinement or atomic coordinate data resulting 
# from the CCDC's data processing and validation procedures.
#
#######################################################################

data_RAMDUF
_symmetry_cell_setting           monoclinic
_symmetry_space_group_name_H-M   'P 21/n'
_symmetry_Int_Tables_number      14
_space_group_name_Hall           '-P 2yn'
loop_
_symmetry_equiv_pos_site_id
_symmetry_equiv_pos_as_xyz
1 x,y,z
2 1/2-x,1/2+y,1/2-z
3 -x,-y,-z
4 1/2+x,1/2-y,1/2+z
_cell_length_a                   5.5708(8)
_cell_length_b                   8.4812(11)
_cell_length_c                   25.313(4)
_cell_angle_alpha                90
_cell_angle_beta                 90.496(3)
_cell_angle_gamma                90
_cell_volume                     1195.92
loop_
_atom_site_label
_atom_site_type_symbol
_atom_site_fract_x
_atom_site_fract_y
_atom_site_fract_z
Mn1 Mn 0.78838(15) 0.26409(10) -0.03840(3)
P1 P 0.7867(3) -0.12106(17) -0.04885(5)
P2 P 0.2881(3) -0.54442(17) -0.07537(6)
N1 N 0.3971(8) -0.2357(5) -0.10599(17)
H1 H 0.3382 -0.2179 -0.0731
C1 C 0.4256(11) -0.0959(7) -0.1943(2)
C2 C 0.6337(12) -0.0147(8) -0.2058(2)
H2 H 0.7116 0.0417 -0.1792
C3 C 0.7286(13) -0.0159(9) -0.2563(3)
H3 H 0.8674 0.0406 -0.2637
C4 C 0.6155(13) -0.1013(9) -0.2955(3)
H4 H 0.6820 -0.1064 -0.3290
C5 C 0.4049(15) -0.1790(9) -0.2852(3)
H5 H 0.3249 -0.2328 -0.3121
C6 C 0.3108(13) -0.1770(8) -0.2341(3)
H6 H 0.1695 -0.2311 -0.2270
C7 C 0.3303(11) -0.0903(7) -0.1386(2)
H7 H 0.3930 0.0028 -0.1211
H8 H 0.1568 -0.0809 -0.1401
C8 C 0.6643(9) -0.2572(7) -0.0988(2)
H9 H 0.6970 -0.3649 -0.0880
H10 H 0.7435 -0.2390 -0.1322
C9 C 0.2821(10) -0.3854(6) -0.1246(2)
H11 H 0.1165 -0.3637 -0.1343
H12 H 0.3638 -0.4212 -0.1561
O1 O 0.7993(7) 0.0406(4) -0.07341(15)
O2 O 1.0236(7) -0.1901(5) -0.03225(14)
O3 O 0.5934(7) -0.1310(4) -0.00557(15)
H13 H 0.5309 -0.0443 -0.0018
O4 O 0.3155(7) -0.4581(4) -0.02107(14)
O5 O 0.0520(7) -0.6248(5) -0.08129(15)
O6 O 0.5098(7) -0.6398(4) -0.08606(14)
Mn1B Mn 1.21162(15) -0.26409(10) 0.03840(3)
Mn1B_2 Mn 0.21162(15) -0.26409(10) 0.03840(3)
Mn1_2 Mn -0.21162(15) -0.73591(10) -0.03840(3)
Mn1_3 Mn 0.78838(15) -0.73591(10) -0.03840(3)
O2B O 0.9764(7) 0.1901(5) 0.03225(14)
O4B O 0.6845(7) 0.4581(4) 0.02107(14)
O5_2 O 1.0520(7) 0.3752(5) -0.08129(15)
O6_2 O 0.5098(7) 0.3602(4) -0.08606(14)
loop_
_geom_bond_atom_site_label_1
_geom_bond_atom_site_label_2
_geom_bond_site_symmetry_1
_geom_bond_site_symmetry_2
Mn1 O1 1_555 1_555
P1 C8 1_555 1_555
P2 C9 1_555 1_555
N1 H1 1_555 1_555
C1 C2 1_555 1_555
C2 H2 1_555 1_555
C3 C2 1_555 1_555
H3 C3 1_555 1_555
C4 C3 1_555 1_555
H4 C4 1_555 1_555
C5 C4 1_555 1_555
H5 C5 1_555 1_555
C6 C1 1_555 1_555
H6 C6 1_555 1_555
C7 N1 1_555 1_555
H7 C7 1_555 1_555
H8 C7 1_555 1_555
C8 N1 1_555 1_555
H9 C8 1_555 1_555
H10 C8 1_555 1_555
C9 N1 1_555 1_555
H11 C9 1_555 1_555
H12 C9 1_555 1_555
O1 P1 1_555 1_555
O2 P1 1_555 1_555
O3 P1 1_555 1_555
H13 O3 1_555 1_555
O4 P2 1_555 1_555
O5 P2 1_555 1_555
O6 P2 1_555 1_555
Mn1B O2 1_555 1_555
Mn1B_2 O4 1_555 1_555
Mn1_2 O5 1_555 1_555
Mn1_3 O6 1_555 1_555
O2B Mn1 1_555 1_555
O4B Mn1 1_555 1_555
O5_2 Mn1 1_555 1_555
O6_2 Mn1 1_555 1_555
C1 C7 1_555 1_555
C5 C6 1_555 1_555

#END
