
#######################################################################
#
#                 Cambridge Crystallographic Data Centre
#                                CCDC 
#
#######################################################################
#
# If this CIF has been generated from an entry in the Cambridge 
# Structural Database, then it will include bibliographic, chemical, 
# crystal, experimental, refinement or atomic coordinate data resulting 
# from the CCDC's data processing and validation procedures.
#
#######################################################################

data_RAMDOZ
_symmetry_cell_setting           monoclinic
_symmetry_space_group_name_H-M   'P 21/c'
_symmetry_Int_Tables_number      14
_space_group_name_Hall           '-P 2ybc'
loop_
_symmetry_equiv_pos_site_id
_symmetry_equiv_pos_as_xyz
1 x,y,z
2 -x,1/2+y,1/2-z
3 -x,-y,-z
4 x,1/2-y,1/2+z
_cell_length_a                   10.581(2)
_cell_length_b                   17.872(3)
_cell_length_c                   9.8010(10)
_cell_angle_alpha                90.00
_cell_angle_beta                 95.730(10)
_cell_angle_gamma                90.00
_cell_volume                     1844.14
loop_
_atom_site_label
_atom_site_type_symbol
_atom_site_fract_x
_atom_site_fract_y
_atom_site_fract_z
Zn1 Zn 1.16511(2) 0.724610(14) 0.38235(2)
Zn2 Zn 1.17068(2) 0.320075(13) 0.30079(2)
Ni1 Ni 1.5000 0.5000 0.5000
C1 C 1.3782(2) 0.42853(12) 0.4425(2)
N1 N 1.30631(17) 0.38312(10) 0.40387(18)
C2 C 1.6109(2) 0.45081(12) 0.3929(2)
N2 N 1.67696(18) 0.41834(11) 0.32730(19)
N5 N 1.09673(16) 0.39143(9) 0.15319(17)
H1 H 1.1372 0.3829 0.0758
H2 H 1.0126 0.3791 0.1321
C5 C 1.1034(2) 0.47278(12) 0.1825(2)
H3 H 1.0718 0.5007 0.0987
H4 H 1.1932 0.4872 0.2071
C6 C 1.0257(2) 0.49441(12) 0.2984(2)
H5 H 1.0610 0.4692 0.3839
H6 H 0.9372 0.4770 0.2767
C7 C 1.0262(2) 0.57876(12) 0.3211(2)
H7 H 1.0011 0.6037 0.2323
H8 H 0.9615 0.5912 0.3837
N6 N 1.15048(16) 0.60960(10) 0.37927(17)
H9 H 1.2126 0.5909 0.3295
H10 H 1.1669 0.5923 0.4677
N7 N 1.24346(16) 0.22411(10) 0.22885(17)
H11 H 1.2212 0.1861 0.2852
H12 H 1.2005 0.2154 0.1440
C8 C 1.3802(2) 0.21429(12) 0.2132(2)
H13 H 1.3941 0.1640 0.1750
H14 H 1.4294 0.2175 0.3044
C9 C 1.4276(2) 0.27347(12) 0.1191(2)
H15 H 1.4351 0.3218 0.1686
H16 H 1.3643 0.2798 0.0385
C10 C 1.5555(2) 0.25399(12) 0.0698(2)
H17 H 1.5469 0.2062 0.0186
H18 H 1.5777 0.2932 0.0049
N8 N 1.66177(17) 0.24674(10) 0.17968(18)
H19 H 1.6420 0.2092 0.2381
H20 H 1.6673 0.2905 0.2293
C11 C 0.9626(2) 0.26625(11) 0.3786(2)
O1 O 0.97463(13) 0.25444(8) 0.25099(14)
O2 O 1.05858(13) 0.29623(8) 0.44897(14)
O3 O 0.86054(14) 0.24881(8) 0.42944(14)
Zn1B Zn 1.83489(2) 0.275390(14) 0.61765(2)
Zn1A Zn 1.83489(2) 0.224610(14) 0.11765(2)
Zn1A_2 Zn 0.83489(2) 0.224610(14) 0.11765(2)
Zn1B_2 Zn 0.83489(2) 0.275390(14) 0.61765(2)
Zn1C Zn 1.16511(2) 0.775390(14) 0.88235(2)
Zn1C_2 Zn 2.16511(2) 0.775390(14) 0.88235(2)
Zn1_2 Zn 2.16511(2) 0.724610(14) 0.38235(2)
Zn2B Zn 1.82932(2) 0.679925(13) 0.69921(2)
C1B C 1.6218(2) 0.57147(12) 0.5575(2)
N1B N 1.69369(17) 0.61688(10) 0.59613(18)
C2B C 1.3891(2) 0.54919(12) 0.6071(2)
N2B N 1.32304(18) 0.58166(11) 0.67270(19)
N5B N 1.90327(16) 0.60857(9) 0.84681(17)
H1B H 1.8628 0.6171 0.9242
H2B H 1.9874 0.6209 0.8679
C5B C 1.8966(2) 0.52722(12) 0.8175(2)
H3B H 1.9282 0.4993 0.9013
H4B H 1.8068 0.5128 0.7929
C6B C 1.9743(2) 0.50559(12) 0.7016(2)
H5B H 1.9390 0.5308 0.6161
H6B H 2.0628 0.5230 0.7233
C7B C 1.9738(2) 0.42124(12) 0.6789(2)
H7B H 1.9989 0.3963 0.7677
H8B H 2.0385 0.4088 0.6163
N6B N 1.84952(16) 0.39040(10) 0.62073(17)
H9B H 1.7874 0.4091 0.6705
H10B H 1.8331 0.4077 0.5323
N7B N 1.75654(16) 0.77589(10) 0.77115(17)
H11B H 1.7788 0.8139 0.7148
H12B H 1.7995 0.7846 0.8560
C8B C 1.6198(2) 0.78571(12) 0.7868(2)
H13B H 1.6059 0.8360 0.8250
H14B H 1.5706 0.7825 0.6956
C9B C 1.5724(2) 0.72653(12) 0.8809(2)
H15B H 1.5649 0.6782 0.8314
H16B H 1.6357 0.7202 0.9615
C10B C 1.4445(2) 0.74601(12) 0.9302(2)
H17B H 1.4531 0.7938 0.9814
H18B H 1.4223 0.7068 0.9951
N8B N 1.33823(17) 0.75326(10) 0.82032(18)
N8A N 1.33823(17) 0.74674(10) 0.32032(18)
N8C N 1.66177(17) 0.25326(10) 0.67968(18)
H19B H 1.3580 0.7908 0.7619
H19A H 1.3580 0.7092 0.2619
H19C H 1.6420 0.2908 0.7381
H20B H 1.3327 0.7095 0.7707
H20A H 1.3327 0.7905 0.2707
H20C H 1.6673 0.2095 0.7293
C11B C 2.0374(2) 0.73375(11) 0.6214(2)
O1B O 2.02537(13) 0.74556(8) 0.74901(14)
O1A O 1.02537(13) 0.75444(8) 0.24901(14)
O1C O 1.97463(13) 0.24556(8) 0.75099(14)
O2B O 1.94142(13) 0.70377(8) 0.55103(14)
O3B O 2.13946(14) 0.75119(8) 0.57056(14)
O3B_2 O 1.13946(14) 0.75119(8) 0.57056(14)
O3_2 O 1.86054(14) 0.24881(8) 0.42944(14)
Ni2 Ni 1.5000 0.0000 0.5000
C3 C 1.3498(2) 0.05332(12) 0.4493(2)
N3 N 1.25906(18) 0.08757(11) 0.41828(18)
C4 C 1.4182(2) -0.05672(12) 0.6230(2)
N4 N 1.36649(18) -0.09354(11) 0.6964(2)
C3B C 1.6502(2) -0.05332(12) 0.5507(2)
N3B N 1.74094(18) -0.08757(11) 0.58172(18)
C4B C 1.5818(2) 0.05672(12) 0.3770(2)
N4B N 1.63351(18) 0.09354(11) 0.3036(2)
O4 O 0.81484(16) 0.37910(10) 0.09669(18)
H21 H 0.774(3) 0.3882(16) 0.015(3)
H22 H 0.778(3) 0.4004(17) 0.155(3)
loop_
_geom_bond_atom_site_label_1
_geom_bond_atom_site_label_2
_geom_bond_site_symmetry_1
_geom_bond_site_symmetry_2
Zn1 N6 1_555 1_555
Zn2 N1 1_555 1_555
Ni1 C1 1_555 1_555
Ni2 C3 1_555 1_555
C1 N1 1_555 1_555
C2 Ni1 1_555 1_555
N2 C2 1_555 1_555
C3 N3 1_555 1_555
C4 Ni2 1_555 1_555
N4 C4 1_555 1_555
N5 Zn2 1_555 1_555
H1 N5 1_555 1_555
H2 N5 1_555 1_555
C5 N5 1_555 1_555
H3 C5 1_555 1_555
H4 C5 1_555 1_555
C6 C5 1_555 1_555
H5 C6 1_555 1_555
H6 C6 1_555 1_555
C7 C6 1_555 1_555
H7 C7 1_555 1_555
H8 C7 1_555 1_555
N6 C7 1_555 1_555
H9 N6 1_555 1_555
H10 N6 1_555 1_555
N7 Zn2 1_555 1_555
H11 N7 1_555 1_555
H12 N7 1_555 1_555
C8 N7 1_555 1_555
H13 C8 1_555 1_555
H14 C8 1_555 1_555
C9 C8 1_555 1_555
H15 C9 1_555 1_555
H16 C9 1_555 1_555
C10 C9 1_555 1_555
H17 C10 1_555 1_555
H18 C10 1_555 1_555
N8 C10 1_555 1_555
H19 N8 1_555 1_555
H20 N8 1_555 1_555
C11 O1 1_555 1_555
O1 Zn2 1_555 1_555
O2 Zn2 1_555 1_555
O3 C11 1_555 1_555
O4 H21 1_555 1_555
H22 O4 1_555 1_555
Zn1B N6B 1_555 1_555
Zn1A N8 1_555 1_555
Zn1A_2 O1 1_555 1_555
Zn1B_2 O3 1_555 1_555
Zn1C N8B 1_555 1_555
Zn1C_2 O1B 1_555 1_555
Zn1_2 O3B 1_555 1_555
Zn2B N1B 1_555 1_555
C1B Ni1 1_555 1_555
N1B C1B 1_555 1_555
C2B Ni1 1_555 1_555
N2B C2B 1_555 1_555
C3B Ni2 1_555 1_555
N3B C3B 1_555 1_555
C4B Ni2 1_555 1_555
N4B C4B 1_555 1_555
N5B Zn2B 1_555 1_555
H1B N5B 1_555 1_555
H2B N5B 1_555 1_555
C5B N5B 1_555 1_555
H3B C5B 1_555 1_555
H4B C5B 1_555 1_555
C6B C5B 1_555 1_555
H5B C6B 1_555 1_555
H6B C6B 1_555 1_555
C7B C6B 1_555 1_555
H7B C7B 1_555 1_555
H8B C7B 1_555 1_555
N6B C7B 1_555 1_555
H9B N6B 1_555 1_555
H10B N6B 1_555 1_555
N7B Zn2B 1_555 1_555
H11B N7B 1_555 1_555
H12B N7B 1_555 1_555
C8B N7B 1_555 1_555
H13B C8B 1_555 1_555
H14B C8B 1_555 1_555
C9B C8B 1_555 1_555
H15B C9B 1_555 1_555
H16B C9B 1_555 1_555
C10B C9B 1_555 1_555
H17B C10B 1_555 1_555
H18B C10B 1_555 1_555
N8B C10B 1_555 1_555
N8A Zn1 1_555 1_555
N8C Zn1B 1_555 1_555
H19B N8B 1_555 1_555
H19A N8A 1_555 1_555
H19C N8C 1_555 1_555
H20B N8B 1_555 1_555
H20A N8A 1_555 1_555
H20C N8C 1_555 1_555
C11B O1B 1_555 1_555
O1B Zn2B 1_555 1_555
O1A Zn1 1_555 1_555
O1C Zn1B 1_555 1_555
O2B Zn2B 1_555 1_555
O3B C11B 1_555 1_555
O3B_2 Zn1 1_555 1_555
O3_2 Zn1B 1_555 1_555
C11 O2 1_555 1_555
C11B O2B 1_555 1_555

#END
