
#######################################################################
#
#                 Cambridge Crystallographic Data Centre
#                                CCDC 
#
#######################################################################
#
# If this CIF has been generated from an entry in the Cambridge 
# Structural Database, then it will include bibliographic, chemical, 
# crystal, experimental, refinement or atomic coordinate data resulting 
# from the CCDC's data processing and validation procedures.
#
#######################################################################

data_RAMFAN
_symmetry_cell_setting           monoclinic
_symmetry_space_group_name_H-M   'C 2/c'
_symmetry_Int_Tables_number      15
_space_group_name_Hall           '-C 2yn'
loop_
_symmetry_equiv_pos_site_id
_symmetry_equiv_pos_as_xyz
1 x,y,z
2 1/2+x,1/2+y,z
3 -x,y,1/2-z
4 1/2-x,1/2+y,1/2-z
5 -x,-y,-z
6 1/2-x,1/2-y,-z
7 x,-y,1/2+z
8 1/2+x,1/2-y,1/2+z
_cell_length_a                   24.267(2)
_cell_length_b                   12.8056(11)
_cell_length_c                   7.708
_cell_angle_alpha                90
_cell_angle_beta                 94.979(5)
_cell_angle_gamma                90
_cell_volume                     2386.25
loop_
_atom_site_label
_atom_site_type_symbol
_atom_site_fract_x
_atom_site_fract_y
_atom_site_fract_z
Mn1 Mn 0.0000 0.35781(3) 0.2500
P1 P 0.046424(18) 0.14545(4) 0.05015(6)
P2 P 0.072741(18) 0.42260(4) -0.36837(5)
N1 N 0.09342(6) 0.21879(11) -0.25121(18)
H1 H 0.0585 0.2078 -0.3010
C1 C 0.19297(7) 0.18897(15) -0.3184(2)
C2 C 0.22471(8) 0.27922(16) -0.3111(2)
H2 H 0.2084 0.3428 -0.3439
C3 C 0.28106(8) 0.27544(17) -0.2549(3)
H3 H 0.3019 0.3365 -0.2495
C4 C 0.30586(8) 0.18146(18) -0.2072(3)
H4 H 0.3434 0.1790 -0.1716
C5 C 0.27459(9) 0.09121(18) -0.2128(3)
H5 H 0.2910 0.0280 -0.1792
C6 C 0.21852(9) 0.09466(17) -0.2686(3)
H6 H 0.1978 0.0334 -0.2728
C7 C 0.13294(7) 0.19037(14) -0.3874(2)
H7 H 0.1230 0.1220 -0.4343
H8 H 0.1282 0.2402 -0.4823
C8 C 0.10159(7) 0.14607(13) -0.0976(2)
H9 H 0.1360 0.1645 -0.0310
H10 H 0.1057 0.0757 -0.1410
C9 C 0.09652(7) 0.33130(13) -0.1959(2)
H11 H 0.1345 0.3479 -0.1560
H12 H 0.0743 0.3408 -0.0984
O1 O 0.05455(5) 0.23751(10) 0.16900(16)
O2 O -0.00784(5) 0.13081(10) -0.05784(16)
O3 O 0.06124(5) 0.04204(10) 0.15607(16)
H13 H 0.0423 -0.0062 0.1142
O4 O 0.02343(5) 0.37572(10) -0.46993(15)
O5 O 0.06615(5) 0.52549(10) -0.27670(16)
O6 O 0.12319(5) 0.43116(10) -0.48490(16)
H14 H 0.1116 0.4451 -0.5854
Mn1_2 Mn 0.0000 0.35781(3) -0.7500
Mn1F Mn 0.0000 0.64219(3) -0.2500
Mn1_3 Mn 0.0000 0.35781(3) 1.2500
Mn1F_2 Mn 0.0000 0.64219(3) 0.7500
P1B P -0.046424(18) 0.14545(4) 0.44985(6)
P2B P -0.072741(18) 0.42260(4) 0.86837(5)
N1B N -0.09342(6) 0.21879(11) 0.75121(18)
H1B H -0.0585 0.2078 0.8010
C1B C -0.19297(7) 0.18897(15) 0.8184(2)
C2B C -0.22471(8) 0.27922(16) 0.8111(2)
H2B H -0.2084 0.3428 0.8439
C3B C -0.28106(8) 0.27544(17) 0.7549(3)
H3B H -0.3019 0.3365 0.7495
C4B C -0.30586(8) 0.18146(18) 0.7072(3)
H4B H -0.3434 0.1790 0.6716
C5B C -0.27459(9) 0.09121(18) 0.7128(3)
H5B H -0.2910 0.0280 0.6792
C6B C -0.21852(9) 0.09466(17) 0.7686(3)
H6B H -0.1978 0.0334 0.7728
C7B C -0.13294(7) 0.19037(14) 0.8874(2)
H7B H -0.1230 0.1220 0.9343
H8B H -0.1282 0.2402 0.9823
C8B C -0.10159(7) 0.14607(13) 0.5976(2)
H9B H -0.1360 0.1645 0.5310
H10B H -0.1057 0.0757 0.6410
C9B C -0.09652(7) 0.33130(13) 0.6959(2)
H11B H -0.1345 0.3479 0.6560
H12B H -0.0743 0.3408 0.5984
O1B O -0.05455(5) 0.23751(10) 0.33100(16)
O2B O 0.00784(5) 0.13081(10) 0.55784(16)
O3B O -0.06124(5) 0.04204(10) 0.34393(16)
H13B H -0.0423 -0.0062 0.3858
O4B O -0.02343(5) 0.37572(10) 0.96993(15)
O4_2 O 0.02343(5) 0.37572(10) 0.53007(15)
O4B_2 O -0.02343(5) 0.37572(10) -0.03007(15)
O5B O -0.06615(5) 0.52549(10) 0.77670(16)
O5F O 0.06615(5) 0.47451(10) 0.22330(16)
O5D O -0.06615(5) 0.47451(10) 0.27670(16)
O6B O -0.12319(5) 0.43116(10) 0.98490(16)
H14B H -0.1116 0.4451 1.0854
loop_
_geom_bond_atom_site_label_1
_geom_bond_atom_site_label_2
_geom_bond_site_symmetry_1
_geom_bond_site_symmetry_2
Mn1 O1 1_555 1_555
P1 C8 1_555 1_555
P2 C9 1_555 1_555
N1 H1 1_555 1_555
C1 C2 1_555 1_555
C2 H2 1_555 1_555
C3 C2 1_555 1_555
H3 C3 1_555 1_555
C4 C3 1_555 1_555
H4 C4 1_555 1_555
C5 C4 1_555 1_555
H5 C5 1_555 1_555
C6 C1 1_555 1_555
H6 C6 1_555 1_555
C7 N1 1_555 1_555
H7 C7 1_555 1_555
H8 C7 1_555 1_555
C8 N1 1_555 1_555
H9 C8 1_555 1_555
H10 C8 1_555 1_555
C9 N1 1_555 1_555
H11 C9 1_555 1_555
H12 C9 1_555 1_555
O1 P1 1_555 1_555
O2 P1 1_555 1_555
O3 P1 1_555 1_555
H13 O3 1_555 1_555
O4 P2 1_555 1_555
O5 P2 1_555 1_555
O6 P2 1_555 1_555
H14 O6 1_555 1_555
Mn1_2 O4 1_555 1_555
Mn1F O5 1_555 1_555
Mn1_3 O4B 1_555 1_555
Mn1F_2 O5B 1_555 1_555
P1B C8B 1_555 1_555
P2B C9B 1_555 1_555
N1B H1B 1_555 1_555
C1B C2B 1_555 1_555
C2B H2B 1_555 1_555
C3B C2B 1_555 1_555
H3B C3B 1_555 1_555
C4B C3B 1_555 1_555
H4B C4B 1_555 1_555
C5B C4B 1_555 1_555
H5B C5B 1_555 1_555
C6B C1B 1_555 1_555
H6B C6B 1_555 1_555
C7B N1B 1_555 1_555
H7B C7B 1_555 1_555
H8B C7B 1_555 1_555
C8B N1B 1_555 1_555
H9B C8B 1_555 1_555
H10B C8B 1_555 1_555
C9B N1B 1_555 1_555
H11B C9B 1_555 1_555
H12B C9B 1_555 1_555
O1B Mn1 1_555 1_555
O2B P1B 1_555 1_555
O3B P1B 1_555 1_555
H13B O3B 1_555 1_555
O4B P2B 1_555 1_555
O4_2 Mn1 1_555 1_555
O4B_2 Mn1 1_555 1_555
O5B P2B 1_555 1_555
O5F Mn1 1_555 1_555
O5D Mn1 1_555 1_555
O6B P2B 1_555 1_555
H14B O6B 1_555 1_555
C1 C7 1_555 1_555
C5 C6 1_555 1_555
P1B O1B 1_555 1_555
C1B C7B 1_555 1_555
C5B C6B 1_555 1_555

#END
