
#######################################################################
#
#                 Cambridge Crystallographic Data Centre
#                                CCDC 
#
#######################################################################
#
# If this CIF has been generated from an entry in the Cambridge 
# Structural Database, then it will include bibliographic, chemical, 
# crystal, experimental, refinement or atomic coordinate data resulting 
# from the CCDC's data processing and validation procedures.
#
#######################################################################

data_RAMGOD
_symmetry_cell_setting           triclinic
_symmetry_space_group_name_H-M   'P -1'
_symmetry_Int_Tables_number      2
_space_group_name_Hall           '-P 1'
loop_
_symmetry_equiv_pos_site_id
_symmetry_equiv_pos_as_xyz
1 x,y,z
2 -x,-y,-z
_cell_length_a                   9.211(2)
_cell_length_b                   19.641(4)
_cell_length_c                   20.970(5)
_cell_angle_alpha                105.288(3)
_cell_angle_beta                 97.714(4)
_cell_angle_gamma                94.959(4)
_cell_volume                     3596.81
loop_
_atom_site_label
_atom_site_type_symbol
_atom_site_fract_x
_atom_site_fract_y
_atom_site_fract_z
O1 O 0.737(2) 0.3834(9) 0.3544(7)
O2 O 0.048(2) 0.3788(8) 0.8967(7)
Zn1 Zn -0.05707(15) 0.14700(8) 0.44703(6)
Zn2 Zn 0.83034(15) 0.33019(8) 1.04508(7)
S1 S 1.2504(4) 0.49673(19) 1.09135(18)
S2 S -0.2744(4) 0.19636(19) 0.44994(17)
S3 S -0.5660(4) 0.1131(2) 0.43692(18)
S4 S 1.3428(4) 0.3589(2) 1.05504(18)
S5 S -0.4695(4) -0.02336(19) 0.40262(18)
S6 S -0.1515(4) 0.03018(19) 0.41195(17)
S12 S 1.0447(4) 0.27786(19) 1.03669(18)
S14 S 1.5714(4) 0.4854(2) 1.0964(2)
S16 S 0.9315(4) 0.4454(2) 1.0802(2)
S18 S -0.7866(4) -0.0145(2) 0.4134(2)
C1 C 1.1498(14) 0.3591(8) 1.0547(6)
N1 N 0.0680(12) 0.1855(6) 0.5399(5)
N4 N 0.0963(10) 0.1726(5) 0.3932(4)
C2 C -0.3308(13) 0.0479(7) 0.4177(5)
N5 N 0.6986(11) 0.2990(6) 0.9528(5)
C4 C 0.2983(13) 0.2533(7) 0.3814(6)
H1 H 0.3598 0.2959 0.4007
C5 C 1.1106(12) 0.4264(7) 1.0729(6)
C6 C 0.6323(12) 0.2170(7) 0.8435(5)
H2 H 0.6501 0.1757 0.8134
N7 N 0.6914(10) 0.2965(5) 0.1005(5)
C8 C 0.2452(13) 0.2371(6) 0.6658(5)
C10 C 0.3109(13) 0.2115(7) 0.3183(6)
C15 C 0.5096(14) 0.2419(8) 0.1772(8)
C17 C 0.3319(14) 0.2663(7) 0.7330(6)
H5 H 0.3144 0.3102 0.7588
C19 C 0.2133(14) 0.1478(7) 0.2945(6)
H7 H 0.2153 0.1172 0.2525
C21 C -0.6193(13) 0.0211(7) 0.4170(5)
C23 C 0.5969(15) 0.3378(7) 0.9348(6)
H9 H 0.5843 0.3792 0.9663
C25 C 0.5250(14) 0.2568(7) 0.8263(5)
C26 C 1.3974(14) 0.4502(6) 1.0826(6)
C28 C 0.4349(15) 0.2329(7) 0.7590(5)
H11 H 0.4517 0.1898 0.7315
C29 C 0.5985(17) 0.3069(9) 0.2043(6)
H12 H 0.5981 0.3337 0.2480
C30 C 0.1944(13) 0.2311(7) 0.4148(6)
H13 H 0.1918 0.2600 0.4575
C32 C 0.1144(13) 0.1308(7) 0.3338(6)
H15 H 0.0558 0.0870 0.3176
C33 C 0.7125(14) 0.2415(7) 0.9078(6)
H16 H 0.7832 0.2141 0.9197
C34 C 0.2619(15) 0.1755(8) 0.6228(6)
H17 H 0.3341 0.1488 0.6346
C36 C 0.0520(14) 0.2470(7) 0.5826(6)
H19 H -0.0202 0.2728 0.5690
C39 C -0.3799(13) 0.1152(7) 0.4324(5)
C41 C 0.1353(13) 0.2752(7) 0.6458(5)
H22 H 0.1185 0.3181 0.6739
C44 C 0.5102(14) 0.3209(7) 0.8733(6)
H24 H 0.4434 0.3507 0.8628
C45 C 0.6907(14) 0.3314(8) 0.1629(7)
H25 H 0.7528 0.3741 0.1812
C49 C 0.4128(16) 0.2365(8) 0.2802(8)
H29 H 0.4866 0.2731 0.3041
C54 C 0.6101(16) 0.2367(8) 0.0778(6)
H34 H 0.6165 0.2109 0.0344
C55 C 0.1709(16) 0.1512(8) 0.5599(6)
H35 H 0.1852 0.1083 0.5312
C56 C 0.4126(16) 0.2136(9) 0.2167(8)
H36 H 0.3432 0.1748 0.1933
C57 C 0.5109(16) 0.2051(8) 0.1112(7)
H37 H 0.4507 0.1624 0.0901
Zn2_2 Zn 0.83034(15) 0.33019(8) 0.04508(7)
N7_2 N 0.6914(10) 0.2965(5) 1.1005(5)
Zn3 Zn 0.45498(17) 0.43894(8) 0.64572(8)
Zn4 Zn 1.42778(17) 1.03059(8) 0.83658(8)
S7 S 0.0156(4) 0.3968(2) 0.49414(19)
S8 S 1.6360(4) 1.0201(2) 0.78735(18)
S9 S 1.8571(5) 1.0933(2) 0.99452(18)
S10 S 0.3405(4) 0.4107(2) 0.53740(17)
S11 S 0.2522(4) 0.4621(2) 0.69842(18)
S13 S 1.5334(4) 1.0698(2) 0.94598(17)
S15 S 1.9407(4) 1.0446(2) 0.86602(19)
S17 S -0.0575(4) 0.4344(2) 0.62546(19)
S19 S -0.3010(4) 0.3961(3) 0.5088(2)
S20 S 2.1734(5) 1.0840(3) 0.9869(2)
N2 N 1.2979(12) 0.9327(6) 0.8055(5)
N3 N 0.6103(12) 0.5262(6) 0.6794(6)
C3 C 0.7640(14) 0.2676(7) 0.7008(6)
N6 N 0.5806(11) 0.3648(6) 0.6680(5)
C7 C 1.1190(16) 0.8479(8) 0.8263(7)
H3 H 1.0543 0.8376 0.8540
C9 C 1.7497(15) 1.0439(7) 0.8654(7)
C11 C 0.1641(14) 0.4181(7) 0.5588(7)
C12 C -0.1260(13) 0.4102(7) 0.5420(7)
C13 C 1.1279(17) 0.8002(7) 0.7663(8)
C14 C 0.1288(15) 0.4389(7) 0.6222(7)
C16 C 1.1484(14) 0.1968(7) 0.8469(6)
H4 H 1.1380 0.2373 0.8801
C18 C 1.2208(16) 0.8214(8) 0.7261(7)
H6 H 1.2259 0.7910 0.6844
C20 C 0.6643(15) 0.3783(8) 0.7285(6)
H8 H 0.6581 0.4204 0.7605
C22 C 1.7102(16) 1.0689(8) 0.9293(7)
C24 C 1.0571(13) 0.1797(7) 0.7845(6)
C27 C 1.2139(16) 0.9142(7) 0.8445(7)
H10 H 1.2151 0.9456 0.8865
C31 C 1.2521(15) 0.1546(7) 0.8595(6)
H14 H 1.3122 0.1688 0.9012
C35 C 1.0778(14) 0.1133(7) 0.7398(6)
H18 H 1.0166 0.0959 0.6985
C37 C 0.8308(16) 0.6397(8) 0.7334(9)
C38 C 1.1833(15) 0.0767(7) 0.7570(7)
H20 H 1.1955 0.0352 0.7254
C40 C 0.7582(15) 0.3335(7) 0.7457(6)
H21 H 0.8184 0.3470 0.7874
C42 C 1.029(2) 0.7315(10) 0.7385(10)
H23 H 1.0386 0.7062 0.6953
N8 N 1.2742(11) 0.0944(6) 0.8163(5)
C43 C 2.0016(15) 1.0736(7) 0.9531(7)
C46 C 0.7469(18) 0.6169(9) 0.7719(8)
H26 H 0.7616 0.6400 0.8175
C47 C 1.3019(15) 0.8844(8) 0.7466(6)
H27 H 1.3653 0.8961 0.7191
C48 C 0.6770(15) 0.2555(8) 0.6387(6)
H28 H 0.6768 0.2128 0.6062
C50 C 0.9387(19) 0.7037(10) 0.7638(9)
H30 H 0.9371 0.7259 0.8087
C51 C 0.8619(15) 0.2179(7) 0.7159(7)
H31 H 0.8595 0.1757 0.6826
C52 C 0.6407(16) 0.5611(7) 0.7465(7)
H32 H 0.5862 0.5456 0.7755
C53 C 0.9545(15) 0.2267(7) 0.7726(7)
H33 H 0.9519 0.2670 0.8074
C58 C 0.5923(15) 0.3039(8) 0.6239(6)
H38 H 0.5398 0.2942 0.5807
C59 C 0.6861(18) 0.5504(8) 0.6394(7)
H39 H 0.6621 0.5300 0.5934
C60 C 0.7997(18) 0.6052(9) 0.6639(9)
H40 H 0.8559 0.6195 0.6350
Zn4_2 Zn 1.42778(17) 0.03059(8) 0.83658(8)
N8_2 N 1.2742(11) 1.0944(6) 0.8163(5)
loop_
_geom_bond_atom_site_label_1
_geom_bond_atom_site_label_2
_geom_bond_site_symmetry_1
_geom_bond_site_symmetry_2
Zn1 S2 1_555 1_555
Zn2 S12 1_555 1_555
Zn3 S10 1_555 1_555
Zn4 S8 1_555 1_555
S1 C5 1_555 1_555
S2 C39 1_555 1_555
S3 C21 1_555 1_555
S4 C1 1_555 1_555
S5 C2 1_555 1_555
S6 Zn1 1_555 1_555
S7 C11 1_555 1_555
S8 C9 1_555 1_555
S9 C22 1_555 1_555
S10 C11 1_555 1_555
S11 Zn3 1_555 1_555
S12 C1 1_555 1_555
S13 Zn4 1_555 1_555
S14 C26 1_555 1_555
S15 C9 1_555 1_555
S16 Zn2 1_555 1_555
S17 C12 1_555 1_555
S18 C21 1_555 1_555
S19 C12 1_555 1_555
S20 C43 1_555 1_555
C1 C5 1_555 1_555
N1 Zn1 1_555 1_555
N2 Zn4 1_555 1_555
N3 Zn3 1_555 1_555
N4 Zn1 1_555 1_555
C2 S6 1_555 1_555
C3 C40 1_555 1_555
N5 Zn2 1_555 1_555
C4 H1 1_555 1_555
C5 S16 1_555 1_555
C6 H2 1_555 1_555
N6 Zn3 1_555 1_555
C7 H3 1_555 1_555
N7 C45 1_555 1_555
C8 C17 1_555 1_555
C9 C22 1_555 1_555
C10 C4 1_555 1_555
C11 C14 1_555 1_555
C12 S7 1_555 1_555
C13 C7 1_555 1_555
C14 S11 1_555 1_555
C15 C29 1_555 1_555
C16 H4 1_555 1_555
C17 H5 1_555 1_555
C18 C13 1_555 1_555
H6 C18 1_555 1_555
C19 C10 1_555 1_555
H7 C19 1_555 1_555
C20 N6 1_555 1_555
H8 C20 1_555 1_555
C21 S5 1_555 1_555
C22 S13 1_555 1_555
C23 N5 1_555 1_555
H9 C23 1_555 1_555
C24 C16 1_555 1_555
C25 C6 1_555 1_555
C26 S1 1_555 1_555
C27 N2 1_555 1_555
H10 C27 1_555 1_555
C28 C17 1_555 1_555
H11 C28 1_555 1_555
C29 H12 1_555 1_555
C30 N4 1_555 1_555
H13 C30 1_555 1_555
C31 C16 1_555 1_555
H14 C31 1_555 1_555
C32 N4 1_555 1_555
H15 C32 1_555 1_555
C33 N5 1_555 1_555
H16 C33 1_555 1_555
C34 C8 1_555 1_555
H17 C34 1_555 1_555
C35 C24 1_555 1_555
H18 C35 1_555 1_555
C36 N1 1_555 1_555
H19 C36 1_555 1_555
C37 C46 1_555 1_555
C38 C35 1_555 1_555
H20 C38 1_555 1_555
C39 S3 1_555 1_555
C40 C20 1_555 1_555
H21 C40 1_555 1_555
C41 C8 1_555 1_555
H22 C41 1_555 1_555
C42 C13 1_555 1_555
H23 C42 1_555 1_555
N8 C31 1_555 1_555
C43 S9 1_555 1_555
C44 C23 1_555 1_555
H24 C44 1_555 1_555
C45 C29 1_555 1_555
H25 C45 1_555 1_555
C46 H26 1_555 1_555
C47 N2 1_555 1_555
H27 C47 1_555 1_555
C48 C3 1_555 1_555
H28 C48 1_555 1_555
C49 C10 1_555 1_555
H29 C49 1_555 1_555
C50 C37 1_555 1_555
H30 C50 1_555 1_555
C51 C3 1_555 1_555
H31 C51 1_555 1_555
C52 N3 1_555 1_555
H32 C52 1_555 1_555
C53 C24 1_555 1_555
H33 C53 1_555 1_555
C54 N7 1_555 1_555
H34 C54 1_555 1_555
C55 N1 1_555 1_555
H35 C55 1_555 1_555
C56 C15 1_555 1_555
H36 C56 1_555 1_555
C57 C15 1_555 1_555
H37 C57 1_555 1_555
C58 N6 1_555 1_555
H38 C58 1_555 1_555
C59 N3 1_555 1_555
H39 C59 1_555 1_555
C60 C37 1_555 1_555
H40 C60 1_555 1_555
Zn2_2 N7 1_555 1_555
Zn4_2 N8 1_555 1_555
N7_2 Zn2 1_555 1_555
N8_2 Zn4 1_555 1_555
S4 C26 1_555 1_555
S15 C43 1_555 1_555
S17 C14 1_555 1_555
C2 C39 1_555 1_555
C4 C30 1_555 1_555
C6 C33 1_555 1_555
C7 C27 1_555 1_555
C18 C47 1_555 1_555
C19 C32 1_555 1_555
C25 C28 1_555 1_555
C25 C44 1_555 1_555
C34 C55 1_555 1_555
C36 C41 1_555 1_555
C38 N8 1_555 1_555
C42 C50 1_555 1_555
C46 C52 1_555 1_555
C48 C58 1_555 1_555
C49 C56 1_555 1_555
C51 C53 1_555 1_555
C54 C57 1_555 1_555
C59 C60 1_555 1_555

#END
