
#######################################################################
#
#                 Cambridge Crystallographic Data Centre
#                                CCDC 
#
#######################################################################
#
# If this CIF has been generated from an entry in the Cambridge 
# Structural Database, then it will include bibliographic, chemical, 
# crystal, experimental, refinement or atomic coordinate data resulting 
# from the CCDC's data processing and validation procedures.
#
#######################################################################

data_RAMGIX
_symmetry_cell_setting           monoclinic
_symmetry_space_group_name_H-M   'P 21/n'
_symmetry_Int_Tables_number      14
_space_group_name_Hall           '-P 2yn'
loop_
_symmetry_equiv_pos_site_id
_symmetry_equiv_pos_as_xyz
1 x,y,z
2 1/2-x,1/2+y,1/2-z
3 -x,-y,-z
4 1/2+x,1/2-y,1/2+z
_cell_length_a                   9.1288(16)
_cell_length_b                   14.655(3)
_cell_length_c                   11.670(2)
_cell_angle_alpha                90
_cell_angle_beta                 101.561(3)
_cell_angle_gamma                90
_cell_volume                     1529.57
loop_
_atom_site_label
_atom_site_type_symbol
_atom_site_fract_x
_atom_site_fract_y
_atom_site_fract_z
Zn1 Zn 0.32225(5) 0.20615(3) 0.37016(4)
S1 S 0.84218(10) 0.19969(7) 0.40078(9)
S2 S 0.44218(10) 0.12350(7) 0.52629(9)
S3 S 0.77146(10) 0.09183(7) 0.58648(9)
S4 S 0.52813(11) 0.25386(7) 0.29874(9)
S5 S 1.09000(10) 0.10385(7) 0.56343(9)
N1 N 0.1858(3) 0.1396(2) 0.2333(3)
C1 C 0.0384(4) 0.0291(2) 0.0486(3)
C2 C 0.6520(4) 0.1930(3) 0.4050(3)
C3 C 0.0391(4) 0.4593(2) 0.4824(3)
C4 C 0.6190(4) 0.1426(3) 0.4940(3)
N2 N 0.1933(3) 0.3092(2) 0.4162(3)
C5 C 0.1453(4) 0.0937(3) 0.0318(3)
H1 H 0.1689 0.1013 -0.0433
C6 C 0.1057(4) 0.3606(3) 0.3366(4)
H2 H 0.0954 0.3449 0.2564
C7 C 0.0086(4) 0.0228(3) 0.1615(3)
H3 H -0.0624 -0.0203 0.1776
C8 C 0.1269(4) 0.4034(3) 0.5647(3)
H4 H 0.1354 0.4153 0.6458
C9 C 0.9111(4) 0.1315(3) 0.5198(3)
C10 C 0.0825(4) 0.0792(3) 0.2494(3)
H5 H 0.0586 0.0747 0.3248
C11 C 0.2017(4) 0.3304(3) 0.5285(3)
H6 H 0.2621 0.2934 0.5863
C12 C 0.2167(4) 0.1466(3) 0.1253(3)
H7 H 0.2901 0.1893 0.1127
C13 C 0.0291(4) 0.4357(3) 0.3655(3)
H8 H -0.0305 0.4712 0.3056
Zn1B Zn -0.32225(5) -0.20615(3) -0.37016(4)
Zn1B_2 Zn -0.32225(5) 0.79385(3) 0.62984(4)
S1B S -0.84218(10) -0.19969(7) -0.40078(9)
S2B S -0.44218(10) -0.12350(7) -0.52629(9)
S3B S -0.77146(10) -0.09183(7) -0.58648(9)
S4B S -0.52813(11) -0.25386(7) -0.29874(9)
S5B S -1.09000(10) -0.10385(7) -0.56343(9)
N1B N -0.1858(3) -0.1396(2) -0.2333(3)
C1B C -0.0384(4) -0.0291(2) -0.0486(3)
C2B C -0.6520(4) -0.1930(3) -0.4050(3)
C3B C -0.0391(4) 0.5407(2) 0.5176(3)
C4B C -0.6190(4) -0.1426(3) -0.4940(3)
N2B N -0.1933(3) 0.6908(2) 0.5838(3)
N2B_2 N -0.1933(3) -0.3092(2) -0.4162(3)
C5B C -0.1453(4) -0.0937(3) -0.0318(3)
H1B H -0.1689 -0.1013 0.0433
C6B C -0.1057(4) 0.6394(3) 0.6634(4)
H2B H -0.0954 0.6551 0.7436
C7B C -0.0086(4) -0.0228(3) -0.1615(3)
H3B H 0.0624 0.0203 -0.1776
C8B C -0.1269(4) 0.5966(3) 0.4353(3)
H4B H -0.1354 0.5847 0.3542
C9B C -0.9111(4) -0.1315(3) -0.5198(3)
C10B C -0.0825(4) -0.0792(3) -0.2494(3)
H5B H -0.0586 -0.0747 -0.3248
C11B C -0.2017(4) 0.6696(3) 0.4715(3)
H6B H -0.2621 0.7066 0.4137
C12B C -0.2167(4) -0.1466(3) -0.1253(3)
H7B H -0.2901 -0.1893 -0.1127
C13B C -0.0291(4) 0.5643(3) 0.6345(3)
H8B H 0.0305 0.5288 0.6944
loop_
_geom_bond_atom_site_label_1
_geom_bond_atom_site_label_2
_geom_bond_site_symmetry_1
_geom_bond_site_symmetry_2
Zn1 S2 1_555 1_555
S1 C2 1_555 1_555
S2 C4 1_555 1_555
S3 C4 1_555 1_555
S4 Zn1 1_555 1_555
S5 C9 1_555 1_555
N1 Zn1 1_555 1_555
C1 C5 1_555 1_555
C2 S4 1_555 1_555
C3 C8 1_555 1_555
C4 C2 1_555 1_555
N2 Zn1 1_555 1_555
C5 H1 1_555 1_555
C6 N2 1_555 1_555
H2 C6 1_555 1_555
C7 C1 1_555 1_555
H3 C7 1_555 1_555
C8 H4 1_555 1_555
C9 S1 1_555 1_555
C10 N1 1_555 1_555
H5 C10 1_555 1_555
C11 N2 1_555 1_555
H6 C11 1_555 1_555
C12 N1 1_555 1_555
H7 C12 1_555 1_555
C13 C3 1_555 1_555
H8 C13 1_555 1_555
Zn1B S2B 1_555 1_555
Zn1B_2 N2B 1_555 1_555
S1B C2B 1_555 1_555
S2B C4B 1_555 1_555
S3B C4B 1_555 1_555
S4B Zn1B 1_555 1_555
S5B C9B 1_555 1_555
N1B Zn1B 1_555 1_555
C1B C1 1_555 1_555
C2B S4B 1_555 1_555
C3B C3 1_555 1_555
C4B C2B 1_555 1_555
N2B C6B 1_555 1_555
N2B_2 Zn1B 1_555 1_555
C5B C1B 1_555 1_555
H1B C5B 1_555 1_555
C6B H2B 1_555 1_555
C7B C1B 1_555 1_555
H3B C7B 1_555 1_555
C8B C3B 1_555 1_555
H4B C8B 1_555 1_555
C9B S1B 1_555 1_555
C10B N1B 1_555 1_555
H5B C10B 1_555 1_555
C11B N2B 1_555 1_555
H6B C11B 1_555 1_555
C12B N1B 1_555 1_555
H7B C12B 1_555 1_555
C13B C3B 1_555 1_555
H8B C13B 1_555 1_555
S3 C9 1_555 1_555
C5 C12 1_555 1_555
C6 C13 1_555 1_555
C7 C10 1_555 1_555
C8 C11 1_555 1_555
S3B C9B 1_555 1_555
C5B C12B 1_555 1_555
C6B C13B 1_555 1_555
C7B C10B 1_555 1_555
C8B C11B 1_555 1_555

#END
