
#######################################################################
#
#                 Cambridge Crystallographic Data Centre
#                                CCDC 
#
#######################################################################
#
# If this CIF has been generated from an entry in the Cambridge 
# Structural Database, then it will include bibliographic, chemical, 
# crystal, experimental, refinement or atomic coordinate data resulting 
# from the CCDC's data processing and validation procedures.
#
#######################################################################

data_RAMHUI02
_symmetry_cell_setting           monoclinic
_symmetry_space_group_name_H-M   'C 2/c'
_symmetry_Int_Tables_number      15
_space_group_name_Hall           '-C 2yn'
loop_
_symmetry_equiv_pos_site_id
_symmetry_equiv_pos_as_xyz
1 x,y,z
2 1/2+x,1/2+y,z
3 -x,y,1/2-z
4 1/2-x,1/2+y,1/2-z
5 -x,-y,-z
6 1/2-x,1/2-y,-z
7 x,-y,1/2+z
8 1/2+x,1/2-y,1/2+z
_cell_length_a                   17.4786(11)
_cell_length_b                   10.3332(6)
_cell_length_c                   9.3359(6)
_cell_angle_alpha                90
_cell_angle_beta                 96.173(3)
_cell_angle_gamma                90
_cell_volume                     1676.38
loop_
_atom_site_label
_atom_site_type_symbol
_atom_site_fract_x
_atom_site_fract_y
_atom_site_fract_z
O1 O 0.09025(5) 0.43832(7) 0.61281(9)
O2 O 0.07261(4) 0.41950(8) 0.37316(9)
N1 N 0.05688(5) 0.26295(8) 0.86190(10)
C1 C 0.11505(7) 0.26193(11) 0.96575(13)
H1 H 0.1317 0.3404 1.0067
C2 C 0.15250(8) 0.14895(13) 1.01670(14)
H2 H 0.1947 0.1532 1.0864
C3 C 0.12674(8) 0.03342(12) 0.96355(15)
H3 H 0.1508 -0.0426 0.9975
C4 C 0.06350(7) 0.02805(11) 0.85679(14)
C5 C 0.03093(8) -0.09072(12) 0.80067(16)
H4 H 0.0523 -0.1690 0.8339
C6 C 0.03172(6) 0.14712(10) 0.80736(11)
C7 C 0.10869(5) 0.39952(10) 0.49420(11)
C8 C 0.18249(5) 0.32282(9) 0.49684(10)
C9 C 0.21585(6) 0.30072(11) 0.37149(11)
H5 H 0.1933 0.3348 0.2848
C10 C 0.21715(6) 0.27195(11) 0.62613(11)
H6 H 0.1953 0.2867 0.7112
Mn1 Mn 0.0000 0.448226(19) 0.7500
O1E O 0.40975(5) 0.06168(7) 0.38719(9)
O1B O -0.09025(5) 0.43832(7) 0.88719(9)
O2E O 0.42739(4) 0.08050(8) 0.62684(9)
O2F O 0.07261(4) 0.58050(8) 0.87316(9)
O2D O -0.07261(4) 0.58050(8) 0.62684(9)
N1B N -0.05688(5) 0.26295(8) 0.63810(10)
C1B C -0.11505(7) 0.26193(11) 0.53425(13)
H1B H -0.1317 0.3404 0.4933
C2B C -0.15250(8) 0.14895(13) 0.48330(14)
H2B H -0.1947 0.1532 0.4136
C3B C -0.12674(8) 0.03342(12) 0.53645(15)
H3B H -0.1508 -0.0426 0.5025
C4B C -0.06350(7) 0.02805(11) 0.64321(14)
C5B C -0.03093(8) -0.09072(12) 0.69933(16)
H4B H -0.0523 -0.1690 0.6661
C6B C -0.03172(6) 0.14712(10) 0.69264(11)
C7E C 0.39131(5) 0.10048(10) 0.50580(11)
C8E C 0.31751(5) 0.17718(9) 0.50316(10)
C9E C 0.28415(6) 0.19928(11) 0.62851(11)
H5E H 0.3067 0.1652 0.7152
C10E C 0.28285(6) 0.22805(11) 0.37387(11)
H6E H 0.3047 0.2133 0.2888
Mn1D Mn 0.0000 0.551774(19) 0.2500
Mn1E Mn 0.5000 0.051774(19) 0.2500
Mn1A Mn 0.5000 -0.051774(19) 0.7500
loop_
_geom_bond_atom_site_label_1
_geom_bond_atom_site_label_2
_geom_bond_site_symmetry_1
_geom_bond_site_symmetry_2
O1 C7 1_555 1_555
O2 C7 1_555 1_555
N1 C1 1_555 1_555
C1 H1 1_555 1_555
C2 C1 1_555 1_555
H2 C2 1_555 1_555
C3 C2 1_555 1_555
H3 C3 1_555 1_555
C4 C3 1_555 1_555
C5 C4 1_555 1_555
H4 C5 1_555 1_555
C6 N1 1_555 1_555
C7 C8 1_555 1_555
C8 C9 1_555 1_555
C9 H5 1_555 1_555
C10 C8 1_555 1_555
H6 C10 1_555 1_555
Mn1 O1 1_555 1_555
O1E C7E 1_555 1_555
O1B Mn1 1_555 1_555
O2E C7E 1_555 1_555
O2F Mn1 1_555 1_555
O2D Mn1 1_555 1_555
N1B Mn1 1_555 1_555
C1B N1B 1_555 1_555
H1B C1B 1_555 1_555
C2B C1B 1_555 1_555
H2B C2B 1_555 1_555
C3B C2B 1_555 1_555
H3B C3B 1_555 1_555
C4B C3B 1_555 1_555
C5B C5 1_555 1_555
H4B C5B 1_555 1_555
C6B C6 1_555 1_555
C7E C8E 1_555 1_555
C8E C9E 1_555 1_555
C9E C10 1_555 1_555
H5E C9E 1_555 1_555
C10E C9 1_555 1_555
H6E C10E 1_555 1_555
Mn1D O2 1_555 1_555
Mn1E O1E 1_555 1_555
Mn1A O2E 1_555 1_555
N1 Mn1 1_555 1_555
C4 C6 1_555 1_555
N1B C6B 1_555 1_555
C4B C5B 1_555 1_555
C4B C6B 1_555 1_555
C8E C10E 1_555 1_555

#END
