
#######################################################################
#
#                 Cambridge Crystallographic Data Centre
#                                CCDC 
#
#######################################################################
#
# If this CIF has been generated from an entry in the Cambridge 
# Structural Database, then it will include bibliographic, chemical, 
# crystal, experimental, refinement or atomic coordinate data resulting 
# from the CCDC's data processing and validation procedures.
#
#######################################################################

data_RAMHUI01
_symmetry_cell_setting           monoclinic
_symmetry_space_group_name_H-M   'C 2/c'
_symmetry_Int_Tables_number      15
_space_group_name_Hall           '-C 2yn'
loop_
_symmetry_equiv_pos_site_id
_symmetry_equiv_pos_as_xyz
1 x,y,z
2 -x,y,1/2-z
3 1/2+x,1/2+y,z
4 1/2-x,1/2+y,1/2-z
5 -x,-y,-z
6 x,-y,1/2+z
7 1/2-x,1/2-y,-z
8 1/2+x,1/2-y,1/2+z
_cell_length_a                   17.5100
_cell_length_b                   10.3940
_cell_length_c                   9.3730
_cell_angle_alpha                90.0
_cell_angle_beta                 95.88
_cell_angle_gamma                90.0
_cell_volume                     1696.9
loop_
_atom_site_label
_atom_site_type_symbol
_atom_site_fract_x
_atom_site_fract_y
_atom_site_fract_z
Mn1 Mn 0.00000 -0.43920 0.25000
O1 O -0.09050 -0.43855 0.38745
O2 O -0.07265 -0.41980 0.62750
N1 N 0.05660 -0.26275 0.36270
C1 C -0.10875 -0.40010 0.50570
C2 C -0.18260 -0.32310 0.50335
C3 C -0.21705 -0.27210 0.37445
H1 H -0.19515 -0.28695 0.28970
C4 C -0.21605 -0.30060 0.62800
H2 H -0.19370 -0.33420 0.71435
C5 C 0.11500 -0.26190 0.46695
H3 H 0.13180 -0.33975 0.50760
C6 C 0.15205 -0.14835 0.51720
H4 H 0.19390 -0.15215 0.58640
C7 C 0.12625 -0.03270 0.46375
H5 H 0.14980 0.04315 0.49755
C8 C 0.06360 -0.02895 0.35680
C9 C 0.03090 0.08965 0.30060
H6 H 0.05210 0.16740 0.33375
C10 C 0.03145 -0.14660 0.30815
C4F C -0.28395 -0.19940 0.37200
C2F C -0.31740 -0.17690 0.49665
C1F C -0.39125 -0.09990 0.49430
O1F O -0.40950 -0.06145 0.61255
O2F O -0.42735 -0.08020 0.37250
C3F C -0.28295 -0.22790 0.62555
H1F H -0.30485 -0.21305 0.71030
H2F H -0.30630 -0.16580 0.28565
C9A C -0.03090 0.08965 0.19940
C8A C -0.06360 -0.02895 0.14320
C7A C -0.12625 -0.03270 0.03625
C6A C -0.15205 -0.14835 -0.01720
C5A C -0.11500 -0.26190 0.03305
N1A N -0.05660 -0.26275 0.13730
C10A C -0.03145 -0.14660 0.19185
H3A H -0.13180 -0.33975 -0.00760
H4A H -0.19390 -0.15215 -0.08640
H5A H -0.14980 0.04315 0.00245
H6A H -0.05210 0.16740 0.16625
O1A O 0.09050 -0.43855 0.11255
O2D O 0.07265 -0.58020 0.37250
O2E O -0.07265 -0.58020 0.12750
Mn1D Mn 0.00000 -0.56080 0.75000
Mn1F Mn -0.50000 -0.06080 0.75000
Mn1B Mn -0.50000 0.06080 0.25000
loop_
_geom_bond_atom_site_label_1
_geom_bond_atom_site_label_2
_geom_bond_site_symmetry_1
_geom_bond_site_symmetry_2
Mn1 O1 1_555 1_555
O1 C1 1_555 1_555
O2 C1 1_555 1_555
N1 Mn1 1_555 1_555
C1 C2 1_555 1_555
C2 C3 1_555 1_555
C3 H1 1_555 1_555
C4 C2 1_555 1_555
H2 C4 1_555 1_555
C5 N1 1_555 1_555
H3 C5 1_555 1_555
C6 C5 1_555 1_555
H4 C6 1_555 1_555
C7 C6 1_555 1_555
H5 C7 1_555 1_555
C8 C7 1_555 1_555
C9 C8 1_555 1_555
H6 C9 1_555 1_555
C10 N1 1_555 1_555
C4F C3 1_555 1_555
C2F C4F 1_555 1_555
C1F C2F 1_555 1_555
O1F C1F 1_555 1_555
O2F C1F 1_555 1_555
C3F C4 1_555 1_555
H1F C3F 1_555 1_555
H2F C4F 1_555 1_555
C9A C9 1_555 1_555
C8A C9A 1_555 1_555
C7A C8A 1_555 1_555
C6A C7A 1_555 1_555
C5A C6A 1_555 1_555
N1A Mn1 1_555 1_555
C10A C10 1_555 1_555
H3A C5A 1_555 1_555
H4A C6A 1_555 1_555
H5A C7A 1_555 1_555
H6A C9A 1_555 1_555
O1A Mn1 1_555 1_555
O2D Mn1 1_555 1_555
O2E Mn1 1_555 1_555
Mn1D O2 1_555 1_555
Mn1F O1F 1_555 1_555
Mn1B O2F 1_555 1_555
C8 C10 1_555 1_555
C2F C3F 1_555 1_555
C8A C10A 1_555 1_555
C5A N1A 1_555 1_555
N1A C10A 1_555 1_555

#END
