
#######################################################################
#
#                 Cambridge Crystallographic Data Centre
#                                CCDC 
#
#######################################################################
#
# If this CIF has been generated from an entry in the Cambridge 
# Structural Database, then it will include bibliographic, chemical, 
# crystal, experimental, refinement or atomic coordinate data resulting 
# from the CCDC's data processing and validation procedures.
#
#######################################################################

data_RAMHES02
_symmetry_cell_setting           triclinic
_symmetry_space_group_name_H-M   'P -1'
_symmetry_Int_Tables_number      2
_space_group_name_Hall           '-P 1'
loop_
_symmetry_equiv_pos_site_id
_symmetry_equiv_pos_as_xyz
1 x,y,z
2 -x,-y,-z
_cell_length_a                   9.2685(2)
_cell_length_b                   10.4382(2)
_cell_length_c                   11.3570(3)
_cell_angle_alpha                112.4670(10)
_cell_angle_beta                 94.9610(10)
_cell_angle_gamma                113.8200(10)
_cell_volume                     890.382
loop_
_atom_site_label
_atom_site_type_symbol
_atom_site_fract_x
_atom_site_fract_y
_atom_site_fract_z
C1 C 0.88102(18) 1.46787(17) 1.06523(14)
H1 H 0.8012 1.4470 1.1094
C2 C -0.01508(17) 1.02347(16) 0.62609(13)
H2 H -0.0254 1.0391 0.7106
O1 O 0.61065(14) 1.15631(14) 0.94271(11)
C3 C 0.85951(16) 1.35265(15) 0.94152(12)
C4 C 0.70965(16) 1.19275(16) 0.87923(13)
O2 O 0.69049(14) 1.09961(12) 0.76239(10)
Co1 Co 0.48636(2) 0.89297(2) 0.715813(17)
O3 O 0.31801(13) 0.79275(12) 0.80275(10)
H3 H 0.2563 0.8303 0.8127
H4 H 0.3452 0.8084 0.8922
O4 O 0.31785(13) 0.92454(14) 0.62409(11)
O5 O 0.17762(15) 0.95540(17) 0.77365(11)
N1 N 0.52071(14) 0.76623(14) 0.53584(11)
N2 N 0.63958(16) 0.80878(15) 0.77857(12)
C5 C 0.4648(2) 0.75220(19) 0.41717(15)
H5 H 0.3951 0.7938 0.4084
C6 C 0.5069(2) 0.6774(2) 0.30572(16)
H6 H 0.4656 0.6697 0.2243
C7 C 0.6089(2) 0.6158(2) 0.31662(16)
H7 H 0.6361 0.5644 0.2423
C8 C 0.67280(19) 0.63005(17) 0.44039(15)
C9 C 0.7837(2) 0.5731(2) 0.46318(19)
H8 H 0.8146 0.5198 0.3923
C10 C 0.8443(2) 0.5951(2) 0.5857(2)
H9 H 0.9166 0.5571 0.5977
C11 C 0.7997(2) 0.67582(19) 0.69775(17)
C12 C 0.8614(2) 0.7056(2) 0.8284(2)
H10 H 0.9357 0.6719 0.8463
C13 C 0.8118(3) 0.7837(3) 0.92863(19)
H11 H 0.8520 0.8037 1.0152
C14 C 0.6998(2) 0.8335(2) 0.90010(16)
H12 H 0.6662 0.8861 0.9692
C15 C 0.68937(17) 0.73106(16) 0.67851(14)
C16 C 0.62466(17) 0.70753(15) 0.54772(14)
C17 C 0.20576(16) 0.95146(16) 0.66729(13)
C18 C 0.10013(15) 0.97790(15) 0.58116(12)
C19 C -0.11380(16) 1.04542(16) 0.54587(13)
H13 H -0.1901 1.0760 0.5768
C20 C 1.02050(19) 1.61364(17) 1.12333(14)
H14 H 1.0339 1.6896 1.2065
C1A C 1.11898(18) 1.53213(17) 0.93477(14)
H1A H 1.1988 1.5530 0.8906
C2A C 0.01508(17) 0.97653(16) 0.37391(13)
H2A H 0.0254 0.9609 0.2894
O1A O 1.38935(14) 1.84369(14) 1.05729(11)
C3A C 1.14049(16) 1.64735(15) 1.05848(12)
C4A C 1.29035(16) 1.80725(16) 1.12077(13)
O2A O 1.30951(14) 1.90039(12) 1.23761(10)
Co1A Co 1.51364(2) 2.10703(2) 1.284187(17)
Co1A_2 Co -0.48636(2) 1.10703(2) 0.284187(17)
O3A O 1.68199(13) 2.20725(12) 1.19725(10)
H3A H 1.7437 2.1697 1.1873
H4A H 1.6548 2.1916 1.1078
O4A O -0.31785(13) 1.07546(14) 0.37591(11)
O4A_2 O 1.68215(13) 2.07546(14) 1.37591(11)
O5A O -0.17762(15) 1.04460(17) 0.22635(11)
N1A N 1.47929(14) 2.23377(14) 1.46416(11)
N2A N 1.36042(16) 2.19122(15) 1.22143(12)
C5A C 1.5352(2) 2.24780(19) 1.58283(15)
H5A H 1.6049 2.2062 1.5916
C6A C 1.4931(2) 2.3226(2) 1.69428(16)
H6A H 1.5344 2.3303 1.7757
C7A C 1.3911(2) 2.3842(2) 1.68338(16)
H7A H 1.3639 2.4356 1.7577
C8A C 1.32720(19) 2.36995(17) 1.55961(15)
C9A C 1.2163(2) 2.4269(2) 1.53682(19)
H8A H 1.1854 2.4802 1.6077
C10A C 1.1557(2) 2.4049(2) 1.4143(2)
H9A H 1.0834 2.4429 1.4023
C11A C 1.2003(2) 2.32418(19) 1.30225(17)
C12A C 1.1386(2) 2.2944(2) 1.1716(2)
H10A H 1.0643 2.3281 1.1537
C13A C 1.1882(3) 2.2163(3) 1.07137(19)
H11A H 1.1480 2.1963 0.9848
C14A C 1.3002(2) 2.1665(2) 1.09990(16)
H12A H 1.3338 2.1139 1.0308
C15A C 1.31063(17) 2.26894(16) 1.32149(14)
C16A C 1.37534(17) 2.29247(15) 1.45228(14)
C17A C -0.20576(16) 1.04854(16) 0.33271(13)
C18A C -0.10013(15) 1.02210(15) 0.41884(12)
C19A C 0.11380(16) 0.95458(16) 0.45413(13)
H13A H 0.1901 0.9240 0.4232
C20A C 0.97950(19) 1.38636(17) 0.87667(14)
H14A H 0.9661 1.3104 0.7935
loop_
_geom_bond_atom_site_label_1
_geom_bond_atom_site_label_2
_geom_bond_site_symmetry_1
_geom_bond_site_symmetry_2
C1 H1 1_555 1_555
C2 H2 1_555 1_555
O1 C4 1_555 1_555
C3 C1 1_555 1_555
C4 C3 1_555 1_555
O2 C4 1_555 1_555
Co1 O2 1_555 1_555
O3 Co1 1_555 1_555
H3 O3 1_555 1_555
H4 O3 1_555 1_555
O4 Co1 1_555 1_555
O5 C17 1_555 1_555
N1 Co1 1_555 1_555
N2 Co1 1_555 1_555
C5 N1 1_555 1_555
H5 C5 1_555 1_555
C6 C5 1_555 1_555
H6 C6 1_555 1_555
C7 C6 1_555 1_555
H7 C7 1_555 1_555
C8 C7 1_555 1_555
C9 C8 1_555 1_555
H8 C9 1_555 1_555
C10 C9 1_555 1_555
H9 C10 1_555 1_555
C11 C10 1_555 1_555
C12 C11 1_555 1_555
H10 C12 1_555 1_555
C13 C12 1_555 1_555
H11 C13 1_555 1_555
C14 N2 1_555 1_555
H12 C14 1_555 1_555
C15 N2 1_555 1_555
C16 N1 1_555 1_555
C17 O4 1_555 1_555
C18 C2 1_555 1_555
C19 C2 1_555 1_555
H13 C19 1_555 1_555
C20 C1 1_555 1_555
H14 C20 1_555 1_555
C1A H1A 1_555 1_555
C2A H2A 1_555 1_555
O1A C4A 1_555 1_555
C3A C20 1_555 1_555
C4A C3A 1_555 1_555
O2A C4A 1_555 1_555
Co1A O2A 1_555 1_555
Co1A_2 O4A 1_555 1_555
O3A Co1A 1_555 1_555
H3A O3A 1_555 1_555
H4A O3A 1_555 1_555
O4A C17A 1_555 1_555
O4A_2 Co1A 1_555 1_555
O5A C17A 1_555 1_555
N1A Co1A 1_555 1_555
N2A Co1A 1_555 1_555
C5A N1A 1_555 1_555
H5A C5A 1_555 1_555
C6A C5A 1_555 1_555
H6A C6A 1_555 1_555
C7A C6A 1_555 1_555
H7A C7A 1_555 1_555
C8A C7A 1_555 1_555
C9A C8A 1_555 1_555
H8A C9A 1_555 1_555
C10A C9A 1_555 1_555
H9A C10A 1_555 1_555
C11A C10A 1_555 1_555
C12A C11A 1_555 1_555
H10A C12A 1_555 1_555
C13A C12A 1_555 1_555
H11A C13A 1_555 1_555
C14A N2A 1_555 1_555
H12A C14A 1_555 1_555
C15A N2A 1_555 1_555
C16A N1A 1_555 1_555
C17A C18A 1_555 1_555
C18A C19 1_555 1_555
C19A C18 1_555 1_555
H13A C19A 1_555 1_555
C20A C3 1_555 1_555
H14A C20A 1_555 1_555
C8 C16 1_555 1_555
C11 C15 1_555 1_555
C13 C14 1_555 1_555
C15 C16 1_555 1_555
C17 C18 1_555 1_555
C1A C3A 1_555 1_555
C1A C20A 1_555 1_555
C2A C18A 1_555 1_555
C2A C19A 1_555 1_555
C8A C16A 1_555 1_555
C11A C15A 1_555 1_555
C13A C14A 1_555 1_555
C15A C16A 1_555 1_555

#END
