
#######################################################################
#
#                 Cambridge Crystallographic Data Centre
#                                CCDC 
#
#######################################################################
#
# If this CIF has been generated from an entry in the Cambridge 
# Structural Database, then it will include bibliographic, chemical, 
# crystal, experimental, refinement or atomic coordinate data resulting 
# from the CCDC's data processing and validation procedures.
#
#######################################################################

data_RAMHES
_symmetry_cell_setting           triclinic
_symmetry_space_group_name_H-M   'P -1'
_symmetry_Int_Tables_number      2
_space_group_name_Hall           '-P 1'
loop_
_symmetry_equiv_pos_site_id
_symmetry_equiv_pos_as_xyz
1 x,y,z
2 -x,-y,-z
_cell_length_a                   9.279(1)
_cell_length_b                   10.3777(9)
_cell_length_c                   11.271(1)
_cell_angle_alpha                112.207(2)
_cell_angle_beta                 94.849(3)
_cell_angle_gamma                114.170(4)
_cell_volume                     879.189
loop_
_atom_site_label
_atom_site_type_symbol
_atom_site_fract_x
_atom_site_fract_y
_atom_site_fract_z
Co1 Co -0.98407(3) 0.11041(3) -0.21412(3)
O1 O -0.8158(2) 0.2097(2) -0.3035(1)
O2 O -1.8102(2) -0.9029(2) -0.7388(1)
O3 O -1.8931(2) -0.8450(2) -0.5585(1)
O4 O -0.8166(2) 0.0774(2) -0.1230(1)
O5 O -0.6769(2) 0.0468(2) -0.2744(1)
N1 N 0.1368(2) -0.1945(2) 0.2774(2)
N2 N 0.0191(2) -0.2357(2) 0.0339(2)
C1 C 0.1975(3) -0.1699(3) 0.3998(2)
C2 C 0.1875(2) -0.2713(2) 0.1772(2)
C3 C 0.3092(3) -0.2190(3) 0.4288(2)
C4 C 0.1237(2) -0.2940(2) 0.0457(2)
C5 C 0.3598(3) -0.2966(3) 0.3283(3)
C6 C 0.2989(3) -0.3260(2) 0.1968(2)
C7 C 0.3444(3) -0.4055(3) 0.0845(3)
C8 C 0.2848(3) -0.4266(3) -0.0384(2)
C9 C 0.1730(3) -0.3704(2) -0.0620(2)
C10 C 0.1101(3) -0.3834(3) -0.1864(2)
C11 C 0.0073(3) -0.3224(3) -0.1974(2)
C12 C -0.0359(3) -0.2495(2) -0.0855(2)
C13 C -1.7920(2) -0.8085(2) -0.6219(2)
C14 C -1.6415(2) -0.6484(2) -0.5590(2)
C15 C -1.6208(3) -0.5320(2) -0.4353(2)
C16 C -1.5194(3) -0.6147(2) -0.6234(2)
C17 C -0.7055(2) 0.0498(2) -0.1672(2)
C18 C -0.5996(2) 0.0228(2) -0.0811(2)
C19 C -0.6138(2) 0.0451(2) 0.0461(2)
C20 C -0.5153(2) 0.0224(2) 0.1265(2)
H1 H 0.1625 -0.1158 0.4717
H2 H 0.3504 -0.1981 0.5188
H3 H 0.4356 -0.3325 0.3473
H4 H 0.4205 -0.4433 0.0975
H5 H 0.3165 -0.4815 -0.1123
H6 H 0.1384 -0.4360 -0.2643
H7 H -0.0343 -0.3294 -0.2820
H8 H -0.1083 -0.2061 -0.0938
H9 H -1.5321 -0.6937 -0.7086
H10 H -0.3069 -0.0759 -0.0772
H11 H -0.4749 -0.0381 -0.2145
C16A C -1.4806(3) -0.3853(2) -0.3766(2)
C14A C -1.3585(2) -0.3516(2) -0.4410(2)
C13A C -1.2080(2) -0.1915(2) -0.3781(2)
O2A O -1.1898(2) -0.0971(2) -0.2612(1)
Co1A Co -2.01593(3) -1.11041(3) -0.78588(3)
C18A C -0.4004(2) -0.0228(2) 0.0811(2)
C17A C -0.2945(2) -0.0498(2) 0.1672(2)
O4A O -0.1834(2) -0.0774(2) 0.1230(1)
Co1A_2 Co -0.01593(3) -0.11041(3) 0.21412(3)
O1A O -0.1842(2) -0.2097(2) 0.3035(1)
O2_2 O 0.1898(2) 0.0971(2) 0.2612(1)
O5A O -0.3231(2) -0.0468(2) 0.2744(1)
C19A C -0.3862(2) -0.0451(2) -0.0461(2)
C20A C -0.4847(2) -0.0224(2) -0.1265(2)
H11A H -0.5251 0.0381 0.2145
H10A H -0.6931 0.0759 0.0772
N1A N -1.1368(2) 0.1945(2) -0.2774(2)
C1A C -1.1975(3) 0.1699(3) -0.3998(2)
C3A C -1.3092(3) 0.2190(3) -0.4288(2)
C5A C -1.3598(3) 0.2966(3) -0.3283(3)
C6A C -1.2989(3) 0.3260(2) -0.1968(2)
C2A C -1.1875(2) 0.2713(2) -0.1772(2)
C4A C -1.1237(2) 0.2940(2) -0.0457(2)
N2A N -1.0191(2) 0.2357(2) -0.0339(2)
C12A C -0.9641(3) 0.2495(2) 0.0855(2)
C11A C -1.0073(3) 0.3224(3) 0.1974(2)
C10A C -1.1101(3) 0.3834(3) 0.1864(2)
C9A C -1.1730(3) 0.3704(2) 0.0620(2)
C8A C -1.2848(3) 0.4266(3) 0.0384(2)
C7A C -1.3444(3) 0.4055(3) -0.0845(3)
H4A H -1.4205 0.4433 -0.0975
H5A H -1.3165 0.4815 0.1123
H6A H -1.1384 0.4360 0.2643
H7A H -0.9657 0.3294 0.2820
H8A H -0.8917 0.2061 0.0938
H3A H -1.4356 0.3325 -0.3473
H2A H -1.3504 0.1981 -0.5188
H1A H -1.1625 0.1158 -0.4717
O3A O -1.1069(2) -0.1550(2) -0.4415(1)
C15A C -1.3792(3) -0.4680(2) -0.5647(2)
H9A H -1.4679 -0.3063 -0.2914
loop_
_geom_bond_atom_site_label_1
_geom_bond_atom_site_label_2
_geom_bond_site_symmetry_1
_geom_bond_site_symmetry_2
Co1 O1 1_555 1_555
O2 C13 1_555 1_555
O3 C13 1_555 1_555
O4 Co1 1_555 1_555
O5 C17 1_555 1_555
N1 C1 1_555 1_555
N2 C4 1_555 1_555
C1 C3 1_555 1_555
C2 N1 1_555 1_555
C3 C5 1_555 1_555
C4 C2 1_555 1_555
C5 C6 1_555 1_555
C6 C2 1_555 1_555
C7 C6 1_555 1_555
C8 C7 1_555 1_555
C9 C4 1_555 1_555
C10 C9 1_555 1_555
C11 C10 1_555 1_555
C12 N2 1_555 1_555
C13 C14 1_555 1_555
C14 C15 1_555 1_555
C15 C16A 1_555 1_555
C16 C14 1_555 1_555
C17 O4 1_555 1_555
C18 C17 1_555 1_555
C19 C18 1_555 1_555
C20 C19 1_555 1_555
H1 C1 1_555 1_555
H2 C3 1_555 1_555
H3 C5 1_555 1_555
H4 C7 1_555 1_555
H5 C8 1_555 1_555
H6 C10 1_555 1_555
H7 C11 1_555 1_555
H8 C12 1_555 1_555
H9 C16 1_555 1_555
H10 C19A 1_555 1_555
H11 C20A 1_555 1_555
C16A C14A 1_555 1_555
C14A C13A 1_555 1_555
C13A O2A 1_555 1_555
O2A Co1 1_555 1_555
Co1A O2 1_555 1_555
C18A C20 1_555 1_555
C17A C18A 1_555 1_555
O4A C17A 1_555 1_555
Co1A_2 N1 1_555 1_555
O1A Co1A_2 1_555 1_555
O2_2 Co1A_2 1_555 1_555
O5A C17A 1_555 1_555
C19A C18A 1_555 1_555
C20A C18 1_555 1_555
H11A C20 1_555 1_555
H10A C19 1_555 1_555
N1A Co1 1_555 1_555
C1A N1A 1_555 1_555
C3A C1A 1_555 1_555
C5A C3A 1_555 1_555
C6A C5A 1_555 1_555
C2A N1A 1_555 1_555
C4A C2A 1_555 1_555
N2A Co1 1_555 1_555
C12A N2A 1_555 1_555
C11A C12A 1_555 1_555
C10A C11A 1_555 1_555
C9A C4A 1_555 1_555
C8A C9A 1_555 1_555
C7A C6A 1_555 1_555
H4A C7A 1_555 1_555
H5A C8A 1_555 1_555
H6A C10A 1_555 1_555
H7A C11A 1_555 1_555
H8A C12A 1_555 1_555
H3A C5A 1_555 1_555
H2A C3A 1_555 1_555
H1A C1A 1_555 1_555
O3A C13A 1_555 1_555
C15A C16 1_555 1_555
H9A C16A 1_555 1_555
N2 Co1A_2 1_555 1_555
C8 C9 1_555 1_555
C11 C12 1_555 1_555
C14A C15A 1_555 1_555
O4A Co1A_2 1_555 1_555
C19A C20A 1_555 1_555
C6A C2A 1_555 1_555
C4A N2A 1_555 1_555
C10A C9A 1_555 1_555
C8A C7A 1_555 1_555

#END
