
#######################################################################
#
#                 Cambridge Crystallographic Data Centre
#                                CCDC 
#
#######################################################################
#
# If this CIF has been generated from an entry in the Cambridge 
# Structural Database, then it will include bibliographic, chemical, 
# crystal, experimental, refinement or atomic coordinate data resulting 
# from the CCDC's data processing and validation procedures.
#
#######################################################################

data_RAMHES01
_symmetry_cell_setting           triclinic
_symmetry_space_group_name_H-M   'P -1'
_symmetry_Int_Tables_number      2
_space_group_name_Hall           '-P 1'
loop_
_symmetry_equiv_pos_site_id
_symmetry_equiv_pos_as_xyz
1 x,y,z
2 -x,-y,-z
_cell_length_a                   9.2688(17)
_cell_length_b                   10.4550(18)
_cell_length_c                   11.349(2)
_cell_angle_alpha                112.462(3)
_cell_angle_beta                 94.924(2)
_cell_angle_gamma                113.908(2)
_cell_volume                     890.637
loop_
_atom_site_label
_atom_site_type_symbol
_atom_site_fract_x
_atom_site_fract_y
_atom_site_fract_z
Co1 Co 0.48616(5) 0.89276(5) 0.71582(4)
O1 O 0.6905(2) 1.0993(2) 0.76184(17)
O2 O 0.6103(2) 1.1559(2) 0.94286(18)
O3 O 0.3173(2) 0.9240(2) 0.62329(18)
O4 O 0.1766(2) 0.9539(2) 0.77342(19)
O5 O 0.3172(3) 0.7923(2) 0.8026(2)
N1 N 0.5205(3) 0.7662(2) 0.5357(2)
N2 N 0.6386(3) 0.8084(2) 0.7780(2)
C1 C 0.4644(4) 0.7520(4) 0.4169(3)
C2 C 0.5080(5) 0.6784(4) 0.3062(3)
C3 C 0.6096(5) 0.6167(4) 0.3171(3)
C4 C 0.6720(4) 0.6304(3) 0.4401(3)
C5 C 0.7823(4) 0.5732(4) 0.4635(4)
C6 C 0.8429(5) 0.5955(4) 0.5849(4)
C7 C 0.7984(4) 0.6753(3) 0.6971(3)
C8 C 0.8586(5) 0.7047(4) 0.8276(4)
C9 C 0.8100(5) 0.7826(4) 0.9279(4)
C10 C 0.6993(4) 0.8318(4) 0.8988(3)
C11 C 0.6884(3) 0.7306(3) 0.6780(3)
C12 C 0.6241(3) 0.7078(3) 0.5477(3)
C13 C 0.7102(3) 1.1933(3) 0.8795(3)
C14 C 0.8598(3) 1.3524(3) 0.9413(2)
C15 C 0.9787(4) 1.3873(3) 0.8773(3)
C16 C 0.8823(4) 1.4680(4) 1.0651(3)
C17 C 0.2049(4) 0.9510(3) 0.6664(3)
C18 C 0.0991(3) 0.9771(3) 0.5811(3)
C19 C 0.1137(4) 0.9550(3) 0.4548(3)
C20 C -0.0147(4) 1.0232(3) 0.6253(3)
H1 H 0.387(3) 0.792(3) 0.407(2)
H2 H 0.465(3) 0.670(3) 0.232(2)
H3 H 0.636(3) 0.566(3) 0.242(3)
H4 H 0.817(3) 0.524(3) 0.389(3)
H5 H 0.910(3) 0.554(3) 0.605(3)
H6 H 0.931(3) 0.671(3) 0.839(3)
H7 H 0.848(3) 0.806(3) 1.018(3)
H8 H 0.666(3) 0.885(3) 0.964(2)
H9 H 0.962(3) 1.304(3) 0.791(2)
H10 H 0.801(3) 1.445(3) 1.107(2)
H11 H 0.190(3) 0.921(2) 0.425(2)
H12 H -0.025(3) 1.034(2) 0.711(2)
H13 H 0.254(4) 0.841(3) 0.799(3)
H14 H 0.349(5) 0.808(4) 0.885(4)
C16A C 1.1177(4) 1.5320(4) 0.9349(3)
C14A C 1.1402(3) 1.6476(3) 1.0587(2)
C13A C 1.2898(3) 1.8067(3) 1.1205(3)
O1A O 1.3095(2) 1.9007(2) 1.23816(17)
O2A O 1.3897(2) 1.8441(2) 1.05714(18)
C15A C 1.0213(4) 1.6127(3) 1.1227(3)
H9A H 1.038(3) 1.696(3) 1.209(2)
H10A H 1.199(3) 1.555(3) 0.893(2)
C20A C 0.0147(4) 0.9768(3) 0.3747(3)
C18A C -0.0991(3) 1.0229(3) 0.4189(3)
C17A C -0.2049(4) 1.0490(3) 0.3336(3)
O3A O -0.3173(2) 1.0760(2) 0.37671(18)
O4A O -0.1766(2) 1.0461(2) 0.22658(19)
C19A C -0.1137(4) 1.0450(3) 0.5452(3)
H11A H -0.190(3) 1.079(2) 0.575(2)
H12A H 0.025(3) 0.966(2) 0.289(2)
Co1A Co 1.51384(5) 2.10724(5) 1.28418(4)
O5A O 1.6828(3) 2.2077(2) 1.1974(2)
H13A H 1.746(4) 2.159(3) 1.201(3)
H14A H 1.651(5) 2.192(4) 1.115(4)
N1A N 1.4795(3) 2.2338(2) 1.4643(2)
N2A N 1.3614(3) 2.1916(2) 1.2220(2)
C1A C 1.5356(4) 2.2480(4) 1.5831(3)
C2A C 1.4920(5) 2.3216(4) 1.6938(3)
C3A C 1.3904(5) 2.3833(4) 1.6829(3)
C4A C 1.3280(4) 2.3696(3) 1.5599(3)
C5A C 1.2177(4) 2.4268(4) 1.5365(4)
C6A C 1.1571(5) 2.4045(4) 1.4151(4)
C7A C 1.2016(4) 2.3247(3) 1.3029(3)
C8A C 1.1414(5) 2.2953(4) 1.1724(4)
C9A C 1.1900(5) 2.2174(4) 1.0721(4)
C10A C 1.3007(4) 2.1682(4) 1.1012(3)
C11A C 1.3116(3) 2.2694(3) 1.3220(3)
C12A C 1.3759(3) 2.2922(3) 1.4523(3)
H1A H 1.613(3) 2.208(3) 1.593(2)
H2A H 1.535(3) 2.330(3) 1.768(2)
H3A H 1.364(3) 2.434(3) 1.758(3)
H4A H 1.183(3) 2.476(3) 1.611(3)
H5A H 1.090(3) 2.446(3) 1.395(3)
H6A H 1.069(3) 2.329(3) 1.161(3)
H7A H 1.152(3) 2.194(3) 0.982(3)
H8A H 1.334(3) 2.115(3) 1.036(2)
Co1A_2 Co -0.48616(5) 1.10724(5) 0.28418(4)
O3A_2 O 1.6827(2) 2.0760(2) 1.37671(18)
loop_
_geom_bond_atom_site_label_1
_geom_bond_atom_site_label_2
_geom_bond_site_symmetry_1
_geom_bond_site_symmetry_2
Co1 O1 1_555 1_555
O1 C13 1_555 1_555
O2 C13 1_555 1_555
O3 Co1 1_555 1_555
O4 C17 1_555 1_555
O5 Co1 1_555 1_555
N1 Co1 1_555 1_555
N2 Co1 1_555 1_555
C1 N1 1_555 1_555
C2 C1 1_555 1_555
C3 C2 1_555 1_555
C4 C3 1_555 1_555
C5 C4 1_555 1_555
C6 C5 1_555 1_555
C7 C6 1_555 1_555
C8 C7 1_555 1_555
C9 C8 1_555 1_555
C10 N2 1_555 1_555
C11 N2 1_555 1_555
C12 N1 1_555 1_555
C13 C14 1_555 1_555
C14 C15 1_555 1_555
C15 H9 1_555 1_555
C16 C14 1_555 1_555
C17 O3 1_555 1_555
C18 C17 1_555 1_555
C19 C18 1_555 1_555
C20 C18 1_555 1_555
H1 C1 1_555 1_555
H2 C2 1_555 1_555
H3 C3 1_555 1_555
H4 C5 1_555 1_555
H5 C6 1_555 1_555
H6 C8 1_555 1_555
H7 C9 1_555 1_555
H8 C10 1_555 1_555
H10 C16 1_555 1_555
H11 C19 1_555 1_555
H12 C20 1_555 1_555
H13 O5 1_555 1_555
H14 O5 1_555 1_555
C16A C15 1_555 1_555
C14A C16A 1_555 1_555
C13A C14A 1_555 1_555
O1A C13A 1_555 1_555
O2A C13A 1_555 1_555
C15A C16 1_555 1_555
H9A C15A 1_555 1_555
H10A C16A 1_555 1_555
C20A C19 1_555 1_555
C18A C20A 1_555 1_555
C17A C18A 1_555 1_555
O3A C17A 1_555 1_555
O4A C17A 1_555 1_555
C19A C20 1_555 1_555
H11A C19A 1_555 1_555
H12A C20A 1_555 1_555
Co1A O1A 1_555 1_555
O5A Co1A 1_555 1_555
H13A O5A 1_555 1_555
H14A O5A 1_555 1_555
N1A Co1A 1_555 1_555
N2A Co1A 1_555 1_555
C1A N1A 1_555 1_555
C2A C1A 1_555 1_555
C3A C2A 1_555 1_555
C4A C3A 1_555 1_555
C5A C4A 1_555 1_555
C6A C5A 1_555 1_555
C7A C6A 1_555 1_555
C8A C7A 1_555 1_555
C9A C8A 1_555 1_555
C10A N2A 1_555 1_555
C11A N2A 1_555 1_555
C12A N1A 1_555 1_555
H1A C1A 1_555 1_555
H2A C2A 1_555 1_555
H3A C3A 1_555 1_555
H4A C5A 1_555 1_555
H5A C6A 1_555 1_555
H6A C8A 1_555 1_555
H7A C9A 1_555 1_555
H8A C10A 1_555 1_555
Co1A_2 O3A 1_555 1_555
O3A_2 Co1A 1_555 1_555
C4 C12 1_555 1_555
C7 C11 1_555 1_555
C9 C10 1_555 1_555
C11 C12 1_555 1_555
C14A C15A 1_555 1_555
C18A C19A 1_555 1_555
C4A C12A 1_555 1_555
C7A C11A 1_555 1_555
C9A C10A 1_555 1_555
C11A C12A 1_555 1_555

#END
