
#######################################################################
#
#                 Cambridge Crystallographic Data Centre
#                                CCDC 
#
#######################################################################
#
# If this CIF has been generated from an entry in the Cambridge 
# Structural Database, then it will include bibliographic, chemical, 
# crystal, experimental, refinement or atomic coordinate data resulting 
# from the CCDC's data processing and validation procedures.
#
#######################################################################

data_RAMHOC01
_symmetry_cell_setting           triclinic
_symmetry_space_group_name_H-M   'P 1'
_symmetry_Int_Tables_number      1
_space_group_name_Hall           'P 1'
loop_
_symmetry_equiv_pos_site_id
_symmetry_equiv_pos_as_xyz
1 x,y,z
_cell_length_a                   9.18600(10)
_cell_length_b                   10.58300(10)
_cell_length_c                   11.5683(2)
_cell_angle_alpha                114.7040(10)
_cell_angle_beta                 91.5380(10)
_cell_angle_gamma                115.1140(10)
_cell_volume                     896.144
loop_
_atom_site_label
_atom_site_type_symbol
_atom_site_fract_x
_atom_site_fract_y
_atom_site_fract_z
Zn1 Zn -0.47834(3) 0.03550(3) -0.11922(2)
Zn2 Zn 0.47126(3) -0.18168(3) 0.28843(2)
N1 N -0.5242(6) 0.1647(6) 0.0593(5)
N2 N -0.6284(7) 0.1224(7) -0.1779(5)
C1 C -0.6265(8) 0.2179(7) 0.0465(6)
C2 C -0.6880(9) 0.0925(9) -0.3000(6)
H1 H -0.6491 0.0408 -0.3678
C3 C -0.6844(7) 0.1928(7) -0.0845(6)
C4 C -0.6196(10) 0.3160(8) 0.2785(6)
H2 H -0.6497 0.3685 0.3525
C5 C -0.4716(8) 0.1831(8) 0.1802(6)
H3 H -0.4012 0.1431 0.1877
C6 C -0.7979(7) 0.2482(7) -0.1012(7)
C7 C -0.6771(9) 0.2972(8) 0.1580(7)
C8 C -0.8530(10) 0.2151(11) -0.2237(9)
H4 H -0.9280 0.2475 -0.2385
C9 C -0.7918(9) 0.3530(9) 0.1351(6)
H5 H -0.8259 0.4061 0.2060
C10 C -0.8481(10) 0.3308(10) 0.0185(8)
H6 H -0.9215 0.3674 0.0100
C11 C -0.8028(8) 0.1332(9) -0.3320(7)
H7 H -0.8431 0.1086 -0.4174
C12 C -0.5148(9) 0.2539(8) 0.2861(7)
H8 H -0.4757 0.2625 0.3655
C13 C -0.1044(7) -0.0496(8) 0.0072(6)
C14 C -0.1110(7) -0.0192(8) 0.1360(6)
H9 H -0.1815 0.0196 0.1731
C15 C 0.1109(7) -0.1227(8) 0.0364(6)
H10 H 0.1896 -0.1532 0.0063
C16 C 0.0927(7) -0.0895(7) 0.1624(6)
C17 C 0.2001(6) -0.1144(7) 0.2493(6)
C18 C -0.0171(7) -0.0443(7) 0.2105(5)
H11 H -0.0304 -0.0299 0.2937
C19 C -0.2048(7) -0.0267(7) -0.0719(6)
C20 C 0.6768(8) -0.2378(9) 0.4683(7)
H12 H 0.6404 -0.1854 0.5378
C21 C 0.6178(8) -0.3727(8) 0.1181(7)
C22 C 0.0086(7) -0.1097(7) -0.0447(6)
H13 H 0.0128 -0.1395 -0.1319
C23 C 0.6784(8) -0.3447(7) 0.2461(6)
C24 C 0.6148(8) -0.4633(9) -0.1064(7)
H14 H 0.6475 -0.5136 -0.1797
C25 C 0.7868(10) -0.2905(10) 0.4901(8)
H15 H 0.8195 -0.2726 0.5747
C26 C 0.4634(9) -0.3257(8) -0.0038(6)
H16 H 0.3942 -0.2850 -0.0126
C27 C 0.7884(9) -0.3941(9) 0.2653(7)
C28 C 0.6744(9) -0.4483(8) 0.0169(6)
C29 C 0.7820(8) -0.5021(9) 0.0375(8)
H17 H 0.8163 -0.5568 -0.0323
C30 C 0.8370(10) -0.4734(10) 0.1618(8)
H18 H 0.9093 -0.5090 0.1755
C31 C 0.8467(9) -0.3639(9) 0.3980(7)
H19 H 0.9217 -0.3947 0.4163
C32 C 0.5147(9) -0.4075(9) -0.1182(6)
H20 H 0.4766 -0.4200 -0.1996
O1 O -0.3024(5) 0.1233(6) -0.2115(5)
H21 H -0.2560 0.0688 -0.2363
O2 O 0.6567(6) 0.0373(5) 0.3486(4)
O3 O 0.2966(6) -0.2710(6) 0.3772(4)
H22 H 0.2214 -0.2507 0.3686
O4 O 0.2993(6) -0.1635(6) 0.1919(4)
O5 O 0.6145(6) 0.0778(6) 0.5474(5)
O6 O -0.3068(6) 0.0159(7) -0.0251(5)
O7 O 0.1788(7) -0.0928(7) 0.3578(5)
O8 O -0.1862(7) -0.0495(8) -0.1860(5)
C33 C 0.7013(7) 0.1224(7) 0.4737(5)
C34 C 0.8474(7) 0.2760(7) 0.5288(5)
C35 C 0.9017(8) 0.3846(7) 0.6660(5)
H23 H 0.8401 0.3552 0.7214
C36 C 0.9462(9) 0.3268(8) 0.4527(6)
H24 H 0.9136 0.2629 0.3621
C37 C 1.1363(7) 0.5698(6) 0.6376(6)
C38 C 1.0396(8) 0.5295(9) 0.7194(6)
H25 H 1.0684 0.5997 0.8086
C39 C 1.0956(8) 0.4731(7) 0.5083(6)
H26 H 1.1640 0.5013 0.4558
C40 C 1.2988(6) 0.7340(6) 0.6977(6)
O9 O 1.3724(6) 0.7773(6) 0.6256(5)
O10 O 1.3338(5) 0.8161(5) 0.8192(4)
N3 N 0.6257(7) -0.2623(7) 0.3510(5)
N4 N 0.5135(6) -0.3099(6) 0.1094(5)
H27 H -0.332(4) 0.107(4) -0.304(3)
H28 H 0.321(4) -0.274(4) 0.417(4)
Zn1_2 Zn 1.52166(3) 1.03550(3) 0.88078(2)
O10_2 O -0.6662(5) -0.1839(5) -0.1808(4)
loop_
_geom_bond_atom_site_label_1
_geom_bond_atom_site_label_2
_geom_bond_site_symmetry_1
_geom_bond_site_symmetry_2
Zn1 N1 1_555 1_555
Zn2 O2 1_555 1_555
N1 C1 1_555 1_555
N2 Zn1 1_555 1_555
C1 C3 1_555 1_555
C2 N2 1_555 1_555
H1 C2 1_555 1_555
C3 N2 1_555 1_555
C4 H2 1_555 1_555
C5 N1 1_555 1_555
H3 C5 1_555 1_555
C6 C3 1_555 1_555
C7 C1 1_555 1_555
C8 C6 1_555 1_555
H4 C8 1_555 1_555
C9 C7 1_555 1_555
H5 C9 1_555 1_555
C10 C6 1_555 1_555
H6 C10 1_555 1_555
C11 C2 1_555 1_555
H7 C11 1_555 1_555
C12 C4 1_555 1_555
H8 C12 1_555 1_555
C13 C14 1_555 1_555
C14 H9 1_555 1_555
C15 H10 1_555 1_555
C16 C15 1_555 1_555
C17 C16 1_555 1_555
C18 C14 1_555 1_555
H11 C18 1_555 1_555
C19 C13 1_555 1_555
C20 H12 1_555 1_555
C21 C23 1_555 1_555
C22 C13 1_555 1_555
H13 C22 1_555 1_555
C23 C27 1_555 1_555
C24 H14 1_555 1_555
C25 C20 1_555 1_555
H15 C25 1_555 1_555
C26 H16 1_555 1_555
C27 C30 1_555 1_555
C28 C21 1_555 1_555
C29 C28 1_555 1_555
H17 C29 1_555 1_555
C30 C29 1_555 1_555
H18 C30 1_555 1_555
C31 C25 1_555 1_555
H19 C31 1_555 1_555
C32 C24 1_555 1_555
H20 C32 1_555 1_555
O1 Zn1 1_555 1_555
H21 O1 1_555 1_555
O2 C33 1_555 1_555
O3 Zn2 1_555 1_555
H22 O3 1_555 1_555
O4 Zn2 1_555 1_555
O5 C33 1_555 1_555
O6 Zn1 1_555 1_555
O7 C17 1_555 1_555
O8 C19 1_555 1_555
C33 C34 1_555 1_555
C34 C35 1_555 1_555
C35 H23 1_555 1_555
C36 C34 1_555 1_555
H24 C36 1_555 1_555
C37 C38 1_555 1_555
C38 C35 1_555 1_555
H25 C38 1_555 1_555
C39 C36 1_555 1_555
H26 C39 1_555 1_555
C40 C37 1_555 1_555
O9 C40 1_555 1_555
O10 C40 1_555 1_555
N3 Zn2 1_555 1_555
N4 Zn2 1_555 1_555
H27 O1 1_555 1_555
H28 O3 1_555 1_555
Zn1_2 O10 1_555 1_555
O10_2 Zn1 1_555 1_555
C4 C7 1_555 1_555
C5 C12 1_555 1_555
C8 C11 1_555 1_555
C9 C10 1_555 1_555
C15 C22 1_555 1_555
C16 C18 1_555 1_555
C17 O4 1_555 1_555
C19 O6 1_555 1_555
C20 N3 1_555 1_555
C21 N4 1_555 1_555
C23 N3 1_555 1_555
C24 C28 1_555 1_555
C26 C32 1_555 1_555
C26 N4 1_555 1_555
C27 C31 1_555 1_555
C37 C39 1_555 1_555

#END
