
#######################################################################
#
#                 Cambridge Crystallographic Data Centre
#                                CCDC 
#
#######################################################################
#
# If this CIF has been generated from an entry in the Cambridge 
# Structural Database, then it will include bibliographic, chemical, 
# crystal, experimental, refinement or atomic coordinate data resulting 
# from the CCDC's data processing and validation procedures.
#
#######################################################################

data_RAMHUI03
_symmetry_cell_setting           monoclinic
_symmetry_space_group_name_H-M   'C 2/c'
_symmetry_Int_Tables_number      15
_space_group_name_Hall           '-C 2yn'
loop_
_symmetry_equiv_pos_site_id
_symmetry_equiv_pos_as_xyz
1 x,y,z
2 -x,y,1/2-z
3 1/2+x,1/2+y,z
4 1/2-x,1/2+y,1/2-z
5 -x,-y,-z
6 x,-y,1/2+z
7 1/2-x,1/2-y,-z
8 1/2+x,1/2-y,1/2+z
_cell_length_a                   17.436(7)
_cell_length_b                   10.313(5)
_cell_length_c                   9.294(6)
_cell_angle_alpha                90
_cell_angle_beta                 96.18(2)
_cell_angle_gamma                90
_cell_volume                     1661.51
loop_
_atom_site_label
_atom_site_type_symbol
_atom_site_fract_x
_atom_site_fract_y
_atom_site_fract_z
Mn1 Mn 0.0000 0.44825(3) 0.2500
N1 N -0.05683(9) 0.26293(15) 0.13812(18)
O1 O -0.07266(7) 0.58078(13) 0.12686(15)
O2 O -0.09060(8) 0.56177(14) -0.11279(15)
C1 C -0.11521(12) 0.2621(2) 0.0343(2)
H1 H -0.1322 0.3408 -0.0062
C2 C -0.15246(14) 0.1490(2) -0.0171(3)
H2 H -0.1946 0.1532 -0.0874
C3 C -0.12660(13) 0.0328(2) 0.0363(3)
H3 H -0.1507 -0.0433 0.0022
C4 C -0.06339(12) 0.02778(19) 0.1432(2)
C5 C -0.03162(10) 0.14700(18) 0.1930(2)
C6 C -0.03077(13) -0.0907(2) 0.1998(3)
H4 H -0.0524 -0.1691 0.1669
C7 C -0.10870(9) 0.60040(17) 0.00572(19)
C8 C -0.18242(9) 0.67710(16) 0.00285(18)
C9 C -0.21715(10) 0.72828(19) -0.12628(19)
H5 H -0.1953 0.7137 -0.2118
C10 C -0.21587(10) 0.69910(19) 0.12883(19)
H6 H -0.1933 0.6649 0.2159
Mn1D Mn 0.0000 0.55175(3) -0.2500
Mn1F Mn -0.5000 1.05175(3) -0.2500
Mn1B Mn -0.5000 0.94825(3) 0.2500
N1A N 0.05683(9) 0.26293(15) 0.36188(18)
O1F O -0.42734(7) 0.91922(13) -0.12686(15)
O1A O 0.07266(7) 0.58078(13) 0.37314(15)
O2F O -0.40940(8) 0.93823(14) 0.11279(15)
O2D O 0.09060(8) 0.43823(14) 0.11279(15)
O2E O -0.09060(8) 0.43823(14) 0.38721(15)
C1A C 0.11521(12) 0.2621(2) 0.4657(2)
H1A H 0.1322 0.3408 0.5062
C2A C 0.15246(14) 0.1490(2) 0.5171(3)
H2A H 0.1946 0.1532 0.5874
C3A C 0.12660(13) 0.0328(2) 0.4637(3)
H3A H 0.1507 -0.0433 0.4978
C4A C 0.06339(12) 0.02778(19) 0.3568(2)
C5A C 0.03162(10) 0.14700(18) 0.3070(2)
C6A C 0.03077(13) -0.0907(2) 0.3002(3)
H4A H 0.0524 -0.1691 0.3331
C7F C -0.39130(9) 0.89960(17) -0.00572(19)
C8F C -0.31758(9) 0.82290(16) -0.00285(18)
C9F C -0.28285(10) 0.77172(19) 0.12628(19)
H5F H -0.3047 0.7863 0.2118
C10F C -0.28413(10) 0.80090(19) -0.12883(19)
H6F H -0.3067 0.8351 -0.2159
loop_
_geom_bond_atom_site_label_1
_geom_bond_atom_site_label_2
_geom_bond_site_symmetry_1
_geom_bond_site_symmetry_2
Mn1 N1 1_555 1_555
N1 C1 1_555 1_555
O1 Mn1 1_555 1_555
O2 C7 1_555 1_555
C1 H1 1_555 1_555
C2 C1 1_555 1_555
H2 C2 1_555 1_555
C3 C2 1_555 1_555
H3 C3 1_555 1_555
C4 C3 1_555 1_555
C5 N1 1_555 1_555
C6 C4 1_555 1_555
H4 C6 1_555 1_555
C7 O1 1_555 1_555
C8 C7 1_555 1_555
C9 C8 1_555 1_555
H5 C9 1_555 1_555
C10 C8 1_555 1_555
H6 C10 1_555 1_555
Mn1D O2 1_555 1_555
Mn1F O1F 1_555 1_555
Mn1B O2F 1_555 1_555
N1A Mn1 1_555 1_555
O1F C7F 1_555 1_555
O1A Mn1 1_555 1_555
O2F C7F 1_555 1_555
O2D Mn1 1_555 1_555
O2E Mn1 1_555 1_555
C1A N1A 1_555 1_555
H1A C1A 1_555 1_555
C2A C1A 1_555 1_555
H2A C2A 1_555 1_555
C3A C2A 1_555 1_555
H3A C3A 1_555 1_555
C4A C3A 1_555 1_555
C5A C5 1_555 1_555
C6A C6 1_555 1_555
H4A C6A 1_555 1_555
C7F C8F 1_555 1_555
C8F C9F 1_555 1_555
C9F C10 1_555 1_555
H5F C9F 1_555 1_555
C10F C9 1_555 1_555
H6F C10F 1_555 1_555
C4 C5 1_555 1_555
N1A C5A 1_555 1_555
C4A C5A 1_555 1_555
C4A C6A 1_555 1_555
C8F C10F 1_555 1_555

#END
