
#######################################################################
#
#                 Cambridge Crystallographic Data Centre
#                                CCDC 
#
#######################################################################
#
# If this CIF has been generated from an entry in the Cambridge 
# Structural Database, then it will include bibliographic, chemical, 
# crystal, experimental, refinement or atomic coordinate data resulting 
# from the CCDC's data processing and validation procedures.
#
#######################################################################

data_RAMHOC
_symmetry_cell_setting           triclinic
_symmetry_space_group_name_H-M   'P -1'
_symmetry_Int_Tables_number      2
_space_group_name_Hall           '-P 1'
loop_
_symmetry_equiv_pos_site_id
_symmetry_equiv_pos_as_xyz
1 x,y,z
2 -x,-y,-z
_cell_length_a                   9.1894(4)
_cell_length_b                   10.5765(5)
_cell_length_c                   11.5636(6)
_cell_angle_alpha                114.6210(10)
_cell_angle_beta                 91.562(2)
_cell_angle_gamma                115.1470(10)
_cell_volume                     895.916
loop_
_atom_site_label
_atom_site_type_symbol
_atom_site_fract_x
_atom_site_fract_y
_atom_site_fract_z
Zn1 Zn -0.97495(5) 0.10849(4) -0.20392(4)
O1 O -1.8382(3) -0.8892(3) -0.7351(2)
O2 O -1.8787(3) -0.8493(3) -0.5391(3)
O3 O -0.8033(3) 0.0894(3) -0.1091(3)
O4 O -0.6823(4) 0.0217(4) -0.2721(3)
O5 O -0.2005(4) -0.1978(3) 0.2946(3)
H1 H -0.242(7) -0.147(6) 0.294(5)
H2 H -0.177(6) -0.193(6) 0.364(5)
N1 N 0.0189(4) -0.2371(3) 0.0254(3)
N2 N 0.1276(4) -0.1917(4) 0.2646(3)
C1 C -1.5965(5) -0.5438(5) -0.4211(4)
C2 C -1.5469(5) -0.6014(5) -0.6327(4)
H3 H -1.578(5) -0.671(5) -0.725(4)
C3 C -1.6436(4) -0.6461(4) -0.5541(3)
C4 C -1.7979(4) -0.8051(4) -0.6117(3)
C5 C -0.6109(4) 0.0513(4) 0.0503(4)
H4 H -0.686(5) 0.085(4) 0.076(4)
C6 C -0.5133(4) 0.0327(4) 0.1272(4)
H5 H -0.524(4) 0.057(4) 0.217(4)
C7 C -0.5977(4) 0.0206(4) -0.0778(3)
C8 C -0.7024(4) 0.0440(4) -0.1598(4)
C9 C 0.1823(6) -0.1654(5) 0.3848(4)
H6 H 0.145(5) -0.111(5) 0.450(4)
C10 C 0.2951(6) -0.2120(6) 0.4112(5)
H7 H 0.337(5) -0.190(5) 0.495(4)
C11 C 0.3500(6) -0.2889(6) 0.3110(5)
H8 H 0.427(6) -0.317(5) 0.331(4)
C12 C 0.2927(5) -0.3213(5) 0.1832(4)
C13 C 0.3422(6) -0.4026(5) 0.0712(5)
H9 H 0.417(6) -0.429(5) 0.087(4)
C14 C 0.2862(6) -0.4276(5) -0.0493(5)
H10 H 0.328(6) -0.470(5) -0.119(5)
C15 C 0.1760(5) -0.3722(4) -0.0697(4)
C16 C 0.1172(6) -0.3893(5) -0.1921(4)
H11 H 0.150(5) -0.448(5) -0.267(4)
C17 C 0.0154(6) -0.3302(5) -0.2018(4)
H12 H -0.026(7) -0.336(6) -0.274(5)
C18 C -0.0323(5) -0.2541(5) -0.0920(4)
H13 H -0.104(6) -0.214(5) -0.097(4)
C19 C 0.1223(4) -0.2948(4) 0.0364(4)
C20 C 0.1817(4) -0.2687(4) 0.1651(4)
H14 H -1.661(5) -0.574(4) -0.373(4)
C2A C -1.4531(5) -0.3986(5) -0.3673(4)
H3A H -1.422(5) -0.329(5) -0.275(4)
C3A C -1.3564(4) -0.3539(4) -0.4459(3)
C1A C -1.4035(5) -0.4562(5) -0.5789(4)
H14A H -1.339(5) -0.426(4) -0.627(4)
C4A C -1.2021(4) -0.1949(4) -0.3883(3)
O1A O -1.1618(3) -0.1108(3) -0.2649(2)
Zn1A Zn -2.02505(5) -1.10849(4) -0.79608(4)
C7A C -0.4023(4) -0.0206(4) 0.0778(3)
C5A C -0.3891(4) -0.0513(4) -0.0503(4)
H4A H -0.314(5) -0.085(4) -0.076(4)
C6A C -0.4867(4) -0.0327(4) -0.1272(4)
H5A H -0.476(4) -0.057(4) -0.217(4)
C8A C -0.2976(4) -0.0440(4) 0.1598(4)
O3A O -0.1967(3) -0.0894(3) 0.1091(3)
Zn1A_2 Zn -0.02505(5) -0.10849(4) 0.20392(4)
O1_2 O 0.1618(3) 0.1108(3) 0.2649(2)
O4A O -0.3177(4) -0.0217(4) 0.2721(3)
O5A O -0.7995(4) 0.1978(3) -0.2946(3)
H1A H -0.758(7) 0.147(6) -0.294(5)
H2A H -0.823(6) 0.193(6) -0.364(5)
N1A N -1.0189(4) 0.2371(3) -0.0254(3)
C18A C -0.9677(5) 0.2541(5) 0.0920(4)
C17A C -1.0154(6) 0.3302(5) 0.2018(4)
C16A C -1.1172(6) 0.3893(5) 0.1921(4)
C15A C -1.1760(5) 0.3722(4) 0.0697(4)
C14A C -1.2862(6) 0.4276(5) 0.0493(5)
C13A C -1.3422(6) 0.4026(5) -0.0712(5)
C12A C -1.2927(5) 0.3213(5) -0.1832(4)
C11A C -1.3500(6) 0.2889(6) -0.3110(5)
C10A C -1.2951(6) 0.2120(6) -0.4112(5)
C9A C -1.1823(6) 0.1654(5) -0.3848(4)
N2A N -1.1276(4) 0.1917(4) -0.2646(3)
C20A C -1.1817(4) 0.2687(4) -0.1651(4)
C19A C -1.1223(4) 0.2948(4) -0.0364(4)
H6A H -1.145(5) 0.111(5) -0.450(4)
H7A H -1.337(5) 0.190(5) -0.495(4)
H8A H -1.427(6) 0.317(5) -0.331(4)
H9A H -1.417(6) 0.429(5) -0.087(4)
H10A H -1.328(6) 0.470(5) 0.119(5)
H11A H -1.150(5) 0.448(5) 0.267(4)
H12A H -0.974(7) 0.336(6) 0.274(5)
H13A H -0.896(6) 0.214(5) 0.097(4)
O2A O -1.1213(3) -0.1507(3) -0.4609(3)
loop_
_geom_bond_atom_site_label_1
_geom_bond_atom_site_label_2
_geom_bond_site_symmetry_1
_geom_bond_site_symmetry_2
Zn1 O3 1_555 1_555
O1 C4 1_555 1_555
O2 C4 1_555 1_555
O3 C8 1_555 1_555
O4 C8 1_555 1_555
O5 H1 1_555 1_555
H2 O5 1_555 1_555
N1 C18 1_555 1_555
N2 C9 1_555 1_555
C1 C3 1_555 1_555
C2 H3 1_555 1_555
C3 C2 1_555 1_555
C4 C3 1_555 1_555
C5 H4 1_555 1_555
C6 C5 1_555 1_555
H5 C6 1_555 1_555
C7 C5 1_555 1_555
C8 C7 1_555 1_555
C9 H6 1_555 1_555
C10 C9 1_555 1_555
H7 C10 1_555 1_555
C11 C10 1_555 1_555
H8 C11 1_555 1_555
C12 C11 1_555 1_555
C13 C12 1_555 1_555
H9 C13 1_555 1_555
C14 C13 1_555 1_555
H10 C14 1_555 1_555
C15 C14 1_555 1_555
C16 C15 1_555 1_555
H11 C16 1_555 1_555
C17 C16 1_555 1_555
H12 C17 1_555 1_555
C18 C17 1_555 1_555
H13 C18 1_555 1_555
C19 N1 1_555 1_555
C20 N2 1_555 1_555
H14 C1 1_555 1_555
C2A C1 1_555 1_555
H3A C2A 1_555 1_555
C3A C2A 1_555 1_555
C1A C2 1_555 1_555
H14A C1A 1_555 1_555
C4A C3A 1_555 1_555
O1A Zn1 1_555 1_555
Zn1A O1 1_555 1_555
C7A C6 1_555 1_555
C5A C7A 1_555 1_555
H4A C5A 1_555 1_555
C6A C7 1_555 1_555
H5A C6A 1_555 1_555
C8A C7A 1_555 1_555
O3A C8A 1_555 1_555
Zn1A_2 O5 1_555 1_555
O1_2 Zn1A_2 1_555 1_555
O4A C8A 1_555 1_555
O5A Zn1 1_555 1_555
H1A O5A 1_555 1_555
H2A O5A 1_555 1_555
N1A Zn1 1_555 1_555
C18A N1A 1_555 1_555
C17A C18A 1_555 1_555
C16A C17A 1_555 1_555
C15A C16A 1_555 1_555
C14A C15A 1_555 1_555
C13A C14A 1_555 1_555
C12A C13A 1_555 1_555
C11A C12A 1_555 1_555
C10A C11A 1_555 1_555
C9A C10A 1_555 1_555
N2A Zn1 1_555 1_555
C20A C12A 1_555 1_555
C19A N1A 1_555 1_555
H6A C9A 1_555 1_555
H7A C10A 1_555 1_555
H8A C11A 1_555 1_555
H9A C13A 1_555 1_555
H10A C14A 1_555 1_555
H11A C16A 1_555 1_555
H12A C17A 1_555 1_555
H13A C18A 1_555 1_555
O2A C4A 1_555 1_555
N1 Zn1A_2 1_555 1_555
N2 Zn1A_2 1_555 1_555
C12 C20 1_555 1_555
C15 C19 1_555 1_555
C19 C20 1_555 1_555
C3A C1A 1_555 1_555
C4A O1A 1_555 1_555
C5A C6A 1_555 1_555
O3A Zn1A_2 1_555 1_555
C15A C19A 1_555 1_555
C9A N2A 1_555 1_555
N2A C20A 1_555 1_555
C20A C19A 1_555 1_555

#END
