
#######################################################################
#
#                 Cambridge Crystallographic Data Centre
#                                CCDC 
#
#######################################################################
#
# If this CIF has been generated from an entry in the Cambridge 
# Structural Database, then it will include bibliographic, chemical, 
# crystal, experimental, refinement or atomic coordinate data resulting 
# from the CCDC's data processing and validation procedures.
#
#######################################################################

data_RAMHUI
_symmetry_cell_setting           monoclinic
_symmetry_space_group_name_H-M   'C c'
_symmetry_Int_Tables_number      9
_space_group_name_Hall           'C -2yc'
loop_
_symmetry_equiv_pos_site_id
_symmetry_equiv_pos_as_xyz
1 x,y,z
2 x,-y,1/2+z
3 1/2+x,1/2+y,z
4 1/2+x,1/2-y,1/2+z
_cell_length_a                   17.510(6)
_cell_length_b                   10.394(3)
_cell_length_c                   9.373(4)
_cell_angle_alpha                90
_cell_angle_beta                 95.88(2)
_cell_angle_gamma                90
_cell_volume                     1696.9
loop_
_atom_site_label
_atom_site_type_symbol
_atom_site_fract_x
_atom_site_fract_y
_atom_site_fract_z
Mn1 Mn 0.1209(2) -0.44808(5) -0.5204(3)
O1 O 0.0302(5) -0.4392(8) -0.3832(10)
O2 O 0.0471(4) -0.4182(9) -0.1430(8)
O3 O -0.2888(5) -0.0621(8) -0.1581(9)
O4 O -0.3076(5) -0.0786(10) -0.3980(10)
N1 N 0.1762(6) -0.2643(11) -0.4095(11)
N2 N 0.0630(6) -0.2612(10) -0.6349(10)
C1 C -0.2712(6) -0.0999(11) -0.2756(13)
C2 C -0.1973(6) -0.1761(10) -0.2726(11)
C3 C -0.1618(6) -0.2280(12) -0.1418(11)
H1 H -0.1830(6) -0.2148(12) -0.0560(11)
C4 C -0.0949(6) -0.2984(12) -0.1452(12)
H2 H -0.0713(6) -0.3308(12) -0.0592(12)
C5 C -0.0625(6) -0.3223(10) -0.2659(13)
C6 C -0.0959(6) -0.2722(12) -0.3929(11)
H3 H -0.0733(6) -0.2887(12) -0.4766(11)
C7 C -0.1628(6) -0.1972(12) -0.4012(11)
H4 H -0.1839(6) -0.1624(12) -0.4879(11)
C8 C 0.0113(6) -0.4001(11) -0.2642(10)
C9 C 0.0043(8) -0.2624(16) -0.7426(16)
H5 H -0.0114(8) -0.3394(16) -0.7871(16)
C10 C -0.0328(7) -0.1447(14) -0.7864(14)
H6 H -0.0766(7) -0.1457(14) -0.8515(14)
C11 C -0.0044(8) -0.0322(12) -0.7337(19)
H7 H -0.0265(8) 0.0447(12) -0.7679(19)
C12 C 0.0580(7) -0.0299(12) -0.6276(14)
C13 C 0.0900(7) 0.0832(14) -0.5750(14)
H8 H 0.0675(7) 0.1589(14) -0.6119(14)
C14 C 0.1518(7) 0.0961(11) -0.4738(16)
H9 H 0.1717(7) 0.1759(11) -0.4444(16)
C15 C 0.1852(9) -0.0280(11) -0.4140(16)
C16 C 0.2481(6) -0.0332(12) -0.3062(14)
H10 H 0.2731(6) 0.0416(12) -0.2728(14)
C17 C 0.2713(8) -0.1520(12) -0.2520(15)
H11 H 0.3112(8) -0.1586(12) -0.1787(15)
C18 C 0.2343(6) -0.2614(11) -0.3087(12)
H12 H 0.2522(6) -0.3401(11) -0.2719(12)
C19 C 0.1510(7) -0.1424(12) -0.4628(12)
C20 C 0.0881(6) -0.1508(11) -0.5791(12)
O2A O 0.0471(4) -0.5818(9) -0.6430(8)
Mn1A Mn 0.1209(2) -0.55192(5) -0.0204(3)
O3C O 0.2112(5) -0.4379(8) -0.6581(9)
O4B O 0.1924(5) -0.5786(10) -0.3980(10)
Mn1C Mn -0.3791(2) -0.05192(5) -0.0204(3)
Mn1B Mn -0.3791(2) 0.05192(5) -0.5204(3)
loop_
_geom_bond_atom_site_label_1
_geom_bond_atom_site_label_2
_geom_bond_site_symmetry_1
_geom_bond_site_symmetry_2
Mn1 O1 1_555 1_555
O1 C8 1_555 1_555
O2 C8 1_555 1_555
O3 C1 1_555 1_555
O4 C1 1_555 1_555
N1 Mn1 1_555 1_555
N2 Mn1 1_555 1_555
C1 C2 1_555 1_555
C2 C3 1_555 1_555
C3 H1 1_555 1_555
C4 C3 1_555 1_555
H2 C4 1_555 1_555
C5 C4 1_555 1_555
C6 C5 1_555 1_555
H3 C6 1_555 1_555
C7 C2 1_555 1_555
H4 C7 1_555 1_555
C8 C5 1_555 1_555
C9 N2 1_555 1_555
H5 C9 1_555 1_555
C10 C9 1_555 1_555
H6 C10 1_555 1_555
C11 C10 1_555 1_555
H7 C11 1_555 1_555
C12 C11 1_555 1_555
C13 C12 1_555 1_555
H8 C13 1_555 1_555
C14 C13 1_555 1_555
H9 C14 1_555 1_555
C15 C14 1_555 1_555
C16 C15 1_555 1_555
H10 C16 1_555 1_555
C17 C16 1_555 1_555
H11 C17 1_555 1_555
C18 N1 1_555 1_555
H12 C18 1_555 1_555
C19 N1 1_555 1_555
C20 N2 1_555 1_555
O2A Mn1 1_555 1_555
Mn1A O2 1_555 1_555
O3C Mn1 1_555 1_555
O4B Mn1 1_555 1_555
Mn1C O3 1_555 1_555
Mn1B O4 1_555 1_555
C6 C7 1_555 1_555
C12 C20 1_555 1_555
C15 C19 1_555 1_555
C17 C18 1_555 1_555
C19 C20 1_555 1_555

#END
