
#######################################################################
#
#                 Cambridge Crystallographic Data Centre
#                                CCDC 
#
#######################################################################
#
# If this CIF has been generated from an entry in the Cambridge 
# Structural Database, then it will include bibliographic, chemical, 
# crystal, experimental, refinement or atomic coordinate data resulting 
# from the CCDC's data processing and validation procedures.
#
#######################################################################

data_RAMJEV
_symmetry_cell_setting           monoclinic
_symmetry_space_group_name_H-M   'C 2/c'
_symmetry_Int_Tables_number      15
_space_group_name_Hall           '-C 2yn'
loop_
_symmetry_equiv_pos_site_id
_symmetry_equiv_pos_as_xyz
1 x,y,z
2 1/2+x,1/2+y,z
3 -x,y,1/2-z
4 1/2-x,1/2+y,1/2-z
5 -x,-y,-z
6 1/2-x,1/2-y,-z
7 x,-y,1/2+z
8 1/2+x,1/2-y,1/2+z
_cell_length_a                   29.761(3)
_cell_length_b                   5.0531(5)
_cell_length_c                   16.7823(15)
_cell_angle_alpha                90
_cell_angle_beta                 104.090(2)
_cell_angle_gamma                90
_cell_volume                     2447.88
loop_
_atom_site_label
_atom_site_type_symbol
_atom_site_fract_x
_atom_site_fract_y
_atom_site_fract_z
Hg1 Hg 0.5000 -0.40282(4) 0.7500
Br1 Br 0.554348(14) -0.52147(9) 0.66397(2)
C1 C 0.46340(14) 0.0045(9) 0.5928(3)
H1 H 0.4911 -0.0586 0.5809
C2 C 0.43845(14) 0.1942(9) 0.5425(2)
H2 H 0.4484 0.2552 0.4961
C3 C 0.39873(12) 0.2963(8) 0.5594(2)
C4 C 0.38562(13) 0.1917(9) 0.6262(2)
H3 H 0.3582 0.2527 0.6399
C5 C 0.41233(14) -0.0014(8) 0.6731(2)
H4 H 0.4027 -0.0705 0.7189
C6 C 0.37254(13) 0.4998(8) 0.5096(2)
C7 C 0.35129(12) 0.6699(8) 0.4672(2)
C8 C 0.32613(12) 0.8748(7) 0.4170(2)
C9 C 0.34560(14) 1.0084(8) 0.3608(2)
H5 H 0.3753 0.9573 0.3545
C10 C 0.32238(14) 1.2131(8) 0.3145(2)
H6 H 0.3360 1.3022 0.2765
C11 C 0.27939(14) 1.2896(8) 0.3231(2)
H7 H 0.2636 1.4322 0.2913
C12 C 0.25926(13) 1.1605(8) 0.3774(2)
H8 H 0.2297 1.2158 0.3832
C13 C 0.28156(13) 0.9492(7) 0.4242(2)
C14 C 0.25965(12) 0.8091(8) 0.4786(2)
N1 N 0.45097(10) -0.0958(6) 0.65735(17)
Hg1G Hg 0.0000 1.90282(4) 0.2500
Br1B Br 0.445652(14) -0.52147(9) 0.83603(2)
C1E C 0.03660(14) 1.4955(9) 0.4072(3)
H1E H 0.0089 1.5586 0.4191
C2E C 0.06155(14) 1.3058(9) 0.4575(2)
H2E H 0.0516 1.2448 0.5039
C3E C 0.10127(12) 1.2037(8) 0.4406(2)
C4E C 0.11438(13) 1.3083(9) 0.3738(2)
H3E H 0.1418 1.2473 0.3601
C5E C 0.08767(14) 1.5014(8) 0.3269(2)
H4E H 0.0973 1.5705 0.2811
C6E C 0.12746(13) 1.0002(8) 0.4904(2)
C7E C 0.14871(12) 0.8301(8) 0.5328(2)
C8E C 0.17387(12) 0.6252(7) 0.5830(2)
C9E C 0.15440(14) 0.4916(8) 0.6392(2)
H5E H 0.1247 0.5427 0.6455
C10E C 0.17762(14) 0.2869(8) 0.6855(2)
H6E H 0.1640 0.1978 0.7235
C11E C 0.22061(14) 0.2104(8) 0.6769(2)
H7E H 0.2364 0.0678 0.7087
C12E C 0.24074(13) 0.3395(8) 0.6226(2)
H8E H 0.2703 0.2842 0.6168
C13E C 0.21844(13) 0.5508(7) 0.5758(2)
C14E C 0.24035(12) 0.6909(8) 0.5214(2)
N1E N 0.04903(10) 1.5958(6) 0.34265(17)
N1B N 0.54903(10) -0.0958(6) 0.84265(17)
loop_
_geom_bond_atom_site_label_1
_geom_bond_atom_site_label_2
_geom_bond_site_symmetry_1
_geom_bond_site_symmetry_2
Hg1 Br1 1_555 1_555
C1 H1 1_555 1_555
C2 C1 1_555 1_555
H2 C2 1_555 1_555
C3 C2 1_555 1_555
C4 C3 1_555 1_555
H3 C4 1_555 1_555
C5 C4 1_555 1_555
H4 C5 1_555 1_555
C6 C3 1_555 1_555
C7 C6 1_555 1_555
C8 C7 1_555 1_555
C9 C8 1_555 1_555
H5 C9 1_555 1_555
C10 C9 1_555 1_555
H6 C10 1_555 1_555
C11 C10 1_555 1_555
H7 C11 1_555 1_555
C12 C11 1_555 1_555
H8 C12 1_555 1_555
C13 C8 1_555 1_555
C14 C13 1_555 1_555
N1 Hg1 1_555 1_555
Hg1G N1E 1_555 1_555
Br1B Hg1 1_555 1_555
C1E H1E 1_555 1_555
C2E C1E 1_555 1_555
H2E C2E 1_555 1_555
C3E C2E 1_555 1_555
C4E C3E 1_555 1_555
H3E C4E 1_555 1_555
C5E C4E 1_555 1_555
H4E C5E 1_555 1_555
C6E C3E 1_555 1_555
C7E C6E 1_555 1_555
C8E C7E 1_555 1_555
C9E C8E 1_555 1_555
H5E C9E 1_555 1_555
C10E C9E 1_555 1_555
H6E C10E 1_555 1_555
C11E C10E 1_555 1_555
H7E C11E 1_555 1_555
C12E C11E 1_555 1_555
H8E C12E 1_555 1_555
C13E C8E 1_555 1_555
C14E C14 1_555 1_555
N1E C1E 1_555 1_555
N1B Hg1 1_555 1_555
C1 N1 1_555 1_555
C5 N1 1_555 1_555
C12 C13 1_555 1_555
C5E N1E 1_555 1_555
C12E C13E 1_555 1_555
C13E C14E 1_555 1_555

#END
