
#######################################################################
#
#                 Cambridge Crystallographic Data Centre
#                                CCDC 
#
#######################################################################
#
# If this CIF has been generated from an entry in the Cambridge 
# Structural Database, then it will include bibliographic, chemical, 
# crystal, experimental, refinement or atomic coordinate data resulting 
# from the CCDC's data processing and validation procedures.
#
#######################################################################

data_RAMJUL
_symmetry_cell_setting           monoclinic
_symmetry_space_group_name_H-M   'P 21/c'
_symmetry_Int_Tables_number      14
_space_group_name_Hall           '-P 2ybc'
loop_
_symmetry_equiv_pos_site_id
_symmetry_equiv_pos_as_xyz
1 x,y,z
2 -x,1/2+y,1/2-z
3 -x,-y,-z
4 x,1/2-y,1/2+z
_cell_length_a                   14.6990(9)
_cell_length_b                   6.2724(4)
_cell_length_c                   18.6433(11)
_cell_angle_alpha                90
_cell_angle_beta                 112.8610(10)
_cell_angle_gamma                90
_cell_volume                     1583.86
loop_
_atom_site_label
_atom_site_type_symbol
_atom_site_fract_x
_atom_site_fract_y
_atom_site_fract_z
Zn1 Zn 0.5000 0.0000 0.0000
C1 C 0.34077(12) 0.0910(3) 0.06925(9)
H1 H 0.3591 -0.0500 0.0878
C2 C 0.26775(11) 0.1896(3) 0.08581(9)
H2 H 0.2367 0.1176 0.1150
C3 C 0.23973(11) 0.3980(3) 0.05894(9)
C4 C 0.28803(12) 0.4939(2) 0.01629(10)
H3 H 0.2711 0.6344 -0.0033
C5 C 0.36099(11) 0.3824(2) 0.00274(9)
H4 H 0.3937 0.4503 -0.0261
C6 C 0.16258(12) 0.5002(2) 0.07475(9)
C7 C 0.09636(12) 0.5712(3) 0.09007(9)
C8 C 0.01886(11) 0.6462(3) 0.11188(9)
C9 C -0.00667(13) 0.5296(3) 0.16472(10)
H5 H 0.0273 0.4008 0.1856
C10 C -0.08033(14) 0.5982(3) 0.18702(10)
H6 H -0.0962 0.5178 0.2238
C11 C -0.13156(13) 0.7834(3) 0.15641(11)
H7 H -0.1834 0.8285 0.1714
C12 C -0.10755(12) 0.9030(3) 0.10418(10)
H8 H -0.1423 1.0314 0.0839
C13 C -0.03236(11) 0.8367(3) 0.08076(9)
C14 C -0.00943(12) 0.9541(3) 0.02422(10)
C15 C 0.65100(11) 0.1056(3) 0.15598(9)
C16 C 0.62568(12) -0.0708(3) 0.19048(9)
H9 H 0.6607 -0.0892 0.2449
C17 C 0.55338(11) -0.2221(3) 0.15182(9)
C18 C 0.73229(13) 0.2521(3) 0.20901(11)
H10 H 0.7951 0.2149 0.2054
H11 H 0.7382 0.2350 0.2629
H12 H 0.7157 0.4006 0.1928
C19 C 0.52985(14) -0.3960(3) 0.19839(10)
H13 H 0.4651 -0.3685 0.2002
H14 H 0.5804 -0.3977 0.2515
H15 H 0.5287 -0.5343 0.1736
N1 N 0.38771(9) 0.1834(2) 0.02826(7)
O1 O 0.61506(8) 0.15701(17) 0.08597(6)
O2 O 0.50233(8) -0.22607(17) 0.07956(6)
Zn1_2 Zn -0.5000 2.0000 0.0000
C1B C -0.34077(12) 1.9090(3) -0.06925(9)
H1B H -0.3591 2.0500 -0.0878
C2B C -0.26775(11) 1.8104(3) -0.08581(9)
H2B H -0.2367 1.8824 -0.1150
C3B C -0.23973(11) 1.6020(3) -0.05894(9)
C4B C -0.28803(12) 1.5061(2) -0.01629(10)
H3B H -0.2711 1.3656 0.0033
C5B C -0.36099(11) 1.6176(2) -0.00274(9)
H4B H -0.3937 1.5497 0.0261
C6B C -0.16258(12) 1.4998(2) -0.07475(9)
C7B C -0.09636(12) 1.4288(3) -0.09007(9)
C8B C -0.01886(11) 1.3538(3) -0.11188(9)
C9B C 0.00667(13) 1.4704(3) -0.16472(10)
H5B H -0.0273 1.5992 -0.1856
C10B C 0.08033(14) 1.4018(3) -0.18702(10)
H6B H 0.0962 1.4822 -0.2238
C11B C 0.13156(13) 1.2166(3) -0.15641(11)
H7B H 0.1834 1.1715 -0.1714
C12B C 0.10755(12) 1.0970(3) -0.10418(10)
H8B H 0.1423 0.9686 -0.0839
C13B C 0.03236(11) 1.1633(3) -0.08076(9)
C14B C 0.00943(12) 1.0459(3) -0.02422(10)
C15B C 0.34900(11) -0.1056(3) -0.15598(9)
C16B C 0.37432(12) 0.0708(3) -0.19048(9)
H9B H 0.3393 0.0892 -0.2449
C17B C 0.44662(11) 0.2221(3) -0.15182(9)
C18B C 0.26771(13) -0.2521(3) -0.20901(11)
H10B H 0.2049 -0.2149 -0.2054
H11B H 0.2618 -0.2350 -0.2629
H12B H 0.2843 -0.4006 -0.1928
C19B C 0.47015(14) 0.3960(3) -0.19839(10)
H13B H 0.5349 0.3685 -0.2002
H14B H 0.4196 0.3977 -0.2515
H15B H 0.4713 0.5343 -0.1736
N1B N -0.38771(9) 1.8166(2) -0.02826(7)
N1B_2 N 0.61229(9) -0.1834(2) -0.02826(7)
O1B O 0.38494(8) -0.15701(17) -0.08597(6)
O2B O 0.49767(8) 0.22607(17) -0.07956(6)
loop_
_geom_bond_atom_site_label_1
_geom_bond_atom_site_label_2
_geom_bond_site_symmetry_1
_geom_bond_site_symmetry_2
Zn1 N1 1_555 1_555
C1 H1 1_555 1_555
C2 C1 1_555 1_555
H2 C2 1_555 1_555
C3 C2 1_555 1_555
C4 C3 1_555 1_555
H3 C4 1_555 1_555
C5 C4 1_555 1_555
H4 C5 1_555 1_555
C6 C3 1_555 1_555
C7 C6 1_555 1_555
C8 C7 1_555 1_555
C9 C8 1_555 1_555
H5 C9 1_555 1_555
C10 C9 1_555 1_555
H6 C10 1_555 1_555
C11 C10 1_555 1_555
H7 C11 1_555 1_555
C12 C11 1_555 1_555
H8 C12 1_555 1_555
C13 C8 1_555 1_555
C14 C13 1_555 1_555
C15 C16 1_555 1_555
C16 H9 1_555 1_555
C17 C16 1_555 1_555
C18 C15 1_555 1_555
H10 C18 1_555 1_555
H11 C18 1_555 1_555
H12 C18 1_555 1_555
C19 C17 1_555 1_555
H13 C19 1_555 1_555
H14 C19 1_555 1_555
H15 C19 1_555 1_555
N1 C1 1_555 1_555
O1 Zn1 1_555 1_555
O2 Zn1 1_555 1_555
Zn1_2 N1B 1_555 1_555
C1B H1B 1_555 1_555
C2B C1B 1_555 1_555
H2B C2B 1_555 1_555
C3B C2B 1_555 1_555
C4B C3B 1_555 1_555
H3B C4B 1_555 1_555
C5B C4B 1_555 1_555
H4B C5B 1_555 1_555
C6B C3B 1_555 1_555
C7B C6B 1_555 1_555
C8B C7B 1_555 1_555
C9B C8B 1_555 1_555
H5B C9B 1_555 1_555
C10B C9B 1_555 1_555
H6B C10B 1_555 1_555
C11B C10B 1_555 1_555
H7B C11B 1_555 1_555
C12B C11B 1_555 1_555
H8B C12B 1_555 1_555
C13B C8B 1_555 1_555
C14B C14 1_555 1_555
C15B C16B 1_555 1_555
C16B H9B 1_555 1_555
C17B C16B 1_555 1_555
C18B C15B 1_555 1_555
H10B C18B 1_555 1_555
H11B C18B 1_555 1_555
H12B C18B 1_555 1_555
C19B C17B 1_555 1_555
H13B C19B 1_555 1_555
H14B C19B 1_555 1_555
H15B C19B 1_555 1_555
N1B C1B 1_555 1_555
N1B_2 Zn1 1_555 1_555
O1B Zn1 1_555 1_555
O2B Zn1 1_555 1_555
C5 N1 1_555 1_555
C12 C13 1_555 1_555
C15 O1 1_555 1_555
C17 O2 1_555 1_555
C5B N1B 1_555 1_555
C12B C13B 1_555 1_555
C13B C14B 1_555 1_555
C15B O1B 1_555 1_555
C17B O2B 1_555 1_555

#END
