
#######################################################################
#
#                 Cambridge Crystallographic Data Centre
#                                CCDC 
#
#######################################################################
#
# If this CIF has been generated from an entry in the Cambridge 
# Structural Database, then it will include bibliographic, chemical, 
# crystal, experimental, refinement or atomic coordinate data resulting 
# from the CCDC's data processing and validation procedures.
#
#######################################################################

data_RAMJOF
_symmetry_cell_setting           monoclinic
_symmetry_space_group_name_H-M   'P 21/c'
_symmetry_Int_Tables_number      14
_space_group_name_Hall           '-P 2ybc'
loop_
_symmetry_equiv_pos_site_id
_symmetry_equiv_pos_as_xyz
1 x,y,z
2 -x,1/2+y,1/2-z
3 -x,-y,-z
4 x,1/2-y,1/2+z
_cell_length_a                   14.5947(14)
_cell_length_b                   6.3082(6)
_cell_length_c                   18.3939(18)
_cell_angle_alpha                90
_cell_angle_beta                 112.112(2)
_cell_angle_gamma                90
_cell_volume                     1568.9
loop_
_atom_site_label
_atom_site_type_symbol
_atom_site_fract_x
_atom_site_fract_y
_atom_site_fract_z
Ni1 Ni 1.0000 0.0000 0.0000
C1 C 0.84086(16) 0.0861(4) 0.06682(13)
H1 H 0.8575 -0.0554 0.0846
C2 C 0.76721(17) 0.1854(4) 0.08366(14)
H2 H 0.7340 0.1137 0.1120
C3 C 0.74208(16) 0.3955(4) 0.05794(13)
C4 C 0.79347(19) 0.4897(4) 0.01632(15)
H3 H 0.7782 0.6304 -0.0029
C5 C 0.86684(18) 0.3770(4) 0.00312(14)
H4 H 0.9023 0.4452 -0.0242
C6 C 0.66509(19) 0.4994(4) 0.07428(15)
C7 C 0.59839(18) 0.5712(4) 0.08982(14)
C8 C 0.52021(17) 0.6449(4) 0.11223(14)
C9 C 0.4947(2) 0.5280(5) 0.16540(16)
H5 H 0.5292 0.4004 0.1862
C10 C 0.4205(2) 0.5939(6) 0.18831(17)
H6 H 0.4044 0.5126 0.2253
C11 C 0.3686(2) 0.7772(5) 0.15820(17)
H7 H 0.3162 0.8201 0.1736
C12 C 0.39274(18) 0.8974(5) 0.10609(15)
H8 H 0.3578 1.0252 0.0863
C13 C 0.46857(16) 0.8335(4) 0.08169(13)
C14 C 0.49093(18) 0.9526(4) 0.02456(15)
C15 C 1.14914(16) 0.1099(4) 0.15310(14)
C16 C 1.12591(18) -0.0684(5) 0.18958(15)
H9 H 1.1629 -0.0883 0.2440
C17 C 1.05272(17) -0.2173(4) 0.15162(14)
C18 C 1.23035(19) 0.2548(5) 0.20450(16)
H10 H 1.2924 0.2205 0.1982
H11 H 1.2387 0.2354 0.2595
H12 H 1.2125 0.4025 0.1891
C19 C 1.0307(2) -0.3910(5) 0.19911(15)
H13 H 0.9658 -0.3660 0.2018
H14 H 1.0816 -0.3914 0.2523
H15 H 1.0305 -0.5282 0.1741
N1 N 0.89064(13) 0.1771(3) 0.02674(11)
O1 O 1.11100(12) 0.1599(3) 0.08278(9)
O2 O 1.00081(11) -0.2210(3) 0.07934(9)
Ni1_2 Ni 0.0000 2.0000 0.0000
C1B C 0.15914(16) 1.9139(4) -0.06682(13)
H1B H 0.1425 2.0554 -0.0846
C2B C 0.23279(17) 1.8146(4) -0.08366(14)
H2B H 0.2660 1.8863 -0.1120
C3B C 0.25792(16) 1.6045(4) -0.05794(13)
C4B C 0.20653(19) 1.5103(4) -0.01632(15)
H3B H 0.2218 1.3696 0.0029
C5B C 0.13316(18) 1.6230(4) -0.00312(14)
H4B H 0.0977 1.5548 0.0242
C6B C 0.33491(19) 1.5006(4) -0.07428(15)
C7B C 0.40161(18) 1.4288(4) -0.08982(14)
C8B C 0.47979(17) 1.3551(4) -0.11223(14)
C9B C 0.5053(2) 1.4720(5) -0.16540(16)
H5B H 0.4708 1.5996 -0.1862
C10B C 0.5795(2) 1.4061(6) -0.18831(17)
H6B H 0.5956 1.4874 -0.2253
C11B C 0.6314(2) 1.2228(5) -0.15820(17)
H7B H 0.6838 1.1799 -0.1736
C12B C 0.60726(18) 1.1026(5) -0.10609(15)
H8B H 0.6422 0.9748 -0.0863
C13B C 0.53143(16) 1.1665(4) -0.08169(13)
C14B C 0.50907(18) 1.0474(4) -0.02456(15)
C15B C 0.85086(16) -0.1099(4) -0.15310(14)
C16B C 0.87409(18) 0.0684(5) -0.18958(15)
H9B H 0.8371 0.0883 -0.2440
C17B C 0.94728(17) 0.2173(4) -0.15162(14)
C18B C 0.76965(19) -0.2548(5) -0.20450(16)
H10B H 0.7076 -0.2205 -0.1982
H11B H 0.7613 -0.2354 -0.2595
H12B H 0.7875 -0.4025 -0.1891
C19B C 0.9693(2) 0.3910(5) -0.19911(15)
H13B H 1.0342 0.3660 -0.2018
H14B H 0.9184 0.3914 -0.2523
H15B H 0.9695 0.5282 -0.1741
N1B N 0.10936(13) 1.8229(3) -0.02674(11)
N1B_2 N 1.10936(13) -0.1771(3) -0.02674(11)
O1B O 0.88900(12) -0.1599(3) -0.08278(9)
O2B O 0.99919(11) 0.2210(3) -0.07934(9)
loop_
_geom_bond_atom_site_label_1
_geom_bond_atom_site_label_2
_geom_bond_site_symmetry_1
_geom_bond_site_symmetry_2
Ni1 N1 1_555 1_555
C1 H1 1_555 1_555
C2 C1 1_555 1_555
H2 C2 1_555 1_555
C3 C2 1_555 1_555
C4 C3 1_555 1_555
H3 C4 1_555 1_555
C5 C4 1_555 1_555
H4 C5 1_555 1_555
C6 C3 1_555 1_555
C7 C6 1_555 1_555
C8 C7 1_555 1_555
C9 C8 1_555 1_555
H5 C9 1_555 1_555
C10 C9 1_555 1_555
H6 C10 1_555 1_555
C11 C10 1_555 1_555
H7 C11 1_555 1_555
C12 C11 1_555 1_555
H8 C12 1_555 1_555
C13 C8 1_555 1_555
C14 C13 1_555 1_555
C15 C16 1_555 1_555
C16 H9 1_555 1_555
C17 C16 1_555 1_555
C18 C15 1_555 1_555
H10 C18 1_555 1_555
H11 C18 1_555 1_555
H12 C18 1_555 1_555
C19 C17 1_555 1_555
H13 C19 1_555 1_555
H14 C19 1_555 1_555
H15 C19 1_555 1_555
N1 C1 1_555 1_555
O1 Ni1 1_555 1_555
O2 Ni1 1_555 1_555
Ni1_2 N1B 1_555 1_555
C1B H1B 1_555 1_555
C2B C1B 1_555 1_555
H2B C2B 1_555 1_555
C3B C2B 1_555 1_555
C4B C3B 1_555 1_555
H3B C4B 1_555 1_555
C5B C4B 1_555 1_555
H4B C5B 1_555 1_555
C6B C3B 1_555 1_555
C7B C6B 1_555 1_555
C8B C7B 1_555 1_555
C9B C8B 1_555 1_555
H5B C9B 1_555 1_555
C10B C9B 1_555 1_555
H6B C10B 1_555 1_555
C11B C10B 1_555 1_555
H7B C11B 1_555 1_555
C12B C11B 1_555 1_555
H8B C12B 1_555 1_555
C13B C8B 1_555 1_555
C14B C14 1_555 1_555
C15B C16B 1_555 1_555
C16B H9B 1_555 1_555
C17B C16B 1_555 1_555
C18B C15B 1_555 1_555
H10B C18B 1_555 1_555
H11B C18B 1_555 1_555
H12B C18B 1_555 1_555
C19B C17B 1_555 1_555
H13B C19B 1_555 1_555
H14B C19B 1_555 1_555
H15B C19B 1_555 1_555
N1B C1B 1_555 1_555
N1B_2 Ni1 1_555 1_555
O1B Ni1 1_555 1_555
O2B Ni1 1_555 1_555
C5 N1 1_555 1_555
C12 C13 1_555 1_555
C15 O1 1_555 1_555
C17 O2 1_555 1_555
C5B N1B 1_555 1_555
C12B C13B 1_555 1_555
C13B C14B 1_555 1_555
C15B O1B 1_555 1_555
C17B O2B 1_555 1_555

#END
