
#######################################################################
#
#                 Cambridge Crystallographic Data Centre
#                                CCDC 
#
#######################################################################
#
# If this CIF has been generated from an entry in the Cambridge 
# Structural Database, then it will include bibliographic, chemical, 
# crystal, experimental, refinement or atomic coordinate data resulting 
# from the CCDC's data processing and validation procedures.
#
#######################################################################

data_RAMJIZ
_symmetry_cell_setting           monoclinic
_symmetry_space_group_name_H-M   'P 2/c'
_symmetry_Int_Tables_number      13
_space_group_name_Hall           '-P 2yc'
loop_
_symmetry_equiv_pos_site_id
_symmetry_equiv_pos_as_xyz
1 x,y,z
2 -x,y,1/2-z
3 -x,-y,-z
4 x,-y,1/2+z
_cell_length_a                   20.3061(17)
_cell_length_b                   5.6303(5)
_cell_length_c                   24.5459(19)
_cell_angle_alpha                90
_cell_angle_beta                 110.338(2)
_cell_angle_gamma                90
_cell_volume                     2631.37
loop_
_atom_site_label
_atom_site_type_symbol
_atom_site_fract_x
_atom_site_fract_y
_atom_site_fract_z
Hg1 Hg 0.282467(18) 0.78956(5) 0.226223(13)
I1 I 0.18625(4) 0.83829(12) 0.27715(3)
I2 I 0.36595(3) 1.01102(11) 0.18051(2)
C1 C 0.4336(5) 0.5492(14) 0.3050(3)
H1 H 0.4492 0.6735 0.2877
C2 C 0.4819(5) 0.4003(15) 0.3424(4)
H2 H 0.5296 0.4266 0.3507
C3 C 0.4598(5) 0.2108(14) 0.3677(3)
C4 C 0.3888(5) 0.1782(14) 0.3527(3)
H3 H 0.3715 0.0495 0.3673
C5 C 0.3429(5) 0.3380(13) 0.3155(3)
H4 H 0.2949 0.3158 0.3063
C6 C 0.5122(5) 0.0582(15) 0.4078(3)
C7 C 0.5543(5) -0.0592(14) 0.4422(3)
C8 C 0.6106(4) -0.1874(14) 0.4836(3)
C9 C 0.6793(5) -0.1103(18) 0.4950(3)
H5 H 0.6877 0.0209 0.4753
C10 C 0.7346(5) -0.226(2) 0.5348(4)
H6 H 0.7799 -0.1676 0.5435
C11 C 0.7233(6) -0.430(2) 0.5624(4)
H7 H 0.7610 -0.5098 0.5889
C12 C 0.6568(6) -0.5119(17) 0.5503(4)
H8 H 0.6495 -0.6504 0.5681
C13 C 0.5984(4) -0.3914(15) 0.5113(3)
C14 C 0.5294(4) -0.4697(15) 0.5033(3)
C15 C 0.2300(5) 0.5271(14) 0.0980(3)
H9 H 0.2595 0.6448 0.0928
C16 C 0.1988(5) 0.3707(15) 0.0523(3)
H10 H 0.2079 0.3821 0.0178
C17 C 0.1542(4) 0.1986(14) 0.0594(3)
C18 C 0.1442(4) 0.1838(15) 0.1129(3)
H11 H 0.1157 0.0673 0.1199
C19 C 0.1787(5) 0.3505(14) 0.1552(3)
H12 H 0.1717 0.3424 0.1907
C20 C 0.1205(5) 0.0341(14) 0.0129(3)
C21 C 0.0939(4) -0.0906(14) -0.0271(3)
C22 C 0.0652(4) -0.2523(13) -0.0757(3)
C23 C 0.0808(4) -0.2122(16) -0.1268(3)
H13 H 0.1073 -0.0814 -0.1298
C24 C 0.0559(5) -0.3717(19) -0.1722(3)
H14 H 0.0666 -0.3494 -0.2058
C25 C 0.0159(5) -0.5617(18) -0.1684(3)
H15 H -0.0009 -0.6662 -0.1995
C26 C 0.0005(5) -0.5991(15) -0.1195(3)
H16 H -0.0265 -0.7300 -0.1175
C27 C 0.0246(4) -0.4436(14) -0.0720(3)
C28 C 0.0069(4) -0.4849(13) -0.0212(3)
N1 N 0.3650(4) 0.5205(11) 0.2929(2)
N2 N 0.2198(3) 0.5164(11) 0.1486(2)
Hg1B Hg 0.717533(18) -1.78956(5) 0.773777(13)
Hg1B_2 Hg -0.282467(18) -1.78956(5) -0.226223(13)
I1B I 0.81375(4) -1.83829(12) 0.72285(3)
I2B I 0.63405(3) -2.01102(11) 0.81949(2)
C1B C 0.5664(5) -1.5492(14) 0.6950(3)
H1B H 0.5508 -1.6735 0.7123
C2B C 0.5181(5) -1.4003(15) 0.6576(4)
H2B H 0.4704 -1.4266 0.6493
C3B C 0.5402(5) -1.2108(14) 0.6323(3)
C4B C 0.6112(5) -1.1782(14) 0.6473(3)
H3B H 0.6285 -1.0495 0.6327
C5B C 0.6571(5) -1.3380(13) 0.6845(3)
H4B H 0.7051 -1.3158 0.6937
C6B C 0.4878(5) -1.0582(15) 0.5922(3)
C7B C 0.4457(5) -0.9408(14) 0.5578(3)
C8B C 0.3894(4) -0.8126(14) 0.5164(3)
C9B C 0.3207(5) -0.8897(18) 0.5050(3)
H5B H 0.3123 -1.0209 0.5247
C10B C 0.2654(5) -0.774(2) 0.4652(4)
H6B H 0.2201 -0.8324 0.4565
C11B C 0.2767(6) -0.570(2) 0.4376(4)
H7B H 0.2390 -0.4902 0.4111
C12B C 0.3432(6) -0.4881(17) 0.4497(4)
H8B H 0.3505 -0.3496 0.4319
C13B C 0.4016(4) -0.6086(15) 0.4887(3)
C14B C 0.4706(4) -0.5303(15) 0.4967(3)
C15B C -0.2300(5) -1.5271(14) -0.0980(3)
H9B H -0.2595 -1.6448 -0.0928
C16B C -0.1988(5) -1.3707(15) -0.0523(3)
H10B H -0.2079 -1.3821 -0.0178
C17B C -0.1542(4) -1.1986(14) -0.0594(3)
C18B C -0.1442(4) -1.1838(15) -0.1129(3)
H11B H -0.1157 -1.0673 -0.1199
C19B C -0.1787(5) -1.3505(14) -0.1552(3)
H12B H -0.1717 -1.3424 -0.1907
C20B C -0.1205(5) -1.0341(14) -0.0129(3)
C21B C -0.0939(4) -0.9094(14) 0.0271(3)
C22B C -0.0652(4) -0.7477(13) 0.0757(3)
C23B C -0.0808(4) -0.7878(16) 0.1268(3)
H13B H -0.1073 -0.9186 0.1298
C24B C -0.0559(5) -0.6283(19) 0.1722(3)
H14B H -0.0666 -0.6506 0.2058
C25B C -0.0159(5) -0.4383(18) 0.1684(3)
H15B H 0.0009 -0.3338 0.1995
C26B C -0.0005(5) -0.4009(15) 0.1195(3)
H16B H 0.0265 -0.2700 0.1175
C27B C -0.0246(4) -0.5564(14) 0.0720(3)
C28B C -0.0069(4) -0.5151(13) 0.0212(3)
N1B N 0.6350(4) -1.5205(11) 0.7071(2)
N2B N -0.2198(3) -1.5164(11) -0.1486(2)
N2B_2 N 0.7802(3) -1.5164(11) 0.8514(2)
loop_
_geom_bond_atom_site_label_1
_geom_bond_atom_site_label_2
_geom_bond_site_symmetry_1
_geom_bond_site_symmetry_2
Hg1 I1 1_555 1_555
I2 Hg1 1_555 1_555
C1 H1 1_555 1_555
C2 C1 1_555 1_555
H2 C2 1_555 1_555
C3 C2 1_555 1_555
C4 C3 1_555 1_555
H3 C4 1_555 1_555
C5 C4 1_555 1_555
H4 C5 1_555 1_555
C6 C3 1_555 1_555
C7 C6 1_555 1_555
C8 C7 1_555 1_555
C9 C8 1_555 1_555
H5 C9 1_555 1_555
C10 C9 1_555 1_555
H6 C10 1_555 1_555
C11 C10 1_555 1_555
H7 C11 1_555 1_555
C12 C11 1_555 1_555
H8 C12 1_555 1_555
C13 C8 1_555 1_555
C14 C13 1_555 1_555
C15 H9 1_555 1_555
C16 C15 1_555 1_555
H10 C16 1_555 1_555
C17 C16 1_555 1_555
C18 C17 1_555 1_555
H11 C18 1_555 1_555
C19 C18 1_555 1_555
H12 C19 1_555 1_555
C20 C17 1_555 1_555
C21 C20 1_555 1_555
C22 C21 1_555 1_555
C23 C22 1_555 1_555
H13 C23 1_555 1_555
C24 C23 1_555 1_555
H14 C24 1_555 1_555
C25 C24 1_555 1_555
H15 C25 1_555 1_555
C26 C25 1_555 1_555
H16 C26 1_555 1_555
C27 C22 1_555 1_555
C28 C27 1_555 1_555
N1 Hg1 1_555 1_555
N2 Hg1 1_555 1_555
Hg1B I1B 1_555 1_555
Hg1B_2 N2B 1_555 1_555
I2B Hg1B 1_555 1_555
C1B H1B 1_555 1_555
C2B C1B 1_555 1_555
H2B C2B 1_555 1_555
C3B C2B 1_555 1_555
C4B C3B 1_555 1_555
H3B C4B 1_555 1_555
C5B C4B 1_555 1_555
H4B C5B 1_555 1_555
C6B C3B 1_555 1_555
C7B C6B 1_555 1_555
C8B C7B 1_555 1_555
C9B C8B 1_555 1_555
H5B C9B 1_555 1_555
C10B C9B 1_555 1_555
H6B C10B 1_555 1_555
C11B C10B 1_555 1_555
H7B C11B 1_555 1_555
C12B C11B 1_555 1_555
H8B C12B 1_555 1_555
C13B C8B 1_555 1_555
C14B C14 1_555 1_555
C15B H9B 1_555 1_555
C16B C15B 1_555 1_555
H10B C16B 1_555 1_555
C17B C16B 1_555 1_555
C18B C17B 1_555 1_555
H11B C18B 1_555 1_555
C19B C18B 1_555 1_555
H12B C19B 1_555 1_555
C20B C17B 1_555 1_555
C21B C20B 1_555 1_555
C22B C21B 1_555 1_555
C23B C22B 1_555 1_555
H13B C23B 1_555 1_555
C24B C23B 1_555 1_555
H14B C24B 1_555 1_555
C25B C24B 1_555 1_555
H15B C25B 1_555 1_555
C26B C25B 1_555 1_555
H16B C26B 1_555 1_555
C27B C22B 1_555 1_555
C28B C28 1_555 1_555
N1B Hg1B 1_555 1_555
N2B C15B 1_555 1_555
N2B_2 Hg1B 1_555 1_555
C1 N1 1_555 1_555
C5 N1 1_555 1_555
C12 C13 1_555 1_555
C15 N2 1_555 1_555
C19 N2 1_555 1_555
C26 C27 1_555 1_555
C1B N1B 1_555 1_555
C5B N1B 1_555 1_555
C12B C13B 1_555 1_555
C13B C14B 1_555 1_555
C19B N2B 1_555 1_555
C26B C27B 1_555 1_555
C27B C28B 1_555 1_555

#END
