
#######################################################################
#
#                 Cambridge Crystallographic Data Centre
#                                CCDC 
#
#######################################################################
#
# If this CIF has been generated from an entry in the Cambridge 
# Structural Database, then it will include bibliographic, chemical, 
# crystal, experimental, refinement or atomic coordinate data resulting 
# from the CCDC's data processing and validation procedures.
#
#######################################################################

data_RAMLIA
_symmetry_cell_setting           monoclinic
_symmetry_space_group_name_H-M   'C 2/c'
_symmetry_Int_Tables_number      15
_space_group_name_Hall           '-C 2yn'
loop_
_symmetry_equiv_pos_site_id
_symmetry_equiv_pos_as_xyz
1 x,y,z
2 1/2+x,1/2+y,z
3 -x,y,1/2-z
4 1/2-x,1/2+y,1/2-z
5 -x,-y,-z
6 1/2-x,1/2-y,-z
7 x,-y,1/2+z
8 1/2+x,1/2-y,1/2+z
_cell_length_a                   25.441(3)
_cell_length_b                   15.631(9)
_cell_length_c                   20.882(3)
_cell_angle_alpha                90
_cell_angle_beta                 121.669(8)
_cell_angle_gamma                90
_cell_volume                     7067.59
loop_
_atom_site_label
_atom_site_type_symbol
_atom_site_fract_x
_atom_site_fract_y
_atom_site_fract_z
Mn1 Mn 0.17085(8) 0.26346(10) 0.31573(10)
F1 F 0.2951(6) 0.5162(8) 0.399(1)
F2 F 0.2632(8) 0.5147(9) 0.4658(8)
F3 F 0.2281(4) 0.5988(6) 0.3833(7)
F4 F 0.0510(4) 0.5460(7) 0.1540(6)
F5 F -0.0032(5) 0.4524(8) 0.1645(7)
F6 F 0.0350(7) 0.4258(9) 0.1053(6)
F7 F 0.3365(5) 0.0903(7) 0.4952(6)
F8 F 0.3065(9) 0.0134(7) 0.4043(8)
F9 F 0.3829(6) 0.0831(9) 0.4480(7)
F10 F 0.3529(5) 0.260(1) 0.2531(7)
F11 F 0.3093(6) 0.3722(9) 0.2470(7)
F12 F 0.2639(5) 0.2835(9) 0.1663(5)
O1 O -0.1140(9) 0.269(2) 0.468(1)
O2 O 0.2136(3) 0.3814(6) 0.3749(4)
O3 O 0.0979(3) 0.3470(6) 0.2389(4)
O4 O 0.2451(4) 0.1777(5) 0.3847(4)
O5 O 0.2248(5) 0.2859(5) 0.2654(5)
N1 N -0.078(1) 0.230(1) 0.539(1)
N2 N 0.1312(5) 0.2370(6) 0.3867(6)
N3 N 0.1207(4) -0.1532(6) 0.7396(6)
C1 C -0.0213(7) 0.191(1) 0.5520(9)
C2 C 0.0051(6) 0.2176(8) 0.5129(8)
C3 C 0.0517(5) 0.1695(9) 0.5155(6)
C4 C 0.0707(5) 0.0958(8) 0.5585(7)
C5 C 0.0460(6) 0.0709(9) 0.6000(7)
C6 C -0.0017(7) 0.118(1) 0.5960(8)
C7 C 0.0792(6) 0.1961(7) 0.4709(7)
C8 C 0.0455(5) 0.2376(8) 0.4025(8)
C9 C 0.0736(6) 0.2566(7) 0.3643(6)
C10 C 0.1628(5) 0.1968(8) 0.4526(8)
C11 C 0.1393(6) 0.1760(7) 0.4954(6)
C12 C 0.0699(5) -0.0076(9) 0.6478(8)
C13 C 0.0910(6) -0.075(1) 0.6284(7)
C14 C 0.1145(6) -0.1470(9) 0.6734(10)
C15 C 0.0987(7) -0.087(1) 0.7576(7)
C16 C 0.0741(6) -0.0146(9) 0.7148(9)
C17 C -0.0998(10) 0.276(2) 0.570(1)
C18 C -0.042(1) 0.259(1) 0.657(1)
C19 C -0.148(2) 0.212(3) 0.563(2)
C20 C -0.126(2) 0.350(2) 0.560(2)
C21 C 0.246(1) 0.521(1) 0.394(1)
C22 C 0.1988(7) 0.4551(10) 0.3492(9)
C23 C 0.1466(9) 0.4826(8) 0.284(1)
C24 C 0.1010(7) 0.426(1) 0.2350(8)
C25 C 0.0493(9) 0.468(1) 0.166(1)
C26 C 0.324(1) 0.084(2) 0.427(1)
C27 C 0.2903(7) 0.1586(9) 0.3794(8)
C28 C 0.3083(7) 0.193(1) 0.3337(10)
C29 C 0.2760(8) 0.254(1) 0.2820(9)
C30 C 0.302(1) 0.290(2) 0.236(1)
H1 H -0.0086 0.2682 0.4839
H2 H 0.1015 0.0612 0.5587
H3 H -0.0206 0.1020 0.6230
H4 H 0.0033 0.2521 0.3829
H5 H 0.0498 0.2859 0.3178
H6 H 0.2044 0.1818 0.4702
H7 H 0.1644 0.1484 0.5424
H8 H 0.0899 -0.0736 0.5818
H9 H 0.1269 -0.1945 0.6556
H10 H 0.0986 -0.0923 0.8029
H11 H 0.0608 0.0309 0.7333
H12 H -0.0067 0.2819 0.6634
H13 H -0.0396 0.2006 0.6680
H14 H -0.0531 0.2890 0.6901
H15 H -0.1190 0.1499 0.5882
H16 H -0.1674 0.2145 0.5829
H17 H -0.1698 0.1852 0.5105
H18 H -0.1353 0.3515 0.6014
H19 H -0.1618 0.3492 0.5155
H20 H -0.0978 0.3904 0.5692
H21 H 0.1416 0.5420 0.2732
H22 H 0.3479 0.1714 0.3399
N3F N 0.1207(4) 0.1532(6) 0.2396(6)
Mn1F Mn 0.17085(8) -0.26346(10) 0.81573(10)
loop_
_geom_bond_atom_site_label_1
_geom_bond_atom_site_label_2
_geom_bond_site_symmetry_1
_geom_bond_site_symmetry_2
Mn1 O2 1_555 1_555
F1 C21 1_555 1_555
F2 C21 1_555 1_555
F3 C21 1_555 1_555
F4 C25 1_555 1_555
F5 C25 1_555 1_555
F6 C25 1_555 1_555
F7 C26 1_555 1_555
F8 C26 1_555 1_555
F9 C26 1_555 1_555
F10 C30 1_555 1_555
F11 C30 1_555 1_555
F12 C30 1_555 1_555
O1 N1 1_555 1_555
O2 C22 1_555 1_555
O3 Mn1 1_555 1_555
O4 Mn1 1_555 1_555
O5 Mn1 1_555 1_555
N1 C1 1_555 1_555
N2 Mn1 1_555 1_555
N3 C14 1_555 1_555
C1 C2 1_555 1_555
C2 C3 1_555 1_555
C3 C4 1_555 1_555
C4 C5 1_555 1_555
C5 C6 1_555 1_555
C6 C1 1_555 1_555
C7 C3 1_555 1_555
C8 C7 1_555 1_555
C9 N2 1_555 1_555
C10 N2 1_555 1_555
C11 C7 1_555 1_555
C12 C5 1_555 1_555
C13 C12 1_555 1_555
C14 C13 1_555 1_555
C15 N3 1_555 1_555
C16 C12 1_555 1_555
C17 N1 1_555 1_555
C18 C17 1_555 1_555
C19 C17 1_555 1_555
C20 C17 1_555 1_555
C21 C22 1_555 1_555
C22 C23 1_555 1_555
C23 C24 1_555 1_555
C24 O3 1_555 1_555
C25 C24 1_555 1_555
C26 C27 1_555 1_555
C27 O4 1_555 1_555
C28 C27 1_555 1_555
C29 O5 1_555 1_555
C30 C29 1_555 1_555
H1 C2 1_555 1_555
H2 C4 1_555 1_555
H3 C6 1_555 1_555
H4 C8 1_555 1_555
H5 C9 1_555 1_555
H6 C10 1_555 1_555
H7 C11 1_555 1_555
H8 C13 1_555 1_555
H9 C14 1_555 1_555
H10 C15 1_555 1_555
H11 C16 1_555 1_555
H12 C18 1_555 1_555
H13 C18 1_555 1_555
H14 C18 1_555 1_555
H15 C19 1_555 1_555
H16 C19 1_555 1_555
H17 C19 1_555 1_555
H18 C20 1_555 1_555
H19 C20 1_555 1_555
H20 C20 1_555 1_555
H21 C23 1_555 1_555
H22 C28 1_555 1_555
N3F Mn1 1_555 1_555
Mn1F N3 1_555 1_555
C8 C9 1_555 1_555
C10 C11 1_555 1_555
C15 C16 1_555 1_555
C28 C29 1_555 1_555

#END
