
#######################################################################
#
#                 Cambridge Crystallographic Data Centre
#                                CCDC 
#
#######################################################################
#
# If this CIF has been generated from an entry in the Cambridge 
# Structural Database, then it will include bibliographic, chemical, 
# crystal, experimental, refinement or atomic coordinate data resulting 
# from the CCDC's data processing and validation procedures.
#
#######################################################################

data_RAMSON
_symmetry_cell_setting           triclinic
_symmetry_space_group_name_H-M   'P -1'
_symmetry_Int_Tables_number      2
_space_group_name_Hall           '-P 1'
loop_
_symmetry_equiv_pos_site_id
_symmetry_equiv_pos_as_xyz
1 x,y,z
2 -x,-y,-z
_cell_length_a                   5.4098(3)
_cell_length_b                   8.3711(5)
_cell_length_c                   16.1500(10)
_cell_angle_alpha                101.5260(10)
_cell_angle_beta                 91.2810(10)
_cell_angle_gamma                91.2940(10)
_cell_volume                     716.168
loop_
_atom_site_label
_atom_site_type_symbol
_atom_site_fract_x
_atom_site_fract_y
_atom_site_fract_z
Hg1 Hg 0.90761(5) 0.24927(3) -0.246850(15)
I1 I 0.94657(9) -0.04542(5) -0.34462(3)
I2 I 1.10997(9) 0.52113(6) -0.15683(3)
N1 N -0.6119(11) 0.6391(7) -0.6645(3)
N2 N 0.6147(11) 0.1753(7) -0.1458(4)
N3 N -0.0751(11) 0.4476(7) -0.5210(4)
C1 C -0.5933(13) 0.4771(9) -0.6679(4)
H1 H -0.7019 0.4056 -0.7034
C2 C 0.5858(13) 0.2645(8) -0.0689(4)
H2 H 0.6892 0.3556 -0.0508
C3 C -0.4504(14) 0.7397(9) -0.6136(5)
H3 H -0.4630 0.8513 -0.6104
C4 C -0.2679(14) 0.6866(9) -0.5661(5)
H4 H -0.1569 0.7602 -0.5328
C5 C -0.4173(13) 0.4137(9) -0.6200(5)
H5 H -0.4103 0.3020 -0.6224
C6 C -0.2531(13) 0.5212(9) -0.5688(4)
C7 C 0.2505(13) 0.0919(8) -0.0442(4)
C8 C 0.2783(14) 0.0011(9) -0.1232(5)
H6 H 0.1744 -0.0888 -0.1437
C9 C 0.4078(14) 0.2273(9) -0.0147(5)
H7 H -0.3935 -0.2901 -0.0393
C10 C 0.4626(14) 0.0448(9) -0.1717(5)
H8 H 0.4835 -0.0188 -0.2251
N4 N 0.0722(11) 0.0578(7) 0.0153(4)
N3A N 0.0751(11) 0.5524(7) -0.4790(4)
C6A C 0.2531(13) 0.4788(9) -0.4312(4)
C4A C 0.2679(14) 0.3134(9) -0.4339(5)
C3A C 0.4504(14) 0.2603(9) -0.3864(5)
N1A N 0.6119(11) 0.3609(7) -0.3355(3)
Hg1A Hg -0.90761(5) 0.75073(3) -0.753150(15)
N4A N -0.0722(11) -0.0578(7) -0.0153(4)
C7A C -0.2505(13) -0.0919(8) 0.0442(4)
C8A C -0.2783(14) -0.0011(9) 0.1232(5)
H6A H -0.1744 0.0888 0.1437
C10A C -0.4626(14) -0.0448(9) 0.1717(5)
N2A N -0.6147(11) -0.1753(7) 0.1458(4)
Hg1A_2 Hg -0.90761(5) -0.24927(3) 0.246850(15)
I1A I -0.94657(9) 0.04542(5) 0.34462(3)
I2A I -1.10997(9) -0.52113(6) 0.15683(3)
N1_2 N -0.6119(11) -0.3609(7) 0.3355(3)
C2A C -0.5858(13) -0.2645(8) 0.0689(4)
H2A H -0.6892 -0.3556 0.0508
C9A C -0.4078(14) -0.2273(9) 0.0147(5)
H8A H -0.4835 0.0188 0.2251
H7A H 0.3935 0.2901 0.0393
C1A C 0.5933(13) 0.5229(9) -0.3321(4)
H1A H 0.7019 0.5944 -0.2966
C5A C 0.4173(13) 0.5863(9) -0.3800(5)
H5A H 0.4103 0.6980 -0.3776
H3A H 0.4630 0.1487 -0.3896
H4A H 0.1569 0.2398 -0.4672
loop_
_geom_bond_atom_site_label_1
_geom_bond_atom_site_label_2
_geom_bond_site_symmetry_1
_geom_bond_site_symmetry_2
Hg1 I1 1_555 1_555
I2 Hg1 1_555 1_555
N1 C1 1_555 1_555
N2 Hg1 1_555 1_555
N3 C6 1_555 1_555
C1 H1 1_555 1_555
C2 N2 1_555 1_555
H2 C2 1_555 1_555
C3 N1 1_555 1_555
H3 C3 1_555 1_555
C4 C3 1_555 1_555
H4 C4 1_555 1_555
C5 C1 1_555 1_555
H5 C5 1_555 1_555
C6 C4 1_555 1_555
C7 C8 1_555 1_555
C8 H6 1_555 1_555
C9 C2 1_555 1_555
H7 C9A 1_555 1_555
C10 N2 1_555 1_555
H8 C10 1_555 1_555
N4 C7 1_555 1_555
N3A N3 1_555 1_555
C6A N3A 1_555 1_555
C4A C6A 1_555 1_555
C3A C4A 1_555 1_555
N1A Hg1 1_555 1_555
Hg1A N1 1_555 1_555
N4A N4 1_555 1_555
C7A N4A 1_555 1_555
C8A C7A 1_555 1_555
H6A C8A 1_555 1_555
C10A C8A 1_555 1_555
N2A C10A 1_555 1_555
Hg1A_2 N2A 1_555 1_555
I1A Hg1A_2 1_555 1_555
I2A Hg1A_2 1_555 1_555
N1_2 Hg1A_2 1_555 1_555
C2A N2A 1_555 1_555
H2A C2A 1_555 1_555
C9A C7A 1_555 1_555
H8A C10A 1_555 1_555
H7A C9 1_555 1_555
C1A N1A 1_555 1_555
H1A C1A 1_555 1_555
C5A C6A 1_555 1_555
H5A C5A 1_555 1_555
H3A C3A 1_555 1_555
H4A C4A 1_555 1_555
C5 C6 1_555 1_555
C7 C9 1_555 1_555
C8 C10 1_555 1_555
C3A N1A 1_555 1_555
C2A C9A 1_555 1_555
C1A C5A 1_555 1_555

#END
