
#######################################################################
#
#                 Cambridge Crystallographic Data Centre
#                                CCDC 
#
#######################################################################
#
# If this CIF has been generated from an entry in the Cambridge 
# Structural Database, then it will include bibliographic, chemical, 
# crystal, experimental, refinement or atomic coordinate data resulting 
# from the CCDC's data processing and validation procedures.
#
#######################################################################

data_RAMSUT01
_symmetry_cell_setting           rhombohedral
_symmetry_space_group_name_H-M   'R -3'
_symmetry_Int_Tables_number      148
_space_group_name_Hall           '-R 3'
loop_
_symmetry_equiv_pos_site_id
_symmetry_equiv_pos_as_xyz
1 x,y,z
2 -y,x-y,z
3 -x+y,-x,z
4 2/3+x,1/3+y,1/3+z
5 2/3-y,1/3+x-y,1/3+z
6 2/3-x+y,1/3-x,1/3+z
7 1/3+x,2/3+y,2/3+z
8 1/3-y,2/3+x-y,2/3+z
9 1/3-x+y,2/3-x,2/3+z
10 -x,-y,-z
11 y,-x+y,-z
12 x-y,x,-z
13 1/3-x,2/3-y,2/3-z
14 1/3+y,2/3-x+y,2/3-z
15 1/3+x-y,2/3+x,2/3-z
16 2/3-x,1/3-y,1/3-z
17 2/3+y,1/3-x+y,1/3-z
18 2/3+x-y,1/3+x,1/3-z
_cell_length_a                   11.7671(8)
_cell_length_b                   11.7671(8)
_cell_length_c                   14.9271(14)
_cell_angle_alpha                90
_cell_angle_beta                 90
_cell_angle_gamma                120.00
_cell_volume                     1789.97
loop_
_atom_site_label
_atom_site_type_symbol
_atom_site_fract_x
_atom_site_fract_y
_atom_site_fract_z
Cd1 Cd 0.3333 0.1667 0.1667
O1 O 0.34901(16) 0.05723(18) 0.04318(10)
O2 O 0.63365(15) 0.12230(15) 0.11469(11)
O3 O 0.16864(15) 0.16162(17) 0.08872(10)
H1 H 0.2038 0.2176 0.0354
H2 H 0.1096 0.1828 0.1263
C1 C 0.4320(2) 0.0260(2) 0.01993(13)
C2 C 0.56120(19) 0.0550(2) 0.05173(14)
Cd1A Cd 0.8333 0.1666 0.1667
Cd1F Cd 0.6666 -0.1666 -0.1666
Cd1J Cd 0.1667 -0.1666 -0.1667
O1I O 0.65099(16) -0.05723(18) -0.04318(10)
O1O O 0.31766(16) 0.27610(18) 0.29015(10)
O2I O 0.36635(15) -0.12230(15) -0.11469(11)
O2B O 0.48865(21) 0.36635(15) 0.11469(11)
O2Q O 0.17802(21) -0.03302(15) 0.21864(11)
O3O O 0.49803(15) 0.17171(17) 0.24461(10)
H1O H 0.4629 0.1157 0.2979
H2O H 0.5571 0.1505 0.2070
C1I C 0.5680(2) -0.0260(2) -0.01993(13)
C2I C 0.43880(19) -0.0550(2) -0.05173(14)
loop_
_geom_bond_atom_site_label_1
_geom_bond_atom_site_label_2
_geom_bond_site_symmetry_1
_geom_bond_site_symmetry_2
Cd1 O1 1_555 1_555
O1 C1 1_555 1_555
O2 C2 1_555 1_555
O3 Cd1 1_555 1_555
H1 O3 1_555 1_555
H2 O3 1_555 1_555
C1 C2 1_555 1_555
C2 C1I 1_555 1_555
Cd1A O2 1_555 1_555
Cd1F O1I 1_555 1_555
Cd1J O2I 1_555 1_555
O1I C1I 1_555 1_555
O1O Cd1 1_555 1_555
O2I C2I 1_555 1_555
O2B Cd1 1_555 1_555
O2Q Cd1 1_555 1_555
O3O Cd1 1_555 1_555
H1O O3O 1_555 1_555
H2O O3O 1_555 1_555
C1I C2I 1_555 1_555
C2I C1 1_555 1_555

#END
