
#######################################################################
#
#                 Cambridge Crystallographic Data Centre
#                                CCDC 
#
#######################################################################
#
# If this CIF has been generated from an entry in the Cambridge 
# Structural Database, then it will include bibliographic, chemical, 
# crystal, experimental, refinement or atomic coordinate data resulting 
# from the CCDC's data processing and validation procedures.
#
#######################################################################

data_RAMSUT
_symmetry_cell_setting           rhombohedral
_symmetry_space_group_name_H-M   'R -3'
_symmetry_Int_Tables_number      148
_space_group_name_Hall           '-R 3'
loop_
_symmetry_equiv_pos_site_id
_symmetry_equiv_pos_as_xyz
1 x,y,z
2 -y,x-y,z
3 -x+y,-x,z
4 2/3+x,1/3+y,1/3+z
5 2/3-y,1/3+x-y,1/3+z
6 2/3-x+y,1/3-x,1/3+z
7 1/3+x,2/3+y,2/3+z
8 2/3+y,1/3-x+y,1/3-z
9 2/3+x-y,1/3+x,1/3-z
10 -x,-y,-z
11 y,-x+y,-z
12 x-y,x,-z
13 1/3-x,2/3-y,2/3-z
14 1/3+y,2/3-x+y,2/3-z
15 1/3+x-y,2/3+x,2/3-z
16 2/3-x,1/3-y,1/3-z
17 1/3-y,2/3+x-y,2/3+z
18 1/3-x+y,2/3-x,2/3+z
_cell_length_a                   11.765(6)
_cell_length_b                   11.765(6)
_cell_length_c                   14.920(7)
_cell_angle_alpha                90
_cell_angle_beta                 90
_cell_angle_gamma                120.00
_cell_volume                     1788.48
loop_
_atom_site_label
_atom_site_type_symbol
_atom_site_fract_x
_atom_site_fract_y
_atom_site_fract_z
Cd1 Cd 0.3333 0.1667 0.1667
O1 O 0.1688(3) 0.1622(3) 0.08905(17)
H1 H 0.211(5) 0.227(4) 0.047(3)
H2 H 0.104(4) 0.167(6) 0.119(3)
O2 O 0.4896(3) 0.3660(3) 0.11433(17)
O3 O 0.7080(3) 0.6518(3) 0.04318(16)
C1 C 0.4938(3) 0.4385(3) 0.05138(19)
C2 C 0.5937(3) 0.5681(3) 0.02022(19)
O1O O 0.4979(3) 0.1711(3) 0.24428(17)
H1O H 0.456(5) 0.106(4) 0.286(3)
H2O H 0.563(4) 0.166(6) 0.214(3)
O3A O 0.3482(3) 0.0562(4) 0.04318(16)
Cd1B Cd 0.8334 0.6667 0.1667
O2O O 0.1771(3) -0.0327(3) 0.21900(17)
O3G O 0.3185(3) 0.2771(4) 0.29015(16)
C1I C 0.5062(3) 0.5615(3) -0.05138(19)
C2I C 0.4063(3) 0.4319(3) -0.02022(19)
O3I O 0.2920(3) 0.3482(3) -0.04318(16)
O2I O 0.5104(3) 0.6340(3) -0.11433(17)
Cd1K Cd 0.1666 0.3333 -0.1667
Cd1F Cd 0.6666 0.8334 -0.1666
loop_
_geom_bond_atom_site_label_1
_geom_bond_atom_site_label_2
_geom_bond_site_symmetry_1
_geom_bond_site_symmetry_2
Cd1 O1 1_555 1_555
O1 H1 1_555 1_555
H2 O1 1_555 1_555
O2 Cd1 1_555 1_555
O3 C2 1_555 1_555
C1 O2 1_555 1_555
C2 C1 1_555 1_555
O1O Cd1 1_555 1_555
H1O O1O 1_555 1_555
H2O O1O 1_555 1_555
O3A Cd1 1_555 1_555
Cd1B O3 1_555 1_555
O2O Cd1 1_555 1_555
O3G Cd1 1_555 1_555
C1I C2 1_555 1_555
C2I C1 1_555 1_555
O3I C2I 1_555 1_555
O2I C1I 1_555 1_555
Cd1K O3I 1_555 1_555
Cd1F O2I 1_555 1_555
C1I C2I 1_555 1_555

#END
