
#######################################################################
#
#                 Cambridge Crystallographic Data Centre
#                                CCDC 
#
#######################################################################
#
# If this CIF has been generated from an entry in the Cambridge 
# Structural Database, then it will include bibliographic, chemical, 
# crystal, experimental, refinement or atomic coordinate data resulting 
# from the CCDC's data processing and validation procedures.
#
#######################################################################

data_RAMXUY
_symmetry_cell_setting           triclinic
_symmetry_space_group_name_H-M   'P -1'
_symmetry_Int_Tables_number      2
_space_group_name_Hall           '-P 1'
loop_
_symmetry_equiv_pos_site_id
_symmetry_equiv_pos_as_xyz
1 x,y,z
2 -x,-y,-z
_cell_length_a                   8.8820(18)
_cell_length_b                   10.941(2)
_cell_length_c                   11.666(2)
_cell_angle_alpha                69.42(3)
_cell_angle_beta                 80.78(3)
_cell_angle_gamma                80.89(3)
_cell_volume                     1041.21
loop_
_atom_site_label
_atom_site_type_symbol
_atom_site_fract_x
_atom_site_fract_y
_atom_site_fract_z
Ba1 Ba 0.24234(3) 0.93444(3) 0.09550(2)
C1 C -0.0342(5) 0.7055(4) 0.5871(4)
C2 C 0.1474(5) 0.7272(4) 0.4069(4)
C3 C -0.0365(5) 0.9012(4) 0.4066(4)
C4 C 0.4719(5) 0.8989(4) 0.3847(4)
C5 C 0.6584(5) 0.7249(4) 0.3923(4)
C6 C 0.4824(5) 0.7155(4) 0.5744(4)
N1 N 0.0843(4) 0.8500(3) 0.3481(3)
N2 N -0.0971(4) 0.8279(4) 0.5229(3)
H1 H -0.1807 0.8621 0.5573
N3 N 0.0890(4) 0.6596(3) 0.5242(3)
H2 H 0.1348 0.5810 0.5609
N4 N 0.6040(4) 0.6636(3) 0.5139(3)
H3 H 0.6509 0.5868 0.5541
N5 N 0.4216(4) 0.8371(3) 0.5062(3)
H4 H 0.3460 0.8782 0.5421
N6 N 0.5922(4) 0.8436(3) 0.3289(3)
O1 O 0.0993(3) 1.0557(3) -0.1201(3)
H5 H 0.1320 0.9948 -0.1736
H6 H 0.1287 1.1326 -0.1812
O2 O 0.4297(3) 1.1236(3) -0.0844(3)
H7 H 0.3948 1.1915 -0.0767
H8 H 0.4076 1.1333 -0.1581
O3 O 0.3669(4) 0.8309(3) -0.0846(3)
H9 H 0.4304 0.8480 -0.1371
H10 H 0.3389 0.7816 -0.0928
O4 O 0.1121(4) 0.7111(3) 0.0871(3)
H11 H -0.0234 0.7667 0.0863
H12 H 0.0531 0.6952 0.1592
O5 O 0.1050(4) 1.1896(3) 0.0824(3)
H13 H 0.0364 1.2345 0.1451
H14 H 0.1587 1.2557 0.0779
S1 S -0.10443(16) 0.62283(12) 0.72934(11)
S2 S 0.29979(14) 0.65588(11) 0.33685(10)
S3 S -0.12155(14) 1.05537(11) 0.34223(10)
S4 S 0.37612(14) 1.04496(11) 0.30905(10)
S5 S 0.80820(14) 0.64803(11) 0.32618(11)
S6 S 0.41114(15) 0.63946(12) 0.71824(11)
Ba1A Ba -0.24234(3) 1.06556(3) -0.09550(2)
O1A O -0.0993(3) 0.9443(3) 0.1201(3)
Ba1A_2 Ba 0.75766(3) 1.06556(3) -0.09550(2)
O2A O 0.5703(3) 0.8764(3) 0.0844(3)
H7A H 0.6052 0.8085 0.0767
H8A H 0.5924 0.8667 0.1581
H5A H -0.1320 1.0052 0.1736
H6A H -0.1287 0.8674 0.1812
O6 O 0.3021(4) 1.3669(3) -0.0559(3)
H15 H 0.3307 1.4098 -0.0193
H16 H 0.2996 1.4212 -0.1216
O7 O 0.3604(6) 0.5413(4) 0.0490(4)
loop_
_geom_bond_atom_site_label_1
_geom_bond_atom_site_label_2
_geom_bond_site_symmetry_1
_geom_bond_site_symmetry_2
Ba1 N1 1_555 1_555
C1 N2 1_555 1_555
C2 N1 1_555 1_555
C3 N1 1_555 1_555
C4 N5 1_555 1_555
C5 N4 1_555 1_555
C6 N4 1_555 1_555
N2 C3 1_555 1_555
H1 N2 1_555 1_555
N3 C1 1_555 1_555
H2 N3 1_555 1_555
N4 H3 1_555 1_555
N5 C6 1_555 1_555
H4 N5 1_555 1_555
N6 C4 1_555 1_555
O1 Ba1 1_555 1_555
H5 O1 1_555 1_555
H6 O1 1_555 1_555
O2 Ba1 1_555 1_555
H7 O2 1_555 1_555
H8 O2 1_555 1_555
O3 Ba1 1_555 1_555
H9 O3 1_555 1_555
H10 O3 1_555 1_555
O4 Ba1 1_555 1_555
H11 O4 1_555 1_555
H12 O4 1_555 1_555
O5 Ba1 1_555 1_555
H13 O5 1_555 1_555
H14 O5 1_555 1_555
S1 C1 1_555 1_555
S2 Ba1 1_555 1_555
S3 C3 1_555 1_555
S4 Ba1 1_555 1_555
S5 C5 1_555 1_555
S6 C6 1_555 1_555
O6 H15 1_555 1_555
H16 O6 1_555 1_555
Ba1A O1 1_555 1_555
O1A Ba1 1_555 1_555
Ba1A_2 O2 1_555 1_555
O2A Ba1 1_555 1_555
H7A O2A 1_555 1_555
H8A O2A 1_555 1_555
H5A O1A 1_555 1_555
H6A O1A 1_555 1_555
C2 N3 1_555 1_555
C2 S2 1_555 1_555
C4 S4 1_555 1_555
C5 N6 1_555 1_555
Ba1A O1A 1_555 1_555
Ba1A_2 O2A 1_555 1_555

#END
