
#######################################################################
#
#                 Cambridge Crystallographic Data Centre
#                                CCDC 
#
#######################################################################
#
# If this CIF has been generated from an entry in the Cambridge 
# Structural Database, then it will include bibliographic, chemical, 
# crystal, experimental, refinement or atomic coordinate data resulting 
# from the CCDC's data processing and validation procedures.
#
#######################################################################

data_RAMZUB
_symmetry_cell_setting           monoclinic
_symmetry_space_group_name_H-M   'P 21/c'
_symmetry_Int_Tables_number      14
_space_group_name_Hall           '-P 2ybc'
loop_
_symmetry_equiv_pos_site_id
_symmetry_equiv_pos_as_xyz
1 x,y,z
2 -x,1/2+y,1/2-z
3 -x,-y,-z
4 x,1/2-y,1/2+z
_cell_length_a                   6.9556(6)
_cell_length_b                   11.302(1)
_cell_length_c                   10.5288(9)
_cell_angle_alpha                90
_cell_angle_beta                 90.057(2)
_cell_angle_gamma                90
_cell_volume                     827.692
loop_
_atom_site_label
_atom_site_type_symbol
_atom_site_fract_x
_atom_site_fract_y
_atom_site_fract_z
U1 U 0.25142(2) 0.148101(14) 0.322140(16)
O1 O 0.3531(5) 0.1239(3) 0.4728(4)
O2 O 0.1623(5) 0.1719(3) 0.1671(4)
O3 O 0.0177(5) -0.0153(3) 0.3065(3)
H1 H -0.0206 -0.0215 0.2301
H2 H 0.0711 -0.0795 0.3293
O4 O 0.3976(5) -0.0470(3) 0.2760(4)
O5 O 0.5950(5) -0.1676(3) 0.1705(4)
O6 O 0.9496(6) 0.3511(3) -0.0189(4)
O7 O 1.0140(5) 0.1896(3) -0.1268(4)
N1 N 0.5693(6) 0.1438(3) 0.1909(4)
N2 N 0.6685(6) 0.2246(4) 0.1263(4)
H3 H 0.6600 0.3013 0.1395
C1 C 0.5357(6) -0.0669(4) 0.1992(5)
C2 C 0.6241(6) 0.0385(4) 0.1428(5)
C3 C 0.7583(7) 0.0533(4) 0.0442(5)
H4 H 0.8173 -0.0062 -0.0062
C4 C 0.7844(7) 0.1746(4) 0.0375(5)
C5 C 0.9214(7) 0.2437(4) -0.0407(5)
U1A U 0.74858(2) -0.351899(14) 0.177860(16)
U1C U 1.25142(2) 0.351899(14) -0.177860(16)
O5A O 0.4050(5) 0.3324(3) 0.3295(4)
O7C O 0.0140(5) 0.3104(3) 0.3732(4)
loop_
_geom_bond_atom_site_label_1
_geom_bond_atom_site_label_2
_geom_bond_site_symmetry_1
_geom_bond_site_symmetry_2
U1 O1 1_555 1_555
O2 U1 1_555 1_555
O3 U1 1_555 1_555
H1 O3 1_555 1_555
H2 O3 1_555 1_555
O4 U1 1_555 1_555
O5 C1 1_555 1_555
O6 C5 1_555 1_555
O7 C5 1_555 1_555
N1 U1 1_555 1_555
N2 N1 1_555 1_555
H3 N2 1_555 1_555
C1 O4 1_555 1_555
C2 N1 1_555 1_555
C3 C2 1_555 1_555
H4 C3 1_555 1_555
C4 N2 1_555 1_555
C5 C4 1_555 1_555
U1A O5 1_555 1_555
U1C O7 1_555 1_555
O5A U1 1_555 1_555
O7C U1 1_555 1_555
C1 C2 1_555 1_555
C3 C4 1_555 1_555

#END
