
#######################################################################
#
#                 Cambridge Crystallographic Data Centre
#                                CCDC 
#
#######################################################################
#
# If this CIF has been generated from an entry in the Cambridge 
# Structural Database, then it will include bibliographic, chemical, 
# crystal, experimental, refinement or atomic coordinate data resulting 
# from the CCDC's data processing and validation procedures.
#
#######################################################################

data_RANBAK
_symmetry_cell_setting           triclinic
_symmetry_space_group_name_H-M   'P -1'
_symmetry_Int_Tables_number      2
_space_group_name_Hall           '-P 1'
loop_
_symmetry_equiv_pos_site_id
_symmetry_equiv_pos_as_xyz
1 x,y,z
2 -x,-y,-z
_cell_length_a                   5.1014(7)
_cell_length_b                   7.6067(11)
_cell_length_c                   10.2910(15)
_cell_angle_alpha                72.380(3)
_cell_angle_beta                 86.796(3)
_cell_angle_gamma                84.447(3)
_cell_volume                     378.67
loop_
_atom_site_label
_atom_site_type_symbol
_atom_site_fract_x
_atom_site_fract_y
_atom_site_fract_z
U1 U 0.0000 0.0000 0.0000
Cu1 Cu -0.5000 1.0000 -0.5000
O1 O 0.2451(8) -0.0308(6) 0.1220(4)
O2 O 0.1718(8) 0.2604(6) -0.1338(4)
O3 O 0.3118(9) 0.3986(6) -0.3467(5)
O4 O -0.7391(8) 0.8088(6) -0.1075(4)
O5 O -0.7311(8) 0.9685(5) -0.3293(4)
C1 C 0.1596(9) 0.3858(7) -0.2482(5)
C2 C -0.0669(10) 0.5316(7) -0.2638(5)
C3 C -0.2646(10) 0.5656(7) -0.1747(5)
H1 H -0.2940 0.4987 -0.0839
C4 C -0.4096(10) 0.7233(7) -0.2526(5)
C5 C -0.6464(9) 0.8405(7) -0.2278(5)
N1 N -0.3052(9) 0.7810(6) -0.3798(4)
N2 N -0.0950(9) 0.6644(6) -0.3846(4)
H2 H 0.0081 0.6726 -0.4549
O6 O -0.2596(8) 1.2013(6) -0.4119(4)
U1_2 U -1.0000 1.0000 0.0000
U1_3 U 1.0000 -1.0000 0.0000
Cu1_2 Cu 0.5000 -1.0000 0.5000
O1A O -0.2451(8) 0.0308(6) -0.1220(4)
O2A O -0.1718(8) -0.2604(6) 0.1338(4)
O3A O -0.3118(9) -0.3986(6) 0.3467(5)
O4A O 0.7391(8) -0.8088(6) 0.1075(4)
O4_2 O 0.2609(8) -0.1912(6) -0.1075(4)
O4A_2 O -0.2609(8) 0.1912(6) 0.1075(4)
O5A O 0.7311(8) -0.9685(5) 0.3293(4)
O5A_2 O -0.2689(8) 1.0315(5) -0.6707(4)
C1A C -0.1596(9) -0.3858(7) 0.2482(5)
C2A C 0.0669(10) -0.5316(7) 0.2638(5)
C3A C 0.2646(10) -0.5656(7) 0.1747(5)
H1A H 0.2940 -0.4987 0.0839
C4A C 0.4096(10) -0.7233(7) 0.2526(5)
C5A C 0.6464(9) -0.8405(7) 0.2278(5)
N1A N 0.3052(9) -0.7810(6) 0.3798(4)
N1A_2 N -0.6948(9) 1.2190(6) -0.6202(4)
N2A N 0.0950(9) -0.6644(6) 0.3846(4)
H2A H -0.0081 -0.6726 0.4549
O6A O -0.7404(8) 0.7987(6) -0.5881(4)
loop_
_geom_bond_atom_site_label_1
_geom_bond_atom_site_label_2
_geom_bond_site_symmetry_1
_geom_bond_site_symmetry_2
U1 O1 1_555 1_555
Cu1 O5 1_555 1_555
O2 U1 1_555 1_555
O3 C1 1_555 1_555
O4 C5 1_555 1_555
O5 C5 1_555 1_555
C1 O2 1_555 1_555
C2 C1 1_555 1_555
C3 C2 1_555 1_555
H1 C3 1_555 1_555
C4 C3 1_555 1_555
C5 C4 1_555 1_555
N1 Cu1 1_555 1_555
N2 C2 1_555 1_555
H2 N2 1_555 1_555
O6 Cu1 1_555 1_555
U1_2 O4 1_555 1_555
U1_3 O4A 1_555 1_555
Cu1_2 O5A 1_555 1_555
O1A U1 1_555 1_555
O2A U1 1_555 1_555
O3A C1A 1_555 1_555
O4A C5A 1_555 1_555
O4_2 U1 1_555 1_555
O4A_2 U1 1_555 1_555
O5A C5A 1_555 1_555
O5A_2 Cu1 1_555 1_555
C1A O2A 1_555 1_555
C2A C1A 1_555 1_555
C3A C2A 1_555 1_555
H1A C3A 1_555 1_555
C4A C3A 1_555 1_555
C5A C4A 1_555 1_555
N1A Cu1_2 1_555 1_555
N1A_2 Cu1 1_555 1_555
N2A C2A 1_555 1_555
H2A N2A 1_555 1_555
O6A Cu1 1_555 1_555
C4 N1 1_555 1_555
N1 N2 1_555 1_555
C4A N1A 1_555 1_555
N1A N2A 1_555 1_555

#END
