
#######################################################################
#
#                 Cambridge Crystallographic Data Centre
#                                CCDC 
#
#######################################################################
#
# If this CIF has been generated from an entry in the Cambridge 
# Structural Database, then it will include bibliographic, chemical, 
# crystal, experimental, refinement or atomic coordinate data resulting 
# from the CCDC's data processing and validation procedures.
#
#######################################################################

data_RANKUO
_symmetry_cell_setting           monoclinic
_symmetry_space_group_name_H-M   'P 21/n'
_symmetry_Int_Tables_number      14
_space_group_name_Hall           '-P 2yn'
loop_
_symmetry_equiv_pos_site_id
_symmetry_equiv_pos_as_xyz
1 x,y,z
2 1/2-x,1/2+y,1/2-z
3 -x,-y,-z
4 1/2+x,1/2-y,1/2+z
_cell_length_a                   17.5811(15)
_cell_length_b                   4.1743(2)
_cell_length_c                   23.8229(18)
_cell_angle_alpha                90
_cell_angle_beta                 96.073(5)
_cell_angle_gamma                90
_cell_volume                     1738.52
loop_
_atom_site_label
_atom_site_type_symbol
_atom_site_fract_x
_atom_site_fract_y
_atom_site_fract_z
I1 I 0.20331(3) 1.08543(12) -0.179947(18)
I2 I 0.43038(3) 1.57134(12) -0.158317(19)
I3 I 0.60138(3) 1.26256(12) 0.472837(18)
Cu1 Cu 0.34964(6) 1.0858(2) -0.13038(4)
Cu2 Cu 0.50933(5) 0.7701(2) 0.46023(3)
O1 O 0.3827(3) 0.8039(11) 0.16625(17)
N1 N 0.4609(3) 0.7484(15) 0.3784(2)
C1 C 0.3583(4) 0.6443(18) 0.2106(3)
C2 C 0.2813(4) 0.7248(19) 0.0233(3)
H1 H 0.2401 0.6018 0.0321
C3 C 0.3329(4) 0.6994(18) 0.1221(3)
N2 N 0.2839(4) 0.4963(16) 0.1374(2)
N3 N 0.3020(4) 0.4604(16) 0.1961(2)
N4 N 0.3427(3) 1.0034(13) -0.0465(2)
C4 C 0.3952(4) 0.6885(16) 0.2677(2)
C5 C 0.3970(4) 1.0913(19) -0.0063(3)
H2 H 0.4368 1.2190 -0.0163
C6 C 0.4628(4) 0.8514(18) 0.2798(3)
H3 H 0.4875 0.9428 0.2511
C7 C 0.3606(4) 0.5530(19) 0.3121(3)
H4 H 0.3150 0.4398 0.3054
C8 C 0.3383(4) 0.8106(17) 0.0649(2)
C9 C 0.2862(4) 0.8235(17) -0.0314(3)
H5 H 0.2478 0.7607 -0.0591
C10 C 0.3969(4) 1.0016(19) 0.0495(3)
H6 H 0.4358 1.0688 0.0765
C11 C 0.4934(4) 0.877(2) 0.3352(3)
H7 H 0.5390 0.9890 0.3432
C12 C 0.3957(4) 0.591(2) 0.3660(3)
H8 H 0.3724 0.5007 0.3955
Cu3 Cu 0.28887(6) 0.5864(3) -0.20793(4)
I1_2 I 0.20331(3) 0.08543(12) -0.179947(18)
I1A I 0.29669(3) 0.58543(12) -0.320053(18)
I2_2 I 0.43038(3) 0.57134(12) -0.158317(19)
I3_2 I 0.60138(3) 0.26256(12) 0.472837(18)
I3B I 0.39862(3) 0.73744(12) 0.527163(18)
Cu1_2 Cu 0.34964(6) 2.0858(2) -0.13038(4)
Cu2_2 Cu 0.50933(5) 1.7701(2) 0.46023(3)
Cu2B Cu 0.49067(5) 1.2299(2) 0.53977(3)
Cu3_2 Cu 0.28887(6) 1.5864(3) -0.20793(4)
Cu3A Cu 0.21113(6) 1.0864(3) -0.29207(4)
loop_
_geom_bond_atom_site_label_1
_geom_bond_atom_site_label_2
_geom_bond_site_symmetry_1
_geom_bond_site_symmetry_2
I1 Cu1 1_555 1_555
I2 Cu1 1_555 1_555
I3 Cu2 1_555 1_555
Cu1 N4 1_555 1_555
Cu2 N1 1_555 1_555
O1 C1 1_555 1_555
N1 C11 1_555 1_555
C1 N3 1_555 1_555
C2 H1 1_555 1_555
C3 O1 1_555 1_555
N2 C3 1_555 1_555
N3 N2 1_555 1_555
N4 C5 1_555 1_555
C4 C1 1_555 1_555
C5 H2 1_555 1_555
C6 C4 1_555 1_555
H3 C6 1_555 1_555
C7 C4 1_555 1_555
H4 C7 1_555 1_555
C8 C2 1_555 1_555
C9 C2 1_555 1_555
H5 C9 1_555 1_555
C10 C5 1_555 1_555
H6 C10 1_555 1_555
C11 C6 1_555 1_555
H7 C11 1_555 1_555
C12 N1 1_555 1_555
H8 C12 1_555 1_555
Cu3 I1 1_555 1_555
I1_2 Cu3 1_555 1_555
I1A Cu3 1_555 1_555
I2_2 Cu1 1_555 1_555
I3_2 Cu2 1_555 1_555
I3B Cu2 1_555 1_555
Cu1_2 I2 1_555 1_555
Cu2_2 I3 1_555 1_555
Cu2B I3 1_555 1_555
Cu3_2 I1 1_555 1_555
Cu3A I1 1_555 1_555
I2 Cu3_2 1_555 1_555
C3 C8 1_555 1_555
N4 C9 1_555 1_555
C7 C12 1_555 1_555
C8 C10 1_555 1_555
Cu3 I2_2 1_555 1_555
I1A Cu3A 1_555 1_555
I3B Cu2B 1_555 1_555

#END
