
#######################################################################
#
#                 Cambridge Crystallographic Data Centre
#                                CCDC 
#
#######################################################################
#
# If this CIF has been generated from an entry in the Cambridge 
# Structural Database, then it will include bibliographic, chemical, 
# crystal, experimental, refinement or atomic coordinate data resulting 
# from the CCDC's data processing and validation procedures.
#
#######################################################################

data_RANLAV
_symmetry_cell_setting           monoclinic
_symmetry_space_group_name_H-M   'P 21/c'
_symmetry_Int_Tables_number      14
_space_group_name_Hall           '-P 2ybc'
loop_
_symmetry_equiv_pos_site_id
_symmetry_equiv_pos_as_xyz
1 x,y,z
2 -x,1/2+y,1/2-z
3 -x,-y,-z
4 x,1/2-y,1/2+z
_cell_length_a                   19.465(7)
_cell_length_b                   4.0830(15)
_cell_length_c                   19.122(7)
_cell_angle_alpha                90
_cell_angle_beta                 91.555(7)
_cell_angle_gamma                90
_cell_volume                     1519.17
loop_
_atom_site_label
_atom_site_type_symbol
_atom_site_fract_x
_atom_site_fract_y
_atom_site_fract_z
I1 I -0.08025(3) 1.27132(14) 0.43136(3)
I2 I 0.46014(3) -0.52166(14) -0.15259(3)
Cu1 Cu 0.00348(6) 0.7702(3) 0.44993(6)
Cu2 Cu 0.35543(7) -0.0868(4) -0.14243(5)
Cu3 Cu 0.44558(8) 0.3803(7) 0.23390(8)
N1 N 0.3384(4) -0.0107(18) -0.0424(4)
N2 N 0.2364(3) 0.4199(18) 0.1781(3)
N3 N 0.0768(4) 0.7577(18) 0.3735(4)
C1 C 0.1192(5) 0.525(2) 0.2687(4)
H1 H 0.1104 0.4112 0.2273
C2 C 0.2437(4) 0.533(2) 0.2440(4)
N4 N 0.3100(4) 0.527(2) 0.2676(3)
C3 C 0.3160(4) 0.213(2) 0.0924(4)
C4 C 0.1858(4) 0.633(2) 0.2862(4)
C5 C 0.3774(4) 0.070(3) 0.0759(4)
H2 H 0.4123 0.0450 0.1097
N5 N 0.3463(4) 0.411(2) 0.2133(3)
C6 C 0.1943(5) 0.825(2) 0.3456(4)
H3 H 0.2370 0.9158 0.3572
C7 C 0.3015(4) 0.343(2) 0.1620(4)
C8 C 0.2632(5) 0.222(2) 0.0412(4)
H4 H 0.2198 0.3012 0.0512
C9 C 0.3864(5) -0.036(3) 0.0075(5)
H5 H 0.4282 -0.1299 -0.0036
C10 C 0.2783(5) 0.108(3) -0.0247(4)
H6 H 0.2435 0.1159 -0.0590
C11 C 0.0664(5) 0.592(2) 0.3141(4)
H7 H 0.0224 0.5174 0.3027
C12 C 0.1389(5) 0.881(2) 0.3873(5)
H8 H 0.1453 1.0102 0.4270
I1_2 I -0.08025(3) 0.27132(14) 0.43136(3)
I1B I 0.08025(3) 0.72868(14) 0.56864(3)
I2C I 0.46014(3) 0.02166(14) 0.34741(3)
I2B I 0.53986(3) 0.52166(14) 0.15259(3)
Cu1_2 Cu 0.00348(6) 1.7702(3) 0.44993(6)
Cu1B Cu -0.00348(6) 1.2298(3) 0.55007(6)
Cu2C Cu 0.35543(7) 0.5868(4) 0.35757(5)
Cu3C Cu 0.44558(8) -0.8803(7) -0.26610(8)
Cu3B Cu 0.55442(8) -0.3803(7) -0.23390(8)
N4C N 0.3100(4) -0.027(2) -0.2324(3)
loop_
_geom_bond_atom_site_label_1
_geom_bond_atom_site_label_2
_geom_bond_site_symmetry_1
_geom_bond_site_symmetry_2
I1 Cu1 1_555 1_555
I2 Cu2 1_555 1_555
Cu1 N3 1_555 1_555
Cu2 N1 1_555 1_555
Cu3 N5 1_555 1_555
N1 C9 1_555 1_555
N2 C2 1_555 1_555
N3 C11 1_555 1_555
C1 H1 1_555 1_555
C2 N4 1_555 1_555
N4 N5 1_555 1_555
C3 C5 1_555 1_555
C4 C1 1_555 1_555
C5 H2 1_555 1_555
N5 C7 1_555 1_555
C6 C4 1_555 1_555
H3 C6 1_555 1_555
C7 N2 1_555 1_555
C8 C3 1_555 1_555
H4 C8 1_555 1_555
C9 C5 1_555 1_555
H5 C9 1_555 1_555
C10 N1 1_555 1_555
H6 C10 1_555 1_555
C11 C1 1_555 1_555
H7 C11 1_555 1_555
C12 N3 1_555 1_555
H8 C12 1_555 1_555
I1_2 Cu1 1_555 1_555
I1B Cu1 1_555 1_555
I2C Cu3 1_555 1_555
I2B Cu3 1_555 1_555
Cu1_2 I1 1_555 1_555
Cu1B I1 1_555 1_555
Cu2C N4 1_555 1_555
Cu3C I2 1_555 1_555
Cu3B I2 1_555 1_555
N4C Cu2 1_555 1_555
C2 C4 1_555 1_555
C3 C7 1_555 1_555
C6 C12 1_555 1_555
C8 C10 1_555 1_555
I1B Cu1B 1_555 1_555

#END
