
#######################################################################
#
#                 Cambridge Crystallographic Data Centre
#                                CCDC 
#
#######################################################################
#
# If this CIF has been generated from an entry in the Cambridge 
# Structural Database, then it will include bibliographic, chemical, 
# crystal, experimental, refinement or atomic coordinate data resulting 
# from the CCDC's data processing and validation procedures.
#
#######################################################################

data_RANMUQ01
_symmetry_cell_setting           monoclinic
_symmetry_space_group_name_H-M   'P 21/c'
_symmetry_Int_Tables_number      14
_space_group_name_Hall           '-P 2ybc'
loop_
_symmetry_equiv_pos_site_id
_symmetry_equiv_pos_as_xyz
1 x,y,z
2 -x,1/2+y,1/2-z
3 -x,-y,-z
4 x,1/2-y,1/2+z
_cell_length_a                   17.7856(14)
_cell_length_b                   35.825(3)
_cell_length_c                   12.8175(11)
_cell_angle_alpha                90
_cell_angle_beta                 101.713(2)
_cell_angle_gamma                90
_cell_volume                     7996.85
loop_
_atom_site_label
_atom_site_type_symbol
_atom_site_fract_x
_atom_site_fract_y
_atom_site_fract_z
U1 U 0.766698(17) 0.732619(18) 0.51987(2)
O1 O 0.7228(5) 0.6806(3) 0.4017(7)
O2 O 0.6318(5) 0.6389(3) 0.3427(7)
O3 O 0.6291(4) 0.7226(3) 0.4784(6)
O4 O 0.5280(4) 0.6899(3) 0.3950(7)
O5 O 0.8342(4) 0.7890(3) 0.4906(6)
O6 O 0.8332(5) 0.8502(3) 0.4731(8)
O7 O 0.7012(4) 0.7890(3) 0.5540(6)
O8 O 0.7005(5) 0.8509(3) 0.5564(8)
O9 O 0.9026(5) 0.7153(3) 0.5682(6)
O10 O 0.9925(4) 0.6727(3) 0.6386(7)
O11 O 0.7926(5) 0.6737(3) 0.6115(7)
O12 O 0.8717(5) 0.6246(3) 0.6478(7)
O13 O 0.8348(4) 0.7254(2) 0.3651(6)
O14 O 0.8371(4) 0.7398(3) 0.1940(6)
O15 O 0.7018(4) 0.7623(3) 0.3480(6)
O16 O 0.7032(4) 0.7749(2) 0.1773(6)
C1 C 0.6543(6) 0.6697(4) 0.3855(9)
C2 C 0.5973(6) 0.6959(4) 0.4225(8)
C3 C 0.8042(6) 0.8215(3) 0.4990(8)
C4 C 0.7306(6) 0.8210(4) 0.5383(10)
C5 C 0.9243(6) 0.6838(4) 0.6106(9)
C6 C 0.8588(6) 0.6578(4) 0.6255(9)
C7 C 0.8069(5) 0.7415(3) 0.2750(8)
C8 C 0.7311(5) 0.7618(3) 0.2666(8)
U1C U 0.766698(17) 0.767381(18) 0.01987(2)
O14C O 0.8371(4) 0.7602(3) 0.6940(6)
O16C O 0.7032(4) 0.7251(2) 0.6773(6)
U2 U 0.25709(2) 0.933855(13) 0.50798(3)
U3 U 0.25730(2) 0.899481(13) 0.00674(3)
O17 O 0.3253(4) 0.9262(3) 0.1834(6)
O18 O 0.3260(4) 0.9373(3) 0.3551(6)
O19 O 0.1884(4) 0.8936(2) 0.1618(6)
O20 O 0.1895(4) 0.9051(3) 0.3344(6)
O21 O 0.1185(4) 0.8858(3) -0.0362(6)
O22 O 0.0227(5) 0.8504(3) -0.1193(7)
O23 O 0.2211(5) 0.8443(3) -0.0990(7)
O24 O 0.1335(5) 0.8000(3) -0.1544(8)
O25 O 0.1197(4) 0.9480(3) 0.4701(7)
O26 O 0.0224(5) 0.9827(3) 0.3830(7)
O27 O 0.3252(4) 0.9535(2) -0.0221(6)
O28 O 0.1325(5) 1.0309(3) 0.3286(7)
O29 O 0.1938(4) 0.9578(3) 0.0362(6)
O30 O 0.1955(5) 1.0202(3) 0.0344(8)
O31 O 0.2195(5) 0.9857(3) 0.3866(7)
O32 O 0.3271(5) 1.0152(3) -0.0516(9)
O33 O 0.3943(4) 0.9501(3) 0.5537(6)
O34 O 0.4838(5) 0.9902(3) 0.6304(7)
O35 O 0.2867(5) 0.9928(3) 0.5984(7)
O36 O 0.3662(5) 1.0406(3) 0.6401(7)
O37 O 0.2896(4) 0.8435(3) 0.1124(6)
O38 O 0.3719(5) 0.7968(3) 0.1606(8)
O39 O 0.3938(4) 0.8834(3) 0.0511(6)
O40 O 0.4861(5) 0.8453(3) 0.1297(7)
O41 O 0.3200(4) 0.8762(3) 0.4828(6)
O42 O 0.3188(5) 0.8127(3) 0.4872(8)
O43 O 0.1878(4) 0.8800(3) 0.5427(6)
O44 O 0.1872(5) 0.8188(3) 0.5744(8)
O45 O 0.1912(4) 0.9283(3) -0.1655(6)
O46 O 0.1936(4) 0.9437(3) -0.3344(6)
O47 O 0.3218(4) 0.8914(3) -0.1487(6)
O48 O 0.3261(4) 0.9065(3) -0.3188(6)
C9 C 0.2970(6) 0.9257(4) 0.2655(9)
C10 C 0.2173(6) 0.9064(3) 0.2511(8)
C11 C 0.0919(6) 0.8589(3) -0.0901(8)
C12 C 0.1527(6) 0.8314(3) -0.1198(8)
C13 C 0.2225(6) 0.9888(3) 0.0204(8)
C14 C 0.2988(6) 0.9865(4) -0.0230(8)
C15 C 0.0917(6) 0.9747(4) 0.4079(8)
C16 C 0.1510(6) 0.9999(3) 0.3701(8)
C17 C 0.4176(6) 0.9811(4) 0.5974(8)
C18 C 0.3526(6) 1.0077(4) 0.6126(9)
C19 C 0.3559(6) 0.8283(4) 0.1283(9)
C20 C 0.4184(6) 0.8545(4) 0.1005(8)
C21 C 0.2922(7) 0.8439(4) 0.5000(9)
C22 C 0.2163(6) 0.8467(4) 0.5447(9)
C23 C 0.2196(6) 0.9284(3) -0.2464(8)
C24 C 0.2954(6) 0.9065(4) -0.2370(9)
U2_2 U 0.25709(2) 0.933855(13) -0.49202(3)
O46_2 O 0.1936(4) 0.9437(3) 0.6656(6)
O48_2 O 0.3261(4) 0.9065(3) 0.6812(6)
O49 O 0.9513(5) 0.4644(3) 0.6359(7)
O50 O 0.9588(5) 0.6867(3) 0.1814(7)
O51 O 0.5557(5) 0.7029(3) 0.8786(7)
O52 O 0.5481(5) 0.0218(3) 0.8304(7)
O53 O 0.9439(5) 0.1396(3) 0.6530(6)
O54 O 0.4604(5) 0.8613(3) 0.6523(7)
N1 N 0.0854(6) 0.4159(4) 0.1047(8)
H1 H 0.0883 0.3921 0.0895
H2 H 0.0414 0.4255 0.1126
N2 N 0.2129(6) 0.4222(4) 0.1036(9)
H3 H 0.2548 0.4358 0.1112
H4 H 0.2144 0.3984 0.0877
N3 N 0.1435(6) 0.4734(4) 0.1398(9)
H5 H 0.1847 0.4876 0.1479
H6 H 0.0994 0.4830 0.1476
C25 C 0.1480(6) 0.4375(4) 0.1159(9)
N4 N 1.0238(6) 0.2013(3) 0.5805(9)
H7 H 1.0672 0.2063 0.5604
H8 H 1.0092 0.1779 0.5848
N5 N 0.9142(6) 0.2206(4) 0.6367(8)
H9 H 0.8852 0.2386 0.6536
H10 H 0.9004 0.1972 0.6406
N6 N 1.0006(5) 0.2643(4) 0.5989(7)
H11 H 1.0437 0.2699 0.5789
H12 H 0.9711 0.2822 0.6151
C26 C 0.9803(6) 0.2290(4) 0.6046(8)
N7 N 0.3500(6) 0.3612(4) 0.3533(9)
H13 H 0.3935 0.3508 0.3463
H14 H 0.3084 0.3475 0.3485
N8 N 0.2809(6) 0.4127(4) 0.3804(8)
H15 H 0.2782 0.4369 0.3915
H16 H 0.2398 0.3987 0.3754
N9 N 0.4099(6) 0.4171(4) 0.3778(9)
H17 H 0.4528 0.4062 0.3706
H18 H 0.4092 0.4413 0.3896
C27 C 0.3471(7) 0.3975(4) 0.3711(9)
N10 N 0.2244(6) 0.4056(4) 0.6062(9)
H19 H 0.2620 0.3892 0.6151
H20 H 0.2333 0.4290 0.5916
N11 N 0.1413(6) 0.3603(4) 0.6365(9)
H21 H 0.1783 0.3436 0.6456
H22 H 0.0946 0.3537 0.6419
N12 N 0.0988(6) 0.4204(4) 0.5999(8)
H23 H 0.1078 0.4437 0.5847
H24 H 0.0523 0.4135 0.6056
C28 C 0.1560(6) 0.3954(4) 0.6145(9)
N13 N 0.5558(6) 0.2231(3) 0.3304(8)
H25 H 0.5702 0.1998 0.3256
H26 H 0.5878 0.2414 0.3246
N14 N 0.4373(6) 0.2034(3) 0.3550(9)
H27 H 0.4509 0.1800 0.3503
H28 H 0.3911 0.2089 0.3655
N15 N 0.4646(5) 0.2665(4) 0.3486(7)
H29 H 0.4964 0.2845 0.3397
H30 H 0.4184 0.2720 0.3590
C29 C 0.4865(5) 0.2307(4) 0.3461(8)
N16 N 0.4110(6) 0.7510(4) 0.4154(9)
H31 H 0.4042 0.7741 0.4351
H32 H 0.4571 0.7432 0.4106
N17 N 0.2821(6) 0.7404(4) 0.4005(8)
H33 H 0.2760 0.7635 0.4203
H34 H 0.2424 0.7253 0.3857
N18 N 0.3614(6) 0.6926(4) 0.3639(8)
H35 H 0.4073 0.6844 0.3597
H36 H 0.3215 0.6775 0.3491
C30 C 0.3522(6) 0.7282(4) 0.3930(9)
N19 N 0.5772(5) 0.5612(3) 0.3496(8)
H37 H 0.6061 0.5791 0.3316
H38 H 0.5915 0.5378 0.3476
N20 N 0.4707(6) 0.5414(4) 0.4063(9)
H39 H 0.4272 0.5458 0.4267
H40 H 0.4870 0.5183 0.4031
N21 N 0.4908(6) 0.6049(3) 0.3828(9)
H41 H 0.5198 0.6226 0.3648
H42 H 0.4477 0.6106 0.4028
C31 C 0.5118(6) 0.5697(4) 0.3799(9)
N22 N 0.3566(6) 0.4722(4) 0.8572(9)
H43 H 0.4029 0.4797 0.8525
H44 H 0.3186 0.4884 0.8495
N23 N 0.3997(6) 0.4130(4) 0.8872(8)
H45 H 0.4465 0.4199 0.8828
H46 H 0.3901 0.3894 0.8995
N24 N 0.2727(6) 0.4253(4) 0.8771(9)
H47 H 0.2338 0.4409 0.8658
H48 H 0.2651 0.4016 0.8896
C32 C 0.3444(7) 0.4377(5) 0.8753(10)
N25 N 0.0967(6) 0.7528(4) 0.6308(8)
H49 H 0.1026 0.7771 0.6261
H50 H 0.0512 0.7435 0.6329
N26 N 0.1485(6) 0.6925(4) 0.6430(9)
H51 H 0.1881 0.6775 0.6464
H52 H 0.1030 0.6833 0.6451
N27 N 0.2252(6) 0.7449(4) 0.6312(9)
H53 H 0.2659 0.7306 0.6344
H54 H 0.2294 0.7693 0.6256
C33 C 0.1576(6) 0.7297(4) 0.6346(8)
N28 N 0.0419(6) 0.6242(3) 0.1111(8)
H55 H 0.0269 0.6475 0.1135
H56 H 0.0856 0.6190 0.0922
N29 N -0.0672(5) 0.6038(3) 0.1645(8)
H57 H -0.0833 0.6269 0.1674
H58 H -0.0951 0.5852 0.1807
N30 N 0.0230(6) 0.5616(4) 0.1308(8)
H59 H 0.0668 0.5570 0.1113
H60 H -0.0049 0.5430 0.1470
C34 C -0.0012(6) 0.5969(4) 0.1357(9)
N31 N -0.0628(5) 0.5468(3) 0.6546(7)
H61 H -0.0974 0.5641 0.6579
H62 H -0.0737 0.5232 0.6628
N32 N 0.0575(6) 0.5294(4) 0.6341(9)
H63 H 0.1035 0.5353 0.6237
H64 H 0.0456 0.5060 0.6425
N33 N 0.0227(5) 0.5917(3) 0.6248(8)
H65 H -0.0114 0.6092 0.6280
H66 H 0.0683 0.5978 0.6133
C35 C 0.0057(6) 0.5564(4) 0.6372(9)
N34 N 0.5738(5) 0.6205(4) 0.8582(9)
H67 H 0.6082 0.6035 0.8521
H68 H 0.5847 0.6443 0.8535
N35 N 0.4871(6) 0.5755(3) 0.8818(9)
H69 H 0.5209 0.5581 0.8759
H70 H 0.4415 0.5693 0.8926
N36 N 0.4536(6) 0.6374(3) 0.8803(9)
H71 H 0.4072 0.6316 0.8890
H72 H 0.4665 0.6609 0.8752
C36 C 0.5047(6) 0.6103(4) 0.8746(9)
loop_
_geom_bond_atom_site_label_1
_geom_bond_atom_site_label_2
_geom_bond_site_symmetry_1
_geom_bond_site_symmetry_2
U1 O1 1_555 1_555
O1 C1 1_555 1_555
O2 C1 1_555 1_555
O3 U1 1_555 1_555
O4 C2 1_555 1_555
O5 U1 1_555 1_555
O6 C3 1_555 1_555
O7 U1 1_555 1_555
O8 C4 1_555 1_555
O9 U1 1_555 1_555
O10 C5 1_555 1_555
O11 U1 1_555 1_555
O12 C6 1_555 1_555
O13 U1 1_555 1_555
O14 C7 1_555 1_555
O15 U1 1_555 1_555
O16 C8 1_555 1_555
C1 C2 1_555 1_555
C2 O3 1_555 1_555
C3 O5 1_555 1_555
C4 O7 1_555 1_555
C5 O9 1_555 1_555
C6 O11 1_555 1_555
C7 O13 1_555 1_555
C8 O15 1_555 1_555
U2 O18 1_555 1_555
U3 O17 1_555 1_555
O17 C9 1_555 1_555
O18 C9 1_555 1_555
O19 U3 1_555 1_555
O20 U2 1_555 1_555
O21 U3 1_555 1_555
O22 C11 1_555 1_555
O23 U3 1_555 1_555
O24 C12 1_555 1_555
O25 U2 1_555 1_555
O26 C15 1_555 1_555
O27 U3 1_555 1_555
O28 C16 1_555 1_555
O29 U3 1_555 1_555
O30 C13 1_555 1_555
O31 U2 1_555 1_555
O32 C14 1_555 1_555
O33 U2 1_555 1_555
O34 C17 1_555 1_555
O35 U2 1_555 1_555
O36 C18 1_555 1_555
O37 U3 1_555 1_555
O38 C19 1_555 1_555
O39 U3 1_555 1_555
O40 C20 1_555 1_555
O41 U2 1_555 1_555
O42 C21 1_555 1_555
O43 U2 1_555 1_555
O44 C22 1_555 1_555
O45 U3 1_555 1_555
O46 C23 1_555 1_555
O47 U3 1_555 1_555
O48 C24 1_555 1_555
C9 C10 1_555 1_555
C10 O19 1_555 1_555
C11 O21 1_555 1_555
C12 O23 1_555 1_555
C13 O29 1_555 1_555
C14 O27 1_555 1_555
C15 O25 1_555 1_555
C16 O31 1_555 1_555
C17 O33 1_555 1_555
C18 O35 1_555 1_555
C19 O37 1_555 1_555
C20 O39 1_555 1_555
C21 O41 1_555 1_555
C22 O43 1_555 1_555
C23 O45 1_555 1_555
C24 O47 1_555 1_555
N1 H1 1_555 1_555
H2 N1 1_555 1_555
N2 H3 1_555 1_555
H4 N2 1_555 1_555
N3 H5 1_555 1_555
H6 N3 1_555 1_555
C25 N1 1_555 1_555
N4 H7 1_555 1_555
H8 N4 1_555 1_555
N5 H9 1_555 1_555
H10 N5 1_555 1_555
N6 H11 1_555 1_555
H12 N6 1_555 1_555
C26 N4 1_555 1_555
N7 H13 1_555 1_555
H14 N7 1_555 1_555
N8 H15 1_555 1_555
H16 N8 1_555 1_555
N9 H17 1_555 1_555
H18 N9 1_555 1_555
C27 N7 1_555 1_555
N10 H19 1_555 1_555
H20 N10 1_555 1_555
N11 H21 1_555 1_555
H22 N11 1_555 1_555
N12 H23 1_555 1_555
H24 N12 1_555 1_555
C28 N10 1_555 1_555
N13 H25 1_555 1_555
H26 N13 1_555 1_555
N14 H27 1_555 1_555
H28 N14 1_555 1_555
N15 H29 1_555 1_555
H30 N15 1_555 1_555
C29 N13 1_555 1_555
N16 H31 1_555 1_555
H32 N16 1_555 1_555
N17 H33 1_555 1_555
H34 N17 1_555 1_555
N18 H35 1_555 1_555
H36 N18 1_555 1_555
C30 N16 1_555 1_555
N19 H37 1_555 1_555
H38 N19 1_555 1_555
N20 H39 1_555 1_555
H40 N20 1_555 1_555
N21 H41 1_555 1_555
H42 N21 1_555 1_555
C31 N19 1_555 1_555
N22 H43 1_555 1_555
H44 N22 1_555 1_555
N23 H45 1_555 1_555
H46 N23 1_555 1_555
N24 H47 1_555 1_555
H48 N24 1_555 1_555
C32 N22 1_555 1_555
N25 H49 1_555 1_555
H50 N25 1_555 1_555
N26 H51 1_555 1_555
H52 N26 1_555 1_555
N27 H53 1_555 1_555
H54 N27 1_555 1_555
C33 N25 1_555 1_555
N28 H55 1_555 1_555
H56 N28 1_555 1_555
N29 H57 1_555 1_555
H58 N29 1_555 1_555
N30 H59 1_555 1_555
H60 N30 1_555 1_555
C34 N28 1_555 1_555
N31 H61 1_555 1_555
H62 N31 1_555 1_555
N32 H63 1_555 1_555
H64 N32 1_555 1_555
N33 H65 1_555 1_555
H66 N33 1_555 1_555
C35 N31 1_555 1_555
N34 H67 1_555 1_555
H68 N34 1_555 1_555
N35 H69 1_555 1_555
H70 N35 1_555 1_555
N36 H71 1_555 1_555
H72 N36 1_555 1_555
C36 N34 1_555 1_555
U1C O14 1_555 1_555
O14C U1 1_555 1_555
O16C U1 1_555 1_555
U2_2 O46 1_555 1_555
O46_2 U2 1_555 1_555
O48_2 U2 1_555 1_555
O16 U1C 1_555 1_555
C3 C4 1_555 1_555
C5 C6 1_555 1_555
C7 C8 1_555 1_555
O20 C10 1_555 1_555
O48 U2_2 1_555 1_555
C11 C12 1_555 1_555
C13 C14 1_555 1_555
C15 C16 1_555 1_555
C17 C18 1_555 1_555
C19 C20 1_555 1_555
C21 C22 1_555 1_555
C23 C24 1_555 1_555
N2 C25 1_555 1_555
N3 C25 1_555 1_555
N5 C26 1_555 1_555
N6 C26 1_555 1_555
N8 C27 1_555 1_555
N9 C27 1_555 1_555
N11 C28 1_555 1_555
N12 C28 1_555 1_555
N14 C29 1_555 1_555
N15 C29 1_555 1_555
N17 C30 1_555 1_555
N18 C30 1_555 1_555
N20 C31 1_555 1_555
N21 C31 1_555 1_555
N23 C32 1_555 1_555
N24 C32 1_555 1_555
N26 C33 1_555 1_555
N27 C33 1_555 1_555
N29 C34 1_555 1_555
N30 C34 1_555 1_555
N32 C35 1_555 1_555
N33 C35 1_555 1_555
N35 C36 1_555 1_555
N36 C36 1_555 1_555

#END
