
#######################################################################
#
#                 Cambridge Crystallographic Data Centre
#                                CCDC 
#
#######################################################################
#
# If this CIF has been generated from an entry in the Cambridge 
# Structural Database, then it will include bibliographic, chemical, 
# crystal, experimental, refinement or atomic coordinate data resulting 
# from the CCDC's data processing and validation procedures.
#
#######################################################################

data_RANNEB
_symmetry_cell_setting           monoclinic
_symmetry_space_group_name_H-M   'C 2/c'
_symmetry_Int_Tables_number      15
_space_group_name_Hall           '-C 2yn'
loop_
_symmetry_equiv_pos_site_id
_symmetry_equiv_pos_as_xyz
1 x,y,z
2 -x,y,1/2-z
3 1/2+x,1/2+y,z
4 1/2-x,1/2+y,1/2-z
5 -x,-y,-z
6 x,-y,1/2+z
7 1/2-x,1/2-y,-z
8 1/2+x,1/2-y,1/2+z
_cell_length_a                   19.6361(4)
_cell_length_b                   11.8811(2)
_cell_length_c                   12.7195(2)
_cell_angle_alpha                90
_cell_angle_beta                 117.4370(10)
_cell_angle_gamma                90
_cell_volume                     2633.66
loop_
_atom_site_label
_atom_site_type_symbol
_atom_site_fract_x
_atom_site_fract_y
_atom_site_fract_z
Pu1 Pu 0.5000 0.949393(10) 0.7500
O1 O 0.46598(12) 0.78398(17) 0.82073(17)
O2 O 0.38125(14) 0.6464(2) 0.7864(2)
O3 O 0.26867(14) 0.7960(3) 0.6416(2)
O4 O 0.36437(15) 0.90903(18) 0.65805(18)
O5 O 0.43425(16) 1.11612(17) 0.65354(18)
O6 O 0.4342(2) 1.3029(2) 0.6413(3)
O7 O 0.43276(16) 1.03409(17) 0.85654(16)
O8 O 0.43462(17) 1.07338(18) 1.03026(17)
C1 C 0.39880(17) 0.7421(3) 0.7707(2)
C2 C 0.33709(19) 0.8220(3) 0.6819(2)
C3 C 0.4622(3) 1.2134(2) 0.6908(3)
C4 C 0.4617(2) 1.0311(2) 0.9675(2)
Pu1D Pu 0.5000 1.050607(10) 1.2500
O1A O 0.53402(12) 0.78398(17) 0.67927(17)
O2A O 0.61875(14) 0.6464(2) 0.7136(2)
O3A O 0.73133(14) 0.7960(3) 0.8584(2)
O4A O 0.63563(15) 0.90903(18) 0.84195(18)
O5A O 0.56575(16) 1.11612(17) 0.84646(18)
O6A O 0.5658(2) 1.3029(2) 0.8587(3)
O7D O 0.56724(16) 0.96591(17) 1.14346(16)
O7A O 0.56724(16) 1.03409(17) 0.64346(16)
O8D O 0.56538(17) 0.92662(18) 0.96974(17)
O8E O 0.43462(17) 0.92662(18) 0.53026(17)
C1A C 0.60120(17) 0.7421(3) 0.7293(2)
C2A C 0.66291(19) 0.8220(3) 0.8181(2)
C3A C 0.5378(3) 1.2134(2) 0.8092(3)
C4D C 0.5383(2) 0.9689(2) 1.0325(2)
O9 O 0.29708(19) 1.1662(4) 0.6987(4)
H1 H 0.331(3) 1.118(5) 0.730(7)
H2 H 0.284(4) 1.153(7) 0.752(5)
N1 N 0.39460(15) 0.67113(17) 0.50214(19)
H3 H 0.3478(14) 0.695(4) 0.455(3)
H4 H 0.4344(18) 0.715(3) 0.541(3)
N2 N 0.47188(16) 0.5234(2) 0.6075(3)
H5 H 0.5125(19) 0.568(3) 0.638(4)
H6 H 0.476(3) 0.454(2) 0.633(4)
N3 N 0.34411(17) 0.4937(2) 0.4832(3)
H7 H 0.2989(17) 0.524(4) 0.437(4)
H8 H 0.351(3) 0.4220(19) 0.503(4)
C5 C 0.40372(16) 0.56294(19) 0.5319(2)
N4 N 0.2942(3) 1.1414(4) 0.4299(3)
H9 H 0.339(2) 1.132(7) 0.492(4)
H10 H 0.278(4) 1.211(3) 0.412(7)
N5 N 0.2675(2) 0.9528(4) 0.3949(3)
H11 H 0.312(2) 0.935(5) 0.456(4)
H12 H 0.233(3) 0.900(4) 0.359(5)
N6 N 0.1798(2) 1.0838(4) 0.2775(3)
H13 H 0.167(4) 1.1558(19) 0.263(6)
H14 H 0.154(4) 1.044(6) 0.244(6)
C6 C 0.2474(3) 1.0591(4) 0.3684(3)
loop_
_geom_bond_atom_site_label_1
_geom_bond_atom_site_label_2
_geom_bond_site_symmetry_1
_geom_bond_site_symmetry_2
Pu1 O1 1_555 1_555
O1 C1 1_555 1_555
O2 C1 1_555 1_555
O3 C2 1_555 1_555
O4 Pu1 1_555 1_555
O5 Pu1 1_555 1_555
O6 C3 1_555 1_555
O7 Pu1 1_555 1_555
O8 C4 1_555 1_555
O9 H1 1_555 1_555
H2 O9 1_555 1_555
N1 H3 1_555 1_555
H4 N1 1_555 1_555
N2 H5 1_555 1_555
H6 N2 1_555 1_555
N3 H7 1_555 1_555
H8 N3 1_555 1_555
N4 H9 1_555 1_555
H10 N4 1_555 1_555
N5 H11 1_555 1_555
H12 N5 1_555 1_555
N6 H13 1_555 1_555
H14 N6 1_555 1_555
C1 C2 1_555 1_555
C2 O4 1_555 1_555
C3 O5 1_555 1_555
C4 O7 1_555 1_555
C5 N1 1_555 1_555
C6 N4 1_555 1_555
Pu1D O8 1_555 1_555
O1A Pu1 1_555 1_555
O2A C1A 1_555 1_555
O3A C2A 1_555 1_555
O4A Pu1 1_555 1_555
O5A Pu1 1_555 1_555
O6A C3A 1_555 1_555
O7D Pu1D 1_555 1_555
O7A Pu1 1_555 1_555
O8D Pu1 1_555 1_555
O8E Pu1 1_555 1_555
C1A O1A 1_555 1_555
C2A O4A 1_555 1_555
C3A C3 1_555 1_555
C4D C4 1_555 1_555
N2 C5 1_555 1_555
N3 C5 1_555 1_555
N5 C6 1_555 1_555
N6 C6 1_555 1_555
O5A C3A 1_555 1_555
O7D C4D 1_555 1_555
O8D C4D 1_555 1_555
C1A C2A 1_555 1_555

#END
