
#######################################################################
#
#                 Cambridge Crystallographic Data Centre
#                                CCDC 
#
#######################################################################
#
# If this CIF has been generated from an entry in the Cambridge 
# Structural Database, then it will include bibliographic, chemical, 
# crystal, experimental, refinement or atomic coordinate data resulting 
# from the CCDC's data processing and validation procedures.
#
#######################################################################

data_RANPIH
_symmetry_cell_setting           triclinic
_symmetry_space_group_name_H-M   'P -1'
_symmetry_Int_Tables_number      2
_space_group_name_Hall           '-P 1'
loop_
_symmetry_equiv_pos_site_id
_symmetry_equiv_pos_as_xyz
1 x,y,z
2 -x,-y,-z
_cell_length_a                   7.6030(5)
_cell_length_b                   8.1922(5)
_cell_length_c                   10.5572(7)
_cell_angle_alpha                77.8850(10)
_cell_angle_beta                 83.0970(10)
_cell_angle_gamma                72.1340(10)
_cell_volume                     610.809
loop_
_atom_site_label
_atom_site_type_symbol
_atom_site_fract_x
_atom_site_fract_y
_atom_site_fract_z
Co1 Co 0.5000 0.0000 0.5000
N1 N 0.87000(19) 0.27401(17) 0.21624(13)
H1 H 0.7400 0.2998 0.2164
C1 C 0.9187(2) 0.2657(2) 0.35170(16)
H2 H 0.8969 0.3831 0.3671
H3 H 1.0492 0.2048 0.3608
C2 C 0.8040(2) 0.1720(2) 0.45191(16)
O1 O 0.71792(17) 0.08690(17) 0.41039(12)
O2 O 0.8058(2) 0.1859(2) 0.56639(12)
C3 C 0.9402(2) 0.0995(2) 0.17439(16)
H4 H 1.0042 0.0126 0.2442
H5 H 1.0277 0.1060 0.1000
C4 C 0.7808(3) 0.0453(2) 0.13894(16)
O3 O 0.62804(18) 0.15966(17) 0.12377(12)
O4 O 0.8178(2) -0.10999(18) 0.12602(14)
C5 C 0.9181(2) 0.4230(2) 0.12023(16)
H6 H 0.8620 0.5298 0.1559
C6 C 0.8329(2) 0.4484(2) -0.00840(16)
H7 H 0.7001 0.4690 0.0061
H8 H 0.8834 0.3436 -0.0454
C7 C 1.1264(2) 0.3967(2) 0.10315(16)
H9 H 1.1747 0.3862 0.1864
H10 H 1.1870 0.2900 0.0702
O5 O 0.61345(18) -0.05687(18) 0.68036(13)
H11 H 0.5494 -0.0853 0.7469
H12 H 0.6482 0.0352 0.7008
O6 O 0.3654(2) 0.26686(18) 0.52251(15)
H13 H 0.2560 0.2928 0.5604
H14 H 0.4142 0.3309 0.5587
Co1_2 Co 1.5000 1.0000 -0.5000
N1A N 1.13000(19) 0.72599(17) -0.21624(13)
H1A H 1.2600 0.7002 -0.2164
C1A C 1.0813(2) 0.7343(2) -0.35170(16)
H2A H 1.1031 0.6169 -0.3671
H3A H 0.9508 0.7952 -0.3608
C2A C 1.1960(2) 0.8280(2) -0.45191(16)
O1A O 1.28208(17) 0.91310(17) -0.41039(12)
O1A_2 O 0.28208(17) -0.08690(17) 0.58961(12)
O2A O 1.1942(2) 0.8141(2) -0.56639(12)
C3A C 1.0598(2) 0.9005(2) -0.17439(16)
H4A H 0.9958 0.9874 -0.2442
H5A H 0.9723 0.8940 -0.1000
C4A C 1.2192(3) 0.9547(2) -0.13894(16)
O3A O 1.37196(18) 0.84034(17) -0.12377(12)
O4A O 1.1822(2) 1.10999(18) -0.12602(14)
C5A C 1.0819(2) 0.5770(2) -0.12023(16)
H6A H 1.1380 0.4702 -0.1559
C6A C 1.1671(2) 0.5516(2) 0.00840(16)
H7A H 1.2999 0.5310 -0.0061
H8A H 1.1166 0.6564 0.0454
C7A C 0.8736(2) 0.6033(2) -0.10315(16)
H9A H 0.8253 0.6138 -0.1864
H10A H 0.8130 0.7100 -0.0702
O5A O 0.38655(18) 0.05687(18) 0.31964(13)
H11A H 0.4506 0.0853 0.2531
H12A H 0.3518 -0.0352 0.2992
O6A O 0.6346(2) -0.26686(18) 0.47749(15)
H13A H 0.7440 -0.2928 0.4396
H14A H 0.5858 -0.3309 0.4413
O7 O 0.0268(2) 0.34283(19) 0.65288(15)
H15 H 0.0555 0.2716 0.7273
H16 H -0.0513 0.3003 0.6297
O8 O 0.5227(3) 0.5099(2) 0.3129(2)
H17 H 0.4100 0.4941 0.3540
H18 H 0.4914 0.5915 0.2530
O9 O 0.4816(2) 0.8048(2) 0.12843(15)
H19 H 0.5768 0.8366 0.1223
H20 H 0.4611 0.8164 0.0528
loop_
_geom_bond_atom_site_label_1
_geom_bond_atom_site_label_2
_geom_bond_site_symmetry_1
_geom_bond_site_symmetry_2
Co1 O1 1_555 1_555
N1 H1 1_555 1_555
C1 N1 1_555 1_555
H2 C1 1_555 1_555
H3 C1 1_555 1_555
C2 C1 1_555 1_555
O1 C2 1_555 1_555
O2 C2 1_555 1_555
C3 N1 1_555 1_555
H4 C3 1_555 1_555
H5 C3 1_555 1_555
C4 C3 1_555 1_555
O3 C4 1_555 1_555
O4 C4 1_555 1_555
C5 N1 1_555 1_555
H6 C5 1_555 1_555
C6 C5 1_555 1_555
H7 C6 1_555 1_555
H8 C6 1_555 1_555
C7 C5 1_555 1_555
H9 C7 1_555 1_555
H10 C7 1_555 1_555
O5 Co1 1_555 1_555
H11 O5 1_555 1_555
H12 O5 1_555 1_555
O6 Co1 1_555 1_555
H13 O6 1_555 1_555
H14 O6 1_555 1_555
O7 H15 1_555 1_555
H16 O7 1_555 1_555
O8 H17 1_555 1_555
H18 O8 1_555 1_555
O9 H19 1_555 1_555
H20 O9 1_555 1_555
Co1_2 O1A 1_555 1_555
N1A H1A 1_555 1_555
C1A N1A 1_555 1_555
H2A C1A 1_555 1_555
H3A C1A 1_555 1_555
C2A C1A 1_555 1_555
O1A C2A 1_555 1_555
O1A_2 Co1 1_555 1_555
O2A C2A 1_555 1_555
C3A N1A 1_555 1_555
H4A C3A 1_555 1_555
H5A C3A 1_555 1_555
C4A C3A 1_555 1_555
O3A C4A 1_555 1_555
O4A C4A 1_555 1_555
C5A N1A 1_555 1_555
H6A C5A 1_555 1_555
C6A C7 1_555 1_555
H7A C6A 1_555 1_555
H8A C6A 1_555 1_555
C7A C6 1_555 1_555
H9A C7A 1_555 1_555
H10A C7A 1_555 1_555
O5A Co1 1_555 1_555
H11A O5A 1_555 1_555
H12A O5A 1_555 1_555
O6A Co1 1_555 1_555
H13A O6A 1_555 1_555
H14A O6A 1_555 1_555
C5A C6A 1_555 1_555
C5A C7A 1_555 1_555

#END
