
#######################################################################
#
#                 Cambridge Crystallographic Data Centre
#                                CCDC 
#
#######################################################################
#
# If this CIF has been generated from an entry in the Cambridge 
# Structural Database, then it will include bibliographic, chemical, 
# crystal, experimental, refinement or atomic coordinate data resulting 
# from the CCDC's data processing and validation procedures.
#
#######################################################################

data_RANQAA
_symmetry_cell_setting           orthorhombic
_symmetry_space_group_name_H-M   'P b c a'
_symmetry_Int_Tables_number      61
_space_group_name_Hall           '-P 2ac 2ab'
loop_
_symmetry_equiv_pos_site_id
_symmetry_equiv_pos_as_xyz
1 x,y,z
2 1/2+x,1/2-y,-z
3 -x,1/2+y,1/2-z
4 1/2-x,-y,1/2+z
5 -x,-y,-z
6 1/2-x,1/2+y,z
7 x,1/2-y,1/2+z
8 1/2+x,y,1/2-z
_cell_length_a                   9.3108(12)
_cell_length_b                   14.3234(18)
_cell_length_c                   14.9985(19)
_cell_angle_alpha                90
_cell_angle_beta                 90
_cell_angle_gamma                90
_cell_volume                     2000.23
loop_
_atom_site_label
_atom_site_type_symbol
_atom_site_fract_x
_atom_site_fract_y
_atom_site_fract_z
C1 C 0.6531(3) 0.9522(2) 0.8728(2)
H1 H 0.6807 1.0141 0.8492
H2 H 0.5929 0.9620 0.9264
C2 C 0.5667(3) 0.8993(2) 0.8023(2)
C3 C 0.7472(3) 0.82201(19) 0.9598(2)
H3 H 0.6478 0.8007 0.9480
H4 H 0.7512 0.8454 1.0219
C4 C 0.8502(3) 0.7393(2) 0.9498(2)
C5 C 0.8962(3) 0.9639(2) 0.93469(19)
H5 H 0.9176 1.0112 0.8875
C6 C 1.0362(3) 0.9127(2) 0.9541(2)
H6 H 1.0680 0.8787 0.9001
H7 H 1.0205 0.8664 1.0022
C7 C 1.1525(3) 0.9821(2) 0.9826(2)
H8 H 1.2426 0.9481 0.9959
H9 H 1.1719 1.0264 0.9333
N1 N 0.7833(3) 0.89956(16) 0.89753(16)
O1 O 0.8574(2) 0.72618(15) 0.67733(14)
H10 H 0.7906 0.6846 0.6778
H11 H 0.8560 0.7535 0.6262
O3 O 0.6262(2) 0.83439(15) 0.75981(15)
O4 O 0.4385(2) 0.92284(14) 0.78968(13)
O5 O 0.8923(2) 0.72145(14) 0.87012(13)
O6 O 0.8833(3) 0.69317(14) 1.01599(14)
Zn1 Zn 0.84234(4) 0.81760(2) 0.77928(2)
C1D C 1.3469(3) 1.0478(2) 1.1272(2)
H1D H 1.3193 0.9859 1.1508
H2D H 1.4071 1.0380 1.0736
C2D C 1.4333(3) 1.1007(2) 1.1977(2)
C3D C 1.2528(3) 1.17799(19) 1.0402(2)
H3D H 1.3522 1.1993 1.0520
H4D H 1.2488 1.1546 0.9781
C4D C 1.1498(3) 1.2607(2) 1.0502(2)
C5D C 1.1038(3) 1.0361(2) 1.06531(19)
H5D H 1.0824 0.9888 1.1125
C6D C 0.9638(3) 1.0873(2) 1.0459(2)
H6D H 0.9320 1.1213 1.0999
H7D H 0.9795 1.1336 0.9978
C7D C 0.8475(3) 1.0179(2) 1.0174(2)
H8D H 0.7574 1.0519 1.0041
H9D H 0.8281 0.9736 1.0667
N1D N 1.2167(3) 1.10044(16) 1.10247(16)
O1D O 1.1426(2) 1.27382(15) 1.32267(14)
H10D H 1.2094 1.3154 1.3222
H11D H 1.1440 1.2465 1.3738
O3D O 1.3738(2) 1.16561(15) 1.24019(15)
O4D O 1.5615(2) 1.07716(14) 1.21032(13)
O4C O 1.0615(2) 1.07716(14) 1.28968(13)
O4G O 0.9385(2) 0.92284(14) 0.71032(13)
O5D O 1.1077(2) 1.27855(14) 1.12988(13)
O6D O 1.1167(3) 1.30683(14) 0.98401(14)
Zn1D Zn 1.15766(4) 1.18240(2) 1.22072(2)
Zn1C Zn 1.65766(4) 1.18240(2) 1.27928(2)
Zn1G Zn 0.34234(4) 0.81760(2) 0.72072(2)
O2 O 0.1323(3) 0.88754(17) 0.32431(19)
H12 H 0.1148 0.9454 0.3152
H13 H 0.0544 0.8571 0.3343
loop_
_geom_bond_atom_site_label_1
_geom_bond_atom_site_label_2
_geom_bond_site_symmetry_1
_geom_bond_site_symmetry_2
C1 H1 1_555 1_555
H2 C1 1_555 1_555
C2 C1 1_555 1_555
C3 H3 1_555 1_555
H4 C3 1_555 1_555
C4 C3 1_555 1_555
C5 H5 1_555 1_555
C6 C5 1_555 1_555
H6 C6 1_555 1_555
H7 C6 1_555 1_555
C7 C6 1_555 1_555
H8 C7 1_555 1_555
H9 C7 1_555 1_555
N1 C1 1_555 1_555
O1 H10 1_555 1_555
H11 O1 1_555 1_555
O2 H12 1_555 1_555
H13 O2 1_555 1_555
O3 C2 1_555 1_555
O4 C2 1_555 1_555
O5 C4 1_555 1_555
O6 C4 1_555 1_555
Zn1 N1 1_555 1_555
C1D H1D 1_555 1_555
H2D C1D 1_555 1_555
C2D C1D 1_555 1_555
C3D H3D 1_555 1_555
H4D C3D 1_555 1_555
C4D C3D 1_555 1_555
C5D C7 1_555 1_555
H5D C5D 1_555 1_555
C6D C5D 1_555 1_555
H6D C6D 1_555 1_555
H7D C6D 1_555 1_555
C7D C5 1_555 1_555
H8D C7D 1_555 1_555
H9D C7D 1_555 1_555
N1D C1D 1_555 1_555
O1D H10D 1_555 1_555
H11D O1D 1_555 1_555
O3D C2D 1_555 1_555
O4D C2D 1_555 1_555
O4C Zn1D 1_555 1_555
O4G Zn1 1_555 1_555
O5D C4D 1_555 1_555
O6D C4D 1_555 1_555
Zn1D N1D 1_555 1_555
Zn1C O4D 1_555 1_555
Zn1G O4 1_555 1_555
C3 N1 1_555 1_555
C5 N1 1_555 1_555
O1 Zn1 1_555 1_555
O3 Zn1 1_555 1_555
O5 Zn1 1_555 1_555
C3D N1D 1_555 1_555
C5D N1D 1_555 1_555
C6D C7D 1_555 1_555
O1D Zn1D 1_555 1_555
O3D Zn1D 1_555 1_555
O5D Zn1D 1_555 1_555

#END
