
#######################################################################
#
#                 Cambridge Crystallographic Data Centre
#                                CCDC 
#
#######################################################################
#
# If this CIF has been generated from an entry in the Cambridge 
# Structural Database, then it will include bibliographic, chemical, 
# crystal, experimental, refinement or atomic coordinate data resulting 
# from the CCDC's data processing and validation procedures.
#
#######################################################################

data_RANRIJ
_symmetry_cell_setting           monoclinic
_symmetry_space_group_name_H-M   'P 21/n'
_symmetry_Int_Tables_number      14
_space_group_name_Hall           '-P 2yn'
loop_
_symmetry_equiv_pos_site_id
_symmetry_equiv_pos_as_xyz
1 x,y,z
2 1/2-x,1/2+y,1/2-z
3 -x,-y,-z
4 1/2+x,1/2-y,1/2+z
_cell_length_a                   7.0267(15)
_cell_length_b                   20.857(5)
_cell_length_c                   9.927(2)
_cell_angle_alpha                90
_cell_angle_beta                 101.113(12)
_cell_angle_gamma                90
_cell_volume                     1427.58
loop_
_atom_site_label
_atom_site_type_symbol
_atom_site_fract_x
_atom_site_fract_y
_atom_site_fract_z
Cu1 Cu 0.24663(8) 0.10852(2) 0.26242(5)
Cu2 Cu 0.29221(8) 0.00360(2) 0.04774(5)
N1 N 0.3614(6) 0.19365(17) 0.3360(4)
N2 N 0.1733(6) 0.11095(17) 0.4462(4)
H1 H 0.0836 0.0799 0.4505
N3 N 0.3378(6) 0.09917(16) 0.0854(4)
N4 N 0.3308(6) 0.13669(18) -0.0081(4)
N5 N 0.3287(9) 0.1717(2) -0.0969(5)
N6 N 0.2162(6) 0.01459(17) 0.2300(4)
N7 N 0.1482(5) -0.02707(17) 0.2893(4)
N8 N 0.0860(7) -0.0671(2) 0.3427(5)
N9 N 0.3568(6) 0.01213(17) -0.1333(4)
N10 N 0.2986(5) -0.02028(18) -0.2316(4)
N11 N 0.2472(8) -0.0495(2) -0.3297(5)
N12 N -0.2021(8) 0.0850(2) -0.0391(4)
N13 N -0.1283(6) 0.11689(17) 0.0534(4)
N14 N -0.0550(7) 0.1512(2) 0.1400(5)
C1 C 0.5264(7) 0.1797(3) 0.4478(6)
H2 H 0.6007 0.2188 0.4695
H3 H 0.6097 0.1489 0.4145
C2 C 0.4774(9) 0.1544(3) 0.5764(6)
H4 H 0.5959 0.1413 0.6374
H5 H 0.4194 0.1884 0.6215
C3 C 0.3434(9) 0.0997(3) 0.5536(6)
H6 H 0.4122 0.0625 0.5290
H7 H 0.3008 0.0900 0.6386
C4 C 0.0860(7) 0.1740(2) 0.4586(5)
H8 H 0.0894 0.1838 0.5545
H9 H -0.0484 0.1738 0.4112
C5 C 0.2017(8) 0.2259(2) 0.3942(6)
H10 H 0.1152 0.2485 0.3218
H11 H 0.2574 0.2567 0.4638
C6 C 0.4231(11) 0.2358(3) 0.2334(6)
H12 H 0.3142 0.2447 0.1613
H13 H 0.5226 0.2148 0.1956
H14 H 0.4727 0.2752 0.2764
Cu2B Cu 0.70779(8) -0.00360(2) -0.04774(5)
Cu2B_2 Cu -0.29221(8) -0.00360(2) -0.04774(5)
N9B N 0.6432(6) -0.01213(17) 0.1333(4)
N12B N 0.2021(8) -0.0850(2) 0.0391(4)
loop_
_geom_bond_atom_site_label_1
_geom_bond_atom_site_label_2
_geom_bond_site_symmetry_1
_geom_bond_site_symmetry_2
Cu1 N1 1_555 1_555
Cu2 N3 1_555 1_555
N1 C1 1_555 1_555
N2 Cu1 1_555 1_555
H1 N2 1_555 1_555
N3 Cu1 1_555 1_555
N4 N3 1_555 1_555
N5 N4 1_555 1_555
N6 Cu1 1_555 1_555
N7 N6 1_555 1_555
N8 N7 1_555 1_555
N9 Cu2 1_555 1_555
N10 N9 1_555 1_555
N11 N10 1_555 1_555
N12 N13 1_555 1_555
N13 N14 1_555 1_555
N14 Cu1 1_555 1_555
C1 H2 1_555 1_555
H3 C1 1_555 1_555
C2 C1 1_555 1_555
H4 C2 1_555 1_555
H5 C2 1_555 1_555
C3 N2 1_555 1_555
H6 C3 1_555 1_555
H7 C3 1_555 1_555
C4 N2 1_555 1_555
H8 C4 1_555 1_555
H9 C4 1_555 1_555
C5 N1 1_555 1_555
H10 C5 1_555 1_555
H11 C5 1_555 1_555
C6 N1 1_555 1_555
H12 C6 1_555 1_555
H13 C6 1_555 1_555
H14 C6 1_555 1_555
Cu2B N9 1_555 1_555
Cu2B_2 N12 1_555 1_555
N9B Cu2 1_555 1_555
N12B Cu2 1_555 1_555
Cu2 N6 1_555 1_555
C2 C3 1_555 1_555
C4 C5 1_555 1_555
Cu2B N9B 1_555 1_555

#END
