
#######################################################################
#
#                 Cambridge Crystallographic Data Centre
#                                CCDC 
#
#######################################################################
#
# If this CIF has been generated from an entry in the Cambridge 
# Structural Database, then it will include bibliographic, chemical, 
# crystal, experimental, refinement or atomic coordinate data resulting 
# from the CCDC's data processing and validation procedures.
#
#######################################################################

data_RANSUW
_symmetry_cell_setting           triclinic
_symmetry_space_group_name_H-M   'P -1'
_symmetry_Int_Tables_number      2
_space_group_name_Hall           '-P 1'
loop_
_symmetry_equiv_pos_site_id
_symmetry_equiv_pos_as_xyz
1 x,y,z
2 -x,-y,-z
_cell_length_a                   10.7725(3)
_cell_length_b                   11.7419(4)
_cell_length_c                   16.7312(4)
_cell_angle_alpha                70.432(2)
_cell_angle_beta                 73.720(2)
_cell_angle_gamma                63.376(2)
_cell_volume                     1761.22
loop_
_atom_site_label
_atom_site_type_symbol
_atom_site_fract_x
_atom_site_fract_y
_atom_site_fract_z
Fe1 Fe 0.05083(9) 0.01495(9) 0.23687(5)
Fe2 Fe 0.22471(15) -0.21405(11) 0.22587(7)
S1 S 0.05164(13) 0.00665(14) 0.37848(8)
S2 S 0.28341(15) -0.04033(17) 0.21205(9)
O1 O 0.0585(6) -0.0531(5) 0.0828(3)
O2 O -0.0978(7) -0.3011(6) 0.5711(4)
O3 O -0.2252(7) 0.0070(7) 0.2747(4)
O4 O 0.2586(8) -0.3289(6) 0.4082(4)
O5 O -0.0412(6) 0.2855(5) 0.1388(4)
C1 C -0.1166(8) 0.0103(7) 0.2600(4)
C2 C -0.0046(7) 0.1794(7) 0.1802(4)
O6 O -0.2965(10) 0.2277(10) 0.0732(6)
C3 C 0.2693(7) -0.0360(8) 0.4558(4)
H1 H 0.2018 -0.0239 0.5062
C4 C 0.2279(6) -0.0284(6) 0.3816(4)
C5 C 0.5067(8) -0.0756(10) 0.3829(5)
H2 H 0.6009 -0.0905 0.3831
C6 C 0.4061(8) -0.0606(9) 0.4571(5)
H3 H 0.4328 -0.0674 0.5086
C7 C 0.4656(8) -0.0681(9) 0.3100(5)
H4 H 0.5332 -0.0774 0.2595
C8 C 0.3122(11) -0.3157(13) 0.6593(6)
H5 H 0.2888 -0.3555 0.7208
H6 H 0.2593 -0.2195 0.6501
C9 C -0.1833(11) -0.3117(10) 0.6536(6)
H7 H -0.2104 -0.3872 0.6677
H8 H -0.2698 -0.2307 0.6544
C10 C 0.3308(7) -0.0477(7) 0.3074(4)
C11 C 0.0973(8) -0.0723(6) 0.1497(4)
C12 C 0.2514(10) -0.2843(7) 0.3368(5)
O7 O 0.099(2) 0.2521(17) -0.0584(7)
C13 C -0.1705(13) -0.2957(13) 0.5104(8)
H9 H -0.1953 -0.3733 0.5289
H10 H -0.2587 -0.2159 0.5068
C14 C -0.0995(13) -0.3306(11) 0.7152(7)
H11 H -0.0205 -0.4163 0.7190
H12 H -0.1580 -0.3273 0.7717
H13 H -0.0635 -0.2611 0.6965
C15 C -0.1436(19) 0.4719(12) -0.0600(9)
H14 H -0.1822 0.4785 -0.1087
H15 H -0.1781 0.5593 -0.0498
H16 H -0.1734 0.4134 -0.0087
C16 C -0.0866(15) -0.2934(13) 0.4299(7)
H17 H -0.0717 -0.2112 0.4086
H18 H -0.1333 -0.2994 0.3899
H19 H 0.0043 -0.3680 0.4348
C17 C -0.3695(19) 0.1503(16) 0.0819(11)
H20 H -0.3314 0.0663 0.0701
C18 C -0.3814(16) 0.3321(16) 0.1081(12)
H21 H -0.3661 0.4084 0.1019
O8 O 0.2628(8) -0.3614(6) 0.6105(4)
C19 C 0.0301(18) 0.4120(15) -0.0819(13)
H22 H 0.0591 0.4457 -0.1437
H23 H 0.0669 0.4430 -0.0489
C20 C 0.4675(19) -0.343(2) 0.6403(13)
H24 H 0.5214 -0.4328 0.6325
H25 H 0.4950 -0.3348 0.6884
H26 H 0.4866 -0.2804 0.5879
C21 C 0.293(3) -0.556(3) 0.6031(19)
H27 H 0.1926 -0.5376 0.6201
H28 H 0.3473 -0.6510 0.6187
H29 H 0.3133 -0.5226 0.5409
C22 C 0.327(3) -0.501(3) 0.6410(17)
H30 H 0.4304 -0.5293 0.6307
H31 H 0.2962 -0.5260 0.7036
C23 C 0.234(4) 0.222(4) -0.122(2)
H32 H 0.2509 0.3003 -0.1610
H33 H 0.2526 0.1562 -0.1528
C24 C -0.520(2) 0.227(3) 0.1136(16)
H34 H -0.6034 0.2262 0.1048
C25 C -0.506(2) 0.298(3) 0.1592(14)
H35 H -0.5619 0.3210 0.2109
Na1 Na 0.0818(3) -0.2165(3) 0.53049(17)
O9 O 0.0468(16) -0.3499(10) 0.2397(6)
C26 C 0.1161(16) -0.2956(10) 0.2354(6)
O10 O 0.4636(14) -0.3603(10) 0.1159(6)
C27 C 0.3736(16) -0.3000(11) 0.1565(6)
Na2 Na -0.0587(4) 0.1611(3) 0.0100(2)
C28 C 0.301(3) 0.163(3) -0.0314(18)
H36 H 0.3021 0.2343 -0.0145
H37 H 0.3965 0.0971 -0.0401
H38 H 0.2423 0.1216 0.0138
S1A S -0.05164(13) -0.00665(14) 0.62152(8)
O1A O -0.0585(6) 0.0531(5) -0.0828(3)
Na1A Na -0.0818(3) 0.2165(3) 0.46951(17)
Na2A Na 0.0587(4) -0.1611(3) -0.0100(2)
loop_
_geom_bond_atom_site_label_1
_geom_bond_atom_site_label_2
_geom_bond_site_symmetry_1
_geom_bond_site_symmetry_2
Fe1 Fe2 1_555 1_555
Fe2 S2 1_555 1_555
S1 Fe1 1_555 1_555
S2 Fe1 1_555 1_555
O1 C11 1_555 1_555
O2 C9 1_555 1_555
O3 C1 1_555 1_555
O4 C12 1_555 1_555
O5 C2 1_555 1_555
C1 Fe1 1_555 1_555
C2 Fe1 1_555 1_555
O6 C17 1_555 1_555
C3 H1 1_555 1_555
C4 S1 1_555 1_555
C5 H2 1_555 1_555
C6 C3 1_555 1_555
H3 C6 1_555 1_555
C7 C5 1_555 1_555
H4 C7 1_555 1_555
C8 H5 1_555 1_555
H6 C8 1_555 1_555
C9 H7 1_555 1_555
H8 C9 1_555 1_555
C10 S2 1_555 1_555
C11 Fe1 1_555 1_555
C12 Fe2 1_555 1_555
O7 C19 1_555 1_555
C13 O2 1_555 1_555
H9 C13 1_555 1_555
H10 C13 1_555 1_555
C14 C9 1_555 1_555
H11 C14 1_555 1_555
H12 C14 1_555 1_555
H13 C14 1_555 1_555
C15 H14 1_555 1_555
H15 C15 1_555 1_555
H16 C15 1_555 1_555
C16 C13 1_555 1_555
H17 C16 1_555 1_555
H18 C16 1_555 1_555
H19 C16 1_555 1_555
C17 H20 1_555 1_555
C18 O6 1_555 1_555
H21 C18 1_555 1_555
O8 C8 1_555 1_555
C19 C15 1_555 1_555
H22 C19 1_555 1_555
H23 C19 1_555 1_555
C20 C8 1_555 1_555
H24 C20 1_555 1_555
H25 C20 1_555 1_555
H26 C20 1_555 1_555
C21 H27 1_555 1_555
H28 C21 1_555 1_555
H29 C21 1_555 1_555
C22 O8 1_555 1_555
H30 C22 1_555 1_555
H31 C22 1_555 1_555
C23 O7 1_555 1_555
H32 C23 1_555 1_555
H33 C23 1_555 1_555
C24 C17 1_555 1_555
H34 C24 1_555 1_555
C25 C18 1_555 1_555
H35 C25 1_555 1_555
Na1 S1 1_555 1_555
O9 C26 1_555 1_555
C26 Fe2 1_555 1_555
O10 C27 1_555 1_555
C27 Fe2 1_555 1_555
Na2 O1 1_555 1_555
C28 C23 1_555 1_555
H36 C28 1_555 1_555
H37 C28 1_555 1_555
H38 C28 1_555 1_555
S1A Na1 1_555 1_555
O1A Na2 1_555 1_555
Na1A S1 1_555 1_555
Na2A O1 1_555 1_555
Fe2 C11 1_555 1_555
O2 Na1 1_555 1_555
O4 Na1 1_555 1_555
O6 Na2 1_555 1_555
C3 C4 1_555 1_555
C4 C10 1_555 1_555
C5 C6 1_555 1_555
C7 C10 1_555 1_555
O7 Na2 1_555 1_555
O8 Na1 1_555 1_555
C21 C22 1_555 1_555
C24 C25 1_555 1_555
S1A Na1A 1_555 1_555
O1A Na2A 1_555 1_555

#END
