
#######################################################################
#
#                 Cambridge Crystallographic Data Centre
#                                CCDC 
#
#######################################################################
#
# If this CIF has been generated from an entry in the Cambridge 
# Structural Database, then it will include bibliographic, chemical, 
# crystal, experimental, refinement or atomic coordinate data resulting 
# from the CCDC's data processing and validation procedures.
#
#######################################################################

data_RANXUA
_symmetry_cell_setting           monoclinic
_symmetry_space_group_name_H-M   'P 21/c'
_symmetry_Int_Tables_number      14
_space_group_name_Hall           '-P 2ybc'
loop_
_symmetry_equiv_pos_site_id
_symmetry_equiv_pos_as_xyz
1 x,y,z
2 -x,1/2+y,1/2-z
3 -x,-y,-z
4 x,1/2-y,1/2+z
_cell_length_a                   10.9257(8)
_cell_length_b                   8.3727(6)
_cell_length_c                   14.2425(10)
_cell_angle_alpha                90
_cell_angle_beta                 98.6850(10)
_cell_angle_gamma                90
_cell_volume                     1287.93
loop_
_atom_site_label
_atom_site_type_symbol
_atom_site_fract_x
_atom_site_fract_y
_atom_site_fract_z
Ag1 Ag 0.09087(5) 0.63845(8) 0.08205(4)
N1 N 0.2504(5) 0.5030(8) 0.1408(4)
N2 N 0.0705(6) 0.2778(8) 0.4635(4)
C1 C 0.2617(7) 0.4575(9) 0.2314(5)
H1 H 0.1963 0.4785 0.2644
C2 C 0.3642(6) 0.3813(9) 0.2790(5)
C3 C 0.4618(7) 0.3488(11) 0.2295(6)
H2 H 0.5329 0.2976 0.2589
C4 C 0.4499(7) 0.3948(12) 0.1353(6)
H3 H 0.5132 0.3740 0.1000
C5 C 0.3451(7) 0.4706(11) 0.0945(6)
H4 H 0.3391 0.5013 0.0312
C6 C 0.3794(7) 0.3447(10) 0.3822(6)
C7 C 0.1607(6) 0.2842(9) 0.4087(5)
H5 H 0.1462 0.2373 0.3488
C8 C 0.2728(7) 0.3565(9) 0.4370(5)
C9 C 0.2901(8) 0.4311(11) 0.5249(6)
H6 H 0.3650 0.4813 0.5466
C10 C 0.1983(8) 0.4312(11) 0.5796(5)
H7 H 0.2080 0.4848 0.6374
C11 C 0.0924(8) 0.3514(9) 0.5479(6)
H8 H 0.0314 0.3474 0.5868
O1 O 0.4801(5) 0.3077(9) 0.4242(4)
Ag1A Ag -0.09087(5) 0.13845(8) 0.41795(4)
N2A N -0.0705(6) 0.7778(8) 0.0365(4)
B1 B 0.1631(9) 0.8597(11) 0.3275(6)
F1 F 0.0865(12) 0.7476(19) 0.2798(10)
F2 F 0.2535(10) 0.9751(16) 0.3213(13)
F3 F 0.1041(19) 0.9233(19) 0.3931(13)
F4 F 0.195(3) 0.814(5) 0.4170(10)
F5? F 0.178(4) 0.783(4) 0.2481(18)
F6? F 0.2471(13) 0.845(3) 0.2708(12)
F7? F 0.0650(10) 0.9518(18) 0.2886(14)
F8? F 0.220(3) 0.740(3) 0.3831(16)
loop_
_geom_bond_atom_site_label_1
_geom_bond_atom_site_label_2
_geom_bond_site_symmetry_1
_geom_bond_site_symmetry_2
Ag1 N1 1_555 1_555
N1 C1 1_555 1_555
N2 C7 1_555 1_555
C1 H1 1_555 1_555
C2 C1 1_555 1_555
C3 C2 1_555 1_555
H2 C3 1_555 1_555
C4 C3 1_555 1_555
H3 C4 1_555 1_555
C5 N1 1_555 1_555
H4 C5 1_555 1_555
C6 C2 1_555 1_555
C7 H5 1_555 1_555
C8 C6 1_555 1_555
C9 C8 1_555 1_555
H6 C9 1_555 1_555
C10 C9 1_555 1_555
H7 C10 1_555 1_555
C11 N2 1_555 1_555
H8 C11 1_555 1_555
O1 C6 1_555 1_555
B1 F1 1_555 1_555
F2 B1 1_555 1_555
F3 B1 1_555 1_555
F4 B1 1_555 1_555
Ag1A N2 1_555 1_555
N2A Ag1 1_555 1_555
C4 C5 1_555 1_555
C7 C8 1_555 1_555
C10 C11 1_555 1_555

#END
