
#######################################################################
#
#                 Cambridge Crystallographic Data Centre
#                                CCDC 
#
#######################################################################
#
# If this CIF has been generated from an entry in the Cambridge 
# Structural Database, then it will include bibliographic, chemical, 
# crystal, experimental, refinement or atomic coordinate data resulting 
# from the CCDC's data processing and validation procedures.
#
#######################################################################

data_RANYUA
_symmetry_cell_setting           orthorhombic
_symmetry_space_group_name_H-M   'P b c a'
_symmetry_Int_Tables_number      61
_space_group_name_Hall           '-P 2ac 2ab'
loop_
_symmetry_equiv_pos_site_id
_symmetry_equiv_pos_as_xyz
1 x,y,z
2 1/2-x,-y,1/2+z
3 1/2+x,1/2-y,-z
4 -x,1/2+y,1/2-z
5 -x,-y,-z
6 1/2+x,y,1/2-z
7 1/2-x,1/2+y,z
8 x,1/2-y,1/2+z
_cell_length_a                   12.7082(6)
_cell_length_b                   7.7676(4)
_cell_length_c                   26.1548(12)
_cell_angle_alpha                90
_cell_angle_beta                 90
_cell_angle_gamma                90
_cell_volume                     2581.8
loop_
_atom_site_label
_atom_site_type_symbol
_atom_site_fract_x
_atom_site_fract_y
_atom_site_fract_z
Cu1 Cu 0.6008(1) 0.2461(1) 0.1224(1)
Cu2 Cu 0.6710(1) 0.0693(1) 0.3727(1)
Br1 Br 0.8524(1) 0.2161(1) 0.3730(1)
N1 N 0.6052(2) 0.1633(3) 0.1952(1)
N2 N 0.6352(2) 0.1085(3) 0.2996(1)
N3 N 0.6087(2) 0.3304(3) 0.0500(1)
N4 N 0.6342(2) 0.3872(3) -0.0542(1)
O1 O 0.5993(2) 0.4719(2) 0.1549(1)
O2 O 0.6260(2) 0.6001(2) 0.2302(1)
O3 O 0.5974(2) 0.0215(2) 0.0895(1)
O4 O 0.6142(2) -0.1057(2) 0.0133(1)
O5 O 0.7819(2) 0.2493(3) 0.1231(1)
C1 C 0.6075(2) 0.0045(3) 0.2145(1)
C2 C 0.6230(2) -0.0219(3) 0.2665(1)
C3 C 0.6321(2) 0.2690(3) 0.2797(1)
C4 C 0.6173(2) 0.2959(3) 0.2277(1)
C5 C 0.6143(2) 0.4726(3) 0.2035(1)
C6 C 0.6184(2) 0.4901(3) 0.0315(1)
C7 C 0.6309(2) 0.5176(3) -0.0206(1)
C8 C 0.6255(2) 0.2271(3) -0.0351(1)
C9 C 0.6134(2) 0.1989(3) 0.0168(1)
C10 C 0.6074(2) 0.0215(3) 0.0404(1)
Br1F Br 0.6476(1) -0.2839(1) 0.3730(1)
N4G N 0.6342(2) 0.1128(3) 0.4458(1)
Cu2F Cu 0.8290(1) 0.5693(1) 0.3727(1)
Cu2G Cu 0.6710(1) 0.4307(1) -0.1273(1)
loop_
_geom_bond_atom_site_label_1
_geom_bond_atom_site_label_2
_geom_bond_site_symmetry_1
_geom_bond_site_symmetry_2
Cu1 N1 1_555 1_555
Cu2 Br1 1_555 1_555
Br1 Cu2F 1_555 1_555
N1 C1 1_555 1_555
N2 Cu2 1_555 1_555
N3 Cu1 1_555 1_555
N4 C7 1_555 1_555
O1 Cu1 1_555 1_555
O2 C5 1_555 1_555
O3 Cu1 1_555 1_555
O4 C10 1_555 1_555
O5 Cu1 1_555 1_555
C1 C2 1_555 1_555
C2 N2 1_555 1_555
C3 N2 1_555 1_555
C4 N1 1_555 1_555
C5 O1 1_555 1_555
C6 N3 1_555 1_555
C7 C6 1_555 1_555
C8 N4 1_555 1_555
C9 N3 1_555 1_555
C10 O3 1_555 1_555
Br1F Cu2 1_555 1_555
N4G Cu2 1_555 1_555
Cu2G N4 1_555 1_555
C3 C4 1_555 1_555
C4 C5 1_555 1_555
C8 C9 1_555 1_555
C9 C10 1_555 1_555

#END
