
#######################################################################
#
#                 Cambridge Crystallographic Data Centre
#                                CCDC 
#
#######################################################################
#
# If this CIF has been generated from an entry in the Cambridge 
# Structural Database, then it will include bibliographic, chemical, 
# crystal, experimental, refinement or atomic coordinate data resulting 
# from the CCDC's data processing and validation procedures.
#
#######################################################################

data_RANYUC
_symmetry_cell_setting           orthorhombic
_symmetry_space_group_name_H-M   'P b c a'
_symmetry_Int_Tables_number      61
_space_group_name_Hall           '-P 2ac 2ab'
loop_
_symmetry_equiv_pos_site_id
_symmetry_equiv_pos_as_xyz
1 x,y,z
2 1/2-x,-y,1/2+z
3 1/2+x,1/2-y,-z
4 -x,1/2+y,1/2-z
5 -x,-y,-z
6 1/2+x,y,1/2-z
7 1/2-x,1/2+y,z
8 x,1/2-y,1/2+z
_cell_length_a                   16.445(7)
_cell_length_b                   8.734(4)
_cell_length_c                   20.526(8)
_cell_angle_alpha                90
_cell_angle_beta                 90
_cell_angle_gamma                90
_cell_volume                     2948.16
loop_
_atom_site_label
_atom_site_type_symbol
_atom_site_fract_x
_atom_site_fract_y
_atom_site_fract_z
C1 C 0.6532(2) -0.0379(5) 0.26786(14)
H1 H 0.7060 -0.0240 0.2477
H2 H 0.6431 -0.1470 0.2713
C2 C 0.59317(19) -0.0382(4) 0.16046(14)
H3 H 0.5837 -0.1475 0.1640
H4 H 0.6467 -0.0232 0.1417
C3 C 0.59228(18) 0.0037(4) 0.37747(15)
H5 H 0.5478 -0.0526 0.3631
C4 C 0.65444(18) 0.0307(4) 0.33478(15)
C5 C 0.71919(18) 0.1179(5) 0.35546(16)
H6 H 0.7622 0.1388 0.3275
C6 C 0.71933(18) 0.1733(4) 0.41766(16)
H7 H 0.7618 0.2345 0.4324
C7 C 0.65586(19) 0.1373(4) 0.45787(15)
H8 H 0.6570 0.1723 0.5006
C8 C 0.54206(18) 0.1723(4) 0.08843(14)
H9 H 0.5882 0.2273 0.1002
C9 C 0.53091(19) 0.0302(4) 0.11661(15)
C10 C 0.4616(2) -0.0516(4) 0.10089(15)
H10 H 0.4512 -0.1467 0.1195
C11 C 0.4089(2) 0.0122(4) 0.05699(15)
H11 H 0.3618 -0.0394 0.0451
C12 C 0.42629(19) 0.1530(4) 0.03066(14)
H12 H 0.3900 0.1928 0.0003
C13 C 0.6435(2) -0.0962(4) 0.58150(15)
N1 N 0.59072(16) 0.0315(4) 0.22641(12)
H13 H 0.5994 0.1330 0.2234
H14 H 0.5414 0.0167 0.2443
N2 N 0.59234(15) 0.0541(3) 0.43842(12)
N3 N 0.49132(14) 0.2365(4) 0.04545(11)
N4 N 0.58002(16) -0.0476(4) 0.56788(12)
Cu1 Cu 0.5000 0.0000 0.5000
S1 S 0.73025(5) -0.16988(13) 0.59924(5)
C1C C 0.3468(2) -0.5379(5) 0.23214(14)
H1C H 0.2940 -0.5240 0.2523
H2C H 0.3569 -0.6470 0.2287
C2C C 0.40683(19) -0.5382(4) 0.33954(14)
H3C H 0.4163 -0.6475 0.3360
H4C H 0.3533 -0.5232 0.3583
C3C C 0.40772(18) -0.4963(4) 0.12253(15)
H5C H 0.4522 -0.5526 0.1369
C4C C 0.34556(18) -0.4693(4) 0.16522(15)
C5C C 0.28081(18) -0.3821(5) 0.14454(16)
H6C H 0.2378 -0.3612 0.1725
C6C C 0.28067(18) -0.3267(4) 0.08234(16)
H7C H 0.2382 -0.2655 0.0676
C7C C 0.34414(19) -0.3627(4) 0.04213(15)
H8C H 0.3430 -0.3277 -0.0006
C8C C 0.45794(18) -0.3277(4) 0.41157(14)
H9C H 0.4118 -0.2727 0.3998
C9C C 0.46909(19) -0.4698(4) 0.38339(15)
C10C C 0.5384(2) -0.5516(4) 0.39911(15)
H10C H 0.5488 -0.6467 0.3805
C11C C 0.5911(2) -0.4878(4) 0.44301(15)
H11C H 0.6382 -0.5394 0.4549
C12C C 0.57371(19) -0.3470(4) 0.46934(14)
H12C H 0.6100 -0.3072 0.4997
C13D C 0.3565(2) 0.0962(4) 0.41850(15)
N1C N 0.40928(16) -0.4685(4) 0.27359(12)
H13C H 0.4006 -0.3670 0.2766
H14C H 0.4586 -0.4833 0.2557
N2C N 0.40766(15) -0.4459(3) 0.06158(12)
N2D N 0.40766(15) -0.0541(3) 0.56158(12)
N3C N 0.50868(14) -0.2635(4) 0.45455(11)
N3G N 0.49132(14) 0.2635(4) 0.54545(11)
N4D N 0.41998(16) 0.0476(4) 0.43212(12)
Cu1C Cu 0.5000 0.5000 0.0000
Cu1C_2 Cu 0.5000 -0.5000 0.0000
S1D S 0.26975(5) 0.16988(13) 0.40076(5)
N5 N 0.10485(18) 0.4310(4) 0.25925(14)
O1 O 0.0997(2) 0.5723(4) 0.24746(13)
O2 O 0.16748(16) 0.3543(4) 0.26088(16)
O3 O 0.04064(14) 0.3547(3) 0.27062(11)
loop_
_geom_bond_atom_site_label_1
_geom_bond_atom_site_label_2
_geom_bond_site_symmetry_1
_geom_bond_site_symmetry_2
C1 H1 1_555 1_555
H2 C1 1_555 1_555
C2 H3 1_555 1_555
H4 C2 1_555 1_555
C3 H5 1_555 1_555
C4 C1 1_555 1_555
C5 C4 1_555 1_555
H6 C5 1_555 1_555
C6 C5 1_555 1_555
H7 C6 1_555 1_555
C7 C6 1_555 1_555
H8 C7 1_555 1_555
C8 H9 1_555 1_555
C9 C2 1_555 1_555
C10 C9 1_555 1_555
H10 C10 1_555 1_555
C11 C10 1_555 1_555
H11 C11 1_555 1_555
C12 C11 1_555 1_555
H12 C12 1_555 1_555
C13 N4 1_555 1_555
N1 C1 1_555 1_555
H13 N1 1_555 1_555
H14 N1 1_555 1_555
N2 C3 1_555 1_555
N3 C8 1_555 1_555
N4 Cu1 1_555 1_555
N5 O1 1_555 1_555
O2 N5 1_555 1_555
O3 N5 1_555 1_555
Cu1 N2 1_555 1_555
S1 C13 1_555 1_555
C1C H1C 1_555 1_555
H2C C1C 1_555 1_555
C2C H3C 1_555 1_555
H4C C2C 1_555 1_555
C3C H5C 1_555 1_555
C4C C1C 1_555 1_555
C5C C4C 1_555 1_555
H6C C5C 1_555 1_555
C6C C5C 1_555 1_555
H7C C6C 1_555 1_555
C7C C6C 1_555 1_555
H8C C7C 1_555 1_555
C8C H9C 1_555 1_555
C9C C2C 1_555 1_555
C10C C9C 1_555 1_555
H10C C10C 1_555 1_555
C11C C10C 1_555 1_555
H11C C11C 1_555 1_555
C12C C11C 1_555 1_555
H12C C12C 1_555 1_555
C13D N4D 1_555 1_555
N1C C1C 1_555 1_555
H13C N1C 1_555 1_555
H14C N1C 1_555 1_555
N2C C3C 1_555 1_555
N2D Cu1 1_555 1_555
N3C Cu1 1_555 1_555
N3G Cu1 1_555 1_555
N4D Cu1 1_555 1_555
Cu1C N3 1_555 1_555
Cu1C_2 N2C 1_555 1_555
S1D C13D 1_555 1_555
C2 N1 1_555 1_555
C3 C4 1_555 1_555
C7 N2 1_555 1_555
C8 C9 1_555 1_555
C12 N3 1_555 1_555
C2C N1C 1_555 1_555
C3C C4C 1_555 1_555
C7C N2C 1_555 1_555
C8C C9C 1_555 1_555
C8C N3C 1_555 1_555
C12C N3C 1_555 1_555

#END
