
#######################################################################
#
#                 Cambridge Crystallographic Data Centre
#                                CCDC 
#
#######################################################################
#
# If this CIF has been generated from an entry in the Cambridge 
# Structural Database, then it will include bibliographic, chemical, 
# crystal, experimental, refinement or atomic coordinate data resulting 
# from the CCDC's data processing and validation procedures.
#
#######################################################################

data_RANYOU
_symmetry_cell_setting           triclinic
_symmetry_space_group_name_H-M   'P -1'
_symmetry_Int_Tables_number      2
_space_group_name_Hall           '-P 1'
loop_
_symmetry_equiv_pos_site_id
_symmetry_equiv_pos_as_xyz
1 x,y,z
2 -x,-y,-z
_cell_length_a                   6.1908(7)
_cell_length_b                   7.7246(8)
_cell_length_c                   13.968(2)
_cell_angle_alpha                78.853(2)
_cell_angle_beta                 81.455(2)
_cell_angle_gamma                78.036(2)
_cell_volume                     637.022
loop_
_atom_site_label
_atom_site_type_symbol
_atom_site_fract_x
_atom_site_fract_y
_atom_site_fract_z
Cu1 Cu 0.0000 0.0000 1.0000
Cu2 Cu 0.1802(1) -0.2188(1) 0.7248(1)
Cu3 Cu 0.5000 -0.5000 0.5000
Cl1 Cl 0.5197(3) -0.2537(2) 0.6277(1)
O1 O 0.2451(7) 0.0590(5) 1.0544(3)
O2 O 0.4245(8) 0.2876(6) 1.0452(3)
O3 O -0.6905(7) 0.3963(6) 0.6086(3)
O4 O -0.6724(8) 0.2082(6) 0.7505(3)
O5 O 0.2423(8) -0.1013(6) 0.8575(3)
N1 N -0.0201(8) 0.2530(7) 0.9239(4)
N2 N 0.0743(9) 0.5714(7) 0.8120(4)
N3 N -0.2614(8) 0.3088(6) 0.5568(4)
N4 N -0.0043(8) 0.0077(7) 0.6560(4)
C1 C -0.1457(11) 0.3421(9) 0.8546(5)
C2 C -0.0957(11) 0.4997(8) 0.7977(5)
C3 C 0.1928(10) 0.4821(8) 0.8867(5)
C4 C 0.1487(9) 0.3225(7) 0.9406(4)
C5 C 0.2849(10) 0.2153(8) 1.0199(4)
C6 C -0.0498(1) 0.2565(8) 0.5243(5)
C7 C 0.0789(11) 0.1033(8) 0.5739(5)
C8 C -0.2167(10) 0.0635(8) 0.6889(5)
C9 C -0.3458(10) 0.2136(8) 0.6399(4)
C10 C -0.5874(11) 0.2756(8) 0.6705(5)
O1A O -0.2451(7) -0.0590(5) 0.9456(3)
O2A O -0.4245(8) -0.2876(6) 0.9548(3)
N1A N 0.0201(8) -0.2530(7) 1.0761(4)
N2A N -0.0743(9) -0.5714(7) 1.1880(4)
C1A C 0.1457(11) -0.3421(9) 1.1454(5)
C2A C 0.0957(11) -0.4997(8) 1.2023(5)
C3A C -0.1928(10) -0.4821(8) 1.1133(5)
C4A C -0.1487(9) -0.3225(7) 1.0594(4)
C5A C -0.2849(10) -0.2153(8) 0.9801(4)
O5A O -0.2423(8) 0.1013(6) 1.1425(3)
Cu2A Cu -0.1802(1) 0.2188(1) 1.2752(1)
N2_2 N 0.0743(9) -0.4286(7) 0.8120(4)
Cl1A Cl 0.4803(3) -0.7463(2) 0.3723(1)
O3_2 O 0.3095(7) -0.6037(6) 0.6086(3)
O3A O 0.6905(7) -0.3963(6) 0.3914(3)
N3_2 N 0.7386(8) -0.6912(6) 0.5568(4)
N3A N 0.2614(8) -0.3088(6) 0.4432(4)
Cu3_2 Cu -0.5000 0.5000 0.5000
Cu2_2 Cu 0.1802(1) 0.7812(1) 0.7248(1)
Cu2A_2 Cu -0.1802(1) -0.7812(1) 1.2752(1)
C2_2 C -0.0957(11) -0.5003(8) 0.7977(5)
C3_2 C 0.1928(10) -0.5179(8) 0.8867(5)
C4_2 C 0.1487(9) -0.6775(7) 0.9406(4)
C1_2 C -0.1457(11) -0.6579(9) 0.8546(5)
N1_2 N -0.0201(8) -0.7470(7) 0.9239(4)
C5_2 C 0.2849(10) -0.7847(8) 1.0199(4)
O1_2 O 0.2451(7) -0.9410(5) 1.0544(3)
O2_2 O 0.4245(8) -0.7124(6) 1.0452(3)
Cu1_2 Cu 0.0000 -1.0000 1.0000
O1A_2 O -0.2451(7) -1.0590(5) 0.9456(3)
O5_2 O 0.2423(8) -1.1013(6) 0.8575(3)
O5A_2 O -0.2423(8) -0.8987(6) 1.1425(3)
N1A_2 N 0.0201(8) -1.2530(7) 1.0761(4)
Cl1A_2 Cl -0.5197(3) -0.7463(2) 1.3723(1)
N4A N 0.0043(8) -1.0077(7) 1.3440(4)
Cu3_3 Cu -0.5000 -0.5000 1.5000
loop_
_geom_bond_atom_site_label_1
_geom_bond_atom_site_label_2
_geom_bond_site_symmetry_1
_geom_bond_site_symmetry_2
Cu1 O1 1_555 1_555
Cu2 Cl1 1_555 1_555
Cu3 Cl1 1_555 1_555
O1 C5 1_555 1_555
O2 C5 1_555 1_555
O3 C10 1_555 1_555
O4 C10 1_555 1_555
O5 Cu1 1_555 1_555
N1 Cu1 1_555 1_555
N2 C2 1_555 1_555
N3 C6 1_555 1_555
N4 Cu2 1_555 1_555
C1 N1 1_555 1_555
C2 C1 1_555 1_555
C3 N2 1_555 1_555
C4 N1 1_555 1_555
C5 C4 1_555 1_555
C6 C7 1_555 1_555
C7 N4 1_555 1_555
C8 N4 1_555 1_555
C9 N3 1_555 1_555
C10 C9 1_555 1_555
O1A Cu1 1_555 1_555
O2A C5A 1_555 1_555
N1A Cu1 1_555 1_555
N2A C2A 1_555 1_555
C1A N1A 1_555 1_555
C2A C1A 1_555 1_555
C3A N2A 1_555 1_555
C4A N1A 1_555 1_555
C5A O1A 1_555 1_555
O5A Cu1 1_555 1_555
Cu2A O5A 1_555 1_555
N2_2 Cu2 1_555 1_555
Cl1A Cu3 1_555 1_555
O3_2 Cu3 1_555 1_555
O3A Cu3 1_555 1_555
N3_2 Cu3 1_555 1_555
N3A Cu3 1_555 1_555
Cu3_2 O3 1_555 1_555
Cu2_2 N2 1_555 1_555
Cu2A_2 N2A 1_555 1_555
C2_2 N2_2 1_555 1_555
C3_2 N2_2 1_555 1_555
C4_2 C3_2 1_555 1_555
C1_2 C2_2 1_555 1_555
N1_2 C4_2 1_555 1_555
C5_2 C4_2 1_555 1_555
O1_2 C5_2 1_555 1_555
O2_2 C5_2 1_555 1_555
Cu1_2 N1_2 1_555 1_555
O1A_2 Cu1_2 1_555 1_555
O5_2 Cu1_2 1_555 1_555
O5A_2 Cu2A_2 1_555 1_555
N1A_2 Cu1_2 1_555 1_555
Cl1A_2 Cu2A_2 1_555 1_555
N4A Cu2A_2 1_555 1_555
Cu3_3 Cl1A_2 1_555 1_555
Cu2 O5 1_555 1_555
N3 Cu3_2 1_555 1_555
C3 C4 1_555 1_555
C8 C9 1_555 1_555
C3A C4A 1_555 1_555
C4A C5A 1_555 1_555
C1_2 N1_2 1_555 1_555
O1_2 Cu1_2 1_555 1_555
Cu1_2 O5A_2 1_555 1_555

#END
