
#######################################################################
#
#                 Cambridge Crystallographic Data Centre
#                                CCDC 
#
#######################################################################
#
# If this CIF has been generated from an entry in the Cambridge 
# Structural Database, then it will include bibliographic, chemical, 
# crystal, experimental, refinement or atomic coordinate data resulting 
# from the CCDC's data processing and validation procedures.
#
#######################################################################

data_RANYIO01
_symmetry_cell_setting           monoclinic
_symmetry_space_group_name_H-M   'P 21/c'
_symmetry_Int_Tables_number      14
_space_group_name_Hall           '-P 2ybc'
loop_
_symmetry_equiv_pos_site_id
_symmetry_equiv_pos_as_xyz
1 x,y,z
2 -x,1/2+y,1/2-z
3 -x,-y,-z
4 x,1/2-y,1/2+z
_cell_length_a                   11.545(7)
_cell_length_b                   7.765(5)
_cell_length_c                   14.669(9)
_cell_angle_alpha                90
_cell_angle_beta                 95.146(8)
_cell_angle_gamma                90
_cell_volume                     1309.73
loop_
_atom_site_label
_atom_site_type_symbol
_atom_site_fract_x
_atom_site_fract_y
_atom_site_fract_z
Cu1 Cu 0.07410(9) 0.75464(15) 0.39796(8)
Cu2 Cu 0.53977(11) 0.58769(18) 0.68967(9)
O1 O -0.0192(7) 0.7482(9) 0.5292(5)
H1 H -0.0554 0.8312 0.5516
H2 H -0.0019 0.6763 0.5720
Cl1 Cl 0.4602(2) 0.7513(4) 0.80614(19)
O2 O 0.1430(6) 0.9792(9) 0.4215(5)
O3 O 0.3022(8) 1.1127(10) 0.4904(7)
O4 O -0.1403(7) 0.3919(9) 0.2908(6)
O5 O 0.0161(5) 0.5293(9) 0.3614(5)
N1 N 0.2242(7) 0.6744(11) 0.4623(5)
N2 N 0.4240(7) 0.6282(11) 0.5805(5)
N3 N -0.2926(7) 0.8776(11) 0.2337(5)
N4 N -0.0745(7) 0.8317(11) 0.3294(5)
C1 C 0.2457(9) 0.9840(14) 0.4670(8)
C2 C 0.2910(8) 0.8073(12) 0.4961(6)
C3 C 0.3884(8) 0.7806(13) 0.5539(6)
H3 H 0.4315 0.8758 0.5753
C4 C 0.2609(7) 0.5139(11) 0.4859(6)
H4 H 0.2190 0.4183 0.4633
C5 C 0.3621(7) 0.4926(12) 0.5442(6)
H5 H 0.3879 0.3816 0.5587
C6 C -0.0864(9) 0.5232(14) 0.3149(7)
C7 C -0.1400(8) 0.6970(13) 0.2960(7)
C8 C -0.2471(8) 0.7240(13) 0.2491(7)
H6 H -0.2896 0.6285 0.2272
C9 C -0.2272(8) 1.0141(14) 0.2655(7)
H7 H -0.2550 1.1253 0.2545
C10 C -0.1189(9) 0.9906(12) 0.3145(7)
H8 H -0.0769 1.0860 0.3371
Cu2A Cu 0.46023(11) 1.08769(18) 0.81033(9)
Cu2C Cu -0.46023(11) 0.91231(18) 0.18967(9)
Cl1A Cl 0.5398(2) 0.2513(4) 0.69386(19)
N3C N 0.7074(7) 0.6224(11) 0.7337(5)
loop_
_geom_bond_atom_site_label_1
_geom_bond_atom_site_label_2
_geom_bond_site_symmetry_1
_geom_bond_site_symmetry_2
Cu1 O1 1_555 1_555
Cu2 Cl1 1_555 1_555
O1 H1 1_555 1_555
H2 O1 1_555 1_555
Cl1 Cu2A 1_555 1_555
O2 Cu1 1_555 1_555
O3 C1 1_555 1_555
O4 C6 1_555 1_555
O5 Cu1 1_555 1_555
N1 Cu1 1_555 1_555
N2 Cu2 1_555 1_555
N3 C8 1_555 1_555
N4 Cu1 1_555 1_555
C1 O2 1_555 1_555
C2 N1 1_555 1_555
C3 N2 1_555 1_555
H3 C3 1_555 1_555
C4 N1 1_555 1_555
H4 C4 1_555 1_555
C5 N2 1_555 1_555
H5 C5 1_555 1_555
C6 O5 1_555 1_555
C7 N4 1_555 1_555
C8 C7 1_555 1_555
H6 C8 1_555 1_555
C9 N3 1_555 1_555
H7 C9 1_555 1_555
C10 N4 1_555 1_555
H8 C10 1_555 1_555
Cu2C N3 1_555 1_555
Cl1A Cu2 1_555 1_555
N3C Cu2 1_555 1_555
C1 C2 1_555 1_555
C2 C3 1_555 1_555
C4 C5 1_555 1_555
C6 C7 1_555 1_555
C9 C10 1_555 1_555

#END
