
#######################################################################
#
#                 Cambridge Crystallographic Data Centre
#                                CCDC 
#
#######################################################################
#
# If this CIF has been generated from an entry in the Cambridge 
# Structural Database, then it will include bibliographic, chemical, 
# crystal, experimental, refinement or atomic coordinate data resulting 
# from the CCDC's data processing and validation procedures.
#
#######################################################################

data_RANYIO
_symmetry_cell_setting           orthorhombic
_symmetry_space_group_name_H-M   'P b c a'
_symmetry_Int_Tables_number      61
_space_group_name_Hall           '-P 2ac 2ab'
loop_
_symmetry_equiv_pos_site_id
_symmetry_equiv_pos_as_xyz
1 x,y,z
2 1/2-x,-y,1/2+z
3 1/2+x,1/2-y,-z
4 -x,1/2+y,1/2-z
5 -x,-y,-z
6 1/2+x,y,1/2-z
7 1/2-x,1/2+y,z
8 x,1/2-y,1/2+z
_cell_length_a                   12.8040(7)
_cell_length_b                   7.7323(4)
_cell_length_c                   26.1040(10)
_cell_angle_alpha                90
_cell_angle_beta                 90
_cell_angle_gamma                90
_cell_volume                     2584.41
loop_
_atom_site_label
_atom_site_type_symbol
_atom_site_fract_x
_atom_site_fract_y
_atom_site_fract_z
Cu1 Cu 0.6102(1) 0.2593(1) 0.6825(1)
Cu2 Cu 0.6687(1) 0.0875(1) 0.4347(1)
Cl1 Cl 0.8238(1) 0.2562(2) 0.4360(1)
O1 O 0.5931(3) 0.4857(4) 0.6513(1)
O2 O 0.5742(5) 0.6173(5) 0.5754(2)
O3 O 0.6050(3) 0.0295(4) 0.7136(1)
O4 O 0.6159(3) -0.1075(5) 0.7888(2)
O5 O 0.7822(3) 0.2579(5) 0.6767(2)
N1 N 0.5942(3) 0.1776(5) 0.6101(2)
N2 N 0.6157(3) 0.1269(5) 0.5053(2)
N3 N 0.6167(3) 0.3364(5) 0.7556(2)
N4 N 0.6324(3) 0.3832(5) 0.8613(2)
C1 C 0.5993(4) 0.0190(6) 0.5906(2)
C2 C 0.6102(4) -0.0067(6) 0.5386(2)
C3 C 0.6060(4) 0.2869(6) 0.5253(2)
C4 C 0.5947(4) 0.3117(6) 0.5769(2)
C5 C 0.5865(4) 0.4876(6) 0.6020(2)
C6 C 0.6245(4) 0.4942(6) 0.7760(2)
C7 C 0.6312(4) 0.5177(7) 0.8286(2)
C8 C 0.6256(4) 0.2236(6) 0.8410(2)
C9 C 0.6178(4) 0.2000(6) 0.7885(2)
C10 C 0.6120(4) 0.0245(6) 0.7632(2)
Cl1F Cl 0.6762(1) -0.2438(2) 0.4360(1)
N4G N 0.6324(3) 0.1168(5) 0.3613(2)
Cu2F Cu 0.8313(1) 0.5875(1) 0.4347(1)
Cu2G Cu 0.6687(1) 0.4125(1) 0.9347(1)
loop_
_geom_bond_atom_site_label_1
_geom_bond_atom_site_label_2
_geom_bond_site_symmetry_1
_geom_bond_site_symmetry_2
Cu1 O1 1_555 1_555
Cu2 Cl1 1_555 1_555
Cl1 Cu2F 1_555 1_555
O1 C5 1_555 1_555
O2 C5 1_555 1_555
O3 Cu1 1_555 1_555
O4 C10 1_555 1_555
O5 Cu1 1_555 1_555
N1 Cu1 1_555 1_555
N2 Cu2 1_555 1_555
N3 Cu1 1_555 1_555
N4 C7 1_555 1_555
C1 N1 1_555 1_555
C2 N2 1_555 1_555
C3 N2 1_555 1_555
C4 N1 1_555 1_555
C5 C4 1_555 1_555
C6 N3 1_555 1_555
C7 C6 1_555 1_555
C8 N4 1_555 1_555
C9 N3 1_555 1_555
C10 O3 1_555 1_555
Cl1F Cu2 1_555 1_555
N4G Cu2 1_555 1_555
Cu2G N4 1_555 1_555
C1 C2 1_555 1_555
C3 C4 1_555 1_555
C8 C9 1_555 1_555
C9 C10 1_555 1_555

#END
