
#######################################################################
#
#                 Cambridge Crystallographic Data Centre
#                                CCDC 
#
#######################################################################
#
# If this CIF has been generated from an entry in the Cambridge 
# Structural Database, then it will include bibliographic, chemical, 
# crystal, experimental, refinement or atomic coordinate data resulting 
# from the CCDC's data processing and validation procedures.
#
#######################################################################

data_RANYOV
_symmetry_cell_setting           monoclinic
_symmetry_space_group_name_H-M   'P 2/c'
_symmetry_Int_Tables_number      13
_space_group_name_Hall           '-P 2yc'
loop_
_symmetry_equiv_pos_site_id
_symmetry_equiv_pos_as_xyz
1 x,y,z
2 -x,y,1/2-z
3 -x,-y,-z
4 x,-y,1/2+z
_cell_length_a                   8.358(2)
_cell_length_b                   6.2731(16)
_cell_length_c                   13.643(3)
_cell_angle_alpha                90
_cell_angle_beta                 106.049(5)
_cell_angle_gamma                90
_cell_volume                     687.431
loop_
_atom_site_label
_atom_site_type_symbol
_atom_site_fract_x
_atom_site_fract_y
_atom_site_fract_z
Ag1 Ag 0.0000 0.0000 0.5000
N1 N 0.1061(6) 0.2821(8) 0.4577(3)
C1 C 0.0334(6) 0.3797(8) 0.3693(4)
H1 H -0.0573 0.3151 0.3237
C2 C 0.0897(7) 0.5745(9) 0.3440(4)
C3 C 0.2293(7) 0.6670(10) 0.4111(5)
H2 H 0.2705 0.7968 0.3958
C4 C 0.3047(8) 0.5620(12) 0.5002(5)
H3 H 0.3986 0.6195 0.5460
C5 C 0.2408(7) 0.3733(12) 0.5209(4)
H4 H 0.2929 0.3042 0.5817
C6 C 0.0000 0.6936(12) 0.2500
O1 O 0.0000 0.8857(10) 0.2500
Ag1C Ag 0.0000 0.0000 0.0000
N1A N -0.1061(6) 0.2821(8) 0.0423(3)
N1B N -0.1061(6) -0.2821(8) 0.5423(3)
C1A C -0.0334(6) 0.3797(8) 0.1307(4)
H1A H 0.0573 0.3151 0.1763
C2A C -0.0897(7) 0.5745(9) 0.1560(4)
C3A C -0.2293(7) 0.6670(10) 0.0889(5)
H2A H -0.2705 0.7968 0.1042
C4A C -0.3047(8) 0.5620(12) -0.0002(5)
H3A H -0.3986 0.6195 -0.0460
C5A C -0.2408(7) 0.3733(12) -0.0209(4)
H4A H -0.2929 0.3042 -0.0817
P1 P 0.5000 0.0748(4) 0.2500
F1 F 0.4478(9) 0.0764(11) 0.3525(4)
F2 F 0.6858(7) 0.0779(12) 0.3185(5)
F3 F 0.5000 0.3241(11) 0.2500
F4 F 0.5000 -0.1730(10) 0.2500
F1A F 0.5522(9) 0.0764(11) 0.1475(4)
F2A F 0.3142(7) 0.0779(12) 0.1815(5)
loop_
_geom_bond_atom_site_label_1
_geom_bond_atom_site_label_2
_geom_bond_site_symmetry_1
_geom_bond_site_symmetry_2
Ag1 N1 1_555 1_555
P1 F1 1_555 1_555
N1 C1 1_555 1_555
C1 H1 1_555 1_555
C2 C1 1_555 1_555
C3 C2 1_555 1_555
H2 C3 1_555 1_555
C4 C3 1_555 1_555
H3 C4 1_555 1_555
C5 N1 1_555 1_555
H4 C5 1_555 1_555
C6 C2 1_555 1_555
O1 C6 1_555 1_555
F2 P1 1_555 1_555
F3 P1 1_555 1_555
F4 P1 1_555 1_555
Ag1C N1A 1_555 1_555
N1A C1A 1_555 1_555
N1B Ag1 1_555 1_555
C1A H1A 1_555 1_555
C2A C6 1_555 1_555
C3A C2A 1_555 1_555
H2A C3A 1_555 1_555
C4A C3A 1_555 1_555
H3A C4A 1_555 1_555
C5A N1A 1_555 1_555
H4A C5A 1_555 1_555
F1A P1 1_555 1_555
F2A P1 1_555 1_555
C4 C5 1_555 1_555
C1A C2A 1_555 1_555
C4A C5A 1_555 1_555

#END
