
#######################################################################
#
#                 Cambridge Crystallographic Data Centre
#                                CCDC 
#
#######################################################################
#
# If this CIF has been generated from an entry in the Cambridge 
# Structural Database, then it will include bibliographic, chemical, 
# crystal, experimental, refinement or atomic coordinate data resulting 
# from the CCDC's data processing and validation procedures.
#
#######################################################################

data_RANZAH
_symmetry_cell_setting           triclinic
_symmetry_space_group_name_H-M   'P -1'
_symmetry_Int_Tables_number      2
_space_group_name_Hall           '-P 1'
loop_
_symmetry_equiv_pos_site_id
_symmetry_equiv_pos_as_xyz
1 x,y,z
2 -x,-y,-z
_cell_length_a                   6.2462(5)
_cell_length_b                   7.7568(6)
_cell_length_c                   14.1121(10)
_cell_angle_alpha                78.082(1)
_cell_angle_beta                 81.702(1)
_cell_angle_gamma                79.096(1)
_cell_volume                     652.968
loop_
_atom_site_label
_atom_site_type_symbol
_atom_site_fract_x
_atom_site_fract_y
_atom_site_fract_z
Cu1 Cu 0.0000 0.0000 1.0000
Cu2 Cu 0.1652(1) -0.2028(1) 0.7331(1)
Cu3 Cu 0.5000 -0.5000 0.5000
Br1 Br 0.5199(1) -0.2421(4) 0.6306(1)
O1 O 0.2443(4) 0.0581(3) 1.0545(2)
O2 O 0.4310(4) 0.2833(3) 1.0445(2)
O3 O -0.6899(4) 0.3973(3) 0.6096(2)
O4 O -0.6714(4) 0.2202(3) 0.7553(2)
O5 O 0.2406(4) -0.0905(3) 0.8604(2)
N1 N -0.0167(4) 0.2522(3) 0.9271(2)
N2 N 0.0732(4) 0.5777(3) 0.8179(2)
N3 N -0.2671(4) 0.3117(3) 0.5589(2)
N4 N -0.0145(4) 0.0176(3) 0.6619(2)
C1 C -0.1434(5) 0.3443(4) 0.8592(2)
C2 C -0.0971(5) 0.5062(4) 0.8043(2)
C3 C 0.1960(5) 0.4865(4) 0.8892(2)
C4 C 0.1518(5) 0.3237(4) 0.9427(2)
C5 C 0.2905(5) 0.2133(4) 1.0205(2)
C6 C -0.0595(5) 0.2586(4) 0.5259(2)
C7 C 0.0665(6) 0.1096(4) 0.5772(2)
C8 C -0.2238(6) 0.0748(4) 0.6958(2)
C9 C -0.3500(5) 0.2207(4) 0.6440(2)
C10 C -0.5893(6) 0.2828(4) 0.6740(2)
O1A O -0.2443(4) -0.0581(3) 0.9455(2)
O2A O -0.4310(4) -0.2833(3) 0.9555(2)
N1A N 0.0167(4) -0.2522(3) 1.0729(2)
N2A N -0.0732(4) -0.5777(3) 1.1821(2)
C1A C 0.1434(5) -0.3443(4) 1.1408(2)
C2A C 0.0971(5) -0.5062(4) 1.1957(2)
C3A C -0.1960(5) -0.4865(4) 1.1108(2)
C4A C -0.1518(5) -0.3237(4) 1.0573(2)
C5A C -0.2905(5) -0.2133(4) 0.9795(2)
O5A O -0.2406(4) 0.0905(3) 1.1396(2)
Cu2A Cu -0.1652(1) 0.2028(1) 1.2669(1)
N2_2 N 0.0732(4) -0.4223(3) 0.8179(2)
Br1A Br 0.4801(1) -0.7579(4) 0.3694(1)
O3_2 O 0.3101(4) -0.6027(3) 0.6096(2)
O3A O 0.6899(4) -0.3973(3) 0.3904(2)
N3_2 N 0.7329(4) -0.6883(3) 0.5589(2)
N3A N 0.2671(4) -0.3117(3) 0.4411(2)
Cu3_2 Cu -0.5000 0.5000 0.5000
Cu2_2 Cu 0.1652(1) 0.7972(1) 0.7331(1)
Cu2A_2 Cu -0.1652(1) -0.7972(1) 1.2669(1)
C2_2 C -0.0971(5) -0.4938(4) 0.8043(2)
C3_2 C 0.1960(5) -0.5135(4) 0.8892(2)
Br1A_2 Br -0.5199(1) -0.7579(4) 1.3694(1)
O5A_2 O -0.2406(4) -0.9095(3) 1.1396(2)
N4A N 0.0145(4) -1.0176(3) 1.3381(2)
C1_2 C -0.1434(5) -0.6557(4) 0.8592(2)
C4_2 C 0.1518(5) -0.6763(4) 0.9427(2)
Cu3_3 Cu -0.5000 -0.5000 1.5000
Cu1_2 Cu 0.0000 -1.0000 1.0000
N1_2 N -0.0167(4) -0.7478(3) 0.9271(2)
C5_2 C 0.2905(5) -0.7867(4) 1.0205(2)
O1_2 O 0.2443(4) -0.9419(3) 1.0545(2)
O1A_2 O -0.2443(4) -1.0581(3) 0.9455(2)
O5_2 O 0.2406(4) -1.0905(3) 0.8604(2)
N1A_2 N 0.0167(4) -1.2522(3) 1.0729(2)
O2_2 O 0.4310(4) -0.7167(3) 1.0445(2)
loop_
_geom_bond_atom_site_label_1
_geom_bond_atom_site_label_2
_geom_bond_site_symmetry_1
_geom_bond_site_symmetry_2
Cu1 O1 1_555 1_555
Cu2 Br1 1_555 1_555
Cu3 Br1 1_555 1_555
O1 C5 1_555 1_555
O2 C5 1_555 1_555
O3 C10 1_555 1_555
O4 C10 1_555 1_555
O5 Cu1 1_555 1_555
N1 Cu1 1_555 1_555
N2 C2 1_555 1_555
N3 C6 1_555 1_555
N4 Cu2 1_555 1_555
C1 N1 1_555 1_555
C2 C1 1_555 1_555
C3 N2 1_555 1_555
C4 N1 1_555 1_555
C5 C4 1_555 1_555
C6 C7 1_555 1_555
C7 N4 1_555 1_555
C8 N4 1_555 1_555
C9 N3 1_555 1_555
C10 C9 1_555 1_555
O1A Cu1 1_555 1_555
O2A C5A 1_555 1_555
N1A Cu1 1_555 1_555
N2A C2A 1_555 1_555
C1A N1A 1_555 1_555
C2A C1A 1_555 1_555
C3A N2A 1_555 1_555
C4A N1A 1_555 1_555
C5A O1A 1_555 1_555
O5A Cu1 1_555 1_555
Cu2A O5A 1_555 1_555
N2_2 Cu2 1_555 1_555
Br1A Cu3 1_555 1_555
O3_2 Cu3 1_555 1_555
O3A Cu3 1_555 1_555
N3_2 Cu3 1_555 1_555
N3A Cu3 1_555 1_555
Cu3_2 O3 1_555 1_555
Cu2_2 N2 1_555 1_555
Cu2A_2 N2A 1_555 1_555
C2_2 N2_2 1_555 1_555
C3_2 N2_2 1_555 1_555
Br1A_2 Cu2A_2 1_555 1_555
O5A_2 Cu2A_2 1_555 1_555
N4A Cu2A_2 1_555 1_555
C1_2 C2_2 1_555 1_555
C4_2 C3_2 1_555 1_555
Cu3_3 Br1A_2 1_555 1_555
Cu1_2 O5A_2 1_555 1_555
N1_2 C1_2 1_555 1_555
C5_2 C4_2 1_555 1_555
O1_2 Cu1_2 1_555 1_555
O1A_2 Cu1_2 1_555 1_555
O5_2 Cu1_2 1_555 1_555
N1A_2 Cu1_2 1_555 1_555
O2_2 C5_2 1_555 1_555
Cu2 O5 1_555 1_555
N3 Cu3_2 1_555 1_555
C3 C4 1_555 1_555
C8 C9 1_555 1_555
C3A C4A 1_555 1_555
C4A C5A 1_555 1_555
C4_2 N1_2 1_555 1_555
Cu1_2 N1_2 1_555 1_555
C5_2 O1_2 1_555 1_555

#END
