
#######################################################################
#
#                 Cambridge Crystallographic Data Centre
#                                CCDC 
#
#######################################################################
#
# If this CIF has been generated from an entry in the Cambridge 
# Structural Database, then it will include bibliographic, chemical, 
# crystal, experimental, refinement or atomic coordinate data resulting 
# from the CCDC's data processing and validation procedures.
#
#######################################################################

data_RANZEL
_symmetry_cell_setting           monoclinic
_symmetry_space_group_name_H-M   'C 2/c'
_symmetry_Int_Tables_number      15
_space_group_name_Hall           '-C 2yn'
loop_
_symmetry_equiv_pos_site_id
_symmetry_equiv_pos_as_xyz
1 x,y,z
2 -x,y,1/2-z
3 1/2+x,1/2+y,z
4 1/2-x,1/2+y,1/2-z
5 -x,-y,-z
6 x,-y,1/2+z
7 1/2-x,1/2-y,-z
8 1/2+x,1/2-y,1/2+z
_cell_length_a                   9.482(3)
_cell_length_b                   8.539(3)
_cell_length_c                   28.461(10)
_cell_angle_alpha                90
_cell_angle_beta                 91.75(2)
_cell_angle_gamma                90
_cell_volume                     2303.32
loop_
_atom_site_label
_atom_site_type_symbol
_atom_site_fract_x
_atom_site_fract_y
_atom_site_fract_z
Ag1 Ag 0.25821(5) 0.50553(9) 0.32589(2)
S1 S -0.0083(2) 0.2980(3) 0.36116(7)
O1 O 0.0336(9) 0.4242(8) 0.3902(3)
O2 O -0.1494(6) 0.3126(10) 0.3431(3)
O3 O 0.0893(9) 0.2676(9) 0.3258(3)
C1 C -0.0078(8) 0.1263(9) 0.3962(2)
C2 C 0.1166(9) 0.0550(10) 0.4080(3)
C3 C 0.1202(11) -0.0796(12) 0.4350(3)
C4 C -0.0031(13) -0.1458(11) 0.4503(3)
C5 C -0.1310(11) -0.0705(11) 0.4384(3)
C6 C -0.1327(9) 0.0653(10) 0.4123(3)
C7 C -0.0017(14) -0.2952(12) 0.4785(4)
N1 N 0.4137(6) 0.3605(6) 0.2813(2)
N2 N 0.5946(5) 0.1560(6) 0.2800(2)
C8 C 0.5074(7) 0.2582(9) 0.3095(2)
C9 C 0.5000 0.0589(11) 0.2500
C10 C 0.5000 0.4579(10) 0.2500
C11 C 0.3205(6) 0.2572(8) 0.2509(2)
N2B N 0.0946(5) 0.6560(6) 0.2800(2)
Ag1B Ag 0.75821(5) 0.00553(9) 0.32589(2)
N2A N 0.4054(5) 0.1560(6) 0.2200(2)
Ag1C Ag 0.24179(5) 0.00553(9) 0.17411(2)
O3C O 0.4107(9) -0.2324(9) 0.1742(3)
S1C S 0.5083(2) -0.2020(3) 0.13884(7)
O1C O 0.4664(9) -0.0758(8) 0.1098(3)
O2C O 0.6494(6) -0.1874(10) 0.1569(3)
C1C C 0.5078(8) -0.3737(9) 0.1038(2)
C2C C 0.3834(9) -0.4450(10) 0.0920(3)
C3C C 0.3798(11) -0.5796(12) 0.0650(3)
C4C C 0.5031(13) -0.6458(11) 0.0497(3)
C5C C 0.6310(11) -0.5705(11) 0.0616(3)
C6C C 0.6327(9) -0.4347(10) 0.0877(3)
C7C C 0.5017(14) -0.7952(12) 0.0215(4)
N1C N 0.0863(6) -0.1395(6) 0.2187(2)
C8A C 0.4926(7) 0.2582(9) 0.1905(2)
C11A C 0.6795(6) 0.2572(8) 0.2491(2)
N1A N 0.5863(6) 0.3605(6) 0.2187(2)
Ag1A Ag 0.74179(5) 0.50553(9) 0.17411(2)
loop_
_geom_bond_atom_site_label_1
_geom_bond_atom_site_label_2
_geom_bond_site_symmetry_1
_geom_bond_site_symmetry_2
Ag1 O3 1_555 1_555
S1 O1 1_555 1_555
O2 S1 1_555 1_555
O3 S1 1_555 1_555
C1 S1 1_555 1_555
C2 C1 1_555 1_555
C3 C2 1_555 1_555
C4 C3 1_555 1_555
C5 C4 1_555 1_555
C6 C1 1_555 1_555
C7 C4 1_555 1_555
N1 Ag1 1_555 1_555
N2 C8 1_555 1_555
C8 N1 1_555 1_555
C9 N2 1_555 1_555
C10 N1 1_555 1_555
C11 N1 1_555 1_555
N2B Ag1 1_555 1_555
Ag1B N2 1_555 1_555
N2A C9 1_555 1_555
Ag1C N2A 1_555 1_555
O3C Ag1C 1_555 1_555
S1C O3C 1_555 1_555
O1C S1C 1_555 1_555
O2C S1C 1_555 1_555
C1C S1C 1_555 1_555
C2C C1C 1_555 1_555
C3C C2C 1_555 1_555
C4C C3C 1_555 1_555
C5C C4C 1_555 1_555
C6C C1C 1_555 1_555
C7C C4C 1_555 1_555
N1C Ag1C 1_555 1_555
C8A N2A 1_555 1_555
C11A N2 1_555 1_555
N1A C10 1_555 1_555
Ag1A N1A 1_555 1_555
C5 C6 1_555 1_555
C11 N2A 1_555 1_555
C5C C6C 1_555 1_555
C8A N1A 1_555 1_555
C11A N1A 1_555 1_555

#END
