
#######################################################################
#
#                 Cambridge Crystallographic Data Centre
#                                CCDC 
#
#######################################################################
#
# If this CIF has been generated from an entry in the Cambridge 
# Structural Database, then it will include bibliographic, chemical, 
# crystal, experimental, refinement or atomic coordinate data resulting 
# from the CCDC's data processing and validation procedures.
#
#######################################################################

data_RANZAI
_symmetry_cell_setting           monoclinic
_symmetry_space_group_name_H-M   'C 2/c'
_symmetry_Int_Tables_number      15
_space_group_name_Hall           '-C 2yn'
loop_
_symmetry_equiv_pos_site_id
_symmetry_equiv_pos_as_xyz
1 x,y,z
2 1/2+x,1/2+y,z
3 -x,y,1/2-z
4 1/2-x,1/2+y,1/2-z
5 -x,-y,-z
6 1/2-x,1/2-y,-z
7 x,-y,1/2+z
8 1/2+x,1/2-y,1/2+z
_cell_length_a                   20.0611(7)
_cell_length_b                   7.791
_cell_length_c                   13.9276(5)
_cell_angle_alpha                90
_cell_angle_beta                 121.4740(10)
_cell_angle_gamma                90
_cell_volume                     1856.57
loop_
_atom_site_label
_atom_site_type_symbol
_atom_site_fract_x
_atom_site_fract_y
_atom_site_fract_z
Gd1 Gd 0.26885(2) 0.28344(5) 0.23002(3)
C1 C 0.3305(5) 0.6307(11) 0.1450(8)
C2 C 0.3773(6) 0.6750(12) 0.0910(7)
H1 H 0.4206 0.7486 0.1416
H2 H 0.3443 0.7390 0.0223
C3 C 0.4097(5) 0.5165(12) 0.0628(8)
H3 H 0.4497 0.5531 0.0481
H4 H 0.4341 0.4409 0.1277
C4 C 0.3474(5) 0.4168(12) -0.0385(8)
C5 C 0.3951(5) 0.0750(12) 0.3934(7)
C6 C 0.4604(5) -0.0434(13) 0.4693(9)
H5 H 0.4621 -0.1374 0.4249
H6 H 0.4499 -0.0916 0.5242
O1 O 0.3195(4) 0.4761(8) 0.1576(6)
O2 O 0.3045(4) 0.7595(9) 0.1768(6)
O3 O 0.3130(4) 0.4814(8) -0.1358(5)
O4 O 0.3303(4) 0.2658(8) -0.0268(5)
O5 O 0.3240(3) 0.0186(8) 0.3400(5)
O6 O 0.4073(4) 0.2279(8) 0.3808(6)
O7 O 0.3329(4) 0.1098(9) 0.1503(6)
Gd1C Gd 0.23115(2) -0.21656(5) 0.26998(3)
Gd1C_2 Gd 0.23115(2) 0.78344(5) 0.26998(3)
Gd1F Gd 0.26885(2) 0.71656(5) -0.26998(3)
Gd1E Gd 0.23115(2) 0.21656(5) -0.23002(3)
Gd1G Gd 0.76885(2) 0.21656(5) 0.73002(3)
Gd1D Gd 0.73115(2) -0.28344(5) 0.76998(3)
Gd1F_2 Gd 0.26885(2) -0.28344(5) 0.73002(3)
Gd1E_2 Gd 0.23115(2) 0.21656(5) 0.76998(3)
C1C C 0.1695(5) 0.1307(11) 0.3550(8)
C2C C 0.1227(6) 0.1750(12) 0.4090(7)
H1C H 0.0794 0.2486 0.3584
H2C H 0.1557 0.2390 0.4777
C3C C 0.0903(5) 0.0165(12) 0.4372(8)
H3C H 0.0503 0.0531 0.4519
H4C H 0.0659 -0.0591 0.3723
C4C C 0.1526(5) -0.0832(12) 0.5385(8)
C5D C 0.6049(5) -0.0750(12) 0.6066(7)
C6D C 0.5396(5) 0.0434(13) 0.5307(9)
H5D H 0.5379 0.1374 0.5751
H6D H 0.5501 0.0916 0.4758
O1C O 0.1805(4) -0.0239(8) 0.3424(6)
O2C O 0.1955(4) 0.2595(9) 0.3232(6)
O2_2 O 0.3045(4) -0.2405(9) 0.1768(6)
O3C O 0.1870(4) -0.0186(8) 0.6358(5)
O3F O 0.3130(4) 0.5186(8) 0.3642(5)
O3E O 0.1870(4) 0.0186(8) 0.1358(5)
O3F_2 O 0.3130(4) -0.4814(8) 0.3642(5)
O4C O 0.1697(4) -0.2342(8) 0.5268(5)
O4E O 0.1697(4) 0.2342(8) 0.0268(5)
O4F O 0.3303(4) -0.2658(8) 0.4732(5)
O5D O 0.6760(3) -0.0186(8) 0.6600(5)
O5C O 0.1760(3) 0.5186(8) 0.1600(5)
O5C_2 O 0.1760(3) -0.4814(8) 0.1600(5)
O6D O 0.5927(4) -0.2279(8) 0.6192(6)
O6C O 0.0927(4) -0.2721(8) 0.1192(6)
O7C O 0.1671(4) -0.3902(9) 0.3497(6)
O8 O 0.5000 0.027(3) 0.2500
loop_
_geom_bond_atom_site_label_1
_geom_bond_atom_site_label_2
_geom_bond_site_symmetry_1
_geom_bond_site_symmetry_2
Gd1 O1 1_555 1_555
C1 C2 1_555 1_555
C2 H1 1_555 1_555
H2 C2 1_555 1_555
C3 C2 1_555 1_555
H3 C3 1_555 1_555
H4 C3 1_555 1_555
C4 C3 1_555 1_555
C5 C6 1_555 1_555
C6 H5 1_555 1_555
H6 C6 1_555 1_555
O1 C1 1_555 1_555
O2 C1 1_555 1_555
O3 C4 1_555 1_555
O4 C4 1_555 1_555
O5 Gd1 1_555 1_555
O6 Gd1 1_555 1_555
O7 Gd1 1_555 1_555
Gd1C O5 1_555 1_555
Gd1C_2 O2 1_555 1_555
Gd1F O3 1_555 1_555
Gd1E O3 1_555 1_555
Gd1G O5D 1_555 1_555
Gd1D O5D 1_555 1_555
Gd1F_2 O3C 1_555 1_555
Gd1E_2 O3C 1_555 1_555
C1C C2C 1_555 1_555
C2C H1C 1_555 1_555
H2C C2C 1_555 1_555
C3C C2C 1_555 1_555
H3C C3C 1_555 1_555
H4C C3C 1_555 1_555
C4C C3C 1_555 1_555
C5D C6D 1_555 1_555
C6D C6 1_555 1_555
H5D C6D 1_555 1_555
H6D C6D 1_555 1_555
O1C Gd1C 1_555 1_555
O2C Gd1 1_555 1_555
O2_2 Gd1C 1_555 1_555
O3C C4C 1_555 1_555
O3F Gd1 1_555 1_555
O3E Gd1 1_555 1_555
O3F_2 Gd1C 1_555 1_555
O4C Gd1F_2 1_555 1_555
O4E Gd1 1_555 1_555
O4F Gd1C 1_555 1_555
O5D C5D 1_555 1_555
O5C Gd1 1_555 1_555
O5C_2 Gd1C 1_555 1_555
O6D Gd1D 1_555 1_555
O6C Gd1C 1_555 1_555
O7C Gd1C 1_555 1_555
C5 O5 1_555 1_555
C5 O6 1_555 1_555
O4 Gd1E 1_555 1_555
Gd1C O3E 1_555 1_555
Gd1C_2 O3F 1_555 1_555
Gd1C_2 O5C 1_555 1_555
C1C O1C 1_555 1_555
C1C O2C 1_555 1_555
C4C O4C 1_555 1_555
C5D O6D 1_555 1_555

#END
