
#######################################################################
#
#                 Cambridge Crystallographic Data Centre
#                                CCDC 
#
#######################################################################
#
# If this CIF has been generated from an entry in the Cambridge 
# Structural Database, then it will include bibliographic, chemical, 
# crystal, experimental, refinement or atomic coordinate data resulting 
# from the CCDC's data processing and validation procedures.
#
#######################################################################

data_RANZAJ
_symmetry_cell_setting           monoclinic
_symmetry_space_group_name_H-M   'P 21/n'
_symmetry_Int_Tables_number      14
_space_group_name_Hall           '-P 2yn'
loop_
_symmetry_equiv_pos_site_id
_symmetry_equiv_pos_as_xyz
1 x,y,z
2 1/2-x,1/2+y,1/2-z
3 -x,-y,-z
4 1/2+x,1/2-y,1/2+z
_cell_length_a                   8.1442(5)
_cell_length_b                   18.2183(11)
_cell_length_c                   9.8054(6)
_cell_angle_alpha                90
_cell_angle_beta                 97.714(2)
_cell_angle_gamma                90
_cell_volume                     1441.7
loop_
_atom_site_label
_atom_site_type_symbol
_atom_site_fract_x
_atom_site_fract_y
_atom_site_fract_z
Cu1 Cu 0.19825(4) 0.486867(16) 0.48177(3)
N1 N 0.5119(3) 0.67017(11) 1.0493(2)
H1 H 0.5935 0.6608 1.1206
N2 N 0.2742(2) 0.57253(11) 0.6063(2)
N3 N 0.3523(2) 0.89687(11) 1.1370(2)
N4 N 0.3244(3) 0.52492(11) 0.3347(2)
N5 N 0.4489(3) 0.56014(11) 0.35909(19)
N6 N 0.5712(3) 0.59444(11) 0.3770(2)
N7 N 0.0464(2) 0.45146(11) 0.6123(2)
N8 N 0.0840(3) 0.41840(11) 0.7166(2)
N9 N 0.1163(3) 0.38619(16) 0.8175(3)
C1 C 0.4962(3) 0.60392(13) 0.9648(2)
H2 H 0.4307 0.5679 1.0066
H3 H 0.6053 0.5832 0.9615
C2 C 0.3554(3) 0.69177(13) 1.0954(2)
H4 H 0.3244 0.6558 1.1604
H5 H 0.2687 0.6933 1.0173
C3 C 0.3444(3) 0.56346(13) 0.7378(2)
H6 H 0.3455 0.5166 0.7754
C4 C 0.4149(3) 0.61993(13) 0.8198(2)
C5 C 0.4089(3) 0.68993(14) 0.7637(2)
H7 H 0.4571 0.7292 0.8148
C6 C 0.3305(3) 0.70080(13) 0.6311(3)
H8 H 0.3214 0.7477 0.5934
C7 C 0.2661(3) 0.64107(13) 0.5556(2)
H9 H 0.2150 0.6486 0.4661
C8 C 0.3384(3) 0.82886(13) 1.0847(2)
H10 H 0.3040 0.8236 0.9909
C9 C 0.3725(3) 0.76606(13) 1.1628(2)
C10 C 0.4253(3) 0.77467(14) 1.3025(2)
H11 H 0.4508 0.7339 1.3583
C11 C 0.4396(3) 0.84448(14) 1.3578(3)
H12 H 0.4746 0.8512 1.4512
C12 C 0.4014(3) 0.90405(14) 1.2730(2)
H13 H 0.4099 0.9509 1.3110
Cu1A Cu 0.30175(4) 0.986867(16) 1.01823(3)
Cu1B Cu -0.19825(4) 0.513133(16) 0.51823(3)
N3A N 0.1477(2) 0.39687(11) 0.3630(2)
N7B N -0.0464(2) 0.54854(11) 0.3877(2)
loop_
_geom_bond_atom_site_label_1
_geom_bond_atom_site_label_2
_geom_bond_site_symmetry_1
_geom_bond_site_symmetry_2
Cu1 N2 1_555 1_555
N1 H1 1_555 1_555
N2 C3 1_555 1_555
N3 C8 1_555 1_555
N4 Cu1 1_555 1_555
N5 N4 1_555 1_555
N6 N5 1_555 1_555
N7 Cu1 1_555 1_555
N8 N7 1_555 1_555
N9 N8 1_555 1_555
C1 N1 1_555 1_555
H2 C1 1_555 1_555
H3 C1 1_555 1_555
C2 N1 1_555 1_555
H4 C2 1_555 1_555
H5 C2 1_555 1_555
C3 H6 1_555 1_555
C4 C1 1_555 1_555
C5 C4 1_555 1_555
H7 C5 1_555 1_555
C6 C5 1_555 1_555
H8 C6 1_555 1_555
C7 N2 1_555 1_555
H9 C7 1_555 1_555
C8 H10 1_555 1_555
C9 C2 1_555 1_555
C10 C9 1_555 1_555
H11 C10 1_555 1_555
C11 C10 1_555 1_555
H12 C11 1_555 1_555
C12 N3 1_555 1_555
H13 C12 1_555 1_555
Cu1A N3 1_555 1_555
Cu1B N7 1_555 1_555
N3A Cu1 1_555 1_555
N7B Cu1 1_555 1_555
C3 C4 1_555 1_555
C6 C7 1_555 1_555
C8 C9 1_555 1_555
C11 C12 1_555 1_555
Cu1B N7B 1_555 1_555

#END
