
#######################################################################
#
#                 Cambridge Crystallographic Data Centre
#                                CCDC 
#
#######################################################################
#
# If this CIF has been generated from an entry in the Cambridge 
# Structural Database, then it will include bibliographic, chemical, 
# crystal, experimental, refinement or atomic coordinate data resulting 
# from the CCDC's data processing and validation procedures.
#
#######################################################################

data_RANZIP
_symmetry_cell_setting           monoclinic
_symmetry_space_group_name_H-M   'P 21/c'
_symmetry_Int_Tables_number      14
_space_group_name_Hall           '-P 2ybc'
loop_
_symmetry_equiv_pos_site_id
_symmetry_equiv_pos_as_xyz
1 x,y,z
2 -x,1/2+y,1/2-z
3 -x,-y,-z
4 x,1/2-y,1/2+z
_cell_length_a                   6.429(2)
_cell_length_b                   25.247(3)
_cell_length_c                   16.162(2)
_cell_angle_alpha                90
_cell_angle_beta                 91.54(2)
_cell_angle_gamma                90
_cell_volume                     2622.35
loop_
_atom_site_label
_atom_site_type_symbol
_atom_site_fract_x
_atom_site_fract_y
_atom_site_fract_z
Ag1 Ag -0.23809(13) 0.14836(3) 0.26308(5)
Ag2 Ag 0.25736(14) 0.16764(3) 0.58968(5)
N1 N -0.2469(14) 0.1184(3) 0.4042(5)
N2 N -0.0531(13) 0.1294(3) 0.5356(5)
N3 N -0.2454(14) 0.0479(3) 0.5066(5)
N4 N -0.4354(13) 0.1296(3) 0.5319(5)
C1 C -0.0596(15) 0.1414(4) 0.4464(6)
C2 C -0.4329(16) 0.1408(4) 0.4414(6)
C3 C -0.2477(18) 0.0602(4) 0.4187(7)
C4 C -0.0588(18) 0.0710(4) 0.5474(7)
C5 C -0.2449(15) 0.1521(4) 0.5706(6)
C6 C -0.4320(17) 0.0711(4) 0.5439(7)
N5 N -0.7441(12) 0.2424(3) 0.1175(5)
N6 N -0.7528(13) 0.1521(3) 0.0624(5)
N7 N -0.5484(12) 0.1707(3) 0.1884(5)
N8 N -0.9326(12) 0.1720(3) 0.1915(5)
C7 C -0.5517(16) 0.2272(4) 0.1666(6)
C8 C -0.9249(16) 0.2291(4) 0.1685(6)
C9 C -0.7516(17) 0.2085(4) 0.0429(6)
C10 C -0.5652(17) 0.1393(4) 0.1107(6)
C11 C -0.9331(17) 0.1399(4) 0.1129(6)
C12 C -0.7375(16) 0.1589(4) 0.2379(6)
O1 O 0.3323(16) 0.1402(4) 0.7272(6)
S2 S -0.2536(6) 0.00495(13) 0.2127(2)
O6 O -0.186(2) -0.0379(3) 0.2578(7)
O7 O -0.4735(17) 0.0147(8) 0.2189(10)
O8 O -0.144(2) 0.0521(4) 0.2243(7)
C14 C -0.226(2) -0.0106(5) 0.1037(10)
F4 F -0.321(2) -0.0545(5) 0.0854(8)
F5 F -0.284(2) 0.0264(4) 0.0563(6)
F6 F -0.028(2) -0.0198(6) 0.0930(9)
N8_2 N 0.0674(12) 0.1720(3) 0.1915(5)
N4_2 N 0.5646(13) 0.1296(3) 0.5319(5)
N5C N 0.2559(12) 0.2576(3) 0.6175(5)
Ag2_2 Ag -0.74264(14) 0.16764(3) 0.58968(5)
Ag2C Ag -0.74264(14) 0.33236(3) 0.08968(5)
Ag1_2 Ag -1.23809(13) 0.14836(3) 0.26308(5)
O2 O 0.2480(18) 0.4645(4) 0.8277(7)
S1 S 0.7086(5) 0.21642(11) -0.11879(17)
O3 O 0.7415(11) 0.2256(3) -0.0328(4)
O4 O 0.4974(11) 0.2090(4) -0.1438(4)
O5 O 0.8188(13) 0.2512(3) -0.1698(5)
C13 C 0.8311(18) 0.1519(5) -0.1353(6)
F1 F 1.0299(13) 0.1541(4) -0.1165(5)
F2 F 0.8094(14) 0.1378(4) -0.2122(5)
F3 F 0.7507(19) 0.1157(3) -0.0893(7)
loop_
_geom_bond_atom_site_label_1
_geom_bond_atom_site_label_2
_geom_bond_site_symmetry_1
_geom_bond_site_symmetry_2
Ag1 N1 1_555 1_555
Ag2 N2 1_555 1_555
N1 C1 1_555 1_555
N2 C1 1_555 1_555
N3 C3 1_555 1_555
N4 C2 1_555 1_555
C2 N1 1_555 1_555
C3 N1 1_555 1_555
C4 N2 1_555 1_555
C5 N2 1_555 1_555
C6 N3 1_555 1_555
N5 C7 1_555 1_555
N6 C9 1_555 1_555
N7 Ag1 1_555 1_555
N8 C8 1_555 1_555
C7 N7 1_555 1_555
C8 N5 1_555 1_555
C9 N5 1_555 1_555
C10 N6 1_555 1_555
C11 N6 1_555 1_555
C12 N7 1_555 1_555
O1 Ag2 1_555 1_555
S1 O3 1_555 1_555
O4 S1 1_555 1_555
O5 S1 1_555 1_555
C13 S1 1_555 1_555
F1 C13 1_555 1_555
F2 C13 1_555 1_555
F3 C13 1_555 1_555
S2 O6 1_555 1_555
O7 S2 1_555 1_555
O8 Ag1 1_555 1_555
C14 S2 1_555 1_555
F4 C14 1_555 1_555
F5 C14 1_555 1_555
F6 C14 1_555 1_555
N8_2 Ag1 1_555 1_555
N4_2 Ag2 1_555 1_555
N5C Ag2 1_555 1_555
Ag2_2 N4 1_555 1_555
Ag2C N5 1_555 1_555
Ag1_2 N8 1_555 1_555
N3 C4 1_555 1_555
N4 C5 1_555 1_555
N4 C6 1_555 1_555
N7 C10 1_555 1_555
N8 C11 1_555 1_555
N8 C12 1_555 1_555
S2 O8 1_555 1_555

#END
