
#######################################################################
#
#                 Cambridge Crystallographic Data Centre
#                                CCDC 
#
#######################################################################
#
# If this CIF has been generated from an entry in the Cambridge 
# Structural Database, then it will include bibliographic, chemical, 
# crystal, experimental, refinement or atomic coordinate data resulting 
# from the CCDC's data processing and validation procedures.
#
#######################################################################

data_RAPBEP
_symmetry_cell_setting           monoclinic
_symmetry_space_group_name_H-M   'P 21/c'
_symmetry_Int_Tables_number      14
_space_group_name_Hall           '-P 2ybc'
loop_
_symmetry_equiv_pos_site_id
_symmetry_equiv_pos_as_xyz
1 x,y,z
2 -x,1/2+y,1/2-z
3 -x,-y,-z
4 x,1/2-y,1/2+z
_cell_length_a                   6.436(1)
_cell_length_b                   12.283(2)
_cell_length_c                   8.934(2)
_cell_angle_alpha                90
_cell_angle_beta                 104.23(3)
_cell_angle_gamma                90
_cell_volume                     684.593
loop_
_atom_site_label
_atom_site_type_symbol
_atom_site_fract_x
_atom_site_fract_y
_atom_site_fract_z
Cd1 Cd 0.7539(1) 0.6678(1) 0.1208(1)
O1 O 0.7427(6) 0.7119(3) 0.3817(4)
O2 O 0.7587(5) 0.6469(3) 0.6133(4)
O3 O 0.8724(6) 0.1761(3) 0.3153(5)
O4 O 0.6231(6) 0.1795(3) 0.4472(5)
O5 O 0.7655(7) 0.5574(3) -0.0855(5)
N1 N 0.7491(6) 0.5093(3) 0.2621(5)
N2 N 0.7504(7) 0.4023(3) 0.2395(5)
C1 C 0.7481(7) 0.6334(4) 0.4722(6)
C2 C 0.7424(7) 0.5222(4) 0.4101(5)
C3 C 0.7327(8) 0.4219(4) 0.4801(5)
C4 C 0.7388(7) 0.3462(4) 0.3678(5)
C5 C 0.7446(7) 0.2253(4) 0.3759(5)
H1 H 0.7436 0.5713 -0.1899
H2 H 0.7573 0.4821 -0.1018
H3 H 0.7405 0.3688 0.1528
H4 H 0.7335 0.4064 0.5800
O1C O 0.7427(6) 0.7881(3) -0.1183(4)
O2C O 0.7587(5) 0.8531(3) 0.1133(4)
O3A O 1.1276(6) 0.6761(3) 0.1847(5)
O4A O 0.3769(6) 0.6795(3) 0.0528(5)
Cd1C Cd 0.7539(1) 0.8322(1) 0.6208(1)
Cd1A Cd 1.2461(1) 0.1678(1) 0.3792(1)
Cd1A_2 Cd 0.2461(1) 0.1678(1) 0.3792(1)
loop_
_geom_bond_atom_site_label_1
_geom_bond_atom_site_label_2
_geom_bond_site_symmetry_1
_geom_bond_site_symmetry_2
Cd1 O1 1_555 1_555
O1 C1 1_555 1_555
O2 C1 1_555 1_555
O3 C5 1_555 1_555
O4 C5 1_555 1_555
O5 Cd1 1_555 1_555
N1 Cd1 1_555 1_555
N2 N1 1_555 1_555
C1 C2 1_555 1_555
C2 N1 1_555 1_555
C3 C2 1_555 1_555
C4 N2 1_555 1_555
C5 C4 1_555 1_555
H1 O5 1_555 1_555
H2 O5 1_555 1_555
H3 N2 1_555 1_555
H4 C3 1_555 1_555
O1C Cd1 1_555 1_555
O2C Cd1 1_555 1_555
O3A Cd1 1_555 1_555
O4A Cd1 1_555 1_555
Cd1C O1 1_555 1_555
Cd1A O3 1_555 1_555
Cd1A_2 O4 1_555 1_555
O2 Cd1C 1_555 1_555
C3 C4 1_555 1_555

#END
