
#######################################################################
#
#                 Cambridge Crystallographic Data Centre
#                                CCDC 
#
#######################################################################
#
# If this CIF has been generated from an entry in the Cambridge 
# Structural Database, then it will include bibliographic, chemical, 
# crystal, experimental, refinement or atomic coordinate data resulting 
# from the CCDC's data processing and validation procedures.
#
#######################################################################

data_RAPBIT
_symmetry_cell_setting           monoclinic
_symmetry_space_group_name_H-M   'P 21/c'
_symmetry_Int_Tables_number      14
_space_group_name_Hall           '-P 2ybc'
loop_
_symmetry_equiv_pos_site_id
_symmetry_equiv_pos_as_xyz
1 x,y,z
2 -x,1/2+y,1/2-z
3 -x,-y,-z
4 x,1/2-y,1/2+z
_cell_length_a                   9.744(2)
_cell_length_b                   9.821(2)
_cell_length_c                   7.496(1)
_cell_angle_alpha                90
_cell_angle_beta                 105.23(3)
_cell_angle_gamma                90
_cell_volume                     692.142
loop_
_atom_site_label
_atom_site_type_symbol
_atom_site_fract_x
_atom_site_fract_y
_atom_site_fract_z
Cd1 Cd 0.0000 0.0000 0.0000
Cd2 Cd 0.2764(1) 0.4919(2) -0.0561(1)
O1 O 0.1651(10) 0.2886(10) -0.0109(14)
O2 O 0.2112(11) 0.0879(11) 0.1280(15)
O3 O 0.8618(10) 0.1693(11) 0.0927(14)
O4 O 0.8016(11) 0.0371(10) 0.2913(14)
O5 O 0.0450(10) -0.0783(10) 0.3066(12)
N1 N 0.4550(13) 0.3418(12) 0.0649(17)
N2 N 0.5979(14) 0.3228(12) 0.0909(17)
C1 C 0.2479(16) 0.1987(14) 0.0690(2)
C2 C 0.4011(14) 0.2189(15) 0.0961(19)
C3 C 0.5122(15) 0.1272(14) 0.1590(2)
C4 C 0.6308(15) 0.1952(15) 0.1425(19)
C5 C 0.7764(15) 0.1355(14) 0.1776(18)
H1 H -0.0357 -0.0571 0.3322
H2 H 0.0622 -0.1736 0.2944
H3 H 0.4947 0.0085 0.1441
O1B O -0.1651(10) -0.2886(10) 0.0109(14)
O2B O -0.2112(11) -0.0879(11) -0.1280(15)
O3B O -0.8618(10) -0.1693(11) -0.0927(14)
O4B O -0.8016(11) -0.0371(10) -0.2913(14)
N1B N -0.4550(13) -0.3418(12) -0.0649(17)
N2B N -0.5979(14) -0.3228(12) -0.0909(17)
C1B C -0.2479(16) -0.1987(14) -0.0690(2)
C2B C -0.4011(14) -0.2189(15) -0.0961(19)
C3B C -0.5122(15) -0.1272(14) -0.1590(2)
C4B C -0.6308(15) -0.1952(15) -0.1425(19)
C5B C -0.7764(15) -0.1355(14) -0.1776(18)
H3B H -0.4947 -0.0085 -0.1441
O5B O -0.0450(10) 0.0783(10) -0.3066(12)
H1B H 0.0357 0.0571 -0.3322
H2B H -0.0622 0.1736 -0.2944
Cd2B Cd -0.2764(1) -0.4919(2) 0.0561(1)
O3_2 O -0.1382(10) 0.1693(11) 0.0927(14)
O3B_2 O 0.1382(10) -0.1693(11) -0.0927(14)
O2C O 0.2112(11) 0.4121(11) -0.3720(15)
O4A O 0.1984(11) 0.5371(10) 0.2087(14)
O5C O 0.0450(10) 0.5783(10) -0.1934(12)
N2B_2 N 0.4021(14) 0.6772(12) -0.0909(17)
Cd2C Cd 0.2764(1) 0.0081(2) 0.4439(1)
Cd1_2 Cd 1.0000 0.0000 0.0000
Cd2A Cd 0.7236(1) -0.0081(2) 0.5561(1)
Cd2B_2 Cd 0.7236(1) 0.5081(2) 0.0561(1)
Cd2A_2 Cd -0.2764(1) -0.0081(2) -0.4439(1)
Cd1_3 Cd -1.0000 0.0000 0.0000
Cd2C_2 Cd -0.7236(1) 0.0081(2) -0.5561(1)
Cd2_2 Cd -0.7236(1) -0.5081(2) -0.0561(1)
O2A O -0.2112(11) -0.4121(11) 0.3720(15)
O4C O -0.1984(11) -0.5371(10) -0.2087(14)
O5A O -0.0450(10) -0.5783(10) 0.1934(12)
N2_2 N -0.4021(14) -0.6772(12) 0.0909(17)
H1C H -0.0357 0.5571 -0.1678
H2C H 0.0622 0.6736 -0.2056
H1A H 0.0357 -0.5571 0.1678
H2A H -0.0622 -0.6736 0.2056
loop_
_geom_bond_atom_site_label_1
_geom_bond_atom_site_label_2
_geom_bond_site_symmetry_1
_geom_bond_site_symmetry_2
Cd1 O2 1_555 1_555
Cd2 O1 1_555 1_555
O1 C1 1_555 1_555
O2 C1 1_555 1_555
O3 C5 1_555 1_555
O4 C5 1_555 1_555
O5 Cd1 1_555 1_555
N1 Cd2 1_555 1_555
N2 N1 1_555 1_555
C1 C2 1_555 1_555
C2 N1 1_555 1_555
C3 C2 1_555 1_555
C4 N2 1_555 1_555
C5 C4 1_555 1_555
H1 O5 1_555 1_555
H2 O5 1_555 1_555
H3 C3 1_555 1_555
O1B C1B 1_555 1_555
O2B Cd1 1_555 1_555
O3B C5B 1_555 1_555
O4B C5B 1_555 1_555
N1B N2B 1_555 1_555
N2B C4B 1_555 1_555
C1B O2B 1_555 1_555
C2B N1B 1_555 1_555
C3B C2B 1_555 1_555
C4B C3B 1_555 1_555
C5B C4B 1_555 1_555
H3B C3B 1_555 1_555
O5B Cd1 1_555 1_555
H1B O5B 1_555 1_555
H2B O5B 1_555 1_555
Cd2B O1B 1_555 1_555
O3_2 Cd1 1_555 1_555
O3B_2 Cd1 1_555 1_555
O2C Cd2 1_555 1_555
O4A Cd2 1_555 1_555
O5C Cd2 1_555 1_555
N2B_2 Cd2 1_555 1_555
Cd2C O2 1_555 1_555
Cd1_2 O3 1_555 1_555
Cd2A O4 1_555 1_555
Cd2B_2 N2 1_555 1_555
Cd2A_2 O2B 1_555 1_555
Cd1_3 O3B 1_555 1_555
Cd2C_2 O4B 1_555 1_555
Cd2_2 N2B 1_555 1_555
O2A Cd2B 1_555 1_555
O4C Cd2B 1_555 1_555
O5A Cd2B 1_555 1_555
N2_2 Cd2B 1_555 1_555
H1C O5C 1_555 1_555
H2C O5C 1_555 1_555
H1A O5A 1_555 1_555
H2A O5A 1_555 1_555
O5 Cd2C 1_555 1_555
C3 C4 1_555 1_555
N1B Cd2B 1_555 1_555
C1B C2B 1_555 1_555
O5B Cd2A_2 1_555 1_555

#END
