
#######################################################################
#
#                 Cambridge Crystallographic Data Centre
#                                CCDC 
#
#######################################################################
#
# If this CIF has been generated from an entry in the Cambridge 
# Structural Database, then it will include bibliographic, chemical, 
# crystal, experimental, refinement or atomic coordinate data resulting 
# from the CCDC's data processing and validation procedures.
#
#######################################################################

data_RAPDER
_symmetry_cell_setting           monoclinic
_symmetry_space_group_name_H-M   'C 2/m'
_symmetry_Int_Tables_number      12
_space_group_name_Hall           '-C 2y'
loop_
_symmetry_equiv_pos_site_id
_symmetry_equiv_pos_as_xyz
1 x,y,z
2 -x,y,-z
3 1/2+x,1/2+y,z
4 1/2-x,1/2+y,-z
5 -x,-y,-z
6 x,-y,z
7 1/2-x,1/2-y,-z
8 1/2+x,1/2-y,z
_cell_length_a                   6.104(2)
_cell_length_b                   14.711(4)
_cell_length_c                   8.931(2)
_cell_angle_alpha                90
_cell_angle_beta                 95.24(2)
_cell_angle_gamma                90
_cell_volume                     798.616
loop_
_atom_site_label
_atom_site_type_symbol
_atom_site_fract_x
_atom_site_fract_y
_atom_site_fract_z
Fe1 Fe 0.5000 0.7015(1) 0.0000
N1 N 0.5977(3) 0.5808(1) 0.1403(2)
C1 C 0.6827(4) 0.5799(2) 0.2850(3)
C2 C 0.7247(7) 0.5000 0.3619(4)
C3 C 0.5537(6) 0.5000 0.0777(3)
N2 N 0.7156(4) 0.7879(2) 0.1338(3)
N3 N 0.6977(4) 0.8225(2) 0.2505(3)
N4 N 0.6868(7) 0.8555(3) 0.3665(4)
H1 H 0.714 0.635 0.335
H2 H 0.783 0.500 0.465
C1E C 0.6827(4) 0.4201(2) 0.2850(3)
N1E N 0.5977(3) 0.4192(1) 0.1403(2)
Fe1E Fe 0.5000 0.2985(1) 0.0000
N1D N 0.4023(3) 0.4192(1) -0.1403(2)
C1D C 0.3173(4) 0.4201(2) -0.2850(3)
C2D C 0.2753(7) 0.5000 -0.3619(4)
C1A C 0.3173(4) 0.5799(2) -0.2850(3)
N1A N 0.4023(3) 0.5808(1) -0.1403(2)
Fe1F Fe 1.0000 0.7985(1) 0.0000
N1F N 0.9023(3) 0.9192(1) -0.1403(2)
N1G N 1.0977(3) 0.9192(1) 0.1403(2)
N2F N 0.7844(4) 0.7121(2) -0.1338(3)
N2A N 0.2844(4) 0.7879(2) -0.1338(3)
Fe1G Fe 0.0000 0.7985(1) 0.0000
N2G N 0.2156(4) 0.7121(2) 0.1338(3)
N3G N 0.1977(4) 0.6775(2) 0.2505(3)
N4G N 0.1868(7) 0.6445(3) 0.3665(4)
N3A N 0.3023(4) 0.8225(2) -0.2505(3)
N4A N 0.3132(7) 0.8555(3) -0.3665(4)
N3F N 0.8023(4) 0.6775(2) -0.2505(3)
N4F N 0.8132(7) 0.6445(3) -0.3665(4)
N2G_2 N 1.2156(4) 0.7121(2) 0.1338(3)
N2A_2 N 1.2844(4) 0.7879(2) -0.1338(3)
C3A C 0.4463(6) 0.5000 -0.0777(3)
H1A H 0.286 0.635 -0.335
H2D H 0.217 0.500 -0.465
H1D H 0.286 0.365 -0.335
H1E H 0.714 0.365 0.335
loop_
_geom_bond_atom_site_label_1
_geom_bond_atom_site_label_2
_geom_bond_site_symmetry_1
_geom_bond_site_symmetry_2
Fe1 N1 1_555 1_555
N1 C1 1_555 1_555
C1 C2 1_555 1_555
C2 H2 1_555 1_555
C3 N1 1_555 1_555
N2 Fe1 1_555 1_555
N3 N2 1_555 1_555
N4 N3 1_555 1_555
H1 C1 1_555 1_555
C1E C2 1_555 1_555
N1E C3 1_555 1_555
Fe1E N1E 1_555 1_555
N1D Fe1E 1_555 1_555
C1D N1D 1_555 1_555
C2D C1D 1_555 1_555
C1A C2D 1_555 1_555
N1A Fe1 1_555 1_555
Fe1F N2 1_555 1_555
N1F Fe1F 1_555 1_555
N1G Fe1F 1_555 1_555
N2F Fe1 1_555 1_555
N2A Fe1 1_555 1_555
Fe1G N2A 1_555 1_555
N2G Fe1 1_555 1_555
N3G N2G 1_555 1_555
N4G N3G 1_555 1_555
N3A N2A 1_555 1_555
N4A N3A 1_555 1_555
N3F N2F 1_555 1_555
N4F N3F 1_555 1_555
N2G_2 Fe1F 1_555 1_555
N2A_2 Fe1F 1_555 1_555
C3A C3 1_555 1_555
H1A C1A 1_555 1_555
H2D C2D 1_555 1_555
H1D C1D 1_555 1_555
H1E C1E 1_555 1_555
C1E N1E 1_555 1_555
N1D C3A 1_555 1_555
C1A N1A 1_555 1_555
N1A C3A 1_555 1_555
Fe1F N2F 1_555 1_555
Fe1G N2G 1_555 1_555

#END
