
#######################################################################
#
#                 Cambridge Crystallographic Data Centre
#                                CCDC 
#
#######################################################################
#
# If this CIF has been generated from an entry in the Cambridge 
# Structural Database, then it will include bibliographic, chemical, 
# crystal, experimental, refinement or atomic coordinate data resulting 
# from the CCDC's data processing and validation procedures.
#
#######################################################################

data_RAPDAN
_symmetry_cell_setting           monoclinic
_symmetry_space_group_name_H-M   'C 2/m'
_symmetry_Int_Tables_number      12
_space_group_name_Hall           '-C 2y'
loop_
_symmetry_equiv_pos_site_id
_symmetry_equiv_pos_as_xyz
1 x,y,z
2 -x,y,-z
3 1/2+x,1/2+y,z
4 1/2-x,1/2+y,-z
5 -x,-y,-z
6 x,-y,z
7 1/2-x,1/2-y,-z
8 1/2+x,1/2-y,z
_cell_length_a                   5.978(2)
_cell_length_b                   14.591(3)
_cell_length_c                   8.971(2)
_cell_angle_alpha                90
_cell_angle_beta                 96.18(2)
_cell_angle_gamma                90
_cell_volume                     777.948
loop_
_atom_site_label
_atom_site_type_symbol
_atom_site_fract_x
_atom_site_fract_y
_atom_site_fract_z
Co1 Co 0.5000 0.6993(1) 0.0000
N1 N 0.5964(5) 0.5813(2) 0.1419(3)
C1 C 0.6805(7) 0.5806(3) 0.2864(4)
C2 C 0.7235(12) 0.5000 0.3640(7)
C3 C 0.5518(9) 0.5000 0.0790(6)
N2 N 0.7140(6) 0.7879(2) 0.1293(4)
N3 N 0.6987(7) 0.8205(3) 0.2493(5)
N4 N 0.6841(10) 0.8532(5) 0.3640(6)
H1 H 0.712 0.636 0.336
H2 H 0.782 0.500 0.467
C1E C 0.6805(7) 0.4194(3) 0.2864(4)
N1E N 0.5964(5) 0.4187(2) 0.1419(3)
Co1E Co 0.5000 0.3007(1) 0.0000
N1D N 0.4036(5) 0.4187(2) -0.1419(3)
C1D C 0.3195(7) 0.4194(3) -0.2864(4)
C2D C 0.2765(12) 0.5000 -0.3640(7)
C1A C 0.3195(7) 0.5806(3) -0.2864(4)
N1A N 0.4036(5) 0.5813(2) -0.1419(3)
Co1F Co 1.0000 0.8007(1) 0.0000
N1F N 0.9036(5) 0.9187(2) -0.1419(3)
N1G N 1.0964(5) 0.9187(2) 0.1419(3)
N2F N 0.7860(6) 0.7121(2) -0.1293(4)
N2A N 0.2860(6) 0.7879(2) -0.1293(4)
Co1G Co 0.0000 0.8007(1) 0.0000
N2G N 0.2140(6) 0.7121(2) 0.1293(4)
N3G N 0.1987(7) 0.6795(3) 0.2493(5)
N4G N 0.1841(10) 0.6468(5) 0.3640(6)
N3A N 0.3013(7) 0.8205(3) -0.2493(5)
N4A N 0.3159(10) 0.8532(5) -0.3640(6)
N3F N 0.8013(7) 0.6795(3) -0.2493(5)
N4F N 0.8159(10) 0.6468(5) -0.3640(6)
N2G_2 N 1.2140(6) 0.7121(2) 0.1293(4)
N2A_2 N 1.2860(6) 0.7879(2) -0.1293(4)
C3A C 0.4482(9) 0.5000 -0.0790(6)
H1A H 0.288 0.636 -0.336
H2D H 0.218 0.500 -0.467
H1D H 0.288 0.364 -0.336
H1E H 0.712 0.364 0.336
loop_
_geom_bond_atom_site_label_1
_geom_bond_atom_site_label_2
_geom_bond_site_symmetry_1
_geom_bond_site_symmetry_2
Co1 N1 1_555 1_555
N1 C1 1_555 1_555
C1 C2 1_555 1_555
C2 H2 1_555 1_555
C3 N1 1_555 1_555
N2 Co1 1_555 1_555
N3 N2 1_555 1_555
N4 N3 1_555 1_555
H1 C1 1_555 1_555
C1E C2 1_555 1_555
N1E C3 1_555 1_555
Co1E N1E 1_555 1_555
N1D Co1E 1_555 1_555
C1D N1D 1_555 1_555
C2D C1D 1_555 1_555
C1A C2D 1_555 1_555
N1A Co1 1_555 1_555
Co1F N2 1_555 1_555
N1F Co1F 1_555 1_555
N1G Co1F 1_555 1_555
N2F Co1 1_555 1_555
N2A Co1 1_555 1_555
Co1G N2A 1_555 1_555
N2G Co1 1_555 1_555
N3G N2G 1_555 1_555
N4G N3G 1_555 1_555
N3A N2A 1_555 1_555
N4A N3A 1_555 1_555
N3F N2F 1_555 1_555
N4F N3F 1_555 1_555
N2G_2 Co1F 1_555 1_555
N2A_2 Co1F 1_555 1_555
C3A C3 1_555 1_555
H1A C1A 1_555 1_555
H2D C2D 1_555 1_555
H1D C1D 1_555 1_555
H1E C1E 1_555 1_555
C1E N1E 1_555 1_555
N1D C3A 1_555 1_555
C1A N1A 1_555 1_555
N1A C3A 1_555 1_555
Co1F N2F 1_555 1_555
Co1G N2G 1_555 1_555

#END
