
#######################################################################
#
#                 Cambridge Crystallographic Data Centre
#                                CCDC 
#
#######################################################################
#
# If this CIF has been generated from an entry in the Cambridge 
# Structural Database, then it will include bibliographic, chemical, 
# crystal, experimental, refinement or atomic coordinate data resulting 
# from the CCDC's data processing and validation procedures.
#
#######################################################################

data_RAPJIC
_symmetry_cell_setting           monoclinic
_symmetry_space_group_name_H-M   'P 21/c'
_symmetry_Int_Tables_number      14
_space_group_name_Hall           '-P 2ybc'
loop_
_symmetry_equiv_pos_site_id
_symmetry_equiv_pos_as_xyz
1 x,y,z
2 -x,1/2+y,1/2-z
3 -x,-y,-z
4 x,1/2-y,1/2+z
_cell_length_a                   16.289(2)
_cell_length_b                   16.220(2)
_cell_length_c                   16.452(2)
_cell_angle_alpha                90
_cell_angle_beta                 94.981(2)
_cell_angle_gamma                90
_cell_volume                     4330.33
loop_
_atom_site_label
_atom_site_type_symbol
_atom_site_fract_x
_atom_site_fract_y
_atom_site_fract_z
Mn1 Mn 0.78469(2) 0.224340(10) 0.46029(2)
Mn2 Mn 0.743990(10) 0.557380(10) 0.508430(10)
Mn3 Mn 0.726290(10) -0.106330(10) 0.525120(10)
O1 O 0.72260(10) 0.32800(10) 0.40200(10)
O2 O 0.70180(10) 0.46120(10) 0.42500(10)
O3 O 0.84660(10) 0.32540(10) 0.52280(10)
O4 O 0.82970(10) 0.45950(10) 0.54390(10)
O5 O 0.65860(10) 0.65500(10) 0.47080(10)
O6 O 0.65610(10) 0.79210(10) 0.47440(10)
O7 O 0.78680(10) 0.65540(10) 0.58980(10)
O8 O 0.77820(10) 0.79210(10) 0.59700(10)
O9 O 0.68520(10) -0.00890(10) 0.44150(10)
O10 O 0.71150(10) 0.12160(10) 0.41220(10)
O11 O 0.80260(10) -0.00370(10) 0.56910(10)
O12 O 0.83450(10) 0.12380(10) 0.53440(10)
N1 N 0.68730(10) 0.23300(10) 0.55920(10)
N2 N 0.39160(10) 0.21530(10) 0.85130(10)
N3 N 0.87800(10) 0.19870(10) 0.36730(10)
N4 N 1.17030(10) 0.11370(10) 0.08310(10)
N5 N 0.65790(10) 0.50610(10) 0.60050(10)
N6 N 0.36800(10) 0.43230(10) 0.88860(10)
N7 N 0.82650(10) -0.12790(10) 0.43440(10)
N8 N 1.11390(10) -0.07600(10) 0.13930(10)
C1 C 0.60650(10) 0.22680(10) 0.53740(10)
C2 C 0.54680(10) 0.22440(10) 0.59210(10)
C3 C 0.57060(10) 0.22730(10) 0.67510(10)
C4 C 0.65410(10) 0.23380(10) 0.69810(10)
C5 C 0.70930(10) 0.23680(10) 0.63860(10)
C6 C 0.50860(10) 0.22340(10) 0.73620(10)
C7 C 0.52850(10) 0.19030(10) 0.81340(10)
C8 C 0.46790(10) 0.18760(10) 0.86780(10)
C9 C 0.37350(10) 0.24700(10) 0.77730(10)
C10 C 0.42870(10) 0.25210(10) 0.71810(10)
C11 C 0.85710(10) 0.16180(10) 0.29560(10)
C12 C 0.91260(10) 0.14560(10) 0.23870(10)
C13 C 0.99490(10) 0.16660(10) 0.25620(10)
C14 C 1.01730(10) 0.20330(10) 0.33110(10)
C15 C 0.95720(10) 0.21870(10) 0.38340(10)
C16 C 1.05680(10) 0.15030(10) 0.19650(10)
C17 C 1.03560(10) 0.15630(10) 0.11310(10)
C18 C 1.09400(10) 0.13880(10) 0.05970(10)
C19 C 1.19070(10) 0.10990(10) 0.16320(10)
C20 C 1.13700(10) 0.12780(10) 0.22140(10)
C21 C 0.58350(10) 0.47510(10) 0.57800(10)
C22 C 0.52490(10) 0.45880(10) 0.63180(10)
C23 C 0.54390(10) 0.47390(10) 0.71420(10)
C24 C 0.62220(10) 0.50280(10) 0.73870(10)
C25 C 0.67610(10) 0.51860(10) 0.68020(10)
C26 C 0.48290(10) 0.46010(10) 0.77480(10)
C27 C 0.50640(10) 0.42550(10) 0.85050(10)
C28 C 0.44740(10) 0.41220(10) 0.90430(10)
C29 C 0.34620(10) 0.46760(10) 0.81660(10)
C30 C 0.40050(10) 0.48220(10) 0.75820(10)
C31 C 0.80570(10) -0.14320(10) 0.35560(10)
C32 C 0.85920(10) -0.13480(10) 0.29560(10)
C33 C 0.93960(10) -0.10950(10) 0.31680(10)
C34 C 0.96240(10) -0.09620(10) 0.39940(10)
C35 C 0.90440(10) -0.10620(10) 0.45490(10)
C36 C 0.99950(10) -0.09740(10) 0.25510(10)
C37 C 1.08270(10) -0.11350(10) 0.27380(10)
C38 C 1.13630(10) -0.10250(10) 0.21420(10)
C39 C 1.03450(10) -0.05950(10) 0.12220(10)
C40 C 0.97500(10) -0.06910(10) 0.17710(10)
C41 C 0.73960(10) 0.39450(10) 0.43850(10)
C42 C 0.81210(10) 0.39350(10) 0.50750(10)
C43 C 0.68340(10) 0.72320(10) 0.49870(10)
C44 C 0.75550(10) 0.72350(10) 0.56820(10)
C45 C 0.72350(10) 0.05690(10) 0.45330(10)
C46 C 0.79300(10) 0.05920(10) 0.52580(10)
H1 H 0.5895 0.2238 0.4820
H2 H 0.4914 0.2208 0.5736
H3 H 0.6731 0.2362 0.7530
H4 H 0.7651 0.2416 0.6554
H5 H 0.5812 0.1705 0.8283
H6 H 0.4817 0.1648 0.9190
H7 H 0.3204 0.2668 0.7644
H8 H 0.4126 0.2744 0.6672
H9 H 0.8025 0.1462 0.2835
H10 H 0.8950 0.1209 0.1892
H11 H 1.0719 0.2174 0.3458
H12 H 0.9729 0.2444 0.4328
H13 H 0.9826 0.1719 0.0935
H14 H 1.0793 0.1449 0.0041
H15 H 1.2442 0.0944 0.1810
H16 H 1.1545 0.1246 0.2766
H17 H 0.5703 0.4639 0.5230
H18 H 0.4735 0.4380 0.6129
H19 H 0.6382 0.5114 0.7937
H20 H 0.7281 0.5391 0.6974
H21 H 0.5612 0.4116 0.8647
H22 H 0.4637 0.3877 0.9542
H23 H 0.2915 0.4833 0.8052
H24 H 0.3823 0.5063 0.7086
H25 H 0.7521 -0.1605 0.3403
H26 H 0.8416 -0.1460 0.2415
H27 H 1.0160 -0.0808 0.4169
H28 H 0.9206 -0.0972 0.5098
H29 H 1.1020 -0.1314 0.3257
H30 H 1.1917 -0.1145 0.2274
H31 H 1.0175 -0.0404 0.0701
H32 H 0.9201 -0.0568 0.1619
Mn2A Mn 1.256010(10) 0.057380(10) -0.008430(10)
Mn3_2 Mn 0.726290(10) 0.893670(10) 0.525120(10)
Mn3A Mn 0.273710(10) 0.393670(10) 0.974880(10)
O6_2 O 0.65610(10) -0.20790(10) 0.47440(10)
O8_2 O 0.77820(10) -0.20790(10) 0.59700(10)
N4A N 0.82970(10) 0.61370(10) 0.41690(10)
N6A N 0.63200(10) -0.06770(10) 0.61140(10)
loop_
_geom_bond_atom_site_label_1
_geom_bond_atom_site_label_2
_geom_bond_site_symmetry_1
_geom_bond_site_symmetry_2
Mn1 O1 1_555 1_555
Mn2 O2 1_555 1_555
Mn3 O9 1_555 1_555
O1 C41 1_555 1_555
O2 C41 1_555 1_555
O3 Mn1 1_555 1_555
O4 Mn2 1_555 1_555
O5 Mn2 1_555 1_555
O6 C43 1_555 1_555
O7 Mn2 1_555 1_555
O8 C44 1_555 1_555
O9 C45 1_555 1_555
O10 Mn1 1_555 1_555
O11 Mn3 1_555 1_555
O12 Mn1 1_555 1_555
N1 Mn1 1_555 1_555
N2 C8 1_555 1_555
N3 Mn1 1_555 1_555
N4 C18 1_555 1_555
N5 Mn2 1_555 1_555
N6 C28 1_555 1_555
N7 Mn3 1_555 1_555
N8 C38 1_555 1_555
C1 N1 1_555 1_555
C2 C1 1_555 1_555
C3 C2 1_555 1_555
C4 C3 1_555 1_555
C5 N1 1_555 1_555
C6 C3 1_555 1_555
C7 C6 1_555 1_555
C8 C7 1_555 1_555
C9 N2 1_555 1_555
C10 C6 1_555 1_555
C11 N3 1_555 1_555
C12 C11 1_555 1_555
C13 C12 1_555 1_555
C14 C13 1_555 1_555
C15 N3 1_555 1_555
C16 C13 1_555 1_555
C17 C16 1_555 1_555
C18 C17 1_555 1_555
C19 N4 1_555 1_555
C20 C16 1_555 1_555
C21 N5 1_555 1_555
C22 C21 1_555 1_555
C23 C22 1_555 1_555
C24 C23 1_555 1_555
C25 N5 1_555 1_555
C26 C23 1_555 1_555
C27 C26 1_555 1_555
C28 C27 1_555 1_555
C29 N6 1_555 1_555
C30 C26 1_555 1_555
C31 N7 1_555 1_555
C32 C31 1_555 1_555
C33 C32 1_555 1_555
C34 C33 1_555 1_555
C35 N7 1_555 1_555
C36 C33 1_555 1_555
C37 C36 1_555 1_555
C38 C37 1_555 1_555
C39 N8 1_555 1_555
C40 C36 1_555 1_555
C41 C42 1_555 1_555
C42 O3 1_555 1_555
C43 O5 1_555 1_555
C44 O7 1_555 1_555
C45 O10 1_555 1_555
C46 O11 1_555 1_555
H1 C1 1_555 1_555
H2 C2 1_555 1_555
H3 C4 1_555 1_555
H4 C5 1_555 1_555
H5 C7 1_555 1_555
H6 C8 1_555 1_555
H7 C9 1_555 1_555
H8 C10 1_555 1_555
H9 C11 1_555 1_555
H10 C12 1_555 1_555
H11 C14 1_555 1_555
H12 C15 1_555 1_555
H13 C17 1_555 1_555
H14 C18 1_555 1_555
H15 C19 1_555 1_555
H16 C20 1_555 1_555
H17 C21 1_555 1_555
H18 C22 1_555 1_555
H19 C24 1_555 1_555
H20 C25 1_555 1_555
H21 C27 1_555 1_555
H22 C28 1_555 1_555
H23 C29 1_555 1_555
H24 C30 1_555 1_555
H25 C31 1_555 1_555
H26 C32 1_555 1_555
H27 C34 1_555 1_555
H28 C35 1_555 1_555
H29 C37 1_555 1_555
H30 C38 1_555 1_555
H31 C39 1_555 1_555
H32 C40 1_555 1_555
Mn2A N4 1_555 1_555
Mn3_2 O6 1_555 1_555
Mn3A N6 1_555 1_555
O6_2 Mn3 1_555 1_555
O8_2 Mn3 1_555 1_555
N4A Mn2 1_555 1_555
N6A Mn3 1_555 1_555
O4 C42 1_555 1_555
O8 Mn3_2 1_555 1_555
O12 C46 1_555 1_555
C4 C5 1_555 1_555
C9 C10 1_555 1_555
C14 C15 1_555 1_555
C19 C20 1_555 1_555
C24 C25 1_555 1_555
C29 C30 1_555 1_555
C34 C35 1_555 1_555
C39 C40 1_555 1_555
C43 C44 1_555 1_555
C45 C46 1_555 1_555

#END
