
#######################################################################
#
#                 Cambridge Crystallographic Data Centre
#                                CCDC 
#
#######################################################################
#
# If this CIF has been generated from an entry in the Cambridge 
# Structural Database, then it will include bibliographic, chemical, 
# crystal, experimental, refinement or atomic coordinate data resulting 
# from the CCDC's data processing and validation procedures.
#
#######################################################################

data_RAPWEL
_symmetry_cell_setting           monoclinic
_symmetry_space_group_name_H-M   'P 21/n'
_symmetry_Int_Tables_number      14
_space_group_name_Hall           '-P 2yn'
loop_
_symmetry_equiv_pos_site_id
_symmetry_equiv_pos_as_xyz
1 x,y,z
2 1/2-x,1/2+y,1/2-z
3 -x,-y,-z
4 1/2+x,1/2-y,1/2+z
_cell_length_a                   11.419(3)
_cell_length_b                   10.290(2)
_cell_length_c                   15.695(5)
_cell_angle_alpha                90
_cell_angle_beta                 96.052(5)
_cell_angle_gamma                90
_cell_volume                     1833.91
loop_
_atom_site_label
_atom_site_type_symbol
_atom_site_fract_x
_atom_site_fract_y
_atom_site_fract_z
Co1 Co -0.25542(5) 0.23912(5) 0.31414(4)
O1 O -0.2869(3) 0.1465(3) 0.19947(19)
O2 O -0.2497(3) -0.0605(3) 0.23708(18)
O3 O -0.2513(3) -0.3881(3) 0.0786(2)
O4 O -0.2516(4) -0.3921(3) -0.0641(2)
N1 N -0.2791(3) -0.1402(3) 0.0808(2)
N2 N -0.4456(3) 0.2440(4) 0.3111(3)
N3 N -1.0687(3) 0.2205(4) 0.3033(2)
C1 C -0.2760(4) 0.0275(4) 0.1837(3)
C2 C -0.2995(4) -0.0145(4) 0.0908(3)
C3 C -0.3373(6) 0.0644(5) 0.0226(3)
H1 H -0.3515 0.1524 0.0303
C4 C -0.3537(7) 0.0075(6) -0.0589(4)
H2 H -0.3824 0.0568 -0.1062
C5 C -0.3268(7) -0.1226(5) -0.0686(4)
H3 H -0.3329 -0.1608 -0.1226
C6 C -0.2910(4) -0.1936(5) 0.0032(3)
C7 C -0.2623(4) -0.3377(4) 0.0044(3)
C8 C -1.0186(4) 0.2738(5) 0.2380(3)
H4 H -1.0675 0.3106 0.1933
C9 C -0.8979(4) 0.2770(5) 0.2334(3)
H5 H -0.8677 0.3149 0.1866
C10 C -0.9951(4) 0.1641(4) 0.3648(3)
H6 H -1.0276 0.1235 0.4098
C11 C -0.8752(4) 0.1629(4) 0.3653(3)
H7 H -0.8287 0.1220 0.4096
C12 C -0.8227(4) 0.2231(4) 0.2992(3)
C13 C -0.6923(4) 0.2304(4) 0.3017(3)
C14 C -0.6359(4) 0.3323(5) 0.2656(3)
H8 H -0.6794 0.3981 0.2367
C15 C -0.5138(4) 0.3354(5) 0.2730(3)
H9 H -0.4776 0.4062 0.2498
C16 C -0.6217(4) 0.1343(5) 0.3423(4)
H10 H -0.6550 0.0635 0.3676
C17 C -0.5001(4) 0.1459(5) 0.3444(4)
H11 H -0.4540 0.0801 0.3711
Co1A Co -0.24458(5) -0.26088(5) 0.18586(4)
Co1_2 Co -1.25542(5) 0.23912(5) 0.31414(4)
O2A O -0.2503(3) 0.4395(3) 0.26292(18)
O3A O -0.2487(3) 0.1119(3) 0.4214(2)
N1A N -0.2209(3) 0.3598(3) 0.4192(2)
N3_2 N -0.0687(3) 0.2205(4) 0.3033(2)
C18 C -0.1247(10) 0.8701(14) 0.4227(10)
O5 O -0.220(2) 0.8536(10) 0.4297(7)
loop_
_geom_bond_atom_site_label_1
_geom_bond_atom_site_label_2
_geom_bond_site_symmetry_1
_geom_bond_site_symmetry_2
Co1 O1 1_555 1_555
O1 C1 1_555 1_555
O2 C1 1_555 1_555
O3 C7 1_555 1_555
O4 C7 1_555 1_555
N1 C2 1_555 1_555
N2 Co1 1_555 1_555
N3 C8 1_555 1_555
C1 C2 1_555 1_555
C2 C3 1_555 1_555
C3 H1 1_555 1_555
C4 C3 1_555 1_555
H2 C4 1_555 1_555
C5 C4 1_555 1_555
H3 C5 1_555 1_555
C6 N1 1_555 1_555
C7 C6 1_555 1_555
C8 H4 1_555 1_555
C9 C8 1_555 1_555
H5 C9 1_555 1_555
C10 N3 1_555 1_555
H6 C10 1_555 1_555
C11 C10 1_555 1_555
H7 C11 1_555 1_555
C12 C9 1_555 1_555
C13 C12 1_555 1_555
C14 C13 1_555 1_555
H8 C14 1_555 1_555
C15 N2 1_555 1_555
H9 C15 1_555 1_555
C16 C13 1_555 1_555
H10 C16 1_555 1_555
C17 N2 1_555 1_555
H11 C17 1_555 1_555
C18 O5 1_555 1_555
Co1A O2 1_555 1_555
Co1_2 N3 1_555 1_555
O2A Co1 1_555 1_555
O3A Co1 1_555 1_555
N1A Co1 1_555 1_555
N3_2 Co1 1_555 1_555
O3 Co1A 1_555 1_555
N1 Co1A 1_555 1_555
C5 C6 1_555 1_555
C11 C12 1_555 1_555
C14 C15 1_555 1_555
C16 C17 1_555 1_555

#END
