
#######################################################################
#
#                 Cambridge Crystallographic Data Centre
#                                CCDC 
#
#######################################################################
#
# If this CIF has been generated from an entry in the Cambridge 
# Structural Database, then it will include bibliographic, chemical, 
# crystal, experimental, refinement or atomic coordinate data resulting 
# from the CCDC's data processing and validation procedures.
#
#######################################################################

data_RAPXOX
_symmetry_cell_setting           orthorhombic
_symmetry_space_group_name_H-M   'P c c n'
_symmetry_Int_Tables_number      56
_space_group_name_Hall           '-P 2ab 2ac'
loop_
_symmetry_equiv_pos_site_id
_symmetry_equiv_pos_as_xyz
1 x,y,z
2 1/2+x,-y,1/2-z
3 -x,1/2+y,1/2-z
4 1/2-x,1/2-y,z
5 -x,-y,-z
6 1/2-x,y,1/2+z
7 x,1/2-y,1/2+z
8 1/2+x,1/2+y,-z
_cell_length_a                   25.91916(65)
_cell_length_b                   8.63028(30)
_cell_length_c                   7.67202(33)
_cell_angle_alpha                90
_cell_angle_beta                 90
_cell_angle_gamma                90
_cell_volume                     1716.15
loop_
_atom_site_label
_atom_site_type_symbol
_atom_site_fract_x
_atom_site_fract_y
_atom_site_fract_z
Cd1 Cd 0.75000 0.75000 0.45335(32)
C1 C 0.959190 1.068040 0.589690
C2 C 0.951680 0.96927 0.448850
H1 H 0.917810 0.950700 0.406320
C3 C 1.008740 1.095210 0.651920
H2 H 1.013880 1.162710 0.748180
C4 C 0.913240 1.146320 0.675660
H3 H 0.903230 1.233990 0.608840
H4 H 0.922440 1.178590 0.789890
C5 C 0.868500 1.032820 0.685890
C6 C 0.830520 1.015510 0.565130
N1 N 0.797970 0.902730 0.622010
N2 N 0.815830 0.850340 0.777930
C7 C 0.859420 0.930740 0.817400
C8 C 0.82536 1.106280 0.396240
H5 H 0.799400 1.183140 0.409070
H6 H 0.816140 1.037820 0.304410
H7 H 0.857310 1.154680 0.369530
C9 C 0.892230 0.910120 0.979970
H8 H 0.907390 0.809900 0.979340
H9 H 0.871180 0.921150 1.080590
H10 H 0.918650 0.986400 0.981730
Cd1E Cd 0.75000 0.75000 0.95335(32)
Cd1G Cd 1.25000 1.25000 0.54665(32)
Cd1A Cd 1.25000 1.25000 0.04665(32)
C1D C 1.040810 0.931960 0.410310
C2D C 1.048320 1.03073 0.551150
H1D H 1.082190 1.049300 0.593680
C3D C 0.991260 0.904790 0.348080
H2D H 0.986120 0.837290 0.251820
C4D C 1.086760 0.853680 0.324340
H3D H 1.096770 0.766010 0.391160
H4D H 1.077560 0.821410 0.210110
C5D C 1.131500 0.967180 0.314110
C6D C 1.169480 0.984490 0.434870
N1D N 1.202030 1.097270 0.377990
N1C N 0.702030 0.597270 0.622010
N2D N 1.184170 1.149660 0.222070
N2F N 0.815830 0.649660 0.277930
N2E N 0.684170 0.850340 0.277930
C7D C 1.140580 1.069260 0.182600
C8D C 1.17464 0.893720 0.603760
H5D H 1.200600 0.816860 0.590930
H6D H 1.183860 0.962180 0.695590
H7D H 1.142690 0.845320 0.630470
C9D C 1.107770 1.089880 0.020030
H8D H 1.092610 1.190100 0.020660
H9D H 1.128820 1.078850 -0.080590
H10D H 1.081350 1.013600 0.018270
loop_
_geom_bond_atom_site_label_1
_geom_bond_atom_site_label_2
_geom_bond_site_symmetry_1
_geom_bond_site_symmetry_2
Cd1 N1 1_555 1_555
C1 C2 1_555 1_555
C2 H1 1_555 1_555
C3 C1 1_555 1_555
H2 C3 1_555 1_555
C4 C1 1_555 1_555
H3 C4 1_555 1_555
H4 C4 1_555 1_555
C5 C4 1_555 1_555
C6 C5 1_555 1_555
N1 C6 1_555 1_555
N2 N1 1_555 1_555
C7 C5 1_555 1_555
C8 C6 1_555 1_555
H5 C8 1_555 1_555
H6 C8 1_555 1_555
H7 C8 1_555 1_555
C9 C7 1_555 1_555
H8 C9 1_555 1_555
H9 C9 1_555 1_555
H10 C9 1_555 1_555
Cd1E N2 1_555 1_555
Cd1G N1D 1_555 1_555
Cd1A N2D 1_555 1_555
C1D C2D 1_555 1_555
C2D C3 1_555 1_555
H1D C2D 1_555 1_555
C3D C2 1_555 1_555
H2D C3D 1_555 1_555
C4D C1D 1_555 1_555
H3D C4D 1_555 1_555
H4D C4D 1_555 1_555
C5D C4D 1_555 1_555
C6D C5D 1_555 1_555
N1D C6D 1_555 1_555
N1C Cd1 1_555 1_555
N2D N1D 1_555 1_555
N2F Cd1 1_555 1_555
N2E Cd1 1_555 1_555
C7D C5D 1_555 1_555
C8D C6D 1_555 1_555
H5D C8D 1_555 1_555
H6D C8D 1_555 1_555
H7D C8D 1_555 1_555
C9D C7D 1_555 1_555
H8D C9D 1_555 1_555
H9D C9D 1_555 1_555
H10D C9D 1_555 1_555
N2 C7 1_555 1_555
C1D C3D 1_555 1_555
N2D C7D 1_555 1_555

#END
