
#######################################################################
#
#                 Cambridge Crystallographic Data Centre
#                                CCDC 
#
#######################################################################
#
# If this CIF has been generated from an entry in the Cambridge 
# Structural Database, then it will include bibliographic, chemical, 
# crystal, experimental, refinement or atomic coordinate data resulting 
# from the CCDC's data processing and validation procedures.
#
#######################################################################

data_RAPXIR
_symmetry_cell_setting           orthorhombic
_symmetry_space_group_name_H-M   'P c c n'
_symmetry_Int_Tables_number      56
_space_group_name_Hall           '-P 2ab 2ac'
loop_
_symmetry_equiv_pos_site_id
_symmetry_equiv_pos_as_xyz
1 x,y,z
2 1/2+x,-y,1/2-z
3 -x,1/2+y,1/2-z
4 1/2-x,1/2-y,z
5 -x,-y,-z
6 1/2-x,y,1/2+z
7 x,1/2-y,1/2+z
8 1/2+x,1/2+y,-z
_cell_length_a                   25.2965(37)
_cell_length_b                   8.81507(92)
_cell_length_c                   7.3272(11)
_cell_angle_alpha                90
_cell_angle_beta                 90
_cell_angle_gamma                90
_cell_volume                     1633.9
loop_
_atom_site_label
_atom_site_type_symbol
_atom_site_fract_x
_atom_site_fract_y
_atom_site_fract_z
Co1 Co 0.75000 0.75000 0.4299(18)
C1 C 0.956850 1.068320 0.584020
C2 C 0.948340 0.955140 0.455240
H1 H 0.913360 0.923090 0.428060
C3 C 1.008030 1.115210 0.623790
H2 H 1.013850 1.192560 0.711800
C4 C 0.910190 1.140810 0.681350
H3 H 0.901560 1.234120 0.623700
H4 H 0.919190 1.159130 0.805280
C5 C 0.862860 1.034810 0.672750
C6 C 0.825830 1.030970 0.538260
N1 N 0.790200 0.920940 0.580600
N2 N 0.805200 0.856790 0.741260
C7 C 0.850110 0.927160 0.798210
C8 C 0.824510 1.131920 0.370140
H5 H 0.789590 1.168500 0.351800
H6 H 0.835310 1.075170 0.266410
H7 H 0.847810 1.215270 0.387000
C9 C 0.880680 0.891720 0.971640
H8 H 0.866410 0.803410 1.027270
H9 H 0.877970 0.974810 1.053680
H10 H 0.916790 0.874770 0.942510
Co1E Co 0.75000 0.75000 0.9299(18)
Co1G Co 1.25000 1.25000 0.5701(18)
Co1A Co 1.25000 1.25000 0.0701(18)
C1D C 1.043150 0.931680 0.415980
C2D C 1.051660 1.044860 0.544760
H1D H 1.086640 1.076910 0.571940
C3D C 0.991970 0.884790 0.376210
H2D H 0.986150 0.807440 0.288200
C4D C 1.089810 0.859190 0.318650
H3D H 1.098440 0.765880 0.376300
H4D H 1.080810 0.840870 0.194720
C5D C 1.137140 0.965190 0.327250
C6D C 1.174170 0.969030 0.461740
N1D N 1.209800 1.079060 0.419400
N1C N 0.709800 0.579060 0.580600
N2D N 1.194800 1.143210 0.258740
N2F N 0.805200 0.643210 0.241260
N2E N 0.694800 0.856790 0.241260
C7D C 1.149890 1.072840 0.201790
C8D C 1.175490 0.868080 0.629860
H5D H 1.210410 0.831500 0.648200
H6D H 1.164690 0.924830 0.733590
H7D H 1.152190 0.784730 0.613000
C9D C 1.119320 1.108280 0.028360
H8D H 1.133590 1.196590 -0.027270
H9D H 1.122030 1.025190 -0.053680
H10D H 1.083210 1.125230 0.057490
loop_
_geom_bond_atom_site_label_1
_geom_bond_atom_site_label_2
_geom_bond_site_symmetry_1
_geom_bond_site_symmetry_2
Co1 N1 1_555 1_555
C1 C2 1_555 1_555
C2 H1 1_555 1_555
C3 C1 1_555 1_555
H2 C3 1_555 1_555
C4 C1 1_555 1_555
H3 C4 1_555 1_555
H4 C4 1_555 1_555
C5 C4 1_555 1_555
C6 C5 1_555 1_555
N1 C6 1_555 1_555
N2 N1 1_555 1_555
C7 C5 1_555 1_555
C8 C6 1_555 1_555
H5 C8 1_555 1_555
H6 C8 1_555 1_555
H7 C8 1_555 1_555
C9 C7 1_555 1_555
H8 C9 1_555 1_555
H9 C9 1_555 1_555
H10 C9 1_555 1_555
Co1E N2 1_555 1_555
Co1G N1D 1_555 1_555
Co1A N2D 1_555 1_555
C1D C2D 1_555 1_555
C2D C3 1_555 1_555
H1D C2D 1_555 1_555
C3D C2 1_555 1_555
H2D C3D 1_555 1_555
C4D C1D 1_555 1_555
H3D C4D 1_555 1_555
H4D C4D 1_555 1_555
C5D C4D 1_555 1_555
C6D C5D 1_555 1_555
N1D C6D 1_555 1_555
N1C Co1 1_555 1_555
N2D N1D 1_555 1_555
N2F Co1 1_555 1_555
N2E Co1 1_555 1_555
C7D C5D 1_555 1_555
C8D C6D 1_555 1_555
H5D C8D 1_555 1_555
H6D C8D 1_555 1_555
H7D C8D 1_555 1_555
C9D C7D 1_555 1_555
H8D C9D 1_555 1_555
H9D C9D 1_555 1_555
H10D C9D 1_555 1_555
N2 C7 1_555 1_555
C1D C3D 1_555 1_555
N2D C7D 1_555 1_555

#END
