
#######################################################################
#
#                 Cambridge Crystallographic Data Centre
#                                CCDC 
#
#######################################################################
#
# If this CIF has been generated from an entry in the Cambridge 
# Structural Database, then it will include bibliographic, chemical, 
# crystal, experimental, refinement or atomic coordinate data resulting 
# from the CCDC's data processing and validation procedures.
#
#######################################################################

data_RAQBEQ
_symmetry_cell_setting           monoclinic
_symmetry_space_group_name_H-M   'C 2/c'
_symmetry_Int_Tables_number      15
_space_group_name_Hall           '-C 2yn'
loop_
_symmetry_equiv_pos_site_id
_symmetry_equiv_pos_as_xyz
1 x,y,z
2 -x,y,1/2-z
3 1/2+x,1/2+y,z
4 1/2-x,1/2+y,1/2-z
5 -x,-y,-z
6 x,-y,1/2+z
7 1/2-x,1/2-y,-z
8 1/2+x,1/2-y,1/2+z
_cell_length_a                   13.076(4)
_cell_length_b                   7.586(2)
_cell_length_c                   13.248(4)
_cell_angle_alpha                90
_cell_angle_beta                 117.88(2)
_cell_angle_gamma                90
_cell_volume                     1161.6
loop_
_atom_site_label
_atom_site_type_symbol
_atom_site_fract_x
_atom_site_fract_y
_atom_site_fract_z
Pb1 Pb 0.00000 0.16978(3) 0.2500
N1 N -0.0243(5) 0.2233(6) 0.4333(4)
C1 C -0.0518(5) 0.0584(8) 0.4731(6)
C2 C 0.0552(6) 0.5969(8) 0.3101(6)
N2 N 0.1203(4) 0.4351(9) 0.3231(4)
Br1 Br 0.26738(6) 0.04972(9) 0.37090(6)
H1 H 0.0450 0.2710 0.4911
H2 H -0.0862 0.3041 0.4149
H3 H -0.0763 0.0844 0.5284
H4 H -0.1108 -0.0022 0.4107
H5 H 0.0325 0.5998 0.3691
H6 H 0.1027 0.6934 0.3174
H7 H 0.1707 0.4184 0.4022
H8 H 0.1634 0.4500 0.2833
C1D C 0.0518(5) -0.0584(8) 0.5269(6)
N1D N 0.0243(5) -0.2233(6) 0.5667(4)
Pb1D Pb 0.00000 -0.16978(3) 0.7500
H1D H -0.0450 -0.2710 0.5089
H2D H 0.0862 -0.3041 0.5851
H3D H 0.0763 -0.0844 0.4716
H4D H 0.1108 0.0022 0.5893
N1A N 0.0243(5) 0.2233(6) 0.0667(4)
H1A H -0.0450 0.2710 0.0089
H2A H 0.0862 0.3041 0.0851
N2A N -0.1203(4) 0.4351(9) 0.1769(4)
C2A C -0.0552(6) 0.5969(8) 0.1899(6)
H7A H -0.1707 0.4184 0.0978
H8A H -0.1634 0.4500 0.2167
Br1A Br -0.26738(6) 0.04972(9) 0.12910(6)
H5A H -0.0325 0.5998 0.1309
H6A H -0.1027 0.6934 0.1826
loop_
_geom_bond_atom_site_label_1
_geom_bond_atom_site_label_2
_geom_bond_site_symmetry_1
_geom_bond_site_symmetry_2
Pb1 N1 1_555 1_555
N1 C1 1_555 1_555
C1 H3 1_555 1_555
C2 N2 1_555 1_555
N2 Pb1 1_555 1_555
Br1 Pb1 1_555 1_555
H1 N1 1_555 1_555
H2 N1 1_555 1_555
H4 C1 1_555 1_555
H5 C2 1_555 1_555
H6 C2 1_555 1_555
H7 N2 1_555 1_555
H8 N2 1_555 1_555
C1D C1 1_555 1_555
N1D C1D 1_555 1_555
Pb1D N1D 1_555 1_555
H1D N1D 1_555 1_555
H2D N1D 1_555 1_555
H3D C1D 1_555 1_555
H4D C1D 1_555 1_555
N1A Pb1 1_555 1_555
H1A N1A 1_555 1_555
H2A N1A 1_555 1_555
N2A Pb1 1_555 1_555
C2A C2 1_555 1_555
H7A N2A 1_555 1_555
H8A N2A 1_555 1_555
Br1A Pb1 1_555 1_555
H5A C2A 1_555 1_555
H6A C2A 1_555 1_555
N2A C2A 1_555 1_555

#END
