
#######################################################################
#
#                 Cambridge Crystallographic Data Centre
#                                CCDC 
#
#######################################################################
#
# If this CIF has been generated from an entry in the Cambridge 
# Structural Database, then it will include bibliographic, chemical, 
# crystal, experimental, refinement or atomic coordinate data resulting 
# from the CCDC's data processing and validation procedures.
#
#######################################################################

data_RAQFIZ
_symmetry_cell_setting           monoclinic
_symmetry_space_group_name_H-M   'P 21/c'
_symmetry_Int_Tables_number      14
_space_group_name_Hall           '-P 2ybc'
loop_
_symmetry_equiv_pos_site_id
_symmetry_equiv_pos_as_xyz
1 x,y,z
2 -x,1/2+y,1/2-z
3 -x,-y,-z
4 x,1/2-y,1/2+z
_cell_length_a                   8.9212(2)
_cell_length_b                   19.5995(4)
_cell_length_c                   11.4980(2)
_cell_angle_alpha                90.00
_cell_angle_beta                 101.5552(7)
_cell_angle_gamma                90.00
_cell_volume                     1969.69
loop_
_atom_site_label
_atom_site_type_symbol
_atom_site_fract_x
_atom_site_fract_y
_atom_site_fract_z
Au1 Au 0.213700(19) 0.111055(8) 0.173221(15)
Cu1 Cu 0.21668(7) 0.24267(3) 0.27310(5)
C1 C 0.0130(5) 0.1453(2) 0.2148(4)
C2 C -0.0949(5) 0.1825(2) 0.1381(4)
C3 C -0.2270(5) 0.2071(2) 0.1667(4)
C4 C -0.2566(5) 0.1947(2) 0.2783(4)
C5 C -0.1570(6) 0.1563(2) 0.3565(4)
C6 C -0.0259(5) 0.1324(2) 0.3243(4)
F1 F -0.0730(3) 0.19750(15) 0.0277(2)
F2 F -0.3291(3) 0.24403(15) 0.0886(3)
F3 F -0.3856(3) 0.21937(16) 0.3075(3)
F4 F -0.1867(4) 0.14146(17) 0.4646(3)
F5 F 0.0701(3) 0.09436(15) 0.4067(2)
C7 C 0.4173(5) 0.0791(2) 0.1362(4)
C8 C 0.5237(5) 0.0405(2) 0.2141(4)
C9 C 0.6624(5) 0.0195(2) 0.1923(4)
C10 C 0.7045(5) 0.0379(2) 0.0876(4)
C11 C 0.6055(5) 0.0770(2) 0.0077(4)
C12 C 0.4667(5) 0.0959(2) 0.0330(4)
F6 F 0.4893(3) 0.02023(14) 0.3196(2)
F7 F 0.7585(3) -0.01866(15) 0.2727(3)
F8 F 0.8385(3) 0.01755(15) 0.0640(3)
F9 F 0.6454(3) 0.09574(15) -0.0952(3)
F10 F 0.3732(3) 0.13229(14) -0.0532(2)
N1 N 0.3077(4) 0.20911(18) 0.4349(3)
C13 C 0.4032(5) 0.1555(2) 0.4579(4)
H1 H 0.4382 0.1349 0.3955
C14 C 0.4506(6) 0.1303(2) 0.5706(4)
H2 H 0.5153 0.0928 0.5854
C15 C 0.3985(5) 0.1629(2) 0.6611(4)
H3 H 0.4289 0.1467 0.7382
N2 N 0.3053(4) 0.21725(19) 0.6414(3)
C16 C 0.2632(5) 0.2374(2) 0.5287(4)
H4 H 0.1971 0.2745 0.5139
N3 N 0.0578(5) 0.3171(2) 0.2808(4)
C17 C -0.0123(6) 0.3660(3) 0.2669(4)
C18 C -0.1022(6) 0.4290(3) 0.2469(5)
H5 H -0.0644 0.4571 0.1908
H6 H -0.0936 0.4532 0.3206
H7 H -0.2076 0.4180 0.2163
Cu1C Cu 0.21668(7) 0.25733(3) 0.77310(5)
N2C N 0.3053(4) 0.28275(19) 0.1414(3)
loop_
_geom_bond_atom_site_label_1
_geom_bond_atom_site_label_2
_geom_bond_site_symmetry_1
_geom_bond_site_symmetry_2
Au1 Cu1 1_555 1_555
Cu1 N1 1_555 1_555
C1 Au1 1_555 1_555
C2 C1 1_555 1_555
C3 C2 1_555 1_555
C4 C3 1_555 1_555
C5 C4 1_555 1_555
C6 C1 1_555 1_555
F1 C2 1_555 1_555
F2 C3 1_555 1_555
F3 C4 1_555 1_555
F4 C5 1_555 1_555
F5 C6 1_555 1_555
C7 Au1 1_555 1_555
C8 C7 1_555 1_555
C9 C8 1_555 1_555
C10 C9 1_555 1_555
C11 C10 1_555 1_555
C12 C7 1_555 1_555
F6 C8 1_555 1_555
F7 C9 1_555 1_555
F8 C10 1_555 1_555
F9 C11 1_555 1_555
F10 C12 1_555 1_555
N1 C13 1_555 1_555
C13 H1 1_555 1_555
C14 C13 1_555 1_555
H2 C14 1_555 1_555
C15 C14 1_555 1_555
H3 C15 1_555 1_555
N2 C15 1_555 1_555
C16 N1 1_555 1_555
H4 C16 1_555 1_555
N3 Cu1 1_555 1_555
C17 N3 1_555 1_555
C18 C17 1_555 1_555
H5 C18 1_555 1_555
H6 C18 1_555 1_555
H7 C18 1_555 1_555
Cu1C N2 1_555 1_555
N2C Cu1 1_555 1_555
C5 C6 1_555 1_555
C11 C12 1_555 1_555
N2 C16 1_555 1_555

#END
