
#######################################################################
#
#                 Cambridge Crystallographic Data Centre
#                                CCDC 
#
#######################################################################
#
# If this CIF has been generated from an entry in the Cambridge 
# Structural Database, then it will include bibliographic, chemical, 
# crystal, experimental, refinement or atomic coordinate data resulting 
# from the CCDC's data processing and validation procedures.
#
#######################################################################

data_RAQGOF01
_symmetry_cell_setting           monoclinic
_symmetry_space_group_name_H-M   'P 21/c'
_symmetry_Int_Tables_number      14
_space_group_name_Hall           '-P 2ybc'
loop_
_symmetry_equiv_pos_site_id
_symmetry_equiv_pos_as_xyz
1 x,y,z
2 -x,1/2+y,1/2-z
3 -x,-y,-z
4 x,1/2-y,1/2+z
_cell_length_a                   7.1674(19)
_cell_length_b                   9.977(3)
_cell_length_c                   21.045(6)
_cell_angle_alpha                90
_cell_angle_beta                 99.592(4)
_cell_angle_gamma                90
_cell_volume                     1483.87
loop_
_atom_site_label
_atom_site_type_symbol
_atom_site_fract_x
_atom_site_fract_y
_atom_site_fract_z
Pb1 Pb 0.33204(5) 0.88575(4) 0.230989(17)
O1 O 0.6843(11) 0.9487(9) 0.2037(4)
O2 O 0.7968(14) 1.1461(10) 0.1964(5)
O3 O 0.6111(14) 1.1045(8) 0.2651(4)
O4 O 0.1391(13) 1.0455(10) 0.3007(4)
O5 O 0.3456(15) 0.9442(11) 0.3700(4)
O6 O 0.1310(19) 1.0663(13) 0.4018(5)
O7 O 0.0103(11) 0.8174(8) 0.1841(4)
H1 H -0.0186 0.8053 0.1437
H2 H -0.0723 0.8055 0.2083
N1 N 0.2617(13) 1.0796(10) 0.1553(4)
N2 N 0.3369(12) 0.8267(9) 0.1131(4)
N3 N 0.6998(13) 1.0680(11) 0.2216(4)
N4 N 0.2078(16) 1.0195(10) 0.3580(5)
C1 C 0.2262(16) 1.2013(11) 0.1757(5)
H3 H 0.2279 1.2131 0.2197
C2 C 0.1868(17) 1.3120(12) 0.1359(6)
H4 H 0.1655 1.3961 0.1524
C3 C 0.1806(17) 1.2918(13) 0.0710(6)
H5 H 0.1555 1.3639 0.0429
C4 C 0.2112(15) 1.1649(12) 0.0463(5)
C5 C 0.2000(18) 1.1370(15) -0.0202(6)
H6 H 0.1703 1.2062 -0.0498
C6 C 0.2308(17) 1.0136(14) -0.0420(5)
H7 H 0.2222 0.9984 -0.0860
C7 C 0.2764(15) 0.9067(12) 0.0022(6)
C8 C 0.3114(16) 0.7746(13) -0.0181(5)
H8 H 0.3042 0.7560 -0.0617
C9 C 0.3558(19) 0.6746(15) 0.0263(6)
H9 H 0.3790 0.5879 0.0134
C10 C 0.3654(17) 0.7058(12) 0.0915(6)
H10 H 0.3936 0.6370 0.1214
C11 C 0.2912(14) 0.9290(12) 0.0694(5)
C12 C 0.2559(14) 1.0577(11) 0.0914(5)
Pb1A Pb 0.66796(5) 1.38575(4) 0.269011(17)
O3A O 0.3889(14) 0.6045(8) 0.2349(4)
loop_
_geom_bond_atom_site_label_1
_geom_bond_atom_site_label_2
_geom_bond_site_symmetry_1
_geom_bond_site_symmetry_2
Pb1 O1 1_555 1_555
O1 N3 1_555 1_555
O2 N3 1_555 1_555
O3 N3 1_555 1_555
O4 Pb1 1_555 1_555
O5 N4 1_555 1_555
O6 N4 1_555 1_555
O7 Pb1 1_555 1_555
H1 O7 1_555 1_555
H2 O7 1_555 1_555
N1 Pb1 1_555 1_555
N2 Pb1 1_555 1_555
N4 O4 1_555 1_555
C1 N1 1_555 1_555
H3 C1 1_555 1_555
C2 C1 1_555 1_555
H4 C2 1_555 1_555
C3 C2 1_555 1_555
H5 C3 1_555 1_555
C4 C3 1_555 1_555
C5 C4 1_555 1_555
H6 C5 1_555 1_555
C6 C5 1_555 1_555
H7 C6 1_555 1_555
C7 C6 1_555 1_555
C8 C7 1_555 1_555
H8 C8 1_555 1_555
C9 C8 1_555 1_555
H9 C9 1_555 1_555
C10 N2 1_555 1_555
H10 C10 1_555 1_555
C11 N2 1_555 1_555
C12 N1 1_555 1_555
Pb1A O3 1_555 1_555
O3A Pb1 1_555 1_555
C4 C12 1_555 1_555
C7 C11 1_555 1_555
C9 C10 1_555 1_555
C11 C12 1_555 1_555

#END
