
#######################################################################
#
#                 Cambridge Crystallographic Data Centre
#                                CCDC 
#
#######################################################################
#
# If this CIF has been generated from an entry in the Cambridge 
# Structural Database, then it will include bibliographic, chemical, 
# crystal, experimental, refinement or atomic coordinate data resulting 
# from the CCDC's data processing and validation procedures.
#
#######################################################################

data_RAQGIZ
_symmetry_cell_setting           monoclinic
_symmetry_space_group_name_H-M   'P 21/c'
_symmetry_Int_Tables_number      14
_space_group_name_Hall           '-P 2ybc'
loop_
_symmetry_equiv_pos_site_id
_symmetry_equiv_pos_as_xyz
1 x,y,z
2 -x,1/2+y,1/2-z
3 -x,-y,-z
4 x,1/2-y,1/2+z
_cell_length_a                   7.244(9)
_cell_length_b                   9.872(2)
_cell_length_c                   20.395(5)
_cell_angle_alpha                90
_cell_angle_beta                 109.08(7)
_cell_angle_gamma                90
_cell_volume                     1378.38
loop_
_atom_site_label
_atom_site_type_symbol
_atom_site_fract_x
_atom_site_fract_y
_atom_site_fract_z
N1 N 0.270(1) 0.6071(7) 0.3587(3)
C1 C 0.308(1) 0.7280(9) 0.3371(5)
C2 C 0.331(1) 0.8441(9) 0.3774(5)
C3 C 0.328(1) 0.8327(9) 0.4441(5)
C4 C 0.294(1) 0.707(1) 0.4673(4)
C5 C 0.267(1) 0.5945(8) 0.4249(4)
N2 N 0.196(1) 0.3611(8) 0.3999(3)
C6 C 0.157(1) 0.2339(9) 0.4180(4)
C7 C 0.155(1) 0.204(1) 0.4840(5)
C8 C 0.195(1) 0.305(1) 0.5325(4)
C9 C 0.233(1) 0.432(1) 0.5150(4)
C10 C 0.231(1) 0.4572(9) 0.4470(4)
N3 N -0.197(1) 0.5943(8) 0.2754(4)
O1 O -0.115(1) 0.6280(7) 0.2324(3)
O2 O -0.177(1) 0.4745(7) 0.2971(4)
O3 O -0.290(1) 0.6773(9) 0.2973(4)
N4 N 0.267(1) 0.5431(8) 0.1439(4)
O4 O 0.131(1) 0.4590(8) 0.1251(4)
O5 O 0.338(1) 0.571(1) 0.2051(4)
O6 O 0.328(1) 0.6013(8) 0.1010(4)
O7 O 0.5269(9) 0.3602(7) 0.3367(3)
H1 H 0.2956 0.7393 0.2902
H2 H 0.3522 0.9301 0.3591
H3 H 0.3482 0.9109 0.4736
H4 H 0.2810 0.6985 0.5133
H5 H 0.1428 0.1601 0.3847
H6 H 0.1157 0.1146 0.4944
H7 H 0.1945 0.2843 0.5782
H8 H 0.2568 0.5055 0.5479
Pb1 Pb 0.17636(4) 0.41341(3) 0.27630(1)
Pb1A Pb -0.17636(4) 0.91341(3) 0.22370(1)
O1A O 0.115(1) 0.1280(7) 0.2676(3)
O3A O 0.290(1) 0.1773(9) 0.2027(4)
N1A N -0.270(1) 1.1071(7) 0.1413(3)
N2A N -0.196(1) 0.8611(8) 0.1001(3)
O1A_2 O 0.115(1) 1.1280(7) 0.2676(3)
O2A O 0.177(1) 0.9745(7) 0.2029(4)
O4A O -0.131(1) 0.9590(8) 0.3749(4)
O5A O -0.338(1) 1.071(1) 0.2949(4)
O7A O -0.5269(9) 0.8602(7) 0.1633(3)
N3A N 0.197(1) 0.0943(8) 0.2246(4)
Pb1A_2 Pb -0.17636(4) -0.08659(3) 0.22370(1)
C1A C -0.308(1) 1.2280(9) 0.1629(5)
C5A C -0.267(1) 1.0945(8) 0.0751(4)
C6A C -0.157(1) 0.7339(9) 0.0820(4)
C10A C -0.231(1) 0.9572(9) 0.0530(4)
N4A N -0.267(1) 1.0431(8) 0.3561(4)
O2A_2 O 0.177(1) -0.0255(7) 0.2029(4)
C2A C -0.331(1) 1.3441(9) 0.1226(5)
H1A H -0.2956 1.2393 0.2098
C4A C -0.294(1) 1.207(1) 0.0327(4)
C7A C -0.155(1) 0.704(1) 0.0160(5)
H5A H -0.1428 0.6601 0.1153
C9A C -0.233(1) 0.932(1) -0.0150(4)
O6A O -0.328(1) 1.1013(8) 0.3990(4)
C3A C -0.328(1) 1.3327(9) 0.0559(5)
H2A H -0.3522 1.4301 0.1409
H4A H -0.2810 1.1985 -0.0133
C8A C -0.195(1) 0.805(1) -0.0325(4)
H6A H -0.1157 0.6146 0.0056
H8A H -0.2568 1.0055 -0.0479
H3A H -0.3482 1.4109 0.0264
H7A H -0.1945 0.7843 -0.0782
loop_
_geom_bond_atom_site_label_1
_geom_bond_atom_site_label_2
_geom_bond_site_symmetry_1
_geom_bond_site_symmetry_2
N1 C1 1_555 1_555
C1 C2 1_555 1_555
C2 C3 1_555 1_555
C3 C4 1_555 1_555
C4 C5 1_555 1_555
C5 N1 1_555 1_555
N2 C6 1_555 1_555
C6 C7 1_555 1_555
C7 C8 1_555 1_555
C8 C9 1_555 1_555
C9 C10 1_555 1_555
C10 C5 1_555 1_555
N3 O1 1_555 1_555
O1 Pb1 1_555 1_555
O2 N3 1_555 1_555
O3 N3 1_555 1_555
N4 O4 1_555 1_555
O4 Pb1 1_555 1_555
O5 N4 1_555 1_555
O6 N4 1_555 1_555
O7 Pb1 1_555 1_555
H1 C1 1_555 1_555
H2 C2 1_555 1_555
H3 C3 1_555 1_555
H4 C4 1_555 1_555
H5 C6 1_555 1_555
H6 C7 1_555 1_555
H7 C8 1_555 1_555
H8 C9 1_555 1_555
Pb1 N1 1_555 1_555
Pb1A O1 1_555 1_555
O1A Pb1 1_555 1_555
O3A Pb1 1_555 1_555
N1A Pb1A 1_555 1_555
N2A Pb1A 1_555 1_555
O1A_2 Pb1A 1_555 1_555
O2A Pb1A 1_555 1_555
O4A Pb1A 1_555 1_555
O5A Pb1A 1_555 1_555
O7A Pb1A 1_555 1_555
N3A O1A 1_555 1_555
Pb1A_2 O1A 1_555 1_555
C1A N1A 1_555 1_555
C5A N1A 1_555 1_555
C6A N2A 1_555 1_555
C10A N2A 1_555 1_555
N4A O4A 1_555 1_555
O2A_2 N3A 1_555 1_555
C2A C1A 1_555 1_555
H1A C1A 1_555 1_555
C4A C5A 1_555 1_555
C7A C6A 1_555 1_555
H5A C6A 1_555 1_555
C9A C10A 1_555 1_555
O6A N4A 1_555 1_555
C3A C2A 1_555 1_555
H2A C2A 1_555 1_555
H4A C4A 1_555 1_555
C8A C7A 1_555 1_555
H6A C7A 1_555 1_555
H8A C9A 1_555 1_555
H3A C3A 1_555 1_555
H7A C8A 1_555 1_555
N2 C10 1_555 1_555
N2 Pb1 1_555 1_555
O2 Pb1 1_555 1_555
O3 Pb1A 1_555 1_555
O5 Pb1 1_555 1_555
O3A N3A 1_555 1_555
O5A N4A 1_555 1_555
Pb1A_2 O2A_2 1_555 1_555
C5A C10A 1_555 1_555
C4A C3A 1_555 1_555
C9A C8A 1_555 1_555

#END
