
#######################################################################
#
#                 Cambridge Crystallographic Data Centre
#                                CCDC 
#
#######################################################################
#
# If this CIF has been generated from an entry in the Cambridge 
# Structural Database, then it will include bibliographic, chemical, 
# crystal, experimental, refinement or atomic coordinate data resulting 
# from the CCDC's data processing and validation procedures.
#
#######################################################################

data_RAQGEX
_symmetry_cell_setting           tetragonal
_symmetry_space_group_name_H-M   'P 4/n'
_symmetry_Int_Tables_number      85
_space_group_name_Hall           '-P 4a'
loop_
_symmetry_equiv_pos_site_id
_symmetry_equiv_pos_as_xyz
1 x,y,z
2 1/2-x,1/2-y,z
3 1/2-y,x,z
4 y,1/2-x,z
5 -x,-y,-z
6 1/2+x,1/2+y,-z
7 1/2+y,-x,-z
8 -y,1/2+x,-z
_cell_length_a                   25.3368(11)
_cell_length_b                   25.3368(11)
_cell_length_c                   8.0896(4)
_cell_angle_alpha                90
_cell_angle_beta                 90
_cell_angle_gamma                90
_cell_volume                     5193.15
loop_
_atom_site_label
_atom_site_type_symbol
_atom_site_fract_x
_atom_site_fract_y
_atom_site_fract_z
C2 C 0.7552(3) -0.0450(3) 0.0365(10)
N4 N 0.7819(3) -0.0759(3) -0.0670(9)
H7 H 0.8001 -0.0619 -0.1486
H8 H 0.7814 -0.1104 -0.0539
N5 N 0.7556(3) 0.0059(3) 0.0185(9)
H9 H 0.7387 0.0261 0.0895
H10 H 0.7728 0.0203 -0.0646
N6 N 0.7291(3) -0.0661(3) 0.1626(9)
H11 H 0.7123 -0.0456 0.2329
H12 H 0.7286 -0.1006 0.1758
O1 O 0.7407(2) -0.1710(3) -0.5844(16)
O2 O 0.9317(3) -0.1393(3) -0.1588(9)
O3 O 0.8269(4) -0.1923(4) -0.117(2)
Mo1 Mo 0.72245(2) 0.04012(2) -0.45110(7)
Mo2 Mo 0.56887(2) 0.18236(2) -0.61482(7)
P1 P 0.60084(7) 0.05854(7) -0.4882(2)
P2 P 0.66895(7) 0.10695(7) -0.7570(2)
O4 O 0.7210(2) -0.01789(19) -0.3441(6)
O5 O 0.67849(19) 0.01229(18) -0.6456(6)
O6 O 0.64840(19) 0.0667(2) -0.3702(6)
O7 O 0.62916(19) 0.15309(18) -0.7615(6)
O8 O 0.51762(19) 0.16639(19) -0.7397(6)
O9 O 0.6438(2) 0.1919(2) -0.4386(6)
O10 O 0.56770(19) 0.0119(2) -0.4456(6)
O11 O 0.6931(2) 0.09970(19) -0.9240(6)
O12 O 0.56829(18) 0.10998(19) -0.4942(6)
O13 O 0.70895(19) 0.11461(19) -0.6162(6)
O14 O 0.75055(18) 0.09193(19) -0.2986(6)
O15 O 0.78757(19) 0.03516(19) -0.5789(6)
C3 C 0.6351(3) 0.0470(3) -0.6873(8)
C4 C 0.6023(3) 0.0172(3) -0.8198(9)
H13 H 0.5888 -0.0158 -0.7698
H14 H 0.6262 0.0072 -0.9114
C5 C 0.5562(3) 0.0471(3) -0.8915(9)
C6 C 0.5618(3) 0.0798(3) -1.0280(9)
H15 H 0.5958 0.0846 -1.0754
C7 C 0.5192(4) 0.1056(3) -1.0961(10)
H16 H 0.5234 0.1280 -1.1894
C8 C 0.4703(3) 0.0981(3) -1.0256(10)
H17 H 0.4405 0.1157 -1.0708
C9 C 0.5062(3) 0.0416(3) -0.8256(9)
H18 H 0.5013 0.0201 -0.7307
N7 N 0.4640(3) 0.0665(3) -0.8943(8)
Na1 Na 0.67972(13) 0.14171(13) -0.1995(4)
Na2 Na 0.7500 0.2500 0.0000
O16 O 0.6593(2) 0.2156(2) -0.0286(7)
O17 O 0.7500 0.2500 0.357(11)
Mo1_2 Mo 0.72245(2) 0.04012(2) 0.54890(7)
Mo1A Mo 0.77755(2) 0.45988(2) -0.45110(7)
Mo1A_2 Mo 0.77755(2) 0.45988(2) 0.54890(7)
Mo1F Mo 0.54012(2) 0.27755(2) 0.45110(7)
Mo1G Mo 0.95988(2) 0.22245(2) 0.45110(7)
Mo1F_2 Mo 0.54012(2) 0.27755(2) -0.54890(7)
Mo2_2 Mo 0.56887(2) 0.18236(2) 0.38518(7)
Mo2A Mo 0.93113(2) 0.31764(2) -0.61482(7)
Mo2A_2 Mo 0.93113(2) 0.31764(2) 0.38518(7)
Mo2G Mo 0.81764(2) 0.06887(2) -0.38518(7)
Mo2F Mo 0.68236(2) 0.43113(2) -0.38518(7)
Mo2F_2 Mo 0.68236(2) 0.43113(2) 0.61482(7)
Mo2G_2 Mo 0.81764(2) 0.06887(2) 0.61482(7)
P1_2 P 0.60084(7) 0.05854(7) 0.5118(2)
P1A P 0.89916(7) 0.44146(7) -0.4882(2)
P1A_2 P 0.89916(7) 0.44146(7) 0.5118(2)
P2_2 P 0.66895(7) 0.10695(7) 0.2430(2)
P2A P 0.83105(7) 0.39305(7) -0.7570(2)
P2A_2 P 0.83105(7) 0.39305(7) 0.2430(2)
O4_2 O 0.7210(2) -0.01789(19) 0.6559(6)
O4A O 0.7790(2) 0.51789(19) -0.3441(6)
O4A_2 O 0.7790(2) 0.51789(19) 0.6559(6)
O5_2 O 0.67849(19) 0.01229(18) 0.3544(6)
O5A O 0.82151(19) 0.48771(18) -0.6456(6)
O5A_2 O 0.82151(19) 0.48771(18) 0.3544(6)
O6_2 O 0.64840(19) 0.0667(2) 0.6298(6)
O6A O 0.85160(19) 0.4333(2) -0.3702(6)
O6A_2 O 0.85160(19) 0.4333(2) 0.6298(6)
O6F O 0.5667(2) 0.35160(19) 0.3702(6)
O6G O 0.9333(2) 0.14840(19) 0.3702(6)
O7_2 O 0.62916(19) 0.15309(18) 0.2385(6)
O7A O 0.87084(19) 0.34691(18) -0.7615(6)
O7A_2 O 0.87084(19) 0.34691(18) 0.2385(6)
O8_2 O 0.51762(19) 0.16639(19) 0.2603(6)
O8A O 0.98238(19) 0.33361(19) -0.7397(6)
O8A_2 O 0.98238(19) 0.33361(19) 0.2603(6)
O9A O 0.8562(2) 0.3081(2) -0.4386(6)
O9F O 0.6919(2) 0.3562(2) 0.4386(6)
O9G O 0.8081(2) 0.1438(2) 0.4386(6)
O9_2 O 0.6438(2) 0.1919(2) 0.5614(6)
O9A_2 O 0.8562(2) 0.3081(2) 0.5614(6)
O10_2 O 0.56770(19) 0.0119(2) 0.5544(6)
O10A O 0.93230(19) 0.4881(2) -0.4456(6)
O10A_2 O 0.93230(19) 0.4881(2) 0.5544(6)
O11_2 O 0.6931(2) 0.09970(19) 0.0760(6)
O11A O 0.8069(2) 0.40030(19) -0.9240(6)
O11A_2 O 0.8069(2) 0.40030(19) 0.0760(6)
O11F O 0.59970(19) 0.3069(2) -0.0760(6)
O11G O 0.90030(19) 0.1931(2) -0.0760(6)
O12_2 O 0.56829(18) 0.10998(19) 0.5058(6)
O12A O 0.93171(18) 0.39002(19) -0.4942(6)
O12A_2 O 0.93171(18) 0.39002(19) 0.5058(6)
O13_2 O 0.70895(19) 0.11461(19) 0.3838(6)
O13A O 0.79105(19) 0.38539(19) -0.6162(6)
O13A_2 O 0.79105(19) 0.38539(19) 0.3838(6)
O14A O 0.74945(18) 0.40807(19) -0.2986(6)
O14F O 0.59193(19) 0.24945(18) 0.2986(6)
O14G O 0.90807(19) 0.25055(18) 0.2986(6)
O14F_2 O 0.59193(19) 0.24945(18) -0.7014(6)
O14_2 O 0.75055(18) 0.09193(19) 0.7014(6)
O14A_2 O 0.74945(18) 0.40807(19) 0.7014(6)
O14G_2 O 0.90807(19) 0.25055(18) -0.7014(6)
O15F O 0.53516(19) 0.21243(19) -0.4211(6)
O15_2 O 0.78757(19) 0.03516(19) 0.4211(6)
O15A O 0.71243(19) 0.46484(19) -0.5789(6)
O15A_2 O 0.71243(19) 0.46484(19) 0.4211(6)
O15F_2 O 0.53516(19) 0.21243(19) 0.5789(6)
O15G O 0.96484(19) 0.28757(19) -0.4211(6)
O15G_2 O 0.96484(19) 0.28757(19) 0.5789(6)
C3_2 C 0.6351(3) 0.0470(3) 0.3127(8)
C3A C 0.8649(3) 0.4530(3) -0.6873(8)
C3A_2 C 0.8649(3) 0.4530(3) 0.3127(8)
C4_2 C 0.6023(3) 0.0172(3) 0.1802(9)
C4A C 0.8977(3) 0.4828(3) -0.8198(9)
C4A_2 C 0.8977(3) 0.4828(3) 0.1802(9)
H13_2 H 0.5888 -0.0158 0.2302
H13A H 0.9112 0.5158 -0.7698
H13A_2 H 0.9112 0.5158 0.2302
H14_2 H 0.6262 0.0072 0.0886
H14A H 0.8738 0.4928 -0.9114
H14A_2 H 0.8738 0.4928 0.0886
C5_2 C 0.5562(3) 0.0471(3) 0.1085(9)
C5A C 0.9438(3) 0.4529(3) -0.8915(9)
C5A_2 C 0.9438(3) 0.4529(3) 0.1085(9)
C6_2 C 0.5618(3) 0.0798(3) -0.0280(9)
C6A C 0.9382(3) 0.4202(3) -1.0280(9)
C6A_2 C 0.9382(3) 0.4202(3) -0.0280(9)
H15_2 H 0.5958 0.0846 -0.0754
H15A H 0.9042 0.4154 -1.0754
H15A_2 H 0.9042 0.4154 -0.0754
C7_2 C 0.5192(4) 0.1056(3) -0.0961(10)
C7A C 0.9808(4) 0.3944(3) -1.0961(10)
C7A_2 C 0.9808(4) 0.3944(3) -0.0961(10)
H16_2 H 0.5234 0.1280 -0.1894
H16A H 0.9766 0.3720 -1.1894
H16A_2 H 0.9766 0.3720 -0.1894
C8_2 C 0.4703(3) 0.0981(3) -0.0256(10)
C8A C 1.0297(3) 0.4019(3) -1.0256(10)
C8A_2 C 1.0297(3) 0.4019(3) -0.0256(10)
H17_2 H 0.4405 0.1157 -0.0708
H17A H 1.0595 0.3843 -1.0708
H17A_2 H 1.0595 0.3843 -0.0708
C9_2 C 0.5062(3) 0.0416(3) 0.1744(9)
C9A C 0.9938(3) 0.4584(3) -0.8256(9)
C9A_2 C 0.9938(3) 0.4584(3) 0.1744(9)
H18_2 H 0.5013 0.0201 0.2693
H18A H 0.9987 0.4799 -0.7307
H18A_2 H 0.9987 0.4799 0.2693
N7_2 N 0.4640(3) 0.0665(3) 0.1057(8)
N7A N 1.0360(3) 0.4335(3) -0.8943(8)
N7A_2 N 1.0360(3) 0.4335(3) 0.1057(8)
Na1A Na 0.82028(13) 0.35829(13) -0.1995(4)
Na1F Na 0.64171(13) 0.32028(13) 0.1995(4)
Na1G Na 0.85829(13) 0.17972(13) 0.1995(4)
Na1_2 Na 0.67972(13) 0.14171(13) -1.1995(4)
Na1_3 Na 0.67972(13) 0.14171(13) 0.8005(4)
Na1A_2 Na 0.82028(13) 0.35829(13) -1.1995(4)
Na1A_3 Na 0.82028(13) 0.35829(13) 0.8005(4)
O16A O 0.8407(2) 0.2844(2) -0.0286(7)
O16F O 0.7156(2) 0.3407(2) 0.0286(7)
O16G O 0.7844(2) 0.1593(2) 0.0286(7)
O17F O 0.7500 0.2500 -0.357(11)
C1 C 0.5851(3) -0.1217(3) -0.5490(11)
N1 N 0.5467(3) -0.0891(3) -0.5373(8)
H1 H 0.5139 -0.1007 -0.5403
H2 H 0.5530 -0.0551 -0.5263
N2 N 0.6351(3) -0.1040(3) -0.5497(10)
H3 H 0.6415 -0.0699 -0.5421
H4 H 0.6614 -0.1265 -0.5577
N3 N 0.5766(3) -0.1731(3) -0.5656(12)
H5 H 0.5441 -0.1853 -0.5689
H6 H 0.6035 -0.1949 -0.5735
Na3? Na 0.7500 0.2500 0.364(6)
loop_
_geom_bond_atom_site_label_1
_geom_bond_atom_site_label_2
_geom_bond_site_symmetry_1
_geom_bond_site_symmetry_2
C1 N1 1_555 1_555
N1 H1 1_555 1_555
H2 N1 1_555 1_555
N2 C1 1_555 1_555
H3 N2 1_555 1_555
H4 N2 1_555 1_555
N3 C1 1_555 1_555
H5 N3 1_555 1_555
H6 N3 1_555 1_555
C2 N4 1_555 1_555
N4 H7 1_555 1_555
H8 N4 1_555 1_555
N5 C2 1_555 1_555
H9 N5 1_555 1_555
H10 N5 1_555 1_555
N6 C2 1_555 1_555
H11 N6 1_555 1_555
H12 N6 1_555 1_555
Mo1 O4 1_555 1_555
Mo2 O7 1_555 1_555
P1 O6 1_555 1_555
P2 O7 1_555 1_555
O5 Mo1 1_555 1_555
O6 Mo1 1_555 1_555
O8 Mo2 1_555 1_555
O9 Mo2 1_555 1_555
O10 P1 1_555 1_555
O11 P2 1_555 1_555
O12 Mo2 1_555 1_555
O13 Mo1 1_555 1_555
O14 Mo1 1_555 1_555
O15 Mo1 1_555 1_555
C3 P1 1_555 1_555
C4 C3 1_555 1_555
H13 C4 1_555 1_555
H14 C4 1_555 1_555
C5 C4 1_555 1_555
C6 C5 1_555 1_555
H15 C6 1_555 1_555
C7 C6 1_555 1_555
H16 C7 1_555 1_555
C8 C7 1_555 1_555
H17 C8 1_555 1_555
C9 C5 1_555 1_555
H18 C9 1_555 1_555
N7 C8 1_555 1_555
Na1 O6 1_555 1_555
Na2 O16 1_555 1_555
O16 Na1 1_555 1_555
O17 Na2 1_555 1_555
Mo1_2 O4_2 1_555 1_555
Mo1A O4A 1_555 1_555
Mo1A_2 O4A_2 1_555 1_555
Mo1F O6F 1_555 1_555
Mo1G O6G 1_555 1_555
Mo1F_2 O14F_2 1_555 1_555
Mo2_2 O7_2 1_555 1_555
Mo2A O7A 1_555 1_555
Mo2A_2 O7A_2 1_555 1_555
Mo2G O14 1_555 1_555
Mo2F O14A 1_555 1_555
Mo2F_2 O9F 1_555 1_555
Mo2G_2 O9G 1_555 1_555
P1_2 O6_2 1_555 1_555
P1A O6A 1_555 1_555
P1A_2 O6A_2 1_555 1_555
P2_2 O7_2 1_555 1_555
P2A O7A 1_555 1_555
P2A_2 O7A_2 1_555 1_555
O5_2 Mo1_2 1_555 1_555
O5A Mo1A 1_555 1_555
O5A_2 Mo1A_2 1_555 1_555
O6_2 Mo1_2 1_555 1_555
O6A Mo1A 1_555 1_555
O6A_2 Mo1A_2 1_555 1_555
O6F Na1F 1_555 1_555
O6G Na1G 1_555 1_555
O8_2 Mo2_2 1_555 1_555
O8A Mo2A 1_555 1_555
O8A_2 Mo2A_2 1_555 1_555
O9A Mo2A 1_555 1_555
O9F Na1F 1_555 1_555
O9G Na1G 1_555 1_555
O9_2 Mo2_2 1_555 1_555
O9A_2 Mo2A_2 1_555 1_555
O10_2 P1_2 1_555 1_555
O10A P1A 1_555 1_555
O10A_2 P1A_2 1_555 1_555
O11_2 Na1 1_555 1_555
O11A P2A 1_555 1_555
O11A_2 P2A_2 1_555 1_555
O11F Na1F 1_555 1_555
O11G Na1G 1_555 1_555
O12_2 Mo2_2 1_555 1_555
O12A Mo2A 1_555 1_555
O12A_2 Mo2A_2 1_555 1_555
O13_2 Mo1_2 1_555 1_555
O13A Mo1A 1_555 1_555
O13A_2 Mo1A_2 1_555 1_555
O14A Mo1A 1_555 1_555
O14F Mo1F 1_555 1_555
O14G Mo1G 1_555 1_555
O14F_2 Mo2 1_555 1_555
O14_2 Mo1_2 1_555 1_555
O14A_2 Mo1A_2 1_555 1_555
O14G_2 Mo2A 1_555 1_555
O15F Mo2 1_555 1_555
O15_2 Mo1_2 1_555 1_555
O15A Mo1A 1_555 1_555
O15A_2 Mo1A_2 1_555 1_555
O15F_2 Mo1F 1_555 1_555
O15G Mo2A 1_555 1_555
O15G_2 Mo1G 1_555 1_555
C3_2 P1_2 1_555 1_555
C3A P1A 1_555 1_555
C3A_2 P1A_2 1_555 1_555
C4_2 C3_2 1_555 1_555
C4A C3A 1_555 1_555
C4A_2 C3A_2 1_555 1_555
H13_2 C4_2 1_555 1_555
H13A C4A 1_555 1_555
H13A_2 C4A_2 1_555 1_555
H14_2 C4_2 1_555 1_555
H14A C4A 1_555 1_555
H14A_2 C4A_2 1_555 1_555
C5_2 C4_2 1_555 1_555
C5A C4A 1_555 1_555
C5A_2 C4A_2 1_555 1_555
C6_2 C5_2 1_555 1_555
C6A C5A 1_555 1_555
C6A_2 C5A_2 1_555 1_555
H15_2 C6_2 1_555 1_555
H15A C6A 1_555 1_555
H15A_2 C6A_2 1_555 1_555
C7_2 C6_2 1_555 1_555
C7A C6A 1_555 1_555
C7A_2 C6A_2 1_555 1_555
H16_2 C7_2 1_555 1_555
H16A C7A 1_555 1_555
H16A_2 C7A_2 1_555 1_555
C8_2 C7_2 1_555 1_555
C8A C7A 1_555 1_555
C8A_2 C7A_2 1_555 1_555
H17_2 C8_2 1_555 1_555
H17A C8A 1_555 1_555
H17A_2 C8A_2 1_555 1_555
C9_2 C5_2 1_555 1_555
C9A C5A 1_555 1_555
C9A_2 C5A_2 1_555 1_555
H18_2 C9_2 1_555 1_555
H18A C9A 1_555 1_555
H18A_2 C9A_2 1_555 1_555
N7_2 C8_2 1_555 1_555
N7A C8A 1_555 1_555
N7A_2 C8A_2 1_555 1_555
Na1A O6A 1_555 1_555
Na1F O14F 1_555 1_555
Na1G O14G 1_555 1_555
Na1_2 O11 1_555 1_555
Na1_3 O6_2 1_555 1_555
Na1A_2 O11A 1_555 1_555
Na1A_3 O6A_2 1_555 1_555
O16A Na2 1_555 1_555
O16F Na2 1_555 1_555
O16G Na2 1_555 1_555
O17F Na2 1_555 1_555
P1 O12 1_555 1_555
P2 O13 1_555 1_555
P2 C3 1_555 1_555
O5 C3 1_555 1_555
O9 Na1 1_555 1_555
O14 Na1 1_555 1_555
O15 Mo2G 1_555 1_555
C9 N7 1_555 1_555
Mo1F_2 O15F 1_555 1_555
Mo2_2 O14F 1_555 1_555
Mo2_2 O15F_2 1_555 1_555
Mo2A_2 O14G 1_555 1_555
Mo2A_2 O15G_2 1_555 1_555
Mo2F O15A 1_555 1_555
Mo2F_2 O14A_2 1_555 1_555
Mo2F_2 O15A_2 1_555 1_555
Mo2G_2 O14_2 1_555 1_555
Mo2G_2 O15_2 1_555 1_555
P1_2 O12_2 1_555 1_555
P1A O12A 1_555 1_555
P1A_2 O12A_2 1_555 1_555
P2_2 O11_2 1_555 1_555
P2_2 O13_2 1_555 1_555
P2_2 C3_2 1_555 1_555
P2A O13A 1_555 1_555
P2A C3A 1_555 1_555
P2A_2 O13A_2 1_555 1_555
P2A_2 C3A_2 1_555 1_555
O5_2 C3_2 1_555 1_555
O5A C3A 1_555 1_555
O5A_2 C3A_2 1_555 1_555
O9A Na1A 1_555 1_555
O9_2 Na1_3 1_555 1_555
O9A_2 Na1A_3 1_555 1_555
O11A_2 Na1A 1_555 1_555
O14A Na1A 1_555 1_555
O14_2 Na1_3 1_555 1_555
O14A_2 Na1A_3 1_555 1_555
C9_2 N7_2 1_555 1_555
C9A N7A 1_555 1_555
C9A_2 N7A_2 1_555 1_555
Na1A O16A 1_555 1_555
Na1F O16F 1_555 1_555
Na1G O16G 1_555 1_555

#END
