
#######################################################################
#
#                 Cambridge Crystallographic Data Centre
#                                CCDC 
#
#######################################################################
#
# If this CIF has been generated from an entry in the Cambridge 
# Structural Database, then it will include bibliographic, chemical, 
# crystal, experimental, refinement or atomic coordinate data resulting 
# from the CCDC's data processing and validation procedures.
#
#######################################################################

data_RAQJAV01
_symmetry_cell_setting           triclinic
_symmetry_space_group_name_H-M   'P -1'
_symmetry_Int_Tables_number      2
_space_group_name_Hall           '-P 1'
loop_
_symmetry_equiv_pos_site_id
_symmetry_equiv_pos_as_xyz
1 x,y,z
2 -x,-y,-z
_cell_length_a                   9.569(3)
_cell_length_b                   10.255(4)
_cell_length_c                   10.738(4)
_cell_angle_alpha                72.046(7)
_cell_angle_beta                 64.888(7)
_cell_angle_gamma                62.939(7)
_cell_volume                     840.955
loop_
_atom_site_label
_atom_site_type_symbol
_atom_site_fract_x
_atom_site_fract_y
_atom_site_fract_z
C1 C -0.0500(18) 0.3712(17) 0.7567(17)
C2 C -0.068(2) 0.2912(19) 0.8999(19)
C3 C 0.021(2) 0.290(2) 0.9740(19)
H1 H 0.0953 0.3406 0.9342
C4 C -0.001(2) 0.211(2) 1.111(2)
H2 H 0.0609 0.2084 1.1618
C5 C -0.105(2) 0.140(2) 1.169(2)
H3 H -0.1152 0.0866 1.2601
C6 C -0.202(2) 0.141(2) 1.100(2)
H4 H -0.2786 0.0926 1.1435
C7 C -0.181(2) 0.214(2) 0.966(2)
H5 H -0.2429 0.2146 0.9163
C8 C 0.1741(17) 0.2379(16) 0.4207(16)
C9 C 0.2756(18) 0.0888(17) 0.3785(16)
C10 C 0.4461(19) 0.0256(18) 0.3543(17)
H6 H 0.4993 0.0768 0.3671
C11 C 0.537(2) -0.1115(19) 0.3117(18)
H7 H 0.6541 -0.1536 0.2936
C12 C 0.462(2) -0.189(2) 0.2948(18)
H8 H 0.5269 -0.2828 0.2625
C13 C 0.294(2) -0.1307(19) 0.3249(18)
H9 H 0.2420 -0.1858 0.3166
C14 C 0.196(2) 0.0082(18) 0.3677(17)
H10 H 0.0791 0.0475 0.3890
C15 C 0.5060(16) 0.4340(15) 0.4095(15)
H11 H 0.5144 0.3855 0.3428
C16 C 0.6432(19) 0.4288(17) 0.4157(16)
H12 H 0.7472 0.3756 0.3532
N1 N 0.3568(15) 0.5051(14) 0.4939(14)
O1 O 0.0780(12) 0.4074(12) 0.6962(11)
O2 O -0.1550(12) 0.3927(11) 0.7020(11)
O3 O 0.2490(12) 0.3051(11) 0.4356(10)
O4 O 0.0178(12) 0.2920(11) 0.4398(11)
Rh1 Rh 0.12268(16) 0.50660(15) 0.49723(15)
C1A C 0.0500(18) 0.6288(17) 0.2433(17)
C2A C 0.068(2) 0.7088(19) 0.1001(19)
C3A C -0.021(2) 0.710(2) 0.0260(19)
H1A H -0.0953 0.6594 0.0658
C4A C 0.001(2) 0.789(2) -0.111(2)
H2A H -0.0609 0.7916 -0.1618
C5A C 0.105(2) 0.860(2) -0.169(2)
H3A H 0.1152 0.9134 -0.2601
C6A C 0.202(2) 0.859(2) -0.100(2)
H4A H 0.2786 0.9074 -0.1435
C7A C 0.181(2) 0.786(2) 0.034(2)
H5A H 0.2429 0.7854 0.0837
C8A C -0.1741(17) 0.7621(16) 0.5793(16)
C9A C -0.2756(18) 0.9112(17) 0.6215(16)
C10A C -0.4461(19) 0.9744(18) 0.6457(17)
H6A H -0.4993 0.9232 0.6329
C11A C -0.537(2) 1.1115(19) 0.6883(18)
H7A H -0.6541 1.1536 0.7064
C12A C -0.462(2) 1.189(2) 0.7052(18)
H8A H -0.5269 1.2828 0.7375
C13A C -0.294(2) 1.1307(19) 0.6751(18)
H9A H -0.2420 1.1858 0.6834
C14A C -0.196(2) 0.9918(18) 0.6323(17)
H10A H -0.0791 0.9525 0.6110
C15A C 0.4940(16) 0.5660(15) 0.5905(15)
H11A H 0.4856 0.6145 0.6572
C16A C 0.3568(19) 0.5712(17) 0.5843(16)
H12A H 0.2528 0.6244 0.6468
N1A N 0.6432(15) 0.4949(14) 0.5061(14)
O1A O -0.0780(12) 0.5926(12) 0.3038(11)
O1A_2 O 0.9220(12) 0.5926(12) 0.3038(11)
O2A O 0.1550(12) 0.6073(11) 0.2980(11)
O2_2 O 0.8450(12) 0.3927(11) 0.7020(11)
O3A O -0.2490(12) 0.6949(11) 0.5644(10)
O3A_2 O 0.7510(12) 0.6949(11) 0.5644(10)
O4A O -0.0178(12) 0.7080(11) 0.5602(11)
O4_2 O 1.0178(12) 0.2920(11) 0.4398(11)
Rh1A Rh 0.87732(16) 0.49340(15) 0.50277(15)
Rh1A_2 Rh -0.12268(16) 0.49340(15) 0.50277(15)
Rh1_2 Rh 1.12268(16) 0.50660(15) 0.49723(15)
C17 C 0.369(2) 0.349(2) 0.041(2)
H13 H 0.413(9) 0.372(17) 0.094(13)
H14 H 0.36(2) 0.425(13) -0.037(11)
H15 H 0.262(11) 0.344(19) 0.099(11)
H16 H 0.444(13) 0.256(10) 0.010(17)
loop_
_geom_bond_atom_site_label_1
_geom_bond_atom_site_label_2
_geom_bond_site_symmetry_1
_geom_bond_site_symmetry_2
C1 C2 1_555 1_555
C2 C3 1_555 1_555
C3 H1 1_555 1_555
C4 C3 1_555 1_555
H2 C4 1_555 1_555
C5 C4 1_555 1_555
H3 C5 1_555 1_555
C6 C5 1_555 1_555
H4 C6 1_555 1_555
C7 C2 1_555 1_555
H5 C7 1_555 1_555
C8 C9 1_555 1_555
C9 C10 1_555 1_555
C10 H6 1_555 1_555
C11 C10 1_555 1_555
H7 C11 1_555 1_555
C12 C11 1_555 1_555
H8 C12 1_555 1_555
C13 C12 1_555 1_555
H9 C13 1_555 1_555
C14 C9 1_555 1_555
H10 C14 1_555 1_555
C15 H11 1_555 1_555
C16 C15 1_555 1_555
H12 C16 1_555 1_555
C17 H13 1_555 1_555
H14 C17 1_555 1_555
H15 C17 1_555 1_555
H16 C17 1_555 1_555
N1 C15 1_555 1_555
O1 C1 1_555 1_555
O2 C1 1_555 1_555
O3 C8 1_555 1_555
O4 C8 1_555 1_555
Rh1 N1 1_555 1_555
C1A C2A 1_555 1_555
C2A C3A 1_555 1_555
C3A H1A 1_555 1_555
C4A C3A 1_555 1_555
H2A C4A 1_555 1_555
C5A C4A 1_555 1_555
H3A C5A 1_555 1_555
C6A C5A 1_555 1_555
H4A C6A 1_555 1_555
C7A C2A 1_555 1_555
H5A C7A 1_555 1_555
C8A C9A 1_555 1_555
C9A C10A 1_555 1_555
C10A H6A 1_555 1_555
C11A C10A 1_555 1_555
H7A C11A 1_555 1_555
C12A C11A 1_555 1_555
H8A C12A 1_555 1_555
C13A C12A 1_555 1_555
H9A C13A 1_555 1_555
C14A C9A 1_555 1_555
H10A C14A 1_555 1_555
C15A H11A 1_555 1_555
C16A N1 1_555 1_555
H12A C16A 1_555 1_555
N1A C16 1_555 1_555
O1A C1A 1_555 1_555
O1A_2 Rh1A 1_555 1_555
O2A Rh1 1_555 1_555
O2_2 Rh1A 1_555 1_555
O3A C8A 1_555 1_555
O3A_2 Rh1A 1_555 1_555
O4A Rh1 1_555 1_555
O4_2 Rh1A 1_555 1_555
Rh1A N1A 1_555 1_555
Rh1A_2 O2 1_555 1_555
Rh1_2 Rh1A 1_555 1_555
C6 C7 1_555 1_555
C13 C14 1_555 1_555
O1 Rh1 1_555 1_555
O3 Rh1 1_555 1_555
O4 Rh1A_2 1_555 1_555
Rh1 Rh1A_2 1_555 1_555
C1A O2A 1_555 1_555
C6A C7A 1_555 1_555
C8A O4A 1_555 1_555
C13A C14A 1_555 1_555
C15A C16A 1_555 1_555
C15A N1A 1_555 1_555
O1A Rh1A_2 1_555 1_555
O3A Rh1A_2 1_555 1_555

#END
