
#######################################################################
#
#                 Cambridge Crystallographic Data Centre
#                                CCDC 
#
#######################################################################
#
# If this CIF has been generated from an entry in the Cambridge 
# Structural Database, then it will include bibliographic, chemical, 
# crystal, experimental, refinement or atomic coordinate data resulting 
# from the CCDC's data processing and validation procedures.
#
#######################################################################

data_RAQJAV
_symmetry_cell_setting           triclinic
_symmetry_space_group_name_H-M   'P -1'
_symmetry_Int_Tables_number      2
_space_group_name_Hall           '-P 1'
loop_
_symmetry_equiv_pos_site_id
_symmetry_equiv_pos_as_xyz
1 x,y,z
2 -x,-y,-z
_cell_length_a                   9.582(3)
_cell_length_b                   10.367(4)
_cell_length_c                   10.844(4)
_cell_angle_alpha                71.594(7)
_cell_angle_beta                 65.102(7)
_cell_angle_gamma                62.925(8)
_cell_volume                     859.675
loop_
_atom_site_label
_atom_site_type_symbol
_atom_site_fract_x
_atom_site_fract_y
_atom_site_fract_z
C1 C 0.6708(17) 0.7433(16) -0.0795(16)
C2 C 0.7687(14) 0.5929(12) -0.1175(14)
C3 C 0.9390(14) 0.5309(13) -0.1442(14)
H1 H 0.9921 0.5807 -0.1336
C4 C 1.0287(15) 0.3964(14) -0.1862(15)
H2 H 1.1428 0.3549 -0.2035
C5 C 0.9520(16) 0.3221(14) -0.2029(17)
H3 H 1.0138 0.2316 -0.2332
C6 C 0.7834(15) 0.3826(14) -0.1745(16)
H4 H 0.7309 0.3317 -0.1843
C7 C 0.6909(15) 0.5174(13) -0.1317(16)
H5 H 0.5765 0.5574 -0.1125
C8 C 0.4512(19) 0.8697(17) 0.2564(17)
C9 C 0.4287(18) 0.7889(16) 0.3979(14)
C10 C 0.5230(17) 0.7825(16) 0.4694(16)
H6 H 0.6012 0.8261 0.4277
C11 C 0.499(2) 0.7103(18) 0.6037(16)
H7 H 0.5611 0.7071 0.6526
C12 C 0.386(2) 0.644(2) 0.6655(16)
H8 H 0.3714 0.5960 0.7559
C13 C 0.295(2) 0.646(2) 0.5948(17)
H9 H 0.2211 0.5978 0.6357
C14 C 0.313(2) 0.7226(19) 0.4611(16)
H10 H 0.2479 0.7290 0.4142
C15 C 1.0002(17) 0.9367(15) -0.0900(15)
H11 H 1.0068 0.8908 -0.1545
C16 C 1.1416(18) 0.9338(15) -0.0846(15)
H12 H 1.2423 0.8854 -0.1471
N1 N 0.8552(14) 1.0043(14) -0.0044(13)
O1 O 0.7480(10) 0.8049(10) -0.0637(10)
O2 O 0.5165(11) 0.7970(10) -0.0592(10)
O3 O 0.5763(12) 0.9049(10) 0.1966(10)
O4 O 0.3456(11) 0.8925(10) 0.2013(10)
Rh1 Rh 0.62316(17) 1.00462(15) -0.00203(16)
C1A C 0.3292(17) 1.2567(16) 0.0795(16)
C2A C 0.2313(14) 1.4071(12) 0.1175(14)
C3A C 0.0610(14) 1.4691(13) 0.1442(14)
H1A H 0.0079 1.4193 0.1336
C4A C -0.0287(15) 1.6036(14) 0.1862(15)
H2A H -0.1428 1.6451 0.2035
C5A C 0.0480(16) 1.6779(14) 0.2029(17)
H3A H -0.0138 1.7684 0.2332
C6A C 0.2166(15) 1.6174(14) 0.1745(16)
H4A H 0.2691 1.6683 0.1843
C7A C 0.3091(15) 1.4826(13) 0.1317(16)
H5A H 0.4235 1.4426 0.1125
C8A C 0.5488(19) 1.1303(17) -0.2564(17)
C9A C 0.5713(18) 1.2111(16) -0.3979(14)
C10A C 0.4770(17) 1.2175(16) -0.4694(16)
H6A H 0.3988 1.1739 -0.4277
C11A C 0.501(2) 1.2897(18) -0.6037(16)
H7A H 0.4389 1.2929 -0.6526
C12A C 0.614(2) 1.356(2) -0.6655(16)
H8A H 0.6286 1.4040 -0.7559
C13A C 0.705(2) 1.354(2) -0.5948(17)
H9A H 0.7789 1.4022 -0.6357
C14A C 0.687(2) 1.2774(19) -0.4611(16)
H10A H 0.7521 1.2710 -0.4142
C15A C 0.9998(17) 1.0633(15) 0.0900(15)
H11A H 0.9932 1.1092 0.1545
C16A C 0.8584(18) 1.0662(15) 0.0846(15)
H12A H 0.7577 1.1146 0.1471
N1A N 1.1448(14) 0.9957(14) 0.0044(13)
O1A O 0.2520(10) 1.1951(10) 0.0637(10)
O1A_2 O 1.2520(10) 1.1951(10) 0.0637(10)
O2A O 0.4835(11) 1.2030(10) 0.0592(10)
O2_2 O 1.5165(11) 0.7970(10) -0.0592(10)
O3A O 0.4237(12) 1.0951(10) -0.1966(10)
O3A_2 O 1.4237(12) 1.0951(10) -0.1966(10)
O4A O 0.6544(11) 1.1075(10) -0.2013(10)
O4_2 O 1.3456(11) 0.8925(10) 0.2013(10)
Rh1A Rh 1.37684(17) 0.99538(15) 0.00203(16)
Rh1A_2 Rh 0.37684(17) 0.99538(15) 0.00203(16)
Rh1_2 Rh 1.62316(17) 1.00462(15) -0.00203(16)
C17 C 0.862(4) 0.841(4) 0.535(3)
loop_
_geom_bond_atom_site_label_1
_geom_bond_atom_site_label_2
_geom_bond_site_symmetry_1
_geom_bond_site_symmetry_2
C1 C2 1_555 1_555
C2 C3 1_555 1_555
C3 H1 1_555 1_555
C4 C3 1_555 1_555
H2 C4 1_555 1_555
C5 C4 1_555 1_555
H3 C5 1_555 1_555
C6 C5 1_555 1_555
H4 C6 1_555 1_555
C7 C2 1_555 1_555
H5 C7 1_555 1_555
C8 C9 1_555 1_555
C9 C10 1_555 1_555
C10 H6 1_555 1_555
C11 C10 1_555 1_555
H7 C11 1_555 1_555
C12 C11 1_555 1_555
H8 C12 1_555 1_555
C13 C12 1_555 1_555
H9 C13 1_555 1_555
C14 C9 1_555 1_555
H10 C14 1_555 1_555
C15 H11 1_555 1_555
C16 C15 1_555 1_555
H12 C16 1_555 1_555
N1 C15 1_555 1_555
O1 C1 1_555 1_555
O2 C1 1_555 1_555
O3 C8 1_555 1_555
O4 C8 1_555 1_555
Rh1 N1 1_555 1_555
C1A C2A 1_555 1_555
C2A C3A 1_555 1_555
C3A H1A 1_555 1_555
C4A C3A 1_555 1_555
H2A C4A 1_555 1_555
C5A C4A 1_555 1_555
H3A C5A 1_555 1_555
C6A C5A 1_555 1_555
H4A C6A 1_555 1_555
C7A C2A 1_555 1_555
H5A C7A 1_555 1_555
C8A C9A 1_555 1_555
C9A C10A 1_555 1_555
C10A H6A 1_555 1_555
C11A C10A 1_555 1_555
H7A C11A 1_555 1_555
C12A C11A 1_555 1_555
H8A C12A 1_555 1_555
C13A C12A 1_555 1_555
H9A C13A 1_555 1_555
C14A C9A 1_555 1_555
H10A C14A 1_555 1_555
C15A H11A 1_555 1_555
C16A N1 1_555 1_555
H12A C16A 1_555 1_555
N1A C16 1_555 1_555
O1A C1A 1_555 1_555
O1A_2 Rh1A 1_555 1_555
O2A Rh1 1_555 1_555
O2_2 Rh1A 1_555 1_555
O3A C8A 1_555 1_555
O3A_2 Rh1A 1_555 1_555
O4A Rh1 1_555 1_555
O4_2 Rh1A 1_555 1_555
Rh1A N1A 1_555 1_555
Rh1A_2 O2 1_555 1_555
Rh1_2 Rh1A 1_555 1_555
C6 C7 1_555 1_555
C13 C14 1_555 1_555
O1 Rh1 1_555 1_555
O3 Rh1 1_555 1_555
O4 Rh1A_2 1_555 1_555
Rh1 Rh1A_2 1_555 1_555
C1A O2A 1_555 1_555
C6A C7A 1_555 1_555
C8A O4A 1_555 1_555
C13A C14A 1_555 1_555
C15A C16A 1_555 1_555
C15A N1A 1_555 1_555
O1A Rh1A_2 1_555 1_555
O3A Rh1A_2 1_555 1_555

#END
