
#######################################################################
#
#                 Cambridge Crystallographic Data Centre
#                                CCDC 
#
#######################################################################
#
# If this CIF has been generated from an entry in the Cambridge 
# Structural Database, then it will include bibliographic, chemical, 
# crystal, experimental, refinement or atomic coordinate data resulting 
# from the CCDC's data processing and validation procedures.
#
#######################################################################

data_RAQKUP01
_symmetry_cell_setting           monoclinic
_symmetry_space_group_name_H-M   'C 2/c'
_symmetry_Int_Tables_number      15
_space_group_name_Hall           '-C 2yn'
loop_
_symmetry_equiv_pos_site_id
_symmetry_equiv_pos_as_xyz
1 x,y,z
2 1/2+x,1/2+y,z
3 x,-y,1/2+z
4 1/2+x,1/2-y,1/2+z
5 -x,-y,-z
6 1/2-x,1/2-y,-z
7 -x,y,1/2-z
8 1/2-x,1/2+y,1/2-z
_cell_length_a                   16.400(3)
_cell_length_b                   11.132(2)
_cell_length_c                   8.240(2)
_cell_angle_alpha                90
_cell_angle_beta                 103.02(2)
_cell_angle_gamma                90
_cell_volume                     1465.66
loop_
_atom_site_label
_atom_site_type_symbol
_atom_site_fract_x
_atom_site_fract_y
_atom_site_fract_z
Pb1 Pb 0.00000 0.07182(5) -1.25000
I1 I -0.13080(4) 0.10012(7) -1.01873(9)
N1 N -0.0690(4) 0.2611(8) -1.3814(9)
C1 C -0.0365(6) 0.371(1) -1.319(1)
C2 C 0.075(1) 0.477(1) -1.117(2)
C3 C 0.145(1) 0.474(2) -0.989(3)
C4 C 0.1747(8) 0.368(2) -0.930(2)
C5 C 0.1354(8) 0.261(1) -0.996(2)
C6 C 0.035(1) 0.586(1) -1.187(3)
H1 H -0.17232 0.54629 -1.55639
H2 H -0.22301 0.36483 -1.65854
H3 H -0.15807 0.18624 -1.54866
H4 H -0.05806 0.66029 -1.35774
Pb1B Pb 0.00000 -0.07182(5) -0.75000
I1B I -0.13080(4) -0.10012(7) -1.51873(9)
I1D I 0.13080(4) -0.10012(7) -0.98127(9)
I1F I 0.13080(4) 0.10012(7) -1.48127(9)
C1F C 0.0365(6) 0.371(1) -1.181(1)
N1F N 0.0690(4) 0.2611(8) -1.1186(9)
C6F C -0.035(1) 0.586(1) -1.313(3)
C2F C -0.075(1) 0.477(1) -1.383(2)
C3F C -0.145(1) 0.474(2) -1.511(3)
C4F C -0.1747(8) 0.368(2) -1.570(2)
C5F C -0.1354(8) 0.261(1) -1.504(2)
H4F H 0.05806 0.66029 -1.14226
H1F H 0.17232 0.54629 -0.94361
H2F H 0.22301 0.36483 -0.84146
H3F H 0.15807 0.18624 -0.95134
loop_
_geom_bond_atom_site_label_1
_geom_bond_atom_site_label_2
_geom_bond_site_symmetry_1
_geom_bond_site_symmetry_2
Pb1 I1 1_555 1_555
I1 Pb1B 1_555 1_555
N1 Pb1 1_555 1_555
C1 N1 1_555 1_555
C2 C3 1_555 1_555
C3 C4 1_555 1_555
C4 C5 1_555 1_555
C5 N1F 1_555 1_555
C6 C2 1_555 1_555
H1 C3F 1_555 1_555
H2 C4F 1_555 1_555
H3 C5F 1_555 1_555
H4 C6F 1_555 1_555
Pb1B I1D 1_555 1_555
I1B Pb1 1_555 1_555
I1D Pb1 1_555 1_555
I1F Pb1 1_555 1_555
C1F C1 1_555 1_555
N1F Pb1 1_555 1_555
C6F C6 1_555 1_555
C2F C1 1_555 1_555
C3F C2F 1_555 1_555
C4F C3F 1_555 1_555
C5F N1 1_555 1_555
H4F C6 1_555 1_555
H1F C3 1_555 1_555
H2F C4 1_555 1_555
H3F C5 1_555 1_555
C2 C1F 1_555 1_555
C1F N1F 1_555 1_555
C6F C2F 1_555 1_555
C4F C5F 1_555 1_555

#END
