
#######################################################################
#
#                 Cambridge Crystallographic Data Centre
#                                CCDC 
#
#######################################################################
#
# If this CIF has been generated from an entry in the Cambridge 
# Structural Database, then it will include bibliographic, chemical, 
# crystal, experimental, refinement or atomic coordinate data resulting 
# from the CCDC's data processing and validation procedures.
#
#######################################################################

data_RAQKUP
_symmetry_cell_setting           monoclinic
_symmetry_space_group_name_H-M   'C 2/c'
_symmetry_Int_Tables_number      15
_space_group_name_Hall           '-C 2yn'
loop_
_symmetry_equiv_pos_site_id
_symmetry_equiv_pos_as_xyz
1 x,y,z
2 -x,y,1/2-z
3 1/2+x,1/2+y,z
4 1/2-x,1/2+y,1/2-z
5 -x,-y,-z
6 x,-y,1/2+z
7 1/2-x,1/2-y,-z
8 1/2+x,1/2-y,1/2+z
_cell_length_a                   16.417(7)
_cell_length_b                   11.146(4)
_cell_length_c                   8.263(6)
_cell_angle_alpha                90
_cell_angle_beta                 103.13(5)
_cell_angle_gamma                90
_cell_volume                     1472.47
loop_
_atom_site_label
_atom_site_type_symbol
_atom_site_fract_x
_atom_site_fract_y
_atom_site_fract_z
Pb1 Pb 1.0000 0.07172(5) 0.2500
N1 N 0.9314(5) 0.2615(9) 0.116(1)
C1 C 0.8634(9) 0.265(1) -0.006(2)
C2 C 0.824(1) 0.365(2) -0.074(2)
C3 C 0.855(1) 0.474(2) -0.012(2)
C4 C 0.925(1) 0.479(1) 0.118(2)
C5 C 0.9624(7) 0.368(1) 0.180(2)
C6 C 0.964(1) 0.587(1) 0.188(3)
I1 I 0.86921(5) 0.10010(8) 0.4812(1)
H1 H 0.8394 0.1859 -0.0516
H2 H 0.7743 0.3602 -0.1643
H3 H 0.8256 0.5469 -0.0600
H4 H 0.9400 0.6651 0.1467
C5A C 1.0376(7) 0.368(1) 0.320(2)
N1A N 1.0686(5) 0.2615(9) 0.384(1)
Pb1D Pb 1.0000 -0.07172(5) 0.7500
I1D I 1.13079(5) -0.10010(8) 0.5188(1)
I1A I 1.13079(5) 0.10010(8) 0.0188(1)
I1E I 0.86921(5) -0.10010(8) -0.0188(1)
C1A C 1.1366(9) 0.265(1) 0.506(2)
C2A C 1.176(1) 0.365(2) 0.574(2)
C3A C 1.145(1) 0.474(2) 0.512(2)
C4A C 1.075(1) 0.479(1) 0.382(2)
C6A C 1.036(1) 0.587(1) 0.312(3)
H4A H 1.0600 0.6651 0.3533
H3A H 1.1744 0.5469 0.5600
H2A H 1.2257 0.3602 0.6643
H1A H 1.1606 0.1859 0.5516
loop_
_geom_bond_atom_site_label_1
_geom_bond_atom_site_label_2
_geom_bond_site_symmetry_1
_geom_bond_site_symmetry_2
Pb1 N1 1_555 1_555
N1 C1 1_555 1_555
C1 C2 1_555 1_555
C2 C3 1_555 1_555
C3 C4 1_555 1_555
C4 C5 1_555 1_555
C5 N1 1_555 1_555
C6 C4 1_555 1_555
I1 Pb1 1_555 1_555
H1 C1 1_555 1_555
H2 C2 1_555 1_555
H3 C3 1_555 1_555
H4 C6 1_555 1_555
C5A C5 1_555 1_555
N1A Pb1 1_555 1_555
Pb1D I1 1_555 1_555
I1D Pb1 1_555 1_555
I1A Pb1 1_555 1_555
I1E Pb1 1_555 1_555
C1A N1A 1_555 1_555
C2A C1A 1_555 1_555
C3A C2A 1_555 1_555
C4A C5A 1_555 1_555
C6A C6 1_555 1_555
H4A C6A 1_555 1_555
H3A C3A 1_555 1_555
H2A C2A 1_555 1_555
H1A C1A 1_555 1_555
C5A N1A 1_555 1_555
Pb1D I1D 1_555 1_555
C3A C4A 1_555 1_555
C4A C6A 1_555 1_555

#END
