
#######################################################################
#
#                 Cambridge Crystallographic Data Centre
#                                CCDC 
#
#######################################################################
#
# If this CIF has been generated from an entry in the Cambridge 
# Structural Database, then it will include bibliographic, chemical, 
# crystal, experimental, refinement or atomic coordinate data resulting 
# from the CCDC's data processing and validation procedures.
#
#######################################################################

data_RAQLUQ
_symmetry_cell_setting           monoclinic
_symmetry_space_group_name_H-M   'C 2/c'
_symmetry_Int_Tables_number      15
_space_group_name_Hall           '-C 2yn'
loop_
_symmetry_equiv_pos_site_id
_symmetry_equiv_pos_as_xyz
1 x,y,z
2 -x,y,1/2-z
3 1/2+x,1/2+y,z
4 1/2-x,1/2+y,1/2-z
5 -x,-y,-z
6 x,-y,1/2+z
7 1/2-x,1/2-y,-z
8 1/2+x,1/2-y,1/2+z
_cell_length_a                   17.655(6)
_cell_length_b                   12.027(3)
_cell_length_c                   6.794(1)
_cell_angle_alpha                90
_cell_angle_beta                 107.03(2)
_cell_angle_gamma                90
_cell_volume                     1379.36
loop_
_atom_site_label
_atom_site_type_symbol
_atom_site_fract_x
_atom_site_fract_y
_atom_site_fract_z
Pb1 Pb 0.0000 0.15578(3) 0.2500
N1 N 0.0758(3) 0.3312(5) 0.2496(9)
C1 C 0.1549(5) 0.3284(7) 0.274(1)
C2 C 0.2013(5) 0.4207(9) 0.300(1)
C3 C 0.1681(6) 0.5230(9) 0.299(1)
C4 C 0.0877(6) 0.5292(7) 0.279(1)
C5 C 0.0422(4) 0.4324(6) 0.256(1)
S1 S 0.1123(1) 0.0687(2) -0.0122(3)
C6 C 0.0940(4) 0.1477(6) -0.217(1)
N2 N 0.0813(4) 0.2018(6) -0.362(1)
H1 H 0.1802 0.2562 0.2703
H2 H 0.2581 0.4142 0.3267
H3 H 0.1999 0.5898 0.3115
H4 H 0.0625 0.6011 0.2843
C5A C -0.0422(4) 0.4324(6) 0.244(1)
N1A N -0.0758(3) 0.3312(5) 0.2504(9)
C1A C -0.1549(5) 0.3284(7) 0.226(1)
C2A C -0.2013(5) 0.4207(9) 0.200(1)
C3A C -0.1681(6) 0.5230(9) 0.201(1)
C4A C -0.0877(6) 0.5292(7) 0.221(1)
H4A H -0.0625 0.6011 0.2157
H3A H -0.1999 0.5898 0.1885
H2A H -0.2581 0.4142 0.1733
H1A H -0.1802 0.2562 0.2297
S1A S -0.1123(1) 0.0687(2) 0.5122(3)
S1D S -0.1123(1) -0.0687(2) 0.0122(3)
S1E S 0.1123(1) -0.0687(2) 0.4878(3)
N2_2 N 0.0813(4) 0.2018(6) 0.638(1)
N2A N -0.0813(4) 0.2018(6) -0.138(1)
Pb1D Pb 0.0000 -0.15578(3) -0.2500
Pb1_2 Pb 0.0000 0.15578(3) -0.7500
Pb1D_2 Pb 0.0000 -0.15578(3) 0.7500
Pb1_3 Pb 0.0000 0.15578(3) 1.2500
C6_2 C 0.0940(4) 0.1477(6) 0.783(1)
S1_2 S 0.1123(1) 0.0687(2) 0.9878(3)
loop_
_geom_bond_atom_site_label_1
_geom_bond_atom_site_label_2
_geom_bond_site_symmetry_1
_geom_bond_site_symmetry_2
Pb1 N1 1_555 1_555
N1 C1 1_555 1_555
C1 C2 1_555 1_555
C2 C3 1_555 1_555
C3 C4 1_555 1_555
C4 C5 1_555 1_555
C5 N1 1_555 1_555
S1 Pb1 1_555 1_555
C6 S1 1_555 1_555
N2 C6 1_555 1_555
H1 C1 1_555 1_555
H2 C2 1_555 1_555
H3 C3 1_555 1_555
H4 C4 1_555 1_555
C5A C5 1_555 1_555
N1A Pb1 1_555 1_555
C1A N1A 1_555 1_555
C2A C1A 1_555 1_555
C3A C2A 1_555 1_555
C4A C5A 1_555 1_555
H4A C4A 1_555 1_555
H3A C3A 1_555 1_555
H2A C2A 1_555 1_555
H1A C1A 1_555 1_555
S1A Pb1 1_555 1_555
S1D Pb1 1_555 1_555
S1E Pb1 1_555 1_555
N2_2 Pb1 1_555 1_555
N2A Pb1 1_555 1_555
Pb1D S1 1_555 1_555
Pb1_2 N2 1_555 1_555
Pb1D_2 S1A 1_555 1_555
Pb1_3 S1_2 1_555 1_555
C6_2 N2_2 1_555 1_555
S1_2 Pb1D_2 1_555 1_555
C5A N1A 1_555 1_555
C3A C4A 1_555 1_555
S1D Pb1D 1_555 1_555
S1E Pb1D_2 1_555 1_555
C6_2 S1_2 1_555 1_555

#END
