
#######################################################################
#
#                 Cambridge Crystallographic Data Centre
#                                CCDC 
#
#######################################################################
#
# If this CIF has been generated from an entry in the Cambridge 
# Structural Database, then it will include bibliographic, chemical, 
# crystal, experimental, refinement or atomic coordinate data resulting 
# from the CCDC's data processing and validation procedures.
#
#######################################################################

data_RAQLAW
_symmetry_cell_setting           monoclinic
_symmetry_space_group_name_H-M   'C 2/c'
_symmetry_Int_Tables_number      15
_space_group_name_Hall           '-C 2yn'
loop_
_symmetry_equiv_pos_site_id
_symmetry_equiv_pos_as_xyz
1 x,y,z
2 -x,y,1/2-z
3 1/2+x,1/2+y,z
4 1/2-x,1/2+y,1/2-z
5 -x,-y,-z
6 x,-y,1/2+z
7 1/2-x,1/2-y,-z
8 1/2+x,1/2-y,1/2+z
_cell_length_a                   16.080(4)
_cell_length_b                   10.588(4)
_cell_length_c                   8.248(3)
_cell_angle_alpha                90
_cell_angle_beta                 104.77(3)
_cell_angle_gamma                90
_cell_volume                     1357.86
loop_
_atom_site_label
_atom_site_type_symbol
_atom_site_fract_x
_atom_site_fract_y
_atom_site_fract_z
Pb1 Pb 1.0000 0.06158(4) 0.2500
N1 N 0.9302(6) 0.2617(7) 0.1148(9)
C1 C 0.8609(8) 0.264(1) -0.012(1)
C2 C 0.8204(9) 0.372(2) -0.081(2)
C3 C 0.852(1) 0.483(2) -0.017(2)
C4 C 0.9242(9) 0.489(1) 0.116(2)
C5 C 0.9635(7) 0.3731(8) 0.182(1)
C6 C 0.966(1) 0.603(1) 0.190(2)
Br1 Br 0.87465(8) 0.0902(1) 0.4613(1)
H1 H 0.8371 0.1812 -0.0606
H2 H 0.7691 0.3691 -0.1753
H3 H 0.8225 0.5600 -0.0663
H4 H 0.9430 0.6842 0.1458
C5A C 1.0365(7) 0.3731(8) 0.318(1)
N1A N 1.0698(6) 0.2617(7) 0.3852(9)
Pb1D Pb 1.0000 -0.06158(4) 0.7500
Br1D Br 1.12535(8) -0.0902(1) 0.5387(1)
Br1A Br 1.12535(8) 0.0902(1) 0.0387(1)
Br1E Br 0.87465(8) -0.0902(1) -0.0387(1)
C1A C 1.1391(8) 0.264(1) 0.512(1)
C2A C 1.1796(9) 0.372(2) 0.581(2)
C3A C 1.148(1) 0.483(2) 0.517(2)
C4A C 1.0758(9) 0.489(1) 0.384(2)
C6A C 1.034(1) 0.603(1) 0.310(2)
H4A H 1.0570 0.6842 0.3542
H3A H 1.1775 0.5600 0.5663
H2A H 1.2309 0.3691 0.6753
H1A H 1.1629 0.1812 0.5606
loop_
_geom_bond_atom_site_label_1
_geom_bond_atom_site_label_2
_geom_bond_site_symmetry_1
_geom_bond_site_symmetry_2
Pb1 N1 1_555 1_555
N1 C1 1_555 1_555
C1 C2 1_555 1_555
C2 C3 1_555 1_555
C3 C4 1_555 1_555
C4 C5 1_555 1_555
C5 N1 1_555 1_555
C6 C4 1_555 1_555
Br1 Pb1 1_555 1_555
H1 C1 1_555 1_555
H2 C2 1_555 1_555
H3 C3 1_555 1_555
H4 C6 1_555 1_555
C5A C5 1_555 1_555
N1A Pb1 1_555 1_555
Pb1D Br1 1_555 1_555
Br1D Pb1 1_555 1_555
Br1A Pb1 1_555 1_555
Br1E Pb1 1_555 1_555
C1A N1A 1_555 1_555
C2A C1A 1_555 1_555
C3A C2A 1_555 1_555
C4A C5A 1_555 1_555
C6A C6 1_555 1_555
H4A C6A 1_555 1_555
H3A C3A 1_555 1_555
H2A C2A 1_555 1_555
H1A C1A 1_555 1_555
C5A N1A 1_555 1_555
Pb1D Br1D 1_555 1_555
C3A C4A 1_555 1_555
C4A C6A 1_555 1_555

#END
