
#######################################################################
#
#                 Cambridge Crystallographic Data Centre
#                                CCDC 
#
#######################################################################
#
# If this CIF has been generated from an entry in the Cambridge 
# Structural Database, then it will include bibliographic, chemical, 
# crystal, experimental, refinement or atomic coordinate data resulting 
# from the CCDC's data processing and validation procedures.
#
#######################################################################

data_RAQLOK
_symmetry_cell_setting           monoclinic
_symmetry_space_group_name_H-M   'P 21/c'
_symmetry_Int_Tables_number      14
_space_group_name_Hall           '-P 2ybc'
loop_
_symmetry_equiv_pos_site_id
_symmetry_equiv_pos_as_xyz
1 x,y,z
2 -x,1/2+y,1/2-z
3 -x,-y,-z
4 x,1/2-y,1/2+z
_cell_length_a                   15.336(5)
_cell_length_b                   9.476(5)
_cell_length_c                   8.191(3)
_cell_angle_alpha                90
_cell_angle_beta                 92.81(3)
_cell_angle_gamma                90
_cell_volume                     1188.92
loop_
_atom_site_label
_atom_site_type_symbol
_atom_site_fract_x
_atom_site_fract_y
_atom_site_fract_z
Pb1 Pb 0.24280(2) 0.18776(3) 0.35807(3)
N1 N 0.1797(5) -0.0499(8) 0.2961(8)
C1 C 0.1057(7) -0.062(1) 0.205(1)
C2 C 0.069(1) -0.189(2) 0.161(2)
C3 C 0.109(2) -0.308(2) 0.210(2)
C4 C 0.189(1) -0.299(1) 0.303(2)
C5 C 0.2210(8) -0.1664(9) 0.346(1)
N2 N 0.3232(5) -0.0143(8) 0.4974(9)
C6 C 0.3921(7) 0.008(1) 0.598(1)
C7 C 0.4449(9) -0.098(2) 0.655(1)
C8 C 0.429(1) -0.232(2) 0.607(2)
C9 C 0.355(1) -0.261(1) 0.505(2)
C10 C 0.3024(8) -0.1489(9) 0.454(1)
Cl1 Cl 0.1214(2) 0.1858(3) 0.5985(3)
Cl2 Cl 0.3521(2) 0.1261(3) 0.0811(3)
H1 H 0.0776 0.0209 0.1699
H2 H 0.0132 -0.1879 0.0982
H3 H 0.0862 -0.4000 0.1820
H4 H 0.2212 -0.3843 0.3332
H5 H 0.4051 0.1033 0.6328
H6 H 0.4929 -0.0795 0.7304
H7 H 0.4666 -0.3055 0.6430
H8 H 0.3421 -0.3549 0.4705
Pb1C Pb 0.24280(2) 0.31224(3) 0.85807(3)
Cl2C Cl 0.3521(2) 0.3739(3) 0.5811(3)
Cl1C Cl 0.1214(2) 0.3142(3) 0.0985(3)
loop_
_geom_bond_atom_site_label_1
_geom_bond_atom_site_label_2
_geom_bond_site_symmetry_1
_geom_bond_site_symmetry_2
Pb1 N1 1_555 1_555
N1 C1 1_555 1_555
C1 C2 1_555 1_555
C2 C3 1_555 1_555
C3 C4 1_555 1_555
C4 C5 1_555 1_555
C5 N1 1_555 1_555
N2 Pb1 1_555 1_555
C6 N2 1_555 1_555
C7 C6 1_555 1_555
C8 C7 1_555 1_555
C9 C8 1_555 1_555
C10 C5 1_555 1_555
Cl1 Pb1 1_555 1_555
Cl2 Pb1 1_555 1_555
H1 C1 1_555 1_555
H2 C2 1_555 1_555
H3 C3 1_555 1_555
H4 C4 1_555 1_555
H5 C6 1_555 1_555
H6 C7 1_555 1_555
H7 C8 1_555 1_555
H8 C9 1_555 1_555
Pb1C Cl1 1_555 1_555
Cl2C Pb1 1_555 1_555
Cl1C Pb1 1_555 1_555
N2 C10 1_555 1_555
C9 C10 1_555 1_555
Pb1C Cl2C 1_555 1_555

#END
