
#######################################################################
#
#                 Cambridge Crystallographic Data Centre
#                                CCDC 
#
#######################################################################
#
# If this CIF has been generated from an entry in the Cambridge 
# Structural Database, then it will include bibliographic, chemical, 
# crystal, experimental, refinement or atomic coordinate data resulting 
# from the CCDC's data processing and validation procedures.
#
#######################################################################

data_RAQLUQ01
_symmetry_cell_setting           monoclinic
_symmetry_space_group_name_H-M   'C 2/c'
_symmetry_Int_Tables_number      15
_space_group_name_Hall           '-C 2yn'
loop_
_symmetry_equiv_pos_site_id
_symmetry_equiv_pos_as_xyz
1 x,y,z
2 1/2+x,1/2+y,z
3 x,-y,1/2+z
4 1/2+x,1/2-y,1/2+z
5 -x,-y,-z
6 1/2-x,1/2-y,-z
7 -x,y,1/2-z
8 1/2-x,1/2+y,1/2-z
_cell_length_a                   17.653(10)
_cell_length_b                   12.029(7)
_cell_length_c                   6.793(4)
_cell_angle_alpha                90
_cell_angle_beta                 106.95(4)
_cell_angle_gamma                90
_cell_volume                     1379.82
loop_
_atom_site_label
_atom_site_type_symbol
_atom_site_fract_x
_atom_site_fract_y
_atom_site_fract_z
Pb1 Pb 0.0000 0.344140(16) -0.2500
S1 S -0.11213(7) 0.43118(10) 0.01243(19)
N1 N -0.0767(2) 0.1677(3) -0.2503(6)
N2 N -0.0808(3) 0.2981(4) 0.3642(7)
C1 C -0.1539(3) 0.1729(4) -0.2735(8)
H1 H -0.1767 0.2424 -0.2719
C2 C -0.2022(3) 0.0803(6) -0.2998(9)
H2 H -0.2563 0.0867 -0.3167
C3 C -0.1666(4) -0.0231(5) -0.3000(8)
H3 H -0.1967 -0.0877 -0.3138
C4 C -0.0855(3) -0.0298(4) -0.2793(7)
H4 H -0.0611 -0.0982 -0.2802
C5 C -0.0426(3) 0.0679(3) -0.2574(6)
C6 C -0.0937(3) 0.3529(3) 0.2169(7)
S1B S -0.11213(7) 0.56882(10) -0.48757(19)
S1D S 0.11213(7) 0.56882(10) -0.01243(19)
S1F S 0.11213(7) 0.43118(10) -0.51243(19)
N1F N 0.0767(2) 0.1677(3) -0.2497(6)
N2F N 0.0808(3) 0.2981(4) 0.1358(7)
Pb1B Pb 0.0000 0.655860(16) 0.2500
C5F C 0.0426(3) 0.0679(3) -0.2426(6)
N2_2 N -0.0808(3) 0.2981(4) -0.6358(7)
Pb1B_2 Pb 0.0000 0.655860(16) -0.7500
C6B C -0.0937(3) 0.6471(3) -0.2831(7)
C1F C 0.1539(3) 0.1729(4) -0.2265(8)
C4F C 0.0855(3) -0.0298(4) -0.2207(7)
Pb1_2 Pb 0.0000 0.344140(16) 0.7500
N2B N -0.0808(3) 0.7019(4) -0.1358(7)
H1F H 0.1767 0.2424 -0.2281
C2F C 0.2022(3) 0.0803(6) -0.2002(9)
C3F C 0.1666(4) -0.0231(5) -0.2000(8)
H4F H 0.0611 -0.0982 -0.2198
H2F H 0.2563 0.0867 -0.1833
H3F H 0.1967 -0.0877 -0.1862
loop_
_geom_bond_atom_site_label_1
_geom_bond_atom_site_label_2
_geom_bond_site_symmetry_1
_geom_bond_site_symmetry_2
Pb1 S1 1_555 1_555
S1 C6 1_555 1_555
N1 Pb1 1_555 1_555
N2 C6 1_555 1_555
C1 N1 1_555 1_555
H1 C1 1_555 1_555
C2 C1 1_555 1_555
H2 C2 1_555 1_555
C3 C2 1_555 1_555
H3 C3 1_555 1_555
C4 C3 1_555 1_555
H4 C4 1_555 1_555
C5 N1 1_555 1_555
S1B Pb1 1_555 1_555
S1D Pb1 1_555 1_555
S1F Pb1 1_555 1_555
N1F Pb1 1_555 1_555
N2F Pb1 1_555 1_555
Pb1B S1 1_555 1_555
C5F C5 1_555 1_555
N2_2 Pb1 1_555 1_555
Pb1B_2 S1B 1_555 1_555
C6B S1B 1_555 1_555
C1F N1F 1_555 1_555
C4F C5F 1_555 1_555
Pb1_2 N2 1_555 1_555
N2B Pb1B 1_555 1_555
H1F C1F 1_555 1_555
C2F C1F 1_555 1_555
C3F C4F 1_555 1_555
H4F C4F 1_555 1_555
H2F C2F 1_555 1_555
H3F C3F 1_555 1_555
C4 C5 1_555 1_555
S1D Pb1B 1_555 1_555
S1F Pb1B_2 1_555 1_555
N1F C5F 1_555 1_555
C6B N2B 1_555 1_555
C2F C3F 1_555 1_555

#END
