
#######################################################################
#
#                 Cambridge Crystallographic Data Centre
#                                CCDC 
#
#######################################################################
#
# If this CIF has been generated from an entry in the Cambridge 
# Structural Database, then it will include bibliographic, chemical, 
# crystal, experimental, refinement or atomic coordinate data resulting 
# from the CCDC's data processing and validation procedures.
#
#######################################################################

data_RAQLOL
_symmetry_cell_setting           monoclinic
_symmetry_space_group_name_H-M   'P 21/c'
_symmetry_Int_Tables_number      14
_space_group_name_Hall           '-P 2ybc'
loop_
_symmetry_equiv_pos_site_id
_symmetry_equiv_pos_as_xyz
1 x,y,z
2 -x,1/2+y,1/2-z
3 -x,-y,-z
4 x,1/2-y,1/2+z
_cell_length_a                   8.1703(12)
_cell_length_b                   13.656(2)
_cell_length_c                   18.262(3)
_cell_angle_alpha                90
_cell_angle_beta                 93.413(3)
_cell_angle_gamma                90
_cell_volume                     2033.94
loop_
_atom_site_label
_atom_site_type_symbol
_atom_site_fract_x
_atom_site_fract_y
_atom_site_fract_z
Zn1 Zn 0.28339(7) 0.48415(4) 1.06480(3)
P1 P 0.43048(16) 0.67925(9) 1.15141(6)
P2 P 1.19230(17) 1.12087(10) 0.71909(7)
P3 P 0.95299(16) 0.67077(9) 1.03438(7)
P4 P 0.65087(16) 1.12232(10) 0.57403(7)
O1 O 0.4409(4) 0.5931(2) 1.10207(17)
O2 O 0.5446(4) 0.6667(3) 1.22099(18)
H1 H 0.5371 0.7149 1.2474
O3 O 0.2587(4) 0.7063(3) 1.17262(18)
O4 O 1.2398(4) 1.0392(2) 0.67159(16)
O5 O 1.2150(4) 1.0865(3) 0.80205(17)
O6 O 1.2686(5) 1.2197(3) 0.7117(2)
H2 H 1.3681 1.2155 0.7201
O7 O 0.8859(4) 0.6183(2) 0.96875(16)
O8 O 1.0599(4) 0.7595(2) 1.01580(18)
O9 O 1.0456(4) 0.6050(2) 1.09267(17)
H3 H 1.0795 0.6387 1.1275
O10 O 0.7485(4) 1.0477(2) 0.53501(16)
O11 O 0.7156(4) 1.2274(2) 0.56412(17)
H4 H 0.6594 1.2659 0.5861
O12 O 0.4670(4) 1.1192(2) 0.55893(16)
N1 N 0.6354(4) 0.7507(3) 1.04668(18)
H5 H 0.5946 0.6968 1.0227
N2 N 0.8653(5) 1.0599(3) 0.6881(2)
H6 H 0.9000 1.0278 0.6482
C1 C 0.5049(6) 0.7813(3) 1.0977(2)
H7 H 0.4133 0.8098 1.0690
H8 H 0.5496 0.8312 1.1309
C2 C 0.6620(6) 0.8250(3) 0.9880(2)
H9 H 0.5565 0.8414 0.9640
H10 H 0.7278 0.7952 0.9516
C3 C 0.7444(6) 0.9184(3) 1.0140(2)
H11 H 0.8559 0.9045 1.0322
H12 H 0.6862 0.9459 1.0539
C4 C 0.7881(5) 0.7173(3) 1.0881(2)
H13 H 0.8309 0.7718 1.1174
H14 H 0.7585 0.6663 1.1218
C5 C 0.7462(7) 0.9919(3) 0.9515(3)
H15 H 0.8023 1.0506 0.9694
H16 H 0.6340 1.0099 0.9372
C6 C 0.8290(7) 0.9558(4) 0.8833(2)
H17 H 0.9434 0.9417 0.8963
H18 H 0.7770 0.8955 0.8661
C7 C 0.8180(7) 1.0308(4) 0.8222(2)
H19 H 0.8844 1.0873 0.8364
H20 H 0.7053 1.0524 0.8141
C8 C 0.8767(6) 0.9882(3) 0.7515(2)
H21 H 0.9897 0.9674 0.7598
H22 H 0.8115 0.9308 0.7382
C9 C 0.9748(6) 1.1476(3) 0.7004(2)
H23 H 0.9365 1.1847 0.7413
H24 H 0.9631 1.1891 0.6573
C10 C 0.6892(6) 1.0904(4) 0.6700(2)
H25 H 0.6637 1.1463 0.7000
H26 H 0.6170 1.0372 0.6820
O4C O 0.2398(4) 0.4608(2) 1.17159(16)
O7B O 0.1141(4) 0.3817(2) 1.03125(16)
O9_2 O 0.0456(4) 0.6050(2) 1.09267(17)
O10A O 0.2515(4) 0.5477(2) 0.96499(16)
O12C O 0.4670(4) 0.3808(2) 1.05893(16)
Zn1C Zn 1.28339(7) 1.01585(4) 0.56480(3)
Zn1B Zn 0.71661(7) 0.51585(4) 0.93520(3)
Zn1_2 Zn 1.28339(7) 0.48415(4) 1.06480(3)
Zn1A Zn 0.71661(7) 0.98415(4) 0.43520(3)
Zn1C_2 Zn 0.28339(7) 1.01585(4) 0.56480(3)
H3_2 H 0.0795 0.6387 1.1275
O13 O 0.337(8) 0.594(2) 0.3371(12)
O14? O 0.253(9) 0.6083(16) 0.322(2)
loop_
_geom_bond_atom_site_label_1
_geom_bond_atom_site_label_2
_geom_bond_site_symmetry_1
_geom_bond_site_symmetry_2
Zn1 O1 1_555 1_555
P1 O1 1_555 1_555
P2 O4 1_555 1_555
P3 O7 1_555 1_555
P4 O10 1_555 1_555
O2 P1 1_555 1_555
H1 O2 1_555 1_555
O3 P1 1_555 1_555
O4 Zn1C 1_555 1_555
O5 P2 1_555 1_555
O6 P2 1_555 1_555
H2 O6 1_555 1_555
O7 Zn1B 1_555 1_555
O8 P3 1_555 1_555
O9 P3 1_555 1_555
H3 O9 1_555 1_555
O10 Zn1A 1_555 1_555
O11 P4 1_555 1_555
H4 O11 1_555 1_555
O12 P4 1_555 1_555
N1 H5 1_555 1_555
N2 H6 1_555 1_555
C1 P1 1_555 1_555
H7 C1 1_555 1_555
H8 C1 1_555 1_555
C2 N1 1_555 1_555
H9 C2 1_555 1_555
H10 C2 1_555 1_555
C3 C2 1_555 1_555
H11 C3 1_555 1_555
H12 C3 1_555 1_555
C4 P3 1_555 1_555
H13 C4 1_555 1_555
H14 C4 1_555 1_555
C5 C3 1_555 1_555
H15 C5 1_555 1_555
H16 C5 1_555 1_555
C6 C5 1_555 1_555
H17 C6 1_555 1_555
H18 C6 1_555 1_555
C7 C6 1_555 1_555
H19 C7 1_555 1_555
H20 C7 1_555 1_555
C8 N2 1_555 1_555
H21 C8 1_555 1_555
H22 C8 1_555 1_555
C9 P2 1_555 1_555
H23 C9 1_555 1_555
H24 C9 1_555 1_555
C10 P4 1_555 1_555
H25 C10 1_555 1_555
H26 C10 1_555 1_555
O4C Zn1 1_555 1_555
O7B Zn1 1_555 1_555
O9_2 Zn1 1_555 1_555
O10A Zn1 1_555 1_555
O12C Zn1 1_555 1_555
Zn1_2 O9 1_555 1_555
Zn1C_2 O12 1_555 1_555
H3_2 O9_2 1_555 1_555
N1 C1 1_555 1_555
N1 C4 1_555 1_555
N2 C9 1_555 1_555
N2 C10 1_555 1_555
C7 C8 1_555 1_555

#END
