
#######################################################################
#
#                 Cambridge Crystallographic Data Centre
#                                CCDC 
#
#######################################################################
#
# If this CIF has been generated from an entry in the Cambridge 
# Structural Database, then it will include bibliographic, chemical, 
# crystal, experimental, refinement or atomic coordinate data resulting 
# from the CCDC's data processing and validation procedures.
#
#######################################################################

data_RAQMEC
_symmetry_cell_setting           orthorhombic
_symmetry_space_group_name_H-M   'P c a 21'
_symmetry_Int_Tables_number      29
_space_group_name_Hall           'P 2c -2ac'
loop_
_symmetry_equiv_pos_site_id
_symmetry_equiv_pos_as_xyz
1 x,y,z
2 -x,-y,1/2+z
3 1/2+x,-y,z
4 1/2-x,y,1/2+z
_cell_length_a                   17.120(3)
_cell_length_b                   7.9897(16)
_cell_length_c                   29.789(6)
_cell_angle_alpha                90
_cell_angle_beta                 90
_cell_angle_gamma                90
_cell_volume                     4074.65
loop_
_atom_site_label
_atom_site_type_symbol
_atom_site_fract_x
_atom_site_fract_y
_atom_site_fract_z
Mn1 Mn 0.26347(3) -0.00541(7) 0.345520(19)
Cr1 Cr 0.42430(3) -0.22573(7) 0.48170(2)
Cr2 Cr 0.37609(3) -0.51248(6) 0.24129(2)
O1 O 0.23712(16) 0.2065(4) 0.39234(10)
N1 N 0.29798(18) -0.2246(4) 0.30205(11)
N2 N 0.2205(2) -0.6072(6) 0.18815(14)
N3 N 0.4067(2) -0.2185(5) 0.17065(13)
N4 N 0.32149(16) -0.8187(4) 0.30412(11)
N5 N 0.36048(18) -0.0570(4) 0.39162(11)
N6 N 0.5982(2) -0.2477(5) 0.44346(14)
N7 N 0.4914(3) 0.0801(6) 0.53753(16)
N8 N 0.3535(2) -0.5551(5) 0.43238(15)
N9 N 0.48013(16) -0.4977(3) 0.27651(10)
N10 N 0.44746(19) -0.6669(4) 0.20368(11)
N11 N 0.31863(18) -0.1882(4) 0.51452(11)
N12 N 0.4404(2) -0.3694(4) 0.53807(11)
N13 N 0.17346(16) -0.1621(4) 0.38183(10)
N14 N 0.14851(17) 0.0297(4) 0.30976(11)
C1 C 0.3226(2) -0.3313(5) 0.28104(13)
C2 C 0.2752(2) -0.5658(5) 0.20663(14)
C3 C 0.3987(2) -0.3221(5) 0.19656(13)
C4 C 0.3421(2) -0.7073(5) 0.28296(13)
C5 C 0.3881(2) -0.1035(5) 0.42445(14)
C6 C 0.5369(2) -0.2490(5) 0.45676(13)
C7 C 0.4660(2) -0.0199(5) 0.51586(15)
C8 C 0.3812(2) -0.4410(6) 0.44956(14)
C9 C 0.4902(2) -0.4238(5) 0.31601(13)
H1 H 0.4475 -0.3738 0.3300
C10 C 0.5628(2) -0.4190(5) 0.33720(15)
H2 H 0.5685 -0.3670 0.3649
C11 C 0.6256(2) -0.4922(6) 0.31649(19)
H3 H 0.6750 -0.4868 0.3294
C12 C 0.6147(2) -0.5732(6) 0.27645(17)
H4 H 0.6566 -0.6259 0.2625
C13 C 0.5423(2) -0.5774(5) 0.25669(13)
C14 C 0.5244(2) -0.6670(5) 0.21548(13)
C15 C 0.5796(3) -0.7547(5) 0.19080(17)
H5 H 0.6321 -0.7530 0.1990
C16 C 0.5551(4) -0.8441(6) 0.15398(19)
H6 H 0.5917 -0.9031 0.1372
C17 C 0.4793(3) -0.8484(6) 0.14168(17)
H7 H 0.4629 -0.9117 0.1172
C18 C 0.4260(3) -0.7540(5) 0.16710(15)
H8 H 0.3739 -0.7517 0.1583
C19 C 0.2635(2) -0.0808(6) 0.50361(16)
H9 H 0.2709 -0.0154 0.4781
C20 C 0.1960(3) -0.0596(8) 0.5275(2)
H10 H 0.1581 0.0159 0.5179
C21 C 0.1851(3) -0.1527(8) 0.5660(2)
H11 H 0.1396 -0.1424 0.5829
C22 C 0.2431(3) -0.2607(7) 0.57886(17)
H12 H 0.2376 -0.3226 0.6051
C23 C 0.3096(3) -0.2785(6) 0.55315(14)
C24 C 0.3768(3) -0.3869(5) 0.56411(13)
C25 C 0.3775(4) -0.4959(7) 0.60019(17)
H13 H 0.3332 -0.5102 0.6179
C26 C 0.4445(4) -0.5820(7) 0.60936(19)
H14 H 0.4453 -0.6581 0.6330
C27 C 0.5092(4) -0.5583(7) 0.58476(17)
H15 H 0.5556 -0.6119 0.5922
C28 C 0.5056(3) -0.4545(6) 0.54874(15)
H16 H 0.5497 -0.4419 0.5308
C29 C 0.1890(2) -0.2623(5) 0.41574(13)
H17 H 0.2410 -0.2865 0.4221
C30 C 0.1326(3) -0.3325(6) 0.44207(16)
H18 H 0.1459 -0.4052 0.4652
C31 C 0.0564(3) -0.2940(6) 0.43379(16)
H19 H 0.0172 -0.3331 0.4527
C32 C 0.0384(2) -0.1982(5) 0.39769(15)
H20 H -0.0135 -0.1759 0.3907
C33 C 0.0983(2) -0.1329(4) 0.37105(13)
C34 C 0.0847(2) -0.0390(4) 0.32916(13)
C35 C 0.0102(2) -0.0263(5) 0.30915(16)
H21 H -0.0336 -0.0704 0.3233
C36 C 0.0037(3) 0.0523(6) 0.26837(17)
H22 H -0.0448 0.0599 0.2544
C37 C 0.0688(2) 0.1202(5) 0.24804(15)
H23 H 0.0650 0.1731 0.2203
C38 C 0.1397(2) 0.1076(5) 0.26982(14)
H24 H 0.1835 0.1550 0.2564
H25 H 0.1922 0.2281 0.4080
H26 H 0.2663 0.2564 0.4076
Mn1_2 Mn 0.26347(3) -1.00541(7) 0.345520(19)
N4_2 N 0.32149(16) 0.1813(4) 0.30412(11)
O2 O 0.2410(5) -0.0362(13) 0.1739(4)
loop_
_geom_bond_atom_site_label_1
_geom_bond_atom_site_label_2
_geom_bond_site_symmetry_1
_geom_bond_site_symmetry_2
Mn1 O1 1_555 1_555
Cr1 N11 1_555 1_555
Cr2 N9 1_555 1_555
O1 H25 1_555 1_555
N1 Mn1 1_555 1_555
N2 C2 1_555 1_555
N3 C3 1_555 1_555
N4 C4 1_555 1_555
N5 Mn1 1_555 1_555
N6 C6 1_555 1_555
N7 C7 1_555 1_555
N8 C8 1_555 1_555
N9 C9 1_555 1_555
N10 Cr2 1_555 1_555
N11 C19 1_555 1_555
N12 Cr1 1_555 1_555
N13 Mn1 1_555 1_555
N14 Mn1 1_555 1_555
C1 Cr2 1_555 1_555
C2 Cr2 1_555 1_555
C3 Cr2 1_555 1_555
C4 Cr2 1_555 1_555
C5 Cr1 1_555 1_555
C6 Cr1 1_555 1_555
C7 Cr1 1_555 1_555
C8 Cr1 1_555 1_555
C9 H1 1_555 1_555
C10 C9 1_555 1_555
H2 C10 1_555 1_555
C11 C10 1_555 1_555
H3 C11 1_555 1_555
C12 C11 1_555 1_555
H4 C12 1_555 1_555
C13 N9 1_555 1_555
C14 N10 1_555 1_555
C15 C14 1_555 1_555
H5 C15 1_555 1_555
C16 C15 1_555 1_555
H6 C16 1_555 1_555
C17 C16 1_555 1_555
H7 C17 1_555 1_555
C18 N10 1_555 1_555
H8 C18 1_555 1_555
C19 H9 1_555 1_555
C20 C19 1_555 1_555
H10 C20 1_555 1_555
C21 C20 1_555 1_555
H11 C21 1_555 1_555
C22 C21 1_555 1_555
H12 C22 1_555 1_555
C23 N11 1_555 1_555
C24 N12 1_555 1_555
C25 C24 1_555 1_555
H13 C25 1_555 1_555
C26 C25 1_555 1_555
H14 C26 1_555 1_555
C27 C26 1_555 1_555
H15 C27 1_555 1_555
C28 N12 1_555 1_555
H16 C28 1_555 1_555
C29 N13 1_555 1_555
H17 C29 1_555 1_555
C30 C29 1_555 1_555
H18 C30 1_555 1_555
C31 C30 1_555 1_555
H19 C31 1_555 1_555
C32 C31 1_555 1_555
H20 C32 1_555 1_555
C33 N13 1_555 1_555
C34 N14 1_555 1_555
C35 C34 1_555 1_555
H21 C35 1_555 1_555
C36 C35 1_555 1_555
H22 C36 1_555 1_555
C37 C36 1_555 1_555
H23 C37 1_555 1_555
C38 N14 1_555 1_555
H24 C38 1_555 1_555
H26 O1 1_555 1_555
Mn1_2 N4 1_555 1_555
N4_2 Mn1 1_555 1_555
N1 C1 1_555 1_555
N5 C5 1_555 1_555
C12 C13 1_555 1_555
C13 C14 1_555 1_555
C17 C18 1_555 1_555
C22 C23 1_555 1_555
C23 C24 1_555 1_555
C27 C28 1_555 1_555
C32 C33 1_555 1_555
C33 C34 1_555 1_555
C37 C38 1_555 1_555

#END
