
#######################################################################
#
#                 Cambridge Crystallographic Data Centre
#                                CCDC 
#
#######################################################################
#
# If this CIF has been generated from an entry in the Cambridge 
# Structural Database, then it will include bibliographic, chemical, 
# crystal, experimental, refinement or atomic coordinate data resulting 
# from the CCDC's data processing and validation procedures.
#
#######################################################################

data_RAQMUS
_symmetry_cell_setting           triclinic
_symmetry_space_group_name_H-M   'P -1'
_symmetry_Int_Tables_number      2
_space_group_name_Hall           '-P 1'
loop_
_symmetry_equiv_pos_site_id
_symmetry_equiv_pos_as_xyz
1 x,y,z
2 -x,-y,-z
_cell_length_a                   8.3864(3)
_cell_length_b                   10.8986(3)
_cell_length_c                   12.9321(4)
_cell_angle_alpha                102.0137(11)
_cell_angle_beta                 92.9851(12)
_cell_angle_gamma                111.6520(11)
_cell_volume                     1063.68
loop_
_atom_site_label
_atom_site_type_symbol
_atom_site_fract_x
_atom_site_fract_y
_atom_site_fract_z
Mn1 Mn -0.55726(6) -0.21321(4) 0.20731(4)
Cr1 Cr -0.43583(6) -0.28553(4) -0.20111(4)
O1 O -0.8443(3) -0.2991(3) 0.1899(3)
O2 O -0.5847(4) -0.1862(2) 0.3809(2)
N1 N -0.8174(4) -0.4141(3) -0.3342(3)
N2 N -0.5578(4) -0.2580(3) 0.0304(2)
N3 N -0.4305(3) 0.0113(2) -0.2060(2)
N4 N -0.4406(4) -0.5831(3) -0.2062(2)
N5 N -0.1797(3) -0.2113(2) -0.13245(19)
N6 N -0.3110(3) -0.2825(2) -0.33502(19)
N7 N -0.2801(4) -0.1206(3) 0.2495(3)
N8 N -0.1494(4) -0.1301(3) 0.2636(2)
N9 N -0.0122(5) -0.1310(4) 0.2789(3)
C1 C -0.6826(5) -0.3688(3) -0.2849(3)
C2 C -0.5240(4) -0.2720(3) -0.0543(3)
C3 C -0.4288(4) -0.0920(3) -0.2023(2)
C4 C -0.4444(4) -0.4789(3) -0.2037(2)
C5 C -0.1220(4) -0.1851(3) -0.0288(3)
H1 H -0.2021 -0.1985 0.0191
C6 C 0.0510(4) -0.1390(3) 0.0100(3)
H2 H 0.0866 -0.1229 0.0826
C7 C 0.1697(4) -0.1174(3) -0.0595(3)
H3 H 0.2874 -0.0844 -0.0347
C8 C 0.1134(4) -0.1447(3) -0.1656(3)
H4 H 0.1929 -0.1313 -0.2139
C9 C -0.0621(4) -0.1924(3) -0.2016(3)
C10 C -0.1362(4) -0.2292(3) -0.3149(3)
C11 C -0.0364(5) -0.2151(3) -0.3975(3)
H5 H 0.0839 -0.1773 -0.3826
C12 C -0.1166(5) -0.2574(4) -0.5009(3)
H6 H -0.0511 -0.2496 -0.5568
C13 C -0.2938(5) -0.3114(3) -0.5213(3)
H7 H -0.3501 -0.3406 -0.5912
C14 C -0.3877(5) -0.3218(3) -0.4368(3)
H8 H -0.5080 -0.3571 -0.4507
C15 C -0.9600(7) -0.4242(6) 0.1363(5)
H9 H -0.9944 -0.4220 0.0650
H10 H -1.0601 -0.4497 0.1724
H11 H -0.9076 -0.4894 0.1337
H14 H -0.6991 -0.2018 0.3486
H15 H -0.6679 -0.2640 0.4139
H16 H -0.8693 -0.1937 0.1982
Mn1A Mn -0.44274(6) 0.21321(4) -0.20731(4)
Mn1A_2 Mn -0.44274(6) -0.78679(4) -0.20731(4)
N3A N -0.5695(3) -0.0113(2) 0.2060(2)
N4A N -0.5594(4) -0.4169(3) 0.2062(2)
O3 O -0.8138(4) -0.4182(3) 0.4299(2)
H12 H -0.9401 -0.4502 0.4038
H13 H -0.8617 -0.4198 0.4982
O4 O -0.7291(4) -0.0117(3) 0.4721(3)
H17 H -0.6390 -0.0653 0.4296
H18 H -0.6592 0.0807 0.5327
loop_
_geom_bond_atom_site_label_1
_geom_bond_atom_site_label_2
_geom_bond_site_symmetry_1
_geom_bond_site_symmetry_2
Mn1 O1 1_555 1_555
Cr1 N5 1_555 1_555
O1 C15 1_555 1_555
O2 Mn1 1_555 1_555
O3 H12 1_555 1_555
O4 H17 1_555 1_555
N1 C1 1_555 1_555
N2 Mn1 1_555 1_555
N3 C3 1_555 1_555
N4 C4 1_555 1_555
N5 C5 1_555 1_555
N6 Cr1 1_555 1_555
N7 Mn1 1_555 1_555
N8 N7 1_555 1_555
N9 N8 1_555 1_555
C1 Cr1 1_555 1_555
C2 Cr1 1_555 1_555
C3 Cr1 1_555 1_555
C4 Cr1 1_555 1_555
C5 H1 1_555 1_555
C6 C5 1_555 1_555
H2 C6 1_555 1_555
C7 C6 1_555 1_555
H3 C7 1_555 1_555
C8 C7 1_555 1_555
H4 C8 1_555 1_555
C9 N5 1_555 1_555
C10 N6 1_555 1_555
C11 C10 1_555 1_555
H5 C11 1_555 1_555
C12 C11 1_555 1_555
H6 C12 1_555 1_555
C13 C12 1_555 1_555
H7 C13 1_555 1_555
C14 N6 1_555 1_555
H8 C14 1_555 1_555
C15 H9 1_555 1_555
H10 C15 1_555 1_555
H11 C15 1_555 1_555
H13 O3 1_555 1_555
H14 O2 1_555 1_555
H15 O2 1_555 1_555
H16 O1 1_555 1_555
H18 O4 1_555 1_555
Mn1A N3 1_555 1_555
Mn1A_2 N4 1_555 1_555
N3A Mn1 1_555 1_555
N4A Mn1 1_555 1_555
N2 C2 1_555 1_555
C8 C9 1_555 1_555
C9 C10 1_555 1_555
C13 C14 1_555 1_555

#END
