
#######################################################################
#
#                 Cambridge Crystallographic Data Centre
#                                CCDC 
#
#######################################################################
#
# If this CIF has been generated from an entry in the Cambridge 
# Structural Database, then it will include bibliographic, chemical, 
# crystal, experimental, refinement or atomic coordinate data resulting 
# from the CCDC's data processing and validation procedures.
#
#######################################################################

data_RAQMAY
_symmetry_cell_setting           monoclinic
_symmetry_space_group_name_H-M   'P 21/n'
_symmetry_Int_Tables_number      14
_space_group_name_Hall           '-P 2yn'
loop_
_symmetry_equiv_pos_site_id
_symmetry_equiv_pos_as_xyz
1 x,y,z
2 1/2-x,1/2+y,1/2-z
3 -x,-y,-z
4 1/2+x,1/2-y,1/2+z
_cell_length_a                   11.285(3)
_cell_length_b                   18.167(5)
_cell_length_c                   16.144(4)
_cell_angle_alpha                90
_cell_angle_beta                 106.753(5)
_cell_angle_gamma                90
_cell_volume                     3169.28
loop_
_atom_site_label
_atom_site_type_symbol
_atom_site_fract_x
_atom_site_fract_y
_atom_site_fract_z
Cu1 Cu -0.05644(3) 0.048591(18) 0.75194(2)
Cu2 Cu 0.75684(3) -0.229020(19) 1.187080(19)
N1 N 0.0765(2) -0.01219(13) 0.82835(14)
N2 N 0.60950(19) -0.17582(13) 1.10778(13)
N3 N 0.6693(2) -0.23569(14) 1.27934(14)
N4 N 0.3520(2) -0.27085(13) 1.59736(14)
N5 N -0.1730(2) 0.12225(13) 0.67450(14)
O1 O -0.0729(2) -0.00517(13) 0.64509(14)
O2 O -0.1884(3) -0.01216(17) 0.50891(16)
O3 O -0.09680(19) 0.09961(12) 0.84609(13)
O4 O -0.2318(2) 0.17761(15) 0.87381(16)
O5 O 0.08818(17) 0.13001(11) 0.74343(13)
O6 O 0.08213(17) 0.25019(11) 0.72265(12)
O7 O 0.6930(2) -0.34659(13) 1.13479(17)
C1 C 0.1699(3) -0.03386(17) 0.79880(18)
H1 H 0.1632 -0.0273 0.7405
C2 C 0.2759(3) -0.06559(17) 0.85148(19)
H2 H 0.3387 -0.0809 0.8286
C3 C 0.2883(3) -0.07457(16) 0.93913(17)
C4 C 0.1906(3) -0.05244(18) 0.96913(19)
H3 H 0.1949 -0.0581 1.0272
C5 C 0.0876(3) -0.02205(18) 0.91226(19)
H4 H 0.0224 -0.0077 0.9331
C6 C 0.5577(3) -0.11700(17) 1.13284(18)
H5 H 0.5930 -0.0985 1.1882
C7 C 0.4545(3) -0.08243(17) 1.08064(18)
H6 H 0.4207 -0.0420 1.1010
C8 C 0.4013(2) -0.10836(15) 0.99746(17)
C9 C 0.4568(3) -0.16830(16) 0.97071(17)
H7 H 0.4255 -0.1866 0.9149
C10 C 0.5584(3) -0.20042(16) 1.02718(17)
H8 H 0.5934 -0.2412 1.0086
C11 C 0.7052(3) -0.1974(2) 1.35293(18)
H9 H 0.7719 -0.1653 1.3612
C12 C 0.6476(3) -0.2033(2) 1.41723(19)
H10 H 0.6758 -0.1757 1.4677
C13 C 0.5474(2) -0.25044(16) 1.40659(16)
C14 C 0.5106(3) -0.28963(17) 1.32987(18)
H11 H 0.4439 -0.3218 1.3196
C15 C 0.5733(3) -0.28073(18) 1.26867(18)
H12 H 0.5471 -0.3075 1.2175
C16 C 0.4278(3) -0.21377(17) 1.59814(18)
H13 H 0.4367 -0.1780 1.6407
C17 C 0.4933(3) -0.20595(17) 1.53827(18)
H14 H 0.5451 -0.1656 1.5412
C18 C 0.4814(2) -0.25843(16) 1.47376(16)
C19 C 0.4056(3) -0.31811(17) 1.47468(18)
H15 H 0.3965 -0.3551 1.4335
C20 C 0.3432(3) -0.32266(16) 1.53689(18)
H16 H 0.2931 -0.3634 1.5366
C21 C -0.2412(3) 0.07876(18) 0.5974(2)
H17 H -0.2647 0.1106 0.5471
H18 H -0.3162 0.0588 0.6066
C22 C -0.1611(3) 0.01633(19) 0.5814(2)
C23 C -0.2500(3) 0.1513(2) 0.7266(2)
H19 H -0.3284 0.1254 0.7114
H20 H -0.2670 0.2030 0.7129
C24 C -0.1884(3) 0.14348(16) 0.8233(2)
C25 C -0.0967(3) 0.18052(18) 0.6501(2)
H21 H -0.1383 0.2275 0.6485
H22 H -0.0916 0.1704 0.5923
C26 C 0.0330(2) 0.18688(16) 0.71060(16)
H23 H 0.738(3) -0.3834(16) 1.144(3)
H25 H 0.628(3) -0.357(3) 1.095(2)
Cu2C Cu 0.25684(3) -0.270980(19) 1.687080(19)
Cu2B Cu 0.24316(3) 0.229020(19) 0.812920(19)
N4C N 0.8520(2) -0.22915(13) 1.09736(14)
O5B O 0.91182(17) -0.13001(11) 1.25657(13)
O6B O 0.91787(17) -0.25019(11) 1.27735(12)
O8 O -0.3959(8) -0.0858(4) 0.8302(5)
O9 O -0.3969(5) -0.0343(5) 0.7102(6)
O10 O -0.2187(5) -0.0484(3) 0.8043(5)
O11 O -0.3170(6) -0.1499(3) 0.7529(4)
Cl1 Cl -0.33036(8) -0.07678(5) 0.77195(6)
O12 O -0.3298(3) 0.0225(2) 0.3442(2)
H27 H -0.316(7) 0.027(4) 0.3984(16)
H28 H -0.406(2) 0.023(5) 0.337(5)
O13 O -0.3268(3) 0.31344(19) 0.8838(2)
H24 H -0.299(4) 0.2731(15) 0.876(3)
H30 H -0.308(5) 0.342(2) 0.849(3)
O14 O 0.5325(3) 0.36541(16) 0.98735(19)
H26 H 0.567(4) 0.341(2) 0.959(3)
H29 H 0.563(4) 0.4069(15) 0.994(3)
loop_
_geom_bond_atom_site_label_1
_geom_bond_atom_site_label_2
_geom_bond_site_symmetry_1
_geom_bond_site_symmetry_2
Cu1 N1 1_555 1_555
Cu2 N2 1_555 1_555
N1 C1 1_555 1_555
N2 C6 1_555 1_555
N3 Cu2 1_555 1_555
N4 C16 1_555 1_555
N5 Cu1 1_555 1_555
O1 Cu1 1_555 1_555
O2 C22 1_555 1_555
O3 Cu1 1_555 1_555
O4 C24 1_555 1_555
O5 Cu1 1_555 1_555
O6 C26 1_555 1_555
O7 Cu2 1_555 1_555
O8 Cl1 1_555 1_555
O9 Cl1 1_555 1_555
O10 Cl1 1_555 1_555
O11 Cl1 1_555 1_555
O12 H27 1_555 1_555
O13 H24 1_555 1_555
O14 H26 1_555 1_555
C1 H1 1_555 1_555
C2 C1 1_555 1_555
H2 C2 1_555 1_555
C3 C2 1_555 1_555
C4 C3 1_555 1_555
H3 C4 1_555 1_555
C5 N1 1_555 1_555
H4 C5 1_555 1_555
C6 H5 1_555 1_555
C7 C6 1_555 1_555
H6 C7 1_555 1_555
C8 C3 1_555 1_555
C9 C8 1_555 1_555
H7 C9 1_555 1_555
C10 N2 1_555 1_555
H8 C10 1_555 1_555
C11 N3 1_555 1_555
H9 C11 1_555 1_555
C12 C11 1_555 1_555
H10 C12 1_555 1_555
C13 C12 1_555 1_555
C14 C13 1_555 1_555
H11 C14 1_555 1_555
C15 N3 1_555 1_555
H12 C15 1_555 1_555
C16 H13 1_555 1_555
C17 C16 1_555 1_555
H14 C17 1_555 1_555
C18 C13 1_555 1_555
C19 C18 1_555 1_555
H15 C19 1_555 1_555
C20 N4 1_555 1_555
H16 C20 1_555 1_555
C21 N5 1_555 1_555
H17 C21 1_555 1_555
H18 C21 1_555 1_555
C22 O1 1_555 1_555
C23 N5 1_555 1_555
H19 C23 1_555 1_555
H20 C23 1_555 1_555
C24 O3 1_555 1_555
C25 N5 1_555 1_555
H21 C25 1_555 1_555
H22 C25 1_555 1_555
C26 O5 1_555 1_555
H23 O7 1_555 1_555
H25 O7 1_555 1_555
H28 O12 1_555 1_555
H29 O14 1_555 1_555
H30 O13 1_555 1_555
Cu2C N4 1_555 1_555
Cu2B O5 1_555 1_555
N4C Cu2 1_555 1_555
O5B Cu2 1_555 1_555
O6B Cu2 1_555 1_555
O6 Cu2B 1_555 1_555
C4 C5 1_555 1_555
C7 C8 1_555 1_555
C9 C10 1_555 1_555
C14 C15 1_555 1_555
C17 C18 1_555 1_555
C19 C20 1_555 1_555
C21 C22 1_555 1_555
C23 C24 1_555 1_555
C25 C26 1_555 1_555

#END
