
#######################################################################
#
#                 Cambridge Crystallographic Data Centre
#                                CCDC 
#
#######################################################################
#
# If this CIF has been generated from an entry in the Cambridge 
# Structural Database, then it will include bibliographic, chemical, 
# crystal, experimental, refinement or atomic coordinate data resulting 
# from the CCDC's data processing and validation procedures.
#
#######################################################################

data_RAQNOM
_symmetry_cell_setting           monoclinic
_symmetry_space_group_name_H-M   'P 21/c'
_symmetry_Int_Tables_number      14
_space_group_name_Hall           '-P 2ybc'
loop_
_symmetry_equiv_pos_site_id
_symmetry_equiv_pos_as_xyz
1 x,y,z
2 -x,1/2+y,1/2-z
3 -x,-y,-z
4 x,1/2-y,1/2+z
_cell_length_a                   8.299(2)
_cell_length_b                   10.229(3)
_cell_length_c                   16.905(5)
_cell_angle_alpha                90
_cell_angle_beta                 101.47(2)
_cell_angle_gamma                90
_cell_volume                     1406.41
loop_
_atom_site_label
_atom_site_type_symbol
_atom_site_fract_x
_atom_site_fract_y
_atom_site_fract_z
Pb1 Pb 0.74265(7) 0.60035(5) 0.49447(3)
N1 N 0.669(1) 0.821(1) 0.5423(6)
C1 C 0.584(2) 0.806(1) 0.6020(9)
C2 C 0.547(2) 0.908(2) 0.6498(9)
C3 C 0.606(2) 1.029(2) 0.635(1)
C4 C 0.687(2) 1.047(1) 0.5738(9)
C5 C 0.721(2) 0.941(1) 0.5294(9)
N2 N 0.801(1) 0.964(1) 0.4674(7)
N3 N 0.809(2) 0.766(1) 0.3985(7)
C6 C 0.845(2) 0.702(1) 0.333(1)
C7 C 0.905(2) 0.765(2) 0.2722(9)
C8 C 0.932(2) 0.900(2) 0.280(1)
C9 C 0.890(2) 0.962(1) 0.343(1)
C10 C 0.833(2) 0.896(1) 0.4028(8)
I1 I 0.4056(1) 0.5832(1) 0.37235(6)
I2 I 1.1191(1) 0.67045(9) 0.58261(7)
H1 H 0.5452 0.7188 0.6117
H2 H 0.4843 0.8937 0.6914
H3 H 0.5893 1.1020 0.6694
H4 H 0.7233 1.1340 0.5612
H5 H 0.9089 1.0332 0.4697
H6 H 0.8252 0.6083 0.3282
H7 H 0.9273 0.7179 0.2260
H8 H 0.9778 0.9475 0.2401
H9 H 0.9013 1.0565 0.3469
Pb1B Pb 0.25735(7) 0.39965(5) 0.50553(3)
I1B I 0.5944(1) 0.4168(1) 0.62765(6)
I2B I 0.8809(1) 0.32955(9) 0.41739(7)
loop_
_geom_bond_atom_site_label_1
_geom_bond_atom_site_label_2
_geom_bond_site_symmetry_1
_geom_bond_site_symmetry_2
Pb1 N1 1_555 1_555
N1 C1 1_555 1_555
C1 C2 1_555 1_555
C2 C3 1_555 1_555
C3 C4 1_555 1_555
C4 C5 1_555 1_555
C5 N1 1_555 1_555
N2 C5 1_555 1_555
N3 Pb1 1_555 1_555
C6 N3 1_555 1_555
C7 C6 1_555 1_555
C8 C7 1_555 1_555
C9 C8 1_555 1_555
C10 N2 1_555 1_555
I1 Pb1 1_555 1_555
I2 Pb1 1_555 1_555
H1 C1 1_555 1_555
H2 C2 1_555 1_555
H3 C3 1_555 1_555
H4 C4 1_555 1_555
H5 N2 1_555 1_555
H6 C6 1_555 1_555
H7 C7 1_555 1_555
H8 C8 1_555 1_555
H9 C9 1_555 1_555
Pb1B I1 1_555 1_555
I1B Pb1 1_555 1_555
I2B Pb1 1_555 1_555
N3 C10 1_555 1_555
C9 C10 1_555 1_555
Pb1B I1B 1_555 1_555

#END
