
#######################################################################
#
#                 Cambridge Crystallographic Data Centre
#                                CCDC 
#
#######################################################################
#
# If this CIF has been generated from an entry in the Cambridge 
# Structural Database, then it will include bibliographic, chemical, 
# crystal, experimental, refinement or atomic coordinate data resulting 
# from the CCDC's data processing and validation procedures.
#
#######################################################################

data_RAQNIG
_symmetry_cell_setting           monoclinic
_symmetry_space_group_name_H-M   'P 21/a'
_symmetry_Int_Tables_number      14
_space_group_name_Hall           '-P 2yab'
loop_
_symmetry_equiv_pos_site_id
_symmetry_equiv_pos_as_xyz
1 x,y,z
2 1/2-x,1/2+y,-z
3 -x,-y,-z
4 1/2+x,1/2-y,z
_cell_length_a                   7.971(4)
_cell_length_b                   9.720(4)
_cell_length_c                   16.498(4)
_cell_angle_alpha                90
_cell_angle_beta                 95.96(4)
_cell_angle_gamma                90
_cell_volume                     1271.32
loop_
_atom_site_label
_atom_site_type_symbol
_atom_site_fract_x
_atom_site_fract_y
_atom_site_fract_z
Pb1 Pb 0.15077(7) 0.64972(6) 0.75495(4)
N1 N -0.016(2) 0.471(1) 0.6652(7)
C1 C -0.118(2) 0.534(2) 0.608(1)
C2 C -0.190(2) 0.470(2) 0.540(1)
C3 C -0.154(2) 0.332(2) 0.528(1)
C4 C -0.055(3) 0.267(2) 0.588(1)
C5 C 0.015(2) 0.335(2) 0.6560(9)
N2 N 0.112(2) 0.261(1) 0.715(1)
N3 N 0.208(2) 0.418(1) 0.8191(9)
C6 C 0.284(2) 0.438(2) 0.896(1)
C7 C 0.344(3) 0.333(2) 0.945(1)
C8 C 0.326(3) 0.201(2) 0.915(1)
C9 C 0.250(3) 0.181(2) 0.839(1)
C10 C 0.191(2) 0.292(2) 0.790(1)
Br1 Br 0.4642(2) 0.5901(2) 0.6669(1)
Br2 Br -0.1004(2) 0.6783(2) 0.8703(1)
H1 H -0.1430 0.6296 0.6154
H2 H -0.2649 0.5200 0.5007
H3 H -0.1981 0.2844 0.4791
H4 H -0.0313 0.1695 0.5821
H5 H 0.1329 0.1702 0.6962
H6 H 0.2961 0.5318 0.9169
H7 H 0.3980 0.3511 0.9988
H8 H 0.3676 0.1231 0.9482
H9 H 0.2355 0.0882 0.8181
Pb1C Pb 0.65077(7) 0.85028(6) 0.75495(4)
Br2C Br 0.3996(2) 0.8217(2) 0.8703(1)
Br1C Br -0.0358(2) 0.9099(2) 0.6669(1)
loop_
_geom_bond_atom_site_label_1
_geom_bond_atom_site_label_2
_geom_bond_site_symmetry_1
_geom_bond_site_symmetry_2
Pb1 N1 1_555 1_555
N1 C1 1_555 1_555
C1 C2 1_555 1_555
C2 C3 1_555 1_555
C3 C4 1_555 1_555
C4 C5 1_555 1_555
C5 N1 1_555 1_555
N2 C5 1_555 1_555
N3 Pb1 1_555 1_555
C6 N3 1_555 1_555
C7 C6 1_555 1_555
C8 C7 1_555 1_555
C9 C8 1_555 1_555
C10 N2 1_555 1_555
Br1 Pb1 1_555 1_555
Br2 Pb1 1_555 1_555
H1 C1 1_555 1_555
H2 C2 1_555 1_555
H3 C3 1_555 1_555
H4 C4 1_555 1_555
H5 N2 1_555 1_555
H6 C6 1_555 1_555
H7 C7 1_555 1_555
H8 C8 1_555 1_555
H9 C9 1_555 1_555
Pb1C Br1 1_555 1_555
Br2C Pb1 1_555 1_555
Br1C Pb1 1_555 1_555
N3 C10 1_555 1_555
C9 C10 1_555 1_555
Pb1C Br2C 1_555 1_555

#END
