
#######################################################################
#
#                 Cambridge Crystallographic Data Centre
#                                CCDC 
#
#######################################################################
#
# If this CIF has been generated from an entry in the Cambridge 
# Structural Database, then it will include bibliographic, chemical, 
# crystal, experimental, refinement or atomic coordinate data resulting 
# from the CCDC's data processing and validation procedures.
#
#######################################################################

data_RAQPUU
_symmetry_cell_setting           monoclinic
_symmetry_space_group_name_H-M   'C 2/c'
_symmetry_Int_Tables_number      15
_space_group_name_Hall           '-C 2yn'
loop_
_symmetry_equiv_pos_site_id
_symmetry_equiv_pos_as_xyz
1 x,y,z
2 -x,y,1/2-z
3 1/2+x,1/2+y,z
4 1/2-x,1/2+y,1/2-z
5 -x,-y,-z
6 x,-y,1/2+z
7 1/2-x,1/2-y,-z
8 1/2+x,1/2-y,1/2+z
_cell_length_a                   9.468(7)
_cell_length_b                   16.510(8)
_cell_length_c                   12.745(9)
_cell_angle_alpha                90
_cell_angle_beta                 124.21(4)
_cell_angle_gamma                90
_cell_volume                     1647.56
loop_
_atom_site_label
_atom_site_type_symbol
_atom_site_fract_x
_atom_site_fract_y
_atom_site_fract_z
Pb1 Pb 0.0000 0.3218(3) 0.2500
N1 N 0.0000 0.4740(5) 0.2500
C1 C -0.0832(9) 0.5152(5) 0.2889(7)
C2 C -0.086(1) 0.5996(6) 0.2908(8)
C3 C 0.0000 0.6416(8) 0.2500
N2 N -0.1501(8) 0.3873(4) 0.3398(6)
C4 C -0.171(1) 0.4679(5) 0.3349(7)
C5 C -0.271(1) 0.5013(6) 0.3718(9)
C6 C -0.347(1) 0.4526(8) 0.4132(9)
C7 C -0.326(1) 0.3703(7) 0.4164(9)
C8 C -0.227(1) 0.3404(6) 0.3783(8)
N3 N -0.1158(8) 0.1804(5) -0.0027(7)
O1 O 0.0127(8) 0.1713(5) 0.1055(6)
O2 O -0.2788(9) 0.3766(4) 0.0546(6)
O3 O -0.3587(9) 0.2558(4) 0.0640(8)
H1 H -0.1472 0.6288 0.3217
H2 H 0.0000 0.7007 0.2500
H3 H -0.2901 0.5602 0.3666
H4 H -0.4146 0.4755 0.4412
H5 H -0.3808 0.3344 0.4447
H6 H -0.2116 0.2816 0.3800
N2A N 0.1501(8) 0.3873(4) 0.1602(6)
O1A O -0.0127(8) 0.1713(5) 0.3945(6)
O2A O 0.2788(9) 0.3766(4) 0.4454(6)
O3A O 0.3587(9) 0.2558(4) 0.4360(8)
C1A C 0.0832(9) 0.5152(5) 0.2111(7)
C2A C 0.086(1) 0.5996(6) 0.2092(8)
O2F O -0.2212(9) 0.1234(4) -0.0546(6)
O3F O -0.1413(9) 0.2442(4) -0.0640(8)
N3F N -0.3842(8) 0.3196(5) 0.0027(7)
C4A C 0.171(1) 0.4679(5) 0.1651(7)
C8A C 0.227(1) 0.3404(6) 0.1217(8)
H1A H 0.1472 0.6288 0.1783
Pb1F Pb -0.5000 0.1782(3) -0.2500
O1F O -0.5127(8) 0.3287(5) -0.1055(6)
C5A C 0.271(1) 0.5013(6) 0.1282(9)
C7A C 0.326(1) 0.3703(7) 0.0836(9)
H6A H 0.2116 0.2816 0.1200
C6A C 0.347(1) 0.4526(8) 0.0868(9)
H3A H 0.2901 0.5602 0.1334
H5A H 0.3808 0.3344 0.0553
H4A H 0.4146 0.4755 0.0588
loop_
_geom_bond_atom_site_label_1
_geom_bond_atom_site_label_2
_geom_bond_site_symmetry_1
_geom_bond_site_symmetry_2
Pb1 N1 1_555 1_555
N1 C1 1_555 1_555
C1 C2 1_555 1_555
C2 C3 1_555 1_555
C3 H2 1_555 1_555
N2 Pb1 1_555 1_555
C4 C1 1_555 1_555
C5 C4 1_555 1_555
C6 C5 1_555 1_555
C7 C6 1_555 1_555
C8 N2 1_555 1_555
N3 O1 1_555 1_555
O1 Pb1 1_555 1_555
O2 Pb1 1_555 1_555
O3 Pb1 1_555 1_555
H1 C2 1_555 1_555
H3 C5 1_555 1_555
H4 C6 1_555 1_555
H5 C7 1_555 1_555
H6 C8 1_555 1_555
N2A Pb1 1_555 1_555
O1A Pb1 1_555 1_555
O2A Pb1 1_555 1_555
O3A Pb1 1_555 1_555
C1A N1 1_555 1_555
C2A C3 1_555 1_555
O2F N3 1_555 1_555
O3F N3 1_555 1_555
N3F O2 1_555 1_555
C4A N2A 1_555 1_555
C8A N2A 1_555 1_555
H1A C2A 1_555 1_555
Pb1F O2F 1_555 1_555
O1F N3F 1_555 1_555
C5A C4A 1_555 1_555
C7A C8A 1_555 1_555
H6A C8A 1_555 1_555
C6A C5A 1_555 1_555
H3A C5A 1_555 1_555
H5A C7A 1_555 1_555
H4A C6A 1_555 1_555
N2 C4 1_555 1_555
C7 C8 1_555 1_555
O3 N3F 1_555 1_555
C1A C2A 1_555 1_555
C1A C4A 1_555 1_555
O3F Pb1F 1_555 1_555
Pb1F O1F 1_555 1_555
C7A C6A 1_555 1_555

#END
