
#######################################################################
#
#                 Cambridge Crystallographic Data Centre
#                                CCDC 
#
#######################################################################
#
# If this CIF has been generated from an entry in the Cambridge 
# Structural Database, then it will include bibliographic, chemical, 
# crystal, experimental, refinement or atomic coordinate data resulting 
# from the CCDC's data processing and validation procedures.
#
#######################################################################

data_RAQQAB
_symmetry_cell_setting           monoclinic
_symmetry_space_group_name_H-M   'C 2/c'
_symmetry_Int_Tables_number      15
_space_group_name_Hall           '-C 2yn'
loop_
_symmetry_equiv_pos_site_id
_symmetry_equiv_pos_as_xyz
1 x,y,z
2 -x,y,1/2-z
3 1/2+x,1/2+y,z
4 1/2-x,1/2+y,1/2-z
5 -x,-y,-z
6 x,-y,1/2+z
7 1/2-x,1/2-y,-z
8 1/2+x,1/2-y,1/2+z
_cell_length_a                   9.046(2)
_cell_length_b                   20.304(8)
_cell_length_c                   9.803(3)
_cell_angle_alpha                90
_cell_angle_beta                 112.77(2)
_cell_angle_gamma                90
_cell_volume                     1660.2
loop_
_atom_site_label
_atom_site_type_symbol
_atom_site_fract_x
_atom_site_fract_y
_atom_site_fract_z
Pb1 Pb 0.0000 0.31210(1) 0.2500
N1 N 0.0000 0.4353(3) 0.2500
C1 C -0.0998(6) 0.4685(3) 0.2991(6)
C2 C -0.1014(8) 0.5372(3) 0.2982(8)
C3 C 0.0000 0.5704(4) 0.2500
N2 N -0.1987(6) 0.3648(3) 0.3377(6)
C4 C -0.2048(7) 0.4296(3) 0.3481(6)
C5 C -0.3095(8) 0.4583(4) 0.4082(8)
C6 C -0.4001(9) 0.4192(5) 0.4563(9)
C7 C -0.3918(9) 0.3527(5) 0.4417(9)
C8 C -0.293(1) 0.3277(4) 0.384(1)
N3 N -0.271(3) 0.194(1) 0.139(3)
O2 O -0.2104(9) 0.3478(3) -0.0001(9)
O3 O -0.122(2) 0.2900(8) -0.070(1)
H1 H -0.1720 0.5621 0.3348
H2 H 0.0000 0.6180 0.2500
H3 H -0.3143 0.5063 0.4148
H4 H -0.4735 0.4368 0.4939
H5 H -0.4550 0.3232 0.4753
H6 H -0.2870 0.2789 0.3749
N2A N 0.1987(6) 0.3648(3) 0.1623(6)
N3A N 0.271(3) 0.194(1) 0.361(3)
O2A O 0.2104(9) 0.3478(3) 0.5001(9)
O3A O 0.122(2) 0.2900(8) 0.570(1)
C1A C 0.0998(6) 0.4685(3) 0.2009(6)
C2A C 0.1014(8) 0.5372(3) 0.2018(8)
O2F O -0.2896(9) 0.1522(3) 0.0001(9)
O3F O -0.378(2) 0.2100(8) 0.070(1)
N3F N -0.229(3) 0.306(1) -0.139(3)
O1 O -0.5000 0.4009(5) -0.2500
loop_
_geom_bond_atom_site_label_1
_geom_bond_atom_site_label_2
_geom_bond_site_symmetry_1
_geom_bond_site_symmetry_2
Pb1 N1 1_555 1_555
N1 C1 1_555 1_555
C1 C2 1_555 1_555
C2 C3 1_555 1_555
C3 H2 1_555 1_555
N2 Pb1 1_555 1_555
C4 C1 1_555 1_555
C5 C4 1_555 1_555
C6 C5 1_555 1_555
C7 C6 1_555 1_555
C8 N2 1_555 1_555
N3 Pb1 1_555 1_555
O2 Pb1 1_555 1_555
O3 Pb1 1_555 1_555
H1 C2 1_555 1_555
H3 C5 1_555 1_555
H4 C6 1_555 1_555
H5 C7 1_555 1_555
H6 C8 1_555 1_555
N2A Pb1 1_555 1_555
N3A Pb1 1_555 1_555
O2A Pb1 1_555 1_555
O3A Pb1 1_555 1_555
C1A N1 1_555 1_555
C2A C3 1_555 1_555
O2F N3 1_555 1_555
O3F N3 1_555 1_555
N3F O2 1_555 1_555
N2 C4 1_555 1_555
C7 C8 1_555 1_555
O3 N3F 1_555 1_555
C1A C2A 1_555 1_555

#END
