
#######################################################################
#
#                 Cambridge Crystallographic Data Centre
#                                CCDC 
#
#######################################################################
#
# If this CIF has been generated from an entry in the Cambridge 
# Structural Database, then it will include bibliographic, chemical, 
# crystal, experimental, refinement or atomic coordinate data resulting 
# from the CCDC's data processing and validation procedures.
#
#######################################################################

data_RAQQUV
_symmetry_cell_setting           monoclinic
_symmetry_space_group_name_H-M   'P 21/c'
_symmetry_Int_Tables_number      14
_space_group_name_Hall           '-P 2ybc'
loop_
_symmetry_equiv_pos_site_id
_symmetry_equiv_pos_as_xyz
1 x,y,z
2 -x,1/2+y,1/2-z
3 -x,-y,-z
4 x,1/2-y,1/2+z
_cell_length_a                   10.531(1)
_cell_length_b                   12.856(2)
_cell_length_c                   16.874(3)
_cell_angle_alpha                90
_cell_angle_beta                 102.83(1)
_cell_angle_gamma                90
_cell_volume                     2227.48
loop_
_atom_site_label
_atom_site_type_symbol
_atom_site_fract_x
_atom_site_fract_y
_atom_site_fract_z
Pb1 Pb 0.25105(3) 0.09196(2) 0.01622(1)
N1 N 0.7383(5) -0.2764(4) -0.0684(3)
C1 C 0.7886(6) -0.3571(5) -0.0222(4)
N2 N 0.7960(5) -0.4534(4) -0.0488(3)
C2 C 0.7529(6) -0.4668(4) -0.1290(3)
N3 N 0.7016(5) -0.3907(4) -0.1809(3)
C3 C 0.6976(6) -0.2982(4) -0.1481(3)
N4 N 0.8363(5) -0.2362(4) 0.0893(3)
C4 C 0.8372(7) -0.3365(5) 0.0664(4)
C5 C 0.8807(7) -0.4158(6) 0.1204(4)
C6 C 0.9245(7) -0.3913(6) 0.2010(4)
C7 C 0.9256(7) -0.2894(6) 0.2252(4)
C8 C 0.8813(7) -0.2148(6) 0.1672(4)
N5 N 0.6533(5) -0.1168(4) -0.1688(3)
C9 C 0.6449(6) -0.2102(5) -0.2031(3)
C10 C 0.5973(7) -0.2270(5) -0.2845(4)
C11 C 0.5620(7) -0.1408(6) -0.3343(4)
C12 C 0.5747(7) -0.0435(6) -0.3001(4)
C13 C 0.6191(7) -0.0356(5) -0.2168(4)
N6 N 0.7986(6) -0.6501(4) -0.1118(4)
C14 C 0.7576(7) -0.5710(5) -0.1648(4)
C15 C 0.7208(7) -0.5856(6) -0.2474(4)
C16 C 0.7225(8) -0.6848(6) -0.2785(5)
C17 C 0.7642(8) -0.7646(6) -0.2254(5)
C18 C 0.8013(8) -0.7453(5) -0.1441(5)
N7 N 0.4866(6) -0.1181(4) 0.0409(3)
O1 O 0.5327(5) -0.1746(4) -0.0055(3)
O2 O 0.5601(6) -0.0537(4) 0.0829(3)
O3 O 0.3723(6) -0.1269(5) 0.0448(4)
N8 N 0.9989(6) -0.0599(5) -0.0903(3)
O4 O 0.9531(5) -0.1441(4) -0.0697(3)
O5 O 0.9318(6) 0.0191(4) -0.0937(3)
O6 O 0.8948(5) 0.0579(5) 0.1082(3)
H1 H 0.8813 -0.4891 0.1017
H2 H 0.9536 -0.4465 0.2411
H3 H 0.9566 -0.2724 0.2816
H4 H 0.8813 -0.1411 0.1849
H5 H 0.5905 -0.2973 -0.3073
H6 H 0.5271 -0.1496 -0.3925
H7 H 0.5527 0.0184 -0.3337
H8 H 0.6246 0.042 -0.1923
H9 H 0.8282 -0.8029 -0.1061
H10 H 0.7680 -0.8352 -0.2450
H11 H 0.6949 -0.6975 -0.3371
H12 H 0.6943 -0.5255 -0.2836
Pb1B Pb 0.74895(3) -0.09196(2) -0.01622(1)
O3B O 0.6277(6) 0.1269(5) -0.0448(4)
Pb1_2 Pb 1.25105(3) 0.09196(2) 0.01622(1)
O6B O 1.1052(5) -0.0579(5) -0.1082(3)
O7 O 0.609(1) 0.3563(6) 0.0627(4)
O8 O 0.884(1) 0.3346(5) 0.0641(4)
O9? O 0.472(3) 0.449(2) 0.023(1)
loop_
_geom_bond_atom_site_label_1
_geom_bond_atom_site_label_2
_geom_bond_site_symmetry_1
_geom_bond_site_symmetry_2
Pb1 O3 1_555 1_555
N1 C1 1_555 1_555
C1 N2 1_555 1_555
N2 C2 1_555 1_555
C2 N3 1_555 1_555
N3 C3 1_555 1_555
C3 N1 1_555 1_555
N4 C4 1_555 1_555
C4 C1 1_555 1_555
C5 C4 1_555 1_555
C6 C5 1_555 1_555
C7 C6 1_555 1_555
C8 N4 1_555 1_555
N5 C9 1_555 1_555
C9 C3 1_555 1_555
C10 C9 1_555 1_555
C11 C10 1_555 1_555
C12 C11 1_555 1_555
C13 N5 1_555 1_555
N6 C14 1_555 1_555
C14 C2 1_555 1_555
C15 C14 1_555 1_555
C16 C15 1_555 1_555
C17 C16 1_555 1_555
C18 N6 1_555 1_555
N7 O1 1_555 1_555
O1 Pb1B 1_555 1_555
O2 N7 1_555 1_555
O3 N7 1_555 1_555
N8 O4 1_555 1_555
O4 Pb1B 1_555 1_555
O5 N8 1_555 1_555
O6 Pb1B 1_555 1_555
H1 C5 1_555 1_555
H2 C6 1_555 1_555
H3 C7 1_555 1_555
H4 C8 1_555 1_555
H5 C10 1_555 1_555
H6 C11 1_555 1_555
H7 C12 1_555 1_555
H8 C13 1_555 1_555
H9 C18 1_555 1_555
H10 C17 1_555 1_555
H11 C16 1_555 1_555
H12 C15 1_555 1_555
Pb1B N1 1_555 1_555
O3B Pb1B 1_555 1_555
Pb1_2 O6B 1_555 1_555
O6B N8 1_555 1_555
N4 Pb1B 1_555 1_555
C7 C8 1_555 1_555
N5 Pb1B 1_555 1_555
C12 C13 1_555 1_555
C17 C18 1_555 1_555
O2 Pb1B 1_555 1_555
O5 Pb1B 1_555 1_555

#END
