
#######################################################################
#
#                 Cambridge Crystallographic Data Centre
#                                CCDC 
#
#######################################################################
#
# If this CIF has been generated from an entry in the Cambridge 
# Structural Database, then it will include bibliographic, chemical, 
# crystal, experimental, refinement or atomic coordinate data resulting 
# from the CCDC's data processing and validation procedures.
#
#######################################################################

data_RAQROQ
_symmetry_cell_setting           triclinic
_symmetry_space_group_name_H-M   'P -1'
_symmetry_Int_Tables_number      2
_space_group_name_Hall           '-P 1'
loop_
_symmetry_equiv_pos_site_id
_symmetry_equiv_pos_as_xyz
1 x,y,z
2 -x,-y,-z
_cell_length_a                   9.259(3)
_cell_length_b                   15.153(6)
_cell_length_c                   7.428(2)
_cell_angle_alpha                90.28(3)
_cell_angle_beta                 94.64(2)
_cell_angle_gamma                91.15(3)
_cell_volume                     1038.51
loop_
_atom_site_label
_atom_site_type_symbol
_atom_site_fract_x
_atom_site_fract_y
_atom_site_fract_z
Pb1 Pb 0.00172(7) 0.07350(4) 0.24990(9)
N1 N 0.003(1) 0.2473(7) 0.250(2)
C1 C 0.113(2) 0.2964(9) 0.197(2)
N2 N 0.120(1) 0.3845(7) 0.195(2)
C2 C 0.004(2) 0.423(1) 0.250(2)
N3 N -0.116(1) 0.3808(7) 0.300(2)
C3 C -0.108(1) 0.2931(9) 0.303(2)
N4 N 0.230(1) 0.1610(7) 0.126(2)
C4 C 0.237(2) 0.2496(9) 0.130(2)
C5 C 0.353(2) 0.296(1) 0.074(2)
C6 C 0.468(2) 0.249(1) 0.005(2)
C7 C 0.458(2) 0.160(1) 0.006(2)
C8 C 0.340(2) 0.119(1) 0.064(2)
N5 N -0.224(1) 0.1557(7) 0.371(2)
C9 C -0.232(1) 0.245(1) 0.364(2)
C10 C -0.350(2) 0.288(1) 0.428(2)
C11 C -0.462(2) 0.240(1) 0.492(2)
C12 C -0.455(2) 0.151(1) 0.498(2)
C13 C -0.336(2) 0.112(1) 0.435(2)
N6 N 0.119(2) 0.5635(8) 0.196(2)
C14 C 0.001(2) 0.5226(8) 0.248(2)
C15 C -0.119(2) 0.5624(9) 0.305(2)
C16 C -0.118(2) 0.6544(9) 0.302(2)
C17 C 0.004(2) 0.698(1) 0.248(2)
C18 C 0.115(2) 0.6536(9) 0.197(2)
Br1 Br -0.1687(2) 0.0950(1) -0.1017(2)
Br2 Br 0.1672(2) 0.0992(1) 0.6041(2)
H1 H 0.3543 0.3608 0.0667
H2 H 0.5539 0.2740 -0.0343
H3 H 0.5297 0.1234 -0.0426
H4 H 0.3419 0.0515 0.0770
H5 H -0.3531 0.3520 0.4257
H6 H -0.5472 0.2653 0.5276
H7 H -0.5226 0.1130 0.5532
H8 H -0.3387 0.0460 0.4230
H9 H -0.2083 0.5277 0.3324
H10 H -0.2024 0.6848 0.3444
H11 H -0.0046 0.7591 0.2479
H12 H 0.1982 0.687 0.1582
Pb1A Pb -0.00172(7) -0.07350(4) -0.24990(9)
Br1A Br 0.1687(2) -0.0950(1) 0.1017(2)
Br2A Br -0.1672(2) -0.0992(1) 0.3959(2)
C19 C 0.417(3) 0.532(2) 0.129(4)
O1 O 0.511(8) 0.515(4) 0.358(7)
loop_
_geom_bond_atom_site_label_1
_geom_bond_atom_site_label_2
_geom_bond_site_symmetry_1
_geom_bond_site_symmetry_2
Pb1 N1 1_555 1_555
N1 C1 1_555 1_555
C1 N2 1_555 1_555
N2 C2 1_555 1_555
C2 N3 1_555 1_555
N3 C3 1_555 1_555
C3 N1 1_555 1_555
N4 Pb1 1_555 1_555
C4 C1 1_555 1_555
C5 C4 1_555 1_555
C6 C5 1_555 1_555
C7 C6 1_555 1_555
C8 N4 1_555 1_555
N5 Pb1 1_555 1_555
C9 C3 1_555 1_555
C10 C9 1_555 1_555
C11 C10 1_555 1_555
C12 C11 1_555 1_555
C13 N5 1_555 1_555
N6 C14 1_555 1_555
C14 C2 1_555 1_555
C15 C14 1_555 1_555
C16 C15 1_555 1_555
C17 C16 1_555 1_555
C18 N6 1_555 1_555
Br1 Pb1 1_555 1_555
Br2 Pb1 1_555 1_555
H1 C5 1_555 1_555
H2 C6 1_555 1_555
H3 C7 1_555 1_555
H4 C8 1_555 1_555
H5 C10 1_555 1_555
H6 C11 1_555 1_555
H7 C12 1_555 1_555
H8 C13 1_555 1_555
H9 C15 1_555 1_555
H10 C16 1_555 1_555
H11 C17 1_555 1_555
H12 C18 1_555 1_555
C19 O1 1_555 1_555
Pb1A Br1 1_555 1_555
Br1A Pb1 1_555 1_555
Br2A Pb1 1_555 1_555
N4 C4 1_555 1_555
C7 C8 1_555 1_555
N5 C9 1_555 1_555
C12 C13 1_555 1_555
C17 C18 1_555 1_555
Pb1A Br1A 1_555 1_555

#END
