
#######################################################################
#
#                 Cambridge Crystallographic Data Centre
#                                CCDC 
#
#######################################################################
#
# If this CIF has been generated from an entry in the Cambridge 
# Structural Database, then it will include bibliographic, chemical, 
# crystal, experimental, refinement or atomic coordinate data resulting 
# from the CCDC's data processing and validation procedures.
#
#######################################################################

data_RAQSAD
_symmetry_cell_setting           monoclinic
_symmetry_space_group_name_H-M   'C 2/n'
_symmetry_Int_Tables_number      15
_space_group_name_Hall           '-C 2ybc'
loop_
_symmetry_equiv_pos_site_id
_symmetry_equiv_pos_as_xyz
1 x,y,z
2 1/2+x,1/2+y,z
3 1/2-x,y,1/2-z
4 -x,1/2+y,1/2-z
5 -x,-y,-z
6 1/2-x,1/2-y,-z
7 1/2+x,-y,1/2+z
8 x,1/2-y,1/2+z
_cell_length_a                   16.974(6)
_cell_length_b                   6.410(2)
_cell_length_c                   39.49(2)
_cell_angle_alpha                90
_cell_angle_beta                 96.33(4)
_cell_angle_gamma                90
_cell_volume                     4270.45
loop_
_atom_site_label
_atom_site_type_symbol
_atom_site_fract_x
_atom_site_fract_y
_atom_site_fract_z
Pb1 Pb -0.26325(8) -0.1363(3) -0.30099(5)
N1 N -0.280(2) -0.069(5) -0.3635(8)
N2 N -0.135(2) -0.107(5) -0.3314(7)
N3 N -0.408(2) -0.108(6) -0.3293(8)
S1 S -0.2712(6) -0.550(2) -0.3253(3)
S2 S -0.1275(7) 0.215(2) -0.2493(3)
N4 N -0.154(2) 0.642(7) -0.250(1)
C1 C -0.220(2) -0.055(6) -0.3844(9)
C2 C -0.352(2) -0.060(6) -0.3842(9)
C3 C -0.142(2) -0.088(7) -0.366(1)
C4 C -0.054(3) -0.099(9) -0.3125(7)
C5 C -0.423(2) -0.093(7) -0.364(1)
C6 C -0.476(2) -0.100(7) -0.313(1)
C7 C -0.280(2) -0.534(7) -0.364(1)
C8 C -0.148(2) 0.467(7) -0.249(1)
N5 N -0.226(2) -0.037(5) -0.4166(8)
N6 N -0.365(2) -0.040(5) -0.4159(8)
C9 C -0.073(2) -0.065(7) -0.384(1)
C10 C 0.007(2) -0.126(7) -0.3285(9)
H1 H -0.0483 -0.0769 -0.2879
C11 C -0.500(2) -0.069(7) -0.384(1)
C12 C -0.546(2) -0.137(7) -0.328(1)
H2 H -0.4708 -0.0686 -0.2891
N7 N -0.281(3) -0.54(1) -0.387(2)
C13 C -0.301(2) -0.027(6) -0.434(1)
C14 C -0.002(2) -0.101(7) -0.365(1)
H3 H -0.0778 -0.0310 -0.4073
H4 H 0.0586 -0.1462 -0.3162
C15 C -0.561(3) -0.094(8) -0.362(1)
H5 H -0.5082 -0.0392 -0.4068
H6 H -0.5873 -0.1864 -0.3152
C16 C -0.310(2) -0.004(7) -0.471(1)
H7 H 0.0454 -0.0999 -0.3769
H8 H -0.6158 -0.0713 -0.3718
N8 N -0.246(3) -0.005(7) -0.487(1)
C17 C -0.389(2) 0.021(7) -0.485(1)
C18 C -0.261(2) 0.006(7) -0.523(1)
C19 C -0.396(4) 0.03(1) -0.519(2)
H9 H -0.4336 0.0259 -0.4719
C20 C -0.335(4) 0.04(1) -0.539(2)
H10 H -0.2188 -0.0067 -0.5367
H11 H -0.4524 0.0344 -0.5298
H12 H -0.3439 0.0557 -0.5635
Pb1_2 Pb -0.26325(8) -1.1363(3) -0.30099(5)
Pb1_3 Pb -0.26325(8) 0.8637(3) -0.30099(5)
Pb1B Pb -0.23675(8) -0.1363(3) -0.19901(5)
Pb1B_2 Pb -0.23675(8) 0.8637(3) -0.19901(5)
S1_2 S -0.2712(6) 0.450(2) -0.3253(3)
S2B S -0.3725(7) 0.215(2) -0.2507(3)
N4_2 N -0.154(2) -0.358(7) -0.250(1)
N4B N -0.346(2) -0.358(7) -0.250(1)
loop_
_geom_bond_atom_site_label_1
_geom_bond_atom_site_label_2
_geom_bond_site_symmetry_1
_geom_bond_site_symmetry_2
Pb1 N1 1_555 1_555
N1 C1 1_555 1_555
N2 Pb1 1_555 1_555
N3 Pb1 1_555 1_555
S1 Pb1 1_555 1_555
S2 Pb1 1_555 1_555
N4 C8 1_555 1_555
C1 C3 1_555 1_555
C2 N1 1_555 1_555
C3 N2 1_555 1_555
C4 N2 1_555 1_555
C5 N3 1_555 1_555
C6 N3 1_555 1_555
C7 S1 1_555 1_555
C8 S2 1_555 1_555
N5 C1 1_555 1_555
N6 C2 1_555 1_555
C9 C3 1_555 1_555
C10 C4 1_555 1_555
H1 C4 1_555 1_555
C11 C5 1_555 1_555
C12 C6 1_555 1_555
H2 C6 1_555 1_555
N7 C7 1_555 1_555
C13 N5 1_555 1_555
C14 C9 1_555 1_555
H3 C9 1_555 1_555
H4 C10 1_555 1_555
C15 C11 1_555 1_555
H5 C11 1_555 1_555
H6 C12 1_555 1_555
C16 C13 1_555 1_555
H7 C14 1_555 1_555
H8 C15 1_555 1_555
N8 C16 1_555 1_555
C17 C16 1_555 1_555
C18 N8 1_555 1_555
C19 C17 1_555 1_555
H9 C17 1_555 1_555
C20 C18 1_555 1_555
H10 C18 1_555 1_555
H11 C19 1_555 1_555
H12 C20 1_555 1_555
Pb1_2 S1 1_555 1_555
Pb1_3 N4 1_555 1_555
Pb1B S2 1_555 1_555
Pb1B_2 N4 1_555 1_555
S1_2 Pb1 1_555 1_555
S2B Pb1 1_555 1_555
N4_2 Pb1 1_555 1_555
N4B Pb1 1_555 1_555
C2 C5 1_555 1_555
N6 C13 1_555 1_555
C10 C14 1_555 1_555
C12 C15 1_555 1_555
C19 C20 1_555 1_555
Pb1_3 S1_2 1_555 1_555
Pb1B S2B 1_555 1_555
Pb1B N4_2 1_555 1_555
Pb1B N4B 1_555 1_555

#END
