
#######################################################################
#
#                 Cambridge Crystallographic Data Centre
#                                CCDC 
#
#######################################################################
#
# If this CIF has been generated from an entry in the Cambridge 
# Structural Database, then it will include bibliographic, chemical, 
# crystal, experimental, refinement or atomic coordinate data resulting 
# from the CCDC's data processing and validation procedures.
#
#######################################################################

data_RAQVOW
_symmetry_cell_setting           monoclinic
_symmetry_space_group_name_H-M   'P 21/c'
_symmetry_Int_Tables_number      14
_space_group_name_Hall           '-P 2ybc'
loop_
_symmetry_equiv_pos_site_id
_symmetry_equiv_pos_as_xyz
1 x,y,z
2 -x,1/2+y,1/2-z
3 -x,-y,-z
4 x,1/2-y,1/2+z
_cell_length_a                   7.1260(14)
_cell_length_b                   18.309(4)
_cell_length_c                   21.127(4)
_cell_angle_alpha                90
_cell_angle_beta                 93.32(3)
_cell_angle_gamma                90
_cell_volume                     2751.81
loop_
_atom_site_label
_atom_site_type_symbol
_atom_site_fract_x
_atom_site_fract_y
_atom_site_fract_z
Zn1 Zn 0.09073(13) -0.29926(5) -0.19649(4)
Zn2 Zn 0.40739(13) -0.19226(6) -0.29142(4)
C1 C 0.4596(11) -0.2275(4) -0.1580(4)
C2 C 0.5526(12) -0.2119(5) -0.0941(4)
H1 H 0.5679 -0.2588 -0.0720
C3 C 0.7499(12) -0.1772(5) -0.0956(4)
H2 H 0.8031 -0.1778 -0.0518
C4 C 0.8765(13) -0.2225(6) -0.1325(4)
C5 C 0.7433(15) -0.0977(5) -0.1157(5)
H3 H 0.7310 -0.0955 -0.1616
H4 H 0.8619 -0.0749 -0.1022
C6 C 0.592(2) -0.0557(7) -0.0906(6)
H5 H 0.5973 -0.0050 -0.0937
C7 C 0.4519(19) -0.0841(7) -0.0643(6)
H6 H 0.3617 -0.0524 -0.0499
C8 C 0.4215(14) -0.1642(7) -0.0550(4)
H7 H 0.4433 -0.1759 -0.0104
H8 H 0.2918 -0.1761 -0.0672
C9 C -0.3885(12) -0.2756(5) -0.3537(4)
C10 C -0.2477(12) -0.3096(5) -0.3949(4)
H9 H -0.2999 -0.3031 -0.4385
C11 C -0.0644(12) -0.2705(5) -0.3920(4)
H10 H -0.0913 -0.2207 -0.4069
C12 C 0.0365(12) -0.2631(5) -0.3275(4)
C13 C -0.2316(14) -0.3908(6) -0.3857(5)
H11 H -0.2206 -0.4016 -0.3407
H12 H -0.3450 -0.4141 -0.4035
C14 C -0.0624(18) -0.4222(7) -0.4171(7)
H13 H -0.0525 -0.4727 -0.4207
C15 C 0.0690(19) -0.3820(9) -0.4392(6)
H14 H 0.1671 -0.4057 -0.4579
C16 C 0.0743(15) -0.3026(7) -0.4370(5)
H15 H 0.2004 -0.2870 -0.4234
H16 H 0.0459 -0.2835 -0.4793
C17 C 0.4262(12) -0.0310(5) -0.2631(4)
H17 H 0.4568 -0.0466 -0.2219
C18 C 0.4269(12) 0.0425(5) -0.2759(4)
H18 H 0.4600 0.0759 -0.2440
C19 C 0.3780(12) 0.0662(5) -0.3363(4)
H19 H 0.3776 0.1157 -0.3462
C20 C 0.3290(12) 0.0135(4) -0.3823(4)
C21 C 0.3326(13) -0.0584(4) -0.3657(4)
H20 H 0.2981 -0.0930 -0.3964
C22 C 0.2745(12) 0.0342(5) -0.4477(4)
C23 C 0.2055(13) 0.0344(5) -0.5448(4)
C24 C 0.1647(11) 0.0094(5) -0.6101(4)
C25 C 0.1575(10) -0.0632(5) -0.6244(4)
H21 H 0.1831 -0.0963 -0.5916
C26 C 0.1285(12) 0.0586(5) -0.6592(4)
H22 H 0.1333 0.1086 -0.6516
C27 C 0.0856(12) 0.0327(5) -0.7190(4)
H23 H 0.0616 0.0651 -0.7524
C28 C 0.0782(12) -0.0408(5) -0.7294(4)
H24 H 0.0459 -0.0576 -0.7701
N1 N 0.3831(10) -0.0810(4) -0.3077(3)
N2 N 0.2617(10) -0.0099(4) -0.4970(3)
N3 N 0.2141(12) 0.1020(4) -0.4636(4)
N4 N 0.1722(12) 0.1028(5) -0.5270(4)
N5 N 0.1160(9) -0.0902(4) -0.6827(3)
O1 O 0.3440(9) -0.2787(3) -0.1618(3)
O2 O 0.4944(9) -0.1876(4) -0.2034(3)
O3 O 0.8828(10) -0.2902(4) -0.1251(3)
O4 O 0.9815(9) -0.1932(4) -0.1709(3)
O5 O -0.4923(11) -0.3109(5) -0.3213(4)
O6 O -0.3962(10) -0.2079(4) -0.3523(4)
O7 O -0.0078(10) -0.3067(4) -0.2846(3)
O8 O 0.1505(9) -0.2120(4) -0.3204(3)
H25 H 0.1918 0.1384 -0.4391
Zn1C Zn 0.09073(13) -0.20074(5) -0.69649(4)
Zn1_2 Zn 1.09073(13) -0.29926(5) -0.19649(4)
Zn2_2 Zn -0.59261(13) -0.19226(6) -0.29142(4)
N5C N 0.1160(9) -0.4098(4) -0.1827(3)
O3_2 O -0.1172(10) -0.2902(4) -0.1251(3)
O4_2 O -0.0185(9) -0.1932(4) -0.1709(3)
O5_2 O 0.5077(11) -0.3109(5) -0.3213(4)
O6_2 O 0.6038(10) -0.2079(4) -0.3523(4)
O9 O 0.407(5) -0.335(2) -0.9886(18)
H26 H 0.3672 -0.3773 -0.9910
H27 H 0.4568 -0.3242 -0.9540
loop_
_geom_bond_atom_site_label_1
_geom_bond_atom_site_label_2
_geom_bond_site_symmetry_1
_geom_bond_site_symmetry_2
Zn1 O1 1_555 1_555
Zn2 N1 1_555 1_555
C1 C2 1_555 1_555
C2 H1 1_555 1_555
C3 C2 1_555 1_555
H2 C3 1_555 1_555
C4 C3 1_555 1_555
C5 C3 1_555 1_555
H3 C5 1_555 1_555
H4 C5 1_555 1_555
C6 C5 1_555 1_555
H5 C6 1_555 1_555
C7 C6 1_555 1_555
H6 C7 1_555 1_555
C8 C2 1_555 1_555
H7 C8 1_555 1_555
H8 C8 1_555 1_555
C9 C10 1_555 1_555
C10 H9 1_555 1_555
C11 C10 1_555 1_555
H10 C11 1_555 1_555
C12 C11 1_555 1_555
C13 C10 1_555 1_555
H11 C13 1_555 1_555
H12 C13 1_555 1_555
C14 C13 1_555 1_555
H13 C14 1_555 1_555
C15 C14 1_555 1_555
H14 C15 1_555 1_555
C16 C11 1_555 1_555
H15 C16 1_555 1_555
H16 C16 1_555 1_555
C17 H17 1_555 1_555
C18 C17 1_555 1_555
H18 C18 1_555 1_555
C19 C18 1_555 1_555
H19 C19 1_555 1_555
C20 C19 1_555 1_555
C21 C20 1_555 1_555
H20 C21 1_555 1_555
C22 C20 1_555 1_555
C23 C24 1_555 1_555
C24 C25 1_555 1_555
C25 H21 1_555 1_555
C26 C24 1_555 1_555
H22 C26 1_555 1_555
C27 C26 1_555 1_555
H23 C27 1_555 1_555
C28 C27 1_555 1_555
H24 C28 1_555 1_555
N1 C17 1_555 1_555
N2 C22 1_555 1_555
N3 C22 1_555 1_555
N4 C23 1_555 1_555
N5 C25 1_555 1_555
O1 C1 1_555 1_555
O2 Zn2 1_555 1_555
O3 C4 1_555 1_555
O4 C4 1_555 1_555
O5 C9 1_555 1_555
O6 C9 1_555 1_555
O7 Zn1 1_555 1_555
O8 Zn2 1_555 1_555
O9 H26 1_555 1_555
H25 N3 1_555 1_555
H27 O9 1_555 1_555
Zn1C N5 1_555 1_555
Zn1_2 O3 1_555 1_555
Zn2_2 O5 1_555 1_555
N5C Zn1 1_555 1_555
O3_2 Zn1 1_555 1_555
O4_2 Zn1 1_555 1_555
O5_2 Zn2 1_555 1_555
O6_2 Zn2 1_555 1_555
C1 O2 1_555 1_555
C7 C8 1_555 1_555
C12 O7 1_555 1_555
C12 O8 1_555 1_555
C15 C16 1_555 1_555
C21 N1 1_555 1_555
C23 N2 1_555 1_555
C28 N5 1_555 1_555
N3 N4 1_555 1_555
O4 Zn1_2 1_555 1_555
O6 Zn2_2 1_555 1_555

#END
