
#######################################################################
#
#                 Cambridge Crystallographic Data Centre
#                                CCDC 
#
#######################################################################
#
# If this CIF has been generated from an entry in the Cambridge 
# Structural Database, then it will include bibliographic, chemical, 
# crystal, experimental, refinement or atomic coordinate data resulting 
# from the CCDC's data processing and validation procedures.
#
#######################################################################

data_RAQZOZ
_symmetry_cell_setting           triclinic
_symmetry_space_group_name_H-M   'P -1'
_symmetry_Int_Tables_number      2
_space_group_name_Hall           '-P 1'
loop_
_symmetry_equiv_pos_site_id
_symmetry_equiv_pos_as_xyz
1 x,y,z
2 -x,-y,-z
_cell_length_a                   8.7280(5)
_cell_length_b                   10.0176(6)
_cell_length_c                   11.8926(7)
_cell_angle_alpha                107.9910(10)
_cell_angle_beta                 97.1090(10)
_cell_angle_gamma                115.5420(10)
_cell_volume                     851.385
loop_
_atom_site_label
_atom_site_type_symbol
_atom_site_fract_x
_atom_site_fract_y
_atom_site_fract_z
Cu1 Cu 0.0000 0.5000 0.0000
O1 O 0.23885(14) 0.43505(14) 0.03957(11)
O2 O 0.46466(16) 0.55355(17) 0.20355(12)
O3 O 0.41674(18) 0.33916(16) 0.05192(15)
N1 N 0.18551(16) 0.73738(16) 0.05276(11)
N2 N 2.01092(16) 1.44995(15) 0.82393(11)
N3 N 0.37522(16) 0.44218(17) 0.09912(13)
C1 C 0.1332(2) 0.8411(2) 0.03856(14)
H1 H 0.0102 0.8011 0.0031
C2 C 0.2512(2) 1.0035(2) 0.07349(15)
H2 H 0.2100 1.0725 0.0599
C3 C 0.4296(2) 1.0643(2) 0.12831(15)
H3 H 0.5125 1.1760 0.1543
C4 C 0.4861(2) 0.95922(19) 0.14488(14)
C5 C 0.35979(19) 0.79616(19) 0.10439(14)
H4 H 0.3983 0.7237 0.1136
C6 C 0.6693(2) 1.0128(2) 0.20002(15)
C7 C 0.8213(2) 1.0529(2) 0.24180(15)
C8 C 1.0042(2) 1.10222(19) 0.29388(14)
C9 C 1.0471(2) 1.0096(2) 0.34494(18)
H5 H 0.9553 0.9110 0.3413
C10 C 1.2231(2) 1.0613(2) 0.40075(18)
H6 H 1.2512 0.9984 0.4359
C11 C 1.3596(2) 1.2053(2) 0.40576(14)
C12 C 1.3172(2) 1.2966(2) 0.35364(15)
H7 H 1.4092 1.3944 0.3562
C13 C 1.1409(2) 1.2449(2) 0.29807(15)
H8 H 1.1130 1.3074 0.2624
C14 C 1.5412(2) 1.2594(2) 0.46769(14)
C15 C 1.6890(2) 1.3026(2) 0.52410(14)
C16 C 1.86341(19) 1.39693(18) 0.73406(14)
H9 H 1.7590 1.3855 0.7563
C17 C 1.85597(19) 1.35799(18) 0.61015(14)
C18 C 2.0099(2) 1.3751(2) 0.57791(15)
H10 H 2.0105 1.3506 0.4942
C19 C 2.1614(2) 1.4285(2) 0.67066(16)
H11 H 2.2675 1.4403 0.6509
C20 C 2.1585(2) 1.4647(2) 0.79176(15)
H12 H 2.2634 1.5011 0.8544
Cu1_2 Cu 2.0000 1.5000 1.0000
Cu1_3 Cu -2.0000 -0.5000 -1.0000
O1A O -0.23885(14) 0.56495(14) -0.03957(11)
O2A O -0.46466(16) 0.44645(17) -0.20355(12)
O3A O -0.41674(18) 0.66084(16) -0.05192(15)
N1A N -0.18551(16) 0.26262(16) -0.05276(11)
N2A N -2.01092(16) -0.44995(15) -0.82393(11)
N2_2 N 0.01092(16) 0.44995(15) -0.17607(11)
N2A_2 N -0.01092(16) 0.55005(15) 0.17607(11)
N3A N -0.37522(16) 0.55782(17) -0.09912(13)
C1A C -0.1332(2) 0.1589(2) -0.03856(14)
H1A H -0.0102 0.1989 -0.0031
C2A C -0.2512(2) -0.0035(2) -0.07349(15)
H2A H -0.2100 -0.0725 -0.0599
C3A C -0.4296(2) -0.0643(2) -0.12831(15)
H3A H -0.5125 -0.1760 -0.1543
C4A C -0.4861(2) 0.04078(19) -0.14488(14)
C5A C -0.35979(19) 0.20384(19) -0.10439(14)
H4A H -0.3983 0.2763 -0.1136
C6A C -0.6693(2) -0.0128(2) -0.20002(15)
C7A C -0.8213(2) -0.0529(2) -0.24180(15)
C8A C -1.0042(2) -0.10222(19) -0.29388(14)
C9A C -1.0471(2) -0.0096(2) -0.34494(18)
H5A H -0.9553 0.0890 -0.3413
C10A C -1.2231(2) -0.0613(2) -0.40075(18)
H6A H -1.2512 0.0016 -0.4359
C11A C -1.3596(2) -0.2053(2) -0.40576(14)
C12A C -1.3172(2) -0.2966(2) -0.35364(15)
H7A H -1.4092 -0.3944 -0.3562
C13A C -1.1409(2) -0.2449(2) -0.29807(15)
H8A H -1.1130 -0.3074 -0.2624
C14A C -1.5412(2) -0.2594(2) -0.46769(14)
C15A C -1.6890(2) -0.3026(2) -0.52410(14)
C16A C -1.86341(19) -0.39693(18) -0.73406(14)
H9A H -1.7590 -0.3855 -0.7563
C17A C -1.85597(19) -0.35799(18) -0.61015(14)
C18A C -2.0099(2) -0.3751(2) -0.57791(15)
H10A H -2.0105 -0.3506 -0.4942
C19A C -2.1614(2) -0.4285(2) -0.67066(16)
H11A H -2.2675 -0.4403 -0.6509
C20A C -2.1585(2) -0.4647(2) -0.79176(15)
H12A H -2.2634 -0.5011 -0.8544
loop_
_geom_bond_atom_site_label_1
_geom_bond_atom_site_label_2
_geom_bond_site_symmetry_1
_geom_bond_site_symmetry_2
Cu1 O1 1_555 1_555
O1 N3 1_555 1_555
O2 N3 1_555 1_555
O3 N3 1_555 1_555
N1 Cu1 1_555 1_555
N2 C16 1_555 1_555
C1 N1 1_555 1_555
H1 C1 1_555 1_555
C2 C1 1_555 1_555
H2 C2 1_555 1_555
C3 C2 1_555 1_555
H3 C3 1_555 1_555
C4 C3 1_555 1_555
C5 N1 1_555 1_555
H4 C5 1_555 1_555
C6 C4 1_555 1_555
C7 C6 1_555 1_555
C8 C7 1_555 1_555
C9 C8 1_555 1_555
H5 C9 1_555 1_555
C10 C9 1_555 1_555
H6 C10 1_555 1_555
C11 C10 1_555 1_555
C12 C11 1_555 1_555
H7 C12 1_555 1_555
C13 C8 1_555 1_555
H8 C13 1_555 1_555
C14 C11 1_555 1_555
C15 C14 1_555 1_555
C16 H9 1_555 1_555
C17 C15 1_555 1_555
C18 C17 1_555 1_555
H10 C18 1_555 1_555
C19 C18 1_555 1_555
H11 C19 1_555 1_555
C20 N2 1_555 1_555
H12 C20 1_555 1_555
Cu1_2 N2 1_555 1_555
Cu1_3 N2A 1_555 1_555
O1A Cu1 1_555 1_555
O2A N3A 1_555 1_555
O3A N3A 1_555 1_555
N1A Cu1 1_555 1_555
N2A C16A 1_555 1_555
N2_2 Cu1 1_555 1_555
N2A_2 Cu1 1_555 1_555
N3A O1A 1_555 1_555
C1A N1A 1_555 1_555
H1A C1A 1_555 1_555
C2A C1A 1_555 1_555
H2A C2A 1_555 1_555
C3A C2A 1_555 1_555
H3A C3A 1_555 1_555
C4A C3A 1_555 1_555
C5A N1A 1_555 1_555
H4A C5A 1_555 1_555
C6A C4A 1_555 1_555
C7A C6A 1_555 1_555
C8A C7A 1_555 1_555
C9A C8A 1_555 1_555
H5A C9A 1_555 1_555
C10A C9A 1_555 1_555
H6A C10A 1_555 1_555
C11A C10A 1_555 1_555
C12A C11A 1_555 1_555
H7A C12A 1_555 1_555
C13A C8A 1_555 1_555
H8A C13A 1_555 1_555
C14A C11A 1_555 1_555
C15A C14A 1_555 1_555
C16A H9A 1_555 1_555
C17A C15A 1_555 1_555
C18A C17A 1_555 1_555
H10A C18A 1_555 1_555
C19A C18A 1_555 1_555
H11A C19A 1_555 1_555
C20A N2A 1_555 1_555
H12A C20A 1_555 1_555
C4 C5 1_555 1_555
C12 C13 1_555 1_555
C16 C17 1_555 1_555
C19 C20 1_555 1_555
C4A C5A 1_555 1_555
C12A C13A 1_555 1_555
C16A C17A 1_555 1_555
C19A C20A 1_555 1_555

#END
