
#######################################################################
#
#                 Cambridge Crystallographic Data Centre
#                                CCDC 
#
#######################################################################
#
# If this CIF has been generated from an entry in the Cambridge 
# Structural Database, then it will include bibliographic, chemical, 
# crystal, experimental, refinement or atomic coordinate data resulting 
# from the CCDC's data processing and validation procedures.
#
#######################################################################

data_RAQZIT
_symmetry_cell_setting           orthorhombic
_symmetry_space_group_name_H-M   'P 21 21 21'
_symmetry_Int_Tables_number      19
_space_group_name_Hall           'P 2ac 2ab'
loop_
_symmetry_equiv_pos_site_id
_symmetry_equiv_pos_as_xyz
1 x,y,z
2 1/2-x,-y,1/2+z
3 1/2+x,1/2-y,-z
4 -x,1/2+y,1/2-z
_cell_length_a                   8.5893(4)
_cell_length_b                   15.7662(8)
_cell_length_c                   17.5041(9)
_cell_angle_alpha                90
_cell_angle_beta                 90
_cell_angle_gamma                90
_cell_volume                     2370.42
loop_
_atom_site_label
_atom_site_type_symbol
_atom_site_fract_x
_atom_site_fract_y
_atom_site_fract_z
Cu1 Cu 0.13861(2) 0.101322(11) 0.126522(10)
O1 O 0.04348(15) 0.11427(7) 0.23053(7)
O2 O -0.00311(16) 0.23977(7) 0.18493(7)
O3 O -0.07469(17) 0.20781(10) 0.30053(8)
O4 O 0.25116(15) 0.07265(7) 0.03039(7)
O5 O 0.34618(19) 0.14167(10) -0.06612(8)
O6 O 0.16754(16) 0.19939(8) 0.00417(7)
N1 N 0.33125(15) 0.16404(8) 0.16139(8)
N2 N 0.92948(17) 1.06639(8) 0.08473(8)
N3 N -0.01298(17) 0.18924(9) 0.23974(8)
N4 N 0.25572(18) 0.13959(9) -0.01235(8)
C1 C 0.4475(2) 0.12233(10) 0.19655(9)
H1 H 0.4345 0.0638 0.2076
C2 C 0.5847(2) 0.16146(11) 0.21708(11)
H2 H 0.6648 0.1302 0.2417
C3 C 0.60444(19) 0.24711(11) 0.20131(10)
H3 H 0.6985 0.2751 0.2147
C4 C 0.4849(2) 0.29133(10) 0.16572(9)
C5 C 0.3492(2) 0.24716(9) 0.14687(8)
H4 H 0.2665 0.2770 0.1229
C6 C 0.5006(2) 0.38005(10) 0.14762(9)
C7 C 0.5205(2) 0.45290(10) 0.13287(10)
C8 C 0.5531(2) 0.54060(10) 0.11592(9)
C9 C 0.7064(2) 0.56979(10) 0.12125(12)
H5 H 0.7878 0.5315 0.1338
C10 C 0.7394(2) 0.65437(11) 0.10830(11)
H6 H 0.8435 0.6741 0.1126
C11 C 0.6210(2) 0.71093(10) 0.08904(10)
C12 C 0.4677(2) 0.68145(10) 0.08233(11)
H7 H 0.3864 0.7194 0.0687
C13 C 0.4352(2) 0.59655(11) 0.09577(10)
H8 H 0.3313 0.5765 0.0911
C14 C 0.6565(2) 0.79947(11) 0.07812(10)
C15 C 0.6895(2) 0.87246(11) 0.07189(11)
C16 C 0.7328(2) 0.96027(10) 0.06487(10)
C17 C 0.6355(2) 1.02103(10) 0.03235(9)
H9 H 0.5351 1.0058 0.0142
C18 C 0.68697(19) 1.10375(11) 0.02692(9)
H10 H 0.6222 1.1462 0.0051
C19 C 0.83382(19) 1.12424(10) 0.05351(9)
H11 H 0.8684 1.1813 0.0496
C20 C 0.8790(2) 0.98634(10) 0.09031(10)
H12 H 0.9460 0.9453 0.1127
O7 O 0.21225(16) -0.02638(7) 0.17045(8)
H13 H 0.160(3) -0.0411(14) 0.2037(12)
C21 C 0.2734(3) -0.09710(12) 0.13008(14)
H14 H 0.3789 -0.1092 0.1483
H15 H 0.2765 -0.0842 0.0753
H16 H 0.2068 -0.1467 0.1388
Cu1_2 Cu 1.13861(2) 1.101322(11) 0.126522(10)
N2_2 N -0.07052(17) 0.06639(8) 0.08473(8)
O8 O -0.0247(2) 0.41173(11) 0.22511(11)
H17 H -0.036(4) 0.367(2) 0.2168(18)
C22 C 0.1147(3) 0.44275(15) 0.19771(16)
H18 H 0.2010 0.4170 0.2260
H19 H 0.1177 0.5045 0.2043
H20 H 0.1246 0.4289 0.1434
loop_
_geom_bond_atom_site_label_1
_geom_bond_atom_site_label_2
_geom_bond_site_symmetry_1
_geom_bond_site_symmetry_2
Cu1 O1 1_555 1_555
O1 N3 1_555 1_555
O2 N3 1_555 1_555
O3 N3 1_555 1_555
O4 Cu1 1_555 1_555
O5 N4 1_555 1_555
O6 N4 1_555 1_555
N1 Cu1 1_555 1_555
N2 C19 1_555 1_555
N4 O4 1_555 1_555
C1 N1 1_555 1_555
H1 C1 1_555 1_555
C2 C1 1_555 1_555
H2 C2 1_555 1_555
C3 C2 1_555 1_555
H3 C3 1_555 1_555
C4 C3 1_555 1_555
C5 N1 1_555 1_555
H4 C5 1_555 1_555
C6 C4 1_555 1_555
C7 C6 1_555 1_555
C8 C7 1_555 1_555
C9 C8 1_555 1_555
H5 C9 1_555 1_555
C10 C9 1_555 1_555
H6 C10 1_555 1_555
C11 C10 1_555 1_555
C12 C11 1_555 1_555
H7 C12 1_555 1_555
C13 C8 1_555 1_555
H8 C13 1_555 1_555
C14 C11 1_555 1_555
C15 C14 1_555 1_555
C16 C15 1_555 1_555
C17 C16 1_555 1_555
H9 C17 1_555 1_555
C18 C17 1_555 1_555
H10 C18 1_555 1_555
C19 C18 1_555 1_555
H11 C19 1_555 1_555
C20 N2 1_555 1_555
H12 C20 1_555 1_555
O7 Cu1 1_555 1_555
H13 O7 1_555 1_555
C21 O7 1_555 1_555
H14 C21 1_555 1_555
H15 C21 1_555 1_555
H16 C21 1_555 1_555
O8 H17 1_555 1_555
C22 O8 1_555 1_555
H18 C22 1_555 1_555
H19 C22 1_555 1_555
H20 C22 1_555 1_555
Cu1_2 N2 1_555 1_555
N2_2 Cu1 1_555 1_555
C4 C5 1_555 1_555
C12 C13 1_555 1_555
C16 C20 1_555 1_555

#END
