
#######################################################################
#
#                 Cambridge Crystallographic Data Centre
#                                CCDC 
#
#######################################################################
#
# If this CIF has been generated from an entry in the Cambridge 
# Structural Database, then it will include bibliographic, chemical, 
# crystal, experimental, refinement or atomic coordinate data resulting 
# from the CCDC's data processing and validation procedures.
#
#######################################################################

data_RARBES
_symmetry_cell_setting           triclinic
_symmetry_space_group_name_H-M   'P -1'
_symmetry_Int_Tables_number      2
_space_group_name_Hall           '-P 1'
loop_
_symmetry_equiv_pos_site_id
_symmetry_equiv_pos_as_xyz
1 x,y,z
2 -x,-y,-z
_cell_length_a                   14.1724(9)
_cell_length_b                   15.7947(10)
_cell_length_c                   18.0715(12)
_cell_angle_alpha                115.3800(10)
_cell_angle_beta                 101.3190(10)
_cell_angle_gamma                93.472(2)
_cell_volume                     3535.65
loop_
_atom_site_label
_atom_site_type_symbol
_atom_site_fract_x
_atom_site_fract_y
_atom_site_fract_z
Co1 Co 0.95586(3) 0.71998(3) 0.18027(3)
C1 C 0.8626(2) 0.5785(3) 0.2285(2)
H1 H 0.9249 0.5934 0.2662
C2 C 0.7889(3) 0.5220(3) 0.2344(2)
H2 H 0.8009 0.4991 0.2756
C3 C 0.6970(2) 0.4989(2) 0.1797(2)
C4 C 0.6839(2) 0.5336(2) 0.1207(2)
H3 H 0.6224 0.5192 0.0819
C5 C 0.7616(2) 0.5897(2) 0.1188(2)
H4 H 0.7517 0.6128 0.0777
C6 C 0.6181(3) 0.4427(3) 0.1851(2)
C7 C 0.5542(3) 0.3950(3) 0.1902(2)
C8 C 0.4796(3) 0.3322(3) 0.1949(2)
C9 C 0.5085(3) 0.2638(3) 0.2199(3)
H5 H 0.5757 0.2603 0.2353
C10 C 0.4370(4) 0.2000(3) 0.2221(3)
H6 H 0.4557 0.1532 0.2393
C11 C 0.3385(3) 0.2052(3) 0.1991(3)
C12 C 0.3113(3) 0.2755(3) 0.1769(2)
H7 H 0.2443 0.2803 0.1629
C13 C 0.3814(3) 0.3385(3) 0.1751(2)
H8 H 0.3623 0.3868 0.1600
C14 C 0.2688(3) 0.1355(3) 0.1991(3)
C15 C 0.2160(3) 0.0738(3) 0.1982(3)
C16 C 0.1368(2) -0.1608(3) 0.1856(2)
H9 H 0.1647 -0.2156 0.1810
C17 C 0.1931(3) -0.0866(3) 0.1869(2)
H10 H 0.2582 -0.0913 0.1816
C18 C 0.1562(3) -0.0048(3) 0.1959(2)
C19 C 0.0599(3) -0.0020(3) 0.2017(2)
H11 H 0.0310 0.0526 0.2081
C20 C 0.0075(2) -0.0813(3) 0.1978(2)
H12 H -0.0587 -0.0798 0.2005
C21 C 1.1260(2) 0.7262(3) 0.3179(2)
H13 H 1.1105 0.7876 0.3479
C22 C 1.1978(2) 0.6968(3) 0.3598(2)
H14 H 1.2301 0.7368 0.4173
C23 C 1.2225(2) 0.6087(3) 0.3178(2)
C24 C 1.1733(2) 0.5540(3) 0.2333(2)
H15 H 1.1893 0.4935 0.2014
C25 C 1.1010(2) 0.5887(3) 0.1965(2)
H16 H 1.0671 0.5501 0.1392
C26 C 1.2952(3) 0.5752(3) 0.3612(2)
C27 C 1.3546(3) 0.5509(3) 0.4015(2)
C28 C 1.4281(3) 0.5248(3) 0.4518(2)
C29 C 1.4713(3) 0.5872(3) 0.5352(2)
H17 H 1.4517 0.6476 0.5599
C30 C 1.4572(3) 0.4373(3) 0.4169(3)
H18 H 1.4281 0.3936 0.3597
N1 N 0.85020(18) 0.61303(19) 0.17232(17)
N2 N 0.04368(18) -0.15920(19) 0.19057(17)
N3 N 1.07647(19) 0.6739(2) 0.23735(18)
N4 N 0.8699(3) 0.8395(3) 0.2937(2)
N5 N 0.9233(2) 0.6608(2) 0.0167(2)
O1 O 0.94423(18) 0.80774(19) 0.30949(17)
O2 O 0.8363(3) 0.8977(3) 0.3480(3)
O3 O 0.8296(2) 0.8111(2) 0.2169(2)
O4 O 0.98292(17) 0.63062(17) 0.05801(15)
O5 O 0.87405(17) 0.71778(18) 0.05869(16)
O6 O 0.9168(2) 0.6372(2) -0.05851(17)
Co1_2 Co 1.95586(3) 1.71998(3) 0.18027(3)
Co1_3 Co -0.04414(3) -0.28002(3) 0.18027(3)
Co1A Co 2.04414(3) 0.28002(3) 0.81973(3)
C1_2 C 1.8626(2) 1.5785(3) 0.2285(2)
H1_2 H 1.9249 1.5934 0.2662
C2_2 C 1.7889(3) 1.5220(3) 0.2344(2)
H2_2 H 1.8009 1.4991 0.2756
C3_2 C 1.6970(2) 1.4989(2) 0.1797(2)
C4_2 C 1.6839(2) 1.5336(2) 0.1207(2)
H3_2 H 1.6224 1.5192 0.0819
C5_2 C 1.7616(2) 1.5897(2) 0.1188(2)
H4_2 H 1.7517 1.6128 0.0777
C6_2 C 1.6181(3) 1.4427(3) 0.1851(2)
C7_2 C 1.5542(3) 1.3950(3) 0.1902(2)
C8_2 C 1.4796(3) 1.3322(3) 0.1949(2)
C9_2 C 1.5085(3) 1.2638(3) 0.2199(3)
H5_2 H 1.5757 1.2603 0.2353
C10_2 C 1.4370(4) 1.2000(3) 0.2221(3)
H6_2 H 1.4557 1.1532 0.2393
C11_2 C 1.3385(3) 1.2052(3) 0.1991(3)
C12_2 C 1.3113(3) 1.2755(3) 0.1769(2)
H7_2 H 1.2443 1.2803 0.1629
C13_2 C 1.3814(3) 1.3385(3) 0.1751(2)
H8_2 H 1.3623 1.3868 0.1600
C14_2 C 1.2688(3) 1.1355(3) 0.1991(3)
C15_2 C 1.2160(3) 1.0738(3) 0.1982(3)
C16_2 C 1.1368(2) 0.8392(3) 0.1856(2)
H9_2 H 1.1647 0.7844 0.1810
C17_2 C 1.1931(3) 0.9134(3) 0.1869(2)
H10_2 H 1.2582 0.9087 0.1816
C18_2 C 1.1562(3) 0.9952(3) 0.1959(2)
C19_2 C 1.0599(3) 0.9980(3) 0.2017(2)
H11_2 H 1.0310 1.0526 0.2081
C20_2 C 1.0075(2) 0.9187(3) 0.1978(2)
H12_2 H 0.9413 0.9202 0.2005
C21A C 1.8740(2) 0.2738(3) 0.6821(2)
H13A H 1.8895 0.2124 0.6521
C22A C 1.8022(2) 0.3032(3) 0.6402(2)
H14A H 1.7699 0.2632 0.5827
C23A C 1.7775(2) 0.3913(3) 0.6822(2)
C24A C 1.8267(2) 0.4460(3) 0.7667(2)
H15A H 1.8107 0.5065 0.7986
C25A C 1.8990(2) 0.4113(3) 0.8035(2)
H16A H 1.9329 0.4499 0.8608
C26A C 1.7048(3) 0.4248(3) 0.6388(2)
C27A C 1.6454(3) 0.4491(3) 0.5985(2)
C28A C 1.5719(3) 0.4752(3) 0.5482(2)
C29A C 1.5287(3) 0.4128(3) 0.4648(2)
H17A H 1.5483 0.3524 0.4401
C30A C 1.5428(3) 0.5627(3) 0.5831(3)
H18A H 1.5719 0.6064 0.6403
N1_2 N 1.85020(18) 1.61303(19) 0.17232(17)
N2_2 N 1.04368(18) 0.84080(19) 0.19057(17)
N2_3 N 2.04368(18) 1.84080(19) 0.19057(17)
N3A N 1.92353(19) 0.3261(2) 0.76265(18)
N3_2 N 2.07647(19) 1.6739(2) 0.23735(18)
N4_2 N 1.8699(3) 1.8395(3) 0.2937(2)
N5_2 N 1.9233(2) 1.6608(2) 0.0167(2)
O1_2 O 1.94423(18) 1.80774(19) 0.30949(17)
O2_2 O 1.8363(3) 1.8977(3) 0.3480(3)
O3_2 O 1.8296(2) 1.8111(2) 0.2169(2)
O4_2 O 1.98292(17) 1.63062(17) 0.05801(15)
O5_2 O 1.87405(17) 1.71778(18) 0.05869(16)
O6_2 O 1.9168(2) 1.6372(2) -0.05851(17)
Co2 Co 0.44415(3) 0.72928(4) 0.17646(3)
C31 C 0.3431(3) 0.7729(3) 0.0319(2)
H19 H 0.4025 0.8153 0.0493
C32 C 0.2744(3) 0.7640(3) -0.0374(3)
H20 H 0.2871 0.7993 -0.0668
C33 C 0.1877(3) 0.7042(3) -0.0639(2)
C34 C 0.1731(3) 0.6547(3) -0.0180(2)
H21 H 0.1140 0.6125 -0.0339
C35 C 0.2460(2) 0.6680(3) 0.0509(2)
H22 H 0.2349 0.6346 0.0821
C36 C 0.1155(3) 0.6942(3) -0.1356(3)
C37 C 0.0568(3) 0.6911(3) -0.1937(3)
C38 C -0.0128(4) 0.6895(4) -0.2644(3)
C39 C 0.0197(4) 0.7452(4) -0.3059(3)
H23 H 0.0836 0.7805 -0.2868
C40 C -0.0473(4) 0.7434(4) -0.3734(3)
H24 H -0.0304 0.7780 -0.4022
C41 C -0.1450(3) 0.6875(4) -0.4002(3)
C42 C -0.1674(4) 0.6482(5) -0.3563(4)
H25 H -0.2325 0.6169 -0.3705
C43 C -0.1004(4) 0.6489(5) -0.2879(4)
H26 H -0.1216 0.6177 -0.2579
C44 C -0.2120(3) 0.6841(4) -0.4732(3)
C45 C -0.2670(3) 0.6836(4) -0.5317(3)
C46 C -0.3630(3) 0.7483(3) -0.7022(2)
H27 H -0.3382 0.7817 -0.7291
C47 C -0.2985(3) 0.7377(3) -0.6408(3)
H28 H -0.2313 0.7627 -0.6267
C48 C -0.3310(3) 0.6910(3) -0.5998(3)
C49 C -0.4296(3) 0.6535(4) -0.6259(3)
H29 H -0.4557 0.6185 -0.6009
C50 C -0.4889(3) 0.6673(3) -0.6881(3)
H30 H -0.5562 0.6413 -0.7048
C51 C 0.5869(2) 0.7420(3) 0.0762(2)
H31 H 0.5609 0.6762 0.0462
C52 C 0.6572(2) 0.7761(3) 0.0482(2)
H32 H 0.6789 0.7346 0.0009
C53 C 0.6957(2) 0.8726(3) 0.0906(3)
C54 C 0.6611(3) 0.9290(3) 0.1592(3)
H33 H 0.6850 0.9952 0.1898
C55 C 0.5912(3) 0.8873(3) 0.1824(3)
H34 H 0.5686 0.9268 0.2300
C56 C 0.7707(3) 0.9105(3) 0.0638(3)
C57 C 0.8356(3) 0.9382(3) 0.0422(3)
C58 C 0.9175(3) 0.9687(3) 0.0187(2)
C59 C 0.9745(3) 0.9045(3) -0.0223(2)
H35 H 0.9573 0.8390 -0.0380
C60 C 0.9436(3) 1.0645(3) 0.0407(3)
H36 H 0.9048 1.1090 0.0686
N6 N 0.33126(19) 0.7253(2) 0.07600(18)
N7 N -0.45752(19) 0.7150(2) -0.72642(17)
N8 N 0.55336(19) 0.7946(2) 0.14193(19)
N9 N 0.4004(2) 0.5352(2) 0.0990(2)
N10 N 0.3655(3) 0.8437(3) 0.2926(2)
O7 O 0.45987(16) 0.59143(17) 0.08897(15)
O8 O 0.3916(2) 0.4495(2) 0.05596(18)
O9 O 0.35419(19) 0.5722(2) 0.15208(18)
O10 O 0.43257(19) 0.87229(19) 0.26795(17)
O11 O 0.33367(19) 0.7551(2) 0.25339(18)
O12 O 0.3328(2) 0.8979(2) 0.3506(2)
Co2_2 Co 1.44415(3) 0.72928(4) 1.17646(3)
Co2_3 Co -0.55585(3) 0.72928(4) -0.82354(3)
Co2A Co 1.55585(3) 1.27072(4) -0.17646(3)
C31_2 C 1.3431(3) 0.7729(3) 1.0319(2)
H19_2 H 1.4025 0.8153 1.0493
C32_2 C 1.2744(3) 0.7640(3) 0.9626(3)
H20_2 H 1.2871 0.7993 0.9332
C33_2 C 1.1877(3) 0.7042(3) 0.9361(2)
C34_2 C 1.1731(3) 0.6547(3) 0.9820(2)
H21_2 H 1.1140 0.6125 0.9661
C35_2 C 1.2460(2) 0.6680(3) 1.0509(2)
H22_2 H 1.2349 0.6346 1.0821
C36_2 C 1.1155(3) 0.6942(3) 0.8644(3)
C37_2 C 1.0568(3) 0.6911(3) 0.8063(3)
C38_2 C 0.9872(4) 0.6895(4) 0.7356(3)
C39_2 C 1.0197(4) 0.7452(4) 0.6941(3)
H23_2 H 1.0836 0.7805 0.7132
C40_2 C 0.9527(4) 0.7434(4) 0.6266(3)
H24_2 H 0.9696 0.7780 0.5978
C41_2 C 0.8550(3) 0.6875(4) 0.5998(3)
C42_2 C 0.8326(4) 0.6482(5) 0.6437(4)
H25_2 H 0.7675 0.6169 0.6295
C43_2 C 0.8996(4) 0.6489(5) 0.7121(4)
H26_2 H 0.8784 0.6177 0.7421
C44_2 C 0.7880(3) 0.6841(4) 0.5268(3)
C45_2 C 0.7330(3) 0.6836(4) 0.4683(3)
C46_2 C 0.6370(3) 0.7483(3) 0.2978(2)
H27_2 H 0.6618 0.7817 0.2709
C47_2 C 0.7015(3) 0.7377(3) 0.3592(3)
H28_2 H 0.7687 0.7627 0.3733
C48_2 C 0.6690(3) 0.6910(3) 0.4002(3)
C49_2 C 0.5704(3) 0.6535(4) 0.3741(3)
H29_2 H 0.5443 0.6185 0.3991
C50_2 C 0.5111(3) 0.6673(3) 0.3119(3)
H30_2 H 0.4438 0.6413 0.2952
C51A C 1.4131(2) 1.2580(3) -0.0762(2)
H31A H 1.4391 1.3238 -0.0462
C52A C 1.3428(2) 1.2239(3) -0.0482(2)
H32A H 1.3211 1.2654 -0.0009
C53A C 1.3043(2) 1.1274(3) -0.0906(3)
C54A C 1.3389(3) 1.0710(3) -0.1592(3)
H33A H 1.3150 1.0048 -0.1898
C55A C 1.4088(3) 1.1127(3) -0.1824(3)
H34A H 1.4314 1.0732 -0.2300
C56A C 1.2293(3) 1.0895(3) -0.0638(3)
C57A C 1.1644(3) 1.0618(3) -0.0422(3)
C58A C 1.0825(3) 1.0313(3) -0.0187(2)
C59A C 1.0255(3) 1.0955(3) 0.0223(2)
H35A H 1.0427 1.1610 0.0380
C60A C 1.0564(3) 0.9355(3) -0.0407(3)
H36A H 1.0952 0.8910 -0.0686
N6_2 N 1.33126(19) 0.7253(2) 1.07600(18)
N7_2 N 0.54248(19) 0.7150(2) 0.27358(17)
N7_3 N 1.54248(19) 0.7150(2) 1.27358(17)
N8A N 1.44664(19) 1.2054(2) -0.14193(19)
N8_2 N 1.55336(19) 0.7946(2) 1.14193(19)
N9_2 N 1.4004(2) 0.5352(2) 1.0990(2)
N10_2 N 1.3655(3) 0.8437(3) 1.2926(2)
O7_2 O 1.45987(16) 0.59143(17) 1.08897(15)
O8_2 O 1.3916(2) 0.4495(2) 1.05596(18)
O9_2 O 1.35419(19) 0.5722(2) 1.15208(18)
O10_2 O 1.43257(19) 0.87229(19) 1.26795(17)
O11_2 O 1.33367(19) 0.7551(2) 1.25339(18)
O12_2 O 1.3328(2) 0.8979(2) 1.3506(2)
loop_
_geom_bond_atom_site_label_1
_geom_bond_atom_site_label_2
_geom_bond_site_symmetry_1
_geom_bond_site_symmetry_2
Co1 N1 1_555 1_555
Co2 N6 1_555 1_555
C1 H1 1_555 1_555
C2 C1 1_555 1_555
H2 C2 1_555 1_555
C3 C2 1_555 1_555
C4 C3 1_555 1_555
H3 C4 1_555 1_555
C5 C4 1_555 1_555
H4 C5 1_555 1_555
C6 C3 1_555 1_555
C7 C6 1_555 1_555
C8 C7 1_555 1_555
C9 C8 1_555 1_555
H5 C9 1_555 1_555
C10 C9 1_555 1_555
H6 C10 1_555 1_555
C11 C10 1_555 1_555
C12 C11 1_555 1_555
H7 C12 1_555 1_555
C13 C8 1_555 1_555
H8 C13 1_555 1_555
C14 C11 1_555 1_555
C15 C14 1_555 1_555
C16 H9 1_555 1_555
C17 C16 1_555 1_555
H10 C17 1_555 1_555
C18 C15 1_555 1_555
C19 C18 1_555 1_555
H11 C19 1_555 1_555
C20 C19 1_555 1_555
H12 C20 1_555 1_555
C21 H13 1_555 1_555
C22 C21 1_555 1_555
H14 C22 1_555 1_555
C23 C22 1_555 1_555
C24 C23 1_555 1_555
H15 C24 1_555 1_555
C25 C24 1_555 1_555
H16 C25 1_555 1_555
C26 C23 1_555 1_555
C27 C26 1_555 1_555
C28 C27 1_555 1_555
C29 C28 1_555 1_555
H17 C29 1_555 1_555
C30 C28 1_555 1_555
H18 C30 1_555 1_555
C31 H19 1_555 1_555
C32 C31 1_555 1_555
H20 C32 1_555 1_555
C33 C32 1_555 1_555
C34 C33 1_555 1_555
H21 C34 1_555 1_555
C35 C34 1_555 1_555
H22 C35 1_555 1_555
C36 C33 1_555 1_555
C37 C36 1_555 1_555
C38 C37 1_555 1_555
C39 C38 1_555 1_555
H23 C39 1_555 1_555
C40 C39 1_555 1_555
H24 C40 1_555 1_555
C41 C40 1_555 1_555
C42 C41 1_555 1_555
H25 C42 1_555 1_555
C43 C38 1_555 1_555
H26 C43 1_555 1_555
C44 C41 1_555 1_555
C45 C44 1_555 1_555
C46 H27 1_555 1_555
C47 C46 1_555 1_555
H28 C47 1_555 1_555
C48 C45 1_555 1_555
C49 C48 1_555 1_555
H29 C49 1_555 1_555
C50 C49 1_555 1_555
H30 C50 1_555 1_555
C51 H31 1_555 1_555
C52 C51 1_555 1_555
H32 C52 1_555 1_555
C53 C52 1_555 1_555
C54 C53 1_555 1_555
H33 C54 1_555 1_555
C55 C54 1_555 1_555
H34 C55 1_555 1_555
C56 C53 1_555 1_555
C57 C56 1_555 1_555
C58 C57 1_555 1_555
C59 C58 1_555 1_555
H35 C59 1_555 1_555
C60 C58 1_555 1_555
H36 C60 1_555 1_555
N1 C1 1_555 1_555
N2 C16 1_555 1_555
N3 Co1 1_555 1_555
N4 O1 1_555 1_555
N5 O4 1_555 1_555
N6 C31 1_555 1_555
N7 C46 1_555 1_555
N8 Co2 1_555 1_555
N9 O7 1_555 1_555
N10 O10 1_555 1_555
O1 Co1 1_555 1_555
O2 N4 1_555 1_555
O3 Co1 1_555 1_555
O4 Co1 1_555 1_555
O5 Co1 1_555 1_555
O6 N5 1_555 1_555
O7 Co2 1_555 1_555
O8 N9 1_555 1_555
O9 N9 1_555 1_555
O10 Co2 1_555 1_555
O11 Co2 1_555 1_555
O12 N10 1_555 1_555
Co1_2 N1_2 1_555 1_555
Co1_3 N2 1_555 1_555
Co1A N3A 1_555 1_555
Co2_2 N6_2 1_555 1_555
Co2_3 N7 1_555 1_555
Co2A N8A 1_555 1_555
C1_2 H1_2 1_555 1_555
C2_2 C1_2 1_555 1_555
H2_2 C2_2 1_555 1_555
C3_2 C2_2 1_555 1_555
C4_2 C3_2 1_555 1_555
H3_2 C4_2 1_555 1_555
C5_2 C4_2 1_555 1_555
H4_2 C5_2 1_555 1_555
C6_2 C3_2 1_555 1_555
C7_2 C6_2 1_555 1_555
C8_2 C7_2 1_555 1_555
C9_2 C8_2 1_555 1_555
H5_2 C9_2 1_555 1_555
C10_2 C9_2 1_555 1_555
H6_2 C10_2 1_555 1_555
C11_2 C10_2 1_555 1_555
C12_2 C11_2 1_555 1_555
H7_2 C12_2 1_555 1_555
C13_2 C8_2 1_555 1_555
H8_2 C13_2 1_555 1_555
C14_2 C11_2 1_555 1_555
C15_2 C14_2 1_555 1_555
C16_2 H9_2 1_555 1_555
C17_2 C16_2 1_555 1_555
H10_2 C17_2 1_555 1_555
C18_2 C15_2 1_555 1_555
C19_2 C18_2 1_555 1_555
H11_2 C19_2 1_555 1_555
C20_2 C19_2 1_555 1_555
H12_2 C20_2 1_555 1_555
C21A H13A 1_555 1_555
C22A C21A 1_555 1_555
H14A C22A 1_555 1_555
C23A C22A 1_555 1_555
C24A C23A 1_555 1_555
H15A C24A 1_555 1_555
C25A C24A 1_555 1_555
H16A C25A 1_555 1_555
C26A C23A 1_555 1_555
C27A C26A 1_555 1_555
C28A C27A 1_555 1_555
C29A C30 1_555 1_555
H17A C29A 1_555 1_555
C30A C29 1_555 1_555
H18A C30A 1_555 1_555
C31_2 H19_2 1_555 1_555
C32_2 C31_2 1_555 1_555
H20_2 C32_2 1_555 1_555
C33_2 C32_2 1_555 1_555
C34_2 C33_2 1_555 1_555
H21_2 C34_2 1_555 1_555
C35_2 C34_2 1_555 1_555
H22_2 C35_2 1_555 1_555
C36_2 C33_2 1_555 1_555
C37_2 C36_2 1_555 1_555
C38_2 C37_2 1_555 1_555
C39_2 C38_2 1_555 1_555
H23_2 C39_2 1_555 1_555
C40_2 C39_2 1_555 1_555
H24_2 C40_2 1_555 1_555
C41_2 C40_2 1_555 1_555
C42_2 C41_2 1_555 1_555
H25_2 C42_2 1_555 1_555
C43_2 C38_2 1_555 1_555
H26_2 C43_2 1_555 1_555
C44_2 C41_2 1_555 1_555
C45_2 C44_2 1_555 1_555
C46_2 H27_2 1_555 1_555
C47_2 C46_2 1_555 1_555
H28_2 C47_2 1_555 1_555
C48_2 C45_2 1_555 1_555
C49_2 C48_2 1_555 1_555
H29_2 C49_2 1_555 1_555
C50_2 C49_2 1_555 1_555
H30_2 C50_2 1_555 1_555
C51A H31A 1_555 1_555
C52A C51A 1_555 1_555
H32A C52A 1_555 1_555
C53A C52A 1_555 1_555
C54A C53A 1_555 1_555
H33A C54A 1_555 1_555
C55A C54A 1_555 1_555
H34A C55A 1_555 1_555
C56A C53A 1_555 1_555
C57A C56A 1_555 1_555
C58A C57A 1_555 1_555
C59A C60 1_555 1_555
H35A C59A 1_555 1_555
C60A C59 1_555 1_555
H36A C60A 1_555 1_555
N1_2 C1_2 1_555 1_555
N2_2 Co1 1_555 1_555
N2_3 Co1_2 1_555 1_555
N3A C21A 1_555 1_555
N3_2 Co1_2 1_555 1_555
N4_2 O1_2 1_555 1_555
N5_2 O4_2 1_555 1_555
N6_2 C31_2 1_555 1_555
N7_2 Co2 1_555 1_555
N7_3 Co2_2 1_555 1_555
N8A C51A 1_555 1_555
N8_2 Co2_2 1_555 1_555
N9_2 O7_2 1_555 1_555
N10_2 O10_2 1_555 1_555
O1_2 Co1_2 1_555 1_555
O2_2 N4_2 1_555 1_555
O3_2 Co1_2 1_555 1_555
O4_2 Co1_2 1_555 1_555
O5_2 Co1_2 1_555 1_555
O6_2 N5_2 1_555 1_555
O7_2 Co2_2 1_555 1_555
O8_2 N9_2 1_555 1_555
O9_2 N9_2 1_555 1_555
O10_2 Co2_2 1_555 1_555
O11_2 Co2_2 1_555 1_555
O12_2 N10_2 1_555 1_555
C5 N1 1_555 1_555
C12 C13 1_555 1_555
C17 C18 1_555 1_555
C20 N2 1_555 1_555
C21 N3 1_555 1_555
C25 N3 1_555 1_555
C35 N6 1_555 1_555
C42 C43 1_555 1_555
C47 C48 1_555 1_555
C50 N7 1_555 1_555
C51 N8 1_555 1_555
C55 N8 1_555 1_555
N4 O3 1_555 1_555
N5 O5 1_555 1_555
N10 O11 1_555 1_555
C5_2 N1_2 1_555 1_555
C12_2 C13_2 1_555 1_555
C16_2 N2_2 1_555 1_555
C17_2 C18_2 1_555 1_555
C20_2 N2_2 1_555 1_555
C25A N3A 1_555 1_555
C28A C29A 1_555 1_555
C28A C30A 1_555 1_555
C35_2 N6_2 1_555 1_555
C42_2 C43_2 1_555 1_555
C46_2 N7_2 1_555 1_555
C47_2 C48_2 1_555 1_555
C50_2 N7_2 1_555 1_555
C55A N8A 1_555 1_555
C58A C59A 1_555 1_555
C58A C60A 1_555 1_555
N4_2 O3_2 1_555 1_555
N5_2 O5_2 1_555 1_555
N10_2 O11_2 1_555 1_555

#END
