
#######################################################################
#
#                 Cambridge Crystallographic Data Centre
#                                CCDC 
#
#######################################################################
#
# If this CIF has been generated from an entry in the Cambridge 
# Structural Database, then it will include bibliographic, chemical, 
# crystal, experimental, refinement or atomic coordinate data resulting 
# from the CCDC's data processing and validation procedures.
#
#######################################################################

data_RARBIW
_symmetry_cell_setting           monoclinic
_symmetry_space_group_name_H-M   'I 2/a'
_symmetry_Int_Tables_number      15
_space_group_name_Hall           '-I 2ya'
loop_
_symmetry_equiv_pos_site_id
_symmetry_equiv_pos_as_xyz
1 x,y,z
2 1/2+x,1/2+y,1/2+z
3 1/2-x,y,-z
4 -x,1/2+y,1/2-z
5 -x,-y,-z
6 1/2-x,1/2-y,1/2-z
7 1/2+x,-y,z
8 x,1/2-y,1/2+z
_cell_length_a                   11.3706(10)
_cell_length_b                   20.3114(18)
_cell_length_c                   15.2401(19)
_cell_angle_alpha                90
_cell_angle_beta                 100.201(2)
_cell_angle_gamma                90
_cell_volume                     3464.11
loop_
_atom_site_label
_atom_site_type_symbol
_atom_site_fract_x
_atom_site_fract_y
_atom_site_fract_z
Cd1 Cd -0.2500 0.609910(18) 0.5000
C1 C -0.0233(4) 0.6197(2) 0.4022(3)
H1 H 0.0114 0.5966 0.4530
C2 C 0.0500(4) 0.6396(2) 0.3434(3)
H2 H 0.1314 0.6304 0.3554
C3 C 0.0006(4) 0.6731(2) 0.2668(3)
C4 C -0.1206(4) 0.6834(3) 0.2523(3)
H3 H -0.1583 0.7037 0.2002
C5 C -0.1851(4) 0.6636(3) 0.3144(3)
H4 H -0.2665 0.6727 0.3044
C6 C 0.0721(4) 0.6937(2) 0.2027(3)
C7 C 0.1293(4) 0.7064(2) 0.1460(3)
C8 C 0.1918(4) 0.7146(2) 0.0731(3)
C9 C 0.3154(4) 0.7149(2) 0.0852(3)
H5 H 0.3596 0.7145 0.1428
C10 C 0.1262(4) 0.7159(2) -0.0142(3)
H6 H 0.0432 0.7175 -0.0237
C11 C -0.0819(4) 0.5416(2) 0.6708(3)
H7 H -0.1487 0.5145 0.6637
C12 C 0.0134(4) 0.5256(2) 0.7358(3)
H8 H 0.0107 0.4886 0.7713
C13 C 0.1147(3) 0.5660(2) 0.7478(2)
C14 C 0.1114(3) 0.6202(2) 0.6934(3)
H9 H 0.1764 0.6486 0.6995
C15 C 0.0122(3) 0.6323(2) 0.6303(3)
H10 H 0.0122 0.6694 0.5946
C16 C 0.2169(4) 0.5503(2) 0.8133(3)
C17 C 0.3020(4) 0.5364(2) 0.8688(3)
C18 C 0.4029(3) 0.5179(2) 0.9356(3)
C19 C 0.4982(4) 0.5609(2) 0.9598(3)
H11 H 0.4975 0.6018 0.9322
C20 C 0.4059(4) 0.4567(2) 0.9755(3)
H12 H 0.3433 0.4272 0.9588
N1 N -0.1370(3) 0.6312(2) 0.3906(2)
N2 N -0.0846(3) 0.59369(16) 0.6170(2)
N3 N -0.2500 0.4642(3) 0.5000
N4 N -0.2500 0.7608(2) 0.5000
O1 O -0.1783(4) 0.49490(19) 0.4647(3)
O2 O -0.2500 0.4016(2) 0.5000
O3 O -0.3300(3) 0.7306(2) 0.4530(2)
O4 O -0.2500 0.8188(3) 0.5000
Cd1_2 Cd 0.7500 0.609910(18) -0.5000
Cd1F Cd 1.2500 0.390090(18) 1.5000
C1B C 0.5233(4) 0.6197(2) -0.4022(3)
H1B H 0.4886 0.5966 -0.4530
C2B C 0.4500(4) 0.6396(2) -0.3434(3)
H2B H 0.3686 0.6304 -0.3554
C3B C 0.4994(4) 0.6731(2) -0.2668(3)
C4B C 0.6206(4) 0.6834(3) -0.2523(3)
H3B H 0.6583 0.7037 -0.2002
C5B C 0.6851(4) 0.6636(3) -0.3144(3)
H4B H 0.7665 0.6727 -0.3044
C6B C 0.4279(4) 0.6937(2) -0.2027(3)
C7B C 0.3707(4) 0.7064(2) -0.1460(3)
C8B C 0.3082(4) 0.7146(2) -0.0731(3)
C9B C 0.1846(4) 0.7149(2) -0.0852(3)
H5B H 0.1404 0.7145 -0.1428
C10B C 0.3738(4) 0.7159(2) 0.0142(3)
H6B H 0.4568 0.7175 0.0237
C11D C 1.0819(4) 0.4584(2) 1.3292(3)
H7D H 1.1487 0.4855 1.3363
C12D C 0.9866(4) 0.4744(2) 1.2642(3)
H8D H 0.9893 0.5114 1.2287
C13D C 0.8853(3) 0.4340(2) 1.2522(2)
C14D C 0.8886(3) 0.3798(2) 1.3066(3)
H9D H 0.8236 0.3514 1.3005
C15D C 0.9878(3) 0.3677(2) 1.3697(3)
H10D H 0.9878 0.3306 1.4054
C16D C 0.7831(4) 0.4497(2) 1.1867(3)
C17D C 0.6980(4) 0.4636(2) 1.1312(3)
C18D C 0.5971(3) 0.4821(2) 1.0644(3)
C19D C 0.5018(4) 0.4391(2) 1.0402(3)
H11D H 0.5025 0.3982 1.0678
C20D C 0.5941(4) 0.5433(2) 1.0245(3)
H12D H 0.6567 0.5728 1.0412
N1B N 0.6370(3) 0.6312(2) -0.3906(2)
N1B_2 N -0.3630(3) 0.6312(2) 0.6094(2)
N2D N 1.0846(3) 0.40631(16) 1.3830(2)
N2B N -0.4154(3) 0.59369(16) 0.3830(2)
O1B O -0.3217(4) 0.49490(19) 0.5353(3)
O3B O -0.1700(3) 0.7306(2) 0.5470(2)
loop_
_geom_bond_atom_site_label_1
_geom_bond_atom_site_label_2
_geom_bond_site_symmetry_1
_geom_bond_site_symmetry_2
Cd1 N1 1_555 1_555
C1 H1 1_555 1_555
C2 C1 1_555 1_555
H2 C2 1_555 1_555
C3 C2 1_555 1_555
C4 C3 1_555 1_555
H3 C4 1_555 1_555
C5 C4 1_555 1_555
H4 C5 1_555 1_555
C6 C3 1_555 1_555
C7 C6 1_555 1_555
C8 C7 1_555 1_555
C9 C8 1_555 1_555
H5 C9 1_555 1_555
C10 C8 1_555 1_555
H6 C10 1_555 1_555
C11 H7 1_555 1_555
C12 C11 1_555 1_555
H8 C12 1_555 1_555
C13 C12 1_555 1_555
C14 C13 1_555 1_555
H9 C14 1_555 1_555
C15 C14 1_555 1_555
H10 C15 1_555 1_555
C16 C13 1_555 1_555
C17 C16 1_555 1_555
C18 C17 1_555 1_555
C19 C18 1_555 1_555
H11 C19 1_555 1_555
C20 C18 1_555 1_555
H12 C20 1_555 1_555
N1 C1 1_555 1_555
N2 Cd1 1_555 1_555
N3 O1 1_555 1_555
N4 O3 1_555 1_555
O1 Cd1 1_555 1_555
O2 N3 1_555 1_555
O3 Cd1 1_555 1_555
O4 N4 1_555 1_555
Cd1_2 N1B 1_555 1_555
Cd1F N2D 1_555 1_555
C1B H1B 1_555 1_555
C2B C1B 1_555 1_555
H2B C2B 1_555 1_555
C3B C2B 1_555 1_555
C4B C3B 1_555 1_555
H3B C4B 1_555 1_555
C5B C4B 1_555 1_555
H4B C5B 1_555 1_555
C6B C3B 1_555 1_555
C7B C6B 1_555 1_555
C8B C7B 1_555 1_555
C9B C10 1_555 1_555
H5B C9B 1_555 1_555
C10B C9 1_555 1_555
H6B C10B 1_555 1_555
C11D H7D 1_555 1_555
C12D C11D 1_555 1_555
H8D C12D 1_555 1_555
C13D C12D 1_555 1_555
C14D C13D 1_555 1_555
H9D C14D 1_555 1_555
C15D C14D 1_555 1_555
H10D C15D 1_555 1_555
C16D C13D 1_555 1_555
C17D C16D 1_555 1_555
C18D C17D 1_555 1_555
C19D C20 1_555 1_555
H11D C19D 1_555 1_555
C20D C19 1_555 1_555
H12D C20D 1_555 1_555
N1B C1B 1_555 1_555
N1B_2 Cd1 1_555 1_555
N2D C11D 1_555 1_555
N2B Cd1 1_555 1_555
O1B Cd1 1_555 1_555
O3B Cd1 1_555 1_555
C5 N1 1_555 1_555
C11 N2 1_555 1_555
C15 N2 1_555 1_555
N3 O1B 1_555 1_555
N4 O3B 1_555 1_555
C5B N1B 1_555 1_555
C8B C9B 1_555 1_555
C8B C10B 1_555 1_555
C15D N2D 1_555 1_555
C18D C19D 1_555 1_555
C18D C20D 1_555 1_555

#END
