
#######################################################################
#
#                 Cambridge Crystallographic Data Centre
#                                CCDC 
#
#######################################################################
#
# If this CIF has been generated from an entry in the Cambridge 
# Structural Database, then it will include bibliographic, chemical, 
# crystal, experimental, refinement or atomic coordinate data resulting 
# from the CCDC's data processing and validation procedures.
#
#######################################################################

data_RARBOC
_symmetry_cell_setting           monoclinic
_symmetry_space_group_name_H-M   'I 2/a'
_symmetry_Int_Tables_number      15
_space_group_name_Hall           '-I 2ya'
loop_
_symmetry_equiv_pos_site_id
_symmetry_equiv_pos_as_xyz
1 x,y,z
2 1/2+x,1/2+y,1/2+z
3 1/2-x,y,-z
4 -x,1/2+y,1/2-z
5 -x,-y,-z
6 1/2-x,1/2-y,1/2-z
7 1/2+x,-y,z
8 x,1/2-y,1/2+z
_cell_length_a                   10.6133(6)
_cell_length_b                   20.5652(11)
_cell_length_c                   14.7013(12)
_cell_angle_alpha                90
_cell_angle_beta                 98.6370(10)
_cell_angle_gamma                90
_cell_volume                     3172.39
loop_
_atom_site_label
_atom_site_type_symbol
_atom_site_fract_x
_atom_site_fract_y
_atom_site_fract_z
Cu1 Cu 0.2500 0.409880(14) 0.5000
C1 C 0.16487(19) 0.54223(9) 0.53975(13)
H1 H 0.1032 0.5190 0.5674
C2 C 0.1628(2) 0.60916(10) 0.54226(14)
H2 H 0.1023 0.6312 0.5726
C3 C 0.2500 0.64414(12) 0.5000
C4 C 0.2500 0.71389(13) 0.5000
C5 C 0.2500 0.77205(13) 0.5000
C6 C 0.2500 0.84178(12) 0.5000
C7 C 0.1840(2) 0.87629(9) 0.56020(14)
H3 H 0.1396 0.8534 0.6017
C8 C 0.1832(2) 0.94310(10) 0.55945(14)
H4 H 0.1369 0.9661 0.5997
C9 C 0.2500 0.97747(12) 0.5000
C10 C 0.2500 1.04699(13) 0.5000
C11 C 0.2500 1.10548(14) 0.5000
C12 C 0.2500 1.17488(13) 0.5000
C13 C 0.1414(2) 1.20979(9) 0.51234(15)
H5 H 0.0656 1.1878 0.5213
C14 C 0.1456(2) 1.27703(9) 0.51141(15)
H6 H 0.0709 1.3005 0.5193
C15 C 0.3820(2) 0.40422(9) 0.70267(15)
C16 C 0.2645(2) 0.40055(11) 0.73504(14)
H7 H 0.2644 0.3976 0.7995
C17 C 0.1492(2) 0.40104(9) 0.67790(14)
C18 C 0.5021(2) 0.39981(12) 0.77518(17)
C19 C 0.0283(2) 0.39279(13) 0.72129(16)
N1 N 0.2500 0.50829(10) 0.5000
N2 N 0.2500 1.31054(10) 0.5000
O1 O 0.40343(15) 0.40879(6) 0.62256(10)
O2 O 0.12566(14) 0.40661(6) 0.59194(9)
F1 F 0.48610(16) 0.41936(10) 0.85761(11)
F2 F 0.59799(17) 0.43172(13) 0.75167(12)
F3 F 0.5400(2) 0.33919(10) 0.78553(17)
F4 F -0.02948(16) 0.33730(9) 0.69355(13)
F5 F -0.05638(15) 0.43911(9) 0.69437(12)
F6 F 0.04691(16) 0.39270(12) 0.81202(11)
Cu1_2 Cu 0.2500 1.409880(14) 0.5000
C1B C 0.33513(19) 0.54223(9) 0.46025(13)
H1B H 0.3968 0.5190 0.4326
C2B C 0.3372(2) 0.60916(10) 0.45774(14)
H2B H 0.3977 0.6312 0.4274
C7B C 0.3160(2) 0.87629(9) 0.43980(14)
H3B H 0.3604 0.8534 0.3983
C8B C 0.3168(2) 0.94310(10) 0.44055(14)
H4B H 0.3631 0.9661 0.4003
C13B C 0.3586(2) 1.20979(9) 0.48766(15)
H5B H 0.4344 1.1878 0.4787
C14B C 0.3544(2) 1.27703(9) 0.48859(15)
H6B H 0.4291 1.3005 0.4807
C15B C 0.1180(2) 0.40422(9) 0.29733(15)
C16B C 0.2355(2) 0.40055(11) 0.26496(14)
H7B H 0.2356 0.3976 0.2005
C17B C 0.3508(2) 0.40104(9) 0.32210(14)
C18B C -0.0021(2) 0.39981(12) 0.22482(17)
C19B C 0.4717(2) 0.39279(13) 0.27871(16)
N2_2 N 0.2500 0.31054(10) 0.5000
O1B O 0.09657(15) 0.40879(6) 0.37744(10)
O2B O 0.37434(14) 0.40661(6) 0.40806(9)
F1B F 0.01390(16) 0.41936(10) 0.14239(11)
F2B F -0.09799(17) 0.43172(13) 0.24833(12)
F3B F -0.0400(2) 0.33919(10) 0.21447(17)
F4B F 0.52948(16) 0.33730(9) 0.30645(13)
F5B F 0.55638(15) 0.43911(9) 0.30563(12)
F6B F 0.45309(16) 0.39270(12) 0.18798(11)
loop_
_geom_bond_atom_site_label_1
_geom_bond_atom_site_label_2
_geom_bond_site_symmetry_1
_geom_bond_site_symmetry_2
Cu1 N1 1_555 1_555
C1 H1 1_555 1_555
C2 C1 1_555 1_555
H2 C2 1_555 1_555
C3 C2 1_555 1_555
C4 C3 1_555 1_555
C5 C4 1_555 1_555
C6 C5 1_555 1_555
C7 C6 1_555 1_555
H3 C7 1_555 1_555
C8 C7 1_555 1_555
H4 C8 1_555 1_555
C9 C8 1_555 1_555
C10 C9 1_555 1_555
C11 C10 1_555 1_555
C12 C11 1_555 1_555
C13 C12 1_555 1_555
H5 C13 1_555 1_555
C14 C13 1_555 1_555
H6 C14 1_555 1_555
C15 C16 1_555 1_555
C16 H7 1_555 1_555
C17 C16 1_555 1_555
C18 C15 1_555 1_555
C19 C17 1_555 1_555
N1 C1 1_555 1_555
N2 C14 1_555 1_555
O1 Cu1 1_555 1_555
O2 Cu1 1_555 1_555
F1 C18 1_555 1_555
F2 C18 1_555 1_555
F3 C18 1_555 1_555
F4 C19 1_555 1_555
F5 C19 1_555 1_555
F6 C19 1_555 1_555
Cu1_2 N2 1_555 1_555
C1B N1 1_555 1_555
H1B C1B 1_555 1_555
C2B C3 1_555 1_555
H2B C2B 1_555 1_555
C7B C6 1_555 1_555
H3B C7B 1_555 1_555
C8B C9 1_555 1_555
H4B C8B 1_555 1_555
C13B C12 1_555 1_555
H5B C13B 1_555 1_555
C14B N2 1_555 1_555
H6B C14B 1_555 1_555
C15B C16B 1_555 1_555
C16B H7B 1_555 1_555
C17B C16B 1_555 1_555
C18B C15B 1_555 1_555
C19B C17B 1_555 1_555
N2_2 Cu1 1_555 1_555
O1B Cu1 1_555 1_555
O2B Cu1 1_555 1_555
F1B C18B 1_555 1_555
F2B C18B 1_555 1_555
F3B C18B 1_555 1_555
F4B C19B 1_555 1_555
F5B C19B 1_555 1_555
F6B C19B 1_555 1_555
C15 O1 1_555 1_555
C17 O2 1_555 1_555
C1B C2B 1_555 1_555
C7B C8B 1_555 1_555
C13B C14B 1_555 1_555
C15B O1B 1_555 1_555
C17B O2B 1_555 1_555

#END
