
#######################################################################
#
#                 Cambridge Crystallographic Data Centre
#                                CCDC 
#
#######################################################################
#
# If this CIF has been generated from an entry in the Cambridge 
# Structural Database, then it will include bibliographic, chemical, 
# crystal, experimental, refinement or atomic coordinate data resulting 
# from the CCDC's data processing and validation procedures.
#
#######################################################################

data_RARDIY
_symmetry_cell_setting           triclinic
_symmetry_space_group_name_H-M   'P -1'
_symmetry_Int_Tables_number      2
_space_group_name_Hall           '-P 1'
loop_
_symmetry_equiv_pos_site_id
_symmetry_equiv_pos_as_xyz
1 x,y,z
2 -x,-y,-z
_cell_length_a                   8.4923(7)
_cell_length_b                   10.2828(9)
_cell_length_c                   11.1011(10)
_cell_angle_alpha                73.8860(10)
_cell_angle_beta                 79.1570(10)
_cell_angle_gamma                70.9930(10)
_cell_volume                     875.426
loop_
_atom_site_label
_atom_site_type_symbol
_atom_site_fract_x
_atom_site_fract_y
_atom_site_fract_z
N1 N 0.4588(5) 0.5290(4) 0.2227(3)
C1 C 0.5413(6) 0.3929(5) 0.2735(4)
N2 N 0.6888(5) 0.3814(4) 0.3057(4)
C2 C 0.7015(6) 0.5179(5) 0.2757(5)
C3 C 0.5626(6) 0.6081(6) 0.2251(5)
B1 B 0.2754(6) 0.5830(6) 0.1925(5)
H1 H 0.500(7) 0.319(7) 0.284(5)
H2 H 0.535(6) 0.696(6) 0.199(5)
H3 H 0.804(8) 0.537(7) 0.287(6)
N3 N 0.0894(5) 0.2907(4) 0.2407(4)
N4 N 0.2233(5) 0.4551(4) 0.1890(3)
C4 C 0.1107(6) 0.3997(5) 0.2711(4)
C5 C 0.2828(6) 0.3722(5) 0.1009(5)
C6 C 0.2004(6) 0.2714(5) 0.1334(4)
H4 H 0.216(5) 0.204(5) 0.091(4)
H5 H 0.368(6) 0.386(5) 0.035(5)
H6 H 0.051(7) 0.436(6) 0.337(5)
Pb1 Pb 0.90053(2) 0.155841(18) 0.351087(15)
N5 N 0.0805(5) 0.7280(4) 0.4779(4)
N6 N 0.1664(4) 0.6536(4) 0.2985(3)
C7 C -0.0517(6) 0.7738(5) 0.4058(4)
C8 C -0.0026(6) 0.7309(5) 0.2982(5)
C9 C 0.2075(6) 0.6563(5) 0.4104(4)
H7 H 0.317(6) 0.607(5) 0.435(4)
H8 H -0.053(6) 0.748(5) 0.234(5)
H9 H -0.151(6) 0.828(6) 0.433(5)
N7 N 0.1454(5) 0.8107(4) -0.1176(4)
N8 N 0.2480(5) 0.6942(4) 0.0664(3)
C10 C 0.2153(6) 0.8955(5) -0.0789(5)
C11 C 0.1671(6) 0.6945(6) -0.0290(5)
C12 C 0.2748(7) 0.8262(6) 0.0322(5)
H10 H 0.334(7) 0.843(7) 0.076(6)
H11 H 0.209(6) 0.995(6) -0.120(5)
H12 H 0.131(7) 0.624(7) -0.026(6)
N3_2 N 1.0894(5) 0.2907(4) 0.2407(4)
Pb1_2 Pb -0.09947(2) 0.155841(18) 0.351087(15)
Pb1A Pb 0.09947(2) 0.844159(18) 0.648913(15)
Pb1A_2 Pb 0.09947(2) 0.844159(18) -0.351087(15)
N5A N 0.9195(5) 0.2720(4) 0.5221(4)
N7A N 0.8546(5) 0.1893(4) 0.1176(4)
Re1 Re 0.54986(2) 0.053082(19) 0.647628(16)
O1 O 0.7603(4) -0.0060(4) 0.5914(3)
O2 O 0.5360(4) 0.0572(4) 0.8039(3)
O3 O 0.4643(4) 0.2223(4) 0.5649(3)
O4 O 0.4360(4) -0.0561(4) 0.6383(3)
loop_
_geom_bond_atom_site_label_1
_geom_bond_atom_site_label_2
_geom_bond_site_symmetry_1
_geom_bond_site_symmetry_2
N1 C1 1_555 1_555
C1 N2 1_555 1_555
N2 C2 1_555 1_555
C2 C3 1_555 1_555
C3 N1 1_555 1_555
B1 N1 1_555 1_555
H1 C1 1_555 1_555
H2 C3 1_555 1_555
H3 C2 1_555 1_555
N3 C4 1_555 1_555
N4 B1 1_555 1_555
C4 N4 1_555 1_555
C5 N4 1_555 1_555
C6 N3 1_555 1_555
H4 C6 1_555 1_555
H5 C5 1_555 1_555
H6 C4 1_555 1_555
Pb1 N2 1_555 1_555
N5 C7 1_555 1_555
N6 B1 1_555 1_555
C7 C8 1_555 1_555
C8 N6 1_555 1_555
C9 N5 1_555 1_555
H7 C9 1_555 1_555
H8 C8 1_555 1_555
H9 C7 1_555 1_555
N7 C10 1_555 1_555
N8 B1 1_555 1_555
C10 C12 1_555 1_555
C11 N7 1_555 1_555
C12 N8 1_555 1_555
H10 C12 1_555 1_555
H11 C10 1_555 1_555
H12 C11 1_555 1_555
Re1 O1 1_555 1_555
O2 Re1 1_555 1_555
O3 Re1 1_555 1_555
O4 Re1 1_555 1_555
N3_2 Pb1 1_555 1_555
Pb1_2 N3 1_555 1_555
Pb1A N5 1_555 1_555
Pb1A_2 N7 1_555 1_555
N5A Pb1 1_555 1_555
N7A Pb1 1_555 1_555
C5 C6 1_555 1_555
N6 C9 1_555 1_555
N8 C11 1_555 1_555

#END
