
#######################################################################
#
#                 Cambridge Crystallographic Data Centre
#                                CCDC 
#
#######################################################################
#
# If this CIF has been generated from an entry in the Cambridge 
# Structural Database, then it will include bibliographic, chemical, 
# crystal, experimental, refinement or atomic coordinate data resulting 
# from the CCDC's data processing and validation procedures.
#
#######################################################################

data_RARFOG
_symmetry_cell_setting           orthorhombic
_symmetry_space_group_name_H-M   'P c c 2'
_symmetry_Int_Tables_number      27
_space_group_name_Hall           'P 2 -2c'
loop_
_symmetry_equiv_pos_site_id
_symmetry_equiv_pos_as_xyz
1 x,y,z
2 -x,-y,z
3 x,-y,1/2+z
4 -x,y,1/2+z
_cell_length_a                   14.545(3)
_cell_length_b                   8.514(5)
_cell_length_c                   8.5619(14)
_cell_angle_alpha                90
_cell_angle_beta                 90
_cell_angle_gamma                90
_cell_volume                     1060.27
loop_
_atom_site_label
_atom_site_type_symbol
_atom_site_fract_x
_atom_site_fract_y
_atom_site_fract_z
Sr1 Sr 0.0000 0.0000 0.13335(13)
O1 O 0.02227(17) 0.1644(3) -0.1255(5)
O2 O 0.0677(2) 0.3044(3) 0.0792(3)
O3 O 0.16351(18) 0.9243(3) 0.0986(4)
O6 O 0.27862(19) 1.0962(3) 0.0781(4)
N1 N 0.1830(2) 0.4882(3) -0.1012(8)
N2 N 0.2619(2) 0.6934(4) -0.0518(4)
C1 C 0.2958(3) 0.8562(4) -0.0522(6)
H1 H 0.2950 0.8963 -0.1607
H2 H 0.3605 0.8568 -0.0161
C2 C 0.1902(2) 0.6400(4) -0.1307(6)
H3 H 0.1510 0.6999 -0.1966
C3 C 0.2403(3) 0.9671(5) 0.0505(6)
C4 C 0.1178(3) 0.3796(5) -0.1782(5)
H4 H 0.1522 0.3116 -0.2515
H5 H 0.0731 0.4416 -0.2398
C5 C 0.0657(3) 0.2766(4) -0.0629(5)
C6 C 0.3023(3) 0.5730(5) 0.0284(5)
H6 H 0.3548 0.5789 0.0942
C7 C 0.2516(3) 0.4425(5) -0.0055(5)
H7 H 0.2626 0.3389 0.0313
Sr1B Sr 0.0000 0.0000 -0.36665(13)
Sr1_2 Sr 0.0000 1.0000 0.13335(13)
Sr1_3 Sr 0.0000 -1.0000 0.13335(13)
O1A O -0.02227(17) -0.1644(3) -0.1255(5)
O1B O 0.02227(17) -0.1644(3) 0.3745(5)
O1C O -0.02227(17) 0.1644(3) 0.3745(5)
O2A O -0.0677(2) -0.3044(3) 0.0792(3)
O3A O -0.16351(18) -0.9243(3) 0.0986(4)
O3_2 O 0.16351(18) -0.0757(3) 0.0986(4)
O3A_2 O -0.16351(18) 0.0757(3) 0.0986(4)
O6A O -0.27862(19) -1.0962(3) 0.0781(4)
N1A N -0.1830(2) -0.4882(3) -0.1012(8)
N2A N -0.2619(2) -0.6934(4) -0.0518(4)
C1A C -0.2958(3) -0.8562(4) -0.0522(6)
H1A H -0.2950 -0.8963 -0.1607
H2A H -0.3605 -0.8568 -0.0161
C2A C -0.1902(2) -0.6400(4) -0.1307(6)
H3A H -0.1510 -0.6999 -0.1966
C3A C -0.2403(3) -0.9671(5) 0.0505(6)
C4A C -0.1178(3) -0.3796(5) -0.1782(5)
H4A H -0.1522 -0.3116 -0.2515
H5A H -0.0731 -0.4416 -0.2398
C5A C -0.0657(3) -0.2766(4) -0.0629(5)
C6A C -0.3023(3) -0.5730(5) 0.0284(5)
H6A H -0.3548 -0.5789 0.0942
C7A C -0.2516(3) -0.4425(5) -0.0055(5)
H7A H -0.2626 -0.3389 0.0313
O4 O 0.4580(2) -0.8505(3) 0.0237(4)
H10 H 0.489(6) -0.951(6) 0.031(14)
H11 H 0.3936(19) -0.860(10) 0.048(10)
O5 O 0.4799(2) -0.6596(4) -0.2382(4)
H8 H 0.499(7) -0.720(11) -0.329(8)
H9 H 0.468(7) -0.729(10) -0.150(8)
loop_
_geom_bond_atom_site_label_1
_geom_bond_atom_site_label_2
_geom_bond_site_symmetry_1
_geom_bond_site_symmetry_2
Sr1 O1 1_555 1_555
O1 C5 1_555 1_555
O2 Sr1 1_555 1_555
O3 C3 1_555 1_555
O4 H10 1_555 1_555
O5 H8 1_555 1_555
O6 C3 1_555 1_555
N1 C2 1_555 1_555
N2 C1 1_555 1_555
C1 H1 1_555 1_555
H2 C1 1_555 1_555
C2 N2 1_555 1_555
H3 C2 1_555 1_555
C3 C1 1_555 1_555
C4 N1 1_555 1_555
H4 C4 1_555 1_555
H5 C4 1_555 1_555
C5 O2 1_555 1_555
C6 N2 1_555 1_555
H6 C6 1_555 1_555
C7 N1 1_555 1_555
H7 C7 1_555 1_555
H9 O5 1_555 1_555
H11 O4 1_555 1_555
Sr1B O1 1_555 1_555
Sr1_2 O3 1_555 1_555
Sr1_3 O3A 1_555 1_555
O1A Sr1 1_555 1_555
O1B Sr1 1_555 1_555
O1C Sr1 1_555 1_555
O2A Sr1 1_555 1_555
O3A C3A 1_555 1_555
O3_2 Sr1 1_555 1_555
O3A_2 Sr1 1_555 1_555
O6A C3A 1_555 1_555
N1A C2A 1_555 1_555
N2A C1A 1_555 1_555
C1A H1A 1_555 1_555
H2A C1A 1_555 1_555
C2A N2A 1_555 1_555
H3A C2A 1_555 1_555
C3A C1A 1_555 1_555
C4A N1A 1_555 1_555
H4A C4A 1_555 1_555
H5A C4A 1_555 1_555
C5A O1A 1_555 1_555
C6A N2A 1_555 1_555
H6A C6A 1_555 1_555
C7A N1A 1_555 1_555
H7A C7A 1_555 1_555
C4 C5 1_555 1_555
C6 C7 1_555 1_555
Sr1B O1A 1_555 1_555
O2A C5A 1_555 1_555
C4A C5A 1_555 1_555
C6A C7A 1_555 1_555

#END
