
#######################################################################
#
#                 Cambridge Crystallographic Data Centre
#                                CCDC 
#
#######################################################################
#
# If this CIF has been generated from an entry in the Cambridge 
# Structural Database, then it will include bibliographic, chemical, 
# crystal, experimental, refinement or atomic coordinate data resulting 
# from the CCDC's data processing and validation procedures.
#
#######################################################################

data_RARKUR01
_symmetry_cell_setting           monoclinic
_symmetry_space_group_name_H-M   'P 21/n'
_symmetry_Int_Tables_number      14
_space_group_name_Hall           '-P 2yn'
loop_
_symmetry_equiv_pos_site_id
_symmetry_equiv_pos_as_xyz
1 x,y,z
2 1/2-x,1/2+y,1/2-z
3 -x,-y,-z
4 1/2+x,1/2-y,1/2+z
_cell_length_a                   13.8183(9)
_cell_length_b                   18.5488(13)
_cell_length_c                   15.4737(12)
_cell_angle_alpha                90
_cell_angle_beta                 90.268(4)
_cell_angle_gamma                90
_cell_volume                     3966.07
loop_
_atom_site_label
_atom_site_type_symbol
_atom_site_fract_x
_atom_site_fract_y
_atom_site_fract_z
Fe1 Fe -0.00427(7) 0.27755(5) 0.74439(6)
Fe2 Fe -0.25200(7) 0.25044(5) 0.49264(7)
Cl1 Cl -0.15378(18) 0.09531(13) 0.4498(2)
Cl2 Cl -0.35074(19) 0.40832(13) 0.5174(2)
O1 O -0.1352(3) 0.3164(2) 0.5180(3)
N1 N 0.0515(4) 0.3518(3) 0.6682(3)
O2 O -0.2483(3) 0.2226(2) 0.6196(3)
O3 O 0.1312(3) 0.3159(2) 0.9684(3)
C1 C -0.0859(4) 0.3161(3) 0.5854(4)
N2 N -0.0595(4) 0.3519(3) 0.8220(3)
O4 O 0.2422(3) 0.2235(2) 0.8651(3)
C2 C 0.1721(5) 0.2305(3) 0.8176(4)
N3 N 0.0943(4) 0.2757(3) 0.8311(3)
N4 N 0.0774(4) 0.2018(3) 0.6915(4)
N5 N -0.1026(4) 0.2765(3) 0.6572(3)
N6 N -0.0874(4) 0.2031(3) 0.7957(3)
C3 C -0.1789(5) 0.2305(3) 0.6683(4)
O5 O -0.3594(3) 0.3306(3) 0.5158(3)
O6 O -0.1424(3) 0.1708(3) 0.4716(4)
C4 C 0.0803(5) 0.3164(3) 0.9032(4)
C5 C -0.1692(5) 0.1879(4) 0.7484(4)
C6 C -0.0089(5) 0.3607(3) 0.8959(4)
C7 C -0.0728(5) 0.1635(4) 0.8687(5)
H1 H -0.0182 0.1727 0.9023
C8 C 0.0604(6) 0.1630(4) 0.6204(5)
H2 H 0.0045 0.1719 0.5885
C9 C 0.1597(5) 0.1874(3) 0.7376(4)
C10 C 0.1315(5) 0.3902(4) 0.6812(5)
H3 H 0.1662 0.3842 0.7323
C11 C -0.1395(5) 0.3913(4) 0.8105(5)
H4 H -0.1744 0.3860 0.7593
C12 C 0.0020(4) 0.3604(4) 0.5925(4)
C13 C 0.1644(5) 0.4392(4) 0.6200(5)
H5 H 0.2197 0.4663 0.6310
C14 C -0.0352(5) 0.4076(4) 0.9602(5)
H6 H 0.0013 0.4127 1.0104
C15 C -0.1197(5) 0.4472(4) 0.9462(5)
H7 H -0.1407 0.4795 0.9881
C16 C -0.2326(5) 0.1344(4) 0.7715(5)
H8 H -0.2860 0.1245 0.7366
C17 C 0.0329(5) 0.4076(4) 0.5290(5)
H9 H -0.0014 0.4122 0.4774
C18 C 0.2062(5) 0.0970(4) 0.6406(5)
H10 H 0.2489 0.0613 0.6227
C19 C 0.1156(5) 0.4476(4) 0.5438(5)
H11 H 0.1378 0.4798 0.5023
C20 C -0.1722(5) 0.4392(4) 0.8714(5)
H12 H -0.2285 0.4655 0.8621
C21 C -0.1353(6) 0.1110(4) 0.8944(5)
H13 H -0.1229 0.0853 0.9449
C22 C 0.1224(6) 0.1108(4) 0.5932(5)
H14 H 0.1089 0.0846 0.5434
C23 C -0.2176(6) 0.0954(4) 0.8454(5)
H15 H -0.2608 0.0598 0.8625
C24 C 0.2252(5) 0.1358(4) 0.7130(5)
H16 H 0.2812 0.1277 0.7451
O7 O -0.0607(5) 0.0662(3) 0.4341(5)
O8 O -0.2137(6) 0.0912(5) 0.3753(7)
O9 O -0.4411(5) 0.4363(4) 0.5381(6)
O10 O -0.2837(6) 0.4277(5) 0.5767(8)
O11 O -0.3197(9) 0.4292(5) 0.4314(8)
O12 O -0.1978(7) 0.0611(4) 0.5172(8)
Fe2C Fe 0.24800(7) 0.24956(5) 0.99264(7)
O3C O -0.3688(3) 0.1841(2) 0.4684(3)
O4C O -0.2578(3) 0.2765(2) 0.3651(3)
Cl3 Cl 0.00435(16) 0.55851(11) 0.75149(17)
O13 O 0.0674(4) 0.5142(3) 0.7998(4)
O14 O -0.0520(5) 0.5992(4) 0.8111(5)
O15 O -0.0575(4) 0.5151(3) 0.7001(4)
O16 O 0.0587(5) 0.6025(4) 0.6967(5)
C25 C -0.0569(13) 0.0300(9) 0.2163(12)
O17 O 0.0649(10) -0.0235(8) 0.2929(9)
O18 O 0.0920(10) 0.0608(7) 0.2718(9)
N7 N 0.0088(16) 0.0288(16) 0.2450(16)
O19? O 0.1973(10) 0.2182(8) 0.3900(11)
N8? N 0.8785(15) 0.2492(11) 0.0762(14)
C26? C 0.9483(15) 0.2444(10) 0.1320(15)
O20? O 0.8386(9) 0.2080(7) 0.1878(9)
O21? O 0.1369(13) 0.2548(8) 0.4585(11)
N9? N 0.1430(16) 0.2138(11) 0.3074(15)
O22? O 0.8513(12) 0.1826(9) 0.1080(13)
C27? C 0.0647(10) 0.2383(7) 0.3723(11)
loop_
_geom_bond_atom_site_label_1
_geom_bond_atom_site_label_2
_geom_bond_site_symmetry_1
_geom_bond_site_symmetry_2
Fe1 N1 1_555 1_555
Fe2 O1 1_555 1_555
Cl1 O6 1_555 1_555
Cl2 O5 1_555 1_555
O1 C1 1_555 1_555
N1 C10 1_555 1_555
O2 Fe2 1_555 1_555
O3 C4 1_555 1_555
C1 N5 1_555 1_555
N2 Fe1 1_555 1_555
O4 C2 1_555 1_555
C2 N3 1_555 1_555
N3 Fe1 1_555 1_555
N4 Fe1 1_555 1_555
N5 Fe1 1_555 1_555
N6 Fe1 1_555 1_555
C3 O2 1_555 1_555
O5 Fe2 1_555 1_555
O6 Fe2 1_555 1_555
C4 N3 1_555 1_555
C5 N6 1_555 1_555
C6 N2 1_555 1_555
C7 N6 1_555 1_555
H1 C7 1_555 1_555
C8 N4 1_555 1_555
H2 C8 1_555 1_555
C9 C2 1_555 1_555
C10 H3 1_555 1_555
C11 N2 1_555 1_555
H4 C11 1_555 1_555
C12 N1 1_555 1_555
C13 C10 1_555 1_555
H5 C13 1_555 1_555
C14 C6 1_555 1_555
H6 C14 1_555 1_555
C15 C14 1_555 1_555
H7 C15 1_555 1_555
C16 C5 1_555 1_555
H8 C16 1_555 1_555
C17 C12 1_555 1_555
H9 C17 1_555 1_555
C18 H10 1_555 1_555
C19 C13 1_555 1_555
H11 C19 1_555 1_555
C20 C11 1_555 1_555
H12 C20 1_555 1_555
C21 C7 1_555 1_555
H13 C21 1_555 1_555
C22 C8 1_555 1_555
H14 C22 1_555 1_555
C23 C16 1_555 1_555
H15 C23 1_555 1_555
C24 C9 1_555 1_555
H16 C24 1_555 1_555
O7 Cl1 1_555 1_555
O8 Cl1 1_555 1_555
O9 Cl2 1_555 1_555
O10 Cl2 1_555 1_555
O11 Cl2 1_555 1_555
O12 Cl1 1_555 1_555
Cl3 O13 1_555 1_555
O14 Cl3 1_555 1_555
O15 Cl3 1_555 1_555
O16 Cl3 1_555 1_555
C25 N7 1_555 1_555
O17 N7 1_555 1_555
O18 N7 1_555 1_555
Fe2C O3 1_555 1_555
O3C Fe2 1_555 1_555
O4C Fe2 1_555 1_555
C1 C12 1_555 1_555
O4 Fe2C 1_555 1_555
N4 C9 1_555 1_555
N5 C3 1_555 1_555
C3 C5 1_555 1_555
C4 C6 1_555 1_555
C15 C20 1_555 1_555
C17 C19 1_555 1_555
C18 C22 1_555 1_555
C18 C24 1_555 1_555
C21 C23 1_555 1_555

#END
