
#######################################################################
#
#                 Cambridge Crystallographic Data Centre
#                                CCDC 
#
#######################################################################
#
# If this CIF has been generated from an entry in the Cambridge 
# Structural Database, then it will include bibliographic, chemical, 
# crystal, experimental, refinement or atomic coordinate data resulting 
# from the CCDC's data processing and validation procedures.
#
#######################################################################

data_RARSUA
_symmetry_cell_setting           monoclinic
_symmetry_space_group_name_H-M   'C 2/c'
_symmetry_Int_Tables_number      15
_space_group_name_Hall           '-C 2yn'
loop_
_symmetry_equiv_pos_site_id
_symmetry_equiv_pos_as_xyz
1 x,y,z
2 -x,y,1/2-z
3 1/2+x,1/2+y,z
4 1/2-x,1/2+y,1/2-z
5 -x,-y,-z
6 x,-y,1/2+z
7 1/2-x,1/2-y,-z
8 1/2+x,1/2-y,1/2+z
_cell_length_a                   9.2225(6)
_cell_length_b                   13.9131(9)
_cell_length_c                   14.6484(9)
_cell_angle_alpha                90
_cell_angle_beta                 93.7500(10)
_cell_angle_gamma                90
_cell_volume                     1875.56
loop_
_atom_site_label
_atom_site_type_symbol
_atom_site_fract_x
_atom_site_fract_y
_atom_site_fract_z
Ti1 Ti 1.0000 0.87901(4) -0.2500
Na1 Na 1.06939(11) 1.08214(7) -0.38112(7)
O1 O 1.07353(17) 1.00560(11) -0.22787(11)
O2 O 1.09145(19) 0.91132(12) -0.37475(11)
O3 O 1.1308(2) 0.88204(13) -0.51933(12)
O4 O 1.3689(2) 0.74017(13) -0.15050(13)
O5 O 1.18542(18) 0.84076(12) -0.17906(11)
O6 O 1.2375(3) 1.07525(16) -0.49455(14)
N1 N 1.0839(2) 0.73507(14) -0.32547(13)
C1 C 1.0045(3) 0.64543(17) -0.30152(18)
H1 H 0.9048 0.6523 -0.3282
C2 C 1.0641(3) 0.55208(19) -0.3400(2)
H2 H 1.0489 0.5521 -0.4062
H3 H 1.1677 0.5480 -0.3244
C3 C 0.9884(3) 0.46581(19) -0.3012(2)
H4 H 0.8852 0.4684 -0.3188
H5 H 1.0272 0.4071 -0.3257
C4 C 1.0661(3) 0.75177(17) -0.42497(17)
H6 H 0.9675 0.7367 -0.4474
H7 H 1.1320 0.7108 -0.4563
C5 C 1.0987(3) 0.85523(19) -0.44298(17)
C6 C 1.2401(3) 0.73210(17) -0.29572(17)
H8 H 1.2942 0.7693 -0.3380
H9 H 1.2741 0.6662 -0.2974
C7 C 1.2692(3) 0.77133(16) -0.20092(17)
H10 H 1.222(3) 1.0173(8) -0.5094(16)
H11 H 1.240(3) 1.1099(13) -0.5415(12)
Na1A Na 0.93061(11) 1.08214(7) -0.11888(7)
Na1D Na 0.93061(11) 0.91786(7) -0.61888(7)
Na1C Na 1.43061(11) 0.58214(7) -0.11888(7)
Na1E Na 1.06939(11) 0.91786(7) 0.11888(7)
Na1B Na 0.56939(11) 0.58214(7) -0.38112(7)
O1A O 0.92647(17) 1.00560(11) -0.27213(11)
O2A O 0.90855(19) 0.91132(12) -0.12525(11)
O3A O 0.8692(2) 0.88204(13) 0.01933(12)
O3D O 0.8692(2) 1.11796(13) -0.48067(12)
O3E O 1.1308(2) 1.11796(13) -0.01933(12)
O4A O 0.6311(2) 0.74017(13) -0.34950(13)
O4C O 1.1311(2) 1.24017(13) -0.34950(13)
O4B O 0.8689(2) 1.24017(13) -0.15050(13)
O5A O 0.81458(18) 0.84076(12) -0.32094(11)
O6A O 0.7625(3) 1.07525(16) -0.00545(14)
N1A N 0.9161(2) 0.73507(14) -0.17453(13)
C1A C 0.9955(3) 0.64543(17) -0.19848(18)
H1A H 1.0952 0.6523 -0.1718
C2A C 0.9359(3) 0.55208(19) -0.1600(2)
H2A H 0.9511 0.5521 -0.0938
H3A H 0.8323 0.5480 -0.1756
C3A C 1.0116(3) 0.46581(19) -0.1988(2)
H4A H 1.1148 0.4684 -0.1812
H5A H 0.9728 0.4071 -0.1743
C4A C 0.9339(3) 0.75177(17) -0.07503(17)
H6A H 1.0325 0.7367 -0.0526
H7A H 0.8680 0.7108 -0.0437
C5A C 0.9013(3) 0.85523(19) -0.05702(17)
C6A C 0.7599(3) 0.73210(17) -0.20428(17)
H8A H 0.7058 0.7693 -0.1620
H9A H 0.7259 0.6662 -0.2026
C7A C 0.7308(3) 0.77133(16) -0.29908(17)
H10A H 0.778(3) 1.0173(8) 0.0094(16)
H11A H 0.760(3) 1.1099(13) 0.0415(12)
loop_
_geom_bond_atom_site_label_1
_geom_bond_atom_site_label_2
_geom_bond_site_symmetry_1
_geom_bond_site_symmetry_2
Ti1 O1 1_555 1_555
Na1 O1 1_555 1_555
O1 Na1A 1_555 1_555
O2 Ti1 1_555 1_555
O3 C5 1_555 1_555
O4 C7 1_555 1_555
O5 Ti1 1_555 1_555
O6 Na1 1_555 1_555
N1 Ti1 1_555 1_555
C1 N1 1_555 1_555
H1 C1 1_555 1_555
C2 C1 1_555 1_555
H2 C2 1_555 1_555
H3 C2 1_555 1_555
C3 C2 1_555 1_555
H4 C3 1_555 1_555
H5 C3 1_555 1_555
C4 N1 1_555 1_555
H6 C4 1_555 1_555
H7 C4 1_555 1_555
C5 O2 1_555 1_555
C6 N1 1_555 1_555
H8 C6 1_555 1_555
H9 C6 1_555 1_555
C7 O5 1_555 1_555
H10 O6 1_555 1_555
H11 O6 1_555 1_555
Na1A O1A 1_555 1_555
Na1D O3 1_555 1_555
Na1C O4 1_555 1_555
Na1E O3A 1_555 1_555
Na1B O4A 1_555 1_555
O1A Ti1 1_555 1_555
O2A Ti1 1_555 1_555
O3A C5A 1_555 1_555
O3D Na1 1_555 1_555
O3E Na1A 1_555 1_555
O4A C7A 1_555 1_555
O4C Na1 1_555 1_555
O4B Na1A 1_555 1_555
O5A Ti1 1_555 1_555
O6A Na1A 1_555 1_555
N1A Ti1 1_555 1_555
C1A C1 1_555 1_555
H1A C1A 1_555 1_555
C2A C1A 1_555 1_555
H2A C2A 1_555 1_555
H3A C2A 1_555 1_555
C3A C3 1_555 1_555
H4A C3A 1_555 1_555
H5A C3A 1_555 1_555
C4A N1A 1_555 1_555
H6A C4A 1_555 1_555
H7A C4A 1_555 1_555
C5A O2A 1_555 1_555
C6A N1A 1_555 1_555
H8A C6A 1_555 1_555
H9A C6A 1_555 1_555
C7A O5A 1_555 1_555
H10A O6A 1_555 1_555
H11A O6A 1_555 1_555
Na1 O2 1_555 1_555
Na1 O1A 1_555 1_555
O1 O1A 1_555 1_555
C4 C5 1_555 1_555
C6 C7 1_555 1_555
Na1A O2A 1_555 1_555
N1A C1A 1_555 1_555
C2A C3A 1_555 1_555
C4A C5A 1_555 1_555
C6A C7A 1_555 1_555

#END
