
#######################################################################
#
#                 Cambridge Crystallographic Data Centre
#                                CCDC 
#
#######################################################################
#
# If this CIF has been generated from an entry in the Cambridge 
# Structural Database, then it will include bibliographic, chemical, 
# crystal, experimental, refinement or atomic coordinate data resulting 
# from the CCDC's data processing and validation procedures.
#
#######################################################################

data_RARTOV
_symmetry_cell_setting           triclinic
_symmetry_space_group_name_H-M   'P -1'
_symmetry_Int_Tables_number      2
_space_group_name_Hall           '-P 1'
loop_
_symmetry_equiv_pos_site_id
_symmetry_equiv_pos_as_xyz
1 x,y,z
2 -x,-y,-z
_cell_length_a                   4.183(3)
_cell_length_b                   11.787(6)
_cell_length_c                   15.245(8)
_cell_angle_alpha                77.49(4)
_cell_angle_beta                 79.67(5)
_cell_angle_gamma                82.52(5)
_cell_volume                     718.643
loop_
_atom_site_label
_atom_site_type_symbol
_atom_site_fract_x
_atom_site_fract_y
_atom_site_fract_z
I1 I 1.8349(3) -0.15859(11) 1.47325(9)
Cu1 Cu 1.3216(7) -0.0148(2) 1.43516(18)
N1 N 1.325(5) 0.0544(14) 1.3001(12)
N2 N 1.140(4) 0.1744(15) 1.0276(12)
N3 N 1.014(5) 0.2796(15) 1.0112(12)
N4 N 0.531(5) 0.4662(16) 0.6850(12)
C1 C 1.128(7) 0.1510(19) 1.2765(15)
H1 H 1.0233 0.1899 1.3222
C2 C 1.071(6) 0.198(2) 1.1875(16)
H2 H 0.9421 0.2677 1.1747
C3 C 1.208(5) 0.1380(17) 1.1186(15)
C4 C 1.412(6) 0.0371(19) 1.1426(14)
H3 H 1.5131 -0.0051 1.0985
C5 C 1.465(5) -0.0007(19) 1.2318(18)
H4 H 1.6048 -0.0679 1.2455
C6 C 0.904(6) 0.3198(19) 0.9268(15)
C7 C 0.908(6) 0.250(2) 0.8635(14)
H5 H 0.9941 0.1722 0.8745
C8 C 0.780(6) 0.2984(19) 0.7827(15)
H6 H 0.7828 0.2523 0.7401
C9 C 0.645(5) 0.4169(18) 0.7652(15)
C10 C 0.670(5) 0.4835(18) 0.8289(14)
H7 H 0.6025 0.5628 0.8164
C11 C 0.789(5) 0.4384(18) 0.9084(15)
H8 H 0.7939 0.4857 0.9496
C12 C 0.483(6) 0.394(2) 0.6237(17)
H9 H 0.6493 0.4040 0.5710
H10 H 0.2723 0.4157 0.6053
H11 H 0.4965 0.3133 0.6541
C13 C 0.391(6) 0.5867(19) 0.6658(16)
H12 H 0.2158 0.5999 0.7137
H13 H 0.3089 0.6021 0.6091
H14 H 0.5560 0.6378 0.6620
I1_2 I 0.8349(3) -0.15859(11) 1.47325(9)
I1A I 1.1651(3) 0.15859(11) 1.52675(9)
Cu1_2 Cu 2.3216(7) -0.0148(2) 1.43516(18)
Cu1A Cu 1.6784(7) 0.0148(2) 1.56484(18)
loop_
_geom_bond_atom_site_label_1
_geom_bond_atom_site_label_2
_geom_bond_site_symmetry_1
_geom_bond_site_symmetry_2
I1 Cu1 1_555 1_555
Cu1 N1 1_555 1_555
N1 C1 1_555 1_555
N2 N3 1_555 1_555
N3 C6 1_555 1_555
N4 C9 1_555 1_555
C1 H1 1_555 1_555
C2 C1 1_555 1_555
H2 C2 1_555 1_555
C3 N2 1_555 1_555
C4 C3 1_555 1_555
H3 C4 1_555 1_555
C5 N1 1_555 1_555
H4 C5 1_555 1_555
C6 C7 1_555 1_555
C7 H5 1_555 1_555
C8 C7 1_555 1_555
H6 C8 1_555 1_555
C9 C8 1_555 1_555
C10 C9 1_555 1_555
H7 C10 1_555 1_555
C11 C6 1_555 1_555
H8 C11 1_555 1_555
C12 N4 1_555 1_555
H9 C12 1_555 1_555
H10 C12 1_555 1_555
H11 C12 1_555 1_555
C13 N4 1_555 1_555
H12 C13 1_555 1_555
H13 C13 1_555 1_555
H14 C13 1_555 1_555
I1_2 Cu1 1_555 1_555
I1A Cu1 1_555 1_555
Cu1_2 I1 1_555 1_555
Cu1A I1 1_555 1_555
C2 C3 1_555 1_555
C4 C5 1_555 1_555
C10 C11 1_555 1_555
I1A Cu1A 1_555 1_555

#END
