
#######################################################################
#
#                 Cambridge Crystallographic Data Centre
#                                CCDC 
#
#######################################################################
#
# If this CIF has been generated from an entry in the Cambridge 
# Structural Database, then it will include bibliographic, chemical, 
# crystal, experimental, refinement or atomic coordinate data resulting 
# from the CCDC's data processing and validation procedures.
#
#######################################################################

data_RARTIP
_symmetry_cell_setting           monoclinic
_symmetry_space_group_name_H-M   'P 21/n'
_symmetry_Int_Tables_number      14
_space_group_name_Hall           '-P 2yn'
loop_
_symmetry_equiv_pos_site_id
_symmetry_equiv_pos_as_xyz
1 x,y,z
2 1/2-x,1/2+y,1/2-z
3 -x,-y,-z
4 1/2+x,1/2-y,1/2+z
_cell_length_a                   15.504(2)
_cell_length_b                   7.8966(10)
_cell_length_c                   26.979(3)
_cell_angle_alpha                90
_cell_angle_beta                 93.134(4)
_cell_angle_gamma                90
_cell_volume                     3298.07
loop_
_atom_site_label
_atom_site_type_symbol
_atom_site_fract_x
_atom_site_fract_y
_atom_site_fract_z
I1 I 0.66327(5) -0.02275(10) 0.23773(3)
Mo1 Mo 0.50894(6) -0.51361(12) 0.22925(4)
Cu1 Cu 0.53264(10) -0.23084(18) 0.28206(5)
Cu2 Cu 0.54388(9) -0.30200(17) 0.15756(5)
Cu3 Cu 0.67940(9) -0.53225(19) 0.24315(5)
S1 S 0.44364(19) -0.2608(4) 0.21279(11)
S2 S 0.6055(2) -0.5559(3) 0.16942(11)
S3 S 0.58661(18) -0.4880(4) 0.30269(10)
O1 O 0.4358(6) -0.6710(10) 0.2321(3)
N1 N 0.5006(6) -0.0752(11) 0.3349(3)
N2 N 0.4306(6) 0.2471(11) 0.4509(3)
N3 N 0.4005(6) 0.3907(11) 0.4354(3)
N4 N 0.3015(6) 0.8677(12) 0.5737(4)
N5 N 0.5678(6) -0.1575(11) 0.1020(3)
N6 N 0.6369(7) 0.1458(14) -0.0198(4)
N7 N 0.6038(6) 0.2795(14) -0.0177(4)
N8 N 0.7192(6) 0.7483(12) -0.1602(3)
C1 C 0.5044(8) -0.1228(15) 0.3827(5)
H1 H 0.5224 -0.2341 0.3901
C2 C 0.4840(7) -0.0205(14) 0.4214(4)
H2 H 0.4899 -0.0594 0.4544
C3 C 0.4545(7) 0.1421(13) 0.4106(4)
C4 C 0.4482(7) 0.1904(13) 0.3605(4)
H3 H 0.4276 0.2987 0.3515
C5 C 0.4716(7) 0.0812(14) 0.3253(4)
H4 H 0.4674 0.1173 0.2921
C6 C 0.3771(7) 0.5025(13) 0.4717(4)
C7 C 0.3808(7) 0.4712(14) 0.5237(4)
H5 H 0.4006 0.3653 0.5354
C8 C 0.3566(7) 0.5886(14) 0.5569(4)
H6 H 0.3602 0.5643 0.5911
C9 C 0.3262(7) 0.7474(14) 0.5398(4)
C10 C 0.3221(7) 0.7788(15) 0.4878(4)
H7 H 0.3024 0.8843 0.4757
C11 C 0.3464(7) 0.6577(14) 0.4553(4)
H8 H 0.3421 0.6806 0.4211
C12 C 0.3013(8) 0.8306(14) 0.6256(4)
H9 H 0.2589 0.7432 0.6311
H10 H 0.2868 0.9322 0.6435
H11 H 0.3581 0.7914 0.6373
C13 C 0.2739(8) 1.0377(15) 0.5568(5)
H12 H 0.3178 1.0867 0.5369
H13 H 0.2657 1.1093 0.5854
H14 H 0.2200 1.0291 0.5370
C14 C 0.5603(7) 0.0134(14) 0.1058(4)
H15 H 0.5404 0.0594 0.1352
C15 C 0.5807(8) 0.1224(14) 0.0679(5)
H16 H 0.5753 0.2403 0.0716
C16 C 0.6092(8) 0.0543(17) 0.0247(4)
C17 C 0.6166(8) -0.1160(17) 0.0208(4)
H17 H 0.6373 -0.1643 -0.0080
C18 C 0.5944(8) -0.2145(15) 0.0580(4)
H18 H 0.5973 -0.3323 0.0534
C19 C 0.6353(9) 0.3879(18) -0.0598(5)
C20 C 0.5954(8) 0.5423(16) -0.0649(5)
H19 H 0.5501 0.5697 -0.0446
C21 C 0.6207(7) 0.6566(14) -0.0990(4)
H20 H 0.5910 0.7602 -0.1022
C22 C 0.6884(7) 0.6261(13) -0.1293(4)
C23 C 0.7276(7) 0.4615(14) -0.1266(5)
H21 H 0.7712 0.4312 -0.1477
C24 C 0.6986(8) 0.3470(13) -0.0911(5)
H22 H 0.7235 0.2386 -0.0889
C25 C 0.6787(9) 0.9136(14) -0.1618(5)
H23 H 0.6204 0.9039 -0.1765
H24 H 0.7118 0.9897 -0.1817
H25 H 0.6768 0.9581 -0.1284
C26 C 0.7744(9) 0.7062(18) -0.1995(5)
H26 H 0.8209 0.6335 -0.1866
H27 H 0.7986 0.8092 -0.2126
H28 H 0.7412 0.6476 -0.2257
I1A I 0.83673(5) -0.52275(10) 0.26227(3)
Cu3A Cu 0.82060(9) -0.03225(19) 0.25685(5)
loop_
_geom_bond_atom_site_label_1
_geom_bond_atom_site_label_2
_geom_bond_site_symmetry_1
_geom_bond_site_symmetry_2
I1 Cu1 1_555 1_555
Mo1 S1 1_555 1_555
Cu1 S1 1_555 1_555
Cu2 S1 1_555 1_555
Cu3 S2 1_555 1_555
S2 Mo1 1_555 1_555
S3 Mo1 1_555 1_555
O1 Mo1 1_555 1_555
N1 Cu1 1_555 1_555
N2 N3 1_555 1_555
N3 C6 1_555 1_555
N4 C9 1_555 1_555
N5 Cu2 1_555 1_555
N6 N7 1_555 1_555
N7 C19 1_555 1_555
N8 C22 1_555 1_555
C1 N1 1_555 1_555
H1 C1 1_555 1_555
C2 C1 1_555 1_555
H2 C2 1_555 1_555
C3 N2 1_555 1_555
C4 C3 1_555 1_555
H3 C4 1_555 1_555
C5 N1 1_555 1_555
H4 C5 1_555 1_555
C6 C7 1_555 1_555
C7 H5 1_555 1_555
C8 C7 1_555 1_555
H6 C8 1_555 1_555
C9 C8 1_555 1_555
C10 C9 1_555 1_555
H7 C10 1_555 1_555
C11 C6 1_555 1_555
H8 C11 1_555 1_555
C12 N4 1_555 1_555
H9 C12 1_555 1_555
H10 C12 1_555 1_555
H11 C12 1_555 1_555
C13 N4 1_555 1_555
H12 C13 1_555 1_555
H13 C13 1_555 1_555
H14 C13 1_555 1_555
C14 N5 1_555 1_555
H15 C14 1_555 1_555
C15 C14 1_555 1_555
H16 C15 1_555 1_555
C16 N6 1_555 1_555
C17 C16 1_555 1_555
H17 C17 1_555 1_555
C18 N5 1_555 1_555
H18 C18 1_555 1_555
C19 C20 1_555 1_555
C20 H19 1_555 1_555
C21 C20 1_555 1_555
H20 C21 1_555 1_555
C22 C21 1_555 1_555
C23 C22 1_555 1_555
H21 C23 1_555 1_555
C24 C19 1_555 1_555
H22 C24 1_555 1_555
C25 N8 1_555 1_555
H23 C25 1_555 1_555
H24 C25 1_555 1_555
H25 C25 1_555 1_555
C26 N8 1_555 1_555
H26 C26 1_555 1_555
H27 C26 1_555 1_555
H28 C26 1_555 1_555
I1A Cu3 1_555 1_555
Cu3A I1 1_555 1_555
Cu1 S3 1_555 1_555
Cu2 S2 1_555 1_555
Cu3 S3 1_555 1_555
C2 C3 1_555 1_555
C4 C5 1_555 1_555
C10 C11 1_555 1_555
C15 C16 1_555 1_555
C17 C18 1_555 1_555
C23 C24 1_555 1_555

#END
