
#######################################################################
#
#                 Cambridge Crystallographic Data Centre
#                                CCDC 
#
#######################################################################
#
# If this CIF has been generated from an entry in the Cambridge 
# Structural Database, then it will include bibliographic, chemical, 
# crystal, experimental, refinement or atomic coordinate data resulting 
# from the CCDC's data processing and validation procedures.
#
#######################################################################

data_RARVAJ
_symmetry_cell_setting           monoclinic
_symmetry_space_group_name_H-M   'P 21/c'
_symmetry_Int_Tables_number      14
_space_group_name_Hall           '-P 2ybc'
loop_
_symmetry_equiv_pos_site_id
_symmetry_equiv_pos_as_xyz
1 x,y,z
2 -x,1/2+y,1/2-z
3 -x,-y,-z
4 x,1/2-y,1/2+z
_cell_length_a                   19.872(3)
_cell_length_b                   7.7318(9)
_cell_length_c                   11.4735(15)
_cell_angle_alpha                90
_cell_angle_beta                 102.799(3)
_cell_angle_gamma                90
_cell_volume                     1719.06
loop_
_atom_site_label
_atom_site_type_symbol
_atom_site_fract_x
_atom_site_fract_y
_atom_site_fract_z
Cu1 Cu 0.089527(19) 0.08633(5) -0.11260(3)
S1 S -0.06219(4) 0.01020(10) -0.27508(7)
O1 O -0.01252(11) 0.0747(3) -0.16602(19)
O2 O -0.12262(12) 0.1225(3) -0.2964(2)
O3 O -0.02812(12) 0.0166(3) -0.3769(2)
O4 O -0.08182(12) -0.1682(3) -0.2539(2)
O5 O 0.07549(13) 0.2423(3) 0.0179(2)
H1 H 0.0746(19) 0.224(5) 0.0876(13)
H2 H 0.0591(18) 0.334(3) -0.009(3)
O6 O 0.10542(12) -0.0404(3) -0.2552(2)
H3 H 0.0704(11) -0.033(5) -0.308(2)
H4 H 0.1089(18) -0.1454(15) -0.248(3)
O7 O 0.08804(12) -0.1598(3) -0.0025(2)
H5 H 0.0759(18) -0.250(3) -0.037(3)
H6 H 0.0662(17) -0.144(5) 0.048(3)
N1 N 0.19120(13) 0.1067(3) -0.0476(2)
N2 N 0.40497(14) 0.1384(4) 0.0932(3)
N3 N 0.42100(15) 0.1402(4) 0.2067(3)
N4 N 0.69805(15) 0.1163(4) 0.4417(3)
C1 C 0.21834(18) 0.0535(5) 0.0648(3)
H7 H 0.1886 0.0082 0.1104
C2 C 0.28741(18) 0.0627(5) 0.1155(3)
H8 H 0.3044 0.0230 0.1939
C3 C 0.33218(18) 0.1311(5) 0.0501(3)
C4 C 0.30450(17) 0.1872(5) -0.0655(3)
H9 H 0.3332 0.2335 -0.1127
C5 C 0.23458(17) 0.1739(4) -0.1099(3)
H10 H 0.2163 0.2140 -0.1879
C6 C 0.49147(18) 0.1332(5) 0.2582(3)
C7 C 0.50997(19) 0.1609(5) 0.3814(4)
H11 H 0.4752 0.1827 0.4233
C8 C 0.57776(18) 0.1569(5) 0.4430(3)
H12 H 0.5888 0.1773 0.5259
C9 C 0.63054(18) 0.1224(5) 0.3825(3)
C10 C 0.61097(19) 0.0906(5) 0.2577(3)
H13 H 0.6452 0.0647 0.2154
C11 C 0.54328(18) 0.0966(5) 0.1976(3)
H14 H 0.5317 0.0760 0.1148
C12 C 0.7174(2) 0.1605(6) 0.5680(4)
H15 H 0.7042 0.2792 0.5791
H16 H 0.7669 0.1481 0.5962
H17 H 0.6939 0.0838 0.6129
C13 C 0.75341(19) 0.0750(6) 0.3825(4)
H18 H 0.7439 -0.0350 0.3414
H19 H 0.7966 0.0674 0.4413
H20 H 0.7567 0.1648 0.3250
Cu1A Cu -0.089527(19) -0.41367(5) -0.38740(3)
O4A O 0.08182(12) 0.3318(3) -0.2461(2)
loop_
_geom_bond_atom_site_label_1
_geom_bond_atom_site_label_2
_geom_bond_site_symmetry_1
_geom_bond_site_symmetry_2
Cu1 O1 1_555 1_555
S1 O1 1_555 1_555
O2 S1 1_555 1_555
O3 S1 1_555 1_555
O4 S1 1_555 1_555
O5 Cu1 1_555 1_555
H1 O5 1_555 1_555
H2 O5 1_555 1_555
O6 Cu1 1_555 1_555
H3 O6 1_555 1_555
H4 O6 1_555 1_555
O7 Cu1 1_555 1_555
H5 O7 1_555 1_555
H6 O7 1_555 1_555
N1 Cu1 1_555 1_555
N2 N3 1_555 1_555
N3 C6 1_555 1_555
N4 C9 1_555 1_555
C1 N1 1_555 1_555
H7 C1 1_555 1_555
C2 C1 1_555 1_555
H8 C2 1_555 1_555
C3 N2 1_555 1_555
C4 C3 1_555 1_555
H9 C4 1_555 1_555
C5 N1 1_555 1_555
H10 C5 1_555 1_555
C6 C7 1_555 1_555
C7 H11 1_555 1_555
C8 C7 1_555 1_555
H12 C8 1_555 1_555
C9 C8 1_555 1_555
C10 C9 1_555 1_555
H13 C10 1_555 1_555
C11 C6 1_555 1_555
H14 C11 1_555 1_555
C12 N4 1_555 1_555
H15 C12 1_555 1_555
H16 C12 1_555 1_555
H17 C12 1_555 1_555
C13 N4 1_555 1_555
H18 C13 1_555 1_555
H19 C13 1_555 1_555
H20 C13 1_555 1_555
Cu1A O4 1_555 1_555
O4A Cu1 1_555 1_555
C2 C3 1_555 1_555
C4 C5 1_555 1_555
C10 C11 1_555 1_555

#END
