
#######################################################################
#
#                 Cambridge Crystallographic Data Centre
#                                CCDC 
#
#######################################################################
#
# If this CIF has been generated from an entry in the Cambridge 
# Structural Database, then it will include bibliographic, chemical, 
# crystal, experimental, refinement or atomic coordinate data resulting 
# from the CCDC's data processing and validation procedures.
#
#######################################################################

data_RARXUE
_symmetry_cell_setting           triclinic
_symmetry_space_group_name_H-M   'P -1'
_symmetry_Int_Tables_number      2
_space_group_name_Hall           '-P 1'
loop_
_symmetry_equiv_pos_site_id
_symmetry_equiv_pos_as_xyz
1 x,y,z
2 -x,-y,-z
_cell_length_a                   10.250(7)
_cell_length_b                   15.078(10)
_cell_length_c                   15.190(10)
_cell_angle_alpha                114.241(12)
_cell_angle_beta                 90.212(13)
_cell_angle_gamma                108.389(11)
_cell_volume                     2007.08
loop_
_atom_site_label
_atom_site_type_symbol
_atom_site_fract_x
_atom_site_fract_y
_atom_site_fract_z
Cu1 Cu 0.03093(7) 0.24080(5) 0.16245(4)
Cu2 Cu 0.72876(7) 0.24566(5) -0.33513(4)
O1 O 0.1213(4) 0.2004(3) 0.0512(3)
O2 O 0.3069(6) 0.3356(4) 0.0898(4)
O3 O 0.6125(5) 0.3229(4) -0.1713(4)
O4 O 0.5845(4) 0.1716(3) -0.2872(3)
O5 O 0.1038(4) 0.1654(3) 0.2115(3)
O6 O 0.2210(5) 0.3194(4) 0.3234(4)
O7 O 0.5391(5) 0.3397(4) 0.5919(4)
O8 O 0.6023(4) 0.2068(3) 0.5535(3)
N1 N -0.0158(6) 0.3479(4) 0.1385(3)
N2 N -0.1473(6) 0.3483(4) 0.1398(3)
N3 N -0.1841(5) 0.1281(4) 0.0521(3)
N4 N -0.2817(5) 0.1715(4) 0.0676(4)
N5 N -0.1007(5) 0.2548(4) 0.2591(3)
N6 N -0.2223(5) 0.2635(4) 0.2383(3)
N7 N 0.8766(5) 0.3515(4) -0.3588(3)
N8 N 1.0068(6) 0.3509(4) -0.3570(4)
N9 N 0.8724(5) 0.2566(3) -0.2403(3)
N10 N 1.0009(5) 0.2632(4) -0.2610(3)
N11 N 0.8383(6) 0.1315(4) -0.4463(4)
N12 N 0.9755(6) 0.1747(4) -0.4313(4)
C1 C 0.0535(8) 0.4258(5) 0.1207(4)
H1 H 0.1475 0.4441 0.1149
C2 C -0.0311(11) 0.4768(6) 0.1117(5)
H2 H -0.0055 0.5356 0.1004
C3 C -0.1576(10) 0.4256(6) 0.1224(5)
H3 H -0.2378 0.4410 0.1184
C4 C -0.2547(7) 0.2680(6) 0.1497(5)
H4 H -0.3396 0.2853 0.1532
C5 C -0.3858(7) 0.1214(7) -0.0066(5)
H5 H -0.4640 0.1386 -0.0121
C6 C -0.3563(9) 0.0416(7) -0.0715(5)
H6 H -0.4098 -0.0082 -0.1313
C7 C -0.2321(7) 0.0477(6) -0.0330(5)
H7 H -0.1870 0.0009 -0.0632
C8 C -0.3031(7) 0.2583(6) 0.3053(5)
H8 H -0.3922 0.2614 0.3060
C9 C -0.2312(8) 0.2475(5) 0.3720(5)
H9 H -0.2599 0.2423 0.4282
C10 C -0.1080(6) 0.2458(4) 0.3405(4)
H10 H -0.0374 0.2391 0.3732
C11 C 0.2347(7) 0.2472(5) 0.0366(4)
C12 C 0.2819(6) 0.1874(4) -0.0546(4)
C13 C 0.2139(7) 0.0837(5) -0.1041(4)
H11 H 0.1363 0.0510 -0.0829
C14 C 0.2598(7) 0.0284(5) -0.1845(5)
H12 H 0.2157 -0.0432 -0.2170
C15 C 0.3686(7) 0.0755(5) -0.2184(4)
H13 H 0.3986 0.0362 -0.2740
C16 C 0.4337(6) 0.1782(4) -0.1726(4)
C17 C 0.5512(6) 0.2298(5) -0.2123(4)
C18 C 0.3922(6) 0.2356(4) -0.0887(4)
H14 H 0.4387 0.3068 -0.0553
C19 C 0.1942(6) 0.2277(5) 0.2869(4)
C20 C 0.2609(5) 0.1769(4) 0.3290(4)
C21 C 0.2266(6) 0.0713(5) 0.2882(4)
H15 H 0.1581 0.0304 0.2335
C22 C 0.2895(7) 0.0255(5) 0.3251(5)
H16 H 0.2645 -0.0463 0.2966
C23 C 0.3894(7) 0.0850(5) 0.4042(4)
H17 H 0.4357 0.0535 0.4281
C24 C 0.4242(5) 0.1904(4) 0.4500(4)
C25 C 0.3601(5) 0.2357(5) 0.4112(4)
H18 H 0.3837 0.3074 0.4407
C26 C 0.5294(6) 0.2524(5) 0.5389(4)
C27 C 0.8802(8) 0.4304(5) -0.3762(4)
H19 H 0.8046 0.4507 -0.3805
C28 C 1.0124(10) 0.4779(6) -0.3872(5)
H20 H 1.0419 0.5351 -0.4011
C29 C 1.0923(8) 0.4273(6) -0.3743(5)
H21 H 1.1870 0.4424 -0.3769
C30 C 0.8696(6) 0.2432(4) -0.1595(4)
H22 H 0.7931 0.2368 -0.1267
C31 C 0.9932(7) 0.2399(6) -0.1305(5)
H23 H 1.0162 0.2301 -0.0766
C32 C 1.0748(7) 0.2537(6) -0.1958(5)
H24 H 1.1666 0.2561 -0.1955
C33 C 0.8085(8) 0.0532(6) -0.5333(5)
H25 H 0.7191 0.0071 -0.5631
C34 C 0.9246(10) 0.0485(7) -0.5739(6)
H26 H 0.9294 0.0006 -0.6354
C35 C 1.0302(9) 0.1256(7) -0.5088(6)
H27 H 1.1238 0.1423 -0.5155
C36 C 1.0390(6) 0.2703(5) -0.3486(5)
H28 H 1.1400 0.2874 -0.3446
Cu2_2 Cu 0.72876(7) 0.24566(5) 0.66487(4)
O8_2 O 0.6023(4) 0.2068(3) -0.4465(3)
O9 O 0.5222(8) 0.3575(7) 0.2199(6)
O10 O 0.3443(6) 0.3588(7) 0.7242(7)
O11 O 0.3165(14) 0.4971(8) 0.4969(9)
C38 C 0.439(2) 0.4850(13) 0.4217(14)
O12 O 0.6806(13) 0.5020(8) 1.0008(9)
C37 C 0.546(2) 0.4855(14) 0.9207(16)
O13? O 0.5719(15) 0.4953(13) 0.1173(11)
O14? O 0.4212(16) 0.4931(11) 0.6150(10)
loop_
_geom_bond_atom_site_label_1
_geom_bond_atom_site_label_2
_geom_bond_site_symmetry_1
_geom_bond_site_symmetry_2
Cu1 O1 1_555 1_555
Cu2 O4 1_555 1_555
O1 C11 1_555 1_555
O2 C11 1_555 1_555
O3 C17 1_555 1_555
O4 C17 1_555 1_555
O5 Cu1 1_555 1_555
O6 C19 1_555 1_555
O7 C26 1_555 1_555
O8 C26 1_555 1_555
N1 Cu1 1_555 1_555
N2 N1 1_555 1_555
N3 Cu1 1_555 1_555
N4 N3 1_555 1_555
N5 Cu1 1_555 1_555
N6 N5 1_555 1_555
N7 Cu2 1_555 1_555
N8 N7 1_555 1_555
N9 Cu2 1_555 1_555
N10 N9 1_555 1_555
N11 Cu2 1_555 1_555
N12 N11 1_555 1_555
C1 N1 1_555 1_555
H1 C1 1_555 1_555
C2 C1 1_555 1_555
H2 C2 1_555 1_555
C3 N2 1_555 1_555
H3 C3 1_555 1_555
C4 N2 1_555 1_555
H4 C4 1_555 1_555
C5 N4 1_555 1_555
H5 C5 1_555 1_555
C6 C5 1_555 1_555
H6 C6 1_555 1_555
C7 N3 1_555 1_555
H7 C7 1_555 1_555
C8 N6 1_555 1_555
H8 C8 1_555 1_555
C9 C8 1_555 1_555
H9 C9 1_555 1_555
C10 N5 1_555 1_555
H10 C10 1_555 1_555
C11 C12 1_555 1_555
C12 C13 1_555 1_555
C13 H11 1_555 1_555
C14 C13 1_555 1_555
H12 C14 1_555 1_555
C15 C14 1_555 1_555
H13 C15 1_555 1_555
C16 C15 1_555 1_555
C17 C16 1_555 1_555
C18 C12 1_555 1_555
H14 C18 1_555 1_555
C19 O5 1_555 1_555
C20 C19 1_555 1_555
C21 C20 1_555 1_555
H15 C21 1_555 1_555
C22 C21 1_555 1_555
H16 C22 1_555 1_555
C23 C22 1_555 1_555
H17 C23 1_555 1_555
C24 C23 1_555 1_555
C25 C20 1_555 1_555
H18 C25 1_555 1_555
C26 C24 1_555 1_555
C27 N7 1_555 1_555
H19 C27 1_555 1_555
C28 C27 1_555 1_555
H20 C28 1_555 1_555
C29 N8 1_555 1_555
H21 C29 1_555 1_555
C30 N9 1_555 1_555
H22 C30 1_555 1_555
C31 C30 1_555 1_555
H23 C31 1_555 1_555
C32 N10 1_555 1_555
H24 C32 1_555 1_555
C33 N11 1_555 1_555
H25 C33 1_555 1_555
C34 C33 1_555 1_555
H26 C34 1_555 1_555
C35 N12 1_555 1_555
H27 C35 1_555 1_555
C36 N8 1_555 1_555
H28 C36 1_555 1_555
O11 C38 1_555 1_555
O12 C37 1_555 1_555
Cu2_2 O8 1_555 1_555
O8_2 Cu2 1_555 1_555
N4 C4 1_555 1_555
N6 C4 1_555 1_555
N10 C36 1_555 1_555
N12 C36 1_555 1_555
C2 C3 1_555 1_555
C6 C7 1_555 1_555
C9 C10 1_555 1_555
C16 C18 1_555 1_555
C24 C25 1_555 1_555
C28 C29 1_555 1_555
C31 C32 1_555 1_555
C34 C35 1_555 1_555

#END
