
#######################################################################
#
#                 Cambridge Crystallographic Data Centre
#                                CCDC 
#
#######################################################################
#
# If this CIF has been generated from an entry in the Cambridge 
# Structural Database, then it will include bibliographic, chemical, 
# crystal, experimental, refinement or atomic coordinate data resulting 
# from the CCDC's data processing and validation procedures.
#
#######################################################################

data_RASFEY
_symmetry_cell_setting           monoclinic
_symmetry_space_group_name_H-M   'P 21/c'
_symmetry_Int_Tables_number      14
_space_group_name_Hall           '-P 2ybc'
loop_
_symmetry_equiv_pos_site_id
_symmetry_equiv_pos_as_xyz
1 x,y,z
2 -x,1/2+y,1/2-z
3 -x,-y,-z
4 x,1/2-y,1/2+z
_cell_length_a                   16.258(2)
_cell_length_b                   8.9156(12)
_cell_length_c                   33.174(5)
_cell_angle_alpha                90
_cell_angle_beta                 95.394(2)
_cell_angle_gamma                90
_cell_volume                     4787.27
loop_
_atom_site_label
_atom_site_type_symbol
_atom_site_fract_x
_atom_site_fract_y
_atom_site_fract_z
Zn1 Zn 0.61890(3) 0.01188(6) 0.099339(15)
Zn2 Zn 0.79590(3) -0.51464(6) 0.186715(15)
Zn3 Zn 0.26978(3) -0.22365(6) 0.060510(15)
Zn4 Zn 1.12722(3) 0.25326(6) 0.143383(15)
N1 N 1.0201(2) 0.3582(4) 0.14651(11)
N2 N 0.2512(2) -0.4166(4) 0.08814(11)
N3 N 0.1742(2) -0.1024(4) 0.07765(12)
N4 N 0.1181(2) 0.0798(4) 0.10531(12)
N5 N 0.9022(2) 0.4372(4) 0.16396(11)
N6 N 0.4988(2) -0.0322(4) 0.09299(12)
C1 C 0.7397(2) -0.3602(4) 0.15008(12)
N7 N 0.8183(2) 0.5626(4) 0.24322(11)
N8 N 0.7110(2) 0.2458(4) 0.14277(11)
N9 N 1.0197(2) 0.5110(4) 0.14566(12)
N10 N 0.7172(2) 0.3177(4) 0.17829(11)
N11 N 0.2949(2) -0.4250(4) 0.12550(12)
C2 C 0.8222(3) -0.0213(5) 0.18810(14)
N12 N 0.0567(2) -0.0179(5) 0.09613(12)
N13 N 0.7434(3) -0.2168(6) 0.14096(13)
C3 C 0.6535(3) 0.2713(5) 0.19804(14)
N14 N 0.1891(2) 0.0304(4) 0.09455(12)
N15 N 0.2666(2) -0.5351(5) 0.14528(12)
N16 N 0.6276(2) -0.3018(4) 0.11345(13)
C4 C 0.1181(3) -0.4574(5) 0.01886(13)
N17 N 0.9495(2) 0.5586(4) 0.15572(12)
N18 N 0.6740(2) -0.1769(4) 0.11872(11)
C5 C 0.9470(2) 0.3155(5) 0.15773(12)
C6 C 0.3867(3) -0.4302(5) 0.00289(15)
C7 C 0.4785(3) -0.2271(5) 0.03897(14)
H1 H 0.5379 -0.2402 0.0433
H2 H 0.4663 -0.1766 0.0132
C8 C 0.7779(3) -0.0625(5) 0.21997(15)
H3 H 0.7405 -0.1415 0.2166
N19 N 0.6089(3) 0.1707(5) 0.17672(13)
C9 C 0.9183(3) 0.1568(5) 0.15740(15)
C10 C 0.8164(3) -0.1114(6) 0.14918(16)
N20 N 0.6661(2) -0.4116(4) 0.13247(13)
C11 C 0.0785(3) -0.3203(5) 0.02353(15)
N21 N 0.4507(2) 0.0312(5) 0.12021(13)
C12 C 0.4374(3) -0.3814(5) 0.03679(14)
C13 C 0.4532(3) -0.4755(5) 0.06966(16)
H4 H 0.4870 -0.4420 0.0920
C14 C 0.4514(3) -0.1311(5) 0.07148(13)
C15 C 0.8749(3) 0.1027(5) 0.19300(13)
C16 C 0.1955(2) -0.5263(5) 0.08702(13)
C17 C 0.0930(3) -0.1298(5) 0.07906(13)
C18 C 0.8863(3) 0.1742(5) 0.23021(14)
H5 H 0.9233 0.2536 0.2338
N22 N 0.8999(3) 0.5960(6) 0.24746(13)
C19 C 0.0503(3) -0.2696(6) 0.06381(15)
H6 H -0.0089 -0.2521 0.0606
H7 H 0.0612 -0.3488 0.0836
C20 C 0.1240(4) -0.4008(7) -0.05217(16)
H8 H 0.1390 -0.4282 -0.0775
C21 C 0.0626(3) -0.2273(6) -0.00981(16)
H9 H 0.0355 -0.1367 -0.0068
C22 C 0.5375(3) 0.5206(7) 0.20162(18)
H10 H 0.5133 0.4398 0.1873
C23 C 0.6016(3) 0.4940(6) 0.23150(16)
C24 C 0.8429(3) 0.1282(6) 0.26220(15)
H11 H 0.8510 0.1765 0.2871
C25 C 0.0856(4) -0.2653(7) -0.04686(16)
H12 H 0.0754 -0.1999 -0.0686
C26 C 0.6347(3) 0.6145(7) 0.25454(18)
C27 C 0.3550(3) -0.5743(5) 0.00387(17)
H13 H 0.3219 -0.6092 -0.0185
C28 C 0.1399(3) -0.4952(6) -0.01953(15)
H14 H 0.1659 -0.5865 -0.0231
C29 C 0.1339(3) -0.5691(5) 0.05275(14)
H15 H 0.1066 -0.6607 0.0523
C30 C 0.5421(5) 0.7822(9) 0.2147(3)
H16 H 0.5231 0.8790 0.2091
C31 C 0.6028(4) 0.7576(8) 0.2449(2)
H17 H 0.6242 0.8392 0.2599
C32 C 0.6343(3) 0.3345(6) 0.23751(16)
H18 H 0.6838 0.3351 0.2563
H19 H 0.5933 0.2726 0.2489
C33 C 0.3707(3) -0.6677(6) 0.03673(18)
H20 H 0.3480 -0.7636 0.0364
C34 C 0.4201(3) -0.6183(6) 0.07016(17)
H21 H 0.4309 -0.6799 0.0927
C35 C 0.7883(3) 0.0121(6) 0.25687(15)
H22 H 0.7581 -0.0172 0.2780
C36 C 0.5090(4) 0.6627(9) 0.1927(2)
H23 H 0.4675 0.6780 0.1718
N23 N 0.2033(2) -0.6004(4) 0.12182(11)
N24 N 0.6464(2) 0.1591(4) 0.14234(12)
N25 N 0.3780(2) -0.0274(5) 0.11510(13)
N26 N 0.3763(2) -0.1300(4) 0.08451(11)
C37 C 0.3676(3) -0.3325(5) -0.03405(14)
H24 H 0.4190 -0.3092 -0.0453
H25 H 0.3337 -0.3897 -0.0542
C38 C 0.3244(3) -0.1898(5) -0.02668(13)
N27 N 0.2772(2) -0.1612(4) 0.00304(11)
N28 N 0.2486(2) -0.0186(4) -0.00307(13)
N29 N 0.2770(3) 0.0364(5) -0.03513(13)
N30 N 0.3256(2) -0.0694(4) -0.05067(11)
C39 C 0.7022(3) 0.5967(8) 0.28859(17)
H26 H 0.6947 0.6729 0.3088
H27 H 0.6954 0.4999 0.3012
N31 N 0.8483(2) 0.6673(4) 0.30154(12)
C40 C 0.7886(3) 0.6072(5) 0.27729(14)
N32 N 0.9179(3) 0.6585(7) 0.28207(14)
H28 H 0.879(3) 0.149(5) 0.1307(14)
H29 H 0.962(3) 0.091(6) 0.1517(15)
H30 H 0.864(3) -0.172(5) 0.1519(13)
H31 H 0.817(3) -0.042(6) 0.1262(15)
Zn1B Zn 0.38110(3) -0.01188(6) -0.099339(15)
Zn2_2 Zn 0.79590(3) 0.48536(6) 0.186715(15)
Zn4_2 Zn 0.12722(3) 0.25326(6) 0.143383(15)
Zn4_3 Zn 0.12722(3) -0.74674(6) 0.143383(15)
Zn4A Zn 0.87278(3) 0.75326(6) 0.356617(15)
N4_2 N 1.1181(2) 0.0798(4) 0.10531(12)
N5_2 N 0.9022(2) -0.5628(4) 0.16396(11)
N7_2 N 0.8183(2) -0.4374(4) 0.24322(11)
N10_2 N 0.7172(2) -0.6823(4) 0.17829(11)
N23_2 N 1.2033(2) 0.3996(4) 0.12182(11)
N30B N 0.6744(2) 0.0694(4) 0.05067(11)
N31A N 1.1517(2) 0.1673(4) 0.19846(12)
loop_
_geom_bond_atom_site_label_1
_geom_bond_atom_site_label_2
_geom_bond_site_symmetry_1
_geom_bond_site_symmetry_2
Zn1 N6 1_555 1_555
Zn2 C1 1_555 1_555
Zn3 N2 1_555 1_555
Zn4 N1 1_555 1_555
N1 N9 1_555 1_555
N2 N11 1_555 1_555
N3 Zn3 1_555 1_555
N4 N12 1_555 1_555
N5 N17 1_555 1_555
N6 N21 1_555 1_555
C1 N13 1_555 1_555
N7 N22 1_555 1_555
N8 N10 1_555 1_555
N9 N17 1_555 1_555
N10 C3 1_555 1_555
N11 N15 1_555 1_555
C2 C8 1_555 1_555
N12 C17 1_555 1_555
N13 N18 1_555 1_555
C3 N19 1_555 1_555
N14 N3 1_555 1_555
N15 N23 1_555 1_555
N16 N18 1_555 1_555
C4 C11 1_555 1_555
N18 Zn1 1_555 1_555
C5 N1 1_555 1_555
C6 C12 1_555 1_555
C7 H1 1_555 1_555
H2 C7 1_555 1_555
C8 H3 1_555 1_555
N19 N24 1_555 1_555
C9 C5 1_555 1_555
C10 C2 1_555 1_555
N20 C1 1_555 1_555
C11 C19 1_555 1_555
N21 N25 1_555 1_555
C12 C7 1_555 1_555
C13 C12 1_555 1_555
H4 C13 1_555 1_555
C14 N6 1_555 1_555
C15 C2 1_555 1_555
C16 N2 1_555 1_555
C17 N3 1_555 1_555
C18 C15 1_555 1_555
H5 C18 1_555 1_555
N22 N32 1_555 1_555
C19 C17 1_555 1_555
H6 C19 1_555 1_555
H7 C19 1_555 1_555
C20 H8 1_555 1_555
C21 C11 1_555 1_555
H9 C21 1_555 1_555
C22 H10 1_555 1_555
C23 C22 1_555 1_555
C24 C18 1_555 1_555
H11 C24 1_555 1_555
C25 C20 1_555 1_555
H12 C25 1_555 1_555
C26 C23 1_555 1_555
C27 C6 1_555 1_555
H13 C27 1_555 1_555
C28 C4 1_555 1_555
H14 C28 1_555 1_555
C29 C4 1_555 1_555
H15 C29 1_555 1_555
C30 H16 1_555 1_555
C31 C26 1_555 1_555
H17 C31 1_555 1_555
C32 C3 1_555 1_555
H18 C32 1_555 1_555
H19 C32 1_555 1_555
C33 C27 1_555 1_555
H20 C33 1_555 1_555
C34 C13 1_555 1_555
H21 C34 1_555 1_555
C35 C8 1_555 1_555
H22 C35 1_555 1_555
C36 C22 1_555 1_555
H23 C36 1_555 1_555
N23 C16 1_555 1_555
N24 Zn1 1_555 1_555
N25 N26 1_555 1_555
N26 Zn3 1_555 1_555
C37 C6 1_555 1_555
H24 C37 1_555 1_555
H25 C37 1_555 1_555
C38 C37 1_555 1_555
N27 Zn3 1_555 1_555
N28 N27 1_555 1_555
N29 N28 1_555 1_555
N30 C38 1_555 1_555
C39 C26 1_555 1_555
H26 C39 1_555 1_555
H27 C39 1_555 1_555
N31 C40 1_555 1_555
C40 N7 1_555 1_555
N32 N31 1_555 1_555
H28 C9 1_555 1_555
H29 C9 1_555 1_555
H30 C10 1_555 1_555
H31 C10 1_555 1_555
Zn1B N30 1_555 1_555
Zn2_2 N5 1_555 1_555
Zn4_2 N4 1_555 1_555
Zn4_3 N23 1_555 1_555
Zn4A N31 1_555 1_555
N4_2 Zn4 1_555 1_555
N5_2 Zn2 1_555 1_555
N7_2 Zn2 1_555 1_555
N10_2 Zn2 1_555 1_555
N23_2 Zn4 1_555 1_555
N30B Zn1 1_555 1_555
N31A Zn4 1_555 1_555
N4 N14 1_555 1_555
N5 C5 1_555 1_555
N7 Zn2_2 1_555 1_555
N8 N24 1_555 1_555
N10 Zn2_2 1_555 1_555
N13 C10 1_555 1_555
N16 N20 1_555 1_555
C7 C14 1_555 1_555
C9 C15 1_555 1_555
C14 N26 1_555 1_555
C16 C29 1_555 1_555
C20 C28 1_555 1_555
C21 C25 1_555 1_555
C23 C32 1_555 1_555
C24 C35 1_555 1_555
C30 C31 1_555 1_555
C30 C36 1_555 1_555
C33 C34 1_555 1_555
C38 N27 1_555 1_555
N29 N30 1_555 1_555
C39 C40 1_555 1_555

#END
