
#######################################################################
#
#                 Cambridge Crystallographic Data Centre
#                                CCDC 
#
#######################################################################
#
# If this CIF has been generated from an entry in the Cambridge 
# Structural Database, then it will include bibliographic, chemical, 
# crystal, experimental, refinement or atomic coordinate data resulting 
# from the CCDC's data processing and validation procedures.
#
#######################################################################

data_RASFIC
_symmetry_cell_setting           monoclinic
_symmetry_space_group_name_H-M   'P 21/c'
_symmetry_Int_Tables_number      14
_space_group_name_Hall           '-P 2ybc'
loop_
_symmetry_equiv_pos_site_id
_symmetry_equiv_pos_as_xyz
1 x,y,z
2 -x,1/2+y,1/2-z
3 -x,-y,-z
4 x,1/2-y,1/2+z
_cell_length_a                   13.496(3)
_cell_length_b                   9.984(2)
_cell_length_c                   12.370(3)
_cell_angle_alpha                90
_cell_angle_beta                 111.49(3)
_cell_angle_gamma                90
_cell_volume                     1550.91
loop_
_atom_site_label
_atom_site_type_symbol
_atom_site_fract_x
_atom_site_fract_y
_atom_site_fract_z
Cd1 Cd 1.325064(13) 1.413336(17) 1.203003(16)
N1 N 1.42035(16) 1.59384(19) 1.15889(19)
N2 N 1.50007(15) 1.6595(2) 1.24247(18)
N3 N 1.53266(16) 1.7571(2) 1.1917(2)
N4 N 1.47688(16) 1.7583(2) 1.07658(19)
N5 N 1.18641(16) 1.5550(2) 1.0905(2)
N6 N 1.10832(19) 1.5915(2) 1.1279(2)
N7 N 1.04358(17) 1.6727(2) 1.0521(2)
N8 N 1.07718(17) 1.6927(2) 0.9633(2)
N9 N 1.3473(2) 1.5127(3) 1.3793(2)
H1 H 1.3169 1.4621 1.4176
H2 H 1.3172 1.5933 1.3669
H3 H 1.4165 1.5208 1.4211
N10 N 1.1892(2) 1.2727(2) 1.2119(2)
H4 H 1.2178 1.2027 1.2571
H5 H 1.1503 1.2443 1.1407
H6 H 1.1480 1.3178 1.2412
N11 N 1.33483(18) 1.2945(2) 1.0446(2)
H7 H 1.3027 1.2156 1.0395
H8 H 1.4028 1.2817 1.0542
H9 H 1.3027 1.3410 0.9797
C1 C 1.40821(17) 1.6562(2) 1.0597(2)
C2 C 1.33383(19) 1.6215(2) 0.9416(2)
C3 C 1.3771(2) 1.6098(3) 0.8553(3)
H10 H 1.4505 1.6167 0.8761
C4 C 1.3143(3) 1.5882(3) 0.7398(3)
H11 H 1.3451 1.5820 0.6839
C5 C 1.2061(3) 1.5761(3) 0.7089(3)
H12 H 1.1630 1.5623 0.6315
C6 C 1.1609(2) 1.5846(3) 0.7931(2)
H13 H 1.0876 1.5757 0.7714
C7 C 1.22314(19) 1.6063(2) 0.9094(2)
C8 C 1.16572(18) 1.6192(2) 0.9902(2)
Cd1A Cd 1.674936(13) 1.913336(17) 1.296997(16)
N3A N 1.46734(16) 1.2571(2) 1.3083(2)
O1 O 0.9025(3) 1.4334(3) 0.6493(3)
H16 H 0.914(4) 1.414(4) 0.7193(14)
H17 H 0.922(4) 1.357(2) 0.634(4)
O2 O 1.12976(18) 1.3194(3) 0.4357(3)
H14 H 1.111(4) 1.3994(18) 0.416(4)
H15 H 1.079(2) 1.267(3) 0.431(4)
loop_
_geom_bond_atom_site_label_1
_geom_bond_atom_site_label_2
_geom_bond_site_symmetry_1
_geom_bond_site_symmetry_2
Cd1 N1 1_555 1_555
N1 N2 1_555 1_555
N2 N3 1_555 1_555
N3 N4 1_555 1_555
N4 C1 1_555 1_555
N5 Cd1 1_555 1_555
N6 N5 1_555 1_555
N7 N6 1_555 1_555
N8 N7 1_555 1_555
N9 Cd1 1_555 1_555
H1 N9 1_555 1_555
H2 N9 1_555 1_555
H3 N9 1_555 1_555
N10 Cd1 1_555 1_555
H4 N10 1_555 1_555
H5 N10 1_555 1_555
H6 N10 1_555 1_555
N11 Cd1 1_555 1_555
H7 N11 1_555 1_555
H8 N11 1_555 1_555
H9 N11 1_555 1_555
C1 N1 1_555 1_555
C2 C1 1_555 1_555
C3 C2 1_555 1_555
H10 C3 1_555 1_555
C4 C3 1_555 1_555
H11 C4 1_555 1_555
C5 C4 1_555 1_555
H12 C5 1_555 1_555
C6 C5 1_555 1_555
H13 C6 1_555 1_555
C7 C2 1_555 1_555
C8 N5 1_555 1_555
O1 H16 1_555 1_555
O2 H14 1_555 1_555
H15 O2 1_555 1_555
H17 O1 1_555 1_555
Cd1A N3 1_555 1_555
N3A Cd1 1_555 1_555
N8 C8 1_555 1_555
C6 C7 1_555 1_555
C7 C8 1_555 1_555

#END
