
#######################################################################
#
#                 Cambridge Crystallographic Data Centre
#                                CCDC 
#
#######################################################################
#
# If this CIF has been generated from an entry in the Cambridge 
# Structural Database, then it will include bibliographic, chemical, 
# crystal, experimental, refinement or atomic coordinate data resulting 
# from the CCDC's data processing and validation procedures.
#
#######################################################################

data_RASJIG
_symmetry_cell_setting           monoclinic
_symmetry_space_group_name_H-M   'P 2/n'
_symmetry_Int_Tables_number      13
_space_group_name_Hall           '-P 2yac'
loop_
_symmetry_equiv_pos_site_id
_symmetry_equiv_pos_as_xyz
1 x,y,z
2 1/2-x,y,1/2-z
3 -x,-y,-z
4 1/2+x,-y,1/2+z
_cell_length_a                   18.0590(11)
_cell_length_b                   11.0588(6)
_cell_length_c                   20.5085(14)
_cell_angle_alpha                90
_cell_angle_beta                 98.047(6)
_cell_angle_gamma                90
_cell_volume                     4055.44
loop_
_atom_site_label
_atom_site_type_symbol
_atom_site_fract_x
_atom_site_fract_y
_atom_site_fract_z
Cu1 Cu -0.2500 -0.64518(5) 0.2500
S2 S -0.45098(6) -0.55104(11) 0.32095(6)
O1 O -0.13052(16) -0.6983(3) 0.36966(15)
N2 N -0.37066(19) -0.6025(3) 0.31307(16)
O5 O -0.25862(19) -0.5925(3) 0.53913(14)
C1 C -0.3107(2) -1.2770(3) 0.2211(2)
N4 N -0.19023(19) -0.6486(3) 0.45772(16)
O7 O -0.4485(2) -0.4346(3) 0.3533(2)
C3 C -0.3134(2) -0.8883(3) 0.25035(19)
N6 N -0.2500 -0.8263(4) 0.2500
C4 C -0.2500 -1.0774(4) 0.2500
C5 C -0.3164(2) -0.6098(3) 0.36553(19)
O8 O -0.49321(19) -0.5541(4) 0.25602(17)
C7 C -0.1919(2) -0.6624(3) 0.39352(19)
C8 C -0.4937(2) -0.6506(4) 0.3712(2)
C9 C -0.3154(2) -1.0129(3) 0.25043(19)
C10 C -0.2550(2) -0.6107(4) 0.47531(19)
N9 N -0.24906(18) -0.6438(3) 0.34705(15)
C12 C -0.5237(2) -0.6082(4) 0.4249(2)
C13 C -0.2500 -1.2123(4) 0.2500
C14 C -0.5595(2) -0.8082(4) 0.4522(2)
C15 C -0.3087(2) -1.4020(3) 0.2219(2)
N10 N -0.2500 -1.4632(3) 0.2500
C17 C -0.4973(2) -0.7732(4) 0.3574(2)
C24 C -0.5564(3) -0.6862(4) 0.4646(2)
C26 C -0.5294(3) -0.8509(4) 0.3972(2)
C28 C -0.3190(2) -0.5905(4) 0.43226(19)
C29 C -0.5898(3) -0.8859(4) 0.4930(2)
C32 C -0.0679(3) -0.7409(5) 0.4156(3)
C37 C -0.1907(3) -0.6063(5) 0.5846(2)
H1 H -0.3529 -1.2374 0.2002
H3 H -0.3578 -0.8439 0.2509
H4 H -0.3605 -1.0528 0.2516
H5 H -0.5225 -0.5268 0.4341
H6 H -0.3507 -1.4449 0.2020
H8 H -0.4775 -0.8034 0.3213
H14 H -0.5777 -0.6569 0.4996
H15 H -0.5310 -0.9324 0.3875
H18 H -0.3619 -0.5658 0.4472
H19 H -0.5747 -0.9624 0.4883
H20 H -0.6387 -0.8847 0.4813
H21 H -0.5814 -0.8618 0.5346
H23 H -0.0291 -0.7677 0.3915
H24 H -0.0823 -0.8068 0.4417
H25 H -0.0497 -0.6765 0.4438
H30 H -0.2027 -0.5966 0.6290
H31 H -0.1704 -0.6852 0.5809
H32 H -0.1549 -0.5462 0.5760
Cu1_2 Cu -0.2500 -1.64518(5) 0.2500
S2A S -0.04902(6) -0.55104(11) 0.17905(6)
O1A O -0.36948(16) -0.6983(3) 0.13034(15)
N2A N -0.12934(19) -0.6025(3) 0.18693(16)
O5A O -0.24138(19) -0.5925(3) -0.03913(14)
C1A C -0.1893(2) -1.2770(3) 0.2789(2)
N4A N -0.30977(19) -0.6486(3) 0.04228(16)
O7A O -0.0515(2) -0.4346(3) 0.1467(2)
C3A C -0.1866(2) -0.8883(3) 0.24965(19)
C5A C -0.1836(2) -0.6098(3) 0.13447(19)
O8A O -0.00679(19) -0.5541(4) 0.24398(17)
C7A C -0.3081(2) -0.6624(3) 0.10648(19)
C8A C -0.0063(2) -0.6506(4) 0.1288(2)
C9A C -0.1846(2) -1.0129(3) 0.24957(19)
C10A C -0.2450(2) -0.6107(4) 0.02469(19)
N9A N -0.25094(18) -0.6438(3) 0.15295(15)
C12A C 0.0237(2) -0.6082(4) 0.0751(2)
C14A C 0.0595(2) -0.8082(4) 0.0478(2)
C15A C -0.1913(2) -1.4020(3) 0.2781(2)
N10_2 N -0.2500 -0.4632(3) 0.2500
C17A C -0.0027(2) -0.7732(4) 0.1426(2)
C24A C 0.0564(3) -0.6862(4) 0.0354(2)
C26A C 0.0294(3) -0.8509(4) 0.1028(2)
C28A C -0.1810(2) -0.5905(4) 0.06774(19)
C29A C 0.0898(3) -0.8859(4) 0.0070(2)
C32A C -0.4321(3) -0.7409(5) 0.0844(3)
C37A C -0.3093(3) -0.6063(5) -0.0846(2)
H1A H -0.1471 -1.2374 0.2998
H3A H -0.1422 -0.8439 0.2491
H4A H -0.1395 -1.0528 0.2484
H5A H 0.0225 -0.5268 0.0659
H6A H -0.1493 -1.4449 0.2980
H8A H -0.0225 -0.8034 0.1787
H14A H 0.0777 -0.6569 0.0004
H15A H 0.0310 -0.9324 0.1125
H18A H -0.1381 -0.5658 0.0528
H19A H 0.0747 -0.9624 0.0117
H20A H 0.1387 -0.8847 0.0187
H21A H 0.0814 -0.8618 -0.0346
H23A H -0.4709 -0.7677 0.1085
H24A H -0.4177 -0.8068 0.0583
H25A H -0.4503 -0.6765 0.0562
H30A H -0.2973 -0.5966 -0.1290
H31A H -0.3296 -0.6852 -0.0809
H32A H -0.3451 -0.5462 -0.0760
Cu2 Cu -0.7500 -1.10762(5) 0.2500
S1 S -0.53440(6) -1.04992(10) 0.21129(6)
N1 N -0.62203(18) -1.0736(3) 0.20629(15)
O2 O -0.50393(18) -1.0748(4) 0.27817(16)
N3 N -0.73827(17) -1.1038(3) 0.15569(15)
O3 O -0.85460(16) -1.1532(3) 0.11744(14)
O4 O -0.51606(19) -0.9323(3) 0.18779(19)
O6 O -0.69456(19) -1.0350(3) -0.02671(14)
N5 N -0.7780(2) -1.0991(3) 0.04100(16)
C2 C -0.6835(2) -1.4753(4) 0.2664(2)
N7 N -0.7500 -1.2882(4) 0.2500
C6 C -0.6665(2) -1.0716(3) 0.14803(18)
N8 N -0.7500 -1.9255(4) 0.2500
C11 C -0.7095(2) -1.0606(4) 0.03398(19)
C16 C -0.6519(2) -1.0460(4) 0.0847(2)
C18 C -0.5096(2) -1.2779(4) 0.1694(2)
C19 C -0.4618(2) -1.1182(4) 0.1086(2)
C20 C -0.4362(3) -1.2023(4) 0.0677(2)
C21 C -0.7880(2) -1.1178(3) 0.10276(19)
C22 C -0.4849(2) -1.3613(4) 0.1282(2)
C23 C -0.6865(2) -1.3506(4) 0.2661(2)
C25 C -0.4475(3) -1.3253(4) 0.0760(2)
C27 C -0.4227(3) -1.4075(4) 0.0350(2)
C30 C -0.4984(2) -1.1551(4) 0.1597(2)
C31 C -0.6990(2) -1.8644(4) 0.2889(2)
C33 C -0.9075(3) -1.2071(5) 0.0663(3)
C34 C -0.7500 -1.5392(5) 0.2500
C35 C -0.6972(3) -1.7388(4) 0.2907(2)
C36 C -0.7500 -1.6742(5) 0.2500
C38 C -0.7540(3) -1.0415(6) -0.0805(2)
H2 H -0.6364 -1.5157 0.2764
H7 H -0.6054 -1.0202 0.0774
H9 H -0.5340 -1.3034 0.2037
H10 H -0.4542 -1.0371 0.1015
H11 H -0.4108 -1.1775 0.0337
H12 H -0.4929 -1.4438 0.1350
H13 H -0.6403 -1.3057 0.2769
H16 H -0.4297 -1.4838 0.0404
H17 H -0.3990 -1.3819 0.0041
H22 H -0.6625 -1.9084 0.3175
H26 H -0.9520 -1.2288 0.0843
H27 H -0.8872 -1.2775 0.0486
H28 H -0.9194 -1.1499 0.0315
H29 H -0.6589 -1.6982 0.3199
H33 H -0.7331 -1.0372 -0.1215
H34 H -0.7804 -1.1161 -0.0783
H35 H -0.7879 -0.9753 -0.0777
Cu2_2 Cu -0.7500 -2.10762(5) 0.2500
S1A S -0.96560(6) -1.04992(10) 0.28871(6)
N1A N -0.87797(18) -1.0736(3) 0.29371(15)
O2A O -0.99607(18) -1.0748(4) 0.22183(16)
N3A N -0.76173(17) -1.1038(3) 0.34431(15)
O3A O -0.64540(16) -1.1532(3) 0.38256(14)
O4A O -0.98394(19) -0.9323(3) 0.31221(19)
O6A O -0.80544(19) -1.0350(3) 0.52671(14)
N5A N -0.7220(2) -1.0991(3) 0.45900(16)
C2A C -0.8165(2) -1.4753(4) 0.2336(2)
C6A C -0.8335(2) -1.0716(3) 0.35197(18)
N8_2 N -0.7500 -0.9255(4) 0.2500
C11A C -0.7905(2) -1.0606(4) 0.46602(19)
C16A C -0.8481(2) -1.0460(4) 0.4153(2)
C18A C -0.9904(2) -1.2779(4) 0.3306(2)
C19A C -1.0382(2) -1.1182(4) 0.3914(2)
C20A C -1.0638(3) -1.2023(4) 0.4323(2)
C21A C -0.7120(2) -1.1178(3) 0.39724(19)
C22A C -1.0151(2) -1.3613(4) 0.3718(2)
C23A C -0.8135(2) -1.3506(4) 0.2339(2)
C25A C -1.0525(3) -1.3253(4) 0.4240(2)
C27A C -1.0773(3) -1.4075(4) 0.4650(2)
C30A C -1.0016(2) -1.1551(4) 0.3403(2)
C31A C -0.8010(2) -1.8644(4) 0.2111(2)
C33A C -0.5925(3) -1.2071(5) 0.4337(3)
C35A C -0.8028(3) -1.7388(4) 0.2093(2)
C38A C -0.7460(3) -1.0415(6) 0.5805(2)
H2A H -0.8636 -1.5157 0.2236
H7A H -0.8946 -1.0202 0.4226
H9A H -0.9660 -1.3034 0.2963
H10A H -1.0458 -1.0371 0.3985
H11A H -1.0892 -1.1775 0.4663
H12A H -1.0071 -1.4438 0.3650
H13A H -0.8597 -1.3057 0.2231
H16A H -1.0703 -1.4838 0.4596
H17A H -1.1010 -1.3819 0.4959
H22A H -0.8375 -1.9084 0.1825
H26A H -0.5480 -1.2288 0.4157
H27A H -0.6128 -1.2775 0.4514
H28A H -0.5806 -1.1499 0.4685
H29A H -0.8411 -1.6982 0.1801
H33A H -0.7669 -1.0372 0.6215
H34A H -0.7196 -1.1161 0.5783
H35A H -0.7121 -0.9753 0.5777
O9 O -0.3939(2) -1.1949(4) 0.37002(19)
H40 H -0.4203 -1.2552 0.3601
H41 H -0.3557 -1.2213 0.3941
O10 O -0.5918(3) -0.7120(5) 0.1774(2)
H42 H -0.5814 -0.6632 0.2082
H43 H -0.5560 -0.7609 0.1811
O11 O -0.6633(3) -0.6979(5) 0.0547(3)
C39 C -0.7378(5) -0.7278(8) 0.0430(5)
H36 H -0.7451 -0.8044 0.0630
H37 H -0.7533 -0.7318 -0.0045
H38 H -0.6515 -0.6991 0.0961
H39 H -0.7663 -0.6673 0.0621
loop_
_geom_bond_atom_site_label_1
_geom_bond_atom_site_label_2
_geom_bond_site_symmetry_1
_geom_bond_site_symmetry_2
Cu1 N2 1_555 1_555
Cu2 N1 1_555 1_555
S1 N1 1_555 1_555
S2 N2 1_555 1_555
O1 C7 1_555 1_555
N1 C6 1_555 1_555
O2 S1 1_555 1_555
N2 C5 1_555 1_555
N3 Cu2 1_555 1_555
O3 C21 1_555 1_555
O4 S1 1_555 1_555
O5 C10 1_555 1_555
C1 C13 1_555 1_555
O6 C11 1_555 1_555
N4 C7 1_555 1_555
N5 C11 1_555 1_555
C2 C23 1_555 1_555
O7 S2 1_555 1_555
C3 N6 1_555 1_555
N6 Cu1 1_555 1_555
C4 C9 1_555 1_555
C5 N9 1_555 1_555
O8 S2 1_555 1_555
N7 Cu2 1_555 1_555
C6 N3 1_555 1_555
C7 N9 1_555 1_555
N8 C31 1_555 1_555
C8 S2 1_555 1_555
C9 C3 1_555 1_555
C10 N4 1_555 1_555
N9 Cu1 1_555 1_555
C11 C16 1_555 1_555
C12 C8 1_555 1_555
C13 C4 1_555 1_555
C14 C24 1_555 1_555
C15 C1 1_555 1_555
C16 C6 1_555 1_555
N10 C15 1_555 1_555
C17 C8 1_555 1_555
C18 C22 1_555 1_555
C19 C20 1_555 1_555
C20 C25 1_555 1_555
C21 N3 1_555 1_555
C22 C25 1_555 1_555
O9 H40 1_555 1_555
C23 N7 1_555 1_555
C24 C12 1_555 1_555
C25 C27 1_555 1_555
C26 C14 1_555 1_555
C27 H16 1_555 1_555
C28 C5 1_555 1_555
C29 C14 1_555 1_555
C30 S1 1_555 1_555
C31 C35 1_555 1_555
C32 O1 1_555 1_555
C33 O3 1_555 1_555
C34 C2 1_555 1_555
C35 C36 1_555 1_555
O10 H42 1_555 1_555
C36 C34 1_555 1_555
C37 O5 1_555 1_555
C38 O6 1_555 1_555
O11 C39 1_555 1_555
C39 H36 1_555 1_555
H1 C1 1_555 1_555
H2 C2 1_555 1_555
H3 C3 1_555 1_555
H4 C9 1_555 1_555
H5 C12 1_555 1_555
H6 C15 1_555 1_555
H7 C16 1_555 1_555
H8 C17 1_555 1_555
H9 C18 1_555 1_555
H10 C19 1_555 1_555
H11 C20 1_555 1_555
H12 C22 1_555 1_555
H13 C23 1_555 1_555
H14 C24 1_555 1_555
H15 C26 1_555 1_555
H17 C27 1_555 1_555
H18 C28 1_555 1_555
H19 C29 1_555 1_555
H20 C29 1_555 1_555
H21 C29 1_555 1_555
H22 C31 1_555 1_555
H23 C32 1_555 1_555
H24 C32 1_555 1_555
H25 C32 1_555 1_555
H26 C33 1_555 1_555
H27 C33 1_555 1_555
H28 C33 1_555 1_555
H29 C35 1_555 1_555
H30 C37 1_555 1_555
H31 C37 1_555 1_555
H32 C37 1_555 1_555
H33 C38 1_555 1_555
H34 C38 1_555 1_555
H35 C38 1_555 1_555
H37 C39 1_555 1_555
H38 O11 1_555 1_555
H39 C39 1_555 1_555
H41 O9 1_555 1_555
H43 O10 1_555 1_555
Cu1_2 N10 1_555 1_555
Cu2_2 N8 1_555 1_555
S1A N1A 1_555 1_555
S2A N2A 1_555 1_555
O1A C7A 1_555 1_555
N1A Cu2 1_555 1_555
O2A S1A 1_555 1_555
N2A Cu1 1_555 1_555
N3A Cu2 1_555 1_555
O3A C21A 1_555 1_555
O4A S1A 1_555 1_555
O5A C10A 1_555 1_555
C1A C13 1_555 1_555
O6A C11A 1_555 1_555
N4A C7A 1_555 1_555
N5A C11A 1_555 1_555
C2A C34 1_555 1_555
O7A S2A 1_555 1_555
C3A N6 1_555 1_555
C5A N2A 1_555 1_555
O8A S2A 1_555 1_555
C6A N1A 1_555 1_555
C7A N9A 1_555 1_555
N8_2 Cu2 1_555 1_555
C8A S2A 1_555 1_555
C9A C4 1_555 1_555
C10A N4A 1_555 1_555
N9A Cu1 1_555 1_555
C11A C16A 1_555 1_555
C12A C8A 1_555 1_555
C14A C24A 1_555 1_555
C15A N10 1_555 1_555
C16A C6A 1_555 1_555
N10_2 Cu1 1_555 1_555
C17A C8A 1_555 1_555
C18A C22A 1_555 1_555
C19A C20A 1_555 1_555
C20A C25A 1_555 1_555
C21A N3A 1_555 1_555
C22A C25A 1_555 1_555
C23A N7 1_555 1_555
C24A C12A 1_555 1_555
C25A C27A 1_555 1_555
C26A C14A 1_555 1_555
C27A H16A 1_555 1_555
C28A C5A 1_555 1_555
C29A C14A 1_555 1_555
C30A S1A 1_555 1_555
C31A N8 1_555 1_555
C32A O1A 1_555 1_555
C33A O3A 1_555 1_555
C35A C36 1_555 1_555
C37A O5A 1_555 1_555
C38A O6A 1_555 1_555
H1A C1A 1_555 1_555
H2A C2A 1_555 1_555
H3A C3A 1_555 1_555
H4A C9A 1_555 1_555
H5A C12A 1_555 1_555
H6A C15A 1_555 1_555
H7A C16A 1_555 1_555
H8A C17A 1_555 1_555
H9A C18A 1_555 1_555
H10A C19A 1_555 1_555
H11A C20A 1_555 1_555
H12A C22A 1_555 1_555
H13A C23A 1_555 1_555
H14A C24A 1_555 1_555
H15A C26A 1_555 1_555
H17A C27A 1_555 1_555
H18A C28A 1_555 1_555
H19A C29A 1_555 1_555
H20A C29A 1_555 1_555
H21A C29A 1_555 1_555
H22A C31A 1_555 1_555
H23A C32A 1_555 1_555
H24A C32A 1_555 1_555
H25A C32A 1_555 1_555
H26A C33A 1_555 1_555
H27A C33A 1_555 1_555
H28A C33A 1_555 1_555
H29A C35A 1_555 1_555
H30A C37A 1_555 1_555
H31A C37A 1_555 1_555
H32A C37A 1_555 1_555
H33A C38A 1_555 1_555
H34A C38A 1_555 1_555
H35A C38A 1_555 1_555
N5 C21 1_555 1_555
C10 C28 1_555 1_555
C17 C26 1_555 1_555
C18 C30 1_555 1_555
C19 C30 1_555 1_555
N3A C6A 1_555 1_555
C1A C15A 1_555 1_555
N5A C21A 1_555 1_555
C2A C23A 1_555 1_555
C3A C9A 1_555 1_555
C5A N9A 1_555 1_555
C10A C28A 1_555 1_555
C17A C26A 1_555 1_555
C18A C30A 1_555 1_555
C19A C30A 1_555 1_555
C31A C35A 1_555 1_555

#END
