
#######################################################################
#
#                 Cambridge Crystallographic Data Centre
#                                CCDC 
#
#######################################################################
#
# If this CIF has been generated from an entry in the Cambridge 
# Structural Database, then it will include bibliographic, chemical, 
# crystal, experimental, refinement or atomic coordinate data resulting 
# from the CCDC's data processing and validation procedures.
#
#######################################################################

data_RASKIH
_symmetry_cell_setting           orthorhombic
_symmetry_space_group_name_H-M   'F d d 2'
_symmetry_Int_Tables_number      43
_space_group_name_Hall           'F 2 -2d'
loop_
_symmetry_equiv_pos_site_id
_symmetry_equiv_pos_as_xyz
1 x,y,z
2 -x,-y,z
3 1/4+x,1/4-y,1/4+z
4 1/4-x,1/4+y,1/4+z
5 x,1/2+y,1/2+z
6 -x,1/2-y,1/2+z
7 1/4+x,3/4-y,3/4+z
8 1/4-x,3/4+y,3/4+z
9 1/2+x,y,1/2+z
10 1/2-x,-y,1/2+z
11 3/4+x,1/4-y,3/4+z
12 3/4-x,1/4+y,3/4+z
13 1/2+x,1/2+y,z
14 1/2-x,1/2-y,z
15 3/4+x,3/4-y,1/4+z
16 3/4-x,3/4+y,1/4+z
_cell_length_a                   22.480(5)
_cell_length_b                   38.210(8)
_cell_length_c                   8.8690(18)
_cell_angle_alpha                90
_cell_angle_beta                 90
_cell_angle_gamma                90
_cell_volume                     7618.12
loop_
_atom_site_label
_atom_site_type_symbol
_atom_site_fract_x
_atom_site_fract_y
_atom_site_fract_z
Mg1 Mg 0.23570(5) 0.04389(3) 0.67151(15)
Mg2 Mg 0.17173(5) 0.01231(3) 0.32223(15)
O1 O 0.26757(10) -0.00822(6) 0.6269(3)
O2 O 0.13137(11) 0.22924(7) 0.4599(3)
O3 O 0.21943(10) 0.05300(7) 0.4414(3)
O4 O 0.15656(12) 0.06570(7) 0.2585(3)
O5 O 0.23605(10) -0.02406(6) 0.3932(3)
O6 O 0.06808(11) 0.18680(7) 0.3949(4)
O7 O 0.15179(11) 0.02688(8) 0.7111(3)
O8 O 0.11038(12) 0.01066(8) 0.4897(3)
C1 C 0.19281(16) 0.07579(11) 0.3602(5)
C2 C 0.05239(15) 0.00797(11) 0.7154(4)
C3 C 0.11939(15) 0.19841(10) 0.4228(5)
C4 C 0.16968(15) 0.17234(10) 0.4197(5)
C5 C 0.10891(16) 0.01578(10) 0.6325(5)
C6 C 0.15927(16) 0.13780(10) 0.3802(5)
H1 H 0.1216 0.1310 0.3479
C7 C 0.26762(16) -0.02719(10) 0.5091(5)
H2 H 0.2944 -0.0457 0.5089
C8 C 0.0000 0.0000 0.9541(7)
H3 H 0.0000 0.0000 1.0590
C9 C 0.0000 0.0000 0.6353(7)
H4 H 0.0000 0.0000 0.5305
C10 C 0.26013(18) 0.12387(11) 0.4317(7)
H5 H 0.2909 0.1076 0.4377
C11 C 0.20455(16) 0.11320(10) 0.3885(5)
C12 C 0.22538(19) 0.18233(12) 0.4647(7)
H6 H 0.2323 0.2053 0.4940
C13 C 0.05146(16) 0.00773(12) 0.8749(5)
H7 H 0.0861 0.0129 0.9277
C14 C 0.27101(19) 0.15850(13) 0.4666(8)
H8 H 0.3093 0.1657 0.4914
O9 O 0.21188(15) 0.09069(8) 0.7728(4)
N1 N 0.1658(3) 0.13997(12) 0.8430(6)
C15 C 0.1712(3) 0.11063(15) 0.7737(7)
H9 H 0.1385 0.1040 0.7159
C16 C 0.1147(4) 0.1635(2) 0.8259(13)
H10 H 0.1204 0.1839 0.8876
H11 H 0.0791 0.1516 0.8566
H12 H 0.1112 0.1704 0.7222
C17 C 0.2145(5) 0.1537(3) 0.9340(13)
H13 H 0.2031 0.1758 0.9766
H14 H 0.2491 0.1569 0.8717
H15 H 0.2235 0.1375 1.0136
Mg1A Mg -0.23570(5) -0.04389(3) 0.67151(15)
Mg1G Mg 0.01430(5) -0.20611(3) 0.42151(15)
Mg1H Mg -0.26430(5) 0.04389(3) 0.17151(15)
Mg1I Mg 0.26430(5) -0.04389(3) 0.17151(15)
Mg1J Mg -0.01430(5) 0.20611(3) 0.42151(15)
Mg2A Mg -0.17173(5) -0.01231(3) 0.32223(15)
Mg2C Mg 0.07827(5) 0.26231(3) 0.57223(15)
Mg2H Mg -0.32827(5) 0.01231(3) 0.82223(15)
Mg2I Mg 0.32827(5) -0.01231(3) 0.82223(15)
Mg2N Mg -0.07827(5) -0.26231(3) 0.57223(15)
O1A O -0.26757(10) 0.00822(6) 0.6269(3)
O1H O -0.23243(10) -0.00822(6) 0.1269(3)
O1I O 0.23243(10) 0.00822(6) 0.1269(3)
O2A O -0.13137(11) -0.22924(7) 0.4599(3)
O2G O 0.11863(11) -0.02076(7) 0.2099(3)
O2J O -0.11863(11) 0.02076(7) 0.2099(3)
O3A O -0.21943(10) -0.05300(7) 0.4414(3)
O4A O -0.15656(12) -0.06570(7) 0.2585(3)
O5A O -0.23605(10) 0.02406(6) 0.3932(3)
O5H O -0.26395(10) -0.02406(6) 0.8932(3)
O5I O 0.26395(10) 0.02406(6) 0.8932(3)
O6A O -0.06808(11) -0.18680(7) 0.3949(4)
O6B O 0.31808(11) 0.06320(7) 0.6449(4)
O6O O -0.31808(11) -0.06320(7) 0.6449(4)
O7A O -0.15179(11) -0.02688(8) 0.7111(3)
O8A O -0.11038(12) -0.01066(8) 0.4897(3)
C1A C -0.19281(16) -0.07579(11) 0.3602(5)
C2A C -0.05239(15) -0.00797(11) 0.7154(4)
C3A C -0.11939(15) -0.19841(10) 0.4228(5)
C4A C -0.16968(15) -0.17234(10) 0.4197(5)
C5A C -0.10891(16) -0.01578(10) 0.6325(5)
C6A C -0.15927(16) -0.13780(10) 0.3802(5)
H1A H -0.1216 -0.1310 0.3479
C7A C -0.26762(16) 0.02719(10) 0.5091(5)
H2A H -0.2944 0.0457 0.5089
C10A C -0.26013(18) -0.12387(11) 0.4317(7)
H5A H -0.2909 -0.1076 0.4377
C11A C -0.20455(16) -0.11320(10) 0.3885(5)
C12A C -0.22538(19) -0.18233(12) 0.4647(7)
H6A H -0.2323 -0.2053 0.4940
C13A C -0.05146(16) -0.00773(12) 0.8749(5)
H7A H -0.0861 -0.0129 0.9277
C14A C -0.27101(19) -0.15850(13) 0.4666(8)
H8A H -0.3093 -0.1657 0.4914
O9A O -0.21188(15) -0.09069(8) 0.7728(4)
N1A N -0.1658(3) -0.13997(12) 0.8430(6)
C15A C -0.1712(3) -0.11063(15) 0.7737(7)
H9A H -0.1385 -0.1040 0.7159
C16A C -0.1147(4) -0.1635(2) 0.8259(13)
H10A H -0.1204 -0.1839 0.8876
H11A H -0.0791 -0.1516 0.8566
H12A H -0.1112 -0.1704 0.7222
C17A C -0.2145(5) -0.1537(3) 0.9340(13)
H13A H -0.2031 -0.1758 0.9766
H14A H -0.2491 -0.1569 0.8717
H15A H -0.2235 -0.1375 1.0136
loop_
_geom_bond_atom_site_label_1
_geom_bond_atom_site_label_2
_geom_bond_site_symmetry_1
_geom_bond_site_symmetry_2
Mg1 O1 1_555 1_555
Mg2 O3 1_555 1_555
O1 C7 1_555 1_555
O2 C3 1_555 1_555
O3 Mg1 1_555 1_555
O4 Mg2 1_555 1_555
O5 Mg2 1_555 1_555
O6 C3 1_555 1_555
O7 Mg1 1_555 1_555
O8 Mg2 1_555 1_555
C1 O3 1_555 1_555
C2 C5 1_555 1_555
C3 C4 1_555 1_555
C4 C6 1_555 1_555
C5 O7 1_555 1_555
C6 H1 1_555 1_555
C7 O5 1_555 1_555
H2 C7 1_555 1_555
C8 H3 1_555 1_555
C9 C2 1_555 1_555
H4 C9 1_555 1_555
C10 H5 1_555 1_555
C11 C1 1_555 1_555
C12 C4 1_555 1_555
H6 C12 1_555 1_555
C13 C2 1_555 1_555
H7 C13 1_555 1_555
C14 C10 1_555 1_555
H8 C14 1_555 1_555
O9 Mg1 1_555 1_555
N1 C15 1_555 1_555
C15 O9 1_555 1_555
H9 C15 1_555 1_555
C16 N1 1_555 1_555
H10 C16 1_555 1_555
H11 C16 1_555 1_555
H12 C16 1_555 1_555
C17 N1 1_555 1_555
H13 C17 1_555 1_555
H14 C17 1_555 1_555
H15 C17 1_555 1_555
Mg1A O1A 1_555 1_555
Mg1G O6A 1_555 1_555
Mg1H O1H 1_555 1_555
Mg1I O5 1_555 1_555
Mg1J O6 1_555 1_555
Mg2A O1H 1_555 1_555
Mg2C O2 1_555 1_555
Mg2H O1A 1_555 1_555
Mg2I O1 1_555 1_555
Mg2N O2A 1_555 1_555
O1A C7A 1_555 1_555
O1I Mg2 1_555 1_555
O2A C3A 1_555 1_555
O2G Mg2 1_555 1_555
O2J Mg2A 1_555 1_555
O3A Mg1A 1_555 1_555
O4A Mg2A 1_555 1_555
O5A Mg1H 1_555 1_555
O5H Mg1A 1_555 1_555
O5I Mg1 1_555 1_555
O6A C3A 1_555 1_555
O6B Mg1 1_555 1_555
O6O Mg1A 1_555 1_555
O7A Mg1A 1_555 1_555
O8A Mg2A 1_555 1_555
C1A O3A 1_555 1_555
C2A C9 1_555 1_555
C3A C4A 1_555 1_555
C4A C6A 1_555 1_555
C5A O7A 1_555 1_555
C6A H1A 1_555 1_555
C7A O5A 1_555 1_555
H2A C7A 1_555 1_555
C10A H5A 1_555 1_555
C11A C1A 1_555 1_555
C12A C4A 1_555 1_555
H6A C12A 1_555 1_555
C13A C8 1_555 1_555
H7A C13A 1_555 1_555
C14A C10A 1_555 1_555
H8A C14A 1_555 1_555
O9A Mg1A 1_555 1_555
N1A C15A 1_555 1_555
C15A O9A 1_555 1_555
H9A C15A 1_555 1_555
C16A N1A 1_555 1_555
H10A C16A 1_555 1_555
H11A C16A 1_555 1_555
H12A C16A 1_555 1_555
C17A N1A 1_555 1_555
H13A C17A 1_555 1_555
H14A C17A 1_555 1_555
H15A C17A 1_555 1_555
O4 C1 1_555 1_555
O8 C5 1_555 1_555
C6 C11 1_555 1_555
C8 C13 1_555 1_555
C10 C11 1_555 1_555
C12 C14 1_555 1_555
Mg1I O1I 1_555 1_555
Mg2A O3A 1_555 1_555
Mg2A O5A 1_555 1_555
Mg2H O5H 1_555 1_555
Mg2I O5I 1_555 1_555
O4A C1A 1_555 1_555
O8A C5A 1_555 1_555
C2A C5A 1_555 1_555
C2A C13A 1_555 1_555
C6A C11A 1_555 1_555
C10A C11A 1_555 1_555
C12A C14A 1_555 1_555

#END
