
#######################################################################
#
#                 Cambridge Crystallographic Data Centre
#                                CCDC 
#
#######################################################################
#
# If this CIF has been generated from an entry in the Cambridge 
# Structural Database, then it will include bibliographic, chemical, 
# crystal, experimental, refinement or atomic coordinate data resulting 
# from the CCDC's data processing and validation procedures.
#
#######################################################################

data_RASMIJ
_symmetry_cell_setting           monoclinic
_symmetry_space_group_name_H-M   'C 2/m'
_symmetry_Int_Tables_number      12
_space_group_name_Hall           '-C 2y'
loop_
_symmetry_equiv_pos_site_id
_symmetry_equiv_pos_as_xyz
1 x,y,z
2 -x,y,-z
3 1/2+x,1/2+y,z
4 1/2-x,1/2+y,-z
5 -x,-y,-z
6 x,-y,z
7 1/2-x,1/2-y,-z
8 1/2+x,1/2-y,z
_cell_length_a                   19.4668(11)
_cell_length_b                   28.1497(11)
_cell_length_c                   12.0700(5)
_cell_angle_alpha                90
_cell_angle_beta                 92.484(4)
_cell_angle_gamma                90
_cell_volume                     6607.96
loop_
_atom_site_label
_atom_site_type_symbol
_atom_site_fract_x
_atom_site_fract_y
_atom_site_fract_z
O8 O 0.2474(3) -0.0418(2) 0.4249(7)
O9 O 0.1495(4) 0.0000 0.4671(9)
O10 O 0.2442(6) 0.0000 0.5869(9)
Cl1 Cl 0.22226(16) 0.0000 0.4768(3)
O8E O 0.2474(3) 0.0418(2) 0.4249(7)
C19 C 0.2686(17) 0.0261(15) 0.177(4)
H25 H 0.2560 0.0598 0.1715
H26 H 0.3031 0.0190 0.1224
H27 H 0.2875 0.0192 0.2514
O11 O 0.2140(12) 0.0000 0.1560(19)
H28 H 0.1799 0.0177 0.1422
C19E C 0.2686(17) -0.0261(15) 0.177(4)
H28E H 0.1799 -0.0177 0.1422
Cl2 Cl 0.9873(8) 0.5000 0.1390(13)
O12 O 0.9796(11) 0.5000 0.2492(13)
O13 O 1.0600(14) 0.5000 0.127(3)
O14 O 0.9681(11) 0.4595(6) 0.0824(14)
O14E O 0.9681(11) 0.5405(6) 0.0824(14)
Cl3 Cl 0.0000 0.0000 0.0000
O15 O -0.0558(16) 0.0000 0.081(2)
O16 O -0.0414(18) 0.0000 -0.1030(18)
O15A O 0.0558(16) 0.0000 -0.081(2)
O16A O 0.0414(18) 0.0000 0.1030(18)
C1 C 1.1203(4) 0.2765(4) 0.7873(7)
C2 C 1.1047(4) 0.3028(3) 0.6806(6)
C3 C 1.1069(4) 0.3496(3) 0.6502(7)
C4 C 1.1269(5) 0.3913(3) 0.7209(8)
H1 H 1.0873 0.4126 0.7265
H2 H 1.1646 0.4085 0.6875
H3 H 1.1419 0.3803 0.7951
C5 C 1.0914(4) 0.3487(3) 0.5348(7)
C6 C 1.0872(4) 0.3832(3) 0.4480(7)
C7 C 1.0929(4) 0.4342(3) 0.4693(8)
H4 H 1.1402 0.4446 0.4589
H5 H 1.0806 0.4409 0.5457
H6 H 1.0616 0.4514 0.4177
C8 C 1.3244(4) 0.2818(3) 0.7097(6)
C9 C 1.3909(4) 0.3062(3) 0.6841(6)
C10 C 1.4122(4) 0.3527(3) 0.6905(6)
C11 C 1.3720(4) 0.3952(3) 0.7268(8)
H7 H 1.3271 0.3848 0.7517
H8 H 1.3974 0.4112 0.7879
H9 H 1.3653 0.4172 0.6644
C12 C 1.4799(4) 0.3510(3) 0.6569(7)
C13 C 1.5352(4) 0.3841(3) 0.6460(7)
C14 C 1.5228(5) 0.4372(3) 0.6572(10)
H10 H 1.4747 0.4443 0.6368
H11 H 1.5330 0.4469 0.7341
H12 H 1.5528 0.4545 0.6080
C15 C 1.7306(4) 0.3353(3) 0.5375(7)
H13 H 1.7799 0.3273 0.5315
H14 H 1.7138 0.3490 0.4658
C16 C 1.7229(5) 0.3709(3) 0.6271(8)
H15 H 1.7273 0.3544 0.6996
H16 H 1.7610 0.3941 0.6243
C17 C 1.0807(6) 0.3988(4) 0.2531(8)
C18 C 1.6551(4) 0.3975(3) 0.6202(8)
H17 H 1.6511 0.4148 0.5487
H18 H 1.6549 0.4214 0.6805
N1 N 1.0888(3) 0.2749(2) 0.5918(5)
N2 N 1.0812(3) 0.3652(3) 0.3481(6)
N3 N 1.4422(3) 0.2775(2) 0.6523(5)
N4 N 1.4965(3) 0.3054(2) 0.6352(5)
N5 N 1.5952(3) 0.3662(2) 0.6289(6)
N6 N 1.6914(3) 0.2915(2) 0.5602(5)
H19 H 1.6905 0.2735 0.4965
H20 H 1.7165 0.2746 0.6132
N7 N 1.0810(3) 0.3031(2) 0.5034(5)
N8 N 1.0493(4) 0.2899(3) 0.1790(6)
H21 H 1.0841 0.2729 0.1483
H22 H 1.0100 0.2720 0.1692
O1 O 1.1210(3) 0.2316(2) 0.7834(5)
O2 O 1.1311(3) 0.2999(2) 0.8749(5)
O3 O 1.3749(3) 0.2794(3) 0.9631(5)
H23 H 1.4004 0.2512 0.9510
O4 O 1.3217(3) 0.2376(2) 0.6925(4)
O5 O 1.2509(3) 0.2858(2) 1.1167(4)
O6 O 1.2761(3) 0.3062(2) 0.7442(5)
O7 O 1.2589(5) 0.3891(3) 0.9699(7)
H24 H 1.2347 0.4116 0.9247
Na1 Na 1.25033(16) 0.30798(12) 0.9302(3)
Cu1 Cu 1.09478(4) 0.20467(3) 0.61012(8)
Cu2 Cu 1.07124(5) 0.29287(4) 0.34294(8)
C20 C 1.0470(12) 0.3786(6) 0.1513(16)
H29 H 1.0487 0.4022 0.0906
H30 H 0.9981 0.3721 0.1647
C21 C 1.0813(13) 0.3333(7) 0.1164(17)
H31 H 1.1314 0.3351 0.1345
H32 H 1.0745 0.3289 0.0353
C22 C 1.3006(16) 0.4041(13) 1.062(2)
H33 H 1.3261 0.4326 1.0422
H34 H 1.3330 0.3788 1.0837
H35 H 1.2715 0.4113 1.1242
C23 C 1.4253(9) 0.3139(7) 0.989(2)
H36 H 1.4614 0.3001 1.0381
H37 H 1.4042 0.3408 1.0261
H38 H 1.4456 0.3249 0.9205
N3F N 1.0578(3) 0.2225(2) 0.3477(5)
N4G N 0.9965(3) 0.1946(2) 0.6352(5)
N5G N 1.0952(3) 0.1338(2) 0.6289(6)
N6G N 1.1914(3) 0.2085(2) 0.5602(5)
O4F O 1.1783(3) 0.2624(2) 0.3075(4)
Cu1G Cu 1.59478(4) 0.29533(3) 0.61012(8)
Cu2F Cu 1.42876(5) 0.20713(4) 0.65706(8)
C24? C 0.9005(11) 0.3707(9) 0.8499(19)
C25? C 0.9604(12) 0.3315(8) 0.8857(19)
C26? C 0.612(4) 0.3266(16) 0.002(11)
C27? C 0.757(2) 0.4212(11) -0.055(2)
H39? H 0.6135 0.2467 0.0420
H40? H 0.8563 0.3540 0.8347
H41? H 0.8944 0.3930 0.9122
H42? H 1.0065 0.3450 0.8739
H43? H 0.9578 0.3235 0.9654
H44? H 0.5626 0.3304 -0.0155
H45? H 0.6378 0.3335 -0.0633
H46? H 0.6260 0.3485 0.0623
H47? H 0.7843 0.4050 -0.1095
H48? H 0.7826 0.4481 -0.0231
H49? H 0.7138 0.4327 -0.0914
H50? H 0.7248 0.4039 0.0844
O17? O 0.0000 -0.0528(6) 0.0000
loop_
_geom_bond_atom_site_label_1
_geom_bond_atom_site_label_2
_geom_bond_site_symmetry_1
_geom_bond_site_symmetry_2
C1 C2 1_555 1_555
C2 C3 1_555 1_555
C3 C4 1_555 1_555
C4 H1 1_555 1_555
H2 C4 1_555 1_555
H3 C4 1_555 1_555
C5 C3 1_555 1_555
C6 C5 1_555 1_555
C7 C6 1_555 1_555
H4 C7 1_555 1_555
H5 C7 1_555 1_555
H6 C7 1_555 1_555
C8 C9 1_555 1_555
C9 C10 1_555 1_555
C10 C11 1_555 1_555
C11 H7 1_555 1_555
H8 C11 1_555 1_555
H9 C11 1_555 1_555
C12 C10 1_555 1_555
C13 C12 1_555 1_555
C14 C13 1_555 1_555
H10 C14 1_555 1_555
H11 C14 1_555 1_555
H12 C14 1_555 1_555
C15 H13 1_555 1_555
H14 C15 1_555 1_555
C16 C15 1_555 1_555
H15 C16 1_555 1_555
H16 C16 1_555 1_555
C17 N2 1_555 1_555
C18 C16 1_555 1_555
H17 C18 1_555 1_555
H18 C18 1_555 1_555
N1 C2 1_555 1_555
N2 C6 1_555 1_555
N3 C9 1_555 1_555
N4 C12 1_555 1_555
N5 C13 1_555 1_555
N6 C15 1_555 1_555
H19 N6 1_555 1_555
H20 N6 1_555 1_555
N7 C5 1_555 1_555
N8 H21 1_555 1_555
H22 N8 1_555 1_555
O1 C1 1_555 1_555
O2 C1 1_555 1_555
O3 H23 1_555 1_555
O4 C8 1_555 1_555
O5 Na1 1_555 1_555
O6 C8 1_555 1_555
O7 H24 1_555 1_555
O8 Cl1 1_555 1_555
O9 Cl1 1_555 1_555
O10 Cl1 1_555 1_555
C19 H25 1_555 1_555
H26 C19 1_555 1_555
H27 C19 1_555 1_555
O11 C19 1_555 1_555
H28 O11 1_555 1_555
Na1 O2 1_555 1_555
Cl1 O8E 1_555 1_555
Cu1 N1 1_555 1_555
Cu2 N2 1_555 1_555
C20 C17 1_555 1_555
H29 C20 1_555 1_555
H30 C20 1_555 1_555
C21 N8 1_555 1_555
H31 C21 1_555 1_555
H32 C21 1_555 1_555
C22 O7 1_555 1_555
H33 C22 1_555 1_555
H34 C22 1_555 1_555
H35 C22 1_555 1_555
C23 O3 1_555 1_555
H36 C23 1_555 1_555
H37 C23 1_555 1_555
H38 C23 1_555 1_555
Cl2 O12 1_555 1_555
O13 Cl2 1_555 1_555
O14 Cl2 1_555 1_555
Cl3 O15 1_555 1_555
O16 Cl3 1_555 1_555
N3F Cu2 1_555 1_555
N4G Cu1 1_555 1_555
N5G Cu1 1_555 1_555
N6G Cu1 1_555 1_555
O4F Cu2 1_555 1_555
C19E C19 1_555 1_555
H28E O11 1_555 1_555
Cu1G N4 1_555 1_555
Cu2F N3 1_555 1_555
O14E Cl2 1_555 1_555
O15A Cl3 1_555 1_555
O16A Cl3 1_555 1_555
C18 N5 1_555 1_555
N1 N7 1_555 1_555
N3 N4 1_555 1_555
N5 Cu1G 1_555 1_555
N6 Cu1G 1_555 1_555
N7 Cu2 1_555 1_555
N8 Cu2 1_555 1_555
O1 Cu1 1_555 1_555
O3 Na1 1_555 1_555
O4 Cu2F 1_555 1_555
O6 Na1 1_555 1_555
O7 Na1 1_555 1_555
O11 C19E 1_555 1_555
C20 C21 1_555 1_555

#END
