
#######################################################################
#
#                 Cambridge Crystallographic Data Centre
#                                CCDC 
#
#######################################################################
#
# If this CIF has been generated from an entry in the Cambridge 
# Structural Database, then it will include bibliographic, chemical, 
# crystal, experimental, refinement or atomic coordinate data resulting 
# from the CCDC's data processing and validation procedures.
#
#######################################################################

data_RASPIM
_symmetry_cell_setting           orthorhombic
_symmetry_space_group_name_H-M   'P c c n'
_symmetry_Int_Tables_number      56
_space_group_name_Hall           '-P 2ab 2ac'
loop_
_symmetry_equiv_pos_site_id
_symmetry_equiv_pos_as_xyz
1 x,y,z
2 1/2-x,1/2-y,z
3 -x,1/2+y,1/2-z
4 1/2+x,-y,1/2-z
5 -x,-y,-z
6 1/2+x,1/2+y,-z
7 x,1/2-y,1/2+z
8 1/2-x,y,1/2+z
_cell_length_a                   9.853(3)
_cell_length_b                   20.303(6)
_cell_length_c                   22.592(7)
_cell_angle_alpha                90
_cell_angle_beta                 90
_cell_angle_gamma                90
_cell_volume                     4519.43
loop_
_atom_site_label
_atom_site_type_symbol
_atom_site_fract_x
_atom_site_fract_y
_atom_site_fract_z
C1 C -0.0277(8) -0.0481(5) 0.3489(4)
H1 H -0.0835 -0.0523 0.3819
C2 C -0.0583(9) -0.0821(5) 0.2972(5)
H2 H -0.1345 -0.1091 0.2956
C3 C 0.0250(11) -0.0759(5) 0.2479(4)
H3 H 0.0046 -0.0987 0.2133
C4 C 0.1389(10) -0.0355(5) 0.2502(3)
H4 H 0.1946 -0.0314 0.2172
C5 C 0.1695(8) -0.0015(4) 0.3019(4)
H5 H 0.2456 0.0255 0.3035
C6 C 0.0862(9) -0.0077(4) 0.3512(3)
C7 C 0.2226(8) 0.0349(5) 0.4350(5)
C8 C 0.2072(9) 0.0853(5) 0.4750(4)
C9 C 0.0784(9) 0.1098(5) 0.4608(4)
C10 C 0.0039(8) 0.1673(5) 0.4855(4)
C11 C 0.3082(10) 0.1050(6) 0.5199(5)
C12 C 0.1408(11) 0.2662(6) 0.6389(4)
H6 H 0.0629 0.2776 0.6181
C13 C 0.1380(10) 0.2668(6) 0.6998(4)
H7 H 0.0590 0.2787 0.7196
C14 C 0.2500 0.2500 0.7311(5)
C15 C 0.2500 0.2500 0.7969(5)
C16 C 0.3615(11) 0.2695(6) 0.8284(4)
H8 H 0.4395 0.2831 0.8088
C17 C 0.3578(11) 0.2690(5) 0.8893(4)
H9 H 0.4338 0.2826 0.9105
C18 C -0.2027(10) 0.1998(6) 0.3467(4)
H10 H -0.1674 0.1641 0.3674
C19 C -0.2034(10) 0.1977(6) 0.2861(4)
H11 H -0.1719 0.1604 0.2666
C20 C -0.2500 0.2500 0.2541(5)
C21 C -0.2500 0.2500 0.1890(5)
C22 C -0.2599(12) 0.1925(5) 0.1572(4)
H12 H -0.2668 0.1523 0.1766
C23 C -0.2596(12) 0.1953(5) 0.0966(4)
H13 H -0.2666 0.1560 0.0757
Cl1 Cl 0.3571(3) -0.01652(16) 0.42651(15)
Co1 Co -0.2500 0.2500 0.47325(6)
Co2 Co 0.2500 0.2500 0.51484(6)
N1 N 0.1118(8) 0.0318(5) 0.4012(4)
N2 N 0.0210(8) 0.0769(5) 0.4158(4)
N3 N 0.2500 0.2500 0.6098(4)
N4 N 0.2500 0.2500 0.9176(4)
N5 N -0.2500 0.2500 0.3765(4)
N6 N -0.2500 0.2500 0.0666(5)
O1 O 0.3477(8) 0.0642(4) 0.5550(4)
O2 O 0.3518(6) 0.1630(3) 0.5173(3)
O3 O 0.0637(6) 0.2047(3) 0.5192(3)
O4 O -0.1159(6) 0.1729(3) 0.4694(3)
O5 O -0.3922(6) 0.1739(4) 0.4725(3)
H14 H -0.4683 0.1713 0.4879
H15 H -0.3653 0.1377 0.4604
C1A C -0.4723(8) 0.5481(5) 0.3489(4)
H1A H -0.4165 0.5523 0.3819
C2A C -0.4417(9) 0.5821(5) 0.2972(5)
H2A H -0.3655 0.6091 0.2956
C3A C -0.5250(11) 0.5759(5) 0.2479(4)
H3A H -0.5046 0.5987 0.2133
C4A C -0.6389(10) 0.5355(5) 0.2502(3)
H4A H -0.6946 0.5314 0.2172
C5A C -0.6695(8) 0.5015(4) 0.3019(4)
H5A H -0.7456 0.4745 0.3035
C6A C -0.5862(9) 0.5077(4) 0.3512(3)
C7A C -0.7226(8) 0.4651(5) 0.4350(5)
C8A C -0.7072(9) 0.4147(5) 0.4750(4)
C9A C -0.5784(9) 0.3902(5) 0.4608(4)
C10A C -0.5039(8) 0.3327(5) 0.4855(4)
C11A C -0.8082(10) 0.3950(6) 0.5199(5)
C12A C 0.3592(11) 0.2338(6) 0.6389(4)
H6A H 0.4371 0.2224 0.6181
C13A C 0.3620(10) 0.2332(6) 0.6998(4)
H7A H 0.4410 0.2213 0.7196
C16A C 0.1385(11) 0.2305(6) 0.8284(4)
H8A H 0.0605 0.2169 0.8088
C17A C 0.1422(11) 0.2310(5) 0.8893(4)
H9A H 0.0662 0.2174 0.9105
C18A C -0.2973(10) 0.3002(6) 0.3467(4)
H10A H -0.3326 0.3359 0.3674
C19A C -0.2966(10) 0.3023(6) 0.2861(4)
H11A H -0.3281 0.3396 0.2666
C22A C -0.2401(12) 0.3075(5) 0.1572(4)
H12A H -0.2332 0.3477 0.1766
C23A C -0.2404(12) 0.3047(5) 0.0966(4)
H13A H -0.2334 0.3440 0.0757
Cl1A Cl -0.8571(3) 0.51652(16) 0.42651(15)
Co1F Co -0.2500 0.2500 -0.02675(6)
Co2_2 Co -0.7500 0.2500 0.51484(6)
Co2F Co 0.2500 0.2500 1.01484(6)
N1A N -0.6118(8) 0.4682(5) 0.4012(4)
N2A N -0.5210(8) 0.4231(5) 0.4158(4)
N4F N 0.2500 0.2500 0.4176(4)
N6F N -0.2500 0.2500 0.5666(5)
O1A O -0.8477(8) 0.4358(4) 0.5550(4)
O2A O -0.8518(6) 0.3370(3) 0.5173(3)
O2A_2 O 0.1482(6) 0.3370(3) 0.5173(3)
O3A O -0.5637(6) 0.2953(3) 0.5192(3)
O3A_2 O 0.4363(6) 0.2953(3) 0.5192(3)
O4A O -0.3841(6) 0.3271(3) 0.4694(3)
O5A O -0.1078(6) 0.3261(4) 0.4725(3)
H14A H -0.0317 0.3287 0.4879
H15A H -0.1347 0.3623 0.4604
O6 O 0.7059(7) 0.0646(4) 0.4186(4)
H16 H 0.6877 0.0249 0.4225
H17 H 0.7867 0.0699 0.4092
loop_
_geom_bond_atom_site_label_1
_geom_bond_atom_site_label_2
_geom_bond_site_symmetry_1
_geom_bond_site_symmetry_2
C1 H1 1_555 1_555
C2 C1 1_555 1_555
H2 C2 1_555 1_555
C3 C2 1_555 1_555
H3 C3 1_555 1_555
C4 C3 1_555 1_555
H4 C4 1_555 1_555
C5 C4 1_555 1_555
H5 C5 1_555 1_555
C6 C1 1_555 1_555
C7 C8 1_555 1_555
C8 C9 1_555 1_555
C9 C10 1_555 1_555
C10 O3 1_555 1_555
C11 C8 1_555 1_555
C12 H6 1_555 1_555
C13 C12 1_555 1_555
H7 C13 1_555 1_555
C14 C13 1_555 1_555
C15 C14 1_555 1_555
C16 C15 1_555 1_555
H8 C16 1_555 1_555
C17 C16 1_555 1_555
H9 C17 1_555 1_555
C18 H10 1_555 1_555
C19 C18 1_555 1_555
H11 C19 1_555 1_555
C20 C19 1_555 1_555
C21 C20 1_555 1_555
C22 C21 1_555 1_555
H12 C22 1_555 1_555
C23 C22 1_555 1_555
H13 C23 1_555 1_555
Cl1 C7 1_555 1_555
Co1 N5 1_555 1_555
Co2 N3 1_555 1_555
N1 C6 1_555 1_555
N2 C9 1_555 1_555
N3 C12 1_555 1_555
N4 C17 1_555 1_555
N5 C18 1_555 1_555
N6 C23 1_555 1_555
O1 C11 1_555 1_555
O2 C11 1_555 1_555
O3 Co2 1_555 1_555
O4 C10 1_555 1_555
O5 Co1 1_555 1_555
H14 O5 1_555 1_555
H15 O5 1_555 1_555
O6 H16 1_555 1_555
H17 O6 1_555 1_555
C1A H1A 1_555 1_555
C2A C1A 1_555 1_555
H2A C2A 1_555 1_555
C3A C2A 1_555 1_555
H3A C3A 1_555 1_555
C4A C3A 1_555 1_555
H4A C4A 1_555 1_555
C5A C4A 1_555 1_555
H5A C5A 1_555 1_555
C6A C1A 1_555 1_555
C7A C8A 1_555 1_555
C8A C9A 1_555 1_555
C9A C10A 1_555 1_555
C10A O3A 1_555 1_555
C11A C8A 1_555 1_555
C12A N3 1_555 1_555
H6A C12A 1_555 1_555
C13A C14 1_555 1_555
H7A C13A 1_555 1_555
C16A C15 1_555 1_555
H8A C16A 1_555 1_555
C17A N4 1_555 1_555
H9A C17A 1_555 1_555
C18A N5 1_555 1_555
H10A C18A 1_555 1_555
C19A C20 1_555 1_555
H11A C19A 1_555 1_555
C22A C21 1_555 1_555
H12A C22A 1_555 1_555
C23A N6 1_555 1_555
H13A C23A 1_555 1_555
Cl1A C7A 1_555 1_555
Co1F N6 1_555 1_555
Co2_2 O2A 1_555 1_555
Co2F N4 1_555 1_555
N1A C6A 1_555 1_555
N2A C9A 1_555 1_555
N4F Co2 1_555 1_555
N6F Co1 1_555 1_555
O1A C11A 1_555 1_555
O2A C11A 1_555 1_555
O2A_2 Co2 1_555 1_555
O3A Co2_2 1_555 1_555
O3A_2 Co2 1_555 1_555
O4A Co1 1_555 1_555
O5A Co1 1_555 1_555
H14A O5A 1_555 1_555
H15A O5A 1_555 1_555
C5 C6 1_555 1_555
C7 N1 1_555 1_555
Co1 O4 1_555 1_555
Co2 O2 1_555 1_555
N1 N2 1_555 1_555
C5A C6A 1_555 1_555
C7A N1A 1_555 1_555
C10A O4A 1_555 1_555
C12A C13A 1_555 1_555
C16A C17A 1_555 1_555
C18A C19A 1_555 1_555
C22A C23A 1_555 1_555
N1A N2A 1_555 1_555

#END
