
#######################################################################
#
#                 Cambridge Crystallographic Data Centre
#                                CCDC 
#
#######################################################################
#
# If this CIF has been generated from an entry in the Cambridge 
# Structural Database, then it will include bibliographic, chemical, 
# crystal, experimental, refinement or atomic coordinate data resulting 
# from the CCDC's data processing and validation procedures.
#
#######################################################################

data_RASVEN
_symmetry_cell_setting           monoclinic
_symmetry_space_group_name_H-M   'P 21'
_symmetry_Int_Tables_number      4
_space_group_name_Hall           'P 2yb'
loop_
_symmetry_equiv_pos_site_id
_symmetry_equiv_pos_as_xyz
1 x,y,z
2 -x,1/2+y,-z
_cell_length_a                   5.7478(7)
_cell_length_b                   30.425(4)
_cell_length_c                   9.0837(12)
_cell_angle_alpha                90
_cell_angle_beta                 92.088(15)
_cell_angle_gamma                90
_cell_volume                     1587.47
loop_
_atom_site_label
_atom_site_type_symbol
_atom_site_fract_x
_atom_site_fract_y
_atom_site_fract_z
Pr1 Pr 0.97897(11) 0.14537(5) 0.23838(7)
O1 O 1.2851(19) 0.1996(3) 0.2058(12)
C1 C 1.284(3) 0.2238(5) 0.0889(17)
O2 O 1.453(2) 0.2370(5) 0.0289(14)
C2 C 1.039(3) 0.2395(5) 0.0344(18)
H1 H 1.0269 0.2347 -0.0723
O3 O 0.8668(19) 0.2139(3) 0.0989(12)
H2 H 0.8880 0.1879 0.0797
C3 C 1.011(3) 0.2884(6) 0.062(2)
C4 C 0.861(4) 0.3125(7) -0.038(3)
H3 H 0.7918 0.2995 -0.1209
C5 C 0.823(5) 0.3582(8) -0.001(4)
H4 H 0.7245 0.3755 -0.0613
C6 C 0.928(6) 0.3754(10) 0.117(4)
H5 H 0.9003 0.4047 0.1402
C7 C 1.081(6) 0.3510(9) 0.210(4)
H6 H 1.1626 0.3648 0.2878
C8 C 1.109(4) 0.3072(8) 0.186(3)
H7 H 1.1936 0.2901 0.2541
O4 O 1.3025(18) 0.0982(4) 0.3071(13)
C9 C 1.309(2) 0.0717(4) 0.4163(16)
O5 O 1.484(2) 0.0586(4) 0.4808(14)
C10 C 1.072(3) 0.0545(6) 0.462(2)
H8 H 1.0607 0.0592 0.5686
O6 O 0.8852(19) 0.0778(4) 0.3898(12)
H9 H 0.8973 0.1041 0.4082
C11 C 1.052(3) 0.0065(6) 0.434(2)
C12 C 1.182(4) -0.0232(7) 0.522(3)
H10 H 1.2722 -0.0125 0.6014
C13 C 1.181(5) -0.0660(12) 0.496(4)
H11 H 1.2753 -0.0843 0.5542
C14 C 1.035(6) -0.0852(8) 0.378(4)
H12 H 1.0249 -0.1156 0.3668
C15 C 0.916(6) -0.0582(9) 0.285(4)
H13 H 0.8292 -0.0699 0.2062
C16 C 0.922(4) -0.0128(9) 0.306(4)
H14 H 0.8436 0.0055 0.2386
O7 O 1.0536(19) 0.1676(4) 0.4979(10)
C17 C 0.892(3) 0.1751(5) 0.5826(18)
O8 O 0.914(2) 0.1695(4) 0.7224(11)
C18 C 0.648(3) 0.1857(5) 0.5238(14)
H15 H 0.5337 0.1671 0.5719
O9 O 0.640(2) 0.1776(3) 0.3670(10)
H16 H 0.6672 0.1516 0.3517
C19 C 0.593(3) 0.2342(5) 0.5497(16)
C20 C 0.447(4) 0.2479(6) 0.656(2)
H17 H 0.3855 0.2270 0.7186
C21 C 0.386(4) 0.2908(9) 0.675(2)
H18 H 0.2841 0.2987 0.7472
C22 C 0.482(4) 0.3234(8) 0.582(3)
H19 H 0.4503 0.3531 0.5968
C23 C 0.625(5) 0.3096(7) 0.467(3)
H20 H 0.6822 0.3298 0.4008
C24 C 0.677(4) 0.2668(6) 0.457(2)
H21 H 0.7751 0.2583 0.3836
O10 O 1.1634(18) 0.1248(3) 0.0104(10)
C25 C 1.321(3) 0.1219(5) -0.0779(17)
O11 O 1.291(2) 0.1366(8) -0.2155(11)
H22 H 1.1468 0.1462 -0.2581
O12 O 1.6176(18) 0.1158(4) 0.1144(11)
H23 H 1.55(2) 0.097(4) 0.164(13)
C26 C 1.556(3) 0.1043(5) -0.0386(14)
H24 H 1.6688 0.1178 -0.1029
C27 C 1.556(3) 0.0557(5) -0.0625(16)
C28 C 1.399(4) 0.0278(8) 0.003(3)
H25 H 1.2763 0.0395 0.0549
C29 C 1.423(4) -0.0179(8) -0.007(3)
H26 H 1.3379 -0.0360 0.0531
C30 C 1.567(4) -0.0357(8) -0.102(3)
H27 H 1.5766 -0.0661 -0.1104
C31 C 1.713(4) 0.0374(8) -0.157(2)
H28 H 1.8237 0.0556 -0.1971
C32 C 1.713(6) -0.0075(9) -0.195(4)
H29 H 1.7973 -0.0185 -0.2726
Pr1_2 Pr 1.97897(11) 0.14537(5) 0.23838(7)
O12_2 O 0.6176(18) 0.1158(4) 0.1144(11)
H23_2 H 0.55(2) 0.097(4) 0.164(13)
loop_
_geom_bond_atom_site_label_1
_geom_bond_atom_site_label_2
_geom_bond_site_symmetry_1
_geom_bond_site_symmetry_2
Pr1 O1 1_555 1_555
O1 C1 1_555 1_555
C1 O2 1_555 1_555
C2 C1 1_555 1_555
H1 C2 1_555 1_555
O3 Pr1 1_555 1_555
H2 O3 1_555 1_555
C3 C2 1_555 1_555
C4 C3 1_555 1_555
H3 C4 1_555 1_555
C5 C4 1_555 1_555
H4 C5 1_555 1_555
C6 C5 1_555 1_555
H5 C6 1_555 1_555
C7 C6 1_555 1_555
H6 C7 1_555 1_555
C8 C3 1_555 1_555
H7 C8 1_555 1_555
O4 Pr1 1_555 1_555
C9 O4 1_555 1_555
O5 C9 1_555 1_555
C10 C9 1_555 1_555
H8 C10 1_555 1_555
O6 Pr1 1_555 1_555
H9 O6 1_555 1_555
C11 C10 1_555 1_555
C12 C11 1_555 1_555
H10 C12 1_555 1_555
C13 C12 1_555 1_555
H11 C13 1_555 1_555
C14 C13 1_555 1_555
H12 C14 1_555 1_555
C15 C14 1_555 1_555
H13 C15 1_555 1_555
C16 C11 1_555 1_555
H14 C16 1_555 1_555
O7 Pr1 1_555 1_555
C17 O7 1_555 1_555
O8 C17 1_555 1_555
C18 C17 1_555 1_555
H15 C18 1_555 1_555
O9 Pr1 1_555 1_555
H16 O9 1_555 1_555
C19 C18 1_555 1_555
C20 C19 1_555 1_555
H17 C20 1_555 1_555
C21 C20 1_555 1_555
H18 C21 1_555 1_555
C22 C21 1_555 1_555
H19 C22 1_555 1_555
C23 C22 1_555 1_555
H20 C23 1_555 1_555
C24 C19 1_555 1_555
H21 C24 1_555 1_555
O10 Pr1 1_555 1_555
C25 O10 1_555 1_555
O11 C25 1_555 1_555
H22 O11 1_555 1_555
O12 H23 1_555 1_555
C26 C25 1_555 1_555
H24 C26 1_555 1_555
C27 C26 1_555 1_555
C28 C27 1_555 1_555
H25 C28 1_555 1_555
C29 C28 1_555 1_555
H26 C29 1_555 1_555
C30 C29 1_555 1_555
H27 C30 1_555 1_555
C31 C27 1_555 1_555
H28 C31 1_555 1_555
C32 C30 1_555 1_555
H29 C32 1_555 1_555
Pr1_2 O12 1_555 1_555
O12_2 Pr1 1_555 1_555
H23_2 O12_2 1_555 1_555
C2 O3 1_555 1_555
C7 C8 1_555 1_555
C10 O6 1_555 1_555
C15 C16 1_555 1_555
C18 O9 1_555 1_555
C23 C24 1_555 1_555
O12 C26 1_555 1_555
C31 C32 1_555 1_555

#END
