
#######################################################################
#
#                 Cambridge Crystallographic Data Centre
#                                CCDC 
#
#######################################################################
#
# If this CIF has been generated from an entry in the Cambridge 
# Structural Database, then it will include bibliographic, chemical, 
# crystal, experimental, refinement or atomic coordinate data resulting 
# from the CCDC's data processing and validation procedures.
#
#######################################################################

data_RASXEP01
_symmetry_cell_setting           tetragonal
_symmetry_space_group_name_H-M   'I 41/a'
_symmetry_Int_Tables_number      88
_space_group_name_Hall           '-I 4ad'
loop_
_symmetry_equiv_pos_site_id
_symmetry_equiv_pos_as_xyz
1 x,y,z
2 1/2-x,-y,1/2+z
3 3/4-y,1/4+x,1/4+z
4 3/4+y,3/4-x,3/4+z
5 1/2+x,1/2+y,1/2+z
6 -x,1/2-y,z
7 1/4-y,3/4+x,3/4+z
8 1/4+y,1/4-x,1/4+z
9 -x,-y,-z
10 1/2+x,y,1/2-z
11 1/4+y,3/4-x,3/4-z
12 1/4-y,1/4+x,1/4-z
13 1/2-x,1/2-y,1/2-z
14 x,1/2+y,-z
15 3/4+y,1/4-x,1/4-z
16 3/4-y,3/4+x,3/4-z
_cell_length_a                   20.3673(7)
_cell_length_b                   20.3673(7)
_cell_length_c                   16.2663(8)
_cell_angle_alpha                90
_cell_angle_beta                 90
_cell_angle_gamma                90
_cell_volume                     6747.7
loop_
_atom_site_label
_atom_site_type_symbol
_atom_site_fract_x
_atom_site_fract_y
_atom_site_fract_z
Sm1 Sm 0.79547(3) 0.32605(3) 0.08788(4)
Sm2 Sm 0.79567(3) 0.68167(3) 0.16902(4)
C1 C 0.7814(6) 0.5029(6) 0.1496(8)
H1 H 0.7505 0.4980 0.1913
C2 C 0.8500(6) 0.4810(6) 0.0537(8)
C3 C 0.8471(6) 0.5487(6) 0.0626(8)
C4 C 0.8809(6) 0.6054(5) 0.0261(7)
C5 C 0.8853(7) 0.4370(6) -0.0021(8)
C6 C 0.6635(6) 0.4233(7) 0.0241(8)
H2 H 0.6592 0.4416 0.0762
C7 C 0.6980(6) 0.3610(6) -0.0761(7)
C8 C 0.6474(6) 0.4020(6) -0.1029(8)
C9 C 0.6188(6) 0.4130(6) -0.1855(8)
C10 C 0.7391(6) 0.3075(6) -0.1119(8)
N1 N 0.8036(6) 0.5625(5) 0.1237(7)
N2 N 0.8084(5) 0.4518(5) 0.1092(7)
N3 N 0.7076(5) 0.3760(5) 0.0060(6)
N4 N 0.6265(5) 0.4412(5) -0.0400(6)
O1 O 0.8704(5) 0.6608(4) 0.0575(5)
O2 O 0.9196(5) 0.5987(5) -0.0354(5)
O3 O 0.9136(5) 0.4594(4) -0.0671(6)
O4 O 0.8855(5) 0.3771(4) 0.0152(7)
O5 O 0.5805(4) 0.4622(4) -0.1903(5)
O6 O 0.6297(4) 0.3744(4) -0.2450(5)
O7 O 0.7299(4) 0.2860(4) -0.1834(5)
O8 O 0.7843(4) 0.2853(4) -0.0658(5)
O9 O 0.8757(6) 0.2377(5) 0.0810(7)
O10 O 0.7228(5) 0.2311(4) 0.0841(5)
O11 O 0.8879(5) 0.7572(5) 0.1997(7)
Sm1F Sm 0.92395(3) 0.54547(3) -0.16212(4)
Sm2F Sm 0.56833(3) 0.54567(3) -0.08098(4)
Sm2A Sm 0.70433(3) 0.31833(3) -0.33098(4)
Sm2M Sm 0.79567(3) 0.18167(3) -0.16902(4)
N4G N 0.6912(5) 0.6235(5) 0.2100(6)
O2G O 0.8487(5) 0.3304(5) 0.2146(5)
O3G O 0.7094(4) 0.3364(5) 0.1829(6)
O5G O 0.7122(4) 0.6695(4) 0.0597(5)
O6A O 0.8703(4) 0.6256(4) 0.2550(5)
O7M O 0.7299(4) 0.7860(4) 0.1834(5)
O7A O 0.7701(4) 0.7140(4) 0.3166(5)
O8M O 0.7843(4) 0.7853(4) 0.0658(5)
O12 O 0.9983(17) 0.297(2) -0.300(2)
O13 O 0.9762(7) 0.3258(8) -0.1039(11)
loop_
_geom_bond_atom_site_label_1
_geom_bond_atom_site_label_2
_geom_bond_site_symmetry_1
_geom_bond_site_symmetry_2
Sm1 N2 1_555 1_555
Sm2 N1 1_555 1_555
C1 H1 1_555 1_555
C2 C3 1_555 1_555
C3 C4 1_555 1_555
C4 O1 1_555 1_555
C5 C2 1_555 1_555
C6 H2 1_555 1_555
C7 C8 1_555 1_555
C8 C9 1_555 1_555
C9 O5 1_555 1_555
C10 C7 1_555 1_555
N1 C1 1_555 1_555
N2 C1 1_555 1_555
N3 Sm1 1_555 1_555
N4 C6 1_555 1_555
O1 Sm2 1_555 1_555
O2 C4 1_555 1_555
O3 C5 1_555 1_555
O4 Sm1 1_555 1_555
O5 Sm2F 1_555 1_555
O6 C9 1_555 1_555
O7 C10 1_555 1_555
O8 Sm1 1_555 1_555
O9 Sm1 1_555 1_555
O10 Sm1 1_555 1_555
O11 Sm2 1_555 1_555
Sm1F O2 1_555 1_555
Sm2F N4 1_555 1_555
Sm2A O6 1_555 1_555
Sm2M O7 1_555 1_555
N4G Sm2 1_555 1_555
O2G Sm1 1_555 1_555
O3G Sm1 1_555 1_555
O5G Sm2 1_555 1_555
O6A Sm2 1_555 1_555
O7M Sm2 1_555 1_555
O7A Sm2 1_555 1_555
O8M Sm2 1_555 1_555
C2 N2 1_555 1_555
C3 N1 1_555 1_555
C5 O4 1_555 1_555
C6 N3 1_555 1_555
C7 N3 1_555 1_555
C8 N4 1_555 1_555
C10 O8 1_555 1_555
O3 Sm1F 1_555 1_555
O7 Sm2A 1_555 1_555
O8 Sm2M 1_555 1_555

#END
