
#######################################################################
#
#                 Cambridge Crystallographic Data Centre
#                                CCDC 
#
#######################################################################
#
# If this CIF has been generated from an entry in the Cambridge 
# Structural Database, then it will include bibliographic, chemical, 
# crystal, experimental, refinement or atomic coordinate data resulting 
# from the CCDC's data processing and validation procedures.
#
#######################################################################

data_RASXEP
_symmetry_cell_setting           tetragonal
_symmetry_space_group_name_H-M   'I 41/a'
_symmetry_Int_Tables_number      88
_space_group_name_Hall           '-I 4ad'
loop_
_symmetry_equiv_pos_site_id
_symmetry_equiv_pos_as_xyz
1 x,y,z
2 3/4-y,1/4+x,1/4+z
3 1/2+x,1/2+y,1/2+z
4 1/4-y,3/4+x,3/4+z
5 1/4+y,1/4-x,1/4+z
6 1/2-x,-y,1/2+z
7 3/4+y,3/4-x,3/4+z
8 -x,1/2-y,z
9 -x,-y,-z
10 1/4+y,3/4-x,3/4-z
11 1/2-x,1/2-y,1/2-z
12 3/4+y,1/4-x,1/4-z
13 3/4-y,3/4+x,3/4-z
14 1/2+x,y,1/2-z
15 1/4-y,1/4+x,1/4-z
16 x,1/2+y,-z
_cell_length_a                   20.312(3)
_cell_length_b                   20.312(3)
_cell_length_c                   16.220(3)
_cell_angle_alpha                90
_cell_angle_beta                 90
_cell_angle_gamma                90
_cell_volume                     6692
loop_
_atom_site_label
_atom_site_type_symbol
_atom_site_fract_x
_atom_site_fract_y
_atom_site_fract_z
Sm1 Sm 0.795423(13) 0.326176(13) 0.087747(16)
Sm2 Sm 0.568350(12) 0.545440(12) -0.081080(15)
C1 C 0.6640(3) 0.4226(3) 0.0229(3)
H1 H 0.6596 0.4413 0.0749
C2 C 0.6974(3) 0.3608(3) -0.0760(3)
C3 C 0.6483(3) 0.4016(3) -0.1051(3)
C4 C 0.7389(3) 0.3087(2) -0.1106(3)
C5 C 0.6186(3) 0.4127(3) -0.1864(3)
C6 C 0.7815(3) 0.5031(3) 0.1489(4)
H2 H 0.7507 0.4980 0.1907
C7 C 0.8495(3) 0.4812(3) 0.0534(3)
C8 C 0.8466(3) 0.5484(3) 0.0629(3)
C9 C 0.8852(3) 0.4373(3) -0.0035(3)
C10 C 0.8808(3) 0.6043(3) 0.0251(3)
N1 N 0.7073(2) 0.3753(2) 0.0066(3)
N2 N 0.6276(2) 0.4409(2) -0.0410(3)
N3 N 0.8027(2) 0.5619(2) 0.1246(3)
N4 N 0.8076(2) 0.4522(2) 0.1092(3)
O1 O 0.78349(18) 0.28506(18) -0.0655(2)
O2 O 0.72963(18) 0.28596(18) -0.1834(2)
O3 O 0.6304(2) 0.3751(2) -0.2446(2)
O4 O 0.5804(2) 0.4617(2) -0.1911(2)
O5 O 0.9196(2) 0.5985(2) -0.0347(2)
O6 O 0.8692(2) 0.66098(19) 0.0565(2)
O7 O 0.9134(2) 0.4594(2) -0.0658(3)
O8 O 0.8850(2) 0.3767(2) 0.0148(3)
O9 O 0.7231(3) 0.2318(2) 0.0850(3)
O10 O 0.8758(3) 0.2390(2) 0.0821(3)
H3 H 0.8820 0.2099 0.0405
H4 H 0.8941 0.2602 0.0475
O11 O 0.4923(2) 0.6370(2) -0.0500(3)
Sm1D Sm 0.576176(13) 0.454577(13) 0.337747(16)
Sm1C Sm 0.923824(13) 0.545423(13) -0.162253(16)
Sm1L Sm 0.423824(13) 0.545423(13) -0.337747(16)
Sm1E Sm 0.704577(13) 0.673824(13) -0.412253(16)
Sm1E_2 Sm 0.704577(13) 0.673824(13) 0.587747(16)
Sm2D Sm 0.795440(12) 0.681650(12) 0.168920(15)
Sm2E Sm 0.931650(12) 0.454560(12) 0.418920(15)
Sm2I Sm 0.795440(12) 0.181650(12) -0.168920(15)
Sm2C Sm 0.704560(12) 0.318350(12) -0.331080(15)
Sm2L Sm 0.204560(12) 0.318350(12) -0.168920(15)
Sm2H Sm 0.431650(12) 0.454560(12) 0.081080(15)
Sm2C_2 Sm 0.704560(12) 0.318350(12) 0.668920(15)
Sm2M Sm 1.068350(12) 0.545440(12) -0.418920(15)
Sm2E_2 Sm 0.931650(12) 0.454560(12) -0.581080(15)
C1L C 0.3274(3) 0.4140(3) -0.2729(3)
C1D C 0.6726(3) 0.5860(3) 0.2729(3)
C1C C 0.8274(3) 0.4140(3) -0.2271(3)
H1L H 0.3087 0.4096 -0.3249
H1D H 0.6913 0.5904 0.3249
H1C H 0.8087 0.4096 -0.1751
C2L C 0.3892(3) 0.4474(3) -0.1740(3)
C2D C 0.6108(3) 0.5526(3) 0.1740(3)
C2C C 0.8892(3) 0.4474(3) -0.3260(3)
C3L C 0.3484(3) 0.3983(3) -0.1449(3)
C3D C 0.6516(3) 0.6017(3) 0.1449(3)
C3C C 0.8484(3) 0.3983(3) -0.3551(3)
C4L C 0.4413(2) 0.4889(3) -0.1394(3)
C4D C 0.5587(2) 0.5111(3) 0.1394(3)
C4C C 0.9413(2) 0.4889(3) -0.3606(3)
C5L C 0.3373(3) 0.3686(3) -0.0636(3)
C5D C 0.6627(3) 0.6314(3) 0.0636(3)
C5C C 0.8373(3) 0.3686(3) -0.4364(3)
C6D C 0.7531(3) 0.4685(3) 0.3989(4)
C6C C 0.7469(3) 0.5315(3) -0.1011(4)
C6E C 0.7185(3) 0.4969(3) 0.6489(4)
H2D H 0.7480 0.4993 0.4407
H2C H 0.7520 0.5007 -0.0593
H2E H 0.7493 0.5020 0.6907
C7D C 0.7312(3) 0.4005(3) 0.3034(3)
C7C C 0.7688(3) 0.5995(3) -0.1966(3)
C7E C 0.6505(3) 0.5188(3) 0.5534(3)
C8D C 0.7984(3) 0.4034(3) 0.3129(3)
C8C C 0.7016(3) 0.5966(3) -0.1871(3)
C8E C 0.6534(3) 0.4516(3) 0.5629(3)
C9D C 0.6873(3) 0.3648(3) 0.2465(3)
C9C C 0.8127(3) 0.6352(3) -0.2535(3)
C9E C 0.6148(3) 0.5627(3) 0.4965(3)
C10D C 0.8543(3) 0.3692(3) 0.2751(3)
C10C C 0.6457(3) 0.6308(3) -0.2249(3)
C10E C 0.6192(3) 0.3957(3) 0.5251(3)
N1L N 0.3747(2) 0.4573(2) -0.2566(3)
N1D N 0.6253(2) 0.5427(2) 0.2566(3)
N1C N 0.8747(2) 0.4573(2) -0.2434(3)
N2L N 0.3091(2) 0.3776(2) -0.2090(3)
N2D N 0.6909(2) 0.6224(2) 0.2090(3)
N2C N 0.8091(2) 0.3776(2) -0.2910(3)
N2E N 0.8724(2) 0.5591(2) 0.4590(3)
N2I N 0.6909(2) 0.1224(2) -0.2090(3)
N3D N 0.8119(2) 0.4473(2) 0.3746(3)
N3C N 0.6881(2) 0.5527(2) -0.1254(3)
N3E N 0.6973(2) 0.4381(2) 0.6246(3)
N3O N 0.8027(2) 0.0619(2) -0.1246(3)
N4D N 0.7022(2) 0.4424(2) 0.3592(3)
N4C N 0.7978(2) 0.5576(2) -0.1408(3)
N4E N 0.6924(2) 0.5478(2) 0.6092(3)
N4L N 0.2978(2) 0.5576(2) -0.3592(3)
O1L O 0.46494(18) 0.53349(18) -0.1845(2)
O1D O 0.53506(18) 0.46651(18) 0.1845(2)
O1C O 0.96494(18) 0.53349(18) -0.3155(2)
O1O O 0.78349(18) 0.78506(18) 0.0655(2)
O1K O 1.03506(18) 0.46651(18) 0.3155(2)
O2L O 0.46404(18) 0.47963(18) -0.0666(2)
O2D O 0.53596(18) 0.52037(18) 0.0666(2)
O2C O 0.96404(18) 0.47963(18) -0.4334(2)
O2O O 0.72963(18) 0.78596(18) 0.1834(2)
O2E O 0.77037(18) 0.71404(18) 0.3166(2)
O2C_2 O 0.96404(18) 0.47963(18) 0.5666(2)
O2K O 1.03596(18) 0.52037(18) 0.4334(2)
O2J O 0.77037(18) 0.21404(18) -0.3166(2)
O3L O 0.3749(2) 0.3804(2) -0.0054(2)
O3D O 0.6251(2) 0.6196(2) 0.0054(2)
O3C O 0.8749(2) 0.3804(2) -0.4946(2)
O3E O 0.8696(2) 0.6249(2) 0.2554(2)
O3C_2 O 0.8749(2) 0.3804(2) 0.5054(2)
O3J O 0.8696(2) 0.1249(2) -0.2554(2)
O4L O 0.2883(2) 0.3304(2) -0.0589(2)
O4D O 0.7117(2) 0.6696(2) 0.0589(2)
O4C O 0.7883(2) 0.3304(2) -0.4411(2)
O4E O 0.9196(2) 0.5383(2) 0.3089(2)
O4I O 0.7117(2) 0.1696(2) -0.0589(2)
O5D O 0.8485(2) 0.3304(2) 0.2153(2)
O5C O 0.6515(2) 0.6696(2) -0.2847(2)
O5E O 0.5804(2) 0.4015(2) 0.4653(2)
O5M O 0.4196(2) 0.5985(2) -0.4653(2)
O6D O 0.91098(19) 0.3808(2) 0.3065(2)
O6C O 0.58902(19) 0.6192(2) -0.1935(2)
O6E O 0.6308(2) 0.33902(19) 0.5565(2)
O6O O 0.8692(2) 0.16098(19) -0.0565(2)
O7D O 0.7094(2) 0.3366(2) 0.1842(3)
O7C O 0.7906(2) 0.6634(2) -0.3158(3)
O7E O 0.5866(2) 0.5406(2) 0.4342(3)
O7M O 0.4134(2) 0.4594(2) -0.4342(3)
O8D O 0.6267(2) 0.3650(2) 0.2648(3)
O8C O 0.8733(2) 0.6350(2) -0.2352(3)
O8E O 0.6150(2) 0.6233(2) 0.5148(3)
O8L O 0.3733(2) 0.6350(2) -0.2648(3)
O9D O 0.4818(2) 0.5269(3) 0.3350(3)
O9C O 1.0182(2) 0.4731(3) -0.1650(3)
O9L O 0.5182(2) 0.4731(3) -0.3350(3)
O10D O 0.4890(2) 0.3742(3) 0.3321(3)
O10C O 1.0110(2) 0.6258(3) -0.1679(3)
O10L O 0.5110(2) 0.6258(3) -0.3321(3)
H3D H 0.4599 0.3680 0.2905
H3C H 1.0401 0.6320 -0.2095
H3L H 0.5401 0.6320 -0.2905
H4D H 0.5102 0.3559 0.2975
H4C H 0.9898 0.6441 -0.2025
H4L H 0.4898 0.6441 -0.2975
O11D O 0.8870(2) 0.7577(2) 0.2000(3)
O11E O 1.0077(2) 0.3630(2) 0.4500(3)
O11I O 0.8870(2) 0.2577(2) -0.2000(3)
O12 O 0.9754(4) 0.3268(5) -0.1053(6)
O13 O 0.9978(12) 0.2972(13) -0.3039(14)
O14 O 1.0000 0.2500 0.1250
loop_
_geom_bond_atom_site_label_1
_geom_bond_atom_site_label_2
_geom_bond_site_symmetry_1
_geom_bond_site_symmetry_2
Sm1 N1 1_555 1_555
Sm2 N2 1_555 1_555
C1 H1 1_555 1_555
C2 C3 1_555 1_555
C3 C5 1_555 1_555
C4 C2 1_555 1_555
C5 O3 1_555 1_555
C6 H2 1_555 1_555
C7 C8 1_555 1_555
C8 C10 1_555 1_555
C9 C7 1_555 1_555
C10 O5 1_555 1_555
N1 C1 1_555 1_555
N2 C1 1_555 1_555
N3 C6 1_555 1_555
N4 Sm1 1_555 1_555
O1 Sm1 1_555 1_555
O2 C4 1_555 1_555
O3 Sm2C 1_555 1_555
O4 Sm2 1_555 1_555
O5 Sm1C 1_555 1_555
O6 C10 1_555 1_555
O7 C9 1_555 1_555
O8 Sm1 1_555 1_555
O9 Sm1 1_555 1_555
O10 Sm1 1_555 1_555
H3 O10 1_555 1_555
H4 O10 1_555 1_555
O11 Sm2 1_555 1_555
Sm1D N1D 1_555 1_555
Sm1C O7 1_555 1_555
Sm1L N1L 1_555 1_555
Sm1E O5C 1_555 1_555
Sm1E_2 N4E 1_555 1_555
Sm2D N3 1_555 1_555
Sm2E N2E 1_555 1_555
Sm2I O1 1_555 1_555
Sm2C O2 1_555 1_555
Sm2L N2L 1_555 1_555
Sm2H O1D 1_555 1_555
Sm2C_2 N3E 1_555 1_555
Sm2M O1C 1_555 1_555
Sm2E_2 O2C 1_555 1_555
C1L H1L 1_555 1_555
C1D H1D 1_555 1_555
C1C H1C 1_555 1_555
C2L C3L 1_555 1_555
C2D C3D 1_555 1_555
C2C C3C 1_555 1_555
C3L C5L 1_555 1_555
C3D C5D 1_555 1_555
C3C C5C 1_555 1_555
C4L C2L 1_555 1_555
C4D C2D 1_555 1_555
C4C C2C 1_555 1_555
C5L O3L 1_555 1_555
C5D O3D 1_555 1_555
C5C O3C 1_555 1_555
C6D H2D 1_555 1_555
C6C H2C 1_555 1_555
C6E H2E 1_555 1_555
C7D C8D 1_555 1_555
C7C C8C 1_555 1_555
C7E C8E 1_555 1_555
C8D C10D 1_555 1_555
C8C C10C 1_555 1_555
C8E C10E 1_555 1_555
C9D C7D 1_555 1_555
C9C C7C 1_555 1_555
C9E C7E 1_555 1_555
C10D O5D 1_555 1_555
C10C O5C 1_555 1_555
C10E O5E 1_555 1_555
N1L C1L 1_555 1_555
N1D C1D 1_555 1_555
N1C Sm1C 1_555 1_555
N2L C1L 1_555 1_555
N2D Sm2D 1_555 1_555
N2C Sm2C 1_555 1_555
N2I Sm2I 1_555 1_555
N3D Sm2E 1_555 1_555
N3C Sm2 1_555 1_555
N3E C6E 1_555 1_555
N3O Sm2I 1_555 1_555
N4D Sm1D 1_555 1_555
N4C Sm1C 1_555 1_555
N4E C6E 1_555 1_555
N4L Sm1L 1_555 1_555
O1L Sm2 1_555 1_555
O1D Sm1D 1_555 1_555
O1C Sm1C 1_555 1_555
O1O Sm2D 1_555 1_555
O1K Sm2E 1_555 1_555
O2L Sm2 1_555 1_555
O2D Sm2 1_555 1_555
O2C Sm2M 1_555 1_555
O2O Sm2D 1_555 1_555
O2E Sm2D 1_555 1_555
O2C_2 Sm2E 1_555 1_555
O2K Sm2E 1_555 1_555
O2J Sm2I 1_555 1_555
O3L Sm2H 1_555 1_555
O3D Sm2 1_555 1_555
O3C Sm2E_2 1_555 1_555
O3E Sm2D 1_555 1_555
O3C_2 Sm2E 1_555 1_555
O3J Sm2I 1_555 1_555
O4L Sm2L 1_555 1_555
O4D Sm2D 1_555 1_555
O4C Sm2C 1_555 1_555
O4E Sm2E 1_555 1_555
O4I Sm2I 1_555 1_555
O5D Sm1 1_555 1_555
O5E Sm1D 1_555 1_555
O5M Sm1L 1_555 1_555
O6D Sm2E 1_555 1_555
O6C Sm2 1_555 1_555
O6E Sm2C_2 1_555 1_555
O6O Sm2I 1_555 1_555
O7D Sm1 1_555 1_555
O7C Sm1E 1_555 1_555
O7E Sm1D 1_555 1_555
O7M Sm1L 1_555 1_555
O8D Sm1D 1_555 1_555
O8C Sm1C 1_555 1_555
O8E Sm1E_2 1_555 1_555
O8L Sm1L 1_555 1_555
O9D Sm1D 1_555 1_555
O9C Sm1C 1_555 1_555
O9L Sm1L 1_555 1_555
O10D Sm1D 1_555 1_555
O10C Sm1C 1_555 1_555
O10L Sm1L 1_555 1_555
H3D O10D 1_555 1_555
H3C O10C 1_555 1_555
H3L O10L 1_555 1_555
H4D O10D 1_555 1_555
H4C O10C 1_555 1_555
H4L O10L 1_555 1_555
O11D Sm2D 1_555 1_555
O11E Sm2E 1_555 1_555
O11I Sm2I 1_555 1_555
C2 N1 1_555 1_555
C3 N2 1_555 1_555
C4 O1 1_555 1_555
C5 O4 1_555 1_555
C6 N4 1_555 1_555
C7 N4 1_555 1_555
C8 N3 1_555 1_555
C9 O8 1_555 1_555
O2 Sm2I 1_555 1_555
O6 Sm2D 1_555 1_555
Sm1L O1L 1_555 1_555
Sm2C O2J 1_555 1_555
Sm2H O2L 1_555 1_555
Sm2H O2D 1_555 1_555
C1D N2D 1_555 1_555
C1C N1C 1_555 1_555
C1C N2C 1_555 1_555
C2L N1L 1_555 1_555
C2D N1D 1_555 1_555
C2C N1C 1_555 1_555
C3L N2L 1_555 1_555
C3D N2D 1_555 1_555
C3C N2C 1_555 1_555
C4L O1L 1_555 1_555
C4L O2L 1_555 1_555
C4D O1D 1_555 1_555
C4D O2D 1_555 1_555
C4C O1C 1_555 1_555
C4C O2C 1_555 1_555
C5L O4L 1_555 1_555
C5D O4D 1_555 1_555
C5C O4C 1_555 1_555
C6D N3D 1_555 1_555
C6D N4D 1_555 1_555
C6C N3C 1_555 1_555
C6C N4C 1_555 1_555
C7D N4D 1_555 1_555
C7C N4C 1_555 1_555
C7E N4E 1_555 1_555
C8D N3D 1_555 1_555
C8C N3C 1_555 1_555
C8E N3E 1_555 1_555
C9D O7D 1_555 1_555
C9D O8D 1_555 1_555
C9C O7C 1_555 1_555
C9C O8C 1_555 1_555
C9E O7E 1_555 1_555
C9E O8E 1_555 1_555
C10D O6D 1_555 1_555
C10C O6C 1_555 1_555
C10E O6E 1_555 1_555

#END
