
#######################################################################
#
#                 Cambridge Crystallographic Data Centre
#                                CCDC 
#
#######################################################################
#
# If this CIF has been generated from an entry in the Cambridge 
# Structural Database, then it will include bibliographic, chemical, 
# crystal, experimental, refinement or atomic coordinate data resulting 
# from the CCDC's data processing and validation procedures.
#
#######################################################################

data_RASZAO
_symmetry_cell_setting           orthorhombic
_symmetry_space_group_name_H-M   'P n a 21'
_symmetry_Int_Tables_number      33
_space_group_name_Hall           'P 2c -2n'
loop_
_symmetry_equiv_pos_site_id
_symmetry_equiv_pos_as_xyz
1 x,y,z
2 -x,-y,1/2+z
3 1/2-x,1/2+y,1/2+z
4 1/2+x,1/2-y,z
_cell_length_a                   15.7313(7)
_cell_length_b                   10.8707(5)
_cell_length_c                   8.8217(4)
_cell_angle_alpha                90
_cell_angle_beta                 90
_cell_angle_gamma                90
_cell_volume                     1508.6
loop_
_atom_site_label
_atom_site_type_symbol
_atom_site_fract_x
_atom_site_fract_y
_atom_site_fract_z
Cu1 Cu 0.012875(11) 0.355370(16) 1.11519(4)
S1 S 0.26822(3) 0.59627(4) 0.83982(5)
O1 O 0.10176(7) 0.48335(11) 1.13842(15)
O2 O 0.12021(8) 0.43272(11) 0.89569(15)
O3 O 0.46218(8) 0.81735(11) 0.89642(15)
O4 O 0.40674(7) 0.73082(11) 0.69038(15)
N1 N -0.07878(8) 0.47748(12) 1.08933(16)
H1 H -0.1015 0.4969 1.1824
H2 H -0.0568 0.5483 1.0477
N2 N -0.06723(9) 0.23375(13) 1.01048(17)
C1 C -0.14621(11) 0.42834(15) 0.9898(2)
H3 H -0.1323 0.4457 0.8825
H4 H -0.2012 0.4682 1.0139
C2 C -0.15284(11) 0.29004(15) 1.0148(2)
H5 H -0.1797 0.2735 1.1141
H6 H -0.1889 0.2531 0.9349
C3 C -0.06936(12) 0.10655(15) 1.0762(2)
H7 H -0.0118 0.0703 1.0688
H8 H -0.1082 0.0552 1.0145
C4 C -0.09795(13) 0.10185(18) 1.2394(2)
H9 H -0.0689 0.1664 1.2972
H10 H -0.0840 0.0213 1.2825
H11 H -0.1595 0.1149 1.2445
C5 C -0.03037(11) 0.23127(16) 0.8541(2)
H12 H 0.0291 0.2021 0.8618
H13 H -0.0285 0.3169 0.8159
C6 C -0.07571(13) 0.15244(18) 0.7358(2)
H14 H -0.0729 0.0657 0.7659
H15 H -0.0480 0.1631 0.6371
H16 H -0.1353 0.1779 0.7285
C7 C 0.14086(11) 0.48975(16) 1.0126(2)
C8 C 0.21709(11) 0.57171(15) 1.0084(2)
C9 C 0.25523(10) 0.63377(14) 1.1245(3)
H17 H 0.2358 0.6310 1.2264
C10 C 0.32677(10) 0.70260(15) 1.0771(2)
H18 H 0.3609 0.7504 1.1435
C11 C 0.34110(10) 0.69241(15) 0.9248(2)
C12 C 0.40824(10) 0.75153(14) 0.8330(2)
Cu1B Cu 0.487125(11) 0.855370(16) 0.61519(4)
O3B O 0.03782(8) 0.31735(11) 1.39642(15)
O4B O 0.09326(7) 0.23082(11) 1.19038(15)
loop_
_geom_bond_atom_site_label_1
_geom_bond_atom_site_label_2
_geom_bond_site_symmetry_1
_geom_bond_site_symmetry_2
Cu1 O1 1_555 1_555
S1 C8 1_555 1_555
O1 C7 1_555 1_555
O2 Cu1 1_555 1_555
O3 C12 1_555 1_555
O4 C12 1_555 1_555
N1 Cu1 1_555 1_555
H1 N1 1_555 1_555
H2 N1 1_555 1_555
N2 Cu1 1_555 1_555
C1 N1 1_555 1_555
H3 C1 1_555 1_555
H4 C1 1_555 1_555
C2 N2 1_555 1_555
H5 C2 1_555 1_555
H6 C2 1_555 1_555
C3 N2 1_555 1_555
H7 C3 1_555 1_555
H8 C3 1_555 1_555
C4 C3 1_555 1_555
H9 C4 1_555 1_555
H10 C4 1_555 1_555
H11 C4 1_555 1_555
C5 N2 1_555 1_555
H12 C5 1_555 1_555
H13 C5 1_555 1_555
C6 C5 1_555 1_555
H14 C6 1_555 1_555
H15 C6 1_555 1_555
H16 C6 1_555 1_555
C7 O2 1_555 1_555
C8 C7 1_555 1_555
C9 C8 1_555 1_555
H17 C9 1_555 1_555
C10 C9 1_555 1_555
H18 C10 1_555 1_555
C11 S1 1_555 1_555
C12 C11 1_555 1_555
Cu1B O3 1_555 1_555
O3B Cu1 1_555 1_555
O4B Cu1 1_555 1_555
O4 Cu1B 1_555 1_555
C1 C2 1_555 1_555
C10 C11 1_555 1_555

#END
