
#######################################################################
#
#                 Cambridge Crystallographic Data Centre
#                                CCDC 
#
#######################################################################
#
# If this CIF has been generated from an entry in the Cambridge 
# Structural Database, then it will include bibliographic, chemical, 
# crystal, experimental, refinement or atomic coordinate data resulting 
# from the CCDC's data processing and validation procedures.
#
#######################################################################

data_RASZES
_symmetry_cell_setting           orthorhombic
_symmetry_space_group_name_H-M   'P 21 21 21'
_symmetry_Int_Tables_number      19
_space_group_name_Hall           'P 2ac 2ab'
loop_
_symmetry_equiv_pos_site_id
_symmetry_equiv_pos_as_xyz
1 x,y,z
2 1/2+x,1/2-y,-z
3 -x,1/2+y,1/2-z
4 1/2-x,-y,1/2+z
_cell_length_a                   7.849(3)
_cell_length_b                   9.782(3)
_cell_length_c                   17.355(6)
_cell_angle_alpha                90
_cell_angle_beta                 90
_cell_angle_gamma                90
_cell_volume                     1332.5
loop_
_atom_site_label
_atom_site_type_symbol
_atom_site_fract_x
_atom_site_fract_y
_atom_site_fract_z
Cu1 Cu 0.35077(4) 0.01235(3) -0.001113(16)
N1 N 0.1680(3) -0.0643(3) 0.06840(13)
H1 H 0.1841 -0.1584 0.0694
N2 N 0.1636(3) 0.0197(3) -0.08006(12)
H2 H 0.1218 0.1085 -0.0773
S1 S 0.75448(10) 0.14053(9) 0.25763(4)
O1 O 0.5219(3) -0.0106(2) 0.07936(10)
O2 O 0.5354(3) 0.2039(3) 0.12351(12)
O3 O 0.9764(3) -0.0644(2) 0.42212(11)
O4 O 0.9537(3) 0.1578(2) 0.40337(12)
C1 C 0.5697(4) 0.0810(4) 0.12603(17)
C2 C 0.6704(4) 0.0298(3) 0.19230(14)
C3 C 0.7000(4) -0.1020(3) 0.21340(16)
H3 H 0.6627 -0.1786 0.1843
C4 C 0.7907(4) -0.1132(3) 0.28203(16)
H4 H 0.8220 -0.1981 0.3045
C5 C 0.8297(4) 0.0100(3) 0.31345(14)
C6 C 0.9247(4) 0.0386(4) 0.38495(16)
C7 C 0.0026(4) -0.0409(4) 0.03173(18)
H5 H -0.0351 0.0544 0.0405
H6 H -0.0840 -0.1034 0.0537
C8 C 0.0231(5) -0.0670(4) -0.05209(18)
H7 H 0.0496 -0.1646 -0.0612
H8 H -0.0836 -0.0443 -0.0797
C9 C 0.1965(4) -0.0035(4) -0.16214(15)
H9 H 0.2888 0.0566 -0.1793
H10 H 0.0931 0.0164 -0.1917
H11 H 0.2294 -0.0990 -0.1702
C10 C 0.1668(5) -0.0188(4) 0.14914(16)
H12 H 0.2786 -0.0361 0.1723
H13 H 0.0793 -0.0694 0.1776
H14 H 0.1416 0.0792 0.1513
O5 O 0.2825(3) 0.2467(2) 0.02608(12)
H15 H 0.2645 0.2896 -0.0171
H16 H 0.1908 0.2498 0.0543
Cu1C Cu 1.14923(4) -0.01235(3) 0.498887(16)
O3C O 0.5236(3) 0.0644(2) -0.07788(11)
loop_
_geom_bond_atom_site_label_1
_geom_bond_atom_site_label_2
_geom_bond_site_symmetry_1
_geom_bond_site_symmetry_2
Cu1 N1 1_555 1_555
N1 H1 1_555 1_555
N2 Cu1 1_555 1_555
H2 N2 1_555 1_555
S1 C2 1_555 1_555
O1 Cu1 1_555 1_555
O2 C1 1_555 1_555
O3 C6 1_555 1_555
O4 C6 1_555 1_555
C1 O1 1_555 1_555
C2 C1 1_555 1_555
C3 C2 1_555 1_555
H3 C3 1_555 1_555
C4 C3 1_555 1_555
H4 C4 1_555 1_555
C5 S1 1_555 1_555
C6 C5 1_555 1_555
C7 N1 1_555 1_555
H5 C7 1_555 1_555
H6 C7 1_555 1_555
C8 N2 1_555 1_555
H7 C8 1_555 1_555
H8 C8 1_555 1_555
C9 N2 1_555 1_555
H9 C9 1_555 1_555
H10 C9 1_555 1_555
H11 C9 1_555 1_555
C10 N1 1_555 1_555
H12 C10 1_555 1_555
H13 C10 1_555 1_555
H14 C10 1_555 1_555
O5 Cu1 1_555 1_555
H15 O5 1_555 1_555
H16 O5 1_555 1_555
Cu1C O3 1_555 1_555
O3C Cu1 1_555 1_555
C4 C5 1_555 1_555
C7 C8 1_555 1_555

#END
