
#######################################################################
#
#                 Cambridge Crystallographic Data Centre
#                                CCDC 
#
#######################################################################
#
# If this CIF has been generated from an entry in the Cambridge 
# Structural Database, then it will include bibliographic, chemical, 
# crystal, experimental, refinement or atomic coordinate data resulting 
# from the CCDC's data processing and validation procedures.
#
#######################################################################

data_RATDAS01
_symmetry_cell_setting           monoclinic
_symmetry_space_group_name_H-M   'P 21'
_symmetry_Int_Tables_number      4
_space_group_name_Hall           'P 2yb'
loop_
_symmetry_equiv_pos_site_id
_symmetry_equiv_pos_as_xyz
1 x,y,z
2 -x,1/2+y,-z
_cell_length_a                   7.6418(11)
_cell_length_b                   13.6087(16)
_cell_length_c                   12.5559(19)
_cell_angle_alpha                90
_cell_angle_beta                 101.433(12)
_cell_angle_gamma                90
_cell_volume                     1279.84
loop_
_atom_site_label
_atom_site_type_symbol
_atom_site_fract_x
_atom_site_fract_y
_atom_site_fract_z
Zn1 Zn 0.50012(14) 0.48855(8) -0.10154(9)
Zn2 Zn 0.19692(15) 0.38249(8) 0.00038(9)
Zn3 Zn 0.90839(14) 0.50456(8) 0.07440(8)
Zn4 Zn 0.72824(14) 0.73775(8) -0.42615(8)
Zn5 Zn 0.36705(14) 0.62428(8) -0.52246(9)
Zn6 Zn -0.01328(14) 0.25403(8) -0.41546(8)
O1 O 0.2725(9) 0.4019(5) -0.1465(5)
C1 C 0.2283(14) 0.3591(8) -0.2381(7)
H1 H 0.3092 0.3610 -0.2845
O2 O 0.0871(10) 0.3155(6) -0.2696(6)
O3 O 0.4704(10) 0.4203(5) 0.0473(6)
C2 C 0.5791(14) 0.4114(8) 0.1377(8)
H2 H 0.5347 0.3830 0.1943
O4 O 0.7367(10) 0.4365(6) 0.1579(6)
O5 O 0.4813(10) 0.5373(6) -0.2619(6)
C3 C 0.6015(14) 0.5762(8) -0.2979(8)
H3 H 0.7147 0.5781 -0.2538
O6 O 0.5813(9) 0.6144(5) -0.3922(5)
O7 O 0.3290(10) 0.6057(6) -0.0847(6)
C4 C 0.1927(14) 0.6081(7) -0.0430(10)
H4 H 0.1298 0.6669 -0.0472
O8 O 0.1349(10) 0.5378(5) 0.0037(6)
O9 O 0.7141(9) 0.5799(5) -0.0294(6)
C5 C 0.6985(14) 0.6742(8) -0.0406(8)
H5 H 0.5952 0.6990 -0.0842
O10 O 0.8138(9) 0.7333(6) 0.0034(5)
O11 O 0.1253(9) 0.4012(5) 0.1499(5)
C6 C 0.1487(13) 0.3601(8) 0.2418(8)
H6 H 0.0607 0.3684 0.2827
O12 O 0.2831(9) 0.3083(6) 0.2825(6)
O13 O 0.9150(9) 0.3920(6) -0.0424(6)
C7 C 0.8059(13) 0.3501(8) -0.1150(8)
H7 H 0.8485 0.2993 -0.1525
O14 O 0.6438(10) 0.3707(6) -0.1414(6)
O15 O 0.7790(9) 0.6712(5) -0.5703(5)
C8 C 0.6844(13) 0.6121(8) -0.6352(8)
H8 H 0.7312 0.5889 -0.6935
O16 O 0.5337(10) 0.5826(6) -0.6270(6)
O17 O 0.8733(9) 0.8455(5) -0.4921(6)
C9 C 0.8502(14) 0.9382(7) -0.5015(8)
H9 H 0.9292 0.9749 -0.5331
O18 O 0.7258(10) 0.9817(5) -0.4701(6)
O19 O 0.4680(9) 0.7696(5) -0.5092(6)
C10 C 0.3785(14) 0.8495(8) -0.5214(10)
H10 H 0.4413 0.9073 -0.5014
O20 O 0.2152(10) 0.8573(5) -0.5576(7)
O21 O 1.1534(9) 0.6759(5) -0.4500(5)
C11 C 1.1122(13) 0.6553(7) -0.3589(8)
H11 H 1.1974 0.6244 -0.3063
O22 O 0.9621(10) 0.6744(6) -0.3364(6)
O23 O 1.1680(9) 0.6597(5) 0.3422(5)
C12 C 1.1288(13) 0.6080(7) 0.2550(8)
H12 H 1.2214 0.5759 0.2312
O24 O 0.9757(10) 0.5982(5) 0.2006(5)
Zn2A Zn 0.80308(15) 0.88249(8) -0.00038(9)
Zn2_2 Zn 1.19692(15) 0.38249(8) 0.00038(9)
Zn3_2 Zn -0.09161(14) 0.50456(8) 0.07440(8)
Zn4A Zn 0.27176(14) 0.23775(8) 0.42615(8)
Zn5A Zn 0.63295(14) 1.12428(8) -0.47754(9)
Zn5_2 Zn 1.36705(14) 0.62428(8) -0.52246(9)
Zn5_3 Zn 1.36705(14) 0.62428(8) 0.47754(9)
Zn6A Zn 1.01328(14) 0.75403(8) -0.58454(8)
Zn6A_2 Zn 0.01328(14) 0.75403(8) -0.58454(8)
Zn6A_3 Zn 1.01328(14) 0.75403(8) 0.41546(8)
O8_2 O 1.1349(10) 0.5378(5) 0.0037(6)
O10A O 0.1862(9) 0.2333(6) -0.0034(5)
O11_2 O 1.1253(9) 0.4012(5) 0.1499(5)
O12A O 0.7169(9) 0.8083(6) -0.2825(6)
O13_2 O -0.0850(9) 0.3920(6) -0.0424(6)
O15A O 0.2210(9) 0.1712(5) -0.4297(5)
O17A O 0.1267(9) 0.3455(5) -0.5079(6)
O18A O 0.2742(10) 0.4817(5) -0.5299(6)
O20A O -0.2152(10) 0.3573(5) -0.4424(7)
O21_2 O 0.1534(9) 0.6759(5) -0.4500(5)
O21A O -0.1534(9) 0.1759(5) -0.5500(5)
O23_2 O 0.1680(9) 0.6597(5) -0.6578(5)
O23A O -0.1680(9) 0.1597(5) -0.3422(5)
loop_
_geom_bond_atom_site_label_1
_geom_bond_atom_site_label_2
_geom_bond_site_symmetry_1
_geom_bond_site_symmetry_2
Zn1 O1 1_555 1_555
Zn2 O1 1_555 1_555
Zn3 O4 1_555 1_555
Zn4 O6 1_555 1_555
Zn5 O6 1_555 1_555
Zn6 O2 1_555 1_555
O1 C1 1_555 1_555
C1 H1 1_555 1_555
O2 C1 1_555 1_555
O3 Zn1 1_555 1_555
C2 O3 1_555 1_555
H2 C2 1_555 1_555
O4 C2 1_555 1_555
O5 Zn1 1_555 1_555
C3 O5 1_555 1_555
H3 C3 1_555 1_555
O6 C3 1_555 1_555
O7 Zn1 1_555 1_555
C4 O7 1_555 1_555
H4 C4 1_555 1_555
O8 Zn2 1_555 1_555
O9 Zn1 1_555 1_555
C5 O9 1_555 1_555
H5 C5 1_555 1_555
O10 C5 1_555 1_555
O11 Zn2 1_555 1_555
C6 O11 1_555 1_555
H6 C6 1_555 1_555
O12 C6 1_555 1_555
O13 Zn3 1_555 1_555
C7 O13 1_555 1_555
H7 C7 1_555 1_555
O14 Zn1 1_555 1_555
O15 Zn4 1_555 1_555
C8 O15 1_555 1_555
H8 C8 1_555 1_555
O16 Zn5 1_555 1_555
O17 Zn4 1_555 1_555
C9 O17 1_555 1_555
H9 C9 1_555 1_555
O18 C9 1_555 1_555
O19 Zn4 1_555 1_555
C10 O19 1_555 1_555
H10 C10 1_555 1_555
O20 C10 1_555 1_555
O21 C11 1_555 1_555
C11 H11 1_555 1_555
O22 Zn4 1_555 1_555
O23 C12 1_555 1_555
C12 H12 1_555 1_555
O24 Zn3 1_555 1_555
Zn2A O10 1_555 1_555
Zn2_2 O13 1_555 1_555
Zn3_2 O8 1_555 1_555
Zn4A O12 1_555 1_555
Zn5A O18 1_555 1_555
Zn5_2 O21 1_555 1_555
Zn5_3 O23 1_555 1_555
Zn6A O15 1_555 1_555
Zn6A_2 O20 1_555 1_555
Zn6A_3 O23 1_555 1_555
O8_2 Zn3 1_555 1_555
O10A Zn2 1_555 1_555
O11_2 Zn3 1_555 1_555
O12A Zn4 1_555 1_555
O13_2 Zn2 1_555 1_555
O15A Zn6 1_555 1_555
O17A Zn6 1_555 1_555
O18A Zn5 1_555 1_555
O20A Zn6 1_555 1_555
O21_2 Zn5 1_555 1_555
O21A Zn6 1_555 1_555
O23_2 Zn5 1_555 1_555
O23A Zn6 1_555 1_555
Zn2 O3 1_555 1_555
Zn3 O9 1_555 1_555
Zn5 O19 1_555 1_555
C4 O8 1_555 1_555
O11 Zn3_2 1_555 1_555
C7 O14 1_555 1_555
C8 O16 1_555 1_555
O17 Zn6A 1_555 1_555
O21 Zn6A 1_555 1_555
C11 O22 1_555 1_555
C12 O24 1_555 1_555
Zn2_2 O8_2 1_555 1_555
Zn2_2 O11_2 1_555 1_555
Zn3_2 O13_2 1_555 1_555
Zn6A_2 O21_2 1_555 1_555
Zn6A_2 O23_2 1_555 1_555

#END
