
#######################################################################
#
#                 Cambridge Crystallographic Data Centre
#                                CCDC 
#
#######################################################################
#
# If this CIF has been generated from an entry in the Cambridge 
# Structural Database, then it will include bibliographic, chemical, 
# crystal, experimental, refinement or atomic coordinate data resulting 
# from the CCDC's data processing and validation procedures.
#
#######################################################################

data_RATMUW
_symmetry_cell_setting           monoclinic
_symmetry_space_group_name_H-M   'P 21/c'
_symmetry_Int_Tables_number      14
_space_group_name_Hall           '-P 2ybc'
loop_
_symmetry_equiv_pos_site_id
_symmetry_equiv_pos_as_xyz
1 x,y,z
2 -x,1/2+y,1/2-z
3 -x,-y,-z
4 x,1/2-y,1/2+z
_cell_length_a                   10.429(4)
_cell_length_b                   9.147(2)
_cell_length_c                   16.235(5)
_cell_angle_alpha                90
_cell_angle_beta                 127.659(15)
_cell_angle_gamma                90
_cell_volume                     1226.06
loop_
_atom_site_label
_atom_site_type_symbol
_atom_site_fract_x
_atom_site_fract_y
_atom_site_fract_z
Cu1 Cu 1.0000 0.5000 0.5000
Cl1 Cl 1.21844(6) 0.50981(5) 0.80059(3)
O1 O 1.19394(17) 0.54214(18) 0.70487(10)
O2 O 1.12518(18) 0.6099(2) 0.81279(13)
O3 O 1.3863(2) 0.5234(2) 0.88643(12)
O4 O 1.1631(3) 0.36377(19) 0.79516(15)
N1 N 0.47549(18) 0.35442(18) 0.68417(13)
N2 N 0.69494(16) 0.40004(15) 0.57460(10)
N3 N 0.82638(17) 0.43981(16) 0.51029(11)
N4 N 0.79732(17) 0.59669(15) 0.88776(11)
N5 N 0.93400(18) 0.78896(16) 0.98329(11)
C1 C 0.5193(2) 0.3425(2) 0.62268(14)
H1 H 0.4547 0.2845 0.5616
C2 C 0.65537(19) 0.41140(18) 0.64419(13)
C3 C 0.7533(2) 0.49253(17) 0.73483(14)
H2 H 0.8504 0.5365 0.7536
C4 C 0.7048(2) 0.50731(17) 0.79707(14)
C5 C 0.5644(2) 0.4392(2) 0.76880(14)
H3 H 0.5303 0.4532 0.8107
C6 C 0.8140(2) 0.47590(19) 0.58345(14)
H4 H 0.8804 0.5465 0.6360
C7 C 0.7077(2) 0.33622(19) 0.44979(14)
H5 H 0.6867 0.2904 0.3902
C8 C 0.6257(2) 0.3099(2) 0.48827(13)
H6 H 0.5387 0.2434 0.4617
C9 C 0.8669(2) 0.72432(19) 0.89309(13)
H7 H 0.8674 0.7625 0.8389
C10 C 0.9071(2) 0.6979(2) 1.03929(14)
H8 H 0.9428 0.7157 1.1080
C11 C 0.8223(2) 0.5797(2) 0.98120(14)
H9 H 0.7868 0.5006 1.0006
Cu1A Cu 1.0000 1.0000 1.0000
Cu1A_2 Cu 1.0000 0.0000 0.0000
Cl1B Cl 0.78156(6) 0.49019(5) 0.19941(3)
O1B O 0.80606(17) 0.45786(18) 0.29513(10)
O2B O 0.87482(18) 0.3901(2) 0.18721(13)
O3B O 0.6137(2) 0.4766(2) 0.11357(12)
O4B O 0.8369(3) 0.63623(19) 0.20484(15)
N1B N 1.52451(18) 0.64558(18) 0.31583(13)
N2B N 1.30506(16) 0.59996(15) 0.42540(10)
N3B N 1.17362(17) 0.56019(16) 0.48971(11)
N4B N 1.20268(17) 0.40331(15) 0.11224(11)
N5B N 1.06600(18) 0.21104(16) 0.01671(11)
N5A N 1.06600(18) 0.28896(16) 0.51671(11)
N5C N 0.93400(18) 0.71104(16) 0.48329(11)
C1B C 1.4807(2) 0.6575(2) 0.37732(14)
H1B H 1.5453 0.7155 0.4384
C2B C 1.34463(19) 0.58860(18) 0.35581(13)
C3B C 1.2467(2) 0.50747(17) 0.26517(14)
H2B H 1.1496 0.4635 0.2464
C4B C 1.2952(2) 0.49269(17) 0.20293(14)
C5B C 1.4356(2) 0.5608(2) 0.23120(14)
H3B H 1.4697 0.5468 0.1893
C6B C 1.1860(2) 0.52410(19) 0.41655(14)
H4B H 1.1196 0.4535 0.3640
C7B C 1.2923(2) 0.66378(19) 0.55021(14)
H5B H 1.3133 0.7096 0.6098
C8B C 1.3743(2) 0.6901(2) 0.51173(13)
H6B H 1.4613 0.7566 0.5383
C9B C 1.1331(2) 0.27568(19) 0.10691(13)
H7B H 1.1326 0.2375 0.1611
C10B C 1.0929(2) 0.3021(2) -0.03929(14)
H8B H 1.0572 0.2843 -0.1080
C11B C 1.1777(2) 0.4203(2) 0.01880(14)
H9B H 1.2132 0.4994 -0.0006
loop_
_geom_bond_atom_site_label_1
_geom_bond_atom_site_label_2
_geom_bond_site_symmetry_1
_geom_bond_site_symmetry_2
Cu1 O1 1_555 1_555
Cl1 O1 1_555 1_555
O2 Cl1 1_555 1_555
O3 Cl1 1_555 1_555
O4 Cl1 1_555 1_555
N1 C1 1_555 1_555
N2 C2 1_555 1_555
N3 Cu1 1_555 1_555
N4 C4 1_555 1_555
N5 C9 1_555 1_555
C1 H1 1_555 1_555
C2 C1 1_555 1_555
C3 C2 1_555 1_555
H2 C3 1_555 1_555
C4 C3 1_555 1_555
C5 N1 1_555 1_555
H3 C5 1_555 1_555
C6 N2 1_555 1_555
H4 C6 1_555 1_555
C7 N3 1_555 1_555
H5 C7 1_555 1_555
C8 N2 1_555 1_555
H6 C8 1_555 1_555
C9 N4 1_555 1_555
H7 C9 1_555 1_555
C10 N5 1_555 1_555
H8 C10 1_555 1_555
C11 N4 1_555 1_555
H9 C11 1_555 1_555
Cu1A N5 1_555 1_555
Cu1A_2 N5B 1_555 1_555
Cl1B O1B 1_555 1_555
O1B Cu1 1_555 1_555
O2B Cl1B 1_555 1_555
O3B Cl1B 1_555 1_555
O4B Cl1B 1_555 1_555
N1B C1B 1_555 1_555
N2B C2B 1_555 1_555
N3B Cu1 1_555 1_555
N4B C4B 1_555 1_555
N5B C9B 1_555 1_555
N5A Cu1 1_555 1_555
N5C Cu1 1_555 1_555
C1B H1B 1_555 1_555
C2B C1B 1_555 1_555
C3B C2B 1_555 1_555
H2B C3B 1_555 1_555
C4B C3B 1_555 1_555
C5B N1B 1_555 1_555
H3B C5B 1_555 1_555
C6B N2B 1_555 1_555
H4B C6B 1_555 1_555
C7B N3B 1_555 1_555
H5B C7B 1_555 1_555
C8B N2B 1_555 1_555
H6B C8B 1_555 1_555
C9B N4B 1_555 1_555
H7B C9B 1_555 1_555
C10B N5B 1_555 1_555
H8B C10B 1_555 1_555
C11B N4B 1_555 1_555
H9B C11B 1_555 1_555
N3 C6 1_555 1_555
C4 C5 1_555 1_555
C7 C8 1_555 1_555
C10 C11 1_555 1_555
N3B C6B 1_555 1_555
C4B C5B 1_555 1_555
C7B C8B 1_555 1_555
C10B C11B 1_555 1_555

#END
