
#######################################################################
#
#                 Cambridge Crystallographic Data Centre
#                                CCDC 
#
#######################################################################
#
# If this CIF has been generated from an entry in the Cambridge 
# Structural Database, then it will include bibliographic, chemical, 
# crystal, experimental, refinement or atomic coordinate data resulting 
# from the CCDC's data processing and validation procedures.
#
#######################################################################

data_RATMOQ
_symmetry_cell_setting           triclinic
_symmetry_space_group_name_H-M   'P -1'
_symmetry_Int_Tables_number      2
_space_group_name_Hall           '-P 1'
loop_
_symmetry_equiv_pos_site_id
_symmetry_equiv_pos_as_xyz
1 x,y,z
2 -x,-y,-z
_cell_length_a                   8.119(2)
_cell_length_b                   9.100(3)
_cell_length_c                   10.427(3)
_cell_angle_alpha                114.069(4)
_cell_angle_beta                 108.807(5)
_cell_angle_gamma                92.394(5)
_cell_volume                     652.328
loop_
_atom_site_label
_atom_site_type_symbol
_atom_site_fract_x
_atom_site_fract_y
_atom_site_fract_z
Cu1 Cu 1.0000 0.0000 1.0000
C1 C 1.7642(6) 0.4889(6) 1.4911(6)
H1 H 1.7571 0.5397 1.4286
C2 C 1.6343(6) 0.3555(5) 1.4433(5)
C3 C 1.6413(6) 0.2809(6) 1.5357(5)
H2 H 1.5554 0.1904 1.5059
C4 C 1.7799(6) 0.3451(6) 1.6739(5)
C5 C 1.9061(6) 0.4774(6) 1.7133(6)
H3 H 1.9995 0.5188 1.8066
C6 C 1.3383(6) 0.1949(6) 1.2537(5)
H4 H 1.3067 0.1550 1.3133
C7 C 1.3320(6) 0.2437(6) 1.0683(6)
H5 H 1.2936 0.2425 0.9736
C8 C 1.4896(6) 0.3290(6) 1.1817(6)
H6 H 1.5777 0.3960 1.1799
C9 C 1.9143(6) 0.1961(6) 1.8208(6)
H7 H 2.0089 0.1764 1.7884
C10 C 1.7330(7) 0.1990(6) 1.9307(6)
H8 H 1.6791 0.1809 1.9907
C11 C 1.6737(7) 0.2786(7) 1.8472(6)
H9 H 1.5734 0.3253 1.8385
N1 N 1.9001(5) 0.5482(5) 1.6242(5)
N3 N 1.4929(5) 0.2964(4) 1.3000(4)
N4 N 1.2371(5) 0.1591(5) 1.1131(4)
N5 N 1.7906(5) 0.2776(5) 1.7770(4)
N6 N 1.8840(5) 0.1485(5) 1.9149(4)
O1 O 0.8969(5) 0.1262(4) 1.2090(4)
H10 H 0.855(7) 0.085(6) 1.254(5)
H11 H 0.960(6) 0.220(3) 1.272(4)
Cu1_2 Cu 2.0000 0.0000 2.0000
Cu1_3 Cu 0.0000 0.0000 0.0000
C1A C 0.2358(6) -0.4889(6) 0.5089(6)
H1A H 0.2429 -0.5397 0.5714
C2A C 0.3657(6) -0.3555(5) 0.5567(5)
C3A C 0.3587(6) -0.2809(6) 0.4643(5)
H2A H 0.4446 -0.1904 0.4941
C4A C 0.2201(6) -0.3451(6) 0.3261(5)
C5A C 0.0939(6) -0.4774(6) 0.2867(6)
H3A H 0.0005 -0.5188 0.1934
C6A C 0.6617(6) -0.1949(6) 0.7463(5)
H4A H 0.6933 -0.1550 0.6867
C7A C 0.6680(6) -0.2437(6) 0.9317(6)
H5A H 0.7064 -0.2425 1.0264
C8A C 0.5104(6) -0.3290(6) 0.8183(6)
H6A H 0.4223 -0.3960 0.8201
C9A C 0.0857(6) -0.1961(6) 0.1792(6)
H7A H -0.0089 -0.1764 0.2116
C10A C 0.2670(7) -0.1990(6) 0.0693(6)
H8A H 0.3209 -0.1809 0.0093
C11A C 0.3263(7) -0.2786(7) 0.1528(6)
H9A H 0.4266 -0.3253 0.1615
N1A N 0.0999(5) -0.5482(5) 0.3758(5)
N3A N 0.5071(5) -0.2964(4) 0.7000(4)
N4A N 0.7629(5) -0.1591(5) 0.8869(4)
N5A N 0.2094(5) -0.2776(5) 0.2230(4)
N6A N 0.1160(5) -0.1485(5) 0.0851(4)
N6_2 N 0.8840(5) 0.1485(5) 0.9149(4)
N6A_2 N 1.1160(5) -0.1485(5) 1.0851(4)
O1A O 1.1031(5) -0.1262(4) 0.7910(4)
H10A H 1.145(7) -0.085(6) 0.746(5)
H11A H 1.040(6) -0.220(3) 0.728(4)
N2 N 0.7597(6) 0.8525(7) 0.3762(6)
O2 O 0.7273(7) 0.8698(7) 0.4859(6)
O3 O 0.7858(10) 0.9680(7) 0.3521(8)
O4 O 0.7599(6) 0.7154(6) 0.2814(6)
loop_
_geom_bond_atom_site_label_1
_geom_bond_atom_site_label_2
_geom_bond_site_symmetry_1
_geom_bond_site_symmetry_2
Cu1 N4 1_555 1_555
C1 H1 1_555 1_555
C2 C1 1_555 1_555
C3 C2 1_555 1_555
H2 C3 1_555 1_555
C4 C3 1_555 1_555
C5 C4 1_555 1_555
H3 C5 1_555 1_555
C6 H4 1_555 1_555
C7 H5 1_555 1_555
C8 C7 1_555 1_555
H6 C8 1_555 1_555
C9 H7 1_555 1_555
C10 H8 1_555 1_555
C11 C10 1_555 1_555
H9 C11 1_555 1_555
N1 C1 1_555 1_555
N2 O2 1_555 1_555
N3 C2 1_555 1_555
N4 C6 1_555 1_555
N5 C4 1_555 1_555
N6 C9 1_555 1_555
O1 Cu1 1_555 1_555
H10 O1 1_555 1_555
H11 O1 1_555 1_555
O3 N2 1_555 1_555
O4 N2 1_555 1_555
Cu1_2 N6 1_555 1_555
Cu1_3 N6A 1_555 1_555
C1A H1A 1_555 1_555
C2A C1A 1_555 1_555
C3A C2A 1_555 1_555
H2A C3A 1_555 1_555
C4A C3A 1_555 1_555
C5A C4A 1_555 1_555
H3A C5A 1_555 1_555
C6A H4A 1_555 1_555
C7A H5A 1_555 1_555
C8A C7A 1_555 1_555
H6A C8A 1_555 1_555
C9A H7A 1_555 1_555
C10A H8A 1_555 1_555
C11A C10A 1_555 1_555
H9A C11A 1_555 1_555
N1A C1A 1_555 1_555
N3A C2A 1_555 1_555
N4A Cu1 1_555 1_555
N5A C4A 1_555 1_555
N6A C9A 1_555 1_555
N6_2 Cu1 1_555 1_555
N6A_2 Cu1 1_555 1_555
O1A Cu1 1_555 1_555
H10A O1A 1_555 1_555
H11A O1A 1_555 1_555
C5 N1 1_555 1_555
C6 N3 1_555 1_555
C7 N4 1_555 1_555
C8 N3 1_555 1_555
C9 N5 1_555 1_555
C10 N6 1_555 1_555
C11 N5 1_555 1_555
C5A N1A 1_555 1_555
C6A N3A 1_555 1_555
C6A N4A 1_555 1_555
C7A N4A 1_555 1_555
C8A N3A 1_555 1_555
C9A N5A 1_555 1_555
C10A N6A 1_555 1_555
C11A N5A 1_555 1_555

#END
