
#######################################################################
#
#                 Cambridge Crystallographic Data Centre
#                                CCDC 
#
#######################################################################
#
# If this CIF has been generated from an entry in the Cambridge 
# Structural Database, then it will include bibliographic, chemical, 
# crystal, experimental, refinement or atomic coordinate data resulting 
# from the CCDC's data processing and validation procedures.
#
#######################################################################

data_RATNIL
_symmetry_cell_setting           monoclinic
_symmetry_space_group_name_H-M   'P 21/c'
_symmetry_Int_Tables_number      14
_space_group_name_Hall           '-P 2ybc'
loop_
_symmetry_equiv_pos_site_id
_symmetry_equiv_pos_as_xyz
1 x,y,z
2 -x,1/2+y,1/2-z
3 -x,-y,-z
4 x,1/2-y,1/2+z
_cell_length_a                   12.6148(18)
_cell_length_b                   10.9249(19)
_cell_length_c                   32.348(5)
_cell_angle_alpha                90
_cell_angle_beta                 112.180(7)
_cell_angle_gamma                90
_cell_volume                     4128.17
loop_
_atom_site_label
_atom_site_type_symbol
_atom_site_fract_x
_atom_site_fract_y
_atom_site_fract_z
Cu1 Cu 1.0000 0.5000 0.5000
Cu2 Cu 0.31472(4) 0.91219(5) 0.318400(15)
S1 S 0.4248(8) 0.9998(13) 0.4339(4)
O1 O 0.3695(3) 0.9811(4) 0.38649(11)
O2 O 0.3712(15) 0.9005(16) 0.4612(4)
O5 O 0.5453(14) 0.9652(19) 0.4546(5)
O6 O 0.264(2) 1.065(3) 0.4278(11)
N1 N 0.4559(3) 0.8072(3) 0.32739(12)
N2 N 0.7275(3) 0.7026(4) 0.41240(11)
N3 N 0.8741(3) 0.6169(4) 0.46462(11)
N4 N 0.5648(3) 0.6546(4) 0.25090(12)
N5 N 0.6140(3) 0.5428(4) 0.20512(11)
N6 N 1.2291(3) 0.7639(4) 0.32755(11)
N7 N 0.9976(3) 0.5749(4) 0.25185(12)
N8 N 0.8374(3) 0.4968(3) 0.20501(12)
N9 N 1.1606(3) 0.6051(4) 0.41382(12)
N10 N 1.0985(3) 0.5488(4) 0.46595(12)
C1 C 0.5405(4) 0.7863(4) 0.36695(14)
H1 H 0.5334 0.8160 0.3934
C2 C 0.6384(3) 0.7220(4) 0.37008(13)
C3 C 0.6500(4) 0.6781(4) 0.33181(14)
H2 H 0.7168 0.6355 0.3331
C4 C 0.5598(4) 0.6991(4) 0.29166(14)
C5 C 0.4635(3) 0.7628(4) 0.29058(14)
H3 H 0.4017 0.7746 0.2628
C6 C 0.8035(4) 0.6099(5) 0.42289(14)
H4 H 0.8056 0.5477 0.4027
C7 C 0.8428(4) 0.7190(5) 0.48192(16)
H5 H 0.8795 0.7473 0.5117
C8 C 0.7518(4) 0.7734(5) 0.45024(16)
H6 H 0.7128 0.8451 0.4534
C9 C 0.6259(4) 0.5596(5) 0.24672(14)
H7 H 0.6723 0.5101 0.2709
C10 C 0.5423(5) 0.6333(6) 0.18152(17)
H8 H 0.5177 0.6451 0.1502
C11 C 0.5121(5) 0.7027(6) 0.20920(17)
H9 H 0.4633 0.7722 0.2014
C12 C 1.1532(4) 0.7134(4) 0.29033(14)
H10 H 1.1518 0.7389 0.2621
C13 C 1.0776(3) 0.6252(4) 0.29239(14)
C14 C 1.0792(4) 0.5848(5) 0.33326(14)
H11 H 1.0286 0.5225 0.3351
C15 C 1.1572(4) 0.6386(5) 0.37111(14)
C16 C 1.2321(3) 0.7278(4) 0.36753(13)
H12 H 1.2861 0.7635 0.3938
C17 C 0.8928(4) 0.5314(4) 0.24644(14)
H13 H 0.8634 0.5266 0.2695
C18 C 0.9108(5) 0.5152(6) 0.18303(16)
H14 H 0.8943 0.4960 0.1526
C19 C 1.0087(5) 0.5643(6) 0.21111(16)
H15 H 1.0731 0.5872 0.2044
C20 C 1.0702(4) 0.5668(5) 0.42325(15)
H16 H 0.9954 0.5547 0.4015
C21 C 1.2137(4) 0.5754(7) 0.48534(17)
H17 H 1.2589 0.5696 0.5163
C22 C 1.2525(4) 0.6110(8) 0.45378(17)
H18 H 1.3283 0.6354 0.4582
Cu2B Cu 1.68528(4) 0.08781(5) 0.681600(15)
Cu2A Cu 0.68528(4) 0.41219(5) 0.181600(15)
Cu2_2 Cu 1.31472(4) 0.91219(5) 0.318400(15)
Cu2C Cu 1.31472(4) 0.58781(5) 0.818400(15)
Cu2B_2 Cu 0.68528(4) 0.08781(5) 0.681600(15)
S1B S 1.5752(8) 0.0002(13) 0.5661(4)
O1B O 1.6305(3) 0.0189(4) 0.61351(11)
O2B O 1.6288(15) 0.0995(16) 0.5388(4)
O5B O 1.4547(14) 0.0348(19) 0.5454(5)
O6B O 1.736(2) -0.065(3) 0.5722(11)
N1B N 1.5441(3) 0.1928(3) 0.67261(12)
N2B N 1.2725(3) 0.2974(4) 0.58760(11)
N3B N 1.1259(3) 0.3831(4) 0.53538(11)
N4B N 1.4352(3) 0.3454(4) 0.74910(12)
N5B N 1.3860(3) 0.4572(4) 0.79488(11)
N5A N 0.3860(3) 1.0428(4) 0.29488(11)
N5C N 1.6140(3) -0.0428(4) 0.70512(11)
N6B N 0.7709(3) 0.2361(4) 0.67245(11)
N6_2 N 0.2291(3) 0.7639(4) 0.32755(11)
N6B_2 N 1.7709(3) 0.2361(4) 0.67245(11)
N7B N 1.0024(3) 0.4251(4) 0.74815(12)
N8B N 1.1626(3) 0.5032(3) 0.79499(12)
N8A N 0.1626(3) 0.9968(3) 0.29499(12)
N8C N 1.8374(3) 0.0032(3) 0.70501(12)
N9B N 0.8394(3) 0.3949(4) 0.58618(12)
N10B N 0.9015(3) 0.4512(4) 0.53405(12)
C1B C 1.4595(4) 0.2137(4) 0.63305(14)
H1B H 1.4666 0.1840 0.6066
C2B C 1.3616(3) 0.2780(4) 0.62992(13)
C3B C 1.3500(4) 0.3219(4) 0.66819(14)
H2B H 1.2832 0.3645 0.6669
C4B C 1.4402(4) 0.3009(4) 0.70834(14)
C5B C 1.5365(3) 0.2372(4) 0.70942(14)
H3B H 1.5983 0.2254 0.7372
C6B C 1.1965(4) 0.3901(5) 0.57711(14)
H4B H 1.1944 0.4523 0.5973
C7B C 1.1572(4) 0.2810(5) 0.51808(16)
H5B H 1.1205 0.2527 0.4883
C8B C 1.2482(4) 0.2266(5) 0.54976(16)
H6B H 1.2872 0.1549 0.5466
C9B C 1.3741(4) 0.4404(5) 0.75328(14)
H7B H 1.3277 0.4899 0.7291
C10B C 1.4577(5) 0.3667(6) 0.81848(17)
H8B H 1.4823 0.3549 0.8498
C11B C 1.4879(5) 0.2973(6) 0.79080(17)
H9B H 1.5367 0.2278 0.7986
C12B C 0.8468(4) 0.2866(4) 0.70967(14)
H10B H 0.8482 0.2611 0.7379
C13B C 0.9224(3) 0.3748(4) 0.70761(14)
C14B C 0.9208(4) 0.4152(5) 0.66674(14)
H11B H 0.9714 0.4775 0.6649
C15B C 0.8428(4) 0.3614(5) 0.62889(14)
C16B C 0.7679(3) 0.2722(4) 0.63247(13)
H12B H 0.7139 0.2365 0.6062
C17B C 1.1072(4) 0.4686(4) 0.75356(14)
H13B H 1.1366 0.4734 0.7305
C18B C 1.0892(5) 0.4848(6) 0.81697(16)
H14B H 1.1057 0.5040 0.8474
C19B C 0.9913(5) 0.4357(6) 0.78889(16)
H15B H 0.9269 0.4128 0.7956
C20B C 0.9298(4) 0.4332(5) 0.57675(15)
H16B H 1.0046 0.4453 0.5985
C21B C 0.7863(4) 0.4246(7) 0.51466(17)
H17B H 0.7411 0.4304 0.4837
C22B C 0.7475(4) 0.3890(8) 0.54622(17)
H18B H 0.6717 0.3646 0.5418
S3 S 0.8484(5) 0.3328(4) 0.32811(11)
O7 O 0.8486(4) 0.4697(4) 0.33922(13)
O8 O 0.7723(3) 0.3099(5) 0.28482(12)
O9 O 0.9605(7) 0.3278(9) 0.3249(4)
O11 O 0.8340(19) 0.250(2) 0.3595(7)
O13 O 0.9059(3) 0.3325(4) 0.44914(12)
O14 O 0.9196(5) 0.8277(6) 0.3710(2)
O15 O 0.1735(5) 0.2837(6) 0.2202(2)
O16 O 0.9105(7) 0.0917(7) 0.4886(3)
O17 O 0.2303(8) 0.5270(8) 0.1346(4)
O18 O 0.0949(9) 0.1822(13) 0.4118(3)
O20 O 0.1283(8) 0.9323(11) 0.4330(3)
O21 O 0.1596(9) 0.3227(8) 0.3020(3)
O22 O 0.3476(9) 0.4927(9) 0.3175(3)
O24 O 0.6442(8) 0.3403(12) 0.4006(4)
O25 O 0.3351(9) 0.4737(11) 0.2322(3)
O26 O 0.2794(11) 0.2275(15) 0.3855(5)
O27 O 0.4903(13) 0.5110(15) 0.4146(6)
O28 O 0.5202(8) 0.6860(16) 0.4668(4)
O29 O 0.357(2) 0.3504(19) 0.4456(6)
O31 O 0.6395(14) 0.1067(17) 0.4547(6)
S2? S 0.6237(14) 0.529(2) 0.0751(6)
S4? S 0.8026(4) 0.3546(4) 0.33080(10)
O3? O 0.574(5) 0.623(4) 0.0430(18)
O4? O 0.558(5) 0.645(4) 0.080(2)
O10? O 0.6947(6) 0.3753(8) 0.3363(2)
O12? O 0.8805(10) 0.2576(15) 0.3640(4)
O19? O 0.132(2) 0.291(3) 0.3914(11)
O23? O 0.274(2) 0.401(3) 0.2744(11)
O30? O 0.468(4) 0.323(3) 0.4430(11)
O32? O 0.6835(12) 0.0903(12) 0.4265(4)
loop_
_geom_bond_atom_site_label_1
_geom_bond_atom_site_label_2
_geom_bond_site_symmetry_1
_geom_bond_site_symmetry_2
Cu1 N3 1_555 1_555
Cu2 O1 1_555 1_555
S1 O1 1_555 1_555
S3 O7 1_555 1_555
O2 S1 1_555 1_555
O5 S1 1_555 1_555
O6 S1 1_555 1_555
O8 S3 1_555 1_555
O9 S3 1_555 1_555
O11 S3 1_555 1_555
N1 Cu2 1_555 1_555
N2 C2 1_555 1_555
N3 C6 1_555 1_555
N4 C4 1_555 1_555
N5 C9 1_555 1_555
N6 C12 1_555 1_555
N7 C13 1_555 1_555
N8 C17 1_555 1_555
N9 C15 1_555 1_555
N10 Cu1 1_555 1_555
C1 N1 1_555 1_555
H1 C1 1_555 1_555
C2 C1 1_555 1_555
C3 C2 1_555 1_555
H2 C3 1_555 1_555
C4 C3 1_555 1_555
C5 N1 1_555 1_555
H3 C5 1_555 1_555
C6 N2 1_555 1_555
H4 C6 1_555 1_555
C7 N3 1_555 1_555
H5 C7 1_555 1_555
C8 N2 1_555 1_555
H6 C8 1_555 1_555
C9 N4 1_555 1_555
H7 C9 1_555 1_555
C10 N5 1_555 1_555
H8 C10 1_555 1_555
C11 N4 1_555 1_555
H9 C11 1_555 1_555
C12 H10 1_555 1_555
C13 C12 1_555 1_555
C14 C13 1_555 1_555
H11 C14 1_555 1_555
C15 C14 1_555 1_555
C16 N6 1_555 1_555
H12 C16 1_555 1_555
C17 N7 1_555 1_555
H13 C17 1_555 1_555
C18 N8 1_555 1_555
H14 C18 1_555 1_555
C19 N7 1_555 1_555
H15 C19 1_555 1_555
C20 N9 1_555 1_555
H16 C20 1_555 1_555
C21 N10 1_555 1_555
H17 C21 1_555 1_555
C22 N9 1_555 1_555
H18 C22 1_555 1_555
Cu2B O1B 1_555 1_555
Cu2A N5 1_555 1_555
Cu2_2 N6 1_555 1_555
Cu2C N5B 1_555 1_555
Cu2B_2 N6B 1_555 1_555
S1B O1B 1_555 1_555
O2B S1B 1_555 1_555
O5B S1B 1_555 1_555
O6B S1B 1_555 1_555
N1B Cu2B 1_555 1_555
N2B C2B 1_555 1_555
N3B Cu1 1_555 1_555
N4B C4B 1_555 1_555
N5B C9B 1_555 1_555
N5A Cu2 1_555 1_555
N5C Cu2B 1_555 1_555
N6B C12B 1_555 1_555
N6_2 Cu2 1_555 1_555
N6B_2 Cu2B 1_555 1_555
N7B C13B 1_555 1_555
N8B Cu2C 1_555 1_555
N8A Cu2 1_555 1_555
N8C Cu2B 1_555 1_555
N9B C15B 1_555 1_555
N10B Cu1 1_555 1_555
C1B N1B 1_555 1_555
H1B C1B 1_555 1_555
C2B C1B 1_555 1_555
C3B C2B 1_555 1_555
H2B C3B 1_555 1_555
C4B C3B 1_555 1_555
C5B N1B 1_555 1_555
H3B C5B 1_555 1_555
C6B N2B 1_555 1_555
H4B C6B 1_555 1_555
C7B N3B 1_555 1_555
H5B C7B 1_555 1_555
C8B N2B 1_555 1_555
H6B C8B 1_555 1_555
C9B N4B 1_555 1_555
H7B C9B 1_555 1_555
C10B N5B 1_555 1_555
H8B C10B 1_555 1_555
C11B N4B 1_555 1_555
H9B C11B 1_555 1_555
C12B H10B 1_555 1_555
C13B C12B 1_555 1_555
C14B C13B 1_555 1_555
H11B C14B 1_555 1_555
C15B C14B 1_555 1_555
C16B N6B 1_555 1_555
H12B C16B 1_555 1_555
C17B N7B 1_555 1_555
H13B C17B 1_555 1_555
C18B N8B 1_555 1_555
H14B C18B 1_555 1_555
C19B N7B 1_555 1_555
H15B C19B 1_555 1_555
C20B N9B 1_555 1_555
H16B C20B 1_555 1_555
C21B N10B 1_555 1_555
H17B C21B 1_555 1_555
C22B N9B 1_555 1_555
H18B C22B 1_555 1_555
N8 Cu2A 1_555 1_555
N10 C20 1_555 1_555
C4 C5 1_555 1_555
C7 C8 1_555 1_555
C10 C11 1_555 1_555
C15 C16 1_555 1_555
C18 C19 1_555 1_555
C21 C22 1_555 1_555
N3B C6B 1_555 1_555
N8B C17B 1_555 1_555
N10B C20B 1_555 1_555
C4B C5B 1_555 1_555
C7B C8B 1_555 1_555
C10B C11B 1_555 1_555
C15B C16B 1_555 1_555
C18B C19B 1_555 1_555
C21B C22B 1_555 1_555

#END
