
#######################################################################
#
#                 Cambridge Crystallographic Data Centre
#                                CCDC 
#
#######################################################################
#
# If this CIF has been generated from an entry in the Cambridge 
# Structural Database, then it will include bibliographic, chemical, 
# crystal, experimental, refinement or atomic coordinate data resulting 
# from the CCDC's data processing and validation procedures.
#
#######################################################################

data_RATNAD
_symmetry_cell_setting           monoclinic
_symmetry_space_group_name_H-M   'P 21/n'
_symmetry_Int_Tables_number      14
_space_group_name_Hall           '-P 2yn'
loop_
_symmetry_equiv_pos_site_id
_symmetry_equiv_pos_as_xyz
1 x,y,z
2 1/2-x,1/2+y,1/2-z
3 -x,-y,-z
4 1/2+x,1/2-y,1/2+z
_cell_length_a                   8.9190(16)
_cell_length_b                   10.5618(19)
_cell_length_c                   15.241(3)
_cell_angle_alpha                90
_cell_angle_beta                 98.550(3)
_cell_angle_gamma                90
_cell_volume                     1419.76
loop_
_atom_site_label
_atom_site_type_symbol
_atom_site_fract_x
_atom_site_fract_y
_atom_site_fract_z
Cd1 Cd 0.5000 1.0000 0.0000
C1 C -0.1097(7) 1.1132(6) 0.3531(4)
H1 H -0.1532 1.1250 0.4043
C2 C -0.0662(7) 0.9928(6) 0.3331(4)
C3 C 0.0000(6) 0.9738(5) 0.2571(4)
H2 H 0.0288 0.8937 0.2407
C4 C 0.0209(6) 1.0792(6) 0.2075(4)
C5 C -0.0258(7) 1.1968(6) 0.2320(4)
H3 H -0.0098 1.2668 0.1975
C6 C -0.0070(7) 0.7831(6) 0.4035(4)
H4 H 0.0727 0.7621 0.3732
C7 C -0.1711(7) 0.7774(6) 0.4922(4)
H5 H -0.2265 0.7493 0.5355
C8 C -0.1942(7) 0.8873(6) 0.4483(4)
H6 H -0.2664 0.9484 0.4555
C9 C 0.2191(7) 1.0045(6) 0.1219(4)
H7 H 0.2653 0.9476 0.1640
C10 C 0.1701(7) 1.1176(6) 0.0052(4)
H8 H 0.1764 1.1534 -0.0499
C11 C 0.0639(7) 1.1459(6) 0.0562(4)
H9 H -0.0148 1.2039 0.0435
N1 N -0.0927(7) 1.2132(5) 0.3029(4)
N2 N -0.0892(6) 0.8915(5) 0.3903(3)
N3 N -0.0537(6) 0.7123(5) 0.4638(3)
N4 N 0.0951(5) 1.0719(5) 0.1310(3)
N5 N 0.2677(6) 1.0283(4) 0.0465(3)
O3 O 0.6197(6) 0.9564(4) 0.1419(3)
H10 H 0.616(8) 0.8818(17) 0.162(3)
H11 H 0.602(6) 1.008(3) 0.181(2)
Cd1A Cd 0.0000 0.5000 0.5000
Cd1A_2 Cd 1.0000 1.5000 -0.5000
C1B C 1.1097(7) 0.8868(6) -0.3531(4)
H1B H 1.1532 0.8750 -0.4043
C2B C 1.0662(7) 1.0072(6) -0.3331(4)
C3B C 1.0000(6) 1.0262(5) -0.2571(4)
H2B H 0.9712 1.1063 -0.2407
C4B C 0.9791(6) 0.9208(6) -0.2075(4)
C5B C 1.0258(7) 0.8032(6) -0.2320(4)
H3B H 1.0098 0.7332 -0.1975
C6B C 1.0070(7) 1.2169(6) -0.4035(4)
H4B H 0.9273 1.2379 -0.3732
C7B C 1.1711(7) 1.2226(6) -0.4922(4)
H5B H 1.2265 1.2507 -0.5355
C8B C 1.1942(7) 1.1127(6) -0.4483(4)
H6B H 1.2664 1.0516 -0.4555
C9B C 0.7809(7) 0.9955(6) -0.1219(4)
H7B H 0.7347 1.0524 -0.1640
C10B C 0.8299(7) 0.8824(6) -0.0052(4)
H8B H 0.8236 0.8466 0.0499
C11B C 0.9361(7) 0.8541(6) -0.0562(4)
H9B H 1.0148 0.7961 -0.0435
N1B N 1.0927(7) 0.7868(5) -0.3029(4)
N2B N 1.0892(6) 1.1085(5) -0.3903(3)
N3B N 1.0537(6) 1.2877(5) -0.4638(3)
N3A N 0.5537(6) 1.2123(5) 0.0362(3)
N3C N 0.4463(6) 0.7877(5) -0.0362(3)
N4B N 0.9049(5) 0.9281(5) -0.1310(3)
N5B N 0.7323(6) 0.9717(4) -0.0465(3)
O3B O 0.3803(6) 1.0436(4) -0.1419(3)
H10B H 0.384(8) 1.1182(17) -0.162(3)
H11B H 0.398(6) 0.992(3) -0.181(2)
Cl1 Cl 0.0615(2) 0.60263(17) 0.16187(11)
O1 O 0.1659(8) 0.6958(6) 0.1943(6)
O2 O -0.0073(9) 0.6279(7) 0.0756(4)
O4 O 0.1314(12) 0.4848(7) 0.1688(6)
O5 O -0.0522(9) 0.6053(13) 0.2155(6)
loop_
_geom_bond_atom_site_label_1
_geom_bond_atom_site_label_2
_geom_bond_site_symmetry_1
_geom_bond_site_symmetry_2
Cd1 N5 1_555 1_555
C1 H1 1_555 1_555
C2 C1 1_555 1_555
C3 C2 1_555 1_555
H2 C3 1_555 1_555
C4 C3 1_555 1_555
C5 C4 1_555 1_555
H3 C5 1_555 1_555
C6 H4 1_555 1_555
C7 H5 1_555 1_555
C8 C7 1_555 1_555
H6 C8 1_555 1_555
C9 H7 1_555 1_555
C10 H8 1_555 1_555
C11 C10 1_555 1_555
H9 C11 1_555 1_555
Cl1 O1 1_555 1_555
N1 C1 1_555 1_555
N2 C2 1_555 1_555
N3 C6 1_555 1_555
N4 C4 1_555 1_555
N5 C9 1_555 1_555
O2 Cl1 1_555 1_555
O3 Cd1 1_555 1_555
H10 O3 1_555 1_555
H11 O3 1_555 1_555
O4 Cl1 1_555 1_555
O5 Cl1 1_555 1_555
Cd1A N3 1_555 1_555
Cd1A_2 N3B 1_555 1_555
C1B H1B 1_555 1_555
C2B C1B 1_555 1_555
C3B C2B 1_555 1_555
H2B C3B 1_555 1_555
C4B C3B 1_555 1_555
C5B C4B 1_555 1_555
H3B C5B 1_555 1_555
C6B H4B 1_555 1_555
C7B H5B 1_555 1_555
C8B C7B 1_555 1_555
H6B C8B 1_555 1_555
C9B H7B 1_555 1_555
C10B H8B 1_555 1_555
C11B C10B 1_555 1_555
H9B C11B 1_555 1_555
N1B C1B 1_555 1_555
N2B C2B 1_555 1_555
N3B C6B 1_555 1_555
N3A Cd1 1_555 1_555
N3C Cd1 1_555 1_555
N4B C4B 1_555 1_555
N5B Cd1 1_555 1_555
O3B Cd1 1_555 1_555
H10B O3B 1_555 1_555
H11B O3B 1_555 1_555
C5 N1 1_555 1_555
C6 N2 1_555 1_555
C7 N3 1_555 1_555
C8 N2 1_555 1_555
C9 N4 1_555 1_555
C10 N5 1_555 1_555
C11 N4 1_555 1_555
C5B N1B 1_555 1_555
C6B N2B 1_555 1_555
C7B N3B 1_555 1_555
C8B N2B 1_555 1_555
C9B N4B 1_555 1_555
C9B N5B 1_555 1_555
C10B N5B 1_555 1_555
C11B N4B 1_555 1_555

#END
