
#######################################################################
#
#                 Cambridge Crystallographic Data Centre
#                                CCDC 
#
#######################################################################
#
# If this CIF has been generated from an entry in the Cambridge 
# Structural Database, then it will include bibliographic, chemical, 
# crystal, experimental, refinement or atomic coordinate data resulting 
# from the CCDC's data processing and validation procedures.
#
#######################################################################

data_RATNOR
_symmetry_cell_setting           monoclinic
_symmetry_space_group_name_H-M   'P 21/c'
_symmetry_Int_Tables_number      14
_space_group_name_Hall           '-P 2ybc'
loop_
_symmetry_equiv_pos_site_id
_symmetry_equiv_pos_as_xyz
1 x,y,z
2 -x,1/2+y,1/2-z
3 -x,-y,-z
4 x,1/2-y,1/2+z
_cell_length_a                   7.5823(17)
_cell_length_b                   11.145(3)
_cell_length_c                   17.811(6)
_cell_angle_alpha                90
_cell_angle_beta                 102.875(14)
_cell_angle_gamma                90
_cell_volume                     1467.27
loop_
_atom_site_label
_atom_site_type_symbol
_atom_site_fract_x
_atom_site_fract_y
_atom_site_fract_z
Ni1 Ni 0.16599(3) 0.899362(19) 0.258306(12)
S1 S -0.25409(5) 0.98558(4) 0.24275(2)
O1 O 0.32473(18) 1.04765(12) 0.30057(8)
H1 H 0.423(4) 1.047(2) 0.2999(14)
H2 H 0.324(3) 1.076(2) 0.3455(15)
O2 O -0.00374(18) 0.75412(12) 0.21440(8)
H3 H -0.091(4) 0.775(2) 0.2284(14)
H4 H 0.015(3) 0.686(2) 0.2286(14)
O3 O 0.38349(19) 0.78783(13) 0.26211(8)
H5 H 0.479(4) 0.816(2) 0.2572(14)
H6 H 0.364(3) 0.728(3) 0.2427(14)
O4 O -0.05777(17) 1.01112(12) 0.24926(8)
O5 O -0.27672(18) 0.85747(12) 0.25993(9)
O6 O -0.3546(2) 1.01342(14) 0.16501(8)
O7 O -0.31569(18) 1.06149(13) 0.29953(8)
N1 N 0.1860(2) 0.55676(14) 0.64381(8)
N2 N 0.1761(2) 0.73907(15) 0.47220(9)
N3 N 0.1532(2) 0.84836(14) 0.36760(8)
N4 N 0.3034(2) 0.31563(15) 0.52323(9)
N5 N 0.3567(3) 0.16780(17) 0.44821(11)
C1 C 0.1741(2) 0.65001(17) 0.59568(10)
H7 H 0.1468 0.7270 0.6129
C2 C 0.2001(2) 0.63803(17) 0.52166(10)
C3 C 0.2451(3) 0.52678(17) 0.49646(10)
H8 H 0.2663 0.5167 0.4462
C4 C 0.2582(2) 0.43078(17) 0.54677(10)
C5 C 0.2263(2) 0.44846(17) 0.62018(10)
H9 H 0.2333 0.3820 0.6541
C6 C 0.1980(3) 0.74350(19) 0.39913(11)
H10 H 0.2408 0.6784 0.3737
C7 C 0.1007(5) 0.9149(2) 0.42220(14)
H11 H 0.0602 0.9957 0.4159
C8 C 0.1146(6) 0.8495(2) 0.48681(15)
H12 H 0.0868 0.8754 0.5337
C9 C 0.3169(3) 0.28181(19) 0.45133(12)
H13 H 0.2995 0.3346 0.4084
C10 C 0.3714(4) 0.1256(2) 0.52159(13)
H14 H 0.4011 0.0453 0.5374
C11 C 0.3380(4) 0.2138(2) 0.56814(13)
H15 H 0.3382 0.2072 0.6213
Ni1C Ni 0.16599(3) 0.600638(19) 0.758306(12)
N1C N 0.1860(2) 0.94324(14) 0.14381(8)
loop_
_geom_bond_atom_site_label_1
_geom_bond_atom_site_label_2
_geom_bond_site_symmetry_1
_geom_bond_site_symmetry_2
Ni1 O1 1_555 1_555
S1 O4 1_555 1_555
O1 H1 1_555 1_555
H2 O1 1_555 1_555
O2 Ni1 1_555 1_555
H3 O2 1_555 1_555
H4 O2 1_555 1_555
O3 Ni1 1_555 1_555
H5 O3 1_555 1_555
H6 O3 1_555 1_555
O4 Ni1 1_555 1_555
O5 S1 1_555 1_555
O6 S1 1_555 1_555
O7 S1 1_555 1_555
N1 C1 1_555 1_555
N2 C2 1_555 1_555
N3 Ni1 1_555 1_555
N4 C4 1_555 1_555
N5 C9 1_555 1_555
C1 H7 1_555 1_555
C2 C1 1_555 1_555
C3 C2 1_555 1_555
H8 C3 1_555 1_555
C4 C3 1_555 1_555
C5 N1 1_555 1_555
H9 C5 1_555 1_555
C6 N2 1_555 1_555
H10 C6 1_555 1_555
C7 N3 1_555 1_555
H11 C7 1_555 1_555
C8 N2 1_555 1_555
H12 C8 1_555 1_555
C9 N4 1_555 1_555
H13 C9 1_555 1_555
C10 N5 1_555 1_555
H14 C10 1_555 1_555
C11 N4 1_555 1_555
H15 C11 1_555 1_555
Ni1C N1 1_555 1_555
N1C Ni1 1_555 1_555
N3 C6 1_555 1_555
C4 C5 1_555 1_555
C7 C8 1_555 1_555
C10 C11 1_555 1_555

#END
