
#######################################################################
#
#                 Cambridge Crystallographic Data Centre
#                                CCDC 
#
#######################################################################
#
# If this CIF has been generated from an entry in the Cambridge 
# Structural Database, then it will include bibliographic, chemical, 
# crystal, experimental, refinement or atomic coordinate data resulting 
# from the CCDC's data processing and validation procedures.
#
#######################################################################

data_RATSAI
_symmetry_cell_setting           orthorhombic
_symmetry_space_group_name_H-M   'P n a 21'
_symmetry_Int_Tables_number      33
_space_group_name_Hall           'P 2c -2n'
loop_
_symmetry_equiv_pos_site_id
_symmetry_equiv_pos_as_xyz
1 x,y,z
2 1/2-x,1/2+y,1/2+z
3 1/2+x,1/2-y,z
4 -x,-y,1/2+z
_cell_length_a                   17.4356(5)
_cell_length_b                   10.1537(3)
_cell_length_c                   17.6594(5)
_cell_angle_alpha                90
_cell_angle_beta                 90
_cell_angle_gamma                90
_cell_volume                     3126.35
loop_
_atom_site_label
_atom_site_type_symbol
_atom_site_fract_x
_atom_site_fract_y
_atom_site_fract_z
Dy1 Dy 0.02090(2) 0.33896(4) 0.77956(2)
Dy2 Dy -0.17886(2) 0.11801(4) 0.79375(3)
S1 S -0.04052(15) -0.0380(3) 1.03230(16)
S2 S 0.20237(15) 0.5812(3) 0.53978(16)
S3 S -0.10983(14) 0.4825(3) 0.54253(16)
S4 S -0.22179(15) -0.2178(3) 0.7864(3)
S5 S 0.06728(19) 0.6757(3) 0.7709(3)
C1 C 0.0229(8) -0.1095(15) 1.1712(6)
O1 O -0.0381(5) -0.1750(8) 1.1831(4)
O2 O 0.0846(5) 0.6508(9) 0.3547(4)
O3 O 0.0299(5) 0.1525(8) 0.8527(5)
O4 O 0.0764(5) -0.1054(8) 1.2163(4)
O5 O 0.1307(5) 0.3820(9) 0.7146(5)
C2 C 0.0164(6) 0.0490(11) 0.9703(6)
O6 O 0.2480(4) 0.4537(8) 0.6884(4)
O7 O -0.0930(5) 0.5895(9) 0.3858(4)
C3 C -0.2448(6) 0.4024(12) 0.5734(7)
H1 H -0.2869 0.3669 0.5985
C4 C 0.1794(7) 0.4372(13) 0.6725(6)
O8 O 0.1983(5) 0.7218(9) 0.3893(4)
O9 O -0.0857(4) 0.0679(8) 0.8842(4)
O10 O -0.1923(5) 0.3086(8) 0.7216(4)
O11 O -0.2140(4) 0.5576(8) 0.3528(4)
C5 C 0.0967(7) 0.0158(12) 1.0705(7)
H2 H 0.1425 0.02 1.0973
C6 C -0.1436(9) 0.3631(14) 0.6777(6)
O12 O -0.0753(5) 0.3820(9) 0.6916(4)
C7 C 0.0321(6) -0.0459(10) 1.0966(6)
C8 C 0.1338(6) 0.5767(11) 0.4706(6)
O13 O -0.1619(4) -0.1119(6) 0.7936(9)
C9 C 0.0846(7) 0.4362(12) 0.5612(6)
H3 H 0.05 0.3772 0.5824
O14 O 0.0078(5) 0.5681(7) 0.7765(8)
C10 C 0.1511(6) 0.4758(11) 0.5961(6)
C11 C -0.1786(6) 0.4981(11) 0.4745(6)
C12 C -0.1731(6) 0.4086(11) 0.6029(6)
C13 C 0.0861(6) 0.0715(13) 0.9994(7)
H4 H 0.1238 0.1197 0.9745
C14 C 0.1419(8) 0.6523(14) 0.4007(6)
C15 C -0.2478(7) 0.4567(13) 0.4998(6)
H5 H -0.2927 0.4634 0.4716
C16 C 0.0750(7) 0.4950(12) 0.4898(6)
H6 H 0.0328 0.4796 0.4588
C17 C -0.0157(8) 0.0952(14) 0.8959(6)
C18 C -0.1621(7) 0.5589(14) 0.3998(7)
C19 C 0.0422(16) 0.778(3) 0.6959(13)
H7 H -0.0106 0.8031 0.7008
H8 H 0.0492 0.7313 0.649
H9 H 0.074 0.8548 0.6963
C20 C -0.2017(14) -0.305(2) 0.7013(11)
H10 H -0.1532 -0.3486 0.7058
H11 H -0.1998 -0.2436 0.6597
H12 H -0.2413 -0.3684 0.6922
C21 C -0.1884(12) -0.345(2) 0.8505(12)
H13 H -0.162 -0.3052 0.8923
H14 H -0.1541 -0.4031 0.8241
H15 H -0.2315 -0.3945 0.869
C22 C 0.0425(13) 0.788(2) 0.8438(12)
H16 H 0.0845 0.7961 0.8787
H17 H -0.002 0.7566 0.8702
H18 H 0.0316 0.8728 0.822
Dy1C Dy -0.02090(2) -0.33896(4) 1.27956(2)
Dy1C_2 Dy -0.02090(2) 0.66104(4) 0.27956(2)
Dy2A Dy -0.32114(2) 0.61801(4) 0.29375(3)
Dy2B Dy 0.32114(2) 0.38199(4) 0.79375(3)
Dy2C Dy 0.17886(2) -0.11801(4) 1.29375(3)
Dy2C_2 Dy 0.17886(2) 0.88199(4) 0.29375(3)
O1C O 0.0381(5) 0.1750(8) 0.6831(4)
O2C O -0.0846(5) 0.3492(9) 0.8547(4)
O4C O -0.0764(5) 0.1054(8) 0.7163(4)
O6B O -0.2520(4) 0.0463(8) 0.6884(4)
O7C O 0.0930(5) 0.4105(9) 0.8858(4)
O8C O -0.1983(5) 0.2782(9) 0.8893(4)
O11A O -0.2860(4) 0.0576(8) 0.8528(4)
O15 O 0.1715(5) 0.0324(9) 0.7702(6)
H19 H 0.1443 0.0978 0.7715
H20 H 0.184 0.0053 0.8118
loop_
_geom_bond_atom_site_label_1
_geom_bond_atom_site_label_2
_geom_bond_site_symmetry_1
_geom_bond_site_symmetry_2
Dy1 O3 1_555 1_555
Dy2 O9 1_555 1_555
S1 C2 1_555 1_555
S2 C8 1_555 1_555
S3 C11 1_555 1_555
S4 O13 1_555 1_555
S5 O14 1_555 1_555
C1 O1 1_555 1_555
O1 Dy1C 1_555 1_555
O2 C14 1_555 1_555
O3 C17 1_555 1_555
O4 C1 1_555 1_555
O5 Dy1 1_555 1_555
C2 C13 1_555 1_555
O6 C4 1_555 1_555
O7 C18 1_555 1_555
C3 H1 1_555 1_555
C4 O5 1_555 1_555
O8 C14 1_555 1_555
O9 C17 1_555 1_555
O10 Dy2 1_555 1_555
O11 C18 1_555 1_555
C5 H2 1_555 1_555
C6 O10 1_555 1_555
O12 Dy1 1_555 1_555
C7 S1 1_555 1_555
C8 C14 1_555 1_555
O13 Dy2 1_555 1_555
C9 H3 1_555 1_555
O14 Dy1 1_555 1_555
C10 S2 1_555 1_555
C11 C15 1_555 1_555
C12 S3 1_555 1_555
C13 C5 1_555 1_555
H4 C13 1_555 1_555
C15 C3 1_555 1_555
H5 C15 1_555 1_555
C16 C8 1_555 1_555
H6 C16 1_555 1_555
C17 C2 1_555 1_555
C18 C11 1_555 1_555
C19 S5 1_555 1_555
H7 C19 1_555 1_555
H8 C19 1_555 1_555
H9 C19 1_555 1_555
C20 S4 1_555 1_555
H10 C20 1_555 1_555
H11 C20 1_555 1_555
H12 C20 1_555 1_555
C21 S4 1_555 1_555
H13 C21 1_555 1_555
H14 C21 1_555 1_555
H15 C21 1_555 1_555
C22 S5 1_555 1_555
H16 C22 1_555 1_555
H17 C22 1_555 1_555
H18 C22 1_555 1_555
O15 H19 1_555 1_555
H20 O15 1_555 1_555
Dy1C_2 O2 1_555 1_555
Dy2A O11 1_555 1_555
Dy2B O6 1_555 1_555
Dy2C O4 1_555 1_555
Dy2C_2 O8 1_555 1_555
O1C Dy1 1_555 1_555
O2C Dy1 1_555 1_555
O4C Dy2 1_555 1_555
O6B Dy2 1_555 1_555
O7C Dy1 1_555 1_555
O8C Dy2 1_555 1_555
O11A Dy2 1_555 1_555
C1 C7 1_555 1_555
O7 Dy1C_2 1_555 1_555
C3 C12 1_555 1_555
C4 C10 1_555 1_555
C5 C7 1_555 1_555
C6 O12 1_555 1_555
C6 C12 1_555 1_555
C9 C10 1_555 1_555
C9 C16 1_555 1_555

#END
