
#######################################################################
#
#                 Cambridge Crystallographic Data Centre
#                                CCDC 
#
#######################################################################
#
# If this CIF has been generated from an entry in the Cambridge 
# Structural Database, then it will include bibliographic, chemical, 
# crystal, experimental, refinement or atomic coordinate data resulting 
# from the CCDC's data processing and validation procedures.
#
#######################################################################

data_RATTUD
_symmetry_cell_setting           monoclinic
_symmetry_space_group_name_H-M   'C 2/c'
_symmetry_Int_Tables_number      15
_space_group_name_Hall           '-C 2yn'
loop_
_symmetry_equiv_pos_site_id
_symmetry_equiv_pos_as_xyz
1 x,y,z
2 -x,y,1/2-z
3 1/2+x,1/2+y,z
4 1/2-x,1/2+y,1/2-z
5 -x,-y,-z
6 x,-y,1/2+z
7 1/2-x,1/2-y,-z
8 1/2+x,1/2-y,1/2+z
_cell_length_a                   7.2623(13)
_cell_length_b                   16.286(3)
_cell_length_c                   18.063(3)
_cell_angle_alpha                90
_cell_angle_beta                 96.037(2)
_cell_angle_gamma                90
_cell_volume                     2124.53
loop_
_atom_site_label
_atom_site_type_symbol
_atom_site_fract_x
_atom_site_fract_y
_atom_site_fract_z
Pb1 Pb 0.0000 0.302337(13) 0.2500
O1 O 0.0825(5) 0.23330(18) 0.37725(17)
O2 O 0.0995(5) 0.11079(19) 0.43110(18)
O3 O 0.1424(6) -0.0340(2) 0.3914(2)
H1 H 0.1156 0.0132 0.4018
O4 O 0.2293(6) -0.1003(2) 0.2955(2)
N1 N 0.2281(5) 0.1757(2) 0.2541(2)
N2 N 0.2817(5) 0.0453(2) 0.2189(2)
N3 N 0.4804(6) 0.2118(2) 0.0060(2)
H2 H 0.5225 0.2296 -0.0337
C1 C 0.1184(6) 0.1574(3) 0.3769(3)
C2 C 0.1886(6) 0.1245(2) 0.3091(2)
C3 C 0.2218(6) 0.0437(2) 0.2873(3)
C4 C 0.1989(7) -0.0355(3) 0.3256(3)
C5 C 0.2846(6) 0.1254(2) 0.2009(3)
C6 C 0.3521(6) 0.1549(3) 0.1333(3)
C7 C 0.3772(7) 0.1025(3) 0.0740(3)
H3 H 0.3496 0.0470 0.0774
C8 C 0.4418(7) 0.1323(3) 0.0114(3)
H4 H 0.4591 0.0971 -0.0278
C9 C 0.4554(7) 0.2652(3) 0.0609(3)
H5 H 0.4801 0.3207 0.0551
C10 C 0.3942(6) 0.2378(3) 0.1244(3)
H6 H 0.3799 0.2746 0.1628
Pb1B Pb 0.5000 -0.197663(13) 0.2500
Pb1B_2 Pb -0.5000 -0.197663(13) 0.2500
O1A O -0.0825(5) 0.23330(18) 0.12275(17)
O2A O -0.0995(5) 0.11079(19) 0.06890(18)
O3A O -0.1424(6) -0.0340(2) 0.1086(2)
H1A H -0.1156 0.0132 0.0982
O4A O -0.2293(6) -0.1003(2) 0.2045(2)
O4B O -0.2707(6) 0.3997(2) 0.2955(2)
O4C O 0.2707(6) 0.3997(2) 0.2045(2)
N1A N -0.2281(5) 0.1757(2) 0.2459(2)
N2A N -0.2817(5) 0.0453(2) 0.2811(2)
N3A N -0.4804(6) 0.2118(2) 0.4940(2)
H2A H -0.5225 0.2296 0.5337
C1A C -0.1184(6) 0.1574(3) 0.1231(3)
C2A C -0.1886(6) 0.1245(2) 0.1909(2)
C3A C -0.2218(6) 0.0437(2) 0.2127(3)
C4A C -0.1989(7) -0.0355(3) 0.1744(3)
C5A C -0.2846(6) 0.1254(2) 0.2991(3)
C6A C -0.3521(6) 0.1549(3) 0.3667(3)
C7A C -0.3772(7) 0.1025(3) 0.4260(3)
H3A H -0.3496 0.0470 0.4226
C8A C -0.4418(7) 0.1323(3) 0.4886(3)
H4A H -0.4591 0.0971 0.5278
C9A C -0.4554(7) 0.2652(3) 0.4391(3)
H5A H -0.4801 0.3207 0.4449
C10A C -0.3942(6) 0.2378(3) 0.3756(3)
H6A H -0.3799 0.2746 0.3372
O5 O -0.1585(6) 0.4071(2) 0.1360(2)
H7 H -0.1822 0.4484 0.1622
H8 H -0.2661 0.3876 0.1239
loop_
_geom_bond_atom_site_label_1
_geom_bond_atom_site_label_2
_geom_bond_site_symmetry_1
_geom_bond_site_symmetry_2
Pb1 O1 1_555 1_555
O1 C1 1_555 1_555
O2 C1 1_555 1_555
O3 H1 1_555 1_555
O4 C4 1_555 1_555
N1 Pb1 1_555 1_555
N2 C3 1_555 1_555
N3 H2 1_555 1_555
C1 C2 1_555 1_555
C2 N1 1_555 1_555
C3 C2 1_555 1_555
C4 O3 1_555 1_555
C5 N1 1_555 1_555
C6 C5 1_555 1_555
C7 C6 1_555 1_555
H3 C7 1_555 1_555
C8 N3 1_555 1_555
H4 C8 1_555 1_555
C9 N3 1_555 1_555
H5 C9 1_555 1_555
C10 C6 1_555 1_555
H6 C10 1_555 1_555
O5 H7 1_555 1_555
H8 O5 1_555 1_555
Pb1B O4 1_555 1_555
Pb1B_2 O4A 1_555 1_555
O1A Pb1 1_555 1_555
O2A C1A 1_555 1_555
O3A H1A 1_555 1_555
O4A C4A 1_555 1_555
O4B Pb1 1_555 1_555
O4C Pb1 1_555 1_555
N1A Pb1 1_555 1_555
N2A C3A 1_555 1_555
N3A H2A 1_555 1_555
C1A O1A 1_555 1_555
C2A N1A 1_555 1_555
C3A C2A 1_555 1_555
C4A O3A 1_555 1_555
C5A N1A 1_555 1_555
C6A C5A 1_555 1_555
C7A C6A 1_555 1_555
H3A C7A 1_555 1_555
C8A N3A 1_555 1_555
H4A C8A 1_555 1_555
C9A N3A 1_555 1_555
H5A C9A 1_555 1_555
C10A C6A 1_555 1_555
H6A C10A 1_555 1_555
N2 C5 1_555 1_555
C3 C4 1_555 1_555
C7 C8 1_555 1_555
C9 C10 1_555 1_555
N2A C5A 1_555 1_555
C1A C2A 1_555 1_555
C3A C4A 1_555 1_555
C7A C8A 1_555 1_555
C9A C10A 1_555 1_555

#END
