
#######################################################################
#
#                 Cambridge Crystallographic Data Centre
#                                CCDC 
#
#######################################################################
#
# If this CIF has been generated from an entry in the Cambridge 
# Structural Database, then it will include bibliographic, chemical, 
# crystal, experimental, refinement or atomic coordinate data resulting 
# from the CCDC's data processing and validation procedures.
#
#######################################################################

data_RATTIR
_symmetry_cell_setting           triclinic
_symmetry_space_group_name_H-M   'P -1'
_symmetry_Int_Tables_number      2
_space_group_name_Hall           '-P 1'
loop_
_symmetry_equiv_pos_site_id
_symmetry_equiv_pos_as_xyz
1 x,y,z
2 -x,-y,-z
_cell_length_a                   6.8168(17)
_cell_length_b                   7.809(2)
_cell_length_c                   12.431(3)
_cell_angle_alpha                71.883(2)
_cell_angle_beta                 75.558(3)
_cell_angle_gamma                76.768(3)
_cell_volume                     600.762
loop_
_atom_site_label
_atom_site_type_symbol
_atom_site_fract_x
_atom_site_fract_y
_atom_site_fract_z
Ca1 Ca 1.24734(6) 0.39010(5) 0.56304(3)
O1 O 1.2691(2) -0.1722(2) 0.69820(14)
O2 O 1.2341(2) 0.11585(18) 0.70252(13)
N1 N 0.6021(2) 0.0352(2) 0.77915(13)
H1 H 0.4772 0.0810 0.7718
C1 C 0.5219(3) -0.2079(3) 0.96050(16)
N2 N 0.8668(2) -0.1520(2) 0.84802(14)
C2 C 0.9371(3) -0.0211(2) 0.75247(16)
C3 C 0.6636(3) -0.1118(2) 0.86227(16)
C4 C 1.1635(3) -0.0260(3) 0.71282(16)
N3 N 0.2588(3) -0.3999(2) 1.14703(15)
C5 C 0.5991(3) -0.3512(3) 1.04640(17)
H2 H 0.7400 -0.3858 1.0430
C6 C 0.3104(3) -0.1612(3) 0.97251(17)
H3 H 0.2521 -0.0636 0.9185
C7 C 0.1876(3) -0.2610(3) 1.06544(18)
H4 H 0.0460 -0.2290 1.0713
C8 C 0.4630(4) -0.4410(3) 1.13665(18)
H5 H 0.5164 -0.5359 1.1938
O3 O 0.9224(2) 0.33266(18) 0.56205(11)
O4 O 0.5896(2) 0.34218(18) 0.58595(12)
C9 C 0.7616(3) 0.2657(2) 0.61344(16)
C10 C 0.7749(3) 0.0981(2) 0.70851(16)
O5 O 1.0897(3) 0.5389(2) 0.70520(15)
H6 H 1.1075 0.6428 0.7058
H7 H 0.9959 0.5041 0.7625
O6 O 1.3393(3) 0.2389(3) 0.41666(15)
H8 H 1.2532 0.2219 0.3835
H9 H 1.4571 0.2090 0.3781
Ca1A Ca 0.75266(6) 0.60990(5) 0.43696(3)
Ca1_2 Ca 0.24734(6) 0.39010(5) 0.56304(3)
Ca1A_2 Ca 1.75266(6) 0.60990(5) 0.43696(3)
O1A O 0.7309(2) 1.1722(2) 0.30180(14)
O2A O 0.7659(2) 0.88415(18) 0.29748(13)
N1A N 1.3979(2) 0.9648(2) 0.22085(13)
H1A H 1.5228 0.9190 0.2282
C1A C 1.4781(3) 1.2079(3) 0.03950(16)
N2A N 1.1332(2) 1.1520(2) 0.15198(14)
C2A C 1.0629(3) 1.0211(2) 0.24753(16)
C3A C 1.3364(3) 1.1118(2) 0.13773(16)
C4A C 0.8365(3) 1.0260(3) 0.28718(16)
N3A N 1.7412(3) 1.3999(2) -0.14703(15)
C5A C 1.4009(3) 1.3512(3) -0.04640(17)
H2A H 1.2600 1.3858 -0.0430
C6A C 1.6896(3) 1.1612(3) 0.02749(17)
H3A H 1.7479 1.0636 0.0815
C7A C 1.8124(3) 1.2610(3) -0.06544(18)
H4A H 1.9540 1.2290 -0.0713
C8A C 1.5370(4) 1.4410(3) -0.13665(18)
H5A H 1.4836 1.5359 -0.1938
O3A O 1.0776(2) 0.66734(18) 0.43795(11)
O4A O 1.4104(2) 0.65782(18) 0.41405(12)
O4_2 O 1.5896(2) 0.34218(18) 0.58595(12)
O4A_2 O 0.4104(2) 0.65782(18) 0.41405(12)
C9A C 1.2384(3) 0.7343(2) 0.38656(16)
C10A C 1.2251(3) 0.9019(2) 0.29149(16)
O5A O 0.9103(3) 0.4611(2) 0.29480(15)
H6A H 0.8925 0.3572 0.2942
H7A H 1.0041 0.4959 0.2375
O6A O 0.6607(3) 0.7611(3) 0.58334(15)
H8A H 0.7468 0.7781 0.6165
H9A H 0.5429 0.7910 0.6219
loop_
_geom_bond_atom_site_label_1
_geom_bond_atom_site_label_2
_geom_bond_site_symmetry_1
_geom_bond_site_symmetry_2
Ca1 O2 1_555 1_555
O1 C4 1_555 1_555
O2 C4 1_555 1_555
N1 H1 1_555 1_555
C1 C3 1_555 1_555
N2 C2 1_555 1_555
C2 C4 1_555 1_555
C3 N1 1_555 1_555
N3 C7 1_555 1_555
C5 C1 1_555 1_555
H2 C5 1_555 1_555
C6 C1 1_555 1_555
H3 C6 1_555 1_555
C7 C6 1_555 1_555
H4 C7 1_555 1_555
C8 N3 1_555 1_555
H5 C8 1_555 1_555
O3 Ca1 1_555 1_555
O4 C9 1_555 1_555
C9 O3 1_555 1_555
C10 N1 1_555 1_555
O5 Ca1 1_555 1_555
H6 O5 1_555 1_555
H7 O5 1_555 1_555
O6 Ca1 1_555 1_555
H8 O6 1_555 1_555
H9 O6 1_555 1_555
Ca1A O3 1_555 1_555
Ca1_2 O4 1_555 1_555
Ca1A_2 O4A 1_555 1_555
O1A C4A 1_555 1_555
O2A Ca1A 1_555 1_555
N1A H1A 1_555 1_555
C1A C3A 1_555 1_555
N2A C2A 1_555 1_555
C2A C4A 1_555 1_555
C3A N1A 1_555 1_555
C4A O2A 1_555 1_555
N3A C7A 1_555 1_555
C5A C1A 1_555 1_555
H2A C5A 1_555 1_555
C6A C1A 1_555 1_555
H3A C6A 1_555 1_555
C7A C6A 1_555 1_555
H4A C7A 1_555 1_555
C8A N3A 1_555 1_555
H5A C8A 1_555 1_555
O3A Ca1 1_555 1_555
O4A Ca1 1_555 1_555
O4_2 Ca1 1_555 1_555
O4A_2 Ca1A 1_555 1_555
C9A O3A 1_555 1_555
C10A N1A 1_555 1_555
O5A Ca1A 1_555 1_555
H6A O5A 1_555 1_555
H7A O5A 1_555 1_555
O6A Ca1A 1_555 1_555
H8A O6A 1_555 1_555
H9A O6A 1_555 1_555
N2 C3 1_555 1_555
C2 C10 1_555 1_555
C5 C8 1_555 1_555
O4 Ca1A 1_555 1_555
C9 C10 1_555 1_555
Ca1A O3A 1_555 1_555
Ca1_2 O4A_2 1_555 1_555
Ca1A_2 O4_2 1_555 1_555
N2A C3A 1_555 1_555
C2A C10A 1_555 1_555
C5A C8A 1_555 1_555
O4A C9A 1_555 1_555
C9A C10A 1_555 1_555

#END
