
#######################################################################
#
#                 Cambridge Crystallographic Data Centre
#                                CCDC 
#
#######################################################################
#
# If this CIF has been generated from an entry in the Cambridge 
# Structural Database, then it will include bibliographic, chemical, 
# crystal, experimental, refinement or atomic coordinate data resulting 
# from the CCDC's data processing and validation procedures.
#
#######################################################################

data_RATTOX
_symmetry_cell_setting           monoclinic
_symmetry_space_group_name_H-M   'P 2/c'
_symmetry_Int_Tables_number      13
_space_group_name_Hall           '-P 2yc'
loop_
_symmetry_equiv_pos_site_id
_symmetry_equiv_pos_as_xyz
1 x,y,z
2 -x,y,1/2-z
3 -x,-y,-z
4 x,-y,1/2+z
_cell_length_a                   8.147(3)
_cell_length_b                   8.946(3)
_cell_length_c                   16.047(5)
_cell_angle_alpha                90
_cell_angle_beta                 102.892(4)
_cell_angle_gamma                90
_cell_volume                     1140.07
loop_
_atom_site_label
_atom_site_type_symbol
_atom_site_fract_x
_atom_site_fract_y
_atom_site_fract_z
O1 O 1.2981(3) -0.0226(3) 0.27992(16)
O2 O 1.4211(3) 0.1894(3) 0.33129(16)
O3 O 1.3842(3) 0.4587(3) 0.31251(17)
H1 H 1.3937 0.3681 0.3194
O4 O 1.2186(3) 0.6133(3) 0.22353(17)
N1 N 1.0623(3) 0.1292(3) 0.15609(18)
N2 N 1.0368(3) 0.3751(3) 0.13459(18)
H2 H 0.9983 0.4594 0.1128
N3 N 0.5641(4) 0.1396(4) -0.0926(2)
H3 H 0.4804 0.1178 -0.1339
C1 C 1.3094(4) 0.1157(4) 0.2790(2)
C2 C 1.1854(4) 0.2026(4) 0.2143(2)
C3 C 1.1710(4) 0.3556(4) 0.2021(2)
C4 C 1.2618(4) 0.4870(4) 0.2475(2)
C5 C 0.9754(4) 0.2386(4) 0.1081(2)
C6 C 0.8306(4) 0.2088(4) 0.0373(2)
C7 C 0.7967(4) 0.0610(4) 0.0116(2)
H4 H 0.8656 -0.0155 0.0388
C8 C 0.6620(4) 0.0289(4) -0.0535(2)
H5 H 0.6384 -0.0696 -0.0705
C9 C 0.5912(5) 0.2817(5) -0.0703(3)
H6 H 0.5190 0.3552 -0.0985
C10 C 0.7258(5) 0.3211(4) -0.0056(2)
H7 H 0.7465 0.4209 0.0094
Cl1 Cl 1.14102(13) 0.68917(10) 0.42836(7)
Ba1 Ba 1.0000 0.82900(3) 0.2500
O1A O 0.7019(3) -0.0226(3) 0.22008(16)
O1_2 O 1.2981(3) 0.9774(3) 0.27992(16)
O1A_2 O 0.7019(3) 0.9774(3) 0.22008(16)
O2A O 0.5789(3) 0.1894(3) 0.16871(16)
O3A O 0.6158(3) 0.4587(3) 0.18749(17)
H1A H 0.6063 0.3681 0.1806
O4A O 0.7814(3) 0.6133(3) 0.27647(17)
N1A N 0.9377(3) 0.1292(3) 0.34391(18)
N1_2 N 1.0623(3) 1.1292(3) 0.15609(18)
N1A_2 N 0.9377(3) 1.1292(3) 0.34391(18)
N2A N 0.9632(3) 0.3751(3) 0.36541(18)
H2A H 1.0017 0.4594 0.3872
N3A N 1.4359(4) 0.1396(4) 0.5926(2)
H3A H 1.5196 0.1178 0.6339
C1A C 0.6906(4) 0.1157(4) 0.2210(2)
C2A C 0.8146(4) 0.2026(4) 0.2857(2)
C3A C 0.8290(4) 0.3556(4) 0.2979(2)
C4A C 0.7382(4) 0.4870(4) 0.2525(2)
C5A C 1.0246(4) 0.2386(4) 0.3919(2)
C6A C 1.1694(4) 0.2088(4) 0.4627(2)
C7A C 1.2033(4) 0.0610(4) 0.4884(2)
H4A H 1.1344 -0.0155 0.4612
C8A C 1.3380(4) 0.0289(4) 0.5535(2)
H5A H 1.3616 -0.0696 0.5705
C9A C 1.4088(5) 0.2817(5) 0.5703(3)
H6A H 1.4810 0.3552 0.5985
C10A C 1.2742(5) 0.3211(4) 0.5056(2)
H7A H 1.2535 0.4209 0.4906
Cl1A Cl 0.85898(13) 0.68917(10) 0.07164(7)
Ba1_2 Ba 1.0000 -0.17100(3) 0.2500
loop_
_geom_bond_atom_site_label_1
_geom_bond_atom_site_label_2
_geom_bond_site_symmetry_1
_geom_bond_site_symmetry_2
O1 C1 1_555 1_555
O2 C1 1_555 1_555
O3 H1 1_555 1_555
O4 C4 1_555 1_555
N1 C2 1_555 1_555
N2 H2 1_555 1_555
N3 H3 1_555 1_555
C1 C2 1_555 1_555
C2 C3 1_555 1_555
C3 N2 1_555 1_555
C4 O3 1_555 1_555
C5 N1 1_555 1_555
C6 C5 1_555 1_555
C7 C6 1_555 1_555
H4 C7 1_555 1_555
C8 N3 1_555 1_555
H5 C8 1_555 1_555
C9 N3 1_555 1_555
H6 C9 1_555 1_555
C10 C6 1_555 1_555
H7 C10 1_555 1_555
Cl1 Ba1 1_555 1_555
Ba1 O4 1_555 1_555
O1A C1A 1_555 1_555
O1_2 Ba1 1_555 1_555
O1A_2 Ba1 1_555 1_555
O2A C1A 1_555 1_555
O3A H1A 1_555 1_555
O4A Ba1 1_555 1_555
N1A C2A 1_555 1_555
N1_2 Ba1 1_555 1_555
N1A_2 Ba1 1_555 1_555
N2A H2A 1_555 1_555
N3A H3A 1_555 1_555
C1A C2A 1_555 1_555
C2A C3A 1_555 1_555
C3A N2A 1_555 1_555
C4A O3A 1_555 1_555
C5A N1A 1_555 1_555
C6A C5A 1_555 1_555
C7A C6A 1_555 1_555
H4A C7A 1_555 1_555
C8A N3A 1_555 1_555
H5A C8A 1_555 1_555
C9A N3A 1_555 1_555
H6A C9A 1_555 1_555
C10A C6A 1_555 1_555
H7A C10A 1_555 1_555
Cl1A Ba1 1_555 1_555
Ba1_2 O1 1_555 1_555
N1 Ba1_2 1_555 1_555
N2 C5 1_555 1_555
C3 C4 1_555 1_555
C7 C8 1_555 1_555
C9 C10 1_555 1_555
O1A Ba1_2 1_555 1_555
O4A C4A 1_555 1_555
N1A Ba1_2 1_555 1_555
N2A C5A 1_555 1_555
C3A C4A 1_555 1_555
C7A C8A 1_555 1_555
C9A C10A 1_555 1_555

#END
