
#######################################################################
#
#                 Cambridge Crystallographic Data Centre
#                                CCDC 
#
#######################################################################
#
# If this CIF has been generated from an entry in the Cambridge 
# Structural Database, then it will include bibliographic, chemical, 
# crystal, experimental, refinement or atomic coordinate data resulting 
# from the CCDC's data processing and validation procedures.
#
#######################################################################

data_RATVAL
_symmetry_cell_setting           triclinic
_symmetry_space_group_name_H-M   'P -1'
_symmetry_Int_Tables_number      2
_space_group_name_Hall           '-P 1'
loop_
_symmetry_equiv_pos_site_id
_symmetry_equiv_pos_as_xyz
1 x,y,z
2 -x,-y,-z
_cell_length_a                   7.6328(12)
_cell_length_b                   9.7057(16)
_cell_length_c                   11.3797(18)
_cell_angle_alpha                109.404(2)
_cell_angle_beta                 90.026(2)
_cell_angle_gamma                92.528(2)
_cell_volume                     794.267
loop_
_atom_site_label
_atom_site_type_symbol
_atom_site_fract_x
_atom_site_fract_y
_atom_site_fract_z
Cl1 Cl 0.50886(12) 0.53694(11) 0.23533(9)
Mg1 Mg 1.0000 1.0000 0.5000
Mg2 Mg 1.0000 0.5000 0.0000
Mg3 Mg 1.0000 1.5000 0.5000
O1 O 1.0529(3) 1.1443(2) 0.41271(18)
O2 O 1.0238(3) 0.8353(2) 0.33720(18)
O3 O 1.0205(3) 0.6882(2) 0.14235(18)
O4 O 0.9459(3) 1.3146(2) 0.34702(19)
C1 C 0.6864(4) 0.9790(3) -0.0804(3)
C2 C 0.9135(4) 0.9196(3) 0.1773(3)
C3 C 0.9909(4) 0.8065(3) 0.2228(3)
C4 C 0.9725(4) 1.1842(3) 0.3336(3)
C5 C 0.9051(4) 1.0701(3) 0.2174(3)
C6 C 0.7813(4) 0.9881(3) 0.0352(3)
C7 C 0.6412(4) 0.8464(4) -0.1705(3)
H1 H 0.6694 0.7591 -0.1598
C8 C 0.5560(5) 1.0948(4) -0.2109(3)
H2 H 0.5270 1.1806 -0.2242
C9 C 0.5532(5) 0.8458(4) -0.2771(3)
H3 H 0.5210 0.7561 -0.3365
C10 C 0.6423(4) 1.1066(4) -0.1010(3)
H4 H 0.6703 1.1977 -0.0423
N1 N 0.8343(3) 0.8714(3) 0.0617(2)
H5 H 0.8208 0.7817 0.0142
N2 N 0.8247(3) 1.1114(3) 0.1264(2)
N3 N 0.5119(4) 0.9683(4) -0.2988(3)
O5 O 1.1375(3) 1.5835(2) 0.3761(2)
H6 H 1.2486 1.5886 0.3710
H7 H 1.0987 1.6606 0.3678
O6 O 1.2214(3) 1.4088(2) 0.5395(2)
H8 H 1.2008 1.3183 0.5002
H9 H 1.3202 1.4180 0.5765
O7 O 1.0232(4) 0.6101(2) -0.1266(2)
H10 H 1.0626 0.6916 -0.1309
H11 H 0.9902 0.5568 -0.1995
O8 O 1.2660(3) 0.4713(3) 0.0016(2)
H12 H 1.3341 0.4643 0.0582
H13 H 1.3280 0.4677 -0.0613
O9 O 1.2721(3) 0.9970(3) 0.5244(2)
H14 H 1.3437 0.9777 0.5734
H15 H 1.3314 1.0157 0.4679
Mg1_2 Mg 1.0000 0.0000 -0.5000
Mg3_2 Mg 1.0000 -0.5000 -0.5000
O1A O 0.9471(3) -0.1443(2) -0.41271(18)
O1A_2 O 0.9471(3) 0.8557(2) 0.58729(18)
O2A O 0.9762(3) 0.1647(2) -0.33720(18)
O2A_2 O 0.9762(3) 1.1647(2) 0.66280(18)
O3A O 0.9795(3) 0.3118(2) -0.14235(18)
O4A O 1.0541(3) -0.3146(2) -0.34702(19)
O4A_2 O 1.0541(3) 1.6854(2) 0.65298(19)
C1A C 1.3136(4) 0.0210(3) 0.0804(3)
C2A C 1.0865(4) 0.0804(3) -0.1773(3)
C3A C 1.0091(4) 0.1935(3) -0.2228(3)
C4A C 1.0275(4) -0.1842(3) -0.3336(3)
C5A C 1.0949(4) -0.0701(3) -0.2174(3)
C6A C 1.2187(4) 0.0119(3) -0.0352(3)
C7A C 1.3588(4) 0.1536(4) 0.1705(3)
H1A H 1.3306 0.2409 0.1598
C8A C 1.4440(5) -0.0948(4) 0.2109(3)
H2A H 1.4730 -0.1806 0.2242
C9A C 1.4468(5) 0.1542(4) 0.2771(3)
H3A H 1.4790 0.2439 0.3365
C10A C 1.3577(4) -0.1066(4) 0.1010(3)
H4A H 1.3297 -0.1977 0.0423
N1A N 1.1657(3) 0.1286(3) -0.0617(2)
H5A H 1.1792 0.2183 -0.0142
N2A N 1.1753(3) -0.1114(3) -0.1264(2)
N3A N 1.4881(4) 0.0317(4) 0.2988(3)
O5A O 0.8625(3) 1.4165(2) 0.6239(2)
H6A H 0.7514 1.4114 0.6290
H7A H 0.9013 1.3394 0.6322
O6A O 0.7786(3) 1.5912(2) 0.4605(2)
H8A H 0.7992 1.6817 0.4998
H9A H 0.6798 1.5820 0.4235
O7A O 0.9768(4) 0.3899(2) 0.1266(2)
H10A H 0.9374 0.3084 0.1309
H11A H 1.0098 0.4432 0.1995
O8A O 0.7340(3) 0.5287(3) -0.0016(2)
H12A H 0.6659 0.5357 -0.0582
H13A H 0.6720 0.5323 0.0613
O9A O 0.7279(3) 1.0030(3) 0.4756(2)
H14A H 0.6563 1.0223 0.4266
H15A H 0.6686 0.9843 0.5321
loop_
_geom_bond_atom_site_label_1
_geom_bond_atom_site_label_2
_geom_bond_site_symmetry_1
_geom_bond_site_symmetry_2
Mg1 O1 1_555 1_555
Mg2 O3 1_555 1_555
Mg3 O4 1_555 1_555
O1 C4 1_555 1_555
O2 Mg1 1_555 1_555
O3 C3 1_555 1_555
O4 C4 1_555 1_555
C1 C6 1_555 1_555
C2 C3 1_555 1_555
C3 O2 1_555 1_555
C4 C5 1_555 1_555
C5 C2 1_555 1_555
C6 N1 1_555 1_555
C7 C1 1_555 1_555
H1 C7 1_555 1_555
C8 H2 1_555 1_555
C9 C7 1_555 1_555
H3 C9 1_555 1_555
C10 C1 1_555 1_555
H4 C10 1_555 1_555
N1 C2 1_555 1_555
H5 N1 1_555 1_555
N2 C5 1_555 1_555
N3 C8 1_555 1_555
O5 Mg3 1_555 1_555
H6 O5 1_555 1_555
H7 O5 1_555 1_555
O6 Mg3 1_555 1_555
H8 O6 1_555 1_555
H9 O6 1_555 1_555
O7 Mg2 1_555 1_555
H10 O7 1_555 1_555
H11 O7 1_555 1_555
O8 Mg2 1_555 1_555
H12 O8 1_555 1_555
H13 O8 1_555 1_555
O9 Mg1 1_555 1_555
H14 O9 1_555 1_555
H15 O9 1_555 1_555
Mg1_2 O1A 1_555 1_555
Mg3_2 O4A 1_555 1_555
O1A C4A 1_555 1_555
O1A_2 Mg1 1_555 1_555
O2A Mg1_2 1_555 1_555
O2A_2 Mg1 1_555 1_555
O3A Mg2 1_555 1_555
O4A C4A 1_555 1_555
O4A_2 Mg3 1_555 1_555
C1A C6A 1_555 1_555
C2A C3A 1_555 1_555
C3A O2A 1_555 1_555
C4A C5A 1_555 1_555
C5A C2A 1_555 1_555
C6A N1A 1_555 1_555
C7A C1A 1_555 1_555
H1A C7A 1_555 1_555
C8A H2A 1_555 1_555
C9A C7A 1_555 1_555
H3A C9A 1_555 1_555
C10A C1A 1_555 1_555
H4A C10A 1_555 1_555
N1A C2A 1_555 1_555
H5A N1A 1_555 1_555
N2A C5A 1_555 1_555
N3A C8A 1_555 1_555
O5A Mg3 1_555 1_555
H6A O5A 1_555 1_555
H7A O5A 1_555 1_555
O6A Mg3 1_555 1_555
H8A O6A 1_555 1_555
H9A O6A 1_555 1_555
O7A Mg2 1_555 1_555
H10A O7A 1_555 1_555
H11A O7A 1_555 1_555
O8A Mg2 1_555 1_555
H12A O8A 1_555 1_555
H13A O8A 1_555 1_555
O9A Mg1 1_555 1_555
H14A O9A 1_555 1_555
H15A O9A 1_555 1_555
C6 N2 1_555 1_555
C8 C10 1_555 1_555
C9 N3 1_555 1_555
O3A C3A 1_555 1_555
C6A N2A 1_555 1_555
C8A C10A 1_555 1_555
C9A N3A 1_555 1_555

#END
