
#######################################################################
#
#                 Cambridge Crystallographic Data Centre
#                                CCDC 
#
#######################################################################
#
# If this CIF has been generated from an entry in the Cambridge 
# Structural Database, then it will include bibliographic, chemical, 
# crystal, experimental, refinement or atomic coordinate data resulting 
# from the CCDC's data processing and validation procedures.
#
#######################################################################

data_RATVEP
_symmetry_cell_setting           orthorhombic
_symmetry_space_group_name_H-M   'P n a 21'
_symmetry_Int_Tables_number      33
_space_group_name_Hall           'P 2c -2n'
loop_
_symmetry_equiv_pos_site_id
_symmetry_equiv_pos_as_xyz
1 x,y,z
2 -x,-y,1/2+z
3 1/2+x,1/2-y,z
4 1/2-x,1/2+y,1/2+z
_cell_length_a                   7.7639(10)
_cell_length_b                   10.1765(14)
_cell_length_c                   15.949(2)
_cell_angle_alpha                90
_cell_angle_beta                 90
_cell_angle_gamma                90
_cell_volume                     1260.12
loop_
_atom_site_label
_atom_site_type_symbol
_atom_site_fract_x
_atom_site_fract_y
_atom_site_fract_z
Mg1 Mg 0.13974(13) 0.97018(10) 0.21074(7)
O1 O 0.3394(3) 0.8615(2) 0.16324(16)
O2 O 0.4719(3) 0.6682(2) 0.16083(15)
O3 O 0.4388(3) 0.4266(2) 0.25668(17)
O4 O 0.2989(3) 1.1092(2) 0.26174(18)
H1 H 0.4027 1.1256 0.2751
H2 H 0.2382 1.1751 0.2760
N1 N -0.1094(4) 0.9258(3) 0.58983(19)
N2 N 0.1819(3) 0.8017(3) 0.31170(18)
N3 N 0.1312(3) 0.6076(3) 0.36857(17)
H3 H 0.0896 0.5488 0.4016
C1 C 0.1066(4) 0.7390(3) 0.3750(2)
C2 C 0.2340(4) 0.5848(3) 0.3003(2)
C3 C 0.2645(4) 0.7073(3) 0.2657(2)
C4 C 0.0225(4) 0.8014(3) 0.4472(2)
C5 C -0.1070(5) 0.7957(4) 0.5832(2)
H4 H -0.1496 0.7460 0.6275
C6 C -0.0499(5) 0.9944(4) 0.5236(2)
H5 H -0.0544 1.0856 0.5260
C7 C -0.0438(5) 0.7306(4) 0.5132(2)
H6 H -0.0463 0.6393 0.5109
C8 C 0.2858(4) 0.4470(3) 0.2778(2)
O5 O 0.1709(3) 0.3617(2) 0.2838(2)
C9 C 0.0172(5) 0.9372(3) 0.4524(2)
H7 H 0.0582 0.9889 0.4086
C10 C 0.3670(4) 0.7473(3) 0.19080(19)
Mg1A Mg -0.13974(13) 1.02982(10) 0.71074(7)
Mg1B Mg 0.63974(13) 0.52982(10) 0.21074(7)
O2B O -0.0281(3) 0.8318(2) 0.16083(15)
O3B O -0.0612(3) 1.0734(2) 0.25668(17)
N1A N 0.1094(4) 1.0742(3) 0.08983(19)
O6 O 1.0462(5) 0.4147(4) 0.4961(2)
H8 H 1.0730 0.3979 0.5447
C11 C 0.8700(18) 0.3364(12) 0.4721(9)
H9 H 0.8109 0.3117 0.5226
H10 H 0.8982 0.2590 0.4406
H11 H 0.7972 0.3924 0.4391
loop_
_geom_bond_atom_site_label_1
_geom_bond_atom_site_label_2
_geom_bond_site_symmetry_1
_geom_bond_site_symmetry_2
Mg1 O1 1_555 1_555
O1 C10 1_555 1_555
O2 C10 1_555 1_555
O3 C8 1_555 1_555
O4 Mg1 1_555 1_555
H1 O4 1_555 1_555
H2 O4 1_555 1_555
N1 C5 1_555 1_555
N2 Mg1 1_555 1_555
N3 H3 1_555 1_555
C1 N2 1_555 1_555
C2 N3 1_555 1_555
C3 N2 1_555 1_555
C4 C1 1_555 1_555
C5 H4 1_555 1_555
C6 N1 1_555 1_555
H5 C6 1_555 1_555
C7 C4 1_555 1_555
H6 C7 1_555 1_555
C8 C2 1_555 1_555
O5 C8 1_555 1_555
C9 C4 1_555 1_555
H7 C9 1_555 1_555
C10 C3 1_555 1_555
O6 H8 1_555 1_555
C11 O6 1_555 1_555
H9 C11 1_555 1_555
H10 C11 1_555 1_555
H11 C11 1_555 1_555
Mg1A N1 1_555 1_555
Mg1B O2 1_555 1_555
O2B Mg1 1_555 1_555
O3B Mg1 1_555 1_555
N1A Mg1 1_555 1_555
O3 Mg1B 1_555 1_555
N3 C1 1_555 1_555
C2 C3 1_555 1_555
C5 C7 1_555 1_555
C6 C9 1_555 1_555

#END
