
#######################################################################
#
#                 Cambridge Crystallographic Data Centre
#                                CCDC 
#
#######################################################################
#
# If this CIF has been generated from an entry in the Cambridge 
# Structural Database, then it will include bibliographic, chemical, 
# crystal, experimental, refinement or atomic coordinate data resulting 
# from the CCDC's data processing and validation procedures.
#
#######################################################################

data_RAVCUO
_symmetry_cell_setting           monoclinic
_symmetry_space_group_name_H-M   'P 21/n'
_symmetry_Int_Tables_number      14
_space_group_name_Hall           '-P 2yn'
loop_
_symmetry_equiv_pos_site_id
_symmetry_equiv_pos_as_xyz
1 x,y,z
2 1/2-x,1/2+y,1/2-z
3 -x,-y,-z
4 1/2+x,1/2-y,1/2+z
_cell_length_a                   9.2307(4)
_cell_length_b                   13.6222(6)
_cell_length_c                   14.7072(7)
_cell_angle_alpha                90
_cell_angle_beta                 90.2710(10)
_cell_angle_gamma                90
_cell_volume                     1849.3
loop_
_atom_site_label
_atom_site_type_symbol
_atom_site_fract_x
_atom_site_fract_y
_atom_site_fract_z
Nd1 Nd 0.25085(2) 0.502452(18) 0.093125(15)
C1 C 0.0024(5) 0.6104(3) 0.3295(3)
C2 C 0.0266(5) 0.7040(3) 0.3658(3)
H1 H 0.0916 0.7479 0.3367
C3 C -0.0454(5) 0.7327(3) 0.4451(3)
C4 C -0.1357(5) 0.6660(3) 0.4883(3)
H2 H -0.1850 0.6856 0.5418
C5 C -0.1561(5) 0.5709(3) 0.4551(3)
C6 C -0.0891(5) 0.5459(4) 0.3742(3)
H3 H -0.1062 0.4828 0.3487
C7 C -0.2416(6) 0.4976(4) 0.5097(3)
H4 H -0.1725 0.4586 0.5466
H5 H -0.3038 0.5344 0.5525
C8 C -0.3358(5) 0.4278(3) 0.4572(3)
C9 C -0.3566(5) 0.3330(3) 0.4896(3)
H6 H -0.3031 0.3112 0.5411
C10 C -0.4549(5) 0.2693(3) 0.4476(3)
C11 C -0.5320(5) 0.3007(3) 0.3716(3)
H7 H -0.6017 0.2589 0.3439
C12 C -0.5063(5) 0.3942(3) 0.3363(3)
C13 C -0.4092(5) 0.4568(3) 0.3793(3)
H8 H -0.3928 0.5205 0.3551
C14 C 0.0809(5) 0.5752(3) 0.2461(3)
C15 C -0.0261(5) 0.8333(3) 0.4850(3)
C16 C -0.4743(5) 0.1667(3) 0.4867(3)
C17 C -0.5858(5) 0.4320(3) 0.2534(3)
O1 O 0.0249(4) 0.5077(2) 0.1994(2)
O2 O 0.2027(3) 0.6125(2) 0.2281(2)
O3 O 0.0612(4) 0.8904(2) 0.4487(3)
O4 O -0.1004(4) 0.8552(2) 0.5538(2)
O5 O -0.3822(4) 0.1389(3) 0.5438(3)
O6 O -0.5778(4) 0.1183(3) 0.4594(3)
O7 O -0.7051(4) 0.3943(2) 0.2324(2)
O8 O -0.5287(4) 0.5016(3) 0.2077(2)
O9 O 0.2577(4) 0.5050(3) -0.0856(2)
H17 H 0.336(4) 0.494(5) -0.119(4)
H18 H 0.175(4) 0.494(5) -0.115(4)
Nd1_2 Nd -0.74915(2) 0.502452(18) 0.093125(15)
Nd1A Nd -0.75085(2) 0.002452(18) 0.406875(15)
Nd1A_2 Nd 0.24915(2) 1.002452(18) 0.406875(15)
Nd1C Nd -0.24915(2) -0.002452(18) 0.593125(15)
Nd1C_2 Nd -0.24915(2) 0.997548(18) 0.593125(15)
O3A O 0.4388(4) 0.3904(2) 0.0513(3)
O4C O 0.3996(4) 0.6448(2) 0.0538(2)
O5C O 0.1178(4) 0.3611(3) 0.0438(3)
O6A O 0.0778(4) 0.6183(3) 0.0406(3)
O7_2 O 0.2949(4) 0.3943(2) 0.2324(2)
O8_2 O 0.4713(4) 0.5016(3) 0.2077(2)
C18 C 0.6803(9) 0.7166(7) 0.1948(8)
H9 H 0.7045 0.6771 0.1414
H10 H 0.7416 0.6968 0.2462
H11 H 0.6967 0.7862 0.1814
C19 C 0.4844(9) 0.7578(6) 0.2949(5)
H12 H 0.3825 0.7456 0.3093
H13 H 0.4980 0.8276 0.2812
H14 H 0.5450 0.7396 0.3471
N1 N 0.5244(7) 0.7011(4) 0.2186(4)
H15 H 0.4688(16) 0.713(3) 0.1672(9)
H16 H 0.505(3) 0.6357(10) 0.221(2)
loop_
_geom_bond_atom_site_label_1
_geom_bond_atom_site_label_2
_geom_bond_site_symmetry_1
_geom_bond_site_symmetry_2
Nd1 O1 1_555 1_555
C1 C2 1_555 1_555
C2 H1 1_555 1_555
C3 C2 1_555 1_555
C4 C3 1_555 1_555
H2 C4 1_555 1_555
C5 C4 1_555 1_555
C6 C1 1_555 1_555
H3 C6 1_555 1_555
C7 C5 1_555 1_555
H4 C7 1_555 1_555
H5 C7 1_555 1_555
C8 C7 1_555 1_555
C9 C8 1_555 1_555
H6 C9 1_555 1_555
C10 C9 1_555 1_555
C11 C10 1_555 1_555
H7 C11 1_555 1_555
C12 C11 1_555 1_555
C13 C8 1_555 1_555
H8 C13 1_555 1_555
C14 C1 1_555 1_555
C15 C3 1_555 1_555
C16 C10 1_555 1_555
C17 C12 1_555 1_555
C18 H9 1_555 1_555
H10 C18 1_555 1_555
H11 C18 1_555 1_555
C19 H12 1_555 1_555
H13 C19 1_555 1_555
H14 C19 1_555 1_555
N1 C18 1_555 1_555
H15 N1 1_555 1_555
H16 N1 1_555 1_555
O1 C14 1_555 1_555
O2 Nd1 1_555 1_555
O3 C15 1_555 1_555
O4 C15 1_555 1_555
O5 C16 1_555 1_555
O6 C16 1_555 1_555
O7 C17 1_555 1_555
O8 C17 1_555 1_555
O9 Nd1 1_555 1_555
H17 O9 1_555 1_555
H18 O9 1_555 1_555
Nd1_2 O7 1_555 1_555
Nd1A O6 1_555 1_555
Nd1A_2 O3 1_555 1_555
Nd1C O5 1_555 1_555
Nd1C_2 O4 1_555 1_555
O3A Nd1 1_555 1_555
O4C Nd1 1_555 1_555
O5C Nd1 1_555 1_555
O6A Nd1 1_555 1_555
O7_2 Nd1 1_555 1_555
O8_2 Nd1 1_555 1_555
C5 C6 1_555 1_555
C12 C13 1_555 1_555
C14 O2 1_555 1_555
C19 N1 1_555 1_555
O8 Nd1_2 1_555 1_555

#END
