
#######################################################################
#
#                 Cambridge Crystallographic Data Centre
#                                CCDC 
#
#######################################################################
#
# If this CIF has been generated from an entry in the Cambridge 
# Structural Database, then it will include bibliographic, chemical, 
# crystal, experimental, refinement or atomic coordinate data resulting 
# from the CCDC's data processing and validation procedures.
#
#######################################################################

data_RAVCOI
_symmetry_cell_setting           monoclinic
_symmetry_space_group_name_H-M   'P 21/n'
_symmetry_Int_Tables_number      14
_space_group_name_Hall           '-P 2yn'
loop_
_symmetry_equiv_pos_site_id
_symmetry_equiv_pos_as_xyz
1 x,y,z
2 1/2-x,1/2+y,1/2-z
3 -x,-y,-z
4 1/2+x,1/2-y,1/2+z
_cell_length_a                   9.2770(6)
_cell_length_b                   13.6193(9)
_cell_length_c                   14.7288(11)
_cell_angle_alpha                90
_cell_angle_beta                 90.2740(10)
_cell_angle_gamma                90
_cell_volume                     1860.91
loop_
_atom_site_label
_atom_site_type_symbol
_atom_site_fract_x
_atom_site_fract_y
_atom_site_fract_z
Pr1 Pr 0.25116(3) -0.00315(2) 0.092633(18)
C1 C 0.4935(6) 0.1047(4) 0.3366(4)
C2 C 0.4674(6) 0.1976(4) 0.3724(4)
H1 H 0.3970 0.2391 0.3452
C3 C 0.5446(6) 0.2295(4) 0.4479(4)
C4 C 0.6434(6) 0.1663(4) 0.4900(4)
H2 H 0.6966 0.1882 0.5414
C5 C 0.6643(6) 0.0722(4) 0.4573(4)
C6 C 0.5918(6) 0.0434(4) 0.3799(4)
H3 H 0.6094 -0.0201 0.3554
C7 C 0.7592(7) 0.0031(5) 0.5098(4)
H4 H 0.697(7) -0.029(5) 0.549(4)
H5 H 0.823(7) 0.040(5) 0.549(4)
C8 C 0.8438(6) -0.0704(4) 0.4548(4)
C9 C 0.9110(6) -0.0452(4) 0.3739(4)
H6 H 0.8940 0.0179 0.3485
C10 C 1.0021(6) -0.1098(4) 0.3291(4)
C11 C 1.0263(6) -0.2033(4) 0.3655(4)
H7 H 1.0911 -0.2472 0.3366
C12 C 0.9548(6) -0.2320(4) 0.4446(4)
C13 C 0.8646(6) -0.1651(4) 0.4882(4)
H8 H 0.8162 -0.1846 0.5420
C14 C 0.4148(6) 0.0674(4) 0.2542(4)
C15 C 0.5253(6) 0.3319(4) 0.4867(4)
C16 C 1.0806(6) -0.0751(4) 0.2463(4)
C17 C 0.9739(6) -0.3325(4) 0.4851(4)
O1 O 0.4712(4) -0.0025(3) 0.2083(3)
O2 O 0.2957(4) 0.1049(3) 0.2328(3)
O3 O 0.4197(5) 0.3799(3) 0.4607(3)
O4 O 0.6183(5) 0.3615(3) 0.5415(3)
O5 O 1.0240(4) -0.0089(3) 0.1983(3)
O6 O 1.2014(4) -0.1129(3) 0.2286(3)
O7 O 1.0613(5) -0.3898(3) 0.4489(3)
O8 O 0.9023(4) -0.3540(3) 0.5539(3)
O9 O 0.2585(5) -0.0063(4) -0.0874(3)
H9 H 0.188(5) -0.004(6) -0.129(4)
H10 H 0.337(5) 0.010(6) -0.118(4)
Pr1_2 Pr 1.25116(3) -0.00315(2) 0.092633(18)
Pr1A Pr 0.24884(3) 0.49685(2) 0.407367(18)
Pr1A_2 Pr 1.24884(3) -0.50315(2) 0.407367(18)
Pr1C Pr 0.75116(3) -0.49685(2) 0.592633(18)
Pr1C_2 Pr 0.75116(3) 0.50315(2) 0.592633(18)
C16_2 C 0.0806(6) -0.0751(4) 0.2463(4)
O3A O 0.0803(5) -0.1201(3) 0.0393(3)
O4C O 0.1183(5) 0.1385(3) 0.0415(3)
O5_2 O 0.0240(4) -0.0089(3) 0.1983(3)
O6_2 O 0.2014(4) -0.1129(3) 0.2286(3)
O7A O 0.4387(5) 0.1102(3) 0.0511(3)
O8C O 0.4023(4) -0.1460(3) 0.0539(3)
C18 C 0.4827(9) -0.2600(6) 0.2945(6)
H11 H 0.3813 -0.2473 0.3088
H12 H 0.5428 -0.2437 0.3473
H13 H 0.4951 -0.3296 0.2794
C19 C 0.6804(10) -0.2158(7) 0.1954(7)
H14 H 0.7059 -0.1738 0.1439
H15 H 0.6964 -0.2847 0.1792
H16 H 0.7406 -0.1987 0.2479
N1 N 0.5249(7) -0.2008(4) 0.2186(4)
H17 H 0.4696(16) -0.210(3) 0.1678(9)
H18 H 0.506(3) -0.1356(9) 0.225(2)
loop_
_geom_bond_atom_site_label_1
_geom_bond_atom_site_label_2
_geom_bond_site_symmetry_1
_geom_bond_site_symmetry_2
Pr1 O1 1_555 1_555
C1 C2 1_555 1_555
C2 H1 1_555 1_555
C3 C2 1_555 1_555
C4 C3 1_555 1_555
H2 C4 1_555 1_555
C5 C4 1_555 1_555
C6 C1 1_555 1_555
H3 C6 1_555 1_555
C7 C5 1_555 1_555
H4 C7 1_555 1_555
H5 C7 1_555 1_555
C8 C7 1_555 1_555
C9 C8 1_555 1_555
H6 C9 1_555 1_555
C10 C9 1_555 1_555
C11 C10 1_555 1_555
H7 C11 1_555 1_555
C12 C11 1_555 1_555
C13 C8 1_555 1_555
H8 C13 1_555 1_555
C14 C1 1_555 1_555
C15 C3 1_555 1_555
C16 C10 1_555 1_555
C17 C12 1_555 1_555
O1 C14 1_555 1_555
O2 Pr1 1_555 1_555
O3 C15 1_555 1_555
O4 C15 1_555 1_555
O5 C16 1_555 1_555
O6 C16 1_555 1_555
O7 C17 1_555 1_555
O8 C17 1_555 1_555
O9 Pr1 1_555 1_555
H9 O9 1_555 1_555
H10 O9 1_555 1_555
C18 H11 1_555 1_555
H12 C18 1_555 1_555
H13 C18 1_555 1_555
C19 H14 1_555 1_555
H15 C19 1_555 1_555
H16 C19 1_555 1_555
N1 C18 1_555 1_555
H17 N1 1_555 1_555
H18 N1 1_555 1_555
Pr1_2 O5 1_555 1_555
Pr1A O3 1_555 1_555
Pr1A_2 O7 1_555 1_555
Pr1C O8 1_555 1_555
Pr1C_2 O4 1_555 1_555
C16_2 O5_2 1_555 1_555
O3A Pr1 1_555 1_555
O4C Pr1 1_555 1_555
O5_2 Pr1 1_555 1_555
O6_2 Pr1 1_555 1_555
O7A Pr1 1_555 1_555
O8C Pr1 1_555 1_555
C5 C6 1_555 1_555
C12 C13 1_555 1_555
C14 O2 1_555 1_555
O6 Pr1_2 1_555 1_555
C19 N1 1_555 1_555
C16_2 O6_2 1_555 1_555

#END
