
#######################################################################
#
#                 Cambridge Crystallographic Data Centre
#                                CCDC 
#
#######################################################################
#
# If this CIF has been generated from an entry in the Cambridge 
# Structural Database, then it will include bibliographic, chemical, 
# crystal, experimental, refinement or atomic coordinate data resulting 
# from the CCDC's data processing and validation procedures.
#
#######################################################################

data_RAVDEZ
_symmetry_cell_setting           monoclinic
_symmetry_space_group_name_H-M   'P 21/n'
_symmetry_Int_Tables_number      14
_space_group_name_Hall           '-P 2yn'
loop_
_symmetry_equiv_pos_site_id
_symmetry_equiv_pos_as_xyz
1 x,y,z
2 1/2-x,1/2+y,1/2-z
3 -x,-y,-z
4 1/2+x,1/2-y,1/2+z
_cell_length_a                   9.2390(5)
_cell_length_b                   13.5278(8)
_cell_length_c                   14.6379(8)
_cell_angle_alpha                90
_cell_angle_beta                 90.3540(10)
_cell_angle_gamma                90
_cell_volume                     1829.46
loop_
_atom_site_label
_atom_site_type_symbol
_atom_site_fract_x
_atom_site_fract_y
_atom_site_fract_z
Eu1 Eu -0.24883(2) 0.503095(18) -0.407351(15)
C1 C -0.0083(5) 0.3946(4) -0.1639(3)
C2 C -0.0360(5) 0.3006(4) -0.1285(3)
H1 H -0.1077 0.2594 -0.1556
C3 C 0.0436(5) 0.2678(4) -0.0522(3)
C4 C 0.1440(5) 0.3321(4) -0.0110(3)
H2 H 0.1992 0.3096 0.0399
C5 C 0.1645(5) 0.4277(4) -0.0427(3)
C6 C 0.0911(5) 0.4568(4) -0.1211(4)
H3 H 0.1091 0.5204 -0.1461
C7 C 0.2618(6) 0.4968(4) 0.0087(3)
C8 C 0.3455(5) 0.5714(4) -0.0457(3)
C9 C 0.3658(5) 0.6665(4) -0.0125(3)
H4 H 0.3169 0.6861 0.0414
C10 C 0.4557(5) 0.7338(4) -0.0559(3)
C11 C 0.5271(5) 0.7047(4) -0.1354(3)
H5 H 0.5922 0.7489 -0.1644
C12 C 0.5033(5) 0.6109(3) -0.1722(3)
C13 C 0.4109(5) 0.5456(4) -0.1274(3)
H6 H 0.3924 0.4824 -0.1533
C14 C -0.0872(6) 0.4325(4) -0.2474(3)
C15 C 0.0235(5) 0.1653(4) -0.0138(3)
C16 C 0.4752(5) 0.8346(4) -0.0158(3)
C17 C 0.5829(6) 0.5748(4) -0.2555(3)
O1 O -0.0294(4) 0.5024(3) -0.2927(2)
O2 O -0.2069(4) 0.3956(3) -0.2694(2)
O3 O -0.0835(4) 0.1171(3) -0.0379(3)
O4 O 0.1191(4) 0.1348(3) 0.0402(2)
O5 O 0.4006(4) 0.8571(2) 0.0539(2)
O6 O 0.5640(4) 0.8923(3) -0.0512(2)
O7 O 0.7051(4) 0.6127(2) -0.2737(2)
O8 O 0.5256(4) 0.5080(3) -0.3041(2)
O9 O -0.2391(4) 0.5061(3) -0.5844(3)
H13 H -0.325(3) 0.502(4) -0.613(4)
H14 H -0.170(5) 0.515(4) -0.625(3)
H15 H 0.210(6) 0.533(4) 0.055(3)
H16 H 0.326(5) 0.456(4) 0.045(3)
Eu1_2 Eu 0.75117(2) 0.503095(18) -0.407351(15)
Eu1A Eu -0.25117(2) 0.003095(18) -0.092649(15)
Eu1A_2 Eu 0.74883(2) 1.003095(18) -0.092649(15)
Eu1C Eu 0.25117(2) -0.003095(18) 0.092649(15)
Eu1C_2 Eu 0.25117(2) 0.996905(18) 0.092649(15)
C17_2 C -0.4171(6) 0.5748(4) -0.2555(3)
O3A O -0.4165(4) 0.6171(3) -0.4621(3)
O4C O -0.3809(4) 0.3652(3) -0.4598(2)
O5C O -0.0994(4) 0.6429(2) -0.4461(2)
O6A O -0.0640(4) 0.3923(3) -0.4488(2)
O7_2 O -0.2949(4) 0.6127(2) -0.2737(2)
O8_2 O -0.4744(4) 0.5080(3) -0.3041(2)
C18 C 0.6772(7) 0.7834(6) 0.1911(5)
H7 H 0.6995 0.8243 0.1378
H8 H 0.6923 0.7136 0.1760
H9 H 0.7410 0.8019 0.2420
C19 C 0.4851(7) 0.7425(5) 0.2967(4)
H10 H 0.3839 0.7562 0.3119
H11 H 0.5474 0.7610 0.3483
H12 H 0.4966 0.6719 0.2838
N1 N 0.5252(6) 0.7989(4) 0.2176(3)
H17 H 0.505(6) 0.860(2) 0.240(4)
H18 H 0.4646(14) 0.788(2) 0.1685(9)
loop_
_geom_bond_atom_site_label_1
_geom_bond_atom_site_label_2
_geom_bond_site_symmetry_1
_geom_bond_site_symmetry_2
Eu1 O1 1_555 1_555
C1 C2 1_555 1_555
C2 H1 1_555 1_555
C3 C2 1_555 1_555
C4 C3 1_555 1_555
H2 C4 1_555 1_555
C5 C4 1_555 1_555
C6 C1 1_555 1_555
H3 C6 1_555 1_555
C7 C5 1_555 1_555
C8 C7 1_555 1_555
C9 C8 1_555 1_555
H4 C9 1_555 1_555
C10 C9 1_555 1_555
C11 C10 1_555 1_555
H5 C11 1_555 1_555
C12 C11 1_555 1_555
C13 C8 1_555 1_555
H6 C13 1_555 1_555
C14 C1 1_555 1_555
C15 C3 1_555 1_555
C16 C10 1_555 1_555
C17 C12 1_555 1_555
C18 H7 1_555 1_555
H8 C18 1_555 1_555
H9 C18 1_555 1_555
C19 H10 1_555 1_555
H11 C19 1_555 1_555
H12 C19 1_555 1_555
N1 C18 1_555 1_555
O1 C14 1_555 1_555
O2 Eu1 1_555 1_555
O3 C15 1_555 1_555
O4 C15 1_555 1_555
O5 C16 1_555 1_555
O6 C16 1_555 1_555
O7 C17 1_555 1_555
O8 C17 1_555 1_555
O9 Eu1 1_555 1_555
H13 O9 1_555 1_555
H14 O9 1_555 1_555
H15 C7 1_555 1_555
H16 C7 1_555 1_555
H17 N1 1_555 1_555
H18 N1 1_555 1_555
Eu1_2 O7 1_555 1_555
Eu1A O3 1_555 1_555
Eu1A_2 O6 1_555 1_555
Eu1C O4 1_555 1_555
Eu1C_2 O5 1_555 1_555
C17_2 O7_2 1_555 1_555
O3A Eu1 1_555 1_555
O4C Eu1 1_555 1_555
O5C Eu1 1_555 1_555
O6A Eu1 1_555 1_555
O7_2 Eu1 1_555 1_555
O8_2 Eu1 1_555 1_555
C5 C6 1_555 1_555
C12 C13 1_555 1_555
C14 O2 1_555 1_555
C19 N1 1_555 1_555
O8 Eu1_2 1_555 1_555
C17_2 O8_2 1_555 1_555

#END
