
#######################################################################
#
#                 Cambridge Crystallographic Data Centre
#                                CCDC 
#
#######################################################################
#
# If this CIF has been generated from an entry in the Cambridge 
# Structural Database, then it will include bibliographic, chemical, 
# crystal, experimental, refinement or atomic coordinate data resulting 
# from the CCDC's data processing and validation procedures.
#
#######################################################################

data_RAVDAV
_symmetry_cell_setting           monoclinic
_symmetry_space_group_name_H-M   'P 21/n'
_symmetry_Int_Tables_number      14
_space_group_name_Hall           '-P 2yn'
loop_
_symmetry_equiv_pos_site_id
_symmetry_equiv_pos_as_xyz
1 x,y,z
2 1/2-x,1/2+y,1/2-z
3 -x,-y,-z
4 1/2+x,1/2-y,1/2+z
_cell_length_a                   9.2161(6)
_cell_length_b                   13.5618(9)
_cell_length_c                   14.6623(9)
_cell_angle_alpha                90
_cell_angle_beta                 90.2090(10)
_cell_angle_gamma                90
_cell_volume                     1832.58
loop_
_atom_site_label
_atom_site_type_symbol
_atom_site_fract_x
_atom_site_fract_y
_atom_site_fract_z
Sm1 Sm 0.75075(3) 0.99773(2) -0.406937(19)
C1 C 0.5038(6) 0.8891(4) -0.1706(4)
C2 C 0.5284(6) 0.7958(4) -0.1340(4)
H1 H 0.5951 0.7522 -0.1624
C3 C 0.4548(6) 0.7664(4) -0.0553(4)
C4 C 0.3637(7) 0.8334(4) -0.0114(4)
H2 H 0.3151 0.8137 0.0427
C5 C 0.3423(7) 0.9286(4) -0.0450(4)
C6 C 0.4115(7) 0.9549(4) -0.1262(4)
H3 H 0.3954 1.0185 -0.1516
C7 C 0.2574(7) 1.0024(5) 0.0100(4)
H4 H 0.1955 0.9657 0.0534
H5 H 0.3269 1.0419 0.0464
C8 C 0.1623(7) 1.0724(4) -0.0430(4)
C9 C 0.1426(6) 1.1671(4) -0.0103(4)
H6 H 0.1968 1.1887 0.0412
C10 C 0.0434(6) 1.2319(4) -0.0523(4)
C11 C -0.0333(7) 1.2000(4) -0.1291(4)
H7 H -0.1038 1.2416 -0.1567
C12 C -0.0061(6) 1.1067(4) -0.1651(4)
C13 C 0.0906(6) 1.0431(4) -0.1215(4)
H8 H 0.1073 0.9792 -0.1459
C14 C 0.5830(7) 0.9254(5) -0.2540(4)
C15 C 0.4746(6) 0.6654(4) -0.0143(4)
C16 C 0.0255(6) 1.3347(4) -0.0140(4)
C17 C -0.0861(7) 1.0684(4) -0.2479(4)
O1 O 0.5263(5) 0.9928(3) -0.3007(3)
O2 O 0.7041(4) 0.8882(3) -0.2722(3)
O3 O 0.5654(5) 0.6087(3) -0.0497(3)
O4 O 0.3980(5) 0.6429(3) 0.0532(3)
O5 O 0.1172(5) 1.3629(3) 0.0432(3)
O6 O -0.0785(5) 1.3837(3) -0.0412(3)
O7 O -0.2063(5) 1.1060(3) -0.2690(3)
O8 O -0.0290(5) 0.9994(3) -0.2942(3)
O9 O 0.7572(5) 0.9942(4) -0.5848(3)
H17 H 0.833(6) 1.020(5) -0.614(5)
H18 H 0.673(4) 1.012(6) -0.610(5)
Sm1_2 Sm -0.24925(3) 0.99773(2) -0.406937(19)
Sm1A Sm -0.25075(3) 1.49773(2) -0.093063(19)
Sm1A_2 Sm 0.74925(3) 0.49773(2) -0.093063(19)
Sm1C Sm 0.25075(3) 0.50227(2) 0.093063(19)
Sm1C_2 Sm 0.25075(3) 1.50227(2) 0.093063(19)
C17_2 C 0.9139(7) 1.0684(4) -0.2479(4)
O3A O 0.9346(5) 1.1087(3) -0.4503(3)
O4C O 0.8980(5) 0.8571(3) -0.4468(3)
O5C O 0.6172(5) 1.1371(3) -0.4568(3)
O6A O 0.5785(5) 0.8837(3) -0.4588(3)
O7_2 O 0.7937(5) 1.1060(3) -0.2690(3)
O8_2 O 0.9710(5) 0.9994(3) -0.2942(3)
C18 C 0.6799(12) 0.7171(9) 0.1940(10)
H9 H 0.7036 0.6756 0.1414
H10 H 0.7409 0.6981 0.2460
H11 H 0.6977 0.7864 0.1788
C19 C 0.4881(11) 0.7602(9) 0.2954(7)
H12 H 0.3875 0.7479 0.3135
H13 H 0.5002 0.8303 0.2808
H14 H 0.5534 0.7423 0.3456
N1 N 0.5212(9) 0.7033(6) 0.2185(5)
H15 H 0.4672(18) 0.714(3) 0.1672(10)
H16 H 0.502(3) 0.6376(11) 0.221(2)
loop_
_geom_bond_atom_site_label_1
_geom_bond_atom_site_label_2
_geom_bond_site_symmetry_1
_geom_bond_site_symmetry_2
Sm1 O1 1_555 1_555
C1 C2 1_555 1_555
C2 H1 1_555 1_555
C3 C2 1_555 1_555
C4 C3 1_555 1_555
H2 C4 1_555 1_555
C5 C4 1_555 1_555
C6 C1 1_555 1_555
H3 C6 1_555 1_555
C7 C5 1_555 1_555
H4 C7 1_555 1_555
H5 C7 1_555 1_555
C8 C7 1_555 1_555
C9 C8 1_555 1_555
H6 C9 1_555 1_555
C10 C9 1_555 1_555
C11 C10 1_555 1_555
H7 C11 1_555 1_555
C12 C11 1_555 1_555
C13 C8 1_555 1_555
H8 C13 1_555 1_555
C14 C1 1_555 1_555
C15 C3 1_555 1_555
C16 C10 1_555 1_555
C17 C12 1_555 1_555
C18 H9 1_555 1_555
H10 C18 1_555 1_555
H11 C18 1_555 1_555
C19 H12 1_555 1_555
H13 C19 1_555 1_555
H14 C19 1_555 1_555
N1 C18 1_555 1_555
H15 N1 1_555 1_555
H16 N1 1_555 1_555
O1 C14 1_555 1_555
O2 Sm1 1_555 1_555
O3 C15 1_555 1_555
O4 C15 1_555 1_555
O5 C16 1_555 1_555
O6 C16 1_555 1_555
O7 C17 1_555 1_555
O8 C17 1_555 1_555
O9 Sm1 1_555 1_555
H17 O9 1_555 1_555
H18 O9 1_555 1_555
Sm1_2 O7 1_555 1_555
Sm1A O6 1_555 1_555
Sm1A_2 O3 1_555 1_555
Sm1C O4 1_555 1_555
Sm1C_2 O5 1_555 1_555
C17_2 O7_2 1_555 1_555
O3A Sm1 1_555 1_555
O4C Sm1 1_555 1_555
O5C Sm1 1_555 1_555
O6A Sm1 1_555 1_555
O7_2 Sm1 1_555 1_555
O8_2 Sm1 1_555 1_555
C5 C6 1_555 1_555
C12 C13 1_555 1_555
C14 O2 1_555 1_555
C19 N1 1_555 1_555
O8 Sm1_2 1_555 1_555
C17_2 O8_2 1_555 1_555

#END
