
#######################################################################
#
#                 Cambridge Crystallographic Data Centre
#                                CCDC 
#
#######################################################################
#
# If this CIF has been generated from an entry in the Cambridge 
# Structural Database, then it will include bibliographic, chemical, 
# crystal, experimental, refinement or atomic coordinate data resulting 
# from the CCDC's data processing and validation procedures.
#
#######################################################################

data_RAVDUP
_symmetry_cell_setting           monoclinic
_symmetry_space_group_name_H-M   'P 21/n'
_symmetry_Int_Tables_number      14
_space_group_name_Hall           '-P 2yn'
loop_
_symmetry_equiv_pos_site_id
_symmetry_equiv_pos_as_xyz
1 x,y,z
2 1/2-x,1/2+y,1/2-z
3 -x,-y,-z
4 1/2+x,1/2-y,1/2+z
_cell_length_a                   9.2006(4)
_cell_length_b                   13.4378(6)
_cell_length_c                   14.5636(6)
_cell_angle_alpha                90
_cell_angle_beta                 90.3560(10)
_cell_angle_gamma                90
_cell_volume                     1800.55
loop_
_atom_site_label
_atom_site_type_symbol
_atom_site_fract_x
_atom_site_fract_y
_atom_site_fract_z
Dy1 Dy 0.251102(17) 0.496985(12) 0.592137(11)
C1 C 0.0047(4) 0.3889(3) 0.8273(2)
C2 C 0.0296(4) 0.2944(3) 0.8643(2)
H1 H 0.0956 0.2502 0.8354
C3 C -0.0429(4) 0.2652(3) 0.9439(3)
C4 C -0.1350(4) 0.3328(3) 0.9874(3)
H2 H -0.1853 0.3129 1.0411
C5 C -0.1546(4) 0.4288(3) 0.9536(2)
C6 C -0.0878(4) 0.4541(3) 0.8717(3)
H3 H -0.1059 0.5177 0.8454
C7 C -0.2394(5) 0.5030(3) 1.0094(3)
H4 H -0.3003 0.4658 1.0535
H5 H -0.1695 0.5432 1.0457
C8 C -0.3360(4) 0.5730(3) 0.9569(2)
C9 C -0.4102(4) 0.5435(3) 0.8786(3)
H6 H -0.3930 0.4791 0.8541
C10 C -0.5092(4) 0.6059(3) 0.8351(2)
C11 C -0.5365(4) 0.7001(3) 0.8714(3)
H7 H -0.6084 0.7416 0.8443
C12 C -0.4579(4) 0.7330(3) 0.9475(2)
C13 C -0.3574(4) 0.6687(3) 0.9895(3)
H8 H -0.3030 0.6912 1.0411
C14 C 0.0838(4) 0.4253(3) 0.7433(3)
C15 C -0.0234(4) 0.1628(3) 0.9843(2)
C16 C -0.5885(4) 0.5674(3) 0.7515(2)
C17 C -0.4763(4) 0.8366(3) 0.9862(2)
O1 O 0.0268(3) 0.4926(2) 0.69511(18)
O2 O 0.2067(3) 0.3885(2) 0.72479(18)
O3 O 0.0683(3) 0.1068(2) 0.94991(19)
O4 O -0.1015(3) 0.14030(19) 1.05270(17)
O5 O -0.5297(3) 0.4976(2) 0.70525(18)
O6 O -0.7088(3) 0.6043(2) 0.72891(17)
O7 O -0.5853(3) 0.8849(2) 0.96179(19)
O8 O -0.3803(3) 0.8673(2) 1.04034(19)
O9 O 0.2610(3) 0.4935(2) 0.4160(2)
H15 H 0.183(3) 0.496(4) 0.380(3)
H16 H 0.336(4) 0.501(4) 0.379(3)
Dy1_2 Dy -0.748898(17) 0.496985(12) 0.592137(11)
Dy1A Dy -0.751102(17) 0.996985(12) 0.907863(11)
Dy1A_2 Dy 0.248898(17) -0.003015(12) 0.907863(11)
Dy1C Dy -0.248898(17) 0.003015(12) 1.092137(11)
Dy1C_2 Dy -0.248898(17) 1.003015(12) 1.092137(11)
O3A O 0.4317(3) 0.6068(2) 0.55009(19)
O4C O 0.3985(3) 0.35970(19) 0.55270(17)
O5_2 O 0.4703(3) 0.4976(2) 0.70525(18)
O6_2 O 0.2912(3) 0.6043(2) 0.72891(17)
O7A O 0.0853(3) 0.3849(2) 0.53821(19)
O8C O 0.1197(3) 0.6327(2) 0.54034(19)
C18 C -0.3234(6) 0.2833(4) 0.6900(4)
H9 H -0.3028 0.3228 0.6351
H10 H -0.3074 0.2126 0.6767
H11 H -0.2587 0.3041 0.7402
C19 C -0.5136(6) 0.2421(4) 0.7988(3)
H12 H -0.6155 0.2546 0.8145
H13 H -0.4510 0.2625 0.8501
H14 H -0.5000 0.1709 0.7869
N1 N -0.4759(5) 0.2986(3) 0.7173(3)
H17 H -0.5376(13) 0.282(2) 0.6689(8)
H18 H -0.496(5) 0.3598(18) 0.740(3)
loop_
_geom_bond_atom_site_label_1
_geom_bond_atom_site_label_2
_geom_bond_site_symmetry_1
_geom_bond_site_symmetry_2
Dy1 O1 1_555 1_555
C1 C2 1_555 1_555
C2 H1 1_555 1_555
C3 C2 1_555 1_555
C4 C3 1_555 1_555
H2 C4 1_555 1_555
C5 C4 1_555 1_555
C6 C1 1_555 1_555
H3 C6 1_555 1_555
C7 C5 1_555 1_555
H4 C7 1_555 1_555
H5 C7 1_555 1_555
C8 C7 1_555 1_555
C9 C8 1_555 1_555
H6 C9 1_555 1_555
C10 C9 1_555 1_555
C11 C10 1_555 1_555
H7 C11 1_555 1_555
C12 C11 1_555 1_555
C13 C8 1_555 1_555
H8 C13 1_555 1_555
C14 C1 1_555 1_555
C15 C3 1_555 1_555
C16 C10 1_555 1_555
C17 C12 1_555 1_555
C18 H9 1_555 1_555
H10 C18 1_555 1_555
H11 C18 1_555 1_555
C19 H12 1_555 1_555
H13 C19 1_555 1_555
H14 C19 1_555 1_555
N1 C18 1_555 1_555
O1 C14 1_555 1_555
O2 Dy1 1_555 1_555
O3 C15 1_555 1_555
O4 C15 1_555 1_555
O5 C16 1_555 1_555
O6 C16 1_555 1_555
O7 C17 1_555 1_555
O8 C17 1_555 1_555
O9 Dy1 1_555 1_555
H15 O9 1_555 1_555
H16 O9 1_555 1_555
H17 N1 1_555 1_555
H18 N1 1_555 1_555
Dy1_2 O5 1_555 1_555
Dy1A O7 1_555 1_555
Dy1A_2 O3 1_555 1_555
Dy1C O4 1_555 1_555
Dy1C_2 O8 1_555 1_555
O3A Dy1 1_555 1_555
O4C Dy1 1_555 1_555
O5_2 Dy1 1_555 1_555
O6_2 Dy1 1_555 1_555
O7A Dy1 1_555 1_555
O8C Dy1 1_555 1_555
C5 C6 1_555 1_555
C12 C13 1_555 1_555
C14 O2 1_555 1_555
C19 N1 1_555 1_555
O6 Dy1_2 1_555 1_555

#END
