
#######################################################################
#
#                 Cambridge Crystallographic Data Centre
#                                CCDC 
#
#######################################################################
#
# If this CIF has been generated from an entry in the Cambridge 
# Structural Database, then it will include bibliographic, chemical, 
# crystal, experimental, refinement or atomic coordinate data resulting 
# from the CCDC's data processing and validation procedures.
#
#######################################################################

data_RAVGAY
_symmetry_cell_setting           monoclinic
_symmetry_space_group_name_H-M   'P 21/c'
_symmetry_Int_Tables_number      14
_space_group_name_Hall           '-P 2ybc'
loop_
_symmetry_equiv_pos_site_id
_symmetry_equiv_pos_as_xyz
1 x,y,z
2 -x,1/2+y,1/2-z
3 -x,-y,-z
4 x,1/2-y,1/2+z
_cell_length_a                   10.9338(10)
_cell_length_b                   12.3885(12)
_cell_length_c                   9.6317(9)
_cell_angle_alpha                90
_cell_angle_beta                 94.873(2)
_cell_angle_gamma                90
_cell_volume                     1299.93
loop_
_atom_site_label
_atom_site_type_symbol
_atom_site_fract_x
_atom_site_fract_y
_atom_site_fract_z
Zn1 Zn -0.12669(3) 0.03333(3) 0.07072(3)
O1 O 0.00684(19) 0.04476(16) 0.2211(2)
O2 O 0.18054(19) 0.01680(17) 0.1180(2)
O3 O 0.0471(2) 0.19653(18) 0.7136(2)
O4 O 0.19129(19) 0.10237(17) 0.8371(2)
N1 N 0.7338(2) 0.3716(2) 0.6292(3)
S1 S 0.43046(7) 0.15001(7) 0.75560(8)
O5 O -0.0462(2) 0.17648(17) -0.0185(2)
H1 H -0.0158 0.1814 -0.0919
H2 H -0.0099 0.2121 0.0440
C1 C 0.1223(3) 0.0427(2) 0.2196(3)
C2 C 0.1967(3) 0.0727(2) 0.3523(3)
C3 C 0.1414(2) 0.0981(2) 0.4718(3)
H3 H 0.0562 0.0982 0.4693
C4 C 0.2098(3) 0.1237(2) 0.5957(3)
C5 C 0.3385(3) 0.1249(2) 0.5978(3)
C6 C 0.3935(3) 0.1022(2) 0.4763(3)
H4 H 0.4786 0.1048 0.4768
C7 C 0.3243(3) 0.0759(3) 0.3556(3)
H5 H 0.3627 0.0601 0.2755
C8 C 0.5470(3) 0.2338(2) 0.6984(3)
C9 C 0.6668(3) 0.2174(3) 0.7515(4)
H6 H 0.6867 0.1597 0.8109
C10 C 0.7566(3) 0.2878(3) 0.7153(4)
H7 H 0.8369 0.2765 0.7525
C11 C 0.6166(3) 0.3875(2) 0.5792(3)
H8 H 0.5988 0.4463 0.5208
C12 C 0.5220(3) 0.3214(2) 0.6101(3)
H9 H 0.4423 0.3349 0.5725
C13 C 0.1437(3) 0.1433(2) 0.7248(3)
Zn1B Zn 0.12669(3) -0.03333(3) -0.07072(3)
Zn1_2 Zn -0.12669(3) 0.03333(3) -0.92928(3)
Zn1A Zn -0.87331(3) -0.46667(3) -0.57072(3)
Zn1B_2 Zn 0.12669(3) -0.03333(3) 0.92928(3)
Zn1C Zn 0.87331(3) 0.46667(3) 0.57072(3)
O1B O -0.00684(19) -0.04476(16) -0.2211(2)
O2B O -0.18054(19) -0.01680(17) -0.1180(2)
O3B O -0.0471(2) -0.19653(18) -0.7136(2)
O4B O -0.19129(19) -0.10237(17) -0.8371(2)
O4_2 O 0.19129(19) 0.10237(17) -0.1629(2)
O4B_2 O -0.19129(19) -0.10237(17) 0.1629(2)
N1B N -0.7338(2) -0.3716(2) -0.6292(3)
N1A N 0.2662(2) -0.1284(2) -0.1292(3)
N1C N -0.2662(2) 0.1284(2) 0.1292(3)
S1B S -0.43046(7) -0.15001(7) -0.75560(8)
O5B O 0.0462(2) -0.17648(17) 0.0185(2)
H1B H 0.0158 -0.1814 0.0919
H2B H 0.0099 -0.2121 -0.0440
C1B C -0.1223(3) -0.0427(2) -0.2196(3)
C2B C -0.1967(3) -0.0727(2) -0.3523(3)
C3B C -0.1414(2) -0.0981(2) -0.4718(3)
H3B H -0.0562 -0.0982 -0.4693
C4B C -0.2098(3) -0.1237(2) -0.5957(3)
C5B C -0.3385(3) -0.1249(2) -0.5978(3)
C6B C -0.3935(3) -0.1022(2) -0.4763(3)
H4B H -0.4786 -0.1048 -0.4768
C7B C -0.3243(3) -0.0759(3) -0.3556(3)
H5B H -0.3627 -0.0601 -0.2755
C8B C -0.5470(3) -0.2338(2) -0.6984(3)
C9B C -0.6668(3) -0.2174(3) -0.7515(4)
H6B H -0.6867 -0.1597 -0.8109
C10B C -0.7566(3) -0.2878(3) -0.7153(4)
H7B H -0.8369 -0.2765 -0.7525
C11B C -0.6166(3) -0.3875(2) -0.5792(3)
H8B H -0.5988 -0.4463 -0.5208
C12B C -0.5220(3) -0.3214(2) -0.6101(3)
H9B H -0.4423 -0.3349 -0.5725
C13B C -0.1437(3) -0.1433(2) -0.7248(3)
loop_
_geom_bond_atom_site_label_1
_geom_bond_atom_site_label_2
_geom_bond_site_symmetry_1
_geom_bond_site_symmetry_2
Zn1 O1 1_555 1_555
O1 C1 1_555 1_555
O2 C1 1_555 1_555
O3 C13 1_555 1_555
O4 C13 1_555 1_555
N1 C10 1_555 1_555
S1 C5 1_555 1_555
O5 Zn1 1_555 1_555
H1 O5 1_555 1_555
H2 O5 1_555 1_555
C1 C2 1_555 1_555
C2 C3 1_555 1_555
C3 H3 1_555 1_555
C4 C3 1_555 1_555
C5 C4 1_555 1_555
C6 C5 1_555 1_555
H4 C6 1_555 1_555
C7 C2 1_555 1_555
H5 C7 1_555 1_555
C8 S1 1_555 1_555
C9 C8 1_555 1_555
H6 C9 1_555 1_555
C10 C9 1_555 1_555
H7 C10 1_555 1_555
C11 N1 1_555 1_555
H8 C11 1_555 1_555
C12 C8 1_555 1_555
H9 C12 1_555 1_555
C13 C4 1_555 1_555
Zn1B O2 1_555 1_555
Zn1_2 O4B 1_555 1_555
Zn1A N1B 1_555 1_555
Zn1B_2 O4 1_555 1_555
Zn1C N1 1_555 1_555
O1B Zn1B 1_555 1_555
O2B Zn1 1_555 1_555
O3B C13B 1_555 1_555
O4B C13B 1_555 1_555
O4_2 Zn1B 1_555 1_555
O4B_2 Zn1 1_555 1_555
N1B C10B 1_555 1_555
N1A Zn1B 1_555 1_555
N1C Zn1 1_555 1_555
S1B C5B 1_555 1_555
O5B Zn1B 1_555 1_555
H1B O5B 1_555 1_555
H2B O5B 1_555 1_555
C1B O1B 1_555 1_555
C2B C1B 1_555 1_555
C3B C2B 1_555 1_555
H3B C3B 1_555 1_555
C4B C3B 1_555 1_555
C5B C4B 1_555 1_555
C6B C5B 1_555 1_555
H4B C6B 1_555 1_555
C7B C2B 1_555 1_555
H5B C7B 1_555 1_555
C8B S1B 1_555 1_555
C9B C8B 1_555 1_555
H6B C9B 1_555 1_555
C10B C9B 1_555 1_555
H7B C10B 1_555 1_555
C11B N1B 1_555 1_555
H8B C11B 1_555 1_555
C12B C8B 1_555 1_555
H9B C12B 1_555 1_555
C13B C4B 1_555 1_555
C6 C7 1_555 1_555
C11 C12 1_555 1_555
O2B C1B 1_555 1_555
C6B C7B 1_555 1_555
C11B C12B 1_555 1_555

#END
