
#######################################################################
#
#                 Cambridge Crystallographic Data Centre
#                                CCDC 
#
#######################################################################
#
# If this CIF has been generated from an entry in the Cambridge 
# Structural Database, then it will include bibliographic, chemical, 
# crystal, experimental, refinement or atomic coordinate data resulting 
# from the CCDC's data processing and validation procedures.
#
#######################################################################

data_RAVGAX
_symmetry_cell_setting           rhombohedral
_symmetry_space_group_name_H-M   'R -3'
_symmetry_Int_Tables_number      148
_space_group_name_Hall           '-R 3'
loop_
_symmetry_equiv_pos_site_id
_symmetry_equiv_pos_as_xyz
1 x,y,z
2 -y,x-y,z
3 -x+y,-x,z
4 2/3+x,1/3+y,1/3+z
5 2/3-y,1/3+x-y,1/3+z
6 2/3-x+y,1/3-x,1/3+z
7 1/3+x,2/3+y,2/3+z
8 1/3-y,2/3+x-y,2/3+z
9 1/3-x+y,2/3-x,2/3+z
10 -x,-y,-z
11 y,-x+y,-z
12 x-y,x,-z
13 1/3-x,2/3-y,2/3-z
14 1/3+y,2/3-x+y,2/3-z
15 1/3+x-y,2/3+x,2/3-z
16 2/3-x,1/3-y,1/3-z
17 2/3+y,1/3-x+y,1/3-z
18 2/3+x-y,1/3+x,1/3-z
_cell_length_a                   34.530(6)
_cell_length_b                   34.530(6)
_cell_length_c                   8.600(3)
_cell_angle_alpha                90
_cell_angle_beta                 90
_cell_angle_gamma                120.00
_cell_volume                     8880.19
loop_
_atom_site_label
_atom_site_type_symbol
_atom_site_fract_x
_atom_site_fract_y
_atom_site_fract_z
Na1 Na 0.630432(16) -0.005878(16) -0.07132(6)
O1 O 0.68848(3) 0.03223(3) 0.12213(12)
H1 H 0.7103(5) 0.0521(5) 0.072(2)
H2 H 0.6720(6) 0.0425(6) 0.148(2)
N1 N 0.49388(3) -0.10691(3) 0.07103(12)
H3 H 0.4750 -0.1016 0.0245
O2 O 0.55136(3) -0.05131(3) -0.06386(10)
C1 C 0.53724(4) -0.08126(4) 0.03563(13)
O3 O 0.61052(3) -0.06556(3) 0.10123(10)
C2 C 0.57019(4) -0.08943(4) 0.12687(13)
N2 N 0.55353(3) -0.12221(3) 0.23307(11)
H4 H 0.5720 -0.1266 0.2872
C3 C 0.49224(4) -0.18435(4) 0.36829(14)
H5 H 0.5126 -0.1893 0.4233
C4 C 0.44681(4) -0.21159(4) 0.39468(14)
C5 C 0.41621(4) -0.20335(4) 0.31358(14)
C6 C 0.43201(4) -0.16843(4) 0.20763(14)
H6 H 0.4119 -0.1628 0.1549
C7 C 0.47766(4) -0.14170(4) 0.17900(13)
C8 C 0.50789(4) -0.14965(4) 0.26053(13)
C9 C 0.43095(5) -0.24918(5) 0.51131(17)
H7 H 0.4562 -0.2505 0.5520
H8 H 0.4110 -0.2770 0.4613
H9 H 0.4156 -0.2441 0.5947
C10 C 0.36644(5) -0.23190(4) 0.34055(17)
H10 H 0.3510 -0.2209 0.2780
H11 H 0.3600 -0.2306 0.4483
H12 H 0.3568 -0.2624 0.3124
N3 N 0.56879(3) -0.00437(3) 0.28883(12)
O4 O 0.61817(3) 0.04826(3) 0.12031(11)
C11 C 0.57981(4) 0.02732(4) 0.18405(14)
O5 O 0.55860(3) 0.07382(3) 0.04435(10)
C12 C 0.54680(4) 0.04116(4) 0.13322(13)
N4 N 0.50508(3) 0.01689(3) 0.18895(11)
H13 H 0.4852 0.0232 0.1578
C13 C 0.44859(4) -0.04282(4) 0.35063(14)
H14 H 0.4270 -0.0364 0.3154
C14 C 0.43699(4) -0.07694(4) 0.45797(14)
C15 C 0.47010(4) -0.08620(4) 0.51177(14)
C16 C 0.51323(4) -0.06149(4) 0.45557(14)
H15 H 0.5349 -0.0677 0.4917
C17 C 0.52529(4) -0.02726(4) 0.34535(13)
C18 C 0.49222(4) -0.01817(4) 0.29517(13)
C19 C 0.38913(4) -0.10375(5) 0.51420(17)
H16 H 0.3733 -0.0884 0.4872
H17 H 0.3888 -0.1071 0.6251
H18 H 0.3749 -0.1327 0.4660
C20 C 0.45920(5) -0.12264(4) 0.63022(15)
H19 H 0.4854 -0.1248 0.6502
H20 H 0.4359 -0.1507 0.5906
H21 H 0.4494 -0.1156 0.7251
Na1D Na 0.672545(16) -0.030357(23) 0.26201(6)
O1H O 0.67708(4) -0.02181(3) -0.21120(12)
H1H H 0.6751(7) -0.0436(5) -0.261(2)
H2H H 0.7038(8) -0.0053(6) -0.185(2)
O3H O 0.65725(4) 0.05615(3) -0.23210(10)
loop_
_geom_bond_atom_site_label_1
_geom_bond_atom_site_label_2
_geom_bond_site_symmetry_1
_geom_bond_site_symmetry_2
Na1 O1 1_555 1_555
O1 H1 1_555 1_555
H2 O1 1_555 1_555
N1 H3 1_555 1_555
O2 Na1 1_555 1_555
C1 N1 1_555 1_555
O3 Na1 1_555 1_555
C2 C1 1_555 1_555
N2 C2 1_555 1_555
H4 N2 1_555 1_555
C3 H5 1_555 1_555
C4 C3 1_555 1_555
C5 C4 1_555 1_555
C6 C5 1_555 1_555
H6 C6 1_555 1_555
C7 N1 1_555 1_555
C8 N2 1_555 1_555
C9 C4 1_555 1_555
H7 C9 1_555 1_555
H8 C9 1_555 1_555
H9 C9 1_555 1_555
C10 C5 1_555 1_555
H10 C10 1_555 1_555
H11 C10 1_555 1_555
H12 C10 1_555 1_555
N3 C11 1_555 1_555
O4 Na1 1_555 1_555
C11 O4 1_555 1_555
O5 C12 1_555 1_555
C12 C11 1_555 1_555
N4 C12 1_555 1_555
H13 N4 1_555 1_555
C13 H14 1_555 1_555
C14 C13 1_555 1_555
C15 C14 1_555 1_555
C16 C15 1_555 1_555
H15 C16 1_555 1_555
C17 N3 1_555 1_555
C18 N4 1_555 1_555
C19 C14 1_555 1_555
H16 C19 1_555 1_555
H17 C19 1_555 1_555
H18 C19 1_555 1_555
C20 C15 1_555 1_555
H19 C20 1_555 1_555
H20 C20 1_555 1_555
H21 C20 1_555 1_555
Na1D O1 1_555 1_555
O1H Na1 1_555 1_555
H1H O1H 1_555 1_555
H2H O1H 1_555 1_555
O3H Na1 1_555 1_555
O2 C1 1_555 1_555
O3 C2 1_555 1_555
O3 Na1D 1_555 1_555
C3 C8 1_555 1_555
C6 C7 1_555 1_555
C7 C8 1_555 1_555
C13 C18 1_555 1_555
C16 C17 1_555 1_555
C17 C18 1_555 1_555

#END
