
#######################################################################
#
#                 Cambridge Crystallographic Data Centre
#                                CCDC 
#
#######################################################################
#
# If this CIF has been generated from an entry in the Cambridge 
# Structural Database, then it will include bibliographic, chemical, 
# crystal, experimental, refinement or atomic coordinate data resulting 
# from the CCDC's data processing and validation procedures.
#
#######################################################################

data_RAVGAX01
_symmetry_cell_setting           rhombohedral
_symmetry_space_group_name_H-M   'R -3'
_symmetry_Int_Tables_number      148
_space_group_name_Hall           '-R 3'
loop_
_symmetry_equiv_pos_site_id
_symmetry_equiv_pos_as_xyz
1 x,y,z
2 -y,x-y,z
3 -x+y,-x,z
4 2/3+x,1/3+y,1/3+z
5 2/3-y,1/3+x-y,1/3+z
6 2/3-x+y,1/3-x,1/3+z
7 1/3+x,2/3+y,2/3+z
8 1/3-y,2/3+x-y,2/3+z
9 1/3-x+y,2/3-x,2/3+z
10 -x,-y,-z
11 y,-x+y,-z
12 x-y,x,-z
13 1/3-x,2/3-y,2/3-z
14 1/3+y,2/3-x+y,2/3-z
15 1/3+x-y,2/3+x,2/3-z
16 2/3-x,1/3-y,1/3-z
17 2/3+y,1/3-x+y,1/3-z
18 2/3+x-y,1/3+x,1/3-z
_cell_length_a                   34.631(3)
_cell_length_b                   34.631(3)
_cell_length_c                   8.6287(8)
_cell_angle_alpha                90
_cell_angle_beta                 90
_cell_angle_gamma                120.00
_cell_volume                     8962.02
loop_
_atom_site_label
_atom_site_type_symbol
_atom_site_fract_x
_atom_site_fract_y
_atom_site_fract_z
Na1 Na 0.630293(17) -0.005844(18) -0.06985(7)
O1 O 0.68845(4) 0.03218(3) 0.12449(15)
H1 H 0.7101(5) 0.0518(5) 0.074(2)
H2 H 0.6732(7) 0.0434(7) 0.155(3)
N1 N 0.49386(3) -0.10688(3) 0.07328(12)
H3 H 0.4750 -0.1017 0.0269
O2 O 0.55110(3) -0.05122(3) -0.06010(11)
C1 C 0.53707(4) -0.08108(4) 0.03834(13)
O3 O 0.61018(3) -0.06535(3) 0.10365(11)
C2 C 0.56999(4) -0.08921(4) 0.12925(13)
N2 N 0.55340(3) -0.12193(3) 0.23430(12)
H4 H 0.5718 -0.1263 0.2881
C3 C 0.49246(4) -0.18412(4) 0.36814(14)
H5 H 0.5128 -0.1891 0.4226
C4 C 0.44718(4) -0.21144(4) 0.39435(15)
C5 C 0.41665(5) -0.20338(4) 0.31380(15)
C6 C 0.43226(4) -0.16853(4) 0.20869(15)
H6 H 0.4121 -0.1630 0.1562
C7 C 0.47771(4) -0.14169(4) 0.18034(13)
C8 C 0.50794(4) -0.14944(4) 0.26144(13)
C9 C 0.43182(6) -0.24898(6) 0.5106(2)
H7 H 0.4572 -0.2500 0.5503
H8 H 0.4120 -0.2768 0.4609
H9 H 0.4166 -0.2440 0.5943
C10 C 0.36685(7) -0.23189(5) 0.3400(2)
H10 H 0.3515 -0.2209 0.2780
H11 H 0.3603 -0.2308 0.4475
H12 H 0.3573 -0.2621 0.3113
N3 N 0.56944(4) -0.00343(4) 0.29129(13)
O4 O 0.61859(3) 0.04896(4) 0.12338(12)
C11 C 0.58028(4) 0.02790(4) 0.18624(14)
O5 O 0.55860(3) 0.07351(3) 0.04484(10)
C12 C 0.54714(4) 0.04117(4) 0.13382(13)
N4 N 0.50550(3) 0.01666(3) 0.18845(11)
H13 H 0.4856 0.0227 0.1566
C13 C 0.44921(4) -0.04322(4) 0.34846(15)
H14 H 0.4275 -0.0372 0.3120
C14 C 0.43774(4) -0.07705(4) 0.45582(15)
C15 C 0.47098(5) -0.08560(4) 0.51155(14)
C16 C 0.51408(5) -0.06052(4) 0.45665(14)
H15 H 0.5359 -0.0663 0.4939
C17 C 0.52599(4) -0.02660(4) 0.34647(13)
C18 C 0.49277(4) -0.01818(4) 0.29449(12)
C19 C 0.38980(5) -0.10415(6) 0.50979(19)
H16 H 0.3742 -0.0886 0.4847
H17 H 0.3892 -0.1084 0.6199
H18 H 0.3757 -0.1326 0.4590
C20 C 0.46069(6) -0.12154(5) 0.63050(17)
H19 H 0.4871 -0.1230 0.6515
H20 H 0.4379 -0.1498 0.5912
H21 H 0.4505 -0.1147 0.7244
Na1D Na 0.672511(18) -0.030530(25) 0.26348(7)
O1H O 0.67706(5) -0.02178(4) -0.20884(15)
H1H H 0.6750(7) -0.0434(5) -0.259(2)
H2H H 0.7035(10) -0.0065(7) -0.178(3)
O3H O 0.65780(4) 0.05649(3) -0.22968(11)
loop_
_geom_bond_atom_site_label_1
_geom_bond_atom_site_label_2
_geom_bond_site_symmetry_1
_geom_bond_site_symmetry_2
Na1 O1 1_555 1_555
O1 H1 1_555 1_555
H2 O1 1_555 1_555
N1 H3 1_555 1_555
O2 Na1 1_555 1_555
C1 N1 1_555 1_555
O3 Na1 1_555 1_555
C2 C1 1_555 1_555
N2 C2 1_555 1_555
H4 N2 1_555 1_555
C3 H5 1_555 1_555
C4 C3 1_555 1_555
C5 C4 1_555 1_555
C6 C5 1_555 1_555
H6 C6 1_555 1_555
C7 N1 1_555 1_555
C8 N2 1_555 1_555
C9 C4 1_555 1_555
H7 C9 1_555 1_555
H8 C9 1_555 1_555
H9 C9 1_555 1_555
C10 C5 1_555 1_555
H10 C10 1_555 1_555
H11 C10 1_555 1_555
H12 C10 1_555 1_555
N3 C11 1_555 1_555
O4 Na1 1_555 1_555
C11 O4 1_555 1_555
O5 C12 1_555 1_555
C12 C11 1_555 1_555
N4 C12 1_555 1_555
H13 N4 1_555 1_555
C13 H14 1_555 1_555
C14 C13 1_555 1_555
C15 C14 1_555 1_555
C16 C15 1_555 1_555
H15 C16 1_555 1_555
C17 N3 1_555 1_555
C18 N4 1_555 1_555
C19 C14 1_555 1_555
H16 C19 1_555 1_555
H17 C19 1_555 1_555
H18 C19 1_555 1_555
C20 C15 1_555 1_555
H19 C20 1_555 1_555
H20 C20 1_555 1_555
H21 C20 1_555 1_555
Na1D O1 1_555 1_555
O1H Na1 1_555 1_555
H1H O1H 1_555 1_555
H2H O1H 1_555 1_555
O3H Na1 1_555 1_555
O2 C1 1_555 1_555
O3 C2 1_555 1_555
O3 Na1D 1_555 1_555
C3 C8 1_555 1_555
C6 C7 1_555 1_555
C7 C8 1_555 1_555
C13 C18 1_555 1_555
C16 C17 1_555 1_555
C17 C18 1_555 1_555

#END
