
#######################################################################
#
#                 Cambridge Crystallographic Data Centre
#                                CCDC 
#
#######################################################################
#
# If this CIF has been generated from an entry in the Cambridge 
# Structural Database, then it will include bibliographic, chemical, 
# crystal, experimental, refinement or atomic coordinate data resulting 
# from the CCDC's data processing and validation procedures.
#
#######################################################################

data_RAVJOP
_symmetry_cell_setting           monoclinic
_symmetry_space_group_name_H-M   'P 21/c'
_symmetry_Int_Tables_number      14
_space_group_name_Hall           '-P 2ybc'
loop_
_symmetry_equiv_pos_site_id
_symmetry_equiv_pos_as_xyz
1 x,y,z
2 -x,1/2+y,1/2-z
3 -x,-y,-z
4 x,1/2-y,1/2+z
_cell_length_a                   25.9645(5)
_cell_length_b                   22.2340(4)
_cell_length_c                   18.8042(3)
_cell_angle_alpha                90
_cell_angle_beta                 92.0980(10)
_cell_angle_gamma                90
_cell_volume                     10848.3
loop_
_atom_site_label
_atom_site_type_symbol
_atom_site_fract_x
_atom_site_fract_y
_atom_site_fract_z
Cd1 Cd 0.595603(14) 0.446136(18) 0.35641(2)
Cd2 Cd 0.503862(13) 0.353957(17) 0.255037(19)
Cd3 Cd 0.401337(14) 0.432007(18) 0.15381(2)
Cd4 Cd 0.254506(15) 0.123107(18) 0.50677(2)
Cd5 Cd 0.901490(14) 0.687630(17) 0.14482(2)
Cd6 Cd 0.997370(12) 0.603350(17) 0.251930(18)
Cd7 Cd 0.904190(14) 0.190570(18) 0.15277(2)
C1 C 0.6908(2) 0.4910(3) 0.3404(3)
C2 C 0.7438(2) 0.5130(3) 0.3213(3)
C3 C 0.7873(2) 0.4773(3) 0.3341(4)
H1 H 0.7835 0.4396 0.3547
C4 C 0.8355(2) 0.4965(3) 0.3170(3)
H2 H 0.8643 0.4727 0.3271
C5 C 0.8406(2) 0.5529(2) 0.2840(3)
C6 C 0.7971(2) 0.5878(3) 0.2700(3)
H3 H 0.8003 0.6251 0.2481
C7 C 0.7496(2) 0.5680(3) 0.2883(3)
H4 H 0.7207 0.5918 0.2784
C8 C 0.8928(2) 0.5756(2) 0.2645(3)
C9 C 0.6091(2) 0.3307(3) 0.2409(3)
C10 C 0.6610(2) 0.3072(3) 0.2235(3)
C11 C 0.7053(2) 0.3418(3) 0.2339(3)
H5 H 0.7027 0.3806 0.2519
C12 C 0.7527(2) 0.3197(3) 0.2181(4)
H6 H 0.7818 0.3434 0.2265
C13 C 0.7582(2) 0.2627(3) 0.1899(3)
C14 C 0.7143(2) 0.2282(3) 0.1782(4)
H7 H 0.7173 0.1897 0.1594
C15 C 0.6663(2) 0.2497(3) 0.1936(4)
H8 H 0.6372 0.2261 0.1842
C16 C 0.8108(2) 0.2383(3) 0.1738(3)
C17 C 0.5463(2) 0.3489(3) 0.4213(3)
C18 C 0.5227(2) 0.3009(3) 0.4667(3)
C19 C 0.5490(2) 0.2800(3) 0.5264(3)
H9 H 0.5813 0.2956 0.5390
C20 C 0.5274(2) 0.2358(3) 0.5680(3)
H10 H 0.5456 0.2211 0.6078
C21 C 0.4790(2) 0.2134(3) 0.5505(3)
C22 C 0.4519(2) 0.2354(3) 0.4915(3)
H11 H 0.4190 0.2210 0.4798
C23 C 0.4739(2) 0.2787(3) 0.4499(3)
H12 H 0.4557 0.2934 0.4101
C24 C 0.4571(2) 0.1626(3) 0.5936(3)
C25 C 0.4019(2) 0.3150(2) 0.2692(3)
C26 C 0.3533(2) 0.2858(3) 0.2908(3)
C27 C 0.3534(2) 0.2260(2) 0.3153(3)
H13 H 0.3840 0.2043 0.3173
C28 C 0.3084(2) 0.1991(3) 0.3366(3)
H14 H 0.3087 0.1593 0.3517
C29 C 0.2631(2) 0.2314(3) 0.3352(3)
C30 C 0.2626(2) 0.2906(3) 0.3109(3)
H15 H 0.2319 0.3121 0.3092
C31 C 0.3075(2) 0.3175(3) 0.2893(3)
H16 H 0.3068 0.3572 0.2736
C32 C 0.2133(2) 0.2029(3) 0.3594(3)
C33 C 0.9536(2) 0.5921(3) 0.0842(3)
C34 C 0.9771(2) 0.5438(3) 0.0416(3)
C35 C 0.9511(2) 0.5218(3) -0.0192(3)
H17 H 0.9183 0.5360 -0.0319
C36 C 1.0254(2) 0.5217(3) 0.0610(3)
H18 H 1.0425 0.5359 0.1020
C37 C 0.2919(2) 0.4562(3) 0.1576(3)
C38 C 0.2416(2) 0.4855(3) 0.1776(3)
C39 C 0.2410(2) 0.5458(3) 0.1980(4)
H19 H 0.2715 0.5679 0.1992
C40 C 0.1957(2) 0.5732(3) 0.2165(4)
H20 H 0.1956 0.6137 0.2286
C41 C 0.1500(2) 0.5402(3) 0.2170(3)
C42 C 0.1508(2) 0.4796(3) 0.1975(3)
H21 H 0.1208 0.4569 0.1984
C43 C 0.1966(2) 0.4527(3) 0.1768(3)
H22 H 0.1967 0.4126 0.1625
C44 C 0.1002(2) 0.5694(3) 0.2367(3)
C45 C 1.0443(2) 0.5942(3) 0.4151(3)
C46 C 1.0218(2) 0.5446(3) 0.4580(3)
C47 C 1.0446(2) 0.5292(3) 0.5242(3)
H23 H 1.0742 0.5489 0.5409
C48 C 0.9771(2) 0.5155(3) 0.4357(3)
H24 H 0.9611 0.5263 0.3925
C49 C 0.5126(2) 0.5487(3) 0.2800(3)
C50 C 0.5296(3) 0.6036(3) 0.3059(4)
H25 H 0.5580 0.6062 0.3374
C51 C 0.5036(3) 0.6542(3) 0.2839(4)
H26 H 0.5147 0.6915 0.3007
C52 C 0.4605(3) 0.6511(3) 0.2367(5)
H27 H 0.4438 0.6865 0.2230
C53 C 0.4427(3) 0.5976(3) 0.2103(4)
H28 H 0.4143 0.5957 0.1788
C54 C 0.4690(2) 0.5454(2) 0.2327(3)
C55 C 1.0231(2) 0.7966(2) 0.2611(3)
C56 C 1.0474(3) 0.8505(3) 0.2798(4)
H29 H 1.0763 0.8512 0.3104
C57 C 1.0272(3) 0.9022(3) 0.2516(5)
H30 H 1.0435 0.9385 0.2626
C58 C 0.9829(3) 0.9028(3) 0.2067(4)
H31 H 0.9702 0.9393 0.1896
C59 C 0.9583(3) 0.8509(3) 0.1878(3)
H32 H 0.9288 0.8513 0.1581
C60 C 0.9787(2) 0.7970(2) 0.2145(3)
C61 C 0.6145(3) 0.4768(5) 0.5133(5)
H33 H 0.6380 0.4460 0.5061
C62 C 0.5723(5) 0.5421(6) 0.5929(6)
H34 H 0.5681 0.5693 0.5535
H35 H 0.5842 0.5640 0.6344
H36 H 0.5399 0.5234 0.6020
C63 C 0.6354(5) 0.4631(7) 0.6387(6)
H37 H 0.6546 0.4299 0.6204
H38 H 0.6099 0.4482 0.6698
H39 H 0.6585 0.4897 0.6646
C64 C 0.3693(3) 0.5274(3) 0.0345(3)
H40 H 0.3366 0.5181 0.0500
C65 C 0.4238(4) 0.5855(5) -0.0433(6)
H41 H 0.4386 0.6181 -0.0162
H42 H 0.4190 0.5974 -0.0921
H43 H 0.4464 0.5513 -0.0402
C66 C 0.3257(4) 0.6003(5) -0.0449(6)
H44 H 0.2973 0.5934 -0.0146
H45 H 0.3174 0.5846 -0.0915
H46 H 0.3320 0.6427 -0.0481
C67 C 0.3163(2) 0.2340(3) 0.5637(4)
H47 H 0.3152 0.2137 0.6069
C68 C 0.3538(6) 0.3178(5) 0.6274(5)
H48 H 0.3341 0.3062 0.6674
H49 H 0.3527 0.3608 0.6222
H50 H 0.3889 0.3050 0.6350
C69 C 0.3370(3) 0.3239(3) 0.4986(5)
H51 H 0.3198 0.3023 0.4604
H52 H 0.3727 0.3288 0.4884
H53 H 0.3214 0.3628 0.5034
C70 C 0.3597(2) 0.0861(3) 0.4446(3)
H54 H 0.3722 0.1091 0.4828
C71 C 0.4477(2) 0.0840(4) 0.4037(4)
H55 H 0.4557 0.1002 0.4501
H56 H 0.4555 0.1134 0.3682
H57 H 0.4679 0.0485 0.3966
C72 C 0.3757(3) 0.0364(4) 0.3327(4)
H58 H 0.3391 0.0304 0.3328
H59 H 0.3927 -0.0019 0.3311
H60 H 0.3842 0.0597 0.2917
C73 C 0.1513(2) 0.1662(3) 0.5689(3)
H61 H 0.1373 0.1469 0.5288
C74 C 0.0638(3) 0.1730(4) 0.6113(4)
H62 H 0.0549 0.1610 0.5634
H63 H 0.0457 0.2092 0.6224
H64 H 0.0544 0.1417 0.6435
C75 C 0.1386(3) 0.2135(4) 0.6838(4)
H65 H 0.1752 0.2194 0.6825
H66 H 0.1309 0.1888 0.7240
H67 H 0.1218 0.2517 0.6880
C76 C 0.1855(3) 0.0193(3) 0.4449(3)
H68 H 0.1854 0.0417 0.4031
C77 C 0.1387(5) -0.0585(4) 0.3808(5)
H69 H 0.1467 -0.0339 0.3407
H70 H 0.1021 -0.0583 0.3869
H71 H 0.1500 -0.0990 0.3727
C78 C 0.1621(3) -0.0717(3) 0.5073(5)
H72 H 0.1852 -0.0556 0.5436
H73 H 0.1719 -0.1122 0.4967
H74 H 0.1276 -0.0714 0.5239
C79 C 0.8902(3) 0.2287(4) -0.0037(4)
H75 H 0.8648 0.1996 0.0013
C80 C 0.9373(4) 0.2912(5) -0.0810(5)
H76 H 0.9354 0.3235 -0.0475
H77 H 0.9325 0.3067 -0.1285
H78 H 0.9705 0.2723 -0.0761
C81 C 0.8716(5) 0.2189(9) -0.1303(6)
H79 H 0.8470 0.1903 -0.1142
H80 H 0.8966 0.1987 -0.1582
H81 H 0.8542 0.2490 -0.1589
C82 C 0.8676(3) 0.7804(3) 0.0256(4)
H82 H 0.8359 0.7711 0.0441
C83 C 0.9150(4) 0.8383(5) -0.0563(5)
H83 H 0.9234 0.8787 -0.0420
H84 H 0.9108 0.8365 -0.1071
H85 H 0.9423 0.8118 -0.0407
C84 C 0.8198(4) 0.8467(5) -0.0551(7)
H86 H 0.7941 0.8473 -0.0196
H87 H 0.8077 0.8230 -0.0950
H88 H 0.8263 0.8871 -0.0706
N1 N 0.52962(17) 0.49170(19) 0.2905(2)
N2 N 0.49852(14) 0.4555(2) 0.2518(2)
N3 N 0.46165(16) 0.48663(18) 0.2171(2)
N4 N 1.03246(16) 0.7392(2) 0.2803(2)
N5 N 0.99663(14) 0.7052(2) 0.2480(2)
N6 N 0.96333(16) 0.73843(19) 0.2086(2)
N7 N 0.6089(3) 0.4974(4) 0.5767(4)
N8 N 0.3327(2) 0.2904(3) 0.5648(3)
N9 N 0.3927(2) 0.0687(3) 0.3976(3)
N10 N 0.1202(2) 0.1838(3) 0.6184(3)
N11 N 0.1645(2) -0.0352(3) 0.4437(3)
N12 N 0.8678(3) 0.8203(3) -0.0246(3)
N13 N 0.3731(3) 0.5693(3) -0.0143(4)
N14 N 0.8981(3) 0.2481(4) -0.0679(3)
O1 O 0.68670(16) 0.4416(2) 0.3731(3)
O2 O 0.65258(15) 0.5228(2) 0.3229(2)
O3 O 0.93079(14) 0.54012(17) 0.2680(2)
O4 O 0.89691(14) 0.63038(17) 0.2491(2)
O5 O 0.60437(14) 0.38595(17) 0.2541(2)
O6 O 0.57146(14) 0.29458(18) 0.2392(2)
O7 O 0.84936(15) 0.2673(2) 0.1953(2)
O8 O 0.81392(16) 0.1894(2) 0.1395(3)
O9 O 0.51872(16) 0.37305(19) 0.3736(2)
O10 O 0.59255(17) 0.3635(2) 0.4327(3)
O11 O 0.40936(15) 0.15004(19) 0.5849(2)
O12 O 0.48601(15) 0.13386(17) 0.6351(2)
O13 O 0.40158(15) 0.37041(17) 0.2547(2)
O14 O 0.44280(13) 0.28396(17) 0.2695(2)
O15 O 0.17330(15) 0.2261(2) 0.3314(2)
O16 O 0.21383(15) 0.16029(19) 0.4020(2)
O17 O 0.98066(15) 0.61775(17) 0.1314(2)
O18 O 0.90694(16) 0.6071(2) 0.0713(2)
O19 O 0.33168(16) 0.4784(2) 0.1879(2)
O20 O 0.29326(15) 0.41414(19) 0.1134(2)
O21 O 0.09980(14) 0.62543(17) 0.2479(2)
O22 O 0.06070(14) 0.53701(18) 0.2378(2)
O23 O 1.01628(16) 0.62062(18) 0.3693(2)
O24 O 1.09064(17) 0.6089(2) 0.4259(2)
O25 O 0.40691(17) 0.4995(2) 0.0613(2)
O26 O 0.30257(17) 0.2066(2) 0.5094(2)
O27 O 0.20513(17) 0.0412(2) 0.5001(2)
O28 O 0.19891(16) 0.1743(2) 0.5736(2)
O29 O 0.90609(17) 0.7532(2) 0.0515(2)
O30 O 0.91392(19) 0.2459(2) 0.0515(2)
O31 O 0.5876(2) 0.4986(3) 0.4588(3)
O32 O 0.31303(16) 0.07418(19) 0.4418(2)
Cd1C Cd 0.595603(14) 0.053864(18) 0.85641(2)
Cd1C_2 Cd 0.595603(14) 0.053864(18) -0.14359(2)
Cd2C Cd 0.503862(13) 0.146043(17) 0.755037(19)
Cd2C_2 Cd 0.503862(13) 0.146043(17) -0.244963(19)
Cd2A Cd 0.496138(13) 0.853957(17) 0.244963(19)
Cd3C Cd 0.401337(14) 0.067993(18) 0.65381(2)
Cd3A Cd 0.598663(14) 0.932007(18) 0.34619(2)
Cd3_2 Cd 1.401337(14) 0.432007(18) 0.15381(2)
Cd4A Cd 0.745494(15) 0.623107(18) -0.00677(2)
Cd4C Cd 0.254506(15) 0.376893(18) 0.00677(2)
Cd4C_2 Cd 1.254506(15) 0.376893(18) 0.00677(2)
Cd5A Cd 1.098510(14) 0.187630(17) 0.35518(2)
Cd5A_2 Cd 0.098510(14) 0.187630(17) 0.35518(2)
Cd5B Cd 1.098510(14) 0.312370(17) -0.14482(2)
Cd5C Cd 0.901490(14) -0.187630(17) 0.64482(2)
Cd6A Cd 1.002630(12) 0.103350(17) 0.248070(18)
Cd6_2 Cd -0.002630(12) 0.603350(17) 0.251930(18)
Cd6B Cd 1.002630(12) 0.396650(17) -0.251930(18)
Cd6B_2 Cd 1.002630(12) 0.396650(17) 0.748070(18)
Cd6C Cd 0.997370(12) -0.103350(17) 0.751930(18)
Cd7C Cd 0.904190(14) 0.309430(18) 0.65277(2)
Cd7A Cd 1.095810(14) 0.690570(18) 0.34723(2)
Cd7A_2 Cd 0.095810(14) 0.690570(18) 0.34723(2)
C1C C 0.6908(2) 0.0090(3) 0.8404(3)
C2C C 0.7438(2) -0.0130(3) 0.8213(3)
C3C C 0.7873(2) 0.0227(3) 0.8341(4)
H1C H 0.7835 0.0604 0.8547
C4C C 0.8355(2) 0.0035(3) 0.8170(3)
H2C H 0.8643 0.0273 0.8271
C5C C 0.8406(2) -0.0529(2) 0.7840(3)
C6C C 0.7971(2) -0.0878(3) 0.7700(3)
H3C H 0.8003 -0.1251 0.7481
C7C C 0.7496(2) -0.0680(3) 0.7883(3)
H4C H 0.7207 -0.0918 0.7784
C8C C 0.8928(2) -0.0756(2) 0.7645(3)
C9C C 0.6091(2) 0.1693(3) 0.7409(3)
C10C C 0.6610(2) 0.1928(3) 0.7235(3)
C11C C 0.7053(2) 0.1582(3) 0.7339(3)
H5C H 0.7027 0.1194 0.7519
C12C C 0.7527(2) 0.1803(3) 0.7181(4)
H6C H 0.7818 0.1566 0.7265
C13C C 0.7582(2) 0.2373(3) 0.6899(3)
C14C C 0.7143(2) 0.2718(3) 0.6782(4)
H7C H 0.7173 0.3103 0.6594
C15C C 0.6663(2) 0.2503(3) 0.6936(4)
H8C H 0.6372 0.2739 0.6842
C16C C 0.8108(2) 0.2617(3) 0.6738(3)
C17C C 0.5463(2) 0.1511(3) -0.0787(3)
C18C C 0.5227(2) 0.1991(3) -0.0333(3)
C19C C 0.5490(2) 0.2200(3) 0.0264(3)
H9C H 0.5813 0.2044 0.0390
C20C C 0.5274(2) 0.2642(3) 0.0680(3)
H10C H 0.5456 0.2789 0.1078
C21C C 0.4790(2) 0.2866(3) 0.0505(3)
C22C C 0.4519(2) 0.2646(3) -0.0085(3)
H11C H 0.4190 0.2790 -0.0202
C23C C 0.4739(2) 0.2213(3) -0.0501(3)
H12C H 0.4557 0.2066 -0.0899
C24C C 0.4571(2) 0.3374(3) 0.0936(3)
C25A C 0.5981(2) 0.8150(2) 0.2308(3)
C26A C 0.6467(2) 0.7858(3) 0.2092(3)
C27A C 0.6466(2) 0.7260(2) 0.1847(3)
H13A H 0.6160 0.7043 0.1827
C28A C 0.6916(2) 0.6991(3) 0.1634(3)
H14A H 0.6913 0.6593 0.1483
C29A C 0.7369(2) 0.7314(3) 0.1648(3)
C30A C 0.7374(2) 0.7906(3) 0.1891(3)
H15A H 0.7681 0.8121 0.1908
C31A C 0.6925(2) 0.8175(3) 0.2107(3)
H16A H 0.6932 0.8572 0.2264
C32A C 0.7867(2) 0.7029(3) 0.1406(3)
C33B C 1.0464(2) 0.4079(3) -0.0842(3)
C34B C 1.0229(2) 0.4562(3) -0.0416(3)
C35B C 1.0489(2) 0.4782(3) 0.0192(3)
H17B H 1.0817 0.4640 0.0319
C36B C 0.9746(2) 0.4783(3) -0.0610(3)
H18B H 0.9575 0.4641 -0.1020
C37_2 C 1.2919(2) 0.4562(3) 0.1576(3)
C38_2 C 1.2416(2) 0.4855(3) 0.1776(3)
C39_2 C 1.2410(2) 0.5458(3) 0.1980(4)
H19_2 H 1.2715 0.5679 0.1992
C40_2 C 1.1957(2) 0.5732(3) 0.2165(4)
H20_2 H 1.1956 0.6137 0.2286
C41_2 C 1.1500(2) 0.5402(3) 0.2170(3)
C42_2 C 1.1508(2) 0.4796(3) 0.1975(3)
H21_2 H 1.1208 0.4569 0.1984
C43_2 C 1.1966(2) 0.4527(3) 0.1768(3)
H22_2 H 1.1967 0.4126 0.1625
C44_2 C 1.1002(2) 0.5694(3) 0.2367(3)
C45B C 0.9557(2) 0.4058(3) 0.5849(3)
C46B C 0.9782(2) 0.4554(3) 0.5420(3)
C47B C 0.9554(2) 0.4708(3) 0.4758(3)
H23B H 0.9258 0.4511 0.4591
C48B C 1.0229(2) 0.4845(3) 0.5643(3)
H24B H 1.0389 0.4737 0.6075
C49C C 0.5126(2) -0.0487(3) 0.7800(3)
C50C C 0.5296(3) -0.1036(3) 0.8059(4)
H25C H 0.5580 -0.1062 0.8374
C51C C 0.5036(3) -0.1542(3) 0.7839(4)
H26C H 0.5147 -0.1915 0.8007
C52C C 0.4605(3) -0.1511(3) 0.7367(5)
H27C H 0.4438 -0.1865 0.7230
C53C C 0.4427(3) -0.0976(3) 0.7103(4)
H28C H 0.4143 -0.0957 0.6788
C54C C 0.4690(2) -0.0454(2) 0.7327(3)
C55A C 0.9769(2) 0.2966(2) 0.2389(3)
C56A C 0.9526(3) 0.3505(3) 0.2202(4)
H29A H 0.9237 0.3512 0.1896
C57A C 0.9728(3) 0.4022(3) 0.2484(5)
H30A H 0.9565 0.4385 0.2374
C58A C 1.0171(3) 0.4028(3) 0.2933(4)
H31A H 1.0298 0.4393 0.3104
C59A C 1.0417(3) 0.3509(3) 0.3122(3)
H32A H 1.0712 0.3513 0.3419
C60A C 1.0213(2) 0.2970(2) 0.2855(3)
C61C C 0.6145(3) 0.0232(5) 1.0133(5)
H33C H 0.6380 0.0540 1.0061
C62C C 0.5723(5) -0.0421(6) 1.0929(6)
H34C H 0.5681 -0.0693 1.0535
H35C H 0.5842 -0.0640 1.1344
H36C H 0.5399 -0.0234 1.1020
C63C C 0.6354(5) 0.0369(7) 1.1387(6)
H37C H 0.6546 0.0701 1.1204
H38C H 0.6099 0.0518 1.1698
H39C H 0.6585 0.0103 1.1646
C64C C 0.3693(3) -0.0274(3) 0.5345(3)
H40C H 0.3366 -0.0181 0.5500
C65C C 0.4238(4) -0.0855(5) 0.4567(6)
H41C H 0.4386 -0.1181 0.4838
H42C H 0.4190 -0.0974 0.4079
H43C H 0.4464 -0.0513 0.4598
C66C C 0.3257(4) -0.1003(5) 0.4551(6)
H44C H 0.2973 -0.0934 0.4854
H45C H 0.3174 -0.0846 0.4085
H46C H 0.3320 -0.1427 0.4519
C67A C 0.6837(2) 0.7340(3) -0.0637(4)
H47A H 0.6848 0.7137 -0.1069
C68A C 0.6462(6) 0.8178(5) -0.1274(5)
H48A H 0.6659 0.8062 -0.1674
H49A H 0.6473 0.8608 -0.1222
H50A H 0.6111 0.8050 -0.1350
C69A C 0.6630(3) 0.8239(3) 0.0014(5)
H51A H 0.6802 0.8023 0.0396
H52A H 0.6273 0.8288 0.0116
H53A H 0.6786 0.8628 -0.0034
C70A C 0.6403(2) 0.5861(3) 0.0554(3)
H54A H 0.6278 0.6091 0.0172
C71A C 0.5523(2) 0.5840(4) 0.0963(4)
H55A H 0.5443 0.6002 0.0499
H56A H 0.5445 0.6134 0.1318
H57A H 0.5321 0.5485 0.1034
C72A C 0.6243(3) 0.5364(4) 0.1673(4)
H58A H 0.6609 0.5304 0.1672
H59A H 0.6073 0.4981 0.1689
H60A H 0.6158 0.5597 0.2083
C73A C 0.8487(2) 0.6662(3) -0.0689(3)
H61A H 0.8627 0.6469 -0.0288
C74A C 0.9362(3) 0.6730(4) -0.1113(4)
H62A H 0.9451 0.6610 -0.0634
H63A H 0.9543 0.7092 -0.1224
H64A H 0.9456 0.6417 -0.1435
C75A C 0.8614(3) 0.7135(4) -0.1838(4)
H65A H 0.8248 0.7194 -0.1825
H66A H 0.8691 0.6888 -0.2240
H67A H 0.8782 0.7517 -0.1880
C76A C 0.8145(3) 0.5193(3) 0.0551(3)
H68A H 0.8146 0.5417 0.0969
C77A C 0.8613(5) 0.4415(4) 0.1192(5)
H69A H 0.8533 0.4661 0.1593
H70A H 0.8979 0.4417 0.1131
H71A H 0.8500 0.4010 0.1273
C78A C 0.8379(3) 0.4283(3) -0.0073(5)
H72A H 0.8148 0.4444 -0.0436
H73A H 0.8281 0.3878 0.0033
H74A H 0.8724 0.4286 -0.0239
C79C C 0.8902(3) 0.2713(4) 0.4963(4)
H75C H 0.8648 0.3004 0.5013
C80C C 0.9373(4) 0.2088(5) 0.4190(5)
H76C H 0.9354 0.1765 0.4525
H77C H 0.9325 0.1933 0.3715
H78C H 0.9705 0.2277 0.4239
C81C C 0.8716(5) 0.2811(9) 0.3697(6)
H79C H 0.8470 0.3097 0.3858
H80C H 0.8966 0.3013 0.3418
H81C H 0.8542 0.2510 0.3411
C82A C 1.1324(3) 0.2804(3) 0.4744(4)
H82A H 1.1641 0.2711 0.4559
C83A C 1.0850(4) 0.3383(5) 0.5563(5)
H83A H 1.0766 0.3787 0.5420
H84A H 1.0892 0.3365 0.6071
H85A H 1.0577 0.3118 0.5407
C84A C 1.1802(4) 0.3467(5) 0.5551(7)
H86A H 1.2059 0.3473 0.5196
H87A H 1.1923 0.3230 0.5950
H88A H 1.1737 0.3871 0.5706
N1C N 0.52962(17) 0.00830(19) 0.7905(2)
N2C N 0.49852(14) 0.0445(2) 0.7518(2)
N3C N 0.46165(16) 0.01337(18) 0.7171(2)
N4A N 0.96754(16) 0.2392(2) 0.2197(2)
N4B N 0.96754(16) 0.2608(2) 0.7197(2)
N5A N 1.00337(14) 0.2052(2) 0.2520(2)
N6A N 1.03667(16) 0.23843(19) 0.2914(2)
N7C N 0.6089(3) 0.0026(4) 1.0767(4)
N8A N 0.6673(2) 0.7904(3) -0.0648(3)
N9A N 0.6073(2) 0.5687(3) 0.1024(3)
N10A N 0.8798(2) 0.6838(3) -0.1184(3)
N11A N 0.8355(2) 0.4648(3) 0.0563(3)
N12A N 1.1322(3) 0.3203(3) 0.5246(3)
N13C N 0.3731(3) -0.0693(3) 0.4857(4)
N14C N 0.8981(3) 0.2519(4) 0.4321(3)
O1C O 0.68670(16) 0.0584(2) 0.8731(3)
O2C O 0.65258(15) -0.0228(2) 0.8229(2)
O3C O 0.93079(14) -0.04012(17) 0.7680(2)
O3A O 1.06921(14) 0.04012(17) 0.2320(2)
O4C O 0.89691(14) -0.13038(17) 0.7491(2)
O4A O 1.10309(14) 0.13038(17) 0.2509(2)
O5C O 0.60437(14) 0.11405(17) 0.7541(2)
O6C O 0.57146(14) 0.20542(18) 0.7392(2)
O7C O 0.84936(15) 0.2327(2) 0.6953(2)
O8C O 0.81392(16) 0.3106(2) 0.6395(3)
O9C O 0.51872(16) 0.12695(19) -0.1264(2)
O9C_2 O 0.51872(16) 0.12695(19) 0.8736(2)
O10C O 0.59255(17) 0.1365(2) -0.0673(3)
O10C_2 O 0.59255(17) 0.1365(2) 0.9327(3)
O11C O 0.40936(15) 0.34996(19) 0.0849(2)
O12C O 0.48601(15) 0.36614(17) 0.1351(2)
O13A O 0.59842(15) 0.87041(17) 0.2453(2)
O13C O 0.40158(15) 0.12959(17) 0.7547(2)
O14A O 0.55720(13) 0.78396(17) 0.2305(2)
O14C O 0.44280(13) 0.21604(17) 0.7695(2)
O15A O 0.82670(15) 0.7261(2) 0.1686(2)
O15_2 O 1.17330(15) 0.2261(2) 0.3314(2)
O16A O 0.78617(15) 0.66029(19) 0.0980(2)
O17B O 1.01934(15) 0.38225(17) -0.1314(2)
O17A O 1.01934(15) 0.11775(17) 0.3686(2)
O18B O 1.09306(16) 0.3929(2) -0.0713(2)
O18A O 1.09306(16) 0.1071(2) 0.4287(2)
O19_2 O 1.33168(16) 0.4784(2) 0.1879(2)
O19C O 0.33168(16) 0.0216(2) 0.6879(2)
O20_2 O 1.29326(15) 0.41414(19) 0.1134(2)
O20C O 0.29326(15) 0.08586(19) 0.6134(2)
O20B O 0.70674(15) 0.58586(19) -0.1134(2)
O21_2 O 1.09980(14) 0.62543(17) 0.2479(2)
O21A O 0.90020(14) 0.12543(17) 0.2521(2)
O21B O 0.90020(14) 0.37457(17) 0.7521(2)
O22_2 O 1.06070(14) 0.53701(18) 0.2378(2)
O22A O 0.93930(14) 0.03701(18) 0.2622(2)
O23B O 0.98372(16) 0.37938(18) 0.6307(2)
O23A O 0.98372(16) 0.12062(18) 0.1307(2)
O24B O 0.90936(17) 0.3911(2) 0.5741(2)
O24A O 0.90936(17) 0.1089(2) 0.0741(2)
O25C O 0.40691(17) 0.0005(2) 0.5613(2)
O26A O 0.69743(17) 0.7066(2) -0.0094(2)
O27A O 0.79487(17) 0.5412(2) -0.0001(2)
O28A O 0.80109(16) 0.6743(2) -0.0736(2)
O29A O 1.09391(17) 0.2532(2) 0.4485(2)
O30C O 0.91392(19) 0.2541(2) 0.5515(2)
O31C O 0.5876(2) 0.0014(3) 0.9588(3)
O32A O 0.68697(16) 0.57418(19) 0.0582(2)
C85 C 0.1622(5) 0.4532(6) 0.3958(8)
C86 C 0.2527(8) 0.4460(9) 0.4089(11)
N15 N 0.2044(4) 0.4827(5) 0.4083(6)
O33 O 0.1582(5) 0.3991(6) 0.3794(7)
C88 C 0.2089(7) 0.5473(8) 0.4154(12)
C87 C 0.2467(7) 0.7993(9) 0.5870(14)
N17 N 0.2927(5) 0.7601(5) 0.5890(7)
O35 O 0.3391(6) 0.8388(7) 0.6205(9)
C90 C 0.3362(5) 0.7850(7) 0.6042(10)
C91 C 0.2903(7) 0.6966(6) 0.5672(9)
N16? N 0.2085(15) 0.5411(12) 0.451(2)
O34? O 0.2443(4) 0.6242(5) 0.4958(5)
C89? C 0.246(2) 0.5012(7) 0.488(3)
N18? N 0.2775(6) 0.7407(7) 0.5469(9)
O36? O 0.2347(12) 0.8208(10) 0.5060(18)
C92? C 0.2441(8) 0.7674(9) 0.5049(10)
C93? C 0.2762(14) 0.6792(10) 0.5180(19)
loop_
_geom_bond_atom_site_label_1
_geom_bond_atom_site_label_2
_geom_bond_site_symmetry_1
_geom_bond_site_symmetry_2
Cd1 N1 1_555 1_555
Cd2 N2 1_555 1_555
Cd3 N3 1_555 1_555
Cd4 O16 1_555 1_555
Cd5 N6 1_555 1_555
Cd6 N5 1_555 1_555
Cd7 O7 1_555 1_555
C1 C2 1_555 1_555
C2 C3 1_555 1_555
C3 H1 1_555 1_555
C4 C3 1_555 1_555
H2 C4 1_555 1_555
C5 C4 1_555 1_555
C6 C5 1_555 1_555
H3 C6 1_555 1_555
C7 C2 1_555 1_555
H4 C7 1_555 1_555
C8 C5 1_555 1_555
C9 C10 1_555 1_555
C10 C11 1_555 1_555
C11 H5 1_555 1_555
C12 C11 1_555 1_555
H6 C12 1_555 1_555
C13 C12 1_555 1_555
C14 C13 1_555 1_555
H7 C14 1_555 1_555
C15 C10 1_555 1_555
H8 C15 1_555 1_555
C16 C13 1_555 1_555
C17 C18 1_555 1_555
C18 C19 1_555 1_555
C19 H9 1_555 1_555
C20 C19 1_555 1_555
H10 C20 1_555 1_555
C21 C20 1_555 1_555
C22 C21 1_555 1_555
H11 C22 1_555 1_555
C23 C18 1_555 1_555
H12 C23 1_555 1_555
C24 C21 1_555 1_555
C25 C26 1_555 1_555
C26 C27 1_555 1_555
C27 H13 1_555 1_555
C28 C27 1_555 1_555
H14 C28 1_555 1_555
C29 C28 1_555 1_555
C30 C29 1_555 1_555
H15 C30 1_555 1_555
C31 C26 1_555 1_555
H16 C31 1_555 1_555
C32 C29 1_555 1_555
C33 C34 1_555 1_555
C34 C35 1_555 1_555
C35 H17 1_555 1_555
C36 C34 1_555 1_555
H18 C36 1_555 1_555
C37 C38 1_555 1_555
C38 C39 1_555 1_555
C39 H19 1_555 1_555
C40 C39 1_555 1_555
H20 C40 1_555 1_555
C41 C40 1_555 1_555
C42 C41 1_555 1_555
H21 C42 1_555 1_555
C43 C38 1_555 1_555
H22 C43 1_555 1_555
C44 C41 1_555 1_555
C45 C46 1_555 1_555
C46 C47 1_555 1_555
C47 H23 1_555 1_555
C48 C46 1_555 1_555
H24 C48 1_555 1_555
C49 C50 1_555 1_555
C50 H25 1_555 1_555
C51 C50 1_555 1_555
H26 C51 1_555 1_555
C52 C51 1_555 1_555
H27 C52 1_555 1_555
C53 C52 1_555 1_555
H28 C53 1_555 1_555
C54 C49 1_555 1_555
C55 C56 1_555 1_555
C56 H29 1_555 1_555
C57 C56 1_555 1_555
H30 C57 1_555 1_555
C58 C57 1_555 1_555
H31 C58 1_555 1_555
C59 C58 1_555 1_555
H32 C59 1_555 1_555
C60 C55 1_555 1_555
C61 H33 1_555 1_555
C62 H34 1_555 1_555
H35 C62 1_555 1_555
H36 C62 1_555 1_555
C63 H37 1_555 1_555
H38 C63 1_555 1_555
H39 C63 1_555 1_555
C64 H40 1_555 1_555
C65 H41 1_555 1_555
H42 C65 1_555 1_555
H43 C65 1_555 1_555
C66 H44 1_555 1_555
H45 C66 1_555 1_555
H46 C66 1_555 1_555
C67 H47 1_555 1_555
C68 H48 1_555 1_555
H49 C68 1_555 1_555
H50 C68 1_555 1_555
C69 H51 1_555 1_555
H52 C69 1_555 1_555
H53 C69 1_555 1_555
C70 H54 1_555 1_555
C71 H55 1_555 1_555
H56 C71 1_555 1_555
H57 C71 1_555 1_555
C72 H58 1_555 1_555
H59 C72 1_555 1_555
H60 C72 1_555 1_555
C73 H61 1_555 1_555
C74 H62 1_555 1_555
H63 C74 1_555 1_555
H64 C74 1_555 1_555
C75 H65 1_555 1_555
H66 C75 1_555 1_555
H67 C75 1_555 1_555
C76 H68 1_555 1_555
C77 H69 1_555 1_555
H70 C77 1_555 1_555
H71 C77 1_555 1_555
C78 H72 1_555 1_555
H73 C78 1_555 1_555
H74 C78 1_555 1_555
C79 H75 1_555 1_555
C80 H76 1_555 1_555
H77 C80 1_555 1_555
H78 C80 1_555 1_555
C81 H79 1_555 1_555
H80 C81 1_555 1_555
H81 C81 1_555 1_555
C82 H82 1_555 1_555
C83 H83 1_555 1_555
H84 C83 1_555 1_555
H85 C83 1_555 1_555
C84 H86 1_555 1_555
H87 C84 1_555 1_555
H88 C84 1_555 1_555
N1 C49 1_555 1_555
N2 N1 1_555 1_555
N3 C54 1_555 1_555
N4 C55 1_555 1_555
N5 N4 1_555 1_555
N6 C60 1_555 1_555
N7 C61 1_555 1_555
N8 C67 1_555 1_555
N9 C70 1_555 1_555
N10 C73 1_555 1_555
N11 C76 1_555 1_555
N12 C82 1_555 1_555
N13 C64 1_555 1_555
N14 C79 1_555 1_555
O1 Cd1 1_555 1_555
O2 Cd1 1_555 1_555
O3 Cd6 1_555 1_555
O4 Cd5 1_555 1_555
O5 Cd1 1_555 1_555
O6 Cd2 1_555 1_555
O7 C16 1_555 1_555
O8 Cd7 1_555 1_555
O9 Cd1 1_555 1_555
O10 Cd1 1_555 1_555
O11 C24 1_555 1_555
O12 C24 1_555 1_555
O13 Cd3 1_555 1_555
O14 Cd2 1_555 1_555
O15 C32 1_555 1_555
O16 C32 1_555 1_555
O17 Cd5 1_555 1_555
O18 Cd5 1_555 1_555
O19 Cd3 1_555 1_555
O20 C37 1_555 1_555
O21 C44 1_555 1_555
O22 C44 1_555 1_555
O23 Cd6 1_555 1_555
O24 C45 1_555 1_555
O25 Cd3 1_555 1_555
O26 Cd4 1_555 1_555
O27 Cd4 1_555 1_555
O28 Cd4 1_555 1_555
O29 Cd5 1_555 1_555
O30 Cd7 1_555 1_555
O31 Cd1 1_555 1_555
O32 Cd4 1_555 1_555
C85 N15 1_555 1_555
C86 N15 1_555 1_555
C87 N17 1_555 1_555
N15 C88 1_555 1_555
O33 C85 1_555 1_555
N17 C90 1_555 1_555
O35 C90 1_555 1_555
C91 N17 1_555 1_555
Cd1C N1C 1_555 1_555
Cd1C_2 O9C 1_555 1_555
Cd2C O12 1_555 1_555
Cd2C_2 O9C 1_555 1_555
Cd2A O14A 1_555 1_555
Cd3C O11 1_555 1_555
Cd3A O13A 1_555 1_555
Cd3_2 O19_2 1_555 1_555
Cd4A O16A 1_555 1_555
Cd4C O20 1_555 1_555
Cd4C_2 O20_2 1_555 1_555
Cd5A N6A 1_555 1_555
Cd5A_2 O15 1_555 1_555
Cd5B O17B 1_555 1_555
Cd5C O4C 1_555 1_555
Cd6A N5A 1_555 1_555
Cd6_2 O22 1_555 1_555
Cd6B O17B 1_555 1_555
Cd6B_2 O23B 1_555 1_555
Cd6C O3C 1_555 1_555
Cd7C N4B 1_555 1_555
Cd7A N4 1_555 1_555
Cd7A_2 O21 1_555 1_555
C1C C2C 1_555 1_555
C2C C3C 1_555 1_555
C3C H1C 1_555 1_555
C4C C3C 1_555 1_555
H2C C4C 1_555 1_555
C5C C4C 1_555 1_555
C6C C5C 1_555 1_555
H3C C6C 1_555 1_555
C7C C2C 1_555 1_555
H4C C7C 1_555 1_555
C8C C5C 1_555 1_555
C9C C10C 1_555 1_555
C10C C11C 1_555 1_555
C11C H5C 1_555 1_555
C12C C11C 1_555 1_555
H6C C12C 1_555 1_555
C13C C12C 1_555 1_555
C14C C13C 1_555 1_555
H7C C14C 1_555 1_555
C15C C10C 1_555 1_555
H8C C15C 1_555 1_555
C16C C13C 1_555 1_555
C17C C18C 1_555 1_555
C18C C19C 1_555 1_555
C19C H9C 1_555 1_555
C20C C19C 1_555 1_555
H10C C20C 1_555 1_555
C21C C20C 1_555 1_555
C22C C21C 1_555 1_555
H11C C22C 1_555 1_555
C23C C18C 1_555 1_555
H12C C23C 1_555 1_555
C24C C21C 1_555 1_555
C25A C26A 1_555 1_555
C26A C27A 1_555 1_555
C27A H13A 1_555 1_555
C28A C27A 1_555 1_555
H14A C28A 1_555 1_555
C29A C28A 1_555 1_555
C30A C29A 1_555 1_555
H15A C30A 1_555 1_555
C31A C26A 1_555 1_555
H16A C31A 1_555 1_555
C32A C29A 1_555 1_555
C33B C34B 1_555 1_555
C34B C35B 1_555 1_555
C35B C36 1_555 1_555
H17B C35B 1_555 1_555
C36B C35 1_555 1_555
H18B C36B 1_555 1_555
C37_2 C38_2 1_555 1_555
C38_2 C39_2 1_555 1_555
C39_2 H19_2 1_555 1_555
C40_2 C39_2 1_555 1_555
H20_2 C40_2 1_555 1_555
C41_2 C40_2 1_555 1_555
C42_2 C41_2 1_555 1_555
H21_2 C42_2 1_555 1_555
C43_2 C38_2 1_555 1_555
H22_2 C43_2 1_555 1_555
C44_2 C41_2 1_555 1_555
C45B C46B 1_555 1_555
C46B C47B 1_555 1_555
C47B C48 1_555 1_555
H23B C47B 1_555 1_555
C48B C47 1_555 1_555
H24B C48B 1_555 1_555
C49C C50C 1_555 1_555
C50C H25C 1_555 1_555
C51C C50C 1_555 1_555
H26C C51C 1_555 1_555
C52C C51C 1_555 1_555
H27C C52C 1_555 1_555
C53C C52C 1_555 1_555
H28C C53C 1_555 1_555
C54C C49C 1_555 1_555
C55A C56A 1_555 1_555
C56A H29A 1_555 1_555
C57A C56A 1_555 1_555
H30A C57A 1_555 1_555
C58A C57A 1_555 1_555
H31A C58A 1_555 1_555
C59A C58A 1_555 1_555
H32A C59A 1_555 1_555
C60A C55A 1_555 1_555
C61C H33C 1_555 1_555
C62C H34C 1_555 1_555
H35C C62C 1_555 1_555
H36C C62C 1_555 1_555
C63C H37C 1_555 1_555
H38C C63C 1_555 1_555
H39C C63C 1_555 1_555
C64C H40C 1_555 1_555
C65C H41C 1_555 1_555
H42C C65C 1_555 1_555
H43C C65C 1_555 1_555
C66C H44C 1_555 1_555
H45C C66C 1_555 1_555
H46C C66C 1_555 1_555
C67A H47A 1_555 1_555
C68A H48A 1_555 1_555
H49A C68A 1_555 1_555
H50A C68A 1_555 1_555
C69A H51A 1_555 1_555
H52A C69A 1_555 1_555
H53A C69A 1_555 1_555
C70A H54A 1_555 1_555
C71A H55A 1_555 1_555
H56A C71A 1_555 1_555
H57A C71A 1_555 1_555
C72A H58A 1_555 1_555
H59A C72A 1_555 1_555
H60A C72A 1_555 1_555
C73A H61A 1_555 1_555
C74A H62A 1_555 1_555
H63A C74A 1_555 1_555
H64A C74A 1_555 1_555
C75A H65A 1_555 1_555
H66A C75A 1_555 1_555
H67A C75A 1_555 1_555
C76A H68A 1_555 1_555
C77A H69A 1_555 1_555
H70A C77A 1_555 1_555
H71A C77A 1_555 1_555
C78A H72A 1_555 1_555
H73A C78A 1_555 1_555
H74A C78A 1_555 1_555
C79C H75C 1_555 1_555
C80C H76C 1_555 1_555
H77C C80C 1_555 1_555
H78C C80C 1_555 1_555
C81C H79C 1_555 1_555
H80C C81C 1_555 1_555
H81C C81C 1_555 1_555
C82A H82A 1_555 1_555
C83A H83A 1_555 1_555
H84A C83A 1_555 1_555
H85A C83A 1_555 1_555
C84A H86A 1_555 1_555
H87A C84A 1_555 1_555
H88A C84A 1_555 1_555
N1C C49C 1_555 1_555
N2C Cd2C 1_555 1_555
N3C Cd3C 1_555 1_555
N4A Cd7 1_555 1_555
N5A N4A 1_555 1_555
N6A C60A 1_555 1_555
N7C C61C 1_555 1_555
N8A C67A 1_555 1_555
N9A C70A 1_555 1_555
N10A C73A 1_555 1_555
N11A C76A 1_555 1_555
N12A C82A 1_555 1_555
N13C C64C 1_555 1_555
N14C C79C 1_555 1_555
O1C Cd1C 1_555 1_555
O2C Cd1C 1_555 1_555
O3C C8C 1_555 1_555
O3A Cd6A 1_555 1_555
O4C C8C 1_555 1_555
O4A Cd5A 1_555 1_555
O5C Cd1C 1_555 1_555
O6C Cd2C 1_555 1_555
O7C Cd7C 1_555 1_555
O8C Cd7C 1_555 1_555
O9C C17C 1_555 1_555
O9C_2 Cd1C 1_555 1_555
O10C Cd1C_2 1_555 1_555
O10C_2 Cd1C 1_555 1_555
O11C Cd3 1_555 1_555
O12C Cd2 1_555 1_555
O13A C25A 1_555 1_555
O13C Cd3C 1_555 1_555
O14A C25A 1_555 1_555
O14C Cd2C 1_555 1_555
O15A Cd5 1_555 1_555
O15_2 Cd5A 1_555 1_555
O16A C32A 1_555 1_555
O17B C33B 1_555 1_555
O17A Cd5A 1_555 1_555
O18B Cd5B 1_555 1_555
O18A Cd5A 1_555 1_555
O19_2 C37_2 1_555 1_555
O19C Cd3C 1_555 1_555
O20_2 C37_2 1_555 1_555
O20C Cd4 1_555 1_555
O20B Cd4A 1_555 1_555
O21_2 Cd7A 1_555 1_555
O21A Cd7 1_555 1_555
O21B Cd7C 1_555 1_555
O22_2 Cd6 1_555 1_555
O22A Cd6A 1_555 1_555
O23B Cd7C 1_555 1_555
O23A Cd7 1_555 1_555
O24B Cd7C 1_555 1_555
O24A Cd7 1_555 1_555
O25C Cd3C 1_555 1_555
O26A Cd4A 1_555 1_555
O27A Cd4A 1_555 1_555
O28A Cd4A 1_555 1_555
O29A Cd5A 1_555 1_555
O30C Cd7C 1_555 1_555
O31C Cd1C 1_555 1_555
O32A Cd4A 1_555 1_555
Cd2 O9 1_555 1_555
Cd6 O17 1_555 1_555
C1 O1 1_555 1_555
C1 O2 1_555 1_555
C6 C7 1_555 1_555
C8 O3 1_555 1_555
C8 O4 1_555 1_555
C9 O5 1_555 1_555
C9 O6 1_555 1_555
C14 C15 1_555 1_555
C16 O8 1_555 1_555
C17 O9 1_555 1_555
C17 O10 1_555 1_555
C22 C23 1_555 1_555
C25 O13 1_555 1_555
C25 O14 1_555 1_555
C30 C31 1_555 1_555
C33 O17 1_555 1_555
C33 O18 1_555 1_555
C37 O19 1_555 1_555
C42 C43 1_555 1_555
C45 O23 1_555 1_555
C53 C54 1_555 1_555
C59 C60 1_555 1_555
C61 O31 1_555 1_555
C62 N7 1_555 1_555
C63 N7 1_555 1_555
C64 O25 1_555 1_555
C65 N13 1_555 1_555
C66 N13 1_555 1_555
C67 O26 1_555 1_555
C68 N8 1_555 1_555
C69 N8 1_555 1_555
C70 O32 1_555 1_555
C71 N9 1_555 1_555
C72 N9 1_555 1_555
C73 O28 1_555 1_555
C74 N10 1_555 1_555
C75 N10 1_555 1_555
C76 O27 1_555 1_555
C77 N11 1_555 1_555
C78 N11 1_555 1_555
C79 O30 1_555 1_555
C80 N14 1_555 1_555
C81 N14 1_555 1_555
C82 O29 1_555 1_555
C83 N12 1_555 1_555
C84 N12 1_555 1_555
N2 N3 1_555 1_555
N5 N6 1_555 1_555
O23 Cd7A 1_555 1_555
O24 Cd7A 1_555 1_555
Cd2C O9C_2 1_555 1_555
Cd6A O17A 1_555 1_555
Cd6A O23A 1_555 1_555
C1C O1C 1_555 1_555
C1C O2C 1_555 1_555
C6C C7C 1_555 1_555
C9C O5C 1_555 1_555
C9C O6C 1_555 1_555
C14C C15C 1_555 1_555
C16C O7C 1_555 1_555
C16C O8C 1_555 1_555
C17C O10C 1_555 1_555
C22C C23C 1_555 1_555
C24C O11C 1_555 1_555
C24C O12C 1_555 1_555
C30A C31A 1_555 1_555
C32A O15A 1_555 1_555
C33B O18B 1_555 1_555
C34B C36B 1_555 1_555
C42_2 C43_2 1_555 1_555
C44_2 O21_2 1_555 1_555
C44_2 O22_2 1_555 1_555
C45B O23B 1_555 1_555
C45B O24B 1_555 1_555
C46B C48B 1_555 1_555
C53C C54C 1_555 1_555
C54C N3C 1_555 1_555
C55A N4A 1_555 1_555
C59A C60A 1_555 1_555
C61C O31C 1_555 1_555
C62C N7C 1_555 1_555
C63C N7C 1_555 1_555
C64C O25C 1_555 1_555
C65C N13C 1_555 1_555
C66C N13C 1_555 1_555
C67A O26A 1_555 1_555
C68A N8A 1_555 1_555
C69A N8A 1_555 1_555
C70A O32A 1_555 1_555
C71A N9A 1_555 1_555
C72A N9A 1_555 1_555
C73A O28A 1_555 1_555
C74A N10A 1_555 1_555
C75A N10A 1_555 1_555
C76A O27A 1_555 1_555
C77A N11A 1_555 1_555
C78A N11A 1_555 1_555
C79C O30C 1_555 1_555
C80C N14C 1_555 1_555
C81C N14C 1_555 1_555
C82A O29A 1_555 1_555
C83A N12A 1_555 1_555
C84A N12A 1_555 1_555
N1C N2C 1_555 1_555
N2C N3C 1_555 1_555
N5A N6A 1_555 1_555

#END
