
#######################################################################
#
#                 Cambridge Crystallographic Data Centre
#                                CCDC 
#
#######################################################################
#
# If this CIF has been generated from an entry in the Cambridge 
# Structural Database, then it will include bibliographic, chemical, 
# crystal, experimental, refinement or atomic coordinate data resulting 
# from the CCDC's data processing and validation procedures.
#
#######################################################################

data_RAVJUV
_symmetry_cell_setting           monoclinic
_symmetry_space_group_name_H-M   'C c'
_symmetry_Int_Tables_number      9
_space_group_name_Hall           'C -2yc'
loop_
_symmetry_equiv_pos_site_id
_symmetry_equiv_pos_as_xyz
1 x,y,z
2 x,-y,1/2+z
3 1/2+x,1/2+y,z
4 1/2+x,1/2-y,1/2+z
_cell_length_a                   11.3160(3)
_cell_length_b                   17.8157(5)
_cell_length_c                   7.1635(2)
_cell_angle_alpha                90
_cell_angle_beta                 118.9720(10)
_cell_angle_gamma                90
_cell_volume                     1263.45
loop_
_atom_site_label
_atom_site_type_symbol
_atom_site_fract_x
_atom_site_fract_y
_atom_site_fract_z
Gd1 Gd 0.82654(6) 0.167964(9) 0.49820(7)
O1 O 0.9969(4) 0.1797(2) 0.8772(6)
H1 H 0.9978 0.1403 0.9422
O2 O 0.7805(4) 0.0702(2) 0.7042(6)
O3 O 0.7251(4) 0.2397(2) 0.6869(7)
O4 O 0.5834(4) 0.1472(2) 0.3462(6)
O5 O 0.4220(4) 0.2091(2) 0.0690(6)
C1 C 0.4622(6) -0.1335(3) 0.1547(9)
C2 C 0.3959(7) 0.0760(5) 0.0865(11)
O6 O 0.3914(4) -0.1918(2) 0.0812(6)
C3 C 0.4732(6) 0.1501(3) 0.1756(9)
O7 O 0.5872(4) -0.1339(2) 0.2838(6)
C4 C 0.1939(8) 0.0104(4) -0.1605(12)
O8 O -0.0066(4) -0.0537(2) -0.4065(6)
O9 O -0.0103(4) 0.0714(2) -0.4107(6)
C5 C 0.0480(5) 0.0098(3) -0.3389(8)
C6 C 0.3937(7) -0.0584(5) 0.0796(10)
C7 C 0.4613(10) 0.0085(4) 0.1660(15)
H2 H 0.5519 0.0078 0.2790
O10 O 0.7465(4) 0.0859(2) 0.1900(6)
C8 C 0.2617(8) 0.0793(5) -0.0786(12)
H3 H 0.2180 0.1260 -0.1332
C9 C 0.2609(8) -0.0571(5) -0.0805(12)
H4 H 0.2146 -0.1031 -0.1367
O11 O 0.7067(4) 0.2468(2) 0.1882(6)
O12 O 0.9768(4) 0.1855(3) 0.3353(7)
H5 H 0.952(7) 0.224(2) 0.257(8)
H6 H 0.690(7) 0.205(3) 0.726(9)
H7 H 0.743(5) 0.280(3) 0.147(9)
H8 H 0.6241(19) 0.246(3) 0.093(8)
H9 H 0.744(7) 0.0388(7) 0.168(7)
H10 H 0.716(4) 0.089(3) 0.717(8)
H11 H 0.685(5) 0.1001(16) 0.069(4)
H12 H 0.778(7) 0.263(4) 0.801(5)
H13 H 0.984(10) 0.151(3) 0.259(9)
H14 H 0.840(4) 0.059(4) 0.831(3)
H15 H 1.066(4) 0.205(2) 0.963(4)
Gd1_2 Gd -0.17346(6) 0.167964(9) -0.50180(7)
Gd1C Gd 0.32654(6) 0.332036(9) -0.00180(7)
O5C O 0.9220(4) 0.2909(2) 0.5690(6)
O9_2 O 0.9897(4) 0.0714(2) 0.5893(6)
loop_
_geom_bond_atom_site_label_1
_geom_bond_atom_site_label_2
_geom_bond_site_symmetry_1
_geom_bond_site_symmetry_2
Gd1 O1 1_555 1_555
O1 H1 1_555 1_555
O2 Gd1 1_555 1_555
O3 Gd1 1_555 1_555
O4 Gd1 1_555 1_555
O5 C3 1_555 1_555
C1 O6 1_555 1_555
C2 C3 1_555 1_555
C3 O4 1_555 1_555
O7 C1 1_555 1_555
C4 C5 1_555 1_555
O8 C5 1_555 1_555
O9 C5 1_555 1_555
C6 C1 1_555 1_555
C7 C2 1_555 1_555
H2 C7 1_555 1_555
O10 Gd1 1_555 1_555
C8 C2 1_555 1_555
H3 C8 1_555 1_555
C9 C4 1_555 1_555
H4 C9 1_555 1_555
O11 Gd1 1_555 1_555
O12 Gd1 1_555 1_555
H5 O12 1_555 1_555
H6 O3 1_555 1_555
H7 O11 1_555 1_555
H8 O11 1_555 1_555
H9 O10 1_555 1_555
H10 O2 1_555 1_555
H11 O10 1_555 1_555
H12 O3 1_555 1_555
H13 O12 1_555 1_555
H14 O2 1_555 1_555
H15 O1 1_555 1_555
Gd1_2 O9 1_555 1_555
Gd1C O5 1_555 1_555
O5C Gd1 1_555 1_555
O9_2 Gd1 1_555 1_555
C4 C8 1_555 1_555
C6 C7 1_555 1_555
C6 C9 1_555 1_555

#END
