
#######################################################################
#
#                 Cambridge Crystallographic Data Centre
#                                CCDC 
#
#######################################################################
#
# If this CIF has been generated from an entry in the Cambridge 
# Structural Database, then it will include bibliographic, chemical, 
# crystal, experimental, refinement or atomic coordinate data resulting 
# from the CCDC's data processing and validation procedures.
#
#######################################################################

data_RAVJED01
_symmetry_cell_setting           monoclinic
_symmetry_space_group_name_H-M   'P 21/c'
_symmetry_Int_Tables_number      14
_space_group_name_Hall           '-P 2ybc'
loop_
_symmetry_equiv_pos_site_id
_symmetry_equiv_pos_as_xyz
1 x,y,z
2 -x,1/2+y,1/2-z
3 -x,-y,-z
4 x,1/2-y,1/2+z
_cell_length_a                   7.1248(7)
_cell_length_b                   13.600(3)
_cell_length_c                   6.7973(9)
_cell_angle_alpha                90
_cell_angle_beta                 97.821(11)
_cell_angle_gamma                90
_cell_volume                     652.513
loop_
_atom_site_label
_atom_site_type_symbol
_atom_site_fract_x
_atom_site_fract_y
_atom_site_fract_z
Cu1 Cu 0.50000 0.50000 0.00000
O1 O 0.31779(6) 0.52337(3) -0.34766(8)
O2 O 0.09841(7) 0.61726(4) -0.25652(9)
N1 N 0.40935(6) 0.36349(3) 0.00133(4)
N2 N 0.22114(7) 0.23782(4) 0.02532(4)
N3 N 0.29967(6) 0.54052(3) -0.83082(7)
N4 N 0.11689(5) 0.60673(3) -0.57539(7)
N5 N 0.18172(5) 0.58058(3) -0.38533(6)
C1 C 0.51005(6) 0.27798(3) -0.01756(5)
C2 C 0.39368(7) 0.19927(3) -0.00279(5)
C3 C 0.23547(6) 0.33623(3) 0.02686(5)
C4 C 0.21996(5) 0.56851(3) -0.70374(6)
H1 H 0.65739(6) 0.27985(3) -0.03922(5)
H2 H 0.41587(7) 0.12095(3) -0.01238(5)
H3 H 0.10018(7) 0.20246(4) 0.04406(4)
H4 H 0.11944(6) 0.38507(3) 0.04465(5)
N3_2 N 0.29967(6) 0.54052(3) 0.16918(7)
Cu1_2 Cu 0.50000 0.50000 -1.00000
N3B N 0.70033(6) 0.45948(3) -0.16918(7)
O1B O 0.68221(6) 0.47663(3) 0.34766(8)
N1B N 0.59065(6) 0.63651(3) -0.00133(4)
C1B C 0.48995(6) 0.72202(3) 0.01756(5)
C2B C 0.60632(7) 0.80073(3) 0.00279(5)
N2B N 0.77886(7) 0.76218(4) -0.02532(4)
C3B C 0.76453(6) 0.66377(3) -0.02686(5)
H4B H 0.88056(6) 0.61493(3) -0.04465(5)
H3B H 0.89982(7) 0.79754(4) -0.04406(4)
H2B H 0.58413(7) 0.87905(3) 0.01238(5)
H1B H 0.34261(6) 0.72015(3) 0.03922(5)
N5B N 0.81828(5) 0.41942(3) 0.38533(6)
O2B O 0.90159(7) 0.38274(4) 0.25652(9)
N4B N 0.88311(5) 0.39327(3) 0.57539(7)
C4B C 0.78004(5) 0.43149(3) 0.70374(6)
Cu1_3 Cu 0.50000 0.50000 1.00000
N3B_2 N 0.70033(6) 0.45948(3) 0.83082(7)
loop_
_geom_bond_atom_site_label_1
_geom_bond_atom_site_label_2
_geom_bond_site_symmetry_1
_geom_bond_site_symmetry_2
Cu1 O1 1_555 1_555
O1 N5 1_555 1_555
O2 N5 1_555 1_555
N1 Cu1 1_555 1_555
N2 C2 1_555 1_555
N3 C4 1_555 1_555
N4 N5 1_555 1_555
C1 N1 1_555 1_555
C2 C1 1_555 1_555
C3 N1 1_555 1_555
C4 N4 1_555 1_555
H1 C1 1_555 1_555
H2 C2 1_555 1_555
H3 N2 1_555 1_555
H4 C3 1_555 1_555
N3_2 Cu1 1_555 1_555
Cu1_2 N3 1_555 1_555
N3B Cu1 1_555 1_555
O1B Cu1 1_555 1_555
N1B Cu1 1_555 1_555
C1B N1B 1_555 1_555
C2B C1B 1_555 1_555
N2B C2B 1_555 1_555
C3B N1B 1_555 1_555
H4B C3B 1_555 1_555
H3B N2B 1_555 1_555
H2B C2B 1_555 1_555
H1B C1B 1_555 1_555
N5B O1B 1_555 1_555
O2B N5B 1_555 1_555
N4B N5B 1_555 1_555
C4B N4B 1_555 1_555
Cu1_3 N3B_2 1_555 1_555
N3B_2 C4B 1_555 1_555
N2 C3 1_555 1_555
N2B C3B 1_555 1_555

#END
