
#######################################################################
#
#                 Cambridge Crystallographic Data Centre
#                                CCDC 
#
#######################################################################
#
# If this CIF has been generated from an entry in the Cambridge 
# Structural Database, then it will include bibliographic, chemical, 
# crystal, experimental, refinement or atomic coordinate data resulting 
# from the CCDC's data processing and validation procedures.
#
#######################################################################

data_RAVJED
_symmetry_cell_setting           monoclinic
_symmetry_space_group_name_H-M   'P 21/c'
_symmetry_Int_Tables_number      14
_space_group_name_Hall           '-P 2ybc'
loop_
_symmetry_equiv_pos_site_id
_symmetry_equiv_pos_as_xyz
1 x,y,z
2 -x,1/2+y,1/2-z
3 -x,-y,-z
4 x,1/2-y,1/2+z
_cell_length_a                   6.797(2)
_cell_length_b                   13.558(6)
_cell_length_c                   7.217(2)
_cell_angle_alpha                90
_cell_angle_beta                 96.58(3)
_cell_angle_gamma                90
_cell_volume                     660.692
loop_
_atom_site_label
_atom_site_type_symbol
_atom_site_fract_x
_atom_site_fract_y
_atom_site_fract_z
N1 N 0.4019(3) 0.3659(2) -0.0008(3)
C1 C 0.4973(4) 0.2789(2) -0.0093(5)
H1 H 0.6322(4) 0.2735(2) -0.0185(5)
C2 C 0.3790(4) 0.2030(2) -0.0032(4)
H2 H 0.4092(4) 0.1362(2) -0.0083(4)
N2 N 0.2098(4) 0.2440(2) 0.0116(4)
H3 H 0.1010(4) 0.2127(2) 0.0192(4)
C3 C 0.2285(4) 0.3414(2) 0.0134(5)
H4 H 0.1253(4) 0.3853(2) 0.0239(5)
N3 N 0.3053(3) 0.5434(2) 0.1734(4)
C4 C 0.2286(3) 0.5708(2) 0.3000(4)
N4 N 0.1258(3) 0.6099(2) 0.4287(4)
N5 N 0.1844(3) 0.5830(2) 0.6158(4)
O1 O 0.3172(3) 0.5269(2) -0.3465(3)
O2 O 0.1007(3) 0.6198(2) 0.7447(3)
Cu1 Cu 0.5000 0.5000 0.0000
N1B N 0.5981(3) 0.6341(2) 0.0008(3)
C1B C 0.5027(4) 0.7211(2) 0.0093(5)
H1B H 0.3678(4) 0.7265(2) 0.0185(5)
C2B C 0.6210(4) 0.7970(2) 0.0032(4)
H2B H 0.5908(4) 0.8638(2) 0.0083(4)
N2B N 0.7902(4) 0.7560(2) -0.0116(4)
H3B H 0.8990(4) 0.7873(2) -0.0192(4)
C3B C 0.7715(4) 0.6586(2) -0.0134(5)
H4B H 0.8747(4) 0.6147(2) -0.0239(5)
O1_2 O 0.3172(3) 0.5269(2) 0.6535(3)
Cu1_2 Cu 0.5000 0.5000 1.0000
N3B N 0.6947(3) 0.4566(2) 0.8266(4)
C4B C 0.7714(3) 0.4292(2) 0.7000(4)
N4B N 0.8742(3) 0.3901(2) 0.5713(4)
N5B N 0.8156(3) 0.4170(2) 0.3842(4)
O1B O 0.6828(3) 0.4731(2) 0.3465(3)
N3B_2 N 0.6947(3) 0.4566(2) -0.1734(4)
O2B O 0.8993(3) 0.3802(2) 0.2553(3)
loop_
_geom_bond_atom_site_label_1
_geom_bond_atom_site_label_2
_geom_bond_site_symmetry_1
_geom_bond_site_symmetry_2
N1 C1 1_555 1_555
C1 H1 1_555 1_555
C2 C1 1_555 1_555
H2 C2 1_555 1_555
N2 C2 1_555 1_555
H3 N2 1_555 1_555
C3 N1 1_555 1_555
H4 C3 1_555 1_555
N3 C4 1_555 1_555
C4 N4 1_555 1_555
N4 N5 1_555 1_555
N5 O2 1_555 1_555
O1 Cu1 1_555 1_555
Cu1 N1 1_555 1_555
N1B Cu1 1_555 1_555
C1B N1B 1_555 1_555
H1B C1B 1_555 1_555
C2B C1B 1_555 1_555
H2B C2B 1_555 1_555
N2B C2B 1_555 1_555
H3B N2B 1_555 1_555
C3B N1B 1_555 1_555
H4B C3B 1_555 1_555
O1_2 N5 1_555 1_555
Cu1_2 O1_2 1_555 1_555
N3B Cu1_2 1_555 1_555
C4B N3B 1_555 1_555
N4B C4B 1_555 1_555
N5B N4B 1_555 1_555
O1B Cu1 1_555 1_555
N3B_2 Cu1 1_555 1_555
O2B N5B 1_555 1_555
N2 C3 1_555 1_555
N3 Cu1 1_555 1_555
N2B C3B 1_555 1_555
N5B O1B 1_555 1_555

#END
