
#######################################################################
#
#                 Cambridge Crystallographic Data Centre
#                                CCDC 
#
#######################################################################
#
# If this CIF has been generated from an entry in the Cambridge 
# Structural Database, then it will include bibliographic, chemical, 
# crystal, experimental, refinement or atomic coordinate data resulting 
# from the CCDC's data processing and validation procedures.
#
#######################################################################

data_RAVKEG
_symmetry_cell_setting           monoclinic
_symmetry_space_group_name_H-M   'P 21/c'
_symmetry_Int_Tables_number      14
_space_group_name_Hall           '-P 2ybc'
loop_
_symmetry_equiv_pos_site_id
_symmetry_equiv_pos_as_xyz
1 x,y,z
2 -x,1/2+y,1/2-z
3 -x,-y,-z
4 x,1/2-y,1/2+z
_cell_length_a                   11.443(4)
_cell_length_b                   9.828(3)
_cell_length_c                   19.074(7)
_cell_angle_alpha                90
_cell_angle_beta                 107.249(6)
_cell_angle_gamma                90
_cell_volume                     2048.62
loop_
_atom_site_label
_atom_site_type_symbol
_atom_site_fract_x
_atom_site_fract_y
_atom_site_fract_z
Cd1 Cd 0.34985(5) 0.31790(5) 0.74152(3)
C1 C 0.0687(7) 0.2594(8) 0.6498(4)
H1 H 0.1096 0.2090 0.6216
C2 C -0.0562(7) 0.2567(9) 0.6284(5)
H2 H -0.1001 0.2055 0.5867
C3 C -0.1176(7) 0.3292(7) 0.6681(4)
C4 C -0.0488(8) 0.3993(8) 0.7280(5)
H3 H -0.0878 0.4512 0.7567
C5 C 0.0769(8) 0.3948(8) 0.7469(5)
H4 H 0.1227 0.4414 0.7899
C6 C -0.2553(7) 0.3307(7) 0.6441(5)
H5 H -0.2838 0.3916 0.6770
H6 H -0.2848 0.3686 0.5938
C7 C -0.3632(8) 0.1192(8) 0.5852(5)
H7 H -0.3752 0.1422 0.5352
C8 C -0.3971(8) 0.0030(8) 0.6111(4)
H8 H -0.4389 -0.0703 0.5817
C9 C -0.3092(7) 0.1254(7) 0.7053(4)
C10 C -0.2575(8) 0.1756(8) 0.7811(4)
H9 H -0.2680 0.1063 0.8157
H10 H -0.2999 0.2592 0.7875
H11 H -0.1701 0.1947 0.7904
C11 C 0.4218(6) 0.3928(7) 0.4954(4)
H12 H 0.3667 0.3191 0.4920
C12 C 0.4604(6) 0.4658(7) 0.5605(4)
C13 C 0.5388(7) 0.5762(7) 0.5645(4)
C14 C 0.4200(8) 0.4201(7) 0.6249(4)
C15 C 0.5766(7) 0.6654(7) 0.6310(4)
N1 N 0.1371(6) 0.3284(6) 0.7078(3)
N2 N -0.3084(6) 0.1972(6) 0.6446(4)
N3 N -0.3617(6) 0.0067(6) 0.6864(4)
O1 O 0.4979(5) 0.4106(5) 0.6868(3)
O2 O 0.3621(6) 0.1043(6) 0.6928(4)
H13 H 0.3740 0.0443 0.7262
H14 H 0.4222 0.1023 0.6752
O3 O 0.3102(5) 0.3861(5) 0.6147(3)
O5 O 0.6882(5) 0.6820(5) 0.6610(3)
O6 O 0.4965(5) 0.7170(5) 0.6542(3)
Cd1B Cd 0.65015(5) 0.68210(5) 0.25848(3)
Cd1A Cd -0.34985(5) -0.18210(5) 0.75848(3)
Cd1A_2 Cd 0.65015(5) 0.81790(5) 0.75848(3)
Cd1C Cd 0.34985(5) 0.18210(5) 0.24152(3)
Cd1C_2 Cd 1.34985(5) 1.18210(5) 0.24152(3)
C1B C 0.9313(7) 0.7406(8) 0.3502(4)
H1B H 0.8904 0.7910 0.3784
C2B C 1.0562(7) 0.7433(9) 0.3716(5)
H2B H 1.1001 0.7945 0.4133
C3B C 1.1176(7) 0.6708(7) 0.3319(4)
C4B C 1.0488(8) 0.6007(8) 0.2720(5)
H3B H 1.0878 0.5488 0.2433
C5B C 0.9231(8) 0.6052(8) 0.2531(5)
H4B H 0.8773 0.5586 0.2101
C6B C 1.2553(7) 0.6693(7) 0.3559(5)
H5B H 1.2838 0.6084 0.3230
H6B H 1.2848 0.6314 0.4062
C7B C 1.3632(8) 0.8808(8) 0.4148(5)
H7B H 1.3752 0.8578 0.4648
C8B C 1.3971(8) 0.9970(8) 0.3889(4)
H8B H 1.4389 1.0703 0.4183
C9B C 1.3092(7) 0.8746(7) 0.2947(4)
C10B C 1.2575(8) 0.8244(8) 0.2189(4)
H9B H 1.2680 0.8937 0.1843
H10B H 1.2999 0.7408 0.2125
H11B H 1.1701 0.8053 0.2096
C11B C 0.5782(6) 0.6072(7) 0.5046(4)
H12B H 0.6333 0.6809 0.5080
C12B C 0.5396(6) 0.5342(7) 0.4395(4)
C13B C 0.4612(7) 0.4238(7) 0.4355(4)
C14B C 0.5800(8) 0.5799(7) 0.3751(4)
C15B C 0.4234(7) 0.3346(7) 0.3690(4)
C15A C 0.4234(7) 0.1654(7) 0.8690(4)
C15C C 0.5766(7) 0.8346(7) 0.1310(4)
N1B N 0.8629(6) 0.6716(6) 0.2922(3)
N2B N 1.3084(6) 0.8028(6) 0.3554(4)
N3B N 1.3617(6) 0.9933(6) 0.3136(4)
N3A N 0.3617(6) 0.5067(6) 0.8136(4)
N3C N 0.6383(6) 0.4933(6) 0.1864(4)
O1B O 0.5021(5) 0.5894(5) 0.3132(3)
O2B O 0.6379(6) 0.8957(6) 0.3072(4)
H13B H 0.6260 0.9557 0.2738
H14B H 0.5778 0.8977 0.3248
O3B O 0.6898(5) 0.6139(5) 0.3853(3)
O5B O 0.3118(5) 0.3180(5) 0.3390(3)
O5A O 0.3118(5) 0.1820(5) 0.8390(3)
O5C O 0.6882(5) 0.8180(5) 0.1610(3)
O6B O 0.5035(5) 0.2830(5) 0.3458(3)
O6A O 0.5035(5) 0.2170(5) 0.8458(3)
O6C O 0.4965(5) 0.7830(5) 0.1542(3)
O4 O 0.8754(5) 0.4955(6) 0.4962(3)
H15 H 0.8275 0.5472 0.4649
H16 H 0.8450 0.4159 0.4907
O7 O 0.8942(7) 0.6799(9) 0.6098(5)
H17 H 0.8302 0.6782 0.6238
H18 H 0.8853 0.6230 0.5750
O8 O 0.9389(12) 0.9212(12) 0.5666(8)
H19 H 0.9011 0.9423 0.5225
H20 H 0.9180 0.8413 0.5749
O9 O 1.1691(12) 0.9767(11) 0.5712(8)
H21 H 1.2134 1.0124 0.6110
H22 H 1.0967 0.9637 0.5781
O10 O 1.2668(6) 0.7445(6) 0.5458(3)
H23 H 1.3357 0.7355 0.5783
H24 H 1.2347 0.8186 0.5538
loop_
_geom_bond_atom_site_label_1
_geom_bond_atom_site_label_2
_geom_bond_site_symmetry_1
_geom_bond_site_symmetry_2
Cd1 N1 1_555 1_555
C1 H1 1_555 1_555
C2 C1 1_555 1_555
H2 C2 1_555 1_555
C3 C2 1_555 1_555
C4 C3 1_555 1_555
H3 C4 1_555 1_555
C5 C4 1_555 1_555
H4 C5 1_555 1_555
C6 C3 1_555 1_555
H5 C6 1_555 1_555
H6 C6 1_555 1_555
C7 H7 1_555 1_555
C8 C7 1_555 1_555
H8 C8 1_555 1_555
C9 C10 1_555 1_555
C10 H9 1_555 1_555
H10 C10 1_555 1_555
H11 C10 1_555 1_555
C11 H12 1_555 1_555
C12 C11 1_555 1_555
C13 C12 1_555 1_555
C14 C12 1_555 1_555
C15 C13 1_555 1_555
N1 C1 1_555 1_555
N2 C6 1_555 1_555
N3 C8 1_555 1_555
O1 Cd1 1_555 1_555
O2 Cd1 1_555 1_555
H13 O2 1_555 1_555
H14 O2 1_555 1_555
O3 Cd1 1_555 1_555
O4 H15 1_555 1_555
H16 O4 1_555 1_555
O5 C15 1_555 1_555
O6 C15 1_555 1_555
O7 H17 1_555 1_555
H18 O7 1_555 1_555
O8 H19 1_555 1_555
H20 O8 1_555 1_555
O9 H21 1_555 1_555
O10 H23 1_555 1_555
H22 O9 1_555 1_555
H24 O10 1_555 1_555
Cd1B N1B 1_555 1_555
Cd1A N3 1_555 1_555
Cd1A_2 O5 1_555 1_555
Cd1C O5B 1_555 1_555
Cd1C_2 N3B 1_555 1_555
C1B H1B 1_555 1_555
C2B C1B 1_555 1_555
H2B C2B 1_555 1_555
C3B C2B 1_555 1_555
C4B C3B 1_555 1_555
H3B C4B 1_555 1_555
C5B C4B 1_555 1_555
H4B C5B 1_555 1_555
C6B C3B 1_555 1_555
H5B C6B 1_555 1_555
H6B C6B 1_555 1_555
C7B H7B 1_555 1_555
C8B C7B 1_555 1_555
H8B C8B 1_555 1_555
C9B C10B 1_555 1_555
C10B H9B 1_555 1_555
H10B C10B 1_555 1_555
H11B C10B 1_555 1_555
C11B C13 1_555 1_555
H12B C11B 1_555 1_555
C12B C11B 1_555 1_555
C13B C11 1_555 1_555
C14B C12B 1_555 1_555
C15B C13B 1_555 1_555
C15A O5A 1_555 1_555
C15C O5C 1_555 1_555
N1B C1B 1_555 1_555
N2B C6B 1_555 1_555
N3B C8B 1_555 1_555
N3A Cd1 1_555 1_555
N3C Cd1B 1_555 1_555
O1B Cd1B 1_555 1_555
O2B Cd1B 1_555 1_555
H13B O2B 1_555 1_555
H14B O2B 1_555 1_555
O3B Cd1B 1_555 1_555
O5B C15B 1_555 1_555
O5A Cd1 1_555 1_555
O5C Cd1B 1_555 1_555
O6B Cd1C 1_555 1_555
O6A Cd1 1_555 1_555
O6C Cd1B 1_555 1_555
C5 N1 1_555 1_555
C7 N2 1_555 1_555
C9 N2 1_555 1_555
C9 N3 1_555 1_555
C14 O1 1_555 1_555
C14 O3 1_555 1_555
O6 Cd1A_2 1_555 1_555
C5B N1B 1_555 1_555
C7B N2B 1_555 1_555
C9B N2B 1_555 1_555
C9B N3B 1_555 1_555
C12B C13B 1_555 1_555
C14B O1B 1_555 1_555
C14B O3B 1_555 1_555
C15B O6B 1_555 1_555
C15A O6A 1_555 1_555
C15C O6C 1_555 1_555

#END
