
#######################################################################
#
#                 Cambridge Crystallographic Data Centre
#                                CCDC 
#
#######################################################################
#
# If this CIF has been generated from an entry in the Cambridge 
# Structural Database, then it will include bibliographic, chemical, 
# crystal, experimental, refinement or atomic coordinate data resulting 
# from the CCDC's data processing and validation procedures.
#
#######################################################################

data_RAVKAC
_symmetry_cell_setting           monoclinic
_symmetry_space_group_name_H-M   'P 21/n'
_symmetry_Int_Tables_number      14
_space_group_name_Hall           '-P 2yn'
loop_
_symmetry_equiv_pos_site_id
_symmetry_equiv_pos_as_xyz
1 x,y,z
2 1/2-x,1/2+y,1/2-z
3 -x,-y,-z
4 1/2+x,1/2-y,1/2+z
_cell_length_a                   19.301(3)
_cell_length_b                   12.677(2)
_cell_length_c                   19.591(3)
_cell_angle_alpha                90
_cell_angle_beta                 115.071(3)
_cell_angle_gamma                90
_cell_volume                     4341.87
loop_
_atom_site_label
_atom_site_type_symbol
_atom_site_fract_x
_atom_site_fract_y
_atom_site_fract_z
Cd1 Cd 0.44658(2) 0.23680(3) 0.91630(2)
Cd2 Cd 0.5000 0.5000 1.0000
C1 C 0.2675(3) 0.1682(4) 0.7884(3)
H1 H 0.2899 0.1005 0.7920
C2 C 0.1953(3) 0.1841(4) 0.7329(3)
H2 H 0.1693 0.1286 0.6991
C3 C 0.1606(3) 0.2814(4) 0.7263(3)
C4 C 0.2023(3) 0.3581(4) 0.7770(3)
H3 H 0.1810 0.4264 0.7745
C5 C 0.2749(3) 0.3360(4) 0.8314(3)
H4 H 0.3023 0.3900 0.8658
C6 C 0.0817(3) 0.2986(4) 0.6663(3)
H5 H 0.0793 0.2730 0.6177
H6 H 0.0452 0.2563 0.6784
C7 C 0.0188(3) 0.4559(4) 0.6940(3)
H7 H 0.0009 0.4231 0.7271
C8 C 0.0108(3) 0.5574(4) 0.6731(3)
H8 H -0.0149 0.6094 0.6887
C9 C 0.0738(3) 0.4836(4) 0.6178(3)
C10 C 0.1164(3) 0.4649(4) 0.5717(3)
H9 H 0.1194 0.5307 0.5469
H10 H 0.0899 0.4113 0.5335
H11 H 0.1681 0.4404 0.6042
C11 C 0.3779(3) 0.3304(4) 1.0842(3)
C12 C 0.3745(3) 0.2602(4) 1.1370(3)
H12 H 0.3907 0.1893 1.1377
C13 C 0.3477(3) 0.2927(5) 1.1887(3)
H13 H 0.3469 0.2439 1.2251
C14 C 0.3219(3) 0.3946(5) 1.1887(3)
C15 C 0.3259(4) 0.4636(5) 1.1349(4)
H14 H 0.3090 0.5343 1.1336
C16 C 0.3532(3) 0.4329(5) 1.0843(3)
H15 H 0.3553 0.4823 1.0487
C17 C 0.2938(5) 0.4315(7) 1.2463(5)
C18 C 0.2273(10) 0.3619(14) 1.2400(10)
H16 H 0.2195 0.3681 1.2861
H17 H 0.2387 0.2883 1.2332
H18 H 0.1808 0.3842 1.1966
C19 C 0.2724(11) 0.5333(14) 1.2419(11)
H19 H 0.2462 0.5450 1.2746
H20 H 0.2376 0.5504 1.1898
H21 H 0.3177 0.5786 1.2583
C20 C 0.3438(8) 0.3909(12) 1.3229(8)
H22 H 0.3419 0.4393 1.3610
H23 H 0.3966 0.3856 1.3283
H24 H 0.3259 0.3210 1.3297
C21 C 0.7008(3) 0.3162(4) 1.0233(3)
C22 C 0.7510(3) 0.3812(5) 1.0770(4)
H25 H 0.7327 0.4257 1.1047
C23 C 0.8274(3) 0.3843(6) 1.0923(4)
H26 H 0.8605 0.4290 1.1315
C24 C 0.8567(3) 0.3257(6) 1.0533(4)
C25 C 0.8076(4) 0.2589(5) 1.0005(5)
H27 H 0.8270 0.2141 0.9738
C26 C 0.7297(3) 0.2538(5) 0.9840(4)
H28 H 0.6970 0.2074 0.9460
C27 C 0.9417(4) 0.3283(8) 1.0691(5)
C28 C 0.9809(5) 0.4260(11) 1.1158(7)
H29 H 1.0329 0.4319 1.1192
H30 H 0.9832 0.4192 1.1666
H31 H 0.9517 0.4892 1.0915
C29 C 0.9496(5) 0.3406(9) 0.9964(6)
H32 H 0.9328 0.2756 0.9668
H33 H 1.0032 0.3545 1.0073
H34 H 0.9178 0.3997 0.9677
C30 C 0.9792(5) 0.2350(11) 1.1097(9)
H35 H 0.9657 0.1748 1.0751
H36 H 0.9628 0.2211 1.1498
H37 H 1.0347 0.2455 1.1319
C31 C 0.4233(3) 0.4813(4) 0.7450(3)
C32 C 0.4575(3) 0.5716(4) 0.7346(3)
H38 H 0.4995 0.6021 0.7758
C33 C 0.4304(3) 0.6180(4) 0.6635(3)
H39 H 0.4549 0.6796 0.6569
C34 C 0.3690(3) 0.5774(5) 0.6025(3)
C35 C 0.3354(3) 0.4871(5) 0.6142(3)
H40 H 0.2928 0.4573 0.5733
C36 C 0.3621(3) 0.4395(4) 0.6835(3)
H41 H 0.3382 0.3769 0.6895
C37 C 0.3411(4) 0.6294(5) 0.5250(3)
C38 C 0.4052(5) 0.6211(8) 0.4989(4)
H42 H 0.4175 0.5467 0.4962
H43 H 0.4506 0.6580 0.5347
H44 H 0.3884 0.6533 0.4489
C39 C 0.2703(4) 0.5770(6) 0.4660(3)
H45 H 0.2296 0.5766 0.4834
H46 H 0.2825 0.5043 0.4580
H47 H 0.2531 0.6163 0.4186
C40 C 0.3230(6) 0.7451(6) 0.5314(5)
H48 H 0.2838 0.7501 0.5507
H49 H 0.3040 0.7783 0.4815
H50 H 0.3695 0.7814 0.5659
C41 C 0.4073(3) 0.2964(4) 1.0290(3)
C42 C 0.6176(3) 0.3162(4) 1.0068(3)
C43 C 0.4493(3) 0.4316(4) 0.8212(3)
N1 N 0.0453(2) 0.5748(3) 0.6256(2)
N2 N 0.0580(2) 0.4092(3) 0.6582(2)
N3 N 0.3082(2) 0.2418(3) 0.8377(2)
O1 O 0.4223(2) 0.2013(3) 1.02421(19)
O2 O 0.41488(18) 0.3653(3) 0.98511(18)
O3 O 0.5762(2) 0.2466(3) 0.9627(3)
O4 O 0.5960(2) 0.3833(3) 1.0395(2)
O5 O 0.4410(3) 0.3332(3) 0.8220(2)
O6 O 0.4748(2) 0.4909(3) 0.8776(2)
Cd1B Cd 0.55342(2) 0.76320(3) 1.08370(2)
Cd1A Cd 0.05342(2) 0.73680(3) 0.58370(2)
Cd1C Cd 0.94658(2) 0.26320(3) 1.41630(2)
C1B C 0.7325(3) 0.8318(4) 1.2116(3)
H1B H 0.7101 0.8995 1.2080
C2B C 0.8047(3) 0.8159(4) 1.2671(3)
H2B H 0.8307 0.8714 1.3009
C3B C 0.8394(3) 0.7186(4) 1.2737(3)
C4B C 0.7977(3) 0.6419(4) 1.2230(3)
H3B H 0.8190 0.5736 1.2255
C5B C 0.7251(3) 0.6640(4) 1.1686(3)
H4B H 0.6977 0.6100 1.1342
C6B C 0.9183(3) 0.7014(4) 1.3337(3)
H5B H 0.9207 0.7270 1.3823
H6B H 0.9548 0.7437 1.3216
C7B C 0.9812(3) 0.5441(4) 1.3060(3)
H7B H 0.9991 0.5769 1.2729
C8B C 0.9892(3) 0.4426(4) 1.3269(3)
H8B H 1.0149 0.3906 1.3113
C9B C 0.9262(3) 0.5164(4) 1.3822(3)
C10B C 0.8836(3) 0.5351(4) 1.4283(3)
H9B H 0.8806 0.4693 1.4531
H10B H 0.9101 0.5887 1.4665
H11B H 0.8319 0.5596 1.3958
C11B C 0.6221(3) 0.6696(4) 0.9158(3)
C12B C 0.6255(3) 0.7398(4) 0.8630(3)
H12B H 0.6093 0.8107 0.8623
C13B C 0.6523(3) 0.7073(5) 0.8113(3)
H13B H 0.6531 0.7561 0.7749
C14B C 0.6781(3) 0.6054(5) 0.8113(3)
C15B C 0.6741(4) 0.5364(5) 0.8651(4)
H14B H 0.6910 0.4657 0.8664
C16B C 0.6468(3) 0.5671(5) 0.9157(3)
H15B H 0.6447 0.5177 0.9513
C17B C 0.7062(5) 0.5685(7) 0.7537(5)
C18B C 0.7727(10) 0.6381(14) 0.7600(10)
H16B H 0.7805 0.6319 0.7139
H17B H 0.7613 0.7117 0.7668
H18B H 0.8192 0.6158 0.8034
C19B C 0.7276(11) 0.4667(14) 0.7581(11)
H19B H 0.7538 0.4550 0.7254
H20B H 0.7624 0.4496 0.8102
H21B H 0.6823 0.4214 0.7417
C20B C 0.6562(8) 0.6091(12) 0.6771(8)
H22B H 0.6581 0.5607 0.6390
H23B H 0.6034 0.6144 0.6717
H24B H 0.6741 0.6790 0.6703
C21B C 0.2992(3) 0.6838(4) 0.9767(3)
C22B C 0.2490(3) 0.6188(5) 0.9230(4)
H25B H 0.2673 0.5743 0.8953
C23B C 0.1726(3) 0.6157(6) 0.9077(4)
H26B H 0.1395 0.5710 0.8685
C24B C 0.1433(3) 0.6743(6) 0.9467(4)
C25B C 0.1924(4) 0.7411(5) 0.9995(5)
H27B H 0.1730 0.7859 1.0262
C26B C 0.2703(3) 0.7462(5) 1.0160(4)
H28B H 0.3030 0.7926 1.0540
C27B C 0.0583(4) 0.6717(8) 0.9309(5)
C28B C 0.0191(5) 0.5740(11) 0.8842(7)
H29B H -0.0329 0.5681 0.8808
H30B H 0.0168 0.5808 0.8334
H31B H 0.0483 0.5108 0.9085
C29B C 0.0504(5) 0.6594(9) 1.0036(6)
H32B H 0.0672 0.7244 1.0332
H33B H -0.0032 0.6455 0.9927
H34B H 0.0822 0.6003 1.0323
C30B C 0.0208(5) 0.7650(11) 0.8903(9)
H35B H 0.0343 0.8252 0.9249
H36B H 0.0372 0.7789 0.8502
H37B H -0.0347 0.7545 0.8681
C31B C 0.5767(3) 0.5187(4) 1.2550(3)
C32B C 0.5425(3) 0.4284(4) 1.2654(3)
H38B H 0.5005 0.3979 1.2242
C33B C 0.5696(3) 0.3820(4) 1.3365(3)
H39B H 0.5451 0.3204 1.3431
C34B C 0.6310(3) 0.4226(5) 1.3975(3)
C35B C 0.6646(3) 0.5129(5) 1.3858(3)
H40B H 0.7072 0.5427 1.4267
C36B C 0.6379(3) 0.5605(4) 1.3165(3)
H41B H 0.6618 0.6231 1.3105
C37B C 0.6589(4) 0.3706(5) 1.4750(3)
C38B C 0.5948(5) 0.3789(8) 1.5011(4)
H42B H 0.5825 0.4533 1.5038
H43B H 0.5494 0.3420 1.4653
H44B H 0.6116 0.3467 1.5511
C39B C 0.7297(4) 0.4230(6) 1.5340(3)
H45B H 0.7704 0.4234 1.5166
H46B H 0.7175 0.4957 1.5420
H47B H 0.7469 0.3837 1.5814
C40B C 0.6770(6) 0.2549(6) 1.4686(5)
H48B H 0.7162 0.2499 1.4493
H49B H 0.6960 0.2217 1.5185
H50B H 0.6305 0.2186 1.4341
C41B C 0.5927(3) 0.7036(4) 0.9710(3)
C42B C 0.3824(3) 0.6838(4) 0.9932(3)
C43B C 0.5507(3) 0.5684(4) 1.1788(3)
N1B N 0.9547(2) 0.4252(3) 1.3744(2)
N1A N 0.4547(2) 0.0748(3) 0.8744(2)
N1C N 0.5453(2) 0.9252(3) 1.1256(2)
N2B N 0.9420(2) 0.5908(3) 1.3418(2)
N3B N 0.6918(2) 0.7582(3) 1.1623(2)
O1B O 0.5777(2) 0.7987(3) 0.97579(19)
O2B O 0.58512(18) 0.6347(3) 1.01489(18)
O3B O 0.4238(2) 0.7534(3) 1.0373(3)
O4B O 0.4040(2) 0.6167(3) 0.9605(2)
O5B O 0.5590(3) 0.6668(3) 1.1780(2)
O6B O 0.5252(2) 0.5091(3) 1.1224(2)
loop_
_geom_bond_atom_site_label_1
_geom_bond_atom_site_label_2
_geom_bond_site_symmetry_1
_geom_bond_site_symmetry_2
Cd1 N3 1_555 1_555
Cd2 O2 1_555 1_555
C1 H1 1_555 1_555
C2 C1 1_555 1_555
H2 C2 1_555 1_555
C3 C2 1_555 1_555
C4 C3 1_555 1_555
H3 C4 1_555 1_555
C5 C4 1_555 1_555
H4 C5 1_555 1_555
C6 C3 1_555 1_555
H5 C6 1_555 1_555
H6 C6 1_555 1_555
C7 H7 1_555 1_555
C8 C7 1_555 1_555
H8 C8 1_555 1_555
C9 C10 1_555 1_555
C10 H9 1_555 1_555
H10 C10 1_555 1_555
H11 C10 1_555 1_555
C11 C12 1_555 1_555
C12 H12 1_555 1_555
C13 C12 1_555 1_555
H13 C13 1_555 1_555
C14 C13 1_555 1_555
C15 C14 1_555 1_555
H14 C15 1_555 1_555
C16 C11 1_555 1_555
H15 C16 1_555 1_555
C17 C14 1_555 1_555
C18 C17 1_555 1_555
H16 C18 1_555 1_555
H17 C18 1_555 1_555
H18 C18 1_555 1_555
C19 C17 1_555 1_555
H19 C19 1_555 1_555
H20 C19 1_555 1_555
H21 C19 1_555 1_555
C20 C17 1_555 1_555
H22 C20 1_555 1_555
H23 C20 1_555 1_555
H24 C20 1_555 1_555
C21 C22 1_555 1_555
C22 H25 1_555 1_555
C23 C22 1_555 1_555
H26 C23 1_555 1_555
C24 C23 1_555 1_555
C25 C24 1_555 1_555
H27 C25 1_555 1_555
C26 C21 1_555 1_555
H28 C26 1_555 1_555
C27 C24 1_555 1_555
C28 C27 1_555 1_555
H29 C28 1_555 1_555
H30 C28 1_555 1_555
H31 C28 1_555 1_555
C29 C27 1_555 1_555
H32 C29 1_555 1_555
H33 C29 1_555 1_555
H34 C29 1_555 1_555
C30 C27 1_555 1_555
H35 C30 1_555 1_555
H36 C30 1_555 1_555
H37 C30 1_555 1_555
C31 C32 1_555 1_555
C32 H38 1_555 1_555
C33 C32 1_555 1_555
H39 C33 1_555 1_555
C34 C33 1_555 1_555
C35 C34 1_555 1_555
H40 C35 1_555 1_555
C36 C31 1_555 1_555
H41 C36 1_555 1_555
C37 C34 1_555 1_555
C38 C37 1_555 1_555
H42 C38 1_555 1_555
H43 C38 1_555 1_555
H44 C38 1_555 1_555
C39 C37 1_555 1_555
H45 C39 1_555 1_555
H46 C39 1_555 1_555
H47 C39 1_555 1_555
C40 C37 1_555 1_555
H48 C40 1_555 1_555
H49 C40 1_555 1_555
H50 C40 1_555 1_555
C41 C11 1_555 1_555
C42 C21 1_555 1_555
C43 C31 1_555 1_555
N1 C8 1_555 1_555
N2 C6 1_555 1_555
N3 C1 1_555 1_555
O1 Cd1 1_555 1_555
O2 Cd1 1_555 1_555
O3 Cd1 1_555 1_555
O4 Cd2 1_555 1_555
O5 Cd1 1_555 1_555
O6 Cd2 1_555 1_555
Cd1B N1C 1_555 1_555
Cd1A N1 1_555 1_555
Cd1C N1B 1_555 1_555
C1B H1B 1_555 1_555
C2B C1B 1_555 1_555
H2B C2B 1_555 1_555
C3B C2B 1_555 1_555
C4B C3B 1_555 1_555
H3B C4B 1_555 1_555
C5B C4B 1_555 1_555
H4B C5B 1_555 1_555
C6B C3B 1_555 1_555
H5B C6B 1_555 1_555
H6B C6B 1_555 1_555
C7B H7B 1_555 1_555
C8B C7B 1_555 1_555
H8B C8B 1_555 1_555
C9B C10B 1_555 1_555
C10B H9B 1_555 1_555
H10B C10B 1_555 1_555
H11B C10B 1_555 1_555
C11B C12B 1_555 1_555
C12B H12B 1_555 1_555
C13B C12B 1_555 1_555
H13B C13B 1_555 1_555
C14B C13B 1_555 1_555
C15B C14B 1_555 1_555
H14B C15B 1_555 1_555
C16B C11B 1_555 1_555
H15B C16B 1_555 1_555
C17B C14B 1_555 1_555
C18B C17B 1_555 1_555
H16B C18B 1_555 1_555
H17B C18B 1_555 1_555
H18B C18B 1_555 1_555
C19B C17B 1_555 1_555
H19B C19B 1_555 1_555
H20B C19B 1_555 1_555
H21B C19B 1_555 1_555
C20B C17B 1_555 1_555
H22B C20B 1_555 1_555
H23B C20B 1_555 1_555
H24B C20B 1_555 1_555
C21B C22B 1_555 1_555
C22B H25B 1_555 1_555
C23B C22B 1_555 1_555
H26B C23B 1_555 1_555
C24B C23B 1_555 1_555
C25B C24B 1_555 1_555
H27B C25B 1_555 1_555
C26B C21B 1_555 1_555
H28B C26B 1_555 1_555
C27B C24B 1_555 1_555
C28B C27B 1_555 1_555
H29B C28B 1_555 1_555
H30B C28B 1_555 1_555
H31B C28B 1_555 1_555
C29B C27B 1_555 1_555
H32B C29B 1_555 1_555
H33B C29B 1_555 1_555
H34B C29B 1_555 1_555
C30B C27B 1_555 1_555
H35B C30B 1_555 1_555
H36B C30B 1_555 1_555
H37B C30B 1_555 1_555
C31B C32B 1_555 1_555
C32B H38B 1_555 1_555
C33B C32B 1_555 1_555
H39B C33B 1_555 1_555
C34B C33B 1_555 1_555
C35B C34B 1_555 1_555
H40B C35B 1_555 1_555
C36B C31B 1_555 1_555
H41B C36B 1_555 1_555
C37B C34B 1_555 1_555
C38B C37B 1_555 1_555
H42B C38B 1_555 1_555
H43B C38B 1_555 1_555
H44B C38B 1_555 1_555
C39B C37B 1_555 1_555
H45B C39B 1_555 1_555
H46B C39B 1_555 1_555
H47B C39B 1_555 1_555
C40B C37B 1_555 1_555
H48B C40B 1_555 1_555
H49B C40B 1_555 1_555
H50B C40B 1_555 1_555
C41B C11B 1_555 1_555
C42B C21B 1_555 1_555
C43B C31B 1_555 1_555
N1B C8B 1_555 1_555
N1A Cd1 1_555 1_555
N2B C6B 1_555 1_555
N3B Cd1B 1_555 1_555
O1B Cd1B 1_555 1_555
O2B Cd2 1_555 1_555
O3B Cd1B 1_555 1_555
O4B Cd2 1_555 1_555
O5B Cd1B 1_555 1_555
O6B Cd2 1_555 1_555
C5 N3 1_555 1_555
C7 N2 1_555 1_555
C9 N1 1_555 1_555
C9 N2 1_555 1_555
C15 C16 1_555 1_555
C25 C26 1_555 1_555
C35 C36 1_555 1_555
C41 O1 1_555 1_555
C41 O2 1_555 1_555
C42 O3 1_555 1_555
C42 O4 1_555 1_555
C43 O5 1_555 1_555
C43 O6 1_555 1_555
Cd1B O2B 1_555 1_555
C1B N3B 1_555 1_555
C5B N3B 1_555 1_555
C7B N2B 1_555 1_555
C9B N1B 1_555 1_555
C9B N2B 1_555 1_555
C15B C16B 1_555 1_555
C25B C26B 1_555 1_555
C35B C36B 1_555 1_555
C41B O1B 1_555 1_555
C41B O2B 1_555 1_555
C42B O3B 1_555 1_555
C42B O4B 1_555 1_555
C43B O5B 1_555 1_555
C43B O6B 1_555 1_555

#END
