
#######################################################################
#
#                 Cambridge Crystallographic Data Centre
#                                CCDC 
#
#######################################################################
#
# If this CIF has been generated from an entry in the Cambridge 
# Structural Database, then it will include bibliographic, chemical, 
# crystal, experimental, refinement or atomic coordinate data resulting 
# from the CCDC's data processing and validation procedures.
#
#######################################################################

data_RAVKOP
_symmetry_cell_setting           monoclinic
_symmetry_space_group_name_H-M   'P 21/c'
_symmetry_Int_Tables_number      14
_space_group_name_Hall           '-P 2ybc'
loop_
_symmetry_equiv_pos_site_id
_symmetry_equiv_pos_as_xyz
1 x,y,z
2 -x,1/2+y,1/2-z
3 -x,-y,-z
4 x,1/2-y,1/2+z
_cell_length_a                   10.738(2)
_cell_length_b                   6.462(1)
_cell_length_c                   9.700(2)
_cell_angle_alpha                90
_cell_angle_beta                 103.60(3)
_cell_angle_gamma                90
_cell_volume                     654.201
loop_
_atom_site_label
_atom_site_type_symbol
_atom_site_fract_x
_atom_site_fract_y
_atom_site_fract_z
Cu1 Cu 0.5000 0.0000 0.5000
O1 O 0.4007(4) -0.2758(9) 0.3329(5)
O2 O 0.4935(4) -0.3203(8) 0.1533(4)
O3 O 0.1691(5) -1.0799(11) 0.0484(6)
O4 O 0.0055(4) -0.5029(10) -0.1810(4)
N1 N 0.3223(5) -0.5978(10) 0.0181(5)
N2 N 0.2268(5) -0.5211(12) -0.1002(5)
N3 N 0.0874(5) -0.7754(10) -0.0438(5)
C1 C 0.0979(7) -0.5870(13) -0.1132(7)
C2 C 0.3030(5) -0.5084(14) 0.1563(5)
C3 C 0.4049(6) -0.3540(13) 0.2186(7)
C4 C 0.3129(5) -0.8209(12) 0.0171(6)
C5 C 0.1868(7) -0.9089(17) 0.0110(8)
Cu1A Cu 0.5000 -0.5000 0.0000
Cu1A_2 Cu 0.5000 0.5000 1.0000
O1B O 0.5993(4) 0.2758(9) 0.6671(5)
O2B O 0.5065(4) 0.3203(8) 0.8467(4)
O2A O 0.5065(4) 0.1797(8) 0.3467(4)
O2C O 0.4935(4) -0.1797(8) 0.6533(4)
O3B O 0.8309(5) 1.0799(11) 0.9516(6)
O4B O 0.9945(4) 0.5029(10) 1.1810(4)
N1B N 0.6777(5) 0.5978(10) 0.9819(5)
N1A N 0.6777(5) -0.0978(10) 0.4819(5)
N1C N 0.3223(5) 0.0978(10) 0.5181(5)
N2B N 0.7732(5) 0.5211(12) 1.1002(5)
N3B N 0.9126(5) 0.7754(10) 1.0438(5)
C1B C 0.9021(7) 0.5870(13) 1.1132(7)
C2B C 0.6970(5) 0.5084(14) 0.8437(5)
C3B C 0.5951(6) 0.3540(13) 0.7814(7)
C4B C 0.6871(5) 0.8209(12) 0.9829(6)
C5B C 0.8132(7) 0.9089(17) 0.9890(8)
loop_
_geom_bond_atom_site_label_1
_geom_bond_atom_site_label_2
_geom_bond_site_symmetry_1
_geom_bond_site_symmetry_2
Cu1 O1 1_555 1_555
O1 C3 1_555 1_555
O2 C3 1_555 1_555
O3 C5 1_555 1_555
O4 C1 1_555 1_555
N1 N2 1_555 1_555
N2 C1 1_555 1_555
N3 C1 1_555 1_555
C2 N1 1_555 1_555
C3 C2 1_555 1_555
C4 N1 1_555 1_555
C5 N3 1_555 1_555
Cu1A O2 1_555 1_555
Cu1A_2 O2B 1_555 1_555
O1B Cu1 1_555 1_555
O2B C3B 1_555 1_555
O2A Cu1 1_555 1_555
O2C Cu1 1_555 1_555
O3B C5B 1_555 1_555
O4B C1B 1_555 1_555
N1B Cu1A_2 1_555 1_555
N1A Cu1 1_555 1_555
N1C Cu1 1_555 1_555
N2B N1B 1_555 1_555
N3B C1B 1_555 1_555
C1B N2B 1_555 1_555
C2B N1B 1_555 1_555
C3B O1B 1_555 1_555
C4B N1B 1_555 1_555
C5B N3B 1_555 1_555
N1 Cu1A 1_555 1_555
C4 C5 1_555 1_555
C2B C3B 1_555 1_555
C4B C5B 1_555 1_555

#END
