
#######################################################################
#
#                 Cambridge Crystallographic Data Centre
#                                CCDC 
#
#######################################################################
#
# If this CIF has been generated from an entry in the Cambridge 
# Structural Database, then it will include bibliographic, chemical, 
# crystal, experimental, refinement or atomic coordinate data resulting 
# from the CCDC's data processing and validation procedures.
#
#######################################################################

data_RAVKIK
_symmetry_cell_setting           monoclinic
_symmetry_space_group_name_H-M   'P 21/n'
_symmetry_Int_Tables_number      14
_space_group_name_Hall           '-P 2yn'
loop_
_symmetry_equiv_pos_site_id
_symmetry_equiv_pos_as_xyz
1 x,y,z
2 1/2-x,1/2+y,1/2-z
3 -x,-y,-z
4 1/2+x,1/2-y,1/2+z
_cell_length_a                   9.4732(19)
_cell_length_b                   16.447(3)
_cell_length_c                   12.033(3)
_cell_angle_alpha                90
_cell_angle_beta                 95.480(4)
_cell_angle_gamma                90
_cell_volume                     1866.24
loop_
_atom_site_label
_atom_site_type_symbol
_atom_site_fract_x
_atom_site_fract_y
_atom_site_fract_z
Cd1 Cd 0.75275(3) 0.553221(16) 0.86299(2)
C1 C 0.2963(5) 0.6030(3) 0.3089(4)
H1 H 0.3350 0.6247 0.2452
C2 C 0.3007(5) 0.6502(3) 0.4032(4)
H2 H 0.3397 0.7034 0.4033
C3 C 0.2483(4) 0.6199(2) 0.4972(3)
C4 C 0.1887(5) 0.5439(3) 0.4901(4)
H3 H 0.1481 0.5212 0.5523
C5 C 0.1880(5) 0.5006(3) 0.3920(4)
H4 H 0.1473 0.4477 0.3892
C6 C 0.2568(4) 0.6696(3) 0.6026(3)
H5 H 0.2268 0.7261 0.5844
H6 H 0.1911 0.6468 0.6538
C7 C 0.5037(5) 0.7257(3) 0.6406(4)
H7 H 0.4933 0.7729 0.5950
C8 C 0.6223(5) 0.7003(3) 0.7012(4)
H8 H 0.7114 0.7271 0.7056
C9 C 0.4604(4) 0.6119(2) 0.7273(3)
C10 C 0.3858(4) 0.5388(3) 0.7605(4)
H9 H 0.4501 0.5059 0.8108
H10 H 0.3541 0.5069 0.6939
H11 H 0.3034 0.5548 0.7989
C11 C 1.3739(5) 0.7978(3) 0.9137(4)
H12 H 1.4526 0.8338 0.9230
C12 C 1.2570(4) 0.8179(2) 0.8421(4)
H13 H 1.2555 0.8674 0.8013
C13 C 1.1427(4) 0.7662(2) 0.8300(3)
H14 H 1.0614 0.7810 0.7818
C14 C 1.1440(4) 0.6927(2) 0.8871(3)
C15 C 1.2630(4) 0.6722(2) 0.9601(3)
C16 C 1.3772(4) 0.7254(2) 0.9718(4)
H15 H 1.4587 0.7118 1.0205
C17 C 1.0177(4) 0.6381(2) 0.8628(3)
C18 C 1.2695(4) 0.5940(2) 1.0242(3)
O1 O 0.9105(3) 0.65170(16) 0.9142(2)
O2 O 0.6660(3) 0.60980(17) 1.0249(2)
H16 H 0.5877 0.5936 1.0462
H17 H 0.7329 0.5949 1.0727
O3 O 1.0217(3) 0.58613(17) 0.7889(2)
O4 O 1.3873(3) 0.56784(17) 1.0666(2)
O5 O 1.1560(3) 0.55619(15) 1.0349(2)
N1 N 0.5940(3) 0.62876(19) 0.7562(3)
N2 N 0.4012(3) 0.6700(2) 0.6580(3)
N3 N 0.2411(3) 0.5286(2) 0.3015(3)
Cd1B Cd 1.24725(3) 0.446779(16) 1.13701(2)
Cd1B_2 Cd 0.24725(3) 0.446779(16) 0.13701(2)
O4B O 0.6127(3) 0.43216(17) 0.9334(2)
O5B O 0.8440(3) 0.44381(15) 0.9651(2)
N3B N 0.7589(3) 0.4714(2) 0.6985(3)
O6 O 0.0924(3) 0.42576(17) 0.8415(2)
H18 H 0.0880 0.4741 0.8165
H19 H 0.0244 0.4192 0.8819
loop_
_geom_bond_atom_site_label_1
_geom_bond_atom_site_label_2
_geom_bond_site_symmetry_1
_geom_bond_site_symmetry_2
Cd1 O1 1_555 1_555
C1 H1 1_555 1_555
C2 C1 1_555 1_555
H2 C2 1_555 1_555
C3 C2 1_555 1_555
C4 C3 1_555 1_555
H3 C4 1_555 1_555
C5 C4 1_555 1_555
H4 C5 1_555 1_555
C6 C3 1_555 1_555
H5 C6 1_555 1_555
H6 C6 1_555 1_555
C7 H7 1_555 1_555
C8 C7 1_555 1_555
H8 C8 1_555 1_555
C9 C10 1_555 1_555
C10 H9 1_555 1_555
H10 C10 1_555 1_555
H11 C10 1_555 1_555
C11 H12 1_555 1_555
C12 C11 1_555 1_555
H13 C12 1_555 1_555
C13 C12 1_555 1_555
H14 C13 1_555 1_555
C14 C13 1_555 1_555
C15 C14 1_555 1_555
C16 C11 1_555 1_555
H15 C16 1_555 1_555
C17 C14 1_555 1_555
C18 C15 1_555 1_555
O1 C17 1_555 1_555
O2 Cd1 1_555 1_555
H16 O2 1_555 1_555
H17 O2 1_555 1_555
O3 C17 1_555 1_555
O4 C18 1_555 1_555
O5 C18 1_555 1_555
N1 Cd1 1_555 1_555
N2 C6 1_555 1_555
N3 C1 1_555 1_555
O6 H18 1_555 1_555
H19 O6 1_555 1_555
Cd1B O4 1_555 1_555
Cd1B_2 N3 1_555 1_555
O4B Cd1 1_555 1_555
O5B Cd1 1_555 1_555
N3B Cd1 1_555 1_555
C5 N3 1_555 1_555
C7 N2 1_555 1_555
C8 N1 1_555 1_555
C9 N1 1_555 1_555
C9 N2 1_555 1_555
C15 C16 1_555 1_555
O5 Cd1B 1_555 1_555

#END
