
#######################################################################
#
#                 Cambridge Crystallographic Data Centre
#                                CCDC 
#
#######################################################################
#
# If this CIF has been generated from an entry in the Cambridge 
# Structural Database, then it will include bibliographic, chemical, 
# crystal, experimental, refinement or atomic coordinate data resulting 
# from the CCDC's data processing and validation procedures.
#
#######################################################################

data_RAVLUV
_symmetry_cell_setting           monoclinic
_symmetry_space_group_name_H-M   'P 21/n'
_symmetry_Int_Tables_number      14
_space_group_name_Hall           '-P 2yn'
loop_
_symmetry_equiv_pos_site_id
_symmetry_equiv_pos_as_xyz
1 x,y,z
2 1/2-x,1/2+y,1/2-z
3 -x,-y,-z
4 1/2+x,1/2-y,1/2+z
_cell_length_a                   10.199(2)
_cell_length_b                   6.543(1)
_cell_length_c                   18.145(3)
_cell_angle_alpha                90
_cell_angle_beta                 104.77(1)
_cell_angle_gamma                90
_cell_volume                     1170.84
loop_
_atom_site_label
_atom_site_type_symbol
_atom_site_fract_x
_atom_site_fract_y
_atom_site_fract_z
S1 S 0.88461(8) 0.00178(12) 0.77696(4)
S2 S 0.56285(8) 0.72435(12) 0.79254(4)
O1 O 0.5434(2) 0.9078(3) 0.74344(12)
O2 O 0.4392(2) 0.6570(4) 0.81007(15)
O3 O 0.6768(3) 0.7524(4) 0.85868(13)
N1 N 0.7775(3) 0.2325(4) 0.93477(15)
N2 N 0.5080(3) 0.2034(4) 0.87030(15)
C1 C 0.9122(3) 0.2404(6) 0.9647(2)
H1 H 0.9698 0.2277 0.9306
C2 C 0.9701(4) 0.2753(6) 1.0412(2)
H2 H 1.0667 0.2733 1.0617
C3 C 0.8846(4) 0.3050(6) 1.0878(2)
H3 H 0.9203 0.3353 1.1409
C4 C 0.7463(4) 0.2938(5) 1.0587(2)
H4 H 0.6861 0.3132 1.0910
C5 C 0.6945(3) 0.2560(5) 0.9809(2)
C6 C 0.5461(3) 0.2373(5) 0.9456(2)
C7 C 0.4514(4) 0.2484(5) 0.9888(2)
H5 H 0.4800 0.2748 1.0426
C8 C 0.3149(4) 0.2257(6) 0.9528(2)
H6 H 0.2481 0.2327 0.9816
C9 C 0.2768(4) 0.1940(6) 0.8754(2)
H7 H 0.1827 0.1804 0.8492
C10 C 0.3750(3) 0.1841(6) 0.8360(2)
H8 H 0.3479 0.1593 0.7821
Cd1 Cd 0.67793(2) 0.18093(4) 0.80675(1)
Cd1A Cd 0.82207(2) 0.68093(4) 0.69325(1)
S1A S 0.61539(8) 0.50178(12) 0.72304(4)
Cd1_2 Cd 0.67793(2) 1.18093(4) 0.80675(1)
O1_2 O 0.5434(2) -0.0922(3) 0.74344(12)
loop_
_geom_bond_atom_site_label_1
_geom_bond_atom_site_label_2
_geom_bond_site_symmetry_1
_geom_bond_site_symmetry_2
S1 Cd1 1_555 1_555
S2 O1 1_555 1_555
O1 Cd1_2 1_555 1_555
O2 S2 1_555 1_555
O3 S2 1_555 1_555
N1 C1 1_555 1_555
N2 C6 1_555 1_555
C1 H1 1_555 1_555
C2 C1 1_555 1_555
H2 C2 1_555 1_555
C3 C2 1_555 1_555
H3 C3 1_555 1_555
C4 C3 1_555 1_555
H4 C4 1_555 1_555
C5 N1 1_555 1_555
C6 C5 1_555 1_555
C7 C6 1_555 1_555
H5 C7 1_555 1_555
C8 C7 1_555 1_555
H6 C8 1_555 1_555
C9 C8 1_555 1_555
H7 C9 1_555 1_555
C10 N2 1_555 1_555
H8 C10 1_555 1_555
Cd1 N1 1_555 1_555
Cd1A S1A 1_555 1_555
S1A S2 1_555 1_555
O1_2 Cd1 1_555 1_555
N2 Cd1 1_555 1_555
C4 C5 1_555 1_555
C9 C10 1_555 1_555
Cd1 S1A 1_555 1_555

#END
