
#######################################################################
#
#                 Cambridge Crystallographic Data Centre
#                                CCDC 
#
#######################################################################
#
# If this CIF has been generated from an entry in the Cambridge 
# Structural Database, then it will include bibliographic, chemical, 
# crystal, experimental, refinement or atomic coordinate data resulting 
# from the CCDC's data processing and validation procedures.
#
#######################################################################

data_RAVMOR
_symmetry_cell_setting           monoclinic
_symmetry_space_group_name_H-M   'C 2/c'
_symmetry_Int_Tables_number      15
_space_group_name_Hall           '-C 2yn'
loop_
_symmetry_equiv_pos_site_id
_symmetry_equiv_pos_as_xyz
1 x,y,z
2 1/2+x,1/2+y,z
3 -x,y,1/2-z
4 1/2-x,1/2+y,1/2-z
5 -x,-y,-z
6 1/2-x,1/2-y,-z
7 x,-y,1/2+z
8 1/2+x,1/2-y,1/2+z
_cell_length_a                   19.393(7)
_cell_length_b                   19.183(7)
_cell_length_c                   19.729(7)
_cell_angle_alpha                90
_cell_angle_beta                 90.826(6)
_cell_angle_gamma                90
_cell_volume                     7338.74
loop_
_atom_site_label
_atom_site_type_symbol
_atom_site_fract_x
_atom_site_fract_y
_atom_site_fract_z
Mn1 Mn 0.08781(3) 0.28936(3) 0.99898(3)
Mn2 Mn 0.05271(3) 0.10871(3) 1.01002(4)
N1 N 0.13522(19) 0.39534(17) 0.99427(18)
N2 N 0.01453(19) 0.35887(18) 0.93678(17)
O1 O 0.13209(19) 0.23930(18) 0.91752(18)
O2 O 0.1055(3) 0.1293(2) 0.9245(3)
O3 O 0.33506(17) 0.24501(16) 0.93107(16)
O4 O 0.38687(19) 0.34543(16) 0.91272(18)
O5 O -0.00016(15) 0.21107(14) 1.00833(15)
O6 O 0.00943(17) 0.29378(15) 1.08374(17)
O7 O -0.03930(15) 0.05637(14) 1.03214(15)
O8 O -0.10914(17) -0.01495(15) 0.9754(2)
C1 C 0.1393(3) 0.1785(3) 0.9009(2)
C2 C 0.1938(3) 0.1591(2) 0.8511(2)
C3 C 0.2017(3) 0.0886(3) 0.8358(3)
H1 H 0.1695 0.0566 0.8512
C4 C 0.2567(3) 0.0658(3) 0.7980(3)
H2 H 0.2622 0.0185 0.7891
C5 C 0.3026(3) 0.1124(3) 0.7740(3)
H3 H 0.3398 0.0970 0.7488
C6 C 0.2945(3) 0.1830(3) 0.7866(3)
H4 H 0.3263 0.2145 0.7695
C7 C 0.2401(2) 0.2074(2) 0.8243(2)
C8 C 0.2306(2) 0.2846(2) 0.8301(2)
C9 C 0.1750(3) 0.3145(3) 0.7957(2)
H5 H 0.1442 0.2859 0.7720
C10 C 0.1644(3) 0.3860(3) 0.7959(3)
H6 H 0.1262 0.4048 0.7736
C11 C 0.2099(3) 0.4288(3) 0.8286(2)
H7 H 0.2026 0.4767 0.8289
C12 C 0.2665(3) 0.4009(2) 0.8614(2)
H8 H 0.2983 0.4303 0.8824
C13 C 0.2769(2) 0.3288(2) 0.8634(2)
C14 C 0.3376(2) 0.3040(2) 0.9053(2)
C15 C -0.0185(2) 0.2391(2) 1.0638(2)
C16 C -0.0716(2) 0.2043(2) 1.1050(2)
C17 C -0.0621(3) 0.2053(3) 1.1746(3)
H9 H -0.0260 0.2307 1.1940
C18 C -0.1072(4) 0.1676(3) 1.2157(3)
H10 H -0.1009 0.1678 1.2626
C19 C -0.1601(3) 0.1308(3) 1.1874(3)
H11 H -0.1894 0.1053 1.2148
C20 C -0.1705(3) 0.1312(3) 1.1187(3)
H12 H -0.2077 0.1068 1.1002
C21 C -0.1271(2) 0.1668(2) 1.0762(2)
C22 C -0.1413(2) 0.1645(2) 1.0022(2)
C23 C -0.1739(3) 0.2205(2) 0.9700(3)
H13 H -0.1830 0.2607 0.9947
C24 C -0.1929(3) 0.2176(3) 0.9024(3)
H14 H -0.2144 0.2558 0.8821
C25 C -0.1805(3) 0.1599(4) 0.8658(3)
H15 H -0.1933 0.1582 0.8202
C26 C -0.1485(3) 0.1028(3) 0.8960(3)
H16 H -0.1408 0.0627 0.8706
C27 C -0.1280(2) 0.1049(2) 0.9635(2)
C28 C -0.0889(2) 0.0448(2) 0.9927(2)
C29 C 0.1966(3) 0.4121(3) 1.0195(3)
H17 H 0.2221 0.3780 1.0422
C30 C 0.2248(3) 0.4791(3) 1.0137(3)
H18 H 0.2686 0.4888 1.0311
C31 C 0.1876(3) 0.5291(2) 0.9825(3)
H19 H 0.2054 0.5740 0.9794
C32 C 0.1227(3) 0.5146(2) 0.9546(2)
C33 C 0.0986(2) 0.4457(2) 0.9609(2)
C34 C 0.0336(2) 0.4267(2) 0.9314(2)
C35 C -0.0058(3) 0.4764(2) 0.8986(2)
C36 C -0.0697(3) 0.4549(3) 0.8709(3)
H20 H -0.0981 0.4868 0.8488
C37 C -0.0895(3) 0.3872(3) 0.8767(3)
H21 H -0.1318 0.3723 0.8590
C38 C -0.0452(3) 0.3406(3) 0.9095(2)
H22 H -0.0585 0.2941 0.9124
C39 C 0.0800(3) 0.5640(2) 0.9212(3)
H23 H 0.0950 0.6099 0.9180
C40 C 0.0190(3) 0.5469(3) 0.8942(3)
H24 H -0.0077 0.5807 0.8725
Mn1E Mn 0.41219(3) 0.21064(3) 1.00102(3)
Mn2E Mn 0.44729(3) 0.39129(3) 0.98998(4)
Mn2D Mn -0.05271(3) -0.10871(3) 0.98998(4)
O3E O 0.16494(17) 0.25499(16) 1.06893(16)
O4E O 0.11313(19) 0.15457(16) 1.08728(18)
O8D O 0.10914(17) 0.01495(15) 1.0246(2)
loop_
_geom_bond_atom_site_label_1
_geom_bond_atom_site_label_2
_geom_bond_site_symmetry_1
_geom_bond_site_symmetry_2
Mn1 N1 1_555 1_555
Mn2 O2 1_555 1_555
N1 C29 1_555 1_555
N2 Mn1 1_555 1_555
O1 Mn1 1_555 1_555
O2 C1 1_555 1_555
O3 C14 1_555 1_555
O4 C14 1_555 1_555
O5 Mn1 1_555 1_555
O6 Mn1 1_555 1_555
O7 Mn2 1_555 1_555
O8 C28 1_555 1_555
C1 O1 1_555 1_555
C2 C1 1_555 1_555
C3 C2 1_555 1_555
H1 C3 1_555 1_555
C4 C3 1_555 1_555
H2 C4 1_555 1_555
C5 C4 1_555 1_555
H3 C5 1_555 1_555
C6 C5 1_555 1_555
H4 C6 1_555 1_555
C7 C2 1_555 1_555
C8 C7 1_555 1_555
C9 C8 1_555 1_555
H5 C9 1_555 1_555
C10 C9 1_555 1_555
H6 C10 1_555 1_555
C11 C10 1_555 1_555
H7 C11 1_555 1_555
C12 C11 1_555 1_555
H8 C12 1_555 1_555
C13 C8 1_555 1_555
C14 C13 1_555 1_555
C15 O5 1_555 1_555
C16 C15 1_555 1_555
C17 C16 1_555 1_555
H9 C17 1_555 1_555
C18 C17 1_555 1_555
H10 C18 1_555 1_555
C19 C18 1_555 1_555
H11 C19 1_555 1_555
C20 C19 1_555 1_555
H12 C20 1_555 1_555
C21 C16 1_555 1_555
C22 C21 1_555 1_555
C23 C22 1_555 1_555
H13 C23 1_555 1_555
C24 C23 1_555 1_555
H14 C24 1_555 1_555
C25 C24 1_555 1_555
H15 C25 1_555 1_555
C26 C25 1_555 1_555
H16 C26 1_555 1_555
C27 C22 1_555 1_555
C28 O7 1_555 1_555
C29 H17 1_555 1_555
C30 C29 1_555 1_555
H18 C30 1_555 1_555
C31 C30 1_555 1_555
H19 C31 1_555 1_555
C32 C31 1_555 1_555
C33 N1 1_555 1_555
C34 N2 1_555 1_555
C35 C34 1_555 1_555
C36 C35 1_555 1_555
H20 C36 1_555 1_555
C37 C36 1_555 1_555
H21 C37 1_555 1_555
C38 N2 1_555 1_555
H22 C38 1_555 1_555
C39 C32 1_555 1_555
H23 C39 1_555 1_555
C40 C35 1_555 1_555
H24 C40 1_555 1_555
Mn1E O3 1_555 1_555
Mn2E O4 1_555 1_555
Mn2D O8 1_555 1_555
O3E Mn1 1_555 1_555
O4E Mn2 1_555 1_555
O8D Mn2 1_555 1_555
Mn2 O5 1_555 1_555
O6 C15 1_555 1_555
C6 C7 1_555 1_555
C12 C13 1_555 1_555
C20 C21 1_555 1_555
C26 C27 1_555 1_555
C27 C28 1_555 1_555
C32 C33 1_555 1_555
C33 C34 1_555 1_555
C37 C38 1_555 1_555
C39 C40 1_555 1_555

#END
