
#######################################################################
#
#                 Cambridge Crystallographic Data Centre
#                                CCDC 
#
#######################################################################
#
# If this CIF has been generated from an entry in the Cambridge 
# Structural Database, then it will include bibliographic, chemical, 
# crystal, experimental, refinement or atomic coordinate data resulting 
# from the CCDC's data processing and validation procedures.
#
#######################################################################

data_RAVMAE
_symmetry_cell_setting           monoclinic
_symmetry_space_group_name_H-M   'P 21/c'
_symmetry_Int_Tables_number      14
_space_group_name_Hall           '-P 2ybc'
loop_
_symmetry_equiv_pos_site_id
_symmetry_equiv_pos_as_xyz
1 x,y,z
2 -x,1/2+y,1/2-z
3 -x,-y,-z
4 x,1/2-y,1/2+z
_cell_length_a                   16.2587(3)
_cell_length_b                   8.58350(10)
_cell_length_c                   13.2797(2)
_cell_angle_alpha                90
_cell_angle_beta                 99.0250(10)
_cell_angle_gamma                90
_cell_volume                     1830.33
loop_
_atom_site_label
_atom_site_type_symbol
_atom_site_fract_x
_atom_site_fract_y
_atom_site_fract_z
Cd1 Cd 0.051752(10) 0.385871(17) 0.674985(11)
P1 P 0.13186(4) 0.65253(6) 0.51672(4)
N1 N 0.15711(12) 0.3624(2) 0.81610(15)
N2 N 0.46480(18) 0.3445(3) 1.2586(2)
C1 C 0.23340(14) 0.6428(2) 0.47717(17)
C2 C 0.24121(17) 0.6323(3) 0.37430(18)
H1 H 0.1939 0.6317 0.3248
C3 C 0.3195(2) 0.6226(3) 0.3460(2)
H2 H 0.3244 0.6155 0.2773
C4 C 0.3896(2) 0.6233(3) 0.4176(3)
H3 H 0.4417 0.6171 0.3973
C5 C 0.38350(18) 0.6331(3) 0.5197(3)
H4 H 0.4312 0.6329 0.5686
C6 C 0.30505(16) 0.6433(3) 0.5487(2)
H5 H 0.3007 0.6505 0.6176
C7 C 0.12404(15) 0.8506(2) 0.55881(18)
H6 H 0.1760 0.8793 0.6010
H7 H 0.1165 0.9185 0.4997
C8 C 0.05279(14) 0.8783(2) 0.61913(18)
H8 H 0.0007 0.8536 0.5758
H9 H 0.0590 0.8070 0.6765
C9 C 0.04753(13) 1.0433(2) 0.65908(16)
C10 C 0.21666(15) 0.4725(3) 0.83184(18)
H10 H 0.2165 0.5508 0.7834
C11 C 0.27750(14) 0.4747(3) 0.91595(17)
H11 H 0.3180 0.5522 0.9231
C12 C 0.27855(14) 0.3601(3) 0.99089(17)
C13 C 0.21613(15) 0.2485(3) 0.97446(18)
H12 H 0.2135 0.1709 1.0227
C14 C 0.15818(15) 0.2522(3) 0.88727(18)
H13 H 0.1179 0.1745 0.8774
C15 C 0.34247(16) 0.3567(3) 1.08337(18)
C16 C 0.41979(18) 0.4252(4) 1.0866(2)
H14 H 0.4329 0.4776 1.0298
C17 C 0.4774(2) 0.4155(5) 1.1743(3)
H15 H 0.5289 0.4626 1.1741
C18 C 0.3902(2) 0.2836(4) 1.2550(2)
H16 H 0.3786 0.2346 1.3136
C19 C 0.3278(2) 0.2861(4) 1.1719(2)
H17 H 0.2764 0.2408 1.1756
O1 O 0.06813(11) 0.61649(19) 0.42578(13)
O2 O 0.13426(10) 0.54637(18) 0.60800(12)
O3 O 0.08409(11) 1.14987(17) 0.61854(13)
O4 O 0.00626(10) 1.06798(17) 0.73027(12)
Cd1B Cd -0.051752(10) 0.614129(17) 0.325015(11)
Cd1_2 Cd 0.051752(10) 1.385871(17) 0.674985(11)
Cd1A Cd -0.051752(10) 0.885871(17) 0.825015(11)
Cd1B_2 Cd -0.051752(10) -0.385871(17) 0.325015(11)
Cd1C Cd 0.051752(10) 0.114129(17) 0.174985(11)
P1B P -0.13186(4) 0.34747(6) 0.48328(4)
N1B N -0.15711(12) 0.6376(2) 0.18390(15)
N2B N -0.46480(18) 0.6555(3) -0.2586(2)
C1B C -0.23340(14) 0.3572(2) 0.52283(17)
C2B C -0.24121(17) 0.3677(3) 0.62570(18)
H1B H -0.1939 0.3683 0.6752
C3B C -0.3195(2) 0.3774(3) 0.6540(2)
H2B H -0.3244 0.3845 0.7227
C4B C -0.3896(2) 0.3767(3) 0.5824(3)
H3B H -0.4417 0.3829 0.6027
C5B C -0.38350(18) 0.3669(3) 0.4803(3)
H4B H -0.4312 0.3671 0.4314
C6B C -0.30505(16) 0.3567(3) 0.4513(2)
H5B H -0.3007 0.3495 0.3824
C7B C -0.12404(15) 0.1494(2) 0.44119(18)
H6B H -0.1760 0.1207 0.3990
H7B H -0.1165 0.0815 0.5003
C8B C -0.05279(14) 0.1217(2) 0.38087(18)
H8B H -0.0007 0.1464 0.4242
H9B H -0.0590 0.1930 0.3235
C9B C -0.04753(13) -0.0433(2) 0.34092(16)
C10B C -0.21666(15) 0.5275(3) 0.16816(18)
H10B H -0.2165 0.4492 0.2166
C11B C -0.27750(14) 0.5253(3) 0.08405(17)
H11B H -0.3180 0.4478 0.0769
C12B C -0.27855(14) 0.6399(3) 0.00911(17)
C13B C -0.21613(15) 0.7515(3) 0.02554(18)
H12B H -0.2135 0.8291 -0.0227
C14B C -0.15818(15) 0.7478(3) 0.11273(18)
H13B H -0.1179 0.8255 0.1226
C15B C -0.34247(16) 0.6433(3) -0.08337(18)
C16B C -0.41979(18) 0.5748(4) -0.0866(2)
H14B H -0.4329 0.5224 -0.0298
C17B C -0.4774(2) 0.5845(5) -0.1743(3)
H15B H -0.5289 0.5374 -0.1741
C18B C -0.3902(2) 0.7164(4) -0.2550(2)
H16B H -0.3786 0.7654 -0.3136
C19B C -0.3278(2) 0.7139(4) -0.1719(2)
H17B H -0.2764 0.7592 -0.1756
O1B O -0.06813(11) 0.38351(19) 0.57422(13)
O2B O -0.13426(10) 0.45363(18) 0.39200(12)
O3B O -0.08409(11) -0.14987(17) 0.38146(13)
O3_2 O 0.08409(11) 0.14987(17) 0.61854(13)
O3B_2 O -0.08409(11) 0.85013(17) 0.38146(13)
O4B O -0.00626(10) -0.06798(17) 0.26973(12)
O4A O -0.00626(10) 0.56798(17) 0.76973(12)
O4C O 0.00626(10) 0.43202(17) 0.23027(12)
loop_
_geom_bond_atom_site_label_1
_geom_bond_atom_site_label_2
_geom_bond_site_symmetry_1
_geom_bond_site_symmetry_2
Cd1 N1 1_555 1_555
P1 C1 1_555 1_555
N1 C10 1_555 1_555
N2 C17 1_555 1_555
C1 C2 1_555 1_555
C2 H1 1_555 1_555
C3 C2 1_555 1_555
H2 C3 1_555 1_555
C4 C3 1_555 1_555
H3 C4 1_555 1_555
C5 C4 1_555 1_555
H4 C5 1_555 1_555
C6 C1 1_555 1_555
H5 C6 1_555 1_555
C7 P1 1_555 1_555
H6 C7 1_555 1_555
H7 C7 1_555 1_555
C8 C7 1_555 1_555
H8 C8 1_555 1_555
H9 C8 1_555 1_555
C9 C8 1_555 1_555
C10 H10 1_555 1_555
C11 C10 1_555 1_555
H11 C11 1_555 1_555
C12 C11 1_555 1_555
C13 C12 1_555 1_555
H12 C13 1_555 1_555
C14 N1 1_555 1_555
H13 C14 1_555 1_555
C15 C12 1_555 1_555
C16 C15 1_555 1_555
H14 C16 1_555 1_555
C17 C16 1_555 1_555
H15 C17 1_555 1_555
C18 N2 1_555 1_555
H16 C18 1_555 1_555
C19 C15 1_555 1_555
H17 C19 1_555 1_555
O1 P1 1_555 1_555
O2 Cd1 1_555 1_555
O3 C9 1_555 1_555
O4 C9 1_555 1_555
Cd1B O1 1_555 1_555
Cd1_2 O3 1_555 1_555
Cd1A O4 1_555 1_555
Cd1B_2 O3B 1_555 1_555
Cd1C O4B 1_555 1_555
P1B C1B 1_555 1_555
N1B Cd1B 1_555 1_555
N2B C17B 1_555 1_555
C1B C2B 1_555 1_555
C2B H1B 1_555 1_555
C3B C2B 1_555 1_555
H2B C3B 1_555 1_555
C4B C3B 1_555 1_555
H3B C4B 1_555 1_555
C5B C4B 1_555 1_555
H4B C5B 1_555 1_555
C6B C1B 1_555 1_555
H5B C6B 1_555 1_555
C7B P1B 1_555 1_555
H6B C7B 1_555 1_555
H7B C7B 1_555 1_555
C8B C7B 1_555 1_555
H8B C8B 1_555 1_555
H9B C8B 1_555 1_555
C9B C8B 1_555 1_555
C10B N1B 1_555 1_555
H10B C10B 1_555 1_555
C11B C10B 1_555 1_555
H11B C11B 1_555 1_555
C12B C11B 1_555 1_555
C13B C12B 1_555 1_555
H12B C13B 1_555 1_555
C14B N1B 1_555 1_555
H13B C14B 1_555 1_555
C15B C12B 1_555 1_555
C16B C15B 1_555 1_555
H14B C16B 1_555 1_555
C17B C16B 1_555 1_555
H15B C17B 1_555 1_555
C18B N2B 1_555 1_555
H16B C18B 1_555 1_555
C19B C15B 1_555 1_555
H17B C19B 1_555 1_555
O1B Cd1 1_555 1_555
O2B Cd1B 1_555 1_555
O3B C9B 1_555 1_555
O3_2 Cd1 1_555 1_555
O3B_2 Cd1B 1_555 1_555
O4B C9B 1_555 1_555
O4A Cd1 1_555 1_555
O4C Cd1B 1_555 1_555
P1 O2 1_555 1_555
C5 C6 1_555 1_555
C13 C14 1_555 1_555
C18 C19 1_555 1_555
P1B O1B 1_555 1_555
P1B O2B 1_555 1_555
C5B C6B 1_555 1_555
C13B C14B 1_555 1_555
C18B C19B 1_555 1_555

#END
