
#######################################################################
#
#                 Cambridge Crystallographic Data Centre
#                                CCDC 
#
#######################################################################
#
# If this CIF has been generated from an entry in the Cambridge 
# Structural Database, then it will include bibliographic, chemical, 
# crystal, experimental, refinement or atomic coordinate data resulting 
# from the CCDC's data processing and validation procedures.
#
#######################################################################

data_RAVNIM
_symmetry_cell_setting           triclinic
_symmetry_space_group_name_H-M   'P -1'
_symmetry_Int_Tables_number      2
_space_group_name_Hall           '-P 1'
loop_
_symmetry_equiv_pos_site_id
_symmetry_equiv_pos_as_xyz
1 x,y,z
2 -x,-y,-z
_cell_length_a                   8.833(2)
_cell_length_b                   9.025(2)
_cell_length_c                   16.922(3)
_cell_angle_alpha                80.56(3)
_cell_angle_beta                 82.77(3)
_cell_angle_gamma                76.98(3)
_cell_volume                     1290.95
loop_
_atom_site_label
_atom_site_type_symbol
_atom_site_fract_x
_atom_site_fract_y
_atom_site_fract_z
Ba1 Ba 0.46787(2) 0.25175(2) 0.548964(12)
Ni1 Ni -0.18508(5) 0.62149(5) 0.73547(3)
O1 O -0.3012(3) 0.8416(3) 0.75779(16)
O2 O -0.5333(4) 0.9489(3) 0.8131(2)
O3 O -0.0090(3) 0.6343(3) 0.79985(16)
O4 O 0.0162(4) 0.6907(4) 0.9203(2)
O5 O -0.0267(3) 0.6139(3) 0.63398(17)
O6 O 0.1879(4) 0.4559(3) 0.5901(2)
O7 O -0.3614(3) 0.6369(3) 0.66643(16)
O8 O -0.4327(3) 0.5075(3) 0.58123(16)
N1 N -0.3004(3) 0.5669(3) 0.84781(17)
N2 N -0.1412(3) 0.3879(3) 0.72767(17)
C1 C -0.4473(4) 0.6821(4) 0.8486(2)
C2 C -0.4249(4) 0.8377(4) 0.8026(2)
C3 C -0.2005(5) 0.5850(4) 0.9084(2)
C4 C -0.0545(4) 0.6440(4) 0.8738(2)
C5 C 0.0246(4) 0.3512(4) 0.6971(2)
C6 C 0.0660(4) 0.4828(4) 0.6345(2)
C7 C -0.2431(5) 0.3703(4) 0.6681(2)
C8 C -0.3546(4) 0.5158(4) 0.6361(2)
C9 C -0.3235(4) 0.4067(3) 0.8500(2)
C10 C -0.1755(4) 0.3107(4) 0.8116(2)
C11 C -0.1864(5) 0.1434(4) 0.8174(2)
C12 C -0.2316(5) 0.0742(4) 0.9028(3)
C13 C -0.3895(5) 0.1657(4) 0.9339(3)
C14 C -0.3784(5) 0.3322(4) 0.9335(2)
O9 O 0.5636(4) 0.0866(4) 0.4055(2)
O10 O 0.4246(4) 0.2227(4) 0.7120(2)
O11 O 0.7134(3) 0.0282(3) 0.6158(2)
O12 O 0.2065(3) 0.1916(3) 0.48840(19)
O13 O 0.7698(4) 0.2545(4) 0.4800(2)
H1 H -0.513(5) 0.654(5) 0.822(3)
H2 H -0.505(6) 0.698(7) 0.895(4)
H3 H -0.260(10) 0.680(11) 0.939(5)
H4 H -0.156(8) 0.460(8) 0.949(4)
H5 H 0.080(6) 0.320(6) 0.739(3)
H6 H 0.050(7) 0.259(7) 0.672(4)
H7 H -0.175(5) 0.336(5) 0.619(3)
H8 H -0.311(7) 0.313(8) 0.691(4)
H9 H -0.395(5) 0.420(5) 0.811(3)
H10 H -0.088(5) 0.320(5) 0.839(2)
H11 H -0.073(6) 0.084(7) 0.799(3)
H12 H -0.269(8) 0.105(8) 0.788(4)
H13 H -0.145(7) 0.070(7) 0.943(4)
H14 H -0.233(6) -0.039(7) 0.903(3)
H15 H -0.431(5) 0.134(6) 0.991(3)
H16 H -0.476(6) 0.172(6) 0.898(3)
H17 H -0.483(7) 0.409(7) 0.949(3)
H18 H -0.309(7) 0.349(7) 0.967(3)
H19 H 0.508(6) 0.156(7) 0.374(3)
H20 H 0.432(8) 0.148(9) 0.739(4)
H21 H 0.710(7) -0.016(7) 0.653(4)
H22 H 0.236(9) 0.139(9) 0.450(5)
H23 H 0.787(6) 0.344(7) 0.465(3)
H24 H 0.839(11) 0.170(12) 0.451(6)
H34 H 0.3683 0.3089 0.7362
H35 H 0.8170 0.0208 0.6017
H36 H 0.1235 0.2136 0.5030
H38 H 0.6510 0.1129 0.3846
Ba1_2 Ba -0.53213(2) 0.25175(2) 0.548964(12)
Ba1A Ba -0.46787(2) 0.74825(2) 0.451036(12)
Ba1A_2 Ba 0.53213(2) -0.25175(2) 0.451036(12)
O8_2 O 0.5673(3) 0.5075(3) 0.58123(16)
O8A O 0.4327(3) 0.4925(3) 0.41877(16)
O9A O 0.4364(4) -0.0866(4) 0.5945(2)
H19A H 0.492(6) -0.156(7) 0.626(3)
H38A H 0.3490 -0.1129 0.6154
O14 O 0.1389(5) 0.2438(5) 0.9309(2)
H25 H 0.138(8) 0.143(8) 0.930(4)
H37 H 0.0785 0.2481 0.9762
O15 O 1.2996(4) 0.4301(5) 0.8215(3)
H26 H 1.227(7) 0.514(7) 0.801(4)
H27 H 1.250(8) 0.385(8) 0.860(4)
O16 O 0.1739(6) 0.8500(6) 0.7208(3)
H28 H 0.102(13) 0.797(13) 0.746(7)
H29 H 0.204(13) 0.880(14) 0.744(7)
O17 O 0.0283(5) 1.0168(5) 0.5941(3)
H30 H 0.061(9) 0.933(9) 0.644(5)
H31 H 0.073(10) 1.030(10) 0.560(5)
O18 O 0.8294(5) 0.0496(5) 0.1193(3)
H32 H 0.748(10) 0.057(10) 0.145(5)
H33 H 0.857(9) 0.129(10) 0.105(5)
loop_
_geom_bond_atom_site_label_1
_geom_bond_atom_site_label_2
_geom_bond_site_symmetry_1
_geom_bond_site_symmetry_2
Ba1 O6 1_555 1_555
Ni1 O1 1_555 1_555
O1 C2 1_555 1_555
O2 C2 1_555 1_555
O3 Ni1 1_555 1_555
O4 C4 1_555 1_555
O5 Ni1 1_555 1_555
O6 C6 1_555 1_555
O7 Ni1 1_555 1_555
O8 C8 1_555 1_555
N1 Ni1 1_555 1_555
N2 Ni1 1_555 1_555
C1 N1 1_555 1_555
C2 C1 1_555 1_555
C3 N1 1_555 1_555
C4 O3 1_555 1_555
C5 N2 1_555 1_555
C6 O5 1_555 1_555
C7 N2 1_555 1_555
C8 O7 1_555 1_555
C9 N1 1_555 1_555
C10 N2 1_555 1_555
C11 C10 1_555 1_555
C12 C11 1_555 1_555
C13 C12 1_555 1_555
C14 C9 1_555 1_555
O9 Ba1 1_555 1_555
O10 Ba1 1_555 1_555
O11 Ba1 1_555 1_555
O12 Ba1 1_555 1_555
O13 Ba1 1_555 1_555
O14 H25 1_555 1_555
O15 H26 1_555 1_555
O16 H28 1_555 1_555
O17 H30 1_555 1_555
O18 H32 1_555 1_555
H1 C1 1_555 1_555
H2 C1 1_555 1_555
H3 C3 1_555 1_555
H4 C3 1_555 1_555
H5 C5 1_555 1_555
H6 C5 1_555 1_555
H7 C7 1_555 1_555
H8 C7 1_555 1_555
H9 C9 1_555 1_555
H10 C10 1_555 1_555
H11 C11 1_555 1_555
H12 C11 1_555 1_555
H13 C12 1_555 1_555
H14 C12 1_555 1_555
H15 C13 1_555 1_555
H16 C13 1_555 1_555
H17 C14 1_555 1_555
H18 C14 1_555 1_555
H19 O9 1_555 1_555
H20 O10 1_555 1_555
H21 O11 1_555 1_555
H22 O12 1_555 1_555
H23 O13 1_555 1_555
H24 O13 1_555 1_555
H27 O15 1_555 1_555
H29 O16 1_555 1_555
H31 O17 1_555 1_555
H33 O18 1_555 1_555
H34 O10 1_555 1_555
H35 O11 1_555 1_555
H36 O12 1_555 1_555
H37 O14 1_555 1_555
H38 O9 1_555 1_555
Ba1_2 O8 1_555 1_555
Ba1A O8 1_555 1_555
Ba1A_2 O9 1_555 1_555
O8_2 Ba1 1_555 1_555
O8A Ba1 1_555 1_555
O9A Ba1 1_555 1_555
H19A O9A 1_555 1_555
H38A O9A 1_555 1_555
C3 C4 1_555 1_555
C5 C6 1_555 1_555
C7 C8 1_555 1_555
C9 C10 1_555 1_555
C13 C14 1_555 1_555
Ba1A_2 O9A 1_555 1_555

#END
