
#######################################################################
#
#                 Cambridge Crystallographic Data Centre
#                                CCDC 
#
#######################################################################
#
# If this CIF has been generated from an entry in the Cambridge 
# Structural Database, then it will include bibliographic, chemical, 
# crystal, experimental, refinement or atomic coordinate data resulting 
# from the CCDC's data processing and validation procedures.
#
#######################################################################

data_RAVNAE
_symmetry_cell_setting           monoclinic
_symmetry_space_group_name_H-M   'P 21/c'
_symmetry_Int_Tables_number      14
_space_group_name_Hall           '-P 2ybc'
loop_
_symmetry_equiv_pos_site_id
_symmetry_equiv_pos_as_xyz
1 x,y,z
2 -x,1/2+y,1/2-z
3 -x,-y,-z
4 x,1/2-y,1/2+z
_cell_length_a                   11.448(3)
_cell_length_b                   24.185(6)
_cell_length_c                   6.537(1)
_cell_angle_alpha                90
_cell_angle_beta                 106.41(3)
_cell_angle_gamma                90
_cell_volume                     1736.17
loop_
_atom_site_label
_atom_site_type_symbol
_atom_site_fract_x
_atom_site_fract_y
_atom_site_fract_z
Ca1 Ca -0.24994(8) 0.21852(3) -0.17225(17)
O1 O -0.1946(3) 0.31224(12) 0.0232(6)
O2 O -0.2011(3) 0.30970(13) -0.3144(5)
O3 O -0.4093(2) 0.24881(15) -0.5026(6)
H1 H -0.429(6) 0.226(2) -0.539(10)
H2 H -0.452(5) 0.279(2) -0.456(9)
O4 O -0.3818(3) 0.13766(12) -0.2312(7)
H3 H -0.436(5) 0.1396(18) -0.161(11)
H4 H -0.412(6) 0.135(2) -0.338(11)
O5 O -0.0310(3) 0.21138(19) -0.0583(12)
H5 H 0.012(8) 0.218(3) 0.038(18)
H6 H -0.008(9) 0.227(3) -0.133(17)
C1 C -0.1794(3) 0.33532(15) -0.1386(9)
C2 C -0.1311(4) 0.39466(15) -0.1221(9)
C3 C -0.0062(5) 0.3949(2) 0.0400(14)
H11 H -0.0136 0.3823 0.1784
H12 H 0.0271 0.4324 0.0541
H13 H 0.0483 0.3700 -0.0079
C4 C -0.1203(6) 0.41685(19) -0.3341(9)
H14 H -0.0928 0.4554 -0.3163
H15 H -0.1999 0.4149 -0.4409
H16 H -0.0613 0.3945 -0.3814
C5 C -0.2164(6) 0.43131(19) -0.0388(13)
H17 H -0.2148 0.4195 0.1054
H18 H -0.2995 0.4281 -0.1332
H19 H -0.1896 0.4699 -0.0351
Ca1C Ca -0.24994(8) 0.28148(3) 0.32775(17)
Ca1C_2 Ca -0.24994(8) 0.28148(3) -0.67225(17)
O1C O -0.1946(3) 0.18776(12) -0.4768(6)
O2C O -0.2011(3) 0.19030(13) 0.1856(5)
O3C O -0.4093(2) 0.25119(15) -0.0026(6)
H1C H -0.429(6) 0.274(2) -0.039(10)
H2C H -0.452(5) 0.221(2) 0.044(9)
O6 O -0.5431(3) 0.34320(13) -0.1429(6)
O7 O -0.5417(3) 0.34002(14) -0.4805(6)
C6 C -0.5711(3) 0.36301(15) -0.3274(9)
C7 C -0.6480(4) 0.41649(15) -0.3728(10)
C8 C -0.5998(7) 0.4565(2) -0.1865(11)
H20 H -0.6099 0.4401 -0.0555
H21 H -0.6453 0.4913 -0.2162
H22 H -0.5132 0.4638 -0.1685
C9 C -0.7797(4) 0.4000(2) -0.3887(12)
H23 H -0.8063 0.3711 -0.4970
H24 H -0.8327 0.4324 -0.4290
H25 H -0.7842 0.3861 -0.2504
C10 C -0.6423(7) 0.4432(3) -0.5791(11)
H26 H -0.6757 0.4178 -0.6980
H27 H -0.5574 0.4517 -0.5711
H28 H -0.6901 0.4774 -0.6019
O8 O -0.6957(4) 0.3137(2) 0.1126(10)
H7 H -0.657(10) 0.318(3) 0.016(16)
H8 H -0.659(9) 0.326(3) 0.213(18)
O9 O 0.1493(4) 0.2493(3) 0.2816(13)
H9 H 0.189(8) 0.2836(18) 0.280(19)
H10 H 0.211(6) 0.223(3) 0.331(19)
loop_
_geom_bond_atom_site_label_1
_geom_bond_atom_site_label_2
_geom_bond_site_symmetry_1
_geom_bond_site_symmetry_2
Ca1 O1 1_555 1_555
O1 C1 1_555 1_555
O2 Ca1 1_555 1_555
O3 Ca1 1_555 1_555
H1 O3 1_555 1_555
H2 O3 1_555 1_555
O4 Ca1 1_555 1_555
H3 O4 1_555 1_555
H4 O4 1_555 1_555
O5 Ca1 1_555 1_555
H5 O5 1_555 1_555
H6 O5 1_555 1_555
O6 C6 1_555 1_555
O7 C6 1_555 1_555
O8 H7 1_555 1_555
H8 O8 1_555 1_555
O9 H9 1_555 1_555
H10 O9 1_555 1_555
C1 O2 1_555 1_555
C2 C1 1_555 1_555
C3 C2 1_555 1_555
H11 C3 1_555 1_555
H12 C3 1_555 1_555
H13 C3 1_555 1_555
C4 C2 1_555 1_555
H14 C4 1_555 1_555
H15 C4 1_555 1_555
H16 C4 1_555 1_555
C5 C2 1_555 1_555
H17 C5 1_555 1_555
H18 C5 1_555 1_555
H19 C5 1_555 1_555
C6 C7 1_555 1_555
C7 C8 1_555 1_555
C8 H20 1_555 1_555
H21 C8 1_555 1_555
H22 C8 1_555 1_555
C9 C7 1_555 1_555
H23 C9 1_555 1_555
H24 C9 1_555 1_555
H25 C9 1_555 1_555
C10 C7 1_555 1_555
H26 C10 1_555 1_555
H27 C10 1_555 1_555
H28 C10 1_555 1_555
Ca1C O1 1_555 1_555
Ca1C_2 O2 1_555 1_555
O1C Ca1 1_555 1_555
O2C Ca1 1_555 1_555
O3C Ca1 1_555 1_555
H1C O3C 1_555 1_555
H2C O3C 1_555 1_555
O3 Ca1C_2 1_555 1_555
Ca1C O2C 1_555 1_555
Ca1C O3C 1_555 1_555
Ca1C_2 O1C 1_555 1_555

#END
