
#######################################################################
#
#                 Cambridge Crystallographic Data Centre
#                                CCDC 
#
#######################################################################
#
# If this CIF has been generated from an entry in the Cambridge 
# Structural Database, then it will include bibliographic, chemical, 
# crystal, experimental, refinement or atomic coordinate data resulting 
# from the CCDC's data processing and validation procedures.
#
#######################################################################

data_RAVVOA02
_symmetry_cell_setting           monoclinic
_symmetry_space_group_name_H-M   'P 21/n'
_symmetry_Int_Tables_number      14
_space_group_name_Hall           '-P 2yn'
loop_
_symmetry_equiv_pos_site_id
_symmetry_equiv_pos_as_xyz
1 x,y,z
2 1/2-x,1/2+y,1/2-z
3 -x,-y,-z
4 1/2+x,1/2-y,1/2+z
_cell_length_a                   11.33230(10)
_cell_length_b                   9.9051(3)
_cell_length_c                   14.5033(4)
_cell_angle_alpha                90
_cell_angle_beta                 91.3170(10)
_cell_angle_gamma                90
_cell_volume                     1627.53
loop_
_atom_site_label
_atom_site_type_symbol
_atom_site_fract_x
_atom_site_fract_y
_atom_site_fract_z
Co1 Co 0.24450(3) 0.07871(4) 0.36694(3)
Co2 Co 0.25967(3) -0.11198(4) 0.18993(3)
Co3 Co 0.5000 0.0000 0.5000
Co4 Co 0.0000 0.0000 0.5000
O1 O 0.19156(19) 0.1982(2) 0.25399(14)
O2 O 0.1846(2) 0.0589(2) 0.13290(15)
O3 O 0.31483(18) -0.0265(2) 0.47730(14)
O4 O 0.1495(2) -0.1122(2) 0.53455(17)
O5 O 0.34679(18) 0.2559(2) 0.39034(14)
O6 O 0.4829(2) 0.2080(2) 0.49916(16)
O7 O 0.37051(18) -0.0066(2) 0.28134(14)
O8 O 0.14986(18) -0.0841(2) 0.30527(14)
O9 O 0.10298(18) 0.1544(2) 0.43962(14)
O10 O -0.0217(2) -0.1055(3) 0.37679(17)
O11 O 0.1136(2) 0.3754(2) 0.40760(16)
O12 O 0.5411(2) 0.0000(3) 0.36005(16)
C1 C 0.1699(3) 0.1691(3) 0.1696(2)
H1 H 0.1401 0.2380 0.1323
C2 C 0.2570(3) -0.1036(3) 0.5306(2)
H2 H 0.3010 -0.1587 0.5703
C3 C 0.4257(3) 0.2871(3) 0.4501(2)
H3 H 0.4419 0.3785 0.4576
C4 C 0.4813(3) -0.0162(3) 0.2894(2)
H4 H 0.5217 -0.0377 0.2363
C5 C 0.0463(3) -0.1300(4) 0.3140(2)
H5 H 0.0189 -0.1884 0.2681
C6 C 0.0722(3) 0.2773(3) 0.4481(2)
H6 H 0.0123 0.2950 0.4892
Co1B Co -0.24450(3) -0.07871(4) 0.63306(3)
Co2B Co -0.25967(3) 0.11198(4) 0.81007(3)
Co2A Co 0.24033(3) 0.38802(4) 0.31007(3)
Co2C Co -0.24033(3) -0.38802(4) 0.68993(3)
Co3_2 Co -0.5000 0.0000 0.5000
O1B O -0.19156(19) -0.1982(2) 0.74601(14)
O1A O 0.30844(19) -0.3018(2) 0.24601(14)
O1C O -0.30844(19) 0.3018(2) 0.75399(14)
O2B O -0.1846(2) -0.0589(2) 0.86710(15)
O3B O -0.31483(18) 0.0265(2) 0.52270(14)
O3B_2 O 0.68517(18) 0.0265(2) 0.52270(14)
O4B O -0.1495(2) 0.1122(2) 0.46545(17)
O5B O -0.34679(18) -0.2559(2) 0.60966(14)
O5A O 0.15321(18) -0.2441(2) 0.10966(14)
O5C O -0.15321(18) 0.2441(2) 0.89034(14)
O6B O -0.4829(2) -0.2080(2) 0.50084(16)
O6B_2 O 0.5171(2) -0.2080(2) 0.50084(16)
O7B O -0.37051(18) 0.0066(2) 0.71866(14)
O8B O -0.14986(18) 0.0841(2) 0.69473(14)
O9B O -0.10298(18) -0.1544(2) 0.56038(14)
O10B O 0.0217(2) 0.1055(3) 0.62321(17)
O11B O -0.1136(2) -0.3754(2) 0.59240(16)
O11A O 0.3864(2) -0.1246(2) 0.09240(16)
O11C O -0.3864(2) 0.1246(2) 0.90760(16)
O12B O -0.5411(2) 0.0000(3) 0.63995(16)
O12B_2 O 0.4589(2) 0.0000(3) 0.63995(16)
C1B C -0.1699(3) -0.1691(3) 0.8304(2)
H1B H -0.1401 -0.2380 0.8677
C2B C -0.2570(3) 0.1036(3) 0.4694(2)
H2B H -0.3010 0.1587 0.4297
C3B C -0.4257(3) -0.2871(3) 0.5499(2)
H3B H -0.4419 -0.3785 0.5424
C4B C -0.4813(3) 0.0162(3) 0.7106(2)
H4B H -0.5217 0.0377 0.7637
C5B C -0.0463(3) 0.1300(4) 0.6860(2)
H5B H -0.0189 0.1884 0.7319
C6B C -0.0722(3) -0.2773(3) 0.5519(2)
H6B H -0.0123 -0.2950 0.5108
loop_
_geom_bond_atom_site_label_1
_geom_bond_atom_site_label_2
_geom_bond_site_symmetry_1
_geom_bond_site_symmetry_2
Co1 O1 1_555 1_555
Co2 O2 1_555 1_555
Co3 O3 1_555 1_555
Co4 O4 1_555 1_555
O1 C1 1_555 1_555
O2 C1 1_555 1_555
O3 Co1 1_555 1_555
O4 C2 1_555 1_555
O5 Co1 1_555 1_555
O6 Co3 1_555 1_555
O7 Co1 1_555 1_555
O8 Co1 1_555 1_555
O9 Co1 1_555 1_555
O10 Co4 1_555 1_555
O11 C6 1_555 1_555
O12 Co3 1_555 1_555
C1 H1 1_555 1_555
C2 O3 1_555 1_555
H2 C2 1_555 1_555
C3 O5 1_555 1_555
H3 C3 1_555 1_555
C4 O7 1_555 1_555
H4 C4 1_555 1_555
C5 O8 1_555 1_555
H5 C5 1_555 1_555
C6 O9 1_555 1_555
H6 C6 1_555 1_555
Co1B O1B 1_555 1_555
Co2B O1C 1_555 1_555
Co2A O1 1_555 1_555
Co2C O1B 1_555 1_555
Co3_2 O3B 1_555 1_555
O1B C1B 1_555 1_555
O1A Co2 1_555 1_555
O2B Co2B 1_555 1_555
O3B Co1B 1_555 1_555
O3B_2 Co3 1_555 1_555
O4B Co4 1_555 1_555
O5B Co1B 1_555 1_555
O5A Co2 1_555 1_555
O5C Co2B 1_555 1_555
O6B Co3_2 1_555 1_555
O6B_2 Co3 1_555 1_555
O7B Co1B 1_555 1_555
O8B Co1B 1_555 1_555
O9B Co4 1_555 1_555
O10B Co4 1_555 1_555
O11B Co2C 1_555 1_555
O11A Co2 1_555 1_555
O11C Co2B 1_555 1_555
O12B Co3_2 1_555 1_555
O12B_2 Co3 1_555 1_555
C1B O2B 1_555 1_555
H1B C1B 1_555 1_555
C2B O3B 1_555 1_555
H2B C2B 1_555 1_555
C3B O5B 1_555 1_555
H3B C3B 1_555 1_555
C4B O7B 1_555 1_555
H4B C4B 1_555 1_555
C5B O8B 1_555 1_555
H5B C5B 1_555 1_555
C6B O9B 1_555 1_555
H6B C6B 1_555 1_555
Co2 O7 1_555 1_555
Co2 O8 1_555 1_555
Co4 O9 1_555 1_555
O5 Co2A 1_555 1_555
O6 C3 1_555 1_555
O10 C5 1_555 1_555
O11 Co2A 1_555 1_555
O12 C4 1_555 1_555
Co1B O9B 1_555 1_555
Co2B O7B 1_555 1_555
Co2B O8B 1_555 1_555
Co2C O5B 1_555 1_555
O4B C2B 1_555 1_555
O6B C3B 1_555 1_555
O10B C5B 1_555 1_555
O11B C6B 1_555 1_555
O12B C4B 1_555 1_555

#END
