
#######################################################################
#
#                 Cambridge Crystallographic Data Centre
#                                CCDC 
#
#######################################################################
#
# If this CIF has been generated from an entry in the Cambridge 
# Structural Database, then it will include bibliographic, chemical, 
# crystal, experimental, refinement or atomic coordinate data resulting 
# from the CCDC's data processing and validation procedures.
#
#######################################################################

data_RAVVUG
_symmetry_cell_setting           monoclinic
_symmetry_space_group_name_H-M   'P 21/c'
_symmetry_Int_Tables_number      14
_space_group_name_Hall           '-P 2ybc'
loop_
_symmetry_equiv_pos_site_id
_symmetry_equiv_pos_as_xyz
1 x,y,z
2 -x,1/2+y,1/2-z
3 -x,-y,-z
4 x,1/2-y,1/2+z
_cell_length_a                   7.293(3)
_cell_length_b                   17.947(8)
_cell_length_c                   7.398(4)
_cell_angle_alpha                90
_cell_angle_beta                 93.56(4)
_cell_angle_gamma                90
_cell_volume                     966.437
loop_
_atom_site_label
_atom_site_type_symbol
_atom_site_fract_x
_atom_site_fract_y
_atom_site_fract_z
Cu1 Cu 0.3759(1) 0.08060(5) 0.9136(1)
Cl1 Cl 0.3109(2) 0.00560(8) 1.1556(2)
N1 N 0.5119(7) 0.2935(3) 1.0559(7)
N2 N 0.4062(7) 0.2388(3) 0.9823(7)
N3 N 0.4878(7) 0.1749(3) 1.0145(7)
C1 C 0.2258(9) 0.4559(4) 1.1817(9)
C2 C 0.2900(8) 0.3868(4) 1.1512(8)
C3 C 0.4489(9) 0.3706(4) 1.0384(9)
C4 C 0.7927(9) 0.1394(4) 1.1699(8)
C5 C 0.9416(9) 0.1716(4) 1.2595(9)
C6 C 0.9561(9) 0.2478(4) 1.2929(9)
C7 C 0.8196(9) 0.2976(4) 1.2310(9)
C8 C 0.6683(8) 0.2641(3) 1.1384(7)
C9 C 0.6527(8) 0.1885(3) 1.1119(8)
H1 H 0.297(8) 0.495(3) 1.124(7)
H2 H 0.134(9) 0.465(4) 1.228(9)
H3 H 0.239(9) 0.350(3) 1.189(8)
H4 H 0.564(7) 0.401(3) 1.076(6)
H5 H 0.410(7) 0.382(3) 0.923(7)
H6 H 0.792(9) 0.089(4) 1.142(8)
H7 H 1.032(9) 0.139(5) 1.271(9)
H8 H 1.042(9) 0.275(4) 1.347(9)
H9 H 0.840(9) 0.355(4) 1.255(9)
Cu1B Cu 0.6241(1) -0.08060(5) 1.0864(1)
Cu1C Cu 0.3759(1) 0.41940(5) 1.4136(1)
Cl1B Cl 0.6891(2) -0.00560(8) 0.8444(2)
C1C C 0.2258(9) 0.0441(4) 0.6817(9)
C2C C 0.2900(8) 0.1132(4) 0.6512(8)
H1C H 0.297(8) 0.005(3) 0.624(7)
H2C H 0.134(9) 0.035(4) 0.728(9)
H3C H 0.239(9) 0.150(3) 0.689(8)
loop_
_geom_bond_atom_site_label_1
_geom_bond_atom_site_label_2
_geom_bond_site_symmetry_1
_geom_bond_site_symmetry_2
Cu1 Cl1 1_555 1_555
Cl1 Cu1B 1_555 1_555
N1 N2 1_555 1_555
N2 N3 1_555 1_555
N3 Cu1 1_555 1_555
C1 C2 1_555 1_555
C2 C3 1_555 1_555
C3 N1 1_555 1_555
C4 C5 1_555 1_555
C5 C6 1_555 1_555
C6 C7 1_555 1_555
C7 C8 1_555 1_555
C8 N1 1_555 1_555
C9 N3 1_555 1_555
H1 C1 1_555 1_555
H2 C1 1_555 1_555
H3 C2 1_555 1_555
H4 C3 1_555 1_555
H5 C3 1_555 1_555
H6 C4 1_555 1_555
H7 C5 1_555 1_555
H8 C6 1_555 1_555
H9 C7 1_555 1_555
Cu1B Cl1B 1_555 1_555
Cu1C C1 1_555 1_555
Cl1B Cu1 1_555 1_555
C1C Cu1 1_555 1_555
C2C Cu1 1_555 1_555
H1C C1C 1_555 1_555
H2C C1C 1_555 1_555
H3C C2C 1_555 1_555
C2 Cu1C 1_555 1_555
C4 C9 1_555 1_555
C8 C9 1_555 1_555
C1C C2C 1_555 1_555

#END
