
#######################################################################
#
#                 Cambridge Crystallographic Data Centre
#                                CCDC 
#
#######################################################################
#
# If this CIF has been generated from an entry in the Cambridge 
# Structural Database, then it will include bibliographic, chemical, 
# crystal, experimental, refinement or atomic coordinate data resulting 
# from the CCDC's data processing and validation procedures.
#
#######################################################################

data_RAVZET01
_symmetry_cell_setting           orthorhombic
_symmetry_space_group_name_H-M   'P 21 c a'
_symmetry_Int_Tables_number      29
_space_group_name_Hall           'P -2ac 2a'
loop_
_symmetry_equiv_pos_site_id
_symmetry_equiv_pos_as_xyz
1 x,y,z
2 1/2+x,y,1/2-z
3 1/2+x,-y,-z
4 x,-y,1/2+z
_cell_length_a                   27.1492(11)
_cell_length_b                   6.0119(2)
_cell_length_c                   7.2935(3)
_cell_angle_alpha                90
_cell_angle_beta                 90
_cell_angle_gamma                90
_cell_volume                     1190.43
loop_
_atom_site_label
_atom_site_type_symbol
_atom_site_fract_x
_atom_site_fract_y
_atom_site_fract_z
S1 S 0.47586(6) 0.5847(3) 0.0081(2)
C1 C 0.3145(3) 0.7407(14) -0.2903(10)
C2 C 0.2835(3) 0.5695(14) -0.2372(9)
H1 H 0.296 0.4502 -0.1707
C3 C 0.5171(3) 0.1835(13) 0.1177(12)
H2 H 0.4853 0.1368 0.1458
C4 C 0.2946(4) 0.9165(17) -0.3868(13)
H3 H 0.3151 1.0323 -0.423
C5 C 0.2451(4) 0.9259(17) -0.4313(11)
H4 H 0.2325 1.0461 -0.4967
C6 C 0.5568(3) 0.0410(15) 0.1496(11)
H5 H 0.5516 -0.0994 0.1993
C7 C 0.6032(4) 0.1096(18) 0.1072(13)
H6 H 0.6298 0.0161 0.1307
C8 C 0.2147(3) 0.755(2) -0.3776(12)
H7 H 0.1813 0.7607 -0.4048
C9 C 0.5245(2) 0.3935(11) 0.0446(8)
C10 C 0.6114(3) 0.3153(15) 0.0302(13)
H8 H 0.6433 0.3579 -0.0007
C11 C 0.5723(3) 0.4602(12) -0.0017(8)
H9 H 0.5779 0.5995 -0.0531
C12 C 0.2339(3) 0.5746(14) -0.2825(9)
H10 H 0.2134 0.4572 -0.2493
S2 S 0.37755(8) 0.7488(4) -0.2324(3)
Pb1 Pb 0.412419(18) 0.34159(4) -0.18456(3)
S1C S 0.47586(6) 0.4153(3) -0.4919(2)
S2C S 0.37755(8) 0.2512(4) 0.2676(3)
Pb1C Pb 0.412419(18) 0.65841(4) 0.31544(3)
Pb1C_2 Pb 0.412419(18) 0.65841(4) -0.68456(3)
loop_
_geom_bond_atom_site_label_1
_geom_bond_atom_site_label_2
_geom_bond_site_symmetry_1
_geom_bond_site_symmetry_2
S1 C9 1_555 1_555
C1 C2 1_555 1_555
C2 H1 1_555 1_555
C3 H2 1_555 1_555
C4 C1 1_555 1_555
H3 C4 1_555 1_555
C5 C4 1_555 1_555
H4 C5 1_555 1_555
C6 C3 1_555 1_555
H5 C6 1_555 1_555
C7 C6 1_555 1_555
H6 C7 1_555 1_555
C8 C5 1_555 1_555
H7 C8 1_555 1_555
C9 C3 1_555 1_555
C10 C7 1_555 1_555
H8 C10 1_555 1_555
C11 C9 1_555 1_555
H9 C11 1_555 1_555
C12 C2 1_555 1_555
H10 C12 1_555 1_555
S2 C1 1_555 1_555
Pb1 S1 1_555 1_555
S1C Pb1 1_555 1_555
S2C Pb1 1_555 1_555
Pb1C S1 1_555 1_555
Pb1C_2 S2 1_555 1_555
C8 C12 1_555 1_555
C10 C11 1_555 1_555
S2 Pb1 1_555 1_555
S1C Pb1C_2 1_555 1_555
S2C Pb1C 1_555 1_555

#END
