
#######################################################################
#
#                 Cambridge Crystallographic Data Centre
#                                CCDC 
#
#######################################################################
#
# If this CIF has been generated from an entry in the Cambridge 
# Structural Database, then it will include bibliographic, chemical, 
# crystal, experimental, refinement or atomic coordinate data resulting 
# from the CCDC's data processing and validation procedures.
#
#######################################################################

data_RAVZET
_symmetry_cell_setting           orthorhombic
_symmetry_space_group_name_H-M   'P m c n'
_symmetry_Int_Tables_number      62
_space_group_name_Hall           '-P 2n 2a'
loop_
_symmetry_equiv_pos_site_id
_symmetry_equiv_pos_as_xyz
1 x,y,z
2 1/2-x,1/2-y,1/2+z
3 1/2+x,-y,-z
4 -x,1/2+y,1/2-z
5 -x,-y,-z
6 1/2+x,1/2+y,1/2-z
7 1/2-x,y,z
8 x,1/2-y,1/2+z
_cell_length_a                   54.06(1)
_cell_length_b                   11.468(1)
_cell_length_c                   7.4387(8)
_cell_angle_alpha                90
_cell_angle_beta                 90
_cell_angle_gamma                90
_cell_volume                     4611.7
loop_
_atom_site_label
_atom_site_type_symbol
_atom_site_fract_x
_atom_site_fract_y
_atom_site_fract_z
S1 S 0.1529(1) 0.4227(4) -0.2125(6)
S2 S 0.1047(1) 0.2320(4) 0.0133(8)
C1 C 0.1773(2) 0.3226(10) -0.1657(18)
C2 C 0.1737(2) 0.2150(11) -0.0819(17)
C3 C 0.1940(3) 0.1441(10) -0.0427(18)
C4 C 0.2179(2) 0.1809(12) -0.0874(20)
C5 C 0.2214(2) 0.2885(13) -0.1713(20)
C6 C 0.2011(2) 0.3594(9) -0.2104(19)
C7 C 0.0738(2) 0.2452(12) -0.0635(21)
C8 C 0.0652(2) 0.3424(10) -0.1579(22)
C9 C 0.0405(2) 0.3482(10) -0.2124(23)
C10 C 0.0244(2) 0.2569(13) -0.1725(25)
C11 C 0.0329(2) 0.1597(11) -0.0780(25)
C12 C 0.0576(3) 0.1538(10) -0.0235(22)
Pb1 Pb 0.12125(2) 0.45092(6) 0.08844(9)
H1 H 0.1567 0.1887 -0.0499
H2 H 0.1915 0.0671 0.0174
H3 H 0.2324 0.1300 -0.0593
H4 H 0.2385 0.3148 -0.2033
H5 H 0.2037 0.4364 -0.2705
H6 H 0.0768 0.4077 -0.1867
H7 H 0.0344 0.4178 -0.2801
H8 H 0.0067 0.2611 -0.2113
H9 H 0.0213 0.0942 -0.0491
H10 H 0.0679 0.0957 0.0435
S3 S 0.1529(1) 0.3273(4) 0.2875(6)
S4 S 0.1047(1) 0.5180(4) 0.5133(8)
C13 C 0.1773(2) 0.4274(10) 0.3343(18)
C14 C 0.1737(2) 0.5350(11) 0.4181(17)
C15 C 0.1940(3) 0.6059(10) 0.4573(18)
C16 C 0.2179(2) 0.5691(12) 0.4126(20)
C17 C 0.2214(2) 0.4615(13) 0.3287(20)
C18 C 0.2011(2) 0.3906(9) 0.2896(19)
C19 C 0.0738(2) 0.5048(12) 0.4365(21)
C20 C 0.0652(2) 0.4076(10) 0.3421(22)
C21 C 0.0405(2) 0.4018(10) 0.2876(23)
C22 C 0.0244(2) 0.4931(13) 0.3275(25)
C23 C 0.0329(2) 0.5903(11) 0.4120(25)
C24 C 0.0576(3) 0.5962(10) 0.4765(22)
Pb2 Pb 0.12125(2) 0.29908(6) 0.58844(9)
H11 H 0.1567 0.5613 0.4501
H12 H 0.1915 0.6829 0.5174
H13 H 0.2324 0.6200 0.4407
H14 H 0.2385 0.4352 0.2967
H15 H 0.2037 0.3136 0.2295
H16 H 0.0768 0.3423 0.3133
H17 H 0.0344 0.3322 0.2199
H18 H 0.0067 0.4889 0.2887
H19 H 0.0213 0.6558 0.4509
H20 H 0.0679 0.6543 0.5435
loop_
_geom_bond_atom_site_label_1
_geom_bond_atom_site_label_2
_geom_bond_site_symmetry_1
_geom_bond_site_symmetry_2
S1 C1 1_555 1_555
S2 C7 1_555 1_555
C1 C2 1_555 1_555
C2 C3 1_555 1_555
C3 C4 1_555 1_555
C4 C5 1_555 1_555
C5 C6 1_555 1_555
C6 C1 1_555 1_555
C7 C8 1_555 1_555
C8 C9 1_555 1_555
C9 C10 1_555 1_555
C10 C11 1_555 1_555
C11 C12 1_555 1_555
C12 C7 1_555 1_555
Pb1 S1 1_555 1_555
H1 C2 1_555 1_555
H2 C3 1_555 1_555
H3 C4 1_555 1_555
H4 C5 1_555 1_555
H5 C6 1_555 1_555
H6 C8 1_555 1_555
H7 C9 1_555 1_555
H8 C10 1_555 1_555
H9 C11 1_555 1_555
H10 C12 1_555 1_555
S3 Pb1 1_555 1_555
S4 C19 1_555 1_555
C13 S3 1_555 1_555
C14 C13 1_555 1_555
C15 C14 1_555 1_555
C16 C15 1_555 1_555
C17 C16 1_555 1_555
C18 C13 1_555 1_555
C19 C20 1_555 1_555
C20 C21 1_555 1_555
C21 C22 1_555 1_555
C22 C23 1_555 1_555
C23 C24 1_555 1_555
C24 C19 1_555 1_555
Pb2 S3 1_555 1_555
H11 C14 1_555 1_555
H12 C15 1_555 1_555
H13 C16 1_555 1_555
H14 C17 1_555 1_555
H15 C18 1_555 1_555
H16 C20 1_555 1_555
H17 C21 1_555 1_555
H18 C22 1_555 1_555
H19 C23 1_555 1_555
H20 C24 1_555 1_555
S2 Pb1 1_555 1_555
S4 Pb2 1_555 1_555
C17 C18 1_555 1_555

#END
