
#######################################################################
#
#                 Cambridge Crystallographic Data Centre
#                                CCDC 
#
#######################################################################
#
# If this CIF has been generated from an entry in the Cambridge 
# Structural Database, then it will include bibliographic, chemical, 
# crystal, experimental, refinement or atomic coordinate data resulting 
# from the CCDC's data processing and validation procedures.
#
#######################################################################

data_RAWHUT
_symmetry_cell_setting           monoclinic
_symmetry_space_group_name_H-M   'P 21'
_symmetry_Int_Tables_number      4
_space_group_name_Hall           'P 2yb'
loop_
_symmetry_equiv_pos_site_id
_symmetry_equiv_pos_as_xyz
1 x,y,z
2 -x,1/2+y,-z
_cell_length_a                   12.599(5)
_cell_length_b                   8.461(3)
_cell_length_c                   13.480(5)
_cell_angle_alpha                90
_cell_angle_beta                 96.006(12)
_cell_angle_gamma                90
_cell_volume                     1429.08
loop_
_atom_site_label
_atom_site_type_symbol
_atom_site_fract_x
_atom_site_fract_y
_atom_site_fract_z
Cu1 Cu -0.37697(3) 0.15177(6) -0.37368(3)
C1 C -0.1959(3) 0.0680(6) -0.4944(3)
H1 H -0.2328 0.1231 -0.5469
C2 C -0.0983(4) -0.0021(6) -0.5086(4)
H2 H -0.0708 0.0048 -0.5699
C3 C -0.0437(4) -0.0813(6) -0.4304(4)
H3 H 0.0226 -0.1259 -0.4376
C4 C -0.0883(4) -0.0947(6) -0.3388(3)
H4 H -0.0540 -0.1502 -0.2851
C5 C -0.1849(3) -0.0220(5) -0.3328(3)
C6 C -0.2380(3) -0.0228(5) -0.2399(3)
H5 H -0.2076 -0.0756 -0.1835
C7 C -0.3772(3) 0.0587(5) -0.1435(3)
H6 H -0.4534 0.0759 -0.1635
C8 C -0.3691(3) -0.0957(5) -0.0857(3)
C9 C -0.4434(4) -0.2138(5) -0.1096(3)
H7 H -0.4984 -0.1968 -0.1601
C10 C -0.4373(3) -0.3533(7) -0.0609(3)
H8 H -0.4878 -0.4310 -0.0793
C11 C -0.3592(4) -0.3837(5) 0.0145(3)
H9 H -0.3556 -0.4807 0.0472
C12 C -0.2863(4) -0.2672(6) 0.0407(3)
H10 H -0.2330 -0.2856 0.0925
C13 C -0.2897(3) -0.1230(6) -0.0078(3)
H11 H -0.2396 -0.0452 0.0115
C14 C -0.6031(3) 0.1464(8) -0.3307(3)
H12 H -0.5995 0.0392 -0.3451
C15 C -0.7021(4) 0.2084(6) -0.3087(3)
H13 H -0.7624 0.1446 -0.3098
C16 C -0.7060(4) 0.3609(6) -0.2864(3)
H14 H -0.7698 0.4044 -0.2702
C17 C -0.6154(4) 0.4578(6) -0.2869(4)
H15 H -0.6178 0.5648 -0.2717
C18 C -0.5220(3) 0.3867(5) -0.3111(3)
C19 C -0.4236(3) 0.4811(5) -0.3128(3)
H16 H -0.4245 0.5889 -0.2993
C20 C -0.2434(4) 0.5179(6) -0.3326(4)
H17 H -0.2630 0.6251 -0.3138
C21 C -0.2115(4) 0.5222(6) -0.4393(4)
H18 H -0.1964 0.4169 -0.4603
H19 H -0.1492 0.5869 -0.4412
H20 H -0.2691 0.5656 -0.4833
C22 C -0.1584(3) 0.4540(5) -0.2520(4)
C23 C -0.1605(4) 0.5124(6) -0.1551(4)
H21 H -0.2091 0.5905 -0.1419
C24 C -0.0901(4) 0.4529(6) -0.0798(4)
H22 H -0.0905 0.4914 -0.0152
C25 C -0.0197(4) 0.3380(6) -0.0991(4)
H23 H 0.0254 0.2962 -0.0466
C26 C -0.0135(4) 0.2831(7) -0.1918(3)
H24 H 0.0373 0.2073 -0.2032
C27 C -0.0850(4) 0.3413(6) -0.2727(4)
H25 H -0.0820 0.3044 -0.3374
C28 C -0.3377(4) 0.2043(5) -0.0887(3)
H26 H -0.3701 0.2125 -0.0275
H27 H -0.3559 0.2956 -0.1292
H28 H -0.2615 0.1985 -0.0740
N1 N -0.2379(2) 0.0583(4) -0.4079(2)
N2 N -0.3243(2) 0.0488(4) -0.2390(2)
N3 N -0.5159(3) 0.2308(4) -0.3320(2)
N4 N -0.3379(3) 0.4155(4) -0.3326(2)
N5 N -0.4182(3) 0.1987(4) -0.5157(2)
N6 N -0.4884(3) 0.2793(5) -0.5505(3)
N7 N -0.5570(3) 0.3542(5) -0.5899(3)
Cu1A Cu -0.62303(3) 0.65177(6) -0.62632(3)
N7A N -0.4430(3) -0.1458(5) -0.4101(3)
Cl1 Cl -0.80722(10) 0.79425(15) -0.22241(9)
O1 O -0.7191(2) 0.7625(4) -0.1695(2)
O2 O -0.8567(2) 0.9301(4) -0.1890(2)
O3 O -0.8746(2) 0.6814(4) -0.2595(2)
O4 O -0.7722(3) 0.8273(4) -0.3153(2)
loop_
_geom_bond_atom_site_label_1
_geom_bond_atom_site_label_2
_geom_bond_site_symmetry_1
_geom_bond_site_symmetry_2
Cu1 N1 1_555 1_555
C1 H1 1_555 1_555
C2 C1 1_555 1_555
H2 C2 1_555 1_555
C3 C2 1_555 1_555
H3 C3 1_555 1_555
C4 C3 1_555 1_555
H4 C4 1_555 1_555
C5 C4 1_555 1_555
C6 C5 1_555 1_555
H5 C6 1_555 1_555
C7 H6 1_555 1_555
C8 C7 1_555 1_555
C9 C8 1_555 1_555
H7 C9 1_555 1_555
C10 C9 1_555 1_555
H8 C10 1_555 1_555
C11 C10 1_555 1_555
H9 C11 1_555 1_555
C12 C11 1_555 1_555
H10 C12 1_555 1_555
C13 C8 1_555 1_555
H11 C13 1_555 1_555
C14 H12 1_555 1_555
C15 C14 1_555 1_555
H13 C15 1_555 1_555
C16 C15 1_555 1_555
H14 C16 1_555 1_555
C17 C16 1_555 1_555
H15 C17 1_555 1_555
C18 C17 1_555 1_555
C19 C18 1_555 1_555
H16 C19 1_555 1_555
C20 H17 1_555 1_555
C21 C20 1_555 1_555
H18 C21 1_555 1_555
H19 C21 1_555 1_555
H20 C21 1_555 1_555
C22 C20 1_555 1_555
C23 C22 1_555 1_555
H21 C23 1_555 1_555
C24 C23 1_555 1_555
H22 C24 1_555 1_555
C25 C24 1_555 1_555
H23 C25 1_555 1_555
C26 C25 1_555 1_555
H24 C26 1_555 1_555
C27 C22 1_555 1_555
H25 C27 1_555 1_555
C28 C7 1_555 1_555
H26 C28 1_555 1_555
H27 C28 1_555 1_555
H28 C28 1_555 1_555
Cl1 O1 1_555 1_555
N1 C1 1_555 1_555
N2 Cu1 1_555 1_555
N3 Cu1 1_555 1_555
N4 Cu1 1_555 1_555
N5 Cu1 1_555 1_555
N6 N5 1_555 1_555
N7 N6 1_555 1_555
O2 Cl1 1_555 1_555
O3 Cl1 1_555 1_555
O4 Cl1 1_555 1_555
Cu1A N7 1_555 1_555
N7A Cu1 1_555 1_555
C5 N1 1_555 1_555
C6 N2 1_555 1_555
C7 N2 1_555 1_555
C12 C13 1_555 1_555
C14 N3 1_555 1_555
C18 N3 1_555 1_555
C19 N4 1_555 1_555
C20 N4 1_555 1_555
C26 C27 1_555 1_555

#END
