
#######################################################################
#
#                 Cambridge Crystallographic Data Centre
#                                CCDC 
#
#######################################################################
#
# If this CIF has been generated from an entry in the Cambridge 
# Structural Database, then it will include bibliographic, chemical, 
# crystal, experimental, refinement or atomic coordinate data resulting 
# from the CCDC's data processing and validation procedures.
#
#######################################################################

data_RAWJAB
_symmetry_cell_setting           monoclinic
_symmetry_space_group_name_H-M   'P 21'
_symmetry_Int_Tables_number      4
_space_group_name_Hall           'P 2yb'
loop_
_symmetry_equiv_pos_site_id
_symmetry_equiv_pos_as_xyz
1 x,y,z
2 -x,1/2+y,-z
_cell_length_a                   12.822(3)
_cell_length_b                   8.3655(19)
_cell_length_c                   13.658(3)
_cell_angle_alpha                90
_cell_angle_beta                 94.668(5)
_cell_angle_gamma                90
_cell_volume                     1460.13
loop_
_atom_site_label
_atom_site_type_symbol
_atom_site_fract_x
_atom_site_fract_y
_atom_site_fract_z
Mn1 Mn -0.10745(4) 0.43496(7) 0.37539(4)
C1 C 0.1236(3) 0.4129(5) 0.3068(3)
H1 H 0.1233 0.5222 0.3192
C2 C 0.2156(4) 0.3491(6) 0.2825(4)
H2 H 0.2757 0.4104 0.2796
C3 C 0.2138(3) 0.1887(6) 0.2626(3)
H3 H 0.2738 0.1390 0.2436
C4 C 0.1237(3) 0.0993(6) 0.2704(3)
H4 H 0.1217 -0.0102 0.2584
C5 C 0.0393(3) 0.1797(4) 0.2964(3)
C6 C -0.0614(3) 0.0972(5) 0.3074(3)
H5 H -0.0655 -0.0113 0.2928
C7 C -0.2343(3) 0.0554(5) 0.3463(3)
H6 H -0.2183 -0.0535 0.3257
C8 C -0.2559(3) 0.0586(6) 0.4551(3)
H7 H -0.1969 0.0154 0.4940
H8 H -0.3169 -0.0044 0.4645
H9 H -0.2676 0.1669 0.4748
C9 C -0.3240(4) 0.1265(6) 0.2795(3)
C10 C -0.3998(3) 0.2326(5) 0.3038(3)
H10 H -0.4019 0.2673 0.3683
C11 C -0.4713(4) 0.2860(6) 0.2329(3)
H11 H -0.5169 0.3667 0.2489
C12 C -0.4796(4) 0.2314(6) 0.1450(3)
H12 H -0.5353 0.2615 0.1010
C13 C -0.4073(3) 0.1316(6) 0.1180(3)
H13 H -0.4088 0.1013 0.0524
C14 C -0.3322(4) 0.0724(6) 0.1812(3)
H14 H -0.2857 -0.0036 0.1607
C15 C -0.3017(3) 0.5297(6) 0.4953(3)
H15 H -0.2663 0.4736 0.5466
C16 C -0.3964(3) 0.6031(6) 0.5118(3)
H16 H -0.4224 0.6014 0.5735
C17 C -0.4500(4) 0.6782(6) 0.4334(4)
H17 H -0.5157 0.7219 0.4400
C18 C -0.4050(3) 0.6882(6) 0.3439(3)
H18 H -0.4367 0.7451 0.2910
C19 C -0.3131(3) 0.6110(5) 0.3378(3)
C20 C -0.2642(3) 0.6099(5) 0.2432(3)
H19 H -0.2957 0.6660 0.1900
C21 C -0.1335(3) 0.5304(6) 0.1396(3)
H20 H -0.0590 0.5084 0.1554
C22 C -0.1801(3) 0.3879(5) 0.0823(3)
H21 H -0.1403 0.2937 0.1003
H22 H -0.1782 0.4071 0.0132
H23 H -0.2513 0.3729 0.0973
C23 C -0.1421(3) 0.6891(6) 0.0833(3)
C24 C -0.2203(4) 0.7263(5) 0.0143(3)
H24 H -0.2723 0.6516 -0.0029
C25 C -0.2231(4) 0.8730(6) -0.0303(4)
H25 H -0.2792 0.8991 -0.0749
C26 C -0.1434(4) 0.9834(6) -0.0097(4)
H26 H -0.1459 1.0823 -0.0410
C27 C -0.0604(3) 0.9461(8) 0.0573(3)
H27 H -0.0060 1.0180 0.0719
C28 C -0.0614(3) 0.7954(5) 0.1022(3)
H28 H -0.0056 0.7665 0.1463
N1 N 0.0365(3) 0.3379(4) 0.3146(2)
N2 N -0.1423(3) 0.1653(4) 0.3355(2)
N3 N -0.2599(3) 0.5363(4) 0.4097(2)
N4 N -0.1840(3) 0.5370(4) 0.2340(3)
N5 N -0.0683(2) 0.3700(4) 0.5222(2)
N6 N -0.0160(3) 0.2703(5) 0.5646(2)
N7 N 0.0329(3) 0.1724(5) 0.6105(3)
Mn1A Mn 0.10745(4) -0.06504(7) 0.62461(4)
N7A N -0.0329(3) 0.6724(5) 0.3895(3)
Cl1 Cl -0.31883(8) 0.26890(13) 0.78029(8)
O1 O -0.2175(2) 0.2759(4) 0.8149(2)
O2 O -0.3192(2) 0.2878(4) 0.6877(2)
O3 O -0.3664(2) 0.3893(4) 0.7977(2)
O4 O -0.3730(2) 0.1324(4) 0.8061(2)
loop_
_geom_bond_atom_site_label_1
_geom_bond_atom_site_label_2
_geom_bond_site_symmetry_1
_geom_bond_site_symmetry_2
Mn1 N1 1_555 1_555
C1 H1 1_555 1_555
C2 C1 1_555 1_555
H2 C2 1_555 1_555
C3 C2 1_555 1_555
H3 C3 1_555 1_555
C4 C3 1_555 1_555
H4 C4 1_555 1_555
C5 C4 1_555 1_555
C6 C5 1_555 1_555
H5 C6 1_555 1_555
C7 H6 1_555 1_555
C8 C7 1_555 1_555
H7 C8 1_555 1_555
H8 C8 1_555 1_555
H9 C8 1_555 1_555
C9 C7 1_555 1_555
C10 C9 1_555 1_555
H10 C10 1_555 1_555
C11 C10 1_555 1_555
H11 C11 1_555 1_555
C12 C11 1_555 1_555
H12 C12 1_555 1_555
C13 C12 1_555 1_555
H13 C13 1_555 1_555
C14 C9 1_555 1_555
H14 C14 1_555 1_555
C15 H15 1_555 1_555
C16 C15 1_555 1_555
H16 C16 1_555 1_555
C17 C16 1_555 1_555
H17 C17 1_555 1_555
C18 C17 1_555 1_555
H18 C18 1_555 1_555
C19 C18 1_555 1_555
C20 C19 1_555 1_555
H19 C20 1_555 1_555
C21 H20 1_555 1_555
C22 C21 1_555 1_555
H21 C22 1_555 1_555
H22 C22 1_555 1_555
H23 C22 1_555 1_555
C23 C21 1_555 1_555
C24 C23 1_555 1_555
H24 C24 1_555 1_555
C25 C24 1_555 1_555
H25 C25 1_555 1_555
C26 C25 1_555 1_555
H26 C26 1_555 1_555
C27 C26 1_555 1_555
H27 C27 1_555 1_555
C28 C23 1_555 1_555
H28 C28 1_555 1_555
N1 C1 1_555 1_555
N2 Mn1 1_555 1_555
N3 Mn1 1_555 1_555
N4 Mn1 1_555 1_555
N5 Mn1 1_555 1_555
N6 N5 1_555 1_555
N7 N6 1_555 1_555
Cl1 O1 1_555 1_555
O2 Cl1 1_555 1_555
O3 Cl1 1_555 1_555
O4 Cl1 1_555 1_555
Mn1A N7 1_555 1_555
N7A Mn1 1_555 1_555
C5 N1 1_555 1_555
C6 N2 1_555 1_555
C7 N2 1_555 1_555
C13 C14 1_555 1_555
C15 N3 1_555 1_555
C19 N3 1_555 1_555
C20 N4 1_555 1_555
C21 N4 1_555 1_555
C27 C28 1_555 1_555

#END
