
#######################################################################
#
#                 Cambridge Crystallographic Data Centre
#                                CCDC 
#
#######################################################################
#
# If this CIF has been generated from an entry in the Cambridge 
# Structural Database, then it will include bibliographic, chemical, 
# crystal, experimental, refinement or atomic coordinate data resulting 
# from the CCDC's data processing and validation procedures.
#
#######################################################################

data_RAWPOV
_symmetry_cell_setting           monoclinic
_symmetry_space_group_name_H-M   'C 2'
_symmetry_Int_Tables_number      5
_space_group_name_Hall           'C 2y'
loop_
_symmetry_equiv_pos_site_id
_symmetry_equiv_pos_as_xyz
1 x,y,z
2 -x,y,-z
3 1/2+x,1/2+y,z
4 1/2-x,1/2+y,-z
_cell_length_a                   25.424(3)
_cell_length_b                   9.7274(13)
_cell_length_c                   7.6253(10)
_cell_angle_alpha                90
_cell_angle_beta                 95.731(2)
_cell_angle_gamma                90
_cell_volume                     1876.38
loop_
_atom_site_label
_atom_site_type_symbol
_atom_site_fract_x
_atom_site_fract_y
_atom_site_fract_z
Zn1 Zn 0.228739(16) 0.44322(7) 0.76496(6)
S1 S 0.27623(4) 0.11335(11) 0.83215(13)
O1 O 0.26174(11) 0.2554(3) 0.8793(4)
O2 O 0.28359(14) 0.0327(4) 0.9920(4)
O3 O 0.32461(12) 0.1144(4) 0.7427(4)
O4 O 0.23358(12) 0.0545(4) 0.7108(4)
O5 O 0.20271(13) 0.6309(3) 0.6198(4)
H1 H 0.1846(16) 0.625(5) 0.522(3)
H2 H 0.1873(17) 0.695(4) 0.667(5)
O6 O 0.23345(14) 0.3612(3) 0.5113(5)
H3 H 0.242(2) 0.284(3) 0.475(7)
H4 H 0.2448(19) 0.428(4) 0.456(6)
N1 N 0.14943(14) 0.3806(4) 0.7578(5)
C1 C 0.11148(19) 0.4663(6) 0.8062(7)
H5 H 0.1204 0.5560 0.8393
C2 C 0.0597(2) 0.4232(9) 0.8075(8)
H6 H 0.0354 0.4846 0.8466
C3 C 0.04270(17) 0.2982(9) 0.7555(8)
C4 C 0.0818(2) 0.2090(7) 0.7060(8)
H7 H 0.0730 0.1191 0.6735
C5 C 0.13470(19) 0.2543(6) 0.7049(7)
H8 H 0.1598 0.1947 0.6665
C6 C -0.01149(18) 0.2764(9) 0.7674(10)
H9 H -0.0312 0.3539 0.7895
N2 N -0.19352(14) 0.0261(4) 0.7756(5)
C7 C -0.1821(2) 0.1553(5) 0.8171(7)
H10 H -0.2089 0.2113 0.8513
C8 C -0.1323(3) 0.2118(7) 0.8123(8)
H11 H -0.1266 0.3038 0.8417
C9 C -0.0893(2) 0.1294(8) 0.7622(8)
C10 C -0.1036(2) 0.0003(9) 0.7259(9)
H12 H -0.0774 -0.0605 0.6981
C11 C -0.15419(17) -0.0501(8) 0.7263(7)
H13 H -0.1611 -0.1404 0.6909
C12 C -0.0363(2) 0.1664(9) 0.7521(11)
H14 H -0.0151 0.0921 0.7289
Zn1C Zn 0.271261(16) 0.94322(7) 1.23504(6)
Zn1C_2 Zn 0.271261(16) -0.05678(7) 1.23504(6)
Zn1B Zn -0.271261(16) -0.05678(7) 0.76496(6)
Zn1B_2 Zn 0.728739(16) 0.94322(7) 0.76496(6)
S1C S 0.22377(4) 0.61335(11) 1.16785(13)
O1C O 0.23826(11) 0.7554(3) 1.1207(4)
O2C O 0.21641(14) 0.5327(4) 1.0080(4)
O2_2 O 0.28359(14) 1.0327(4) 0.9920(4)
O3C O 0.17539(12) 0.6144(4) 1.2573(4)
O4C O 0.26642(12) 0.5545(4) 1.2892(4)
O5C O 0.29729(13) 1.1309(3) 1.3802(4)
H1C H 0.3154(16) 1.125(5) 1.478(3)
H2C H 0.3127(17) 1.195(4) 1.333(5)
O6C O 0.26655(14) 0.8612(3) 1.4887(5)
H3C H 0.258(2) 0.784(3) 1.525(7)
H4C H 0.2552(19) 0.928(4) 1.544(6)
N1B N 0.64943(14) 0.8806(4) 0.7578(5)
N1C N 0.35057(14) 0.8806(4) 1.2422(5)
C1B C 0.61148(19) 0.9663(6) 0.8062(7)
H5B H 0.6204 1.0560 0.8393
C2B C 0.5597(2) 0.9232(9) 0.8075(8)
H6B H 0.5354 0.9846 0.8466
C3B C 0.54270(17) 0.7982(9) 0.7555(8)
C4B C 0.5818(2) 0.7090(7) 0.7060(8)
H7B H 0.5730 0.6191 0.6735
C5B C 0.63470(19) 0.7543(6) 0.7049(7)
H8B H 0.6598 0.6947 0.6665
C6B C 0.48851(18) 0.7764(9) 0.7674(10)
H9B H 0.4688 0.8539 0.7895
N2B N 0.30648(14) 0.5261(4) 0.7756(5)
N2A N 0.19352(14) 1.0261(4) 1.2244(5)
C7B C 0.3179(2) 0.6553(5) 0.8171(7)
H10B H 0.2911 0.7113 0.8513
C8B C 0.3677(3) 0.7118(7) 0.8123(8)
H11B H 0.3734 0.8038 0.8417
C9B C 0.4107(2) 0.6294(8) 0.7622(8)
C10B C 0.3964(2) 0.5003(9) 0.7259(9)
H12B H 0.4226 0.4395 0.6981
C11B C 0.34581(17) 0.4499(8) 0.7263(7)
H13B H 0.3389 0.3596 0.6909
C12B C 0.4637(2) 0.6664(9) 0.7521(11)
H14B H 0.4849 0.5921 0.7289
O7 O 0.16958(14) 0.8454(4) 0.8199(5)
H15 H 0.1882(18) 0.815(4) 0.935(4)
H16 H 0.1975(15) 0.918(4) 0.834(6)
O8 O 1.0000 0.7566(11) 0.0000
H17 H 1.022(3) 0.830(6) 0.064(12)
H17A H 0.978(3) 0.830(6) -0.064(12)
O9 O 1.0000 0.6985(9) 0.5000
H18 H 0.979(3) 0.784(5) 0.472(17)
H18A H 1.021(3) 0.784(5) 0.528(17)
O10 O 0.93667(17) 0.6101(6) 0.7587(9)
H19 H 0.9029(19) 0.572(9) 0.699(10)
H20 H 0.916(3) 0.639(9) 0.858(8)
O11 O 0.9431(2) 0.8621(6) 0.2550(10)
H21 H 0.9045(9) 0.859(10) 0.271(12)
H22 H 0.930(3) 0.815(10) 0.142(7)
loop_
_geom_bond_atom_site_label_1
_geom_bond_atom_site_label_2
_geom_bond_site_symmetry_1
_geom_bond_site_symmetry_2
Zn1 O1 1_555 1_555
S1 O1 1_555 1_555
O2 S1 1_555 1_555
O3 S1 1_555 1_555
O4 S1 1_555 1_555
O5 Zn1 1_555 1_555
H1 O5 1_555 1_555
H2 O5 1_555 1_555
O6 Zn1 1_555 1_555
H3 O6 1_555 1_555
H4 O6 1_555 1_555
N1 Zn1 1_555 1_555
C1 N1 1_555 1_555
H5 C1 1_555 1_555
C2 C1 1_555 1_555
H6 C2 1_555 1_555
C3 C2 1_555 1_555
C4 C3 1_555 1_555
H7 C4 1_555 1_555
C5 N1 1_555 1_555
H8 C5 1_555 1_555
C6 C3 1_555 1_555
H9 C6 1_555 1_555
N2 C7 1_555 1_555
C7 H10 1_555 1_555
C8 C7 1_555 1_555
H11 C8 1_555 1_555
C9 C8 1_555 1_555
C10 C9 1_555 1_555
H12 C10 1_555 1_555
C11 N2 1_555 1_555
H13 C11 1_555 1_555
C12 C6 1_555 1_555
H14 C12 1_555 1_555
O7 H15 1_555 1_555
H16 O7 1_555 1_555
O8 H17 1_555 1_555
O9 H18 1_555 1_555
O10 H19 1_555 1_555
H20 O10 1_555 1_555
O11 H21 1_555 1_555
H22 O11 1_555 1_555
Zn1C O1C 1_555 1_555
Zn1C_2 O2 1_555 1_555
Zn1B N2 1_555 1_555
Zn1B_2 N1B 1_555 1_555
S1C O1C 1_555 1_555
O2C Zn1 1_555 1_555
O2_2 Zn1C 1_555 1_555
O3C S1C 1_555 1_555
O4C S1C 1_555 1_555
O5C Zn1C 1_555 1_555
H1C O5C 1_555 1_555
H2C O5C 1_555 1_555
O6C Zn1C 1_555 1_555
H3C O6C 1_555 1_555
H4C O6C 1_555 1_555
N1B C1B 1_555 1_555
N1C Zn1C 1_555 1_555
C1B H5B 1_555 1_555
C2B C1B 1_555 1_555
H6B C2B 1_555 1_555
C3B C2B 1_555 1_555
C4B C3B 1_555 1_555
H7B C4B 1_555 1_555
C5B N1B 1_555 1_555
H8B C5B 1_555 1_555
C6B C3B 1_555 1_555
H9B C6B 1_555 1_555
N2B Zn1 1_555 1_555
N2A Zn1C 1_555 1_555
C7B N2B 1_555 1_555
H10B C7B 1_555 1_555
C8B C7B 1_555 1_555
H11B C8B 1_555 1_555
C9B C8B 1_555 1_555
C10B C9B 1_555 1_555
H12B C10B 1_555 1_555
C11B N2B 1_555 1_555
H13B C11B 1_555 1_555
C12B C6B 1_555 1_555
H14B C12B 1_555 1_555
H17A O8 1_555 1_555
H18A O9 1_555 1_555
C4 C5 1_555 1_555
C9 C12 1_555 1_555
C10 C11 1_555 1_555
S1C O2C 1_555 1_555
C4B C5B 1_555 1_555
C9B C12B 1_555 1_555
C10B C11B 1_555 1_555

#END
