
#######################################################################
#
#                 Cambridge Crystallographic Data Centre
#                                CCDC 
#
#######################################################################
#
# If this CIF has been generated from an entry in the Cambridge 
# Structural Database, then it will include bibliographic, chemical, 
# crystal, experimental, refinement or atomic coordinate data resulting 
# from the CCDC's data processing and validation procedures.
#
#######################################################################

data_RAWPIP
_symmetry_cell_setting           monoclinic
_symmetry_space_group_name_H-M   'C 2/c'
_symmetry_Int_Tables_number      15
_space_group_name_Hall           '-C 2yn'
loop_
_symmetry_equiv_pos_site_id
_symmetry_equiv_pos_as_xyz
1 x,y,z
2 1/2+x,1/2+y,z
3 -x,y,1/2-z
4 1/2-x,1/2+y,1/2-z
5 -x,-y,-z
6 1/2-x,1/2-y,-z
7 x,-y,1/2+z
8 1/2+x,1/2-y,1/2+z
_cell_length_a                   12.602(3)
_cell_length_b                   15.129(3)
_cell_length_c                   18.549(4)
_cell_angle_alpha                90
_cell_angle_beta                 96.599(4)
_cell_angle_gamma                90
_cell_volume                     3513.04
loop_
_atom_site_label
_atom_site_type_symbol
_atom_site_fract_x
_atom_site_fract_y
_atom_site_fract_z
Zn1 Zn 0.5000 0.53745(2) 0.7500
O1 O 0.5000 0.40855(15) 0.7500
H1 H 0.488(3) 0.379(2) 0.7133(15)
N1 N 0.43016(14) 0.59657(13) 0.83126(10)
C1 C 0.3977(2) 0.68017(17) 0.82670(13)
H2 H 0.4085 0.7126 0.7856
C2 C 0.3483(2) 0.72074(17) 0.88085(15)
H3 H 0.3275 0.7796 0.8758
C3 C 0.32984(18) 0.67430(17) 0.94232(13)
C4 C 0.3653(2) 0.58783(19) 0.94679(14)
H4 H 0.3562 0.5541 0.9875
C5 C 0.4138(2) 0.55186(16) 0.89130(14)
H5 H 0.4365 0.4934 0.8955
C6 C 0.2726(2) 0.71105(16) 1.00040(14)
H6 H 0.2682 0.6759 1.0411
N2 N 0.34172(16) 0.53391(12) 0.68019(11)
C7 C 0.31780(19) 0.57109(16) 0.61480(13)
H7 H 0.3661 0.6111 0.5990
C8 C 0.2252(2) 0.55323(16) 0.56942(13)
H8 H 0.2134 0.5800 0.5241
C9 C 0.15031(18) 0.49571(16) 0.59160(13)
C10 C 0.1709(2) 0.46210(16) 0.66175(14)
H9 H 0.1207 0.4267 0.6808
C11 C 0.2664(2) 0.48170(18) 0.70262(14)
H10 H 0.2792 0.4571 0.7487
C12 C 0.05001(19) 0.46772(15) 0.54572(13)
H11 H 0.0283 0.4092 0.5613
C13 C -0.04943(19) 0.53158(15) 0.53836(13)
H12 H -0.1124 0.4999 0.5513
C14 C -0.03889(18) 0.61899(16) 0.57779(13)
C15 C 0.0179(2) 0.68974(18) 0.55497(15)
H13 H 0.0543 0.6847 0.5143
C16 C 0.0201(2) 0.76859(19) 0.59373(17)
H14 H 0.0598 0.8153 0.5783
N3 N -0.0309(2) 0.78084(16) 0.65106(14)
C17 C -0.0830(3) 0.7116(2) 0.67429(17)
H15 H -0.1179 0.7185 0.7155
C18 C -0.0881(2) 0.62955(19) 0.64017(14)
H16 H -0.1238 0.5826 0.6590
Zn1G Zn 0.0000 0.96255(2) 1.2500
Zn1F Zn -0.5000 0.46255(2) 0.2500
H1B H 0.512(3) 0.379(2) 0.7867(15)
N1E N 0.06984(14) 0.90343(13) 1.16874(10)
N1B N 0.56984(14) 0.59657(13) 0.66874(10)
C1E C 0.1023(2) 0.81983(17) 1.17330(13)
H2E H 0.0915 0.7874 1.2144
C2E C 0.1517(2) 0.77926(17) 1.11915(15)
H3E H 0.1725 0.7204 1.1242
C3E C 0.17016(18) 0.82570(17) 1.05768(13)
C4E C 0.1347(2) 0.91217(19) 1.05321(14)
H4E H 0.1438 0.9459 1.0125
C5E C 0.0862(2) 0.94814(16) 1.10870(14)
H5E H 0.0635 1.0066 1.1045
C6E C 0.2274(2) 0.78895(16) 0.99960(14)
H6E H 0.2318 0.8241 0.9589
N2D N -0.34172(16) 0.46609(12) 0.31981(11)
N2B N 0.65828(16) 0.53391(12) 0.81981(11)
C7D C -0.31780(19) 0.42891(16) 0.38520(13)
H7D H -0.3661 0.3889 0.4010
C8D C -0.2252(2) 0.44677(16) 0.43058(13)
H8D H -0.2134 0.4200 0.4759
C9D C -0.15031(18) 0.50429(16) 0.40840(13)
C10D C -0.1709(2) 0.53790(16) 0.33825(14)
H9D H -0.1207 0.5733 0.3192
C11D C -0.2664(2) 0.51830(18) 0.29738(14)
H10D H -0.2792 0.5429 0.2513
C12D C -0.05001(19) 0.53228(15) 0.45428(13)
H11D H -0.0283 0.5908 0.4387
C13D C 0.04943(19) 0.46842(15) 0.46164(13)
H12D H 0.1124 0.5001 0.4487
C14D C 0.03889(18) 0.38101(16) 0.42221(13)
C15D C -0.0179(2) 0.31026(18) 0.44503(15)
H13D H -0.0543 0.3153 0.4857
C16D C -0.0201(2) 0.23141(19) 0.40627(17)
H14D H -0.0598 0.1847 0.4217
N3D N 0.0309(2) 0.21916(16) 0.34894(14)
C17D C 0.0830(3) 0.2884(2) 0.32571(17)
H15D H 0.1179 0.2815 0.2845
C18D C 0.0881(2) 0.37045(19) 0.35983(14)
H16D H 0.1238 0.4174 0.3410
Cl1 Cl 0.68191(6) 0.83145(5) 0.85546(4)
O2 O 0.7375(2) 0.7833(2) 0.80687(15)
O3 O 0.7533(5) 0.9058(4) 0.8781(4)
O4 O 0.5853(6) 0.8611(6) 0.8131(4)
O5 O 0.6566(7) 0.7845(4) 0.9180(4)
O6? O 0.6113(9) 0.7825(7) 0.8924(7)
O7? O 0.6070(8) 0.9047(7) 0.8217(5)
O8? O 0.7497(8) 0.8825(7) 0.9032(6)
O9? O 0.7146(8) 0.7837(5) 0.9267(5)
O10? O 0.5767(9) 0.8173(9) 0.8351(8)
O11? O 0.7127(9) 0.9191(6) 0.8668(5)
loop_
_geom_bond_atom_site_label_1
_geom_bond_atom_site_label_2
_geom_bond_site_symmetry_1
_geom_bond_site_symmetry_2
Zn1 O1 1_555 1_555
O1 H1 1_555 1_555
N1 Zn1 1_555 1_555
C1 N1 1_555 1_555
H2 C1 1_555 1_555
C2 C1 1_555 1_555
H3 C2 1_555 1_555
C3 C2 1_555 1_555
C4 C3 1_555 1_555
H4 C4 1_555 1_555
C5 N1 1_555 1_555
H5 C5 1_555 1_555
C6 C3 1_555 1_555
H6 C6 1_555 1_555
N2 Zn1 1_555 1_555
C7 N2 1_555 1_555
H7 C7 1_555 1_555
C8 C7 1_555 1_555
H8 C8 1_555 1_555
C9 C8 1_555 1_555
C10 C9 1_555 1_555
H9 C10 1_555 1_555
C11 N2 1_555 1_555
H10 C11 1_555 1_555
C12 C9 1_555 1_555
H11 C12 1_555 1_555
C13 C12 1_555 1_555
H12 C13 1_555 1_555
C14 C13 1_555 1_555
C15 C14 1_555 1_555
H13 C15 1_555 1_555
C16 C15 1_555 1_555
H14 C16 1_555 1_555
N3 C16 1_555 1_555
C17 N3 1_555 1_555
H15 C17 1_555 1_555
C18 C14 1_555 1_555
H16 C18 1_555 1_555
Cl1 O2 1_555 1_555
O3 Cl1 1_555 1_555
O4 Cl1 1_555 1_555
O5 Cl1 1_555 1_555
Zn1G N1E 1_555 1_555
Zn1F N2D 1_555 1_555
H1B O1 1_555 1_555
N1E C1E 1_555 1_555
N1B Zn1 1_555 1_555
C1E H2E 1_555 1_555
C2E C1E 1_555 1_555
H3E C2E 1_555 1_555
C3E C2E 1_555 1_555
C4E C3E 1_555 1_555
H4E C4E 1_555 1_555
C5E N1E 1_555 1_555
H5E C5E 1_555 1_555
C6E C6 1_555 1_555
H6E C6E 1_555 1_555
N2D C7D 1_555 1_555
N2B Zn1 1_555 1_555
C7D H7D 1_555 1_555
C8D C7D 1_555 1_555
H8D C8D 1_555 1_555
C9D C8D 1_555 1_555
C10D C9D 1_555 1_555
H9D C10D 1_555 1_555
C11D N2D 1_555 1_555
H10D C11D 1_555 1_555
C12D C13 1_555 1_555
H11D C12D 1_555 1_555
C13D C12 1_555 1_555
H12D C13D 1_555 1_555
C14D C13D 1_555 1_555
C15D C14D 1_555 1_555
H13D C15D 1_555 1_555
C16D C15D 1_555 1_555
H14D C16D 1_555 1_555
N3D C16D 1_555 1_555
C17D N3D 1_555 1_555
H15D C17D 1_555 1_555
C18D C14D 1_555 1_555
H16D C18D 1_555 1_555
C4 C5 1_555 1_555
C10 C11 1_555 1_555
C17 C18 1_555 1_555
C3E C6E 1_555 1_555
C4E C5E 1_555 1_555
C9D C12D 1_555 1_555
C10D C11D 1_555 1_555
C12D C13D 1_555 1_555
C17D C18D 1_555 1_555

#END
