
#######################################################################
#
#                 Cambridge Crystallographic Data Centre
#                                CCDC 
#
#######################################################################
#
# If this CIF has been generated from an entry in the Cambridge 
# Structural Database, then it will include bibliographic, chemical, 
# crystal, experimental, refinement or atomic coordinate data resulting 
# from the CCDC's data processing and validation procedures.
#
#######################################################################

data_RAWROX
_symmetry_cell_setting           triclinic
_symmetry_space_group_name_H-M   'P -1'
_symmetry_Int_Tables_number      2
_space_group_name_Hall           '-P 1'
loop_
_symmetry_equiv_pos_site_id
_symmetry_equiv_pos_as_xyz
1 x,y,z
2 -x,-y,-z
_cell_length_a                   6.297(2)
_cell_length_b                   6.762(2)
_cell_length_c                   13.450(4)
_cell_angle_alpha                82.984(5)
_cell_angle_beta                 83.164(5)
_cell_angle_gamma                63.260(4)
_cell_volume                     506.301
loop_
_atom_site_label
_atom_site_type_symbol
_atom_site_fract_x
_atom_site_fract_y
_atom_site_fract_z
La1 La 0.75279(7) 0.34658(6) 0.28769(3)
O1 O 0.7815(9) 0.0076(8) 0.2166(3)
O2 O 0.6464(9) -0.2501(8) 0.2473(3)
O3 O 0.4186(8) 0.4618(8) 0.1711(3)
O4 O 0.1476(9) 0.3668(8) 0.2552(3)
O5 O 0.8367(8) 0.4230(7) 0.4548(3)
O6 O 0.6378(8) 0.4472(7) 0.6053(3)
N1 N 0.7010(10) 0.0244(9) 0.0146(4)
N2 N -0.0751(9) 0.4218(8) 0.0913(4)
N3 N 0.4056(9) 0.8920(8) 0.5730(4)
C1 C 0.6807(12) -0.0998(10) 0.1935(4)
C2 C 0.5842(11) -0.0438(10) 0.0908(5)
C3 C 0.3840(12) -0.0667(10) 0.0758(5)
H1 H 0.3063 -0.1127 0.1301
C4 C 0.2333(11) 0.4340(10) 0.1782(4)
C5 C 0.1084(11) 0.4732(10) 0.0831(4)
C6 C 0.1818(11) 0.5510(10) -0.0074(4)
H2 H 0.3097 0.5856 -0.0100
C7 C 0.7014(10) 0.5290(10) 0.5248(4)
C8 C 0.5986(11) 0.7787(10) 0.5133(4)
C9 C 0.6935(11) 0.8868(10) 0.4403(4)
H3 H 0.8282 0.8036 0.4000
O7 O 1.1238(9) 0.0015(8) 0.3476(4)
H4 H 1.2308 0.0444 0.3271
H5 H 1.1791 -0.1386 0.3592
La1A La 0.24721(7) -0.34658(6) -0.28769(3)
La1_2 La 0.75279(7) -0.65342(6) 0.28769(3)
La1_3 La -0.24721(7) 0.34658(6) 0.28769(3)
La1A_2 La 0.24721(7) 0.65342(6) 0.71231(3)
La1A_3 La 0.24721(7) 0.65342(6) -0.28769(3)
La1A_4 La -0.75279(7) 0.65342(6) -0.28769(3)
La1_4 La 0.75279(7) 1.34658(6) 0.28769(3)
La1A_5 La 0.24721(7) 1.65342(6) 0.71231(3)
O1A O 0.2185(9) -0.0076(8) -0.2166(3)
O2A O 0.3536(9) 0.2501(8) -0.2473(3)
O2_2 O 0.6464(9) 0.7499(8) 0.2473(3)
O2A_2 O 0.3536(9) -0.7499(8) -0.2473(3)
O3A O -0.4186(8) 0.5382(8) -0.1711(3)
O3A_2 O 0.5814(8) -0.4618(8) -0.1711(3)
O4A O -0.1476(9) 0.6332(8) -0.2552(3)
O4_2 O 1.1476(9) 0.3668(8) 0.2552(3)
O4A_2 O -0.1476(9) -0.3668(8) -0.2552(3)
O5A O 0.1633(8) 1.5770(7) 0.5452(3)
O5A_2 O 0.1633(8) -0.4230(7) -0.4548(3)
O6A O 0.3622(8) 1.5528(7) 0.3947(3)
O6A_2 O 0.3622(8) 0.5528(7) 0.3947(3)
O6_2 O 0.6378(8) -0.5528(7) -0.3947(3)
N1A N 0.2990(10) -0.0244(9) -0.0146(4)
N2A N 0.0751(9) 0.5782(8) -0.0913(4)
N2_2 N 0.9249(9) 0.4218(8) 0.0913(4)
N2A_2 N 0.0751(9) -0.4218(8) -0.0913(4)
N3A N 0.5944(9) 1.1080(8) 0.4270(4)
N3A_2 N 0.5944(9) 0.1080(8) 0.4270(4)
N3_2 N 0.4056(9) -0.1080(8) -0.4270(4)
C1A C 0.3193(12) 0.0998(10) -0.1935(4)
C2A C 0.4158(11) 0.0438(10) -0.0908(5)
C3A C 0.6160(12) 0.0667(10) -0.0758(5)
H1A H 0.6937 0.1127 -0.1301
C4A C -0.2333(11) 0.5660(10) -0.1782(4)
C5A C -0.1084(11) 0.5268(10) -0.0831(4)
C6A C -0.1818(11) 0.4490(10) 0.0074(4)
H2A H -0.3097 0.4144 0.0100
C7A C 0.2986(10) 1.4710(10) 0.4752(4)
C8A C 0.4014(11) 1.2213(10) 0.4867(4)
C9A C 0.3065(11) 1.1132(10) 0.5597(4)
H3A H 0.1718 1.1964 0.6000
O7A O -0.1238(9) -0.0015(8) -0.3476(4)
H4A H -0.2308 -0.0444 -0.3271
H5A H -0.1791 0.1386 -0.3592
loop_
_geom_bond_atom_site_label_1
_geom_bond_atom_site_label_2
_geom_bond_site_symmetry_1
_geom_bond_site_symmetry_2
La1 O1 1_555 1_555
O1 C1 1_555 1_555
O2 C1 1_555 1_555
O3 La1 1_555 1_555
O4 C4 1_555 1_555
O5 La1 1_555 1_555
O6 C7 1_555 1_555
N1 C2 1_555 1_555
N2 C5 1_555 1_555
N3 C8 1_555 1_555
C1 C2 1_555 1_555
C2 C3 1_555 1_555
C3 H1 1_555 1_555
C4 O3 1_555 1_555
C5 C4 1_555 1_555
C6 C5 1_555 1_555
H2 C6 1_555 1_555
C7 O5 1_555 1_555
C8 C7 1_555 1_555
C9 C8 1_555 1_555
H3 C9 1_555 1_555
O7 La1 1_555 1_555
H4 O7 1_555 1_555
H5 O7 1_555 1_555
La1A O1A 1_555 1_555
La1_2 O2 1_555 1_555
La1_3 O4 1_555 1_555
La1A_2 O6 1_555 1_555
La1A_3 O2A 1_555 1_555
La1A_4 O3A 1_555 1_555
La1_4 O6A 1_555 1_555
La1A_5 O5A 1_555 1_555
O1A C1A 1_555 1_555
O2A C1A 1_555 1_555
O2_2 La1 1_555 1_555
O2A_2 La1A 1_555 1_555
O3A C4A 1_555 1_555
O3A_2 La1A 1_555 1_555
O4A La1A_3 1_555 1_555
O4_2 La1 1_555 1_555
O4A_2 La1A 1_555 1_555
O5A C7A 1_555 1_555
O5A_2 La1A 1_555 1_555
O6A C7A 1_555 1_555
O6A_2 La1 1_555 1_555
O6_2 La1A 1_555 1_555
N1A C3 1_555 1_555
N2A C6 1_555 1_555
N2_2 La1 1_555 1_555
N2A_2 La1A 1_555 1_555
N3A C9 1_555 1_555
N3A_2 La1 1_555 1_555
N3_2 La1A 1_555 1_555
C1A C2A 1_555 1_555
C2A N1A 1_555 1_555
C3A N1 1_555 1_555
H1A C3A 1_555 1_555
C4A O4A 1_555 1_555
C5A N2A 1_555 1_555
C6A N2 1_555 1_555
H2A C6A 1_555 1_555
C7A C8A 1_555 1_555
C8A N3A 1_555 1_555
C9A N3 1_555 1_555
H3A C9A 1_555 1_555
O7A La1A 1_555 1_555
H4A O7A 1_555 1_555
H5A O7A 1_555 1_555
N2 La1_3 1_555 1_555
N3 La1A_2 1_555 1_555
La1A_3 N2A 1_555 1_555
La1_4 N3A 1_555 1_555
C2A C3A 1_555 1_555
C4A C5A 1_555 1_555
C5A C6A 1_555 1_555
C8A C9A 1_555 1_555

#END
