
#######################################################################
#
#                 Cambridge Crystallographic Data Centre
#                                CCDC 
#
#######################################################################
#
# If this CIF has been generated from an entry in the Cambridge 
# Structural Database, then it will include bibliographic, chemical, 
# crystal, experimental, refinement or atomic coordinate data resulting 
# from the CCDC's data processing and validation procedures.
#
#######################################################################

data_RAWRUE
_symmetry_cell_setting           triclinic
_symmetry_space_group_name_H-M   'P -1'
_symmetry_Int_Tables_number      2
_space_group_name_Hall           '-P 1'
loop_
_symmetry_equiv_pos_site_id
_symmetry_equiv_pos_as_xyz
1 x,y,z
2 -x,-y,-z
_cell_length_a                   6.1756(3)
_cell_length_b                   7.3500(3)
_cell_length_c                   12.1415(6)
_cell_angle_alpha                100.386(4)
_cell_angle_beta                 104.707(4)
_cell_angle_gamma                97.069(4)
_cell_volume                     515.999
loop_
_atom_site_label
_atom_site_type_symbol
_atom_site_fract_x
_atom_site_fract_y
_atom_site_fract_z
Na1 Na 0.5000 0.5000 0.5000
Na2 Na 0.5000 0.0000 0.5000
N1 N 0.7773(2) 0.15963(19) 0.12011(12)
O1 O 0.9629(2) 0.0818(2) 0.15701(12)
C1 C 0.6472(3) 0.2105(2) 0.19201(15)
C2 C 0.7150(3) 0.1840(2) 0.31607(15)
O2 O 0.8881(3) 0.1049(2) 0.34327(12)
H1 H 0.957(6) 0.080(5) 0.254(3)
O3 O 0.6001(3) 0.2343(2) 0.38054(12)
C3 C 0.4543(3) 0.2803(2) 0.14763(17)
H2 H 0.373(4) 0.317(3) 0.200(2)
C4 C 0.3951(3) 0.2978(3) 0.03311(18)
H3 H 0.274(5) 0.346(4) 0.004(2)
C5 C 0.5339(3) 0.2476(3) -0.03592(17)
H4 H 0.505(4) 0.262(3) -0.114(2)
C6 C 0.7260(3) 0.1793(3) 0.00905(16)
H5 H 0.822(4) 0.140(3) -0.0319(19)
Cl1 Cl 0.90425(7) 0.35162(6) 0.73435(4)
O4 O 0.8996(3) 0.4257(3) 0.85072(14)
O5 O 0.7624(3) 0.1711(2) 0.69112(18)
O6 O 0.8297(3) 0.4781(2) 0.66216(15)
O7 O 1.1351(3) 0.3350(3) 0.73939(15)
O8 O 0.2782(3) 0.2372(2) 0.53253(15)
H6 H 0.250(5) 0.258(4) 0.590(3)
H7 H 0.168(5) 0.203(4) 0.485(3)
Na2_2 Na 0.5000 1.0000 0.5000
N1A N 0.2227(2) 0.84037(19) 0.87989(12)
O1A O 0.0371(2) 0.9182(2) 0.84299(12)
C1A C 0.3528(3) 0.7895(2) 0.80799(15)
C2A C 0.2850(3) 0.8160(2) 0.68393(15)
O2A O 0.1119(3) 0.8951(2) 0.65673(12)
H1A H 0.043(6) 0.920(5) 0.746(3)
O3A O 0.3999(3) 0.7657(2) 0.61946(12)
O3A_2 O 0.3999(3) -0.2343(2) 0.61946(12)
C3A C 0.5457(3) 0.7197(2) 0.85237(17)
H2A H 0.627(4) 0.683(3) 0.800(2)
C4A C 0.6049(3) 0.7022(3) 0.96689(18)
H3A H 0.726(5) 0.654(4) 0.996(2)
C5A C 0.4661(3) 0.7524(3) 1.03592(17)
H4A H 0.495(4) 0.738(3) 1.114(2)
C6A C 0.2740(3) 0.8207(3) 0.99095(16)
H5A H 0.178(4) 0.860(3) 1.0319(19)
Cl1A Cl 0.09575(7) 0.64838(6) 0.26565(4)
O4A O 0.1004(3) 0.5743(3) 0.14928(14)
O5A O 0.2376(3) 0.8289(2) 0.30888(18)
O5A_2 O 0.2376(3) -0.1711(2) 0.30888(18)
O6A O 0.1703(3) 0.5219(2) 0.33784(15)
O7A O -0.1351(3) 0.6650(3) 0.26061(15)
O8A O 0.7218(3) 0.7628(2) 0.46747(15)
O8A_2 O 0.7218(3) -0.2372(2) 0.46747(15)
H6A H 0.750(5) 0.742(4) 0.410(3)
H6A_2 H 0.750(5) -0.258(4) 0.410(3)
H7A H 0.832(5) 0.797(4) 0.515(3)
H7A_2 H 0.832(5) -0.203(4) 0.515(3)
loop_
_geom_bond_atom_site_label_1
_geom_bond_atom_site_label_2
_geom_bond_site_symmetry_1
_geom_bond_site_symmetry_2
Na1 O3 1_555 1_555
Na2 O3 1_555 1_555
N1 O1 1_555 1_555
O1 H1 1_555 1_555
C1 N1 1_555 1_555
C2 C1 1_555 1_555
O2 C2 1_555 1_555
O3 C2 1_555 1_555
C3 C1 1_555 1_555
H2 C3 1_555 1_555
C4 C3 1_555 1_555
H3 C4 1_555 1_555
C5 C4 1_555 1_555
H4 C5 1_555 1_555
C6 N1 1_555 1_555
H5 C6 1_555 1_555
Cl1 O4 1_555 1_555
O5 Na2 1_555 1_555
O6 Na1 1_555 1_555
O7 Cl1 1_555 1_555
O8 Na1 1_555 1_555
H6 O8 1_555 1_555
H7 O8 1_555 1_555
Na2_2 O3A 1_555 1_555
N1A O1A 1_555 1_555
O1A H1A 1_555 1_555
C1A N1A 1_555 1_555
C2A C1A 1_555 1_555
O2A C2A 1_555 1_555
O3A Na1 1_555 1_555
O3A_2 Na2 1_555 1_555
C3A C1A 1_555 1_555
H2A C3A 1_555 1_555
C4A C3A 1_555 1_555
H3A C4A 1_555 1_555
C5A C4A 1_555 1_555
H4A C5A 1_555 1_555
C6A N1A 1_555 1_555
H5A C6A 1_555 1_555
Cl1A O4A 1_555 1_555
O5A Na2_2 1_555 1_555
O5A_2 Na2 1_555 1_555
O6A Na1 1_555 1_555
O7A Cl1A 1_555 1_555
O8A Na1 1_555 1_555
O8A_2 Na2 1_555 1_555
H6A O8A 1_555 1_555
H6A_2 O8A_2 1_555 1_555
H7A O8A 1_555 1_555
H7A_2 O8A_2 1_555 1_555
Na2 O8 1_555 1_555
C5 C6 1_555 1_555
Cl1 O5 1_555 1_555
Cl1 O6 1_555 1_555
Na2_2 O8A 1_555 1_555
C2A O3A 1_555 1_555
C5A C6A 1_555 1_555
Cl1A O5A 1_555 1_555
Cl1A O6A 1_555 1_555

#END
