
#######################################################################
#
#                 Cambridge Crystallographic Data Centre
#                                CCDC 
#
#######################################################################
#
# If this CIF has been generated from an entry in the Cambridge 
# Structural Database, then it will include bibliographic, chemical, 
# crystal, experimental, refinement or atomic coordinate data resulting 
# from the CCDC's data processing and validation procedures.
#
#######################################################################

data_RAWRAK
_symmetry_cell_setting           monoclinic
_symmetry_space_group_name_H-M   'P 21/n'
_symmetry_Int_Tables_number      14
_space_group_name_Hall           '-P 2yn'
loop_
_symmetry_equiv_pos_site_id
_symmetry_equiv_pos_as_xyz
1 x,y,z
2 1/2-x,1/2+y,1/2-z
3 -x,-y,-z
4 1/2+x,1/2-y,1/2+z
_cell_length_a                   10.8218(13)
_cell_length_b                   10.0542(12)
_cell_length_c                   12.5320(16)
_cell_angle_alpha                90
_cell_angle_beta                 106.810(2)
_cell_angle_gamma                90
_cell_volume                     1305.27
loop_
_atom_site_label
_atom_site_type_symbol
_atom_site_fract_x
_atom_site_fract_y
_atom_site_fract_z
Cu1 Cu 0.81465(3) 0.63567(3) 0.11700(3)
N1 N 0.91061(19) 0.73815(18) 0.03319(18)
N2 N 0.6698(2) 0.7650(2) 0.0540(2)
N3 N 0.6941(2) 0.5025(2) 0.1491(2)
O1 O 0.95299(16) 0.51873(16) 0.17621(16)
S1 S 0.59378(7) 0.25307(7) 0.17189(7)
C1 C 1.1102(2) 0.6160(2) 0.0950(2)
C2 C 1.0707(2) 0.5278(2) 0.1676(2)
C3 C 1.1629(3) 0.4392(3) 0.2334(2)
H1 H 1.1381 0.3816 0.2815
C4 C 1.2875(3) 0.4352(3) 0.2287(2)
H2 H 1.3456 0.3748 0.2725
C5 C 1.3266(3) 0.5211(3) 0.1588(3)
H3 H 1.4115 0.5195 0.1559
C6 C 1.2406(3) 0.6077(3) 0.0943(3)
H4 H 1.2687 0.6644 0.0475
C7 C 1.0240(2) 0.7129(2) 0.0226(2)
C8 C 0.8276(3) 0.8412(2) -0.0356(2)
H5 H 0.7840 0.8059 -0.1088
H6 H 0.8794 0.9168 -0.0445
C9 C 0.7296(3) 0.8837(3) 0.0228(3)
H7 H 0.7717 0.9349 0.0889
H8 H 0.6641 0.9392 -0.0264
C10 C 0.5811(3) 0.7974(3) 0.1203(3)
H9 H 0.6274 0.8443 0.1865
H10 H 0.5461 0.7167 0.1406
H11 H 0.5122 0.8522 0.0770
C11 C 1.0723(3) 0.7833(3) -0.0635(3)
H12 H 1.0022 0.8301 -0.1142
H13 H 1.1069 0.7193 -0.1040
H14 H 1.1385 0.8454 -0.0273
C12 C 0.6519(2) 0.4004(3) 0.1580(2)
H15 H 0.622(3) 0.725(3) -0.0083(17)
Cu1A Cu 0.68535(3) 0.13567(3) 0.38300(3)
S1A S 0.90622(7) 0.75307(7) 0.32811(7)
loop_
_geom_bond_atom_site_label_1
_geom_bond_atom_site_label_2
_geom_bond_site_symmetry_1
_geom_bond_site_symmetry_2
Cu1 N1 1_555 1_555
N1 C7 1_555 1_555
N2 Cu1 1_555 1_555
N3 Cu1 1_555 1_555
O1 Cu1 1_555 1_555
S1 C12 1_555 1_555
C1 C2 1_555 1_555
C2 O1 1_555 1_555
C3 C2 1_555 1_555
H1 C3 1_555 1_555
C4 C3 1_555 1_555
H2 C4 1_555 1_555
C5 C4 1_555 1_555
H3 C5 1_555 1_555
C6 C1 1_555 1_555
H4 C6 1_555 1_555
C7 C1 1_555 1_555
C8 N1 1_555 1_555
H5 C8 1_555 1_555
H6 C8 1_555 1_555
C9 N2 1_555 1_555
H7 C9 1_555 1_555
H8 C9 1_555 1_555
C10 N2 1_555 1_555
H9 C10 1_555 1_555
H10 C10 1_555 1_555
H11 C10 1_555 1_555
C11 C7 1_555 1_555
H12 C11 1_555 1_555
H13 C11 1_555 1_555
H14 C11 1_555 1_555
C12 N3 1_555 1_555
H15 N2 1_555 1_555
Cu1A S1 1_555 1_555
S1A Cu1 1_555 1_555
C5 C6 1_555 1_555
C8 C9 1_555 1_555

#END
