
#######################################################################
#
#                 Cambridge Crystallographic Data Centre
#                                CCDC 
#
#######################################################################
#
# If this CIF has been generated from an entry in the Cambridge 
# Structural Database, then it will include bibliographic, chemical, 
# crystal, experimental, refinement or atomic coordinate data resulting 
# from the CCDC's data processing and validation procedures.
#
#######################################################################

data_RAWRUD
_symmetry_cell_setting           monoclinic
_symmetry_space_group_name_H-M   'C 2/c'
_symmetry_Int_Tables_number      15
_space_group_name_Hall           '-C 2yn'
loop_
_symmetry_equiv_pos_site_id
_symmetry_equiv_pos_as_xyz
1 x,y,z
2 1/2+x,1/2+y,z
3 -x,y,1/2-z
4 1/2-x,1/2+y,1/2-z
5 -x,-y,-z
6 1/2-x,1/2-y,-z
7 x,-y,1/2+z
8 1/2+x,1/2-y,1/2+z
_cell_length_a                   11.658(2)
_cell_length_b                   6.7780(14)
_cell_length_c                   16.390(3)
_cell_angle_alpha                90
_cell_angle_beta                 98.90(3)
_cell_angle_gamma                90
_cell_volume                     1279.51
loop_
_atom_site_label
_atom_site_type_symbol
_atom_site_fract_x
_atom_site_fract_y
_atom_site_fract_z
Cu1 Cu 0.5000 0.76228(4) 0.2500
Cl1 Cl 0.31717(6) 0.76733(9) 0.28339(5)
N1 N 0.5000 1.0582(3) 0.2500
N2 N 0.5000 1.4631(3) 0.2500
C1 C 0.45762(18) 1.1586(3) 0.18216(13)
C2 C 0.45870(17) 1.3631(3) 0.18180(12)
O1 O 0.41831(18) 1.6620(2) 0.10963(11)
O2 O 0.3747(2) 1.3764(3) 0.04372(12)
C3 C 0.4145(2) 1.4836(3) 0.10719(14)
H2 H 0.430(3) 1.086(5) 0.133(2)
H3 H 0.351(4) 1.465(8) -0.004(3)
Cu1_2 Cu 0.5000 1.76228(4) 0.2500
Cl1B Cl 0.68283(6) 0.76733(9) 0.21661(5)
N2_2 N 0.5000 0.4631(3) 0.2500
C1B C 0.54238(18) 1.1586(3) 0.31784(13)
C2B C 0.54130(17) 1.3631(3) 0.31820(12)
O1B O 0.58169(18) 1.6620(2) 0.39037(11)
O1_2 O 0.41831(18) 0.6620(2) 0.10963(11)
O1B_2 O 0.58169(18) 0.6620(2) 0.39037(11)
O2B O 0.6253(2) 1.3764(3) 0.45628(12)
C3B C 0.5855(2) 1.4836(3) 0.39281(14)
H2B H 0.570(3) 1.086(5) 0.367(2)
H3B H 0.649(4) 1.465(8) 0.504(3)
O3 O 0.8830(8) 0.5393(10) 0.4491(6)
H1 H 0.9471(18) 0.522(4) 0.4790(14)
H6 H 0.859(2) 0.596(4) 0.4282(17)
O4 O 0.3028(4) 0.5725(7) 0.9161(2)
H4 H 0.323(6) 0.645(9) 0.919(4)
H5 H 0.304(4) 0.535(8) 0.877(4)
loop_
_geom_bond_atom_site_label_1
_geom_bond_atom_site_label_2
_geom_bond_site_symmetry_1
_geom_bond_site_symmetry_2
Cu1 Cl1 1_555 1_555
N1 Cu1 1_555 1_555
N2 C2 1_555 1_555
C1 N1 1_555 1_555
C2 C1 1_555 1_555
O1 C3 1_555 1_555
O2 C3 1_555 1_555
C3 C2 1_555 1_555
O3 H1 1_555 1_555
O4 H4 1_555 1_555
H2 C1 1_555 1_555
H3 O2 1_555 1_555
H5 O4 1_555 1_555
H6 O3 1_555 1_555
Cu1_2 N2 1_555 1_555
Cl1B Cu1 1_555 1_555
N2_2 Cu1 1_555 1_555
C1B N1 1_555 1_555
C2B N2 1_555 1_555
O1B Cu1_2 1_555 1_555
O1_2 Cu1 1_555 1_555
O1B_2 Cu1 1_555 1_555
O2B C3B 1_555 1_555
C3B C2B 1_555 1_555
H2B C1B 1_555 1_555
H3B O2B 1_555 1_555
O1 Cu1_2 1_555 1_555
C1B C2B 1_555 1_555
O1B C3B 1_555 1_555

#END
