
#######################################################################
#
#                 Cambridge Crystallographic Data Centre
#                                CCDC 
#
#######################################################################
#
# If this CIF has been generated from an entry in the Cambridge 
# Structural Database, then it will include bibliographic, chemical, 
# crystal, experimental, refinement or atomic coordinate data resulting 
# from the CCDC's data processing and validation procedures.
#
#######################################################################

data_RAWTOZ
_symmetry_cell_setting           triclinic
_symmetry_space_group_name_H-M   'P -1'
_symmetry_Int_Tables_number      2
_space_group_name_Hall           '-P 1'
loop_
_symmetry_equiv_pos_site_id
_symmetry_equiv_pos_as_xyz
1 x,y,z
2 -x,-y,-z
_cell_length_a                   10.0360(10)
_cell_length_b                   7.994(2)
_cell_length_c                   5.4650(10)
_cell_angle_alpha                103.15(2)
_cell_angle_beta                 93.54(2)
_cell_angle_gamma                89.810(10)
_cell_volume                     426.107
loop_
_atom_site_label
_atom_site_type_symbol
_atom_site_fract_x
_atom_site_fract_y
_atom_site_fract_z
Ag1 Ag 1.00000 0.00000 0.00000
Ag2 Ag 1.00000 0.50000 0.00000
N1 N 0.8101(6) 0.1267(7) 0.0218(12)
C1 C 0.7716(7) 0.2414(9) -0.1116(13)
N2 N 0.8703(7) 0.2957(9) -0.2474(13)
C2 C 0.6441(9) 0.3084(11) -0.1071(18)
C3 C 0.5557(9) 0.2625(11) 0.0423(19)
C4 C 0.5945(9) 0.1493(11) 0.1913(19)
C5 C 0.7203(9) 0.0831(10) 0.1726(18)
H1 H 0.944(15) 0.219(17) -0.41(3)
H2 H 0.816(7) 0.349(8) -0.394(13)
H3 H 0.621(9) 0.376(11) -0.195(18)
H4 H 0.450(10) 0.309(12) 0.033(19)
H5 H 0.534(10) 0.109(12) 0.333(19)
H6 H 0.756(8) 0.007(10) 0.337(15)
Ag2_2 Ag 1.00000 -0.50000 0.00000
N1A N 1.1899(6) -0.1267(7) -0.0218(12)
C1A C 1.2284(7) -0.2414(9) 0.1116(13)
N2A N 1.1297(7) -0.2957(9) 0.2474(13)
N2A_2 N 1.1297(7) 0.7043(9) 0.2474(13)
C2A C 1.3559(9) -0.3084(11) 0.1071(18)
C3A C 1.4443(9) -0.2625(11) -0.0423(19)
C4A C 1.4055(9) -0.1493(11) -0.1913(19)
C5A C 1.2797(9) -0.0831(10) -0.1726(18)
H1A H 1.056(15) -0.219(17) 0.41(3)
H1A_2 H 1.056(15) 0.781(17) 0.41(3)
H2A H 1.184(7) -0.349(8) 0.394(13)
H2A_2 H 1.184(7) 0.651(8) 0.394(13)
H3A H 1.379(9) -0.376(11) 0.195(18)
H4A H 1.550(10) -0.309(12) -0.033(19)
H5A H 1.466(10) -0.109(12) -0.333(19)
H6A H 1.244(8) -0.007(10) -0.337(15)
Cl1 Cl 0.7960(2) 0.7036(3) 0.5385(4)
O1 O 0.8368(7) 0.5393(8) 0.3950(12)
O2 O 0.8888(6) 0.8326(8) 0.5013(12)
O3 O 0.8008(7) 0.6997(8) 0.7962(12)
O4 O 0.6672(7) 0.7437(11) 0.4567(17)
loop_
_geom_bond_atom_site_label_1
_geom_bond_atom_site_label_2
_geom_bond_site_symmetry_1
_geom_bond_site_symmetry_2
Ag1 N1 1_555 1_555
Ag2 N2 1_555 1_555
Cl1 O1 1_555 1_555
O2 Cl1 1_555 1_555
O3 Cl1 1_555 1_555
O4 Cl1 1_555 1_555
N1 C1 1_555 1_555
C1 N2 1_555 1_555
N2 H1 1_555 1_555
C2 C1 1_555 1_555
C3 C2 1_555 1_555
C4 C3 1_555 1_555
C5 N1 1_555 1_555
H2 N2 1_555 1_555
H3 C2 1_555 1_555
H4 C3 1_555 1_555
H5 C4 1_555 1_555
H6 C5 1_555 1_555
Ag2_2 N2A 1_555 1_555
N1A Ag1 1_555 1_555
C1A N1A 1_555 1_555
N2A C1A 1_555 1_555
N2A_2 Ag2 1_555 1_555
C2A C1A 1_555 1_555
C3A C2A 1_555 1_555
C4A C3A 1_555 1_555
C5A N1A 1_555 1_555
H1A N2A 1_555 1_555
H1A_2 N2A_2 1_555 1_555
H2A N2A 1_555 1_555
H2A_2 N2A_2 1_555 1_555
H3A C2A 1_555 1_555
H4A C3A 1_555 1_555
H5A C4A 1_555 1_555
H6A C5A 1_555 1_555
C4 C5 1_555 1_555
C4A C5A 1_555 1_555

#END
