
#######################################################################
#
#                 Cambridge Crystallographic Data Centre
#                                CCDC 
#
#######################################################################
#
# If this CIF has been generated from an entry in the Cambridge 
# Structural Database, then it will include bibliographic, chemical, 
# crystal, experimental, refinement or atomic coordinate data resulting 
# from the CCDC's data processing and validation procedures.
#
#######################################################################

data_RAWTUF
_symmetry_cell_setting           triclinic
_symmetry_space_group_name_H-M   'P -1'
_symmetry_Int_Tables_number      2
_space_group_name_Hall           '-P 1'
loop_
_symmetry_equiv_pos_site_id
_symmetry_equiv_pos_as_xyz
1 x,y,z
2 -x,-y,-z
_cell_length_a                   8.348(3)
_cell_length_b                   7.763(5)
_cell_length_c                   7.061(2)
_cell_angle_alpha                97.71(4)
_cell_angle_beta                 90.92(2)
_cell_angle_gamma                108.27(4)
_cell_volume                     429.774
loop_
_atom_site_label
_atom_site_type_symbol
_atom_site_fract_x
_atom_site_fract_y
_atom_site_fract_z
Ag1 Ag 0.07458(5) -0.00539(5) 0.27689(5)
N1 N 0.0881(5) -0.2826(5) -0.1312(5)
O1 O 0.0735(6) -0.1296(5) -0.0725(5)
O2 O 0.1600(5) -0.3523(5) -0.0269(5)
O3 O 0.0337(5) -0.3569(5) -0.2936(5)
N2 N 0.2976(4) 0.1861(4) 0.4567(5)
C1 C 0.2759(5) 0.2823(5) 0.6207(6)
N3 N 0.1090(5) 0.2769(6) 0.6513(7)
C2 C 0.4071(6) 0.3815(7) 0.7498(7)
C3 C 0.5669(7) 0.3865(8) 0.7084(8)
C4 C 0.5917(7) 0.2913(7) 0.5380(8)
C5 C 0.4556(6) 0.1926(6) 0.4138(6)
C6 C 0.4750(10) 0.0945(10) 0.2253(9)
H1 H 0.054(7) 0.284(7) 0.562(8)
H2 H 0.096(6) 0.356(7) 0.743(8)
H3 H 0.384(6) 0.446(7) 0.859(7)
H4 H 0.652(8) 0.442(8) 0.793(8)
H5 H 0.681(6) 0.290(7) 0.504(7)
H6 H 0.461(7) 0.160(8) 0.141(9)
H7 H 0.571(9) 0.106(10) 0.212(11)
H8 H 0.403(8) -0.020(9) 0.208(9)
Ag1A Ag -0.07458(5) 0.00539(5) -0.27689(5)
Ag1A_2 Ag -0.07458(5) 0.00539(5) 0.72311(5)
O1A O -0.0735(6) 0.1296(5) 0.0725(5)
N3A N -0.1090(5) -0.2769(6) 0.3487(7)
H1A H -0.054(7) -0.284(7) 0.438(8)
H2A H -0.096(6) -0.356(7) 0.257(8)
loop_
_geom_bond_atom_site_label_1
_geom_bond_atom_site_label_2
_geom_bond_site_symmetry_1
_geom_bond_site_symmetry_2
Ag1 O1 1_555 1_555
N1 O1 1_555 1_555
O1 Ag1A 1_555 1_555
O2 N1 1_555 1_555
O3 N1 1_555 1_555
N2 Ag1 1_555 1_555
C1 N2 1_555 1_555
N3 C1 1_555 1_555
C2 C1 1_555 1_555
C3 C2 1_555 1_555
C4 C3 1_555 1_555
C5 N2 1_555 1_555
C6 C5 1_555 1_555
H1 N3 1_555 1_555
H2 N3 1_555 1_555
H3 C2 1_555 1_555
H4 C3 1_555 1_555
H5 C4 1_555 1_555
H6 C6 1_555 1_555
H7 C6 1_555 1_555
H8 C6 1_555 1_555
Ag1A O1A 1_555 1_555
Ag1A_2 N3 1_555 1_555
O1A Ag1 1_555 1_555
N3A Ag1 1_555 1_555
H1A N3A 1_555 1_555
H2A N3A 1_555 1_555
C4 C5 1_555 1_555

#END
