
#######################################################################
#
#                 Cambridge Crystallographic Data Centre
#                                CCDC 
#
#######################################################################
#
# If this CIF has been generated from an entry in the Cambridge 
# Structural Database, then it will include bibliographic, chemical, 
# crystal, experimental, refinement or atomic coordinate data resulting 
# from the CCDC's data processing and validation procedures.
#
#######################################################################

data_RAWVUI
_symmetry_cell_setting           monoclinic
_symmetry_space_group_name_H-M   'P 21/c'
_symmetry_Int_Tables_number      14
_space_group_name_Hall           '-P 2ybc'
loop_
_symmetry_equiv_pos_site_id
_symmetry_equiv_pos_as_xyz
1 x,y,z
2 -x,1/2+y,1/2-z
3 -x,-y,-z
4 x,1/2-y,1/2+z
_cell_length_a                   6.3889(16)
_cell_length_b                   7.6496(12)
_cell_length_c                   26.767(6)
_cell_angle_alpha                90
_cell_angle_beta                 99.131(19)
_cell_angle_gamma                90
_cell_volume                     1291.59
loop_
_atom_site_label
_atom_site_type_symbol
_atom_site_fract_x
_atom_site_fract_y
_atom_site_fract_z
Cd1 Cd 1.0000 -0.5000 0.0000
C1 C 1.0742(8) -0.4670(6) -0.28202(17)
H1 H 1.1848 -0.5090 -0.2583
C2 C 1.0968(10) -0.4590(7) -0.33291(19)
H2 H 1.2218 -0.4965 -0.3432
C3 C 0.9335(11) -0.3954(8) -0.36795(19)
H3 H 0.9491 -0.3896 -0.4019
C4 C 0.7485(10) -0.3408(7) -0.35333(19)
H4 H 0.6390 -0.2981 -0.3773
C5 C 0.7242(8) -0.3491(6) -0.30306(17)
H5 H 0.5980 -0.3122 -0.2933
C6 C 0.8873(7) -0.4125(6) -0.26673(15)
C7 C 0.8438(7) -0.4272(7) -0.21379(16)
C8 C 1.0153(6) -0.4111(5) -0.16895(14)
C9 C 1.2150(6) -0.3409(5) -0.17038(15)
H6 H 1.2516 -0.3013 -0.2007
C10 C 1.3582(6) -0.3311(6) -0.12597(15)
H7 H 1.4935 -0.2864 -0.1260
C11 C 1.2974(6) -0.3884(6) -0.08172(15)
H8 H 1.3954 -0.3826 -0.0521
C12 C 0.9679(6) -0.4639(5) -0.12230(14)
H9 H 0.8340 -0.5099 -0.1212
C13 C 0.6960(6) 0.1715(5) -0.04140(14)
C14 C 0.7254(6) -0.1231(5) -0.02981(16)
N1 N 1.1036(5) -0.4524(4) -0.07915(11)
N2 N 0.7303(5) 0.3147(4) -0.03767(13)
N3 N 0.7872(5) -0.2537(4) -0.01484(15)
N4 N 0.6390(10) 0.0134(5) -0.0517(2)
O1 O 0.6627(5) -0.4494(8) -0.20664(14)
Cd1_2 Cd 1.0000 -1.5000 0.0000
Cd1_3 Cd 1.0000 0.5000 0.0000
C1B C 0.9258(8) -0.5330(6) 0.28202(17)
H1B H 0.8152 -0.4910 0.2583
C2B C 0.9032(10) -0.5410(7) 0.33291(19)
H2B H 0.7782 -0.5035 0.3432
C3B C 1.0665(11) -0.6046(8) 0.36795(19)
H3B H 1.0509 -0.6104 0.4019
C4B C 1.2515(10) -0.6592(7) 0.35333(19)
H4B H 1.3610 -0.7019 0.3773
C5B C 1.2758(8) -0.6509(6) 0.30306(17)
H5B H 1.4020 -0.6878 0.2933
C6B C 1.1127(7) -0.5875(6) 0.26673(15)
C7B C 1.1562(7) -0.5728(7) 0.21379(16)
C8B C 0.9847(6) -0.5889(5) 0.16895(14)
C9B C 0.7850(6) -0.6591(5) 0.17038(15)
H6B H 0.7484 -0.6987 0.2007
C10B C 0.6418(6) -0.6689(6) 0.12597(15)
H7B H 0.5065 -0.7136 0.1260
C11B C 0.7026(6) -0.6116(6) 0.08172(15)
H8B H 0.6046 -0.6174 0.0521
C12B C 1.0321(6) -0.5361(5) 0.12230(14)
H9B H 1.1660 -0.4901 0.1212
C13B C 1.3040(6) -1.1715(5) 0.04140(14)
C14B C 1.2746(6) -0.8769(5) 0.02981(16)
N1B N 0.8964(5) -0.5476(4) 0.07915(11)
N2B N 1.2697(5) -1.3147(4) 0.03767(13)
N2_2 N 0.7303(5) -0.6853(4) -0.03767(13)
N2B_2 N 1.2697(5) -0.3147(4) 0.03767(13)
N3B N 1.2128(5) -0.7463(4) 0.01484(15)
N4B N 1.3610(10) -1.0134(5) 0.0517(2)
O1B O 1.3373(5) -0.5506(8) 0.20664(14)
loop_
_geom_bond_atom_site_label_1
_geom_bond_atom_site_label_2
_geom_bond_site_symmetry_1
_geom_bond_site_symmetry_2
Cd1 N1 1_555 1_555
C1 H1 1_555 1_555
C2 C1 1_555 1_555
H2 C2 1_555 1_555
C3 C2 1_555 1_555
H3 C3 1_555 1_555
C4 C3 1_555 1_555
H4 C4 1_555 1_555
C5 C4 1_555 1_555
H5 C5 1_555 1_555
C6 C1 1_555 1_555
C7 C6 1_555 1_555
C8 C7 1_555 1_555
C9 C8 1_555 1_555
H6 C9 1_555 1_555
C10 C9 1_555 1_555
H7 C10 1_555 1_555
C11 C10 1_555 1_555
H8 C11 1_555 1_555
C12 C8 1_555 1_555
H9 C12 1_555 1_555
C13 N2 1_555 1_555
C14 N3 1_555 1_555
N1 C11 1_555 1_555
N2 Cd1_3 1_555 1_555
N3 Cd1 1_555 1_555
N4 C13 1_555 1_555
O1 C7 1_555 1_555
Cd1_2 N2B 1_555 1_555
C1B H1B 1_555 1_555
C2B C1B 1_555 1_555
H2B C2B 1_555 1_555
C3B C2B 1_555 1_555
H3B C3B 1_555 1_555
C4B C3B 1_555 1_555
H4B C4B 1_555 1_555
C5B C4B 1_555 1_555
H5B C5B 1_555 1_555
C6B C1B 1_555 1_555
C7B C6B 1_555 1_555
C8B C7B 1_555 1_555
C9B C8B 1_555 1_555
H6B C9B 1_555 1_555
C10B C9B 1_555 1_555
H7B C10B 1_555 1_555
C11B C10B 1_555 1_555
H8B C11B 1_555 1_555
C12B C8B 1_555 1_555
H9B C12B 1_555 1_555
C13B N2B 1_555 1_555
C14B N3B 1_555 1_555
N1B Cd1 1_555 1_555
N2_2 Cd1 1_555 1_555
N2B_2 Cd1 1_555 1_555
N3B Cd1 1_555 1_555
N4B C13B 1_555 1_555
O1B C7B 1_555 1_555
C5 C6 1_555 1_555
C12 N1 1_555 1_555
C14 N4 1_555 1_555
C5B C6B 1_555 1_555
C11B N1B 1_555 1_555
C12B N1B 1_555 1_555
C14B N4B 1_555 1_555

#END
