
#######################################################################
#
#                 Cambridge Crystallographic Data Centre
#                                CCDC 
#
#######################################################################
#
# If this CIF has been generated from an entry in the Cambridge 
# Structural Database, then it will include bibliographic, chemical, 
# crystal, experimental, refinement or atomic coordinate data resulting 
# from the CCDC's data processing and validation procedures.
#
#######################################################################

data_RAWYUL
_symmetry_cell_setting           monoclinic
_symmetry_space_group_name_H-M   'P 21/c'
_symmetry_Int_Tables_number      14
_space_group_name_Hall           '-P 2ybc'
loop_
_symmetry_equiv_pos_site_id
_symmetry_equiv_pos_as_xyz
1 x,y,z
2 -x,1/2+y,1/2-z
3 -x,-y,-z
4 x,1/2-y,1/2+z
_cell_length_a                   18.2555(16)
_cell_length_b                   8.6768(8)
_cell_length_c                   13.5420(13)
_cell_angle_alpha                90
_cell_angle_beta                 107.501(5)
_cell_angle_gamma                90
_cell_volume                     2045.75
loop_
_atom_site_label
_atom_site_type_symbol
_atom_site_fract_x
_atom_site_fract_y
_atom_site_fract_z
O1 O 0.2025(11) 0.840(2) 0.4832(15)
C1 C 0.8386(5) -0.8331(8) 1.3901(9)
H1 H 0.8500 -0.9409 1.4011
H2 H 0.8809 -0.7817 1.3759
H3 H 0.8302 -0.7896 1.4510
C2 C 0.62400(18) -0.5579(4) 1.1439(3)
O2 O 0.43943(14) -0.6285(3) 1.1493(2)
O3 O 0.52742(14) -0.8868(3) 1.0880(2)
C3 C 0.6673(2) -0.6947(4) 1.1947(3)
N1 N 0.7378(2) -0.6729(4) 1.2675(3)
N2 N 0.1745(2) -0.8463(6) 0.8659(3)
Ca1 Ca 0.45412(4) -0.70328(7) 0.97864(5)
Ca2 Ca 0.27361(4) -0.78829(7) 0.77956(5)
O4 O 0.57045(14) -0.5695(3) 1.06183(19)
O5 O 0.64495(14) -0.4301(3) 1.18729(19)
O6 O 0.60217(13) -1.0921(3) 1.13710(19)
O7 O 0.29255(15) -0.7254(3) 1.11672(19)
O8 O 0.18221(14) -0.8883(3) 1.19147(19)
O9 O 0.31460(14) -0.7391(3) 0.96461(19)
C4 C 0.27263(18) -0.7612(4) 1.0226(3)
O10 O 0.52195(16) -0.6914(3) 0.8446(2)
C5 C 0.59075(18) -0.9488(4) 1.1321(2)
N3 N 0.7207(2) -0.9248(4) 1.2535(3)
C6 C 0.6573(2) -0.8526(4) 1.1879(3)
N4 N 0.0790(2) -0.9211(7) 0.9234(3)
C7 C 0.1376(2) -0.8792(5) 1.0096(3)
C8 C 0.1263(2) -0.9033(5) 1.1124(3)
O11 O 0.0620(2) -0.9438(8) 1.1124(3)
C9 C 0.1964(2) -0.8297(5) 0.9726(3)
C10 C 0.1032(3) -0.8967(9) 0.8399(4)
C11 C 0.7672(3) -0.8130(5) 1.2994(5)
C12 C 0.0465(12) -0.921(3) 0.7263(16)
H4 H 0.0728 -0.8967 0.6766
H5 H 0.0295 -1.0258 0.7178
H6 H 0.0029 -0.8537 0.7159
Ca1B Ca 0.54588(4) -0.29672(7) 1.02136(5)
Ca1B_2 Ca 0.54588(4) -1.29672(7) 1.02136(5)
Ca2B Ca 0.72639(4) -0.21171(7) 1.22044(5)
Ca2B_2 Ca 0.72639(4) -1.21171(7) 1.22044(5)
Ca2C Ca 0.27361(4) -0.71171(7) 1.27956(5)
O4B O 0.42955(14) -0.4305(3) 0.93817(19)
O5B O 0.35505(14) -0.5699(3) 0.81271(19)
O6B O 0.39783(13) -0.9079(3) 0.86290(19)
O7C O 0.29255(15) -0.7746(3) 0.61672(19)
O8C O 0.18221(14) -0.6117(3) 0.69147(19)
N3B N 0.2793(2) -1.0752(4) 0.7465(3)
O12 O 0.6027(2) 0.0412(4) 0.8810(3)
loop_
_geom_bond_atom_site_label_1
_geom_bond_atom_site_label_2
_geom_bond_site_symmetry_1
_geom_bond_site_symmetry_2
C1 H1 1_555 1_555
H2 C1 1_555 1_555
H3 C1 1_555 1_555
C2 C3 1_555 1_555
O2 Ca1 1_555 1_555
O3 Ca1 1_555 1_555
C3 N1 1_555 1_555
N1 C11 1_555 1_555
N2 Ca2 1_555 1_555
Ca1 O4 1_555 1_555
Ca2 O9 1_555 1_555
O4 C2 1_555 1_555
O5 C2 1_555 1_555
O6 C5 1_555 1_555
O7 C4 1_555 1_555
O8 C8 1_555 1_555
O9 Ca1 1_555 1_555
C4 O9 1_555 1_555
O10 Ca1 1_555 1_555
C5 O3 1_555 1_555
N3 C6 1_555 1_555
C6 C3 1_555 1_555
N4 C7 1_555 1_555
C7 C8 1_555 1_555
C8 O11 1_555 1_555
C9 N2 1_555 1_555
C10 N2 1_555 1_555
C11 C1 1_555 1_555
C12 C10 1_555 1_555
H4 C12 1_555 1_555
H5 C12 1_555 1_555
H6 C12 1_555 1_555
Ca1B O4 1_555 1_555
Ca1B_2 O6 1_555 1_555
Ca2B O5 1_555 1_555
Ca2B_2 O6 1_555 1_555
Ca2C O7 1_555 1_555
O4B Ca1 1_555 1_555
O5B Ca1 1_555 1_555
O6B Ca1 1_555 1_555
O7C Ca2 1_555 1_555
O8C Ca2 1_555 1_555
N3B Ca2 1_555 1_555
Ca2 O5B 1_555 1_555
Ca2 O6B 1_555 1_555
O5 Ca1B 1_555 1_555
O8 Ca2C 1_555 1_555
C4 C9 1_555 1_555
C5 C6 1_555 1_555
N3 C11 1_555 1_555
N3 Ca2B_2 1_555 1_555
N4 C10 1_555 1_555
C7 C9 1_555 1_555
Ca1B O4B 1_555 1_555

#END
