
#######################################################################
#
#                 Cambridge Crystallographic Data Centre
#                                CCDC 
#
#######################################################################
#
# If this CIF has been generated from an entry in the Cambridge 
# Structural Database, then it will include bibliographic, chemical, 
# crystal, experimental, refinement or atomic coordinate data resulting 
# from the CCDC's data processing and validation procedures.
#
#######################################################################

data_RAWZUM
_symmetry_cell_setting           triclinic
_symmetry_space_group_name_H-M   'P -1'
_symmetry_Int_Tables_number      2
_space_group_name_Hall           '-P 1'
loop_
_symmetry_equiv_pos_site_id
_symmetry_equiv_pos_as_xyz
1 x,y,z
2 -x,-y,-z
_cell_length_a                   14.925(2)
_cell_length_b                   16.912(3)
_cell_length_c                   21.146(3)
_cell_angle_alpha                88.756(3)
_cell_angle_beta                 79.628(2)
_cell_angle_gamma                72.800(2)
_cell_volume                     5012.65
loop_
_atom_site_label
_atom_site_type_symbol
_atom_site_fract_x
_atom_site_fract_y
_atom_site_fract_z
O2 O 0.3544(4) 0.9970(3) 0.4306(3)
O3 O -0.2711(8) 0.8950(8) 0.0130(6)
O4 O -0.3119(4) 0.9050(4) 0.1615(3)
O5 O -0.4959(8) 0.7099(8) 0.2448(6)
O6 O 0.7763(3) 0.2006(4) 0.3357(2)
O7 O -0.3173(4) 1.0085(4) 0.4305(3)
O8 O -0.3885(5) 1.0629(5) 0.3165(4)
W1 W -0.117334(11) 0.981993(10) 0.236952(7)
W2 W -0.024820(12) 0.863772(10) 0.078854(8)
W3 W 0.132622(11) 0.958051(10) 0.150978(8)
W4 W 0.210559(11) 0.882010(10) 0.290583(8)
W5 W -0.038190(11) 0.900216(10) 0.374613(7)
W6 W -0.176031(10) 0.812306(10) 0.304223(7)
W7 W -0.079447(11) 0.693119(10) 0.146882(7)
W8 W 0.149433(11) 0.675301(10) 0.072424(7)
W9 W 0.303264(11) 0.769740(10) 0.148270(8)
W10 W 0.056932(10) 0.638081(9) 0.542430(7)
W11 W -0.088670(10) 0.560210(9) 0.462490(7)
W12 W 0.450822(11) 0.539520(10) 0.364484(8)
W13 W 0.493974(11) 0.330093(10) 0.360938(8)
W14 W 0.534741(11) 0.432130(10) 0.218963(8)
W15 W 0.384731(11) 0.333616(10) 0.145207(8)
W16 W 0.154186(11) 0.351494(10) 0.218587(7)
W17 W 0.347982(11) 0.225223(10) 0.286377(8)
As1 As 0.06582(3) 0.77971(2) 0.226029(17)
As2 As 0.28852(3) 0.45600(2) 0.293011(17)
Ni1 Ni -0.24458(4) 1.16446(3) 0.15188(3)
Ni2 Ni -0.28045(9) 0.65248(8) 0.08134(6)
Ni3 Ni 0.30130(7) 0.18024(7) 0.15998(5)
Ni4 Ni 0.13646(3) 0.24025(3) 0.33744(2)
Ni5 Ni 0.30299(3) 0.26731(3) 0.45578(2)
Ni6 Ni 0.14643(3) 0.37757(3) 0.39050(2)
Ni7 Ni 0.27513(3) 0.45917(3) 0.45057(2)
Ni8 Ni -0.09428(3) 0.59523(3) 0.29573(2)
Ni9 Ni 0.11278(3) 0.57460(3) 0.22287(2)
Ni10 Ni 0.32665(3) 0.55776(3) 0.15340(2)
Ni11 Ni 0.24712(3) 0.66093(3) 0.28899(2)
Ni12 Ni 0.16137(3) 0.75805(3) 0.42004(2)
Ni13 Ni 0.03368(3) 0.67459(3) 0.36010(2)
O9 O -0.3792(2) 1.1805(2) 0.21331(16)
O10 O -0.3571(4) 0.7654(4) 0.1258(3)
O11 O -0.3442(4) 0.5982(4) 0.1598(3)
O12 O -0.3979(4) 0.6546(4) 0.0419(3)
O13 O 0.1846(4) 0.1792(4) 0.1199(3)
O14 O 0.19974(18) 0.20220(16) 0.49108(14)
O15 O 0.33072(19) 0.45607(18) 0.53436(13)
O16 O -0.19128(19) 1.07952(16) 0.22332(13)
O17 O -0.20775(17) 0.92412(17) 0.26776(13)
O18 O -0.10113(18) 0.99372(16) 0.32242(12)
O19 O -0.03348(16) 0.84538(15) 0.27004(11)
O20 O 0.00520(19) 0.99106(17) 0.20587(13)
O21 O -0.09960(18) 0.92571(16) 0.15503(13)
O22 O -0.0696(2) 0.92528(18) 0.01968(13)
O23 O 0.03618(17) 0.75949(16) 0.15575(12)
O24 O -0.10357(17) 0.79122(17) 0.09194(12)
O25 O 0.0775(2) 0.77842(17) 0.03237(12)
O26 O 0.07164(18) 0.91141(17) 0.09717(13)
O27 O 0.1383(2) 1.04738(17) 0.11330(14)
O28 O 0.14882(17) 0.83060(15) 0.21015(11)
O29 O 0.25126(17) 0.88418(15) 0.11579(12)
O30 O 0.18210(18) 0.96884(16) 0.22735(12)
O31 O 0.26386(19) 0.92896(17) 0.33961(13)
O32 O 0.21633(17) 0.46344(15) 0.36544(11)
O33 O 0.31740(18) 0.82836(16) 0.22024(12)
O34 O 0.07853(17) 0.92045(16) 0.33333(12)
O35 O -0.06001(18) 0.94982(17) 0.44815(13)
O36 O 0.02657(17) 0.79348(16) 0.38899(12)
O37 O -0.15725(18) 0.87120(16) 0.37751(12)
O38 O -0.28901(18) 0.80772(16) 0.33389(12)
O39 O -0.09620(16) 0.71484(16) 0.32793(12)
O40 O -0.15365(17) 0.76915(16) 0.21726(12)
O41 O -0.16411(19) 0.65258(18) 0.12749(13)
O42 O -0.02561(17) 0.62283(16) 0.20559(12)
O43 O 0.03000(18) 0.64689(17) 0.08067(13)
O44 O 0.18299(16) 0.60425(16) 0.13526(11)
O45 O 0.2164(2) 0.62080(17) 0.00235(14)
O46 O 0.23156(19) 0.73574(17) 0.09003(13)
O47 O 0.41684(19) 0.74313(19) 0.10232(14)
O48 O 0.30338(18) 0.67632(16) 0.19502(12)
O49 O 0.10622(17) 0.69183(15) 0.26416(12)
O50 O 0.17045(16) 0.64942(16) 0.37395(12)
O51 O 0.04223(17) 0.56799(16) 0.31326(12)
O52 O 0.24932(17) 0.54387(15) 0.24957(12)
O53 O 0.10283(18) 0.71353(15) 0.50142(12)
O54 O 0.06863(17) 0.29764(15) 0.42556(12)
O55 O 0.10212(17) 0.63024(16) 0.61389(12)
O56 O -0.01694(17) 0.63131(15) 0.45048(11)
O57 O 0.14165(16) 0.53500(15) 0.49965(12)
O58 O 0.01827(17) 0.45991(16) 0.44266(12)
O59 O -0.13719(17) 0.57228(16) 0.39262(12)
O60 O 0.19253(17) 0.37833(16) 0.47640(12)
O61 O 0.54470(17) 0.50332(17) 0.28249(12)
O62 O 0.40154(17) 0.44306(16) 0.30294(12)
O63 O 0.38003(18) 0.62211(17) 0.30956(13)
O64 O 0.50141(17) 0.59934(18) 0.40383(14)
O65 O 0.34266(17) 0.54169(16) 0.41707(13)
O66 O 0.51640(18) 0.42871(17) 0.39194(13)
O67 O 0.38082(17) 0.34998(15) 0.41946(12)
O68 O 0.44347(17) 0.26076(16) 0.31267(13)
O69 O 0.57420(19) 0.25273(18) 0.39505(13)
O70 O 0.57139(17) 0.34071(16) 0.27928(13)
O71 O 0.64347(19) 0.41892(18) 0.16705(14)
O72 O 0.44990(18) 0.51756(18) 0.18543(13)
O73 O 0.48571(19) 0.35223(18) 0.18086(14)
O74 O 0.4435(2) 0.28858(19) 0.06999(14)
O75 O 0.29294(17) 0.37014(15) 0.25051(11)
O76 O 0.33481(17) 0.44037(16) 0.13082(12)
O77 O 0.26270(17) 0.31173(17) 0.14594(12)
O78 O 0.40568(17) 0.22823(17) 0.19845(12)
O79 O 0.23069(18) 0.23397(15) 0.25094(12)
O80 O 0.12513(18) 0.45800(17) 0.19814(13)
O81 O 0.07137(19) 0.31558(17) 0.18937(13)
O82 O 0.10604(17) 0.36677(17) 0.30574(12)
O83 O 0.38385(19) 0.12177(18) 0.30060(15)
O84 O 0.26082(17) 0.27239(16) 0.36330(12)
O85 O 0.22158(17) 0.78013(16) 0.32458(13)
N1 N -0.2174(3) 1.2588(3) 0.1999(2)
H1 H -0.2660 1.3056 0.2011
H2 H -0.2121 1.2446 0.2406
N2 N -0.1055(3) 1.1481(2) 0.10336(17)
H3 H -0.0728 1.0939 0.1018
H4 H -0.1069 1.1645 0.0627
N3 N -0.2649(3) 1.0691(3) 0.10193(18)
H5 H -0.2091 1.0372 0.0798
H6 H -0.2917 1.0373 0.1290
N4 N -0.3126(3) 1.2405(3) 0.08427(19)
H7 H -0.3680 1.2753 0.1045
H8 H -0.2756 1.2711 0.0657
N5 N -0.2052(7) 0.5423(6) 0.0416(4)
H9 H -0.1587 0.5168 0.0634
H10 H -0.2427 0.5096 0.0398
N6 N -0.2172(3) 0.7024(4) -0.0114(5)
H11 H -0.2533 0.7058 -0.0417
H12 H -0.2103 0.7525 -0.0046
N7 N 0.3354(7) 0.0577(6) 0.1868(5)
H13 H 0.3653 0.0516 0.2207
H14 H 0.2819 0.0426 0.1982
N8 N 0.3916(5) 0.1293(4) 0.0715(3)
H15 H 0.3574 0.1218 0.0424
H16 H 0.4272 0.1622 0.0552
N9 N 0.1633(2) 0.1237(2) 0.37122(18)
H17 H 0.2023 0.0865 0.3410
H18 H 0.1906 0.1199 0.4062
N10 N 0.0224(2) 0.2159(2) 0.30995(18)
H19 H -0.0321 0.2535 0.3286
H20 H 0.0271 0.2194 0.2670
N11 N 0.3421(2) 0.2724(2) 0.54499(16)
H21 H 0.3380 0.3248 0.5555
H22 H 0.3033 0.2544 0.5756
N12 N 0.4142(2) 0.1588(2) 0.44127(17)
H23 H 0.3941 0.1175 0.4288
H24 H 0.4614 0.1650 0.4104
N13 N -0.2330(2) 0.6265(2) 0.28114(16)
H25 H -0.2713 0.6651 0.3106
H26 H -0.2371 0.6466 0.2417
N14 N -0.0918(2) 0.4786(2) 0.26964(16)
H27 H -0.0471 0.4605 0.2342
H28 H -0.0762 0.4439 0.3014
N15 N 0.1415(2) 0.8707(2) 0.46677(15)
H29 H 0.1577 0.9071 0.4387
H30 H 0.0802 0.8924 0.4859
N16 N 0.2922(2) 0.7279(2) 0.44843(17)
H31 H 0.2976 0.6850 0.4748
H32 H 0.3389 0.7125 0.4137
N17 N 0.3981(2) 0.5712(2) 0.06254(17)
H33 H 0.3552 0.5879 0.0363
H34 H 0.4257 0.6115 0.0645
C1 C -0.1294(4) 1.2727(4) 0.1668(4)
H35 H -0.1003 1.2937 0.1976
H36 H -0.1441 1.3145 0.1350
C2 C -0.0580(4) 1.1933(4) 0.1334(4)
H37 H -0.0104 1.2076 0.1014
H38 H -0.0256 1.1593 0.1648
C3 C -0.3283(3) 1.10999(17) 0.0585(2)
H39 H -0.3926 1.1123 0.0791
H40 H -0.3127 1.0743 0.0203
C4 C -0.3308(4) 1.19428(19) 0.0367(3)
H41 H -0.2833 1.1904 -0.0020
H42 H -0.3929 1.2222 0.0263
C5 C -0.1610(3) 0.5651(2) -0.0304(5)
H43 H -0.1097 0.5175 -0.0500
H44 H -0.2101 0.5773 -0.0567
C6 C -0.1232(2) 0.63832(19) -0.0292(5)
H45 H -0.0834 0.6340 0.0030
H46 H -0.0888 0.6473 -0.0709
C7 C 0.4003(8) 0.0033(8) 0.1300(6)
H47 H 0.4442 -0.0442 0.1457
H48 H 0.3622 -0.0167 0.1052
C8 C 0.4521(9) 0.0490(8) 0.0903(6)
H49 H 0.4862 0.0159 0.0516
H50 H 0.4990 0.0592 0.1127
C9 C 0.0680(3) 0.1094(3) 0.3877(2)
H51 H 0.0299 0.1435 0.4250
H52 H 0.0751 0.0517 0.3973
C10 C 0.0202(3) 0.1326(3) 0.3292(2)
H53 H 0.0535 0.0930 0.2940
H54 H -0.0453 0.1312 0.3396
C11 C 0.4411(3) 0.2190(4) 0.5398(3)
H55 H 0.4566 0.2074 0.5823
H56 H 0.4848 0.2464 0.5163
C12 C 0.4498(4) 0.1388(3) 0.5046(2)
H57 H 0.5159 0.1048 0.4962
H58 H 0.4124 0.1080 0.5310
C13 C -0.2607(4) 0.5477(3) 0.2879(3)
H59 H -0.2754 0.5368 0.3332
H60 H -0.3178 0.5548 0.2699
C14 C -0.1872(3) 0.4783(3) 0.2564(3)
H61 H -0.1862 0.4802 0.2104
H62 H -0.2002 0.4275 0.2714
C15 C 0.2037(3) 0.8519(3) 0.5146(2)
H63 H 0.1782 0.8217 0.5493
H64 H 0.2073 0.9029 0.5327
C16 C 0.3028(3) 0.7998(3) 0.4822(2)
H65 H 0.3321 0.8326 0.4517
H66 H 0.3430 0.7808 0.5141
C17 C 0.4743(3) 0.4930(3) 0.03294(19)
W1A W 1.117334(11) 0.018007(10) -0.236952(7)
W2A W 1.024820(12) 0.136228(10) -0.078854(8)
W3A W 0.867378(11) 0.041949(10) -0.150978(8)
W4A W 0.789441(11) 0.117990(10) -0.290583(8)
W5A W 1.038190(11) 0.099784(10) -0.374613(7)
W6A W 1.176031(10) 0.187694(10) -0.304223(7)
W7A W 1.079447(11) 0.306881(10) -0.146882(7)
W8A W 0.850567(11) 0.324699(10) -0.072424(7)
W9A W 0.696736(11) 0.230260(10) -0.148270(8)
W10A W 0.943068(10) 0.361919(9) -0.542430(7)
W10A_2 W -0.056932(10) 0.361919(9) 0.457570(7)
W10_2 W 1.056932(10) 0.638081(9) -0.457570(7)
W11A W 1.088670(10) 0.439790(9) -0.462490(7)
W11A_2 W 0.088670(10) 0.439790(9) 0.537510(7)
W11_2 W 0.911330(10) 0.560210(9) -0.537510(7)
W12A W 0.549178(11) 0.460480(10) -0.364484(8)
W13A W 0.506026(11) 0.669907(10) -0.360938(8)
W14A W 0.465259(11) 0.567870(10) -0.218963(8)
W15A W 0.615269(11) 0.666384(10) -0.145207(8)
W16A W 0.845814(11) 0.648506(10) -0.218587(7)
W17A W 0.652018(11) 0.774777(10) -0.286377(8)
As1A As 0.93418(3) 0.22029(2) -0.226029(17)
As2A As 0.71148(3) 0.54400(2) -0.293011(17)
Ni1A Ni 1.24458(4) -0.16446(3) -0.15188(3)
Ni2A Ni 1.28045(9) 0.34752(8) -0.08134(6)
Ni3A Ni 0.69870(7) 0.81976(7) -0.15998(5)
Ni4A Ni 0.86354(3) 0.75975(3) -0.33744(2)
Ni5A Ni 0.69701(3) 0.73269(3) -0.45578(2)
Ni6A Ni 0.85357(3) 0.62243(3) -0.39050(2)
Ni7A Ni 0.72487(3) 0.54083(3) -0.45057(2)
Ni8A Ni 1.09428(3) 0.40477(3) -0.29573(2)
Ni9A Ni 0.88722(3) 0.42540(3) -0.22287(2)
Ni10A Ni 0.67335(3) 0.44224(3) -0.15340(2)
Ni11A Ni 0.75288(3) 0.33907(3) -0.28899(2)
Ni12A Ni 0.83863(3) 0.24195(3) -0.42004(2)
Ni13A Ni 0.96632(3) 0.32541(3) -0.36010(2)
O9A O 1.3792(2) -0.1805(2) -0.21331(16)
O10A O 1.3571(4) 0.2346(4) -0.1258(3)
O11A O 1.3442(4) 0.4018(4) -0.1598(3)
O12A O 1.3979(4) 0.3454(4) -0.0419(3)
O13A O 0.8154(4) 0.8208(4) -0.1199(3)
O14A O 0.80026(18) 0.79780(16) -0.49108(14)
O15A O 0.66928(19) 0.54393(18) -0.53436(13)
O16A O 1.19128(19) -0.07952(16) -0.22332(13)
O17A O 1.20775(17) 0.07588(17) -0.26776(13)
O18A O 1.10113(18) 0.00628(16) -0.32242(12)
O19A O 1.03348(16) 0.15462(15) -0.27004(11)
O20A O 0.99480(19) 0.00894(17) -0.20587(13)
O21A O 1.09960(18) 0.07429(16) -0.15503(13)
O22A O 1.0696(2) 0.07472(18) -0.01968(13)
O23A O 0.96382(17) 0.24051(16) -0.15575(12)
O24A O 1.10357(17) 0.20878(17) -0.09194(12)
O25A O 0.9225(2) 0.22158(17) -0.03237(12)
O26A O 0.92836(18) 0.08859(17) -0.09717(13)
O27A O 0.8617(2) -0.04738(17) -0.11330(14)
O28A O 0.85118(17) 0.16940(15) -0.21015(11)
O29A O 0.74874(17) 0.11582(15) -0.11579(12)
O30A O 0.81790(18) 0.03116(16) -0.22735(12)
O31A O 0.73614(19) 0.07104(17) -0.33961(13)
O32A O 0.78367(17) 0.53656(15) -0.36544(11)
O33A O 0.68260(18) 0.17164(16) -0.22024(12)
O34A O 0.92147(17) 0.07955(16) -0.33333(12)
O35A O 1.06001(18) 0.05018(17) -0.44815(13)
O36A O 0.97343(17) 0.20652(16) -0.38899(12)
O37A O 1.15725(18) 0.12880(16) -0.37751(12)
O38A O 1.28901(18) 0.19228(16) -0.33389(12)
O39A O 1.09620(16) 0.28516(16) -0.32793(12)
O40A O 1.15365(17) 0.23085(16) -0.21726(12)
O41A O 1.16411(19) 0.34742(18) -0.12749(13)
O42A O 1.02561(17) 0.37717(16) -0.20559(12)
O43A O 0.97000(18) 0.35311(17) -0.08067(13)
O44A O 0.81701(16) 0.39575(16) -0.13526(11)
O45A O 0.7836(2) 0.37920(17) -0.00235(14)
O46A O 0.76844(19) 0.26426(17) -0.09003(13)
O47A O 0.58316(19) 0.25687(19) -0.10232(14)
O48A O 0.69662(18) 0.32368(16) -0.19502(12)
O49A O 0.89378(17) 0.30817(15) -0.26416(12)
O50A O 0.82955(16) 0.35058(16) -0.37395(12)
O51A O 0.95777(17) 0.43201(16) -0.31326(12)
O52A O 0.75068(17) 0.45613(15) -0.24957(12)
O53A O 0.89717(18) 0.28647(15) -0.50142(12)
O54A O 0.93137(17) 0.70236(15) -0.42556(12)
O54A_2 O -0.06863(17) 0.70236(15) 0.57444(12)
O54_2 O 1.06863(17) 0.29764(15) -0.57444(12)
O55A O 0.89788(17) 0.36976(16) -0.61389(12)
O56A O 1.01694(17) 0.36869(15) -0.45048(11)
O57A O 0.85835(16) 0.46500(15) -0.49965(12)
O57A_2 O -0.14165(16) 0.46500(15) 0.50035(12)
O57_2 O 1.14165(16) 0.53500(15) -0.50035(12)
O58A O 0.98173(17) 0.54009(16) -0.44266(12)
O58A_2 O -0.01827(17) 0.54009(16) 0.55734(12)
O58_2 O 1.01827(17) 0.45991(16) -0.55734(12)
O59A O 1.13719(17) 0.42772(16) -0.39262(12)
O60A O 0.80747(17) 0.62167(16) -0.47640(12)
O60A_2 O -0.19253(17) 0.62167(16) 0.52360(12)
O60_2 O 1.19253(17) 0.37833(16) -0.52360(12)
O61A O 0.45530(17) 0.49668(17) -0.28249(12)
O62A O 0.59846(17) 0.55694(16) -0.30294(12)
O63A O 0.61997(18) 0.37789(17) -0.30956(13)
O64A O 0.49859(17) 0.40066(18) -0.40383(14)
O65A O 0.65734(17) 0.45831(16) -0.41707(13)
O66A O 0.48360(18) 0.57129(17) -0.39194(13)
O67A O 0.61918(17) 0.65002(15) -0.41946(12)
O68A O 0.55653(17) 0.73924(16) -0.31267(13)
O69A O 0.42580(19) 0.74727(18) -0.39505(13)
O70A O 0.42861(17) 0.65929(16) -0.27928(13)
O71A O 0.35653(19) 0.58108(18) -0.16705(14)
O72A O 0.55010(18) 0.48244(18) -0.18543(13)
O73A O 0.51429(19) 0.64777(18) -0.18086(14)
O74A O 0.5565(2) 0.71142(19) -0.06999(14)
O75A O 0.70706(17) 0.62986(15) -0.25051(11)
O76A O 0.66519(17) 0.55963(16) -0.13082(12)
O77A O 0.73730(17) 0.68827(17) -0.14594(12)
O78A O 0.59432(17) 0.77177(17) -0.19845(12)
O79A O 0.76931(18) 0.76603(15) -0.25094(12)
O80A O 0.87487(18) 0.54200(17) -0.19814(13)
O81A O 0.92863(19) 0.68442(17) -0.18937(13)
O82A O 0.89396(17) 0.63323(17) -0.30574(12)
O83A O 0.61615(19) 0.87823(18) -0.30060(15)
O84A O 0.73918(17) 0.72761(16) -0.36330(12)
O85A O 0.77842(17) 0.21987(16) -0.32458(13)
N1A N 1.2174(3) -0.2588(3) -0.1999(2)
H1A H 1.2660 -0.3056 -0.2011
H2A H 1.2121 -0.2446 -0.2406
N2A N 1.1055(3) -0.1481(2) -0.10336(17)
H3A H 1.0728 -0.0939 -0.1018
H4A H 1.1069 -0.1645 -0.0627
N3A N 1.2649(3) -0.0691(3) -0.10193(18)
H5A H 1.2091 -0.0372 -0.0798
H6A H 1.2917 -0.0373 -0.1290
N4A N 1.3126(3) -0.2405(3) -0.08427(19)
H7A H 1.3680 -0.2753 -0.1045
H8A H 1.2756 -0.2711 -0.0657
N5A N 1.2052(7) 0.4577(6) -0.0416(4)
H9A H 1.1587 0.4832 -0.0634
H10A H 1.2427 0.4904 -0.0398
N6A N 1.2172(3) 0.2976(4) 0.0114(5)
H11A H 1.2533 0.2942 0.0417
H12A H 1.2103 0.2475 0.0046
N7A N 0.6646(7) 0.9423(6) -0.1868(5)
H13A H 0.6347 0.9484 -0.2207
H14A H 0.7181 0.9574 -0.1982
N8A N 0.6084(5) 0.8707(4) -0.0715(3)
H15A H 0.6426 0.8782 -0.0424
H16A H 0.5728 0.8378 -0.0552
N9A N 0.8367(2) 0.8763(2) -0.37122(18)
H17A H 0.7977 0.9135 -0.3410
H18A H 0.8094 0.8801 -0.4062
N10A N 0.9776(2) 0.7841(2) -0.30995(18)
H19A H 1.0321 0.7465 -0.3286
H20A H 0.9729 0.7806 -0.2670
N11A N 0.6579(2) 0.7276(2) -0.54499(16)
H21A H 0.6620 0.6752 -0.5555
H22A H 0.6967 0.7456 -0.5756
N12A N 0.5858(2) 0.8412(2) -0.44127(17)
H23A H 0.6059 0.8825 -0.4288
H24A H 0.5386 0.8350 -0.4104
N13A N 1.2330(2) 0.3735(2) -0.28114(16)
H25A H 1.2713 0.3349 -0.3106
H26A H 1.2371 0.3534 -0.2417
N14A N 1.0918(2) 0.5214(2) -0.26964(16)
H27A H 1.0471 0.5395 -0.2342
H28A H 1.0762 0.5561 -0.3014
N15A N 0.8585(2) 0.1293(2) -0.46677(15)
H29A H 0.8423 0.0929 -0.4387
H30A H 0.9198 0.1076 -0.4859
N16A N 0.7078(2) 0.2721(2) -0.44843(17)
H31A H 0.7024 0.3150 -0.4748
H32A H 0.6611 0.2875 -0.4137
N17A N 0.6019(2) 0.4288(2) -0.06254(17)
H33A H 0.6448 0.4121 -0.0363
H34A H 0.5743 0.3885 -0.0645
C1A C 1.1294(4) -0.2727(4) -0.1668(4)
H35A H 1.1003 -0.2937 -0.1976
H36A H 1.1441 -0.3145 -0.1350
C2A C 1.0580(4) -0.1933(4) -0.1334(4)
H37A H 1.0104 -0.2076 -0.1014
H38A H 1.0256 -0.1593 -0.1648
C3A C 1.3283(3) -0.10999(17) -0.0585(2)
H39A H 1.3926 -0.1123 -0.0791
H40A H 1.3127 -0.0743 -0.0203
C4A C 1.3308(4) -0.19428(19) -0.0367(3)
H41A H 1.2833 -0.1904 0.0020
H42A H 1.3929 -0.2222 -0.0263
C5A C 1.1610(3) 0.4349(2) 0.0304(5)
H43A H 1.1097 0.4825 0.0500
H44A H 1.2101 0.4227 0.0567
C6A C 1.1232(2) 0.36168(19) 0.0292(5)
H45A H 1.0834 0.3660 -0.0030
H46A H 1.0888 0.3527 0.0709
C7A C 0.5997(8) 0.9967(8) -0.1300(6)
H47A H 0.5558 1.0442 -0.1457
H48A H 0.6378 1.0167 -0.1052
C8A C 0.5479(9) 0.9510(8) -0.0903(6)
H49A H 0.5138 0.9841 -0.0516
H50A H 0.5010 0.9408 -0.1127
C9A C 0.9320(3) 0.8906(3) -0.3877(2)
H51A H 0.9701 0.8565 -0.4250
H52A H 0.9249 0.9483 -0.3973
C10A C 0.9798(3) 0.8674(3) -0.3292(2)
H53A H 0.9465 0.9070 -0.2940
H54A H 1.0453 0.8688 -0.3396
C11A C 0.5589(3) 0.7810(4) -0.5398(3)
H55A H 0.5434 0.7926 -0.5823
H56A H 0.5152 0.7536 -0.5163
C12A C 0.5502(4) 0.8612(3) -0.5046(2)
H57A H 0.4841 0.8952 -0.4962
H58A H 0.5876 0.8920 -0.5310
C13A C 1.2607(4) 0.4523(3) -0.2879(3)
H59A H 1.2754 0.4632 -0.3332
H60A H 1.3178 0.4452 -0.2699
C14A C 1.1872(3) 0.5217(3) -0.2564(3)
H61A H 1.1862 0.5198 -0.2104
H62A H 1.2002 0.5725 -0.2714
C15A C 0.7963(3) 0.1481(3) -0.5146(2)
H63A H 0.8218 0.1783 -0.5493
H64A H 0.7927 0.0971 -0.5327
C16A C 0.6972(3) 0.2002(3) -0.4822(2)
H65A H 0.6679 0.1674 -0.4517
H66A H 0.6570 0.2192 -0.5141
C17A C 0.5257(3) 0.5070(3) -0.03294(19)
O1 O 0.3000(2) 0.6140(2) 0.57427(17)
loop_
_geom_bond_atom_site_label_1
_geom_bond_atom_site_label_2
_geom_bond_site_symmetry_1
_geom_bond_site_symmetry_2
W1 O16 1_555 1_555
W2 O21 1_555 1_555
W3 O20 1_555 1_555
W4 O28 1_555 1_555
W5 O18 1_555 1_555
W6 O17 1_555 1_555
W7 O23 1_555 1_555
W8 O23 1_555 1_555
W9 O28 1_555 1_555
W10 O53 1_555 1_555
W11 O56 1_555 1_555
W12 O61 1_555 1_555
W13 O62 1_555 1_555
W14 O61 1_555 1_555
W15 O73 1_555 1_555
W16 O75 1_555 1_555
W17 O68 1_555 1_555
As1 O19 1_555 1_555
As2 O32 1_555 1_555
Ni1 O9 1_555 1_555
Ni2 O10 1_555 1_555
Ni3 O13 1_555 1_555
Ni4 O54 1_555 1_555
Ni5 O14 1_555 1_555
Ni6 O32 1_555 1_555
Ni7 O15 1_555 1_555
Ni8 O39 1_555 1_555
Ni9 O42 1_555 1_555
Ni10 O44 1_555 1_555
Ni11 O48 1_555 1_555
Ni12 O36 1_555 1_555
Ni13 O36 1_555 1_555
O11 Ni2 1_555 1_555
O12 Ni2 1_555 1_555
O16 Ni1 1_555 1_555
O17 W1 1_555 1_555
O18 W1 1_555 1_555
O19 W1 1_555 1_555
O20 W1 1_555 1_555
O21 W1 1_555 1_555
O22 W2 1_555 1_555
O23 W2 1_555 1_555
O24 W2 1_555 1_555
O25 W2 1_555 1_555
O26 W2 1_555 1_555
O27 W3 1_555 1_555
O28 W3 1_555 1_555
O29 W3 1_555 1_555
O30 W3 1_555 1_555
O31 W4 1_555 1_555
O32 Ni7 1_555 1_555
O33 W4 1_555 1_555
O34 W4 1_555 1_555
O35 W5 1_555 1_555
O36 W5 1_555 1_555
O37 W5 1_555 1_555
O38 W6 1_555 1_555
O39 W6 1_555 1_555
O40 W6 1_555 1_555
O41 W7 1_555 1_555
O42 W7 1_555 1_555
O43 W7 1_555 1_555
O44 W8 1_555 1_555
O45 W8 1_555 1_555
O46 W8 1_555 1_555
O47 W9 1_555 1_555
O48 W9 1_555 1_555
O49 As1 1_555 1_555
O50 Ni11 1_555 1_555
O51 Ni8 1_555 1_555
O52 As2 1_555 1_555
O53 Ni12 1_555 1_555
O54 Ni6 1_555 1_555
O55 W10 1_555 1_555
O56 W10 1_555 1_555
O57 W10 1_555 1_555
O58 W11 1_555 1_555
O59 W11 1_555 1_555
O60 Ni5 1_555 1_555
O62 W12 1_555 1_555
O63 W12 1_555 1_555
O64 W12 1_555 1_555
O65 W12 1_555 1_555
O66 W12 1_555 1_555
O67 W13 1_555 1_555
O68 W13 1_555 1_555
O69 W13 1_555 1_555
O70 W13 1_555 1_555
O71 W14 1_555 1_555
O72 W14 1_555 1_555
O73 W14 1_555 1_555
O74 W15 1_555 1_555
O75 W15 1_555 1_555
O76 W15 1_555 1_555
O77 W15 1_555 1_555
O78 W15 1_555 1_555
O79 W16 1_555 1_555
O80 W16 1_555 1_555
O81 W16 1_555 1_555
O82 W16 1_555 1_555
O83 W17 1_555 1_555
O84 W17 1_555 1_555
O85 W4 1_555 1_555
N1 Ni1 1_555 1_555
H1 N1 1_555 1_555
H2 N1 1_555 1_555
N2 Ni1 1_555 1_555
H3 N2 1_555 1_555
H4 N2 1_555 1_555
N3 Ni1 1_555 1_555
H5 N3 1_555 1_555
H6 N3 1_555 1_555
N4 Ni1 1_555 1_555
H7 N4 1_555 1_555
H8 N4 1_555 1_555
N5 Ni2 1_555 1_555
H9 N5 1_555 1_555
H10 N5 1_555 1_555
N6 Ni2 1_555 1_555
H11 N6 1_555 1_555
H12 N6 1_555 1_555
N7 Ni3 1_555 1_555
H13 N7 1_555 1_555
H14 N7 1_555 1_555
N8 Ni3 1_555 1_555
H15 N8 1_555 1_555
H16 N8 1_555 1_555
N9 Ni4 1_555 1_555
H17 N9 1_555 1_555
H18 N9 1_555 1_555
N10 Ni4 1_555 1_555
H19 N10 1_555 1_555
H20 N10 1_555 1_555
N11 Ni5 1_555 1_555
H21 N11 1_555 1_555
H22 N11 1_555 1_555
N12 Ni5 1_555 1_555
H23 N12 1_555 1_555
H24 N12 1_555 1_555
N13 Ni8 1_555 1_555
H25 N13 1_555 1_555
H26 N13 1_555 1_555
N14 Ni8 1_555 1_555
H27 N14 1_555 1_555
H28 N14 1_555 1_555
N15 Ni12 1_555 1_555
H29 N15 1_555 1_555
H30 N15 1_555 1_555
N16 Ni12 1_555 1_555
H31 N16 1_555 1_555
H32 N16 1_555 1_555
N17 Ni10 1_555 1_555
H33 N17 1_555 1_555
H34 N17 1_555 1_555
C1 N1 1_555 1_555
H35 C1 1_555 1_555
H36 C1 1_555 1_555
C2 N2 1_555 1_555
H37 C2 1_555 1_555
H38 C2 1_555 1_555
C3 N3 1_555 1_555
H39 C3 1_555 1_555
H40 C3 1_555 1_555
C4 N4 1_555 1_555
H41 C4 1_555 1_555
H42 C4 1_555 1_555
C5 N5 1_555 1_555
H43 C5 1_555 1_555
H44 C5 1_555 1_555
C6 N6 1_555 1_555
H45 C6 1_555 1_555
H46 C6 1_555 1_555
C7 N7 1_555 1_555
H47 C7 1_555 1_555
H48 C7 1_555 1_555
C8 N8 1_555 1_555
H49 C8 1_555 1_555
H50 C8 1_555 1_555
C9 N9 1_555 1_555
H51 C9 1_555 1_555
H52 C9 1_555 1_555
C10 N10 1_555 1_555
H53 C10 1_555 1_555
H54 C10 1_555 1_555
C11 N11 1_555 1_555
H55 C11 1_555 1_555
H56 C11 1_555 1_555
C12 N12 1_555 1_555
H57 C12 1_555 1_555
H58 C12 1_555 1_555
C13 N13 1_555 1_555
H59 C13 1_555 1_555
H60 C13 1_555 1_555
C14 N14 1_555 1_555
H61 C14 1_555 1_555
H62 C14 1_555 1_555
C15 N15 1_555 1_555
H63 C15 1_555 1_555
H64 C15 1_555 1_555
C16 N16 1_555 1_555
H65 C16 1_555 1_555
H66 C16 1_555 1_555
C17 N17 1_555 1_555
W1A O16A 1_555 1_555
W2A O21A 1_555 1_555
W3A O20A 1_555 1_555
W4A O28A 1_555 1_555
W5A O18A 1_555 1_555
W6A O17A 1_555 1_555
W7A O23A 1_555 1_555
W8A O23A 1_555 1_555
W9A O28A 1_555 1_555
W10A O53A 1_555 1_555
W10A_2 O54 1_555 1_555
W10_2 O54A 1_555 1_555
W11A O56A 1_555 1_555
W11A_2 O57 1_555 1_555
W11_2 O57A 1_555 1_555
W12A O61A 1_555 1_555
W13A O62A 1_555 1_555
W14A O61A 1_555 1_555
W15A O73A 1_555 1_555
W16A O75A 1_555 1_555
W17A O68A 1_555 1_555
As1A O19A 1_555 1_555
As2A O32A 1_555 1_555
Ni1A O9A 1_555 1_555
Ni2A O10A 1_555 1_555
Ni3A O13A 1_555 1_555
Ni4A O54A 1_555 1_555
Ni5A O14A 1_555 1_555
Ni6A O32A 1_555 1_555
Ni7A O15A 1_555 1_555
Ni8A O39A 1_555 1_555
Ni9A O42A 1_555 1_555
Ni10A O44A 1_555 1_555
Ni11A O48A 1_555 1_555
Ni12A O36A 1_555 1_555
Ni13A O36A 1_555 1_555
O11A Ni2A 1_555 1_555
O12A Ni2A 1_555 1_555
O16A Ni1A 1_555 1_555
O17A W1A 1_555 1_555
O18A W1A 1_555 1_555
O19A W1A 1_555 1_555
O20A W1A 1_555 1_555
O21A W1A 1_555 1_555
O22A W2A 1_555 1_555
O23A W2A 1_555 1_555
O24A W2A 1_555 1_555
O25A W2A 1_555 1_555
O26A W2A 1_555 1_555
O27A W3A 1_555 1_555
O28A W3A 1_555 1_555
O29A W3A 1_555 1_555
O30A W3A 1_555 1_555
O31A W4A 1_555 1_555
O32A Ni7A 1_555 1_555
O33A W4A 1_555 1_555
O34A W4A 1_555 1_555
O35A W5A 1_555 1_555
O36A W5A 1_555 1_555
O37A W5A 1_555 1_555
O38A W6A 1_555 1_555
O39A W6A 1_555 1_555
O40A W6A 1_555 1_555
O41A W7A 1_555 1_555
O42A W7A 1_555 1_555
O43A W7A 1_555 1_555
O44A W8A 1_555 1_555
O45A W8A 1_555 1_555
O46A W8A 1_555 1_555
O47A W9A 1_555 1_555
O48A W9A 1_555 1_555
O49A As1A 1_555 1_555
O50A Ni11A 1_555 1_555
O51A Ni8A 1_555 1_555
O52A As2A 1_555 1_555
O53A Ni12A 1_555 1_555
O54A Ni6A 1_555 1_555
O54A_2 W10 1_555 1_555
O54_2 W10A 1_555 1_555
O55A W10A 1_555 1_555
O56A W10A 1_555 1_555
O57A W10A 1_555 1_555
O57A_2 W11 1_555 1_555
O57_2 W10_2 1_555 1_555
O58A W10_2 1_555 1_555
O58A_2 W10 1_555 1_555
O58_2 W10A 1_555 1_555
O59A W11A 1_555 1_555
O60A W11_2 1_555 1_555
O60A_2 W11 1_555 1_555
O60_2 W11A 1_555 1_555
O62A W12A 1_555 1_555
O63A W12A 1_555 1_555
O64A W12A 1_555 1_555
O65A W12A 1_555 1_555
O66A W12A 1_555 1_555
O67A W13A 1_555 1_555
O68A W13A 1_555 1_555
O69A W13A 1_555 1_555
O70A W13A 1_555 1_555
O71A W14A 1_555 1_555
O72A W14A 1_555 1_555
O73A W14A 1_555 1_555
O74A W15A 1_555 1_555
O75A W15A 1_555 1_555
O76A W15A 1_555 1_555
O77A W15A 1_555 1_555
O78A W15A 1_555 1_555
O79A W16A 1_555 1_555
O80A W16A 1_555 1_555
O81A W16A 1_555 1_555
O82A W16A 1_555 1_555
O83A W17A 1_555 1_555
O84A W17A 1_555 1_555
O85A W4A 1_555 1_555
N1A Ni1A 1_555 1_555
H1A N1A 1_555 1_555
H2A N1A 1_555 1_555
N2A Ni1A 1_555 1_555
H3A N2A 1_555 1_555
H4A N2A 1_555 1_555
N3A Ni1A 1_555 1_555
H5A N3A 1_555 1_555
H6A N3A 1_555 1_555
N4A Ni1A 1_555 1_555
H7A N4A 1_555 1_555
H8A N4A 1_555 1_555
N5A Ni2A 1_555 1_555
H9A N5A 1_555 1_555
H10A N5A 1_555 1_555
N6A Ni2A 1_555 1_555
H11A N6A 1_555 1_555
H12A N6A 1_555 1_555
N7A Ni3A 1_555 1_555
H13A N7A 1_555 1_555
H14A N7A 1_555 1_555
N8A Ni3A 1_555 1_555
H15A N8A 1_555 1_555
H16A N8A 1_555 1_555
N9A Ni4A 1_555 1_555
H17A N9A 1_555 1_555
H18A N9A 1_555 1_555
N10A Ni4A 1_555 1_555
H19A N10A 1_555 1_555
H20A N10A 1_555 1_555
N11A Ni5A 1_555 1_555
H21A N11A 1_555 1_555
H22A N11A 1_555 1_555
N12A Ni5A 1_555 1_555
H23A N12A 1_555 1_555
H24A N12A 1_555 1_555
N13A Ni8A 1_555 1_555
H25A N13A 1_555 1_555
H26A N13A 1_555 1_555
N14A Ni8A 1_555 1_555
H27A N14A 1_555 1_555
H28A N14A 1_555 1_555
N15A Ni12A 1_555 1_555
H29A N15A 1_555 1_555
H30A N15A 1_555 1_555
N16A Ni12A 1_555 1_555
H31A N16A 1_555 1_555
H32A N16A 1_555 1_555
N17A Ni10A 1_555 1_555
H33A N17A 1_555 1_555
H34A N17A 1_555 1_555
C1A N1A 1_555 1_555
H35A C1A 1_555 1_555
H36A C1A 1_555 1_555
C2A N2A 1_555 1_555
H37A C2A 1_555 1_555
H38A C2A 1_555 1_555
C3A N3A 1_555 1_555
H39A C3A 1_555 1_555
H40A C3A 1_555 1_555
C4A N4A 1_555 1_555
H41A C4A 1_555 1_555
H42A C4A 1_555 1_555
C5A N5A 1_555 1_555
H43A C5A 1_555 1_555
H44A C5A 1_555 1_555
C6A N6A 1_555 1_555
H45A C6A 1_555 1_555
H46A C6A 1_555 1_555
C7A N7A 1_555 1_555
H47A C7A 1_555 1_555
H48A C7A 1_555 1_555
C8A N8A 1_555 1_555
H49A C8A 1_555 1_555
H50A C8A 1_555 1_555
C9A N9A 1_555 1_555
H51A C9A 1_555 1_555
H52A C9A 1_555 1_555
C10A N10A 1_555 1_555
H53A C10A 1_555 1_555
H54A C10A 1_555 1_555
C11A N11A 1_555 1_555
H55A C11A 1_555 1_555
H56A C11A 1_555 1_555
C12A N12A 1_555 1_555
H57A C12A 1_555 1_555
H58A C12A 1_555 1_555
C13A N13A 1_555 1_555
H59A C13A 1_555 1_555
H60A C13A 1_555 1_555
C14A N14A 1_555 1_555
H61A C14A 1_555 1_555
H62A C14A 1_555 1_555
C15A N15A 1_555 1_555
H63A C15A 1_555 1_555
H64A C15A 1_555 1_555
C16A N16A 1_555 1_555
H65A C16A 1_555 1_555
H66A C16A 1_555 1_555
C17A C17 1_555 1_555
W3 O26 1_555 1_555
W4 O30 1_555 1_555
W5 O19 1_555 1_555
W5 O34 1_555 1_555
W6 O19 1_555 1_555
W6 O37 1_555 1_555
W7 O24 1_555 1_555
W7 O40 1_555 1_555
W8 O25 1_555 1_555
W8 O43 1_555 1_555
W9 O29 1_555 1_555
W9 O33 1_555 1_555
W9 O46 1_555 1_555
W11 O58A_2 1_555 1_555
W13 O66 1_555 1_555
W14 O62 1_555 1_555
W14 O70 1_555 1_555
W16 O77 1_555 1_555
W17 O75 1_555 1_555
W17 O78 1_555 1_555
W17 O79 1_555 1_555
As1 O23 1_555 1_555
As1 O28 1_555 1_555
As2 O62 1_555 1_555
As2 O75 1_555 1_555
Ni2 O41 1_555 1_555
Ni3 O77 1_555 1_555
Ni3 O78 1_555 1_555
Ni3 O79 1_555 1_555
Ni4 O79 1_555 1_555
Ni4 O82 1_555 1_555
Ni4 O84 1_555 1_555
Ni5 O67 1_555 1_555
Ni5 O84 1_555 1_555
Ni6 O58 1_555 1_555
Ni6 O60 1_555 1_555
Ni6 O82 1_555 1_555
Ni6 O84 1_555 1_555
Ni7 O57 1_555 1_555
Ni7 O60 1_555 1_555
Ni7 O65 1_555 1_555
Ni7 O67 1_555 1_555
Ni8 O42 1_555 1_555
Ni8 O59 1_555 1_555
Ni9 O44 1_555 1_555
Ni9 O49 1_555 1_555
Ni9 O51 1_555 1_555
Ni9 O52 1_555 1_555
Ni9 O80 1_555 1_555
Ni10 O48 1_555 1_555
Ni10 O52 1_555 1_555
Ni10 O72 1_555 1_555
Ni10 O76 1_555 1_555
Ni11 O49 1_555 1_555
Ni11 O52 1_555 1_555
Ni11 O63 1_555 1_555
Ni11 O85 1_555 1_555
Ni12 O50 1_555 1_555
Ni12 O85 1_555 1_555
Ni13 O39 1_555 1_555
Ni13 O49 1_555 1_555
Ni13 O50 1_555 1_555
Ni13 O51 1_555 1_555
Ni13 O56 1_555 1_555
O58 W10A_2 1_555 1_555
O58 W11A_2 1_555 1_555
O60 W11A_2 1_555 1_555
C1 C2 1_555 1_555
C3 C4 1_555 1_555
C5 C6 1_555 1_555
C7 C8 1_555 1_555
C9 C10 1_555 1_555
C11 C12 1_555 1_555
C13 C14 1_555 1_555
C15 C16 1_555 1_555
W3A O26A 1_555 1_555
W4A O30A 1_555 1_555
W5A O19A 1_555 1_555
W5A O34A 1_555 1_555
W6A O19A 1_555 1_555
W6A O37A 1_555 1_555
W7A O24A 1_555 1_555
W7A O40A 1_555 1_555
W8A O25A 1_555 1_555
W8A O43A 1_555 1_555
W9A O29A 1_555 1_555
W9A O33A 1_555 1_555
W9A O46A 1_555 1_555
W10A_2 O57A_2 1_555 1_555
W11A O57_2 1_555 1_555
W11A O58A 1_555 1_555
W11A O58_2 1_555 1_555
W11A_2 O58A_2 1_555 1_555
W11_2 O58A 1_555 1_555
W11_2 O58_2 1_555 1_555
W13A O66A 1_555 1_555
W14A O62A 1_555 1_555
W14A O70A 1_555 1_555
W16A O77A 1_555 1_555
W17A O75A 1_555 1_555
W17A O78A 1_555 1_555
W17A O79A 1_555 1_555
As1A O23A 1_555 1_555
As1A O28A 1_555 1_555
As2A O62A 1_555 1_555
As2A O75A 1_555 1_555
Ni2A O41A 1_555 1_555
Ni3A O77A 1_555 1_555
Ni3A O78A 1_555 1_555
Ni3A O79A 1_555 1_555
Ni4A O79A 1_555 1_555
Ni4A O82A 1_555 1_555
Ni4A O84A 1_555 1_555
Ni5A O60A 1_555 1_555
Ni5A O67A 1_555 1_555
Ni5A O84A 1_555 1_555
Ni6A O58A 1_555 1_555
Ni6A O60A 1_555 1_555
Ni6A O82A 1_555 1_555
Ni6A O84A 1_555 1_555
Ni7A O57A 1_555 1_555
Ni7A O60A 1_555 1_555
Ni7A O65A 1_555 1_555
Ni7A O67A 1_555 1_555
Ni8A O42A 1_555 1_555
Ni8A O59A 1_555 1_555
Ni9A O44A 1_555 1_555
Ni9A O49A 1_555 1_555
Ni9A O51A 1_555 1_555
Ni9A O52A 1_555 1_555
Ni9A O80A 1_555 1_555
Ni10A O48A 1_555 1_555
Ni10A O52A 1_555 1_555
Ni10A O72A 1_555 1_555
Ni10A O76A 1_555 1_555
Ni11A O49A 1_555 1_555
Ni11A O52A 1_555 1_555
Ni11A O63A 1_555 1_555
Ni11A O85A 1_555 1_555
Ni12A O50A 1_555 1_555
Ni12A O85A 1_555 1_555
Ni13A O39A 1_555 1_555
Ni13A O49A 1_555 1_555
Ni13A O50A 1_555 1_555
Ni13A O51A 1_555 1_555
Ni13A O56A 1_555 1_555
N17A C17A 1_555 1_555
C1A C2A 1_555 1_555
C3A C4A 1_555 1_555
C5A C6A 1_555 1_555
C7A C8A 1_555 1_555
C9A C10A 1_555 1_555
C11A C12A 1_555 1_555
C13A C14A 1_555 1_555
C15A C16A 1_555 1_555

#END
