
#######################################################################
#
#                 Cambridge Crystallographic Data Centre
#                                CCDC 
#
#######################################################################
#
# If this CIF has been generated from an entry in the Cambridge 
# Structural Database, then it will include bibliographic, chemical, 
# crystal, experimental, refinement or atomic coordinate data resulting 
# from the CCDC's data processing and validation procedures.
#
#######################################################################

data_RAXBUP
_symmetry_cell_setting           monoclinic
_symmetry_space_group_name_H-M   'C 2/c'
_symmetry_Int_Tables_number      15
_space_group_name_Hall           '-C 2yn'
loop_
_symmetry_equiv_pos_site_id
_symmetry_equiv_pos_as_xyz
1 x,y,z
2 -x,y,1/2-z
3 1/2+x,1/2+y,z
4 1/2-x,1/2+y,1/2-z
5 -x,-y,-z
6 x,-y,1/2+z
7 1/2-x,1/2-y,-z
8 1/2+x,1/2-y,1/2+z
_cell_length_a                   14.330(5)
_cell_length_b                   13.962(5)
_cell_length_c                   17.424(6)
_cell_angle_alpha                90
_cell_angle_beta                 98.347(4)
_cell_angle_gamma                90
_cell_volume                     3449.19
loop_
_atom_site_label
_atom_site_type_symbol
_atom_site_fract_x
_atom_site_fract_y
_atom_site_fract_z
Zn1 Zn 0.926757(17) 0.392409(17) 0.429868(14)
Zn2 Zn 1.0000 0.54034(2) 0.2500
P1 P 0.94293(4) 0.62369(4) 0.40501(3)
O1 O 1.00291(11) 0.66118(12) 0.47775(9)
O2 O 0.89969(12) 0.52703(11) 0.41598(10)
O3 O 0.99572(11) 0.62886(10) 0.33546(9)
O4 O 0.61662(11) 0.96404(11) 0.27898(10)
O5 O 0.53907(12) 0.88791(11) 0.36123(11)
C1 C 0.84574(15) 0.70741(15) 0.38476(12)
C2 C 0.85267(16) 0.78790(16) 0.33837(14)
H1 H 0.9098 0.7999 0.3184
C3 C 0.77754(16) 0.85050(16) 0.32098(14)
H2 H 0.7833 0.9041 0.2885
C4 C 0.69393(15) 0.83556(16) 0.35066(12)
C5 C 0.68683(17) 0.75688(17) 0.39829(13)
H3 H 0.6306 0.7464 0.4200
C6 C 0.76175(17) 0.69363(17) 0.41413(13)
H4 H 0.7554 0.6394 0.4459
C7 C 0.61042(16) 0.90069(15) 0.32992(13)
N1 N 0.86464(13) 0.27637(14) 0.36484(11)
N2 N 0.78349(14) 0.38550(13) 0.46005(12)
C8 C 0.91112(19) 0.21837(18) 0.32234(15)
H5 H 0.9760 0.2304 0.3204
C9 C 0.8684(2) 0.14185(19) 0.28119(16)
H6 H 0.9033 0.1026 0.2510
C10 C 0.7760(2) 0.12326(18) 0.28436(16)
H7 H 0.7453 0.0712 0.2560
C11 C 0.72735(19) 0.18034(18) 0.32890(16)
H8 H 0.6630 0.1675 0.3324
C12 C 0.77345(16) 0.25764(16) 0.36909(14)
C13 C 0.72671(16) 0.32321(17) 0.41780(14)
C14 C 0.63055(19) 0.3210(2) 0.42139(18)
H9 H 0.5908 0.2764 0.3912
C15 C 0.5940(2) 0.3841(2) 0.4691(2)
H10 H 0.5285 0.3832 0.4728
C16 C 0.6526(2) 0.4492(2) 0.51204(19)
H11 H 0.6283 0.4941 0.5450
C17 C 0.7471(2) 0.44720(19) 0.50567(16)
H12 H 0.7880 0.4916 0.5350
Zn1D Zn 1.073243(17) 0.607591(17) 0.570132(14)
Zn1B Zn 0.426757(17) 0.892409(17) 0.429868(14)
Zn1A Zn 1.073243(17) 0.392409(17) 0.070132(14)
Zn1E Zn 0.926757(17) 0.607591(17) -0.070132(14)
Zn1C Zn 1.573243(17) 0.892409(17) 0.070132(14)
Zn2B Zn 0.5000 1.04034(2) 0.2500
Zn2B_2 Zn 1.5000 1.04034(2) 0.2500
P1A P 1.05707(4) 0.62369(4) 0.09499(3)
O1D O 0.99709(11) 0.33882(12) 0.52225(9)
O1A O 0.99709(11) 0.66118(12) 0.02225(9)
O1E O 1.00291(11) 0.33882(12) -0.02225(9)
O2A O 1.10031(12) 0.52703(11) 0.08402(10)
O3A O 1.00428(11) 0.62886(10) 0.16454(9)
O4B O 1.11662(11) 0.46404(11) 0.27898(10)
O4C O 0.88338(11) 0.46404(11) 0.22102(10)
O4A O 1.38338(11) 0.96404(11) 0.22102(10)
O5B O 1.03907(12) 0.38791(11) 0.36123(11)
O5C O 0.96093(12) 0.38791(11) 0.13877(11)
O5A O 1.46093(12) 0.88791(11) 0.13877(11)
C1A C 1.15426(15) 0.70741(15) 0.11524(12)
C2A C 1.14733(16) 0.78790(16) 0.16163(14)
H1A H 1.0902 0.7999 0.1816
C3A C 1.22246(16) 0.85050(16) 0.17902(14)
H2A H 1.2167 0.9041 0.2115
C4A C 1.30607(15) 0.83556(16) 0.14934(12)
C5A C 1.31317(17) 0.75688(17) 0.10171(13)
H3A H 1.3694 0.7464 0.0800
C6A C 1.23825(17) 0.69363(17) 0.08587(13)
H4A H 1.2446 0.6394 0.0541
C7A C 1.38958(16) 0.90069(15) 0.17008(13)
N1A N 1.13536(13) 0.27637(14) 0.13516(11)
N2A N 1.21651(14) 0.38550(13) 0.03995(12)
C8A C 1.08888(19) 0.21837(18) 0.17766(15)
H5A H 1.0240 0.2304 0.1796
C9A C 1.1316(2) 0.14185(19) 0.21881(16)
H6A H 1.0967 0.1026 0.2490
C10A C 1.2240(2) 0.12326(18) 0.21564(16)
H7A H 1.2547 0.0712 0.2440
C11A C 1.27265(19) 0.18034(18) 0.17110(16)
H8A H 1.3370 0.1675 0.1676
C12A C 1.22655(16) 0.25764(16) 0.13091(14)
C13A C 1.27329(16) 0.32321(17) 0.08220(14)
C14A C 1.36945(19) 0.3210(2) 0.07861(18)
H9A H 1.4092 0.2764 0.1088
C15A C 1.4060(2) 0.3841(2) 0.0309(2)
H10A H 1.4715 0.3832 0.0272
C16A C 1.3474(2) 0.4492(2) -0.01204(19)
H11A H 1.3717 0.4941 -0.0450
C17A C 1.2529(2) 0.44720(19) -0.00567(16)
H12A H 1.2120 0.4916 -0.0350
loop_
_geom_bond_atom_site_label_1
_geom_bond_atom_site_label_2
_geom_bond_site_symmetry_1
_geom_bond_site_symmetry_2
Zn1 O2 1_555 1_555
Zn2 O3 1_555 1_555
P1 O1 1_555 1_555
O1 Zn1D 1_555 1_555
O2 P1 1_555 1_555
O3 P1 1_555 1_555
O4 C7 1_555 1_555
O5 C7 1_555 1_555
C1 P1 1_555 1_555
C2 C1 1_555 1_555
H1 C2 1_555 1_555
C3 C2 1_555 1_555
H2 C3 1_555 1_555
C4 C3 1_555 1_555
C5 C4 1_555 1_555
H3 C5 1_555 1_555
C6 C1 1_555 1_555
H4 C6 1_555 1_555
C7 C4 1_555 1_555
N1 Zn1 1_555 1_555
N2 Zn1 1_555 1_555
C8 N1 1_555 1_555
H5 C8 1_555 1_555
C9 C8 1_555 1_555
H6 C9 1_555 1_555
C10 C9 1_555 1_555
H7 C10 1_555 1_555
C11 C10 1_555 1_555
H8 C11 1_555 1_555
C12 N1 1_555 1_555
C13 N2 1_555 1_555
C14 C13 1_555 1_555
H9 C14 1_555 1_555
C15 C14 1_555 1_555
H10 C15 1_555 1_555
C16 C15 1_555 1_555
H11 C16 1_555 1_555
C17 N2 1_555 1_555
H12 C17 1_555 1_555
Zn1B O5 1_555 1_555
Zn1A O1E 1_555 1_555
Zn1E O1A 1_555 1_555
Zn1C O5A 1_555 1_555
Zn2B O4 1_555 1_555
Zn2B_2 O4A 1_555 1_555
P1A O1A 1_555 1_555
O1D Zn1 1_555 1_555
O2A Zn1A 1_555 1_555
O3A Zn2 1_555 1_555
O4B Zn2 1_555 1_555
O4C Zn2 1_555 1_555
O4A C7A 1_555 1_555
O5B Zn1 1_555 1_555
O5C Zn1A 1_555 1_555
O5A C7A 1_555 1_555
C1A P1A 1_555 1_555
C2A C1A 1_555 1_555
H1A C2A 1_555 1_555
C3A C2A 1_555 1_555
H2A C3A 1_555 1_555
C4A C3A 1_555 1_555
C5A C4A 1_555 1_555
H3A C5A 1_555 1_555
C6A C1A 1_555 1_555
H4A C6A 1_555 1_555
C7A C4A 1_555 1_555
N1A Zn1A 1_555 1_555
N2A Zn1A 1_555 1_555
C8A N1A 1_555 1_555
H5A C8A 1_555 1_555
C9A C8A 1_555 1_555
H6A C9A 1_555 1_555
C10A C9A 1_555 1_555
H7A C10A 1_555 1_555
C11A C10A 1_555 1_555
H8A C11A 1_555 1_555
C12A N1A 1_555 1_555
C13A N2A 1_555 1_555
C14A C13A 1_555 1_555
H9A C14A 1_555 1_555
C15A C14A 1_555 1_555
H10A C15A 1_555 1_555
C16A C15A 1_555 1_555
H11A C16A 1_555 1_555
C17A N2A 1_555 1_555
H12A C17A 1_555 1_555
C5 C6 1_555 1_555
C11 C12 1_555 1_555
C12 C13 1_555 1_555
C16 C17 1_555 1_555
P1A O2A 1_555 1_555
P1A O3A 1_555 1_555
C5A C6A 1_555 1_555
C11A C12A 1_555 1_555
C12A C13A 1_555 1_555
C16A C17A 1_555 1_555

#END
