
#######################################################################
#
#                 Cambridge Crystallographic Data Centre
#                                CCDC 
#
#######################################################################
#
# If this CIF has been generated from an entry in the Cambridge 
# Structural Database, then it will include bibliographic, chemical, 
# crystal, experimental, refinement or atomic coordinate data resulting 
# from the CCDC's data processing and validation procedures.
#
#######################################################################

data_RAXCAW
_symmetry_cell_setting           monoclinic
_symmetry_space_group_name_H-M   'C 2/c'
_symmetry_Int_Tables_number      15
_space_group_name_Hall           '-C 2yn'
loop_
_symmetry_equiv_pos_site_id
_symmetry_equiv_pos_as_xyz
1 x,y,z
2 -x,y,1/2-z
3 1/2+x,1/2+y,z
4 1/2-x,1/2+y,1/2-z
5 -x,-y,-z
6 x,-y,1/2+z
7 1/2-x,1/2-y,-z
8 1/2+x,1/2-y,1/2+z
_cell_length_a                   17.804(6)
_cell_length_b                   19.340(12)
_cell_length_c                   10.242(7)
_cell_angle_alpha                90
_cell_angle_beta                 119.51(5)
_cell_angle_gamma                90
_cell_volume                     3069.11
loop_
_atom_site_label
_atom_site_type_symbol
_atom_site_fract_x
_atom_site_fract_y
_atom_site_fract_z
Zn1 Zn 0.61068(4) 0.55091(3) 0.47772(7)
P1 P 0.40667(9) 0.57122(6) 0.34552(16)
O1 O 0.5006(2) 0.58139(19) 0.4573(5)
O2 O 0.3915(3) 0.53038(19) 0.2081(5)
O3 O 0.3584(3) 0.53791(19) 0.4175(5)
O4 O 0.3031(4) 0.9092(3) 0.1356(8)
O5 O 0.1759(3) 0.8672(2) 0.0854(6)
C1 C 0.3626(3) 0.6576(2) 0.2892(6)
C2 C 0.4154(4) 0.7136(3) 0.3126(9)
H1 H 0.4750 0.7077 0.3637
C3 C 0.3804(4) 0.7804(3) 0.2597(8)
H2 H 0.4167 0.8174 0.2718
C4 C 0.2940(4) 0.7900(3) 0.1916(7)
C5 C 0.2410(4) 0.7355(3) 0.1706(8)
H3 H 0.1817 0.7426 0.1242
C6 C 0.2748(4) 0.6682(3) 0.2184(8)
H4 H 0.2377 0.6312 0.2019
C7 C 0.2563(5) 0.8616(3) 0.1352(8)
Zn1A Zn 0.38932(4) 0.55091(3) 0.02228(7)
Zn1D Zn 0.38932(4) 0.44909(3) 0.52228(7)
Zn1G Zn 0.11068(4) 0.94909(3) -0.02228(7)
Zn1E Zn 0.61068(4) 0.44909(3) -0.02228(7)
Zn1F Zn 0.88932(4) 0.94909(3) 0.52228(7)
P1A P 0.59333(9) 0.57122(6) 0.15448(16)
O1A O 0.4994(2) 0.58139(19) 0.0427(5)
O2A O 0.6085(3) 0.53038(19) 0.2919(5)
O3A O 0.6416(3) 0.53791(19) 0.0825(5)
O3D O 0.6416(3) 0.46209(19) 0.5825(5)
O3E O 0.3584(3) 0.46209(19) -0.0825(5)
O4A O 0.6969(4) 0.9092(3) 0.3644(8)
O5A O 0.8241(3) 0.8672(2) 0.4146(6)
O5G O 0.6759(3) 0.6328(2) 0.5854(6)
O5F O 0.3241(3) 0.6328(2) -0.0854(6)
C1A C 0.6374(3) 0.6576(2) 0.2108(6)
C2A C 0.5846(4) 0.7136(3) 0.1874(9)
H1A H 0.5250 0.7077 0.1363
C3A C 0.6196(4) 0.7804(3) 0.2403(8)
H2A H 0.5833 0.8174 0.2282
C4A C 0.7060(4) 0.7900(3) 0.3084(7)
C5A C 0.7590(4) 0.7355(3) 0.3294(8)
H3A H 0.8183 0.7426 0.3758
C6A C 0.7252(4) 0.6682(3) 0.2816(8)
H4A H 0.7623 0.6312 0.2981
C7A C 0.7437(5) 0.8616(3) 0.3648(8)
C8 C 0.5835(10) 0.6528(10) 0.7996(17)
H5 H 0.6279 0.6188 0.8252
H6 H 0.5973 0.6809 0.8858
H7 H 0.5796 0.6815 0.7199
N1 N 0.5000 0.6177(9) 0.7500
H8 H 0.4920 0.5898 0.6739
C8A C 0.4165(10) 0.6528(10) 0.7004(17)
H5A H 0.3721 0.6188 0.6748
H6A H 0.4027 0.6809 0.6142
H7A H 0.4204 0.6815 0.7801
H8A H 0.5080 0.5898 0.8261
O6 O 0.9430(17) 0.5901(14) 0.570(4)
O7 O 0.805(2) 0.472(2) 0.434(4)
loop_
_geom_bond_atom_site_label_1
_geom_bond_atom_site_label_2
_geom_bond_site_symmetry_1
_geom_bond_site_symmetry_2
Zn1 O1 1_555 1_555
P1 O1 1_555 1_555
O2 P1 1_555 1_555
O3 P1 1_555 1_555
O4 C7 1_555 1_555
O5 C7 1_555 1_555
C1 P1 1_555 1_555
C2 C1 1_555 1_555
H1 C2 1_555 1_555
C3 C2 1_555 1_555
H2 C3 1_555 1_555
C4 C3 1_555 1_555
C5 C4 1_555 1_555
H3 C5 1_555 1_555
C6 C1 1_555 1_555
H4 C6 1_555 1_555
C7 C4 1_555 1_555
C8 H5 1_555 1_555
H6 C8 1_555 1_555
H7 C8 1_555 1_555
N1 C8 1_555 1_555
H8 N1 1_555 1_555
Zn1A O2 1_555 1_555
Zn1D O3 1_555 1_555
Zn1G O5 1_555 1_555
Zn1E O3A 1_555 1_555
Zn1F O5A 1_555 1_555
P1A O1A 1_555 1_555
O1A Zn1A 1_555 1_555
O2A Zn1 1_555 1_555
O3A P1A 1_555 1_555
O3D Zn1 1_555 1_555
O3E Zn1A 1_555 1_555
O4A C7A 1_555 1_555
O5A C7A 1_555 1_555
O5G Zn1 1_555 1_555
O5F Zn1A 1_555 1_555
C1A P1A 1_555 1_555
C2A C1A 1_555 1_555
H1A C2A 1_555 1_555
C3A C2A 1_555 1_555
H2A C3A 1_555 1_555
C4A C3A 1_555 1_555
C5A C4A 1_555 1_555
H3A C5A 1_555 1_555
C6A C1A 1_555 1_555
H4A C6A 1_555 1_555
C7A C4A 1_555 1_555
C8A N1 1_555 1_555
H5A C8A 1_555 1_555
H6A C8A 1_555 1_555
H7A C8A 1_555 1_555
H8A N1 1_555 1_555
C5 C6 1_555 1_555
P1A O2A 1_555 1_555
C5A C6A 1_555 1_555

#END
