
#######################################################################
#
#                 Cambridge Crystallographic Data Centre
#                                CCDC 
#
#######################################################################
#
# If this CIF has been generated from an entry in the Cambridge 
# Structural Database, then it will include bibliographic, chemical, 
# crystal, experimental, refinement or atomic coordinate data resulting 
# from the CCDC's data processing and validation procedures.
#
#######################################################################

data_RAXCUQ
_symmetry_cell_setting           monoclinic
_symmetry_space_group_name_H-M   'P 21/n'
_symmetry_Int_Tables_number      14
_space_group_name_Hall           '-P 2yn'
loop_
_symmetry_equiv_pos_site_id
_symmetry_equiv_pos_as_xyz
1 x,y,z
2 1/2-x,1/2+y,1/2-z
3 -x,-y,-z
4 1/2+x,1/2-y,1/2+z
_cell_length_a                   7.8127(17)
_cell_length_b                   18.720(4)
_cell_length_c                   13.281(3)
_cell_angle_alpha                90
_cell_angle_beta                 94.294(4)
_cell_angle_gamma                90
_cell_volume                     1936.94
loop_
_atom_site_label
_atom_site_type_symbol
_atom_site_fract_x
_atom_site_fract_y
_atom_site_fract_z
Zn1 Zn 0.08342(7) 0.19229(3) 0.29672(4)
N1 N -0.2625(6) 0.3009(2) 0.4637(3)
O1 O 0.2808(5) 0.1643(2) 0.3812(3)
N2 N -0.0564(6) 0.2408(2) 0.3977(3)
O2 O 0.5970(5) 0.2416(2) 0.6841(3)
N3 N -0.4418(5) 0.6141(2) 0.2725(3)
C1 C 0.6815(6) 0.1396(3) 0.5971(4)
C2 C 0.3836(7) 0.1150(3) 0.3597(4)
C3 C -0.2193(7) 0.2612(3) 0.3865(4)
H1 H -0.2942 0.2491 0.3313
C4 C 0.5422(6) 0.1461(3) 0.5254(4)
H2 H 0.4555 0.1787 0.5356
N4 N -0.3547(6) 0.5098(2) 0.3309(3)
C5 C 0.6918(8) 0.1855(3) 0.6913(4)
C6 C -0.4777(7) 0.5461(3) 0.2769(4)
H3 H -0.5766 0.5254 0.2463
C7 C 0.5322(6) 0.1043(3) 0.4395(4)
C8 C 0.6633(7) 0.0555(3) 0.4238(4)
H4 H 0.6566 0.0268 0.3665
N5 N 0.9337(6) -0.0009(3) 0.4703(4)
C9 C -0.1208(8) 0.3086(3) 0.5282(5)
H5 H -0.1121 0.3339 0.5886
C10 C 0.8034(7) 0.0503(3) 0.4941(4)
O3 O 0.3710(5) 0.0788(3) 0.2830(3)
C11 C -0.4182(7) 0.4156(3) 0.4538(4)
H6 H -0.3408 0.4367 0.5060
H7 H -0.5308 0.4367 0.4585
C12 C -0.4291(7) 0.3359(3) 0.4718(4)
H8 H -0.4676 0.3274 0.5385
H9 H -0.5130 0.3152 0.4227
C13 C 0.0054(8) 0.2717(4) 0.4868(4)
H10 H 0.1178 0.2678 0.5147
C14 C -0.2333(8) 0.5580(4) 0.3642(4)
H11 H -0.1334 0.5487 0.4046
C15 C 0.8116(7) 0.0908(3) 0.5820(4)
H12 H 0.9033 0.0854 0.6302
C16 C -0.3551(8) 0.4328(3) 0.3510(4)
H13 H -0.2397 0.4143 0.3479
H14 H -0.4283 0.4092 0.2991
O4 O 0.7820(7) 0.1678(3) 0.7666(3)
C17 C -0.2860(7) 0.6211(3) 0.3276(4)
H15 H -0.2262 0.6638 0.3377
Zn1B Zn 1.91658(7) -0.19229(3) 0.70328(4)
Zn1A Zn -0.58342(7) 0.69229(3) 0.20328(4)
Zn1A_2 Zn 1.41658(7) -0.30771(3) 0.20328(4)
Zn1C Zn 0.58342(7) 0.30771(3) 0.79672(4)
Zn1C_2 Zn 2.58342(7) -0.69229(3) 0.79672(4)
N1B N 2.2625(6) -0.3009(2) 0.5363(3)
O1B O 1.7192(5) -0.1643(2) 0.6188(3)
N2B N 2.0564(6) -0.2408(2) 0.6023(3)
O2B O 1.4030(5) -0.2416(2) 0.3159(3)
O2A O 1.9030(5) -0.2584(2) 0.8159(3)
O2C O 0.0970(5) 0.2584(2) 0.1841(3)
N3B N 2.4418(5) -0.6141(2) 0.7275(3)
N3A N -0.0582(5) 0.1141(2) 0.2275(3)
N3C N 2.0582(5) -0.1141(2) 0.7725(3)
C1B C 1.3185(6) -0.1396(3) 0.4029(4)
C2B C 1.6164(7) -0.1150(3) 0.6403(4)
C3B C 2.2193(7) -0.2612(3) 0.6135(4)
H1B H 2.2942 -0.2491 0.6687
C4B C 1.4578(6) -0.1461(3) 0.4746(4)
H2B H 1.5445 -0.1787 0.4644
N4B N 2.3547(6) -0.5098(2) 0.6691(3)
C5B C 1.3082(8) -0.1855(3) 0.3087(4)
C6B C 2.4777(7) -0.5461(3) 0.7231(4)
H3B H 2.5766 -0.5254 0.7537
C7B C 1.4678(6) -0.1043(3) 0.5605(4)
C8B C 1.3367(7) -0.0555(3) 0.5762(4)
H4B H 1.3434 -0.0268 0.6335
N5B N 1.0663(6) 0.0009(3) 0.5297(4)
C9B C 2.1208(8) -0.3086(3) 0.4718(5)
H5B H 2.1121 -0.3339 0.4114
C10B C 1.1966(7) -0.0503(3) 0.5059(4)
O3B O 1.6290(5) -0.0788(3) 0.7170(3)
C11B C 2.4182(7) -0.4156(3) 0.5462(4)
H6B H 2.3408 -0.4367 0.4940
H7B H 2.5308 -0.4367 0.5415
C12B C 2.4291(7) -0.3359(3) 0.5282(4)
H8B H 2.4676 -0.3274 0.4615
H9B H 2.5130 -0.3152 0.5773
C13B C 1.9946(8) -0.2717(4) 0.5132(4)
H10B H 1.8822 -0.2678 0.4853
C14B C 2.2333(8) -0.5580(4) 0.6358(4)
H11B H 2.1334 -0.5487 0.5954
C15B C 1.1884(7) -0.0908(3) 0.4180(4)
H12B H 1.0967 -0.0854 0.3698
C16B C 2.3551(8) -0.4328(3) 0.6490(4)
H13B H 2.2397 -0.4143 0.6521
H14B H 2.4283 -0.4092 0.7009
O4B O 1.2180(7) -0.1678(3) 0.2334(3)
C17B C 2.2860(7) -0.6211(3) 0.6724(4)
H15B H 2.2262 -0.6638 0.6623
O5 O 0.3732(8) -0.0384(4) 0.1425(4)
H16 H 0.385(12) -0.013(4) 0.201(4)
H17 H 0.459(11) -0.071(4) 0.153(7)
loop_
_geom_bond_atom_site_label_1
_geom_bond_atom_site_label_2
_geom_bond_site_symmetry_1
_geom_bond_site_symmetry_2
Zn1 O1 1_555 1_555
N1 C3 1_555 1_555
O1 C2 1_555 1_555
N2 Zn1 1_555 1_555
O2 C5 1_555 1_555
N3 C6 1_555 1_555
C1 C4 1_555 1_555
C2 C7 1_555 1_555
C3 N2 1_555 1_555
H1 C3 1_555 1_555
C4 H2 1_555 1_555
N4 C6 1_555 1_555
C5 C1 1_555 1_555
C6 H3 1_555 1_555
C7 C4 1_555 1_555
C8 C7 1_555 1_555
H4 C8 1_555 1_555
N5 C10 1_555 1_555
C9 N1 1_555 1_555
H5 C9 1_555 1_555
C10 C8 1_555 1_555
O3 C2 1_555 1_555
C11 H6 1_555 1_555
H7 C11 1_555 1_555
C12 N1 1_555 1_555
H8 C12 1_555 1_555
H9 C12 1_555 1_555
C13 N2 1_555 1_555
H10 C13 1_555 1_555
C14 N4 1_555 1_555
H11 C14 1_555 1_555
C15 C1 1_555 1_555
H12 C15 1_555 1_555
C16 N4 1_555 1_555
H13 C16 1_555 1_555
H14 C16 1_555 1_555
O4 C5 1_555 1_555
C17 N3 1_555 1_555
H15 C17 1_555 1_555
O5 H16 1_555 1_555
H17 O5 1_555 1_555
Zn1B O1B 1_555 1_555
Zn1A N3 1_555 1_555
Zn1A_2 O2B 1_555 1_555
Zn1C O2 1_555 1_555
Zn1C_2 N3B 1_555 1_555
N1B C3B 1_555 1_555
O1B C2B 1_555 1_555
N2B Zn1B 1_555 1_555
O2B C5B 1_555 1_555
O2A Zn1B 1_555 1_555
O2C Zn1 1_555 1_555
N3B C6B 1_555 1_555
N3A Zn1 1_555 1_555
N3C Zn1B 1_555 1_555
C1B C4B 1_555 1_555
C2B C7B 1_555 1_555
C3B N2B 1_555 1_555
H1B C3B 1_555 1_555
C4B H2B 1_555 1_555
N4B C6B 1_555 1_555
C5B C1B 1_555 1_555
C6B H3B 1_555 1_555
C7B C4B 1_555 1_555
C8B C7B 1_555 1_555
H4B C8B 1_555 1_555
N5B N5 1_555 1_555
C9B N1B 1_555 1_555
H5B C9B 1_555 1_555
C10B C8B 1_555 1_555
O3B C2B 1_555 1_555
C11B H6B 1_555 1_555
H7B C11B 1_555 1_555
C12B N1B 1_555 1_555
H8B C12B 1_555 1_555
H9B C12B 1_555 1_555
C13B N2B 1_555 1_555
H10B C13B 1_555 1_555
C14B N4B 1_555 1_555
H11B C14B 1_555 1_555
C15B C1B 1_555 1_555
H12B C15B 1_555 1_555
C16B N4B 1_555 1_555
H13B C16B 1_555 1_555
H14B C16B 1_555 1_555
O4B C5B 1_555 1_555
C17B N3B 1_555 1_555
H15B C17B 1_555 1_555
C9 C13 1_555 1_555
C10 C15 1_555 1_555
C11 C12 1_555 1_555
C11 C16 1_555 1_555
C14 C17 1_555 1_555
N5B C10B 1_555 1_555
C9B C13B 1_555 1_555
C10B C15B 1_555 1_555
C11B C12B 1_555 1_555
C11B C16B 1_555 1_555
C14B C17B 1_555 1_555

#END
