
#######################################################################
#
#                 Cambridge Crystallographic Data Centre
#                                CCDC 
#
#######################################################################
#
# If this CIF has been generated from an entry in the Cambridge 
# Structural Database, then it will include bibliographic, chemical, 
# crystal, experimental, refinement or atomic coordinate data resulting 
# from the CCDC's data processing and validation procedures.
#
#######################################################################

data_RAXCEA
_symmetry_cell_setting           monoclinic
_symmetry_space_group_name_H-M   'C 2/c'
_symmetry_Int_Tables_number      15
_space_group_name_Hall           '-C 2yn'
loop_
_symmetry_equiv_pos_site_id
_symmetry_equiv_pos_as_xyz
1 x,y,z
2 -x,y,1/2-z
3 1/2+x,1/2+y,z
4 1/2-x,1/2+y,1/2-z
5 -x,-y,-z
6 x,-y,1/2+z
7 1/2-x,1/2-y,-z
8 1/2+x,1/2-y,1/2+z
_cell_length_a                   18.372(8)
_cell_length_b                   19.143(8)
_cell_length_c                   10.534(5)
_cell_angle_alpha                90
_cell_angle_beta                 124.353(10)
_cell_angle_gamma                90
_cell_volume                     3058.56
loop_
_atom_site_label
_atom_site_type_symbol
_atom_site_fract_x
_atom_site_fract_y
_atom_site_fract_z
N1 N 0.2167(4) 0.4481(2) -0.0386(6)
H5 H 0.2631 0.4772 0.0002
H6 H 0.1863 0.4504 -0.1418
C8 C 0.1618(4) 0.4718(4) 0.0073(7)
H7 H 0.1435 0.5189 -0.0275
H8 H 0.1938 0.4703 0.1174
H9 H 0.1108 0.4423 -0.0369
C9 C 0.2490(4) 0.3779(4) 0.0096(7)
H10 H 0.2856 0.3656 -0.0253
H11 H 0.2001 0.3462 -0.0336
H12 H 0.2828 0.3752 0.1197
O6 O 0.0730(3) 0.5876(3) 0.1483(5)
H13 H 0.0388 0.5914 0.0495
H14 H 0.0516 0.6159 0.1808
O7 O 0.4653(3) 0.9375(2) 0.3413(5)
H15 H 0.4676 0.9817 0.3300
H16 H 0.4904 0.9064 0.3211
N2 N 0.9610(7) 0.7603(7) 0.2939(13)
O8 O 1.0000 0.8732(5) 0.2500
C10 C 0.886(2) 0.7720(16) 0.272(7)
C11 C 0.9753(9) 0.6893(5) 0.2625(16)
C12 C 1.0000 0.8011(3) 0.2500
N2A N 1.0390(7) 0.7603(7) 0.2061(13)
C10A C 1.114(2) 0.7720(16) 0.228(7)
C11A C 1.0247(9) 0.6893(5) 0.2375(16)
Zn1 Zn 0.39269(3) 0.55123(2) 0.00695(5)
P1 P 0.60676(6) 0.56333(5) 0.19605(11)
O1 O 0.51036(16) 0.57263(14) 0.0839(3)
O2 O 0.63035(17) 0.52680(14) 0.3417(3)
O3 O 0.65060(16) 0.52721(14) 0.1294(3)
O4 O 0.70586(19) 0.90542(15) 0.3369(3)
O5 O 0.83358(18) 0.86179(14) 0.4095(3)
C1 C 0.6514(2) 0.64982(19) 0.2441(4)
C2 C 0.5967(3) 0.7059(2) 0.2121(6)
H1 H 0.5368 0.6986 0.1657
C3 C 0.6298(3) 0.7719(2) 0.2477(6)
H2 H 0.5922 0.8093 0.2262
C4 C 0.7176(2) 0.78383(19) 0.3148(4)
C5 C 0.7717(2) 0.7285(2) 0.3483(5)
H3 H 0.8318 0.7359 0.3957
C6 C 0.7391(2) 0.6620(2) 0.3133(5)
H4 H 0.7771 0.6247 0.3371
C7 C 0.7534(3) 0.8560(2) 0.3557(4)
Zn1A Zn 0.60731(3) 0.55123(2) 0.49305(5)
Zn1D Zn 0.60731(3) 0.44877(2) -0.00695(5)
Zn1E Zn 0.39269(3) 0.44877(2) 0.50695(5)
Zn1F Zn 0.10731(3) 0.94877(2) -0.00695(5)
Zn1G Zn 0.89269(3) 0.94877(2) 0.50695(5)
P1A P 0.39324(6) 0.56333(5) 0.30395(11)
O1A O 0.48964(16) 0.57263(14) 0.4161(3)
O2A O 0.36965(17) 0.52680(14) 0.1583(3)
O3A O 0.34940(16) 0.52721(14) 0.3706(3)
O3D O 0.34940(16) 0.47279(14) -0.1294(3)
O3E O 0.65060(16) 0.47279(14) 0.6294(3)
O4A O 0.29414(19) 0.90542(15) 0.1631(3)
O5A O 0.16642(18) 0.86179(14) 0.0905(3)
O5F O 0.66642(18) 0.63821(14) 0.5905(3)
O5G O 0.33358(18) 0.63821(14) -0.0905(3)
C1A C 0.3486(2) 0.64982(19) 0.2559(4)
C2A C 0.4033(3) 0.7059(2) 0.2879(6)
H1A H 0.4632 0.6986 0.3343
C3A C 0.3702(3) 0.7719(2) 0.2523(6)
H2A H 0.4078 0.8093 0.2738
C4A C 0.2824(2) 0.78383(19) 0.1852(4)
C5A C 0.2283(2) 0.7285(2) 0.1517(5)
H3A H 0.1682 0.7359 0.1043
C6A C 0.2609(2) 0.6620(2) 0.1867(5)
H4A H 0.2229 0.6247 0.1629
C7A C 0.2466(3) 0.8560(2) 0.1443(4)
loop_
_geom_bond_atom_site_label_1
_geom_bond_atom_site_label_2
_geom_bond_site_symmetry_1
_geom_bond_site_symmetry_2
Zn1 O1 1_555 1_555
P1 O1 1_555 1_555
O2 P1 1_555 1_555
O3 P1 1_555 1_555
O4 C7 1_555 1_555
O5 C7 1_555 1_555
C1 P1 1_555 1_555
C2 C1 1_555 1_555
H1 C2 1_555 1_555
C3 C2 1_555 1_555
H2 C3 1_555 1_555
C4 C3 1_555 1_555
C5 C4 1_555 1_555
H3 C5 1_555 1_555
C6 C1 1_555 1_555
H4 C6 1_555 1_555
C7 C4 1_555 1_555
N1 H5 1_555 1_555
H6 N1 1_555 1_555
C8 N1 1_555 1_555
H7 C8 1_555 1_555
H8 C8 1_555 1_555
H9 C8 1_555 1_555
C9 N1 1_555 1_555
H10 C9 1_555 1_555
H11 C9 1_555 1_555
H12 C9 1_555 1_555
O6 H13 1_555 1_555
H14 O6 1_555 1_555
O7 H15 1_555 1_555
H16 O7 1_555 1_555
N2 C10 1_555 1_555
O8 C12 1_555 1_555
C11 N2 1_555 1_555
C12 N2 1_555 1_555
Zn1A O2 1_555 1_555
Zn1D O3 1_555 1_555
Zn1E O3A 1_555 1_555
Zn1F O5A 1_555 1_555
Zn1G O5 1_555 1_555
P1A O1A 1_555 1_555
O1A Zn1A 1_555 1_555
O2A Zn1 1_555 1_555
O3A P1A 1_555 1_555
O3D Zn1 1_555 1_555
O3E Zn1A 1_555 1_555
O4A C7A 1_555 1_555
O5A C7A 1_555 1_555
O5F Zn1A 1_555 1_555
O5G Zn1 1_555 1_555
C1A P1A 1_555 1_555
C2A C1A 1_555 1_555
H1A C2A 1_555 1_555
C3A C2A 1_555 1_555
H2A C3A 1_555 1_555
C4A C3A 1_555 1_555
C5A C4A 1_555 1_555
H3A C5A 1_555 1_555
C6A C1A 1_555 1_555
H4A C6A 1_555 1_555
C7A C4A 1_555 1_555
N2A C12 1_555 1_555
C10A N2A 1_555 1_555
C11A C11 1_555 1_555
C5 C6 1_555 1_555
P1A O2A 1_555 1_555
C5A C6A 1_555 1_555
N2A C11A 1_555 1_555

#END
