
#######################################################################
#
#                 Cambridge Crystallographic Data Centre
#                                CCDC 
#
#######################################################################
#
# If this CIF has been generated from an entry in the Cambridge 
# Structural Database, then it will include bibliographic, chemical, 
# crystal, experimental, refinement or atomic coordinate data resulting 
# from the CCDC's data processing and validation procedures.
#
#######################################################################

data_RAXGAA
_symmetry_cell_setting           orthorhombic
_symmetry_space_group_name_H-M   'P n m a'
_symmetry_Int_Tables_number      62
_space_group_name_Hall           '-P 2ac 2n'
loop_
_symmetry_equiv_pos_site_id
_symmetry_equiv_pos_as_xyz
1 x,y,z
2 1/2-x,-y,1/2+z
3 -x,1/2+y,-z
4 1/2+x,1/2-y,1/2-z
5 -x,-y,-z
6 1/2+x,y,1/2-z
7 x,1/2-y,z
8 1/2-x,1/2+y,1/2+z
_cell_length_a                   9.6331(14)
_cell_length_b                   20.827(3)
_cell_length_c                   14.314(2)
_cell_angle_alpha                90
_cell_angle_beta                 90
_cell_angle_gamma                90
_cell_volume                     2871.8
loop_
_atom_site_label
_atom_site_type_symbol
_atom_site_fract_x
_atom_site_fract_y
_atom_site_fract_z
Pb1 Pb 0.88625(5) 0.7500 0.48646(4)
Pb2 Pb 0.60709(5) 0.7500 0.67394(4)
Pb3 Pb 0.53850(4) 0.839536(16) 0.45784(3)
Pb4 Pb 0.25097(5) 0.7500 0.55498(4)
Pb5 Pb 1.25988(5) 0.7500 0.30067(3)
S1 S 1.1239(3) 0.37547(12) 0.3501(2)
O1 O 1.0085(12) 0.3307(4) 0.3510(10)
O2 O 1.1893(11) 0.3699(5) 0.2606(7)
O3 O 1.2146(18) 0.3706(5) 0.4252(8)
O4 O 1.2649(11) 0.6084(4) 0.4768(9)
O5 O 1.1197(7) 0.6776(3) 0.4173(6)
O6 O 0.9426(11) 0.6696(4) 0.2363(6)
O7 O 0.8156(7) 0.6700(3) 0.3647(5)
O8 O 0.6580(9) 0.7500 0.5155(6)
O9 O 0.4455(8) 0.8172(3) 0.6085(5)
H1 H 0.4072 0.8502 0.6483
O10 O 0.3955(9) 0.7500 0.4326(6)
C1 C 1.0549(11) 0.4540(4) 0.3536(7)
C2 C 0.9357(15) 0.4665(5) 0.3039(11)
H4 H 0.8890 0.4332 0.2742
C3 C 0.8852(14) 0.5284(5) 0.2981(11)
H5 H 0.8003 0.5358 0.2692
C4 C 0.9582(11) 0.5792(4) 0.3343(7)
C5 C 1.0809(9) 0.5671(4) 0.3856(6)
C6 C 1.1281(10) 0.5039(4) 0.3951(7)
H6 H 1.2083 0.4954 0.4291
C7 C 1.1644(11) 0.6200(5) 0.4293(7)
C8 C 0.9055(11) 0.6445(5) 0.3111(7)
Pb3F Pb 0.53850(4) 0.660464(16) 0.45784(3)
Pb5C Pb 0.75988(5) 0.7500 0.19933(3)
Pb5_2 Pb 0.25988(5) 0.7500 0.30067(3)
S1F S 1.1239(3) 1.12453(12) 0.3501(2)
O1F O 1.0085(12) 1.1693(4) 0.3510(10)
O2F O 1.1893(11) 1.1301(5) 0.2606(7)
O3F O 1.2146(18) 1.1294(5) 0.4252(8)
O4F O 1.2649(11) 0.8916(4) 0.4768(9)
O5F O 1.1197(7) 0.8224(3) 0.4173(6)
O6F O 0.9426(11) 0.8304(4) 0.2363(6)
O6C O 1.4426(11) 0.8304(4) 0.2637(6)
O6E O 1.4426(11) 0.6696(4) 0.2637(6)
O7F O 0.8156(7) 0.8300(3) 0.3647(5)
O9F O 0.4455(8) 0.6828(3) 0.6085(5)
H1F H 0.4072 0.6498 0.6483
O10_2 O 1.3955(9) 0.7500 0.4326(6)
C1F C 1.0549(11) 1.0460(4) 0.3536(7)
C2F C 0.9357(15) 1.0335(5) 0.3039(11)
H4F H 0.8890 1.0668 0.2742
C3F C 0.8852(14) 0.9716(5) 0.2981(11)
H5F H 0.8003 0.9642 0.2692
C4F C 0.9582(11) 0.9208(4) 0.3343(7)
C5F C 1.0809(9) 0.9329(4) 0.3856(6)
C6F C 1.1281(10) 0.9961(4) 0.3951(7)
H6F H 1.2083 1.0046 0.4291
C7F C 1.1644(11) 0.8800(5) 0.4293(7)
C8F C 0.9055(11) 0.8555(5) 0.3111(7)
O11 O 0.427(3) 0.5171(15) 0.574(2)
H2 H 0.4033 0.4895 0.6148
H3 H 0.4535 0.5509 0.6027
loop_
_geom_bond_atom_site_label_1
_geom_bond_atom_site_label_2
_geom_bond_site_symmetry_1
_geom_bond_site_symmetry_2
Pb1 O7 1_555 1_555
Pb2 O8 1_555 1_555
Pb3 O8 1_555 1_555
Pb4 O9 1_555 1_555
Pb5 O5 1_555 1_555
S1 O1 1_555 1_555
O2 S1 1_555 1_555
O3 S1 1_555 1_555
O4 C7 1_555 1_555
O5 C7 1_555 1_555
O6 C8 1_555 1_555
O7 C8 1_555 1_555
O8 Pb1 1_555 1_555
O9 Pb2 1_555 1_555
H1 O9 1_555 1_555
O10 Pb3 1_555 1_555
O11 H2 1_555 1_555
H3 O11 1_555 1_555
C1 S1 1_555 1_555
C2 C1 1_555 1_555
H4 C2 1_555 1_555
C3 C2 1_555 1_555
H5 C3 1_555 1_555
C4 C3 1_555 1_555
C5 C4 1_555 1_555
C6 C1 1_555 1_555
H6 C6 1_555 1_555
C7 C5 1_555 1_555
C8 C4 1_555 1_555
Pb3F O8 1_555 1_555
Pb5C O6 1_555 1_555
Pb5_2 O10 1_555 1_555
S1F O1F 1_555 1_555
O2F S1F 1_555 1_555
O3F S1F 1_555 1_555
O4F C7F 1_555 1_555
O5F Pb5 1_555 1_555
O6F Pb5C 1_555 1_555
O6C Pb5 1_555 1_555
O6E Pb5 1_555 1_555
O7F Pb1 1_555 1_555
O9F Pb2 1_555 1_555
H1F O9F 1_555 1_555
O10_2 Pb5 1_555 1_555
C1F S1F 1_555 1_555
C2F C1F 1_555 1_555
H4F C2F 1_555 1_555
C3F C2F 1_555 1_555
H5F C3F 1_555 1_555
C4F C3F 1_555 1_555
C5F C4F 1_555 1_555
C6F C1F 1_555 1_555
H6F C6F 1_555 1_555
C7F O5F 1_555 1_555
C8F O6F 1_555 1_555
Pb3 O9 1_555 1_555
Pb4 O10 1_555 1_555
Pb4 O9F 1_555 1_555
O10 Pb3F 1_555 1_555
C5 C6 1_555 1_555
Pb3F O9F 1_555 1_555
O7F C8F 1_555 1_555
C4F C8F 1_555 1_555
C5F C6F 1_555 1_555
C5F C7F 1_555 1_555

#END
