
#######################################################################
#
#                 Cambridge Crystallographic Data Centre
#                                CCDC 
#
#######################################################################
#
# If this CIF has been generated from an entry in the Cambridge 
# Structural Database, then it will include bibliographic, chemical, 
# crystal, experimental, refinement or atomic coordinate data resulting 
# from the CCDC's data processing and validation procedures.
#
#######################################################################

data_RAXHUV
_symmetry_cell_setting           monoclinic
_symmetry_space_group_name_H-M   'P 21/c'
_symmetry_Int_Tables_number      14
_space_group_name_Hall           '-P 2ybc'
loop_
_symmetry_equiv_pos_site_id
_symmetry_equiv_pos_as_xyz
1 x,y,z
2 -x,1/2+y,1/2-z
3 -x,-y,-z
4 x,1/2-y,1/2+z
_cell_length_a                   12.1373(5)
_cell_length_b                   7.4129(3)
_cell_length_c                   13.6653(5)
_cell_angle_alpha                90
_cell_angle_beta                 96.508(2)
_cell_angle_gamma                90
_cell_volume                     1221.58
loop_
_atom_site_label
_atom_site_type_symbol
_atom_site_fract_x
_atom_site_fract_y
_atom_site_fract_z
C1 C 0.3906(2) -0.0792(3) 0.38081(19)
C2 C 0.3970(2) -0.2121(3) 0.4524(2)
H1 H 0.4637 -0.2706 0.4717
C3 C 0.3016(3) -0.2563(4) 0.4947(2)
C4 C 0.2045(2) -0.1638(4) 0.4653(2)
H2 H 0.1406 -0.1856 0.4952
C5 C 0.2045(2) -0.0384(3) 0.39086(19)
C6 C 0.4873(2) -0.0264(3) 0.32644(19)
C7 C 0.0998(2) 0.0555(4) 0.3459(2)
C8 C 0.3001(2) -0.4085(4) 0.5667(2)
N1 N 0.29506(19) 0.0034(3) 0.34918(16)
O1 O 0.11150(17) 0.1655(3) 0.27732(15)
O2 O 0.01220(17) 0.0193(3) 0.37945(17)
O3 O 0.46613(16) 0.0668(3) 0.25024(14)
O4 O 0.58131(16) -0.0827(3) 0.36007(14)
O5 O 0.34505(18) -0.5550(3) 0.54696(15)
O6 O 0.25052(19) -0.3878(3) 0.64135(15)
O7 O 0.1249(2) 0.2395(3) 0.06200(18)
H3 H 0.074(3) 0.312(4) 0.065(3)
H4 H 0.103(3) 0.178(4) 0.014(2)
O8 O 0.1948(2) 0.5310(3) 0.20713(19)
H5 H 0.220(2) 0.628(3) 0.200(3)
H6 H 0.1283(15) 0.540(5) 0.191(3)
O9 O 0.3789(2) 0.3808(3) 0.35144(16)
H7 H 0.365(3) 0.397(5) 0.4085(17)
H8 H 0.423(2) 0.457(4) 0.341(2)
Ce1 Ce 0.283017(12) 0.220116(19) 0.199750(10)
O4A O 0.41869(16) 0.4173(3) 0.13993(14)
O5C O 0.34505(18) 0.0550(3) 0.04696(15)
O6C O 0.25052(19) -0.1122(3) 0.14135(15)
Ce1A Ce 0.716983(12) -0.279884(19) 0.300250(10)
Ce1C Ce 0.283017(12) -0.720116(19) 0.699750(10)
O10 O 0.0659(3) 0.0258(4) -0.0980(2)
H9 H 0.079(5) 0.060(7) -0.152(2)
H10 H 0.020(5) -0.054(7) -0.109(4)
loop_
_geom_bond_atom_site_label_1
_geom_bond_atom_site_label_2
_geom_bond_site_symmetry_1
_geom_bond_site_symmetry_2
C1 C2 1_555 1_555
C2 H1 1_555 1_555
C3 C2 1_555 1_555
C4 C3 1_555 1_555
H2 C4 1_555 1_555
C5 C4 1_555 1_555
C6 C1 1_555 1_555
C7 C5 1_555 1_555
C8 C3 1_555 1_555
N1 C1 1_555 1_555
O1 C7 1_555 1_555
O2 C7 1_555 1_555
O3 C6 1_555 1_555
O4 C6 1_555 1_555
O5 C8 1_555 1_555
O6 C8 1_555 1_555
O7 H3 1_555 1_555
H4 O7 1_555 1_555
O8 H5 1_555 1_555
H6 O8 1_555 1_555
O9 H7 1_555 1_555
H8 O9 1_555 1_555
O10 H9 1_555 1_555
H10 O10 1_555 1_555
Ce1 N1 1_555 1_555
O4A Ce1 1_555 1_555
O5C Ce1 1_555 1_555
O6C Ce1 1_555 1_555
Ce1A O4 1_555 1_555
Ce1C O5 1_555 1_555
C5 N1 1_555 1_555
O1 Ce1 1_555 1_555
O3 Ce1 1_555 1_555
O6 Ce1C 1_555 1_555
O7 Ce1 1_555 1_555
O8 Ce1 1_555 1_555
O9 Ce1 1_555 1_555

#END
