
#######################################################################
#
#                 Cambridge Crystallographic Data Centre
#                                CCDC 
#
#######################################################################
#
# If this CIF has been generated from an entry in the Cambridge 
# Structural Database, then it will include bibliographic, chemical, 
# crystal, experimental, refinement or atomic coordinate data resulting 
# from the CCDC's data processing and validation procedures.
#
#######################################################################

data_RAXJUW
_symmetry_cell_setting           monoclinic
_symmetry_space_group_name_H-M   'P 21/c'
_symmetry_Int_Tables_number      14
_space_group_name_Hall           '-P 2ybc'
loop_
_symmetry_equiv_pos_site_id
_symmetry_equiv_pos_as_xyz
1 x,y,z
2 -x,1/2+y,1/2-z
3 -x,-y,-z
4 x,1/2-y,1/2+z
_cell_length_a                   11.5889(6)
_cell_length_b                   7.8521(4)
_cell_length_c                   15.7120(8)
_cell_angle_alpha                90
_cell_angle_beta                 108.816(2)
_cell_angle_gamma                90
_cell_volume                     1353.34
loop_
_atom_site_label
_atom_site_type_symbol
_atom_site_fract_x
_atom_site_fract_y
_atom_site_fract_z
Rb1 Rb 0.60134(6) 0.06054(9) 0.43515(4)
O1 O 0.3792(4) -0.4450(6) 0.3316(3)
O2 O 0.4719(5) -0.2699(7) 0.4428(4)
O3 O 0.4964(4) -0.5977(7) 0.2516(3)
O4 O 0.3801(4) -0.7483(6) 0.3275(3)
O5 O 0.2759(5) -0.9158(7) 0.3874(3)
O6 O 0.2846(4) -0.5823(6) 0.1918(3)
C1 C 0.5958(6) -0.4593(8) 0.3913(4)
C2 C 0.7035(7) -0.4241(9) 0.4614(5)
H1 H 0.7018 -0.3573 0.5099
C3 C 0.8119(7) -0.4897(11) 0.4576(6)
H2 H 0.8836 -0.4679 0.5043
C4 C 0.8157(7) -0.5875(11) 0.3855(6)
H3 H 0.8899 -0.6297 0.3837
C5 C 0.7097(6) -0.6229(10) 0.3160(5)
H4 H 0.7162 -0.6528 0.2572
C6 C 0.6005(6) -0.5596(8) 0.3193(4)
C7 C 0.4783(6) -0.3846(9) 0.3916(4)
C8 C 0.1654(6) -0.7568(9) 0.2574(4)
C9 C 0.0510(7) -0.8214(11) 0.2515(6)
H5 H 0.0429 -0.8894 0.2977
C10 C -0.0506(7) -0.7863(11) 0.1782(6)
H6 H -0.1266 -0.8302 0.1745
C11 C -0.0363(6) -0.6854(11) 0.1115(6)
H7 H -0.1038 -0.6621 0.0616
C12 C 0.0736(6) -0.6177(10) 0.1157(5)
H8 H 0.0803 -0.5479 0.0696
C13 C 0.1760(6) -0.6538(9) 0.1895(4)
C14 C 0.2765(6) -0.8150(8) 0.3300(4)
B1 B 0.3845(7) -0.5945(10) 0.2753(5)
Rb1B Rb 0.39866(6) -0.06054(9) 0.56485(4)
Rb1A Rb 0.39866(6) -0.43946(9) 0.06485(4)
Rb1_2 Rb 0.60134(6) -0.93946(9) 0.43515(4)
Rb1B_2 Rb 0.39866(6) -1.06054(9) 0.56485(4)
O2B O 0.5281(5) 0.2699(7) 0.5572(4)
O3A O 0.5036(4) -0.0977(7) 0.2484(3)
O4_2 O 0.3801(4) 0.2517(6) 0.3275(3)
O5B O 0.7241(5) -0.0842(7) 0.6126(3)
O6A O 0.7154(4) -0.0823(6) 0.3082(3)
loop_
_geom_bond_atom_site_label_1
_geom_bond_atom_site_label_2
_geom_bond_site_symmetry_1
_geom_bond_site_symmetry_2
Rb1 O2 1_555 1_555
O1 C7 1_555 1_555
O2 C7 1_555 1_555
O3 C6 1_555 1_555
O4 C14 1_555 1_555
O5 C14 1_555 1_555
O6 C13 1_555 1_555
C1 C2 1_555 1_555
C2 H1 1_555 1_555
C3 C2 1_555 1_555
H2 C3 1_555 1_555
C4 C3 1_555 1_555
H3 C4 1_555 1_555
C5 C4 1_555 1_555
H4 C5 1_555 1_555
C6 C1 1_555 1_555
C7 C1 1_555 1_555
C8 C9 1_555 1_555
C9 H5 1_555 1_555
C10 C9 1_555 1_555
H6 C10 1_555 1_555
C11 C10 1_555 1_555
H7 C11 1_555 1_555
C12 C11 1_555 1_555
H8 C12 1_555 1_555
C13 C8 1_555 1_555
C14 C8 1_555 1_555
B1 O1 1_555 1_555
Rb1B O2 1_555 1_555
Rb1A O3 1_555 1_555
Rb1_2 O4 1_555 1_555
Rb1B_2 O5 1_555 1_555
O2B Rb1 1_555 1_555
O3A Rb1 1_555 1_555
O4_2 Rb1 1_555 1_555
O5B Rb1 1_555 1_555
O6A Rb1 1_555 1_555
O3 B1 1_555 1_555
O4 B1 1_555 1_555
O6 B1 1_555 1_555
O6 Rb1A 1_555 1_555
C5 C6 1_555 1_555
C12 C13 1_555 1_555
Rb1B O2B 1_555 1_555

#END
