
#######################################################################
#
#                 Cambridge Crystallographic Data Centre
#                                CCDC 
#
#######################################################################
#
# If this CIF has been generated from an entry in the Cambridge 
# Structural Database, then it will include bibliographic, chemical, 
# crystal, experimental, refinement or atomic coordinate data resulting 
# from the CCDC's data processing and validation procedures.
#
#######################################################################

data_RAXJEF
_symmetry_cell_setting           monoclinic
_symmetry_space_group_name_H-M   'P 2/c'
_symmetry_Int_Tables_number      13
_space_group_name_Hall           '-P 2yc'
loop_
_symmetry_equiv_pos_site_id
_symmetry_equiv_pos_as_xyz
1 x,y,z
2 -x,y,1/2-z
3 -x,-y,-z
4 x,-y,1/2+z
_cell_length_a                   15.744(8)
_cell_length_b                   7.945(3)
_cell_length_c                   37.59(2)
_cell_angle_alpha                90
_cell_angle_beta                 94.27(4)
_cell_angle_gamma                90
_cell_volume                     4688.93
loop_
_atom_site_label
_atom_site_type_symbol
_atom_site_fract_x
_atom_site_fract_y
_atom_site_fract_z
P2 P 0.0000 0.1699(4) 0.7500
F4 F -0.0569(7) 0.1579(18) 0.7808(3)
F5 F -0.0578(6) 0.0334(13) 0.7351(4)
F6 F -0.0592(7) 0.3008(13) 0.7347(4)
O4 O 0.0693(3) -0.3318(7) 0.8213(1)
C11 C 0.0091(5) -0.3222(11) 0.8483(2)
C12 C -0.0677(5) -0.2321(10) 0.8325(2)
O5 O -0.1056(3) -0.3318(6) 0.8042(1)
C13 C -0.1837(4) -0.2614(10) 0.7899(2)
C14 C -0.2203(4) -0.3664(10) 0.7595(2)
O6 O -0.1700(3) -0.3444(6) 0.7295(1)
C15 C -0.1990(4) -0.4257(10) 0.6981(2)
C16 C -0.2762(5) -0.5046(10) 0.6927(2)
C17 C -0.2980(6) -0.5807(12) 0.6603(3)
C18 C -0.2452(7) -0.5795(12) 0.6337(3)
C19 C -0.1672(5) -0.4933(11) 0.6385(2)
C20 C 0.1448(4) -0.4150(10) 0.8292(2)
K2 K 0.0000 -0.3438(4) 0.7500
F4A F 0.0569(7) 0.1579(18) 0.7192(3)
F5A F 0.0578(6) 0.0334(13) 0.7649(4)
K2_2 K 0.0000 0.6562(4) 0.7500
F5_2 F -0.0578(6) 1.0334(13) 0.7351(4)
P2_2 P 0.0000 1.1699(4) 0.7500
F5A_2 F 0.0578(6) 1.0334(13) 0.7649(4)
F6A F 0.0592(7) 0.3008(13) 0.7653(4)
O4_2 O 0.0693(3) 0.6682(7) 0.8213(1)
C11_2 C 0.0091(5) 0.6778(11) 0.8483(2)
C12_2 C -0.0677(5) 0.7679(10) 0.8325(2)
O5_2 O -0.1056(3) 0.6682(6) 0.8042(1)
C13_2 C -0.1837(4) 0.7386(10) 0.7899(2)
C14_2 C -0.2203(4) 0.6336(10) 0.7595(2)
O6_2 O -0.1700(3) 0.6556(6) 0.7295(1)
C15_2 C -0.1990(4) 0.5743(10) 0.6981(2)
C16_2 C -0.2762(5) 0.4954(10) 0.6927(2)
C17_2 C -0.2980(6) 0.4193(12) 0.6603(3)
C18_2 C -0.2452(7) 0.4205(12) 0.6337(3)
C19_2 C -0.1672(5) 0.5067(11) 0.6385(2)
C20A C -0.1448(4) 0.5850(10) 0.6708(2)
O4A O -0.0693(3) 0.6682(7) 0.6787(1)
C11A C -0.0091(5) 0.6778(11) 0.6517(2)
C12A C 0.0677(5) 0.7679(10) 0.6675(2)
O5A O 0.1056(3) 0.6682(6) 0.6958(1)
C13A C 0.1837(4) 0.7386(10) 0.7101(2)
C14A C 0.2203(4) 0.6336(10) 0.7405(2)
O6A O 0.1700(3) 0.6556(6) 0.7705(1)
C15A C 0.1990(4) 0.5743(10) 0.8019(2)
C16A C 0.2762(5) 0.4954(10) 0.8073(2)
C17A C 0.2980(6) 0.4193(12) 0.8397(3)
C18A C 0.2452(7) 0.4205(12) 0.8663(3)
C19A C 0.1672(5) 0.5067(11) 0.8615(2)
C20_2 C 0.1448(4) 0.5850(10) 0.8292(2)
F6_2 F -0.0592(7) -0.6992(13) 0.7347(4)
F6A_2 F 0.0592(7) -0.6992(13) 0.7653(4)
O4A_2 O -0.0693(3) -0.3318(7) 0.6787(1)
C11A_2 C -0.0091(5) -0.3222(11) 0.6517(2)
C12A_2 C 0.0677(5) -0.2321(10) 0.6675(2)
O5A_2 O 0.1056(3) -0.3318(6) 0.6958(1)
C13A_2 C 0.1837(4) -0.2614(10) 0.7101(2)
C14A_2 C 0.2203(4) -0.3664(10) 0.7405(2)
O6A_2 O 0.1700(3) -0.3444(6) 0.7705(1)
C15A_2 C 0.1990(4) -0.4257(10) 0.8019(2)
C20A_2 C -0.1448(4) -0.4150(10) 0.6708(2)
C19A_2 C 0.1672(5) -0.4933(11) 0.8615(2)
O7 O 0.1021(3) 0.3131(7) 0.6042(1)
C21 C 0.1336(5) 0.2916(11) 0.6405(2)
C22 C 0.2084(5) 0.4009(10) 0.6483(2)
O8 O 0.2801(3) 0.3400(6) 0.6318(1)
C23 C 0.3527(5) 0.4462(10) 0.6380(2)
C24 C 0.4284(5) 0.3702(10) 0.6228(2)
O9 O 0.4098(3) 0.3585(7) 0.5851(1)
C25 C 0.4742(5) 0.3005(10) 0.5649(2)
C26 C 0.5521(5) 0.2451(11) 0.5784(2)
C27 C 0.6112(6) 0.1838(12) 0.5564(3)
C28 C 0.5921(6) 0.1848(12) 0.5202(3)
C29 C 0.5130(6) 0.2373(12) 0.5064(2)
C30 C 0.4522(5) 0.2934(10) 0.5285(2)
O10 O 0.3722(3) 0.3508(7) 0.5174(1)
C31 C 0.3499(6) 0.3515(13) 0.4795(2)
C32 C 0.2646(6) 0.4295(12) 0.4738(2)
O11 O 0.2022(3) 0.3262(7) 0.4881(1)
C33 C 0.1173(6) 0.3906(13) 0.4798(2)
C34 C 0.0545(6) 0.2856(13) 0.4974(2)
O12 O 0.0651(3) 0.3111(6) 0.5352(1)
C35 C 0.0082(5) 0.2326(10) 0.5551(2)
C36 C -0.0658(6) 0.1540(11) 0.5421(3)
C37 C -0.1204(7) 0.0798(14) 0.5647(4)
C38 C -0.1001(6) 0.0811(14) 0.6002(4)
C39 C -0.0258(5) 0.1545(12) 0.6149(3)
C40 C 0.0278(5) 0.2331(10) 0.5925(2)
P3 P 0.2141(1) 0.8323(3) 0.5653(1)
F7 F 0.2244(6) 0.8022(18) 0.6065(1)
F8 F 0.2079(6) 0.8607(18) 0.5259(1)
F9 F 0.1345(7) 0.9323(21) 0.5699(3)
F10 F 0.2978(7) 0.7306(22) 0.5625(3)
F11 F 0.1636(11) 0.6701(13) 0.5612(3)
F12 F 0.2686(10) -0.0071(14) 0.5712(3)
K3 K 0.2380(1) 0.3198(3) 0.5601(1)
F12_2 F 0.2686(10) 0.9929(14) 0.5712(3)
K3_2 K 0.2380(1) 1.3198(3) 0.5601(1)
O7_2 O 0.1021(3) 1.3131(7) 0.6042(1)
C21_2 C 0.1336(5) 1.2916(11) 0.6405(2)
C22_2 C 0.2084(5) 1.4009(10) 0.6483(2)
O8_2 O 0.2801(3) 1.3400(6) 0.6318(1)
C23_2 C 0.3527(5) 1.4462(10) 0.6380(2)
C24_2 C 0.4284(5) 1.3702(10) 0.6228(2)
O9_2 O 0.4098(3) 1.3585(7) 0.5851(1)
C25_2 C 0.4742(5) 1.3005(10) 0.5649(2)
C26_2 C 0.5521(5) 1.2451(11) 0.5784(2)
C27_2 C 0.6112(6) 1.1838(12) 0.5564(3)
C28_2 C 0.5921(6) 1.1848(12) 0.5202(3)
C29_2 C 0.5130(6) 1.2373(12) 0.5064(2)
C30_2 C 0.4522(5) 1.2934(10) 0.5285(2)
O10_2 O 0.3722(3) 1.3508(7) 0.5174(1)
C31_2 C 0.3499(6) 1.3515(13) 0.4795(2)
C32_2 C 0.2646(6) 1.4295(12) 0.4738(2)
O11_2 O 0.2022(3) 1.3262(7) 0.4881(1)
C33_2 C 0.1173(6) 1.3906(13) 0.4798(2)
C34_2 C 0.0545(6) 1.2856(13) 0.4974(2)
O12_2 O 0.0651(3) 1.3111(6) 0.5352(1)
C35_2 C 0.0082(5) 1.2326(10) 0.5551(2)
C36_2 C -0.0658(6) 1.1540(11) 0.5421(3)
C37_2 C -0.1204(7) 1.0798(14) 0.5647(4)
C38_2 C -0.1001(6) 1.0811(14) 0.6002(4)
C39_2 C -0.0258(5) 1.1545(12) 0.6149(3)
C40_2 C 0.0278(5) 1.2331(10) 0.5925(2)
F11_2 F 0.1636(11) 1.6701(13) 0.5612(3)
P3_2 P 0.2141(1) 1.8323(3) 0.5653(1)
P3_3 P 0.2141(1) -0.1677(3) 0.5653(1)
P1 P 0.5000 0.5118(4) 0.7500
F1 F 0.5321(5) 0.6416(10) 0.7250(2)
F2 F 0.5909(4) 0.4975(14) 0.7683(2)
F3 F 0.5295(5) 0.3810(12) 0.7232(3)
O1 O 0.4546(3) -0.0017(6) 0.6780(1)
C1 C 0.3652(5) -0.0248(11) 0.6698(2)
C2 C 0.3191(5) 0.0787(10) 0.6957(2)
O2 O 0.3298(3) 0.0077(6) 0.7305(1)
C3 C 0.2894(5) 0.1094(10) 0.7555(2)
C4 C 0.2954(4) 0.0250(10) 0.7908(2)
O3 O 0.3844(3) 0.0176(6) 0.8033(1)
C5 C 0.4052(5) -0.0617(10) 0.8350(2)
C6 C 0.3459(7) -0.1282(12) 0.8568(2)
C7 C 0.3758(9) -0.2107(14) 0.8880(3)
C8 C 0.4603(9) -0.2241(13) 0.8975(3)
C9 C 0.5201(7) -0.1551(11) 0.8759(2)
C10 C 0.4918(5) -0.0747(9) 0.8451(2)
K1 K 0.5000 0.9989(4) 0.7500
F1A F 0.4679(5) 0.6416(10) 0.7750(2)
F2A F 0.4091(4) 0.4975(14) 0.7317(2)
K1_2 K 0.5000 -0.0011(4) 0.7500
F1_2 F 0.5321(5) -0.3584(10) 0.7250(2)
P1_2 P 0.5000 -0.4882(4) 0.7500
F1A_2 F 0.4679(5) -0.3584(10) 0.7750(2)
F3A F 0.4705(5) 0.3810(12) 0.7768(3)
O1A O 0.5454(3) -0.0017(6) 0.8220(1)
C1A C 0.6348(5) -0.0248(11) 0.8302(2)
C2A C 0.6809(5) 0.0787(10) 0.8043(2)
O2A O 0.6702(3) 0.0077(6) 0.7695(1)
C3A C 0.7106(5) 0.1094(10) 0.7445(2)
C4A C 0.7046(4) 0.0250(10) 0.7092(2)
O3A O 0.6156(3) 0.0176(6) 0.6967(1)
C5A C 0.5948(5) -0.0617(10) 0.6650(2)
C6A C 0.6541(7) -0.1282(12) 0.6432(2)
C7A C 0.6242(9) -0.2107(14) 0.6120(3)
C8A C 0.5397(9) -0.2241(13) 0.6025(3)
C9A C 0.4799(7) -0.1551(11) 0.6241(2)
C10A C 0.5082(5) -0.0747(9) 0.6549(2)
F13? F 0.2991(6) -0.0866(23) 0.5598(2)
F14? F 0.1248(5) -0.2468(23) 0.5680(2)
F15? F 0.2064(7) -0.0755(16) 0.5995(2)
F16? F 0.2175(7) -0.2579(17) 0.5283(2)
F17? F 0.2553(10) -0.3162(12) 0.5834(3)
F18? F 0.1686(11) -0.0172(13) 0.5444(3)
loop_
_geom_bond_atom_site_label_1
_geom_bond_atom_site_label_2
_geom_bond_site_symmetry_1
_geom_bond_site_symmetry_2
P1 F1 1_555 1_555
F1 K1 1_555 1_555
F2 P1 1_555 1_555
F3 P1 1_555 1_555
P2 F4 1_555 1_555
F5 P2 1_555 1_555
F6 P2 1_555 1_555
O1 C1 1_555 1_555
C1 C2 1_555 1_555
C2 O2 1_555 1_555
O2 C3 1_555 1_555
C3 C4 1_555 1_555
C4 O3 1_555 1_555
O3 C5 1_555 1_555
C5 C6 1_555 1_555
C6 C7 1_555 1_555
C7 C8 1_555 1_555
C8 C9 1_555 1_555
C9 C10 1_555 1_555
C10 C5 1_555 1_555
O4 C11 1_555 1_555
C11 C12 1_555 1_555
C12 O5 1_555 1_555
O5 C13 1_555 1_555
C13 C14 1_555 1_555
C14 O6 1_555 1_555
O6 C15 1_555 1_555
C15 C16 1_555 1_555
C16 C17 1_555 1_555
C17 C18 1_555 1_555
C18 C19 1_555 1_555
C19 C20A_2 1_555 1_555
C20 O4 1_555 1_555
O7 C21 1_555 1_555
C21 C22 1_555 1_555
C22 O8 1_555 1_555
O8 C23 1_555 1_555
C23 C24 1_555 1_555
C24 O9 1_555 1_555
O9 C25 1_555 1_555
C25 C26 1_555 1_555
C26 C27 1_555 1_555
C27 C28 1_555 1_555
C28 C29 1_555 1_555
C29 C30 1_555 1_555
C30 C25 1_555 1_555
O10 C30 1_555 1_555
C31 O10 1_555 1_555
C32 C31 1_555 1_555
O11 C32 1_555 1_555
C33 O11 1_555 1_555
C34 C33 1_555 1_555
O12 C34 1_555 1_555
C35 O12 1_555 1_555
C36 C35 1_555 1_555
C37 C36 1_555 1_555
C38 C37 1_555 1_555
C39 C38 1_555 1_555
C40 O7 1_555 1_555
P3 F7 1_555 1_555
F8 P3 1_555 1_555
F9 P3 1_555 1_555
F10 P3 1_555 1_555
F11 P3 1_555 1_555
F12 K3 1_555 1_555
K1 F1A 1_555 1_555
K2 F5 1_555 1_555
K3 O7 1_555 1_555
F1A P1 1_555 1_555
F2A P1 1_555 1_555
K1_2 F3 1_555 1_555
F1_2 K1_2 1_555 1_555
P1_2 F1_2 1_555 1_555
F1A_2 K1_2 1_555 1_555
F3A P1 1_555 1_555
O1A C10 1_555 1_555
C1A O1A 1_555 1_555
C2A C1A 1_555 1_555
O2A K1_2 1_555 1_555
C3A O2A 1_555 1_555
C4A C3A 1_555 1_555
O3A K1_2 1_555 1_555
C5A O3A 1_555 1_555
C6A C5A 1_555 1_555
C7A C6A 1_555 1_555
C8A C7A 1_555 1_555
C9A C8A 1_555 1_555
C10A O1 1_555 1_555
F4A P2 1_555 1_555
F5A P2 1_555 1_555
K2_2 F6 1_555 1_555
F5_2 K2_2 1_555 1_555
P2_2 F5_2 1_555 1_555
F5A_2 K2_2 1_555 1_555
F6A P2 1_555 1_555
O4_2 K2_2 1_555 1_555
C11_2 O4_2 1_555 1_555
C12_2 C11_2 1_555 1_555
O5_2 K2_2 1_555 1_555
C13_2 O5_2 1_555 1_555
C14_2 C13_2 1_555 1_555
O6_2 K2_2 1_555 1_555
C15_2 O6_2 1_555 1_555
C16_2 C15_2 1_555 1_555
C17_2 C16_2 1_555 1_555
C18_2 C17_2 1_555 1_555
C19_2 C18_2 1_555 1_555
C20A C15_2 1_555 1_555
O4A K2_2 1_555 1_555
C11A O4A 1_555 1_555
C12A C11A 1_555 1_555
O5A K2_2 1_555 1_555
C13A O5A 1_555 1_555
C14A C13A 1_555 1_555
O6A K2_2 1_555 1_555
C15A O6A 1_555 1_555
C16A C15A 1_555 1_555
C17A C16A 1_555 1_555
C18A C17A 1_555 1_555
C19A C18A 1_555 1_555
C20_2 O4_2 1_555 1_555
F6_2 K2 1_555 1_555
F6A_2 K2 1_555 1_555
O4A_2 K2 1_555 1_555
C11A_2 O4A_2 1_555 1_555
C12A_2 C11A_2 1_555 1_555
O5A_2 K2 1_555 1_555
C13A_2 O5A_2 1_555 1_555
C14A_2 C13A_2 1_555 1_555
O6A_2 K2 1_555 1_555
C15A_2 C20 1_555 1_555
C20A_2 C15 1_555 1_555
C19A_2 C20 1_555 1_555
F12_2 P3 1_555 1_555
K3_2 F12_2 1_555 1_555
O7_2 K3_2 1_555 1_555
C21_2 O7_2 1_555 1_555
C22_2 C21_2 1_555 1_555
O8_2 K3_2 1_555 1_555
C23_2 O8_2 1_555 1_555
C24_2 C23_2 1_555 1_555
O9_2 K3_2 1_555 1_555
C25_2 O9_2 1_555 1_555
C26_2 C25_2 1_555 1_555
C27_2 C26_2 1_555 1_555
C28_2 C27_2 1_555 1_555
C29_2 C28_2 1_555 1_555
C30_2 C25_2 1_555 1_555
O10_2 K3_2 1_555 1_555
C31_2 O10_2 1_555 1_555
C32_2 C31_2 1_555 1_555
O11_2 K3_2 1_555 1_555
C33_2 O11_2 1_555 1_555
C34_2 C33_2 1_555 1_555
O12_2 K3_2 1_555 1_555
C35_2 O12_2 1_555 1_555
C36_2 C35_2 1_555 1_555
C37_2 C36_2 1_555 1_555
C38_2 C37_2 1_555 1_555
C39_2 C38_2 1_555 1_555
C40_2 O7_2 1_555 1_555
F11_2 K3_2 1_555 1_555
P3_2 F11_2 1_555 1_555
P3_3 F12 1_555 1_555
O1 K1_2 1_555 1_555
O2 K1_2 1_555 1_555
O3 K1_2 1_555 1_555
O4 K2 1_555 1_555
O5 K2 1_555 1_555
O6 K2 1_555 1_555
O8 K3 1_555 1_555
O9 K3 1_555 1_555
O10 K3 1_555 1_555
O11 K3 1_555 1_555
O12 K3 1_555 1_555
C35 C40 1_555 1_555
C39 C40 1_555 1_555
F11 K3 1_555 1_555
K2 F5A 1_555 1_555
K1_2 F3A 1_555 1_555
K1_2 O1A 1_555 1_555
P1_2 F1A_2 1_555 1_555
C2A O2A 1_555 1_555
C4A O3A 1_555 1_555
C5A C10A 1_555 1_555
C9A C10A 1_555 1_555
K2_2 F6A 1_555 1_555
P2_2 F5A_2 1_555 1_555
C12_2 O5_2 1_555 1_555
C14_2 O6_2 1_555 1_555
C19_2 C20A 1_555 1_555
C20A O4A 1_555 1_555
C12A O5A 1_555 1_555
C14A O6A 1_555 1_555
C15A C20_2 1_555 1_555
C19A C20_2 1_555 1_555
O4A_2 C20A_2 1_555 1_555
C12A_2 O5A_2 1_555 1_555
C14A_2 O6A_2 1_555 1_555
O6A_2 C15A_2 1_555 1_555
C22_2 O8_2 1_555 1_555
C24_2 O9_2 1_555 1_555
C29_2 C30_2 1_555 1_555
C30_2 O10_2 1_555 1_555
C32_2 O11_2 1_555 1_555
C34_2 O12_2 1_555 1_555
C35_2 C40_2 1_555 1_555
C39_2 C40_2 1_555 1_555

#END
