
#######################################################################
#
#                 Cambridge Crystallographic Data Centre
#                                CCDC 
#
#######################################################################
#
# If this CIF has been generated from an entry in the Cambridge 
# Structural Database, then it will include bibliographic, chemical, 
# crystal, experimental, refinement or atomic coordinate data resulting 
# from the CCDC's data processing and validation procedures.
#
#######################################################################

data_RAXLOT
_symmetry_cell_setting           monoclinic
_symmetry_space_group_name_H-M   'P 21/c'
_symmetry_Int_Tables_number      14
_space_group_name_Hall           '-P 2ybc'
loop_
_symmetry_equiv_pos_site_id
_symmetry_equiv_pos_as_xyz
1 x,y,z
2 -x,1/2+y,1/2-z
3 -x,-y,-z
4 x,1/2-y,1/2+z
_cell_length_a                   8.3345(7)
_cell_length_b                   21.8289(19)
_cell_length_c                   8.3383(9)
_cell_angle_alpha                90
_cell_angle_beta                 116.9630(10)
_cell_angle_gamma                90
_cell_volume                     1352.11
loop_
_atom_site_label
_atom_site_type_symbol
_atom_site_fract_x
_atom_site_fract_y
_atom_site_fract_z
Ni1 Ni 0.80727(4) 0.170048(13) 0.74894(4)
N1 N 0.3867(3) 0.10717(9) 0.2653(3)
N2 N 0.6301(2) 0.14297(9) 0.4915(3)
N3 N 0.2206(2) 0.01529(9) 0.1286(2)
N4 N 0.2170(2) -0.08508(9) 0.1535(2)
O1 O 0.9884(2) 0.19937(8) 1.0081(2)
O2 O 0.8386(2) 0.24789(8) 1.1343(2)
O3 O 1.2966(2) 0.35660(9) 1.2367(2)
O4 O 1.0253(2) 0.36286(7) 1.2210(2)
O5 O 0.5997(2) 0.20688(8) 0.7918(2)
H1 H 0.6653 0.2177 0.9001
H2 H 0.5091 0.1876 0.7867
C1 C 0.2099(3) 0.07979(11) 0.1659(4)
H3 H 0.1447 0.1015 0.0532
H4 H 0.1431 0.0841 0.2349
C2 C 0.4712(3) 0.11827(12) 0.4425(3)
H5 H 0.4232 0.1095 0.5211
C3 C 0.6486(3) 0.14803(13) 0.3373(3)
H6 H 0.7484 0.1641 0.3301
C4 C 0.4992(3) 0.12604(13) 0.1968(3)
H7 H 0.4775 0.1242 0.0772
C5 C 0.2086(3) -0.03218(12) 0.2257(3)
H8 H 0.1960 -0.0282 0.3305
C6 C 0.2354(3) -0.07053(13) 0.0030(3)
H9 H 0.2451 -0.0988 -0.0757
C7 C 0.2375(3) -0.00912(14) -0.0145(3)
H10 H 0.2483 0.0124 -0.1054
C8 C 0.9816(3) 0.23463(11) 1.1237(3)
C9 C 1.1588(3) 0.26313(11) 1.2567(3)
H11 H 1.1799 0.2534 1.3782
H12 H 1.2561 0.2454 1.2387
C10 C 1.1602(3) 0.33202(11) 1.2362(3)
Ni1B Ni 0.19273(4) -0.170048(13) 0.25106(4)
Ni1C Ni 0.80727(4) 0.329952(13) 1.24894(4)
N4B N 0.7830(2) 0.08508(9) 0.8465(2)
O2C O 0.8386(2) 0.25211(8) 0.6343(2)
O4C O 1.0253(2) 0.13714(7) 0.7210(2)
loop_
_geom_bond_atom_site_label_1
_geom_bond_atom_site_label_2
_geom_bond_site_symmetry_1
_geom_bond_site_symmetry_2
Ni1 N2 1_555 1_555
N1 C1 1_555 1_555
N2 C2 1_555 1_555
N3 C1 1_555 1_555
N4 C5 1_555 1_555
O1 Ni1 1_555 1_555
O2 C8 1_555 1_555
O3 C10 1_555 1_555
O4 C10 1_555 1_555
O5 Ni1 1_555 1_555
H1 O5 1_555 1_555
H2 O5 1_555 1_555
C1 H3 1_555 1_555
H4 C1 1_555 1_555
C2 N1 1_555 1_555
H5 C2 1_555 1_555
C3 N2 1_555 1_555
H6 C3 1_555 1_555
C4 N1 1_555 1_555
H7 C4 1_555 1_555
C5 N3 1_555 1_555
H8 C5 1_555 1_555
C6 N4 1_555 1_555
H9 C6 1_555 1_555
C7 N3 1_555 1_555
H10 C7 1_555 1_555
C8 O1 1_555 1_555
C9 C8 1_555 1_555
H11 C9 1_555 1_555
H12 C9 1_555 1_555
C10 C9 1_555 1_555
Ni1B N4 1_555 1_555
Ni1C O2 1_555 1_555
N4B Ni1 1_555 1_555
O2C Ni1 1_555 1_555
O4C Ni1 1_555 1_555
O4 Ni1C 1_555 1_555
C3 C4 1_555 1_555
C6 C7 1_555 1_555

#END
