
#######################################################################
#
#                 Cambridge Crystallographic Data Centre
#                                CCDC 
#
#######################################################################
#
# If this CIF has been generated from an entry in the Cambridge 
# Structural Database, then it will include bibliographic, chemical, 
# crystal, experimental, refinement or atomic coordinate data resulting 
# from the CCDC's data processing and validation procedures.
#
#######################################################################

data_RAXLIN
_symmetry_cell_setting           orthorhombic
_symmetry_space_group_name_H-M   'P b c a'
_symmetry_Int_Tables_number      61
_space_group_name_Hall           '-P 2ac 2ab'
loop_
_symmetry_equiv_pos_site_id
_symmetry_equiv_pos_as_xyz
1 x,y,z
2 1/2-x,-y,1/2+z
3 -x,1/2+y,1/2-z
4 1/2+x,1/2-y,-z
5 -x,-y,-z
6 1/2+x,y,1/2-z
7 x,1/2-y,1/2+z
8 1/2-x,1/2+y,z
_cell_length_a                   9.1272(9)
_cell_length_b                   15.1014(12)
_cell_length_c                   15.9165(16)
_cell_angle_alpha                90
_cell_angle_beta                 90
_cell_angle_gamma                90
_cell_volume                     2193.83
loop_
_atom_site_label
_atom_site_type_symbol
_atom_site_fract_x
_atom_site_fract_y
_atom_site_fract_z
Zn1 Zn 0.43954(3) 0.03890(2) 0.71204(2)
N1 N 0.6630(3) -0.15809(18) 0.58303(15)
N2 N 0.5148(3) -0.06646(16) 0.64737(16)
N3 N 0.8949(3) -0.23577(17) 0.59748(15)
N4 N 1.0060(3) -0.34243(16) 0.66508(15)
O1 O 0.5096(2) 0.03018(14) 0.82932(12)
O2 O 0.7288(2) 0.03752(14) 0.76837(12)
O3 O 0.7118(2) 0.03110(15) 0.90775(12)
C1 C 0.6464(4) -0.0773(2) 0.6153(2)
H3 H 0.7187 -0.0339 0.6151
C2 C 0.4452(4) -0.1448(2) 0.6338(2)
H4 H 0.3490 -0.1571 0.6492
C3 C 0.5355(4) -0.2017(2) 0.5950(2)
H5 H 0.5145 -0.2597 0.5794
C4 C 0.8997(3) -0.3226(2) 0.6132(2)
H6 H 0.8356 -0.3638 0.5901
C5 C 1.0727(4) -0.2633(2) 0.6830(2)
H7 H 1.1530 -0.2565 0.7183
C6 C 1.0055(4) -0.1974(2) 0.6423(2)
H8 H 1.0292 -0.1375 0.6442
C7 C 0.7923(4) -0.1918(2) 0.5394(2)
H9 H 0.8420 -0.1430 0.5118
H10 H 0.7619 -0.2335 0.4966
C8 C 0.6522(3) 0.03337(19) 0.83710(19)
Zn1G Zn 1.06046(3) -0.46110(2) 0.71204(2)
Zn1E Zn 0.93954(3) 0.03890(2) 0.78796(2)
N4G N 0.4940(3) 0.15757(16) 0.66508(15)
O2E O 0.2288(2) 0.03752(14) 0.73163(12)
O4 O 0.3757(2) 0.09299(15) 0.97488(13)
H1 H 0.4176 0.0678 0.9336
H2 H 0.3492 0.0531 1.0093
loop_
_geom_bond_atom_site_label_1
_geom_bond_atom_site_label_2
_geom_bond_site_symmetry_1
_geom_bond_site_symmetry_2
Zn1 N2 1_555 1_555
N1 C1 1_555 1_555
N2 C1 1_555 1_555
N3 C4 1_555 1_555
N4 C4 1_555 1_555
O1 Zn1 1_555 1_555
O2 C8 1_555 1_555
O3 C8 1_555 1_555
O4 H1 1_555 1_555
H2 O4 1_555 1_555
C1 H3 1_555 1_555
C2 N2 1_555 1_555
H4 C2 1_555 1_555
C3 N1 1_555 1_555
H5 C3 1_555 1_555
C4 H6 1_555 1_555
C5 N4 1_555 1_555
H7 C5 1_555 1_555
C6 N3 1_555 1_555
H8 C6 1_555 1_555
C7 N1 1_555 1_555
H9 C7 1_555 1_555
H10 C7 1_555 1_555
C8 O1 1_555 1_555
Zn1G N4 1_555 1_555
Zn1E O2 1_555 1_555
N4G Zn1 1_555 1_555
O2E Zn1 1_555 1_555
N3 C7 1_555 1_555
C2 C3 1_555 1_555
C5 C6 1_555 1_555

#END
