
#######################################################################
#
#                 Cambridge Crystallographic Data Centre
#                                CCDC 
#
#######################################################################
#
# If this CIF has been generated from an entry in the Cambridge 
# Structural Database, then it will include bibliographic, chemical, 
# crystal, experimental, refinement or atomic coordinate data resulting 
# from the CCDC's data processing and validation procedures.
#
#######################################################################

data_RAXLUZ
_symmetry_cell_setting           monoclinic
_symmetry_space_group_name_H-M   'P 21'
_symmetry_Int_Tables_number      4
_space_group_name_Hall           'P 2yb'
loop_
_symmetry_equiv_pos_site_id
_symmetry_equiv_pos_as_xyz
1 x,y,z
2 -x,1/2+y,-z
_cell_length_a                   9.3138(12)
_cell_length_b                   17.237(2)
_cell_length_c                   13.4443(19)
_cell_angle_alpha                90
_cell_angle_beta                 108.0770(10)
_cell_angle_gamma                90
_cell_volume                     2051.84
loop_
_atom_site_label
_atom_site_type_symbol
_atom_site_fract_x
_atom_site_fract_y
_atom_site_fract_z
Cu1 Cu 0.67681(11) 0.38192(6) 0.03150(7)
O1 O 0.5332(7) 0.4627(4) 0.1657(5)
Cu2 Cu -0.15579(11) 0.17768(6) 0.39336(7)
N1 N 0.1719(9) 0.1290(5) 0.6708(6)
N2 N 0.0272(9) 0.1530(4) 0.5107(5)
N3 N 0.5302(9) 0.1296(5) 1.1125(5)
N4 N 0.6659(8) 0.1559(4) 1.2736(5)
N5 N 0.9835(10) 0.4282(5) 0.3154(6)
N6 N 0.8518(8) 0.4027(4) 0.1562(5)
N7 N 1.3443(9) 0.4283(5) 0.7578(6)
N8 N 1.4947(8) 0.4061(4) 0.9132(5)
O2 O -0.0407(7) 0.2165(4) 0.3072(5)
O3 O 0.0063(8) 0.1001(5) 0.2519(6)
O4 O 0.5606(6) 0.3429(4) 0.1175(4)
O5 O 0.7201(7) 0.1795(5) -0.5104(4)
O6 O 0.7419(10) 0.3024(4) -0.5389(6)
O7 O 0.8010(6) 0.3847(4) -0.0650(4)
O8 O 0.7849(8) 0.2598(4) -0.0371(5)
C1 C 0.0337(10) 0.1473(5) 0.6110(6)
H13 H -0.0480 0.1551 0.6357
C2 C 0.1691(12) 0.1392(7) 0.5087(8)
H14 H 0.1994 0.1410 0.4490
C3 C 0.2612(12) 0.1223(7) 0.6067(8)
H15 H 0.3630 0.1091 0.6262
C4 C 0.6551(10) 0.1626(6) 1.1730(6)
H16 H 0.7261 0.1873 1.1483
C5 C 0.5368(11) 0.1154(6) 1.2752(7)
H17 H 0.5135 0.1001 1.3347
C6 C 0.4519(11) 0.1023(6) 1.1753(8)
H18 H 0.3573 0.0788 1.1535
C7 C 0.2241(11) 0.1227(6) 0.7835(7)
H19 H 0.2848 0.0762 0.8036
H20 H 0.1377 0.1180 0.8090
C8 C 0.3146(12) 0.1910(7) 0.8323(7)
H21 H 0.2571 0.2377 0.8066
H22 H 0.4056 0.1927 0.8118
C9 C 0.3587(12) 0.1894(7) 0.9527(6)
H23 H 0.3955 0.2400 0.9805
H24 H 0.2706 0.1772 0.9737
C10 C 0.4781(12) 0.1302(7) 0.9960(7)
H25 H 0.5634 0.1408 0.9711
H26 H 0.4389 0.0793 0.9705
C11 C 0.8628(10) 0.3909(6) 0.2528(6)
H27 H 0.7965 0.3608 0.2759
C12 C 0.9742(10) 0.4488(6) 0.1549(7)
H28 H 0.9978 0.4663 0.0964
C13 C 1.0523(11) 0.4626(6) 0.2574(7)
H29 H 1.1401 0.4919 0.2816
C14 C 1.4805(12) 0.4084(5) 0.8155(7)
H30 H 1.5586 0.3971 0.7882
C15 C 1.3556(12) 0.4255(7) 0.9195(9)
H31 H 1.3291 0.4272 0.9807
C16 C 1.2614(13) 0.4420(8) 0.8217(8)
H32 H 1.1619 0.4590 0.8033
C17 C 1.0276(12) 0.4272(7) 0.4322(6)
H33 H 0.9405 0.4146 0.4541
H34 H 1.0638 0.4781 0.4595
C18 C 1.1501(11) 0.3677(6) 0.4744(6)
H35 H 1.2348 0.3797 0.4495
H36 H 1.1121 0.3170 0.4477
C19 C 1.2044(12) 0.3650(6) 0.5927(7)
H37 H 1.1178 0.3585 0.6174
H38 H 1.2689 0.3200 0.6149
C20 C 1.2900(12) 0.4361(6) 0.6431(6)
H39 H 1.3755 0.4440 0.6175
H40 H 1.2249 0.4811 0.6241
C21 C 0.0153(10) 0.1716(7) 0.2542(7)
C22 C 0.0985(12) 0.2112(6) 0.1877(8)
H41 H 0.1421 0.1717 0.1545
H42 H 0.0259 0.2401 0.1327
C23 C 0.2204(10) 0.2650(5) 0.2454(6)
H43 H 0.2926 0.2364 0.3009
H44 H 0.1768 0.3050 0.2779
C24 C 0.3027(10) 0.3031(5) 0.1794(7)
H45 H 0.2304 0.3317 0.1240
H46 H 0.3460 0.2631 0.1468
C25 C 0.4276(11) 0.3580(6) 0.2377(7)
H47 H 0.3843 0.3999 0.2671
H48 H 0.4982 0.3304 0.2951
C26 C 0.5104(10) 0.3911(6) 0.1692(6)
C27 C 0.6954(11) 0.2491(8) -0.4966(8)
C28 C 0.6060(14) 0.2672(8) -0.4162(9)
H49 H 0.5708 0.3205 -0.4256
H50 H 0.5181 0.2337 -0.4314
C29 C 0.6965(12) 0.2561(7) -0.3095(8)
H51 H 0.7342 0.2032 -0.3021
H52 H 0.6314 0.2612 -0.2658
C30 C 0.8234(15) 0.3075(8) -0.2692(8)
H53 H 0.7854 0.3603 -0.2798
H54 H 0.8896 0.3009 -0.3118
C31 C 0.9218(12) 0.2996(7) -0.1522(8)
H55 H 0.9652 0.2480 -0.1404
H56 H 1.0041 0.3367 -0.1373
C32 C 0.8313(12) 0.3135(7) -0.0788(7)
Cu1_2 Cu 1.67681(11) 0.38192(6) 1.03150(7)
Cu2_2 Cu 0.84421(11) 0.17768(6) 1.39336(7)
Cu2_3 Cu 0.84421(11) 0.17768(6) -0.60664(7)
N4_2 N -0.3341(8) 0.1559(4) 0.2736(5)
N8_2 N 0.4947(8) 0.4061(4) -0.0868(5)
O5_2 O -0.2799(7) 0.1795(5) 0.4896(4)
O6_2 O -0.2581(10) 0.3024(4) 0.4611(6)
O9 O 0.8635(11) 0.1098(5) 0.9235(7)
H1 H 0.8442 0.1548 0.9417
H2 H 0.9223 0.0870 0.9767
O10 O 0.9445(10) 0.5248(5) 0.9153(6)
H3 H 0.9506 0.5398 0.8564
H4 H 0.8983 0.4816 0.9071
O11 O 0.3869(8) 0.5721(4) 0.2383(5)
H5 H 0.4340 0.5373 0.2161
H6 H 0.3084 0.5846 0.1888
O12 O 0.6170(10) 0.0435(5) 0.5616(6)
H7 H 0.6484 0.0843 0.5395
H8 H 0.6157 0.0517 0.6236
O13 O 0.3660(17) 0.9534(9) 0.4660(12)
H9 H 0.3534 0.9145 0.5013
H10 H 0.4482 0.9739 0.5030
O14 O 0.068(3) 0.9708(15) 0.3532(18)
H11 H 0.1611 0.9678 0.3884
H12 H 0.0529 1.0138 0.3208
loop_
_geom_bond_atom_site_label_1
_geom_bond_atom_site_label_2
_geom_bond_site_symmetry_1
_geom_bond_site_symmetry_2
Cu1 N6 1_555 1_555
O1 C26 1_555 1_555
Cu2 N2 1_555 1_555
N1 C1 1_555 1_555
N2 C1 1_555 1_555
N3 C4 1_555 1_555
N4 C4 1_555 1_555
N5 C11 1_555 1_555
N6 C11 1_555 1_555
N7 C14 1_555 1_555
N8 C14 1_555 1_555
O2 Cu2 1_555 1_555
O3 C21 1_555 1_555
O4 Cu1 1_555 1_555
O5 C27 1_555 1_555
O6 C27 1_555 1_555
O7 Cu1 1_555 1_555
O8 Cu1 1_555 1_555
O9 H1 1_555 1_555
H2 O9 1_555 1_555
O10 H3 1_555 1_555
H4 O10 1_555 1_555
O11 H5 1_555 1_555
H6 O11 1_555 1_555
O12 H7 1_555 1_555
H8 O12 1_555 1_555
O13 H9 1_555 1_555
H10 O13 1_555 1_555
O14 H11 1_555 1_555
H12 O14 1_555 1_555
C1 H13 1_555 1_555
C2 N2 1_555 1_555
H14 C2 1_555 1_555
C3 N1 1_555 1_555
H15 C3 1_555 1_555
C4 H16 1_555 1_555
C5 N4 1_555 1_555
H17 C5 1_555 1_555
C6 N3 1_555 1_555
H18 C6 1_555 1_555
C7 N1 1_555 1_555
H19 C7 1_555 1_555
H20 C7 1_555 1_555
C8 C7 1_555 1_555
H21 C8 1_555 1_555
H22 C8 1_555 1_555
C9 C8 1_555 1_555
H23 C9 1_555 1_555
H24 C9 1_555 1_555
C10 N3 1_555 1_555
H25 C10 1_555 1_555
H26 C10 1_555 1_555
C11 H27 1_555 1_555
C12 N6 1_555 1_555
H28 C12 1_555 1_555
C13 N5 1_555 1_555
H29 C13 1_555 1_555
C14 H30 1_555 1_555
C15 N8 1_555 1_555
H31 C15 1_555 1_555
C16 N7 1_555 1_555
H32 C16 1_555 1_555
C17 N5 1_555 1_555
H33 C17 1_555 1_555
H34 C17 1_555 1_555
C18 C17 1_555 1_555
H35 C18 1_555 1_555
H36 C18 1_555 1_555
C19 C18 1_555 1_555
H37 C19 1_555 1_555
H38 C19 1_555 1_555
C20 N7 1_555 1_555
H39 C20 1_555 1_555
H40 C20 1_555 1_555
C21 O2 1_555 1_555
C22 C21 1_555 1_555
H41 C22 1_555 1_555
H42 C22 1_555 1_555
C23 C22 1_555 1_555
H43 C23 1_555 1_555
H44 C23 1_555 1_555
C24 C23 1_555 1_555
H45 C24 1_555 1_555
H46 C24 1_555 1_555
C25 C24 1_555 1_555
H47 C25 1_555 1_555
H48 C25 1_555 1_555
C26 O4 1_555 1_555
C27 C28 1_555 1_555
C28 H49 1_555 1_555
H50 C28 1_555 1_555
C29 C28 1_555 1_555
H51 C29 1_555 1_555
H52 C29 1_555 1_555
C30 C29 1_555 1_555
H53 C30 1_555 1_555
H54 C30 1_555 1_555
C31 C30 1_555 1_555
H55 C31 1_555 1_555
H56 C31 1_555 1_555
C32 O7 1_555 1_555
Cu1_2 N8 1_555 1_555
Cu2_2 N4 1_555 1_555
Cu2_3 O5 1_555 1_555
N4_2 Cu2 1_555 1_555
N8_2 Cu1 1_555 1_555
O5_2 Cu2 1_555 1_555
O6_2 Cu2 1_555 1_555
O6 Cu2_3 1_555 1_555
O8 C32 1_555 1_555
C2 C3 1_555 1_555
C5 C6 1_555 1_555
C9 C10 1_555 1_555
C12 C13 1_555 1_555
C15 C16 1_555 1_555
C19 C20 1_555 1_555
C25 C26 1_555 1_555
C31 C32 1_555 1_555

#END
