
#######################################################################
#
#                 Cambridge Crystallographic Data Centre
#                                CCDC 
#
#######################################################################
#
# If this CIF has been generated from an entry in the Cambridge 
# Structural Database, then it will include bibliographic, chemical, 
# crystal, experimental, refinement or atomic coordinate data resulting 
# from the CCDC's data processing and validation procedures.
#
#######################################################################

data_RAXMAG
_symmetry_cell_setting           monoclinic
_symmetry_space_group_name_H-M   'C 2/c'
_symmetry_Int_Tables_number      15
_space_group_name_Hall           '-C 2yn'
loop_
_symmetry_equiv_pos_site_id
_symmetry_equiv_pos_as_xyz
1 x,y,z
2 -x,y,1/2-z
3 1/2+x,1/2+y,z
4 1/2-x,1/2+y,1/2-z
5 -x,-y,-z
6 x,-y,1/2+z
7 1/2-x,1/2-y,-z
8 1/2+x,1/2-y,1/2+z
_cell_length_a                   16.7035(17)
_cell_length_b                   13.5879(13)
_cell_length_c                   12.0050(11)
_cell_angle_alpha                90
_cell_angle_beta                 111.0090(10)
_cell_angle_gamma                90
_cell_volume                     2543.59
loop_
_atom_site_label
_atom_site_type_symbol
_atom_site_fract_x
_atom_site_fract_y
_atom_site_fract_z
Cu1 Cu 0.5000 0.5000 0.5000
Cl1 Cl 0.18592(7) 0.53153(9) 0.40653(12)
N1 N 0.5775(2) 0.7883(2) 0.5473(3)
N2 N 0.55280(19) 0.6314(2) 0.5108(3)
N3 N 0.1457(2) 0.7161(3) 0.3657(3)
O1 O 0.38749(17) 0.56393(19) 0.4574(3)
O2 O 0.3589(3) 0.5722(3) 0.2630(4)
C1 C 0.5277(2) 0.7121(3) 0.5491(4)
H2 H 0.4812 0.7156 0.5742
C2 C 0.6221(3) 0.6574(3) 0.4823(4)
H3 H 0.6536 0.6151 0.4529
C3 C 0.6375(3) 0.7545(3) 0.5037(4)
H4 H 0.6805 0.7912 0.4912
C4 C 0.5668(3) 0.8895(3) 0.5821(4)
H5 H 0.6218 0.9228 0.6072
H6 H 0.5478 0.8880 0.6495
C5 C 0.5028(2) 0.9468(2) 0.4816(4)
H7 H 0.4469 0.9161 0.4596
H8 H 0.5199 0.9455 0.4124
C6 C 0.3468(2) 0.5946(3) 0.3539(4)
C7 C 0.2058(2) 0.6514(3) 0.3703(3)
C8 C 0.2782(2) 0.6692(3) 0.3443(3)
C9 C 0.2870(3) 0.7645(3) 0.3078(4)
H9 H 0.3337 0.7809 0.2867
C10 C 0.2262(3) 0.8341(3) 0.3033(4)
H10 H 0.2316 0.8984 0.2803
C11 C 0.1580(3) 0.8073(4) 0.3329(4)
H11 H 0.1175 0.8551 0.3303
Cu1_2 Cu 0.5000 1.5000 0.5000
Cl1D Cl 0.81408(7) 0.46847(9) 0.59347(12)
N1D N 0.4225(2) 1.2117(2) 0.4527(3)
N2D N 0.44720(19) 1.3686(2) 0.4892(3)
N2D_2 N 0.44720(19) 0.3686(2) 0.4892(3)
N3D N 0.8543(2) 0.2839(3) 0.6343(3)
O1D O 0.61251(17) 0.43607(19) 0.5426(3)
O2D O 0.6411(3) 0.4278(3) 0.7370(4)
C1D C 0.4723(2) 1.2879(3) 0.4509(4)
H2D H 0.5188 1.2844 0.4258
C2D C 0.3779(3) 1.3426(3) 0.5177(4)
H3D H 0.3464 1.3849 0.5471
C3D C 0.3625(3) 1.2455(3) 0.4963(4)
H4D H 0.3195 1.2088 0.5088
C4D C 0.4332(3) 1.1105(3) 0.4179(4)
H5D H 0.3782 1.0772 0.3928
H6D H 0.4522 1.1120 0.3505
C5D C 0.4972(2) 1.0532(2) 0.5184(4)
H7D H 0.5531 1.0839 0.5404
H8D H 0.4801 1.0545 0.5876
C6D C 0.6532(2) 0.4054(3) 0.6461(4)
C7D C 0.7942(2) 0.3486(3) 0.6297(3)
C8D C 0.7218(2) 0.3308(3) 0.6557(3)
C9D C 0.7130(3) 0.2355(3) 0.6922(4)
H9D H 0.6663 0.2191 0.7133
C10D C 0.7738(3) 0.1659(3) 0.6967(4)
H10D H 0.7684 0.1016 0.7197
C11D C 0.8420(3) 0.1927(4) 0.6671(4)
H11D H 0.8825 0.1449 0.6697
O3 O 0.0000 0.0199(3) 0.7500
H1 H 0.0403 -0.0166 0.7463
H1A H -0.0403 -0.0166 0.7537
loop_
_geom_bond_atom_site_label_1
_geom_bond_atom_site_label_2
_geom_bond_site_symmetry_1
_geom_bond_site_symmetry_2
Cu1 N2 1_555 1_555
Cl1 C7 1_555 1_555
N1 C1 1_555 1_555
N2 C1 1_555 1_555
N3 C7 1_555 1_555
O1 Cu1 1_555 1_555
O2 C6 1_555 1_555
O3 H1 1_555 1_555
C1 H2 1_555 1_555
C2 N2 1_555 1_555
H3 C2 1_555 1_555
C3 N1 1_555 1_555
H4 C3 1_555 1_555
C4 N1 1_555 1_555
H5 C4 1_555 1_555
H6 C4 1_555 1_555
C5 C4 1_555 1_555
H7 C5 1_555 1_555
H8 C5 1_555 1_555
C6 O1 1_555 1_555
C7 C8 1_555 1_555
C8 C6 1_555 1_555
C9 C8 1_555 1_555
H9 C9 1_555 1_555
C10 C9 1_555 1_555
H10 C10 1_555 1_555
C11 N3 1_555 1_555
H11 C11 1_555 1_555
Cu1_2 N2D 1_555 1_555
Cl1D C7D 1_555 1_555
N1D C1D 1_555 1_555
N2D C1D 1_555 1_555
N2D_2 Cu1 1_555 1_555
N3D C7D 1_555 1_555
O1D Cu1 1_555 1_555
O2D C6D 1_555 1_555
H1A O3 1_555 1_555
C1D H2D 1_555 1_555
C2D N2D 1_555 1_555
H3D C2D 1_555 1_555
C3D N1D 1_555 1_555
H4D C3D 1_555 1_555
C4D N1D 1_555 1_555
H5D C4D 1_555 1_555
H6D C4D 1_555 1_555
C5D C5 1_555 1_555
H7D C5D 1_555 1_555
H8D C5D 1_555 1_555
C6D O1D 1_555 1_555
C7D C8D 1_555 1_555
C8D C6D 1_555 1_555
C9D C8D 1_555 1_555
H9D C9D 1_555 1_555
C10D C9D 1_555 1_555
H10D C10D 1_555 1_555
C11D N3D 1_555 1_555
H11D C11D 1_555 1_555
C2 C3 1_555 1_555
C10 C11 1_555 1_555
C2D C3D 1_555 1_555
C4D C5D 1_555 1_555
C10D C11D 1_555 1_555

#END
