
#######################################################################
#
#                 Cambridge Crystallographic Data Centre
#                                CCDC 
#
#######################################################################
#
# If this CIF has been generated from an entry in the Cambridge 
# Structural Database, then it will include bibliographic, chemical, 
# crystal, experimental, refinement or atomic coordinate data resulting 
# from the CCDC's data processing and validation procedures.
#
#######################################################################

data_RAXNAG
_symmetry_cell_setting           monoclinic
_symmetry_space_group_name_H-M   'P 21/a'
_symmetry_Int_Tables_number      14
_space_group_name_Hall           '-P 2yab'
loop_
_symmetry_equiv_pos_site_id
_symmetry_equiv_pos_as_xyz
1 x,y,z
2 1/2-x,1/2+y,-z
3 -x,-y,-z
4 1/2+x,1/2-y,z
_cell_length_a                   8.094(3)
_cell_length_b                   11.378(4)
_cell_length_c                   15.656(4)
_cell_angle_alpha                90
_cell_angle_beta                 97.34(2)
_cell_angle_gamma                90
_cell_volume                     1430
loop_
_atom_site_label
_atom_site_type_symbol
_atom_site_fract_x
_atom_site_fract_y
_atom_site_fract_z
Fe1 Fe 0.5000 1.0000 0.0000
O1 O 0.5543(3) 0.8614(2) -0.0830(2)
H1 H 0.512(5) 0.794(2) -0.083(3)
H2 H 0.657(3) 0.853(4) -0.087(3)
O2 O 0.2594(3) 0.9249(2) -0.00957(19)
O3 O -0.1132(3) 0.8500(2) -0.0861(2)
C1 C 0.1173(4) 0.9667(3) -0.0041(3)
C2 C -0.0513(5) 0.9323(3) -0.0388(3)
N1 N 0.5848(4) 0.8951(3) 0.1151(2)
N2 N 0.9423(7) 0.1070(4) 0.3614(4)
C3 C 0.7885(8) 0.6773(4) 0.3284(3)
H3 H 0.8968 0.7092 0.3503
H4 H 0.7181 0.6848 0.3739
C4 C 0.8094(6) 0.5489(4) 0.3108(3)
H5 H 0.8713 0.5403 0.2620
H6 H 0.7005 0.5139 0.2953
C5 C 0.8994(8) 0.4834(4) 0.3869(3)
H7 H 0.8435 0.4998 0.4368
H8 H 1.0115 0.5146 0.3986
C6 C 0.5494(6) 0.7809(4) 0.1179(3)
H9 H 0.4774 0.7489 0.0728
C7 C 0.6135(6) 0.7083(4) 0.1835(3)
H10 H 0.5881 0.6286 0.1808
C8 C 0.7150(6) 0.7522(4) 0.2534(3)
C9 C 0.7487(6) 0.8724(4) 0.2525(3)
H11 H 0.8140 0.9074 0.2988
C10 C 0.6848(5) 0.9385(4) 0.1830(3)
H12 H 0.7120 1.0179 0.1827
C11 C 0.9665(7) 0.1795(5) 0.2983(4)
H13 H 0.9941 0.1471 0.2475
C12 C 0.9534(7) 0.3000(5) 0.3028(3)
H14 H 0.9732 0.3464 0.2563
C13 C 0.9108(6) 0.3516(4) 0.3770(3)
C14 C 0.8856(7) 0.2770(4) 0.4427(4)
H15 H 0.8567 0.3064 0.4942
C15 C 0.9038(8) 0.1570(5) 0.4313(4)
H16 H 0.8873 0.1082 0.4771
Fe1_2 Fe -0.5000 1.0000 0.0000
O1B O 0.4457(3) 1.1386(2) 0.0830(2)
H1B H 0.488(5) 1.206(2) 0.083(3)
H2B H 0.343(3) 1.147(4) 0.087(3)
O2B O -0.2594(3) 1.0751(2) 0.00957(19)
O2B_2 O 0.7406(3) 1.0751(2) 0.00957(19)
O3B O 0.1132(3) 1.1500(2) 0.0861(2)
C1B C -0.1173(4) 1.0333(3) 0.0041(3)
C2B C 0.0513(5) 1.0677(3) 0.0388(3)
N1B N 0.4152(4) 1.1049(3) -0.1151(2)
N2B N 0.0577(7) 1.8930(4) -0.3614(4)
C3B C 0.2115(8) 1.3227(4) -0.3284(3)
H3B H 0.1032 1.2908 -0.3503
H4B H 0.2819 1.3152 -0.3739
C4B C 0.1906(6) 1.4511(4) -0.3108(3)
H5B H 0.1287 1.4597 -0.2620
H6B H 0.2995 1.4861 -0.2953
C5B C 0.1006(8) 1.5166(4) -0.3869(3)
H7B H 0.1565 1.5002 -0.4368
H8B H -0.0115 1.4854 -0.3986
C6B C 0.4506(6) 1.2191(4) -0.1179(3)
H9B H 0.5226 1.2511 -0.0728
C7B C 0.3865(6) 1.2917(4) -0.1835(3)
H10B H 0.4119 1.3714 -0.1808
C8B C 0.2850(6) 1.2478(4) -0.2534(3)
C9B C 0.2513(6) 1.1276(4) -0.2525(3)
H11B H 0.1860 1.0926 -0.2988
C10B C 0.3152(5) 1.0615(4) -0.1830(3)
H12B H 0.2880 0.9821 -0.1827
C11B C 0.0335(7) 1.8205(5) -0.2983(4)
H13B H 0.0059 1.8529 -0.2475
C12B C 0.0466(7) 1.7000(5) -0.3028(3)
H14B H 0.0268 1.6536 -0.2563
C13B C 0.0892(6) 1.6484(4) -0.3770(3)
C14B C 0.1144(7) 1.7230(4) -0.4427(4)
H15B H 0.1433 1.6936 -0.4942
C15B C 0.0962(8) 1.8430(5) -0.4313(4)
H16B H 0.1127 1.8918 -0.4771
loop_
_geom_bond_atom_site_label_1
_geom_bond_atom_site_label_2
_geom_bond_site_symmetry_1
_geom_bond_site_symmetry_2
Fe1 O1 1_555 1_555
O1 H1 1_555 1_555
H2 O1 1_555 1_555
O2 Fe1 1_555 1_555
O3 C2 1_555 1_555
C1 O2 1_555 1_555
C2 C1 1_555 1_555
N1 Fe1 1_555 1_555
N2 C11 1_555 1_555
C3 H3 1_555 1_555
H4 C3 1_555 1_555
C4 C3 1_555 1_555
H5 C4 1_555 1_555
H6 C4 1_555 1_555
C5 C4 1_555 1_555
H7 C5 1_555 1_555
H8 C5 1_555 1_555
C6 N1 1_555 1_555
H9 C6 1_555 1_555
C7 C6 1_555 1_555
H10 C7 1_555 1_555
C8 C3 1_555 1_555
C9 C8 1_555 1_555
H11 C9 1_555 1_555
C10 N1 1_555 1_555
H12 C10 1_555 1_555
C11 H13 1_555 1_555
C12 C11 1_555 1_555
H14 C12 1_555 1_555
C13 C5 1_555 1_555
C14 C13 1_555 1_555
H15 C14 1_555 1_555
C15 N2 1_555 1_555
H16 C15 1_555 1_555
Fe1_2 O2B 1_555 1_555
O1B Fe1 1_555 1_555
H1B O1B 1_555 1_555
H2B O1B 1_555 1_555
O2B C1B 1_555 1_555
O2B_2 Fe1 1_555 1_555
O3B C2B 1_555 1_555
C1B C2 1_555 1_555
C2B C1 1_555 1_555
N1B Fe1 1_555 1_555
N2B C11B 1_555 1_555
C3B H3B 1_555 1_555
H4B C3B 1_555 1_555
C4B C3B 1_555 1_555
H5B C4B 1_555 1_555
H6B C4B 1_555 1_555
C5B C4B 1_555 1_555
H7B C5B 1_555 1_555
H8B C5B 1_555 1_555
C6B N1B 1_555 1_555
H9B C6B 1_555 1_555
C7B C6B 1_555 1_555
H10B C7B 1_555 1_555
C8B C3B 1_555 1_555
C9B C8B 1_555 1_555
H11B C9B 1_555 1_555
C10B N1B 1_555 1_555
H12B C10B 1_555 1_555
C11B H13B 1_555 1_555
C12B C11B 1_555 1_555
H14B C12B 1_555 1_555
C13B C5B 1_555 1_555
C14B C13B 1_555 1_555
H15B C14B 1_555 1_555
C15B N2B 1_555 1_555
H16B C15B 1_555 1_555
C7 C8 1_555 1_555
C9 C10 1_555 1_555
C12 C13 1_555 1_555
C14 C15 1_555 1_555
C1B C2B 1_555 1_555
C7B C8B 1_555 1_555
C9B C10B 1_555 1_555
C12B C13B 1_555 1_555
C14B C15B 1_555 1_555

#END
