
#######################################################################
#
#                 Cambridge Crystallographic Data Centre
#                                CCDC 
#
#######################################################################
#
# If this CIF has been generated from an entry in the Cambridge 
# Structural Database, then it will include bibliographic, chemical, 
# crystal, experimental, refinement or atomic coordinate data resulting 
# from the CCDC's data processing and validation procedures.
#
#######################################################################

data_RAXNEK
_symmetry_cell_setting           monoclinic
_symmetry_space_group_name_H-M   'C 2/c'
_symmetry_Int_Tables_number      15
_space_group_name_Hall           '-C 2yn'
loop_
_symmetry_equiv_pos_site_id
_symmetry_equiv_pos_as_xyz
1 x,y,z
2 1/2+x,1/2+y,z
3 -x,y,1/2-z
4 1/2-x,1/2+y,1/2-z
5 -x,-y,-z
6 1/2-x,1/2-y,-z
7 x,-y,1/2+z
8 1/2+x,1/2-y,1/2+z
_cell_length_a                   22.751(4)
_cell_length_b                   11.680(3)
_cell_length_c                   7.978(3)
_cell_angle_alpha                90
_cell_angle_beta                 101.48(2)
_cell_angle_gamma                90
_cell_volume                     2077.59
loop_
_atom_site_label
_atom_site_type_symbol
_atom_site_fract_x
_atom_site_fract_y
_atom_site_fract_z
Fe1 Fe 0.2500 0.7500 0.0000
O1 O 0.19497(11) 0.8896(2) 0.0422(3)
H1 H 0.1994(17) 0.903(3) 0.158(2)
H2 H 0.1959(18) 0.958(2) -0.015(4)
O2 O 0.24411(11) 0.6701(2) 0.2349(2)
O3 O 0.20216(14) 0.9104(2) 0.3777(3)
N1 N 0.33112(13) 0.8367(3) 0.1413(3)
C1 C 0.3751(2) 0.7784(4) 0.2391(6)
H3 H 0.3731 0.6989 0.2384
C2 C 0.4246(2) 0.8321(6) 0.3441(6)
H4 H 0.4545 0.7883 0.4109
C3 C 0.4285(2) 0.9510(5) 0.3472(5)
C4 C 0.3832(2) 1.0090(5) 0.2478(6)
H5 H 0.3836 1.0886 0.2471
C5 C 0.33616(19) 0.9503(4) 0.1466(5)
H6 H 0.3062 0.9931 0.0780
C6 C 0.24723(16) 0.7149(3) 0.3803(4)
C7 C 0.22849(17) 0.8226(3) 0.4461(4)
C8 C 0.4783(2) 1.0149(7) 0.4535(6)
H7 H 0.4743 1.0940 0.4445
Fe1_2 Fe 0.2500 0.7500 1.0000
Fe1A Fe 0.7500 1.2500 1.0000
O1E O 0.30503(11) 0.6104(2) -0.0422(3)
H1E H 0.3006(17) 0.597(3) -0.158(2)
H2E H 0.3041(18) 0.542(2) 0.015(4)
O2E O 0.25589(11) 0.8299(2) 0.7651(2)
O2E_2 O 0.25589(11) 0.8299(2) -0.2349(2)
O3E O 0.29784(14) 0.5896(2) 0.6223(3)
N1D N 0.66888(13) 1.1633(3) 0.8587(3)
N1E N 0.16888(13) 0.6633(3) -0.1413(3)
C1D C 0.6249(2) 1.2216(4) 0.7609(6)
H3D H 0.6269 1.3011 0.7616
C2D C 0.5754(2) 1.1679(6) 0.6559(6)
H4D H 0.5455 1.2117 0.5891
C3D C 0.5715(2) 1.0490(5) 0.6528(5)
C4D C 0.6168(2) 0.9910(5) 0.7522(6)
H5D H 0.6164 0.9114 0.7529
C5D C 0.66384(19) 1.0497(4) 0.8534(5)
H6D H 0.6938 1.0069 0.9220
C6E C 0.25277(16) 0.7851(3) 0.6197(4)
C7E C 0.27151(17) 0.6774(3) 0.5539(4)
C8D C 0.5217(2) 0.9851(7) 0.5465(6)
H7D H 0.5257 0.9060 0.5555
loop_
_geom_bond_atom_site_label_1
_geom_bond_atom_site_label_2
_geom_bond_site_symmetry_1
_geom_bond_site_symmetry_2
Fe1 O1 1_555 1_555
O1 H1 1_555 1_555
H2 O1 1_555 1_555
O2 Fe1 1_555 1_555
O3 C7 1_555 1_555
N1 Fe1 1_555 1_555
C1 N1 1_555 1_555
H3 C1 1_555 1_555
C2 C1 1_555 1_555
H4 C2 1_555 1_555
C3 C2 1_555 1_555
C4 C3 1_555 1_555
H5 C4 1_555 1_555
C5 N1 1_555 1_555
H6 C5 1_555 1_555
C6 O2 1_555 1_555
C7 C6 1_555 1_555
C8 C3 1_555 1_555
H7 C8 1_555 1_555
Fe1_2 O2E 1_555 1_555
Fe1A N1D 1_555 1_555
O1E Fe1 1_555 1_555
H1E O1E 1_555 1_555
H2E O1E 1_555 1_555
O2E C6E 1_555 1_555
O2E_2 Fe1 1_555 1_555
O3E C7E 1_555 1_555
N1D C1D 1_555 1_555
N1E Fe1 1_555 1_555
C1D H3D 1_555 1_555
C2D C1D 1_555 1_555
H4D C2D 1_555 1_555
C3D C2D 1_555 1_555
C4D C3D 1_555 1_555
H5D C4D 1_555 1_555
C5D N1D 1_555 1_555
H6D C5D 1_555 1_555
C6E C7 1_555 1_555
C7E C6 1_555 1_555
C8D C8 1_555 1_555
H7D C8D 1_555 1_555
C4 C5 1_555 1_555
C3D C8D 1_555 1_555
C4D C5D 1_555 1_555
C6E C7E 1_555 1_555

#END
