
#######################################################################
#
#                 Cambridge Crystallographic Data Centre
#                                CCDC 
#
#######################################################################
#
# If this CIF has been generated from an entry in the Cambridge 
# Structural Database, then it will include bibliographic, chemical, 
# crystal, experimental, refinement or atomic coordinate data resulting 
# from the CCDC's data processing and validation procedures.
#
#######################################################################

data_RAXPAJ
_symmetry_cell_setting           monoclinic
_symmetry_space_group_name_H-M   'C 2/c'
_symmetry_Int_Tables_number      15
_space_group_name_Hall           '-C 2yn'
loop_
_symmetry_equiv_pos_site_id
_symmetry_equiv_pos_as_xyz
1 x,y,z
2 -x,y,1/2-z
3 1/2+x,1/2+y,z
4 1/2-x,1/2+y,1/2-z
5 -x,-y,-z
6 x,-y,1/2+z
7 1/2-x,1/2-y,-z
8 1/2+x,1/2-y,1/2+z
_cell_length_a                   16.4955(16)
_cell_length_b                   8.7707(9)
_cell_length_c                   15.8837(16)
_cell_angle_alpha                90
_cell_angle_beta                 101.4550(10)
_cell_angle_gamma                90
_cell_volume                     2252.23
loop_
_atom_site_label
_atom_site_type_symbol
_atom_site_fract_x
_atom_site_fract_y
_atom_site_fract_z
I1 I 0.020684(18) 0.16166(4) 0.114232(19)
Cu1 Cu 0.06964(3) -0.06318(7) 0.02652(4)
N1 N 0.1876(2) -0.0152(4) 0.0045(2)
N2 N 0.1426(2) -0.2039(4) 0.1179(2)
C1 C 0.2250(2) -0.1853(4) 0.1236(3)
C2 C 0.3316(3) -0.0638(5) 0.0515(3)
H1 H 0.3739 -0.1134 0.0889
C3 C 0.2498(2) -0.0837(5) 0.0583(3)
C4 C 0.3492(3) 0.0310(6) -0.0119(3)
H2 H 0.4036 0.0475 -0.0173
C5 C 0.2060(3) 0.0742(5) -0.0562(3)
H3 H 0.1628 0.1217 -0.0936
C6 C 0.2854(3) 0.1006(6) -0.0669(3)
H4 H 0.2956 0.1642 -0.1105
N3 N 0.1682(2) -0.3676(4) 0.2401(2)
C7 C 0.1193(3) -0.2966(5) 0.1762(3)
C8 C 0.2807(3) -0.2594(5) 0.1882(3)
H5 H 0.3376 -0.2490 0.1929
C9 C 0.2484(3) -0.3475(6) 0.2440(3)
H6 H 0.2850 -0.3966 0.2877
S1 S 0.01106(7) -0.32270(15) 0.15769(8)
C10 C 0.0000 -0.4344(7) 0.2500
H7 H -0.0481 -0.4997 0.2343
I1D I -0.020684(18) -0.16166(4) -0.114232(19)
I1A I -0.020684(18) 0.16166(4) 0.385768(19)
I1E I 0.020684(18) -0.16166(4) 0.614232(19)
Cu1D Cu -0.06964(3) 0.06318(7) -0.02652(4)
Cu1A Cu -0.06964(3) -0.06318(7) 0.47348(4)
Cu1E Cu 0.06964(3) 0.06318(7) 0.52652(4)
N1A N -0.1876(2) -0.0152(4) 0.4955(2)
N2A N -0.1426(2) -0.2039(4) 0.3821(2)
C1A C -0.2250(2) -0.1853(4) 0.3764(3)
C2A C -0.3316(3) -0.0638(5) 0.4485(3)
H1A H -0.3739 -0.1134 0.4111
C3A C -0.2498(2) -0.0837(5) 0.4417(3)
C4A C -0.3492(3) 0.0310(6) 0.5119(3)
H2A H -0.4036 0.0475 0.5173
C5A C -0.2060(3) 0.0742(5) 0.5562(3)
H3A H -0.1628 0.1217 0.5936
C6A C -0.2854(3) 0.1006(6) 0.5669(3)
H4A H -0.2956 0.1642 0.6105
N3A N -0.1682(2) -0.3676(4) 0.2599(2)
C7A C -0.1193(3) -0.2966(5) 0.3238(3)
C8A C -0.2807(3) -0.2594(5) 0.3118(3)
H5A H -0.3376 -0.2490 0.3071
C9A C -0.2484(3) -0.3475(6) 0.2560(3)
H6A H -0.2850 -0.3966 0.2123
S1A S -0.01106(7) -0.32270(15) 0.34231(8)
H7A H 0.0481 -0.4997 0.2657
loop_
_geom_bond_atom_site_label_1
_geom_bond_atom_site_label_2
_geom_bond_site_symmetry_1
_geom_bond_site_symmetry_2
I1 Cu1 1_555 1_555
Cu1 N1 1_555 1_555
N1 C3 1_555 1_555
N2 Cu1 1_555 1_555
C1 N2 1_555 1_555
C2 H1 1_555 1_555
C3 C1 1_555 1_555
C4 C2 1_555 1_555
H2 C4 1_555 1_555
C5 N1 1_555 1_555
H3 C5 1_555 1_555
C6 C4 1_555 1_555
H4 C6 1_555 1_555
N3 C7 1_555 1_555
C7 N2 1_555 1_555
C8 C1 1_555 1_555
H5 C8 1_555 1_555
C9 N3 1_555 1_555
H6 C9 1_555 1_555
S1 C7 1_555 1_555
C10 S1 1_555 1_555
H7 C10 1_555 1_555
I1D Cu1 1_555 1_555
I1A Cu1A 1_555 1_555
I1E Cu1A 1_555 1_555
Cu1D I1 1_555 1_555
Cu1A N1A 1_555 1_555
Cu1E I1A 1_555 1_555
N1A C3A 1_555 1_555
N2A Cu1A 1_555 1_555
C1A N2A 1_555 1_555
C2A H1A 1_555 1_555
C3A C1A 1_555 1_555
C4A C2A 1_555 1_555
H2A C4A 1_555 1_555
C5A N1A 1_555 1_555
H3A C5A 1_555 1_555
C6A C4A 1_555 1_555
H4A C6A 1_555 1_555
N3A C7A 1_555 1_555
C7A N2A 1_555 1_555
C8A C1A 1_555 1_555
H5A C8A 1_555 1_555
C9A N3A 1_555 1_555
H6A C9A 1_555 1_555
S1A C10 1_555 1_555
H7A C10 1_555 1_555
C2 C3 1_555 1_555
C5 C6 1_555 1_555
C8 C9 1_555 1_555
I1D Cu1D 1_555 1_555
I1E Cu1E 1_555 1_555
C2A C3A 1_555 1_555
C5A C6A 1_555 1_555
C7A S1A 1_555 1_555
C8A C9A 1_555 1_555

#END
