
#######################################################################
#
#                 Cambridge Crystallographic Data Centre
#                                CCDC 
#
#######################################################################
#
# If this CIF has been generated from an entry in the Cambridge 
# Structural Database, then it will include bibliographic, chemical, 
# crystal, experimental, refinement or atomic coordinate data resulting 
# from the CCDC's data processing and validation procedures.
#
#######################################################################

data_RAXQAK
_symmetry_cell_setting           monoclinic
_symmetry_space_group_name_H-M   'P 21/c'
_symmetry_Int_Tables_number      14
_space_group_name_Hall           '-P 2ybc'
loop_
_symmetry_equiv_pos_site_id
_symmetry_equiv_pos_as_xyz
1 x,y,z
2 -x,1/2+y,1/2-z
3 -x,-y,-z
4 x,1/2-y,1/2+z
_cell_length_a                   13.6234(9)
_cell_length_b                   24.7644(16)
_cell_length_c                   11.5519(7)
_cell_angle_alpha                90
_cell_angle_beta                 96.8360(10)
_cell_angle_gamma                90
_cell_volume                     3869.62
loop_
_atom_site_label
_atom_site_type_symbol
_atom_site_fract_x
_atom_site_fract_y
_atom_site_fract_z
Cu1 Cu 0.03462(16) 0.24539(8) 0.88156(14)
Cu2 Cu 0.47485(14) 0.45707(7) 0.22361(16)
Cu3 Cu 0.5000 1.0000 0.0000
C1 C 0.0261(12) 0.2522(5) 0.6291(11)
H1 H 0.0036 0.2877 0.6283
C2 C 0.0780(8) 0.1769(5) 0.6902(9)
H2 H 0.1000 0.1482 0.7384
C3 C 0.1018(9) 0.1339(5) 0.4956(11)
H3 H 0.0639 0.1018 0.5087
H4 H 0.0831 0.1455 0.4158
C4 C 0.2110(12) 0.1198(6) 0.5112(14)
H5 H 0.2220 0.0911 0.4572
H6 H 0.2281 0.1058 0.5895
C5 C 0.2800(12) 0.1655(8) 0.4929(17)
H7 H 0.3464 0.1546 0.5235
H8 H 0.2625 0.1960 0.5391
C6 C 0.2822(15) 0.1842(7) 0.3729(17)
H9 H 0.3014 0.1554 0.3233
H10 H 0.2186 0.1984 0.3403
C7 C 0.3596(17) 0.2280(11) 0.388(3)
H11 H 0.4228 0.2127 0.4197
H12 H 0.3411 0.2550 0.4422
C8 C 0.368(2) 0.2523(11) 0.276(2)
H13 H 0.3966 0.2271 0.2258
H14 H 0.3029 0.2629 0.2390
C9 C 0.4054(11) 0.3536(6) 0.2805(17)
H15 H 0.3396 0.3645 0.2704
C10 C 0.5585(11) 0.3518(7) 0.3060(12)
H16 H 0.6236 0.3639 0.3152
C11 C 0.3716(11) 0.5359(6) 0.0700(13)
H17 H 0.3121 0.5172 0.0631
C12 C 0.5165(13) 0.5612(8) 0.1173(16)
H18 H 0.5813 0.5621 0.1534
C13 C 0.3144(12) 0.6172(7) -0.0502(14)
H19 H 0.3453 0.6350 -0.1113
H20 H 0.2603 0.5953 -0.0867
C14 C 0.2749(12) 0.6590(8) 0.0269(13)
H21 H 0.3298 0.6801 0.0642
H22 H 0.2444 0.6407 0.0877
C15 C 0.2026(13) 0.6956(7) -0.0353(18)
H23 H 0.1495 0.6741 -0.0753
H24 H 0.1743 0.7176 0.0218
C16 C 0.2417(12) 0.7329(7) -0.1235(13)
H25 H 0.1861 0.7517 -0.1658
H26 H 0.2717 0.7110 -0.1794
C17 C 0.3166(11) 0.7744(6) -0.0731(12)
H27 H 0.2906 0.7944 -0.0112
H28 H 0.3770 0.7565 -0.0406
C18 C 0.3379(11) 0.8129(6) -0.1704(12)
H29 H 0.2769 0.8301 -0.2032
H30 H 0.3636 0.7925 -0.2320
C19 C 0.3947(12) 0.9052(6) -0.0942(13)
H31 H 0.3327 0.9212 -0.0976
C20 C 0.5467(12) 0.8900(7) -0.0710(18)
H32 H 0.6144 0.8954 -0.0531
N1 N 0.0446(8) 0.2228(4) 0.7272(8)
N2 N 0.0427(9) 0.2260(4) 0.5346(8)
N3 N 0.0765(7) 0.1768(4) 0.5750(8)
N4 N 0.4356(12) 0.3030(6) 0.3007(18)
N5 N 0.5354(12) 0.3020(6) 0.3197(14)
N6 N 0.4799(7) 0.3856(4) 0.2768(9)
N7 N 0.4534(9) 0.5199(5) 0.1329(11)
N8 N 0.3862(9) 0.5828(5) 0.0172(10)
N9 N 0.4790(10) 0.5997(6) 0.0476(14)
N10 N 0.4110(9) 0.8552(4) -0.1259(10)
N11 N 0.5099(9) 0.8448(5) -0.1109(13)
N12 N 0.4785(8) 0.9294(4) -0.0570(10)
Cu1B Cu 0.96538(16) 1.75461(8) -0.88156(14)
Cu1C Cu 0.03462(16) 0.25461(8) 0.38156(14)
Cu1A Cu 0.96538(16) 1.74539(8) -0.38156(14)
Cu2B Cu 0.52515(14) 1.54293(7) -0.22361(16)
C1B C 0.9739(12) 1.7478(5) -0.6291(11)
H1B H 0.9964 1.7123 -0.6283
C2B C 0.9220(8) 1.8231(5) -0.6902(9)
H2B H 0.9000 1.8518 -0.7384
C3B C 0.8982(9) 1.8661(5) -0.4956(11)
H3B H 0.9361 1.8982 -0.5087
H4B H 0.9169 1.8545 -0.4158
C4B C 0.7890(12) 1.8802(6) -0.5112(14)
H5B H 0.7780 1.9089 -0.4572
H6B H 0.7719 1.8942 -0.5895
C5B C 0.7200(12) 1.8345(8) -0.4929(17)
H7B H 0.6536 1.8454 -0.5235
H8B H 0.7375 1.8040 -0.5391
C6B C 0.7178(15) 1.8158(7) -0.3729(17)
H9B H 0.6986 1.8446 -0.3233
H10B H 0.7814 1.8016 -0.3403
C7B C 0.6404(17) 1.7720(11) -0.388(3)
H11B H 0.5772 1.7873 -0.4197
H12B H 0.6589 1.7450 -0.4422
C8B C 0.632(2) 1.7477(11) -0.276(2)
H13B H 0.6034 1.7729 -0.2258
H14B H 0.6971 1.7371 -0.2390
C9B C 0.5946(11) 1.6464(6) -0.2805(17)
H15B H 0.6604 1.6355 -0.2704
C10B C 0.4415(11) 1.6482(7) -0.3060(12)
H16B H 0.3764 1.6361 -0.3152
C11B C 0.6284(11) 1.4641(6) -0.0700(13)
H17B H 0.6879 1.4828 -0.0631
C12B C 0.4835(13) 1.4388(8) -0.1173(16)
H18B H 0.4187 1.4379 -0.1534
C13B C 0.6856(12) 1.3828(7) 0.0502(14)
H19B H 0.6547 1.3650 0.1113
H20B H 0.7397 1.4047 0.0867
C14B C 0.7251(12) 1.3410(8) -0.0269(13)
H21B H 0.6702 1.3199 -0.0642
H22B H 0.7556 1.3593 -0.0877
C15B C 0.7974(13) 1.3044(7) 0.0353(18)
H23B H 0.8505 1.3259 0.0753
H24B H 0.8257 1.2824 -0.0218
C16B C 0.7583(12) 1.2671(7) 0.1235(13)
H25B H 0.8139 1.2483 0.1658
H26B H 0.7283 1.2890 0.1794
C17B C 0.6834(11) 1.2256(6) 0.0731(12)
H27B H 0.7094 1.2056 0.0112
H28B H 0.6230 1.2435 0.0406
C18B C 0.6621(11) 1.1871(6) 0.1704(12)
H29B H 0.7231 1.1699 0.2032
H30B H 0.6364 1.2075 0.2320
C19B C 0.6053(12) 1.0948(6) 0.0942(13)
H31B H 0.6673 1.0788 0.0976
C20B C 0.4533(12) 1.1100(7) 0.0710(18)
H32B H 0.3856 1.1046 0.0531
N1B N 0.9554(8) 1.7772(4) -0.7272(8)
N2B N 0.9573(9) 1.7740(4) -0.5346(8)
N2C N 0.0427(9) 0.2740(4) 1.0346(8)
N2A N 0.9573(9) 1.7260(4) -1.0346(8)
N3B N 0.9235(7) 1.8232(4) -0.5750(8)
N4B N 0.5644(12) 1.6970(6) -0.3007(18)
N5B N 0.4646(12) 1.6980(6) -0.3197(14)
N6B N 0.5201(7) 1.6144(4) -0.2768(9)
N7B N 0.5466(9) 1.4801(5) -0.1329(11)
N8B N 0.6138(9) 1.4172(5) -0.0172(10)
N9B N 0.5210(10) 1.4003(6) -0.0476(14)
N10B N 0.5890(9) 1.1448(4) 0.1259(10)
N11B N 0.4901(9) 1.1552(5) 0.1109(13)
N12B N 0.5215(8) 1.0706(4) 0.0570(10)
W1 W 0.89299(3) 0.125825(19) 0.90780(4)
W2 W 1.14238(4) 0.12054(2) 1.04507(4)
W3 W 0.94113(3) 0.095880(19) 1.20981(4)
W4 W 0.94657(4) 0.02899(3) 0.69668(4)
W5 W 1.19540(4) 0.02589(3) 0.83083(5)
W6 W 0.75162(4) 0.00573(3) 0.86792(5)
O1 O 0.9965(9) 0.0553(5) 1.0282(11)
O2 O 0.9278(9) 0.0331(5) 0.9086(11)
O3 O 1.1014(9) 0.0302(5) 0.9998(11)
O4 O 0.9637(10) 0.0129(5) 1.1206(11)
O5 O 0.9263(8) 0.0962(5) 0.7681(10)
O6 O 1.1864(10) 0.0929(5) 0.9058(8)
O7 O 0.8326(7) 0.0481(5) 1.2060(12)
O8 O 1.2259(10) 0.0691(6) 1.1305(8)
O9 O 1.2652(11) 0.0002(5) 0.9714(8)
O10 O 1.0190(7) 0.0453(4) 1.3066(11)
O11 O 0.7803(9) 0.0804(6) 0.8930(10)
O12 O 1.0844(7) 0.0457(4) 0.7252(12)
O13 O 1.2078(7) 0.1779(5) 1.0634(8)
O14 O 0.9149(7) 0.1421(6) 1.3055(8)
O15 O 0.8209(9) 0.0087(5) 0.7365(11)
O16 O 1.2881(6) 0.0375(3) 0.7507(9)
O17 O 0.8461(7) 0.1867(5) 0.8689(9)
O18 O 1.0276(6) 0.1460(3) 0.9473(7)
O19 O 0.9197(7) 0.0433(3) 0.5550(7)
O20 O 0.8812(6) 0.1268(3) 1.0706(7)
O21 O 0.6328(6) 0.0093(3) 0.8066(8)
O22 O 1.0634(6) 0.1224(3) 1.1700(7)
P1 P 1.0000 0.0000 1.0000
W1B W 1.10701(3) -0.125825(19) 1.09220(4)
W2B W 0.85762(4) -0.12054(2) 0.95493(4)
W3B W 1.05887(3) -0.095880(19) 0.79019(4)
W4B W 1.05343(4) -0.02899(3) 1.30332(4)
W5B W 0.80460(4) -0.02589(3) 1.16917(5)
W6B W 1.24838(4) -0.00573(3) 1.13208(5)
O1B O 1.0035(9) -0.0553(5) 0.9718(11)
O2B O 1.0722(9) -0.0331(5) 1.0914(11)
O3B O 0.8986(9) -0.0302(5) 1.0002(11)
O4B O 1.0363(10) -0.0129(5) 0.8794(11)
O5B O 1.0737(8) -0.0962(5) 1.2319(10)
O6B O 0.8136(10) -0.0929(5) 1.0942(8)
O7B O 1.1674(7) -0.0481(5) 0.7940(12)
O8B O 0.7741(10) -0.0691(6) 0.8695(8)
O9B O 0.7348(11) -0.0002(5) 1.0286(8)
O10B O 0.9810(7) -0.0453(4) 0.6934(11)
O11B O 1.2197(9) -0.0804(6) 1.1070(10)
O12B O 0.9156(7) -0.0457(4) 1.2748(12)
O13B O 0.7922(7) -0.1779(5) 0.9366(8)
O14B O 1.0851(7) -0.1421(6) 0.6945(8)
O15B O 1.1791(9) -0.0087(5) 1.2635(11)
O16B O 0.7119(6) -0.0375(3) 1.2493(9)
O17B O 1.1539(7) -0.1867(5) 1.1311(9)
O18B O 0.9724(6) -0.1460(3) 1.0527(7)
O19B O 1.0803(7) -0.0433(3) 1.4450(7)
O20B O 1.1188(6) -0.1268(3) 0.9294(7)
O21B O 1.3672(6) -0.0093(3) 1.1934(8)
O22B O 0.9366(6) -0.1224(3) 0.8300(7)
loop_
_geom_bond_atom_site_label_1
_geom_bond_atom_site_label_2
_geom_bond_site_symmetry_1
_geom_bond_site_symmetry_2
W1 O2 1_555 1_555
W2 O3 1_555 1_555
W3 O1 1_555 1_555
W4 O2 1_555 1_555
W5 O3 1_555 1_555
W6 O2 1_555 1_555
O1 O2 1_555 1_555
O2 P1 1_555 1_555
O3 O1 1_555 1_555
O4 W3 1_555 1_555
O5 W1 1_555 1_555
O6 W2 1_555 1_555
O7 W3 1_555 1_555
O8 W2 1_555 1_555
O9 W5 1_555 1_555
O10 W3 1_555 1_555
O11 W1 1_555 1_555
O12 W4 1_555 1_555
O13 W2 1_555 1_555
O14 W3 1_555 1_555
O15 W4 1_555 1_555
O16 W5 1_555 1_555
O17 W1 1_555 1_555
O18 W1 1_555 1_555
O19 W4 1_555 1_555
O20 W1 1_555 1_555
O21 W6 1_555 1_555
O22 W2 1_555 1_555
Cu1 N1 1_555 1_555
Cu2 N6 1_555 1_555
Cu3 N12 1_555 1_555
C1 H1 1_555 1_555
C2 H2 1_555 1_555
C3 H3 1_555 1_555
H4 C3 1_555 1_555
C4 C3 1_555 1_555
H5 C4 1_555 1_555
H6 C4 1_555 1_555
C5 C4 1_555 1_555
H7 C5 1_555 1_555
H8 C5 1_555 1_555
C6 C5 1_555 1_555
H9 C6 1_555 1_555
H10 C6 1_555 1_555
C7 C6 1_555 1_555
H11 C7 1_555 1_555
H12 C7 1_555 1_555
C8 C7 1_555 1_555
H13 C8 1_555 1_555
H14 C8 1_555 1_555
C9 H15 1_555 1_555
C10 H16 1_555 1_555
C11 H17 1_555 1_555
C12 H18 1_555 1_555
C13 H19 1_555 1_555
H20 C13 1_555 1_555
C14 C13 1_555 1_555
H21 C14 1_555 1_555
H22 C14 1_555 1_555
C15 C14 1_555 1_555
H23 C15 1_555 1_555
H24 C15 1_555 1_555
C16 C15 1_555 1_555
H25 C16 1_555 1_555
H26 C16 1_555 1_555
C17 C16 1_555 1_555
H27 C17 1_555 1_555
H28 C17 1_555 1_555
C18 C17 1_555 1_555
H29 C18 1_555 1_555
H30 C18 1_555 1_555
C19 H31 1_555 1_555
C20 H32 1_555 1_555
N1 C1 1_555 1_555
N2 C1 1_555 1_555
N3 C2 1_555 1_555
N4 C8 1_555 1_555
N5 C10 1_555 1_555
N6 C9 1_555 1_555
N7 Cu2 1_555 1_555
N8 C11 1_555 1_555
N9 C12 1_555 1_555
N10 C18 1_555 1_555
N11 C20 1_555 1_555
N12 C19 1_555 1_555
P1 O1 1_555 1_555
W1B O2B 1_555 1_555
W2B O3B 1_555 1_555
W3B O1B 1_555 1_555
W4B O10 1_555 1_555
W5B O4 1_555 1_555
W6B O8 1_555 1_555
O1B P1 1_555 1_555
O2B O4 1_555 1_555
O3B O4 1_555 1_555
O4B W5 1_555 1_555
O5B W1B 1_555 1_555
O6B W2B 1_555 1_555
O7B W5 1_555 1_555
O8B W6 1_555 1_555
O9B W6 1_555 1_555
O10B W4 1_555 1_555
O11B W1B 1_555 1_555
O12B W4B 1_555 1_555
O13B W2B 1_555 1_555
O14B W3B 1_555 1_555
O15B W4B 1_555 1_555
O16B W5B 1_555 1_555
O17B W1B 1_555 1_555
O18B W1B 1_555 1_555
O19B W4B 1_555 1_555
O20B W1B 1_555 1_555
O21B W6B 1_555 1_555
O22B W2B 1_555 1_555
Cu1B N1B 1_555 1_555
Cu1C N2 1_555 1_555
Cu1A N2B 1_555 1_555
Cu2B N6B 1_555 1_555
C1B H1B 1_555 1_555
C2B H2B 1_555 1_555
C3B H3B 1_555 1_555
H4B C3B 1_555 1_555
C4B C3B 1_555 1_555
H5B C4B 1_555 1_555
H6B C4B 1_555 1_555
C5B C4B 1_555 1_555
H7B C5B 1_555 1_555
H8B C5B 1_555 1_555
C6B C5B 1_555 1_555
H9B C6B 1_555 1_555
H10B C6B 1_555 1_555
C7B C6B 1_555 1_555
H11B C7B 1_555 1_555
H12B C7B 1_555 1_555
C8B C7B 1_555 1_555
H13B C8B 1_555 1_555
H14B C8B 1_555 1_555
C9B H15B 1_555 1_555
C10B H16B 1_555 1_555
C11B H17B 1_555 1_555
C12B H18B 1_555 1_555
C13B H19B 1_555 1_555
H20B C13B 1_555 1_555
C14B C13B 1_555 1_555
H21B C14B 1_555 1_555
H22B C14B 1_555 1_555
C15B C14B 1_555 1_555
H23B C15B 1_555 1_555
H24B C15B 1_555 1_555
C16B C15B 1_555 1_555
H25B C16B 1_555 1_555
H26B C16B 1_555 1_555
C17B C16B 1_555 1_555
H27B C17B 1_555 1_555
H28B C17B 1_555 1_555
C18B C17B 1_555 1_555
H29B C18B 1_555 1_555
H30B C18B 1_555 1_555
C19B H31B 1_555 1_555
C20B H32B 1_555 1_555
N1B C1B 1_555 1_555
N2B C1B 1_555 1_555
N2C Cu1 1_555 1_555
N2A Cu1B 1_555 1_555
N3B C2B 1_555 1_555
N4B C8B 1_555 1_555
N5B C10B 1_555 1_555
N6B C9B 1_555 1_555
N7B Cu2B 1_555 1_555
N8B C11B 1_555 1_555
N9B C12B 1_555 1_555
N10B C18B 1_555 1_555
N11B C20B 1_555 1_555
N12B Cu3 1_555 1_555
W2 O18 1_555 1_555
W3 O20 1_555 1_555
W3 O22 1_555 1_555
W4 O5 1_555 1_555
W5 O6 1_555 1_555
W5 O12 1_555 1_555
W6 O11 1_555 1_555
W6 O15 1_555 1_555
O1 O4 1_555 1_555
O2 O4B 1_555 1_555
O3 P1 1_555 1_555
O3 O4B 1_555 1_555
O4 P1 1_555 1_555
O7 W5B 1_555 1_555
O9 W6B 1_555 1_555
C2 N1 1_555 1_555
C3 N3 1_555 1_555
C9 N4 1_555 1_555
C10 N6 1_555 1_555
C11 N7 1_555 1_555
C12 N7 1_555 1_555
C13 N8 1_555 1_555
C19 N10 1_555 1_555
C20 N12 1_555 1_555
N2 N3 1_555 1_555
N4 N5 1_555 1_555
N8 N9 1_555 1_555
N10 N11 1_555 1_555
P1 O2B 1_555 1_555
P1 O3B 1_555 1_555
P1 O4B 1_555 1_555
W2B O8B 1_555 1_555
W2B O18B 1_555 1_555
W3B O4B 1_555 1_555
W3B O7B 1_555 1_555
W3B O10B 1_555 1_555
W3B O20B 1_555 1_555
W3B O22B 1_555 1_555
W4B O2B 1_555 1_555
W4B O5B 1_555 1_555
W5B O3B 1_555 1_555
W5B O6B 1_555 1_555
W5B O9B 1_555 1_555
W5B O12B 1_555 1_555
W6B O2B 1_555 1_555
W6B O11B 1_555 1_555
W6B O15B 1_555 1_555
O1B O2B 1_555 1_555
O1B O3B 1_555 1_555
O1B O4B 1_555 1_555
C2B N1B 1_555 1_555
C3B N3B 1_555 1_555
C9B N4B 1_555 1_555
C10B N6B 1_555 1_555
C11B N7B 1_555 1_555
C12B N7B 1_555 1_555
C13B N8B 1_555 1_555
C19B N10B 1_555 1_555
C19B N12B 1_555 1_555
C20B N12B 1_555 1_555
N2B N3B 1_555 1_555
N4B N5B 1_555 1_555
N8B N9B 1_555 1_555
N10B N11B 1_555 1_555

#END
