
#######################################################################
#
#                 Cambridge Crystallographic Data Centre
#                                CCDC 
#
#######################################################################
#
# If this CIF has been generated from an entry in the Cambridge 
# Structural Database, then it will include bibliographic, chemical, 
# crystal, experimental, refinement or atomic coordinate data resulting 
# from the CCDC's data processing and validation procedures.
#
#######################################################################

data_RAXRIT
_symmetry_cell_setting           monoclinic
_symmetry_space_group_name_H-M   'P 21/c'
_symmetry_Int_Tables_number      14
_space_group_name_Hall           '-P 2ybc'
loop_
_symmetry_equiv_pos_site_id
_symmetry_equiv_pos_as_xyz
1 x,y,z
2 -x,1/2+y,1/2-z
3 -x,-y,-z
4 x,1/2-y,1/2+z
_cell_length_a                   7.548(5)
_cell_length_b                   19.166(13)
_cell_length_c                   11.698(7)
_cell_angle_alpha                90
_cell_angle_beta                 99.283(8)
_cell_angle_gamma                90
_cell_volume                     1670.13
loop_
_atom_site_label
_atom_site_type_symbol
_atom_site_fract_x
_atom_site_fract_y
_atom_site_fract_z
Cu1 Cu 0.70720(14) 0.00721(4) 0.34587(9)
C1 C 0.7448(12) -0.1221(4) 0.4250(10)
C2 C 0.7711(12) -0.2016(4) 0.4314(8)
C3 C 0.8407(13) -0.2304(4) 0.5412(8)
H1 H 0.8673 -0.2016 0.6056
C4 C 0.8689(13) -0.3019(4) 0.5518(8)
H2 H 0.9130 -0.3212 0.6237
C5 C 0.8316(12) -0.3444(4) 0.4556(9)
C6 C 0.7636(12) -0.3152(4) 0.3509(9)
H3 H 0.7363 -0.3438 0.2863
C7 C 0.7342(12) -0.2432(4) 0.3389(8)
H4 H 0.6892 -0.2244 0.2668
C8 C 0.8626(13) -0.4197(4) 0.4676(9)
H5 H 0.9010 -0.4366 0.5420
C9 C 0.7325(12) 0.1321(4) 0.4733(10)
C10 C 0.7082(11) 0.2100(4) 0.4882(8)
C11 C 0.7588(11) 0.2388(4) 0.5970(8)
H6 H 0.8053 0.2111 0.6600
C12 C 0.7379(12) 0.3116(4) 0.6099(8)
H7 H 0.7754 0.3328 0.6812
C13 C 0.6613(12) 0.3514(4) 0.5155(8)
C14 C 0.6158(12) 0.3201(4) 0.4101(8)
H8 H 0.5678 0.3469 0.3463
C15 C 0.6396(13) 0.2498(4) 0.3962(8)
H9 H 0.6085 0.2296 0.3235
C16 C 0.6315(12) 0.4254(4) 0.5301(8)
H10 H 0.5797 0.4491 0.4637
O1 O 0.7089(8) -0.0967(3) 0.3218(5)
O2 O 0.7533(8) -0.0878(3) 0.5113(6)
O3 O 0.8433(10) -0.4614(3) 0.3910(6)
O4 O 0.7021(8) 0.1090(3) 0.3717(5)
O5 O 0.7806(9) 0.0959(3) 0.5589(6)
O6 O 0.6646(10) 0.4603(3) 0.6165(6)
O7 O 0.9647(7) 0.0102(3) 0.3330(5)
H11 H 1.0215 -0.0317 0.3657
H12 H 1.0190 0.0499 0.3747
O8 O 0.4449(7) 0.0046(3) 0.3361(5)
H13 H 0.4071 0.0444 0.3756
H14 H 0.3898 0.0058 0.2562
Cu1C Cu 0.70720(14) 0.49279(4) 0.84587(9)
O6C O 0.6646(10) 0.0397(3) 0.1165(6)
loop_
_geom_bond_atom_site_label_1
_geom_bond_atom_site_label_2
_geom_bond_site_symmetry_1
_geom_bond_site_symmetry_2
Cu1 O1 1_555 1_555
C1 C2 1_555 1_555
C2 C3 1_555 1_555
C3 H1 1_555 1_555
C4 C3 1_555 1_555
H2 C4 1_555 1_555
C5 C4 1_555 1_555
C6 C5 1_555 1_555
H3 C6 1_555 1_555
C7 C2 1_555 1_555
H4 C7 1_555 1_555
C8 C5 1_555 1_555
H5 C8 1_555 1_555
C9 C10 1_555 1_555
C10 C11 1_555 1_555
C11 H6 1_555 1_555
C12 C11 1_555 1_555
H7 C12 1_555 1_555
C13 C12 1_555 1_555
C14 C13 1_555 1_555
H8 C14 1_555 1_555
C15 C10 1_555 1_555
H9 C15 1_555 1_555
C16 C13 1_555 1_555
H10 C16 1_555 1_555
O1 C1 1_555 1_555
O2 Cu1 1_555 1_555
O3 C8 1_555 1_555
O4 Cu1 1_555 1_555
O5 C9 1_555 1_555
O6 C16 1_555 1_555
O7 Cu1 1_555 1_555
H11 O7 1_555 1_555
H12 O7 1_555 1_555
O8 Cu1 1_555 1_555
H13 O8 1_555 1_555
H14 O8 1_555 1_555
Cu1C O6 1_555 1_555
O6C Cu1 1_555 1_555
C1 O2 1_555 1_555
C6 C7 1_555 1_555
C9 O4 1_555 1_555
C14 C15 1_555 1_555

#END
