
#######################################################################
#
#                 Cambridge Crystallographic Data Centre
#                                CCDC 
#
#######################################################################
#
# If this CIF has been generated from an entry in the Cambridge 
# Structural Database, then it will include bibliographic, chemical, 
# crystal, experimental, refinement or atomic coordinate data resulting 
# from the CCDC's data processing and validation procedures.
#
#######################################################################

data_RAXRIR
_symmetry_cell_setting           orthorhombic
_symmetry_space_group_name_H-M   'P 21 21 21'
_symmetry_Int_Tables_number      19
_space_group_name_Hall           'P 2ac 2ab'
loop_
_symmetry_equiv_pos_site_id
_symmetry_equiv_pos_as_xyz
1 x,y,z
2 1/2-x,-y,1/2+z
3 1/2+x,1/2-y,-z
4 -x,1/2+y,1/2-z
_cell_length_a                   9.3573(2)
_cell_length_b                   13.4692(5)
_cell_length_c                   19.4072(8)
_cell_angle_alpha                90
_cell_angle_beta                 90
_cell_angle_gamma                90
_cell_volume                     2445.99
loop_
_atom_site_label
_atom_site_type_symbol
_atom_site_fract_x
_atom_site_fract_y
_atom_site_fract_z
Cu1 Cu 0.77379(8) 0.09158(7) 0.64325(4)
Cu2 Cu 1.30603(8) 0.10230(6) 0.86150(4)
Cl1 Cl 0.9913(2) 0.11243(12) 0.58691(8)
Cl2 Cl 1.5458(2) 0.13518(13) 0.92219(9)
B1 B 0.9919(8) 0.1999(5) 0.8992(3)
H1 H 0.9020(8) 0.2338(5) 0.9173(3)
B2 B 0.4804(7) 0.2172(5) 0.5985(3)
H2 H 0.3831(7) 0.2420(5) 0.5822(3)
N1 N 0.9599(5) 0.1400(4) 0.8334(2)
N2 N 1.0579(5) 0.0745(4) 0.8063(2)
C1 C 1.0028(7) 0.0501(5) 0.7472(3)
H3 H 1.0457(7) 0.0052(5) 0.7172(3)
N3 N 0.8764(5) 0.0961(4) 0.7333(2)
C2 C 0.8559(6) 0.1517(5) 0.7892(3)
H4 H 0.7779(6) 0.1934(5) 0.7958(3)
N4 N 1.0596(5) 0.1334(4) 0.9547(2)
N5 N 1.1914(5) 0.0917(4) 0.9482(2)
C3 C 1.2178(7) 0.0514(5) 1.0087(3)
H5 H 1.3016(7) 0.0170(5) 1.0183(3)
N6 N 1.1140(6) 0.0643(4) 1.0550(3)
C4 C 1.0168(7) 0.1167(5) 1.0195(3)
H6 H 0.9304(7) 0.1388(5) 1.0376(3)
N7 N 1.1071(5) 0.2770(4) 0.8797(2)
N8 N 1.2383(5) 0.2506(3) 0.8546(3)
C5 C 1.3010(7) 0.3368(4) 0.8416(3)
H7 H 1.3926(7) 0.3422(4) 0.8235(3)
N9 N 1.2192(5) 0.4158(4) 0.8573(2)
C6 C 1.1005(6) 0.3747(5) 0.8812(3)
H8 H 1.0220(6) 0.4104(5) 0.8971(3)
N10 N 0.5505(5) 0.1533(3) 0.5435(2)
N11 N 0.6727(5) 0.0990(4) 0.5538(2)
C7 C 0.7013(7) 0.0612(5) 0.4918(3)
H9 H 0.7787(7) 0.0196(5) 0.4834(3)
N12 N 0.6088(6) 0.0883(4) 0.4428(2)
C8 C 0.5178(8) 0.1450(5) 0.4765(3)
H10 H 0.4395(8) 0.1757(5) 0.4561(3)
N13 N 0.4652(5) 0.1552(4) 0.6659(2)
N14 N 0.5765(4) 0.1000(4) 0.6919(2)
C9 C 0.5315(6) 0.0746(4) 0.7531(3)
H11 H 0.5856(6) 0.0361(4) 0.7832(3)
N15 N 0.4010(5) 0.1085(4) 0.7690(2)
C10 C 0.3619(6) 0.1599(5) 0.7126(3)
H12 H 0.2758(6) 0.1936(5) 0.7072(3)
N16 N 0.5796(5) 0.3056(4) 0.6163(2)
N17 N 0.7145(5) 0.2903(4) 0.6431(3)
C11 C 0.7601(6) 0.3809(5) 0.6545(3)
H13 H 0.8493(6) 0.3943(5) 0.6734(3)
N18 N 0.6670(5) 0.4532(4) 0.6364(3)
C12 C 0.5549(6) 0.4026(5) 0.6128(3)
H14 H 0.4711(6) 0.4311(5) 0.5963(3)
N9C N 0.7808(5) -0.0842(4) 0.6427(2)
N15_2 N 1.4010(5) 0.1085(4) 0.7690(2)
N18C N 1.3330(5) -0.0468(4) 0.8636(3)
Cu1C Cu 1.22621(8) 0.59158(7) 0.85675(4)
Cu2_2 Cu 0.30603(8) 0.10230(6) 0.86150(4)
Cu2C Cu 0.69397(8) 0.60230(6) 0.63850(4)
O1 O 0.5897(6) 0.1989(5) 0.3101(3)
O2 O 1.1298(10) 0.1811(8) 1.1781(4)
O3? O 0.7156(34) 0.1229(26) 0.3081(17)
O4? O 1.1950(23) 0.1085(20) 1.1912(11)
loop_
_geom_bond_atom_site_label_1
_geom_bond_atom_site_label_2
_geom_bond_site_symmetry_1
_geom_bond_site_symmetry_2
Cu1 Cl1 1_555 1_555
Cu2 Cl2 1_555 1_555
B1 H1 1_555 1_555
B2 H2 1_555 1_555
N1 B1 1_555 1_555
N2 Cu2 1_555 1_555
C1 N2 1_555 1_555
H3 C1 1_555 1_555
N3 Cu1 1_555 1_555
C2 N1 1_555 1_555
H4 C2 1_555 1_555
N4 B1 1_555 1_555
N5 Cu2 1_555 1_555
C3 N5 1_555 1_555
H5 C3 1_555 1_555
N6 C3 1_555 1_555
C4 N4 1_555 1_555
H6 C4 1_555 1_555
N7 B1 1_555 1_555
N8 Cu2 1_555 1_555
C5 N8 1_555 1_555
H7 C5 1_555 1_555
N9 C5 1_555 1_555
C6 N7 1_555 1_555
H8 C6 1_555 1_555
N10 B2 1_555 1_555
N11 Cu1 1_555 1_555
C7 N11 1_555 1_555
H9 C7 1_555 1_555
N12 C7 1_555 1_555
C8 N10 1_555 1_555
H10 C8 1_555 1_555
N13 B2 1_555 1_555
N14 Cu1 1_555 1_555
C9 N14 1_555 1_555
H11 C9 1_555 1_555
N15 C9 1_555 1_555
C10 N13 1_555 1_555
H12 C10 1_555 1_555
N16 B2 1_555 1_555
N17 Cu1 1_555 1_555
C11 N17 1_555 1_555
H13 C11 1_555 1_555
N18 C11 1_555 1_555
C12 N16 1_555 1_555
H14 C12 1_555 1_555
N9C Cu1 1_555 1_555
N15_2 Cu2 1_555 1_555
N18C Cu2 1_555 1_555
Cu1C N9 1_555 1_555
Cu2_2 N15 1_555 1_555
Cu2C N18 1_555 1_555
N1 N2 1_555 1_555
C1 N3 1_555 1_555
N3 C2 1_555 1_555
N4 N5 1_555 1_555
N6 C4 1_555 1_555
N7 N8 1_555 1_555
N9 C6 1_555 1_555
N10 N11 1_555 1_555
N12 C8 1_555 1_555
N13 N14 1_555 1_555
N15 C10 1_555 1_555
N16 N17 1_555 1_555
N18 C12 1_555 1_555

#END
