
#######################################################################
#
#                 Cambridge Crystallographic Data Centre
#                                CCDC 
#
#######################################################################
#
# If this CIF has been generated from an entry in the Cambridge 
# Structural Database, then it will include bibliographic, chemical, 
# crystal, experimental, refinement or atomic coordinate data resulting 
# from the CCDC's data processing and validation procedures.
#
#######################################################################

data_RAXSIU
_symmetry_cell_setting           monoclinic
_symmetry_space_group_name_H-M   'P 21/c'
_symmetry_Int_Tables_number      14
_space_group_name_Hall           '-P 2ybc'
loop_
_symmetry_equiv_pos_site_id
_symmetry_equiv_pos_as_xyz
1 x,y,z
2 -x,1/2+y,1/2-z
3 -x,-y,-z
4 x,1/2-y,1/2+z
_cell_length_a                   7.2068(8)
_cell_length_b                   21.877(3)
_cell_length_c                   11.1010(13)
_cell_angle_alpha                90
_cell_angle_beta                 99.178(2)
_cell_angle_gamma                90
_cell_volume                     1727.81
loop_
_atom_site_label
_atom_site_type_symbol
_atom_site_fract_x
_atom_site_fract_y
_atom_site_fract_z
C1 C 0.1356(9) -0.2132(3) 0.4288(7)
H1 H 0.1743 -0.2399 0.4932
C2 C 0.0470(10) -0.2367(3) 0.3192(8)
H2 H 0.0276 -0.2786 0.3098
C3 C -0.0110(10) -0.1983(4) 0.2262(8)
H3 H -0.0719 -0.2134 0.1520
C4 C 0.0201(9) -0.1361(3) 0.2410(6)
H4 H -0.0192 -0.1090 0.1775
C5 C 0.1103(8) -0.1154(3) 0.3519(6)
C6 C 0.1475(8) -0.0483(3) 0.3742(5)
C7 C 0.3156(8) 0.0468(3) 0.6090(5)
H5 H 0.3157 0.0197 0.6736
C8 C 0.3684(8) 0.1109(3) 0.6342(5)
C9 C 0.3252(8) 0.1567(3) 0.5468(5)
H6 H 0.2639 0.1469 0.4691
C10 C 0.3735(9) 0.2164(3) 0.5757(6)
H7 H 0.3446 0.2467 0.5171
C11 C 0.4654(9) 0.2319(3) 0.6923(6)
C12 C 0.5089(9) 0.1864(3) 0.7774(6)
H8 H 0.5726 0.1961 0.8546
C13 C 0.4592(9) 0.1263(3) 0.7497(6)
H9 H 0.4868 0.0962 0.8089
C14 C 0.5127(10) 0.2982(3) 0.7224(6)
N1 N 0.1679(7) -0.1530(2) 0.4454(5)
N2 N 0.2270(7) -0.0345(2) 0.4866(4)
N3 N 0.2698(7) 0.0277(2) 0.5003(4)
O1 O 0.1004(7) -0.0117(2) 0.2877(4)
O2 O 0.4339(11) 0.3380(2) 0.6521(6)
O3 O 0.6258(7) 0.30836(19) 0.8174(4)
O4 O 0.0812(7) -0.0961(2) 0.7068(4)
H10 H 0.0118 -0.0654 0.7029
H11 H 0.1485 -0.0977 0.7751
O5 O 0.5338(6) -0.0706(2) 0.6877(4)
H12 H 0.5835 -0.0958 0.7394
H13 H 0.6119 -0.0577 0.6462
Zn1 Zn 0.28700(10) -0.10901(3) 0.60561(6)
O3A O 0.3742(7) -0.19164(19) 0.6826(4)
Zn1A Zn 0.71300(10) 0.39099(3) 0.89439(6)
C15 C -0.027(2) 0.8688(7) 0.9221(14)
H14 H -0.0565 0.8324 0.9637
H15 H -0.0769 0.8653 0.8368
H16 H -0.0822 0.9036 0.9557
O6 O 0.2268(18) 0.8783(6) 0.9412(14)
H17 H 0.2533 0.9145 0.9536
O7 O 0.1774(17) 0.9833(5) 0.0571(7)
H18 H 0.1506 1.0028 0.1198
H19 H 0.1451 1.0052 -0.0039
O8 O 0.484(4) 0.9524(11) 0.970(3)
H20 H 0.5873 0.9743 0.9699
H21 H 0.5134 0.9623 0.8955
loop_
_geom_bond_atom_site_label_1
_geom_bond_atom_site_label_2
_geom_bond_site_symmetry_1
_geom_bond_site_symmetry_2
C1 H1 1_555 1_555
C2 C1 1_555 1_555
H2 C2 1_555 1_555
C3 C2 1_555 1_555
H3 C3 1_555 1_555
C4 C3 1_555 1_555
H4 C4 1_555 1_555
C5 C4 1_555 1_555
C6 C5 1_555 1_555
C7 H5 1_555 1_555
C8 C7 1_555 1_555
C9 C8 1_555 1_555
H6 C9 1_555 1_555
C10 C9 1_555 1_555
H7 C10 1_555 1_555
C11 C10 1_555 1_555
C12 C11 1_555 1_555
H8 C12 1_555 1_555
C13 C8 1_555 1_555
H9 C13 1_555 1_555
C14 C11 1_555 1_555
N1 C1 1_555 1_555
N2 C6 1_555 1_555
N3 C7 1_555 1_555
O1 C6 1_555 1_555
O2 C14 1_555 1_555
O3 C14 1_555 1_555
O4 H10 1_555 1_555
H11 O4 1_555 1_555
O5 H12 1_555 1_555
H13 O5 1_555 1_555
Zn1 N1 1_555 1_555
C15 H14 1_555 1_555
H15 C15 1_555 1_555
H16 C15 1_555 1_555
O6 C15 1_555 1_555
H17 O6 1_555 1_555
O7 H18 1_555 1_555
H19 O7 1_555 1_555
O8 H20 1_555 1_555
H21 O8 1_555 1_555
O3A Zn1 1_555 1_555
Zn1A O3 1_555 1_555
C5 N1 1_555 1_555
C12 C13 1_555 1_555
N2 N3 1_555 1_555
N2 Zn1 1_555 1_555
O4 Zn1 1_555 1_555
O5 Zn1 1_555 1_555

#END
