
#######################################################################
#
#                 Cambridge Crystallographic Data Centre
#                                CCDC 
#
#######################################################################
#
# If this CIF has been generated from an entry in the Cambridge 
# Structural Database, then it will include bibliographic, chemical, 
# crystal, experimental, refinement or atomic coordinate data resulting 
# from the CCDC's data processing and validation procedures.
#
#######################################################################

data_RAXTAN
_symmetry_cell_setting           triclinic
_symmetry_space_group_name_H-M   'P -1'
_symmetry_Int_Tables_number      2
_space_group_name_Hall           '-P 1'
loop_
_symmetry_equiv_pos_site_id
_symmetry_equiv_pos_as_xyz
1 x,y,z
2 -x,-y,-z
_cell_length_a                   10.1267(8)
_cell_length_b                   10.5972(8)
_cell_length_c                   13.5576(16)
_cell_angle_alpha                100.0780(10)
_cell_angle_beta                 106.8270(8)
_cell_angle_gamma                107.4660(10)
_cell_volume                     1272.62
loop_
_atom_site_label
_atom_site_type_symbol
_atom_site_fract_x
_atom_site_fract_y
_atom_site_fract_z
Cd1 Cd 0.14169(2) 0.94301(2) 0.435755(16)
Cl1 Cl 0.07542(9) 0.98838(9) 0.61490(6)
Cl2 Cl 0.38192(9) 1.14540(10) 0.50050(8)
N1 N 0.0880(3) 0.8224(3) 0.24757(19)
N2 N -0.0497(3) 0.7091(3) 0.07276(19)
N3 N -0.1227(3) 0.2796(3) -0.42522(19)
C1 C -0.0428(3) 0.7730(3) 0.1755(2)
H1 H -0.1257 0.7786 0.1896
C2 C 0.1765(3) 0.7872(3) 0.1875(2)
C3 C 0.0911(3) 0.7181(3) 0.0779(2)
C4 C 0.3249(4) 0.8107(3) 0.2210(3)
H2 H 0.3856 0.8541 0.2928
C5 C 0.3866(4) 0.7675(3) 0.1436(3)
C6 C 0.3010(4) 0.7041(3) 0.0331(3)
C7 C 0.3828(4) 0.8108(4) -0.2838(3)
H3 H 0.3418 0.8804 -0.2942
H4 H 0.4413 0.8319 -0.2091
H5 H 0.4445 0.8087 -0.3256
C8 C 0.1524(4) 0.6779(3) -0.0006(2)
H6 H 0.0919 0.6350 -0.0726
C9 C -0.1842(4) 0.6338(3) -0.0231(2)
H7 H -0.1872 0.5420 -0.0520
H8 H -0.2714 0.6243 -0.0043
C10 C -0.1840(3) 0.7036(3) -0.0978(2)
C11 C -0.1814(4) 0.8444(3) -0.0662(3)
H9 H -0.1732 0.8865 0.0027
C12 C -0.1909(4) 0.9026(4) -0.1375(3)
H10 H -0.1906 0.9918 -0.1265
C13 C -0.2028(4) 0.8202(3) -0.2422(3)
H11 H -0.2087 0.8653 -0.2954
C14 C -0.2068(3) 0.6791(3) -0.2761(2)
C15 C -0.1971(3) 0.6226(3) -0.2023(2)
H12 H -0.1981 0.5331 -0.2130
C16 C -0.0063(3) 0.5257(3) -0.3750(2)
C17 C 0.1114(4) 0.6614(3) -0.3399(2)
H13 H 0.0913 0.7418 -0.3310
C18 C 0.2525(4) 0.6653(3) -0.3208(3)
C19 C -0.2202(3) 0.3386(4) -0.4311(2)
H14 H -0.3214 0.2889 -0.4519
C20 C 0.0144(3) 0.3981(3) -0.3895(2)
C21 C 0.1569(3) 0.4017(3) -0.3693(2)
H15 H 0.1763 0.3208 -0.3775
C22 C 0.2747(3) 0.5345(3) -0.3352(2)
C23 C 0.3700(5) 0.6601(5) -0.0511(3)
H16 H 0.2919 0.6098 -0.1197
H17 H 0.4224 0.6026 -0.0273
H18 H 0.4376 0.7411 -0.0576
C24 C 0.5451(4) 0.7853(5) 0.1780(3)
H19 H 0.5531 0.6973 0.1573
H20 H 0.5909 0.8233 0.2548
H21 H 0.5942 0.8468 0.1444
C25 C 0.4295(4) 0.5405(4) -0.3131(3)
H22 H 0.4308 0.4494 -0.3186
H23 H 0.4656 0.5764 -0.3645
H24 H 0.4919 0.5997 -0.2419
N4 N -0.1581(3) 0.4843(3) -0.4030(2)
C26 C -0.2305(4) 0.5866(4) -0.3914(3)
H25 H -0.2002 0.6498 -0.4315
H26 H -0.3367 0.5363 -0.4279
Cd1A Cd -0.14169(2) 1.05699(2) 0.564245(16)
Cd1A_2 Cd -0.14169(2) 0.05699(2) -0.435755(16)
Cl1A Cl -0.07542(9) 1.01162(9) 0.38510(6)
N3A N 0.1227(3) 0.7204(3) 0.42522(19)
loop_
_geom_bond_atom_site_label_1
_geom_bond_atom_site_label_2
_geom_bond_site_symmetry_1
_geom_bond_site_symmetry_2
Cd1 Cl1 1_555 1_555
Cl1 Cd1A 1_555 1_555
Cl2 Cd1 1_555 1_555
N1 Cd1 1_555 1_555
N2 C1 1_555 1_555
N3 C19 1_555 1_555
C1 N1 1_555 1_555
H1 C1 1_555 1_555
C2 N1 1_555 1_555
C3 N2 1_555 1_555
C4 C2 1_555 1_555
H2 C4 1_555 1_555
C5 C4 1_555 1_555
C6 C5 1_555 1_555
C7 H3 1_555 1_555
H4 C7 1_555 1_555
H5 C7 1_555 1_555
C8 C3 1_555 1_555
H6 C8 1_555 1_555
C9 N2 1_555 1_555
H7 C9 1_555 1_555
H8 C9 1_555 1_555
C10 C9 1_555 1_555
C11 C10 1_555 1_555
H9 C11 1_555 1_555
C12 C11 1_555 1_555
H10 C12 1_555 1_555
C13 C12 1_555 1_555
H11 C13 1_555 1_555
C14 C13 1_555 1_555
C15 C10 1_555 1_555
H12 C15 1_555 1_555
C16 C17 1_555 1_555
C17 H13 1_555 1_555
C18 C7 1_555 1_555
C19 H14 1_555 1_555
C20 N3 1_555 1_555
C21 C20 1_555 1_555
H15 C21 1_555 1_555
C22 C18 1_555 1_555
C23 C6 1_555 1_555
H16 C23 1_555 1_555
H17 C23 1_555 1_555
H18 C23 1_555 1_555
C24 C5 1_555 1_555
H19 C24 1_555 1_555
H20 C24 1_555 1_555
H21 C24 1_555 1_555
C25 C22 1_555 1_555
H22 C25 1_555 1_555
H23 C25 1_555 1_555
H24 C25 1_555 1_555
N4 C16 1_555 1_555
C26 C14 1_555 1_555
H25 C26 1_555 1_555
H26 C26 1_555 1_555
Cd1A Cl1A 1_555 1_555
Cd1A_2 N3 1_555 1_555
Cl1A Cd1 1_555 1_555
N3A Cd1 1_555 1_555
C2 C3 1_555 1_555
C6 C8 1_555 1_555
C14 C15 1_555 1_555
C16 C20 1_555 1_555
C17 C18 1_555 1_555
C19 N4 1_555 1_555
C21 C22 1_555 1_555
N4 C26 1_555 1_555

#END
