
#######################################################################
#
#                 Cambridge Crystallographic Data Centre
#                                CCDC 
#
#######################################################################
#
# If this CIF has been generated from an entry in the Cambridge 
# Structural Database, then it will include bibliographic, chemical, 
# crystal, experimental, refinement or atomic coordinate data resulting 
# from the CCDC's data processing and validation procedures.
#
#######################################################################

data_RAXXIZ
_symmetry_cell_setting           tetragonal
_symmetry_space_group_name_H-M   'P 4/n'
_symmetry_Int_Tables_number      85
_space_group_name_Hall           '-P 4a'
loop_
_symmetry_equiv_pos_site_id
_symmetry_equiv_pos_as_xyz
1 x,y,z
2 1/2-x,1/2-y,z
3 1/2-y,x,z
4 y,1/2-x,z
5 -x,-y,-z
6 1/2+x,1/2+y,-z
7 1/2+y,-x,-z
8 -y,1/2+x,-z
_cell_length_a                   26.6386(5)
_cell_length_b                   26.6386(5)
_cell_length_c                   9.8419(3)
_cell_angle_alpha                90
_cell_angle_beta                 90
_cell_angle_gamma                90
_cell_volume                     6983.96
loop_
_atom_site_label
_atom_site_type_symbol
_atom_site_fract_x
_atom_site_fract_y
_atom_site_fract_z
C1 C -0.08177(18) -0.00088(18) 1.7183(5)
C2 C -0.06649(18) -0.02107(18) 1.5847(5)
C3 C -0.0838(2) -0.0002(2) 1.4642(5)
H1 H -0.1050 0.0276 1.4654
C4 C -0.0692(2) -0.0215(2) 1.3421(5)
C5 C -0.0882(2) -0.0023(3) 1.2117(6)
C6 C -0.0370(2) -0.0611(2) 1.3366(6)
H2 H -0.0275 -0.0746 1.2534
C7 C -0.0188(3) -0.0807(2) 1.4552(6)
C8 C -0.0335(2) -0.0614(2) 1.5799(5)
H3 H -0.0213 -0.0754 1.6599
C9 C 0.0223(3) -0.1533(2) 1.3460(7)
H4 H 0.0023 -0.1546 1.2687
N1 N 0.0639(3) -0.1845(2) 1.3780(7)
N2 N 0.0831(3) -0.1692(2) 1.5062(7)
C10 C 0.0532(2) -0.12859(19) 1.5534(6)
H5 H 0.0569 -0.1110 1.6344
N3 N 0.11020(18) 0.16985(17) 1.1721(5)
C11 C 0.13641(15) 0.12357(15) 1.1624(4)
H6 H 0.1252 0.0949 1.1179
N4 N 0.18271(19) 0.12880(19) 1.2325(6)
N5 N 0.18511(18) 0.17833(19) 1.2855(5)
C12 C 0.14029(19) 0.20369(17) 1.2482(5)
H7 H 0.1321 0.2367 1.2698
C13 C -0.0515(2) 0.1102(2) 0.9904(5)
C14 C -0.0171(2) 0.1523(2) 1.0275(6)
C15 C -0.0329(2) 0.2020(2) 1.0221(5)
H8 H -0.0654 0.2098 0.9943
C16 C 0.0000(2) 0.2396(2) 1.0586(6)
C17 C -0.0144(2) 0.2943(2) 1.0536(6)
C18 C 0.0473(2) 0.2281(2) 1.1077(9)
H9 H 0.0688 0.2537 1.1351
C19 C 0.0627(2) 0.1788(2) 1.1161(9)
C20 C 0.0311(2) 0.1400(2) 1.0718(8)
H10 H 0.0420 0.1069 1.0719
In1 In -0.109043(14) 0.032464(14) 0.95914(4)
N6 N 0.0181(3) -0.1208(3) 1.4547(7)
O1 O -0.06976(13) -0.02476(13) 1.8227(3)
O2 O -0.10597(15) 0.04009(14) 1.7279(4)
O3 O -0.10698(16) 0.0390(2) 1.2037(4)
O4 O -0.0844(2) -0.0268(2) 1.1049(5)
O5 O -0.09757(15) 0.11796(15) 0.9734(4)
O6 O -0.03406(15) 0.06647(14) 0.9805(4)
O7 O 0.0192(2) 0.32680(17) 1.0765(7)
O8 O -0.05708(17) 0.30749(15) 1.0243(4)
C1_2 C -0.08177(18) -0.00088(18) 0.7183(5)
C2_2 C -0.06649(18) -0.02107(18) 0.5847(5)
C3_2 C -0.0838(2) -0.0002(2) 0.4642(5)
H1_2 H -0.1050 0.0276 0.4654
C4_2 C -0.0692(2) -0.0215(2) 0.3421(5)
C5_2 C -0.0882(2) -0.0023(3) 0.2117(6)
C6_2 C -0.0370(2) -0.0611(2) 0.3366(6)
H2_2 H -0.0275 -0.0746 0.2534
C7_2 C -0.0188(3) -0.0807(2) 0.4552(6)
C8_2 C -0.0335(2) -0.0614(2) 0.5799(5)
H3_2 H -0.0213 -0.0754 0.6599
C9_2 C 0.0223(3) -0.1533(2) 0.3460(7)
H4_2 H 0.0023 -0.1546 0.2687
N1_2 N 0.0639(3) -0.1845(2) 0.3780(7)
N2_2 N 0.0831(3) -0.1692(2) 0.5062(7)
C10_2 C 0.0532(2) -0.12859(19) 0.5534(6)
H5_2 H 0.0569 -0.1110 0.6344
N3F N -0.33015(17) -0.11020(18) 0.8279(5)
C11F C -0.37643(15) -0.13641(15) 0.8376(4)
H6F H -0.4051 -0.1252 0.8821
N4F N -0.37120(19) -0.18271(19) 0.7675(6)
N5F N -0.32167(19) -0.18511(18) 0.7145(5)
C12F C -0.29631(17) -0.14029(19) 0.7518(5)
H7F H -0.2633 -0.1321 0.7302
C13F C -0.3898(2) 0.0515(2) 1.0096(5)
C14F C -0.3477(2) 0.0171(2) 0.9725(6)
C15F C -0.2980(2) 0.0329(2) 0.9779(5)
H8F H -0.2902 0.0654 1.0057
C16F C -0.2604(2) 0.0000(2) 0.9414(6)
C17F C -0.2057(2) 0.0144(2) 0.9464(6)
C18F C -0.2719(2) -0.0473(2) 0.8923(9)
H9F H -0.2463 -0.0688 0.8649
C19F C -0.3212(2) -0.0627(2) 0.8839(9)
C20F C -0.3600(2) -0.0311(2) 0.9282(8)
H10F H -0.3931 -0.0420 0.9281
In1_2 In -0.109043(14) 0.032464(14) 1.95914(4)
In1G In -0.032464(14) 0.390957(14) 1.04086(4)
In1_3 In -0.109043(14) 0.032464(14) -0.04086(4)
In1F In -0.467536(14) 0.109043(14) 1.04086(4)
N6_2 N 0.0181(3) -0.1208(3) 0.4547(7)
O1_2 O -0.06976(13) -0.02476(13) 0.8227(3)
O1F O -0.52476(13) 0.06976(13) 1.1773(3)
O2_2 O -0.10597(15) 0.04009(14) 0.7279(4)
O2F O -0.45991(14) 0.10597(15) 1.2721(4)
O3_2 O -0.10698(16) 0.0390(2) 0.2037(4)
O3F O -0.4610(2) 0.10698(16) 0.7963(4)
O4_2 O -0.0844(2) -0.0268(2) 0.1049(5)
O4F O -0.5268(2) 0.0844(2) 0.8951(5)
O5F O -0.38204(15) 0.09757(15) 1.0266(4)
O6F O -0.43353(14) 0.03406(15) 1.0195(4)
O7F O -0.17320(17) -0.0192(2) 0.9235(7)
O7A O -0.5192(2) 0.17320(17) 1.0765(7)
O8F O -0.19251(15) 0.05708(17) 0.9757(4)
O8A O -0.44292(17) 0.19251(15) 1.0243(4)
loop_
_geom_bond_atom_site_label_1
_geom_bond_atom_site_label_2
_geom_bond_site_symmetry_1
_geom_bond_site_symmetry_2
C1 C2 1_555 1_555
C2 C3 1_555 1_555
C3 H1 1_555 1_555
C4 C3 1_555 1_555
C5 C4 1_555 1_555
C6 C4 1_555 1_555
H2 C6 1_555 1_555
C7 C6 1_555 1_555
C8 C2 1_555 1_555
H3 C8 1_555 1_555
C9 H4 1_555 1_555
N1 C9 1_555 1_555
N2 N1 1_555 1_555
C10 N2 1_555 1_555
H5 C10 1_555 1_555
N3 C11 1_555 1_555
C11 H6 1_555 1_555
N4 C11 1_555 1_555
N5 N4 1_555 1_555
C12 N3 1_555 1_555
H7 C12 1_555 1_555
C13 C14 1_555 1_555
C14 C15 1_555 1_555
C15 H8 1_555 1_555
C16 C15 1_555 1_555
C17 C16 1_555 1_555
C18 C16 1_555 1_555
H9 C18 1_555 1_555
C19 N3 1_555 1_555
C20 C14 1_555 1_555
H10 C20 1_555 1_555
In1 O3 1_555 1_555
N6 C7 1_555 1_555
O1 C1 1_555 1_555
O2 C1 1_555 1_555
O3 C5 1_555 1_555
O4 C5 1_555 1_555
O5 C13 1_555 1_555
O6 C13 1_555 1_555
O7 C17 1_555 1_555
O8 C17 1_555 1_555
C1_2 C2_2 1_555 1_555
C2_2 C3_2 1_555 1_555
C3_2 H1_2 1_555 1_555
C4_2 C3_2 1_555 1_555
C5_2 C4_2 1_555 1_555
C6_2 C4_2 1_555 1_555
H2_2 C6_2 1_555 1_555
C7_2 C6_2 1_555 1_555
C8_2 C2_2 1_555 1_555
H3_2 C8_2 1_555 1_555
C9_2 H4_2 1_555 1_555
N1_2 C9_2 1_555 1_555
N2_2 N1_2 1_555 1_555
C10_2 N2_2 1_555 1_555
H5_2 C10_2 1_555 1_555
N3F C11F 1_555 1_555
C11F H6F 1_555 1_555
N4F C11F 1_555 1_555
N5F N4F 1_555 1_555
C12F N3F 1_555 1_555
H7F C12F 1_555 1_555
C13F C14F 1_555 1_555
C14F C15F 1_555 1_555
C15F H8F 1_555 1_555
C16F C15F 1_555 1_555
C17F C16F 1_555 1_555
C18F C16F 1_555 1_555
H9F C18F 1_555 1_555
C19F N3F 1_555 1_555
C20F C14F 1_555 1_555
H10F C20F 1_555 1_555
In1_2 O1 1_555 1_555
In1G O7 1_555 1_555
In1_3 O3_2 1_555 1_555
In1F O1F 1_555 1_555
N6_2 C7_2 1_555 1_555
O1_2 In1 1_555 1_555
O2_2 In1 1_555 1_555
O2F In1F 1_555 1_555
O3_2 C5_2 1_555 1_555
O3F In1F 1_555 1_555
O4_2 C5_2 1_555 1_555
O4F In1F 1_555 1_555
O5F C13F 1_555 1_555
O6F C13F 1_555 1_555
O7F In1 1_555 1_555
O7A In1F 1_555 1_555
O8F In1 1_555 1_555
O8A In1F 1_555 1_555
C7 C8 1_555 1_555
C9 N6 1_555 1_555
C10 N6 1_555 1_555
N5 C12 1_555 1_555
C18 C19 1_555 1_555
C19 C20 1_555 1_555
In1 O4 1_555 1_555
In1 O5 1_555 1_555
In1 O6 1_555 1_555
O2 In1_2 1_555 1_555
O8 In1G 1_555 1_555
C1_2 O1_2 1_555 1_555
C1_2 O2_2 1_555 1_555
C7_2 C8_2 1_555 1_555
C9_2 N6_2 1_555 1_555
C10_2 N6_2 1_555 1_555
N5F C12F 1_555 1_555
C17F O7F 1_555 1_555
C17F O8F 1_555 1_555
C18F C19F 1_555 1_555
C19F C20F 1_555 1_555
In1_3 O4_2 1_555 1_555
In1F O5F 1_555 1_555
In1F O6F 1_555 1_555

#END
