
#######################################################################
#
#                 Cambridge Crystallographic Data Centre
#                                CCDC 
#
#######################################################################
#
# If this CIF has been generated from an entry in the Cambridge 
# Structural Database, then it will include bibliographic, chemical, 
# crystal, experimental, refinement or atomic coordinate data resulting 
# from the CCDC's data processing and validation procedures.
#
#######################################################################

data_RAXXEV
_symmetry_cell_setting           tetragonal
_symmetry_space_group_name_H-M   'P 4/n'
_symmetry_Int_Tables_number      85
_space_group_name_Hall           '-P 4a'
loop_
_symmetry_equiv_pos_site_id
_symmetry_equiv_pos_as_xyz
1 x,y,z
2 1/2-y,x,z
3 1/2-x,1/2-y,z
4 y,1/2-x,z
5 -x,-y,-z
6 1/2+y,-x,-z
7 1/2+x,1/2+y,-z
8 -y,1/2+x,-z
_cell_length_a                   27.429(5)
_cell_length_b                   27.429(5)
_cell_length_c                   9.897(5)
_cell_angle_alpha                90
_cell_angle_beta                 90
_cell_angle_gamma                90
_cell_volume                     7446.01
loop_
_atom_site_label
_atom_site_type_symbol
_atom_site_fract_x
_atom_site_fract_y
_atom_site_fract_z
C1 C 0.4982(3) 0.4158(2) 0.7269(6)
C2 C 0.4773(2) 0.4342(2) 0.8588(6)
C3 C 0.4950(3) 0.4200(2) 0.9834(5)
H1 H 0.5204 0.3975 0.9872
C4 C 0.4761(2) 0.4383(2) 1.1024(6)
C5 C 0.4971(3) 0.4250(3) 1.2351(6)
C6 C 0.4357(2) 0.4690(2) 1.0945(6)
H2 H 0.4210 0.4801 1.1734
C7 C 0.4175(3) 0.4829(3) 0.9725(7)
C8 C 0.4352(2) 0.4654(2) 0.8544(6)
H3 H 0.4205 0.4734 0.7726
C9 C 0.3739(2) 0.5543(3) 0.8725(7)
H4 H 0.3974 0.5625 0.8087
N1 N 0.32851(19) 0.5783(3) 0.8912(8)
N2 N 0.3035(2) 0.5548(3) 0.9987(8)
C10 C 0.3335(2) 0.5162(4) 1.0464(10)
H5 H 0.3258 0.4950 1.1166
N3 N 0.6676(2) 0.6128(3) 0.6371(7)
C11 C 0.6228(2) 0.6385(3) 0.6283(5)
H6 H 0.5940 0.6267 0.5911
N4 N 0.6296(2) 0.6853(2) 0.6864(10)
N5 N 0.6787(2) 0.6886(3) 0.7310(9)
C12 C 0.7022(2) 0.6438(3) 0.7006(7)
H7 H 0.7345 0.6361 0.7190
C13 C 0.61199(19) 0.4484(2) 0.4992(5)
C14 C 0.6534(2) 0.4835(2) 0.5218(6)
C15 C 0.7014(2) 0.4675(2) 0.5188(5)
H8 H 0.7084 0.4349 0.5017
C16 C 0.7397(2) 0.5010(2) 0.5418(8)
C17 C 0.79056(18) 0.4867(2) 0.5287(6)
C18 C 0.7283(2) 0.5493(2) 0.5765(11)
H9 H 0.7526 0.5719 0.5950
C19 C 0.6808(4) 0.5619(4) 0.5822(10)
C20 C 0.6424(2) 0.5327(3) 0.5570(10)
H10 H 0.6105 0.5440 0.5623
Cd1 Cd 0.534542(13) 0.386434(12) 0.48094(5)
N6 N 0.3773(4) 0.5155(3) 0.9681(8)
O1 O 0.48046(16) 0.43174(15) 0.6228(4)
O2 O 0.53279(15) 0.38510(14) 0.7343(5)
O3 O 0.53142(18) 0.39348(18) 1.2389(5)
O4 O 0.47755(18) 0.4411(2) 1.3402(5)
O5 O 0.61954(15) 0.40325(17) 0.4989(4)
O6 O 0.57091(18) 0.4674(2) 0.4796(5)
O7 O 0.80214(13) 0.44212(15) 0.5180(4)
O8 O 0.82323(14) 0.52089(16) 0.5331(4)
C1_2 C 0.4982(3) 0.4158(2) -0.2731(6)
C2_2 C 0.4773(2) 0.4342(2) -0.1412(6)
C3_2 C 0.4950(3) 0.4200(2) -0.0166(5)
H1_2 H 0.5204 0.3975 -0.0128
C4_2 C 0.4761(2) 0.4383(2) 0.1024(6)
C5_2 C 0.4971(3) 0.4250(3) 0.2351(6)
C6_2 C 0.4357(2) 0.4690(2) 0.0945(6)
H2_2 H 0.4210 0.4801 0.1734
C7_2 C 0.4175(3) 0.4829(3) -0.0275(7)
C8_2 C 0.4352(2) 0.4654(2) -0.1456(6)
H3_2 H 0.4205 0.4734 -0.2274
C9_2 C 0.3739(2) 0.5543(3) -0.1275(7)
H4_2 H 0.3974 0.5625 -0.1913
N1_2 N 0.32851(19) 0.5783(3) -0.1088(8)
N2_2 N 0.3035(2) 0.5548(3) -0.0013(8)
C10_2 C 0.3335(2) 0.5162(4) 0.0464(10)
H5_2 H 0.3258 0.4950 0.1166
N3G N 0.3872(3) 0.1676(2) 0.3629(7)
C11G C 0.3615(3) 0.1228(2) 0.3717(5)
H6G H 0.3733 0.0940 0.4089
N4G N 0.3147(2) 0.1296(2) 0.3136(10)
N5G N 0.3114(3) 0.1787(2) 0.2690(9)
C12G C 0.3562(3) 0.2022(2) 0.2994(7)
H7G H 0.3639 0.2345 0.2810
C13G C 0.5516(2) 0.11199(19) 0.5008(5)
C14G C 0.5165(2) 0.1534(2) 0.4782(6)
C15G C 0.5325(2) 0.2014(2) 0.4812(5)
H8G H 0.5651 0.2084 0.4983
C16G C 0.4990(2) 0.2397(2) 0.4582(8)
C17G C 0.5133(2) 0.29056(18) 0.4713(6)
C18G C 0.4507(2) 0.2283(2) 0.4235(11)
H9G H 0.4281 0.2526 0.4050
C19G C 0.4381(4) 0.1808(4) 0.4178(10)
C20G C 0.4673(3) 0.1424(2) 0.4430(10)
H10G H 0.4560 0.1105 0.4377
Cd1_2 Cd 0.534542(13) 0.386434(12) -0.51906(5)
Cd1_3 Cd 0.534542(13) 0.386434(12) 1.48094(5)
Cd1E Cd 0.886434(12) 0.465458(13) 0.51906(5)
Cd1G Cd 0.613566(12) 0.034542(13) 0.51906(5)
N6_2 N 0.3773(4) 0.5155(3) -0.0319(8)
O1_2 O 0.48046(16) 0.43174(15) -0.3772(4)
O2_2 O 0.53279(15) 0.38510(14) -0.2657(5)
O3_2 O 0.53142(18) 0.39348(18) 0.2389(5)
O3_3 O 0.53142(18) 0.39348(18) -0.7611(5)
O4_2 O 0.47755(18) 0.4411(2) 0.3402(5)
O4_3 O 0.47755(18) 0.4411(2) -0.6598(5)
O5G O 0.59675(17) 0.11954(15) 0.5011(4)
O5_2 O 0.61954(15) 0.40325(17) -0.5011(4)
O6G O 0.5326(2) 0.07091(18) 0.5204(5)
O6_2 O 0.57091(18) 0.4674(2) -0.5204(5)
O7G O 0.55788(15) 0.30214(13) 0.4820(4)
O7G_2 O 0.55788(15) 0.30214(13) -0.5180(4)
O8G O 0.47911(16) 0.32323(14) 0.4669(4)
O8G_2 O 0.47911(16) 0.32323(14) -0.5331(4)
O9 O 0.5000 0.5000 0.5000
loop_
_geom_bond_atom_site_label_1
_geom_bond_atom_site_label_2
_geom_bond_site_symmetry_1
_geom_bond_site_symmetry_2
C1 C2 1_555 1_555
C2 C3 1_555 1_555
C3 H1 1_555 1_555
C4 C3 1_555 1_555
C5 C4 1_555 1_555
C6 C4 1_555 1_555
H2 C6 1_555 1_555
C7 C6 1_555 1_555
C8 C2 1_555 1_555
H3 C8 1_555 1_555
C9 H4 1_555 1_555
N1 C9 1_555 1_555
N2 N1 1_555 1_555
C10 N2 1_555 1_555
H5 C10 1_555 1_555
N3 C11 1_555 1_555
C11 H6 1_555 1_555
N4 C11 1_555 1_555
N5 N4 1_555 1_555
C12 N3 1_555 1_555
H7 C12 1_555 1_555
C13 C14 1_555 1_555
C14 C15 1_555 1_555
C15 H8 1_555 1_555
C16 C15 1_555 1_555
C17 C16 1_555 1_555
C18 C16 1_555 1_555
H9 C18 1_555 1_555
C19 N3 1_555 1_555
C20 C14 1_555 1_555
H10 C20 1_555 1_555
Cd1 O1 1_555 1_555
N6 C7 1_555 1_555
O1 C1 1_555 1_555
O2 C1 1_555 1_555
O3 C5 1_555 1_555
O4 C5 1_555 1_555
O5 C13 1_555 1_555
O6 C13 1_555 1_555
O7 C17 1_555 1_555
O8 C17 1_555 1_555
C1_2 C2_2 1_555 1_555
C2_2 C3_2 1_555 1_555
C3_2 H1_2 1_555 1_555
C4_2 C3_2 1_555 1_555
C5_2 C4_2 1_555 1_555
C6_2 C4_2 1_555 1_555
H2_2 C6_2 1_555 1_555
C7_2 C6_2 1_555 1_555
C8_2 C2_2 1_555 1_555
H3_2 C8_2 1_555 1_555
C9_2 H4_2 1_555 1_555
N1_2 C9_2 1_555 1_555
N2_2 N1_2 1_555 1_555
C10_2 N2_2 1_555 1_555
H5_2 C10_2 1_555 1_555
N3G C11G 1_555 1_555
C11G H6G 1_555 1_555
N4G C11G 1_555 1_555
N5G N4G 1_555 1_555
C12G N3G 1_555 1_555
H7G C12G 1_555 1_555
C13G C14G 1_555 1_555
C14G C15G 1_555 1_555
C15G H8G 1_555 1_555
C16G C15G 1_555 1_555
C17G C16G 1_555 1_555
C18G C16G 1_555 1_555
H9G C18G 1_555 1_555
C19G N3G 1_555 1_555
C20G C14G 1_555 1_555
H10G C20G 1_555 1_555
Cd1_2 O1_2 1_555 1_555
Cd1_3 O3 1_555 1_555
Cd1E O7 1_555 1_555
Cd1G O5G 1_555 1_555
N6_2 C7_2 1_555 1_555
O1_2 C1_2 1_555 1_555
O2_2 C1_2 1_555 1_555
O3_2 Cd1 1_555 1_555
O3_3 Cd1_2 1_555 1_555
O4_2 Cd1 1_555 1_555
O4_3 Cd1_2 1_555 1_555
O5G C13G 1_555 1_555
O5_2 Cd1_2 1_555 1_555
O6G C13G 1_555 1_555
O6_2 Cd1_2 1_555 1_555
O7G Cd1 1_555 1_555
O7G_2 Cd1_2 1_555 1_555
O8G Cd1 1_555 1_555
O8G_2 Cd1_2 1_555 1_555
C7 C8 1_555 1_555
C9 N6 1_555 1_555
C10 N6 1_555 1_555
N5 C12 1_555 1_555
C18 C19 1_555 1_555
C19 C20 1_555 1_555
Cd1 O2 1_555 1_555
Cd1 O5 1_555 1_555
Cd1 O6 1_555 1_555
O4 Cd1_3 1_555 1_555
O8 Cd1E 1_555 1_555
C5_2 O3_2 1_555 1_555
C5_2 O4_2 1_555 1_555
C7_2 C8_2 1_555 1_555
C9_2 N6_2 1_555 1_555
C10_2 N6_2 1_555 1_555
N5G C12G 1_555 1_555
C17G O7G 1_555 1_555
C17G O8G 1_555 1_555
C18G C19G 1_555 1_555
C19G C20G 1_555 1_555
Cd1_2 O2_2 1_555 1_555
Cd1G O6G 1_555 1_555

#END
