
#######################################################################
#
#                 Cambridge Crystallographic Data Centre
#                                CCDC 
#
#######################################################################
#
# If this CIF has been generated from an entry in the Cambridge 
# Structural Database, then it will include bibliographic, chemical, 
# crystal, experimental, refinement or atomic coordinate data resulting 
# from the CCDC's data processing and validation procedures.
#
#######################################################################

data_RAXYIZ
_symmetry_cell_setting           orthorhombic
_symmetry_space_group_name_H-M   'C c c 2'
_symmetry_Int_Tables_number      37
_space_group_name_Hall           'C 2 -2c'
loop_
_symmetry_equiv_pos_site_id
_symmetry_equiv_pos_as_xyz
1 x,y,z
2 -x,-y,z
3 x,-y,1/2+z
4 -x,y,1/2+z
5 1/2+x,1/2+y,z
6 1/2-x,1/2-y,z
7 1/2+x,1/2-y,1/2+z
8 1/2-x,1/2+y,1/2+z
_cell_length_a                   17.6391(15)
_cell_length_b                   39.530(4)
_cell_length_c                   11.7333(11)
_cell_angle_alpha                90
_cell_angle_beta                 90
_cell_angle_gamma                90
_cell_volume                     8181.32
loop_
_atom_site_label
_atom_site_type_symbol
_atom_site_fract_x
_atom_site_fract_y
_atom_site_fract_z
Ni1 Ni 0.23753(3) 0.098301(12) 0.95871(9)
C1 C 0.3297(4) 0.05039(16) 0.7756(7)
H1 H 0.3505 0.0661 0.7256
C2 C 0.3416(5) 0.01720(16) 0.7719(8)
H2 H 0.3725 0.0057 0.7207
C3 C 0.2650(3) 0.02868(12) 0.9112(6)
C4 C 0.2151(3) 0.02798(11) 1.0048(5)
C5 C 0.1458(4) 0.04888(14) 1.1396(6)
H3 H 0.1215 0.0641 1.1878
C6 C 0.1411(4) 0.01535(16) 1.1459(7)
H4 H 0.1125 0.0033 1.1985
C7 C 0.3609(4) 0.09050(15) 1.1694(6)
H5 H 0.3368 0.0752 1.2173
C8 C 0.4274(4) 0.10406(17) 1.1883(7)
H6 H 0.4588 0.1000 1.2506
C9 C 0.3829(3) 0.12309(12) 1.0281(5)
C10 C 0.3677(3) 0.14013(11) 0.9214(5)
C11 C 0.3706(4) 0.17151(15) 0.7707(6)
H7 H 0.3855 0.1870 0.7153
C12 C 0.3046(4) 0.15429(15) 0.7724(6)
H8 H 0.2666 0.1556 0.7177
C13 C 0.1124(4) 0.09575(14) 0.7484(6)
H9 H 0.1345 0.0805 0.6979
C14 C 0.0461(4) 0.11143(16) 0.7318(6)
H10 H 0.0137 0.1090 0.6699
C15 C 0.0944(3) 0.12725(11) 0.8939(5)
C16 C 0.1119(3) 0.14276(11) 1.0036(4)
C17 C 0.1159(3) 0.17217(13) 1.1593(5)
H11 H 0.1036 0.1870 1.2181
C18 C 0.1779(3) 0.15287(12) 1.1518(5)
H12 H 0.2168 0.1522 1.2053
N1 N 0.2820(3) 0.05790(10) 0.8649(5)
N2 N 0.2995(3) 0.00298(12) 0.8581(5)
H20 H 0.2960 -0.0182 0.8745
N3 N 0.1924(2) 0.05726(9) 1.0503(5)
N4 N 0.1843(3) 0.00197(12) 1.0643(6)
H21 H 0.1913 -0.0192 1.0518
N5 N 0.3319(2) 0.10235(9) 1.0676(4)
N6 N 0.4420(3) 0.12527(13) 1.0991(5)
H22 H 0.4817 0.1377 1.0903
N7 N 0.3031(2) 0.13447(10) 0.8692(4)
N8 N 0.4113(3) 0.16240(11) 0.8637(5)
H23 H 0.4558 0.1694 0.8822
N9 N 0.1428(2) 0.10538(10) 0.8505(4)
N10 N 0.0356(2) 0.13196(12) 0.8252(4)
H24 H -0.0020 0.1454 0.8368
N11 N 0.1755(2) 0.13422(9) 1.0534(4)
N12 N 0.0739(2) 0.16574(10) 1.0630(4)
H25 H 0.0314 0.1749 1.0447
Ni2 Ni 0.46960(3) -0.254146(12) 0.96004(7)
C19 C 0.6776(3) -0.21968(13) 1.1209(5)
H13 H 0.7265 -0.2114 1.1313
C20 C 0.6419(3) -0.22508(12) 1.0200(5)
H14 H 0.6622 -0.2209 0.9483
C21 C 0.5636(2) -0.23959(10) 1.1533(4)
C22 C 0.4938(3) -0.25273(9) 1.2015(5)
C23 C 0.3830(3) -0.27435(13) 1.1900(4)
H15 H 0.3370 -0.2824 1.1625
C24 C 0.4050(3) -0.27363(13) 1.3020(4)
H16 H 0.3763 -0.2814 1.3631
C25 C 0.3285(2) -0.16596(9) 0.9569(5)
C26 C 0.3239(2) -0.13087(10) 0.9647(6)
H17 H 0.3681 -0.1182 0.9700
C27 C 0.2542(3) -0.11467(10) 0.9646(7)
C28 C 0.1882(2) -0.13369(10) 0.9585(6)
H18 H 0.1414 -0.1230 0.9624
C29 C 0.1918(2) -0.16886(9) 0.9464(5)
C30 C 0.2617(2) -0.18468(10) 0.9459(5)
H19 H 0.2644 -0.2081 0.9382
C31 C 0.4034(2) -0.18319(10) 0.9595(6)
C32 C 0.2507(3) -0.07600(11) 0.9676(8)
N13 N 0.5699(2) -0.23787(10) 1.0416(4)
N14 N 0.6269(2) -0.22894(10) 1.2045(4)
H26 H 0.6346 -0.2280 1.2768
N15 N 0.4404(2) -0.26114(10) 1.1261(3)
O1 O 0.40460(17) -0.21364(7) 0.9279(3)
O2 O 0.45969(19) -0.16782(10) 0.9941(5)
O3 O 0.3075(2) -0.06052(8) 0.9383(5)
O4 O 0.1892(3) -0.06347(9) 1.0004(4)
N16 N 0.4758(2) -0.25968(10) 1.3097(3)
C33 C 0.1204(2) -0.18936(11) 0.9358(4)
O5 O 0.12733(16) -0.22037(7) 0.9143(3)
O6 O 0.05736(16) -0.17519(8) 0.9525(4)
Ni2C Ni 0.53040(3) -0.254146(12) 1.46004(7)
Ni2E Ni 0.03040(3) -0.245854(12) 0.96004(7)
N16C N 0.5242(2) -0.25968(10) 0.8097(3)
O5E O 0.37267(16) -0.27963(7) 0.9143(3)
O7 O 0.4681(11) 0.0590(6) 1.451(3)
H27 H 0.4362 0.0638 1.5028
H28 H 0.5141 0.0552 1.4680
O8 O 0.0323(10) 0.0692(6) 0.480(2)
H29 H -0.0118 0.0652 0.5062
H30 H 0.0375 0.0798 0.4175
loop_
_geom_bond_atom_site_label_1
_geom_bond_atom_site_label_2
_geom_bond_site_symmetry_1
_geom_bond_site_symmetry_2
Ni1 N1 1_555 1_555
Ni2 N13 1_555 1_555
C1 H1 1_555 1_555
C2 C1 1_555 1_555
H2 C2 1_555 1_555
C3 C4 1_555 1_555
C4 N3 1_555 1_555
C5 H3 1_555 1_555
C6 C5 1_555 1_555
H4 C6 1_555 1_555
C7 H5 1_555 1_555
C8 C7 1_555 1_555
H6 C8 1_555 1_555
C9 C10 1_555 1_555
C10 N7 1_555 1_555
C11 H7 1_555 1_555
C12 C11 1_555 1_555
H8 C12 1_555 1_555
C13 H9 1_555 1_555
C14 C13 1_555 1_555
H10 C14 1_555 1_555
C15 C16 1_555 1_555
C16 N11 1_555 1_555
C17 H11 1_555 1_555
C18 C17 1_555 1_555
H12 C18 1_555 1_555
C19 H13 1_555 1_555
C20 C19 1_555 1_555
H14 C20 1_555 1_555
C21 C22 1_555 1_555
C22 N15 1_555 1_555
C23 H15 1_555 1_555
C24 C23 1_555 1_555
H16 C24 1_555 1_555
C25 C26 1_555 1_555
C26 H17 1_555 1_555
C27 C26 1_555 1_555
C28 C27 1_555 1_555
H18 C28 1_555 1_555
C29 C28 1_555 1_555
C30 C25 1_555 1_555
H19 C30 1_555 1_555
C31 C25 1_555 1_555
C32 C27 1_555 1_555
N1 C1 1_555 1_555
N2 C2 1_555 1_555
H20 N2 1_555 1_555
N3 Ni1 1_555 1_555
N4 C4 1_555 1_555
H21 N4 1_555 1_555
N5 Ni1 1_555 1_555
N6 C8 1_555 1_555
H22 N6 1_555 1_555
N7 Ni1 1_555 1_555
N8 C10 1_555 1_555
H23 N8 1_555 1_555
N9 Ni1 1_555 1_555
N10 C14 1_555 1_555
H24 N10 1_555 1_555
N11 Ni1 1_555 1_555
N12 C16 1_555 1_555
H25 N12 1_555 1_555
N13 C20 1_555 1_555
N14 C19 1_555 1_555
H26 N14 1_555 1_555
N15 Ni2 1_555 1_555
O1 Ni2 1_555 1_555
O2 C31 1_555 1_555
O3 C32 1_555 1_555
O4 C32 1_555 1_555
N16 C22 1_555 1_555
C33 C29 1_555 1_555
O5 C33 1_555 1_555
O6 C33 1_555 1_555
O7 H27 1_555 1_555
H28 O7 1_555 1_555
O8 H29 1_555 1_555
H30 O8 1_555 1_555
Ni2C N16 1_555 1_555
Ni2E O5 1_555 1_555
N16C Ni2 1_555 1_555
O5E Ni2 1_555 1_555
C3 N1 1_555 1_555
C3 N2 1_555 1_555
C5 N3 1_555 1_555
C6 N4 1_555 1_555
C7 N5 1_555 1_555
C9 N5 1_555 1_555
C9 N6 1_555 1_555
C11 N8 1_555 1_555
C12 N7 1_555 1_555
C13 N9 1_555 1_555
C15 N9 1_555 1_555
C15 N10 1_555 1_555
C17 N12 1_555 1_555
C18 N11 1_555 1_555
C21 N13 1_555 1_555
C21 N14 1_555 1_555
C23 N15 1_555 1_555
C24 N16 1_555 1_555
C29 C30 1_555 1_555
C31 O1 1_555 1_555

#END
