
#######################################################################
#
#                 Cambridge Crystallographic Data Centre
#                                CCDC 
#
#######################################################################
#
# If this CIF has been generated from an entry in the Cambridge 
# Structural Database, then it will include bibliographic, chemical, 
# crystal, experimental, refinement or atomic coordinate data resulting 
# from the CCDC's data processing and validation procedures.
#
#######################################################################

data_RAXYUL
_symmetry_cell_setting           triclinic
_symmetry_space_group_name_H-M   'P -1'
_symmetry_Int_Tables_number      2
_space_group_name_Hall           '-P 1'
loop_
_symmetry_equiv_pos_site_id
_symmetry_equiv_pos_as_xyz
1 x,y,z
2 -x,-y,-z
_cell_length_a                   8.6051(7)
_cell_length_b                   8.6212(8)
_cell_length_c                   11.8163(11)
_cell_angle_alpha                104.866(4)
_cell_angle_beta                 104.968(4)
_cell_angle_gamma                94.773(4)
_cell_volume                     807.963
loop_
_atom_site_label
_atom_site_type_symbol
_atom_site_fract_x
_atom_site_fract_y
_atom_site_fract_z
Mn1 Mn 0.30214(5) 0.48182(6) 0.00897(4)
N1 N 0.3391(3) 0.3297(3) 0.1469(2)
N2 N 0.7132(3) 0.4785(3) 0.4684(2)
N3 N 0.8398(3) 0.5264(3) 0.5782(2)
N4 N 1.2274(3) 0.6525(3) 0.8876(2)
N5 N 0.5450(3) 0.6355(3) 0.1015(2)
N6 N 0.5827(3) 0.7402(3) 0.1985(2)
N7 N 0.6164(4) 0.8401(4) 0.2900(3)
N8 N 0.0801(3) 0.3081(3) -0.1059(2)
N9 N -0.0549(3) 0.3344(3) -0.1186(2)
N10 N -0.1900(3) 0.3562(3) -0.1347(2)
C1 C 0.4602(4) 0.3742(4) 0.2523(3)
H1 H 0.5301 0.4711 0.2704
C2 C 0.2372(4) 0.1910(4) 0.1243(3)
H2 H 0.1499 0.1598 0.0534
C3 C 0.2554(5) 0.0935(4) 0.2002(3)
H3 H 0.1831 -0.0023 0.1805
C4 C 0.3831(4) 0.1402(4) 0.3066(3)
H4 H 0.3990 0.0745 0.3586
C5 C 0.4876(4) 0.2849(4) 0.3359(2)
C6 C 0.6242(4) 0.3433(4) 0.4514(3)
C7 C 0.6451(5) 0.2402(5) 0.5374(3)
H5 H 0.7390 0.2890 0.6064
H6 H 0.6598 0.1336 0.4958
H7 H 0.5500 0.2320 0.5650
C8 C 0.9095(5) 0.7645(5) 0.5091(3)
H8 H 0.8280 0.7071 0.4339
H9 H 1.0112 0.7880 0.4928
H10 H 0.8764 0.8643 0.5456
C9 C 0.9298(4) 0.6611(4) 0.5953(3)
C10 C 1.0644(4) 0.7169(4) 0.7113(3)
C11 C 1.1467(4) 0.8751(4) 0.7574(3)
H11 H 1.1225 0.9499 0.7136
C12 C 1.2652(4) 0.9208(4) 0.8695(3)
H12 H 1.3199 1.0271 0.9026
C13 C 1.3009(4) 0.8078(4) 0.9308(3)
H13 H 1.3800 0.8403 1.0064
C14 C 1.1121(4) 0.6093(4) 0.7797(3)
H14 H 1.0607 0.5017 0.7483
Mn1_2 Mn 1.30214(5) 0.48182(6) 1.00897(4)
Mn1A Mn 0.69786(5) 0.51818(6) -0.00897(4)
Mn1A_2 Mn -0.30214(5) 0.51818(6) -0.00897(4)
N4_2 N 0.2274(3) 0.6525(3) -0.1124(2)
N5A N 0.4550(3) 0.3645(3) -0.1015(2)
N10A N 0.1900(3) 0.6438(3) 0.1347(2)
loop_
_geom_bond_atom_site_label_1
_geom_bond_atom_site_label_2
_geom_bond_site_symmetry_1
_geom_bond_site_symmetry_2
Mn1 N1 1_555 1_555
N1 C1 1_555 1_555
N2 N3 1_555 1_555
N3 C9 1_555 1_555
N4 C13 1_555 1_555
N5 Mn1 1_555 1_555
N6 N5 1_555 1_555
N7 N6 1_555 1_555
N8 Mn1 1_555 1_555
N9 N8 1_555 1_555
N10 N9 1_555 1_555
C1 H1 1_555 1_555
C2 N1 1_555 1_555
H2 C2 1_555 1_555
C3 C2 1_555 1_555
H3 C3 1_555 1_555
C4 C3 1_555 1_555
H4 C4 1_555 1_555
C5 C1 1_555 1_555
C6 N2 1_555 1_555
C7 C6 1_555 1_555
H5 C7 1_555 1_555
H6 C7 1_555 1_555
H7 C7 1_555 1_555
C8 H8 1_555 1_555
H9 C8 1_555 1_555
H10 C8 1_555 1_555
C9 C8 1_555 1_555
C10 C9 1_555 1_555
C11 C10 1_555 1_555
H11 C11 1_555 1_555
C12 C11 1_555 1_555
H12 C12 1_555 1_555
C13 C12 1_555 1_555
H13 C13 1_555 1_555
C14 N4 1_555 1_555
H14 C14 1_555 1_555
Mn1_2 N4 1_555 1_555
Mn1A N5 1_555 1_555
Mn1A_2 N10 1_555 1_555
N4_2 Mn1 1_555 1_555
N5A Mn1 1_555 1_555
N10A Mn1 1_555 1_555
C4 C5 1_555 1_555
C5 C6 1_555 1_555
C10 C14 1_555 1_555
Mn1A N5A 1_555 1_555

#END
