
#######################################################################
#
#                 Cambridge Crystallographic Data Centre
#                                CCDC 
#
#######################################################################
#
# If this CIF has been generated from an entry in the Cambridge 
# Structural Database, then it will include bibliographic, chemical, 
# crystal, experimental, refinement or atomic coordinate data resulting 
# from the CCDC's data processing and validation procedures.
#
#######################################################################

data_RAXYEV
_symmetry_cell_setting           orthorhombic
_symmetry_space_group_name_H-M   'C c c 2'
_symmetry_Int_Tables_number      37
_space_group_name_Hall           'C 2 -2c'
loop_
_symmetry_equiv_pos_site_id
_symmetry_equiv_pos_as_xyz
1 x,y,z
2 -x,-y,z
3 x,-y,1/2+z
4 -x,y,1/2+z
5 1/2+x,1/2+y,z
6 1/2-x,1/2-y,z
7 1/2+x,1/2-y,1/2+z
8 1/2-x,1/2+y,1/2+z
_cell_length_a                   18.1339(15)
_cell_length_b                   39.318(3)
_cell_length_c                   11.6914(10)
_cell_angle_alpha                90
_cell_angle_beta                 90
_cell_angle_gamma                90
_cell_volume                     8335.84
loop_
_atom_site_label
_atom_site_type_symbol
_atom_site_fract_x
_atom_site_fract_y
_atom_site_fract_z
Co1 Co 0.26169(3) 0.103124(12) 0.77096(6)
C1 C 0.1822(3) 0.05409(14) 0.9660(5)
H1 H 0.1618 0.0701 1.0154
C2 C 0.1749(4) 0.01967(15) 0.9761(7)
H2 H 0.1481 0.0080 1.0313
C3 C 0.2435(2) 0.03183(11) 0.8276(6)
C4 C 0.2881(2) 0.03133(10) 0.7281(5)
C5 C 0.3478(3) 0.05222(13) 0.5867(5)
H3 H 0.3676 0.0677 0.5348
C6 C 0.3573(4) 0.01832(14) 0.5821(6)
H4 H 0.3844 0.0063 0.5279
C7 C 0.1395(3) 0.09443(15) 0.5635(5)
H5 H 0.1647 0.0804 0.5127
C8 C 0.0677(4) 0.10659(19) 0.5496(7)
H6 H 0.0362 0.1024 0.4884
C9 C 0.1142(2) 0.12514(11) 0.7090(4)
C10 C 0.1282(2) 0.14224(10) 0.8141(4)
C11 C 0.1240(3) 0.17446(14) 0.9664(5)
H7 H 0.1083 0.1895 1.0227
C12 C 0.1918(3) 0.15896(12) 0.9598(5)
H8 H 0.2302 0.1615 1.0119
C13 C 0.3863(3) 0.10153(13) 0.9782(5)
H9 H 0.3636 0.0874 1.0313
C14 C 0.4549(3) 0.11527(15) 0.9901(5)
H10 H 0.4878 0.1120 1.0502
C15 C 0.4045(2) 0.13160(10) 0.8290(4)
C16 C 0.3881(2) 0.14646(9) 0.7195(4)
C17 C 0.3879(3) 0.17416(11) 0.5577(4)
H11 H 0.4015 0.1881 0.4971
C18 C 0.3234(2) 0.15582(11) 0.5671(4)
H12 H 0.2857 0.1551 0.5131
N1 N 0.2238(2) 0.06143(9) 0.8726(4)
N2 N 0.2154(3) 0.00579(10) 0.8880(5)
H20 H 0.2215 -0.0155 0.8742
N3 N 0.3055(2) 0.06067(9) 0.6776(4)
N4 N 0.3190(3) 0.00489(10) 0.6737(5)
H21 H 0.3157 -0.0162 0.6921
N5 N 0.1660(2) 0.10652(9) 0.6633(4)
N6 N 0.0532(2) 0.12563(14) 0.6422(5)
H22 H 0.0127 0.1362 0.6565
N7 N 0.19336(19) 0.13909(9) 0.8632(4)
N8 N 0.0840(2) 0.16347(10) 0.8743(4)
H23 H 0.0394 0.1690 0.8578
N9 N 0.35585(19) 0.11146(9) 0.8781(3)
N10 N 0.4652(2) 0.13523(11) 0.8934(4)
H24 H 0.5031 0.1475 0.8778
N11 N 0.32418(17) 0.13855(8) 0.6709(3)
N12 N 0.42783(18) 0.16787(8) 0.6546(3)
H25 H 0.4705 0.1761 0.6709
Co2 Co 0.03333(2) -0.249999(11) 0.74005(7)
C19 C -0.1755(2) -0.22020(13) 0.5795(4)
H13 H -0.2237 -0.2127 0.5696
C20 C -0.1381(2) -0.22143(12) 0.6766(4)
H14 H -0.1568 -0.2153 0.7477
C21 C -0.0638(2) -0.23927(9) 0.5469(4)
C22 C 0.0024(2) -0.25372(8) 0.4983(4)
C23 C 0.1110(2) -0.27478(12) 0.5096(4)
H15 H 0.1560 -0.2826 0.5372
C24 C 0.0905(2) -0.27325(11) 0.3976(4)
H16 H 0.1189 -0.2804 0.3360
C25 C 0.17852(19) -0.16331(9) 0.7700(4)
C26 C 0.1842(2) -0.12798(9) 0.7722(4)
H17 H 0.1420 -0.1146 0.7759
C27 C 0.2536(2) -0.11286(10) 0.7689(5)
C28 C 0.3164(2) -0.13270(9) 0.7649(4)
H18 H 0.3625 -0.1224 0.7593
C29 C 0.31126(18) -0.16790(9) 0.7694(3)
C30 C 0.24232(17) -0.18325(9) 0.7705(4)
H19 H 0.2386 -0.2068 0.7716
C31 C 0.10417(18) -0.17969(9) 0.7681(4)
C32 C 0.2603(3) -0.07410(10) 0.7684(6)
C33 C 0.37956(18) -0.18955(8) 0.7725(3)
N13 N -0.06698(17) -0.23314(9) 0.6570(3)
N14 N -0.12909(18) -0.23205(10) 0.4968(3)
H26 H -0.1395 -0.2345 0.4256
N15 N 0.05355(18) -0.26280(9) 0.5746(3)
N16 N 0.02062(17) -0.25938(8) 0.3900(3)
O1 O 0.10388(13) -0.21169(6) 0.7671(3)
O2 O 0.04836(15) -0.16200(8) 0.7668(5)
O3 O 0.31877(19) -0.06144(8) 0.7365(4)
O4 O 0.2051(2) -0.05797(8) 0.8037(4)
O5 O 0.37237(13) -0.22078(6) 0.7865(3)
O6 O 0.44116(14) -0.17490(7) 0.7613(3)
Co2C Co -0.03333(2) -0.249999(11) 0.24005(7)
Co2E Co 0.46667(2) -0.250001(11) 0.74005(7)
N16C N -0.02062(17) -0.25938(8) 0.8900(3)
O5E O 0.12763(13) -0.27922(6) 0.7865(3)
O7 O 0.4751(5) -0.0656(3) 0.7287(15)
H27 H 0.4701 -0.0869 0.7359
H28 H 0.5128 -0.0575 0.6949
O8 O 0.0543(7) -0.0515(4) 0.763(2)
H29 H 0.0599 -0.0714 0.7899
H30 H 0.0284 -0.0484 0.7034
loop_
_geom_bond_atom_site_label_1
_geom_bond_atom_site_label_2
_geom_bond_site_symmetry_1
_geom_bond_site_symmetry_2
Co1 N1 1_555 1_555
Co2 N13 1_555 1_555
C1 H1 1_555 1_555
C2 C1 1_555 1_555
H2 C2 1_555 1_555
C3 C4 1_555 1_555
C4 N3 1_555 1_555
C5 H3 1_555 1_555
C6 C5 1_555 1_555
H4 C6 1_555 1_555
C7 H5 1_555 1_555
C8 C7 1_555 1_555
H6 C8 1_555 1_555
C9 C10 1_555 1_555
C10 N7 1_555 1_555
C11 H7 1_555 1_555
C12 C11 1_555 1_555
H8 C12 1_555 1_555
C13 H9 1_555 1_555
C14 C13 1_555 1_555
H10 C14 1_555 1_555
C15 C16 1_555 1_555
C16 N11 1_555 1_555
C17 H11 1_555 1_555
C18 C17 1_555 1_555
H12 C18 1_555 1_555
C19 H13 1_555 1_555
C20 C19 1_555 1_555
H14 C20 1_555 1_555
C21 C22 1_555 1_555
C22 N15 1_555 1_555
C23 H15 1_555 1_555
C24 C23 1_555 1_555
H16 C24 1_555 1_555
C25 C26 1_555 1_555
C26 H17 1_555 1_555
C27 C26 1_555 1_555
C28 C27 1_555 1_555
H18 C28 1_555 1_555
C29 C28 1_555 1_555
C30 C25 1_555 1_555
H19 C30 1_555 1_555
C31 C25 1_555 1_555
C32 C27 1_555 1_555
C33 C29 1_555 1_555
N1 C1 1_555 1_555
N2 C2 1_555 1_555
H20 N2 1_555 1_555
N3 Co1 1_555 1_555
N4 C4 1_555 1_555
H21 N4 1_555 1_555
N5 Co1 1_555 1_555
N6 C8 1_555 1_555
H22 N6 1_555 1_555
N7 Co1 1_555 1_555
N8 C10 1_555 1_555
H23 N8 1_555 1_555
N9 Co1 1_555 1_555
N10 C14 1_555 1_555
H24 N10 1_555 1_555
N11 Co1 1_555 1_555
N12 C16 1_555 1_555
H25 N12 1_555 1_555
N13 C20 1_555 1_555
N14 C19 1_555 1_555
H26 N14 1_555 1_555
N15 Co2 1_555 1_555
N16 C22 1_555 1_555
O1 Co2 1_555 1_555
O2 C31 1_555 1_555
O3 C32 1_555 1_555
O4 C32 1_555 1_555
O5 C33 1_555 1_555
O6 C33 1_555 1_555
O7 H27 1_555 1_555
H28 O7 1_555 1_555
O8 H29 1_555 1_555
H30 O8 1_555 1_555
Co2C N16 1_555 1_555
Co2E O5 1_555 1_555
N16C Co2 1_555 1_555
O5E Co2 1_555 1_555
C3 N1 1_555 1_555
C3 N2 1_555 1_555
C5 N3 1_555 1_555
C6 N4 1_555 1_555
C7 N5 1_555 1_555
C9 N5 1_555 1_555
C9 N6 1_555 1_555
C11 N8 1_555 1_555
C12 N7 1_555 1_555
C13 N9 1_555 1_555
C15 N9 1_555 1_555
C15 N10 1_555 1_555
C17 N12 1_555 1_555
C18 N11 1_555 1_555
C21 N13 1_555 1_555
C21 N14 1_555 1_555
C23 N15 1_555 1_555
C24 N16 1_555 1_555
C29 C30 1_555 1_555
C31 O1 1_555 1_555

#END
