
#######################################################################
#
#                 Cambridge Crystallographic Data Centre
#                                CCDC 
#
#######################################################################
#
# If this CIF has been generated from an entry in the Cambridge 
# Structural Database, then it will include bibliographic, chemical, 
# crystal, experimental, refinement or atomic coordinate data resulting 
# from the CCDC's data processing and validation procedures.
#
#######################################################################

data_RAXYOF
_symmetry_cell_setting           monoclinic
_symmetry_space_group_name_H-M   'C 2/c'
_symmetry_Int_Tables_number      15
_space_group_name_Hall           '-C 2yn'
loop_
_symmetry_equiv_pos_site_id
_symmetry_equiv_pos_as_xyz
1 x,y,z
2 1/2+x,1/2+y,z
3 -x,y,1/2-z
4 1/2-x,1/2+y,1/2-z
5 -x,-y,-z
6 1/2-x,1/2-y,-z
7 x,-y,1/2+z
8 1/2+x,1/2-y,1/2+z
_cell_length_a                   27.8153(5)
_cell_length_b                   8.6615(2)
_cell_length_c                   15.2390(3)
_cell_angle_alpha                90
_cell_angle_beta                 103.6010(10)
_cell_angle_gamma                90
_cell_volume                     3568.46
loop_
_atom_site_label
_atom_site_type_symbol
_atom_site_fract_x
_atom_site_fract_y
_atom_site_fract_z
Mn1 Mn 0.75326(2) 0.24496(6) 0.61615(4)
N1 N 0.69032(12) 0.4217(4) 0.6032(2)
N2 N 0.52533(13) 0.5359(5) 0.6224(3)
N3 N 0.48084(13) 0.4571(5) 0.6284(3)
N4 N 0.31488(11) 0.5636(4) 0.6430(2)
N5 N 0.78492(13) 0.3695(4) 0.5126(2)
N6 N 0.82576(15) 0.4243(4) 0.5241(2)
N7 N 0.86478(17) 0.4758(6) 0.5354(3)
N8 N 0.79839(14) 0.3927(5) 0.7196(2)
N9 N 0.79211(11) 0.4991(4) 0.7625(2)
N10 N 0.78720(14) 0.6064(5) 0.8044(3)
C1 C 0.64457(14) 0.3836(5) 0.6109(3)
H1 H 0.6377 0.2801 0.6189
C2 C 0.69926(15) 0.5700(5) 0.5905(3)
H2 H 0.7304 0.5979 0.5836
C3 C 0.66429(17) 0.6841(5) 0.5872(3)
H3 H 0.6721 0.7868 0.5793
C4 C 0.61787(17) 0.6442(6) 0.5956(3)
H4 H 0.5937 0.7194 0.5933
C5 C 0.60736(14) 0.4899(5) 0.6076(3)
C6 C 0.55880(15) 0.4369(6) 0.6169(3)
H5 H 0.5523 0.3319 0.6188
C7 C 0.44749(15) 0.5549(6) 0.6363(3)
H6 H 0.4542 0.6602 0.6381
C8 C 0.39871(14) 0.4986(5) 0.6423(3)
C9 C 0.38770(16) 0.3434(5) 0.6472(3)
H7 H 0.4119 0.2690 0.6477
C10 C 0.34108(18) 0.3005(5) 0.6514(3)
H8 H 0.3332 0.1970 0.6566
C11 C 0.30570(15) 0.4145(5) 0.6480(3)
H9 H 0.2738 0.3845 0.6491
C12 C 0.36149(14) 0.6041(5) 0.6420(3)
H10 H 0.3690 0.7087 0.6411
Mn1A Mn 0.25326(2) 0.74496(6) 0.61615(4)
Mn1E Mn 0.74674(2) 0.25504(6) 0.38385(4)
Mn1C Mn 0.74674(2) 0.74496(6) 0.88385(4)
N4A N 0.81488(11) 0.0636(4) 0.6430(2)
N5E N 0.71508(13) 0.1305(4) 0.4874(2)
N10C N 0.71280(14) 0.1064(5) 0.6956(3)
O1 O 0.5672(7) -0.020(2) 0.7181(14)
O2? O 0.5797(11) 0.026(4) 0.641(2)
loop_
_geom_bond_atom_site_label_1
_geom_bond_atom_site_label_2
_geom_bond_site_symmetry_1
_geom_bond_site_symmetry_2
Mn1 N1 1_555 1_555
N1 C1 1_555 1_555
N2 N3 1_555 1_555
N3 C7 1_555 1_555
N4 C11 1_555 1_555
N5 Mn1 1_555 1_555
N6 N5 1_555 1_555
N7 N6 1_555 1_555
N8 Mn1 1_555 1_555
N9 N8 1_555 1_555
N10 N9 1_555 1_555
C1 H1 1_555 1_555
C2 N1 1_555 1_555
H2 C2 1_555 1_555
C3 C2 1_555 1_555
H3 C3 1_555 1_555
C4 C3 1_555 1_555
H4 C4 1_555 1_555
C5 C1 1_555 1_555
C6 N2 1_555 1_555
H5 C6 1_555 1_555
C7 H6 1_555 1_555
C8 C7 1_555 1_555
C9 C8 1_555 1_555
H7 C9 1_555 1_555
C10 C9 1_555 1_555
H8 C10 1_555 1_555
C11 C10 1_555 1_555
H9 C11 1_555 1_555
C12 N4 1_555 1_555
H10 C12 1_555 1_555
Mn1A N4 1_555 1_555
Mn1E N5 1_555 1_555
Mn1C N10 1_555 1_555
N4A Mn1 1_555 1_555
N5E Mn1 1_555 1_555
N10C Mn1 1_555 1_555
C4 C5 1_555 1_555
C5 C6 1_555 1_555
C8 C12 1_555 1_555
Mn1E N5E 1_555 1_555

#END
