
#######################################################################
#
#                 Cambridge Crystallographic Data Centre
#                                CCDC 
#
#######################################################################
#
# If this CIF has been generated from an entry in the Cambridge 
# Structural Database, then it will include bibliographic, chemical, 
# crystal, experimental, refinement or atomic coordinate data resulting 
# from the CCDC's data processing and validation procedures.
#
#######################################################################

data_RAYCOK
_symmetry_cell_setting           monoclinic
_symmetry_space_group_name_H-M   'P 21/c'
_symmetry_Int_Tables_number      14
_space_group_name_Hall           '-P 2ybc'
loop_
_symmetry_equiv_pos_site_id
_symmetry_equiv_pos_as_xyz
1 x,y,z
2 -x,1/2+y,1/2-z
3 -x,-y,-z
4 x,1/2-y,1/2+z
_cell_length_a                   8.5036(5)
_cell_length_b                   23.8157(13)
_cell_length_c                   10.2711(6)
_cell_angle_alpha                90
_cell_angle_beta                 90.6880(10)
_cell_angle_gamma                90
_cell_volume                     2079.94
loop_
_atom_site_label
_atom_site_type_symbol
_atom_site_fract_x
_atom_site_fract_y
_atom_site_fract_z
Mn1 Mn 0.0000 0.0000 0.5000
C1 C 0.2682(3) 0.04271(12) 0.3033(3)
H1 H 0.3406 0.0442 0.3744
C2 C 0.1698(3) 0.04856(13) 0.1062(3)
H2 H 0.1571 0.0545 0.0152
C3 C 0.0605(4) 0.03033(13) 0.1896(3)
H3 H -0.0447 0.0212 0.1658
C4 C 0.4518(3) 0.07745(12) 0.1350(3)
C5 C 0.5531(4) 0.10511(14) 0.2204(3)
H4 H 0.5250 0.1100 0.3089
C6 C 0.6947(4) 0.12541(14) 0.1765(3)
H5 H 0.7639 0.1440 0.2358
C7 C 0.7385(3) 0.11929(12) 0.0471(3)
C8 C 0.6359(3) 0.09085(12) -0.0363(3)
H6 H 0.6639 0.0855 -0.1246
C9 C 0.4943(3) 0.07038(12) 0.0070(3)
H7 H 0.4257 0.0513 -0.0517
C10 C 0.8879(3) 0.14372(12) 0.0000(3)
C11 C 0.9323(4) 0.13633(17) -0.1394(3)
H8 H 1.0378 0.1517 -0.1529
H9 H 0.8566 0.1562 -0.1954
H10 H 0.9316 0.0963 -0.1613
C12 C 1.1587(5) 0.2049(2) 0.2754(4)
H11 H 1.0956 0.2360 0.3090
H12 H 1.2580 0.2026 0.3246
H13 H 1.1005 0.1696 0.2850
C13 C 1.1923(3) 0.21471(12) 0.1348(3)
C14 C 1.3349(3) 0.24795(12) 0.1045(3)
C15 C 1.3623(4) 0.29788(13) 0.1699(3)
H14 H 1.2882 0.3106 0.2317
C16 C 1.4954(3) 0.32954(13) 0.1469(3)
H15 H 1.5123 0.3639 0.1919
C17 C 1.6028(3) 0.31079(12) 0.0586(3)
C18 C 1.5776(4) 0.26108(12) -0.0100(3)
H16 H 1.6514 0.2486 -0.0724
C19 C 1.4438(3) 0.23018(12) 0.0142(3)
H17 H 1.4262 0.1961 -0.0318
C20 C 1.7611(3) 0.39828(12) 0.0392(3)
H18 H 1.6760 0.4239 0.0460
C21 C 1.9920(3) 0.36412(13) 0.0226(3)
H19 H 2.1031 0.3616 0.0157
C22 C 1.8943(3) 0.31980(12) 0.0292(3)
H20 H 1.9223 0.2812 0.0265
N1 N 0.1207(3) 0.02660(10) 0.3135(2)
N2 N 0.3042(3) 0.05679(10) 0.1802(2)
N3 N 0.9692(3) 0.17042(10) 0.0856(2)
N4 N 1.1082(3) 0.19587(11) 0.0413(2)
N5 N 1.7452(3) 0.34187(10) 0.0407(2)
N6 N 1.9093(3) 0.41326(10) 0.0272(2)
N7 N 0.3053(3) 0.03669(10) 0.6763(3)
O1 O 0.2380(3) 0.01366(11) 0.5830(2)
O2 O 0.2233(3) 0.06116(12) 0.7587(3)
O3 O 0.4487(3) 0.03674(10) 0.6858(3)
Mn1C Mn 2.0000 0.5000 0.0000
Mn1C_2 Mn -2.0000 -0.5000 1.0000
C1B C -0.2682(3) -0.04271(12) 0.6967(3)
H1B H -0.3406 -0.0442 0.6256
C2B C -0.1698(3) -0.04856(13) 0.8938(3)
H2B H -0.1571 -0.0545 0.9848
C3B C -0.0605(4) -0.03033(13) 0.8104(3)
H3B H 0.0447 -0.0212 0.8342
C4B C -0.4518(3) -0.07745(12) 0.8650(3)
C5B C -0.5531(4) -0.10511(14) 0.7796(3)
H4B H -0.5250 -0.1100 0.6911
C6B C -0.6947(4) -0.12541(14) 0.8235(3)
H5B H -0.7639 -0.1440 0.7642
C7B C -0.7385(3) -0.11929(12) 0.9529(3)
C8B C -0.6359(3) -0.09085(12) 1.0363(3)
H6B H -0.6639 -0.0855 1.1246
C9B C -0.4943(3) -0.07038(12) 0.9930(3)
H7B H -0.4257 -0.0513 1.0517
C10B C -0.8879(3) -0.14372(12) 1.0000(3)
C11B C -0.9323(4) -0.13633(17) 1.1394(3)
H8B H -1.0378 -0.1517 1.1529
H9B H -0.8566 -0.1562 1.1954
H10B H -0.9316 -0.0963 1.1613
C12B C -1.1587(5) -0.2049(2) 0.7246(4)
H11B H -1.0956 -0.2360 0.6910
H12B H -1.2580 -0.2026 0.6754
H13B H -1.1005 -0.1696 0.7150
C13B C -1.1923(3) -0.21471(12) 0.8652(3)
C14B C -1.3349(3) -0.24795(12) 0.8955(3)
C15B C -1.3623(4) -0.29788(13) 0.8301(3)
H14B H -1.2882 -0.3106 0.7683
C16B C -1.4954(3) -0.32954(13) 0.8531(3)
H15B H -1.5123 -0.3639 0.8081
C17B C -1.6028(3) -0.31079(12) 0.9414(3)
C18B C -1.5776(4) -0.26108(12) 1.0100(3)
H16B H -1.6514 -0.2486 1.0724
C19B C -1.4438(3) -0.23018(12) 0.9858(3)
H17B H -1.4262 -0.1961 1.0318
C20B C -1.7611(3) -0.39828(12) 0.9608(3)
H18B H -1.6760 -0.4239 0.9540
C21B C -1.9920(3) -0.36412(13) 0.9774(3)
H19B H -2.1031 -0.3616 0.9843
C22B C -1.8943(3) -0.31980(12) 0.9708(3)
H20B H -1.9223 -0.2812 0.9735
N1B N -0.1207(3) -0.02660(10) 0.6865(2)
N2B N -0.3042(3) -0.05679(10) 0.8198(2)
N3B N -0.9692(3) -0.17042(10) 0.9144(2)
N4B N -1.1082(3) -0.19587(11) 0.9587(2)
N5B N -1.7452(3) -0.34187(10) 0.9593(2)
N6B N -1.9093(3) -0.41326(10) 0.9728(2)
N6C N -0.0907(3) 0.08674(10) 0.5272(2)
N6A N 0.0907(3) -0.08674(10) 0.4728(2)
N7B N -0.3053(3) -0.03669(10) 0.3237(3)
O1B O -0.2380(3) -0.01366(11) 0.4170(2)
O2B O -0.2233(3) -0.06116(12) 0.2413(3)
O3B O -0.4487(3) -0.03674(10) 0.3142(3)
loop_
_geom_bond_atom_site_label_1
_geom_bond_atom_site_label_2
_geom_bond_site_symmetry_1
_geom_bond_site_symmetry_2
Mn1 N1 1_555 1_555
C1 H1 1_555 1_555
C2 H2 1_555 1_555
C3 C2 1_555 1_555
H3 C3 1_555 1_555
C4 C5 1_555 1_555
C5 H4 1_555 1_555
C6 C5 1_555 1_555
H5 C6 1_555 1_555
C7 C6 1_555 1_555
C8 C7 1_555 1_555
H6 C8 1_555 1_555
C9 C4 1_555 1_555
H7 C9 1_555 1_555
C10 C7 1_555 1_555
C11 C10 1_555 1_555
H8 C11 1_555 1_555
H9 C11 1_555 1_555
H10 C11 1_555 1_555
C12 H11 1_555 1_555
H12 C12 1_555 1_555
H13 C12 1_555 1_555
C13 C12 1_555 1_555
C14 C13 1_555 1_555
C15 C14 1_555 1_555
H14 C15 1_555 1_555
C16 C15 1_555 1_555
H15 C16 1_555 1_555
C17 C16 1_555 1_555
C18 C17 1_555 1_555
H16 C18 1_555 1_555
C19 C14 1_555 1_555
H17 C19 1_555 1_555
C20 H18 1_555 1_555
C21 H19 1_555 1_555
C22 C21 1_555 1_555
H20 C22 1_555 1_555
N1 C1 1_555 1_555
N2 C1 1_555 1_555
N3 C10 1_555 1_555
N4 C13 1_555 1_555
N5 C17 1_555 1_555
N6 C20 1_555 1_555
N7 O1 1_555 1_555
O1 Mn1 1_555 1_555
O2 N7 1_555 1_555
O3 N7 1_555 1_555
Mn1C N6 1_555 1_555
Mn1C_2 N6B 1_555 1_555
C1B H1B 1_555 1_555
C2B H2B 1_555 1_555
C3B C2B 1_555 1_555
H3B C3B 1_555 1_555
C4B C5B 1_555 1_555
C5B H4B 1_555 1_555
C6B C5B 1_555 1_555
H5B C6B 1_555 1_555
C7B C6B 1_555 1_555
C8B C7B 1_555 1_555
H6B C8B 1_555 1_555
C9B C4B 1_555 1_555
H7B C9B 1_555 1_555
C10B C7B 1_555 1_555
C11B C10B 1_555 1_555
H8B C11B 1_555 1_555
H9B C11B 1_555 1_555
H10B C11B 1_555 1_555
C12B H11B 1_555 1_555
H12B C12B 1_555 1_555
H13B C12B 1_555 1_555
C13B C12B 1_555 1_555
C14B C13B 1_555 1_555
C15B C14B 1_555 1_555
H14B C15B 1_555 1_555
C16B C15B 1_555 1_555
H15B C16B 1_555 1_555
C17B C16B 1_555 1_555
C18B C17B 1_555 1_555
H16B C18B 1_555 1_555
C19B C14B 1_555 1_555
H17B C19B 1_555 1_555
C20B H18B 1_555 1_555
C21B H19B 1_555 1_555
C22B C21B 1_555 1_555
H20B C22B 1_555 1_555
N1B Mn1 1_555 1_555
N2B C1B 1_555 1_555
N3B C10B 1_555 1_555
N4B C13B 1_555 1_555
N5B C17B 1_555 1_555
N6B C20B 1_555 1_555
N6C Mn1 1_555 1_555
N6A Mn1 1_555 1_555
N7B O1B 1_555 1_555
O1B Mn1 1_555 1_555
O2B N7B 1_555 1_555
O3B N7B 1_555 1_555
C2 N2 1_555 1_555
C3 N1 1_555 1_555
C4 N2 1_555 1_555
C8 C9 1_555 1_555
C18 C19 1_555 1_555
C20 N5 1_555 1_555
C21 N6 1_555 1_555
C22 N5 1_555 1_555
N3 N4 1_555 1_555
C1B N1B 1_555 1_555
C2B N2B 1_555 1_555
C3B N1B 1_555 1_555
C4B N2B 1_555 1_555
C8B C9B 1_555 1_555
C18B C19B 1_555 1_555
C20B N5B 1_555 1_555
C21B N6B 1_555 1_555
C22B N5B 1_555 1_555
N3B N4B 1_555 1_555

#END
