
#######################################################################
#
#                 Cambridge Crystallographic Data Centre
#                                CCDC 
#
#######################################################################
#
# If this CIF has been generated from an entry in the Cambridge 
# Structural Database, then it will include bibliographic, chemical, 
# crystal, experimental, refinement or atomic coordinate data resulting 
# from the CCDC's data processing and validation procedures.
#
#######################################################################

data_RAYDAX
_symmetry_cell_setting           monoclinic
_symmetry_space_group_name_H-M   'P 21/n'
_symmetry_Int_Tables_number      14
_space_group_name_Hall           '-P 2yn'
loop_
_symmetry_equiv_pos_site_id
_symmetry_equiv_pos_as_xyz
1 x,y,z
2 1/2-x,1/2+y,1/2-z
3 -x,-y,-z
4 1/2+x,1/2-y,1/2+z
_cell_length_a                   10.2553(7)
_cell_length_b                   19.4349(14)
_cell_length_c                   37.201(3)
_cell_angle_alpha                90
_cell_angle_beta                 91.131(2)
_cell_angle_gamma                90
_cell_volume                     7413.11
loop_
_atom_site_label
_atom_site_type_symbol
_atom_site_fract_x
_atom_site_fract_y
_atom_site_fract_z
Zn1 Zn 0.60647(5) 0.47150(3) 0.165484(15)
C1 C 0.7530(5) 0.4461(2) 0.23188(13)
H1 H 0.6720 0.4436 0.2438
C2 C 0.9630(5) 0.4422(3) 0.22189(14)
H2 H 1.0546 0.4369 0.2249
C3 C 0.8976(5) 0.4590(2) 0.19114(13)
H3 H 0.9363 0.4676 0.1686
C4 C 0.8910(5) 0.4107(2) 0.28405(13)
C5 C 0.7967(5) 0.4191(3) 0.30957(13)
H4 H 0.7183 0.4428 0.3035
C6 C 0.8154(5) 0.3933(3) 0.34384(14)
H5 H 0.7491 0.3989 0.3611
C7 C 0.9301(5) 0.3591(3) 0.35337(13)
C8 C 1.0269(5) 0.3525(3) 0.32732(14)
H6 H 1.1065 0.3299 0.3334
C9 C 1.0082(5) 0.3780(3) 0.29332(14)
H7 H 1.0747 0.3735 0.2761
C10 C 0.8581(6) 0.3429(4) 0.41883(16)
H8 H 0.7756 0.3185 0.4145
H9 H 0.8418 0.3925 0.4195
H10 H 0.8965 0.3280 0.4419
C11 C 0.9498(5) 0.3270(3) 0.38933(14)
C12 C 1.0096(7) 0.1466(3) 0.39272(16)
H11 H 1.0277 0.1729 0.3709
H12 H 0.9156 0.1381 0.3941
H13 H 1.0561 0.1026 0.3920
C13 C 1.0542(5) 0.1866(3) 0.42494(13)
C14 C 1.0852(5) 0.1499(3) 0.45940(13)
C15 C 1.0890(6) 0.1859(3) 0.49172(14)
H14 H 1.0720 0.2340 0.4917
C16 C 1.1172(6) 0.1530(3) 0.52376(14)
H15 H 1.1210 0.1783 0.5456
C17 C 1.1396(5) 0.0836(3) 0.52387(13)
C18 C 1.1375(5) 0.0463(3) 0.49231(14)
H16 H 1.1551 -0.0017 0.4926
C19 C 1.1093(5) 0.0800(3) 0.46014(13)
H17 H 1.1064 0.0545 0.4383
C20 C 1.1082(5) 0.0611(3) 0.58873(13)
H18 H 1.0388 0.0927 0.5918
C21 C 1.2545(5) -0.0160(3) 0.59891(14)
H19 H 1.3082 -0.0488 0.6110
C22 C 1.2597(5) -0.0004(3) 0.56399(15)
H20 H 1.3166 -0.0201 0.5470
C23 C 0.3942(5) 0.5593(3) 0.19478(13)
H21 H 0.3289 0.5257 0.1900
C24 C 0.4911(5) 0.6546(3) 0.21259(14)
H22 H 0.5066 0.6991 0.2223
C25 C 0.5797(5) 0.6124(3) 0.19805(14)
H23 H 0.6700 0.6221 0.1959
C26 C 0.2486(5) 0.6444(3) 0.22287(13)
C27 C 0.1569(5) 0.5969(3) 0.23360(15)
H24 H 0.1771 0.5492 0.2340
C28 C 0.0351(5) 0.6196(3) 0.24381(14)
H25 H -0.0292 0.5871 0.2505
C29 C 0.0057(5) 0.6893(3) 0.24438(14)
C30 C 0.1001(5) 0.7358(3) 0.23378(15)
H26 H 0.0810 0.7837 0.2339
C31 C 0.2216(5) 0.7138(3) 0.22296(14)
H27 H 0.2854 0.7461 0.2157
C32 C -0.1750(7) 0.7811(4) 0.2418(2)
H28 H -0.1955 0.7770 0.2160
H29 H -0.1080 0.8165 0.2456
H30 H -0.2539 0.7941 0.2546
C33 C -0.1257(5) 0.7138(3) 0.25573(15)
C34 C -0.3836(6) 0.5864(3) 0.29721(19)
H31 H -0.2968 0.5732 0.2891
H32 H -0.4500 0.5668 0.2809
H33 H -0.3966 0.5690 0.3216
C35 C -0.3951(5) 0.6628(3) 0.29718(14)
C36 C -0.5198(5) 0.6954(3) 0.30741(15)
C37 C -0.6341(5) 0.6583(3) 0.31057(15)
H34 H -0.6327 0.6097 0.3080
C38 C -0.7516(5) 0.6916(3) 0.31743(14)
H35 H -0.8298 0.6656 0.3186
C39 C -0.7553(5) 0.7612(3) 0.32244(13)
C40 C -0.6402(5) 0.7992(3) 0.32056(17)
H36 H -0.6416 0.8475 0.3244
C41 C -0.5250(5) 0.7669(3) 0.31310(17)
H37 H -0.4472 0.7933 0.3118
C42 C -0.9005(5) 0.8631(3) 0.32299(14)
H38 H -0.8395 0.8949 0.3137
C43 C -1.0740(6) 0.8195(3) 0.34442(19)
H39 H -1.1602 0.8152 0.3530
C44 C -0.9868(6) 0.7681(3) 0.3429(2)
H40 H -0.9996 0.7218 0.3501
N1 N 0.7651(4) 0.4616(2) 0.19780(10)
N2 N 0.8699(4) 0.43429(19) 0.24793(10)
N3 N 1.0437(4) 0.2841(2) 0.39221(11)
N4 N 1.0661(4) 0.2521(2) 0.42527(11)
N5 N 1.1680(4) 0.0491(2) 0.55731(10)
N6 N 1.1596(4) 0.0228(2) 0.61445(11)
N7 N 0.5186(4) 0.5525(2) 0.18668(10)
N8 N 0.3727(4) 0.6201(2) 0.21063(11)
N9 N -0.1880(4) 0.6751(2) 0.27676(13)
N10 N -0.3073(4) 0.7042(2) 0.28684(13)
N11 N -0.8751(4) 0.7959(2) 0.32870(11)
N12 N -1.0199(4) 0.8790(2) 0.33182(11)
Zn1C Zn 1.10647(5) 0.02850(3) 0.665484(15)
Zn1A Zn -1.10647(5) 0.97150(3) 0.334516(15)
N6C N 0.6596(4) 0.4772(2) 0.11445(11)
N12A N 0.5199(4) 0.3790(2) 0.16818(11)
B1 B 0.1511(5) 0.9328(3) 0.22491(16)
F1 F 0.1783(4) 0.99507(17) 0.20934(11)
F2 F 0.2305(3) 0.92449(18) 0.25522(8)
F3 F 0.0227(3) 0.9300(2) 0.23515(11)
F4 F 0.1753(3) 0.88023(16) 0.20076(9)
B2 B 0.2839(8) 0.9702(4) 0.3813(2)
F5 F 0.3309(8) 0.9704(5) 0.34627(14)
F6 F 0.1537(4) 0.9886(3) 0.37996(11)
F7 F 0.2884(8) 0.9044(3) 0.39434(15)
F8 F 0.3516(6) 1.0142(4) 0.40266(16)
C45 C 0.6144(8) 0.1680(4) 0.45089(19)
H41 H 0.6212 0.1916 0.4286
C46 C 0.7144(7) 0.1721(4) 0.4761(2)
H42 H 0.7895 0.1990 0.4712
C47 C 0.7065(8) 0.1383(4) 0.5078(2)
H43 H 0.7758 0.1414 0.5250
C48 C 0.5985(9) 0.0994(4) 0.51488(18)
H44 H 0.5919 0.0751 0.5369
C49 C 0.4983(7) 0.0964(4) 0.4889(2)
H45 H 0.4226 0.0697 0.4931
C50 C 0.5090(7) 0.1313(4) 0.4576(2)
H46 H 0.4399 0.1294 0.4402
C51 C 0.0422(11) 0.9651(6) 0.1246(3)
H47 H 0.0597 0.9810 0.1484
C52 C 0.1213(11) 0.9163(6) 0.1101(3)
H48 H 0.1923 0.8987 0.1241
C53 C 0.1007(14) 0.8923(6) 0.0760(4)
H49 H 0.1550 0.8578 0.0661
C54 C -0.0020(15) 0.9200(7) 0.0562(3)
H50 H -0.0207 0.9049 0.0324
C55 C -0.0781(12) 0.9711(8) 0.0722(4)
H51 H -0.1461 0.9926 0.0587
C56 C -0.0559(12) 0.9899(7) 0.1066(3)
H52 H -0.1128 1.0217 0.1177
C57 C 0.8774(11) 0.5999(6) 0.3665(3)
H53 H 0.8109 0.6296 0.3574
C58 C 0.8802(12) 0.5854(7) 0.4020(3)
H54 H 0.8188 0.6055 0.4177
C59 C 0.9731(12) 0.5412(6) 0.4149(3)
H55 H 0.9745 0.5292 0.4397
C60 C 1.0644(11) 0.5138(6) 0.3927(3)
H56 H 1.1303 0.4836 0.4016
C61 C 1.0564(11) 0.5326(5) 0.3555(3)
H57 H 1.1177 0.5150 0.3390
C62 C 0.9619(10) 0.5751(5) 0.3443(2)
H58 H 0.9561 0.5874 0.3196
C63 C 0.5287(6) 0.1417(4) 0.35007(16)
H59 H 0.4734 0.1026 0.3510
C64 C 0.5509(9) 0.2643(4) 0.3577(2)
H60 H 0.6426 0.2536 0.3532
H61 H 0.5443 0.2881 0.3808
H62 H 0.5166 0.2940 0.3384
C65 C 0.3433(7) 0.2066(5) 0.3700(2)
H63 H 0.3029 0.1609 0.3690
H64 H 0.2949 0.2380 0.3541
H65 H 0.3415 0.2239 0.3948
N13 N 0.4771(5) 0.2019(3) 0.35858(13)
O1 O 0.6416(4) 0.1321(2) 0.34110(12)
C66 C 0.2901(15) 0.5784(8) 0.4585(4)
H66 H 0.3463 0.5477 0.4463
C67 C 0.184(3) 0.6790(13) 0.4616(7)
H67 H 0.1566 0.6559 0.4836
H69 H 0.2269 0.7226 0.4678
C68 C 0.322(2) 0.6539(10) 0.4092(5)
H70 H 0.3888 0.6200 0.4034
H71 H 0.3603 0.7000 0.4098
H72 H 0.2520 0.6524 0.3907
N14 N 0.2680(11) 0.6381(6) 0.4439(3)
O2 O 0.2418(11) 0.5581(6) 0.4879(3)
C69 C 0.8876(13) 0.5955(8) 0.5127(4)
O3 O 0.7702(9) 0.5746(5) 0.4932(3)
C70 C 0.5830(15) 0.7192(8) 0.4891(4)
O4 O 0.6479(10) 0.6855(5) 0.4602(3)
O5 O 0.702(3) 0.7820(9) 0.4053(9)
O10 O 0.114(4) 0.823(2) 0.4136(12)
B3? B 0.306(3) 0.9789(14) 0.3788(7)
F9? F 0.314(6) 0.968(3) 0.3421(7)
F10? F 0.422(3) 0.9594(17) 0.3951(10)
F11? F 0.289(3) 1.0475(11) 0.3857(8)
F12? F 0.207(3) 0.9405(16) 0.3927(9)
H68? H 0.1073 0.6882 0.4462
C71? C 0.696(3) 0.7096(10) 0.3967(8)
C72? C 0.667(4) 0.8394(12) 0.3949(8)
O6? O 0.694(4) 0.7678(10) 0.4030(10)
C73? C 0.5489(19) 0.7579(8) 0.4096(5)
O7? O 0.5905(14) 0.8252(6) 0.4052(3)
O8? O 0.398(4) 0.739(2) 0.4151(12)
O9? O 0.569(5) 0.752(2) 0.4569(13)
O11? O 0.732(5) 0.681(3) 0.4257(14)
O12? O 0.160(5) 0.746(3) 0.4207(13)
O13? O 0.114(6) 0.689(3) 0.4521(16)
O14? O 0.209(7) 0.698(4) 0.4262(18)
loop_
_geom_bond_atom_site_label_1
_geom_bond_atom_site_label_2
_geom_bond_site_symmetry_1
_geom_bond_site_symmetry_2
Zn1 N1 1_555 1_555
C1 H1 1_555 1_555
C2 H2 1_555 1_555
C3 C2 1_555 1_555
H3 C3 1_555 1_555
C4 C5 1_555 1_555
C5 H4 1_555 1_555
C6 C5 1_555 1_555
H5 C6 1_555 1_555
C7 C6 1_555 1_555
C8 C7 1_555 1_555
H6 C8 1_555 1_555
C9 C4 1_555 1_555
H7 C9 1_555 1_555
C10 H8 1_555 1_555
H9 C10 1_555 1_555
H10 C10 1_555 1_555
C11 C7 1_555 1_555
C12 H11 1_555 1_555
H12 C12 1_555 1_555
H13 C12 1_555 1_555
C13 C12 1_555 1_555
C14 C13 1_555 1_555
C15 C14 1_555 1_555
H14 C15 1_555 1_555
C16 C15 1_555 1_555
H15 C16 1_555 1_555
C17 C16 1_555 1_555
C18 C17 1_555 1_555
H16 C18 1_555 1_555
C19 C14 1_555 1_555
H17 C19 1_555 1_555
C20 H18 1_555 1_555
C21 H19 1_555 1_555
C22 C21 1_555 1_555
H20 C22 1_555 1_555
C23 H21 1_555 1_555
C24 H22 1_555 1_555
C25 C24 1_555 1_555
H23 C25 1_555 1_555
C26 C27 1_555 1_555
C27 H24 1_555 1_555
C28 C27 1_555 1_555
H25 C28 1_555 1_555
C29 C28 1_555 1_555
C30 C29 1_555 1_555
H26 C30 1_555 1_555
C31 C26 1_555 1_555
H27 C31 1_555 1_555
C32 H28 1_555 1_555
H29 C32 1_555 1_555
H30 C32 1_555 1_555
C33 C29 1_555 1_555
C34 H31 1_555 1_555
H32 C34 1_555 1_555
H33 C34 1_555 1_555
C35 C34 1_555 1_555
C36 C35 1_555 1_555
C37 C36 1_555 1_555
H34 C37 1_555 1_555
C38 C37 1_555 1_555
H35 C38 1_555 1_555
C39 C38 1_555 1_555
C40 C39 1_555 1_555
H36 C40 1_555 1_555
C41 C36 1_555 1_555
H37 C41 1_555 1_555
C42 H38 1_555 1_555
C43 H39 1_555 1_555
C44 C43 1_555 1_555
H40 C44 1_555 1_555
N1 C1 1_555 1_555
N2 C1 1_555 1_555
N3 C11 1_555 1_555
N4 C13 1_555 1_555
N5 C17 1_555 1_555
N6 C20 1_555 1_555
N7 Zn1 1_555 1_555
N8 C23 1_555 1_555
N9 C33 1_555 1_555
N10 C35 1_555 1_555
N11 C39 1_555 1_555
N12 C42 1_555 1_555
B1 F1 1_555 1_555
F2 B1 1_555 1_555
F3 B1 1_555 1_555
F4 B1 1_555 1_555
B2 F5 1_555 1_555
F6 B2 1_555 1_555
F7 B2 1_555 1_555
F8 B2 1_555 1_555
C45 H41 1_555 1_555
C46 C45 1_555 1_555
H42 C46 1_555 1_555
C47 C46 1_555 1_555
H43 C47 1_555 1_555
C48 C47 1_555 1_555
H44 C48 1_555 1_555
C49 C48 1_555 1_555
H45 C49 1_555 1_555
C50 C45 1_555 1_555
H46 C50 1_555 1_555
C51 H47 1_555 1_555
C52 C51 1_555 1_555
H48 C52 1_555 1_555
C53 C52 1_555 1_555
H49 C53 1_555 1_555
C54 C53 1_555 1_555
H50 C54 1_555 1_555
C55 C54 1_555 1_555
H51 C55 1_555 1_555
C56 C51 1_555 1_555
H52 C56 1_555 1_555
C57 H53 1_555 1_555
C58 C57 1_555 1_555
H54 C58 1_555 1_555
C59 C58 1_555 1_555
H55 C59 1_555 1_555
C60 C59 1_555 1_555
H56 C60 1_555 1_555
C61 C60 1_555 1_555
H57 C61 1_555 1_555
C62 C57 1_555 1_555
H58 C62 1_555 1_555
C63 H59 1_555 1_555
C64 H60 1_555 1_555
H61 C64 1_555 1_555
H62 C64 1_555 1_555
C65 H63 1_555 1_555
H64 C65 1_555 1_555
H65 C65 1_555 1_555
N13 C63 1_555 1_555
O1 C63 1_555 1_555
C66 H66 1_555 1_555
C67 H67 1_555 1_555
H69 C67 1_555 1_555
C68 H70 1_555 1_555
H71 C68 1_555 1_555
H72 C68 1_555 1_555
N14 C66 1_555 1_555
O2 C66 1_555 1_555
C69 O3 1_555 1_555
C70 O4 1_555 1_555
Zn1C N6 1_555 1_555
Zn1A N12 1_555 1_555
N6C Zn1 1_555 1_555
N12A Zn1 1_555 1_555
C2 N2 1_555 1_555
C3 N1 1_555 1_555
C4 N2 1_555 1_555
C8 C9 1_555 1_555
C10 C11 1_555 1_555
C18 C19 1_555 1_555
C20 N5 1_555 1_555
C21 N6 1_555 1_555
C22 N5 1_555 1_555
C23 N7 1_555 1_555
C24 N8 1_555 1_555
C25 N7 1_555 1_555
C26 N8 1_555 1_555
C30 C31 1_555 1_555
C32 C33 1_555 1_555
C40 C41 1_555 1_555
C42 N11 1_555 1_555
C43 N12 1_555 1_555
C44 N11 1_555 1_555
N3 N4 1_555 1_555
N9 N10 1_555 1_555
C49 C50 1_555 1_555
C55 C56 1_555 1_555
C61 C62 1_555 1_555
C64 N13 1_555 1_555
C65 N13 1_555 1_555
C67 N14 1_555 1_555
C68 N14 1_555 1_555

#END
