
#######################################################################
#
#                 Cambridge Crystallographic Data Centre
#                                CCDC 
#
#######################################################################
#
# If this CIF has been generated from an entry in the Cambridge 
# Structural Database, then it will include bibliographic, chemical, 
# crystal, experimental, refinement or atomic coordinate data resulting 
# from the CCDC's data processing and validation procedures.
#
#######################################################################

data_RAYKOT
_symmetry_cell_setting           hexagonal
_symmetry_space_group_name_H-M   'P 64 2 2'
_symmetry_Int_Tables_number      181
_space_group_name_Hall           "P 64 2' (0,0,2)"
loop_
_symmetry_equiv_pos_site_id
_symmetry_equiv_pos_as_xyz
1 x,y,z
2 -y,x-y,1/3+z
3 -x+y,-x,2/3+z
4 -x,-y,z
5 y,-x+y,1/3+z
6 x-y,x,2/3+z
7 y,x,1/3-z
8 x-y,-y,-z
9 -x,-x+y,2/3-z
10 -y,-x,1/3-z
11 -x+y,y,-z
12 x,x-y,2/3-z
_cell_length_a                   16.5764(2)
_cell_length_b                   16.5764(2)
_cell_length_c                   25.3058(5)
_cell_angle_alpha                90
_cell_angle_beta                 90
_cell_angle_gamma                120
_cell_volume                     6021.87
loop_
_atom_site_label
_atom_site_type_symbol
_atom_site_fract_x
_atom_site_fract_y
_atom_site_fract_z
C1 C 0.3969(2) 1.03587(19) 0.11991(13)
C2 C 0.2587(2) 0.5855(2) 0.09645(14)
C3 C 0.3957(2) 1.0119(2) 0.17044(14)
H1 H 0.4173 1.0572 0.1967
C4 C 0.4896(2) 1.45253(19) 0.05586(14)
C5 C 0.2518(2) 0.5358(2) 0.04620(15)
C6 C 0.4455(2) 1.2649(2) 0.06108(14)
C7 C 0.29152(15) 0.5830(3) 0.0000
H2 H 0.3239 0.6478 0.0000
C8 C 0.3417(3) 0.8778(2) 0.09813(14)
H3 H 0.3280 0.8333 0.0720
C9 C 0.4267(5) 1.3017(3) 0.0197(2)
H4 H 0.3980 1.2637 -0.0094
C10 C 0.3619(3) 0.9185(3) 0.18390(14)
H5 H 0.3587 0.9027 0.2194
C11 C 0.4130(3) 1.1636(2) 0.06330(15)
C12 C 0.4937(3) 1.3242(3) 0.0984(2)
H6 H 0.5125 1.3039 0.1277
C13 C 0.2018(3) 0.4353(2) 0.04655(17)
H7 H 0.1749 0.4018 0.0773
C14 C 0.3681(3) 0.9656(2) 0.08291(15)
H8 H 0.3668 0.9789 0.0473
C15 C 0.4474(5) 1.3936(3) 0.0173(2)
H9 H 0.4307 1.4141 -0.0128
C16 C 0.5179(3) 1.4194(3) 0.0949(2)
H10 H 0.5553 1.4601 0.1212
C17 C 0.19575(17) 0.3915(3) 0.0000
N1 N 0.33434(16) 0.85141(16) 0.14797(10)
N2 N 0.42478(19) 1.12810(17) 0.10807(10)
H11 H 0.4535 1.1676 0.1329
O1 O 0.29166(15) 0.67113(14) 0.09514(9)
O2 O 0.23213(16) 0.53997(18) 0.13864(11)
O3 O 0.1566(12) 0.2966(3) -0.0011(6)
O4 O 0.3797(3) 1.1150(2) 0.02467(12)
Zn1 Zn 0.285738(19) 0.714262(19) 0.1667
C1C C 0.6031(2) 1.96413(19) 0.11991(13)
C2J C 0.3268(3) 0.5855(2) -0.09645(14)
C3C C 0.6043(2) 1.9881(2) 0.17044(14)
H1C H 0.5827 1.9428 0.1967
C4C C 0.5104(2) 1.54747(19) 0.05586(14)
C5J C 0.2840(3) 0.5358(2) -0.04620(15)
C6C C 0.5545(2) 1.7351(2) 0.06108(14)
C8C C 0.6583(3) 2.1222(2) 0.09813(14)
H3C H 0.6720 2.1667 0.0720
C9C C 0.5733(5) 1.6983(3) 0.0197(2)
H4C H 0.6020 1.7363 -0.0094
C10C C 0.6381(3) 2.0815(3) 0.18390(14)
H5C H 0.6413 2.0973 0.2194
C11C C 0.5870(3) 1.8364(2) 0.06330(15)
C12C C 0.5063(3) 1.6758(3) 0.0984(2)
H6C H 0.4875 1.6961 0.1277
C13J C 0.2335(4) 0.4353(2) -0.04655(17)
H7J H 0.2269 0.4018 -0.0773
C14C C 0.6319(3) 2.0344(2) 0.08291(15)
H8C H 0.6332 2.0211 0.0473
C15C C 0.5526(5) 1.6064(3) 0.0173(2)
H9C H 0.5693 1.5859 -0.0128
C16C C 0.4821(3) 1.5806(3) 0.0949(2)
H10C H 0.4447 1.5399 0.1212
N1C N 0.66566(16) 2.14859(16) 0.14797(10)
N1I N 0.14859(16) 0.66566(16) 0.18536(10)
N2C N 0.57522(19) 1.87190(17) 0.10807(10)
H11C H 0.5465 1.8324 0.1329
O1J O 0.37947(21) 0.67113(14) -0.09514(9)
O1I O 0.32887(14) 0.70834(15) 0.23819(9)
O2J O 0.30784(24) 0.53997(18) -0.13864(11)
O3J O 0.1400(12) 0.2966(3) 0.0011(6)
O4C O 0.6203(3) 1.8850(2) 0.02467(12)
Zn1C Zn 0.714262(19) 2.285738(19) 0.1667
Zn1J Zn 0.428524(27) 0.714262(19) -0.1667
loop_
_geom_bond_atom_site_label_1
_geom_bond_atom_site_label_2
_geom_bond_site_symmetry_1
_geom_bond_site_symmetry_2
C1 C3 1_555 1_555
C2 C5 1_555 1_555
C3 H1 1_555 1_555
C4 C15 1_555 1_555
C5 C7 1_555 1_555
C6 C9 1_555 1_555
C7 H2 1_555 1_555
C8 H3 1_555 1_555
C9 H4 1_555 1_555
C10 C3 1_555 1_555
H5 C10 1_555 1_555
C11 C6 1_555 1_555
C12 C6 1_555 1_555
H6 C12 1_555 1_555
C13 C5 1_555 1_555
H7 C13 1_555 1_555
C14 C1 1_555 1_555
H8 C14 1_555 1_555
C15 C9 1_555 1_555
H9 C15 1_555 1_555
C16 C4 1_555 1_555
H10 C16 1_555 1_555
C17 C13 1_555 1_555
N1 C8 1_555 1_555
N2 C1 1_555 1_555
H11 N2 1_555 1_555
O1 C2 1_555 1_555
O2 C2 1_555 1_555
O3 C17 1_555 1_555
O4 C11 1_555 1_555
Zn1 N1 1_555 1_555
C1C C3C 1_555 1_555
C2J C5J 1_555 1_555
C3C H1C 1_555 1_555
C4C C4 1_555 1_555
C5J C7 1_555 1_555
C6C C9C 1_555 1_555
C8C H3C 1_555 1_555
C9C H4C 1_555 1_555
C10C C3C 1_555 1_555
H5C C10C 1_555 1_555
C11C C6C 1_555 1_555
C12C C6C 1_555 1_555
H6C C12C 1_555 1_555
C13J C17 1_555 1_555
H7J C13J 1_555 1_555
C14C C1C 1_555 1_555
H8C C14C 1_555 1_555
C15C C4C 1_555 1_555
H9C C15C 1_555 1_555
C16C C4C 1_555 1_555
H10C C16C 1_555 1_555
N1C C8C 1_555 1_555
N1I Zn1 1_555 1_555
N2C C1C 1_555 1_555
H11C N2C 1_555 1_555
O1J C2J 1_555 1_555
O1I Zn1 1_555 1_555
O2J C2J 1_555 1_555
O3J C17 1_555 1_555
O4C C11C 1_555 1_555
Zn1C N1C 1_555 1_555
Zn1J O1J 1_555 1_555
C8 C14 1_555 1_555
C10 N1 1_555 1_555
C11 N2 1_555 1_555
C12 C16 1_555 1_555
O1 Zn1 1_555 1_555
O3 O3J 1_555 1_555
C5J C13J 1_555 1_555
C8C C14C 1_555 1_555
C9C C15C 1_555 1_555
C10C N1C 1_555 1_555
C11C N2C 1_555 1_555
C12C C16C 1_555 1_555

#END
