
#######################################################################
#
#                 Cambridge Crystallographic Data Centre
#                                CCDC 
#
#######################################################################
#
# If this CIF has been generated from an entry in the Cambridge 
# Structural Database, then it will include bibliographic, chemical, 
# crystal, experimental, refinement or atomic coordinate data resulting 
# from the CCDC's data processing and validation procedures.
#
#######################################################################

data_RAYKUZ
_symmetry_cell_setting           hexagonal
_symmetry_space_group_name_H-M   'P 62 2 2'
_symmetry_Int_Tables_number      180
_space_group_name_Hall           "P 62 2' (0,0,4)"
loop_
_symmetry_equiv_pos_site_id
_symmetry_equiv_pos_as_xyz
1 x,y,z
2 x-y,x,1/3+z
3 -y,x-y,2/3+z
4 -x,-y,z
5 -x+y,-x,1/3+z
6 y,-x+y,2/3+z
7 -y,-x,2/3-z
8 x-y,-y,-z
9 x,x-y,1/3-z
10 y,x,2/3-z
11 -x+y,y,-z
12 -x,-x+y,1/3-z
_cell_length_a                   16.5744(2)
_cell_length_b                   16.5744(2)
_cell_length_c                   25.2582(9)
_cell_angle_alpha                90
_cell_angle_beta                 90
_cell_angle_gamma                120
_cell_volume                     6009.09
loop_
_atom_site_label
_atom_site_type_symbol
_atom_site_fract_x
_atom_site_fract_y
_atom_site_fract_z
C1 C 0.4140(2) 0.6730(2) 0.07010(15)
C2 C 0.4649(2) 0.7167(3) 0.12021(16)
C3 C 0.4179(3) 0.70896(16) 0.1667
H1 H 0.3531 0.6766 0.1667
C4 C 0.5644(3) 0.7666(4) 0.12094(18)
H2 H 0.5978 0.7728 0.0901
C5 C 0.1229(3) 0.4626(3) 0.06905(15)
H3 H 0.1680 0.4917 0.0951
C6 C 0.0341(2) 0.4011(3) 0.08498(16)
H4 H 0.0202 0.3871 0.1206
C7 C -0.03561(19) 0.3596(2) 0.04640(14)
C8 C -0.0122(2) 0.3835(2) -0.00430(13)
H5 H -0.0573 0.3602 -0.0307
C9 C 0.0817(3) 0.4445(3) -0.01680(14)
H6 H 0.0974 0.4581 -0.0523
C10 C -0.1641(3) 0.2481(3) 0.10309(15)
C11 C -0.2648(2) 0.1799(2) 0.10505(15)
C12 C 0.6095(4) 0.80475(19) 0.1667
C13 C -0.3031(4) 0.1273(5) 0.1466(2)
H7 H -0.2665 0.1372 0.1765
C14 C -0.3239(3) 0.1705(3) 0.0689(2)
H8 H -0.3043 0.2094 0.0394
C15 C -0.4193(3) 0.1004(4) 0.0742(3)
H9 H -0.4608 0.1006 0.0496
C16 C -0.3952(4) 0.0580(5) 0.1480(2)
H10 H -0.4170 0.0238 0.1792
C17 C -0.4529(2) 0.0371(2) 0.11001(14)
N1 N 0.14933(15) 0.48399(17) 0.01853(10)
N2 N -0.12783(18) 0.29603(19) 0.05828(11)
H11 H -0.1672 0.2860 0.0334
O1 O 0.32911(15) 0.62026(16) 0.07144(9)
O2 O 0.46073(18) 0.69257(17) 0.02750(11)
O3 O -0.1147(2) 0.2633(3) 0.14178(12)
O4 O 0.7038(3) 0.85191(15) 0.1667
Zn1 Zn 0.28567(2) 0.57134(4) 0.0000
C1H C 0.4140(2) 0.7410(3) 0.26323(15)
C2H C 0.4649(2) 0.7482(4) 0.21312(16)
C4H C 0.5644(3) 0.7978(5) 0.21239(18)
H2H H 0.5978 0.8250 0.2432
C5C C -1.1229(3) -0.4626(3) 0.06905(15)
H3C H -1.1680 -0.4917 0.0951
C6C C -1.0341(2) -0.4011(3) 0.08498(16)
H4C H -1.0202 -0.3871 0.1206
C7C C -0.96439(19) -0.3596(2) 0.04640(14)
C8C C -0.9878(2) -0.3835(2) -0.00430(13)
H5C H -0.9427 -0.3602 -0.0307
C9C C -1.0817(3) -0.4445(3) -0.01680(14)
H6C H -1.0974 -0.4581 -0.0523
C10C C -0.8359(3) -0.2481(3) 0.10309(15)
C11C C -0.7352(2) -0.1799(2) 0.10505(15)
C13C C -0.6969(4) -0.1273(5) 0.1466(2)
H7C H -0.7335 -0.1372 0.1765
C14C C -0.6761(3) -0.1705(3) 0.0689(2)
H8C H -0.6957 -0.2094 0.0394
C15C C -0.5807(3) -0.1004(4) 0.0742(3)
H9C H -0.5392 -0.1006 0.0496
C16C C -0.6048(4) -0.0580(5) 0.1480(2)
H10C H -0.5830 -0.0238 0.1792
C17C C -0.5471(2) -0.0371(2) 0.11001(14)
N1C N -1.14933(15) -0.48399(17) 0.01853(10)
N1J N 0.33466(23) 0.48399(17) -0.01853(10)
N2C N -0.87217(18) -0.29603(19) 0.05828(11)
H11C H -0.8328 -0.2860 0.0334
O1H O 0.32911(15) 0.70885(22) 0.26189(9)
O1J O 0.29115(22) 0.62026(16) -0.07144(9)
O2H O 0.46073(18) 0.76816(25) 0.30583(11)
O3C O -0.8853(2) -0.2633(3) 0.14178(12)
Zn1D Zn 0.28567(4) 0.71433(2) 0.3333
Zn1C Zn -1.28567(2) -0.57134(4) 0.0000
loop_
_geom_bond_atom_site_label_1
_geom_bond_atom_site_label_2
_geom_bond_site_symmetry_1
_geom_bond_site_symmetry_2
C1 C2 1_555 1_555
C2 C3 1_555 1_555
C3 H1 1_555 1_555
C4 C2 1_555 1_555
H2 C4 1_555 1_555
C5 H3 1_555 1_555
C6 C5 1_555 1_555
H4 C6 1_555 1_555
C7 C6 1_555 1_555
C8 C7 1_555 1_555
H5 C8 1_555 1_555
C9 C8 1_555 1_555
H6 C9 1_555 1_555
C10 C11 1_555 1_555
C11 C13 1_555 1_555
C12 C4 1_555 1_555
C13 H7 1_555 1_555
C14 C11 1_555 1_555
H8 C14 1_555 1_555
C15 C14 1_555 1_555
H9 C15 1_555 1_555
C16 C13 1_555 1_555
H10 C16 1_555 1_555
C17 C15 1_555 1_555
N1 C5 1_555 1_555
N2 C7 1_555 1_555
H11 N2 1_555 1_555
O1 C1 1_555 1_555
O2 C1 1_555 1_555
O3 C10 1_555 1_555
O4 C12 1_555 1_555
Zn1 N1 1_555 1_555
C1H C2H 1_555 1_555
C2H C3 1_555 1_555
C4H C12 1_555 1_555
H2H C4H 1_555 1_555
C5C H3C 1_555 1_555
C6C C5C 1_555 1_555
H4C C6C 1_555 1_555
C7C C6C 1_555 1_555
C8C C7C 1_555 1_555
H5C C8C 1_555 1_555
C9C C8C 1_555 1_555
H6C C9C 1_555 1_555
C10C C11C 1_555 1_555
C11C C13C 1_555 1_555
C13C H7C 1_555 1_555
C14C C11C 1_555 1_555
H8C C14C 1_555 1_555
C15C C14C 1_555 1_555
H9C C15C 1_555 1_555
C16C C13C 1_555 1_555
H10C C16C 1_555 1_555
C17C C17 1_555 1_555
N1C C5C 1_555 1_555
N1J Zn1 1_555 1_555
N2C C7C 1_555 1_555
H11C N2C 1_555 1_555
O1H C1H 1_555 1_555
O1J Zn1 1_555 1_555
O2H C1H 1_555 1_555
O3C C10C 1_555 1_555
Zn1D O1H 1_555 1_555
Zn1C N1C 1_555 1_555
C9 N1 1_555 1_555
C10 N2 1_555 1_555
C16 C17 1_555 1_555
O1 Zn1 1_555 1_555
C2H C4H 1_555 1_555
C9C N1C 1_555 1_555
C10C N2C 1_555 1_555
C15C C17C 1_555 1_555
C16C C17C 1_555 1_555

#END
