
#######################################################################
#
#                 Cambridge Crystallographic Data Centre
#                                CCDC 
#
#######################################################################
#
# If this CIF has been generated from an entry in the Cambridge 
# Structural Database, then it will include bibliographic, chemical, 
# crystal, experimental, refinement or atomic coordinate data resulting 
# from the CCDC's data processing and validation procedures.
#
#######################################################################

data_RAYKIN
_symmetry_cell_setting           hexagonal
_symmetry_space_group_name_H-M   'P 62 2 2'
_symmetry_Int_Tables_number      180
_space_group_name_Hall           "P 62 2' (0,0,4)"
loop_
_symmetry_equiv_pos_site_id
_symmetry_equiv_pos_as_xyz
1 x,y,z
2 x-y,x,1/3+z
3 -y,x-y,2/3+z
4 -x,-y,z
5 -x+y,-x,1/3+z
6 y,-x+y,2/3+z
7 -y,-x,2/3-z
8 x-y,-y,-z
9 x,x-y,1/3-z
10 y,x,2/3-z
11 -x+y,y,-z
12 -x,-x+y,1/3-z
_cell_length_a                   16.5276(3)
_cell_length_b                   16.5276(3)
_cell_length_c                   25.3959(10)
_cell_angle_alpha                90
_cell_angle_beta                 90
_cell_angle_gamma                120
_cell_volume                     6007.78
loop_
_atom_site_label
_atom_site_type_symbol
_atom_site_fract_x
_atom_site_fract_y
_atom_site_fract_z
C1 C 0.5841(2) 0.3240(2) 0.07075(15)
C2 C 0.5329(2) 0.2822(3) 0.12067(15)
C3 C 0.5790(3) 0.28950(17) 0.1667
H1 H 0.6440 0.3220 0.1667
C4 C 0.4345(3) 0.2313(4) 0.11920(18)
H2 H 0.4024 0.2232 0.0878
C5 C 0.3859(5) 0.1929(2) 0.1667
H3 H 0.3209 0.1605 0.1667
C6 C 1.2656(2) 0.8157(3) 0.10566(14)
C7 C 1.1653(3) 0.7437(3) 0.10430(15)
C8 C 1.3251(3) 0.8313(4) 0.0693(2)
H4 H 1.3066 0.7925 0.0399
C9 C 1.4188(4) 0.9062(4) 0.0724(2)
H5 H 1.4582 0.9140 0.0444
C10 C 0.9156(3) 0.5540(3) -0.01640(15)
H6 H 0.8995 0.5419 -0.0518
C11 C 1.0115(2) 0.6162(2) -0.00365(15)
H7 H 1.0562 0.6413 -0.0302
C12 C 0.9646(3) 0.5947(3) 0.08326(16)
H8 H 0.9776 0.6087 0.1188
C13 C 1.0363(2) 0.6379(3) 0.04673(14)
C14 C 1.3954(3) 0.9390(5) 0.1517(2)
H9 H 1.4167 0.9723 0.1830
C15 C 1.3024(4) 0.8637(5) 0.1486(2)
H10 H 1.2657 0.8475 0.1788
C16 C 1.4530(2) 0.9633(2) 0.11069(15)
C17 C 0.8745(3) 0.5312(3) 0.06784(15)
H11 H 0.8298 0.5000 0.0938
N1 N 0.84917(17) 0.51308(19) 0.01855(10)
N2 N 1.12806(19) 0.7012(2) 0.05880(11)
H12 H 1.1669 0.7153 0.0332
O1 O 0.66972(16) 0.37843(17) 0.07166(9)
O2 O 0.53870(18) 0.30402(18) 0.02857(11)
O3 O 1.1174(3) 0.7259(4) 0.14347(13)
Zn1 Zn 0.71295(2) 0.42591(4) 0.0000
C1H C 0.5841(2) 0.2601(3) 0.26258(15)
C2H C 0.5329(2) 0.2507(4) 0.21266(15)
C4H C 0.4345(3) 0.2032(5) 0.21413(18)
H2H H 0.4024 0.1792 0.2455
C6C C 1.7344(2) 1.1843(3) 0.10566(14)
C7C C 1.8347(3) 1.2563(3) 0.10430(15)
C8C C 1.6749(3) 1.1687(4) 0.0693(2)
H4C H 1.6934 1.2075 0.0399
C9C C 1.5812(4) 1.0938(4) 0.0724(2)
H5C H 1.5418 1.0860 0.0444
C10C C 2.0844(3) 1.4460(3) -0.01640(15)
H6C H 2.1005 1.4581 -0.0518
C11C C 1.9885(2) 1.3838(2) -0.00365(15)
H7C H 1.9438 1.3587 -0.0302
C12C C 2.0354(3) 1.4053(3) 0.08326(16)
H8C H 2.0224 1.3913 0.1188
C13C C 1.9637(2) 1.3621(3) 0.04673(14)
C14C C 1.6046(3) 1.0610(5) 0.1517(2)
H9C H 1.5833 1.0277 0.1830
C15C C 1.6976(4) 1.1363(5) 0.1486(2)
H10C H 1.7343 1.1525 0.1788
C16C C 1.5470(2) 1.0367(2) 0.11069(15)
C17C C 2.1255(3) 1.4688(3) 0.06784(15)
H11C H 2.1702 1.5000 0.0938
N1C N 2.15083(17) 1.48692(19) 0.01855(10)
N1J N 0.66391(25) 0.51308(19) -0.01855(10)
N2C N 1.87194(19) 1.2988(2) 0.05880(11)
H12C H 1.8331 1.2847 0.0332
O1H O 0.66972(16) 0.29129(23) 0.26167(9)
O1J O 0.70871(23) 0.37843(17) -0.07166(9)
O2H O 0.53870(18) 0.23468(25) 0.30476(11)
O3C O 1.8826(3) 1.2741(4) 0.14347(13)
Zn1H Zn 0.71295(2) 0.28704(4) 0.3333
Zn1C Zn 2.28705(2) 1.57409(4) 0.0000
loop_
_geom_bond_atom_site_label_1
_geom_bond_atom_site_label_2
_geom_bond_site_symmetry_1
_geom_bond_site_symmetry_2
C1 C2 1_555 1_555
C2 C3 1_555 1_555
C3 H1 1_555 1_555
C4 C2 1_555 1_555
H2 C4 1_555 1_555
C5 C4 1_555 1_555
H3 C5 1_555 1_555
C6 C7 1_555 1_555
C7 N2 1_555 1_555
C8 C6 1_555 1_555
H4 C8 1_555 1_555
C9 C8 1_555 1_555
H5 C9 1_555 1_555
C10 H6 1_555 1_555
C11 C10 1_555 1_555
H7 C11 1_555 1_555
C12 H8 1_555 1_555
C13 C11 1_555 1_555
C14 H9 1_555 1_555
C15 C6 1_555 1_555
H10 C15 1_555 1_555
C16 C9 1_555 1_555
C17 C12 1_555 1_555
H11 C17 1_555 1_555
N1 C10 1_555 1_555
N2 C13 1_555 1_555
H12 N2 1_555 1_555
O1 C1 1_555 1_555
O2 C1 1_555 1_555
O3 C7 1_555 1_555
Zn1 N1 1_555 1_555
C1H C2H 1_555 1_555
C2H C3 1_555 1_555
C4H C5 1_555 1_555
H2H C4H 1_555 1_555
C6C C7C 1_555 1_555
C7C N2C 1_555 1_555
C8C C6C 1_555 1_555
H4C C8C 1_555 1_555
C9C C8C 1_555 1_555
H5C C9C 1_555 1_555
C10C H6C 1_555 1_555
C11C C10C 1_555 1_555
H7C C11C 1_555 1_555
C12C H8C 1_555 1_555
C13C C11C 1_555 1_555
C14C H9C 1_555 1_555
C15C C6C 1_555 1_555
H10C C15C 1_555 1_555
C16C C16 1_555 1_555
C17C C12C 1_555 1_555
H11C C17C 1_555 1_555
N1C C10C 1_555 1_555
N1J Zn1 1_555 1_555
N2C C13C 1_555 1_555
H12C N2C 1_555 1_555
O1H C1H 1_555 1_555
O1J Zn1 1_555 1_555
O2H C1H 1_555 1_555
O3C C7C 1_555 1_555
Zn1H O1H 1_555 1_555
Zn1C N1C 1_555 1_555
C12 C13 1_555 1_555
C14 C15 1_555 1_555
C14 C16 1_555 1_555
C17 N1 1_555 1_555
O1 Zn1 1_555 1_555
C2H C4H 1_555 1_555
C9C C16C 1_555 1_555
C12C C13C 1_555 1_555
C14C C15C 1_555 1_555
C14C C16C 1_555 1_555
C17C N1C 1_555 1_555

#END
