
#######################################################################
#
#                 Cambridge Crystallographic Data Centre
#                                CCDC 
#
#######################################################################
#
# If this CIF has been generated from an entry in the Cambridge 
# Structural Database, then it will include bibliographic, chemical, 
# crystal, experimental, refinement or atomic coordinate data resulting 
# from the CCDC's data processing and validation procedures.
#
#######################################################################

data_RAYKEJ
_symmetry_cell_setting           hexagonal
_symmetry_space_group_name_H-M   'P 64 2 2'
_symmetry_Int_Tables_number      181
_space_group_name_Hall           "P 64 2' (0,0,2)"
loop_
_symmetry_equiv_pos_site_id
_symmetry_equiv_pos_as_xyz
1 x,y,z
2 -y,x-y,1/3+z
3 -x+y,-x,2/3+z
4 -x,-y,z
5 y,-x+y,1/3+z
6 x-y,x,2/3+z
7 y,x,1/3-z
8 x-y,-y,-z
9 -x,-x+y,2/3-z
10 -y,-x,1/3-z
11 -x+y,y,-z
12 x,x-y,2/3-z
_cell_length_a                   16.5528(2)
_cell_length_b                   16.5528(2)
_cell_length_c                   25.5559(8)
_cell_angle_alpha                90
_cell_angle_beta                 90
_cell_angle_gamma                120
_cell_volume                     6064.08
loop_
_atom_site_label
_atom_site_type_symbol
_atom_site_fract_x
_atom_site_fract_y
_atom_site_fract_z
Zn1 Zn 0.714742(14) 0.285259(14) 0.1667
O1 O 0.70854(13) 0.32692(12) 0.09491(7)
O2 O 0.76452(14) 0.45786(15) 0.13801(8)
C1 C 0.73955(18) 0.41345(19) 0.09639(10)
C2 C 0.74690(18) 0.46322(17) 0.04607(10)
C3 C 0.70774(11) 0.4155(2) 0.0000
H1 H 0.6753 0.3506 0.0000
C4 C 0.7943(3) 0.5592(2) 0.04587(14)
H2 H 0.8201 0.5919 0.0767
C5 C 0.80348(16) 0.6070(3) 0.0000
H3 H 0.8359 0.6718 0.0000
O3 O 0.5972(3) -0.12027(17) 0.02176(9)
N1 N 0.66358(14) 0.14701(13) 0.14816(8)
N2 N 0.56525(17) -0.13183(14) 0.10757(8)
H4 H 0.5402 -0.1709 0.1329
C6 C 0.6541(2) 0.1209(2) 0.09865(11)
H5 H 0.6694 0.1663 0.0731
C7 C 0.6231(3) 0.0313(2) 0.08261(11)
H6 H 0.6200 0.0178 0.0471
C8 C 0.59617(19) -0.03956(17) 0.11924(10)
C9 C 0.6025(2) -0.01316(19) 0.17047(11)
H7 H 0.5834 -0.0578 0.1968
C10 C 0.6373(3) 0.0798(2) 0.18327(11)
H8 H 0.6424 0.0957 0.2185
C11 C 0.5697(3) -0.16811(19) 0.06091(11)
C12 C 0.5424(2) -0.26831(19) 0.05912(11)
C13 C 0.5567(4) -0.3033(3) 0.01492(15)
H9 H 0.5766 -0.2658 -0.0148
C14 C 0.5428(4) -0.3935(2) 0.01180(15)
H10 H 0.5571 -0.4139 -0.0189
C15 C 0.5081(2) -0.45151(18) 0.05386(11)
C16 C 0.4807(3) -0.4210(2) 0.09468(14)
H11 H 0.4490 -0.4621 0.1219
C17 C 0.4983(3) -0.3288(2) 0.09796(14)
H12 H 0.4792 -0.3097 0.1274
Zn1J Zn 0.570517(20) 0.285259(14) -0.1667
Zn1C Zn 0.285258(14) -1.285259(14) 0.1667
O1J O 0.61838(18) 0.32692(12) -0.09491(7)
O1I O 0.67308(12) 0.29146(13) 0.23842(7)
O2J O 0.69334(21) 0.45786(15) -0.13801(8)
C1J C 0.67390(26) 0.41345(19) -0.09639(10)
C2J C 0.71632(25) 0.46322(17) -0.04607(10)
C4J C 0.7649(4) 0.5592(2) -0.04587(14)
H2J H 0.7718 0.5919 -0.0767
O3C O 0.4028(3) -0.87973(17) 0.02176(9)
N1C N 0.33642(14) -1.14701(13) 0.14816(8)
N1I N 0.85299(13) 0.33642(14) 0.18517(8)
N2C N 0.43475(17) -0.86817(14) 0.10757(8)
H4C H 0.4598 -0.8291 0.1329
C6C C 0.3459(2) -1.1209(2) 0.09865(11)
H5C H 0.3306 -1.1663 0.0731
C7C C 0.3769(3) -1.0313(2) 0.08261(11)
H6C H 0.3800 -1.0178 0.0471
C8C C 0.40383(19) -0.96044(17) 0.11924(10)
C9C C 0.3975(2) -0.98684(19) 0.17047(11)
H7C H 0.4166 -0.9422 0.1968
C10C C 0.3627(3) -1.0798(2) 0.18327(11)
H8C H 0.3576 -1.0957 0.2185
C11C C 0.4303(3) -0.83189(19) 0.06091(11)
C12C C 0.4576(2) -0.73169(19) 0.05912(11)
C13C C 0.4433(4) -0.6967(3) 0.01492(15)
H9C H 0.4234 -0.7342 -0.0148
C14C C 0.4572(4) -0.6065(2) 0.01180(15)
H10C H 0.4429 -0.5861 -0.0189
C15C C 0.4919(2) -0.54849(18) 0.05386(11)
C16C C 0.5193(3) -0.5790(2) 0.09468(14)
H11C H 0.5510 -0.5379 0.1219
C17C C 0.5017(3) -0.6712(2) 0.09796(14)
H12C H 0.5208 -0.6903 0.1274
loop_
_geom_bond_atom_site_label_1
_geom_bond_atom_site_label_2
_geom_bond_site_symmetry_1
_geom_bond_site_symmetry_2
Zn1 O1 1_555 1_555
O1 C1 1_555 1_555
O2 C1 1_555 1_555
C1 C2 1_555 1_555
C2 C3 1_555 1_555
C3 H1 1_555 1_555
C4 C2 1_555 1_555
H2 C4 1_555 1_555
C5 C4 1_555 1_555
H3 C5 1_555 1_555
O3 C11 1_555 1_555
N1 Zn1 1_555 1_555
N2 H4 1_555 1_555
C6 N1 1_555 1_555
H5 C6 1_555 1_555
C7 C6 1_555 1_555
H6 C7 1_555 1_555
C8 N2 1_555 1_555
C9 C8 1_555 1_555
H7 C9 1_555 1_555
C10 N1 1_555 1_555
H8 C10 1_555 1_555
C11 N2 1_555 1_555
C12 C11 1_555 1_555
C13 C12 1_555 1_555
H9 C13 1_555 1_555
C14 C13 1_555 1_555
H10 C14 1_555 1_555
C15 C14 1_555 1_555
C16 C15 1_555 1_555
H11 C16 1_555 1_555
C17 C12 1_555 1_555
H12 C17 1_555 1_555
Zn1J O1J 1_555 1_555
Zn1C N1C 1_555 1_555
O1J C1J 1_555 1_555
O1I Zn1 1_555 1_555
O2J C1J 1_555 1_555
C1J C2J 1_555 1_555
C2J C3 1_555 1_555
C4J C5 1_555 1_555
H2J C4J 1_555 1_555
O3C C11C 1_555 1_555
N1C C6C 1_555 1_555
N1I Zn1 1_555 1_555
N2C H4C 1_555 1_555
C6C H5C 1_555 1_555
C7C C6C 1_555 1_555
H6C C7C 1_555 1_555
C8C N2C 1_555 1_555
C9C C8C 1_555 1_555
H7C C9C 1_555 1_555
C10C N1C 1_555 1_555
H8C C10C 1_555 1_555
C11C N2C 1_555 1_555
C12C C11C 1_555 1_555
C13C C12C 1_555 1_555
H9C C13C 1_555 1_555
C14C C13C 1_555 1_555
H10C C14C 1_555 1_555
C15C C15 1_555 1_555
C16C C15C 1_555 1_555
H11C C16C 1_555 1_555
C17C C12C 1_555 1_555
H12C C17C 1_555 1_555
C7 C8 1_555 1_555
C9 C10 1_555 1_555
C16 C17 1_555 1_555
C2J C4J 1_555 1_555
C7C C8C 1_555 1_555
C9C C10C 1_555 1_555
C14C C15C 1_555 1_555
C16C C17C 1_555 1_555

#END
