
#######################################################################
#
#                 Cambridge Crystallographic Data Centre
#                                CCDC 
#
#######################################################################
#
# If this CIF has been generated from an entry in the Cambridge 
# Structural Database, then it will include bibliographic, chemical, 
# crystal, experimental, refinement or atomic coordinate data resulting 
# from the CCDC's data processing and validation procedures.
#
#######################################################################

data_RAYLIO
_symmetry_cell_setting           hexagonal
_symmetry_space_group_name_H-M   'P 64 2 2'
_symmetry_Int_Tables_number      181
_space_group_name_Hall           "P 64 2' (0,0,2)"
loop_
_symmetry_equiv_pos_site_id
_symmetry_equiv_pos_as_xyz
1 x,y,z
2 -y,x-y,1/3+z
3 -x+y,-x,2/3+z
4 -x,-y,z
5 y,-x+y,1/3+z
6 x-y,x,2/3+z
7 y,x,1/3-z
8 x-y,-y,-z
9 -x,-x+y,2/3-z
10 -y,-x,1/3-z
11 -x+y,y,-z
12 x,x-y,2/3-z
_cell_length_a                   16.5597(12)
_cell_length_b                   16.5597(12)
_cell_length_c                   25.787(4)
_cell_angle_alpha                90
_cell_angle_beta                 90
_cell_angle_gamma                120
_cell_volume                     6124.02
loop_
_atom_site_label
_atom_site_type_symbol
_atom_site_fract_x
_atom_site_fract_y
_atom_site_fract_z
C1 C 0.73791(5) 0.32533(5) 0.06989(3)
C2 C 0.74564(5) 0.28390(5) 0.12046(3)
C3 C 0.70720(4) 0.29280(4) 0.1667
H1 H 0.6748 0.3252 0.1667
C4 C 0.79303(8) 0.23579(8) 0.12190(5)
H2 H 0.8204 0.2275 0.0924
C5 C 0.79766(4) 0.20234(4) 0.1667
C6 C 0.64332(7) 0.56166(7) -0.01576(4)
H3 H 0.6529 0.5543 -0.0506
C7 C 0.60747(7) 0.61972(6) -0.00238(4)
H4 H 0.5907 0.6474 -0.0284
C8 C 0.59697(5) 0.63598(5) 0.04806(3)
C9 C 0.61934(7) 0.58866(6) 0.08306(4)
H5 H 0.6118 0.5949 0.1183
C10 C 0.65293(6) 0.53181(6) 0.06686(3)
H6 H 0.6687 0.5019 0.0921
C11 C 0.56306(6) 0.73237(6) 0.10757(4)
C12 C 0.53819(6) 0.80834(5) 0.10889(3)
C13 C 0.55038(7) 0.85537(6) 0.15421(4)
H7 H 0.5665 0.8353 0.1841
C14 C 0.53902(7) 0.93280(6) 0.15628(4)
H8 H 0.5541 0.9678 0.1866
C15 C 0.50657(6) 0.95846(5) 0.11523(3)
C16 C 0.48121(7) 0.90240(6) 0.07335(4)
H9 H 0.4513 0.9136 0.0461
C17 C 0.49838(7) 0.82735(6) 0.06940(4)
H10 H 0.4820 0.7913 0.0394
N1 N 0.84868(6) 0.15132(6) 0.1667
N2 N 0.66377(4) 0.51752(4) 0.01932(2)
N3 N 0.56790(5) 0.69885(5) 0.06025(3)
H11 H 0.5506 0.7195 0.0344
O1 O 0.70734(4) 0.38100(4) 0.07119(2)
O2 O 0.76432(4) 0.30400(4) 0.03057(2)
O3 O 0.93479(9) 0.19876(11) 0.13803(8)
O4 O 0.57917(6) 0.70321(5) 0.14618(3)
Zn1 Zn 0.715394(5) 0.430788(10) 0.0000
C1I C 0.67467(5) 0.26209(5) 0.26344(3)
C2I C 0.71610(5) 0.25436(5) 0.21287(3)
C4I C 0.76421(8) 0.20697(8) 0.21143(5)
H2I H 0.7725 0.1796 0.2409
C6C C 0.35668(7) 1.43834(7) -0.01576(4)
H3C H 0.3471 1.4457 -0.0506
C7C C 0.39253(7) 1.38028(6) -0.00238(4)
H4C H 0.4093 1.3526 -0.0284
C8C C 0.40303(5) 1.36402(5) 0.04806(3)
C9C C 0.38066(7) 1.41134(6) 0.08306(4)
H5C H 0.3882 1.4051 0.1183
C10C C 0.34707(6) 1.46819(6) 0.06686(3)
H6C H 0.3313 1.4981 0.0921
C11C C 0.43694(6) 1.26763(6) 0.10757(4)
C12C C 0.46181(6) 1.19166(5) 0.10889(3)
C13C C 0.44962(7) 1.14463(6) 0.15421(4)
H7C H 0.4335 1.1647 0.1841
C14C C 0.46098(7) 1.06720(6) 0.15628(4)
H8C H 0.4459 1.0322 0.1866
C15C C 0.49343(6) 1.04154(5) 0.11523(3)
C16C C 0.51879(7) 1.09760(6) 0.07335(4)
H9C H 0.5487 1.0864 0.0461
C17C C 0.50162(7) 1.17265(6) 0.06940(4)
H10C H 0.5180 1.2087 0.0394
N2C N 0.33623(4) 1.48248(4) 0.01932(2)
N2J N 0.85375(6) 0.51752(4) -0.01932(2)
N3C N 0.43210(5) 1.30115(5) 0.06025(3)
H11C H 0.4494 1.2805 0.0344
O1I O 0.61900(4) 0.29266(4) 0.26214(2)
O1J O 0.67366(6) 0.38100(4) -0.07119(2)
O2I O 0.69600(4) 0.23568(4) 0.30276(2)
O3I O 0.80124(11) 0.06521(9) 0.19530(8)
O4C O 0.42083(6) 1.29679(5) 0.14618(3)
Zn1A Zn 0.569212(10) 0.284606(11) 0.3333
Zn1C Zn 0.284606(5) 1.569212(10) 0.0000
loop_
_geom_bond_atom_site_label_1
_geom_bond_atom_site_label_2
_geom_bond_site_symmetry_1
_geom_bond_site_symmetry_2
C1 C2 1_555 1_555
C2 C3 1_555 1_555
C3 H1 1_555 1_555
C4 C2 1_555 1_555
H2 C4 1_555 1_555
C5 C4 1_555 1_555
C6 H3 1_555 1_555
C7 C6 1_555 1_555
H4 C7 1_555 1_555
C8 C7 1_555 1_555
C9 C8 1_555 1_555
H5 C9 1_555 1_555
C10 C9 1_555 1_555
H6 C10 1_555 1_555
C11 C12 1_555 1_555
C12 C13 1_555 1_555
C13 H7 1_555 1_555
C14 C13 1_555 1_555
H8 C14 1_555 1_555
C15 C14 1_555 1_555
C16 C15 1_555 1_555
H9 C16 1_555 1_555
C17 C12 1_555 1_555
H10 C17 1_555 1_555
N1 C5 1_555 1_555
N2 C6 1_555 1_555
N3 C8 1_555 1_555
H11 N3 1_555 1_555
O1 C1 1_555 1_555
O2 C1 1_555 1_555
O3 N1 1_555 1_555
O4 C11 1_555 1_555
Zn1 N2 1_555 1_555
C1I C2I 1_555 1_555
C2I C3 1_555 1_555
C4I C5 1_555 1_555
H2I C4I 1_555 1_555
C6C H3C 1_555 1_555
C7C C6C 1_555 1_555
H4C C7C 1_555 1_555
C8C C7C 1_555 1_555
C9C C8C 1_555 1_555
H5C C9C 1_555 1_555
C10C C9C 1_555 1_555
H6C C10C 1_555 1_555
C11C C12C 1_555 1_555
C12C C13C 1_555 1_555
C13C H7C 1_555 1_555
C14C C13C 1_555 1_555
H8C C14C 1_555 1_555
C15C C15 1_555 1_555
C16C C15C 1_555 1_555
H9C C16C 1_555 1_555
C17C C12C 1_555 1_555
H10C C17C 1_555 1_555
N2C C6C 1_555 1_555
N2J Zn1 1_555 1_555
N3C C8C 1_555 1_555
H11C N3C 1_555 1_555
O1I C1I 1_555 1_555
O1J Zn1 1_555 1_555
O2I C1I 1_555 1_555
O3I N1 1_555 1_555
O4C C11C 1_555 1_555
Zn1A O1I 1_555 1_555
Zn1C N2C 1_555 1_555
C10 N2 1_555 1_555
C11 N3 1_555 1_555
C16 C17 1_555 1_555
O1 Zn1 1_555 1_555
C2I C4I 1_555 1_555
C10C N2C 1_555 1_555
C11C N3C 1_555 1_555
C14C C15C 1_555 1_555
C16C C17C 1_555 1_555

#END
