
#######################################################################
#
#                 Cambridge Crystallographic Data Centre
#                                CCDC 
#
#######################################################################
#
# If this CIF has been generated from an entry in the Cambridge 
# Structural Database, then it will include bibliographic, chemical, 
# crystal, experimental, refinement or atomic coordinate data resulting 
# from the CCDC's data processing and validation procedures.
#
#######################################################################

data_RAYLUZ
_symmetry_cell_setting           monoclinic
_symmetry_space_group_name_H-M   'P 21/c'
_symmetry_Int_Tables_number      14
_space_group_name_Hall           '-P 2ybc'
loop_
_symmetry_equiv_pos_site_id
_symmetry_equiv_pos_as_xyz
1 x,y,z
2 -x,1/2+y,1/2-z
3 -x,-y,-z
4 x,1/2-y,1/2+z
_cell_length_a                   7.888(2)
_cell_length_b                   19.082(6)
_cell_length_c                   23.630(7)
_cell_angle_alpha                90
_cell_angle_beta                 91.700(5)
_cell_angle_gamma                90
_cell_volume                     3555.19
loop_
_atom_site_label
_atom_site_type_symbol
_atom_site_fract_x
_atom_site_fract_y
_atom_site_fract_z
Co1 Co 0.35341(11) 0.13465(4) 0.21929(4)
Co2 Co 0.62665(11) 0.22698(5) 0.17070(4)
Co3 Co 0.47218(12) 0.21897(5) 0.06451(4)
Co4 Co 0.17924(12) 0.12740(5) 0.09871(4)
Co5 Co 0.20050(11) 0.17342(5) 0.59194(4)
Co6 Co 0.36566(11) 0.33077(4) 0.21140(4)
Co7 Co 0.48779(11) -0.01593(4) 0.25828(4)
O1 O 0.4470(5) 0.3047(2) 0.12899(19)
H1 H 0.523(6) 0.331(3) 0.116(3)
O2 O 0.4379(6) 0.1453(2) 0.13489(19)
H2 H 0.494(7) 0.110(2) 0.128(3)
O3 O 0.2109(6) 0.2240(2) 0.06323(19)
H3 H 0.150(7) 0.222(3) 0.0334(17)
O4 O 0.4536(6) 0.2325(2) 0.23307(19)
H4 H 0.505(8) 0.245(3) 0.2629(17)
O5 O 0.7177(6) 0.2186(2) 0.0931(2)
H5 H 0.777(7) 0.251(3) 0.078(3)
O6 O 0.1277(6) 0.1667(2) 0.17953(19)
H6 H 0.038(5) 0.149(3) 0.192(3)
O7 O 0.1363(6) 0.2958(2) 0.17379(19)
H7 H 0.048(5) 0.315(3) 0.187(3)
H8 H 0.155(8) 0.2094(14) 0.179(3)
O8 O -0.0521(7) 0.1654(3) 0.5575(3)
H9 H -0.120(8) 0.130(3) 0.562(4)
H10 H -0.068(11) 0.163(4) 0.5214(10)
O9 O -0.0754(7) 0.1138(3) 0.0767(2)
H11 H -0.129(8) 0.151(2) 0.086(3)
H12 H -0.107(10) 0.111(4) 0.0426(13)
O10 O 0.4894(6) 0.1358(3) 0.0083(2)
O11 O 0.2440(6) 0.0824(2) 0.0204(2)
O12 O 0.4118(6) 0.0462(2) -0.18354(19)
O13 O 0.2918(6) 0.1497(2) -0.20618(18)
O14 O 0.2893(7) 0.1354(3) 0.5157(2)
O15 O 0.4977(7) 0.2111(3) 0.4989(2)
O16 O 0.2728(6) 0.1241(2) 0.30176(18)
O17 O 0.3726(6) 0.0197(2) 0.3307(2)
O18 O 0.2882(6) 0.0277(2) 0.21106(18)
O19 O 0.1703(7) 0.0230(2) 0.1249(2)
O20 O 0.2065(6) -0.1938(2) 0.2979(2)
O21 O 0.4015(6) -0.1191(2) 0.26755(19)
O22 O 0.5822(5) 0.0861(2) 0.24802(19)
O23 O 0.7830(6) 0.1527(2) 0.21168(19)
O24 O 0.8396(6) -0.0666(2) 0.3850(2)
O25 O 0.6825(6) -0.0618(2) 0.30592(19)
C1 C 0.3723(9) 0.0960(3) -0.0078(3)
C2 C 0.3811(9) 0.0646(3) -0.0674(3)
H13 H 0.3075 0.0240 -0.0709
H14 H 0.4961 0.0500 -0.0748
C3 C 0.3242(10) 0.1208(4) -0.1093(3)
H15 H 0.3878 0.1632 -0.1010
H16 H 0.2055 0.1309 -0.1035
C4 C 0.3450(9) 0.1028(4) -0.1712(3)
C5 C 0.4001(10) 0.1617(4) 0.4855(3)
C6 C 0.4194(11) 0.1319(5) 0.4260(3)
H17 H 0.4511 0.1699 0.4012
H18 H 0.5125 0.0987 0.4272
C7 C 0.2688(9) 0.0965(4) 0.4003(3)
H19 H 0.1708 0.1271 0.4017
H20 H 0.2444 0.0540 0.4211
C8 C 0.3063(8) 0.0791(4) 0.3397(3)
C9 C 0.2045(8) -0.0033(3) 0.1714(3)
C10 C 0.1452(9) -0.0774(3) 0.1823(3)
H21 H 0.2298 -0.1095 0.1685
H22 H 0.0413 -0.0852 0.1602
C11 C 0.1123(9) -0.0957(4) 0.2440(3)
H23 H 0.1022 -0.0527 0.2654
H24 H 0.0050 -0.1204 0.2457
C12 C 0.2491(9) -0.1405(3) 0.2717(3)
C13 C 0.7348(9) 0.1038(3) 0.2424(3)
C14 C 0.8689(9) 0.0609(4) 0.2727(3)
H25 H 0.9745 0.0869 0.2727
H26 H 0.8856 0.0182 0.2513
C15 C 0.8318(9) 0.0406(4) 0.3347(3)
H27 H 0.9324 0.0501 0.3580
H28 H 0.7419 0.0706 0.3479
C16 C 0.7807(8) -0.0347(3) 0.3437(3)
Co2A Co 0.37335(11) -0.27302(5) 0.32930(4)
Co3C Co 0.47218(12) 0.28103(5) 0.56451(4)
Co5C Co 0.20050(11) 0.32658(5) 0.09194(4)
Co5B Co 0.79950(11) -0.17342(5) 0.40806(4)
Co6C Co 0.36566(11) 0.16923(4) 0.71140(4)
Co6C_2 Co 0.36566(11) 0.16923(4) -0.28860(4)
Co6A Co 0.63434(11) -0.16923(4) 0.28860(4)
Co7B Co 0.51221(11) 0.01593(4) -0.25828(4)
O1C O 0.4470(5) 0.1953(2) 0.62899(19)
H1C H 0.523(6) 0.169(3) 0.616(3)
O3C O 0.2109(6) 0.2760(2) 0.56323(19)
H3C H 0.150(7) 0.278(3) 0.5334(17)
O7C O 0.1363(6) 0.2042(2) 0.67379(19)
H7C H 0.048(5) 0.185(3) 0.687(3)
O12B O 0.5882(6) -0.0462(2) 0.18354(19)
O13C O 0.2918(6) 0.3503(2) 0.29382(18)
O15C O 0.4977(7) 0.2889(3) -0.0011(2)
O20A O 0.7935(6) 0.3062(2) 0.2021(2)
O21A O 0.5985(6) 0.3809(2) 0.23245(19)
O24B O 0.1604(6) 0.0666(2) 0.6150(2)
O25A O 0.3175(6) 0.4382(2) 0.19408(19)
O26 O 0.3387(7) 0.9160(3) 0.4124(2)
O27 O 0.0811(7) 0.2424(3) 0.3314(3)
O28 O 0.2956(8) 0.7384(3) 0.1723(3)
O29 O 0.2781(10) 0.8095(6) 0.0661(3)
O30 O -0.0857(12) 0.0700(4) -0.0362(3)
O31 O 0.0213(11) 0.2498(5) 0.4534(3)
O32 O 0.741(2) 0.0206(8) 0.4857(7)
loop_
_geom_bond_atom_site_label_1
_geom_bond_atom_site_label_2
_geom_bond_site_symmetry_1
_geom_bond_site_symmetry_2
Co1 O2 1_555 1_555
Co2 O1 1_555 1_555
Co3 O1 1_555 1_555
Co4 O2 1_555 1_555
Co5 O8 1_555 1_555
Co6 O1 1_555 1_555
Co7 O17 1_555 1_555
O1 H1 1_555 1_555
O2 Co2 1_555 1_555
H2 O2 1_555 1_555
O3 Co3 1_555 1_555
H3 O3 1_555 1_555
O4 Co1 1_555 1_555
H4 O4 1_555 1_555
O5 Co2 1_555 1_555
H5 O5 1_555 1_555
O6 Co1 1_555 1_555
H6 O6 1_555 1_555
O7 Co6 1_555 1_555
H7 O7 1_555 1_555
H8 O6 1_555 1_555
O8 H9 1_555 1_555
H10 O8 1_555 1_555
O9 Co4 1_555 1_555
H11 O9 1_555 1_555
H12 O9 1_555 1_555
O10 Co3 1_555 1_555
O11 Co4 1_555 1_555
O12 C4 1_555 1_555
O13 C4 1_555 1_555
O14 Co5 1_555 1_555
O15 C5 1_555 1_555
O16 Co1 1_555 1_555
O17 C8 1_555 1_555
O18 Co1 1_555 1_555
O19 Co4 1_555 1_555
O20 C12 1_555 1_555
O21 Co7 1_555 1_555
O22 Co1 1_555 1_555
O23 Co2 1_555 1_555
O24 C16 1_555 1_555
O25 Co7 1_555 1_555
C1 O10 1_555 1_555
C2 C1 1_555 1_555
H13 C2 1_555 1_555
H14 C2 1_555 1_555
C3 C2 1_555 1_555
H15 C3 1_555 1_555
H16 C3 1_555 1_555
C4 C3 1_555 1_555
C5 O14 1_555 1_555
C6 C5 1_555 1_555
H17 C6 1_555 1_555
H18 C6 1_555 1_555
C7 C6 1_555 1_555
H19 C7 1_555 1_555
H20 C7 1_555 1_555
C8 O16 1_555 1_555
C9 O18 1_555 1_555
C10 C9 1_555 1_555
H21 C10 1_555 1_555
H22 C10 1_555 1_555
C11 C10 1_555 1_555
H23 C11 1_555 1_555
H24 C11 1_555 1_555
C12 O21 1_555 1_555
C13 O22 1_555 1_555
C14 C13 1_555 1_555
H25 C14 1_555 1_555
H26 C14 1_555 1_555
C15 C14 1_555 1_555
H27 C15 1_555 1_555
H28 C15 1_555 1_555
C16 O25 1_555 1_555
Co2A O20 1_555 1_555
Co3C O15 1_555 1_555
Co5C O1 1_555 1_555
Co5B O24 1_555 1_555
Co6C O1C 1_555 1_555
Co6C_2 O13 1_555 1_555
Co6A O21 1_555 1_555
Co7B O12 1_555 1_555
O1C Co5 1_555 1_555
H1C O1C 1_555 1_555
O3C Co5 1_555 1_555
H3C O3C 1_555 1_555
O7C Co5 1_555 1_555
H7C O7C 1_555 1_555
O12B Co7 1_555 1_555
O13C Co6 1_555 1_555
O15C Co3 1_555 1_555
O20A Co2 1_555 1_555
O21A Co6 1_555 1_555
O24B Co5 1_555 1_555
O25A Co6 1_555 1_555
Co2 O4 1_555 1_555
Co3 O2 1_555 1_555
Co3 O5 1_555 1_555
Co4 O3 1_555 1_555
Co4 O6 1_555 1_555
Co6 O4 1_555 1_555
Co7 O18 1_555 1_555
Co7 O22 1_555 1_555
O3 Co5C 1_555 1_555
O7 Co5C 1_555 1_555
O11 C1 1_555 1_555
O19 C9 1_555 1_555
O23 C13 1_555 1_555
O25 Co6A 1_555 1_555
C7 C8 1_555 1_555
C11 C12 1_555 1_555
C15 C16 1_555 1_555
Co3C O1C 1_555 1_555
Co3C O3C 1_555 1_555
Co6C O7C 1_555 1_555

#END
