
#######################################################################
#
#                 Cambridge Crystallographic Data Centre
#                                CCDC 
#
#######################################################################
#
# If this CIF has been generated from an entry in the Cambridge 
# Structural Database, then it will include bibliographic, chemical, 
# crystal, experimental, refinement or atomic coordinate data resulting 
# from the CCDC's data processing and validation procedures.
#
#######################################################################

data_RAYLEK
_symmetry_cell_setting           hexagonal
_symmetry_space_group_name_H-M   'P 62 2 2'
_symmetry_Int_Tables_number      180
_space_group_name_Hall           "P 62 2' (0,0,4)"
loop_
_symmetry_equiv_pos_site_id
_symmetry_equiv_pos_as_xyz
1 x,y,z
2 x-y,x,1/3+z
3 -y,x-y,2/3+z
4 -x,-y,z
5 -x+y,-x,1/3+z
6 y,-x+y,2/3+z
7 -y,-x,2/3-z
8 x-y,-y,-z
9 x,x-y,1/3-z
10 y,x,2/3-z
11 -x+y,y,-z
12 -x,-x+y,1/3-z
_cell_length_a                   16.5755(6)
_cell_length_b                   16.5755(6)
_cell_length_c                   25.117(2)
_cell_angle_alpha                90
_cell_angle_beta                 90
_cell_angle_gamma                120
_cell_volume                     5976.29
loop_
_atom_site_label
_atom_site_type_symbol
_atom_site_fract_x
_atom_site_fract_y
_atom_site_fract_z
C1 C 0.41617(15) 0.67347(16) 0.06953(11)
C2 C 0.46731(16) 0.71716(17) 0.12090(11)
C3 C 0.4192(2) 0.70961(11) 0.1667
H1 H 0.3544 0.6772 0.1667
C4 C 0.56495(18) 0.7678(3) 0.11956(14)
H2 H 0.5968 0.7753 0.0878
C5 C 0.6136(3) 0.80678(14) 0.1667
C6 C 0.08360(18) 0.44572(17) -0.01690(9)
H3 H 0.0993 0.4604 -0.0525
C7 C -0.01135(15) 0.38353(15) -0.00370(9)
H4 H -0.0564 0.3607 -0.0303
C8 C -0.03561(13) 0.35818(15) 0.04627(9)
C9 C 0.03527(16) 0.3974(2) 0.08380(10)
H5 H 0.0221 0.3816 0.1195
C10 C 0.12422(17) 0.45899(19) 0.06834(10)
H6 H 0.1698 0.4857 0.0945
C11 C -0.16129(18) 0.2456(2) 0.10159(10)
C12 C -0.26486(17) 0.17574(18) 0.10382(10)
C13 C -0.3227(2) 0.1681(2) 0.06942(17)
H7 H -0.3024 0.2083 0.0404
C14 C -0.4158(2) 0.1018(2) 0.07310(18)
H8 H -0.4561 0.1037 0.0481
C15 C -0.45102(15) 0.03698(15) 0.10897(11)
C16 C -0.3937(3) 0.0520(4) 0.14505(15)
H9 H -0.4156 0.0160 0.1757
C17 C -0.3006(2) 0.1178(4) 0.14307(15)
H10 H -0.2621 0.1208 0.1708
N1 N 0.7087(3) 0.85436(13) 0.1667
H11 H 0.7387 0.8784 0.1957
N2 N 0.14930(11) 0.48287(12) 0.01855(7)
N3 N -0.12679(12) 0.29470(13) 0.05788(7)
H12 H -0.1666 0.2859 0.0333
O1 O 0.33114(10) 0.62137(11) 0.07193(7)
O2 O 0.46070(13) 0.69229(12) 0.02700(8)
O3 O -0.11368(17) 0.2571(2) 0.14002(9)
Zn1 Zn 0.286190(14) 0.57238(3) 0.0000
C1H C 0.41617(15) 0.74270(22) 0.26380(11)
C2H C 0.46731(16) 0.75015(23) 0.21243(11)
C4H C 0.56495(18) 0.79715(35) 0.21377(14)
H2H H 0.5968 0.8215 0.2455
C6C C -1.08360(18) -0.44572(17) -0.01690(9)
H3C H -1.0993 -0.4604 -0.0525
C7C C -0.98865(15) -0.38353(15) -0.00370(9)
H4C H -0.9436 -0.3607 -0.0303
C8C C -0.96439(13) -0.35818(15) 0.04627(9)
C9C C -1.03527(16) -0.3974(2) 0.08380(10)
H5C H -1.0221 -0.3816 0.1195
C10C C -1.12422(17) -0.45899(19) 0.06834(10)
H6C H -1.1698 -0.4857 0.0945
C11C C -0.83871(18) -0.2456(2) 0.10159(10)
C12C C -0.73514(17) -0.17574(18) 0.10382(10)
C13C C -0.6773(2) -0.1681(2) 0.06942(17)
H7C H -0.6976 -0.2083 0.0404
C14C C -0.5842(2) -0.1018(2) 0.07310(18)
H8C H -0.5439 -0.1037 0.0481
C15C C -0.54898(15) -0.03698(15) 0.10897(11)
C16C C -0.6063(3) -0.0520(4) 0.14505(15)
H9C H -0.5844 -0.0160 0.1757
C17C C -0.6994(2) -0.1178(4) 0.14307(15)
H10C H -0.7379 -0.1208 0.1708
H11H H 0.7387 0.8603 0.1376
N2C N -1.14930(11) -0.48287(12) 0.01855(7)
N2J N 0.33357(16) 0.48287(12) -0.01855(7)
N3C N -0.87321(12) -0.29470(13) 0.05788(7)
H12C H -0.8334 -0.2859 0.0333
O1H O 0.33114(10) 0.70977(15) 0.26140(7)
O1J O 0.29023(15) 0.62137(11) -0.07193(7)
O2H O 0.46070(13) 0.76841(18) 0.30633(8)
O3C O -0.88632(17) -0.2571(2) 0.14002(9)
Zn1D Zn 0.286190(33) 0.713810(14) 0.3333
Zn1C Zn -1.286190(14) -0.57238(3) 0.0000
loop_
_geom_bond_atom_site_label_1
_geom_bond_atom_site_label_2
_geom_bond_site_symmetry_1
_geom_bond_site_symmetry_2
C1 C2 1_555 1_555
C2 C3 1_555 1_555
C3 H1 1_555 1_555
C4 C2 1_555 1_555
H2 C4 1_555 1_555
C5 C4 1_555 1_555
C6 H3 1_555 1_555
C7 C6 1_555 1_555
H4 C7 1_555 1_555
C8 C7 1_555 1_555
C9 C8 1_555 1_555
H5 C9 1_555 1_555
C10 C9 1_555 1_555
H6 C10 1_555 1_555
C11 C12 1_555 1_555
C12 C13 1_555 1_555
C13 H7 1_555 1_555
C14 C13 1_555 1_555
H8 C14 1_555 1_555
C15 C14 1_555 1_555
C16 C15 1_555 1_555
H9 C16 1_555 1_555
C17 C12 1_555 1_555
H10 C17 1_555 1_555
N1 C5 1_555 1_555
H11 N1 1_555 1_555
N2 C6 1_555 1_555
N3 C8 1_555 1_555
H12 N3 1_555 1_555
O1 C1 1_555 1_555
O2 C1 1_555 1_555
O3 C11 1_555 1_555
Zn1 N2 1_555 1_555
C1H C2H 1_555 1_555
C2H C3 1_555 1_555
C4H C5 1_555 1_555
H2H C4H 1_555 1_555
C6C H3C 1_555 1_555
C7C C6C 1_555 1_555
H4C C7C 1_555 1_555
C8C C7C 1_555 1_555
C9C C8C 1_555 1_555
H5C C9C 1_555 1_555
C10C C9C 1_555 1_555
H6C C10C 1_555 1_555
C11C C12C 1_555 1_555
C12C C13C 1_555 1_555
C13C H7C 1_555 1_555
C14C C13C 1_555 1_555
H8C C14C 1_555 1_555
C15C C15 1_555 1_555
C16C C15C 1_555 1_555
H9C C16C 1_555 1_555
C17C C12C 1_555 1_555
H10C C17C 1_555 1_555
H11H N1 1_555 1_555
N2C C6C 1_555 1_555
N2J Zn1 1_555 1_555
N3C C8C 1_555 1_555
H12C N3C 1_555 1_555
O1H C1H 1_555 1_555
O1J Zn1 1_555 1_555
O2H C1H 1_555 1_555
O3C C11C 1_555 1_555
Zn1D O1H 1_555 1_555
Zn1C N2C 1_555 1_555
C10 N2 1_555 1_555
C11 N3 1_555 1_555
C16 C17 1_555 1_555
O1 Zn1 1_555 1_555
C2H C4H 1_555 1_555
C10C N2C 1_555 1_555
C11C N3C 1_555 1_555
C14C C15C 1_555 1_555
C16C C17C 1_555 1_555

#END
