
#######################################################################
#
#                 Cambridge Crystallographic Data Centre
#                                CCDC 
#
#######################################################################
#
# If this CIF has been generated from an entry in the Cambridge 
# Structural Database, then it will include bibliographic, chemical, 
# crystal, experimental, refinement or atomic coordinate data resulting 
# from the CCDC's data processing and validation procedures.
#
#######################################################################

data_RAYMEK
_symmetry_cell_setting           triclinic
_symmetry_space_group_name_H-M   'P -1'
_symmetry_Int_Tables_number      2
_space_group_name_Hall           '-P 1'
loop_
_symmetry_equiv_pos_site_id
_symmetry_equiv_pos_as_xyz
1 x,y,z
2 -x,-y,-z
_cell_length_a                   10.1025(9)
_cell_length_b                   11.1759(9)
_cell_length_c                   12.5105(11)
_cell_angle_alpha                100.479(2)
_cell_angle_beta                 113.461(2)
_cell_angle_gamma                102.562(2)
_cell_volume                     1206.52
loop_
_atom_site_label
_atom_site_type_symbol
_atom_site_fract_x
_atom_site_fract_y
_atom_site_fract_z
Co1 Co 0.82742(3) 0.59693(2) 0.43101(2)
O1 O 1.3743(2) 1.02601(18) 0.2304(2)
O2 O 1.1784(2) 1.00323(19) 0.2741(2)
O3 O 0.98754(15) 0.62289(14) 0.36956(13)
H1 H 1.1444 1.0667 0.2309
O4 O 1.15777(16) 0.54739(13) 0.49093(13)
O5 O 1.64720(16) 0.61611(13) 0.47155(13)
O6 O 1.69868(15) 0.73161(13) 0.35939(13)
N1 N 0.67113(18) 0.45827(15) 0.25773(15)
N2 N -0.00693(18) -0.24873(16) -0.41066(15)
C1 C 1.3271(2) 0.87006(19) 0.3292(2)
C2 C 1.2184(2) 0.79876(19) 0.35526(19)
H2 H 1.1275 0.8194 0.3405
C3 C 1.2420(2) 0.69776(18) 0.40261(17)
C4 C 1.3760(2) 0.66866(17) 0.42518(17)
H3 H 1.3948 0.6023 0.4611
C5 C 1.4828(2) 0.73641(18) 0.39532(17)
C6 C 1.4585(2) 0.83686(19) 0.34728(19)
H4 H 1.5310 0.8830 0.3267
C7 C 1.2984(3) 0.9754(2) 0.2739(2)
C8 C 1.1203(2) 0.61600(17) 0.42336(16)
C9 C 1.6188(2) 0.69360(18) 0.40985(17)
C10 C 0.5572(2) 0.36073(19) 0.24687(18)
H5 H 0.5517 0.3508 0.3189
C11 C 0.4479(2) 0.2743(2) 0.13597(19)
H6 H 0.3702 0.2064 0.1331
C12 C 0.4516(2) 0.28656(19) 0.02861(18)
C13 C 0.5714(2) 0.38671(19) 0.04021(18)
H7 H 0.5808 0.3978 -0.0303
C14 C 0.6761(2) 0.46952(19) 0.15418(18)
H8 H 0.7556 0.5379 0.1597
C15 C 0.3335(2) 0.19322(19) -0.09336(18)
H9 H 0.3365 0.2292 -0.1594
H10 H 0.2309 0.1803 -0.0983
C16 C 0.3624(2) 0.06391(19) -0.11140(19)
H11 H 0.4557 0.0751 -0.1224
H12 H 0.3822 0.0384 -0.0361
C17 C 0.2342(2) -0.04341(19) -0.21817(18)
C18 C 0.1254(3) -0.0226(2) -0.31684(19)
H13 H 0.1313 0.0624 -0.3207
C19 C 0.0082(2) -0.12645(19) -0.40968(19)
H14 H -0.0655 -0.1101 -0.4763
C20 C 0.0988(2) -0.26895(19) -0.31577(19)
H15 H 0.0909 -0.3549 -0.3145
C21 C 0.2188(2) -0.1703(2) -0.21972(19)
H16 H 0.2911 -0.1893 -0.1544
Co1A Co 1.17258(3) 0.40307(2) 0.56899(2)
Co1_2 Co 1.82742(3) 0.59693(2) 0.43101(2)
Co1_3 Co -0.17258(3) -0.40307(2) -0.56899(2)
Co1A_2 Co 0.17258(3) 0.40307(2) 0.56899(2)
Co1_4 Co 1.82742(3) 1.59693(2) 1.43101(2)
O1A O 0.6257(2) -0.02601(18) 0.7696(2)
O2A O 0.8216(2) -0.00323(19) 0.7259(2)
O3A O 1.01246(15) 0.37711(14) 0.63044(13)
H1A H 0.8556 -0.0667 0.7691
O4A O 0.84223(16) 0.45261(13) 0.50907(13)
O5A O 0.35280(16) 0.38389(13) 0.52845(13)
O5_2 O 0.64720(16) 0.61611(13) 0.47155(13)
O5A_2 O 1.35280(16) 0.38389(13) 0.52845(13)
O6A O 0.30132(15) 0.26839(13) 0.64061(13)
O6_2 O 0.69868(15) 0.73161(13) 0.35939(13)
O6A_2 O 1.30132(15) 0.26839(13) 0.64061(13)
N1_2 N 1.67113(18) 1.45827(15) 1.25773(15)
N1A N 1.32887(18) 0.54173(15) 0.74227(15)
N2_2 N 0.99307(18) 0.75127(16) 0.58934(15)
N2A N 1.00693(18) 0.24873(16) 0.41066(15)
C1A C 0.6729(2) 0.12994(19) 0.6708(2)
C2A C 0.7816(2) 0.20124(19) 0.64474(19)
H2A H 0.8725 0.1806 0.6595
C3A C 0.7580(2) 0.30224(18) 0.59739(17)
C4A C 0.6240(2) 0.33134(17) 0.57482(17)
H3A H 0.6052 0.3977 0.5389
C5A C 0.5172(2) 0.26359(18) 0.60468(17)
C6A C 0.5415(2) 0.16314(19) 0.65272(19)
H4A H 0.4690 0.1170 0.6733
C7A C 0.7016(3) 0.0246(2) 0.7261(2)
C8A C 0.8797(2) 0.38400(17) 0.57664(16)
C9A C 0.3812(2) 0.30640(18) 0.59015(17)
C10_2 C 1.5572(2) 1.36073(19) 1.24687(18)
H5_2 H 1.5517 1.3508 1.3189
C11_2 C 1.4479(2) 1.2743(2) 1.13597(19)
H6_2 H 1.3702 1.2064 1.1331
C12_2 C 1.4516(2) 1.28656(19) 1.02861(18)
C13_2 C 1.5714(2) 1.38671(19) 1.04021(18)
H7_2 H 1.5808 1.3978 0.9697
C14_2 C 1.6761(2) 1.46952(19) 1.15418(18)
H8_2 H 1.7556 1.5379 1.1597
C15_2 C 1.3335(2) 1.19322(19) 0.90664(18)
H9_2 H 1.3365 1.2292 0.8406
H10_2 H 1.2309 1.1803 0.9017
C16_2 C 1.3624(2) 1.06391(19) 0.88860(19)
H11_2 H 1.4557 1.0751 0.8776
H12_2 H 1.3822 1.0384 0.9639
C17_2 C 1.2342(2) 0.95659(19) 0.78183(18)
C18_2 C 1.1254(3) 0.9774(2) 0.68316(19)
H13_2 H 1.1313 1.0624 0.6793
C19_2 C 1.0082(2) 0.87355(19) 0.59032(19)
H14_2 H 0.9345 0.8899 0.5237
C20_2 C 1.0988(2) 0.73105(19) 0.68423(19)
H15_2 H 1.0909 0.6451 0.6855
C21_2 C 1.2188(2) 0.8297(2) 0.78028(19)
H16_2 H 1.2911 0.8107 0.8456
N3 N 0.0849(7) 0.1645(6) 0.1563(5)
C22 C -0.0414(5) 0.1424(4) 0.0553(4)
H17 H -0.1025 0.0557 0.0098
C23 C -0.0892(4) 0.2389(3) 0.0126(3)
H18 H -0.1809 0.2180 -0.0604
C24 C -0.0021(3) 0.3667(3) 0.0772(3)
C25 C 0.1288(4) 0.3904(3) 0.1837(3)
H19 H 0.1918 0.4761 0.2311
C26 C 0.1672(6) 0.2882(6) 0.2205(6)
H20 H 0.2562 0.3061 0.2948
C27 C -0.0460(4) 0.4756(3) 0.0329(3)
H21 H -0.0258 0.5468 0.1032
H22 H -0.1563 0.4460 -0.0239
N3A N -0.0849(7) 0.8355(6) -0.1563(5)
C22A C 0.0414(5) 0.8576(4) -0.0553(4)
H17A H 0.1025 0.9443 -0.0098
C23A C 0.0892(4) 0.7611(3) -0.0126(3)
H18A H 0.1809 0.7820 0.0604
C24A C 0.0021(3) 0.6333(3) -0.0772(3)
C25A C -0.1288(4) 0.6096(3) -0.1837(3)
H19A H -0.1918 0.5239 -0.2311
C26A C -0.1672(6) 0.7118(6) -0.2205(6)
H20A H -0.2562 0.6939 -0.2948
C27A C 0.0460(4) 0.5244(3) -0.0329(3)
H21A H 0.0258 0.4532 -0.1032
H22A H 0.1563 0.5540 0.0239
N4? N 0.121(3) 0.194(2) 0.1890(18)
C28? C 0.018(2) 0.1588(17) 0.074(2)
H23? H -0.0383 0.0701 0.0352
C29? C -0.0127(18) 0.2429(11) 0.0046(12)
H24? H -0.0966 0.2145 -0.0747
C30? C 0.0826(14) 0.3695(10) 0.0551(10)
C31? C 0.1924(19) 0.4040(14) 0.1751(10)
H25? H 0.2560 0.4910 0.2148
C32? C 0.212(3) 0.315(2) 0.239(2)
H26? H 0.2920 0.3411 0.3198
C33? C 0.053(2) 0.4689(15) -0.0118(14)
H27? H 0.1516 0.5358 0.0142
H28? H 0.0101 0.4270 -0.1007
loop_
_geom_bond_atom_site_label_1
_geom_bond_atom_site_label_2
_geom_bond_site_symmetry_1
_geom_bond_site_symmetry_2
Co1 O3 1_555 1_555
O1 C7 1_555 1_555
O2 H1 1_555 1_555
O3 C8 1_555 1_555
O4 C8 1_555 1_555
O5 C9 1_555 1_555
O6 C9 1_555 1_555
N1 Co1 1_555 1_555
N2 C19 1_555 1_555
C1 C2 1_555 1_555
C2 H2 1_555 1_555
C3 C2 1_555 1_555
C4 C3 1_555 1_555
H3 C4 1_555 1_555
C5 C4 1_555 1_555
C6 C1 1_555 1_555
H4 C6 1_555 1_555
C7 O2 1_555 1_555
C8 C3 1_555 1_555
C9 C5 1_555 1_555
C10 N1 1_555 1_555
H5 C10 1_555 1_555
C11 C10 1_555 1_555
H6 C11 1_555 1_555
C12 C11 1_555 1_555
C13 C12 1_555 1_555
H7 C13 1_555 1_555
C14 N1 1_555 1_555
H8 C14 1_555 1_555
C15 C12 1_555 1_555
H9 C15 1_555 1_555
H10 C15 1_555 1_555
C16 C15 1_555 1_555
H11 C16 1_555 1_555
H12 C16 1_555 1_555
C17 C16 1_555 1_555
C18 C17 1_555 1_555
H13 C18 1_555 1_555
C19 C18 1_555 1_555
H14 C19 1_555 1_555
C20 N2 1_555 1_555
H15 C20 1_555 1_555
C21 C17 1_555 1_555
H16 C21 1_555 1_555
N3 C22 1_555 1_555
C22 H17 1_555 1_555
C23 C22 1_555 1_555
H18 C23 1_555 1_555
C24 C23 1_555 1_555
C25 C24 1_555 1_555
H19 C25 1_555 1_555
C26 N3 1_555 1_555
H20 C26 1_555 1_555
C27 C24 1_555 1_555
H21 C27 1_555 1_555
H22 C27 1_555 1_555
Co1A O4 1_555 1_555
Co1_2 O5 1_555 1_555
Co1_3 N2 1_555 1_555
Co1A_2 O5A 1_555 1_555
Co1_4 N1_2 1_555 1_555
O1A C7A 1_555 1_555
O2A H1A 1_555 1_555
O3A Co1A 1_555 1_555
O4A Co1 1_555 1_555
O5A C9A 1_555 1_555
O5_2 Co1 1_555 1_555
O5A_2 Co1A 1_555 1_555
O6A Co1A_2 1_555 1_555
O6_2 Co1 1_555 1_555
O6A_2 Co1A 1_555 1_555
N1_2 C10_2 1_555 1_555
N1A Co1A 1_555 1_555
N2_2 Co1 1_555 1_555
N2A Co1A 1_555 1_555
C1A C2A 1_555 1_555
C2A H2A 1_555 1_555
C3A C2A 1_555 1_555
C4A C3A 1_555 1_555
H3A C4A 1_555 1_555
C5A C4A 1_555 1_555
C6A C1A 1_555 1_555
H4A C6A 1_555 1_555
C7A O2A 1_555 1_555
C8A O3A 1_555 1_555
C9A O6A 1_555 1_555
C10_2 H5_2 1_555 1_555
C11_2 C10_2 1_555 1_555
H6_2 C11_2 1_555 1_555
C12_2 C11_2 1_555 1_555
C13_2 C12_2 1_555 1_555
H7_2 C13_2 1_555 1_555
C14_2 N1_2 1_555 1_555
H8_2 C14_2 1_555 1_555
C15_2 C12_2 1_555 1_555
H9_2 C15_2 1_555 1_555
H10_2 C15_2 1_555 1_555
C16_2 C15_2 1_555 1_555
H11_2 C16_2 1_555 1_555
H12_2 C16_2 1_555 1_555
C17_2 C16_2 1_555 1_555
C18_2 C17_2 1_555 1_555
H13_2 C18_2 1_555 1_555
C19_2 N2_2 1_555 1_555
H14_2 C19_2 1_555 1_555
C20_2 N2_2 1_555 1_555
H15_2 C20_2 1_555 1_555
C21_2 C17_2 1_555 1_555
H16_2 C21_2 1_555 1_555
N3A C22A 1_555 1_555
C22A H17A 1_555 1_555
C23A C22A 1_555 1_555
H18A C23A 1_555 1_555
C24A C23A 1_555 1_555
C25A C24A 1_555 1_555
H19A C25A 1_555 1_555
C26A N3A 1_555 1_555
H20A C26A 1_555 1_555
C27A C27 1_555 1_555
H21A C27A 1_555 1_555
H22A C27A 1_555 1_555
O6 Co1_2 1_555 1_555
C1 C7 1_555 1_555
C5 C6 1_555 1_555
C13 C14 1_555 1_555
C20 C21 1_555 1_555
C25 C26 1_555 1_555
O4A C8A 1_555 1_555
C1A C7A 1_555 1_555
C3A C8A 1_555 1_555
C5A C6A 1_555 1_555
C5A C9A 1_555 1_555
C13_2 C14_2 1_555 1_555
C18_2 C19_2 1_555 1_555
C20_2 C21_2 1_555 1_555
C24A C27A 1_555 1_555
C25A C26A 1_555 1_555

#END
