
#######################################################################
#
#                 Cambridge Crystallographic Data Centre
#                                CCDC 
#
#######################################################################
#
# If this CIF has been generated from an entry in the Cambridge 
# Structural Database, then it will include bibliographic, chemical, 
# crystal, experimental, refinement or atomic coordinate data resulting 
# from the CCDC's data processing and validation procedures.
#
#######################################################################

data_RAYMAH
_symmetry_cell_setting           hexagonal
_symmetry_space_group_name_H-M   'P 62 2 2'
_symmetry_Int_Tables_number      180
_space_group_name_Hall           "P 62 2' (0,0,4)"
loop_
_symmetry_equiv_pos_site_id
_symmetry_equiv_pos_as_xyz
1 x,y,z
2 x-y,x,1/3+z
3 -y,x-y,2/3+z
4 -x,-y,z
5 -x+y,-x,1/3+z
6 y,-x+y,2/3+z
7 -y,-x,2/3-z
8 x-y,-y,-z
9 x,x-y,1/3-z
10 y,x,2/3-z
11 -x+y,y,-z
12 -x,-x+y,1/3-z
_cell_length_a                   16.5028(4)
_cell_length_b                   16.5028(4)
_cell_length_c                   25.4515(15)
_cell_angle_alpha                90
_cell_angle_beta                 90
_cell_angle_gamma                120
_cell_volume                     6002.87
loop_
_atom_site_label
_atom_site_type_symbol
_atom_site_fract_x
_atom_site_fract_y
_atom_site_fract_z
C1 C 0.67737(18) 0.41810(19) 0.09696(11)
C2 C 0.7197(2) 0.46821(19) 0.04587(12)
C3 C 0.71056(14) 0.4211(3) 0.0000
H1 H 0.6780 0.3560 0.0000
C4 C 0.7710(4) 0.5653(2) 0.04500(16)
H2 H 0.7810 0.5982 0.0763
C5 C 0.8065(2) 0.6130(4) 0.0000
C6 C 0.8571(3) 0.7142(6) 0.0000
C7 C 0.4673(2) 0.1242(2) 0.09875(11)
H3 H 0.4958 0.1697 0.0729
C8 C 0.4071(3) 0.0348(2) 0.08320(12)
H4 H 0.3967 0.0208 0.0476
C9 C 0.3620(2) -0.03429(18) 0.11959(11)
C10 C 0.3829(2) -0.0081(2) 0.17102(12)
H5 H 0.3551 -0.0526 0.1974
C11 C 0.4447(3) 0.0837(2) 0.18403(12)
H6 H 0.4572 0.1002 0.2193
C12 C 0.2583(3) -0.1643(2) 0.06178(13)
C13 C 0.1836(2) -0.2655(2) 0.06040(12)
C14 C 0.1361(5) -0.3049(4) 0.01686(18)
H7 H 0.1500 -0.2686 -0.0133
C15 C 0.0681(5) -0.3956(3) 0.01459(18)
H8 H 0.0403 -0.4196 -0.0178
C16 C 0.0393(2) -0.4514(2) 0.05480(12)
C17 C 0.0978(3) -0.4166(3) 0.09481(17)
H9 H 0.0924 -0.4577 0.1214
C18 C 0.1653(3) -0.3255(3) 0.10023(18)
H10 H 0.1987 -0.3047 0.1315
N1 N 0.48714(15) 0.14971(15) 0.14734(9)
N2 N 0.29677(18) -0.12808(16) 0.10803(9)
H11 H 0.2797 -0.1666 0.1340
O1 O 0.62362(14) 0.33094(13) 0.09512(8)
O2 O 0.69753(15) 0.46409(17) 0.13801(9)
O3 O 0.8515(8) 0.7589(3) 0.03579(19)
O4 O 0.2786(3) -0.1184(2) 0.02275(11)
Zn1 Zn 0.57526(3) 0.287631(16) 0.1667
C1J C 0.74073(26) 0.41810(19) -0.09696(11)
C2J C 0.74851(28) 0.46821(19) -0.04587(12)
C4J C 0.7943(4) 0.5653(2) -0.04500(16)
H2J H 0.8172 0.5982 -0.0763
C7C C -0.4673(2) -1.1242(2) 0.09875(11)
H3C H -0.4958 -1.1697 0.0729
C8C C -0.4071(3) -1.0348(2) 0.08320(12)
H4C H -0.3967 -1.0208 0.0476
C9C C -0.3620(2) -0.96571(18) 0.11959(11)
C10C C -0.3829(2) -0.9919(2) 0.17102(12)
H5C H -0.3551 -0.9474 0.1974
C11C C -0.4447(3) -1.0837(2) 0.18403(12)
H6C H -0.4572 -1.1002 0.2193
C12C C -0.2583(3) -0.8357(2) 0.06178(13)
C13C C -0.1836(2) -0.7345(2) 0.06040(12)
C14C C -0.1361(5) -0.6951(4) 0.01686(18)
H7C H -0.1500 -0.7314 -0.0133
C15C C -0.0681(5) -0.6044(3) 0.01459(18)
H8C H -0.0403 -0.5804 -0.0178
C16C C -0.0393(2) -0.5486(2) 0.05480(12)
C17C C -0.0978(3) -0.5834(3) 0.09481(17)
H9C H -0.0924 -0.5423 0.1214
C18C C -0.1653(3) -0.6745(3) 0.10023(18)
H10C H -0.1987 -0.6953 0.1315
N1C N -0.48714(15) -1.14971(15) 0.14734(9)
N1H N 0.48714(15) 0.33743(21) 0.18599(9)
N2C N -0.29677(18) -0.87192(16) 0.10803(9)
H11C H -0.2797 -0.8334 0.1340
O1J O 0.70732(19) 0.33094(13) -0.09512(8)
O1H O 0.62362(14) 0.29268(19) 0.23821(8)
O2J O 0.76656(23) 0.46409(17) -0.13801(9)
O3J O 0.9074(9) 0.7589(3) -0.03579(19)
O4C O -0.2786(3) -0.8816(2) 0.02275(11)
Zn1B Zn 0.712369(16) 0.287629(34) -0.1666
Zn1K Zn -0.57526(3) -1.287629(34) 0.1666
loop_
_geom_bond_atom_site_label_1
_geom_bond_atom_site_label_2
_geom_bond_site_symmetry_1
_geom_bond_site_symmetry_2
C1 C2 1_555 1_555
C2 C3 1_555 1_555
C3 H1 1_555 1_555
C4 C2 1_555 1_555
H2 C4 1_555 1_555
C5 C4 1_555 1_555
C6 C5 1_555 1_555
C7 H3 1_555 1_555
C8 C7 1_555 1_555
H4 C8 1_555 1_555
C9 C8 1_555 1_555
C10 C9 1_555 1_555
H5 C10 1_555 1_555
C11 C10 1_555 1_555
H6 C11 1_555 1_555
C12 C13 1_555 1_555
C13 C14 1_555 1_555
C14 H7 1_555 1_555
C15 C14 1_555 1_555
H8 C15 1_555 1_555
C16 C15 1_555 1_555
C17 C16 1_555 1_555
H9 C17 1_555 1_555
C18 C13 1_555 1_555
H10 C18 1_555 1_555
N1 C7 1_555 1_555
N2 C9 1_555 1_555
H11 N2 1_555 1_555
O1 C1 1_555 1_555
O2 C1 1_555 1_555
O3 C6 1_555 1_555
O4 C12 1_555 1_555
Zn1 N1 1_555 1_555
C1J C2J 1_555 1_555
C2J C3 1_555 1_555
C4J C5 1_555 1_555
H2J C4J 1_555 1_555
C7C H3C 1_555 1_555
C8C C7C 1_555 1_555
H4C C8C 1_555 1_555
C9C C8C 1_555 1_555
C10C C9C 1_555 1_555
H5C C10C 1_555 1_555
C11C C10C 1_555 1_555
H6C C11C 1_555 1_555
C12C C13C 1_555 1_555
C13C C14C 1_555 1_555
C14C H7C 1_555 1_555
C15C C14C 1_555 1_555
H8C C15C 1_555 1_555
C16C C16 1_555 1_555
C17C C16C 1_555 1_555
H9C C17C 1_555 1_555
C18C C13C 1_555 1_555
H10C C18C 1_555 1_555
N1C C7C 1_555 1_555
N1H Zn1 1_555 1_555
N2C C9C 1_555 1_555
H11C N2C 1_555 1_555
O1J C1J 1_555 1_555
O1H Zn1 1_555 1_555
O2J C1J 1_555 1_555
O3J C6 1_555 1_555
O4C C12C 1_555 1_555
Zn1B O1J 1_555 1_555
Zn1K N1C 1_555 1_555
C11 N1 1_555 1_555
C12 N2 1_555 1_555
C17 C18 1_555 1_555
O1 Zn1 1_555 1_555
C2J C4J 1_555 1_555
C11C N1C 1_555 1_555
C12C N2C 1_555 1_555
C15C C16C 1_555 1_555
C17C C18C 1_555 1_555

#END
