
#######################################################################
#
#                 Cambridge Crystallographic Data Centre
#                                CCDC 
#
#######################################################################
#
# If this CIF has been generated from an entry in the Cambridge 
# Structural Database, then it will include bibliographic, chemical, 
# crystal, experimental, refinement or atomic coordinate data resulting 
# from the CCDC's data processing and validation procedures.
#
#######################################################################

data_RAYRUG
_symmetry_cell_setting           monoclinic
_symmetry_space_group_name_H-M   'C 2/c'
_symmetry_Int_Tables_number      15
_space_group_name_Hall           '-C 2yn'
loop_
_symmetry_equiv_pos_site_id
_symmetry_equiv_pos_as_xyz
1 x,y,z
2 -x,y,1/2-z
3 1/2+x,1/2+y,z
4 1/2-x,1/2+y,1/2-z
5 -x,-y,-z
6 x,-y,1/2+z
7 1/2-x,1/2-y,-z
8 1/2+x,1/2-y,1/2+z
_cell_length_a                   36.893(8)
_cell_length_b                   14.137(3)
_cell_length_c                   8.3173(19)
_cell_angle_alpha                90
_cell_angle_beta                 94.935(3)
_cell_angle_gamma                90
_cell_volume                     4321.86
loop_
_atom_site_label
_atom_site_type_symbol
_atom_site_fract_x
_atom_site_fract_y
_atom_site_fract_z
Yb1 Yb 0.229642(7) 0.372364(17) 0.95389(3)
O1 O 0.20149(11) 0.4351(3) 1.1506(5)
O2 O 0.19480(11) 0.2598(3) 0.8248(5)
O3 O 0.22079(11) 0.1175(3) 0.8546(5)
O4 O 0.22581(10) 0.2412(3) 1.1253(4)
O5 O 0.24201(12) 0.1300(3) 1.2961(5)
O6 O 0.25543(12) 0.5202(3) 0.9330(5)
H1 H 0.2694 0.5423 1.0108
H2 H 0.2510 0.5524 0.8474
O7 O 0.18404(11) 0.5501(3) 1.3059(5)
C1 C 0.17693(17) 0.4836(5) 1.2106(7)
C2 C 0.13822(18) 0.4546(5) 1.1728(8)
C3 C 0.11071(19) 0.5168(6) 1.2171(8)
H3 H 0.1170 0.5731 1.2702
C4 C 0.0750(2) 0.4939(6) 1.1817(9)
H4 H 0.0571 0.5349 1.2123
C5 C 0.0648(2) 0.4109(6) 1.1010(9)
C6 C 0.0270(2) 0.3883(6) 1.0538(10)
H5 H 0.0086 0.4277 1.0838
C7 C 0.0189(2) 0.3103(7) 0.9665(10)
H6 H -0.0053 0.2965 0.9362
C8 C 0.0454(2) 0.2499(7) 0.9203(10)
H7 H 0.0387 0.1963 0.8598
C9 C 0.0813(2) 0.2679(6) 0.9627(9)
H8 H 0.0990 0.2267 0.9305
C10 C 0.0918(2) 0.3483(6) 1.0543(8)
C11 C 0.12873(18) 0.3729(5) 1.0943(7)
H9 H 0.1469 0.3321 1.0661
C12 C 0.19442(17) 0.1715(5) 0.8100(7)
C13 C 0.16085(17) 0.1274(5) 0.7335(7)
C14 C 0.15386(19) 0.0310(5) 0.7526(8)
H10 H 0.1709 -0.0068 0.8112
C15 C 0.1221(2) -0.0080(6) 0.6857(9)
H11 H 0.1173 -0.0717 0.7024
C16 C 0.0969(2) 0.0472(6) 0.5923(9)
C17 C 0.0638(2) 0.0096(7) 0.5185(10)
H12 H 0.0578 -0.0533 0.5351
C18 C 0.0404(2) 0.0663(8) 0.4223(11)
H13 H 0.0188 0.0408 0.3757
C19 C 0.0483(2) 0.1595(7) 0.3934(11)
H14 H 0.0325 0.1950 0.3244
C20 C 0.0790(2) 0.2003(7) 0.4649(9)
H15 H 0.0838 0.2639 0.4484
C21 C 0.1038(2) 0.1436(6) 0.5660(9)
C22 C 0.13563(18) 0.1823(6) 0.6423(8)
H16 H 0.1400 0.2467 0.6317
C23 C 0.22343(16) 0.2029(4) 1.2614(7)
C24 C 0.19936(19) 0.2432(5) 1.3775(8)
H17 H 0.1875 0.2985 1.3315
H18 H 0.2136 0.2600 1.4754
H19 H 0.1814 0.1972 1.4007
Yb1F Yb 0.270358(7) 0.127636(17) 1.04611(3)
Yb1E Yb 0.229642(7) 0.627636(17) 1.45389(3)
O3F O 0.27921(11) 0.3825(3) 1.1454(5)
O4F O 0.27419(10) 0.2588(3) 0.8747(4)
O5F O 0.25799(12) 0.3700(3) 0.7039(5)
O7E O 0.18404(11) 0.4499(3) 0.8059(5)
loop_
_geom_bond_atom_site_label_1
_geom_bond_atom_site_label_2
_geom_bond_site_symmetry_1
_geom_bond_site_symmetry_2
Yb1 O1 1_555 1_555
O1 C1 1_555 1_555
O2 Yb1 1_555 1_555
O3 C12 1_555 1_555
O4 Yb1 1_555 1_555
O5 C23 1_555 1_555
O6 Yb1 1_555 1_555
H1 O6 1_555 1_555
H2 O6 1_555 1_555
O7 C1 1_555 1_555
C1 C2 1_555 1_555
C2 C3 1_555 1_555
C3 H3 1_555 1_555
C4 C3 1_555 1_555
H4 C4 1_555 1_555
C5 C4 1_555 1_555
C6 C5 1_555 1_555
H5 C6 1_555 1_555
C7 C6 1_555 1_555
H6 C7 1_555 1_555
C8 C7 1_555 1_555
H7 C8 1_555 1_555
C9 C8 1_555 1_555
H8 C9 1_555 1_555
C10 C5 1_555 1_555
C11 C2 1_555 1_555
H9 C11 1_555 1_555
C12 O2 1_555 1_555
C13 C12 1_555 1_555
C14 C13 1_555 1_555
H10 C14 1_555 1_555
C15 C14 1_555 1_555
H11 C15 1_555 1_555
C16 C15 1_555 1_555
C17 C16 1_555 1_555
H12 C17 1_555 1_555
C18 C17 1_555 1_555
H13 C18 1_555 1_555
C19 C18 1_555 1_555
H14 C19 1_555 1_555
C20 C19 1_555 1_555
H15 C20 1_555 1_555
C21 C16 1_555 1_555
C22 C13 1_555 1_555
H16 C22 1_555 1_555
C23 O4 1_555 1_555
C24 C23 1_555 1_555
H17 C24 1_555 1_555
H18 C24 1_555 1_555
H19 C24 1_555 1_555
Yb1F O3 1_555 1_555
Yb1E O7 1_555 1_555
O3F Yb1 1_555 1_555
O4F Yb1 1_555 1_555
O5F Yb1 1_555 1_555
O7E Yb1 1_555 1_555
O4 Yb1F 1_555 1_555
O5 Yb1F 1_555 1_555
C9 C10 1_555 1_555
C10 C11 1_555 1_555
C20 C21 1_555 1_555
C21 C22 1_555 1_555
Yb1F O4F 1_555 1_555

#END
