
#######################################################################
#
#                 Cambridge Crystallographic Data Centre
#                                CCDC 
#
#######################################################################
#
# If this CIF has been generated from an entry in the Cambridge 
# Structural Database, then it will include bibliographic, chemical, 
# crystal, experimental, refinement or atomic coordinate data resulting 
# from the CCDC's data processing and validation procedures.
#
#######################################################################

data_RAYSOB01
_symmetry_cell_setting           orthorhombic
_symmetry_space_group_name_H-M   'P 21 21 21'
_symmetry_Int_Tables_number      19
_space_group_name_Hall           'P 2ac 2ab'
loop_
_symmetry_equiv_pos_site_id
_symmetry_equiv_pos_as_xyz
1 x,y,z
2 1/2-x,-y,1/2+z
3 1/2+x,1/2-y,-z
4 -x,1/2+y,1/2-z
_cell_length_a                   10.2895(3)
_cell_length_b                   11.3299(4)
_cell_length_c                   16.9699(6)
_cell_angle_alpha                90
_cell_angle_beta                 90
_cell_angle_gamma                90
_cell_volume                     1978.33
loop_
_atom_site_label
_atom_site_type_symbol
_atom_site_fract_x
_atom_site_fract_y
_atom_site_fract_z
Sm1 Sm 0.624023(18) 0.336503(19) 0.710503(11)
Sb1 Sb 0.40254(2) 0.50378(3) 0.383718(15)
Sb2 Sb 0.02955(3) 0.62019(3) 0.572902(16)
O1 O 0.4794(3) 0.4219(3) 0.61724(18)
O2 O 0.4935(2) 0.5044(3) 0.49924(18)
O3 O 0.2721(3) 0.4171(3) 0.44809(16)
O4 O 0.2002(3) 0.5412(3) 0.59428(19)
O5 O -0.0123(3) 0.4377(3) 0.5421(2)
O6 O 0.0629(3) 0.2555(3) 0.5619(2)
O7 O 0.2393(3) 0.1007(3) 0.99163(18)
O8 O 0.3456(3) 0.2231(3) 1.07138(18)
O9 O 0.4443(3) 0.3521(3) 0.95753(16)
O10 O 0.4102(3) 0.3311(3) 0.77050(17)
O11 O 0.2676(3) 0.4681(3) 0.80668(17)
O12 O 0.1583(3) 0.3374(3) 0.91611(16)
O13 O 0.8376(4) 0.2216(4) 0.7064(3)
O14 O 0.8548(4) 0.3991(4) 0.7472(3)
O15 O 1.0251(4) 0.2854(6) 0.7475(3)
O16 O 0.7363(3) 0.3821(4) 0.58736(19)
O17 O 0.5539(3) 0.1694(3) 0.63043(19)
O18 O 0.6329(3) 0.5490(3) 0.7288(2)
O19 O 0.6407(3) 0.3739(3) 0.85015(17)
O20 O 0.6228(3) 0.1395(3) 0.78868(18)
N1 N 0.9106(4) 0.3016(5) 0.7339(2)
C1 C 0.4373(4) 0.4396(4) 0.5497(2)
C2 C 0.3098(4) 0.3841(4) 0.5251(2)
H1 H 0.3206 0.2981 0.5262
C3 C 0.2072(4) 0.4175(4) 0.5869(2)
H2 H 0.2329 0.3839 0.6378
C4 C 0.0782(4) 0.3623(4) 0.5618(2)
C5 C 0.3131(4) 0.1854(4) 1.0024(2)
C6 C 0.3737(4) 0.2522(4) 0.9327(2)
H3 H 0.4332 0.1987 0.9051
C7 C 0.2630(4) 0.2865(4) 0.8756(2)
H4 H 0.2318 0.2143 0.8500
C8 C 0.3193(4) 0.3666(4) 0.8124(2)
Sb1A Sb 0.09746(2) 0.49622(3) 0.883718(15)
Sb2A Sb 0.47045(3) 0.37981(3) 1.072902(16)
O8A O 0.1544(3) 0.7769(3) 0.57138(18)
O9A O 0.0557(3) 0.6479(3) 0.45753(16)
O11A O 0.2324(3) 0.5319(3) 0.30668(17)
O12A O 0.3417(3) 0.6626(3) 0.41611(16)
O21 O 0.2762(4) 0.1173(4) 0.6189(3)
loop_
_geom_bond_atom_site_label_1
_geom_bond_atom_site_label_2
_geom_bond_site_symmetry_1
_geom_bond_site_symmetry_2
Sm1 O1 1_555 1_555
Sb1 O2 1_555 1_555
Sb2 O4 1_555 1_555
O1 C1 1_555 1_555
O2 C1 1_555 1_555
O3 Sb1 1_555 1_555
O4 C3 1_555 1_555
O5 Sb2 1_555 1_555
O6 C4 1_555 1_555
O7 C5 1_555 1_555
O8 C5 1_555 1_555
O9 C6 1_555 1_555
O10 Sm1 1_555 1_555
O11 C8 1_555 1_555
O12 C7 1_555 1_555
O13 Sm1 1_555 1_555
O14 Sm1 1_555 1_555
O15 N1 1_555 1_555
O16 Sm1 1_555 1_555
O17 Sm1 1_555 1_555
O18 Sm1 1_555 1_555
O19 Sm1 1_555 1_555
O20 Sm1 1_555 1_555
N1 O13 1_555 1_555
C1 C2 1_555 1_555
C2 O3 1_555 1_555
H1 C2 1_555 1_555
C3 C2 1_555 1_555
H2 C3 1_555 1_555
C4 O5 1_555 1_555
C5 C6 1_555 1_555
C6 H3 1_555 1_555
C7 C6 1_555 1_555
H4 C7 1_555 1_555
C8 O10 1_555 1_555
Sb1A O11 1_555 1_555
Sb2A O8 1_555 1_555
O8A Sb2 1_555 1_555
O9A Sb2 1_555 1_555
O11A Sb1 1_555 1_555
O12A Sb1 1_555 1_555
O9 Sb2A 1_555 1_555
O12 Sb1A 1_555 1_555
O14 N1 1_555 1_555
C3 C4 1_555 1_555
C7 C8 1_555 1_555

#END
