
#######################################################################
#
#                 Cambridge Crystallographic Data Centre
#                                CCDC 
#
#######################################################################
#
# If this CIF has been generated from an entry in the Cambridge 
# Structural Database, then it will include bibliographic, chemical, 
# crystal, experimental, refinement or atomic coordinate data resulting 
# from the CCDC's data processing and validation procedures.
#
#######################################################################

data_RAYSAN
_symmetry_cell_setting           orthorhombic
_symmetry_space_group_name_H-M   'P 21 21 21'
_symmetry_Int_Tables_number      19
_space_group_name_Hall           'P 2ac 2ab'
loop_
_symmetry_equiv_pos_site_id
_symmetry_equiv_pos_as_xyz
1 x,y,z
2 1/2-x,-y,1/2+z
3 -x,1/2+y,1/2-z
4 1/2+x,1/2-y,-z
_cell_length_a                   10.3004(2)
_cell_length_b                   11.3620(2)
_cell_length_c                   17.1217(3)
_cell_angle_alpha                90
_cell_angle_beta                 90
_cell_angle_gamma                90
_cell_volume                     2003.81
loop_
_atom_site_label
_atom_site_type_symbol
_atom_site_fract_x
_atom_site_fract_y
_atom_site_fract_z
Ce1 Ce 0.37423(2) -0.164899(19) 0.710304(13)
Sb1 Sb 0.96624(3) 0.12054(2) 0.571350(17)
Sb2 Sb 0.59538(3) 0.00427(2) 0.383730(16)
O1 O 0.5039(3) 0.0061(3) 0.49859(19)
O2 O 0.5180(3) -0.0754(3) 0.61524(19)
O3 O 0.7253(3) -0.0825(3) 0.44822(17)
O4 O 0.7966(3) 0.0425(3) 0.59236(19)
O5 O 1.0069(3) -0.0609(3) 0.5407(2)
O6 O 0.9332(4) -0.2424(3) 0.5611(2)
O7 O 0.3627(4) 0.0522(3) 0.7305(2)
O8 O 0.4472(4) -0.3350(3) 0.6293(2)
O9 O 0.3613(3) -0.1267(3) 0.85136(18)
H1 H 0.298(3) -0.147(5) 0.879(3)
H2 H 0.429(3) -0.123(5) 0.878(3)
O10 O 0.3765(3) -0.3639(3) 0.78869(19)
H3 H 0.343(5) -0.357(4) 0.8336(16)
H4 H 0.358(5) -0.431(2) 0.772(3)
O11 O 0.2591(3) -0.1182(4) 0.5859(2)
O13 O 0.6584(3) -0.2766(3) 1.06901(19)
O14 O 0.7627(3) -0.3986(3) 0.99029(19)
O15 O 0.5596(3) -0.1467(2) 0.95731(16)
O16 O 0.8435(3) -0.1619(2) 0.91652(17)
O17 O 0.7350(3) -0.0315(2) 0.80707(18)
O18 O 0.5929(3) -0.1702(3) 0.77107(18)
O19 O 0.1383(4) -0.1039(4) 0.7490(3)
O20 O 0.1557(4) -0.2806(3) 0.7070(3)
O21 O -0.0328(4) -0.2174(6) 0.7466(3)
N1 N 0.0840(4) -0.2022(5) 0.7346(3)
C1 C 0.5590(4) -0.0581(3) 0.5476(3)
C2 C 0.6868(4) -0.1160(3) 0.5241(2)
H7 H 0.6753 -0.2016 0.5252
C3 C 0.7881(4) -0.0823(4) 0.5852(3)
H8 H 0.7624 -0.1156 0.6357
C4 C 0.9170(4) -0.1361(4) 0.5607(3)
C5 C 0.6900(4) -0.3149(3) 1.0014(3)
C6 C 0.6301(4) -0.2469(3) 0.9324(3)
H9 H 0.5702 -0.2997 0.9051
C7 C 0.7404(4) -0.2140(4) 0.8758(2)
H10 H 0.7721 -0.2861 0.8509
C8 C 0.6842(4) -0.1342(4) 0.8127(2)
H11 H 0.5257(13) -0.344(4) 0.619(3)
H12 H 0.401(3) -0.364(5) 0.594(2)
H13 H 0.427(4) 0.085(5) 0.711(3)
H14 H 0.1815(18) -0.101(6) 0.575(4)
H15 H 0.307(4) -0.088(5) 0.552(3)
H16 H 0.353(7) 0.072(7) 0.7771(16)
Sb1A Sb 0.53376(3) -0.12054(2) 1.071350(17)
Sb2A Sb 0.90462(3) -0.00427(2) 0.883730(16)
O13A O 0.8416(3) 0.2766(3) 0.56901(19)
O15A O 0.9404(3) 0.1467(2) 0.45731(16)
O16A O 0.6565(3) 0.1619(2) 0.41652(17)
O17A O 0.7650(3) 0.0315(2) 0.30707(18)
O12 O 0.2752(4) 0.1146(4) 0.8817(3)
H5 H 0.206(3) 0.150(5) 0.894(3)
H6 H 0.331(3) 0.127(5) 0.916(2)
loop_
_geom_bond_atom_site_label_1
_geom_bond_atom_site_label_2
_geom_bond_site_symmetry_1
_geom_bond_site_symmetry_2
Ce1 O2 1_555 1_555
Sb1 O4 1_555 1_555
Sb2 O1 1_555 1_555
O1 C1 1_555 1_555
O2 C1 1_555 1_555
O3 Sb2 1_555 1_555
O4 C3 1_555 1_555
O5 Sb1 1_555 1_555
O6 C4 1_555 1_555
O7 Ce1 1_555 1_555
O8 Ce1 1_555 1_555
O9 Ce1 1_555 1_555
H1 O9 1_555 1_555
H2 O9 1_555 1_555
O10 Ce1 1_555 1_555
H3 O10 1_555 1_555
H4 O10 1_555 1_555
O11 Ce1 1_555 1_555
O12 H5 1_555 1_555
H6 O12 1_555 1_555
O13 C5 1_555 1_555
O14 C5 1_555 1_555
O15 C6 1_555 1_555
O16 C7 1_555 1_555
O17 C8 1_555 1_555
O18 Ce1 1_555 1_555
O19 Ce1 1_555 1_555
O20 Ce1 1_555 1_555
O21 N1 1_555 1_555
N1 O19 1_555 1_555
C1 C2 1_555 1_555
C2 O3 1_555 1_555
H7 C2 1_555 1_555
C3 C2 1_555 1_555
H8 C3 1_555 1_555
C4 O5 1_555 1_555
C5 C6 1_555 1_555
C6 H9 1_555 1_555
C7 C6 1_555 1_555
H10 C7 1_555 1_555
C8 O18 1_555 1_555
H11 O8 1_555 1_555
H12 O8 1_555 1_555
H13 O7 1_555 1_555
H14 O11 1_555 1_555
H15 O11 1_555 1_555
H16 O7 1_555 1_555
Sb1A O13 1_555 1_555
Sb2A O16 1_555 1_555
O13A Sb1 1_555 1_555
O15A Sb1 1_555 1_555
O16A Sb2 1_555 1_555
O17A Sb2 1_555 1_555
O15 Sb1A 1_555 1_555
O17 Sb2A 1_555 1_555
O20 N1 1_555 1_555
C3 C4 1_555 1_555
C7 C8 1_555 1_555

#END
