
#######################################################################
#
#                 Cambridge Crystallographic Data Centre
#                                CCDC 
#
#######################################################################
#
# If this CIF has been generated from an entry in the Cambridge 
# Structural Database, then it will include bibliographic, chemical, 
# crystal, experimental, refinement or atomic coordinate data resulting 
# from the CCDC's data processing and validation procedures.
#
#######################################################################

data_RAYSER01
_symmetry_cell_setting           orthorhombic
_symmetry_space_group_name_H-M   'P 21 21 21'
_symmetry_Int_Tables_number      19
_space_group_name_Hall           'P 2ac 2ab'
loop_
_symmetry_equiv_pos_site_id
_symmetry_equiv_pos_as_xyz
1 x,y,z
2 1/2-x,-y,1/2+z
3 1/2+x,1/2-y,-z
4 -x,1/2+y,1/2-z
_cell_length_a                   10.3041(5)
_cell_length_b                   11.3683(5)
_cell_length_c                   17.0918(8)
_cell_angle_alpha                90
_cell_angle_beta                 90
_cell_angle_gamma                90
_cell_volume                     2002.14
loop_
_atom_site_label
_atom_site_type_symbol
_atom_site_fract_x
_atom_site_fract_y
_atom_site_fract_z
Pr1 Pr 0.625299(19) 0.335659(18) 0.710392(13)
Sb1 Sb 0.40398(2) 0.50407(2) 0.383781(16)
Sb2 Sb 0.03262(3) 0.62048(2) 0.571773(16)
O1 O 0.4812(3) 0.4239(3) 0.61602(18)
O2 O 0.4951(2) 0.5054(3) 0.49843(18)
O3 O 0.2742(3) 0.4172(2) 0.44797(16)
O4 O 0.2031(3) 0.5422(2) 0.59313(18)
O5 O -0.0084(3) 0.4388(3) 0.54041(19)
O6 O 0.0657(3) 0.2569(3) 0.5607(2)
O7 O 0.2379(3) 0.1015(3) 0.99044(19)
O8 O 0.3425(3) 0.2235(3) 1.06955(18)
O9 O 0.4417(3) 0.3527(3) 0.95739(16)
O10 O 0.4080(3) 0.3309(3) 0.77057(17)
O11 O 0.2663(3) 0.4685(2) 0.80724(18)
O12 O 0.1567(3) 0.3376(2) 0.91610(17)
O13 O 0.8422(3) 0.2200(3) 0.7061(3)
O14 O 0.8585(4) 0.3964(4) 0.7488(3)
O15 O 1.0299(4) 0.2840(5) 0.7471(3)
O16 O 0.7397(3) 0.3827(3) 0.58635(19)
O17 O 0.5530(3) 0.1658(3) 0.62944(18)
O18 O 0.6354(3) 0.5521(3) 0.7305(2)
O19 O 0.6389(3) 0.3735(3) 0.85164(17)
O20 O 0.6242(3) 0.1371(2) 0.78898(18)
N1 N 0.9138(4) 0.2999(5) 0.7344(2)
C1 C 0.4396(4) 0.4407(3) 0.5490(2)
C2 C 0.3117(4) 0.3846(4) 0.5241(2)
H1 H 0.3226 0.2990 0.5253
C3 C 0.2101(4) 0.4181(3) 0.5855(2)
H2 H 0.2360 0.3845 0.6360
C4 C 0.0813(4) 0.3637(4) 0.5612(2)
C5 C 0.3109(4) 0.1858(3) 1.0010(3)
C6 C 0.3716(4) 0.2529(3) 0.9325(2)
H3 H 0.4316 0.1999 0.9054
C7 C 0.2612(4) 0.2865(4) 0.8751(2)
H4 H 0.2301 0.2146 0.8497
C8 C 0.3165(4) 0.3668(4) 0.8128(2)
Sb1A Sb 0.09602(2) 0.49593(2) 0.883781(16)
Sb2A Sb 0.46738(3) 0.37952(2) 1.071773(16)
O8A O 0.1575(3) 0.7765(3) 0.56955(18)
O9A O 0.0583(3) 0.6473(3) 0.45739(16)
O11A O 0.2337(3) 0.5315(2) 0.30724(18)
O12A O 0.3433(3) 0.6624(2) 0.41610(17)
O21 O 0.2764(4) 0.1167(3) 0.6176(3)
loop_
_geom_bond_atom_site_label_1
_geom_bond_atom_site_label_2
_geom_bond_site_symmetry_1
_geom_bond_site_symmetry_2
Pr1 O1 1_555 1_555
Sb1 O2 1_555 1_555
Sb2 O4 1_555 1_555
O1 C1 1_555 1_555
O2 C1 1_555 1_555
O3 Sb1 1_555 1_555
O4 C3 1_555 1_555
O5 Sb2 1_555 1_555
O6 C4 1_555 1_555
O7 C5 1_555 1_555
O8 C5 1_555 1_555
O9 C6 1_555 1_555
O10 Pr1 1_555 1_555
O11 C8 1_555 1_555
O12 C7 1_555 1_555
O13 Pr1 1_555 1_555
O14 Pr1 1_555 1_555
O15 N1 1_555 1_555
O16 Pr1 1_555 1_555
O17 Pr1 1_555 1_555
O18 Pr1 1_555 1_555
O19 Pr1 1_555 1_555
O20 Pr1 1_555 1_555
N1 O13 1_555 1_555
C1 C2 1_555 1_555
C2 O3 1_555 1_555
H1 C2 1_555 1_555
C3 C2 1_555 1_555
H2 C3 1_555 1_555
C4 O5 1_555 1_555
C5 C6 1_555 1_555
C6 H3 1_555 1_555
C7 C6 1_555 1_555
H4 C7 1_555 1_555
C8 O10 1_555 1_555
Sb1A O11 1_555 1_555
Sb2A O8 1_555 1_555
O8A Sb2 1_555 1_555
O9A Sb2 1_555 1_555
O11A Sb1 1_555 1_555
O12A Sb1 1_555 1_555
O9 Sb2A 1_555 1_555
O12 Sb1A 1_555 1_555
O14 N1 1_555 1_555
C3 C4 1_555 1_555
C7 C8 1_555 1_555

#END
