
#######################################################################
#
#                 Cambridge Crystallographic Data Centre
#                                CCDC 
#
#######################################################################
#
# If this CIF has been generated from an entry in the Cambridge 
# Structural Database, then it will include bibliographic, chemical, 
# crystal, experimental, refinement or atomic coordinate data resulting 
# from the CCDC's data processing and validation procedures.
#
#######################################################################

data_RAYSIV01
_symmetry_cell_setting           orthorhombic
_symmetry_space_group_name_H-M   'P 21 21 21'
_symmetry_Int_Tables_number      19
_space_group_name_Hall           'P 2ac 2ab'
loop_
_symmetry_equiv_pos_site_id
_symmetry_equiv_pos_as_xyz
1 x,y,z
2 1/2-x,-y,1/2+z
3 1/2+x,1/2-y,-z
4 -x,1/2+y,1/2-z
_cell_length_a                   10.2946(6)
_cell_length_b                   11.3515(7)
_cell_length_c                   17.0396(10)
_cell_angle_alpha                90
_cell_angle_beta                 90
_cell_angle_gamma                90
_cell_volume                     1991.23
loop_
_atom_site_label
_atom_site_type_symbol
_atom_site_fract_x
_atom_site_fract_y
_atom_site_fract_z
Nd1 Nd 0.62487(3) 0.33600(2) 0.710459(15)
Sb1 Sb 0.40358(3) 0.50390(3) 0.383791(19)
Sb2 Sb 0.03159(4) 0.62038(3) 0.57223(2)
O1 O 0.4813(4) 0.4232(4) 0.6165(2)
O2 O 0.4944(4) 0.5054(3) 0.4987(2)
O3 O 0.2731(4) 0.4172(3) 0.44809(19)
O4 O 0.2020(4) 0.5416(3) 0.5938(2)
O5 O -0.0083(4) 0.4383(3) 0.5414(2)
O6 O 0.0665(4) 0.2565(4) 0.5616(3)
O7 O 0.2384(4) 0.1014(3) 0.9906(2)
O8 O 0.3436(4) 0.2233(3) 1.0703(2)
O9 O 0.4428(4) 0.3529(3) 0.95752(19)
O10 O 0.4093(4) 0.3307(4) 0.7710(2)
O11 O 0.2658(4) 0.4682(3) 0.8073(2)
O12 O 0.1569(4) 0.3373(3) 0.9158(2)
O13 O 0.8410(5) 0.2209(4) 0.7060(3)
O14 O 0.8578(5) 0.3973(5) 0.7482(3)
O15 O 1.0284(5) 0.2846(6) 0.7471(3)
O16 O 0.7390(4) 0.3824(4) 0.5860(2)
O17 O 0.5541(4) 0.1667(4) 0.6293(2)
O18 O 0.6342(4) 0.5517(3) 0.7299(2)
O19 O 0.6383(4) 0.3733(4) 0.8515(2)
O20 O 0.6238(4) 0.1379(3) 0.7890(2)
N1 N 0.9135(6) 0.3011(6) 0.7344(3)
C1 C 0.4391(5) 0.4410(5) 0.5488(3)
C2 C 0.3123(5) 0.3841(5) 0.5245(3)
H1 H 0.3237 0.2984 0.5255
C3 C 0.2090(5) 0.4174(5) 0.5863(3)
H2 H 0.2345 0.3838 0.6369
C4 C 0.0803(5) 0.3636(5) 0.5617(3)
C5 C 0.3127(5) 0.1857(4) 1.0013(3)
C6 C 0.3731(5) 0.2525(4) 0.9328(3)
H3 H 0.4330 0.1996 0.9053
C7 C 0.2608(5) 0.2860(5) 0.8757(3)
H4 H 0.2297 0.2139 0.8503
C8 C 0.3162(5) 0.3668(5) 0.8126(3)
Sb1A Sb 0.09642(3) 0.49610(3) 0.883791(19)
Sb2A Sb 0.46841(4) 0.37962(3) 1.07223(2)
O8A O 0.1564(4) 0.7767(3) 0.5703(2)
O9A O 0.0572(4) 0.6471(3) 0.45752(19)
O11A O 0.2342(4) 0.5318(3) 0.3073(2)
O12A O 0.3431(4) 0.6627(3) 0.4158(2)
O21 O 0.2756(5) 0.1169(4) 0.6177(3)
loop_
_geom_bond_atom_site_label_1
_geom_bond_atom_site_label_2
_geom_bond_site_symmetry_1
_geom_bond_site_symmetry_2
Nd1 O1 1_555 1_555
Sb1 O2 1_555 1_555
Sb2 O4 1_555 1_555
O1 C1 1_555 1_555
O2 C1 1_555 1_555
O3 Sb1 1_555 1_555
O4 C3 1_555 1_555
O5 Sb2 1_555 1_555
O6 C4 1_555 1_555
O7 C5 1_555 1_555
O8 C5 1_555 1_555
O9 C6 1_555 1_555
O10 Nd1 1_555 1_555
O11 C8 1_555 1_555
O12 C7 1_555 1_555
O13 Nd1 1_555 1_555
O14 Nd1 1_555 1_555
O15 N1 1_555 1_555
O16 Nd1 1_555 1_555
O17 Nd1 1_555 1_555
O18 Nd1 1_555 1_555
O19 Nd1 1_555 1_555
O20 Nd1 1_555 1_555
N1 O13 1_555 1_555
C1 C2 1_555 1_555
C2 O3 1_555 1_555
H1 C2 1_555 1_555
C3 C2 1_555 1_555
H2 C3 1_555 1_555
C4 O5 1_555 1_555
C5 C6 1_555 1_555
C6 H3 1_555 1_555
C7 C6 1_555 1_555
H4 C7 1_555 1_555
C8 O10 1_555 1_555
Sb1A O11 1_555 1_555
Sb2A O8 1_555 1_555
O8A Sb2 1_555 1_555
O9A Sb2 1_555 1_555
O11A Sb1 1_555 1_555
O12A Sb1 1_555 1_555
O9 Sb2A 1_555 1_555
O12 Sb1A 1_555 1_555
O14 N1 1_555 1_555
C3 C4 1_555 1_555
C7 C8 1_555 1_555

#END
