
#######################################################################
#
#                 Cambridge Crystallographic Data Centre
#                                CCDC 
#
#######################################################################
#
# If this CIF has been generated from an entry in the Cambridge 
# Structural Database, then it will include bibliographic, chemical, 
# crystal, experimental, refinement or atomic coordinate data resulting 
# from the CCDC's data processing and validation procedures.
#
#######################################################################

data_RAYSOB
_symmetry_cell_setting           orthorhombic
_symmetry_space_group_name_H-M   'P 21 21 21'
_symmetry_Int_Tables_number      19
_space_group_name_Hall           'P 2ac 2ab'
loop_
_symmetry_equiv_pos_site_id
_symmetry_equiv_pos_as_xyz
1 x,y,z
2 1/2-x,-y,1/2+z
3 -x,1/2+y,1/2-z
4 1/2+x,1/2-y,-z
_cell_length_a                   10.2768(11)
_cell_length_b                   11.3448(14)
_cell_length_c                   16.951(2)
_cell_angle_alpha                90
_cell_angle_beta                 90
_cell_angle_gamma                90
_cell_volume                     1976.29
loop_
_atom_site_label
_atom_site_type_symbol
_atom_site_fract_x
_atom_site_fract_y
_atom_site_fract_z
Sm1 Sm 0.62408(2) 0.33647(2) -0.289470(13)
Sb1 Sb 0.02955(3) 0.62022(3) -0.427130(19)
Sb2 Sb 0.40270(3) 0.50385(3) -0.616340(18)
O1 O 0.4940(3) 0.5052(3) -0.5004(2)
O2 O 0.6329(4) 0.5498(3) -0.2707(2)
H1 H 0.647(5) 0.590(4) -0.2299(19)
H2 H 0.575(4) 0.583(4) -0.298(2)
O3 O 0.5541(4) 0.1692(4) -0.3689(2)
O4 O 0.4799(3) 0.4212(4) -0.3827(2)
O5 O 0.2718(3) 0.4174(3) -0.55159(19)
O6 O 0.6402(4) 0.3741(4) -0.1504(2)
O7 O 0.6220(4) 0.1397(3) -0.2113(2)
H3 H 0.641(5) 0.078(3) -0.235(2)
H4 H 0.661(5) 0.142(4) -0.1677(16)
O8 O 0.1998(3) 0.5418(3) -0.4059(2)
O9 O 0.7352(4) 0.3810(4) -0.4128(2)
H5 H 0.811(3) 0.406(6) -0.423(4)
H6 H 0.685(5) 0.408(6) -0.448(3)
O10 O -0.0113(3) 0.4387(3) -0.4576(2)
O11 O 0.0641(4) 0.2560(4) -0.4379(2)
O13 O 0.3455(3) 0.2230(3) 0.0712(2)
O14 O 0.2393(3) 0.1007(3) -0.0083(2)
O15 O 0.4438(3) 0.3531(3) -0.04253(18)
O16 O 0.1584(3) 0.3382(3) -0.08367(19)
O17 O 0.2676(3) 0.4683(3) -0.19413(19)
O18 O 0.4112(3) 0.3306(4) -0.22965(19)
O19 O 0.8548(4) 0.3998(5) -0.2524(3)
O20 O 0.8377(4) 0.2208(4) -0.2940(3)
O21 O 1.0260(4) 0.2852(6) -0.2528(3)
N1 N 0.9100(4) 0.3010(5) -0.2665(3)
C1 C 0.4384(4) 0.4411(4) -0.4510(3)
C2 C 0.3104(4) 0.3827(5) -0.4749(3)
H9 H 0.3215 0.2969 -0.4739
C3 C 0.2080(5) 0.4177(5) -0.4136(3)
H10 H 0.2339 0.3847 -0.3625
C4 C 0.0787(5) 0.3616(5) -0.4380(3)
C5 C 0.3128(4) 0.1847(4) 0.0021(3)
C6 C 0.3732(4) 0.2527(4) -0.0670(3)
H11 H 0.4333 0.1998 -0.0945
C7 C 0.2623(4) 0.2856(5) -0.1248(3)
H12 H 0.2307 0.2135 -0.1503
C8 C 0.3189(5) 0.3666(4) -0.1879(3)
H13 H 0.4769(17) 0.154(5) -0.381(3)
H14 H 0.605(4) 0.135(5) -0.401(3)
H15 H 0.704(4) 0.357(7) -0.121(3)
H16 H 0.571(3) 0.373(7) -0.124(3)
Sb1A Sb 0.47045(3) 0.37978(3) 0.072870(19)
Sb2A Sb 0.09730(3) 0.49615(3) -0.116340(18)
O13A O 0.1545(3) 0.7770(3) -0.4288(2)
O15A O 0.0562(3) 0.6469(3) -0.54253(18)
O16A O 0.3416(3) 0.6618(3) -0.58367(19)
O17A O 0.2324(3) 0.5317(3) -0.69413(19)
O12 O 0.7225(4) 0.6164(4) -0.1184(3)
H7 H 0.761(5) 0.559(4) -0.140(4)
H8 H 0.778(4) 0.661(4) -0.097(3)
loop_
_geom_bond_atom_site_label_1
_geom_bond_atom_site_label_2
_geom_bond_site_symmetry_1
_geom_bond_site_symmetry_2
Sm1 O2 1_555 1_555
Sb1 O8 1_555 1_555
Sb2 O1 1_555 1_555
O1 C1 1_555 1_555
O2 H1 1_555 1_555
H2 O2 1_555 1_555
O3 Sm1 1_555 1_555
O4 Sm1 1_555 1_555
O5 Sb2 1_555 1_555
O6 Sm1 1_555 1_555
O7 Sm1 1_555 1_555
H3 O7 1_555 1_555
H4 O7 1_555 1_555
O8 C3 1_555 1_555
O9 Sm1 1_555 1_555
H5 O9 1_555 1_555
H6 O9 1_555 1_555
O10 Sb1 1_555 1_555
O11 C4 1_555 1_555
O12 H7 1_555 1_555
H8 O12 1_555 1_555
O13 C5 1_555 1_555
O14 C5 1_555 1_555
O15 C6 1_555 1_555
O16 C7 1_555 1_555
O17 C8 1_555 1_555
O18 Sm1 1_555 1_555
O19 Sm1 1_555 1_555
O20 Sm1 1_555 1_555
O21 N1 1_555 1_555
N1 O19 1_555 1_555
C1 O4 1_555 1_555
C2 O5 1_555 1_555
H9 C2 1_555 1_555
C3 C2 1_555 1_555
H10 C3 1_555 1_555
C4 O10 1_555 1_555
C5 C6 1_555 1_555
C6 H11 1_555 1_555
C7 C6 1_555 1_555
H12 C7 1_555 1_555
C8 O18 1_555 1_555
H13 O3 1_555 1_555
H14 O3 1_555 1_555
H15 O6 1_555 1_555
H16 O6 1_555 1_555
Sb1A O13 1_555 1_555
Sb2A O16 1_555 1_555
O13A Sb1 1_555 1_555
O15A Sb1 1_555 1_555
O16A Sb2 1_555 1_555
O17A Sb2 1_555 1_555
O15 Sb1A 1_555 1_555
O17 Sb2A 1_555 1_555
O20 N1 1_555 1_555
C1 C2 1_555 1_555
C3 C4 1_555 1_555
C7 C8 1_555 1_555

#END
