
#######################################################################
#
#                 Cambridge Crystallographic Data Centre
#                                CCDC 
#
#######################################################################
#
# If this CIF has been generated from an entry in the Cambridge 
# Structural Database, then it will include bibliographic, chemical, 
# crystal, experimental, refinement or atomic coordinate data resulting 
# from the CCDC's data processing and validation procedures.
#
#######################################################################

data_RAYTAO
_symmetry_cell_setting           orthorhombic
_symmetry_space_group_name_H-M   'P 21 21 21'
_symmetry_Int_Tables_number      19
_space_group_name_Hall           'P 2ac 2ab'
loop_
_symmetry_equiv_pos_site_id
_symmetry_equiv_pos_as_xyz
1 x,y,z
2 1/2-x,-y,1/2+z
3 -x,1/2+y,1/2-z
4 1/2+x,1/2-y,-z
_cell_length_a                   10.2558(2)
_cell_length_b                   11.2753(3)
_cell_length_c                   16.7882(4)
_cell_angle_alpha                90
_cell_angle_beta                 90
_cell_angle_gamma                90
_cell_volume                     1941.34
loop_
_atom_site_label
_atom_site_type_symbol
_atom_site_fract_x
_atom_site_fract_y
_atom_site_fract_z
Dy1 Dy -0.122341(18) 0.337344(17) 0.789391(12)
Sb1 Sb 0.02587(3) 0.38009(3) 0.425942(18)
Sb2 Sb 0.40062(3) 0.49639(2) 0.616447(17)
O1 O -0.1296(3) 0.5460(3) 0.7722(2)
H1 H -0.176(3) 0.567(4) 0.8111(19)
H2 H -0.061(2) 0.586(3) 0.772(3)
O2 O -0.1419(3) 0.3738(3) 0.65302(19)
H3 H -0.075(3) 0.366(5) 0.625(2)
H4 H -0.209(3) 0.356(5) 0.627(2)
O3 O -0.1209(3) 0.1430(2) 0.7099(2)
H5 H -0.145(4) 0.084(3) 0.7353(19)
H6 H -0.143(4) 0.139(3) 0.6621(9)
O4 O -0.2305(3) 0.3802(3) 0.9124(2)
H7 H -0.208(4) 0.448(2) 0.896(3)
H8 H -0.300(3) 0.389(4) 0.940(3)
O5 O -0.0559(3) 0.1745(3) 0.8675(2)
H9 H -0.105(3) 0.140(4) 0.900(2)
H10 H 0.0216(14) 0.159(5) 0.878(3)
O6 O 0.2299(3) 0.4685(3) 0.69500(18)
O7 O 0.0531(3) 0.3521(3) 0.54198(18)
O8 O 0.1518(3) 0.2225(3) 0.4272(2)
O9 O 0.5153(3) 0.4374(3) 0.9568(2)
O10 O -0.3517(4) 0.4022(4) 0.7541(3)
O11 O 0.4393(3) 0.2543(3) 0.9379(2)
O12 O 0.0223(3) 0.4188(3) 0.8813(2)
O13 O 0.2304(3) 0.4159(3) 1.05181(18)
O14 O 0.0082(3) 0.5042(3) 0.99915(19)
O15 O 0.0858(3) 0.3297(3) 0.72939(18)
O16 O 0.3044(3) 0.5409(3) 0.9047(2)
O17 O 0.3399(3) 0.3370(3) 0.58343(18)
O18 O -0.5220(4) 0.2856(5) 0.7527(3)
O19 O -0.3320(3) 0.2237(3) 0.7936(3)
O20 O 0.2579(3) 0.0999(3) 0.5074(2)
N1 N -0.4052(4) 0.3036(4) 0.7666(3)
C1 C 0.4247(4) 0.3607(4) 0.9374(3)
C2 C 0.2966(4) 0.4161(4) 0.9122(3)
H11 H 0.2711 0.3826 0.8606
C3 C 0.2347(4) 0.2847(4) 0.6244(3)
H12 H 0.2664 0.2123 0.6502
C4 C 0.1776(4) 0.3647(4) 0.6880(3)
C5 C 0.1252(4) 0.2504(4) 0.5668(3)
H13 H 0.0656 0.1964 0.5945
C6 C 0.0650(4) 0.4386(4) 0.9495(3)
C7 C 0.1929(4) 0.3829(4) 0.9741(3)
H14 H 0.1821 0.2965 0.9731
C8 C 0.1837(4) 0.1851(4) 0.4966(3)
Sb1A Sb 0.47413(3) 0.61991(3) 0.925942(18)
Sb2A Sb 0.09938(3) 0.50361(2) 1.116447(17)
O9A O -0.0153(3) 0.5626(3) 0.4568(2)
O13A O 0.2696(3) 0.5841(3) 0.55181(18)
O14A O 0.4918(3) 0.4958(3) 0.49915(19)
O16A O 0.1956(3) 0.4591(3) 0.4047(2)
O21 O -0.2232(4) 0.6167(4) 0.6193(3)
H15 H -0.225(5) 0.584(5) 0.6642(17)
H16 H -0.285(4) 0.665(4) 0.616(3)
loop_
_geom_bond_atom_site_label_1
_geom_bond_atom_site_label_2
_geom_bond_site_symmetry_1
_geom_bond_site_symmetry_2
Dy1 O1 1_555 1_555
Sb1 O7 1_555 1_555
Sb2 O6 1_555 1_555
O1 H1 1_555 1_555
H2 O1 1_555 1_555
O2 Dy1 1_555 1_555
H3 O2 1_555 1_555
H4 O2 1_555 1_555
O3 Dy1 1_555 1_555
H5 O3 1_555 1_555
H6 O3 1_555 1_555
O4 Dy1 1_555 1_555
H7 O4 1_555 1_555
H8 O4 1_555 1_555
O5 Dy1 1_555 1_555
H9 O5 1_555 1_555
H10 O5 1_555 1_555
O6 C4 1_555 1_555
O7 C5 1_555 1_555
O8 Sb1 1_555 1_555
O9 C1 1_555 1_555
O10 Dy1 1_555 1_555
O11 C1 1_555 1_555
O12 Dy1 1_555 1_555
O13 C7 1_555 1_555
O14 C6 1_555 1_555
O15 Dy1 1_555 1_555
O16 C2 1_555 1_555
O17 Sb2 1_555 1_555
O18 N1 1_555 1_555
O19 Dy1 1_555 1_555
O20 C8 1_555 1_555
N1 O10 1_555 1_555
C1 C2 1_555 1_555
C2 H11 1_555 1_555
C3 O17 1_555 1_555
H12 C3 1_555 1_555
C4 O15 1_555 1_555
C5 C3 1_555 1_555
H13 C5 1_555 1_555
C6 O12 1_555 1_555
C7 C2 1_555 1_555
H14 C7 1_555 1_555
C8 O8 1_555 1_555
O21 H15 1_555 1_555
H16 O21 1_555 1_555
Sb1A O9 1_555 1_555
Sb2A O13 1_555 1_555
O9A Sb1 1_555 1_555
O13A Sb2 1_555 1_555
O14A Sb2 1_555 1_555
O16A Sb1 1_555 1_555
O14 Sb2A 1_555 1_555
O16 Sb1A 1_555 1_555
O19 N1 1_555 1_555
C3 C4 1_555 1_555
C5 C8 1_555 1_555
C6 C7 1_555 1_555

#END
