
#######################################################################
#
#                 Cambridge Crystallographic Data Centre
#                                CCDC 
#
#######################################################################
#
# If this CIF has been generated from an entry in the Cambridge 
# Structural Database, then it will include bibliographic, chemical, 
# crystal, experimental, refinement or atomic coordinate data resulting 
# from the CCDC's data processing and validation procedures.
#
#######################################################################

data_RAYTER
_symmetry_cell_setting           monoclinic
_symmetry_space_group_name_H-M   'P 21'
_symmetry_Int_Tables_number      4
_space_group_name_Hall           'P 2yb'
loop_
_symmetry_equiv_pos_site_id
_symmetry_equiv_pos_as_xyz
1 x,y,z
2 -x,1/2+y,-z
_cell_length_a                   11.1005(11)
_cell_length_b                   11.1138(11)
_cell_length_c                   12.3051(13)
_cell_angle_alpha                90
_cell_angle_beta                 110.710(2)
_cell_angle_gamma                90
_cell_volume                     1419.97
loop_
_atom_site_label
_atom_site_type_symbol
_atom_site_fract_x
_atom_site_fract_y
_atom_site_fract_z
Cu1 Cu 0.50934(3) 0.63348(4) 0.75242(2)
O1 O 0.44086(17) 0.70853(16) 0.59540(15)
O2 O 0.57291(17) 0.55036(16) 0.90650(15)
O3 O -0.0185(2) 0.79217(19) 0.5222(2)
N1 N 0.4026(2) 1.00484(19) 0.30842(18)
O4 O 1.0195(2) 0.45638(19) 0.9859(2)
O5 O 0.87983(19) 0.34179(17) 1.03074(19)
N2 N 0.9033(2) 0.7653(2) 1.0826(2)
H1 H 0.9398 0.8321 1.0715
C1 C 0.1961(3) 0.4854(3) 0.3730(2)
H2 H 0.2220 0.4111 0.3499
C2 C 0.1200(2) 0.7000(2) 0.4406(2)
N3 N 0.5843(2) 0.25775(19) 1.18936(18)
C3 C 0.7145(2) 0.4477(2) 1.1300(2)
O6 O 0.6989(2) 0.7516(2) 0.8194(2)
O7 O 0.2960(2) 0.5102(2) 0.6878(2)
N4 N 0.1037(2) 0.4868(2) 0.41866(19)
H3 H 0.0680 0.4187 0.4280
O8 O 0.1186(2) 0.90933(18) 0.4751(2)
C4 C 0.8844(2) 0.5526(2) 1.0672(2)
C5 C 0.7838(2) 0.5560(2) 1.1108(2)
C6 C 0.2192(2) 0.6997(2) 0.3956(2)
O9 O 0.53313(19) 0.89031(17) 0.64686(16)
C7 C 0.2836(2) 0.8109(2) 0.3750(2)
C8 C 0.9412(2) 0.6605(2) 1.0546(2)
H4 H 1.0093 0.6591 1.0248
C9 C 0.0707(2) 0.8111(2) 0.4808(2)
C10 C 0.9303(2) 0.4395(2) 1.0260(2)
C11 C 0.0646(3) 0.5904(2) 0.4505(2)
H5 H -0.0032 0.5891 0.4807
C12 C 0.7488(2) 0.6671(2) 1.1438(2)
H6 H 0.6836 0.6716 1.1770
C13 C 0.8098(3) 0.7705(3) 1.1278(2)
H7 H 0.7852 0.8462 1.1491
C14 C 0.2545(3) 0.5908(3) 0.3590(3)
H8 H 0.3187 0.5894 0.3245
C15 C 0.4623(2) 0.8180(2) 0.5749(2)
C16 C 0.5083(2) 0.4945(2) 0.9563(2)
C17 C 0.3962(2) 0.8613(2) 0.4520(2)
C18 C 0.5856(2) 0.4245(2) 1.0640(2)
C19 C 0.5251(2) 0.3288(2) 1.0983(2)
H9 H 0.4370 0.3135 1.0545
C20 C 0.2912(3) 0.9597(3) 0.2362(3)
H10 H 0.2526 0.9953 0.1617
O10 O 0.38827(18) 0.4900(2) 0.92342(17)
C21 C 0.7088(3) 0.2810(3) 1.2513(2)
H11 H 0.7525 0.2312 1.3160
C22 C 0.4508(3) 0.9589(2) 0.4150(2)
H12 H 0.5263 0.9945 0.4687
C23 C 0.2304(3) 0.8642(3) 0.2654(2)
H13 H 0.1521 0.8343 0.2110
C24 C 0.7752(3) 0.3742(3) 1.2244(2)
H14 H 0.8628 0.3881 1.2707
H16 H 0.314(4) 0.503(3) 0.750(3)
H20 H 0.671(4) 0.807(4) 0.780(4)
H21 H 0.752(4) 0.741(4) 0.796(4)
H22 H 0.296(6) 0.432(6) 0.661(5)
Cu1A Cu 0.49066(3) 1.13348(4) 0.24758(2)
Cu1A_2 Cu 0.49066(3) 0.13348(4) 1.24758(2)
N1A N 0.5974(2) 0.50484(19) 0.69158(18)
N3A N 0.4157(2) 0.75775(19) 0.81064(18)
O11 O 0.9266(3) 0.7295(3) 0.7744(3)
O12 O 0.6787(4) 0.1624(3) 0.9260(3)
H18 H 0.675(4) 0.120(4) 0.974(4)
H23 H 0.733(6) 0.221(6) 0.948(6)
O13 O 0.0434(4) 0.5271(3) 0.7220(3)
O14 O 0.3035(3) 0.2902(2) 0.5837(3)
H17 H 0.239(5) 0.259(4) 0.568(4)
H19 H 0.349(5) 0.242(5) 0.616(5)
O15 O 0.4715(2) 0.1204(3) 0.7225(2)
H15 H 0.528(2) 0.128(3) 0.779(2)
loop_
_geom_bond_atom_site_label_1
_geom_bond_atom_site_label_2
_geom_bond_site_symmetry_1
_geom_bond_site_symmetry_2
Cu1 O1 1_555 1_555
O1 C15 1_555 1_555
O2 Cu1 1_555 1_555
O3 C9 1_555 1_555
N1 C20 1_555 1_555
O4 C10 1_555 1_555
O5 C10 1_555 1_555
N2 H1 1_555 1_555
C1 H2 1_555 1_555
C2 C6 1_555 1_555
N3 C19 1_555 1_555
C3 C5 1_555 1_555
O6 Cu1 1_555 1_555
O7 Cu1 1_555 1_555
N4 C1 1_555 1_555
H3 N4 1_555 1_555
O8 C9 1_555 1_555
C4 C5 1_555 1_555
C5 C12 1_555 1_555
C6 C7 1_555 1_555
O9 C15 1_555 1_555
C7 C17 1_555 1_555
C8 N2 1_555 1_555
H4 C8 1_555 1_555
C9 C2 1_555 1_555
C10 C4 1_555 1_555
C11 C2 1_555 1_555
H5 C11 1_555 1_555
C12 H6 1_555 1_555
C13 N2 1_555 1_555
H7 C13 1_555 1_555
C14 C1 1_555 1_555
H8 C14 1_555 1_555
C15 C17 1_555 1_555
C16 O2 1_555 1_555
C17 C22 1_555 1_555
C18 C3 1_555 1_555
C19 C18 1_555 1_555
H9 C19 1_555 1_555
C20 H10 1_555 1_555
O10 C16 1_555 1_555
C21 N3 1_555 1_555
H11 C21 1_555 1_555
C22 N1 1_555 1_555
H12 C22 1_555 1_555
C23 C7 1_555 1_555
H13 C23 1_555 1_555
C24 C3 1_555 1_555
H14 C24 1_555 1_555
O12 H18 1_555 1_555
O14 H17 1_555 1_555
O15 H15 1_555 1_555
H16 O7 1_555 1_555
H19 O14 1_555 1_555
H20 O6 1_555 1_555
H21 O6 1_555 1_555
H22 O7 1_555 1_555
H23 O12 1_555 1_555
Cu1A N1 1_555 1_555
Cu1A_2 N3 1_555 1_555
N1A Cu1 1_555 1_555
N3A Cu1 1_555 1_555
N4 C11 1_555 1_555
C4 C8 1_555 1_555
C6 C14 1_555 1_555
C12 C13 1_555 1_555
C16 C18 1_555 1_555
C20 C23 1_555 1_555
C21 C24 1_555 1_555

#END
