
#######################################################################
#
#                 Cambridge Crystallographic Data Centre
#                                CCDC 
#
#######################################################################
#
# If this CIF has been generated from an entry in the Cambridge 
# Structural Database, then it will include bibliographic, chemical, 
# crystal, experimental, refinement or atomic coordinate data resulting 
# from the CCDC's data processing and validation procedures.
#
#######################################################################

data_RAYVIY
_symmetry_cell_setting           orthorhombic
_symmetry_space_group_name_H-M   'P b c n'
_symmetry_Int_Tables_number      60
_space_group_name_Hall           '-P 2n 2ab'
loop_
_symmetry_equiv_pos_site_id
_symmetry_equiv_pos_as_xyz
1 x,y,z
2 1/2-x,1/2-y,1/2+z
3 1/2+x,1/2-y,-z
4 -x,y,1/2-z
5 -x,-y,-z
6 1/2+x,1/2+y,1/2-z
7 1/2-x,1/2+y,z
8 x,-y,1/2+z
_cell_length_a                   12.147(5)
_cell_length_b                   18.899(5)
_cell_length_c                   19.449(5)
_cell_angle_alpha                90
_cell_angle_beta                 90
_cell_angle_gamma                90
_cell_volume                     4464.83
loop_
_atom_site_label
_atom_site_type_symbol
_atom_site_fract_x
_atom_site_fract_y
_atom_site_fract_z
Cu1 Cu 0.47328(3) 0.00762(2) 0.086069(17)
Cu2 Cu 0.5000 0.01207(3) 0.2500
Cu3 Cu 0.29463(3) -0.06018(2) -0.022310(17)
O1 O 0.31367(16) 0.00527(11) 0.05457(10)
N1 N 0.4557(3) -0.0523(2) 0.17543(16)
O2 O 0.36061(18) 0.00684(11) -0.08700(9)
N2 N 0.5267(3) 0.1439(3) 0.3273(2)
N3 N 0.1816(2) -0.10712(15) 0.03350(12)
N4 N 0.2690(2) -0.12600(14) -0.10001(13)
N5 N 0.4723(2) 0.12919(16) -0.01417(15)
C1 C 0.2439(3) -0.03115(19) -0.18035(15)
C2 C 0.1060(3) -0.07135(19) 0.06464(15)
C3 C 0.2419(4) -0.1599(2) -0.21939(19)
H1 H 0.2498 -0.2067 -0.2008
H2 H 0.1706 -0.1553 -0.2403
H3 H 0.2979 -0.1519 -0.2533
N6 N 0.5235(3) 0.0810(3) 0.32489(19)
C4 C 0.2852(3) 0.0928(2) -0.16151(17)
H4 H 0.3221 0.1280 -0.1372
C5 C 0.2224(2) 0.04007(18) 0.07325(14)
C6 C 0.2284(3) 0.11122(18) 0.09044(16)
H5 H 0.2966 0.1335 0.0900
C7 C 0.2723(3) -0.2153(2) -0.0071(2)
H6 H 0.2742 -0.2659 0.0012
H7 H 0.3385 -0.1950 0.0126
C8 C 0.1178(3) 0.00549(19) 0.07526(15)
C9 C 0.1646(3) 0.0595(2) -0.25295(19)
H8 H 0.1187 0.0719 -0.2893
C10 C 0.2532(3) -0.10646(19) -0.16273(15)
N7 N 0.4279(3) 0.17831(19) -0.03222(19)
C11 C 0.2981(2) 0.02239(17) -0.14206(15)
N8 N 0.4088(8) -0.1704(4) 0.1776(4)
N9 N 0.5217(2) 0.07722(17) 0.0039(2)
C12 C 0.2726(3) -0.20230(18) -0.08357(19)
H9 H 0.2094 -0.2255 -0.1040
H10 H 0.3384 -0.2229 -0.1034
C13 C 0.2187(3) 0.1116(2) -0.21615(19)
H11 H 0.2104 0.1590 -0.2281
C14 C 0.0036(3) -0.1078(3) 0.0915(2)
H12 H 0.0071 -0.1574 0.0810
H13 H -0.0010 -0.1016 0.1404
H14 H -0.0603 -0.0876 0.0702
C15 C 0.1784(3) -0.0102(2) -0.23611(17)
H15 H 0.1434 -0.0446 -0.2624
C16 C 0.1733(3) -0.1843(2) 0.02883(18)
H16 H 0.1677 -0.2041 0.0747
H17 H 0.1071 -0.1969 0.0037
C17 C 0.1367(3) 0.1498(2) 0.10807(17)
H18 H 0.1432 0.1974 0.1194
C18 C 0.0259(3) 0.0471(2) 0.09310(18)
H19 H -0.0432 0.0259 0.0942
N10 N 0.5318(4) 0.2037(3) 0.3323(3)
C19 C 0.0345(3) 0.1173(2) 0.10883(19)
H20 H -0.0281 0.1432 0.1200
N11 N 0.4330(4) -0.1132(3) 0.1776(2)
Cu1C Cu 0.52672(3) 0.00762(2) 0.413931(17)
Cu1D Cu 0.52672(3) -0.00762(2) -0.086069(17)
Cu3D Cu 0.70537(3) 0.06018(2) 0.022310(17)
O1D O 0.68633(16) -0.00527(11) -0.05457(10)
O1C O 0.68633(16) 0.00527(11) 0.44543(10)
N1C N 0.5443(3) -0.0523(2) 0.32457(16)
O2D O 0.63939(18) -0.00684(11) 0.08700(9)
O2G O 0.36061(18) -0.00684(11) 0.41300(9)
N2C N 0.4733(3) 0.1439(3) 0.1727(2)
N3D N 0.8184(2) 0.10712(15) -0.03350(12)
N4D N 0.7310(2) 0.12600(14) 0.10001(13)
N5D N 0.5277(2) -0.12919(16) 0.01417(15)
C1D C 0.7561(3) 0.03115(19) 0.18035(15)
C2D C 0.8940(3) 0.07135(19) -0.06464(15)
C3D C 0.7581(4) 0.1599(2) 0.21939(19)
H1D H 0.7502 0.2067 0.2008
H2D H 0.8294 0.1553 0.2403
H3D H 0.7021 0.1519 0.2533
N6C N 0.4765(3) 0.0810(3) 0.17511(19)
C4D C 0.7148(3) -0.0928(2) 0.16151(17)
H4D H 0.6779 -0.1280 0.1372
C5D C 0.7776(2) -0.04007(18) -0.07325(14)
C6D C 0.7716(3) -0.11122(18) -0.09044(16)
H5D H 0.7034 -0.1335 -0.0900
C7D C 0.7277(3) 0.2153(2) 0.0071(2)
H6D H 0.7258 0.2659 -0.0012
H7D H 0.6615 0.1950 -0.0126
C8D C 0.8822(3) -0.00549(19) -0.07526(15)
C9D C 0.8354(3) -0.0595(2) 0.25295(19)
H8D H 0.8813 -0.0719 0.2893
C10D C 0.7468(3) 0.10646(19) 0.16273(15)
N7D N 0.5721(3) -0.17831(19) 0.03222(19)
C11D C 0.7019(2) -0.02239(17) 0.14206(15)
N8C N 0.5912(8) -0.1704(4) 0.3224(4)
N9D N 0.4783(2) -0.07722(17) -0.0039(2)
N9C N 0.4783(2) 0.07722(17) 0.4961(2)
N9G N 0.5217(2) -0.07722(17) 0.5039(2)
C12D C 0.7274(3) 0.20230(18) 0.08357(19)
H9D H 0.7906 0.2255 0.1040
H10D H 0.6616 0.2229 0.1034
C13D C 0.7813(3) -0.1116(2) 0.21615(19)
H11D H 0.7896 -0.1590 0.2281
C14D C 0.9964(3) 0.1078(3) -0.0915(2)
H12D H 0.9929 0.1574 -0.0810
H13D H 1.0010 0.1016 -0.1404
H14D H 1.0603 0.0876 -0.0702
C15D C 0.8216(3) 0.0102(2) 0.23611(17)
H15D H 0.8566 0.0446 0.2624
C16D C 0.8267(3) 0.1843(2) -0.02883(18)
H16D H 0.8323 0.2041 -0.0747
H17D H 0.8929 0.1969 -0.0037
C17D C 0.8633(3) -0.1498(2) -0.10807(17)
H18D H 0.8568 -0.1974 -0.1194
C18D C 0.9741(3) -0.0471(2) -0.09310(18)
H19D H 1.0432 -0.0259 -0.0942
N10C N 0.4682(4) 0.2037(3) 0.1677(3)
C19D C 0.9655(3) -0.1173(2) -0.10883(19)
H20D H 1.0281 -0.1432 -0.1200
N11C N 0.5670(4) -0.1132(3) 0.3224(2)
loop_
_geom_bond_atom_site_label_1
_geom_bond_atom_site_label_2
_geom_bond_site_symmetry_1
_geom_bond_site_symmetry_2
Cu1 O1 1_555 1_555
Cu2 N1 1_555 1_555
Cu3 O1 1_555 1_555
O1 C5 1_555 1_555
N1 Cu1 1_555 1_555
O2 Cu3 1_555 1_555
N2 N6 1_555 1_555
N3 Cu3 1_555 1_555
N4 Cu3 1_555 1_555
N5 N7 1_555 1_555
C1 C10 1_555 1_555
C2 N3 1_555 1_555
C3 H1 1_555 1_555
H2 C3 1_555 1_555
H3 C3 1_555 1_555
N6 Cu2 1_555 1_555
C4 H4 1_555 1_555
C5 C6 1_555 1_555
C6 H5 1_555 1_555
C7 H6 1_555 1_555
H7 C7 1_555 1_555
C8 C2 1_555 1_555
C9 H8 1_555 1_555
C10 N4 1_555 1_555
C11 O2 1_555 1_555
N8 N11 1_555 1_555
N9 Cu1 1_555 1_555
C12 N4 1_555 1_555
H9 C12 1_555 1_555
H10 C12 1_555 1_555
C13 C4 1_555 1_555
H11 C13 1_555 1_555
C14 C2 1_555 1_555
H12 C14 1_555 1_555
H13 C14 1_555 1_555
H14 C14 1_555 1_555
C15 C1 1_555 1_555
H15 C15 1_555 1_555
C16 N3 1_555 1_555
H16 C16 1_555 1_555
H17 C16 1_555 1_555
C17 C6 1_555 1_555
H18 C17 1_555 1_555
C18 C8 1_555 1_555
H19 C18 1_555 1_555
N10 N2 1_555 1_555
C19 C17 1_555 1_555
H20 C19 1_555 1_555
N11 N1 1_555 1_555
Cu1C N6 1_555 1_555
Cu1D O2 1_555 1_555
Cu3D N9 1_555 1_555
O1D Cu1D 1_555 1_555
O1C Cu1C 1_555 1_555
N1C Cu2 1_555 1_555
O2D Cu1 1_555 1_555
O2G Cu1C 1_555 1_555
N2C N6C 1_555 1_555
N3D Cu3D 1_555 1_555
N4D Cu3D 1_555 1_555
N5D N7D 1_555 1_555
C1D C10D 1_555 1_555
C2D N3D 1_555 1_555
C3D H1D 1_555 1_555
H2D C3D 1_555 1_555
H3D C3D 1_555 1_555
N6C Cu1 1_555 1_555
C4D H4D 1_555 1_555
C5D O1D 1_555 1_555
C6D C5D 1_555 1_555
H5D C6D 1_555 1_555
C7D H6D 1_555 1_555
H7D C7D 1_555 1_555
C8D C2D 1_555 1_555
C9D H8D 1_555 1_555
C10D N4D 1_555 1_555
C11D O2D 1_555 1_555
N8C N11C 1_555 1_555
N9D Cu1 1_555 1_555
N9C Cu1C 1_555 1_555
N9G Cu1C 1_555 1_555
C12D N4D 1_555 1_555
H9D C12D 1_555 1_555
H10D C12D 1_555 1_555
C13D C4D 1_555 1_555
H11D C13D 1_555 1_555
C14D C2D 1_555 1_555
H12D C14D 1_555 1_555
H13D C14D 1_555 1_555
H14D C14D 1_555 1_555
C15D C1D 1_555 1_555
H15D C15D 1_555 1_555
C16D N3D 1_555 1_555
H16D C16D 1_555 1_555
H17D C16D 1_555 1_555
C17D C6D 1_555 1_555
H18D C17D 1_555 1_555
C18D C8D 1_555 1_555
H19D C18D 1_555 1_555
N10C N2C 1_555 1_555
C19D C17D 1_555 1_555
H20D C19D 1_555 1_555
N11C N1C 1_555 1_555
Cu2 N6C 1_555 1_555
Cu3 N9D 1_555 1_555
N5 N9 1_555 1_555
C1 C11 1_555 1_555
C3 C10 1_555 1_555
C4 C11 1_555 1_555
C5 C8 1_555 1_555
C7 C12 1_555 1_555
C7 C16 1_555 1_555
C9 C13 1_555 1_555
C9 C15 1_555 1_555
N9 Cu1D 1_555 1_555
C18 C19 1_555 1_555
Cu1C N1C 1_555 1_555
Cu1D N9D 1_555 1_555
Cu3D O1D 1_555 1_555
Cu3D O2D 1_555 1_555
N5D N9D 1_555 1_555
C1D C11D 1_555 1_555
C3D C10D 1_555 1_555
C4D C11D 1_555 1_555
C5D C8D 1_555 1_555
C7D C12D 1_555 1_555
C7D C16D 1_555 1_555
C9D C13D 1_555 1_555
C9D C15D 1_555 1_555
C18D C19D 1_555 1_555

#END
