
#######################################################################
#
#                 Cambridge Crystallographic Data Centre
#                                CCDC 
#
#######################################################################
#
# If this CIF has been generated from an entry in the Cambridge 
# Structural Database, then it will include bibliographic, chemical, 
# crystal, experimental, refinement or atomic coordinate data resulting 
# from the CCDC's data processing and validation procedures.
#
#######################################################################

data_RAYVES
_symmetry_cell_setting           orthorhombic
_symmetry_space_group_name_H-M   'P b c n'
_symmetry_Int_Tables_number      60
_space_group_name_Hall           '-P 2n 2ab'
loop_
_symmetry_equiv_pos_site_id
_symmetry_equiv_pos_as_xyz
1 x,y,z
2 1/2-x,1/2-y,1/2+z
3 1/2+x,1/2-y,-z
4 -x,y,1/2-z
5 -x,-y,-z
6 1/2+x,1/2+y,1/2-z
7 1/2-x,1/2+y,z
8 x,-y,1/2+z
_cell_length_a                   29.880(6)
_cell_length_b                   8.526(2)
_cell_length_c                   14.720(3)
_cell_angle_alpha                90
_cell_angle_beta                 90
_cell_angle_gamma                90
_cell_volume                     3750.02
loop_
_atom_site_label
_atom_site_type_symbol
_atom_site_fract_x
_atom_site_fract_y
_atom_site_fract_z
Zn1 Zn 0.24027(3) 0.1104(1) 0.78013(6)
Zn2 Zn 0.24759(3) 0.0791(1) 1.01317(6)
P1 P 0.20140(6) -0.1743(2) 0.8988(1)
P2 P 0.30551(7) 0.1476(2) 0.6207(1)
O1 O 0.2038(2) -0.0839(7) 0.9870(4)
O2 O 0.2086(2) -0.0782(7) 0.8153(4)
O3 O 0.2370(1) -0.3094(6) 0.8987(4)
O4 O 0.0330(3) -0.109(1) 0.920(1)
O5 O 0.0554(3) -0.336(1) 0.879(1)
O6 O 0.2941(2) 0.0706(6) 0.7115(4)
O7 O 0.3031(2) 0.0267(7) 0.5450(4)
O8 O 0.2755(2) 0.2883(6) 0.6059(4)
O9 O 0.4749(3) 0.042(1) 0.636(1)
O10 O 0.4525(3) 0.278(1) 0.603(1)
N1 N 0.1942(2) 0.2321(8) 0.7082(5)
C1 C 0.1483(3) 0.227(1) 0.7407(7)
C2 C 0.1396(4) 0.297(1) 0.8252(8)
C3 C 0.0948(4) 0.299(2) 0.857(1)
C4 C 0.0616(5) 0.232(2) 0.807(1)
C5 C 0.0710(4) 0.158(2) 0.725(1)
C6 C 0.1155(3) 0.155(1) 0.6899(9)
C7 C 0.1466(2) -0.264(1) 0.8953(7)
C8 C 0.1102(3) -0.140(1) 0.9017(9)
C9 C 0.0645(3) -0.207(1) 0.898(1)
C10 C 0.3628(3) 0.216(1) 0.6243(6)
C11 C 0.3970(3) 0.085(1) 0.6347(8)
C12 C 0.4444(4) 0.146(1) 0.626(1)
O3F O 0.2630(1) 0.1906(6) 0.8987(4)
O7G O 0.3031(2) -0.0267(7) 1.0450(4)
O8A O 0.2245(2) 0.2117(6) 1.1059(4)
Zn1F Zn 0.25973(3) -0.3896(1) 0.78013(6)
Zn2F Zn 0.25241(3) -0.4209(1) 1.01317(6)
Zn2G Zn 0.24759(3) -0.0791(1) 0.51317(6)
Zn2A Zn 0.25241(3) 0.4209(1) 0.51317(6)
loop_
_geom_bond_atom_site_label_1
_geom_bond_atom_site_label_2
_geom_bond_site_symmetry_1
_geom_bond_site_symmetry_2
Zn1 O2 1_555 1_555
Zn2 O1 1_555 1_555
P1 O1 1_555 1_555
P2 O6 1_555 1_555
O2 P1 1_555 1_555
O3 P1 1_555 1_555
O4 C9 1_555 1_555
O5 C9 1_555 1_555
O6 Zn1 1_555 1_555
O7 P2 1_555 1_555
O8 P2 1_555 1_555
O9 C12 1_555 1_555
O10 C12 1_555 1_555
N1 Zn1 1_555 1_555
C1 N1 1_555 1_555
C2 C1 1_555 1_555
C3 C2 1_555 1_555
C4 C3 1_555 1_555
C5 C4 1_555 1_555
C6 C1 1_555 1_555
C7 P1 1_555 1_555
C8 C7 1_555 1_555
C9 C8 1_555 1_555
C10 P2 1_555 1_555
C11 C10 1_555 1_555
C12 C11 1_555 1_555
O3F Zn1 1_555 1_555
O7G Zn2 1_555 1_555
O8A Zn2 1_555 1_555
Zn1F O3 1_555 1_555
Zn2F O3 1_555 1_555
Zn2G O7 1_555 1_555
Zn2A O8 1_555 1_555
Zn2 O3F 1_555 1_555
C5 C6 1_555 1_555

#END
