
#######################################################################
#
#                 Cambridge Crystallographic Data Centre
#                                CCDC 
#
#######################################################################
#
# If this CIF has been generated from an entry in the Cambridge 
# Structural Database, then it will include bibliographic, chemical, 
# crystal, experimental, refinement or atomic coordinate data resulting 
# from the CCDC's data processing and validation procedures.
#
#######################################################################

data_RAZBUQ01
_symmetry_cell_setting           monoclinic
_symmetry_space_group_name_H-M   'C 2/c'
_symmetry_Int_Tables_number      15
_space_group_name_Hall           '-C 2yn'
loop_
_symmetry_equiv_pos_site_id
_symmetry_equiv_pos_as_xyz
1 x,y,z
2 1/2+x,1/2+y,z
3 -x,y,1/2-z
4 1/2-x,1/2+y,1/2-z
5 -x,-y,-z
6 1/2-x,1/2-y,-z
7 x,-y,1/2+z
8 1/2+x,1/2-y,1/2+z
_cell_length_a                   11.8361(2)
_cell_length_b                   15.0533(3)
_cell_length_c                   13.7717(3)
_cell_angle_alpha                90
_cell_angle_beta                 97.2519(7)
_cell_angle_gamma                90
_cell_volume                     2434.11
loop_
_atom_site_label
_atom_site_type_symbol
_atom_site_fract_x
_atom_site_fract_y
_atom_site_fract_z
Cu1 Cu 0.2500 0.7500 0.5000
O1 O 0.09941(14) 0.75261(12) 0.42036(13)
Cu2 Cu 0.0000 0.75003(3) 0.2500
O2 O -0.08346(14) 0.75047(12) 0.36595(13)
C1 C -0.0050(2) 0.74838(18) 0.4416(2)
O3 O -0.02951(15) 0.74299(13) 0.52722(14)
N1 N 0.0000 0.6170(2) 0.2500
C2 C -0.0954(2) 0.57124(19) 0.2582(2)
C3 C -0.0981(2) 0.47943(19) 0.2583(2)
C4 C 0.000000(7) 0.4324(3) 0.250000(7)
N2 N 0.0000 0.8824(2) 0.2500
C5 C 0.0909(2) 0.92821(19) 0.2920(2)
C6 C 0.0936(2) 1.01986(19) 0.2941(2)
C7 C 0.000000(7) 1.0667(3) 0.250000(7)
O4 O 0.16658(16) 0.72170(13) 0.64930(14)
N3 N 0.25448(18) 0.61551(15) 0.48207(16)
C8 C 0.3454(2) 0.57466(19) 0.4531(2)
C9 C 0.3526(2) 0.48368(19) 0.4429(2)
C10 C 0.2630(3) 0.4315(2) 0.4641(2)
C11 C 0.1688(2) 0.4725(2) 0.4942(2)
C12 C 0.1669(2) 0.56383(19) 0.5021(2)
H1 H -0.1615 0.6032 0.2653
H2 H -0.1665 0.4506 0.2653
H3 H 0.0000 0.3698 0.2500
H4 H 0.1545 0.8945 0.3215
H5 H 0.1599 1.0506 0.3265
H6 H 0.0000 1.1287 0.2500
H7 H 0.4062 0.6112 0.4411
H8 H 0.4176 0.4581 0.4213
H9 H 0.2671 0.3696 0.4582
H10 H 0.1063 0.4386 0.5098
H11 H 0.1017 0.5930 0.5217
H14 H 0.1011 0.7181 0.6245
H15 H 0.1739 0.7411 0.7047
O1E O 0.40059(14) 0.74739(12) 0.57964(13)
O1B O -0.09941(14) 0.75261(12) 0.07964(13)
Cu2E Cu 0.5000 0.74997(3) 0.7500
O2E O 0.58346(14) 0.74953(12) 0.63405(13)
O2B O 0.08346(14) 0.75047(12) 0.13405(13)
C1E C 0.5050(2) 0.75162(18) 0.5584(2)
O3E O 0.52951(15) 0.75701(13) 0.47278(14)
C2B C 0.0954(2) 0.57124(19) 0.2418(2)
C3B C 0.0981(2) 0.47943(19) 0.2417(2)
C5B C -0.0909(2) 0.92821(19) 0.2080(2)
C6B C -0.0936(2) 1.01986(19) 0.2059(2)
O4E O 0.33342(16) 0.77830(13) 0.35070(14)
N3E N 0.24552(18) 0.88449(15) 0.51793(16)
C8E C 0.1546(2) 0.92534(19) 0.5469(2)
C9E C 0.1474(2) 1.01632(19) 0.5571(2)
C10E C 0.2370(3) 1.0685(2) 0.5359(2)
C11E C 0.3312(2) 1.0275(2) 0.5058(2)
C12E C 0.3331(2) 0.93617(19) 0.4979(2)
H1B H 0.1615 0.6032 0.2347
H2B H 0.1665 0.4506 0.2347
H4B H -0.1545 0.8945 0.1785
H5B H -0.1599 1.0506 0.1735
H7E H 0.0938 0.8888 0.5589
H8E H 0.0824 1.0419 0.5787
H9E H 0.2329 1.1304 0.5418
H10E H 0.3937 1.0614 0.4902
H11E H 0.3983 0.9070 0.4783
H14E H 0.3989 0.7819 0.3755
H15E H 0.3261 0.7589 0.2953
O5 O 0.18747(16) 0.78091(13) 0.84303(14)
H12 H 0.1489 0.7684 0.8880
H13 H 0.2548 0.7715 0.8614
loop_
_geom_bond_atom_site_label_1
_geom_bond_atom_site_label_2
_geom_bond_site_symmetry_1
_geom_bond_site_symmetry_2
Cu1 O1 1_555 1_555
O1 Cu2 1_555 1_555
Cu2 O2 1_555 1_555
O2 C1 1_555 1_555
C1 O1 1_555 1_555
O3 C1 1_555 1_555
N1 Cu2 1_555 1_555
C2 N1 1_555 1_555
C3 C2 1_555 1_555
C4 C3 1_555 1_555
N2 Cu2 1_555 1_555
C5 N2 1_555 1_555
C6 C5 1_555 1_555
C7 C6 1_555 1_555
O4 Cu1 1_555 1_555
N3 Cu1 1_555 1_555
C8 N3 1_555 1_555
C9 C8 1_555 1_555
C10 C9 1_555 1_555
C11 C10 1_555 1_555
C12 N3 1_555 1_555
O5 H12 1_555 1_555
H1 C2 1_555 1_555
H2 C3 1_555 1_555
H3 C4 1_555 1_555
H4 C5 1_555 1_555
H5 C6 1_555 1_555
H6 C7 1_555 1_555
H7 C8 1_555 1_555
H8 C9 1_555 1_555
H9 C10 1_555 1_555
H10 C11 1_555 1_555
H11 C12 1_555 1_555
H13 O5 1_555 1_555
H14 O4 1_555 1_555
H15 O4 1_555 1_555
O1E Cu1 1_555 1_555
O1B Cu2 1_555 1_555
Cu2E O1E 1_555 1_555
O2E Cu2E 1_555 1_555
O2B Cu2 1_555 1_555
C1E O1E 1_555 1_555
O3E C1E 1_555 1_555
C2B N1 1_555 1_555
C3B C4 1_555 1_555
C5B N2 1_555 1_555
C6B C7 1_555 1_555
O4E Cu1 1_555 1_555
N3E Cu1 1_555 1_555
C8E N3E 1_555 1_555
C9E C8E 1_555 1_555
C10E C9E 1_555 1_555
C11E C10E 1_555 1_555
C12E N3E 1_555 1_555
H1B C2B 1_555 1_555
H2B C3B 1_555 1_555
H4B C5B 1_555 1_555
H5B C6B 1_555 1_555
H7E C8E 1_555 1_555
H8E C9E 1_555 1_555
H9E C10E 1_555 1_555
H10E C11E 1_555 1_555
H11E C12E 1_555 1_555
H14E O4E 1_555 1_555
H15E O4E 1_555 1_555
C11 C12 1_555 1_555
O2E C1E 1_555 1_555
C2B C3B 1_555 1_555
C5B C6B 1_555 1_555
C11E C12E 1_555 1_555

#END
