
#######################################################################
#
#                 Cambridge Crystallographic Data Centre
#                                CCDC 
#
#######################################################################
#
# If this CIF has been generated from an entry in the Cambridge 
# Structural Database, then it will include bibliographic, chemical, 
# crystal, experimental, refinement or atomic coordinate data resulting 
# from the CCDC's data processing and validation procedures.
#
#######################################################################

data_RAZBAW
_symmetry_cell_setting           orthorhombic
_symmetry_space_group_name_H-M   'C m c a'
_symmetry_Int_Tables_number      64
_space_group_name_Hall           '-C 2bc 2'
loop_
_symmetry_equiv_pos_site_id
_symmetry_equiv_pos_as_xyz
1 x,y,z
2 1/2+x,1/2+y,z
3 1/2-x,-y,1/2+z
4 x,-y,-z
5 1/2-x,y,1/2-z
6 -x,1/2-y,1/2+z
7 1/2+x,1/2-y,-z
8 -x,1/2+y,1/2-z
9 -x,-y,-z
10 1/2-x,1/2-y,-z
11 1/2+x,y,1/2-z
12 -x,y,z
13 1/2+x,-y,1/2+z
14 x,1/2+y,1/2-z
15 1/2-x,1/2+y,z
16 x,1/2-y,1/2+z
_cell_length_a                   27.808(3)
_cell_length_b                   7.0973(8)
_cell_length_c                   14.710(2)
_cell_angle_alpha                90
_cell_angle_beta                 90
_cell_angle_gamma                90
_cell_volume                     2903.19
loop_
_atom_site_label
_atom_site_type_symbol
_atom_site_fract_x
_atom_site_fract_y
_atom_site_fract_z
Ag1 Ag 0.50000 0.35201(3) 0.627408(10)
Cl1 Cl 0.50000 0.15916(7) 0.37474(3)
O1 O 0.50000 0.2816(3) 0.45344(11)
O2 O 0.50000 0.2757(3) 0.29388(11)
O3 O 0.45803(6) 0.0430(3) 0.37574(9)
N1 N 0.41988(6) 0.3766(2) 0.62177(8)
C1 C 0.39436(6) 0.2796(3) 0.55998(11)
C2 C 0.34456(6) 0.2801(3) 0.55789(12)
C3 C 0.32021(7) 0.3858(3) 0.62242(11)
C4 C 0.26817(8) 0.3907(3) 0.62321(12)
N2 N 0.22704(7) 0.3937(3) 0.62357(11)
C5 C 0.34617(6) 0.4888(3) 0.68600(12)
C6 C 0.39590(6) 0.4804(3) 0.68323(12)
H1 H 0.4126(6) 0.205(3) 0.5158(13)
H2 H 0.3276(7) 0.208(3) 0.5140(14)
H3 H 0.3323(8) 0.551(4) 0.7272(16)
H4 H 0.4143(7) 0.548(4) 0.7253(14)
Ag1O Ag 0.50000 0.14799(3) 0.127408(10)
O2O O 0.50000 0.2243(3) 0.79388(11)
O3K O 0.54197(6) 0.0430(3) 0.37574(9)
N1K N 0.58012(6) 0.3766(2) 0.62177(8)
C1K C 0.60564(6) 0.2796(3) 0.55998(11)
C2K C 0.65544(6) 0.2801(3) 0.55789(12)
C3K C 0.67979(7) 0.3858(3) 0.62242(11)
C4K C 0.73183(8) 0.3907(3) 0.62321(12)
N2K N 0.77296(7) 0.3937(3) 0.62357(11)
C5K C 0.65383(6) 0.4888(3) 0.68600(12)
C6K C 0.60410(6) 0.4804(3) 0.68323(12)
H1K H 0.5874(6) 0.205(3) 0.5158(13)
H2K H 0.6724(7) 0.208(3) 0.5140(14)
H3K H 0.6677(8) 0.551(4) 0.7272(16)
H4K H 0.5857(7) 0.548(4) 0.7253(14)
loop_
_geom_bond_atom_site_label_1
_geom_bond_atom_site_label_2
_geom_bond_site_symmetry_1
_geom_bond_site_symmetry_2
Ag1 O1 1_555 1_555
Cl1 O1 1_555 1_555
O2 Cl1 1_555 1_555
O3 Cl1 1_555 1_555
N1 Ag1 1_555 1_555
C1 N1 1_555 1_555
C2 C1 1_555 1_555
C3 C2 1_555 1_555
C4 C3 1_555 1_555
N2 C4 1_555 1_555
C5 C3 1_555 1_555
C6 N1 1_555 1_555
H1 C1 1_555 1_555
H2 C2 1_555 1_555
H3 C5 1_555 1_555
H4 C6 1_555 1_555
Ag1O O2 1_555 1_555
O2O Ag1 1_555 1_555
O3K Cl1 1_555 1_555
N1K Ag1 1_555 1_555
C1K N1K 1_555 1_555
C2K C1K 1_555 1_555
C3K C2K 1_555 1_555
C4K C3K 1_555 1_555
N2K C4K 1_555 1_555
C5K C3K 1_555 1_555
C6K N1K 1_555 1_555
H1K C1K 1_555 1_555
H2K C2K 1_555 1_555
H3K C5K 1_555 1_555
H4K C6K 1_555 1_555
C5 C6 1_555 1_555
C5K C6K 1_555 1_555

#END
