
#######################################################################
#
#                 Cambridge Crystallographic Data Centre
#                                CCDC 
#
#######################################################################
#
# If this CIF has been generated from an entry in the Cambridge 
# Structural Database, then it will include bibliographic, chemical, 
# crystal, experimental, refinement or atomic coordinate data resulting 
# from the CCDC's data processing and validation procedures.
#
#######################################################################

data_RAZBUQ
_symmetry_cell_setting           monoclinic
_symmetry_space_group_name_H-M   'C 2/c'
_symmetry_Int_Tables_number      15
_space_group_name_Hall           '-C 2yn'
loop_
_symmetry_equiv_pos_site_id
_symmetry_equiv_pos_as_xyz
1 x,y,z
2 1/2+x,1/2+y,z
3 -x,y,1/2-z
4 1/2-x,1/2+y,1/2-z
5 -x,-y,-z
6 1/2-x,1/2-y,-z
7 x,-y,1/2+z
8 1/2+x,1/2-y,1/2+z
_cell_length_a                   11.8293(7)
_cell_length_b                   15.0410(9)
_cell_length_c                   13.7610(8)
_cell_angle_alpha                90
_cell_angle_beta                 97.2860(10)
_cell_angle_gamma                90
_cell_volume                     2428.65
loop_
_atom_site_label
_atom_site_type_symbol
_atom_site_fract_x
_atom_site_fract_y
_atom_site_fract_z
Cu1 Cu 0.75000 0.25000 0.50000
N1 N 0.74575(10) 0.38463(8) 0.51793(8)
C1 C 0.83300(13) 0.43615(10) 0.49818(12)
C2 C 0.83169(15) 0.52743(11) 0.50592(12)
C3 C 0.73722(16) 0.56872(11) 0.53606(13)
C4 C 0.64730(14) 0.51638(11) 0.55718(11)
C5 C 0.65444(13) 0.42506(10) 0.54723(11)
Cu2 Cu 0.50000 0.249991(17) 0.25000
N2 N 0.50000 0.38242(11) 0.25000
C6 C 0.59106(13) 0.42810(10) 0.29221(10)
C7 C 0.59356(13) 0.51978(11) 0.29398(11)
C8 C 0.50000 0.56683(15) 0.25000
N3 N 0.50000 0.11696(11) 0.25000
C9 C 0.59580(14) 0.07116(10) 0.24196(12)
C10 C 0.59872(14) -0.02060(11) 0.24170(13)
C11 C 0.50000 -0.06771(16) 0.25000
C12 C 0.49506(11) 0.24846(10) 0.44142(10)
O1 O 0.59931(8) 0.25243(7) 0.42053(7)
O2 O 0.41632(8) 0.25002(7) 0.36595(7)
O3 O 0.47034(9) 0.24296(8) 0.52746(8)
O4 O 0.83374(11) 0.27830(9) 0.35084(9)
H1 H 0.8976(15) 0.4048(12) 0.4795(13)
H2 H 0.8961(16) 0.5611(13) 0.4917(15)
H3 H 0.7353(14) 0.6247(13) 0.5385(13)
H4 H 0.5816(16) 0.5414(12) 0.5789(14)
H5 H 0.5933(14) 0.3868(12) 0.5577(13)
H6 H 0.6510(14) 0.3944(11) 0.3198(12)
H7 H 0.6570(15) 0.5499(12) 0.3259(14)
H8 H 0.50000 0.6211(16) 0.25000
H9 H 0.6601(14) 0.1050(12) 0.2375(12)
H10 H 0.6657(16) -0.0491(13) 0.2366(14)
H11 H 0.50000 -0.1235(17) 0.25000
H12 H 0.899(3) 0.2729(17) 0.379(2)
H13 H 0.8243(18) 0.2572(12) 0.2949(17)
N1E N 0.75425(10) 0.11537(8) 0.48207(8)
C1E C 0.66700(13) 0.06385(10) 0.50182(12)
C2E C 0.66831(15) -0.02743(11) 0.49408(12)
C3E C 0.76278(16) -0.06872(11) 0.46394(13)
C4E C 0.85270(14) -0.01638(11) 0.44282(11)
C5E C 0.84556(13) 0.07494(10) 0.45277(11)
Cu2G Cu 1.00000 0.250009(17) 0.75000
C6B C 0.40894(13) 0.42810(10) 0.20779(10)
C7B C 0.40644(13) 0.51978(11) 0.20602(11)
C9B C 0.40420(14) 0.07116(10) 0.25804(12)
C10B C 0.40128(14) -0.02060(11) 0.25830(13)
C12E C 1.00494(11) 0.25154(10) 0.55858(10)
O1E O 0.90069(8) 0.24757(7) 0.57947(7)
O1B O 0.40069(8) 0.25243(7) 0.07947(7)
O2E O 1.08368(8) 0.24998(7) 0.63405(7)
O2B O 0.58368(8) 0.25002(7) 0.13405(7)
O3E O 1.02966(9) 0.25704(8) 0.47254(8)
O4E O 0.66626(11) 0.22170(9) 0.64916(9)
H1E H 0.6024(15) 0.0952(12) 0.5205(13)
H2E H 0.6039(16) -0.0611(13) 0.5083(15)
H3E H 0.7647(14) -0.1247(13) 0.4615(13)
H4E H 0.9184(16) -0.0414(12) 0.4211(14)
H5E H 0.9067(14) 0.1132(12) 0.4423(13)
H6B H 0.3490(14) 0.3944(11) 0.1802(12)
H7B H 0.3430(15) 0.5499(12) 0.1741(14)
H9B H 0.3399(14) 0.1050(12) 0.2625(12)
H10B H 0.3343(16) -0.0491(13) 0.2634(14)
H12E H 0.601(3) 0.2271(17) 0.621(2)
H13E H 0.6757(18) 0.2428(12) 0.7051(17)
O5 O 0.81238(12) 0.21913(9) 0.15687(9)
H14 H 0.849(2) 0.2318(16) 0.1139(18)
H15 H 0.749(2) 0.2290(15) 0.1356(17)
loop_
_geom_bond_atom_site_label_1
_geom_bond_atom_site_label_2
_geom_bond_site_symmetry_1
_geom_bond_site_symmetry_2
Cu1 N1 1_555 1_555
N1 C1 1_555 1_555
C1 C2 1_555 1_555
C2 C3 1_555 1_555
C3 C4 1_555 1_555
C4 C5 1_555 1_555
C5 N1 1_555 1_555
Cu2 N2 1_555 1_555
N2 C6 1_555 1_555
C6 C7 1_555 1_555
C7 C8 1_555 1_555
C8 H8 1_555 1_555
N3 Cu2 1_555 1_555
C9 N3 1_555 1_555
C10 C9 1_555 1_555
C11 C10 1_555 1_555
C12 O1 1_555 1_555
O1 Cu1 1_555 1_555
O2 Cu2 1_555 1_555
O3 C12 1_555 1_555
O4 Cu1 1_555 1_555
H1 C1 1_555 1_555
H2 C2 1_555 1_555
H3 C3 1_555 1_555
H4 C4 1_555 1_555
H5 C5 1_555 1_555
H6 C6 1_555 1_555
H7 C7 1_555 1_555
H9 C9 1_555 1_555
H10 C10 1_555 1_555
H11 C11 1_555 1_555
H12 O4 1_555 1_555
H13 O4 1_555 1_555
O5 H14 1_555 1_555
H15 O5 1_555 1_555
N1E Cu1 1_555 1_555
C1E N1E 1_555 1_555
C2E C1E 1_555 1_555
C3E C2E 1_555 1_555
C4E C3E 1_555 1_555
C5E N1E 1_555 1_555
Cu2G O1E 1_555 1_555
C6B N2 1_555 1_555
C7B C8 1_555 1_555
C9B N3 1_555 1_555
C10B C11 1_555 1_555
C12E O1E 1_555 1_555
O1E Cu1 1_555 1_555
O1B Cu2 1_555 1_555
O2E Cu2G 1_555 1_555
O2B Cu2 1_555 1_555
O3E C12E 1_555 1_555
O4E Cu1 1_555 1_555
H1E C1E 1_555 1_555
H2E C2E 1_555 1_555
H3E C3E 1_555 1_555
H4E C4E 1_555 1_555
H5E C5E 1_555 1_555
H6B C6B 1_555 1_555
H7B C7B 1_555 1_555
H9B C9B 1_555 1_555
H10B C10B 1_555 1_555
H12E O4E 1_555 1_555
H13E O4E 1_555 1_555
Cu2 O1 1_555 1_555
C12 O2 1_555 1_555
C4E C5E 1_555 1_555
C6B C7B 1_555 1_555
C9B C10B 1_555 1_555
C12E O2E 1_555 1_555

#END
