
#######################################################################
#
#                 Cambridge Crystallographic Data Centre
#                                CCDC 
#
#######################################################################
#
# If this CIF has been generated from an entry in the Cambridge 
# Structural Database, then it will include bibliographic, chemical, 
# crystal, experimental, refinement or atomic coordinate data resulting 
# from the CCDC's data processing and validation procedures.
#
#######################################################################

data_RAZCEC
_symmetry_cell_setting           monoclinic
_symmetry_space_group_name_H-M   'P 21/c'
_symmetry_Int_Tables_number      14
_space_group_name_Hall           '-P 2ybc'
loop_
_symmetry_equiv_pos_site_id
_symmetry_equiv_pos_as_xyz
1 x,y,z
2 -x,1/2+y,1/2-z
3 -x,-y,-z
4 x,1/2-y,1/2+z
_cell_length_a                   10.8484(11)
_cell_length_b                   16.4190(17)
_cell_length_c                   24.968(3)
_cell_angle_alpha                90
_cell_angle_beta                 91.975(2)
_cell_angle_gamma                90
_cell_volume                     4444.66
loop_
_atom_site_label
_atom_site_type_symbol
_atom_site_fract_x
_atom_site_fract_y
_atom_site_fract_z
O7 O 0.3218(3) 0.7334(2) 0.2160(1)
H3 H 0.3450 0.7027 0.2413
O8 O 0.3216(3) 0.8265(2) 0.2818(1)
O9 O 0.2607(3) 1.1158(2) 0.2248(1)
O10 O 0.2024(3) 1.1457(2) 0.1403(1)
O11 O 0.0532(3) 0.9135(2) 0.0232(1)
H4 H 0.0322 0.8919 -0.0062
O12 O 0.1400(3) 0.7911(2) 0.0385(1)
C16 C 0.2539(3) 0.8657(2) 0.1936(1)
C17 C 0.2552(3) 0.9488(2) 0.2051(1)
H24 H 0.2844 0.9674 0.2392
C18 C 0.2133(3) 1.0052(2) 0.1662(1)
C19 C 0.1655(3) 0.9777(2) 0.1167(1)
H25 H 0.1343 1.0155 0.0908
C20 C 0.1640(3) 0.8940(2) 0.1055(1)
C21 C 0.2105(3) 0.8389(2) 0.1434(1)
H26 H 0.2127 0.7824 0.1350
C22 C 0.3022(3) 0.8054(2) 0.2343(1)
C23 C 0.2259(3) 1.0956(2) 0.1775(1)
C24 C 0.1178(4) 0.8607(2) 0.0526(2)
O13 O 0.3449(3) 0.2551(2) 0.2543(1)
H5 H 0.3242 0.2066 0.2482
O14 O 0.4012(3) 0.2048(2) 0.3357(1)
O15 O 0.5993(3) 0.4047(2) 0.4677(1)
H6 H 0.6405 0.4229 0.4942
O16 O 0.5899(3) 0.5380(2) 0.4465(1)
O17 O 0.4030(3) 0.6321(2) 0.2810(1)
O18 O 0.3359(3) 0.5460(2) 0.2171(1)
C25 C 0.4248(3) 0.3468(2) 0.3186(1)
C26 C 0.4809(3) 0.3628(2) 0.3688(1)
H27 H 0.5006 0.3194 0.3928
C27 C 0.5078(3) 0.4433(2) 0.3834(1)
C28 C 0.4786(3) 0.5072(2) 0.3483(1)
H28 H 0.4971 0.5617 0.3584
C29 C 0.4225(3) 0.4910(2) 0.2986(1)
C30 C 0.3972(3) 0.4108(2) 0.2836(1)
H29 H 0.3608 0.3997 0.2492
C31 C 0.3903(3) 0.2614(2) 0.3037(1)
C32 C 0.5695(3) 0.4637(2) 0.4359(1)
C33 C 0.3839(4) 0.5599(2) 0.2616(2)
O20 O 0.0935(3) 0.2908(2) 0.1734(1)
H30 H 0.0670 0.2749 0.2033
H31 H 0.1409 0.2529 0.1634
O21 O 0.5183(4) 0.8406(3) 0.3632(2)
H32 H 0.4869 0.8198 0.3347
H33 H 0.5886 0.8583 0.3545
O22 O 0.7447(3) 0.9163(2) 0.3473(1)
H34 H 0.7414 0.9569 0.3263
H35 H 0.7972 0.8842 0.3342
O23 O 0.9878(3) 0.8410(2) 0.9336(1)
H36 H 1.0429 0.8162 0.9165
H37 H 0.9293 0.8494 0.9108
O24 O 0.6079(8) 0.2251(4) 0.4763(3)
O26 O 0.3960(15) 0.6921(9) 0.3895(6)
Cu1 Cu -0.1013(1) -0.0871(1) 0.6299
Cu2 Cu 0.0000 0.0000 0.5000
O1 O 0.0976(3) 0.2947(2) 0.8539(1)
O2 O 0.0021(3) 0.2586(2) 0.7760(1)
O3 O -0.0023(3) -0.0292(2) 0.7176(1)
O4 O 0.0765(3) -0.1224(2) 0.7753(1)
H1 H 0.0447 -0.1555 0.7532
O5 O 0.2758(2) -0.0484(2) 0.9446(1)
O6 O 0.2712(3) 0.0819(2) 0.9724(1)
H2 H 0.3228 0.0643 0.9954
O19 O -0.2495(3) -0.0702(2) 0.6721(1)
H7 H -0.2349 -0.0783 0.7054
H8 H -0.3050 -0.1045 0.6631
N1 N -0.0755(3) 0.0651(2) 0.5598(1)
N2 N -0.1123(3) 0.0337(2) 0.6082(1)
N3 N -0.1467(4) 0.1648(2) 0.6073(2)
N4 N -0.1765(5) 0.2452(3) 0.6214(2)
H9 H -0.1650 0.2579 0.6563
H10 H -0.2486 0.2645 0.6073
N5 N -0.1091(3) 0.0593(2) 0.4446(1)
N6 N -0.0726(3) 0.0902(2) 0.3962(1)
N7 N -0.2700(3) 0.1070(2) 0.4008(1)
N8 N -0.3935(4) 0.1307(4) 0.3893(2)
H11 H -0.4001 0.1382 0.3537
H12 H -0.4352 0.0867 0.4004
N9 N 0.1551(4) 0.1011(3) 0.4954(1)
N10 N 0.2021(4) 0.1275(3) 0.4473(2)
N11 N 0.2936(4) 0.1968(2) 0.5131(2)
N12 N 0.3764(4) 0.2527(3) 0.5393(2)
H13 H 0.3258 0.2942 0.5471
H14 H 0.4051 0.2262 0.5687
C1 C -0.1532(4) 0.0946(3) 0.6359(2)
H15 H -0.1832 0.0905 0.6711
C2 C -0.0966(4) 0.1434(3) 0.5606(2)
H16 H -0.0793 0.1800 0.5324
C3 C -0.1717(4) 0.1180(2) 0.3707(2)
H17 H -0.1734 0.1422 0.3362
C4 C -0.2284(4) 0.0703(3) 0.4464(2)
H18 H -0.2781 0.0549 0.4753
C5 C 0.2861(4) 0.1838(3) 0.4599(2)
H19 H 0.3345 0.2114 0.4346
C6 C 0.2129(5) 0.1444(3) 0.5339(2)
H20 H 0.1990 0.1388 0.5711
C7 C 0.0937(3) 0.1553(2) 0.8297(1)
C8 C 0.0620(3) 0.0963(2) 0.7914(1)
H21 H 0.0221 0.1120 0.7586
C9 C 0.0885(3) 0.0145(2) 0.8011(1)
C10 C 0.1479(3) -0.0089(2) 0.8495(1)
H22 H 0.1665 -0.0646 0.8563
C11 C 0.1793(3) 0.0507(2) 0.8877(1)
C12 C 0.1520(3) 0.1319(2) 0.8778(1)
H23 H 0.1732 0.1719 0.9040
C13 C 0.0621(3) 0.2437(2) 0.8191(2)
C14 C 0.0500(4) -0.0476(2) 0.7602(2)
C15 C 0.2453(3) 0.0254(2) 0.9381(1)
Cu1B Cu 0.1013(1) 0.0871(1) 0.3701
Cu1A Cu 0.1013(1) 0.4129(1) 0.8701
Cu1A_2 Cu 0.1013(1) -0.5871(1) 0.8701
O1A O -0.0976(3) -0.2053(2) 0.6461(1)
O1C O 0.0976(3) 0.2053(2) 0.3539(1)
O2A O -0.0021(3) -0.2414(2) 0.7240(1)
O3A O 0.0023(3) -0.5292(2) 0.7824(1)
O3B O 0.0023(3) 0.0292(2) 0.2824(1)
O4A O -0.0765(3) -0.6224(2) 0.7247(1)
H1A H -0.0447 -0.6555 0.7468
O5A O -0.2758(2) -0.5484(2) 0.5554(1)
O6A O -0.2712(3) -0.4181(2) 0.5276(1)
H2A H -0.3228 -0.4357 0.5046
O19B O 0.2495(3) 0.0702(2) 0.3279(1)
H7B H 0.2349 0.0783 0.2946
H8B H 0.3050 0.1045 0.3369
N1B N 0.0755(3) -0.0651(2) 0.4402(1)
N2B N 0.1123(3) -0.0337(2) 0.3918(1)
N3B N 0.1467(4) -0.1648(2) 0.3927(2)
N4B N 0.1765(5) -0.2452(3) 0.3786(2)
H9B H 0.1650 -0.2579 0.3437
H10B H 0.2486 -0.2645 0.3927
N5B N 0.1091(3) -0.0593(2) 0.5554(1)
N6B N 0.0726(3) -0.0902(2) 0.6038(1)
N7B N 0.2700(3) -0.1070(2) 0.5992(1)
N8B N 0.3935(4) -0.1307(4) 0.6107(2)
H11B H 0.4001 -0.1382 0.6463
H12B H 0.4352 -0.0867 0.5996
N9B N -0.1551(4) -0.1011(3) 0.5046(1)
N10B N -0.2021(4) -0.1275(3) 0.5527(2)
N11B N -0.2936(4) -0.1968(2) 0.4869(2)
N12B N -0.3764(4) -0.2527(3) 0.4607(2)
H13B H -0.3258 -0.2942 0.4529
H14B H -0.4051 -0.2262 0.4313
C1B C 0.1532(4) -0.0946(3) 0.3641(2)
H15B H 0.1832 -0.0905 0.3289
C2B C 0.0966(4) -0.1434(3) 0.4394(2)
H16B H 0.0793 -0.1800 0.4676
C3B C 0.1717(4) -0.1180(2) 0.6293(2)
H17B H 0.1734 -0.1422 0.6638
C4B C 0.2284(4) -0.0703(3) 0.5536(2)
H18B H 0.2781 -0.0549 0.5247
C5B C -0.2861(4) -0.1838(3) 0.5401(2)
H19B H -0.3345 -0.2114 0.5654
C6B C -0.2129(5) -0.1444(3) 0.4661(2)
H20B H -0.1990 -0.1388 0.4289
C7A C -0.0937(3) -0.3447(2) 0.6703(1)
C8A C -0.0620(3) -0.4037(2) 0.7086(1)
H21A H -0.0221 -0.3880 0.7414
C9A C -0.0885(3) -0.4855(2) 0.6989(1)
C10A C -0.1479(3) -0.5089(2) 0.6505(1)
H22A H -0.1665 -0.5646 0.6437
C11A C -0.1793(3) -0.4493(2) 0.6123(1)
C12A C -0.1520(3) -0.3681(2) 0.6222(1)
H23A H -0.1732 -0.3281 0.5960
C13A C -0.0621(3) -0.2563(2) 0.6809(2)
C14A C -0.0500(4) -0.5476(2) 0.7398(2)
C15A C -0.2453(3) -0.4746(2) 0.5619(1)
C34? C 0.537(2) 0.9617(16) 0.5292(8)
H38? H 0.5899 0.9163 0.5347
C35? C 0.6151(8) 1.1012(6) 0.5502(4)
H39? H 0.5922 1.1090 0.5122
H40? H 0.5821 1.1462 0.5712
H41? H 0.7052 1.1001 0.5548
N13? N 0.4355(13) 0.9755(8) 0.4313(5)
C36? C 0.4498(11) 0.9929(9) 0.3725(5)
H42? H 0.3692 1.0069 0.3560
H43? H 0.4825 0.9446 0.3549
H44? H 0.5068 1.0386 0.3684
O25? O 0.5337(15) 1.0505(11) 0.5086(7)
Cu3? Cu 0.0695(8) 0.0655(5) 0.3582(3)
O27? O 0.6515(8) 0.2344(5) 0.5186(3)
loop_
_geom_bond_atom_site_label_1
_geom_bond_atom_site_label_2
_geom_bond_site_symmetry_1
_geom_bond_site_symmetry_2
Cu1 O3 1_555 1_555
Cu2 N1 1_555 1_555
O1 C13 1_555 1_555
O2 C13 1_555 1_555
O3 C14 1_555 1_555
O4 H1 1_555 1_555
O5 C15 1_555 1_555
O6 H2 1_555 1_555
O7 H3 1_555 1_555
O8 C22 1_555 1_555
O9 C23 1_555 1_555
O10 C23 1_555 1_555
O11 H4 1_555 1_555
O12 C24 1_555 1_555
O13 H5 1_555 1_555
O14 C31 1_555 1_555
O15 H6 1_555 1_555
O16 C32 1_555 1_555
O17 C33 1_555 1_555
O18 C33 1_555 1_555
O19 Cu1 1_555 1_555
H7 O19 1_555 1_555
H8 O19 1_555 1_555
N1 N2 1_555 1_555
N2 Cu1 1_555 1_555
N3 N4 1_555 1_555
N4 H9 1_555 1_555
H10 N4 1_555 1_555
N5 Cu2 1_555 1_555
N6 N5 1_555 1_555
N7 N8 1_555 1_555
N8 H11 1_555 1_555
H12 N8 1_555 1_555
N9 Cu2 1_555 1_555
N10 N9 1_555 1_555
N11 N12 1_555 1_555
N12 H13 1_555 1_555
H14 N12 1_555 1_555
C1 N2 1_555 1_555
H15 C1 1_555 1_555
C2 N1 1_555 1_555
H16 C2 1_555 1_555
C3 N6 1_555 1_555
H17 C3 1_555 1_555
C4 N5 1_555 1_555
H18 C4 1_555 1_555
C5 N10 1_555 1_555
H19 C5 1_555 1_555
C6 N9 1_555 1_555
H20 C6 1_555 1_555
C7 C8 1_555 1_555
C8 H21 1_555 1_555
C9 C8 1_555 1_555
C10 C9 1_555 1_555
H22 C10 1_555 1_555
C11 C10 1_555 1_555
C12 C7 1_555 1_555
H23 C12 1_555 1_555
C13 C7 1_555 1_555
C14 O4 1_555 1_555
C15 O6 1_555 1_555
C16 C17 1_555 1_555
C17 H24 1_555 1_555
C18 C17 1_555 1_555
C19 C18 1_555 1_555
H25 C19 1_555 1_555
C20 C19 1_555 1_555
C21 C16 1_555 1_555
H26 C21 1_555 1_555
C22 O7 1_555 1_555
C23 C18 1_555 1_555
C24 O11 1_555 1_555
C25 C26 1_555 1_555
C26 H27 1_555 1_555
C27 C26 1_555 1_555
C28 C27 1_555 1_555
H28 C28 1_555 1_555
C29 C28 1_555 1_555
C30 C25 1_555 1_555
H29 C30 1_555 1_555
C31 O13 1_555 1_555
C32 O15 1_555 1_555
C33 C29 1_555 1_555
O20 H30 1_555 1_555
H31 O20 1_555 1_555
O21 H32 1_555 1_555
H33 O21 1_555 1_555
O22 H34 1_555 1_555
H35 O22 1_555 1_555
O23 H36 1_555 1_555
H37 O23 1_555 1_555
Cu1B N6 1_555 1_555
Cu1A O1 1_555 1_555
Cu1A_2 O3A 1_555 1_555
O1A Cu1 1_555 1_555
O1C Cu1B 1_555 1_555
O2A C13A 1_555 1_555
O3A C14A 1_555 1_555
O3B Cu1B 1_555 1_555
O4A H1A 1_555 1_555
O5A C15A 1_555 1_555
O6A H2A 1_555 1_555
O19B Cu1B 1_555 1_555
H7B O19B 1_555 1_555
H8B O19B 1_555 1_555
N1B Cu2 1_555 1_555
N2B Cu1B 1_555 1_555
N3B N4B 1_555 1_555
N4B H9B 1_555 1_555
H10B N4B 1_555 1_555
N5B Cu2 1_555 1_555
N6B Cu1 1_555 1_555
N7B N8B 1_555 1_555
N8B H11B 1_555 1_555
H12B N8B 1_555 1_555
N9B Cu2 1_555 1_555
N10B Cu1 1_555 1_555
N11B N12B 1_555 1_555
N12B H13B 1_555 1_555
H14B N12B 1_555 1_555
C1B N2B 1_555 1_555
H15B C1B 1_555 1_555
C2B N1B 1_555 1_555
H16B C2B 1_555 1_555
C3B N6B 1_555 1_555
H17B C3B 1_555 1_555
C4B N5B 1_555 1_555
H18B C4B 1_555 1_555
C5B N10B 1_555 1_555
H19B C5B 1_555 1_555
C6B N9B 1_555 1_555
H20B C6B 1_555 1_555
C7A C8A 1_555 1_555
C8A H21A 1_555 1_555
C9A C8A 1_555 1_555
C10A C9A 1_555 1_555
H22A C10A 1_555 1_555
C11A C10A 1_555 1_555
C12A C7A 1_555 1_555
H23A C12A 1_555 1_555
C13A O1A 1_555 1_555
C14A O4A 1_555 1_555
C15A O6A 1_555 1_555
N3 C1 1_555 1_555
N3 C2 1_555 1_555
N7 C3 1_555 1_555
N7 C4 1_555 1_555
N10 Cu1B 1_555 1_555
N11 C5 1_555 1_555
N11 C6 1_555 1_555
C9 C14 1_555 1_555
C11 C12 1_555 1_555
C11 C15 1_555 1_555
C16 C22 1_555 1_555
C20 C21 1_555 1_555
C20 C24 1_555 1_555
C25 C31 1_555 1_555
C27 C32 1_555 1_555
C29 C30 1_555 1_555
N1B N2B 1_555 1_555
N3B C1B 1_555 1_555
N3B C2B 1_555 1_555
N5B N6B 1_555 1_555
N7B C3B 1_555 1_555
N7B C4B 1_555 1_555
N9B N10B 1_555 1_555
N11B C5B 1_555 1_555
N11B C6B 1_555 1_555
C7A C13A 1_555 1_555
C9A C14A 1_555 1_555
C11A C12A 1_555 1_555
C11A C15A 1_555 1_555

#END
