
#######################################################################
#
#                 Cambridge Crystallographic Data Centre
#                                CCDC 
#
#######################################################################
#
# If this CIF has been generated from an entry in the Cambridge 
# Structural Database, then it will include bibliographic, chemical, 
# crystal, experimental, refinement or atomic coordinate data resulting 
# from the CCDC's data processing and validation procedures.
#
#######################################################################

data_RAZCAX
_symmetry_cell_setting           orthorhombic
_symmetry_space_group_name_H-M   'P b c n'
_symmetry_Int_Tables_number      60
_space_group_name_Hall           '-P 2n 2ab'
loop_
_symmetry_equiv_pos_site_id
_symmetry_equiv_pos_as_xyz
1 x,y,z
2 1/2-x,1/2-y,1/2+z
3 1/2+x,1/2-y,-z
4 -x,y,1/2-z
5 -x,-y,-z
6 1/2+x,1/2+y,1/2-z
7 1/2-x,1/2+y,z
8 x,-y,1/2+z
_cell_length_a                   16.728(3)
_cell_length_b                   11.421(2)
_cell_length_c                   13.536(3)
_cell_angle_alpha                90
_cell_angle_beta                 90
_cell_angle_gamma                90
_cell_volume                     2586.06
loop_
_atom_site_label
_atom_site_type_symbol
_atom_site_fract_x
_atom_site_fract_y
_atom_site_fract_z
Ag1 Ag 0.556241(14) 0.159927(17) 0.655227(18)
N1 N 0.55670(14) 0.34955(18) 0.63423(18)
C1 C 0.48862(17) 0.4104(2) 0.6257(2)
C2 C 0.48724(16) 0.5318(2) 0.6237(2)
C3 C 0.55833(16) 0.5951(2) 0.6301(2)
C4 C 0.62895(16) 0.5312(2) 0.6374(2)
C5 C 0.62580(17) 0.4096(2) 0.6394(2)
N2 N 0.55779(13) 0.9712(2) 0.63993(17)
C6 C 0.62161(17) 0.9084(2) 0.6701(2)
C7 C 0.62427(16) 0.7873(2) 0.6679(2)
C8 C 0.55866(15) 0.7250(2) 0.63166(19)
C9 C 0.49315(16) 0.7900(2) 0.5990(2)
C10 C 0.49476(17) 0.9107(2) 0.6047(2)
H1 H 0.4385(18) 0.363(3) 0.623(3)
H2 H 0.4352(18) 0.573(3) 0.620(3)
H3 H 0.681(2) 0.569(3) 0.643(2)
H4 H 0.675(2) 0.368(3) 0.643(3)
H5 H 0.6665(19) 0.956(3) 0.695(2)
H6 H 0.6696(19) 0.749(3) 0.693(2)
H7 H 0.4483(18) 0.755(3) 0.572(2)
H8 H 0.4494(19) 0.958(3) 0.584(3)
Ag1C Ag 0.443759(14) 0.159927(17) 0.844773(18)
Ag1_2 Ag 0.556241(14) 1.159927(17) 0.655227(18)
N2_2 N 0.55779(13) -0.0288(2) 0.63993(17)
C11 C 0.67549(17) 0.1581(3) 0.8252(2)
O1 O 0.70398(13) 0.16522(18) 0.74069(18)
O2 O 0.60660(13) 0.1577(2) 0.8534(2)
F1 F 0.7201(4) 0.2587(6) 0.9708(4)
F2 F 0.8038(3) 0.1793(11) 0.8811(5)
F3 F 0.7243(7) 0.0813(12) 0.9676(7)
C12 C 0.7355(5) 0.1786(13) 0.9120(6)
F4? F 0.7825(4) 0.0115(8) 0.8570(5)
F5? F 0.8015(4) 0.1756(7) 0.9166(7)
F6? F 0.7150(3) 0.0597(6) 0.9779(4)
C13? C 0.7400(5) 0.1073(14) 0.8945(7)
loop_
_geom_bond_atom_site_label_1
_geom_bond_atom_site_label_2
_geom_bond_site_symmetry_1
_geom_bond_site_symmetry_2
Ag1 N1 1_555 1_555
N1 C1 1_555 1_555
C1 C2 1_555 1_555
C2 C3 1_555 1_555
C3 C4 1_555 1_555
C4 C5 1_555 1_555
C5 N1 1_555 1_555
N2 C6 1_555 1_555
C6 C7 1_555 1_555
C7 C8 1_555 1_555
C8 C3 1_555 1_555
C9 C8 1_555 1_555
C10 N2 1_555 1_555
H1 C1 1_555 1_555
H2 C2 1_555 1_555
H3 C4 1_555 1_555
H4 C5 1_555 1_555
H5 C6 1_555 1_555
H6 C7 1_555 1_555
H7 C9 1_555 1_555
H8 C10 1_555 1_555
C11 O1 1_555 1_555
O2 C11 1_555 1_555
F1 C12 1_555 1_555
F2 C12 1_555 1_555
F3 C12 1_555 1_555
C12 C11 1_555 1_555
Ag1C Ag1 1_555 1_555
Ag1_2 N2 1_555 1_555
N2_2 Ag1 1_555 1_555
C9 C10 1_555 1_555

#END
