
#######################################################################
#
#                 Cambridge Crystallographic Data Centre
#                                CCDC 
#
#######################################################################
#
# If this CIF has been generated from an entry in the Cambridge 
# Structural Database, then it will include bibliographic, chemical, 
# crystal, experimental, refinement or atomic coordinate data resulting 
# from the CCDC's data processing and validation procedures.
#
#######################################################################

data_RAZJIL
_symmetry_cell_setting           orthorhombic
_symmetry_space_group_name_H-M   'P b c a'
_symmetry_Int_Tables_number      61
_space_group_name_Hall           '-P 2ac 2ab'
loop_
_symmetry_equiv_pos_site_id
_symmetry_equiv_pos_as_xyz
1 x,y,z
2 1/2-x,-y,1/2+z
3 1/2+x,1/2-y,-z
4 -x,1/2+y,1/2-z
5 -x,-y,-z
6 1/2+x,y,1/2-z
7 1/2-x,1/2+y,z
8 x,1/2-y,1/2+z
_cell_length_a                   14.280(5)
_cell_length_b                   13.936(3)
_cell_length_c                   16.921(3)
_cell_angle_alpha                90
_cell_angle_beta                 90
_cell_angle_gamma                90
_cell_volume                     3367.38
loop_
_atom_site_label
_atom_site_type_symbol
_atom_site_fract_x
_atom_site_fract_y
_atom_site_fract_z
N1 N -0.0879(1) 0.3049(1) 0.2259(1)
C1 C -0.0527(2) 0.2925(2) 0.2990(1)
C2 C -0.1007(2) 0.3248(2) 0.3648(2)
C3 C -0.1853(2) 0.3706(2) 0.3558(2)
C4 C -0.2210(2) 0.3839(2) 0.2811(2)
C5 C -0.1702(2) 0.3495(2) 0.2180(2)
N2 N 0.0721(1) 0.2069(1) 0.2352(1)
C6 C 0.0387(2) 0.2415(2) 0.3036(1)
C7 C 0.0867(2) 0.2280(2) 0.3741(2)
C8 C 0.1697(2) 0.1771(2) 0.3739(2)
C9 C 0.2031(2) 0.1407(2) 0.3045(2)
C10 C 0.1528(2) 0.1579(2) 0.2363(2)
Cl1 Cl 0.1519(1) 0.5832(1) 0.1187(1)
C11 C 0.0697(2) 0.5383(2) 0.0535(1)
O1 O 0.0689(1) 0.3873(1) 0.1146(1)
O2 O -0.0686(1) 0.3229(1) 0.0261(1)
C12 C 0.0383(2) 0.4444(2) 0.0638(1)
C13 C -0.0390(2) 0.4053(2) 0.0091(1)
Cl2 Cl 0.2084(1) 0.0430(1) -0.0545(1)
O3 O 0.0862(1) 0.1591(1) 0.0533(1)
C14 C 0.0509(2) 0.0834(2) 0.0261(1)
O4 O -0.0870(1) 0.1228(1) 0.0980(1)
C15 C 0.0945(2) 0.0202(2) -0.0255(1)
C16 C -0.0504(2) 0.0623(2) 0.0529(1)
H1 H 0.0635(18) 0.2557(18) 0.4168(16)
H2 H 0.2069(2) 0.1708(22) 0.4205(19)
H3 H 0.2629(22) 0.1032(21) 0.2991(17)
H4 H 0.1706(20) 0.1324(20) 0.1867(16)
H5 H -0.0804(21) 0.3135(21) 0.4156(19)
H6 H -0.2213(19) 0.3912(20) 0.3970(16)
H7 H -0.2784(20) 0.4195(20) 0.2705(16)
H8 H -0.1960(20) 0.3543(20) 0.1661(17)
Mn1 Mn -0.0030(1) 0.2497(1) 0.1256(1)
C13D C 0.0390(2) 0.5947(2) -0.0091(1)
O2D O 0.0686(1) 0.6771(1) -0.0261(1)
Mn1D Mn 0.0030(1) 0.7503(1) -0.1256(1)
N1D N 0.0879(1) 0.6951(1) -0.2259(1)
C1D C 0.0527(2) 0.7075(2) -0.2990(1)
C2D C 0.1007(2) 0.6752(2) -0.3648(2)
C3D C 0.1853(2) 0.6294(2) -0.3558(2)
C4D C 0.2210(2) 0.6161(2) -0.2811(2)
C5D C 0.1702(2) 0.6505(2) -0.2180(2)
H8D H 0.1960(20) 0.6457(20) -0.1661(17)
H7D H 0.2784(20) 0.5805(20) -0.2705(16)
H6D H 0.2213(19) 0.6088(20) -0.3970(16)
H5D H 0.0804(21) 0.6865(21) -0.4156(19)
C6D C -0.0387(2) 0.7585(2) -0.3036(1)
N2D N -0.0721(1) 0.7931(1) -0.2352(1)
C10D C -0.1528(2) 0.8421(2) -0.2363(2)
C9D C -0.2031(2) 0.8593(2) -0.3045(2)
C8D C -0.1697(2) 0.8229(2) -0.3739(2)
C7D C -0.0867(2) 0.7720(2) -0.3741(2)
H1D H -0.0635(18) 0.7443(18) -0.4168(16)
H2D H -0.2069(2) 0.8292(22) -0.4205(19)
H3D H -0.2629(22) 0.8968(21) -0.2991(17)
H4D H -0.1706(20) 0.8676(20) -0.1867(16)
O1D O -0.0689(1) 0.6127(1) -0.1146(1)
C12D C -0.0383(2) 0.5556(2) -0.0638(1)
C11D C -0.0697(2) 0.4617(2) -0.0535(1)
Cl1D Cl -0.1519(1) 0.4168(1) -0.1187(1)
C16D C 0.0504(2) -0.0623(2) -0.0529(1)
C14D C -0.0509(2) -0.0834(2) -0.0261(1)
O3D O -0.0862(1) -0.1591(1) -0.0533(1)
Mn1D_2 Mn 0.0030(1) -0.2497(1) -0.1256(1)
O4D O 0.0870(1) -0.1228(1) -0.0980(1)
C15D C -0.0945(2) -0.0202(2) 0.0255(1)
Cl2D Cl -0.2084(1) -0.0430(1) 0.0545(1)
O3D_2 O -0.0862(1) 0.8409(1) -0.0533(1)
O4D_2 O 0.0870(1) 0.8772(1) -0.0980(1)
loop_
_geom_bond_atom_site_label_1
_geom_bond_atom_site_label_2
_geom_bond_site_symmetry_1
_geom_bond_site_symmetry_2
N1 C1 1_555 1_555
C1 C2 1_555 1_555
C2 C3 1_555 1_555
C3 C4 1_555 1_555
C4 C5 1_555 1_555
C5 N1 1_555 1_555
N2 C6 1_555 1_555
C6 C1 1_555 1_555
C7 C6 1_555 1_555
C8 C7 1_555 1_555
C9 C8 1_555 1_555
C10 N2 1_555 1_555
Cl1 C11 1_555 1_555
C11 C12 1_555 1_555
O1 C12 1_555 1_555
O2 C13 1_555 1_555
C12 C13 1_555 1_555
C13 C11D 1_555 1_555
Cl2 C15 1_555 1_555
O3 C14 1_555 1_555
C14 C15 1_555 1_555
O4 C16 1_555 1_555
C15 C16D 1_555 1_555
C16 C14 1_555 1_555
H1 C7 1_555 1_555
H2 C8 1_555 1_555
H3 C9 1_555 1_555
H4 C10 1_555 1_555
H5 C2 1_555 1_555
H6 C3 1_555 1_555
H7 C4 1_555 1_555
H8 C5 1_555 1_555
Mn1 N1 1_555 1_555
C13D C11 1_555 1_555
O2D C13D 1_555 1_555
Mn1D O2D 1_555 1_555
N1D Mn1D 1_555 1_555
C1D N1D 1_555 1_555
C2D C1D 1_555 1_555
C3D C2D 1_555 1_555
C4D C3D 1_555 1_555
C5D N1D 1_555 1_555
H8D C5D 1_555 1_555
H7D C4D 1_555 1_555
H6D C3D 1_555 1_555
H5D C2D 1_555 1_555
C6D C1D 1_555 1_555
N2D Mn1D 1_555 1_555
C10D N2D 1_555 1_555
C9D C10D 1_555 1_555
C8D C9D 1_555 1_555
C7D C6D 1_555 1_555
H1D C7D 1_555 1_555
H2D C8D 1_555 1_555
H3D C9D 1_555 1_555
H4D C10D 1_555 1_555
O1D Mn1D 1_555 1_555
C12D C13D 1_555 1_555
C11D C12D 1_555 1_555
Cl1D C11D 1_555 1_555
C16D C14D 1_555 1_555
C14D O3D 1_555 1_555
O3D Mn1D_2 1_555 1_555
Mn1D_2 O4D 1_555 1_555
O4D C16D 1_555 1_555
C15D C16 1_555 1_555
Cl2D C15D 1_555 1_555
O3D_2 Mn1D 1_555 1_555
O4D_2 Mn1D 1_555 1_555
N2 Mn1 1_555 1_555
C9 C10 1_555 1_555
O1 Mn1 1_555 1_555
O2 Mn1 1_555 1_555
O3 Mn1 1_555 1_555
O4 Mn1 1_555 1_555
C4D C5D 1_555 1_555
C6D N2D 1_555 1_555
C8D C7D 1_555 1_555
O1D C12D 1_555 1_555
C14D C15D 1_555 1_555

#END
