
#######################################################################
#
#                 Cambridge Crystallographic Data Centre
#                                CCDC 
#
#######################################################################
#
# If this CIF has been generated from an entry in the Cambridge 
# Structural Database, then it will include bibliographic, chemical, 
# crystal, experimental, refinement or atomic coordinate data resulting 
# from the CCDC's data processing and validation procedures.
#
#######################################################################

data_RAZKUZ
_symmetry_cell_setting           triclinic
_symmetry_space_group_name_H-M   'P 1'
_symmetry_Int_Tables_number      1
_space_group_name_Hall           'P 1'
loop_
_symmetry_equiv_pos_site_id
_symmetry_equiv_pos_as_xyz
1 x,y,z
_cell_length_a                   10.2451(9)
_cell_length_b                   12.0898(11)
_cell_length_c                   12.0900(11)
_cell_angle_alpha                89.801(2)
_cell_angle_beta                 73.363(2)
_cell_angle_gamma                71.164(2)
_cell_volume                     1351.41
loop_
_atom_site_label
_atom_site_type_symbol
_atom_site_fract_x
_atom_site_fract_y
_atom_site_fract_z
Fe1 Fe 0.08434(5) 0.56653(4) 0.74150(4)
Fe2 Fe 0.09622(5) 0.05824(4) 1.23284(4)
Fe3 Fe 0.08313(6) 0.06624(5) 0.73516(5)
Fe4 Fe 0.07518(6) 0.56463(5) 1.24206(5)
N1 N 0.3231(4) 0.5141(4) 0.6696(4)
N2 N -0.1538(4) 0.6178(4) 0.8202(4)
N3 N 0.3332(4) 0.0089(4) 1.1661(4)
N4 N -0.1428(4) 0.1004(4) 1.2930(4)
N5 N -0.1514(4) 0.1517(4) 0.7939(3)
N6 N -0.1611(4) 0.6377(4) 1.3103(3)
O1 O 0.1045(3) 0.3963(3) 0.7926(3)
O2 O 0.1003(3) 0.2145(3) 0.7912(3)
O3 O 0.0917(3) 0.0008(3) 1.0703(3)
O4 O 0.0743(3) 0.0104(3) 0.8932(3)
O5 O 0.0682(3) 0.2309(3) 1.1794(3)
O6 O 0.0514(3) 0.4172(3) 1.1891(3)
O7 O 0.0951(3) 0.6239(3) 0.9019(3)
O8 O 0.0628(4) 0.6294(3) 1.0927(3)
O9 O 0.0572(3) 0.7377(3) 0.6876(3)
O10 O 0.0507(3) 0.9217(3) 0.6865(3)
O11 O 0.0707(4) 0.5098(3) 0.5820(3)
O12 O 0.0743(3) 0.5082(3) 0.3989(3)
O13 O 0.0921(3) 0.1203(3) 0.3957(3)
O14 O 0.0770(3) 0.1267(3) 0.5823(3)
O15 O 0.1210(3) 0.8880(3) 1.2884(3)
O16 O 0.0907(3) 0.7144(3) 1.2982(3)
O17 O 0.2965(4) -0.0098(3) 0.6780(3)
O18 O 0.5195(4) -0.0324(3) 0.6790(3)
O19 O 0.2854(4) 0.4905(3) 1.1804(3)
O20 O 0.5105(4) 0.4485(4) 1.1843(4)
C1 C 0.0934(7) 0.3092(6) 0.7467(5)
H1 H 0.0786 0.3149 0.6725
C2 C 0.0862(7) 0.0525(6) 0.9835(6)
H2 H 0.0912 0.1296 0.9844
C3 C 0.0800(6) 0.3169(6) 1.2266(5)
H3 H 0.1118 0.3070 1.2936
C4 C 0.0814(6) 0.5762(5) 0.9955(6)
H4 H 0.0850 0.4967 0.9936
C5 C 0.0741(6) 0.8234(6) 0.7291(5)
H5 H 0.1062 0.8155 0.7960
C6 C 0.0715(6) 0.5575(6) 0.4926(6)
H6 H 0.0700 0.6365 0.4932
C7 C 0.0937(6) 0.0722(6) 0.4873(6)
H7 H 0.1082 -0.0095 0.4854
C8 C 0.0914(6) 0.8071(6) 1.2505(4)
H8 H 0.0672 0.8156 1.1800
C9 C 0.3886(5) 0.0101(5) 0.7166(5)
H9 H 0.3518 0.0650 0.7833
C10 C 0.3804(6) 0.4909(7) 1.2258(5)
H10 H 0.3466 0.5290 1.3022
C11 C 0.3953(5) 0.4333(4) 0.5777(4)
H11 H 0.3419 0.4007 0.5430
C12 C 0.5467(5) 0.3952(4) 0.5308(4)
H12 H 0.5927 0.3394 0.4645
C13 C 0.6283(5) 0.4372(4) 0.5792(5)
C14 C 0.5530(5) 0.5192(4) 0.6762(4)
H13 H 0.6043 0.5513 0.7137
C15 C 0.4030(5) 0.5538(4) 0.7181(4)
H14 H 0.3548 0.6088 0.7849
C16 C 0.7869(6) 0.3993(6) 0.5321(6)
H15 H 0.8197 0.3408 0.4654
H16 H 0.8303 0.3647 0.5921
H17 H 0.8163 0.4672 0.5076
C17 C -0.2107(5) 0.5636(4) 0.9093(4)
H18 H -0.1471 0.4980 0.9327
C18 C -0.3581(5) 0.5986(4) 0.9692(4)
H19 H -0.3926 0.5585 1.0328
C19 C -0.4540(5) 0.6921(5) 0.9355(5)
C20 C -0.3940(5) 0.7465(5) 0.8423(5)
H20 H -0.4551 0.8113 0.8159
C21 C -0.2469(5) 0.7073(4) 0.7876(4)
H21 H -0.2101 0.7459 0.7237
C22 C -0.6123(5) 0.7329(5) 0.9968(6)
H22 H -0.6327 0.6829 1.0588
H23 H -0.6647 0.7283 0.9416
H24 H -0.6437 0.8143 1.0303
C23 C 0.3996(5) 0.0443(4) 1.0671(4)
H25 H 0.3416 0.0959 1.0268
C24 C 0.5482(5) 0.0095(4) 1.0208(4)
H26 H 0.5892 0.0382 0.9508
C25 C 0.6370(5) -0.0655(4) 1.0740(4)
C26 C 0.5703(5) -0.1034(4) 1.1770(4)
H27 H 0.6265 -0.1553 1.2182
C27 C 0.4201(5) -0.0642(4) 1.2187(4)
H28 H 0.3763 -0.0911 1.2890
C28 C 0.7981(6) -0.1045(6) 1.0235(6)
H29 H 0.8232 -0.0676 0.9518
H30 H 0.8366 -0.1901 1.0065
H31 H 0.8398 -0.0812 1.0793
C29 C -0.2283(6) 0.1623(6) 1.2376(5)
H32 H -0.1856 0.1930 1.1696
C30 C -0.3746(6) 0.1870(7) 1.2689(6)
H33 H -0.4301 0.2355 1.2250
C31 C -0.4409(6) 0.1410(6) 1.3647(6)
C32 C -0.3536(6) 0.0729(5) 1.4230(6)
H34 H -0.3946 0.0386 1.4889
C33 C -0.2034(5) 0.0525(4) 1.3871(5)
H35 H -0.1445 0.0049 1.4290
C34 C -0.6042(6) 0.1658(8) 1.4045(7)
H36 H -0.6301 0.1260 1.4740
H37 H -0.6325 0.1367 1.3425
H38 H -0.6547 0.2506 1.4224
C35 C -0.2165(5) 0.2284(4) 0.8907(4)
H39 H -0.1588 0.2438 0.9338
C36 C -0.3656(5) 0.2854(4) 0.9290(4)
H40 H -0.4081 0.3371 0.9984
C37 C -0.4526(5) 0.2672(4) 0.8666(4)
C38 C -0.3832(5) 0.1889(4) 0.7665(4)
H41 H -0.4380 0.1735 0.7207
C39 C -0.2373(5) 0.1344(5) 0.7342(4)
H42 H -0.1935 0.0811 0.6659
C40 C -0.6126(5) 0.3251(5) 0.9075(5)
H43 H -0.6401 0.3754 0.9795
H44 H -0.6592 0.2650 0.9217
H45 H -0.6438 0.3729 0.8481
C41 C -0.2436(5) 0.5936(4) 1.2702(4)
H46 H -0.1988 0.5369 1.2045
C42 C -0.3915(5) 0.6265(4) 1.3196(4)
H47 H -0.4462 0.5932 1.2872
C43 C -0.4611(5) 0.7083(4) 1.4169(4)
C44 C -0.3747(5) 0.7549(4) 1.4587(4)
H48 H -0.4168 0.8122 1.5238
C45 C -0.2267(5) 0.7171(4) 1.4046(4)
H49 H -0.1688 0.7483 1.4353
C46 C -0.6226(5) 0.7432(4) 1.4716(5)
H50 H -0.6618 0.6998 1.4288
H51 H -0.6675 0.8277 1.4692
H52 H -0.6434 0.7247 1.5524
Fe2_2 Fe 0.09622(5) 0.05824(4) 0.23284(4)
Fe2_3 Fe 0.09622(5) 1.05824(4) 1.23284(4)
Fe3_2 Fe 0.08313(6) 1.06624(5) 0.73516(5)
Fe4_2 Fe 0.07518(6) 0.56463(5) 0.24206(5)
O10_2 O 0.0507(3) -0.0783(3) 0.6865(3)
O12_2 O 0.0743(3) 0.5082(3) 1.3989(3)
O13_2 O 0.0921(3) 0.1203(3) 1.3957(3)
O15_2 O 0.1210(3) -0.1120(3) 1.2884(3)
loop_
_geom_bond_atom_site_label_1
_geom_bond_atom_site_label_2
_geom_bond_site_symmetry_1
_geom_bond_site_symmetry_2
Fe1 N1 1_555 1_555
Fe2 N3 1_555 1_555
Fe3 N5 1_555 1_555
Fe4 N6 1_555 1_555
N1 C11 1_555 1_555
N2 Fe1 1_555 1_555
N3 C23 1_555 1_555
N4 Fe2 1_555 1_555
N5 C35 1_555 1_555
N6 C41 1_555 1_555
O1 Fe1 1_555 1_555
O2 Fe3 1_555 1_555
O3 Fe2 1_555 1_555
O4 Fe3 1_555 1_555
O5 Fe2 1_555 1_555
O6 Fe4 1_555 1_555
O7 Fe1 1_555 1_555
O8 Fe4 1_555 1_555
O9 Fe1 1_555 1_555
O10 C5 1_555 1_555
O11 Fe1 1_555 1_555
O12 C6 1_555 1_555
O13 C7 1_555 1_555
O14 Fe3 1_555 1_555
O15 C8 1_555 1_555
O16 Fe4 1_555 1_555
O17 Fe3 1_555 1_555
O18 C9 1_555 1_555
O19 Fe4 1_555 1_555
O20 C10 1_555 1_555
C1 O1 1_555 1_555
H1 C1 1_555 1_555
C2 O3 1_555 1_555
H2 C2 1_555 1_555
C3 O5 1_555 1_555
H3 C3 1_555 1_555
C4 O7 1_555 1_555
H4 C4 1_555 1_555
C5 O9 1_555 1_555
H5 C5 1_555 1_555
C6 O11 1_555 1_555
H6 C6 1_555 1_555
C7 O14 1_555 1_555
H7 C7 1_555 1_555
C8 O16 1_555 1_555
H8 C8 1_555 1_555
C9 O17 1_555 1_555
H9 C9 1_555 1_555
C10 O19 1_555 1_555
H10 C10 1_555 1_555
C11 H11 1_555 1_555
C12 C11 1_555 1_555
H12 C12 1_555 1_555
C13 C12 1_555 1_555
C14 C13 1_555 1_555
H13 C14 1_555 1_555
C15 N1 1_555 1_555
H14 C15 1_555 1_555
C16 C13 1_555 1_555
H15 C16 1_555 1_555
H16 C16 1_555 1_555
H17 C16 1_555 1_555
C17 N2 1_555 1_555
H18 C17 1_555 1_555
C18 C17 1_555 1_555
H19 C18 1_555 1_555
C19 C18 1_555 1_555
C20 C19 1_555 1_555
H20 C20 1_555 1_555
C21 N2 1_555 1_555
H21 C21 1_555 1_555
C22 C19 1_555 1_555
H22 C22 1_555 1_555
H23 C22 1_555 1_555
H24 C22 1_555 1_555
C23 H25 1_555 1_555
C24 C23 1_555 1_555
H26 C24 1_555 1_555
C25 C24 1_555 1_555
C26 C25 1_555 1_555
H27 C26 1_555 1_555
C27 N3 1_555 1_555
H28 C27 1_555 1_555
C28 C25 1_555 1_555
H29 C28 1_555 1_555
H30 C28 1_555 1_555
H31 C28 1_555 1_555
C29 N4 1_555 1_555
H32 C29 1_555 1_555
C30 C29 1_555 1_555
H33 C30 1_555 1_555
C31 C30 1_555 1_555
C32 C31 1_555 1_555
H34 C32 1_555 1_555
C33 N4 1_555 1_555
H35 C33 1_555 1_555
C34 C31 1_555 1_555
H36 C34 1_555 1_555
H37 C34 1_555 1_555
H38 C34 1_555 1_555
C35 H39 1_555 1_555
C36 C35 1_555 1_555
H40 C36 1_555 1_555
C37 C36 1_555 1_555
C38 C37 1_555 1_555
H41 C38 1_555 1_555
C39 N5 1_555 1_555
H42 C39 1_555 1_555
C40 C37 1_555 1_555
H43 C40 1_555 1_555
H44 C40 1_555 1_555
H45 C40 1_555 1_555
C41 H46 1_555 1_555
C42 C41 1_555 1_555
H47 C42 1_555 1_555
C43 C42 1_555 1_555
C44 C43 1_555 1_555
H48 C44 1_555 1_555
C45 N6 1_555 1_555
H49 C45 1_555 1_555
C46 C43 1_555 1_555
H50 C46 1_555 1_555
H51 C46 1_555 1_555
H52 C46 1_555 1_555
Fe2_2 O13 1_555 1_555
Fe2_3 O15 1_555 1_555
Fe3_2 O10 1_555 1_555
Fe4_2 O12 1_555 1_555
O10_2 Fe3 1_555 1_555
O12_2 Fe4 1_555 1_555
O13_2 Fe2 1_555 1_555
O15_2 Fe2 1_555 1_555
O2 C1 1_555 1_555
O4 C2 1_555 1_555
O6 C3 1_555 1_555
O8 C4 1_555 1_555
C14 C15 1_555 1_555
C20 C21 1_555 1_555
C26 C27 1_555 1_555
C32 C33 1_555 1_555
C38 C39 1_555 1_555
C44 C45 1_555 1_555

#END
