
#######################################################################
#
#                 Cambridge Crystallographic Data Centre
#                                CCDC 
#
#######################################################################
#
# If this CIF has been generated from an entry in the Cambridge 
# Structural Database, then it will include bibliographic, chemical, 
# crystal, experimental, refinement or atomic coordinate data resulting 
# from the CCDC's data processing and validation procedures.
#
#######################################################################

data_RAZKUZ01
_symmetry_cell_setting           triclinic
_symmetry_space_group_name_H-M   'P 1'
_symmetry_Int_Tables_number      1
_space_group_name_Hall           'P 1'
loop_
_symmetry_equiv_pos_site_id
_symmetry_equiv_pos_as_xyz
1 x,y,z
_cell_length_a                   10.3906(5)
_cell_length_b                   12.1171(5)
_cell_length_c                   12.1148(5)
_cell_angle_alpha                89.959(2)
_cell_angle_beta                 73.008(2)
_cell_angle_gamma                71.968(2)
_cell_volume                     1380.3
loop_
_atom_site_label
_atom_site_type_symbol
_atom_site_fract_x
_atom_site_fract_y
_atom_site_fract_z
Fe1 Fe 0.08790(4) 0.56562(3) 0.73952(4)
Fe2 Fe 0.09555(4) 0.05905(3) 1.23401(4)
Fe3 Fe 0.08144(5) 0.06591(3) 0.73688(4)
Fe4 Fe 0.07346(5) 0.56534(4) 1.24173(4)
N1 N 0.3254(4) 0.5095(3) 0.6754(4)
N2 N -0.1468(4) 0.6226(3) 0.8128(4)
N3 N 0.3328(4) 0.0055(3) 1.1713(4)
N4 N -0.1399(4) 0.1058(4) 1.2940(4)
N5 N -0.1506(4) 0.1455(3) 0.7957(4)
N6 N -0.1586(4) 0.6289(3) 1.3128(4)
O1 O 0.0999(3) 0.3971(2) 0.7925(3)
O2 O 0.0931(3) 0.2176(2) 0.7923(3)
O3 O 0.0912(3) 0.0034(2) 1.0706(3)
O4 O 0.0700(3) 0.0130(2) 0.8949(3)
O5 O 0.0792(3) 0.2280(2) 1.1785(3)
O6 O 0.0590(3) 0.4150(2) 1.1873(3)
O7 O 0.0911(3) 0.6238(2) 0.9027(3)
O8 O 0.0584(3) 0.6283(2) 1.0915(3)
O9 O 0.0718(3) 0.7336(2) 0.6837(3)
O10 O 0.0552(3) 0.91939(19) 0.6864(3)
O11 O 0.0812(3) 0.5078(2) 0.5772(3)
O12 O 0.0753(3) 0.5093(2) 0.3967(3)
O13 O 0.0916(3) 0.1199(2) 0.3973(3)
O14 O 0.0758(3) 0.1254(2) 0.5833(3)
O15 O 0.1092(3) 0.8909(2) 1.2904(3)
O16 O 0.0770(3) 0.7202(2) 1.2992(3)
O17 O 0.2900(5) -0.0074(3) 0.6841(4)
O18 O 0.5123(4) -0.0290(4) 0.6648(5)
O19 O 0.2810(5) 0.5031(4) 1.1795(4)
O20 O 0.5033(4) 0.4599(5) 1.1692(5)
C1 C 0.0932(7) 0.3091(6) 0.7430(7)
H1 H 0.0881 0.3114 0.6676
C2 C 0.0853(7) 0.0536(6) 0.9848(7)
H2 H 0.0925 0.1282 0.9849
C3 C 0.0824(6) 0.3159(6) 1.2263(6)
H3 H 0.1034 0.3095 1.2960
C4 C 0.0809(6) 0.5764(5) 0.9949(6)
H4 H 0.0907 0.4974 0.9918
C5 C 0.0788(6) 0.8212(5) 0.7278(6)
H5 H 0.1030 0.8158 0.7961
C6 C 0.0780(7) 0.5563(6) 0.4889(7)
H6 H 0.0777 0.6332 0.4895
C7 C 0.0926(6) 0.0732(5) 0.4879(6)
H7 H 0.1067 -0.0065 0.4854
C8 C 0.0893(7) 0.8068(6) 1.2447(7)
H8 H 0.0836 0.8087 1.1695
C9 C 0.3822(6) 0.0126(7) 0.7034(8)
H9 H 0.3522 0.0738 0.7611
C10 C 0.3746(7) 0.4979(8) 1.2083(8)
H10 H 0.3465 0.5324 1.2838
C11 C 0.3998(5) 0.4263(4) 0.5874(5)
H11 H 0.3509 0.3927 0.5521
C12 C 0.5473(5) 0.3884(4) 0.5469(5)
H12 H 0.5943 0.3307 0.4850
C13 C 0.6242(5) 0.4334(4) 0.5955(6)
C14 C 0.5474(5) 0.5218(5) 0.6815(5)
H13 H 0.5943 0.5599 0.7145
C15 C 0.4007(5) 0.5556(4) 0.7204(4)
H14 H 0.3523 0.6140 0.7815
C16 C 0.7836(6) 0.3942(7) 0.5501(9)
H15 H 0.8159 0.3370 0.4848
H16 H 0.8224 0.3607 0.6099
H17 H 0.8144 0.4599 0.5266
C17 C -0.2116(5) 0.5726(5) 0.9020(5)
H18 H -0.1555 0.5093 0.9286
C18 C -0.3579(6) 0.6101(5) 0.9565(6)
H19 H -0.3964 0.5725 1.0183
C19 C -0.4443(6) 0.7012(5) 0.9202(6)
C20 C -0.3813(6) 0.7526(4) 0.8291(6)
H20 H -0.4369 0.8157 0.8018
C21 C -0.2316(5) 0.7106(4) 0.7755(5)
H21 H -0.1916 0.7458 0.7122
C22 C -0.6053(6) 0.7470(6) 0.9745(7)
H22 H -0.6333 0.7017 1.0366
H23 H -0.6501 0.7409 0.9168
H24 H -0.6340 0.8271 1.0044
C23 C 0.4017(5) 0.0458(4) 1.0773(5)
H25 H 0.3484 0.0988 1.0389
C24 C 0.5472(5) 0.0127(5) 1.0346(5)
H26 H 0.5897 0.0444 0.9696
C25 C 0.6311(4) -0.0669(4) 1.0871(5)
C26 C 0.5609(5) -0.1086(4) 1.1803(5)
H27 H 0.6124 -0.1628 1.2189
C27 C 0.4128(5) -0.0725(4) 1.2205(5)
H28 H 0.3686 -0.1046 1.2844
C28 C 0.7893(6) -0.1058(6) 1.0424(8)
H29 H 0.8187 -0.0716 0.9718
H30 H 0.8253 -0.1893 1.0274
H31 H 0.8258 -0.0818 1.0990
C29 C -0.2200(5) 0.1772(5) 1.2375(6)
H32 H -0.1760 0.2121 1.1760
C30 C -0.3654(6) 0.2010(6) 1.2671(7)
H33 H -0.4172 0.2531 1.2271
C31 C -0.4345(6) 0.1484(7) 1.3552(8)
C32 C -0.3529(6) 0.0757(5) 1.4107(6)
H34 H -0.3949 0.0388 1.4714
C33 C -0.2079(5) 0.0550(4) 1.3787(5)
H35 H -0.1551 0.0032 1.4183
C34 C -0.5956(6) 0.1802(8) 1.3827(8)
H36 H -0.6327 0.1450 1.4506
H37 H -0.6169 0.1521 1.3183
H38 H -0.6385 0.2634 1.3965
C35 C -0.2183(4) 0.2284(3) 0.8852(4)
H39 H -0.1646 0.2500 0.9253
C36 C -0.3635(5) 0.2832(4) 0.9207(5)
H40 H -0.4050 0.3387 0.9847
C37 C -0.4479(5) 0.2567(4) 0.8627(5)
C38 C -0.3784(5) 0.1708(5) 0.7699(5)
H41 H -0.4303 0.1480 0.7289
C39 C -0.2308(5) 0.1183(4) 0.7379(4)
H42 H -0.1865 0.0626 0.6741
C40 C -0.6072(6) 0.3117(5) 0.9030(7)
H43 H -0.6356 0.3612 0.9735
H44 H -0.6509 0.2517 0.9167
H45 H -0.6367 0.3571 0.8445
C41 C -0.2385(4) 0.5835(4) 1.2699(4)
H46 H -0.1947 0.5302 1.2041
C42 C -0.3855(5) 0.6136(4) 1.3209(5)
H47 H -0.4373 0.5779 1.2912
C43 C -0.4536(5) 0.6962(4) 1.4151(5)
C44 C -0.3705(5) 0.7452(4) 1.4575(5)
H48 H -0.4119 0.8017 1.5206
C45 C -0.2283(5) 0.7091(3) 1.4049(4)
H49 H -0.1745 0.7424 1.4348
C46 C -0.6153(6) 0.7324(5) 1.4701(6)
H50 H -0.6537 0.6901 1.4283
H51 H -0.6565 0.8145 1.4669
H52 H -0.6371 0.7152 1.5495
Fe2_2 Fe 0.09555(4) 0.05905(3) 0.23401(4)
Fe2_3 Fe 0.09555(4) 1.05905(3) 1.23401(4)
Fe3_2 Fe 0.08144(5) 1.06591(3) 0.73688(4)
Fe4_2 Fe 0.07346(5) 0.56534(4) 0.24173(4)
O10_2 O 0.0552(3) -0.08061(19) 0.6864(3)
O12_2 O 0.0753(3) 0.5093(2) 1.3967(3)
O13_2 O 0.0916(3) 0.1199(2) 1.3973(3)
O15_2 O 0.1092(3) -0.1091(2) 1.2904(3)
loop_
_geom_bond_atom_site_label_1
_geom_bond_atom_site_label_2
_geom_bond_site_symmetry_1
_geom_bond_site_symmetry_2
Fe1 N1 1_555 1_555
Fe2 N3 1_555 1_555
Fe3 N5 1_555 1_555
Fe4 N6 1_555 1_555
N1 C11 1_555 1_555
N2 Fe1 1_555 1_555
N3 C23 1_555 1_555
N4 Fe2 1_555 1_555
N5 C35 1_555 1_555
N6 C41 1_555 1_555
O1 Fe1 1_555 1_555
O2 Fe3 1_555 1_555
O3 Fe2 1_555 1_555
O4 Fe3 1_555 1_555
O5 Fe2 1_555 1_555
O6 Fe4 1_555 1_555
O7 Fe1 1_555 1_555
O8 Fe4 1_555 1_555
O9 Fe1 1_555 1_555
O10 C5 1_555 1_555
O11 Fe1 1_555 1_555
O12 C6 1_555 1_555
O13 C7 1_555 1_555
O14 Fe3 1_555 1_555
O15 C8 1_555 1_555
O16 Fe4 1_555 1_555
O17 Fe3 1_555 1_555
O18 C9 1_555 1_555
O19 Fe4 1_555 1_555
O20 C10 1_555 1_555
C1 O1 1_555 1_555
H1 C1 1_555 1_555
C2 O3 1_555 1_555
H2 C2 1_555 1_555
C3 O5 1_555 1_555
H3 C3 1_555 1_555
C4 O7 1_555 1_555
H4 C4 1_555 1_555
C5 O9 1_555 1_555
H5 C5 1_555 1_555
C6 O11 1_555 1_555
H6 C6 1_555 1_555
C7 O14 1_555 1_555
H7 C7 1_555 1_555
C8 O16 1_555 1_555
H8 C8 1_555 1_555
C9 O17 1_555 1_555
H9 C9 1_555 1_555
C10 O19 1_555 1_555
H10 C10 1_555 1_555
C11 H11 1_555 1_555
C12 C11 1_555 1_555
H12 C12 1_555 1_555
C13 C12 1_555 1_555
C14 C13 1_555 1_555
H13 C14 1_555 1_555
C15 N1 1_555 1_555
H14 C15 1_555 1_555
C16 C13 1_555 1_555
H15 C16 1_555 1_555
H16 C16 1_555 1_555
H17 C16 1_555 1_555
C17 N2 1_555 1_555
H18 C17 1_555 1_555
C18 C17 1_555 1_555
H19 C18 1_555 1_555
C19 C18 1_555 1_555
C20 C19 1_555 1_555
H20 C20 1_555 1_555
C21 N2 1_555 1_555
H21 C21 1_555 1_555
C22 C19 1_555 1_555
H22 C22 1_555 1_555
H23 C22 1_555 1_555
H24 C22 1_555 1_555
C23 H25 1_555 1_555
C24 C23 1_555 1_555
H26 C24 1_555 1_555
C25 C24 1_555 1_555
C26 C25 1_555 1_555
H27 C26 1_555 1_555
C27 N3 1_555 1_555
H28 C27 1_555 1_555
C28 C25 1_555 1_555
H29 C28 1_555 1_555
H30 C28 1_555 1_555
H31 C28 1_555 1_555
C29 N4 1_555 1_555
H32 C29 1_555 1_555
C30 C29 1_555 1_555
H33 C30 1_555 1_555
C31 C30 1_555 1_555
C32 C31 1_555 1_555
H34 C32 1_555 1_555
C33 N4 1_555 1_555
H35 C33 1_555 1_555
C34 C31 1_555 1_555
H36 C34 1_555 1_555
H37 C34 1_555 1_555
H38 C34 1_555 1_555
C35 H39 1_555 1_555
C36 C35 1_555 1_555
H40 C36 1_555 1_555
C37 C36 1_555 1_555
C38 C37 1_555 1_555
H41 C38 1_555 1_555
C39 N5 1_555 1_555
H42 C39 1_555 1_555
C40 C37 1_555 1_555
H43 C40 1_555 1_555
H44 C40 1_555 1_555
H45 C40 1_555 1_555
C41 H46 1_555 1_555
C42 C41 1_555 1_555
H47 C42 1_555 1_555
C43 C42 1_555 1_555
C44 C43 1_555 1_555
H48 C44 1_555 1_555
C45 N6 1_555 1_555
H49 C45 1_555 1_555
C46 C43 1_555 1_555
H50 C46 1_555 1_555
H51 C46 1_555 1_555
H52 C46 1_555 1_555
Fe2_2 O13 1_555 1_555
Fe2_3 O15 1_555 1_555
Fe3_2 O10 1_555 1_555
Fe4_2 O12 1_555 1_555
O10_2 Fe3 1_555 1_555
O12_2 Fe4 1_555 1_555
O13_2 Fe2 1_555 1_555
O15_2 Fe2 1_555 1_555
O2 C1 1_555 1_555
O4 C2 1_555 1_555
O6 C3 1_555 1_555
O8 C4 1_555 1_555
C14 C15 1_555 1_555
C20 C21 1_555 1_555
C26 C27 1_555 1_555
C32 C33 1_555 1_555
C38 C39 1_555 1_555
C44 C45 1_555 1_555

#END
