
#######################################################################
#
#                 Cambridge Crystallographic Data Centre
#                                CCDC 
#
#######################################################################
#
# If this CIF has been generated from an entry in the Cambridge 
# Structural Database, then it will include bibliographic, chemical, 
# crystal, experimental, refinement or atomic coordinate data resulting 
# from the CCDC's data processing and validation procedures.
#
#######################################################################

data_RAZTIW
_symmetry_cell_setting           monoclinic
_symmetry_space_group_name_H-M   'P 21/c'
_symmetry_Int_Tables_number      14
_space_group_name_Hall           '-P 2ybc'
loop_
_symmetry_equiv_pos_site_id
_symmetry_equiv_pos_as_xyz
1 x,y,z
2 -x,1/2+y,1/2-z
3 -x,-y,-z
4 x,1/2-y,1/2+z
_cell_length_a                   5.8519(2)
_cell_length_b                   21.6843(7)
_cell_length_c                   13.3438(3)
_cell_angle_alpha                90
_cell_angle_beta                 99.3890(18)
_cell_angle_gamma                90
_cell_volume                     1670.57
loop_
_atom_site_label
_atom_site_type_symbol
_atom_site_fract_x
_atom_site_fract_y
_atom_site_fract_z
Mn1 Mn 0.0000 0.5000 0.5000
F1 F 0.69612(11) 0.75407(3) 0.65266(5)
O1 O -0.22315(11) 0.49995(3) 0.61076(5)
O2 O 0.15276(11) 0.57821(3) 0.58448(4)
O3 O -0.36111(15) 0.51349(4) 0.75282(6)
N1 N 0.73193(13) 0.93794(3) 0.89432(5)
N2 N -0.00208(15) 0.66977(3) 0.83404(5)
N3 N 0.26861(14) 0.74560(3) 0.81696(5)
N4 N 0.53217(14) 0.82357(3) 0.80707(5)
C1 C 0.63545(19) 0.89096(4) 0.95309(7)
H1 H 0.5746 0.9109 1.0083
H2 H 0.7593 0.8636 0.9830
C2 C 0.80342(19) 0.90858(4) 0.80504(7)
H3 H 0.9356 0.8822 0.8276
H4 H 0.8528 0.9404 0.7621
C3 C -0.23044(17) 0.52822(4) 0.69232(6)
C4 C -0.07572(17) 0.58363(4) 0.71870(6)
C5 C 0.09984(16) 0.60336(4) 0.66269(6)
C6 C 0.22359(16) 0.65877(4) 0.70146(6)
C7 C 0.16880(16) 0.69205(4) 0.78382(6)
C8 C -0.11461(18) 0.61770(4) 0.80060(7)
H5 H -0.2285 0.6037 0.8362
C9 C -0.05795(19) 0.70069(5) 0.92626(7)
H6 H -0.0423 0.7450 0.9194
H7 H -0.2174 0.6919 0.9328
C10 C 0.0966(3) 0.67952(9) 1.01835(9)
H8 H 0.0568 0.7002 1.0767
H9 H 0.2543 0.6887 1.0124
H10 H 0.0792 0.6358 1.0259
C11 C 0.40667(17) 0.68215(4) 0.65758(7)
H11 H 0.4561 0.6612 0.6042
C12 C 0.51090(17) 0.73465(4) 0.69235(7)
C13 C 0.43380(16) 0.76935(4) 0.77154(6)
C14 C 0.44570(19) 0.85284(5) 0.89277(8)
H12 H 0.3949 0.8214 0.9360
H13 H 0.3142 0.8790 0.8677
C15 C 0.6149(2) 0.87055(4) 0.74245(7)
H14 H 0.4875 0.8971 0.7138
H15 H 0.6752 0.8508 0.6870
Mn1C Mn 1.0000 1.0000 1.0000
Mn1C_2 Mn -1.0000 0.0000 0.0000
F1B F -0.69612(11) 0.24593(3) 0.34734(5)
O1B O 0.22315(11) 0.50005(3) 0.38924(5)
O2B O -0.15276(11) 0.42179(3) 0.41552(4)
O3B O 0.36111(15) 0.48651(4) 0.24718(6)
N1B N -0.73193(13) 0.06206(3) 0.10568(5)
N1C N -0.26807(13) 0.56206(3) 0.39432(5)
N1A N 0.26807(13) 0.43794(3) 0.60568(5)
N2B N 0.00208(15) 0.33023(3) 0.16596(5)
N3B N -0.26861(14) 0.25440(3) 0.18304(5)
N4B N -0.53217(14) 0.17643(3) 0.19293(5)
C1B C -0.63545(19) 0.10904(4) 0.04691(7)
H1B H -0.5746 0.0891 -0.0083
H2B H -0.7593 0.1364 0.0170
C2B C -0.80342(19) 0.09142(4) 0.19496(7)
H3B H -0.9356 0.1178 0.1724
H4B H -0.8528 0.0596 0.2379
C3B C 0.23044(17) 0.47178(4) 0.30768(6)
C4B C 0.07572(17) 0.41637(4) 0.28130(6)
C5B C -0.09984(16) 0.39664(4) 0.33731(6)
C6B C -0.22359(16) 0.34123(4) 0.29854(6)
C7B C -0.16880(16) 0.30795(4) 0.21618(6)
C8B C 0.11461(18) 0.38230(4) 0.19940(7)
H5B H 0.2285 0.3963 0.1638
C9B C 0.05795(19) 0.29931(5) 0.07374(7)
H6B H 0.0423 0.2550 0.0806
H7B H 0.2174 0.3081 0.0672
C10B C -0.0966(3) 0.32048(9) -0.01835(9)
H8B H -0.0568 0.2998 -0.0767
H9B H -0.2543 0.3113 -0.0124
H10B H -0.0792 0.3642 -0.0259
C11B C -0.40667(17) 0.31785(4) 0.34242(7)
H11B H -0.4561 0.3388 0.3958
C12B C -0.51090(17) 0.26535(4) 0.30765(7)
C13B C -0.43380(16) 0.23065(4) 0.22846(6)
C14B C -0.44570(19) 0.14716(5) 0.10723(8)
H12B H -0.3949 0.1786 0.0640
H13B H -0.3142 0.1210 0.1323
C15B C -0.6149(2) 0.12945(4) 0.25755(7)
H14B H -0.4875 0.1029 0.2862
H15B H -0.6752 0.1492 0.3130
O4 O -0.5657(6) 0.5455(2) 0.9215(2)
O5 O 0.1669(8) 0.51125(15) 1.0418(2)
loop_
_geom_bond_atom_site_label_1
_geom_bond_atom_site_label_2
_geom_bond_site_symmetry_1
_geom_bond_site_symmetry_2
Mn1 O1 1_555 1_555
F1 C12 1_555 1_555
O1 C3 1_555 1_555
O2 Mn1 1_555 1_555
O3 C3 1_555 1_555
N1 C1 1_555 1_555
N2 C7 1_555 1_555
N3 C7 1_555 1_555
N4 C13 1_555 1_555
C1 H1 1_555 1_555
H2 C1 1_555 1_555
C2 N1 1_555 1_555
H3 C2 1_555 1_555
H4 C2 1_555 1_555
C3 C4 1_555 1_555
C4 C5 1_555 1_555
C5 O2 1_555 1_555
C6 C5 1_555 1_555
C7 C6 1_555 1_555
C8 N2 1_555 1_555
H5 C8 1_555 1_555
C9 N2 1_555 1_555
H6 C9 1_555 1_555
H7 C9 1_555 1_555
C10 C9 1_555 1_555
H8 C10 1_555 1_555
H9 C10 1_555 1_555
H10 C10 1_555 1_555
C11 C6 1_555 1_555
H11 C11 1_555 1_555
C12 C11 1_555 1_555
C13 N3 1_555 1_555
C14 N4 1_555 1_555
H12 C14 1_555 1_555
H13 C14 1_555 1_555
C15 N4 1_555 1_555
H14 C15 1_555 1_555
H15 C15 1_555 1_555
Mn1C N1 1_555 1_555
Mn1C_2 N1B 1_555 1_555
F1B C12B 1_555 1_555
O1B Mn1 1_555 1_555
O2B Mn1 1_555 1_555
O3B C3B 1_555 1_555
N1B C1B 1_555 1_555
N1C Mn1 1_555 1_555
N1A Mn1 1_555 1_555
N2B C7B 1_555 1_555
N3B C7B 1_555 1_555
N4B C13B 1_555 1_555
C1B H1B 1_555 1_555
H2B C1B 1_555 1_555
C2B N1B 1_555 1_555
H3B C2B 1_555 1_555
H4B C2B 1_555 1_555
C3B O1B 1_555 1_555
C4B C3B 1_555 1_555
C5B O2B 1_555 1_555
C6B C5B 1_555 1_555
C7B C6B 1_555 1_555
C8B N2B 1_555 1_555
H5B C8B 1_555 1_555
C9B N2B 1_555 1_555
H6B C9B 1_555 1_555
H7B C9B 1_555 1_555
C10B C9B 1_555 1_555
H8B C10B 1_555 1_555
H9B C10B 1_555 1_555
H10B C10B 1_555 1_555
C11B C6B 1_555 1_555
H11B C11B 1_555 1_555
C12B C11B 1_555 1_555
C13B N3B 1_555 1_555
C14B N4B 1_555 1_555
H12B C14B 1_555 1_555
H13B C14B 1_555 1_555
C15B N4B 1_555 1_555
H14B C15B 1_555 1_555
H15B C15B 1_555 1_555
C1 C14 1_555 1_555
C2 C15 1_555 1_555
C4 C8 1_555 1_555
C12 C13 1_555 1_555
C1B C14B 1_555 1_555
C2B C15B 1_555 1_555
C4B C5B 1_555 1_555
C4B C8B 1_555 1_555
C12B C13B 1_555 1_555

#END
