
#######################################################################
#
#                 Cambridge Crystallographic Data Centre
#                                CCDC 
#
#######################################################################
#
# If this CIF has been generated from an entry in the Cambridge 
# Structural Database, then it will include bibliographic, chemical, 
# crystal, experimental, refinement or atomic coordinate data resulting 
# from the CCDC's data processing and validation procedures.
#
#######################################################################

data_RAZYEX
_symmetry_cell_setting           monoclinic
_symmetry_space_group_name_H-M   'P 21/c'
_symmetry_Int_Tables_number      14
_space_group_name_Hall           '-P 2ybc'
loop_
_symmetry_equiv_pos_site_id
_symmetry_equiv_pos_as_xyz
1 x,y,z
2 -x,1/2+y,1/2-z
3 -x,-y,-z
4 x,1/2-y,1/2+z
_cell_length_a                   6.7493(13)
_cell_length_b                   10.667(2)
_cell_length_c                   6.3102(13)
_cell_angle_alpha                90
_cell_angle_beta                 106.81(3)
_cell_angle_gamma                90
_cell_volume                     434.889
loop_
_atom_site_label
_atom_site_type_symbol
_atom_site_fract_x
_atom_site_fract_y
_atom_site_fract_z
Cu1 Cu 0.0000 0.0000 0.0000
Cl1 Cl 0.07455(11) -0.13990(8) 0.27510(12)
N1 N 0.2978(3) 0.00396(19) 0.0036(4)
C1 C 0.3795(5) 0.1474(3) 0.3206(5)
H1 H 0.2334 0.1387 0.2990
H2 H 0.4116 0.2337 0.3025
H3 H 0.4533 0.1201 0.4671
C2 C 0.3539(4) -0.0638(3) -0.1474(4)
H4 H 0.2535 -0.1091 -0.2513
C3 C 0.4421(4) 0.0688(2) 0.1538(4)
Cu1_2 Cu 1.0000 0.0000 0.0000
Cl1B Cl -0.07455(11) 0.13990(8) -0.27510(12)
N1B N 0.7022(3) -0.00396(19) -0.0036(4)
N1B_2 N -0.2978(3) -0.00396(19) -0.0036(4)
C1B C 0.6205(5) -0.1474(3) -0.3206(5)
H1B H 0.7666 -0.1387 -0.2990
H2B H 0.5884 -0.2337 -0.3025
H3B H 0.5467 -0.1201 -0.4671
C2B C 0.6461(4) 0.0638(3) 0.1474(4)
H4B H 0.7465 0.1091 0.2513
C3B C 0.5579(4) -0.0688(2) -0.1538(4)
loop_
_geom_bond_atom_site_label_1
_geom_bond_atom_site_label_2
_geom_bond_site_symmetry_1
_geom_bond_site_symmetry_2
Cu1 Cl1 1_555 1_555
N1 Cu1 1_555 1_555
C1 H1 1_555 1_555
H2 C1 1_555 1_555
H3 C1 1_555 1_555
C2 N1 1_555 1_555
H4 C2 1_555 1_555
C3 N1 1_555 1_555
Cu1_2 N1B 1_555 1_555
Cl1B Cu1 1_555 1_555
N1B C2B 1_555 1_555
N1B_2 Cu1 1_555 1_555
C1B H1B 1_555 1_555
H2B C1B 1_555 1_555
H3B C1B 1_555 1_555
C2B C3 1_555 1_555
H4B C2B 1_555 1_555
C3B C2 1_555 1_555
C1 C3 1_555 1_555
N1B C3B 1_555 1_555
C1B C3B 1_555 1_555

#END
