
#######################################################################
#
#                 Cambridge Crystallographic Data Centre
#                                CCDC 
#
#######################################################################
#
# If this CIF has been generated from an entry in the Cambridge 
# Structural Database, then it will include bibliographic, chemical, 
# crystal, experimental, refinement or atomic coordinate data resulting 
# from the CCDC's data processing and validation procedures.
#
#######################################################################

data_RBCUPH
_symmetry_cell_setting           monoclinic
_symmetry_space_group_name_H-M   'C 2/c'
_symmetry_Int_Tables_number      15
_space_group_name_Hall           '-C 2yn'
loop_
_symmetry_equiv_pos_site_id
_symmetry_equiv_pos_as_xyz
1 x,y,z
2 1/2+x,1/2+y,z
3 -x,y,1/2-z
4 1/2-x,1/2+y,1/2-z
5 -x,-y,-z
6 1/2-x,1/2-y,-z
7 x,-y,1/2+z
8 1/2+x,1/2-y,1/2+z
_cell_length_a                   21.919(15)
_cell_length_b                   7.827(7)
_cell_length_c                   11.191(10)
_cell_angle_alpha                90
_cell_angle_beta                 101.8(3)
_cell_angle_gamma                90
_cell_volume                     1879.36
loop_
_atom_site_label
_atom_site_type_symbol
_atom_site_fract_x
_atom_site_fract_y
_atom_site_fract_z
Cu1 Cu 0.00000 0.37180 0.25000
O1 O -0.06570 0.65760 0.14360
O2 O -0.07330 0.37560 0.11540
O3 O -0.05350 0.62140 -0.13380
O4 O -0.10100 0.86790 -0.19160
C1 C -0.15250 0.55140 -0.00270
C2 C -0.15620 0.66100 -0.10190
C3 C -0.21490 0.69930 -0.17260
C4 C -0.26760 0.62020 -0.14660
C5 C -0.26320 0.51100 -0.04800
C6 C -0.20470 0.47480 0.02380
C7 C -0.09160 0.52740 0.09160
C8 C -0.09940 0.72700 -0.14430
H1 H -0.21900 0.78200 -0.24700
H2 H -0.30200 0.63100 -0.20200
H3 H -0.30100 0.45300 -0.02600
H4 H -0.20100 0.39600 0.09800
O2B O 0.07330 0.37560 0.38460
O3F O -0.05350 0.37860 0.36620
C7B C 0.09160 0.52740 0.40840
O3D O 0.05350 0.37860 0.13380
O1B O 0.06570 0.65760 0.35640
C1B C 0.15250 0.55140 0.50270
Cu1D Cu 0.00000 0.62820 -0.25000
C2B C 0.15620 0.66100 0.60190
C6B C 0.20470 0.47480 0.47620
C3B C 0.21490 0.69930 0.67260
C8B C 0.09940 0.72700 0.64430
C5B C 0.26320 0.51100 0.54800
H4B H 0.20100 0.39600 0.40200
C4B C 0.26760 0.62020 0.64660
H1B H 0.21900 0.78200 0.74700
O3B O 0.05350 0.62140 0.63380
O4B O 0.10100 0.86790 0.69160
H3B H 0.30100 0.45300 0.52600
H2B H 0.30200 0.63100 0.70200
Cu1D_2 Cu 0.00000 0.62820 0.75000
Rb1 Rb 0.44720 0.29060 0.39760
O5 O 0.06560 0.00150 0.40120
H5 H 0.07700 0.08800 0.43500
H6 H 0.08800 0.00600 0.31400
loop_
_geom_bond_atom_site_label_1
_geom_bond_atom_site_label_2
_geom_bond_site_symmetry_1
_geom_bond_site_symmetry_2
Cu1 O2 1_555 1_555
O1 C7 1_555 1_555
O2 C7 1_555 1_555
O3 C8 1_555 1_555
O4 C8 1_555 1_555
O5 H5 1_555 1_555
C1 C2 1_555 1_555
C2 C3 1_555 1_555
C3 C4 1_555 1_555
C4 C5 1_555 1_555
C5 C6 1_555 1_555
C6 C1 1_555 1_555
C7 C1 1_555 1_555
C8 C2 1_555 1_555
H1 C3 1_555 1_555
H2 C4 1_555 1_555
H3 C5 1_555 1_555
H4 C6 1_555 1_555
H6 O5 1_555 1_555
O2B Cu1 1_555 1_555
O3F Cu1 1_555 1_555
C7B O2B 1_555 1_555
O3D Cu1 1_555 1_555
O1B C7B 1_555 1_555
C1B C7B 1_555 1_555
Cu1D O3 1_555 1_555
C2B C1B 1_555 1_555
C6B C1B 1_555 1_555
C3B C2B 1_555 1_555
C8B C2B 1_555 1_555
C5B C6B 1_555 1_555
H4B C6B 1_555 1_555
C4B C3B 1_555 1_555
H1B C3B 1_555 1_555
O3B C8B 1_555 1_555
O4B C8B 1_555 1_555
H3B C5B 1_555 1_555
H2B C4B 1_555 1_555
Cu1D_2 O3B 1_555 1_555
C5B C4B 1_555 1_555

#END
