
#######################################################################
#
#                 Cambridge Crystallographic Data Centre
#                                CCDC 
#
#######################################################################
#
# If this CIF has been generated from an entry in the Cambridge 
# Structural Database, then it will include bibliographic, chemical, 
# crystal, experimental, refinement or atomic coordinate data resulting 
# from the CCDC's data processing and validation procedures.
#
#######################################################################

data_RBTCNQ12
_symmetry_cell_setting           triclinic
_symmetry_space_group_name_H-M   'P -1'
_symmetry_Int_Tables_number      2
_space_group_name_Hall           '-P 1'
loop_
_symmetry_equiv_pos_site_id
_symmetry_equiv_pos_as_xyz
1 x,y,z
2 -x,-y,-z
_cell_length_a                   9.8173(2)
_cell_length_b                   7.1482(2)
_cell_length_c                   3.8310(1)
_cell_angle_alpha                88.701(2)
_cell_angle_beta                 85.788(2)
_cell_angle_gamma                97.260(1)
_cell_volume                     265.83
loop_
_atom_site_label
_atom_site_type_symbol
_atom_site_fract_x
_atom_site_fract_y
_atom_site_fract_z
Rb1 Rb 0.0000 0.0000 0.0000
N1 N 0.09067(10) 0.31310(14) -0.5398(3)
N2 N 0.23876(11) 0.91546(15) -0.5676(3)
C1 C 0.38676(12) 0.5398(2) -0.1883(3)
C2 C 0.40189(11) 0.3512(2) -0.0812(3)
C3 C 0.48955(12) 0.6867(2) -0.1001(3)
C4 C 0.27434(12) 0.5788(2) -0.3776(3)
C5 C 0.17227(12) 0.4328(2) -0.4678(3)
C6 C 0.25570(12) 0.7651(2) -0.4829(3)
H1 H 0.3350(17) 0.2501(24) -0.1370(40)
H2 H 0.4807(17) 0.8125(24) -0.1711(40)
Rb1_2 Rb 0.0000 0.0000 -1.0000
Rb1_3 Rb 0.0000 1.0000 -1.0000
Rb1_4 Rb 0.0000 1.0000 0.0000
Rb1_5 Rb 1.0000 1.0000 0.0000
Rb1_6 Rb 1.0000 1.0000 1.0000
Rb1_7 Rb 1.0000 0.0000 1.0000
Rb1_8 Rb 1.0000 0.0000 0.0000
N1A N 0.90933(10) 0.68690(14) 0.5398(3)
N1_2 N 0.09067(10) 0.31310(14) 0.4602(3)
N1A_2 N -0.09067(10) -0.31310(14) 0.5398(3)
N1A_3 N -0.09067(10) -0.31310(14) -0.4602(3)
N2A N 0.76124(11) 0.08454(15) 0.5676(3)
N2_2 N 0.23876(11) -0.08454(15) 0.4324(3)
N2_3 N 0.23876(11) -0.08454(15) -0.5676(3)
N2A_2 N -0.23876(11) 0.08454(15) 0.5676(3)
N2A_3 N -0.23876(11) 0.08454(15) -0.4324(3)
C1A C 0.61324(12) 0.4602(2) 0.1883(3)
C2A C 0.59811(11) 0.6488(2) 0.0812(3)
C3A C 0.51045(12) 0.3133(2) 0.1001(3)
C4A C 0.72566(12) 0.4212(2) 0.3776(3)
C5A C 0.82773(12) 0.5672(2) 0.4678(3)
C6A C 0.74430(12) 0.2349(2) 0.4829(3)
H1A H 0.6650(17) 0.7499(24) 0.1370(40)
H2A H 0.5193(17) 0.1875(24) 0.1711(40)
loop_
_geom_bond_atom_site_label_1
_geom_bond_atom_site_label_2
_geom_bond_site_symmetry_1
_geom_bond_site_symmetry_2
Rb1 N1 1_555 1_555
N1 C5 1_555 1_555
N2 C6 1_555 1_555
C1 C2 1_555 1_555
C2 H1 1_555 1_555
C3 C1 1_555 1_555
C4 C1 1_555 1_555
C5 C4 1_555 1_555
C6 C4 1_555 1_555
H2 C3 1_555 1_555
Rb1_2 N1 1_555 1_555
Rb1_3 N2 1_555 1_555
Rb1_4 N2 1_555 1_555
Rb1_5 N1A 1_555 1_555
Rb1_6 N1A 1_555 1_555
Rb1_7 N2A 1_555 1_555
Rb1_8 N2A 1_555 1_555
N1A C5A 1_555 1_555
N1_2 Rb1 1_555 1_555
N1A_2 Rb1 1_555 1_555
N1A_3 Rb1 1_555 1_555
N2A C6A 1_555 1_555
N2_2 Rb1 1_555 1_555
N2_3 Rb1 1_555 1_555
N2A_2 Rb1 1_555 1_555
N2A_3 Rb1 1_555 1_555
C1A C2A 1_555 1_555
C2A C3 1_555 1_555
C3A C2 1_555 1_555
C4A C1A 1_555 1_555
C5A C4A 1_555 1_555
C6A C4A 1_555 1_555
H1A C2A 1_555 1_555
H2A C3A 1_555 1_555
Rb1_2 N1A_3 1_555 1_555
Rb1_2 N2_3 1_555 1_555
Rb1_2 N2A_3 1_555 1_555
C1A C3A 1_555 1_555

#END
