
#######################################################################
#
#                 Cambridge Crystallographic Data Centre
#                                CCDC 
#
#######################################################################
#
# If this CIF has been generated from an entry in the Cambridge 
# Structural Database, then it will include bibliographic, chemical, 
# crystal, experimental, refinement or atomic coordinate data resulting 
# from the CCDC's data processing and validation procedures.
#
#######################################################################

data_RBTCNQ13
_symmetry_cell_setting           triclinic
_symmetry_space_group_name_H-M   'P -1'
_symmetry_Int_Tables_number      2
_space_group_name_Hall           '-P 1'
loop_
_symmetry_equiv_pos_site_id
_symmetry_equiv_pos_as_xyz
1 x,y,z
2 -x,-y,-z
_cell_length_a                   9.9056(1)
_cell_length_b                   7.1770(1)
_cell_length_c                   3.8871(1)
_cell_angle_alpha                88.615(1)
_cell_angle_beta                 86.800(1)
_cell_angle_gamma                97.417(1)
_cell_volume                     273.467
loop_
_atom_site_label
_atom_site_type_symbol
_atom_site_fract_x
_atom_site_fract_y
_atom_site_fract_z
Rb1 Rb 0.0000 0.0000 0.0000
N1 N 0.09295(13) 0.3123(2) -0.5398(4)
N2 N 0.2381(2) 0.9109(2) -0.5619(4)
C1 C 0.38739(12) 0.5385(2) -0.1880(3)
C2 C 0.40322(13) 0.3517(2) -0.0832(3)
C3 C 0.48885(13) 0.6854(2) -0.0980(3)
C4 C 0.27499(13) 0.5768(2) -0.3768(3)
C5 C 0.17391(13) 0.4313(2) -0.4674(3)
C6 C 0.25583(13) 0.7618(2) -0.4796(4)
H1 H 0.3373(18) 0.2515(26) -0.1407(42)
H2 H 0.4807(17) 0.8142(25) -0.1726(40)
Rb1_2 Rb 0.0000 0.0000 -1.0000
Rb1_3 Rb 0.0000 1.0000 -1.0000
Rb1_4 Rb 0.0000 1.0000 0.0000
Rb1_5 Rb 1.0000 1.0000 0.0000
Rb1_6 Rb 1.0000 1.0000 1.0000
Rb1_7 Rb 1.0000 0.0000 1.0000
Rb1_8 Rb 1.0000 0.0000 0.0000
N1A N 0.90705(13) 0.6877(2) 0.5398(4)
N1_2 N 0.09295(13) 0.3123(2) 0.4602(4)
N1A_2 N -0.09295(13) -0.3123(2) 0.5398(4)
N1A_3 N -0.09295(13) -0.3123(2) -0.4602(4)
N2A N 0.7619(2) 0.0891(2) 0.5619(4)
N2_2 N 0.2381(2) -0.0891(2) 0.4381(4)
N2_3 N 0.2381(2) -0.0891(2) -0.5619(4)
N2A_2 N -0.2381(2) 0.0891(2) 0.5619(4)
N2A_3 N -0.2381(2) 0.0891(2) -0.4381(4)
C1A C 0.61261(12) 0.4615(2) 0.1880(3)
C2A C 0.59678(13) 0.6483(2) 0.0832(3)
C3A C 0.51115(13) 0.3146(2) 0.0980(3)
C4A C 0.72501(13) 0.4232(2) 0.3768(3)
C5A C 0.82609(13) 0.5687(2) 0.4674(3)
C6A C 0.74417(13) 0.2382(2) 0.4796(4)
H1A H 0.6627(18) 0.7485(26) 0.1407(42)
H2A H 0.5193(17) 0.1858(25) 0.1726(40)
loop_
_geom_bond_atom_site_label_1
_geom_bond_atom_site_label_2
_geom_bond_site_symmetry_1
_geom_bond_site_symmetry_2
Rb1 N1 1_555 1_555
N1 C5 1_555 1_555
N2 C6 1_555 1_555
C1 C2 1_555 1_555
C2 H1 1_555 1_555
C3 C1 1_555 1_555
C4 C1 1_555 1_555
C5 C4 1_555 1_555
C6 C4 1_555 1_555
H2 C3 1_555 1_555
Rb1_2 N1 1_555 1_555
Rb1_3 N2 1_555 1_555
Rb1_4 N2 1_555 1_555
Rb1_5 N1A 1_555 1_555
Rb1_6 N1A 1_555 1_555
Rb1_7 N2A 1_555 1_555
Rb1_8 N2A 1_555 1_555
N1A C5A 1_555 1_555
N1_2 Rb1 1_555 1_555
N1A_2 Rb1 1_555 1_555
N1A_3 Rb1 1_555 1_555
N2A C6A 1_555 1_555
N2_2 Rb1 1_555 1_555
N2_3 Rb1 1_555 1_555
N2A_2 Rb1 1_555 1_555
N2A_3 Rb1 1_555 1_555
C1A C2A 1_555 1_555
C2A C3 1_555 1_555
C3A C2 1_555 1_555
C4A C1A 1_555 1_555
C5A C4A 1_555 1_555
C6A C4A 1_555 1_555
H1A C2A 1_555 1_555
H2A C3A 1_555 1_555
Rb1_2 N1A_3 1_555 1_555
Rb1_2 N2_3 1_555 1_555
Rb1_2 N2A_3 1_555 1_555
C1A C3A 1_555 1_555

#END
