
#######################################################################
#
#                 Cambridge Crystallographic Data Centre
#                                CCDC 
#
#######################################################################
#
# If this CIF has been generated from an entry in the Cambridge 
# Structural Database, then it will include bibliographic, chemical, 
# crystal, experimental, refinement or atomic coordinate data resulting 
# from the CCDC's data processing and validation procedures.
#
#######################################################################

data_REBDOR
_symmetry_cell_setting           monoclinic
_symmetry_space_group_name_H-M   'P 21/c'
_symmetry_Int_Tables_number      14
_space_group_name_Hall           '-P 2ybc'
loop_
_symmetry_equiv_pos_site_id
_symmetry_equiv_pos_as_xyz
1 x,y,z
2 -x,1/2+y,1/2-z
3 -x,-y,-z
4 x,1/2-y,1/2+z
_cell_length_a                   16.769(2)
_cell_length_b                   23.873(6)
_cell_length_c                   6.523(2)
_cell_angle_alpha                90
_cell_angle_beta                 98.37(3)
_cell_angle_gamma                90
_cell_volume                     2583.51
loop_
_atom_site_label
_atom_site_type_symbol
_atom_site_fract_x
_atom_site_fract_y
_atom_site_fract_z
Cu1 Cu 0.1927(1) 0.11914(6) -0.3921(2)
Br1 Br 0.1232(1) 0.14316(7) -0.1024(2)
N1 N 0.2857(7) 0.1539(4) -0.526(2)
C1 C 0.360(1) 0.1417(6) -0.435(2)
C2 C 0.428(1) 0.1609(6) -0.506(3)
C3 C 0.421(1) 0.1930(7) -0.683(3)
C4 C 0.345(1) 0.2045(6) -0.782(2)
C5 C 0.2774(9) 0.1847(5) -0.700(2)
N2 N 0.2880(7) 0.0894(5) -0.212(2)
C6 C 0.363(1) 0.1057(6) -0.249(2)
C7 C 0.430(1) 0.0881(6) -0.128(3)
C8 C 0.426(1) 0.0541(7) 0.043(3)
C9 C 0.351(1) 0.0386(7) 0.083(3)
C10 C 0.2845(9) 0.0566(5) -0.045(2)
N3 N 0.0979(6) 0.1489(4) -0.579(2)
C11 C 0.0450(8) 0.1113(5) -0.667(2)
C12 C -0.0301(8) 0.1289(6) -0.769(2)
C13 C -0.0519(9) 0.1838(6) -0.777(2)
C14 C 0.0046(9) 0.2213(6) -0.690(2)
C15 C 0.0783(9) 0.2041(5) -0.591(2)
N4 N 0.1468(7) 0.0450(4) -0.533(2)
C16 C 0.0742(8) 0.0527(5) -0.646(2)
C17 C 0.0293(9) 0.0084(5) -0.736(2)
C18 C 0.055(1) -0.0454(7) -0.713(2)
C19 C 0.129(1) -0.0532(5) -0.595(2)
C20 C 0.1701(8) -0.0077(6) -0.508(2)
Cu2 Cu 0.6738(2) 0.12833(9) -0.7711(4)
Cu3 Cu 0.6831(1) 0.24963(9) -0.2416(3)
Cu4 Cu 0.6894(2) 0.12904(9) -0.2727(4)
Br2 Br 0.77087(9) 0.20076(6) -0.4590(2)
Br3 Br 0.6084(1) 0.07762(6) -0.5340(2)
Br4 Br 0.7676(1) 0.09254(6) 0.0261(2)
Br5 Br 0.59210(9) 0.19844(6) -0.0267(2)
Br5C Br 0.59210(9) 0.30156(6) -0.5267(2)
Br4_2 Br 0.7676(1) 0.09254(6) -0.9739(2)
Br5_2 Br 0.59210(9) 0.19844(6) -1.0267(2)
Cu3C Cu 0.6831(1) 0.25037(9) -0.7416(3)
Cu2_2 Cu 0.6738(2) 0.12833(9) 0.2289(4)
Cu3C_2 Cu 0.6831(1) 0.25037(9) 0.2584(3)
Br2C Br 0.77087(9) 0.29924(6) 0.0410(2)
loop_
_geom_bond_atom_site_label_1
_geom_bond_atom_site_label_2
_geom_bond_site_symmetry_1
_geom_bond_site_symmetry_2
Cu1 Br1 1_555 1_555
Cu2 Br2 1_555 1_555
Cu3 Br2 1_555 1_555
Cu4 Br2 1_555 1_555
Br2 Cu3C 1_555 1_555
Br3 Cu2 1_555 1_555
Br4 Cu4 1_555 1_555
Br5 Cu3 1_555 1_555
N1 Cu1 1_555 1_555
C1 N1 1_555 1_555
C2 C1 1_555 1_555
C3 C2 1_555 1_555
C4 C3 1_555 1_555
C5 N1 1_555 1_555
N2 Cu1 1_555 1_555
C6 C1 1_555 1_555
C7 C6 1_555 1_555
C8 C7 1_555 1_555
C9 C8 1_555 1_555
C10 N2 1_555 1_555
N3 Cu1 1_555 1_555
C11 N3 1_555 1_555
C12 C11 1_555 1_555
C13 C12 1_555 1_555
C14 C13 1_555 1_555
C15 N3 1_555 1_555
N4 Cu1 1_555 1_555
C16 C11 1_555 1_555
C17 C16 1_555 1_555
C18 C17 1_555 1_555
C19 C18 1_555 1_555
C20 N4 1_555 1_555
Br5C Cu3 1_555 1_555
Br4_2 Cu2 1_555 1_555
Br5_2 Cu2 1_555 1_555
Cu3C Br5C 1_555 1_555
Cu2_2 Br4 1_555 1_555
Cu3C_2 Br5 1_555 1_555
Br2C Cu3 1_555 1_555
Cu4 Br5 1_555 1_555
Cu4 Br3 1_555 1_555
Br5 Cu2_2 1_555 1_555
C4 C5 1_555 1_555
N2 C6 1_555 1_555
C9 C10 1_555 1_555
C14 C15 1_555 1_555
N4 C16 1_555 1_555
C19 C20 1_555 1_555
Br5_2 Cu3C 1_555 1_555
Cu3C_2 Br2C 1_555 1_555

#END
