
#######################################################################
#
#                 Cambridge Crystallographic Data Centre
#                                CCDC 
#
#######################################################################
#
# If this CIF has been generated from an entry in the Cambridge 
# Structural Database, then it will include bibliographic, chemical, 
# crystal, experimental, refinement or atomic coordinate data resulting 
# from the CCDC's data processing and validation procedures.
#
#######################################################################

data_REBGOV
_symmetry_cell_setting           monoclinic
_symmetry_space_group_name_H-M   'P 21/n'
_symmetry_Int_Tables_number      14
_space_group_name_Hall           '-P 2yn'
loop_
_symmetry_equiv_pos_site_id
_symmetry_equiv_pos_as_xyz
1 x,y,z
2 1/2-x,1/2+y,1/2-z
3 -x,-y,-z
4 1/2+x,1/2-y,1/2+z
_cell_length_a                   10.0561(2)
_cell_length_b                   23.3986(5)
_cell_length_c                   15.3811(3)
_cell_angle_alpha                90
_cell_angle_beta                 96.3170(10)
_cell_angle_gamma                90
_cell_volume                     3597.18
loop_
_atom_site_label
_atom_site_type_symbol
_atom_site_fract_x
_atom_site_fract_y
_atom_site_fract_z
Co1 Co 0.65887(4) 0.153602(15) 0.35708(2)
C1 C 0.7020(4) 0.06948(14) 0.5082(2)
H1 H 0.7224 0.1018 0.5423
C2 C 0.7087(4) 0.01718(16) 0.5480(2)
H2 H 0.7335 0.0141 0.6079
C3 C 0.6786(4) -0.03087(16) 0.4984(3)
H3 H 0.6802 -0.0668 0.5242
C4 C 0.6459(4) -0.02471(14) 0.4099(2)
H4 H 0.6275 -0.0567 0.3748
C5 C 0.6405(3) 0.02927(12) 0.37304(19)
C6 C 0.6087(3) 0.03962(11) 0.27789(18)
C7 C 0.5816(3) -0.00290(13) 0.2168(2)
H5 H 0.5813 -0.0409 0.2343
C8 C 0.5548(3) 0.01093(14) 0.1299(2)
H6 H 0.5365 -0.0176 0.0882
C9 C 0.5554(3) 0.06725(14) 0.1055(2)
H7 H 0.5369 0.0777 0.0471
C10 C 0.5840(3) 0.10791(13) 0.16926(19)
H8 H 0.5846 0.1461 0.1526
C11 C 1.0118(3) 0.21754(12) 0.29309(18)
C12 C 1.1301(3) 0.18902(12) 0.32003(18)
H9 H 1.1264 0.1539 0.3480
C13 C 1.2541(3) 0.21149(11) 0.30630(17)
C14 C 1.2594(3) 0.26387(12) 0.26557(18)
H10 H 1.3410 0.2797 0.2552
C15 C 1.1410(3) 0.29225(12) 0.24055(18)
C16 C 1.0170(3) 0.27030(12) 0.25225(19)
H11 H 0.9391 0.2902 0.2334
C17 C 0.8789(3) 0.19303(14) 0.3113(2)
C18 C 1.3804(3) 0.17889(12) 0.33731(18)
N1 N 0.6671(2) 0.07613(9) 0.42224(15)
N2 N 0.6111(2) 0.09513(9) 0.25411(15)
N3 N 1.1478(3) 0.34977(13) 0.2030(2)
O1 O 0.7737(2) 0.21915(10) 0.28538(16)
O2 O 0.8765(2) 0.14792(10) 0.35358(17)
O3 O 1.3720(2) 0.13325(11) 0.37447(18)
O4 O 1.49045(19) 0.20084(8) 0.32076(14)
O5 O 1.2547(3) 0.37396(11) 0.2080(2)
O6 O 1.0470(3) 0.37006(15) 0.1666(3)
O13 O 0.6886(2) 0.20216(8) 0.47511(14)
H23 H 0.621(2) 0.2172(12) 0.495(2)
H24 H 0.747(3) 0.2280(11) 0.471(3)
Co1_2 Co 1.65887(4) 0.153602(15) 0.35708(2)
O4_2 O 0.49045(19) 0.20084(8) 0.32076(14)
Co2 Co 0.62890(4) 0.354806(15) 0.43390(3)
C19 C 0.5849(3) 0.44158(14) 0.2858(2)
H12 H 0.5721 0.4097 0.2498
C20 C 0.5692(3) 0.49524(15) 0.2487(2)
H13 H 0.5460 0.4996 0.1889
C21 C 0.5887(3) 0.54226(15) 0.3028(3)
H14 H 0.5801 0.5789 0.2794
C22 C 0.6208(3) 0.53500(13) 0.3910(3)
H15 H 0.6320 0.5665 0.4279
C23 C 0.6366(3) 0.47997(12) 0.4248(2)
C24 C 0.6727(3) 0.46774(12) 0.5185(2)
C25 C 0.7013(3) 0.50932(13) 0.5822(2)
H16 H 0.6980 0.5478 0.5671
C26 C 0.7347(3) 0.49318(15) 0.6676(2)
H17 H 0.7532 0.5207 0.7109
C27 C 0.7403(3) 0.43628(16) 0.6886(2)
H18 H 0.7649 0.4245 0.7459
C28 C 0.7088(3) 0.39677(14) 0.6229(2)
H19 H 0.7106 0.3581 0.6373
C29 C 0.2774(3) 0.29044(11) 0.49980(18)
C30 C 0.2705(3) 0.24022(12) 0.54744(18)
H20 H 0.3476 0.2210 0.5698
C31 C 0.1459(3) 0.22001(12) 0.56031(18)
C32 C 0.0282(3) 0.24754(12) 0.53001(17)
H21 H -0.0541 0.2327 0.5410
C33 C 0.0354(3) 0.29757(12) 0.48308(17)
C34 C 0.1606(3) 0.31852(11) 0.46793(17)
H22 H 0.1659 0.3520 0.4358
C35 C 0.4107(3) 0.31407(13) 0.4814(2)
C36 C -0.0897(3) 0.32995(13) 0.44861(19)
N4 N 0.6181(2) 0.43378(10) 0.37187(16)
N5 N 0.6757(2) 0.41175(10) 0.53952(16)
N6 N 0.1367(3) 0.16614(12) 0.60850(18)
O7 O 0.5160(2) 0.28810(10) 0.50841(15)
O8 O 0.4136(2) 0.35911(9) 0.43859(16)
O9 O -0.0802(2) 0.37362(10) 0.40642(16)
O10 O -0.20023(19) 0.30934(8) 0.46820(14)
O11 O 0.0280(3) 0.14338(12) 0.6070(2)
O12 O 0.2385(3) 0.14727(10) 0.64922(17)
O14 O 0.6001(2) 0.30670(9) 0.31691(14)
H25 H 0.6720(18) 0.2941(12) 0.301(2)
H26 H 0.544(2) 0.2797(10) 0.319(3)
Co2_2 Co -0.37110(4) 0.354806(15) 0.43390(3)
O10_2 O 0.79977(19) 0.30934(8) 0.46820(14)
O15 O 0.4785(15) 0.5576(5) 0.0575(8)
H27 H 0.5065 0.5908 0.0453
H28 H 0.4874 0.5277 0.0274
loop_
_geom_bond_atom_site_label_1
_geom_bond_atom_site_label_2
_geom_bond_site_symmetry_1
_geom_bond_site_symmetry_2
Co1 N1 1_555 1_555
Co2 N4 1_555 1_555
C1 H1 1_555 1_555
C2 C1 1_555 1_555
H2 C2 1_555 1_555
C3 C2 1_555 1_555
H3 C3 1_555 1_555
C4 C3 1_555 1_555
H4 C4 1_555 1_555
C5 C4 1_555 1_555
C6 C5 1_555 1_555
C7 C6 1_555 1_555
H5 C7 1_555 1_555
C8 C7 1_555 1_555
H6 C8 1_555 1_555
C9 C8 1_555 1_555
H7 C9 1_555 1_555
C10 C9 1_555 1_555
H8 C10 1_555 1_555
C11 C12 1_555 1_555
C12 H9 1_555 1_555
C13 C12 1_555 1_555
C14 C13 1_555 1_555
H10 C14 1_555 1_555
C15 C14 1_555 1_555
C16 C11 1_555 1_555
H11 C16 1_555 1_555
C17 C11 1_555 1_555
C18 C13 1_555 1_555
C19 H12 1_555 1_555
C20 C19 1_555 1_555
H13 C20 1_555 1_555
C21 C20 1_555 1_555
H14 C21 1_555 1_555
C22 C21 1_555 1_555
H15 C22 1_555 1_555
C23 C22 1_555 1_555
C24 C23 1_555 1_555
C25 C24 1_555 1_555
H16 C25 1_555 1_555
C26 C25 1_555 1_555
H17 C26 1_555 1_555
C27 C26 1_555 1_555
H18 C27 1_555 1_555
C28 C27 1_555 1_555
H19 C28 1_555 1_555
C29 C30 1_555 1_555
C30 H20 1_555 1_555
C31 C30 1_555 1_555
C32 C31 1_555 1_555
H21 C32 1_555 1_555
C33 C32 1_555 1_555
C34 C29 1_555 1_555
H22 C34 1_555 1_555
C35 C29 1_555 1_555
C36 C33 1_555 1_555
N1 C1 1_555 1_555
N2 Co1 1_555 1_555
N3 C15 1_555 1_555
N4 C19 1_555 1_555
N5 Co2 1_555 1_555
N6 C31 1_555 1_555
O1 Co1 1_555 1_555
O2 Co1 1_555 1_555
O3 C18 1_555 1_555
O4 C18 1_555 1_555
O5 N3 1_555 1_555
O6 N3 1_555 1_555
O7 Co2 1_555 1_555
O8 Co2 1_555 1_555
O9 C36 1_555 1_555
O10 C36 1_555 1_555
O11 N6 1_555 1_555
O12 N6 1_555 1_555
O13 Co1 1_555 1_555
H23 O13 1_555 1_555
H24 O13 1_555 1_555
O14 Co2 1_555 1_555
H25 O14 1_555 1_555
H26 O14 1_555 1_555
O15 H27 1_555 1_555
H28 O15 1_555 1_555
Co1_2 O4 1_555 1_555
Co2_2 O10 1_555 1_555
O4_2 Co1 1_555 1_555
O10_2 Co2 1_555 1_555
C5 N1 1_555 1_555
C6 N2 1_555 1_555
C10 N2 1_555 1_555
C15 C16 1_555 1_555
C17 O1 1_555 1_555
C17 O2 1_555 1_555
C23 N4 1_555 1_555
C24 N5 1_555 1_555
C28 N5 1_555 1_555
C33 C34 1_555 1_555
C35 O7 1_555 1_555
C35 O8 1_555 1_555

#END
