
#######################################################################
#
#                 Cambridge Crystallographic Data Centre
#                                CCDC 
#
#######################################################################
#
# If this CIF has been generated from an entry in the Cambridge 
# Structural Database, then it will include bibliographic, chemical, 
# crystal, experimental, refinement or atomic coordinate data resulting 
# from the CCDC's data processing and validation procedures.
#
#######################################################################

data_REBHAI
_symmetry_cell_setting           orthorhombic
_symmetry_space_group_name_H-M   'P b c a'
_symmetry_Int_Tables_number      61
_space_group_name_Hall           '-P 2ac 2ab'
loop_
_symmetry_equiv_pos_site_id
_symmetry_equiv_pos_as_xyz
1 x,y,z
2 1/2-x,-y,1/2+z
3 -x,1/2+y,1/2-z
4 1/2+x,1/2-y,-z
5 -x,-y,-z
6 1/2+x,y,1/2-z
7 x,1/2-y,1/2+z
8 1/2-x,1/2+y,z
_cell_length_a                   10.391(4)
_cell_length_b                   7.771(3)
_cell_length_c                   33.314(13)
_cell_angle_alpha                90
_cell_angle_beta                 90
_cell_angle_gamma                90
_cell_volume                     2690.05
loop_
_atom_site_label
_atom_site_type_symbol
_atom_site_fract_x
_atom_site_fract_y
_atom_site_fract_z
K1 K 0.31993(8) 0.18859(10) 0.42529(2)
O1 O -0.0968(3) 0.0575(3) 0.45298(8)
O2 O 0.2135(2) 0.1687(3) 0.34303(8)
C1 C 0.0201(3) 0.0394(4) 0.31955(10)
O3 O 0.5133(3) 0.2472(3) 0.48373(8)
H1 H 0.538(4) 0.338(6) 0.4732(14)
H2 H 0.464(6) 0.308(8) 0.507(2)
O4 O 0.0592(3) -0.0050(3) 0.40893(8)
C2 C 0.0211(3) 0.2993(4) 0.36714(10)
O5 O 0.2149(3) 0.4233(4) 0.48001(9)
H3 H 0.144(6) 0.382(7) 0.4897(17)
H4 H 0.274(6) 0.436(7) 0.4969(18)
C3 C -0.0409(3) 0.2662(4) 0.40343(10)
C4 C -0.1135(3) 0.0426(4) 0.31855(10)
H5 H -0.1592 0.1216 0.3350
C5 C -0.0256(3) 0.0920(4) 0.42310(10)
C6 C 0.0185(4) -0.1908(5) 0.27069(12)
H6 H 0.0638 -0.2710 0.2544
C7 C -0.1147(4) 0.3963(5) 0.42097(10)
H7 H -0.1593 0.3745 0.4453
C8 C -0.0591(4) 0.5895(4) 0.36759(11)
H8 H -0.0647 0.7001 0.3556
C9 C 0.0860(4) -0.0797(5) 0.29579(10)
H9 H 0.1773 -0.0849 0.2968
C10 C 0.0135(4) 0.4615(4) 0.34931(11)
H10 H 0.0575 0.4841 0.3249
C11 C -0.1808(4) -0.0692(5) 0.29356(11)
H11 H -0.2722 -0.0665 0.2930
C12 C 0.0959(3) 0.1637(4) 0.34455(10)
C13 C -0.1145(4) -0.1848(4) 0.26936(11)
H12 H -0.1604 -0.2596 0.2519
C14 C -0.1232(4) 0.5569(4) 0.40312(12)
H13 H -0.1733 0.6448 0.4153
K1G K 0.18007(8) -0.31141(10) 0.42529(2)
K1G_2 K 0.18007(8) 0.68859(10) 0.42529(2)
O4G O 0.4408(3) 0.4950(3) 0.40893(8)
O5G O 0.2851(3) -0.0767(4) 0.48001(9)
H3G H 0.356(6) -0.118(7) 0.4897(17)
H4G H 0.226(6) -0.064(7) 0.4969(18)
loop_
_geom_bond_atom_site_label_1
_geom_bond_atom_site_label_2
_geom_bond_site_symmetry_1
_geom_bond_site_symmetry_2
K1 O2 1_555 1_555
O1 C5 1_555 1_555
O2 C12 1_555 1_555
C1 C4 1_555 1_555
O3 K1 1_555 1_555
H1 O3 1_555 1_555
H2 O3 1_555 1_555
O4 K1 1_555 1_555
C2 C3 1_555 1_555
O5 K1 1_555 1_555
H3 O5 1_555 1_555
H4 O5 1_555 1_555
C3 C5 1_555 1_555
C4 H5 1_555 1_555
C5 O4 1_555 1_555
C6 H6 1_555 1_555
C7 C3 1_555 1_555
H7 C7 1_555 1_555
C8 H8 1_555 1_555
C9 C1 1_555 1_555
H9 C9 1_555 1_555
C10 C2 1_555 1_555
H10 C10 1_555 1_555
C11 C4 1_555 1_555
H11 C11 1_555 1_555
C12 C1 1_555 1_555
C13 C6 1_555 1_555
H12 C13 1_555 1_555
C14 C7 1_555 1_555
H13 C14 1_555 1_555
K1G O4 1_555 1_555
K1G_2 O5 1_555 1_555
O4G K1 1_555 1_555
O5G K1 1_555 1_555
H3G O5G 1_555 1_555
H4G O5G 1_555 1_555
C2 C12 1_555 1_555
C6 C9 1_555 1_555
C8 C10 1_555 1_555
C8 C14 1_555 1_555
C11 C13 1_555 1_555
K1G O5G 1_555 1_555
K1G_2 O4G 1_555 1_555

#END
