
#######################################################################
#
#                 Cambridge Crystallographic Data Centre
#                                CCDC 
#
#######################################################################
#
# If this CIF has been generated from an entry in the Cambridge 
# Structural Database, then it will include bibliographic, chemical, 
# crystal, experimental, refinement or atomic coordinate data resulting 
# from the CCDC's data processing and validation procedures.
#
#######################################################################

data_REBLUF
_symmetry_cell_setting           triclinic
_symmetry_space_group_name_H-M   'P -1'
_symmetry_Int_Tables_number      2
_space_group_name_Hall           '-P 1'
loop_
_symmetry_equiv_pos_site_id
_symmetry_equiv_pos_as_xyz
1 x,y,z
2 -x,-y,-z
_cell_length_a                   6.9790(10)
_cell_length_b                   7.0420(10)
_cell_length_c                   14.5310(10)
_cell_angle_alpha                90.470(10)
_cell_angle_beta                 101.670(10)
_cell_angle_gamma                108.260(10)
_cell_volume                     662.192
loop_
_atom_site_label
_atom_site_type_symbol
_atom_site_fract_x
_atom_site_fract_y
_atom_site_fract_z
Cu3 Cu 0.0000 0.0000 0.5000
Cu4 Cu 0.5000 0.0000 0.5000
Cl3 Cl 0.13335(13) -0.03626(13) 0.36939(6)
Cl4 Cl -0.42247(14) -0.25445(12) 0.42813(6)
N4 N 0.3136(4) -0.1967(3) 0.5647(2)
N5 N 0.1119(4) -0.2071(4) 0.5621(2)
C3 C 0.0462(5) -0.3387(5) 0.6210(2)
H3 H -0.0744(46) -0.3723(42) 0.6299(20)
C4 C 0.3593(5) -0.3201(5) 0.6244(2)
H6 H 0.4883(43) -0.3401(39) 0.6446(18)
N7 N 0.1952(4) -0.4117(4) 0.6612(2)
N8 N 0.2046(5) -0.5385(5) 0.7359(2)
H7 H 0.1763(52) -0.4776(47) 0.7816(22)
H8 H 0.1143(55) -0.6651(51) 0.7097(24)
Cl3A Cl 0.86665(13) 0.03626(13) 0.63061(6)
Cu3A Cu 1.0000 0.0000 0.5000
Cl3_2 Cl 1.13335(13) -0.03626(13) 0.36939(6)
Cu4_2 Cu 1.5000 0.0000 0.5000
Cl4A Cl 1.42247(14) 0.25445(12) 0.57187(6)
Cl3A_2 Cl 1.86665(13) 0.03626(13) 0.63061(6)
Cu3A_2 Cu 2.0000 0.0000 0.5000
Cl4_2 Cl 1.57753(14) -0.25445(12) 0.42813(6)
Cl3_3 Cl 2.13335(13) -0.03626(13) 0.36939(6)
Cu4_3 Cu 2.5000 0.0000 0.5000
Cl4A_2 Cl 2.42247(14) 0.25445(12) 0.57187(6)
N5A N 1.8881(4) 0.2071(4) 0.4379(2)
N4A N 1.6864(4) 0.1967(3) 0.4353(2)
N4_2 N 1.3136(4) -0.1967(3) 0.5647(2)
N5_2 N 1.1119(4) -0.2071(4) 0.5621(2)
Cl4_3 Cl 0.57753(14) -0.25445(12) 0.42813(6)
N5A_2 N 0.8881(4) 0.2071(4) 0.4379(2)
N4A_2 N 0.6864(4) 0.1967(3) 0.4353(2)
C4A C 0.6407(5) 0.3201(5) 0.3756(2)
H6A H 0.5117(43) 0.3401(39) 0.3554(18)
N7A N 0.8048(4) 0.4117(4) 0.3388(2)
C3A C 0.9538(5) 0.3387(5) 0.3790(2)
H3A H 1.0744(46) 0.3723(42) 0.3701(20)
N8A N 0.7954(5) 0.5385(5) 0.2641(2)
H7A H 0.8237(52) 0.4776(47) 0.2184(22)
H8A H 0.8857(55) 0.6651(51) 0.2903(24)
C3_2 C 1.0462(5) -0.3387(5) 0.6210(2)
H3_2 H 0.9256(46) -0.3723(42) 0.6299(20)
N7_2 N 1.1952(4) -0.4117(4) 0.6612(2)
C4_2 C 1.3593(5) -0.3201(5) 0.6244(2)
H6_2 H 1.4883(43) -0.3401(39) 0.6446(18)
N8_2 N 1.2046(5) -0.5385(5) 0.7359(2)
H7_2 H 1.1763(52) -0.4776(47) 0.7816(22)
H8_2 H 1.1143(55) -0.6651(51) 0.7097(24)
C4A_2 C 1.6407(5) 0.3201(5) 0.3756(2)
H6A_2 H 1.5117(43) 0.3401(39) 0.3554(18)
N7A_2 N 1.8048(4) 0.4117(4) 0.3388(2)
C3A_2 C 1.9538(5) 0.3387(5) 0.3790(2)
H3A_2 H 2.0744(46) 0.3723(42) 0.3701(20)
N8A_2 N 1.7954(5) 0.5385(5) 0.2641(2)
H7A_2 H 1.8237(52) 0.4776(47) 0.2184(22)
H8A_2 H 1.8857(55) 0.6651(51) 0.2903(24)
N5_3 N 2.1119(4) -0.2071(4) 0.5621(2)
N4_3 N 2.3136(4) -0.1967(3) 0.5647(2)
C4_3 C 2.3593(5) -0.3201(5) 0.6244(2)
H6_3 H 2.4883(43) -0.3401(39) 0.6446(18)
N7_3 N 2.1952(4) -0.4117(4) 0.6612(2)
C3_3 C 2.0462(5) -0.3387(5) 0.6210(2)
H3_3 H 1.9256(46) -0.3723(42) 0.6299(20)
N8_3 N 2.2046(5) -0.5385(5) 0.7359(2)
H7_3 H 2.1763(52) -0.4776(47) 0.7816(22)
H8_3 H 2.1143(55) -0.6651(51) 0.7097(24)
Cl4A_3 Cl 0.42247(14) 0.25445(12) 0.57187(6)
Cl3A_3 Cl -0.13335(13) 0.03626(13) 0.63061(6)
Cu4A Cu -0.5000 0.0000 0.5000
N5A_3 N -0.1119(4) 0.2071(4) 0.4379(2)
N4A_3 N -0.3136(4) 0.1967(3) 0.4353(2)
C4A_3 C -0.3593(5) 0.3201(5) 0.3756(2)
H6A_3 H -0.4883(43) 0.3401(39) 0.3554(18)
N7A_3 N -0.1952(4) 0.4117(4) 0.3388(2)
C3A_3 C -0.0462(5) 0.3387(5) 0.3790(2)
H3A_3 H 0.0744(46) 0.3723(42) 0.3701(20)
N8A_3 N -0.2046(5) 0.5385(5) 0.2641(2)
H7A_3 H -0.1763(52) 0.4776(47) 0.2184(22)
H8A_3 H -0.1143(55) 0.6651(51) 0.2903(24)
Cl3A_4 Cl 2.86665(13) 0.03626(13) 0.63061(6)
Cu3A_3 Cu 3.0000 0.0000 0.5000
Cl4_4 Cl 2.57753(14) -0.25445(12) 0.42813(6)
N4A_4 N 2.6864(4) 0.1967(3) 0.4353(2)
N5A_4 N 2.8881(4) 0.2071(4) 0.4379(2)
C3A_4 C 2.9538(5) 0.3387(5) 0.3790(2)
H3A_4 H 3.0744(46) 0.3723(42) 0.3701(20)
N7A_4 N 2.8048(4) 0.4117(4) 0.3388(2)
C4A_4 C 2.6407(5) 0.3201(5) 0.3756(2)
H6A_4 H 2.5117(43) 0.3401(39) 0.3554(18)
N8A_4 N 2.7954(5) 0.5385(5) 0.2641(2)
H7A_4 H 2.8237(52) 0.4776(47) 0.2184(22)
H8A_4 H 2.8857(55) 0.6651(51) 0.2903(24)
Cl3_4 Cl 3.13335(13) -0.03626(13) 0.36939(6)
Cu4_4 Cu 3.5000 0.0000 0.5000
Cl4A_4 Cl 3.42247(14) 0.25445(12) 0.57187(6)
N5_4 N 3.1119(4) -0.2071(4) 0.5621(2)
N4_4 N 3.3136(4) -0.1967(3) 0.5647(2)
C4_4 C 3.3593(5) -0.3201(5) 0.6244(2)
H6_4 H 3.4883(43) -0.3401(39) 0.6446(18)
N7_4 N 3.1952(4) -0.4117(4) 0.6612(2)
C3_4 C 3.0462(5) -0.3387(5) 0.6210(2)
H3_4 H 2.9256(46) -0.3723(42) 0.6299(20)
N8_4 N 3.2046(5) -0.5385(5) 0.7359(2)
H7_4 H 3.1763(52) -0.4776(47) 0.7816(22)
H8_4 H 3.1143(55) -0.6651(51) 0.7097(24)
Cu1 Cu 0.0000 0.0000 0.0000
Cu2 Cu 0.0000 -0.5000 0.0000
Cl1 Cl 0.22867(13) 0.26783(12) -0.05275(6)
Cl2 Cl -0.00443(14) -0.30858(11) -0.13044(5)
N1 N 0.2252(4) -0.2751(3) 0.0770(2)
N2 N 0.2305(4) -0.0794(3) 0.0716(2)
C1 C 0.3964(5) 0.0296(5) 0.1303(2)
H1 H 0.4444(45) 0.1628(41) 0.1441(19)
N3 N 0.4990(4) -0.0881(4) 0.1733(2)
C2 C 0.3900(5) -0.2755(5) 0.1378(2)
H2 H 0.4217(42) -0.3766(39) 0.1533(18)
N6 N 0.6864(5) -0.0151(4) 0.2400(2)
H4 H 0.7707(60) -0.0353(55) 0.2128(26)
H5 H 0.6701(54) -0.0800(48) 0.2855(23)
Cl2A Cl 0.00443(14) 0.30858(11) 0.13044(5)
Cl1A Cl -0.22867(13) -0.26783(12) 0.05275(6)
N2A N -0.2305(4) 0.0794(3) -0.0716(2)
loop_
_geom_bond_atom_site_label_1
_geom_bond_atom_site_label_2
_geom_bond_site_symmetry_1
_geom_bond_site_symmetry_2
Cu1 Cl1 1_555 1_555
Cu2 Cl2 1_555 1_555
Cl2 Cu1 1_555 1_555
N1 Cu2 1_555 1_555
N2 Cu1 1_555 1_555
C1 N2 1_555 1_555
H1 C1 1_555 1_555
N3 C1 1_555 1_555
C2 N1 1_555 1_555
H2 C2 1_555 1_555
Cu3 Cl3 1_555 1_555
Cu4 Cl3 1_555 1_555
Cl4 Cu3 1_555 1_555
N4 Cu4 1_555 1_555
N5 Cu3 1_555 1_555
C3 N5 1_555 1_555
H3 C3 1_555 1_555
N6 N3 1_555 1_555
H4 N6 1_555 1_555
H5 N6 1_555 1_555
C4 N4 1_555 1_555
H6 C4 1_555 1_555
N7 C3 1_555 1_555
N8 N7 1_555 1_555
H7 N8 1_555 1_555
H8 N8 1_555 1_555
Cl2A Cu1 1_555 1_555
Cl1A Cu1 1_555 1_555
N2A Cu1 1_555 1_555
Cl3A Cu4 1_555 1_555
Cu3A Cl3A 1_555 1_555
Cl3_2 Cu3A 1_555 1_555
Cu4_2 Cl3_2 1_555 1_555
Cl4A Cu3A 1_555 1_555
Cl3A_2 Cu4_2 1_555 1_555
Cu3A_2 Cl3A_2 1_555 1_555
Cl4_2 Cu4_2 1_555 1_555
Cl3_3 Cu3A_2 1_555 1_555
Cu4_3 Cl3_3 1_555 1_555
Cl4A_2 Cu3A_2 1_555 1_555
N5A Cu3A_2 1_555 1_555
N4A Cu4_2 1_555 1_555
N4_2 Cu4_2 1_555 1_555
N5_2 Cu3A 1_555 1_555
Cl4_3 Cu4 1_555 1_555
N5A_2 Cu3A 1_555 1_555
N4A_2 Cu4 1_555 1_555
C4A N4A_2 1_555 1_555
H6A C4A 1_555 1_555
N7A C4A 1_555 1_555
C3A N5A_2 1_555 1_555
H3A C3A 1_555 1_555
N8A N7A 1_555 1_555
H7A N8A 1_555 1_555
H8A N8A 1_555 1_555
C3_2 N5_2 1_555 1_555
H3_2 C3_2 1_555 1_555
N7_2 C3_2 1_555 1_555
C4_2 N4_2 1_555 1_555
H6_2 C4_2 1_555 1_555
N8_2 N7_2 1_555 1_555
H7_2 N8_2 1_555 1_555
H8_2 N8_2 1_555 1_555
C4A_2 N4A 1_555 1_555
H6A_2 C4A_2 1_555 1_555
N7A_2 C4A_2 1_555 1_555
C3A_2 N5A 1_555 1_555
H3A_2 C3A_2 1_555 1_555
N8A_2 N7A_2 1_555 1_555
H7A_2 N8A_2 1_555 1_555
H8A_2 N8A_2 1_555 1_555
N5_3 Cu3A_2 1_555 1_555
N4_3 Cu4_3 1_555 1_555
C4_3 N4_3 1_555 1_555
H6_3 C4_3 1_555 1_555
N7_3 C4_3 1_555 1_555
C3_3 N5_3 1_555 1_555
H3_3 C3_3 1_555 1_555
N8_3 N7_3 1_555 1_555
H7_3 N8_3 1_555 1_555
H8_3 N8_3 1_555 1_555
Cl4A_3 Cu3 1_555 1_555
Cl3A_3 Cu3 1_555 1_555
Cu4A Cl4 1_555 1_555
N5A_3 Cu3 1_555 1_555
N4A_3 Cu4A 1_555 1_555
C4A_3 N4A_3 1_555 1_555
H6A_3 C4A_3 1_555 1_555
N7A_3 C4A_3 1_555 1_555
C3A_3 N5A_3 1_555 1_555
H3A_3 C3A_3 1_555 1_555
N8A_3 N7A_3 1_555 1_555
H7A_3 N8A_3 1_555 1_555
H8A_3 N8A_3 1_555 1_555
Cl3A_4 Cu4_3 1_555 1_555
Cu3A_3 Cl3A_4 1_555 1_555
Cl4_4 Cu4_3 1_555 1_555
N4A_4 Cu4_3 1_555 1_555
N5A_4 Cu3A_3 1_555 1_555
C3A_4 N5A_4 1_555 1_555
H3A_4 C3A_4 1_555 1_555
N7A_4 C3A_4 1_555 1_555
C4A_4 N4A_4 1_555 1_555
H6A_4 C4A_4 1_555 1_555
N8A_4 N7A_4 1_555 1_555
H7A_4 N8A_4 1_555 1_555
H8A_4 N8A_4 1_555 1_555
Cl3_4 Cu3A_3 1_555 1_555
Cu4_4 Cl3_4 1_555 1_555
Cl4A_4 Cu3A_3 1_555 1_555
N5_4 Cu3A_3 1_555 1_555
N4_4 Cu4_4 1_555 1_555
C4_4 N4_4 1_555 1_555
H6_4 C4_4 1_555 1_555
N7_4 C4_4 1_555 1_555
C3_4 N5_4 1_555 1_555
H3_4 C3_4 1_555 1_555
N8_4 N7_4 1_555 1_555
H7_4 N8_4 1_555 1_555
H8_4 N8_4 1_555 1_555
Cu2 Cl1A 1_555 1_555
N1 N2 1_555 1_555
N3 C2 1_555 1_555
Cu4 Cl4A_3 1_555 1_555
N4 N5 1_555 1_555
C4 N7 1_555 1_555
Cu3A Cl4_3 1_555 1_555
Cu4_2 Cl4A 1_555 1_555
Cu3A_2 Cl4_2 1_555 1_555
Cu4_3 Cl4A_2 1_555 1_555
N5A N4A 1_555 1_555
N4_2 N5_2 1_555 1_555
N5A_2 N4A_2 1_555 1_555
N7A C3A 1_555 1_555
N7_2 C4_2 1_555 1_555
N7A_2 C3A_2 1_555 1_555
N5_3 N4_3 1_555 1_555
N7_3 C3_3 1_555 1_555
Cl3A_3 Cu4A 1_555 1_555
N5A_3 N4A_3 1_555 1_555
N7A_3 C3A_3 1_555 1_555
Cu3A_3 Cl4_4 1_555 1_555
N4A_4 N5A_4 1_555 1_555
N7A_4 C4A_4 1_555 1_555
N5_4 N4_4 1_555 1_555
N7_4 C3_4 1_555 1_555

#END
