
#######################################################################
#
#                 Cambridge Crystallographic Data Centre
#                                CCDC 
#
#######################################################################
#
# If this CIF has been generated from an entry in the Cambridge 
# Structural Database, then it will include bibliographic, chemical, 
# crystal, experimental, refinement or atomic coordinate data resulting 
# from the CCDC's data processing and validation procedures.
#
#######################################################################

data_REBLUG
_symmetry_cell_setting           monoclinic
_symmetry_space_group_name_H-M   'P 21'
_symmetry_Int_Tables_number      4
_space_group_name_Hall           'P 2yb'
loop_
_symmetry_equiv_pos_site_id
_symmetry_equiv_pos_as_xyz
1 x,y,z
2 -x,1/2+y,-z
_cell_length_a                   12.581(3)
_cell_length_b                   8.4606(18)
_cell_length_c                   13.465(3)
_cell_angle_alpha                90
_cell_angle_beta                 95.936(4)
_cell_angle_gamma                90
_cell_volume                     1425.57
loop_
_atom_site_label
_atom_site_type_symbol
_atom_site_fract_x
_atom_site_fract_y
_atom_site_fract_z
Cu1 Cu 0.37683(4) 0.22208(6) -0.12635(3)
N1 N 0.5171(3) 0.1451(5) -0.1688(3)
N2 N 0.3392(3) -0.0420(4) -0.1683(3)
N3 N 0.2381(3) 0.3191(4) -0.0925(3)
N4 N 0.3255(3) 0.3252(4) -0.2611(3)
N5 N 0.4184(3) 0.1775(4) 0.0164(3)
N6 N 0.4884(3) 0.0971(5) 0.0511(3)
N7 N 0.5570(4) 0.0204(5) 0.0919(3)
C1 C 0.6060(4) 0.2310(8) -0.1695(3)
H1 H 0.6042 0.3380 -0.1541
C2 C 0.7009(4) 0.1642(6) -0.1928(4)
H2 H 0.7615 0.2271 -0.1926
C3 C 0.7066(4) 0.0091(7) -0.2158(4)
H3 H 0.7697 -0.0354 -0.2331
C4 C 0.6157(4) -0.0805(6) -0.2125(4)
H4 H 0.6166 -0.1879 -0.2271
C5 C 0.5251(4) -0.0117(6) -0.1881(3)
C6 C 0.4238(4) -0.1065(5) -0.1870(4)
H5 H 0.4245 -0.2143 -0.2005
C7 C 0.1974(4) 0.3073(6) -0.0060(4)
H6 H 0.2354 0.2530 0.0463
C8 C 0.0996(4) 0.3737(7) 0.0086(4)
H7 H 0.0718 0.3650 0.0697
C9 C 0.0447(4) 0.4530(6) -0.0702(4)
H8 H -0.0220 0.4960 -0.0627
C10 C 0.0881(4) 0.4696(7) -0.1615(4)
H9 H 0.0533 0.5249 -0.2150
C11 C 0.1840(3) 0.4000(5) -0.1664(3)
C12 C 0.2393(3) 0.3980(5) -0.2588(3)
H10 H 0.2095 0.4513 -0.3153
C13 C 0.2419(5) -0.1413(7) -0.1671(4)
H11 H 0.2613 -0.2491 -0.1847
C14 C 0.1598(4) -0.0834(6) -0.2481(4)
C15 C 0.1579(4) -0.1349(6) -0.3471(4)
H12 H 0.2061 -0.2130 -0.3611
C16 C 0.0898(5) -0.0776(7) -0.4244(5)
H13 H 0.0924 -0.1133 -0.4895
C17 C 0.0157(5) 0.0374(7) -0.4015(4)
H14 H -0.0335 0.0756 -0.4521
C18 C 0.0141(4) 0.0938(7) -0.3083(4)
H15 H -0.0338 0.1734 -0.2958
C19 C 0.0857(4) 0.0316(7) -0.2285(5)
H16 H 0.0827 0.0678 -0.1637
C20 C 0.2099(4) -0.1462(7) -0.0598(4)
H17 H 0.2527 -0.2232 -0.0217
H18 H 0.1358 -0.1743 -0.0614
H19 H 0.2212 -0.0440 -0.0295
C21 C 0.3803(4) 0.3138(6) -0.3560(3)
H20 H 0.4569 0.2973 -0.3371
C22 C 0.3667(4) 0.4705(6) -0.4125(4)
C23 C 0.4417(4) 0.5893(6) -0.3889(4)
H21 H 0.4962 0.5719 -0.3380
C24 C 0.4374(4) 0.7306(8) -0.4383(4)
H22 H 0.4881 0.8076 -0.4190
C25 C 0.3603(5) 0.7622(7) -0.5159(5)
H23 H 0.3576 0.8576 -0.5503
C26 C 0.2847(5) 0.6388(7) -0.5399(3)
H24 H 0.2290 0.6563 -0.5897
C27 C 0.2910(4) 0.4975(6) -0.4930(3)
H25 H 0.2439 0.4172 -0.5151
C28 C 0.3374(5) 0.1714(6) -0.4105(4)
H26 H 0.3334 0.0857 -0.3643
H27 H 0.3837 0.1425 -0.4599
H28 H 0.2673 0.1937 -0.4426
Cu1A Cu 0.62317(4) -0.27792(6) 0.12635(3)
N7A N 0.4430(4) 0.5204(5) -0.0919(3)
Cl1 Cl 0.19251(11) 0.07970(16) -0.72198(10)
O1 O 0.2118(3) 0.0587(5) -0.8152(3)
O2 O 0.1426(3) -0.0566(4) -0.6901(3)
O3 O 0.2822(3) 0.1095(5) -0.6749(3)
O4 O 0.1303(3) 0.1986(6) -0.7417(3)
loop_
_geom_bond_atom_site_label_1
_geom_bond_atom_site_label_2
_geom_bond_site_symmetry_1
_geom_bond_site_symmetry_2
Cu1 N1 1_555 1_555
N1 C1 1_555 1_555
N2 Cu1 1_555 1_555
N3 Cu1 1_555 1_555
N4 Cu1 1_555 1_555
N5 Cu1 1_555 1_555
N6 N5 1_555 1_555
N7 N6 1_555 1_555
C1 H1 1_555 1_555
C2 C1 1_555 1_555
H2 C2 1_555 1_555
C3 C2 1_555 1_555
H3 C3 1_555 1_555
C4 C3 1_555 1_555
H4 C4 1_555 1_555
C5 N1 1_555 1_555
C6 N2 1_555 1_555
H5 C6 1_555 1_555
C7 N3 1_555 1_555
H6 C7 1_555 1_555
C8 C7 1_555 1_555
H7 C8 1_555 1_555
C9 C8 1_555 1_555
H8 C9 1_555 1_555
C10 C9 1_555 1_555
H9 C10 1_555 1_555
C11 N3 1_555 1_555
C12 N4 1_555 1_555
H10 C12 1_555 1_555
C13 N2 1_555 1_555
H11 C13 1_555 1_555
C14 C13 1_555 1_555
C15 C14 1_555 1_555
H12 C15 1_555 1_555
C16 C15 1_555 1_555
H13 C16 1_555 1_555
C17 C16 1_555 1_555
H14 C17 1_555 1_555
C18 C17 1_555 1_555
H15 C18 1_555 1_555
C19 C14 1_555 1_555
H16 C19 1_555 1_555
C20 C13 1_555 1_555
H17 C20 1_555 1_555
H18 C20 1_555 1_555
H19 C20 1_555 1_555
C21 N4 1_555 1_555
H20 C21 1_555 1_555
C22 C21 1_555 1_555
C23 C22 1_555 1_555
H21 C23 1_555 1_555
C24 C23 1_555 1_555
H22 C24 1_555 1_555
C25 C24 1_555 1_555
H23 C25 1_555 1_555
C26 C25 1_555 1_555
H24 C26 1_555 1_555
C27 C22 1_555 1_555
H25 C27 1_555 1_555
C28 C21 1_555 1_555
H26 C28 1_555 1_555
H27 C28 1_555 1_555
H28 C28 1_555 1_555
Cl1 O1 1_555 1_555
O2 Cl1 1_555 1_555
O3 Cl1 1_555 1_555
O4 Cl1 1_555 1_555
Cu1A N7 1_555 1_555
N7A Cu1 1_555 1_555
C4 C5 1_555 1_555
C5 C6 1_555 1_555
C10 C11 1_555 1_555
C11 C12 1_555 1_555
C18 C19 1_555 1_555
C26 C27 1_555 1_555

#END
