
#######################################################################
#
#                 Cambridge Crystallographic Data Centre
#                                CCDC 
#
#######################################################################
#
# If this CIF has been generated from an entry in the Cambridge 
# Structural Database, then it will include bibliographic, chemical, 
# crystal, experimental, refinement or atomic coordinate data resulting 
# from the CCDC's data processing and validation procedures.
#
#######################################################################

data_REBPIY
_symmetry_cell_setting           monoclinic
_symmetry_space_group_name_H-M   'P 21/n'
_symmetry_Int_Tables_number      14
_space_group_name_Hall           '-P 2yn'
loop_
_symmetry_equiv_pos_site_id
_symmetry_equiv_pos_as_xyz
1 x,y,z
2 1/2-x,1/2+y,1/2-z
3 -x,-y,-z
4 1/2+x,1/2-y,1/2+z
_cell_length_a                   11.037(5)
_cell_length_b                   22.343(10)
_cell_length_c                   14.833(6)
_cell_angle_alpha                90
_cell_angle_beta                 109.658(7)
_cell_angle_gamma                90
_cell_volume                     3444.63
loop_
_atom_site_label
_atom_site_type_symbol
_atom_site_fract_x
_atom_site_fract_y
_atom_site_fract_z
Zn1 Zn 0.29072(13) 0.05463(7) -0.01314(10)
Zn2 Zn 0.24672(14) 0.09005(7) -0.53584(10)
N1 N 0.2094(10) -0.0281(5) -0.0898(7)
N2 N 0.0881(10) 0.0697(5) -0.0571(7)
N3 N 0.2141(10) 0.0029(5) -0.5793(7)
N4 N 0.0475(10) 0.0863(6) -0.5731(7)
O1 O 0.4191(8) 0.0020(4) 0.0903(6)
O2 O 0.2416(8) 0.1054(4) -0.2267(6)
O3 O 0.4005(8) 0.0797(4) -0.0892(6)
O4 O 0.2499(9) 0.1787(5) -0.4229(7)
O5 O 0.3590(8) 0.0916(4) -0.3982(5)
O6 O 0.3436(8) 0.1310(4) 0.0651(6)
O7 O 0.2919(8) 0.0931(4) 0.1875(6)
O8 O 0.4531(9) 0.0836(4) 0.4026(6)
O9 O 0.2940(8) 0.1484(4) 0.3829(6)
C1 C 0.2705(14) -0.0766(7) -0.1026(10)
H1 H 0.3599 -0.0757 -0.0783
C2 C 0.2141(15) -0.1284(7) -0.1487(10)
H2 H 0.2627 -0.1607 -0.1565
C3 C 0.0786(15) -0.1294(8) -0.1830(10)
H3 H 0.0350 -0.1636 -0.2124
C4 C 0.0105(15) -0.0790(8) -0.1728(9)
H4 H -0.0789 -0.0792 -0.1981
C5 C 0.0748(12) -0.0280(7) -0.1248(8)
C6 C 0.0130(12) 0.0269(6) -0.1066(8)
C7 C -0.1235(12) 0.0355(7) -0.1402(9)
H5 H -0.1773 0.0052 -0.1743
C8 C -0.1752(13) 0.0877(7) -0.1224(10)
H6 H -0.2638 0.0936 -0.1449
C9 C -0.0932(14) 0.1317(8) -0.0701(11)
H7 H -0.1251 0.1677 -0.0560
C10 C 0.0398(13) 0.1203(7) -0.0391(9)
H8 H 0.0958 0.1497 -0.0045
C11 C 0.3552(12) 0.1103(6) -0.1692(8)
C12 C 0.4469(11) 0.1536(5) -0.1894(8)
C13 C 0.5421(12) 0.1812(6) -0.1111(9)
H9 H 0.5496 0.1708 -0.0487
C14 C 0.6253(13) 0.2242(6) -0.1276(11)
H10 H 0.6857 0.2428 -0.0757
C15 C 0.6194(13) 0.2392(7) -0.2184(11)
H11 H 0.6766 0.2664 -0.2295
C16 C 0.5218(13) 0.2113(6) -0.2945(10)
H12 H 0.5151 0.2211 -0.3570
C17 C 0.4367(11) 0.1707(6) -0.2808(8)
C18 C 0.3376(12) 0.1451(7) -0.3726(9)
C19 C 0.3493(11) 0.1299(6) 0.1548(10)
C20 C 0.4389(11) 0.1754(6) 0.2207(9)
C21 C 0.5022(12) 0.2169(6) 0.1825(9)
H13 H 0.4858 0.2177 0.1167
C22 C 0.5929(14) 0.2588(6) 0.2433(12)
H14 H 0.6391 0.2849 0.2182
C23 C 0.6089(13) 0.2590(7) 0.3379(10)
H15 H 0.6638 0.2869 0.3779
C24 C 0.5440(12) 0.2180(6) 0.3759(9)
H16 H 0.5585 0.2190 0.4414
C25 C 0.4586(12) 0.1755(6) 0.3208(9)
C26 C 0.3975(12) 0.1322(6) 0.3694(8)
C27 C 0.3008(14) -0.0399(7) -0.5787(9)
H17 H 0.3873 -0.0295 -0.5537
C28 C 0.2732(14) -0.0959(7) -0.6107(10)
H18 H 0.3389 -0.1225 -0.6083
C29 C 0.1435(17) -0.1143(7) -0.6482(11)
H19 H 0.1213 -0.1530 -0.6711
C30 C 0.0501(14) -0.0718(7) -0.6492(9)
H20 H -0.0367 -0.0817 -0.6742
C31 C 0.0862(12) -0.0164(7) -0.6138(8)
C32 C -0.0058(12) 0.0320(7) -0.6091(8)
C33 C -0.1414(12) 0.0239(8) -0.6391(9)
H21 H -0.1784 -0.0130 -0.6614
C34 C -0.2153(16) 0.0713(9) -0.6345(12)
H22 H -0.3042 0.0668 -0.6574
C35 C -0.1659(14) 0.1250(10) -0.5980(12)
H23 H -0.2189 0.1565 -0.5937
C36 C -0.0311(13) 0.1314(8) -0.5668(9)
H24 H 0.0050 0.1678 -0.5411
Zn2_2 Zn 0.24672(14) 0.09005(7) 0.46416(10)
O9_2 O 0.2940(8) 0.1484(4) -0.6171(6)
O10 O 0.4749(12) 0.9907(5) 0.2787(6)
loop_
_geom_bond_atom_site_label_1
_geom_bond_atom_site_label_2
_geom_bond_site_symmetry_1
_geom_bond_site_symmetry_2
Zn1 N1 1_555 1_555
Zn2 N3 1_555 1_555
N1 C1 1_555 1_555
N2 Zn1 1_555 1_555
N3 C27 1_555 1_555
N4 Zn2 1_555 1_555
O1 Zn1 1_555 1_555
O2 C11 1_555 1_555
O3 Zn1 1_555 1_555
O4 C18 1_555 1_555
O5 Zn2 1_555 1_555
O6 Zn1 1_555 1_555
O7 C19 1_555 1_555
O8 C26 1_555 1_555
O9 C26 1_555 1_555
C1 H1 1_555 1_555
C2 C1 1_555 1_555
H2 C2 1_555 1_555
C3 C2 1_555 1_555
H3 C3 1_555 1_555
C4 C3 1_555 1_555
H4 C4 1_555 1_555
C5 N1 1_555 1_555
C6 N2 1_555 1_555
C7 C6 1_555 1_555
H5 C7 1_555 1_555
C8 C7 1_555 1_555
H6 C8 1_555 1_555
C9 C8 1_555 1_555
H7 C9 1_555 1_555
C10 N2 1_555 1_555
H8 C10 1_555 1_555
C11 O3 1_555 1_555
C12 C11 1_555 1_555
C13 C12 1_555 1_555
H9 C13 1_555 1_555
C14 C13 1_555 1_555
H10 C14 1_555 1_555
C15 C14 1_555 1_555
H11 C15 1_555 1_555
C16 C15 1_555 1_555
H12 C16 1_555 1_555
C17 C12 1_555 1_555
C18 O5 1_555 1_555
C19 O6 1_555 1_555
C20 C19 1_555 1_555
C21 C20 1_555 1_555
H13 C21 1_555 1_555
C22 C21 1_555 1_555
H14 C22 1_555 1_555
C23 C22 1_555 1_555
H15 C23 1_555 1_555
C24 C23 1_555 1_555
H16 C24 1_555 1_555
C25 C20 1_555 1_555
C26 C25 1_555 1_555
C27 H17 1_555 1_555
C28 C27 1_555 1_555
H18 C28 1_555 1_555
C29 C28 1_555 1_555
H19 C29 1_555 1_555
C30 C29 1_555 1_555
H20 C30 1_555 1_555
C31 N3 1_555 1_555
C32 N4 1_555 1_555
C33 C32 1_555 1_555
H21 C33 1_555 1_555
C34 C33 1_555 1_555
H22 C34 1_555 1_555
C35 C34 1_555 1_555
H23 C35 1_555 1_555
C36 N4 1_555 1_555
H24 C36 1_555 1_555
Zn2_2 O9 1_555 1_555
O9_2 Zn2 1_555 1_555
C4 C5 1_555 1_555
C5 C6 1_555 1_555
C9 C10 1_555 1_555
C16 C17 1_555 1_555
C17 C18 1_555 1_555
C24 C25 1_555 1_555
C30 C31 1_555 1_555
C31 C32 1_555 1_555
C35 C36 1_555 1_555

#END
