
#######################################################################
#
#                 Cambridge Crystallographic Data Centre
#                                CCDC 
#
#######################################################################
#
# If this CIF has been generated from an entry in the Cambridge 
# Structural Database, then it will include bibliographic, chemical, 
# crystal, experimental, refinement or atomic coordinate data resulting 
# from the CCDC's data processing and validation procedures.
#
#######################################################################

data_REBQEU
_symmetry_cell_setting           monoclinic
_symmetry_space_group_name_H-M   'P 21/a'
_symmetry_Int_Tables_number      14
_space_group_name_Hall           '-P 2yab'
loop_
_symmetry_equiv_pos_site_id
_symmetry_equiv_pos_as_xyz
1 x,y,z
2 1/2-x,1/2+y,-z
3 -x,-y,-z
4 1/2+x,1/2-y,z
_cell_length_a                   12.642(1)
_cell_length_b                   14.201(1)
_cell_length_c                   12.661(1)
_cell_angle_alpha                90
_cell_angle_beta                 117.60(1)
_cell_angle_gamma                90
_cell_volume                     2014.36
loop_
_atom_site_label
_atom_site_type_symbol
_atom_site_fract_x
_atom_site_fract_y
_atom_site_fract_z
C1 C 0.2944(5) 0.0575(4) -0.0748(5)
C2 C 0.2255(5) 0.0933(4) -0.0289(5)
C3 C 0.4173(5) 0.1947(4) 0.0606(5)
C4 C -0.0122(6) 0.1411(5) -0.1596(6)
H1 H -0.0648(6) 0.1680(5) -0.1288(6)
H2 H 0.0388(6) 0.1929(5) -0.1626(6)
C5 C -0.0907(6) 0.1074(5) -0.2869(7)
H3 H -0.1208(6) 0.1641(5) -0.3379(7)
H4 H -0.1609(6) 0.0756(5) -0.2880(7)
C6 C 0.2076(6) 0.0275(5) -0.3136(6)
H5 H 0.2738(6) 0.0658(5) -0.3117(6)
H6 H 0.1845(6) -0.0185(5) -0.3794(6)
C7 C 0.1024(6) 0.0917(5) -0.3419(6)
H7 H 0.0827(6) 0.1258(5) -0.4170(6)
H8 H 0.1253(6) 0.1391(5) -0.2776(6)
S1 S 0.43156(12) 0.11204(11) -0.03005(14)
S2 S 0.28626(12) 0.18739(10) 0.06853(13)
S3 S 0.52630(13) 0.27273(11) 0.13536(15)
S4 S 0.26295(13) -0.03744(11) -0.17401(14)
S5 S 0.08418(13) 0.05373(11) -0.05290(14)
S6 S -0.02905(14) 0.02913(12) -0.35741(15)
Ag1 Ag 0.44110(4) 0.40011(4) 0.19886(5)
Ag1A Ag 0.05890(4) -0.09989(4) -0.19886(5)
S3A S -0.02630(13) -0.22727(11) -0.13536(15)
F1 F -0.0038(5) 0.3378(4) -0.2756(5)
F2 F 0.2363(5) 0.4577(4) -0.1732(5)
F3 F 0.0453(5) 0.4869(4) -0.2128(5)
F4 F 0.1446(4) 0.3681(4) -0.0927(4)
F5 F 0.1890(5) 0.3058(4) -0.2294(6)
F6 F 0.0890(7) 0.4258(5) -0.3547(5)
P1 P 0.1163(2) 0.39702(14) -0.2239(2)
N1 N 0.8856(9) 0.1971(7) 0.3754(9)
C8 C 0.8579(15) 0.2701(12) 0.3855(14)
C9 C 0.8082(17) 0.3674(15) 0.4105(17)
C10? C 0.6208(22) 0.1326(18) 0.4214(22)
C11? C 0.6610(21) 0.2166(17) 0.4588(21)
N2? N 0.6941(22) 0.2911(19) 0.4771(22)
loop_
_geom_bond_atom_site_label_1
_geom_bond_atom_site_label_2
_geom_bond_site_symmetry_1
_geom_bond_site_symmetry_2
C1 C2 1_555 1_555
C2 S2 1_555 1_555
C3 S1 1_555 1_555
C4 H1 1_555 1_555
H2 C4 1_555 1_555
C5 C4 1_555 1_555
H3 C5 1_555 1_555
H4 C5 1_555 1_555
C6 H5 1_555 1_555
H6 C6 1_555 1_555
C7 C6 1_555 1_555
H7 C7 1_555 1_555
H8 C7 1_555 1_555
S1 C1 1_555 1_555
S2 C3 1_555 1_555
S3 C3 1_555 1_555
S4 C1 1_555 1_555
S5 C2 1_555 1_555
S6 C5 1_555 1_555
Ag1 S3 1_555 1_555
F1 P1 1_555 1_555
F2 P1 1_555 1_555
F3 P1 1_555 1_555
F4 P1 1_555 1_555
F5 P1 1_555 1_555
F6 P1 1_555 1_555
N1 C8 1_555 1_555
C8 C9 1_555 1_555
Ag1A S4 1_555 1_555
S3A Ag1A 1_555 1_555
C4 S5 1_555 1_555
C6 S4 1_555 1_555
C7 S6 1_555 1_555
S5 Ag1A 1_555 1_555
S6 Ag1A 1_555 1_555

#END
