
#######################################################################
#
#                 Cambridge Crystallographic Data Centre
#                                CCDC 
#
#######################################################################
#
# If this CIF has been generated from an entry in the Cambridge 
# Structural Database, then it will include bibliographic, chemical, 
# crystal, experimental, refinement or atomic coordinate data resulting 
# from the CCDC's data processing and validation procedures.
#
#######################################################################

data_REBQIA
_symmetry_cell_setting           orthorhombic
_symmetry_space_group_name_H-M   'P b c n'
_symmetry_Int_Tables_number      60
_space_group_name_Hall           '-P 2n 2ab'
loop_
_symmetry_equiv_pos_site_id
_symmetry_equiv_pos_as_xyz
1 x,y,z
2 1/2-x,1/2-y,1/2+z
3 -x,y,1/2-z
4 1/2+x,1/2-y,-z
5 -x,-y,-z
6 1/2+x,1/2+y,1/2-z
7 x,-y,1/2+z
8 1/2-x,1/2+y,z
_cell_length_a                   10.056(2)
_cell_length_b                   20.966(5)
_cell_length_c                   17.043(4)
_cell_angle_alpha                90
_cell_angle_beta                 90
_cell_angle_gamma                90
_cell_volume                     3593.25
loop_
_atom_site_label
_atom_site_type_symbol
_atom_site_fract_x
_atom_site_fract_y
_atom_site_fract_z
C1 C 0.8735(6) 1.1759(3) 0.9813(3)
C2 C 0.9116(7) 1.2127(3) 1.0442(4)
H1 H 0.9571 1.1941 1.0859
C3 C 0.8824(9) 1.2775(3) 1.0459(4)
H2 H 0.9102 1.3021 1.0883
C4 C 0.8133(9) 1.3054(3) 0.9861(5)
H3 H 0.7938 1.3487 0.9880
C5 C 0.7730(8) 1.2696(3) 0.9236(5)
H4 H 0.7244 1.2884 0.8833
C6 C 0.8046(7) 1.2049(3) 0.9201(4)
H5 H 0.7794 1.1809 0.8766
C7 C 0.7793(8) 1.0498(3) 0.9405(3)
C8 C 0.6508(8) 1.0735(3) 0.9456(4)
H6 H 0.6345 1.1122 0.9706
C9 C 1.0424(7) 1.0922(3) 0.8937(4)
C10 C 1.0908(8) 1.1470(3) 0.8601(4)
H7 H 1.0611 1.1865 0.8778
C11 C 1.1838(9) 1.1441(4) 0.8001(4)
H8 H 1.2179 1.1810 0.7774
C12 C 1.2242(9) 1.0834(4) 0.7750(4)
H9 H 1.2852 1.0790 0.7343
C13 C 1.1727(9) 1.0307(3) 0.8113(4)
H10 H 1.2009 0.9908 0.7943
C14 C 0.7044(9) 0.9590(3) 0.8763(4)
H11 H 0.7221 0.9199 0.8526
C15 C 0.5756(10) 0.9811(4) 0.8768(5)
H12 H 0.5081 0.9576 0.8532
C16 C 0.5472(10) 1.0391(4) 0.9131(6)
H13 H 0.4604 1.0543 0.9155
Cu1 Cu 0.99571(9) 0.95243(3) 0.91521(4)
N1 N 0.8058(6) 0.9916(2) 0.9084(3)
N2 N 1.0833(6) 1.0333(2) 0.8703(3)
O3 O 0.8911(14) 0.8284(9) 0.7526(6)
O4 O 1.0043(15) 0.8986(4) 0.8165(5)
P1 P 0.92575(19) 1.09249(7) 0.97925(8)
S1 S 1.0000 0.86312(11) 0.7500
C1D C 1.1265(6) 0.8241(3) 1.0187(3)
C2D C 1.0884(7) 0.7873(3) 0.9558(4)
H1D H 1.0429 0.8059 0.9141
C3D C 1.1176(9) 0.7225(3) 0.9541(4)
H2D H 1.0898 0.6979 0.9117
C4D C 1.1867(9) 0.6946(3) 1.0139(5)
H3D H 1.2062 0.6513 1.0120
C5D C 1.2270(8) 0.7304(3) 1.0764(5)
H4D H 1.2756 0.7116 1.1167
C6D C 1.1954(7) 0.7951(3) 1.0799(4)
H5D H 1.2206 0.8191 1.1234
C7D C 1.2207(8) 0.9502(3) 1.0595(3)
C8D C 1.3492(8) 0.9265(3) 1.0544(4)
H6D H 1.3655 0.8878 1.0294
C9D C 0.9576(7) 0.9078(3) 1.1063(4)
C10D C 0.9092(8) 0.8530(3) 1.1399(4)
H7D H 0.9389 0.8135 1.1222
C11D C 0.8162(9) 0.8559(4) 1.1999(4)
H8D H 0.7821 0.8190 1.2226
C12D C 0.7758(9) 0.9166(4) 1.2250(4)
H9D H 0.7148 0.9210 1.2657
C13D C 0.8273(9) 0.9693(3) 1.1887(4)
H10D H 0.7991 1.0092 1.2057
C14D C 1.2956(9) 1.0410(3) 1.1237(4)
H11D H 1.2779 1.0801 1.1474
C15D C 1.4244(10) 1.0189(4) 1.1232(5)
H12D H 1.4919 1.0424 1.1468
C16D C 1.4528(10) 0.9609(4) 1.0869(6)
H13D H 1.5396 0.9457 1.0845
Cu1D Cu 1.00429(9) 1.04757(3) 1.08479(4)
Cu1B Cu 1.00429(9) 0.95243(3) 0.58479(4)
N1D N 1.1942(6) 1.0084(2) 1.0916(3)
N2D N 0.9167(6) 0.9667(2) 1.1297(3)
O3B O 1.1089(14) 0.8284(9) 0.7474(6)
O4B O 0.9957(15) 0.8986(4) 0.6835(5)
O4D O 0.9957(15) 1.1014(4) 1.1835(5)
P1D P 1.07425(19) 0.90751(7) 1.02075(8)
C17 C 0.6081(13) 0.8271(5) 0.6589(9)
H14 H 0.6458 0.7967 0.6947
H15 H 0.6162 0.8113 0.6062
H16 H 0.5159 0.8334 0.6712
O1 O 0.6700(11) 0.8801(4) 0.6649(10)
H17 H 0.7189 0.8791 0.7034
O2 O 1.0000 0.6835(9) 0.7500
H18 H 0.922(5) 0.702(3) 0.776(3)
H18B H 1.078(5) 0.702(3) 0.724(3)
loop_
_geom_bond_atom_site_label_1
_geom_bond_atom_site_label_2
_geom_bond_site_symmetry_1
_geom_bond_site_symmetry_2
C1 C2 1_555 1_555
C2 H1 1_555 1_555
C3 C2 1_555 1_555
H2 C3 1_555 1_555
C4 C3 1_555 1_555
H3 C4 1_555 1_555
C5 C4 1_555 1_555
H4 C5 1_555 1_555
C6 C1 1_555 1_555
H5 C6 1_555 1_555
C7 C8 1_555 1_555
C8 H6 1_555 1_555
C9 C10 1_555 1_555
C10 H7 1_555 1_555
C11 C10 1_555 1_555
H8 C11 1_555 1_555
C12 C11 1_555 1_555
H9 C12 1_555 1_555
C13 C12 1_555 1_555
H10 C13 1_555 1_555
C14 H11 1_555 1_555
C15 C14 1_555 1_555
H12 C15 1_555 1_555
C16 C8 1_555 1_555
H13 C16 1_555 1_555
C17 H14 1_555 1_555
H15 C17 1_555 1_555
H16 C17 1_555 1_555
Cu1 N1 1_555 1_555
N1 C7 1_555 1_555
N2 C9 1_555 1_555
O1 C17 1_555 1_555
H17 O1 1_555 1_555
O2 H18 1_555 1_555
O3 S1 1_555 1_555
O4 Cu1 1_555 1_555
P1 C1 1_555 1_555
S1 O4 1_555 1_555
C1D C2D 1_555 1_555
C2D H1D 1_555 1_555
C3D C2D 1_555 1_555
H2D C3D 1_555 1_555
C4D C3D 1_555 1_555
H3D C4D 1_555 1_555
C5D C4D 1_555 1_555
H4D C5D 1_555 1_555
C6D C1D 1_555 1_555
H5D C6D 1_555 1_555
C7D C8D 1_555 1_555
C8D H6D 1_555 1_555
C9D C10D 1_555 1_555
C10D H7D 1_555 1_555
C11D C10D 1_555 1_555
H8D C11D 1_555 1_555
C12D C11D 1_555 1_555
H9D C12D 1_555 1_555
C13D C12D 1_555 1_555
H10D C13D 1_555 1_555
C14D H11D 1_555 1_555
C15D C14D 1_555 1_555
H12D C15D 1_555 1_555
C16D C8D 1_555 1_555
H13D C16D 1_555 1_555
Cu1D P1 1_555 1_555
Cu1B O4B 1_555 1_555
N1D C7D 1_555 1_555
N2D C9D 1_555 1_555
O3B S1 1_555 1_555
O4B S1 1_555 1_555
O4D Cu1D 1_555 1_555
P1D Cu1 1_555 1_555
H18B O2 1_555 1_555
C5 C6 1_555 1_555
C7 P1 1_555 1_555
C9 P1 1_555 1_555
C13 N2 1_555 1_555
C14 N1 1_555 1_555
C15 C16 1_555 1_555
Cu1 N2 1_555 1_555
C1D P1D 1_555 1_555
C5D C6D 1_555 1_555
C7D P1D 1_555 1_555
C9D P1D 1_555 1_555
C13D N2D 1_555 1_555
C14D N1D 1_555 1_555
C15D C16D 1_555 1_555
Cu1D N1D 1_555 1_555
Cu1D N2D 1_555 1_555

#END
