
#######################################################################
#
#                 Cambridge Crystallographic Data Centre
#                                CCDC 
#
#######################################################################
#
# If this CIF has been generated from an entry in the Cambridge 
# Structural Database, then it will include bibliographic, chemical, 
# crystal, experimental, refinement or atomic coordinate data resulting 
# from the CCDC's data processing and validation procedures.
#
#######################################################################

data_REBRUN
_symmetry_cell_setting           triclinic
_symmetry_space_group_name_H-M   'P -1'
_symmetry_Int_Tables_number      2
_space_group_name_Hall           '-P 1'
loop_
_symmetry_equiv_pos_site_id
_symmetry_equiv_pos_as_xyz
1 x,y,z
2 -x,-y,-z
_cell_length_a                   15.269(2)
_cell_length_b                   15.255(2)
_cell_length_c                   19.038(2)
_cell_angle_alpha                74.781(7)
_cell_angle_beta                 71.636(6)
_cell_angle_gamma                69.557(6)
_cell_volume                     3885.21
loop_
_atom_site_label
_atom_site_type_symbol
_atom_site_fract_x
_atom_site_fract_y
_atom_site_fract_z
Br1 Br 0.04163(2) 0.14180(2) -0.04922(2)
Br2 Br -0.03215(2) 0.36535(2) 0.04829(2)
Br3 Br 0.00056(2) 0.36904(2) -0.46166(2)
Br4 Br 0.01026(2) 0.12440(2) 0.44642(2)
Cu1 Cu 0.10193(3) 0.27868(3) -0.05014(2)
Cu2 Cu -0.07820(3) 0.22184(3) 0.05421(2)
Cu3 Cu 0.06560(3) 0.48978(3) -0.44648(2)
Cu4 Cu -0.08987(3) 0.01886(3) 0.46388(2)
P1 P 0.23424(6) 0.22575(6) -0.00880(5)
P2 P -0.23133(6) 0.26026(6) 0.05392(5)
P3 P 0.22520(6) 0.43648(6) -0.47111(5)
P4 P -0.24412(6) 0.06296(6) 0.52479(5)
N1 N 0.0684(2) 0.3649(2) -0.1461(1)
N2 N -0.0464(2) 0.1346(2) 0.1507(1)
N3 N 0.0019(2) 0.5386(2) -0.3447(1)
N4 N -0.0476(2) -0.0334(2) 0.3640(1)
C1 C 0.0846(2) 0.3285(2) -0.2094(2)
C2 C 0.0626(2) 0.3831(2) -0.2743(2)
C3 C 0.0219(2) 0.4815(2) -0.2786(2)
C4 C -0.0369(2) 0.6309(2) -0.3445(2)
C5 C -0.0589(3) 0.6738(2) -0.2814(2)
C6 C -0.0385(3) 0.6192(2) -0.2158(2)
C7 C 0.0036(2) 0.5201(2) -0.2137(2)
C8 C 0.0294(2) 0.4570(2) -0.1494(2)
C9 C -0.0297(2) 0.0426(2) 0.1599(2)
C10 C -0.0284(2) -0.0184(2) 0.2299(2)
C11 C -0.0093(2) -0.1179(2) 0.2380(2)
C12 C -0.0091(2) -0.1711(2) 0.3073(2)
C13 C -0.0292(2) -0.1257(2) 0.3687(2)
C14 C -0.0460(2) 0.0213(2) 0.2939(2)
C15 C -0.0614(2) 0.1201(2) 0.2829(2)
C16 C -0.0605(2) 0.1720(2) 0.2130(2)
C17 C 0.3500(2) 0.1890(3) -0.0769(2)
C18 C 0.3613(3) 0.2486(3) -0.1462(2)
C19 C 0.4503(3) 0.2328(3) -0.1990(2)
C20 C 0.5268(3) 0.1573(3) -0.1833(2)
C21 C 0.5160(3) 0.0959(3) -0.1161(3)
C22 C 0.4280(3) 0.1119(3) -0.0624(2)
C23 C 0.2615(2) 0.3070(2) 0.0312(2)
C24 C 0.2045(2) 0.4006(3) 0.0279(2)
C25 C 0.2243(3) 0.4643(3) 0.0572(2)
C26 C 0.3006(3) 0.4347(3) 0.0901(2)
C27 C 0.3589(3) 0.3418(3) 0.0928(2)
C28 C 0.3400(3) 0.2783(3) 0.0631(2)
C29 C 0.2290(2) 0.1238(2) 0.0670(2)
C30 C 0.2383(3) 0.0373(3) 0.0498(2)
C31 C 0.2259(3) -0.0394(3) 0.1063(3)
C32 C 0.2014(3) -0.0288(3) 0.1810(2)
C33 C 0.1894(3) 0.0566(3) 0.1988(2)
C34 C 0.2030(2) 0.1337(3) 0.1421(2)
C35 C -0.2563(3) 0.2805(2) -0.0376(2)
C36 C -0.1874(3) 0.3044(3) -0.1014(2)
C37 C -0.2033(4) 0.3209(3) -0.1722(2)
C38 C -0.2864(5) 0.3125(4) -0.1800(3)
C39 C -0.3538(4) 0.2867(3) -0.1177(3)
C40 C -0.3395(3) 0.2714(3) -0.0467(2)
C41 C -0.2923(2) 0.1708(2) 0.1077(2)
C42 C -0.3874(3) 0.1933(3) 0.1503(2)
C43 C -0.4313(3) 0.1221(3) 0.1858(2)
C44 C -0.3810(3) 0.0290(3) 0.1803(2)
C45 C -0.2858(3) 0.0046(3) 0.1404(2)
C46 C -0.2414(2) 0.0758(2) 0.1043(2)
C47 C -0.3095(2) 0.3656(2) 0.0941(2)
C48 C -0.3904(3) 0.4271(3) 0.0703(2)
C49 C -0.4477(3) 0.5043(3) 0.1054(2)
C50 C -0.4259(3) 0.5206(3) 0.1645(2)
C51 C -0.3461(3) 0.4606(3) 0.1888(2)
C52 C -0.2873(3) 0.3837(3) 0.1533(2)
C53 C 0.2875(2) 0.4255(2) -0.5699(2)
C54 C 0.3862(2) 0.3856(3) -0.5938(2)
C55 C 0.4293(3) 0.3821(3) -0.6690(2)
C56 C 0.3738(3) 0.4164(3) -0.7209(2)
C57 C 0.2756(3) 0.4539(3) -0.6977(2)
C58 C 0.2320(2) 0.4591(3) -0.6222(2)
C59 C 0.2694(2) 0.3162(2) -0.4221(2)
C60 C 0.3033(3) 0.2937(3) -0.3579(2)
C61 C 0.3243(4) 0.2011(3) -0.3190(2)
C62 C 0.3114(3) 0.1295(3) -0.3426(2)
C63 C 0.2771(3) 0.1513(3) -0.4056(2)
C64 C 0.2555(3) 0.2434(3) -0.4445(2)
C65 C 0.2787(2) 0.5101(2) -0.4460(2)
C66 C 0.2197(2) 0.6002(3) -0.4335(2)
C67 C 0.2537(3) 0.6605(3) -0.4119(2)
C68 C 0.3458(3) 0.6309(3) -0.4021(2)
C69 C 0.4061(3) 0.5423(3) -0.4156(2)
C70 C 0.3727(2) 0.4820(3) -0.4377(2)
C71 C -0.3319(2) 0.0917(2) 0.4691(2)
C72 C -0.3017(2) 0.1173(3) 0.3919(2)
C73 C -0.3633(3) 0.1398(3) 0.3461(2)
C74 C -0.4577(3) 0.1372(3) 0.3775(3)
C75 C -0.4890(3) 0.1121(3) 0.4539(3)
C76 C -0.4267(3) 0.0888(3) 0.4998(2)
C77 C -0.2823(2) 0.1657(2) 0.5713(2)
C78 C -0.2121(2) 0.1839(3) 0.5929(2)
C79 C -0.2342(3) 0.2648(3) 0.6233(2)
C80 C -0.3254(3) 0.3270(3) 0.6331(2)
C81 C -0.3963(3) 0.3081(3) 0.6140(2)
C82 C -0.3749(2) 0.2279(3) 0.5831(2)
C83 C -0.2775(2) -0.0315(2) 0.6001(2)
C84 C -0.2484(2) -0.1221(3) 0.5833(2)
C85 C -0.2672(3) -0.1974(3) 0.6376(2)
C86 C -0.3135(3) -0.1835(3) 0.7108(2)
C87 C -0.3419(3) -0.0942(3) 0.7285(2)
C88 C -0.3258(3) -0.0175(3) 0.6733(2)
H1 H 0.1128 0.2616 -0.2074
H2 H 0.0747 0.3538 -0.3167
H3 H -0.0521 0.6707 -0.3894
H4 H -0.0869 0.7406 -0.2845
H5 H -0.0513 0.6473 -0.1727
H6 H 0.0174 0.4834 -0.1055
H7 H -0.0172 0.0150 0.1166
H8 H 0.0033 -0.1471 0.1955
H9 H 0.0045 -0.2384 0.3142
H10 H -0.0306 -0.1651 0.4180
H11 H -0.0718 0.1504 0.3241
H12 H -0.0704 0.2389 0.2064
H13 H 0.3072 0.3009 -0.1579
H14 H 0.4583 0.2753 -0.2466
H15 H 0.5879 0.1464 -0.2194
H16 H 0.5691 0.0420 -0.1054
H17 H 0.4201 0.0692 -0.0153
H18 H 0.1506 0.4216 0.0055
H19 H 0.1847 0.5291 0.0546
H20 H 0.3132 0.4789 0.1107
H21 H 0.4128 0.3209 0.1153
H22 H 0.3808 0.2142 0.0645
H23 H 0.2537 0.0306 -0.0023
H24 H 0.2339 -0.0985 0.0931
H25 H 0.1930 -0.0823 0.2197
H26 H 0.1720 0.0641 0.2505
H27 H 0.1944 0.1936 0.1543
H28 H -0.1297 0.3112 -0.0960
H29 H -0.1551 0.3376 -0.2163
H30 H -0.2969 0.3240 -0.2285
H31 H -0.4112 0.2796 -0.1235
H32 H -0.3878 0.2541 -0.0025
H33 H -0.4223 0.2584 0.1550
H34 H -0.4977 0.1385 0.2139
H35 H -0.4124 -0.0201 0.2045
H36 H -0.2505 -0.0608 0.1378
H37 H -0.1749 0.0595 0.0764
H38 H -0.4066 0.4160 0.0293
H39 H -0.5036 0.5462 0.0883
H40 H -0.4668 0.5742 0.1883
H41 H -0.3305 0.4719 0.2302
H42 H -0.2313 0.3416 0.1707
H43 H 0.4250 0.3607 -0.5578
H44 H 0.4977 0.3555 -0.6852
H45 H 0.4046 0.4140 -0.7728
H46 H 0.2371 0.4762 -0.7338
H47 H 0.1635 0.4862 -0.6060
H48 H 0.3126 0.3429 -0.3404
H49 H 0.3489 0.1861 -0.2755
H50 H 0.3265 0.0660 -0.3162
H51 H 0.2668 0.1017 -0.4214
H52 H 0.2318 0.2569 -0.4886
H53 H 0.1549 0.6211 -0.4392
H54 H 0.2126 0.7226 -0.4035
H55 H 0.3679 0.6723 -0.3860
H56 H 0.4705 0.5215 -0.4095
H57 H 0.4144 0.4207 -0.4470
H58 H -0.2359 0.1178 0.3704
H59 H -0.3406 0.1575 0.2927
H60 H -0.5011 0.1534 0.3458
H61 H -0.5540 0.1096 0.4756
H62 H -0.4488 0.0704 0.5530
H63 H -0.1481 0.1406 0.5865
H64 H -0.1849 0.2772 0.6374
H65 H -0.3399 0.3827 0.6538
H66 H -0.4606 0.3508 0.6219
H67 H -0.4246 0.2155 0.5693
H68 H -0.2134 -0.1326 0.5329
H69 H -0.2486 -0.2590 0.6245
H70 H -0.3257 -0.2365 0.7486
H71 H -0.3728 -0.0854 0.7798
H72 H -0.3478 0.0453 0.6854
Br3A Br -0.00056(2) 0.63096(2) -0.53834(2)
Br4A Br -0.01026(2) -0.12440(2) 0.55358(2)
Cu3A Cu -0.06560(3) 0.51022(3) -0.55352(2)
Cu4A Cu 0.08987(3) -0.01886(3) 0.53612(2)
loop_
_geom_bond_atom_site_label_1
_geom_bond_atom_site_label_2
_geom_bond_site_symmetry_1
_geom_bond_site_symmetry_2
Br1 Cu1 1_555 1_555
Br2 Cu1 1_555 1_555
Br3 Cu3 1_555 1_555
Br4 Cu4 1_555 1_555
Cu1 P1 1_555 1_555
Cu2 Br1 1_555 1_555
Cu3 P3 1_555 1_555
Cu4 P4 1_555 1_555
P1 C17 1_555 1_555
P2 Cu2 1_555 1_555
P3 C53 1_555 1_555
P4 C71 1_555 1_555
N1 Cu1 1_555 1_555
N2 Cu2 1_555 1_555
N3 Cu3 1_555 1_555
N4 Cu4 1_555 1_555
C1 N1 1_555 1_555
C2 C1 1_555 1_555
C3 N3 1_555 1_555
C4 N3 1_555 1_555
C5 C4 1_555 1_555
C6 C5 1_555 1_555
C7 C3 1_555 1_555
C8 N1 1_555 1_555
C9 N2 1_555 1_555
C10 C9 1_555 1_555
C11 C10 1_555 1_555
C12 C11 1_555 1_555
C13 N4 1_555 1_555
C14 N4 1_555 1_555
C15 C14 1_555 1_555
C16 N2 1_555 1_555
C17 C18 1_555 1_555
C18 C19 1_555 1_555
C19 C20 1_555 1_555
C20 C21 1_555 1_555
C21 C22 1_555 1_555
C22 C17 1_555 1_555
C23 P1 1_555 1_555
C24 C23 1_555 1_555
C25 C24 1_555 1_555
C26 C25 1_555 1_555
C27 C26 1_555 1_555
C28 C23 1_555 1_555
C29 P1 1_555 1_555
C30 C29 1_555 1_555
C31 C30 1_555 1_555
C32 C31 1_555 1_555
C33 C32 1_555 1_555
C34 C29 1_555 1_555
C35 P2 1_555 1_555
C36 C35 1_555 1_555
C37 C36 1_555 1_555
C38 C37 1_555 1_555
C39 C38 1_555 1_555
C40 C35 1_555 1_555
C41 P2 1_555 1_555
C42 C41 1_555 1_555
C43 C42 1_555 1_555
C44 C43 1_555 1_555
C45 C44 1_555 1_555
C46 C41 1_555 1_555
C47 P2 1_555 1_555
C48 C47 1_555 1_555
C49 C48 1_555 1_555
C50 C49 1_555 1_555
C51 C50 1_555 1_555
C52 C47 1_555 1_555
C53 C54 1_555 1_555
C54 C55 1_555 1_555
C55 C56 1_555 1_555
C56 C57 1_555 1_555
C57 C58 1_555 1_555
C58 C53 1_555 1_555
C59 P3 1_555 1_555
C60 C59 1_555 1_555
C61 C60 1_555 1_555
C62 C61 1_555 1_555
C63 C62 1_555 1_555
C64 C59 1_555 1_555
C65 P3 1_555 1_555
C66 C65 1_555 1_555
C67 C66 1_555 1_555
C68 C67 1_555 1_555
C69 C68 1_555 1_555
C70 C65 1_555 1_555
C71 C72 1_555 1_555
C72 C73 1_555 1_555
C73 C74 1_555 1_555
C74 C75 1_555 1_555
C75 C76 1_555 1_555
C76 C71 1_555 1_555
C77 P4 1_555 1_555
C78 C77 1_555 1_555
C79 C78 1_555 1_555
C80 C79 1_555 1_555
C81 C80 1_555 1_555
C82 C77 1_555 1_555
C83 P4 1_555 1_555
C84 C83 1_555 1_555
C85 C84 1_555 1_555
C86 C85 1_555 1_555
C87 C86 1_555 1_555
C88 C83 1_555 1_555
H1 C1 1_555 1_555
H2 C2 1_555 1_555
H3 C4 1_555 1_555
H4 C5 1_555 1_555
H5 C6 1_555 1_555
H6 C8 1_555 1_555
H7 C9 1_555 1_555
H8 C11 1_555 1_555
H9 C12 1_555 1_555
H10 C13 1_555 1_555
H11 C15 1_555 1_555
H12 C16 1_555 1_555
H13 C18 1_555 1_555
H14 C19 1_555 1_555
H15 C20 1_555 1_555
H16 C21 1_555 1_555
H17 C22 1_555 1_555
H18 C24 1_555 1_555
H19 C25 1_555 1_555
H20 C26 1_555 1_555
H21 C27 1_555 1_555
H22 C28 1_555 1_555
H23 C30 1_555 1_555
H24 C31 1_555 1_555
H25 C32 1_555 1_555
H26 C33 1_555 1_555
H27 C34 1_555 1_555
H28 C36 1_555 1_555
H29 C37 1_555 1_555
H30 C38 1_555 1_555
H31 C39 1_555 1_555
H32 C40 1_555 1_555
H33 C42 1_555 1_555
H34 C43 1_555 1_555
H35 C44 1_555 1_555
H36 C45 1_555 1_555
H37 C46 1_555 1_555
H38 C48 1_555 1_555
H39 C49 1_555 1_555
H40 C50 1_555 1_555
H41 C51 1_555 1_555
H42 C52 1_555 1_555
H43 C54 1_555 1_555
H44 C55 1_555 1_555
H45 C56 1_555 1_555
H46 C57 1_555 1_555
H47 C58 1_555 1_555
H48 C60 1_555 1_555
H49 C61 1_555 1_555
H50 C62 1_555 1_555
H51 C63 1_555 1_555
H52 C64 1_555 1_555
H53 C66 1_555 1_555
H54 C67 1_555 1_555
H55 C68 1_555 1_555
H56 C69 1_555 1_555
H57 C70 1_555 1_555
H58 C72 1_555 1_555
H59 C73 1_555 1_555
H60 C74 1_555 1_555
H61 C75 1_555 1_555
H62 C76 1_555 1_555
H63 C78 1_555 1_555
H64 C79 1_555 1_555
H65 C80 1_555 1_555
H66 C81 1_555 1_555
H67 C82 1_555 1_555
H68 C84 1_555 1_555
H69 C85 1_555 1_555
H70 C86 1_555 1_555
H71 C87 1_555 1_555
H72 C88 1_555 1_555
Br3A Cu3 1_555 1_555
Br4A Cu4 1_555 1_555
Cu3A Br3 1_555 1_555
Cu4A Br4 1_555 1_555
Br2 Cu2 1_555 1_555
C2 C3 1_555 1_555
C6 C7 1_555 1_555
C7 C8 1_555 1_555
C10 C14 1_555 1_555
C12 C13 1_555 1_555
C15 C16 1_555 1_555
C27 C28 1_555 1_555
C33 C34 1_555 1_555
C39 C40 1_555 1_555
C45 C46 1_555 1_555
C51 C52 1_555 1_555
C63 C64 1_555 1_555
C69 C70 1_555 1_555
C81 C82 1_555 1_555
C87 C88 1_555 1_555
Br3A Cu3A 1_555 1_555
Br4A Cu4A 1_555 1_555

#END
