
#######################################################################
#
#                 Cambridge Crystallographic Data Centre
#                                CCDC 
#
#######################################################################
#
# If this CIF has been generated from an entry in the Cambridge 
# Structural Database, then it will include bibliographic, chemical, 
# crystal, experimental, refinement or atomic coordinate data resulting 
# from the CCDC's data processing and validation procedures.
#
#######################################################################

data_REBRAT
_symmetry_cell_setting           monoclinic
_symmetry_space_group_name_H-M   'P 21/n'
_symmetry_Int_Tables_number      14
_space_group_name_Hall           '-P 2yn'
loop_
_symmetry_equiv_pos_site_id
_symmetry_equiv_pos_as_xyz
1 x,y,z
2 1/2-x,1/2+y,1/2-z
3 -x,-y,-z
4 1/2+x,1/2-y,1/2+z
_cell_length_a                   8.854(2)
_cell_length_b                   17.427(4)
_cell_length_c                   13.507(3)
_cell_angle_alpha                90
_cell_angle_beta                 92.458(4)
_cell_angle_gamma                90
_cell_volume                     2082.19
loop_
_atom_site_label
_atom_site_type_symbol
_atom_site_fract_x
_atom_site_fract_y
_atom_site_fract_z
Br1 Br 0.00184(3) -0.11024(1) 0.00488(2)
Cu1 Cu -0.13760(3) -0.00368(1) -0.08638(2)
P1 P -0.09882(7) -0.00506(3) -0.24735(4)
N1 N -0.3507(2) -0.00202(10) -0.0316(1)
C1 C -0.4139(3) 0.0628(1) 0.0005(2)
C2 C -0.4387(3) -0.0645(1) -0.0315(2)
C3 C -0.1990(2) -0.0767(1) -0.3238(2)
C4 C -0.2384(3) -0.0645(1) -0.4237(2)
C5 C -0.3151(3) -0.1210(1) -0.4791(2)
C6 C -0.3513(3) -0.1899(1) -0.4353(2)
C7 C -0.3119(3) -0.2025(1) -0.3360(2)
C8 C -0.2360(3) -0.1463(1) -0.2802(2)
C9 C 0.0977(2) -0.0211(1) -0.2760(2)
C10 C 0.2079(3) 0.0142(1) -0.2157(2)
C11 C 0.3595(3) 0.0071(1) -0.2366(2)
C12 C 0.4019(3) -0.0357(1) -0.3171(2)
C13 C 0.2923(3) -0.0718(1) -0.3775(2)
C14 C 0.1408(3) -0.0644(1) -0.3570(2)
C15 C -0.1450(2) 0.0838(1) -0.3144(2)
C16 C -0.0452(3) 0.1206(1) -0.3759(2)
C17 C -0.0902(3) 0.1865(1) -0.4275(2)
C18 C -0.2337(3) 0.2158(1) -0.4195(2)
C19 C -0.3333(3) 0.1801(1) -0.3574(2)
C20 C -0.2893(3) 0.1152(1) -0.3043(2)
H1 H -0.358(3) 0.105(2) 0.001(2)
H2 H -0.404(3) -0.107(2) -0.052(2)
H3 H -0.219(4) -0.017(2) -0.455(2)
H4 H -0.340(3) -0.114(1) -0.544(2)
H5 H -0.405(3) -0.228(1) -0.472(2)
H6 H -0.326(3) -0.247(2) -0.310(2)
H7 H -0.213(3) -0.154(1) -0.212(2)
H8 H 0.177(3) 0.043(1) -0.158(2)
H9 H 0.439(3) 0.033(1) -0.197(2)
H10 H 0.505(3) -0.043(1) -0.331(2)
H11 H 0.314(3) -0.100(2) -0.437(2)
H12 H 0.069(3) -0.092(1) -0.401(2)
H13 H 0.045(3) 0.104(1) -0.388(2)
H14 H -0.032(4) 0.207(2) -0.468(2)
H15 H -0.271(3) 0.260(2) -0.456(2)
H16 H -0.419(3) 0.199(2) -0.348(2)
H17 H -0.359(4) 0.093(2) -0.257(2)
Br1B Br -0.00184(3) 0.11024(1) -0.00488(2)
Cu1B Cu 0.13760(3) 0.00368(1) 0.08638(2)
Cu1B_2 Cu -0.86240(3) 0.00368(1) 0.08638(2)
P1B P 0.09882(7) 0.00506(3) 0.24735(4)
N1B N -0.6493(2) 0.00202(10) 0.0316(1)
N1B_2 N 0.3507(2) 0.00202(10) 0.0316(1)
C1B C -0.5861(3) -0.0628(1) -0.0005(2)
C2B C -0.5613(3) 0.0645(1) 0.0315(2)
C3B C 0.1990(2) 0.0767(1) 0.3238(2)
C4B C 0.2384(3) 0.0645(1) 0.4237(2)
C5B C 0.3151(3) 0.1210(1) 0.4791(2)
C6B C 0.3513(3) 0.1899(1) 0.4353(2)
C7B C 0.3119(3) 0.2025(1) 0.3360(2)
C8B C 0.2360(3) 0.1463(1) 0.2802(2)
C9B C -0.0977(2) 0.0211(1) 0.2760(2)
C10B C -0.2079(3) -0.0142(1) 0.2157(2)
C11B C -0.3595(3) -0.0071(1) 0.2366(2)
C12B C -0.4019(3) 0.0357(1) 0.3171(2)
C13B C -0.2923(3) 0.0718(1) 0.3775(2)
C14B C -0.1408(3) 0.0644(1) 0.3570(2)
C15B C 0.1450(2) -0.0838(1) 0.3144(2)
C16B C 0.0452(3) -0.1206(1) 0.3759(2)
C17B C 0.0902(3) -0.1865(1) 0.4275(2)
C18B C 0.2337(3) -0.2158(1) 0.4195(2)
C19B C 0.3333(3) -0.1801(1) 0.3574(2)
C20B C 0.2893(3) -0.1152(1) 0.3043(2)
H1B H -0.642(3) -0.105(2) -0.001(2)
H2B H -0.596(3) 0.107(2) 0.052(2)
H3B H 0.219(4) 0.017(2) 0.455(2)
H4B H 0.340(3) 0.114(1) 0.544(2)
H5B H 0.405(3) 0.228(1) 0.472(2)
H6B H 0.326(3) 0.247(2) 0.310(2)
H7B H 0.213(3) 0.154(1) 0.212(2)
H8B H -0.177(3) -0.043(1) 0.158(2)
H9B H -0.439(3) -0.033(1) 0.197(2)
H10B H -0.505(3) 0.043(1) 0.331(2)
H11B H -0.314(3) 0.100(2) 0.437(2)
H12B H -0.069(3) 0.092(1) 0.401(2)
H13B H -0.045(3) -0.104(1) 0.388(2)
H14B H 0.032(4) -0.207(2) 0.468(2)
H15B H 0.271(3) -0.260(2) 0.456(2)
H16B H 0.419(3) -0.199(2) 0.348(2)
H17B H 0.359(4) -0.093(2) 0.257(2)
Cl1 Cl 0.25324(10) 0.28482(4) -0.32550(5)
Cl2 Cl 0.39124(8) 0.20644(4) -0.15549(5)
C21 C 0.2192(3) 0.2363(2) -0.2139(2)
H18 H 0.169(3) 0.271(2) -0.168(2)
H19 H 0.164(4) 0.195(2) -0.227(2)
loop_
_geom_bond_atom_site_label_1
_geom_bond_atom_site_label_2
_geom_bond_site_symmetry_1
_geom_bond_site_symmetry_2
Br1 Cu1 1_555 1_555
Cu1 P1 1_555 1_555
Cl1 C21 1_555 1_555
Cl2 C21 1_555 1_555
P1 C3 1_555 1_555
N1 Cu1 1_555 1_555
C1 N1 1_555 1_555
C2 N1 1_555 1_555
C3 C4 1_555 1_555
C4 C5 1_555 1_555
C5 C6 1_555 1_555
C6 C7 1_555 1_555
C7 C8 1_555 1_555
C8 C3 1_555 1_555
C9 P1 1_555 1_555
C10 C9 1_555 1_555
C11 C10 1_555 1_555
C12 C11 1_555 1_555
C13 C12 1_555 1_555
C14 C9 1_555 1_555
C15 P1 1_555 1_555
C16 C15 1_555 1_555
C17 C16 1_555 1_555
C18 C17 1_555 1_555
C19 C18 1_555 1_555
C20 C15 1_555 1_555
C21 H18 1_555 1_555
H1 C1 1_555 1_555
H2 C2 1_555 1_555
H3 C4 1_555 1_555
H4 C5 1_555 1_555
H5 C6 1_555 1_555
H6 C7 1_555 1_555
H7 C8 1_555 1_555
H8 C10 1_555 1_555
H9 C11 1_555 1_555
H10 C12 1_555 1_555
H11 C13 1_555 1_555
H12 C14 1_555 1_555
H13 C16 1_555 1_555
H14 C17 1_555 1_555
H15 C18 1_555 1_555
H16 C19 1_555 1_555
H17 C20 1_555 1_555
H19 C21 1_555 1_555
Br1B Cu1 1_555 1_555
Cu1B Br1 1_555 1_555
Cu1B_2 N1B 1_555 1_555
P1B Cu1B 1_555 1_555
N1B C1B 1_555 1_555
N1B_2 Cu1B 1_555 1_555
C1B C2 1_555 1_555
C2B C1 1_555 1_555
C3B P1B 1_555 1_555
C4B C3B 1_555 1_555
C5B C4B 1_555 1_555
C6B C5B 1_555 1_555
C7B C6B 1_555 1_555
C8B C3B 1_555 1_555
C9B P1B 1_555 1_555
C10B C9B 1_555 1_555
C11B C10B 1_555 1_555
C12B C11B 1_555 1_555
C13B C12B 1_555 1_555
C14B C9B 1_555 1_555
C15B P1B 1_555 1_555
C16B C15B 1_555 1_555
C17B C16B 1_555 1_555
C18B C17B 1_555 1_555
C19B C18B 1_555 1_555
C20B C15B 1_555 1_555
H1B C1B 1_555 1_555
H2B C2B 1_555 1_555
H3B C4B 1_555 1_555
H4B C5B 1_555 1_555
H5B C6B 1_555 1_555
H6B C7B 1_555 1_555
H7B C8B 1_555 1_555
H8B C10B 1_555 1_555
H9B C11B 1_555 1_555
H10B C12B 1_555 1_555
H11B C13B 1_555 1_555
H12B C14B 1_555 1_555
H13B C16B 1_555 1_555
H14B C17B 1_555 1_555
H15B C18B 1_555 1_555
H16B C19B 1_555 1_555
H17B C20B 1_555 1_555
C13 C14 1_555 1_555
C19 C20 1_555 1_555
Br1B Cu1B 1_555 1_555
N1B C2B 1_555 1_555
C7B C8B 1_555 1_555
C13B C14B 1_555 1_555
C19B C20B 1_555 1_555

#END
