
#######################################################################
#
#                 Cambridge Crystallographic Data Centre
#                                CCDC 
#
#######################################################################
#
# If this CIF has been generated from an entry in the Cambridge 
# Structural Database, then it will include bibliographic, chemical, 
# crystal, experimental, refinement or atomic coordinate data resulting 
# from the CCDC's data processing and validation procedures.
#
#######################################################################

data_REBROH
_symmetry_cell_setting           triclinic
_symmetry_space_group_name_H-M   'P -1'
_symmetry_Int_Tables_number      2
_space_group_name_Hall           '-P 1'
loop_
_symmetry_equiv_pos_site_id
_symmetry_equiv_pos_as_xyz
1 x,y,z
2 -x,-y,-z
_cell_length_a                   8.289(4)
_cell_length_b                   9.471(5)
_cell_length_c                   13.98(1)
_cell_angle_alpha                86.65(5)
_cell_angle_beta                 72.77(4)
_cell_angle_gamma                64.94(4)
_cell_volume                     946.718
loop_
_atom_site_label
_atom_site_type_symbol
_atom_site_fract_x
_atom_site_fract_y
_atom_site_fract_z
Br1 Br -0.1567(2) -0.1066(1) 0.04733(8)
Cu1 Cu -0.1512(2) 0.1499(1) 0.07850(9)
P1 P -0.1404(4) 0.1676(3) 0.2337(2)
N1 N -0.388(1) 0.306(1) 0.0405(7)
C1 C -0.420(1) 0.444(1) 0.0067(7)
C2 C -0.537(2) 0.277(1) 0.0636(8)
C3 C -0.710(1) 0.372(1) 0.0546(7)
C4 C -0.258(1) 0.484(1) -0.0198(8)
C5 C -0.352(1) 0.192(1) 0.3317(7)
C6 C -0.431(1) 0.090(1) 0.3272(8)
C7 C -0.586(2) 0.096(1) 0.3994(8)
C8 C -0.670(1) 0.211(1) 0.4797(8)
C9 C -0.597(2) 0.312(1) 0.4860(8)
C10 C -0.436(1) 0.302(1) 0.4144(7)
C11 C -0.097(1) 0.332(1) 0.2587(7)
C12 C -0.192(1) 0.474(1) 0.2227(8)
C13 C -0.159(2) 0.601(1) 0.2336(8)
C14 C -0.024(2) 0.589(1) 0.2781(7)
C15 C 0.069(2) 0.452(1) 0.3137(8)
C16 C 0.034(1) 0.322(1) 0.3058(8)
C17 C 0.037(1) 0.002(1) 0.2700(7)
C18 C 0.010(1) -0.051(1) 0.3666(8)
C19 C 0.149(2) -0.177(1) 0.3917(8)
C20 C 0.318(2) -0.257(1) 0.3198(9)
C21 C 0.347(2) -0.207(1) 0.2228(8)
C22 C 0.206(2) -0.083(1) 0.2004(8)
H1 H -0.5227 0.1789 0.0895
H2 H -0.8065 0.3381 0.0724
H3 H -0.1399 0.4137 -0.0130
H4 H -0.3750 0.0134 0.2720
H5 H -0.6374 0.0247 0.3954
H6 H -0.7788 0.2174 0.5305
H7 H -0.6575 0.3901 0.5401
H8 H -0.3824 0.3703 0.4214
H9 H -0.2817 0.4822 0.1902
H10 H -0.2275 0.6983 0.2106
H11 H 0.0017 0.6759 0.2834
H12 H 0.1598 0.4449 0.3446
H13 H 0.0983 0.2270 0.3323
H14 H -0.1079 0.0014 0.4160
H15 H 0.1292 -0.2081 0.4585
H16 H 0.4130 -0.3464 0.3358
H17 H 0.4641 -0.2578 0.1731
H18 H 0.2249 -0.0544 0.1331
Br1A Br 0.1567(2) 0.1066(1) -0.04733(8)
Cu1A Cu 0.1512(2) -0.1499(1) -0.07850(9)
Cu1A_2 Cu -0.8488(2) 0.8501(1) -0.07850(9)
P1A P 0.1404(4) -0.1676(3) -0.2337(2)
N1A N -0.612(1) 0.694(1) -0.0405(7)
N1A_2 N 0.388(1) -0.306(1) -0.0405(7)
C1A C -0.580(1) 0.556(1) -0.0067(7)
C2A C -0.463(2) 0.723(1) -0.0636(8)
C3A C -0.290(1) 0.628(1) -0.0546(7)
C4A C -0.742(1) 0.516(1) 0.0198(8)
C5A C 0.352(1) -0.192(1) -0.3317(7)
C6A C 0.431(1) -0.090(1) -0.3272(8)
C7A C 0.586(2) -0.096(1) -0.3994(8)
C8A C 0.670(1) -0.211(1) -0.4797(8)
C9A C 0.597(2) -0.312(1) -0.4860(8)
C10A C 0.436(1) -0.302(1) -0.4144(7)
C11A C 0.097(1) -0.332(1) -0.2587(7)
C12A C 0.192(1) -0.474(1) -0.2227(8)
C13A C 0.159(2) -0.601(1) -0.2336(8)
C14A C 0.024(2) -0.589(1) -0.2781(7)
C15A C -0.069(2) -0.452(1) -0.3137(8)
C16A C -0.034(1) -0.322(1) -0.3058(8)
C17A C -0.037(1) -0.002(1) -0.2700(7)
C18A C -0.010(1) 0.051(1) -0.3666(8)
C19A C -0.149(2) 0.177(1) -0.3917(8)
C20A C -0.318(2) 0.257(1) -0.3198(9)
C21A C -0.347(2) 0.207(1) -0.2228(8)
C22A C -0.206(2) 0.083(1) -0.2004(8)
H1A H -0.4773 0.8211 -0.0895
H2A H -0.1935 0.6619 -0.0724
H3A H -0.8601 0.5863 0.0130
H4A H 0.3750 -0.0134 -0.2720
H5A H 0.6374 -0.0247 -0.3954
H6A H 0.7788 -0.2174 -0.5305
H7A H 0.6575 -0.3901 -0.5401
H8A H 0.3824 -0.3703 -0.4214
H9A H 0.2817 -0.4822 -0.1902
H10A H 0.2275 -0.6983 -0.2106
H11A H -0.0017 -0.6759 -0.2834
H12A H -0.1598 -0.4449 -0.3446
H13A H -0.0983 -0.2270 -0.3323
H14A H 0.1079 -0.0014 -0.4160
H15A H -0.1292 0.2081 -0.4585
H16A H -0.4130 0.3464 -0.3358
H17A H -0.4641 0.2578 -0.1731
H18A H -0.2249 0.0544 -0.1331
loop_
_geom_bond_atom_site_label_1
_geom_bond_atom_site_label_2
_geom_bond_site_symmetry_1
_geom_bond_site_symmetry_2
Br1 Cu1 1_555 1_555
Cu1 P1 1_555 1_555
P1 C5 1_555 1_555
N1 Cu1 1_555 1_555
C1 N1 1_555 1_555
C2 N1 1_555 1_555
C3 C2 1_555 1_555
C4 C1 1_555 1_555
C5 C6 1_555 1_555
C6 C7 1_555 1_555
C7 C8 1_555 1_555
C8 C9 1_555 1_555
C9 C10 1_555 1_555
C10 C5 1_555 1_555
C11 P1 1_555 1_555
C12 C11 1_555 1_555
C13 C12 1_555 1_555
C14 C13 1_555 1_555
C15 C14 1_555 1_555
C16 C11 1_555 1_555
C17 P1 1_555 1_555
C18 C17 1_555 1_555
C19 C18 1_555 1_555
C20 C19 1_555 1_555
C21 C20 1_555 1_555
C22 C17 1_555 1_555
H1 C2 1_555 1_555
H2 C3 1_555 1_555
H3 C4 1_555 1_555
H4 C6 1_555 1_555
H5 C7 1_555 1_555
H6 C8 1_555 1_555
H7 C9 1_555 1_555
H8 C10 1_555 1_555
H9 C12 1_555 1_555
H10 C13 1_555 1_555
H11 C14 1_555 1_555
H12 C15 1_555 1_555
H13 C16 1_555 1_555
H14 C18 1_555 1_555
H15 C19 1_555 1_555
H16 C20 1_555 1_555
H17 C21 1_555 1_555
H18 C22 1_555 1_555
Br1A Cu1 1_555 1_555
Cu1A Br1 1_555 1_555
Cu1A_2 N1A 1_555 1_555
P1A Cu1A 1_555 1_555
N1A C1A 1_555 1_555
N1A_2 Cu1A 1_555 1_555
C1A C1 1_555 1_555
C2A N1A 1_555 1_555
C3A C4 1_555 1_555
C4A C3 1_555 1_555
C5A P1A 1_555 1_555
C6A C5A 1_555 1_555
C7A C6A 1_555 1_555
C8A C7A 1_555 1_555
C9A C8A 1_555 1_555
C10A C5A 1_555 1_555
C11A P1A 1_555 1_555
C12A C11A 1_555 1_555
C13A C12A 1_555 1_555
C14A C13A 1_555 1_555
C15A C14A 1_555 1_555
C16A C11A 1_555 1_555
C17A P1A 1_555 1_555
C18A C17A 1_555 1_555
C19A C18A 1_555 1_555
C20A C19A 1_555 1_555
C21A C20A 1_555 1_555
C22A C17A 1_555 1_555
H1A C2A 1_555 1_555
H2A C3A 1_555 1_555
H3A C4A 1_555 1_555
H4A C6A 1_555 1_555
H5A C7A 1_555 1_555
H6A C8A 1_555 1_555
H7A C9A 1_555 1_555
H8A C10A 1_555 1_555
H9A C12A 1_555 1_555
H10A C13A 1_555 1_555
H11A C14A 1_555 1_555
H12A C15A 1_555 1_555
H13A C16A 1_555 1_555
H14A C18A 1_555 1_555
H15A C19A 1_555 1_555
H16A C20A 1_555 1_555
H17A C21A 1_555 1_555
H18A C22A 1_555 1_555
C15 C16 1_555 1_555
C21 C22 1_555 1_555
Br1A Cu1A 1_555 1_555
C1A C4A 1_555 1_555
C2A C3A 1_555 1_555
C9A C10A 1_555 1_555
C15A C16A 1_555 1_555
C21A C22A 1_555 1_555

#END
