
#######################################################################
#
#                 Cambridge Crystallographic Data Centre
#                                CCDC 
#
#######################################################################
#
# If this CIF has been generated from an entry in the Cambridge 
# Structural Database, then it will include bibliographic, chemical, 
# crystal, experimental, refinement or atomic coordinate data resulting 
# from the CCDC's data processing and validation procedures.
#
#######################################################################

data_REBREX
_symmetry_cell_setting           monoclinic
_symmetry_space_group_name_H-M   'P 21/n'
_symmetry_Int_Tables_number      14
_space_group_name_Hall           '-P 2yn'
loop_
_symmetry_equiv_pos_site_id
_symmetry_equiv_pos_as_xyz
1 x,y,z
2 1/2-x,1/2+y,1/2-z
3 -x,-y,-z
4 1/2+x,1/2-y,1/2+z
_cell_length_a                   8.968(6)
_cell_length_b                   18.15(5)
_cell_length_c                   13.162(8)
_cell_angle_alpha                90
_cell_angle_beta                 93.22(2)
_cell_angle_gamma                90
_cell_volume                     2138.99
loop_
_atom_site_label
_atom_site_type_symbol
_atom_site_fract_x
_atom_site_fract_y
_atom_site_fract_z
I1 I 0.00799(4) 0.11887(2) -0.00555(3)
Cu1 Cu 0.13935(6) 0.00050(5) 0.08345(4)
P1 P 0.0981(1) 0.00225(9) 0.24941(9)
N1 N 0.3518(4) -0.0016(3) 0.0311(3)
C1 C 0.4309(6) -0.0632(3) 0.0260(4)
C2 C 0.4237(5) 0.0626(3) 0.0056(4)
C3 C 0.1997(5) -0.0648(3) 0.3313(4)
C4 C 0.2267(6) -0.1339(3) 0.2917(4)
C5 C 0.3027(6) -0.1875(3) 0.3496(4)
C6 C 0.3571(6) -0.1707(3) 0.4479(4)
C7 C 0.3318(6) -0.1013(3) 0.4880(4)
C8 C 0.2534(5) -0.0486(3) 0.4305(4)
C9 C 0.1370(5) 0.0885(3) 0.3172(4)
C10 C 0.0458(5) 0.1171(3) 0.3890(4)
C11 C 0.0845(6) 0.1816(3) 0.4414(4)
C12 C 0.2160(6) 0.2180(3) 0.4237(4)
C13 C 0.3065(6) 0.1905(3) 0.3514(4)
C14 C 0.2668(5) 0.1277(3) 0.2983(4)
C15 C -0.0983(5) -0.0152(3) 0.2730(3)
C16 C -0.2046(5) 0.0271(3) 0.2223(4)
C17 C -0.3560(5) 0.0157(3) 0.2376(4)
C18 C -0.3980(5) -0.0389(3) 0.3031(4)
C19 C -0.2919(6) -0.0823(3) 0.3519(4)
C20 C -0.1398(5) -0.0707(3) 0.3385(4)
H1 H 0.3872 -0.1087 0.0442
H2 H 0.3718 0.1080 0.0097
H3 H 0.1926 -0.1449 0.2237
H4 H 0.3174 -0.2352 0.3222
H5 H 0.4114 -0.2065 0.4875
H6 H 0.3685 -0.0900 0.5553
H7 H 0.2362 -0.0013 0.4586
H8 H -0.0443 0.0924 0.4026
H9 H 0.0200 0.2007 0.4898
H10 H 0.2435 0.2613 0.4608
H11 H 0.3968 0.2152 0.3382
H12 H 0.3292 0.1104 0.2475
H13 H -0.1755 0.0643 0.1766
H14 H -0.4297 0.0455 0.2031
H15 H -0.5006 -0.0463 0.3143
H16 H -0.3216 -0.1208 0.3953
H17 H -0.0662 -0.1002 0.3736
I1B I -0.00799(4) -0.11887(2) 0.00555(3)
Cu1B Cu -0.13935(6) -0.00050(5) -0.08345(4)
Cu1B_2 Cu 0.86065(6) -0.00050(5) -0.08345(4)
P1B P -0.0981(1) -0.00225(9) -0.24941(9)
N1B N 0.6482(4) 0.0016(3) -0.0311(3)
N1B_2 N -0.3518(4) 0.0016(3) -0.0311(3)
C1B C 0.5691(6) 0.0632(3) -0.0260(4)
C2B C 0.5763(5) -0.0626(3) -0.0056(4)
C3B C -0.1997(5) 0.0648(3) -0.3313(4)
C4B C -0.2267(6) 0.1339(3) -0.2917(4)
C5B C -0.3027(6) 0.1875(3) -0.3496(4)
C6B C -0.3571(6) 0.1707(3) -0.4479(4)
C7B C -0.3318(6) 0.1013(3) -0.4880(4)
C8B C -0.2534(5) 0.0486(3) -0.4305(4)
C9B C -0.1370(5) -0.0885(3) -0.3172(4)
C10B C -0.0458(5) -0.1171(3) -0.3890(4)
C11B C -0.0845(6) -0.1816(3) -0.4414(4)
C12B C -0.2160(6) -0.2180(3) -0.4237(4)
C13B C -0.3065(6) -0.1905(3) -0.3514(4)
C14B C -0.2668(5) -0.1277(3) -0.2983(4)
C15B C 0.0983(5) 0.0152(3) -0.2730(3)
C16B C 0.2046(5) -0.0271(3) -0.2223(4)
C17B C 0.3560(5) -0.0157(3) -0.2376(4)
C18B C 0.3980(5) 0.0389(3) -0.3031(4)
C19B C 0.2919(6) 0.0823(3) -0.3519(4)
C20B C 0.1398(5) 0.0707(3) -0.3385(4)
H1B H 0.6128 0.1087 -0.0442
H2B H 0.6282 -0.1080 -0.0097
H3B H -0.1926 0.1449 -0.2237
H4B H -0.3174 0.2352 -0.3222
H5B H -0.4114 0.2065 -0.4875
H6B H -0.3685 0.0900 -0.5553
H7B H -0.2362 0.0013 -0.4586
H8B H 0.0443 -0.0924 -0.4026
H9B H -0.0200 -0.2007 -0.4898
H10B H -0.2435 -0.2613 -0.4608
H11B H -0.3968 -0.2152 -0.3382
H12B H -0.3292 -0.1104 -0.2475
H13B H 0.1755 -0.0643 -0.1766
H14B H 0.4297 -0.0455 -0.2031
H15B H 0.5006 0.0463 -0.3143
H16B H 0.3216 0.1208 -0.3953
H17B H 0.0662 0.1002 -0.3736
N2 N 0.5691(6) 0.2036(3) 0.1483(4)
C21 C 0.6569(7) 0.2232(4) 0.2056(5)
C22 C 0.7665(10) 0.2488(5) 0.2810(7)
H18 H 0.7587 0.2213 0.3419
H19 H 0.8635 0.2425 0.2567
H20 H 0.7500 0.2995 0.2942
loop_
_geom_bond_atom_site_label_1
_geom_bond_atom_site_label_2
_geom_bond_site_symmetry_1
_geom_bond_site_symmetry_2
I1 Cu1 1_555 1_555
Cu1 P1 1_555 1_555
P1 C3 1_555 1_555
N1 Cu1 1_555 1_555
C1 N1 1_555 1_555
C2 N1 1_555 1_555
C3 C4 1_555 1_555
C4 C5 1_555 1_555
C5 C6 1_555 1_555
C6 C7 1_555 1_555
C7 C8 1_555 1_555
C8 C3 1_555 1_555
C9 P1 1_555 1_555
C10 C9 1_555 1_555
C11 C10 1_555 1_555
C12 C11 1_555 1_555
C13 C12 1_555 1_555
C14 C9 1_555 1_555
C15 P1 1_555 1_555
C16 C15 1_555 1_555
C17 C16 1_555 1_555
C18 C17 1_555 1_555
C19 C18 1_555 1_555
C20 C15 1_555 1_555
H1 C1 1_555 1_555
H2 C2 1_555 1_555
H3 C4 1_555 1_555
H4 C5 1_555 1_555
H5 C6 1_555 1_555
H6 C7 1_555 1_555
H7 C8 1_555 1_555
H8 C10 1_555 1_555
H9 C11 1_555 1_555
H10 C12 1_555 1_555
H11 C13 1_555 1_555
H12 C14 1_555 1_555
H13 C16 1_555 1_555
H14 C17 1_555 1_555
H15 C18 1_555 1_555
H16 C19 1_555 1_555
H17 C20 1_555 1_555
N2 C21 1_555 1_555
C21 C22 1_555 1_555
C22 H18 1_555 1_555
H19 C22 1_555 1_555
H20 C22 1_555 1_555
I1B Cu1 1_555 1_555
Cu1B I1 1_555 1_555
Cu1B_2 N1B 1_555 1_555
P1B Cu1B 1_555 1_555
N1B C1B 1_555 1_555
N1B_2 Cu1B 1_555 1_555
C1B C2 1_555 1_555
C2B C1 1_555 1_555
C3B P1B 1_555 1_555
C4B C3B 1_555 1_555
C5B C4B 1_555 1_555
C6B C5B 1_555 1_555
C7B C6B 1_555 1_555
C8B C3B 1_555 1_555
C9B P1B 1_555 1_555
C10B C9B 1_555 1_555
C11B C10B 1_555 1_555
C12B C11B 1_555 1_555
C13B C12B 1_555 1_555
C14B C9B 1_555 1_555
C15B P1B 1_555 1_555
C16B C15B 1_555 1_555
C17B C16B 1_555 1_555
C18B C17B 1_555 1_555
C19B C18B 1_555 1_555
C20B C15B 1_555 1_555
H1B C1B 1_555 1_555
H2B C2B 1_555 1_555
H3B C4B 1_555 1_555
H4B C5B 1_555 1_555
H5B C6B 1_555 1_555
H6B C7B 1_555 1_555
H7B C8B 1_555 1_555
H8B C10B 1_555 1_555
H9B C11B 1_555 1_555
H10B C12B 1_555 1_555
H11B C13B 1_555 1_555
H12B C14B 1_555 1_555
H13B C16B 1_555 1_555
H14B C17B 1_555 1_555
H15B C18B 1_555 1_555
H16B C19B 1_555 1_555
H17B C20B 1_555 1_555
C13 C14 1_555 1_555
C19 C20 1_555 1_555
I1B Cu1B 1_555 1_555
N1B C2B 1_555 1_555
C7B C8B 1_555 1_555
C13B C14B 1_555 1_555
C19B C20B 1_555 1_555

#END
