
#######################################################################
#
#                 Cambridge Crystallographic Data Centre
#                                CCDC 
#
#######################################################################
#
# If this CIF has been generated from an entry in the Cambridge 
# Structural Database, then it will include bibliographic, chemical, 
# crystal, experimental, refinement or atomic coordinate data resulting 
# from the CCDC's data processing and validation procedures.
#
#######################################################################

data_REBSUO
_symmetry_cell_setting           monoclinic
_symmetry_space_group_name_H-M   'P 21/n'
_symmetry_Int_Tables_number      14
_space_group_name_Hall           '-P 2yn'
loop_
_symmetry_equiv_pos_site_id
_symmetry_equiv_pos_as_xyz
1 x,y,z
2 1/2-x,1/2+y,1/2-z
3 -x,-y,-z
4 1/2+x,1/2-y,1/2+z
_cell_length_a                   9.134(3)
_cell_length_b                   17.883(5)
_cell_length_c                   13.321(4)
_cell_angle_alpha                90
_cell_angle_beta                 90.338(4)
_cell_angle_gamma                90
_cell_volume                     2175.86
loop_
_atom_site_label
_atom_site_type_symbol
_atom_site_fract_x
_atom_site_fract_y
_atom_site_fract_z
I1 I 0.49521(2) 0.617193(9) 0.50914(1)
Cu1 Cu 0.35949(3) 0.50442(2) 0.41375(2)
P1 P 0.39596(7) 0.50500(3) 0.24975(5)
N1 N 0.1607(2) 0.49854(10) 0.4891(2)
C1 C 0.0765(3) 0.5690(1) 0.4879(2)
C2 C 0.0675(3) 0.4358(1) 0.4547(2)
C3 C 0.3555(3) 0.5910(1) 0.1799(2)
C4 C 0.2224(3) 0.6266(1) 0.1979(2)
C5 C 0.1812(3) 0.6889(2) 0.1433(2)
C6 C 0.2736(3) 0.7180(1) 0.0712(2)
C7 C 0.4068(3) 0.6841(1) 0.0544(2)
C8 C 0.4475(3) 0.6207(1) 0.1074(2)
C9 C 0.2986(2) 0.4344(1) 0.1754(2)
C10 C 0.2641(3) 0.3663(2) 0.2218(2)
C11 C 0.1894(3) 0.3115(2) 0.1682(2)
C12 C 0.1465(3) 0.3243(2) 0.0693(2)
C13 C 0.1806(3) 0.3908(2) 0.0233(2)
C14 C 0.2569(3) 0.4459(1) 0.0756(2)
C15 C 0.5876(3) 0.4887(1) 0.2197(2)
C16 C 0.6913(2) 0.5383(1) 0.2597(2)
C17 C 0.8389(3) 0.5292(2) 0.2391(2)
C18 C 0.8853(3) 0.4697(2) 0.1802(2)
C19 C 0.7841(3) 0.4201(2) 0.1408(2)
C20 C 0.6358(3) 0.4295(1) 0.1605(2)
H1 H 0.149(4) 0.611(2) 0.522(3)
H2 H 0.053(4) 0.582(2) 0.419(3)
H3 H 0.181(3) 0.488(1) 0.553(3)
H4 H 0.053(3) 0.441(2) 0.386(3)
H5 H 0.122(4) 0.391(2) 0.452(2)
H6 H 0.164(4) 0.607(2) 0.245(3)
H7 H 0.090(4) 0.711(2) 0.157(3)
H8 H 0.238(3) 0.760(2) 0.038(2)
H9 H 0.454(4) 0.697(2) 0.013(3)
H10 H 0.540(3) 0.601(2) 0.093(2)
H11 H 0.287(3) 0.360(2) 0.293(2)
H12 H 0.179(5) 0.265(2) 0.209(3)
H13 H 0.100(3) 0.288(2) 0.034(2)
H14 H 0.160(4) 0.398(2) -0.045(3)
H15 H 0.277(4) 0.492(1) 0.041(3)
H16 H 0.659(3) 0.581(2) 0.299(2)
H17 H 0.913(4) 0.569(2) 0.265(3)
H18 H 0.995(4) 0.461(2) 0.168(2)
H19 H 0.812(4) 0.379(2) 0.099(3)
H20 H 0.564(4) 0.395(2) 0.133(3)
I1B I 0.50479(2) 0.382807(9) 0.49086(1)
Cu1B Cu 0.64051(3) 0.49558(2) 0.58625(2)
Cu1B_2 Cu -0.35949(3) 0.49558(2) 0.58625(2)
P1B P 0.60404(7) 0.49500(3) 0.75025(5)
N1B N -0.1607(2) 0.50146(10) 0.5109(2)
N1B_2 N 0.8393(2) 0.50146(10) 0.5109(2)
C1B C -0.0765(3) 0.4310(1) 0.5121(2)
C2B C -0.0675(3) 0.5642(1) 0.5453(2)
C3B C 0.6445(3) 0.4090(1) 0.8201(2)
C4B C 0.7776(3) 0.3734(1) 0.8021(2)
C5B C 0.8188(3) 0.3111(2) 0.8567(2)
C6B C 0.7264(3) 0.2820(1) 0.9288(2)
C7B C 0.5932(3) 0.3159(1) 0.9456(2)
C8B C 0.5525(3) 0.3793(1) 0.8926(2)
C9B C 0.7014(2) 0.5656(1) 0.8246(2)
C10B C 0.7359(3) 0.6337(2) 0.7782(2)
C11B C 0.8106(3) 0.6885(2) 0.8318(2)
C12B C 0.8535(3) 0.6757(2) 0.9307(2)
C13B C 0.8194(3) 0.6092(2) 0.9767(2)
C14B C 0.7431(3) 0.5541(1) 0.9244(2)
C15B C 0.4124(3) 0.5113(1) 0.7803(2)
C16B C 0.3087(2) 0.4617(1) 0.7403(2)
C17B C 0.1611(3) 0.4708(2) 0.7609(2)
C18B C 0.1147(3) 0.5303(2) 0.8198(2)
C19B C 0.2159(3) 0.5799(2) 0.8592(2)
C20B C 0.3642(3) 0.5705(1) 0.8395(2)
H1B H -0.149(4) 0.389(2) 0.478(3)
H2B H -0.053(4) 0.418(2) 0.581(3)
H3B H -0.181(3) 0.512(1) 0.447(3)
H3B_2 H 0.819(3) 0.512(1) 0.447(3)
H4B H -0.053(3) 0.559(2) 0.614(3)
H5B H -0.122(4) 0.609(2) 0.548(2)
H6B H 0.836(4) 0.393(2) 0.755(3)
H7B H 0.910(4) 0.289(2) 0.843(3)
H8B H 0.762(3) 0.240(2) 0.962(2)
H9B H 0.546(4) 0.303(2) 0.987(3)
H10B H 0.460(3) 0.399(2) 0.907(2)
H11B H 0.713(3) 0.640(2) 0.707(2)
H12B H 0.821(5) 0.735(2) 0.791(3)
H13B H 0.900(3) 0.712(2) 0.966(2)
H14B H 0.840(4) 0.602(2) 1.045(3)
H15B H 0.723(4) 0.508(1) 0.959(3)
H16B H 0.341(3) 0.419(2) 0.701(2)
H17B H 0.087(4) 0.431(2) 0.735(3)
H18B H 0.005(4) 0.539(2) 0.832(2)
H19B H 0.188(4) 0.621(2) 0.901(3)
H20B H 0.436(4) 0.605(2) 0.867(3)
N2 N 0.6063(4) 0.2077(2) 0.1618(3)
C21 C 0.6844(4) 0.2323(2) 0.2209(3)
C22 C 0.7802(5) 0.2630(3) 0.2999(3)
H21 H 0.8056 0.2245 0.3460
H22 H 0.8666 0.2825 0.2704
H23 H 0.7304 0.3019 0.3343
loop_
_geom_bond_atom_site_label_1
_geom_bond_atom_site_label_2
_geom_bond_site_symmetry_1
_geom_bond_site_symmetry_2
I1 Cu1 1_555 1_555
Cu1 P1 1_555 1_555
P1 C3 1_555 1_555
N1 Cu1 1_555 1_555
N2 C21 1_555 1_555
C1 N1 1_555 1_555
C2 N1 1_555 1_555
C3 C4 1_555 1_555
C4 C5 1_555 1_555
C5 C6 1_555 1_555
C6 C7 1_555 1_555
C7 C8 1_555 1_555
C8 C3 1_555 1_555
C9 P1 1_555 1_555
C10 C9 1_555 1_555
C11 C10 1_555 1_555
C12 C11 1_555 1_555
C13 C12 1_555 1_555
C14 C9 1_555 1_555
C15 P1 1_555 1_555
C16 C15 1_555 1_555
C17 C16 1_555 1_555
C18 C17 1_555 1_555
C19 C18 1_555 1_555
C20 C15 1_555 1_555
C21 C22 1_555 1_555
C22 H21 1_555 1_555
H1 C1 1_555 1_555
H2 C1 1_555 1_555
H3 N1 1_555 1_555
H4 C2 1_555 1_555
H5 C2 1_555 1_555
H6 C4 1_555 1_555
H7 C5 1_555 1_555
H8 C6 1_555 1_555
H9 C7 1_555 1_555
H10 C8 1_555 1_555
H11 C10 1_555 1_555
H12 C11 1_555 1_555
H13 C12 1_555 1_555
H14 C13 1_555 1_555
H15 C14 1_555 1_555
H16 C16 1_555 1_555
H17 C17 1_555 1_555
H18 C18 1_555 1_555
H19 C19 1_555 1_555
H20 C20 1_555 1_555
H22 C22 1_555 1_555
H23 C22 1_555 1_555
I1B Cu1 1_555 1_555
Cu1B I1 1_555 1_555
Cu1B_2 N1B 1_555 1_555
P1B Cu1B 1_555 1_555
N1B C1B 1_555 1_555
N1B_2 Cu1B 1_555 1_555
C1B C2 1_555 1_555
C2B C1 1_555 1_555
C3B P1B 1_555 1_555
C4B C3B 1_555 1_555
C5B C4B 1_555 1_555
C6B C5B 1_555 1_555
C7B C6B 1_555 1_555
C8B C3B 1_555 1_555
C9B P1B 1_555 1_555
C10B C9B 1_555 1_555
C11B C10B 1_555 1_555
C12B C11B 1_555 1_555
C13B C12B 1_555 1_555
C14B C9B 1_555 1_555
C15B P1B 1_555 1_555
C16B C15B 1_555 1_555
C17B C16B 1_555 1_555
C18B C17B 1_555 1_555
C19B C18B 1_555 1_555
C20B C15B 1_555 1_555
H1B C1B 1_555 1_555
H2B C1B 1_555 1_555
H3B N1B 1_555 1_555
H3B_2 N1B_2 1_555 1_555
H4B C2B 1_555 1_555
H5B C2B 1_555 1_555
H6B C4B 1_555 1_555
H7B C5B 1_555 1_555
H8B C6B 1_555 1_555
H9B C7B 1_555 1_555
H10B C8B 1_555 1_555
H11B C10B 1_555 1_555
H12B C11B 1_555 1_555
H13B C12B 1_555 1_555
H14B C13B 1_555 1_555
H15B C14B 1_555 1_555
H16B C16B 1_555 1_555
H17B C17B 1_555 1_555
H18B C18B 1_555 1_555
H19B C19B 1_555 1_555
H20B C20B 1_555 1_555
C13 C14 1_555 1_555
C19 C20 1_555 1_555
I1B Cu1B 1_555 1_555
N1B C2B 1_555 1_555
C7B C8B 1_555 1_555
C13B C14B 1_555 1_555
C19B C20B 1_555 1_555

#END
