
#######################################################################
#
#                 Cambridge Crystallographic Data Centre
#                                CCDC 
#
#######################################################################
#
# If this CIF has been generated from an entry in the Cambridge 
# Structural Database, then it will include bibliographic, chemical, 
# crystal, experimental, refinement or atomic coordinate data resulting 
# from the CCDC's data processing and validation procedures.
#
#######################################################################

data_REBTAU
_symmetry_cell_setting           monoclinic
_symmetry_space_group_name_H-M   'C 2/c'
_symmetry_Int_Tables_number      15
_space_group_name_Hall           '-C 2yn'
loop_
_symmetry_equiv_pos_site_id
_symmetry_equiv_pos_as_xyz
1 x,y,z
2 1/2+x,1/2+y,z
3 -x,y,1/2-z
4 1/2-x,1/2+y,1/2-z
5 -x,-y,-z
6 1/2-x,1/2-y,-z
7 x,-y,1/2+z
8 1/2+x,1/2-y,1/2+z
_cell_length_a                   12.230(2)
_cell_length_b                   17.800(4)
_cell_length_c                   13.530(3)
_cell_angle_alpha                90
_cell_angle_beta                 105.00(3)
_cell_angle_gamma                90
_cell_volume                     2845.04
loop_
_atom_site_label
_atom_site_type_symbol
_atom_site_fract_x
_atom_site_fract_y
_atom_site_fract_z
Mn1 Mn 0.60069(4) 0.46627(3) 0.87446(4)
P1 P 0.64395(7) 0.65543(4) 0.93016(6)
P2 P 0.33924(6) 0.51609(4) 0.86046(6)
O1 O 0.23807(17) 0.46354(13) 0.86546(17)
O2 O 0.42164(16) 0.47659(11) 0.81070(15)
O3 O 0.6729(2) 0.71985(13) 0.86340(18)
N1 N 0.5951(2) 0.34073(14) 0.86407(18)
O4 O 0.51450(18) 0.66750(13) 0.92251(17)
O5 O 0.65778(18) 0.58126(11) 0.88114(16)
O6 O 0.39567(17) 0.54870(11) 0.96499(15)
O7 O 0.27853(19) 0.58128(13) 0.78941(17)
C1 C 0.6940(3) 0.30526(18) 0.8667(2)
O8 O 0.71451(17) 0.66234(12) 1.03945(15)
C2 C 0.5051(3) 0.29890(18) 0.8670(2)
H1 H 0.4368 0.3231 0.8635
N2 N 0.7783(2) 0.42801(15) 0.8843(2)
C3 C 0.8664(3) 0.4742(2) 0.8916(2)
H2 H 0.8574 0.5250 0.9036
C4 C 0.7925(3) 0.35508(18) 0.8684(2)
C5 C 0.7027(3) 0.22794(19) 0.8725(3)
H3 H 0.7709 0.2045 0.8735
C6 C 0.5087(3) 0.22147(19) 0.8749(3)
H4 H 0.4451 0.1942 0.8789
C7 C 0.9843(3) 0.3756(2) 0.8652(3)
H5 H 1.0539 0.3576 0.8597
C8 C 0.8944(3) 0.3268(2) 0.8561(3)
H6 H 0.9017 0.2762 0.8420
C9 C 0.6097(3) 0.18589(18) 0.8769(3)
H7 H 0.6148 0.1338 0.8811
C10 C 0.9710(3) 0.4492(2) 0.8819(3)
H8 H 1.0306 0.4827 0.8870
H9 H 0.262(3) 0.421(2) 0.901(3)
H10 H 0.297(3) 0.5855(19) 0.737(3)
H11 H 0.478(4) 0.617(2) 0.947(3)
H12 H 0.713(4) 0.753(3) 0.898(3)
Mn1B Mn 0.39931(4) 0.46627(3) 0.62554(4)
Mn1D Mn 0.39931(4) 0.53373(3) 1.12554(4)
O2B O 0.57836(16) 0.47659(11) 0.68930(15)
O6D O 0.60433(17) 0.45130(11) 1.03501(15)
loop_
_geom_bond_atom_site_label_1
_geom_bond_atom_site_label_2
_geom_bond_site_symmetry_1
_geom_bond_site_symmetry_2
Mn1 O2 1_555 1_555
P1 O3 1_555 1_555
P2 O1 1_555 1_555
O1 H9 1_555 1_555
O2 P2 1_555 1_555
O3 H12 1_555 1_555
N1 Mn1 1_555 1_555
O4 P1 1_555 1_555
O5 Mn1 1_555 1_555
O6 P2 1_555 1_555
O7 P2 1_555 1_555
C1 N1 1_555 1_555
O8 P1 1_555 1_555
C2 N1 1_555 1_555
H1 C2 1_555 1_555
N2 Mn1 1_555 1_555
C3 N2 1_555 1_555
H2 C3 1_555 1_555
C4 C1 1_555 1_555
C5 C1 1_555 1_555
H3 C5 1_555 1_555
C6 C2 1_555 1_555
H4 C6 1_555 1_555
C7 H5 1_555 1_555
C8 C4 1_555 1_555
H6 C8 1_555 1_555
C9 C5 1_555 1_555
H7 C9 1_555 1_555
C10 C3 1_555 1_555
H8 C10 1_555 1_555
H10 O7 1_555 1_555
H11 O4 1_555 1_555
Mn1B O2 1_555 1_555
Mn1D O6 1_555 1_555
O2B Mn1 1_555 1_555
O6D Mn1 1_555 1_555
P1 O5 1_555 1_555
N2 C4 1_555 1_555
C6 C9 1_555 1_555
C7 C8 1_555 1_555
C7 C10 1_555 1_555
Mn1B O2B 1_555 1_555

#END
