
#######################################################################
#
#                 Cambridge Crystallographic Data Centre
#                                CCDC 
#
#######################################################################
#
# If this CIF has been generated from an entry in the Cambridge 
# Structural Database, then it will include bibliographic, chemical, 
# crystal, experimental, refinement or atomic coordinate data resulting 
# from the CCDC's data processing and validation procedures.
#
#######################################################################

data_RECDOT
_symmetry_cell_setting           monoclinic
_symmetry_space_group_name_H-M   'C 2/c'
_symmetry_Int_Tables_number      15
_space_group_name_Hall           '-C 2yn'
loop_
_symmetry_equiv_pos_site_id
_symmetry_equiv_pos_as_xyz
1 x,y,z
2 1/2+x,1/2+y,z
3 -x,y,1/2-z
4 1/2-x,1/2+y,1/2-z
5 -x,-y,-z
6 1/2-x,1/2-y,-z
7 x,-y,1/2+z
8 1/2+x,1/2-y,1/2+z
_cell_length_a                   26.7760(6)
_cell_length_b                   20.0490(5)
_cell_length_c                   18.1900(5)
_cell_angle_alpha                90
_cell_angle_beta                 115.9321(9)
_cell_angle_gamma                90
_cell_volume                     8781.77
loop_
_atom_site_label
_atom_site_type_symbol
_atom_site_fract_x
_atom_site_fract_y
_atom_site_fract_z
Cr1 Cr 0.0000 0.13290(4) 0.2500
Cr2 Cr -0.15720(3) -0.31000(3) 0.25150(5)
Mn1 Mn 0.15695(3) 0.30238(3) 0.24567(4)
Mn2 Mn 0.0000 -0.13910(4) 0.2500
O1 O -0.07703(12) -0.29236(13) 0.31722(19)
O2 O -0.15041(12) -0.23610(12) 0.18326(18)
O3 O -0.01168(13) -0.22086(14) 0.32175(19)
O4 O -0.08903(13) -0.15957(14) 0.1860(2)
O5 O 0.26160(13) 0.18641(12) 0.18389(18)
O6 O 0.32228(13) 0.25449(13) 0.31614(18)
O7 O 0.18432(13) 0.23479(14) 0.1749(2)
O8 O 0.24684(13) 0.29755(14) 0.3203(2)
O9 O -0.15721(14) -0.38286(14) 0.3221(2)
O10 O -0.14437(14) -0.38205(13) 0.1896(2)
O11 O -0.1480(2) -0.49266(15) 0.3361(3)
O12 O -0.1404(2) -0.49216(15) 0.1854(3)
O13 O 0.00678(12) 0.20417(12) 0.17991(18)
O14 O 0.08172(12) 0.14227(13) 0.30751(19)
O15 O 0.07052(12) 0.27275(14) 0.17460(19)
O16 O 0.14617(13) 0.21743(14) 0.3170(2)
O17 O 0.00078(13) 0.05904(12) 0.17824(18)
O18 O -0.00106(14) -0.05258(13) 0.17463(19)
O19 O 0.13686(19) 0.37654(16) 0.3104(2)
H1 H 0.160(2) 0.407(2) 0.316(4)
H2 H 0.143(3) 0.370(3) 0.360(3)
O20 O 0.1598(2) 0.37910(17) 0.1680(3)
H3 H 0.165(3) 0.372(3) 0.128(3)
H4 H 0.161(3) 0.417(2) 0.182(4)
C1 C -0.0593(2) -0.2434(2) 0.2917(3)
C2 C -0.10289(18) -0.2093(2) 0.2131(3)
C3 C 0.2348(2) 0.22543(19) 0.2088(3)
C4 C 0.2705(2) 0.26274(19) 0.2888(3)
C5 C -0.1503(2) -0.4405(2) 0.2982(3)
C6 C -0.1453(2) -0.4398(2) 0.2172(3)
C7 C 0.05565(19) 0.22653(19) 0.2061(3)
C8 C 0.09921(19) 0.1930(2) 0.2839(3)
C9 C 0.00001(17) 0.00167(19) 0.2076(3)
Cr2B Cr 0.15720(3) -0.31000(3) 0.24850(5)
Cr2A Cr 0.34280(3) 0.19000(3) 0.25150(5)
Cr2C Cr -0.34280(3) 0.19000(3) 0.24850(5)
Mn1B Mn -0.15695(3) 0.30238(3) 0.25433(4)
O1B O 0.07703(12) -0.29236(13) 0.18278(19)
O2B O 0.15041(12) -0.23610(12) 0.31674(18)
O3B O 0.01168(13) -0.22086(14) 0.17825(19)
O4B O 0.08903(13) -0.15957(14) 0.3140(2)
O5B O -0.26160(13) 0.18641(12) 0.31611(18)
O5A O -0.23840(13) -0.31359(12) 0.18389(18)
O5C O 0.23840(13) -0.31359(12) 0.31611(18)
O6B O -0.32228(13) 0.25449(13) 0.18386(18)
O6A O -0.17772(13) -0.24551(13) 0.31614(18)
O6C O 0.17772(13) -0.24551(13) 0.18386(18)
O7B O -0.18432(13) 0.23479(14) 0.3251(2)
O8B O -0.24684(13) 0.29755(14) 0.1797(2)
O9B O 0.15721(14) -0.38286(14) 0.1779(2)
O10B O 0.14437(14) -0.38205(13) 0.3104(2)
O11B O 0.1480(2) -0.49266(15) 0.1639(3)
O12B O 0.1404(2) -0.49216(15) 0.3146(3)
O13B O -0.00678(12) 0.20417(12) 0.32009(18)
O14B O -0.08172(12) 0.14227(13) 0.19249(19)
O15B O -0.07052(12) 0.27275(14) 0.32540(19)
O16B O -0.14617(13) 0.21743(14) 0.1830(2)
O17B O -0.00078(13) 0.05904(12) 0.32176(18)
O18B O 0.00106(14) -0.05258(13) 0.32537(19)
O19B O -0.13686(19) 0.37654(16) 0.1896(2)
H1B H -0.160(2) 0.407(2) 0.184(4)
H2B H -0.143(3) 0.370(3) 0.140(3)
O20B O -0.1598(2) 0.37910(17) 0.3320(3)
H3B H -0.165(3) 0.372(3) 0.372(3)
H4B H -0.161(3) 0.417(2) 0.318(4)
C1B C 0.0593(2) -0.2434(2) 0.2083(3)
C2B C 0.10289(18) -0.2093(2) 0.2869(3)
C3B C -0.2348(2) 0.22543(19) 0.2912(3)
C4B C -0.2705(2) 0.26274(19) 0.2112(3)
C5B C 0.1503(2) -0.4405(2) 0.2018(3)
C6B C 0.1453(2) -0.4398(2) 0.2828(3)
C7B C -0.05565(19) 0.22653(19) 0.2939(3)
C8B C -0.09921(19) 0.1930(2) 0.2161(3)
C9B C -0.00001(17) 0.00167(19) 0.2924(3)
K1 K 0.34917(5) 0.00175(5) 0.50894(8)
O21 O 0.26260(19) 0.0920(2) 0.4570(3)
C10 C 0.2137(4) 0.0659(5) 0.4499(7)
H5 H 0.1840 0.0973 0.4210
H6 H 0.2158 0.0593 0.5040
C11 C 0.2005(3) 0.0011(5) 0.4054(6)
H7 H 0.1648 -0.0151 0.3994
H8 H 0.1986 0.0069 0.3513
O22 O 0.24246(19) -0.0453(2) 0.4502(3)
C12 C 0.2323(4) -0.1103(5) 0.4151(5)
H9 H 0.2325 -0.1091 0.3619
H10 H 0.1962 -0.1261 0.4080
C13 C 0.2760(4) -0.1556(3) 0.4699(5)
H11 H 0.2780 -0.1535 0.5244
H12 H 0.2672 -0.2011 0.4502
O23 O 0.3281(2) -0.13719(16) 0.4728(2)
C14 C 0.3721(4) -0.1767(3) 0.5288(5)
H13 H 0.3662 -0.2228 0.5112
H14 H 0.3723 -0.1742 0.5822
C15 C 0.4271(4) -0.1534(3) 0.5351(4)
H15 H 0.4566 -0.1825 0.5711
H16 H 0.4269 -0.1538 0.4816
O24 O 0.43571(19) -0.0875(2) 0.5669(3)
C16 C 0.4872(4) -0.0638(5) 0.5806(6)
H17 H 0.4891 -0.0573 0.5290
H18 H 0.5158 -0.0954 0.6130
C17 C 0.4962(3) 0.0017(5) 0.6254(5)
H19 H 0.4919 -0.0043 0.6752
H20 H 0.5335 0.0179 0.6400
O25 O 0.45643(17) 0.0486(2) 0.5734(3)
C18 C 0.4658(3) 0.1139(4) 0.6049(5)
H21 H 0.5020 0.1292 0.6119
H22 H 0.4653 0.1144 0.6579
C19 C 0.4220(4) 0.1590(3) 0.5480(5)
H23 H 0.4311 0.2049 0.5658
H24 H 0.4199 0.1550 0.4935
O26 O 0.36981(18) 0.14163(15) 0.5464(2)
C20 C 0.3264(4) 0.1810(3) 0.4905(4)
H25 H 0.3259 0.1778 0.4369
H26 H 0.3326 0.2273 0.5076
C21 C 0.2732(4) 0.1587(4) 0.4856(4)
H27 H 0.2738 0.1615 0.5392
H28 H 0.2438 0.1875 0.4488
K2 K 0.0000 0.0000 0.0000
C22 C 0.0063(3) 0.1775(3) 0.0006(4)
H29 H -0.0051 0.2208 -0.0253
H30 H 0.0085 0.1806 0.0552
O27 O -0.0349(2) 0.1293(2) -0.0451(4)
C23 C -0.0881(4) 0.1438(4) -0.0457(5)
H31 H -0.0994 0.1890 -0.0645
H32 H -0.0855 0.1394 0.0089
C24 C -0.1299(4) 0.0946(4) -0.1028(5)
H33 H -0.1673 0.1068 -0.1121
H34 H -0.1283 0.0933 -0.1550
O28 O -0.1147(2) 0.0305(3) -0.0623(3)
C25 C -0.1526(4) -0.0207(4) -0.1144(5)
H35 H -0.1907 -0.0104 -0.1262
H36 H -0.1496 -0.0250 -0.1654
C26 C -0.1326(4) -0.0850(4) -0.0622(5)
H37 H -0.1585 -0.1211 -0.0882
H38 H -0.1309 -0.0776 -0.0085
O29 O -0.0796(3) -0.1022(3) -0.0549(4)
C27 C 0.0584(4) 0.1624(4) 0.0065(5)
H39 H 0.0561 0.1558 -0.0477
H40 H 0.0836 0.1992 0.0321
C22D C -0.0063(3) -0.1775(3) -0.0006(4)
H29D H 0.0051 -0.2208 0.0253
H30D H -0.0085 -0.1806 -0.0552
O27D O 0.0349(2) -0.1293(2) 0.0451(4)
C23D C 0.0881(4) -0.1438(4) 0.0457(5)
H31D H 0.0994 -0.1890 0.0645
H32D H 0.0855 -0.1394 -0.0089
C24D C 0.1299(4) -0.0946(4) 0.1028(5)
H33D H 0.1673 -0.1068 0.1121
H34D H 0.1283 -0.0933 0.1550
O28D O 0.1147(2) -0.0305(3) 0.0623(3)
C25D C 0.1526(4) 0.0207(4) 0.1144(5)
H35D H 0.1907 0.0104 0.1262
H36D H 0.1496 0.0250 0.1654
C26D C 0.1326(4) 0.0850(4) 0.0622(5)
H37D H 0.1585 0.1211 0.0882
H38D H 0.1309 0.0776 0.0085
O29D O 0.0796(3) 0.1022(3) 0.0549(4)
C27D C -0.0584(4) -0.1624(4) -0.0065(5)
H39D H -0.0561 -0.1558 0.0477
H40D H -0.0836 -0.1992 -0.0321
C28? C 0.0921(11) 0.1342(13) 0.0332(17)
H41? H 0.1061 0.1795 0.0436
H42? H 0.0863 0.1200 -0.0210
O30? O 0.0461(7) 0.1251(8) 0.0471(11)
C29? C 0.0063(3) 0.1775(3) 0.0006(4)
H43? H 0.0191 0.2192 0.0300
H44? H 0.0079 0.1825 -0.0514
C30? C -0.0493(8) 0.1697(12) -0.0157(16)
H45? H -0.0705 0.2090 -0.0427
H46? H -0.0528 0.1627 0.0347
O31? O -0.0680(9) 0.1158(9) -0.0649(12)
C31? C -0.1219(11) 0.1046(14) -0.0694(19)
H47? H -0.1480 0.1394 -0.0994
H48? H -0.1211 0.0989 -0.0160
C32? C -0.1331(12) 0.0406(11) -0.1163(16)
H49? H -0.1727 0.0379 -0.1508
H50? H -0.1149 0.0429 -0.1521
O32? O -0.1171(8) -0.0169(10) -0.0727(12)
C33? C -0.1269(13) -0.0862(12) -0.0992(17)
H51? H -0.1189 -0.0920 -0.1459
H52? H -0.1658 -0.0966 -0.1166
loop_
_geom_bond_atom_site_label_1
_geom_bond_atom_site_label_2
_geom_bond_site_symmetry_1
_geom_bond_site_symmetry_2
Cr1 O13 1_555 1_555
Cr2 O1 1_555 1_555
Mn1 O7 1_555 1_555
Mn2 O3 1_555 1_555
O1 C1 1_555 1_555
O2 Cr2 1_555 1_555
O3 C1 1_555 1_555
O4 Mn2 1_555 1_555
O5 C3 1_555 1_555
O6 C4 1_555 1_555
O7 C3 1_555 1_555
O8 Mn1 1_555 1_555
O9 Cr2 1_555 1_555
O10 Cr2 1_555 1_555
O11 C5 1_555 1_555
O12 C6 1_555 1_555
O13 C7 1_555 1_555
O14 Cr1 1_555 1_555
O15 Mn1 1_555 1_555
O16 Mn1 1_555 1_555
O17 Cr1 1_555 1_555
O18 Mn2 1_555 1_555
O19 Mn1 1_555 1_555
H1 O19 1_555 1_555
H2 O19 1_555 1_555
O20 Mn1 1_555 1_555
H3 O20 1_555 1_555
H4 O20 1_555 1_555
C1 C2 1_555 1_555
C2 O2 1_555 1_555
C3 C4 1_555 1_555
C4 O8 1_555 1_555
C5 O9 1_555 1_555
C6 O10 1_555 1_555
C7 O15 1_555 1_555
C8 O14 1_555 1_555
C9 O17 1_555 1_555
K1 O21 1_555 1_555
O21 C10 1_555 1_555
C10 H5 1_555 1_555
H6 C10 1_555 1_555
C11 C10 1_555 1_555
H7 C11 1_555 1_555
H8 C11 1_555 1_555
O22 K1 1_555 1_555
C12 O22 1_555 1_555
H9 C12 1_555 1_555
H10 C12 1_555 1_555
C13 C12 1_555 1_555
H11 C13 1_555 1_555
H12 C13 1_555 1_555
O23 K1 1_555 1_555
C14 O23 1_555 1_555
H13 C14 1_555 1_555
H14 C14 1_555 1_555
C15 C14 1_555 1_555
H15 C15 1_555 1_555
H16 C15 1_555 1_555
O24 K1 1_555 1_555
C16 O24 1_555 1_555
H17 C16 1_555 1_555
H18 C16 1_555 1_555
C17 C16 1_555 1_555
H19 C17 1_555 1_555
H20 C17 1_555 1_555
O25 K1 1_555 1_555
C18 O25 1_555 1_555
H21 C18 1_555 1_555
H22 C18 1_555 1_555
C19 C18 1_555 1_555
H23 C19 1_555 1_555
H24 C19 1_555 1_555
O26 K1 1_555 1_555
C20 O26 1_555 1_555
H25 C20 1_555 1_555
H26 C20 1_555 1_555
C21 O21 1_555 1_555
H27 C21 1_555 1_555
H28 C21 1_555 1_555
K2 O27 1_555 1_555
C22 H29 1_555 1_555
H30 C22 1_555 1_555
O27 C22 1_555 1_555
C23 O27 1_555 1_555
H31 C23 1_555 1_555
H32 C23 1_555 1_555
C24 C23 1_555 1_555
H33 C24 1_555 1_555
H34 C24 1_555 1_555
O28 K2 1_555 1_555
C25 O28 1_555 1_555
H35 C25 1_555 1_555
H36 C25 1_555 1_555
C26 C25 1_555 1_555
H37 C26 1_555 1_555
H38 C26 1_555 1_555
O29 K2 1_555 1_555
C27 C22 1_555 1_555
H39 C27 1_555 1_555
H40 C27 1_555 1_555
Cr2B O1B 1_555 1_555
Cr2A O5 1_555 1_555
Cr2C O5B 1_555 1_555
Mn1B O7B 1_555 1_555
O1B C1B 1_555 1_555
O2B Cr2B 1_555 1_555
O3B Mn2 1_555 1_555
O4B Mn2 1_555 1_555
O5B C3B 1_555 1_555
O5A Cr2 1_555 1_555
O5C Cr2B 1_555 1_555
O6B Cr2C 1_555 1_555
O6A Cr2 1_555 1_555
O6C Cr2B 1_555 1_555
O7B C3B 1_555 1_555
O8B Mn1B 1_555 1_555
O9B Cr2B 1_555 1_555
O10B Cr2B 1_555 1_555
O11B C5B 1_555 1_555
O12B C6B 1_555 1_555
O13B Cr1 1_555 1_555
O14B Cr1 1_555 1_555
O15B Mn1B 1_555 1_555
O16B Mn1B 1_555 1_555
O17B Cr1 1_555 1_555
O18B Mn2 1_555 1_555
O19B Mn1B 1_555 1_555
H1B O19B 1_555 1_555
H2B O19B 1_555 1_555
O20B Mn1B 1_555 1_555
H3B O20B 1_555 1_555
H4B O20B 1_555 1_555
C1B O3B 1_555 1_555
C2B O2B 1_555 1_555
C3B C4B 1_555 1_555
C4B O6B 1_555 1_555
C5B O9B 1_555 1_555
C6B O10B 1_555 1_555
C7B O13B 1_555 1_555
C8B O14B 1_555 1_555
C9B C9 1_555 1_555
C22D H29D 1_555 1_555
H30D C22D 1_555 1_555
O27D K2 1_555 1_555
C23D O27D 1_555 1_555
H31D C23D 1_555 1_555
H32D C23D 1_555 1_555
C24D C23D 1_555 1_555
H33D C24D 1_555 1_555
H34D C24D 1_555 1_555
O28D K2 1_555 1_555
C25D O28D 1_555 1_555
H35D C25D 1_555 1_555
H36D C25D 1_555 1_555
C26D C25D 1_555 1_555
H37D C26D 1_555 1_555
H38D C26D 1_555 1_555
O29D K2 1_555 1_555
C27D O29 1_555 1_555
H39D C27D 1_555 1_555
H40D C27D 1_555 1_555
O4 C2 1_555 1_555
O6 Cr2A 1_555 1_555
O16 C8 1_555 1_555
O18 C9 1_555 1_555
C5 C6 1_555 1_555
C7 C8 1_555 1_555
C11 O22 1_555 1_555
C13 O23 1_555 1_555
C15 O24 1_555 1_555
C17 O25 1_555 1_555
C19 O26 1_555 1_555
C20 C21 1_555 1_555
C24 O28 1_555 1_555
C26 O29 1_555 1_555
C27 O29D 1_555 1_555
O4B C2B 1_555 1_555
O8B C4B 1_555 1_555
O15B C7B 1_555 1_555
O16B C8B 1_555 1_555
O17B C9B 1_555 1_555
O18B C9B 1_555 1_555
C1B C2B 1_555 1_555
C5B C6B 1_555 1_555
C7B C8B 1_555 1_555
C22D O27D 1_555 1_555
C22D C27D 1_555 1_555
C24D O28D 1_555 1_555
C26D O29D 1_555 1_555

#END
