
#######################################################################
#
#                 Cambridge Crystallographic Data Centre
#                                CCDC 
#
#######################################################################
#
# If this CIF has been generated from an entry in the Cambridge 
# Structural Database, then it will include bibliographic, chemical, 
# crystal, experimental, refinement or atomic coordinate data resulting 
# from the CCDC's data processing and validation procedures.
#
#######################################################################

data_RECHOX
_symmetry_cell_setting           monoclinic
_symmetry_space_group_name_H-M   'P 21/c'
_symmetry_Int_Tables_number      14
_space_group_name_Hall           '-P 2ybc'
loop_
_symmetry_equiv_pos_site_id
_symmetry_equiv_pos_as_xyz
1 x,y,z
2 -x,1/2+y,1/2-z
3 -x,-y,-z
4 x,1/2-y,1/2+z
_cell_length_a                   10.5310(6)
_cell_length_b                   14.1350(8)
_cell_length_c                   18.2045(10)
_cell_angle_alpha                90
_cell_angle_beta                 103.6290(10)
_cell_angle_gamma                90
_cell_volume                     2633.54
loop_
_atom_site_label
_atom_site_type_symbol
_atom_site_fract_x
_atom_site_fract_y
_atom_site_fract_z
Ag1 Ag 0.18899(2) 0.435545(14) 0.332076(11)
S1 S 0.35314(8) 0.57280(5) 0.35621(4)
S2 S 0.74439(8) 0.78490(5) 0.22623(4)
S3 S -0.01577(7) 0.52150(5) 0.24813(4)
S4 S -0.08162(8) 0.87387(5) 0.06142(4)
C1 C 0.4943(3) 0.54756(18) 0.33016(14)
C2 C 0.6658(3) 0.56100(19) 0.27707(17)
H1 H 0.7213 0.5829 0.2464
C3 C 0.6907(3) 0.4902(2) 0.32706(17)
H2 H 0.7676 0.4526 0.3386
C4 C 0.5728(4) 0.4128(2) 0.41689(18)
H3 H 0.5728 0.4460 0.4641
H4 H 0.6469 0.3689 0.4252
H5 H 0.4911 0.3773 0.4003
C5 C 0.4820(3) 0.67717(18) 0.23508(14)
H6 H 0.5071 0.6788 0.1860
H7 H 0.3860 0.6697 0.2246
C6 C 0.6314(3) 0.81432(18) 0.27492(14)
C7 C 0.4509(3) 0.8109(2) 0.32113(15)
H8 H 0.3702 0.7915 0.3310
C8 C 0.5210(3) 0.8870(2) 0.34957(15)
H9 H 0.4984 0.9321 0.3830
C9 C 0.7400(3) 0.9548(2) 0.34476(16)
H10 H 0.8227 0.9199 0.3578
H11 H 0.7288 0.9906 0.3889
H12 H 0.7410 0.9985 0.3031
C10 C 0.0309(3) 0.63630(18) 0.26089(13)
C11 C 0.0926(3) 0.78357(19) 0.23857(15)
H13 H 0.1138 0.8377 0.2129
C12 C 0.0950(3) 0.77770(19) 0.31226(15)
H14 H 0.1186 0.8267 0.3487
C13 C 0.0411(3) 0.6518(2) 0.39833(15)
H15 H -0.0467 0.6253 0.3924
H16 H 0.0535 0.7040 0.4347
H17 H 0.1064 0.6026 0.4167
C14 C 0.0347(3) 0.6722(2) 0.12750(14)
H18 H 0.0911 0.7130 0.1045
H19 H 0.0622 0.6058 0.1234
C15 C -0.1537(3) 0.76555(19) 0.05578(13)
C16 C -0.1921(3) 0.6111(2) 0.07034(15)
H20 H -0.1793 0.5467 0.0852
C17 C -0.3033(3) 0.6499(2) 0.03050(15)
H21 H -0.3841 0.6183 0.0122
C18 C -0.3691(3) 0.8125(2) -0.02282(17)
H22 H -0.3636 0.8724 0.0048
H23 H -0.4581 0.7874 -0.0314
H24 H -0.3471 0.8233 -0.0716
N1 N 0.5442(2) 0.59632(16) 0.27856(12)
N2 N 0.5844(2) 0.48150(16) 0.35887(12)
N3 N 0.5187(2) 0.76600(15) 0.27446(12)
N4 N 0.6321(2) 0.88833(16) 0.32173(12)
N5 N 0.0537(2) 0.69662(15) 0.20665(11)
N6 N 0.0564(2) 0.68689(15) 0.32545(11)
N7 N -0.0992(2) 0.68277(15) 0.08585(11)
N8 N -0.2779(2) 0.74507(16) 0.02108(11)
Ag1A Ag 0.81101(2) 0.935545(14) 0.167924(11)
Ag1A_2 Ag -0.18899(2) 0.935545(14) 0.167924(11)
S2A S 0.25561(8) 0.28490(5) 0.27377(4)
S4A S 0.08162(8) 0.37387(5) 0.43858(4)
B1 B 0.7000(4) 0.1474(3) 0.48710(19)
F1 F 0.6979(2) 0.19157(19) 0.41940(11)
F2 F 0.6678(2) 0.21359(17) 0.53393(11)
F3 F 0.8255(2) 0.11315(14) 0.51445(11)
F4 F 0.6111(3) 0.07630(17) 0.4725(2)
loop_
_geom_bond_atom_site_label_1
_geom_bond_atom_site_label_2
_geom_bond_site_symmetry_1
_geom_bond_site_symmetry_2
Ag1 S1 1_555 1_555
S1 C1 1_555 1_555
S2 C6 1_555 1_555
S3 Ag1 1_555 1_555
S4 C15 1_555 1_555
C1 N1 1_555 1_555
C2 H1 1_555 1_555
C3 C2 1_555 1_555
H2 C3 1_555 1_555
C4 H3 1_555 1_555
H4 C4 1_555 1_555
H5 C4 1_555 1_555
C5 H6 1_555 1_555
H7 C5 1_555 1_555
C6 N3 1_555 1_555
C7 H8 1_555 1_555
C8 C7 1_555 1_555
H9 C8 1_555 1_555
C9 H10 1_555 1_555
H11 C9 1_555 1_555
H12 C9 1_555 1_555
C10 S3 1_555 1_555
C11 H13 1_555 1_555
C12 C11 1_555 1_555
H14 C12 1_555 1_555
C13 H15 1_555 1_555
H16 C13 1_555 1_555
H17 C13 1_555 1_555
C14 H18 1_555 1_555
H19 C14 1_555 1_555
C15 N7 1_555 1_555
C16 H20 1_555 1_555
C17 C16 1_555 1_555
H21 C17 1_555 1_555
C18 H22 1_555 1_555
H23 C18 1_555 1_555
H24 C18 1_555 1_555
N1 C2 1_555 1_555
N2 C1 1_555 1_555
N3 C5 1_555 1_555
N4 C6 1_555 1_555
N5 C10 1_555 1_555
N6 C10 1_555 1_555
N7 C14 1_555 1_555
N8 C15 1_555 1_555
B1 F1 1_555 1_555
F2 B1 1_555 1_555
F3 B1 1_555 1_555
F4 B1 1_555 1_555
Ag1A S2 1_555 1_555
Ag1A_2 S4 1_555 1_555
S2A Ag1 1_555 1_555
S4A Ag1 1_555 1_555
C3 N2 1_555 1_555
C4 N2 1_555 1_555
C5 N1 1_555 1_555
C7 N3 1_555 1_555
C8 N4 1_555 1_555
C9 N4 1_555 1_555
C11 N5 1_555 1_555
C12 N6 1_555 1_555
C13 N6 1_555 1_555
C14 N5 1_555 1_555
C16 N7 1_555 1_555
C17 N8 1_555 1_555
C18 N8 1_555 1_555

#END
