
#######################################################################
#
#                 Cambridge Crystallographic Data Centre
#                                CCDC 
#
#######################################################################
#
# If this CIF has been generated from an entry in the Cambridge 
# Structural Database, then it will include bibliographic, chemical, 
# crystal, experimental, refinement or atomic coordinate data resulting 
# from the CCDC's data processing and validation procedures.
#
#######################################################################

data_RECHUE
_symmetry_cell_setting           rhombohedral
_symmetry_space_group_name_H-M   'R -3'
_symmetry_Int_Tables_number      148
_space_group_name_Hall           '-R 3'
loop_
_symmetry_equiv_pos_site_id
_symmetry_equiv_pos_as_xyz
1 x,y,z
2 -y,x-y,z
3 -x+y,-x,z
4 2/3+x,1/3+y,1/3+z
5 2/3-y,1/3+x-y,1/3+z
6 2/3-x+y,1/3-x,1/3+z
7 1/3+x,2/3+y,2/3+z
8 1/3-y,2/3+x-y,2/3+z
9 1/3-x+y,2/3-x,2/3+z
10 -x,-y,-z
11 y,-x+y,-z
12 x-y,x,-z
13 1/3-x,2/3-y,2/3-z
14 1/3+y,2/3-x+y,2/3-z
15 1/3+x-y,2/3+x,2/3-z
16 2/3-x,1/3-y,1/3-z
17 2/3+y,1/3-x+y,1/3-z
18 2/3+x-y,1/3+x,1/3-z
_cell_length_a                   18.307(8)
_cell_length_b                   18.307(8)
_cell_length_c                   19.112(8)
_cell_angle_alpha                90
_cell_angle_beta                 90
_cell_angle_gamma                120
_cell_volume                     5547.17
loop_
_atom_site_label
_atom_site_type_symbol
_atom_site_fract_x
_atom_site_fract_y
_atom_site_fract_z
Co1 Co 0.31742(2) -0.12974(2) 0.088274(19)
O1 O 0.34405(13) -0.07741(12) 0.18942(10)
O2 O 0.51632(13) 0.13542(14) 0.65664(11)
O3 O 0.47777(13) -0.04423(12) 0.20942(10)
O4 O 0.44496(15) -0.08285(17) 0.06331(13)
H1 H 0.470(3) -0.066(3) 0.091(2)
H2 H 0.455(3) -0.109(3) 0.037(2)
O5 O 0.31457(18) -0.23976(16) 0.12017(13)
H3 H 0.291(3) -0.279(3) 0.081(2)
H4 H 0.275(3) -0.271(3) 0.153(2)
O6 O 0.65489(15) 0.21159(15) 0.67792(11)
N1 N 0.32757(15) 0.01559(14) 0.38307(12)
C1 C 0.39760(17) 0.05574(17) 0.42169(14)
H5 H 0.3943 0.0789 0.4652
C2 C 0.47543(17) 0.06549(17) 0.40156(14)
C3 C 0.47801(17) 0.03005(17) 0.33797(14)
H6 H 0.5293 0.0342 0.3225
C4 C 0.40613(17) -0.01138(17) 0.29686(15)
C5 C 0.33164(17) -0.01735(17) 0.32095(14)
H7 H 0.2823 -0.0454 0.2929
C6 C 0.55412(17) 0.11456(18) 0.44949(15)
C7 C 0.6300(2) 0.1628(2) 0.41832(17)
H8 H 0.6357 0.1632 0.3689
C8 C 0.6992(2) 0.2119(3) 0.46129(18)
H9 H 0.7538 0.2444 0.4413
C9 C 0.6883(2) 0.2133(2) 0.53358(17)
H10 H 0.7354 0.2462 0.5630
C10 C 0.60831(19) 0.16649(19) 0.56197(15)
C11 C 0.53990(19) 0.11630(18) 0.51867(16)
H11 H 0.4846 0.0842 0.5372
C12 C 0.40932(17) -0.04798(17) 0.22641(14)
C13 C 0.59277(19) 0.17177(19) 0.63813(15)
Co1G Co 0.46307(2) 0.11383(3) 0.754941(19)
Co1P Co 0.53693(2) -0.11383(3) 0.245059(19)
Co1E Co 0.21951(3) 0.01591(2) 0.421607(19)
O2E O 0.28577(19) -0.18299(13) -0.01003(11)
O3Q O 0.18867(18) -0.18890(13) 0.12391(10)
N1G N 0.31774(14) -0.02135(21) 0.04974(12)
loop_
_geom_bond_atom_site_label_1
_geom_bond_atom_site_label_2
_geom_bond_site_symmetry_1
_geom_bond_site_symmetry_2
Co1 O1 1_555 1_555
O1 C12 1_555 1_555
O2 C13 1_555 1_555
O3 C12 1_555 1_555
O4 Co1 1_555 1_555
H1 O4 1_555 1_555
H2 O4 1_555 1_555
O5 Co1 1_555 1_555
H3 O5 1_555 1_555
H4 O5 1_555 1_555
O6 C13 1_555 1_555
N1 C1 1_555 1_555
C1 H5 1_555 1_555
C2 C1 1_555 1_555
C3 C2 1_555 1_555
H6 C3 1_555 1_555
C4 C3 1_555 1_555
C5 N1 1_555 1_555
H7 C5 1_555 1_555
C6 C2 1_555 1_555
C7 C6 1_555 1_555
H8 C7 1_555 1_555
C8 C7 1_555 1_555
H9 C8 1_555 1_555
C9 C8 1_555 1_555
H10 C9 1_555 1_555
C10 C9 1_555 1_555
C11 C6 1_555 1_555
H11 C11 1_555 1_555
C12 C4 1_555 1_555
C13 C10 1_555 1_555
Co1G O2 1_555 1_555
Co1P O3 1_555 1_555
Co1E N1 1_555 1_555
O2E Co1 1_555 1_555
O3Q Co1 1_555 1_555
N1G Co1 1_555 1_555
C4 C5 1_555 1_555
C10 C11 1_555 1_555

#END
