
#######################################################################
#
#                 Cambridge Crystallographic Data Centre
#                                CCDC 
#
#######################################################################
#
# If this CIF has been generated from an entry in the Cambridge 
# Structural Database, then it will include bibliographic, chemical, 
# crystal, experimental, refinement or atomic coordinate data resulting 
# from the CCDC's data processing and validation procedures.
#
#######################################################################

data_RECJAM
_symmetry_cell_setting           rhombohedral
_symmetry_space_group_name_H-M   'R -3'
_symmetry_Int_Tables_number      148
_space_group_name_Hall           '-R 3'
loop_
_symmetry_equiv_pos_site_id
_symmetry_equiv_pos_as_xyz
1 x,y,z
2 -y,x-y,z
3 -x+y,-x,z
4 2/3+x,1/3+y,1/3+z
5 2/3-y,1/3+x-y,1/3+z
6 2/3-x+y,1/3-x,1/3+z
7 1/3+x,2/3+y,2/3+z
8 1/3-y,2/3+x-y,2/3+z
9 1/3-x+y,2/3-x,2/3+z
10 -x,-y,-z
11 y,-x+y,-z
12 x-y,x,-z
13 1/3-x,2/3-y,2/3-z
14 1/3+y,2/3-x+y,2/3-z
15 1/3+x-y,2/3+x,2/3-z
16 2/3-x,1/3-y,1/3-z
17 2/3+y,1/3-x+y,1/3-z
18 2/3+x-y,1/3+x,1/3-z
_cell_length_a                   18.285(3)
_cell_length_b                   18.285(3)
_cell_length_c                   19.055(4)
_cell_angle_alpha                90
_cell_angle_beta                 90
_cell_angle_gamma                120
_cell_volume                     5517.34
loop_
_atom_site_label
_atom_site_type_symbol
_atom_site_fract_x
_atom_site_fract_y
_atom_site_fract_z
O1 O 0.3333 0.6667 0.0671(4)
Co1 Co 0.55090(5) 0.86924(5) 0.08861(3)
O2 O 0.5786(2) 0.9216(2) 0.18967(18)
O3 O 0.4774(3) 0.9535(2) 0.21075(18)
O4 O 0.6201(3) 1.1376(2) 0.65724(19)
O5 O 0.5595(3) 1.2154(3) 0.6772(2)
O6 O 0.4714(3) 0.9181(3) 0.0634(2)
O7 O 0.4432(3) 0.7611(3) 0.1229(3)
N1 N 0.6889(3) 1.0159(3) 0.3834(2)
C1 C 0.5424(4) 0.9504(4) 0.2269(3)
C2 C 0.6515(4) 0.9828(3) 0.3216(3)
H1 H 0.6728 0.9558 0.2940
C3 C 0.5825(3) 0.9874(3) 0.2975(3)
C4 C 0.5527(4) 1.0287(4) 0.3387(3)
H2 H 0.5064 1.0327 0.3237
C5 C 0.5909(4) 1.0646(4) 0.4021(3)
C6 C 0.6585(3) 1.0553(3) 0.4217(3)
H3 H 0.6843 1.0781 0.4645
C7 C 0.5589(4) 1.1136(4) 0.4512(3)
C8 C 0.5771(4) 1.1172(4) 0.5188(3)
H4 H 0.6016 1.0873 0.5370
C9 C 0.5585(4) 1.1672(4) 0.5619(3)
C10 C 0.5247(4) 1.2126(5) 0.5334(3)
H5 H 0.5109 1.2452 0.5620
C11 C 0.5111(4) 1.2092(5) 0.4611(3)
H6 H 0.4878 1.2395 0.4414
C12 C 0.5318(4) 1.1615(5) 0.4188(3)
H7 H 0.5274 1.1621 0.3702
C13 C 0.5808(4) 1.1745(4) 0.6379(3)
Co1Q Co 0.34833(7) 0.88423(5) 0.24472(3)
Co1H Co 0.65167(7) 1.11577(5) 0.75528(3)
Co1D Co 0.79743(5) 1.01499(7) 0.42194(3)
O3P O 0.6202(2) 0.8094(4) 0.12258(18)
O4D O 0.5291(2) 0.8158(4) -0.00943(19)
N1H N 0.6603(4) 0.9778(3) 0.0501(2)
loop_
_geom_bond_atom_site_label_1
_geom_bond_atom_site_label_2
_geom_bond_site_symmetry_1
_geom_bond_site_symmetry_2
Co1 O2 1_555 1_555
O2 C1 1_555 1_555
O3 C1 1_555 1_555
O4 C13 1_555 1_555
O5 C13 1_555 1_555
O6 Co1 1_555 1_555
O7 Co1 1_555 1_555
N1 C2 1_555 1_555
C1 C3 1_555 1_555
C2 H1 1_555 1_555
C3 C2 1_555 1_555
C4 C3 1_555 1_555
H2 C4 1_555 1_555
C5 C4 1_555 1_555
C6 N1 1_555 1_555
H3 C6 1_555 1_555
C7 C5 1_555 1_555
C8 C7 1_555 1_555
H4 C8 1_555 1_555
C9 C8 1_555 1_555
C10 C9 1_555 1_555
H5 C10 1_555 1_555
C11 C10 1_555 1_555
H6 C11 1_555 1_555
C12 C7 1_555 1_555
H7 C12 1_555 1_555
C13 C9 1_555 1_555
Co1Q O3 1_555 1_555
Co1H O4 1_555 1_555
Co1D N1 1_555 1_555
O3P Co1 1_555 1_555
O4D Co1 1_555 1_555
N1H Co1 1_555 1_555
C5 C6 1_555 1_555
C11 C12 1_555 1_555

#END
