
#######################################################################
#
#                 Cambridge Crystallographic Data Centre
#                                CCDC 
#
#######################################################################
#
# If this CIF has been generated from an entry in the Cambridge 
# Structural Database, then it will include bibliographic, chemical, 
# crystal, experimental, refinement or atomic coordinate data resulting 
# from the CCDC's data processing and validation procedures.
#
#######################################################################

data_RECKIV
_symmetry_cell_setting           monoclinic
_symmetry_space_group_name_H-M   'C 2/c'
_symmetry_Int_Tables_number      15
_space_group_name_Hall           '-C 2yn'
loop_
_symmetry_equiv_pos_site_id
_symmetry_equiv_pos_as_xyz
1 x,y,z
2 -x,y,1/2-z
3 1/2+x,1/2+y,z
4 1/2-x,1/2+y,1/2-z
5 -x,-y,-z
6 x,-y,1/2+z
7 1/2-x,1/2-y,-z
8 1/2+x,1/2-y,1/2+z
_cell_length_a                   27.120(5)
_cell_length_b                   15.323(3)
_cell_length_c                   37.921(8)
_cell_angle_alpha                90
_cell_angle_beta                 90.00(3)
_cell_angle_gamma                90
_cell_volume                     15758.4
loop_
_atom_site_label
_atom_site_type_symbol
_atom_site_fract_x
_atom_site_fract_y
_atom_site_fract_z
Mn1 Mn 0.5000 0.0000 0.0000
Mn2 Mn 0.47795(2) 0.19273(3) 0.019417(15)
Mn3 Mn 0.39672(2) 0.06476(4) 0.008782(15)
Mn4 Mn 0.416472(19) -0.12379(3) -0.010682(15)
Mn5 Mn 0.42770(2) -0.09861(4) 0.087285(15)
Mn6 Mn 0.44657(2) 0.17677(4) -0.074347(15)
Mn7 Mn 0.54440(2) 0.17027(4) 0.082190(15)
P1 P 0.38353(3) 0.25138(6) -0.01535(3)
P2 P 0.43605(4) 0.11114(6) 0.09624(3)
P3 P 0.38694(4) -0.00185(6) -0.07998(3)
P4 P 0.54199(3) 0.26854(6) -0.04940(3)
P5 P 0.33538(3) -0.08049(6) 0.04148(3)
O1 O 0.43807(9) -0.03512(16) 0.02198(6)
O2 O 0.52264(9) 0.10200(17) 0.03377(7)
O3 O 0.54367(9) 0.23433(16) -0.01168(7)
O4 O 0.45460(10) 0.10962(17) -0.01381(7)
O5 O 0.33834(9) 0.01363(16) 0.02816(7)
O6 O 0.43274(10) 0.01391(17) 0.10498(7)
O7 O 0.40016(9) -0.19499(17) -0.05203(7)
O8 O 0.35986(9) 0.16817(16) -0.00085(7)
O9 O 0.42980(9) 0.27720(16) 0.00598(7)
O10 O 0.50778(10) 0.26013(16) 0.05741(7)
O11 O 0.35951(9) -0.08900(17) 0.07776(7)
O12 O 0.49866(9) -0.10597(17) 0.09026(7)
O13 O 0.48674(10) 0.14417(18) 0.10873(7)
O14 O 0.40317(10) 0.09048(17) -0.09044(7)
O15 O 0.39431(9) 0.24261(17) -0.05483(7)
O16 O 0.38558(9) -0.01431(16) -0.04015(7)
O17 O 0.48926(9) 0.26898(16) -0.06305(7)
O18 O 0.42115(11) -0.06715(18) -0.09869(7)
O19 O 0.35662(9) -0.14480(16) 0.01427(7)
O20 O 0.57067(12) 0.2515(2) 0.12481(8)
O21 O 0.42613(9) 0.13125(16) 0.05767(7)
O22 O 0.57596(9) 0.21592(16) -0.07353(7)
C1 C 0.3906(2) 0.2617(3) 0.11851(17)
H1 H 0.3655 0.2881 0.1328
H2 H 0.3850 0.2760 0.0942
H3 H 0.4224 0.2831 0.1256
C2 C 0.3974(2) 0.1400(4) 0.16187(12)
H4 H 0.3724 0.1672 0.1760
H5 H 0.4293 0.1607 0.1691
H6 H 0.3958 0.0779 0.1649
C3 C 0.4097(3) -0.3972(4) 0.28000(13)
H7 H 0.3759 -0.4175 0.2798
H8 H 0.4311 -0.4480 0.2801
C4 C 0.4194(3) -0.3446(4) 0.24687(13)
H9 H 0.4149 -0.3819 0.2265
H10 H 0.4535 -0.3251 0.2470
C5 C 0.33896(18) 0.1283(4) 0.11076(16)
H11 H 0.3132 0.1545 0.1245
H12 H 0.3379 0.0661 0.1136
H13 H 0.3343 0.1428 0.0863
C6 C 0.3934(2) -0.2208(3) 0.20839(12)
C7 C 0.3804(2) -0.3106(3) 0.33259(12)
H14 H 0.3480 -0.3204 0.3256
C8 C 0.55268(17) 0.4165(3) -0.08855(12)
H15 H 0.5640 0.4758 -0.0899
H16 H 0.5178 0.4147 -0.0930
H17 H 0.5696 0.3819 -0.1059
C9 C 0.3716(2) -0.2531(4) 0.17814(12)
H18 H 0.3505 -0.3008 0.1795
C10 C 0.4236(2) -0.1486(3) 0.20400(13)
H19 H 0.4390 -0.1236 0.2235
C11 C 0.32430(19) 0.0029(3) -0.13652(13)
H20 H 0.2913 -0.0028 -0.1453
H21 H 0.3451 -0.0393 -0.1478
H22 H 0.3363 0.0605 -0.1414
C12 C 0.43081(19) -0.1141(3) 0.17128(12)
H23 H 0.4510 -0.0653 0.1693
C13 C 0.32681(17) 0.3526(3) 0.02760(13)
H24 H 0.3034 0.3993 0.0298
H25 H 0.3563 0.3670 0.0404
H26 H 0.3128 0.3000 0.0370
C14 C 0.4657(2) -0.3265(3) 0.32478(12)
H27 H 0.4928 -0.3474 0.3124
C15 C 0.3859(2) -0.2655(4) 0.24331(13)
H28 H 0.3518 -0.2838 0.2454
H29 H 0.3928 -0.2247 0.2622
C16 C 0.26857(15) -0.2043(3) 0.06036(14)
H30 H 0.2347 -0.2203 0.0637
H31 H 0.2860 -0.2101 0.0823
H32 H 0.2832 -0.2419 0.0430
C17 C 0.29260(16) 0.0555(3) -0.07766(14)
H33 H 0.2592 0.0512 -0.0859
H34 H 0.3051 0.1129 -0.0825
H35 H 0.2936 0.0450 -0.0527
C18 C 0.4186(2) -0.3448(3) 0.31325(12)
C19 C 0.38106(17) -0.2150(3) 0.14609(12)
H36 H 0.3661 -0.2382 0.1261
C20 C 0.30524(18) -0.1053(3) -0.08846(14)
H37 H 0.2721 -0.1112 -0.0971
H38 H 0.3056 -0.1148 -0.0634
H39 H 0.3260 -0.1477 -0.0997
C21 C 0.38993(17) -0.2621(3) 0.36225(12)
H40 H 0.3634 -0.2401 0.3750
C22 C 0.37902(16) -0.2786(3) -0.04852(12)
H41 H 0.3738 -0.3033 -0.0715
H42 H 0.3480 -0.2740 -0.0364
H43 H 0.4008 -0.3155 -0.0353
C23 C 0.36252(16) 0.4218(3) -0.02686(14)
H44 H 0.3397 0.4695 -0.0248
H45 H 0.3701 0.4122 -0.0513
H46 H 0.3922 0.4357 -0.0143
C24 C 0.56321(14) 0.3804(2) -0.05188(11)
C25 C 0.24857(15) -0.0486(3) 0.07569(12)
H47 H 0.2146 -0.0640 0.0792
H48 H 0.2507 0.0108 0.0678
H49 H 0.2661 -0.0549 0.0975
C26 C 0.27152(14) -0.1094(2) 0.04770(11)
C27 C 0.29286(15) 0.3143(3) -0.03230(14)
H50 H 0.2689 0.3603 -0.0304
H51 H 0.2793 0.2613 -0.0230
H52 H 0.3014 0.3061 -0.0566
C28 C 0.47245(18) -0.2771(3) 0.35490(11)
H53 H 0.5044 -0.2658 0.3625
C29 C 0.53538(16) 0.4336(3) -0.02414(13)
H54 H 0.5462 0.4932 -0.0250
H55 H 0.5418 0.4100 -0.0012
H56 H 0.5006 0.4311 -0.0289
C30 C 0.61913(15) 0.3833(3) -0.04471(13)
H57 H 0.6305 0.4426 -0.0460
H58 H 0.6360 0.3488 -0.0620
H59 H 0.6257 0.3605 -0.0216
C31 C 0.33937(14) 0.3391(3) -0.01122(12)
C32 C 0.24465(15) -0.0981(3) 0.01246(12)
H60 H 0.2106 -0.1135 0.0153
H61 H 0.2595 -0.1353 -0.0049
H62 H 0.2471 -0.0384 0.0050
C33 C 0.32455(15) -0.0126(3) -0.09663(12)
C34 C 0.49318(18) 0.3421(3) 0.07025(13)
H63 H 0.5146 0.3593 0.0891
H64 H 0.4599 0.3387 0.0788
H65 H 0.4950 0.3844 0.0516
C35 C 0.38897(16) 0.1627(3) 0.12314(11)
C36 C 0.5692(3) 0.2227(5) 0.16016(14)
H66 H 0.5823 0.2673 0.1753
H67 H 0.5357 0.2106 0.1667
H68 H 0.5886 0.1706 0.1625
N1 N 0.41075(13) -0.1461(2) 0.14230(9)
N2 N 0.43514(13) -0.2453(2) 0.37343(9)
Mn2D Mn 0.52205(2) -0.19273(3) -0.019417(15)
Mn3D Mn 0.60328(2) -0.06476(4) -0.008782(15)
Mn4D Mn 0.583528(19) 0.12379(3) 0.010682(15)
Mn5D Mn 0.57230(2) 0.09861(4) -0.087285(15)
Mn5E Mn 0.42770(2) 0.09861(4) -0.412715(15)
Mn6D Mn 0.55343(2) -0.17677(4) 0.074347(15)
Mn6E Mn 0.44657(2) -0.17677(4) 0.425653(15)
Mn7D Mn 0.45560(2) -0.17027(4) -0.082190(15)
P1D P 0.61647(3) -0.25138(6) 0.01535(3)
P2D P 0.56395(4) -0.11114(6) -0.09624(3)
P3D P 0.61306(4) 0.00185(6) 0.07998(3)
P4D P 0.45801(3) -0.26854(6) 0.04940(3)
P5D P 0.66462(3) 0.08049(6) -0.04148(3)
O1D O 0.56193(9) 0.03512(16) -0.02198(6)
O2D O 0.47736(9) -0.10200(17) -0.03377(7)
O3D O 0.45633(9) -0.23433(16) 0.01168(7)
O4D O 0.54540(10) -0.10962(17) 0.01381(7)
O5D O 0.66166(9) -0.01363(16) -0.02816(7)
O6D O 0.56726(10) -0.01391(17) -0.10498(7)
O7D O 0.59984(9) 0.19499(17) 0.05203(7)
O8D O 0.64014(9) -0.16817(16) 0.00085(7)
O9D O 0.57020(9) -0.27720(16) -0.00598(7)
O10D O 0.49222(10) -0.26013(16) -0.05741(7)
O11D O 0.64049(9) 0.08900(17) -0.07776(7)
O12D O 0.50134(9) 0.10597(17) -0.09026(7)
O13D O 0.51326(10) -0.14417(18) -0.10873(7)
O14D O 0.59683(10) -0.09048(17) 0.09044(7)
O15D O 0.60569(9) -0.24261(17) 0.05483(7)
O16D O 0.61442(9) 0.01431(16) 0.04015(7)
O17D O 0.51074(9) -0.26898(16) 0.06305(7)
O18D O 0.57885(11) 0.06715(18) 0.09869(7)
O19D O 0.64338(9) 0.14480(16) -0.01427(7)
O20D O 0.42933(12) -0.2515(2) -0.12481(8)
O21D O 0.57387(9) -0.13125(16) -0.05767(7)
O22D O 0.42404(9) -0.21592(16) 0.07353(7)
C1D C 0.6094(2) -0.2617(3) -0.11851(17)
H1D H 0.6345 -0.2881 -0.1328
H2D H 0.6150 -0.2760 -0.0942
H3D H 0.5776 -0.2831 -0.1256
C2D C 0.6026(2) -0.1400(4) -0.16187(12)
H4D H 0.6276 -0.1672 -0.1760
H5D H 0.5707 -0.1607 -0.1691
H6D H 0.6042 -0.0779 -0.1649
C3E C 0.4097(3) 0.3972(4) -0.22000(13)
H7E H 0.3759 0.4175 -0.2202
H8E H 0.4311 0.4480 -0.2199
C4E C 0.4194(3) 0.3446(4) -0.25313(13)
H9E H 0.4149 0.3819 -0.2735
H10E H 0.4535 0.3251 -0.2530
C5D C 0.66104(18) -0.1283(4) -0.11076(16)
H11D H 0.6868 -0.1545 -0.1245
H12D H 0.6621 -0.0661 -0.1136
H13D H 0.6657 -0.1428 -0.0863
C6E C 0.3934(2) 0.2208(3) -0.29161(12)
C7E C 0.3804(2) 0.3106(3) -0.16741(12)
H14E H 0.3480 0.3204 -0.1744
C8D C 0.44732(17) -0.4165(3) 0.08855(12)
H15D H 0.4360 -0.4758 0.0899
H16D H 0.4822 -0.4147 0.0930
H17D H 0.4304 -0.3819 0.1059
C9E C 0.3716(2) 0.2531(4) -0.32186(12)
H18E H 0.3505 0.3008 -0.3205
C10E C 0.4236(2) 0.1486(3) -0.29600(13)
H19E H 0.4390 0.1236 -0.2765
C11D C 0.67570(19) -0.0029(3) 0.13652(13)
H20D H 0.7087 0.0028 0.1453
H21D H 0.6549 0.0393 0.1478
H22D H 0.6637 -0.0605 0.1414
C12E C 0.43081(19) 0.1141(3) -0.32872(12)
H23E H 0.4510 0.0653 -0.3307
C13D C 0.67319(17) -0.3526(3) -0.02760(13)
H24D H 0.6966 -0.3993 -0.0298
H25D H 0.6437 -0.3670 -0.0404
H26D H 0.6872 -0.3000 -0.0370
C14E C 0.4657(2) 0.3265(3) -0.17522(12)
H27E H 0.4928 0.3474 -0.1876
C15E C 0.3859(2) 0.2655(4) -0.25669(13)
H28E H 0.3518 0.2838 -0.2546
H29E H 0.3928 0.2247 -0.2378
C16D C 0.73143(15) 0.2043(3) -0.06036(14)
H30D H 0.7653 0.2203 -0.0637
H31D H 0.7140 0.2101 -0.0823
H32D H 0.7168 0.2419 -0.0430
C17D C 0.70740(16) -0.0555(3) 0.07766(14)
H33D H 0.7408 -0.0512 0.0859
H34D H 0.6949 -0.1129 0.0825
H35D H 0.7064 -0.0450 0.0527
C18E C 0.4186(2) 0.3448(3) -0.18675(12)
C19E C 0.38106(17) 0.2150(3) -0.35391(12)
H36E H 0.3661 0.2382 -0.3739
C20D C 0.69476(18) 0.1053(3) 0.08846(14)
H37D H 0.7279 0.1112 0.0971
H38D H 0.6944 0.1148 0.0634
H39D H 0.6740 0.1477 0.0997
C21E C 0.38993(17) 0.2621(3) -0.13775(12)
H40E H 0.3634 0.2401 -0.1250
C22D C 0.62098(16) 0.2786(3) 0.04852(12)
H41D H 0.6262 0.3033 0.0715
H42D H 0.6520 0.2740 0.0364
H43D H 0.5992 0.3155 0.0353
C23D C 0.63748(16) -0.4218(3) 0.02686(14)
H44D H 0.6603 -0.4695 0.0248
H45D H 0.6299 -0.4122 0.0513
H46D H 0.6078 -0.4357 0.0143
C24D C 0.43679(14) -0.3804(2) 0.05188(11)
C25D C 0.75143(15) 0.0486(3) -0.07569(12)
H47D H 0.7854 0.0640 -0.0792
H48D H 0.7493 -0.0108 -0.0678
H49D H 0.7339 0.0549 -0.0975
C26D C 0.72848(14) 0.1094(2) -0.04770(11)
C27D C 0.70714(15) -0.3143(3) 0.03230(14)
H50D H 0.7311 -0.3603 0.0304
H51D H 0.7207 -0.2613 0.0230
H52D H 0.6986 -0.3061 0.0566
C28E C 0.47245(18) 0.2771(3) -0.14510(11)
H53E H 0.5044 0.2658 -0.1375
C29D C 0.46462(16) -0.4336(3) 0.02414(13)
H54D H 0.4538 -0.4932 0.0250
H55D H 0.4582 -0.4100 0.0012
H56D H 0.4994 -0.4311 0.0289
C30D C 0.38087(15) -0.3833(3) 0.04471(13)
H57D H 0.3695 -0.4426 0.0460
H58D H 0.3640 -0.3488 0.0620
H59D H 0.3743 -0.3605 0.0216
C31D C 0.66063(14) -0.3391(3) 0.01122(12)
C32D C 0.75535(15) 0.0981(3) -0.01246(12)
H60D H 0.7894 0.1135 -0.0153
H61D H 0.7405 0.1353 0.0049
H62D H 0.7529 0.0384 -0.0050
C33D C 0.67545(15) 0.0126(3) 0.09663(12)
C34D C 0.50682(18) -0.3421(3) -0.07025(13)
H63D H 0.4854 -0.3593 -0.0891
H64D H 0.5401 -0.3387 -0.0788
H65D H 0.5050 -0.3844 -0.0516
C35D C 0.61103(16) -0.1627(3) -0.12314(11)
C36D C 0.4308(3) -0.2227(5) -0.16016(14)
H66D H 0.4177 -0.2673 -0.1753
H67D H 0.4643 -0.2106 -0.1667
H68D H 0.4114 -0.1706 -0.1625
N1E N 0.41075(13) 0.1461(2) -0.35770(9)
N1D N 0.58925(13) 0.1461(2) -0.14230(9)
N2E N 0.43514(13) 0.2453(2) -0.12657(9)
N2A N 0.56486(13) -0.2453(2) 0.12657(9)
Cl1 Cl 0.2828(3) -0.4308(6) 0.2224(2)
O23 O 0.4393(4) -0.0528(7) 0.3148(3)
C37 C 0.4705(6) 0.0019(10) 0.3404(5)
O24 O 0.3788(5) -0.3943(9) -0.1319(4)
C38 C 0.3976(5) -0.4824(10) -0.1178(4)
O25 O 0.5146(7) -0.5561(12) 0.3256(5)
C39 C 0.5413(8) -0.5293(14) 0.3029(6)
O26 O 0.3339(6) -0.5000(9) 0.1398(4)
C40 C 0.3543(7) -0.4949(12) 0.1757(5)
loop_
_geom_bond_atom_site_label_1
_geom_bond_atom_site_label_2
_geom_bond_site_symmetry_1
_geom_bond_site_symmetry_2
Mn1 O1 1_555 1_555
Mn2 O2 1_555 1_555
Mn3 O1 1_555 1_555
Mn4 O1 1_555 1_555
Mn5 O1 1_555 1_555
Mn6 O4 1_555 1_555
Mn7 O2 1_555 1_555
P1 O8 1_555 1_555
P2 O6 1_555 1_555
P3 O14 1_555 1_555
P4 O3 1_555 1_555
P5 O5 1_555 1_555
O2 Mn1 1_555 1_555
O3 Mn2 1_555 1_555
O4 Mn1 1_555 1_555
O5 Mn3 1_555 1_555
O6 Mn5 1_555 1_555
O7 Mn4 1_555 1_555
O8 Mn3 1_555 1_555
O9 Mn2 1_555 1_555
O10 Mn2 1_555 1_555
O11 Mn5 1_555 1_555
O12 Mn5 1_555 1_555
O13 Mn7 1_555 1_555
O14 Mn6 1_555 1_555
O15 Mn6 1_555 1_555
O16 Mn3 1_555 1_555
O17 Mn6 1_555 1_555
O18 P3 1_555 1_555
O19 Mn4 1_555 1_555
O20 Mn7 1_555 1_555
O21 Mn2 1_555 1_555
O22 P4 1_555 1_555
O23 C37 1_555 1_555
O24 C38 1_555 1_555
O25 C39 1_555 1_555
O26 C40 1_555 1_555
C1 H1 1_555 1_555
H2 C1 1_555 1_555
H3 C1 1_555 1_555
C2 H4 1_555 1_555
H5 C2 1_555 1_555
H6 C2 1_555 1_555
C3 H7 1_555 1_555
H8 C3 1_555 1_555
C4 C3 1_555 1_555
H9 C4 1_555 1_555
H10 C4 1_555 1_555
C5 H11 1_555 1_555
H12 C5 1_555 1_555
H13 C5 1_555 1_555
C6 C9 1_555 1_555
C7 H14 1_555 1_555
C8 H15 1_555 1_555
H16 C8 1_555 1_555
H17 C8 1_555 1_555
C9 H18 1_555 1_555
C10 C6 1_555 1_555
H19 C10 1_555 1_555
C11 H20 1_555 1_555
H21 C11 1_555 1_555
H22 C11 1_555 1_555
C12 C10 1_555 1_555
H23 C12 1_555 1_555
C13 H24 1_555 1_555
H25 C13 1_555 1_555
H26 C13 1_555 1_555
C14 H27 1_555 1_555
C15 C4 1_555 1_555
H28 C15 1_555 1_555
H29 C15 1_555 1_555
C16 H30 1_555 1_555
H31 C16 1_555 1_555
H32 C16 1_555 1_555
C17 H33 1_555 1_555
H34 C17 1_555 1_555
H35 C17 1_555 1_555
C18 C3 1_555 1_555
C19 C9 1_555 1_555
H36 C19 1_555 1_555
C20 H37 1_555 1_555
H38 C20 1_555 1_555
H39 C20 1_555 1_555
C21 C7 1_555 1_555
H40 C21 1_555 1_555
C22 O7 1_555 1_555
H41 C22 1_555 1_555
H42 C22 1_555 1_555
H43 C22 1_555 1_555
C23 H44 1_555 1_555
H45 C23 1_555 1_555
H46 C23 1_555 1_555
C24 P4 1_555 1_555
C25 H47 1_555 1_555
H48 C25 1_555 1_555
H49 C25 1_555 1_555
C26 P5 1_555 1_555
C27 H50 1_555 1_555
H51 C27 1_555 1_555
H52 C27 1_555 1_555
C28 C14 1_555 1_555
H53 C28 1_555 1_555
C29 C24 1_555 1_555
H54 C29 1_555 1_555
H55 C29 1_555 1_555
H56 C29 1_555 1_555
C30 C24 1_555 1_555
H57 C30 1_555 1_555
H58 C30 1_555 1_555
H59 C30 1_555 1_555
C31 P1 1_555 1_555
C32 C26 1_555 1_555
H60 C32 1_555 1_555
H61 C32 1_555 1_555
H62 C32 1_555 1_555
C33 P3 1_555 1_555
C34 O10 1_555 1_555
H63 C34 1_555 1_555
H64 C34 1_555 1_555
H65 C34 1_555 1_555
C35 P2 1_555 1_555
C36 O20 1_555 1_555
H66 C36 1_555 1_555
H67 C36 1_555 1_555
H68 C36 1_555 1_555
N1 Mn5 1_555 1_555
N2 C21 1_555 1_555
Mn2D O2D 1_555 1_555
Mn3D O1D 1_555 1_555
Mn4D O2 1_555 1_555
Mn5D O22 1_555 1_555
Mn5E N1E 1_555 1_555
Mn6D O12 1_555 1_555
Mn6E N2 1_555 1_555
Mn7D O7 1_555 1_555
P1D O8D 1_555 1_555
P2D O6D 1_555 1_555
P3D O14D 1_555 1_555
P4D O3D 1_555 1_555
P5D O5D 1_555 1_555
O1D Mn1 1_555 1_555
O2D Mn1 1_555 1_555
O3D Mn4 1_555 1_555
O4D Mn1 1_555 1_555
O5D Mn3D 1_555 1_555
O6D Mn5D 1_555 1_555
O7D Mn7 1_555 1_555
O8D Mn3D 1_555 1_555
O9D Mn2D 1_555 1_555
O10D Mn2D 1_555 1_555
O11D Mn5D 1_555 1_555
O12D Mn6 1_555 1_555
O13D Mn7D 1_555 1_555
O14D Mn6D 1_555 1_555
O15D Mn6D 1_555 1_555
O16D Mn3D 1_555 1_555
O17D Mn6D 1_555 1_555
O18D Mn7 1_555 1_555
O19D Mn4D 1_555 1_555
O20D Mn7D 1_555 1_555
O21D Mn2D 1_555 1_555
O22D Mn5 1_555 1_555
C1D H1D 1_555 1_555
H2D C1D 1_555 1_555
H3D C1D 1_555 1_555
C2D H4D 1_555 1_555
H5D C2D 1_555 1_555
H6D C2D 1_555 1_555
C3E H7E 1_555 1_555
H8E C3E 1_555 1_555
C4E C3E 1_555 1_555
H9E C4E 1_555 1_555
H10E C4E 1_555 1_555
C5D H11D 1_555 1_555
H12D C5D 1_555 1_555
H13D C5D 1_555 1_555
C6E C9E 1_555 1_555
C7E H14E 1_555 1_555
C8D H15D 1_555 1_555
H16D C8D 1_555 1_555
H17D C8D 1_555 1_555
C9E H18E 1_555 1_555
C10E C6E 1_555 1_555
H19E C10E 1_555 1_555
C11D H20D 1_555 1_555
H21D C11D 1_555 1_555
H22D C11D 1_555 1_555
C12E C10E 1_555 1_555
H23E C12E 1_555 1_555
C13D H24D 1_555 1_555
H25D C13D 1_555 1_555
H26D C13D 1_555 1_555
C14E H27E 1_555 1_555
C15E C4E 1_555 1_555
H28E C15E 1_555 1_555
H29E C15E 1_555 1_555
C16D H30D 1_555 1_555
H31D C16D 1_555 1_555
H32D C16D 1_555 1_555
C17D H33D 1_555 1_555
H34D C17D 1_555 1_555
H35D C17D 1_555 1_555
C18E C3E 1_555 1_555
C19E C9E 1_555 1_555
H36E C19E 1_555 1_555
C20D H37D 1_555 1_555
H38D C20D 1_555 1_555
H39D C20D 1_555 1_555
C21E C7E 1_555 1_555
H40E C21E 1_555 1_555
C22D O7D 1_555 1_555
H41D C22D 1_555 1_555
H42D C22D 1_555 1_555
H43D C22D 1_555 1_555
C23D H44D 1_555 1_555
H45D C23D 1_555 1_555
H46D C23D 1_555 1_555
C24D P4D 1_555 1_555
C25D H47D 1_555 1_555
H48D C25D 1_555 1_555
H49D C25D 1_555 1_555
C26D P5D 1_555 1_555
C27D H50D 1_555 1_555
H51D C27D 1_555 1_555
H52D C27D 1_555 1_555
C28E C14E 1_555 1_555
H53E C28E 1_555 1_555
C29D C24D 1_555 1_555
H54D C29D 1_555 1_555
H55D C29D 1_555 1_555
H56D C29D 1_555 1_555
C30D C24D 1_555 1_555
H57D C30D 1_555 1_555
H58D C30D 1_555 1_555
H59D C30D 1_555 1_555
C31D P1D 1_555 1_555
C32D C26D 1_555 1_555
H60D C32D 1_555 1_555
H61D C32D 1_555 1_555
H62D C32D 1_555 1_555
C33D P3D 1_555 1_555
C34D O10D 1_555 1_555
H63D C34D 1_555 1_555
H64D C34D 1_555 1_555
H65D C34D 1_555 1_555
C35D P2D 1_555 1_555
C36D O20D 1_555 1_555
H66D C36D 1_555 1_555
H67D C36D 1_555 1_555
H68D C36D 1_555 1_555
N1E C12E 1_555 1_555
N1D Mn5D 1_555 1_555
N2E Mn6 1_555 1_555
N2A Mn6D 1_555 1_555
Mn2 O4 1_555 1_555
Mn3 O4 1_555 1_555
Mn3 O21 1_555 1_555
Mn4 O16 1_555 1_555
Mn4 O2D 1_555 1_555
Mn7 O10 1_555 1_555
P1 O9 1_555 1_555
P1 O15 1_555 1_555
P2 O13 1_555 1_555
P2 O21 1_555 1_555
P3 O16 1_555 1_555
P4 O17 1_555 1_555
P5 O11 1_555 1_555
P5 O19 1_555 1_555
O3 Mn4D 1_555 1_555
O18 Mn7D 1_555 1_555
C1 C35 1_555 1_555
C2 C35 1_555 1_555
C5 C35 1_555 1_555
C6 C15 1_555 1_555
C7 C18 1_555 1_555
C8 C24 1_555 1_555
C11 C33 1_555 1_555
C12 N1 1_555 1_555
C13 C31 1_555 1_555
C14 C18 1_555 1_555
C16 C26 1_555 1_555
C17 C33 1_555 1_555
C19 N1 1_555 1_555
C20 C33 1_555 1_555
C23 C31 1_555 1_555
C25 C26 1_555 1_555
C27 C31 1_555 1_555
C28 N2 1_555 1_555
Mn2D O3D 1_555 1_555
Mn2D O4D 1_555 1_555
Mn3D O4D 1_555 1_555
Mn3D O21D 1_555 1_555
Mn4D O1D 1_555 1_555
Mn4D O7D 1_555 1_555
Mn4D O16D 1_555 1_555
Mn5D O1D 1_555 1_555
Mn5D O12D 1_555 1_555
Mn6D O4D 1_555 1_555
Mn7D O2D 1_555 1_555
Mn7D O10D 1_555 1_555
P1D O9D 1_555 1_555
P1D O15D 1_555 1_555
P2D O13D 1_555 1_555
P2D O21D 1_555 1_555
P3D O16D 1_555 1_555
P3D O18D 1_555 1_555
P4D O17D 1_555 1_555
P4D O22D 1_555 1_555
P5D O11D 1_555 1_555
P5D O19D 1_555 1_555
C1D C35D 1_555 1_555
C2D C35D 1_555 1_555
C5D C35D 1_555 1_555
C6E C15E 1_555 1_555
C7E C18E 1_555 1_555
C8D C24D 1_555 1_555
C11D C33D 1_555 1_555
C13D C31D 1_555 1_555
C14E C18E 1_555 1_555
C16D C26D 1_555 1_555
C17D C33D 1_555 1_555
C19E N1E 1_555 1_555
C20D C33D 1_555 1_555
C21E N2E 1_555 1_555
C23D C31D 1_555 1_555
C25D C26D 1_555 1_555
C27D C31D 1_555 1_555
C28E N2E 1_555 1_555

#END
