
#######################################################################
#
#                 Cambridge Crystallographic Data Centre
#                                CCDC 
#
#######################################################################
#
# If this CIF has been generated from an entry in the Cambridge 
# Structural Database, then it will include bibliographic, chemical, 
# crystal, experimental, refinement or atomic coordinate data resulting 
# from the CCDC's data processing and validation procedures.
#
#######################################################################

data_RECREX
_symmetry_cell_setting           triclinic
_symmetry_space_group_name_H-M   'P -1'
_symmetry_Int_Tables_number      2
_space_group_name_Hall           '-P 1'
loop_
_symmetry_equiv_pos_site_id
_symmetry_equiv_pos_as_xyz
1 x,y,z
2 -x,-y,-z
_cell_length_a                   13.547(14)
_cell_length_b                   14.134(15)
_cell_length_c                   16.465(16)
_cell_angle_alpha                68.021(15)
_cell_angle_beta                 83.919(16)
_cell_angle_gamma                89.104(16)
_cell_volume                     2906.04
loop_
_atom_site_label
_atom_site_type_symbol
_atom_site_fract_x
_atom_site_fract_y
_atom_site_fract_z
Cd1 Cd 0.78462(3) 0.84756(3) 0.76553(3)
Na1 Na 0.74050(15) 0.24385(15) 1.00597(13)
N1 N 0.7274(4) 0.4163(4) 0.8728(4)
N2 N 0.5474(4) 0.5584(4) 0.6969(3)
N3 N 0.7875(4) 1.1871(4) 0.8775(3)
N4 N 1.0088(6) 1.2157(6) 0.6971(6)
O1 O 0.5897(3) 0.1293(3) 1.0181(3)
O2 O 0.5501(3) 0.3183(3) 1.0236(3)
O3 O 0.6963(3) 0.2953(4) 1.1410(3)
O4 O 0.8742(3) 0.3497(3) 1.0353(3)
O5 O 0.9244(3) 0.1653(3) 1.0335(3)
O6 O 0.7466(3) 0.0558(3) 1.1134(3)
S1 S 0.83058(11) 0.66415(10) 0.83634(10)
S2 S 0.66568(13) 0.79263(11) 0.68264(11)
S3 S 0.71793(11) 0.95792(11) 0.84725(10)
S4 S 0.92462(11) 0.97474(11) 0.69515(10)
C1 C 0.5017(4) 0.1825(4) 0.9857(4)
H1 H 0.4489 0.1314 0.9961
C2 C 0.5263(4) 0.2360(4) 0.8864(3)
H2 H 0.5427 0.1856 0.8606
H3 H 0.5838 0.2811 0.8743
C3 C 0.4387(4) 0.2978(5) 0.8444(4)
H4 H 0.4585 0.3363 0.7824
H5 H 0.3844 0.2516 0.8489
C4 C 0.4040(5) 0.3700(5) 0.8886(5)
H6 H 0.3452 0.4038 0.8638
H7 H 0.4553 0.4219 0.8771
C5 C 0.3805(4) 0.3153(5) 0.9865(4)
H8 H 0.3230 0.2704 0.9976
H9 H 0.3630 0.3652 1.0127
C6 C 0.4661(4) 0.2523(5) 1.0316(4)
H10 H 0.4445 0.2128 1.0938
C7 C 0.5441(5) 0.3674(6) 1.0859(5)
H11 H 0.5741 0.4353 1.0575
H12 H 0.4748 0.3745 1.1041
C8 C 0.5914(6) 0.3137(7) 1.1598(6)
H13 H 0.5569 0.2485 1.1911
H14 H 0.5861 0.3514 1.1987
C9 C 0.7611(7) 0.3626(8) 1.1490(6)
H15 H 0.7551 0.3568 1.2100
H16 H 0.7435 0.4313 1.1134
C10 C 0.8628(6) 0.3464(8) 1.1225(6)
H17 H 0.9053 0.3987 1.1267
H18 H 0.8832 0.2806 1.1619
C11 C 0.9730(5) 0.3345(5) 1.0048(4)
H19 H 1.0180 0.3767 1.0209
C12 C 0.9798(4) 0.3729(5) 0.9050(4)
H20 H 0.9647 0.4448 0.8816
H21 H 0.9314 0.3362 0.8876
C13 C 1.0853(5) 0.3572(6) 0.8666(5)
H22 H 1.0884 0.3792 0.8030
H23 H 1.1334 0.3977 0.8802
C14 C 1.1094(5) 0.2464(6) 0.9058(5)
H24 H 1.0636 0.2071 0.8885
H25 H 1.1760 0.2368 0.8826
C15 C 1.1029(5) 0.2077(5) 1.0037(5)
H26 H 1.1542 0.2413 1.0210
H27 H 1.1150 0.1351 1.0263
C16 C 1.0032(4) 0.2260(5) 1.0441(4)
H28 H 1.0065 0.2084 1.1073
C17 C 0.9181(6) 0.0646(6) 1.0991(8)
H29 H 0.9718 0.0264 1.0834
H30 H 0.9309 0.0698 1.1542
C18 C 0.8394(6) 0.0124(6) 1.1136(6)
H31 H 0.8407 -0.0423 1.1707
H32 H 0.8430 -0.0193 1.0704
C19 C 0.6685(5) -0.0080(5) 1.1132(5)
H33 H 0.6599 -0.0654 1.1691
H34 H 0.6844 -0.0343 1.0669
C20 C 0.5764(5) 0.0478(5) 1.0991(4)
H35 H 0.5228 0.0029 1.0993
H36 H 0.5591 0.0729 1.1459
C41 C 0.7316(4) 0.5025(4) 0.8383(4)
C42 C 0.7393(4) 0.6109(4) 0.7984(3)
C43 C 0.6763(4) 0.6620(4) 0.7376(3)
C44 C 0.6049(4) 0.6027(4) 0.7150(4)
C45 C 0.8009(4) 1.1283(4) 0.8442(4)
C46 C 0.8112(4) 1.0525(4) 0.8072(3)
C47 C 0.8905(4) 1.0597(4) 0.7448(3)
C48 C 0.9557(5) 1.1468(5) 0.7194(5)
Na1_2 Na 0.74050(15) 1.24385(15) 1.00597(13)
N3_2 N 0.7875(4) 0.1871(4) 0.8775(3)
Na2 Na 0.23381(16) 0.67301(19) 0.53795(15)
O7 O 0.2476(3) 0.5236(3) 0.4752(2)
O8 O 0.1471(3) 0.5012(3) 0.6347(2)
O9 O 0.0584(3) 0.6877(3) 0.5910(3)
O10 O 0.1802(3) 0.8561(3) 0.5676(3)
O11 O 0.3587(3) 0.8508(3) 0.4708(3)
O12 O 0.2970(3) 0.7288(3) 0.3804(2)
O13 O 0.3834(4) 0.6484(4) 0.5930(4)
C21 C 0.1904(4) 0.4306(5) 0.5216(4)
H37 H 0.1232 0.4405 0.5033
C22 C 0.2335(5) 0.3401(5) 0.5046(4)
H38 H 0.2402 0.3547 0.4418
H39 H 0.1886 0.2815 0.5334
C23 C 0.3341(6) 0.3152(5) 0.5387(5)
H40 H 0.3807 0.3715 0.5065
H41 H 0.3591 0.2550 0.5294
C24 C 0.3260(5) 0.2962(5) 0.6362(5)
H42 H 0.3911 0.2825 0.6570
H43 H 0.2830 0.2370 0.6689
C25 C 0.2835(4) 0.3897(5) 0.6523(4)
H44 H 0.2764 0.3761 0.7149
H45 H 0.3289 0.4478 0.6230
C26 C 0.1840(4) 0.4144(4) 0.6176(4)
H46 H 0.1384 0.3564 0.6504
C27 C 0.0433(4) 0.5125(5) 0.6321(5)
H47 H 0.0088 0.4512 0.6740
H48 H 0.0265 0.5222 0.5738
C28 C 0.0120(5) 0.6002(5) 0.6539(5)
H49 H -0.0595 0.6061 0.6550
H50 H 0.0299 0.5914 0.7118
C29 C 0.0227(7) 0.7773(6) 0.6107(6)
H51 H -0.0469 0.7870 0.6018
H52 H 0.0294 0.7657 0.6718
C30 C 0.0774(5) 0.8635(6) 0.5563(5)
H53 H 0.0514 0.9220 0.5680
H54 H 0.0695 0.8750 0.4955
C31 C 0.2329(5) 0.9506(5) 0.5190(4)
H55 H 0.2101 0.9803 0.4604
C32 C 0.2172(6) 1.0274(5) 0.5648(5)
H56 H 0.1467 1.0366 0.5761
H57 H 0.2471 1.0930 0.5264
C33 C 0.2639(10) 0.9900(7) 0.6523(5)
H58 H 0.2570 1.0417 0.6778
H59 H 0.2285 0.9287 0.6932
C34 C 0.3708(9) 0.9675(7) 0.6400(6)
H60 H 0.3968 0.9407 0.6967
H61 H 0.4077 1.0300 0.6038
C35 C 0.3839(6) 0.8906(5) 0.5962(4)
H62 H 0.4541 0.8787 0.5866
H63 H 0.3518 0.8264 0.6350
C36 C 0.3407(5) 0.9264(5) 0.5096(4)
H64 H 0.3766 0.9894 0.4705
C37 C 0.3478(5) 0.8890(4) 0.3796(4)
H65 H 0.3924 0.9475 0.3489
H66 H 0.2803 0.9110 0.3704
C38 C 0.3711(5) 0.8073(5) 0.3444(4)
H67 H 0.3735 0.8355 0.2807
H68 H 0.4355 0.7796 0.3600
C39 C 0.3141(5) 0.6510(5) 0.3437(4)
H69 H 0.3786 0.6216 0.3560
H70 H 0.3129 0.6806 0.2803
C40 C 0.2345(6) 0.5705(5) 0.3842(4)
H71 H 0.1695 0.6005 0.3769
H72 H 0.2401 0.5206 0.3566
H73 H 0.4208 0.6263 0.5535
H74 H 0.3725 0.5908 0.6408
loop_
_geom_bond_atom_site_label_1
_geom_bond_atom_site_label_2
_geom_bond_site_symmetry_1
_geom_bond_site_symmetry_2
Cd1 S1 1_555 1_555
Na1 N1 1_555 1_555
Na2 O7 1_555 1_555
N1 C41 1_555 1_555
N2 C44 1_555 1_555
N3 C45 1_555 1_555
N4 C48 1_555 1_555
O1 Na1 1_555 1_555
O2 Na1 1_555 1_555
O3 Na1 1_555 1_555
O4 Na1 1_555 1_555
O5 Na1 1_555 1_555
O6 Na1 1_555 1_555
O7 C21 1_555 1_555
O8 Na2 1_555 1_555
O9 Na2 1_555 1_555
O10 Na2 1_555 1_555
O11 Na2 1_555 1_555
O12 Na2 1_555 1_555
O13 Na2 1_555 1_555
S1 C42 1_555 1_555
S2 Cd1 1_555 1_555
S3 Cd1 1_555 1_555
S4 Cd1 1_555 1_555
C1 O1 1_555 1_555
H1 C1 1_555 1_555
C2 C1 1_555 1_555
H2 C2 1_555 1_555
H3 C2 1_555 1_555
C3 C2 1_555 1_555
H4 C3 1_555 1_555
H5 C3 1_555 1_555
C4 C3 1_555 1_555
H6 C4 1_555 1_555
H7 C4 1_555 1_555
C5 C4 1_555 1_555
H8 C5 1_555 1_555
H9 C5 1_555 1_555
C6 O2 1_555 1_555
H10 C6 1_555 1_555
C7 O2 1_555 1_555
H11 C7 1_555 1_555
H12 C7 1_555 1_555
C8 O3 1_555 1_555
H13 C8 1_555 1_555
H14 C8 1_555 1_555
C9 O3 1_555 1_555
H15 C9 1_555 1_555
H16 C9 1_555 1_555
C10 O4 1_555 1_555
H17 C10 1_555 1_555
H18 C10 1_555 1_555
C11 O4 1_555 1_555
H19 C11 1_555 1_555
C12 C11 1_555 1_555
H20 C12 1_555 1_555
H21 C12 1_555 1_555
C13 C12 1_555 1_555
H22 C13 1_555 1_555
H23 C13 1_555 1_555
C14 C13 1_555 1_555
H24 C14 1_555 1_555
H25 C14 1_555 1_555
C15 C14 1_555 1_555
H26 C15 1_555 1_555
H27 C15 1_555 1_555
C16 O5 1_555 1_555
H28 C16 1_555 1_555
C17 O5 1_555 1_555
H29 C17 1_555 1_555
H30 C17 1_555 1_555
C18 O6 1_555 1_555
H31 C18 1_555 1_555
H32 C18 1_555 1_555
C19 O6 1_555 1_555
H33 C19 1_555 1_555
H34 C19 1_555 1_555
C20 O1 1_555 1_555
H35 C20 1_555 1_555
H36 C20 1_555 1_555
C21 H37 1_555 1_555
C22 C21 1_555 1_555
H38 C22 1_555 1_555
H39 C22 1_555 1_555
C23 C22 1_555 1_555
H40 C23 1_555 1_555
H41 C23 1_555 1_555
C24 C23 1_555 1_555
H42 C24 1_555 1_555
H43 C24 1_555 1_555
C25 C24 1_555 1_555
H44 C25 1_555 1_555
H45 C25 1_555 1_555
C26 O8 1_555 1_555
H46 C26 1_555 1_555
C27 O8 1_555 1_555
H47 C27 1_555 1_555
H48 C27 1_555 1_555
C28 O9 1_555 1_555
H49 C28 1_555 1_555
H50 C28 1_555 1_555
C29 O9 1_555 1_555
H51 C29 1_555 1_555
H52 C29 1_555 1_555
C30 O10 1_555 1_555
H53 C30 1_555 1_555
H54 C30 1_555 1_555
C31 O10 1_555 1_555
H55 C31 1_555 1_555
C32 C31 1_555 1_555
H56 C32 1_555 1_555
H57 C32 1_555 1_555
C33 C32 1_555 1_555
H58 C33 1_555 1_555
H59 C33 1_555 1_555
C34 C33 1_555 1_555
H60 C34 1_555 1_555
H61 C34 1_555 1_555
C35 C34 1_555 1_555
H62 C35 1_555 1_555
H63 C35 1_555 1_555
C36 O11 1_555 1_555
H64 C36 1_555 1_555
C37 O11 1_555 1_555
H65 C37 1_555 1_555
H66 C37 1_555 1_555
C38 O12 1_555 1_555
H67 C38 1_555 1_555
H68 C38 1_555 1_555
C39 O12 1_555 1_555
H69 C39 1_555 1_555
H70 C39 1_555 1_555
C40 O7 1_555 1_555
H71 C40 1_555 1_555
H72 C40 1_555 1_555
C41 C42 1_555 1_555
C42 C43 1_555 1_555
C43 S2 1_555 1_555
C44 C43 1_555 1_555
C45 C46 1_555 1_555
C46 S3 1_555 1_555
C47 S4 1_555 1_555
C48 C47 1_555 1_555
H73 O13 1_555 1_555
H74 O13 1_555 1_555
Na1_2 N3 1_555 1_555
N3_2 Na1 1_555 1_555
C1 C6 1_555 1_555
C5 C6 1_555 1_555
C7 C8 1_555 1_555
C9 C10 1_555 1_555
C11 C16 1_555 1_555
C15 C16 1_555 1_555
C17 C18 1_555 1_555
C19 C20 1_555 1_555
C21 C26 1_555 1_555
C25 C26 1_555 1_555
C27 C28 1_555 1_555
C29 C30 1_555 1_555
C31 C36 1_555 1_555
C35 C36 1_555 1_555
C37 C38 1_555 1_555
C39 C40 1_555 1_555
C46 C47 1_555 1_555

#END
