
#######################################################################
#
#                 Cambridge Crystallographic Data Centre
#                                CCDC 
#
#######################################################################
#
# If this CIF has been generated from an entry in the Cambridge 
# Structural Database, then it will include bibliographic, chemical, 
# crystal, experimental, refinement or atomic coordinate data resulting 
# from the CCDC's data processing and validation procedures.
#
#######################################################################

data_RECRIB
_symmetry_cell_setting           triclinic
_symmetry_space_group_name_H-M   'P -1'
_symmetry_Int_Tables_number      2
_space_group_name_Hall           '-P 1'
loop_
_symmetry_equiv_pos_site_id
_symmetry_equiv_pos_as_xyz
1 x,y,z
2 -x,-y,-z
_cell_length_a                   10.873(9)
_cell_length_b                   13.980(12)
_cell_length_c                   20.634(17)
_cell_angle_alpha                97.830(13)
_cell_angle_beta                 101.338(14)
_cell_angle_gamma                108.345(13)
_cell_volume                     2852.06
loop_
_atom_site_label
_atom_site_type_symbol
_atom_site_fract_x
_atom_site_fract_y
_atom_site_fract_z
Cd1 Cd 0.84566(3) 0.70837(2) 0.749578(15)
K1 K 0.76678(8) 0.68883(6) 1.13826(4)
K2 K 1.50127(8) 0.84149(6) 0.59992(4)
N1 N 0.6820(3) 0.6457(3) 0.99378(18)
N2 N 0.5246(4) 0.3930(3) 0.8623(2)
N3 N 0.9224(4) 0.8548(4) 0.5082(2)
N4 N 1.2470(3) 0.8381(3) 0.60336(18)
O1 O 0.8859(2) 0.89074(18) 1.10663(12)
O2 O 0.7481(2) 0.86714(18) 1.20592(13)
O3 O 0.8537(2) 0.7504(2) 1.28373(12)
O4 O 0.7664(2) 0.54223(19) 1.21797(12)
O5 O 0.9007(2) 0.53823(18) 1.11618(12)
O6 O 1.0108(2) 0.74261(19) 1.09572(12)
O7 O 1.4275(3) 0.7461(2) 0.46359(12)
O8 O 1.3724(2) 0.62235(19) 0.55839(13)
O9 O 1.5023(2) 0.72853(19) 0.69637(13)
O10 O 1.5519(2) 0.9417(2) 0.73275(12)
O11 O 1.6886(2) 1.04653(17) 0.64536(12)
O12 O 1.6547(2) 0.9208(2) 0.52117(12)
S1 S 0.82536(10) 0.76170(8) 0.86685(5)
S2 S 0.70229(12) 0.52784(8) 0.74928(5)
S3 S 0.78847(10) 0.78959(8) 0.65247(5)
S4 S 1.07814(11) 0.75426(9) 0.73141(6)
C1 C 0.8588(4) 0.9784(3) 1.13613(19)
H1 H 0.9349 1.0203 1.1743
C2 C 0.8357(4) 1.0452(3) 1.0863(2)
H2 H 0.8260 1.1064 1.1097
H3 H 0.9129 1.0670 1.0677
C3 C 0.7113(4) 0.9872(3) 1.0291(2)
H4 H 0.6965 1.0328 0.9994
H5 H 0.7245 0.9298 1.0029
C4 C 0.5896(4) 0.9472(3) 1.0564(2)
H6 H 0.5715 1.0049 1.0789
H7 H 0.5123 0.9077 1.0191
C5 C 0.6114(4) 0.8797(3) 1.10573(19)
H8 H 0.5342 0.8581 1.1243
H9 H 0.6205 0.8183 1.0821
C6 C 0.7359(4) 0.9370(3) 1.16270(19)
H10 H 0.7220 0.9955 1.1884
C7 C 0.8383(4) 0.9117(3) 1.2701(2)
H11 H 0.8218 0.9713 1.2910
H12 H 0.9297 0.9339 1.2657
C8 C 0.8185(4) 0.8323(3) 1.31273(19)
H13 H 0.8742 0.8626 1.3584
H14 H 0.7256 0.8068 1.3147
C9 C 0.8296(4) 0.6677(3) 1.31805(19)
H15 H 0.7367 0.6436 1.3200
H16 H 0.8858 0.6909 1.3640
C10 C 0.8603(4) 0.5822(3) 1.28138(19)
H17 H 0.9503 0.6077 1.2754
H18 H 0.8547 0.5286 1.3071
C11 C 0.7661(4) 0.4467(3) 1.18155(18)
H19 H 0.7626 0.3987 1.2121
C12 C 0.6388(4) 0.4042(3) 1.12561(19)
H20 H 0.6382 0.4531 1.0965
H21 H 0.5625 0.3949 1.1450
C13 C 0.6260(4) 0.3014(3) 1.0837(2)
H22 H 0.6185 0.2505 1.1118
H23 H 0.5456 0.2773 1.0468
C14 C 0.7477(4) 0.3138(3) 1.0557(2)
H24 H 0.7411 0.2473 1.0311
H25 H 0.7504 0.3598 1.0244
C15 C 0.8750(4) 0.3570(3) 1.1124(2)
H26 H 0.9516 0.3663 1.0933
H27 H 0.8752 0.3079 1.1413
C16 C 0.8891(4) 0.4594(3) 1.15472(19)
H28 H 0.9685 0.4812 1.1929
C17 C 1.0275(4) 0.5777(3) 1.1036(2)
H29 H 1.0489 0.5220 1.0807
H30 H 1.0950 0.6096 1.1461
C18 C 1.0283(4) 0.6555(3) 1.0607(2)
H31 H 1.1127 0.6769 1.0482
H32 H 0.9568 0.6246 1.0196
C19 C 1.0311(4) 0.8229(3) 1.0599(2)
H33 H 0.9651 0.8003 1.0167
H34 H 1.1194 0.8407 1.0515
C20 C 1.0188(4) 0.9153(3) 1.1002(2)
H35 H 1.0807 0.9353 1.1447
H36 H 1.0409 0.9727 1.0777
C21 C 1.3385(4) 0.6431(4) 0.4444(2)
H37 H 1.3429 0.6142 0.3992
C22 C 1.1978(4) 0.6422(3) 0.4396(2)
H38 H 1.1769 0.6836 0.4079
H39 H 1.1919 0.6726 0.4835
C23 C 1.0971(4) 0.5333(4) 0.4164(2)
H40 H 1.0080 0.5342 0.4156
H41 H 1.0974 0.5049 0.3709
C24 C 1.1307(5) 0.4659(4) 0.4633(3)
H42 H 1.0672 0.3959 0.4467
H43 H 1.1228 0.4909 0.5079
C25 C 1.2714(5) 0.4657(3) 0.4681(2)
H44 H 1.2776 0.4355 0.4242
H45 H 1.2919 0.4243 0.4998
C26 C 1.3725(4) 0.5759(3) 0.4917(2)
H46 H 1.4623 0.5749 0.4921
C27 C 1.4205(4) 0.5764(3) 0.6102(2)
H47 H 1.5133 0.5845 0.6126
H48 H 1.3686 0.5032 0.6000
C28 C 1.4093(4) 0.6261(3) 0.6766(2)
H49 H 1.3191 0.6265 0.6725
H50 H 1.4278 0.5874 0.7106
C29 C 1.5002(4) 0.7785(3) 0.76050(19)
H51 H 1.5239 0.7416 0.7946
H52 H 1.4108 0.7790 0.7594
C30 C 1.5976(4) 0.8866(3) 0.7778(2)
H53 H 1.6053 0.9187 0.8239
H54 H 1.6853 0.8866 0.7743
C31 C 1.6255(4) 1.0498(3) 0.74961(19)
H55 H 1.6619 1.0701 0.7988
C32 C 1.5301(4) 1.1055(3) 0.7302(2)
H56 H 1.4597 1.0877 0.7537
H57 H 1.4888 1.0836 0.6820
C33 C 1.6029(4) 1.2218(3) 0.7482(2)
H58 H 1.5416 1.2556 0.7313
H59 H 1.6331 1.2450 0.7970
C34 C 1.7218(4) 1.2518(3) 0.7182(2)
H60 H 1.6906 1.2361 0.6692
H61 H 1.7697 1.3255 0.7330
C35 C 1.8149(4) 1.1957(3) 0.7389(2)
H62 H 1.8504 1.2145 0.7876
H63 H 1.8895 1.2157 0.7183
C36 C 1.7420(4) 1.0800(3) 0.71711(19)
H64 H 1.8039 1.0447 0.7323
C37 C 1.7912(4) 1.0606(3) 0.6102(2)
H65 H 1.8454 1.0197 0.6237
H66 H 1.8489 1.1325 0.6215
C38 C 1.7290(4) 1.0280(3) 0.5360(2)
H67 H 1.6704 1.0657 0.5226
H68 H 1.7978 1.0421 0.5114
C39 C 1.6159(4) 0.8770(4) 0.4521(2)
H69 H 1.6939 0.8907 0.4338
H70 H 1.5555 0.9065 0.4284
C40 C 1.5479(4) 0.7643(4) 0.4430(2)
H71 H 1.5285 0.7310 0.3959
H72 H 1.6057 0.7358 0.4699
C41 C 0.7002(4) 0.6435(3) 0.9415(2)
C42 C 0.7288(3) 0.6415(3) 0.87599(18)
C43 C 0.6792(4) 0.5503(3) 0.82960(19)
C44 C 0.5950(5) 0.4621(3) 0.8487(2)
C45 C 0.9281(4) 0.8362(4) 0.5603(2)
C46 C 0.9339(4) 0.8093(3) 0.62509(19)
C47 C 1.0472(4) 0.7956(3) 0.65726(19)
C48 C 1.1576(4) 0.8194(3) 0.62572(19)
K1A K 0.23322(8) 0.31117(6) 0.86174(4)
K2_2 K 0.50127(8) 0.84149(6) 0.59992(4)
N2A N 0.4754(4) 0.6070(3) 1.1377(2)
S3_2 S 1.78847(10) 0.78959(8) 0.65247(5)
loop_
_geom_bond_atom_site_label_1
_geom_bond_atom_site_label_2
_geom_bond_site_symmetry_1
_geom_bond_site_symmetry_2
Cd1 S1 1_555 1_555
K1 N1 1_555 1_555
K2 N4 1_555 1_555
N1 C41 1_555 1_555
N2 C44 1_555 1_555
N3 C45 1_555 1_555
N4 C48 1_555 1_555
O1 K1 1_555 1_555
O2 K1 1_555 1_555
O3 K1 1_555 1_555
O4 K1 1_555 1_555
O5 K1 1_555 1_555
O6 K1 1_555 1_555
O7 K2 1_555 1_555
O8 K2 1_555 1_555
O9 K2 1_555 1_555
O10 K2 1_555 1_555
O11 K2 1_555 1_555
O12 K2 1_555 1_555
S1 C42 1_555 1_555
S2 Cd1 1_555 1_555
S3 Cd1 1_555 1_555
S4 Cd1 1_555 1_555
C1 O1 1_555 1_555
H1 C1 1_555 1_555
C2 C1 1_555 1_555
H2 C2 1_555 1_555
H3 C2 1_555 1_555
C3 C2 1_555 1_555
H4 C3 1_555 1_555
H5 C3 1_555 1_555
C4 C3 1_555 1_555
H6 C4 1_555 1_555
H7 C4 1_555 1_555
C5 C4 1_555 1_555
H8 C5 1_555 1_555
H9 C5 1_555 1_555
C6 O2 1_555 1_555
H10 C6 1_555 1_555
C7 O2 1_555 1_555
H11 C7 1_555 1_555
H12 C7 1_555 1_555
C8 O3 1_555 1_555
H13 C8 1_555 1_555
H14 C8 1_555 1_555
C9 O3 1_555 1_555
H15 C9 1_555 1_555
H16 C9 1_555 1_555
C10 O4 1_555 1_555
H17 C10 1_555 1_555
H18 C10 1_555 1_555
C11 O4 1_555 1_555
H19 C11 1_555 1_555
C12 C11 1_555 1_555
H20 C12 1_555 1_555
H21 C12 1_555 1_555
C13 C12 1_555 1_555
H22 C13 1_555 1_555
H23 C13 1_555 1_555
C14 C13 1_555 1_555
H24 C14 1_555 1_555
H25 C14 1_555 1_555
C15 C14 1_555 1_555
H26 C15 1_555 1_555
H27 C15 1_555 1_555
C16 O5 1_555 1_555
H28 C16 1_555 1_555
C17 O5 1_555 1_555
H29 C17 1_555 1_555
H30 C17 1_555 1_555
C18 O6 1_555 1_555
H31 C18 1_555 1_555
H32 C18 1_555 1_555
C19 O6 1_555 1_555
H33 C19 1_555 1_555
H34 C19 1_555 1_555
C20 O1 1_555 1_555
H35 C20 1_555 1_555
H36 C20 1_555 1_555
C21 O7 1_555 1_555
H37 C21 1_555 1_555
C22 C21 1_555 1_555
H38 C22 1_555 1_555
H39 C22 1_555 1_555
C23 C22 1_555 1_555
H40 C23 1_555 1_555
H41 C23 1_555 1_555
C24 C23 1_555 1_555
H42 C24 1_555 1_555
H43 C24 1_555 1_555
C25 C24 1_555 1_555
H44 C25 1_555 1_555
H45 C25 1_555 1_555
C26 O8 1_555 1_555
H46 C26 1_555 1_555
C27 O8 1_555 1_555
H47 C27 1_555 1_555
H48 C27 1_555 1_555
C28 O9 1_555 1_555
H49 C28 1_555 1_555
H50 C28 1_555 1_555
C29 O9 1_555 1_555
H51 C29 1_555 1_555
H52 C29 1_555 1_555
C30 O10 1_555 1_555
H53 C30 1_555 1_555
H54 C30 1_555 1_555
C31 O10 1_555 1_555
H55 C31 1_555 1_555
C32 C31 1_555 1_555
H56 C32 1_555 1_555
H57 C32 1_555 1_555
C33 C32 1_555 1_555
H58 C33 1_555 1_555
H59 C33 1_555 1_555
C34 C33 1_555 1_555
H60 C34 1_555 1_555
H61 C34 1_555 1_555
C35 C34 1_555 1_555
H62 C35 1_555 1_555
H63 C35 1_555 1_555
C36 O11 1_555 1_555
H64 C36 1_555 1_555
C37 O11 1_555 1_555
H65 C37 1_555 1_555
H66 C37 1_555 1_555
C38 O12 1_555 1_555
H67 C38 1_555 1_555
H68 C38 1_555 1_555
C39 O12 1_555 1_555
H69 C39 1_555 1_555
H70 C39 1_555 1_555
C40 O7 1_555 1_555
H71 C40 1_555 1_555
H72 C40 1_555 1_555
C41 C42 1_555 1_555
C42 C43 1_555 1_555
C43 S2 1_555 1_555
C44 C43 1_555 1_555
C45 C46 1_555 1_555
C46 S3 1_555 1_555
C47 S4 1_555 1_555
C48 C47 1_555 1_555
K1A N2 1_555 1_555
K2_2 S3 1_555 1_555
N2A K1 1_555 1_555
S3_2 K2 1_555 1_555
C1 C6 1_555 1_555
C5 C6 1_555 1_555
C7 C8 1_555 1_555
C9 C10 1_555 1_555
C11 C16 1_555 1_555
C15 C16 1_555 1_555
C17 C18 1_555 1_555
C19 C20 1_555 1_555
C21 C26 1_555 1_555
C25 C26 1_555 1_555
C27 C28 1_555 1_555
C29 C30 1_555 1_555
C31 C36 1_555 1_555
C35 C36 1_555 1_555
C37 C38 1_555 1_555
C39 C40 1_555 1_555
C46 C47 1_555 1_555

#END
