
#######################################################################
#
#                 Cambridge Crystallographic Data Centre
#                                CCDC 
#
#######################################################################
#
# If this CIF has been generated from an entry in the Cambridge 
# Structural Database, then it will include bibliographic, chemical, 
# crystal, experimental, refinement or atomic coordinate data resulting 
# from the CCDC's data processing and validation procedures.
#
#######################################################################

data_RECZUV
_symmetry_cell_setting           triclinic
_symmetry_space_group_name_H-M   'P -1'
_symmetry_Int_Tables_number      2
_space_group_name_Hall           '-P 1'
loop_
_symmetry_equiv_pos_site_id
_symmetry_equiv_pos_as_xyz
1 x,y,z
2 -x,-y,-z
_cell_length_a                   7.373(3)
_cell_length_b                   9.561(3)
_cell_length_c                   16.320(4)
_cell_angle_alpha                84.44(3)
_cell_angle_beta                 89.23(3)
_cell_angle_gamma                84.47(3)
_cell_volume                     1139.7
loop_
_atom_site_label
_atom_site_type_symbol
_atom_site_fract_x
_atom_site_fract_y
_atom_site_fract_z
K1 K 0.32474(4) 0.64731(3) -0.077081(19)
K2 K 0.67793(4) 0.83645(3) 0.063400(19)
P1 P 0.79924(5) 0.58996(4) -0.10531(2)
O1 O 0.64657(15) 0.64616(12) -0.17550(6)
O2 O 0.94991(15) 0.69510(12) -0.11743(7)
H1 H 0.914(4) 0.770(3) -0.1078(18)
O3 O 0.88914(15) 0.45087(12) -0.12654(7)
O4 O 0.69432(15) 0.59906(12) -0.02756(6)
C1 C 0.6671(2) 0.63910(16) -0.25903(9)
C2 C 0.5063(2) 0.64707(18) -0.30330(10)
H2 H 0.399(3) 0.651(2) -0.2745(13)
C3 C 0.5126(2) 0.64481(19) -0.38797(10)
H3 H 0.405(3) 0.649(2) -0.4186(13)
C4 C 0.6810(2) 0.63346(18) -0.42636(9)
C5 C 0.8429(2) 0.62508(18) -0.38364(10)
H4 H 0.956(3) 0.620(2) -0.4134(12)
C6 C 0.8355(2) 0.62852(17) -0.29851(10)
H5 H 0.946(3) 0.627(2) -0.2686(14)
N1 N 0.6878(2) 0.63076(16) -0.51615(8)
O5 O 0.54457(19) 0.65469(16) -0.55433(8)
O6 O 0.83654(19) 0.60268(18) -0.54849(8)
P2 P 0.20754(5) 0.90476(4) 0.08360(2)
O7 O 0.34775(14) 0.85240(12) 0.15903(6)
O8 O 0.04555(15) 0.81043(13) 0.09869(7)
H6 H 0.077(4) 0.731(3) 0.1019(16)
O9 O 0.12819(16) 1.05307(12) 0.09087(7)
O10 O 0.31939(14) 0.87622(12) 0.00957(7)
C7 C 0.3047(2) 0.87250(17) 0.24055(9)
C8 C 0.2145(2) 0.77255(18) 0.28856(10)
H7 H 0.173(3) 0.693(2) 0.2619(13)
C9 C 0.1813(2) 0.79041(19) 0.37136(11)
H8 H 0.121(3) 0.727(2) 0.4051(14)
C10 C 0.2422(2) 0.90682(19) 0.40275(10)
C11 C 0.3330(2) 1.00587(19) 0.35531(10)
H9 H 0.376(3) 1.080(3) 0.3812(15)
C12 C 0.3636(2) 0.98869(18) 0.27272(10)
H10 H 0.427(3) 1.053(2) 0.2372(13)
N2 N 0.2142(2) 0.92459(19) 0.49075(9)
O11 O 0.2716(2) 1.02661(17) 0.51820(8)
O12 O 0.1357(2) 0.83512(19) 0.53310(8)
O13 O 0.22990(17) 0.92486(14) -0.17649(8)
H11 H 0.145(3) 0.943(3) -0.1476(15)
C13 C 0.1649(3) 0.9415(2) -0.25943(12)
H12 H 0.264(3) 0.927(2) -0.2968(14)
H13 H 0.072(4) 0.881(3) -0.2685(17)
H14 H 0.114(4) 1.035(3) -0.2739(17)
O14 O 0.25228(17) 0.42253(13) -0.17240(7)
H15 H 0.148(3) 0.438(3) -0.1618(14)
C14 C 0.2665(3) 0.3623(2) -0.24924(11)
H16 H 0.198(3) 0.423(2) -0.2912(13)
H17 H 0.221(4) 0.269(3) -0.2433(17)
H18 H 0.399(3) 0.356(2) -0.2663(13)
K1_2 K 1.32474(4) 0.64731(3) -0.077081(19)
K1A K 0.67526(4) 0.35269(3) 0.077081(19)
K2_2 K -0.32207(4) 0.83645(3) 0.063400(19)
K2A K 0.32207(4) 1.16355(3) -0.063400(19)
K2A_2 K 0.32207(4) 0.16355(3) -0.063400(19)
O2_2 O -0.05009(15) 0.69510(12) -0.11743(7)
H1_2 H -0.086(4) 0.770(3) -0.1078(18)
O4A O 0.30568(15) 0.40094(12) 0.02756(6)
O8_2 O 1.04555(15) 0.81043(13) 0.09869(7)
H6_2 H 1.077(4) 0.731(3) 0.1019(16)
O9A O 0.87181(16) 0.94693(12) -0.09087(7)
O10A O 0.68061(14) 1.12378(12) -0.00957(7)
O13A O 0.77010(17) 1.07514(14) 0.17649(8)
H11A H 0.855(3) 1.057(3) 0.1476(15)
O14A O 0.74772(17) 0.57747(13) 0.17240(7)
H15A H 0.852(3) 0.562(3) 0.1618(14)
loop_
_geom_bond_atom_site_label_1
_geom_bond_atom_site_label_2
_geom_bond_site_symmetry_1
_geom_bond_site_symmetry_2
K1 O1 1_555 1_555
K2 O4 1_555 1_555
P1 O1 1_555 1_555
O1 C1 1_555 1_555
O2 P1 1_555 1_555
H1 O2 1_555 1_555
O3 P1 1_555 1_555
O4 K1 1_555 1_555
C1 C2 1_555 1_555
C2 H2 1_555 1_555
C3 C2 1_555 1_555
H3 C3 1_555 1_555
C4 C3 1_555 1_555
C5 C4 1_555 1_555
H4 C5 1_555 1_555
C6 C1 1_555 1_555
H5 C6 1_555 1_555
N1 C4 1_555 1_555
O5 N1 1_555 1_555
O6 N1 1_555 1_555
P2 O7 1_555 1_555
O7 K2 1_555 1_555
O8 P2 1_555 1_555
H6 O8 1_555 1_555
O9 P2 1_555 1_555
O10 K1 1_555 1_555
C7 O7 1_555 1_555
C8 C7 1_555 1_555
H7 C8 1_555 1_555
C9 C8 1_555 1_555
H8 C9 1_555 1_555
C10 C9 1_555 1_555
C11 C10 1_555 1_555
H9 C11 1_555 1_555
C12 C7 1_555 1_555
H10 C12 1_555 1_555
N2 C10 1_555 1_555
O11 N2 1_555 1_555
O12 N2 1_555 1_555
O13 K1 1_555 1_555
H11 O13 1_555 1_555
C13 O13 1_555 1_555
H12 C13 1_555 1_555
H13 C13 1_555 1_555
H14 C13 1_555 1_555
O14 K1 1_555 1_555
H15 O14 1_555 1_555
C14 O14 1_555 1_555
H16 C14 1_555 1_555
H17 C14 1_555 1_555
H18 C14 1_555 1_555
K1_2 O2 1_555 1_555
K1A O4 1_555 1_555
K2_2 O8 1_555 1_555
K2A O9 1_555 1_555
K2A_2 O14 1_555 1_555
O2_2 K1 1_555 1_555
H1_2 O2_2 1_555 1_555
O4A K1 1_555 1_555
O8_2 K2 1_555 1_555
H6_2 O8_2 1_555 1_555
O9A K2 1_555 1_555
O10A K2 1_555 1_555
O13A K2 1_555 1_555
H11A O13A 1_555 1_555
O14A K2 1_555 1_555
H15A O14A 1_555 1_555
K2 O10 1_555 1_555
P1 O4 1_555 1_555
C5 C6 1_555 1_555
P2 O10 1_555 1_555
O10 K2A 1_555 1_555
C11 C12 1_555 1_555
O13 K2A 1_555 1_555
K1A O4A 1_555 1_555
K1A O14A 1_555 1_555
K2A O10A 1_555 1_555
K2A_2 O4A 1_555 1_555

#END
