
#######################################################################
#
#                 Cambridge Crystallographic Data Centre
#                                CCDC 
#
#######################################################################
#
# If this CIF has been generated from an entry in the Cambridge 
# Structural Database, then it will include bibliographic, chemical, 
# crystal, experimental, refinement or atomic coordinate data resulting 
# from the CCDC's data processing and validation procedures.
#
#######################################################################

data_RECZOP
_symmetry_cell_setting           monoclinic
_symmetry_space_group_name_H-M   'P 21/n'
_symmetry_Int_Tables_number      14
_space_group_name_Hall           '-P 2yn'
loop_
_symmetry_equiv_pos_site_id
_symmetry_equiv_pos_as_xyz
1 x,y,z
2 1/2-x,1/2+y,1/2-z
3 -x,-y,-z
4 1/2+x,1/2-y,1/2+z
_cell_length_a                   7.669(2)
_cell_length_b                   19.817(4)
_cell_length_c                   11.707(2)
_cell_angle_alpha                90
_cell_angle_beta                 102.90(3)
_cell_angle_gamma                90
_cell_volume                     1734.29
loop_
_atom_site_label
_atom_site_type_symbol
_atom_site_fract_x
_atom_site_fract_y
_atom_site_fract_z
K1 K 0.78882(3) 0.590258(12) 0.59144(2)
P1 P 1.24526(3) 0.505200(13) 0.70237(2)
O1 O 1.25037(11) 0.48184(4) 0.83493(7)
O2 O 1.16927(11) 0.57458(4) 0.69099(7)
O3 O 1.13854(10) 0.45188(4) 0.62000(7)
H1 H 1.016(2) 0.4509(9) 0.6100(15)
O4 O 1.43988(10) 0.50192(4) 0.68693(7)
H2 H 1.470(2) 0.4620(9) 0.6449(16)
C1 C 1.33416(13) 0.42352(5) 0.88493(9)
C2 C 1.40117(14) 0.42593(5) 1.00593(9)
H3 H 1.383(2) 0.4640(8) 1.0479(15)
C3 C 1.49032(15) 0.37039(5) 1.06346(9)
H4 H 1.541(3) 0.3714(9) 1.1429(17)
C4 C 1.50786(14) 0.31333(5) 0.99778(9)
C5 C 1.43845(15) 0.30966(5) 0.87787(10)
H5 H 1.452(2) 0.2715(9) 0.8367(16)
C6 C 1.35028(15) 0.36547(5) 0.82060(9)
H6 H 1.303(3) 0.3625(10) 0.7408(17)
N1 N 1.60652(14) 0.25540(5) 1.05735(9)
O5 O 1.67596(16) 0.26065(5) 1.16204(9)
O6 O 1.61639(15) 0.20427(5) 0.99995(9)
P2 P 0.30244(3) 0.610480(13) 0.43319(2)
O7 O 0.21091(11) 0.66705(4) 0.33978(7)
O8 O 0.30268(12) 0.64869(4) 0.54894(7)
H7 H 0.263(3) 0.6269(13) 0.599(2)
O9 O 0.49027(11) 0.59827(4) 0.42022(8)
O10 O 0.18815(10) 0.54791(4) 0.41798(7)
C7 C 0.15521(14) 0.65625(5) 0.22081(9)
C8 C 0.06901(15) 0.71041(5) 0.15567(9)
H8 H 0.047(2) 0.7538(9) 0.1925(16)
C9 C -0.00261(15) 0.70266(5) 0.03651(10)
H9 H -0.066(2) 0.7351(9) -0.0071(15)
C10 C 0.01401(14) 0.64019(5) -0.01411(9)
C11 C 0.10461(14) 0.58663(5) 0.04851(9)
H10 H 0.119(2) 0.5443(9) 0.0120(16)
C12 C 0.17832(15) 0.59484(5) 0.16714(9)
H11 H 0.242(2) 0.5597(9) 0.2103(16)
N2 N -0.07791(13) 0.62874(5) -0.13569(8)
O11 O -0.12076(15) 0.67766(5) -0.20071(8)
O12 O -0.11312(12) 0.57001(4) -0.16723(7)
K1B K 1.21118(3) 0.409742(12) 0.40856(2)
K1A K 1.71118(3) 0.090258(12) 0.90856(2)
K1B_2 K 0.21118(3) 0.409742(12) 0.40856(2)
K1_2 K -0.21118(3) 0.590258(12) -0.40856(2)
O3B O 0.86146(10) 0.54812(4) 0.38000(7)
H1B H 0.984(2) 0.5491(9) 0.3900(15)
O6A O 0.88361(15) 0.70427(5) 0.50005(9)
O10B O 0.81185(10) 0.45209(4) 0.58202(7)
O11_2 O 0.87924(15) 0.67766(5) 0.79929(8)
O12_2 O 0.88688(12) 0.57001(4) 0.83277(7)
loop_
_geom_bond_atom_site_label_1
_geom_bond_atom_site_label_2
_geom_bond_site_symmetry_1
_geom_bond_site_symmetry_2
K1 O2 1_555 1_555
P1 O1 1_555 1_555
O1 C1 1_555 1_555
O2 P1 1_555 1_555
O3 P1 1_555 1_555
H1 O3 1_555 1_555
O4 P1 1_555 1_555
H2 O4 1_555 1_555
C1 C2 1_555 1_555
C2 H3 1_555 1_555
C3 C2 1_555 1_555
H4 C3 1_555 1_555
C4 C3 1_555 1_555
C5 C4 1_555 1_555
H5 C5 1_555 1_555
C6 C1 1_555 1_555
H6 C6 1_555 1_555
N1 C4 1_555 1_555
O5 N1 1_555 1_555
O6 N1 1_555 1_555
P2 O7 1_555 1_555
O7 C7 1_555 1_555
O8 P2 1_555 1_555
H7 O8 1_555 1_555
O9 K1 1_555 1_555
O10 P2 1_555 1_555
C7 C8 1_555 1_555
C8 H8 1_555 1_555
C9 C8 1_555 1_555
H9 C9 1_555 1_555
C10 C9 1_555 1_555
C11 C10 1_555 1_555
H10 C11 1_555 1_555
C12 C7 1_555 1_555
H11 C12 1_555 1_555
N2 C10 1_555 1_555
O11 N2 1_555 1_555
O12 N2 1_555 1_555
K1B O3 1_555 1_555
K1A O6 1_555 1_555
K1B_2 O10 1_555 1_555
K1_2 O11 1_555 1_555
O3B K1 1_555 1_555
H1B O3B 1_555 1_555
O6A K1 1_555 1_555
O10B K1 1_555 1_555
O11_2 K1 1_555 1_555
O12_2 K1 1_555 1_555
C5 C6 1_555 1_555
P2 O9 1_555 1_555
C11 C12 1_555 1_555
O12 K1_2 1_555 1_555

#END
