
#######################################################################
#
#                 Cambridge Crystallographic Data Centre
#                                CCDC 
#
#######################################################################
#
# If this CIF has been generated from an entry in the Cambridge 
# Structural Database, then it will include bibliographic, chemical, 
# crystal, experimental, refinement or atomic coordinate data resulting 
# from the CCDC's data processing and validation procedures.
#
#######################################################################

data_REDLUH
_symmetry_cell_setting           monoclinic
_symmetry_space_group_name_H-M   'P 21/c'
_symmetry_Int_Tables_number      14
_space_group_name_Hall           '-P 2ybc'
loop_
_symmetry_equiv_pos_site_id
_symmetry_equiv_pos_as_xyz
1 x,y,z
2 -x,1/2+y,1/2-z
3 -x,-y,-z
4 x,1/2-y,1/2+z
_cell_length_a                   10.481(2)
_cell_length_b                   12.236(2)
_cell_length_c                   18.868(3)
_cell_angle_alpha                90
_cell_angle_beta                 101.53(1)
_cell_angle_gamma                90
_cell_volume                     2370.91
loop_
_atom_site_label
_atom_site_type_symbol
_atom_site_fract_x
_atom_site_fract_y
_atom_site_fract_z
Pt1 Pt 0.4588(1) 0.3958(1) 0.8468(1)
Ag1 Ag 0.5268(1) 0.6050(1) 0.7184(1)
P1 P 0.6663(2) 0.3904(2) 0.9176(1)
P2 P 0.2474(2) 0.4018(2) 0.7810(1)
C1 C 0.4675(8) 0.5550(8) 0.8288(4)
C2 C 0.4603(11) 0.6535(10) 0.8214(6)
C3 C 0.4435(9) 0.2382(8) 0.8718(4)
C4 C 0.5700(13) 0.6443(10) 0.6073(6)
C5 C 0.7528(8) 0.5166(8) 0.9339(4)
C6 C 0.7234(12) 0.5917(10) 0.9833(6)
C7 C 0.7895(14) 0.6912(11) 0.9942(6)
C8 C 0.8873(12) 0.7156(10) 0.9581(6)
C9 C 0.9136(12) 0.6423(10) 0.9081(7)
C10 C 0.8509(10) 0.5441(9) 0.8951(6)
C11 C 0.7711(10) 0.2982(8) 0.8818(5)
C12 C 0.6653(11) 0.3391(11) 1.0073(4)
C13 C 0.2382(9) 0.4429(8) 0.6882(4)
C14 C 0.3401(9) 0.4155(8) 0.6547(5)
C15 C 0.3360(12) 0.4414(12) 0.5836(6)
C16 C 0.2304(15) 0.4975(10) 0.5454(5)
C17 C 0.1283(12) 0.5249(10) 0.5793(5)
C18 C 0.1317(10) 0.4977(9) 0.6504(5)
C19 C 0.1475(10) 0.4957(10) 0.8197(6)
C20 C 0.1566(11) 0.2782(10) 0.7754(6)
Cl1 Cl 0.7610(3) 0.4069(3) 0.6744(2)
O1 O 0.6678(11) 0.4247(10) 0.7190(6)
O2 O 0.8295(10) 0.3116(10) 0.6973(6)
O3 O 0.8352(11) 0.4995(11) 0.6789(12)
O4 O 0.6805(15) 0.3962(8) 0.6063(6)
H1 H 0.6578 0.5732 1.0102
H2 H 0.7646 0.7437 1.0268
H3 H 0.9368 0.7819 0.9678
H4 H 0.9792 0.6602 0.8811
H5 H 0.8727 0.4939 0.8602
H6 H 0.8559 0.2979 0.9126
H7 H 0.7779 0.3218 0.8342
H8 H 0.7351 0.2258 0.8793
H9 H 0.7526 0.3378 1.0351
H10 H 0.6306 0.2663 1.0030
H11 H 0.6122 0.3847 1.0310
H12 H 0.4131 0.3762 0.6818
H13 H 0.4074 0.4236 0.5608
H14 H 0.2259 0.5155 0.4954
H15 H 0.0558 0.5654 0.5528
H16 H 0.0606 0.5156 0.6735
H17 H 0.0605 0.4966 0.7914
H18 H 0.1851 0.5673 0.8195
H19 H 0.1452 0.4750 0.8685
H20 H 0.0708 0.2898 0.7472
H21 H 0.1505 0.2536 0.8229
H22 H 0.2006 0.2238 0.7524
C3A C 0.5565(9) 0.7382(8) 0.6282(4)
Pt1A Pt 0.5412(1) 0.8958(1) 0.6532(1)
loop_
_geom_bond_atom_site_label_1
_geom_bond_atom_site_label_2
_geom_bond_site_symmetry_1
_geom_bond_site_symmetry_2
Pt1 P1 1_555 1_555
Ag1 C1 1_555 1_555
P1 C5 1_555 1_555
P2 Pt1 1_555 1_555
C1 Pt1 1_555 1_555
C2 Ag1 1_555 1_555
C3 Pt1 1_555 1_555
C4 Ag1 1_555 1_555
C5 C6 1_555 1_555
C6 C7 1_555 1_555
C7 C8 1_555 1_555
C8 C9 1_555 1_555
C9 C10 1_555 1_555
C10 C5 1_555 1_555
C11 P1 1_555 1_555
C12 P1 1_555 1_555
C13 P2 1_555 1_555
C14 C13 1_555 1_555
C15 C14 1_555 1_555
C16 C15 1_555 1_555
C17 C16 1_555 1_555
C18 C13 1_555 1_555
C19 P2 1_555 1_555
C20 P2 1_555 1_555
Cl1 O1 1_555 1_555
O1 Ag1 1_555 1_555
O2 Cl1 1_555 1_555
O3 Cl1 1_555 1_555
O4 Cl1 1_555 1_555
H1 C6 1_555 1_555
H2 C7 1_555 1_555
H3 C8 1_555 1_555
H4 C9 1_555 1_555
H5 C10 1_555 1_555
H6 C11 1_555 1_555
H7 C11 1_555 1_555
H8 C11 1_555 1_555
H9 C12 1_555 1_555
H10 C12 1_555 1_555
H11 C12 1_555 1_555
H12 C14 1_555 1_555
H13 C15 1_555 1_555
H14 C16 1_555 1_555
H15 C17 1_555 1_555
H16 C18 1_555 1_555
H17 C19 1_555 1_555
H18 C19 1_555 1_555
H19 C19 1_555 1_555
H20 C20 1_555 1_555
H21 C20 1_555 1_555
H22 C20 1_555 1_555
C3A Ag1 1_555 1_555
Pt1A C3A 1_555 1_555
C1 C2 1_555 1_555
C4 C3A 1_555 1_555
C17 C18 1_555 1_555

#END
