
#######################################################################
#
#                 Cambridge Crystallographic Data Centre
#                                CCDC 
#
#######################################################################
#
# If this CIF has been generated from an entry in the Cambridge 
# Structural Database, then it will include bibliographic, chemical, 
# crystal, experimental, refinement or atomic coordinate data resulting 
# from the CCDC's data processing and validation procedures.
#
#######################################################################

data_REDNIY
_symmetry_cell_setting           monoclinic
_symmetry_space_group_name_H-M   'C 2/c'
_symmetry_Int_Tables_number      15
_space_group_name_Hall           '-C 2yn'
loop_
_symmetry_equiv_pos_site_id
_symmetry_equiv_pos_as_xyz
1 x,y,z
2 1/2+x,1/2+y,z
3 -x,y,1/2-z
4 1/2-x,1/2+y,1/2-z
5 -x,-y,-z
6 1/2-x,1/2-y,-z
7 x,-y,1/2+z
8 1/2+x,1/2-y,1/2+z
_cell_length_a                   27.110(11)
_cell_length_b                   7.258(3)
_cell_length_c                   17.837(7)
_cell_angle_alpha                90
_cell_angle_beta                 94.267(7)
_cell_angle_gamma                90
_cell_volume                     3499.96
loop_
_atom_site_label
_atom_site_type_symbol
_atom_site_fract_x
_atom_site_fract_y
_atom_site_fract_z
Cu1 Cu 0.29204(2) 0.16155(10) 0.35076(4)
O1 O 0.26010(14) 0.3129(6) 0.2674(2)
O2 O 0.18515(15) 0.4182(6) 0.2252(3)
O3 O 0.30697(17) 0.0663(7) 0.4524(3)
O4 O 0.2695(2) -0.0209(9) 0.5529(3)
O5 O 0.54483(18) 0.4801(7) 0.3360(4)
O6 O 0.46924(16) -0.0698(6) 0.3932(3)
N1 N 0.22454(17) 0.0668(7) 0.3605(3)
H1 H 0.2206 -0.0358 0.3313
N2 N 0.35527(18) 0.3018(7) 0.3524(3)
N3 N 0.53689(18) 0.3161(7) 0.3580(3)
N4 N 0.50200(18) 0.0541(6) 0.3834(3)
C1 C 0.2131(2) 0.3214(8) 0.2688(4)
C2 C 0.1893(2) 0.2085(8) 0.3287(4)
H2 H 0.1799 0.2893 0.3686
H3 H 0.1597 0.1489 0.3067
C3 C 0.2197(2) 0.0106(9) 0.4395(4)
H4 H 0.2068 -0.1140 0.4402
H5 H 0.1962 0.0911 0.4615
C4 C 0.2688(3) 0.0182(9) 0.4868(4)
C5 C 0.3528(2) 0.4882(9) 0.3481(4)
H6 H 0.3219 0.5446 0.3453
C6 C 0.3941(2) 0.5958(9) 0.3478(4)
H7 H 0.3910 0.7232 0.3447
C7 C 0.4403(2) 0.5160(8) 0.3521(4)
H8 H 0.4685 0.5887 0.3512
C8 C 0.4443(2) 0.3221(8) 0.3581(3)
C9 C 0.4002(2) 0.2222(8) 0.3584(3)
H9 H 0.4020 0.0946 0.3629
C10 C 0.4929(2) 0.2325(8) 0.3653(3)
C11 C 0.5799(2) 0.1978(8) 0.3890(4)
C12 C 0.6245(2) 0.2282(10) 0.3428(4)
H10 H 0.6164 0.1891 0.2919
H11 H 0.6520 0.1579 0.3641
H12 H 0.6329 0.3566 0.3433
C13 C 0.5914(3) 0.2576(10) 0.4695(4)
H13 H 0.6001 0.3858 0.4708
H14 H 0.6185 0.1862 0.4917
H15 H 0.5628 0.2390 0.4974
C14 C 0.5560(2) 0.0040(8) 0.3799(3)
C15 C 0.5602(2) -0.0820(9) 0.3030(4)
H16 H 0.5941 -0.1138 0.2972
H17 H 0.5490 0.0045 0.2647
H18 H 0.5401 -0.1909 0.2986
C16 C 0.5712(3) -0.1304(9) 0.4429(4)
H19 H 0.5579 -0.2500 0.4306
H20 H 0.5588 -0.0882 0.4889
H21 H 0.6067 -0.1376 0.4490
Cu1C Cu 0.20796(2) 0.66155(10) 0.14924(4)
O2C O 0.31485(15) -0.0818(6) 0.2748(3)
loop_
_geom_bond_atom_site_label_1
_geom_bond_atom_site_label_2
_geom_bond_site_symmetry_1
_geom_bond_site_symmetry_2
Cu1 O1 1_555 1_555
O1 C1 1_555 1_555
O2 C1 1_555 1_555
O3 Cu1 1_555 1_555
O4 C4 1_555 1_555
O5 N3 1_555 1_555
O6 N4 1_555 1_555
N1 Cu1 1_555 1_555
H1 N1 1_555 1_555
N2 Cu1 1_555 1_555
N3 C10 1_555 1_555
N4 C10 1_555 1_555
C1 C2 1_555 1_555
C2 N1 1_555 1_555
H2 C2 1_555 1_555
H3 C2 1_555 1_555
C3 N1 1_555 1_555
H4 C3 1_555 1_555
H5 C3 1_555 1_555
C4 O3 1_555 1_555
C5 N2 1_555 1_555
H6 C5 1_555 1_555
C6 C5 1_555 1_555
H7 C6 1_555 1_555
C7 C6 1_555 1_555
H8 C7 1_555 1_555
C8 C7 1_555 1_555
C9 N2 1_555 1_555
H9 C9 1_555 1_555
C10 C8 1_555 1_555
C11 N3 1_555 1_555
C12 C11 1_555 1_555
H10 C12 1_555 1_555
H11 C12 1_555 1_555
H12 C12 1_555 1_555
C13 C11 1_555 1_555
H13 C13 1_555 1_555
H14 C13 1_555 1_555
H15 C13 1_555 1_555
C14 N4 1_555 1_555
C15 C14 1_555 1_555
H16 C15 1_555 1_555
H17 C15 1_555 1_555
H18 C15 1_555 1_555
C16 C14 1_555 1_555
H19 C16 1_555 1_555
H20 C16 1_555 1_555
H21 C16 1_555 1_555
Cu1C O2 1_555 1_555
O2C Cu1 1_555 1_555
C3 C4 1_555 1_555
C8 C9 1_555 1_555
C11 C14 1_555 1_555

#END
