
#######################################################################
#
#                 Cambridge Crystallographic Data Centre
#                                CCDC 
#
#######################################################################
#
# If this CIF has been generated from an entry in the Cambridge 
# Structural Database, then it will include bibliographic, chemical, 
# crystal, experimental, refinement or atomic coordinate data resulting 
# from the CCDC's data processing and validation procedures.
#
#######################################################################

data_REDPEW
_symmetry_cell_setting           monoclinic
_symmetry_space_group_name_H-M   'C 2/c'
_symmetry_Int_Tables_number      15
_space_group_name_Hall           '-C 2yn'
loop_
_symmetry_equiv_pos_site_id
_symmetry_equiv_pos_as_xyz
1 x,y,z
2 1/2+x,1/2+y,z
3 -x,y,1/2-z
4 1/2-x,1/2+y,1/2-z
5 -x,-y,-z
6 1/2-x,1/2-y,-z
7 x,-y,1/2+z
8 1/2+x,1/2-y,1/2+z
_cell_length_a                   19.417(9)
_cell_length_b                   16.454(7)
_cell_length_c                   20.781(9)
_cell_angle_alpha                90
_cell_angle_beta                 115.33(3)
_cell_angle_gamma                90
_cell_volume                     6000.96
loop_
_atom_site_label
_atom_site_type_symbol
_atom_site_fract_x
_atom_site_fract_y
_atom_site_fract_z
Tl1 Tl 0.84214(4) -0.22412(5) 0.71716(4)
Tl2 Tl 0.91776(4) -0.06451(5) 0.88539(4)
Tl3 Tl 0.71798(5) -0.03427(5) 0.72857(4)
Tl4 Tl 0.77091(4) -0.23636(5) 0.87250(4)
S1 S 0.9126(3) 0.1802(3) 0.5710(2)
S2 S 1.1809(3) -0.3740(3) 1.0368(2)
O1 O 0.8527(8) -0.0686(8) 0.7427(6)
O2 O 0.8920(7) -0.2124(8) 0.8550(6)
O3 O 1.2200(8) 0.3093(7) 0.7325(6)
O4 O 1.2797(7) -0.5820(7) 0.8631(6)
O5 O 0.9091(7) 0.1403(9) 0.5073(6)
O6 O 0.8594(7) 0.2431(9) 0.5654(8)
O7 O 1.2373(7) -0.3109(9) 1.0654(6)
O8 O 1.1674(8) -0.4260(9) 1.0850(7)
C1 C 0.8721(9) -0.0153(11) 0.7059(9)
C2 C 0.8766(10) -0.0367(12) 0.6414(9)
H1 H 0.8690 -0.0904 0.6259
C3 C 0.8918(10) 0.0203(10) 0.6027(9)
H2 H 0.8951 0.0054 0.5610
C4 C 0.9029(9) 0.1037(11) 0.6251(8)
C5 C 0.8990(10) 0.1257(13) 0.6880(10)
H3 H 0.9061 0.1796 0.7029
C6 C 0.8845(13) 0.0675(13) 0.7283(10)
H4 H 0.8828 0.0824 0.7707
C7 C 0.9578(10) -0.2527(10) 0.8938(8)
C8 C 0.9601(11) -0.3199(16) 0.9374(11)
H5 H 0.9149 -0.3395 0.9369
C9 C 1.0271(11) -0.3561(12) 0.9801(9)
H6 H 1.0276 -0.3994 1.0091
C10 C 1.0945(9) -0.3286(11) 0.9805(8)
C11 C 1.0938(10) -0.2635(12) 0.9389(9)
H7 H 1.1395 -0.2443 0.9402
C12 C 1.0271(11) -0.2269(13) 0.8957(10)
H8 H 1.0278 -0.1838 0.8670
C13 C 1.1510(10) 0.2815(10) 0.6934(8)
C14 C 1.0885(11) 0.3112(12) 0.7041(9)
H9 H 1.0961 0.3521 0.7374
C15 C 1.0159(10) 0.2800(13) 0.6658(9)
H10 H 0.9751 0.3003 0.6731
C16 C 1.0044(11) 0.2187(10) 0.6167(8)
C17 C 1.0642(10) 0.1885(11) 0.6061(9)
H11 H 1.0557 0.1471 0.5730
C18 C 1.1385(9) 0.2187(11) 0.6441(9)
H12 H 1.1788 0.1973 0.6366
C19 C 1.2549(10) -0.5351(11) 0.9020(9)
C20 C 1.2759(11) -0.4551(12) 0.9113(10)
H13 H 1.3083 -0.4343 0.8929
C21 C 1.2473(10) -0.4039(12) 0.9497(9)
H14 H 1.2567 -0.3483 0.9518
C22 C 1.2065(10) -0.4352(12) 0.9832(8)
C23 C 1.1864(12) -0.5157(12) 0.9755(10)
H15 H 1.1558 -0.5360 0.9961
C24 C 1.2125(10) -0.5688(11) 0.9356(9)
H16 H 1.2015 -0.6240 0.9321
Tl1A Tl 1.34214(4) 0.27588(5) 0.71716(4)
Tl1G Tl 1.34214(4) -0.27588(5) 1.21716(4)
Tl2A Tl 1.41776(4) -0.56451(5) 0.88539(4)
Tl2F Tl 0.91776(4) 0.06451(5) 0.38539(4)
Tl3A Tl 1.21798(5) 0.46573(5) 0.72857(4)
Tl3A_2 Tl 1.21798(5) -0.53427(5) 0.72857(4)
Tl3G Tl 1.21798(5) -0.46573(5) 1.22857(4)
Tl4A Tl 1.27091(4) 0.26364(5) 0.87250(4)
Tl4A_2 Tl 1.27091(4) -0.73636(5) 0.87250(4)
O3A O 0.7200(8) -0.1907(7) 0.7325(6)
O4A O 0.7797(7) -0.0820(7) 0.8631(6)
O5F O 0.9091(7) -0.1403(9) 1.0073(6)
O7G O 0.7373(7) -0.1891(9) 0.5654(6)
O8G O 0.6674(8) -0.0740(9) 0.5850(7)
loop_
_geom_bond_atom_site_label_1
_geom_bond_atom_site_label_2
_geom_bond_site_symmetry_1
_geom_bond_site_symmetry_2
Tl1 O1 1_555 1_555
Tl2 O1 1_555 1_555
Tl3 O1 1_555 1_555
Tl4 O2 1_555 1_555
S1 O5 1_555 1_555
S2 O7 1_555 1_555
O1 C1 1_555 1_555
O2 Tl1 1_555 1_555
O3 C13 1_555 1_555
O4 C19 1_555 1_555
O5 Tl2F 1_555 1_555
O6 S1 1_555 1_555
O7 Tl1G 1_555 1_555
O8 S2 1_555 1_555
C1 C2 1_555 1_555
C2 H1 1_555 1_555
C3 C2 1_555 1_555
H2 C3 1_555 1_555
C4 S1 1_555 1_555
C5 C4 1_555 1_555
H3 C5 1_555 1_555
C6 C1 1_555 1_555
H4 C6 1_555 1_555
C7 O2 1_555 1_555
C8 C7 1_555 1_555
H5 C8 1_555 1_555
C9 C8 1_555 1_555
H6 C9 1_555 1_555
C10 S2 1_555 1_555
C11 C10 1_555 1_555
H7 C11 1_555 1_555
C12 C7 1_555 1_555
H8 C12 1_555 1_555
C13 C14 1_555 1_555
C14 H9 1_555 1_555
C15 C14 1_555 1_555
H10 C15 1_555 1_555
C16 S1 1_555 1_555
C17 C16 1_555 1_555
H11 C17 1_555 1_555
C18 C13 1_555 1_555
H12 C18 1_555 1_555
C19 C20 1_555 1_555
C20 H13 1_555 1_555
C21 C20 1_555 1_555
H14 C21 1_555 1_555
C22 S2 1_555 1_555
C23 C22 1_555 1_555
H15 C23 1_555 1_555
C24 C19 1_555 1_555
H16 C24 1_555 1_555
Tl1A O3 1_555 1_555
Tl2A O4 1_555 1_555
Tl3A O3 1_555 1_555
Tl3A_2 O4 1_555 1_555
Tl3G O8 1_555 1_555
Tl4A O3 1_555 1_555
Tl4A_2 O4 1_555 1_555
O3A Tl1 1_555 1_555
O4A Tl2 1_555 1_555
O5F Tl2 1_555 1_555
O7G Tl1 1_555 1_555
O8G Tl3 1_555 1_555
Tl2 O2 1_555 1_555
Tl3 O3A 1_555 1_555
Tl3 O4A 1_555 1_555
Tl4 O3A 1_555 1_555
Tl4 O4A 1_555 1_555
C3 C4 1_555 1_555
C5 C6 1_555 1_555
C9 C10 1_555 1_555
C11 C12 1_555 1_555
C15 C16 1_555 1_555
C17 C18 1_555 1_555
C21 C22 1_555 1_555
C23 C24 1_555 1_555

#END
