
#######################################################################
#
#                 Cambridge Crystallographic Data Centre
#                                CCDC 
#
#######################################################################
#
# If this CIF has been generated from an entry in the Cambridge 
# Structural Database, then it will include bibliographic, chemical, 
# crystal, experimental, refinement or atomic coordinate data resulting 
# from the CCDC's data processing and validation procedures.
#
#######################################################################

data_REDQAT
_symmetry_cell_setting           triclinic
_symmetry_space_group_name_H-M   'P -1'
_symmetry_Int_Tables_number      2
_space_group_name_Hall           '-P 1'
loop_
_symmetry_equiv_pos_site_id
_symmetry_equiv_pos_as_xyz
1 x,y,z
2 -x,-y,-z
_cell_length_a                   11.8665(13)
_cell_length_b                   15.4683(17)
_cell_length_c                   17.7916(19)
_cell_angle_alpha                114.381(2)
_cell_angle_beta                 102.613(2)
_cell_angle_gamma                96.351(2)
_cell_volume                     2827.7
loop_
_atom_site_label
_atom_site_type_symbol
_atom_site_fract_x
_atom_site_fract_y
_atom_site_fract_z
Ni1 Ni 0.86366(5) 0.82730(4) 0.36139(4)
Ni2 Ni 0.84882(5) 0.84010(4) 0.53722(4)
Ni3 Ni 0.51610(6) 0.52567(5) 0.42347(4)
O1 O 0.7563(3) 0.8625(2) 0.4388(2)
O2 O 0.9387(3) 0.7840(2) 0.4501(2)
O3 O 0.5466(3) 0.4297(2) 0.4723(2)
N1 N 0.7313(4) 0.8253(3) 0.2663(3)
N2 N 0.9392(4) 0.7370(3) 0.2792(3)
N3 N 0.9497(4) 0.8050(3) 0.6211(3)
N4 N 0.7420(4) 0.8979(3) 0.6094(3)
N5 N 0.5313(4) 0.4302(3) 0.3107(3)
N6 N 0.4071(4) 0.5914(3) 0.3714(3)
N7 N 0.7305(4) 0.6995(3) 0.4799(3)
N10 N 1.0366(4) 1.0242(3) 0.4105(3)
C1 C 0.6439(4) 0.8616(3) 0.4219(3)
C2 C 0.5831(4) 0.8818(4) 0.4868(3)
C3 C 0.4640(5) 0.8853(4) 0.4662(4)
H1 H 0.4271 0.9029 0.5110
C4 C 0.3958(5) 0.8645(4) 0.3838(4)
C5 C 0.4542(4) 0.8444(4) 0.3219(4)
H2 H 0.4106 0.8301 0.2650
C6 C 0.5757(5) 0.8442(4) 0.3388(3)
C7 C 0.6255(5) 0.8305(4) 0.2678(3)
H3 H 0.5728 0.8247 0.2166
C8 C 0.7595(5) 0.8205(4) 0.1887(4)
H4 H 0.8152 0.8819 0.2045
H5 H 0.6859 0.8159 0.1469
C9 C 0.8140(5) 0.7353(4) 0.1446(3)
C10 C 0.9393(5) 0.7474(4) 0.2006(3)
H6 H 0.9776 0.6981 0.1659
H7 H 0.9873 0.8126 0.2173
C11 C 0.9893(5) 0.6730(4) 0.2898(3)
H8 H 1.0163 0.6335 0.2433
C12 C 1.0109(4) 0.6519(4) 0.3635(3)
C13 C 1.0631(5) 0.5731(4) 0.3557(4)
H9 H 1.0787 0.5360 0.3028
C14 C 1.0930(4) 0.5467(4) 0.4217(4)
C15 C 1.0718(5) 0.6048(4) 0.4984(4)
H10 H 1.0943 0.5900 0.5456
C16 C 1.0191(4) 0.6842(4) 0.5103(3)
C17 C 0.9865(4) 0.7089(3) 0.4414(3)
C18 C 1.0097(4) 0.7394(4) 0.5969(3)
H11 H 1.0528 0.7252 0.6405
C19 C 0.9628(5) 0.8569(4) 0.7133(3)
H12 H 1.0151 0.9222 0.7369
H13 H 1.0023 0.8212 0.7424
C20 C 0.8447(5) 0.8691(4) 0.7352(3)
C21 C 0.7853(5) 0.9359(4) 0.7028(3)
H14 H 0.7177 0.9496 0.7267
H15 H 0.8430 0.9987 0.7263
C22 C 0.6396(5) 0.9055(4) 0.5762(4)
H16 H 0.5940 0.9300 0.6149
C23 C 0.2641(5) 0.8625(5) 0.3639(4)
H17 H 0.2318 0.8464 0.3029
H18 H 0.2522 0.9267 0.3999
H19 H 0.2234 0.8133 0.3761
C24 C 0.7329(6) 0.6381(5) 0.1215(4)
H20 H 0.6540 0.6326 0.0860
H21 H 0.7264 0.6354 0.1745
H22 H 0.7663 0.5842 0.0892
C25 C 0.8297(6) 0.7382(5) 0.0619(4)
H23 H 0.7522 0.7311 0.0239
H24 H 0.8657 0.6848 0.0321
H25 H 0.8813 0.8006 0.0771
C26 C 1.1510(5) 0.4620(4) 0.4105(4)
H26 H 1.1578 0.4311 0.3518
H27 H 1.1028 0.4144 0.4205
H28 H 1.2302 0.4854 0.4521
C27 C 0.7604(6) 0.7718(4) 0.7011(4)
H29 H 0.6863 0.7821 0.7156
H30 H 0.7966 0.7332 0.7274
H31 H 0.7437 0.7370 0.6384
C28 C 0.8763(6) 0.9214(5) 0.8337(4)
H32 H 0.8039 0.9309 0.8510
H33 H 0.9302 0.9848 0.8556
H34 H 0.9151 0.8818 0.8577
C29 C 0.5915(4) 0.3530(4) 0.4413(3)
C30 C 0.6423(4) 0.3115(4) 0.4953(3)
C31 C 0.6915(5) 0.2316(4) 0.4621(4)
H35 H 0.7295 0.2082 0.5004
C32 C 0.6883(5) 0.1845(4) 0.3771(4)
C33 C 0.6391(5) 0.2252(4) 0.3245(4)
H36 H 0.6359 0.1949 0.2653
C34 C 0.5943(5) 0.3087(4) 0.3555(3)
C35 C 0.5582(5) 0.3477(4) 0.2955(4)
H37 H 0.5536 0.3071 0.2373
C36 C 0.5159(5) 0.4567(4) 0.2392(3)
H38 H 0.5200 0.4002 0.1873
H39 H 0.5830 0.5108 0.2543
C37 C 0.4008(5) 0.4872(4) 0.2166(3)
C38 C 0.4025(6) 0.5860(4) 0.2856(4)
H40 H 0.4721 0.6332 0.2924
H41 H 0.3307 0.6068 0.2654
C39 C 0.6458(5) 0.3469(4) 0.5854(4)
H42 H 0.6942 0.3205 0.6165
C40 C 0.7355(6) 0.0935(4) 0.3430(5)
H43 H 0.7655 0.0768 0.3899
H44 H 0.7999 0.1050 0.3195
H45 H 0.6716 0.0397 0.2973
C41 C 0.2950(6) 0.4104(5) 0.2014(4)
H46 H 0.3001 0.4039 0.2545
H47 H 0.2954 0.3477 0.1552
H48 H 0.2215 0.4300 0.1848
C42 C 0.3940(7) 0.4968(5) 0.1332(4)
H49 H 0.3207 0.5164 0.1160
H50 H 0.3946 0.4340 0.0872
H51 H 0.4624 0.5461 0.1431
C43 C 0.6588(5) 0.6320(4) 0.4598(3)
C46 C 0.9722(4) 0.9517(4) 0.3910(3)
Ni1A Ni 1.13634(5) 1.17270(4) 0.63861(4)
Ni2A Ni 1.15118(5) 1.15990(4) 0.46278(4)
Ni3A Ni 1.48390(6) 1.47433(5) 0.57653(4)
Ni3A_2 Ni 0.48390(6) 0.47433(5) 0.57653(4)
O1A O 1.2437(3) 1.1375(2) 0.5612(2)
O2A O 1.0613(3) 1.2160(2) 0.5499(2)
O3A O 0.4534(3) 0.5703(2) 0.5277(2)
O3_2 O 1.5466(3) 1.4297(2) 0.4723(2)
O3A_2 O 1.4534(3) 1.5703(2) 0.5277(2)
N1A N 1.2687(4) 1.1747(3) 0.7337(3)
N2A N 1.0608(4) 1.2630(3) 0.7208(3)
N3A N 1.0503(4) 1.1950(3) 0.3789(3)
N4A N 1.2580(4) 1.1021(3) 0.3906(3)
N5A N 0.4687(4) 0.5698(3) 0.6893(3)
N5A_2 N 1.4687(4) 1.5698(3) 0.6893(3)
N6A N 0.5929(4) 0.4086(3) 0.6286(3)
N6A_2 N 1.5929(4) 1.4086(3) 0.6286(3)
N7A N 1.2695(4) 1.3005(3) 0.5201(3)
N10A N 0.9634(4) 0.9758(3) 0.5895(3)
C1A C 1.3561(4) 1.1384(3) 0.5781(3)
C2A C 1.4169(4) 1.1182(4) 0.5132(3)
C3A C 1.5360(5) 1.1147(4) 0.5338(4)
H1A H 1.5729 1.0971 0.4890
C4A C 1.6042(5) 1.1355(4) 0.6162(4)
C5A C 1.5458(4) 1.1556(4) 0.6781(4)
H2A H 1.5894 1.1699 0.7350
C6A C 1.4243(5) 1.1558(4) 0.6612(3)
C7A C 1.3745(5) 1.1695(4) 0.7322(3)
H3A H 1.4272 1.1753 0.7834
C8A C 1.2405(5) 1.1795(4) 0.8113(4)
H4A H 1.1848 1.1181 0.7955
H5A H 1.3141 1.1841 0.8531
C9A C 1.1860(5) 1.2647(4) 0.8554(3)
C10A C 1.0607(5) 1.2526(4) 0.7994(3)
H6A H 1.0224 1.3019 0.8341
H7A H 1.0127 1.1874 0.7827
C11A C 1.0107(5) 1.3270(4) 0.7102(3)
H8A H 0.9837 1.3665 0.7567
C12A C 0.9891(4) 1.3481(4) 0.6365(3)
C13A C 0.9369(5) 1.4269(4) 0.6443(4)
H9A H 0.9213 1.4640 0.6972
C14A C 0.9070(4) 1.4533(4) 0.5783(4)
C15A C 0.9282(5) 1.3952(4) 0.5016(4)
H10A H 0.9057 1.4100 0.4544
C16A C 0.9809(4) 1.3158(4) 0.4897(3)
C17A C 1.0135(4) 1.2911(3) 0.5586(3)
C18A C 0.9903(4) 1.2606(4) 0.4031(3)
H11A H 0.9472 1.2748 0.3595
C19A C 1.0372(5) 1.1431(4) 0.2867(3)
H12A H 0.9849 1.0778 0.2631
H13A H 0.9977 1.1788 0.2576
C20A C 1.1553(5) 1.1309(4) 0.2648(3)
C21A C 1.2147(5) 1.0641(4) 0.2972(3)
H14A H 1.2823 1.0504 0.2733
H15A H 1.1570 1.0013 0.2737
C22A C 1.3604(5) 1.0945(4) 0.4238(4)
H16A H 1.4060 1.0700 0.3851
C23A C 1.7359(5) 1.1375(5) 0.6361(4)
H17A H 1.7682 1.1536 0.6971
H18A H 1.7478 1.0733 0.6001
H19A H 1.7766 1.1867 0.6239
C24A C 1.2671(6) 1.3619(5) 0.8785(4)
H20A H 1.3460 1.3674 0.9140
H21A H 1.2736 1.3646 0.8255
H22A H 1.2337 1.4158 0.9108
C25A C 1.1703(6) 1.2618(5) 0.9381(4)
H23A H 1.2478 1.2689 0.9761
H24A H 1.1343 1.3152 0.9679
H25A H 1.1187 1.1994 0.9229
C26A C 0.8490(5) 1.5380(4) 0.5895(4)
H26A H 0.8422 1.5689 0.6482
H27A H 0.8972 1.5856 0.5795
H28A H 0.7698 1.5146 0.5479
C27A C 1.2396(6) 1.2282(4) 0.2989(4)
H29A H 1.3137 1.2179 0.2844
H30A H 1.2034 1.2668 0.2726
H31A H 1.2563 1.2630 0.3616
C28A C 1.1237(6) 1.0786(5) 0.1663(4)
H32A H 1.1961 1.0691 0.1490
H33A H 1.0698 1.0152 0.1444
H34A H 1.0849 1.1182 0.1423
C29A C 0.4085(4) 0.6470(4) 0.5587(3)
C30A C 0.3577(4) 0.6885(4) 0.5047(3)
C31A C 0.3085(5) 0.7684(4) 0.5379(4)
H35A H 0.2705 0.7918 0.4996
C32A C 0.3117(5) 0.8155(4) 0.6229(4)
C33A C 0.3609(5) 0.7748(4) 0.6755(4)
H36A H 0.3641 0.8051 0.7347
C34A C 0.4057(5) 0.6913(4) 0.6445(3)
C35A C 0.4418(5) 0.6523(4) 0.7045(4)
H37A H 0.4464 0.6929 0.7627
C36A C 0.4841(5) 0.5433(4) 0.7608(3)
H38A H 0.4800 0.5998 0.8127
H39A H 0.4170 0.4892 0.7457
C37A C 0.5992(5) 0.5128(4) 0.7834(3)
C38A C 0.5975(6) 0.4140(4) 0.7144(4)
H40A H 0.5279 0.3668 0.7076
H41A H 0.6693 0.3932 0.7346
C39A C 0.3542(5) 0.6531(4) 0.4146(4)
H42A H 0.3058 0.6795 0.3835
C40A C 0.2645(6) 0.9065(4) 0.6570(5)
H43A H 0.2345 0.9232 0.6101
H44A H 0.2001 0.8950 0.6805
H45A H 0.3284 0.9603 0.7027
C41A C 0.7050(6) 0.5896(5) 0.7986(4)
H46A H 0.6999 0.5961 0.7455
H47A H 0.7046 0.6523 0.8448
H48A H 0.7785 0.5700 0.8152
C42A C 0.6060(7) 0.5032(5) 0.8668(4)
H49A H 0.6793 0.4836 0.8840
H50A H 0.6054 0.5660 0.9128
H51A H 0.5376 0.4539 0.8569
C43A C 1.3412(5) 1.3680(4) 0.5402(3)
C46A C 1.0278(4) 1.0483(4) 0.6090(3)
Ni4 Ni 0.0000 0.5000 0.0000
N8 N -0.0124(7) 0.4510(6) 0.0828(5)
N9 N 0.1268(7) 0.6043(6) 0.0848(5)
C44 C -0.0216(8) 0.4227(6) 0.1303(5)
C45 C 0.2001(6) 0.6692(5) 0.1367(5)
N8A N 0.0124(7) 0.5490(6) -0.0828(5)
N9A N -0.1268(7) 0.3957(6) -0.0848(5)
C44A C 0.0216(8) 0.5773(6) -0.1303(5)
C45A C -0.2001(6) 0.3308(5) -0.1367(5)
O4 O -0.0911(10) 0.3129(7) 0.2067(6)
C47 C -0.1801(11) 0.3654(17) 0.2376(12)
O5 O 0.6148(9) 0.3548(8) 0.0079(8)
C48 C 0.5378(11) 0.2666(8) -0.0139(9)
O6 O 0.2273(18) -0.1650(8) 0.1195(7)
C49 C 0.1486(16) -0.1805(11) 0.0331(12)
O7 O 0.488(3) 0.0030(19) 0.1463(14)
C50 C 0.442(2) -0.104(2) 0.1254(12)
O8 O 0.4982(13) 0.1816(8) 0.0809(6)
O9 O 0.735(2) 0.9774(13) 1.0412(13)
O10 O 0.715(2) 0.1430(18) 0.1250(11)
loop_
_geom_bond_atom_site_label_1
_geom_bond_atom_site_label_2
_geom_bond_site_symmetry_1
_geom_bond_site_symmetry_2
Ni1 O1 1_555 1_555
Ni2 O1 1_555 1_555
Ni3 O3 1_555 1_555
Ni4 N8 1_555 1_555
O1 C1 1_555 1_555
O2 Ni1 1_555 1_555
O3 C29 1_555 1_555
N1 Ni1 1_555 1_555
N2 Ni1 1_555 1_555
N3 Ni2 1_555 1_555
N4 Ni2 1_555 1_555
N5 Ni3 1_555 1_555
N6 Ni3 1_555 1_555
N7 Ni2 1_555 1_555
N8 C44 1_555 1_555
N9 Ni4 1_555 1_555
N10 C46 1_555 1_555
C1 C2 1_555 1_555
C2 C3 1_555 1_555
C3 H1 1_555 1_555
C4 C3 1_555 1_555
C5 C4 1_555 1_555
H2 C5 1_555 1_555
C6 C1 1_555 1_555
C7 N1 1_555 1_555
H3 C7 1_555 1_555
C8 N1 1_555 1_555
H4 C8 1_555 1_555
H5 C8 1_555 1_555
C9 C8 1_555 1_555
C10 N2 1_555 1_555
H6 C10 1_555 1_555
H7 C10 1_555 1_555
C11 N2 1_555 1_555
H8 C11 1_555 1_555
C12 C11 1_555 1_555
C13 C12 1_555 1_555
H9 C13 1_555 1_555
C14 C13 1_555 1_555
C15 C14 1_555 1_555
H10 C15 1_555 1_555
C16 C15 1_555 1_555
C17 O2 1_555 1_555
C18 N3 1_555 1_555
H11 C18 1_555 1_555
C19 N3 1_555 1_555
H12 C19 1_555 1_555
H13 C19 1_555 1_555
C20 C19 1_555 1_555
C21 N4 1_555 1_555
H14 C21 1_555 1_555
H15 C21 1_555 1_555
C22 N4 1_555 1_555
H16 C22 1_555 1_555
C23 C4 1_555 1_555
H17 C23 1_555 1_555
H18 C23 1_555 1_555
H19 C23 1_555 1_555
C24 C9 1_555 1_555
H20 C24 1_555 1_555
H21 C24 1_555 1_555
H22 C24 1_555 1_555
C25 C9 1_555 1_555
H23 C25 1_555 1_555
H24 C25 1_555 1_555
H25 C25 1_555 1_555
C26 C14 1_555 1_555
H26 C26 1_555 1_555
H27 C26 1_555 1_555
H28 C26 1_555 1_555
C27 C20 1_555 1_555
H29 C27 1_555 1_555
H30 C27 1_555 1_555
H31 C27 1_555 1_555
C28 C20 1_555 1_555
H32 C28 1_555 1_555
H33 C28 1_555 1_555
H34 C28 1_555 1_555
C29 C30 1_555 1_555
C30 C31 1_555 1_555
C31 H35 1_555 1_555
C32 C31 1_555 1_555
C33 C32 1_555 1_555
H36 C33 1_555 1_555
C34 C29 1_555 1_555
C35 N5 1_555 1_555
H37 C35 1_555 1_555
C36 N5 1_555 1_555
H38 C36 1_555 1_555
H39 C36 1_555 1_555
C37 C36 1_555 1_555
C38 N6 1_555 1_555
H40 C38 1_555 1_555
H41 C38 1_555 1_555
C39 C30 1_555 1_555
H42 C39 1_555 1_555
C40 C32 1_555 1_555
H43 C40 1_555 1_555
H44 C40 1_555 1_555
H45 C40 1_555 1_555
C41 C37 1_555 1_555
H46 C41 1_555 1_555
H47 C41 1_555 1_555
H48 C41 1_555 1_555
C42 C37 1_555 1_555
H49 C42 1_555 1_555
H50 C42 1_555 1_555
H51 C42 1_555 1_555
C43 Ni3 1_555 1_555
C45 N9 1_555 1_555
C46 Ni1 1_555 1_555
O4 C47 1_555 1_555
O5 C48 1_555 1_555
O6 C49 1_555 1_555
O7 C50 1_555 1_555
Ni1A O1A 1_555 1_555
Ni2A N10 1_555 1_555
Ni3A O3_2 1_555 1_555
Ni3A_2 O3 1_555 1_555
O1A Ni2A 1_555 1_555
O2A Ni1A 1_555 1_555
O3A Ni3 1_555 1_555
O3A_2 Ni3A 1_555 1_555
N1A Ni1A 1_555 1_555
N2A Ni1A 1_555 1_555
N3A Ni2A 1_555 1_555
N4A Ni2A 1_555 1_555
N5A Ni3A_2 1_555 1_555
N5A_2 Ni3A 1_555 1_555
N6A C39 1_555 1_555
N6A_2 Ni3A 1_555 1_555
N7A Ni2A 1_555 1_555
N8A Ni4 1_555 1_555
N9A Ni4 1_555 1_555
N10A Ni2 1_555 1_555
C1A O1A 1_555 1_555
C2A C1A 1_555 1_555
C3A C2A 1_555 1_555
H1A C3A 1_555 1_555
C4A C3A 1_555 1_555
C5A C4A 1_555 1_555
H2A C5A 1_555 1_555
C6A C1A 1_555 1_555
C7A N1A 1_555 1_555
H3A C7A 1_555 1_555
C8A N1A 1_555 1_555
H4A C8A 1_555 1_555
H5A C8A 1_555 1_555
C9A C8A 1_555 1_555
C10A N2A 1_555 1_555
H6A C10A 1_555 1_555
H7A C10A 1_555 1_555
C11A N2A 1_555 1_555
H8A C11A 1_555 1_555
C12A C11A 1_555 1_555
C13A C12A 1_555 1_555
H9A C13A 1_555 1_555
C14A C13A 1_555 1_555
C15A C14A 1_555 1_555
H10A C15A 1_555 1_555
C16A C15A 1_555 1_555
C17A O2A 1_555 1_555
C18A N3A 1_555 1_555
H11A C18A 1_555 1_555
C19A N3A 1_555 1_555
H12A C19A 1_555 1_555
H13A C19A 1_555 1_555
C20A C19A 1_555 1_555
C21A N4A 1_555 1_555
H14A C21A 1_555 1_555
H15A C21A 1_555 1_555
C22A N4A 1_555 1_555
H16A C22A 1_555 1_555
C23A C4A 1_555 1_555
H17A C23A 1_555 1_555
H18A C23A 1_555 1_555
H19A C23A 1_555 1_555
C24A C9A 1_555 1_555
H20A C24A 1_555 1_555
H21A C24A 1_555 1_555
H22A C24A 1_555 1_555
C25A C9A 1_555 1_555
H23A C25A 1_555 1_555
H24A C25A 1_555 1_555
H25A C25A 1_555 1_555
C26A C14A 1_555 1_555
H26A C26A 1_555 1_555
H27A C26A 1_555 1_555
H28A C26A 1_555 1_555
C27A C20A 1_555 1_555
H29A C27A 1_555 1_555
H30A C27A 1_555 1_555
H31A C27A 1_555 1_555
C28A C20A 1_555 1_555
H32A C28A 1_555 1_555
H33A C28A 1_555 1_555
H34A C28A 1_555 1_555
C29A O3A 1_555 1_555
C30A C29A 1_555 1_555
C31A C30A 1_555 1_555
H35A C31A 1_555 1_555
C32A C31A 1_555 1_555
C33A C32A 1_555 1_555
H36A C33A 1_555 1_555
C34A C29A 1_555 1_555
C35A N5A 1_555 1_555
H37A C35A 1_555 1_555
C36A N5A 1_555 1_555
H38A C36A 1_555 1_555
H39A C36A 1_555 1_555
C37A C36A 1_555 1_555
C38A N6A 1_555 1_555
H40A C38A 1_555 1_555
H41A C38A 1_555 1_555
C39A N6 1_555 1_555
H42A C39A 1_555 1_555
C40A C32A 1_555 1_555
H43A C40A 1_555 1_555
H44A C40A 1_555 1_555
H45A C40A 1_555 1_555
C41A C37A 1_555 1_555
H46A C41A 1_555 1_555
H47A C41A 1_555 1_555
H48A C41A 1_555 1_555
C42A C37A 1_555 1_555
H49A C42A 1_555 1_555
H50A C42A 1_555 1_555
H51A C42A 1_555 1_555
C43A Ni3A 1_555 1_555
C44A N8A 1_555 1_555
C45A N9A 1_555 1_555
C46A Ni1A 1_555 1_555
Ni2 O2 1_555 1_555
N7 C43 1_555 1_555
C2 C22 1_555 1_555
C5 C6 1_555 1_555
C6 C7 1_555 1_555
C9 C10 1_555 1_555
C12 C17 1_555 1_555
C16 C17 1_555 1_555
C16 C18 1_555 1_555
C20 C21 1_555 1_555
C33 C34 1_555 1_555
C34 C35 1_555 1_555
C37 C38 1_555 1_555
Ni2A O2A 1_555 1_555
Ni3A_2 O3A 1_555 1_555
Ni3A_2 N6A 1_555 1_555
N7A C43A 1_555 1_555
N10A C46A 1_555 1_555
C2A C22A 1_555 1_555
C5A C6A 1_555 1_555
C6A C7A 1_555 1_555
C9A C10A 1_555 1_555
C12A C17A 1_555 1_555
C16A C17A 1_555 1_555
C16A C18A 1_555 1_555
C20A C21A 1_555 1_555
C30A C39A 1_555 1_555
C33A C34A 1_555 1_555
C34A C35A 1_555 1_555
C37A C38A 1_555 1_555

#END
