
#######################################################################
#
#                 Cambridge Crystallographic Data Centre
#                                CCDC 
#
#######################################################################
#
# If this CIF has been generated from an entry in the Cambridge 
# Structural Database, then it will include bibliographic, chemical, 
# crystal, experimental, refinement or atomic coordinate data resulting 
# from the CCDC's data processing and validation procedures.
#
#######################################################################

data_REDSEZ01
_symmetry_cell_setting           monoclinic
_symmetry_space_group_name_H-M   'C 2/m'
_symmetry_Int_Tables_number      12
_space_group_name_Hall           '-C 2y'
loop_
_symmetry_equiv_pos_site_id
_symmetry_equiv_pos_as_xyz
1 x,y,z
2 1/2+x,1/2+y,z
3 -x,y,-z
4 1/2-x,1/2+y,-z
5 -x,-y,-z
6 1/2-x,1/2-y,-z
7 x,-y,z
8 1/2+x,1/2-y,z
_cell_length_a                   16.9151(5)
_cell_length_b                   12.9743(4)
_cell_length_c                   6.8516(2)
_cell_angle_alpha                90
_cell_angle_beta                 110.5831(12)
_cell_angle_gamma                90
_cell_volume                     1407.67
loop_
_atom_site_label
_atom_site_type_symbol
_atom_site_fract_x
_atom_site_fract_y
_atom_site_fract_z
Co1 Co 0.0000 0.0000 0.0000
N1 N 0.07401(11) 0.0000 -0.1914(2)
N2 N 0.14906(13) 0.0000 -0.1408(3)
N3 N 0.22164(13) 0.0000 -0.0966(3)
N4 N 0.07664(8) 0.12453(10) 0.19067(17)
C1 C 0.11076(10) 0.19670(13) 0.1039(2)
H1 H 0.1089 0.1858 -0.0318
C2 C 0.14822(10) 0.28567(13) 0.2025(2)
H2 H 0.1714 0.3323 0.1346
C3 C 0.15121(10) 0.30561(13) 0.4052(2)
C4 C 0.11697(10) 0.23056(13) 0.4955(2)
H3 H 0.1177 0.2396 0.6308
C5 C 0.08171(10) 0.14240(13) 0.3866(2)
H4 H 0.0604 0.0930 0.4532
C6 C 0.19019(10) 0.40281(13) 0.5155(2)
H5 H 0.2479 0.4073 0.5191
H6 H 0.1919 0.3995 0.6584
C7 C 0.14279(15) 0.5000 0.4133(3)
H7 H 0.1354 0.5000 0.2664
H8 H 0.0872 0.5000 0.4246
Co1_2 Co 0.0000 1.0000 0.0000
Co1_3 Co 0.0000 -1.0000 0.0000
N1B N -0.07401(11) 0.0000 0.1914(2)
N2B N -0.14906(13) 0.0000 0.1408(3)
N3B N -0.22164(13) 0.0000 0.0966(3)
N4F N 0.07664(8) 0.87547(10) 0.19067(17)
N4F_2 N 0.07664(8) -0.12453(10) 0.19067(17)
N4_2 N 0.07664(8) -0.87547(10) 0.19067(17)
N4D N -0.07664(8) -0.12453(10) -0.19067(17)
N4B N -0.07664(8) 0.12453(10) -0.19067(17)
C1F C 0.11076(10) 0.80330(13) 0.1039(2)
C1F_2 C 0.11076(10) -0.19670(13) 0.1039(2)
C1_2 C 0.11076(10) -0.80330(13) 0.1039(2)
H1F H 0.1089 0.8142 -0.0318
H1F_2 H 0.1089 -0.1858 -0.0318
H1_2 H 0.1089 -0.8142 -0.0318
C2F C 0.14822(10) 0.71433(13) 0.2025(2)
C2F_2 C 0.14822(10) -0.28567(13) 0.2025(2)
C2_2 C 0.14822(10) -0.71433(13) 0.2025(2)
H2F H 0.1714 0.6677 0.1346
H2F_2 H 0.1714 -0.3323 0.1346
H2_2 H 0.1714 -0.6677 0.1346
C3F C 0.15121(10) 0.69439(13) 0.4052(2)
C3F_2 C 0.15121(10) -0.30561(13) 0.4052(2)
C3_2 C 0.15121(10) -0.69439(13) 0.4052(2)
C4F C 0.11697(10) 0.76944(13) 0.4955(2)
C4F_2 C 0.11697(10) -0.23056(13) 0.4955(2)
C4_2 C 0.11697(10) -0.76944(13) 0.4955(2)
H3F H 0.1177 0.7604 0.6308
H3F_2 H 0.1177 -0.2396 0.6308
H3_2 H 0.1177 -0.7604 0.6308
C5F C 0.08171(10) 0.85760(13) 0.3866(2)
C5F_2 C 0.08171(10) -0.14240(13) 0.3866(2)
C5_2 C 0.08171(10) -0.85760(13) 0.3866(2)
H4F H 0.0604 0.9070 0.4532
H4F_2 H 0.0604 -0.0930 0.4532
H4_2 H 0.0604 -0.9070 0.4532
C6F C 0.19019(10) 0.59719(13) 0.5155(2)
C6F_2 C 0.19019(10) -0.40281(13) 0.5155(2)
C6_2 C 0.19019(10) -0.59719(13) 0.5155(2)
H5F H 0.2479 0.5927 0.5191
H5F_2 H 0.2479 -0.4073 0.5191
H5_2 H 0.2479 -0.5927 0.5191
H6F H 0.1919 0.6005 0.6584
H6F_2 H 0.1919 -0.3995 0.6584
H6_2 H 0.1919 -0.6005 0.6584
C7_2 C 0.14279(15) -0.5000 0.4133(3)
H7_2 H 0.1354 -0.5000 0.2664
H8_2 H 0.0872 -0.5000 0.4246
loop_
_geom_bond_atom_site_label_1
_geom_bond_atom_site_label_2
_geom_bond_site_symmetry_1
_geom_bond_site_symmetry_2
Co1 N1 1_555 1_555
N1 N2 1_555 1_555
N2 N3 1_555 1_555
N4 Co1 1_555 1_555
C1 N4 1_555 1_555
H1 C1 1_555 1_555
C2 C1 1_555 1_555
H2 C2 1_555 1_555
C3 C2 1_555 1_555
C4 C3 1_555 1_555
H3 C4 1_555 1_555
C5 N4 1_555 1_555
H4 C5 1_555 1_555
C6 C3 1_555 1_555
H5 C6 1_555 1_555
H6 C6 1_555 1_555
C7 C6 1_555 1_555
H7 C7 1_555 1_555
H8 C7 1_555 1_555
Co1_2 N4F 1_555 1_555
Co1_3 N4_2 1_555 1_555
N1B Co1 1_555 1_555
N2B N1B 1_555 1_555
N3B N2B 1_555 1_555
N4F C1F 1_555 1_555
N4F_2 Co1 1_555 1_555
N4_2 C1_2 1_555 1_555
N4D Co1 1_555 1_555
N4B Co1 1_555 1_555
C1F H1F 1_555 1_555
C1F_2 N4F_2 1_555 1_555
C1_2 H1_2 1_555 1_555
H1F_2 C1F_2 1_555 1_555
C2F C1F 1_555 1_555
C2F_2 C1F_2 1_555 1_555
C2_2 C1_2 1_555 1_555
H2F C2F 1_555 1_555
H2F_2 C2F_2 1_555 1_555
H2_2 C2_2 1_555 1_555
C3F C2F 1_555 1_555
C3F_2 C2F_2 1_555 1_555
C3_2 C2_2 1_555 1_555
C4F C3F 1_555 1_555
C4F_2 C3F_2 1_555 1_555
C4_2 C3_2 1_555 1_555
H3F C4F 1_555 1_555
H3F_2 C4F_2 1_555 1_555
H3_2 C4_2 1_555 1_555
C5F N4F 1_555 1_555
C5F_2 N4F_2 1_555 1_555
C5_2 N4_2 1_555 1_555
H4F C5F 1_555 1_555
H4F_2 C5F_2 1_555 1_555
H4_2 C5_2 1_555 1_555
C6F C7 1_555 1_555
C6F_2 C3F_2 1_555 1_555
C6_2 C3_2 1_555 1_555
H5F C6F 1_555 1_555
H5F_2 C6F_2 1_555 1_555
H5_2 C6_2 1_555 1_555
H6F C6F 1_555 1_555
H6F_2 C6F_2 1_555 1_555
H6_2 C6_2 1_555 1_555
C7_2 C6F_2 1_555 1_555
H7_2 C7_2 1_555 1_555
H8_2 C7_2 1_555 1_555
C4 C5 1_555 1_555
C3F C6F 1_555 1_555
C4F C5F 1_555 1_555
C4F_2 C5F_2 1_555 1_555
C4_2 C5_2 1_555 1_555
C6_2 C7_2 1_555 1_555

#END
