
#######################################################################
#
#                 Cambridge Crystallographic Data Centre
#                                CCDC 
#
#######################################################################
#
# If this CIF has been generated from an entry in the Cambridge 
# Structural Database, then it will include bibliographic, chemical, 
# crystal, experimental, refinement or atomic coordinate data resulting 
# from the CCDC's data processing and validation procedures.
#
#######################################################################

data_REDSAV
_symmetry_cell_setting           monoclinic
_symmetry_space_group_name_H-M   'C 2/c'
_symmetry_Int_Tables_number      15
_space_group_name_Hall           '-C 2yn'
loop_
_symmetry_equiv_pos_site_id
_symmetry_equiv_pos_as_xyz
1 x,y,z
2 1/2+x,1/2+y,z
3 -x,y,1/2-z
4 1/2-x,1/2+y,1/2-z
5 -x,-y,-z
6 1/2-x,1/2-y,-z
7 x,-y,1/2+z
8 1/2+x,1/2-y,1/2+z
_cell_length_a                   21.1935(6)
_cell_length_b                   5.22770(10)
_cell_length_c                   27.3542(7)
_cell_angle_alpha                90
_cell_angle_beta                 105.5270(10)
_cell_angle_gamma                90
_cell_volume                     2920.06
loop_
_atom_site_label
_atom_site_type_symbol
_atom_site_fract_x
_atom_site_fract_y
_atom_site_fract_z
Cu1 Cu 0.119668(18) 0.92318(7) 0.092059(14)
N1 N 0.12470(12) 0.7869(4) 0.16181(9)
N2 N 0.18483(14) 0.6573(5) 0.08500(10)
N3 N 0.12000(12) 0.9250(5) 0.52333(9)
N4 N 0.19088(12) 0.4570(5) 0.10679(10)
N5 N 0.19774(13) 0.2574(5) 0.12711(10)
N6 N 0.03182(13) 1.0731(5) 0.08604(10)
N7 N 0.00609(13) 1.0665(5) 0.11824(11)
N8 N -0.02212(14) 1.0693(6) 0.14996(12)
C1 C 0.17882(15) 0.7563(6) 0.25033(12)
H1 H 0.2109 0.8186 0.2780
C2 C 0.17070(15) 0.8650(6) 0.20344(12)
H2 H 0.1982 0.9988 0.2002
C3 C 0.08544(16) 0.5963(6) 0.16821(12)
H3 H 0.0527 0.5412 0.1402
C4 C 0.09108(17) 0.4776(6) 0.21426(12)
H4 H 0.0624 0.3465 0.2168
C5 C 0.13937(15) 0.5536(6) 0.25673(12)
C6 C 0.14846(16) 0.4267(6) 0.30737(11)
H5 H 0.1935 0.3698 0.3196
H6 H 0.1206 0.2768 0.3032
C7 C 0.13253(16) 0.6016(6) 0.34695(11)
H7 H 0.0861 0.6400 0.3373
H8 H 0.1563 0.7613 0.3484
C8 C 0.15129(16) 0.4745(6) 0.39922(11)
H9 H 0.1271 0.3157 0.3973
H10 H 0.1975 0.4322 0.4079
C9 C 0.13823(15) 0.6374(5) 0.44104(11)
C10 C 0.17697(16) 0.8462(6) 0.46040(12)
H11 H 0.2101 0.8951 0.4459
C11 C 0.16738(16) 0.9824(6) 0.50075(12)
H12 H 0.1948 1.1203 0.5130
C12 C 0.08089(16) 0.7298(6) 0.50340(12)
H13 H 0.0466 0.6896 0.5173
C13 C 0.08855(15) 0.5842(6) 0.46324(12)
H14 H 0.0600 0.4495 0.4511
Cu1F Cu 0.119668(18) 1.07682(7) 0.592059(14)
Cu1_2 Cu 0.119668(18) -0.07682(7) 0.092059(14)
N3F N 0.12000(12) 1.0750(5) 0.02333(9)
N5_2 N 0.19774(13) 1.2574(5) 0.12711(10)
loop_
_geom_bond_atom_site_label_1
_geom_bond_atom_site_label_2
_geom_bond_site_symmetry_1
_geom_bond_site_symmetry_2
Cu1 N1 1_555 1_555
N1 C2 1_555 1_555
N2 Cu1 1_555 1_555
N3 C11 1_555 1_555
N4 N2 1_555 1_555
N5 N4 1_555 1_555
N6 Cu1 1_555 1_555
N7 N6 1_555 1_555
N8 N7 1_555 1_555
C1 H1 1_555 1_555
C2 C1 1_555 1_555
H2 C2 1_555 1_555
C3 N1 1_555 1_555
H3 C3 1_555 1_555
C4 C3 1_555 1_555
H4 C4 1_555 1_555
C5 C1 1_555 1_555
C6 C5 1_555 1_555
H5 C6 1_555 1_555
H6 C6 1_555 1_555
C7 C6 1_555 1_555
H7 C7 1_555 1_555
H8 C7 1_555 1_555
C8 C7 1_555 1_555
H9 C8 1_555 1_555
H10 C8 1_555 1_555
C9 C8 1_555 1_555
C10 C9 1_555 1_555
H11 C10 1_555 1_555
C11 C10 1_555 1_555
H12 C11 1_555 1_555
C12 N3 1_555 1_555
H13 C12 1_555 1_555
C13 C9 1_555 1_555
H14 C13 1_555 1_555
Cu1F N3 1_555 1_555
Cu1_2 N5 1_555 1_555
N3F Cu1 1_555 1_555
N5_2 Cu1 1_555 1_555
C4 C5 1_555 1_555
C12 C13 1_555 1_555

#END
