
#######################################################################
#
#                 Cambridge Crystallographic Data Centre
#                                CCDC 
#
#######################################################################
#
# If this CIF has been generated from an entry in the Cambridge 
# Structural Database, then it will include bibliographic, chemical, 
# crystal, experimental, refinement or atomic coordinate data resulting 
# from the CCDC's data processing and validation procedures.
#
#######################################################################

data_REDSEY
_symmetry_cell_setting           triclinic
_symmetry_space_group_name_H-M   'P -1'
_symmetry_Int_Tables_number      2
_space_group_name_Hall           '-P 1'
loop_
_symmetry_equiv_pos_site_id
_symmetry_equiv_pos_as_xyz
1 x,y,z
2 -x,-y,-z
_cell_length_a                   7.413(5)
_cell_length_b                   7.458(5)
_cell_length_c                   10.088(6)
_cell_angle_alpha                96.57(4)
_cell_angle_beta                 105.05(5)
_cell_angle_gamma                102.50(4)
_cell_volume                     517.148
loop_
_atom_site_label
_atom_site_type_symbol
_atom_site_fract_x
_atom_site_fract_y
_atom_site_fract_z
Pb1 Pb 0.59857(4) 0.23414(3) 0.30117(3)
C1 C 0.6669(12) 0.3001(11) 0.5285(8)
H1 H 0.5912 0.3841 0.5535
H2 H 0.8050 0.3610 0.5691
H3 H 0.6351 0.1846 0.5649
C2 C 0.6691(14) 0.4780(13) 0.2058(11)
H4 H 0.8037 0.5476 0.2520
H5 H 0.5834 0.5585 0.2162
H6 H 0.6519 0.4375 0.1063
C3 C 0.5234(12) -0.0523(10) 0.1894(9)
H7 H 0.5918 -0.0583 0.1185
H8 H 0.3837 -0.0935 0.1440
H9 H 0.5609 -0.1339 0.2555
N1 N 0.2331(9) 0.2207(9) 0.2531(6)
S1 S 0.1261(3) 0.2683(3) 0.10706(19)
S2 S 0.1101(3) 0.1487(3) 0.35288(18)
O1 O 0.2490(9) 0.2657(9) 0.0204(6)
O2 O -0.0752(8) 0.1782(9) 0.0551(6)
O3 O 0.9661(8) 0.2443(9) 0.3608(6)
O4 O 0.2360(9) 0.1269(9) 0.4780(6)
F1 F 0.1373(8) 0.4794(6) 0.1520(5)
F2 F -0.0045(7) -0.0514(6) 0.2777(5)
O3_2 O -0.0339(8) 0.2443(9) 0.3608(6)
Pb1_2 Pb -0.40143(4) 0.23414(3) 0.30117(3)
loop_
_geom_bond_atom_site_label_1
_geom_bond_atom_site_label_2
_geom_bond_site_symmetry_1
_geom_bond_site_symmetry_2
Pb1 C1 1_555 1_555
C1 H1 1_555 1_555
H2 C1 1_555 1_555
H3 C1 1_555 1_555
C2 Pb1 1_555 1_555
H4 C2 1_555 1_555
H5 C2 1_555 1_555
H6 C2 1_555 1_555
C3 Pb1 1_555 1_555
H7 C3 1_555 1_555
H8 C3 1_555 1_555
H9 C3 1_555 1_555
N1 Pb1 1_555 1_555
S1 N1 1_555 1_555
S2 N1 1_555 1_555
O1 S1 1_555 1_555
O2 S1 1_555 1_555
O3 Pb1 1_555 1_555
O4 S2 1_555 1_555
F1 S1 1_555 1_555
F2 S2 1_555 1_555
O3_2 S2 1_555 1_555
Pb1_2 O3_2 1_555 1_555

#END
