
#######################################################################
#
#                 Cambridge Crystallographic Data Centre
#                                CCDC 
#
#######################################################################
#
# If this CIF has been generated from an entry in the Cambridge 
# Structural Database, then it will include bibliographic, chemical, 
# crystal, experimental, refinement or atomic coordinate data resulting 
# from the CCDC's data processing and validation procedures.
#
#######################################################################

data_REDSEZ
_symmetry_cell_setting           monoclinic
_symmetry_space_group_name_H-M   'P 21/n'
_symmetry_Int_Tables_number      14
_space_group_name_Hall           '-P 2yn'
loop_
_symmetry_equiv_pos_site_id
_symmetry_equiv_pos_as_xyz
1 x,y,z
2 1/2-x,1/2+y,1/2-z
3 -x,-y,-z
4 1/2+x,1/2-y,1/2+z
_cell_length_a                   16.6187(2)
_cell_length_b                   17.7102(3)
_cell_length_c                   20.0197(3)
_cell_angle_alpha                90
_cell_angle_beta                 113.2179(7)
_cell_angle_gamma                90
_cell_volume                     5415.01
loop_
_atom_site_label
_atom_site_type_symbol
_atom_site_fract_x
_atom_site_fract_y
_atom_site_fract_z
Co1 Co 0.06603(3) 0.62174(3) 0.25246(3)
N1 N 0.13555(18) 0.57395(17) 0.18878(16)
N2 N 0.31615(19) 0.18546(17) 0.18530(16)
N3 N -0.00872(18) 0.67234(17) 0.31115(16)
N4 N -0.45527(19) 1.04510(17) 0.30571(17)
N5 N 0.0220(2) 0.70579(19) 0.17437(18)
N6 N -0.0420(2) 0.74256(19) 0.15463(18)
N7 N -0.1037(3) 0.7805(2) 0.1342(2)
N8 N 0.1188(2) 0.5358(2) 0.3293(2)
N9 N 0.0904(2) 0.50303(19) 0.36387(19)
N10 N 0.0632(4) 0.4690(3) 0.3991(3)
C1 C 0.2311(2) 0.4800(2) 0.1772(2)
H1 H 0.2774 0.4470 0.2002
C2 C 0.2013(2) 0.5254(2) 0.2182(2)
H2 H 0.2282 0.5221 0.2686
C3 C 0.1015(2) 0.5797(2) 0.1162(2)
H3 H 0.0576 0.6152 0.0947
C4 C 0.1277(3) 0.5364(2) 0.0722(2)
H4 H 0.1017 0.5428 0.0221
C5 C 0.1931(2) 0.4826(2) 0.1021(2)
C6 C 0.2172(3) 0.4285(2) 0.0551(2)
H5 H 0.2648 0.3964 0.0858
H6 H 0.2377 0.4567 0.0234
C7 C 0.1398(3) 0.3792(2) 0.0092(2)
H7 H 0.0928 0.4116 -0.0217
H8 H 0.1575 0.3475 -0.0221
C8 C 0.1050(2) 0.3291(2) 0.0534(2)
H9 H 0.0850 0.3606 0.0834
H10 H 0.0552 0.3007 0.0207
C9 C 0.1722(2) 0.2757(2) 0.1007(2)
C10 C 0.2057(3) 0.2204(2) 0.0699(2)
H11 H 0.1806 0.2122 0.0200
C11 C 0.2760(3) 0.1776(2) 0.1133(2)
H12 H 0.2969 0.1408 0.0911
C12 C 0.2803(3) 0.2353(2) 0.2152(2)
H13 H 0.3041 0.2402 0.2655
C13 C 0.2094(3) 0.2802(2) 0.1751(2)
H14 H 0.1868 0.3139 0.1989
C14 C -0.0515(2) 0.7828(2) 0.3560(2)
H15 H -0.0466 0.8349 0.3624
C15 C -0.0053(2) 0.7468(2) 0.3218(2)
H16 H 0.0300 0.7755 0.3054
C16 C -0.0611(2) 0.6327(2) 0.33468(19)
H17 H -0.0655 0.5808 0.3271
C17 C -0.1090(2) 0.6658(2) 0.36971(19)
H18 H -0.1440 0.6361 0.3857
C18 C -0.1053(2) 0.7424(2) 0.38108(19)
C19 C -0.1539(3) 0.7804(2) 0.4222(2)
H19 H -0.1115 0.8024 0.4664
H20 H -0.1863 0.7422 0.4361
C20 C -0.2174(2) 0.8417(2) 0.3790(2)
H21 H -0.1876 0.8760 0.3585
H22 H -0.2656 0.8187 0.3390
C21 C -0.2532(3) 0.8859(3) 0.4260(2)
H23 H -0.2778 0.8509 0.4501
H24 H -0.2054 0.9124 0.4633
C22 C -0.3225(3) 0.9423(2) 0.3838(2)
C23 C -0.3033(3) 1.0157(2) 0.3720(2)
H25 H -0.2454 1.0318 0.3893
C24 C -0.3702(2) 1.0655(2) 0.3344(2)
H26 H -0.3559 1.1151 0.3287
C25 C -0.4724(3) 0.9733(2) 0.3165(2)
H27 H -0.5305 0.9576 0.2975
C26 C -0.4097(3) 0.9218(2) 0.3536(2)
H28 H -0.4258 0.8726 0.3586
Co1A Co 0.43397(3) 0.12174(3) 0.24754(3)
Co1A_2 Co -0.56603(3) 1.12174(3) 0.24754(3)
N2A N 0.18385(19) 0.68546(17) 0.31470(16)
N4A N -0.04473(19) 0.54510(17) 0.19429(17)
Co2 Co 0.55554(4) 0.59123(3) 0.26485(3)
N11 N 0.6110(2) 0.64096(18) 0.19349(17)
N12 N 0.8263(2) 1.02582(19) 0.18307(19)
N13 N 0.4943(2) 0.53801(18) 0.33082(18)
N14 N 0.0549(2) 0.16874(17) 0.28891(17)
N15 N 0.6150(2) 0.67492(19) 0.34410(19)
N16 N 0.5867(2) 0.70892(19) 0.3803(2)
N17 N 0.5594(3) 0.7442(2) 0.4159(3)
N18 N 0.4996(3) 0.5070(2) 0.1871(2)
N19 N 0.4577(4) 0.4542(3) 0.1897(4)
N21 N 0.4159(7) 0.4009(4) 0.1868(6)
C27 C 0.7159(3) 0.9421(3) 0.1851(3)
H29 H 0.6926 0.9147 0.2129
C28 C 0.7901(3) 0.9836(2) 0.2191(2)
H30 H 0.8166 0.9823 0.2695
C29 C 0.7849(3) 1.0262(2) 0.1108(2)
H31 H 0.8083 1.0557 0.0844
C30 C 0.7104(3) 0.9861(2) 0.0731(2)
H32 H 0.6837 0.9896 0.0227
C31 C 0.6749(3) 0.9400(2) 0.1107(3)
C32 C 0.5945(3) 0.8919(3) 0.0700(3)
H33 H 0.5805 0.8623 0.1047
H34 H 0.5452 0.9248 0.0447
C33 C 0.6073(3) 0.8393(3) 0.0157(2)
H35 H 0.6206 0.8693 -0.0192
H36 H 0.5525 0.8132 -0.0106
C34 C 0.6785(3) 0.7813(2) 0.0481(2)
H37 H 0.6842 0.7519 0.0093
H38 H 0.7338 0.8069 0.0740
C35 C 0.6596(2) 0.7295(2) 0.0992(2)
C36 C 0.5892(3) 0.6812(2) 0.0736(2)
H39 H 0.5567 0.6772 0.0238
C37 C 0.5668(3) 0.6387(2) 0.1214(2)
H40 H 0.5185 0.6069 0.1025
C38 C 0.6817(2) 0.6848(2) 0.2175(2)
H41 H 0.7156 0.6852 0.2672
C39 C 0.7075(2) 0.7293(2) 0.1736(2)
H42 H 0.7573 0.7593 0.1937
C40 C 0.1988(3) 0.1942(3) 0.3773(2)
H43 H 0.2545 0.1756 0.4047
C41 C 0.1349(3) 0.1467(2) 0.3308(2)
H44 H 0.1492 0.0962 0.3291
C42 C 0.0382(3) 0.2415(2) 0.2929(2)
H45 H -0.0171 0.2592 0.2633
C43 C 0.0968(3) 0.2922(2) 0.3378(3)
H46 H 0.0806 0.3424 0.3379
C44 C 0.1792(3) 0.2693(3) 0.3825(2)
C45 C 0.2453(3) 0.3228(3) 0.4332(2)
H47 H 0.2868 0.2946 0.4737
H48 H 0.2156 0.3584 0.4526
C46 C 0.2942(3) 0.3657(2) 0.3962(2)
H49 H 0.2527 0.3945 0.3562
H50 H 0.3229 0.3300 0.3761
C47 C 0.3627(3) 0.4194(3) 0.4474(2)
H51 H 0.3343 0.4549 0.4679
H52 H 0.4048 0.3907 0.4871
C48 C 0.4106(2) 0.4626(2) 0.4087(2)
C49 C 0.4661(3) 0.4257(2) 0.3834(3)
H53 H 0.4764 0.3743 0.3920
C50 C 0.5059(3) 0.4642(2) 0.3458(3)
H54 H 0.5432 0.4377 0.3297
C51 C 0.4422(2) 0.5733(2) 0.3565(2)
H55 H 0.4336 0.6249 0.3480
C52 C 0.4002(2) 0.5380(2) 0.3949(2)
H56 H 0.3644 0.5660 0.4115
Co2A Co 0.94446(4) 1.09123(3) 0.23515(3)
Co2A_2 Co -0.05554(4) 0.09123(3) 0.23515(3)
N12A N 0.6737(2) 0.52582(19) 0.31693(19)
N14A N 0.4451(2) 0.66874(17) 0.21109(17)
N20? N 0.4704(5) 0.4826(4) 0.1274(3)
N22? N 0.4472(8) 0.4635(6) 0.0673(3)
loop_
_geom_bond_atom_site_label_1
_geom_bond_atom_site_label_2
_geom_bond_site_symmetry_1
_geom_bond_site_symmetry_2
Co1 N1 1_555 1_555
N1 C2 1_555 1_555
N2 C11 1_555 1_555
N3 Co1 1_555 1_555
N4 C24 1_555 1_555
N5 Co1 1_555 1_555
N6 N5 1_555 1_555
N7 N6 1_555 1_555
N8 Co1 1_555 1_555
N9 N8 1_555 1_555
N10 N9 1_555 1_555
C1 H1 1_555 1_555
C2 C1 1_555 1_555
H2 C2 1_555 1_555
C3 N1 1_555 1_555
H3 C3 1_555 1_555
C4 C3 1_555 1_555
H4 C4 1_555 1_555
C5 C1 1_555 1_555
C6 C5 1_555 1_555
H5 C6 1_555 1_555
H6 C6 1_555 1_555
C7 C6 1_555 1_555
H7 C7 1_555 1_555
H8 C7 1_555 1_555
C8 C7 1_555 1_555
H9 C8 1_555 1_555
H10 C8 1_555 1_555
C9 C8 1_555 1_555
C10 C9 1_555 1_555
H11 C10 1_555 1_555
C11 C10 1_555 1_555
H12 C11 1_555 1_555
C12 N2 1_555 1_555
H13 C12 1_555 1_555
C13 C9 1_555 1_555
H14 C13 1_555 1_555
C14 H15 1_555 1_555
C15 N3 1_555 1_555
H16 C15 1_555 1_555
C16 N3 1_555 1_555
H17 C16 1_555 1_555
C17 C16 1_555 1_555
H18 C17 1_555 1_555
C18 C14 1_555 1_555
C19 C18 1_555 1_555
H19 C19 1_555 1_555
H20 C19 1_555 1_555
C20 C19 1_555 1_555
H21 C20 1_555 1_555
H22 C20 1_555 1_555
C21 C20 1_555 1_555
H23 C21 1_555 1_555
H24 C21 1_555 1_555
C22 C21 1_555 1_555
C23 C22 1_555 1_555
H25 C23 1_555 1_555
C24 C23 1_555 1_555
H26 C24 1_555 1_555
C25 N4 1_555 1_555
H27 C25 1_555 1_555
C26 C22 1_555 1_555
H28 C26 1_555 1_555
Co2 N11 1_555 1_555
N11 C37 1_555 1_555
N12 C28 1_555 1_555
N13 Co2 1_555 1_555
N14 C41 1_555 1_555
N15 Co2 1_555 1_555
N16 N15 1_555 1_555
N17 N16 1_555 1_555
N18 Co2 1_555 1_555
N19 N18 1_555 1_555
N21 N19 1_555 1_555
C27 H29 1_555 1_555
C28 C27 1_555 1_555
H30 C28 1_555 1_555
C29 N12 1_555 1_555
H31 C29 1_555 1_555
C30 C29 1_555 1_555
H32 C30 1_555 1_555
C31 C27 1_555 1_555
C32 C31 1_555 1_555
H33 C32 1_555 1_555
H34 C32 1_555 1_555
C33 C32 1_555 1_555
H35 C33 1_555 1_555
H36 C33 1_555 1_555
C34 C33 1_555 1_555
H37 C34 1_555 1_555
H38 C34 1_555 1_555
C35 C34 1_555 1_555
C36 C35 1_555 1_555
H39 C36 1_555 1_555
C37 C36 1_555 1_555
H40 C37 1_555 1_555
C38 N11 1_555 1_555
H41 C38 1_555 1_555
C39 C35 1_555 1_555
H42 C39 1_555 1_555
C40 H43 1_555 1_555
C41 C40 1_555 1_555
H44 C41 1_555 1_555
C42 N14 1_555 1_555
H45 C42 1_555 1_555
C43 C42 1_555 1_555
H46 C43 1_555 1_555
C44 C40 1_555 1_555
C45 C44 1_555 1_555
H47 C45 1_555 1_555
H48 C45 1_555 1_555
C46 C45 1_555 1_555
H49 C46 1_555 1_555
H50 C46 1_555 1_555
C47 C46 1_555 1_555
H51 C47 1_555 1_555
H52 C47 1_555 1_555
C48 C47 1_555 1_555
C49 C48 1_555 1_555
H53 C49 1_555 1_555
C50 N13 1_555 1_555
H54 C50 1_555 1_555
C51 N13 1_555 1_555
H55 C51 1_555 1_555
C52 C48 1_555 1_555
H56 C52 1_555 1_555
Co1A N2 1_555 1_555
Co1A_2 N4 1_555 1_555
N2A Co1 1_555 1_555
N4A Co1 1_555 1_555
Co2A N12 1_555 1_555
Co2A_2 N14 1_555 1_555
N12A Co2 1_555 1_555
N14A Co2 1_555 1_555
C4 C5 1_555 1_555
C12 C13 1_555 1_555
C14 C15 1_555 1_555
C17 C18 1_555 1_555
C25 C26 1_555 1_555
C30 C31 1_555 1_555
C38 C39 1_555 1_555
C43 C44 1_555 1_555
C49 C50 1_555 1_555
C51 C52 1_555 1_555

#END
