
#######################################################################
#
#                 Cambridge Crystallographic Data Centre
#                                CCDC 
#
#######################################################################
#
# If this CIF has been generated from an entry in the Cambridge 
# Structural Database, then it will include bibliographic, chemical, 
# crystal, experimental, refinement or atomic coordinate data resulting 
# from the CCDC's data processing and validation procedures.
#
#######################################################################

data_REDVEC
_symmetry_cell_setting           monoclinic
_symmetry_space_group_name_H-M   'P 21/n'
_symmetry_Int_Tables_number      14
_space_group_name_Hall           '-P 2yn'
loop_
_symmetry_equiv_pos_site_id
_symmetry_equiv_pos_as_xyz
1 x,y,z
2 1/2-x,1/2+y,1/2-z
3 -x,-y,-z
4 1/2+x,1/2-y,1/2+z
_cell_length_a                   12.4970(4)
_cell_length_b                   11.6750(4)
_cell_length_c                   15.5740(4)
_cell_angle_alpha                90
_cell_angle_beta                 102.449(2)
_cell_angle_gamma                90
_cell_volume                     2218.86
loop_
_atom_site_label
_atom_site_type_symbol
_atom_site_fract_x
_atom_site_fract_y
_atom_site_fract_z
Ge1 Ge 1.030025(12) 0.337442(13) 0.210740(10)
Na1 Na 0.66439(6) 0.38051(8) 0.26910(5)
C1 C 1.16394(13) 0.30293(17) 0.30139(13)
H1 H 1.2391 0.3216 0.2726
H2 H 1.1700 0.2109 0.3075
C2 C 1.1775(2) 0.3633(3) 0.38882(15)
H3 H 1.2441 0.3416 0.4259
H4 H 1.1151 0.3540 0.4225
H5 H 1.1805 0.4593 0.3803
C3 C 1.07672(16) 0.28770(17) 0.10244(12)
H6 H 1.1504 0.3217 0.1043
H7 H 1.0922 0.1991 0.1051
C4 C 0.9979(2) 0.3140(2) 0.01643(13)
H8 H 1.0244 0.2953 -0.0418
H9 H 0.9276 0.2758 0.0109
H10 H 0.9848 0.3884 0.0145
C5 C 1.02811(13) 0.50757(17) 0.20300(13)
H11 H 1.0085 0.5397 0.2535
H12 H 0.9671 0.5320 0.1561
C6 C 1.13735(17) 0.5586(2) 0.19273(18)
H13 H 1.1937 0.5354 0.2404
H14 H 1.1335 0.6388 0.1879
H15 H 1.1668 0.5199 0.1311
C7 C 0.77647(12) 0.27297(12) 0.15892(9)
C8 C 0.75649(14) 0.37155(16) 0.10716(11)
H16 H 0.8249 0.4321 0.1090
C9 C 0.65370(16) 0.39543(17) 0.05293(13)
H17 H 0.6512 0.4633 0.0211
C10 C 0.56694(16) 0.32208(18) 0.05006(13)
H18 H 0.4944 0.3384 0.0112
C11 C 0.58294(14) 0.22316(17) 0.10099(12)
H19 H 0.5254 0.1743 0.1017
C12 C 0.68530(13) 0.19941(16) 0.15334(11)
H20 H 0.6969 0.1278 0.1870
C13 C 0.86341(11) 0.26978(13) 0.32643(9)
C14 C 0.80608(13) 0.19025(16) 0.36807(11)
H21 H 0.7959 0.1113 0.3425
C15 C 0.76955(15) 0.21558(18) 0.44388(12)
H22 H 0.7223 0.1569 0.4673
C16 C 0.78936(17) 0.32249(18) 0.48336(13)
H23 H 0.7653 0.3452 0.5390
C17 C 0.84523(15) 0.40360(17) 0.44475(11)
H24 H 0.8693 0.4817 0.4742
C18 C 0.88223(14) 0.37697(15) 0.36871(10)
H25 H 0.9252 0.4382 0.3394
C19 C 0.93217(11) 0.11399(12) 0.21868(10)
C20 C 0.91478(13) 0.06092(14) 0.13517(10)
H26 H 0.8698 0.1031 0.0825
C21 C 0.96640(15) -0.04017(16) 0.12014(13)
H27 H 0.9518 -0.0741 0.0625
C22 C 1.03719(14) -0.09495(17) 0.18926(16)
H28 H 1.0750 -0.1709 0.1822
C23 C 1.05280(14) -0.04823(16) 0.27314(14)
H29 H 1.1024 -0.0851 0.3258
C24 C 1.00109(13) 0.05367(15) 0.28743(11)
H30 H 1.0201 0.0936 0.3512
B1 B 0.89027(12) 0.24356(14) 0.23002(10)
Na1A Na 0.83561(6) -0.11949(8) 0.23090(5)
C19A C 0.56783(11) 0.61399(12) 0.28132(10)
C20A C 0.58522(13) 0.56092(14) 0.36483(10)
H26A H 0.6302 0.6031 0.4175
C21A C 0.53360(15) 0.45983(16) 0.37986(13)
H27A H 0.5482 0.4259 0.4375
C22A C 0.46281(14) 0.40505(17) 0.31074(16)
H28A H 0.4250 0.3291 0.3178
C23A C 0.44720(14) 0.45177(16) 0.22686(14)
H29A H 0.3976 0.4149 0.1742
C24A C 0.49891(13) 0.55367(15) 0.21257(11)
H30A H 0.4799 0.5936 0.1488
loop_
_geom_bond_atom_site_label_1
_geom_bond_atom_site_label_2
_geom_bond_site_symmetry_1
_geom_bond_site_symmetry_2
Ge1 C1 1_555 1_555
Na1 C7 1_555 1_555
C1 H1 1_555 1_555
H2 C1 1_555 1_555
C2 C1 1_555 1_555
H3 C2 1_555 1_555
H4 C2 1_555 1_555
H5 C2 1_555 1_555
C3 Ge1 1_555 1_555
H6 C3 1_555 1_555
H7 C3 1_555 1_555
C4 C3 1_555 1_555
H8 C4 1_555 1_555
H9 C4 1_555 1_555
H10 C4 1_555 1_555
C5 Ge1 1_555 1_555
H11 C5 1_555 1_555
H12 C5 1_555 1_555
C6 C5 1_555 1_555
H13 C6 1_555 1_555
H14 C6 1_555 1_555
H15 C6 1_555 1_555
C7 C8 1_555 1_555
C8 Na1 1_555 1_555
H16 C8 1_555 1_555
C9 C8 1_555 1_555
H17 C9 1_555 1_555
C10 C9 1_555 1_555
H18 C10 1_555 1_555
C11 C10 1_555 1_555
H19 C11 1_555 1_555
C12 Na1 1_555 1_555
H20 C12 1_555 1_555
C13 Na1 1_555 1_555
C14 Na1 1_555 1_555
H21 C14 1_555 1_555
C15 C14 1_555 1_555
H22 C15 1_555 1_555
C16 C15 1_555 1_555
H23 C16 1_555 1_555
C17 C16 1_555 1_555
H24 C17 1_555 1_555
C18 Na1 1_555 1_555
H25 C18 1_555 1_555
C19 C20 1_555 1_555
C20 H26 1_555 1_555
C21 C20 1_555 1_555
H27 C21 1_555 1_555
C22 C21 1_555 1_555
H28 C22 1_555 1_555
C23 C22 1_555 1_555
H29 C23 1_555 1_555
C24 C19 1_555 1_555
H30 C24 1_555 1_555
B1 Ge1 1_555 1_555
Na1A C19 1_555 1_555
C19A Na1 1_555 1_555
C20A Na1 1_555 1_555
H26A C20A 1_555 1_555
C21A Na1 1_555 1_555
H27A C21A 1_555 1_555
C22A Na1 1_555 1_555
H28A C22A 1_555 1_555
C23A Na1 1_555 1_555
H29A C23A 1_555 1_555
C24A Na1 1_555 1_555
H30A C24A 1_555 1_555
C7 C12 1_555 1_555
C7 B1 1_555 1_555
C11 C12 1_555 1_555
C13 C14 1_555 1_555
C13 C18 1_555 1_555
C13 B1 1_555 1_555
C17 C18 1_555 1_555
C19 B1 1_555 1_555
C20 Na1A 1_555 1_555
C21 Na1A 1_555 1_555
C22 Na1A 1_555 1_555
C23 C24 1_555 1_555
C23 Na1A 1_555 1_555
C24 Na1A 1_555 1_555
C19A C20A 1_555 1_555
C19A C24A 1_555 1_555
C20A C21A 1_555 1_555
C21A C22A 1_555 1_555
C22A C23A 1_555 1_555
C23A C24A 1_555 1_555

#END
