
#######################################################################
#
#                 Cambridge Crystallographic Data Centre
#                                CCDC 
#
#######################################################################
#
# If this CIF has been generated from an entry in the Cambridge 
# Structural Database, then it will include bibliographic, chemical, 
# crystal, experimental, refinement or atomic coordinate data resulting 
# from the CCDC's data processing and validation procedures.
#
#######################################################################

data_REDWII
_symmetry_cell_setting           monoclinic
_symmetry_space_group_name_H-M   'P 21'
_symmetry_Int_Tables_number      4
_space_group_name_Hall           'P 2yb'
loop_
_symmetry_equiv_pos_site_id
_symmetry_equiv_pos_as_xyz
1 x,y,z
2 -x,1/2+y,-z
_cell_length_a                   9.7770(17)
_cell_length_b                   5.2706(6)
_cell_length_c                   11.0568(15)
_cell_angle_alpha                90
_cell_angle_beta                 104.956(18)
_cell_angle_gamma                90
_cell_volume                     550.463
loop_
_atom_site_label
_atom_site_type_symbol
_atom_site_fract_x
_atom_site_fract_y
_atom_site_fract_z
Cu1 Cu 0.32556(18) 0.7296(3) 0.33214(15)
S1 S 0.6731(4) 0.6882(7) 0.2158(3)
N1 N 0.4966(12) 0.9313(19) 0.3243(11)
H1 H 0.5074 1.0652 0.3779
C1 C 0.4666(17) 1.026(3) 0.1897(15)
H2 H 0.5235 1.1765 0.1834
C2 C 0.0779(17) 0.452(3) 0.2350(14)
H3 H 0.0838 0.5235 0.1596
N2 N -0.0216(13) 0.288(2) 0.2328(10)
C3 C 0.6243(13) 0.768(3) 0.3571(12)
H4 H 0.7021 0.8616 0.4131
C4 C 0.5056(17) 0.808(2) 0.1203(13)
H5 H 0.5154 0.8616 0.0391
H6 H 0.4334 0.6769 0.1079
O1 O 0.4635(11) 0.4590(17) 0.4062(9)
O2 O 0.2273(11) 0.9523(17) 0.1968(9)
O3 O 0.1683(11) 0.5199(17) 0.3352(10)
O4 O 0.2693(10) 1.251(2) 0.0676(9)
C5 C -0.1123(15) 0.199(3) 0.1124(12)
H7 H -0.1099 0.3199 0.0481
H8 H -0.2078 0.1809 0.1191
H9 H -0.0784 0.0381 0.0917
C6 C 0.5924(15) 0.525(3) 0.4239(13)
C7 C 0.3083(17) 1.085(3) 0.1477(14)
C8 C -0.0321(18) 0.154(3) 0.3476(15)
H10 H 0.0554 0.1709 0.4109
H11 H -0.0509 -0.0230 0.3291
H12 H -0.1077 0.2254 0.3773
O5 O 0.6962(12) 0.4023(19) 0.4850(10)
Cu1A Cu 0.67444(18) 0.2296(3) 0.66786(15)
O5A O 0.3038(12) 0.9023(19) 0.5150(10)
loop_
_geom_bond_atom_site_label_1
_geom_bond_atom_site_label_2
_geom_bond_site_symmetry_1
_geom_bond_site_symmetry_2
Cu1 N1 1_555 1_555
S1 C3 1_555 1_555
N1 H1 1_555 1_555
C1 N1 1_555 1_555
H2 C1 1_555 1_555
C2 H3 1_555 1_555
N2 C2 1_555 1_555
C3 N1 1_555 1_555
H4 C3 1_555 1_555
C4 S1 1_555 1_555
H5 C4 1_555 1_555
H6 C4 1_555 1_555
O1 Cu1 1_555 1_555
O2 Cu1 1_555 1_555
O3 Cu1 1_555 1_555
O4 C7 1_555 1_555
C5 N2 1_555 1_555
H7 C5 1_555 1_555
H8 C5 1_555 1_555
H9 C5 1_555 1_555
C6 C3 1_555 1_555
C7 C1 1_555 1_555
C8 N2 1_555 1_555
H10 C8 1_555 1_555
H11 C8 1_555 1_555
H12 C8 1_555 1_555
O5 C6 1_555 1_555
Cu1A O5 1_555 1_555
O5A Cu1 1_555 1_555
C1 C4 1_555 1_555
C2 O3 1_555 1_555
O1 C6 1_555 1_555
O2 C7 1_555 1_555

#END
