
#######################################################################
#
#                 Cambridge Crystallographic Data Centre
#                                CCDC 
#
#######################################################################
#
# If this CIF has been generated from an entry in the Cambridge 
# Structural Database, then it will include bibliographic, chemical, 
# crystal, experimental, refinement or atomic coordinate data resulting 
# from the CCDC's data processing and validation procedures.
#
#######################################################################

data_REDWEE
_symmetry_cell_setting           orthorhombic
_symmetry_space_group_name_H-M   'P 21 21 21'
_symmetry_Int_Tables_number      19
_space_group_name_Hall           'P 2ac 2ab'
loop_
_symmetry_equiv_pos_site_id
_symmetry_equiv_pos_as_xyz
1 x,y,z
2 1/2-x,-y,1/2+z
3 -x,1/2+y,1/2-z
4 1/2+x,1/2-y,-z
_cell_length_a                   9.9835(6)
_cell_length_b                   10.6754(8)
_cell_length_c                   11.0174(7)
_cell_angle_alpha                90
_cell_angle_beta                 90
_cell_angle_gamma                90
_cell_volume                     1174.21
loop_
_atom_site_label
_atom_site_type_symbol
_atom_site_fract_x
_atom_site_fract_y
_atom_site_fract_z
O1 O 0.6079(3) 0.8393(3) 0.9502(4)
C1 C 0.7356(5) 0.8413(4) 0.9523(5)
Cu1 Cu 1.02333(6) 0.79096(6) 0.95337(5)
S1 S 0.76697(16) 0.87632(15) 0.65961(13)
O2 O 1.0649(4) 0.9265(3) 1.0697(3)
N1 N 0.9380(4) 0.9191(4) 0.8434(3)
H1 H 0.9826 0.9880 0.8374
O3 O 1.0247(4) 0.6843(3) 0.8109(3)
O4 O 0.8073(3) 0.7668(3) 1.0057(3)
C2 C 0.9830(6) 0.7324(5) 0.7135(5)
O5 O 0.9803(5) 0.6795(4) 0.6157(3)
C3 C 0.7229(5) 0.9906(6) 0.7705(5)
H2 H 0.7494 1.0738 0.7444
H3 H 0.6271 0.9901 0.7855
C4 C 0.9373(5) 0.8692(5) 0.7169(4)
H4 H 0.9961 0.9202 0.6656
C5 C 0.7996(5) 0.9513(5) 0.8828(5)
H5 H 0.8048 1.0234 0.9377
C6 C 1.1029(6) 0.9134(6) 1.1742(5)
H6 H 1.1057 0.8325 1.2053
N2 N 1.1403(5) 1.0058(6) 1.2463(5)
C7 C 1.1404(8) 1.1347(6) 1.2021(6)
H7 H 1.2304 1.1596 1.1833
H8 H 1.1046 1.1889 1.2636
H9 H 1.0862 1.1403 1.1304
C8 C 1.1740(8) 0.9836(7) 1.3739(7)
H10 H 1.1677 0.8956 1.3912
H11 H 1.1128 1.0288 1.4248
H12 H 1.2637 1.0118 1.3893
O1C O 1.1079(3) 0.6607(3) 1.0498(4)
Cu1C Cu 0.52333(6) 0.70904(6) 1.04663(5)
loop_
_geom_bond_atom_site_label_1
_geom_bond_atom_site_label_2
_geom_bond_site_symmetry_1
_geom_bond_site_symmetry_2
O1 C1 1_555 1_555
C1 O4 1_555 1_555
Cu1 O2 1_555 1_555
S1 C3 1_555 1_555
O2 C6 1_555 1_555
N1 Cu1 1_555 1_555
H1 N1 1_555 1_555
O3 Cu1 1_555 1_555
O4 Cu1 1_555 1_555
C2 O3 1_555 1_555
O5 C2 1_555 1_555
C3 H2 1_555 1_555
H3 C3 1_555 1_555
C4 S1 1_555 1_555
H4 C4 1_555 1_555
C5 C1 1_555 1_555
H5 C5 1_555 1_555
C6 H6 1_555 1_555
N2 C6 1_555 1_555
C7 N2 1_555 1_555
H7 C7 1_555 1_555
H8 C7 1_555 1_555
H9 C7 1_555 1_555
C8 N2 1_555 1_555
H10 C8 1_555 1_555
H11 C8 1_555 1_555
H12 C8 1_555 1_555
O1C Cu1 1_555 1_555
Cu1C O1 1_555 1_555
N1 C4 1_555 1_555
N1 C5 1_555 1_555
C2 C4 1_555 1_555
C3 C5 1_555 1_555

#END
