
#######################################################################
#
#                 Cambridge Crystallographic Data Centre
#                                CCDC 
#
#######################################################################
#
# If this CIF has been generated from an entry in the Cambridge 
# Structural Database, then it will include bibliographic, chemical, 
# crystal, experimental, refinement or atomic coordinate data resulting 
# from the CCDC's data processing and validation procedures.
#
#######################################################################

data_REDXUV
_symmetry_cell_setting           monoclinic
_symmetry_space_group_name_H-M   'P 21/c'
_symmetry_Int_Tables_number      14
_space_group_name_Hall           '-P 2ybc'
loop_
_symmetry_equiv_pos_site_id
_symmetry_equiv_pos_as_xyz
1 x,y,z
2 -x,1/2+y,1/2-z
3 -x,-y,-z
4 x,1/2-y,1/2+z
_cell_length_a                   11.3117(11)
_cell_length_b                   21.186(2)
_cell_length_c                   19.7165(19)
_cell_angle_alpha                90
_cell_angle_beta                 104.2000(10)
_cell_angle_gamma                90
_cell_volume                     4580.68
loop_
_atom_site_label
_atom_site_type_symbol
_atom_site_fract_x
_atom_site_fract_y
_atom_site_fract_z
W1 W 0.044558(17) 0.265768(8) 0.024475(10)
Sm1 Sm 0.28163(2) 0.163424(10) -0.181349(12)
O1 O 0.2418(4) 0.27668(16) -0.19581(19)
O2 O 0.4492(3) 0.21844(16) -0.1032(2)
O3 O 0.4363(3) 0.18342(18) -0.24354(19)
O4 O 0.0656(3) 0.15477(19) -0.2106(2)
O5 O 0.2563(3) 0.06814(16) -0.25076(18)
N1 N 0.2114(4) 0.20365(18) -0.0748(2)
N2 N -0.1295(4) 0.1564(2) -0.0712(2)
N3 N -0.0649(5) 0.3235(2) -0.1349(3)
N4 N -0.1505(5) 0.2219(2) 0.1173(3)
N5 N -0.1050(5) 0.3956(2) 0.0482(3)
N6 N 0.1835(4) 0.19267(19) -0.3135(2)
N7 N 0.2424(5) 0.3786(2) 0.0118(3)
N8 N 0.1703(5) 0.1351(2) 0.1019(3)
N9 N 0.2272(4) 0.06650(18) -0.1084(2)
N10 N 0.4555(4) 0.08258(17) -0.1279(2)
N11 N 0.1513(5) 0.3710(2) -0.2298(3)
N12 N 0.5510(4) 0.3073(2) -0.0618(2)
N13 N 0.4668(4) 0.2426(2) -0.3333(2)
N14 N -0.1372(4) 0.1533(3) -0.2517(3)
N15 N 0.1900(6) -0.0085(2) -0.3310(3)
C1 C 0.1571(4) 0.2257(2) -0.0390(2)
C2 C -0.0713(4) 0.1938(2) -0.0374(3)
C3 C -0.0282(5) 0.3046(2) -0.0799(3)
C4 C -0.0833(5) 0.2374(2) 0.0851(3)
C5 C -0.0532(5) 0.3509(2) 0.0399(3)
C6 C 0.1356(4) 0.2075(2) -0.3699(3)
C7 C 0.1748(5) 0.3395(2) 0.0167(3)
C8 C 0.1263(5) 0.1798(2) 0.0752(3)
C9 C 0.1178(5) 0.0589(2) -0.0961(3)
H4 H 0.0650 0.0933 -0.1030
C10 C 0.0774(5) 0.0020(3) -0.0733(3)
H5 H -0.0005 -0.0013 -0.0660
C11 C 0.1544(6) -0.0486(3) -0.0621(3)
H6 H 0.1285 -0.0871 -0.0482
C12 C 0.2723(5) -0.0424(2) -0.0715(3)
C13 C 0.3616(6) -0.0921(2) -0.0559(3)
H7 H 0.3399 -0.1310 -0.0407
C14 C 0.4758(6) -0.0834(2) -0.0627(3)
H8 H 0.5322 -0.1160 -0.0510
C15 C 0.5129(5) -0.0241(2) -0.0879(3)
C16 C 0.6310(5) -0.0135(2) -0.0957(3)
H9 H 0.6889 -0.0455 -0.0863
C17 C 0.6600(5) 0.0441(3) -0.1172(3)
H10 H 0.7384 0.0522 -0.1218
C18 C 0.5697(4) 0.0912(2) -0.1324(3)
H11 H 0.5911 0.1306 -0.1464
C19 C 0.4266(5) 0.0253(2) -0.1047(2)
C20 C 0.3057(5) 0.0168(2) -0.0953(2)
C21 C 0.1542(6) 0.3095(2) -0.2276(3)
H12 H 0.0848 0.2882 -0.2520
C22 C 0.0451(7) 0.4052(3) -0.2677(4)
H13 H -0.0177 0.3758 -0.2888
H14 H 0.0663 0.4303 -0.3035
H15 H 0.0162 0.4321 -0.2361
C23 C 0.2583(10) 0.4066(4) -0.1984(7)
H16 H 0.2482 0.4261 -0.1562
H17 H 0.2709 0.4385 -0.2303
H18 H 0.3276 0.3789 -0.1874
C24 C 0.4524(5) 0.2723(2) -0.0782(3)
H19 H 0.3806 0.2889 -0.0706
C25 C 0.5508(6) 0.3698(3) -0.0297(4)
H20 H 0.4706 0.3790 -0.0241
H21 H 0.5736 0.4012 -0.0593
H22 H 0.6080 0.3703 0.0152
C26 C 0.6646(6) 0.2847(3) -0.0742(5)
H23 H 0.7240 0.2805 -0.0303
H24 H 0.6935 0.3143 -0.1033
H25 H 0.6516 0.2444 -0.0970
C27 C 0.4451(5) 0.1887(3) -0.3049(3)
H26 H 0.4359 0.1526 -0.3324
C28 C 0.4757(8) 0.3020(3) -0.2950(4)
H27 H 0.4819 0.2935 -0.2465
H28 H 0.4043 0.3270 -0.3136
H29 H 0.5468 0.3247 -0.2998
C29 C 0.4780(7) 0.2443(4) -0.4050(3)
H30 H 0.4662 0.2027 -0.4247
H31 H 0.5578 0.2592 -0.4060
H32 H 0.4175 0.2722 -0.4320
C30 C -0.0312(6) 0.1797(3) -0.2190(3)
H33 H -0.0332 0.2204 -0.2016
C31 C -0.1418(13) 0.0911(7) -0.2770(7)
H34 H -0.0604 0.0753 -0.2712
H35 H -0.1831 0.0906 -0.3258
H36 H -0.1851 0.0649 -0.2515
C32 C -0.2458(8) 0.1906(7) -0.2559(7)
H37 H -0.2921 0.1728 -0.2258
H38 H -0.2944 0.1907 -0.3032
H39 H -0.2231 0.2331 -0.2415
C33 C 0.1943(5) 0.0496(2) -0.3073(3)
H40 H 0.1461 0.0794 -0.3360
C34 C 0.1195(11) -0.0257(3) -0.4001(4)
H41 H 0.0760 0.0106 -0.4225
H42 H 0.0626 -0.0583 -0.3963
H43 H 0.1733 -0.0408 -0.4274
C35 C 0.2610(8) -0.0576(3) -0.2882(4)
H44 H 0.3371 -0.0627 -0.3009
H45 H 0.2164 -0.0966 -0.2957
H46 H 0.2764 -0.0460 -0.2398
W1C W 0.044558(17) 0.234232(8) -0.475525(10)
C6C C 0.1356(4) 0.2925(2) 0.1301(3)
O6 O -0.2861(5) 0.4961(2) 0.0494(3)
H1 H -0.2536 0.5322 0.0593
H2 H -0.2249 0.4717 0.0552
O7 O -0.4298(8) 0.4413(4) 0.1321(5)
H3 H -0.3963 0.4592 0.1050
C36 C -0.5141(10) 0.4764(5) 0.1440(9)
H47 H -0.5524 0.4557 0.1762
H48 H -0.5736 0.4843 0.1009
H49 H -0.4797 0.5157 0.1636
loop_
_geom_bond_atom_site_label_1
_geom_bond_atom_site_label_2
_geom_bond_site_symmetry_1
_geom_bond_site_symmetry_2
W1 C1 1_555 1_555
Sm1 O1 1_555 1_555
O1 C21 1_555 1_555
O2 Sm1 1_555 1_555
O3 Sm1 1_555 1_555
O4 Sm1 1_555 1_555
O5 Sm1 1_555 1_555
O6 H1 1_555 1_555
H2 O6 1_555 1_555
O7 H3 1_555 1_555
N1 Sm1 1_555 1_555
N2 C2 1_555 1_555
N3 C3 1_555 1_555
N4 C4 1_555 1_555
N5 C5 1_555 1_555
N6 Sm1 1_555 1_555
N7 C7 1_555 1_555
N8 C8 1_555 1_555
N9 Sm1 1_555 1_555
N10 Sm1 1_555 1_555
N11 C21 1_555 1_555
N12 C24 1_555 1_555
N13 C27 1_555 1_555
N14 C30 1_555 1_555
N15 C33 1_555 1_555
C1 N1 1_555 1_555
C2 W1 1_555 1_555
C3 W1 1_555 1_555
C4 W1 1_555 1_555
C5 W1 1_555 1_555
C6 N6 1_555 1_555
C7 W1 1_555 1_555
C8 W1 1_555 1_555
C9 N9 1_555 1_555
H4 C9 1_555 1_555
C10 C9 1_555 1_555
H5 C10 1_555 1_555
C11 C10 1_555 1_555
H6 C11 1_555 1_555
C12 C11 1_555 1_555
C13 C12 1_555 1_555
H7 C13 1_555 1_555
C14 C13 1_555 1_555
H8 C14 1_555 1_555
C15 C14 1_555 1_555
C16 C15 1_555 1_555
H9 C16 1_555 1_555
C17 C16 1_555 1_555
H10 C17 1_555 1_555
C18 N10 1_555 1_555
H11 C18 1_555 1_555
C19 N10 1_555 1_555
C20 N9 1_555 1_555
C21 H12 1_555 1_555
C22 N11 1_555 1_555
H13 C22 1_555 1_555
H14 C22 1_555 1_555
H15 C22 1_555 1_555
C23 N11 1_555 1_555
H16 C23 1_555 1_555
H17 C23 1_555 1_555
H18 C23 1_555 1_555
C24 O2 1_555 1_555
H19 C24 1_555 1_555
C25 N12 1_555 1_555
H20 C25 1_555 1_555
H21 C25 1_555 1_555
H22 C25 1_555 1_555
C26 N12 1_555 1_555
H23 C26 1_555 1_555
H24 C26 1_555 1_555
H25 C26 1_555 1_555
C27 O3 1_555 1_555
H26 C27 1_555 1_555
C28 N13 1_555 1_555
H27 C28 1_555 1_555
H28 C28 1_555 1_555
H29 C28 1_555 1_555
C29 N13 1_555 1_555
H30 C29 1_555 1_555
H31 C29 1_555 1_555
H32 C29 1_555 1_555
C30 O4 1_555 1_555
H33 C30 1_555 1_555
C31 N14 1_555 1_555
H34 C31 1_555 1_555
H35 C31 1_555 1_555
H36 C31 1_555 1_555
C32 N14 1_555 1_555
H37 C32 1_555 1_555
H38 C32 1_555 1_555
H39 C32 1_555 1_555
C33 O5 1_555 1_555
H40 C33 1_555 1_555
C34 N15 1_555 1_555
H41 C34 1_555 1_555
H42 C34 1_555 1_555
H43 C34 1_555 1_555
C35 N15 1_555 1_555
H44 C35 1_555 1_555
H45 C35 1_555 1_555
H46 C35 1_555 1_555
C36 O7 1_555 1_555
H47 C36 1_555 1_555
H48 C36 1_555 1_555
H49 C36 1_555 1_555
W1C C6 1_555 1_555
C6C W1 1_555 1_555
C12 C20 1_555 1_555
C15 C19 1_555 1_555
C17 C18 1_555 1_555
C19 C20 1_555 1_555

#END
