
#######################################################################
#
#                 Cambridge Crystallographic Data Centre
#                                CCDC 
#
#######################################################################
#
# If this CIF has been generated from an entry in the Cambridge 
# Structural Database, then it will include bibliographic, chemical, 
# crystal, experimental, refinement or atomic coordinate data resulting 
# from the CCDC's data processing and validation procedures.
#
#######################################################################

data_REDXOP
_symmetry_cell_setting           monoclinic
_symmetry_space_group_name_H-M   'P 21/c'
_symmetry_Int_Tables_number      14
_space_group_name_Hall           '-P 2ybc'
loop_
_symmetry_equiv_pos_site_id
_symmetry_equiv_pos_as_xyz
1 x,y,z
2 -x,1/2+y,1/2-z
3 -x,-y,-z
4 x,1/2-y,1/2+z
_cell_length_a                   11.3322(11)
_cell_length_b                   21.212(2)
_cell_length_c                   19.680(2)
_cell_angle_alpha                90
_cell_angle_beta                 104.1200(10)
_cell_angle_gamma                90
_cell_volume                     4587.72
loop_
_atom_site_label
_atom_site_type_symbol
_atom_site_fract_x
_atom_site_fract_y
_atom_site_fract_z
Sm1 Sm 0.217958(17) 0.336573(8) 0.181730(10)
Mo1 Mo 0.45505(3) 0.234389(14) -0.024174(16)
O1 O 0.4336(2) 0.34587(14) 0.21133(15)
N1 N 0.2886(3) 0.29617(15) 0.07509(17)
C1 C 0.3428(3) 0.27406(16) 0.03902(19)
O2 O 0.2429(3) 0.43213(13) 0.25135(14)
N2 N 0.3266(4) 0.36459(19) -0.1019(2)
C2 C 0.3719(4) 0.31965(19) -0.0747(2)
O3 O 0.0632(2) 0.31662(14) 0.24388(14)
N3 N 0.6285(3) 0.34368(17) 0.07140(19)
C3 C 0.5703(4) 0.30626(18) 0.0370(2)
O4 O 0.2578(3) 0.22297(13) 0.19658(15)
N4 N 0.6480(4) 0.27844(18) -0.1178(2)
C4 C 0.5822(4) 0.26318(18) -0.0851(2)
O5 O 0.0513(2) 0.28170(13) 0.10327(15)
N5 N 0.6059(4) 0.10516(17) -0.04752(19)
C5 C 0.5542(4) 0.14987(18) -0.0393(2)
N6 N 0.3159(3) 0.30723(16) 0.31393(18)
C6 C 0.3637(3) 0.29266(17) 0.3702(2)
N7 N 0.2591(4) 0.12108(19) -0.0108(2)
C7 C 0.3255(4) 0.16085(19) -0.0160(2)
N8 N 0.5644(4) 0.17744(18) 0.1355(2)
C8 C 0.5280(4) 0.19595(19) 0.0799(2)
N9 N 0.2722(3) 0.43331(14) 0.10840(16)
C9 C 0.3811(4) 0.4411(2) 0.0958(2)
H4 H 0.4336 0.4067 0.1024
N10 N 0.0439(3) 0.41738(14) 0.12802(16)
C10 C 0.4216(4) 0.4979(2) 0.0734(2)
H5 H 0.4995 0.5011 0.0662
N11 N 0.6365(3) 0.3465(2) 0.2513(2)
C11 C 0.3445(4) 0.5488(2) 0.0621(2)
H6 H 0.3703 0.5873 0.0483
N12 N 0.3139(4) 0.50845(17) 0.3308(2)
C12 C 0.2268(4) 0.54224(19) 0.0716(2)
N13 N 0.0320(3) 0.25679(17) 0.33352(19)
C13 C 0.1375(5) 0.59181(19) 0.0559(2)
H7 H 0.1591 0.6307 0.0408
N14 N 0.3481(4) 0.12912(17) 0.2302(2)
C14 C 0.0241(5) 0.5830(2) 0.0627(2)
H8 H -0.0323 0.6156 0.0509
N15 N -0.0512(3) 0.19286(16) 0.06123(19)
C15 C -0.0127(4) 0.52412(18) 0.0880(2)
C16 C -0.1314(4) 0.5134(2) 0.0957(2)
H9 H -0.1894 0.5454 0.0861
C17 C -0.1603(4) 0.4554(2) 0.1173(2)
H10 H -0.2387 0.4469 0.1216
C18 C -0.0692(3) 0.40852(19) 0.1329(2)
H11 H -0.0899 0.3692 0.1474
C19 C 0.0731(4) 0.47435(17) 0.10491(19)
C20 C 0.1940(4) 0.48331(17) 0.09546(19)
C21 C 0.5308(4) 0.3205(2) 0.2196(2)
H12 H 0.5322 0.2797 0.2026
C22 C 0.7454(6) 0.3102(5) 0.2576(5)
H13 H 0.7248 0.2689 0.2383
H14 H 0.7870 0.3065 0.3062
H15 H 0.7974 0.3308 0.2327
C23 C 0.6393(8) 0.4103(5) 0.2767(5)
H16 H 0.5586 0.4275 0.2648
H17 H 0.6913 0.4353 0.2556
H18 H 0.6700 0.4105 0.3267
C24 C 0.3076(4) 0.45036(19) 0.3072(2)
H19 H 0.3564 0.4205 0.3353
C25 C 0.3864(8) 0.5251(3) 0.3999(3)
H20 H 0.4279 0.4884 0.4223
H21 H 0.3343 0.5415 0.4275
H22 H 0.4451 0.5566 0.3956
C26 C 0.2425(6) 0.5585(2) 0.2877(3)
H23 H 0.2202 0.5452 0.2396
H24 H 0.2904 0.5962 0.2917
H25 H 0.1703 0.5665 0.3036
C27 C 0.0544(4) 0.3106(2) 0.3052(2)
H26 H 0.0642 0.3464 0.3332
C28 C 0.0216(5) 0.2541(3) 0.4056(3)
H27 H 0.0253 0.2960 0.4244
H28 H 0.0871 0.2294 0.4330
H29 H -0.0547 0.2351 0.4070
C29 C 0.0215(6) 0.1979(2) 0.2941(3)
H30 H 0.0200 0.2069 0.2461
H31 H -0.0523 0.1768 0.2965
H32 H 0.0898 0.1714 0.3139
C30 C 0.3451(4) 0.1907(2) 0.2284(2)
H33 H 0.4140 0.2120 0.2531
C31 C 0.4536(5) 0.0951(3) 0.2680(3)
H34 H 0.5165 0.1245 0.2888
H35 H 0.4820 0.0680 0.2363
H36 H 0.4326 0.0702 0.3041
C32 C 0.2410(8) 0.0935(3) 0.1992(5)
H37 H 0.1726 0.1214 0.1858
H38 H 0.2260 0.0633 0.2325
H39 H 0.2526 0.0718 0.1585
C33 C 0.0478(4) 0.22789(19) 0.0782(2)
H40 H 0.1195 0.2112 0.0709
C34 C -0.0518(5) 0.1309(2) 0.0291(3)
H41 H 0.0295 0.1199 0.0271
H42 H -0.1034 0.1318 -0.0175
H43 H -0.0818 0.1001 0.0565
C35 C -0.1660(4) 0.2160(3) 0.0724(3)
H44 H -0.1535 0.2565 0.0947
H45 H -0.1959 0.1870 0.1017
H46 H -0.2243 0.2197 0.0281
Mo1C Mo 0.45505(3) 0.265611(14) 0.475826(16)
C6C C 0.3637(3) 0.20734(17) -0.1298(2)
O6 O -0.0728(5) 0.4404(2) 0.3664(3)
H1 H -0.0938 0.4549 0.4003
C36 C 0.0138(6) 0.4765(3) 0.3519(6)
H47 H -0.0183 0.5179 0.3388
H48 H 0.0415 0.4583 0.3140
H49 H 0.0806 0.4795 0.3926
O7 O 0.7865(4) 0.00446(17) -0.0488(3)
H2 H 0.7272 0.0296 -0.0512
H3 H 0.7548 -0.0319 -0.0488
loop_
_geom_bond_atom_site_label_1
_geom_bond_atom_site_label_2
_geom_bond_site_symmetry_1
_geom_bond_site_symmetry_2
Sm1 O1 1_555 1_555
Mo1 C1 1_555 1_555
O1 C21 1_555 1_555
N1 Sm1 1_555 1_555
C1 N1 1_555 1_555
O2 Sm1 1_555 1_555
N2 C2 1_555 1_555
C2 Mo1 1_555 1_555
O3 Sm1 1_555 1_555
N3 C3 1_555 1_555
C3 Mo1 1_555 1_555
O4 Sm1 1_555 1_555
N4 C4 1_555 1_555
C4 Mo1 1_555 1_555
O5 Sm1 1_555 1_555
N5 C5 1_555 1_555
C5 Mo1 1_555 1_555
O6 H1 1_555 1_555
N6 Sm1 1_555 1_555
C6 N6 1_555 1_555
O7 H2 1_555 1_555
H3 O7 1_555 1_555
N7 C7 1_555 1_555
C7 Mo1 1_555 1_555
N8 C8 1_555 1_555
C8 Mo1 1_555 1_555
N9 Sm1 1_555 1_555
C9 N9 1_555 1_555
H4 C9 1_555 1_555
N10 Sm1 1_555 1_555
C10 C9 1_555 1_555
H5 C10 1_555 1_555
N11 C21 1_555 1_555
C11 C10 1_555 1_555
H6 C11 1_555 1_555
N12 C24 1_555 1_555
C12 C11 1_555 1_555
N13 C27 1_555 1_555
C13 C12 1_555 1_555
H7 C13 1_555 1_555
N14 C30 1_555 1_555
C14 C13 1_555 1_555
H8 C14 1_555 1_555
N15 C33 1_555 1_555
C15 C14 1_555 1_555
C16 C15 1_555 1_555
H9 C16 1_555 1_555
C17 C16 1_555 1_555
H10 C17 1_555 1_555
C18 N10 1_555 1_555
H11 C18 1_555 1_555
C19 N10 1_555 1_555
C20 N9 1_555 1_555
C21 H12 1_555 1_555
C22 N11 1_555 1_555
H13 C22 1_555 1_555
H14 C22 1_555 1_555
H15 C22 1_555 1_555
C23 N11 1_555 1_555
H16 C23 1_555 1_555
H17 C23 1_555 1_555
H18 C23 1_555 1_555
C24 O2 1_555 1_555
H19 C24 1_555 1_555
C25 N12 1_555 1_555
H20 C25 1_555 1_555
H21 C25 1_555 1_555
H22 C25 1_555 1_555
C26 N12 1_555 1_555
H23 C26 1_555 1_555
H24 C26 1_555 1_555
H25 C26 1_555 1_555
C27 O3 1_555 1_555
H26 C27 1_555 1_555
C28 N13 1_555 1_555
H27 C28 1_555 1_555
H28 C28 1_555 1_555
H29 C28 1_555 1_555
C29 N13 1_555 1_555
H30 C29 1_555 1_555
H31 C29 1_555 1_555
H32 C29 1_555 1_555
C30 O4 1_555 1_555
H33 C30 1_555 1_555
C31 N14 1_555 1_555
H34 C31 1_555 1_555
H35 C31 1_555 1_555
H36 C31 1_555 1_555
C32 N14 1_555 1_555
H37 C32 1_555 1_555
H38 C32 1_555 1_555
H39 C32 1_555 1_555
C33 O5 1_555 1_555
H40 C33 1_555 1_555
C34 N15 1_555 1_555
H41 C34 1_555 1_555
H42 C34 1_555 1_555
H43 C34 1_555 1_555
C35 N15 1_555 1_555
H44 C35 1_555 1_555
H45 C35 1_555 1_555
H46 C35 1_555 1_555
C36 O6 1_555 1_555
H47 C36 1_555 1_555
H48 C36 1_555 1_555
H49 C36 1_555 1_555
Mo1C C6 1_555 1_555
C6C Mo1 1_555 1_555
C12 C20 1_555 1_555
C15 C19 1_555 1_555
C17 C18 1_555 1_555
C19 C20 1_555 1_555

#END
