
#######################################################################
#
#                 Cambridge Crystallographic Data Centre
#                                CCDC 
#
#######################################################################
#
# If this CIF has been generated from an entry in the Cambridge 
# Structural Database, then it will include bibliographic, chemical, 
# crystal, experimental, refinement or atomic coordinate data resulting 
# from the CCDC's data processing and validation procedures.
#
#######################################################################

data_REDYIK
_symmetry_cell_setting           monoclinic
_symmetry_space_group_name_H-M   'P 21/c'
_symmetry_Int_Tables_number      14
_space_group_name_Hall           '-P 2ybc'
loop_
_symmetry_equiv_pos_site_id
_symmetry_equiv_pos_as_xyz
1 x,y,z
2 -x,1/2+y,1/2-z
3 -x,-y,-z
4 x,1/2-y,1/2+z
_cell_length_a                   7.7120(15)
_cell_length_b                   19.169(4)
_cell_length_c                   19.292(5)
_cell_angle_alpha                90
_cell_angle_beta                 107.74(3)
_cell_angle_gamma                90
_cell_volume                     2716.35
loop_
_atom_site_label
_atom_site_type_symbol
_atom_site_fract_x
_atom_site_fract_y
_atom_site_fract_z
Co1 Co 1.0000 1.0000 0.0000
Cl1 Cl 0.70532(8) 1.05762(3) -0.05540(3)
O1 O 0.5747(3) 1.13225(11) 0.31519(10)
O2 O 0.9073(3) 0.87365(11) 0.58208(9)
N1 N 0.7409(3) 0.98632(11) 0.42946(11)
N2 N 0.6573(3) 1.02492(12) 0.28808(10)
H1 H 0.6901 0.9827 0.3048
N3 N 0.8878(3) 0.85789(11) 0.46384(11)
H2 H 0.8444 0.8740 0.4192
N4 N 0.9813(3) 1.02572(11) 0.10922(11)
N5 N 0.8524(3) 0.60346(11) 0.49181(11)
C1 C 0.6298(3) 1.07286(15) 0.33378(14)
C2 C 0.6712(3) 1.05027(14) 0.41202(13)
C3 C 0.6391(3) 1.09567(15) 0.46306(14)
H3 H 0.5867 1.1402 0.4486
C4 C 0.6841(4) 1.07529(16) 0.53475(15)
H4 H 0.6649 1.1057 0.5706
C5 C 0.7579(4) 1.00962(15) 0.55353(14)
H5 H 0.7905 0.9942 0.6026
C6 C 0.7834(3) 0.96667(14) 0.49961(13)
C7 C 0.8651(3) 0.89513(14) 0.51904(14)
C8 C 0.6356(3) 1.03926(15) 0.21202(13)
H6 H 0.5705 1.0841 0.1984
H7 H 0.5597 1.0022 0.1817
C9 C 0.8155(3) 1.04303(13) 0.19570(12)
C10 C 0.9742(3) 1.06545(15) 0.24744(14)
H8 H 0.9727 1.0787 0.2947
C11 C 1.1341(4) 1.06814(15) 0.22916(14)
H9 H 1.2437 1.0838 0.2635
C12 C 1.1320(3) 1.04764(14) 0.16020(13)
H10 H 1.2428 1.0492 0.1483
C13 C 0.8266(3) 1.02373(13) 0.12775(13)
H11 H 0.7187 1.0082 0.0923
C14 C 0.9828(4) 0.79106(14) 0.47607(15)
H12 H 1.0808 0.7931 0.5232
H13 H 1.0411 0.7840 0.4374
C15 C 0.8630(3) 0.72866(13) 0.47693(13)
C16 C 0.6769(4) 0.73262(15) 0.46625(14)
H14 H 0.6160 0.7763 0.4572
C17 C 0.5810(4) 0.67193(15) 0.46895(15)
H15 H 0.4534 0.6736 0.4615
C18 C 0.6726(3) 0.60924(14) 0.48260(13)
H16 H 0.6060 0.5683 0.4857
C19 C 0.9421(3) 0.66317(14) 0.48861(13)
H17 H 1.0689 0.6601 0.4948
Co1A Co 1.0000 0.5000 0.5000
Co1A_2 Co 1.0000 1.5000 0.5000
Cl1B Cl 1.29468(8) 0.94238(3) 0.05540(3)
O1A O 1.4253(3) 1.63225(11) 0.18481(10)
O2A O 1.0927(3) 1.37365(11) -0.08208(9)
N1A N 1.2591(3) 1.48632(11) 0.07054(11)
N2A N 1.3427(3) 1.52492(12) 0.21192(10)
H1A H 1.3099 1.4827 0.1952
N3A N 1.1122(3) 1.35789(11) 0.03616(11)
H2A H 1.1556 1.3740 0.0808
N4A N 1.0187(3) 1.52572(11) 0.39078(11)
N4B N 1.0187(3) 0.97428(11) -0.10922(11)
N5A N 1.1476(3) 1.10346(11) 0.00819(11)
N5C N 0.8524(3) 0.89654(11) -0.00819(11)
C1A C 1.3702(3) 1.57286(15) 0.16622(14)
C2A C 1.3288(3) 1.55027(14) 0.08798(13)
C3A C 1.3609(3) 1.59567(15) 0.03694(14)
H3A H 1.4133 1.6402 0.0514
C4A C 1.3159(4) 1.57529(16) -0.03475(15)
H4A H 1.3351 1.6057 -0.0706
C5A C 1.2421(4) 1.50962(15) -0.05353(14)
H5A H 1.2095 1.4942 -0.1026
C6A C 1.2166(3) 1.46667(14) 0.00039(13)
C7A C 1.1349(3) 1.39513(14) -0.01904(14)
C8A C 1.3644(3) 1.53926(15) 0.28798(13)
H6A H 1.4295 1.5841 0.3016
H7A H 1.4403 1.5022 0.3183
C9A C 1.1845(3) 1.54303(13) 0.30430(12)
C10A C 1.0258(3) 1.56545(15) 0.25256(14)
H8A H 1.0273 1.5787 0.2053
C11A C 0.8659(4) 1.56814(15) 0.27084(14)
H9A H 0.7563 1.5838 0.2365
C12A C 0.8680(3) 1.54764(14) 0.33980(13)
H10A H 0.7572 1.5492 0.3517
C13A C 1.1734(3) 1.52373(13) 0.37225(13)
H11A H 1.2813 1.5082 0.4077
C14A C 1.0172(4) 1.29106(14) 0.02393(15)
H12A H 0.9192 1.2931 -0.0232
H13A H 0.9589 1.2840 0.0626
C15A C 1.1370(3) 1.22866(13) 0.02307(13)
C16A C 1.3231(4) 1.23262(15) 0.03375(14)
H14A H 1.3840 1.2763 0.0428
C17A C 1.4190(4) 1.17193(15) 0.03105(15)
H15A H 1.5466 1.1736 0.0385
C18A C 1.3274(3) 1.10924(14) 0.01740(13)
H16A H 1.3940 1.0683 0.0143
C19A C 1.0579(3) 1.16317(14) 0.01139(13)
H17A H 0.9311 1.1601 0.0052
O3 O 0.2611(4) 0.77957(14) 0.36064(13)
N6 N 0.2425(4) 0.80955(15) 0.24467(14)
C20 C 0.2370(5) 0.76594(19) 0.2961(2)
H18 H 0.2115 0.7186 0.2821
C21 C 0.2812(7) 0.8828(2) 0.2621(2)
H19 H 0.3853 0.8868 0.3063
H20 H 0.1745 0.9050 0.2702
H21 H 0.3098 0.9060 0.2217
C22 C 0.2098(7) 0.7886(2) 0.1694(2)
H22 H 0.1953 0.7378 0.1654
H23 H 0.3133 0.8026 0.1531
H24 H 0.0988 0.8111 0.1388
O4 O 0.8144(4) 0.88593(12) 0.30198(13)
N7 N 0.7441(4) 0.79212(16) 0.22777(14)
C23 C 0.7857(6) 0.8571(2) 0.2422(2)
H25 H 0.7951 0.8854 0.2031
C24 C 0.7264(6) 0.7473(2) 0.2866(2)
H26 H 0.6872 0.7753 0.3216
H27 H 0.8442 0.7256 0.3113
H28 H 0.6360 0.7108 0.2664
C25 C 0.7180(8) 0.7599(3) 0.1574(2)
H29 H 0.7378 0.7946 0.1233
H30 H 0.5936 0.7417 0.1389
H31 H 0.8050 0.7215 0.1623
loop_
_geom_bond_atom_site_label_1
_geom_bond_atom_site_label_2
_geom_bond_site_symmetry_1
_geom_bond_site_symmetry_2
Co1 Cl1 1_555 1_555
O1 C1 1_555 1_555
O2 C7 1_555 1_555
O3 C20 1_555 1_555
O4 C23 1_555 1_555
N1 C2 1_555 1_555
N2 H1 1_555 1_555
N3 H2 1_555 1_555
N4 Co1 1_555 1_555
N5 C18 1_555 1_555
N6 C20 1_555 1_555
N7 C23 1_555 1_555
C1 N2 1_555 1_555
C2 C1 1_555 1_555
C3 C2 1_555 1_555
H3 C3 1_555 1_555
C4 C3 1_555 1_555
H4 C4 1_555 1_555
C5 C4 1_555 1_555
H5 C5 1_555 1_555
C6 N1 1_555 1_555
C7 N3 1_555 1_555
C8 N2 1_555 1_555
H6 C8 1_555 1_555
H7 C8 1_555 1_555
C9 C8 1_555 1_555
C10 C9 1_555 1_555
H8 C10 1_555 1_555
C11 C10 1_555 1_555
H9 C11 1_555 1_555
C12 N4 1_555 1_555
H10 C12 1_555 1_555
C13 N4 1_555 1_555
H11 C13 1_555 1_555
C14 N3 1_555 1_555
H12 C14 1_555 1_555
H13 C14 1_555 1_555
C15 C14 1_555 1_555
C16 C15 1_555 1_555
H14 C16 1_555 1_555
C17 C16 1_555 1_555
H15 C17 1_555 1_555
C18 C17 1_555 1_555
H16 C18 1_555 1_555
C19 N5 1_555 1_555
H17 C19 1_555 1_555
C20 H18 1_555 1_555
C21 N6 1_555 1_555
H19 C21 1_555 1_555
H20 C21 1_555 1_555
H21 C21 1_555 1_555
C22 N6 1_555 1_555
H22 C22 1_555 1_555
H23 C22 1_555 1_555
H24 C22 1_555 1_555
C23 H25 1_555 1_555
C24 N7 1_555 1_555
H26 C24 1_555 1_555
H27 C24 1_555 1_555
H28 C24 1_555 1_555
C25 N7 1_555 1_555
H29 C25 1_555 1_555
H30 C25 1_555 1_555
H31 C25 1_555 1_555
Co1A N5 1_555 1_555
Co1A_2 N4A 1_555 1_555
Cl1B Co1 1_555 1_555
O1A C1A 1_555 1_555
O2A C7A 1_555 1_555
N1A C2A 1_555 1_555
N2A H1A 1_555 1_555
N3A H2A 1_555 1_555
N4A C12A 1_555 1_555
N4B Co1 1_555 1_555
N5A Co1 1_555 1_555
N5C Co1 1_555 1_555
C1A N2A 1_555 1_555
C2A C1A 1_555 1_555
C3A C2A 1_555 1_555
H3A C3A 1_555 1_555
C4A C3A 1_555 1_555
H4A C4A 1_555 1_555
C5A C4A 1_555 1_555
H5A C5A 1_555 1_555
C6A N1A 1_555 1_555
C7A N3A 1_555 1_555
C8A N2A 1_555 1_555
H6A C8A 1_555 1_555
H7A C8A 1_555 1_555
C9A C8A 1_555 1_555
C10A C9A 1_555 1_555
H8A C10A 1_555 1_555
C11A C10A 1_555 1_555
H9A C11A 1_555 1_555
C12A C11A 1_555 1_555
H10A C12A 1_555 1_555
C13A N4A 1_555 1_555
H11A C13A 1_555 1_555
C14A N3A 1_555 1_555
H12A C14A 1_555 1_555
H13A C14A 1_555 1_555
C15A C14A 1_555 1_555
C16A C15A 1_555 1_555
H14A C16A 1_555 1_555
C17A C16A 1_555 1_555
H15A C17A 1_555 1_555
C18A N5A 1_555 1_555
H16A C18A 1_555 1_555
C19A N5A 1_555 1_555
H17A C19A 1_555 1_555
C5 C6 1_555 1_555
C6 C7 1_555 1_555
C9 C13 1_555 1_555
C11 C12 1_555 1_555
C15 C19 1_555 1_555
C5A C6A 1_555 1_555
C6A C7A 1_555 1_555
C9A C13A 1_555 1_555
C15A C19A 1_555 1_555
C17A C18A 1_555 1_555

#END
