
#######################################################################
#
#                 Cambridge Crystallographic Data Centre
#                                CCDC 
#
#######################################################################
#
# If this CIF has been generated from an entry in the Cambridge 
# Structural Database, then it will include bibliographic, chemical, 
# crystal, experimental, refinement or atomic coordinate data resulting 
# from the CCDC's data processing and validation procedures.
#
#######################################################################

data_REDZIL
_symmetry_cell_setting           monoclinic
_symmetry_space_group_name_H-M   'P 21/c'
_symmetry_Int_Tables_number      14
_space_group_name_Hall           '-P 2ybc'
loop_
_symmetry_equiv_pos_site_id
_symmetry_equiv_pos_as_xyz
1 x,y,z
2 -x,1/2+y,1/2-z
3 -x,-y,-z
4 x,1/2-y,1/2+z
_cell_length_a                   9.8946(10)
_cell_length_b                   25.345(3)
_cell_length_c                   8.3253(8)
_cell_angle_alpha                90
_cell_angle_beta                 102.660(2)
_cell_angle_gamma                90
_cell_volume                     2037.05
loop_
_atom_site_label
_atom_site_type_symbol
_atom_site_fract_x
_atom_site_fract_y
_atom_site_fract_z
Ag1 Ag 0.11153(3) 0.520272(14) 0.40293(4)
O1 O 0.0930(3) 0.41570(11) 0.4360(4)
C1 C -0.1285(4) 0.47283(16) 0.1376(4)
H1 H -0.0966 0.4417 0.1924
C2 C -0.2458(4) 0.47076(15) 0.0141(4)
H2 H -0.2904 0.4386 -0.0131
C3 C -0.2985(4) 0.51599(14) -0.0705(4)
C4 C -0.2236(4) 0.56179(16) -0.0259(5)
H3 H -0.2518 0.5932 -0.0806
C5 C -0.1072(4) 0.56068(18) 0.0995(5)
H4 H -0.0596 0.5921 0.1282
C6 C -0.4306(4) 0.51633(14) -0.1971(4)
C7 C -0.5035(4) 0.47075(15) -0.2514(5)
H5 H -0.4673 0.4382 -0.2120
C8 C -0.6278(4) 0.47290(16) -0.3618(5)
H6 H -0.6741 0.4414 -0.3944
C9 C -0.6167(4) 0.56233(17) -0.3728(5)
H7 H -0.6553 0.5944 -0.4133
C10 C -0.4924(4) 0.56266(16) -0.2633(5)
H8 H -0.4483 0.5947 -0.2323
C11 C 0.0435(4) 0.37723(16) 0.4946(5)
C12 C 0.1274(4) 0.32653(14) 0.5164(4)
C13 C 0.2610(4) 0.32645(15) 0.4929(5)
H9 H 0.2979 0.3576 0.4619
C14 C 0.3416(4) 0.28166(15) 0.5139(5)
H10 H 0.4323 0.2828 0.5000
C15 C 0.2865(4) 0.23532(15) 0.5557(5)
C16 C 0.1522(4) 0.23394(17) 0.5804(6)
H11 H 0.1151 0.2026 0.6100
C17 C 0.0749(4) 0.27929(16) 0.5607(5)
H12 H -0.0150 0.2784 0.5774
C18 C 0.4989(5) 0.18875(15) 0.5716(6)
C19 C 0.5377(4) 0.17792(15) 0.4269(5)
H13 H 0.4712 0.1726 0.3304
C20 C 0.6778(4) 0.17494(14) 0.4264(5)
C21 C 0.7193(4) 0.16245(16) 0.2677(6)
C22 C 0.7757(4) 0.18317(16) 0.5699(6)
H14 H 0.8694 0.1812 0.5694
C23 C 0.7350(5) 0.19421(18) 0.7131(6)
H15 H 0.8012 0.1997 0.8097
C24 C 0.5966(5) 0.19717(18) 0.7148(6)
H16 H 0.5691 0.2048 0.8122
N1 N -0.0582(3) 0.51691(13) 0.1827(4)
N2 N -0.6861(3) 0.51800(13) -0.4252(4)
O2 O -0.0711(3) 0.37797(11) 0.5386(3)
O3 O 0.3583(3) 0.18804(11) 0.5763(4)
O4 O 0.6357(3) 0.15393(14) 0.1417(4)
O5 O 0.8532(3) 0.16180(12) 0.2812(4)
H17 H 0.8794 0.1483 0.1996
Ag1B Ag -0.11153(3) 0.479728(14) 0.59707(4)
Ag1_2 Ag -0.88847(3) 0.520272(14) -0.59707(4)
N2_2 N 0.3139(3) 0.51800(13) 0.5748(4)
O2B O 0.0711(3) 0.62203(11) 0.4614(3)
loop_
_geom_bond_atom_site_label_1
_geom_bond_atom_site_label_2
_geom_bond_site_symmetry_1
_geom_bond_site_symmetry_2
Ag1 O1 1_555 1_555
O1 C11 1_555 1_555
C1 H1 1_555 1_555
C2 C1 1_555 1_555
H2 C2 1_555 1_555
C3 C2 1_555 1_555
C4 C3 1_555 1_555
H3 C4 1_555 1_555
C5 C4 1_555 1_555
H4 C5 1_555 1_555
C6 C3 1_555 1_555
C7 C6 1_555 1_555
H5 C7 1_555 1_555
C8 C7 1_555 1_555
H6 C8 1_555 1_555
C9 H7 1_555 1_555
C10 C6 1_555 1_555
H8 C10 1_555 1_555
C11 C12 1_555 1_555
C12 C13 1_555 1_555
C13 H9 1_555 1_555
C14 C13 1_555 1_555
H10 C14 1_555 1_555
C15 C14 1_555 1_555
C16 C15 1_555 1_555
H11 C16 1_555 1_555
C17 C12 1_555 1_555
H12 C17 1_555 1_555
C18 C19 1_555 1_555
C19 H13 1_555 1_555
C20 C19 1_555 1_555
C21 C20 1_555 1_555
C22 C20 1_555 1_555
H14 C22 1_555 1_555
C23 C22 1_555 1_555
H15 C23 1_555 1_555
C24 C18 1_555 1_555
H16 C24 1_555 1_555
N1 Ag1 1_555 1_555
N2 C8 1_555 1_555
O2 C11 1_555 1_555
O3 C15 1_555 1_555
O4 C21 1_555 1_555
O5 C21 1_555 1_555
H17 O5 1_555 1_555
Ag1B Ag1 1_555 1_555
Ag1_2 N2 1_555 1_555
N2_2 Ag1 1_555 1_555
O2B Ag1 1_555 1_555
C1 N1 1_555 1_555
C5 N1 1_555 1_555
C9 C10 1_555 1_555
C9 N2 1_555 1_555
C16 C17 1_555 1_555
C18 O3 1_555 1_555
C23 C24 1_555 1_555
O2 Ag1B 1_555 1_555

#END
