
#######################################################################
#
#                 Cambridge Crystallographic Data Centre
#                                CCDC 
#
#######################################################################
#
# If this CIF has been generated from an entry in the Cambridge 
# Structural Database, then it will include bibliographic, chemical, 
# crystal, experimental, refinement or atomic coordinate data resulting 
# from the CCDC's data processing and validation procedures.
#
#######################################################################

data_REDZAD
_symmetry_cell_setting           monoclinic
_symmetry_space_group_name_H-M   'P 21/n'
_symmetry_Int_Tables_number      14
_space_group_name_Hall           '-P 2yn'
loop_
_symmetry_equiv_pos_site_id
_symmetry_equiv_pos_as_xyz
1 x,y,z
2 1/2-x,1/2+y,1/2-z
3 -x,-y,-z
4 1/2+x,1/2-y,1/2+z
_cell_length_a                   10.4430(4)
_cell_length_b                   22.7520(8)
_cell_length_c                   12.9510(5)
_cell_angle_alpha                90
_cell_angle_beta                 92.802(4)
_cell_angle_gamma                90
_cell_volume                     3073.47
loop_
_atom_site_label
_atom_site_type_symbol
_atom_site_fract_x
_atom_site_fract_y
_atom_site_fract_z
Pb1 Pb 1.5000 0.5000 0.5000
Pb2 Pb 0.47901(4) 0.488980(16) -0.16200(3)
C1 C 1.2485(13) 0.4701(7) 0.6634(10)
C2 C 1.1627(10) 0.4422(5) 0.5796(8)
C3 C 1.0363(10) 0.4390(6) 0.5908(9)
H1 H 1.0037 0.4496 0.6537
C4 C 0.9525(11) 0.4203(6) 0.5108(9)
H2 H 0.8647 0.4184 0.5192
C5 C 1.0016(10) 0.4052(5) 0.4220(8)
H3 H 0.9457 0.3935 0.3677
C6 C 1.2134(10) 0.4227(5) 0.4845(8)
C7 C 1.1829(9) 0.3864(5) 0.3089(7)
H4 H 1.2503 0.3579 0.3244
H5 H 1.2210 0.4198 0.2754
C8 C 1.0825(9) 0.3590(4) 0.2355(7)
C9 C 1.0482(9) 0.3006(4) 0.2523(7)
C10 C 0.9429(10) 0.2764(4) 0.1975(7)
C11 C 0.8715(9) 0.3107(4) 0.1251(7)
C12 C 0.9130(10) 0.3683(4) 0.1047(7)
C13 C 1.0185(10) 0.3922(4) 0.1583(7)
C14 C 1.0571(13) 0.4549(5) 0.1331(11)
H6 H 1.1312 0.4658 0.1757
H7 H 0.9876 0.4811 0.1462
H8 H 1.0769 0.4575 0.0617
C15 C 1.1194(12) 0.2641(5) 0.3332(8)
H9 H 1.0837 0.2252 0.3336
H10 H 1.1118 0.2818 0.3998
H11 H 1.2083 0.2619 0.3177
C16 C 0.7481(10) 0.2883(5) 0.0695(8)
H12 H 0.7316 0.2487 0.0912
H13 H 0.7577 0.2890 -0.0038
H14 H 0.6777 0.3130 0.0864
C17 C 0.9078(11) 0.2127(4) 0.2165(7)
H15 H 0.8428 0.2003 0.1649
H16 H 0.9828 0.1881 0.2097
C18 C 0.7819(11) 0.2454(4) 0.3634(9)
H17 H 0.7552 0.2775 0.3235
C19 C 0.7429(11) 0.2408(5) 0.4599(9)
H18 H 0.6888 0.2688 0.4868
C20 C 0.7850(11) 0.1936(4) 0.5181(8)
H19 H 0.7616 0.1907 0.5863
C21 C 0.8602(9) 0.1509(4) 0.4788(7)
C22 C 0.8969(10) 0.1545(4) 0.3743(7)
C23 C 0.9042(11) 0.0994(4) 0.5475(8)
C24 C 0.8350(11) 0.4047(5) 0.0274(7)
H20 H 0.7462 0.4035 0.0459
H21 H 0.8636 0.4452 0.0336
C25 C 0.9192(12) 0.3446(5) -0.1122(9)
H22 H 0.9770 0.3278 -0.0639
C26 C 0.9171(12) 0.3255(5) -0.2106(9)
H23 H 0.9712 0.2955 -0.2304
C27 C 0.8329(11) 0.3517(5) -0.2806(8)
H24 H 0.8321 0.3397 -0.3493
C28 C 0.7505(9) 0.3945(4) -0.2537(7)
C29 C 0.7549(9) 0.4150(4) -0.1485(7)
C30 C 0.6614(10) 0.4242(6) -0.3360(7)
N1 N 1.1287(7) 0.4059(4) 0.4063(6)
N2 N 0.8582(7) 0.2051(3) 0.3220(5)
N3 N 0.8408(8) 0.3867(3) -0.0822(6)
O1 O 1.3347(9) 0.5048(4) 0.6360(7)
O2 O 1.2209(10) 0.4620(7) 0.7530(7)
O3 O 1.3327(7) 0.4201(3) 0.4684(6)
O4 O 0.8991(9) 0.1060(3) 0.6423(6)
O5 O 0.9379(8) 0.0541(3) 0.5083(5)
O6 O 0.9649(7) 0.1178(3) 0.3288(5)
O7 O 0.6483(8) 0.3985(5) -0.4208(6)
O8 O 0.6103(8) 0.4711(4) -0.3155(5)
O9 O 0.6889(6) 0.4547(3) -0.1121(4)
Pb1_2 Pb 0.5000 0.5000 -0.5000
Pb1_3 Pb 2.5000 0.5000 1.5000
Pb2B Pb 2.52099(4) 0.511020(16) 1.16200(3)
Pb2_2 Pb 1.47901(4) 0.488980(16) 0.83800(3)
Pb2C Pb 0.97901(4) 0.011020(16) 0.33800(3)
Pb2A Pb 1.02099(4) -0.011020(16) 0.66200(3)
Pb2B_2 Pb 1.52099(4) 0.511020(16) 0.16200(3)
Pb2A_2 Pb 2.02099(4) 0.988980(16) 0.66200(3)
Pb2C_2 Pb 1.97901(4) 1.011020(16) 0.33800(3)
C1B C 1.7515(13) 0.5299(7) 0.3366(10)
C2B C 1.8373(10) 0.5578(5) 0.4204(8)
C3B C 1.9637(10) 0.5610(6) 0.4092(9)
H1B H 1.9963 0.5504 0.3463
C4B C 2.0475(11) 0.5797(6) 0.4892(9)
H2B H 2.1353 0.5816 0.4808
C5B C 1.9984(10) 0.5948(5) 0.5780(8)
H3B H 2.0543 0.6065 0.6323
C6B C 1.7866(10) 0.5773(5) 0.5155(8)
C7B C 1.8171(9) 0.6136(5) 0.6911(7)
H4B H 1.7497 0.6421 0.6756
H5B H 1.7790 0.5802 0.7246
C8B C 1.9175(9) 0.6410(4) 0.7645(7)
C9B C 1.9518(9) 0.6994(4) 0.7477(7)
C10B C 2.0571(10) 0.7236(4) 0.8025(7)
C11B C 2.1285(9) 0.6893(4) 0.8749(7)
C12B C 2.0870(10) 0.6317(4) 0.8953(7)
C13B C 1.9815(10) 0.6078(4) 0.8417(7)
C14B C 1.9429(13) 0.5451(5) 0.8669(11)
H6B H 1.8688 0.5342 0.8243
H7B H 2.0124 0.5189 0.8538
H8B H 1.9231 0.5425 0.9383
C15B C 1.8806(12) 0.7359(5) 0.6668(8)
H9B H 1.9163 0.7748 0.6664
H10B H 1.8882 0.7182 0.6002
H11B H 1.7917 0.7381 0.6823
C16B C 2.2519(10) 0.7117(5) 0.9305(8)
H12B H 2.2684 0.7513 0.9088
H13B H 2.2423 0.7110 1.0038
H14B H 2.3223 0.6870 0.9136
C17B C 2.0922(11) 0.7873(4) 0.7835(7)
H15B H 2.1572 0.7997 0.8351
H16B H 2.0172 0.8119 0.7903
C18B C 2.2181(11) 0.7546(4) 0.6366(9)
H17B H 2.2448 0.7225 0.6765
C19B C 2.2571(11) 0.7592(5) 0.5401(9)
H18B H 2.3112 0.7312 0.5132
C20B C 2.2150(11) 0.8064(4) 0.4819(8)
H19B H 2.2384 0.8093 0.4137
C21B C 2.1398(9) 0.8491(4) 0.5212(7)
C22B C 2.1031(10) 0.8455(4) 0.6257(7)
C23B C 2.0958(11) 0.9006(4) 0.4525(8)
C24B C 2.1650(11) 0.5953(5) 0.9726(7)
H20B H 2.2538 0.5965 0.9541
H21B H 2.1364 0.5548 0.9664
C25B C 2.0808(12) 0.6554(5) 1.1122(9)
H22B H 2.0230 0.6722 1.0639
C26B C 2.0829(12) 0.6745(5) 1.2106(9)
H23B H 2.0288 0.7045 1.2304
C27B C 2.1671(11) 0.6483(5) 1.2806(8)
H24B H 2.1679 0.6603 1.3493
C28B C 2.2495(9) 0.6055(4) 1.2537(7)
C29B C 2.2451(9) 0.5850(4) 1.1485(7)
C30B C 2.3386(10) 0.5758(6) 1.3360(7)
N1B N 1.8713(7) 0.5941(4) 0.5937(6)
N2B N 2.1418(7) 0.7949(3) 0.6780(5)
N3B N 2.1592(8) 0.6133(3) 1.0822(6)
O1B O 1.6653(9) 0.4952(4) 0.3640(7)
O2B O 1.7791(10) 0.5380(7) 0.2470(7)
O2_2 O 0.2209(10) 0.4620(7) -0.2470(7)
O2B_2 O 2.7791(10) 0.5380(7) 1.2470(7)
O3B O 1.6673(7) 0.5799(3) 0.5316(6)
O4B O 2.1009(9) 0.8940(3) 0.3577(6)
O5B O 2.0621(8) 0.9459(3) 0.4917(5)
O5C O 0.4379(8) 0.4459(3) 0.0083(5)
O5A O 0.5621(8) 0.5541(3) -0.0083(5)
O5A_2 O 2.5621(8) 0.5541(3) 0.9917(5)
O5C_2 O 2.4379(8) 0.4459(3) 1.0083(5)
O6B O 2.0351(7) 0.8822(3) 0.6712(5)
O6C O 0.4649(7) 0.3822(3) -0.1712(5)
O6A O 2.5351(7) 0.6178(3) 1.1712(5)
O7B O 2.3517(8) 0.6015(5) 1.4208(6)
O8B O 2.3897(8) 0.5289(4) 1.3155(5)
O8_2 O 1.6103(8) 0.4711(4) 0.6845(5)
O8B_2 O 1.3897(8) 0.5289(4) 0.3155(5)
O9B O 2.3111(6) 0.5453(3) 1.1121(4)
O10 O 1.4562(15) 0.3111(7) 0.4627(13)
O11 O 1.0097(16) 0.1856(7) -0.2369(13)
O12 O 0.681(3) 0.3826(12) 0.317(2)
loop_
_geom_bond_atom_site_label_1
_geom_bond_atom_site_label_2
_geom_bond_site_symmetry_1
_geom_bond_site_symmetry_2
Pb1 O1 1_555 1_555
Pb2 O8 1_555 1_555
C1 C2 1_555 1_555
C2 C3 1_555 1_555
C3 H1 1_555 1_555
C4 C3 1_555 1_555
H2 C4 1_555 1_555
C5 C4 1_555 1_555
H3 C5 1_555 1_555
C6 C2 1_555 1_555
C7 H4 1_555 1_555
H5 C7 1_555 1_555
C8 C7 1_555 1_555
C9 C8 1_555 1_555
C10 C9 1_555 1_555
C11 C10 1_555 1_555
C12 C11 1_555 1_555
C13 C8 1_555 1_555
C14 C13 1_555 1_555
H6 C14 1_555 1_555
H7 C14 1_555 1_555
H8 C14 1_555 1_555
C15 C9 1_555 1_555
H9 C15 1_555 1_555
H10 C15 1_555 1_555
H11 C15 1_555 1_555
C16 C11 1_555 1_555
H12 C16 1_555 1_555
H13 C16 1_555 1_555
H14 C16 1_555 1_555
C17 C10 1_555 1_555
H15 C17 1_555 1_555
H16 C17 1_555 1_555
C18 H17 1_555 1_555
C19 C18 1_555 1_555
H18 C19 1_555 1_555
C20 C19 1_555 1_555
H19 C20 1_555 1_555
C21 C20 1_555 1_555
C22 C21 1_555 1_555
C23 C21 1_555 1_555
C24 C12 1_555 1_555
H20 C24 1_555 1_555
H21 C24 1_555 1_555
C25 H22 1_555 1_555
C26 C25 1_555 1_555
H23 C26 1_555 1_555
C27 C26 1_555 1_555
H24 C27 1_555 1_555
C28 C27 1_555 1_555
C29 C28 1_555 1_555
C30 C28 1_555 1_555
N1 C5 1_555 1_555
N2 C17 1_555 1_555
N3 C24 1_555 1_555
O1 C1 1_555 1_555
O2 C1 1_555 1_555
O3 Pb1 1_555 1_555
O4 C23 1_555 1_555
O5 C23 1_555 1_555
O6 C22 1_555 1_555
O7 C30 1_555 1_555
O8 C30 1_555 1_555
O9 Pb2 1_555 1_555
Pb1_2 O8 1_555 1_555
Pb1_3 O8B 1_555 1_555
Pb2B O2B_2 1_555 1_555
Pb2_2 O2 1_555 1_555
Pb2C O5 1_555 1_555
Pb2A O5 1_555 1_555
Pb2B_2 O2B 1_555 1_555
Pb2A_2 O5B 1_555 1_555
Pb2C_2 O5B 1_555 1_555
C1B C2B 1_555 1_555
C2B C3B 1_555 1_555
C3B H1B 1_555 1_555
C4B C3B 1_555 1_555
H2B C4B 1_555 1_555
C5B C4B 1_555 1_555
H3B C5B 1_555 1_555
C6B C2B 1_555 1_555
C7B H4B 1_555 1_555
H5B C7B 1_555 1_555
C8B C7B 1_555 1_555
C9B C8B 1_555 1_555
C10B C9B 1_555 1_555
C11B C10B 1_555 1_555
C12B C11B 1_555 1_555
C13B C8B 1_555 1_555
C14B C13B 1_555 1_555
H6B C14B 1_555 1_555
H7B C14B 1_555 1_555
H8B C14B 1_555 1_555
C15B C9B 1_555 1_555
H9B C15B 1_555 1_555
H10B C15B 1_555 1_555
H11B C15B 1_555 1_555
C16B C11B 1_555 1_555
H12B C16B 1_555 1_555
H13B C16B 1_555 1_555
H14B C16B 1_555 1_555
C17B C10B 1_555 1_555
H15B C17B 1_555 1_555
H16B C17B 1_555 1_555
C18B H17B 1_555 1_555
C19B C18B 1_555 1_555
H18B C19B 1_555 1_555
C20B C19B 1_555 1_555
H19B C20B 1_555 1_555
C21B C20B 1_555 1_555
C22B C21B 1_555 1_555
C23B C21B 1_555 1_555
C24B C12B 1_555 1_555
H20B C24B 1_555 1_555
H21B C24B 1_555 1_555
C25B H22B 1_555 1_555
C26B C25B 1_555 1_555
H23B C26B 1_555 1_555
C27B C26B 1_555 1_555
H24B C27B 1_555 1_555
C28B C27B 1_555 1_555
C29B C28B 1_555 1_555
C30B C28B 1_555 1_555
N1B C5B 1_555 1_555
N2B C17B 1_555 1_555
N3B C24B 1_555 1_555
O1B Pb1 1_555 1_555
O2B C1B 1_555 1_555
O2_2 Pb2 1_555 1_555
O3B Pb1 1_555 1_555
O4B C23B 1_555 1_555
O5B C23B 1_555 1_555
O5C Pb2 1_555 1_555
O5A Pb2 1_555 1_555
O5A_2 Pb2B 1_555 1_555
O5C_2 Pb2B 1_555 1_555
O6B Pb2A_2 1_555 1_555
O6C Pb2 1_555 1_555
O6A Pb2B 1_555 1_555
O7B C30B 1_555 1_555
O8B Pb2B 1_555 1_555
O8_2 Pb1 1_555 1_555
O8B_2 Pb1 1_555 1_555
O9B Pb2B 1_555 1_555
C6 N1 1_555 1_555
C6 O3 1_555 1_555
C7 N1 1_555 1_555
C12 C13 1_555 1_555
C18 N2 1_555 1_555
C22 N2 1_555 1_555
C25 N3 1_555 1_555
C29 N3 1_555 1_555
C29 O9 1_555 1_555
O6 Pb2C 1_555 1_555
Pb2_2 O8_2 1_555 1_555
Pb2B_2 O8B_2 1_555 1_555
C1B O1B 1_555 1_555
C6B N1B 1_555 1_555
C6B O3B 1_555 1_555
C7B N1B 1_555 1_555
C12B C13B 1_555 1_555
C18B N2B 1_555 1_555
C22B N2B 1_555 1_555
C22B O6B 1_555 1_555
C25B N3B 1_555 1_555
C29B N3B 1_555 1_555
C29B O9B 1_555 1_555
C30B O8B 1_555 1_555

#END
