
#######################################################################
#
#                 Cambridge Crystallographic Data Centre
#                                CCDC 
#
#######################################################################
#
# If this CIF has been generated from an entry in the Cambridge 
# Structural Database, then it will include bibliographic, chemical, 
# crystal, experimental, refinement or atomic coordinate data resulting 
# from the CCDC's data processing and validation procedures.
#
#######################################################################

data_REFBUB
_symmetry_cell_setting           monoclinic
_symmetry_space_group_name_H-M   'P 21/c'
_symmetry_Int_Tables_number      14
_space_group_name_Hall           '-P 2ybc'
loop_
_symmetry_equiv_pos_site_id
_symmetry_equiv_pos_as_xyz
1 x,y,z
2 -x,1/2+y,1/2-z
3 -x,-y,-z
4 x,1/2-y,1/2+z
_cell_length_a                   13.062(3)
_cell_length_b                   21.359(4)
_cell_length_c                   17.801(6)
_cell_angle_alpha                90
_cell_angle_beta                 124.57(2)
_cell_angle_gamma                90
_cell_volume                     4089.44
loop_
_atom_site_label
_atom_site_type_symbol
_atom_site_fract_x
_atom_site_fract_y
_atom_site_fract_z
Eu1 Eu -0.10426(4) -0.57963(2) 0.01190(3)
S1 S 0.6707(2) 0.16064(12) 0.37523(17)
S2 S 0.1795(2) -0.59181(11) 0.01647(16)
O1 O 0.6676(6) 0.0941(3) 0.3912(4)
O2 O 0.8028(6) 0.1785(3) 0.4299(5)
O3 O 0.6033(7) 0.1785(4) 0.2815(5)
O4 O 0.0766(5) -0.6118(3) 0.0232(4)
O5 O 0.1814(6) -0.5239(3) 0.0071(4)
O6 O -0.1795(6) -0.3747(3) 0.0528(4)
O7 O 0.1279(6) -0.4528(4) 0.1208(4)
O8 O 0.0500(7) -0.5342(4) 0.1476(5)
N1 N -0.2216(7) -0.5923(4) 0.0882(5)
N2 N -0.0252(7) -0.6649(4) 0.1370(6)
C1 C 0.6048(8) 0.2018(4) 0.4241(6)
C2 C 0.6724(10) 0.2505(5) 0.4838(7)
H1 H 0.7494 0.2612 0.4959
C3 C 0.6262(12) 0.2833(6) 0.5254(9)
H2 H 0.6714 0.3165 0.5642
C4 C 0.5154(13) 0.2674(6) 0.5098(9)
H3 H 0.4852 0.2889 0.5388
C5 C 0.4476(11) 0.2190(6) 0.4506(9)
H4 H 0.3717 0.2086 0.4408
C6 C 0.4867(10) 0.1851(5) 0.4052(7)
C7 C 0.4109(9) 0.1349(5) 0.3411(7)
H5 H 0.4358 0.1192 0.3052
C8 C 0.3119(11) 0.1102(6) 0.3298(7)
H6 H 0.2919 0.1251 0.3690
C9 C 0.2266(11) 0.0622(6) 0.2642(7)
C10 C 0.2491(12) 0.0310(7) 0.2067(9)
H7 H 0.3206 0.0401 0.2091
C11 C 0.1677(12) -0.0132(7) 0.1461(9)
H8 H 0.1860 -0.0343 0.1093
C12 C 0.0562(12) -0.0272(6) 0.1387(8)
C13 C 0.0394(13) 0.0030(7) 0.1991(9)
H9 H -0.0296 -0.0071 0.1994
C14 C 0.1212(11) 0.0479(7) 0.2594(9)
H10 H 0.1042 0.0686 0.2972
C15 C -0.0299(13) -0.0738(6) 0.0745(9)
C16 C -0.1596(15) -0.0662(7) 0.0289(11)
H11 H -0.1898 -0.0302 0.0396
C17 C -0.2445(13) -0.1116(7) -0.0323(10)
H12 H -0.3296 -0.1044 -0.0642
C18 C -0.2013(12) -0.1668(5) -0.0449(8)
C19 C -0.0797(13) -0.1724(8) -0.0046(11)
H13 H -0.0498 -0.2081 -0.0160
C20 C 0.0048(13) -0.1273(7) 0.0538(11)
H14 H 0.0889 -0.1341 0.0800
C21 C -0.3153(8) -0.3904(4) -0.1243(6)
C22 C -0.3884(8) -0.4388(6) -0.1821(7)
H15 H -0.3686 -0.4801 -0.1623
C23 C -0.4906(10) -0.4257(6) -0.2688(8)
H16 H -0.5395 -0.4583 -0.3070
C24 C -0.5202(10) -0.3666(6) -0.2986(7)
H17 H -0.5880 -0.3586 -0.3578
C25 C -0.4496(10) -0.3163(6) -0.2408(7)
H18 H -0.4727 -0.2755 -0.2619
C26 C -0.3455(8) -0.3269(5) -0.1525(6)
C27 C -0.2682(9) -0.2751(5) -0.0931(7)
H19 H -0.1937 -0.2862 -0.0392
C28 C -0.2916(11) -0.2149(5) -0.1071(8)
H20 H -0.3679 -0.2020 -0.1580
C29 C 0.1299(8) -0.4933(5) 0.1724(6)
C30 C 0.2384(8) -0.4942(5) 0.2705(5)
C31 C 0.3141(10) -0.4431(6) 0.3082(7)
H21 H 0.2973 -0.4073 0.2732
C32 C 0.4168(11) -0.4443(6) 0.3992(7)
H22 H 0.4660 -0.4088 0.4254
C33 C 0.4453(9) -0.4992(5) 0.4509(6)
C34 C 0.6304(10) -0.4495(5) 0.5897(7)
H23 H 0.6118 -0.4123 0.5572
C35 C 0.7343(9) -0.4529(6) 0.6789(6)
H24 H 0.7865 -0.4183 0.7046
C36 C 0.0760(10) -0.6979(6) 0.1670(8)
H25 H 0.1242 -0.6880 0.1454
C37 C 0.1156(13) -0.7471(7) 0.2297(9)
H26 H 0.1873 -0.7694 0.2477
C38 C 0.0486(13) -0.7620(6) 0.2639(9)
H27 H 0.0740 -0.7943 0.3059
C39 C -0.0587(11) -0.7281(6) 0.2348(8)
C40 C -0.1390(13) -0.7416(6) 0.2635(8)
H28 H -0.1211 -0.7753 0.3021
C41 C -0.2405(13) -0.7061(7) 0.2354(8)
H29 H -0.2903 -0.7155 0.2558
C42 C -0.2720(10) -0.6552(5) 0.1758(7)
C43 C -0.3766(12) -0.6176(7) 0.1444(9)
H30 H -0.4319 -0.6270 0.1599
C44 C -0.3969(12) -0.5673(6) 0.0913(9)
H31 H -0.4625 -0.5402 0.0741
C45 C -0.3202(9) -0.5564(5) 0.0628(8)
H32 H -0.3376 -0.5227 0.0242
C46 C -0.1956(9) -0.6400(5) 0.1459(6)
C47 C -0.0903(9) -0.6783(5) 0.1730(6)
Eu1B Eu 0.10426(4) -0.42037(2) -0.01190(3)
Eu1_2 Eu 0.89574(4) -0.57963(2) 1.01190(3)
Eu1B_2 Eu 1.10426(4) -0.42037(2) 0.98810(3)
Eu1C Eu 0.89574(4) 0.07963(2) 0.51190(3)
Eu1A Eu -0.89574(4) -1.07963(2) -0.51190(3)
S1B S -0.6707(2) -1.16064(12) -0.37523(17)
S2B S -0.1795(2) -0.40819(11) -0.01647(16)
O1C O -0.3324(6) -0.5941(3) -0.1088(4)
O1A O 0.3324(6) -0.4059(3) 0.1088(4)
O1B O -0.6676(6) -1.0941(3) -0.3912(4)
O2C O -0.1972(6) -0.6785(3) -0.0701(5)
O2A O 0.1972(6) -0.3215(3) 0.0701(5)
O2B O -0.8028(6) -1.1785(3) -0.4299(5)
O3B O -0.6033(7) -1.1785(4) -0.2815(5)
O4B O -0.0766(5) -0.3882(3) -0.0232(4)
O5B O -0.1814(6) -0.4761(3) -0.0071(4)
O6B O 0.1795(6) -0.6253(3) -0.0528(4)
O7B O -0.1279(6) -0.5472(4) -0.1208(4)
O7B_2 O 0.8721(6) -0.5472(4) 0.8792(4)
O8B O -0.0500(7) -0.4658(4) -0.1476(5)
O8B_2 O 0.9500(7) -0.4658(4) 0.8524(5)
N1B N 0.2216(7) -0.4077(4) -0.0882(5)
N2B N 0.0252(7) -0.3351(4) -0.1370(6)
C1B C -0.6048(8) -1.2018(4) -0.4241(6)
C2B C -0.6724(10) -1.2505(5) -0.4838(7)
H1B H -0.7494 -1.2612 -0.4959
C3B C -0.6262(12) -1.2833(6) -0.5254(9)
H2B H -0.6714 -1.3165 -0.5642
C4B C -0.5154(13) -1.2674(6) -0.5098(9)
H3B H -0.4852 -1.2889 -0.5388
C5B C -0.4476(11) -1.2190(6) -0.4506(9)
H4B H -0.3717 -1.2086 -0.4408
C6B C -0.4867(10) -1.1851(5) -0.4052(7)
C7B C -0.4109(9) -1.1349(5) -0.3411(7)
H5B H -0.4358 -1.1192 -0.3052
C8B C -0.3119(11) -1.1102(6) -0.3298(7)
H6B H -0.2919 -1.1251 -0.3690
C9B C -0.2266(11) -1.0622(6) -0.2642(7)
C10B C -0.2491(12) -1.0310(7) -0.2067(9)
H7B H -0.3206 -1.0401 -0.2091
C11B C -0.1677(12) -0.9868(7) -0.1461(9)
H8B H -0.1860 -0.9657 -0.1093
C12B C -0.0562(12) -0.9728(6) -0.1387(8)
C13B C -0.0394(13) -1.0030(7) -0.1991(9)
H9B H 0.0296 -0.9929 -0.1994
C14B C -0.1212(11) -1.0479(7) -0.2594(9)
H10B H -0.1042 -1.0686 -0.2972
C15B C 0.0299(13) -0.9262(6) -0.0745(9)
C16B C 0.1596(15) -0.9338(7) -0.0289(11)
H11B H 0.1898 -0.9698 -0.0396
C17B C 0.2445(13) -0.8884(7) 0.0323(10)
H12B H 0.3296 -0.8956 0.0642
C18B C 0.2013(12) -0.8332(5) 0.0449(8)
C19B C 0.0797(13) -0.8276(8) 0.0046(11)
H13B H 0.0498 -0.7919 0.0160
C20B C -0.0048(13) -0.8727(7) -0.0538(11)
H14B H -0.0889 -0.8659 -0.0800
C21B C 0.3153(8) -0.6096(4) 0.1243(6)
C22B C 0.3884(8) -0.5612(6) 0.1821(7)
H15B H 0.3686 -0.5199 0.1623
C23B C 0.4906(10) -0.5743(6) 0.2688(8)
H16B H 0.5395 -0.5417 0.3070
C24B C 0.5202(10) -0.6334(6) 0.2986(7)
H17B H 0.5880 -0.6414 0.3578
C25B C 0.4496(10) -0.6837(6) 0.2408(7)
H18B H 0.4727 -0.7245 0.2619
C26B C 0.3455(8) -0.6731(5) 0.1525(6)
C27B C 0.2682(9) -0.7249(5) 0.0931(7)
H19B H 0.1937 -0.7138 0.0392
C28B C 0.2916(11) -0.7851(5) 0.1071(8)
H20B H 0.3679 -0.7980 0.1580
C29B C 0.8701(8) -0.5067(5) 0.8276(6)
C30B C 0.7616(8) -0.5058(5) 0.7295(5)
C31B C 0.6859(10) -0.5569(6) 0.6918(7)
H21B H 0.7027 -0.5927 0.7268
C32B C 0.5832(11) -0.5557(6) 0.6008(7)
H22B H 0.5340 -0.5912 0.5746
C33B C 0.5547(9) -0.5008(5) 0.5491(6)
C34B C 0.3696(10) -0.5505(5) 0.4103(7)
H23B H 0.3882 -0.5877 0.4428
C35B C 0.2657(9) -0.5471(6) 0.3211(6)
H24B H 0.2135 -0.5817 0.2954
C36B C -0.0760(10) -0.3021(6) -0.1670(8)
H25B H -0.1242 -0.3120 -0.1454
C37B C -0.1156(13) -0.2529(7) -0.2297(9)
H26B H -0.1873 -0.2306 -0.2477
C38B C -0.0486(13) -0.2380(6) -0.2639(9)
H27B H -0.0740 -0.2057 -0.3059
C39B C 0.0587(11) -0.2719(6) -0.2348(8)
C40B C 0.1390(13) -0.2584(6) -0.2635(8)
H28B H 0.1211 -0.2247 -0.3021
C41B C 0.2405(13) -0.2939(7) -0.2354(8)
H29B H 0.2903 -0.2845 -0.2558
C42B C 0.2720(10) -0.3448(5) -0.1758(7)
C43B C 0.3766(12) -0.3824(7) -0.1444(9)
H30B H 0.4319 -0.3730 -0.1599
C44B C 0.3969(12) -0.4327(6) -0.0913(9)
H31B H 0.4625 -0.4598 -0.0741
C45B C 0.3202(9) -0.4436(5) -0.0628(8)
H32B H 0.3376 -0.4773 -0.0242
C46B C 0.1956(9) -0.3600(5) -0.1459(6)
C47B C 0.0903(9) -0.3217(5) -0.1730(6)
loop_
_geom_bond_atom_site_label_1
_geom_bond_atom_site_label_2
_geom_bond_site_symmetry_1
_geom_bond_site_symmetry_2
Eu1 O4 1_555 1_555
S1 O1 1_555 1_555
S2 O4 1_555 1_555
O1 Eu1C 1_555 1_555
O2 S1 1_555 1_555
O3 S1 1_555 1_555
O5 S2 1_555 1_555
O6 S2B 1_555 1_555
O7 C29 1_555 1_555
O8 Eu1 1_555 1_555
N1 Eu1 1_555 1_555
N2 Eu1 1_555 1_555
C1 S1 1_555 1_555
C2 C1 1_555 1_555
H1 C2 1_555 1_555
C3 C2 1_555 1_555
H2 C3 1_555 1_555
C4 C3 1_555 1_555
H3 C4 1_555 1_555
C5 C4 1_555 1_555
H4 C5 1_555 1_555
C6 C1 1_555 1_555
C7 C6 1_555 1_555
H5 C7 1_555 1_555
C8 C7 1_555 1_555
H6 C8 1_555 1_555
C9 C8 1_555 1_555
C10 C9 1_555 1_555
H7 C10 1_555 1_555
C11 C10 1_555 1_555
H8 C11 1_555 1_555
C12 C11 1_555 1_555
C13 C12 1_555 1_555
H9 C13 1_555 1_555
C14 C9 1_555 1_555
H10 C14 1_555 1_555
C15 C12 1_555 1_555
C16 C15 1_555 1_555
H11 C16 1_555 1_555
C17 C16 1_555 1_555
H12 C17 1_555 1_555
C18 C17 1_555 1_555
C19 C18 1_555 1_555
H13 C19 1_555 1_555
C20 C15 1_555 1_555
H14 C20 1_555 1_555
C21 C22 1_555 1_555
C22 H15 1_555 1_555
C23 C22 1_555 1_555
H16 C23 1_555 1_555
C24 C23 1_555 1_555
H17 C24 1_555 1_555
C25 C24 1_555 1_555
H18 C25 1_555 1_555
C26 C21 1_555 1_555
C27 C26 1_555 1_555
H19 C27 1_555 1_555
C28 C18 1_555 1_555
H20 C28 1_555 1_555
C29 O8 1_555 1_555
C30 C29 1_555 1_555
C31 C30 1_555 1_555
H21 C31 1_555 1_555
C32 C31 1_555 1_555
H22 C32 1_555 1_555
C33 C32 1_555 1_555
C34 H23 1_555 1_555
C35 C34 1_555 1_555
H24 C35 1_555 1_555
C36 N2 1_555 1_555
H25 C36 1_555 1_555
C37 C36 1_555 1_555
H26 C37 1_555 1_555
C38 C37 1_555 1_555
H27 C38 1_555 1_555
C39 C38 1_555 1_555
C40 C39 1_555 1_555
H28 C40 1_555 1_555
C41 C40 1_555 1_555
H29 C41 1_555 1_555
C42 C41 1_555 1_555
C43 C42 1_555 1_555
H30 C43 1_555 1_555
C44 C43 1_555 1_555
H31 C44 1_555 1_555
C45 N1 1_555 1_555
H32 C45 1_555 1_555
C46 N1 1_555 1_555
C47 N2 1_555 1_555
Eu1B O5 1_555 1_555
Eu1_2 O7B_2 1_555 1_555
Eu1B_2 O8B_2 1_555 1_555
Eu1C O2 1_555 1_555
Eu1A O1B 1_555 1_555
S1B O1B 1_555 1_555
S2B C21 1_555 1_555
O1C Eu1 1_555 1_555
O1A Eu1B 1_555 1_555
O2C Eu1 1_555 1_555
O2A Eu1B 1_555 1_555
O2B Eu1A 1_555 1_555
O3B S1B 1_555 1_555
O4B Eu1B 1_555 1_555
O5B Eu1 1_555 1_555
O6B S2 1_555 1_555
O7B Eu1 1_555 1_555
O7B_2 C29B 1_555 1_555
O8B Eu1B 1_555 1_555
O8B_2 C29B 1_555 1_555
N1B Eu1B 1_555 1_555
N2B Eu1B 1_555 1_555
C1B S1B 1_555 1_555
C2B C1B 1_555 1_555
H1B C2B 1_555 1_555
C3B C2B 1_555 1_555
H2B C3B 1_555 1_555
C4B C3B 1_555 1_555
H3B C4B 1_555 1_555
C5B C4B 1_555 1_555
H4B C5B 1_555 1_555
C6B C1B 1_555 1_555
C7B C6B 1_555 1_555
H5B C7B 1_555 1_555
C8B C7B 1_555 1_555
H6B C8B 1_555 1_555
C9B C8B 1_555 1_555
C10B C9B 1_555 1_555
H7B C10B 1_555 1_555
C11B C10B 1_555 1_555
H8B C11B 1_555 1_555
C12B C11B 1_555 1_555
C13B C12B 1_555 1_555
H9B C13B 1_555 1_555
C14B C9B 1_555 1_555
H10B C14B 1_555 1_555
C15B C12B 1_555 1_555
C16B C15B 1_555 1_555
H11B C16B 1_555 1_555
C17B C16B 1_555 1_555
H12B C17B 1_555 1_555
C18B C17B 1_555 1_555
C19B C18B 1_555 1_555
H13B C19B 1_555 1_555
C20B C15B 1_555 1_555
H14B C20B 1_555 1_555
C21B S2 1_555 1_555
C22B C21B 1_555 1_555
H15B C22B 1_555 1_555
C23B C22B 1_555 1_555
H16B C23B 1_555 1_555
C24B C23B 1_555 1_555
H17B C24B 1_555 1_555
C25B C24B 1_555 1_555
H18B C25B 1_555 1_555
C26B C21B 1_555 1_555
C27B C26B 1_555 1_555
H19B C27B 1_555 1_555
C28B C18B 1_555 1_555
H20B C28B 1_555 1_555
C29B C30B 1_555 1_555
C30B C35 1_555 1_555
C31B C30B 1_555 1_555
H21B C31B 1_555 1_555
C32B C31B 1_555 1_555
H22B C32B 1_555 1_555
C33B C33 1_555 1_555
C34B C33 1_555 1_555
H23B C34B 1_555 1_555
C35B C30 1_555 1_555
H24B C35B 1_555 1_555
C36B N2B 1_555 1_555
H25B C36B 1_555 1_555
C37B C36B 1_555 1_555
H26B C37B 1_555 1_555
C38B C37B 1_555 1_555
H27B C38B 1_555 1_555
C39B C38B 1_555 1_555
C40B C39B 1_555 1_555
H28B C40B 1_555 1_555
C41B C40B 1_555 1_555
H29B C41B 1_555 1_555
C42B C41B 1_555 1_555
C43B C42B 1_555 1_555
H30B C43B 1_555 1_555
C44B C43B 1_555 1_555
H31B C44B 1_555 1_555
C45B N1B 1_555 1_555
H32B C45B 1_555 1_555
C46B N1B 1_555 1_555
C47B N2B 1_555 1_555
O7 Eu1B 1_555 1_555
C5 C6 1_555 1_555
C13 C14 1_555 1_555
C19 C20 1_555 1_555
C25 C26 1_555 1_555
C27 C28 1_555 1_555
C34 C33B 1_555 1_555
C39 C47 1_555 1_555
C42 C46 1_555 1_555
C44 C45 1_555 1_555
C46 C47 1_555 1_555
S1B O2B 1_555 1_555
S2B O4B 1_555 1_555
S2B O5B 1_555 1_555
C5B C6B 1_555 1_555
C13B C14B 1_555 1_555
C19B C20B 1_555 1_555
C25B C26B 1_555 1_555
C27B C28B 1_555 1_555
C32B C33B 1_555 1_555
C34B C35B 1_555 1_555
C39B C47B 1_555 1_555
C42B C46B 1_555 1_555
C44B C45B 1_555 1_555
C46B C47B 1_555 1_555

#END
