
#######################################################################
#
#                 Cambridge Crystallographic Data Centre
#                                CCDC 
#
#######################################################################
#
# If this CIF has been generated from an entry in the Cambridge 
# Structural Database, then it will include bibliographic, chemical, 
# crystal, experimental, refinement or atomic coordinate data resulting 
# from the CCDC's data processing and validation procedures.
#
#######################################################################

data_REFBIP
_symmetry_cell_setting           monoclinic
_symmetry_space_group_name_H-M   'P 21'
_symmetry_Int_Tables_number      4
_space_group_name_Hall           'P 2yb'
loop_
_symmetry_equiv_pos_site_id
_symmetry_equiv_pos_as_xyz
1 x,y,z
2 -x,1/2+y,-z
_cell_length_a                   9.586(3)
_cell_length_b                   12.713(3)
_cell_length_c                   15.915(4)
_cell_angle_alpha                90
_cell_angle_beta                 107.059(4)
_cell_angle_gamma                90
_cell_volume                     1854.18
loop_
_atom_site_label
_atom_site_type_symbol
_atom_site_fract_x
_atom_site_fract_y
_atom_site_fract_z
Ag1 Ag 0.33682(5) 0.39009(4) 0.25018(3)
Ag2 Ag 0.21992(5) -0.06631(4) 0.34539(3)
C1 C 0.3765(7) 0.5618(6) 0.4719(4)
H1 H 0.3478 0.6292 0.4471
C2 C 0.5071(8) 0.5496(6) 0.5373(4)
H2 H 0.5664 0.6098 0.5567
C3 C 0.4683(7) 0.3732(6) 0.5466(4)
H3 H 0.5001 0.3068 0.5725
C4 C 0.3347(6) 0.3779(7) 0.4817(4)
H4 H 0.2772 0.3164 0.4644
C5 C 0.2868(7) 0.4744(6) 0.4424(4)
C6 C 0.1446(7) 0.4868(6) 0.3713(4)
H5 H 0.0631 0.4789 0.3973
H6 H 0.1393 0.5585 0.3463
C7 C 0.0035(6) 0.4303(6) 0.2206(4)
H7 H 0.0151 0.5042 0.2022
C8 C -0.1438(6) 0.4241(6) 0.2384(4)
H8 H -0.1471 0.4776 0.2829
H9 H -0.1537 0.3541 0.2633
C9 C -0.2723(7) 0.4415(7) 0.1566(4)
H10 H -0.3651 0.4322 0.1712
H11 H -0.2696 0.5141 0.1346
C10 C -0.2641(6) 0.3631(7) 0.0863(4)
H12 H -0.3466 0.3749 0.0326
H13 H -0.2723 0.2907 0.1073
C11 C -0.1206(6) 0.3748(7) 0.0644(4)
H14 H -0.1158 0.4459 0.0400
H15 H -0.1171 0.3228 0.0188
C12 C 0.0114(6) 0.3588(5) 0.1449(4)
H16 H 0.0113 0.2841 0.1646
C13 C 0.1857(7) 0.3036(6) 0.0618(4)
H17 H 0.2623 0.3341 0.0389
H18 H 0.0972 0.2932 0.0115
C14 C 0.2373(7) 0.1978(5) 0.1035(4)
C15 C 0.3848(7) 0.1781(6) 0.1416(4)
H19 H 0.4542 0.2317 0.1423
C16 C 0.4316(7) 0.0807(6) 0.1786(5)
H20 H 0.5328 0.0670 0.2036
C17 C 0.3296(7) 0.0034(5) 0.1788(4)
H21 H 0.3613 -0.0630 0.2047
C18 C 0.1823(7) 0.0221(5) 0.1417(4)
C19 C 0.1369(7) 0.1177(5) 0.1033(4)
H22 H 0.0359 0.1297 0.0762
C20 C 0.0731(6) -0.0627(5) 0.1441(3)
H23 H -0.0130 -0.0559 0.0917
H24 H 0.1176 -0.1325 0.1415
C21 C -0.0857(6) -0.1383(5) 0.2240(4)
H25 H -0.0519 -0.2064 0.2053
C22 C -0.2348(6) -0.1122(6) 0.1597(4)
H26 H -0.2709 -0.0456 0.1779
H27 H -0.2238 -0.1016 0.1003
C23 C -0.3466(7) -0.1983(7) 0.1555(5)
H28 H -0.4421 -0.1767 0.1151
H29 H -0.3157 -0.2636 0.1320
C24 C -0.3624(8) -0.2194(7) 0.2459(5)
H30 H -0.4284 -0.2801 0.2429
H31 H -0.4064 -0.1573 0.2657
C25 C -0.2130(7) -0.2430(6) 0.3125(5)
H32 H -0.2254 -0.2526 0.3716
H33 H -0.1738 -0.3093 0.2959
C26 C -0.1050(6) -0.1541(5) 0.3154(4)
H34 H -0.1479 -0.0880 0.3314
C27 C 0.0243(7) -0.1670(5) 0.4722(4)
H35 H -0.0217 -0.2323 0.4853
H36 H -0.0391 -0.1071 0.4767
C28 C 0.1738(7) -0.1534(6) 0.5390(4)
C29 C 0.2496(7) -0.2390(6) 0.5828(4)
H37 H 0.2106 -0.3079 0.5709
C30 C 0.3829(7) -0.2228(6) 0.6441(4)
H38 H 0.4348 -0.2826 0.6729
C31 C 0.3684(7) -0.0453(6) 0.6234(4)
H39 H 0.4079 0.0232 0.6376
C32 C 0.2348(7) -0.0553(7) 0.5600(4)
H40 H 0.1854 0.0054 0.5311
N1 N 0.5542(6) 0.4558(5) 0.5747(3)
N2 N 0.1274(4) 0.4089(4) 0.3000(3)
H44 H 0.1101 0.3440 0.3221
N3 N 0.1520(5) 0.3788(5) 0.1246(3)
H45 H 0.1435 0.4448 0.0983
N4 N 0.0256(5) -0.0565(5) 0.2240(3)
H46 H -0.0178 0.0089 0.2243
N5 N 0.0369(5) -0.1725(4) 0.3833(3)
H47 H 0.0614 -0.2419 0.3758
N6 N 0.4446(5) -0.1275(5) 0.6658(3)
Ag1A Ag 0.66318(5) -0.10991(4) 0.74982(3)
Ag2A Ag 0.78008(5) 0.43369(4) 0.65461(3)
N1A N 0.4458(6) -0.0442(5) 0.4253(3)
N6A N 0.5554(5) 0.3725(5) 0.3342(3)
C33 C 0.3711(9) -0.4219(8) 0.0312(5)
H41 H 0.3847 -0.3801 -0.0175
H42 H 0.4056 -0.4938 0.0276
H43 H 0.4268 -0.3903 0.0872
O7 O 0.2238(5) -0.4239(4) 0.0262(4)
H48 H 0.1445 -0.4061 0.0423
N7 N 0.2677(7) 0.6694(5) 0.2370(5)
O1 O 0.3640(5) 0.6014(4) 0.2453(3)
O2 O 0.1698(6) 0.6777(4) 0.1655(4)
O3 O 0.2652(6) 0.7250(4) 0.3010(4)
N8 N 0.0205(8) 0.1389(5) 0.3632(5)
O4 O -0.0151(6) 0.0823(4) 0.4155(4)
O5 O 0.1356(7) 0.1823(5) 0.3835(5)
O6 O -0.0668(7) 0.1507(5) 0.2880(4)
loop_
_geom_bond_atom_site_label_1
_geom_bond_atom_site_label_2
_geom_bond_site_symmetry_1
_geom_bond_site_symmetry_2
Ag1 N2 1_555 1_555
Ag2 N4 1_555 1_555
C1 H1 1_555 1_555
C2 C1 1_555 1_555
H2 C2 1_555 1_555
C3 H3 1_555 1_555
C4 C3 1_555 1_555
H4 C4 1_555 1_555
C5 C1 1_555 1_555
C6 C5 1_555 1_555
H5 C6 1_555 1_555
H6 C6 1_555 1_555
C7 H7 1_555 1_555
C8 C7 1_555 1_555
H8 C8 1_555 1_555
H9 C8 1_555 1_555
C9 C8 1_555 1_555
H10 C9 1_555 1_555
H11 C9 1_555 1_555
C10 C9 1_555 1_555
H12 C10 1_555 1_555
H13 C10 1_555 1_555
C11 C10 1_555 1_555
H14 C11 1_555 1_555
H15 C11 1_555 1_555
C12 C7 1_555 1_555
H16 C12 1_555 1_555
C13 H17 1_555 1_555
H18 C13 1_555 1_555
C14 C13 1_555 1_555
C15 C14 1_555 1_555
H19 C15 1_555 1_555
C16 C15 1_555 1_555
H20 C16 1_555 1_555
C17 C16 1_555 1_555
H21 C17 1_555 1_555
C18 C17 1_555 1_555
C19 C14 1_555 1_555
H22 C19 1_555 1_555
C20 C18 1_555 1_555
H23 C20 1_555 1_555
H24 C20 1_555 1_555
C21 H25 1_555 1_555
C22 C21 1_555 1_555
H26 C22 1_555 1_555
H27 C22 1_555 1_555
C23 C22 1_555 1_555
H28 C23 1_555 1_555
H29 C23 1_555 1_555
C24 C23 1_555 1_555
H30 C24 1_555 1_555
H31 C24 1_555 1_555
C25 C24 1_555 1_555
H32 C25 1_555 1_555
H33 C25 1_555 1_555
C26 C21 1_555 1_555
H34 C26 1_555 1_555
C27 H35 1_555 1_555
H36 C27 1_555 1_555
C28 C27 1_555 1_555
C29 C28 1_555 1_555
H37 C29 1_555 1_555
C30 C29 1_555 1_555
H38 C30 1_555 1_555
C31 H39 1_555 1_555
C32 C28 1_555 1_555
H40 C32 1_555 1_555
C33 H41 1_555 1_555
H42 C33 1_555 1_555
H43 C33 1_555 1_555
N1 C2 1_555 1_555
N2 C6 1_555 1_555
H44 N2 1_555 1_555
N3 Ag1 1_555 1_555
H45 N3 1_555 1_555
N4 C20 1_555 1_555
H46 N4 1_555 1_555
N5 Ag2 1_555 1_555
H47 N5 1_555 1_555
N6 C30 1_555 1_555
N7 O1 1_555 1_555
N8 O4 1_555 1_555
O2 N7 1_555 1_555
O3 N7 1_555 1_555
O5 N8 1_555 1_555
O6 N8 1_555 1_555
O7 C33 1_555 1_555
H48 O7 1_555 1_555
Ag1A N6 1_555 1_555
Ag2A N1 1_555 1_555
N1A Ag2 1_555 1_555
N6A Ag1 1_555 1_555
C3 N1 1_555 1_555
C4 C5 1_555 1_555
C7 N2 1_555 1_555
C11 C12 1_555 1_555
C12 N3 1_555 1_555
C13 N3 1_555 1_555
C18 C19 1_555 1_555
C21 N4 1_555 1_555
C25 C26 1_555 1_555
C26 N5 1_555 1_555
C27 N5 1_555 1_555
C31 C32 1_555 1_555
C31 N6 1_555 1_555

#END
