
#######################################################################
#
#                 Cambridge Crystallographic Data Centre
#                                CCDC 
#
#######################################################################
#
# If this CIF has been generated from an entry in the Cambridge 
# Structural Database, then it will include bibliographic, chemical, 
# crystal, experimental, refinement or atomic coordinate data resulting 
# from the CCDC's data processing and validation procedures.
#
#######################################################################

data_REFBAH01
_symmetry_cell_setting           monoclinic
_symmetry_space_group_name_H-M   'P 21/c'
_symmetry_Int_Tables_number      14
_space_group_name_Hall           '-P 2ybc'
loop_
_symmetry_equiv_pos_site_id
_symmetry_equiv_pos_as_xyz
1 x,y,z
2 -x,1/2+y,1/2-z
3 -x,-y,-z
4 x,1/2-y,1/2+z
_cell_length_a                   19.1704(3)
_cell_length_b                   10.4373(2)
_cell_length_c                   9.36570(10)
_cell_angle_alpha                90
_cell_angle_beta                 93.2850(10)
_cell_angle_gamma                90
_cell_volume                     1870.88
loop_
_atom_site_label
_atom_site_type_symbol
_atom_site_fract_x
_atom_site_fract_y
_atom_site_fract_z
Cu1 Cu -0.938378(13) 0.57824(3) -0.87415(3)
Cu2 Cu -0.436257(14) 0.89936(3) -0.37392(3)
N1 N -0.46084(8) 0.72220(16) -0.28417(15)
N2 N -1.03140(8) 0.24254(16) -0.73388(15)
N3 N -1.06751(8) 0.26989(16) -0.85826(15)
N4 N -0.99122(8) 0.42276(15) -0.82212(15)
N5 N -1.04325(8) 0.37650(16) -0.91051(15)
N6 N -0.50487(8) 0.54795(16) -0.18853(16)
N7 N -0.45088(8) 0.59348(16) -0.10260(16)
N8 N -0.83183(8) 0.59837(16) -0.84163(17)
C1 C -0.71012(10) 0.3483(2) -0.26287(19)
H1 H -0.6942 0.2931 -0.3318
N9 N -0.77661(8) 0.39384(16) -0.26214(16)
C2 C -0.78581(9) 0.56059(19) -0.74091(18)
H2 H -0.7922 0.4911 -0.6808
C3 C -0.58053(9) 0.73875(19) -0.49087(19)
H3 H -0.5571 0.8141 -0.4654
C4 C -0.91979(9) 0.46927(19) -0.53025(19)
H4 H -0.9446 0.5406 -0.5642
C5 C -0.98483(9) 0.33825(18) -0.71415(18)
C6 C -0.63283(9) 0.74073(19) -0.59903(18)
H5 H -0.6438 0.8165 -0.6474
N10 N -0.72762(8) 0.63590(16) -0.73547(16)
C7 C -0.86972(10) 0.48266(19) -0.41807(18)
H6 H -0.8620 0.5620 -0.3749
N11 N -0.42465(8) 0.69596(16) -0.16029(16)
C8 C -0.50955(9) 0.62954(18) -0.29977(18)
C9 C -0.64941(10) 0.51298(19) -0.56995(19)
H7 H -0.6717 0.4373 -0.5983
C10 C -0.89609(9) 0.24293(19) -0.54016(19)
H8 H -0.9058 0.1625 -0.5792
C11 C -0.84461(10) 0.25600(19) -0.42970(19)
H9 H -0.8195 0.1850 -0.3959
C12 C -0.56246(9) 0.6250(2) -0.41956(18)
C13 C -0.93310(9) 0.34946(19) -0.59238(18)
N12 N -0.67125(8) 0.39252(16) -0.15335(17)
C14 C -0.59626(10) 0.51150(19) -0.46224(19)
H10 H -0.5832 0.4345 -0.4184
C15 C -0.73864(10) 0.72898(19) -0.83925(18)
H11 H -0.7087 0.7956 -0.8600
C16 C -0.71471(10) 0.46866(19) -0.07676(19)
H12 H -0.7016 0.5108 0.0081
C17 C -0.83130(9) 0.3763(2) -0.37083(18)
C18 C -0.66888(9) 0.6286(2) -0.63484(18)
C19 C -0.80198(10) 0.70349(19) -0.90469(18)
H13 H -0.8224 0.7498 -0.9809
C20 C -0.77944(10) 0.47296(19) -0.14366(18)
H14 H -0.8178 0.5194 -0.1157
Cu1A Cu -1.061622(13) 0.07824(3) -0.62585(3)
Cu1B Cu -1.061622(13) 0.42176(3) -1.12585(3)
Cu2A Cu -0.563743(14) 0.39936(3) -0.12608(3)
Cu2C Cu -0.436257(14) 0.60064(3) 0.12608(3)
N2A N -0.96860(8) 0.74254(16) -0.76612(15)
N5B N -0.95675(8) 0.62350(16) -1.08949(15)
N6A N -0.49513(8) 1.04795(16) -0.31147(16)
N7C N -0.45088(8) 0.90652(16) -0.60260(16)
N12A N -0.32875(8) 0.89252(16) -0.34665(17)
loop_
_geom_bond_atom_site_label_1
_geom_bond_atom_site_label_2
_geom_bond_site_symmetry_1
_geom_bond_site_symmetry_2
Cu1 N4 1_555 1_555
Cu2 N1 1_555 1_555
N1 N11 1_555 1_555
N2 N3 1_555 1_555
N3 N5 1_555 1_555
N4 N5 1_555 1_555
N5 Cu1B 1_555 1_555
N6 N7 1_555 1_555
N7 N11 1_555 1_555
N8 Cu1 1_555 1_555
C1 H1 1_555 1_555
N9 C1 1_555 1_555
C2 N8 1_555 1_555
H2 C2 1_555 1_555
C3 H3 1_555 1_555
C4 H4 1_555 1_555
C5 N2 1_555 1_555
C6 C3 1_555 1_555
H5 C6 1_555 1_555
N10 C2 1_555 1_555
C7 C4 1_555 1_555
H6 C7 1_555 1_555
C8 N1 1_555 1_555
C9 H7 1_555 1_555
C10 H8 1_555 1_555
C11 C10 1_555 1_555
H9 C11 1_555 1_555
C12 C3 1_555 1_555
C13 C4 1_555 1_555
N12 C1 1_555 1_555
C14 C9 1_555 1_555
H10 C14 1_555 1_555
C15 N10 1_555 1_555
H11 C15 1_555 1_555
C16 N12 1_555 1_555
H12 C16 1_555 1_555
C17 N9 1_555 1_555
C18 C6 1_555 1_555
C19 N8 1_555 1_555
H13 C19 1_555 1_555
C20 N9 1_555 1_555
H14 C20 1_555 1_555
Cu1A N2 1_555 1_555
Cu2A N6 1_555 1_555
Cu2C N7 1_555 1_555
N2A Cu1 1_555 1_555
N5B Cu1 1_555 1_555
N6A Cu2 1_555 1_555
N7C Cu2 1_555 1_555
N12A Cu2 1_555 1_555
N4 C5 1_555 1_555
N6 C8 1_555 1_555
C5 C13 1_555 1_555
N10 C18 1_555 1_555
C7 C17 1_555 1_555
C8 C12 1_555 1_555
C9 C18 1_555 1_555
C10 C13 1_555 1_555
C11 C17 1_555 1_555
C12 C14 1_555 1_555
N12 Cu2A 1_555 1_555
C15 C19 1_555 1_555
C16 C20 1_555 1_555

#END
