
#######################################################################
#
#                 Cambridge Crystallographic Data Centre
#                                CCDC 
#
#######################################################################
#
# If this CIF has been generated from an entry in the Cambridge 
# Structural Database, then it will include bibliographic, chemical, 
# crystal, experimental, refinement or atomic coordinate data resulting 
# from the CCDC's data processing and validation procedures.
#
#######################################################################

data_REFBOV
_symmetry_cell_setting           monoclinic
_symmetry_space_group_name_H-M   'P 21/c'
_symmetry_Int_Tables_number      14
_space_group_name_Hall           '-P 2ybc'
loop_
_symmetry_equiv_pos_site_id
_symmetry_equiv_pos_as_xyz
1 x,y,z
2 -x,1/2+y,1/2-z
3 -x,-y,-z
4 x,1/2-y,1/2+z
_cell_length_a                   13.009(3)
_cell_length_b                   21.329(4)
_cell_length_c                   17.844(6)
_cell_angle_alpha                90
_cell_angle_beta                 124.83(2)
_cell_angle_gamma                90
_cell_volume                     4064.16
loop_
_atom_site_label
_atom_site_type_symbol
_atom_site_fract_x
_atom_site_fract_y
_atom_site_fract_z
Dy1 Dy 0.103024(12) 0.579830(6) 0.488196(9)
S1 S -0.17900(7) 0.59058(3) 0.48290(5)
S2 S 0.67352(7) 1.16068(4) 0.87613(6)
O1 O -0.0779(2) 0.61172(10) 0.47570(15)
O2 O -0.1806(2) 0.62296(11) 0.55232(15)
O3 O -0.1792(2) 0.52253(9) 0.49129(15)
O4 O 0.6063(2) 1.17843(11) 0.78203(16)
O5 O 0.8073(2) 1.17801(10) 0.93136(17)
O6 O 0.6684(2) 1.09377(9) 0.89175(15)
O7 O -0.0488(2) 0.53416(11) 0.35678(15)
O8 O -0.1278(2) 0.45084(13) 0.38043(15)
N1 N 0.0218(2) 0.66439(12) 0.36396(18)
N2 N 0.2191(2) 0.59057(11) 0.41336(18)
C1 C -0.0791(4) 0.69871(18) 0.3351(3)
H1 H -0.1261 0.6898 0.3581
C2 C -0.1190(4) 0.7478(2) 0.2719(3)
H2 H -0.1914 0.7702 0.2530
C3 C -0.0511(4) 0.7619(2) 0.2393(3)
H3 H -0.0753 0.7949 0.1983
C4 C 0.0562(4) 0.72711(17) 0.2669(3)
C5 C 0.1357(4) 0.74053(19) 0.2368(3)
H4 H 0.1160 0.7737 0.1969
C6 C 0.2376(4) 0.7058(2) 0.2659(3)
H5 H 0.2891 0.7161 0.2472
C7 C 0.2691(4) 0.65327(17) 0.3249(3)
C8 C 0.3725(4) 0.6146(2) 0.3548(3)
H6 H 0.4257 0.6228 0.3368
C9 C 0.3951(4) 0.56525(19) 0.4100(3)
H7 H 0.4625 0.5388 0.4288
C10 C 0.3173(3) 0.55448(16) 0.4382(3)
H8 H 0.3343 0.5205 0.4763
C11 C 0.1945(3) 0.63892(14) 0.3564(2)
C12 C 0.0880(3) 0.67751(14) 0.3283(2)
C13 C -0.1303(3) 0.49219(15) 0.3295(2)
C14 C -0.2368(3) 0.49316(14) 0.23149(19)
C15 C -0.2659(3) 0.54774(16) 0.1814(2)
H9 H -0.2154 0.5830 0.2081
C16 C -0.3693(3) 0.55026(16) 0.0922(2)
H10 H -0.3888 0.5878 0.0604
C17 C -0.4450(3) 0.49868(14) 0.0485(2)
C18 C -0.4142(3) 0.44431(16) 0.1000(2)
H11 H -0.4634 0.4088 0.0729
C19 C -0.3127(3) 0.44135(16) 0.1904(2)
H12 H -0.2956 0.4045 0.2234
C20 C -0.3181(3) 0.60875(13) 0.3748(2)
C21 C -0.3900(3) 0.55961(14) 0.3172(2)
H13 H -0.3684 0.5184 0.3372
C22 C -0.4934(3) 0.57211(16) 0.2302(2)
H14 H -0.5416 0.5394 0.1913
C23 C -0.5249(3) 0.63356(17) 0.2012(2)
H15 H -0.5939 0.6421 0.1423
C24 C -0.4547(3) 0.68232(15) 0.2589(2)
H16 H -0.4784 0.7233 0.2383
C25 C -0.3492(3) 0.67197(14) 0.3471(2)
C26 C -0.2714(3) 0.72414(14) 0.4067(2)
H17 H -0.1956 0.7132 0.4603
C27 C -0.2962(4) 0.78420(15) 0.3932(3)
H18 H -0.3741 0.7967 0.3428
C28 C -0.2064(4) 0.83314(16) 0.4540(3)
C29 C -0.2484(4) 0.88898(18) 0.4675(3)
H19 H -0.3340 0.8962 0.4360
C30 C -0.1650(4) 0.9341(2) 0.5268(4)
H20 H -0.1954 0.9706 0.5360
C31 C -0.0352(4) 0.92551(16) 0.5735(3)
C32 C 0.0024(4) 0.8717(2) 0.5551(4)
H21 H 0.0874 0.8654 0.5822
C33 C -0.0821(4) 0.8257(2) 0.4969(4)
H22 H -0.0519 0.7891 0.4875
C34 C 0.0546(4) 0.97351(17) 0.6384(3)
C35 C 0.0347(4) 1.0048(2) 0.6966(3)
H23 H -0.0371 0.9961 0.6944
C36 C 0.1185(4) 1.0485(2) 0.7581(3)
H24 H 0.1021 1.0684 0.7966
C37 C 0.2253(4) 1.06361(16) 0.7640(3)
C38 C 0.2466(4) 1.03243(19) 0.7057(3)
H25 H 0.3180 1.0417 0.7077
C39 C 0.1637(4) 0.98798(19) 0.6449(3)
H26 H 0.1811 0.9673 0.6075
C40 C 0.3106(4) 1.11111(16) 0.8300(3)
H27 H 0.2916 1.1257 0.8699
C41 C 0.4107(3) 1.13577(15) 0.8400(2)
H28 H 0.4337 1.1206 0.8027
C42 C 0.4888(3) 1.18532(15) 0.9055(2)
C43 C 0.4478(4) 1.21973(18) 0.9509(3)
H29 H 0.3711 1.2098 0.9407
C44 C 0.5179(4) 1.26779(19) 1.0102(3)
H30 H 0.4884 1.2893 1.0396
C45 C 0.6312(4) 1.28426(17) 1.0262(3)
H31 H 0.6770 1.3176 1.0648
C46 C 0.6759(4) 1.25087(15) 0.9846(3)
H32 H 0.7532 1.2611 0.9961
C47 C 0.6064(3) 1.20183(14) 0.9253(2)
Dy1B Dy -0.103024(12) 0.420170(6) 0.511804(9)
Dy1A Dy 0.896976(12) 1.079830(6) 1.011804(9)
Dy1B_2 Dy -1.103024(12) 0.420170(6) -0.488196(9)
Dy1_2 Dy -0.896976(12) 0.579830(6) -0.511804(9)
Dy1C Dy -0.896976(12) -0.079830(6) -0.011804(9)
S1B S 0.17900(7) 0.40942(3) 0.51710(5)
S2B S -0.67352(7) -0.16068(4) 0.12387(6)
O1B O 0.0779(2) 0.38828(10) 0.52430(15)
O2B O 0.1806(2) 0.37704(11) 0.44768(15)
O3B O 0.1792(2) 0.47747(9) 0.50871(15)
O4B O -0.6063(2) -0.17843(11) 0.21797(16)
O5B O -0.8073(2) -0.17801(10) 0.06864(17)
O5A O 0.1927(2) 0.67801(10) 0.56864(17)
O5C O -0.1927(2) 0.32199(10) 0.43136(17)
O6B O -0.6684(2) -0.09377(9) 0.10825(15)
O6A O 0.3316(2) 0.59377(9) 0.60825(15)
O6C O -0.3316(2) 0.40623(9) 0.39175(15)
O7B O -0.9512(2) 0.46584(11) -0.35678(15)
O7B_2 O 0.0488(2) 0.46584(11) 0.64322(15)
O8B O -0.8722(2) 0.54916(13) -0.38043(15)
O8B_2 O 0.1278(2) 0.54916(13) 0.61957(15)
N1B N -0.0218(2) 0.33561(12) 0.63604(18)
N2B N -0.2191(2) 0.40943(11) 0.58664(18)
C1B C 0.0791(4) 0.30129(18) 0.6649(3)
H1B H 0.1261 0.3102 0.6419
C2B C 0.1190(4) 0.2522(2) 0.7281(3)
H2B H 0.1914 0.2298 0.7470
C3B C 0.0511(4) 0.2381(2) 0.7607(3)
H3B H 0.0753 0.2051 0.8017
C4B C -0.0562(4) 0.27289(17) 0.7331(3)
C5B C -0.1357(4) 0.25947(19) 0.7632(3)
H4B H -0.1160 0.2263 0.8031
C6B C -0.2376(4) 0.2942(2) 0.7341(3)
H5B H -0.2891 0.2839 0.7528
C7B C -0.2691(4) 0.34673(17) 0.6751(3)
C8B C -0.3725(4) 0.3854(2) 0.6452(3)
H6B H -0.4257 0.3772 0.6632
C9B C -0.3951(4) 0.43475(19) 0.5900(3)
H7B H -0.4625 0.4612 0.5712
C10B C -0.3173(3) 0.44552(16) 0.5618(3)
H8B H -0.3343 0.4795 0.5237
C11B C -0.1945(3) 0.36108(14) 0.6436(2)
C12B C -0.0880(3) 0.32249(14) 0.6717(2)
C13B C -0.8697(3) 0.50781(15) -0.3295(2)
C14B C -0.7632(3) 0.50684(14) -0.23149(19)
C15B C -0.7341(3) 0.45226(16) -0.1814(2)
H9B H -0.7846 0.4170 -0.2081
C16B C -0.6307(3) 0.44974(16) -0.0922(2)
H10B H -0.6112 0.4122 -0.0604
C17B C -0.5550(3) 0.50132(14) -0.0485(2)
C18B C -0.5858(3) 0.55569(16) -0.1000(2)
H11B H -0.5366 0.5912 -0.0729
C19B C -0.6873(3) 0.55865(16) -0.1904(2)
H12B H -0.7044 0.5955 -0.2234
C20B C 0.3181(3) 0.39125(13) 0.6252(2)
C21B C 0.3900(3) 0.44039(14) 0.6828(2)
H13B H 0.3684 0.4816 0.6628
C22B C 0.4934(3) 0.42789(16) 0.7698(2)
H14B H 0.5416 0.4606 0.8087
C23B C 0.5249(3) 0.36644(17) 0.7988(2)
H15B H 0.5939 0.3579 0.8577
C24B C 0.4547(3) 0.31768(15) 0.7411(2)
H16B H 0.4784 0.2767 0.7617
C25B C 0.3492(3) 0.32803(14) 0.6529(2)
C26B C 0.2714(3) 0.27586(14) 0.5933(2)
H17B H 0.1956 0.2868 0.5397
C27B C 0.2962(4) 0.21580(15) 0.6068(3)
H18B H 0.3741 0.2033 0.6572
C28B C 0.2064(4) 0.16686(16) 0.5460(3)
C29B C 0.2484(4) 0.11102(18) 0.5325(3)
H19B H 0.3340 0.1038 0.5640
C30B C 0.1650(4) 0.0659(2) 0.4732(4)
H20B H 0.1954 0.0294 0.4640
C31B C 0.0352(4) 0.07449(16) 0.4265(3)
C32B C -0.0024(4) 0.1283(2) 0.4449(4)
H21B H -0.0874 0.1346 0.4178
C33B C 0.0821(4) 0.1743(2) 0.5031(4)
H22B H 0.0519 0.2109 0.5125
C34B C -0.0546(4) 0.02649(17) 0.3616(3)
C35B C -0.0347(4) -0.0048(2) 0.3034(3)
H23B H 0.0371 0.0039 0.3056
C36B C -0.1185(4) -0.0485(2) 0.2419(3)
H24B H -0.1021 -0.0684 0.2034
C37B C -0.2253(4) -0.06361(16) 0.2360(3)
C38B C -0.2466(4) -0.03243(19) 0.2943(3)
H25B H -0.3180 -0.0417 0.2923
C39B C -0.1637(4) 0.01202(19) 0.3551(3)
H26B H -0.1811 0.0327 0.3925
C40B C -0.3106(4) -0.11111(16) 0.1700(3)
H27B H -0.2916 -0.1257 0.1301
C41B C -0.4107(3) -0.13577(15) 0.1600(2)
H28B H -0.4337 -0.1206 0.1973
C42B C -0.4888(3) -0.18532(15) 0.0945(2)
C43B C -0.4478(4) -0.21973(18) 0.0491(3)
H29B H -0.3711 -0.2098 0.0593
C44B C -0.5179(4) -0.26779(19) -0.0102(3)
H30B H -0.4884 -0.2893 -0.0396
C45B C -0.6312(4) -0.28426(17) -0.0262(3)
H31B H -0.6770 -0.3176 -0.0648
C46B C -0.6759(4) -0.25087(15) 0.0154(3)
H32B H -0.7532 -0.2611 0.0039
C47B C -0.6064(3) -0.20183(14) 0.0747(2)
loop_
_geom_bond_atom_site_label_1
_geom_bond_atom_site_label_2
_geom_bond_site_symmetry_1
_geom_bond_site_symmetry_2
Dy1 O1 1_555 1_555
S1 O1 1_555 1_555
S2 O4 1_555 1_555
O2 S1 1_555 1_555
O3 S1 1_555 1_555
O5 S2 1_555 1_555
O6 S2 1_555 1_555
O7 Dy1 1_555 1_555
O8 C13 1_555 1_555
N1 Dy1 1_555 1_555
N2 Dy1 1_555 1_555
C1 N1 1_555 1_555
H1 C1 1_555 1_555
C2 C1 1_555 1_555
H2 C2 1_555 1_555
C3 C2 1_555 1_555
H3 C3 1_555 1_555
C4 C3 1_555 1_555
C5 C4 1_555 1_555
H4 C5 1_555 1_555
C6 C5 1_555 1_555
H5 C6 1_555 1_555
C7 C6 1_555 1_555
C8 C7 1_555 1_555
H6 C8 1_555 1_555
C9 C8 1_555 1_555
H7 C9 1_555 1_555
C10 N2 1_555 1_555
H8 C10 1_555 1_555
C11 N2 1_555 1_555
C12 N1 1_555 1_555
C13 O7 1_555 1_555
C14 C13 1_555 1_555
C15 C14 1_555 1_555
H9 C15 1_555 1_555
C16 C15 1_555 1_555
H10 C16 1_555 1_555
C17 C16 1_555 1_555
C18 C17 1_555 1_555
H11 C18 1_555 1_555
C19 C14 1_555 1_555
H12 C19 1_555 1_555
C20 S1 1_555 1_555
C21 C20 1_555 1_555
H13 C21 1_555 1_555
C22 C21 1_555 1_555
H14 C22 1_555 1_555
C23 C22 1_555 1_555
H15 C23 1_555 1_555
C24 C23 1_555 1_555
H16 C24 1_555 1_555
C25 C20 1_555 1_555
C26 C25 1_555 1_555
H17 C26 1_555 1_555
C27 C26 1_555 1_555
H18 C27 1_555 1_555
C28 C27 1_555 1_555
C29 C28 1_555 1_555
H19 C29 1_555 1_555
C30 C29 1_555 1_555
H20 C30 1_555 1_555
C31 C30 1_555 1_555
C32 C31 1_555 1_555
H21 C32 1_555 1_555
C33 C28 1_555 1_555
H22 C33 1_555 1_555
C34 C31 1_555 1_555
C35 C34 1_555 1_555
H23 C35 1_555 1_555
C36 C35 1_555 1_555
H24 C36 1_555 1_555
C37 C36 1_555 1_555
C38 C37 1_555 1_555
H25 C38 1_555 1_555
C39 C34 1_555 1_555
H26 C39 1_555 1_555
C40 C37 1_555 1_555
H27 C40 1_555 1_555
C41 C40 1_555 1_555
H28 C41 1_555 1_555
C42 C41 1_555 1_555
C43 C42 1_555 1_555
H29 C43 1_555 1_555
C44 C43 1_555 1_555
H30 C44 1_555 1_555
C45 C44 1_555 1_555
H31 C45 1_555 1_555
C46 C45 1_555 1_555
H32 C46 1_555 1_555
C47 S2 1_555 1_555
Dy1B O3 1_555 1_555
Dy1A O5 1_555 1_555
Dy1B_2 O7B 1_555 1_555
Dy1_2 O8B 1_555 1_555
Dy1C O5B 1_555 1_555
S1B O1B 1_555 1_555
S2B O4B 1_555 1_555
O1B Dy1B 1_555 1_555
O2B S1B 1_555 1_555
O3B Dy1 1_555 1_555
O5B S2B 1_555 1_555
O5A Dy1 1_555 1_555
O5C Dy1B 1_555 1_555
O6B Dy1C 1_555 1_555
O6A Dy1 1_555 1_555
O6C Dy1B 1_555 1_555
O7B C13B 1_555 1_555
O7B_2 Dy1B 1_555 1_555
O8B C13B 1_555 1_555
O8B_2 Dy1 1_555 1_555
N1B Dy1B 1_555 1_555
N2B Dy1B 1_555 1_555
C1B N1B 1_555 1_555
H1B C1B 1_555 1_555
C2B C1B 1_555 1_555
H2B C2B 1_555 1_555
C3B C2B 1_555 1_555
H3B C3B 1_555 1_555
C4B C3B 1_555 1_555
C5B C4B 1_555 1_555
H4B C5B 1_555 1_555
C6B C5B 1_555 1_555
H5B C6B 1_555 1_555
C7B C6B 1_555 1_555
C8B C7B 1_555 1_555
H6B C8B 1_555 1_555
C9B C8B 1_555 1_555
H7B C9B 1_555 1_555
C10B N2B 1_555 1_555
H8B C10B 1_555 1_555
C11B N2B 1_555 1_555
C12B N1B 1_555 1_555
C13B C14B 1_555 1_555
C14B C15B 1_555 1_555
C15B H9B 1_555 1_555
C16B C15B 1_555 1_555
H10B C16B 1_555 1_555
C17B C17 1_555 1_555
C18B C17B 1_555 1_555
H11B C18B 1_555 1_555
C19B C14B 1_555 1_555
H12B C19B 1_555 1_555
C20B S1B 1_555 1_555
C21B C20B 1_555 1_555
H13B C21B 1_555 1_555
C22B C21B 1_555 1_555
H14B C22B 1_555 1_555
C23B C22B 1_555 1_555
H15B C23B 1_555 1_555
C24B C23B 1_555 1_555
H16B C24B 1_555 1_555
C25B C20B 1_555 1_555
C26B C25B 1_555 1_555
H17B C26B 1_555 1_555
C27B C26B 1_555 1_555
H18B C27B 1_555 1_555
C28B C27B 1_555 1_555
C29B C28B 1_555 1_555
H19B C29B 1_555 1_555
C30B C29B 1_555 1_555
H20B C30B 1_555 1_555
C31B C30B 1_555 1_555
C32B C31B 1_555 1_555
H21B C32B 1_555 1_555
C33B C28B 1_555 1_555
H22B C33B 1_555 1_555
C34B C31B 1_555 1_555
C35B C34B 1_555 1_555
H23B C35B 1_555 1_555
C36B C35B 1_555 1_555
H24B C36B 1_555 1_555
C37B C36B 1_555 1_555
C38B C37B 1_555 1_555
H25B C38B 1_555 1_555
C39B C34B 1_555 1_555
H26B C39B 1_555 1_555
C40B C37B 1_555 1_555
H27B C40B 1_555 1_555
C41B C40B 1_555 1_555
H28B C41B 1_555 1_555
C42B C41B 1_555 1_555
C43B C42B 1_555 1_555
H29B C43B 1_555 1_555
C44B C43B 1_555 1_555
H30B C44B 1_555 1_555
C45B C44B 1_555 1_555
H31B C45B 1_555 1_555
C46B C45B 1_555 1_555
H32B C46B 1_555 1_555
C47B S2B 1_555 1_555
O6 Dy1A 1_555 1_555
O8 Dy1B 1_555 1_555
C4 C12 1_555 1_555
C7 C11 1_555 1_555
C9 C10 1_555 1_555
C11 C12 1_555 1_555
C18 C19 1_555 1_555
C24 C25 1_555 1_555
C32 C33 1_555 1_555
C38 C39 1_555 1_555
C42 C47 1_555 1_555
C46 C47 1_555 1_555
S1B O3B 1_555 1_555
S2B O6B 1_555 1_555
C4B C12B 1_555 1_555
C7B C11B 1_555 1_555
C9B C10B 1_555 1_555
C11B C12B 1_555 1_555
C16B C17B 1_555 1_555
C18B C19B 1_555 1_555
C24B C25B 1_555 1_555
C32B C33B 1_555 1_555
C38B C39B 1_555 1_555
C42B C47B 1_555 1_555
C46B C47B 1_555 1_555

#END
