
#######################################################################
#
#                 Cambridge Crystallographic Data Centre
#                                CCDC 
#
#######################################################################
#
# If this CIF has been generated from an entry in the Cambridge 
# Structural Database, then it will include bibliographic, chemical, 
# crystal, experimental, refinement or atomic coordinate data resulting 
# from the CCDC's data processing and validation procedures.
#
#######################################################################

data_REFCEM
_symmetry_cell_setting           monoclinic
_symmetry_space_group_name_H-M   'P 21/c'
_symmetry_Int_Tables_number      14
_space_group_name_Hall           '-P 2ybc'
loop_
_symmetry_equiv_pos_site_id
_symmetry_equiv_pos_as_xyz
1 x,y,z
2 -x,1/2+y,1/2-z
3 -x,-y,-z
4 x,1/2-y,1/2+z
_cell_length_a                   13.019(3)
_cell_length_b                   21.357(4)
_cell_length_c                   17.814(6)
_cell_angle_alpha                90
_cell_angle_beta                 124.73(2)
_cell_angle_gamma                90
_cell_volume                     4070.71
loop_
_atom_site_label
_atom_site_type_symbol
_atom_site_fract_x
_atom_site_fract_y
_atom_site_fract_z
Tb1 Tb -0.396610(14) -0.079720(7) -0.011640(11)
S1 S 0.17271(8) -0.66058(4) 0.37545(7)
S2 S -0.32068(8) 0.09071(4) 0.01696(6)
O1 O 0.3062(2) -0.67808(12) 0.4303(2)
O2 O 0.1679(2) -0.59397(11) 0.39139(18)
O3 O 0.1049(3) -0.67822(14) 0.2810(2)
O4 O -0.3193(3) 0.12343(13) -0.05251(19)
O5 O -0.3201(2) 0.02303(11) 0.00814(19)
O6 O -0.4219(2) 0.11198(12) 0.02418(19)
O7 O -0.4511(3) 0.03445(14) 0.14432(19)
O8 O -0.3725(3) -0.04843(15) 0.11996(19)
N1 N -0.4774(3) -0.16467(14) -0.1360(2)
N2 N -0.2796(3) -0.09092(13) -0.0866(2)
C1 C 0.1055(4) -0.70145(17) 0.4245(3)
C2 C 0.1750(4) -0.75057(19) 0.4840(3)
H1 H 0.2522 -0.7609 0.4956
C3 C 0.1299(5) -0.7835(2) 0.5252(4)
H2 H 0.1756 -0.8167 0.5639
C4 C 0.0169(5) -0.7674(2) 0.5095(4)
H3 H -0.0125 -0.7890 0.5390
C5 C -0.0529(5) -0.7195(2) 0.4502(3)
H4 H -0.1295 -0.7096 0.4398
C6 C -0.0116(4) -0.68502(18) 0.4049(3)
C7 C -0.0897(4) -0.63535(18) 0.3400(3)
H5 H -0.0665 -0.6199 0.3028
C8 C -0.1895(4) -0.6109(2) 0.3299(3)
H6 H -0.2088 -0.6254 0.3697
C9 C -0.2740(4) -0.5636(2) 0.2638(3)
C10 C -0.2527(5) -0.5320(2) 0.2063(4)
H7 H -0.1810 -0.5408 0.2087
C11 C -0.3355(5) -0.4875(2) 0.1453(4)
H8 H -0.3180 -0.4670 0.1077
C12 C -0.4444(5) -0.4728(2) 0.1389(3)
C13 C -0.4640(5) -0.5043(2) 0.1969(4)
H9 H -0.5356 -0.4956 0.1948
C14 C -0.3808(5) -0.5485(3) 0.2580(4)
H10 H -0.3976 -0.5686 0.2963
C15 C -0.5338(5) -0.4247(2) 0.0737(4)
C16 C -0.4969(5) -0.3723(3) 0.0550(5)
H11 H -0.4121 -0.3662 0.0814
C17 C -0.5820(5) -0.3259(2) -0.0032(4)
H12 H -0.5515 -0.2894 -0.0124
C18 C -0.7050(4) -0.33243(19) -0.0458(3)
C19 C -0.7471(5) -0.3887(2) -0.0323(4)
H13 H -0.8325 -0.3961 -0.0639
C20 C -0.6633(5) -0.4335(3) 0.0277(5)
H14 H -0.6932 -0.4698 0.0377
C21 C -0.7937(4) -0.28405(18) -0.1061(3)
H15 H -0.8712 -0.2968 -0.1564
C22 C -0.7706(4) -0.22423(17) -0.0935(3)
H16 H -0.6950 -0.2131 -0.0400
C23 C -0.8481(3) -0.17218(17) -0.1525(3)
C24 C -0.9534(4) -0.18232(19) -0.2409(3)
H17 H -0.9768 -0.2233 -0.2615
C25 C -1.0238(4) -0.1339(2) -0.2986(3)
H18 H -1.0927 -0.1425 -0.3574
C26 C -0.9927(4) -0.0729(2) -0.2697(3)
H19 H -1.0409 -0.0402 -0.3087
C27 C -0.8897(3) -0.06006(18) -0.1825(3)
H20 H -0.8687 -0.0188 -0.1626
C28 C -0.8177(3) -0.10903(16) -0.1247(2)
C29 C -0.3701(3) -0.00755(18) 0.1717(2)
C30 C -0.2635(3) -0.00643(17) 0.2689(2)
C31 C -0.1869(4) -0.0580(2) 0.3093(3)
H21 H -0.2037 -0.0945 0.2757
C32 C -0.0851(4) -0.0556(2) 0.3999(3)
H22 H -0.0361 -0.0911 0.4267
C33 C -0.0547(3) -0.00133(18) 0.4515(2)
C34 C 0.1309(4) -0.0505(2) 0.5913(3)
H23 H 0.1122 -0.0879 0.5592
C35 C 0.2342(4) -0.04755(19) 0.6810(3)
H24 H 0.2846 -0.0827 0.7078
C36 C -0.5778(4) -0.1990(2) -0.1647(4)
H25 H -0.6250 -0.1902 -0.1418
C37 C -0.6172(5) -0.2479(3) -0.2278(4)
H26 H -0.6890 -0.2705 -0.2462
C38 C -0.5502(5) -0.2621(3) -0.2616(4)
H27 H -0.5751 -0.2946 -0.3033
C39 C -0.4425(4) -0.2273(2) -0.2333(3)
C40 C -0.4116(4) -0.17798(17) -0.1720(3)
C41 C -0.3051(4) -0.13960(17) -0.1439(3)
C42 C -0.1818(4) -0.0554(2) -0.0617(3)
H28 H -0.1643 -0.0217 -0.0230
C43 C -0.1045(5) -0.0657(2) -0.0902(4)
H29 H -0.0379 -0.0389 -0.0720
C44 C -0.1263(5) -0.1152(2) -0.1449(4)
H30 H -0.0726 -0.1236 -0.1624
C45 C -0.2301(4) -0.1537(2) -0.1750(3)
C46 C -0.2613(5) -0.2063(3) -0.2344(4)
H31 H -0.2099 -0.2167 -0.2531
C47 C -0.3633(5) -0.2405(2) -0.2631(4)
H32 H -0.3833 -0.2735 -0.3033
Tb1B Tb -0.603390(14) 0.079720(7) 0.011640(11)
Tb1_2 Tb 0.603390(14) -0.079720(7) 0.988360(11)
Tb1B_2 Tb 0.396610(14) 0.079720(7) 1.011640(11)
Tb1A Tb 0.396610(14) -0.579720(7) 0.511640(11)
Tb1C Tb -1.396610(14) 0.579720(7) -0.511640(11)
S1B S -1.17271(8) 0.66058(4) -0.37545(7)
S2B S -0.67932(8) -0.09071(4) -0.01696(6)
O1A O -0.3062(2) -0.17808(12) 0.0697(2)
O1C O -0.6938(2) 0.17808(12) -0.0697(2)
O1B O -1.3062(2) 0.67808(12) -0.4303(2)
O2A O -0.1679(2) -0.09397(11) 0.10861(18)
O2C O -0.8321(2) 0.09397(11) -0.10861(18)
O2B O -1.1679(2) 0.59397(11) -0.39139(18)
O3B O -1.1049(3) 0.67822(14) -0.2810(2)
O4B O -0.6807(3) -0.12343(13) 0.05251(19)
O5B O -0.6799(2) -0.02303(11) -0.00814(19)
O6B O -0.5781(2) -0.11198(12) -0.02418(19)
O7B O -0.5489(3) -0.03445(14) -0.14432(19)
O7B_2 O 0.4511(3) -0.03445(14) 0.85568(19)
O8B O -0.6275(3) 0.04843(15) -0.11996(19)
O8B_2 O 0.3725(3) 0.04843(15) 0.88004(19)
N1B N -0.5226(3) 0.16467(14) 0.1360(2)
N2B N -0.7204(3) 0.09092(13) 0.0866(2)
C1B C -1.1055(4) 0.70145(17) -0.4245(3)
C2B C -1.1750(4) 0.75057(19) -0.4840(3)
H1B H -1.2522 0.7609 -0.4956
C3B C -1.1299(5) 0.7835(2) -0.5252(4)
H2B H -1.1756 0.8167 -0.5639
C4B C -1.0169(5) 0.7674(2) -0.5095(4)
H3B H -0.9875 0.7890 -0.5390
C5B C -0.9471(5) 0.7195(2) -0.4502(3)
H4B H -0.8705 0.7096 -0.4398
C6B C -0.9884(4) 0.68502(18) -0.4049(3)
C7B C -0.9103(4) 0.63535(18) -0.3400(3)
H5B H -0.9335 0.6199 -0.3028
C8B C -0.8105(4) 0.6109(2) -0.3299(3)
H6B H -0.7912 0.6254 -0.3697
C9B C -0.7260(4) 0.5636(2) -0.2638(3)
C10B C -0.7473(5) 0.5320(2) -0.2063(4)
H7B H -0.8190 0.5408 -0.2087
C11B C -0.6645(5) 0.4875(2) -0.1453(4)
H8B H -0.6820 0.4670 -0.1077
C12B C -0.5556(5) 0.4728(2) -0.1389(3)
C13B C -0.5360(5) 0.5043(2) -0.1969(4)
H9B H -0.4644 0.4956 -0.1948
C14B C -0.6192(5) 0.5485(3) -0.2580(4)
H10B H -0.6024 0.5686 -0.2963
C15B C -0.4662(5) 0.4247(2) -0.0737(4)
C16B C -0.5031(5) 0.3723(3) -0.0550(5)
H11B H -0.5879 0.3662 -0.0814
C17B C -0.4180(5) 0.3259(2) 0.0032(4)
H12B H -0.4485 0.2894 0.0124
C18B C -0.2950(4) 0.33243(19) 0.0458(3)
C19B C -0.2529(5) 0.3887(2) 0.0323(4)
H13B H -0.1675 0.3961 0.0639
C20B C -0.3367(5) 0.4335(3) -0.0277(5)
H14B H -0.3068 0.4698 -0.0377
C21B C -0.2063(4) 0.28405(18) 0.1061(3)
H15B H -0.1288 0.2968 0.1564
C22B C -0.2294(4) 0.22423(17) 0.0935(3)
H16B H -0.3050 0.2131 0.0400
C23B C -0.1519(3) 0.17218(17) 0.1525(3)
C24B C -0.0466(4) 0.18232(19) 0.2409(3)
H17B H -0.0232 0.2233 0.2615
C25B C 0.0238(4) 0.1339(2) 0.2986(3)
H18B H 0.0927 0.1425 0.3574
C26B C -0.0073(4) 0.0729(2) 0.2697(3)
H19B H 0.0409 0.0402 0.3087
C27B C -0.1103(3) 0.06006(18) 0.1825(3)
H20B H -0.1313 0.0188 0.1626
C28B C -0.1823(3) 0.10903(16) 0.1247(2)
C29B C 0.3701(3) 0.00755(18) 0.8283(2)
C30B C 0.2635(3) 0.00643(17) 0.7311(2)
C31B C 0.1869(4) 0.0580(2) 0.6907(3)
H21B H 0.2037 0.0945 0.7243
C32B C 0.0851(4) 0.0556(2) 0.6001(3)
H22B H 0.0361 0.0911 0.5733
C33B C 0.0547(3) 0.00133(18) 0.5485(2)
C34B C -0.1309(4) 0.0505(2) 0.4087(3)
H23B H -0.1122 0.0879 0.4408
C35B C -0.2342(4) 0.04755(19) 0.3190(3)
H24B H -0.2846 0.0827 0.2922
C36B C -0.4222(4) 0.1990(2) 0.1647(4)
H25B H -0.3750 0.1902 0.1418
C37B C -0.3828(5) 0.2479(3) 0.2278(4)
H26B H -0.3110 0.2705 0.2462
C38B C -0.4498(5) 0.2621(3) 0.2616(4)
H27B H -0.4249 0.2946 0.3033
C39B C -0.5575(4) 0.2273(2) 0.2333(3)
C40B C -0.5884(4) 0.17798(17) 0.1720(3)
C41B C -0.6949(4) 0.13960(17) 0.1439(3)
C42B C -0.8182(4) 0.0554(2) 0.0617(3)
H28B H -0.8357 0.0217 0.0230
C43B C -0.8955(5) 0.0657(2) 0.0902(4)
H29B H -0.9621 0.0389 0.0720
C44B C -0.8737(5) 0.1152(2) 0.1449(4)
H30B H -0.9274 0.1236 0.1624
C45B C -0.7699(4) 0.1537(2) 0.1750(3)
C46B C -0.7387(5) 0.2063(3) 0.2344(4)
H31B H -0.7901 0.2167 0.2531
C47B C -0.6367(5) 0.2405(2) 0.2631(4)
H32B H -0.6167 0.2735 0.3033
loop_
_geom_bond_atom_site_label_1
_geom_bond_atom_site_label_2
_geom_bond_site_symmetry_1
_geom_bond_site_symmetry_2
Tb1 O5 1_555 1_555
S1 O1 1_555 1_555
S2 O4 1_555 1_555
O1 Tb1A 1_555 1_555
O2 S1 1_555 1_555
O3 S1 1_555 1_555
O5 S2 1_555 1_555
O6 S2 1_555 1_555
O7 C29 1_555 1_555
O8 Tb1 1_555 1_555
N1 Tb1 1_555 1_555
N2 Tb1 1_555 1_555
C1 S1 1_555 1_555
C2 C1 1_555 1_555
H1 C2 1_555 1_555
C3 C2 1_555 1_555
H2 C3 1_555 1_555
C4 C3 1_555 1_555
H3 C4 1_555 1_555
C5 C4 1_555 1_555
H4 C5 1_555 1_555
C6 C1 1_555 1_555
C7 C6 1_555 1_555
H5 C7 1_555 1_555
C8 C7 1_555 1_555
H6 C8 1_555 1_555
C9 C8 1_555 1_555
C10 C9 1_555 1_555
H7 C10 1_555 1_555
C11 C10 1_555 1_555
H8 C11 1_555 1_555
C12 C11 1_555 1_555
C13 C12 1_555 1_555
H9 C13 1_555 1_555
C14 C9 1_555 1_555
H10 C14 1_555 1_555
C15 C12 1_555 1_555
C16 C15 1_555 1_555
H11 C16 1_555 1_555
C17 C16 1_555 1_555
H12 C17 1_555 1_555
C18 C17 1_555 1_555
C19 C18 1_555 1_555
H13 C19 1_555 1_555
C20 C15 1_555 1_555
H14 C20 1_555 1_555
C21 C18 1_555 1_555
H15 C21 1_555 1_555
C22 C21 1_555 1_555
H16 C22 1_555 1_555
C23 C22 1_555 1_555
C24 C23 1_555 1_555
H17 C24 1_555 1_555
C25 C24 1_555 1_555
H18 C25 1_555 1_555
C26 C25 1_555 1_555
H19 C26 1_555 1_555
C27 C26 1_555 1_555
H20 C27 1_555 1_555
C28 C23 1_555 1_555
C29 O8 1_555 1_555
C30 C29 1_555 1_555
C31 C30 1_555 1_555
H21 C31 1_555 1_555
C32 C31 1_555 1_555
H22 C32 1_555 1_555
C33 C32 1_555 1_555
C34 H23 1_555 1_555
C35 C34 1_555 1_555
H24 C35 1_555 1_555
C36 N1 1_555 1_555
H25 C36 1_555 1_555
C37 C36 1_555 1_555
H26 C37 1_555 1_555
C38 C37 1_555 1_555
H27 C38 1_555 1_555
C39 C38 1_555 1_555
C40 N1 1_555 1_555
C41 N2 1_555 1_555
C42 N2 1_555 1_555
H28 C42 1_555 1_555
C43 C42 1_555 1_555
H29 C43 1_555 1_555
C44 C43 1_555 1_555
H30 C44 1_555 1_555
C45 C41 1_555 1_555
C46 C45 1_555 1_555
H31 C46 1_555 1_555
C47 C39 1_555 1_555
H32 C47 1_555 1_555
Tb1B O6 1_555 1_555
Tb1_2 O7B_2 1_555 1_555
Tb1B_2 O8B_2 1_555 1_555
Tb1A O2 1_555 1_555
Tb1C O1B 1_555 1_555
S1B O1B 1_555 1_555
S2B C28 1_555 1_555
O1A Tb1 1_555 1_555
O1C Tb1B 1_555 1_555
O2A Tb1 1_555 1_555
O2C Tb1B 1_555 1_555
O2B Tb1C 1_555 1_555
O3B S1B 1_555 1_555
O4B S2B 1_555 1_555
O5B Tb1B 1_555 1_555
O6B Tb1 1_555 1_555
O7B Tb1 1_555 1_555
O7B_2 C29B 1_555 1_555
O8B Tb1B 1_555 1_555
O8B_2 C29B 1_555 1_555
N1B Tb1B 1_555 1_555
N2B Tb1B 1_555 1_555
C1B S1B 1_555 1_555
C2B C1B 1_555 1_555
H1B C2B 1_555 1_555
C3B C2B 1_555 1_555
H2B C3B 1_555 1_555
C4B C3B 1_555 1_555
H3B C4B 1_555 1_555
C5B C4B 1_555 1_555
H4B C5B 1_555 1_555
C6B C1B 1_555 1_555
C7B C6B 1_555 1_555
H5B C7B 1_555 1_555
C8B C7B 1_555 1_555
H6B C8B 1_555 1_555
C9B C8B 1_555 1_555
C10B C9B 1_555 1_555
H7B C10B 1_555 1_555
C11B C10B 1_555 1_555
H8B C11B 1_555 1_555
C12B C11B 1_555 1_555
C13B C12B 1_555 1_555
H9B C13B 1_555 1_555
C14B C9B 1_555 1_555
H10B C14B 1_555 1_555
C15B C12B 1_555 1_555
C16B C15B 1_555 1_555
H11B C16B 1_555 1_555
C17B C16B 1_555 1_555
H12B C17B 1_555 1_555
C18B C17B 1_555 1_555
C19B C18B 1_555 1_555
H13B C19B 1_555 1_555
C20B C15B 1_555 1_555
H14B C20B 1_555 1_555
C21B C18B 1_555 1_555
H15B C21B 1_555 1_555
C22B C21B 1_555 1_555
H16B C22B 1_555 1_555
C23B C22B 1_555 1_555
C24B C23B 1_555 1_555
H17B C24B 1_555 1_555
C25B C24B 1_555 1_555
H18B C25B 1_555 1_555
C26B C25B 1_555 1_555
H19B C26B 1_555 1_555
C27B C26B 1_555 1_555
H20B C27B 1_555 1_555
C28B S2 1_555 1_555
C29B C30B 1_555 1_555
C30B C35 1_555 1_555
C31B C30B 1_555 1_555
H21B C31B 1_555 1_555
C32B C31B 1_555 1_555
H22B C32B 1_555 1_555
C33B C33 1_555 1_555
C34B C33 1_555 1_555
H23B C34B 1_555 1_555
C35B C30 1_555 1_555
H24B C35B 1_555 1_555
C36B N1B 1_555 1_555
H25B C36B 1_555 1_555
C37B C36B 1_555 1_555
H26B C37B 1_555 1_555
C38B C37B 1_555 1_555
H27B C38B 1_555 1_555
C39B C38B 1_555 1_555
C40B N1B 1_555 1_555
C41B N2B 1_555 1_555
C42B N2B 1_555 1_555
H28B C42B 1_555 1_555
C43B C42B 1_555 1_555
H29B C43B 1_555 1_555
C44B C43B 1_555 1_555
H30B C44B 1_555 1_555
C45B C41B 1_555 1_555
C46B C45B 1_555 1_555
H31B C46B 1_555 1_555
C47B C39B 1_555 1_555
H32B C47B 1_555 1_555
O7 Tb1B 1_555 1_555
C5 C6 1_555 1_555
C13 C14 1_555 1_555
C19 C20 1_555 1_555
C27 C28 1_555 1_555
C34 C33B 1_555 1_555
C39 C40 1_555 1_555
C40 C41 1_555 1_555
C44 C45 1_555 1_555
C46 C47 1_555 1_555
S1B O2B 1_555 1_555
S2B O5B 1_555 1_555
S2B O6B 1_555 1_555
C5B C6B 1_555 1_555
C13B C14B 1_555 1_555
C19B C20B 1_555 1_555
C23B C28B 1_555 1_555
C27B C28B 1_555 1_555
C32B C33B 1_555 1_555
C34B C35B 1_555 1_555
C39B C40B 1_555 1_555
C40B C41B 1_555 1_555
C44B C45B 1_555 1_555
C46B C47B 1_555 1_555

#END
