
#######################################################################
#
#                 Cambridge Crystallographic Data Centre
#                                CCDC 
#
#######################################################################
#
# If this CIF has been generated from an entry in the Cambridge 
# Structural Database, then it will include bibliographic, chemical, 
# crystal, experimental, refinement or atomic coordinate data resulting 
# from the CCDC's data processing and validation procedures.
#
#######################################################################

data_REFFIT
_symmetry_cell_setting           triclinic
_symmetry_space_group_name_H-M   'P -1'
_symmetry_Int_Tables_number      2
_space_group_name_Hall           '-P 1'
loop_
_symmetry_equiv_pos_site_id
_symmetry_equiv_pos_as_xyz
1 x,y,z
2 -x,-y,-z
_cell_length_a                   10.3169(2)
_cell_length_b                   14.5910(4)
_cell_length_c                   19.9242(6)
_cell_angle_alpha                81.023(2)
_cell_angle_beta                 87.629(2)
_cell_angle_gamma                80.676(2)
_cell_volume                     2922.99
loop_
_atom_site_label
_atom_site_type_symbol
_atom_site_fract_x
_atom_site_fract_y
_atom_site_fract_z
Mg1 Mg 0.70203(5) 0.38483(4) 0.13687(2)
Mg2 Mg 0.5000 0.5000 0.0000
Mg3 Mg 0.20038(5) 0.85490(4) 0.61557(2)
Mg4 Mg 0.0000 1.0000 0.5000
O1 O 0.64049(11) 0.51712(8) 0.15245(5)
O2 O 0.53791(11) 0.59490(8) 0.05927(5)
O3 O 0.50901(12) 0.92537(8) 0.23378(6)
O4 O 0.37268(11) 0.87500(9) 0.55150(5)
O5 O 0.17623(10) 0.90703(8) 0.51062(5)
O6 O 0.80034(12) 1.24186(8) 0.12544(6)
O7 O 0.72686(13) 1.12641(9) 0.19581(6)
H1 H 0.718(2) 1.1676(18) 0.2244(13)
O8 O 0.83705(14) 0.94505(10) -0.07437(7)
O9 O 0.46012(10) 0.67698(8) -0.14910(5)
O10 O 0.59285(10) 0.57407(8) -0.07800(5)
O11 O 0.76863(11) 0.35569(8) 0.23198(5)
O12 O 0.71921(10) 0.23665(7) 0.30665(5)
O13 O 0.65282(12) 0.56746(11) 0.48513(8)
O14 O 0.91446(10) 0.89892(8) 0.56184(5)
O15 O 1.05893(11) 0.77822(8) 0.60699(6)
O16 O -0.15577(11) 1.03544(8) 0.33698(5)
O17 O -0.04580(11) 0.94158(8) 0.42125(5)
O18 O -0.04726(13) 0.64017(9) 0.23025(6)
O19 O 0.13403(10) 0.58734(8) -0.07123(5)
O20 O 0.32478(9) 0.59174(7) -0.02884(5)
C1 C 0.58303(14) 0.58991(11) 0.11712(7)
C2 C 0.56662(14) 0.67943(11) 0.14733(7)
C3 C 0.50946(17) 0.76358(12) 0.11131(8)
H2 H 0.4837 0.7657 0.0668
C4 C 0.48979(18) 0.84501(12) 0.14032(8)
H3 H 0.4515 0.9015 0.1155
C5 C 0.52722(16) 0.84170(11) 0.20606(8)
C6 C 0.58678(17) 0.75926(12) 0.24238(8)
H4 H 0.6135 0.7578 0.2866
C7 C 0.60687(16) 0.67832(12) 0.21297(8)
H5 H 0.6479 0.6224 0.2375
C8 C 0.45685(16) 0.91977(11) 0.29955(8)
C9 C 0.52702(17) 0.94300(13) 0.34974(9)
H6 H 0.6081 0.9624 0.3398
C10 C 0.47614(16) 0.93729(13) 0.41524(8)
H7 H 0.5246 0.9514 0.4496
C11 C 0.35419(15) 0.91093(11) 0.43044(8)
C12 C 0.28224(17) 0.89165(13) 0.37830(8)
H8 H 0.1984 0.8765 0.3873
C13 C 0.33453(17) 0.89482(13) 0.31320(9)
H9 H 0.2871 0.8801 0.2787
C14 C 0.29985(15) 0.89875(11) 0.50122(8)
C15 C 0.77015(16) 1.16373(12) 0.13605(9)
C16 C 0.78195(16) 1.10278(12) 0.08282(8)
C17 C 0.84342(18) 1.13247(13) 0.02214(9)
H10 H 0.8746 1.1896 0.0161
C18 C 0.85919(19) 1.07887(13) -0.02939(9)
H11 H 0.9012 1.0993 -0.0698
C19 C 0.81215(18) 0.99456(13) -0.02060(9)
C20 C 0.7469(2) 0.96494(14) 0.03868(10)
H12 H 0.7125 0.9091 0.0437
C21 C 0.73299(19) 1.01894(13) 0.09047(9)
H13 H 0.6904 0.9987 0.1308
C22 C 0.76592(19) 0.87251(14) -0.07921(9)
C23 C 0.66151(18) 0.89270(13) -0.12207(10)
H14 H 0.6364 0.9536 -0.1444
C24 C 0.59378(17) 0.82168(12) -0.13184(9)
H15 H 0.5222 0.8351 -0.1606
C25 C 0.63115(15) 0.73137(11) -0.09946(8)
C26 C 0.73626(19) 0.71354(14) -0.05666(10)
H16 H 0.7619 0.6530 -0.0339
C27 C 0.8045(2) 0.78443(16) -0.04687(11)
H17 H 0.8763 0.7715 -0.0183
C28 C 0.55618(14) 0.65449(11) -0.10911(7)
C29 C 0.73868(14) 0.32162(11) 0.29043(8)
C30 C 0.72382(14) 0.38480(11) 0.34361(7)
C31 C 0.77396(15) 0.46844(12) 0.33222(8)
H18 H 0.8196 0.4840 0.2919
C32 C 0.75730(16) 0.52918(12) 0.37980(9)
H19 H 0.7925 0.5848 0.3720
C33 C 0.68806(16) 0.50616(13) 0.43862(9)
C34 C 0.63766(16) 0.42307(13) 0.45136(9)
H20 H 0.5918 0.4079 0.4917
C35 C 0.65588(16) 0.36274(12) 0.40387(8)
H21 H 0.6222 0.3066 0.4123
C36 C 0.73550(17) 0.62706(14) 0.50108(9)
C37 C 0.68267(18) 0.71895(15) 0.50002(10)
H22 H 0.5985 0.7413 0.4836
C38 C 0.75493(17) 0.77864(13) 0.52347(9)
H23 H 0.7195 0.8417 0.5220
C39 C 0.87929(15) 0.74626(11) 0.54907(8)
C40 C 0.93121(16) 0.65308(12) 0.54909(9)
H24 H 1.0150 0.6302 0.5657
C41 C 0.85966(18) 0.59306(14) 0.52452(10)
H25 H 0.8956 0.5305 0.5240
C42 C 0.95611(15) 0.81294(12) 0.57426(7)
C43 C -0.09474(15) 0.95705(12) 0.36374(8)
C44 C -0.08000(14) 0.87537(11) 0.32548(7)
C45 C -0.10522(17) 0.88656(13) 0.25683(8)
H26 H -0.1327 0.9463 0.2331
C46 C -0.08979(19) 0.80920(13) 0.22323(9)
H27 H -0.1049 0.8168 0.1769
C47 C -0.05202(16) 0.72122(12) 0.25887(8)
C48 C -0.02650(16) 0.70878(12) 0.32715(8)
H28 H -0.0003 0.6489 0.3508
C49 C -0.04023(16) 0.78620(12) 0.36010(8)
H29 H -0.0225 0.7783 0.4062
C50 C 0.01335(17) 0.63578(11) 0.16697(8)
C51 C -0.05213(16) 0.60244(12) 0.11968(9)
H30 H -0.1368 0.5890 0.1288
C52 C 0.00966(15) 0.58914(12) 0.05850(8)
H31 H -0.0351 0.5685 0.0256
C53 C 0.13688(14) 0.60586(11) 0.04514(7)
C54 C 0.20201(16) 0.63917(12) 0.09390(8)
H32 H 0.2878 0.6505 0.0857
C55 C 0.13942(17) 0.65541(13) 0.15443(8)
H33 H 0.1818 0.6794 0.1865
C56 C 0.20121(15) 0.59244(10) -0.02139(7)
Mg1A Mg 0.29797(5) 0.61517(4) -0.13687(2)
Mg1_2 Mg 0.70203(5) 1.38483(4) 0.13687(2)
Mg1A_2 Mg 0.29797(5) -0.38483(4) -0.13687(2)
Mg1A_3 Mg 0.29797(5) 0.61517(4) 0.86313(2)
Mg3A Mg 0.79962(5) 0.14510(4) -0.61557(2)
Mg3A_2 Mg 0.79962(5) 0.14510(4) 0.38443(2)
Mg3_2 Mg 1.20038(5) 0.85490(4) 0.61557(2)
Mg3A_3 Mg -0.20038(5) 1.14510(4) 0.38443(2)
Mg3_3 Mg 1.20038(5) -0.14510(4) -0.38443(2)
Mg3A_4 Mg -0.20038(5) 0.14510(4) 0.38443(2)
Mg4_2 Mg 1.0000 1.0000 0.5000
Mg4_3 Mg 1.0000 0.0000 -0.5000
Mg4_4 Mg 0.0000 0.0000 0.5000
O1A O 0.35951(11) 0.48288(8) -0.15245(5)
O2A O 0.46209(11) 0.40510(8) -0.05927(5)
O3A O 0.49099(12) 0.07463(8) -0.23378(6)
O4A O 0.62732(11) 0.12500(9) -0.55150(5)
O5A O 0.82377(10) 0.09297(8) -0.51062(5)
O5A_2 O -0.17623(10) 1.09297(8) 0.48938(5)
O6A O 0.19966(12) -0.24186(8) -0.12544(6)
O6_2 O 0.80034(12) 0.24186(8) 0.12544(6)
O6A_2 O 0.19966(12) 0.75814(8) -0.12544(6)
O7A O 0.27314(13) -0.12641(9) -0.19581(6)
H1A H 0.282(2) -0.1676(18) -0.2244(13)
O8A O 0.16295(14) 0.05495(10) 0.07437(7)
O9A O 0.53988(10) 0.32302(8) 0.14910(5)
O10A O 0.40715(10) 0.42593(8) 0.07800(5)
O11A O 0.23137(11) 0.64431(8) 0.76802(5)
O11A_2 O 0.23137(11) 0.64431(8) -0.23198(5)
O12A O 0.28079(10) 0.76335(7) 0.69335(5)
O12_2 O 0.71921(10) 0.23665(7) -0.69335(5)
O13A O 0.34718(12) 0.43254(11) 0.51487(8)
O14A O 0.08554(10) 0.10108(8) 0.43816(5)
O14_2 O -0.08554(10) 0.89892(8) 0.56184(5)
O14A_2 O 0.08554(10) 1.10108(8) 0.43816(5)
O15A O -0.05893(11) 0.22178(8) 0.39301(6)
O15_2 O 0.05893(11) 0.77822(8) 0.60699(6)
O15A_2 O 0.94107(11) 0.22178(8) -0.60699(6)
O16A O 1.15577(11) -0.03544(8) -0.33698(5)
O16A_2 O 0.15577(11) 0.96456(8) 0.66302(5)
O16_2 O 0.84423(11) 0.03544(8) -0.66302(5)
O17A O 1.04580(11) 0.05842(8) -0.42125(5)
O17A_2 O 0.04580(11) 1.05842(8) 0.57875(5)
O18A O 1.04726(13) 0.35983(9) -0.23025(6)
O19A O 0.86597(10) 0.41266(8) 0.07123(5)
O20A O 0.67522(9) 0.40826(7) 0.02884(5)
C1A C 0.41697(14) 0.41009(11) -0.11712(7)
C2A C 0.43338(14) 0.32057(11) -0.14733(7)
C3A C 0.49054(17) 0.23642(12) -0.11131(8)
H2A H 0.5163 0.2343 -0.0668
C4A C 0.51021(18) 0.15499(12) -0.14032(8)
H3A H 0.5485 0.0985 -0.1155
C5A C 0.47278(16) 0.15830(11) -0.20606(8)
C6A C 0.41322(17) 0.24074(12) -0.24238(8)
H4A H 0.3865 0.2422 -0.2866
C7A C 0.39313(16) 0.32168(12) -0.21297(8)
H5A H 0.3521 0.3776 -0.2375
C8A C 0.54315(16) 0.08023(11) -0.29955(8)
C9A C 0.47298(17) 0.05700(13) -0.34974(9)
H6A H 0.3919 0.0376 -0.3398
C10A C 0.52386(16) 0.06271(13) -0.41524(8)
H7A H 0.4754 0.0486 -0.4496
C11A C 0.64581(15) 0.08907(11) -0.43044(8)
C12A C 0.71776(17) 0.10835(13) -0.37830(8)
H8A H 0.8016 0.1235 -0.3873
C13A C 0.66547(17) 0.10518(13) -0.31320(9)
H9A H 0.7129 0.1199 -0.2787
C14A C 0.70015(15) 0.10125(11) -0.50122(8)
C15A C 0.22985(16) -0.16373(12) -0.13605(9)
C16A C 0.21805(16) -0.10278(12) -0.08282(8)
C17A C 0.15658(18) -0.13247(13) -0.02214(9)
H10A H 0.1254 -0.1896 -0.0161
C18A C 0.14081(19) -0.07887(13) 0.02939(9)
H11A H 0.0988 -0.0993 0.0698
C19A C 0.18785(18) 0.00544(13) 0.02060(9)
C20A C 0.2531(2) 0.03506(14) -0.03868(10)
H12A H 0.2875 0.0909 -0.0437
C21A C 0.26701(19) -0.01894(13) -0.09047(9)
H13A H 0.3096 0.0013 -0.1308
C22A C 0.23408(19) 0.12749(14) 0.07921(9)
C23A C 0.33849(18) 0.10730(13) 0.12207(10)
H14A H 0.3636 0.0464 0.1444
C24A C 0.40622(17) 0.17832(12) 0.13184(9)
H15A H 0.4778 0.1649 0.1606
C25A C 0.36885(15) 0.26863(11) 0.09946(8)
C26A C 0.26374(19) 0.28646(14) 0.05666(10)
H16A H 0.2381 0.3470 0.0339
C27A C 0.1955(2) 0.21557(16) 0.04687(11)
H17A H 0.1237 0.2285 0.0183
C28A C 0.44382(14) 0.34551(11) 0.10911(7)
C29A C 0.26132(14) 0.67838(11) 0.70957(8)
C30A C 0.27618(14) 0.61520(11) 0.65639(7)
C31A C 0.22604(15) 0.53156(12) 0.66778(8)
H18A H 0.1804 0.5160 0.7081
C32A C 0.24270(16) 0.47082(12) 0.62020(9)
H19A H 0.2075 0.4152 0.6280
C33A C 0.31194(16) 0.49384(13) 0.56138(9)
C34A C 0.36234(16) 0.57693(13) 0.54864(9)
H20A H 0.4082 0.5921 0.5083
C35A C 0.34412(16) 0.63726(12) 0.59613(8)
H21A H 0.3778 0.6934 0.5877
C36A C 0.26450(17) 0.37294(14) 0.49892(9)
C37A C 0.31733(18) 0.28105(15) 0.49998(10)
H22A H 0.4015 0.2587 0.5164
C38A C 0.24507(17) 0.22136(13) 0.47653(9)
H23A H 0.2805 0.1583 0.4780
C39A C 0.12071(15) 0.25374(11) 0.45093(8)
C40A C 0.06879(16) 0.34692(12) 0.45091(9)
H24A H -0.0150 0.3698 0.4343
C41A C 0.14034(18) 0.40694(14) 0.47548(10)
H25A H 0.1044 0.4695 0.4760
C42A C 0.04389(15) 0.18706(12) 0.42574(7)
C43A C 1.09474(15) 0.04295(12) -0.36374(8)
C44A C 1.08000(14) 0.12463(11) -0.32548(7)
C45A C 1.10522(17) 0.11344(13) -0.25683(8)
H26A H 1.1327 0.0537 -0.2331
C46A C 1.08979(19) 0.19080(13) -0.22323(9)
H27A H 1.1049 0.1832 -0.1769
C47A C 1.05202(16) 0.27878(12) -0.25887(8)
C48A C 1.02650(16) 0.29122(12) -0.32715(8)
H28A H 1.0003 0.3511 -0.3508
C49A C 1.04023(16) 0.21380(12) -0.36010(8)
H29A H 1.0225 0.2217 -0.4062
C50A C 0.98665(17) 0.36422(11) -0.16697(8)
C51A C 1.05213(16) 0.39756(12) -0.11968(9)
H30A H 1.1368 0.4110 -0.1288
C52A C 0.99034(15) 0.41086(12) -0.05850(8)
H31A H 1.0351 0.4315 -0.0256
C53A C 0.86312(14) 0.39414(11) -0.04514(7)
C54A C 0.79799(16) 0.36083(12) -0.09390(8)
H32A H 0.7122 0.3495 -0.0857
C55A C 0.86058(17) 0.34459(13) -0.15443(8)
H33A H 0.8182 0.3206 -0.1865
C56A C 0.79879(15) 0.40756(10) 0.02139(7)
N1 N 0.1781(6) 0.2166(6) 0.2622(3)
N2 N 0.3000(3) 0.3201(3) 0.26710(16)
C57 C 0.2836(4) 0.1725(3) 0.30018(19)
H34 H 0.2993 0.1097 0.3198
C58 C 0.3589(6) 0.2363(3) 0.3035(3)
H35 H 0.4379 0.2267 0.3264
C59 C 0.1912(4) 0.3065(3) 0.24191(17)
C60 C 0.0691(4) 0.1701(3) 0.2432(2)
H36 H -0.0128 0.2116 0.2451
H37 H 0.0656 0.1132 0.2743
H38 H 0.0844 0.1555 0.1979
C61 C 0.1002(4) 0.3748(5) 0.1975(2)
H39 H 0.1467 0.4217 0.1729
H40 H 0.0311 0.4041 0.2245
H41 H 0.0631 0.3432 0.1659
C62 C 0.3622(8) 0.4059(11) 0.2613(8)
H42 H 0.3600 0.4352 0.2141
H43 H 0.4537 0.3872 0.2736
C63 C 0.2991(15) 0.4795(11) 0.3051(9)
H44 H 0.2097 0.5068 0.2950
H45 H 0.3006 0.4435 0.3498
C64 C 0.3877(16) 0.5450(13) 0.3066(10)
H46 H 0.4053 0.5731 0.2604
H47 H 0.4702 0.5114 0.3255
C65 C 0.334(2) 0.6250(15) 0.3493(13)
H48 H 0.4032 0.6589 0.3562
H49 H 0.3014 0.5978 0.3925
H50 H 0.2638 0.6671 0.3253
C66? C 0.0802(9) 0.2995(6) 0.2155(4)
C67? C 0.1335(11) 0.3789(10) 0.2168(5)
C68? C 0.2603(8) 0.2605(7) 0.2687(4)
C69? C 0.1380(8) 0.1306(8) 0.2606(5)
C70? C 0.3745(13) 0.1982(9) 0.3045(7)
C71? C 0.328(2) 0.418(3) 0.2508(18)
C72? C 0.312(3) 0.460(3) 0.3139(19)
C73? C 0.369(4) 0.559(3) 0.308(2)
C74? C 0.346(5) 0.605(3) 0.362(3)
H51? H 0.0015 0.2976 0.1950
H52? H 0.0955 0.4401 0.2001
H53? H 0.2149 0.0969 0.2840
H54? H 0.1301 0.1062 0.2191
H55? H 0.0617 0.1231 0.2888
H56? H 0.3430 0.1506 0.3370
H57? H 0.4219 0.2351 0.3276
H58? H 0.4316 0.1691 0.2720
H59? H 0.3121 0.4676 0.2124
H60? H 0.4186 0.3875 0.2473
H61? H 0.3565 0.4155 0.3503
H62? H 0.2191 0.4705 0.3259
H63? H 0.4629 0.5464 0.3003
H64? H 0.3309 0.6003 0.2685
H65? H 0.3960 0.6562 0.3560
H66? H 0.3729 0.5630 0.4024
H67? H 0.2545 0.6294 0.3648
N3? N 0.1497(16) 0.2326(14) 0.2445(8)
N4? N 0.2483(7) 0.3533(6) 0.2459(4)
loop_
_geom_bond_atom_site_label_1
_geom_bond_atom_site_label_2
_geom_bond_site_symmetry_1
_geom_bond_site_symmetry_2
Mg1 O1 1_555 1_555
Mg2 O2 1_555 1_555
Mg3 O4 1_555 1_555
Mg4 O5 1_555 1_555
O1 C1 1_555 1_555
O2 C1 1_555 1_555
O3 C5 1_555 1_555
O4 C14 1_555 1_555
O5 Mg3 1_555 1_555
O6 C15 1_555 1_555
O7 H1 1_555 1_555
O8 C19 1_555 1_555
O9 C28 1_555 1_555
O10 Mg2 1_555 1_555
O11 Mg1 1_555 1_555
O12 C29 1_555 1_555
O13 C33 1_555 1_555
O14 C42 1_555 1_555
O15 C42 1_555 1_555
O16 C43 1_555 1_555
O17 Mg4 1_555 1_555
O18 C47 1_555 1_555
O19 C56 1_555 1_555
O20 Mg2 1_555 1_555
C1 C2 1_555 1_555
C2 C3 1_555 1_555
C3 H2 1_555 1_555
C4 C3 1_555 1_555
H3 C4 1_555 1_555
C5 C4 1_555 1_555
C6 C5 1_555 1_555
H4 C6 1_555 1_555
C7 C2 1_555 1_555
H5 C7 1_555 1_555
C8 O3 1_555 1_555
C9 C8 1_555 1_555
H6 C9 1_555 1_555
C10 C9 1_555 1_555
H7 C10 1_555 1_555
C11 C10 1_555 1_555
C12 C11 1_555 1_555
H8 C12 1_555 1_555
C13 C8 1_555 1_555
H9 C13 1_555 1_555
C14 O5 1_555 1_555
C15 O7 1_555 1_555
C16 C15 1_555 1_555
C17 C16 1_555 1_555
H10 C17 1_555 1_555
C18 C17 1_555 1_555
H11 C18 1_555 1_555
C19 C18 1_555 1_555
C20 C19 1_555 1_555
H12 C20 1_555 1_555
C21 C16 1_555 1_555
H13 C21 1_555 1_555
C22 O8 1_555 1_555
C23 C22 1_555 1_555
H14 C23 1_555 1_555
C24 C23 1_555 1_555
H15 C24 1_555 1_555
C25 C24 1_555 1_555
C26 C25 1_555 1_555
H16 C26 1_555 1_555
C27 C22 1_555 1_555
H17 C27 1_555 1_555
C28 O10 1_555 1_555
C29 O11 1_555 1_555
C30 C29 1_555 1_555
C31 C30 1_555 1_555
H18 C31 1_555 1_555
C32 C31 1_555 1_555
H19 C32 1_555 1_555
C33 C32 1_555 1_555
C34 C33 1_555 1_555
H20 C34 1_555 1_555
C35 C30 1_555 1_555
H21 C35 1_555 1_555
C36 O13 1_555 1_555
C37 C36 1_555 1_555
H22 C37 1_555 1_555
C38 C37 1_555 1_555
H23 C38 1_555 1_555
C39 C38 1_555 1_555
C40 C39 1_555 1_555
H24 C40 1_555 1_555
C41 C36 1_555 1_555
H25 C41 1_555 1_555
C42 C39 1_555 1_555
C43 O17 1_555 1_555
C44 C43 1_555 1_555
C45 C44 1_555 1_555
H26 C45 1_555 1_555
C46 C45 1_555 1_555
H27 C46 1_555 1_555
C47 C46 1_555 1_555
C48 C47 1_555 1_555
H28 C48 1_555 1_555
C49 C44 1_555 1_555
H29 C49 1_555 1_555
C50 O18 1_555 1_555
C51 C50 1_555 1_555
H30 C51 1_555 1_555
C52 C51 1_555 1_555
H31 C52 1_555 1_555
C53 C52 1_555 1_555
C54 C53 1_555 1_555
H32 C54 1_555 1_555
C55 C50 1_555 1_555
H33 C55 1_555 1_555
C56 O20 1_555 1_555
N1 C57 1_555 1_555
N2 C58 1_555 1_555
C57 H34 1_555 1_555
C58 C57 1_555 1_555
H35 C58 1_555 1_555
C59 N1 1_555 1_555
C60 N1 1_555 1_555
H36 C60 1_555 1_555
H37 C60 1_555 1_555
H38 C60 1_555 1_555
C61 C59 1_555 1_555
H39 C61 1_555 1_555
H40 C61 1_555 1_555
H41 C61 1_555 1_555
C62 N2 1_555 1_555
H42 C62 1_555 1_555
H43 C62 1_555 1_555
C63 C62 1_555 1_555
H44 C63 1_555 1_555
H45 C63 1_555 1_555
C64 C63 1_555 1_555
H46 C64 1_555 1_555
H47 C64 1_555 1_555
C65 C64 1_555 1_555
H48 C65 1_555 1_555
H49 C65 1_555 1_555
H50 C65 1_555 1_555
Mg1A O9 1_555 1_555
Mg1_2 O6 1_555 1_555
Mg1A_2 O6A 1_555 1_555
Mg1A_3 O11A 1_555 1_555
Mg3A O4A 1_555 1_555
Mg3A_2 O12 1_555 1_555
Mg3_2 O15 1_555 1_555
Mg3A_3 O16 1_555 1_555
Mg3_3 O16A 1_555 1_555
Mg3A_4 O15A 1_555 1_555
Mg4_2 O14 1_555 1_555
Mg4_3 O5A 1_555 1_555
Mg4_4 O14A 1_555 1_555
O1A Mg1A 1_555 1_555
O2A Mg2 1_555 1_555
O3A C5A 1_555 1_555
O4A C14A 1_555 1_555
O5A Mg3A 1_555 1_555
O5A_2 Mg4 1_555 1_555
O6A C15A 1_555 1_555
O6_2 Mg1 1_555 1_555
O6A_2 Mg1A 1_555 1_555
O7A H1A 1_555 1_555
O8A C19A 1_555 1_555
O9A Mg1 1_555 1_555
O10A Mg2 1_555 1_555
O11A C29A 1_555 1_555
O11A_2 Mg1A 1_555 1_555
O12A Mg3 1_555 1_555
O12_2 Mg3A 1_555 1_555
O13A C33A 1_555 1_555
O14A C42A 1_555 1_555
O14_2 Mg4 1_555 1_555
O14A_2 Mg4 1_555 1_555
O15A C42A 1_555 1_555
O15_2 Mg3 1_555 1_555
O15A_2 Mg3A 1_555 1_555
O16A C43A 1_555 1_555
O16A_2 Mg3 1_555 1_555
O16_2 Mg3A 1_555 1_555
O17A Mg4_3 1_555 1_555
O17A_2 Mg4 1_555 1_555
O18A C47A 1_555 1_555
O19A Mg1 1_555 1_555
O20A Mg1 1_555 1_555
C1A O1A 1_555 1_555
C2A C1A 1_555 1_555
C3A C2A 1_555 1_555
H2A C3A 1_555 1_555
C4A C3A 1_555 1_555
H3A C4A 1_555 1_555
C5A C4A 1_555 1_555
C6A C5A 1_555 1_555
H4A C6A 1_555 1_555
C7A C2A 1_555 1_555
H5A C7A 1_555 1_555
C8A O3A 1_555 1_555
C9A C8A 1_555 1_555
H6A C9A 1_555 1_555
C10A C9A 1_555 1_555
H7A C10A 1_555 1_555
C11A C10A 1_555 1_555
C12A C11A 1_555 1_555
H8A C12A 1_555 1_555
C13A C8A 1_555 1_555
H9A C13A 1_555 1_555
C14A O5A 1_555 1_555
C15A O7A 1_555 1_555
C16A C15A 1_555 1_555
C17A C16A 1_555 1_555
H10A C17A 1_555 1_555
C18A C17A 1_555 1_555
H11A C18A 1_555 1_555
C19A C18A 1_555 1_555
C20A C19A 1_555 1_555
H12A C20A 1_555 1_555
C21A C16A 1_555 1_555
H13A C21A 1_555 1_555
C22A O8A 1_555 1_555
C23A C22A 1_555 1_555
H14A C23A 1_555 1_555
C24A C23A 1_555 1_555
H15A C24A 1_555 1_555
C25A C24A 1_555 1_555
C26A C25A 1_555 1_555
H16A C26A 1_555 1_555
C27A C22A 1_555 1_555
H17A C27A 1_555 1_555
C28A O9A 1_555 1_555
C29A O12A 1_555 1_555
C30A C29A 1_555 1_555
C31A C30A 1_555 1_555
H18A C31A 1_555 1_555
C32A C31A 1_555 1_555
H19A C32A 1_555 1_555
C33A C32A 1_555 1_555
C34A C33A 1_555 1_555
H20A C34A 1_555 1_555
C35A C30A 1_555 1_555
H21A C35A 1_555 1_555
C36A O13A 1_555 1_555
C37A C36A 1_555 1_555
H22A C37A 1_555 1_555
C38A C37A 1_555 1_555
H23A C38A 1_555 1_555
C39A C38A 1_555 1_555
C40A C39A 1_555 1_555
H24A C40A 1_555 1_555
C41A C36A 1_555 1_555
H25A C41A 1_555 1_555
C42A C39A 1_555 1_555
C43A O17A 1_555 1_555
C44A C43A 1_555 1_555
C45A C44A 1_555 1_555
H26A C45A 1_555 1_555
C46A C45A 1_555 1_555
H27A C46A 1_555 1_555
C47A C46A 1_555 1_555
C48A C47A 1_555 1_555
H28A C48A 1_555 1_555
C49A C44A 1_555 1_555
H29A C49A 1_555 1_555
C50A O18A 1_555 1_555
C51A C50A 1_555 1_555
H30A C51A 1_555 1_555
C52A C51A 1_555 1_555
H31A C52A 1_555 1_555
C53A C52A 1_555 1_555
C54A C53A 1_555 1_555
H32A C54A 1_555 1_555
C55A C50A 1_555 1_555
H33A C55A 1_555 1_555
C56A O19A 1_555 1_555
Mg2 O20A 1_555 1_555
O19 Mg1A 1_555 1_555
O20 Mg1A 1_555 1_555
C6 C7 1_555 1_555
C11 C14 1_555 1_555
C12 C13 1_555 1_555
C20 C21 1_555 1_555
C25 C28 1_555 1_555
C26 C27 1_555 1_555
C34 C35 1_555 1_555
C40 C41 1_555 1_555
C48 C49 1_555 1_555
C53 C56 1_555 1_555
C54 C55 1_555 1_555
N2 C59 1_555 1_555
Mg3A_3 O5A_2 1_555 1_555
O2A C1A 1_555 1_555
O10A C28A 1_555 1_555
O20A C56A 1_555 1_555
C6A C7A 1_555 1_555
C11A C14A 1_555 1_555
C12A C13A 1_555 1_555
C20A C21A 1_555 1_555
C25A C28A 1_555 1_555
C26A C27A 1_555 1_555
C34A C35A 1_555 1_555
C40A C41A 1_555 1_555
C48A C49A 1_555 1_555
C53A C56A 1_555 1_555
C54A C55A 1_555 1_555

#END
