
#######################################################################
#
#                 Cambridge Crystallographic Data Centre
#                                CCDC 
#
#######################################################################
#
# If this CIF has been generated from an entry in the Cambridge 
# Structural Database, then it will include bibliographic, chemical, 
# crystal, experimental, refinement or atomic coordinate data resulting 
# from the CCDC's data processing and validation procedures.
#
#######################################################################

data_REFGEQ
_symmetry_cell_setting           triclinic
_symmetry_space_group_name_H-M   'P -1'
_symmetry_Int_Tables_number      2
_space_group_name_Hall           '-P 1'
loop_
_symmetry_equiv_pos_site_id
_symmetry_equiv_pos_as_xyz
1 x,y,z
2 -x,-y,-z
_cell_length_a                   6.95230(10)
_cell_length_b                   9.7301(2)
_cell_length_c                   20.7121(8)
_cell_angle_alpha                80.209(9)
_cell_angle_beta                 84.395(7)
_cell_angle_gamma                71.379(7)
_cell_volume                     1307.01
loop_
_atom_site_label
_atom_site_type_symbol
_atom_site_fract_x
_atom_site_fract_y
_atom_site_fract_z
Cd1 Cd 0.0000 -1.0000 1.5000
Cd2 Cd -0.06435(2) -1.358509(15) 1.580314(7)
O1 O -0.0320(2) -1.43074(16) 1.69255(7)
H1 H -0.119(2) -1.3853(16) 1.7204(7)
H2 H -0.028(3) -1.5155(13) 1.7025(10)
O2 O -0.1239(2) -1.04294(15) 1.26253(6)
O3 O -0.2584(3) -0.43180(17) 1.07319(8)
O4 O -0.2479(2) -0.58973(17) 1.00391(7)
N1 N 0.1610(3) -0.88841(18) 1.41513(8)
N2 N 0.3308(3) -0.95106(19) 1.39233(9)
N3 N 0.4890(3) -1.0088(2) 1.36913(11)
N4 N -0.0401(2) -1.17107(18) 1.43568(8)
N5 N -0.0279(3) -1.30904(18) 1.46246(8)
N6 N -0.0307(3) -1.38436(18) 1.41525(8)
N7 N -0.0441(2) -1.29832(18) 1.35618(8)
C1 C -0.2640(4) -0.4713(3) 0.94955(12)
H3 H -0.2631 -0.5073 0.9091
H4 H -0.1510 -0.4344 0.9486
H5 H -0.3884 -0.3939 0.9550
C2 C -0.0509(3) -1.1677(2) 1.37078(10)
C3 C -0.0669(3) -1.0293(2) 1.32498(9)
H6 H -0.1678 -0.9479 1.3423
H7 H 0.0627 -1.0100 1.3204
C4 C -0.1556(3) -0.9194(2) 1.21716(10)
C5 C -0.1515(3) -0.7836(2) 1.22989(10)
H8 H -0.1278 -0.7720 1.2717
C6 C -0.1952(3) -0.9357(2) 1.15427(10)
H9 H -0.1997 -1.0257 1.1461
C7 C -0.2273(3) -0.8183(2) 1.10454(10)
H10 H -0.2537 -0.8293 1.0629
C8 C -0.1832(3) -0.6668(2) 1.17919(11)
H11 H -0.1795 -0.5766 1.1873
C9 C -0.2205(3) -0.6819(2) 1.11655(10)
C10 C -0.2455(3) -0.5535(3) 1.06372(11)
O5 O 0.5563(2) -1.53693(15) 1.69540(7)
O6 O 0.6962(2) -2.14436(16) 1.88691(7)
O7 O 0.7457(2) -1.99683(16) 1.95186(7)
N8 N 0.2676(2) -1.32808(18) 1.57182(8)
N9 N 0.2926(2) -1.20375(18) 1.53571(8)
N10 N 0.4843(2) -1.20775(18) 1.53427(8)
N11 N 0.5903(2) -1.33483(18) 1.56927(8)
C11 C 0.7831(4) -2.1192(2) 2.00481(11)
H12 H 0.8086 -2.0883 2.0439
H13 H 0.8991 -2.1973 1.9930
H14 H 0.6662 -2.1531 2.0126
C12 C 0.4531(3) -1.4059(2) 1.59180(10)
C13 C 0.4966(3) -1.5517(2) 1.63303(10)
H15 H 0.3766 -1.5836 1.6388
H16 H 0.6050 -1.6235 1.6124
C14 C 0.5888(3) -1.6588(2) 1.74230(10)
C15 C 0.6624(3) -1.6479(2) 1.80081(10)
H17 H 0.6877 -1.5623 1.8061
C16 C 0.5520(3) -1.7872(2) 1.73384(10)
H18 H 0.5014 -1.7937 1.6949
C17 C 0.5915(3) -1.9046(2) 1.78400(10)
H19 H 0.5692 -1.9910 1.7783
C18 C 0.6972(3) -1.7648(2) 1.85079(11)
H20 H 0.7433 -1.7569 1.8903
C19 C 0.6640(3) -1.8953(2) 1.84278(10)
C20 C 0.7031(3) -2.0253(2) 1.89441(10)
Cd2A Cd 0.06435(2) -0.641491(15) 1.419686(7)
Cd2A_2 Cd 0.06435(2) -1.641491(15) 1.419686(7)
Cd2_2 Cd 0.93565(2) -1.358509(15) 1.580314(7)
Cd2_3 Cd -0.06435(2) -0.358509(15) 1.580314(7)
Cd2A_3 Cd -0.93565(2) -0.641491(15) 1.419686(7)
O1A O 0.0320(2) -0.56926(16) 1.30745(7)
H1A H 0.119(2) -0.6147(16) 1.2796(7)
H2A H 0.028(3) -0.4845(13) 1.2975(10)
O2A O 0.1239(2) -0.95706(15) 1.73747(6)
O3A O 0.2584(3) -1.56820(17) 1.92681(8)
O4A O 0.2479(2) -1.41027(17) 1.99609(7)
N1A N -0.1610(3) -1.11159(18) 1.58487(8)
N2A N -0.3308(3) -1.04894(19) 1.60767(9)
N3A N -0.4890(3) -0.9912(2) 1.63087(11)
N4A N 0.0401(2) -0.82893(18) 1.56432(8)
N5A N 0.0279(3) -0.69096(18) 1.53754(8)
N6A N 0.0307(3) -0.61564(18) 1.58475(8)
N6A_2 N 0.0307(3) -1.61564(18) 1.58475(8)
N6_2 N -0.0307(3) -0.38436(18) 1.41525(8)
N7A N 0.0441(2) -0.70168(18) 1.64382(8)
C1A C 0.2640(4) -1.5287(3) 2.05045(12)
H3A H 0.2631 -1.4927 2.0909
H4A H 0.1510 -1.5656 2.0514
H5A H 0.3884 -1.6061 2.0450
C2A C 0.0509(3) -0.8323(2) 1.62922(10)
C3A C 0.0669(3) -0.9707(2) 1.67502(9)
H6A H 0.1678 -1.0521 1.6577
H7A H -0.0627 -0.9900 1.6796
C4A C 0.1556(3) -1.0806(2) 1.78284(10)
C5A C 0.1515(3) -1.2164(2) 1.77011(10)
H8A H 0.1278 -1.2280 1.7283
C6A C 0.1952(3) -1.0643(2) 1.84573(10)
H9A H 0.1997 -0.9743 1.8539
C7A C 0.2273(3) -1.1817(2) 1.89546(10)
H10A H 0.2537 -1.1707 1.9371
C8A C 0.1832(3) -1.3332(2) 1.82081(11)
H11A H 0.1795 -1.4234 1.8127
C9A C 0.2205(3) -1.3181(2) 1.88345(10)
C10A C 0.2455(3) -1.4465(3) 1.93628(11)
O5A O -0.5563(2) -0.46307(15) 1.30460(7)
O6A O -0.6962(2) 0.14436(16) 1.11309(7)
O7A O -0.7457(2) -0.00317(16) 1.04814(7)
N8A N -0.2676(2) -0.67192(18) 1.42818(8)
N9A N -0.2926(2) -0.79625(18) 1.46429(8)
N10A N -0.4843(2) -0.79225(18) 1.46573(8)
N11A N -0.5903(2) -0.66517(18) 1.43073(8)
N11_2 N -0.4097(2) -1.33483(18) 1.56927(8)
N11A_2 N 0.4097(2) -0.66517(18) 1.43073(8)
C11A C -0.7831(4) 0.1192(2) 0.99519(11)
H12A H -0.8086 0.0883 0.9561
H13A H -0.8991 0.1973 1.0070
H14A H -0.6662 0.1531 0.9874
C12A C -0.4531(3) -0.5941(2) 1.40820(10)
C13A C -0.4966(3) -0.4483(2) 1.36697(10)
H15A H -0.3766 -0.4164 1.3612
H16A H -0.6050 -0.3765 1.3876
C14A C -0.5888(3) -0.3412(2) 1.25770(10)
C15A C -0.6624(3) -0.3521(2) 1.19919(10)
H17A H -0.6877 -0.4377 1.1939
C16A C -0.5520(3) -0.2128(2) 1.26616(10)
H18A H -0.5014 -0.2063 1.3051
C17A C -0.5915(3) -0.0954(2) 1.21600(10)
H19A H -0.5692 -0.0090 1.2217
C18A C -0.6972(3) -0.2352(2) 1.14921(11)
H20A H -0.7433 -0.2431 1.1097
C19A C -0.6640(3) -0.1047(2) 1.15722(10)
C20A C -0.7031(3) 0.0253(2) 1.10559(10)
O8 O -0.3192(2) -1.29108(17) 1.78068(8)
H21 H -0.304(2) -1.2486(17) 1.8112(7)
H22 H -0.438(2) -1.273(2) 1.7763(11)
O9 O -0.1176(8) -0.3131(6) 1.1674(3)
H23 H -0.217(2) -0.334(3) 1.1566(16)
H24 H -0.112(7) -0.339(8) 1.2082(9)
loop_
_geom_bond_atom_site_label_1
_geom_bond_atom_site_label_2
_geom_bond_site_symmetry_1
_geom_bond_site_symmetry_2
Cd1 N1 1_555 1_555
Cd2 O1 1_555 1_555
O1 H1 1_555 1_555
H2 O1 1_555 1_555
O2 C3 1_555 1_555
O3 C10 1_555 1_555
O4 C1 1_555 1_555
N1 N2 1_555 1_555
N2 N3 1_555 1_555
N4 Cd1 1_555 1_555
N5 Cd2 1_555 1_555
N6 N5 1_555 1_555
N7 N6 1_555 1_555
C1 H3 1_555 1_555
H4 C1 1_555 1_555
H5 C1 1_555 1_555
C2 N4 1_555 1_555
C3 C2 1_555 1_555
H6 C3 1_555 1_555
H7 C3 1_555 1_555
C4 O2 1_555 1_555
C5 C4 1_555 1_555
H8 C5 1_555 1_555
C6 C4 1_555 1_555
H9 C6 1_555 1_555
C7 C6 1_555 1_555
H10 C7 1_555 1_555
C8 C5 1_555 1_555
H11 C8 1_555 1_555
C9 C7 1_555 1_555
C10 O4 1_555 1_555
O5 C13 1_555 1_555
O6 C20 1_555 1_555
O7 C11 1_555 1_555
N8 Cd2 1_555 1_555
N9 Cd1 1_555 1_555
N10 N9 1_555 1_555
N11 N10 1_555 1_555
C11 H12 1_555 1_555
H13 C11 1_555 1_555
H14 C11 1_555 1_555
C12 N8 1_555 1_555
C13 C12 1_555 1_555
H15 C13 1_555 1_555
H16 C13 1_555 1_555
C14 O5 1_555 1_555
C15 C14 1_555 1_555
H17 C15 1_555 1_555
C16 C14 1_555 1_555
H18 C16 1_555 1_555
C17 C16 1_555 1_555
H19 C17 1_555 1_555
C18 C15 1_555 1_555
H20 C18 1_555 1_555
C19 C17 1_555 1_555
C20 O7 1_555 1_555
O8 H21 1_555 1_555
H22 O8 1_555 1_555
O9 H23 1_555 1_555
H24 O9 1_555 1_555
Cd2A N1 1_555 1_555
Cd2A_2 N6 1_555 1_555
Cd2_2 N11 1_555 1_555
Cd2_3 N6A 1_555 1_555
Cd2A_3 N11A 1_555 1_555
O1A Cd2A 1_555 1_555
H1A O1A 1_555 1_555
H2A O1A 1_555 1_555
O2A C3A 1_555 1_555
O3A C10A 1_555 1_555
O4A C1A 1_555 1_555
N1A Cd1 1_555 1_555
N2A N1A 1_555 1_555
N3A N2A 1_555 1_555
N4A Cd1 1_555 1_555
N5A Cd2A 1_555 1_555
N6A N5A 1_555 1_555
N6A_2 Cd2 1_555 1_555
N6_2 Cd2A 1_555 1_555
N7A N6A 1_555 1_555
C1A H3A 1_555 1_555
H4A C1A 1_555 1_555
H5A C1A 1_555 1_555
C2A N4A 1_555 1_555
C3A C2A 1_555 1_555
H6A C3A 1_555 1_555
H7A C3A 1_555 1_555
C4A O2A 1_555 1_555
C5A C4A 1_555 1_555
H8A C5A 1_555 1_555
C6A C4A 1_555 1_555
H9A C6A 1_555 1_555
C7A C6A 1_555 1_555
H10A C7A 1_555 1_555
C8A C5A 1_555 1_555
H11A C8A 1_555 1_555
C9A C7A 1_555 1_555
C10A O4A 1_555 1_555
O5A C13A 1_555 1_555
O6A C20A 1_555 1_555
O7A C11A 1_555 1_555
N8A Cd2A 1_555 1_555
N9A Cd1 1_555 1_555
N10A N9A 1_555 1_555
N11A N10A 1_555 1_555
N11_2 Cd2 1_555 1_555
N11A_2 Cd2A 1_555 1_555
C11A H12A 1_555 1_555
H13A C11A 1_555 1_555
H14A C11A 1_555 1_555
C12A N8A 1_555 1_555
C13A C12A 1_555 1_555
H15A C13A 1_555 1_555
H16A C13A 1_555 1_555
C14A O5A 1_555 1_555
C15A C14A 1_555 1_555
H17A C15A 1_555 1_555
C16A C14A 1_555 1_555
H18A C16A 1_555 1_555
C17A C16A 1_555 1_555
H19A C17A 1_555 1_555
C18A C15A 1_555 1_555
H20A C18A 1_555 1_555
C19A C17A 1_555 1_555
C20A O7A 1_555 1_555
Cd2 N1A 1_555 1_555
N4 N5 1_555 1_555
N7 C2 1_555 1_555
C8 C9 1_555 1_555
C9 C10 1_555 1_555
N8 N9 1_555 1_555
N11 C12 1_555 1_555
C18 C19 1_555 1_555
C19 C20 1_555 1_555
N4A N5A 1_555 1_555
N7A C2A 1_555 1_555
C8A C9A 1_555 1_555
C9A C10A 1_555 1_555
N8A N9A 1_555 1_555
N11A C12A 1_555 1_555
C18A C19A 1_555 1_555
C19A C20A 1_555 1_555

#END
