
#######################################################################
#
#                 Cambridge Crystallographic Data Centre
#                                CCDC 
#
#######################################################################
#
# If this CIF has been generated from an entry in the Cambridge 
# Structural Database, then it will include bibliographic, chemical, 
# crystal, experimental, refinement or atomic coordinate data resulting 
# from the CCDC's data processing and validation procedures.
#
#######################################################################

data_REFGUG
_symmetry_cell_setting           orthorhombic
_symmetry_space_group_name_H-M   'P 21 21 21'
_symmetry_Int_Tables_number      19
_space_group_name_Hall           'P 2ac 2ab'
loop_
_symmetry_equiv_pos_site_id
_symmetry_equiv_pos_as_xyz
1 x,y,z
2 1/2-x,-y,1/2+z
3 -x,1/2+y,1/2-z
4 1/2+x,1/2-y,-z
_cell_length_a                   9.2674(16)
_cell_length_b                   10.0980(17)
_cell_length_c                   13.859(2)
_cell_angle_alpha                90
_cell_angle_beta                 90
_cell_angle_gamma                90
_cell_volume                     1296.96
loop_
_atom_site_label
_atom_site_type_symbol
_atom_site_fract_x
_atom_site_fract_y
_atom_site_fract_z
C1 C 0.5470(8) 0.4814(8) 0.6247(5)
C2 C 0.5348(8) 0.4407(8) 0.5197(5)
C3 C 0.4248(8) 0.5005(8) 0.6796(5)
H1 H 0.3335 0.4848 0.6542
C4 C 0.4420(8) 0.5440(8) 0.7740(5)
C5 C 0.5816(8) 0.5654(10) 0.8113(5)
C6 C 0.7022(9) 0.5482(10) 0.7575(6)
H2 H 0.7935 0.5655 0.7823
C7 C 0.6832(9) 0.5028(10) 0.6620(6)
H3 H 0.7637 0.4870 0.6237
C8 C 0.4156(8) 0.6102(9) 0.9218(5)
H4 H 0.3737 0.6342 0.9802
C9 C -0.0157(10) 0.3056(9) 0.7925(6)
C10 C -0.0875(17) 0.2607(13) 0.8876(7)
H5 H -0.1433 0.3327 0.9151
H6 H -0.1519 0.1868 0.8757
C11 C 0.029(2) 0.220(2) 0.9553(13)
H7 H 0.0856 0.2966 0.9727
H8 H 0.0905 0.1562 0.9245
H9 H -0.0123 0.1823 1.0123
N1 N 0.3420(6) 0.5757(7) 0.8454(4)
N2 N 0.5601(7) 0.6071(7) 0.9063(4)
H10 H 0.6262 0.6272 0.9474
N3 N 0.0472(7) 0.4195(7) 0.7744(4)
N4 N 0.0600(7) 0.4308(8) 0.6773(4)
N5 N 0.0034(8) 0.3291(7) 0.6370(4)
N6 N -0.0445(7) 0.2438(7) 0.7068(4)
O1 O 0.4049(5) 0.4338(6) 0.4869(3)
O2 O 0.6434(6) 0.4193(6) 0.4720(4)
Zn1 Zn 0.12482(9) 0.57480(8) 0.84916(5)
N6B N 0.0445(7) 0.7438(7) 0.7932(4)
O1A O 0.0951(5) 0.5662(6) 0.9869(3)
Zn1A Zn 0.37518(9) 0.42520(8) 0.34916(5)
Zn1B Zn -0.12482(9) 0.07480(8) 0.65084(5)
loop_
_geom_bond_atom_site_label_1
_geom_bond_atom_site_label_2
_geom_bond_site_symmetry_1
_geom_bond_site_symmetry_2
C1 C2 1_555 1_555
C2 O1 1_555 1_555
C3 C1 1_555 1_555
H1 C3 1_555 1_555
C4 C3 1_555 1_555
C5 C4 1_555 1_555
C6 C5 1_555 1_555
H2 C6 1_555 1_555
C7 C1 1_555 1_555
H3 C7 1_555 1_555
C8 H4 1_555 1_555
C9 C10 1_555 1_555
C10 H5 1_555 1_555
H6 C10 1_555 1_555
C11 C10 1_555 1_555
H7 C11 1_555 1_555
H8 C11 1_555 1_555
H9 C11 1_555 1_555
N1 C4 1_555 1_555
N2 C5 1_555 1_555
H10 N2 1_555 1_555
N3 C9 1_555 1_555
N4 N3 1_555 1_555
N5 N4 1_555 1_555
N6 C9 1_555 1_555
O1 Zn1A 1_555 1_555
O2 C2 1_555 1_555
Zn1 N1 1_555 1_555
N6B Zn1 1_555 1_555
O1A Zn1 1_555 1_555
Zn1B N6 1_555 1_555
C6 C7 1_555 1_555
C8 N1 1_555 1_555
C8 N2 1_555 1_555
N3 Zn1 1_555 1_555
N5 N6 1_555 1_555

#END
