
#######################################################################
#
#                 Cambridge Crystallographic Data Centre
#                                CCDC 
#
#######################################################################
#
# If this CIF has been generated from an entry in the Cambridge 
# Structural Database, then it will include bibliographic, chemical, 
# crystal, experimental, refinement or atomic coordinate data resulting 
# from the CCDC's data processing and validation procedures.
#
#######################################################################

data_REFHAN
_symmetry_cell_setting           monoclinic
_symmetry_space_group_name_H-M   'C 2/c'
_symmetry_Int_Tables_number      15
_space_group_name_Hall           '-C 2yn'
loop_
_symmetry_equiv_pos_site_id
_symmetry_equiv_pos_as_xyz
1 x,y,z
2 -x,y,1/2-z
3 1/2+x,1/2+y,z
4 1/2-x,1/2+y,1/2-z
5 -x,-y,-z
6 x,-y,1/2+z
7 1/2-x,1/2-y,-z
8 1/2+x,1/2-y,1/2+z
_cell_length_a                   20.241(2)
_cell_length_b                   12.3710(13)
_cell_length_c                   21.075(2)
_cell_angle_alpha                90
_cell_angle_beta                 108.642(2)
_cell_angle_gamma                90
_cell_volume                     5000.34
loop_
_atom_site_label
_atom_site_type_symbol
_atom_site_fract_x
_atom_site_fract_y
_atom_site_fract_z
Cd1 Cd 0.08599(4) 0.20517(6) -0.51079(4)
N1 N 0.4685(4) -0.2471(7) -0.5492(5)
N2 N 0.1204(4) 0.7028(6) -0.0960(4)
O1 O 0.1616(3) 0.0715(5) -0.5203(4)
O2 O 0.0528(4) 0.0219(6) -0.5701(4)
O3 O 0.1616(4) 0.3135(6) -0.4335(4)
O4 O 0.0799(5) 0.3286(7) -0.3841(4)
O5 O 0.0653(4) 0.1110(6) -0.4169(3)
H1 H 0.0318 0.0665 -0.4315
H2 H 0.0541 0.1563 -0.3917
C1 C 0.1179(5) 0.0034(8) -0.5543(5)
C2 C 0.1444(5) -0.1018(8) -0.5763(5)
C3 C 0.2157(5) -0.1139(8) -0.5666(5)
H3 H 0.2460 -0.0593 -0.5448
C4 C 0.2432(6) -0.2062(9) -0.5886(6)
C5 C 0.1952(7) -0.2867(10) -0.6202(7)
H4 H 0.2112 -0.3476 -0.6368
C6 C 0.1239(7) -0.2786(10) -0.6277(8)
C7 C 0.1000(7) -0.1847(9) -0.6071(7)
H5 H 0.0525 -0.1771 -0.6141
C8 C 0.0749(7) -0.3792(11) -0.6542(8)
H6 H 0.0372 -0.3778 -0.6358
H7 H 0.1011 -0.4446 -0.6408
H8 H 0.0564 -0.3764 -0.7022
C9 C 0.3208(6) -0.2170(8) -0.5770(6)
C10 C 0.3711(6) -0.1425(9) -0.5432(7)
H9 H 0.3566 -0.0783 -0.5287
C11 C 0.4425(6) -0.1598(10) -0.5300(7)
H10 H 0.4733 -0.1070 -0.5064
C12 C 0.4212(6) -0.3205(9) -0.5850(6)
H11 H 0.4374 -0.3827 -0.5999
C13 C 0.3468(6) -0.3060(9) -0.6007(7)
H12 H 0.3163 -0.3569 -0.6269
C14 C 0.1420(6) 0.3505(10) -0.3878(6)
C15 C 0.1887(6) 0.4211(9) -0.3334(5)
C16 C 0.1628(6) 0.4815(9) -0.2901(5)
H13 H 0.1153 0.4792 -0.2961
C17 C 0.2067(5) 0.5465(9) -0.2372(5)
C18 C 0.2790(6) 0.5444(9) -0.2287(5)
H14 H 0.3093 0.5849 -0.1945
C19 C 0.3065(6) 0.4826(10) -0.2706(6)
C20 C 0.2614(6) 0.4219(9) -0.3228(6)
H15 H 0.2794 0.3817 -0.3508
C21 C 0.3876(6) 0.4804(10) -0.2589(6)
H16 H 0.4087 0.5441 -0.2349
H17 H 0.3957 0.4783 -0.3013
H18 H 0.4076 0.4174 -0.2333
C22 C 0.1790(5) 0.6042(8) -0.1901(5)
C23 C 0.1116(6) 0.6529(9) -0.2098(5)
H19 H 0.0841 0.6524 -0.2546
C24 C 0.0866(6) 0.7011(8) -0.1624(5)
H20 H 0.0434 0.7348 -0.1777
C25 C 0.1858(5) 0.6567(9) -0.0764(5)
H21 H 0.2116 0.6570 -0.0311
C26 C 0.2156(5) 0.6094(8) -0.1216(5)
H22 H 0.2604 0.5809 -0.1056
Cd1B Cd 0.58599(4) -0.29483(6) -0.51079(4)
Cd1E Cd 0.08599(4) 0.79483(6) -0.01079(4)
N1B N -0.0315(4) 0.2529(7) -0.5492(5)
N2E N 0.1204(4) 0.2972(6) -0.5960(4)
loop_
_geom_bond_atom_site_label_1
_geom_bond_atom_site_label_2
_geom_bond_site_symmetry_1
_geom_bond_site_symmetry_2
Cd1 O1 1_555 1_555
N1 C11 1_555 1_555
N2 C24 1_555 1_555
O1 C1 1_555 1_555
O2 Cd1 1_555 1_555
O3 Cd1 1_555 1_555
O4 C14 1_555 1_555
O5 Cd1 1_555 1_555
H1 O5 1_555 1_555
H2 O5 1_555 1_555
C1 O2 1_555 1_555
C2 C1 1_555 1_555
C3 C2 1_555 1_555
H3 C3 1_555 1_555
C4 C3 1_555 1_555
C5 C4 1_555 1_555
H4 C5 1_555 1_555
C6 C5 1_555 1_555
C7 C2 1_555 1_555
H5 C7 1_555 1_555
C8 C6 1_555 1_555
H6 C8 1_555 1_555
H7 C8 1_555 1_555
H8 C8 1_555 1_555
C9 C4 1_555 1_555
C10 C9 1_555 1_555
H9 C10 1_555 1_555
C11 C10 1_555 1_555
H10 C11 1_555 1_555
C12 N1 1_555 1_555
H11 C12 1_555 1_555
C13 C9 1_555 1_555
H12 C13 1_555 1_555
C14 O3 1_555 1_555
C15 C14 1_555 1_555
C16 C15 1_555 1_555
H13 C16 1_555 1_555
C17 C16 1_555 1_555
C18 C17 1_555 1_555
H14 C18 1_555 1_555
C19 C18 1_555 1_555
C20 C15 1_555 1_555
H15 C20 1_555 1_555
C21 C19 1_555 1_555
H16 C21 1_555 1_555
H17 C21 1_555 1_555
H18 C21 1_555 1_555
C22 C17 1_555 1_555
C23 C22 1_555 1_555
H19 C23 1_555 1_555
C24 C23 1_555 1_555
H20 C24 1_555 1_555
C25 N2 1_555 1_555
H21 C25 1_555 1_555
C26 C22 1_555 1_555
H22 C26 1_555 1_555
Cd1B N1 1_555 1_555
Cd1E N2 1_555 1_555
N1B Cd1 1_555 1_555
N2E Cd1 1_555 1_555
C6 C7 1_555 1_555
C12 C13 1_555 1_555
C19 C20 1_555 1_555
C25 C26 1_555 1_555

#END
