
#######################################################################
#
#                 Cambridge Crystallographic Data Centre
#                                CCDC 
#
#######################################################################
#
# If this CIF has been generated from an entry in the Cambridge 
# Structural Database, then it will include bibliographic, chemical, 
# crystal, experimental, refinement or atomic coordinate data resulting 
# from the CCDC's data processing and validation procedures.
#
#######################################################################

data_REFJOC
_symmetry_cell_setting           orthorhombic
_symmetry_space_group_name_H-M   'P b c n'
_symmetry_Int_Tables_number      60
_space_group_name_Hall           '-P 2n 2ab'
loop_
_symmetry_equiv_pos_site_id
_symmetry_equiv_pos_as_xyz
1 x,y,z
2 1/2-x,1/2-y,1/2+z
3 1/2+x,1/2-y,-z
4 -x,y,1/2-z
5 -x,-y,-z
6 1/2+x,1/2+y,1/2-z
7 1/2-x,1/2+y,z
8 x,-y,1/2+z
_cell_length_a                   20.2564(8)
_cell_length_b                   7.5598(3)
_cell_length_c                   15.0873(7)
_cell_angle_alpha                90
_cell_angle_beta                 90
_cell_angle_gamma                90
_cell_volume                     2310.38
loop_
_atom_site_label
_atom_site_type_symbol
_atom_site_fract_x
_atom_site_fract_y
_atom_site_fract_z
Cu1 Cu -0.20726(5) -0.09745(15) 0.39978(7)
Cl1 Cl -0.26678(9) 0.0685(3) 0.49400(13)
S1 S -0.10630(9) -0.0372(3) 0.45682(14)
N1 N -0.2828(3) -0.1648(9) 0.3176(4)
N2 N -0.1579(3) -0.1913(9) 0.3006(4)
N3 N -0.0891(3) -0.1895(9) 0.2958(4)
N4 N 0.0041(3) -0.0987(11) 0.3681(5)
H1 H 0.0306 -0.1057 0.3150
H2 H 0.0293 -0.0760 0.4219
N5 N -0.1627(3) -0.3190(11) 0.1599(5)
H3 H -0.1205 -0.3243 0.1548
H4 H -0.1875 -0.3569 0.1178
C1 C -0.3476(4) -0.1481(12) 0.3342(6)
H5 H -0.3615 -0.0963 0.3869
C2 C -0.3941(4) -0.2065(14) 0.2733(6)
H6 H -0.4389 -0.1907 0.2844
C3 C -0.3737(4) -0.2885(12) 0.1966(6)
H7 H -0.4044 -0.3303 0.1557
C4 C -0.3070(4) -0.3078(11) 0.1811(5)
H8 H -0.2921 -0.3631 0.1298
C5 C -0.2630(3) -0.2445(9) 0.2420(5)
C6 C -0.1895(3) -0.2526(10) 0.2328(5)
C7 C -0.0629(3) -0.1176(11) 0.3660(5)
Cu1F Cu -0.29274(5) 0.40255(15) 0.39978(7)
Cl1F Cl -0.23322(9) -0.4315(3) 0.49400(13)
loop_
_geom_bond_atom_site_label_1
_geom_bond_atom_site_label_2
_geom_bond_site_symmetry_1
_geom_bond_site_symmetry_2
Cu1 Cl1 1_555 1_555
Cl1 Cu1F 1_555 1_555
S1 Cu1 1_555 1_555
N1 Cu1 1_555 1_555
N2 Cu1 1_555 1_555
N3 N2 1_555 1_555
N4 H1 1_555 1_555
H2 N4 1_555 1_555
N5 H3 1_555 1_555
H4 N5 1_555 1_555
C1 N1 1_555 1_555
H5 C1 1_555 1_555
C2 C1 1_555 1_555
H6 C2 1_555 1_555
C3 C2 1_555 1_555
H7 C3 1_555 1_555
C4 C3 1_555 1_555
H8 C4 1_555 1_555
C5 N1 1_555 1_555
C6 N2 1_555 1_555
C7 S1 1_555 1_555
Cl1F Cu1 1_555 1_555
N3 C7 1_555 1_555
N4 C7 1_555 1_555
N5 C6 1_555 1_555
C4 C5 1_555 1_555
C5 C6 1_555 1_555

#END
