
#######################################################################
#
#                 Cambridge Crystallographic Data Centre
#                                CCDC 
#
#######################################################################
#
# If this CIF has been generated from an entry in the Cambridge 
# Structural Database, then it will include bibliographic, chemical, 
# crystal, experimental, refinement or atomic coordinate data resulting 
# from the CCDC's data processing and validation procedures.
#
#######################################################################

data_REFKET
_symmetry_cell_setting           monoclinic
_symmetry_space_group_name_H-M   'C 2/c'
_symmetry_Int_Tables_number      15
_space_group_name_Hall           '-C 2yn'
loop_
_symmetry_equiv_pos_site_id
_symmetry_equiv_pos_as_xyz
1 x,y,z
2 1/2+x,1/2+y,z
3 -x,y,1/2-z
4 1/2-x,1/2+y,1/2-z
5 -x,-y,-z
6 1/2-x,1/2-y,-z
7 x,-y,1/2+z
8 1/2+x,1/2-y,1/2+z
_cell_length_a                   16.031(6)
_cell_length_b                   16.249(6)
_cell_length_c                   7.829(3)
_cell_angle_alpha                90
_cell_angle_beta                 99.777(6)
_cell_angle_gamma                90
_cell_volume                     2009.74
loop_
_atom_site_label
_atom_site_type_symbol
_atom_site_fract_x
_atom_site_fract_y
_atom_site_fract_z
Cu1 Cu 0.7500 0.2500 0.0000
O1 O 0.5000 0.0305(2) -0.2500
O2 O 0.63320(14) 0.26587(14) 0.0315(3)
O3 O 0.65762(17) 0.29792(19) 0.3106(4)
N1 N 0.73150(18) 0.12641(19) -0.0002(4)
N2 N 0.5419(2) -0.0970(2) -0.2026(6)
C1 C 0.7917(3) 0.0746(3) 0.0731(5)
H1 H 0.8428 0.0963 0.1292
C2 C 0.7815(3) -0.0098(3) 0.0691(6)
H2 H 0.8249 -0.0442 0.1213
C3 C 0.7065(3) -0.0421(2) -0.0129(5)
H3 H 0.6979 -0.0987 -0.0171
C4 C 0.6432(2) 0.0111(2) -0.0897(5)
C5 C 0.6581(2) 0.0944(2) -0.0799(5)
H4 H 0.6156 0.1300 -0.1305
C6 C 0.5634(2) -0.0219(2) -0.1786(5)
C7 C 0.6091(2) 0.2844(2) 0.1739(5)
C8 C 0.5146(2) 0.2912(2) 0.1635(4)
H5 H 0.4955 0.3417 0.1028
H6 H 0.4879 0.2456 0.0952
Cu1G Cu 0.2500 0.2500 -0.5000
Cu1G_2 Cu 0.2500 0.2500 0.5000
O2B O 0.36680(14) 0.26587(14) 0.4685(3)
O2E O 0.86680(14) 0.23413(14) -0.0315(3)
O3B O 0.34238(17) 0.29792(19) 0.1894(4)
N1B N 0.26850(18) 0.12641(19) -0.4998(4)
N1E N 0.76850(18) 0.37359(19) 0.0002(4)
N2B N 0.4581(2) -0.0970(2) -0.2974(6)
C1B C 0.2083(3) 0.0746(3) -0.5731(5)
H1B H 0.1572 0.0963 -0.6292
C2B C 0.2185(3) -0.0098(3) -0.5691(6)
H2B H 0.1751 -0.0442 -0.6213
C3B C 0.2935(3) -0.0421(2) -0.4871(5)
H3B H 0.3021 -0.0987 -0.4829
C4B C 0.3568(2) 0.0111(2) -0.4103(5)
C5B C 0.3419(2) 0.0944(2) -0.4201(5)
H4B H 0.3844 0.1300 -0.3695
C6B C 0.4366(2) -0.0219(2) -0.3214(5)
C7B C 0.3909(2) 0.2844(2) 0.3261(5)
C8B C 0.4854(2) 0.2912(2) 0.3365(4)
H5B H 0.5045 0.3417 0.3972
H6B H 0.5121 0.2456 0.4048
O4 O 0.82154(19) 0.24943(19) 0.3269(4)
H7 H 0.7677 0.2567 0.3333
H8 H 0.8422 0.2382 0.4372
O5 O 0.5000 0.3243(3) 0.7500
O6 O 0.5000 0.4838(13) 0.7500
O7? O 0.4829(10) 0.4885(9) 0.876(2)
loop_
_geom_bond_atom_site_label_1
_geom_bond_atom_site_label_2
_geom_bond_site_symmetry_1
_geom_bond_site_symmetry_2
Cu1 O2 1_555 1_555
O1 C6 1_555 1_555
O2 C7 1_555 1_555
O3 C7 1_555 1_555
N1 Cu1 1_555 1_555
N2 C6 1_555 1_555
C1 N1 1_555 1_555
H1 C1 1_555 1_555
C2 C1 1_555 1_555
H2 C2 1_555 1_555
C3 C2 1_555 1_555
H3 C3 1_555 1_555
C4 C3 1_555 1_555
C5 N1 1_555 1_555
H4 C5 1_555 1_555
C6 C4 1_555 1_555
C7 C8 1_555 1_555
C8 H5 1_555 1_555
H6 C8 1_555 1_555
O4 H7 1_555 1_555
H8 O4 1_555 1_555
Cu1G N1B 1_555 1_555
Cu1G_2 O2B 1_555 1_555
O2B C7B 1_555 1_555
O2E Cu1 1_555 1_555
O3B C7B 1_555 1_555
N1B C1B 1_555 1_555
N1E Cu1 1_555 1_555
N2B N2 1_555 1_555
C1B H1B 1_555 1_555
C2B C1B 1_555 1_555
H2B C2B 1_555 1_555
C3B C2B 1_555 1_555
H3B C3B 1_555 1_555
C4B C3B 1_555 1_555
C5B N1B 1_555 1_555
H4B C5B 1_555 1_555
C6B O1 1_555 1_555
C7B C8B 1_555 1_555
C8B C8 1_555 1_555
H5B C8B 1_555 1_555
H6B C8B 1_555 1_555
C4 C5 1_555 1_555
N2B C6B 1_555 1_555
C4B C5B 1_555 1_555
C4B C6B 1_555 1_555

#END
