
#######################################################################
#
#                 Cambridge Crystallographic Data Centre
#                                CCDC 
#
#######################################################################
#
# If this CIF has been generated from an entry in the Cambridge 
# Structural Database, then it will include bibliographic, chemical, 
# crystal, experimental, refinement or atomic coordinate data resulting 
# from the CCDC's data processing and validation procedures.
#
#######################################################################

data_REFKIX
_symmetry_cell_setting           monoclinic
_symmetry_space_group_name_H-M   'P 21/c'
_symmetry_Int_Tables_number      14
_space_group_name_Hall           '-P 2ybc'
loop_
_symmetry_equiv_pos_site_id
_symmetry_equiv_pos_as_xyz
1 x,y,z
2 -x,1/2+y,1/2-z
3 -x,-y,-z
4 x,1/2-y,1/2+z
_cell_length_a                   12.576(4)
_cell_length_b                   32.497(11)
_cell_length_c                   9.226(3)
_cell_angle_alpha                90
_cell_angle_beta                 107.843(6)
_cell_angle_gamma                90
_cell_volume                     3589.14
loop_
_atom_site_label
_atom_site_type_symbol
_atom_site_fract_x
_atom_site_fract_y
_atom_site_fract_z
Cu1 Cu -0.02544(5) 0.628526(16) 0.51075(6)
N1 N 0.0540(3) 0.62008(10) 0.7377(4)
N2 N 0.1681(4) 0.51867(13) 1.1389(5)
N3 N 0.1692(4) 0.47568(12) 1.1344(5)
N4 N 0.0731(3) 0.37879(10) 0.7192(4)
O1 O 0.1080(2) 0.49905(9) 0.9014(3)
O3 O -0.1091(3) 0.57872(9) 0.5137(3)
O4 O -0.2601(3) 0.60150(10) 0.5662(4)
O5 O -0.1496(3) 0.42936(10) 0.5062(5)
H1 H -0.1693 0.4063 0.5232
O6 O -0.3165(3) 0.44729(9) 0.5214(4)
O7 O 0.0656(3) 0.67702(9) 0.5009(4)
O8 O 0.2020(4) 0.64403(11) 0.4434(6)
O9 O 0.3061(3) 0.78964(11) 0.3954(6)
H2 H 0.3440 0.8091 0.3832
O10 O 0.4533(4) 0.75385(12) 0.3852(7)
C1 C 0.0708(4) 0.58162(14) 0.7933(5)
H3 H 0.0507 0.5597 0.7253
C2 C 0.1167(4) 0.57295(13) 0.9467(5)
C3 C 0.1469(4) 0.60595(15) 1.0473(5)
H4 H 0.1780 0.6014 1.1512
C4 C 0.1303(4) 0.64535(15) 0.9912(6)
H5 H 0.1500 0.6678 1.0566
C5 C 0.0843(4) 0.65128(14) 0.8372(6)
H6 H 0.0736 0.6781 0.8003
C6 C 0.1332(4) 0.53095(14) 1.0016(5)
C7 C 0.1345(4) 0.46559(14) 0.9938(5)
C8 C 0.0812(4) 0.41670(13) 0.7788(5)
H7 H 0.0576 0.4390 0.7135
C9 C 0.1230(4) 0.42400(13) 0.9323(5)
C10 C 0.1577(4) 0.39091(15) 1.0322(5)
H8 H 0.1863 0.3950 1.1367
C11 C 0.1481(4) 0.35200(15) 0.9702(6)
H9 H 0.1696 0.3291 1.0327
C12 C 0.1063(4) 0.34742(14) 0.8145(6)
H10 H 0.1010 0.3210 0.7742
C25 C -0.2023(4) 0.57408(13) 0.5367(5)
C26 C -0.2430(4) 0.53082(13) 0.5282(5)
H19 H -0.3126 0.5262 0.5410
C27 C -0.1874(4) 0.49880(13) 0.5040(5)
H20 H -0.1209 0.5030 0.4819
C28 C -0.2268(4) 0.45623(13) 0.5105(5)
C29 C 0.1551(5) 0.67560(14) 0.4660(6)
C30 C 0.2060(4) 0.71583(14) 0.4451(6)
H21 H 0.1664 0.7399 0.4458
C31 C 0.3039(5) 0.71812(15) 0.4260(8)
H22 H 0.3414 0.6934 0.4279
C32 C 0.3621(5) 0.75565(15) 0.4018(8)
O11 O -0.1607(3) 0.67116(10) 0.5211(4)
H23 H -0.2017 0.6525 0.5404
H24 H -0.1624 0.6927 0.5725
Cu1B Cu 0.02544(5) 0.371474(16) 0.48925(6)
N4B N -0.0731(3) 0.62121(10) 0.2808(4)
N5 N 0.4139(4) 0.85223(12) 0.3267(5)
N6 N 0.3437(4) 0.97754(13) 0.3897(5)
N7 N 0.3441(3) 1.02071(13) 0.3865(5)
N8 N 0.4169(4) 1.14459(13) 0.2945(5)
O2 O 0.4663(3) 0.99756(9) 0.2784(4)
C13 C 0.3910(4) 0.89128(16) 0.3432(6)
H11 H 0.3334 0.8974 0.3833
C14 C 0.4482(4) 0.92339(14) 0.3039(5)
C15 C 0.5317(4) 0.91408(16) 0.2413(6)
H12 H 0.5708 0.9349 0.2108
C16 C 0.5562(4) 0.87363(16) 0.2246(6)
H13 H 0.6130 0.8667 0.1839
C17 C 0.4969(5) 0.84373(16) 0.2681(6)
H14 H 0.5144 0.8164 0.2568
C18 C 0.4163(4) 0.96560(14) 0.3263(5)
C19 C 0.4171(4) 1.03121(14) 0.3199(5)
C20 C 0.3942(4) 1.10613(16) 0.3208(6)
H15 H 0.3379 1.1016 0.3648
C21 C 0.4491(4) 1.07195(14) 0.2869(5)
C22 C 0.5326(4) 1.07870(15) 0.2211(6)
H16 H 0.5721 1.0568 0.1977
C23 C 0.5559(5) 1.11852(16) 0.1909(7)
H17 H 0.6110 1.1240 0.1456
C24 C 0.4970(5) 1.14994(16) 0.2286(7)
H18 H 0.5136 1.1767 0.2070
O12 O 0.6640(4) 0.78054(16) 0.6139(8)
H25 H 0.6404 0.8037 0.6338
H26 H 0.6121 0.7671 0.5510
O13 O 0.8541(4) 0.73675(14) 0.7225(6)
H27 H 0.7843 0.7399 0.7065
H28 H 0.8895 0.7394 0.8166
O14 O 0.9815(4) 0.75748(13) 0.5298(5)
H29 H 0.9963 0.7335 0.5043
H30 H 0.9270 0.7567 0.5661
loop_
_geom_bond_atom_site_label_1
_geom_bond_atom_site_label_2
_geom_bond_site_symmetry_1
_geom_bond_site_symmetry_2
Cu1 N1 1_555 1_555
N1 C1 1_555 1_555
N2 N3 1_555 1_555
N3 C7 1_555 1_555
N4 C8 1_555 1_555
N5 C13 1_555 1_555
N6 N7 1_555 1_555
N7 C19 1_555 1_555
N8 C20 1_555 1_555
O1 C6 1_555 1_555
O2 C18 1_555 1_555
O3 Cu1 1_555 1_555
O4 C25 1_555 1_555
O5 H1 1_555 1_555
O6 C28 1_555 1_555
O7 Cu1 1_555 1_555
O8 C29 1_555 1_555
O9 H2 1_555 1_555
O10 C32 1_555 1_555
C1 H3 1_555 1_555
C2 C1 1_555 1_555
C3 C2 1_555 1_555
H4 C3 1_555 1_555
C4 C3 1_555 1_555
H5 C4 1_555 1_555
C5 N1 1_555 1_555
H6 C5 1_555 1_555
C6 N2 1_555 1_555
C7 O1 1_555 1_555
C8 H7 1_555 1_555
C9 C7 1_555 1_555
C10 C9 1_555 1_555
H8 C10 1_555 1_555
C11 C10 1_555 1_555
H9 C11 1_555 1_555
C12 N4 1_555 1_555
H10 C12 1_555 1_555
C13 H11 1_555 1_555
C14 C13 1_555 1_555
C15 C14 1_555 1_555
H12 C15 1_555 1_555
C16 C15 1_555 1_555
H13 C16 1_555 1_555
C17 N5 1_555 1_555
H14 C17 1_555 1_555
C18 N6 1_555 1_555
C19 O2 1_555 1_555
C20 H15 1_555 1_555
C21 C19 1_555 1_555
C22 C21 1_555 1_555
H16 C22 1_555 1_555
C23 C22 1_555 1_555
H17 C23 1_555 1_555
C24 N8 1_555 1_555
H18 C24 1_555 1_555
C25 O3 1_555 1_555
C26 C25 1_555 1_555
H19 C26 1_555 1_555
C27 C26 1_555 1_555
H20 C27 1_555 1_555
C28 O5 1_555 1_555
C29 O7 1_555 1_555
C30 C29 1_555 1_555
H21 C30 1_555 1_555
C31 C30 1_555 1_555
H22 C31 1_555 1_555
C32 O9 1_555 1_555
O11 Cu1 1_555 1_555
H23 O11 1_555 1_555
H24 O11 1_555 1_555
O12 H25 1_555 1_555
H26 O12 1_555 1_555
O13 H27 1_555 1_555
H28 O13 1_555 1_555
O14 H29 1_555 1_555
H30 O14 1_555 1_555
Cu1B N4 1_555 1_555
N4B Cu1 1_555 1_555
C2 C6 1_555 1_555
C4 C5 1_555 1_555
C8 C9 1_555 1_555
C11 C12 1_555 1_555
C14 C18 1_555 1_555
C16 C17 1_555 1_555
C20 C21 1_555 1_555
C23 C24 1_555 1_555
C27 C28 1_555 1_555
C31 C32 1_555 1_555

#END
