
#######################################################################
#
#                 Cambridge Crystallographic Data Centre
#                                CCDC 
#
#######################################################################
#
# If this CIF has been generated from an entry in the Cambridge 
# Structural Database, then it will include bibliographic, chemical, 
# crystal, experimental, refinement or atomic coordinate data resulting 
# from the CCDC's data processing and validation procedures.
#
#######################################################################

data_REFKOD
_symmetry_cell_setting           orthorhombic
_symmetry_space_group_name_H-M   'P n m a'
_symmetry_Int_Tables_number      62
_space_group_name_Hall           '-P 2ac 2n'
loop_
_symmetry_equiv_pos_site_id
_symmetry_equiv_pos_as_xyz
1 x,y,z
2 1/2-x,-y,1/2+z
3 -x,1/2+y,-z
4 1/2+x,1/2-y,1/2-z
5 -x,-y,-z
6 1/2+x,y,1/2-z
7 x,1/2-y,z
8 1/2-x,1/2+y,1/2+z
_cell_length_a                   8.9342(9)
_cell_length_b                   27.512(3)
_cell_length_c                   11.7133(12)
_cell_angle_alpha                90
_cell_angle_beta                 90
_cell_angle_gamma                90
_cell_volume                     2879.1
loop_
_atom_site_label
_atom_site_type_symbol
_atom_site_fract_x
_atom_site_fract_y
_atom_site_fract_z
Ni1 Ni 0.0000 0.5000 0.5000
O1 O 0.0508(5) 0.7500 0.3598(3)
O2 O 0.2258(4) 0.49487(10) 0.5079(2)
O3 O 0.2775(3) 0.51761(13) 0.6849(2)
O4 O 0.0118(3) 0.46371(10) 0.3456(2)
H1 H 0.0832 0.4715 0.3013
H2 H -0.0760 0.4670 0.3187
N1 N 0.0251(3) 0.56881(11) 0.4234(3)
C1 C 0.0804(5) 0.66238(14) 0.3451(4)
C2 C 0.3146(4) 0.50494(13) 0.5869(3)
C3 C 0.1634(6) 0.62381(15) 0.3072(4)
H3 H 0.2399 0.6287 0.2546
C4 C 0.1332(5) 0.57782(15) 0.3473(3)
H4 H 0.1902 0.5520 0.3204
C5 C -0.0577(5) 0.60654(14) 0.4583(4)
H5 H -0.1354 0.6006 0.5093
C6 C -0.0346(5) 0.65330(15) 0.4232(4)
H6 H -0.0940 0.6785 0.4506
C7 C 0.1169(6) 0.71171(15) 0.3081(4)
C8 C 0.4802(5) 0.50017(18) 0.5615(5)
H7 H 0.5324 0.5269 0.5979
H8 H 0.5163 0.4703 0.5958
N2 N 0.2152(7) 0.72461(16) 0.2349(5)
Ni1F Ni 0.0000 1.0000 0.5000
Ni1_2 Ni 1.0000 0.5000 0.5000
O2D O 0.7742(4) 0.50513(10) 0.4921(2)
O2D_2 O -0.2258(4) 0.50513(10) 0.4921(2)
O3D O 0.7225(3) 0.48239(13) 0.3151(2)
O4D O -0.0118(3) 0.53629(10) 0.6544(2)
H1D H -0.0832 0.5285 0.6987
H2D H 0.0760 0.5330 0.6813
N1F N 0.0251(3) 0.93119(11) 0.4234(3)
N1D N -0.0251(3) 0.43119(11) 0.5766(3)
C1F C 0.0804(5) 0.83762(14) 0.3451(4)
C2D C 0.6854(4) 0.49506(13) 0.4131(3)
C3F C 0.1634(6) 0.87619(15) 0.3072(4)
H3F H 0.2399 0.8713 0.2546
C4F C 0.1332(5) 0.92218(15) 0.3473(3)
H4F H 0.1902 0.9480 0.3204
C5F C -0.0577(5) 0.89346(14) 0.4583(4)
H5F H -0.1354 0.8994 0.5093
C6F C -0.0346(5) 0.84670(15) 0.4232(4)
H6F H -0.0940 0.8215 0.4506
C7F C 0.1169(6) 0.78829(15) 0.3081(4)
C8D C 0.5198(5) 0.49983(18) 0.4385(5)
H7D H 0.4676 0.4731 0.4021
H8D H 0.4837 0.5297 0.4042
N2F N 0.2152(7) 0.77539(16) 0.2349(5)
O5 O 0.955(2) 0.6888(7) 0.7260(11)
O6 O 0.800(3) 0.6382(9) 0.902(3)
O8 O 0.794(2) 0.7101(7) 0.9174(15)
O9 O 1.037(2) 0.6464(10) 1.007(2)
O7? O 0.896(7) 0.6463(18) 0.885(5)
O10? O 0.963(4) 0.6583(16) 0.996(2)
O11? O 0.970(5) 0.6422(8) 0.802(2)
O12? O 1.121(2) 0.6369(11) 0.835(2)
loop_
_geom_bond_atom_site_label_1
_geom_bond_atom_site_label_2
_geom_bond_site_symmetry_1
_geom_bond_site_symmetry_2
Ni1 O2 1_555 1_555
O1 C7 1_555 1_555
O2 C2 1_555 1_555
O3 C2 1_555 1_555
O4 Ni1 1_555 1_555
H1 O4 1_555 1_555
H2 O4 1_555 1_555
N1 Ni1 1_555 1_555
C1 C3 1_555 1_555
C2 C8 1_555 1_555
C3 H3 1_555 1_555
C4 N1 1_555 1_555
H4 C4 1_555 1_555
C5 N1 1_555 1_555
H5 C5 1_555 1_555
C6 C1 1_555 1_555
H6 C6 1_555 1_555
C7 C1 1_555 1_555
C8 H7 1_555 1_555
H8 C8 1_555 1_555
N2 C7 1_555 1_555
Ni1F N1F 1_555 1_555
Ni1_2 O2D 1_555 1_555
O2D C2D 1_555 1_555
O2D_2 Ni1 1_555 1_555
O3D C2D 1_555 1_555
O4D Ni1 1_555 1_555
H1D O4D 1_555 1_555
H2D O4D 1_555 1_555
N1F C4F 1_555 1_555
N1D Ni1 1_555 1_555
C1F C3F 1_555 1_555
C2D C8D 1_555 1_555
C3F H3F 1_555 1_555
C4F C3F 1_555 1_555
H4F C4F 1_555 1_555
C5F N1F 1_555 1_555
H5F C5F 1_555 1_555
C6F C1F 1_555 1_555
H6F C6F 1_555 1_555
C7F O1 1_555 1_555
C8D C8 1_555 1_555
H7D C8D 1_555 1_555
H8D C8D 1_555 1_555
N2F N2 1_555 1_555
C3 C4 1_555 1_555
C5 C6 1_555 1_555
C1F C7F 1_555 1_555
C5F C6F 1_555 1_555
C7F N2F 1_555 1_555

#END
