
#######################################################################
#
#                 Cambridge Crystallographic Data Centre
#                                CCDC 
#
#######################################################################
#
# If this CIF has been generated from an entry in the Cambridge 
# Structural Database, then it will include bibliographic, chemical, 
# crystal, experimental, refinement or atomic coordinate data resulting 
# from the CCDC's data processing and validation procedures.
#
#######################################################################

data_REFLAQ
_symmetry_cell_setting           monoclinic
_symmetry_space_group_name_H-M   'C 2/c'
_symmetry_Int_Tables_number      15
_space_group_name_Hall           '-C 2yn'
loop_
_symmetry_equiv_pos_site_id
_symmetry_equiv_pos_as_xyz
1 x,y,z
2 1/2+x,1/2+y,z
3 -x,y,1/2-z
4 1/2-x,1/2+y,1/2-z
5 -x,-y,-z
6 1/2-x,1/2-y,-z
7 x,-y,1/2+z
8 1/2+x,1/2-y,1/2+z
_cell_length_a                   25.857(17)
_cell_length_b                   14.424(8)
_cell_length_c                   19.420(12)
_cell_angle_alpha                90.00
_cell_angle_beta                 114.698(6)
_cell_angle_gamma                90.00
_cell_volume                     6580.35
loop_
_atom_site_label
_atom_site_type_symbol
_atom_site_fract_x
_atom_site_fract_y
_atom_site_fract_z
Ag1 Ag 0.18810(2) 0.24041(3) 0.42512(3)
Ag2 Ag 0.11748(2) 0.20430(3) 0.26420(3)
Ag3 Ag 0.037234(19) 0.24800(3) 0.33588(2)
N1 N 0.2070(2) 0.3523(3) 0.5346(3)
N2 N 0.2095(2) 0.5034(3) 0.5525(3)
H1 H 0.2125 0.5616 0.5454
N3 N 0.2119(2) 0.3707(3) 0.3914(3)
N4 N 0.2324(2) 0.5196(3) 0.4087(3)
H2 H 0.2394 0.5737 0.4293
N5 N 0.1500(2) 0.1157(3) 0.4448(3)
N6 N 0.1272(2) -0.0289(3) 0.4539(3)
H3 H 0.1203 -0.0869 0.4441
N7 N 0.1464(2) 0.0644(3) 0.2907(3)
N8 N 0.1626(2) -0.0796(3) 0.3316(3)
H4 H 0.1668 -0.1276 0.3597
N9 N 0.0676(2) 0.3857(3) 0.3511(3)
N10 N 0.0907(2) 0.5279(3) 0.3333(3)
H5 H 0.0997 0.5748 0.3132
N11 N 0.0832(2) 0.3319(3) 0.2078(3)
N12 N 0.0697(2) 0.4795(3) 0.1763(3)
H6 H 0.0659 0.5383 0.1796
N13 N 0.0021(2) 0.1138(3) 0.3306(3)
N14 N -0.01786(19) -0.0342(3) 0.3131(3)
H7 H -0.0232 -0.0888 0.2934
C5 C 0.2130(2) 0.4331(4) 0.5081(3)
C6 C 0.1987(3) 0.3722(4) 0.5985(4)
H8 H 0.1926 0.3280 0.6292
C7 C 0.2004(3) 0.4647(4) 0.6107(4)
H9 H 0.1963 0.4953 0.6502
C8 C 0.2187(2) 0.4433(4) 0.4375(3)
C9 C 0.2331(3) 0.4959(4) 0.3406(4)
H10 H 0.2406 0.5352 0.3079
C10 C 0.2208(3) 0.4043(4) 0.3302(3)
H11 H 0.2187 0.3696 0.2888
C11 C 0.1415(2) 0.0324(4) 0.4125(3)
C12 C 0.1257(3) 0.0178(5) 0.5146(3)
H12 H 0.1167 -0.0068 0.5526
C13 C 0.1398(3) 0.1071(5) 0.5083(4)
H13 H 0.1422 0.1548 0.5418
C14 C 0.1496(2) 0.0063(4) 0.3458(3)
C15 C 0.1680(3) -0.0771(4) 0.2646(3)
H14 H 0.1768 -0.1267 0.2409
C16 C 0.1580(2) 0.0113(4) 0.2395(3)
H15 H 0.1588 0.0330 0.1949
C17 C 0.0799(2) 0.4421(4) 0.3047(3)
C18 C 0.0717(3) 0.4404(4) 0.4108(3)
H16 H 0.0662 0.4200 0.4526
C19 C 0.0849(3) 0.5282(4) 0.4003(3)
H17 H 0.0891 0.5786 0.4320
C20 C 0.0782(2) 0.4168(4) 0.2318(3)
C21 C 0.0762(2) 0.3435(4) 0.1331(3)
H18 H 0.0769 0.2957 0.1014
C22 C 0.0682(3) 0.4330(4) 0.1134(4)
H19 H 0.0627 0.4585 0.0669
C23 C -0.0037(2) 0.0408(4) 0.2854(3)
C24 C -0.0226(3) -0.0099(4) 0.3782(3)
H20 H -0.0328 -0.0484 0.4089
C25 C -0.0093(3) 0.0818(4) 0.3894(3)
H21 H -0.0082 0.1170 0.4302
Ag1E Ag 0.31190(2) 0.25959(3) 0.57488(3)
Ag2E Ag 0.38252(2) 0.29570(3) 0.73580(3)
Ag3E Ag 0.462766(19) 0.25200(3) 0.66412(2)
Ag3B Ag -0.037234(19) 0.24800(3) 0.16412(2)
Ag3G Ag 0.537234(19) 0.25200(3) 0.83588(2)
N1E N 0.2930(2) 0.1477(3) 0.4654(3)
N2E N 0.2905(2) -0.0034(3) 0.4475(3)
H1E H 0.2875 -0.0616 0.4546
N3E N 0.2881(2) 0.1293(3) 0.6086(3)
N4E N 0.2676(2) -0.0196(3) 0.5913(3)
H2E H 0.2606 -0.0737 0.5707
N5E N 0.3500(2) 0.3843(3) 0.5552(3)
N6E N 0.3728(2) 0.5289(3) 0.5461(3)
H3E H 0.3797 0.5869 0.5559
N7E N 0.3536(2) 0.4356(3) 0.7093(3)
N8E N 0.3374(2) 0.5796(3) 0.6684(3)
H4E H 0.3332 0.6276 0.6403
N9E N 0.4324(2) 0.1143(3) 0.6489(3)
N10E N 0.4093(2) -0.0279(3) 0.6667(3)
H5E H 0.4003 -0.0748 0.6868
N11E N 0.4168(2) 0.1681(3) 0.7922(3)
N12E N 0.4303(2) 0.0205(3) 0.8237(3)
H6E H 0.4341 -0.0383 0.8204
N13B N -0.0021(2) 0.1138(3) 0.1694(3)
N13E N 0.4979(2) 0.3862(3) 0.6694(3)
N14B N 0.01786(19) -0.0342(3) 0.1869(3)
H7B H 0.0232 -0.0888 0.2066
C5E C 0.2870(2) 0.0669(4) 0.4919(3)
C6E C 0.3013(3) 0.1278(4) 0.4015(4)
H8E H 0.3074 0.1720 0.3708
C7E C 0.2996(3) 0.0353(4) 0.3893(4)
H9E H 0.3037 0.0047 0.3498
C8E C 0.2813(2) 0.0567(4) 0.5625(3)
C9E C 0.2669(3) 0.0041(4) 0.6594(4)
H10E H 0.2594 -0.0352 0.6921
C10E C 0.2792(3) 0.0957(4) 0.6698(3)
H11E H 0.2813 0.1304 0.7112
C11E C 0.3585(2) 0.4676(4) 0.5875(3)
C12E C 0.3743(3) 0.4822(5) 0.4854(3)
H12E H 0.3833 0.5068 0.4474
C13E C 0.3602(3) 0.3929(5) 0.4917(4)
H13E H 0.3578 0.3452 0.4582
C14E C 0.3504(2) 0.4937(4) 0.6542(3)
C15E C 0.3320(3) 0.5771(4) 0.7354(3)
H14E H 0.3232 0.6267 0.7591
C16E C 0.3420(2) 0.4887(4) 0.7605(3)
H15E H 0.3412 0.4670 0.8051
C17E C 0.4201(2) 0.0579(4) 0.6953(3)
C18E C 0.4283(3) 0.0596(4) 0.5892(3)
H16E H 0.4338 0.0800 0.5474
C19E C 0.4151(3) -0.0282(4) 0.5997(3)
H17E H 0.4109 -0.0786 0.5680
C20E C 0.4218(2) 0.0832(4) 0.7682(3)
C21E C 0.4238(2) 0.1565(4) 0.8669(3)
H18E H 0.4231 0.2043 0.8986
C22E C 0.4318(3) 0.0670(4) 0.8866(4)
H19E H 0.4373 0.0415 0.9331
C23B C 0.0037(2) 0.0408(4) 0.2146(3)
C24B C 0.0226(3) -0.0099(4) 0.1218(3)
H20B H 0.0328 -0.0484 0.0911
C25B C 0.0093(3) 0.0818(4) 0.1106(3)
H21B H 0.0082 0.1170 0.0698
Cl1 Cl 0.21110(7) 0.23542(11) 0.15424(9)
O1 O 0.2164(2) 0.2192(4) 0.2294(3)
O2 O 0.26473(19) 0.2148(3) 0.1503(3)
O3 O 0.1678(2) 0.1750(3) 0.1044(3)
O4 O 0.1982(2) 0.3312(3) 0.1366(4)
Cl2 Cl 0.04032(8) 0.26440(11) 0.55604(9)
O5 O 0.0854(2) 0.2174(3) 0.6167(2)
O6 O -0.0120(2) 0.2136(3) 0.5349(3)
O7 O 0.0331(2) 0.3580(3) 0.5772(3)
O8 O 0.0532(2) 0.2679(3) 0.4907(3)
O9 O -0.0380(2) -0.2115(3) 0.2603(3)
C1 C 0.0000 -0.2554(6) 0.2500
C2 C 0.0000 -0.3420(5) 0.2500
O9B O 0.0380(2) -0.2115(3) 0.2397(3)
O11 O 0.12236(19) 0.6580(3) 0.2568(2)
O12 O 0.0994(3) -0.2105(4) 0.4186(3)
O10? O 0.2735(4) 0.6861(7) 0.5193(4)
C3? C 0.2500 0.7500 0.5000
C4? C 0.2030(8) 0.6878(10) 0.4831(7)
loop_
_geom_bond_atom_site_label_1
_geom_bond_atom_site_label_2
_geom_bond_site_symmetry_1
_geom_bond_site_symmetry_2
Ag1 Ag2 1_555 1_555
Ag2 Ag3 1_555 1_555
Ag3 N9 1_555 1_555
Cl1 O1 1_555 1_555
Cl2 O5 1_555 1_555
O2 Cl1 1_555 1_555
O3 Cl1 1_555 1_555
O4 Cl1 1_555 1_555
O6 Cl2 1_555 1_555
O7 Cl2 1_555 1_555
O8 Cl2 1_555 1_555
O9 C1 1_555 1_555
C1 C2 1_555 1_555
N1 Ag1 1_555 1_555
N2 H1 1_555 1_555
N3 Ag1 1_555 1_555
N4 H2 1_555 1_555
N5 Ag1 1_555 1_555
N6 H3 1_555 1_555
N7 Ag2 1_555 1_555
N8 H4 1_555 1_555
N9 C17 1_555 1_555
N10 H5 1_555 1_555
N11 Ag2 1_555 1_555
N12 H6 1_555 1_555
N13 Ag3 1_555 1_555
N14 H7 1_555 1_555
C5 N1 1_555 1_555
C6 N1 1_555 1_555
H8 C6 1_555 1_555
C7 N2 1_555 1_555
H9 C7 1_555 1_555
C8 N3 1_555 1_555
C9 N4 1_555 1_555
H10 C9 1_555 1_555
C10 N3 1_555 1_555
H11 C10 1_555 1_555
C11 N5 1_555 1_555
C12 N6 1_555 1_555
H12 C12 1_555 1_555
C13 N5 1_555 1_555
H13 C13 1_555 1_555
C14 N7 1_555 1_555
C15 N8 1_555 1_555
H14 C15 1_555 1_555
C16 N7 1_555 1_555
H15 C16 1_555 1_555
C17 N10 1_555 1_555
C18 N9 1_555 1_555
H16 C18 1_555 1_555
C19 N10 1_555 1_555
H17 C19 1_555 1_555
C20 N11 1_555 1_555
C21 N11 1_555 1_555
H18 C21 1_555 1_555
C22 N12 1_555 1_555
H19 C22 1_555 1_555
C23 N13 1_555 1_555
C24 N14 1_555 1_555
H20 C24 1_555 1_555
C25 N13 1_555 1_555
H21 C25 1_555 1_555
Ag1E Ag1 1_555 1_555
Ag2E Ag1E 1_555 1_555
Ag3E Ag2E 1_555 1_555
Ag3B Ag3 1_555 1_555
Ag3G Ag3E 1_555 1_555
O9B C1 1_555 1_555
N1E Ag1E 1_555 1_555
N2E H1E 1_555 1_555
N3E Ag1E 1_555 1_555
N4E H2E 1_555 1_555
N5E Ag1E 1_555 1_555
N6E H3E 1_555 1_555
N7E Ag2E 1_555 1_555
N8E H4E 1_555 1_555
N9E Ag3E 1_555 1_555
N10E H5E 1_555 1_555
N11E Ag2E 1_555 1_555
N12E H6E 1_555 1_555
N13B Ag3B 1_555 1_555
N13E Ag3E 1_555 1_555
N14B H7B 1_555 1_555
C5E N1E 1_555 1_555
C6E N1E 1_555 1_555
H8E C6E 1_555 1_555
C7E N2E 1_555 1_555
H9E C7E 1_555 1_555
C8E N3E 1_555 1_555
C9E N4E 1_555 1_555
H10E C9E 1_555 1_555
C10E N3E 1_555 1_555
H11E C10E 1_555 1_555
C11E N5E 1_555 1_555
C12E N6E 1_555 1_555
H12E C12E 1_555 1_555
C13E N5E 1_555 1_555
H13E C13E 1_555 1_555
C14E N7E 1_555 1_555
C15E N8E 1_555 1_555
H14E C15E 1_555 1_555
C16E N7E 1_555 1_555
H15E C16E 1_555 1_555
C17E N9E 1_555 1_555
C18E N9E 1_555 1_555
H16E C18E 1_555 1_555
C19E N10E 1_555 1_555
H17E C19E 1_555 1_555
C20E N11E 1_555 1_555
C21E N11E 1_555 1_555
H18E C21E 1_555 1_555
C22E N12E 1_555 1_555
H19E C22E 1_555 1_555
C23B C23 1_555 1_555
C24B N14B 1_555 1_555
H20B C24B 1_555 1_555
C25B N13B 1_555 1_555
H21B C25B 1_555 1_555
N2 C5 1_555 1_555
N4 C8 1_555 1_555
N6 C11 1_555 1_555
N8 C14 1_555 1_555
N12 C20 1_555 1_555
N14 C23 1_555 1_555
C5 C8 1_555 1_555
C6 C7 1_555 1_555
C9 C10 1_555 1_555
C11 C14 1_555 1_555
C12 C13 1_555 1_555
C15 C16 1_555 1_555
C17 C20 1_555 1_555
C18 C19 1_555 1_555
C21 C22 1_555 1_555
C24 C25 1_555 1_555
N2E C5E 1_555 1_555
N4E C8E 1_555 1_555
N6E C11E 1_555 1_555
N8E C14E 1_555 1_555
N10E C17E 1_555 1_555
N12E C20E 1_555 1_555
N13B C23B 1_555 1_555
N14B C23B 1_555 1_555
C5E C8E 1_555 1_555
C6E C7E 1_555 1_555
C9E C10E 1_555 1_555
C11E C14E 1_555 1_555
C12E C13E 1_555 1_555
C15E C16E 1_555 1_555
C17E C20E 1_555 1_555
C18E C19E 1_555 1_555
C21E C22E 1_555 1_555
C24B C25B 1_555 1_555

#END
