
#######################################################################
#
#                 Cambridge Crystallographic Data Centre
#                                CCDC 
#
#######################################################################
#
# If this CIF has been generated from an entry in the Cambridge 
# Structural Database, then it will include bibliographic, chemical, 
# crystal, experimental, refinement or atomic coordinate data resulting 
# from the CCDC's data processing and validation procedures.
#
#######################################################################

data_REFLAR
_symmetry_cell_setting           monoclinic
_symmetry_space_group_name_H-M   'C 2/c'
_symmetry_Int_Tables_number      15
_space_group_name_Hall           '-C 2yn'
loop_
_symmetry_equiv_pos_site_id
_symmetry_equiv_pos_as_xyz
1 x,y,z
2 -x,y,1/2-z
3 1/2+x,1/2+y,z
4 1/2-x,1/2+y,1/2-z
5 -x,-y,-z
6 x,-y,1/2+z
7 1/2-x,1/2-y,-z
8 1/2+x,1/2-y,1/2+z
_cell_length_a                   18.1385(18)
_cell_length_b                   11.1646(11)
_cell_length_c                   12.3137(12)
_cell_angle_alpha                90
_cell_angle_beta                 115.5320(10)
_cell_angle_gamma                90
_cell_volume                     2250.12
loop_
_atom_site_label
_atom_site_type_symbol
_atom_site_fract_x
_atom_site_fract_y
_atom_site_fract_z
C1 C 1.06519(11) 0.31990(16) 0.06910(16)
C2 C 1.10885(12) 0.42785(16) 0.06181(18)
C3 C 1.09035(13) 0.48615(19) -0.04656(19)
H1 H 1.0502 0.4563 -0.1182
C4 C 1.13261(16) 0.5890(2) -0.0460(2)
H2 H 1.1214 0.6300 -0.1172
C5 C 1.19145(17) 0.6298(2) 0.0613(2)
H3 H 1.2194 0.6993 0.0605
C6 C 1.16947(15) 0.4772(2) 0.16409(19)
H4 H 1.1823 0.4384 0.2369
C7 C 0.86448(12) -0.03650(18) 0.03464(17)
H5 H 0.8770 0.0223 -0.0083
C8 C 0.80357(12) -0.11701(18) -0.02793(16)
H6 H 0.7761 -0.1118 -0.1113
C9 C 0.78280(10) -0.20575(16) 0.03219(15)
C10 C 0.82788(14) -0.2087(2) 0.15650(17)
H7 H 0.8174 -0.2677 0.2014
C11 C 0.88761(14) -0.1253(2) 0.21310(17)
H8 H 0.9163 -0.1290 0.2964
N1 N 1.02273(10) 0.17611(14) 0.13630(14)
N2 N 0.98440(11) 0.17102(16) 0.01697(14)
N3 N 1.01072(11) 0.26138(15) -0.02716(14)
N4 N 1.07414(10) 0.26883(14) 0.17179(13)
N5 N 1.21101(15) 0.57635(18) 0.1662(2)
N6 N 0.90677(9) -0.03889(14) 0.15475(13)
Zn1 Zn 1.0000 0.07362(2) 0.2500
C1A C 0.93481(11) 0.31990(16) 0.43090(16)
C2A C 0.89115(12) 0.42785(16) 0.43819(18)
C3A C 0.90965(13) 0.48615(19) 0.54656(19)
H1A H 0.9498 0.4563 0.6182
C4A C 0.86739(16) 0.5890(2) 0.5460(2)
H2A H 0.8786 0.6300 0.6172
C5A C 0.80855(17) 0.6298(2) 0.4387(2)
H3A H 0.7806 0.6993 0.4395
C6A C 0.83053(15) 0.4772(2) 0.33591(19)
H4A H 0.8177 0.4384 0.2631
C7F C 0.63552(12) -0.46350(18) -0.03464(17)
H5F H 0.6230 -0.5223 0.0083
C8F C 0.69643(12) -0.38299(18) 0.02793(16)
H6F H 0.7239 -0.3882 0.1113
C9F C 0.71720(10) -0.29425(16) -0.03219(15)
C10F C 0.67212(14) -0.2913(2) -0.15650(17)
H7F H 0.6826 -0.2323 -0.2014
C11F C 0.61239(14) -0.3747(2) -0.21310(17)
H8F H 0.5837 -0.3710 -0.2964
N1A N 0.97727(10) 0.17611(14) 0.36370(14)
N2A N 1.01560(11) 0.17102(16) 0.48303(14)
N3A N 0.98928(11) 0.26138(15) 0.52716(14)
N4A N 0.92586(10) 0.26883(14) 0.32821(13)
N5A N 0.78899(15) 0.57635(18) 0.3338(2)
N6F N 0.59323(9) -0.46111(14) -0.15475(13)
N6A N 1.09323(9) -0.03889(14) 0.34525(13)
Zn1F Zn 0.5000 -0.57362(2) -0.2500
loop_
_geom_bond_atom_site_label_1
_geom_bond_atom_site_label_2
_geom_bond_site_symmetry_1
_geom_bond_site_symmetry_2
C1 C2 1_555 1_555
C2 C3 1_555 1_555
C3 H1 1_555 1_555
C4 C3 1_555 1_555
H2 C4 1_555 1_555
C5 C4 1_555 1_555
H3 C5 1_555 1_555
C6 C2 1_555 1_555
H4 C6 1_555 1_555
C7 H5 1_555 1_555
C8 C7 1_555 1_555
H6 C8 1_555 1_555
C9 C8 1_555 1_555
C10 C9 1_555 1_555
H7 C10 1_555 1_555
C11 C10 1_555 1_555
H8 C11 1_555 1_555
N1 N2 1_555 1_555
N2 N3 1_555 1_555
N3 C1 1_555 1_555
N4 C1 1_555 1_555
N5 C5 1_555 1_555
N6 C7 1_555 1_555
Zn1 N1 1_555 1_555
C1A C2A 1_555 1_555
C2A C3A 1_555 1_555
C3A H1A 1_555 1_555
C4A C3A 1_555 1_555
H2A C4A 1_555 1_555
C5A C4A 1_555 1_555
H3A C5A 1_555 1_555
C6A C2A 1_555 1_555
H4A C6A 1_555 1_555
C7F H5F 1_555 1_555
C8F C7F 1_555 1_555
H6F C8F 1_555 1_555
C9F C9 1_555 1_555
C10F C9F 1_555 1_555
H7F C10F 1_555 1_555
C11F C10F 1_555 1_555
H8F C11F 1_555 1_555
N1A Zn1 1_555 1_555
N2A N1A 1_555 1_555
N3A C1A 1_555 1_555
N4A C1A 1_555 1_555
N5A C5A 1_555 1_555
N6F C7F 1_555 1_555
N6A Zn1 1_555 1_555
Zn1F N6F 1_555 1_555
C6 N5 1_555 1_555
C11 N6 1_555 1_555
N1 N4 1_555 1_555
N6 Zn1 1_555 1_555
C6A N5A 1_555 1_555
C8F C9F 1_555 1_555
C11F N6F 1_555 1_555
N1A N4A 1_555 1_555
N2A N3A 1_555 1_555

#END
