
#######################################################################
#
#                 Cambridge Crystallographic Data Centre
#                                CCDC 
#
#######################################################################
#
# If this CIF has been generated from an entry in the Cambridge 
# Structural Database, then it will include bibliographic, chemical, 
# crystal, experimental, refinement or atomic coordinate data resulting 
# from the CCDC's data processing and validation procedures.
#
#######################################################################

data_REFLIY
_symmetry_cell_setting           triclinic
_symmetry_space_group_name_H-M   'P -1'
_symmetry_Int_Tables_number      2
_space_group_name_Hall           '-P 1'
loop_
_symmetry_equiv_pos_site_id
_symmetry_equiv_pos_as_xyz
1 x,y,z
2 -x,-y,-z
_cell_length_a                   7.5550(12)
_cell_length_b                   7.8391(12)
_cell_length_c                   8.4408(13)
_cell_angle_alpha                103.3800(10)
_cell_angle_beta                 110.681(2)
_cell_angle_gamma                105.975(2)
_cell_volume                     418.545
loop_
_atom_site_label
_atom_site_type_symbol
_atom_site_fract_x
_atom_site_fract_y
_atom_site_fract_z
O1 O 0.1812(6) 0.2363(5) 0.6113(5)
O2 O -0.0274(6) 0.0702(5) 0.6997(6)
N1 N 0.4239(7) 0.7240(6) 0.8095(6)
N2 N 0.6123(7) 0.9093(7) 0.7188(7)
H1 H 0.7046 0.9537 0.6852
N3 N 0.7188(6) 0.5202(6) 0.8520(6)
N4 N 0.7759(7) 0.6131(6) 0.6395(6)
H2 H 0.7769 0.6732 0.5663
C1 C 0.5816(8) 0.7548(7) 0.7670(7)
C2 C 0.4717(9) 0.9832(9) 0.7325(9)
H3 H 0.4582 1.0903 0.7092
Ag1 Ag 0.29911(6) 0.48657(6) 0.89449(5)
C3 C 0.3556(8) 0.8672(7) 0.7876(7)
H4 H 0.2464 0.8822 0.8074
C4 C 0.6930(8) 0.6315(7) 0.7596(7)
C5 C 0.8197(8) 0.4197(7) 0.7865(7)
H5 H 0.8552 0.3264 0.8246
C6 C 0.8579(8) 0.4776(8) 0.6603(7)
H6 H 0.9267 0.4348 0.5982
C7 C 0.0421(8) 0.0873(7) 0.5880(7)
O1A O -0.1812(6) -0.2363(5) 0.3887(5)
O2A O 0.0274(6) -0.0702(5) 0.3003(6)
N1A N 0.5761(7) 0.2760(6) 1.1905(6)
N1A_2 N -0.4239(7) -0.7240(6) 0.1905(6)
N2A N 0.3877(7) 0.0907(7) 1.2812(7)
H1A H 0.2954 0.0463 1.3148
N3A N 0.2812(6) 0.4798(6) 1.1480(6)
N3_2 N -0.2812(6) -0.4798(6) -0.1480(6)
N4A N 0.2241(7) 0.3869(6) 1.3605(6)
H2A H 0.2231 0.3268 1.4337
C1A C 0.4184(8) 0.2452(7) 1.2330(7)
C2A C 0.5283(9) 0.0168(9) 1.2675(9)
H3A H 0.5418 -0.0903 1.2908
Ag1A Ag -0.29911(6) -0.48657(6) 0.10551(5)
Ag1A_2 Ag 0.70089(6) 0.51343(6) 1.10551(5)
Ag1_2 Ag -0.70089(6) -0.51343(6) -0.10551(5)
C3A C 0.6444(8) 0.1328(7) 1.2124(7)
H4A H 0.7536 0.1178 1.1926
C4A C 0.3070(8) 0.3685(7) 1.2404(7)
C5A C 0.1803(8) 0.5803(7) 1.2135(7)
H5A H 0.1448 0.6736 1.1754
C6A C 0.1421(8) 0.5224(8) 1.3397(7)
H6A H 0.0733 0.5652 1.4018
C7A C -0.0421(8) -0.0873(7) 0.4120(7)
loop_
_geom_bond_atom_site_label_1
_geom_bond_atom_site_label_2
_geom_bond_site_symmetry_1
_geom_bond_site_symmetry_2
O1 Ag1 1_555 1_555
O2 C7 1_555 1_555
N1 C1 1_555 1_555
N2 H1 1_555 1_555
N3 C4 1_555 1_555
N4 H2 1_555 1_555
C1 N2 1_555 1_555
C2 N2 1_555 1_555
H3 C2 1_555 1_555
Ag1 N1 1_555 1_555
C3 N1 1_555 1_555
H4 C3 1_555 1_555
C4 N4 1_555 1_555
C5 N3 1_555 1_555
H5 C5 1_555 1_555
C6 N4 1_555 1_555
H6 C6 1_555 1_555
C7 O1 1_555 1_555
O1A Ag1A 1_555 1_555
O2A C7A 1_555 1_555
N1A C1A 1_555 1_555
N1A_2 Ag1A 1_555 1_555
N2A H1A 1_555 1_555
N3A Ag1 1_555 1_555
N3_2 Ag1A 1_555 1_555
N4A H2A 1_555 1_555
C1A N2A 1_555 1_555
C2A N2A 1_555 1_555
H3A C2A 1_555 1_555
Ag1A Ag1_2 1_555 1_555
Ag1A_2 N3 1_555 1_555
C3A N1A 1_555 1_555
H4A C3A 1_555 1_555
C4A N3A 1_555 1_555
C5A N3A 1_555 1_555
H5A C5A 1_555 1_555
C6A N4A 1_555 1_555
H6A C6A 1_555 1_555
C7A C7 1_555 1_555
C1 C4 1_555 1_555
C2 C3 1_555 1_555
Ag1 Ag1A_2 1_555 1_555
C5 C6 1_555 1_555
O1A C7A 1_555 1_555
N1A Ag1A_2 1_555 1_555
N4A C4A 1_555 1_555
C1A C4A 1_555 1_555
C2A C3A 1_555 1_555
C5A C6A 1_555 1_555

#END
