
#######################################################################
#
#                 Cambridge Crystallographic Data Centre
#                                CCDC 
#
#######################################################################
#
# If this CIF has been generated from an entry in the Cambridge 
# Structural Database, then it will include bibliographic, chemical, 
# crystal, experimental, refinement or atomic coordinate data resulting 
# from the CCDC's data processing and validation procedures.
#
#######################################################################

data_REFLUL
_symmetry_cell_setting           monoclinic
_symmetry_space_group_name_H-M   'C 2/c'
_symmetry_Int_Tables_number      15
_space_group_name_Hall           '-C 2yn'
loop_
_symmetry_equiv_pos_site_id
_symmetry_equiv_pos_as_xyz
1 x,y,z
2 -x,y,1/2-z
3 1/2+x,1/2+y,z
4 1/2-x,1/2+y,1/2-z
5 -x,-y,-z
6 x,-y,1/2+z
7 1/2-x,1/2-y,-z
8 1/2+x,1/2-y,1/2+z
_cell_length_a                   26.170(3)
_cell_length_b                   10.1543(9)
_cell_length_c                   18.699(2)
_cell_angle_alpha                90
_cell_angle_beta                 132.932(3)
_cell_angle_gamma                90
_cell_volume                     3638.14
loop_
_atom_site_label
_atom_site_type_symbol
_atom_site_fract_x
_atom_site_fract_y
_atom_site_fract_z
C1 C 0.24915(16) 0.7598(3) 0.2527(2)
N1 N 0.20326(12) 0.6649(2) 0.22525(17)
C2 C 0.14008(15) 0.7073(3) 0.1369(2)
C3 C 0.32309(15) 0.7540(3) 0.3466(2)
H1 H 0.3508 0.8076 0.3407
H2 H 0.3393 0.6638 0.3574
C4 C 0.07404(18) 0.6498(3) 0.0757(2)
H3 H 0.0667 0.5684 0.0902
N2 N 0.22156(12) 0.8611(2) 0.18868(16)
C5 C 0.15113(15) 0.8291(3) 0.1144(2)
C6 C 0.09588(17) 0.8975(3) 0.0307(2)
H4 H 0.1028 0.9789 0.0155
C7 C 0.03079(19) 0.8406(4) -0.0289(3)
H5 H -0.0070 0.8848 -0.0849
C8 C 0.02016(19) 0.7183(4) -0.0071(3)
H6 H -0.0244 0.6820 -0.0494
H7 H 0.3650(15) 0.787(3) 0.602(2)
Co1 Co 0.22601(2) 0.51035(3) 0.30827(3)
O1 O 0.14611(11) 0.41207(19) 0.27051(15)
N3 N 0.28537(13) 0.5926(2) 0.44314(17)
C9 C 0.32194(15) 0.7040(3) 0.4808(2)
O2 O 0.11313(12) 0.5960(2) 0.29301(17)
C10 C 0.10675(16) 0.4764(3) 0.2765(2)
N4 N 0.34843(15) 0.7237(3) 0.5720(2)
C11 C 0.28814(16) 0.5397(3) 0.5153(2)
C12 C 0.2707(2) 0.4000(3) 0.5984(3)
H8 H 0.2511 0.3254 0.6005
C13 C 0.05182(16) 0.3999(3) 0.2629(2)
C14 C 0.32821(17) 0.6217(3) 0.5964(2)
C15 C 0.33684(17) 0.8003(3) 0.4365(2)
H9 H 0.3855 0.8260 0.4863
H10 H 0.3090 0.8785 0.4185
C16 C 0.0000 0.4672(4) 0.2500
H11 H 0.0000 0.5588 0.2500
C17 C 0.25785(18) 0.4262(3) 0.5150(2)
H12 H 0.2303 0.3708 0.4610
C18 C 0.05174(18) 0.2630(3) 0.2633(3)
H13 H 0.0865 0.2169 0.2725
C19 C 0.0000 0.1955(5) 0.2500
H14 H 0.0000 0.1040 0.2500
C20 C 0.34182(19) 0.5957(3) 0.6812(2)
H15 H 0.3691 0.6511 0.7352
C21 C 0.3122(2) 0.4825(3) 0.6796(3)
H16 H 0.3202 0.4603 0.7348
C1A C -0.24915(16) 0.7598(3) 0.2473(2)
N1A N -0.20326(12) 0.6649(2) 0.27475(17)
C2A C -0.14008(15) 0.7073(3) 0.3631(2)
C3A C -0.32309(15) 0.7540(3) 0.1534(2)
H1A H -0.3508 0.8076 0.1593
H2A H -0.3393 0.6638 0.1426
C4A C -0.07404(18) 0.6498(3) 0.4243(2)
H3A H -0.0667 0.5684 0.4098
N2C N 0.27844(12) 0.3611(2) 0.31132(16)
N2B N -0.27844(12) 0.3611(2) 0.18868(16)
N2A N -0.22156(12) 0.8611(2) 0.31132(16)
C5A C -0.15113(15) 0.8291(3) 0.3856(2)
C6A C -0.09588(17) 0.8975(3) 0.4693(2)
H4A H -0.1028 0.9789 0.4845
C7A C -0.03079(19) 0.8406(4) 0.5289(3)
H5A H 0.0070 0.8848 0.5849
C8A C -0.02016(19) 0.7183(4) 0.5071(3)
H6A H 0.0244 0.6820 0.5494
H7A H -0.3650(15) 0.787(3) -0.102(2)
Co1C Co 0.27399(2) 1.01035(3) 0.19173(3)
Co1A Co -0.22601(2) 0.51035(3) 0.19173(3)
Co1B Co -0.27399(2) 1.01035(3) 0.30827(3)
O1A O -0.14611(11) 0.41207(19) 0.22949(15)
N3A N -0.28537(13) 0.5926(2) 0.05686(17)
C9A C -0.32194(15) 0.7040(3) 0.0192(2)
O2A O -0.11313(12) 0.5960(2) 0.20699(17)
C10A C -0.10675(16) 0.4764(3) 0.2235(2)
N4A N -0.34843(15) 0.7237(3) -0.0720(2)
C11A C -0.28814(16) 0.5397(3) -0.0153(2)
C12A C -0.2707(2) 0.4000(3) -0.0984(3)
H8A H -0.2511 0.3254 -0.1005
C13A C -0.05182(16) 0.3999(3) 0.2371(2)
C14A C -0.32821(17) 0.6217(3) -0.0964(2)
C15A C -0.33684(17) 0.8003(3) 0.0635(2)
H9A H -0.3855 0.8260 0.0137
H10A H -0.3090 0.8785 0.0815
C17A C -0.25785(18) 0.4262(3) -0.0150(2)
H12A H -0.2303 0.3708 0.0390
C18A C -0.05174(18) 0.2630(3) 0.2367(3)
H13A H -0.0865 0.2169 0.2275
C20A C -0.34182(19) 0.5957(3) -0.1812(2)
H15A H -0.3691 0.6511 -0.2352
C21A C -0.3122(2) 0.4825(3) -0.1796(3)
H16A H -0.3202 0.4603 -0.2348
loop_
_geom_bond_atom_site_label_1
_geom_bond_atom_site_label_2
_geom_bond_site_symmetry_1
_geom_bond_site_symmetry_2
C1 N1 1_555 1_555
N1 C2 1_555 1_555
C2 C4 1_555 1_555
C3 C1 1_555 1_555
H1 C3 1_555 1_555
H2 C3 1_555 1_555
C4 H3 1_555 1_555
N2 C1 1_555 1_555
C5 C2 1_555 1_555
C6 C5 1_555 1_555
H4 C6 1_555 1_555
C7 C6 1_555 1_555
H5 C7 1_555 1_555
C8 C4 1_555 1_555
H6 C8 1_555 1_555
H7 N4 1_555 1_555
Co1 N1 1_555 1_555
O1 Co1 1_555 1_555
N3 Co1 1_555 1_555
C9 N3 1_555 1_555
O2 C10 1_555 1_555
C10 O1 1_555 1_555
N4 C9 1_555 1_555
C11 N3 1_555 1_555
C12 H8 1_555 1_555
C13 C10 1_555 1_555
C14 N4 1_555 1_555
C15 C3 1_555 1_555
H9 C15 1_555 1_555
H10 C15 1_555 1_555
C16 C13 1_555 1_555
H11 C16 1_555 1_555
C17 C11 1_555 1_555
H12 C17 1_555 1_555
C18 C13 1_555 1_555
H13 C18 1_555 1_555
C19 C18 1_555 1_555
H14 C19 1_555 1_555
C20 C14 1_555 1_555
H15 C20 1_555 1_555
C21 C12 1_555 1_555
H16 C21 1_555 1_555
C1A N1A 1_555 1_555
N1A C2A 1_555 1_555
C2A C4A 1_555 1_555
C3A C1A 1_555 1_555
H1A C3A 1_555 1_555
H2A C3A 1_555 1_555
C4A H3A 1_555 1_555
N2C Co1 1_555 1_555
N2B Co1A 1_555 1_555
N2A C1A 1_555 1_555
C5A C2A 1_555 1_555
C6A C5A 1_555 1_555
H4A C6A 1_555 1_555
C7A C6A 1_555 1_555
H5A C7A 1_555 1_555
C8A C4A 1_555 1_555
H6A C8A 1_555 1_555
H7A N4A 1_555 1_555
Co1C N2 1_555 1_555
Co1A N1A 1_555 1_555
Co1B N2A 1_555 1_555
O1A Co1A 1_555 1_555
N3A Co1A 1_555 1_555
C9A N3A 1_555 1_555
O2A C10A 1_555 1_555
C10A O1A 1_555 1_555
N4A C9A 1_555 1_555
C11A N3A 1_555 1_555
C12A H8A 1_555 1_555
C13A C16 1_555 1_555
C14A N4A 1_555 1_555
C15A C3A 1_555 1_555
H9A C15A 1_555 1_555
H10A C15A 1_555 1_555
C17A C11A 1_555 1_555
H12A C17A 1_555 1_555
C18A C19 1_555 1_555
H13A C18A 1_555 1_555
C20A C14A 1_555 1_555
H15A C20A 1_555 1_555
C21A C12A 1_555 1_555
H16A C21A 1_555 1_555
N2 C5 1_555 1_555
C7 C8 1_555 1_555
C9 C15 1_555 1_555
C11 C14 1_555 1_555
C12 C17 1_555 1_555
C20 C21 1_555 1_555
N2A C5A 1_555 1_555
C7A C8A 1_555 1_555
C9A C15A 1_555 1_555
C10A C13A 1_555 1_555
C11A C14A 1_555 1_555
C12A C17A 1_555 1_555
C13A C18A 1_555 1_555
C20A C21A 1_555 1_555

#END
