
#######################################################################
#
#                 Cambridge Crystallographic Data Centre
#                                CCDC 
#
#######################################################################
#
# If this CIF has been generated from an entry in the Cambridge 
# Structural Database, then it will include bibliographic, chemical, 
# crystal, experimental, refinement or atomic coordinate data resulting 
# from the CCDC's data processing and validation procedures.
#
#######################################################################

data_REFLOF
_symmetry_cell_setting           monoclinic
_symmetry_space_group_name_H-M   'P 2/c'
_symmetry_Int_Tables_number      13
_space_group_name_Hall           '-P 2yc'
loop_
_symmetry_equiv_pos_site_id
_symmetry_equiv_pos_as_xyz
1 x,y,z
2 -x,y,1/2-z
3 -x,-y,-z
4 x,-y,1/2+z
_cell_length_a                   12.226(2)
_cell_length_b                   11.114(2)
_cell_length_c                   16.674(3)
_cell_angle_alpha                90
_cell_angle_beta                 91.00(3)
_cell_angle_gamma                90
_cell_volume                     2265.31
loop_
_atom_site_label
_atom_site_type_symbol
_atom_site_fract_x
_atom_site_fract_y
_atom_site_fract_z
Cu1 Cu 0.37212(3) -0.05682(3) 0.28626(2)
Cu2 Cu 0.0000 -0.00721(5) 0.2500
O1 O 0.30861(17) -0.05793(19) 0.39519(13)
C1 C 0.2063(3) -0.0413(3) 0.3824(2)
H1 H 0.1588 -0.0412 0.4269
O2 O 0.16670(18) -0.0253(2) 0.31459(14)
O3 O -0.0795(2) -0.0067(2) 0.35488(15)
H2 H -0.068(4) 0.043(4) 0.383(3)
H3 H -0.141(4) -0.024(4) 0.353(2)
O4 O 0.55999(17) -0.05717(19) 0.32154(12)
C2 C 0.6144(3) -0.0716(3) 0.38628(18)
H4 H 0.5745 -0.0742 0.4346
O5 O 0.71458(18) -0.0825(2) 0.39182(14)
N1 N 0.3684(2) 0.1237(2) 0.28645(15)
C3 C 0.3929(3) 0.1857(3) 0.35417(19)
H5 H 0.4136 0.1421 0.4010
C4 C 0.3892(3) 0.3094(3) 0.35810(19)
H6 H 0.4065 0.3493 0.4071
C5 C 0.3600(2) 0.3758(3) 0.29049(18)
C6 C 0.3342(3) 0.3116(3) 0.22100(19)
H7 H 0.3131 0.3533 0.1735
C7 C 0.3391(3) 0.1879(3) 0.22104(18)
H8 H 0.3211 0.1461 0.1729
N2 N 0.3625(2) 0.7615(2) 0.28713(16)
C8 C 0.4246(3) 0.6989(3) 0.33938(19)
H9 H 0.4703 0.7423 0.3758
C9 C 0.4258(3) 0.5750(3) 0.34305(19)
H10 H 0.4721 0.5348 0.3807
C10 C 0.3583(2) 0.5091(3) 0.29087(18)
C11 C 0.2916(3) 0.5743(3) 0.2382(2)
H11 H 0.2433 0.5335 0.2023
C12 C 0.2959(3) 0.6990(3) 0.2384(2)
H12 H 0.2494 0.7419 0.2021
N3 N 0.0000 0.1741(3) 0.2500
C13 C 0.0649(2) 0.2364(3) 0.30115(18)
H13 H 0.1117 0.1934 0.3371
C14 C 0.0660(3) 0.3610(3) 0.30332(19)
H14 H 0.1115 0.4021 0.3411
C15 C 0.0000 0.4256(4) 0.2500
N4 N 0.0000 0.8100(3) 0.2500
C16 C 0.0105(2) 0.7484(3) 0.31889(19)
H15 H 0.0174 0.7917 0.3678
C17 C 0.0118(3) 0.6239(3) 0.32108(18)
H16 H 0.0206 0.5829 0.3708
C18 C 0.0000 0.5592(4) 0.2500
Cu1A Cu -0.37212(3) -0.05682(3) 0.21374(2)
Cu1A_2 Cu 0.62788(3) -0.05682(3) 0.21374(2)
Cu1_2 Cu 0.37212(3) 0.94318(3) 0.28626(2)
Cu1_3 Cu 0.37212(3) -1.05682(3) 0.28626(2)
Cu2_2 Cu 0.0000 0.99279(5) 0.2500
O1A O -0.30861(17) -0.05793(19) 0.10481(13)
C1A C -0.2063(3) -0.0413(3) 0.1176(2)
H1A H -0.1588 -0.0412 0.0731
O2A O -0.16670(18) -0.0253(2) 0.18541(14)
O3A O 0.0795(2) -0.0067(2) 0.14512(15)
H2A H 0.068(4) 0.043(4) 0.117(3)
H3A H 0.141(4) -0.024(4) 0.147(2)
O4A O 0.44001(17) -0.05717(19) 0.17846(12)
O4A_2 O -0.55999(17) -0.05717(19) 0.17846(12)
O4_2 O -0.44001(17) -0.05717(19) 0.32154(12)
C2A C 0.3856(3) -0.0716(3) 0.11372(18)
H4A H 0.4255 -0.0742 0.0654
O5A O 0.28542(18) -0.0825(2) 0.10818(14)
N1_2 N 0.3684(2) -0.8763(2) 0.28645(15)
N1A N -0.3684(2) 0.1237(2) 0.21355(15)
C3_2 C 0.3929(3) -0.8143(3) 0.35417(19)
H5_2 H 0.4136 -0.8579 0.4010
C4_2 C 0.3892(3) -0.6906(3) 0.35810(19)
H6_2 H 0.4065 -0.6507 0.4071
C5_2 C 0.3600(2) -0.6242(3) 0.29049(18)
C6_2 C 0.3342(3) -0.6884(3) 0.22100(19)
H7_2 H 0.3131 -0.6467 0.1735
C7_2 C 0.3391(3) -0.8121(3) 0.22104(18)
H8_2 H 0.3211 -0.8539 0.1729
N2_2 N 0.3625(2) -0.2385(2) 0.28713(16)
N2A N -0.3625(2) -0.2385(2) 0.21287(16)
C8_2 C 0.4246(3) -0.3011(3) 0.33938(19)
H9_2 H 0.4703 -0.2577 0.3758
C9_2 C 0.4258(3) -0.4250(3) 0.34305(19)
H10_2 H 0.4721 -0.4652 0.3807
C10_2 C 0.3583(2) -0.4909(3) 0.29087(18)
C11_2 C 0.2916(3) -0.4257(3) 0.2382(2)
H11_2 H 0.2433 -0.4665 0.2023
C12_2 C 0.2959(3) -0.3010(3) 0.2384(2)
H12_2 H 0.2494 -0.2581 0.2021
C13A C -0.0649(2) 0.2364(3) 0.19885(18)
H13A H -0.1117 0.1934 0.1629
C14A C -0.0660(3) 0.3610(3) 0.19668(19)
H14A H -0.1115 0.4021 0.1589
N4_2 N 0.0000 -0.1900(3) 0.2500
C16A C -0.0105(2) 0.7484(3) 0.18111(19)
H15A H -0.0174 0.7917 0.1322
C17A C -0.0118(3) 0.6239(3) 0.17892(18)
H16A H -0.0206 0.5829 0.1292
O6 O 0.4069(3) 0.1785(3) 0.02585(18)
H17 H 0.372(4) 0.154(5) -0.005(3)
H18 H 0.388(4) 0.248(5) 0.027(3)
O7 O 0.1653(3) 0.2080(3) 0.48770(19)
H19 H 0.196(4) 0.170(5) 0.520(3)
H20 H 0.176(4) 0.278(5) 0.493(3)
O8 O 0.0542(3) 0.1618(3) 0.03149(18)
H21 H 0.084(4) 0.213(5) 0.032(3)
H22 H -0.008(4) 0.179(5) 0.027(3)
B1 B 0.2288(8) 0.4443(10) 0.0118(6)
F1 F 0.3371(6) 0.4409(9) 0.0348(5)
F2 F 0.2107(4) 0.5428(4) -0.0364(3)
F3 F 0.1654(6) 0.4486(7) 0.0787(4)
F4 F 0.2023(3) 0.3426(3) -0.0321(3)
B2? B 0.2362(18) 0.4672(17) 0.0222(11)
F5? F 0.3422(13) 0.4312(16) 0.0326(13)
F6? F 0.2222(12) 0.5789(9) 0.0547(6)
F7? F 0.2073(8) 0.4719(12) -0.0578(5)
F8? F 0.1697(16) 0.3891(15) 0.0623(9)
loop_
_geom_bond_atom_site_label_1
_geom_bond_atom_site_label_2
_geom_bond_site_symmetry_1
_geom_bond_site_symmetry_2
Cu1 O1 1_555 1_555
Cu2 O2 1_555 1_555
O1 C1 1_555 1_555
C1 H1 1_555 1_555
O2 Cu1 1_555 1_555
O3 Cu2 1_555 1_555
H2 O3 1_555 1_555
H3 O3 1_555 1_555
O4 Cu1 1_555 1_555
C2 O4 1_555 1_555
H4 C2 1_555 1_555
O5 C2 1_555 1_555
N1 Cu1 1_555 1_555
C3 N1 1_555 1_555
H5 C3 1_555 1_555
C4 C3 1_555 1_555
H6 C4 1_555 1_555
C5 C4 1_555 1_555
C6 C5 1_555 1_555
H7 C6 1_555 1_555
C7 N1 1_555 1_555
H8 C7 1_555 1_555
N2 C8 1_555 1_555
C8 H9 1_555 1_555
C9 C8 1_555 1_555
H10 C9 1_555 1_555
C10 C5 1_555 1_555
C11 C10 1_555 1_555
H11 C11 1_555 1_555
C12 N2 1_555 1_555
H12 C12 1_555 1_555
N3 Cu2 1_555 1_555
C13 N3 1_555 1_555
H13 C13 1_555 1_555
C14 C13 1_555 1_555
H14 C14 1_555 1_555
C15 C14 1_555 1_555
N4 C16 1_555 1_555
C16 H15 1_555 1_555
C17 C16 1_555 1_555
H16 C17 1_555 1_555
C18 C15 1_555 1_555
O6 H17 1_555 1_555
H18 O6 1_555 1_555
O7 H19 1_555 1_555
H20 O7 1_555 1_555
O8 H21 1_555 1_555
H22 O8 1_555 1_555
B1 F1 1_555 1_555
F2 B1 1_555 1_555
F3 B1 1_555 1_555
F4 B1 1_555 1_555
Cu1A O1A 1_555 1_555
Cu1A_2 O4 1_555 1_555
Cu1_2 N2 1_555 1_555
Cu1_3 N1_2 1_555 1_555
Cu2_2 N4 1_555 1_555
O1A C1A 1_555 1_555
C1A H1A 1_555 1_555
O2A Cu2 1_555 1_555
O3A Cu2 1_555 1_555
H2A O3A 1_555 1_555
H3A O3A 1_555 1_555
O4A Cu1 1_555 1_555
O4A_2 Cu1A 1_555 1_555
O4_2 Cu1A 1_555 1_555
C2A O4A 1_555 1_555
H4A C2A 1_555 1_555
O5A C2A 1_555 1_555
N1_2 C3_2 1_555 1_555
N1A Cu1A 1_555 1_555
C3_2 H5_2 1_555 1_555
C4_2 C3_2 1_555 1_555
H6_2 C4_2 1_555 1_555
C5_2 C4_2 1_555 1_555
C6_2 C5_2 1_555 1_555
H7_2 C6_2 1_555 1_555
C7_2 N1_2 1_555 1_555
H8_2 C7_2 1_555 1_555
N2_2 Cu1 1_555 1_555
N2A Cu1A 1_555 1_555
C8_2 N2_2 1_555 1_555
H9_2 C8_2 1_555 1_555
C9_2 C8_2 1_555 1_555
H10_2 C9_2 1_555 1_555
C10_2 C5_2 1_555 1_555
C11_2 C10_2 1_555 1_555
H11_2 C11_2 1_555 1_555
C12_2 N2_2 1_555 1_555
H12_2 C12_2 1_555 1_555
C13A N3 1_555 1_555
H13A C13A 1_555 1_555
C14A C15 1_555 1_555
H14A C14A 1_555 1_555
N4_2 Cu2 1_555 1_555
C16A N4 1_555 1_555
H15A C16A 1_555 1_555
C17A C18 1_555 1_555
H16A C17A 1_555 1_555
C1 O2 1_555 1_555
C6 C7 1_555 1_555
C9 C10 1_555 1_555
C11 C12 1_555 1_555
C17 C18 1_555 1_555
Cu1A O2A 1_555 1_555
Cu1A_2 O4A 1_555 1_555
C1A O2A 1_555 1_555
C6_2 C7_2 1_555 1_555
C9_2 C10_2 1_555 1_555
C11_2 C12_2 1_555 1_555
C13A C14A 1_555 1_555
C16A C17A 1_555 1_555

#END
