
#######################################################################
#
#                 Cambridge Crystallographic Data Centre
#                                CCDC 
#
#######################################################################
#
# If this CIF has been generated from an entry in the Cambridge 
# Structural Database, then it will include bibliographic, chemical, 
# crystal, experimental, refinement or atomic coordinate data resulting 
# from the CCDC's data processing and validation procedures.
#
#######################################################################

data_REFLOE
_symmetry_cell_setting           monoclinic
_symmetry_space_group_name_H-M   'C 2/c'
_symmetry_Int_Tables_number      15
_space_group_name_Hall           '-C 2yn'
loop_
_symmetry_equiv_pos_site_id
_symmetry_equiv_pos_as_xyz
1 x,y,z
2 1/2+x,1/2+y,z
3 -x,y,1/2-z
4 1/2-x,1/2+y,1/2-z
5 -x,-y,-z
6 1/2-x,1/2-y,-z
7 x,-y,1/2+z
8 1/2+x,1/2-y,1/2+z
_cell_length_a                   16.5276(6)
_cell_length_b                   13.2996(5)
_cell_length_c                   12.0687(2)
_cell_angle_alpha                90
_cell_angle_beta                 107.041(2)
_cell_angle_gamma                90
_cell_volume                     2536.36
loop_
_atom_site_label
_atom_site_type_symbol
_atom_site_fract_x
_atom_site_fract_y
_atom_site_fract_z
Ag1 Ag 0.24357(3) 0.03400(4) 0.27355(4)
O1 O 0.1306(3) 0.3144(4) 0.6960(4)
O2 O 0.1398(3) 0.1467(4) 0.6885(4)
N1 N 0.3165(3) -0.0648(4) 0.4108(4)
N2 N 0.3581(3) -0.1310(4) 0.5855(5)
H1 H 0.3558 -0.1548 0.6501
N3 N 0.1795(3) -0.0886(4) 0.5981(4)
N4 N 0.1382(3) -0.1099(4) 0.4076(4)
H2 H 0.1456 -0.1348 0.3397
N5 N 0.1596(4) 0.1590(5) 0.3540(5)
C1 C 0.2904(4) -0.0981(5) 0.4989(5)
C2 C 0.4289(4) -0.1196(5) 0.5524(5)
H3 H 0.4836 -0.1377 0.5946
C3 C 0.4046(4) -0.0764(6) 0.4452(6)
H4 H 0.4405 -0.0578 0.4022
C4 C 0.2057(4) -0.1002(5) 0.5028(6)
C5 C 0.0679(4) -0.1068(5) 0.4417(5)
H5 H 0.0124 -0.1128 0.3947
C6 C 0.0937(4) -0.0934(5) 0.5572(6)
H6 H 0.0575 -0.0881 0.6032
C7 C 0.1556(4) 0.1563(5) 0.4645(6)
H7 H 0.1658 0.0956 0.5045
C8 C 0.1368(4) 0.2406(5) 0.5205(5)
C9 C 0.1256(4) 0.3311(6) 0.4635(6)
H8 H 0.1162 0.3891 0.5010
C10 C 0.1282(5) 0.3358(6) 0.3515(7)
H9 H 0.1165 0.3955 0.3098
C11 C 0.1490(5) 0.2488(6) 0.3014(6)
H10 H 0.1557 0.2533 0.2277
C12 C 0.1357(4) 0.2315(6) 0.6446(6)
Ag1F Ag 0.24357(3) -0.03400(4) 0.77355(4)
N3F N 0.1795(3) 0.0886(4) 0.0981(4)
loop_
_geom_bond_atom_site_label_1
_geom_bond_atom_site_label_2
_geom_bond_site_symmetry_1
_geom_bond_site_symmetry_2
Ag1 N1 1_555 1_555
O1 C12 1_555 1_555
O2 C12 1_555 1_555
N1 C1 1_555 1_555
N2 H1 1_555 1_555
N3 C4 1_555 1_555
N4 H2 1_555 1_555
N5 Ag1 1_555 1_555
C1 N2 1_555 1_555
C2 N2 1_555 1_555
H3 C2 1_555 1_555
C3 N1 1_555 1_555
H4 C3 1_555 1_555
C4 N4 1_555 1_555
C5 N4 1_555 1_555
H5 C5 1_555 1_555
C6 N3 1_555 1_555
H6 C6 1_555 1_555
C7 N5 1_555 1_555
H7 C7 1_555 1_555
C8 C7 1_555 1_555
C9 C8 1_555 1_555
H8 C9 1_555 1_555
C10 C9 1_555 1_555
H9 C10 1_555 1_555
C11 N5 1_555 1_555
H10 C11 1_555 1_555
C12 C8 1_555 1_555
Ag1F N3 1_555 1_555
N3F Ag1 1_555 1_555
C1 C4 1_555 1_555
C2 C3 1_555 1_555
C5 C6 1_555 1_555
C10 C11 1_555 1_555

#END
