
#######################################################################
#
#                 Cambridge Crystallographic Data Centre
#                                CCDC 
#
#######################################################################
#
# If this CIF has been generated from an entry in the Cambridge 
# Structural Database, then it will include bibliographic, chemical, 
# crystal, experimental, refinement or atomic coordinate data resulting 
# from the CCDC's data processing and validation procedures.
#
#######################################################################

data_REFMAS
_symmetry_cell_setting           orthorhombic
_symmetry_space_group_name_H-M   'P n a 21'
_symmetry_Int_Tables_number      33
_space_group_name_Hall           'P 2c -2n'
loop_
_symmetry_equiv_pos_site_id
_symmetry_equiv_pos_as_xyz
1 x,y,z
2 -x,-y,1/2+z
3 1/2-x,1/2+y,1/2+z
4 1/2+x,1/2-y,z
_cell_length_a                   13.295(5)
_cell_length_b                   17.922(5)
_cell_length_c                   9.585(5)
_cell_angle_alpha                90
_cell_angle_beta                 90
_cell_angle_gamma                90
_cell_volume                     2283.85
loop_
_atom_site_label
_atom_site_type_symbol
_atom_site_fract_x
_atom_site_fract_y
_atom_site_fract_z
Co1 Co 0.77290(5) 0.08142(4) 0.1951(3)
C1 C 0.6369(7) 0.0733(4) -0.1902(8)
O1 O 0.6752(4) 0.0666(3) 0.0512(6)
N1 N 0.8881(4) 0.0086(3) 0.2007(9)
O2 O 0.5921(4) 0.1366(3) -0.6657(6)
C2 C 0.6720(6) 0.0771(4) -0.3293(8)
H1 H 0.7403 0.0732 -0.3484
O3 O 0.8018(4) 0.0728(4) -0.0951(6)
C3 C 0.5018(7) 0.0888(5) -0.4120(10)
H2 H 0.4561 0.0957 -0.4843
C4 C 0.7211(7) 0.2633(5) 0.0555(10)
H3 H 0.6771 0.2255 0.0293
O4 O 0.7202(5) 0.0629(3) -0.6157(7)
C5 C 0.6391(7) 0.0971(4) -0.5844(8)
C6 C 0.9764(7) 0.0173(5) 0.2605(9)
N2 N 0.8347(4) 0.1818(3) 0.1986(10)
C7 C 0.4679(6) 0.0800(5) -0.2691(9)
H4 H 0.3994 0.0782 -0.2491
N3 N 1.0267(5) -0.0492(4) 0.2738(8)
C8 C 0.8687(6) 0.3043(4) 0.1774(12)
N4 N 0.9440(6) 0.2736(4) 0.2661(7)
C9 C 0.9649(6) -0.1047(5) 0.2288(9)
C10 C 0.8030(6) 0.2497(4) 0.1407(8)
C11 C 0.9764(8) -0.1814(5) 0.2237(12)
H5 H 1.0337 -0.2056 0.2561
C12 C 0.8783(5) -0.0686(4) 0.1773(10)
C13 C 0.9192(6) 0.2004(5) 0.2713(11)
C14 C 0.6033(7) 0.0867(4) -0.4372(9)
C15 C 0.8019(7) -0.1110(5) 0.1197(10)
H6 H 0.7454 -0.0848 0.0900
C16 C 0.7749(10) 0.3911(5) 0.0507(11)
H7 H 0.7634 0.4396 0.0203
C17 C 1.0308(8) 0.0898(6) 0.2872(14)
H8 H 1.0920 0.0790 0.3385
H9 H 1.0504 0.1110 0.1981
C18 C 0.7080(9) 0.3358(6) 0.0116(12)
H10 H 0.6535 0.3477 -0.0451
C19 C 0.8950(9) -0.2193(5) 0.1659(15)
H11 H 0.9004 -0.2711 0.1678
C20 C 0.9741(9) 0.1456(6) 0.3638(12)
H12 H 1.0198 0.1729 0.4239
H13 H 0.9255 0.1205 0.4230
C21 C 0.5363(7) 0.0743(5) -0.1647(10)
H14 H 0.5138 0.0711 -0.0730
C22 C 0.8596(9) 0.3769(5) 0.1346(10)
H15 H 0.9056 0.4138 0.1590
C23 C 0.7118(6) 0.0690(4) -0.0722(9)
C24 C 0.7988(7) -0.1900(5) 0.1002(9)
H16 H 0.7486 -0.2176 0.0565
H17 H 0.9875 0.2987 0.3153
Co1_2 Co 0.77290(5) 0.08142(4) -0.8049(3)
O4_2 O 0.7202(5) 0.0629(3) 0.3843(7)
loop_
_geom_bond_atom_site_label_1
_geom_bond_atom_site_label_2
_geom_bond_site_symmetry_1
_geom_bond_site_symmetry_2
Co1 O1 1_555 1_555
C1 C2 1_555 1_555
O1 C23 1_555 1_555
N1 Co1 1_555 1_555
O2 C5 1_555 1_555
C2 H1 1_555 1_555
O3 C23 1_555 1_555
C3 H2 1_555 1_555
C4 H3 1_555 1_555
O4 C5 1_555 1_555
C5 C14 1_555 1_555
C6 N1 1_555 1_555
N2 Co1 1_555 1_555
C7 C3 1_555 1_555
H4 C7 1_555 1_555
N3 C6 1_555 1_555
C8 N4 1_555 1_555
N4 C13 1_555 1_555
C9 N3 1_555 1_555
C10 C4 1_555 1_555
C11 C9 1_555 1_555
H5 C11 1_555 1_555
C12 N1 1_555 1_555
C13 N2 1_555 1_555
C14 C2 1_555 1_555
C15 C12 1_555 1_555
H6 C15 1_555 1_555
C16 H7 1_555 1_555
C17 C6 1_555 1_555
H8 C17 1_555 1_555
H9 C17 1_555 1_555
C18 C4 1_555 1_555
H10 C18 1_555 1_555
C19 C11 1_555 1_555
H11 C19 1_555 1_555
C20 C13 1_555 1_555
H12 C20 1_555 1_555
H13 C20 1_555 1_555
C21 C1 1_555 1_555
H14 C21 1_555 1_555
C22 C8 1_555 1_555
H15 C22 1_555 1_555
C23 C1 1_555 1_555
C24 C15 1_555 1_555
H16 C24 1_555 1_555
H17 N4 1_555 1_555
Co1_2 O4 1_555 1_555
O4_2 Co1 1_555 1_555
C3 C14 1_555 1_555
N2 C10 1_555 1_555
C7 C21 1_555 1_555
C8 C10 1_555 1_555
C9 C12 1_555 1_555
C16 C18 1_555 1_555
C16 C22 1_555 1_555
C17 C20 1_555 1_555
C19 C24 1_555 1_555

#END
