
#######################################################################
#
#                 Cambridge Crystallographic Data Centre
#                                CCDC 
#
#######################################################################
#
# If this CIF has been generated from an entry in the Cambridge 
# Structural Database, then it will include bibliographic, chemical, 
# crystal, experimental, refinement or atomic coordinate data resulting 
# from the CCDC's data processing and validation procedures.
#
#######################################################################

data_REFSIF
_symmetry_cell_setting           monoclinic
_symmetry_space_group_name_H-M   'P 21/c'
_symmetry_Int_Tables_number      14
_space_group_name_Hall           '-P 2ybc'
loop_
_symmetry_equiv_pos_site_id
_symmetry_equiv_pos_as_xyz
1 x,y,z
2 -x,1/2+y,1/2-z
3 -x,-y,-z
4 x,1/2-y,1/2+z
_cell_length_a                   18.255(4)
_cell_length_b                   12.558(3)
_cell_length_c                   13.449(3)
_cell_angle_alpha                90
_cell_angle_beta                 92.940(4)
_cell_angle_gamma                90
_cell_volume                     3079.08
loop_
_atom_site_label
_atom_site_type_symbol
_atom_site_fract_x
_atom_site_fract_y
_atom_site_fract_z
C1 C 0.0511(3) 0.6331(4) 0.7052(4)
C2 C 0.0118(3) 0.5960(4) 0.7873(4)
H1 H -0.0007 0.5244 0.7909
C3 C -0.0079(3) 0.6645(4) 0.8614(4)
H2 H -0.0353 0.6376 0.9121
C4 C 0.0114(2) 0.7731(4) 0.8644(4)
C5 C 0.0630(3) 0.8038(4) 0.7946(4)
H3 H 0.0842 0.8710 0.7999
C6 C 0.0830(3) 0.7364(4) 0.7180(4)
H4 H 0.1177 0.7592 0.6745
O1 O 0.0647(2) 0.5736(3) 0.6308(3)
O2 O -0.0134(2) 0.8382(3) 0.9288(3)
Mn1 Mn 0.11060(4) 0.66010(5) 0.86035(6)
C7 C 0.1081(5) 0.5811(6) 0.9712(5)
C8 C 0.1502(3) 0.2319(4) 0.4044(6)
C9 C 0.6167(6) 0.1115(5) 0.4956(6)
O3 O 0.1033(5) 0.5320(6) 1.0414(5)
O4 O 0.0989(3) 0.1908(4) 0.3693(5)
O5 O 0.6251(6) 0.1127(5) 0.5818(5)
Eu1 Eu 0.0000 0.5000 0.5000
C10 C 0.1723(2) 0.4539(3) 0.4316(3)
C11 C 0.2083(3) 0.4487(5) 0.5237(4)
H5 H 0.1820 0.4592 0.5803
C12 C 0.2849(3) 0.4276(5) 0.5350(5)
H6 H 0.3067 0.4226 0.5989
C13 C 0.3280(2) 0.4142(4) 0.4549(5)
C14 C 0.2892(3) 0.4027(4) 0.3641(5)
H7 H 0.3144 0.3796 0.3098
C15 C 0.2143(3) 0.4239(4) 0.3499(4)
H8 H 0.1917 0.4182 0.2865
O6 O 0.10424(16) 0.4784(2) 0.4174(3)
O7 O 0.39815(18) 0.4036(3) 0.4636(4)
Mn2 Mn 0.23146(4) 0.29566(6) 0.45615(7)
C16 C 0.1809(4) 0.5792(6) 0.8102(5)
C17 C 0.2200(8) 0.2283(11) 0.5663(9)
C18 C 0.6957(5) 0.1053(6) 0.3457(7)
O8 O 0.2241(4) 0.5290(6) 0.7740(6)
O9 O 0.2050(8) 0.1957(12) 0.6434(9)
O10 O 0.7582(3) 0.1041(6) 0.3318(7)
Eu2 Eu 0.5000 0.5000 0.5000
C19 C 0.5569(3) 0.2882(4) 0.3769(4)
C20 C 0.6024(4) 0.2733(4) 0.2997(5)
H9 H 0.6448 0.3140 0.2971
C21 C 0.5857(5) 0.1961(5) 0.2231(5)
H10 H 0.6169 0.1895 0.1709
C22 C 0.5252(5) 0.1319(5) 0.2250(5)
C23 C 0.4870(4) 0.1343(5) 0.3117(5)
H11 H 0.4503 0.0843 0.3205
C24 C 0.5021(3) 0.2087(5) 0.3849(5)
H12 H 0.4754 0.2070 0.4419
O11 O 0.5657(2) 0.3613(3) 0.4430(4)
O12 O 0.5064(5) 0.0647(5) 0.1532(4)
Mn3 Mn 0.60029(5) 0.11595(6) 0.36451(6)
C25 C 0.1759(3) 0.7444(5) 0.9261(5)
C26 C 0.2897(4) 0.1922(5) 0.4239(11)
C27 C 0.5879(4) -0.0263(5) 0.3537(5)
O13 O 0.2185(3) 0.7963(4) 0.9660(5)
O14 O 0.3263(4) 0.1275(5) 0.4054(11)
O15 O 0.5804(4) -0.1158(4) 0.3459(5)
C1B C -0.0511(3) 0.3669(4) 0.2948(4)
C2B C -0.0118(3) 0.4040(4) 0.2127(4)
H1B H 0.0007 0.4756 0.2091
C3B C 0.0079(3) 0.3355(4) 0.1386(4)
H2B H 0.0353 0.3624 0.0879
C4B C -0.0114(2) 0.2269(4) 0.1356(4)
C5B C -0.0630(3) 0.1962(4) 0.2054(4)
H3B H -0.0842 0.1290 0.2001
C6B C -0.0830(3) 0.2636(4) 0.2820(4)
H4B H -0.1177 0.2408 0.3255
O1B O -0.0647(2) 0.4264(3) 0.3692(3)
O2B O 0.0134(2) 0.1618(3) 0.0712(3)
O2C O -0.0134(2) 0.6618(3) 0.4288(3)
O2A O 0.0134(2) 0.3382(3) 0.5712(3)
Mn1B Mn -0.11060(4) 0.33990(5) 0.13965(6)
C7B C -0.1081(5) 0.4189(6) 0.0288(5)
C8B C -0.1502(3) 0.7681(4) 0.5956(6)
C9B C 0.3833(6) 0.8885(5) 0.5044(6)
O3B O -0.1033(5) 0.4680(6) -0.0414(5)
O4B O -0.0989(3) 0.8092(4) 0.6307(5)
O5B O 0.3749(6) 0.8873(5) 0.4182(5)
Eu1C Eu 0.0000 1.0000 1.0000
Eu1C_2 Eu 0.0000 0.0000 0.0000
C10B C -0.1723(2) 0.5461(3) 0.5684(3)
C11B C -0.2083(3) 0.5513(5) 0.4763(4)
H5B H -0.1820 0.5408 0.4197
C12B C -0.2849(3) 0.5724(5) 0.4650(5)
H6B H -0.3067 0.5774 0.4011
C13B C -0.3280(2) 0.5858(4) 0.5451(5)
C14B C -0.2892(3) 0.5973(4) 0.6359(5)
H7B H -0.3144 0.6204 0.6902
C15B C -0.2143(3) 0.5761(4) 0.6501(4)
H8B H -0.1917 0.5818 0.7135
O6B O -0.10424(16) 0.5216(2) 0.5826(3)
O7B O -0.39815(18) 0.5964(3) 0.5364(4)
O7B_2 O 0.60185(18) 0.5964(3) 0.5364(4)
Mn2B Mn -0.23146(4) 0.70434(6) 0.54385(7)
C16B C -0.1809(4) 0.4208(6) 0.1898(5)
C17B C -0.2200(8) 0.7717(11) 0.4337(9)
C18B C 0.3043(5) 0.8947(6) 0.6543(7)
O8B O -0.2241(4) 0.4710(6) 0.2260(6)
O9B O -0.2050(8) 0.8043(12) 0.3566(9)
O10B O 0.2418(3) 0.8959(6) 0.6682(7)
Eu2C Eu 0.5000 0.0000 0.0000
Eu2_2 Eu -0.5000 0.5000 0.5000
Eu2C_2 Eu 0.5000 1.0000 1.0000
C19B C 0.4431(3) 0.7118(4) 0.6231(4)
C20B C 0.3976(4) 0.7267(4) 0.7003(5)
H9B H 0.3552 0.6860 0.7029
C21B C 0.4143(5) 0.8039(5) 0.7769(5)
H10B H 0.3831 0.8105 0.8291
C22B C 0.4748(5) 0.8681(5) 0.7750(5)
C23B C 0.5130(4) 0.8657(5) 0.6883(5)
H11B H 0.5497 0.9157 0.6795
C24B C 0.4979(3) 0.7913(5) 0.6151(5)
H12B H 0.5246 0.7930 0.5581
O11B O 0.4343(2) 0.6387(3) 0.5570(4)
O12B O 0.4936(5) 0.9353(5) 0.8468(4)
O12C O 0.5064(5) 0.4353(5) 0.6532(4)
O12A O 0.4936(5) 0.5647(5) 0.3468(4)
Mn3B Mn 0.39971(5) 0.88405(6) 0.63549(6)
C25B C -0.1759(3) 0.2556(5) 0.0739(5)
C26B C -0.2897(4) 0.8078(5) 0.5761(11)
C27B C 0.4121(4) 1.0263(5) 0.6463(5)
O13B O -0.2185(3) 0.2037(4) 0.0340(5)
O14B O -0.3263(4) 0.8725(5) 0.5946(11)
O15B O 0.4196(4) 1.1158(4) 0.6541(5)
loop_
_geom_bond_atom_site_label_1
_geom_bond_atom_site_label_2
_geom_bond_site_symmetry_1
_geom_bond_site_symmetry_2
C1 C2 1_555 1_555
C2 H1 1_555 1_555
C3 C2 1_555 1_555
H2 C3 1_555 1_555
C4 C3 1_555 1_555
C5 C4 1_555 1_555
H3 C5 1_555 1_555
C6 C1 1_555 1_555
H4 C6 1_555 1_555
O1 C1 1_555 1_555
O2 C4 1_555 1_555
Mn1 C2 1_555 1_555
C7 Mn1 1_555 1_555
C8 O4 1_555 1_555
C9 O5 1_555 1_555
O3 C7 1_555 1_555
Eu1 O1 1_555 1_555
C10 C11 1_555 1_555
C11 H5 1_555 1_555
C12 C11 1_555 1_555
H6 C12 1_555 1_555
C13 C12 1_555 1_555
C14 C13 1_555 1_555
H7 C14 1_555 1_555
C15 C10 1_555 1_555
H8 C15 1_555 1_555
O6 Eu1 1_555 1_555
O7 C13 1_555 1_555
Mn2 C8 1_555 1_555
C16 Mn1 1_555 1_555
C17 Mn2 1_555 1_555
C18 O10 1_555 1_555
O8 C16 1_555 1_555
O9 C17 1_555 1_555
Eu2 O7 1_555 1_555
C19 C20 1_555 1_555
C20 H9 1_555 1_555
C21 C20 1_555 1_555
H10 C21 1_555 1_555
C22 C21 1_555 1_555
C23 C22 1_555 1_555
H11 C23 1_555 1_555
C24 C19 1_555 1_555
H12 C24 1_555 1_555
O11 Eu2 1_555 1_555
O12 C22 1_555 1_555
Mn3 C9 1_555 1_555
C25 Mn1 1_555 1_555
C26 Mn2 1_555 1_555
C27 Mn3 1_555 1_555
O13 C25 1_555 1_555
O14 C26 1_555 1_555
O15 C27 1_555 1_555
C1B C2B 1_555 1_555
C2B H1B 1_555 1_555
C3B C2B 1_555 1_555
H2B C3B 1_555 1_555
C4B C3B 1_555 1_555
C5B C4B 1_555 1_555
H3B C5B 1_555 1_555
C6B C1B 1_555 1_555
H4B C6B 1_555 1_555
O1B Eu1 1_555 1_555
O2B C4B 1_555 1_555
O2C Eu1 1_555 1_555
O2A Eu1 1_555 1_555
Mn1B C2B 1_555 1_555
C7B Mn1B 1_555 1_555
C8B O4B 1_555 1_555
C9B O5B 1_555 1_555
O3B C7B 1_555 1_555
Eu1C O2 1_555 1_555
Eu1C_2 O2B 1_555 1_555
C10B C11B 1_555 1_555
C11B H5B 1_555 1_555
C12B C11B 1_555 1_555
H6B C12B 1_555 1_555
C13B C12B 1_555 1_555
C14B C13B 1_555 1_555
H7B C14B 1_555 1_555
C15B C10B 1_555 1_555
H8B C15B 1_555 1_555
O6B Eu1 1_555 1_555
O7B C13B 1_555 1_555
O7B_2 Eu2 1_555 1_555
Mn2B C8B 1_555 1_555
C16B Mn1B 1_555 1_555
C17B Mn2B 1_555 1_555
C18B O10B 1_555 1_555
O8B C16B 1_555 1_555
O9B C17B 1_555 1_555
Eu2C O12 1_555 1_555
Eu2_2 O7B 1_555 1_555
Eu2C_2 O12B 1_555 1_555
C19B C20B 1_555 1_555
C20B H9B 1_555 1_555
C21B C20B 1_555 1_555
H10B C21B 1_555 1_555
C22B C21B 1_555 1_555
C23B C22B 1_555 1_555
H11B C23B 1_555 1_555
C24B C19B 1_555 1_555
H12B C24B 1_555 1_555
O11B Eu2 1_555 1_555
O12B C22B 1_555 1_555
O12C Eu2 1_555 1_555
O12A Eu2 1_555 1_555
Mn3B C9B 1_555 1_555
C25B Mn1B 1_555 1_555
C26B Mn2B 1_555 1_555
C27B Mn3B 1_555 1_555
O13B C25B 1_555 1_555
O14B C26B 1_555 1_555
O15B C27B 1_555 1_555
C3 Mn1 1_555 1_555
C5 C6 1_555 1_555
C5 Mn1 1_555 1_555
C6 Mn1 1_555 1_555
C10 O6 1_555 1_555
C11 Mn2 1_555 1_555
C12 Mn2 1_555 1_555
C14 C15 1_555 1_555
C14 Mn2 1_555 1_555
C15 Mn2 1_555 1_555
C18 Mn3 1_555 1_555
C19 O11 1_555 1_555
C20 Mn3 1_555 1_555
C21 Mn3 1_555 1_555
C23 C24 1_555 1_555
C23 Mn3 1_555 1_555
C24 Mn3 1_555 1_555
C1B O1B 1_555 1_555
C3B Mn1B 1_555 1_555
C5B C6B 1_555 1_555
C5B Mn1B 1_555 1_555
C6B Mn1B 1_555 1_555
C10B O6B 1_555 1_555
C11B Mn2B 1_555 1_555
C12B Mn2B 1_555 1_555
C14B C15B 1_555 1_555
C14B Mn2B 1_555 1_555
C15B Mn2B 1_555 1_555
C18B Mn3B 1_555 1_555
C19B O11B 1_555 1_555
C20B Mn3B 1_555 1_555
C21B Mn3B 1_555 1_555
C23B C24B 1_555 1_555
C23B Mn3B 1_555 1_555
C24B Mn3B 1_555 1_555

#END
