
#######################################################################
#
#                 Cambridge Crystallographic Data Centre
#                                CCDC 
#
#######################################################################
#
# If this CIF has been generated from an entry in the Cambridge 
# Structural Database, then it will include bibliographic, chemical, 
# crystal, experimental, refinement or atomic coordinate data resulting 
# from the CCDC's data processing and validation procedures.
#
#######################################################################

data_REGGUG01
_symmetry_cell_setting           monoclinic
_symmetry_space_group_name_H-M   'P 21'
_symmetry_Int_Tables_number      4
_space_group_name_Hall           'P 2yb'
loop_
_symmetry_equiv_pos_site_id
_symmetry_equiv_pos_as_xyz
1 x,y,z
2 -x,1/2+y,-z
_cell_length_a                   9.248(5)
_cell_length_b                   13.580(5)
_cell_length_c                   10.207(5)
_cell_angle_alpha                90
_cell_angle_beta                 94.357(5)
_cell_angle_gamma                90
_cell_volume                     1278.17
loop_
_atom_site_label
_atom_site_type_symbol
_atom_site_fract_x
_atom_site_fract_y
_atom_site_fract_z
Fe1 Fe -0.13521(10) 0.20336(8) 0.10228(8)
Fe2 Fe -0.60990(10) 0.18967(8) 0.39940(8)
O1 O -0.4212(5) 0.1092(4) 0.3689(5)
O2 O -0.2281(6) 0.1115(5) 0.2467(5)
O3 O -0.0030(5) 0.2878(4) 0.2412(5)
O4 O 0.0583(5) 0.1186(4) 0.1232(4)
O5 O -0.3194(5) 0.2845(4) 0.1425(5)
O6 O -0.4985(5) 0.2870(4) 0.2775(5)
O7 O 0.1989(5) 0.2766(4) 0.3707(5)
O8 O 0.2746(6) 0.1130(5) 0.2407(5)
N1 N -0.7013(6) 0.0943(5) 0.5424(5)
N2 N -0.5411(7) 0.2597(6) 0.5866(6)
N3 N -0.2248(7) 0.1163(5) -0.0609(5)
N4 N -0.0584(6) 0.2798(5) -0.0698(6)
C1 C -0.7839(9) 0.0159(6) 0.5202(8)
H1 H -0.8045 -0.0043 0.4338
C2 C -0.8422(8) -0.0385(6) 0.6205(8)
H2 H -0.8980 -0.0943 0.6005
C3 C -0.8164(9) -0.0091(7) 0.7459(8)
H3 H -0.8545 -0.0446 0.8132
C4 C -0.7317(8) 0.0756(6) 0.7758(7)
C5 C -0.6987(9) 0.1136(8) 0.9063(7)
H4 H -0.7332 0.0808 0.9776
C6 C -0.6195(8) 0.1948(9) 0.9269(7)
H5 H -0.6029 0.2181 1.0124
C7 C -0.5588(8) 0.2480(7) 0.8227(7)
C8 C -0.4782(9) 0.3343(7) 0.8404(8)
H6 H -0.4566 0.3600 0.9240
C9 C -0.4315(11) 0.3803(8) 0.7321(9)
H7 H -0.3754 0.4371 0.7416
C10 C -0.4682(9) 0.3417(7) 0.6077(8)
H8 H -0.4394 0.3761 0.5353
C11 C -0.5911(7) 0.2132(6) 0.6924(6)
C12 C -0.6756(7) 0.1260(6) 0.6692(7)
C13 C -0.3145(9) 0.0393(6) -0.0568(8)
H9 H -0.3513 0.0234 0.0228
C14 C -0.3557(10) -0.0185(7) -0.1673(10)
H10 H -0.4187 -0.0713 -0.1609
C15 C -0.3026(11) 0.0038(8) -0.2830(10)
H11 H -0.3259 -0.0354 -0.3563
C16 C -0.2124(9) 0.0858(7) -0.2928(7)
C17 C -0.1523(11) 0.1155(9) -0.4126(8)
H12 H -0.1719 0.0784 -0.4885
C18 C -0.0669(10) 0.1972(11) -0.4169(7)
H13 H -0.0320 0.2159 -0.4963
C19 C -0.0299(9) 0.2548(7) -0.3022(8)
C20 C 0.0510(9) 0.3402(8) -0.3024(10)
H14 H 0.0874 0.3614 -0.3800
C21 C 0.0783(11) 0.3936(8) -0.1910(11)
H15 H 0.1351 0.4501 -0.1912
C22 C 0.0188(8) 0.3619(7) -0.0749(9)
H16 H 0.0343 0.3999 0.0007
C23 C -0.0880(8) 0.2268(6) -0.1829(6)
C24 C 0.1531(7) 0.1497(6) 0.2090(7)
C25 C -0.1764(8) 0.1408(6) -0.1776(7)
C26 C -0.3429(7) 0.1461(6) 0.2864(7)
C27 C -0.3877(8) 0.2491(6) 0.2323(7)
C28 C 0.1157(8) 0.2469(6) 0.2787(7)
Fe2_2 Fe 0.39010(10) 0.18967(8) 0.39940(8)
O7_2 O -0.8011(5) 0.2766(4) 0.3707(5)
O8_2 O -0.7254(6) 0.1130(5) 0.2407(5)
loop_
_geom_bond_atom_site_label_1
_geom_bond_atom_site_label_2
_geom_bond_site_symmetry_1
_geom_bond_site_symmetry_2
Fe1 O2 1_555 1_555
Fe2 O1 1_555 1_555
O1 C26 1_555 1_555
O2 C26 1_555 1_555
O3 Fe1 1_555 1_555
O4 Fe1 1_555 1_555
O5 Fe1 1_555 1_555
O6 Fe2 1_555 1_555
O7 C28 1_555 1_555
O8 C24 1_555 1_555
N1 Fe2 1_555 1_555
N2 Fe2 1_555 1_555
N3 Fe1 1_555 1_555
N4 Fe1 1_555 1_555
C1 N1 1_555 1_555
H1 C1 1_555 1_555
C2 C1 1_555 1_555
H2 C2 1_555 1_555
C3 C2 1_555 1_555
H3 C3 1_555 1_555
C4 C3 1_555 1_555
C5 C4 1_555 1_555
H4 C5 1_555 1_555
C6 C5 1_555 1_555
H5 C6 1_555 1_555
C7 C6 1_555 1_555
C8 C7 1_555 1_555
H6 C8 1_555 1_555
C9 C8 1_555 1_555
H7 C9 1_555 1_555
C10 N2 1_555 1_555
H8 C10 1_555 1_555
C11 N2 1_555 1_555
C12 N1 1_555 1_555
C13 N3 1_555 1_555
H9 C13 1_555 1_555
C14 C13 1_555 1_555
H10 C14 1_555 1_555
C15 C14 1_555 1_555
H11 C15 1_555 1_555
C16 C15 1_555 1_555
C17 C16 1_555 1_555
H12 C17 1_555 1_555
C18 C17 1_555 1_555
H13 C18 1_555 1_555
C19 C18 1_555 1_555
C20 C19 1_555 1_555
H14 C20 1_555 1_555
C21 C20 1_555 1_555
H15 C21 1_555 1_555
C22 N4 1_555 1_555
H16 C22 1_555 1_555
C23 N4 1_555 1_555
C24 O4 1_555 1_555
C25 N3 1_555 1_555
C26 C27 1_555 1_555
C27 O5 1_555 1_555
C28 O3 1_555 1_555
Fe2_2 O7 1_555 1_555
O7_2 Fe2 1_555 1_555
O8_2 Fe2 1_555 1_555
O6 C27 1_555 1_555
O8 Fe2_2 1_555 1_555
C4 C12 1_555 1_555
C7 C11 1_555 1_555
C9 C10 1_555 1_555
C11 C12 1_555 1_555
C16 C25 1_555 1_555
C19 C23 1_555 1_555
C21 C22 1_555 1_555
C23 C25 1_555 1_555
C24 C28 1_555 1_555

#END
