
#######################################################################
#
#                 Cambridge Crystallographic Data Centre
#                                CCDC 
#
#######################################################################
#
# If this CIF has been generated from an entry in the Cambridge 
# Structural Database, then it will include bibliographic, chemical, 
# crystal, experimental, refinement or atomic coordinate data resulting 
# from the CCDC's data processing and validation procedures.
#
#######################################################################

data_REGGUG
_symmetry_cell_setting           monoclinic
_symmetry_space_group_name_H-M   'P 21'
_symmetry_Int_Tables_number      4
_space_group_name_Hall           'P 2yb'
loop_
_symmetry_equiv_pos_site_id
_symmetry_equiv_pos_as_xyz
1 x,y,z
2 -x,1/2+y,-z
_cell_length_a                   9.2288(8)
_cell_length_b                   13.5778(12)
_cell_length_c                   10.2001(9)
_cell_angle_alpha                90
_cell_angle_beta                 94.310(2)
_cell_angle_gamma                90
_cell_volume                     1274.53
loop_
_atom_site_label
_atom_site_type_symbol
_atom_site_fract_x
_atom_site_fract_y
_atom_site_fract_z
Fe1 Fe 0.13560(12) 0.96779(9) 0.39790(11)
Fe2 Fe 0.61045(12) 0.98127(9) 0.10076(11)
O1 O 0.2314(8) 1.0586(5) 0.2528(7)
O2 O 0.3208(6) 0.8871(4) 0.3582(6)
O3 O 0.4978(7) 0.8827(5) 0.2224(7)
O4 O 0.4204(7) 1.0624(4) 0.1313(6)
O5 O -0.1985(6) 0.8947(4) 0.1293(6)
O6 O -0.0574(6) 1.0524(4) 0.3767(6)
O7 O -0.2717(8) 1.0579(5) 0.2581(7)
O8 O 0.0051(7) 0.8825(5) 0.2602(7)
N1 N 0.0621(9) 0.8919(6) 0.5695(8)
N2 N 0.2246(8) 1.0548(5) 0.5593(7)
N3 N 0.7014(8) 1.0762(5) -0.0442(7)
N4 N 0.5436(9) 0.9115(6) -0.0853(8)
C1 C 0.3123(11) 1.1323(7) 0.5575(10)
H1 H 0.3473 1.1501 0.4777
C2 C 0.3548(13) 1.1885(7) 0.6677(12)
H2 H 0.4199 1.2403 0.6619
C3 C 0.2990(14) 1.1662(9) 0.7860(13)
H3 H 0.3194 1.2056 0.8596
C4 C 0.2123(12) 1.0840(7) 0.7922(10)
C5 C 0.1559(14) 1.0544(10) 0.9109(11)
H4 H 0.1788 1.0906 0.9871
C6 C 0.0690(13) 0.9740(13) 0.9161(9)
H5 H 0.0332 0.9562 0.9956
C7 C 0.0323(12) 0.9175(8) 0.8040(11)
C8 C -0.0519(12) 0.8307(10) 0.8014(12)
H6 H -0.0897 0.8096 0.8786
C9 C -0.0788(14) 0.7785(9) 0.6935(16)
H7 H -0.1367 0.7225 0.6935
C10 C -0.0168(10) 0.8103(7) 0.5768(10)
H8 H -0.0324 0.7719 0.5016
C11 C 0.0860(9) 0.9426(7) 0.6833(8)
C12 C 0.1768(10) 1.0310(7) 0.6785(9)
C13 C 0.7824(12) 1.1558(7) -0.0201(9)
H9 H 0.8010 1.1765 0.0664
C14 C 0.8406(11) 1.2095(7) -0.1206(11)
H10 H 0.8982 1.2645 -0.1007
C15 C 0.8126(13) 1.1811(8) -0.2468(13)
H11 H 0.8468 1.2184 -0.3145
C16 C 0.7312(10) 1.0944(7) -0.2761(9)
C17 C 0.7005(12) 1.0582(9) -0.4043(10)
H12 H 0.7373 1.0909 -0.4747
C18 C 0.6185(9) 0.9767(11) -0.4271(8)
H13 H 0.5987 0.9549 -0.5130
C19 C 0.5607(10) 0.9226(7) -0.3200(9)
C20 C 0.4766(11) 0.8379(8) -0.3392(10)
H14 H 0.4524 0.8140 -0.4235
C21 C 0.4301(13) 0.7904(9) -0.2311(12)
H15 H 0.3747 0.7333 -0.2409
C22 C 0.4668(11) 0.8286(8) -0.1086(10)
H16 H 0.4362 0.7945 -0.0365
C23 C 0.5895(8) 0.9583(7) -0.1926(8)
C24 C 0.6752(10) 1.0451(7) -0.1680(9)
C25 C 0.3902(11) 0.9203(7) 0.2690(9)
C26 C 0.3455(11) 1.0242(6) 0.2129(10)
C27 C -0.1525(11) 1.0202(6) 0.2913(9)
C28 C -0.1125(10) 0.9236(7) 0.2212(10)
Fe2_2 Fe -0.38955(12) 0.98127(9) 0.10076(11)
O5_2 O 0.8015(6) 0.8947(4) 0.1293(6)
O7_2 O 0.7283(8) 1.0579(5) 0.2581(7)
loop_
_geom_bond_atom_site_label_1
_geom_bond_atom_site_label_2
_geom_bond_site_symmetry_1
_geom_bond_site_symmetry_2
Fe1 O1 1_555 1_555
Fe2 O3 1_555 1_555
O1 C26 1_555 1_555
O2 Fe1 1_555 1_555
O3 C25 1_555 1_555
O4 Fe2 1_555 1_555
O5 C28 1_555 1_555
O6 Fe1 1_555 1_555
O7 C27 1_555 1_555
O8 Fe1 1_555 1_555
N1 Fe1 1_555 1_555
N2 Fe1 1_555 1_555
N3 Fe2 1_555 1_555
N4 Fe2 1_555 1_555
C1 N2 1_555 1_555
H1 C1 1_555 1_555
C2 C1 1_555 1_555
H2 C2 1_555 1_555
C3 C2 1_555 1_555
H3 C3 1_555 1_555
C4 C3 1_555 1_555
C5 C4 1_555 1_555
H4 C5 1_555 1_555
C6 C5 1_555 1_555
H5 C6 1_555 1_555
C7 C6 1_555 1_555
C8 C7 1_555 1_555
H6 C8 1_555 1_555
C9 C8 1_555 1_555
H7 C9 1_555 1_555
C10 N1 1_555 1_555
H8 C10 1_555 1_555
C11 N1 1_555 1_555
C12 N2 1_555 1_555
C13 N3 1_555 1_555
H9 C13 1_555 1_555
C14 C13 1_555 1_555
H10 C14 1_555 1_555
C15 C14 1_555 1_555
H11 C15 1_555 1_555
C16 C15 1_555 1_555
C17 C16 1_555 1_555
H12 C17 1_555 1_555
C18 C17 1_555 1_555
H13 C18 1_555 1_555
C19 C18 1_555 1_555
C20 C19 1_555 1_555
H14 C20 1_555 1_555
C21 C20 1_555 1_555
H15 C21 1_555 1_555
C22 N4 1_555 1_555
H16 C22 1_555 1_555
C23 N4 1_555 1_555
C24 N3 1_555 1_555
C25 O2 1_555 1_555
C26 O4 1_555 1_555
C27 O6 1_555 1_555
C28 O8 1_555 1_555
Fe2_2 O5 1_555 1_555
O5_2 Fe2 1_555 1_555
O7_2 Fe2 1_555 1_555
O7 Fe2_2 1_555 1_555
C4 C12 1_555 1_555
C7 C11 1_555 1_555
C9 C10 1_555 1_555
C11 C12 1_555 1_555
C16 C24 1_555 1_555
C19 C23 1_555 1_555
C21 C22 1_555 1_555
C23 C24 1_555 1_555
C25 C26 1_555 1_555
C27 C28 1_555 1_555

#END
