
#######################################################################
#
#                 Cambridge Crystallographic Data Centre
#                                CCDC 
#
#######################################################################
#
# If this CIF has been generated from an entry in the Cambridge 
# Structural Database, then it will include bibliographic, chemical, 
# crystal, experimental, refinement or atomic coordinate data resulting 
# from the CCDC's data processing and validation procedures.
#
#######################################################################

data_REGLUM
_symmetry_cell_setting           monoclinic
_symmetry_space_group_name_H-M   'P 21'
_symmetry_Int_Tables_number      4
_space_group_name_Hall           'P 2yb'
loop_
_symmetry_equiv_pos_site_id
_symmetry_equiv_pos_as_xyz
1 x,y,z
2 -x,1/2+y,-z
_cell_length_a                   7.6393(8)
_cell_length_b                   11.5121(12)
_cell_length_c                   9.0174(10)
_cell_angle_alpha                90
_cell_angle_beta                 99.3050(10)
_cell_angle_gamma                90
_cell_volume                     782.595
loop_
_atom_site_label
_atom_site_type_symbol
_atom_site_fract_x
_atom_site_fract_y
_atom_site_fract_z
Cd1 Cd 0.26647(3) 0.654884(19) 0.26233(2)
Cd2 Cd 0.13979(3) 0.16122(2) 0.28817(2)
O1 O 0.3659(3) 0.1755(2) 0.4773(3)
O2 O 0.5232(4) 0.2841(2) 0.6527(3)
O3 O 0.1125(4) 0.3381(3) 0.4149(3)
H1 H 0.035(4) 0.300(4) 0.434(3)
O4 O 0.3956(4) 0.4985(3) 0.4277(3)
H2 H 0.372(6) 0.451(3) 0.366(3)
C1 C 0.3888(5) 0.2643(3) 0.5580(4)
C2 C 0.2405(5) 0.3542(3) 0.5492(4)
H3 H 0.1801 0.3434 0.6362
C3 C 0.3070(5) 0.4774(3) 0.5511(4)
H4 H 0.3930 0.4880 0.6432
C4 C 0.1561(5) 0.5632(3) 0.5551(4)
O5 O 0.1189(4) 0.6387(3) 0.4568(3)
O6 O 0.0751(4) 0.5502(3) 0.6637(3)
O7 O -0.0414(3) 0.2123(2) 0.0690(3)
O8 O -0.0652(4) 0.2869(2) -0.1608(3)
O9 O 0.2920(3) 0.2781(2) 0.1439(3)
H5 H 0.394(2) 0.282(4) 0.154(5)
O10 O 0.1185(4) 0.4883(2) 0.1374(3)
H6 H 0.062(6) 0.543(3) 0.139(6)
O11 O 0.4291(3) 0.5879(2) 0.0993(3)
O12 O 0.4599(4) 0.4665(3) -0.0852(3)
C5 C 0.0190(5) 0.2669(3) -0.0296(4)
C6 C 0.2036(4) 0.3195(3) 0.0038(4)
H7 H 0.2709 0.2966 -0.0752
C7 C 0.1935(5) 0.4530(3) 0.0094(4)
H8 H 0.1140 0.4792 -0.0807
C8 C 0.3748(5) 0.5068(3) 0.0072(4)
O13 O 0.2419(4) 0.0036(3) 0.1857(5)
H9 H 0.332(5) 0.009(6) 0.158(8)
H10 H 0.195(7) -0.056(3) 0.182(7)
Cd1A Cd -0.26647(3) 0.154884(19) -0.26233(2)
Cd1A_2 Cd 0.73353(3) 0.154884(19) 0.73767(2)
Cd2A Cd -0.13979(3) 0.66122(2) 0.71183(2)
O2A O 0.4768(4) 0.7841(2) 0.3473(3)
O6A O -0.0751(4) 0.0502(3) 0.3363(3)
O8A O 0.0652(4) 0.7869(2) 0.1608(3)
O14 O 0.7754(7) 0.4099(6) 0.4414(9)
H11 H 0.737(12) 0.365(7) 0.491(11)
H12 H 0.700(10) 0.453(7) 0.412(12)
O15 O 0.6343(5) 0.2659(5) 0.1870(5)
H13 H 0.687(10) 0.231(6) 0.135(8)
H14 H 0.695(10) 0.310(6) 0.236(8)
O16 O 0.7881(6) 0.5608(5) 0.1986(6)
H15 H 0.793(13) 0.4940(19) 0.207(11)
H16 H 0.692(5) 0.577(8) 0.163(9)
loop_
_geom_bond_atom_site_label_1
_geom_bond_atom_site_label_2
_geom_bond_site_symmetry_1
_geom_bond_site_symmetry_2
Cd1 O4 1_555 1_555
Cd2 O1 1_555 1_555
O1 C1 1_555 1_555
O2 C1 1_555 1_555
O3 Cd2 1_555 1_555
H1 O3 1_555 1_555
O4 H2 1_555 1_555
C1 C2 1_555 1_555
C2 O3 1_555 1_555
H3 C2 1_555 1_555
C3 O4 1_555 1_555
H4 C3 1_555 1_555
C4 C3 1_555 1_555
O5 Cd1 1_555 1_555
O6 C4 1_555 1_555
O7 Cd2 1_555 1_555
O8 C5 1_555 1_555
O9 Cd2 1_555 1_555
H5 O9 1_555 1_555
O10 Cd1 1_555 1_555
H6 O10 1_555 1_555
O11 Cd1 1_555 1_555
O12 C8 1_555 1_555
C5 O7 1_555 1_555
C6 O9 1_555 1_555
H7 C6 1_555 1_555
C7 O10 1_555 1_555
H8 C7 1_555 1_555
C8 O11 1_555 1_555
O13 Cd2 1_555 1_555
H9 O13 1_555 1_555
H10 O13 1_555 1_555
O14 H11 1_555 1_555
H12 O14 1_555 1_555
O15 H13 1_555 1_555
H14 O15 1_555 1_555
O16 H15 1_555 1_555
H16 O16 1_555 1_555
Cd1A O8 1_555 1_555
Cd1A_2 O2 1_555 1_555
Cd2A O6 1_555 1_555
O2A Cd1 1_555 1_555
O6A Cd2 1_555 1_555
O8A Cd1 1_555 1_555
C2 C3 1_555 1_555
C4 O5 1_555 1_555
C5 C6 1_555 1_555
C6 C7 1_555 1_555
C7 C8 1_555 1_555

#END
