
#######################################################################
#
#                 Cambridge Crystallographic Data Centre
#                                CCDC 
#
#######################################################################
#
# If this CIF has been generated from an entry in the Cambridge 
# Structural Database, then it will include bibliographic, chemical, 
# crystal, experimental, refinement or atomic coordinate data resulting 
# from the CCDC's data processing and validation procedures.
#
#######################################################################

data_REGMEX
_symmetry_cell_setting           triclinic
_symmetry_space_group_name_H-M   'P -1'
_symmetry_Int_Tables_number      2
_space_group_name_Hall           '-P 1'
loop_
_symmetry_equiv_pos_site_id
_symmetry_equiv_pos_as_xyz
1 x,y,z
2 -x,-y,-z
_cell_length_a                   3.8062(4)
_cell_length_b                   9.0241(9)
_cell_length_c                   11.0195(7)
_cell_angle_alpha                76.628(8)
_cell_angle_beta                 89.855(7)
_cell_angle_gamma                85.583(8)
_cell_volume                     367.092
loop_
_atom_site_label
_atom_site_type_symbol
_atom_site_fract_x
_atom_site_fract_y
_atom_site_fract_z
Cu1 Cu 0.32334(13) 0.94081(6) 0.63419(5)
N1 N 0.2776(6) 1.2552(2) 0.85846(19)
O1 O -0.0761(6) 1.2481(2) 1.1042(2)
C1 C 0.6034(7) 1.4420(3) 0.6685(3)
H1 H 0.7148 1.5075 0.6049
C2 C 0.1284(7) 1.1360(3) 0.9396(2)
C3 C 0.5573(7) 1.2965(3) 0.6580(3)
H2 H 0.6364 1.2621 0.5887
C4 C 0.3242(7) 1.4014(3) 0.8680(3)
H3 H 0.2469 1.4355 0.9377
C5 C 0.4850(8) 1.4949(3) 0.7739(3)
H4 H 0.5179 1.5944 0.7787
N2 N 0.3078(6) 1.0538(3) 0.7685(2)
C6 C 0.1533(6) 1.0160(3) 0.8817(2)
C7 C 0.3870(7) 1.2009(3) 0.7552(2)
C8 C -0.0329(7) 1.1375(3) 1.0596(2)
Cl1 Cl -0.15940(17) 0.82579(8) 0.57761(6)
Cu1A Cu -0.32334(13) 1.05919(6) 1.36581(5)
Cu1_2 Cu -0.67666(13) 0.94081(6) 0.63419(5)
Cu1A_2 Cu -0.32334(13) 1.05919(6) 0.36581(5)
Cu1_3 Cu 1.32334(13) 0.94081(6) 0.63419(5)
Cu1A_3 Cu 0.67666(13) 1.05919(6) 0.36581(5)
N1A N -0.2776(6) 0.7448(2) 1.14154(19)
O1A O 0.0761(6) 0.7519(2) 0.8958(2)
C1A C -0.6034(7) 0.5580(3) 1.3315(3)
H1A H -0.7148 0.4925 1.3951
C2A C -0.1284(7) 0.8640(3) 1.0604(2)
C3A C -0.5573(7) 0.7035(3) 1.3420(3)
H2A H -0.6364 0.7379 1.4113
C4A C -0.3242(7) 0.5986(3) 1.1320(3)
H3A H -0.2469 0.5645 1.0623
C5A C -0.4850(8) 0.5051(3) 1.2261(3)
H4A H -0.5179 0.4056 1.2213
N2A N -0.3078(6) 0.9462(3) 1.2315(2)
C6A C -0.1533(6) 0.9840(3) 1.1183(2)
C7A C -0.3870(7) 0.7991(3) 1.2448(2)
C8A C 0.0329(7) 0.8625(3) 0.9404(2)
Cl1_2 Cl 0.84060(17) 0.82579(8) 0.57761(6)
Cl1A Cl 0.15940(17) 1.17421(8) 0.42239(6)
Cl1A_2 Cl 0.15940(17) 1.17421(8) 1.42239(6)
Cl1A_3 Cl -0.84060(17) 1.17421(8) 1.42239(6)
Cl1_3 Cl -0.15940(17) 0.82579(8) 1.57761(6)
loop_
_geom_bond_atom_site_label_1
_geom_bond_atom_site_label_2
_geom_bond_site_symmetry_1
_geom_bond_site_symmetry_2
Cu1 N2 1_555 1_555
N1 C2 1_555 1_555
O1 C8 1_555 1_555
C1 H1 1_555 1_555
C2 C6 1_555 1_555
C3 C1 1_555 1_555
H2 C3 1_555 1_555
C4 N1 1_555 1_555
H3 C4 1_555 1_555
C5 C1 1_555 1_555
H4 C5 1_555 1_555
N2 C6 1_555 1_555
C6 C8A 1_555 1_555
C7 N1 1_555 1_555
C8 C2 1_555 1_555
Cl1 Cu1 1_555 1_555
Cu1A N2A 1_555 1_555
Cu1_2 Cl1 1_555 1_555
Cu1A_2 Cl1 1_555 1_555
Cu1_3 Cl1_2 1_555 1_555
Cu1A_3 Cl1_2 1_555 1_555
N1A C2A 1_555 1_555
O1A C8A 1_555 1_555
C1A H1A 1_555 1_555
C2A C6A 1_555 1_555
C3A C1A 1_555 1_555
H2A C3A 1_555 1_555
C4A N1A 1_555 1_555
H3A C4A 1_555 1_555
C5A C1A 1_555 1_555
H4A C5A 1_555 1_555
N2A C6A 1_555 1_555
C6A C8 1_555 1_555
C7A N1A 1_555 1_555
C8A C2A 1_555 1_555
Cl1_2 Cu1 1_555 1_555
Cl1A Cu1 1_555 1_555
Cl1A_2 Cu1A 1_555 1_555
Cl1A_3 Cu1A 1_555 1_555
Cl1_3 Cu1A 1_555 1_555
C3 C7 1_555 1_555
C4 C5 1_555 1_555
N2 C7 1_555 1_555
Cu1A_2 Cl1A 1_555 1_555
Cu1A_3 Cl1A 1_555 1_555
C3A C7A 1_555 1_555
C4A C5A 1_555 1_555
N2A C7A 1_555 1_555

#END
