
#######################################################################
#
#                 Cambridge Crystallographic Data Centre
#                                CCDC 
#
#######################################################################
#
# If this CIF has been generated from an entry in the Cambridge 
# Structural Database, then it will include bibliographic, chemical, 
# crystal, experimental, refinement or atomic coordinate data resulting 
# from the CCDC's data processing and validation procedures.
#
#######################################################################

data_REGMIB
_symmetry_cell_setting           monoclinic
_symmetry_space_group_name_H-M   'P 21'
_symmetry_Int_Tables_number      4
_space_group_name_Hall           'P 2yb'
loop_
_symmetry_equiv_pos_site_id
_symmetry_equiv_pos_as_xyz
1 x,y,z
2 -x,1/2+y,-z
_cell_length_a                   10.9016(15)
_cell_length_b                   22.154(3)
_cell_length_c                   13.0426(19)
_cell_angle_alpha                90
_cell_angle_beta                 103.073(6)
_cell_angle_gamma                90
_cell_volume                     3068.33
loop_
_atom_site_label
_atom_site_type_symbol
_atom_site_fract_x
_atom_site_fract_y
_atom_site_fract_z
Mn1 Mn 0.85920(11) 0.65077(5) 1.14997(9)
Mn2 Mn 0.85819(12) 0.80011(5) 0.29613(9)
Mn3 Mn 0.15000(13) 0.49276(5) 0.57820(10)
Mn4 Mn 0.15385(12) 0.95778(5) 0.98618(9)
O1 O 0.8697(6) 0.5635(2) 1.0386(5)
O2 O 0.8364(6) 0.5301(2) 0.8731(5)
O3 O 0.8595(5) 0.7547(2) 1.1350(4)
O4 O 0.8747(8) 0.8335(3) 1.0300(5)
O5 O 0.8605(5) 0.6942(3) 0.3118(4)
O6 O 0.8654(6) 0.6171(3) 0.4229(5)
O7 O 0.8736(6) 0.8890(2) 0.4128(5)
O8 O 0.8381(6) 0.9205(3) 0.5652(5)
O9 O 0.1190(7) 0.4847(3) 0.7441(6)
O10 O 0.1412(6) 0.5286(3) 0.9020(5)
H1 H 0.137(9) 0.494(5) 0.954(8)
O11 O 0.1684(6) 0.5699(2) 0.4604(5)
O12 O 0.1636(6) 0.6687(3) 0.4292(4)
O13 O 0.1820(6) 0.8833(3) 1.1096(5)
O14 O 0.1686(6) 0.7832(3) 1.1349(5)
O15 O 0.1092(6) 0.9675(2) 0.7994(5)
O16 O 0.1383(6) 0.9232(3) 0.6527(4)
H2 H 0.168(9) 0.956(5) 0.614(8)
O17 O 1.0594(6) 0.6431(3) 1.2118(5)
O18 O 0.7958(6) 0.5751(2) 1.2304(4)
H3 H 0.825(9) 0.535(4) 1.237(8)
O19 O 0.6485(6) 0.6566(4) 1.0891(6)
O20 O 0.8032(8) 0.8781(3) 0.1923(6)
O21 O -0.0499(6) 0.5011(3) 0.5042(5)
O22 O -0.0467(5) 0.9469(2) 0.9815(5)
O26 O 1.0634(7) 0.8003(6) 0.3094(6)
N1 N 0.8646(6) 0.6764(3) 0.9847(5)
N2 N 0.8718(6) 0.7734(3) 0.4659(5)
N3 N 0.1601(6) 0.5849(3) 0.6542(5)
N4 N 0.1578(7) 0.8677(3) 0.9051(6)
N5 N 0.4713(7) 0.7497(4) 0.2945(7)
N6 N 0.6519(7) 0.7914(3) 0.2817(6)
N7 N 0.5344(7) 0.5116(3) 0.5626(6)
N8 N 0.3588(7) 0.4910(3) 0.6131(6)
N9 N 0.4659(7) 0.4832(3) 0.0548(6)
N10 N 0.6421(7) 0.4662(3) 0.0048(6)
C1 C 0.8564(7) 0.5718(3) 0.9416(6)
C2 C 0.8673(7) 0.7810(4) 1.0504(6)
C3 C 0.8670(7) 0.6692(3) 0.3994(6)
C4 C 0.8588(8) 0.8801(3) 0.5048(7)
C5 C 0.1354(9) 0.5295(4) 0.8061(6)
C6 C 0.1688(8) 0.6249(3) 0.4859(6)
C7 C 0.1752(8) 0.8276(3) 1.0792(6)
C8 C 0.1307(8) 0.9236(4) 0.7466(7)
C9 C 0.8589(6) 0.6393(3) 0.9041(5)
C10 C 0.8541(6) 0.6529(4) 0.7962(6)
H8 H 0.8493 0.6229 0.7434
C11 C 0.8572(7) 0.7147(4) 0.7761(7)
C12 C 0.8622(7) 0.7566(4) 0.8572(6)
H9 H 0.8625 0.7987 0.8435
C13 C 0.8669(7) 0.7350(4) 0.9603(6)
C14 C 0.8709(7) 0.7147(3) 0.4904(6)
C15 C 0.8650(7) 0.6943(3) 0.5898(6)
H10 H 0.8660 0.6523 0.6041
C16 C 0.8574(7) 0.7360(4) 0.6689(6)
C17 C 0.8555(6) 0.7967(3) 0.6484(6)
H11 H 0.8512 0.8264 0.7000
C18 C 0.8605(6) 0.8117(3) 0.5417(5)
C19 C 0.1552(8) 0.5879(3) 0.7595(6)
C20 C 0.1659(7) 0.6435(4) 0.8123(6)
H12 H 0.1661 0.6449 0.8851
C21 C 0.1760(7) 0.6955(3) 0.7591(6)
C22 C 0.1809(7) 0.6920(3) 0.6498(6)
H13 H 0.1904 0.7275 0.6114
C23 C 0.1715(7) 0.6354(3) 0.6011(7)
C24 C 0.1732(8) 0.8174(3) 0.9615(6)
C25 C 0.1846(7) 0.7612(3) 0.9200(7)
H14 H 0.1971 0.7264 0.9638
C26 C 0.1775(8) 0.7564(4) 0.8124(6)
C27 C 0.1632(8) 0.8098(3) 0.7537(6)
H15 H 0.1622 0.8089 0.6807
C28 C 0.1505(8) 0.8642(4) 0.8031(7)
C29 C 0.4268(8) 0.6387(4) 0.2968(8)
C30 C 0.4982(9) 0.6151(5) 0.3897(8)
C31 C 0.5372(8) 0.5525(5) 0.3891(8)
C32 C 0.5018(9) 0.5167(5) 0.3001(8)
C33 C 0.4284(8) 0.5434(5) 0.2068(8)
C34 C 0.3997(8) 0.6057(4) 0.2049(7)
C35 C 0.3769(9) 0.7019(4) 0.2960(9)
H16 H 0.3068 0.7069 0.2334
H17 H 0.3420 0.7076 0.3592
C36 C 0.5883(9) 0.7402(4) 0.2774(9)
H18 H 0.6203 0.7018 0.2641
C37 C 0.5689(11) 0.8363(5) 0.3015(11)
H19 H 0.5850 0.8785 0.3053
C38 C 0.4608(11) 0.8088(6) 0.3145(13)
H20 H 0.3914 0.8279 0.3340
C39 C 0.5276(9) 0.6502(6) 0.4896(9)
H21 H 0.5326 0.6933 0.4735
H22 H 0.6084 0.6368 0.5330
H23 H 0.4610 0.6438 0.5279
C40 C 0.6157(9) 0.5246(5) 0.4905(8)
H24 H 0.6559 0.4869 0.4738
H25 H 0.6830 0.5530 0.5241
C41 C 0.4112(9) 0.4965(4) 0.5321(8)
H26 H 0.3679 0.4906 0.4610
C42 C 0.4539(11) 0.5020(5) 0.7004(8)
H27 H 0.4445 0.5003 0.7710
C43 C 0.5579(10) 0.5148(5) 0.6733(9)
H28 H 0.6359 0.5247 0.7195
C44 C 0.5310(11) 0.4498(5) 0.3021(11)
H29 H 0.4935 0.4320 0.2333
H30 H 0.4960 0.4301 0.3564
H31 H 0.6225 0.4439 0.3179
C45 C 0.3738(8) 0.5047(5) 0.1138(8)
H32 H 0.3332 0.4692 0.1384
H33 H 0.3073 0.5278 0.0654
C46 C 0.5831(10) 0.4969(5) 0.0683(9)
H34 H 0.6240 0.5258 0.1182
C47 C 0.5512(9) 0.4294(5) -0.0554(9)
H35 H 0.5617 0.4021 -0.1090
C48 C 0.4417(11) 0.4406(5) -0.0218(8)
H36 H 0.3627 0.4216 -0.0480
C49 C 0.3302(10) 0.6351(6) 0.1014(9)
H37 H 0.2400 0.6261 0.0893
H38 H 0.3633 0.6191 0.0430
H39 H 0.3428 0.6789 0.1059
Mn1_2 Mn 0.85920(11) 0.65077(5) 0.14997(9)
Mn2_2 Mn 0.85819(12) 0.80011(5) 1.29613(9)
Mn3A Mn 0.85000(13) 0.99276(5) 0.42180(10)
Mn4A Mn 0.84615(12) 0.45778(5) 0.01382(9)
Mn4A_2 Mn 0.84615(12) 0.45778(5) 1.01382(9)
O1A O 0.1303(6) 1.0635(2) 0.9614(5)
O2A O 0.1636(6) 1.0301(2) 1.1269(5)
O3_2 O 0.8595(5) 0.7547(2) 0.1350(4)
O5_2 O 0.8605(5) 0.6942(3) 1.3118(4)
O7A O 0.1264(6) 0.3890(2) 0.5872(5)
N10A N 0.3579(7) 0.9662(3) 0.9952(6)
O23 O 0.1330(7) 0.5290(3) 0.2561(6)
H4 H 0.147(10) 0.498(5) 0.189(9)
H5 H 0.128(9) 0.493(4) 0.325(6)
O24 O 0.2029(8) 0.4014(3) 0.2162(7)
O25 O 0.8365(10) 0.4196(5) 0.6872(8)
H6 H 0.842(13) 0.462(4) 0.630(9)
H7 H 0.841(13) 0.456(5) 0.756(8)
O27 O 0.5271(14) 0.6651(9) 0.8913(13)
N11 N 0.5119(14) 0.7543(7) 0.8026(13)
C50 C 0.5159(17) 0.6922(10) 0.8106(14)
H40 H 0.5093 0.6696 0.7477
C51 C 0.5301(17) 0.7942(10) 0.8911(13)
H41 H 0.5351 0.7706 0.9556
H42 H 0.4593 0.8224 0.8820
H43 H 0.6086 0.8168 0.8965
C52 C 0.500(2) 0.7834(15) 0.698(3)
H44 H 0.4685 0.7539 0.6424
H45 H 0.5827 0.7982 0.6916
H46 H 0.4412 0.8174 0.6914
O28 O 0.2299(13) 0.8255(8) 0.5187(10)
loop_
_geom_bond_atom_site_label_1
_geom_bond_atom_site_label_2
_geom_bond_site_symmetry_1
_geom_bond_site_symmetry_2
Mn1 O1 1_555 1_555
Mn2 O5 1_555 1_555
Mn3 O9 1_555 1_555
Mn4 O13 1_555 1_555
O1 C1 1_555 1_555
O2 C1 1_555 1_555
O3 Mn1 1_555 1_555
O4 C2 1_555 1_555
O5 C3 1_555 1_555
O6 C3 1_555 1_555
O7 Mn2 1_555 1_555
O8 C4 1_555 1_555
O9 C5 1_555 1_555
O10 H1 1_555 1_555
O11 Mn3 1_555 1_555
O12 C6 1_555 1_555
O13 C7 1_555 1_555
O14 C7 1_555 1_555
O15 Mn4 1_555 1_555
O16 H2 1_555 1_555
O17 Mn1 1_555 1_555
O18 Mn1 1_555 1_555
H3 O18 1_555 1_555
O19 Mn1 1_555 1_555
O20 Mn2 1_555 1_555
O21 Mn3 1_555 1_555
O22 Mn4 1_555 1_555
O23 H4 1_555 1_555
H5 O23 1_555 1_555
O25 H6 1_555 1_555
H7 O25 1_555 1_555
O26 Mn2 1_555 1_555
O27 C50 1_555 1_555
N1 Mn1 1_555 1_555
N2 Mn2 1_555 1_555
N3 Mn3 1_555 1_555
N4 Mn4 1_555 1_555
N5 C35 1_555 1_555
N6 Mn2 1_555 1_555
N7 C40 1_555 1_555
N8 Mn3 1_555 1_555
N9 C45 1_555 1_555
N10 C46 1_555 1_555
N11 C50 1_555 1_555
C1 C9 1_555 1_555
C2 O3 1_555 1_555
C3 C14 1_555 1_555
C4 O7 1_555 1_555
C5 O10 1_555 1_555
C6 O11 1_555 1_555
C7 C24 1_555 1_555
C8 O15 1_555 1_555
C9 N1 1_555 1_555
C10 C9 1_555 1_555
H8 C10 1_555 1_555
C11 C10 1_555 1_555
C12 C11 1_555 1_555
H9 C12 1_555 1_555
C13 N1 1_555 1_555
C14 N2 1_555 1_555
C15 C14 1_555 1_555
H10 C15 1_555 1_555
C16 C11 1_555 1_555
C17 C16 1_555 1_555
H11 C17 1_555 1_555
C18 N2 1_555 1_555
C19 N3 1_555 1_555
C20 C19 1_555 1_555
H12 C20 1_555 1_555
C21 C20 1_555 1_555
C22 C21 1_555 1_555
H13 C22 1_555 1_555
C23 N3 1_555 1_555
C24 N4 1_555 1_555
C25 C24 1_555 1_555
H14 C25 1_555 1_555
C26 C21 1_555 1_555
C27 C26 1_555 1_555
H15 C27 1_555 1_555
C28 N4 1_555 1_555
C29 C30 1_555 1_555
C30 C31 1_555 1_555
C31 C32 1_555 1_555
C32 C33 1_555 1_555
C33 C34 1_555 1_555
C34 C29 1_555 1_555
C35 C29 1_555 1_555
H16 C35 1_555 1_555
H17 C35 1_555 1_555
C36 N5 1_555 1_555
H18 C36 1_555 1_555
C37 N6 1_555 1_555
H19 C37 1_555 1_555
C38 N5 1_555 1_555
H20 C38 1_555 1_555
C39 C30 1_555 1_555
H21 C39 1_555 1_555
H22 C39 1_555 1_555
H23 C39 1_555 1_555
C40 C31 1_555 1_555
H24 C40 1_555 1_555
H25 C40 1_555 1_555
C41 N7 1_555 1_555
H26 C41 1_555 1_555
C42 N8 1_555 1_555
H27 C42 1_555 1_555
C43 N7 1_555 1_555
H28 C43 1_555 1_555
C44 C32 1_555 1_555
H29 C44 1_555 1_555
H30 C44 1_555 1_555
H31 C44 1_555 1_555
C45 C33 1_555 1_555
H32 C45 1_555 1_555
H33 C45 1_555 1_555
C46 N9 1_555 1_555
H34 C46 1_555 1_555
C47 N10 1_555 1_555
H35 C47 1_555 1_555
C48 N9 1_555 1_555
H36 C48 1_555 1_555
C49 C34 1_555 1_555
H37 C49 1_555 1_555
H38 C49 1_555 1_555
H39 C49 1_555 1_555
C50 H40 1_555 1_555
C51 N11 1_555 1_555
H41 C51 1_555 1_555
H42 C51 1_555 1_555
H43 C51 1_555 1_555
C52 N11 1_555 1_555
H44 C52 1_555 1_555
H45 C52 1_555 1_555
H46 C52 1_555 1_555
Mn1_2 O5 1_555 1_555
Mn2_2 O3 1_555 1_555
Mn3A O7 1_555 1_555
Mn4A N10 1_555 1_555
Mn4A_2 O1 1_555 1_555
O1A Mn4 1_555 1_555
O2A Mn4 1_555 1_555
O3_2 Mn2 1_555 1_555
O5_2 Mn1 1_555 1_555
O7A Mn3 1_555 1_555
N10A Mn4 1_555 1_555
O2 Mn4A_2 1_555 1_555
O16 C8 1_555 1_555
N6 C36 1_555 1_555
N8 C41 1_555 1_555
C2 C13 1_555 1_555
C4 C18 1_555 1_555
C5 C19 1_555 1_555
C6 C23 1_555 1_555
C8 C28 1_555 1_555
C12 C13 1_555 1_555
C15 C16 1_555 1_555
C17 C18 1_555 1_555
C22 C23 1_555 1_555
C25 C26 1_555 1_555
C27 C28 1_555 1_555
C37 C38 1_555 1_555
C42 C43 1_555 1_555
C47 C48 1_555 1_555
Mn1_2 O3_2 1_555 1_555
Mn2_2 O5_2 1_555 1_555

#END
