
#######################################################################
#
#                 Cambridge Crystallographic Data Centre
#                                CCDC 
#
#######################################################################
#
# If this CIF has been generated from an entry in the Cambridge 
# Structural Database, then it will include bibliographic, chemical, 
# crystal, experimental, refinement or atomic coordinate data resulting 
# from the CCDC's data processing and validation procedures.
#
#######################################################################

data_REGPUQ
_symmetry_cell_setting           monoclinic
_symmetry_space_group_name_H-M   'P 21/c'
_symmetry_Int_Tables_number      14
_space_group_name_Hall           '-P 2ybc'
loop_
_symmetry_equiv_pos_site_id
_symmetry_equiv_pos_as_xyz
1 x,y,z
2 -x,1/2+y,1/2-z
3 -x,-y,-z
4 x,1/2-y,1/2+z
_cell_length_a                   7.540(7)
_cell_length_b                   20.599(18)
_cell_length_c                   15.512(15)
_cell_angle_alpha                90
_cell_angle_beta                 96.219(19)
_cell_angle_gamma                90
_cell_volume                     2395.09
loop_
_atom_site_label
_atom_site_type_symbol
_atom_site_fract_x
_atom_site_fract_y
_atom_site_fract_z
Pr1 Pr 0.43112(4) 1.039766(14) 0.27633(2)
Mo1 Mo 0.40356(6) 0.84317(2) 0.33589(3)
Mo2 Mo -0.10146(6) 0.83704(2) 0.33420(3)
O1 O 0.4429(5) 0.79052(18) 0.2553(2)
O2 O 0.1734(5) 0.82627(18) 0.3464(3)
O3 O 0.3964(5) 0.92120(18) 0.2912(3)
O4 O -0.0819(5) 0.89948(19) 0.2609(3)
O5 O -0.1452(5) 0.76814(18) 0.2722(3)
O6 O 0.6829(5) 0.85420(17) 0.3709(3)
O7 O 0.5836(5) 1.11343(17) 0.5310(2)
O8 O 0.5135(6) 1.12620(18) 0.3876(3)
O9 O 0.3043(7) 1.45051(19) 0.4921(3)
O10 O 0.3874(5) 1.42282(19) 0.6289(3)
O11 O -0.0194(5) 0.89436(17) 0.4568(3)
O12 O 0.0400(5) 0.89642(19) 0.6014(3)
O13 O 0.2077(7) 0.5601(2) 0.5461(3)
O14 O 0.1081(6) 0.5751(2) 0.4078(3)
N1 N -0.0235(6) 0.7661(2) 0.4511(3)
N2 N 0.5191(5) 1.2365(2) 0.5627(3)
C1 C 0.4823(7) 1.2983(2) 0.5830(4)
H1 H 0.5072 1.3121 0.6401
C2 C 0.4081(7) 1.3423(2) 0.5210(4)
C3 C 0.3755(8) 1.3225(3) 0.4350(4)
H2 H 0.3285 1.3512 0.3923
C4 C 0.4152(8) 1.2582(3) 0.4141(4)
H3 H 0.3945 1.2434 0.3572
C5 C 0.4853(7) 1.2174(2) 0.4795(4)
C6 C 0.5309(7) 1.1464(3) 0.4637(4)
C7 C 0.3638(7) 1.4112(3) 0.5493(4)
C8 C 0.0050(7) 0.7028(3) 0.4402(4)
H4 H -0.0329 0.6841 0.3868
C9 C 0.0889(7) 0.6639(3) 0.5054(4)
C10 C 0.1325(8) 0.6897(3) 0.5870(4)
H5 H 0.1806 0.6639 0.6329
C11 C 0.1019(8) 0.7567(3) 0.5988(4)
H6 H 0.1302 0.7759 0.6528
C12 C 0.0295(7) 0.7932(3) 0.5292(4)
C13 C 0.0154(7) 0.8669(3) 0.5297(4)
C14 C 0.1339(8) 0.5940(3) 0.4824(4)
O15 O 0.2673(6) 1.0149(2) 0.4097(3)
O16 O 0.6841(6) 0.99690(19) 0.3821(3)
O17 O 0.1190(5) 1.0063(2) 0.2216(3)
O18 O 0.1935(5) 1.13410(19) 0.2687(3)
O19 O 0.6394(5) 0.97734(19) 0.1852(3)
O20 O 0.7069(5) 1.10980(19) 0.2476(3)
Pr1C Pr 0.43112(4) 1.460234(14) 0.77633(2)
Mo1B Mo 0.59644(6) 1.15683(2) 0.66411(3)
Mo2_2 Mo 0.89854(6) 0.83704(2) 0.33420(3)
O6_2 O -0.3171(5) 0.85420(17) 0.3709(3)
O7B O 0.4164(5) 0.88657(17) 0.4690(2)
O10C O 0.3874(5) 1.07718(19) 0.1289(3)
N2B N 0.4809(5) 0.7635(2) 0.4373(3)
loop_
_geom_bond_atom_site_label_1
_geom_bond_atom_site_label_2
_geom_bond_site_symmetry_1
_geom_bond_site_symmetry_2
Pr1 O3 1_555 1_555
Mo1 O1 1_555 1_555
Mo2 O2 1_555 1_555
O2 Mo1 1_555 1_555
O3 Mo1 1_555 1_555
O4 Mo2 1_555 1_555
O5 Mo2 1_555 1_555
O6 Mo1 1_555 1_555
O7 C6 1_555 1_555
O8 Pr1 1_555 1_555
O9 C7 1_555 1_555
O10 C7 1_555 1_555
O11 Mo2 1_555 1_555
O12 C13 1_555 1_555
O13 C14 1_555 1_555
O14 C14 1_555 1_555
N1 Mo2 1_555 1_555
N2 C1 1_555 1_555
C1 H1 1_555 1_555
C2 C1 1_555 1_555
C3 C2 1_555 1_555
H2 C3 1_555 1_555
C4 C3 1_555 1_555
H3 C4 1_555 1_555
C5 N2 1_555 1_555
C6 O8 1_555 1_555
C7 C2 1_555 1_555
C8 N1 1_555 1_555
H4 C8 1_555 1_555
C9 C8 1_555 1_555
C10 C9 1_555 1_555
H5 C10 1_555 1_555
C11 C10 1_555 1_555
H6 C11 1_555 1_555
C12 N1 1_555 1_555
C13 O11 1_555 1_555
C14 C9 1_555 1_555
O15 Pr1 1_555 1_555
O16 Pr1 1_555 1_555
O17 Pr1 1_555 1_555
O18 Pr1 1_555 1_555
O19 Pr1 1_555 1_555
O20 Pr1 1_555 1_555
Pr1C O10 1_555 1_555
Mo1B O7 1_555 1_555
Mo2_2 O6 1_555 1_555
O6_2 Mo2 1_555 1_555
O7B Mo1 1_555 1_555
O10C Pr1 1_555 1_555
N2B Mo1 1_555 1_555
N2 Mo1B 1_555 1_555
C4 C5 1_555 1_555
C5 C6 1_555 1_555
C11 C12 1_555 1_555
C12 C13 1_555 1_555

#END
