
#######################################################################
#
#                 Cambridge Crystallographic Data Centre
#                                CCDC 
#
#######################################################################
#
# If this CIF has been generated from an entry in the Cambridge 
# Structural Database, then it will include bibliographic, chemical, 
# crystal, experimental, refinement or atomic coordinate data resulting 
# from the CCDC's data processing and validation procedures.
#
#######################################################################

data_REGPIE
_symmetry_cell_setting           monoclinic
_symmetry_space_group_name_H-M   'P 21/c'
_symmetry_Int_Tables_number      14
_space_group_name_Hall           '-P 2ybc'
loop_
_symmetry_equiv_pos_site_id
_symmetry_equiv_pos_as_xyz
1 x,y,z
2 -x,1/2+y,1/2-z
3 -x,-y,-z
4 x,1/2-y,1/2+z
_cell_length_a                   7.5065(12)
_cell_length_b                   20.537(3)
_cell_length_c                   15.485(2)
_cell_angle_alpha                90
_cell_angle_beta                 96.114(3)
_cell_angle_gamma                90
_cell_volume                     2373.6
loop_
_atom_site_label
_atom_site_type_symbol
_atom_site_fract_x
_atom_site_fract_y
_atom_site_fract_z
La1 La 0.42936(3) 1.038975(10) 0.276286(13)
Mo1 Mo 0.40188(4) 0.841402(14) 0.336102(19)
Mo2 Mo -0.10276(4) 0.835536(15) 0.334862(19)
O1 O 0.4411(3) 0.78839(13) 0.25605(16)
O2 O 0.1718(3) 0.82455(14) 0.34687(17)
O3 O 0.3944(4) 0.91903(13) 0.29066(17)
O4 O -0.0814(4) 0.89803(14) 0.26182(18)
O5 O -0.1452(4) 0.76732(13) 0.27285(17)
O6 O 0.6809(3) 0.85247(13) 0.37080(17)
O7 O 0.5857(3) 1.11468(12) 0.53140(16)
O8 O 0.5114(4) 1.12615(14) 0.38921(17)
O9 O 0.3033(5) 1.45003(14) 0.48998(19)
O10 O 0.3886(4) 1.42356(13) 0.62638(16)
O11 O -0.0215(3) 0.89230(13) 0.45699(17)
O12 O 0.0382(4) 0.89481(14) 0.60041(18)
O13 O 0.2099(5) 0.56010(16) 0.54555(19)
O14 O 0.1077(5) 0.57487(15) 0.40768(19)
N1 N -0.0252(4) 0.76451(15) 0.45104(19)
N2 N 0.5206(4) 1.23779(14) 0.56239(18)
C1 C 0.4842(5) 1.29943(17) 0.5818(2)
H1 H 0.5091 1.3135 0.6389
C2 C 0.4106(5) 1.34319(17) 0.5200(2)
C3 C 0.3743(5) 1.32207(19) 0.4343(2)
H2 H 0.3249 1.3504 0.3914
C4 C 0.4131(5) 1.25826(18) 0.4141(2)
H3 H 0.3906 1.2431 0.3574
C5 C 0.4853(5) 1.21765(17) 0.4794(2)
C6 C 0.5296(5) 1.14707(18) 0.4646(2)
C7 C 0.3637(5) 1.41083(18) 0.5474(2)
C8 C 0.0041(5) 0.70137(18) 0.4401(2)
H4 H -0.0333 0.6826 0.3866
C9 C 0.0885(5) 0.66221(18) 0.5055(2)
C10 C 0.1345(6) 0.6894(2) 0.5865(3)
H5 H 0.1853 0.6639 0.6323
C11 C 0.1039(6) 0.7553(2) 0.5986(3)
H6 H 0.1337 0.7746 0.6525
C12 C 0.0282(5) 0.79152(18) 0.5290(2)
C13 C 0.0130(5) 0.86518(19) 0.5297(2)
C14 C 0.1344(5) 0.59419(19) 0.4822(2)
O15 O 0.2575(5) 1.01250(16) 0.4103(2)
O16 O 0.6846(4) 0.99548(15) 0.3843(2)
O17 O 0.1137(4) 1.00472(15) 0.2201(2)
O18 O 0.1902(4) 1.13448(14) 0.2678(2)
O19 O 0.6434(4) 0.97688(14) 0.18574(18)
O20 O 0.7102(4) 1.10997(15) 0.24830(18)
La1C La 0.42936(3) 1.461025(10) 0.776286(13)
Mo1B Mo 0.59812(4) 1.158598(14) 0.663898(19)
Mo2_2 Mo 0.89724(4) 0.835536(15) 0.334862(19)
O6_2 O -0.3191(3) 0.85247(13) 0.37080(17)
O7B O 0.4143(3) 0.88532(12) 0.46860(16)
O10C O 0.3886(4) 1.07644(13) 0.12638(16)
N2B N 0.4794(4) 0.76221(14) 0.43761(18)
loop_
_geom_bond_atom_site_label_1
_geom_bond_atom_site_label_2
_geom_bond_site_symmetry_1
_geom_bond_site_symmetry_2
La1 O3 1_555 1_555
Mo1 O1 1_555 1_555
Mo2 O2 1_555 1_555
O2 Mo1 1_555 1_555
O3 Mo1 1_555 1_555
O4 Mo2 1_555 1_555
O5 Mo2 1_555 1_555
O6 Mo1 1_555 1_555
O7 C6 1_555 1_555
O8 La1 1_555 1_555
O9 C7 1_555 1_555
O10 C7 1_555 1_555
O11 Mo2 1_555 1_555
O12 C13 1_555 1_555
O13 C14 1_555 1_555
O14 C14 1_555 1_555
N1 Mo2 1_555 1_555
N2 C1 1_555 1_555
C1 H1 1_555 1_555
C2 C1 1_555 1_555
C3 C2 1_555 1_555
H2 C3 1_555 1_555
C4 C3 1_555 1_555
H3 C4 1_555 1_555
C5 N2 1_555 1_555
C6 O8 1_555 1_555
C7 C2 1_555 1_555
C8 N1 1_555 1_555
H4 C8 1_555 1_555
C9 C8 1_555 1_555
C10 C9 1_555 1_555
H5 C10 1_555 1_555
C11 C10 1_555 1_555
H6 C11 1_555 1_555
C12 N1 1_555 1_555
C13 O11 1_555 1_555
C14 C9 1_555 1_555
O15 La1 1_555 1_555
O16 La1 1_555 1_555
O17 La1 1_555 1_555
O18 La1 1_555 1_555
O19 La1 1_555 1_555
O20 La1 1_555 1_555
La1C O10 1_555 1_555
Mo1B O7 1_555 1_555
Mo2_2 O6 1_555 1_555
O6_2 Mo2 1_555 1_555
O7B Mo1 1_555 1_555
O10C La1 1_555 1_555
N2B Mo1 1_555 1_555
N2 Mo1B 1_555 1_555
C4 C5 1_555 1_555
C5 C6 1_555 1_555
C11 C12 1_555 1_555
C12 C13 1_555 1_555

#END
