
#######################################################################
#
#                 Cambridge Crystallographic Data Centre
#                                CCDC 
#
#######################################################################
#
# If this CIF has been generated from an entry in the Cambridge 
# Structural Database, then it will include bibliographic, chemical, 
# crystal, experimental, refinement or atomic coordinate data resulting 
# from the CCDC's data processing and validation procedures.
#
#######################################################################

data_REGPOK
_symmetry_cell_setting           monoclinic
_symmetry_space_group_name_H-M   'P 21/c'
_symmetry_Int_Tables_number      14
_space_group_name_Hall           '-P 2ybc'
loop_
_symmetry_equiv_pos_site_id
_symmetry_equiv_pos_as_xyz
1 x,y,z
2 -x,1/2+y,1/2-z
3 -x,-y,-z
4 x,1/2-y,1/2+z
_cell_length_a                   7.495(3)
_cell_length_b                   20.471(7)
_cell_length_c                   15.448(5)
_cell_angle_alpha                90
_cell_angle_beta                 96.162(7)
_cell_angle_gamma                90
_cell_volume                     2356.49
loop_
_atom_site_label
_atom_site_type_symbol
_atom_site_fract_x
_atom_site_fract_y
_atom_site_fract_z
Ce1 Ce 0.43047(4) 1.039501(13) 0.27630(2)
Mo1 Mo 0.40314(6) 0.84248(2) 0.33600(3)
Mo2 Mo -0.10185(6) 0.83644(2) 0.33448(3)
O1 O 0.4416(5) 0.78964(18) 0.2555(2)
O2 O 0.1733(5) 0.82565(19) 0.3466(3)
O3 O 0.3956(5) 0.92036(17) 0.2912(3)
O4 O -0.0816(5) 0.8987(2) 0.2620(3)
O5 O -0.1446(5) 0.76784(18) 0.2723(3)
O6 O 0.6825(5) 0.85312(18) 0.3700(3)
O7 O 0.5841(5) 1.11423(16) 0.5310(2)
O8 O 0.5126(6) 1.12604(18) 0.3877(3)
O9 O 0.3029(8) 1.44994(19) 0.4913(3)
O10 O 0.3884(6) 1.42284(18) 0.6275(3)
O11 O -0.0202(5) 0.89346(17) 0.4569(3)
O12 O 0.0397(6) 0.89608(19) 0.6010(3)
O13 O 0.2095(8) 0.5605(2) 0.5461(3)
O14 O 0.1068(7) 0.5751(2) 0.4075(3)
N1 N -0.0245(6) 0.7654(2) 0.4509(3)
N2 N 0.5194(6) 1.23719(19) 0.5622(3)
C1 C 0.4835(7) 1.2985(2) 0.5826(4)
H1 H 0.5078 1.3122 0.6400
C2 C 0.4101(8) 1.3429(2) 0.5200(4)
C3 C 0.3761(8) 1.3221(2) 0.4348(4)
H2 H 0.3281 1.3507 0.3917
C4 C 0.4145(8) 1.2582(2) 0.4145(4)
H3 H 0.3924 1.2431 0.3576
C5 C 0.4862(7) 1.2174(2) 0.4804(4)
C6 C 0.5287(7) 1.1468(2) 0.4645(4)
C7 C 0.3646(7) 1.4110(2) 0.5490(4)
C8 C 0.0045(8) 0.7024(2) 0.4404(4)
H4 H -0.0328 0.6835 0.3867
C9 C 0.0888(8) 0.6626(2) 0.5064(4)
C10 C 0.1334(9) 0.6903(3) 0.5877(4)
H5 H 0.1830 0.6649 0.6341
C11 C 0.1032(8) 0.7556(3) 0.5987(4)
H6 H 0.1324 0.7751 0.6528
C12 C 0.0286(7) 0.7925(3) 0.5283(4)
C13 C 0.0153(7) 0.8661(3) 0.5296(4)
C14 C 0.1351(8) 0.5944(3) 0.4831(4)
O15 O 0.2626(7) 1.0139(2) 0.4096(3)
O16 O 0.6851(6) 0.99658(19) 0.3832(3)
O17 O 0.1168(6) 1.0056(2) 0.2204(3)
O18 O 0.1918(6) 1.13444(19) 0.2683(3)
O19 O 0.6416(6) 0.9771(2) 0.1851(3)
O20 O 0.7088(5) 1.10987(19) 0.2479(3)
Ce1C Ce 0.43047(4) 1.460499(13) 0.77630(2)
Mo1B Mo 0.59686(6) 1.15752(2) 0.66400(3)
Mo2_2 Mo 0.89815(6) 0.83644(2) 0.33448(3)
O6_2 O -0.3175(5) 0.85312(18) 0.3700(3)
O7B O 0.4159(5) 0.88577(16) 0.4690(2)
O10C O 0.3884(6) 1.07716(18) 0.1275(3)
N2B N 0.4806(6) 0.76281(19) 0.4378(3)
loop_
_geom_bond_atom_site_label_1
_geom_bond_atom_site_label_2
_geom_bond_site_symmetry_1
_geom_bond_site_symmetry_2
Ce1 O3 1_555 1_555
Mo1 O1 1_555 1_555
Mo2 O2 1_555 1_555
O2 Mo1 1_555 1_555
O3 Mo1 1_555 1_555
O4 Mo2 1_555 1_555
O5 Mo2 1_555 1_555
O6 Mo1 1_555 1_555
O7 C6 1_555 1_555
O8 Ce1 1_555 1_555
O9 C7 1_555 1_555
O10 C7 1_555 1_555
O11 Mo2 1_555 1_555
O12 C13 1_555 1_555
O13 C14 1_555 1_555
O14 C14 1_555 1_555
N1 Mo2 1_555 1_555
N2 C1 1_555 1_555
C1 H1 1_555 1_555
C2 C1 1_555 1_555
C3 C2 1_555 1_555
H2 C3 1_555 1_555
C4 C3 1_555 1_555
H3 C4 1_555 1_555
C5 N2 1_555 1_555
C6 O8 1_555 1_555
C7 C2 1_555 1_555
C8 N1 1_555 1_555
H4 C8 1_555 1_555
C9 C8 1_555 1_555
C10 C9 1_555 1_555
H5 C10 1_555 1_555
C11 C10 1_555 1_555
H6 C11 1_555 1_555
C12 N1 1_555 1_555
C13 O11 1_555 1_555
C14 C9 1_555 1_555
O15 Ce1 1_555 1_555
O16 Ce1 1_555 1_555
O17 Ce1 1_555 1_555
O18 Ce1 1_555 1_555
O19 Ce1 1_555 1_555
O20 Ce1 1_555 1_555
Ce1C O10 1_555 1_555
Mo1B O7 1_555 1_555
Mo2_2 O6 1_555 1_555
O6_2 Mo2 1_555 1_555
O7B Mo1 1_555 1_555
O10C Ce1 1_555 1_555
N2B Mo1 1_555 1_555
N2 Mo1B 1_555 1_555
C4 C5 1_555 1_555
C5 C6 1_555 1_555
C11 C12 1_555 1_555
C12 C13 1_555 1_555

#END
