
#######################################################################
#
#                 Cambridge Crystallographic Data Centre
#                                CCDC 
#
#######################################################################
#
# If this CIF has been generated from an entry in the Cambridge 
# Structural Database, then it will include bibliographic, chemical, 
# crystal, experimental, refinement or atomic coordinate data resulting 
# from the CCDC's data processing and validation procedures.
#
#######################################################################

data_REGQAW
_symmetry_cell_setting           monoclinic
_symmetry_space_group_name_H-M   'P 21/c'
_symmetry_Int_Tables_number      14
_space_group_name_Hall           '-P 2ybc'
loop_
_symmetry_equiv_pos_site_id
_symmetry_equiv_pos_as_xyz
1 x,y,z
2 -x,1/2+y,1/2-z
3 -x,-y,-z
4 x,1/2-y,1/2+z
_cell_length_a                   21.906(7)
_cell_length_b                   10.205(3)
_cell_length_c                   17.507(5)
_cell_angle_alpha                90
_cell_angle_beta                 99.810(10)
_cell_angle_gamma                90
_cell_volume                     3856.48
loop_
_atom_site_label
_atom_site_type_symbol
_atom_site_fract_x
_atom_site_fract_y
_atom_site_fract_z
F1 F 0.28820(16) 0.6780(3) 0.36231(15)
F2 F 0.28947(15) 0.6030(3) 0.24552(17)
F3 F 0.21154(15) 1.3011(3) -0.12213(15)
F4 F 0.21239(14) 1.3780(3) -0.00714(17)
F5 F 0.41550(18) 1.7911(4) 0.0270(3)
F6 F 0.35470(18) 1.8748(3) 0.0999(2)
F7 F 0.1423(2) 1.1066(4) 0.1400(2)
F8 F 0.08710(19) 1.1884(5) 0.2190(3)
O1 O 0.29197(13) 1.0899(3) 0.21002(16)
O2 O 0.24288(14) 0.8409(3) 0.18473(17)
O3 O 0.20656(14) 0.8903(3) 0.02932(16)
O4 O 0.25671(14) 1.1375(3) 0.05394(17)
O5 O 0.32682(14) 1.3889(3) 0.12547(18)
O6 O 0.28633(14) 1.6371(3) 0.07366(17)
O7 O 0.17091(13) 1.5894(3) 0.11198(18)
O8 O 0.21213(15) 1.3427(3) 0.16380(18)
C1 C 0.31346(19) 1.0459(4) 0.2769(2)
C2 C 0.3012(2) 0.9223(5) 0.2994(3)
H1 H 0.3165 0.9002 0.3506
C3 C 0.2696(2) 0.8301(4) 0.2561(3)
C4 C 0.2622(2) 0.6912(5) 0.2850(3)
H2 H 0.2179 0.6708 0.2788
C5 C 0.3527(2) 1.1388(5) 0.3331(3)
C6 C 0.3455(2) 1.2702(6) 0.3240(3)
H3 H 0.3166 1.3020 0.2831
C7 C 0.3802(3) 1.3590(5) 0.3743(4)
H4 H 0.3729 1.4486 0.3696
C8 C 0.4253(3) 1.3104(6) 0.4305(3)
H5 H 0.4512 1.3674 0.4625
C9 C 0.4321(2) 1.1854(6) 0.4395(3)
H6 H 0.4622 1.1527 0.4788
C10 C 0.3949(2) 1.0999(5) 0.3913(3)
H7 H 0.3999 1.0104 0.4003
C11 C 0.18435(19) 0.9335(4) -0.0368(3)
C12 C 0.1956(2) 1.0603(4) -0.0602(2)
H8 H 0.1792 1.0848 -0.1106
C13 C 0.2286(2) 1.1486(4) -0.0145(2)
C14 C 0.2384(2) 1.2853(6) -0.0459(3)
H9 H 0.2830 1.3024 -0.0405
C15 C 0.1461(2) 0.8403(5) -0.0925(2)
C16 C 0.1008(2) 0.8791(5) -0.1479(3)
H10 H 0.0927 0.9684 -0.1530
C17 C 0.0660(2) 0.7983(7) -0.1967(3)
H11 H 0.0341 0.8319 -0.2333
C18 C 0.0763(3) 0.6739(7) -0.1938(3)
H12 H 0.0515 0.6183 -0.2280
C19 C 0.1235(3) 0.6232(5) -0.1407(3)
H13 H 0.1328 0.5343 -0.1401
C20 C 0.1569(2) 0.7080(6) -0.0882(3)
H14 H 0.1871 0.6749 -0.0492
C21 C 0.3798(2) 1.4324(4) 0.1228(2)
C22 C 0.3894(2) 1.5616(5) 0.0964(3)
H15 H 0.4299 1.5865 0.0941
C23 C 0.3445(2) 1.6499(4) 0.0747(3)
C24 C 0.3608(3) 1.7842(6) 0.0460(4)
H16 H 0.3304 1.8046 -0.0004
C25 C 0.4338(2) 1.3430(5) 0.1464(2)
C26 C 0.4263(2) 1.2105(6) 0.1373(3)
H17 H 0.3876 1.1764 0.1169
C27 C 0.4762(3) 1.1266(5) 0.1584(3)
H18 H 0.4719 1.0371 0.1490
C28 C 0.5315(3) 1.1769(6) 0.1930(4)
H19 H 0.5647 1.1216 0.2101
C29 C 0.5375(2) 1.3036(6) 0.2020(3)
H20 H 0.5755 1.3384 0.2249
C30 C 0.4892(2) 1.3846(5) 0.1783(3)
H21 H 0.4954 1.4743 0.1849
C31 C 0.1181(2) 1.5462(5) 0.1212(2)
C32 C 0.1107(2) 1.4219(5) 0.1506(3)
H22 H 0.0713 1.3988 0.1587
C33 C 0.1559(2) 1.3320(5) 0.1685(3)
C34 C 0.1407(3) 1.1936(6) 0.1964(4)
H23 H 0.1727 1.1697 0.2404
C35 C 0.0632(2) 1.6346(5) 0.1001(3)
C36 C 0.0048(2) 1.5943(6) 0.0823(3)
H24 H -0.0040 1.5059 0.0875
C37 C -0.0421(3) 1.6767(6) 0.0570(3)
H25 H -0.0815 1.6421 0.0412
C38 C -0.0347(3) 1.8039(6) 0.0536(3)
H26 H -0.0683 1.8582 0.0365
C39 C 0.0227(3) 1.8549(6) 0.0754(4)
H27 H 0.0288 1.9451 0.0757
C40 C 0.0727(2) 1.7692(6) 0.0975(3)
H28 H 0.1126 1.8028 0.1106
Li1 Li 0.2825(3) 1.2413(6) 0.1451(4)
Li2 Li 0.2172(3) 0.7393(6) 0.0932(4)
Li3 Li 0.2505(4) 0.9924(7) 0.1196(4)
Li4 Li 0.2489(3) 1.4920(7) 0.1187(5)
O6_2 O 0.28633(14) 0.6371(3) 0.07366(17)
O7_2 O 0.17091(13) 0.5894(3) 0.11198(18)
Li2_2 Li 0.2172(3) 1.7393(6) 0.0932(4)
loop_
_geom_bond_atom_site_label_1
_geom_bond_atom_site_label_2
_geom_bond_site_symmetry_1
_geom_bond_site_symmetry_2
F1 C4 1_555 1_555
F2 C4 1_555 1_555
F3 C14 1_555 1_555
F4 C14 1_555 1_555
F5 C24 1_555 1_555
F6 C24 1_555 1_555
F7 C34 1_555 1_555
F8 C34 1_555 1_555
O1 C1 1_555 1_555
O2 C3 1_555 1_555
O3 C11 1_555 1_555
O4 C13 1_555 1_555
O5 C21 1_555 1_555
O6 C23 1_555 1_555
O7 C31 1_555 1_555
O8 C33 1_555 1_555
C1 C2 1_555 1_555
C2 H1 1_555 1_555
C3 C2 1_555 1_555
C4 C3 1_555 1_555
H2 C4 1_555 1_555
C5 C1 1_555 1_555
C6 C5 1_555 1_555
H3 C6 1_555 1_555
C7 C6 1_555 1_555
H4 C7 1_555 1_555
C8 C7 1_555 1_555
H5 C8 1_555 1_555
C9 C8 1_555 1_555
H6 C9 1_555 1_555
C10 C5 1_555 1_555
H7 C10 1_555 1_555
C11 C12 1_555 1_555
C12 H8 1_555 1_555
C13 C12 1_555 1_555
C14 C13 1_555 1_555
H9 C14 1_555 1_555
C15 C11 1_555 1_555
C16 C15 1_555 1_555
H10 C16 1_555 1_555
C17 C16 1_555 1_555
H11 C17 1_555 1_555
C18 C17 1_555 1_555
H12 C18 1_555 1_555
C19 C18 1_555 1_555
H13 C19 1_555 1_555
C20 C15 1_555 1_555
H14 C20 1_555 1_555
C21 C22 1_555 1_555
C22 H15 1_555 1_555
C23 C22 1_555 1_555
C24 C23 1_555 1_555
H16 C24 1_555 1_555
C25 C21 1_555 1_555
C26 C25 1_555 1_555
H17 C26 1_555 1_555
C27 C26 1_555 1_555
H18 C27 1_555 1_555
C28 C27 1_555 1_555
H19 C28 1_555 1_555
C29 C28 1_555 1_555
H20 C29 1_555 1_555
C30 C25 1_555 1_555
H21 C30 1_555 1_555
C31 C32 1_555 1_555
C32 H22 1_555 1_555
C33 C32 1_555 1_555
C34 C33 1_555 1_555
H23 C34 1_555 1_555
C35 C31 1_555 1_555
C36 C35 1_555 1_555
H24 C36 1_555 1_555
C37 C36 1_555 1_555
H25 C37 1_555 1_555
C38 C37 1_555 1_555
H26 C38 1_555 1_555
C39 C38 1_555 1_555
H27 C39 1_555 1_555
C40 C35 1_555 1_555
H28 C40 1_555 1_555
Li1 O1 1_555 1_555
Li2 O2 1_555 1_555
Li3 O1 1_555 1_555
Li4 O5 1_555 1_555
O6_2 Li2 1_555 1_555
O7_2 Li2 1_555 1_555
Li2_2 O6 1_555 1_555
O2 Li3 1_555 1_555
O3 Li2 1_555 1_555
O3 Li3 1_555 1_555
O4 Li1 1_555 1_555
O4 Li3 1_555 1_555
O5 Li1 1_555 1_555
O6 Li4 1_555 1_555
O7 Li4 1_555 1_555
O7 Li2_2 1_555 1_555
O8 Li1 1_555 1_555
O8 Li4 1_555 1_555
C9 C10 1_555 1_555
C19 C20 1_555 1_555
C29 C30 1_555 1_555
C39 C40 1_555 1_555

#END
