
#######################################################################
#
#                 Cambridge Crystallographic Data Centre
#                                CCDC 
#
#######################################################################
#
# If this CIF has been generated from an entry in the Cambridge 
# Structural Database, then it will include bibliographic, chemical, 
# crystal, experimental, refinement or atomic coordinate data resulting 
# from the CCDC's data processing and validation procedures.
#
#######################################################################

data_REGQAV
_symmetry_cell_setting           monoclinic
_symmetry_space_group_name_H-M   'P 21/n'
_symmetry_Int_Tables_number      14
_space_group_name_Hall           '-P 2yn'
loop_
_symmetry_equiv_pos_site_id
_symmetry_equiv_pos_as_xyz
1 x,y,z
2 1/2-x,1/2+y,1/2-z
3 -x,-y,-z
4 1/2+x,1/2-y,1/2+z
_cell_length_a                   10.6090(10)
_cell_length_b                   9.9940(10)
_cell_length_c                   17.689(2)
_cell_angle_alpha                90
_cell_angle_beta                 90.930(10)
_cell_angle_gamma                90
_cell_volume                     1875.25
loop_
_atom_site_label
_atom_site_type_symbol
_atom_site_fract_x
_atom_site_fract_y
_atom_site_fract_z
Sn1 Sn 0.74984(4) 0.01401(4) 0.01861(3)
P1 P 0.49282(17) -0.09925(18) 0.11747(10)
P2 P 1.02142(17) -0.11899(19) 0.11360(10)
O1 O 0.6305(4) -0.0785(4) 0.1032(2)
O2 O 0.9088(4) -0.0408(5) 0.0881(3)
O3 O 0.5925(4) 0.0813(4) -0.0495(2)
O4 O 0.8668(5) 0.1111(5) -0.0636(3)
C1 C 0.6454(3) -0.2434(4) -0.0545(2)
C2 C 0.6482(4) -0.3639(4) -0.0936(3)
C3 C 0.7619(5) -0.4135(3) -0.1197(2)
C4 C 0.8728(3) -0.3425(4) -0.1067(3)
C5 C 0.8700(3) -0.2219(4) -0.0676(2)
C6 C 0.7562(4) -0.1724(3) -0.0415(2)
H1 H 0.5664 -0.2090 -0.0364
H2 H 0.5712 -0.4132 -0.1027
H3 H 0.7639 -0.4971 -0.1469
H4 H 0.9518 -0.3769 -0.1248
H5 H 0.9470 -0.1727 -0.0585
C7 C 0.7330(4) 0.3197(4) 0.04166(17)
C8 C 0.7309(5) 0.4395(3) 0.0815(3)
C9 C 0.7411(5) 0.4387(4) 0.1600(3)
C10 C 0.7535(4) 0.3181(5) 0.19854(17)
C11 C 0.7556(4) 0.1983(4) 0.1587(2)
C12 C 0.7453(5) 0.1991(3) 0.0802(2)
H6 H 0.7259 0.3202 -0.0128
H7 H 0.7224 0.5232 0.0548
H8 H 0.7397 0.5218 0.1876
H9 H 0.7606 0.3175 0.2530
H10 H 0.7641 0.1146 0.1854
C13 C 0.4467(6) 0.0113(9) 0.1924(4)
H11 H 0.3597 -0.0035 0.2038
H12 H 0.4978 -0.0059 0.2366
H13 H 0.4581 0.1024 0.1767
C14 C 0.4698(8) -0.2662(8) 0.1516(4)
H14 H 0.5100 -0.2757 0.2004
H15 H 0.3812 -0.2836 0.1559
H16 H 0.5058 -0.3288 0.1170
C15 C 0.9799(8) -0.2929(8) 0.1233(5)
H17 H 0.9723 -0.3329 0.0741
H18 H 1.0444 -0.3382 0.1521
H19 H 0.9011 -0.3001 0.1488
C16 C 1.0661(7) -0.0613(10) 0.2051(4)
H20 H 1.0856 0.0325 0.2029
H21 H 0.9980 -0.0753 0.2393
H22 H 1.1390 -0.1097 0.2227
O3B O 0.4075(4) -0.0813(4) 0.0495(2)
Sn1B Sn 0.25016(4) -0.01401(4) -0.01861(3)
O4B O 1.1332(5) -0.1111(5) 0.0636(3)
Sn1B_2 Sn 1.25016(4) -0.01401(4) -0.01861(3)
loop_
_geom_bond_atom_site_label_1
_geom_bond_atom_site_label_2
_geom_bond_site_symmetry_1
_geom_bond_site_symmetry_2
Sn1 O1 1_555 1_555
P1 O1 1_555 1_555
P2 O2 1_555 1_555
O2 Sn1 1_555 1_555
O3 Sn1 1_555 1_555
O4 Sn1 1_555 1_555
C1 C2 1_555 1_555
C2 C3 1_555 1_555
C3 C4 1_555 1_555
C4 C5 1_555 1_555
C5 C6 1_555 1_555
C6 Sn1 1_555 1_555
H1 C1 1_555 1_555
H2 C2 1_555 1_555
H3 C3 1_555 1_555
H4 C4 1_555 1_555
H5 C5 1_555 1_555
C7 C8 1_555 1_555
C8 C9 1_555 1_555
C9 C10 1_555 1_555
C10 C11 1_555 1_555
C11 C12 1_555 1_555
C12 Sn1 1_555 1_555
H6 C7 1_555 1_555
H7 C8 1_555 1_555
H8 C9 1_555 1_555
H9 C10 1_555 1_555
H10 C11 1_555 1_555
C13 P1 1_555 1_555
H11 C13 1_555 1_555
H12 C13 1_555 1_555
H13 C13 1_555 1_555
C14 P1 1_555 1_555
H14 C14 1_555 1_555
H15 C14 1_555 1_555
H16 C14 1_555 1_555
C15 P2 1_555 1_555
H17 C15 1_555 1_555
H18 C15 1_555 1_555
H19 C15 1_555 1_555
C16 P2 1_555 1_555
H20 C16 1_555 1_555
H21 C16 1_555 1_555
H22 C16 1_555 1_555
O3B P1 1_555 1_555
Sn1B O3B 1_555 1_555
O4B P2 1_555 1_555
Sn1B_2 O4B 1_555 1_555
C1 C6 1_555 1_555
C7 C12 1_555 1_555

#END
