
#######################################################################
#
#                 Cambridge Crystallographic Data Centre
#                                CCDC 
#
#######################################################################
#
# If this CIF has been generated from an entry in the Cambridge 
# Structural Database, then it will include bibliographic, chemical, 
# crystal, experimental, refinement or atomic coordinate data resulting 
# from the CCDC's data processing and validation procedures.
#
#######################################################################

data_REGQEB
_symmetry_cell_setting           monoclinic
_symmetry_space_group_name_H-M   'P 21/c'
_symmetry_Int_Tables_number      14
_space_group_name_Hall           '-P 2ybc'
loop_
_symmetry_equiv_pos_site_id
_symmetry_equiv_pos_as_xyz
1 x,y,z
2 -x,1/2+y,1/2-z
3 -x,-y,-z
4 x,1/2-y,1/2+z
_cell_length_a                   7.5163(7)
_cell_length_b                   20.764(2)
_cell_length_c                   15.2434(14)
_cell_angle_alpha                90
_cell_angle_beta                 96.337(2)
_cell_angle_gamma                90
_cell_volume                     2364.48
loop_
_atom_site_label
_atom_site_type_symbol
_atom_site_fract_x
_atom_site_fract_y
_atom_site_fract_z
Eu1 Eu 0.42698(3) 1.035980(11) 0.273950(15)
Mo1 Mo 0.42951(5) 0.845879(19) 0.34567(3)
Mo2 Mo -0.07092(5) 0.84399(2) 0.34430(3)
O1 O 0.4355(6) 0.79329(18) 0.2609(2)
O2 O 0.2042(5) 0.8393(2) 0.3693(3)
O3 O 0.4310(5) 0.92254(17) 0.2999(2)
O4 O -0.0496(5) 0.91496(18) 0.2854(3)
O5 O -0.0826(6) 0.7838(2) 0.2686(2)
O6 O 0.7051(5) 0.84912(19) 0.3710(3)
O7 O 0.5285(5) 1.11261(16) 0.5171(2)
O8 O 0.4241(5) 1.12619(17) 0.3760(2)
O9 O 0.2762(6) 1.44575(18) 0.4847(3)
O10 O 0.4218(5) 1.42938(16) 0.6172(2)
O11 O -0.0205(5) 0.89100(17) 0.4767(2)
O12 O 0.0297(5) 0.88200(19) 0.6221(2)
O13 O 0.2308(6) 0.55886(18) 0.5264(2)
O14 O 0.1333(5) 0.58103(17) 0.3876(2)
N1 N -0.0013(5) 0.76610(18) 0.4518(3)
N2 N 0.4909(5) 1.23626(18) 0.5542(3)
C1 C 0.4672(6) 1.2973(2) 0.5752(3)
H1 H 0.5001 1.3104 0.6330
C2 C 0.3951(6) 1.3425(2) 0.5141(3)
C3 C 0.3476(7) 1.3233(2) 0.4278(3)
H2 H 0.3001 1.3528 0.3857
C4 C 0.3718(7) 1.2594(2) 0.4050(3)
H3 H 0.3414 1.2454 0.3473
C5 C 0.4411(6) 1.2174(2) 0.4691(3)
C6 C 0.4649(6) 1.1466(2) 0.4521(3)
C7 C 0.3656(7) 1.4109(2) 0.5435(3)
C8 C 0.0317(6) 0.7047(2) 0.4336(3)
H4 H -0.0026 0.6896 0.3768
C9 C 0.1140(6) 0.6628(2) 0.4948(3)
C10 C 0.1607(7) 0.6844(3) 0.5799(3)
H5 H 0.2144 0.6567 0.6230
C11 C 0.1256(7) 0.7489(2) 0.6004(3)
H6 H 0.1547 0.7646 0.6573
C12 C 0.0479(6) 0.7877(2) 0.5349(3)
C13 C 0.0174(7) 0.8592(2) 0.5460(4)
C14 C 0.1589(6) 0.5959(2) 0.4663(3)
O15 O 0.2069(5) 1.01130(18) 0.3813(2)
O16 O 0.6453(5) 1.01145(18) 0.4036(2)
O17 O 0.1703(5) 0.98369(17) 0.1890(2)
O18 O 0.1794(5) 1.11421(17) 0.2336(2)
O19 O 0.6660(5) 0.98322(19) 0.2030(3)
O20 O 0.6705(5) 1.11603(19) 0.2556(2)
Eu1C Eu 0.42698(3) 1.464020(11) 0.773950(15)
Mo1B Mo 0.57049(5) 1.154121(19) 0.65433(3)
Mo2_2 Mo 0.92908(5) 0.84399(2) 0.34430(3)
O6_2 O -0.2949(5) 0.84912(19) 0.3710(3)
O7B O 0.4715(5) 0.88739(16) 0.4829(2)
O10C O 0.4218(5) 1.07062(16) 0.1172(2)
N2B N 0.5091(5) 0.76374(18) 0.4458(3)
O21 O 0.0743(9) 0.9655(3) 0.7276(5)
loop_
_geom_bond_atom_site_label_1
_geom_bond_atom_site_label_2
_geom_bond_site_symmetry_1
_geom_bond_site_symmetry_2
Eu1 O3 1_555 1_555
Mo1 O1 1_555 1_555
Mo2 O2 1_555 1_555
O2 Mo1 1_555 1_555
O3 Mo1 1_555 1_555
O4 Mo2 1_555 1_555
O5 Mo2 1_555 1_555
O6 Mo1 1_555 1_555
O7 C6 1_555 1_555
O8 Eu1 1_555 1_555
O9 C7 1_555 1_555
O10 C7 1_555 1_555
O11 Mo2 1_555 1_555
O12 C13 1_555 1_555
O13 C14 1_555 1_555
O14 C14 1_555 1_555
N1 Mo2 1_555 1_555
N2 C1 1_555 1_555
C1 H1 1_555 1_555
C2 C1 1_555 1_555
C3 C2 1_555 1_555
H2 C3 1_555 1_555
C4 C3 1_555 1_555
H3 C4 1_555 1_555
C5 N2 1_555 1_555
C6 O8 1_555 1_555
C7 C2 1_555 1_555
C8 N1 1_555 1_555
H4 C8 1_555 1_555
C9 C8 1_555 1_555
C10 C9 1_555 1_555
H5 C10 1_555 1_555
C11 C10 1_555 1_555
H6 C11 1_555 1_555
C12 N1 1_555 1_555
C13 O11 1_555 1_555
C14 C9 1_555 1_555
O15 Eu1 1_555 1_555
O16 Eu1 1_555 1_555
O17 Eu1 1_555 1_555
O18 Eu1 1_555 1_555
O19 Eu1 1_555 1_555
O20 Eu1 1_555 1_555
Eu1C O10 1_555 1_555
Mo1B O7 1_555 1_555
Mo2_2 O6 1_555 1_555
O6_2 Mo2 1_555 1_555
O7B Mo1 1_555 1_555
O10C Eu1 1_555 1_555
N2B Mo1 1_555 1_555
N2 Mo1B 1_555 1_555
C4 C5 1_555 1_555
C5 C6 1_555 1_555
C11 C12 1_555 1_555
C12 C13 1_555 1_555

#END
