
#######################################################################
#
#                 Cambridge Crystallographic Data Centre
#                                CCDC 
#
#######################################################################
#
# If this CIF has been generated from an entry in the Cambridge 
# Structural Database, then it will include bibliographic, chemical, 
# crystal, experimental, refinement or atomic coordinate data resulting 
# from the CCDC's data processing and validation procedures.
#
#######################################################################

data_REGROM
_symmetry_cell_setting           monoclinic
_symmetry_space_group_name_H-M   'C 2/c'
_symmetry_Int_Tables_number      15
_space_group_name_Hall           '-C 2yn'
loop_
_symmetry_equiv_pos_site_id
_symmetry_equiv_pos_as_xyz
1 x,y,z
2 -x,y,1/2-z
3 1/2+x,1/2+y,z
4 1/2-x,1/2+y,1/2-z
5 -x,-y,-z
6 x,-y,1/2+z
7 1/2-x,1/2-y,-z
8 1/2+x,1/2-y,1/2+z
_cell_length_a                   22.461(4)
_cell_length_b                   8.7532(18)
_cell_length_c                   15.471(3)
_cell_angle_alpha                90
_cell_angle_beta                 102.78(3)
_cell_angle_gamma                90
_cell_volume                     2966.33
loop_
_atom_site_label
_atom_site_type_symbol
_atom_site_fract_x
_atom_site_fract_y
_atom_site_fract_z
Co1 Co 0.5000 0.70534(10) 0.2500
S1 S 0.85029(5) 0.54534(12) 1.08636(7)
Dy1 Dy 0.747566(9) 0.64039(2) 0.883256(12)
O1 O 0.69063(16) 0.3482(3) 0.6376(2)
O2 O 0.70432(14) 0.3862(3) 0.5030(2)
O3 O 0.71370(14) 0.6837(4) 0.7234(2)
O4 O 0.64859(16) 0.5593(4) 0.7816(2)
O5 O 0.83468(13) 0.5789(4) 0.99053(19)
O6 O 0.83088(17) 0.3923(4) 1.1030(3)
O7 O 0.82017(17) 0.6549(4) 1.1345(2)
O8 O 0.91642(13) 0.5587(4) 1.1179(2)
O9 O 0.81835(15) 0.5287(4) 0.8017(2)
H1 H 0.8084 0.5360 0.7456
H2 H 0.8350 0.4413 0.8151
O10 O 0.74216(19) 0.3681(4) 0.8982(3)
H3 H 0.7520 0.3018 0.8641
H4 H 0.7196 0.3298 0.9294
O11 O 0.5000 0.4601(6) 0.2500
H5 H 0.4691 0.4069 0.2504
O12 O 0.40433(14) 0.7177(4) 0.2253(2)
H6 H 0.3831 0.6364 0.2196
H7 H 0.3913 0.7751 0.1808
O13 O 0.5000 0.9445(5) 0.2500
H8 H 0.5218 0.9909 0.2933
N1 N 0.50073(16) 0.7040(4) 0.3865(2)
N2 N 0.47887(18) 0.8152(5) 0.5048(3)
H9 H 0.4603 0.8707 0.5365
C1 C 0.4624(2) 0.7923(6) 0.4178(3)
H10 H 0.4274 0.8343 0.3823
C2 C 0.5451(2) 0.6626(5) 0.4603(3)
C3 C 0.59452(19) 0.5639(5) 0.4698(3)
H11 H 0.6028 0.5137 0.4208
C4 C 0.63073(19) 0.5418(5) 0.5521(3)
C5 C 0.6194(2) 0.6231(5) 0.6268(3)
C6 C 0.57006(19) 0.7187(5) 0.6185(3)
H12 H 0.5622 0.7720 0.6668
C7 C 0.53265(19) 0.7322(5) 0.5349(3)
C8 C 0.6629(2) 0.6182(5) 0.7153(3)
C9 C 0.67870(19) 0.4204(5) 0.5645(3)
S1A S 0.14971(5) 0.54534(12) -0.58636(7)
Dy1A Dy 0.252434(9) 0.64039(2) -0.383256(12)
Dy1B Dy 0.247566(9) 0.14039(2) -0.116744(12)
Dy1C Dy 0.752434(9) 0.14039(2) 0.616744(12)
Dy1D Dy 0.252434(9) 0.35961(2) 0.116744(12)
Dy1E Dy 0.747566(9) 0.35961(2) 0.383256(12)
Dy1F Dy 0.752434(9) 0.85961(2) 1.116744(12)
Dy1G Dy 0.247566(9) 0.85961(2) -0.616744(12)
O1A O 0.30937(16) 0.3482(3) -0.1376(2)
O1B O 0.19063(16) 0.8482(3) -0.3624(2)
O1C O 0.80937(16) 0.8482(3) 0.8624(2)
O2A O 0.29568(14) 0.3862(3) -0.0030(2)
O2B O 0.20432(14) 0.8862(3) -0.4970(2)
O2C O 0.79568(14) 0.8862(3) 0.9970(2)
O2D O 0.29568(14) 0.6138(3) -0.5030(2)
O2E O 0.70432(14) 0.6138(3) 1.0030(2)
O3A O 0.28630(14) 0.6837(4) -0.2234(2)
O4A O 0.35141(16) 0.5593(4) -0.2816(2)
O5A O 0.16532(13) 0.5789(4) -0.49053(19)
O6A O 0.16912(17) 0.3923(4) -0.6030(3)
O7A O 0.17983(17) 0.6549(4) -0.6345(2)
O7F O 0.67983(17) 0.8451(4) 0.8655(2)
O7G O 0.32017(17) 0.8451(4) -0.3655(2)
O8A O 0.08358(13) 0.5587(4) -0.6179(2)
O9A O 0.18165(15) 0.5287(4) -0.3017(2)
H1A H 0.1916 0.5360 -0.2456
H2A H 0.1650 0.4413 -0.3151
O10A O 0.25784(19) 0.3681(4) -0.3982(3)
H3A H 0.2480 0.3018 -0.3641
H4A H 0.2804 0.3298 -0.4294
H5A H 0.5309 0.4069 0.2496
O12A O 0.59567(14) 0.7177(4) 0.2747(2)
H6A H 0.6169 0.6364 0.2804
H7A H 0.6087 0.7751 0.3192
H8A H 0.4782 0.9909 0.2067
N1A N 0.49927(16) 0.7040(4) 0.1135(2)
N2A N 0.52113(18) 0.8152(5) -0.0048(3)
H9A H 0.5397 0.8707 -0.0365
C1A C 0.5376(2) 0.7923(6) 0.0822(3)
H10A H 0.5726 0.8343 0.1177
C2A C 0.4549(2) 0.6626(5) 0.0397(3)
C3A C 0.40548(19) 0.5639(5) 0.0302(3)
H11A H 0.3972 0.5137 0.0792
C4A C 0.36927(19) 0.5418(5) -0.0521(3)
C5A C 0.3806(2) 0.6231(5) -0.1268(3)
C6A C 0.42994(19) 0.7187(5) -0.1185(3)
H12A H 0.4378 0.7720 -0.1668
C7A C 0.46735(19) 0.7322(5) -0.0349(3)
C8A C 0.3371(2) 0.6182(5) -0.2153(3)
C9A C 0.32130(19) 0.4204(5) -0.0645(3)
loop_
_geom_bond_atom_site_label_1
_geom_bond_atom_site_label_2
_geom_bond_site_symmetry_1
_geom_bond_site_symmetry_2
Co1 O11 1_555 1_555
S1 O5 1_555 1_555
Dy1 O3 1_555 1_555
O1 C9 1_555 1_555
O2 C9 1_555 1_555
O3 C8 1_555 1_555
O4 Dy1 1_555 1_555
O5 Dy1 1_555 1_555
O6 S1 1_555 1_555
O7 S1 1_555 1_555
O8 S1 1_555 1_555
O9 Dy1 1_555 1_555
H1 O9 1_555 1_555
H2 O9 1_555 1_555
O10 Dy1 1_555 1_555
H3 O10 1_555 1_555
H4 O10 1_555 1_555
O11 H5 1_555 1_555
O12 Co1 1_555 1_555
H6 O12 1_555 1_555
H7 O12 1_555 1_555
O13 Co1 1_555 1_555
H8 O13 1_555 1_555
N1 Co1 1_555 1_555
N2 H9 1_555 1_555
C1 N1 1_555 1_555
H10 C1 1_555 1_555
C2 N1 1_555 1_555
C3 C2 1_555 1_555
H11 C3 1_555 1_555
C4 C3 1_555 1_555
C5 C4 1_555 1_555
C6 C5 1_555 1_555
H12 C6 1_555 1_555
C7 N2 1_555 1_555
C8 O4 1_555 1_555
C9 C4 1_555 1_555
S1A O5A 1_555 1_555
Dy1A O1B 1_555 1_555
Dy1B O1A 1_555 1_555
Dy1C O1 1_555 1_555
Dy1D O2A 1_555 1_555
Dy1E O2 1_555 1_555
Dy1F O7 1_555 1_555
Dy1G O2B 1_555 1_555
O1A C9A 1_555 1_555
O1C Dy1 1_555 1_555
O2A Dy1B 1_555 1_555
O2B Dy1A 1_555 1_555
O2C Dy1 1_555 1_555
O2D Dy1A 1_555 1_555
O2E Dy1 1_555 1_555
O3A Dy1A 1_555 1_555
O4A Dy1A 1_555 1_555
O5A Dy1A 1_555 1_555
O6A S1A 1_555 1_555
O7A S1A 1_555 1_555
O7F Dy1 1_555 1_555
O7G Dy1A 1_555 1_555
O8A S1A 1_555 1_555
O9A Dy1A 1_555 1_555
H1A O9A 1_555 1_555
H2A O9A 1_555 1_555
O10A Dy1A 1_555 1_555
H3A O10A 1_555 1_555
H4A O10A 1_555 1_555
H5A O11 1_555 1_555
O12A Co1 1_555 1_555
H6A O12A 1_555 1_555
H7A O12A 1_555 1_555
H8A O13 1_555 1_555
N1A Co1 1_555 1_555
N2A H9A 1_555 1_555
C1A N1A 1_555 1_555
H10A C1A 1_555 1_555
C2A N1A 1_555 1_555
C3A C2A 1_555 1_555
H11A C3A 1_555 1_555
C4A C3A 1_555 1_555
C5A C4A 1_555 1_555
C6A C5A 1_555 1_555
H12A C6A 1_555 1_555
C7A N2A 1_555 1_555
C8A O3A 1_555 1_555
C9A O2A 1_555 1_555
O2 Dy1C 1_555 1_555
N2 C1 1_555 1_555
C2 C7 1_555 1_555
C5 C8 1_555 1_555
C6 C7 1_555 1_555
Dy1F O2C 1_555 1_555
Dy1F O2E 1_555 1_555
Dy1G O2D 1_555 1_555
Dy1G O7A 1_555 1_555
O4A C8A 1_555 1_555
N2A C1A 1_555 1_555
C2A C7A 1_555 1_555
C4A C9A 1_555 1_555
C5A C8A 1_555 1_555
C6A C7A 1_555 1_555

#END
