
#######################################################################
#
#                 Cambridge Crystallographic Data Centre
#                                CCDC 
#
#######################################################################
#
# If this CIF has been generated from an entry in the Cambridge 
# Structural Database, then it will include bibliographic, chemical, 
# crystal, experimental, refinement or atomic coordinate data resulting 
# from the CCDC's data processing and validation procedures.
#
#######################################################################

data_REGRIG
_symmetry_cell_setting           monoclinic
_symmetry_space_group_name_H-M   'C 2/c'
_symmetry_Int_Tables_number      15
_space_group_name_Hall           '-C 2yn'
loop_
_symmetry_equiv_pos_site_id
_symmetry_equiv_pos_as_xyz
1 x,y,z
2 -x,y,1/2-z
3 1/2+x,1/2+y,z
4 1/2-x,1/2+y,1/2-z
5 -x,-y,-z
6 x,-y,1/2+z
7 1/2-x,1/2-y,-z
8 1/2+x,1/2-y,1/2+z
_cell_length_a                   31.171(12)
_cell_length_b                   12.186(4)
_cell_length_c                   27.629(11)
_cell_angle_alpha                90
_cell_angle_beta                 108.264(4)
_cell_angle_gamma                90
_cell_volume                     9966.17
loop_
_atom_site_label
_atom_site_type_symbol
_atom_site_fract_x
_atom_site_fract_y
_atom_site_fract_z
Zn1 Zn -0.260514(18) -0.10200(4) -0.121129(19)
Zn2 Zn -0.179591(19) 0.08830(5) -0.12460(2)
Zn3 Zn -0.025290(19) 0.25956(5) 0.17961(2)
O1 O -0.21829(14) -0.0685(4) -0.05266(14)
O2 O -0.16574(15) 0.0583(3) -0.05090(13)
O3 O -0.06604(14) 0.1811(4) 0.11915(15)
O4 O -0.05584(19) 0.0746(5) 0.18693(17)
O5 O -0.1595(2) -0.2475(5) 0.17182(18)
O6 O -0.20477(15) -0.2963(3) 0.09542(15)
O7 O -0.29179(13) 0.0300(3) -0.15675(14)
O8 O -0.23604(12) 0.0898(3) -0.18508(14)
O9 O -0.26967(13) 0.3306(4) -0.33384(14)
O10 O -0.33460(14) 0.4294(3) -0.35697(15)
O11 O -0.46117(12) 0.2836(3) -0.29943(16)
O12 O -0.44276(13) 0.1887(3) -0.22591(16)
O13 O -0.1969(2) 0.2478(3) -0.11179(19)
O14 O -0.12326(15) 0.1398(4) -0.1361(2)
O15 O -0.0148(2) 0.4043(4) 0.1528(3)
C1 C -0.16214(16) -0.0334(4) 0.02597(17)
C2 C -0.12846(17) 0.0344(4) 0.05460(18)
H1 H -0.1186 0.0923 0.0389
C3 C -0.10863(17) 0.0172(4) 0.10750(18)
C4 C -0.12258(18) -0.0752(4) 0.12982(18)
H2 H -0.1088 -0.0903 0.1642
C5 C -0.15679(17) -0.1439(4) 0.10085(18)
C6 C -0.17670(18) -0.1219(4) 0.04818(18)
H3 H -0.1996 -0.1670 0.0285
C7 C -0.18345(18) -0.0133(4) -0.03048(17)
C8 C -0.07495(18) 0.0940(5) 0.1390(2)
C9 C -0.1743(2) -0.2371(5) 0.1262(2)
C10 C -0.30950(15) 0.1561(4) -0.22540(17)
C11 C -0.29465(17) 0.2178(4) -0.26089(18)
H4 H -0.2648 0.2130 -0.2608
C12 C -0.32508(16) 0.2849(4) -0.29557(19)
C13 C -0.36998(16) 0.2919(4) -0.29661(19)
H5 H -0.3901 0.3376 -0.3200
C14 C -0.38460(16) 0.2296(4) -0.26210(18)
C15 C -0.35449(15) 0.1645(4) -0.22637(17)
H6 H -0.3642 0.1258 -0.2027
C16 C -0.27655(17) 0.0868(4) -0.18628(18)
C17 C -0.30875(16) 0.3532(4) -0.33164(17)
C18 C -0.43302(17) 0.2365(4) -0.2619(2)
C19 C -0.2247(2) 0.3181(5) -0.1348(3)
C20 C -0.2814(5) 0.2890(10) -0.0906(6)
C21 C -0.2896(4) 0.4279(8) -0.1633(4)
C22 C -0.2562(4) 0.4637(6) -0.1895(4)
C23 C -0.1819(4) 0.3847(9) -0.1921(5)
C24 C -0.0160(3) 0.5048(7) 0.1605(4)
C25 C -0.1005(5) 0.5189(15) 0.1295(6)
C26 C -0.0475(7) 0.6700(11) 0.1609(7)
C27 C 0.0093(7) 0.6771(12) 0.1709(8)
C28 C 0.0646(5) 0.5242(18) 0.1836(13)
N1 N -0.2636(3) 0.3492(7) -0.1258(3)
N2 N -0.2199(3) 0.3838(6) -0.1742(3)
N3 N -0.0538(4) 0.5631(7) 0.1561(4)
N4 N 0.0183(4) 0.5695(8) 0.1774(6)
Zn1F Zn -0.239486(18) -0.39800(4) 0.121129(19)
Zn1C Zn -0.239486(18) 0.39800(4) -0.378871(19)
Zn2C Zn -0.320409(19) 0.58830(5) -0.37540(2)
Zn3G Zn -0.525290(19) 0.24044(5) -0.32039(2)
Zn3F Zn -0.474710(19) 0.24044(5) -0.17961(2)
O6F O -0.29523(15) -0.2037(3) -0.09542(15)
O9C O -0.23033(13) -0.1694(4) -0.16616(14)
O10C O -0.16540(14) -0.0706(3) -0.14303(15)
O11G O 0.03883(12) 0.2164(3) 0.20057(16)
O12F O -0.05724(13) 0.3113(3) 0.22591(16)
loop_
_geom_bond_atom_site_label_1
_geom_bond_atom_site_label_2
_geom_bond_site_symmetry_1
_geom_bond_site_symmetry_2
Zn1 O1 1_555 1_555
Zn2 O2 1_555 1_555
Zn3 O3 1_555 1_555
O1 C7 1_555 1_555
O2 C7 1_555 1_555
O3 C8 1_555 1_555
O4 Zn3 1_555 1_555
O5 C9 1_555 1_555
O6 C9 1_555 1_555
O7 Zn1 1_555 1_555
O8 Zn2 1_555 1_555
O9 C17 1_555 1_555
O10 C17 1_555 1_555
O11 C18 1_555 1_555
O12 C18 1_555 1_555
O13 Zn2 1_555 1_555
O14 Zn2 1_555 1_555
O15 Zn3 1_555 1_555
C1 C2 1_555 1_555
C2 H1 1_555 1_555
C3 C2 1_555 1_555
C4 C3 1_555 1_555
H2 C4 1_555 1_555
C5 C4 1_555 1_555
C6 C1 1_555 1_555
H3 C6 1_555 1_555
C7 C1 1_555 1_555
C8 O4 1_555 1_555
C9 C5 1_555 1_555
C10 C11 1_555 1_555
C11 H4 1_555 1_555
C12 C11 1_555 1_555
C13 C12 1_555 1_555
H5 C13 1_555 1_555
C14 C13 1_555 1_555
C15 C10 1_555 1_555
H6 C15 1_555 1_555
C16 O7 1_555 1_555
C17 C12 1_555 1_555
C18 C14 1_555 1_555
C19 O13 1_555 1_555
C20 N1 1_555 1_555
C21 C22 1_555 1_555
C22 N2 1_555 1_555
C23 N2 1_555 1_555
C24 O15 1_555 1_555
C25 N3 1_555 1_555
C26 C27 1_555 1_555
C27 N4 1_555 1_555
C28 N4 1_555 1_555
N1 C19 1_555 1_555
N2 C19 1_555 1_555
N3 C24 1_555 1_555
N4 C24 1_555 1_555
Zn1F O6 1_555 1_555
Zn1C O9 1_555 1_555
Zn2C O10 1_555 1_555
Zn3G O11 1_555 1_555
Zn3F O12 1_555 1_555
O6F Zn1 1_555 1_555
O9C Zn1 1_555 1_555
O10C Zn2 1_555 1_555
O11G Zn3 1_555 1_555
O12F Zn3 1_555 1_555
O8 C16 1_555 1_555
C3 C8 1_555 1_555
C5 C6 1_555 1_555
C10 C16 1_555 1_555
C14 C15 1_555 1_555
C21 N1 1_555 1_555
C26 N3 1_555 1_555

#END
