
#######################################################################
#
#                 Cambridge Crystallographic Data Centre
#                                CCDC 
#
#######################################################################
#
# If this CIF has been generated from an entry in the Cambridge 
# Structural Database, then it will include bibliographic, chemical, 
# crystal, experimental, refinement or atomic coordinate data resulting 
# from the CCDC's data processing and validation procedures.
#
#######################################################################

data_REGRAY
_symmetry_cell_setting           monoclinic
_symmetry_space_group_name_H-M   'P 21/c'
_symmetry_Int_Tables_number      14
_space_group_name_Hall           '-P 2ybc'
loop_
_symmetry_equiv_pos_site_id
_symmetry_equiv_pos_as_xyz
1 x,y,z
2 -x,1/2+y,1/2-z
3 -x,-y,-z
4 x,1/2-y,1/2+z
_cell_length_a                   18.060(12)
_cell_length_b                   12.104(8)
_cell_length_c                   31.65(2)
_cell_angle_alpha                90
_cell_angle_beta                 90.480(15)
_cell_angle_gamma                90
_cell_volume                     6918.39
loop_
_atom_site_label
_atom_site_type_symbol
_atom_site_fract_x
_atom_site_fract_y
_atom_site_fract_z
Zn1 Zn 0.04406(6) 0.59888(11) 0.51347(4)
Zn2 Zn 0.54498(5) 0.40093(8) 0.48757(3)
Zn3 Zn 0.33414(6) 0.00203(8) 0.30995(3)
Zn4 Zn 0.24535(6) 0.59182(8) 0.73129(3)
Zn5 Zn -0.14537(7) -0.03162(12) 0.69460(4)
O1 O -0.0914(6) 0.0813(11) 0.6570(4)
O2 O -0.0598(6) 0.1156(9) 0.7221(4)
O3 O 0.1532(8) 0.3874(8) 0.7486(4)
O4 O 0.1662(5) 0.5140(8) 0.6988(3)
O5 O 0.0458(6) 0.4895(9) 0.5636(3)
O6 O -0.0194(5) 0.3442(8) 0.5447(3)
O7 O 0.6007(6) 0.1748(8) 0.7284(2)
O8 O 0.6009(4) 0.1079(5) 0.6634(2)
O9 O 0.5162(4) 0.3727(6) 0.54985(19)
O10 O 0.4476(4) 0.5217(6) 0.5697(2)
O11 O 0.3322(4) 0.5195(6) 0.70679(19)
O12 O 0.3796(4) 0.4203(5) 0.76085(17)
O13 O 0.1125(4) 0.4826(7) 0.4845(3)
O14 O 0.0484(4) 0.3308(8) 0.4619(3)
O15 O 0.1946(4) 0.1167(7) 0.3528(3)
O16 O 0.3170(4) 0.1143(6) 0.3546(2)
O17 O 0.4455(3) 0.3437(6) 0.4682(2)
O18 O 0.3796(4) 0.4910(6) 0.4894(2)
O19 O 0.1187(4) 0.7105(6) 0.5313(2)
O20 O 0.6045(4) 0.2622(5) 0.47885(19)
O21 O 0.2405(4) 0.7441(6) 0.7122(2)
O22 O 0.2388(4) -0.0644(5) 0.29155(18)
C1 C -0.0076(7) 0.2254(11) 0.6703(4)
C2 C 0.0413(7) 0.2798(10) 0.6989(4)
H1 H 0.0434 0.2570 0.7276
C3 C 0.0873(7) 0.3681(10) 0.6849(4)
C4 C 0.0818(8) 0.4041(11) 0.6432(4)
H2 H 0.1126 0.4621 0.6334
C5 C 0.0283(6) 0.3516(11) 0.6147(4)
C6 C -0.0160(6) 0.2629(11) 0.6277(4)
H3 H -0.0504 0.2289 0.6088
C7 C -0.0541(7) 0.1341(14) 0.6844(5)
C8 C 0.1362(7) 0.4245(10) 0.7125(4)
C9 C 0.0199(7) 0.3965(11) 0.5707(4)
C10 C 0.5287(7) 0.2683(9) 0.6761(3)
C11 C 0.5281(6) 0.3033(8) 0.6350(3)
H4 H 0.5600 0.2696 0.6151
C12 C 0.4795(6) 0.3908(8) 0.6219(3)
C13 C 0.4327(5) 0.4349(8) 0.6501(2)
H5 H 0.4001 0.4922 0.6412
C14 C 0.4303(5) 0.3989(7) 0.6929(3)
C15 C 0.4797(6) 0.3177(9) 0.7063(3)
H6 H 0.4810 0.2952 0.7350
C16 C 0.5807(5) 0.1755(9) 0.6907(3)
C17 C 0.4818(6) 0.4339(9) 0.5769(3)
C18 C 0.3779(5) 0.4517(7) 0.7225(3)
C19 C 0.1820(6) 0.3447(11) 0.4511(3)
C20 C 0.1846(6) 0.2579(10) 0.4185(3)
H7 H 0.1409 0.2218 0.4090
C21 C 0.2505(5) 0.2320(8) 0.4029(3)
C22 C 0.3214(5) 0.2676(7) 0.4214(3)
H8 H 0.3676 0.2386 0.4126
C23 C 0.3154(5) 0.3492(8) 0.4537(3)
C24 C 0.2467(5) 0.3873(9) 0.4668(3)
H9 H 0.2446 0.4446 0.4873
C25 C 0.1102(7) 0.3867(11) 0.4662(4)
C26 C 0.2543(5) 0.1461(8) 0.3675(3)
C27 C 0.3830(5) 0.3975(8) 0.4719(3)
C28 C 0.1746(5) 0.6977(9) 0.5550(3)
C29 C 0.2177(7) 0.5963(10) 0.5626(4)
H10 H 0.2470 0.5770 0.5374
H11 H 0.1844 0.5338 0.5693
C30 C 0.2691(7) 0.6222(13) 0.6004(4)
H12 H 0.3184 0.5883 0.5963
H13 H 0.2478 0.5934 0.6269
C31 C 0.2754(8) 0.7512(13) 0.6020(4)
H14 H 0.2712 0.7797 0.6312
H15 H 0.3221 0.7778 0.5894
C32 C 0.5735(10) 0.0346(11) 0.5466(4)
H16 H 0.5860 0.0359 0.5771
H17 H 0.5278 -0.0097 0.5428
C33 C 0.6308(13) -0.0140(13) 0.5245(6)
H18 H 0.6156 -0.0872 0.5134
H19 H 0.6748 -0.0238 0.5430
C34 C 0.6484(9) 0.0685(10) 0.4869(4)
H20 H 0.7019 0.0858 0.4858
H21 H 0.6324 0.0372 0.4594
C35 C 0.6036(6) 0.1699(8) 0.4979(3)
C36 C 0.1386(8) 1.0005(12) 0.7123(6)
H22 H 0.1069 1.0146 0.6872
H23 H 0.1554 1.0719 0.7243
C37 C 0.1005(9) 0.9351(13) 0.7432(6)
H24 H 0.1097 0.9649 0.7719
H25 H 0.0465 0.9361 0.7376
C38 C 0.1310(7) 0.8147(11) 0.7399(4)
H26 H 0.0954 0.7668 0.7245
H27 H 0.1399 0.7831 0.7683
C39 C 0.1958(6) 0.8232(9) 0.7182(3)
N1 N 0.2082(6) 0.7818(9) 0.5751(3)
H28 H 0.1924 0.8503 0.5728
N2 N 0.5604(6) 0.1470(8) 0.5318(3)
H29 H 0.5289 0.1936 0.5432
N3 N 0.2050(8) 0.9252(10) 0.7013(5)
H30 H 0.2433 0.9456 0.6862
Zn1B Zn -0.04406(6) 0.40112(11) 0.48653(4)
Zn2B Zn 0.45502(5) 0.59907(8) 0.51243(3)
Zn3B Zn 0.66586(6) -0.00203(8) 0.69005(3)
Zn3C Zn 0.33414(6) 0.49797(8) 0.80995(3)
Zn4C Zn 0.24535(6) -0.09182(8) 0.23129(3)
Zn5A Zn 0.14537(7) 0.46838(12) 0.80540(4)
Zn5B Zn 0.14537(7) 0.03162(12) 0.30540(4)
O3A O -0.1532(8) -0.1126(8) 0.7514(4)
O6B O 0.0194(5) 0.6558(8) 0.4553(3)
O8B O 0.3991(4) -0.1079(5) 0.3366(2)
O10B O 0.5524(4) 0.4783(6) 0.4303(2)
O12C O 0.3796(4) 0.0797(5) 0.26085(17)
O14B O -0.0484(4) 0.6692(8) 0.5381(3)
O15B O -0.1946(4) -0.1167(7) 0.6472(3)
O18B O 0.6204(4) 0.5090(6) 0.5106(2)
O22C O 0.2388(4) 0.5644(5) 0.79155(18)
O22B O -0.2388(4) 0.0644(5) 0.70845(18)
loop_
_geom_bond_atom_site_label_1
_geom_bond_atom_site_label_2
_geom_bond_site_symmetry_1
_geom_bond_site_symmetry_2
Zn1 O5 1_555 1_555
Zn2 O9 1_555 1_555
Zn3 O16 1_555 1_555
Zn4 O4 1_555 1_555
Zn5 O1 1_555 1_555
O1 C7 1_555 1_555
O2 C7 1_555 1_555
O3 C8 1_555 1_555
O4 C8 1_555 1_555
O5 C9 1_555 1_555
O6 C9 1_555 1_555
O7 C16 1_555 1_555
O8 C16 1_555 1_555
O9 C17 1_555 1_555
O10 C17 1_555 1_555
O11 Zn4 1_555 1_555
O12 C18 1_555 1_555
O13 Zn1 1_555 1_555
O14 C25 1_555 1_555
O15 C26 1_555 1_555
O16 C26 1_555 1_555
O17 Zn2 1_555 1_555
O18 C27 1_555 1_555
O19 Zn1 1_555 1_555
O20 Zn2 1_555 1_555
O21 Zn4 1_555 1_555
O22 Zn3 1_555 1_555
C1 C2 1_555 1_555
C2 H1 1_555 1_555
C3 C2 1_555 1_555
C4 C3 1_555 1_555
H2 C4 1_555 1_555
C5 C4 1_555 1_555
C6 C1 1_555 1_555
H3 C6 1_555 1_555
C7 C1 1_555 1_555
C8 C3 1_555 1_555
C9 C5 1_555 1_555
C10 C11 1_555 1_555
C11 H4 1_555 1_555
C12 C11 1_555 1_555
C13 C12 1_555 1_555
H5 C13 1_555 1_555
C14 C13 1_555 1_555
C15 C10 1_555 1_555
H6 C15 1_555 1_555
C16 C10 1_555 1_555
C17 C12 1_555 1_555
C18 O11 1_555 1_555
C19 C20 1_555 1_555
C20 H7 1_555 1_555
C21 C20 1_555 1_555
C22 C21 1_555 1_555
H8 C22 1_555 1_555
C23 C22 1_555 1_555
C24 C19 1_555 1_555
H9 C24 1_555 1_555
C25 O13 1_555 1_555
C26 C21 1_555 1_555
C27 O17 1_555 1_555
C28 O19 1_555 1_555
C29 C28 1_555 1_555
H10 C29 1_555 1_555
H11 C29 1_555 1_555
C30 C29 1_555 1_555
H12 C30 1_555 1_555
H13 C30 1_555 1_555
C31 C30 1_555 1_555
H14 C31 1_555 1_555
H15 C31 1_555 1_555
C32 H16 1_555 1_555
H17 C32 1_555 1_555
C33 C32 1_555 1_555
H18 C33 1_555 1_555
H19 C33 1_555 1_555
C34 C33 1_555 1_555
H20 C34 1_555 1_555
H21 C34 1_555 1_555
C35 O20 1_555 1_555
C36 H22 1_555 1_555
H23 C36 1_555 1_555
C37 C36 1_555 1_555
H24 C37 1_555 1_555
H25 C37 1_555 1_555
C38 C37 1_555 1_555
H26 C38 1_555 1_555
H27 C38 1_555 1_555
C39 O21 1_555 1_555
N1 C28 1_555 1_555
H28 N1 1_555 1_555
N2 C32 1_555 1_555
H29 N2 1_555 1_555
N3 C36 1_555 1_555
H30 N3 1_555 1_555
Zn1B O6 1_555 1_555
Zn2B O10 1_555 1_555
Zn3B O8 1_555 1_555
Zn3C O12 1_555 1_555
Zn4C O22 1_555 1_555
Zn5A O3 1_555 1_555
Zn5B O15 1_555 1_555
O3A Zn5 1_555 1_555
O6B Zn1 1_555 1_555
O8B Zn3 1_555 1_555
O10B Zn2 1_555 1_555
O12C Zn3 1_555 1_555
O14B Zn1 1_555 1_555
O15B Zn5 1_555 1_555
O18B Zn2 1_555 1_555
O22C Zn4 1_555 1_555
O22B Zn5 1_555 1_555
O14 Zn1B 1_555 1_555
O18 Zn2B 1_555 1_555
O22 Zn5B 1_555 1_555
C5 C6 1_555 1_555
C14 C15 1_555 1_555
C14 C18 1_555 1_555
C19 C25 1_555 1_555
C23 C24 1_555 1_555
C23 C27 1_555 1_555
C31 N1 1_555 1_555
C34 C35 1_555 1_555
C35 N2 1_555 1_555
C38 C39 1_555 1_555
C39 N3 1_555 1_555
Zn3C O22C 1_555 1_555
Zn5A O22C 1_555 1_555

#END
