
#######################################################################
#
#                 Cambridge Crystallographic Data Centre
#                                CCDC 
#
#######################################################################
#
# If this CIF has been generated from an entry in the Cambridge 
# Structural Database, then it will include bibliographic, chemical, 
# crystal, experimental, refinement or atomic coordinate data resulting 
# from the CCDC's data processing and validation procedures.
#
#######################################################################

data_REGSUT
_symmetry_cell_setting           monoclinic
_symmetry_space_group_name_H-M   'C 2/c'
_symmetry_Int_Tables_number      15
_space_group_name_Hall           '-C 2yn'
loop_
_symmetry_equiv_pos_site_id
_symmetry_equiv_pos_as_xyz
1 x,y,z
2 -x,y,1/2-z
3 1/2+x,1/2+y,z
4 1/2-x,1/2+y,1/2-z
5 -x,-y,-z
6 x,-y,1/2+z
7 1/2-x,1/2-y,-z
8 1/2+x,1/2-y,1/2+z
_cell_length_a                   22.805(6)
_cell_length_b                   8.530(2)
_cell_length_c                   15.480(5)
_cell_angle_alpha                90
_cell_angle_beta                 102.424(5)
_cell_angle_gamma                90
_cell_volume                     2940.76
loop_
_atom_site_label
_atom_site_type_symbol
_atom_site_fract_x
_atom_site_fract_y
_atom_site_fract_z
Tb1 Tb 0.247378(7) 0.138571(17) 0.382487(10)
Co1 Co 0.0000 0.20943(8) -0.2500
S1 S 0.15044(4) 0.46010(9) 0.41495(5)
O1 O 0.21160(10) 0.1781(3) 0.22429(15)
O2 O 0.14278(11) 0.0665(3) 0.28284(14)
O3 O 0.18975(11) -0.1499(2) 0.13691(16)
O4 O 0.20391(10) -0.1061(3) 0.00168(15)
O5 O 0.18491(12) 0.3605(2) 0.36514(16)
O6 O 0.16588(10) 0.4200(3) 0.51000(14)
O7 O 0.16437(12) 0.6245(2) 0.40206(18)
O8 O 0.08587(10) 0.4330(3) 0.38098(15)
O9 O 0.24118(11) -0.1370(3) 0.38349(17)
H1 H 0.2237 -0.1921 0.4108
H2 H 0.2618 -0.2129 0.3621
O10 O 0.32162(10) 0.0401(3) 0.29988(15)
H3 H 0.3383 0.1089 0.2813
H4 H 0.3159 -0.0149 0.2589
O11 O 0.0000 -0.0393(4) -0.2500
H5 H -0.0330 -0.0891 -0.2575
O12 O 0.09455(10) 0.2227(3) -0.22904(14)
H6 H 0.1153 0.1392 -0.2243
H7 H 0.1096 0.2816 -0.1852
O13 O 0.0000 0.4546(4) -0.2500
H8 H -0.0174 0.5153 -0.2901
N1 N 0.00094(12) 0.2101(3) -0.11345(18)
N2 N -0.02143(12) 0.3175(3) 0.00577(19)
H9 H -0.0408 0.3714 0.0375
C1 C 0.11711(15) 0.1257(3) 0.1273(2)
C2 C 0.13002(14) 0.0466(4) 0.0524(2)
C3 C 0.09422(14) 0.0686(4) -0.0311(2)
H10 H 0.1031 0.0188 -0.0801
C4 C 0.04504(15) 0.1662(4) -0.0396(2)
C5 C 0.03139(14) 0.2359(4) 0.0357(2)
C6 C 0.06764(14) 0.2215(4) 0.1192(2)
H11 H 0.0590 0.2741 0.1676
C7 C -0.03681(15) 0.2970(4) -0.0819(2)
H12 H -0.0712 0.3405 -0.1171
C8 C 0.15967(16) 0.1197(4) 0.2162(2)
C9 C 0.17798(14) -0.0745(4) 0.0640(2)
Tb1A Tb -0.247378(7) 0.138571(17) -0.882487(10)
Tb1C Tb 0.252622(7) -0.361429(17) 0.117513(10)
Tb1E Tb 0.247378(7) -0.138571(17) -0.117513(10)
Tb1F Tb 0.252622(7) 0.361429(17) 0.617513(10)
Tb1B Tb -0.252622(7) -0.361429(17) -0.617513(10)
Tb1D Tb -0.247378(7) -0.138571(17) -0.382487(10)
S1F S 0.34956(4) 0.03990(9) 0.58505(5)
O1A O -0.21160(10) 0.1781(3) -0.72429(15)
O2A O -0.14278(11) 0.0665(3) -0.78284(14)
O3A O -0.18975(11) -0.1499(2) -0.63691(16)
O3C O 0.31025(11) 0.3501(2) 0.36309(16)
O3B O -0.31025(11) 0.3501(2) -0.86309(16)
O4A O -0.20391(10) -0.1061(3) -0.50168(15)
O4E O 0.20391(10) 0.1061(3) 0.50168(15)
O4C O 0.29609(10) 0.3939(3) 0.49832(15)
O4D O -0.20391(10) 0.1061(3) -1.00168(15)
O4B O -0.29609(10) 0.3939(3) -0.99832(15)
O5F O 0.31509(12) 0.1395(2) 0.63486(16)
O5A O -0.18491(12) 0.3605(2) -0.86514(16)
O6F O 0.33412(10) 0.0800(3) 0.49000(14)
O6G O -0.33412(10) 0.0800(3) -0.99000(14)
O7F O 0.33563(12) -0.1245(2) 0.59794(18)
O8F O 0.41413(10) 0.0670(3) 0.61902(15)
O9A O -0.24118(11) -0.1370(3) -0.88349(17)
H1A H -0.2237 -0.1921 -0.9108
H2A H -0.2618 -0.2129 -0.8621
O10A O -0.32162(10) 0.0401(3) -0.79988(15)
H3A H -0.3383 0.1089 -0.7813
H4A H -0.3159 -0.0149 -0.7589
H5A H 0.0330 -0.0891 -0.2425
O12A O -0.09455(10) 0.2227(3) -0.27096(14)
H6A H -0.1153 0.1392 -0.2757
H7A H -0.1096 0.2816 -0.3148
H8A H 0.0174 0.5153 -0.2099
N1A N -0.00094(12) 0.2101(3) -0.38655(18)
N2A N 0.02143(12) 0.3175(3) -0.50577(19)
H9A H 0.0408 0.3714 -0.5375
C1A C -0.11711(15) 0.1257(3) -0.6273(2)
C2A C -0.13002(14) 0.0466(4) -0.5524(2)
C3A C -0.09422(14) 0.0686(4) -0.4689(2)
H10A H -0.1031 0.0188 -0.4199
C4A C -0.04504(15) 0.1662(4) -0.4604(2)
C5A C -0.03139(14) 0.2359(4) -0.5357(2)
C6A C -0.06764(14) 0.2215(4) -0.6192(2)
H11A H -0.0590 0.2741 -0.6676
C7A C 0.03681(15) 0.2970(4) -0.4181(2)
H12A H 0.0712 0.3405 -0.3829
C8A C -0.15967(16) 0.1197(4) -0.7162(2)
C9A C -0.17798(14) -0.0745(4) -0.5640(2)
loop_
_geom_bond_atom_site_label_1
_geom_bond_atom_site_label_2
_geom_bond_site_symmetry_1
_geom_bond_site_symmetry_2
Tb1 O1 1_555 1_555
Co1 O11 1_555 1_555
S1 O5 1_555 1_555
O1 C8 1_555 1_555
O2 Tb1 1_555 1_555
O3 C9 1_555 1_555
O4 C9 1_555 1_555
O5 Tb1 1_555 1_555
O6 S1 1_555 1_555
O7 S1 1_555 1_555
O8 S1 1_555 1_555
O9 Tb1 1_555 1_555
H1 O9 1_555 1_555
H2 O9 1_555 1_555
O10 Tb1 1_555 1_555
H3 O10 1_555 1_555
H4 O10 1_555 1_555
O11 H5 1_555 1_555
O12 Co1 1_555 1_555
H6 O12 1_555 1_555
H7 O12 1_555 1_555
O13 Co1 1_555 1_555
H8 O13 1_555 1_555
N1 Co1 1_555 1_555
N2 H9 1_555 1_555
C1 C2 1_555 1_555
C2 C3 1_555 1_555
C3 H10 1_555 1_555
C4 N1 1_555 1_555
C5 N2 1_555 1_555
C6 C1 1_555 1_555
H11 C6 1_555 1_555
C7 N1 1_555 1_555
H12 C7 1_555 1_555
C8 O2 1_555 1_555
C9 C2 1_555 1_555
Tb1A O1A 1_555 1_555
Tb1C O3 1_555 1_555
Tb1E O4 1_555 1_555
Tb1F O6 1_555 1_555
Tb1B O3A 1_555 1_555
Tb1D O4A 1_555 1_555
S1F O5F 1_555 1_555
O1A C8A 1_555 1_555
O2A Tb1A 1_555 1_555
O3A C9A 1_555 1_555
O3C Tb1 1_555 1_555
O3B Tb1A 1_555 1_555
O4A Tb1B 1_555 1_555
O4E Tb1 1_555 1_555
O4C Tb1 1_555 1_555
O4D Tb1A 1_555 1_555
O4B Tb1A 1_555 1_555
O5F Tb1F 1_555 1_555
O5A Tb1A 1_555 1_555
O6F Tb1 1_555 1_555
O6G Tb1A 1_555 1_555
O7F S1F 1_555 1_555
O8F S1F 1_555 1_555
O9A Tb1A 1_555 1_555
H1A O9A 1_555 1_555
H2A O9A 1_555 1_555
O10A Tb1A 1_555 1_555
H3A O10A 1_555 1_555
H4A O10A 1_555 1_555
H5A O11 1_555 1_555
O12A Co1 1_555 1_555
H6A O12A 1_555 1_555
H7A O12A 1_555 1_555
H8A O13 1_555 1_555
N1A Co1 1_555 1_555
N2A H9A 1_555 1_555
C1A C2A 1_555 1_555
C2A C3A 1_555 1_555
C3A H10A 1_555 1_555
C4A N1A 1_555 1_555
C5A N2A 1_555 1_555
C6A C1A 1_555 1_555
H11A C6A 1_555 1_555
C7A N1A 1_555 1_555
H12A C7A 1_555 1_555
C8A O2A 1_555 1_555
C9A O4A 1_555 1_555
O4 Tb1C 1_555 1_555
N2 C7 1_555 1_555
C1 C8 1_555 1_555
C3 C4 1_555 1_555
C4 C5 1_555 1_555
C5 C6 1_555 1_555
Tb1F O4E 1_555 1_555
Tb1F O4C 1_555 1_555
S1F O6F 1_555 1_555
N2A C7A 1_555 1_555
C1A C8A 1_555 1_555
C2A C9A 1_555 1_555
C3A C4A 1_555 1_555
C4A C5A 1_555 1_555
C5A C6A 1_555 1_555

#END
