
#######################################################################
#
#                 Cambridge Crystallographic Data Centre
#                                CCDC 
#
#######################################################################
#
# If this CIF has been generated from an entry in the Cambridge 
# Structural Database, then it will include bibliographic, chemical, 
# crystal, experimental, refinement or atomic coordinate data resulting 
# from the CCDC's data processing and validation procedures.
#
#######################################################################

data_REGSIH
_symmetry_cell_setting           monoclinic
_symmetry_space_group_name_H-M   'C 2/c'
_symmetry_Int_Tables_number      15
_space_group_name_Hall           '-C 2yn'
loop_
_symmetry_equiv_pos_site_id
_symmetry_equiv_pos_as_xyz
1 x,y,z
2 -x,y,1/2-z
3 1/2+x,1/2+y,z
4 1/2-x,1/2+y,1/2-z
5 -x,-y,-z
6 x,-y,1/2+z
7 1/2-x,1/2-y,-z
8 1/2+x,1/2-y,1/2+z
_cell_length_a                   22.4616(18)
_cell_length_b                   8.7319(7)
_cell_length_c                   15.4580(12)
_cell_angle_alpha                90
_cell_angle_beta                 102.7840(10)
_cell_angle_gamma                90
_cell_volume                     2956.66
loop_
_atom_site_label
_atom_site_type_symbol
_atom_site_fract_x
_atom_site_fract_y
_atom_site_fract_z
O1 O 0.69051(12) 0.3474(3) 0.63675(16)
O2 O 0.70453(11) 0.3877(3) 0.50192(16)
C1 C 0.67885(15) 0.4212(4) 0.5644(2)
Co1 Co 0.5000 0.70589(8) 0.2500
Ho1 Ho 0.747696(7) 0.639800(17) 0.883190(9)
S1 S 0.65010(4) 0.95333(10) 0.91349(5)
O3 O 0.71408(11) 0.6838(3) 0.72378(15)
O4 O 0.68017(13) 0.8437(3) 0.86531(17)
O5 O 0.66550(10) 0.9205(3) 1.00916(15)
O6 O 0.66950(14) 1.1072(3) 0.8967(2)
O7 O 0.58392(11) 0.9407(3) 0.88181(16)
O8 O 0.81824(14) 0.5291(3) 0.80229(18)
H1 H 0.8311(19) 0.439(2) 0.816(2)
H2 H 0.8091(19) 0.537(4) 0.7463(8)
O9 O 0.74148(15) 0.3683(3) 0.8964(3)
H3 H 0.7627 0.3394 0.9478
H4 H 0.7560 0.3230 0.8554
O10 O 0.59555(11) 0.7193(3) 0.27447(16)
H5 H 0.6123 0.6279 0.2788
H6 H 0.6101 0.7679 0.3243
O11 O 0.5000 0.4599(5) 0.2500
H7 H 0.4650 0.4215 0.2320
O12 O 0.5000 0.9446(4) 0.2500
H8 H 0.5194(17) 1.004(4) 0.289(2)
N1 N 0.50045(13) 0.7045(4) 0.38616(19)
N2 N 0.47934(14) 0.8147(4) 0.5052(2)
H9 H 0.4603 0.8689 0.5369
C2 C 0.46304(17) 0.7938(5) 0.4182(2)
H10 H 0.4284 0.8381 0.3830
C3 C 0.53242(15) 0.7335(4) 0.5354(2)
C4 C 0.54519(16) 0.6624(4) 0.4603(2)
C5 C 0.59479(15) 0.5653(4) 0.4690(2)
H11 H 0.6034 0.5168 0.4196
C6 C 0.57022(15) 0.7188(4) 0.6188(2)
H12 H 0.5626 0.7720 0.6673
C7 C 0.61989(15) 0.6218(4) 0.6270(2)
C8 C 0.63142(14) 0.5418(4) 0.5527(2)
O13 O 0.64927(14) 0.5568(3) 0.78182(16)
C9 C 0.66393(16) 0.6167(4) 0.7155(2)
O1A O 0.30949(12) 0.3474(3) -0.13675(16)
O1B O 0.19051(12) 0.8474(3) -0.36325(16)
O1C O 0.80949(12) 0.8474(3) 0.86325(16)
O2A O 0.29547(11) 0.3877(3) -0.00192(16)
O2B O 0.20453(11) 0.8877(3) -0.49808(16)
O2C O 0.79547(11) 0.8877(3) 0.99808(16)
O2D O 0.29547(11) 0.6123(3) -0.50192(16)
O2E O 0.70453(11) 0.6123(3) 1.00192(16)
C1A C 0.32115(15) 0.4212(4) -0.0644(2)
Ho1A Ho 0.252304(7) 0.639800(17) -0.383190(9)
Ho1B Ho 0.247696(7) 0.139800(17) -0.116810(9)
Ho1C Ho 0.752304(7) 0.139800(17) 0.616810(9)
Ho1D Ho 0.252304(7) 0.360200(17) 0.116810(9)
Ho1E Ho 0.747696(7) 0.360200(17) 0.383190(9)
Ho1F Ho 0.752304(7) 0.860200(17) 1.116810(9)
Ho1G Ho 0.247696(7) 0.860200(17) -0.616810(9)
S1A S 0.34990(4) 0.95333(10) -0.41349(5)
O3A O 0.28592(11) 0.6838(3) -0.22378(15)
O4A O 0.31983(13) 0.8437(3) -0.36531(17)
O5A O 0.33450(10) 0.9205(3) -0.50916(15)
O5F O 0.83450(10) 0.5795(3) 0.99084(15)
O5G O 0.16550(10) 0.5795(3) -0.49084(15)
O6A O 0.33050(14) 1.1072(3) -0.3967(2)
O7A O 0.41608(11) 0.9407(3) -0.38181(16)
O8A O 0.18176(14) 0.5291(3) -0.30229(18)
H1A H 0.1689(19) 0.439(2) -0.316(2)
H2A H 0.1909(19) 0.537(4) -0.2463(8)
O9A O 0.25852(15) 0.3683(3) -0.3964(3)
H3A H 0.2373 0.3394 -0.4478
H4A H 0.2440 0.3230 -0.3554
O10A O 0.40445(11) 0.7193(3) 0.22553(16)
H5A H 0.3877 0.6279 0.2212
H6A H 0.3899 0.7679 0.1757
H7A H 0.5350 0.4215 0.2680
H8A H 0.4806(17) 1.004(4) 0.211(2)
N1A N 0.49955(13) 0.7045(4) 0.11384(19)
N2A N 0.52066(14) 0.8147(4) -0.0052(2)
H9A H 0.5397 0.8689 -0.0369
C2A C 0.53696(17) 0.7938(5) 0.0818(2)
H10A H 0.5716 0.8381 0.1170
C3A C 0.46758(15) 0.7335(4) -0.0354(2)
C4A C 0.45481(16) 0.6624(4) 0.0397(2)
C5A C 0.40521(15) 0.5653(4) 0.0310(2)
H11A H 0.3966 0.5168 0.0804
C6A C 0.42978(15) 0.7188(4) -0.1188(2)
H12A H 0.4374 0.7720 -0.1673
C7A C 0.38011(15) 0.6218(4) -0.1270(2)
C8A C 0.36858(14) 0.5418(4) -0.0527(2)
O13A O 0.35073(14) 0.5568(3) -0.28182(16)
C9A C 0.33607(16) 0.6167(4) -0.2155(2)
loop_
_geom_bond_atom_site_label_1
_geom_bond_atom_site_label_2
_geom_bond_site_symmetry_1
_geom_bond_site_symmetry_2
O1 C1 1_555 1_555
O2 C1 1_555 1_555
C1 C8 1_555 1_555
Co1 O10 1_555 1_555
Ho1 O3 1_555 1_555
S1 O4 1_555 1_555
O3 C9 1_555 1_555
O4 Ho1 1_555 1_555
O5 S1 1_555 1_555
O6 S1 1_555 1_555
O7 S1 1_555 1_555
O8 Ho1 1_555 1_555
H1 O8 1_555 1_555
H2 O8 1_555 1_555
O9 Ho1 1_555 1_555
H3 O9 1_555 1_555
H4 O9 1_555 1_555
O10 H5 1_555 1_555
H6 O10 1_555 1_555
O11 Co1 1_555 1_555
H7 O11 1_555 1_555
O12 Co1 1_555 1_555
H8 O12 1_555 1_555
N1 Co1 1_555 1_555
N2 H9 1_555 1_555
C2 N1 1_555 1_555
H10 C2 1_555 1_555
C3 N2 1_555 1_555
C4 N1 1_555 1_555
C5 C4 1_555 1_555
H11 C5 1_555 1_555
C6 C3 1_555 1_555
H12 C6 1_555 1_555
C7 C6 1_555 1_555
C8 C5 1_555 1_555
O13 Ho1 1_555 1_555
C9 C7 1_555 1_555
O1A C1A 1_555 1_555
O1B Ho1A 1_555 1_555
O1C Ho1 1_555 1_555
O2A C1A 1_555 1_555
O2B Ho1A 1_555 1_555
O2C Ho1 1_555 1_555
O2D Ho1A 1_555 1_555
O2E Ho1 1_555 1_555
C1A C8A 1_555 1_555
Ho1A O3A 1_555 1_555
Ho1B O1A 1_555 1_555
Ho1C O1 1_555 1_555
Ho1D O2A 1_555 1_555
Ho1E O2 1_555 1_555
Ho1F O5 1_555 1_555
Ho1G O2B 1_555 1_555
S1A O4A 1_555 1_555
O3A C9A 1_555 1_555
O4A Ho1A 1_555 1_555
O5A Ho1G 1_555 1_555
O5F Ho1 1_555 1_555
O5G Ho1A 1_555 1_555
O6A S1A 1_555 1_555
O7A S1A 1_555 1_555
O8A Ho1A 1_555 1_555
H1A O8A 1_555 1_555
H2A O8A 1_555 1_555
O9A Ho1A 1_555 1_555
H3A O9A 1_555 1_555
H4A O9A 1_555 1_555
O10A Co1 1_555 1_555
H5A O10A 1_555 1_555
H6A O10A 1_555 1_555
H7A O11 1_555 1_555
H8A O12 1_555 1_555
N1A Co1 1_555 1_555
N2A H9A 1_555 1_555
C2A N1A 1_555 1_555
H10A C2A 1_555 1_555
C3A N2A 1_555 1_555
C4A N1A 1_555 1_555
C5A C4A 1_555 1_555
H11A C5A 1_555 1_555
C6A C3A 1_555 1_555
H12A C6A 1_555 1_555
C7A C6A 1_555 1_555
C8A C5A 1_555 1_555
O13A Ho1A 1_555 1_555
C9A C7A 1_555 1_555
O2 Ho1C 1_555 1_555
N2 C2 1_555 1_555
C3 C4 1_555 1_555
C7 C8 1_555 1_555
O13 C9 1_555 1_555
O2A Ho1B 1_555 1_555
O2C Ho1F 1_555 1_555
O2D Ho1G 1_555 1_555
O2E Ho1F 1_555 1_555
S1A O5A 1_555 1_555
N2A C2A 1_555 1_555
C3A C4A 1_555 1_555
C7A C8A 1_555 1_555
O13A C9A 1_555 1_555

#END
