
#######################################################################
#
#                 Cambridge Crystallographic Data Centre
#                                CCDC 
#
#######################################################################
#
# If this CIF has been generated from an entry in the Cambridge 
# Structural Database, then it will include bibliographic, chemical, 
# crystal, experimental, refinement or atomic coordinate data resulting 
# from the CCDC's data processing and validation procedures.
#
#######################################################################

data_REGSUS
_symmetry_cell_setting           monoclinic
_symmetry_space_group_name_H-M   'C 2/c'
_symmetry_Int_Tables_number      15
_space_group_name_Hall           '-C 2yn'
loop_
_symmetry_equiv_pos_site_id
_symmetry_equiv_pos_as_xyz
1 x,y,z
2 -x,y,1/2-z
3 1/2+x,1/2+y,z
4 1/2-x,1/2+y,1/2-z
5 -x,-y,-z
6 x,-y,1/2+z
7 1/2-x,1/2-y,-z
8 1/2+x,1/2-y,1/2+z
_cell_length_a                   16.635(7)
_cell_length_b                   12.360(4)
_cell_length_c                   10.359(4)
_cell_angle_alpha                90
_cell_angle_beta                 91.92(3)
_cell_angle_gamma                90
_cell_volume                     2128.7
loop_
_atom_site_label
_atom_site_type_symbol
_atom_site_fract_x
_atom_site_fract_y
_atom_site_fract_z
K1 K 0.00000 0.3447(8) -0.2500
O1 O 0.3683(7) -0.0739(9) 0.383(1)
H8 H 0.373 -0.015 0.323
H9 H 0.352 -0.135 0.339
O9 O 0.00000 0.131(2) -0.250
H5 H 0.027 0.054 -0.224
H5A H -0.027 0.054 -0.276
O10 O -0.067(2) 0.532(2) -0.380(3)
H6 H -0.086 0.468 -0.437
H7 H -0.038 0.577 -0.410
Bi1 Bi 0.10101(9) 0.1289(1) 0.0133(1)
O2 O 0.118(1) 0.218(2) 0.185(1)
O3 O 0.209(1) -0.007(2) 0.345(2)
O4 O 0.127(1) 0.006(2) 0.168(1)
O5 O -0.035(1) 0.089(2) 0.081(2)
O6 O -0.019(1) 0.255(2) 0.018(2)
O7 O 0.2482(8) 0.133(2) 0.043(1)
O8 O 0.1353(9) 0.294(2) -0.105(1)
C1 C 0.169(1) 0.052(2) 0.264(3)
C2 C 0.172(1) 0.164(2) 0.273(2)
C3 C 0.259(1) 0.209(2) 0.255(2)
C4 C 0.293(1) 0.179(2) 0.127(2)
C5 C 0.149(1) 0.204(3) 0.408(2)
C6 C -0.063(1) 0.173(2) 0.061(2)
H1 H 0.260 0.305 0.297
H2 H 0.291 0.165 0.321
H3 H 0.148 0.287 0.390
H4 H 0.188 0.160 0.475
O8F O 0.3647(9) 0.206(2) 0.105(1)
C4F C 0.207(1) 0.321(2) -0.127(2)
C5A C -0.149(1) 0.204(3) 0.092(2)
C6A C 0.063(1) 0.173(2) 0.439(2)
K2? K 0.3683(7) -0.0739(9) 0.383(1)
loop_
_geom_bond_atom_site_label_1
_geom_bond_atom_site_label_2
_geom_bond_site_symmetry_1
_geom_bond_site_symmetry_2
Bi1 O2 1_555 1_555
O1 H8 1_555 1_555
O2 C2 1_555 1_555
O3 C1 1_555 1_555
O4 Bi1 1_555 1_555
O5 Bi1 1_555 1_555
O6 Bi1 1_555 1_555
O7 Bi1 1_555 1_555
O8 Bi1 1_555 1_555
O9 H5 1_555 1_555
O10 H6 1_555 1_555
C1 O4 1_555 1_555
C2 C1 1_555 1_555
C3 C2 1_555 1_555
C4 O7 1_555 1_555
C5 C2 1_555 1_555
C6 O5 1_555 1_555
H1 C3 1_555 1_555
H2 C3 1_555 1_555
H3 C5 1_555 1_555
H4 C5 1_555 1_555
H7 O10 1_555 1_555
H9 O1 1_555 1_555
O8F C4 1_555 1_555
C4F O8 1_555 1_555
C5A C6 1_555 1_555
C6A C5 1_555 1_555
H5A O9 1_555 1_555
O6 C6 1_555 1_555
C3 C4 1_555 1_555

#END
