
#######################################################################
#
#                 Cambridge Crystallographic Data Centre
#                                CCDC 
#
#######################################################################
#
# If this CIF has been generated from an entry in the Cambridge 
# Structural Database, then it will include bibliographic, chemical, 
# crystal, experimental, refinement or atomic coordinate data resulting 
# from the CCDC's data processing and validation procedures.
#
#######################################################################

data_REGTEE
_symmetry_cell_setting           monoclinic
_symmetry_space_group_name_H-M   'P 21/c'
_symmetry_Int_Tables_number      14
_space_group_name_Hall           '-P 2ybc'
loop_
_symmetry_equiv_pos_site_id
_symmetry_equiv_pos_as_xyz
1 x,y,z
2 -x,1/2+y,1/2-z
3 -x,-y,-z
4 x,1/2-y,1/2+z
_cell_length_a                   13.449(5)
_cell_length_b                   21.788(8)
_cell_length_c                   8.202(3)
_cell_angle_alpha                90
_cell_angle_beta                 101.794(7)
_cell_angle_gamma                90
_cell_volume                     2352.67
loop_
_atom_site_label
_atom_site_type_symbol
_atom_site_fract_x
_atom_site_fract_y
_atom_site_fract_z
C1 C 0.3393(3) 0.68721(18) 1.0097(5)
C2 C 0.3922(4) 0.7366(2) 1.0966(7)
H1 H 0.3561 0.7695 1.1277
C3 C 0.4973(4) 0.7372(3) 1.1370(8)
H2 H 0.5309 0.7700 1.1967
C4 C 0.5526(4) 0.6896(3) 1.0894(8)
H3 H 0.6232 0.6906 1.1149
C5 C 0.5033(4) 0.6415(3) 1.0053(7)
H4 H 0.5412 0.6096 0.9735
C6 C 0.3963(3) 0.6381(2) 0.9643(6)
C7 C -0.0472(3) 0.66326(17) 0.9077(5)
C8 C -0.1126(3) 0.71276(19) 0.9226(6)
H5 H -0.0854 0.7500 0.9655
C9 C -0.2170(4) 0.7063(2) 0.8739(7)
H6 H -0.2590 0.7394 0.8832
C10 C -0.2597(3) 0.6511(2) 0.8116(7)
H7 H -0.3298 0.6470 0.7817
C11 C -0.1980(3) 0.6027(2) 0.7944(5)
H8 H -0.2269 0.5657 0.7523
C12 C -0.0907(3) 0.60769(17) 0.8394(5)
C13 C -0.0316(3) 0.55436(17) 0.8171(4)
H9 H -0.0666 0.5183 0.7828
C14 C 0.3514(3) 0.58488(19) 0.8762(6)
H10 H 0.3949 0.5572 0.8402
C15 C 0.2132(3) 0.51753(17) 0.7449(5)
H11 H 0.1861 0.5306 0.6301
C16 C 0.2857(4) 0.4648(2) 0.7407(7)
H12 H 0.3148 0.4517 0.8533
H13 H 0.3406 0.4779 0.6884
C17 C 0.2285(4) 0.4117(2) 0.6429(7)
H14 H 0.2056 0.4241 0.5278
H15 H 0.2745 0.3773 0.6448
C18 C 0.1389(4) 0.3915(2) 0.7112(7)
H16 H 0.1625 0.3738 0.8209
H17 H 0.1027 0.3598 0.6398
C19 C 0.0659(3) 0.44444(17) 0.7241(6)
H18 H 0.0340 0.4585 0.6135
H19 H 0.0129 0.4305 0.7798
C20 C 0.1246(3) 0.49678(16) 0.8218(5)
H20 H 0.1532 0.4813 0.9338
C21 C 0.1175(3) 0.65071(16) 0.6790(5)
C22 C 0.1904(3) 0.58851(17) 1.1299(5)
N1 N 0.0661(2) 0.55287(13) 0.8412(4)
N2 N 0.2561(2) 0.57220(14) 0.8429(4)
N3 N 0.0964(3) 0.66960(17) 0.5473(5)
N4 N 0.2142(3) 0.5704(2) 1.2636(5)
O1 O 0.2389(2) 0.69030(12) 0.9721(3)
O2 O 0.0506(2) 0.67202(12) 0.9635(4)
Co1 Co 0.15316(4) 0.62072(2) 0.90509(6)
K1 K 0.14556(9) 0.71615(4) 0.26378(11)
C21C C 0.1175(3) 0.84929(16) 0.1790(5)
O1_2 O 0.2389(2) 0.69030(12) -0.0279(3)
O1C O 0.2389(2) 0.80970(12) 0.4721(3)
O2_2 O 0.0506(2) 0.67202(12) -0.0365(4)
K1C K 0.14556(9) 0.78385(4) 0.76378(11)
K1_2 K 0.14556(9) 0.71615(4) 1.26378(11)
C23 C 0.4004(7) 0.5571(6) 0.4947(12)
O3 O 0.4671(10) 0.5963(6) 0.4564(17)
loop_
_geom_bond_atom_site_label_1
_geom_bond_atom_site_label_2
_geom_bond_site_symmetry_1
_geom_bond_site_symmetry_2
C1 C2 1_555 1_555
C2 H1 1_555 1_555
C3 C2 1_555 1_555
H2 C3 1_555 1_555
C4 C3 1_555 1_555
H3 C4 1_555 1_555
C5 C4 1_555 1_555
H4 C5 1_555 1_555
C6 C1 1_555 1_555
C7 C8 1_555 1_555
C8 H5 1_555 1_555
C9 C8 1_555 1_555
H6 C9 1_555 1_555
C10 C9 1_555 1_555
H7 C10 1_555 1_555
C11 C10 1_555 1_555
H8 C11 1_555 1_555
C12 C7 1_555 1_555
C13 C12 1_555 1_555
H9 C13 1_555 1_555
C14 C6 1_555 1_555
H10 C14 1_555 1_555
C15 H11 1_555 1_555
C16 C15 1_555 1_555
H12 C16 1_555 1_555
H13 C16 1_555 1_555
C17 C16 1_555 1_555
H14 C17 1_555 1_555
H15 C17 1_555 1_555
C18 C17 1_555 1_555
H16 C18 1_555 1_555
H17 C18 1_555 1_555
C19 C18 1_555 1_555
H18 C19 1_555 1_555
H19 C19 1_555 1_555
C20 C15 1_555 1_555
H20 C20 1_555 1_555
C21 N3 1_555 1_555
C22 N4 1_555 1_555
C23 O3 1_555 1_555
N1 C13 1_555 1_555
N2 C14 1_555 1_555
N3 K1 1_555 1_555
O1 C1 1_555 1_555
O2 C7 1_555 1_555
Co1 C21 1_555 1_555
K1 C21C 1_555 1_555
O1_2 K1 1_555 1_555
O1C K1 1_555 1_555
O2_2 K1 1_555 1_555
K1C C21 1_555 1_555
K1_2 O1 1_555 1_555
C5 C6 1_555 1_555
C11 C12 1_555 1_555
C15 N2 1_555 1_555
C19 C20 1_555 1_555
C20 N1 1_555 1_555
C22 Co1 1_555 1_555
N1 Co1 1_555 1_555
N2 Co1 1_555 1_555
O1 Co1 1_555 1_555
O1 K1C 1_555 1_555
O2 Co1 1_555 1_555
O2 K1_2 1_555 1_555
O1C K1C 1_555 1_555

#END
