
#######################################################################
#
#                 Cambridge Crystallographic Data Centre
#                                CCDC 
#
#######################################################################
#
# If this CIF has been generated from an entry in the Cambridge 
# Structural Database, then it will include bibliographic, chemical, 
# crystal, experimental, refinement or atomic coordinate data resulting 
# from the CCDC's data processing and validation procedures.
#
#######################################################################

data_REGTII
_symmetry_cell_setting           monoclinic
_symmetry_space_group_name_H-M   'P 21'
_symmetry_Int_Tables_number      4
_space_group_name_Hall           'P 2yb'
loop_
_symmetry_equiv_pos_site_id
_symmetry_equiv_pos_as_xyz
1 x,y,z
2 -x,1/2+y,-z
_cell_length_a                   13.969(10)
_cell_length_b                   8.164(5)
_cell_length_c                   19.974(13)
_cell_angle_alpha                90
_cell_angle_beta                 92.823(13)
_cell_angle_gamma                90
_cell_volume                     2275.13
loop_
_atom_site_label
_atom_site_type_symbol
_atom_site_fract_x
_atom_site_fract_y
_atom_site_fract_z
K2 K 0.49079(15) 0.2689(2) 0.96416(8)
Co2 Co 0.55090(6) 0.12501(8) 1.14408(4)
C24 C 0.3623(4) 0.7950(8) 0.7465(3)
H21 H 0.3764 0.9062 0.7626
C25 C 0.2859(5) 0.8098(10) 0.6897(3)
H22 H 0.2696 0.7022 0.6720
H23 H 0.2284 0.8593 0.7060
C26 C 0.3262(6) 0.9164(11) 0.6350(4)
H24 H 0.2797 0.9217 0.5973
H25 H 0.3355 1.0267 0.6521
C27 C 0.4189(5) 0.8549(10) 0.6109(3)
H26 H 0.4426 0.9313 0.5784
H27 H 0.4083 0.7505 0.5886
C28 C 0.4938(5) 0.8340(11) 0.6677(3)
H28 H 0.5107 0.9402 0.6865
H29 H 0.5511 0.7856 0.6506
C29 C 0.4555(4) 0.7242(8) 0.7221(3)
H30 H 0.4403 0.6176 0.7017
C30 C 0.6133(5) 0.6958(11) 0.7825(4)
H31 H 0.6400 0.7358 0.7440
C31 C 0.6772(5) 0.6449(11) 0.8336(4)
C32 C 0.7760(5) 0.6548(14) 0.8245(4)
H32 H 0.7962 0.7016 0.7852
C33 C 0.8433(5) 0.5995(16) 0.8701(5)
H33 H 0.9081 0.6026 0.8615
C34 C 0.8133(6) 0.5400(15) 0.9280(4)
H34 H 0.8595 0.5086 0.9606
C35 C 0.7203(5) 0.5228(13) 0.9422(4)
H35 H 0.7057 0.4738 0.9825
C36 C 0.6427(6) 0.5774(10) 0.8974(3)
C37 C 0.2898(4) 0.5577(9) 0.9368(3)
C38 C 0.2548(5) 0.4984(11) 0.9963(3)
H36 H 0.2970 0.4543 1.0289
C39 C 0.1563(6) 0.5045(13) 1.0074(4)
H37 H 0.1336 0.4651 1.0473
C40 C 0.0935(5) 0.5691(13) 0.9589(4)
H38 H 0.0286 0.5772 0.9667
C41 C 0.1267(5) 0.6210(10) 0.8994(3)
H39 H 0.0833 0.6577 0.8659
C42 C 0.2255(5) 0.6204(10) 0.8874(3)
C43 C 0.2521(5) 0.6860(9) 0.8266(3)
H40 H 0.2033 0.7274 0.7981
C44 C 0.5447(6) 0.3398(11) 1.1058(3)
C45 C 0.5533(5) -0.0922(11) 1.1853(4)
O3 O 0.5201(4) 0.6939(7) 0.7825(3)
O4 O 0.3397(4) 0.6949(7) 0.8058(2)
N3 N 0.5572(3) 0.5616(7) 0.9114(2)
N4 N 0.3820(3) 0.5480(7) 0.9312(2)
N7 N 0.5480(7) 0.4675(11) 1.0825(3)
N8 N 0.5528(5) -0.2191(8) 1.2098(3)
K2A K 0.50921(15) 0.7689(2) 1.03584(8)
Co2A Co 0.44910(6) 0.62501(8) 0.85592(4)
O3A O 0.4799(4) 0.1939(7) 1.2175(3)
O4A O 0.6603(4) 0.1949(7) 1.1942(2)
N3A N 0.4428(3) 0.0616(7) 1.0886(2)
N4A N 0.6180(3) 0.0480(7) 1.0688(2)
N7A N 0.4520(7) -0.0325(11) 0.9175(3)
C23 C -0.175(2) 0.932(2) 0.6521(8)
O6 O -0.1482(9) 0.9266(12) 0.7109(8)
C46 C 0.6277(7) 0.1019(12) 0.7729(4)
O5 O 0.6729(9) 0.1262(17) 0.8410(6)
K1 K 0.01124(15) 0.7567(2) 0.53771(8)
Co1 Co -0.04855(6) 0.89976(8) 0.35446(4)
C1 C 0.1277(4) 0.2921(8) 0.7695(3)
H1 H 0.1163 0.3928 0.7947
C2 C 0.1993(5) 0.1916(10) 0.8102(3)
H2 H 0.2580 0.2540 0.8177
H3 H 0.2144 0.0934 0.7855
C3 C 0.1601(5) 0.1432(12) 0.8782(3)
H4 H 0.1548 0.2402 0.9059
H5 H 0.2044 0.0683 0.9013
C4 C 0.0605(5) 0.0607(10) 0.8685(3)
H6 H 0.0678 -0.0442 0.8465
H7 H 0.0350 0.0405 0.9120
C5 C -0.0104(5) 0.1660(11) 0.8266(3)
H8 H -0.0704 0.1077 0.8191
H9 H -0.0231 0.2669 0.8502
C6 C 0.0331(4) 0.2043(8) 0.7598(3)
H10 H 0.0459 0.0993 0.7383
C7 C -0.1154(5) 0.3132(10) 0.7143(3)
H11 H -0.1433 0.2711 0.7520
C8 C -0.1802(5) 0.3905(10) 0.6609(3)
C9 C -0.2794(6) 0.3963(13) 0.6741(4)
H12 H -0.2995 0.3565 0.7147
C10 C -0.3450(5) 0.4583(13) 0.6291(4)
H13 H -0.4098 0.4584 0.6377
C11 C -0.3125(5) 0.5240(11) 0.5677(4)
H14 H -0.3560 0.5702 0.5364
C12 C -0.2166(5) 0.5183(11) 0.5554(4)
H15 H -0.1956 0.5577 0.5150
C13 C -0.1498(4) 0.4532(8) 0.6037(3)
C14 C 0.2143(5) 0.4624(10) 0.5702(3)
C15 C 0.2556(6) 0.5126(12) 0.5085(3)
H16 H 0.2192 0.5705 0.4762
C16 C 0.3478(6) 0.4741(12) 0.4986(4)
H17 H 0.3722 0.5019 0.4576
C17 C 0.4095(5) 0.3947(11) 0.5459(4)
H18 H 0.4732 0.3737 0.5374
C18 C 0.3726(5) 0.3507(9) 0.6037(4)
H19 H 0.4118 0.2958 0.6353
C19 C 0.2751(4) 0.3843(9) 0.6194(3)
C20 C 0.2432(4) 0.3348(9) 0.6844(3)
H20 H 0.284(4) 0.297(6) 0.716(2)
C21 C -0.0407(5) 1.1077(9) 0.3096(3)
C22 C -0.0581(5) 0.6870(10) 0.3949(3)
O1 O -0.0581(3) 0.4536(6) 0.5862(2)
O2 O 0.1226(3) 0.4933(6) 0.5766(2)
N1 N -0.0256(3) 0.3017(8) 0.7115(2)
N2 N 0.1582(3) 0.3407(7) 0.7022(2)
N5 N -0.0599(6) 0.5624(10) 0.4189(3)
N6 N -0.0292(5) 1.2278(9) 0.2814(3)
K1A K -0.01124(15) 0.2567(2) 0.46229(8)
Co1A Co 0.04855(6) 0.39976(8) 0.64554(4)
O1A O 0.0581(3) 0.9536(6) 0.4138(2)
O2A O -0.1226(3) 0.9933(6) 0.4234(2)
N1A N 0.0256(3) 0.8017(8) 0.2885(2)
N2A N -0.1582(3) 0.8407(7) 0.2978(2)
N5A N 0.0599(6) 1.0624(10) 0.5811(3)
loop_
_geom_bond_atom_site_label_1
_geom_bond_atom_site_label_2
_geom_bond_site_symmetry_1
_geom_bond_site_symmetry_2
K1 C22 1_555 1_555
K2 C44 1_555 1_555
Co1 C21 1_555 1_555
Co2 C44 1_555 1_555
C1 H1 1_555 1_555
C2 C1 1_555 1_555
H2 C2 1_555 1_555
H3 C2 1_555 1_555
C3 C2 1_555 1_555
H4 C3 1_555 1_555
H5 C3 1_555 1_555
C4 C3 1_555 1_555
H6 C4 1_555 1_555
H7 C4 1_555 1_555
C5 C4 1_555 1_555
H8 C5 1_555 1_555
H9 C5 1_555 1_555
C6 C1 1_555 1_555
H10 C6 1_555 1_555
C7 H11 1_555 1_555
C8 C7 1_555 1_555
C9 C8 1_555 1_555
H12 C9 1_555 1_555
C10 C9 1_555 1_555
H13 C10 1_555 1_555
C11 C10 1_555 1_555
H14 C11 1_555 1_555
C12 C11 1_555 1_555
H15 C12 1_555 1_555
C13 C8 1_555 1_555
C14 C15 1_555 1_555
C15 H16 1_555 1_555
C16 C15 1_555 1_555
H17 C16 1_555 1_555
C17 C16 1_555 1_555
H18 C17 1_555 1_555
C18 C17 1_555 1_555
H19 C18 1_555 1_555
C19 C14 1_555 1_555
C20 C19 1_555 1_555
H20 C20 1_555 1_555
C21 N6 1_555 1_555
C22 Co1 1_555 1_555
C23 O6 1_555 1_555
C24 H21 1_555 1_555
C25 C24 1_555 1_555
H22 C25 1_555 1_555
H23 C25 1_555 1_555
C26 C25 1_555 1_555
H24 C26 1_555 1_555
H25 C26 1_555 1_555
C27 C26 1_555 1_555
H26 C27 1_555 1_555
H27 C27 1_555 1_555
C28 C27 1_555 1_555
H28 C28 1_555 1_555
H29 C28 1_555 1_555
C29 C24 1_555 1_555
H30 C29 1_555 1_555
C30 H31 1_555 1_555
C31 C30 1_555 1_555
C32 C31 1_555 1_555
H32 C32 1_555 1_555
C33 C32 1_555 1_555
H33 C33 1_555 1_555
C34 C33 1_555 1_555
H34 C34 1_555 1_555
C35 C34 1_555 1_555
H35 C35 1_555 1_555
C36 C31 1_555 1_555
C37 C38 1_555 1_555
C38 H36 1_555 1_555
C39 C38 1_555 1_555
H37 C39 1_555 1_555
C40 C39 1_555 1_555
H38 C40 1_555 1_555
C41 C40 1_555 1_555
H39 C41 1_555 1_555
C42 C37 1_555 1_555
C43 C42 1_555 1_555
H40 C43 1_555 1_555
C44 N7 1_555 1_555
C45 Co2 1_555 1_555
C46 O5 1_555 1_555
O1 K1 1_555 1_555
O2 K1 1_555 1_555
O3 C29 1_555 1_555
O4 C24 1_555 1_555
N1 C6 1_555 1_555
N2 C1 1_555 1_555
N3 K2 1_555 1_555
N4 K2 1_555 1_555
N5 K1 1_555 1_555
N7 K2 1_555 1_555
N8 C45 1_555 1_555
K1A N5 1_555 1_555
K2A N7 1_555 1_555
Co1A O1 1_555 1_555
Co2A O3 1_555 1_555
O1A Co1 1_555 1_555
O2A Co1 1_555 1_555
O3A Co2 1_555 1_555
O4A Co2 1_555 1_555
N1A Co1 1_555 1_555
N2A Co1 1_555 1_555
N3A Co2 1_555 1_555
N4A Co2 1_555 1_555
N5A K1 1_555 1_555
N7A K2 1_555 1_555
C5 C6 1_555 1_555
C7 N1 1_555 1_555
C12 C13 1_555 1_555
C13 O1 1_555 1_555
C14 O2 1_555 1_555
C18 C19 1_555 1_555
C20 N2 1_555 1_555
C22 N5 1_555 1_555
C28 C29 1_555 1_555
C30 O3 1_555 1_555
C35 C36 1_555 1_555
C36 N3 1_555 1_555
C37 N4 1_555 1_555
C41 C42 1_555 1_555
C43 O4 1_555 1_555
O2 Co1A 1_555 1_555
O4 Co2A 1_555 1_555
N1 Co1A 1_555 1_555
N2 Co1A 1_555 1_555
N3 Co2A 1_555 1_555
N4 Co2A 1_555 1_555

#END
