
#######################################################################
#
#                 Cambridge Crystallographic Data Centre
#                                CCDC 
#
#######################################################################
#
# If this CIF has been generated from an entry in the Cambridge 
# Structural Database, then it will include bibliographic, chemical, 
# crystal, experimental, refinement or atomic coordinate data resulting 
# from the CCDC's data processing and validation procedures.
#
#######################################################################

data_REGTOO
_symmetry_cell_setting           monoclinic
_symmetry_space_group_name_H-M   'P 21'
_symmetry_Int_Tables_number      4
_space_group_name_Hall           'P 2yb'
loop_
_symmetry_equiv_pos_site_id
_symmetry_equiv_pos_as_xyz
1 x,y,z
2 -x,1/2+y,-z
_cell_length_a                   13.873(15)
_cell_length_b                   8.124(9)
_cell_length_c                   19.53(2)
_cell_angle_alpha                90
_cell_angle_beta                 91.96(2)
_cell_angle_gamma                90
_cell_volume                     2199.83
loop_
_atom_site_label
_atom_site_type_symbol
_atom_site_fract_x
_atom_site_fract_y
_atom_site_fract_z
Co2 Co 0.95937(7) 0.60542(10) 0.35138(5)
K2 K 1.00303(18) 0.2431(3) 0.45765(11)
O3 O 0.8889(4) 0.5067(9) 0.4235(3)
O4 O 1.0695(4) 0.5510(9) 0.4092(3)
N4 N 1.0317(4) 0.7091(11) 0.2836(3)
N5 N 0.8480(4) 0.6601(9) 0.2971(3)
N7 N 0.9393(7) 0.9416(14) 0.4230(4)
N8 N 0.9752(7) 0.2695(13) 0.2767(4)
C17 C 0.6658(8) 0.5177(17) 0.5105(6)
H11 H 0.6439 0.4901 0.5534
C18 C 1.3555(7) 0.565(2) 0.3583(6)
H12 H 1.4206 0.5650 0.3485
C19 C 1.3262(7) 0.4953(17) 0.4160(6)
H13 H 1.3729 0.4489 0.4453
C20 C 0.8755(5) 0.7110(11) 0.2275(4)
H14 H 0.8887 0.6111 0.2013
C21 C 0.9686(5) 0.8052(12) 0.2367(3)
H15 H 0.9535 0.9081 0.2602
C22 C 0.7595(7) 0.4855(16) 0.4954(4)
H16 H 0.7989 0.4287 0.5267
C23 C 1.2287(7) 0.4874(15) 0.4358(5)
H17 H 1.2113 0.4385 0.4766
C24 C 0.6013(7) 0.5923(16) 0.4620(5)
H18 H 0.5374 0.6123 0.4724
C25 C 1.0087(6) 0.8517(16) 0.1673(4)
H19 H 1.0688 0.9115 0.1740
H20 H 1.0213 0.7532 0.1411
C26 C 1.1228(6) 0.7101(13) 0.2811(4)
H21 H 1.1487 0.7678 0.2449
C27 C 1.2907(6) 0.6338(18) 0.3144(5)
H22 H 1.3117 0.6834 0.2747
C28 C 0.7978(7) 0.8104(15) 0.1871(5)
H23 H 0.7800 0.9068 0.2131
H24 H 0.7406 0.7435 0.1793
C29 C 0.7965(6) 0.5375(11) 0.4330(4)
C30 C 0.9471(6) 0.8169(14) 0.3950(4)
C31 C 1.1603(5) 0.5579(13) 0.3902(4)
C32 C 0.9690(6) 0.3997(11) 0.3041(4)
C33 C 0.7620(5) 0.6575(11) 0.3181(4)
C34 C 0.6344(6) 0.6326(16) 0.4016(5)
H25 H 0.5920 0.6773 0.3687
C35 C 0.7331(5) 0.6098(13) 0.3850(4)
C36 C 1.1904(6) 0.6322(16) 0.3278(5)
C42 C 0.9334(7) 0.9607(15) 0.1283(5)
H34 H 0.9575 0.9920 0.0842
H35 H 0.9219 1.0602 0.1543
C43 C 0.8382(7) 0.8632(17) 0.1182(4)
H36 H 0.7911 0.9311 0.0937
H37 H 0.8497 0.7663 0.0907
H40 H 0.712(4) 0.707(7) 0.285(3)
K2_2 K 1.00303(18) 1.2431(3) 0.45765(11)
K2A K 0.99697(18) 0.7431(3) 0.54235(11)
N7_2 N 0.9393(7) -0.0584(14) 0.4230(4)
N7A N 1.0607(7) 0.4416(14) 0.5770(4)
C30A C 1.0529(6) 0.3169(14) 0.6050(4)
O5 O 0.3565(11) 0.876(2) 0.1701(9)
O6 O 1.1502(15) 0.113(3) 0.3483(9)
Co1 Co 0.54435(7) 1.37000(11) 0.14857(5)
K1 K 0.49466(19) 1.7279(3) 0.04097(11)
O1 O 0.4782(4) 1.2906(10) 0.2251(3)
O2 O 0.6586(4) 1.3022(9) 0.1970(3)
N1 N 0.6086(4) 1.4526(9) 0.0710(3)
N2 N 0.4315(4) 1.4327(10) 0.0965(3)
N3 N 0.5447(9) 1.0260(15) 0.0830(4)
N6 N 0.5486(6) 1.7083(13) 0.2173(5)
C1 C 0.8986(8) 1.4363(19) 0.0325(5)
H1 H 0.9638 1.4335 0.0227
C2 C 0.1454(7) 1.377(2) 0.1453(6)
H2 H 0.0810 1.3638 0.1558
C3 C 0.1722(7) 1.450(2) 0.0845(6)
H3 H 0.1246 1.4855 0.0531
C4 C 0.7357(7) 1.5028(15) -0.0022(4)
H4 H 0.6926 1.5411 -0.0361
C5 C 0.2678(7) 1.4722(18) 0.0699(5)
H5 H 0.2835 1.5279 0.0302
C6 C 0.8682(7) 1.3786(19) 0.0926(5)
H6 H 0.9131 1.3341 0.1239
C7 C 0.5480(6) 1.5882(14) 0.1926(4)
C8 C 0.8313(8) 1.500(2) -0.0149(5)
H7 H 0.8523 1.5421 -0.0561
C9 C 0.6997(7) 1.4488(13) 0.0611(4)
C10 C 0.2201(6) 1.325(2) 0.1897(6)
H8 H 0.2036 1.2795 0.2315
C11 C 0.3837(6) 1.2847(14) 0.2283(5)
H9 H 0.3583 1.2435 0.2682
C12 C 0.7464(5) 1.3157(13) 0.1743(4)
H10 H 0.7968 1.2779 0.2027
C13 C 0.3450(7) 1.4092(15) 0.1156(5)
C14 C 0.7709(5) 1.3837(13) 0.1095(4)
C15 C 0.5396(7) 1.1534(15) 0.1087(5)
C16 C 0.3180(6) 1.3360(17) 0.1759(5)
C37 C 0.5860(7) 1.1263(15) 0.3953(4)
H26 H 0.5663 1.0461 0.4288
H27 H 0.5926 1.2316 0.4184
C38 C 0.5071(7) 1.1404(17) 0.3400(4)
H28 H 0.4481 1.1817 0.3590
H29 H 0.4941 1.0341 0.3191
C39 C 0.6391(5) 1.1993(11) 0.2569(4)
H30 H 0.6256 1.0877 0.2400
C40 C 0.5465(5) 1.2649(11) 0.2857(3)
H31 H 0.5595 1.3710 0.3080
C41 C 0.6831(8) 1.0766(14) 0.3698(5)
H32 H 0.7305 1.0817 0.4074
H33 H 0.6799 0.9636 0.3538
C44 C 0.7154(6) 1.1853(12) 0.3125(4)
H38 H 0.7735 1.1401 0.2936
H39 H 0.7305 1.2939 0.3304
K1_2 K 0.49466(19) 0.7279(3) 0.04097(11)
K1A K 0.50534(19) 1.2279(3) -0.04097(11)
N3_2 N 0.5447(9) 2.0260(15) 0.0830(4)
N3A N 0.4553(9) 1.5260(15) -0.0830(4)
C15A C 0.4604(7) 1.6534(15) -0.1087(5)
loop_
_geom_bond_atom_site_label_1
_geom_bond_atom_site_label_2
_geom_bond_site_symmetry_1
_geom_bond_site_symmetry_2
Co1 O1 1_555 1_555
Co2 O3 1_555 1_555
K1 N1 1_555 1_555
K2 O3 1_555 1_555
O1 C11 1_555 1_555
O2 Co1 1_555 1_555
O3 C29 1_555 1_555
O4 Co2 1_555 1_555
N1 Co1 1_555 1_555
N2 Co1 1_555 1_555
N3 C15 1_555 1_555
N4 Co2 1_555 1_555
N5 Co2 1_555 1_555
N6 C7 1_555 1_555
N7 C30 1_555 1_555
N8 C32 1_555 1_555
C1 H1 1_555 1_555
C2 H2 1_555 1_555
C3 C2 1_555 1_555
H3 C3 1_555 1_555
C4 H4 1_555 1_555
C5 C3 1_555 1_555
H5 C5 1_555 1_555
C6 C1 1_555 1_555
H6 C6 1_555 1_555
C7 Co1 1_555 1_555
C8 C1 1_555 1_555
H7 C8 1_555 1_555
C9 N1 1_555 1_555
C10 C2 1_555 1_555
H8 C10 1_555 1_555
C11 H9 1_555 1_555
C12 O2 1_555 1_555
H10 C12 1_555 1_555
C13 N2 1_555 1_555
C14 C6 1_555 1_555
C15 Co1 1_555 1_555
C16 C10 1_555 1_555
C17 H11 1_555 1_555
C18 H12 1_555 1_555
C19 C18 1_555 1_555
H13 C19 1_555 1_555
C20 N5 1_555 1_555
H14 C20 1_555 1_555
C21 N4 1_555 1_555
H15 C21 1_555 1_555
C22 C17 1_555 1_555
H16 C22 1_555 1_555
C23 C19 1_555 1_555
H17 C23 1_555 1_555
C24 C17 1_555 1_555
H18 C24 1_555 1_555
C25 C21 1_555 1_555
H19 C25 1_555 1_555
H20 C25 1_555 1_555
C26 N4 1_555 1_555
H21 C26 1_555 1_555
C27 C18 1_555 1_555
H22 C27 1_555 1_555
C28 C20 1_555 1_555
H23 C28 1_555 1_555
H24 C28 1_555 1_555
C29 C22 1_555 1_555
C30 Co2 1_555 1_555
C31 O4 1_555 1_555
C32 Co2 1_555 1_555
C33 N5 1_555 1_555
C34 C24 1_555 1_555
H25 C34 1_555 1_555
C35 C29 1_555 1_555
C36 C26 1_555 1_555
C37 H26 1_555 1_555
H27 C37 1_555 1_555
C38 C37 1_555 1_555
H28 C38 1_555 1_555
H29 C38 1_555 1_555
C39 O2 1_555 1_555
H30 C39 1_555 1_555
C40 O1 1_555 1_555
H31 C40 1_555 1_555
C41 C37 1_555 1_555
H32 C41 1_555 1_555
H33 C41 1_555 1_555
C42 C25 1_555 1_555
H34 C42 1_555 1_555
H35 C42 1_555 1_555
C43 C28 1_555 1_555
H36 C43 1_555 1_555
H37 C43 1_555 1_555
C44 C39 1_555 1_555
H38 C44 1_555 1_555
H39 C44 1_555 1_555
H40 C33 1_555 1_555
K1_2 N3 1_555 1_555
K1A N3 1_555 1_555
K2_2 N7 1_555 1_555
K2A N7 1_555 1_555
N3_2 K1 1_555 1_555
N3A K1 1_555 1_555
N7_2 K2 1_555 1_555
N7A K2 1_555 1_555
C15A K1 1_555 1_555
C30A K2 1_555 1_555
K1 N2 1_555 1_555
K2 O4 1_555 1_555
C4 C8 1_555 1_555
C4 C9 1_555 1_555
C5 C13 1_555 1_555
C9 C14 1_555 1_555
C11 C16 1_555 1_555
C12 C14 1_555 1_555
C13 C16 1_555 1_555
C15 K1A 1_555 1_555
C20 C21 1_555 1_555
C23 C31 1_555 1_555
C27 C36 1_555 1_555
C30 K2A 1_555 1_555
C31 C36 1_555 1_555
C33 C35 1_555 1_555
C34 C35 1_555 1_555
C38 C40 1_555 1_555
C39 C40 1_555 1_555
C41 C44 1_555 1_555
C42 C43 1_555 1_555
K1A N3A 1_555 1_555
K2A N7A 1_555 1_555
N3A C15A 1_555 1_555
N7A C30A 1_555 1_555

#END
