
#######################################################################
#
#                 Cambridge Crystallographic Data Centre
#                                CCDC 
#
#######################################################################
#
# If this CIF has been generated from an entry in the Cambridge 
# Structural Database, then it will include bibliographic, chemical, 
# crystal, experimental, refinement or atomic coordinate data resulting 
# from the CCDC's data processing and validation procedures.
#
#######################################################################

data_REGXOS
_symmetry_cell_setting           cubic
_symmetry_space_group_name_H-M   'I m -3 m'
_symmetry_Int_Tables_number      229
_space_group_name_Hall           '-I 4 2 3'
loop_
_symmetry_equiv_pos_site_id
_symmetry_equiv_pos_as_xyz
1 x,y,z
2 -y,x,z
3 -x,-y,z
4 y,-x,z
5 x,-y,-z
6 y,x,-z
7 -x,y,-z
8 -y,-x,-z
9 z,x,y
10 -x,z,y
11 -z,-x,y
12 x,-z,y
13 z,-x,-y
14 x,z,-y
15 -z,x,-y
16 -x,-z,-y
17 y,z,x
18 -z,-y,-x
19 -z,y,x
20 z,y,-x
21 z,-y,x
22 y,-z,-x
23 -y,-z,x
24 -y,z,-x
25 1/2+x,1/2+y,1/2+z
26 1/2-y,1/2+x,1/2+z
27 1/2-x,1/2-y,1/2+z
28 1/2+y,1/2-x,1/2+z
29 1/2+x,1/2-y,1/2-z
30 1/2+y,1/2+x,1/2-z
31 1/2-x,1/2+y,1/2-z
32 1/2-y,1/2-x,1/2-z
33 1/2+z,1/2+x,1/2+y
34 1/2-x,1/2+z,1/2+y
35 1/2-z,1/2-x,1/2+y
36 1/2+x,1/2-z,1/2+y
37 1/2+z,1/2-x,1/2-y
38 1/2+x,1/2+z,1/2-y
39 1/2-z,1/2+x,1/2-y
40 1/2-x,1/2-z,1/2-y
41 1/2+y,1/2+z,1/2+x
42 1/2-z,1/2-y,1/2-x
43 1/2-z,1/2+y,1/2+x
44 1/2+z,1/2+y,1/2-x
45 1/2+z,1/2-y,1/2+x
46 1/2+y,1/2-z,1/2-x
47 1/2-y,1/2-z,1/2+x
48 1/2-y,1/2+z,1/2-x
49 -x,-y,-z
50 y,-x,-z
51 x,y,-z
52 -y,x,-z
53 -x,y,z
54 -y,-x,z
55 x,-y,z
56 y,x,z
57 -z,-x,-y
58 x,-z,-y
59 z,x,-y
60 -x,z,-y
61 -z,x,y
62 -x,-z,y
63 z,-x,y
64 x,z,y
65 -y,-z,-x
66 z,y,x
67 z,-y,-x
68 -z,-y,x
69 -z,y,-x
70 -y,z,x
71 y,z,-x
72 y,-z,x
73 1/2-x,1/2-y,1/2-z
74 1/2+y,1/2-x,1/2-z
75 1/2+x,1/2+y,1/2-z
76 1/2-y,1/2+x,1/2-z
77 1/2-x,1/2+y,1/2+z
78 1/2-y,1/2-x,1/2+z
79 1/2+x,1/2-y,1/2+z
80 1/2+y,1/2+x,1/2+z
81 1/2-z,1/2-x,1/2-y
82 1/2+x,1/2-z,1/2-y
83 1/2+z,1/2+x,1/2-y
84 1/2-x,1/2+z,1/2-y
85 1/2-z,1/2+x,1/2+y
86 1/2-x,1/2-z,1/2+y
87 1/2+z,1/2-x,1/2+y
88 1/2+x,1/2+z,1/2+y
89 1/2-y,1/2-z,1/2-x
90 1/2+z,1/2+y,1/2+x
91 1/2+z,1/2-y,1/2-x
92 1/2-z,1/2-y,1/2+x
93 1/2-z,1/2+y,1/2-x
94 1/2-y,1/2+z,1/2+x
95 1/2+y,1/2+z,1/2-x
96 1/2+y,1/2-z,1/2+x
_cell_length_a                   29.0302(5)
_cell_length_b                   29.0302(5)
_cell_length_c                   29.0302(5)
_cell_angle_alpha                90
_cell_angle_beta                 90
_cell_angle_gamma                90
_cell_volume                     24465.3
loop_
_atom_site_label
_atom_site_type_symbol
_atom_site_fract_x
_atom_site_fract_y
_atom_site_fract_z
C1 C 0.6153(3) 0.8189(2) 0.1811(2)
C2 C 0.6600(2) 0.8738(2) 0.1607(2)
H1 H 0.6772 0.9009 0.1597
C3 C 0.6062(3) 1.0000 0.2493(5)
C4 C 0.6064(2) 0.9749(2) 0.1793(2)
H2 H 0.6069 0.9553 0.1540
Co1 Co 0.60503(3) 0.89497(3) 0.2500
N1 N 0.6308(2) 0.8613(2) 0.1960(3)
N2 N 0.5862(3) 0.79146(19) 0.20854(19)
N3 N 0.60542(18) 0.9635(2) 0.2231(3)
N4 N 0.6078(4) 1.0000 0.2992(6)
O1 O 0.6048(2) 0.9627(2) 0.3177(3)
O2 O 0.57420(18) 0.75384(14) 0.19425(17)
C2EB C 0.6600(2) 0.8393(2) 0.1262(2)
H1EB H 0.6772 0.8403 0.0991
C4BB C 0.6064(2) 1.0251(2) 0.1793(2)
H2BB H 0.6069 1.0447 0.1540
Co1EB Co 0.60503(3) 0.7500 0.10503(3)
Co1BB Co 0.60503(3) 1.10503(3) 0.2500
N1EB N 0.6308(2) 0.8040(3) 0.1387(2)
N1EA N 0.6387(2) 0.8692(2) 0.3040(3)
N3BB N 0.60542(18) 1.0365(2) 0.2231(3)
N3EA N 0.5365(2) 0.89458(18) 0.2769(3)
O1BB O 0.6048(2) 1.0373(2) 0.3177(3)
O2EB O 0.57420(18) 0.80575(17) 0.24616(14)
loop_
_geom_bond_atom_site_label_1
_geom_bond_atom_site_label_2
_geom_bond_site_symmetry_1
_geom_bond_site_symmetry_2
C1 N1 1_555 1_555
C2 H1 1_555 1_555
C3 N3 1_555 1_555
C4 H2 1_555 1_555
Co1 N1 1_555 1_555
N1 C2 1_555 1_555
N2 C1 1_555 1_555
N3 C4 1_555 1_555
N4 C3 1_555 1_555
O1 N4 1_555 1_555
O2 N2 1_555 1_555
C2EB C2 1_555 1_555
H1EB C2EB 1_555 1_555
C4BB C4 1_555 1_555
H2BB C4BB 1_555 1_555
Co1EB N1EB 1_555 1_555
Co1BB N3BB 1_555 1_555
N1EB C1 1_555 1_555
N1EA Co1 1_555 1_555
N3BB C3 1_555 1_555
N3EA Co1 1_555 1_555
O1BB N4 1_555 1_555
O2EB N2 1_555 1_555
Co1 N3 1_555 1_555
C2EB N1EB 1_555 1_555
C4BB N3BB 1_555 1_555

#END
