
#######################################################################
#
#                 Cambridge Crystallographic Data Centre
#                                CCDC 
#
#######################################################################
#
# If this CIF has been generated from an entry in the Cambridge 
# Structural Database, then it will include bibliographic, chemical, 
# crystal, experimental, refinement or atomic coordinate data resulting 
# from the CCDC's data processing and validation procedures.
#
#######################################################################

data_REGYOT
_symmetry_cell_setting           cubic
_symmetry_space_group_name_H-M   'F m -3 c'
_symmetry_Int_Tables_number      226
_space_group_name_Hall           '-F 4n 2 3'
loop_
_symmetry_equiv_pos_site_id
_symmetry_equiv_pos_as_xyz
1 x,y,z
2 -y,x,1/2+z
3 -x,-y,z
4 y,-x,1/2+z
5 x,-y,-z
6 y,x,1/2-z
7 -x,y,-z
8 -y,-x,1/2-z
9 z,x,y
10 -x,z,1/2+y
11 -z,-x,y
12 x,-z,1/2+y
13 z,-x,-y
14 x,z,1/2-y
15 -z,x,-y
16 -x,-z,1/2-y
17 y,z,x
18 1/2-z,-y,-x
19 1/2-z,y,x
20 1/2+z,y,-x
21 1/2+z,-y,x
22 y,1/2-z,1/2-x
23 -y,1/2-z,1/2+x
24 -y,1/2+z,1/2-x
25 x,1/2+y,1/2+z
26 -y,1/2+x,z
27 -x,1/2-y,1/2+z
28 y,1/2-x,z
29 x,1/2-y,1/2-z
30 y,1/2+x,-z
31 -x,1/2+y,1/2-z
32 -y,1/2-x,-z
33 z,1/2+x,1/2+y
34 -x,1/2+z,y
35 -z,1/2-x,1/2+y
36 x,1/2-z,y
37 z,1/2-x,1/2-y
38 x,1/2+z,-y
39 -z,1/2+x,1/2-y
40 -x,1/2-z,-y
41 y,1/2+z,1/2+x
42 1/2-z,1/2-y,1/2-x
43 1/2-z,1/2+y,1/2+x
44 1/2+z,1/2+y,1/2-x
45 1/2+z,1/2-y,1/2+x
46 y,-z,-x
47 -y,-z,x
48 -y,z,-x
49 1/2+x,y,1/2+z
50 1/2-y,x,z
51 1/2-x,-y,1/2+z
52 1/2+y,-x,z
53 1/2+x,-y,1/2-z
54 1/2+y,x,-z
55 1/2-x,y,1/2-z
56 1/2-y,-x,-z
57 1/2+z,x,1/2+y
58 1/2-x,z,y
59 1/2-z,-x,1/2+y
60 1/2+x,-z,y
61 1/2+z,-x,1/2-y
62 1/2+x,z,-y
63 1/2-z,x,1/2-y
64 1/2-x,-z,-y
65 1/2+y,z,1/2+x
66 -z,-y,1/2-x
67 -z,y,1/2+x
68 z,y,1/2-x
69 z,-y,1/2+x
70 1/2+y,1/2-z,-x
71 1/2-y,1/2-z,x
72 1/2-y,1/2+z,-x
73 1/2+x,1/2+y,z
74 1/2-y,1/2+x,1/2+z
75 1/2-x,1/2-y,z
76 1/2+y,1/2-x,1/2+z
77 1/2+x,1/2-y,-z
78 1/2+y,1/2+x,1/2-z
79 1/2-x,1/2+y,-z
80 1/2-y,1/2-x,1/2-z
81 1/2+z,1/2+x,y
82 1/2-x,1/2+z,1/2+y
83 1/2-z,1/2-x,y
84 1/2+x,1/2-z,1/2+y
85 1/2+z,1/2-x,-y
86 1/2+x,1/2+z,1/2-y
87 1/2-z,1/2+x,-y
88 1/2-x,1/2-z,1/2-y
89 1/2+y,1/2+z,x
90 -z,1/2-y,-x
91 -z,1/2+y,x
92 z,1/2+y,-x
93 z,1/2-y,x
94 1/2+y,-z,1/2-x
95 1/2-y,-z,1/2+x
96 1/2-y,z,1/2-x
97 -x,-y,-z
98 y,-x,1/2-z
99 x,y,-z
100 -y,x,1/2-z
101 -x,y,z
102 -y,-x,1/2+z
103 x,-y,z
104 y,x,1/2+z
105 -z,-x,-y
106 x,-z,1/2-y
107 z,x,-y
108 -x,z,1/2-y
109 -z,x,y
110 -x,-z,1/2+y
111 z,-x,y
112 x,z,1/2+y
113 -y,-z,-x
114 1/2+z,y,x
115 1/2+z,-y,-x
116 1/2-z,-y,x
117 1/2-z,y,-x
118 -y,1/2+z,1/2+x
119 y,1/2+z,1/2-x
120 y,1/2-z,1/2+x
121 -x,1/2-y,1/2-z
122 y,1/2-x,-z
123 x,1/2+y,1/2-z
124 -y,1/2+x,-z
125 -x,1/2+y,1/2+z
126 -y,1/2-x,z
127 x,1/2-y,1/2+z
128 y,1/2+x,z
129 -z,1/2-x,1/2-y
130 x,1/2-z,-y
131 z,1/2+x,1/2-y
132 -x,1/2+z,-y
133 -z,1/2+x,1/2+y
134 -x,1/2-z,y
135 z,1/2-x,1/2+y
136 x,1/2+z,y
137 -y,1/2-z,1/2-x
138 1/2+z,1/2+y,1/2+x
139 1/2+z,1/2-y,1/2-x
140 1/2-z,1/2-y,1/2+x
141 1/2-z,1/2+y,1/2-x
142 -y,z,x
143 y,z,-x
144 y,-z,x
145 1/2-x,-y,1/2-z
146 1/2+y,-x,-z
147 1/2+x,y,1/2-z
148 1/2-y,x,-z
149 1/2-x,y,1/2+z
150 1/2-y,-x,z
151 1/2+x,-y,1/2+z
152 1/2+y,x,z
153 1/2-z,-x,1/2-y
154 1/2+x,-z,-y
155 1/2+z,x,1/2-y
156 1/2-x,z,-y
157 1/2-z,x,1/2+y
158 1/2-x,-z,y
159 1/2+z,-x,1/2+y
160 1/2+x,z,y
161 1/2-y,-z,1/2-x
162 z,y,1/2+x
163 z,-y,1/2-x
164 -z,-y,1/2+x
165 -z,y,1/2-x
166 1/2-y,1/2+z,x
167 1/2+y,1/2+z,-x
168 1/2+y,1/2-z,x
169 1/2-x,1/2-y,-z
170 1/2+y,1/2-x,1/2-z
171 1/2+x,1/2+y,-z
172 1/2-y,1/2+x,1/2-z
173 1/2-x,1/2+y,z
174 1/2-y,1/2-x,1/2+z
175 1/2+x,1/2-y,z
176 1/2+y,1/2+x,1/2+z
177 1/2-z,1/2-x,-y
178 1/2+x,1/2-z,1/2-y
179 1/2+z,1/2+x,-y
180 1/2-x,1/2+z,1/2-y
181 1/2-z,1/2+x,y
182 1/2-x,1/2-z,1/2+y
183 1/2+z,1/2-x,y
184 1/2+x,1/2+z,1/2+y
185 1/2-y,1/2-z,-x
186 z,1/2+y,x
187 z,1/2-y,-x
188 -z,1/2-y,x
189 -z,1/2+y,-x
190 1/2-y,z,1/2+x
191 1/2+y,z,1/2-x
192 1/2+y,-z,1/2+x
_cell_length_a                   41.4543(15)
_cell_length_b                   41.4543(15)
_cell_length_c                   41.4543(15)
_cell_angle_alpha                90
_cell_angle_beta                 90
_cell_angle_gamma                90
_cell_volume                     71237.5
loop_
_atom_site_label
_atom_site_type_symbol
_atom_site_fract_x
_atom_site_fract_y
_atom_site_fract_z
Cu1 Cu 0.262905(6) 0.190603(6) 0.0000
Cl1 Cl 0.2500 0.2500 0.0000
O1 O 0.23442(3) 0.17463(4) 0.03324(3)
C1 C 0.20807(4) 0.18324(4) 0.04406(4)
C2 C 0.19621(4) 0.16588(5) 0.07350(4)
C3 C 0.16920(4) 0.17675(5) 0.08944(4)
H1 H 0.1584 0.1947 0.0815
C4 C 0.15746(5) 0.16165(5) 0.11729(5)
C5 C 0.17366(5) 0.13404(5) 0.12892(5)
C6 C 0.20130(6) 0.12362(6) 0.11241(6)
H2 H 0.2124 0.1057 0.1200
C7 C 0.21242(5) 0.13914(6) 0.08546(5)
H3 H 0.2309 0.1317 0.0751
O2 O 0.19033(3) 0.20463(4) 0.03349(4)
Cu1P Cu 0.190603(6) 0.0000 0.262905(6)
Cu1H Cu 0.0000 0.262905(6) 0.190603(6)
Cu1SA Cu 0.190603(6) 0.0000 -0.262905(6)
Cu1N Cu 0.0000 0.262905(6) -0.190603(6)
Cu1WA Cu 0.309397(6) 0.262905(6) 0.0000
Cu1R Cu 0.5000 0.190603(6) 0.262905(6)
Cu1EB Cu 0.237095(6) 0.0000 0.190603(6)
Cu1S Cu 0.5000 0.190603(6) -0.262905(6)
Cu1KB Cu 0.237095(6) 0.0000 -0.190603(6)
Cu1AA Cu 0.190603(6) 0.237095(6) 0.0000
Cu1OB Cu 0.0000 0.190603(6) 0.237095(6)
Cu1VB Cu 0.237095(6) 0.309397(6) 0.0000
Cu1NB Cu 0.0000 0.190603(6) -0.237095(6)
Cu1DC Cu 0.5000 0.237095(6) 0.190603(6)
Cu1QC Cu 0.309397(6) 0.0000 0.237095(6)
Cu1FC Cu 0.5000 0.237095(6) -0.190603(6)
Cu1PC Cu 0.309397(6) 0.0000 -0.237095(6)
Cu1M Cu 0.262905(6) 0.0000 0.309397(6)
Cu1J Cu 0.0000 -0.262905(6) 0.190603(6)
Cu1MB Cu 0.0000 -0.190603(6) 0.237095(6)
Cu1D Cu 0.262905(6) -0.190603(6) 0.0000
Cu1CA Cu 0.190603(6) -0.237095(6) 0.0000
Cu1E Cu 0.190603(6) 0.262905(6) 0.5000
Cu1BB Cu 0.237095(6) 0.190603(6) 0.5000
Cu1JA Cu 0.0000 0.237095(6) 0.309397(6)
Cu1C Cu 0.190603(6) -0.262905(6) 0.5000
Cu1XA Cu 0.237095(6) -0.190603(6) 0.5000
Cu1LA Cu 0.0000 -0.237095(6) 0.309397(6)
Cu1NC Cu 0.0000 0.309397(6) 0.262905(6)
Cu1F Cu -0.262905(6) 0.190603(6) 0.0000
Cu1EA Cu -0.190603(6) 0.237095(6) 0.0000
Cu1TA Cu -0.190603(6) 0.0000 0.262905(6)
Cu1GB Cu -0.237095(6) 0.0000 0.190603(6)
Cl1M Cl 0.2500 0.0000 0.2500
Cl1H Cl 0.0000 0.2500 0.2500
Cl1K Cl 0.2500 0.0000 -0.2500
Cl1N Cl 0.0000 0.2500 -0.2500
Cl1R Cl 0.5000 0.2500 0.2500
Cl1S Cl 0.5000 0.2500 -0.2500
O1P O 0.17463(4) 0.03324(3) 0.23442(3)
O1H O 0.03324(3) 0.23442(3) 0.17463(4)
O1TC O 0.23442(3) 0.17463(4) -0.03324(3)
O1LE O 0.17463(4) 0.03324(3) -0.23442(3)
O1BD O 0.03324(3) 0.23442(3) -0.17463(4)
O1WA O 0.32537(4) 0.23442(3) 0.03324(3)
O1R O 0.46676(3) 0.17463(4) 0.23442(3)
O1EB O 0.26558(3) 0.03324(3) 0.17463(4)
O1QE O 0.32537(4) 0.23442(3) -0.03324(3)
O1LD O 0.46676(3) 0.17463(4) -0.23442(3)
O1YE O 0.26558(3) 0.03324(3) -0.17463(4)
O1ME O 0.17463(4) -0.03324(3) 0.23442(3)
O1FD O 0.03324(3) -0.23442(3) 0.17463(4)
O1XC O 0.23442(3) -0.17463(4) 0.03324(3)
O1M O 0.23442(3) 0.03324(3) 0.32537(4)
O1E O 0.17463(4) 0.23442(3) 0.46676(3)
O1OB O 0.03324(3) 0.17463(4) 0.26558(3)
O1AD O 0.23442(3) -0.03324(3) 0.32537(4)
O1SC O 0.17463(4) -0.23442(3) 0.46676(3)
O1FF O 0.03324(3) -0.17463(4) 0.26558(3)
O1DD O -0.03324(3) 0.23442(3) 0.17463(4)
O1VC O -0.23442(3) 0.17463(4) 0.03324(3)
O1KE O -0.17463(4) 0.03324(3) 0.23442(3)
O1SA O 0.17463(4) -0.03324(3) -0.23442(3)
O1N O -0.03324(3) 0.23442(3) -0.17463(4)
O1ID O 0.53324(3) 0.17463(4) 0.23442(3)
O1AF O 0.26558(3) -0.03324(3) 0.17463(4)
O1S O 0.53324(3) 0.17463(4) -0.23442(3)
O1KB O 0.26558(3) -0.03324(3) -0.17463(4)
O1AA O 0.17463(4) 0.26558(3) 0.03324(3)
O1QD O 0.17463(4) 0.26558(3) -0.03324(3)
O1HF O -0.03324(3) 0.17463(4) 0.26558(3)
C1P C 0.18324(4) 0.04406(4) 0.20807(4)
C1H C 0.04406(4) 0.20807(4) 0.18324(4)
C1TC C 0.20807(4) 0.18324(4) -0.04406(4)
C1LE C 0.18324(4) 0.04406(4) -0.20807(4)
C1BD C 0.04406(4) 0.20807(4) -0.18324(4)
C1WA C 0.31676(4) 0.20807(4) 0.04406(4)
C1R C 0.45594(4) 0.18324(4) 0.20807(4)
C1EB C 0.29193(4) 0.04406(4) 0.18324(4)
C1QE C 0.31676(4) 0.20807(4) -0.04406(4)
C1LD C 0.45594(4) 0.18324(4) -0.20807(4)
C1YE C 0.29193(4) 0.04406(4) -0.18324(4)
C1ME C 0.18324(4) -0.04406(4) 0.20807(4)
C1FD C 0.04406(4) -0.20807(4) 0.18324(4)
C1XC C 0.20807(4) -0.18324(4) 0.04406(4)
C1M C 0.20807(4) 0.04406(4) 0.31676(4)
C1E C 0.18324(4) 0.20807(4) 0.45594(4)
C1OB C 0.04406(4) 0.18324(4) 0.29193(4)
C1AD C 0.20807(4) -0.04406(4) 0.31676(4)
C1SC C 0.18324(4) -0.20807(4) 0.45594(4)
C1FF C 0.04406(4) -0.18324(4) 0.29193(4)
C1DD C -0.04406(4) 0.20807(4) 0.18324(4)
C1VC C -0.20807(4) 0.18324(4) 0.04406(4)
C1KE C -0.18324(4) 0.04406(4) 0.20807(4)
C2P C 0.16588(5) 0.07350(4) 0.19621(4)
C2H C 0.07350(4) 0.19621(4) 0.16588(5)
C2TC C 0.19621(4) 0.16588(5) -0.07350(4)
C2LE C 0.16588(5) 0.07350(4) -0.19621(4)
C2BD C 0.07350(4) 0.19621(4) -0.16588(5)
C2WA C 0.33412(5) 0.19621(4) 0.07350(4)
C2R C 0.42650(4) 0.16588(5) 0.19621(4)
C2EB C 0.30379(4) 0.07350(4) 0.16588(5)
C2QE C 0.33412(5) 0.19621(4) -0.07350(4)
C2LD C 0.42650(4) 0.16588(5) -0.19621(4)
C2YE C 0.30379(4) 0.07350(4) -0.16588(5)
C2ME C 0.16588(5) -0.07350(4) 0.19621(4)
C2FD C 0.07350(4) -0.19621(4) 0.16588(5)
C2XC C 0.19621(4) -0.16588(5) 0.07350(4)
C2M C 0.19621(4) 0.07350(4) 0.33412(5)
C2E C 0.16588(5) 0.19621(4) 0.42650(4)
C2OB C 0.07350(4) 0.16588(5) 0.30379(4)
C2AD C 0.19621(4) -0.07350(4) 0.33412(5)
C2SC C 0.16588(5) -0.19621(4) 0.42650(4)
C2FF C 0.07350(4) -0.16588(5) 0.30379(4)
C2DD C -0.07350(4) 0.19621(4) 0.16588(5)
C2VC C -0.19621(4) 0.16588(5) 0.07350(4)
C2KE C -0.16588(5) 0.07350(4) 0.19621(4)
C3P C 0.17675(5) 0.08944(4) 0.16920(4)
C3H C 0.08944(4) 0.16920(4) 0.17675(5)
C3TC C 0.16920(4) 0.17675(5) -0.08944(4)
C3LE C 0.17675(5) 0.08944(4) -0.16920(4)
C3BD C 0.08944(4) 0.16920(4) -0.17675(5)
C3WA C 0.32325(5) 0.16920(4) 0.08944(4)
C3R C 0.41056(4) 0.17675(5) 0.16920(4)
C3EB C 0.33080(4) 0.08944(4) 0.17675(5)
C3QE C 0.32325(5) 0.16920(4) -0.08944(4)
C3LD C 0.41056(4) 0.17675(5) -0.16920(4)
C3YE C 0.33080(4) 0.08944(4) -0.17675(5)
C3ME C 0.17675(5) -0.08944(4) 0.16920(4)
C3FD C 0.08944(4) -0.16920(4) 0.17675(5)
C3XC C 0.16920(4) -0.17675(5) 0.08944(4)
C3M C 0.16920(4) 0.08944(4) 0.32325(5)
C3E C 0.17675(5) 0.16920(4) 0.41056(4)
C3OB C 0.08944(4) 0.17675(5) 0.33080(4)
C3AD C 0.16920(4) -0.08944(4) 0.32325(5)
C3SC C 0.17675(5) -0.16920(4) 0.41056(4)
C3FF C 0.08944(4) -0.17675(5) 0.33080(4)
C3DD C -0.08944(4) 0.16920(4) 0.17675(5)
C3VC C -0.16920(4) 0.17675(5) 0.08944(4)
C3KE C -0.17675(5) 0.08944(4) 0.16920(4)
H1H H 0.0815 0.1584 0.1947
H1P H 0.1947 0.0815 0.1584
H1TC H 0.1584 0.1947 -0.0815
H1BD H 0.0815 0.1584 -0.1947
H1LE H 0.1947 0.0815 -0.1584
H1WA H 0.3053 0.1584 0.0815
H1EB H 0.3416 0.0815 0.1947
H1R H 0.4185 0.1947 0.1584
H1QE H 0.3053 0.1584 -0.0815
H1YE H 0.3416 0.0815 -0.1947
H1LD H 0.4185 0.1947 -0.1584
H1ME H 0.1947 -0.0815 0.1584
H1XC H 0.1584 -0.1947 0.0815
H1FD H 0.0815 -0.1584 0.1947
H1M H 0.1584 0.0815 0.3053
H1OB H 0.0815 0.1947 0.3416
H1E H 0.1947 0.1584 0.4185
H1AD H 0.1584 -0.0815 0.3053
H1FF H 0.0815 -0.1947 0.3416
H1SC H 0.1947 -0.1584 0.4185
H1DD H -0.0815 0.1584 0.1947
H1KE H -0.1947 0.0815 0.1584
H1VC H -0.1584 0.1947 0.0815
C4P C 0.16165(5) 0.11729(5) 0.15746(5)
C4H C 0.11729(5) 0.15746(5) 0.16165(5)
C4TC C 0.15746(5) 0.16165(5) -0.11729(5)
C4LE C 0.16165(5) 0.11729(5) -0.15746(5)
C4BD C 0.11729(5) 0.15746(5) -0.16165(5)
C4WA C 0.33835(5) 0.15746(5) 0.11729(5)
C4R C 0.38271(5) 0.16165(5) 0.15746(5)
C4EB C 0.34254(5) 0.11729(5) 0.16165(5)
C4QE C 0.33835(5) 0.15746(5) -0.11729(5)
C4LD C 0.38271(5) 0.16165(5) -0.15746(5)
C4YE C 0.34254(5) 0.11729(5) -0.16165(5)
C4ME C 0.16165(5) -0.11729(5) 0.15746(5)
C4FD C 0.11729(5) -0.15746(5) 0.16165(5)
C4XC C 0.15746(5) -0.16165(5) 0.11729(5)
C4M C 0.15746(5) 0.11729(5) 0.33835(5)
C4E C 0.16165(5) 0.15746(5) 0.38271(5)
C4OB C 0.11729(5) 0.16165(5) 0.34254(5)
C4AD C 0.15746(5) -0.11729(5) 0.33835(5)
C4SC C 0.16165(5) -0.15746(5) 0.38271(5)
C4FF C 0.11729(5) -0.16165(5) 0.34254(5)
C4DD C -0.11729(5) 0.15746(5) 0.16165(5)
C4VC C -0.15746(5) 0.16165(5) 0.11729(5)
C4KE C -0.16165(5) 0.11729(5) 0.15746(5)
C5P C 0.13404(5) 0.12892(5) 0.17366(5)
C5H C 0.12892(5) 0.17366(5) 0.13404(5)
C5TC C 0.17366(5) 0.13404(5) -0.12892(5)
C5LE C 0.13404(5) 0.12892(5) -0.17366(5)
C5BD C 0.12892(5) 0.17366(5) -0.13404(5)
C5WA C 0.36596(5) 0.17366(5) 0.12892(5)
C5R C 0.37108(5) 0.13404(5) 0.17366(5)
C5EB C 0.32634(5) 0.12892(5) 0.13404(5)
C5QE C 0.36596(5) 0.17366(5) -0.12892(5)
C5LD C 0.37108(5) 0.13404(5) -0.17366(5)
C5YE C 0.32634(5) 0.12892(5) -0.13404(5)
C5ME C 0.13404(5) -0.12892(5) 0.17366(5)
C5FD C 0.12892(5) -0.17366(5) 0.13404(5)
C5XC C 0.17366(5) -0.13404(5) 0.12892(5)
C5M C 0.17366(5) 0.12892(5) 0.36596(5)
C5E C 0.13404(5) 0.17366(5) 0.37108(5)
C5OB C 0.12892(5) 0.13404(5) 0.32634(5)
C5AD C 0.17366(5) -0.12892(5) 0.36596(5)
C5SC C 0.13404(5) -0.17366(5) 0.37108(5)
C5FF C 0.12892(5) -0.13404(5) 0.32634(5)
C5DD C -0.12892(5) 0.17366(5) 0.13404(5)
C5VC C -0.17366(5) 0.13404(5) 0.12892(5)
C5KE C -0.13404(5) 0.12892(5) 0.17366(5)
C6P C 0.12362(6) 0.11241(6) 0.20130(6)
C6H C 0.11241(6) 0.20130(6) 0.12362(6)
C6TC C 0.20130(6) 0.12362(6) -0.11241(6)
C6LE C 0.12362(6) 0.11241(6) -0.20130(6)
C6BD C 0.11241(6) 0.20130(6) -0.12362(6)
C6WA C 0.37638(6) 0.20130(6) 0.11241(6)
C6R C 0.38759(6) 0.12362(6) 0.20130(6)
C6EB C 0.29870(6) 0.11241(6) 0.12362(6)
C6QE C 0.37638(6) 0.20130(6) -0.11241(6)
C6LD C 0.38759(6) 0.12362(6) -0.20130(6)
C6YE C 0.29870(6) 0.11241(6) -0.12362(6)
C6ME C 0.12362(6) -0.11241(6) 0.20130(6)
C6FD C 0.11241(6) -0.20130(6) 0.12362(6)
C6XC C 0.20130(6) -0.12362(6) 0.11241(6)
C6M C 0.20130(6) 0.11241(6) 0.37638(6)
C6E C 0.12362(6) 0.20130(6) 0.38759(6)
C6OB C 0.11241(6) 0.12362(6) 0.29870(6)
C6AD C 0.20130(6) -0.11241(6) 0.37638(6)
C6SC C 0.12362(6) -0.20130(6) 0.38759(6)
C6FF C 0.11241(6) -0.12362(6) 0.29870(6)
C6DD C -0.11241(6) 0.20130(6) 0.12362(6)
C6VC C -0.20130(6) 0.12362(6) 0.11241(6)
C6KE C -0.12362(6) 0.11241(6) 0.20130(6)
H2H H 0.1200 0.2124 0.1057
H2P H 0.1057 0.1200 0.2124
H2TC H 0.2124 0.1057 -0.1200
H2BD H 0.1200 0.2124 -0.1057
H2LE H 0.1057 0.1200 -0.2124
H2WA H 0.3943 0.2124 0.1200
H2EB H 0.2876 0.1200 0.1057
H2R H 0.3800 0.1057 0.2124
H2QE H 0.3943 0.2124 -0.1200
H2YE H 0.2876 0.1200 -0.1057
H2LD H 0.3800 0.1057 -0.2124
H2ME H 0.1057 -0.1200 0.2124
H2XC H 0.2124 -0.1057 0.1200
H2FD H 0.1200 -0.2124 0.1057
H2M H 0.2124 0.1200 0.3943
H2OB H 0.1200 0.1057 0.2876
H2E H 0.1057 0.2124 0.3800
H2AD H 0.2124 -0.1200 0.3943
H2FF H 0.1200 -0.1057 0.2876
H2SC H 0.1057 -0.2124 0.3800
H2DD H -0.1200 0.2124 0.1057
H2KE H -0.1057 0.1200 0.2124
H2VC H -0.2124 0.1057 0.1200
C7P C 0.13914(6) 0.08546(5) 0.21242(5)
C7H C 0.08546(5) 0.21242(5) 0.13914(6)
C7TC C 0.21242(5) 0.13914(6) -0.08546(5)
C7LE C 0.13914(6) 0.08546(5) -0.21242(5)
C7BD C 0.08546(5) 0.21242(5) -0.13914(6)
C7WA C 0.36086(6) 0.21242(5) 0.08546(5)
C7R C 0.41454(5) 0.13914(6) 0.21242(5)
C7EB C 0.28758(5) 0.08546(5) 0.13914(6)
C7QE C 0.36086(6) 0.21242(5) -0.08546(5)
C7LD C 0.41454(5) 0.13914(6) -0.21242(5)
C7YE C 0.28758(5) 0.08546(5) -0.13914(6)
C7ME C 0.13914(6) -0.08546(5) 0.21242(5)
C7FD C 0.08546(5) -0.21242(5) 0.13914(6)
C7XC C 0.21242(5) -0.13914(6) 0.08546(5)
C7M C 0.21242(5) 0.08546(5) 0.36086(6)
C7E C 0.13914(6) 0.21242(5) 0.41454(5)
C7OB C 0.08546(5) 0.13914(6) 0.28758(5)
C7AD C 0.21242(5) -0.08546(5) 0.36086(6)
C7SC C 0.13914(6) -0.21242(5) 0.41454(5)
C7FF C 0.08546(5) -0.13914(6) 0.28758(5)
C7DD C -0.08546(5) 0.21242(5) 0.13914(6)
C7VC C -0.21242(5) 0.13914(6) 0.08546(5)
C7KE C -0.13914(6) 0.08546(5) 0.21242(5)
H3H H 0.0751 0.2309 0.1317
H3P H 0.1317 0.0751 0.2309
H3TC H 0.2309 0.1317 -0.0751
H3BD H 0.0751 0.2309 -0.1317
H3LE H 0.1317 0.0751 -0.2309
H3WA H 0.3683 0.2309 0.0751
H3EB H 0.2691 0.0751 0.1317
H3R H 0.4249 0.1317 0.2309
H3QE H 0.3683 0.2309 -0.0751
H3YE H 0.2691 0.0751 -0.1317
H3LD H 0.4249 0.1317 -0.2309
H3ME H 0.1317 -0.0751 0.2309
H3XC H 0.2309 -0.1317 0.0751
H3FD H 0.0751 -0.2309 0.1317
H3M H 0.2309 0.0751 0.3683
H3OB H 0.0751 0.1317 0.2691
H3E H 0.1317 0.2309 0.4249
H3AD H 0.2309 -0.0751 0.3683
H3FF H 0.0751 -0.1317 0.2691
H3SC H 0.1317 -0.2309 0.4249
H3DD H -0.0751 0.2309 0.1317
H3KE H -0.1317 0.0751 0.2309
H3VC H -0.2309 0.1317 0.0751
O2P O 0.20463(4) 0.03349(4) 0.19033(3)
O2H O 0.03349(4) 0.19033(3) 0.20463(4)
O2TC O 0.19033(3) 0.20463(4) -0.03349(4)
O2LE O 0.20463(4) 0.03349(4) -0.19033(3)
O2BD O 0.03349(4) 0.19033(3) -0.20463(4)
O2WA O 0.29537(4) 0.19033(3) 0.03349(4)
O2R O 0.46651(4) 0.20463(4) 0.19033(3)
O2EB O 0.30967(3) 0.03349(4) 0.20463(4)
O2QE O 0.29537(4) 0.19033(3) -0.03349(4)
O2LD O 0.46651(4) 0.20463(4) -0.19033(3)
O2YE O 0.30967(3) 0.03349(4) -0.20463(4)
O2ME O 0.20463(4) -0.03349(4) 0.19033(3)
O2FD O 0.03349(4) -0.19033(3) 0.20463(4)
O2XC O 0.19033(3) -0.20463(4) 0.03349(4)
O2M O 0.19033(3) 0.03349(4) 0.29537(4)
O2E O 0.20463(4) 0.19033(3) 0.46651(4)
O2OB O 0.03349(4) 0.20463(4) 0.30967(3)
O2AD O 0.19033(3) -0.03349(4) 0.29537(4)
O2SC O 0.20463(4) -0.19033(3) 0.46651(4)
O2FF O 0.03349(4) -0.20463(4) 0.30967(3)
O2DD O -0.03349(4) 0.19033(3) 0.20463(4)
O2VC O -0.19033(3) 0.20463(4) 0.03349(4)
O2KE O -0.20463(4) 0.03349(4) 0.19033(3)
O2NC O 0.03349(4) 0.29537(4) 0.19033(3)
O2EG O -0.03349(4) 0.29537(4) 0.19033(3)
O2GD O 0.19033(3) 0.03349(4) -0.29537(4)
O2K O 0.19033(3) -0.03349(4) -0.29537(4)
O2DG O 0.03349(4) 0.29537(4) -0.19033(3)
O2KC O -0.03349(4) 0.29537(4) -0.19033(3)
O2VB O 0.30967(3) 0.29537(4) 0.03349(4)
O2LF O 0.30967(3) 0.29537(4) -0.03349(4)
O2JB O 0.46651(4) 0.19033(3) 0.29537(4)
O2XE O 0.53349(4) 0.19033(3) 0.29537(4)
O2ZE O 0.46651(4) 0.19033(3) -0.29537(4)
O2DB O 0.53349(4) 0.19033(3) -0.29537(4)
O2SA O 0.20463(4) -0.03349(4) -0.19033(3)
loop_
_geom_bond_atom_site_label_1
_geom_bond_atom_site_label_2
_geom_bond_site_symmetry_1
_geom_bond_site_symmetry_2
Cu1 Cl1 1_555 1_555
Cl1 Cu1WA 1_555 1_555
O1 Cu1 1_555 1_555
C1 O1 1_555 1_555
C2 C1 1_555 1_555
C3 C2 1_555 1_555
H1 C3 1_555 1_555
C4 C3 1_555 1_555
C5 C4 1_555 1_555
C6 C5 1_555 1_555
H2 C6 1_555 1_555
C7 C2 1_555 1_555
H3 C7 1_555 1_555
O2 C1 1_555 1_555
Cu1P Cl1M 1_555 1_555
Cu1H Cl1H 1_555 1_555
Cu1SA Cl1K 1_555 1_555
Cu1N Cl1N 1_555 1_555
Cu1WA O1WA 1_555 1_555
Cu1R Cl1R 1_555 1_555
Cu1EB Cl1M 1_555 1_555
Cu1S Cl1S 1_555 1_555
Cu1KB Cl1K 1_555 1_555
Cu1AA Cl1 1_555 1_555
Cu1OB Cl1H 1_555 1_555
Cu1VB Cl1 1_555 1_555
Cu1NB Cl1N 1_555 1_555
Cu1DC Cl1R 1_555 1_555
Cu1QC Cl1M 1_555 1_555
Cu1FC Cl1S 1_555 1_555
Cu1PC Cl1K 1_555 1_555
Cu1M Cl1M 1_555 1_555
Cu1J O1FD 1_555 1_555
Cu1MB O1FF 1_555 1_555
Cu1D O1XC 1_555 1_555
Cu1CA O2XC 1_555 1_555
Cu1E O1E 1_555 1_555
Cu1BB O2E 1_555 1_555
Cu1JA Cl1H 1_555 1_555
Cu1C O1SC 1_555 1_555
Cu1XA O2SC 1_555 1_555
Cu1LA O2FF 1_555 1_555
Cu1NC Cl1H 1_555 1_555
Cu1F O1VC 1_555 1_555
Cu1EA O2VC 1_555 1_555
Cu1TA O1KE 1_555 1_555
Cu1GB O2KE 1_555 1_555
O1P Cu1P 1_555 1_555
O1H Cu1H 1_555 1_555
O1TC Cu1 1_555 1_555
O1LE Cu1SA 1_555 1_555
O1BD Cu1N 1_555 1_555
O1WA C1WA 1_555 1_555
O1R Cu1R 1_555 1_555
O1EB Cu1EB 1_555 1_555
O1QE Cu1WA 1_555 1_555
O1LD Cu1S 1_555 1_555
O1YE Cu1KB 1_555 1_555
O1ME Cu1P 1_555 1_555
O1FD C1FD 1_555 1_555
O1XC C1XC 1_555 1_555
O1M Cu1M 1_555 1_555
O1E C1E 1_555 1_555
O1OB Cu1OB 1_555 1_555
O1AD Cu1M 1_555 1_555
O1SC C1SC 1_555 1_555
O1FF C1FF 1_555 1_555
O1DD Cu1H 1_555 1_555
O1VC C1VC 1_555 1_555
O1KE C1KE 1_555 1_555
O1SA Cu1SA 1_555 1_555
O1N Cu1N 1_555 1_555
O1ID Cu1R 1_555 1_555
O1AF Cu1EB 1_555 1_555
O1S Cu1S 1_555 1_555
O1KB Cu1KB 1_555 1_555
O1AA Cu1AA 1_555 1_555
O1QD Cu1AA 1_555 1_555
O1HF Cu1OB 1_555 1_555
C1P O1P 1_555 1_555
C1H O1H 1_555 1_555
C1TC O1TC 1_555 1_555
C1LE O1LE 1_555 1_555
C1BD O1BD 1_555 1_555
C1WA C2WA 1_555 1_555
C1R O1R 1_555 1_555
C1EB O1EB 1_555 1_555
C1QE O1QE 1_555 1_555
C1LD O1LD 1_555 1_555
C1YE O1YE 1_555 1_555
C1ME O1ME 1_555 1_555
C1FD C2FD 1_555 1_555
C1XC C2XC 1_555 1_555
C1M O1M 1_555 1_555
C1E C2E 1_555 1_555
C1OB O1OB 1_555 1_555
C1AD O1AD 1_555 1_555
C1SC C2SC 1_555 1_555
C1FF C2FF 1_555 1_555
C1DD O1DD 1_555 1_555
C1VC C2VC 1_555 1_555
C1KE C2KE 1_555 1_555
C2P C1P 1_555 1_555
C2H C1H 1_555 1_555
C2TC C1TC 1_555 1_555
C2LE C1LE 1_555 1_555
C2BD C1BD 1_555 1_555
C2WA C3WA 1_555 1_555
C2R C1R 1_555 1_555
C2EB C1EB 1_555 1_555
C2QE C1QE 1_555 1_555
C2LD C1LD 1_555 1_555
C2YE C1YE 1_555 1_555
C2ME C1ME 1_555 1_555
C2FD C3FD 1_555 1_555
C2XC C3XC 1_555 1_555
C2M C1M 1_555 1_555
C2E C3E 1_555 1_555
C2OB C1OB 1_555 1_555
C2AD C1AD 1_555 1_555
C2SC C3SC 1_555 1_555
C2FF C3FF 1_555 1_555
C2DD C1DD 1_555 1_555
C2VC C3VC 1_555 1_555
C2KE C3KE 1_555 1_555
C3P C2P 1_555 1_555
C3H C2H 1_555 1_555
C3TC C2TC 1_555 1_555
C3LE C2LE 1_555 1_555
C3BD C2BD 1_555 1_555
C3WA H1WA 1_555 1_555
C3R C2R 1_555 1_555
C3EB C2EB 1_555 1_555
C3QE C2QE 1_555 1_555
C3LD C2LD 1_555 1_555
C3YE C2YE 1_555 1_555
C3ME C2ME 1_555 1_555
C3FD H1FD 1_555 1_555
C3XC H1XC 1_555 1_555
C3M C2M 1_555 1_555
C3E H1E 1_555 1_555
C3OB C2OB 1_555 1_555
C3AD C2AD 1_555 1_555
C3SC H1SC 1_555 1_555
C3FF H1FF 1_555 1_555
C3DD C2DD 1_555 1_555
C3VC H1VC 1_555 1_555
C3KE H1KE 1_555 1_555
H1H C3H 1_555 1_555
H1P C3P 1_555 1_555
H1TC C3TC 1_555 1_555
H1BD C3BD 1_555 1_555
H1LE C3LE 1_555 1_555
H1EB C3EB 1_555 1_555
H1R C3R 1_555 1_555
H1QE C3QE 1_555 1_555
H1YE C3YE 1_555 1_555
H1LD C3LD 1_555 1_555
H1ME C3ME 1_555 1_555
H1M C3M 1_555 1_555
H1OB C3OB 1_555 1_555
H1AD C3AD 1_555 1_555
H1DD C3DD 1_555 1_555
C4P C5 1_555 1_555
C4H C3H 1_555 1_555
C4TC C3TC 1_555 1_555
C4LE C3LE 1_555 1_555
C4BD C3BD 1_555 1_555
C4WA C3WA 1_555 1_555
C4R C3R 1_555 1_555
C4EB C3EB 1_555 1_555
C4QE C3QE 1_555 1_555
C4LD C3LD 1_555 1_555
C4YE C3YE 1_555 1_555
C4ME C3ME 1_555 1_555
C4FD C3FD 1_555 1_555
C4XC C3XC 1_555 1_555
C4M C3M 1_555 1_555
C4E C3E 1_555 1_555
C4OB C3OB 1_555 1_555
C4AD C3AD 1_555 1_555
C4SC C3SC 1_555 1_555
C4FF C3FF 1_555 1_555
C4DD C3DD 1_555 1_555
C4VC C3VC 1_555 1_555
C4KE C3KE 1_555 1_555
C5P C4P 1_555 1_555
C5H C4 1_555 1_555
C5TC C4TC 1_555 1_555
C5LE C4LE 1_555 1_555
C5BD C4TC 1_555 1_555
C5WA C4WA 1_555 1_555
C5R C4R 1_555 1_555
C5EB C4WA 1_555 1_555
C5QE C4QE 1_555 1_555
C5LD C4LD 1_555 1_555
C5YE C4QE 1_555 1_555
C5ME C4ME 1_555 1_555
C5FD C4FD 1_555 1_555
C5XC C4ME 1_555 1_555
C5M C4M 1_555 1_555
C5E C4E 1_555 1_555
C5OB C4M 1_555 1_555
C5AD C4AD 1_555 1_555
C5SC C4SC 1_555 1_555
C5FF C4AD 1_555 1_555
C5DD C4DD 1_555 1_555
C5VC C4VC 1_555 1_555
C5KE C4DD 1_555 1_555
C6P C5P 1_555 1_555
C6H C5H 1_555 1_555
C6TC C5TC 1_555 1_555
C6LE C5LE 1_555 1_555
C6BD C5BD 1_555 1_555
C6WA C5WA 1_555 1_555
C6R C5R 1_555 1_555
C6EB C5EB 1_555 1_555
C6QE C5QE 1_555 1_555
C6LD C5LD 1_555 1_555
C6YE C5YE 1_555 1_555
C6ME C5ME 1_555 1_555
C6FD C5FD 1_555 1_555
C6XC C5XC 1_555 1_555
C6M C5M 1_555 1_555
C6E C5E 1_555 1_555
C6OB C5OB 1_555 1_555
C6AD C5AD 1_555 1_555
C6SC C5SC 1_555 1_555
C6FF C5FF 1_555 1_555
C6DD C5DD 1_555 1_555
C6VC C5VC 1_555 1_555
C6KE C5KE 1_555 1_555
H2H C6H 1_555 1_555
H2P C6P 1_555 1_555
H2TC C6TC 1_555 1_555
H2BD C6BD 1_555 1_555
H2LE C6LE 1_555 1_555
H2WA C6WA 1_555 1_555
H2EB C6EB 1_555 1_555
H2R C6R 1_555 1_555
H2QE C6QE 1_555 1_555
H2YE C6YE 1_555 1_555
H2LD C6LD 1_555 1_555
H2ME C6ME 1_555 1_555
H2XC C6XC 1_555 1_555
H2FD C6FD 1_555 1_555
H2M C6M 1_555 1_555
H2OB C6OB 1_555 1_555
H2E C6E 1_555 1_555
H2AD C6AD 1_555 1_555
H2FF C6FF 1_555 1_555
H2SC C6SC 1_555 1_555
H2DD C6DD 1_555 1_555
H2KE C6KE 1_555 1_555
H2VC C6VC 1_555 1_555
C7P C2P 1_555 1_555
C7H C2H 1_555 1_555
C7TC C2TC 1_555 1_555
C7LE C2LE 1_555 1_555
C7BD C2BD 1_555 1_555
C7WA C2WA 1_555 1_555
C7R C2R 1_555 1_555
C7EB C2EB 1_555 1_555
C7QE C2QE 1_555 1_555
C7LD C2LD 1_555 1_555
C7YE C2YE 1_555 1_555
C7ME C2ME 1_555 1_555
C7FD C2FD 1_555 1_555
C7XC C2XC 1_555 1_555
C7M C2M 1_555 1_555
C7E C2E 1_555 1_555
C7OB C2OB 1_555 1_555
C7AD C2AD 1_555 1_555
C7SC C2SC 1_555 1_555
C7FF C2FF 1_555 1_555
C7DD C2DD 1_555 1_555
C7VC C2VC 1_555 1_555
C7KE C2KE 1_555 1_555
H3H C7H 1_555 1_555
H3P C7P 1_555 1_555
H3TC C7TC 1_555 1_555
H3BD C7BD 1_555 1_555
H3LE C7LE 1_555 1_555
H3WA C7WA 1_555 1_555
H3EB C7EB 1_555 1_555
H3R C7R 1_555 1_555
H3QE C7QE 1_555 1_555
H3YE C7YE 1_555 1_555
H3LD C7LD 1_555 1_555
H3ME C7ME 1_555 1_555
H3XC C7XC 1_555 1_555
H3FD C7FD 1_555 1_555
H3M C7M 1_555 1_555
H3OB C7OB 1_555 1_555
H3E C7E 1_555 1_555
H3AD C7AD 1_555 1_555
H3FF C7FF 1_555 1_555
H3SC C7SC 1_555 1_555
H3DD C7DD 1_555 1_555
H3KE C7KE 1_555 1_555
H3VC C7VC 1_555 1_555
O2P Cu1EB 1_555 1_555
O2H Cu1OB 1_555 1_555
O2TC Cu1AA 1_555 1_555
O2LE Cu1KB 1_555 1_555
O2BD Cu1NB 1_555 1_555
O2WA Cu1 1_555 1_555
O2R Cu1DC 1_555 1_555
O2EB Cu1QC 1_555 1_555
O2QE Cu1 1_555 1_555
O2LD Cu1FC 1_555 1_555
O2YE Cu1PC 1_555 1_555
O2ME Cu1EB 1_555 1_555
O2FD Cu1MB 1_555 1_555
O2XC C1XC 1_555 1_555
O2M Cu1P 1_555 1_555
O2E C1E 1_555 1_555
O2OB Cu1JA 1_555 1_555
O2AD Cu1P 1_555 1_555
O2SC C1SC 1_555 1_555
O2FF C1FF 1_555 1_555
O2DD Cu1OB 1_555 1_555
O2VC C1VC 1_555 1_555
O2KE C1KE 1_555 1_555
O2NC Cu1H 1_555 1_555
O2EG Cu1H 1_555 1_555
O2GD Cu1SA 1_555 1_555
O2K Cu1SA 1_555 1_555
O2DG Cu1N 1_555 1_555
O2KC Cu1N 1_555 1_555
O2VB Cu1WA 1_555 1_555
O2LF Cu1WA 1_555 1_555
O2JB Cu1R 1_555 1_555
O2XE Cu1R 1_555 1_555
O2ZE Cu1S 1_555 1_555
O2DB Cu1S 1_555 1_555
O2SA Cu1KB 1_555 1_555
C6 C7 1_555 1_555
O2 Cu1AA 1_555 1_555
C1P O2P 1_555 1_555
C1H O2H 1_555 1_555
C1TC O2TC 1_555 1_555
C1LE O2LE 1_555 1_555
C1BD O2BD 1_555 1_555
C1WA O2WA 1_555 1_555
C1R O2R 1_555 1_555
C1EB O2EB 1_555 1_555
C1QE O2QE 1_555 1_555
C1LD O2LD 1_555 1_555
C1YE O2YE 1_555 1_555
C1ME O2ME 1_555 1_555
C1FD O2FD 1_555 1_555
C1M O2M 1_555 1_555
C1OB O2OB 1_555 1_555
C1AD O2AD 1_555 1_555
C1DD O2DD 1_555 1_555
C3P C4P 1_555 1_555
C4H C5P 1_555 1_555
C4H C5H 1_555 1_555
C4LE C5TC 1_555 1_555
C4BD C5LE 1_555 1_555
C4BD C5BD 1_555 1_555
C4R C5WA 1_555 1_555
C4EB C5R 1_555 1_555
C4EB C5EB 1_555 1_555
C4LD C5QE 1_555 1_555
C4YE C5LD 1_555 1_555
C4YE C5YE 1_555 1_555
C4FD C5ME 1_555 1_555
C4XC C5FD 1_555 1_555
C4XC C5XC 1_555 1_555
C4E C5M 1_555 1_555
C4OB C5E 1_555 1_555
C4OB C5OB 1_555 1_555
C4SC C5AD 1_555 1_555
C4FF C5SC 1_555 1_555
C4FF C5FF 1_555 1_555
C4VC C5DD 1_555 1_555
C4KE C5VC 1_555 1_555
C4KE C5KE 1_555 1_555
C6P C7P 1_555 1_555
C6H C7H 1_555 1_555
C6TC C7TC 1_555 1_555
C6LE C7LE 1_555 1_555
C6BD C7BD 1_555 1_555
C6WA C7WA 1_555 1_555
C6R C7R 1_555 1_555
C6EB C7EB 1_555 1_555
C6QE C7QE 1_555 1_555
C6LD C7LD 1_555 1_555
C6YE C7YE 1_555 1_555
C6ME C7ME 1_555 1_555
C6FD C7FD 1_555 1_555
C6XC C7XC 1_555 1_555
C6M C7M 1_555 1_555
C6E C7E 1_555 1_555
C6OB C7OB 1_555 1_555
C6AD C7AD 1_555 1_555
C6SC C7SC 1_555 1_555
C6FF C7FF 1_555 1_555
C6DD C7DD 1_555 1_555
C6VC C7VC 1_555 1_555
C6KE C7KE 1_555 1_555

#END
