
#######################################################################
#
#                 Cambridge Crystallographic Data Centre
#                                CCDC 
#
#######################################################################
#
# If this CIF has been generated from an entry in the Cambridge 
# Structural Database, then it will include bibliographic, chemical, 
# crystal, experimental, refinement or atomic coordinate data resulting 
# from the CCDC's data processing and validation procedures.
#
#######################################################################

data_REHDEP
_symmetry_cell_setting           monoclinic
_symmetry_space_group_name_H-M   'P 21/n'
_symmetry_Int_Tables_number      14
_space_group_name_Hall           '-P 2yn'
loop_
_symmetry_equiv_pos_site_id
_symmetry_equiv_pos_as_xyz
1 x,y,z
2 1/2-x,1/2+y,1/2-z
3 -x,-y,-z
4 1/2+x,1/2-y,1/2+z
_cell_length_a                   9.1806(19)
_cell_length_b                   16.9307(9)
_cell_length_c                   11.4029(11)
_cell_angle_alpha                90
_cell_angle_beta                 112.485(14)
_cell_angle_gamma                90
_cell_volume                     1637.66
loop_
_atom_site_label
_atom_site_type_symbol
_atom_site_fract_x
_atom_site_fract_y
_atom_site_fract_z
Ag1 Ag 0.60253(4) 0.18648(2) 0.69333(4)
O1 O 0.5302(9) 0.1375(4) 0.8863(7)
O2 O 0.6499(10) 0.0586(4) 1.0328(7)
O3 O 0.7548(6) 0.1007(4) 0.9045(5)
N1 N 0.8134(4) 0.2643(2) 0.7400(4)
N2 N 1.4533(4) 0.4017(2) 1.0987(4)
H3 H 1.5108 0.3913 1.1766
N3 N 1.0313(4) 0.5815(2) 0.8986(4)
N4 N 1.4347(5) 0.2951(3) 0.7077(5)
N5 N 0.6597(12) 0.0927(4) 0.9495(6)
C1 C 0.9480(5) 0.2469(3) 0.8371(5)
H4 H 0.9521 0.2010 0.8829
C2 C 1.0802(5) 0.2936(3) 0.8724(5)
H5 H 1.1703 0.2797 0.9417
C3 C 1.0791(4) 0.3613(2) 0.8047(4)
C4 C 0.9416(5) 0.3796(2) 0.7041(4)
H6 H 0.9358 0.4245 0.6555
C5 C 0.8128(5) 0.3306(3) 0.6764(5)
H7 H 0.7201 0.3445 0.6095
C6 C 1.2240(4) 0.4152(2) 0.8417(4)
H8 H 1.2157 0.4478 0.7684
C7 C 1.2348(4) 0.4691(2) 0.9517(4)
C8 C 1.3404(4) 0.4597(2) 1.0719(4)
C9 C 1.4763(5) 0.3601(2) 1.0038(4)
C10 C 1.3764(4) 0.3673(2) 0.8828(4)
C11 C 1.1229(5) 0.5313(2) 0.9248(4)
C12 C 1.3439(5) 0.5078(3) 1.1831(4)
H9 H 1.2791 0.5538 1.1535
H10 H 1.4503 0.5236 1.2322
H11 H 1.3045 0.4767 1.2350
C13 C 1.6171(5) 0.3069(3) 1.0485(6)
H12 H 1.7045 0.3339 1.1106
H13 H 1.6437 0.2922 0.9778
H14 H 1.5934 0.2602 1.0858
C14 C 1.4076(5) 0.3266(3) 0.7860(5)
Ag1A Ag 0.89747(4) 0.68648(2) 0.80667(4)
Ag1_2 Ag 1.60253(4) 0.18648(2) 0.69333(4)
N3A N 0.4687(4) 0.0815(2) 0.6014(4)
N4_2 N 0.4347(5) 0.2951(3) 0.7077(5)
O4 O 0.2109(5) 0.0950(3) 0.8404(4)
H1 H 0.2871 0.1225 0.8334
H2 H 0.1829 0.1214 0.8925
O5 O 0.9143(12) -0.0373(7) 1.0087(9)
loop_
_geom_bond_atom_site_label_1
_geom_bond_atom_site_label_2
_geom_bond_site_symmetry_1
_geom_bond_site_symmetry_2
Ag1 O1 1_555 1_555
O1 N5 1_555 1_555
O2 N5 1_555 1_555
O3 Ag1 1_555 1_555
O4 H1 1_555 1_555
H2 O4 1_555 1_555
N1 Ag1 1_555 1_555
N2 H3 1_555 1_555
N3 C11 1_555 1_555
N4 C14 1_555 1_555
N5 O3 1_555 1_555
C1 N1 1_555 1_555
H4 C1 1_555 1_555
C2 C1 1_555 1_555
H5 C2 1_555 1_555
C3 C2 1_555 1_555
C4 C3 1_555 1_555
H6 C4 1_555 1_555
C5 N1 1_555 1_555
H7 C5 1_555 1_555
C6 C3 1_555 1_555
H8 C6 1_555 1_555
C7 C6 1_555 1_555
C8 N2 1_555 1_555
C9 N2 1_555 1_555
C10 C6 1_555 1_555
C11 C7 1_555 1_555
C12 C8 1_555 1_555
H9 C12 1_555 1_555
H10 C12 1_555 1_555
H11 C12 1_555 1_555
C13 C9 1_555 1_555
H12 C13 1_555 1_555
H13 C13 1_555 1_555
H14 C13 1_555 1_555
C14 C10 1_555 1_555
Ag1A N3 1_555 1_555
Ag1_2 N4 1_555 1_555
N3A Ag1 1_555 1_555
N4_2 Ag1 1_555 1_555
C4 C5 1_555 1_555
C7 C8 1_555 1_555
C9 C10 1_555 1_555

#END
