
#######################################################################
#
#                 Cambridge Crystallographic Data Centre
#                                CCDC 
#
#######################################################################
#
# If this CIF has been generated from an entry in the Cambridge 
# Structural Database, then it will include bibliographic, chemical, 
# crystal, experimental, refinement or atomic coordinate data resulting 
# from the CCDC's data processing and validation procedures.
#
#######################################################################

data_REHDOZ
_symmetry_cell_setting           monoclinic
_symmetry_space_group_name_H-M   'P 21/c'
_symmetry_Int_Tables_number      14
_space_group_name_Hall           '-P 2ybc'
loop_
_symmetry_equiv_pos_site_id
_symmetry_equiv_pos_as_xyz
1 x,y,z
2 -x,1/2+y,1/2-z
3 -x,-y,-z
4 x,1/2-y,1/2+z
_cell_length_a                   9.3243(8)
_cell_length_b                   16.2532(8)
_cell_length_c                   12.1352(7)
_cell_angle_alpha                90
_cell_angle_beta                 109.483(5)
_cell_angle_gamma                90
_cell_volume                     1733.78
loop_
_atom_site_label
_atom_site_type_symbol
_atom_site_fract_x
_atom_site_fract_y
_atom_site_fract_z
Ag1 Ag 0.39744(4) 0.78500(2) -0.18086(3)
N1 N 0.5782(4) 0.7177(2) -0.2261(3)
N2 N 0.8230(4) 0.5927(2) -0.6162(3)
H2 H 0.8000 0.6019 -0.6899
N3 N 1.1711(5) 0.7198(3) -0.2827(4)
N4 N 0.6444(4) 0.3991(2) -0.3981(3)
C1 C 0.6015(5) 0.7399(3) -0.3243(4)
H3 H 0.5525 0.7868 -0.3627
C2 C 0.6942(5) 0.6974(3) -0.3723(4)
H4 H 0.7065 0.7156 -0.4412
C3 C 0.7686(4) 0.6275(2) -0.3173(3)
C4 C 0.7455(5) 0.6046(2) -0.2157(3)
H5 H 0.7940 0.5583 -0.1753
C5 C 0.6500(5) 0.6506(3) -0.1733(4)
H6 H 0.6355 0.6336 -0.1046
C6 C 0.8691(4) 0.5771(2) -0.3697(3)
H7 H 0.9397 0.5439 -0.3078
C7 C 0.7723(4) 0.5201(2) -0.4648(3)
C8 C 0.7486(4) 0.5306(2) -0.5805(3)
C9 C 0.9321(4) 0.6404(2) -0.5395(3)
C10 C 0.9603(4) 0.6320(2) -0.4232(3)
C11 C 0.6999(5) 0.4531(2) -0.4293(4)
C12 C 0.6454(5) 0.4787(3) -0.6757(4)
H8 H 0.6050 0.4348 -0.6420
H9 H 0.7015 0.4561 -0.7221
H10 H 0.5634 0.5119 -0.7242
C13 C 1.0105(6) 0.7001(3) -0.5941(4)
H11 H 1.0909 0.7271 -0.5340
H12 H 0.9386 0.7403 -0.6379
H13 H 1.0522 0.6712 -0.6453
C14 C 1.0778(5) 0.6810(3) -0.3455(4)
Ag1_2 Ag 1.39744(4) 0.78500(2) -0.18086(3)
Ag1A Ag 0.60256(4) 0.28500(2) -0.31914(3)
N3_2 N 0.1711(5) 0.7198(3) -0.2827(4)
N4A N 0.3556(4) 0.8991(2) -0.1019(3)
O1 O 1.1803(11) 0.4101(3) -0.1509(4)
H1 H 1.2532 0.4241 -0.0944
C15 C 1.0454(12) 0.4031(6) -0.1161(7)
H14 H 0.9574 0.4199 -0.1797
H15 H 1.0567 0.4378 -0.0497
H16 H 1.0334 0.3470 -0.0959
B1 B 1.2931(11) 0.6011(5) 0.0064(7)
F1 F 1.1522(14) 0.5929(8) -0.0765(7)
F2 F 1.3965(9) 0.6386(6) -0.0417(6)
F3 F 1.2923(19) 0.6347(12) 0.0970(13)
F4 F 1.3403(15) 0.5196(7) 0.0210(15)
F5? F 1.145(3) 0.5941(15) -0.001(3)
F6? F 1.3158(14) 0.6805(7) -0.0040(11)
F7? F 1.362(2) 0.5890(10) 0.1250(12)
F8? F 1.336(4) 0.5493(16) -0.035(3)
loop_
_geom_bond_atom_site_label_1
_geom_bond_atom_site_label_2
_geom_bond_site_symmetry_1
_geom_bond_site_symmetry_2
Ag1 N1 1_555 1_555
O1 H1 1_555 1_555
N1 C1 1_555 1_555
N2 H2 1_555 1_555
N3 C14 1_555 1_555
N4 C11 1_555 1_555
C1 H3 1_555 1_555
C2 C1 1_555 1_555
H4 C2 1_555 1_555
C3 C2 1_555 1_555
C4 C3 1_555 1_555
H5 C4 1_555 1_555
C5 N1 1_555 1_555
H6 C5 1_555 1_555
C6 C3 1_555 1_555
H7 C6 1_555 1_555
C7 C6 1_555 1_555
C8 N2 1_555 1_555
C9 N2 1_555 1_555
C10 C6 1_555 1_555
C11 C7 1_555 1_555
C12 C8 1_555 1_555
H8 C12 1_555 1_555
H9 C12 1_555 1_555
H10 C12 1_555 1_555
C13 C9 1_555 1_555
H11 C13 1_555 1_555
H12 C13 1_555 1_555
H13 C13 1_555 1_555
C14 C10 1_555 1_555
B1 F1 1_555 1_555
F2 B1 1_555 1_555
F3 B1 1_555 1_555
F4 B1 1_555 1_555
C15 O1 1_555 1_555
H14 C15 1_555 1_555
H15 C15 1_555 1_555
H16 C15 1_555 1_555
Ag1_2 N3 1_555 1_555
Ag1A N4 1_555 1_555
N3_2 Ag1 1_555 1_555
N4A Ag1 1_555 1_555
C4 C5 1_555 1_555
C7 C8 1_555 1_555
C9 C10 1_555 1_555

#END
