
#######################################################################
#
#                 Cambridge Crystallographic Data Centre
#                                CCDC 
#
#######################################################################
#
# If this CIF has been generated from an entry in the Cambridge 
# Structural Database, then it will include bibliographic, chemical, 
# crystal, experimental, refinement or atomic coordinate data resulting 
# from the CCDC's data processing and validation procedures.
#
#######################################################################

data_REHFER
_symmetry_cell_setting           triclinic
_symmetry_space_group_name_H-M   'P -1'
_symmetry_Int_Tables_number      2
_space_group_name_Hall           '-P 1'
loop_
_symmetry_equiv_pos_site_id
_symmetry_equiv_pos_as_xyz
1 x,y,z
2 -x,-y,-z
_cell_length_a                   8.9090(11)
_cell_length_b                   11.0665(14)
_cell_length_c                   14.3207(17)
_cell_angle_alpha                99.183(2)
_cell_angle_beta                 101.952(2)
_cell_angle_gamma                91.228(2)
_cell_volume                     1361.42
loop_
_atom_site_label
_atom_site_type_symbol
_atom_site_fract_x
_atom_site_fract_y
_atom_site_fract_z
Ag1 Ag 0.72676(7) 0.33592(7) 0.65712(6)
N1 N 0.9574(8) 0.2826(8) 0.7342(7)
N2 N 1.3252(9) 0.6811(8) 0.9214(6)
H2 H 1.3218 0.7584 0.9199
N3 N 1.1450(11) 0.4212(10) 1.1135(8)
N4 N 1.5400(10) 0.3586(10) 0.7432(7)
N5 N 0.7226(10) 0.4785(9) 0.5594(8)
N6 N 0.6694(10) 0.9409(9) 0.7772(7)
H3 H 0.6478 0.9836 0.8279
N7 N 1.1128(14) 0.7447(16) 0.7076(12)
N8 N 0.3913(11) 0.8431(9) 0.4535(7)
C1 C 0.9777(10) 0.1660(10) 0.7304(9)
H4 H 0.9050 0.1106 0.6880
C2 C 1.1024(11) 0.1206(9) 0.7864(10)
H5 H 1.1127 0.0365 0.7823
C3 C 1.2105(11) 0.2024(9) 0.8483(9)
H6 H 1.2947 0.1744 0.8875
C4 C 1.1932(8) 0.3253(8) 0.8516(7)
C5 C 1.0640(8) 0.3625(8) 0.7943(6)
H7 H 1.0502 0.4460 0.7973
C6 C 1.3151(8) 0.4186(8) 0.9152(7)
H8 H 1.3923 0.3740 0.9533
C7 C 1.2525(8) 0.5124(9) 0.9854(6)
C8 C 1.2598(9) 0.6322(9) 0.9861(7)
C9 C 1.3966(9) 0.6084(9) 0.8587(7)
C10 C 1.3955(8) 0.4883(9) 0.8546(7)
C11 C 1.1908(10) 0.4629(9) 1.0568(8)
C12 C 1.1976(12) 0.7244(10) 1.0547(8)
H9 H 1.2594 0.7998 1.0680
H10 H 1.0936 0.7388 1.0261
H11 H 1.1998 0.6937 1.1140
C13 C 1.4739(12) 0.6776(11) 0.7981(9)
H12 H 1.5439 0.6261 0.7700
H13 H 1.3978 0.7017 0.7475
H14 H 1.5294 0.7493 0.8380
C14 C 1.4753(9) 0.4167(9) 0.7924(8)
C15 C 0.7531(13) 0.4517(10) 0.4721(7)
H15 H 0.7569 0.3698 0.4456
C16 C 0.7791(16) 0.5390(12) 0.4199(9)
H16 H 0.7971 0.5163 0.3579
C17 C 0.7789(14) 0.6631(12) 0.4591(9)
H17 H 0.7995 0.7242 0.4251
C18 C 0.7471(10) 0.6916(9) 0.5497(7)
C19 C 0.7212(11) 0.5964(9) 0.5970(8)
H18 H 0.7017 0.6158 0.6589
C20 C 0.7538(10) 0.8244(9) 0.6015(7)
H19 H 0.8008 0.8773 0.5654
C21 C 0.8528(10) 0.8364(10) 0.7039(8)
C22 C 0.8093(11) 0.8893(10) 0.7842(8)
C23 C 0.5645(11) 0.9264(9) 0.6924(8)
C24 C 0.5968(10) 0.8691(8) 0.6101(7)
C25 C 0.9984(13) 0.7859(12) 0.7095(10)
C26 C 0.9029(17) 0.8983(14) 0.8844(9)
H20 H 0.9950 0.8552 0.8826
H21 H 0.9296 0.9829 0.9118
H22 H 0.8445 0.8625 0.9234
C27 C 0.4143(14) 0.9830(12) 0.6987(10)
H23 H 0.3376 0.9490 0.6424
H24 H 0.3830 0.9660 0.7557
H25 H 0.4265 1.0701 0.7019
C28 C 0.4824(11) 0.8559(9) 0.5234(8)
Ag1_2 Ag -0.27324(7) 0.33592(7) 0.65712(6)
Ag1_3 Ag 1.72676(7) 0.33592(7) 0.65712(6)
Ag1A Ag 0.27324(7) 0.66408(7) 0.34288(6)
N1_2 N -0.0426(8) 0.2826(8) 0.7342(7)
N2_2 N 0.3252(9) 0.6811(8) 0.9214(6)
H2_2 H 0.3218 0.7584 0.9199
N3_2 N 0.1450(11) 0.4212(10) 1.1135(8)
N4_2 N 0.5400(10) 0.3586(10) 0.7432(7)
N4_3 N -0.4600(10) 0.3586(10) 0.7432(7)
N5A N 0.2774(10) 0.5215(9) 0.4406(8)
N5_2 N -0.2774(10) 0.4785(9) 0.5594(8)
N6A N 0.3306(10) 0.0591(9) 0.2228(7)
H3A H 0.3522 0.0164 0.1721
N7A N -0.1128(14) 0.2553(16) 0.2924(12)
N8A N 0.6087(11) 0.1569(9) 0.5465(7)
N8A_2 N -0.3913(11) 0.1569(9) 0.5465(7)
C1_2 C -0.0223(10) 0.1660(10) 0.7304(9)
H4_2 H -0.0950 0.1106 0.6880
C2_2 C 0.1024(11) 0.1206(9) 0.7864(10)
H5_2 H 0.1127 0.0365 0.7823
C3_2 C 0.2105(11) 0.2024(9) 0.8483(9)
H6_2 H 0.2947 0.1744 0.8875
C4_2 C 0.1932(8) 0.3253(8) 0.8516(7)
C5_2 C 0.0640(8) 0.3625(8) 0.7943(6)
H7_2 H 0.0502 0.4460 0.7973
C6_2 C 0.3151(8) 0.4186(8) 0.9152(7)
H8_2 H 0.3923 0.3740 0.9533
C7_2 C 0.2525(8) 0.5124(9) 0.9854(6)
C8_2 C 0.2598(9) 0.6322(9) 0.9861(7)
C9_2 C 0.3966(9) 0.6084(9) 0.8587(7)
C10_2 C 0.3955(8) 0.4883(9) 0.8546(7)
C11_2 C 0.1908(10) 0.4629(9) 1.0568(8)
C12_2 C 0.1976(12) 0.7244(10) 1.0547(8)
H9_2 H 0.2594 0.7998 1.0680
H10_2 H 0.0936 0.7388 1.0261
H11_2 H 0.1998 0.6937 1.1140
C13_2 C 0.4739(12) 0.6776(11) 0.7981(9)
H12_2 H 0.5439 0.6261 0.7700
H13_2 H 0.3978 0.7017 0.7475
H14_2 H 0.5294 0.7493 0.8380
C14_2 C 0.4753(9) 0.4167(9) 0.7924(8)
C15A C 0.2469(13) 0.5483(10) 0.5279(7)
H15A H 0.2431 0.6302 0.5544
C16A C 0.2209(16) 0.4610(12) 0.5801(9)
H16A H 0.2029 0.4837 0.6421
C17A C 0.2211(14) 0.3369(12) 0.5409(9)
H17A H 0.2005 0.2758 0.5749
C18A C 0.2529(10) 0.3084(9) 0.4503(7)
C19A C 0.2788(11) 0.4036(9) 0.4030(8)
H18A H 0.2983 0.3842 0.3411
C20A C 0.2462(10) 0.1756(9) 0.3985(7)
H19A H 0.1992 0.1227 0.4346
C21A C 0.1472(10) 0.1636(10) 0.2961(8)
C22A C 0.1907(11) 0.1107(10) 0.2158(8)
C23A C 0.4355(11) 0.0736(9) 0.3076(8)
C24A C 0.4032(10) 0.1309(8) 0.3899(7)
C25A C 0.0016(13) 0.2141(12) 0.2905(10)
C26A C 0.0971(17) 0.1017(14) 0.1156(9)
H20A H 0.0050 0.1448 0.1174
H21A H 0.0704 0.0171 0.0882
H22A H 0.1555 0.1375 0.0766
C27A C 0.5857(14) 0.0170(12) 0.3013(10)
H23A H 0.6624 0.0510 0.3576
H24A H 0.6170 0.0340 0.2443
H25A H 0.5735 -0.0701 0.2981
C28A C 0.5176(11) 0.1441(9) 0.4766(8)
S1 S -0.5000 0.0000 0.0000
O1 O -0.6587(15) -0.0674(13) -0.0781(11)
O2 O -0.5214(18) -0.0624(16) 0.0827(9)
O1A O -0.3413(15) 0.0674(13) 0.0781(11)
O2A O -0.4786(18) 0.0624(16) -0.0827(9)
H1? H -0.7096 -0.0149 -0.1022
O3? O -0.3834(19) -0.053(3) -0.0378(12)
O4? O -0.532(2) 0.1146(18) 0.0157(18)
loop_
_geom_bond_atom_site_label_1
_geom_bond_atom_site_label_2
_geom_bond_site_symmetry_1
_geom_bond_site_symmetry_2
Ag1 N1 1_555 1_555
S1 O1 1_555 1_555
O2 S1 1_555 1_555
N1 C1 1_555 1_555
N2 H2 1_555 1_555
N3 C11 1_555 1_555
N4 C14 1_555 1_555
N5 Ag1 1_555 1_555
N6 H3 1_555 1_555
N7 C25 1_555 1_555
N8 C28 1_555 1_555
C1 H4 1_555 1_555
C2 C1 1_555 1_555
H5 C2 1_555 1_555
C3 C2 1_555 1_555
H6 C3 1_555 1_555
C4 C3 1_555 1_555
C5 N1 1_555 1_555
H7 C5 1_555 1_555
C6 C4 1_555 1_555
H8 C6 1_555 1_555
C7 C6 1_555 1_555
C8 N2 1_555 1_555
C9 N2 1_555 1_555
C10 C6 1_555 1_555
C11 C7 1_555 1_555
C12 C8 1_555 1_555
H9 C12 1_555 1_555
H10 C12 1_555 1_555
H11 C12 1_555 1_555
C13 C9 1_555 1_555
H12 C13 1_555 1_555
H13 C13 1_555 1_555
H14 C13 1_555 1_555
C14 C10 1_555 1_555
C15 N5 1_555 1_555
H15 C15 1_555 1_555
C16 C15 1_555 1_555
H16 C16 1_555 1_555
C17 C16 1_555 1_555
H17 C17 1_555 1_555
C18 C17 1_555 1_555
C19 N5 1_555 1_555
H18 C19 1_555 1_555
C20 C18 1_555 1_555
H19 C20 1_555 1_555
C21 C20 1_555 1_555
C22 N6 1_555 1_555
C23 N6 1_555 1_555
C24 C20 1_555 1_555
C25 C21 1_555 1_555
C26 C22 1_555 1_555
H20 C26 1_555 1_555
H21 C26 1_555 1_555
H22 C26 1_555 1_555
C27 C23 1_555 1_555
H23 C27 1_555 1_555
H24 C27 1_555 1_555
H25 C27 1_555 1_555
C28 C24 1_555 1_555
Ag1_2 N1_2 1_555 1_555
Ag1_3 N4 1_555 1_555
Ag1A N8 1_555 1_555
O1A S1 1_555 1_555
O2A S1 1_555 1_555
N1_2 C1_2 1_555 1_555
N2_2 H2_2 1_555 1_555
N3_2 C11_2 1_555 1_555
N4_2 Ag1 1_555 1_555
N4_3 Ag1_2 1_555 1_555
N5A Ag1A 1_555 1_555
N5_2 Ag1_2 1_555 1_555
N6A H3A 1_555 1_555
N7A C25A 1_555 1_555
N8A Ag1 1_555 1_555
N8A_2 Ag1_2 1_555 1_555
C1_2 H4_2 1_555 1_555
C2_2 C1_2 1_555 1_555
H5_2 C2_2 1_555 1_555
C3_2 C2_2 1_555 1_555
H6_2 C3_2 1_555 1_555
C4_2 C3_2 1_555 1_555
C5_2 N1_2 1_555 1_555
H7_2 C5_2 1_555 1_555
C6_2 C4_2 1_555 1_555
H8_2 C6_2 1_555 1_555
C7_2 C6_2 1_555 1_555
C8_2 N2_2 1_555 1_555
C9_2 N2_2 1_555 1_555
C10_2 C6_2 1_555 1_555
C11_2 C7_2 1_555 1_555
C12_2 C8_2 1_555 1_555
H9_2 C12_2 1_555 1_555
H10_2 C12_2 1_555 1_555
H11_2 C12_2 1_555 1_555
C13_2 C9_2 1_555 1_555
H12_2 C13_2 1_555 1_555
H13_2 C13_2 1_555 1_555
H14_2 C13_2 1_555 1_555
C14_2 N4_2 1_555 1_555
C15A N5A 1_555 1_555
H15A C15A 1_555 1_555
C16A C15A 1_555 1_555
H16A C16A 1_555 1_555
C17A C16A 1_555 1_555
H17A C17A 1_555 1_555
C18A C17A 1_555 1_555
C19A N5A 1_555 1_555
H18A C19A 1_555 1_555
C20A C18A 1_555 1_555
H19A C20A 1_555 1_555
C21A C20A 1_555 1_555
C22A N6A 1_555 1_555
C23A N6A 1_555 1_555
C24A C20A 1_555 1_555
C25A C21A 1_555 1_555
C26A C22A 1_555 1_555
H20A C26A 1_555 1_555
H21A C26A 1_555 1_555
H22A C26A 1_555 1_555
C27A C23A 1_555 1_555
H23A C27A 1_555 1_555
H24A C27A 1_555 1_555
H25A C27A 1_555 1_555
C28A N8A 1_555 1_555
C4 C5 1_555 1_555
C7 C8 1_555 1_555
C9 C10 1_555 1_555
C18 C19 1_555 1_555
C21 C22 1_555 1_555
C23 C24 1_555 1_555
C4_2 C5_2 1_555 1_555
C7_2 C8_2 1_555 1_555
C9_2 C10_2 1_555 1_555
C10_2 C14_2 1_555 1_555
C18A C19A 1_555 1_555
C21A C22A 1_555 1_555
C23A C24A 1_555 1_555
C24A C28A 1_555 1_555

#END
