
#######################################################################
#
#                 Cambridge Crystallographic Data Centre
#                                CCDC 
#
#######################################################################
#
# If this CIF has been generated from an entry in the Cambridge 
# Structural Database, then it will include bibliographic, chemical, 
# crystal, experimental, refinement or atomic coordinate data resulting 
# from the CCDC's data processing and validation procedures.
#
#######################################################################

data_REHGAN
_symmetry_cell_setting           orthorhombic
_symmetry_space_group_name_H-M   'P c c n'
_symmetry_Int_Tables_number      56
_space_group_name_Hall           '-P 2ab 2ac'
loop_
_symmetry_equiv_pos_site_id
_symmetry_equiv_pos_as_xyz
1 x,y,z
2 1/2-x,1/2-y,z
3 1/2+x,-y,1/2-z
4 -x,1/2+y,1/2-z
5 -x,-y,-z
6 1/2+x,1/2+y,-z
7 1/2-x,y,1/2+z
8 x,1/2-y,1/2+z
_cell_length_a                   18.3236(12)
_cell_length_b                   7.3975(5)
_cell_length_c                   15.0812(10)
_cell_angle_alpha                90
_cell_angle_beta                 90
_cell_angle_gamma                90
_cell_volume                     2044.24
loop_
_atom_site_label
_atom_site_type_symbol
_atom_site_fract_x
_atom_site_fract_y
_atom_site_fract_z
C1 C 0.80717(13) 1.0544(3) 0.16783(17)
H1 H 0.8397 1.0869 0.2124
C2 C 0.74034(13) 0.9805(3) 0.18945(17)
C3 C 0.69194(13) 0.9315(3) 0.12385(15)
H2 H 0.6474 0.8795 0.1390
C4 C 0.70931(12) 0.9593(3) 0.03518(16)
C5 C 0.65503(14) 0.9104(3) -0.03527(16)
C6 C 0.89837(13) 1.1628(3) 0.05600(17)
C7 C 0.82574(13) 1.0802(3) 0.07920(16)
C8 C 0.77662(13) 1.0319(3) 0.01344(15)
H3 H 0.7890 1.0484 -0.0458
O1 O 0.71912(10) 0.9546(3) 0.27595(12)
H4 H 0.7556(18) 0.948(4) 0.308(2)
O2 O 0.66781(10) 0.9328(3) -0.11540(11)
O3 O 0.59326(9) 0.8468(2) -0.01043(11)
O4 O 0.50313(10) 1.0909(2) -0.11668(12)
H5 H 0.535(2) 1.144(5) -0.092(3)
H6 H 0.468(2) 1.096(5) -0.078(3)
O5 O 0.53906(10) 0.8560(3) -0.26064(12)
H7 H 0.5125 0.9388 -0.2792
H8 H 0.5257 0.7756 -0.2959
O6 O 0.58229(12) 0.5616(3) -0.15623(14)
H9 H 0.5784(19) 0.504(5) -0.109(2)
H10 H 0.6225(19) 0.562(4) -0.181(2)
O7 O 0.93821(10) 1.2117(3) 0.11951(11)
O8 O 0.91451(10) 1.1807(2) -0.02431(12)
Zn1 Zn 0.538420(15) 0.81571(4) -0.126740(17)
O7E O 0.43821(10) 0.7117(3) -0.11951(11)
Zn1E Zn 1.038420(15) 1.31571(4) 0.126740(17)
loop_
_geom_bond_atom_site_label_1
_geom_bond_atom_site_label_2
_geom_bond_site_symmetry_1
_geom_bond_site_symmetry_2
C1 H1 1_555 1_555
C2 C1 1_555 1_555
C3 C2 1_555 1_555
H2 C3 1_555 1_555
C4 C3 1_555 1_555
C5 C4 1_555 1_555
C6 C7 1_555 1_555
C7 C1 1_555 1_555
C8 C4 1_555 1_555
H3 C8 1_555 1_555
O1 C2 1_555 1_555
H4 O1 1_555 1_555
O2 C5 1_555 1_555
O3 C5 1_555 1_555
O4 H5 1_555 1_555
H6 O4 1_555 1_555
O5 H7 1_555 1_555
H8 O5 1_555 1_555
O6 H9 1_555 1_555
H10 O6 1_555 1_555
O7 C6 1_555 1_555
O8 C6 1_555 1_555
Zn1 O3 1_555 1_555
O7E Zn1 1_555 1_555
Zn1E O7 1_555 1_555
C7 C8 1_555 1_555
O4 Zn1 1_555 1_555
O5 Zn1 1_555 1_555
O6 Zn1 1_555 1_555

#END
