
#######################################################################
#
#                 Cambridge Crystallographic Data Centre
#                                CCDC 
#
#######################################################################
#
# If this CIF has been generated from an entry in the Cambridge 
# Structural Database, then it will include bibliographic, chemical, 
# crystal, experimental, refinement or atomic coordinate data resulting 
# from the CCDC's data processing and validation procedures.
#
#######################################################################

data_REHGOC
_symmetry_cell_setting           monoclinic
_symmetry_space_group_name_H-M   'C 2/c'
_symmetry_Int_Tables_number      15
_space_group_name_Hall           '-C 2yn'
loop_
_symmetry_equiv_pos_site_id
_symmetry_equiv_pos_as_xyz
1 x,y,z
2 -x,y,1/2-z
3 1/2+x,1/2+y,z
4 1/2-x,1/2+y,1/2-z
5 -x,-y,-z
6 x,-y,1/2+z
7 1/2-x,1/2-y,-z
8 1/2+x,1/2-y,1/2+z
_cell_length_a                   30.9991(10)
_cell_length_b                   10.1021(4)
_cell_length_c                   20.4318(8)
_cell_angle_alpha                90
_cell_angle_beta                 110.727(3)
_cell_angle_gamma                90
_cell_volume                     5984.22
loop_
_atom_site_label
_atom_site_type_symbol
_atom_site_fract_x
_atom_site_fract_y
_atom_site_fract_z
C1 C 0.0749(6) 0.583(2) 0.1432(11)
H1 H 0.0487 0.5330 0.1377
C2 C 0.1154(7) 0.5226(18) 0.1442(12)
H2 H 0.1149 0.4314 0.1378
C3 C 0.1526(6) 0.719(2) 0.1588(9)
H3 H 0.1792 0.7664 0.1633
C4 C 0.1140(7) 0.789(2) 0.1577(9)
H4 H 0.1150 0.8807 0.1615
C5 C 0.0743(6) 0.7211(19) 0.1507(9)
C6 C 0.0318(6) 0.7858(19) 0.1538(8)
C7 C 0.0344(6) 0.928(2) 0.1753(9)
H5 H 0.0434 0.9814 0.1432
H6 H 0.0567 0.9382 0.2216
H7 H 0.0047 0.9569 0.1748
C8 C -0.0754(16) 0.552(4) 0.127(4)
H8 H -0.0484 0.5112 0.1601
H9 H -0.0757 0.5395 0.0807
H10 H -0.1025 0.5127 0.1316
C9 C -0.0748(8) 0.699(2) 0.1430(15)
C10 C -0.1178(6) 0.751(2) 0.1477(8)
C11 C -0.1525(7) 0.667(2) 0.1512(10)
H11 H -0.1491 0.5758 0.1507
C12 C -0.1933(9) 0.724(2) 0.1557(10)
H12 H -0.2173 0.6690 0.1556
C13 C -0.1653(7) 0.934(2) 0.1584(9)
H13 H -0.1692 1.0240 0.1631
C14 C -0.1246(6) 0.886(2) 0.1499(9)
H14 H -0.1026 0.9446 0.1457
C15 C 0.4055(7) 0.630(3) 0.0272(9)
H15 H 0.4331 0.6767 0.0432
C16 C 0.3657(7) 0.687(2) 0.0324(10)
H16 H 0.3665 0.7717 0.0500
C17 C 0.3245(6) 0.499(2) -0.0159(8)
H17 H 0.2962 0.4550 -0.0325
C18 C 0.3624(6) 0.433(2) -0.0223(8)
H18 H 0.3600 0.3472 -0.0391
C19 C 0.4038(6) 0.502(2) -0.0025(8)
C20 C 0.4465(7) 0.447(3) -0.0110(9)
C21 C 0.4442(7) 0.310(2) -0.0376(11)
H19 H 0.4206 0.3045 -0.0831
H20 H 0.4371 0.2507 -0.0062
H21 H 0.4734 0.2866 -0.0407
N1 N 0.1544(5) 0.5856(16) 0.1537(8)
N2 N -0.0041(5) 0.7107(14) 0.1382(8)
N3 N -0.0435(5) 0.7741(17) 0.1442(9)
N4 N -0.1977(5) 0.849(2) 0.1598(8)
N5 N 0.3254(6) 0.6149(19) 0.0112(8)
N6 N 0.4806(5) 0.5269(17) 0.0049(8)
N7 N 0.2102(6) 0.490(2) 0.0438(9)
N8 N 0.2949(6) 0.8543(18) 0.1611(8)
N9 N 0.3049(5) 0.6540(16) 0.2959(7)
O1 O 0.1942(6) 0.3876(16) 0.0622(7)
O2 O 0.2329(5) 0.5772(15) 0.0886(6)
O3 O 0.2056(8) 0.515(2) -0.0193(7)
O4 O 0.3186(5) 0.9065(16) 0.2181(7)
O5 O 0.2533(5) 0.8821(17) 0.1318(7)
O6 O 0.3145(5) 0.7794(16) 0.1311(7)
O7 O 0.2635(4) 0.6807(12) 0.2602(7)
O8 O 0.3274(5) 0.7395(15) 0.3385(6)
O9 O 0.3199(5) 0.5429(15) 0.2911(7)
Pb1 Pb 0.23125(2) 0.44599(7) 0.19736(3)
Pb2 Pb 0.2500 0.7500 0.0000
C1B C 0.5749(6) 0.083(2) 0.1432(11)
H1B H 0.5487 0.0330 0.1377
C2B C 0.6154(7) 0.0226(18) 0.1442(12)
H2B H 0.6149 -0.0686 0.1378
C3B C 0.6526(6) 0.219(2) 0.1588(9)
H3B H 0.6792 0.2664 0.1633
C4B C 0.6140(7) 0.289(2) 0.1577(9)
H4B H 0.6150 0.3807 0.1615
C5B C 0.5743(6) 0.2211(19) 0.1507(9)
C6B C 0.5318(6) 0.2858(19) 0.1538(8)
C7B C 0.5344(6) 0.428(2) 0.1753(9)
H5B H 0.5434 0.4814 0.1432
H6B H 0.5567 0.4382 0.2216
H7B H 0.5047 0.4569 0.1748
C8B C 0.4246(16) 0.052(4) 0.127(4)
H8B H 0.4516 0.0112 0.1601
H9B H 0.4243 0.0395 0.0807
H10B H 0.3975 0.0127 0.1316
C9B C 0.4252(8) 0.199(2) 0.1430(15)
C10B C 0.3822(6) 0.251(2) 0.1477(8)
C11B C 0.3475(7) 0.167(2) 0.1512(10)
H11B H 0.3509 0.0758 0.1507
C12B C 0.3067(9) 0.224(2) 0.1557(10)
H12B H 0.2827 0.1690 0.1556
C13B C 0.3347(7) 0.434(2) 0.1584(9)
H13B H 0.3308 0.5240 0.1631
C14B C 0.3754(6) 0.386(2) 0.1499(9)
H14B H 0.3974 0.4446 0.1457
C15D C 0.5945(7) 0.370(3) -0.0272(9)
H15D H 0.5669 0.3233 -0.0432
C16D C 0.6343(7) 0.313(2) -0.0324(10)
H16D H 0.6335 0.2283 -0.0500
C17D C 0.6755(6) 0.501(2) 0.0159(8)
H17D H 0.7038 0.5450 0.0325
C18D C 0.6376(6) 0.567(2) 0.0223(8)
H18D H 0.6400 0.6528 0.0391
C19D C 0.5962(6) 0.498(2) 0.0025(8)
C20D C 0.5535(7) 0.553(3) 0.0110(9)
C21D C 0.5558(7) 0.690(2) 0.0376(11)
H19D H 0.5794 0.6955 0.0831
H20D H 0.5629 0.7493 0.0062
H21D H 0.5266 0.7134 0.0407
N1B N 0.6544(5) 0.0856(16) 0.1537(8)
N1F N 0.3456(5) 0.9144(16) -0.1537(8)
N2B N 0.4959(5) 0.2107(14) 0.1382(8)
N3B N 0.4565(5) 0.2741(17) 0.1442(9)
N4B N 0.3023(5) 0.349(2) 0.1598(8)
N4D N 0.1977(5) 1.151(2) -0.1598(8)
N5D N 0.6746(6) 0.3851(19) -0.0112(8)
N5F N 0.1746(6) 0.8851(19) -0.0112(8)
N6D N 0.5194(5) 0.4731(17) -0.0049(8)
N7F N 0.2898(6) 1.010(2) -0.0438(9)
N8F N 0.2051(6) 0.6457(18) -0.1611(8)
N9C N 0.1951(5) 0.1540(16) 0.2041(7)
O1F O 0.3058(6) 1.1124(16) -0.0622(7)
O2F O 0.2671(5) 0.9228(15) -0.0886(6)
O3F O 0.2944(8) 0.985(2) 0.0193(7)
O4F O 0.1814(5) 0.5935(16) -0.2181(7)
O4C O 0.1814(5) 0.4065(16) 0.2819(7)
O4E O 0.3186(5) 1.0935(16) -0.2819(7)
O5F O 0.2467(5) 0.6179(17) -0.1318(7)
O6F O 0.1855(5) 0.7206(16) -0.1311(7)
O7C O 0.2365(4) 0.1807(12) 0.2398(7)
O7F O 0.2365(4) 0.8193(12) -0.2602(7)
O8C O 0.1726(5) 0.2395(15) 0.1615(6)
O8E O 0.3274(5) 1.2605(15) -0.1615(6)
O9C O 0.1801(5) 0.0429(15) 0.2089(7)
Pb1F Pb 0.26875(2) 1.05401(7) -0.19736(3)
Pb1B Pb -0.26875(2) 0.94599(7) 0.19736(3)
Pb1C Pb 0.26875(2) 0.94599(7) 0.30264(3)
Pb1E Pb 0.23125(2) 0.55401(7) -0.30264(3)
Pb1B_2 Pb 0.73125(2) -0.05401(7) 0.19736(3)
Pb1C_2 Pb 0.26875(2) -0.05401(7) 0.30264(3)
Pb2B Pb 0.7500 0.2500 0.0000
C22 C 0.5825(11) 0.742(4) 0.2583(17)
H22 H 0.5862 0.6488 0.2668
H23 H 0.5865 0.7875 0.3014
H24 H 0.6052 0.7731 0.2398
C23 C 0.5370(12) 0.769(4) 0.209(2)
N10 N 0.5008(13) 0.782(4) 0.160(2)
loop_
_geom_bond_atom_site_label_1
_geom_bond_atom_site_label_2
_geom_bond_site_symmetry_1
_geom_bond_site_symmetry_2
C1 H1 1_555 1_555
C2 C1 1_555 1_555
H2 C2 1_555 1_555
C3 H3 1_555 1_555
C4 C3 1_555 1_555
H4 C4 1_555 1_555
C5 C1 1_555 1_555
C6 C5 1_555 1_555
C7 C6 1_555 1_555
H5 C7 1_555 1_555
H6 C7 1_555 1_555
H7 C7 1_555 1_555
C8 H8 1_555 1_555
H9 C8 1_555 1_555
H10 C8 1_555 1_555
C9 C8 1_555 1_555
C10 C9 1_555 1_555
C11 C10 1_555 1_555
H11 C11 1_555 1_555
C12 C11 1_555 1_555
H12 C12 1_555 1_555
C13 H13 1_555 1_555
C14 C10 1_555 1_555
H14 C14 1_555 1_555
C15 H15 1_555 1_555
C16 C15 1_555 1_555
H16 C16 1_555 1_555
C17 H17 1_555 1_555
C18 C17 1_555 1_555
H18 C18 1_555 1_555
C19 C15 1_555 1_555
C20 C19 1_555 1_555
C21 C20 1_555 1_555
H19 C21 1_555 1_555
H20 C21 1_555 1_555
H21 C21 1_555 1_555
C22 H22 1_555 1_555
H23 C22 1_555 1_555
H24 C22 1_555 1_555
C23 C22 1_555 1_555
N1 C2 1_555 1_555
N2 C6 1_555 1_555
N3 C9 1_555 1_555
N4 C12 1_555 1_555
N5 C16 1_555 1_555
N6 C20 1_555 1_555
N7 O1 1_555 1_555
N8 O4 1_555 1_555
N9 O7 1_555 1_555
N10 C23 1_555 1_555
O1 Pb1 1_555 1_555
O2 N7 1_555 1_555
O3 N7 1_555 1_555
O4 Pb1C 1_555 1_555
O5 N8 1_555 1_555
O6 N8 1_555 1_555
O7 Pb1 1_555 1_555
O8 N9 1_555 1_555
O9 N9 1_555 1_555
Pb1 N1 1_555 1_555
Pb2 N5 1_555 1_555
C1B H1B 1_555 1_555
C2B C1B 1_555 1_555
H2B C2B 1_555 1_555
C3B H3B 1_555 1_555
C4B C3B 1_555 1_555
H4B C4B 1_555 1_555
C5B C1B 1_555 1_555
C6B C5B 1_555 1_555
C7B C6B 1_555 1_555
H5B C7B 1_555 1_555
H6B C7B 1_555 1_555
H7B C7B 1_555 1_555
C8B H8B 1_555 1_555
H9B C8B 1_555 1_555
H10B C8B 1_555 1_555
C9B C8B 1_555 1_555
C10B C9B 1_555 1_555
C11B C10B 1_555 1_555
H11B C11B 1_555 1_555
C12B C11B 1_555 1_555
H12B C12B 1_555 1_555
C13B H13B 1_555 1_555
C14B C10B 1_555 1_555
H14B C14B 1_555 1_555
C15D H15D 1_555 1_555
C16D C15D 1_555 1_555
H16D C16D 1_555 1_555
C17D H17D 1_555 1_555
C18D C17D 1_555 1_555
H18D C18D 1_555 1_555
C19D C15D 1_555 1_555
C20D C19D 1_555 1_555
C21D C20D 1_555 1_555
H19D C21D 1_555 1_555
H20D C21D 1_555 1_555
H21D C21D 1_555 1_555
N1B C2B 1_555 1_555
N1F Pb1F 1_555 1_555
N2B C6B 1_555 1_555
N3B C9B 1_555 1_555
N4B Pb1 1_555 1_555
N4D Pb1F 1_555 1_555
N5D C16D 1_555 1_555
N5F Pb2 1_555 1_555
N6D N6 1_555 1_555
N7F O1F 1_555 1_555
N8F O4F 1_555 1_555
N9C O7C 1_555 1_555
O1F Pb1F 1_555 1_555
O2F Pb2 1_555 1_555
O3F Pb2 1_555 1_555
O4F Pb1E 1_555 1_555
O4C Pb1 1_555 1_555
O4E Pb1F 1_555 1_555
O5F N8F 1_555 1_555
O6F Pb2 1_555 1_555
O7C Pb1C_2 1_555 1_555
O7F Pb1F 1_555 1_555
O8C Pb1 1_555 1_555
O8E Pb1F 1_555 1_555
O9C N9C 1_555 1_555
Pb1F O2F 1_555 1_555
Pb1B N4 1_555 1_555
Pb1C O8 1_555 1_555
Pb1B_2 N1B 1_555 1_555
Pb2B N5D 1_555 1_555
C3 N1 1_555 1_555
C4 C5 1_555 1_555
C13 C14 1_555 1_555
C13 N4 1_555 1_555
C17 N5 1_555 1_555
C18 C19 1_555 1_555
N2 N3 1_555 1_555
O2 Pb1 1_555 1_555
O2 Pb2 1_555 1_555
O3 Pb2 1_555 1_555
O6 Pb2 1_555 1_555
C3B N1B 1_555 1_555
C4B C5B 1_555 1_555
C12B N4B 1_555 1_555
C13B C14B 1_555 1_555
C13B N4B 1_555 1_555
C17D N5D 1_555 1_555
C18D C19D 1_555 1_555
C20D N6D 1_555 1_555
N2B N3B 1_555 1_555
N7F O2F 1_555 1_555
N7F O3F 1_555 1_555
N8F O6F 1_555 1_555
N9C O8C 1_555 1_555

#END
