
#######################################################################
#
#                 Cambridge Crystallographic Data Centre
#                                CCDC 
#
#######################################################################
#
# If this CIF has been generated from an entry in the Cambridge 
# Structural Database, then it will include bibliographic, chemical, 
# crystal, experimental, refinement or atomic coordinate data resulting 
# from the CCDC's data processing and validation procedures.
#
#######################################################################

data_REHHOD
_symmetry_cell_setting           monoclinic
_symmetry_space_group_name_H-M   'C 2/c'
_symmetry_Int_Tables_number      15
_space_group_name_Hall           '-C 2yn'
loop_
_symmetry_equiv_pos_site_id
_symmetry_equiv_pos_as_xyz
1 x,y,z
2 -x,y,1/2-z
3 1/2+x,1/2+y,z
4 1/2-x,1/2+y,1/2-z
5 -x,-y,-z
6 x,-y,1/2+z
7 1/2-x,1/2-y,-z
8 1/2+x,1/2-y,1/2+z
_cell_length_a                   34.799(2)
_cell_length_b                   18.4666(11)
_cell_length_c                   23.031(2)
_cell_angle_alpha                90
_cell_angle_beta                 118.787(10)
_cell_angle_gamma                90
_cell_volume                     12971.1
loop_
_atom_site_label
_atom_site_type_symbol
_atom_site_fract_x
_atom_site_fract_y
_atom_site_fract_z
C42 C 0.9513(5) 0.9410(8) 0.9052(6)
H33 H 0.9412 0.9851 0.9124
C43 C 0.9948(5) 0.9369(9) 0.9193(6)
H34 H 1.0133 0.9769 0.9353
C44 C 1.0101(6) 0.8712(8) 0.9087(6)
H35 H 1.0389 0.8652 0.9173
C45 C 0.9797(5) 0.8151(10) 0.8846(6)
H36 H 0.9897 0.7711 0.8773
C46 C 0.9361(5) 0.8178(8) 0.8703(6)
H37 H 0.9176 0.7779 0.8543
C47 C 0.9218(5) 0.8839(7) 0.8812(6)
C48 C 0.8752(5) 0.8897(11) 0.8672(9)
H38 H 0.8696 0.9380 0.8767
H39 H 0.8701 0.8560 0.8946
H40 H 0.8559 0.8789 0.8213
Cd1 Cd 0.789832(11) 0.11058(2) 0.69427(2)
Cd2 Cd 1.323590(12) 0.05463(2) 0.96453(2)
Cd3 Cd 1.179180(12) 0.37804(2) 1.17781(2)
O1 O 0.85405(18) 0.1165(3) 0.8082(3)
O2 O 0.86042(19) 0.1280(4) 0.7190(3)
O3 O 1.28009(14) 0.0972(3) 1.0022(2)
O4 O 1.22477(15) 0.0591(2) 0.9057(2)
O5 O 1.18647(13) 0.3333(2) 1.0894(2)
O6 O 1.25518(13) 0.2912(2) 1.1281(2)
O7 O 0.39113(17) -0.1305(4) 0.3863(3)
O8 O 0.38175(14) -0.0439(3) 0.4435(3)
O9 O 0.71723(12) 0.0351(2) 0.6517(2)
O10 O 0.78295(14) -0.0075(2) 0.7211(2)
O11 O 0.80041(14) -0.2670(2) 0.7758(3)
O12 O 0.74333(14) -0.3393(2) 0.7476(2)
O13 O 1.37911(15) 0.0983(3) 1.0621(2)
O14 O 1.3281(2) -0.0619(3) 0.9903(3)
O15 O 1.18525(17) 0.4536(3) 1.2575(3)
N1 N 1.08977(16) 0.1538(3) 0.9108(3)
N2 N 0.61227(16) -0.1700(3) 0.6196(3)
N3 N 1.4010(2) 0.1745(4) 1.1526(3)
N4 N 1.3607(4) -0.1769(6) 1.0121(6)
N5 N 1.2341(2) 0.5391(4) 1.3330(4)
C1 C 0.8768(2) 0.1234(4) 0.7786(5)
C2 C 0.9260(2) 0.1313(4) 0.8218(4)
C3 C 0.9448(3) 0.1444(5) 0.8885(5)
H1 H 0.9271 0.1484 0.9084
C4 C 0.9904(3) 0.1520(5) 0.9273(4)
H2 H 1.0031 0.1594 0.9729
C5 C 1.0164(2) 0.1481(4) 0.8962(4)
C6 C 0.9971(2) 0.1308(5) 0.8290(4)
H3 H 1.0146 0.1236 0.8091
C7 C 0.9523(2) 0.1244(5) 0.7921(4)
H4 H 0.9395 0.1153 0.7467
C8 C 1.0642(2) 0.1567(4) 0.9370(4)
C9 C 1.23924(19) 0.0945(3) 0.9588(3)
C10 C 1.20901(18) 0.1375(3) 0.9743(3)
C11 C 1.22530(16) 0.1886(3) 1.0249(3)
H5 H 1.2554 0.1956 1.0499
C12 C 1.19699(17) 0.2295(3) 1.0383(3)
C13 C 1.15169(19) 0.2182(3) 1.0017(3)
H6 H 1.1327 0.2453 1.0107
C14 C 1.13530(18) 0.1668(3) 0.9521(3)
C15 C 1.16353(19) 0.1277(3) 0.9366(3)
H7 H 1.1522 0.0952 0.9013
C16 C 1.21469(17) 0.2886(3) 1.0897(3)
C17 C 0.4054(2) -0.0912(4) 0.4369(4)
C18 C 0.4520(2) -0.1006(4) 0.4890(4)
C19 C 0.4722(3) -0.0512(5) 0.5379(5)
H8 H 0.4564 -0.0121 0.5411
C20 C 0.5165(2) -0.0586(5) 0.5833(4)
H9 H 0.5301 -0.0245 0.6169
C21 C 0.5404(2) -0.1158(4) 0.5791(4)
C22 C 0.5194(3) -0.1666(4) 0.5306(6)
H10 H 0.5347 -0.2064 0.5278
C23 C 0.4759(3) -0.1588(5) 0.4864(6)
H11 H 0.4621 -0.1937 0.4537
C24 C 0.5885(2) -0.1183(4) 0.6237(4)
C25 C 0.74322(19) -0.0169(3) 0.6862(3)
C26 C 0.72245(19) -0.0877(3) 0.6858(3)
C27 C 0.74938(17) -0.1478(3) 0.7164(3)
H12 H 0.7797 -0.1432 0.7371
C28 C 0.73005(18) -0.2148(3) 0.7154(3)
C29 C 0.68462(19) -0.2226(3) 0.6839(3)
H13 H 0.6719 -0.2673 0.6827
C30 C 0.65820(19) -0.1613(3) 0.6539(3)
C31 C 0.67749(19) -0.0951(3) 0.6551(3)
H14 H 0.6598 -0.0551 0.6349
C32 C 0.75983(18) -0.2780(3) 0.7486(3)
C33 C 1.3689(2) 0.1404(4) 1.0943(3)
C34 C 1.4473(3) 0.1653(7) 1.1750(6)
H15 H 1.4639 0.1929 1.2149
H16 H 1.4539 0.1819 1.1413
H17 H 1.4548 0.1150 1.1839
C35 C 1.3871(4) 0.2250(6) 1.1869(5)
H18 H 1.4124 0.2443 1.2248
H19 H 1.3688 0.2005 1.2013
H20 H 1.3709 0.2638 1.1575
C36 C 1.3621(3) -0.0989(6) 1.0073(7)
C37 C 1.4014(5) -0.2147(11) 1.0305(10)
H21 H 1.3971 -0.2658 1.0327
H22 H 1.4236 -0.1979 1.0730
H23 H 1.4106 -0.2056 0.9978
C38 C 1.3172(5) -0.2080(12) 0.9868(10)
H24 H 1.2966 -0.1704 0.9810
H25 H 1.3175 -0.2432 1.0177
H26 H 1.3088 -0.2310 0.9449
C39 C 1.2236(2) 0.4740(4) 1.2945(4)
C40 C 1.1990(3) 0.5817(6) 1.3317(6)
H27 H 1.2110 0.6228 1.3604
H28 H 1.1801 0.5980 1.2872
H29 H 1.1824 0.5527 1.3465
C41 C 1.2802(3) 0.5581(6) 1.3708(5)
H30 H 1.2833 0.6019 1.3952
H31 H 1.2959 0.5197 1.4012
H32 H 1.2920 0.5653 1.3411
Cd1A Cd 1.210168(11) 0.11058(2) 0.80573(2)
Cd1G Cd 1.289832(11) 0.38942(2) 1.19427(2)
Cd1C Cd 0.710168(11) -0.38942(2) 0.80573(2)
Cd2F Cd 1.176410(12) 0.44537(2) 1.03547(2)
Cd2E Cd 0.323590(12) -0.05463(2) 0.46453(2)
Cd2A Cd 0.676410(12) 0.05463(2) 0.53547(2)
Cd3C Cd 0.320820(12) -0.12196(2) 0.32219(2)
Cd3G Cd 0.679180(12) 0.12196(2) 0.67781(2)
Cd3D Cd 0.820820(12) -0.37804(2) 0.82219(2)
O4A O 0.77523(15) 0.0591(2) 0.5943(2)
O5F O 1.31353(13) 0.1667(2) 0.9106(2)
O6G O 0.75518(13) 0.2088(2) 0.6281(2)
O7C O 1.10887(17) 0.3695(4) 1.1137(3)
O8E O 1.38175(14) 0.0439(3) 0.9435(3)
O9A O 1.28277(12) 0.0351(2) 0.8483(2)
O9G O 1.21723(12) 0.4649(2) 1.1517(2)
O11D O 1.19959(14) 0.2670(2) 1.2242(3)
O12C O 0.75667(14) 0.1607(2) 0.7524(2)
O12D O 1.25667(14) 0.3393(2) 1.2524(2)
O16? O 0.8544(13) 0.158(2) 0.7599(18)
O17? O 0.8634(14) 0.064(2) 0.7156(19)
loop_
_geom_bond_atom_site_label_1
_geom_bond_atom_site_label_2
_geom_bond_site_symmetry_1
_geom_bond_site_symmetry_2
Cd1 O1 1_555 1_555
Cd2 O3 1_555 1_555
Cd3 O5 1_555 1_555
O1 C1 1_555 1_555
O2 Cd1 1_555 1_555
O3 C9 1_555 1_555
O4 C9 1_555 1_555
O5 C16 1_555 1_555
O6 C16 1_555 1_555
O7 C17 1_555 1_555
O8 C17 1_555 1_555
O9 Cd1 1_555 1_555
O10 Cd1 1_555 1_555
O11 C32 1_555 1_555
O12 C32 1_555 1_555
O13 Cd2 1_555 1_555
O14 Cd2 1_555 1_555
O15 Cd3 1_555 1_555
N1 C8 1_555 1_555
N2 C24 1_555 1_555
N3 C33 1_555 1_555
N4 C36 1_555 1_555
N5 C39 1_555 1_555
C1 O2 1_555 1_555
C2 C1 1_555 1_555
C3 C2 1_555 1_555
H1 C3 1_555 1_555
C4 C3 1_555 1_555
H2 C4 1_555 1_555
C5 C4 1_555 1_555
C6 C5 1_555 1_555
H3 C6 1_555 1_555
C7 C2 1_555 1_555
H4 C7 1_555 1_555
C8 C5 1_555 1_555
C9 C10 1_555 1_555
C10 C11 1_555 1_555
C11 H5 1_555 1_555
C12 C11 1_555 1_555
C13 C12 1_555 1_555
H6 C13 1_555 1_555
C14 N1 1_555 1_555
C15 C10 1_555 1_555
H7 C15 1_555 1_555
C16 C12 1_555 1_555
C17 C18 1_555 1_555
C18 C19 1_555 1_555
C19 H8 1_555 1_555
C20 C19 1_555 1_555
H9 C20 1_555 1_555
C21 C20 1_555 1_555
C22 C21 1_555 1_555
H10 C22 1_555 1_555
C23 C18 1_555 1_555
H11 C23 1_555 1_555
C24 C21 1_555 1_555
C25 O9 1_555 1_555
C26 C25 1_555 1_555
C27 C26 1_555 1_555
H12 C27 1_555 1_555
C28 C27 1_555 1_555
C29 C28 1_555 1_555
H13 C29 1_555 1_555
C30 N2 1_555 1_555
C31 C26 1_555 1_555
H14 C31 1_555 1_555
C32 C28 1_555 1_555
C33 O13 1_555 1_555
C34 N3 1_555 1_555
H15 C34 1_555 1_555
H16 C34 1_555 1_555
H17 C34 1_555 1_555
C35 N3 1_555 1_555
H18 C35 1_555 1_555
H19 C35 1_555 1_555
H20 C35 1_555 1_555
C36 O14 1_555 1_555
C37 N4 1_555 1_555
H21 C37 1_555 1_555
H22 C37 1_555 1_555
H23 C37 1_555 1_555
C38 N4 1_555 1_555
H24 C38 1_555 1_555
H25 C38 1_555 1_555
H26 C38 1_555 1_555
C39 O15 1_555 1_555
C40 N5 1_555 1_555
H27 C40 1_555 1_555
H28 C40 1_555 1_555
H29 C40 1_555 1_555
C41 N5 1_555 1_555
H30 C41 1_555 1_555
H31 C41 1_555 1_555
H32 C41 1_555 1_555
C42 H33 1_555 1_555
C43 C42 1_555 1_555
H34 C43 1_555 1_555
C44 C43 1_555 1_555
H35 C44 1_555 1_555
C45 C44 1_555 1_555
H36 C45 1_555 1_555
C46 C45 1_555 1_555
H37 C46 1_555 1_555
C47 C42 1_555 1_555
C48 C47 1_555 1_555
H38 C48 1_555 1_555
H39 C48 1_555 1_555
H40 C48 1_555 1_555
Cd1A O4 1_555 1_555
Cd1G O6 1_555 1_555
Cd1C O12 1_555 1_555
Cd2F O5 1_555 1_555
Cd2E O8 1_555 1_555
Cd2A O9 1_555 1_555
Cd3C O7 1_555 1_555
Cd3G O9 1_555 1_555
Cd3D O11 1_555 1_555
O4A Cd1 1_555 1_555
O5F Cd2 1_555 1_555
O6G Cd1 1_555 1_555
O7C Cd3 1_555 1_555
O8E Cd2 1_555 1_555
O9A Cd2 1_555 1_555
O9G Cd3 1_555 1_555
O11D Cd3 1_555 1_555
O12C Cd1 1_555 1_555
O12D Cd3 1_555 1_555
O10 C25 1_555 1_555
O12 Cd3D 1_555 1_555
C6 C7 1_555 1_555
C13 C14 1_555 1_555
C14 C15 1_555 1_555
C22 C23 1_555 1_555
C29 C30 1_555 1_555
C30 C31 1_555 1_555
C46 C47 1_555 1_555
Cd1A O9A 1_555 1_555
Cd1G O9G 1_555 1_555
Cd1G O12D 1_555 1_555
Cd2F O9G 1_555 1_555
Cd3G O12C 1_555 1_555

#END
