
#######################################################################
#
#                 Cambridge Crystallographic Data Centre
#                                CCDC 
#
#######################################################################
#
# If this CIF has been generated from an entry in the Cambridge 
# Structural Database, then it will include bibliographic, chemical, 
# crystal, experimental, refinement or atomic coordinate data resulting 
# from the CCDC's data processing and validation procedures.
#
#######################################################################

data_REHJEV
_symmetry_cell_setting           monoclinic
_symmetry_space_group_name_H-M   'C 2/c'
_symmetry_Int_Tables_number      15
_space_group_name_Hall           '-C 2yn'
loop_
_symmetry_equiv_pos_site_id
_symmetry_equiv_pos_as_xyz
1 x,y,z
2 -x,y,1/2-z
3 1/2+x,1/2+y,z
4 1/2-x,1/2+y,1/2-z
5 -x,-y,-z
6 x,-y,1/2+z
7 1/2-x,1/2-y,-z
8 1/2+x,1/2-y,1/2+z
_cell_length_a                   25.907(3)
_cell_length_b                   11.9344(12)
_cell_length_c                   23.796(3)
_cell_angle_alpha                90
_cell_angle_beta                 114.356(2)
_cell_angle_gamma                90
_cell_volume                     6702.55
loop_
_atom_site_label
_atom_site_type_symbol
_atom_site_fract_x
_atom_site_fract_y
_atom_site_fract_z
O5 O 0.5387(4) 0.4703(8) 0.5029(4)
N5 N 0.4937(6) 0.4414(13) 0.5150(8)
O6 O 0.4730(9) 0.3732(14) 0.5422(9)
O5D O 0.4613(4) 0.5297(8) 0.4971(4)
N5D N 0.5063(6) 0.5586(13) 0.4850(8)
O6D O 0.5270(9) 0.6268(14) 0.4578(9)
O7 O 0.4634(14) 0.083(3) 0.4206(12)
O8 O 0.4301(10) 0.198(2) 0.4701(13)
O9 O 0.5025(19) 0.102(5) 0.5254(12)
N6 N 0.4667(10) 0.126(2) 0.4710(10)
Ag1 Ag 0.542595(18) 1.68931(4) 0.916246(19)
Ag2 Ag 0.2500 0.7500 0.5000
O1 O 0.21515(13) 1.1729(2) 0.63421(14)
O2 O 0.33269(13) 1.4078(3) 0.73697(14)
O3 O 0.19489(14) 1.5117(2) 0.64370(13)
O4 O 0.20181(13) 1.2487(2) 0.76008(15)
C1 C 0.2266(2) 1.0820(3) 0.6079(2)
C2 C 0.37690(18) 1.4671(4) 0.77824(19)
C3 C 0.2178(2) 1.4085(4) 0.6337(2)
H1 H 0.1893 1.3675 0.6000
H2 H 0.2497 1.4228 0.6235
C4 C 0.28229(17) 1.4033(4) 0.74708(18)
H3 H 0.2896 1.3647 0.7855
H4 H 0.2695 1.4786 0.7499
C5 C 0.3757(2) 1.5266(4) 0.8270(2)
H5 H 0.3437 1.5250 0.8353
C6 C 0.1853(2) 1.3247(4) 0.7079(2)
H6 H 0.1541 1.2934 0.6726
H7 H 0.1734 1.3960 0.7182
N1 N 0.23975(19) 0.8930(3) 0.54732(19)
N2 N 0.46887(17) 1.5921(4) 0.85496(18)
C7 C 0.1809(2) 1.0382(4) 0.5582(2)
H8 H 0.1452 1.0706 0.5446
C8 C 0.26095(19) 1.2292(3) 0.6829(2)
H9 H 0.2747 1.1844 0.7203
H10 H 0.2921 1.2423 0.6711
N3 N 0.09863(18) 1.7130(4) 0.4965(2)
C9 C 0.23673(18) 1.3409(3) 0.69326(19)
C10 C 0.16448(19) 1.5757(4) 0.5932(2)
C11 C 0.2789(2) 1.0292(4) 0.6276(2)
H11 H 0.3102 1.0556 0.6613
C12 C 0.1903(2) 0.9437(4) 0.5292(2)
H12 H 0.1601 0.9149 0.4951
C13 C 0.1135(2) 1.2888(5) 0.7706(2)
H13 H 0.0996 1.3381 0.7374
N4 N 0.0990(2) 1.1983(5) 0.8521(2)
C14 C 0.16564(19) 1.2351(4) 0.7870(2)
C15 C 0.4217(2) 1.5879(4) 0.8631(2)
H14 H 0.4197 1.6292 0.8953
C16 C 0.1827(2) 1.1610(4) 0.8356(2)
H15 H 0.2171 1.1236 0.8480
C17 C 0.2824(2) 0.9371(4) 0.5953(2)
H16 H 0.3176 0.9024 0.6080
C18 C 0.4254(2) 1.4716(5) 0.7679(2)
H17 H 0.4279 1.4334 0.7351
C19 C 0.4697(2) 1.5341(5) 0.8075(3)
H18 H 0.5027 1.5363 0.8009
C20 C 0.1051(2) 1.7343(4) 0.5551(2)
H19 H 0.0868 1.7960 0.5624
C21 C 0.0840(3) 1.2664(6) 0.8047(3)
H20 H 0.0495 1.3029 0.7934
C22 C 0.1371(2) 1.6689(4) 0.6030(2)
H21 H 0.1409 1.6861 0.6426
C23 C 0.1252(2) 1.6244(5) 0.4886(2)
H22 H 0.1210 1.6086 0.4487
C24 C 0.1586(2) 1.5539(4) 0.5343(2)
H23 H 0.1767 1.4932 0.5257
C25 C 0.1483(3) 1.1433(5) 0.8657(3)
H24 H 0.1594 1.0904 0.8972
Ag1F Ag -0.042595(18) -0.18931(4) 0.083754(19)
Ag1A Ag 0.457405(18) -0.31069(4) 0.583754(19)
Ag1B Ag 0.042595(18) 1.18931(4) 0.916246(19)
Ag1D Ag 0.457405(18) 0.31069(4) 0.083754(19)
Ag1G Ag 0.042595(18) 1.81069(4) 0.416246(19)
O1F O 0.28485(13) 0.3271(2) 0.36579(14)
O2F O 0.16731(13) 0.0922(3) 0.26303(14)
O3F O 0.30511(14) -0.0117(2) 0.35630(13)
O4F O 0.29819(13) 0.2513(2) 0.23992(15)
C1F C 0.2734(2) 0.4180(3) 0.3921(2)
C2F C 0.12310(18) 0.0329(4) 0.22176(19)
C3F C 0.2822(2) 0.0915(4) 0.3663(2)
H1F H 0.3107 0.1325 0.4000
H2F H 0.2503 0.0772 0.3765
C4F C 0.21771(17) 0.0967(4) 0.25292(18)
H3F H 0.2104 0.1353 0.2145
H4F H 0.2305 0.0214 0.2501
C5F C 0.1243(2) -0.0266(4) 0.1730(2)
H5F H 0.1563 -0.0250 0.1647
C6F C 0.3147(2) 0.1753(4) 0.2921(2)
H6F H 0.3459 0.2066 0.3274
H7F H 0.3266 0.1040 0.2818
N1F N 0.26025(19) 0.6070(3) 0.45268(19)
N2F N 0.03113(17) -0.0921(4) 0.14504(18)
C7F C 0.3191(2) 0.4618(4) 0.4418(2)
H8F H 0.3548 0.4294 0.4554
C8F C 0.23905(19) 0.2708(3) 0.3171(2)
H9F H 0.2253 0.3156 0.2797
H10F H 0.2079 0.2577 0.3289
N3F N 0.40137(18) -0.2130(4) 0.5035(2)
N3A N -0.09863(18) -0.2870(4) 0.0035(2)
N3G N 0.59863(18) 1.7870(4) 0.9965(2)
C9F C 0.26327(18) 0.1591(3) 0.30674(19)
C10F C 0.33552(19) -0.0757(4) 0.4068(2)
C11F C 0.2211(2) 0.4708(4) 0.3724(2)
H11F H 0.1898 0.4444 0.3387
C12F C 0.3097(2) 0.5563(4) 0.4708(2)
H12F H 0.3399 0.5851 0.5049
C13F C 0.3865(2) 0.2112(5) 0.2294(2)
H13F H 0.4004 0.1619 0.2626
N4F N 0.4010(2) 0.3017(5) 0.1479(2)
N4B N 0.5990(2) 1.6983(5) 0.8521(2)
N4D N -0.0990(2) -0.1983(5) 0.1479(2)
C14F C 0.33436(19) 0.2649(4) 0.2130(2)
C15F C 0.0783(2) -0.0879(4) 0.1369(2)
H14F H 0.0803 -0.1292 0.1047
C16F C 0.3173(2) 0.3390(4) 0.1644(2)
H15F H 0.2829 0.3764 0.1520
C17F C 0.2176(2) 0.5629(4) 0.4047(2)
H16F H 0.1824 0.5976 0.3920
C18F C 0.0746(2) 0.0284(5) 0.2321(2)
H17F H 0.0721 0.0666 0.2649
C19F C 0.0303(2) -0.0341(5) 0.1925(3)
H18F H -0.0027 -0.0363 0.1991
C20F C 0.3949(2) -0.2343(4) 0.4449(2)
H19F H 0.4132 -0.2960 0.4376
C21F C 0.4160(3) 0.2336(6) 0.1953(3)
H20F H 0.4505 0.1971 0.2066
C22F C 0.3629(2) -0.1689(4) 0.3970(2)
H21F H 0.3591 -0.1861 0.3574
C23F C 0.3748(2) -0.1244(5) 0.5114(2)
H22F H 0.3790 -0.1086 0.5513
C24F C 0.3414(2) -0.0539(4) 0.4657(2)
H23F H 0.3233 0.0068 0.4743
C25F C 0.3517(3) 0.3567(5) 0.1343(3)
H24F H 0.3406 0.4096 0.1028
loop_
_geom_bond_atom_site_label_1
_geom_bond_atom_site_label_2
_geom_bond_site_symmetry_1
_geom_bond_site_symmetry_2
Ag1 N2 1_555 1_555
Ag2 N1 1_555 1_555
O1 C1 1_555 1_555
O2 C2 1_555 1_555
O3 C3 1_555 1_555
O4 C6 1_555 1_555
C1 C7 1_555 1_555
C2 C5 1_555 1_555
C3 H1 1_555 1_555
H2 C3 1_555 1_555
C4 O2 1_555 1_555
H3 C4 1_555 1_555
H4 C4 1_555 1_555
C5 H5 1_555 1_555
C6 H6 1_555 1_555
H7 C6 1_555 1_555
N1 C12 1_555 1_555
N2 C15 1_555 1_555
C7 H8 1_555 1_555
C8 O1 1_555 1_555
H9 C8 1_555 1_555
H10 C8 1_555 1_555
N3 C20 1_555 1_555
C9 C3 1_555 1_555
C10 O3 1_555 1_555
C11 C1 1_555 1_555
H11 C11 1_555 1_555
C12 C7 1_555 1_555
H12 C12 1_555 1_555
C13 H13 1_555 1_555
N4 C21 1_555 1_555
C14 O4 1_555 1_555
C15 C5 1_555 1_555
H14 C15 1_555 1_555
C16 C14 1_555 1_555
H15 C16 1_555 1_555
C17 N1 1_555 1_555
H16 C17 1_555 1_555
C18 C2 1_555 1_555
H17 C18 1_555 1_555
C19 N2 1_555 1_555
H18 C19 1_555 1_555
C20 H19 1_555 1_555
C21 C13 1_555 1_555
H20 C21 1_555 1_555
C22 C10 1_555 1_555
H21 C22 1_555 1_555
C23 N3 1_555 1_555
H22 C23 1_555 1_555
C24 C10 1_555 1_555
H23 C24 1_555 1_555
C25 N4 1_555 1_555
H24 C25 1_555 1_555
O5 N5 1_555 1_555
N5 O6 1_555 1_555
O7 N6 1_555 1_555
O8 N6 1_555 1_555
O9 N6 1_555 1_555
Ag1F N2F 1_555 1_555
Ag1A N3F 1_555 1_555
Ag1B N4 1_555 1_555
Ag1D N4F 1_555 1_555
Ag1G N3 1_555 1_555
O1F C1F 1_555 1_555
O2F C2F 1_555 1_555
O3F C3F 1_555 1_555
O4F C6F 1_555 1_555
C1F C7F 1_555 1_555
C2F C5F 1_555 1_555
C3F H1F 1_555 1_555
H2F C3F 1_555 1_555
C4F O2F 1_555 1_555
H3F C4F 1_555 1_555
H4F C4F 1_555 1_555
C5F H5F 1_555 1_555
C6F H6F 1_555 1_555
H7F C6F 1_555 1_555
N1F Ag2 1_555 1_555
N2F C15F 1_555 1_555
C7F H8F 1_555 1_555
C8F O1F 1_555 1_555
H9F C8F 1_555 1_555
H10F C8F 1_555 1_555
N3F C20F 1_555 1_555
N3A Ag1F 1_555 1_555
N3G Ag1 1_555 1_555
C9F C3F 1_555 1_555
C10F O3F 1_555 1_555
C11F C1F 1_555 1_555
H11F C11F 1_555 1_555
C12F N1F 1_555 1_555
H12F C12F 1_555 1_555
C13F H13F 1_555 1_555
N4F C21F 1_555 1_555
N4B Ag1 1_555 1_555
N4D Ag1F 1_555 1_555
C14F O4F 1_555 1_555
C15F C5F 1_555 1_555
H14F C15F 1_555 1_555
C16F C14F 1_555 1_555
H15F C16F 1_555 1_555
C17F N1F 1_555 1_555
H16F C17F 1_555 1_555
C18F C2F 1_555 1_555
H17F C18F 1_555 1_555
C19F N2F 1_555 1_555
H18F C19F 1_555 1_555
C20F H19F 1_555 1_555
C21F C13F 1_555 1_555
H20F C21F 1_555 1_555
C22F C10F 1_555 1_555
H21F C22F 1_555 1_555
C23F N3F 1_555 1_555
H22F C23F 1_555 1_555
C24F C10F 1_555 1_555
H23F C24F 1_555 1_555
C25F N4F 1_555 1_555
H24F C25F 1_555 1_555
O5D N5 1_555 1_555
N5D O5 1_555 1_555
O6D N5D 1_555 1_555
C4 C9 1_555 1_555
C6 C9 1_555 1_555
C8 C9 1_555 1_555
C11 C17 1_555 1_555
C13 C14 1_555 1_555
C16 C25 1_555 1_555
C18 C19 1_555 1_555
C20 C22 1_555 1_555
C23 C24 1_555 1_555
N5 N5D 1_555 1_555
C4F C9F 1_555 1_555
C6F C9F 1_555 1_555
C7F C12F 1_555 1_555
C8F C9F 1_555 1_555
C11F C17F 1_555 1_555
C13F C14F 1_555 1_555
C16F C25F 1_555 1_555
C18F C19F 1_555 1_555
C20F C22F 1_555 1_555
C23F C24F 1_555 1_555
O5D N5D 1_555 1_555

#END
