
#######################################################################
#
#                 Cambridge Crystallographic Data Centre
#                                CCDC 
#
#######################################################################
#
# If this CIF has been generated from an entry in the Cambridge 
# Structural Database, then it will include bibliographic, chemical, 
# crystal, experimental, refinement or atomic coordinate data resulting 
# from the CCDC's data processing and validation procedures.
#
#######################################################################

data_REHJIZ
_symmetry_cell_setting           tetragonal
_symmetry_space_group_name_H-M   'P -4 2 c'
_symmetry_Int_Tables_number      112
_space_group_name_Hall           'P -4 2c'
loop_
_symmetry_equiv_pos_site_id
_symmetry_equiv_pos_as_xyz
1 x,y,z
2 -x,-y,z
3 x,-y,1/2-z
4 -x,y,1/2-z
5 y,x,1/2+z
6 -y,-x,1/2+z
7 -y,x,-z
8 y,-x,-z
_cell_length_a                   10.0372(9)
_cell_length_b                   10.0372(9)
_cell_length_c                   17.607(4)
_cell_angle_alpha                90
_cell_angle_beta                 90
_cell_angle_gamma                90
_cell_volume                     1773.82
loop_
_atom_site_label
_atom_site_type_symbol
_atom_site_fract_x
_atom_site_fract_y
_atom_site_fract_z
N2 N 0.0000 0.1239(10) 0.7500
O2 O 0.092(2) 0.206(2) 0.744(6)
O4 O 0.0000 0.0000 0.7500
N2A N 0.0000 -0.1239(10) 0.7500
O2A O -0.092(2) -0.206(2) 0.744(6)
O2B O 0.092(2) -0.206(2) 0.756(6)
O2C O -0.092(2) 0.206(2) 0.756(6)
O3 O 0.382(4) 0.306(2) 0.7269(7)
H7 H 0.3037 0.3376 0.7225
H8 H 0.4090 0.3495 0.7654
Ag1 Ag 0.29786(16) 0.0000 0.7500
C1 C 0.5000 0.5000 1.0000
N1 N 0.3128(8) 0.0240(7) 0.8697(6)
C2 C 0.3850(6) 0.1593(6) 0.9724(5)
C3 C 0.3399(9) 0.0679(8) 1.0249(7)
H1 H 0.3458 0.0831 1.0769
C4 C 0.4664(6) 0.3807(6) 0.9509(4)
H2 H 0.3898 0.3998 0.9191
H3 H 0.5411 0.3578 0.9185
C5 C 0.2856(10) -0.0478(9) 0.9957(9)
H4 H 0.2557 -0.1141 1.0285
C6 C 0.3705(7) 0.1355(7) 0.8967(6)
H5 H 0.4016 0.1986 0.8623
C7 C 0.2755(11) -0.0650(9) 0.9192(8)
H6 H 0.2402 -0.1447 0.9013
O1 O 0.4375(6) 0.2746(5) 1.0018(4)
Ag1E Ag 0.0000 0.70214(16) 1.2500
Ag1A Ag 0.70214(16) 1.0000 0.7500
Ag1D Ag 1.0000 0.29786(16) 1.2500
N1A N 0.6872(8) 0.9760(7) 0.8697(6)
N1F N 0.9760(7) 0.3128(8) 1.1303(6)
N1G N 0.0240(7) 0.6872(8) 1.1303(6)
N1B N 0.3128(8) -0.0240(7) 0.6303(6)
N1E N -0.0240(7) 0.6872(8) 1.3697(6)
C2A C 0.6150(6) 0.8407(6) 0.9724(5)
C2F C 0.8407(6) 0.3850(6) 1.0276(5)
C2G C 0.1593(6) 0.6150(6) 1.0276(5)
C3A C 0.6601(9) 0.9321(8) 1.0249(7)
C3F C 0.9321(8) 0.3399(9) 0.9751(7)
C3G C 0.0679(8) 0.6601(9) 0.9751(7)
H1A H 0.6542 0.9169 1.0769
H1F H 0.9169 0.3458 0.9231
H1G H 0.0831 0.6542 0.9231
C4A C 0.5336(6) 0.6193(6) 0.9509(4)
C4F C 0.6193(6) 0.4664(6) 1.0491(4)
C4G C 0.3807(6) 0.5336(6) 1.0491(4)
H2A H 0.6102 0.6002 0.9191
H2F H 0.6002 0.3898 1.0809
H2G H 0.3998 0.6102 1.0809
H3A H 0.4589 0.6422 0.9185
H3F H 0.6422 0.5411 1.0815
H3G H 0.3578 0.4589 1.0815
C5A C 0.7144(10) 1.0478(9) 0.9957(9)
C5F C 1.0478(9) 0.2856(10) 1.0043(9)
C5G C -0.0478(9) 0.7144(10) 1.0043(9)
H4A H 0.7443 1.1141 1.0285
H4F H 1.1141 0.2557 0.9715
H4G H -0.1141 0.7443 0.9715
C6A C 0.6295(7) 0.8645(7) 0.8967(6)
C6F C 0.8645(7) 0.3705(7) 1.1033(6)
C6G C 0.1355(7) 0.6295(7) 1.1033(6)
H5A H 0.5984 0.8014 0.8623
H5F H 0.8014 0.4016 1.1377
H5G H 0.1986 0.5984 1.1377
C7A C 0.7245(11) 1.0650(9) 0.9192(8)
C7F C 1.0650(9) 0.2755(11) 1.0808(8)
C7G C -0.0650(9) 0.7245(11) 1.0808(8)
H6A H 0.7598 1.1447 0.9013
H6F H 1.1447 0.2402 1.0987
H6G H -0.1447 0.7598 1.0987
O1A O 0.5625(6) 0.7254(5) 1.0018(4)
O1F O 0.7254(5) 0.4375(6) 0.9982(4)
O1G O 0.2746(5) 0.5625(6) 0.9982(4)
loop_
_geom_bond_atom_site_label_1
_geom_bond_atom_site_label_2
_geom_bond_site_symmetry_1
_geom_bond_site_symmetry_2
Ag1 N1 1_555 1_555
C1 C4 1_555 1_555
N1 C6 1_555 1_555
C2 C3 1_555 1_555
C3 H1 1_555 1_555
C4 H2 1_555 1_555
H3 C4 1_555 1_555
C5 C3 1_555 1_555
H4 C5 1_555 1_555
C6 C2 1_555 1_555
H5 C6 1_555 1_555
C7 N1 1_555 1_555
H6 C7 1_555 1_555
O1 C2 1_555 1_555
N2 O2 1_555 1_555
O3 H7 1_555 1_555
H8 O3 1_555 1_555
O4 N2 1_555 1_555
Ag1E N1G 1_555 1_555
Ag1A N1A 1_555 1_555
Ag1D N1F 1_555 1_555
N1A C6A 1_555 1_555
N1F C6F 1_555 1_555
N1G C6G 1_555 1_555
N1B Ag1 1_555 1_555
N1E Ag1E 1_555 1_555
C2A C3A 1_555 1_555
C2F C3F 1_555 1_555
C2G C3G 1_555 1_555
C3A H1A 1_555 1_555
C3F H1F 1_555 1_555
C3G H1G 1_555 1_555
C4A C1 1_555 1_555
C4F C1 1_555 1_555
C4G C1 1_555 1_555
H2A C4A 1_555 1_555
H2F C4F 1_555 1_555
H2G C4G 1_555 1_555
H3A C4A 1_555 1_555
H3F C4F 1_555 1_555
H3G C4G 1_555 1_555
C5A C3A 1_555 1_555
C5F C3F 1_555 1_555
C5G C3G 1_555 1_555
H4A C5A 1_555 1_555
H4F C5F 1_555 1_555
H4G C5G 1_555 1_555
C6A C2A 1_555 1_555
C6F C2F 1_555 1_555
C6G C2G 1_555 1_555
H5A C6A 1_555 1_555
H5F C6F 1_555 1_555
H5G C6G 1_555 1_555
C7A N1A 1_555 1_555
C7F N1F 1_555 1_555
C7G N1G 1_555 1_555
H6A C7A 1_555 1_555
H6F C7F 1_555 1_555
H6G C7G 1_555 1_555
O1A C2A 1_555 1_555
O1F C2F 1_555 1_555
O1G C2G 1_555 1_555
N2A O4 1_555 1_555
O2A N2A 1_555 1_555
O2B N2A 1_555 1_555
O2C N2 1_555 1_555
C4 O1 1_555 1_555
C5 C7 1_555 1_555
C4A O1A 1_555 1_555
C4F O1F 1_555 1_555
C4G O1G 1_555 1_555
C5A C7A 1_555 1_555
C5F C7F 1_555 1_555
C5G C7G 1_555 1_555

#END
