
#######################################################################
#
#                 Cambridge Crystallographic Data Centre
#                                CCDC 
#
#######################################################################
#
# If this CIF has been generated from an entry in the Cambridge 
# Structural Database, then it will include bibliographic, chemical, 
# crystal, experimental, refinement or atomic coordinate data resulting 
# from the CCDC's data processing and validation procedures.
#
#######################################################################

data_REHLEW
_symmetry_cell_setting           triclinic
_symmetry_space_group_name_H-M   'P -1'
_symmetry_Int_Tables_number      2
_space_group_name_Hall           '-P 1'
loop_
_symmetry_equiv_pos_site_id
_symmetry_equiv_pos_as_xyz
1 x,y,z
2 -x,-y,-z
_cell_length_a                   5.6416(10)
_cell_length_b                   8.0487(15)
_cell_length_c                   9.7998(18)
_cell_angle_alpha                93.525(15)
_cell_angle_beta                 106.058(14)
_cell_angle_gamma                96.254(15)
_cell_volume                     423.118
loop_
_atom_site_label
_atom_site_type_symbol
_atom_site_fract_x
_atom_site_fract_y
_atom_site_fract_z
Ba1 Ba 0.31305(4) 0.21683(3) 0.05085(2)
O1 O 0.5090(6) 0.1001(4) -0.1503(3)
O2 O 0.8954(5) 0.0703(4) -0.1524(3)
C1 C 0.6857(7) 0.1165(5) -0.2062(4)
C2 C 0.6356(7) 0.1824(5) -0.3511(4)
C3 C 0.4322(8) 0.2636(6) -0.4066(4)
H1 H 0.3306 0.2920 -0.3509
C4 C 0.7195(8) 0.1869(6) -0.5777(4)
H2 H 0.8199 0.1616 -0.6350
C5 C 0.7858(7) 0.1470(6) -0.4371(4)
H3 H 0.9288 0.0972 -0.4012
C6 C 0.3821(8) 0.3021(6) -0.5468(4)
H4 H 0.2477 0.3602 -0.5823
N1 N 0.5163(7) 0.2604(5) -0.6342(4)
N2 N 0.8965(6) 0.4325(4) 0.1387(3)
O3 O 0.7116(6) 0.5109(4) 0.1280(4)
O4 O 0.8668(6) 0.2758(4) 0.1359(4)
O5 O 1.1083(6) 0.5084(5) 0.1506(4)
Ba1A Ba 0.68695(4) -0.21683(3) -0.05085(2)
Ba1_2 Ba 1.31305(4) 0.21683(3) 0.05085(2)
Ba1_3 Ba 0.31305(4) 0.21683(3) -0.94915(2)
Ba1A_2 Ba 0.68695(4) 0.78317(3) -0.05085(2)
O1A O 0.4910(6) -0.1001(4) 0.1503(3)
O2_2 O -0.1046(5) 0.0703(4) -0.1524(3)
O2A O 0.1046(5) -0.0703(4) 0.1524(3)
N1_2 N 0.5163(7) 0.2604(5) 0.3658(4)
O3A O 0.2884(6) 0.4891(4) -0.1280(4)
O4_2 O -0.1332(6) 0.2758(4) 0.1359(4)
O5_2 O 0.1083(6) 0.5084(5) 0.1506(4)
loop_
_geom_bond_atom_site_label_1
_geom_bond_atom_site_label_2
_geom_bond_site_symmetry_1
_geom_bond_site_symmetry_2
Ba1 O1 1_555 1_555
O1 C1 1_555 1_555
O2 C1 1_555 1_555
C1 C2 1_555 1_555
C2 C3 1_555 1_555
C3 H1 1_555 1_555
C4 H2 1_555 1_555
C5 C2 1_555 1_555
H3 C5 1_555 1_555
C6 C3 1_555 1_555
H4 C6 1_555 1_555
N1 C4 1_555 1_555
N2 O3 1_555 1_555
O3 Ba1 1_555 1_555
O4 Ba1 1_555 1_555
O5 N2 1_555 1_555
Ba1A O1 1_555 1_555
Ba1_2 O2 1_555 1_555
Ba1_3 N1 1_555 1_555
Ba1A_2 O3 1_555 1_555
O1A Ba1 1_555 1_555
O2_2 Ba1 1_555 1_555
O2A Ba1 1_555 1_555
N1_2 Ba1 1_555 1_555
O3A Ba1 1_555 1_555
O4_2 Ba1 1_555 1_555
O5_2 Ba1 1_555 1_555
O2 Ba1A 1_555 1_555
C4 C5 1_555 1_555
C6 N1 1_555 1_555
N2 O4 1_555 1_555
O4 Ba1_2 1_555 1_555
O5 Ba1_2 1_555 1_555
Ba1A O1A 1_555 1_555
Ba1A_2 O3A 1_555 1_555

#END
