
#######################################################################
#
#                 Cambridge Crystallographic Data Centre
#                                CCDC 
#
#######################################################################
#
# If this CIF has been generated from an entry in the Cambridge 
# Structural Database, then it will include bibliographic, chemical, 
# crystal, experimental, refinement or atomic coordinate data resulting 
# from the CCDC's data processing and validation procedures.
#
#######################################################################

data_REHLUN
_symmetry_cell_setting           triclinic
_symmetry_space_group_name_H-M   'P -1'
_symmetry_Int_Tables_number      2
_space_group_name_Hall           '-P 1'
loop_
_symmetry_equiv_pos_site_id
_symmetry_equiv_pos_as_xyz
1 x,y,z
2 -x,-y,-z
_cell_length_a                   10.2262(4)
_cell_length_b                   12.7262(5)
_cell_length_c                   18.4057(7)
_cell_angle_alpha                108.983(2)
_cell_angle_beta                 93.755(2)
_cell_angle_gamma                97.731(2)
_cell_volume                     2229.16
loop_
_atom_site_label
_atom_site_type_symbol
_atom_site_fract_x
_atom_site_fract_y
_atom_site_fract_z
C1 C 0.4345(3) 0.6336(2) 0.29440(18)
C2 C 0.3006(3) 0.6349(2) 0.25581(17)
C3 C 0.1871(3) 0.6234(2) 0.29191(18)
H1 H 0.1943 0.6162 0.3406
C4 C -0.0615(3) 0.6100(3) 0.29439(19)
C5 C 0.0623(3) 0.6225(2) 0.25579(17)
C6 C 0.0540(3) 0.6377(3) 0.18451(18)
H2 H -0.0284 0.6384 0.1602
C7 C 0.2896(3) 0.6493(3) 0.18409(18)
H3 H 0.3651 0.6574 0.1596
C8 C 0.6832(3) 0.5470(3) 0.49791(18)
C9 C 0.6382(3) 0.4399(3) 0.43275(19)
C10 C 0.1668(3) 0.6517(3) 0.14924(19)
H4 H 0.1601 0.6629 0.1017
C11 C 0.6000(3) 0.3381(3) 0.4444(2)
H5 H 0.6007 0.3352 0.4942
C12 C 0.6976(3) 0.5513(3) 0.5749(2)
H6 H 0.6792 0.4858 0.5870
C13 C 0.7495(3) 0.7395(3) 0.5369(2)
H7 H 0.7673 0.8044 0.5240
C14 C 0.5971(3) 0.3505(3) 0.3007(2)
H8 H 0.5950 0.3547 0.2511
C15 C 0.7655(4) 0.7494(3) 0.6139(2)
H9 H 0.7933 0.8192 0.6522
C16 C 0.7392(4) 0.6534(4) 0.6323(2)
H10 H 0.7494 0.6574 0.6838
C17 C 0.5613(4) 0.2421(3) 0.3816(3)
H11 H 0.5361 0.1735 0.3888
C18 C 0.5597(4) 0.2468(3) 0.3086(3)
H12 H 0.5341 0.1822 0.2655
Cd1 Cd 0.69099(2) 0.622817(19) 0.349300(13)
H34 H 0.722(5) 0.839(5) 0.372(3)
H35 H 0.834(4) 0.824(3) 0.370(2)
N1 N 0.7100(2) 0.6415(2) 0.48006(15)
N2 N 0.6362(2) 0.4453(2) 0.36096(15)
O5 O 0.52909(19) 0.61734(19) 0.25280(13)
O6 O 0.4496(2) 0.6455(2) 0.36414(13)
O7 O -0.1711(2) 0.6005(2) 0.25595(14)
O8 O -0.0523(2) 0.6081(3) 0.36120(14)
O9 O 0.7668(3) 0.8159(2) 0.39037(17)
Cd1_2 Cd -0.30901(2) 0.622817(19) 0.349300(13)
O7_2 O 0.8289(2) 0.6005(2) 0.25595(14)
O8_2 O 0.9477(2) 0.6081(3) 0.36120(14)
C19 C 0.8610(4) 0.7974(3) 0.0786(2)
H13 H 0.9178 0.8601 0.0773
C20 C 0.0514(3) 0.9360(3) 0.2861(2)
C21 C 0.1849(3) 0.9308(3) 0.3221(2)
C22 C 0.2981(3) 0.9380(3) 0.2849(2)
H14 H 0.2916 0.9459 0.2363
C23 C 0.6997(3) 0.6119(3) 0.08445(18)
C24 C 0.5438(3) 0.9426(3) 0.2803(2)
C25 C 0.7039(3) 0.7184(3) 0.13790(19)
H15 H 0.6498 0.7267 0.1774
C26 C 0.8908(3) 1.2383(3) 0.3253(2)
C27 C 0.4206(3) 0.9337(3) 0.3196(2)
C28 C 0.1965(4) 0.9212(3) 0.3950(2)
H16 H 0.1214 0.9177 0.4206
C29 C 0.8606(4) 0.6961(3) 0.0233(2)
H17 H 0.9146 0.6908 -0.0161
C30 C 0.4292(3) 0.9227(3) 0.3922(2)
H18 H 0.5111 0.9193 0.4157
C31 C 0.9388(4) 1.3418(3) 0.4606(2)
H19 H 0.9637 1.4096 0.5012
C32 C 0.3259(4) 0.1713(3) 0.1054(2)
C33 C 0.4991(4) 0.3328(3) 0.0718(2)
C34 C 0.7802(4) 0.6008(3) 0.0253(2)
H20 H 0.7799 0.5309 -0.0121
C35 C 0.8778(3) 1.2289(3) 0.2432(2)
C36 C 0.9269(3) 1.3414(3) 0.3854(2)
H21 H 0.9426 1.4084 0.3748
C37 C 0.3250(4) 0.2847(3) 0.1420(2)
H22 H 0.2663 0.3073 0.1783
C38 C 0.5964(4) 0.4131(3) 0.0498(2)
C39 C 0.8790(4) 1.1446(3) 0.4136(2)
H23 H 0.8635 1.0769 0.4233
C40 C 0.4102(5) 0.1396(3) 0.0500(3)
H24 H 0.4088 0.0634 0.0233
C41 C 0.9141(4) 1.2434(3) 0.4754(2)
H25 H 0.9208 1.2429 0.5259
C42 C 0.3181(4) 0.9168(4) 0.4301(2)
H26 H 0.3250 0.9100 0.4790
C43 C 0.4114(4) 0.3652(3) 0.1249(2)
H27 H 0.4097 0.4413 0.1495
C44 C 0.2345(5) 0.0827(4) 0.1231(2)
C45 C 0.8199(5) 1.1155(4) 0.1163(2)
H28 H 0.7905 1.0440 0.0804
C46 C 0.4961(4) 0.2185(3) 0.0334(3)
H29 H 0.5532 0.1955 -0.0039
C47 C 0.8461(5) 1.2042(4) 0.0884(3)
H30 H 0.8356 1.1929 0.0357
C48 C 0.8885(6) 1.3099(4) 0.1425(3)
H31 H 0.9041 1.3727 0.1270
C49 C 0.9074(5) 1.3215(3) 0.2198(3)
H32 H 0.9402 1.3919 0.2563
Cd2 Cd 0.80039(2) 0.973626(19) 0.237428(14)
H33 H 0.144(5) 0.061(4) 0.193(3)
N3 N 0.8663(3) 1.1421(2) 0.34014(17)
N4 N 0.8338(3) 1.1255(3) 0.19075(18)
N5 N 0.7820(3) 0.8096(2) 0.13524(16)
N6 N 0.6151(3) 0.5229(2) 0.09515(16)
H36 H 0.5707 0.5399 0.1343
O1 O 0.5429(2) 0.9701(2) 0.22199(17)
O2 O 0.6492(2) 0.9258(2) 0.31144(18)
O3 O 0.0430(2) 0.9749(2) 0.23131(15)
O4 O -0.0502(2) 0.9045(2) 0.31271(15)
O10 O 0.6534(4) 0.3789(2) -0.00678(19)
O11 O 0.1858(3) 0.1210(3) 0.18795(17)
O12 O 0.2114(5) -0.0139(3) 0.0817(2)
Cd2_2 Cd -0.19961(2) 0.973626(19) 0.237428(14)
O3_2 O 1.0430(2) 0.9749(2) 0.23131(15)
O4_2 O 0.9498(2) 0.9045(2) 0.31271(15)
loop_
_geom_bond_atom_site_label_1
_geom_bond_atom_site_label_2
_geom_bond_site_symmetry_1
_geom_bond_site_symmetry_2
C1 C2 1_555 1_555
C2 C3 1_555 1_555
C3 H1 1_555 1_555
C4 C5 1_555 1_555
C5 C3 1_555 1_555
C6 C5 1_555 1_555
H2 C6 1_555 1_555
C7 C2 1_555 1_555
H3 C7 1_555 1_555
C8 C9 1_555 1_555
C9 C11 1_555 1_555
C10 C6 1_555 1_555
H4 C10 1_555 1_555
C11 H5 1_555 1_555
C12 C8 1_555 1_555
H6 C12 1_555 1_555
C13 H7 1_555 1_555
C14 H8 1_555 1_555
C15 C13 1_555 1_555
H9 C15 1_555 1_555
C16 C12 1_555 1_555
H10 C16 1_555 1_555
C17 C11 1_555 1_555
H11 C17 1_555 1_555
C18 C14 1_555 1_555
H12 C18 1_555 1_555
C19 H13 1_555 1_555
C20 C21 1_555 1_555
C21 C22 1_555 1_555
C22 H14 1_555 1_555
C23 C25 1_555 1_555
C24 C27 1_555 1_555
C25 H15 1_555 1_555
C26 C35 1_555 1_555
C27 C22 1_555 1_555
C28 C21 1_555 1_555
H16 C28 1_555 1_555
C29 C19 1_555 1_555
H17 C29 1_555 1_555
C30 C27 1_555 1_555
H18 C30 1_555 1_555
C31 H19 1_555 1_555
C32 C37 1_555 1_555
C33 C38 1_555 1_555
C34 C23 1_555 1_555
H20 C34 1_555 1_555
C35 C49 1_555 1_555
C36 C26 1_555 1_555
H21 C36 1_555 1_555
C37 H22 1_555 1_555
C38 N6 1_555 1_555
C39 H23 1_555 1_555
C40 C32 1_555 1_555
H24 C40 1_555 1_555
C41 C31 1_555 1_555
H25 C41 1_555 1_555
C42 C28 1_555 1_555
H26 C42 1_555 1_555
C43 C33 1_555 1_555
H27 C43 1_555 1_555
C44 C32 1_555 1_555
C45 H28 1_555 1_555
C46 C33 1_555 1_555
H29 C46 1_555 1_555
C47 C45 1_555 1_555
H30 C47 1_555 1_555
C48 C47 1_555 1_555
H31 C48 1_555 1_555
C49 C48 1_555 1_555
H32 C49 1_555 1_555
Cd1 N1 1_555 1_555
Cd2 N3 1_555 1_555
H33 O11 1_555 1_555
H34 O9 1_555 1_555
H35 O9 1_555 1_555
N1 C8 1_555 1_555
N2 C9 1_555 1_555
N3 C26 1_555 1_555
N4 C35 1_555 1_555
N5 C19 1_555 1_555
N6 C23 1_555 1_555
H36 N6 1_555 1_555
O1 C24 1_555 1_555
O2 C24 1_555 1_555
O3 C20 1_555 1_555
O4 C20 1_555 1_555
O5 C1 1_555 1_555
O6 C1 1_555 1_555
O7 C4 1_555 1_555
O8 C4 1_555 1_555
O9 Cd1 1_555 1_555
O10 C38 1_555 1_555
O11 C44 1_555 1_555
O12 C44 1_555 1_555
Cd1_2 O7 1_555 1_555
Cd2_2 O3 1_555 1_555
O3_2 Cd2 1_555 1_555
O4_2 Cd2 1_555 1_555
O7_2 Cd1 1_555 1_555
O8_2 Cd1 1_555 1_555
C7 C10 1_555 1_555
C13 N1 1_555 1_555
C14 N2 1_555 1_555
C15 C16 1_555 1_555
C17 C18 1_555 1_555
C25 N5 1_555 1_555
C29 C34 1_555 1_555
C30 C42 1_555 1_555
C31 C36 1_555 1_555
C37 C43 1_555 1_555
C39 C41 1_555 1_555
C39 N3 1_555 1_555
C40 C46 1_555 1_555
C45 N4 1_555 1_555
Cd1 N2 1_555 1_555
Cd1 O5 1_555 1_555
Cd1 O6 1_555 1_555
Cd2 N4 1_555 1_555
Cd2 N5 1_555 1_555
Cd2 O1 1_555 1_555
Cd2 O2 1_555 1_555
O4 Cd2_2 1_555 1_555
O8 Cd1_2 1_555 1_555

#END
