
#######################################################################
#
#                 Cambridge Crystallographic Data Centre
#                                CCDC 
#
#######################################################################
#
# If this CIF has been generated from an entry in the Cambridge 
# Structural Database, then it will include bibliographic, chemical, 
# crystal, experimental, refinement or atomic coordinate data resulting 
# from the CCDC's data processing and validation procedures.
#
#######################################################################

data_REHMOI
_symmetry_cell_setting           monoclinic
_symmetry_space_group_name_H-M   'P 21/c'
_symmetry_Int_Tables_number      14
_space_group_name_Hall           '-P 2ybc'
loop_
_symmetry_equiv_pos_site_id
_symmetry_equiv_pos_as_xyz
1 x,y,z
2 -x,1/2+y,1/2-z
3 -x,-y,-z
4 x,1/2-y,1/2+z
_cell_length_a                   10.0366(7)
_cell_length_b                   9.1255(7)
_cell_length_c                   10.2985(7)
_cell_angle_alpha                90
_cell_angle_beta                 95.832(5)
_cell_angle_gamma                90
_cell_volume                     938.347
loop_
_atom_site_label
_atom_site_type_symbol
_atom_site_fract_x
_atom_site_fract_y
_atom_site_fract_z
Cu1 Cu 0.08647(3) 0.17457(3) 0.23089(3)
O1 O -0.08026(16) 0.72155(19) 0.07455(15)
O2 O 0.04483(18) 0.8053(2) -0.07585(16)
O3 O -0.00340(16) 0.48654(17) 0.23672(16)
O4 O 0.17868(15) 0.35782(17) 0.20711(15)
N1 N 0.27357(18) 0.0590(2) 0.24380(18)
N2 N 0.3305(2) 0.1097(2) 0.0352(2)
N3 N 0.4703(2) -0.0407(2) 0.1647(2)
C1 C 0.0307(2) 0.7507(2) 0.0332(2)
C2 C 0.1982(2) 0.6112(2) 0.1901(2)
C3 C 0.1167(2) 0.4778(2) 0.2134(2)
C4 C 0.3582(2) 0.0418(2) 0.1497(2)
C5 C 0.4949(2) -0.1124(3) 0.2767(3)
C6 C 0.4124(2) -0.1062(3) 0.3763(3)
C7 C 0.3019(2) -0.0164(3) 0.3545(2)
C8 C 0.1614(2) 0.7244(3) 0.1150(2)
H1 H 0.2841 0.6146 0.2333
H2 H 0.5717 -0.1699 0.2889
H3 H 0.4303 -0.1594 0.4531
H4 H 0.2446 -0.0079 0.4196
H5 H 0.260(3) 0.151(3) 0.014(3)
H6 H 0.379(3) 0.095(3) -0.026(3)
H7 H 0.2252 0.7980 0.1123
Cu1B Cu -0.08647(3) 0.82543(3) -0.23089(3)
Cu1A Cu -0.08647(3) 0.67457(3) 0.26911(3)
Cu1C Cu 0.08647(3) 0.32543(3) -0.26911(3)
O1B O 0.08026(16) 0.27845(19) -0.07455(15)
O1A O 0.08026(16) 0.22155(19) 0.42545(15)
O1C O -0.08026(16) 0.77845(19) -0.42545(15)
O2B O -0.04483(18) 0.1947(2) 0.07585(16)
O3B O 0.00340(16) 0.51346(17) -0.23672(16)
O3A O 0.00340(16) -0.01346(17) 0.26328(16)
O3C O -0.00340(16) 1.01346(17) -0.26328(16)
O4B O -0.17868(15) 0.64218(17) -0.20711(15)
N1B N -0.27357(18) 0.9410(2) -0.24380(18)
N2B N -0.3305(2) 0.8903(2) -0.0352(2)
N3B N -0.4703(2) 1.0407(2) -0.1647(2)
C1B C -0.0307(2) 0.2493(2) -0.0332(2)
C2B C -0.1982(2) 0.3888(2) -0.1901(2)
C3B C -0.1167(2) 0.5222(2) -0.2134(2)
C4B C -0.3582(2) 0.9582(2) -0.1497(2)
C5B C -0.4949(2) 1.1124(3) -0.2767(3)
C6B C -0.4124(2) 1.1062(3) -0.3763(3)
C7B C -0.3019(2) 1.0164(3) -0.3545(2)
C8B C -0.1614(2) 0.2756(3) -0.1150(2)
H1B H -0.2841 0.3854 -0.2333
H2B H -0.5717 1.1699 -0.2889
H3B H -0.4303 1.1594 -0.4531
H4B H -0.2446 1.0079 -0.4196
H5B H -0.260(3) 0.849(3) -0.014(3)
H6B H -0.379(3) 0.905(3) 0.026(3)
H7B H -0.2252 0.2020 -0.1123
loop_
_geom_bond_atom_site_label_1
_geom_bond_atom_site_label_2
_geom_bond_site_symmetry_1
_geom_bond_site_symmetry_2
Cu1 O4 1_555 1_555
O1 C1 1_555 1_555
O2 C1 1_555 1_555
O3 C3 1_555 1_555
O4 C3 1_555 1_555
N1 Cu1 1_555 1_555
N2 C4 1_555 1_555
N3 C4 1_555 1_555
C1 C8 1_555 1_555
C2 C3 1_555 1_555
C4 N1 1_555 1_555
C5 N3 1_555 1_555
C6 C5 1_555 1_555
C7 N1 1_555 1_555
C8 C2 1_555 1_555
H1 C2 1_555 1_555
H2 C5 1_555 1_555
H3 C6 1_555 1_555
H4 C7 1_555 1_555
H5 N2 1_555 1_555
H6 N2 1_555 1_555
H7 C8 1_555 1_555
Cu1B O2 1_555 1_555
Cu1A O1 1_555 1_555
Cu1C O1B 1_555 1_555
O1B C1B 1_555 1_555
O1A Cu1 1_555 1_555
O1C Cu1B 1_555 1_555
O2B Cu1 1_555 1_555
O3B Cu1C 1_555 1_555
O3A Cu1 1_555 1_555
O3C Cu1B 1_555 1_555
O4B Cu1B 1_555 1_555
N1B Cu1B 1_555 1_555
N2B C4B 1_555 1_555
N3B C4B 1_555 1_555
C1B O2B 1_555 1_555
C2B C3B 1_555 1_555
C3B O3B 1_555 1_555
C4B N1B 1_555 1_555
C5B N3B 1_555 1_555
C6B C5B 1_555 1_555
C7B N1B 1_555 1_555
C8B C1B 1_555 1_555
H1B C2B 1_555 1_555
H2B C5B 1_555 1_555
H3B C6B 1_555 1_555
H4B C7B 1_555 1_555
H5B N2B 1_555 1_555
H6B N2B 1_555 1_555
H7B C8B 1_555 1_555
O3 Cu1A 1_555 1_555
C6 C7 1_555 1_555
O4B C3B 1_555 1_555
C2B C8B 1_555 1_555
C6B C7B 1_555 1_555

#END
