
#######################################################################
#
#                 Cambridge Crystallographic Data Centre
#                                CCDC 
#
#######################################################################
#
# If this CIF has been generated from an entry in the Cambridge 
# Structural Database, then it will include bibliographic, chemical, 
# crystal, experimental, refinement or atomic coordinate data resulting 
# from the CCDC's data processing and validation procedures.
#
#######################################################################

data_REHMAU
_symmetry_cell_setting           tetragonal
_symmetry_space_group_name_H-M   'P 43'
_symmetry_Int_Tables_number      78
_space_group_name_Hall           'P 4cw'
loop_
_symmetry_equiv_pos_site_id
_symmetry_equiv_pos_as_xyz
1 x,y,z
2 -y,x,3/4+z
3 -x,-y,1/2+z
4 y,-x,1/4+z
_cell_length_a                   9.43630(10)
_cell_length_b                   9.43630(10)
_cell_length_c                   33.2595(6)
_cell_angle_alpha                90
_cell_angle_beta                 90
_cell_angle_gamma                90
_cell_volume                     2961.55
loop_
_atom_site_label
_atom_site_type_symbol
_atom_site_fract_x
_atom_site_fract_y
_atom_site_fract_z
C1 C 0.0331(4) 0.2324(4) 0.96351(12)
C2 C 1.1445(4) 0.6961(3) 0.93316(11)
C3 C 0.8936(4) 0.6624(4) 0.95136(11)
C4 C 0.4432(4) 0.2469(4) 0.94083(12)
C5 C -0.0851(4) 0.1893(3) 0.99164(11)
C6 C -0.6847(4) -0.0358(4) 1.05228(10)
C7 C -0.2978(4) 0.0511(4) 0.99896(11)
H1 H -0.3664 -0.0061 0.9871
C8 C -0.2025(4) 0.1690(4) 1.05731(11)
C9 C 0.5606(4) 0.3527(3) 0.94693(11)
C10 C -0.0908(4) 0.2257(4) 1.03318(11)
C11 C -0.1868(4) 0.1017(4) 0.97563(11)
H2 H -0.1811 0.0758 0.9487
C12 C -0.4296(4) 0.0219(4) 1.06216(11)
C13 C 0.6841(4) 0.5379(4) 0.98522(11)
C14 C 0.5711(4) 0.4362(4) 0.98255(11)
C15 C 0.7710(4) 0.4620(4) 0.92034(12)
H3 H 0.8388 0.4663 0.9001
C16 C 1.1370(4) 0.8364(3) 0.92225(11)
H4 H 1.0494 0.8814 0.9225
C17 C 0.0108(5) 0.3348(5) 1.09266(14)
H5 H 0.0811 0.3893 1.1047
C18 C 0.7835(4) 0.5467(3) 0.95303(11)
C19 C -0.9177(4) -0.1017(4) 1.03128(12)
H6 H -0.9881 -0.1062 1.0118
C20 C -0.3085(4) 0.0835(4) 1.03878(11)
C21 C 0.6561(4) 0.3673(4) 0.91683(11)
H7 H 0.6457 0.3141 0.8935
C22 C 1.3766(4) 0.8472(4) 0.91066(17)
H8 H 1.4565 0.8987 0.9033
C23 C -0.7892(4) -0.0405(4) 1.02306(11)
H9 H -0.7721 -0.0020 0.9978
C24 C 0.4740(5) 0.4293(5) 1.01465(13)
H10 H 0.4002 0.3641 1.0136
C25 C -0.2014(4) 0.1971(4) 1.09915(12)
H11 H -0.2728 0.1603 1.1153
C26 C -0.9398(4) -0.1565(4) 1.06916(11)
H12 H -1.0270 -0.1976 1.0750
C27 C 1.2736(4) 0.6297(4) 0.93228(16)
H13 H 1.2821 0.5347 0.9393
C28 C 0.0136(4) 0.3114(4) 1.05214(14)
H14 H 0.0849 0.3522 1.0367
C29 C 0.6925(5) 0.6242(5) 1.01942(13)
H15 H 0.7652 0.6904 1.0215
C30 C -0.7152(4) -0.0938(4) 1.08951(12)
H16 H -0.6461 -0.0919 1.1094
C31 C 1.3915(5) 0.7078(5) 0.9206(2)
H17 H 1.4803 0.6651 0.9197
C32 C -0.0976(5) 0.2769(5) 1.11584(15)
H18 H -0.0988 0.2933 1.1434
C33 C 0.4857(6) 0.5154(6) 1.04700(16)
H19 H 0.4194 0.5096 1.0676
C34 C 0.5961(6) 0.6125(6) 1.04963(15)
H20 H 0.6040 0.6700 1.0722
N1 N -0.8415(3) -0.1528(3) 1.09776(9)
N2 N -0.5553(3) 0.0284(4) 1.04224(10)
H21 H -0.556(4) 0.081(3) 1.0215(8)
N3 N 1.2525(3) 0.9110(3) 0.91113(9)
N4 N 1.0252(3) 0.6158(3) 0.94380(11)
H22 H 1.036(4) 0.532(2) 0.9519(12)
O1 O 0.0609(3) 0.1413(3) 0.93664(8)
O2 O 0.0969(3) 0.3453(3) 0.96708(11)
O3 O -0.4175(3) -0.0316(3) 1.09559(8)
O4 O 0.3923(2) 0.2436(2) 0.90509(8)
O5 O 0.3993(3) 0.1688(3) 0.96767(9)
O6 O 0.8604(3) 0.7874(3) 0.95416(9)
Zn1 Zn 0.22623(4) 0.12402(4) 0.904149(13)
N1A N 0.1528(3) 0.1585(3) 0.84776(9)
N3_2 N 0.2525(3) -0.0890(3) 0.91113(9)
Zn1_2 Zn 1.22623(4) 1.12402(4) 0.904149(13)
Zn1C Zn -0.87598(4) -0.22623(4) 1.154149(13)
loop_
_geom_bond_atom_site_label_1
_geom_bond_atom_site_label_2
_geom_bond_site_symmetry_1
_geom_bond_site_symmetry_2
C1 C5 1_555 1_555
C2 C16 1_555 1_555
C3 C18 1_555 1_555
C4 C9 1_555 1_555
C5 C10 1_555 1_555
C6 C23 1_555 1_555
C7 H1 1_555 1_555
C8 C10 1_555 1_555
C9 C14 1_555 1_555
C10 C28 1_555 1_555
C11 C5 1_555 1_555
H2 C11 1_555 1_555
C12 C20 1_555 1_555
C13 C14 1_555 1_555
C14 C24 1_555 1_555
C15 H3 1_555 1_555
C16 H4 1_555 1_555
C17 H5 1_555 1_555
C18 C13 1_555 1_555
C19 H6 1_555 1_555
C20 C7 1_555 1_555
C21 C9 1_555 1_555
H7 C21 1_555 1_555
C22 H8 1_555 1_555
C23 C19 1_555 1_555
H9 C23 1_555 1_555
C24 H10 1_555 1_555
C25 C8 1_555 1_555
H11 C25 1_555 1_555
C26 C19 1_555 1_555
H12 C26 1_555 1_555
C27 C2 1_555 1_555
H13 C27 1_555 1_555
C28 C17 1_555 1_555
H14 C28 1_555 1_555
C29 C13 1_555 1_555
H15 C29 1_555 1_555
C30 C6 1_555 1_555
H16 C30 1_555 1_555
C31 C22 1_555 1_555
H17 C31 1_555 1_555
C32 C17 1_555 1_555
H18 C32 1_555 1_555
C33 C24 1_555 1_555
H19 C33 1_555 1_555
C34 C29 1_555 1_555
H20 C34 1_555 1_555
N1 C26 1_555 1_555
N2 C6 1_555 1_555
H21 N2 1_555 1_555
N3 C16 1_555 1_555
N4 C2 1_555 1_555
H22 N4 1_555 1_555
O1 C1 1_555 1_555
O2 C1 1_555 1_555
O3 C12 1_555 1_555
O4 C4 1_555 1_555
O5 C4 1_555 1_555
O6 C3 1_555 1_555
Zn1 O1 1_555 1_555
N1A Zn1 1_555 1_555
N3_2 Zn1 1_555 1_555
Zn1_2 N3 1_555 1_555
Zn1C N1 1_555 1_555
C3 N4 1_555 1_555
C7 C11 1_555 1_555
C8 C20 1_555 1_555
C12 N2 1_555 1_555
C15 C18 1_555 1_555
C15 C21 1_555 1_555
C22 N3 1_555 1_555
C25 C32 1_555 1_555
C27 C31 1_555 1_555
C30 N1 1_555 1_555
C33 C34 1_555 1_555
O4 Zn1 1_555 1_555

#END
