
#######################################################################
#
#                 Cambridge Crystallographic Data Centre
#                                CCDC 
#
#######################################################################
#
# If this CIF has been generated from an entry in the Cambridge 
# Structural Database, then it will include bibliographic, chemical, 
# crystal, experimental, refinement or atomic coordinate data resulting 
# from the CCDC's data processing and validation procedures.
#
#######################################################################

data_REHNOJ
_symmetry_cell_setting           monoclinic
_symmetry_space_group_name_H-M   'P 21/c'
_symmetry_Int_Tables_number      14
_space_group_name_Hall           '-P 2ybc'
loop_
_symmetry_equiv_pos_site_id
_symmetry_equiv_pos_as_xyz
1 x,y,z
2 -x,1/2+y,1/2-z
3 -x,-y,-z
4 x,1/2-y,1/2+z
_cell_length_a                   16.5521(8)
_cell_length_b                   14.3705(6)
_cell_length_c                   7.9630(4)
_cell_angle_alpha                90
_cell_angle_beta                 96.360(4)
_cell_angle_gamma                90
_cell_volume                     1882.44
loop_
_atom_site_label
_atom_site_type_symbol
_atom_site_fract_x
_atom_site_fract_y
_atom_site_fract_z
Tb1 Tb 0.449508(14) 0.115845(16) 0.05242(3)
O1 O 0.4880(2) 0.2748(2) 0.0952(5)
H1 H 0.4977 0.3018 -0.0110
H2 H 0.4448 0.3079 0.1403
O2 O 0.5234(3) 0.1087(2) 0.3354(5)
O3 O 0.5425(2) -0.0088(2) 0.1725(4)
O4 O 0.5741(2) 0.1428(3) -0.0517(5)
O5 O 0.6336(2) 0.0080(3) -0.1072(5)
O6 O 0.3465(2) 0.1785(2) 0.2038(5)
O7 O 0.3782(2) 0.3161(3) 0.3215(5)
N1 N 0.7789(4) 0.3817(3) -0.2586(7)
N2 N 0.8474(4) 0.3877(3) -0.3273(8)
N3 N 0.8755(3) 0.3014(4) -0.3530(7)
H3 H 0.9193 0.2893 -0.3978
N4 N 0.0871(3) 0.4288(4) 0.4300(7)
H4 H 0.1001 0.4865 0.4246
N5 N 0.0165(4) 0.3977(4) 0.4737(9)
N6 N 0.0160(3) 0.3072(4) 0.4672(8)
C1 C 0.6269(4) -0.0011(4) 0.4372(7)
H5 H 0.6789 0.0178 0.4062
H6 H 0.6245 -0.0678 0.4414
H7 H 0.6196 0.0240 0.5462
C2 C 0.5610(3) 0.0344(4) 0.3089(6)
C3 C 0.6300(3) 0.0946(4) -0.1043(7)
C4 C 0.6990(3) 0.1492(4) -0.1699(6)
C5 C 0.7626(3) 0.0969(4) -0.2298(7)
H8 H 0.7608 0.0323 -0.2247
C6 C 0.8265(4) 0.1390(4) -0.2950(8)
H9 H 0.8682 0.1050 -0.3347
C7 C 0.8250(3) 0.2358(4) -0.2983(7)
C8 C 0.7630(3) 0.2884(4) -0.2397(7)
C9 C 0.6978(3) 0.2438(4) -0.1739(7)
H10 H 0.6557 0.2775 -0.1349
C10 C 0.3287(3) 0.2507(4) 0.2801(6)
C11 C 0.2432(3) 0.2621(4) 0.3256(6)
C12 C 0.1958(4) 0.1821(4) 0.3460(8)
H11 H 0.2173 0.1237 0.3272
C13 C 0.1189(4) 0.1885(4) 0.3927(9)
H12 H 0.0878 0.1357 0.4059
C14 C 0.0890(3) 0.2777(4) 0.4199(8)
C15 C 0.1361(3) 0.3561(4) 0.3949(7)
C16 C 0.2147(3) 0.3499(4) 0.3509(7)
H13 H 0.2463 0.4025 0.3392
Tb1B Tb 0.550492(14) -0.115845(16) -0.05242(3)
Tb1C Tb 0.449508(14) 0.384155(16) 0.55242(3)
O3B O 0.4575(2) 0.0088(2) -0.1725(4)
O5B O 0.3664(2) -0.0080(3) 0.1072(5)
O7C O 0.3782(2) 0.1839(3) -0.1785(5)
loop_
_geom_bond_atom_site_label_1
_geom_bond_atom_site_label_2
_geom_bond_site_symmetry_1
_geom_bond_site_symmetry_2
Tb1 O1 1_555 1_555
O1 H1 1_555 1_555
H2 O1 1_555 1_555
O2 Tb1 1_555 1_555
O3 Tb1 1_555 1_555
O4 Tb1 1_555 1_555
O5 C3 1_555 1_555
O6 Tb1 1_555 1_555
O7 C10 1_555 1_555
N1 N2 1_555 1_555
N2 N3 1_555 1_555
N3 H3 1_555 1_555
N4 H4 1_555 1_555
N5 N4 1_555 1_555
N6 N5 1_555 1_555
C1 H5 1_555 1_555
H6 C1 1_555 1_555
H7 C1 1_555 1_555
C2 O2 1_555 1_555
C3 O4 1_555 1_555
C4 C3 1_555 1_555
C5 C4 1_555 1_555
H8 C5 1_555 1_555
C6 C5 1_555 1_555
H9 C6 1_555 1_555
C7 N3 1_555 1_555
C8 N1 1_555 1_555
C9 C4 1_555 1_555
H10 C9 1_555 1_555
C10 O6 1_555 1_555
C11 C10 1_555 1_555
C12 C11 1_555 1_555
H11 C12 1_555 1_555
C13 C12 1_555 1_555
H12 C13 1_555 1_555
C14 N6 1_555 1_555
C15 N4 1_555 1_555
C16 C11 1_555 1_555
H13 C16 1_555 1_555
Tb1B O3 1_555 1_555
Tb1C O7 1_555 1_555
O3B Tb1 1_555 1_555
O5B Tb1 1_555 1_555
O7C Tb1 1_555 1_555
O3 C2 1_555 1_555
O5 Tb1B 1_555 1_555
C1 C2 1_555 1_555
C6 C7 1_555 1_555
C7 C8 1_555 1_555
C8 C9 1_555 1_555
C13 C14 1_555 1_555
C14 C15 1_555 1_555
C15 C16 1_555 1_555
Tb1B O3B 1_555 1_555

#END
