
#######################################################################
#
#                 Cambridge Crystallographic Data Centre
#                                CCDC 
#
#######################################################################
#
# If this CIF has been generated from an entry in the Cambridge 
# Structural Database, then it will include bibliographic, chemical, 
# crystal, experimental, refinement or atomic coordinate data resulting 
# from the CCDC's data processing and validation procedures.
#
#######################################################################

data_REHNUP
_symmetry_cell_setting           monoclinic
_symmetry_space_group_name_H-M   'P 21/c'
_symmetry_Int_Tables_number      14
_space_group_name_Hall           '-P 2ybc'
loop_
_symmetry_equiv_pos_site_id
_symmetry_equiv_pos_as_xyz
1 x,y,z
2 -x,1/2+y,1/2-z
3 -x,-y,-z
4 x,1/2-y,1/2+z
_cell_length_a                   16.512(3)
_cell_length_b                   14.256(2)
_cell_length_c                   7.9218(11)
_cell_angle_alpha                90
_cell_angle_beta                 96.345(12)
_cell_angle_gamma                90
_cell_volume                     1853.33
loop_
_atom_site_label
_atom_site_type_symbol
_atom_site_fract_x
_atom_site_fract_y
_atom_site_fract_z
Er1 Er 0.450679(6) 0.615820(7) 0.052968(13)
O1 O 0.48943(12) 0.77372(12) 0.0960(2)
H1 H 0.4894 0.8000 0.0006
H2 H 0.4553 0.8006 0.1515
O2 O 0.47672(13) 0.39034(12) -0.3337(3)
O3 O 0.45777(11) 0.50900(12) -0.1693(2)
O4 O 0.36718(11) 0.49389(12) 0.1077(3)
O5 O 0.42665(12) 0.35823(14) 0.0512(3)
O6 O 0.34889(11) 0.67857(12) 0.2038(2)
O7 O 0.38054(10) 0.81641(12) 0.3245(2)
N1 N 0.21993(17) 0.11824(15) 0.2579(4)
N2 N 0.15212(17) 0.11309(16) 0.3271(4)
N3 N 0.12372(15) 0.19982(17) 0.3518(3)
H3 H 0.0797 0.2122 0.3961
N4 N 0.01764(16) 0.80566(19) 0.4693(4)
N5 N 0.01717(17) 0.89688(19) 0.4747(4)
N6 N 0.08812(14) 0.92837(18) 0.4318(4)
H4 H 0.1010 0.9867 0.4267
C1 C 0.37387(18) 0.5017(2) -0.4356(4)
H5 H 0.3804 0.4756 -0.5450
H6 H 0.3771 0.5688 -0.4410
H7 H 0.3217 0.4838 -0.4030
C2 C 0.43942(15) 0.46578(17) -0.3082(3)
C3 C 0.37013(16) 0.40627(19) 0.1048(4)
C4 C 0.30169(15) 0.35238(18) 0.1695(3)
C5 C 0.30211(16) 0.25609(18) 0.1736(3)
H8 H 0.3442 0.2216 0.1352
C6 C 0.23664(16) 0.21255(19) 0.2378(3)
C7 C 0.17444(16) 0.26465(19) 0.2967(3)
C8 C 0.17284(18) 0.3634(2) 0.2922(4)
H9 H 0.1306 0.3978 0.3303
C9 C 0.23705(17) 0.4053(2) 0.2285(4)
H10 H 0.2388 0.4704 0.2233
C10 C 0.33115(15) 0.75001(17) 0.2825(3)
C11 C 0.24606(15) 0.76108(18) 0.3278(3)
C12 C 0.19797(18) 0.68119(19) 0.3471(4)
H11 H 0.2192 0.6225 0.3252
C13 C 0.12127(19) 0.6862(2) 0.3968(4)
H12 H 0.0910 0.6326 0.4136
C14 C 0.09080(17) 0.7761(2) 0.4208(4)
C15 C 0.13763(17) 0.8555(2) 0.3970(4)
C16 C 0.21689(16) 0.84946(19) 0.3524(4)
H13 H 0.2483 0.9026 0.3400
Er1B Er 0.549321(6) 0.384180(7) -0.052968(13)
Er1A Er 0.549321(6) 0.115820(7) -0.552968(13)
Er1C Er 0.450679(6) 0.884180(7) 0.552968(13)
O1B O 0.51057(12) 0.22628(12) -0.0960(2)
H1B H 0.5106 0.2000 -0.0006
H2B H 0.5447 0.1994 -0.1515
O2B O 0.52328(13) 0.60966(12) 0.3337(3)
O3B O 0.54223(11) 0.49100(12) 0.1693(2)
O4B O 0.63282(11) 0.50611(12) -0.1077(3)
O5B O 0.57335(12) 0.64177(14) -0.0512(3)
O6B O 0.65111(11) 0.32143(12) -0.2038(2)
O7B O 0.61946(10) 0.18359(12) -0.3245(2)
O7A O 0.61946(10) 0.31641(12) 0.1755(2)
O7C O 0.38054(10) 0.68359(12) -0.1755(2)
N1B N 0.78007(17) 0.88176(15) -0.2579(4)
N2B N 0.84788(17) 0.88691(16) -0.3271(4)
N3B N 0.87628(15) 0.80018(17) -0.3518(3)
H3B H 0.9203 0.7878 -0.3961
N4B N 0.98236(16) 0.19434(19) -0.4693(4)
N5B N 0.98283(17) 0.10312(19) -0.4747(4)
N6B N 0.91188(14) 0.07163(18) -0.4318(4)
H4B H 0.8990 0.0133 -0.4267
C1B C 0.62613(18) 0.4983(2) 0.4356(4)
H5B H 0.6196 0.5244 0.5450
H6B H 0.6229 0.4312 0.4410
H7B H 0.6783 0.5162 0.4030
C2B C 0.56058(15) 0.53422(17) 0.3082(3)
C3B C 0.62987(16) 0.59373(19) -0.1048(4)
C4B C 0.69831(15) 0.64762(18) -0.1695(3)
C5B C 0.69789(16) 0.74391(18) -0.1736(3)
H8B H 0.6558 0.7784 -0.1352
C6B C 0.76336(16) 0.78745(19) -0.2378(3)
C7B C 0.82556(16) 0.73535(19) -0.2967(3)
C8B C 0.82716(18) 0.6366(2) -0.2922(4)
H9B H 0.8694 0.6022 -0.3303
C9B C 0.76295(17) 0.5947(2) -0.2285(4)
H10B H 0.7612 0.5296 -0.2233
C10B C 0.66885(15) 0.24999(17) -0.2825(3)
C11B C 0.75394(15) 0.23892(18) -0.3278(3)
C12B C 0.80203(18) 0.31881(19) -0.3471(4)
H11B H 0.7808 0.3775 -0.3252
C13B C 0.87873(19) 0.3138(2) -0.3968(4)
H12B H 0.9090 0.3674 -0.4136
C14B C 0.90920(17) 0.2239(2) -0.4208(4)
C15B C 0.86237(17) 0.1445(2) -0.3970(4)
C16B C 0.78311(16) 0.15054(19) -0.3524(4)
H13B H 0.7517 0.0974 -0.3400
loop_
_geom_bond_atom_site_label_1
_geom_bond_atom_site_label_2
_geom_bond_site_symmetry_1
_geom_bond_site_symmetry_2
Er1 O1 1_555 1_555
O1 H1 1_555 1_555
H2 O1 1_555 1_555
O2 C2 1_555 1_555
O3 Er1 1_555 1_555
O4 Er1 1_555 1_555
O5 C3 1_555 1_555
O6 Er1 1_555 1_555
O7 C10 1_555 1_555
N1 N2 1_555 1_555
N2 N3 1_555 1_555
N3 H3 1_555 1_555
N4 N5 1_555 1_555
N5 N6 1_555 1_555
N6 H4 1_555 1_555
C1 H5 1_555 1_555
H6 C1 1_555 1_555
H7 C1 1_555 1_555
C2 O3 1_555 1_555
C3 O4 1_555 1_555
C4 C3 1_555 1_555
C5 C4 1_555 1_555
H8 C5 1_555 1_555
C6 N1 1_555 1_555
C7 N3 1_555 1_555
C8 C7 1_555 1_555
H9 C8 1_555 1_555
C9 C4 1_555 1_555
H10 C9 1_555 1_555
C10 O6 1_555 1_555
C11 C10 1_555 1_555
C12 C11 1_555 1_555
H11 C12 1_555 1_555
C13 C12 1_555 1_555
H12 C13 1_555 1_555
C14 N4 1_555 1_555
C15 N6 1_555 1_555
C16 C11 1_555 1_555
H13 C16 1_555 1_555
Er1B O2 1_555 1_555
Er1A O7B 1_555 1_555
Er1C O7 1_555 1_555
O1B Er1B 1_555 1_555
H1B O1B 1_555 1_555
H2B O1B 1_555 1_555
O2B Er1 1_555 1_555
O3B Er1 1_555 1_555
O4B Er1B 1_555 1_555
O5B Er1 1_555 1_555
O6B Er1B 1_555 1_555
O7B C10B 1_555 1_555
O7A Er1B 1_555 1_555
O7C Er1 1_555 1_555
N1B N2B 1_555 1_555
N2B N3B 1_555 1_555
N3B H3B 1_555 1_555
N4B N5B 1_555 1_555
N5B N6B 1_555 1_555
N6B H4B 1_555 1_555
C1B H5B 1_555 1_555
H6B C1B 1_555 1_555
H7B C1B 1_555 1_555
C2B O2B 1_555 1_555
C3B O4B 1_555 1_555
C4B C3B 1_555 1_555
C5B C4B 1_555 1_555
H8B C5B 1_555 1_555
C6B N1B 1_555 1_555
C7B N3B 1_555 1_555
C8B C7B 1_555 1_555
H9B C8B 1_555 1_555
C9B C4B 1_555 1_555
H10B C9B 1_555 1_555
C10B O6B 1_555 1_555
C11B C10B 1_555 1_555
C12B C11B 1_555 1_555
H11B C12B 1_555 1_555
C13B C12B 1_555 1_555
H12B C13B 1_555 1_555
C14B N4B 1_555 1_555
C15B N6B 1_555 1_555
C16B C11B 1_555 1_555
H13B C16B 1_555 1_555
O3 Er1B 1_555 1_555
O5 Er1B 1_555 1_555
C1 C2 1_555 1_555
C5 C6 1_555 1_555
C6 C7 1_555 1_555
C8 C9 1_555 1_555
C13 C14 1_555 1_555
C14 C15 1_555 1_555
C15 C16 1_555 1_555
Er1B O3B 1_555 1_555
O3B C2B 1_555 1_555
O5B C3B 1_555 1_555
C1B C2B 1_555 1_555
C5B C6B 1_555 1_555
C6B C7B 1_555 1_555
C8B C9B 1_555 1_555
C13B C14B 1_555 1_555
C14B C15B 1_555 1_555
C15B C16B 1_555 1_555

#END
