
#######################################################################
#
#                 Cambridge Crystallographic Data Centre
#                                CCDC 
#
#######################################################################
#
# If this CIF has been generated from an entry in the Cambridge 
# Structural Database, then it will include bibliographic, chemical, 
# crystal, experimental, refinement or atomic coordinate data resulting 
# from the CCDC's data processing and validation procedures.
#
#######################################################################

data_REHNEZ
_symmetry_cell_setting           monoclinic
_symmetry_space_group_name_H-M   'P 21/c'
_symmetry_Int_Tables_number      14
_space_group_name_Hall           '-P 2ybc'
loop_
_symmetry_equiv_pos_site_id
_symmetry_equiv_pos_as_xyz
1 x,y,z
2 -x,1/2+y,1/2-z
3 -x,-y,-z
4 x,1/2-y,1/2+z
_cell_length_a                   16.537(3)
_cell_length_b                   14.403(2)
_cell_length_c                   7.9836(11)
_cell_angle_alpha                90
_cell_angle_beta                 96.630(12)
_cell_angle_gamma                90
_cell_volume                     1888.84
loop_
_atom_site_label
_atom_site_type_symbol
_atom_site_fract_x
_atom_site_fract_y
_atom_site_fract_z
Eu1 Eu 0.448813(9) 0.615929(11) 0.052477(19)
O1 O 0.36539(14) 0.49055(17) 0.1056(3)
O2 O 0.42521(15) 0.35653(18) 0.0496(3)
O3 O 0.34446(13) 0.67821(16) 0.2042(3)
O4 O 0.37602(13) 0.81585(17) 0.3182(3)
O5 O 0.45710(14) 0.50941(17) -0.1746(3)
O6 O 0.47576(16) 0.39198(16) -0.3373(3)
O7 O 0.48590(15) 0.77664(16) 0.0931(3)
H1 H 0.5165 0.8023 0.0407
H2 H 0.4627 0.7902 0.1853
C1 C 0.3010(2) 0.3508(2) 0.1695(4)
C2 C 0.3014(2) 0.2554(2) 0.1725(4)
H3 H 0.3430 0.2216 0.1324
C3 C 0.2365(2) 0.2112(3) 0.2384(4)
C4 C 0.1752(2) 0.2634(3) 0.2993(4)
C5 C 0.1733(2) 0.3607(3) 0.2954(5)
H4 H 0.1317 0.3946 0.3352
C6 C 0.2368(2) 0.4022(3) 0.2293(4)
H5 H 0.2381 0.4666 0.2231
C7 C 0.3681(2) 0.4035(2) 0.1029(5)
C8 C 0.2415(2) 0.7616(2) 0.3239(4)
C9 C 0.1936(2) 0.6824(3) 0.3438(5)
H6 H 0.2143 0.6240 0.3235
C10 C 0.1175(2) 0.6896(3) 0.3922(5)
H7 H 0.0866 0.6370 0.4081
C11 C 0.0877(2) 0.7782(3) 0.4171(5)
C12 C 0.1344(2) 0.8554(3) 0.3929(5)
C13 C 0.2130(2) 0.8495(3) 0.3492(4)
H8 H 0.2446 0.9020 0.3376
C14 C 0.3266(2) 0.7497(2) 0.2795(4)
C15 C 0.4385(2) 0.4666(2) -0.3111(4)
C16 C 0.3729(2) 0.5011(3) -0.4385(5)
H9 H 0.3795 0.4747 -0.5465
H10 H 0.3758 0.5675 -0.4451
H11 H 0.3209 0.4833 -0.4063
N1 N 0.2210(2) 0.1184(2) 0.2568(4)
N2 N 0.1532(2) 0.1116(2) 0.3287(5)
N3 N 0.12446(18) 0.1977(2) 0.3530(4)
H12 H 0.0803 0.2095 0.3962
N4 N 0.0149(2) 0.8084(3) 0.4670(5)
N5 N 0.0158(2) 0.8984(2) 0.4720(5)
N6 N 0.08630(19) 0.9290(2) 0.4281(4)
H13 H 0.0998 0.9865 0.4225
Eu1B Eu 0.551187(9) 0.384071(11) -0.052477(19)
Eu1A Eu 0.551187(9) 0.115929(11) -0.552477(19)
Eu1C Eu 0.448813(9) 0.884071(11) 0.552477(19)
O1B O 0.63461(14) 0.50945(17) -0.1056(3)
O2B O 0.57479(15) 0.64347(18) -0.0496(3)
O3B O 0.65554(13) 0.32179(16) -0.2042(3)
O4B O 0.62398(13) 0.18415(17) -0.3182(3)
O4A O 0.62398(13) 0.31585(17) 0.1818(3)
O4C O 0.37602(13) 0.68415(17) -0.1818(3)
O5B O 0.54290(14) 0.49059(17) 0.1746(3)
O6B O 0.52424(16) 0.60802(16) 0.3373(3)
O7B O 0.51410(15) 0.22336(16) -0.0931(3)
H1B H 0.4835 0.1977 -0.0407
H2B H 0.5373 0.2098 -0.1853
C1B C 0.6990(2) 0.6492(2) -0.1695(4)
C2B C 0.6986(2) 0.7446(2) -0.1725(4)
H3B H 0.6570 0.7784 -0.1324
C3B C 0.7635(2) 0.7888(3) -0.2384(4)
C4B C 0.8248(2) 0.7366(3) -0.2993(4)
C5B C 0.8267(2) 0.6393(3) -0.2954(5)
H4B H 0.8683 0.6054 -0.3352
C6B C 0.7632(2) 0.5978(3) -0.2293(4)
H5B H 0.7619 0.5334 -0.2231
C7B C 0.6319(2) 0.5965(2) -0.1029(5)
C8B C 0.7585(2) 0.2384(2) -0.3239(4)
C9B C 0.8064(2) 0.3176(3) -0.3438(5)
H6B H 0.7857 0.3760 -0.3235
C10B C 0.8825(2) 0.3104(3) -0.3922(5)
H7B H 0.9134 0.3630 -0.4081
C11B C 0.9123(2) 0.2218(3) -0.4171(5)
C12B C 0.8656(2) 0.1446(3) -0.3929(5)
C13B C 0.7870(2) 0.1505(3) -0.3492(4)
H8B H 0.7554 0.0980 -0.3376
C14B C 0.6734(2) 0.2503(2) -0.2795(4)
C15B C 0.5615(2) 0.5334(2) 0.3111(4)
C16B C 0.6271(2) 0.4989(3) 0.4385(5)
H9B H 0.6205 0.5253 0.5465
H10B H 0.6242 0.4325 0.4451
H11B H 0.6791 0.5167 0.4063
N1B N 0.7790(2) 0.8816(2) -0.2568(4)
N2B N 0.8468(2) 0.8884(2) -0.3287(5)
N3B N 0.87554(18) 0.8023(2) -0.3530(4)
H12B H 0.9197 0.7905 -0.3962
N4B N 0.9851(2) 0.1916(3) -0.4670(5)
N5B N 0.9842(2) 0.1016(2) -0.4720(5)
N6B N 0.91370(19) 0.0710(2) -0.4281(4)
H13B H 0.9002 0.0135 -0.4225
loop_
_geom_bond_atom_site_label_1
_geom_bond_atom_site_label_2
_geom_bond_site_symmetry_1
_geom_bond_site_symmetry_2
Eu1 O1 1_555 1_555
O1 C7 1_555 1_555
O2 C7 1_555 1_555
O3 Eu1 1_555 1_555
O4 C14 1_555 1_555
O5 Eu1 1_555 1_555
O6 C15 1_555 1_555
O7 Eu1 1_555 1_555
H1 O7 1_555 1_555
H2 O7 1_555 1_555
C1 C2 1_555 1_555
C2 H3 1_555 1_555
C3 C2 1_555 1_555
C4 C3 1_555 1_555
C5 C4 1_555 1_555
H4 C5 1_555 1_555
C6 C1 1_555 1_555
H5 C6 1_555 1_555
C7 C1 1_555 1_555
C8 C9 1_555 1_555
C9 H6 1_555 1_555
C10 C9 1_555 1_555
H7 C10 1_555 1_555
C11 C10 1_555 1_555
C12 C11 1_555 1_555
C13 C8 1_555 1_555
H8 C13 1_555 1_555
C14 O3 1_555 1_555
C15 O5 1_555 1_555
C16 C15 1_555 1_555
H9 C16 1_555 1_555
H10 C16 1_555 1_555
H11 C16 1_555 1_555
N1 C3 1_555 1_555
N2 N1 1_555 1_555
N3 C4 1_555 1_555
H12 N3 1_555 1_555
N4 C11 1_555 1_555
N5 N4 1_555 1_555
N6 C12 1_555 1_555
H13 N6 1_555 1_555
Eu1B O2 1_555 1_555
Eu1A O4B 1_555 1_555
Eu1C O4 1_555 1_555
O1B Eu1B 1_555 1_555
O2B Eu1 1_555 1_555
O3B Eu1B 1_555 1_555
O4B C14B 1_555 1_555
O4A Eu1B 1_555 1_555
O4C Eu1 1_555 1_555
O5B Eu1 1_555 1_555
O6B Eu1 1_555 1_555
O7B Eu1B 1_555 1_555
H1B O7B 1_555 1_555
H2B O7B 1_555 1_555
C1B C2B 1_555 1_555
C2B H3B 1_555 1_555
C3B C2B 1_555 1_555
C4B C3B 1_555 1_555
C5B C4B 1_555 1_555
H4B C5B 1_555 1_555
C6B C1B 1_555 1_555
H5B C6B 1_555 1_555
C7B O1B 1_555 1_555
C8B C9B 1_555 1_555
C9B H6B 1_555 1_555
C10B C9B 1_555 1_555
H7B C10B 1_555 1_555
C11B C10B 1_555 1_555
C12B C11B 1_555 1_555
C13B C8B 1_555 1_555
H8B C13B 1_555 1_555
C14B O3B 1_555 1_555
C15B O5B 1_555 1_555
C16B C15B 1_555 1_555
H9B C16B 1_555 1_555
H10B C16B 1_555 1_555
H11B C16B 1_555 1_555
N1B C3B 1_555 1_555
N2B N1B 1_555 1_555
N3B C4B 1_555 1_555
H12B N3B 1_555 1_555
N4B C11B 1_555 1_555
N5B N4B 1_555 1_555
N6B C12B 1_555 1_555
H13B N6B 1_555 1_555
O5 Eu1B 1_555 1_555
O6 Eu1B 1_555 1_555
C5 C6 1_555 1_555
C8 C14 1_555 1_555
C12 C13 1_555 1_555
N2 N3 1_555 1_555
N5 N6 1_555 1_555
Eu1B O5B 1_555 1_555
O2B C7B 1_555 1_555
O6B C15B 1_555 1_555
C1B C7B 1_555 1_555
C5B C6B 1_555 1_555
C8B C14B 1_555 1_555
C12B C13B 1_555 1_555
N2B N3B 1_555 1_555
N5B N6B 1_555 1_555

#END
