
#######################################################################
#
#                 Cambridge Crystallographic Data Centre
#                                CCDC 
#
#######################################################################
#
# If this CIF has been generated from an entry in the Cambridge 
# Structural Database, then it will include bibliographic, chemical, 
# crystal, experimental, refinement or atomic coordinate data resulting 
# from the CCDC's data processing and validation procedures.
#
#######################################################################

data_REHNID
_symmetry_cell_setting           monoclinic
_symmetry_space_group_name_H-M   'P 21/c'
_symmetry_Int_Tables_number      14
_space_group_name_Hall           '-P 2ybc'
loop_
_symmetry_equiv_pos_site_id
_symmetry_equiv_pos_as_xyz
1 x,y,z
2 -x,1/2+y,1/2-z
3 -x,-y,-z
4 x,1/2-y,1/2+z
_cell_length_a                   16.5570(9)
_cell_length_b                   14.4501(7)
_cell_length_c                   8.0012(4)
_cell_angle_alpha                90
_cell_angle_beta                 96.648(4)
_cell_angle_gamma                90
_cell_volume                     1901.42
loop_
_atom_site_label
_atom_site_type_symbol
_atom_site_fract_x
_atom_site_fract_y
_atom_site_fract_z
Sm1 Sm 0.051580(17) 0.616026(19) 0.44747(4)
O1 O 0.0135(3) 0.7774(3) 0.4053(6)
H1 H 0.0117 0.8064 0.5128
H2 H 0.0531 0.8080 0.3463
O2 O -0.0244(3) 0.6072(3) 0.1606(6)
O3 O -0.0432(3) 0.4908(3) 0.3244(5)
O4 O 0.1349(3) 0.4901(3) 0.3945(6)
O5 O 0.0749(3) 0.3568(3) 0.4505(6)
O6 O 0.1249(2) 0.6840(3) 0.6830(5)
O7 O 0.1564(2) 0.8219(3) 0.7960(6)
N1 N 0.2789(4) 0.1180(3) 0.2428(9)
N2 N 0.3463(4) 0.1116(4) 0.1715(9)
N3 N 0.3745(3) 0.1976(4) 0.1462(8)
H3 H 0.4183 0.2095 0.1019
N4 N 0.4141(4) 0.5713(4) 0.5717(9)
N5 N 0.4845(4) 0.6011(5) 0.5282(10)
N6 N 0.4857(4) 0.6920(4) 0.5344(9)
C1 C -0.1273(4) 0.4982(5) 0.0611(8)
H4 H -0.1790 0.5217 0.0853
H5 H -0.1278 0.4318 0.0662
H6 H -0.1174 0.5176 -0.0495
C2 C -0.0618(3) 0.5339(4) 0.1868(7)
C3 C 0.1317(4) 0.4022(4) 0.3972(9)
C4 C 0.1997(4) 0.3514(4) 0.3303(8)
C5 C 0.1988(4) 0.2551(4) 0.3273(8)
H7 H 0.1569 0.2217 0.3669
C6 C 0.2637(4) 0.2106(4) 0.2621(8)
C7 C 0.3244(4) 0.2628(4) 0.2003(8)
C8 C 0.3262(4) 0.3597(5) 0.2037(9)
H8 H 0.3675 0.3937 0.1632
C9 C 0.2629(3) 0.4009(4) 0.2708(8)
H9 H 0.2620 0.4651 0.2772
C10 C 0.1744(3) 0.7497(4) 0.7218(7)
C11 C 0.2597(3) 0.7378(4) 0.6773(7)
C12 C 0.2876(4) 0.6505(4) 0.6519(8)
H10 H 0.2560 0.5984 0.6642
C13 C 0.3657(4) 0.6442(5) 0.6070(9)
C14 C 0.4133(4) 0.7211(5) 0.5829(9)
C15 C 0.3840(4) 0.8095(5) 0.6094(10)
H11 H 0.4151 0.8618 0.5944
C16 C 0.3079(4) 0.8167(5) 0.6583(9)
H12 H 0.2875 0.8750 0.6795
H13 H 0.407(4) 0.505(5) 0.575(8)
Sm1B Sm -0.051580(17) 0.383974(19) 0.55253(4)
Sm1A Sm -0.051580(17) 0.116026(19) 0.05253(4)
Sm1C Sm 0.051580(17) 0.883974(19) 0.94747(4)
O1B O -0.0135(3) 0.2226(3) 0.5947(6)
H1B H -0.0117 0.1936 0.4872
H2B H -0.0531 0.1920 0.6537
O2B O 0.0244(3) 0.3928(3) 0.8394(6)
O3B O 0.0432(3) 0.5092(3) 0.6756(5)
O4B O -0.1349(3) 0.5099(3) 0.6055(6)
O5B O -0.0749(3) 0.6432(3) 0.5495(6)
O6B O -0.1249(2) 0.3160(3) 0.3170(5)
O7B O -0.1564(2) 0.1781(3) 0.2040(6)
O7A O -0.1564(2) 0.3219(3) 0.7040(6)
O7C O 0.1564(2) 0.6781(3) 0.2960(6)
N1B N -0.2789(4) 0.8820(3) 0.7572(9)
N2B N -0.3463(4) 0.8884(4) 0.8285(9)
N3B N -0.3745(3) 0.8024(4) 0.8538(8)
H3B H -0.4183 0.7905 0.8981
N4B N -0.4141(4) 0.4287(4) 0.4283(9)
N5B N -0.4845(4) 0.3989(5) 0.4718(10)
N6B N -0.4857(4) 0.3080(4) 0.4656(9)
C1B C 0.1273(4) 0.5018(5) 0.9389(8)
H4B H 0.1790 0.4783 0.9147
H5B H 0.1278 0.5682 0.9338
H6B H 0.1174 0.4824 1.0495
C2B C 0.0618(3) 0.4661(4) 0.8132(7)
C3B C -0.1317(4) 0.5978(4) 0.6028(9)
C4B C -0.1997(4) 0.6486(4) 0.6697(8)
C5B C -0.1988(4) 0.7449(4) 0.6727(8)
H7B H -0.1569 0.7783 0.6331
C6B C -0.2637(4) 0.7894(4) 0.7379(8)
C7B C -0.3244(4) 0.7372(4) 0.7997(8)
C8B C -0.3262(4) 0.6403(5) 0.7963(9)
H8B H -0.3675 0.6063 0.8368
C9B C -0.2629(3) 0.5991(4) 0.7292(8)
H9B H -0.2620 0.5349 0.7228
C10B C -0.1744(3) 0.2503(4) 0.2782(7)
C11B C -0.2597(3) 0.2622(4) 0.3227(7)
C12B C -0.2876(4) 0.3495(4) 0.3481(8)
H10B H -0.2560 0.4016 0.3358
C13B C -0.3657(4) 0.3558(5) 0.3930(9)
C14B C -0.4133(4) 0.2789(5) 0.4171(9)
C15B C -0.3840(4) 0.1905(5) 0.3906(10)
H11B H -0.4151 0.1382 0.4056
C16B C -0.3079(4) 0.1833(5) 0.3417(9)
H12B H -0.2875 0.1250 0.3205
H13B H -0.407(4) 0.495(5) 0.425(8)
loop_
_geom_bond_atom_site_label_1
_geom_bond_atom_site_label_2
_geom_bond_site_symmetry_1
_geom_bond_site_symmetry_2
Sm1 O1 1_555 1_555
O1 H1 1_555 1_555
H2 O1 1_555 1_555
O2 Sm1 1_555 1_555
O3 Sm1 1_555 1_555
O4 Sm1 1_555 1_555
O5 C3 1_555 1_555
O6 Sm1 1_555 1_555
O7 C10 1_555 1_555
N1 N2 1_555 1_555
N2 N3 1_555 1_555
N3 H3 1_555 1_555
N4 N5 1_555 1_555
N5 N6 1_555 1_555
N6 C14 1_555 1_555
C1 H4 1_555 1_555
H5 C1 1_555 1_555
H6 C1 1_555 1_555
C2 O2 1_555 1_555
C3 O4 1_555 1_555
C4 C3 1_555 1_555
C5 C4 1_555 1_555
H7 C5 1_555 1_555
C6 N1 1_555 1_555
C7 N3 1_555 1_555
C8 C7 1_555 1_555
H8 C8 1_555 1_555
C9 C4 1_555 1_555
H9 C9 1_555 1_555
C10 O6 1_555 1_555
C11 C10 1_555 1_555
C12 C11 1_555 1_555
H10 C12 1_555 1_555
C13 N4 1_555 1_555
C14 C13 1_555 1_555
C15 C14 1_555 1_555
H11 C15 1_555 1_555
C16 C11 1_555 1_555
H12 C16 1_555 1_555
H13 N4 1_555 1_555
Sm1B O3 1_555 1_555
Sm1A O7B 1_555 1_555
Sm1C O7 1_555 1_555
O1B Sm1B 1_555 1_555
H1B O1B 1_555 1_555
H2B O1B 1_555 1_555
O2B Sm1B 1_555 1_555
O3B Sm1 1_555 1_555
O4B Sm1B 1_555 1_555
O5B Sm1 1_555 1_555
O6B Sm1B 1_555 1_555
O7B C10B 1_555 1_555
O7A Sm1B 1_555 1_555
O7C Sm1 1_555 1_555
N1B N2B 1_555 1_555
N2B N3B 1_555 1_555
N3B H3B 1_555 1_555
N4B N5B 1_555 1_555
N5B N6B 1_555 1_555
N6B C14B 1_555 1_555
C1B H4B 1_555 1_555
H5B C1B 1_555 1_555
H6B C1B 1_555 1_555
C2B O2B 1_555 1_555
C3B O4B 1_555 1_555
C4B C3B 1_555 1_555
C5B C4B 1_555 1_555
H7B C5B 1_555 1_555
C6B N1B 1_555 1_555
C7B N3B 1_555 1_555
C8B C7B 1_555 1_555
H8B C8B 1_555 1_555
C9B C4B 1_555 1_555
H9B C9B 1_555 1_555
C10B O6B 1_555 1_555
C11B C10B 1_555 1_555
C12B C11B 1_555 1_555
H10B C12B 1_555 1_555
C13B N4B 1_555 1_555
C14B C13B 1_555 1_555
C15B C14B 1_555 1_555
H11B C15B 1_555 1_555
C16B C11B 1_555 1_555
H12B C16B 1_555 1_555
H13B N4B 1_555 1_555
O3 C2 1_555 1_555
O5 Sm1B 1_555 1_555
C1 C2 1_555 1_555
C5 C6 1_555 1_555
C6 C7 1_555 1_555
C8 C9 1_555 1_555
C12 C13 1_555 1_555
C15 C16 1_555 1_555
Sm1B O3B 1_555 1_555
O3B C2B 1_555 1_555
O5B C3B 1_555 1_555
C1B C2B 1_555 1_555
C5B C6B 1_555 1_555
C6B C7B 1_555 1_555
C8B C9B 1_555 1_555
C12B C13B 1_555 1_555
C15B C16B 1_555 1_555

#END
