
#######################################################################
#
#                 Cambridge Crystallographic Data Centre
#                                CCDC 
#
#######################################################################
#
# If this CIF has been generated from an entry in the Cambridge 
# Structural Database, then it will include bibliographic, chemical, 
# crystal, experimental, refinement or atomic coordinate data resulting 
# from the CCDC's data processing and validation procedures.
#
#######################################################################

data_REHPIF
_symmetry_cell_setting           triclinic
_symmetry_space_group_name_H-M   'P -1'
_symmetry_Int_Tables_number      2
_space_group_name_Hall           '-P 1'
loop_
_symmetry_equiv_pos_site_id
_symmetry_equiv_pos_as_xyz
1 x,y,z
2 -x,-y,-z
_cell_length_a                   6.8644(10)
_cell_length_b                   10.5393(16)
_cell_length_c                   13.217(2)
_cell_angle_alpha                100.562(2)
_cell_angle_beta                 104.377(2)
_cell_angle_gamma                105.700(2)
_cell_volume                     858.924
loop_
_atom_site_label
_atom_site_type_symbol
_atom_site_fract_x
_atom_site_fract_y
_atom_site_fract_z
C1 C 0.4773(3) 0.98860(17) 0.15157(14)
C2 C 0.4492(3) 0.97094(17) 0.25391(14)
H1 H 0.5701 1.0041 0.3173
C3 C 0.2553(3) 0.90839(17) 0.26152(14)
C4 C 0.2339(3) 0.89928(17) 0.37215(14)
C5 C 0.0696(3) 0.85249(17) 0.16577(14)
C6 C 0.0998(3) 0.86641(17) 0.06640(15)
C7 C -0.0713(3) 0.81435(19) -0.03020(15)
H2 H -0.0497 0.8257 -0.0967
C8 C -0.2704(3) 0.7468(2) -0.02775(17)
H3 H -0.3872 0.7112 -0.0930
C9 C -0.3037(3) 0.7295(2) 0.06985(17)
H4 H -0.4420 0.6814 0.0703
C10 C -0.1364(3) 0.78209(19) 0.16505(16)
H5 H -0.1604 0.7707 0.2311
N1 N 0.3010(2) 0.93328(15) 0.06371(12)
O1 O 0.3476(2) 0.84377(13) 0.42502(10)
O2 O 0.1026(2) 0.94671(13) 0.40192(10)
O3 O 0.6522(2) 1.05162(14) 0.14196(10)
H10 H 0.3115 0.9386 -0.0013
C11 C 0.2107(3) 0.54600(17) 0.32797(14)
H6 H 0.3341 0.5821 0.3901
C12 C 0.2340(3) 0.55775(18) 0.22890(14)
H7 H 0.3699 0.6013 0.2232
C13 C 0.0560(3) 0.50500(18) 0.13889(14)
C14 C -0.1378(3) 0.4377(2) 0.14992(16)
H8 H -0.2620 0.3966 0.0884
C15 C -0.1469(3) 0.4315(2) 0.25154(16)
H9 H -0.2803 0.3862 0.2590
Co1 Co 0.0000 0.5000 0.5000
N2 N 0.0242(2) 0.48675(14) 0.34086(11)
N3 N 0.0846(2) 0.52524(16) 0.03890(12)
O4 O 0.17406(19) 0.71243(12) 0.55302(10)
O5 O 0.28558(19) 0.46087(12) 0.54382(10)
H13 H 0.3948 0.5218 0.5894
H14 H 0.2870 0.3868 0.5590
H19 H 0.1164 0.7584 0.5884
H20 H 0.2136 0.7595 0.5117
C11A C -0.2107(3) 0.45400(17) -0.32797(14)
H6A H -0.3341 0.4179 -0.3901
C12A C -0.2340(3) 0.44225(18) -0.22890(14)
H7A H -0.3699 0.3987 -0.2232
C13A C -0.0560(3) 0.49500(18) -0.13889(14)
C14A C 0.1378(3) 0.5623(2) -0.14992(16)
H8A H 0.2620 0.6034 -0.0884
C15A C 0.1469(3) 0.5685(2) -0.25154(16)
H9A H 0.2803 0.6138 -0.2590
Co1_2 Co 0.0000 0.5000 -0.5000
N2A N -0.0242(2) 0.51325(14) -0.34086(11)
N2A_2 N -0.0242(2) 0.51325(14) 0.65914(11)
N3A N -0.0846(2) 0.47476(16) -0.03890(12)
O4A O -0.17406(19) 0.28757(12) 0.44698(10)
O5A O -0.28558(19) 0.53913(12) 0.45618(10)
H13A H -0.3948 0.4782 0.4106
H14A H -0.2870 0.6132 0.4410
H19A H -0.1164 0.2416 0.4116
H20A H -0.2136 0.2405 0.4883
O6 O 0.2971(2) 0.22779(13) 0.59647(12)
H11 H 0.3860 0.1909 0.5833
H17 H 0.1794 0.1641 0.5743
O7 O 0.5898(2) 0.70076(14) 0.67785(12)
H16 H 0.5126 0.7440 0.6530
H18 H 0.7152 0.7412 0.6802
O8 O -0.00309(19) 0.85062(12) 0.67639(10)
H12 H -0.0222 0.9184 0.6545
H15 H 0.0970 0.8865 0.7366
loop_
_geom_bond_atom_site_label_1
_geom_bond_atom_site_label_2
_geom_bond_site_symmetry_1
_geom_bond_site_symmetry_2
C1 C2 1_555 1_555
C2 H1 1_555 1_555
C3 C2 1_555 1_555
C4 C3 1_555 1_555
C5 C3 1_555 1_555
C6 C5 1_555 1_555
C7 C6 1_555 1_555
H2 C7 1_555 1_555
C8 C7 1_555 1_555
H3 C8 1_555 1_555
C9 C8 1_555 1_555
H4 C9 1_555 1_555
C10 C5 1_555 1_555
H5 C10 1_555 1_555
C11 H6 1_555 1_555
C12 C11 1_555 1_555
H7 C12 1_555 1_555
C13 C12 1_555 1_555
C14 C13 1_555 1_555
H8 C14 1_555 1_555
C15 C14 1_555 1_555
H9 C15 1_555 1_555
Co1 N2 1_555 1_555
N1 C1 1_555 1_555
N2 C11 1_555 1_555
N3 C13 1_555 1_555
O1 C4 1_555 1_555
O2 C4 1_555 1_555
O3 C1 1_555 1_555
O4 Co1 1_555 1_555
O5 Co1 1_555 1_555
O6 H11 1_555 1_555
O7 H16 1_555 1_555
O8 H12 1_555 1_555
H10 N1 1_555 1_555
H13 O5 1_555 1_555
H14 O5 1_555 1_555
H15 O8 1_555 1_555
H17 O6 1_555 1_555
H18 O7 1_555 1_555
H19 O4 1_555 1_555
H20 O4 1_555 1_555
C11A H6A 1_555 1_555
C12A C11A 1_555 1_555
H7A C12A 1_555 1_555
C13A C12A 1_555 1_555
C14A C13A 1_555 1_555
H8A C14A 1_555 1_555
C15A C14A 1_555 1_555
H9A C15A 1_555 1_555
Co1_2 N2A 1_555 1_555
N2A C11A 1_555 1_555
N2A_2 Co1 1_555 1_555
N3A N3 1_555 1_555
O4A Co1 1_555 1_555
O5A Co1 1_555 1_555
H13A O5A 1_555 1_555
H14A O5A 1_555 1_555
H19A O4A 1_555 1_555
H20A O4A 1_555 1_555
C6 N1 1_555 1_555
C9 C10 1_555 1_555
C15 N2 1_555 1_555
C13A N3A 1_555 1_555
C15A N2A 1_555 1_555

#END
