
#######################################################################
#
#                 Cambridge Crystallographic Data Centre
#                                CCDC 
#
#######################################################################
#
# If this CIF has been generated from an entry in the Cambridge 
# Structural Database, then it will include bibliographic, chemical, 
# crystal, experimental, refinement or atomic coordinate data resulting 
# from the CCDC's data processing and validation procedures.
#
#######################################################################

data_REHPUQ
_symmetry_cell_setting           orthorhombic
_symmetry_space_group_name_H-M   'I 2 2 2'
_symmetry_Int_Tables_number      23
_space_group_name_Hall           'I 2 2'
loop_
_symmetry_equiv_pos_site_id
_symmetry_equiv_pos_as_xyz
1 x,y,z
2 -x,-y,z
3 x,-y,-z
4 -x,y,-z
5 1/2+x,1/2+y,1/2+z
6 1/2-x,1/2-y,1/2+z
7 1/2+x,1/2-y,1/2-z
8 1/2-x,1/2+y,1/2-z
_cell_length_a                   23.443(7)
_cell_length_b                   5.6718(16)
_cell_length_c                   7.288(2)
_cell_angle_alpha                90
_cell_angle_beta                 90
_cell_angle_gamma                90
_cell_volume                     969.042
loop_
_atom_site_label
_atom_site_type_symbol
_atom_site_fract_x
_atom_site_fract_y
_atom_site_fract_z
I1 I 0.593830(15) -0.5000 1.0000
Pt1 Pt 0.5000 0.0000 0.5000
I2 I 0.5000 -0.4789(14) 0.5000
N1 N 0.56617(13) -0.0039(18) 0.6879(4)
H1 H 0.5695 0.1418 0.7424
H2 H 0.5588 -0.1133 0.7781
C1 C 0.67357(16) -0.009(2) 0.7033(5)
H3 H 0.6735 -0.1040 0.8174
H4 H 0.6735 0.1596 0.7378
C2 C 0.6205(2) -0.0653(7) 0.5907(6)
H5 H 0.6202 -0.2383 0.5644
C3 C 0.7272(2) -0.0651(8) 0.5911(6)
H6 H 0.7614 -0.0195 0.6623
H7 H 0.7291 -0.2370 0.5682
Pt1_2 Pt 0.5000 -1.0000 0.5000
I2A I 0.5000 -0.5211(14) 0.5000
I2_2 I 0.5000 0.5211(14) 0.5000
I2A_2 I 0.5000 0.4789(14) 0.5000
N1B N 0.56617(13) 0.0039(18) 0.3121(4)
N1A N 0.43383(13) 0.0039(18) 0.6879(4)
N1C N 0.43383(13) -0.0039(18) 0.3121(4)
H1B H 0.5695 -0.1418 0.2576
H1A H 0.4305 -0.1418 0.7424
H1C H 0.4305 0.1418 0.2576
H2B H 0.5588 0.1133 0.2219
H2A H 0.4412 0.1133 0.7781
H2C H 0.4412 -0.1133 0.2219
C1B C 0.67357(16) 0.009(2) 0.2967(5)
C1A C 0.32643(16) 0.009(2) 0.7033(5)
C1C C 0.32643(16) -0.009(2) 0.2967(5)
H3B H 0.6735 0.1040 0.1826
H3A H 0.3265 0.1040 0.8174
H3C H 0.3265 -0.1040 0.1826
H4B H 0.6735 -0.1596 0.2622
H4A H 0.3265 -0.1596 0.7378
H4C H 0.3265 0.1596 0.2622
C2B C 0.6205(2) 0.0653(7) 0.4093(6)
C2A C 0.3795(2) 0.0653(7) 0.5907(6)
C2C C 0.3795(2) -0.0653(7) 0.4093(6)
H5B H 0.6202 0.2383 0.4356
H5A H 0.3798 0.2383 0.5644
H5C H 0.3798 -0.2383 0.4356
C3B C 0.7272(2) 0.0651(8) 0.4089(6)
C3A C 0.2728(2) 0.0651(8) 0.5911(6)
C3C C 0.2728(2) -0.0651(8) 0.4089(6)
H6B H 0.7614 0.0195 0.3377
H6A H 0.2386 0.0195 0.6623
H6C H 0.2386 -0.0195 0.3377
H7B H 0.7291 0.2370 0.4318
H7A H 0.2709 0.2370 0.5682
H7C H 0.2709 -0.2370 0.4318
loop_
_geom_bond_atom_site_label_1
_geom_bond_atom_site_label_2
_geom_bond_site_symmetry_1
_geom_bond_site_symmetry_2
Pt1 I2 1_555 1_555
I2 Pt1_2 1_555 1_555
N1 Pt1 1_555 1_555
H1 N1 1_555 1_555
H2 N1 1_555 1_555
C1 H3 1_555 1_555
H4 C1 1_555 1_555
C2 N1 1_555 1_555
H5 C2 1_555 1_555
C3 C1 1_555 1_555
H6 C3 1_555 1_555
H7 C3 1_555 1_555
Pt1_2 I2A 1_555 1_555
I2A Pt1 1_555 1_555
I2_2 Pt1 1_555 1_555
I2A_2 Pt1 1_555 1_555
N1B Pt1 1_555 1_555
N1A Pt1 1_555 1_555
N1C Pt1 1_555 1_555
H1B N1B 1_555 1_555
H1A N1A 1_555 1_555
H1C N1C 1_555 1_555
H2B N1B 1_555 1_555
H2A N1A 1_555 1_555
H2C N1C 1_555 1_555
C1B H3B 1_555 1_555
C1A H3A 1_555 1_555
C1C H3C 1_555 1_555
H4B C1B 1_555 1_555
H4A C1A 1_555 1_555
H4C C1C 1_555 1_555
C2B C2 1_555 1_555
C2A N1A 1_555 1_555
C2C N1C 1_555 1_555
H5B C2B 1_555 1_555
H5A C2A 1_555 1_555
H5C C2C 1_555 1_555
C3B C3 1_555 1_555
C3A C1A 1_555 1_555
C3C C1C 1_555 1_555
H6B C3B 1_555 1_555
H6A C3A 1_555 1_555
H6C C3C 1_555 1_555
H7B C3B 1_555 1_555
H7A C3A 1_555 1_555
H7C C3C 1_555 1_555
I2 I2A 1_555 1_555
C1 C2 1_555 1_555
I2_2 I2A_2 1_555 1_555
N1B C2B 1_555 1_555
C1B C2B 1_555 1_555
C1B C3B 1_555 1_555
C1A C2A 1_555 1_555
C1C C2C 1_555 1_555
C2A C2C 1_555 1_555
C3A C3C 1_555 1_555

#END
