
#######################################################################
#
#                 Cambridge Crystallographic Data Centre
#                                CCDC 
#
#######################################################################
#
# If this CIF has been generated from an entry in the Cambridge 
# Structural Database, then it will include bibliographic, chemical, 
# crystal, experimental, refinement or atomic coordinate data resulting 
# from the CCDC's data processing and validation procedures.
#
#######################################################################

data_REHPOL
_symmetry_cell_setting           orthorhombic
_symmetry_space_group_name_H-M   'P b c n'
_symmetry_Int_Tables_number      60
_space_group_name_Hall           '-P 2n 2ab'
loop_
_symmetry_equiv_pos_site_id
_symmetry_equiv_pos_as_xyz
1 x,y,z
2 1/2-x,1/2-y,1/2+z
3 -x,y,1/2-z
4 1/2+x,1/2-y,-z
5 -x,-y,-z
6 1/2+x,1/2+y,1/2-z
7 x,-y,1/2+z
8 1/2-x,1/2+y,z
_cell_length_a                   9.913(2)
_cell_length_b                   19.061(4)
_cell_length_c                   17.668(4)
_cell_angle_alpha                90
_cell_angle_beta                 90
_cell_angle_gamma                90
_cell_volume                     3338.4
loop_
_atom_site_label
_atom_site_type_symbol
_atom_site_fract_x
_atom_site_fract_y
_atom_site_fract_z
C1 C 0.1809(2) 0.21165(10) 0.21637(11)
C2 C 0.0516(2) 0.25685(10) 0.21492(11)
C3 C 0.0718(2) 0.33559(10) 0.23208(11)
H1 H 0.1416 0.3417 0.2724
C4 C 0.0952(2) 0.38697(11) 0.16988(12)
C5 C -0.0047(2) 0.30156(11) 0.08424(12)
C6 C -0.0166(2) 0.24851(10) 0.13832(12)
C7 C -0.0867(2) 0.18808(11) 0.11831(12)
H2 H -0.0936 0.1507 0.1536
C8 C -0.1464(2) 0.18145(13) 0.04791(13)
H3 H -0.1961 0.1403 0.0358
C9 C -0.1339(2) 0.23448(13) -0.00471(13)
H4 H -0.1748 0.2299 -0.0531
C10 C -0.0619(2) 0.29412(12) 0.01292(12)
H5 H -0.0514 0.3302 -0.0237
C11 C 0.4384(2) 0.37343(11) 0.16486(11)
H6 H 0.3702 0.3729 0.2026
C12 C 0.4400(2) 0.42804(11) 0.11466(12)
H7 H 0.3747 0.4644 0.1174
C13 C 0.5390(2) 0.42873(11) 0.06000(12)
C14 C 0.6342(2) 0.37562(12) 0.05819(12)
H8 H 0.7044 0.3757 0.0216
C15 C 0.62419(6) 0.322335(18) 0.11113(3)
H9 H 0.6887 0.2855 0.1099
H10 H 0.0750 0.3930 0.0655
Mn1 Mn 0.50000(6) 0.232211(18) 0.25000(3)
N1 N 0.06279(6) 0.365370(18) 0.10050(3)
N2 N 0.52767(6) 0.320550(18) 0.16387(3)
N3 N 0.55197(6) 0.482461(18) 0.00405(3)
O1 O 0.28891(6) 0.244638(18) 0.22383(3)
O2 O 0.16953(6) 0.147348(18) 0.20727(3)
O3 O 0.14030(6) 0.446314(18) 0.18342(3)
O4 O 0.55799(6) 0.151958(18) 0.16870(3)
H11 H 0.6139 0.1192 0.1785
H12 H 0.4890 0.1301 0.1543
C1B C -0.1809(2) 0.21165(10) 0.28363(11)
C2B C -0.0516(2) 0.25685(10) 0.28508(11)
C3B C -0.0718(2) 0.33559(10) 0.26792(11)
H1B H -0.1416 0.3417 0.2276
C4B C -0.0952(2) 0.38697(11) 0.33012(12)
C5B C 0.0047(2) 0.30156(11) 0.41576(12)
C6B C 0.0166(2) 0.24851(10) 0.36168(12)
C7B C 0.0867(2) 0.18808(11) 0.38169(12)
H2B H 0.0936 0.1507 0.3464
C8B C 0.1464(2) 0.18145(13) 0.45209(13)
H3B H 0.1961 0.1403 0.4642
C9B C 0.1339(2) 0.23448(13) 0.50471(13)
H4B H 0.1748 0.2299 0.5531
C10B C 0.0619(2) 0.29412(12) 0.48708(12)
H5B H 0.0514 0.3302 0.5237
C11D C 0.5616(2) 0.62657(11) -0.16486(11)
H6D H 0.6298 0.6271 -0.2026
C12D C 0.5600(2) 0.57196(11) -0.11466(12)
H7D H 0.6253 0.5356 -0.1174
C13D C 0.4610(2) 0.57127(11) -0.06000(12)
C14D C 0.3658(2) 0.62438(12) -0.05819(12)
H8D H 0.2956 0.6243 -0.0216
C15D C 0.37581(6) 0.677665(18) -0.11113(3)
H9D H 0.3113 0.7145 -0.1099
H10B H -0.0750 0.3930 0.4345
Mn1_2 Mn -0.50000(6) 0.232211(18) 0.25000(3)
Mn1D Mn 0.50000(6) 0.767789(18) -0.25000(3)
N1B N -0.06279(6) 0.365370(18) 0.39950(3)
N2D N 0.47233(6) 0.679450(18) -0.16387(3)
N2B N 0.47233(6) 0.320550(18) 0.33613(3)
N3D N 0.44803(6) 0.517539(18) -0.00405(3)
O1B O -0.28891(6) 0.244638(18) 0.27617(3)
O1B_2 O 0.71109(6) 0.244638(18) 0.27617(3)
O2B O -0.16953(6) 0.147348(18) 0.29273(3)
O3B O -0.14030(6) 0.446314(18) 0.31658(3)
O4B O 0.44201(6) 0.151958(18) 0.33130(3)
H11B H 0.3861 0.1192 0.3215
H12B H 0.5110 0.1301 0.3457
O5 O 0.34357(19) 0.07799(9) 0.11443(9)
H13 H 0.2857 0.0987 0.1428
H14 H 0.3483 0.0371 0.1338
O6 O 0.6308(2) 0.02830(10) 0.01731(10)
H18 H 0.6510 0.0271 0.0635
H19 H 0.5517 0.0135 0.0064
O7 O 0.7181(2) 0.02214(11) 0.17704(11)
H15 H 0.6744 -0.0032 0.2083
H16 H 0.7994 0.0269 0.1922
O8 O 0.0000 0.03972(15) 0.2500
H17 H 0.0506 0.0656 0.2232
H17B H -0.0506 0.0656 0.2768
H20? H 0.6605 -0.0052 -0.0101
loop_
_geom_bond_atom_site_label_1
_geom_bond_atom_site_label_2
_geom_bond_site_symmetry_1
_geom_bond_site_symmetry_2
C1 C2 1_555 1_555
C2 C3 1_555 1_555
C3 H1 1_555 1_555
C4 C3 1_555 1_555
C5 C6 1_555 1_555
C6 C2 1_555 1_555
C7 C6 1_555 1_555
H2 C7 1_555 1_555
C8 C7 1_555 1_555
H3 C8 1_555 1_555
C9 C8 1_555 1_555
H4 C9 1_555 1_555
C10 C5 1_555 1_555
H5 C10 1_555 1_555
C11 H6 1_555 1_555
C12 C11 1_555 1_555
H7 C12 1_555 1_555
C13 C12 1_555 1_555
C14 C13 1_555 1_555
H8 C14 1_555 1_555
C15 C14 1_555 1_555
H9 C15 1_555 1_555
H10 N1 1_555 1_555
Mn1 N2 1_555 1_555
N1 C4 1_555 1_555
N2 C11 1_555 1_555
N3 C13 1_555 1_555
O1 C1 1_555 1_555
O2 C1 1_555 1_555
O3 C4 1_555 1_555
O4 Mn1 1_555 1_555
H11 O4 1_555 1_555
H12 O4 1_555 1_555
O5 H13 1_555 1_555
H14 O5 1_555 1_555
O6 H18 1_555 1_555
O7 H15 1_555 1_555
H16 O7 1_555 1_555
O8 H17 1_555 1_555
H19 O6 1_555 1_555
C1B C2B 1_555 1_555
C2B C2 1_555 1_555
C3B C3 1_555 1_555
H1B C3B 1_555 1_555
C4B C3B 1_555 1_555
C5B C6B 1_555 1_555
C6B C2B 1_555 1_555
C7B C6B 1_555 1_555
H2B C7B 1_555 1_555
C8B C7B 1_555 1_555
H3B C8B 1_555 1_555
C9B C8B 1_555 1_555
H4B C9B 1_555 1_555
C10B C5B 1_555 1_555
H5B C10B 1_555 1_555
C11D H6D 1_555 1_555
C12D C11D 1_555 1_555
H7D C12D 1_555 1_555
C13D C12D 1_555 1_555
C14D C13D 1_555 1_555
H8D C14D 1_555 1_555
C15D C14D 1_555 1_555
H9D C15D 1_555 1_555
H10B N1B 1_555 1_555
Mn1_2 O1B 1_555 1_555
Mn1D N2D 1_555 1_555
N1B C4B 1_555 1_555
N2D C11D 1_555 1_555
N2B Mn1 1_555 1_555
N3D N3 1_555 1_555
O1B C1B 1_555 1_555
O1B_2 Mn1 1_555 1_555
O2B C1B 1_555 1_555
O3B C4B 1_555 1_555
O4B Mn1 1_555 1_555
H11B O4B 1_555 1_555
H12B O4B 1_555 1_555
H17B O8 1_555 1_555
C5 N1 1_555 1_555
C9 C10 1_555 1_555
C15 N2 1_555 1_555
Mn1 O1 1_555 1_555
C2B C3B 1_555 1_555
C5B N1B 1_555 1_555
C9B C10B 1_555 1_555
C13D N3D 1_555 1_555
C15D N2D 1_555 1_555

#END
