
#######################################################################
#
#                 Cambridge Crystallographic Data Centre
#                                CCDC 
#
#######################################################################
#
# If this CIF has been generated from an entry in the Cambridge 
# Structural Database, then it will include bibliographic, chemical, 
# crystal, experimental, refinement or atomic coordinate data resulting 
# from the CCDC's data processing and validation procedures.
#
#######################################################################

data_REHPUR
_symmetry_cell_setting           orthorhombic
_symmetry_space_group_name_H-M   'P b c n'
_symmetry_Int_Tables_number      60
_space_group_name_Hall           '-P 2n 2ab'
loop_
_symmetry_equiv_pos_site_id
_symmetry_equiv_pos_as_xyz
1 x,y,z
2 1/2-x,1/2-y,1/2+z
3 -x,y,1/2-z
4 1/2+x,1/2-y,-z
5 -x,-y,-z
6 1/2+x,1/2+y,1/2-z
7 x,-y,1/2+z
8 1/2-x,1/2+y,z
_cell_length_a                   10.1093(11)
_cell_length_b                   19.192(2)
_cell_length_c                   17.7243(19)
_cell_angle_alpha                90
_cell_angle_beta                 90
_cell_angle_gamma                90
_cell_volume                     3438.83
loop_
_atom_site_label
_atom_site_type_symbol
_atom_site_fract_x
_atom_site_fract_y
_atom_site_fract_z
C1 C 1.0061(2) 0.19697(13) 0.08492(13)
C2 C 1.0634(3) 0.20384(15) 0.01407(14)
H1 H 1.0538 0.1686 -0.0215
C3 C 1.1342(3) 0.26286(15) -0.00335(15)
H2 H 1.1741 0.2671 -0.0504
C4 C 1.1462(3) 0.31559(14) 0.04857(15)
H3 H 1.1941 0.3555 0.0366
C5 C 1.0871(2) 0.30943(12) 0.11872(14)
H4 H 1.0944 0.3458 0.1531
C6 C 1.0172(2) 0.24981(12) 0.13881(13)
C7 C 0.9498(2) 0.24165(11) 0.21490(13)
C8 C 0.8229(2) 0.28639(11) 0.21552(14)
C9 C 0.9300(2) 0.16343(11) 0.23202(12)
H5 H 0.8631 0.1578 0.2715
C10 C 0.9048(2) 0.11281(12) 0.17014(14)
C11 C 0.5606(2) 0.12722(12) 0.16272(13)
H6 H 0.6259 0.1280 0.1997
C12 C 0.5602(2) 0.07306(12) 0.11265(14)
H7 H 0.6239 0.0382 0.1150
C13 C 0.4625(2) 0.07178(12) 0.05869(14)
C14 C 0.3690(2) 0.12420(13) 0.05687(14)
H8 H 0.3016 0.1238 0.0212
C15 C 0.3781(2) 0.17695(12) 0.10917(14)
H9 H 0.3157 0.2126 0.1078
N1 N 0.4510(2) 0.01819(11) 0.00289(13)
Cd1 Cd 0.5000 0.269524(11) 0.2500
N2 N 0.9388(2) 0.13392(10) 0.10093(11)
H10 H 0.9184 0.1074 0.0636
N3 N 0.47203(18) 0.17934(10) 0.16158(11)
O1 O 0.71795(16) 0.25321(9) 0.22292(12)
O2 O 0.83255(17) 0.35027(8) 0.20670(12)
O3 O 0.85695(17) 0.05485(8) 0.18304(10)
O4 O 0.4384(2) 0.35342(10) 0.16592(11)
H11 H 0.5017 0.3770 0.1477
H15 H 0.3754 0.3784 0.1828
C1B C 0.9939(2) 0.19697(13) 0.41508(13)
C2B C 0.9366(3) 0.20384(15) 0.48593(14)
H1B H 0.9462 0.1686 0.5215
C3B C 0.8658(3) 0.26286(15) 0.50335(15)
H2B H 0.8259 0.2671 0.5504
C4B C 0.8538(3) 0.31559(14) 0.45143(15)
H3B H 0.8059 0.3555 0.4634
C5B C 0.9129(2) 0.30943(12) 0.38128(14)
H4B H 0.9056 0.3458 0.3469
C6B C 0.9828(2) 0.24981(12) 0.36119(13)
C7B C 1.0502(2) 0.24165(11) 0.28510(13)
C8B C 1.1771(2) 0.28639(11) 0.28448(14)
C9B C 1.0700(2) 0.16343(11) 0.26798(12)
H5B H 1.1369 0.1578 0.2285
C10B C 1.0952(2) 0.11281(12) 0.32986(14)
C11D C 0.4394(2) -0.12722(12) -0.16272(13)
H6D H 0.3741 -0.1280 -0.1997
C12D C 0.4398(2) -0.07306(12) -0.11265(14)
H7D H 0.3761 -0.0382 -0.1150
C13D C 0.5375(2) -0.07178(12) -0.05869(14)
C14D C 0.6310(2) -0.12420(13) -0.05687(14)
H8D H 0.6984 -0.1238 -0.0212
C15D C 0.6219(2) -0.17695(12) -0.10917(14)
H9D H 0.6843 -0.2126 -0.1078
N1D N 0.5490(2) -0.01819(11) -0.00289(13)
Cd1_2 Cd 1.5000 0.269524(11) 0.2500
Cd1D Cd 0.5000 -0.269524(11) -0.2500
N2B N 1.0612(2) 0.13392(10) 0.39907(11)
H10B H 1.0816 0.1074 0.4364
N3D N 0.52797(18) -0.17934(10) -0.16158(11)
N3B N 0.52797(18) 0.17934(10) 0.33842(11)
O1B O 1.28205(16) 0.25321(9) 0.27708(12)
O1B_2 O 0.28205(16) 0.25321(9) 0.27708(12)
O2B O 1.16745(17) 0.35027(8) 0.29330(12)
O3B O 1.14305(17) 0.05485(8) 0.31696(10)
O4B O 0.5616(2) 0.35342(10) 0.33408(11)
H11B H 0.4983 0.3770 0.3523
H15B H 0.6246 0.3784 0.3172
O5 O 0.0000 0.45774(19) 0.2500
H17 H -0.0498 0.4316 0.2230
H17B H 0.0498 0.4316 0.2770
O6 O 0.2774(3) 0.48042(13) 0.17787(14)
H14 H 0.3005 0.5060 0.2145
H18 H 0.1933 0.4786 0.1850
O7 O 0.6587(2) 0.42204(10) 0.11657(11)
H12 H 0.7155 0.4012 0.1443
H13 H 0.6566 0.4639 0.1325
O8 O 0.3681(2) 0.47086(12) 0.01682(13)
H16 H 0.3689 0.5108 -0.0039
H19 H 0.3463 0.4807 0.0619
loop_
_geom_bond_atom_site_label_1
_geom_bond_atom_site_label_2
_geom_bond_site_symmetry_1
_geom_bond_site_symmetry_2
C1 C2 1_555 1_555
C2 H1 1_555 1_555
C3 C2 1_555 1_555
H2 C3 1_555 1_555
C4 C3 1_555 1_555
H3 C4 1_555 1_555
C5 C4 1_555 1_555
H4 C5 1_555 1_555
C6 C1 1_555 1_555
C7 C6 1_555 1_555
C8 C7 1_555 1_555
C9 C7 1_555 1_555
H5 C9 1_555 1_555
C10 C9 1_555 1_555
C11 H6 1_555 1_555
C12 C11 1_555 1_555
H7 C12 1_555 1_555
C13 C12 1_555 1_555
C14 C13 1_555 1_555
H8 C14 1_555 1_555
C15 C14 1_555 1_555
H9 C15 1_555 1_555
N1 C13 1_555 1_555
Cd1 N3 1_555 1_555
N2 C1 1_555 1_555
H10 N2 1_555 1_555
N3 C11 1_555 1_555
O1 C8 1_555 1_555
O2 C8 1_555 1_555
O3 C10 1_555 1_555
O4 Cd1 1_555 1_555
O5 H17 1_555 1_555
O6 H14 1_555 1_555
O7 H12 1_555 1_555
O8 H16 1_555 1_555
H11 O4 1_555 1_555
H13 O7 1_555 1_555
H15 O4 1_555 1_555
H18 O6 1_555 1_555
H19 O8 1_555 1_555
C1B C2B 1_555 1_555
C2B H1B 1_555 1_555
C3B C2B 1_555 1_555
H2B C3B 1_555 1_555
C4B C3B 1_555 1_555
H3B C4B 1_555 1_555
C5B C4B 1_555 1_555
H4B C5B 1_555 1_555
C6B C1B 1_555 1_555
C7B C7 1_555 1_555
C8B C7B 1_555 1_555
C9B C9 1_555 1_555
H5B C9B 1_555 1_555
C10B C9B 1_555 1_555
C11D H6D 1_555 1_555
C12D C11D 1_555 1_555
H7D C12D 1_555 1_555
C13D C12D 1_555 1_555
C14D C13D 1_555 1_555
H8D C14D 1_555 1_555
C15D C14D 1_555 1_555
H9D C15D 1_555 1_555
N1D N1 1_555 1_555
Cd1_2 O1B 1_555 1_555
Cd1D N3D 1_555 1_555
N2B C1B 1_555 1_555
H10B N2B 1_555 1_555
N3D C11D 1_555 1_555
N3B Cd1 1_555 1_555
O1B C8B 1_555 1_555
O1B_2 Cd1 1_555 1_555
O2B C8B 1_555 1_555
O3B C10B 1_555 1_555
O4B Cd1 1_555 1_555
H11B O4B 1_555 1_555
H15B O4B 1_555 1_555
H17B O5 1_555 1_555
C5 C6 1_555 1_555
C10 N2 1_555 1_555
C15 N3 1_555 1_555
Cd1 O1 1_555 1_555
C5B C6B 1_555 1_555
C6B C7B 1_555 1_555
C7B C9B 1_555 1_555
C10B N2B 1_555 1_555
C13D N1D 1_555 1_555
C15D N3D 1_555 1_555

#END
