
#######################################################################
#
#                 Cambridge Crystallographic Data Centre
#                                CCDC 
#
#######################################################################
#
# If this CIF has been generated from an entry in the Cambridge 
# Structural Database, then it will include bibliographic, chemical, 
# crystal, experimental, refinement or atomic coordinate data resulting 
# from the CCDC's data processing and validation procedures.
#
#######################################################################

data_REHPEB01
_symmetry_cell_setting           triclinic
_symmetry_space_group_name_H-M   'P 1'
_symmetry_Int_Tables_number      1
_space_group_name_Hall           'P 1'
loop_
_symmetry_equiv_pos_site_id
_symmetry_equiv_pos_as_xyz
1 x,y,z
_cell_length_a                   8.4093(5)
_cell_length_b                   9.7602(6)
_cell_length_c                   9.9181(6)
_cell_angle_alpha                109.020(3)
_cell_angle_beta                 105.052(4)
_cell_angle_gamma                107.484(4)
_cell_volume                     673.853
loop_
_atom_site_label
_atom_site_type_symbol
_atom_site_fract_x
_atom_site_fract_y
_atom_site_fract_z
Zn1 Zn 0.87197(17) 0.28105(15) 0.25596(13)
O1 O 0.0475(7) 0.3950(6) -0.0667(5)
N1 N 0.8648(8) 0.4646(7) 0.4474(6)
N2 N 0.0616(7) 0.2071(7) -0.2638(6)
O2 O 1.0244(7) 0.4726(6) 0.2161(5)
H1 H 1.121(4) 0.475(5) 0.269(4)
H2 H 1.030(6) 0.423(4) 0.133(3)
O3 O 0.7196(7) 0.0901(7) 0.2956(5)
H3 H 0.687(6) 0.086(5) 0.366(4)
H4 H 0.622(3) 0.042(4) 0.219(3)
O4 O 1.1134(8) 0.2983(6) 0.4096(6)
C1 C 0.8714(8) 0.7148(6) 0.6891(6)
C2 C 0.2683(10) 0.2939(10) -0.0076(8)
H5 H 0.3252 0.3643 0.0975
C3 C 1.6246(9) 0.4651(8) 0.8409(8)
C4 C 1.4878(8) 0.4806(8) 0.7307(7)
C5 C 0.2570(9) 0.0716(9) -0.2321(7)
C6 C 0.1242(9) 0.0949(9) -0.3247(7)
C7 C 1.6261(8) 0.2627(8) 0.6260(8)
C8 C 0.8767(9) 0.8478(8) 0.8182(8)
C9 C 1.5022(13) 0.6958(11) 0.9554(10)
H6 H 1.4664 0.7760 0.9959
C10 C 1.2742(9) 0.4040(9) 0.4607(6)
N3 N 0.8837(9) 1.1022(8) 1.0697(7)
C11 C 0.4712(7) 0.1621(6) 0.0493(6)
C12 C 0.3232(10) 0.1795(9) -0.0648(8)
C13 C 0.9711(9) 0.6286(8) 0.7202(6)
H7 H 1.0437 0.6540 0.8211
C14 C 1.6302(13) 0.6723(11) 1.0562(9)
H8 H 1.6771 0.7338 1.1631
C15 C 0.7650(10) 0.6696(8) 0.5396(7)
H9 H 0.6920 0.7212 0.5179
C16 C 0.9555(9) 0.4995(8) 0.5888(7)
H10 H 1.0148 0.4369 0.6072
C17 C 0.7831(9) 1.0546(8) 0.9122(7)
H11 H 0.7125 1.1073 0.8878
C18 C 1.4278(11) 0.6028(10) 0.7973(9)
C19 C 1.4823(10) 0.2751(9) 0.5213(7)
H12 H 1.4355 0.2080 0.4157
C20 C 1.6870(11) 0.5521(9) 0.9916(8)
H13 H 1.7708 0.5345 1.0580
C21 C 0.2411(13) -0.1339(10) -0.4516(10)
H14 H 0.2830 -0.2086 -0.4941
C22 C 0.0431(10) -0.0048(9) -0.4935(7)
H15 H -0.0480 0.0062 -0.5598
C23 C 0.7644(10) 0.5469(8) 0.4188(8)
H16 H 0.6946 0.5203 0.3167
C24 C 1.4125(9) 0.3815(7) 0.5714(7)
C25 C 0.3107(10) -0.0429(9) -0.2934(8)
H17 H 0.3955 -0.0605 -0.2280
C26 C 0.1068(12) -0.1117(9) -0.5468(7)
H18 H 0.0589 -0.1750 -0.6534
C27 C 0.9698(10) 1.0160(9) 1.0918(7)
H19 H 1.0348 1.0401 1.1942
N4 N 1.6899(8) 0.3534(8) 0.7785(6)
O5 O 0.4185(7) 0.0504(8) 0.0843(7)
O6 O 1.3247(8) 0.5217(6) 0.4363(7)
O7 O 0.6316(7) 0.2630(6) 0.1007(6)
C28 C 0.1207(9) 0.3084(8) -0.1088(6)
O8 O 1.6953(8) 0.1669(7) 0.5766(6)
C29 C 0.7835(11) 0.9412(9) 0.7992(8)
H20 H 0.7169 0.9205 0.6983
C30 C 0.9739(9) 0.8923(8) 0.9777(7)
H21 H 1.0403 0.8376 1.0049
Zn1_2 Zn 0.87197(17) 1.28105(15) 1.25596(13)
N3_2 N 0.8837(9) 0.1022(8) 0.0697(7)
loop_
_geom_bond_atom_site_label_1
_geom_bond_atom_site_label_2
_geom_bond_site_symmetry_1
_geom_bond_site_symmetry_2
Zn1 N1 1_555 1_555
O1 C28 1_555 1_555
N1 C16 1_555 1_555
N2 C6 1_555 1_555
O2 Zn1 1_555 1_555
H1 O2 1_555 1_555
H2 O2 1_555 1_555
O3 Zn1 1_555 1_555
H3 O3 1_555 1_555
H4 O3 1_555 1_555
O4 Zn1 1_555 1_555
C1 C8 1_555 1_555
C2 H5 1_555 1_555
C3 C4 1_555 1_555
C4 C18 1_555 1_555
C5 C6 1_555 1_555
C6 C22 1_555 1_555
C7 C19 1_555 1_555
C8 C29 1_555 1_555
C9 H6 1_555 1_555
C10 O4 1_555 1_555
N3 C17 1_555 1_555
C11 C12 1_555 1_555
C12 C2 1_555 1_555
C13 C1 1_555 1_555
H7 C13 1_555 1_555
C14 C9 1_555 1_555
H8 C14 1_555 1_555
C15 C1 1_555 1_555
H9 C15 1_555 1_555
C16 C13 1_555 1_555
H10 C16 1_555 1_555
C17 H11 1_555 1_555
C18 C9 1_555 1_555
C19 H12 1_555 1_555
C20 C3 1_555 1_555
H13 C20 1_555 1_555
C21 H14 1_555 1_555
C22 H15 1_555 1_555
C23 N1 1_555 1_555
H16 C23 1_555 1_555
C24 C4 1_555 1_555
C25 C5 1_555 1_555
H17 C25 1_555 1_555
C26 C21 1_555 1_555
H18 C26 1_555 1_555
C27 N3 1_555 1_555
H19 C27 1_555 1_555
N4 C3 1_555 1_555
O5 C11 1_555 1_555
O6 C10 1_555 1_555
O7 Zn1 1_555 1_555
C28 N2 1_555 1_555
O8 C7 1_555 1_555
C29 C17 1_555 1_555
H20 C29 1_555 1_555
C30 C8 1_555 1_555
H21 C30 1_555 1_555
Zn1_2 N3 1_555 1_555
N3_2 Zn1 1_555 1_555
C2 C28 1_555 1_555
C5 C12 1_555 1_555
C7 N4 1_555 1_555
C10 C24 1_555 1_555
C11 O7 1_555 1_555
C14 C20 1_555 1_555
C15 C23 1_555 1_555
C19 C24 1_555 1_555
C21 C25 1_555 1_555
C22 C26 1_555 1_555
C27 C30 1_555 1_555

#END
