
#######################################################################
#
#                 Cambridge Crystallographic Data Centre
#                                CCDC 
#
#######################################################################
#
# If this CIF has been generated from an entry in the Cambridge 
# Structural Database, then it will include bibliographic, chemical, 
# crystal, experimental, refinement or atomic coordinate data resulting 
# from the CCDC's data processing and validation procedures.
#
#######################################################################

data_REHQEC
_symmetry_cell_setting           triclinic
_symmetry_space_group_name_H-M   'P -1'
_symmetry_Int_Tables_number      2
_space_group_name_Hall           '-P 1'
loop_
_symmetry_equiv_pos_site_id
_symmetry_equiv_pos_as_xyz
1 x,y,z
2 -x,-y,-z
_cell_length_a                   8.4711(14)
_cell_length_b                   9.7326(15)
_cell_length_c                   9.8148(16)
_cell_angle_alpha                107.072(2)
_cell_angle_beta                 104.858(2)
_cell_angle_gamma                107.854(2)
_cell_volume                     680.827
loop_
_atom_site_label
_atom_site_type_symbol
_atom_site_fract_x
_atom_site_fract_y
_atom_site_fract_z
C1 C 0.8247(3) 0.7790(3) 0.7416(3)
H1 H 0.9138 0.7661 0.8080
C2 C 0.7633(3) 0.8899(3) 0.7977(3)
H2 H 0.8107 0.9514 0.9030
C3 C 0.6316(3) 0.9119(3) 0.7000(3)
H3 H 0.5922 0.9884 0.7397
C4 C 0.5596(3) 0.8201(3) 0.5444(3)
H4 H 0.4717 0.8353 0.4791
C5 C 0.6171(3) 0.7039(2) 0.4827(2)
C6 C 0.5451(3) 0.6017(2) 0.3213(2)
C7 C 0.6069(3) 0.4922(3) 0.2704(2)
H5 H 0.5545 0.4238 0.1667
C8 C 0.7518(3) 0.4786(2) 0.3721(2)
C9 C 0.7516(3) 0.6856(2) 0.5832(2)
C10 C 0.4030(3) 0.6218(2) 0.2084(2)
C11 C 0.1091(3) 0.2326(3) -0.1686(2)
H6 H 0.1811 0.2600 -0.0673
C12 C 0.1091(3) 0.1110(3) -0.2834(3)
H7 H 0.1804 0.0589 -0.2587
C13 C 0.0028(3) 0.0655(2) -0.4364(2)
C14 C -0.0977(3) 0.1511(2) -0.4630(2)
H8 H -0.1709 0.1265 -0.5631
C15 C -0.0887(3) 0.2722(2) -0.3414(2)
H9 H -0.1562 0.3282 -0.3628
Mn1 Mn 0.0000 0.5000 0.0000
N1 N 0.8136(2) 0.5751(2) 0.52355(19)
H10 H 0.9044 0.5769 0.5789
N2 N 0.0113(2) 0.3138(2) -0.1945(2)
O1 O 0.8229(2) 0.38777(19) 0.32859(17)
O2 O 0.4527(2) 0.7390(2) 0.1794(3)
O3 O 0.24572(19) 0.51840(17) 0.15632(17)
O4 O 0.1609(2) 0.69734(17) -0.04463(17)
H11 H 0.2582 0.7255 0.0295
H12 H 0.1698 0.6734 -0.1324
C1A C -0.8247(3) 0.2210(3) -0.7416(3)
H1A H -0.9138 0.2339 -0.8080
C2A C -0.7633(3) 0.1101(3) -0.7977(3)
H2A H -0.8107 0.0486 -0.9030
C3A C -0.6316(3) 0.0881(3) -0.7000(3)
H3A H -0.5922 0.0116 -0.7397
C4A C -0.5596(3) 0.1799(3) -0.5444(3)
H4A H -0.4717 0.1647 -0.4791
C5A C -0.6171(3) 0.2961(2) -0.4827(2)
C6A C -0.5451(3) 0.3983(2) -0.3213(2)
C7A C -0.6069(3) 0.5078(3) -0.2704(2)
H5A H -0.5545 0.5762 -0.1667
C8A C -0.7518(3) 0.5214(2) -0.3721(2)
C9A C -0.7516(3) 0.3144(2) -0.5832(2)
C10A C -0.4030(3) 0.3782(2) -0.2084(2)
C11A C -0.1091(3) -0.2326(3) -0.8314(2)
H6A H -0.1811 -0.2600 -0.9327
C12A C -0.1091(3) -0.1110(3) -0.7166(3)
H7A H -0.1804 -0.0589 -0.7413
C13A C -0.0028(3) -0.0655(2) -0.5636(2)
C14A C 0.0977(3) -0.1511(2) -0.5370(2)
H8A H 0.1709 -0.1265 -0.4369
C15A C 0.0887(3) -0.2722(2) -0.6586(2)
H9A H 0.1562 -0.3282 -0.6372
Mn1_2 Mn 0.0000 -0.5000 -1.0000
N1A N -0.8136(2) 0.4249(2) -0.52355(19)
H10A H -0.9044 0.4231 -0.5789
N2A N -0.0113(2) -0.3138(2) -0.8055(2)
N2A_2 N -0.0113(2) 0.6862(2) 0.1945(2)
O1A O -0.8229(2) 0.61223(19) -0.32859(17)
O2A O -0.4527(2) 0.2610(2) -0.1794(3)
O3A O -0.24572(19) 0.48160(17) -0.15632(17)
O4A O -0.1609(2) 0.30266(17) 0.04463(17)
H11A H -0.2582 0.2745 -0.0295
H12A H -0.1698 0.3266 0.1324
loop_
_geom_bond_atom_site_label_1
_geom_bond_atom_site_label_2
_geom_bond_site_symmetry_1
_geom_bond_site_symmetry_2
C1 H1 1_555 1_555
C2 C1 1_555 1_555
H2 C2 1_555 1_555
C3 C2 1_555 1_555
H3 C3 1_555 1_555
C4 C3 1_555 1_555
H4 C4 1_555 1_555
C5 C4 1_555 1_555
C6 C5 1_555 1_555
C7 C6 1_555 1_555
H5 C7 1_555 1_555
C8 C7 1_555 1_555
C9 C1 1_555 1_555
C10 C6 1_555 1_555
C11 H6 1_555 1_555
C12 C11 1_555 1_555
H7 C12 1_555 1_555
C13 C12 1_555 1_555
C14 C13 1_555 1_555
H8 C14 1_555 1_555
C15 C14 1_555 1_555
H9 C15 1_555 1_555
Mn1 N2 1_555 1_555
N1 C8 1_555 1_555
H10 N1 1_555 1_555
N2 C11 1_555 1_555
O1 C8 1_555 1_555
O2 C10 1_555 1_555
O3 C10 1_555 1_555
O4 Mn1 1_555 1_555
H11 O4 1_555 1_555
H12 O4 1_555 1_555
C1A H1A 1_555 1_555
C2A C1A 1_555 1_555
H2A C2A 1_555 1_555
C3A C2A 1_555 1_555
H3A C3A 1_555 1_555
C4A C3A 1_555 1_555
H4A C4A 1_555 1_555
C5A C4A 1_555 1_555
C6A C5A 1_555 1_555
C7A C6A 1_555 1_555
H5A C7A 1_555 1_555
C8A C7A 1_555 1_555
C9A C1A 1_555 1_555
C10A C6A 1_555 1_555
C11A H6A 1_555 1_555
C12A C11A 1_555 1_555
H7A C12A 1_555 1_555
C13A C13 1_555 1_555
C14A C13A 1_555 1_555
H8A C14A 1_555 1_555
C15A C14A 1_555 1_555
H9A C15A 1_555 1_555
Mn1_2 N2A 1_555 1_555
N1A C8A 1_555 1_555
H10A N1A 1_555 1_555
N2A C11A 1_555 1_555
N2A_2 Mn1 1_555 1_555
O1A C8A 1_555 1_555
O2A C10A 1_555 1_555
O3A Mn1 1_555 1_555
O4A Mn1 1_555 1_555
H11A O4A 1_555 1_555
H12A O4A 1_555 1_555
C5 C9 1_555 1_555
C9 N1 1_555 1_555
C15 N2 1_555 1_555
Mn1 O3 1_555 1_555
C5A C9A 1_555 1_555
C9A N1A 1_555 1_555
C10A O3A 1_555 1_555
C12A C13A 1_555 1_555
C15A N2A 1_555 1_555

#END
