
#######################################################################
#
#                 Cambridge Crystallographic Data Centre
#                                CCDC 
#
#######################################################################
#
# If this CIF has been generated from an entry in the Cambridge 
# Structural Database, then it will include bibliographic, chemical, 
# crystal, experimental, refinement or atomic coordinate data resulting 
# from the CCDC's data processing and validation procedures.
#
#######################################################################

data_REHQAY
_symmetry_cell_setting           triclinic
_symmetry_space_group_name_H-M   'P -1'
_symmetry_Int_Tables_number      2
_space_group_name_Hall           '-P 1'
loop_
_symmetry_equiv_pos_site_id
_symmetry_equiv_pos_as_xyz
1 x,y,z
2 -x,-y,-z
_cell_length_a                   8.3646(15)
_cell_length_b                   9.7689(18)
_cell_length_c                   9.8696(18)
_cell_angle_alpha                108.832(2)
_cell_angle_beta                 104.851(2)
_cell_angle_gamma                107.612(2)
_cell_volume                     669.178
loop_
_atom_site_label
_atom_site_type_symbol
_atom_site_fract_x
_atom_site_fract_y
_atom_site_fract_z
C1 C 0.7516(3) -0.0213(3) 0.3673(2)
C2 C 0.6068(3) -0.0072(3) 0.2651(3)
H1 H 0.5546 -0.0756 0.1595
C3 C 0.5450(3) 0.1032(3) 0.3192(2)
C4 C 0.4014(3) 0.1232(3) 0.2070(2)
C5 C 0.6164(3) 0.2055(2) 0.4831(2)
C6 C 0.7498(3) 0.1857(2) 0.5837(2)
C7 C 0.8220(3) 0.2783(3) 0.7446(3)
H2 H 0.9100 0.2638 0.8108
C8 C 0.7612(4) 0.3908(3) 0.8035(3)
H3 H 0.8080 0.4522 0.9105
C9 C 0.6305(3) 0.4145(3) 0.7055(3)
H4 H 0.5913 0.4917 0.7470
C10 C 0.5601(3) 0.3240(3) 0.5483(3)
H5 H 0.4736 0.3410 0.4833
H6 H -0.1637 -0.1641 0.1278
H7 H -0.2571 -0.2134 -0.0227
C11 C 0.1016(3) -0.2662(3) -0.1638(3)
H8 H 0.1697 -0.2404 -0.0613
C12 C 0.1033(3) -0.3892(3) -0.2804(3)
H9 H 0.1725 -0.4428 -0.2554
C13 C 0.0018(3) -0.4336(2) -0.4355(2)
C14 C -0.0948(3) -0.3448(3) -0.4620(2)
H10 H -0.1645 -0.3683 -0.5633
C15 C -0.0875(3) -0.2225(3) -0.3388(2)
H11 H -0.1525 -0.1646 -0.3605
Co1 Co 0.0000 0.0000 0.0000
N1 N 0.8123(2) 0.0739(2) 0.5212(2)
H12 H 0.8956 0.0644 0.5846
N2 N 0.0078(2) -0.1818(2) -0.1896(2)
O1 O 0.8235(2) -0.1132(2) 0.32168(18)
O2 O 0.4536(2) 0.2403(2) 0.1795(3)
O3 O 0.24126(19) 0.01919(17) 0.15312(17)
O4 O -0.1507(2) -0.18780(18) 0.04102(17)
C1A C -0.7516(3) 0.0213(3) -0.3673(2)
C2A C -0.6068(3) 0.0072(3) -0.2651(3)
H1A H -0.5546 0.0756 -0.1595
C3A C -0.5450(3) -0.1032(3) -0.3192(2)
C4A C -0.4014(3) -0.1232(3) -0.2070(2)
C5A C -0.6164(3) -0.2055(2) -0.4831(2)
C6A C -0.7498(3) -0.1857(2) -0.5837(2)
C7A C -0.8220(3) -0.2783(3) -0.7446(3)
H2A H -0.9100 -0.2638 -0.8108
C8A C -0.7612(4) -0.3908(3) -0.8035(3)
H3A H -0.8080 -0.4522 -0.9105
C9A C -0.6305(3) -0.4145(3) -0.7055(3)
H4A H -0.5913 -0.4917 -0.7470
C10A C -0.5601(3) -0.3240(3) -0.5483(3)
H5A H -0.4736 -0.3410 -0.4833
H6A H 0.1637 0.1641 -0.1278
H7A H 0.2571 0.2134 0.0227
C11A C -0.1016(3) -0.7338(3) -0.8362(3)
H8A H -0.1697 -0.7596 -0.9387
C12A C -0.1033(3) -0.6108(3) -0.7196(3)
H9A H -0.1725 -0.5572 -0.7446
C13A C -0.0018(3) -0.5664(2) -0.5645(2)
C14A C 0.0948(3) -0.6552(3) -0.5380(2)
H10A H 0.1645 -0.6317 -0.4367
C15A C 0.0875(3) -0.7775(3) -0.6612(2)
H11A H 0.1525 -0.8354 -0.6395
Co1_2 Co 0.0000 -1.0000 -1.0000
N1A N -0.8123(2) -0.0739(2) -0.5212(2)
H12A H -0.8956 -0.0644 -0.5846
N2A N -0.0078(2) -0.8182(2) -0.8104(2)
N2A_2 N -0.0078(2) 0.1818(2) 0.1896(2)
O1A O -0.8235(2) 0.1132(2) -0.32168(18)
O2A O -0.4536(2) -0.2403(2) -0.1795(3)
O3A O -0.24126(19) -0.01919(17) -0.15312(17)
O4A O 0.1507(2) 0.18780(18) -0.04102(17)
loop_
_geom_bond_atom_site_label_1
_geom_bond_atom_site_label_2
_geom_bond_site_symmetry_1
_geom_bond_site_symmetry_2
C1 C2 1_555 1_555
C2 H1 1_555 1_555
C3 C2 1_555 1_555
C4 C3 1_555 1_555
C5 C3 1_555 1_555
C6 C5 1_555 1_555
C7 C6 1_555 1_555
H2 C7 1_555 1_555
C8 C7 1_555 1_555
H3 C8 1_555 1_555
C9 C8 1_555 1_555
H4 C9 1_555 1_555
C10 C5 1_555 1_555
H5 C10 1_555 1_555
H6 O4 1_555 1_555
H7 O4 1_555 1_555
C11 H8 1_555 1_555
C12 C11 1_555 1_555
H9 C12 1_555 1_555
C13 C12 1_555 1_555
C14 C13 1_555 1_555
H10 C14 1_555 1_555
C15 C14 1_555 1_555
H11 C15 1_555 1_555
Co1 N2 1_555 1_555
N1 C1 1_555 1_555
H12 N1 1_555 1_555
N2 C11 1_555 1_555
O1 C1 1_555 1_555
O2 C4 1_555 1_555
O3 C4 1_555 1_555
O4 Co1 1_555 1_555
C1A C2A 1_555 1_555
C2A H1A 1_555 1_555
C3A C2A 1_555 1_555
C4A C3A 1_555 1_555
C5A C3A 1_555 1_555
C6A C5A 1_555 1_555
C7A C6A 1_555 1_555
H2A C7A 1_555 1_555
C8A C7A 1_555 1_555
H3A C8A 1_555 1_555
C9A C8A 1_555 1_555
H4A C9A 1_555 1_555
C10A C5A 1_555 1_555
H5A C10A 1_555 1_555
H6A O4A 1_555 1_555
H7A O4A 1_555 1_555
C11A H8A 1_555 1_555
C12A C11A 1_555 1_555
H9A C12A 1_555 1_555
C13A C13 1_555 1_555
C14A C13A 1_555 1_555
H10A C14A 1_555 1_555
C15A C14A 1_555 1_555
H11A C15A 1_555 1_555
Co1_2 N2A 1_555 1_555
N1A C1A 1_555 1_555
H12A N1A 1_555 1_555
N2A C11A 1_555 1_555
N2A_2 Co1 1_555 1_555
O1A C1A 1_555 1_555
O2A C4A 1_555 1_555
O3A Co1 1_555 1_555
O4A Co1 1_555 1_555
C6 N1 1_555 1_555
C9 C10 1_555 1_555
C15 N2 1_555 1_555
Co1 O3 1_555 1_555
C4A O3A 1_555 1_555
C6A N1A 1_555 1_555
C9A C10A 1_555 1_555
C12A C13A 1_555 1_555
C15A N2A 1_555 1_555

#END
