
#######################################################################
#
#                 Cambridge Crystallographic Data Centre
#                                CCDC 
#
#######################################################################
#
# If this CIF has been generated from an entry in the Cambridge 
# Structural Database, then it will include bibliographic, chemical, 
# crystal, experimental, refinement or atomic coordinate data resulting 
# from the CCDC's data processing and validation procedures.
#
#######################################################################

data_REHQOM
_symmetry_cell_setting           triclinic
_symmetry_space_group_name_H-M   'P -1'
_symmetry_Int_Tables_number      2
_space_group_name_Hall           '-P 1'
loop_
_symmetry_equiv_pos_site_id
_symmetry_equiv_pos_as_xyz
1 x,y,z
2 -x,-y,-z
_cell_length_a                   9.160(3)
_cell_length_b                   13.013(4)
_cell_length_c                   13.708(4)
_cell_angle_alpha                109.512(4)
_cell_angle_beta                 103.074(4)
_cell_angle_gamma                91.406(4)
_cell_volume                     1491.28
loop_
_atom_site_label
_atom_site_type_symbol
_atom_site_fract_x
_atom_site_fract_y
_atom_site_fract_z
C1 C 0.4306(5) 0.3565(3) 0.2592(3)
C2 C 0.3928(6) 0.4323(3) 0.2093(4)
H1 H 0.3897 0.5050 0.2502
C3 C 0.3600(6) 0.4011(4) 0.0998(4)
H2 H 0.3343 0.4522 0.0667
C4 C 0.3656(5) 0.2933(3) 0.0395(3)
H3 H 0.3440 0.2717 -0.0346
C5 C 0.4028(4) 0.2179(3) 0.0882(3)
H4 H 0.4078 0.1458 0.0464
C6 C 0.4332(4) 0.2463(3) 0.1988(3)
C7 C 0.4739(4) 0.1633(3) 0.2542(3)
C8 C 0.4595(4) 0.2089(3) 0.3707(3)
H5 H 0.5195 0.1703 0.4133
C9 C 0.4834(5) 0.3307(3) 0.4313(3)
C10 C 0.2935(4) 0.1578(3) 0.3308(3)
H6 H 0.2298 0.2091 0.3080
C11 C 0.2266(5) 0.1177(3) 0.4027(3)
C12 C 0.3330(4) -0.0542(3) 0.3349(3)
C13 C 0.3659(5) -0.1510(4) 0.3534(4)
H7 H 0.3356 -0.1661 0.4080
C14 C 0.4414(6) -0.2232(4) 0.2927(4)
H8 H 0.4648 -0.2871 0.3063
C15 C 0.4837(5) -0.2018(3) 0.2106(4)
H9 H 0.5339 -0.2521 0.1678
C16 C 0.4519(4) -0.1058(3) 0.1913(3)
H10 H 0.4810 -0.0923 0.1355
C17 C 0.3771(4) -0.0293(3) 0.2541(3)
C18 C 0.3336(4) 0.0746(3) 0.2325(3)
C19 C 0.2130(4) 0.0478(3) 0.1261(3)
C20 C 0.6268(4) 0.1262(3) 0.2390(3)
C21 C 0.7741(5) 0.2678(3) 0.0804(4)
H11 H 0.7132 0.2177 0.0178
C22 C 0.7687(6) 0.3776(4) 0.0975(4)
H12 H 0.7064 0.4002 0.0466
C23 C 0.8549(6) 0.4537(4) 0.1892(5)
C24 C 0.9459(7) 0.4141(4) 0.2617(5)
H13 H 1.0073 0.4624 0.3251
C25 C 0.9440(6) 0.3028(3) 0.2385(4)
H14 H 1.0036 0.2776 0.2884
C26 C 0.8470(7) 0.5752(4) 0.2109(6)
H15 H 0.7782 0.5843 0.1500
H16 H 0.8049 0.6051 0.2722
C27 C 0.9949(5) 0.6403(4) 0.2320(4)
H17 H 1.0552 0.5976 0.1866
H18 H 1.0496 0.6572 0.3058
C28 C 0.9694(5) 0.7453(3) 0.2100(4)
C29 C 1.0084(5) 0.7624(3) 0.1258(4)
H19 H 1.0607 0.7117 0.0852
C30 C 0.9715(5) 0.8534(3) 0.1000(4)
H20 H 0.9983 0.8623 0.0416
C31 C 0.8609(5) 0.9146(3) 0.2393(3)
H21 H 0.8108 0.9673 0.2798
C32 C 0.8937(5) 0.8241(3) 0.2676(3)
H22 H 0.8646 0.8161 0.3257
N1 N 0.4641(4) 0.3940(3) 0.3710(3)
H23 H 0.4729 0.4637 0.4037
N2 N 0.2506(4) 0.0158(3) 0.3998(3)
H24 H 0.2129 -0.0088 0.4407
N3 N 0.8616(3) 0.2296(2) 0.1485(3)
N4 N 0.8980(3) 0.9297(2) 0.1564(3)
O1 O 0.7362(3) 0.1606(2) 0.3186(2)
O2 O 0.6343(3) 0.0691(2) 0.1465(2)
O3 O 0.2480(3) -0.01509(19) 0.04437(19)
O4 O 0.0923(3) 0.0888(2) 0.1281(2)
O5 O 0.5123(4) 0.3684(2) 0.5289(2)
O6 O 0.1552(4) 0.1758(3) 0.4622(3)
Zn1 Zn 0.84178(5) 0.06205(3) 0.11214(3)
C1A C 0.5694(5) -0.3565(3) -0.2592(3)
C2A C 0.6072(6) -0.4323(3) -0.2093(4)
H1A H 0.6103 -0.5050 -0.2502
C3A C 0.6400(6) -0.4011(4) -0.0998(4)
H2A H 0.6657 -0.4522 -0.0667
C4A C 0.6344(5) -0.2933(3) -0.0395(3)
H3A H 0.6560 -0.2717 0.0346
C5A C 0.5972(4) -0.2179(3) -0.0882(3)
H4A H 0.5922 -0.1458 -0.0464
C6A C 0.5668(4) -0.2463(3) -0.1988(3)
C7A C 0.5261(4) -0.1633(3) -0.2542(3)
C8A C 0.5405(4) -0.2089(3) -0.3707(3)
H5A H 0.4805 -0.1703 -0.4133
C9A C 0.5166(5) -0.3307(3) -0.4313(3)
C10A C 0.7065(4) -0.1578(3) -0.3308(3)
H6A H 0.7702 -0.2091 -0.3080
C11A C 0.7734(5) -0.1177(3) -0.4027(3)
C12A C 0.6670(4) 0.0542(3) -0.3349(3)
C13A C 0.6341(5) 0.1510(4) -0.3534(4)
H7A H 0.6644 0.1661 -0.4080
C14A C 0.5586(6) 0.2232(4) -0.2927(4)
H8A H 0.5352 0.2871 -0.3063
C15A C 0.5163(5) 0.2018(3) -0.2106(4)
H9A H 0.4661 0.2521 -0.1678
C16A C 0.5481(4) 0.1058(3) -0.1913(3)
H10A H 0.5190 0.0923 -0.1355
C17A C 0.6229(4) 0.0293(3) -0.2541(3)
C18A C 0.6664(4) -0.0746(3) -0.2325(3)
C19A C 0.7870(4) -0.0478(3) -0.1261(3)
C20A C 0.3732(4) -0.1262(3) -0.2390(3)
C21A C 0.2259(5) -0.2678(3) -0.0804(4)
H11A H 0.2868 -0.2177 -0.0178
C22A C 0.2313(6) -0.3776(4) -0.0975(4)
H12A H 0.2936 -0.4002 -0.0466
C23A C 0.1451(6) -0.4537(4) -0.1892(5)
C24A C 0.0541(7) -0.4141(4) -0.2617(5)
H13A H -0.0073 -0.4624 -0.3251
C25A C 0.0560(6) -0.3028(3) -0.2385(4)
H14A H -0.0036 -0.2776 -0.2884
C26A C 0.1530(7) -0.5752(4) -0.2109(6)
H15A H 0.2218 -0.5843 -0.1500
H16A H 0.1951 -0.6051 -0.2722
C27A C 0.0051(5) -0.6403(4) -0.2320(4)
H17A H -0.0552 -0.5976 -0.1866
H18A H -0.0496 -0.6572 -0.3058
C28A C 0.0306(5) -0.7453(3) -0.2100(4)
C29A C -0.0084(5) -0.7624(3) -0.1258(4)
H19A H -0.0607 -0.7117 -0.0852
C30A C 0.0285(5) -0.8534(3) -0.1000(4)
H20A H 0.0017 -0.8623 -0.0416
C31A C 0.1391(5) -0.9146(3) -0.2393(3)
H21A H 0.1892 -0.9673 -0.2798
C32A C 0.1063(5) -0.8241(3) -0.2676(3)
H22A H 0.1354 -0.8161 -0.3257
N1A N 0.5359(4) -0.3940(3) -0.3710(3)
H23A H 0.5271 -0.4637 -0.4037
N2A N 0.7494(4) -0.0158(3) -0.3998(3)
H24A H 0.7871 0.0088 -0.4407
N3A N 0.1384(3) -0.2296(2) -0.1485(3)
N4A N 0.1020(3) -0.9297(2) -0.1564(3)
N4_2 N 0.8980(3) -0.0703(2) 0.1564(3)
N4A_2 N 0.1020(3) 0.0703(2) -0.1564(3)
O1A O 0.2638(3) -0.1606(2) -0.3186(2)
O2A O 0.3657(3) -0.0691(2) -0.1465(2)
O3A O 0.7520(3) 0.01509(19) -0.04437(19)
O4A O 0.9077(3) -0.0888(2) -0.1281(2)
O4_2 O 1.0923(3) 0.0888(2) 0.1281(2)
O4A_2 O -0.0923(3) -0.0888(2) -0.1281(2)
O5A O 0.4877(4) -0.3684(2) -0.5289(2)
O6A O 0.8448(4) -0.1758(3) -0.4622(3)
Zn1A Zn 0.15822(5) -0.06205(3) -0.11214(3)
Zn1_2 Zn -0.15822(5) 0.06205(3) 0.11214(3)
Zn1_3 Zn 0.84178(5) 1.06205(3) 0.11214(3)
Zn1A_2 Zn 0.15822(5) -1.06205(3) -0.11214(3)
Zn1A_3 Zn 1.15822(5) -0.06205(3) -0.11214(3)
O7 O 0.1370(8) 0.6246(5) 0.5110(6)
H25 H 0.0418 0.6249 0.4978
H26 H 0.1853 0.5686 0.4986
O8 O 0.8757(4) 0.0971(3) 0.4860(3)
H27 H 0.8225 0.1183 0.4384
H28 H 0.9689 0.1041 0.4878
O9 O 0.1691(9) 0.4168(6) 0.5234(8)
H29 H 0.2274 0.4192 0.5822
H30 H 0.0845 0.3785 0.5055
loop_
_geom_bond_atom_site_label_1
_geom_bond_atom_site_label_2
_geom_bond_site_symmetry_1
_geom_bond_site_symmetry_2
C1 C2 1_555 1_555
C2 H1 1_555 1_555
C3 C2 1_555 1_555
H2 C3 1_555 1_555
C4 C3 1_555 1_555
H3 C4 1_555 1_555
C5 C4 1_555 1_555
H4 C5 1_555 1_555
C6 C1 1_555 1_555
C7 C6 1_555 1_555
C8 C7 1_555 1_555
H5 C8 1_555 1_555
C9 C8 1_555 1_555
C10 C8 1_555 1_555
H6 C10 1_555 1_555
C11 C10 1_555 1_555
C12 C13 1_555 1_555
C13 H7 1_555 1_555
C14 C13 1_555 1_555
H8 C14 1_555 1_555
C15 C14 1_555 1_555
H9 C15 1_555 1_555
C16 C15 1_555 1_555
H10 C16 1_555 1_555
C17 C12 1_555 1_555
C18 C7 1_555 1_555
C19 C18 1_555 1_555
C20 C7 1_555 1_555
C21 H11 1_555 1_555
C22 C21 1_555 1_555
H12 C22 1_555 1_555
C23 C22 1_555 1_555
C24 C23 1_555 1_555
H13 C24 1_555 1_555
C25 C24 1_555 1_555
H14 C25 1_555 1_555
C26 C23 1_555 1_555
H15 C26 1_555 1_555
H16 C26 1_555 1_555
C27 C26 1_555 1_555
H17 C27 1_555 1_555
H18 C27 1_555 1_555
C28 C27 1_555 1_555
C29 C28 1_555 1_555
H19 C29 1_555 1_555
C30 C29 1_555 1_555
H20 C30 1_555 1_555
C31 H21 1_555 1_555
C32 C28 1_555 1_555
H22 C32 1_555 1_555
N1 C1 1_555 1_555
H23 N1 1_555 1_555
N2 C11 1_555 1_555
H24 N2 1_555 1_555
N3 C21 1_555 1_555
N4 C30 1_555 1_555
O1 C20 1_555 1_555
O2 C20 1_555 1_555
O3 C19 1_555 1_555
O4 C19 1_555 1_555
O5 C9 1_555 1_555
O6 C11 1_555 1_555
Zn1 N3 1_555 1_555
O7 H25 1_555 1_555
H26 O7 1_555 1_555
O8 H27 1_555 1_555
H28 O8 1_555 1_555
O9 H29 1_555 1_555
H30 O9 1_555 1_555
C1A C2A 1_555 1_555
C2A H1A 1_555 1_555
C3A C2A 1_555 1_555
H2A C3A 1_555 1_555
C4A C3A 1_555 1_555
H3A C4A 1_555 1_555
C5A C4A 1_555 1_555
H4A C5A 1_555 1_555
C6A C1A 1_555 1_555
C7A C6A 1_555 1_555
C8A C7A 1_555 1_555
H5A C8A 1_555 1_555
C9A C8A 1_555 1_555
C10A C8A 1_555 1_555
H6A C10A 1_555 1_555
C11A C10A 1_555 1_555
C12A C13A 1_555 1_555
C13A H7A 1_555 1_555
C14A C13A 1_555 1_555
H8A C14A 1_555 1_555
C15A C14A 1_555 1_555
H9A C15A 1_555 1_555
C16A C15A 1_555 1_555
H10A C16A 1_555 1_555
C17A C12A 1_555 1_555
C18A C7A 1_555 1_555
C19A C18A 1_555 1_555
C20A C7A 1_555 1_555
C21A H11A 1_555 1_555
C22A C21A 1_555 1_555
H12A C22A 1_555 1_555
C23A C22A 1_555 1_555
C24A C23A 1_555 1_555
H13A C24A 1_555 1_555
C25A C24A 1_555 1_555
H14A C25A 1_555 1_555
C26A C23A 1_555 1_555
H15A C26A 1_555 1_555
H16A C26A 1_555 1_555
C27A C26A 1_555 1_555
H17A C27A 1_555 1_555
H18A C27A 1_555 1_555
C28A C27A 1_555 1_555
C29A C28A 1_555 1_555
H19A C29A 1_555 1_555
C30A C29A 1_555 1_555
H20A C30A 1_555 1_555
C31A H21A 1_555 1_555
C32A C28A 1_555 1_555
H22A C32A 1_555 1_555
N1A C1A 1_555 1_555
H23A N1A 1_555 1_555
N2A C11A 1_555 1_555
H24A N2A 1_555 1_555
N3A C21A 1_555 1_555
N4A C30A 1_555 1_555
N4_2 Zn1 1_555 1_555
N4A_2 Zn1A 1_555 1_555
O1A C20A 1_555 1_555
O2A C20A 1_555 1_555
O3A Zn1 1_555 1_555
O4A C19A 1_555 1_555
O4_2 Zn1 1_555 1_555
O4A_2 Zn1A 1_555 1_555
O5A C9A 1_555 1_555
O6A C11A 1_555 1_555
Zn1A O3 1_555 1_555
Zn1_2 O4 1_555 1_555
Zn1_3 N4 1_555 1_555
Zn1A_2 N4A 1_555 1_555
Zn1A_3 O4A 1_555 1_555
C5 C6 1_555 1_555
C9 N1 1_555 1_555
C10 C18 1_555 1_555
C12 N2 1_555 1_555
C16 C17 1_555 1_555
C17 C18 1_555 1_555
C25 N3 1_555 1_555
C31 C32 1_555 1_555
C31 N4 1_555 1_555
O2 Zn1 1_555 1_555
C5A C6A 1_555 1_555
C9A N1A 1_555 1_555
C10A C18A 1_555 1_555
C12A N2A 1_555 1_555
C16A C17A 1_555 1_555
C17A C18A 1_555 1_555
C19A O3A 1_555 1_555
C25A N3A 1_555 1_555
C31A C32A 1_555 1_555
C31A N4A 1_555 1_555
N3A Zn1A 1_555 1_555
O2A Zn1A 1_555 1_555

#END
