
#######################################################################
#
#                 Cambridge Crystallographic Data Centre
#                                CCDC 
#
#######################################################################
#
# If this CIF has been generated from an entry in the Cambridge 
# Structural Database, then it will include bibliographic, chemical, 
# crystal, experimental, refinement or atomic coordinate data resulting 
# from the CCDC's data processing and validation procedures.
#
#######################################################################

data_REHQIG
_symmetry_cell_setting           triclinic
_symmetry_space_group_name_H-M   'P -1'
_symmetry_Int_Tables_number      2
_space_group_name_Hall           '-P 1'
loop_
_symmetry_equiv_pos_site_id
_symmetry_equiv_pos_as_xyz
1 x,y,z
2 -x,-y,-z
_cell_length_a                   8.5836(18)
_cell_length_b                   9.657(2)
_cell_length_c                   9.767(2)
_cell_angle_alpha                106.032(2)
_cell_angle_beta                 104.659(2)
_cell_angle_gamma                107.781(3)
_cell_volume                     688.755
loop_
_atom_site_label
_atom_site_type_symbol
_atom_site_fract_x
_atom_site_fract_y
_atom_site_fract_z
C1 C 0.5965(4) 0.8835(4) 0.7906(3)
C2 C 0.4539(3) 0.9016(3) 0.6776(3)
C3 C 0.3911(4) 1.0097(3) 0.7265(3)
H1 H 0.4430 1.0789 0.8287
C4 C 0.2458(4) 1.0213(3) 0.6252(3)
C5 C 0.2463(3) 0.8133(3) 0.4174(3)
C6 C 0.1735(4) 0.7181(4) 0.2617(3)
H2 H 0.0835 0.7294 0.1955
C7 C 0.2350(4) 0.6080(4) 0.2070(4)
H3 H 0.1865 0.5444 0.1032
C8 C 0.3704(4) 0.5899(4) 0.3056(4)
H4 H 0.4118 0.5149 0.2674
C9 C 0.4415(4) 0.6830(4) 0.4583(4)
H5 H 0.5306 0.6698 0.5236
C10 C 0.3826(3) 0.7978(3) 0.5181(3)
C11 C 1.0906(4) 1.2309(3) 1.3418(3)
H6 H 1.1603 1.1764 1.3623
C12 C 1.1001(4) 1.3516(4) 1.4626(3)
H7 H 1.1756 1.3776 1.5614
C13 C 0.9968(4) 1.4345(3) 1.4365(3)
C14 C 0.8865(4) 1.3873(4) 1.2866(3)
H8 H 0.8130 1.4379 1.2633
C15 C 0.8853(4) 1.2652(4) 1.1712(3)
H9 H 0.8103 1.2358 1.0713
N1 N 0.1835(3) 0.9228(3) 0.4757(3)
H10 H 0.0984 0.9293 0.4125
N2 N 0.9870(3) 1.1879(3) 1.1971(3)
O1 O 0.7480(3) 0.9864(3) 0.8365(2)
O2 O 0.5514(3) 0.7672(3) 0.8240(3)
O3 O 0.1753(3) 1.1125(3) 0.6675(2)
O4 O 0.8289(3) 0.7873(2) 1.0447(2)
H11 H 0.7269 0.7599 0.9744
H12 H 0.8236 0.8220 1.1335
Cd1 Cd 1.0000 1.0000 1.0000
C1A C 1.4035(4) 1.1165(4) 1.2094(3)
C2A C 1.5461(3) 1.0984(3) 1.3224(3)
C3A C 1.6089(4) 0.9903(3) 1.2735(3)
H1A H 1.5570 0.9211 1.1713
C4A C 1.7542(4) 0.9787(3) 1.3748(3)
C5A C 1.7537(3) 1.1867(3) 1.5826(3)
C6A C 1.8265(4) 1.2819(4) 1.7383(3)
H2A H 1.9165 1.2706 1.8045
C7A C 1.7650(4) 1.3920(4) 1.7930(4)
H3A H 1.8135 1.4556 1.8968
C8A C 1.6296(4) 1.4101(4) 1.6944(4)
H4A H 1.5882 1.4851 1.7326
C9A C 1.5585(4) 1.3170(4) 1.5417(4)
H5A H 1.4694 1.3302 1.4764
C10A C 1.6174(3) 1.2022(3) 1.4819(3)
C11A C 0.9094(4) 1.7691(3) 1.6582(3)
H6A H 0.8397 1.8236 1.6377
C12A C 0.8999(4) 1.6484(4) 1.5374(3)
H7A H 0.8244 1.6224 1.4386
C13A C 1.0032(4) 1.5655(3) 1.5635(3)
C14A C 1.1135(4) 1.6127(4) 1.7134(3)
H8A H 1.1870 1.5621 1.7367
C15A C 1.1147(4) 1.7348(4) 1.8288(3)
H9A H 1.1897 1.7642 1.9287
N1A N 1.8165(3) 1.0772(3) 1.5243(3)
H10A H 1.9016 1.0707 1.5875
N2A N 1.0130(3) 1.8121(3) 1.8029(3)
N2A_2 N 1.0130(3) 0.8121(3) 0.8029(3)
O1A O 1.2520(3) 1.0136(3) 1.1635(2)
O2A O 1.4486(3) 1.2328(3) 1.1760(3)
O3A O 1.8247(3) 0.8875(3) 1.3325(2)
O4A O 1.1711(3) 1.2127(2) 0.9553(2)
H11A H 1.2731 1.2401 1.0256
H12A H 1.1764 1.1780 0.8665
Cd1_2 Cd 1.0000 2.0000 2.0000
loop_
_geom_bond_atom_site_label_1
_geom_bond_atom_site_label_2
_geom_bond_site_symmetry_1
_geom_bond_site_symmetry_2
C1 C2 1_555 1_555
C2 C3 1_555 1_555
C3 H1 1_555 1_555
C4 C3 1_555 1_555
C5 C6 1_555 1_555
C6 H2 1_555 1_555
C7 C6 1_555 1_555
H3 C7 1_555 1_555
C8 C7 1_555 1_555
H4 C8 1_555 1_555
C9 C8 1_555 1_555
H5 C9 1_555 1_555
C10 C2 1_555 1_555
C11 H6 1_555 1_555
C12 C11 1_555 1_555
H7 C12 1_555 1_555
C13 C12 1_555 1_555
C14 C13 1_555 1_555
H8 C14 1_555 1_555
C15 C14 1_555 1_555
H9 C15 1_555 1_555
N1 C4 1_555 1_555
H10 N1 1_555 1_555
N2 C11 1_555 1_555
O1 C1 1_555 1_555
O2 C1 1_555 1_555
O3 C4 1_555 1_555
O4 H11 1_555 1_555
H12 O4 1_555 1_555
Cd1 N2 1_555 1_555
C1A C2A 1_555 1_555
C2A C3A 1_555 1_555
C3A H1A 1_555 1_555
C4A C3A 1_555 1_555
C5A C6A 1_555 1_555
C6A H2A 1_555 1_555
C7A C6A 1_555 1_555
H3A C7A 1_555 1_555
C8A C7A 1_555 1_555
H4A C8A 1_555 1_555
C9A C8A 1_555 1_555
H5A C9A 1_555 1_555
C10A C2A 1_555 1_555
C11A H6A 1_555 1_555
C12A C11A 1_555 1_555
H7A C12A 1_555 1_555
C13A C13 1_555 1_555
C14A C13A 1_555 1_555
H8A C14A 1_555 1_555
C15A C14A 1_555 1_555
H9A C15A 1_555 1_555
N1A C4A 1_555 1_555
H10A N1A 1_555 1_555
N2A C11A 1_555 1_555
N2A_2 Cd1 1_555 1_555
O1A Cd1 1_555 1_555
O2A C1A 1_555 1_555
O3A C4A 1_555 1_555
O4A Cd1 1_555 1_555
H11A O4A 1_555 1_555
H12A O4A 1_555 1_555
Cd1_2 N2A 1_555 1_555
C5 C10 1_555 1_555
C5 N1 1_555 1_555
C9 C10 1_555 1_555
C15 N2 1_555 1_555
O1 Cd1 1_555 1_555
O4 Cd1 1_555 1_555
C1A O1A 1_555 1_555
C5A C10A 1_555 1_555
C5A N1A 1_555 1_555
C9A C10A 1_555 1_555
C12A C13A 1_555 1_555
C15A N2A 1_555 1_555

#END
