
#######################################################################
#
#                 Cambridge Crystallographic Data Centre
#                                CCDC 
#
#######################################################################
#
# If this CIF has been generated from an entry in the Cambridge 
# Structural Database, then it will include bibliographic, chemical, 
# crystal, experimental, refinement or atomic coordinate data resulting 
# from the CCDC's data processing and validation procedures.
#
#######################################################################

data_REHRIH
_symmetry_cell_setting           triclinic
_symmetry_space_group_name_H-M   'P -1'
_symmetry_Int_Tables_number      2
_space_group_name_Hall           '-P 1'
loop_
_symmetry_equiv_pos_site_id
_symmetry_equiv_pos_as_xyz
1 x,y,z
2 -x,-y,-z
_cell_length_a                   6.904(5)
_cell_length_b                   10.602(7)
_cell_length_c                   13.212(9)
_cell_angle_alpha                99.906(9)
_cell_angle_beta                 104.443(9)
_cell_angle_gamma                105.949(9)
_cell_volume                     869.884
loop_
_atom_site_label
_atom_site_type_symbol
_atom_site_fract_x
_atom_site_fract_y
_atom_site_fract_z
C1 C 0.4740(4) 0.4896(2) 0.6511(2)
C2 C 0.4440(4) 0.4720(2) 0.7530(2)
H1 H 0.5611 0.5048 0.8151
C3 C 0.2520(4) 0.4096(2) 0.76073(19)
C4 C 0.2298(4) 0.3991(2) 0.8710(2)
C5 C 0.0687(4) 0.3538(2) 0.66498(19)
C6 C -0.1368(4) 0.2840(3) 0.6641(2)
H2 H -0.1615 0.2729 0.7286
C7 C -0.3007(4) 0.2324(3) 0.5694(2)
H3 H -0.4361 0.1863 0.5698
C8 C -0.2670(4) 0.2482(3) 0.4724(2)
H4 H -0.3802 0.2129 0.4085
C9 C -0.0693(4) 0.3149(3) 0.4697(2)
H5 H -0.0474 0.3256 0.4045
C10 C 0.0991(4) 0.3667(2) 0.5659(2)
N1 N 0.2993(3) 0.4331(2) 0.56349(16)
H6 H 0.3140 0.4390 0.5015
O1 O 0.3413(3) 0.34335(19) 0.92369(14)
O2 O 0.1018(3) 0.44717(19) 0.90063(15)
O3 O 0.6473(3) 0.5523(2) 0.64162(14)
C11 C 0.2074(4) 0.0464(2) 0.82704(19)
H7 H 0.3278 0.0814 0.8876
C12 C 0.2305(4) 0.0576(3) 0.72853(19)
H8 H 0.3631 0.0995 0.7227
C13 C 0.0544(4) 0.0059(3) 0.63889(19)
C14 C -0.1377(4) -0.0599(3) 0.6506(2)
H9 H -0.2588 -0.1000 0.5907
C15 C -0.1466(4) -0.0652(3) 0.7520(2)
H10 H -0.2770 -0.1081 0.7597
N2 N 0.0229(3) -0.0116(2) 0.84059(15)
N3 N 0.0830(3) 0.0251(2) 0.53845(16)
O4 O 0.1726(3) 0.21182(16) 1.05251(13)
H11 H 0.2218 0.2610 1.0142
H12 H 0.4103 0.0138 1.0837
O5 O 0.2864(3) -0.03856(17) 1.04451(14)
H13 H 0.1040 0.2583 1.0793
H14 H 0.2884 -0.1150 1.0552
Zn1 Zn 0.0000 0.0000 1.0000
C11A C -0.2074(4) -0.0464(2) 0.17296(19)
H7A H -0.3278 -0.0814 0.1124
C12A C -0.2305(4) -0.0576(3) 0.27147(19)
H8A H -0.3631 -0.0995 0.2773
C13A C -0.0544(4) -0.0059(3) 0.36111(19)
C14A C 0.1377(4) 0.0599(3) 0.3494(2)
H9A H 0.2588 0.1000 0.4093
C15A C 0.1466(4) 0.0652(3) 0.2480(2)
H10A H 0.2770 0.1081 0.2403
N2A N -0.0229(3) 0.0116(2) 0.15941(15)
N2A_2 N -0.0229(3) 0.0116(2) 1.15941(15)
N3A N -0.0830(3) -0.0251(2) 0.46155(16)
O4A O -0.1726(3) -0.21182(16) 0.94749(13)
H11A H -0.2218 -0.2610 0.9858
H12A H -0.4103 -0.0138 0.9163
O5A O -0.2864(3) 0.03856(17) 0.95549(14)
H13A H -0.1040 -0.2583 0.9207
H14A H -0.2884 0.1150 0.9448
Zn1_2 Zn 0.0000 0.0000 0.0000
O6 O 0.6997(3) 0.27380(19) 0.90527(18)
H15 H 0.6006 0.3055 0.9077
H16 H 0.8221 0.3315 0.9192
O7 O 0.9994(3) 0.64949(18) 0.82272(14)
H17 H 0.8997 0.6187 0.7630
H18 H 1.0299 0.5893 0.8523
O8 O 0.4079(3) 0.7992(2) 0.82241(18)
H19 H 0.2798 0.7647 0.8199
H20 H 0.4909 0.7589 0.8493
loop_
_geom_bond_atom_site_label_1
_geom_bond_atom_site_label_2
_geom_bond_site_symmetry_1
_geom_bond_site_symmetry_2
C1 C2 1_555 1_555
C2 H1 1_555 1_555
C3 C2 1_555 1_555
C4 C3 1_555 1_555
C5 C3 1_555 1_555
C6 C5 1_555 1_555
H2 C6 1_555 1_555
C7 C6 1_555 1_555
H3 C7 1_555 1_555
C8 C7 1_555 1_555
H4 C8 1_555 1_555
C9 C8 1_555 1_555
H5 C9 1_555 1_555
C10 C5 1_555 1_555
N1 C1 1_555 1_555
H6 N1 1_555 1_555
O1 C4 1_555 1_555
O2 C4 1_555 1_555
O3 C1 1_555 1_555
C11 H7 1_555 1_555
C12 C11 1_555 1_555
H8 C12 1_555 1_555
C13 C12 1_555 1_555
C14 C13 1_555 1_555
H9 C14 1_555 1_555
C15 C14 1_555 1_555
H10 C15 1_555 1_555
N2 C11 1_555 1_555
N3 C13 1_555 1_555
O4 H11 1_555 1_555
H12 O5 1_555 1_555
O5 H14 1_555 1_555
H13 O4 1_555 1_555
Zn1 N2 1_555 1_555
O6 H15 1_555 1_555
H16 O6 1_555 1_555
O7 H17 1_555 1_555
H18 O7 1_555 1_555
O8 H19 1_555 1_555
H20 O8 1_555 1_555
C11A H7A 1_555 1_555
C12A C11A 1_555 1_555
H8A C12A 1_555 1_555
C13A C12A 1_555 1_555
C14A C13A 1_555 1_555
H9A C14A 1_555 1_555
C15A C14A 1_555 1_555
H10A C15A 1_555 1_555
N2A C11A 1_555 1_555
N2A_2 Zn1 1_555 1_555
N3A N3 1_555 1_555
O4A Zn1 1_555 1_555
H11A O4A 1_555 1_555
H12A O5A 1_555 1_555
O5A Zn1 1_555 1_555
H13A O4A 1_555 1_555
H14A O5A 1_555 1_555
Zn1_2 N2A 1_555 1_555
C9 C10 1_555 1_555
C10 N1 1_555 1_555
C15 N2 1_555 1_555
O4 Zn1 1_555 1_555
O5 Zn1 1_555 1_555
C13A N3A 1_555 1_555
C15A N2A 1_555 1_555

#END
