
#######################################################################
#
#                 Cambridge Crystallographic Data Centre
#                                CCDC 
#
#######################################################################
#
# If this CIF has been generated from an entry in the Cambridge 
# Structural Database, then it will include bibliographic, chemical, 
# crystal, experimental, refinement or atomic coordinate data resulting 
# from the CCDC's data processing and validation procedures.
#
#######################################################################

data_REHRED
_symmetry_cell_setting           triclinic
_symmetry_space_group_name_H-M   'P -1'
_symmetry_Int_Tables_number      2
_space_group_name_Hall           '-P 1'
loop_
_symmetry_equiv_pos_site_id
_symmetry_equiv_pos_as_xyz
1 x,y,z
2 -x,-y,-z
_cell_length_a                   10.461(5)
_cell_length_b                   12.371(6)
_cell_length_c                   16.497(8)
_cell_angle_alpha                78.244(6)
_cell_angle_beta                 77.713(6)
_cell_angle_gamma                74.766(6)
_cell_volume                     1987.83
loop_
_atom_site_label
_atom_site_type_symbol
_atom_site_fract_x
_atom_site_fract_y
_atom_site_fract_z
C1 C 0.6115(3) 0.5911(3) 0.45419(18)
C2 C 0.6901(4) 0.4857(3) 0.4357(2)
H1 H 0.6696 0.4513 0.3965
C3 C 0.7973(4) 0.4339(3) 0.4758(2)
H2 H 0.8496 0.3639 0.4636
C4 C 0.8288(4) 0.4843(4) 0.5342(3)
H3 H 0.9018 0.4480 0.5611
C5 C 0.7533(4) 0.5867(3) 0.5524(2)
H4 H 0.7759 0.6201 0.5914
C6 C 0.6417(3) 0.6429(3) 0.51329(18)
C7 C 0.5556(3) 0.7488(3) 0.53119(19)
C8 C 0.4494(3) 0.7970(3) 0.4912(2)
H5 H 0.3931 0.8651 0.5047
C9 C 0.4214(3) 0.7452(3) 0.42804(19)
C10 C 0.5858(4) 0.8089(3) 0.5942(3)
C11 C 0.8086(3) 1.0205(3) 1.08617(18)
C12 C 0.7309(3) 1.0034(3) 1.02863(18)
H6 H 0.6532 1.0574 1.0181
C13 C 0.7686(3) 0.9110(3) 0.98992(17)
C14 C 0.6793(3) 0.8900(3) 0.93584(19)
C15 C 0.8899(3) 0.8276(3) 1.00315(19)
C16 C 0.9682(3) 0.8465(3) 1.05607(18)
C17 C 1.0880(3) 0.7699(3) 1.0696(2)
H7 H 1.1397 0.7825 1.1047
C18 C 1.1294(4) 0.6754(4) 1.0308(3)
H8 H 1.2099 0.6242 1.0395
C19 C 0.9357(4) 0.7301(3) 0.9653(2)
H9 H 0.8853 0.7158 0.9302
C20 C 0.4289(3) 1.1196(3) 0.7919(2)
H10 H 0.4859 1.1059 0.8309
C21 C 0.3238(3) 1.2144(3) 0.7924(2)
H11 H 0.3105 1.2621 0.8318
C22 C 0.2378(3) 1.2383(2) 0.73422(19)
C23 C 0.2622(3) 1.1635(3) 0.6792(2)
H12 H 0.2072 1.1755 0.6392
C24 C 0.3678(3) 1.0710(3) 0.6830(2)
H13 H 0.3818 1.0215 0.6448
C25 C 0.1197(3) 1.3392(3) 0.7301(2)
H14 H 0.1218 1.3758 0.6721
H15 H 0.0376 1.3120 0.7476
C26 C 0.1146(3) 1.4264(3) 0.7830(2)
H16 H 0.1996 1.4491 0.7691
H17 H 0.1036 1.3921 0.8417
C27 C 0.0023(3) 1.5306(3) 0.7712(2)
C28 C 0.0255(3) 1.6377(3) 0.7563(2)
H18 H 0.1124 1.6470 0.7509
C29 C -0.0785(3) 1.7304(3) 0.7495(2)
H19 H -0.0591 1.8015 0.7399
C30 C -0.2299(3) 1.6230(3) 0.7688(2)
H20 H -0.3179 1.6167 0.7735
C31 C -0.1304(3) 1.5252(3) 0.7758(3)
H21 H -0.1519 1.4550 0.7838
C32 C 1.0540(4) 0.6552(4) 0.9792(3)
H22 H 1.0833 0.5906 0.9536
Cd1 Cd 0.62110(2) 0.885109(16) 0.745305(13)
N1 N 0.9242(2) 0.9413(2) 1.09485(15)
H23 H 0.9738 0.9510 1.1270
N2 N 0.4522(2) 1.0471(2) 0.73805(16)
N3 N -0.2061(2) 1.7259(2) 0.75559(15)
N4 N 0.5039(3) 0.6450(2) 0.41414(15)
H24 H 0.4883 0.6120 0.3774
O1 O 0.6944(2) 0.93426(18) 0.85980(12)
O2 O 0.6009(3) 0.8298(3) 0.97154(15)
O3 O 0.7733(2) 1.1014(2) 1.12651(14)
O4 O 0.3282(2) 0.7891(2) 0.38728(15)
O5 O 0.5173(3) 0.8088(2) 0.66274(17)
O6 O 0.6801(4) 0.8552(4) 0.5724(3)
H25 H 0.5119 0.7670 0.9022
H26 H 0.4079 0.8250 0.8602
H27 H 0.7272 1.0554 0.6463
H28 H 0.8487 0.9777 0.6568
O7 O 0.7707(2) 0.9910(2) 0.66647(16)
O8 O 0.4901(2) 0.78963(18) 0.85326(13)
Cd1_2 Cd -0.37890(2) 1.885109(16) 0.745305(13)
N3_2 N 0.7939(2) 0.7259(2) 0.75559(15)
C33 C 0.4215(4) 0.6496(4) 0.2179(2)
H29 H 0.3704 0.7147 0.2392
C34 C 0.4370(4) 0.6494(3) 0.1323(2)
H30 H 0.3985 0.7134 0.0974
C35 C 0.5101(4) 0.5533(3) 0.0997(2)
C36 C 0.5256(4) 0.5472(3) 0.0081(2)
H31 H 0.4777 0.6186 -0.0196
H32 H 0.6200 0.5373 -0.0165
C37 C 0.5681(4) 0.4614(3) 0.1556(2)
H33 H 0.6197 0.3952 0.1363
C38 C 0.5475(4) 0.4704(3) 0.2398(2)
H34 H 0.5864 0.4085 0.2761
N5 N 0.4759(3) 0.5619(3) 0.27169(18)
C33A C 0.5785(4) 0.3504(4) -0.2179(2)
H29A H 0.6296 0.2853 -0.2392
C34A C 0.5630(4) 0.3506(3) -0.1323(2)
H30A H 0.6015 0.2866 -0.0974
C35A C 0.4899(4) 0.4467(3) -0.0997(2)
C36A C 0.4744(4) 0.4528(3) -0.0081(2)
H31A H 0.5223 0.3814 0.0196
H32A H 0.3800 0.4627 0.0165
C37A C 0.4319(4) 0.5386(3) -0.1556(2)
H33A H 0.3803 0.6048 -0.1363
C38A C 0.4525(4) 0.5296(3) -0.2398(2)
H34A H 0.4136 0.5915 -0.2761
N5A N 0.5241(3) 0.4381(3) -0.27169(18)
O9 O 0.0890(3) 0.7797(3) 0.3418(2)
H35 H 0.1704 0.7629 0.3508
H36 H 0.0340 0.8034 0.3840
O10 O 0.7690(3) 0.1790(3) 0.28060(19)
H37 H 0.6846 0.1957 0.2990
H38 H 0.7784 0.1663 0.2304
O11 O 0.0652(4) 0.9207(4) 0.5975(3)
H39 H 0.0560 0.9828 0.6176
H40 H 0.1298 0.8738 0.6193
O12 O 0.9318(4) 0.8617(4) 0.4896(2)
H41 H 0.8619 0.8420 0.4834
H42 H 0.9839 0.7979 0.5094
H43 H 0.9282 0.0777 0.7521
H44 H 0.8560 0.0058 0.8165
O13 O 0.9011(4) 0.0549(4) 0.8017(2)
loop_
_geom_bond_atom_site_label_1
_geom_bond_atom_site_label_2
_geom_bond_site_symmetry_1
_geom_bond_site_symmetry_2
C1 C2 1_555 1_555
C2 H1 1_555 1_555
C3 C2 1_555 1_555
H2 C3 1_555 1_555
C4 C3 1_555 1_555
H3 C4 1_555 1_555
C5 C4 1_555 1_555
H4 C5 1_555 1_555
C6 C1 1_555 1_555
C7 C6 1_555 1_555
C8 C7 1_555 1_555
H5 C8 1_555 1_555
C9 C8 1_555 1_555
C10 C7 1_555 1_555
C11 C12 1_555 1_555
C12 H6 1_555 1_555
C13 C12 1_555 1_555
C14 C13 1_555 1_555
C15 C13 1_555 1_555
C16 C15 1_555 1_555
C17 C16 1_555 1_555
H7 C17 1_555 1_555
C18 C17 1_555 1_555
H8 C18 1_555 1_555
C19 C15 1_555 1_555
H9 C19 1_555 1_555
C20 H10 1_555 1_555
C21 C20 1_555 1_555
H11 C21 1_555 1_555
C22 C21 1_555 1_555
C23 C22 1_555 1_555
H12 C23 1_555 1_555
C24 C23 1_555 1_555
H13 C24 1_555 1_555
C25 C22 1_555 1_555
H14 C25 1_555 1_555
H15 C25 1_555 1_555
C26 C25 1_555 1_555
H16 C26 1_555 1_555
H17 C26 1_555 1_555
C27 C26 1_555 1_555
C28 C27 1_555 1_555
H18 C28 1_555 1_555
C29 C28 1_555 1_555
H19 C29 1_555 1_555
C30 H20 1_555 1_555
C31 C27 1_555 1_555
H21 C31 1_555 1_555
C32 C18 1_555 1_555
H22 C32 1_555 1_555
Cd1 N2 1_555 1_555
N1 C11 1_555 1_555
H23 N1 1_555 1_555
N2 C20 1_555 1_555
N3 C29 1_555 1_555
N4 C1 1_555 1_555
H24 N4 1_555 1_555
O1 C14 1_555 1_555
O2 C14 1_555 1_555
O3 C11 1_555 1_555
O4 C9 1_555 1_555
O5 C10 1_555 1_555
O6 C10 1_555 1_555
H25 O8 1_555 1_555
H26 O8 1_555 1_555
H27 O7 1_555 1_555
H28 O7 1_555 1_555
O7 Cd1 1_555 1_555
O8 Cd1 1_555 1_555
C33 H29 1_555 1_555
C34 C33 1_555 1_555
H30 C34 1_555 1_555
C35 C34 1_555 1_555
C36 C35 1_555 1_555
H31 C36 1_555 1_555
H32 C36 1_555 1_555
C37 C35 1_555 1_555
H33 C37 1_555 1_555
C38 C37 1_555 1_555
H34 C38 1_555 1_555
N5 C33 1_555 1_555
O9 H35 1_555 1_555
H36 O9 1_555 1_555
O10 H37 1_555 1_555
H38 O10 1_555 1_555
O11 H39 1_555 1_555
H40 O11 1_555 1_555
O12 H41 1_555 1_555
H42 O12 1_555 1_555
H43 O13 1_555 1_555
H44 O13 1_555 1_555
Cd1_2 N3 1_555 1_555
N3_2 Cd1 1_555 1_555
C33A H29A 1_555 1_555
C34A C33A 1_555 1_555
H30A C34A 1_555 1_555
C35A C34A 1_555 1_555
C36A C36 1_555 1_555
H31A C36A 1_555 1_555
H32A C36A 1_555 1_555
C37A C35A 1_555 1_555
H33A C37A 1_555 1_555
C38A C37A 1_555 1_555
H34A C38A 1_555 1_555
N5A C33A 1_555 1_555
C5 C6 1_555 1_555
C9 N4 1_555 1_555
C16 N1 1_555 1_555
C19 C32 1_555 1_555
C24 N2 1_555 1_555
C30 C31 1_555 1_555
C30 N3 1_555 1_555
Cd1 O1 1_555 1_555
Cd1 O5 1_555 1_555
C38 N5 1_555 1_555
C35A C36A 1_555 1_555
C38A N5A 1_555 1_555

#END
