
#######################################################################
#
#                 Cambridge Crystallographic Data Centre
#                                CCDC 
#
#######################################################################
#
# If this CIF has been generated from an entry in the Cambridge 
# Structural Database, then it will include bibliographic, chemical, 
# crystal, experimental, refinement or atomic coordinate data resulting 
# from the CCDC's data processing and validation procedures.
#
#######################################################################

data_REHRAY
_symmetry_cell_setting           monoclinic
_symmetry_space_group_name_H-M   'C c'
_symmetry_Int_Tables_number      9
_space_group_name_Hall           'C -2yc'
loop_
_symmetry_equiv_pos_site_id
_symmetry_equiv_pos_as_xyz
1 x,y,z
2 x,-y,1/2+z
3 1/2+x,1/2+y,z
4 1/2+x,1/2-y,1/2+z
_cell_length_a                   9.0860(17)
_cell_length_b                   24.088(4)
_cell_length_c                   7.7691(14)
_cell_angle_alpha                90
_cell_angle_beta                 115.028(2)
_cell_angle_gamma                90
_cell_volume                     1540.71
loop_
_atom_site_label
_atom_site_type_symbol
_atom_site_fract_x
_atom_site_fract_y
_atom_site_fract_z
Cd1 Cd 0.13822(7) 0.472830(18) 0.62266(7)
Cl1 Cl 0.3665(3) 0.44560(11) 0.8852(4)
O1 O -0.1362(7) 0.5658(3) 0.4529(8)
O2 O 0.0308(7) 0.5237(2) 0.3525(9)
N1 N -0.2117(9) 0.9027(2) 0.1894(9)
N2 N -0.2614(9) 0.9425(3) 0.2625(11)
N3 N -0.2435(9) 0.9260(3) 0.4363(11)
N4 N -0.1802(8) 0.8756(3) 0.4695(9)
H1 H -0.1570 0.8554 0.5689
N5 N -0.0181(8) 0.6086(3) 0.0878(10)
C1 C -0.1605(9) 0.8635(3) 0.3148(11)
C2 C -0.0940(11) 0.8087(3) 0.2896(12)
C3 C -0.0763(10) 0.7652(4) 0.4176(12)
H2 H -0.1003 0.7705 0.5216
C4 C -0.0214(11) 0.7137(4) 0.3837(12)
H3 H -0.0132 0.6839 0.4632
C5 C 0.0195(9) 0.7070(3) 0.2368(10)
C6 C 0.0076(10) 0.7498(4) 0.1123(12)
H4 H 0.0382 0.7447 0.0133
C7 C -0.0513(11) 0.8004(4) 0.1399(13)
H5 H -0.0625 0.8295 0.0564
C8 C 0.0896(10) 0.6494(3) 0.2056(11)
H6 H 0.1679 0.6574 0.1544
H7 H 0.1492 0.6328 0.3297
C9 C -0.1182(10) 0.6275(4) -0.1153(12)
H8 H -0.0534 0.6283 -0.1875
H9 H -0.1646 0.6640 -0.1190
C10 C -0.2509(12) 0.5827(4) -0.1907(13)
H10 H -0.2170 0.5529 -0.2497
H11 H -0.3507 0.5985 -0.2848
C11 C -0.2791(10) 0.5596(4) -0.0140(12)
H12 H -0.3877 0.5678 -0.0265
H13 H -0.2602 0.5199 0.0017
C12 C -0.1474(10) 0.5928(3) 0.1529(12)
H14 H -0.1970 0.6268 0.1736
C13 C -0.0773(9) 0.5593(3) 0.3390(11)
Cd1A Cd 0.13822(7) 0.527170(18) 0.12266(7)
Cd1C Cd -0.36178(7) 1.027170(18) 0.12266(7)
Cd1B Cd -0.36178(7) 0.972830(18) 0.62266(7)
O2A O 0.0308(7) 0.4763(2) 0.8525(9)
N2C N 0.2386(9) 0.5575(3) 0.7625(11)
N3B N 0.2565(9) 0.4260(3) 0.4363(11)
N5A N -0.0181(8) 0.3914(3) 0.5878(10)
loop_
_geom_bond_atom_site_label_1
_geom_bond_atom_site_label_2
_geom_bond_site_symmetry_1
_geom_bond_site_symmetry_2
Cd1 Cl1 1_555 1_555
O1 C13 1_555 1_555
O2 Cd1 1_555 1_555
N1 N2 1_555 1_555
N2 N3 1_555 1_555
N3 N4 1_555 1_555
N4 H1 1_555 1_555
N5 C8 1_555 1_555
C1 N1 1_555 1_555
C2 C1 1_555 1_555
C3 C2 1_555 1_555
H2 C3 1_555 1_555
C4 C3 1_555 1_555
H3 C4 1_555 1_555
C5 C4 1_555 1_555
C6 C5 1_555 1_555
H4 C6 1_555 1_555
C7 C2 1_555 1_555
H5 C7 1_555 1_555
C8 C5 1_555 1_555
H6 C8 1_555 1_555
H7 C8 1_555 1_555
C9 N5 1_555 1_555
H8 C9 1_555 1_555
H9 C9 1_555 1_555
C10 C9 1_555 1_555
H10 C10 1_555 1_555
H11 C10 1_555 1_555
C11 C10 1_555 1_555
H12 C11 1_555 1_555
H13 C11 1_555 1_555
C12 N5 1_555 1_555
H14 C12 1_555 1_555
C13 O2 1_555 1_555
Cd1A O2 1_555 1_555
Cd1C N2 1_555 1_555
Cd1B N3 1_555 1_555
O2A Cd1 1_555 1_555
N2C Cd1 1_555 1_555
N3B Cd1 1_555 1_555
N5A Cd1 1_555 1_555
N4 C1 1_555 1_555
N5 Cd1A 1_555 1_555
C6 C7 1_555 1_555
C11 C12 1_555 1_555
C12 C13 1_555 1_555

#END
