
#######################################################################
#
#                 Cambridge Crystallographic Data Centre
#                                CCDC 
#
#######################################################################
#
# If this CIF has been generated from an entry in the Cambridge 
# Structural Database, then it will include bibliographic, chemical, 
# crystal, experimental, refinement or atomic coordinate data resulting 
# from the CCDC's data processing and validation procedures.
#
#######################################################################

data_REJCAL
_symmetry_cell_setting           triclinic
_symmetry_space_group_name_H-M   'P -1'
_symmetry_Int_Tables_number      2
_space_group_name_Hall           '-P 1'
loop_
_symmetry_equiv_pos_site_id
_symmetry_equiv_pos_as_xyz
1 x,y,z
2 -x,-y,-z
_cell_length_a                   8.3518(2)
_cell_length_b                   9.4925(2)
_cell_length_c                   10.4159(3)
_cell_angle_alpha                71.7450(10)
_cell_angle_beta                 81.0170(10)
_cell_angle_gamma                86.4740(10)
_cell_volume                     774.519
loop_
_atom_site_label
_atom_site_type_symbol
_atom_site_fract_x
_atom_site_fract_y
_atom_site_fract_z
I1 I 0.14383(3) 0.14641(2) 0.30830(2)
I2 I 0.64037(3) 0.19015(2) 0.35364(2)
Cu1 Cu 0.40723(5) -0.00500(5) 0.39676(5)
Cu2 Cu -0.12238(5) -0.00869(5) 0.42586(5)
S1 S 0.21992(12) -0.44724(10) 0.04745(10)
N1 N 0.4702(3) -0.1246(3) 0.2627(3)
N2 N -0.1211(4) -0.1812(3) 0.3465(3)
C1 C -0.0256(4) -0.1817(4) 0.2302(4)
H1 H 0.0418 -0.0985 0.1846
C2 C 0.0918(5) -0.2850(4) 0.0395(4)
H2 H 0.1612 -0.197 0.0155
H3 H 0.0247 -0.2702 -0.0341
C3 C -0.2176(5) -0.4174(4) 0.3614(4)
H4 H -0.2864 -0.499 0.4099
C4 C 0.3852(4) -0.2446(4) 0.2711(4)
H5 H 0.3012 -0.2783 0.3459
C5 C 0.4144(4) -0.3211(4) 0.1759(4)
C6 C 0.5366(5) -0.2690(4) 0.0660(4)
H6 H 0.5578 -0.3162 -0.0032
C7 C 0.5893(4) -0.0807(4) 0.1583(4)
H7 H 0.6518 0.0019 0.1523
C8 C 0.3174(5) -0.4575(4) 0.1939(4)
H8 H 0.2334 -0.4716 0.2751
H9 H 0.3906 -0.5454 0.2117
C9 C -0.0186(5) -0.2958(4) 0.1720(4)
C10 C -0.2167(5) -0.2982(4) 0.4103(4)
H10 H -0.2861 -0.2992 0.492
C11 C -0.1191(5) -0.4186(4) 0.2425(4)
H11 H -0.1188 -0.5006 0.2086
C12 C 0.6264(5) -0.1496(5) 0.0578(4)
H12 H 0.7123 -0.1148 -0.0151
I1A I -0.14383(3) -0.14641(2) 0.69170(2)
I2A I 0.35963(3) -0.19015(2) 0.64636(2)
I2_2 I -0.35963(3) 0.19015(2) 0.35364(2)
Cu1A Cu 0.59277(5) 0.00500(5) 0.60324(5)
Cu2_2 Cu 0.87762(5) -0.00869(5) 0.42586(5)
Cu2A Cu 0.12238(5) 0.00869(5) 0.57414(5)
loop_
_geom_bond_atom_site_label_1
_geom_bond_atom_site_label_2
_geom_bond_site_symmetry_1
_geom_bond_site_symmetry_2
I1 Cu1 1_555 1_555
I2 Cu1 1_555 1_555
Cu1 N1 1_555 1_555
Cu2 I1 1_555 1_555
S1 C2 1_555 1_555
N1 C4 1_555 1_555
N2 Cu2 1_555 1_555
C1 N2 1_555 1_555
H1 C1 1_555 1_555
C2 H2 1_555 1_555
H3 C2 1_555 1_555
C3 H4 1_555 1_555
C4 H5 1_555 1_555
C5 C4 1_555 1_555
C6 C5 1_555 1_555
H6 C6 1_555 1_555
C7 N1 1_555 1_555
H7 C7 1_555 1_555
C8 S1 1_555 1_555
H8 C8 1_555 1_555
H9 C8 1_555 1_555
C9 C1 1_555 1_555
C10 N2 1_555 1_555
H10 C10 1_555 1_555
C11 C3 1_555 1_555
H11 C11 1_555 1_555
C12 C6 1_555 1_555
H12 C12 1_555 1_555
I1A Cu2 1_555 1_555
I2A Cu1 1_555 1_555
I2_2 Cu2 1_555 1_555
Cu1A I2 1_555 1_555
Cu2_2 I2 1_555 1_555
Cu2A I1 1_555 1_555
C2 C9 1_555 1_555
C3 C10 1_555 1_555
C5 C8 1_555 1_555
C7 C12 1_555 1_555
C9 C11 1_555 1_555
I1A Cu2A 1_555 1_555
I2A Cu1A 1_555 1_555
I2A Cu2A 1_555 1_555

#END
