
#######################################################################
#
#                 Cambridge Crystallographic Data Centre
#                                CCDC 
#
#######################################################################
#
# If this CIF has been generated from an entry in the Cambridge 
# Structural Database, then it will include bibliographic, chemical, 
# crystal, experimental, refinement or atomic coordinate data resulting 
# from the CCDC's data processing and validation procedures.
#
#######################################################################

data_REJHEU
_symmetry_cell_setting           triclinic
_symmetry_space_group_name_H-M   'P -1'
_symmetry_Int_Tables_number      2
_space_group_name_Hall           '-P 1'
loop_
_symmetry_equiv_pos_site_id
_symmetry_equiv_pos_as_xyz
1 x,y,z
2 -x,-y,-z
_cell_length_a                   9.092(8)
_cell_length_b                   9.229(8)
_cell_length_c                   17.335(15)
_cell_angle_alpha                93.786(13)
_cell_angle_beta                 91.981(15)
_cell_angle_gamma                97.735(14)
_cell_volume                     1436.81
loop_
_atom_site_label
_atom_site_type_symbol
_atom_site_fract_x
_atom_site_fract_y
_atom_site_fract_z
Cu1 Cu -0.06156(4) 0.02102(4) 0.06656(2)
Cu2 Cu -0.38588(5) -0.45406(4) 0.45860(2)
N1 N -0.1741(3) 0.0650(3) 0.17380(15)
N2 N -0.2037(4) -0.3881(3) 0.38401(17)
N3 N -0.1415(5) -0.1477(4) 0.2233(2)
H1 H -0.1223 -0.1744 0.1767
C1 C -0.1886(4) -0.0171(4) 0.2335(2)
C2 C -0.2226(5) -0.2885(5) 0.3312(2)
H2 H -0.3100 -0.2466 0.3305
C3 C -0.2798(5) 0.1758(5) 0.3067(3)
H3 H -0.3150 0.2149 0.3522
C4 C -0.0788(5) -0.4478(5) 0.3853(3)
H4 H -0.0651 -0.5158 0.4213
C5 C -0.2153(5) 0.1975(5) 0.1827(3)
H5 H -0.2060 0.2544 0.1403
C6 C -0.2422(5) 0.0384(5) 0.3049(2)
H6 H -0.2506 -0.0170 0.3478
C7 C -0.1190(6) -0.2484(5) 0.2801(2)
C8 C 0.0098(6) -0.3108(6) 0.2818(3)
H7 H 0.0825 -0.2844 0.2470
C9 C -0.2684(6) 0.2571(5) 0.2459(3)
H8 H -0.2961 0.3506 0.2476
C10 C 0.0327(6) -0.4104(6) 0.3337(3)
H9 H 0.1200 -0.4526 0.3348
C11 C -0.2248(4) 0.0672(3) -0.0734(2)
C12 C -0.3621(4) 0.1028(4) -0.1127(2)
C13 C -0.3696(6) 0.0927(6) -0.1953(3)
H10 H -0.4713 0.0869 -0.2136
H11 H -0.3300 0.0065 -0.2143
H12 H -0.3127 0.1779 -0.2136
C14 C -0.4768(5) 0.1432(5) -0.0694(3)
H13 H -0.5628 0.1649 -0.0940
H14 H -0.4679 0.1486 -0.0157
C15 C -0.2712(7) -0.4754(5) 0.0448(4)
H15 H -0.3109 -0.5765 0.0329
H16 H -0.3513 -0.4185 0.0518
H17 H -0.2095 -0.4663 0.0914
C16 C -0.1857(5) -0.4239(4) -0.0168(2)
C17 C -0.1562(7) -0.5114(5) -0.0808(3)
H18 H -0.1936 -0.6107 -0.0851
H19 H -0.0991 -0.4710 -0.1195
C18 C -0.3818(5) -0.7250(4) 0.52864(19)
C19 C -0.3103(5) -0.8580(4) 0.5453(2)
C20 C -0.6377(5) -0.6317(4) 0.3809(2)
O1 O -0.1401(3) -0.1886(3) 0.04886(14)
O2 O -0.3123(3) -0.6354(3) 0.48667(15)
O3 O -0.2229(3) 0.0717(3) -0.00034(14)
O4 O -0.5088(3) -0.5659(3) 0.37308(14)
O5 O -0.1200(3) 0.0370(3) -0.11369(13)
O6 O -0.7017(3) -0.6428(3) 0.44291(15)
O7 O -0.5045(3) -0.7122(3) 0.55688(15)
C21 C -0.7209(5) -0.7035(5) 0.3078(3)
C22 C -0.1745(6) -0.8771(6) 0.5163(3)
H20 H -0.1320 -0.9606 0.5261
H21 H -0.1254 -0.8065 0.4869
C23 C -0.3937(7) -0.9628(6) 0.5915(3)
H22 H -0.4883 -0.9978 0.5658
H23 H -0.4087 -0.9163 0.6413
H24 H -0.3395 -1.0439 0.5980
C24 C -0.8579(6) -0.7918(6) 0.3162(3)
H25 H -0.8831 -0.8551 0.2701
H26 H -0.9339 -0.7304 0.3246
H27 H -0.8498 -0.8500 0.3597
C25 C -0.6608(7) -0.6752(7) 0.2374(3)
H28 H -0.7112 -0.7153 0.1918
H29 H -0.5699 -0.6160 0.2357
C26 C -0.1163(4) -0.2661(4) -0.0101(2)
O8 O -0.0403(3) -0.2219(3) -0.06513(14)
Cu1A Cu 0.06156(4) -0.02102(4) -0.06656(2)
Cu2A Cu -0.61412(5) -0.54594(4) 0.54140(2)
O5A O 0.1200(3) -0.0370(3) 0.11369(13)
O6A O -0.2983(3) -0.3572(3) 0.55709(15)
O7A O -0.4955(3) -0.2878(3) 0.44312(15)
O8A O 0.0403(3) 0.2219(3) 0.06513(14)
loop_
_geom_bond_atom_site_label_1
_geom_bond_atom_site_label_2
_geom_bond_site_symmetry_1
_geom_bond_site_symmetry_2
Cu1 N1 1_555 1_555
Cu2 N2 1_555 1_555
N1 C1 1_555 1_555
N2 C2 1_555 1_555
N3 H1 1_555 1_555
C1 N3 1_555 1_555
C2 H2 1_555 1_555
C3 H3 1_555 1_555
C4 N2 1_555 1_555
H4 C4 1_555 1_555
C5 N1 1_555 1_555
H5 C5 1_555 1_555
C6 C1 1_555 1_555
H6 C6 1_555 1_555
C7 N3 1_555 1_555
C8 C7 1_555 1_555
H7 C8 1_555 1_555
C9 C3 1_555 1_555
H8 C9 1_555 1_555
C10 C4 1_555 1_555
H9 C10 1_555 1_555
C11 C12 1_555 1_555
C12 C13 1_555 1_555
C13 H10 1_555 1_555
H11 C13 1_555 1_555
H12 C13 1_555 1_555
C14 C12 1_555 1_555
H13 C14 1_555 1_555
H14 C14 1_555 1_555
C15 H15 1_555 1_555
H16 C15 1_555 1_555
H17 C15 1_555 1_555
C16 C15 1_555 1_555
C17 C16 1_555 1_555
H18 C17 1_555 1_555
H19 C17 1_555 1_555
C18 C19 1_555 1_555
C19 C22 1_555 1_555
C20 O4 1_555 1_555
O1 Cu1 1_555 1_555
O2 Cu2 1_555 1_555
O3 Cu1 1_555 1_555
O4 Cu2 1_555 1_555
O5 C11 1_555 1_555
O6 C20 1_555 1_555
O7 C18 1_555 1_555
C21 C20 1_555 1_555
C22 H20 1_555 1_555
H21 C22 1_555 1_555
C23 C19 1_555 1_555
H22 C23 1_555 1_555
H23 C23 1_555 1_555
H24 C23 1_555 1_555
C24 C21 1_555 1_555
H25 C24 1_555 1_555
H26 C24 1_555 1_555
H27 C24 1_555 1_555
C25 C21 1_555 1_555
H28 C25 1_555 1_555
H29 C25 1_555 1_555
C26 C16 1_555 1_555
O8 C26 1_555 1_555
Cu1A Cu1 1_555 1_555
Cu2A Cu2 1_555 1_555
O5A Cu1 1_555 1_555
O6A Cu2 1_555 1_555
O7A Cu2 1_555 1_555
O8A Cu1 1_555 1_555
C2 C7 1_555 1_555
C3 C6 1_555 1_555
C5 C9 1_555 1_555
C8 C10 1_555 1_555
C11 O3 1_555 1_555
C18 O2 1_555 1_555
O1 C26 1_555 1_555
O5 Cu1A 1_555 1_555
O6 Cu2A 1_555 1_555
O7 Cu2A 1_555 1_555
O8 Cu1A 1_555 1_555

#END
