
#######################################################################
#
#                 Cambridge Crystallographic Data Centre
#                                CCDC 
#
#######################################################################
#
# If this CIF has been generated from an entry in the Cambridge 
# Structural Database, then it will include bibliographic, chemical, 
# crystal, experimental, refinement or atomic coordinate data resulting 
# from the CCDC's data processing and validation procedures.
#
#######################################################################

data_REJHOF
_symmetry_cell_setting           orthorhombic
_symmetry_space_group_name_H-M   'P 21 21 21'
_symmetry_Int_Tables_number      19
_space_group_name_Hall           'P 2ac 2ab'
loop_
_symmetry_equiv_pos_site_id
_symmetry_equiv_pos_as_xyz
1 x,y,z
2 1/2-x,-y,1/2+z
3 -x,1/2+y,1/2-z
4 1/2+x,1/2-y,-z
_cell_length_a                   5.9007(3)
_cell_length_b                   9.0620(3)
_cell_length_c                   23.4580(8)
_cell_angle_alpha                90
_cell_angle_beta                 90
_cell_angle_gamma                90
_cell_volume                     1254.35
loop_
_atom_site_label
_atom_site_type_symbol
_atom_site_fract_x
_atom_site_fract_y
_atom_site_fract_z
Pd1 Pd -0.02674(10) 0.34400(7) 0.35650(3)
Tl1 Tl 0.32736(6) 0.86770(4) 0.248470(15)
N1 N 0.232(2) 0.6432(13) 0.3292(4)
N2 N 0.3020(16) 0.1885(10) 0.2704(4)
N3 N -0.2205(13) 0.1616(10) 0.3713(3)
C1 C 0.1411(19) 0.5354(12) 0.3410(4)
C2 C 0.1819(17) 0.2418(10) 0.3019(4)
C3 C -0.2527(14) 0.4335(9) 0.4143(3)
C4 C -0.2487(16) 0.5759(10) 0.4364(4)
H1 H -0.1355 0.6437 0.4245
C5 C -0.4095(15) 0.6183(10) 0.4759(4)
H2 H -0.4009 0.7136 0.4926
C6 C -0.5857(16) 0.5224(11) 0.4916(4)
H3 H -0.7010 0.5539 0.5171
C7 C -0.5880(16) 0.3831(11) 0.4695(4)
H4 H -0.7035 0.3164 0.4810
C8 C -0.4235(15) 0.3359(10) 0.4301(3)
C9 C -0.4094(15) 0.1863(10) 0.4058(3)
C10 C -0.5675(15) 0.0751(11) 0.4171(4)
H5 H -0.6944 0.0947 0.4408
C11 C -0.5384(17) -0.0652(10) 0.3933(4)
H6 H -0.6462 -0.1412 0.3999
C12 C -0.3449(16) -0.0912(9) 0.3593(4)
H7 H -0.3193 -0.1866 0.3438
C13 C -0.1931(17) 0.0206(9) 0.3483(4)
H8 H -0.0663 0.0012 0.3245
Pd1B Pd 0.02674(10) 0.84400(7) 0.14350(3)
Tl1B Tl -0.32736(6) 0.36770(4) 0.251530(15)
Tl1B_2 Tl 0.67264(6) 0.36770(4) 0.251530(15)
N2B N 0.6980(16) 0.6885(10) 0.2296(4)
loop_
_geom_bond_atom_site_label_1
_geom_bond_atom_site_label_2
_geom_bond_site_symmetry_1
_geom_bond_site_symmetry_2
Pd1 N3 1_555 1_555
Tl1 N1 1_555 1_555
N1 C1 1_555 1_555
N2 C2 1_555 1_555
N3 C9 1_555 1_555
C1 Pd1 1_555 1_555
C2 Pd1 1_555 1_555
C3 Pd1 1_555 1_555
C4 C3 1_555 1_555
H1 C4 1_555 1_555
C5 C4 1_555 1_555
H2 C5 1_555 1_555
C6 C5 1_555 1_555
H3 C6 1_555 1_555
C7 C6 1_555 1_555
H4 C7 1_555 1_555
C8 C3 1_555 1_555
C9 C8 1_555 1_555
C10 C9 1_555 1_555
H5 C10 1_555 1_555
C11 C10 1_555 1_555
H6 C11 1_555 1_555
C12 C11 1_555 1_555
H7 C12 1_555 1_555
C13 N3 1_555 1_555
H8 C13 1_555 1_555
Pd1B Tl1 1_555 1_555
Tl1B Pd1 1_555 1_555
Tl1B_2 N2 1_555 1_555
N2B Tl1 1_555 1_555
C7 C8 1_555 1_555
C12 C13 1_555 1_555

#END
