
#######################################################################
#
#                 Cambridge Crystallographic Data Centre
#                                CCDC 
#
#######################################################################
#
# If this CIF has been generated from an entry in the Cambridge 
# Structural Database, then it will include bibliographic, chemical, 
# crystal, experimental, refinement or atomic coordinate data resulting 
# from the CCDC's data processing and validation procedures.
#
#######################################################################

data_REJKUN
_symmetry_cell_setting           monoclinic
_symmetry_space_group_name_H-M   'C 2/c'
_symmetry_Int_Tables_number      15
_space_group_name_Hall           '-C 2yn'
loop_
_symmetry_equiv_pos_site_id
_symmetry_equiv_pos_as_xyz
1 x,y,z
2 1/2+x,1/2+y,z
3 -x,y,1/2-z
4 1/2-x,1/2+y,1/2-z
5 -x,-y,-z
6 1/2-x,1/2-y,-z
7 x,-y,1/2+z
8 1/2+x,1/2-y,1/2+z
_cell_length_a                   11.123(9)
_cell_length_b                   12.780(9)
_cell_length_c                   8.133(6)
_cell_angle_alpha                90
_cell_angle_beta                 125.231(8)
_cell_angle_gamma                90
_cell_volume                     944.358
loop_
_atom_site_label
_atom_site_type_symbol
_atom_site_fract_x
_atom_site_fract_y
_atom_site_fract_z
N1 N 0.0403(2) 0.47372(15) -0.0035(3)
C1 C -0.0403(2) 0.52628(15) 0.0035(3)
N2 N 0.07092(15) 0.24695(12) -0.1808(2)
N3 N 0.11948(16) 0.14761(12) -0.1343(2)
Cu1 Cu 0.16909(2) 0.382730(18) -0.01211(4)
C2 C 0.0000 -0.2445(2) -0.2500
H1 H 0.0000 -0.3173 -0.2500
C3 C -0.0937(3) -0.19082(18) -0.4275(4)
H2 H -0.1553 -0.2276 -0.5469
C4 C -0.0964(2) -0.08230(16) -0.4286(3)
H3 H -0.1619 -0.0462 -0.5475
C5 C 0.0000 -0.0276(2) -0.2500
C6 C 0.0000 0.0872(2) -0.2500
N2D N -0.07092(15) 0.75305(12) 0.1808(2)
N2B N -0.07092(15) 0.24695(12) -0.3192(2)
N3A N -0.38052(16) 0.64761(12) -0.1343(2)
N3E N 0.38052(16) 0.35239(12) 0.1343(2)
N3B N -0.11948(16) 0.14761(12) -0.3657(2)
Cu1D Cu -0.16909(2) 0.617270(18) 0.01211(4)
Cu1B Cu -0.16909(2) 0.382730(18) -0.48789(4)
Cu1E Cu 0.33091(2) 0.117270(18) 0.01211(4)
Cu1G Cu -0.33091(2) 0.117270(18) -0.51211(4)
C3B C 0.0937(3) -0.19082(18) -0.0725(4)
H2B H 0.1553 -0.2276 0.0469
C4B C 0.0964(2) -0.08230(16) -0.0714(3)
H3B H 0.1619 -0.0462 0.0475
loop_
_geom_bond_atom_site_label_1
_geom_bond_atom_site_label_2
_geom_bond_site_symmetry_1
_geom_bond_site_symmetry_2
N1 C1 1_555 1_555
C1 Cu1D 1_555 1_555
N2 N3 1_555 1_555
N3 C6 1_555 1_555
Cu1 N1 1_555 1_555
C2 H1 1_555 1_555
C3 C2 1_555 1_555
H2 C3 1_555 1_555
C4 C3 1_555 1_555
H3 C4 1_555 1_555
C5 C4 1_555 1_555
C6 C5 1_555 1_555
N2D Cu1D 1_555 1_555
N2B N2 1_555 1_555
N3A Cu1D 1_555 1_555
N3E Cu1 1_555 1_555
N3B C6 1_555 1_555
Cu1B N2B 1_555 1_555
Cu1E N3 1_555 1_555
Cu1G N3B 1_555 1_555
C3B C2 1_555 1_555
H2B C3B 1_555 1_555
C4B C5 1_555 1_555
H3B C4B 1_555 1_555
N2 Cu1 1_555 1_555
N2B N3B 1_555 1_555
C3B C4B 1_555 1_555

#END
