
#######################################################################
#
#                 Cambridge Crystallographic Data Centre
#                                CCDC 
#
#######################################################################
#
# If this CIF has been generated from an entry in the Cambridge 
# Structural Database, then it will include bibliographic, chemical, 
# crystal, experimental, refinement or atomic coordinate data resulting 
# from the CCDC's data processing and validation procedures.
#
#######################################################################

data_REJKIB
_symmetry_cell_setting           triclinic
_symmetry_space_group_name_H-M   'P -1'
_symmetry_Int_Tables_number      2
_space_group_name_Hall           '-P 1'
loop_
_symmetry_equiv_pos_site_id
_symmetry_equiv_pos_as_xyz
1 x,y,z
2 -x,-y,-z
_cell_length_a                   11.1042(2)
_cell_length_b                   11.2046(3)
_cell_length_c                   13.7862(2)
_cell_angle_alpha                69.565(3)
_cell_angle_beta                 74.170(1)
_cell_angle_gamma                65.069(3)
_cell_volume                     1441.52
loop_
_atom_site_label
_atom_site_type_symbol
_atom_site_fract_x
_atom_site_fract_y
_atom_site_fract_z
Cu1 Cu 0.43106(5) 0.77049(6) -0.39298(4)
Cu2 Cu 0.57535(5) 0.68575(6) -0.06759(4)
Cu3 Cu 0.78466(5) 0.64833(5) 0.11355(4)
Cu4 Cu 0.90756(5) 0.56660(5) -0.55120(4)
Cu5 Cu -0.03524(5) 1.06627(5) -0.43257(4)
Cu6 Cu -0.34868(5) 1.00368(6) -0.09759(4)
N1 N 0.8436(3) 0.6721(3) -0.0383(2)
N2 N 0.7655(3) 0.6791(4) -0.1063(2)
N3 N 0.9575(3) 0.6874(3) -0.1942(2)
N4 N 1.0638(4) 0.6977(4) -0.2748(3)
H1 H 1.1352 0.6978 -0.2619
H2 H 1.0578 0.7039 -0.3374
N5 N 0.5199(3) 0.6575(4) 0.0846(3)
N6 N 0.6030(4) 0.6306(4) 0.1555(3)
N7 N 0.4101(4) 0.6238(4) 0.2407(3)
N8 N 0.3019(6) 0.6164(6) 0.3199(5)
H3 H 0.3098 0.6013 0.3838
H4 H 0.2272 0.6269 0.3047
N9 N -0.3625(3) 0.9816(4) 0.0540(3)
N10 N -0.4775(3) 0.9807(4) 0.1289(3)
N11 N -0.3190(4) 0.9575(4) 0.2053(3)
N12 N -0.2445(5) 0.9431(5) 0.2779(3)
H5 H -0.2804 0.9388 0.3421
H6 H -0.1625 0.9384 0.2584
N13 N 0.2600(3) 0.8738(4) -0.4364(3)
N14 N 0.4296(4) 0.7270(4) -0.2396(3)
N15 N 0.9135(4) 0.6109(4) -0.7064(3)
N16 N 0.9653(4) 0.3564(5) -0.4843(3)
N17 N -0.1372(4) 1.0279(4) -0.2884(3)
C1 C 0.9578(4) 0.6773(4) -0.0938(3)
C2 C 0.8373(4) 0.6889(4) -0.2000(3)
C3 C 1.0738(4) 0.6753(5) -0.0579(4)
H7 H 1.0537 0.6676 0.0158
H8 H 1.0903 0.7584 -0.0950
H9 H 1.1520 0.5987 -0.0715
C4 C 0.7995(4) 0.6958(5) -0.2971(3)
H10 H 0.7101 0.6954 -0.2830
H11 H 0.8610 0.6183 -0.3222
H12 H 0.8028 0.7783 -0.3492
C5 C 0.5328(5) 0.6101(5) 0.2500(3)
C6 C 0.4052(4) 0.6507(5) 0.1373(4)
C7 C 0.2872(5) 0.6679(6) 0.0969(5)
H13 H 0.3064 0.6852 0.0221
H14 H 0.2116 0.7436 0.1154
H15 H 0.2666 0.5862 0.1269
C8 C 0.5797(7) 0.5709(7) 0.3509(4)
H16 H 0.6703 0.5676 0.3384
H17 H 0.5766 0.4827 0.3909
H18 H 0.5228 0.6371 0.3891
C9 C -0.4475(4) 0.9667(4) 0.2193(3)
C10 C -0.2703(4) 0.9675(4) 0.1030(4)
C11 C -0.5347(5) 0.9624(6) 0.3210(4)
H19 H -0.6211 0.9694 0.3136
H20 H -0.5449 1.0373 0.3451
H21 H -0.4950 0.8778 0.3707
C12 C -0.1322(5) 0.9641(5) 0.0567(4)
H22 H -0.1187 0.9728 -0.0169
H23 H -0.0686 0.8790 0.0900
H24 H -0.1197 1.0383 0.0670
C13 C 0.1539(4) 0.9340(4) -0.4580(3)
C14 C 0.4769(4) 0.7092(5) -0.1689(4)
C15 C 0.8730(4) 0.6301(4) -0.7806(3)
C16 C 0.9563(4) 0.2554(3) -0.4697(3)
C17 C -0.2098(4) 1.0182(4) -0.2124(3)
N18 N 0.6105(4) 0.7067(5) -0.4628(3)
C18 C 0.7207(3) 0.6656(4) -0.4989(3)
Cu3_2 Cu 0.78466(5) 0.64833(5) -0.88645(4)
Cu4A Cu 1.09244(5) 0.43340(5) -0.44880(4)
Cu5A Cu 0.03524(5) 0.93373(5) -0.56743(4)
Cu5_2 Cu 0.96476(5) 0.06627(5) -0.43257(4)
Cu6A Cu -0.65132(5) 0.99632(6) 0.09759(4)
N10A N -0.5225(3) 1.0193(4) -0.1289(3)
N16A N 1.0347(4) 0.6436(5) -0.5157(3)
C13A C -0.1539(4) 1.0660(4) -0.5420(3)
C15_2 C 0.8730(4) 0.6301(4) 0.2194(3)
C16_2 C -0.0437(4) 1.2554(3) -0.4697(3)
loop_
_geom_bond_atom_site_label_1
_geom_bond_atom_site_label_2
_geom_bond_site_symmetry_1
_geom_bond_site_symmetry_2
Cu1 N13 1_555 1_555
Cu2 N2 1_555 1_555
Cu3 N1 1_555 1_555
Cu4 N15 1_555 1_555
Cu5 N17 1_555 1_555
Cu6 N9 1_555 1_555
N1 N2 1_555 1_555
N2 C2 1_555 1_555
N3 N4 1_555 1_555
N4 H1 1_555 1_555
H2 N4 1_555 1_555
N5 Cu2 1_555 1_555
N6 Cu3 1_555 1_555
N7 N8 1_555 1_555
N8 H3 1_555 1_555
H4 N8 1_555 1_555
N9 N10 1_555 1_555
N10 C9 1_555 1_555
N11 N12 1_555 1_555
N12 H5 1_555 1_555
H6 N12 1_555 1_555
N13 C13 1_555 1_555
N14 Cu1 1_555 1_555
N15 C15 1_555 1_555
N16 Cu4 1_555 1_555
N17 C17 1_555 1_555
C1 N1 1_555 1_555
C2 N3 1_555 1_555
C3 C1 1_555 1_555
H7 C3 1_555 1_555
H8 C3 1_555 1_555
H9 C3 1_555 1_555
C4 C2 1_555 1_555
H10 C4 1_555 1_555
H11 C4 1_555 1_555
H12 C4 1_555 1_555
C5 N6 1_555 1_555
C6 N5 1_555 1_555
C7 C6 1_555 1_555
H13 C7 1_555 1_555
H14 C7 1_555 1_555
H15 C7 1_555 1_555
C8 C5 1_555 1_555
H16 C8 1_555 1_555
H17 C8 1_555 1_555
H18 C8 1_555 1_555
C9 N11 1_555 1_555
C10 N9 1_555 1_555
C11 C9 1_555 1_555
H19 C11 1_555 1_555
H20 C11 1_555 1_555
H21 C11 1_555 1_555
C12 C10 1_555 1_555
H22 C12 1_555 1_555
H23 C12 1_555 1_555
H24 C12 1_555 1_555
C13 Cu5 1_555 1_555
C14 Cu2 1_555 1_555
C15 Cu3_2 1_555 1_555
C16 N16 1_555 1_555
C17 Cu6 1_555 1_555
N18 Cu1 1_555 1_555
C18 Cu4 1_555 1_555
Cu4A N16 1_555 1_555
Cu5A C13 1_555 1_555
Cu5_2 C16 1_555 1_555
Cu6A N10 1_555 1_555
N10A Cu6 1_555 1_555
N16A Cu4 1_555 1_555
C13A Cu5 1_555 1_555
C15_2 Cu3 1_555 1_555
C16_2 Cu5 1_555 1_555
N3 C1 1_555 1_555
N5 N6 1_555 1_555
N7 C5 1_555 1_555
N7 C6 1_555 1_555
N11 C10 1_555 1_555
N14 C14 1_555 1_555
N18 C18 1_555 1_555
Cu4A N16A 1_555 1_555
Cu5A C13A 1_555 1_555

#END
