
#######################################################################
#
#                 Cambridge Crystallographic Data Centre
#                                CCDC 
#
#######################################################################
#
# If this CIF has been generated from an entry in the Cambridge 
# Structural Database, then it will include bibliographic, chemical, 
# crystal, experimental, refinement or atomic coordinate data resulting 
# from the CCDC's data processing and validation procedures.
#
#######################################################################

data_REJPIH
_symmetry_cell_setting           triclinic
_symmetry_space_group_name_H-M   'P -1'
_symmetry_Int_Tables_number      2
_space_group_name_Hall           '-P 1'
loop_
_symmetry_equiv_pos_site_id
_symmetry_equiv_pos_as_xyz
1 x,y,z
2 -x,-y,-z
_cell_length_a                   17.44(3)
_cell_length_b                   17.54(4)
_cell_length_c                   18.13(3)
_cell_angle_alpha                100.28(8)
_cell_angle_beta                 101.91(6)
_cell_angle_gamma                118.80(6)
_cell_volume                     4498.66
loop_
_atom_site_label
_atom_site_type_symbol
_atom_site_fract_x
_atom_site_fract_y
_atom_site_fract_z
Zn1 Zn 0.5000 1.5000 0.5000
O1 O 0.2888(2) 1.0275(2) 0.2345(2)
N1 N 0.4978(3) 1.3542(3) 0.3778(3)
C1 C 0.0900(3) 0.8072(3) 0.0863(3)
O2 O 0.3668(3) 0.9295(2) 0.2269(3)
N2 N 0.3063(2) 0.4100(2) 0.3808(2)
C2 C 0.1477(4) 0.9001(3) 0.1353(3)
H1 H 0.1233 0.9383 0.1374
O3 O 0.12296(19) 0.50850(18) 0.23396(16)
N3 N -0.4494(4) 0.5989(2) 0.3773(3)
C3 C 0.2347(4) 0.9347(3) 0.1782(3)
O4 O -0.0523(3) 0.4280(2) 0.2305(2)
C4 C 0.2746(3) 0.8869(3) 0.1799(3)
O5 O -0.2266(3) 0.6775(2) 0.2362(2)
C5 C 0.2209(3) 0.7922(3) 0.1297(3)
H2 H 0.2484 0.7568 0.1280
O6 O -0.1353(2) 0.8502(3) 0.2367(3)
C6 C 0.1291(3) 0.7534(3) 0.0841(2)
O7 O 0.3359(5) 1.0766(3) 0.1341(3)
C7 C 0.0769(3) 0.6536(3) 0.0374(3)
H3 H 0.1201 0.6395 0.0199
H4 H 0.0279 0.6404 -0.0109
O8 O 0.54974(17) 1.43772(17) 0.43053(16)
C8 C 0.0312(4) 0.5895(2) 0.0851(2)
O9 O 0.0758(3) 0.3745(2) 0.14296(19)
C9 C 0.0896(3) 0.5728(2) 0.1302(2)
H5 H 0.1511 0.5979 0.1289
O10 O 0.36187(16) 0.39666(15) 0.43308(16)
C10 C 0.0609(4) 0.5200(3) 0.1777(3)
O11 O -0.3509(3) 0.6682(4) 0.1481(3)
C11 C -0.0294(5) 0.4791(3) 0.1762(3)
O12 O -0.49711(19) 0.58154(17) 0.4275(2)
C12 C -0.0871(3) 0.4964(3) 0.1301(3)
H6 H -0.1496 0.4695 0.1288
C13 C -0.0553(4) 0.5525(3) 0.0853(3)
C14 C -0.1238(3) 0.5713(2) 0.0378(2)
H7 H -0.1072 0.5850 -0.0094
H8 H -0.1870 0.5151 0.0183
C15 C -0.1252(3) 0.6483(3) 0.0842(3)
C16 C -0.1770(3) 0.6293(3) 0.1342(3)
H9 H -0.2115 0.5687 0.1364
C17 C -0.1777(3) 0.6968(4) 0.1789(3)
C18 C -0.1247(4) 0.7883(3) 0.1802(4)
C19 C -0.0691(4) 0.8083(4) 0.1361(4)
H10 H -0.0279 0.8702 0.1400
C20 C -0.0729(3) 0.7381(3) 0.0858(3)
C21 C -0.0097(3) 0.7689(3) 0.0378(3)
H11 H -0.0135 0.8167 0.0184
H12 H -0.0307 0.7161 -0.0091
C22 C 0.3396(4) 1.0896(4) 0.1991(5)
C23 C 0.3937(3) 1.1873(3) 0.2721(4)
C24 C 0.3869(3) 1.1938(3) 0.3446(4)
H13 H 0.3477 1.1413 0.3574
C25 C 0.4433(4) 1.2865(4) 0.4038(4)
H14 H 0.4416 1.2981 0.4564
C26 C 0.5004(4) 1.3456(4) 0.3052(4)
H15 H 0.5364 1.3976 0.2905
C27 C 0.4497(4) 1.2597(4) 0.2523(3)
H16 H 0.4536 1.2503 0.2003
C28 C 0.4076(4) 0.8752(4) 0.2248(5)
H17 H 0.3844 0.8330 0.2551
H18 H 0.4754 0.9158 0.2485
H19 H 0.3907 0.8397 0.1695
C29 C 0.1247(3) 0.4303(3) 0.2067(3)
C30 C 0.1902(3) 0.4264(3) 0.2728(3)
C31 C 0.2378(3) 0.4920(3) 0.3439(2)
H20 H 0.2304 0.5425 0.3564
C32 C 0.2986(3) 0.4827(3) 0.3987(3)
H21 H 0.3351 0.5287 0.4495
C33 C 0.2553(3) 0.3456(3) 0.3103(3)
H22 H 0.2614 0.2943 0.2981
C34 C 0.1952(3) 0.3512(3) 0.2558(2)
H23 H 0.1569 0.3032 0.2062
C35 C -0.1556(5) 0.3767(5) 0.2173(5)
H24 H -0.1705 0.4185 0.2449
H25 H -0.1727 0.3251 0.2383
H26 H -0.1906 0.3532 0.1601
C36 C -0.3104(7) 0.6620(4) 0.2089(5)
C37 C -0.3608(4) 0.6395(3) 0.2697(4)
C38 C -0.3152(4) 0.6391(3) 0.3424(4)
H27 H -0.2542 0.6507 0.3532
C39 C -0.3581(4) 0.6218(3) 0.3991(4)
H28 H -0.3265 0.6255 0.4503
C40 C -0.4924(4) 0.5997(4) 0.3106(4)
H29 H -0.5545 0.5849 0.2998
C41 C -0.4493(5) 0.6218(4) 0.2546(4)
H30 H -0.4804 0.6247 0.2065
C42 C -0.0810(5) 0.9441(4) 0.2414(5)
H31 H -0.0965 0.9496 0.1883
H32 H -0.0148 0.9663 0.2616
H33 H -0.0944 0.9811 0.2775
Zn1_2 Zn -0.5000 0.5000 0.5000
Zn1_3 Zn -0.5000 1.5000 0.5000
Zn1_4 Zn 0.5000 0.5000 0.5000
O1A O -0.2888(2) 0.9725(2) 0.7655(2)
N1A N -0.4978(3) 0.6458(3) 0.6222(3)
C1A C -0.0900(3) 1.1928(3) 0.9137(3)
O2A O -0.3668(3) 1.0705(2) 0.7731(3)
N2A N -0.3063(2) 1.5900(2) 0.6192(2)
C2A C -0.1477(4) 1.0999(3) 0.8647(3)
H1A H -0.1233 1.0617 0.8626
O3A O -0.12296(19) 1.49150(18) 0.76604(16)
N3A N 0.4494(4) 1.4011(2) 0.6227(3)
C3A C -0.2347(4) 1.0653(3) 0.8218(3)
O4A O 0.0523(3) 1.5720(2) 0.7695(2)
C4A C -0.2746(3) 1.1131(3) 0.8201(3)
O5A O 0.2266(3) 1.3225(2) 0.7638(2)
C5A C -0.2209(3) 1.2078(3) 0.8703(3)
H2A H -0.2484 1.2432 0.8720
O6A O 0.1353(2) 1.1498(3) 0.7633(3)
C6A C -0.1291(3) 1.2466(3) 0.9159(2)
O7A O -0.3359(5) 0.9234(3) 0.8659(3)
C7A C -0.0769(3) 1.3464(3) 0.9626(3)
H3A H -0.1201 1.3605 0.9801
H4A H -0.0279 1.3596 1.0109
O8A O -0.54974(17) 0.56228(17) 0.56947(16)
O8A_2 O 0.45026(17) 1.56228(17) 0.56947(16)
C8A C -0.0312(4) 1.4105(2) 0.9149(2)
O9A O -0.0758(3) 1.6255(2) 0.85704(19)
C9A C -0.0896(3) 1.4272(2) 0.8698(2)
H5A H -0.1511 1.4021 0.8711
O10A O -0.36187(16) 1.60334(15) 0.56692(16)
O10_2 O 0.36187(16) 1.39666(15) 0.43308(16)
O10A_2 O 0.63813(16) 1.60334(15) 0.56692(16)
C10A C -0.0609(4) 1.4800(3) 0.8223(3)
O11A O 0.3509(3) 1.3318(4) 0.8519(3)
C11A C 0.0294(5) 1.5209(3) 0.8238(3)
O12A O 0.49711(19) 1.41846(17) 0.5725(2)
O12_2 O 0.50289(19) 1.58154(17) 0.4275(2)
C12A C 0.0871(3) 1.5036(3) 0.8699(3)
H6A H 0.1496 1.5305 0.8712
C13A C 0.0553(4) 1.4475(3) 0.9147(3)
C14A C 0.1238(3) 1.4287(2) 0.9622(2)
H7A H 0.1072 1.4150 1.0094
H8A H 0.1870 1.4849 0.9817
C15A C 0.1252(3) 1.3517(3) 0.9158(3)
C16A C 0.1770(3) 1.3707(3) 0.8658(3)
H9A H 0.2115 1.4313 0.8636
C17A C 0.1777(3) 1.3032(4) 0.8211(3)
C18A C 0.1247(4) 1.2117(3) 0.8198(4)
C19A C 0.0691(4) 1.1917(4) 0.8639(4)
H10A H 0.0279 1.1298 0.8600
C20A C 0.0729(3) 1.2619(3) 0.9142(3)
C21A C 0.0097(3) 1.2311(3) 0.9622(3)
H11A H 0.0135 1.1833 0.9816
H12A H 0.0307 1.2839 1.0091
C22A C -0.3396(4) 0.9104(4) 0.8009(5)
C23A C -0.3937(3) 0.8127(3) 0.7279(4)
C24A C -0.3869(3) 0.8062(3) 0.6554(4)
H13A H -0.3477 0.8587 0.6426
C25A C -0.4433(4) 0.7135(4) 0.5962(4)
H14A H -0.4416 0.7019 0.5436
C26A C -0.5004(4) 0.6544(4) 0.6948(4)
H15A H -0.5364 0.6024 0.7095
C27A C -0.4497(4) 0.7403(4) 0.7477(3)
H16A H -0.4536 0.7497 0.7997
C28A C -0.4076(4) 1.1248(4) 0.7752(5)
H17A H -0.3844 1.1670 0.7449
H18A H -0.4754 1.0842 0.7515
H19A H -0.3907 1.1603 0.8305
C29A C -0.1247(3) 1.5697(3) 0.7933(3)
C30A C -0.1902(3) 1.5736(3) 0.7272(3)
C31A C -0.2378(3) 1.5080(3) 0.6561(2)
H20A H -0.2304 1.4575 0.6436
C32A C -0.2986(3) 1.5173(3) 0.6013(3)
H21A H -0.3351 1.4713 0.5505
C33A C -0.2553(3) 1.6544(3) 0.6897(3)
H22A H -0.2614 1.7057 0.7019
C34A C -0.1952(3) 1.6488(3) 0.7442(2)
H23A H -0.1569 1.6968 0.7938
C35A C 0.1556(5) 1.6233(5) 0.7827(5)
H24A H 0.1705 1.5815 0.7551
H25A H 0.1727 1.6749 0.7617
H26A H 0.1906 1.6468 0.8399
C36A C 0.3104(7) 1.3380(4) 0.7911(5)
C37A C 0.3608(4) 1.3605(3) 0.7303(4)
C38A C 0.3152(4) 1.3609(3) 0.6576(4)
H27A H 0.2542 1.3493 0.6468
C39A C 0.3581(4) 1.3782(3) 0.6009(4)
H28A H 0.3265 1.3745 0.5497
C40A C 0.4924(4) 1.4003(4) 0.6894(4)
H29A H 0.5545 1.4151 0.7002
C41A C 0.4493(5) 1.3782(4) 0.7454(4)
H30A H 0.4804 1.3753 0.7935
C42A C 0.0810(5) 1.0559(4) 0.7586(5)
H31A H 0.0965 1.0504 0.8117
H32A H 0.0148 1.0337 0.7384
H33A H 0.0944 1.0189 0.7225
loop_
_geom_bond_atom_site_label_1
_geom_bond_atom_site_label_2
_geom_bond_site_symmetry_1
_geom_bond_site_symmetry_2
Zn1 O8 1_555 1_555
O1 C3 1_555 1_555
N1 O8 1_555 1_555
C1 C2 1_555 1_555
O2 C4 1_555 1_555
N2 O10 1_555 1_555
C2 H1 1_555 1_555
O3 C10 1_555 1_555
N3 O12 1_555 1_555
C3 C2 1_555 1_555
O4 C11 1_555 1_555
C4 C3 1_555 1_555
O5 C17 1_555 1_555
C5 C4 1_555 1_555
H2 C5 1_555 1_555
O6 C18 1_555 1_555
C6 C1 1_555 1_555
O7 C22 1_555 1_555
C7 C6 1_555 1_555
H3 C7 1_555 1_555
H4 C7 1_555 1_555
C8 C7 1_555 1_555
O9 C29 1_555 1_555
C9 C8 1_555 1_555
H5 C9 1_555 1_555
O10 Zn1_4 1_555 1_555
C10 C9 1_555 1_555
O11 C36 1_555 1_555
C11 C10 1_555 1_555
O12 Zn1_2 1_555 1_555
C12 C11 1_555 1_555
H6 C12 1_555 1_555
C13 C8 1_555 1_555
C14 C13 1_555 1_555
H7 C14 1_555 1_555
H8 C14 1_555 1_555
C15 C14 1_555 1_555
C16 C15 1_555 1_555
H9 C16 1_555 1_555
C17 C16 1_555 1_555
C18 C17 1_555 1_555
C19 C18 1_555 1_555
H10 C19 1_555 1_555
C20 C15 1_555 1_555
C21 C1 1_555 1_555
H11 C21 1_555 1_555
H12 C21 1_555 1_555
C22 O1 1_555 1_555
C23 C22 1_555 1_555
C24 C23 1_555 1_555
H13 C24 1_555 1_555
C25 N1 1_555 1_555
H14 C25 1_555 1_555
C26 N1 1_555 1_555
H15 C26 1_555 1_555
C27 C23 1_555 1_555
H16 C27 1_555 1_555
C28 O2 1_555 1_555
H17 C28 1_555 1_555
H18 C28 1_555 1_555
H19 C28 1_555 1_555
C29 O3 1_555 1_555
C30 C29 1_555 1_555
C31 C30 1_555 1_555
H20 C31 1_555 1_555
C32 N2 1_555 1_555
H21 C32 1_555 1_555
C33 N2 1_555 1_555
H22 C33 1_555 1_555
C34 C30 1_555 1_555
H23 C34 1_555 1_555
C35 O4 1_555 1_555
H24 C35 1_555 1_555
H25 C35 1_555 1_555
H26 C35 1_555 1_555
C36 O5 1_555 1_555
C37 C36 1_555 1_555
C38 C37 1_555 1_555
H27 C38 1_555 1_555
C39 N3 1_555 1_555
H28 C39 1_555 1_555
C40 N3 1_555 1_555
H29 C40 1_555 1_555
C41 C37 1_555 1_555
H30 C41 1_555 1_555
C42 O6 1_555 1_555
H31 C42 1_555 1_555
H32 C42 1_555 1_555
H33 C42 1_555 1_555
Zn1_2 O8A 1_555 1_555
Zn1_3 O10A 1_555 1_555
O1A C3A 1_555 1_555
N1A O8A 1_555 1_555
C1A C2A 1_555 1_555
O2A C4A 1_555 1_555
N2A O10A 1_555 1_555
C2A H1A 1_555 1_555
O3A C10A 1_555 1_555
N3A O12A 1_555 1_555
C3A C2A 1_555 1_555
O4A C11A 1_555 1_555
C4A C3A 1_555 1_555
O5A C17A 1_555 1_555
C5A C4A 1_555 1_555
H2A C5A 1_555 1_555
O6A C18A 1_555 1_555
C6A C1A 1_555 1_555
O7A C22A 1_555 1_555
C7A C6A 1_555 1_555
H3A C7A 1_555 1_555
H4A C7A 1_555 1_555
O8A_2 Zn1 1_555 1_555
C8A C7A 1_555 1_555
O9A C29A 1_555 1_555
C9A C8A 1_555 1_555
H5A C9A 1_555 1_555
O10_2 Zn1 1_555 1_555
O10A_2 Zn1 1_555 1_555
C10A C9A 1_555 1_555
O11A C36A 1_555 1_555
C11A C10A 1_555 1_555
O12A Zn1 1_555 1_555
O12_2 Zn1 1_555 1_555
C12A C11A 1_555 1_555
H6A C12A 1_555 1_555
C13A C8A 1_555 1_555
C14A C13A 1_555 1_555
H7A C14A 1_555 1_555
H8A C14A 1_555 1_555
C15A C14A 1_555 1_555
C16A C15A 1_555 1_555
H9A C16A 1_555 1_555
C17A C16A 1_555 1_555
C18A C17A 1_555 1_555
C19A C18A 1_555 1_555
H10A C19A 1_555 1_555
C20A C15A 1_555 1_555
C21A C1A 1_555 1_555
H11A C21A 1_555 1_555
H12A C21A 1_555 1_555
C22A O1A 1_555 1_555
C23A C22A 1_555 1_555
C24A C23A 1_555 1_555
H13A C24A 1_555 1_555
C25A N1A 1_555 1_555
H14A C25A 1_555 1_555
C26A N1A 1_555 1_555
H15A C26A 1_555 1_555
C27A C23A 1_555 1_555
H16A C27A 1_555 1_555
C28A O2A 1_555 1_555
H17A C28A 1_555 1_555
H18A C28A 1_555 1_555
H19A C28A 1_555 1_555
C29A O3A 1_555 1_555
C30A C29A 1_555 1_555
C31A C30A 1_555 1_555
H20A C31A 1_555 1_555
C32A N2A 1_555 1_555
H21A C32A 1_555 1_555
C33A N2A 1_555 1_555
H22A C33A 1_555 1_555
C34A C30A 1_555 1_555
H23A C34A 1_555 1_555
C35A O4A 1_555 1_555
H24A C35A 1_555 1_555
H25A C35A 1_555 1_555
H26A C35A 1_555 1_555
C36A O5A 1_555 1_555
C37A C36A 1_555 1_555
C38A C37A 1_555 1_555
H27A C38A 1_555 1_555
C39A N3A 1_555 1_555
H28A C39A 1_555 1_555
C40A N3A 1_555 1_555
H29A C40A 1_555 1_555
C41A C37A 1_555 1_555
H30A C41A 1_555 1_555
C42A O6A 1_555 1_555
H31A C42A 1_555 1_555
H32A C42A 1_555 1_555
H33A C42A 1_555 1_555
C5 C6 1_555 1_555
C12 C13 1_555 1_555
C19 C20 1_555 1_555
C20 C21 1_555 1_555
C24 C25 1_555 1_555
C26 C27 1_555 1_555
C31 C32 1_555 1_555
C33 C34 1_555 1_555
C38 C39 1_555 1_555
C40 C41 1_555 1_555
C5A C6A 1_555 1_555
C12A C13A 1_555 1_555
C19A C20A 1_555 1_555
C20A C21A 1_555 1_555
C24A C25A 1_555 1_555
C26A C27A 1_555 1_555
C31A C32A 1_555 1_555
C33A C34A 1_555 1_555
C38A C39A 1_555 1_555
C40A C41A 1_555 1_555

#END
