
#######################################################################
#
#                 Cambridge Crystallographic Data Centre
#                                CCDC 
#
#######################################################################
#
# If this CIF has been generated from an entry in the Cambridge 
# Structural Database, then it will include bibliographic, chemical, 
# crystal, experimental, refinement or atomic coordinate data resulting 
# from the CCDC's data processing and validation procedures.
#
#######################################################################

data_REJPUT
_symmetry_cell_setting           triclinic
_symmetry_space_group_name_H-M   'P -1'
_symmetry_Int_Tables_number      2
_space_group_name_Hall           '-P 1'
loop_
_symmetry_equiv_pos_site_id
_symmetry_equiv_pos_as_xyz
1 x,y,z
2 -x,-y,-z
_cell_length_a                   18.1713(19)
_cell_length_b                   21.487(2)
_cell_length_c                   24.177(2)
_cell_angle_alpha                84.788(4)
_cell_angle_beta                 80.734(4)
_cell_angle_gamma                80.361(4)
_cell_volume                     9165.31
loop_
_atom_site_label
_atom_site_type_symbol
_atom_site_fract_x
_atom_site_fract_y
_atom_site_fract_z
B1 B 0.2657(5) 0.3566(5) 0.5465(4)
F9 F 0.2200(10) 0.4030(8) 0.5809(7)
F10 F 0.2543(9) 0.3712(8) 0.4927(7)
F11 F 0.2679(9) 0.2948(10) 0.5646(9)
F12 F 0.346(3) 0.372(2) 0.5434(17)
Cu3 Cu 0.53959(6) 0.68202(5) 0.71382(5)
N7 N 0.7051(4) 0.7991(4) 0.6583(4)
N8 N 0.6401(4) 0.5432(4) 0.6042(3)
N9 N 0.4550(6) 0.7716(5) 0.8617(4)
N10 N 0.3569(7) 0.8007(9) 0.6812(6)
O25 O 0.6181(3) 0.7383(3) 0.7031(3)
O26 O 0.6056(3) 0.6222(3) 0.6643(3)
O27 O 0.4826(3) 0.7327(3) 0.7747(3)
O28 O 0.4649(3) 0.7350(3) 0.6573(3)
O29 O 0.4857(4) 0.6126(4) 0.7478(4)
C85 C 0.6513(5) 0.7632(4) 0.6574(4)
C86 C 0.6382(6) 0.7591(5) 0.6005(4)
H67 H 0.5865 0.7799 0.5956
H68 H 0.6440 0.7143 0.5916
C87 C 0.6979(5) 0.7933(4) 0.5618(5)
H69 H 0.7355 0.7625 0.5399
H70 H 0.6734 0.8249 0.5353
C88 C 0.7354(6) 0.8254(5) 0.6006(5)
H71 H 0.7911 0.8146 0.5927
H72 H 0.7212 0.8720 0.5967
C89 C 0.7301(6) 0.8155(5) 0.7083(6)
H73 H 0.7665 0.7804 0.7212
H74 H 0.6866 0.8236 0.7378
H75 H 0.7541 0.8535 0.6996
C90 C 0.5920(5) 0.5918(4) 0.6247(4)
C91 C 0.5220(8) 0.6030(6) 0.5972(7)
H76 H 0.5187 0.6433 0.5738
H77 H 0.4761 0.6040 0.6256
C92 C 0.5320(9) 0.5458(8) 0.5606(8)
H78 H 0.4983 0.5152 0.5777
H79 H 0.5203 0.5599 0.5224
C93 C 0.6154(7) 0.5156(5) 0.5584(5)
H80 H 0.6204 0.4690 0.5645
H81 H 0.6451 0.5264 0.5218
C94 C 0.7146(6) 0.5210(6) 0.6199(5)
H82 H 0.7102 0.4909 0.6529
H83 H 0.7362 0.5570 0.6289
H84 H 0.7475 0.5000 0.5886
C95 C 0.4999(6) 0.7410(5) 0.8194(5)
C96 C 0.5740(7) 0.7142(7) 0.8427(5)
H85 H 0.6171 0.7329 0.8212
H86 H 0.5853 0.6676 0.8414
C97 C 0.5572(10) 0.7342(10) 0.9050(6)
H87 H 0.5521 0.6967 0.9315
H88 H 0.5989 0.7544 0.9136
C98 C 0.4862(9) 0.7793(8) 0.9104(6)
H89 H 0.4520 0.7688 0.9450
H90 H 0.4959 0.8232 0.9111
C99 C 0.3755(9) 0.8065(7) 0.8507(7)
H91 H 0.3375 0.7973 0.8828
H92 H 0.3630 0.7919 0.8166
H93 H 0.3761 0.8522 0.8459
C100 C 0.3976(6) 0.7541(7) 0.6724(5)
C101 C 0.3355(8) 0.7005(9) 0.6781(8)
H94 H 0.3494 0.6703 0.6483
H95 H 0.3309 0.6772 0.7154
C102 C 0.2653(14) 0.7467(10) 0.6703(13)
H96 H 0.2196 0.7299 0.6894
H97 H 0.2613 0.7560 0.6300
C103 C 0.2760(7) 0.8062(7) 0.6975(6)
H98 H 0.2487 0.8455 0.6811
H99 H 0.2613 0.8033 0.7388
C104 C 0.3827(16) 0.8593(9) 0.6837(10)
H100 H 0.4347 0.8511 0.6919
H101 H 0.3502 0.8834 0.7134
H102 H 0.3811 0.8837 0.6476
B2 B 0.6896(8) 0.9749(6) 0.2189(6)
F5 F 0.6442(5) 1.0325(4) 0.2177(4)
F6 F 0.7043(6) 0.9602(5) 0.1639(4)
F7 F 0.7577(6) 0.9783(5) 0.2355(4)
F8 F 0.6523(4) 0.9302(3) 0.2535(3)
F1 F 0.7887(16) 0.4392(12) 0.2130(10)
F2 F 0.8207(9) 0.3398(8) 0.2282(6)
F3 F 0.9106(6) 0.3882(5) 0.1812(4)
F4 F 0.8655(10) 0.4098(8) 0.2667(7)
B3 B 0.8485(18) 0.3938(15) 0.2120(13)
N11 N 0.8944(4) 0.6261(4) 0.2690(3)
O30 O 0.9019(5) 0.6376(4) 0.1727(3)
C105 C 0.9142(5) 0.6520(5) 0.2199(4)
C106 C 0.9596(6) 0.7030(6) 0.2255(4)
H103 H 0.9308 0.7455 0.2183
H104 H 1.0077 0.6982 0.1993
C107 C 0.9739(6) 0.6923(6) 0.2877(4)
H105 H 1.0258 0.6701 0.2900
H106 H 0.9668 0.7331 0.3053
C108 C 0.9167(6) 0.6524(6) 0.3158(4)
H107 H 0.9392 0.6186 0.3414
H108 H 0.8732 0.6784 0.3373
C109 C 0.8439(6) 0.5778(6) 0.2793(5)
H109 H 0.8245 0.5731 0.2446
H110 H 0.8017 0.5908 0.3086
H111 H 0.8722 0.5372 0.2915
N12 N 0.8101(13) 0.8009(13) 0.0609(9)
O31 O 0.7218(10) 0.8565(8) 0.0068(7)
C110 C 0.7717(9) 0.8511(8) 0.0351(6)
C111 C 0.804(2) 0.886(2) 0.0523(14)
H112 H 0.7633 0.9167 0.0710
H113 H 0.8261 0.9087 0.0180
C112 C 0.8599(17) 0.8784(14) 0.0870(12)
H114 H 0.9084 0.8894 0.0670
H115 H 0.8438 0.9022 0.1212
C113 C 0.8618(16) 0.8168(14) 0.0976(12)
H116 H 0.8436 0.8066 0.1377
H117 H 0.9136 0.7938 0.0878
C114 C 0.800(3) 0.745(2) 0.0551(18)
H118 H 0.7554 0.7351 0.0812
H119 H 0.8443 0.7148 0.0633
H120 H 0.7917 0.7412 0.0165
N13 N 0.6079(8) 0.7958(5) 0.2420(6)
O32 O 0.5224(6) 0.8138(4) 0.3178(4)
C115 C 0.5842(10) 0.7973(6) 0.2957(7)
C116 C 0.6572(10) 0.7717(7) 0.3276(7)
H121 H 0.6709 0.8038 0.3494
H122 H 0.6536 0.7315 0.3505
C117 C 0.7048(18) 0.7639(11) 0.2711(13)
H123 H 0.7505 0.7817 0.2750
H124 H 0.7212 0.7176 0.2708
C118 C 0.6958(9) 0.7801(7) 0.2203(6)
H125 H 0.7098 0.7449 0.1950
H126 H 0.7193 0.8174 0.2042
C119 C 0.5687(11) 0.8259(8) 0.1975(6)
H127 H 0.5149 0.8368 0.2118
H128 H 0.5752 0.7970 0.1673
H129 H 0.5893 0.8645 0.1828
N14 N 0.4653(16) 0.6048(13) 0.3033(10)
O33 O 0.4642(10) 0.5064(8) 0.2800(7)
C120 C 0.519(2) 0.5404(17) 0.2902(14)
C121 C 0.5821(7) 0.5549(6) 0.2604(5)
H130 H 0.5752 0.5650 0.2206
H131 H 0.6230 0.5183 0.2622
C122 C 0.6020(10) 0.6080(8) 0.2825(8)
H132 H 0.6385 0.6281 0.2546
H133 H 0.6251 0.5948 0.3170
C123 C 0.5309(15) 0.6526(13) 0.2954(11)
H134 H 0.5238 0.6851 0.2641
H135 H 0.5298 0.6739 0.3302
C124 C 0.3785(15) 0.6300(12) 0.3094(11)
H136 H 0.3634 0.6551 0.3423
H137 H 0.3506 0.5941 0.3139
H138 H 0.3673 0.6564 0.2757
N15 N 0.2474(9) 0.4106(8) 0.1865(8)
O34 O 0.2628(11) 0.4356(9) 0.0900(9)
C125 C 0.2694(13) 0.4368(11) 0.1383(11)
C126 C 0.3232(15) 0.4822(12) 0.1558(11)
H139 H 0.3772 0.4641 0.1464
H140 H 0.3143 0.5249 0.1367
C127 C 0.3046(18) 0.4843(14) 0.2072(13)
H141 H 0.2696 0.5238 0.2158
H142 H 0.3498 0.4837 0.2254
C128 C 0.2623(11) 0.4213(8) 0.2315(8)
H143 H 0.2971 0.3862 0.2473
H144 H 0.2167 0.4323 0.2594
C129 C 0.1968(17) 0.3661(14) 0.1841(14)
H145 H 0.2087 0.3290 0.2097
H146 H 0.2029 0.3528 0.1457
H147 H 0.1446 0.3862 0.1951
N16 N 0.9883(5) 0.2764(5) 0.3513(4)
O35 O 1.0856(5) 0.2054(6) 0.3749(5)
C130 C 1.0187(6) 0.2341(6) 0.3842(6)
C131 C 0.9648(10) 0.2259(10) 0.4363(7)
H148 H 0.9618 0.1805 0.4459
H149 H 0.9807 0.2436 0.4681
C132 C 0.8934(9) 0.2595(10) 0.4247(8)
H150 H 0.8663 0.2822 0.4577
H151 H 0.8617 0.2299 0.4153
C133 C 0.9109(8) 0.3058(7) 0.3752(8)
H152 H 0.8750 0.3082 0.3480
H153 H 0.9105 0.3486 0.3874
C134 C 1.0281(9) 0.3038(7) 0.2975(6)
H154 H 1.0298 0.3486 0.3011
H155 H 1.0007 0.2998 0.2666
H156 H 1.0796 0.2809 0.2899
N17 N 1.0606(12) 0.1760(9) 0.2114(9)
O36 O 1.089(2) 0.2348(17) 0.1309(15)
C135 C 1.0361(16) 0.2151(10) 0.1642(11)
C136 C 0.9520(14) 0.2077(10) 0.1784(9)
H157 H 0.9359 0.1887 0.1473
H158 H 0.9201 0.2493 0.1845
C137 C 0.9446(15) 0.1623(11) 0.2343(10)
H159 H 0.9229 0.1251 0.2269
H160 H 0.9088 0.1852 0.2638
C138 C 1.029(2) 0.1361(19) 0.2596(18)
H161 H 1.0307 0.1505 0.2969
H162 H 1.0466 0.0902 0.2575
C139 C 1.1393(13) 0.1838(11) 0.2031(10)
H163 H 1.1444 0.2224 0.2200
H164 H 1.1581 0.1872 0.1628
H165 H 1.1686 0.1472 0.2209
N18 N 0.8126(10) 0.0896(10) 0.4375(9)
O37 O 0.8584(11) 0.0420(9) 0.3606(9)
C140 C 0.8658(11) 0.0541(8) 0.4098(8)
C141 C 0.9238(13) 0.0396(11) 0.4470(10)
H166 H 0.9421 -0.0065 0.4478
H167 H 0.9670 0.0611 0.4301
C142 C 0.9043(16) 0.0551(13) 0.4977(12)
H168 H 0.9424 0.0778 0.5085
H169 H 0.9011 0.0167 0.5233
C143 C 0.8224(16) 0.1005(13) 0.5029(11)
H170 H 0.8251 0.1450 0.5089
H171 H 0.7837 0.0840 0.5314
C144 C 0.7418(6) 0.1046(5) 0.4220(5)
H172 H 0.7392 0.0802 0.3902
H173 H 0.7320 0.1499 0.4109
H174 H 0.7039 0.0944 0.4537
N19 N 0.9366(12) 0.1058(10) 0.8041(8)
O38 O 0.9354(16) 0.0066(13) 0.7681(11)
C145 C 0.966(3) 0.050(2) 0.785(2)
C146 C 1.0518(17) 0.0651(15) 0.7622(13)
H175 H 1.0882 0.0269 0.7703
H176 H 1.0573 0.0733 0.7209
C147 C 1.0691(19) 0.1103(16) 0.7826(15)
H177 H 1.0938 0.1395 0.7542
H178 H 1.0996 0.0975 0.8134
C148 C 0.9818(18) 0.1369(15) 0.8046(14)
H179 H 0.9786 0.1485 0.8437
H180 H 0.9678 0.1766 0.7818
C149 C 0.8539(15) 0.1214(13) 0.8208(11)
H181 H 0.8411 0.1655 0.8310
H182 H 0.8378 0.0933 0.8532
H183 H 0.8283 0.1158 0.7894
O39 O 0.6739(18) 0.1275(15) 0.7123(13)
O40 O 1.1380(12) 0.7007(10) 0.1684(8)
O41 O 0.7467(7) 0.2615(5) -0.1738(5)
Cu1 Cu 0.5000 0.0000 0.5000
O1 O 0.3813(4) 0.3229(4) -0.0549(3)
N1 N 1.0073(4) 0.3674(3) 0.0053(3)
C1 C 0.5070(5) 0.1675(5) -0.0597(4)
Cu2 Cu 1.0000 0.5000 0.0000
O2 O 0.5128(5) 0.3626(5) -0.1017(5)
N2 N 0.4494(3) -0.0058(3) 0.3950(3)
C2 C 0.4431(5) 0.2152(5) -0.0516(4)
H1 H 0.3954 0.2033 -0.0366
O3 O 0.8278(4) 0.2211(3) 0.0107(3)
N3 N 1.0692(4) 0.5272(3) 0.1182(3)
C3 C 0.4478(5) 0.2779(6) -0.0648(5)
O4 O 0.8232(4) 0.1243(4) 0.0902(4)
N4 N 0.4805(3) 0.1579(3) 0.5006(3)
C4 C 0.5136(6) 0.2964(6) -0.0869(6)
O5 O 0.4864(4) 0.0178(3) 0.1872(3)
N5 N 0.1502(4) 0.4784(4) -0.0647(3)
C5 C 0.5795(7) 0.2509(6) -0.0974(6)
H2 H 0.6256 0.2637 -0.1152
O6 O 0.3582(4) 0.0740(4) 0.1481(3)
N6 N 1.3532(3) 0.0201(3) 0.5736(3)
C6 C 0.5764(6) 0.1873(5) -0.0817(5)
O7 O 0.3755(5) 0.3276(5) -0.1459(4)
C7 C 0.6504(5) 0.1427(5) -0.0904(4)
H3 H 0.6822 0.1585 -0.1241
H4 H 0.6399 0.1007 -0.0979
O8 O 0.9139(5) 0.1850(4) -0.0598(4)
C8 C 0.6950(5) 0.1342(5) -0.0413(4)
O9 O 0.4709(5) 0.1187(4) 0.2087(3)
C9 C 0.7415(5) 0.1780(5) -0.0374(5)
H5 H 0.7456 0.2118 -0.0654
O10 O 1.0491(3) 0.4120(3) 0.0142(3)
C10 C 0.7827(6) 0.1726(5) 0.0079(5)
O11 O 0.4374(3) -0.0257(3) 0.4489(2)
C11 C 0.7783(5) 0.1242(4) 0.0495(4)
O12 O 1.0115(3) 0.4687(2) 0.3208(2)
C12 C 0.7331(5) 0.0807(5) 0.0461(4)
H6 H 0.7298 0.0475 0.0748
O13 O 1.1339(3) 0.3924(3) 0.3540(2)
C13 C 0.6898(5) 0.0829(4) 0.0006(4)
O14 O 1.1077(3) 0.1580(3) 0.5693(3)
C14 C 0.6415(5) 0.0336(4) 0.0012(4)
H7 H 0.6680 -0.0071 0.0158
H8 H 0.6349 0.0285 -0.0379
O15 O 0.9688(4) 0.1286(3) 0.6155(3)
C15 C 0.5632(5) 0.0477(5) 0.0366(4)
O16 O 0.6685(3) 0.2985(3) 0.4955(3)
C16 C 0.5588(5) 0.0290(4) 0.0949(4)
H9 H 0.6029 0.0093 0.1098
O17 O 0.6753(3) 0.4048(3) 0.4219(3)
C17 C 0.4892(6) 0.0397(5) 0.1302(4)
O18 O 1.0981(3) 0.5333(3) 0.3217(2)
C18 C 0.4241(5) 0.0659(5) 0.1089(5)
O19 O 1.1298(4) 0.1675(4) 0.6563(3)
C19 C 0.4286(5) 0.0862(5) 0.0514(4)
H10 H 0.3844 0.1061 0.0368
O20 O 0.5675(3) 0.3570(3) 0.5430(4)
C20 C 0.4974(5) 0.0771(4) 0.0160(4)
O21 O 1.0734(4) 0.5342(3) 0.0631(2)
C21 C 0.4971(5) 0.0991(5) -0.0455(4)
H11 H 0.5381 0.0720 -0.0684
H12 H 0.4487 0.0928 -0.0563
O22 O 0.4432(3) 0.1110(3) 0.4956(3)
C22 C 0.3532(7) 0.3437(7) -0.0996(4)
O23 O 0.0848(3) 0.5202(3) -0.0578(2)
C23 C 0.5794(11) 0.3833(8) -0.1385(10)
H13 H 0.6150 0.3930 -0.1152
H14 H 0.5628 0.4212 -0.1618
H15 H 0.6043 0.3494 -0.1627
O24 O 1.4202(3) -0.0191(2) 0.5638(2)
C24 C 0.8923(5) 0.2214(5) -0.0244(4)
C25 C 0.9328(5) 0.2751(4) -0.0129(4)
C26 C 0.9806(7) 0.2969(5) -0.0558(5)
H16 H 0.9872 0.2799 -0.0915
C27 C 1.0213(6) 0.3456(5) -0.0475(4)
H17 H 1.0559 0.3619 -0.0767
C28 C 0.9612(6) 0.3465(4) 0.0481(4)
H18 H 0.9545 0.3633 0.0840
C29 C 0.9223(6) 0.2980(4) 0.0382(4)
H19 H 0.8884 0.2815 0.0678
C30 C 0.8196(9) 0.0745(7) 0.1358(7)
H20 H 0.7707 0.0822 0.1599
H21 H 0.8601 0.0748 0.1580
H22 H 0.8257 0.0333 0.1199
C31 C 0.4744(5) 0.0638(4) 0.2220(5)
C32 C 0.4665(5) 0.0374(4) 0.2829(4)
C33 C 0.4461(5) 0.0789(5) 0.3241(4)
H23 H 0.4377 0.1231 0.3140
C34 C 0.4377(5) 0.0584(4) 0.3792(4)
H24 H 0.4236 0.0882 0.4071
C35 C 0.4718(5) -0.0473(5) 0.3551(4)
H25 H 0.4824 -0.0912 0.3656
C36 C 0.4796(5) -0.0269(5) 0.2982(4)
H26 H 0.4937 -0.0567 0.2703
C37 C 0.2910(7) 0.1084(10) 0.1304(7)
H27 H 0.2980 0.1523 0.1194
H28 H 0.2490 0.1076 0.1613
H29 H 0.2797 0.0889 0.0983
C38 C 0.9463(4) 0.4498(3) 0.4745(3)
C39 C 0.9494(4) 0.4697(3) 0.4172(3)
H30 H 0.9080 0.4973 0.4047
C40 C 1.0127(4) 0.4493(3) 0.3787(3)
C41 C 1.0754(4) 0.4083(3) 0.3951(3)
C42 C 1.0722(4) 0.3882(4) 0.4523(3)
H31 H 1.1138 0.3602 0.4641
C43 C 1.0091(4) 0.4080(3) 0.4930(3)
C44 C 1.0134(4) 0.3864(3) 0.5526(3)
H32 H 0.9781 0.4166 0.5766
H33 H 1.0650 0.3879 0.5601
C45 C 0.9950(4) 0.3197(4) 0.5701(3)
C46 C 1.0561(4) 0.2697(4) 0.5624(3)
H34 H 1.1048 0.2785 0.5464
C47 C 1.0451(4) 0.2072(4) 0.5781(4)
C48 C 0.9728(5) 0.1918(4) 0.6006(4)
C49 C 0.9125(4) 0.2423(4) 0.6069(4)
H35 H 0.8633 0.2333 0.6213
C50 C 0.9225(4) 0.3050(3) 0.5927(3)
C51 C 0.8524(4) 0.3564(4) 0.6021(3)
H36 H 0.8177 0.3422 0.6349
H37 H 0.8685 0.3954 0.6116
C52 C 0.8098(4) 0.3723(3) 0.5539(3)
C53 C 0.7565(4) 0.3323(4) 0.5460(4)
H38 H 0.7495 0.2970 0.5719
C54 C 0.7157(4) 0.3440(4) 0.5022(4)
C55 C 0.7217(4) 0.3959(4) 0.4644(4)
C56 C 0.7727(4) 0.4359(4) 0.4700(3)
H39 H 0.7780 0.4712 0.4438
C57 C 0.8164(4) 0.4249(3) 0.5140(3)
C58 C 0.8730(4) 0.4706(4) 0.5143(3)
H40 H 0.8505 0.5140 0.5023
H41 H 0.8845 0.4713 0.5529
C59 C 1.0608(4) 0.5072(3) 0.2956(3)
C60 C 1.0628(4) 0.5148(4) 0.2345(3)
C61 C 1.0227(5) 0.4784(4) 0.2064(3)
H42 H 0.9928 0.4496 0.2273
C62 C 1.0280(5) 0.4858(4) 0.1484(3)
H43 H 1.0020 0.4613 0.1297
C63 C 1.1081(5) 0.5628(4) 0.1438(4)
H44 H 1.1370 0.5918 0.1219
C64 C 1.1053(5) 0.5566(4) 0.2020(3)
H45 H 1.1327 0.5812 0.2195
C65 C 1.1931(5) 0.3415(5) 0.3686(4)
H46 H 1.2168 0.3542 0.3986
H47 H 1.2313 0.3330 0.3355
H48 H 1.1711 0.3032 0.3815
C66 C 1.1478(5) 0.1461(4) 0.6124(4)
C67 C 0.8964(6) 0.1144(5) 0.6436(7)
H49 H 0.8733 0.1472 0.6694
H50 H 0.9035 0.0733 0.6648
H51 H 0.8633 0.1129 0.6157
C68 C 0.5951(5) 0.3099(4) 0.5191(4)
C69 C 0.5566(4) 0.2562(4) 0.5098(4)
C70 C 0.4803(5) 0.2597(4) 0.5320(4)
H52 H 0.4541 0.2963 0.5500
C71 C 0.4433(5) 0.2095(4) 0.5277(4)
H53 H 0.3917 0.2110 0.5437
C72 C 0.5546(4) 0.1552(4) 0.4781(4)
H54 H 0.5801 0.1189 0.4595
C73 C 0.5930(4) 0.2041(4) 0.4819(3)
H55 H 0.6444 0.2021 0.4654
C74 C 0.6873(8) 0.4530(7) 0.3814(6)
H56 H 0.6866 0.4921 0.3996
H57 H 0.6474 0.4594 0.3577
H58 H 0.7364 0.4420 0.3582
C75 C 0.1703(6) 0.4535(6) -0.1154(5)
H59 H 0.1396 0.4649 -0.1441
C76 C 0.2364(6) 0.4112(6) -0.1242(6)
H60 H 0.2512 0.3944 -0.1600
C77 C 0.2789(6) 0.3935(5) -0.0862(4)
C78 C 0.2610(7) 0.4184(6) -0.0368(5)
H61 H 0.2940 0.4077 -0.0094
C79 C 0.1936(5) 0.4606(6) -0.0244(4)
H62 H 0.1790 0.4763 0.0118
C80 C 1.3348(5) 0.0427(4) 0.6247(4)
H63 H 1.3681 0.0312 0.6518
C81 C 1.2654(5) 0.0840(4) 0.6383(4)
H64 H 1.2514 0.1003 0.6744
C82 C 1.2196(5) 0.0995(4) 0.5978(4)
C83 C 1.2385(5) 0.0733(4) 0.5454(4)
H65 H 1.2053 0.0828 0.5182
C84 C 1.3082(4) 0.0325(4) 0.5338(4)
H66 H 1.3227 0.0143 0.4986
Cu1_2 Cu 1.5000 0.0000 0.5000
Cu1_3 Cu -0.5000 0.0000 0.5000
O1A O 0.6187(4) -0.3229(4) 1.0549(3)
N1A N -0.0073(4) -0.3674(3) 0.9947(3)
C1A C 0.4930(5) -0.1675(5) 1.0597(4)
Cu2_2 Cu 0.0000 0.5000 0.0000
Cu2_3 Cu 0.0000 -0.5000 1.0000
Cu2_4 Cu 1.0000 -0.5000 1.0000
O2A O 0.4872(5) -0.3626(5) 1.1017(5)
N2A N 0.5506(3) 0.0058(3) 0.6050(3)
C2A C 0.5569(5) -0.2152(5) 1.0516(4)
H1A H 0.6046 -0.2033 1.0366
O3A O 0.1722(4) -0.2211(3) 0.9893(3)
N3_2 N 0.0692(4) 0.5272(3) 0.1182(3)
C3A C 0.5522(5) -0.2779(6) 1.0648(5)
O4A O 0.1768(4) -0.1243(4) 0.9098(4)
N4_2 N -0.5195(3) 0.1579(3) 0.5006(3)
C4A C 0.4864(6) -0.2964(6) 1.0869(6)
O5A O 0.5136(4) -0.0178(3) 0.8128(3)
N5A N 0.8498(4) -0.4784(4) 1.0647(3)
C5A C 0.4205(7) -0.2509(6) 1.0974(6)
H2A H 0.3744 -0.2637 1.1152
O6A O 0.6418(4) -0.0740(4) 0.8519(3)
N6_2 N 0.3532(3) 0.0201(3) 0.5736(3)
C6A C 0.4236(6) -0.1873(5) 1.0817(5)
O7A O 0.6245(5) -0.3276(5) 1.1459(4)
C7A C 0.3496(5) -0.1427(5) 1.0904(4)
H3A H 0.3178 -0.1585 1.1241
H4A H 0.3601 -0.1007 1.0979
O8A O 0.0861(5) -0.1850(4) 1.0598(4)
C8A C 0.3050(5) -0.1342(5) 1.0413(4)
O9A O 0.5291(5) -0.1187(4) 0.7913(3)
C9A C 0.2585(5) -0.1780(5) 1.0374(5)
H5A H 0.2544 -0.2118 1.0654
O10A O -0.0491(3) -0.4120(3) 0.9858(3)
O10A_2 O 0.9509(3) 0.5880(3) -0.0142(3)
C10A C 0.2173(6) -0.1726(5) 0.9921(5)
O11A O 0.5626(3) 0.0257(3) 0.5511(2)
C11A C 0.2217(5) -0.1242(4) 0.9505(4)
O12_2 O 0.0115(3) 0.4687(2) 0.3208(2)
C12A C 0.2669(5) -0.0807(5) 0.9539(4)
H6A H 0.2702 -0.0475 0.9252
O13_2 O 0.1339(3) 0.3924(3) 0.3540(2)
C13A C 0.3102(5) -0.0829(4) 0.9994(4)
O14_2 O 0.1077(3) 0.1580(3) 0.5693(3)
C14A C 0.3585(5) -0.0336(4) 0.9988(4)
H7A H 0.3320 0.0071 0.9842
H8A H 0.3651 -0.0285 1.0379
O15_2 O -0.0312(4) 0.1286(3) 0.6155(3)
C15A C 0.4368(5) -0.0477(5) 0.9634(4)
O16_2 O -0.3315(3) 0.2985(3) 0.4955(3)
C16A C 0.4412(5) -0.0290(4) 0.9051(4)
H9A H 0.3971 -0.0093 0.8902
O17_2 O -0.3247(3) 0.4048(3) 0.4219(3)
C17A C 0.5108(6) -0.0397(5) 0.8698(4)
O18_2 O 0.0981(3) 0.5333(3) 0.3217(2)
C18A C 0.5759(5) -0.0659(5) 0.8911(5)
O19_2 O 0.1298(4) 0.1675(4) 0.6563(3)
C19A C 0.5714(5) -0.0862(5) 0.9486(4)
H10A H 0.6156 -0.1061 0.9632
O20_2 O -0.4325(3) 0.3570(3) 0.5430(4)
C20A C 0.5026(5) -0.0771(4) 0.9840(4)
O21_2 O 0.0734(4) 0.5342(3) 0.0631(2)
O21A O 0.9266(4) 0.4658(3) -0.0631(2)
C21A C 0.5029(5) -0.0991(5) 1.0455(4)
H11A H 0.4619 -0.0720 1.0684
H12A H 0.5513 -0.0928 1.0563
O22_2 O -0.5568(3) 0.1110(3) 0.4956(3)
O22A O 0.5568(3) -0.1110(3) 0.5044(3)
C22A C 0.6468(7) -0.3437(7) 1.0996(4)
O23A O 0.9152(3) -0.5202(3) 1.0578(2)
O23_2 O 1.0848(3) 0.5202(3) -0.0578(2)
O23A_2 O 0.9152(3) 0.4798(3) 0.0578(2)
C23A C 0.4206(11) -0.3833(8) 1.1385(10)
H13A H 0.3850 -0.3930 1.1152
H14A H 0.4372 -0.4212 1.1618
H15A H 0.3957 -0.3494 1.1627
O24_2 O 0.4202(3) -0.0191(2) 0.5638(2)
O24A O 0.5798(3) 0.0191(2) 0.4362(2)
C24A C 0.1077(5) -0.2214(5) 1.0244(4)
C25A C 0.0672(5) -0.2751(4) 1.0129(4)
C26A C 0.0194(7) -0.2969(5) 1.0558(5)
H16A H 0.0128 -0.2799 1.0915
C27A C -0.0213(6) -0.3456(5) 1.0475(4)
H17A H -0.0559 -0.3619 1.0767
C28A C 0.0388(6) -0.3465(4) 0.9519(4)
H18A H 0.0455 -0.3633 0.9160
C29A C 0.0777(6) -0.2980(4) 0.9618(4)
H19A H 0.1116 -0.2815 0.9322
C30A C 0.1804(9) -0.0745(7) 0.8642(7)
H20A H 0.2293 -0.0822 0.8401
H21A H 0.1399 -0.0748 0.8420
H22A H 0.1743 -0.0333 0.8801
C31A C 0.5256(5) -0.0638(4) 0.7780(5)
C32A C 0.5335(5) -0.0374(4) 0.7171(4)
C33A C 0.5539(5) -0.0789(5) 0.6759(4)
H23A H 0.5623 -0.1231 0.6860
C34A C 0.5623(5) -0.0584(4) 0.6208(4)
H24A H 0.5764 -0.0882 0.5929
C35A C 0.5282(5) 0.0473(5) 0.6449(4)
H25A H 0.5176 0.0912 0.6344
C36A C 0.5204(5) 0.0269(5) 0.7018(4)
H26A H 0.5063 0.0567 0.7297
C37A C 0.7090(7) -0.1084(10) 0.8696(7)
H27A H 0.7020 -0.1523 0.8806
H28A H 0.7510 -0.1076 0.8387
H29A H 0.7203 -0.0889 0.9017
C38_2 C -0.0537(4) 0.4498(3) 0.4745(3)
C39_2 C -0.0506(4) 0.4697(3) 0.4172(3)
H30_2 H -0.0920 0.4973 0.4047
C40_2 C 0.0127(4) 0.4493(3) 0.3787(3)
C41_2 C 0.0754(4) 0.4083(3) 0.3951(3)
C42_2 C 0.0722(4) 0.3882(4) 0.4523(3)
H31_2 H 0.1138 0.3602 0.4641
C43_2 C 0.0091(4) 0.4080(3) 0.4930(3)
C44_2 C 0.0134(4) 0.3864(3) 0.5526(3)
H32_2 H -0.0219 0.4166 0.5766
H33_2 H 0.0650 0.3879 0.5601
C45_2 C -0.0050(4) 0.3197(4) 0.5701(3)
C46_2 C 0.0561(4) 0.2697(4) 0.5624(3)
H34_2 H 0.1048 0.2785 0.5464
C47_2 C 0.0451(4) 0.2072(4) 0.5781(4)
C48_2 C -0.0272(5) 0.1918(4) 0.6006(4)
C49_2 C -0.0875(4) 0.2423(4) 0.6069(4)
H35_2 H -0.1367 0.2333 0.6213
C50_2 C -0.0775(4) 0.3050(3) 0.5927(3)
C51_2 C -0.1476(4) 0.3564(4) 0.6021(3)
H36_2 H -0.1823 0.3422 0.6349
H37_2 H -0.1315 0.3954 0.6116
C52_2 C -0.1902(4) 0.3723(3) 0.5539(3)
C53_2 C -0.2435(4) 0.3323(4) 0.5460(4)
H38_2 H -0.2505 0.2970 0.5719
C54_2 C -0.2843(4) 0.3440(4) 0.5022(4)
C55_2 C -0.2783(4) 0.3959(4) 0.4644(4)
C56_2 C -0.2273(4) 0.4359(4) 0.4700(3)
H39_2 H -0.2220 0.4712 0.4438
C57_2 C -0.1836(4) 0.4249(3) 0.5140(3)
C58_2 C -0.1270(4) 0.4706(4) 0.5143(3)
H40_2 H -0.1495 0.5140 0.5023
H41_2 H -0.1155 0.4713 0.5529
C59_2 C 0.0608(4) 0.5072(3) 0.2956(3)
C60_2 C 0.0628(4) 0.5148(4) 0.2345(3)
C61_2 C 0.0227(5) 0.4784(4) 0.2064(3)
H42_2 H -0.0072 0.4496 0.2273
C62_2 C 0.0280(5) 0.4858(4) 0.1484(3)
H43_2 H 0.0020 0.4613 0.1297
C63_2 C 0.1081(5) 0.5628(4) 0.1438(4)
H44_2 H 0.1370 0.5918 0.1219
C64_2 C 0.1053(5) 0.5566(4) 0.2020(3)
H45_2 H 0.1327 0.5812 0.2195
C65_2 C 0.1931(5) 0.3415(5) 0.3686(4)
H46_2 H 0.2168 0.3542 0.3986
H47_2 H 0.2313 0.3330 0.3355
H48_2 H 0.1711 0.3032 0.3815
C66_2 C 0.1478(5) 0.1461(4) 0.6124(4)
C67_2 C -0.1036(6) 0.1144(5) 0.6436(7)
H49_2 H -0.1267 0.1472 0.6694
H50_2 H -0.0965 0.0733 0.6648
H51_2 H -0.1367 0.1129 0.6157
C68_2 C -0.4049(5) 0.3099(4) 0.5191(4)
C69_2 C -0.4434(4) 0.2562(4) 0.5098(4)
C70_2 C -0.5197(5) 0.2597(4) 0.5320(4)
H52_2 H -0.5459 0.2963 0.5500
C71_2 C -0.5567(5) 0.2095(4) 0.5277(4)
H53_2 H -0.6083 0.2110 0.5437
C72_2 C -0.4454(4) 0.1552(4) 0.4781(4)
H54_2 H -0.4199 0.1189 0.4595
C73_2 C -0.4070(4) 0.2041(4) 0.4819(3)
H55_2 H -0.3556 0.2021 0.4654
C74_2 C -0.3127(8) 0.4530(7) 0.3814(6)
H56_2 H -0.3134 0.4921 0.3996
H57_2 H -0.3526 0.4594 0.3577
H58_2 H -0.2636 0.4420 0.3582
C75A C 0.8297(6) -0.4535(6) 1.1154(5)
H59A H 0.8604 -0.4649 1.1441
C76A C 0.7636(6) -0.4112(6) 1.1242(6)
H60A H 0.7488 -0.3944 1.1600
C77A C 0.7211(6) -0.3935(5) 1.0862(4)
C78A C 0.7390(7) -0.4184(6) 1.0368(5)
H61A H 0.7060 -0.4077 1.0094
C79A C 0.8064(5) -0.4606(6) 1.0244(4)
H62A H 0.8210 -0.4763 0.9882
C80_2 C 0.3348(5) 0.0427(4) 0.6247(4)
H63_2 H 0.3681 0.0312 0.6518
C81_2 C 0.2654(5) 0.0840(4) 0.6383(4)
H64_2 H 0.2514 0.1003 0.6744
C82_2 C 0.2196(5) 0.0995(4) 0.5978(4)
C83_2 C 0.2385(5) 0.0733(4) 0.5454(4)
H65_2 H 0.2053 0.0828 0.5182
C84_2 C 0.3082(4) 0.0325(4) 0.5338(4)
H66_2 H 0.3227 0.0143 0.4986
F13? F 0.2032(7) 0.3969(6) 0.5625(5)
F14? F 0.2931(9) 0.3604(8) 0.4890(7)
F15? F 0.2439(8) 0.2920(8) 0.5642(8)
F16? F 0.3270(7) 0.3656(5) 0.5693(4)
loop_
_geom_bond_atom_site_label_1
_geom_bond_atom_site_label_2
_geom_bond_site_symmetry_1
_geom_bond_site_symmetry_2
Cu1 O11 1_555 1_555
O1 C3 1_555 1_555
N1 O10 1_555 1_555
C1 C2 1_555 1_555
B1 F9 1_555 1_555
Cu2 O10 1_555 1_555
O2 C4 1_555 1_555
N2 O11 1_555 1_555
C2 H1 1_555 1_555
Cu3 O25 1_555 1_555
O3 C10 1_555 1_555
N3 O21 1_555 1_555
C3 C2 1_555 1_555
B2 F5 1_555 1_555
O4 C11 1_555 1_555
N4 O22 1_555 1_555
C4 C3 1_555 1_555
F1 B3 1_555 1_555
O5 C17 1_555 1_555
N5 O23 1_555 1_555
C5 C4 1_555 1_555
H2 C5 1_555 1_555
F2 B3 1_555 1_555
O6 C18 1_555 1_555
N6 O24 1_555 1_555
C6 C1 1_555 1_555
F3 B3 1_555 1_555
O7 C22 1_555 1_555
N7 C85 1_555 1_555
C7 C6 1_555 1_555
H3 C7 1_555 1_555
H4 C7 1_555 1_555
F4 B3 1_555 1_555
O8 C24 1_555 1_555
N8 C90 1_555 1_555
C8 C7 1_555 1_555
O9 C31 1_555 1_555
N9 C95 1_555 1_555
C9 C8 1_555 1_555
H5 C9 1_555 1_555
F6 B2 1_555 1_555
N10 C100 1_555 1_555
C10 C9 1_555 1_555
F7 B2 1_555 1_555
N11 C105 1_555 1_555
C11 C10 1_555 1_555
F8 B2 1_555 1_555
O12 C40 1_555 1_555
N12 C110 1_555 1_555
C12 C11 1_555 1_555
H6 C12 1_555 1_555
O13 C41 1_555 1_555
N13 C115 1_555 1_555
C13 C8 1_555 1_555
O14 C47 1_555 1_555
N14 C120 1_555 1_555
C14 C13 1_555 1_555
H7 C14 1_555 1_555
H8 C14 1_555 1_555
O15 C48 1_555 1_555
N15 C125 1_555 1_555
C15 C14 1_555 1_555
O16 C54 1_555 1_555
N16 C130 1_555 1_555
C16 C15 1_555 1_555
H9 C16 1_555 1_555
O17 C55 1_555 1_555
N17 C135 1_555 1_555
C17 C16 1_555 1_555
O18 C59 1_555 1_555
N18 C140 1_555 1_555
C18 C17 1_555 1_555
O19 C66 1_555 1_555
N19 C145 1_555 1_555
C19 C18 1_555 1_555
H10 C19 1_555 1_555
O20 C68 1_555 1_555
C20 C15 1_555 1_555
O21 Cu2 1_555 1_555
C21 C1 1_555 1_555
H11 C21 1_555 1_555
H12 C21 1_555 1_555
O22 Cu1 1_555 1_555
C22 O1 1_555 1_555
O23 Cu2_2 1_555 1_555
C23 O2 1_555 1_555
H13 C23 1_555 1_555
H14 C23 1_555 1_555
H15 C23 1_555 1_555
O24 Cu1_2 1_555 1_555
C24 O3 1_555 1_555
O25 C85 1_555 1_555
C25 C24 1_555 1_555
O26 Cu3 1_555 1_555
C26 C25 1_555 1_555
H16 C26 1_555 1_555
O27 Cu3 1_555 1_555
C27 N1 1_555 1_555
H17 C27 1_555 1_555
O28 Cu3 1_555 1_555
C28 N1 1_555 1_555
H18 C28 1_555 1_555
O29 Cu3 1_555 1_555
C29 C25 1_555 1_555
H19 C29 1_555 1_555
O30 C105 1_555 1_555
C30 O4 1_555 1_555
H20 C30 1_555 1_555
H21 C30 1_555 1_555
H22 C30 1_555 1_555
O31 C110 1_555 1_555
C31 O5 1_555 1_555
O32 C115 1_555 1_555
C32 C31 1_555 1_555
O33 C120 1_555 1_555
C33 C32 1_555 1_555
H23 C33 1_555 1_555
O34 C125 1_555 1_555
C34 N2 1_555 1_555
H24 C34 1_555 1_555
O35 C130 1_555 1_555
C35 N2 1_555 1_555
H25 C35 1_555 1_555
O36 C135 1_555 1_555
C36 C32 1_555 1_555
H26 C36 1_555 1_555
O37 C140 1_555 1_555
C37 O6 1_555 1_555
H27 C37 1_555 1_555
H28 C37 1_555 1_555
H29 C37 1_555 1_555
O38 C145 1_555 1_555
C38 C39 1_555 1_555
C39 H30 1_555 1_555
C40 C39 1_555 1_555
C41 C40 1_555 1_555
C42 C41 1_555 1_555
H31 C42 1_555 1_555
C43 C38 1_555 1_555
C44 C43 1_555 1_555
H32 C44 1_555 1_555
H33 C44 1_555 1_555
C45 C44 1_555 1_555
C46 C45 1_555 1_555
H34 C46 1_555 1_555
C47 C46 1_555 1_555
C48 C47 1_555 1_555
C49 C48 1_555 1_555
H35 C49 1_555 1_555
C50 C45 1_555 1_555
C51 C50 1_555 1_555
H36 C51 1_555 1_555
H37 C51 1_555 1_555
C52 C51 1_555 1_555
C53 C52 1_555 1_555
H38 C53 1_555 1_555
C54 C53 1_555 1_555
C55 C54 1_555 1_555
C56 C55 1_555 1_555
H39 C56 1_555 1_555
C57 C52 1_555 1_555
C58 C38 1_555 1_555
H40 C58 1_555 1_555
H41 C58 1_555 1_555
C59 O12 1_555 1_555
C60 C59 1_555 1_555
C61 C60 1_555 1_555
H42 C61 1_555 1_555
C62 N3 1_555 1_555
H43 C62 1_555 1_555
C63 N3 1_555 1_555
H44 C63 1_555 1_555
C64 C60 1_555 1_555
H45 C64 1_555 1_555
C65 O13 1_555 1_555
H46 C65 1_555 1_555
H47 C65 1_555 1_555
H48 C65 1_555 1_555
C66 O14 1_555 1_555
C67 O15 1_555 1_555
H49 C67 1_555 1_555
H50 C67 1_555 1_555
H51 C67 1_555 1_555
C68 O16 1_555 1_555
C69 C68 1_555 1_555
C70 C69 1_555 1_555
H52 C70 1_555 1_555
C71 N4 1_555 1_555
H53 C71 1_555 1_555
C72 N4 1_555 1_555
H54 C72 1_555 1_555
C73 C69 1_555 1_555
H55 C73 1_555 1_555
C74 O17 1_555 1_555
H56 C74 1_555 1_555
H57 C74 1_555 1_555
H58 C74 1_555 1_555
C75 N5 1_555 1_555
H59 C75 1_555 1_555
C76 C75 1_555 1_555
H60 C76 1_555 1_555
C77 C22 1_555 1_555
C78 C77 1_555 1_555
H61 C78 1_555 1_555
C79 N5 1_555 1_555
H62 C79 1_555 1_555
C80 N6 1_555 1_555
H63 C80 1_555 1_555
C81 C80 1_555 1_555
H64 C81 1_555 1_555
C82 C66 1_555 1_555
C83 C82 1_555 1_555
H65 C83 1_555 1_555
C84 N6 1_555 1_555
H66 C84 1_555 1_555
C85 C86 1_555 1_555
C86 H67 1_555 1_555
H68 C86 1_555 1_555
C87 C86 1_555 1_555
H69 C87 1_555 1_555
H70 C87 1_555 1_555
C88 N7 1_555 1_555
H71 C88 1_555 1_555
H72 C88 1_555 1_555
C89 N7 1_555 1_555
H73 C89 1_555 1_555
H74 C89 1_555 1_555
H75 C89 1_555 1_555
C90 O26 1_555 1_555
C91 C90 1_555 1_555
H76 C91 1_555 1_555
H77 C91 1_555 1_555
C92 C91 1_555 1_555
H78 C92 1_555 1_555
H79 C92 1_555 1_555
C93 N8 1_555 1_555
H80 C93 1_555 1_555
H81 C93 1_555 1_555
C94 N8 1_555 1_555
H82 C94 1_555 1_555
H83 C94 1_555 1_555
H84 C94 1_555 1_555
C95 O27 1_555 1_555
C96 C95 1_555 1_555
H85 C96 1_555 1_555
H86 C96 1_555 1_555
C97 C96 1_555 1_555
H87 C97 1_555 1_555
H88 C97 1_555 1_555
C98 N9 1_555 1_555
H89 C98 1_555 1_555
H90 C98 1_555 1_555
C99 N9 1_555 1_555
H91 C99 1_555 1_555
H92 C99 1_555 1_555
H93 C99 1_555 1_555
C100 O28 1_555 1_555
C101 C100 1_555 1_555
H94 C101 1_555 1_555
H95 C101 1_555 1_555
C102 C101 1_555 1_555
H96 C102 1_555 1_555
H97 C102 1_555 1_555
C103 N10 1_555 1_555
H98 C103 1_555 1_555
H99 C103 1_555 1_555
C104 N10 1_555 1_555
H100 C104 1_555 1_555
H101 C104 1_555 1_555
H102 C104 1_555 1_555
C105 C106 1_555 1_555
C106 H103 1_555 1_555
H104 C106 1_555 1_555
C107 C106 1_555 1_555
H105 C107 1_555 1_555
H106 C107 1_555 1_555
C108 N11 1_555 1_555
H107 C108 1_555 1_555
H108 C108 1_555 1_555
C109 N11 1_555 1_555
H109 C109 1_555 1_555
H110 C109 1_555 1_555
H111 C109 1_555 1_555
C110 C111 1_555 1_555
C111 H112 1_555 1_555
H113 C111 1_555 1_555
C112 C111 1_555 1_555
H114 C112 1_555 1_555
H115 C112 1_555 1_555
C113 N12 1_555 1_555
H116 C113 1_555 1_555
H117 C113 1_555 1_555
C114 N12 1_555 1_555
H118 C114 1_555 1_555
H119 C114 1_555 1_555
H120 C114 1_555 1_555
C115 C116 1_555 1_555
C116 H121 1_555 1_555
H122 C116 1_555 1_555
C117 C116 1_555 1_555
H123 C117 1_555 1_555
H124 C117 1_555 1_555
C118 N13 1_555 1_555
H125 C118 1_555 1_555
H126 C118 1_555 1_555
C119 N13 1_555 1_555
H127 C119 1_555 1_555
H128 C119 1_555 1_555
H129 C119 1_555 1_555
C120 C121 1_555 1_555
C121 H130 1_555 1_555
H131 C121 1_555 1_555
C122 C121 1_555 1_555
H132 C122 1_555 1_555
H133 C122 1_555 1_555
C123 N14 1_555 1_555
H134 C123 1_555 1_555
H135 C123 1_555 1_555
C124 N14 1_555 1_555
H136 C124 1_555 1_555
H137 C124 1_555 1_555
H138 C124 1_555 1_555
C125 C126 1_555 1_555
C126 H139 1_555 1_555
H140 C126 1_555 1_555
C127 C126 1_555 1_555
H141 C127 1_555 1_555
H142 C127 1_555 1_555
C128 N15 1_555 1_555
H143 C128 1_555 1_555
H144 C128 1_555 1_555
C129 N15 1_555 1_555
H145 C129 1_555 1_555
H146 C129 1_555 1_555
H147 C129 1_555 1_555
C130 C131 1_555 1_555
C131 H148 1_555 1_555
H149 C131 1_555 1_555
C132 C131 1_555 1_555
H150 C132 1_555 1_555
H151 C132 1_555 1_555
C133 N16 1_555 1_555
H152 C133 1_555 1_555
H153 C133 1_555 1_555
C134 N16 1_555 1_555
H154 C134 1_555 1_555
H155 C134 1_555 1_555
H156 C134 1_555 1_555
C135 C136 1_555 1_555
C136 H157 1_555 1_555
H158 C136 1_555 1_555
C137 C136 1_555 1_555
H159 C137 1_555 1_555
H160 C137 1_555 1_555
C138 N17 1_555 1_555
H161 C138 1_555 1_555
H162 C138 1_555 1_555
C139 N17 1_555 1_555
H163 C139 1_555 1_555
H164 C139 1_555 1_555
H165 C139 1_555 1_555
C140 C141 1_555 1_555
C141 H166 1_555 1_555
H167 C141 1_555 1_555
C142 C141 1_555 1_555
H168 C142 1_555 1_555
H169 C142 1_555 1_555
C143 N18 1_555 1_555
H170 C143 1_555 1_555
H171 C143 1_555 1_555
C144 N18 1_555 1_555
H172 C144 1_555 1_555
H173 C144 1_555 1_555
H174 C144 1_555 1_555
C145 C146 1_555 1_555
C146 H175 1_555 1_555
H176 C146 1_555 1_555
C147 C146 1_555 1_555
H177 C147 1_555 1_555
H178 C147 1_555 1_555
C148 N19 1_555 1_555
H179 C148 1_555 1_555
H180 C148 1_555 1_555
C149 N19 1_555 1_555
H181 C149 1_555 1_555
H182 C149 1_555 1_555
H183 C149 1_555 1_555
F10 B1 1_555 1_555
F11 B1 1_555 1_555
F12 B1 1_555 1_555
Cu1_3 O22_2 1_555 1_555
O1A C3A 1_555 1_555
N1A O10A 1_555 1_555
C1A C2A 1_555 1_555
Cu2_2 O21_2 1_555 1_555
Cu2_3 O10A 1_555 1_555
Cu2_4 O23A 1_555 1_555
O2A C4A 1_555 1_555
N2A O11A 1_555 1_555
C2A H1A 1_555 1_555
O3A C10A 1_555 1_555
N3_2 O21_2 1_555 1_555
C3A C2A 1_555 1_555
O4A C11A 1_555 1_555
N4_2 O22_2 1_555 1_555
C4A C3A 1_555 1_555
O5A C17A 1_555 1_555
N5A O23A 1_555 1_555
C5A C4A 1_555 1_555
H2A C5A 1_555 1_555
O6A C18A 1_555 1_555
N6_2 O24_2 1_555 1_555
C6A C1A 1_555 1_555
O7A C22A 1_555 1_555
C7A C6A 1_555 1_555
H3A C7A 1_555 1_555
H4A C7A 1_555 1_555
O8A C24A 1_555 1_555
C8A C7A 1_555 1_555
O9A C31A 1_555 1_555
C9A C8A 1_555 1_555
H5A C9A 1_555 1_555
O10A_2 Cu2 1_555 1_555
C10A C9A 1_555 1_555
O11A Cu1 1_555 1_555
C11A C10A 1_555 1_555
O12_2 C40_2 1_555 1_555
C12A C11A 1_555 1_555
H6A C12A 1_555 1_555
O13_2 C41_2 1_555 1_555
C13A C8A 1_555 1_555
O14_2 C47_2 1_555 1_555
C14A C13A 1_555 1_555
H7A C14A 1_555 1_555
H8A C14A 1_555 1_555
O15_2 C48_2 1_555 1_555
C15A C14A 1_555 1_555
O16_2 C54_2 1_555 1_555
C16A C15A 1_555 1_555
H9A C16A 1_555 1_555
O17_2 C55_2 1_555 1_555
C17A C16A 1_555 1_555
O18_2 C59_2 1_555 1_555
C18A C17A 1_555 1_555
O19_2 C66_2 1_555 1_555
C19A C18A 1_555 1_555
H10A C19A 1_555 1_555
O20_2 C68_2 1_555 1_555
C20A C15A 1_555 1_555
O21A Cu2 1_555 1_555
C21A C1A 1_555 1_555
H11A C21A 1_555 1_555
H12A C21A 1_555 1_555
O22A Cu1 1_555 1_555
C22A O1A 1_555 1_555
O23_2 Cu2 1_555 1_555
O23A_2 Cu2 1_555 1_555
C23A O2A 1_555 1_555
H13A C23A 1_555 1_555
H14A C23A 1_555 1_555
H15A C23A 1_555 1_555
O24_2 Cu1 1_555 1_555
O24A Cu1 1_555 1_555
C24A O3A 1_555 1_555
C25A C24A 1_555 1_555
C26A C25A 1_555 1_555
H16A C26A 1_555 1_555
C27A N1A 1_555 1_555
H17A C27A 1_555 1_555
C28A N1A 1_555 1_555
H18A C28A 1_555 1_555
C29A C25A 1_555 1_555
H19A C29A 1_555 1_555
C30A O4A 1_555 1_555
H20A C30A 1_555 1_555
H21A C30A 1_555 1_555
H22A C30A 1_555 1_555
C31A O5A 1_555 1_555
C32A C31A 1_555 1_555
C33A C32A 1_555 1_555
H23A C33A 1_555 1_555
C34A N2A 1_555 1_555
H24A C34A 1_555 1_555
C35A N2A 1_555 1_555
H25A C35A 1_555 1_555
C36A C32A 1_555 1_555
H26A C36A 1_555 1_555
C37A O6A 1_555 1_555
H27A C37A 1_555 1_555
H28A C37A 1_555 1_555
H29A C37A 1_555 1_555
C38_2 C39_2 1_555 1_555
C39_2 H30_2 1_555 1_555
C40_2 C39_2 1_555 1_555
C41_2 C40_2 1_555 1_555
C42_2 C41_2 1_555 1_555
H31_2 C42_2 1_555 1_555
C43_2 C38_2 1_555 1_555
C44_2 C43_2 1_555 1_555
H32_2 C44_2 1_555 1_555
H33_2 C44_2 1_555 1_555
C45_2 C44_2 1_555 1_555
C46_2 C45_2 1_555 1_555
H34_2 C46_2 1_555 1_555
C47_2 C46_2 1_555 1_555
C48_2 C47_2 1_555 1_555
C49_2 C48_2 1_555 1_555
H35_2 C49_2 1_555 1_555
C50_2 C45_2 1_555 1_555
C51_2 C50_2 1_555 1_555
H36_2 C51_2 1_555 1_555
H37_2 C51_2 1_555 1_555
C52_2 C51_2 1_555 1_555
C53_2 C52_2 1_555 1_555
H38_2 C53_2 1_555 1_555
C54_2 C53_2 1_555 1_555
C55_2 C54_2 1_555 1_555
C56_2 C55_2 1_555 1_555
H39_2 C56_2 1_555 1_555
C57_2 C52_2 1_555 1_555
C58_2 C38_2 1_555 1_555
H40_2 C58_2 1_555 1_555
H41_2 C58_2 1_555 1_555
C59_2 O12_2 1_555 1_555
C60_2 C59_2 1_555 1_555
C61_2 C60_2 1_555 1_555
H42_2 C61_2 1_555 1_555
C62_2 N3_2 1_555 1_555
H43_2 C62_2 1_555 1_555
C63_2 N3_2 1_555 1_555
H44_2 C63_2 1_555 1_555
C64_2 C60_2 1_555 1_555
H45_2 C64_2 1_555 1_555
C65_2 O13_2 1_555 1_555
H46_2 C65_2 1_555 1_555
H47_2 C65_2 1_555 1_555
H48_2 C65_2 1_555 1_555
C66_2 O14_2 1_555 1_555
C67_2 O15_2 1_555 1_555
H49_2 C67_2 1_555 1_555
H50_2 C67_2 1_555 1_555
H51_2 C67_2 1_555 1_555
C68_2 O16_2 1_555 1_555
C69_2 C68_2 1_555 1_555
C70_2 C69_2 1_555 1_555
H52_2 C70_2 1_555 1_555
C71_2 N4_2 1_555 1_555
H53_2 C71_2 1_555 1_555
C72_2 N4_2 1_555 1_555
H54_2 C72_2 1_555 1_555
C73_2 C69_2 1_555 1_555
H55_2 C73_2 1_555 1_555
C74_2 O17_2 1_555 1_555
H56_2 C74_2 1_555 1_555
H57_2 C74_2 1_555 1_555
H58_2 C74_2 1_555 1_555
C75A N5A 1_555 1_555
H59A C75A 1_555 1_555
C76A C75A 1_555 1_555
H60A C76A 1_555 1_555
C77A C22A 1_555 1_555
C78A C77A 1_555 1_555
H61A C78A 1_555 1_555
C79A N5A 1_555 1_555
H62A C79A 1_555 1_555
C80_2 N6_2 1_555 1_555
H63_2 C80_2 1_555 1_555
C81_2 C80_2 1_555 1_555
H64_2 C81_2 1_555 1_555
C82_2 C66_2 1_555 1_555
C83_2 C82_2 1_555 1_555
H65_2 C83_2 1_555 1_555
C84_2 N6_2 1_555 1_555
H66_2 C84_2 1_555 1_555
C5 C6 1_555 1_555
C12 C13 1_555 1_555
C19 C20 1_555 1_555
C20 C21 1_555 1_555
C26 C27 1_555 1_555
C28 C29 1_555 1_555
C33 C34 1_555 1_555
C35 C36 1_555 1_555
C42 C43 1_555 1_555
C49 C50 1_555 1_555
C56 C57 1_555 1_555
C57 C58 1_555 1_555
C61 C62 1_555 1_555
C63 C64 1_555 1_555
C70 C71 1_555 1_555
C72 C73 1_555 1_555
C76 C77 1_555 1_555
C78 C79 1_555 1_555
C81 C82 1_555 1_555
C83 C84 1_555 1_555
C87 C88 1_555 1_555
C92 C93 1_555 1_555
C97 C98 1_555 1_555
C102 C103 1_555 1_555
C107 C108 1_555 1_555
C112 C113 1_555 1_555
C117 C118 1_555 1_555
C122 C123 1_555 1_555
C127 C128 1_555 1_555
C132 C133 1_555 1_555
C137 C138 1_555 1_555
C142 C143 1_555 1_555
C147 C148 1_555 1_555
C5A C6A 1_555 1_555
C12A C13A 1_555 1_555
C19A C20A 1_555 1_555
C20A C21A 1_555 1_555
C26A C27A 1_555 1_555
C28A C29A 1_555 1_555
C33A C34A 1_555 1_555
C35A C36A 1_555 1_555
C42_2 C43_2 1_555 1_555
C49_2 C50_2 1_555 1_555
C56_2 C57_2 1_555 1_555
C57_2 C58_2 1_555 1_555
C61_2 C62_2 1_555 1_555
C63_2 C64_2 1_555 1_555
C70_2 C71_2 1_555 1_555
C72_2 C73_2 1_555 1_555
C76A C77A 1_555 1_555
C78A C79A 1_555 1_555
C81_2 C82_2 1_555 1_555
C83_2 C84_2 1_555 1_555

#END
