
#######################################################################
#
#                 Cambridge Crystallographic Data Centre
#                                CCDC 
#
#######################################################################
#
# If this CIF has been generated from an entry in the Cambridge 
# Structural Database, then it will include bibliographic, chemical, 
# crystal, experimental, refinement or atomic coordinate data resulting 
# from the CCDC's data processing and validation procedures.
#
#######################################################################

data_REJPED
_symmetry_cell_setting           cubic
_symmetry_space_group_name_H-M   'P a -3'
_symmetry_Int_Tables_number      205
_space_group_name_Hall           '-P 2ac 2ab 3'
loop_
_symmetry_equiv_pos_site_id
_symmetry_equiv_pos_as_xyz
1 x,y,z
2 z,x,y
3 y,z,x
4 1/2-y,-z,1/2+x
5 1/2+z,1/2-x,-y
6 -y,1/2+z,1/2-x
7 1/2-z,-x,1/2+y
8 -z,1/2+x,1/2-y
9 1/2+y,1/2-z,-x
10 1/2-x,-y,1/2+z
11 1/2+x,1/2-y,-z
12 -x,1/2+y,1/2-z
13 -x,-y,-z
14 -z,-x,-y
15 -y,-z,-x
16 1/2+y,z,1/2-x
17 1/2-z,1/2+x,y
18 y,1/2-z,1/2+x
19 1/2+z,x,1/2-y
20 z,1/2-x,1/2+y
21 1/2-y,1/2+z,x
22 1/2+x,y,1/2-z
23 1/2-x,1/2+y,z
24 x,1/2-y,1/2+z
_cell_length_a                   25.9744(8)
_cell_length_b                   25.9744(8)
_cell_length_c                   25.9744(8)
_cell_angle_alpha                90
_cell_angle_beta                 90
_cell_angle_gamma                90
_cell_volume                     17524.1
loop_
_atom_site_label
_atom_site_type_symbol
_atom_site_fract_x
_atom_site_fract_y
_atom_site_fract_z
Ag1 Ag 0.5000 0.5000 0.0000
O1 O 0.40755(18) 0.51284(17) -0.00902(19)
O2 O 0.26667(19) 0.3476(2) 0.08956(19)
O3 O 0.2171(3) 0.3664(3) 0.0211(2)
N1 N 0.3739(2) 0.4770(2) 0.0034(2)
C1 C 0.2126(3) 0.1705(2) 0.1159(2)
H1 H 0.2300 0.1660 0.0832
H2 H 0.1805 0.1515 0.1142
C2 C 0.2004(2) 0.2256(2) 0.1220(2)
C3 C 0.2557(3) 0.3723(3) 0.0452(3)
C4 C 0.3828(3) 0.4435(3) 0.0413(3)
H3 H 0.4141 0.4444 0.0585
C5 C 0.1566(3) 0.2449(3) 0.1475(3)
C6 C 0.2350(3) 0.2626(3) 0.1025(2)
H4 H 0.2639 0.2511 0.0848
C7 C 0.2284(3) 0.3138(3) 0.1083(3)
C8 C 0.3466(3) 0.4079(3) 0.0554(3)
H5 H 0.3532 0.3854 0.0824
C9 C 0.3303(3) 0.4716(3) -0.0251(3)
H6 H 0.3263 0.4916 -0.0545
C10 C 0.1874(3) 0.3331(3) 0.1330(3)
C11 C 0.2930(3) 0.4383(3) -0.0124(3)
H7 H 0.2625 0.4372 -0.0311
C12 C 0.3007(3) 0.4054(3) 0.0295(3)
C13 C 0.1502(3) 0.2983(3) 0.1525(3)
H8 H 0.1211 0.3111 0.1689
Ag2 Ag 0.42720(2) 0.57280(2) 0.07280(2)
O4 O 0.3433(2) 0.5420(2) 0.0983(2)
N2 N 0.2894(5) 0.4941(3) 0.1484(4)
C14 C 0.2927(6) 0.4611(6) 0.1927(6)
H9 H 0.2886 0.4254 0.1827
H10 H 0.2662 0.4698 0.2175
C15 C 0.3417(6) 0.4695(6) 0.2135(7)
H11 H 0.3392 0.4924 0.2429
H12 H 0.3561 0.4370 0.2253
C16 C 0.3362(5) 0.5130(4) 0.1356(5)
C17 C 0.3771(6) 0.4933(4) 0.1726(4)
H13 H 0.3993 0.4678 0.1567
H14 H 0.3979 0.5210 0.1865
C18 C 0.2446(4) 0.5102(5) 0.1173(6)
H15 H 0.2563 0.5277 0.0870
H16 H 0.2250 0.4804 0.1076
H17 H 0.2233 0.5329 0.1372
O5 O 0.1822(3) 0.3865(2) 0.1373(2)
C19 C 0.1378(5) 0.4064(4) 0.1630(6)
H18 H 0.1077 0.3993 0.1428
H19 H 0.1414 0.4429 0.1673
H20 H 0.1345 0.3903 0.1961
Ag1A Ag 0.0000 0.5000 0.5000
Ag1B Ag 0.5000 0.0000 0.5000
Ag1B_2 Ag 0.5000 1.0000 0.5000
Ag1C Ag 1.0000 1.0000 0.0000
O1A O -0.00902(19) 0.40755(18) 0.51284(17)
O1B O 0.51284(17) -0.00902(19) 0.40755(18)
O1E O 0.48716(17) 0.49098(19) 0.09245(18)
O1K O 0.59245(18) 1.01284(17) 0.50902(19)
O1G O 1.00902(19) 0.90755(18) -0.01284(17)
O1F O 0.50902(19) 0.59245(18) 0.01284(17)
O1L O 0.59245(18) 0.48716(17) 0.00902(19)
O1Q O 0.51284(17) 0.50902(19) -0.09245(18)
O1R O 0.49098(19) 0.40755(18) -0.01284(17)
O2A O 0.08956(19) 0.26667(19) 0.3476(2)
O2B O 0.3476(2) 0.08956(19) 0.26667(19)
O2E O 0.6524(2) 0.58956(19) 0.23333(19)
O2K O 0.73333(19) 0.8476(2) 0.41044(19)
O2G O 0.91044(19) 0.76667(19) 0.1524(2)
O3A O 0.0211(2) 0.2171(3) 0.3664(3)
O3B O 0.3664(3) 0.0211(2) 0.2171(3)
O3E O 0.6336(3) 0.5211(2) 0.2829(3)
O3K O 0.7829(3) 0.8664(3) 0.4789(2)
O3G O 0.9789(2) 0.7171(3) 0.1336(3)
N1A N 0.0034(2) 0.3739(2) 0.4770(2)
N1B N 0.4770(2) 0.0034(2) 0.3739(2)
N1E N 0.5230(2) 0.5034(2) 0.1261(2)
N1K N 0.6261(2) 0.9770(2) 0.4966(2)
N1G N 0.9966(2) 0.8739(2) 0.0230(2)
C1B C 0.1705(2) 0.1159(2) 0.2126(3)
C1A C 0.1159(2) 0.2126(3) 0.1705(2)
C1E C 0.8295(2) 0.6159(2) 0.2874(3)
C1G C 0.8841(2) 0.7126(3) 0.3295(2)
C1K C 0.7874(3) 0.6705(2) 0.3841(2)
H1B H 0.1660 0.0832 0.2300
H1A H 0.0832 0.2300 0.1660
H1E H 0.8340 0.5832 0.2700
H1G H 0.9168 0.7300 0.3340
H1K H 0.7700 0.6660 0.4168
H2B H 0.1515 0.1142 0.1805
H2A H 0.1142 0.1805 0.1515
H2E H 0.8485 0.6142 0.3195
H2G H 0.8858 0.6805 0.3485
H2K H 0.8195 0.6515 0.3858
C2B C 0.2256(2) 0.1220(2) 0.2004(2)
C2A C 0.1220(2) 0.2004(2) 0.2256(2)
C2E C 0.7744(2) 0.6220(2) 0.2996(2)
C2G C 0.8780(2) 0.7004(2) 0.2744(2)
C2K C 0.7996(2) 0.7256(2) 0.3780(2)
C3A C 0.0452(3) 0.2557(3) 0.3723(3)
C3B C 0.3723(3) 0.0452(3) 0.2557(3)
C3E C 0.6277(3) 0.5452(3) 0.2443(3)
C3K C 0.7443(3) 0.8723(3) 0.4548(3)
C3G C 0.9548(3) 0.7557(3) 0.1277(3)
C4A C 0.0413(3) 0.3828(3) 0.4435(3)
C4B C 0.4435(3) 0.0413(3) 0.3828(3)
C4E C 0.5565(3) 0.5413(3) 0.1172(3)
C4K C 0.6172(3) 0.9435(3) 0.4587(3)
C4G C 0.9587(3) 0.8828(3) 0.0565(3)
H3A H 0.0585 0.4141 0.4444
H3B H 0.4444 0.0585 0.4141
H3E H 0.5556 0.5585 0.0859
H3K H 0.5859 0.9444 0.4415
H3G H 0.9415 0.9141 0.0556
C5B C 0.2449(3) 0.1475(3) 0.1566(3)
C5A C 0.1475(3) 0.1566(3) 0.2449(3)
C5E C 0.7551(3) 0.6475(3) 0.3434(3)
C5G C 0.8525(3) 0.6566(3) 0.2551(3)
C5K C 0.8434(3) 0.7449(3) 0.3525(3)
C6A C 0.1025(2) 0.2350(3) 0.2626(3)
C6B C 0.2626(3) 0.1025(2) 0.2350(3)
C6E C 0.7374(3) 0.6025(2) 0.2650(3)
C6K C 0.7650(3) 0.7626(3) 0.3975(2)
C6G C 0.8975(2) 0.7350(3) 0.2374(3)
H4A H 0.0848 0.2639 0.2511
H4B H 0.2511 0.0848 0.2639
H4E H 0.7489 0.5848 0.2361
H4K H 0.7361 0.7511 0.4152
H4G H 0.9152 0.7639 0.2489
C7A C 0.1083(3) 0.2284(3) 0.3138(3)
C7B C 0.3138(3) 0.1083(3) 0.2284(3)
C7E C 0.6862(3) 0.6083(3) 0.2716(3)
C7K C 0.7716(3) 0.8138(3) 0.3917(3)
C7G C 0.8917(3) 0.7284(3) 0.1862(3)
C8A C 0.0554(3) 0.3466(3) 0.4079(3)
C8B C 0.4079(3) 0.0554(3) 0.3466(3)
C8E C 0.5921(3) 0.5554(3) 0.1534(3)
C8K C 0.6534(3) 0.9079(3) 0.4446(3)
C8G C 0.9446(3) 0.8466(3) 0.0921(3)
H5A H 0.0824 0.3532 0.3854
H5B H 0.3854 0.0824 0.3532
H5E H 0.6146 0.5824 0.1468
H5K H 0.6468 0.8854 0.4176
H5G H 0.9176 0.8532 0.1146
C9A C -0.0251(3) 0.3303(3) 0.4716(3)
C9B C 0.4716(3) -0.0251(3) 0.3303(3)
C9E C 0.5284(3) 0.4749(3) 0.1697(3)
C9K C 0.6697(3) 0.9716(3) 0.5251(3)
C9G C 1.0251(3) 0.8303(3) 0.0284(3)
H6A H -0.0545 0.3263 0.4916
H6B H 0.4916 -0.0545 0.3263
H6E H 0.5084 0.4455 0.1737
H6K H 0.6737 0.9916 0.5545
H6G H 1.0545 0.8263 0.0084
C10A C 0.1330(3) 0.1874(3) 0.3331(3)
C10B C 0.3331(3) 0.1330(3) 0.1874(3)
C10E C 0.6669(3) 0.6330(3) 0.3126(3)
C10K C 0.8126(3) 0.8331(3) 0.3670(3)
C10G C 0.8670(3) 0.6874(3) 0.1669(3)
C11A C -0.0124(3) 0.2930(3) 0.4383(3)
C11B C 0.4383(3) -0.0124(3) 0.2930(3)
C11E C 0.5617(3) 0.4876(3) 0.2070(3)
C11K C 0.7070(3) 0.9383(3) 0.5124(3)
C11G C 1.0124(3) 0.7930(3) 0.0617(3)
H7A H -0.0311 0.2625 0.4372
H7B H 0.4372 -0.0311 0.2625
H7E H 0.5628 0.4689 0.2375
H7K H 0.7375 0.9372 0.5311
H7G H 1.0311 0.7625 0.0628
C12A C 0.0295(3) 0.3007(3) 0.4054(3)
C12B C 0.4054(3) 0.0295(3) 0.3007(3)
C12E C 0.5946(3) 0.5295(3) 0.1993(3)
C12K C 0.6993(3) 0.9054(3) 0.4705(3)
C12G C 0.9705(3) 0.8007(3) 0.0946(3)
C13A C 0.1525(3) 0.1502(3) 0.2983(3)
C13B C 0.2983(3) 0.1525(3) 0.1502(3)
C13E C 0.7017(3) 0.6525(3) 0.3498(3)
C13K C 0.8498(3) 0.7983(3) 0.3475(3)
C13G C 0.8475(3) 0.6502(3) 0.2017(3)
H8A H 0.1689 0.1211 0.3111
H8B H 0.3111 0.1689 0.1211
H8E H 0.6889 0.6689 0.3789
H8K H 0.8789 0.8111 0.3311
H8G H 0.8311 0.6211 0.1889
Ag2L Ag 0.57280(2) 0.42720(2) -0.07280(2)
O4E O 0.4580(2) 0.5983(2) 0.1567(2)
O4F O 0.4017(2) 0.6567(2) 0.0420(2)
O4L O 0.6567(2) 0.4580(2) -0.0983(2)
O4Q O 0.5420(2) 0.4017(2) -0.1567(2)
O4R O 0.5983(2) 0.3433(2) -0.0420(2)
N2E N 0.5059(3) 0.6484(4) 0.2106(5)
N2F N 0.3516(4) 0.7106(5) -0.0059(3)
N2L N 0.7106(5) 0.5059(3) -0.1484(4)
N2Q N 0.4941(3) 0.3516(4) -0.2106(5)
N2R N 0.6484(4) 0.2894(5) 0.0059(3)
C14E C 0.5389(6) 0.6927(6) 0.2073(6)
C14F C 0.3073(6) 0.7073(6) -0.0389(6)
C14L C 0.7073(6) 0.5389(6) -0.1927(6)
C14Q C 0.4611(6) 0.3073(6) -0.2073(6)
C14R C 0.6927(6) 0.2927(6) 0.0389(6)
H9E H 0.5746 0.6827 0.2114
H9F H 0.3173 0.7114 -0.0746
H9L H 0.7114 0.5746 -0.1827
H9Q H 0.4254 0.3173 -0.2114
H9R H 0.6827 0.2886 0.0746
H10E H 0.5302 0.7175 0.2338
H10F H 0.2825 0.7338 -0.0302
H10L H 0.7338 0.5302 -0.2175
H10Q H 0.4698 0.2825 -0.2338
H10R H 0.7175 0.2662 0.0302
C15E C 0.5305(6) 0.7135(7) 0.1583(6)
C15F C 0.2865(7) 0.6583(6) -0.0305(6)
C15L C 0.6583(6) 0.5305(6) -0.2135(7)
C15Q C 0.4695(6) 0.2865(7) -0.1583(6)
C15R C 0.7135(7) 0.3417(6) 0.0305(6)
H11E H 0.5076 0.7429 0.1608
H11F H 0.2571 0.6608 -0.0076
H11L H 0.6608 0.5076 -0.2429
H11Q H 0.4924 0.2571 -0.1608
H11R H 0.7429 0.3392 0.0076
H12E H 0.5630 0.7253 0.1439
H12F H 0.2747 0.6439 -0.0630
H12L H 0.6439 0.5630 -0.2253
H12Q H 0.4370 0.2747 -0.1439
H12R H 0.7253 0.3561 0.0630
C16E C 0.4870(4) 0.6356(5) 0.1638(5)
C16F C 0.3644(5) 0.6638(5) 0.0130(4)
C16L C 0.6638(5) 0.4870(4) -0.1356(5)
C16Q C 0.5130(4) 0.3644(5) -0.1638(5)
C16R C 0.6356(5) 0.3362(5) -0.0130(4)
C17E C 0.5067(4) 0.6726(4) 0.1229(6)
C17F C 0.3274(4) 0.6229(6) -0.0067(4)
C17L C 0.6229(6) 0.5067(4) -0.1726(4)
C17Q C 0.4933(4) 0.3274(4) -0.1229(6)
C17R C 0.6726(4) 0.3771(6) 0.0067(4)
H13E H 0.5322 0.6567 0.1007
H13F H 0.3433 0.6007 -0.0322
H13L H 0.6007 0.5322 -0.1567
H13Q H 0.4678 0.3433 -0.1007
H13R H 0.6567 0.3993 0.0322
H14E H 0.4790 0.6865 0.1021
H14F H 0.3135 0.6021 0.0210
H14L H 0.6021 0.4790 -0.1865
H14Q H 0.5210 0.3135 -0.1021
H14R H 0.6865 0.3979 -0.0210
C18E C 0.4898(5) 0.6173(6) 0.2554(4)
C18F C 0.3827(6) 0.7554(4) 0.0102(5)
C18L C 0.7554(4) 0.4898(5) -0.1173(6)
C18Q C 0.5102(5) 0.3827(6) -0.2554(4)
C18R C 0.6173(6) 0.2446(4) -0.0102(5)
H15E H 0.4723 0.5870 0.2437
H15F H 0.4130 0.7437 0.0277
H15L H 0.7437 0.4723 -0.0870
H15Q H 0.5277 0.4130 -0.2437
H15R H 0.5870 0.2563 -0.0277
H16E H 0.5196 0.6076 0.2750
H16F H 0.3924 0.7750 -0.0196
H16L H 0.7750 0.5196 -0.1076
H16Q H 0.4804 0.3924 -0.2750
H16R H 0.6076 0.2250 0.0196
H17E H 0.4671 0.6372 0.2767
H17F H 0.3628 0.7767 0.0329
H17L H 0.7767 0.4671 -0.1372
H17Q H 0.5329 0.3628 -0.2767
H17R H 0.6372 0.2233 -0.0329
O5A O 0.1373(2) 0.1822(3) 0.3865(2)
O5B O 0.3865(2) 0.1373(2) 0.1822(3)
O5E O 0.6135(2) 0.6373(2) 0.3178(3)
O5K O 0.8178(3) 0.8865(2) 0.3627(2)
O5G O 0.8627(2) 0.6822(3) 0.1135(2)
C19A C 0.1630(6) 0.1378(5) 0.4064(4)
C19B C 0.4064(4) 0.1630(6) 0.1378(5)
C19E C 0.5936(4) 0.6630(6) 0.3622(5)
C19K C 0.8622(5) 0.9064(4) 0.3370(6)
C19G C 0.8370(6) 0.6378(5) 0.0936(4)
H18A H 0.1428 0.1077 0.3993
H18B H 0.3993 0.1428 0.1077
H18E H 0.6007 0.6428 0.3923
H18K H 0.8923 0.8993 0.3572
H18G H 0.8572 0.6077 0.1007
H19A H 0.1673 0.1414 0.4429
H19B H 0.4429 0.1673 0.1414
H19E H 0.5571 0.6673 0.3586
H19K H 0.8586 0.9429 0.3327
H19G H 0.8327 0.6414 0.0571
H20A H 0.1961 0.1345 0.3903
H20B H 0.3903 0.1961 0.1345
H20E H 0.6097 0.6961 0.3655
H20K H 0.8655 0.8903 0.3039
H20G H 0.8039 0.6345 0.1097
Cl1 Cl 0.2472(4) 0.4866(3) -0.1408(3)
O6 O 0.2050(9) 0.4842(8) -0.1693(9)
O7 O 0.2653(9) 0.4349(9) -0.1353(9)
O8 O 0.2837(14) 0.5115(13) -0.1769(15)
O9 O 0.2400(14) 0.5209(12) -0.1062(13)
O10? O 0.2765(18) 0.5253(17) -0.1258(18)
O11? O 0.2086(15) 0.4885(18) -0.0944(14)
loop_
_geom_bond_atom_site_label_1
_geom_bond_atom_site_label_2
_geom_bond_site_symmetry_1
_geom_bond_site_symmetry_2
Ag1 O1 1_555 1_555
O1 N1 1_555 1_555
O2 C3 1_555 1_555
O3 C3 1_555 1_555
N1 C4 1_555 1_555
C1 H1 1_555 1_555
H2 C1 1_555 1_555
C2 C1 1_555 1_555
C3 C12 1_555 1_555
C4 H3 1_555 1_555
C5 C2 1_555 1_555
C6 C2 1_555 1_555
H4 C6 1_555 1_555
C7 O2 1_555 1_555
C8 C4 1_555 1_555
H5 C8 1_555 1_555
C9 N1 1_555 1_555
H6 C9 1_555 1_555
C10 C7 1_555 1_555
C11 C9 1_555 1_555
H7 C11 1_555 1_555
C12 C8 1_555 1_555
C13 C5 1_555 1_555
H8 C13 1_555 1_555
Ag2 Ag1 1_555 1_555
O4 Ag2 1_555 1_555
N2 C14 1_555 1_555
C14 H9 1_555 1_555
H10 C14 1_555 1_555
C15 C14 1_555 1_555
H11 C15 1_555 1_555
H12 C15 1_555 1_555
C16 O4 1_555 1_555
C17 C15 1_555 1_555
H13 C17 1_555 1_555
H14 C17 1_555 1_555
C18 N2 1_555 1_555
H15 C18 1_555 1_555
H16 C18 1_555 1_555
H17 C18 1_555 1_555
O5 C10 1_555 1_555
C19 O5 1_555 1_555
H18 C19 1_555 1_555
H19 C19 1_555 1_555
H20 C19 1_555 1_555
Cl1 O6 1_555 1_555
O7 Cl1 1_555 1_555
O8 Cl1 1_555 1_555
O9 Cl1 1_555 1_555
Ag1A O1A 1_555 1_555
Ag1B O1B 1_555 1_555
Ag1B_2 O1K 1_555 1_555
Ag1C O1G 1_555 1_555
O1A N1A 1_555 1_555
O1B N1B 1_555 1_555
O1E Ag1 1_555 1_555
O1K N1K 1_555 1_555
O1G N1G 1_555 1_555
O1F Ag1 1_555 1_555
O1L Ag1 1_555 1_555
O1Q Ag1 1_555 1_555
O1R Ag1 1_555 1_555
O2A C3A 1_555 1_555
O2B C3B 1_555 1_555
O2E C3E 1_555 1_555
O2K C3K 1_555 1_555
O2G C3G 1_555 1_555
O3A C3A 1_555 1_555
O3B C3B 1_555 1_555
O3E C3E 1_555 1_555
O3K C3K 1_555 1_555
O3G C3G 1_555 1_555
N1A C4A 1_555 1_555
N1B C4B 1_555 1_555
N1E O1E 1_555 1_555
N1K C4K 1_555 1_555
N1G C4G 1_555 1_555
C1B H1B 1_555 1_555
C1A C5 1_555 1_555
C1E H1E 1_555 1_555
C1G H1G 1_555 1_555
C1K H1K 1_555 1_555
H1A C1A 1_555 1_555
H2B C1B 1_555 1_555
H2A C1A 1_555 1_555
H2E C1E 1_555 1_555
H2G C1G 1_555 1_555
H2K C1K 1_555 1_555
C2B C1B 1_555 1_555
C2A C1A 1_555 1_555
C2E C1E 1_555 1_555
C2G C1G 1_555 1_555
C2K C1K 1_555 1_555
C3A C12A 1_555 1_555
C3B C12B 1_555 1_555
C3E C12E 1_555 1_555
C3K C12K 1_555 1_555
C3G C12G 1_555 1_555
C4A H3A 1_555 1_555
C4B H3B 1_555 1_555
C4E N1E 1_555 1_555
C4K H3K 1_555 1_555
C4G H3G 1_555 1_555
H3E C4E 1_555 1_555
C5B C1 1_555 1_555
C5A C1B 1_555 1_555
C5E C1K 1_555 1_555
C5G C1E 1_555 1_555
C5K C1G 1_555 1_555
C6A C2A 1_555 1_555
C6B C2B 1_555 1_555
C6E C2E 1_555 1_555
C6K C2K 1_555 1_555
C6G C2G 1_555 1_555
H4A C6A 1_555 1_555
H4B C6B 1_555 1_555
H4E C6E 1_555 1_555
H4K C6K 1_555 1_555
H4G C6G 1_555 1_555
C7A O2A 1_555 1_555
C7B O2B 1_555 1_555
C7E O2E 1_555 1_555
C7K O2K 1_555 1_555
C7G O2G 1_555 1_555
C8A C4A 1_555 1_555
C8B C4B 1_555 1_555
C8E C4E 1_555 1_555
C8K C4K 1_555 1_555
C8G C4G 1_555 1_555
H5A C8A 1_555 1_555
H5B C8B 1_555 1_555
H5E C8E 1_555 1_555
H5K C8K 1_555 1_555
H5G C8G 1_555 1_555
C9A N1A 1_555 1_555
C9B N1B 1_555 1_555
C9E N1E 1_555 1_555
C9K N1K 1_555 1_555
C9G N1G 1_555 1_555
H6A C9A 1_555 1_555
H6B C9B 1_555 1_555
H6E C9E 1_555 1_555
H6K C9K 1_555 1_555
H6G C9G 1_555 1_555
C10A C7A 1_555 1_555
C10B C7B 1_555 1_555
C10E C7E 1_555 1_555
C10K C7K 1_555 1_555
C10G C7G 1_555 1_555
C11A C9A 1_555 1_555
C11B C9B 1_555 1_555
C11E C9E 1_555 1_555
C11K C9K 1_555 1_555
C11G C9G 1_555 1_555
H7A C11A 1_555 1_555
H7B C11B 1_555 1_555
H7E C11E 1_555 1_555
H7K C11K 1_555 1_555
H7G C11G 1_555 1_555
C12A C8A 1_555 1_555
C12B C8B 1_555 1_555
C12E C8E 1_555 1_555
C12K C8K 1_555 1_555
C12G C8G 1_555 1_555
C13A C5A 1_555 1_555
C13B C5B 1_555 1_555
C13E C5E 1_555 1_555
C13K C5K 1_555 1_555
C13G C5G 1_555 1_555
H8A C13A 1_555 1_555
H8B C13B 1_555 1_555
H8E C13E 1_555 1_555
H8K C13K 1_555 1_555
H8G C13G 1_555 1_555
Ag2L Ag1 1_555 1_555
O4E Ag2 1_555 1_555
O4F Ag2 1_555 1_555
O4L Ag2L 1_555 1_555
O4Q Ag2L 1_555 1_555
O4R Ag2L 1_555 1_555
N2E C14E 1_555 1_555
N2F C14F 1_555 1_555
N2L C14L 1_555 1_555
N2Q C14Q 1_555 1_555
N2R C14R 1_555 1_555
C14E H9E 1_555 1_555
C14F H9F 1_555 1_555
C14L H9L 1_555 1_555
C14Q H9Q 1_555 1_555
C14R H9R 1_555 1_555
H10E C14E 1_555 1_555
H10F C14F 1_555 1_555
H10L C14L 1_555 1_555
H10Q C14Q 1_555 1_555
H10R C14R 1_555 1_555
C15E C14E 1_555 1_555
C15F C14F 1_555 1_555
C15L C14L 1_555 1_555
C15Q C14Q 1_555 1_555
C15R C14R 1_555 1_555
H11E C15E 1_555 1_555
H11F C15F 1_555 1_555
H11L C15L 1_555 1_555
H11Q C15Q 1_555 1_555
H11R C15R 1_555 1_555
H12E C15E 1_555 1_555
H12F C15F 1_555 1_555
H12L C15L 1_555 1_555
H12Q C15Q 1_555 1_555
H12R C15R 1_555 1_555
C16E O4E 1_555 1_555
C16F O4F 1_555 1_555
C16L O4L 1_555 1_555
C16Q O4Q 1_555 1_555
C16R O4R 1_555 1_555
C17E C15E 1_555 1_555
C17F C15F 1_555 1_555
C17L C15L 1_555 1_555
C17Q C15Q 1_555 1_555
C17R C15R 1_555 1_555
H13E C17E 1_555 1_555
H13F C17F 1_555 1_555
H13L C17L 1_555 1_555
H13Q C17Q 1_555 1_555
H13R C17R 1_555 1_555
H14E C17E 1_555 1_555
H14F C17F 1_555 1_555
H14L C17L 1_555 1_555
H14Q C17Q 1_555 1_555
H14R C17R 1_555 1_555
C18E N2E 1_555 1_555
C18F N2F 1_555 1_555
C18L N2L 1_555 1_555
C18Q N2Q 1_555 1_555
C18R N2R 1_555 1_555
H15E C18E 1_555 1_555
H15F C18F 1_555 1_555
H15L C18L 1_555 1_555
H15Q C18Q 1_555 1_555
H15R C18R 1_555 1_555
H16E C18E 1_555 1_555
H16F C18F 1_555 1_555
H16L C18L 1_555 1_555
H16Q C18Q 1_555 1_555
H16R C18R 1_555 1_555
H17E C18E 1_555 1_555
H17F C18F 1_555 1_555
H17L C18L 1_555 1_555
H17Q C18Q 1_555 1_555
H17R C18R 1_555 1_555
O5A C10A 1_555 1_555
O5B C10B 1_555 1_555
O5E C10E 1_555 1_555
O5K C10K 1_555 1_555
O5G C10G 1_555 1_555
C19A O5A 1_555 1_555
C19B O5B 1_555 1_555
C19E O5E 1_555 1_555
C19K O5K 1_555 1_555
C19G O5G 1_555 1_555
H18A C19A 1_555 1_555
H18B C19B 1_555 1_555
H18E C19E 1_555 1_555
H18K C19K 1_555 1_555
H18G C19G 1_555 1_555
H19A C19A 1_555 1_555
H19B C19B 1_555 1_555
H19E C19E 1_555 1_555
H19K C19K 1_555 1_555
H19G C19G 1_555 1_555
H20A C19A 1_555 1_555
H20B C19B 1_555 1_555
H20E C19E 1_555 1_555
H20K C19K 1_555 1_555
H20G C19G 1_555 1_555
C6 C7 1_555 1_555
C10 C13 1_555 1_555
C11 C12 1_555 1_555
N2 C16 1_555 1_555
C16 C17 1_555 1_555
C2B C5B 1_555 1_555
C2A C5A 1_555 1_555
C2E C5E 1_555 1_555
C2G C5G 1_555 1_555
C2K C5K 1_555 1_555
C6A C7A 1_555 1_555
C6B C7B 1_555 1_555
C6E C7E 1_555 1_555
C6K C7K 1_555 1_555
C6G C7G 1_555 1_555
C10A C13A 1_555 1_555
C10B C13B 1_555 1_555
C10E C13E 1_555 1_555
C10K C13K 1_555 1_555
C10G C13G 1_555 1_555
C11A C12A 1_555 1_555
C11B C12B 1_555 1_555
C11E C12E 1_555 1_555
C11K C12K 1_555 1_555
C11G C12G 1_555 1_555
N2E C16E 1_555 1_555
N2F C16F 1_555 1_555
N2L C16L 1_555 1_555
N2Q C16Q 1_555 1_555
N2R C16R 1_555 1_555
C16E C17E 1_555 1_555
C16F C17F 1_555 1_555
C16L C17L 1_555 1_555
C16Q C17Q 1_555 1_555
C16R C17R 1_555 1_555

#END
