
#######################################################################
#
#                 Cambridge Crystallographic Data Centre
#                                CCDC 
#
#######################################################################
#
# If this CIF has been generated from an entry in the Cambridge 
# Structural Database, then it will include bibliographic, chemical, 
# crystal, experimental, refinement or atomic coordinate data resulting 
# from the CCDC's data processing and validation procedures.
#
#######################################################################

data_REJQAA
_symmetry_cell_setting           monoclinic
_symmetry_space_group_name_H-M   'P 21'
_symmetry_Int_Tables_number      4
_space_group_name_Hall           'P 2yb'
loop_
_symmetry_equiv_pos_site_id
_symmetry_equiv_pos_as_xyz
1 x,y,z
2 -x,1/2+y,-z
_cell_length_a                   8.0052(7)
_cell_length_b                   24.325(2)
_cell_length_c                   14.2675(12)
_cell_angle_alpha                90
_cell_angle_beta                 100.117(3)
_cell_angle_gamma                90
_cell_volume                     2735.06
loop_
_atom_site_label
_atom_site_type_symbol
_atom_site_fract_x
_atom_site_fract_y
_atom_site_fract_z
Cd1 Cd 0.29641(4) 0.270330(16) 0.24458(2)
O1 O 0.1839(4) 0.06714(15) 0.3753(3)
N1 N 0.0668(5) 0.17135(19) 0.1901(3)
C1 C 0.6253(6) 0.0279(2) 0.3489(3)
O2 O 0.2206(5) -0.01973(17) 0.4838(3)
N2 N 0.4229(5) -0.25225(19) 0.5735(3)
C3 C 0.4706(6) 0.0568(2) 0.3375(4)
H2 H 0.4565 0.0885 0.2978
O3 O 0.6413(6) -0.24921(17) 0.3683(3)
N3 N 0.9511(6) -0.1440(2) -0.1248(3)
C4 C 0.3386(6) 0.0407(2) 0.3822(3)
O4 O 0.7374(7) -0.24826(19) 0.2030(3)
C5 C 0.3575(6) -0.0070(2) 0.4403(3)
O5 O 0.6531(5) -0.03448(18) -0.0859(3)
N5 N 0.2613(10) 0.3709(2) 0.3363(4)
C6 C 0.5095(6) -0.0355(2) 0.4527(4)
H3 H 0.5232 -0.0671 0.4926
O6 O 0.5046(6) 0.05666(18) -0.0485(3)
N6 N 0.5327(6) 0.2342(3) 0.1324(4)
C7 C 0.6449(6) -0.0188(2) 0.4072(4)
O7 O 0.0718(4) 0.21488(15) 0.2482(3)
C8 C 0.8090(6) -0.0528(2) 0.4296(4)
H4 H 0.9057 -0.0298 0.4186
H5 H 0.8289 -0.0633 0.4977
O8 O 0.5452(5) -0.27678(17) 0.6359(3)
C9 C 0.8027(6) -0.1050(2) 0.3687(4)
O9 O 0.8507(5) -0.18653(16) -0.1135(3)
C10 C 0.7275(6) -0.1527(2) 0.3980(4)
H6 H 0.6869 -0.1524 0.4567
C11 C 0.7110(7) -0.2003(3) 0.3438(4)
O11 O 0.4037(8) 0.3575(2) 0.3163(4)
C12 C 0.7649(8) -0.2007(3) 0.2547(4)
O12 O 0.1504(7) 0.3340(2) 0.3364(4)
C13 C 0.8449(7) -0.1540(2) 0.2271(4)
H7 H 0.8871 -0.1547 0.1689
O13 O 0.2304(12) 0.4198(3) 0.3512(4)
C14 C 0.8648(6) -0.1061(2) 0.2829(4)
O14 O 0.4021(5) 0.2045(2) 0.1382(4)
C15 C 0.9480(6) -0.0571(3) 0.2454(4)
H8 H 1.0426 -0.0701 0.2149
H9 H 0.9970 -0.0334 0.2998
O15 O 0.5450(5) 0.2800(2) 0.1745(3)
C16 C 0.8280(6) -0.0224(2) 0.1735(4)
O16 O 0.6431(7) 0.2190(3) 0.0896(5)
C17 C 0.8008(6) -0.0427(2) 0.0796(4)
H10 H 0.8589 -0.0748 0.0655
C18 C 0.6896(6) -0.0162(2) 0.0066(4)
C19 C 0.6074(7) 0.0328(2) 0.0270(4)
C20 C 0.6381(6) 0.0535(2) 0.1200(4)
H11 H 0.5869 0.0872 0.1334
C21 C 0.7448(6) 0.0250(2) 0.1950(4)
C22 C 0.7613(6) 0.0485(2) 0.2947(4)
H12 H 0.7548 0.0891 0.2904
H13 H 0.8743 0.0387 0.3311
C23 C 0.1695(6) 0.1222(2) 0.3377(4)
H14 H 0.2799 0.1413 0.3550
H15 H 0.0842 0.1428 0.3662
C24 C 0.1170(6) 0.1214(2) 0.2299(4)
C25 C 0.1125(7) 0.0760(2) 0.1701(4)
H16 H 0.1460 0.0410 0.1963
C26 C 0.0599(7) 0.0814(3) 0.0734(4)
H17 H 0.0604 0.0505 0.0327
C27 C 0.0059(8) 0.1324(3) 0.0358(4)
H18 H -0.0335 0.1364 -0.0307
C28 C 0.0099(7) 0.1767(3) 0.0950(4)
H19 H -0.0274 0.2116 0.0696
C29 C 0.2409(8) -0.0674(3) 0.5452(5)
H20 H 0.2796 -0.0986 0.5112
H21 H 0.1320 -0.0764 0.5638
H22 H 0.3250 -0.0594 0.6022
C30 C 0.6252(7) -0.2577(3) 0.4665(4)
H23 H 0.7149 -0.2368 0.5083
H24 H 0.6414 -0.2972 0.4825
C31 C 0.4539(6) -0.2396(3) 0.4847(4)
C32 C 0.3260(7) -0.2165(2) 0.4197(4)
H25 H 0.3443 -0.2087 0.3570
C33 C 0.1703(8) -0.2045(3) 0.4450(5)
H26 H 0.0833 -0.1875 0.4006
C34 C 0.1436(7) -0.2171(3) 0.5334(5)
H27 H 0.0368 -0.2091 0.5506
C35 C 0.2717(7) -0.2420(3) 0.6004(5)
H28 H 0.2527 -0.2512 0.6624
C36 C 0.7545(13) -0.2457(3) 0.1050(6)
H29 H 0.6652 -0.2222 0.0703
H30 H 0.7439 -0.2828 0.0777
H31 H 0.8659 -0.2305 0.0999
C37 C 0.7049(7) -0.0890(2) -0.1033(4)
H32 H 0.6309 -0.1036 -0.1608
H33 H 0.6909 -0.1127 -0.0488
C38 C 0.8877(6) -0.0912(2) -0.1173(4)
C39 C 0.9916(8) -0.0467(3) -0.1272(4)
H34 H 0.9495 -0.0104 -0.1226
C40 C 1.1542(8) -0.0540(3) -0.1436(5)
H35 H 1.2265 -0.0234 -0.1471
C41 C 1.2105(8) -0.1074(3) -0.1550(6)
H36 H 1.3206 -0.1131 -0.1696
C42 C 1.1076(7) -0.1525(3) -0.1453(5)
H37 H 1.1470 -0.1888 -0.1529
C43 C 0.4328(10) 0.1086(3) -0.0340(5)
H38 H 0.3634 0.1055 0.0159
H39 H 0.3618 0.1209 -0.0933
H40 H 0.5238 0.1354 -0.0145
Cd1A Cd 0.70359(4) -0.229670(16) -0.24458(2)
Cd1A_2 Cd 0.70359(4) -0.229670(16) 0.75542(2)
O8A O 0.4548(5) 0.22322(17) 0.3641(3)
O9A O 0.1493(5) 0.31347(16) 0.1135(3)
C2 C 1.028(2) 0.1193(8) 0.7545(12)
H1 H 1.0541 0.1564 0.7718
N7 N 1.0259(8) 0.1033(3) 0.6648(4)
O17 O 0.9956(8) 0.0854(3) 0.8176(5)
C47 C 1.000(2) 0.0434(7) 0.6410(12)
H48 H 1.1047 0.0278 0.6262
H49 H 0.9085 0.0394 0.5857
H50 H 0.9682 0.0240 0.6955
C48 C 1.071(3) 0.1417(10) 0.5901(15)
H51 H 1.1088 0.1770 0.6196
H52 H 0.9717 0.1475 0.5404
H53 H 1.1631 0.1255 0.5619
N4 N 0.5687(8) 0.0920(3) 0.6696(5)
O10 O 0.6327(10) 0.1422(3) 0.5481(4)
C44 C 0.6088(9) 0.0984(3) 0.5835(5)
H41 H 0.6192 0.0662 0.5473
C45 C 0.560(2) 0.1358(5) 0.7330(7)
H42 H 0.6042 0.1693 0.7079
H43 H 0.6288 0.1269 0.7951
H44 H 0.4421 0.1416 0.7403
C46 C 0.5415(19) 0.0378(6) 0.7065(8)
H45 H 0.5682 0.0098 0.6620
H46 H 0.4227 0.0341 0.7141
H47 H 0.6154 0.0328 0.7684
C49? C 1.0047(19) 0.0675(8) 0.7353(12)
C50? C 1.051(3) 0.0914(12) 0.5707(18)
C51? C 1.019(3) 0.1634(10) 0.6829(17)
H54? H 0.9967 0.0292 0.7227
H55? H 1.0846 0.0528 0.5669
H56? H 1.1411 0.1151 0.5547
H57? H 0.9458 0.0981 0.5258
H58? H 0.9229 0.1796 0.6395
H59? H 1.1246 0.1806 0.6722
H60? H 1.0045 0.1697 0.7489
loop_
_geom_bond_atom_site_label_1
_geom_bond_atom_site_label_2
_geom_bond_site_symmetry_1
_geom_bond_site_symmetry_2
Cd1 O7 1_555 1_555
O1 C4 1_555 1_555
N1 O7 1_555 1_555
C1 C3 1_555 1_555
C2 H1 1_555 1_555
O2 C5 1_555 1_555
N2 O8 1_555 1_555
C3 H2 1_555 1_555
O3 C11 1_555 1_555
N3 O9 1_555 1_555
C4 C3 1_555 1_555
O4 C12 1_555 1_555
N4 C44 1_555 1_555
C5 C4 1_555 1_555
O5 C18 1_555 1_555
N5 O11 1_555 1_555
C6 C5 1_555 1_555
H3 C6 1_555 1_555
O6 C19 1_555 1_555
N6 O14 1_555 1_555
C7 C1 1_555 1_555
N7 C2 1_555 1_555
C8 C7 1_555 1_555
H4 C8 1_555 1_555
H5 C8 1_555 1_555
O8 Cd1A_2 1_555 1_555
C9 C8 1_555 1_555
O9 Cd1A 1_555 1_555
C10 C9 1_555 1_555
H6 C10 1_555 1_555
O10 C44 1_555 1_555
C11 C10 1_555 1_555
O11 Cd1 1_555 1_555
C12 C11 1_555 1_555
O12 Cd1 1_555 1_555
C13 C12 1_555 1_555
H7 C13 1_555 1_555
O13 N5 1_555 1_555
C14 C9 1_555 1_555
O14 Cd1 1_555 1_555
C15 C14 1_555 1_555
H8 C15 1_555 1_555
H9 C15 1_555 1_555
O15 Cd1 1_555 1_555
C16 C15 1_555 1_555
O16 N6 1_555 1_555
C17 C16 1_555 1_555
H10 C17 1_555 1_555
O17 C2 1_555 1_555
C18 C17 1_555 1_555
C19 C18 1_555 1_555
C20 C19 1_555 1_555
H11 C20 1_555 1_555
C21 C16 1_555 1_555
C22 C1 1_555 1_555
H12 C22 1_555 1_555
H13 C22 1_555 1_555
C23 O1 1_555 1_555
H14 C23 1_555 1_555
H15 C23 1_555 1_555
C24 N1 1_555 1_555
C25 C24 1_555 1_555
H16 C25 1_555 1_555
C26 C25 1_555 1_555
H17 C26 1_555 1_555
C27 C26 1_555 1_555
H18 C27 1_555 1_555
C28 N1 1_555 1_555
H19 C28 1_555 1_555
C29 O2 1_555 1_555
H20 C29 1_555 1_555
H21 C29 1_555 1_555
H22 C29 1_555 1_555
C30 O3 1_555 1_555
H23 C30 1_555 1_555
H24 C30 1_555 1_555
C31 N2 1_555 1_555
C32 C31 1_555 1_555
H25 C32 1_555 1_555
C33 C32 1_555 1_555
H26 C33 1_555 1_555
C34 C33 1_555 1_555
H27 C34 1_555 1_555
C35 N2 1_555 1_555
H28 C35 1_555 1_555
C36 O4 1_555 1_555
H29 C36 1_555 1_555
H30 C36 1_555 1_555
H31 C36 1_555 1_555
C37 O5 1_555 1_555
H32 C37 1_555 1_555
H33 C37 1_555 1_555
C38 N3 1_555 1_555
C39 C38 1_555 1_555
H34 C39 1_555 1_555
C40 C39 1_555 1_555
H35 C40 1_555 1_555
C41 C40 1_555 1_555
H36 C41 1_555 1_555
C42 N3 1_555 1_555
H37 C42 1_555 1_555
C43 O6 1_555 1_555
H38 C43 1_555 1_555
H39 C43 1_555 1_555
H40 C43 1_555 1_555
C44 H41 1_555 1_555
C45 N4 1_555 1_555
H42 C45 1_555 1_555
H43 C45 1_555 1_555
H44 C45 1_555 1_555
C46 N4 1_555 1_555
H45 C46 1_555 1_555
H46 C46 1_555 1_555
H47 C46 1_555 1_555
C47 N7 1_555 1_555
H48 C47 1_555 1_555
H49 C47 1_555 1_555
H50 C47 1_555 1_555
C48 N7 1_555 1_555
H51 C48 1_555 1_555
H52 C48 1_555 1_555
H53 C48 1_555 1_555
O8A Cd1 1_555 1_555
O9A Cd1 1_555 1_555
N5 O12 1_555 1_555
C6 C7 1_555 1_555
N6 O15 1_555 1_555
C13 C14 1_555 1_555
C20 C21 1_555 1_555
C21 C22 1_555 1_555
C23 C24 1_555 1_555
C27 C28 1_555 1_555
C30 C31 1_555 1_555
C34 C35 1_555 1_555
C37 C38 1_555 1_555
C41 C42 1_555 1_555

#END
