
#######################################################################
#
#                 Cambridge Crystallographic Data Centre
#                                CCDC 
#
#######################################################################
#
# If this CIF has been generated from an entry in the Cambridge 
# Structural Database, then it will include bibliographic, chemical, 
# crystal, experimental, refinement or atomic coordinate data resulting 
# from the CCDC's data processing and validation procedures.
#
#######################################################################

data_REJQEE
_symmetry_cell_setting           triclinic
_symmetry_space_group_name_H-M   'P -1'
_symmetry_Int_Tables_number      2
_space_group_name_Hall           '-P 1'
loop_
_symmetry_equiv_pos_site_id
_symmetry_equiv_pos_as_xyz
1 x,y,z
2 -x,-y,-z
_cell_length_a                   11.7843(8)
_cell_length_b                   18.9058(12)
_cell_length_c                   24.2187(16)
_cell_angle_alpha                100.396(3)
_cell_angle_beta                 101.476(3)
_cell_angle_gamma                97.089(3)
_cell_volume                     5129.52
loop_
_atom_site_label
_atom_site_type_symbol
_atom_site_fract_x
_atom_site_fract_y
_atom_site_fract_z
Cu1 Cu 0.64421(3) 0.51331(2) 0.023350(17)
Cl1 Cl 0.74464(7) 0.47522(5) 0.09693(4)
O1 O 0.3908(2) 0.45753(19) 0.28238(11)
N1 N 0.4892(2) 0.38328(15) 0.03641(13)
C1 C 0.1763(3) 0.4331(2) 0.24540(16)
H1 H 0.1633 0.4416 0.2833
Cu2 Cu -0.5000 0.0000 0.0000
Cl2 Cl 0.77272(7) 0.60760(5) 0.01987(4)
O2 O 0.4265(2) 0.43747(15) 0.17898(10)
N2 N -0.2880(3) -0.04075(16) 0.06195(15)
C2 C 0.2898(3) 0.4389(2) 0.23835(15)
Cu3 Cu -0.00727(5) 0.54083(3) 0.44487(2)
Cl3 Cl -0.42884(9) 0.08107(5) 0.08405(5)
O3 O 0.1013(3) 0.15113(15) -0.01220(15)
N3 N 0.1268(3) 0.4149(2) 0.46067(16)
C3 C 0.3087(3) 0.4279(2) 0.18177(15)
Cl4 Cl 0.08625(11) 0.52055(7) 0.37412(5)
O4 O -0.0635(3) 0.06699(14) 0.01303(14)
N4 N 0.7283(3) 0.39684(17) -0.13766(14)
C4 C 0.2151(3) 0.40850(18) 0.13555(15)
H2 H 0.2287 0.3995 0.0977
Cl5 Cl -0.04957(16) 0.65086(9) 0.43913(6)
O5 O -0.2143(3) 0.15513(17) 0.28464(14)
N5 N -0.3257(4) 0.3966(3) 0.32817(18)
C5 C 0.0980(3) 0.40156(18) 0.14279(15)
O6 O -0.0789(3) 0.26567(17) 0.35950(13)
C6 C 0.0004(3) 0.37683(18) 0.08926(14)
H3 H 0.0234 0.3977 0.0576
H4 H -0.0711 0.3955 0.0968
O7 O 0.49401(18) 0.45009(12) 0.02212(10)
C7 C -0.0269(3) 0.29376(18) 0.07049(15)
O8 O -0.3715(2) -0.05632(14) 0.01224(13)
C8 C 0.0450(3) 0.2618(2) 0.03825(16)
H5 H 0.1042 0.2922 0.0279
O9 O 0.0451(2) 0.45557(17) 0.47787(12)
C9 C 0.0332(3) 0.1858(2) 0.02025(18)
O10 O 0.6528(2) 0.42887(13) -0.05841(11)
C10 C -0.0570(4) 0.1417(2) 0.03411(19)
C11 C -0.1302(3) 0.17241(19) 0.06583(17)
H6 H -0.1915 0.1418 0.0746
O12 O -0.1894(3) 0.4693(2) 0.40649(14)
C12 C -0.1155(3) 0.24926(19) 0.08567(15)
C13 C -0.1983(3) 0.2796(2) 0.12227(16)
H7 H -0.2041 0.3302 0.1178
H8 H -0.2776 0.2501 0.1072
C14 C -0.1604(3) 0.27995(19) 0.18550(16)
C15 C -0.2001(3) 0.2182(2) 0.20444(18)
H9 H -0.2474 0.1775 0.1771
C16 C -0.1721(4) 0.2143(2) 0.26258(18)
C17 C -0.1040(4) 0.2737(2) 0.30237(18)
C18 C -0.0629(3) 0.3345(2) 0.28430(17)
H10 H -0.0145 0.3743 0.3120
C19 C -0.0898(3) 0.33983(19) 0.22651(16)
C20 C -0.0429(3) 0.41105(19) 0.21131(15)
H11 H -0.0411 0.4518 0.2437
H12 H -0.0985 0.4183 0.1771
C21 C 0.0795(3) 0.41520(19) 0.19861(15)
C22 C 0.4528(3) 0.4491(2) 0.12584(15)
H13 H 0.5267 0.4842 0.1340
H14 H 0.3892 0.4704 0.1049
C23 C 0.4653(3) 0.3790(2) 0.08869(16)
C24 C 0.4599(3) 0.3109(2) 0.10358(18)
H15 H 0.4440 0.3056 0.1397
C25 C 0.4775(3) 0.2514(2) 0.0662(2)
H16 H 0.4717 0.2050 0.0763
C26 C 0.5033(3) 0.2587(2) 0.0143(2)
H17 H 0.5176 0.2179 -0.0111
C27 C 0.5083(3) 0.3273(2) -0.00066(17)
H18 H 0.5249 0.3336 -0.0364
C28 C -0.1722(4) 0.0221(2) 0.00686(19)
H19 H -0.1808 -0.0210 -0.0247
H20 H -0.2367 0.0494 -0.0040
C29 C -0.1826(4) -0.0034(2) 0.06197(19)
C30 C -0.0941(4) 0.0066(3) 0.1106(2)
H21 H -0.0190 0.0328 0.1120
C31 C -0.1143(6) -0.0213(3) 0.1573(2)
H22 H -0.0523 -0.0159 0.1903
C32 C -0.2224(5) -0.0564(3) 0.1561(2)
H23 H -0.2366 -0.0750 0.1884
C33 C -0.3112(5) -0.0650(2) 0.1083(2)
H24 H -0.3880 -0.0877 0.1077
C34 C -0.0455(4) 0.3307(3) 0.40349(18)
H25 H -0.0766 0.3230 0.4374
H26 H -0.0797 0.3710 0.3891
C35 C 0.0861(4) 0.3513(3) 0.42111(19)
C36 C 0.1671(5) 0.3124(3) 0.4026(2)
H27 H 0.1418 0.2678 0.3750
C37 C 0.2860(6) 0.3381(4) 0.4242(3)
H28 H 0.3422 0.3112 0.4112
C38 C 0.3226(5) 0.4021(4) 0.4642(3)
H29 H 0.4039 0.4197 0.4795
C39 C 0.2408(4) 0.4406(4) 0.4819(2)
H30 H 0.2650 0.4854 0.5093
C40 C 0.3753(4) 0.4522(5) 0.3384(2)
H31 H 0.3320 0.4902 0.3523
H32 H 0.4523 0.4586 0.3649
H33 H 0.3310 0.4042 0.3367
C41 C 0.1875(5) 0.1996(3) -0.0299(3)
H34 H 0.1474 0.2325 -0.0510
H35 H 0.2282 0.1705 -0.0549
H36 H 0.2447 0.2284 0.0043
C42 C -0.2847(7) 0.0942(3) 0.2456(2)
H37 H -0.3575 0.1081 0.2267
H38 H -0.3034 0.0559 0.2664
H39 H -0.2423 0.0759 0.2165
C43 C 0.7381(3) 0.42168(18) -0.08128(16)
C44 C 0.8637(3) 0.4394(2) -0.05097(18)
H40 H 0.8793 0.4121 -0.0197
H41 H 0.8860 0.4922 -0.0340
C45 C 0.9334(4) 0.4167(3) -0.0967(3)
H42 H 0.9690 0.3733 -0.0903
H43 H 0.9963 0.4569 -0.0961
C46 C 0.8376(4) 0.3987(2) -0.1562(2)
H44 H 0.8477 0.4371 -0.1785
H45 H 0.8418 0.3511 -0.1800
C47 C 0.6155(4) 0.3774(3) -0.17921(19)
H46 H 0.5546 0.3601 -0.1603
H47 H 0.6204 0.3388 -0.2112
H48 H 0.5959 0.4203 -0.1941
C53 C -0.2439(4) 0.4571(4) 0.3549(2)
C54 C -0.2268(5) 0.5039(4) 0.3137(2)
H58 H -0.1478 0.5046 0.3054
H59 H -0.2369 0.5545 0.3287
C55 C -0.3236(5) 0.4679(4) 0.2594(2)
H60 H -0.3900 0.4953 0.2560
H61 H -0.2923 0.4656 0.2242
C56 C -0.3626(5) 0.3910(4) 0.2681(2)
H62 H -0.4488 0.3766 0.2552
H63 H -0.3246 0.3548 0.2466
C57 C -0.3559(6) 0.3354(4) 0.3567(3)
H64 H -0.3065 0.2983 0.3492
H65 H -0.4387 0.3137 0.3412
H66 H -0.3424 0.3540 0.3983
Cu1A Cu -1.64421(3) -0.51331(2) -0.023350(17)
Cu1_2 Cu -1.35579(3) -0.48669(2) 0.023350(17)
Cu1A_2 Cu 0.35579(3) 0.48669(2) -0.023350(17)
Cl1A Cl -1.74464(7) -0.47522(5) -0.09693(4)
O1A O -1.3908(2) -0.45753(19) -0.28238(11)
N1A N -1.4892(2) -0.38328(15) -0.03641(13)
C1A C -1.1763(3) -0.4331(2) -0.24540(16)
H1A H -1.1633 -0.4416 -0.2833
Cl2A Cl -1.77272(7) -0.60760(5) -0.01987(4)
O2A O -1.4265(2) -0.43747(15) -0.17898(10)
N2A N -0.7120(3) 0.04075(16) -0.06195(15)
C2A C -1.2898(3) -0.4389(2) -0.23835(15)
Cu3A Cu -0.99273(5) -0.54083(3) -0.44487(2)
Cu3_2 Cu -1.00727(5) -0.45917(3) -0.55513(2)
Cu3A_2 Cu 0.00727(5) 0.45917(3) 0.55513(2)
Cl3A Cl -0.57116(9) -0.08107(5) -0.08405(5)
O3A O -1.1013(3) -0.15113(15) 0.01220(15)
N3A N -1.1268(3) -0.4149(2) -0.46067(16)
C3A C -1.3087(3) -0.4279(2) -0.18177(15)
Cl4A Cl -1.08625(11) -0.52055(7) -0.37412(5)
O4A O -0.9365(3) -0.06699(14) -0.01303(14)
N4A N -1.7283(3) -0.39684(17) 0.13766(14)
C4A C -1.2151(3) -0.40850(18) -0.13555(15)
H2A H -1.2287 -0.3995 -0.0977
Cl5A Cl -0.95043(16) -0.65086(9) -0.43913(6)
O5A O -0.7857(3) -0.15513(17) -0.28464(14)
N5A N -0.6743(4) -0.3966(3) -0.32817(18)
C5A C -1.0980(3) -0.40156(18) -0.14279(15)
O6A O -0.9211(3) -0.26567(17) -0.35950(13)
C6A C -1.0004(3) -0.37683(18) -0.08926(14)
H3A H -1.0234 -0.3977 -0.0576
H4A H -0.9289 -0.3955 -0.0968
O7A O -1.49401(18) -0.45009(12) -0.02212(10)
O7_2 O -1.50599(18) -0.54991(12) 0.02212(10)
O7A_2 O 0.50599(18) 0.54991(12) -0.02212(10)
C7A C -0.9731(3) -0.29376(18) -0.07049(15)
O8A O -0.6285(2) 0.05632(14) -0.01224(13)
C8A C -1.0450(3) -0.2618(2) -0.03825(16)
H5A H -1.1042 -0.2922 -0.0279
O9A O -1.0451(2) -0.45557(17) -0.47787(12)
O9_2 O -0.9549(2) -0.54443(17) -0.52213(12)
O9A_2 O -0.0451(2) 0.54443(17) 0.52213(12)
C9A C -1.0332(3) -0.1858(2) -0.02025(18)
O10A O -1.6528(2) -0.42887(13) 0.05841(11)
C10A C -0.9430(4) -0.1417(2) -0.03411(19)
C11A C -0.8698(3) -0.17241(19) -0.06583(17)
H6A H -0.8085 -0.1418 -0.0746
O12A O -0.8106(3) -0.4693(2) -0.40649(14)
C12A C -0.8845(3) -0.24926(19) -0.08567(15)
C13A C -0.8017(3) -0.2796(2) -0.12227(16)
H7A H -0.7959 -0.3302 -0.1178
H8A H -0.7224 -0.2501 -0.1072
C14A C -0.8396(3) -0.27995(19) -0.18550(16)
C15A C -0.7999(3) -0.2182(2) -0.20444(18)
H9A H -0.7526 -0.1775 -0.1771
C16A C -0.8279(4) -0.2143(2) -0.26258(18)
C17A C -0.8960(4) -0.2737(2) -0.30237(18)
C18A C -0.9371(3) -0.3345(2) -0.28430(17)
H10A H -0.9855 -0.3743 -0.3120
C19A C -0.9102(3) -0.33983(19) -0.22651(16)
C20A C -0.9571(3) -0.41105(19) -0.21131(15)
H11A H -0.9589 -0.4518 -0.2437
H12A H -0.9015 -0.4183 -0.1771
C21A C -1.0795(3) -0.41520(19) -0.19861(15)
C22A C -1.4528(3) -0.4491(2) -0.12584(15)
H13A H -1.5267 -0.4842 -0.1340
H14A H -1.3892 -0.4704 -0.1049
C23A C -1.4653(3) -0.3790(2) -0.08869(16)
C24A C -1.4599(3) -0.3109(2) -0.10358(18)
H15A H -1.4440 -0.3056 -0.1397
C25A C -1.4775(3) -0.2514(2) -0.0662(2)
H16A H -1.4717 -0.2050 -0.0763
C26A C -1.5033(3) -0.2587(2) -0.0143(2)
H17A H -1.5176 -0.2179 0.0111
C27A C -1.5083(3) -0.3273(2) 0.00066(17)
H18A H -1.5249 -0.3336 0.0364
C28A C -0.8278(4) -0.0221(2) -0.00686(19)
H19A H -0.8192 0.0210 0.0247
H20A H -0.7633 -0.0494 0.0040
C29A C -0.8174(4) 0.0034(2) -0.06197(19)
C30A C -0.9059(4) -0.0066(3) -0.1106(2)
H21A H -0.9810 -0.0328 -0.1120
C31A C -0.8857(6) 0.0213(3) -0.1573(2)
H22A H -0.9477 0.0159 -0.1903
C32A C -0.7776(5) 0.0564(3) -0.1561(2)
H23A H -0.7634 0.0750 -0.1884
C33A C -0.6888(5) 0.0650(2) -0.1083(2)
H24A H -0.6120 0.0877 -0.1077
C34A C -0.9545(4) -0.3307(3) -0.40349(18)
H25A H -0.9234 -0.3230 -0.4374
H26A H -0.9203 -0.3710 -0.3891
C35A C -1.0861(4) -0.3513(3) -0.42111(19)
C36A C -1.1671(5) -0.3124(3) -0.4026(2)
H27A H -1.1418 -0.2678 -0.3750
C37A C -1.2860(6) -0.3381(4) -0.4242(3)
H28A H -1.3422 -0.3112 -0.4112
C38A C -1.3226(5) -0.4021(4) -0.4642(3)
H29A H -1.4039 -0.4197 -0.4795
C39A C -1.2408(4) -0.4406(4) -0.4819(2)
H30A H -1.2650 -0.4854 -0.5093
C40A C -1.3753(4) -0.4522(5) -0.3384(2)
H31A H -1.3320 -0.4902 -0.3523
H32A H -1.4523 -0.4586 -0.3649
H33A H -1.3310 -0.4042 -0.3367
C41A C -1.1875(5) -0.1996(3) 0.0299(3)
H34A H -1.1474 -0.2325 0.0510
H35A H -1.2282 -0.1705 0.0549
H36A H -1.2447 -0.2284 -0.0043
C42A C -0.7153(7) -0.0942(3) -0.2456(2)
H37A H -0.6425 -0.1081 -0.2267
H38A H -0.6966 -0.0559 -0.2664
H39A H -0.7577 -0.0759 -0.2165
C43A C -1.7381(3) -0.42168(18) 0.08128(16)
C44A C -1.8637(3) -0.4394(2) 0.05097(18)
H40A H -1.8793 -0.4121 0.0197
H41A H -1.8860 -0.4922 0.0340
C45A C -1.9334(4) -0.4167(3) 0.0967(3)
H42A H -1.9690 -0.3733 0.0903
H43A H -1.9963 -0.4569 0.0961
C46A C -1.8376(4) -0.3987(2) 0.1562(2)
H44A H -1.8477 -0.4371 0.1785
H45A H -1.8418 -0.3511 0.1800
C47A C -1.6155(4) -0.3774(3) 0.17921(19)
H46A H -1.5546 -0.3601 0.1603
H47A H -1.6204 -0.3388 0.2112
H48A H -1.5959 -0.4203 0.1941
C53A C -0.7561(4) -0.4571(4) -0.3549(2)
C54A C -0.7732(5) -0.5039(4) -0.3137(2)
H58A H -0.8522 -0.5046 -0.3054
H59A H -0.7631 -0.5545 -0.3287
C55A C -0.6764(5) -0.4679(4) -0.2594(2)
H60A H -0.6100 -0.4953 -0.2560
H61A H -0.7077 -0.4656 -0.2242
C56A C -0.6374(5) -0.3910(4) -0.2681(2)
H62A H -0.5512 -0.3766 -0.2552
H63A H -0.6754 -0.3548 -0.2466
C57A C -0.6441(6) -0.3354(4) -0.3567(3)
H64A H -0.6935 -0.2983 -0.3492
H65A H -0.5613 -0.3137 -0.3412
H66A H -0.6576 -0.3540 -0.3983
N6 N 0.2759(5) 0.8979(3) 0.1228(2)
O11 O 0.4197(4) 0.8660(3) 0.0806(3)
C58 C 0.1614(6) 0.8729(4) 0.1299(3)
H67 H 0.0996 0.8887 0.1029
H68 H 0.1538 0.8897 0.1699
C59 C 0.1575(7) 0.7904(4) 0.1151(3)
H69 H 0.1786 0.7716 0.1507
H70 H 0.0777 0.7657 0.0938
C60 C 0.2426(5) 0.7774(3) 0.0793(3)
H71 H 0.2037 0.7650 0.0378
H72 H 0.2851 0.7377 0.0890
C61 C 0.3265(7) 0.8518(4) 0.0951(3)
C62 C 0.3209(9) 0.9764(4) 0.1404(4)
H73 H 0.3446 0.9902 0.1825
H74 H 0.2594 1.0035 0.1264
H75 H 0.3889 0.9878 0.1240
N7 N 0.3338(5) 0.2018(3) 0.2128(3)
O13 O 0.3587(6) 0.2484(4) 0.3104(3)
C48 C 0.2415(6) 0.1781(4) 0.1637(3)
H49 H 0.2191 0.1244 0.1546
H50 H 0.2625 0.1941 0.1297
C49 C 0.1448(9) 0.2148(6) 0.1818(4)
H51 H 0.1413 0.2599 0.1665
H52 H 0.0686 0.1821 0.1657
C50 C 0.1655(6) 0.2326(5) 0.2436(4)
H53 H 0.1168 0.1970 0.2583
H54 H 0.1507 0.2823 0.2577
C51 C 0.2971(10) 0.2273(5) 0.2603(5)
C52 C 0.4490(6) 0.1801(4) 0.2137(4)
H55 H 0.4670 0.1523 0.2439
H56 H 0.5089 0.2237 0.2216
H57 H 0.4481 0.1497 0.1763
loop_
_geom_bond_atom_site_label_1
_geom_bond_atom_site_label_2
_geom_bond_site_symmetry_1
_geom_bond_site_symmetry_2
Cu1 Cl1 1_555 1_555
O1 C2 1_555 1_555
N1 O7 1_555 1_555
C1 H1 1_555 1_555
Cu2 Cl3 1_555 1_555
Cl2 Cu1 1_555 1_555
O2 C3 1_555 1_555
N2 O8 1_555 1_555
C2 C1 1_555 1_555
Cu3 Cl4 1_555 1_555
O3 C9 1_555 1_555
N3 O9 1_555 1_555
C3 C2 1_555 1_555
O4 C10 1_555 1_555
N4 C43 1_555 1_555
C4 C3 1_555 1_555
H2 C4 1_555 1_555
Cl5 Cu3 1_555 1_555
O5 C16 1_555 1_555
N5 C53 1_555 1_555
C5 C4 1_555 1_555
O6 C17 1_555 1_555
N6 C58 1_555 1_555
C6 C5 1_555 1_555
H3 C6 1_555 1_555
H4 C6 1_555 1_555
O7 Cu1 1_555 1_555
N7 C48 1_555 1_555
C7 C6 1_555 1_555
O8 Cu2 1_555 1_555
C8 C7 1_555 1_555
H5 C8 1_555 1_555
O9 Cu3 1_555 1_555
C9 C8 1_555 1_555
O10 Cu1 1_555 1_555
C10 C9 1_555 1_555
O11 C61 1_555 1_555
C11 C10 1_555 1_555
H6 C11 1_555 1_555
O12 Cu3 1_555 1_555
C12 C7 1_555 1_555
O13 C51 1_555 1_555
C13 C12 1_555 1_555
H7 C13 1_555 1_555
H8 C13 1_555 1_555
C14 C13 1_555 1_555
C15 C14 1_555 1_555
H9 C15 1_555 1_555
C16 C15 1_555 1_555
C17 C16 1_555 1_555
C18 C17 1_555 1_555
H10 C18 1_555 1_555
C19 C14 1_555 1_555
C20 C19 1_555 1_555
H11 C20 1_555 1_555
H12 C20 1_555 1_555
C21 C1 1_555 1_555
C22 O2 1_555 1_555
H13 C22 1_555 1_555
H14 C22 1_555 1_555
C23 N1 1_555 1_555
C24 C23 1_555 1_555
H15 C24 1_555 1_555
C25 C24 1_555 1_555
H16 C25 1_555 1_555
C26 C25 1_555 1_555
H17 C26 1_555 1_555
C27 N1 1_555 1_555
H18 C27 1_555 1_555
C28 O4 1_555 1_555
H19 C28 1_555 1_555
H20 C28 1_555 1_555
C29 N2 1_555 1_555
C30 C29 1_555 1_555
H21 C30 1_555 1_555
C31 C30 1_555 1_555
H22 C31 1_555 1_555
C32 C31 1_555 1_555
H23 C32 1_555 1_555
C33 N2 1_555 1_555
H24 C33 1_555 1_555
C34 O6 1_555 1_555
H25 C34 1_555 1_555
H26 C34 1_555 1_555
C35 N3 1_555 1_555
C36 C35 1_555 1_555
H27 C36 1_555 1_555
C37 C36 1_555 1_555
H28 C37 1_555 1_555
C38 C37 1_555 1_555
H29 C38 1_555 1_555
C39 N3 1_555 1_555
H30 C39 1_555 1_555
C40 O1 1_555 1_555
H31 C40 1_555 1_555
H32 C40 1_555 1_555
H33 C40 1_555 1_555
C41 O3 1_555 1_555
H34 C41 1_555 1_555
H35 C41 1_555 1_555
H36 C41 1_555 1_555
C42 O5 1_555 1_555
H37 C42 1_555 1_555
H38 C42 1_555 1_555
H39 C42 1_555 1_555
C43 O10 1_555 1_555
C44 C43 1_555 1_555
H40 C44 1_555 1_555
H41 C44 1_555 1_555
C45 C44 1_555 1_555
H42 C45 1_555 1_555
H43 C45 1_555 1_555
C46 N4 1_555 1_555
H44 C46 1_555 1_555
H45 C46 1_555 1_555
C47 N4 1_555 1_555
H46 C47 1_555 1_555
H47 C47 1_555 1_555
H48 C47 1_555 1_555
C48 H49 1_555 1_555
H50 C48 1_555 1_555
C49 C48 1_555 1_555
H51 C49 1_555 1_555
H52 C49 1_555 1_555
C50 C49 1_555 1_555
H53 C50 1_555 1_555
H54 C50 1_555 1_555
C51 N7 1_555 1_555
C52 N7 1_555 1_555
H55 C52 1_555 1_555
H56 C52 1_555 1_555
H57 C52 1_555 1_555
C53 O12 1_555 1_555
C54 C53 1_555 1_555
H58 C54 1_555 1_555
H59 C54 1_555 1_555
C55 C54 1_555 1_555
H60 C55 1_555 1_555
H61 C55 1_555 1_555
C56 N5 1_555 1_555
H62 C56 1_555 1_555
H63 C56 1_555 1_555
C57 N5 1_555 1_555
H64 C57 1_555 1_555
H65 C57 1_555 1_555
H66 C57 1_555 1_555
C58 H67 1_555 1_555
H68 C58 1_555 1_555
C59 C58 1_555 1_555
H69 C59 1_555 1_555
H70 C59 1_555 1_555
C60 C59 1_555 1_555
H71 C60 1_555 1_555
H72 C60 1_555 1_555
C61 N6 1_555 1_555
C62 N6 1_555 1_555
H73 C62 1_555 1_555
H74 C62 1_555 1_555
H75 C62 1_555 1_555
Cu1A Cl1A 1_555 1_555
Cu1_2 O7A 1_555 1_555
Cu1A_2 O7 1_555 1_555
O1A C2A 1_555 1_555
N1A O7A 1_555 1_555
C1A H1A 1_555 1_555
Cl2A Cu1A 1_555 1_555
O2A C3A 1_555 1_555
N2A O8A 1_555 1_555
C2A C1A 1_555 1_555
Cu3A Cl4A 1_555 1_555
Cu3_2 O9A 1_555 1_555
Cu3A_2 O9 1_555 1_555
Cl3A Cu2 1_555 1_555
O3A C9A 1_555 1_555
N3A O9A 1_555 1_555
C3A C2A 1_555 1_555
O4A C10A 1_555 1_555
N4A C43A 1_555 1_555
C4A C3A 1_555 1_555
H2A C4A 1_555 1_555
Cl5A Cu3A 1_555 1_555
O5A C16A 1_555 1_555
N5A C53A 1_555 1_555
C5A C4A 1_555 1_555
O6A C17A 1_555 1_555
C6A C5A 1_555 1_555
H3A C6A 1_555 1_555
H4A C6A 1_555 1_555
O7A Cu1A 1_555 1_555
O7_2 Cu1A 1_555 1_555
O7A_2 Cu1 1_555 1_555
C7A C6A 1_555 1_555
O8A Cu2 1_555 1_555
C8A C7A 1_555 1_555
H5A C8A 1_555 1_555
O9A Cu3A 1_555 1_555
O9_2 Cu3A 1_555 1_555
O9A_2 Cu3 1_555 1_555
C9A C8A 1_555 1_555
O10A Cu1A 1_555 1_555
C10A C9A 1_555 1_555
C11A C10A 1_555 1_555
H6A C11A 1_555 1_555
O12A Cu3A 1_555 1_555
C12A C7A 1_555 1_555
C13A C12A 1_555 1_555
H7A C13A 1_555 1_555
H8A C13A 1_555 1_555
C14A C13A 1_555 1_555
C15A C14A 1_555 1_555
H9A C15A 1_555 1_555
C16A C15A 1_555 1_555
C17A C16A 1_555 1_555
C18A C17A 1_555 1_555
H10A C18A 1_555 1_555
C19A C14A 1_555 1_555
C20A C19A 1_555 1_555
H11A C20A 1_555 1_555
H12A C20A 1_555 1_555
C21A C1A 1_555 1_555
C22A O2A 1_555 1_555
H13A C22A 1_555 1_555
H14A C22A 1_555 1_555
C23A N1A 1_555 1_555
C24A C23A 1_555 1_555
H15A C24A 1_555 1_555
C25A C24A 1_555 1_555
H16A C25A 1_555 1_555
C26A C25A 1_555 1_555
H17A C26A 1_555 1_555
C27A N1A 1_555 1_555
H18A C27A 1_555 1_555
C28A O4A 1_555 1_555
H19A C28A 1_555 1_555
H20A C28A 1_555 1_555
C29A N2A 1_555 1_555
C30A C29A 1_555 1_555
H21A C30A 1_555 1_555
C31A C30A 1_555 1_555
H22A C31A 1_555 1_555
C32A C31A 1_555 1_555
H23A C32A 1_555 1_555
C33A N2A 1_555 1_555
H24A C33A 1_555 1_555
C34A O6A 1_555 1_555
H25A C34A 1_555 1_555
H26A C34A 1_555 1_555
C35A N3A 1_555 1_555
C36A C35A 1_555 1_555
H27A C36A 1_555 1_555
C37A C36A 1_555 1_555
H28A C37A 1_555 1_555
C38A C37A 1_555 1_555
H29A C38A 1_555 1_555
C39A N3A 1_555 1_555
H30A C39A 1_555 1_555
C40A O1A 1_555 1_555
H31A C40A 1_555 1_555
H32A C40A 1_555 1_555
H33A C40A 1_555 1_555
C41A O3A 1_555 1_555
H34A C41A 1_555 1_555
H35A C41A 1_555 1_555
H36A C41A 1_555 1_555
C42A O5A 1_555 1_555
H37A C42A 1_555 1_555
H38A C42A 1_555 1_555
H39A C42A 1_555 1_555
C43A O10A 1_555 1_555
C44A C43A 1_555 1_555
H40A C44A 1_555 1_555
H41A C44A 1_555 1_555
C45A C44A 1_555 1_555
H42A C45A 1_555 1_555
H43A C45A 1_555 1_555
C46A N4A 1_555 1_555
H44A C46A 1_555 1_555
H45A C46A 1_555 1_555
C47A N4A 1_555 1_555
H46A C47A 1_555 1_555
H47A C47A 1_555 1_555
H48A C47A 1_555 1_555
C53A O12A 1_555 1_555
C54A C53A 1_555 1_555
H58A C54A 1_555 1_555
H59A C54A 1_555 1_555
C55A C54A 1_555 1_555
H60A C55A 1_555 1_555
H61A C55A 1_555 1_555
C56A N5A 1_555 1_555
H62A C56A 1_555 1_555
H63A C56A 1_555 1_555
C57A N5A 1_555 1_555
H64A C57A 1_555 1_555
H65A C57A 1_555 1_555
H66A C57A 1_555 1_555
C5 C21 1_555 1_555
C11 C12 1_555 1_555
C18 C19 1_555 1_555
C20 C21 1_555 1_555
C22 C23 1_555 1_555
C26 C27 1_555 1_555
C28 C29 1_555 1_555
C32 C33 1_555 1_555
C34 C35 1_555 1_555
C38 C39 1_555 1_555
C45 C46 1_555 1_555
C50 C51 1_555 1_555
C55 C56 1_555 1_555
C60 C61 1_555 1_555
Cu1_2 O7_2 1_555 1_555
Cu1A_2 O7A_2 1_555 1_555
Cu3_2 O9_2 1_555 1_555
Cu3A_2 O9A_2 1_555 1_555
C5A C21A 1_555 1_555
C11A C12A 1_555 1_555
C18A C19A 1_555 1_555
C20A C21A 1_555 1_555
C22A C23A 1_555 1_555
C26A C27A 1_555 1_555
C28A C29A 1_555 1_555
C32A C33A 1_555 1_555
C34A C35A 1_555 1_555
C38A C39A 1_555 1_555
C45A C46A 1_555 1_555
C55A C56A 1_555 1_555

#END
