
#######################################################################
#
#                 Cambridge Crystallographic Data Centre
#                                CCDC 
#
#######################################################################
#
# If this CIF has been generated from an entry in the Cambridge 
# Structural Database, then it will include bibliographic, chemical, 
# crystal, experimental, refinement or atomic coordinate data resulting 
# from the CCDC's data processing and validation procedures.
#
#######################################################################

data_REJQAY
_symmetry_cell_setting           triclinic
_symmetry_space_group_name_H-M   'P -1'
_symmetry_Int_Tables_number      2
_space_group_name_Hall           '-P 1'
loop_
_symmetry_equiv_pos_site_id
_symmetry_equiv_pos_as_xyz
1 x,y,z
2 -x,-y,-z
_cell_length_a                   8.8985(9)
_cell_length_b                   9.590(1)
_cell_length_c                   13.771(1)
_cell_angle_alpha                104.474(1)
_cell_angle_beta                 106.781(2)
_cell_angle_gamma                100.067(2)
_cell_volume                     1050.05
loop_
_atom_site_label
_atom_site_type_symbol
_atom_site_fract_x
_atom_site_fract_y
_atom_site_fract_z
Au1 Au 0.7017(12) 1.4295(1) 0.7536(1)
P1 P 0.5535(2) 0.6703(2) 0.3618(1)
N1 N 0.9510(6) 1.4845(3) 0.8441(4)
C1 C 2.6339(8) 1.4039(8) 1.3263(6)
C2 C 2.7115(9) 1.2981(9) 1.3506(7)
C3 C 2.8034(9) 1.3202(10) 1.4549(8)
C4 C 2.8224(8) 1.4471(10) 1.5344(7)
C5 C 2.7457(8) 1.5565(8) 1.5099(6)
C6 C 2.6514(7) 1.5354(7) 1.4055(5)
C7 C 2.8566(9) 1.8124(10) 1.3650(7)
C8 C 2.9585(11) 1.9058(12) 1.3338(10)
C9 C 2.8976(13) 1.9520(11) 1.2528(10)
C10 C 2.7352(12) 1.9139(9) 1.1979(8)
C11 C 2.6296(8) 1.8232(8) 1.2261(6)
C12 C 2.6898(7) 1.7725(7) 1.3118(5)
C13 C 0.5623(7) 0.8126(7) 0.4801(5)
C14 C 0.4930(8) 0.9388(8) 0.4510(6)
C15 C 1.0104(7) 1.3863(7) 0.8858(5)
C16 C 1.1737(7) 1.4023(7) 0.9325(5)
C17 C 1.2862(7) 1.5252(7) 0.9373(5)
C18 C 1.2226(7) 1.6291(7) 0.8961(5)
C19 C 1.0574(7) 1.6072(7) 0.8511(5)
C20 C 1.4636(7) 1.5447(7) 0.9802(5)
H1 H 2.5689(8) 1.3876(8) 1.2560(6)
H2 H 2.7016(9) 1.2124(9) 1.2968(7)
H3 H 2.8535(9) 1.2476(10) 1.4716(8)
H4 H 2.8860(8) 1.4612(10) 1.6046(7)
H5 H 2.7584(8) 1.6431(8) 1.5639(6)
H6 H 2.9002(9) 1.7771(10) 1.4210(7)
H7 H 3.0703(11) 1.9355(12) 1.3706(10)
H8 H 2.9678(13) 2.0127(11) 1.2323(10)
H9 H 2.6954(12) 1.9491(9) 1.1412(8)
H10 H 2.5183(8) 1.7959(8) 1.1880(6)
H11 H 0.5007(7) 0.7673(7) 0.5172(5)
H12 H 0.6745(7) 0.8542(7) 0.5281(5)
H13 H 0.3821(26) 0.8999(83) 0.4029(41)
H14 H 0.5605(62) 0.9747(82) 0.4144(45)
H15 H 2.0628(7) 1.6979(7) 1.1169(5)
H16 H 1.7914(7) 1.6696(7) 1.0390(5)
H17 H 1.2932(7) 1.7152(7) 0.8989(5)
H18 H 1.0186(7) 1.6794(7) 0.8249(5)
H19 H 1.4702(7) 1.3701(7) 1.0214(5)
C14A C 0.5070(8) 1.0612(8) 0.5490(6)
C13A C 0.4377(7) 1.1874(7) 0.5199(5)
P1A P 0.4465(2) 1.3297(2) 0.6382(1)
C20A C 1.5364(7) 1.4553(7) 1.0198(5)
C17A C 1.7138(7) 1.4748(7) 1.0627(5)
C16A C 1.8263(7) 1.5977(7) 1.0675(5)
C15A C 1.9896(7) 1.6137(7) 1.1142(5)
N1A N 2.0490(6) 1.5155(3) 1.1559(4)
Au1A Au 2.2983(12) 1.5705(1) 1.2464(1)
P1_2 P 2.5535(2) 1.6703(2) 1.3618(1)
C13_2 C 2.5623(7) 1.8126(7) 1.4801(5)
H11_2 H 2.5007(7) 1.7673(7) 1.5172(5)
H12_2 H 2.6745(7) 1.8542(7) 1.5281(5)
C19A C 1.9426(7) 1.3928(7) 1.1489(5)
C18A C 1.7774(7) 1.3709(7) 1.1039(5)
H17A H 1.7068(7) 1.2848(7) 1.1011(5)
H18A H 1.9814(7) 1.3206(7) 1.1751(5)
H19A H 1.5298(7) 1.6299(7) 0.9786(5)
H16A H 1.2086(7) 1.3304(7) 0.9610(5)
H15A H 0.9372(7) 1.3021(7) 0.8831(5)
C6A C 0.3486(7) 1.4646(7) 0.5945(5)
C1A C 0.3661(8) 1.5961(8) 0.6737(6)
C2A C 0.2885(9) 1.7019(9) 0.6494(7)
C3A C 0.1966(9) 1.6798(10) 0.5451(8)
C4A C 0.1776(8) 1.5529(10) 0.4656(7)
C5A C 0.2543(8) 1.4435(8) 0.4901(6)
H5A H 0.2416(8) 1.3569(8) 0.4361(6)
H4A H 0.1140(8) 1.5388(10) 0.3954(7)
H3A H 0.1465(9) 1.7524(10) 0.5284(8)
H2A H 0.2984(9) 1.7876(9) 0.7032(7)
H1A H 0.4311(8) 1.6124(8) 0.7440(6)
C12A C 0.3102(7) 1.2275(7) 0.6882(5)
C7A C 0.1434(9) 1.1876(10) 0.6350(7)
C8A C 0.0415(11) 1.0942(12) 0.6662(10)
C9A C 0.1024(13) 1.0480(11) 0.7472(10)
C10A C 0.2648(12) 1.0861(9) 0.8021(8)
C11A C 0.3704(8) 1.1768(8) 0.7739(6)
H10A H 0.4817(8) 1.2041(8) 0.8120(6)
H9A H 0.3046(12) 1.0509(9) 0.8588(8)
H8A H 0.0322(13) 0.9873(11) 0.7677(10)
H7A H -0.0703(11) 1.0645(12) 0.6294(10)
H6A H 0.0998(9) 1.2229(10) 0.5790(7)
H11A H 0.4993(7) 1.2327(7) 0.4828(5)
H12A H 0.3255(7) 1.1458(7) 0.4719(5)
H13A H 0.6179(26) 1.1001(83) 0.5971(41)
H14A H 0.4395(62) 1.0253(82) 0.5856(45)
O1 O -0.2870(7) -0.2735(6) -0.1200(5)
O2 O -0.2014(7) -0.2092(7) -0.2421(5)
F1 F -0.1465(11) 0.0546(8) -0.0450(7)
F2 F -0.3997(10) -0.0350(10) -0.0953(8)
F3 F -0.2912(10) 0.0433(8) -0.1952(8)
C21 C -0.2700(11) -0.0320(10) -0.1246(8)
C22 C -0.2517(8) -0.1870(8) -0.1688(6)
loop_
_geom_bond_atom_site_label_1
_geom_bond_atom_site_label_2
_geom_bond_site_symmetry_1
_geom_bond_site_symmetry_2
Au1 N1 1_555 1_555
P1 C13 1_555 1_555
N1 C15 1_555 1_555
O1 C22 1_555 1_555
O2 C22 1_555 1_555
F1 C21 1_555 1_555
F2 C21 1_555 1_555
F3 C21 1_555 1_555
C1 C2 1_555 1_555
C2 C3 1_555 1_555
C3 C4 1_555 1_555
C4 C5 1_555 1_555
C5 C6 1_555 1_555
C6 C1 1_555 1_555
C7 C8 1_555 1_555
C8 C9 1_555 1_555
C9 C10 1_555 1_555
C10 C11 1_555 1_555
C11 C12 1_555 1_555
C12 C7 1_555 1_555
C13 C14 1_555 1_555
C14 H13 1_555 1_555
C15 C16 1_555 1_555
C16 C17 1_555 1_555
C17 C18 1_555 1_555
C18 C19 1_555 1_555
C19 N1 1_555 1_555
C20 C17 1_555 1_555
C21 C22 1_555 1_555
H1 C1 1_555 1_555
H2 C2 1_555 1_555
H3 C3 1_555 1_555
H4 C4 1_555 1_555
H5 C5 1_555 1_555
H6 C7 1_555 1_555
H7 C8 1_555 1_555
H8 C9 1_555 1_555
H9 C10 1_555 1_555
H10 C11 1_555 1_555
H11 C13 1_555 1_555
H12 C13 1_555 1_555
H14 C14 1_555 1_555
H15 C15A 1_555 1_555
H16 C16A 1_555 1_555
H17 C18 1_555 1_555
H18 C19 1_555 1_555
H19 C20A 1_555 1_555
C14A C14 1_555 1_555
C13A C14A 1_555 1_555
P1A Au1 1_555 1_555
C20A C20 1_555 1_555
C17A C20A 1_555 1_555
C16A C17A 1_555 1_555
C15A C16A 1_555 1_555
N1A C15A 1_555 1_555
Au1A N1A 1_555 1_555
P1_2 C6 1_555 1_555
C13_2 P1_2 1_555 1_555
H11_2 C13_2 1_555 1_555
H12_2 C13_2 1_555 1_555
C19A N1A 1_555 1_555
C18A C17A 1_555 1_555
H17A C18A 1_555 1_555
H18A C19A 1_555 1_555
H19A C20 1_555 1_555
H16A C16 1_555 1_555
H15A C15 1_555 1_555
C6A P1A 1_555 1_555
C1A C6A 1_555 1_555
C2A C1A 1_555 1_555
C3A C2A 1_555 1_555
C4A C3A 1_555 1_555
C5A C6A 1_555 1_555
H5A C5A 1_555 1_555
H4A C4A 1_555 1_555
H3A C3A 1_555 1_555
H2A C2A 1_555 1_555
H1A C1A 1_555 1_555
C12A P1A 1_555 1_555
C7A C12A 1_555 1_555
C8A C7A 1_555 1_555
C9A C8A 1_555 1_555
C10A C9A 1_555 1_555
C11A C12A 1_555 1_555
H10A C11A 1_555 1_555
H9A C10A 1_555 1_555
H8A C9A 1_555 1_555
H7A C8A 1_555 1_555
H6A C7A 1_555 1_555
H11A C13A 1_555 1_555
H12A C13A 1_555 1_555
H13A C14A 1_555 1_555
H14A C14A 1_555 1_555
C12 P1_2 1_555 1_555
C13A P1A 1_555 1_555
Au1A P1_2 1_555 1_555
C19A C18A 1_555 1_555
C4A C5A 1_555 1_555
C10A C11A 1_555 1_555

#END
