
#######################################################################
#
#                 Cambridge Crystallographic Data Centre
#                                CCDC 
#
#######################################################################
#
# If this CIF has been generated from an entry in the Cambridge 
# Structural Database, then it will include bibliographic, chemical, 
# crystal, experimental, refinement or atomic coordinate data resulting 
# from the CCDC's data processing and validation procedures.
#
#######################################################################

data_REJVUX
_symmetry_cell_setting           orthorhombic
_symmetry_space_group_name_H-M   'F d d d'
_symmetry_Int_Tables_number      70
_space_group_name_Hall           '-F 2uv 2vw'
loop_
_symmetry_equiv_pos_site_id
_symmetry_equiv_pos_as_xyz
1 x,y,z
2 1/4-x,1/4-y,z
3 x,1/4-y,1/4-z
4 1/4-x,y,1/4-z
5 x,1/2+y,1/2+z
6 1/4-x,3/4-y,1/2+z
7 x,3/4-y,3/4-z
8 1/4-x,1/2+y,3/4-z
9 1/2+x,y,1/2+z
10 3/4-x,1/4-y,1/2+z
11 1/2+x,1/4-y,3/4-z
12 3/4-x,y,3/4-z
13 1/2+x,1/2+y,z
14 3/4-x,3/4-y,z
15 1/2+x,3/4-y,1/4-z
16 3/4-x,1/2+y,1/4-z
17 -x,-y,-z
18 3/4+x,3/4+y,-z
19 -x,3/4+y,3/4+z
20 3/4+x,-y,3/4+z
21 -x,1/2-y,1/2-z
22 3/4+x,1/4+y,1/2-z
23 -x,1/4+y,1/4+z
24 3/4+x,1/2-y,1/4+z
25 1/2-x,-y,1/2-z
26 1/4+x,3/4+y,1/2-z
27 1/2-x,3/4+y,1/4+z
28 1/4+x,-y,1/4+z
29 1/2-x,1/2-y,-z
30 1/4+x,1/4+y,-z
31 1/2-x,1/4+y,3/4+z
32 1/4+x,1/2-y,3/4+z
_cell_length_a                   11.3681(12)
_cell_length_b                   20.767(3)
_cell_length_c                   34.585(4)
_cell_angle_alpha                90
_cell_angle_beta                 90
_cell_angle_gamma                90
_cell_volume                     8164.87
loop_
_atom_site_label
_atom_site_type_symbol
_atom_site_fract_x
_atom_site_fract_y
_atom_site_fract_z
C9 C 0.625 0.12500 0.125
C10 C 0.722(3) 0.1909(16) 0.0734(10)
C11 C 0.625 0.125 0.0857(22)
C12 C 0.663(3) 0.1661(18) 0.1020(9)
C11B C 0.625 0.125 0.1643(22)
C12B C 0.663(3) 0.0839(18) 0.1480(9)
C12A C 0.587(3) 0.0839(18) 0.1020(9)
C10A C 0.528(3) 0.0591(16) 0.0734(10)
C12C C 0.587(3) 0.1661(18) 0.1480(9)
C10C C 0.528(3) 0.1909(16) 0.1766(10)
C10B C 0.722(3) 0.0591(16) 0.1766(10)
Co1 Co 0.125 0.125 0.28904(3)
O1 O 0.1218(4) 0.02257(19) 0.28957(11)
O2 O 0.1398(4) 0.0570(3) 0.34622(14)
O3 O 0.1288(6) -0.0464(3) 0.33520(18)
N1 N 0.125 0.125 0.22710(15)
N2 N 0.3135(3) 0.1252(3) 0.29114(12)
N3 N 0.1305(5) 0.0097(3) 0.32493(15)
C1 C 0.0865(5) 0.0744(3) 0.20691(15)
C2 C 0.0851(5) 0.0723(3) 0.16727(15)
C3 C 0.125 0.125 0.14677(18)
C4 C 0.3757(5) 0.1033(3) 0.26187(18)
C5 C 0.4985(5) 0.1031(3) 0.26137(17)
C6 C 0.5594(3) 0.1251(4) 0.29253(13)
C7 C 0.4947(5) 0.1454(5) 0.32284(18)
C8 C 0.3735(6) 0.1441(5) 0.32079(16)
H1 H 0.057 0.035 0.222
H2 H 0.055 0.033 0.153
H3 H 0.332 0.085 0.239
H4 H 0.543 0.086 0.237
H5 H 0.535 0.160 0.348
H6 H 0.327 0.158 0.345
O1A O 0.1282(4) 0.22743(19) 0.28957(11)
N3A N 0.1195(5) 0.2403(3) 0.32493(15)
O2A O 0.1102(4) 0.1930(3) 0.34622(14)
C2A C 0.1649(5) 0.1777(3) 0.16727(15)
C1A C 0.1635(5) 0.1756(3) 0.20691(15)
H1A H 0.193 0.215 0.222
H2A H 0.195 0.217 0.153
C3B C 0.125 0.125 0.10323(18)
C2B C 0.0851(5) 0.1777(3) 0.08273(15)
C1B C 0.0865(5) 0.1756(3) 0.04309(15)
N1B N 0.125 0.125 0.02290(15)
Co1B Co 0.125 0.125 -0.03904(3)
C1C C 0.1635(5) 0.0744(3) 0.04309(15)
C2C C 0.1649(5) 0.0723(3) 0.08273(15)
H2C H 0.195 0.033 0.097
H1C H 0.193 0.035 0.028
H1B H 0.057 0.215 0.028
H2B H 0.055 0.217 0.097
C6A C 0.6906(3) 0.1249(4) 0.29253(13)
N2A N -0.0635(3) 0.1248(3) 0.29114(12)
O3A O 0.1212(6) 0.2964(3) 0.33520(18)
loop_
_geom_bond_atom_site_label_1
_geom_bond_atom_site_label_2
_geom_bond_site_symmetry_1
_geom_bond_site_symmetry_2
Co1 O1 1_555 1_555
O1 N3 1_555 1_555
O2 Co1 1_555 1_555
O3 N3 1_555 1_555
N1 Co1 1_555 1_555
N2 Co1 1_555 1_555
N3 O2 1_555 1_555
C1 N1 1_555 1_555
C2 C1 1_555 1_555
C3 C2 1_555 1_555
C4 N2 1_555 1_555
C5 C4 1_555 1_555
C6 C5 1_555 1_555
C7 C6 1_555 1_555
C8 N2 1_555 1_555
C9 C11 1_555 1_555
C10 C12 1_555 1_555
C11 C12 1_555 1_555
C12 C9 1_555 1_555
H1 C1 1_555 1_555
H2 C2 1_555 1_555
H3 C4 1_555 1_555
H4 C5 1_555 1_555
H5 C7 1_555 1_555
H6 C8 1_555 1_555
O1A Co1 1_555 1_555
N3A O1A 1_555 1_555
O2A Co1 1_555 1_555
C2A C3 1_555 1_555
C1A N1 1_555 1_555
H1A C1A 1_555 1_555
H2A C2A 1_555 1_555
C3B C3 1_555 1_555
C2B C3B 1_555 1_555
C1B C2B 1_555 1_555
N1B C1B 1_555 1_555
Co1B N1B 1_555 1_555
C1C N1B 1_555 1_555
C2C C3B 1_555 1_555
H2C C2C 1_555 1_555
H1C C1C 1_555 1_555
H1B C1B 1_555 1_555
H2B C2B 1_555 1_555
C6A C6 1_555 1_555
N2A Co1 1_555 1_555
O3A N3A 1_555 1_555
C11B C9 1_555 1_555
C12B C9 1_555 1_555
C12A C9 1_555 1_555
C10A C12A 1_555 1_555
C12C C9 1_555 1_555
C10C C12C 1_555 1_555
C10B C12B 1_555 1_555
C7 C8 1_555 1_555
C11 C12A 1_555 1_555
N3A O2A 1_555 1_555
C2A C1A 1_555 1_555
C1C C2C 1_555 1_555
C11B C12B 1_555 1_555
C11B C12C 1_555 1_555

#END
