
#######################################################################
#
#                 Cambridge Crystallographic Data Centre
#                                CCDC 
#
#######################################################################
#
# If this CIF has been generated from an entry in the Cambridge 
# Structural Database, then it will include bibliographic, chemical, 
# crystal, experimental, refinement or atomic coordinate data resulting 
# from the CCDC's data processing and validation procedures.
#
#######################################################################

data_REJXIP
_symmetry_cell_setting           orthorhombic
_symmetry_space_group_name_H-M   'P 21 21 21'
_symmetry_Int_Tables_number      19
_space_group_name_Hall           'P 2ac 2ab'
loop_
_symmetry_equiv_pos_site_id
_symmetry_equiv_pos_as_xyz
1 x,y,z
2 1/2-x,-y,1/2+z
3 -x,1/2+y,1/2-z
4 1/2+x,1/2-y,-z
_cell_length_a                   7.37440(10)
_cell_length_b                   13.4167(2)
_cell_length_c                   13.9213(2)
_cell_angle_alpha                90
_cell_angle_beta                 90
_cell_angle_gamma                90
_cell_volume                     1377.37
loop_
_atom_site_label
_atom_site_type_symbol
_atom_site_fract_x
_atom_site_fract_y
_atom_site_fract_z
Br1 Br 1.08214(3) 0.818005(17) 0.696987(15)
Cu1 Cu 0.96465(4) 0.92548(2) 0.57562(2)
N1 N 1.0897(2) 1.06587(12) 0.56357(11)
N2 N 1.0557(2) 0.91854(11) 0.43635(11)
N3 N 1.1842(2) 0.55849(12) 0.40675(13)
C1 C 1.1108(3) 1.13840(14) 0.62831(16)
H1 H 1.0625 1.1290 0.6909
C2 C 1.2006(3) 1.22731(16) 0.60786(16)
H2 H 1.2131 1.2774 0.6557
C3 C 1.2710(3) 1.24140(16) 0.51704(17)
H3 H 1.3338 1.3011 0.5014
C4 C 1.2486(3) 1.16714(15) 0.44903(15)
H4 H 1.2943 1.1754 0.3857
C5 C 1.1585(3) 1.08054(14) 0.47490(15)
C6 C 1.1363(3) 0.99689(15) 0.40730(15)
H5 H 1.1811 1.0013 0.3435
C7 C 1.0425(3) 0.83211(14) 0.37229(14)
H6 H 1.1070 0.8459 0.3113
H7 H 0.9138 0.8182 0.3573
C8 C 1.1277(3) 0.74238(14) 0.42239(16)
H8 H 1.2594 0.7538 0.4307
H9 H 1.0731 0.7342 0.4869
C9 C 1.0977(3) 0.64813(14) 0.36403(15)
H10 H 0.9657 0.6361 0.3580
H11 H 1.1468 0.6584 0.2986
C10 C 1.1504(4) 0.47444(16) 0.3408(2)
H12 H 1.2094 0.4143 0.3657
H13 H 1.1998 0.4903 0.2772
H14 H 1.0196 0.4629 0.3356
C11 C 1.0993(4) 0.53595(17) 0.50028(18)
H15 H 0.9677 0.5304 0.4921
H16 H 1.1265 0.5896 0.5458
H17 H 1.1474 0.4729 0.5250
Cu1C Cu 1.46465(4) 0.57452(2) 0.42438(2)
N3C N 0.6842(2) 0.94151(12) 0.59325(13)
loop_
_geom_bond_atom_site_label_1
_geom_bond_atom_site_label_2
_geom_bond_site_symmetry_1
_geom_bond_site_symmetry_2
Br1 Cu1 1_555 1_555
Cu1 N1 1_555 1_555
N1 C1 1_555 1_555
N2 Cu1 1_555 1_555
N3 C9 1_555 1_555
C1 H1 1_555 1_555
C2 C1 1_555 1_555
H2 C2 1_555 1_555
C3 C2 1_555 1_555
H3 C3 1_555 1_555
C4 C3 1_555 1_555
H4 C4 1_555 1_555
C5 N1 1_555 1_555
C6 N2 1_555 1_555
H5 C6 1_555 1_555
C7 N2 1_555 1_555
H6 C7 1_555 1_555
H7 C7 1_555 1_555
C8 C7 1_555 1_555
H8 C8 1_555 1_555
H9 C8 1_555 1_555
C9 C8 1_555 1_555
H10 C9 1_555 1_555
H11 C9 1_555 1_555
C10 N3 1_555 1_555
H12 C10 1_555 1_555
H13 C10 1_555 1_555
H14 C10 1_555 1_555
C11 N3 1_555 1_555
H15 C11 1_555 1_555
H16 C11 1_555 1_555
H17 C11 1_555 1_555
Cu1C N3 1_555 1_555
N3C Cu1 1_555 1_555
C4 C5 1_555 1_555
C5 C6 1_555 1_555

#END
