
#######################################################################
#
#                 Cambridge Crystallographic Data Centre
#                                CCDC 
#
#######################################################################
#
# If this CIF has been generated from an entry in the Cambridge 
# Structural Database, then it will include bibliographic, chemical, 
# crystal, experimental, refinement or atomic coordinate data resulting 
# from the CCDC's data processing and validation procedures.
#
#######################################################################

data_REJZIR
_symmetry_cell_setting           orthorhombic
_symmetry_space_group_name_H-M   'P n a 21'
_symmetry_Int_Tables_number      33
_space_group_name_Hall           'P 2c -2n'
loop_
_symmetry_equiv_pos_site_id
_symmetry_equiv_pos_as_xyz
1 x,y,z
2 -x,-y,1/2+z
3 1/2-x,1/2+y,1/2+z
4 1/2+x,1/2-y,z
_cell_length_a                   18.9238(4)
_cell_length_b                   10.6747(3)
_cell_length_c                   18.5213(5)
_cell_angle_alpha                90
_cell_angle_beta                 90
_cell_angle_gamma                90
_cell_volume                     3741.41
loop_
_atom_site_label
_atom_site_type_symbol
_atom_site_fract_x
_atom_site_fract_y
_atom_site_fract_z
C1 C -0.10593(17) 0.7877(3) 0.52190(18)
C2 C -0.11441(18) 0.8720(3) 0.46172(17)
C3 C -0.04420(19) 0.6218(4) 0.57133(18)
C4 C -0.0900(2) 0.6214(4) 0.63213(19)
H1 H -0.0828 0.5628 0.6700
C5 C -0.1446(2) 0.7057(4) 0.63619(19)
H2 H -0.1747 0.7071 0.6772
C6 C -0.15521(19) 0.7898(4) 0.57886(19)
C7 C -0.2148(2) 0.8730(4) 0.5745(2)
H3 H -0.2478 0.8756 0.6131
C8 C -0.2246(2) 0.9473(4) 0.5166(2)
H4 H -0.2657 0.9980 0.5138
C9 C -0.17393(19) 0.9513(4) 0.45888(18)
C10 C -0.1799(2) 1.0313(4) 0.3989(2)
H5 H -0.2175 1.0900 0.3959
C11 C -0.1305(2) 1.0233(4) 0.34481(19)
H6 H -0.1344 1.0759 0.3036
C12 C -0.07423(18) 0.9378(3) 0.35001(17)
C13 C 0.0118(2) 0.5248(4) 0.56233(19)
C14 C 0.0719(2) 0.5261(4) 0.6058(2)
C15 C 0.1238(2) 0.4325(4) 0.5945(2)
H7 H 0.1647 0.4320 0.6243
C16 C 0.1170(3) 0.3425(4) 0.5418(2)
C17 C 0.0554(3) 0.3411(4) 0.5009(2)
H8 H 0.0491 0.2772 0.4658
C18 C 0.0022(2) 0.4312(4) 0.5101(2)
C19 C 0.0829(2) 0.6239(4) 0.6625(2)
H9 H 0.0477 0.6133 0.7008
H10 H 0.0778 0.7073 0.6409
H11 H 0.1305 0.6152 0.6829
C20 C 0.1756(4) 0.2482(5) 0.5267(4)
H12 H 0.2008 0.2293 0.5716
H13 H 0.2088 0.2837 0.4915
H14 H 0.1551 0.1711 0.5071
C21 C -0.0634(3) 0.4258(4) 0.4643(2)
H15 H -0.0617 0.4925 0.4280
H16 H -0.1051 0.4372 0.4950
H17 H -0.0660 0.3443 0.4402
C22 C -0.02644(18) 0.9128(3) 0.28797(18)
C23 C 0.02190(18) 1.0025(3) 0.26418(19)
C24 C 0.0650(2) 0.9722(4) 0.20482(19)
H18 H 0.0988 1.0317 0.1886
C25 C 0.0598(2) 0.8590(4) 0.16940(18)
C26 C 0.0102(2) 0.7710(4) 0.19369(19)
H19 H 0.0059 0.6931 0.1693
C27 C -0.03270(18) 0.7959(3) 0.25293(18)
C28 C 0.0293(2) 1.1288(4) 0.3006(2)
H20 H 0.0330 1.1170 0.3529
H21 H -0.0123 1.1802 0.2897
H22 H 0.0719 1.1709 0.2827
C29 C 0.1073(3) 0.8280(5) 0.1064(2)
H23 H 0.1492 0.8820 0.1077
H24 H 0.0817 0.8417 0.0611
H25 H 0.1220 0.7401 0.1095
C30 C -0.0861(2) 0.6991(4) 0.27699(19)
H26 H -0.1324 0.7388 0.2827
H27 H -0.0712 0.6631 0.3232
H28 H -0.0892 0.6326 0.2407
C31 C 0.13129(18) 0.7692(3) 0.33412(17)
H29 H 0.1254 0.8562 0.3433
C32 C 0.18183(18) 0.7330(3) 0.28404(18)
H30 H 0.2099 0.7938 0.2599
C33 C 0.19076(17) 0.6054(3) 0.26980(16)
C34 C 0.1489(2) 0.5208(3) 0.30805(18)
H31 H 0.1538 0.4333 0.3003
C35 C 0.10003(19) 0.5653(3) 0.35733(18)
H32 H 0.0722 0.5064 0.3831
C36 C 0.24031(19) 0.5627(4) 0.21641(19)
C37 C 0.27942(19) 0.5238(4) 0.17070(19)
C38 C 0.32481(19) 0.4741(3) 0.11545(18)
C39 C 0.2959(2) 0.4153(4) 0.0549(2)
H33 H 0.2461 0.4104 0.0487
C40 C 0.34115(19) 0.3645(4) 0.00415(18)
H34 H 0.3209 0.3229 -0.0362
C41 C 0.43800(19) 0.4316(4) 0.06449(19)
H35 H 0.4879 0.4408 0.0671
C42 C 0.3978(2) 0.4832(4) 0.1193(2)
H36 H 0.4198 0.5242 0.1589
N1 N -0.05110(15) 0.7057(3) 0.51874(15)
N2 N -0.06487(15) 0.8670(3) 0.40875(14)
N3 N 0.09008(15) 0.6880(3) 0.37050(14)
N4 N 0.41137(15) 0.3701(3) 0.00834(15)
Cu1 Cu 0.022248(18) 0.75950(3) 0.44137(3)
N4B N 0.08863(15) 0.8701(3) 0.50834(15)
Cu1B Cu 0.477752(18) 0.25950(3) -0.05863(3)
F1 F -0.3036(4) 1.2666(6) 0.3372(4)
F2 F -0.2070(5) 1.2748(7) 0.2730(5)
F3 F -0.1884(4) 1.4793(7) 0.3097(4)
F4 F -0.2898(4) 1.4694(7) 0.3697(4)
F5 F -0.2188(2) 1.3389(4) 0.4040(2)
F6 F -0.2680(3) 1.4354(5) 0.2517(2)
P1 P -0.24289(6) 1.38542(12) 0.32681(7)
F7? F -0.2708(5) 1.2670(8) 0.3096(6)
F8? F -0.1641(4) 1.3437(8) 0.3121(5)
F9? F -0.2102(4) 1.5304(7) 0.3581(5)
F10? F -0.3167(4) 1.4478(7) 0.3520(4)
loop_
_geom_bond_atom_site_label_1
_geom_bond_atom_site_label_2
_geom_bond_site_symmetry_1
_geom_bond_site_symmetry_2
C1 C2 1_555 1_555
C2 C9 1_555 1_555
C3 C4 1_555 1_555
C4 H1 1_555 1_555
C5 C4 1_555 1_555
H2 C5 1_555 1_555
C6 C1 1_555 1_555
C7 C6 1_555 1_555
H3 C7 1_555 1_555
C8 C7 1_555 1_555
H4 C8 1_555 1_555
C9 C8 1_555 1_555
C10 C9 1_555 1_555
H5 C10 1_555 1_555
C11 C10 1_555 1_555
H6 C11 1_555 1_555
C12 C11 1_555 1_555
C13 C3 1_555 1_555
C14 C13 1_555 1_555
C15 C14 1_555 1_555
H7 C15 1_555 1_555
C16 C15 1_555 1_555
C17 C16 1_555 1_555
H8 C17 1_555 1_555
C18 C13 1_555 1_555
C19 C14 1_555 1_555
H9 C19 1_555 1_555
H10 C19 1_555 1_555
H11 C19 1_555 1_555
C20 C16 1_555 1_555
H12 C20 1_555 1_555
H13 C20 1_555 1_555
H14 C20 1_555 1_555
C21 C18 1_555 1_555
H15 C21 1_555 1_555
H16 C21 1_555 1_555
H17 C21 1_555 1_555
C22 C12 1_555 1_555
C23 C22 1_555 1_555
C24 C23 1_555 1_555
H18 C24 1_555 1_555
C25 C24 1_555 1_555
C26 C25 1_555 1_555
H19 C26 1_555 1_555
C27 C22 1_555 1_555
C28 C23 1_555 1_555
H20 C28 1_555 1_555
H21 C28 1_555 1_555
H22 C28 1_555 1_555
C29 C25 1_555 1_555
H23 C29 1_555 1_555
H24 C29 1_555 1_555
H25 C29 1_555 1_555
C30 C27 1_555 1_555
H26 C30 1_555 1_555
H27 C30 1_555 1_555
H28 C30 1_555 1_555
C31 H29 1_555 1_555
C32 C31 1_555 1_555
H30 C32 1_555 1_555
C33 C32 1_555 1_555
C34 C33 1_555 1_555
H31 C34 1_555 1_555
C35 C34 1_555 1_555
H32 C35 1_555 1_555
C36 C33 1_555 1_555
C37 C36 1_555 1_555
C38 C37 1_555 1_555
C39 C38 1_555 1_555
H33 C39 1_555 1_555
C40 C39 1_555 1_555
H34 C40 1_555 1_555
C41 H35 1_555 1_555
C42 C38 1_555 1_555
H36 C42 1_555 1_555
N1 C1 1_555 1_555
N2 C2 1_555 1_555
N3 C31 1_555 1_555
N4 C40 1_555 1_555
F1 P1 1_555 1_555
F2 P1 1_555 1_555
F3 P1 1_555 1_555
F4 P1 1_555 1_555
F5 P1 1_555 1_555
F6 P1 1_555 1_555
Cu1 N1 1_555 1_555
N4B Cu1 1_555 1_555
Cu1B N4 1_555 1_555
C3 N1 1_555 1_555
C5 C6 1_555 1_555
C12 N2 1_555 1_555
C17 C18 1_555 1_555
C26 C27 1_555 1_555
C35 N3 1_555 1_555
C41 C42 1_555 1_555
C41 N4 1_555 1_555
N2 Cu1 1_555 1_555
N3 Cu1 1_555 1_555

#END
