
#######################################################################
#
#                 Cambridge Crystallographic Data Centre
#                                CCDC 
#
#######################################################################
#
# If this CIF has been generated from an entry in the Cambridge 
# Structural Database, then it will include bibliographic, chemical, 
# crystal, experimental, refinement or atomic coordinate data resulting 
# from the CCDC's data processing and validation procedures.
#
#######################################################################

data_REJZOX
_symmetry_cell_setting           monoclinic
_symmetry_space_group_name_H-M   'P 21/n'
_symmetry_Int_Tables_number      14
_space_group_name_Hall           '-P 2yn'
loop_
_symmetry_equiv_pos_site_id
_symmetry_equiv_pos_as_xyz
1 x,y,z
2 1/2-x,1/2+y,1/2-z
3 -x,-y,-z
4 1/2+x,1/2-y,1/2+z
_cell_length_a                   14.5479(7)
_cell_length_b                   36.7355(17)
_cell_length_c                   16.9674(8)
_cell_angle_alpha                90
_cell_angle_beta                 95.5470(10)
_cell_angle_gamma                90
_cell_volume                     9025.33
loop_
_atom_site_label
_atom_site_type_symbol
_atom_site_fract_x
_atom_site_fract_y
_atom_site_fract_z
Cu1 Cu 0.78474(8) 0.11167(3) 0.73421(7)
Cu2 Cu 0.31270(9) 0.08452(3) 0.19575(7)
C1 C 0.1169(9) 0.1088(5) 0.3906(10)
H1 H 0.0972 0.1329 0.4005
N1 N 0.2743(5) 0.3289(2) 0.2310(5)
N2 N 0.2875(7) 0.1417(3) 0.1956(6)
C2 C 0.6185(6) 0.0969(3) 0.8516(5)
C3 C 0.7118(7) 0.1007(2) 0.8967(6)
N3 N 0.3304(6) 0.0677(2) 0.0869(5)
N4 N 0.7005(5) 0.0972(2) 0.6451(5)
C4 C 0.8841(7) 0.0979(2) 0.9758(6)
C5 C 0.5774(8) 0.0865(3) 0.5123(6)
C6 C 0.2601(8) 0.0456(3) 0.0571(6)
C7 C 0.9459(6) 0.0998(2) 0.8427(5)
C8 C 0.1446(7) 0.0585(4) 0.3079(8)
C9 C 0.8695(7) 0.0993(2) 0.8892(6)
C10 C 0.5486(9) 0.1020(4) 0.5757(8)
H2 H 0.4865 0.1098 0.5768
C11 C 0.7254(7) 0.0995(3) 0.9808(6)
H3 H 0.6742 0.0990 1.0116
N5 N 0.9245(5) 0.1034(2) 0.7650(5)
N6 N 0.7828(5) 0.10068(18) 0.8536(5)
C12 C 0.1320(9) -0.0052(3) 0.0007(8)
H4 H 0.0933 -0.0253 -0.0146
C13 C 0.2329(8) 0.3122(3) 0.1642(7)
H5 H 0.2005 0.3263 0.1236
C14 C 0.2163(8) 0.1944(3) 0.1665(7)
H6 H 0.1641 0.2067 0.1411
C15 C 0.3257(11) 0.0439(4) -0.0716(9)
H7 H 0.3231 0.0367 -0.1255
C16 C 0.7295(8) 0.0880(4) 0.5785(8)
H8 H 0.7940 0.0853 0.5756
C17 C 0.8118(7) 0.0989(3) 1.0154(6)
H9 H 0.8209 0.0994 1.0715
C18 C 0.6141(10) 0.1063(4) 0.6415(7)
H10 H 0.5931 0.1169 0.6875
C19 C 1.0401(7) 0.0962(3) 0.8790(7)
C20 C 0.9663(7) 0.1118(4) 0.6284(7)
C21 C 0.2854(8) 0.2144(3) 0.2078(7)
C22 C 0.1004(9) 0.0930(5) 0.3137(8)
C23 C 0.3688(7) 0.0932(3) 0.3589(7)
H11 H 0.3092 0.1040 0.3563
C24 C 0.1403(9) 0.0413(4) 0.2320(9)
C25 C 1.0525(8) 0.0949(3) 0.9615(7)
H12 H 1.1135 0.0931 0.9868
C26 C 0.1999(10) 0.0589(6) 0.4407(13)
H13 H 0.2379 0.0503 0.4856
C27 C 0.1966(7) 0.0354(2) 0.1048(7)
C28 C 0.9079(8) 0.1240(5) 0.4750(7)
C29 C 0.2386(9) 0.2753(4) 0.1565(9)
H14 H 0.2166 0.2640 0.1079
C30 C 0.3165(8) 0.2712(3) 0.2858(6)
H15 H 0.3485 0.2586 0.3292
C31 C 0.2214(9) 0.1569(3) 0.1614(7)
H16 H 0.1741 0.1434 0.1319
C32 C 0.4479(7) 0.0948(4) 0.7729(7)
C33 C 0.5444(11) 0.1576(5) 0.1070(9)
H17 H 0.5462 0.1833 0.1024
C34 C 0.2766(7) 0.2541(3) 0.2194(6)
C35 C 0.3913(7) 0.0773(3) 0.0393(7)
C36 C 0.9547(7) 0.1478(4) 0.6097(7)
C37 C 0.4960(7) 0.0637(3) 0.7818(6)
H18 H 0.4709 0.0411 0.7629
C38 C 0.3673(9) 0.1613(4) 0.2333(8)
H19 H 0.4233 0.1488 0.2486
C39 C 0.4257(8) 0.0967(3) 0.4290(6)
H20 H 0.4036 0.1088 0.4730
C40 C 0.5379(7) 0.0640(3) 0.3726(7)
H21 H 0.5970 0.0529 0.3745
C41 C 0.2635(8) 0.0314(3) -0.0278(8)
C42 C 0.5851(7) 0.0663(3) 0.8203(6)
C43 C 0.5121(7) 0.0831(3) 0.4352(6)
C44 C 0.3936(8) 0.0669(4) -0.0428(8)
H22 H 0.4396 0.0755 -0.0743
C45 C 0.0449(8) 0.1092(4) 0.2516(7)
H23 H -0.0040 0.0922 0.2319
H24 H 0.0827 0.1153 0.2087
H25 H 0.0171 0.1314 0.2707
C46 C 0.6238(9) 0.1030(5) 0.1560(7)
H26 H 0.6756 0.0919 0.1847
C47 C 0.9829(8) 0.0961(3) 1.0058(6)
H27 H 0.9975 0.0959 1.0616
C48 C 0.5654(7) 0.1288(3) 0.8455(6)
C49 C 0.4701(9) 0.1399(3) 0.0685(8)
N7 N 0.2003(6) 0.0495(2) 0.1795(6)
C50 C 0.3473(8) 0.0937(4) 0.7277(8)
H28 H 0.3505 0.0843 0.6739
H29 H 0.3214 0.1184 0.7249
H30 H 0.3078 0.0778 0.7562
C51 C 0.9752(8) 0.0464(4) 0.6006(7)
H31 H 0.9625 0.0435 0.6560
H32 H 1.0397 0.0401 0.5953
H33 H 0.9346 0.0303 0.5670
C52 C 0.9836(10) 0.1824(4) 0.6622(9)
H34 H 0.9755 0.1772 0.7178
H35 H 0.9446 0.2031 0.6442
H36 H 1.0484 0.1884 0.6572
C53 C 0.9581(8) 0.0845(5) 0.5760(8)
C54 C 0.4759(6) 0.1000(3) 0.0741(5)
C55 C 1.0850(10) 0.1021(4) 0.7494(10)
H37 H 1.1334 0.1027 0.7157
C56 C 0.5949(8) 0.1644(4) 0.8809(7)
H38 H 0.5425 0.1813 0.8765
H39 H 0.6449 0.1745 0.8526
H40 H 0.6170 0.1610 0.9368
C57 C 0.5582(9) 0.0375(4) 0.1145(8)
H41 H 0.4967 0.0264 0.1113
H42 H 0.5941 0.0296 0.1634
H43 H 0.5898 0.0298 0.0688
C58 C 0.1821(9) 0.0068(3) -0.0528(8)
H44 H 0.1680 0.0004 -0.1068
C59 C 0.0682(8) 0.0123(3) 0.2018(9)
H45 H 0.0232 0.0039 0.2346
C60 C 0.1276(7) 0.0071(3) 0.0751(9)
C61 C 0.2016(11) 0.0353(6) 0.3799(11)
C62 C 0.4782(8) 0.1284(4) 0.8047(7)
H46 H 0.4411 0.1497 0.7987
C63 C 1.1049(8) 0.0975(3) 0.8301(8)
H47 H 1.1676 0.0952 0.8509
C64 C 0.5486(9) 0.0811(4) 0.1145(8)
C65 C 0.3609(10) 0.1966(4) 0.2461(9)
H48 H 0.4061 0.2093 0.2799
C66 C 0.3958(8) 0.1583(3) 0.0197(7)
H49 H 0.4007 0.1846 0.0282
H50 H 0.3360 0.1497 0.0345
H51 H 0.4009 0.1528 -0.0362
N8 N 0.3923(6) 0.0757(2) 0.2947(5)
C67 C 0.8692(10) 0.1342(5) 0.3864(8)
H52 H 0.8125 0.1204 0.3714
H53 H 0.9156 0.1281 0.3503
H54 H 0.8559 0.1603 0.3831
C68 C 0.4732(7) 0.0612(2) 0.3034(6)
H55 H 0.4918 0.0475 0.2602
C69 C 0.3051(9) 0.3091(4) 0.2833(9)
H56 H 0.3254 0.3212 0.3313
C70 C 0.6148(11) 0.1413(5) 0.1507(8)
C71 C 0.1812(12) 0.1093(6) 0.5395(11)
H57 H 0.2067 0.0929 0.5816
H58 H 0.1218 0.1189 0.5528
H59 H 0.2242 0.1295 0.5340
C72 C 0.9292(9) 0.0871(4) 0.4956(8)
H60 H 0.9244 0.0672 0.4597
C73 C 0.9906(8) 0.1061(3) 0.7168(6)
C74 C 0.2433(12) -0.0003(5) 0.3595(10)
H61 H 0.2483 -0.0162 0.4061
H62 H 0.3048 0.0039 0.3424
H63 H 0.2040 -0.0119 0.3165
C75 C 0.6435(8) 0.0319(3) 0.8301(7)
H64 H 0.6713 0.0301 0.8849
H65 H 0.6923 0.0328 0.7942
H66 H 0.6043 0.0106 0.8175
C76 C 0.9254(8) 0.1577(4) 0.5262(8)
H67 H 0.9185 0.1820 0.5072
C77 C 0.6688(9) 0.0820(5) 0.5098(8)
H68 H 0.6923 0.0746 0.4620
C78 C 0.1659(11) 0.0866(6) 0.4549(9)
C79 C 0.0708(10) -0.0005(4) 0.1298(9)
H69 H 0.0246 -0.0181 0.1143
C80 C 0.6927(14) 0.1659(6) 0.1965(11)
H70 H 0.6719 0.1913 0.1964
H71 H 0.7495 0.1642 0.1700
H72 H 0.7047 0.1574 0.2512
Cu1C Cu 0.28474(8) 0.38833(3) 0.23421(7)
N1C N 0.7743(5) 0.1711(2) 0.7310(5)
P1 P -0.7930(3) -0.01787(12) -0.2972(3)
F1 F -0.6910(4) -0.0073(2) -0.2583(4)
F2 F -0.8941(5) -0.0297(2) -0.3307(5)
F3 F -0.8010(6) -0.0399(3) -0.2208(6)
F4 F -0.7542(5) -0.0546(2) -0.3331(5)
F5 F -0.7797(8) -0.0011(4) -0.3714(7)
F6 F -0.8361(6) 0.0139(2) -0.2537(5)
loop_
_geom_bond_atom_site_label_1
_geom_bond_atom_site_label_2
_geom_bond_site_symmetry_1
_geom_bond_site_symmetry_2
Cu1 N4 1_555 1_555
Cu2 N2 1_555 1_555
P1 F1 1_555 1_555
C1 H1 1_555 1_555
N1 C13 1_555 1_555
N2 C31 1_555 1_555
C2 C3 1_555 1_555
C3 C11 1_555 1_555
N3 Cu2 1_555 1_555
N4 C16 1_555 1_555
C4 C9 1_555 1_555
C5 C10 1_555 1_555
C6 N3 1_555 1_555
C7 C9 1_555 1_555
C8 C22 1_555 1_555
C9 N6 1_555 1_555
C10 H2 1_555 1_555
C11 H3 1_555 1_555
N5 Cu1 1_555 1_555
N6 Cu1 1_555 1_555
C12 H4 1_555 1_555
C13 H5 1_555 1_555
C14 H6 1_555 1_555
C15 H7 1_555 1_555
C16 H8 1_555 1_555
C17 C4 1_555 1_555
H9 C17 1_555 1_555
C18 N4 1_555 1_555
H10 C18 1_555 1_555
C19 C7 1_555 1_555
C20 C36 1_555 1_555
C21 C14 1_555 1_555
C22 C1 1_555 1_555
C23 H11 1_555 1_555
C24 C8 1_555 1_555
C25 C19 1_555 1_555
H12 C25 1_555 1_555
C26 H13 1_555 1_555
C27 C6 1_555 1_555
C28 C67 1_555 1_555
C29 C13 1_555 1_555
H14 C29 1_555 1_555
C30 H15 1_555 1_555
F2 P1 1_555 1_555
C31 C14 1_555 1_555
H16 C31 1_555 1_555
C32 C37 1_555 1_555
F3 P1 1_555 1_555
C33 H17 1_555 1_555
C34 C21 1_555 1_555
C35 N3 1_555 1_555
C36 C52 1_555 1_555
C37 H18 1_555 1_555
C38 N2 1_555 1_555
H19 C38 1_555 1_555
C39 C23 1_555 1_555
H20 C39 1_555 1_555
C40 H21 1_555 1_555
C41 C6 1_555 1_555
C42 C2 1_555 1_555
C43 C5 1_555 1_555
F4 P1 1_555 1_555
C44 C15 1_555 1_555
H22 C44 1_555 1_555
C45 C22 1_555 1_555
H23 C45 1_555 1_555
H24 C45 1_555 1_555
H25 C45 1_555 1_555
C46 H26 1_555 1_555
C47 C4 1_555 1_555
H27 C47 1_555 1_555
C48 C2 1_555 1_555
C49 C33 1_555 1_555
N7 Cu2 1_555 1_555
C50 C32 1_555 1_555
H28 C50 1_555 1_555
H29 C50 1_555 1_555
H30 C50 1_555 1_555
C51 H31 1_555 1_555
H32 C51 1_555 1_555
H33 C51 1_555 1_555
C52 H34 1_555 1_555
H35 C52 1_555 1_555
H36 C52 1_555 1_555
C53 C20 1_555 1_555
C54 C35 1_555 1_555
F5 P1 1_555 1_555
C55 H37 1_555 1_555
C56 C48 1_555 1_555
H38 C56 1_555 1_555
H39 C56 1_555 1_555
H40 C56 1_555 1_555
C57 H41 1_555 1_555
H42 C57 1_555 1_555
H43 C57 1_555 1_555
C58 C12 1_555 1_555
H44 C58 1_555 1_555
C59 C24 1_555 1_555
H45 C59 1_555 1_555
C60 C12 1_555 1_555
C61 C8 1_555 1_555
F6 P1 1_555 1_555
C62 C32 1_555 1_555
H46 C62 1_555 1_555
C63 C19 1_555 1_555
H47 C63 1_555 1_555
C64 C46 1_555 1_555
C65 C21 1_555 1_555
H48 C65 1_555 1_555
C66 C49 1_555 1_555
H49 C66 1_555 1_555
H50 C66 1_555 1_555
H51 C66 1_555 1_555
N8 Cu2 1_555 1_555
C67 H52 1_555 1_555
H53 C67 1_555 1_555
H54 C67 1_555 1_555
C68 C40 1_555 1_555
H55 C68 1_555 1_555
C69 N1 1_555 1_555
H56 C69 1_555 1_555
C70 C33 1_555 1_555
C71 H57 1_555 1_555
H58 C71 1_555 1_555
H59 C71 1_555 1_555
C72 C28 1_555 1_555
H60 C72 1_555 1_555
C73 N5 1_555 1_555
C74 C61 1_555 1_555
H61 C74 1_555 1_555
H62 C74 1_555 1_555
H63 C74 1_555 1_555
C75 C42 1_555 1_555
H64 C75 1_555 1_555
H65 C75 1_555 1_555
H66 C75 1_555 1_555
C76 C28 1_555 1_555
H67 C76 1_555 1_555
C77 C5 1_555 1_555
H68 C77 1_555 1_555
C78 C1 1_555 1_555
C79 C59 1_555 1_555
H69 C79 1_555 1_555
C80 C70 1_555 1_555
H70 C80 1_555 1_555
H71 C80 1_555 1_555
H72 C80 1_555 1_555
Cu1C N1 1_555 1_555
N1C Cu1 1_555 1_555
C3 N6 1_555 1_555
C7 N5 1_555 1_555
C10 C18 1_555 1_555
C11 C17 1_555 1_555
C15 C41 1_555 1_555
C16 C77 1_555 1_555
C20 C73 1_555 1_555
C23 N8 1_555 1_555
C24 N7 1_555 1_555
C25 C47 1_555 1_555
C26 C61 1_555 1_555
C26 C78 1_555 1_555
C27 N7 1_555 1_555
C27 C60 1_555 1_555
C29 C34 1_555 1_555
C30 C34 1_555 1_555
C30 C69 1_555 1_555
C35 C44 1_555 1_555
C36 C76 1_555 1_555
C37 C42 1_555 1_555
C38 C65 1_555 1_555
C39 C43 1_555 1_555
C40 C43 1_555 1_555
C41 C58 1_555 1_555
C46 C70 1_555 1_555
C48 C62 1_555 1_555
C49 C54 1_555 1_555
C51 C53 1_555 1_555
C53 C72 1_555 1_555
C54 C64 1_555 1_555
C55 C63 1_555 1_555
C55 C73 1_555 1_555
C57 C64 1_555 1_555
C60 C79 1_555 1_555
N8 C68 1_555 1_555
C71 C78 1_555 1_555

#END
