
#######################################################################
#
#                 Cambridge Crystallographic Data Centre
#                                CCDC 
#
#######################################################################
#
# If this CIF has been generated from an entry in the Cambridge 
# Structural Database, then it will include bibliographic, chemical, 
# crystal, experimental, refinement or atomic coordinate data resulting 
# from the CCDC's data processing and validation procedures.
#
#######################################################################

data_REKBAL
_symmetry_cell_setting           triclinic
_symmetry_space_group_name_H-M   'P -1'
_symmetry_Int_Tables_number      2
_space_group_name_Hall           '-P 1'
loop_
_symmetry_equiv_pos_site_id
_symmetry_equiv_pos_as_xyz
1 x,y,z
2 -x,-y,-z
_cell_length_a                   8.2636(8)
_cell_length_b                   11.9370(17)
_cell_length_c                   12.5848(15)
_cell_angle_alpha                114.788(4)
_cell_angle_beta                 95.567(2)
_cell_angle_gamma                100.159(4)
_cell_volume                     1088.86
loop_
_atom_site_label
_atom_site_type_symbol
_atom_site_fract_x
_atom_site_fract_y
_atom_site_fract_z
Mo1 Mo 0.17657(3) 0.36910(2) 0.47736(2)
Mo2 Mo 0.56814(4) 0.36495(2) 0.48611(2)
Mo3 Mo 0.43942(4) 0.33144(3) 0.23087(3)
Mo4 Mo 0.16313(4) 0.66862(3) 0.76060(3)
Cu1 Cu 0.18669(7) 0.48843(4) 1.09641(4)
Cu2 Cu 0.26808(7) 0.08411(5) 0.53769(5)
N1 N 0.2100(4) 0.3634(3) 0.9346(3)
N2 N 0.2580(4) 0.1925(3) 0.7073(3)
N3 N 0.2480(4) -0.0828(3) 0.4016(3)
N4 N 0.1939(4) -0.3325(3) 0.2120(3)
C1 C 0.1364(5) 0.2344(3) 0.8859(3)
C2 C 0.0336(5) 0.1882(3) 0.9480(3)
H1 H 0.0176 0.2439 1.0221
C3 C -0.0432(5) 0.0621(4) 0.9003(4)
H2 H -0.1129 0.0322 0.9413
C4 C -0.0169(5) -0.0225(3) 0.7892(4)
H3 H -0.0695 -0.1084 0.7574
C5 C 0.0845(5) 0.0193(3) 0.7271(3)
H4 H 0.1021 -0.0382 0.6544
C6 C 0.1624(5) 0.1495(3) 0.7732(3)
C7 C 0.3288(5) 0.3151(4) 0.7574(3)
H5 H 0.3964 0.3472 0.7167
C8 C 0.3059(5) 0.3999(4) 0.8705(3)
H6 H 0.3606 0.4853 0.9015
C9 C 0.3192(5) -0.1044(3) 0.3022(3)
C10 C 0.4211(5) -0.0020(3) 0.2930(4)
H7 H 0.4427 0.0796 0.3552
C11 C 0.4878(5) -0.0216(4) 0.1938(4)
H8 H 0.5554 0.0467 0.1892
C12 C 0.4559(5) -0.1438(4) 0.0983(4)
H9 H 0.5012 -0.1558 0.0306
C13 C 0.3582(5) -0.2450(3) 0.1048(3)
H10 H 0.3365 -0.3256 0.0410
C14 C 0.2903(4) -0.2285(3) 0.2070(3)
C15 C 0.1275(5) -0.3084(3) 0.3083(3)
H11 H 0.0603 -0.3756 0.3148
C16 C 0.1548(5) -0.1847(3) 0.4016(3)
H12 H 0.1042 -0.1743 0.4669
O1 O 0.1174(3) 0.4744(2) 0.6038(2)
O2 O 0.4219(3) 0.4662(2) 0.5736(2)
O3 O 0.1698(3) 0.2356(2) 0.5001(2)
O4 O 0.3439(3) 0.3133(2) 0.3609(2)
O5 O 0.2387(3) 0.5323(2) 0.4312(2)
O6 O 0.5381(3) 0.2477(2) 0.5318(2)
O7 O 0.3385(3) 0.4335(3) 0.2017(2)
O8 O 0.6433(3) 0.3757(2) 0.1836(2)
O9 O 0.6322(3) 0.2954(2) 0.3359(2)
O10 O 0.3484(3) 0.1857(2) 0.1194(2)
O11 O 0.2045(3) 0.8240(2) 0.8599(2)
O12 O 0.0252(3) 0.5954(2) 0.8186(2)
O13 O -0.0082(3) 0.3160(2) 0.3602(2)
Mo2A Mo 0.43186(4) 0.63505(2) 0.51389(2)
Mo4A Mo 0.83687(4) 0.33138(3) 0.23940(3)
Mo4A_2 Mo -0.16313(4) 0.33138(3) 0.23940(3)
Cu1_2 Cu 0.18669(7) -0.51157(4) 0.09641(4)
Cu1_3 Cu 0.18669(7) 0.48843(4) 0.09641(4)
Cu1A Cu -0.18669(7) 0.51157(4) 0.90359(4)
N4_2 N 0.1939(4) 0.6675(3) 1.2120(3)
O2A O 0.5781(3) 0.5338(2) 0.4264(2)
O5A O 0.7613(3) 0.4677(2) 0.5688(2)
O7_2 O 0.3385(3) 0.4335(3) 1.2017(2)
O8A O 0.3567(3) 0.6243(2) 0.8164(2)
O9A O 0.3678(3) 0.7046(2) 0.6641(2)
O12A O -0.0252(3) 0.4046(2) 1.1814(2)
O13A O 0.0082(3) 0.6840(2) 0.6398(2)
loop_
_geom_bond_atom_site_label_1
_geom_bond_atom_site_label_2
_geom_bond_site_symmetry_1
_geom_bond_site_symmetry_2
Mo1 O1 1_555 1_555
Mo2 O2 1_555 1_555
Mo3 O4 1_555 1_555
Mo4 O1 1_555 1_555
Cu1 N1 1_555 1_555
Cu2 N2 1_555 1_555
N1 C1 1_555 1_555
N2 C6 1_555 1_555
N3 Cu2 1_555 1_555
N4 C14 1_555 1_555
C1 C2 1_555 1_555
C2 H1 1_555 1_555
C3 C2 1_555 1_555
H2 C3 1_555 1_555
C4 C3 1_555 1_555
H3 C4 1_555 1_555
C5 C4 1_555 1_555
H4 C5 1_555 1_555
C6 C1 1_555 1_555
C7 N2 1_555 1_555
H5 C7 1_555 1_555
C8 N1 1_555 1_555
H6 C8 1_555 1_555
C9 N3 1_555 1_555
C10 C9 1_555 1_555
H7 C10 1_555 1_555
C11 C10 1_555 1_555
H8 C11 1_555 1_555
C12 C11 1_555 1_555
H9 C12 1_555 1_555
C13 C12 1_555 1_555
H10 C13 1_555 1_555
C14 C9 1_555 1_555
C15 N4 1_555 1_555
H11 C15 1_555 1_555
C16 N3 1_555 1_555
H12 C16 1_555 1_555
O2 Mo1 1_555 1_555
O3 Mo1 1_555 1_555
O4 Mo1 1_555 1_555
O5 Mo1 1_555 1_555
O6 Mo2 1_555 1_555
O7 Mo3 1_555 1_555
O8 Mo3 1_555 1_555
O9 Mo2 1_555 1_555
O10 Mo3 1_555 1_555
O11 Mo4 1_555 1_555
O12 Mo4 1_555 1_555
O13 Mo1 1_555 1_555
Mo2A O2 1_555 1_555
Mo4A O8 1_555 1_555
Mo4A_2 O13 1_555 1_555
Cu1_2 N4 1_555 1_555
Cu1_3 O7 1_555 1_555
Cu1A O12 1_555 1_555
N4_2 Cu1 1_555 1_555
O2A Mo2 1_555 1_555
O5A Mo2 1_555 1_555
O7_2 Cu1 1_555 1_555
O8A Mo4 1_555 1_555
O9A Mo4 1_555 1_555
O12A Cu1 1_555 1_555
O13A Mo4 1_555 1_555
Mo2 O4 1_555 1_555
Mo3 O9 1_555 1_555
Cu2 O3 1_555 1_555
C5 C6 1_555 1_555
C7 C8 1_555 1_555
C13 C14 1_555 1_555
C15 C16 1_555 1_555
O5 Mo2A 1_555 1_555
O9 Mo4A 1_555 1_555
Mo2A O2A 1_555 1_555
Mo2A O9A 1_555 1_555

#END
