
#######################################################################
#
#                 Cambridge Crystallographic Data Centre
#                                CCDC 
#
#######################################################################
#
# If this CIF has been generated from an entry in the Cambridge 
# Structural Database, then it will include bibliographic, chemical, 
# crystal, experimental, refinement or atomic coordinate data resulting 
# from the CCDC's data processing and validation procedures.
#
#######################################################################

data_REKBUF
_symmetry_cell_setting           triclinic
_symmetry_space_group_name_H-M   'P -1'
_symmetry_Int_Tables_number      2
_space_group_name_Hall           '-P 1'
loop_
_symmetry_equiv_pos_site_id
_symmetry_equiv_pos_as_xyz
1 x,y,z
2 -x,-y,-z
_cell_length_a                   8.2711(19)
_cell_length_b                   9.301(2)
_cell_length_c                   9.397(2)
_cell_angle_alpha                112.152(3)
_cell_angle_beta                 101.387(3)
_cell_angle_gamma                92.818(3)
_cell_volume                     650.256
loop_
_atom_site_label
_atom_site_type_symbol
_atom_site_fract_x
_atom_site_fract_y
_atom_site_fract_z
N1 N 0.9125(2) -0.0102(2) 0.6433(2)
C1 C 1.0541(3) 0.0259(3) 0.6788(3)
Co1 Co 0.67140(3) -0.09755(3) 0.51961(3)
S1 S 1.25697(7) 0.07562(9) 0.73034(7)
S2 S 0.65145(11) -0.64873(8) 0.23055(10)
O1 O 0.58494(18) 0.12310(17) 0.59905(19)
N2 N 0.6801(2) 0.2652(2) 0.6768(2)
O2 O 0.6169(2) -0.1289(2) 0.7156(2)
N3 N 0.6739(3) -0.3329(3) 0.4207(3)
C2 C 0.8774(4) 0.4571(3) 0.6832(3)
H1 H 0.9509 0.4893 0.6345
C3 C 0.6633(3) -0.4642(3) 0.3437(3)
C4 C 0.7546(3) 0.5007(3) 0.8984(3)
H2 H 0.7431 0.5631 0.9988
C5 C 0.8632(3) 0.5563(3) 0.8309(3)
C6 C 0.7848(3) 0.3118(3) 0.6071(3)
H3 H 0.7951 0.2462 0.5073
C7 C 0.6643(3) 0.3559(3) 0.8204(3)
H4 H 0.5914 0.3203 0.8674
C8 C 0.6597(3) -0.0188(3) 0.8739(3)
H5 H 0.7672 0.0390 0.8950
H6 H 0.6627 -0.0726 0.9435
H7 H 0.5783 0.0522 0.8909
C9 C 0.9607(4) 0.7178(3) 0.9133(4)
H8 H 0.9235 0.7744 1.0070
H9 H 0.9440 0.7723 0.8439
H10 H 1.0769 0.7096 0.9415
H11 H 0.551(3) -0.203(2) 0.706(3)
Co1A Co 1.32860(3) 0.09755(3) 0.48039(3)
Co1A_2 Co 0.32860(3) 0.09755(3) 0.48039(3)
S1A S 0.74303(7) -0.07562(9) 0.26966(7)
O1A O 0.41506(18) -0.12310(17) 0.40095(19)
loop_
_geom_bond_atom_site_label_1
_geom_bond_atom_site_label_2
_geom_bond_site_symmetry_1
_geom_bond_site_symmetry_2
N1 C1 1_555 1_555
C1 S1 1_555 1_555
Co1 N1 1_555 1_555
S1 Co1A 1_555 1_555
S2 C3 1_555 1_555
O1 Co1 1_555 1_555
N2 O1 1_555 1_555
O2 Co1 1_555 1_555
N3 Co1 1_555 1_555
C2 H1 1_555 1_555
C3 N3 1_555 1_555
C4 H2 1_555 1_555
C5 C2 1_555 1_555
C6 N2 1_555 1_555
H3 C6 1_555 1_555
C7 N2 1_555 1_555
H4 C7 1_555 1_555
C8 O2 1_555 1_555
H5 C8 1_555 1_555
H6 C8 1_555 1_555
H7 C8 1_555 1_555
C9 C5 1_555 1_555
H8 C9 1_555 1_555
H9 C9 1_555 1_555
H10 C9 1_555 1_555
H11 O2 1_555 1_555
Co1A_2 O1 1_555 1_555
S1A Co1 1_555 1_555
O1A Co1 1_555 1_555
C2 C6 1_555 1_555
C4 C5 1_555 1_555
C4 C7 1_555 1_555
Co1A_2 O1A 1_555 1_555

#END
