
#######################################################################
#
#                 Cambridge Crystallographic Data Centre
#                                CCDC 
#
#######################################################################
#
# If this CIF has been generated from an entry in the Cambridge 
# Structural Database, then it will include bibliographic, chemical, 
# crystal, experimental, refinement or atomic coordinate data resulting 
# from the CCDC's data processing and validation procedures.
#
#######################################################################

data_REKCIU
_symmetry_cell_setting           triclinic
_symmetry_space_group_name_H-M   'P -1'
_symmetry_Int_Tables_number      2
_space_group_name_Hall           '-P 1'
loop_
_symmetry_equiv_pos_site_id
_symmetry_equiv_pos_as_xyz
1 x,y,z
2 -x,-y,-z
_cell_length_a                   12.948(3)
_cell_length_b                   13.289(3)
_cell_length_c                   16.106(3)
_cell_angle_alpha                70.55(3)
_cell_angle_beta                 70.09(3)
_cell_angle_gamma                79.81(3)
_cell_volume                     2450.64
loop_
_atom_site_label
_atom_site_type_symbol
_atom_site_fract_x
_atom_site_fract_y
_atom_site_fract_z
Cd1 Cd 0.5000 0.0000 0.0000
Cd2 Cd 0.47944(6) -0.52056(6) 0.12466(5)
Cd3 Cd 0.72121(7) 0.29910(6) 0.17756(5)
Cd4 Cd -0.06461(7) -0.49143(8) 0.20688(6)
Mo1 Mo 0.53528(6) -0.27099(6) 0.17869(5)
Mo2 Mo 0.26673(6) 0.21663(6) 0.04517(5)
Mo3 Mo 0.32858(6) -0.23195(7) 0.18845(5)
Mo4 Mo 0.75487(6) 0.10697(7) 0.01113(5)
Mo5 Mo 0.60874(6) 0.06237(7) 0.17516(5)
Mo6 Mo 0.32591(6) 0.13050(7) 0.19523(5)
P1 P 0.47785(18) -0.27845(19) -0.01436(15)
P2 P 0.1137(2) -0.3059(2) 0.16187(17)
P3 P 0.7244(2) -0.4565(2) 0.11559(17)
P4 P 0.4597(2) 0.2219(2) 0.29569(16)
O1 O 0.4224(5) -0.3656(5) 0.2012(4)
O2 O 0.4512(5) -0.1380(5) 0.1320(4)
O3 O 0.2684(6) 0.2736(5) 0.1404(5)
O4 O 0.2386(5) -0.1009(6) 0.1191(4)
O5 O 0.6795(5) -0.1927(5) 0.0902(4)
O6 O 0.5663(5) -0.2750(5) 0.0302(4)
O7 O 0.5061(5) -0.2000(5) -0.1126(4)
O8 O 0.7138(5) 0.1726(6) 0.1118(4)
O9 O 0.3527(5) 0.0822(5) 0.0853(4)
O10 O 0.6633(6) -0.5361(6) 0.1018(5)
O11 O 0.2150(6) 0.0666(6) 0.2709(5)
O12 O 0.0871(6) -0.4109(7) 0.1597(5)
O13 O 0.6236(5) 0.0226(6) 0.0635(4)
O14 O 0.4485(5) 0.0100(6) 0.2273(4)
O15 O 0.6434(6) -0.3999(6) 0.1843(5)
O16 O 0.1408(6) -0.2287(6) 0.0632(4)
O17 O 0.3563(6) 0.1944(6) 0.2843(5)
O18 O 0.0124(6) -0.2537(7) 0.2242(5)
O19 O 0.2070(6) -0.3237(6) 0.2040(5)
O20 O 0.4744(5) -0.3921(5) -0.0123(4)
O21 O 0.3667(5) -0.2369(5) 0.0425(4)
O22 O 0.4992(8) 0.3302(7) 0.2378(5)
O23 O 0.4327(7) 0.2179(7) 0.3998(5)
O24 O 0.2745(6) -0.2151(6) 0.2938(5)
O25 O 0.5299(6) -0.2603(6) 0.2805(5)
O26 O 0.1405(6) 0.1749(6) 0.0748(5)
O27 O 0.8529(6) 0.0114(6) 0.0318(5)
O28 O 0.5544(6) 0.1362(7) 0.2774(5)
O29 O 0.8149(6) -0.5216(6) 0.1551(5)
O30 O 0.6731(6) -0.0429(6) 0.2338(5)
O31 O 0.7738(6) -0.3726(6) 0.0221(5)
O32 O 0.2985(7) -0.5452(7) 0.1750(6)
O33 O 0.0343(9) -0.5946(12) 0.1106(9)
O34 O 0.8903(8) 0.3324(8) 0.0457(6)
C1 C 0.9096(10) 0.0954(11) 0.2034(8)
H1 H 0.9189 0.1049 0.1415
C2 C 0.9705(10) 0.0130(11) 0.2469(10)
H2 H 1.0180 -0.0329 0.2156
C3 C 0.9601(11) -0.0008(12) 0.3384(10)
H3 H 1.0031 -0.0539 0.3689
C4 C 0.8831(11) 0.0670(11) 0.3845(9)
C5 C 0.8646(14) 0.0584(15) 0.4793(9)
H4 H 0.9027 0.0036 0.5133
C6 C 0.7943(15) 0.1267(16) 0.5206(9)
H5 H 0.7835 0.1183 0.5825
C7 C 0.7354(11) 0.2131(11) 0.4692(8)
C8 C 0.6608(12) 0.2890(13) 0.5093(9)
H6 H 0.6485 0.2840 0.5708
C9 C 0.6087(11) 0.3675(12) 0.4575(8)
H7 H 0.5621 0.4194 0.4820
C10 C 0.6252(10) 0.3706(10) 0.3655(8)
H8 H 0.5866 0.4236 0.3306
C11 C 0.7498(9) 0.2233(9) 0.3776(7)
C12 C 0.8249(9) 0.1498(9) 0.3339(7)
C13 C -0.2540(10) -0.3703(12) 0.3443(9)
H9 H -0.2733 -0.3325 0.2910
C14 C -0.3098(11) -0.3429(13) 0.4259(10)
H10 H -0.3645 -0.2872 0.4265
C15 C -0.2832(12) -0.3981(13) 0.5027(10)
H11 H -0.3205 -0.3811 0.5574
C16 C -0.1996(10) -0.4813(11) 0.5019(8)
C17 C -0.1671(12) -0.5411(13) 0.5815(9)
H12 H -0.2022 -0.5261 0.6374
C18 C -0.0858(12) -0.6190(12) 0.5762(8)
H13 H -0.0649 -0.6567 0.6287
C19 C -0.0305(10) -0.6456(11) 0.4922(8)
C20 C 0.0570(12) -0.7254(12) 0.4827(11)
H14 H 0.0830 -0.7627 0.5326
C21 C 0.1031(13) -0.7478(14) 0.4012(11)
H15 H 0.1605 -0.8005 0.3950
C22 C 0.0639(12) -0.6912(13) 0.3263(11)
H16 H 0.0948 -0.7083 0.2710
C23 C -0.0626(9) -0.5904(10) 0.4129(8)
C24 C -0.1479(9) -0.5041(10) 0.4173(7)
N1 N 0.8380(7) 0.1626(8) 0.2439(6)
N2 N 0.6941(8) 0.3004(8) 0.3271(6)
N3 N -0.1754(7) -0.4475(9) 0.3401(7)
N4 N -0.0160(8) -0.6138(9) 0.3319(7)
Cd2A Cd 0.52056(6) 0.52056(6) -0.12466(5)
Cd2A_2 Cd 0.52056(6) -0.47944(6) -0.12466(5)
Cd2_2 Cd 0.47944(6) 0.47944(6) 0.12466(5)
Cd3A Cd 0.27879(7) -0.29910(6) -0.17756(5)
Cd3_2 Cd 0.72121(7) -0.70090(6) 0.17756(5)
Cd3A_2 Cd 0.27879(7) 0.70090(6) -0.17756(5)
Cd4A Cd 1.06461(7) 0.49143(8) -0.20688(6)
Cd4_2 Cd 0.93539(7) -0.49143(8) 0.20688(6)
Cd4A_2 Cd 0.06461(7) 0.49143(8) -0.20688(6)
Mo1A Mo 0.46472(6) 0.27099(6) -0.17869(5)
Mo2A Mo 0.73327(6) -0.21663(6) -0.04517(5)
Mo3A Mo 0.67142(6) 0.23195(7) -0.18845(5)
Mo4A Mo 0.24513(6) -0.10697(7) -0.01113(5)
Mo5A Mo 0.39126(6) -0.06237(7) -0.17516(5)
Mo6A Mo 0.67409(6) -0.13050(7) -0.19523(5)
P1A P 0.52215(18) 0.27845(19) 0.01436(15)
P2A P 0.8863(2) 0.3059(2) -0.16187(17)
P3A P 0.2756(2) 0.4565(2) -0.11559(17)
P4A P 0.5403(2) -0.2219(2) -0.29569(16)
O1A O 0.5776(5) 0.3656(5) -0.2012(4)
O2A O 0.5488(5) 0.1380(5) -0.1320(4)
O3A O 0.7316(6) -0.2736(5) -0.1404(5)
O4A O 0.7614(5) 0.1009(6) -0.1191(4)
O5A O 0.3205(5) 0.1927(5) -0.0902(4)
O6A O 0.4337(5) 0.2750(5) -0.0302(4)
O7A O 0.4939(5) 0.2000(5) 0.1126(4)
O8A O 0.2862(5) -0.1726(6) -0.1118(4)
O9A O 0.6473(5) -0.0822(5) -0.0853(4)
O10A O 0.3367(6) 0.5361(6) -0.1018(5)
O10_2 O 0.6633(6) 0.4639(6) 0.1018(5)
O10A_2 O 0.3367(6) -0.4639(6) -0.1018(5)
O11A O 0.7850(6) -0.0666(6) -0.2709(5)
O12A O 0.9129(6) 0.4109(7) -0.1597(5)
O13A O 0.3764(5) -0.0226(6) -0.0635(4)
O14A O 0.5515(5) -0.0100(6) -0.2273(4)
O15A O 0.3566(6) 0.3999(6) -0.1843(5)
O16A O 0.8592(6) 0.2287(6) -0.0632(4)
O17A O 0.6437(6) -0.1944(6) -0.2843(5)
O18A O 0.9876(6) 0.2537(7) -0.2242(5)
O19A O 0.7930(6) 0.3237(6) -0.2040(5)
O20A O 0.5256(5) 0.3921(5) 0.0123(4)
O20A_2 O 0.5256(5) -0.6079(5) 0.0123(4)
O20_2 O 0.4744(5) 0.6079(5) -0.0123(4)
O21A O 0.6333(5) 0.2369(5) -0.0425(4)
O22A O 0.5008(8) -0.3302(7) -0.2378(5)
O22_2 O 0.4992(8) -0.6698(7) 0.2378(5)
O22A_2 O 0.5008(8) 0.6698(7) -0.2378(5)
O23A O 0.5673(7) -0.2179(7) -0.3998(5)
O24A O 0.7255(6) 0.2151(6) -0.2938(5)
O25A O 0.4701(6) 0.2603(6) -0.2805(5)
O26A O 0.8595(6) -0.1749(6) -0.0748(5)
O27A O 0.1471(6) -0.0114(6) -0.0318(5)
O28A O 0.4456(6) -0.1362(7) -0.2774(5)
O29A O 0.1851(6) 0.5216(6) -0.1551(5)
O29_2 O -0.1851(6) -0.5216(6) 0.1551(5)
O29A_2 O 1.1851(6) 0.5216(6) -0.1551(5)
O30A O 0.3269(6) 0.0429(6) -0.2338(5)
O31A O 0.2262(6) 0.3726(6) -0.0221(5)
O32A O 0.7015(7) 0.5452(7) -0.1750(6)
O33A O 0.9657(9) 0.5946(12) -0.1106(9)
O34A O 0.1097(8) -0.3324(8) -0.0457(6)
C1A C 0.0904(10) -0.0954(11) -0.2034(8)
H1A H 0.0811 -0.1049 -0.1415
C2A C 0.0295(10) -0.0130(11) -0.2469(10)
H2A H -0.0180 0.0329 -0.2156
C3A C 0.0399(11) 0.0008(12) -0.3384(10)
H3A H -0.0031 0.0539 -0.3689
C4A C 0.1169(11) -0.0670(11) -0.3845(9)
C5A C 0.1354(14) -0.0584(15) -0.4793(9)
H4A H 0.0973 -0.0036 -0.5133
C6A C 0.2057(15) -0.1267(16) -0.5206(9)
H5A H 0.2165 -0.1183 -0.5825
C7A C 0.2646(11) -0.2131(11) -0.4692(8)
C8A C 0.3392(12) -0.2890(13) -0.5093(9)
H6A H 0.3515 -0.2840 -0.5708
C9A C 0.3913(11) -0.3675(12) -0.4575(8)
H7A H 0.4379 -0.4194 -0.4820
C10A C 0.3748(10) -0.3706(10) -0.3655(8)
H8A H 0.4134 -0.4236 -0.3306
C11A C 0.2502(9) -0.2233(9) -0.3776(7)
C12A C 0.1751(9) -0.1498(9) -0.3339(7)
C13A C 1.2540(10) 0.3703(12) -0.3443(9)
H9A H 1.2733 0.3325 -0.2910
C14A C 1.3098(11) 0.3429(13) -0.4259(10)
H10A H 1.3645 0.2872 -0.4265
C15A C 1.2832(12) 0.3981(13) -0.5027(10)
H11A H 1.3205 0.3811 -0.5574
C16A C 1.1996(10) 0.4813(11) -0.5019(8)
C17A C 1.1671(12) 0.5411(13) -0.5815(9)
H12A H 1.2022 0.5261 -0.6374
C18A C 1.0858(12) 0.6190(12) -0.5762(8)
H13A H 1.0649 0.6567 -0.6287
C19A C 1.0305(10) 0.6456(11) -0.4922(8)
C20A C 0.9430(12) 0.7254(12) -0.4827(11)
H14A H 0.9170 0.7627 -0.5326
C21A C 0.8969(13) 0.7478(14) -0.4012(11)
H15A H 0.8395 0.8005 -0.3950
C22A C 0.9361(12) 0.6912(13) -0.3263(11)
H16A H 0.9052 0.7083 -0.2710
C23A C 1.0626(9) 0.5904(10) -0.4129(8)
C24A C 1.1479(9) 0.5041(10) -0.4173(7)
N1A N 0.1620(7) -0.1626(8) -0.2439(6)
N2A N 0.3059(8) -0.3004(8) -0.3271(6)
N3A N 1.1754(7) 0.4475(9) -0.3401(7)
N4A N 1.0160(8) 0.6138(9) -0.3319(7)
O35 O 0.6244(18) -0.0426(18) -0.5483(14)
O36 O -0.1188(10) -0.2650(13) 0.1243(9)
O37 O 0.462(4) -0.086(4) -0.587(3)
loop_
_geom_bond_atom_site_label_1
_geom_bond_atom_site_label_2
_geom_bond_site_symmetry_1
_geom_bond_site_symmetry_2
Cd1 O2 1_555 1_555
Cd2 O1 1_555 1_555
Cd3 O8 1_555 1_555
Cd4 O12 1_555 1_555
Mo1 Mo3 1_555 1_555
Mo2 Mo6 1_555 1_555
Mo3 O1 1_555 1_555
Mo4 Mo5 1_555 1_555
Mo5 O8 1_555 1_555
Mo6 O3 1_555 1_555
P1 O6 1_555 1_555
P2 O12 1_555 1_555
P3 O10 1_555 1_555
P4 O17 1_555 1_555
O1 Mo1 1_555 1_555
O2 Mo1 1_555 1_555
O3 Mo2 1_555 1_555
O4 Mo3 1_555 1_555
O5 Mo1 1_555 1_555
O6 Mo1 1_555 1_555
O7 P1 1_555 1_555
O8 Mo4 1_555 1_555
O9 Cd1 1_555 1_555
O10 Cd2 1_555 1_555
O11 Mo6 1_555 1_555
O13 Cd1 1_555 1_555
O14 Mo5 1_555 1_555
O15 Mo1 1_555 1_555
O16 P2 1_555 1_555
O17 Mo6 1_555 1_555
O18 P2 1_555 1_555
O19 Mo3 1_555 1_555
O20 Cd2 1_555 1_555
O21 Mo3 1_555 1_555
O22 P4 1_555 1_555
O23 P4 1_555 1_555
O24 Mo3 1_555 1_555
O25 Mo1 1_555 1_555
O26 Mo2 1_555 1_555
O27 Mo4 1_555 1_555
O28 Mo5 1_555 1_555
O29 P3 1_555 1_555
O30 Mo5 1_555 1_555
O31 P3 1_555 1_555
O32 Cd2 1_555 1_555
O33 Cd4 1_555 1_555
O34 Cd3 1_555 1_555
C1 H1 1_555 1_555
C2 C1 1_555 1_555
H2 C2 1_555 1_555
C3 C2 1_555 1_555
H3 C3 1_555 1_555
C4 C3 1_555 1_555
C5 C4 1_555 1_555
H4 C5 1_555 1_555
C6 C5 1_555 1_555
H5 C6 1_555 1_555
C7 C6 1_555 1_555
C8 C7 1_555 1_555
H6 C8 1_555 1_555
C9 C8 1_555 1_555
H7 C9 1_555 1_555
C10 C9 1_555 1_555
H8 C10 1_555 1_555
C11 C7 1_555 1_555
C12 C4 1_555 1_555
C13 H9 1_555 1_555
C14 C13 1_555 1_555
H10 C14 1_555 1_555
C15 C14 1_555 1_555
H11 C15 1_555 1_555
C16 C15 1_555 1_555
C17 C16 1_555 1_555
H12 C17 1_555 1_555
C18 C17 1_555 1_555
H13 C18 1_555 1_555
C19 C18 1_555 1_555
C20 C19 1_555 1_555
H14 C20 1_555 1_555
C21 C20 1_555 1_555
H15 C21 1_555 1_555
C22 C21 1_555 1_555
H16 C22 1_555 1_555
C23 C19 1_555 1_555
C24 C16 1_555 1_555
N1 Cd3 1_555 1_555
N2 Cd3 1_555 1_555
N3 Cd4 1_555 1_555
N4 Cd4 1_555 1_555
Cd2A O1A 1_555 1_555
Cd2A_2 O20 1_555 1_555
Cd2_2 O22 1_555 1_555
Cd3A O8A 1_555 1_555
Cd3_2 O10 1_555 1_555
Cd3A_2 O10A 1_555 1_555
Cd4A O12A 1_555 1_555
Cd4_2 O29 1_555 1_555
Cd4A_2 O29A 1_555 1_555
Mo1A Mo3A 1_555 1_555
Mo2A O5 1_555 1_555
Mo3A O1A 1_555 1_555
Mo4A O4 1_555 1_555
Mo5A O7 1_555 1_555
Mo6A O7 1_555 1_555
P1A O6A 1_555 1_555
P2A O12A 1_555 1_555
P3A O10A 1_555 1_555
P4A O17A 1_555 1_555
O1A Mo1A 1_555 1_555
O2A Cd1 1_555 1_555
O3A Mo2A 1_555 1_555
O4A Mo4 1_555 1_555
O5A Mo2 1_555 1_555
O6A Mo2 1_555 1_555
O7A Mo5 1_555 1_555
O8A Mo4A 1_555 1_555
O9A Cd1 1_555 1_555
O10A Cd2A 1_555 1_555
O10_2 Cd3 1_555 1_555
O10A_2 Cd2A_2 1_555 1_555
O11A Mo6A 1_555 1_555
O13A Cd1 1_555 1_555
O14A Mo5A 1_555 1_555
O15A Mo1A 1_555 1_555
O16A Mo4 1_555 1_555
O17A Mo6A 1_555 1_555
O18A P2A 1_555 1_555
O19A Mo3A 1_555 1_555
O20A Cd2A 1_555 1_555
O20A_2 Cd2 1_555 1_555
O20_2 Cd2A 1_555 1_555
O21A Mo4 1_555 1_555
O22A Cd2A_2 1_555 1_555
O22_2 Cd2 1_555 1_555
O22A_2 Cd2A 1_555 1_555
O23A P4A 1_555 1_555
O24A Mo3A 1_555 1_555
O25A Mo1A 1_555 1_555
O26A Mo2A 1_555 1_555
O27A Mo4A 1_555 1_555
O28A Mo5A 1_555 1_555
O29A P3A 1_555 1_555
O29_2 Cd4 1_555 1_555
O29A_2 Cd4A 1_555 1_555
O30A Mo5A 1_555 1_555
O31A Mo2 1_555 1_555
O32A Cd2A 1_555 1_555
O33A Cd4A 1_555 1_555
O34A Cd3A 1_555 1_555
C1A H1A 1_555 1_555
C2A C1A 1_555 1_555
H2A C2A 1_555 1_555
C3A C2A 1_555 1_555
H3A C3A 1_555 1_555
C4A C3A 1_555 1_555
C5A C4A 1_555 1_555
H4A C5A 1_555 1_555
C6A C5A 1_555 1_555
H5A C6A 1_555 1_555
C7A C6A 1_555 1_555
C8A C7A 1_555 1_555
H6A C8A 1_555 1_555
C9A C8A 1_555 1_555
H7A C9A 1_555 1_555
C10A C9A 1_555 1_555
H8A C10A 1_555 1_555
C11A C7A 1_555 1_555
C12A C4A 1_555 1_555
C13A H9A 1_555 1_555
C14A C13A 1_555 1_555
H10A C14A 1_555 1_555
C15A C14A 1_555 1_555
H11A C15A 1_555 1_555
C16A C15A 1_555 1_555
C17A C16A 1_555 1_555
H12A C17A 1_555 1_555
C18A C17A 1_555 1_555
H13A C18A 1_555 1_555
C19A C18A 1_555 1_555
C20A C19A 1_555 1_555
H14A C20A 1_555 1_555
C21A C20A 1_555 1_555
H15A C21A 1_555 1_555
C22A C21A 1_555 1_555
H16A C22A 1_555 1_555
C23A C19A 1_555 1_555
C24A C16A 1_555 1_555
N1A Cd3A 1_555 1_555
N2A Cd3A 1_555 1_555
N3A Cd4A 1_555 1_555
N4A Cd4A 1_555 1_555
Mo2 O9 1_555 1_555
Mo3 O2 1_555 1_555
Mo4 O13 1_555 1_555
Mo5 O13 1_555 1_555
Mo6 O9 1_555 1_555
Mo6 O14 1_555 1_555
Mo6 O7A 1_555 1_555
P1 O20 1_555 1_555
P1 O21 1_555 1_555
P2 O19 1_555 1_555
P3 O15 1_555 1_555
P4 O28 1_555 1_555
O6 Mo2A 1_555 1_555
O16 Mo4A 1_555 1_555
O21 Mo4A 1_555 1_555
O31 Mo2A 1_555 1_555
C1 N1 1_555 1_555
C10 N2 1_555 1_555
C11 C12 1_555 1_555
C11 N2 1_555 1_555
C12 N1 1_555 1_555
C13 N3 1_555 1_555
C22 N4 1_555 1_555
C23 C24 1_555 1_555
C23 N4 1_555 1_555
C24 N3 1_555 1_555
Cd2A_2 O20A_2 1_555 1_555
Cd2_2 O10_2 1_555 1_555
Cd2_2 O20A 1_555 1_555
Cd2_2 O20_2 1_555 1_555
Cd3A O10A_2 1_555 1_555
Mo1A O2A 1_555 1_555
Mo1A O5A 1_555 1_555
Mo1A O6A 1_555 1_555
Mo2A Mo6A 1_555 1_555
Mo2A O9A 1_555 1_555
Mo3A O2A 1_555 1_555
Mo3A O4A 1_555 1_555
Mo3A O21A 1_555 1_555
Mo4A Mo5A 1_555 1_555
Mo4A O13A 1_555 1_555
Mo5A O8A 1_555 1_555
Mo5A O13A 1_555 1_555
Mo6A O3A 1_555 1_555
Mo6A O9A 1_555 1_555
Mo6A O14A 1_555 1_555
P1A O7A 1_555 1_555
P1A O20A 1_555 1_555
P1A O21A 1_555 1_555
P2A O16A 1_555 1_555
P2A O19A 1_555 1_555
P3A O15A 1_555 1_555
P3A O31A 1_555 1_555
P4A O22A 1_555 1_555
P4A O28A 1_555 1_555
C1A N1A 1_555 1_555
C10A N2A 1_555 1_555
C11A C12A 1_555 1_555
C11A N2A 1_555 1_555
C12A N1A 1_555 1_555
C13A N3A 1_555 1_555
C22A N4A 1_555 1_555
C23A C24A 1_555 1_555
C23A N4A 1_555 1_555
C24A N3A 1_555 1_555

#END
