
#######################################################################
#
#                 Cambridge Crystallographic Data Centre
#                                CCDC 
#
#######################################################################
#
# If this CIF has been generated from an entry in the Cambridge 
# Structural Database, then it will include bibliographic, chemical, 
# crystal, experimental, refinement or atomic coordinate data resulting 
# from the CCDC's data processing and validation procedures.
#
#######################################################################

data_REKPUT
_symmetry_cell_setting           triclinic
_symmetry_space_group_name_H-M   'P -1'
_symmetry_Int_Tables_number      2
_space_group_name_Hall           '-P 1'
loop_
_symmetry_equiv_pos_site_id
_symmetry_equiv_pos_as_xyz
1 x,y,z
2 -x,-y,-z
_cell_length_a                   11.116(5)
_cell_length_b                   11.843(5)
_cell_length_c                   12.319(5)
_cell_angle_alpha                99.50(5)
_cell_angle_beta                 112.37(5)
_cell_angle_gamma                90.02(5)
_cell_volume                     1475.59
loop_
_atom_site_label
_atom_site_type_symbol
_atom_site_fract_x
_atom_site_fract_y
_atom_site_fract_z
Ce1 Ce 0.120400(12) 0.440069(10) 0.142362(11)
O1 O 0.53104(17) 1.05584(14) 0.14966(16)
O2 O 0.23786(18) 0.56962(15) 0.07039(16)
O3 O 0.09810(17) 0.64714(15) -0.07950(15)
O4 O 0.62300(17) 1.09594(14) 0.45784(15)
O5 O 0.83495(18) 0.76912(14) 0.84484(15)
O6 O 0.83118(17) 0.65531(14) 0.68170(15)
O7 O 0.86568(17) 1.08503(15) 0.35443(15)
O8 O 1.02379(18) 0.57870(15) 0.25812(16)
O9 O 0.97362(18) 0.61440(14) 0.07615(15)
O10 O 0.29673(18) 0.56546(15) 0.32479(16)
O11 O 0.5062(2) 0.55881(19) 0.3834(2)
N1 N 0.67078(19) 1.23372(16) 0.32150(17)
N2 N 0.3953(2) 0.51826(18) 0.31769(19)
C1 C 0.5887(2) 1.2527(2) 0.1974(2)
H1 H 0.6409 1.2463 0.1493
H2 H 0.5575 1.3292 0.2008
C2 C 0.4743(2) 1.1644(2) 0.1413(2)
H3 H 0.4166 1.1744 0.1842
H4 H 0.4251 1.1705 0.0586
C3 C 0.4472(2) 0.9596(2) 0.1155(2)
C4 C 0.5032(2) 0.8578(2) 0.1429(2)
H5 H 0.5931 0.8570 0.1814
C5 C 0.4246(2) 0.7574(2) 0.1126(2)
H6 H 0.4616 0.6898 0.1336
C6 C 0.2900(2) 0.7574(2) 0.0507(2)
C7 C 0.2357(2) 0.8601(2) 0.0232(2)
H7 H 0.1460 0.8607 -0.0175
C8 C 0.3133(2) 0.9617(2) 0.0557(2)
H8 H 0.2762 1.0301 0.0377
C9 C 0.2022(2) 0.6498(2) 0.0109(2)
C10 C 0.6130(2) 1.2808(2) 0.4112(2)
H9 H 0.5186 1.2742 0.3731
H10 H 0.6412 1.3614 0.4416
C11 C 0.6570(3) 1.21425(19) 0.5128(2)
H11 H 0.7504 1.2273 0.5574
H12 H 0.6130 1.2371 0.5666
C12 C 0.6673(2) 1.01636(19) 0.5306(2)
C13 C 0.7309(3) 1.0443(2) 0.6541(2)
H13 H 0.7434 1.1203 0.6927
C14 C 0.7755(2) 0.9563(2) 0.7186(2)
H14 H 0.8177 0.9741 0.8012
C15 C 0.7580(2) 0.84243(19) 0.6619(2)
C16 C 0.6930(2) 0.8157(2) 0.5384(2)
H15 H 0.6816 0.7397 0.4997
C17 C 0.6454(2) 0.9019(2) 0.4732(2)
H16 H 0.5989 0.8835 0.3912
C18 C 0.8118(2) 0.7510(2) 0.7339(2)
C19 C 0.8115(2) 1.2762(2) 0.3595(2)
H17 H 0.8538 1.2909 0.4458
H18 H 0.8161 1.3472 0.3311
C20 C 0.8791(2) 1.1851(2) 0.3069(2)
H19 H 0.8380 1.1701 0.2205
H20 H 0.9704 1.2088 0.3305
C21 C 0.8936(2) 0.9804(2) 0.3058(2)
C22 C 0.9012(2) 0.8937(2) 0.3714(2)
H21 H 0.8883 0.9090 0.4426
C23 C 0.9280(2) 0.7847(2) 0.3304(2)
H22 H 0.9348 0.7271 0.3750
C24 C 0.9449(2) 0.7603(2) 0.2224(2)
C25 C 0.9355(2) 0.8471(2) 0.1566(2)
H23 H 0.9449 0.8310 0.0838
C26 C 0.9122(2) 0.9583(2) 0.1992(2)
H24 H 0.9092 1.0169 0.1566
C27 C 0.9806(2) 0.6439(2) 0.1838(2)
O15 O 0.3769 0.4278 0.2403
Ce1A Ce -0.120400(12) 0.559931(10) -0.142362(11)
Ce1A_2 Ce 0.879600(12) 0.559931(10) 0.857638(11)
Ce1_2 Ce 1.120400(12) 0.440069(10) 0.142362(11)
Ce1A_3 Ce 0.879600(12) 0.559931(10) -0.142362(11)
O3A O -0.09810(17) 0.35286(15) 0.07950(15)
O5A O 0.16505(18) 0.23088(14) 0.15516(15)
O6A O 0.16882(17) 0.34469(14) 0.31830(15)
O8_2 O 0.02379(18) 0.57870(15) 0.25812(16)
O9A O 0.02638(18) 0.38560(14) -0.07615(15)
O12 O 0.9138(2) 0.58307(17) 0.49275(17)
H25 H 0.8897 0.5948 0.5421
H26 H 0.8485 0.5692 0.4377
O13 O 0.6988 0.5334 0.2820
H27 H 0.6976 0.5989 0.2898
H28 H 0.7386 0.5146 0.2268
O14 O 0.6179 0.5663 0.0473
H29 H 0.6632 0.5772 0.1242
H30 H 0.6667 0.5331 0.0098
loop_
_geom_bond_atom_site_label_1
_geom_bond_atom_site_label_2
_geom_bond_site_symmetry_1
_geom_bond_site_symmetry_2
Ce1 O2 1_555 1_555
O1 C2 1_555 1_555
O2 C9 1_555 1_555
O3 C9 1_555 1_555
O4 C11 1_555 1_555
O5 C18 1_555 1_555
O6 C18 1_555 1_555
O7 C20 1_555 1_555
O8 C27 1_555 1_555
O9 C27 1_555 1_555
O10 Ce1 1_555 1_555
O11 N2 1_555 1_555
N1 C1 1_555 1_555
N2 O10 1_555 1_555
C1 H1 1_555 1_555
H2 C1 1_555 1_555
C2 C1 1_555 1_555
H3 C2 1_555 1_555
H4 C2 1_555 1_555
C3 O1 1_555 1_555
C4 C3 1_555 1_555
H5 C4 1_555 1_555
C5 C4 1_555 1_555
H6 C5 1_555 1_555
C6 C5 1_555 1_555
C7 C6 1_555 1_555
H7 C7 1_555 1_555
C8 C3 1_555 1_555
H8 C8 1_555 1_555
C9 C6 1_555 1_555
C10 N1 1_555 1_555
H9 C10 1_555 1_555
H10 C10 1_555 1_555
C11 C10 1_555 1_555
H11 C11 1_555 1_555
H12 C11 1_555 1_555
C12 O4 1_555 1_555
C13 C12 1_555 1_555
H13 C13 1_555 1_555
C14 C13 1_555 1_555
H14 C14 1_555 1_555
C15 C14 1_555 1_555
C16 C15 1_555 1_555
H15 C16 1_555 1_555
C17 C12 1_555 1_555
H16 C17 1_555 1_555
C18 C15 1_555 1_555
C19 N1 1_555 1_555
H17 C19 1_555 1_555
H18 C19 1_555 1_555
C20 C19 1_555 1_555
H19 C20 1_555 1_555
H20 C20 1_555 1_555
C21 O7 1_555 1_555
C22 C21 1_555 1_555
H21 C22 1_555 1_555
C23 C22 1_555 1_555
H22 C23 1_555 1_555
C24 C23 1_555 1_555
C25 C24 1_555 1_555
H23 C25 1_555 1_555
C26 C21 1_555 1_555
H24 C26 1_555 1_555
C27 C24 1_555 1_555
O12 H25 1_555 1_555
H26 O12 1_555 1_555
O13 H27 1_555 1_555
H28 O13 1_555 1_555
O14 H29 1_555 1_555
H30 O14 1_555 1_555
O15 Ce1 1_555 1_555
Ce1A O3 1_555 1_555
Ce1A_2 O5 1_555 1_555
Ce1_2 O8 1_555 1_555
Ce1A_3 O9 1_555 1_555
O3A Ce1 1_555 1_555
O5A Ce1 1_555 1_555
O6A Ce1 1_555 1_555
O8_2 Ce1 1_555 1_555
O9A Ce1 1_555 1_555
O6 Ce1A_2 1_555 1_555
N2 O15 1_555 1_555
C7 C8 1_555 1_555
C16 C17 1_555 1_555
C25 C26 1_555 1_555

#END
