
#######################################################################
#
#                 Cambridge Crystallographic Data Centre
#                                CCDC 
#
#######################################################################
#
# If this CIF has been generated from an entry in the Cambridge 
# Structural Database, then it will include bibliographic, chemical, 
# crystal, experimental, refinement or atomic coordinate data resulting 
# from the CCDC's data processing and validation procedures.
#
#######################################################################

data_REKROP
_symmetry_cell_setting           monoclinic
_symmetry_space_group_name_H-M   'P 21/c'
_symmetry_Int_Tables_number      14
_space_group_name_Hall           '-P 2ybc'
loop_
_symmetry_equiv_pos_site_id
_symmetry_equiv_pos_as_xyz
1 x,y,z
2 -x,1/2+y,1/2-z
3 -x,-y,-z
4 x,1/2-y,1/2+z
_cell_length_a                   8.6400(17)
_cell_length_b                   12.298(3)
_cell_length_c                   10.246(2)
_cell_angle_alpha                90
_cell_angle_beta                 100.90(3)
_cell_angle_gamma                90
_cell_volume                     1069.04
loop_
_atom_site_label
_atom_site_type_symbol
_atom_site_fract_x
_atom_site_fract_y
_atom_site_fract_z
Co1 Co 0.5000 0.0000 0.0000
O1 O 0.6008(3) -0.1245(2) 0.1244(3)
N1 N 0.1727(3) -0.02126(19) 0.2628(2)
N2 N 0.0802(3) 0.0356(2) 0.1633(3)
N3 N 0.3287(3) 0.02062(19) 0.1277(3)
N4 N 0.1665(3) -0.2617(2) 0.3296(2)
N5 N 0.2230(3) -0.2804(2) 0.2156(3)
N6 N 0.3479(3) -0.3845(2) 0.3840(2)
C1 C 0.1804(4) 0.0585(3) 0.0846(3)
H1 H 0.1516 0.0974 0.0060
C2 C 0.3182(4) -0.0286(2) 0.2403(3)
H2 H 0.4011 -0.0634 0.2958
C3 C 0.3332(4) -0.3537(3) 0.2549(3)
H3 H 0.3958 -0.3822 0.1988
C4 C 0.2419(4) -0.3235(2) 0.4269(3)
H4 H 0.2230 -0.3240 0.5133
C5 C 0.1026(4) -0.0694(3) 0.3681(3)
H5 H 0.0166 -0.0237 0.3840
H6 H 0.1810 -0.0718 0.4495
C6 C 0.0409(4) -0.1836(2) 0.3336(3)
H7 H -0.0198 -0.2071 0.3990
H8 H -0.0292 -0.1822 0.2477
H9 H 0.650(5) -0.117(3) 0.204(4)
H10 H 0.610(5) -0.186(4) 0.093(5)
Co1C Co 0.5000 -0.5000 0.5000
Co1C_2 Co 0.5000 0.5000 -0.5000
O1B O 0.3992(3) 0.1245(2) -0.1244(3)
N1B N 0.8273(3) 0.02126(19) -0.2628(2)
N2B N 0.9198(3) -0.0356(2) -0.1633(3)
N3B N 0.6713(3) -0.02062(19) -0.1277(3)
N4B N 0.8335(3) 0.2617(2) -0.3296(2)
N5B N 0.7770(3) 0.2804(2) -0.2156(3)
N6B N 0.6521(3) 0.3845(2) -0.3840(2)
N6C N 0.3479(3) -0.1155(2) -0.1160(2)
N6A N 0.6521(3) 0.1155(2) 0.1160(2)
C1B C 0.8196(4) -0.0585(3) -0.0846(3)
H1B H 0.8484 -0.0974 -0.0060
C2B C 0.6818(4) 0.0286(2) -0.2403(3)
H2B H 0.5989 0.0634 -0.2958
C3B C 0.6668(4) 0.3537(3) -0.2549(3)
H3B H 0.6042 0.3822 -0.1988
C4B C 0.7581(4) 0.3235(2) -0.4269(3)
H4B H 0.7770 0.3240 -0.5133
C5B C 0.8974(4) 0.0694(3) -0.3681(3)
H5B H 0.9834 0.0237 -0.3840
H6B H 0.8190 0.0718 -0.4495
C6B C 0.9591(4) 0.1836(2) -0.3336(3)
H7B H 1.0198 0.2071 -0.3990
H8B H 1.0292 0.1822 -0.2477
H9B H 0.350(5) 0.117(3) -0.204(4)
H10B H 0.390(5) 0.186(4) -0.093(5)
O2 O 0.2074(4) 0.1884(2) 0.4425(3)
O3 O 0.2911(3) 0.0854(2) 0.6113(2)
O4 O 0.4550(3) 0.1657(3) 0.5072(3)
N7 N 0.3182(4) 0.1469(2) 0.5200(3)
loop_
_geom_bond_atom_site_label_1
_geom_bond_atom_site_label_2
_geom_bond_site_symmetry_1
_geom_bond_site_symmetry_2
Co1 O1 1_555 1_555
O1 H9 1_555 1_555
O2 N7 1_555 1_555
O3 N7 1_555 1_555
O4 N7 1_555 1_555
N1 N2 1_555 1_555
N2 C1 1_555 1_555
N3 Co1 1_555 1_555
N4 N5 1_555 1_555
N5 C3 1_555 1_555
N6 C3 1_555 1_555
C1 N3 1_555 1_555
H1 C1 1_555 1_555
C2 N1 1_555 1_555
H2 C2 1_555 1_555
C3 H3 1_555 1_555
C4 N4 1_555 1_555
H4 C4 1_555 1_555
C5 N1 1_555 1_555
H5 C5 1_555 1_555
H6 C5 1_555 1_555
C6 N4 1_555 1_555
H7 C6 1_555 1_555
H8 C6 1_555 1_555
H10 O1 1_555 1_555
Co1C N6 1_555 1_555
Co1C_2 N6B 1_555 1_555
O1B Co1 1_555 1_555
N1B N2B 1_555 1_555
N2B C1B 1_555 1_555
N3B Co1 1_555 1_555
N4B N5B 1_555 1_555
N5B C3B 1_555 1_555
N6B C3B 1_555 1_555
N6C Co1 1_555 1_555
N6A Co1 1_555 1_555
C1B N3B 1_555 1_555
H1B C1B 1_555 1_555
C2B N1B 1_555 1_555
H2B C2B 1_555 1_555
C3B H3B 1_555 1_555
C4B N4B 1_555 1_555
H4B C4B 1_555 1_555
C5B N1B 1_555 1_555
H5B C5B 1_555 1_555
H6B C5B 1_555 1_555
C6B N4B 1_555 1_555
H7B C6B 1_555 1_555
H8B C6B 1_555 1_555
H9B O1B 1_555 1_555
H10B O1B 1_555 1_555
N3 C2 1_555 1_555
N6 C4 1_555 1_555
C5 C6 1_555 1_555
N3B C2B 1_555 1_555
N6B C4B 1_555 1_555
C5B C6B 1_555 1_555

#END
