
#######################################################################
#
#                 Cambridge Crystallographic Data Centre
#                                CCDC 
#
#######################################################################
#
# If this CIF has been generated from an entry in the Cambridge 
# Structural Database, then it will include bibliographic, chemical, 
# crystal, experimental, refinement or atomic coordinate data resulting 
# from the CCDC's data processing and validation procedures.
#
#######################################################################

data_REKSEG
_symmetry_cell_setting           monoclinic
_symmetry_space_group_name_H-M   'P 21/m'
_symmetry_Int_Tables_number      11
_space_group_name_Hall           '-P 2yb'
loop_
_symmetry_equiv_pos_site_id
_symmetry_equiv_pos_as_xyz
1 x,y,z
2 -x,1/2+y,-z
3 -x,-y,-z
4 x,1/2-y,z
_cell_length_a                   7.9417(16)
_cell_length_b                   14.143(3)
_cell_length_c                   10.064(2)
_cell_angle_alpha                90
_cell_angle_beta                 98.26(3)
_cell_angle_gamma                90
_cell_volume                     1118.66
loop_
_atom_site_label
_atom_site_type_symbol
_atom_site_fract_x
_atom_site_fract_y
_atom_site_fract_z
Co1 Co 0.49204(7) 0.2500 0.73977(5)
S1 S 0.45851(17) 0.2500 0.27147(12)
S2 S 0.98103(16) 0.2500 1.00397(17)
N1 N 0.1891(3) 0.00892(18) 0.7825(2)
N2 N 0.2403(4) 0.0226(2) 0.9160(3)
N3 N 0.3340(3) 0.13988(18) 0.7951(2)
N4 N -0.1849(3) 0.01075(18) 0.7161(2)
N5 N -0.2107(4) 0.0276(2) 0.5813(3)
N6 N -0.3412(3) 0.13750(18) 0.6906(2)
N7 N 0.3765(5) 0.2500 0.5336(4)
N8 N 0.6268(5) 0.2500 0.9422(4)
C1 C 0.3271(4) 0.1018(2) 0.9184(3)
H1 H 0.3793 0.1295 0.9975
C2 C 0.2452(4) 0.0791(2) 0.7134(3)
H2 H 0.2248 0.0848 0.6204
C3 C -0.3040(5) 0.1044(3) 0.5714(3)
H3 H -0.3414 0.1338 0.4898
C4 C -0.2626(4) 0.0763(2) 0.7786(3)
H4 H -0.2624 0.0791 0.8710
C5 C 0.0885(4) -0.0732(2) 0.7334(3)
H5 H 0.1465 -0.1301 0.7690
H6 H 0.0791 -0.0756 0.6363
C6 C -0.0883(4) -0.0709(2) 0.7736(3)
H7 H -0.1485 -0.1284 0.7431
H8 H -0.0792 -0.0686 0.8707
C7 C 0.4074(5) 0.2500 0.4226(4)
C8 C 0.7741(6) 0.2500 0.9716(4)
Co1_2 Co -0.50796(7) 0.2500 0.73977(5)
N1C N 0.1891(3) 0.49108(18) 0.7825(2)
N2C N 0.2403(4) 0.4774(2) 0.9160(3)
N3C N 0.3340(3) 0.36012(18) 0.7951(2)
N4C N -0.1849(3) 0.48925(18) 0.7161(2)
N5C N -0.2107(4) 0.4724(2) 0.5813(3)
N6C N -0.3412(3) 0.36250(18) 0.6906(2)
N6_2 N 0.6588(3) 0.13750(18) 0.6906(2)
N6C_2 N 0.6588(3) 0.36250(18) 0.6906(2)
C1C C 0.3271(4) 0.3982(2) 0.9184(3)
H1C H 0.3793 0.3705 0.9975
C2C C 0.2452(4) 0.4209(2) 0.7134(3)
H2C H 0.2248 0.4152 0.6204
C3C C -0.3040(5) 0.3956(3) 0.5714(3)
H3C H -0.3414 0.3662 0.4898
C4C C -0.2626(4) 0.4237(2) 0.7786(3)
H4C H -0.2624 0.4209 0.8710
C5C C 0.0885(4) 0.5732(2) 0.7334(3)
H5C H 0.1465 0.6301 0.7690
H6C H 0.0791 0.5756 0.6363
C6C C -0.0883(4) 0.5709(2) 0.7736(3)
H7C H -0.1485 0.6284 0.7431
H8C H -0.0792 0.5686 0.8707
loop_
_geom_bond_atom_site_label_1
_geom_bond_atom_site_label_2
_geom_bond_site_symmetry_1
_geom_bond_site_symmetry_2
Co1 N3 1_555 1_555
S1 C7 1_555 1_555
S2 C8 1_555 1_555
N1 N2 1_555 1_555
N2 C1 1_555 1_555
N3 C1 1_555 1_555
N4 N5 1_555 1_555
N5 C3 1_555 1_555
N6 C3 1_555 1_555
N7 Co1 1_555 1_555
N8 Co1 1_555 1_555
C1 H1 1_555 1_555
C2 N1 1_555 1_555
H2 C2 1_555 1_555
C3 H3 1_555 1_555
C4 N4 1_555 1_555
H4 C4 1_555 1_555
C5 N1 1_555 1_555
H5 C5 1_555 1_555
H6 C5 1_555 1_555
C6 N4 1_555 1_555
H7 C6 1_555 1_555
H8 C6 1_555 1_555
C7 N7 1_555 1_555
C8 N8 1_555 1_555
Co1_2 N6 1_555 1_555
N1C N2C 1_555 1_555
N2C C1C 1_555 1_555
N3C Co1 1_555 1_555
N4C N5C 1_555 1_555
N5C C3C 1_555 1_555
N6C Co1_2 1_555 1_555
N6_2 Co1 1_555 1_555
N6C_2 Co1 1_555 1_555
C1C N3C 1_555 1_555
H1C C1C 1_555 1_555
C2C N1C 1_555 1_555
H2C C2C 1_555 1_555
C3C N6C 1_555 1_555
H3C C3C 1_555 1_555
C4C N4C 1_555 1_555
H4C C4C 1_555 1_555
C5C N1C 1_555 1_555
H5C C5C 1_555 1_555
H6C C5C 1_555 1_555
C6C N4C 1_555 1_555
H7C C6C 1_555 1_555
H8C C6C 1_555 1_555
N3 C2 1_555 1_555
N6 C4 1_555 1_555
C5 C6 1_555 1_555
N3C C2C 1_555 1_555
N6C C4C 1_555 1_555
C5C C6C 1_555 1_555

#END
