
#######################################################################
#
#                 Cambridge Crystallographic Data Centre
#                                CCDC 
#
#######################################################################
#
# If this CIF has been generated from an entry in the Cambridge 
# Structural Database, then it will include bibliographic, chemical, 
# crystal, experimental, refinement or atomic coordinate data resulting 
# from the CCDC's data processing and validation procedures.
#
#######################################################################

data_REKSIK01
_symmetry_cell_setting           triclinic
_symmetry_space_group_name_H-M   'P -1'
_symmetry_Int_Tables_number      2
_space_group_name_Hall           '-P 1'
loop_
_symmetry_equiv_pos_site_id
_symmetry_equiv_pos_as_xyz
1 x,y,z
2 -x,-y,-z
_cell_length_a                   7.7976(2)
_cell_length_b                   8.3407(4)
_cell_length_c                   14.7735(5)
_cell_angle_alpha                86.835(2)
_cell_angle_beta                 76.2031(9)
_cell_angle_gamma                80.583(3)
_cell_volume                     920.402
loop_
_atom_site_label
_atom_site_type_symbol
_atom_site_fract_x
_atom_site_fract_y
_atom_site_fract_z
Co1 Co 0.5000 0.5000 0.5000
S1 S 0.75913(6) 0.06354(6) 0.28911(4)
O1 O 0.62896(14) 0.34454(17) 0.58875(8)
N1 N 0.70985(17) 0.65337(17) 0.47552(10)
N2 N 0.98686(19) 0.7171(2) 0.43624(12)
N3 N 0.87596(18) 0.82735(18) 0.49655(10)
N4 N 0.65086(19) 0.34957(19) 0.39044(10)
C1 C 0.8804(2) 0.6159(2) 0.42589(12)
C2 C 0.7126(2) 0.7875(2) 0.51887(12)
C3 C 0.9423(2) 0.9547(2) 0.53720(12)
C4 C 0.6964(2) 0.2316(2) 0.34826(11)
H1 H 0.9193 0.5259 0.3876
H2 H 0.6146 0.8454 0.5591
H7 H 0.7467 0.3358 0.5831
H8 H 0.5767 0.3468 0.6461
H9 H 0.8414 1.0302 0.5700
H10 H 1.0118 0.9050 0.5807
Co1_2 Co 1.5000 1.5000 0.5000
S1A S 0.24087(6) 0.93646(6) 0.71089(4)
O1A O 0.37104(14) 0.65546(17) 0.41125(8)
N1A N 1.29015(17) 1.34663(17) 0.52448(10)
N1A_2 N 0.29015(17) 0.34663(17) 0.52448(10)
N2A N 1.01314(19) 1.2829(2) 0.56376(12)
N3A N 1.12404(18) 1.17265(18) 0.50345(10)
N4A N 0.34914(19) 0.65043(19) 0.60956(10)
C1A C 1.1196(2) 1.3841(2) 0.57411(12)
C2A C 1.2874(2) 1.2125(2) 0.48113(12)
C3A C 1.0577(2) 1.0453(2) 0.46280(12)
C4A C 0.3036(2) 0.7684(2) 0.65174(11)
H1A H 1.0807 1.4741 0.6124
H2A H 1.3854 1.1546 0.4409
H7A H 0.2533 0.6642 0.4169
H8A H 0.4233 0.6532 0.3539
H9A H 1.1586 0.9698 0.4300
H10A H 0.9882 1.0950 0.4193
Co2 Co 0.0000 0.5000 1.0000
S2 S -0.23478(9) 0.65070(6) 0.73546(4)
N5 N 0.24529(19) 0.39825(19) 0.90774(10)
N6 N 0.4474(2) 0.3252(2) 0.77616(12)
N7 N 0.44837(18) 0.20292(18) 0.84049(10)
N8 N 0.8886(2) 0.30207(19) 0.96410(10)
N9 N 0.7554(2) 0.0835(2) 0.96824(12)
N10 N 0.80063(19) 0.14222(17) 0.87988(10)
N11 N -0.0756(2) 0.6366(2) 0.88652(11)
C5 C 0.3246(2) 0.4394(2) 0.82005(13)
C6 C 0.3278(2) 0.2490(2) 0.91749(12)
C7 C 0.5656(2) 0.0485(2) 0.82103(13)
C8 C 0.8128(2) 0.1836(2) 1.01584(13)
C9 C 0.8781(2) 0.2711(2) 0.87896(12)
C10 C 0.7616(2) 0.0680(2) 0.80156(12)
C11 C -0.1418(2) 0.6446(2) 0.82375(12)
H3 H 0.2948 0.5402 0.7930
H4 H 0.3042 0.1851 0.9713
H5 H 0.8018 0.1732 1.0799
H6 H 0.9196 0.3319 0.8259
H11 H 0.5438 0.0016 0.7670
H12 H 0.5393 -0.0239 0.8745
H13 H 0.7896 0.1365 0.7465
H14 H 0.8347 -0.0381 0.7907
Co2_2 Co 1.0000 0.5000 1.0000
Co2_3 Co -1.0000 0.5000 1.0000
S2A S 0.23478(9) 0.34930(6) 1.26454(4)
N5A N -0.24529(19) 0.60175(19) 1.09226(10)
N6A N -0.4474(2) 0.6748(2) 1.22384(12)
N7A N -0.44837(18) 0.79708(18) 1.15951(10)
N8A N -0.8886(2) 0.69793(19) 1.03590(10)
N8_2 N -0.1114(2) 0.30207(19) 0.96410(10)
N8A_2 N 0.1114(2) 0.69793(19) 1.03590(10)
N9A N -0.7554(2) 0.9165(2) 1.03176(12)
N10A N -0.80063(19) 0.85778(17) 1.12012(10)
N11A N 0.0756(2) 0.3634(2) 1.11348(11)
C5A C -0.3246(2) 0.5606(2) 1.17995(13)
C6A C -0.3278(2) 0.7510(2) 1.08251(12)
C7A C -0.5656(2) 0.9515(2) 1.17897(13)
C8A C -0.8128(2) 0.8164(2) 0.98416(13)
C9A C -0.8781(2) 0.7289(2) 1.12104(12)
C10A C -0.7616(2) 0.9320(2) 1.19844(12)
C11A C 0.1418(2) 0.3554(2) 1.17625(12)
H3A H -0.2948 0.4598 1.2070
H4A H -0.3042 0.8149 1.0287
H5A H -0.8018 0.8268 0.9201
H6A H -0.9196 0.6681 1.1741
H11A H -0.5438 0.9984 1.2330
H12A H -0.5393 1.0239 1.1255
H13A H -0.7896 0.8635 1.2535
H14A H -0.8347 1.0381 1.2093
loop_
_geom_bond_atom_site_label_1
_geom_bond_atom_site_label_2
_geom_bond_site_symmetry_1
_geom_bond_site_symmetry_2
Co1 O1 1_555 1_555
Co2 N5 1_555 1_555
S1 C4 1_555 1_555
S2 C11 1_555 1_555
O1 H7 1_555 1_555
N1 Co1 1_555 1_555
N2 N3 1_555 1_555
N3 C2 1_555 1_555
N4 Co1 1_555 1_555
N5 C5 1_555 1_555
N6 N7 1_555 1_555
N7 C6 1_555 1_555
N8 C8 1_555 1_555
N9 N10 1_555 1_555
N10 C9 1_555 1_555
N11 Co2 1_555 1_555
C1 N1 1_555 1_555
C2 N1 1_555 1_555
C3 N3 1_555 1_555
C4 N4 1_555 1_555
C5 N6 1_555 1_555
C6 N5 1_555 1_555
C7 N7 1_555 1_555
C8 N9 1_555 1_555
C9 N8 1_555 1_555
C10 N10 1_555 1_555
C11 N11 1_555 1_555
H1 C1 1_555 1_555
H2 C2 1_555 1_555
H3 C5 1_555 1_555
H4 C6 1_555 1_555
H5 C8 1_555 1_555
H6 C9 1_555 1_555
H8 O1 1_555 1_555
H9 C3 1_555 1_555
H10 C3 1_555 1_555
H11 C7 1_555 1_555
H12 C7 1_555 1_555
H13 C10 1_555 1_555
H14 C10 1_555 1_555
Co1_2 N1A 1_555 1_555
Co2_2 N8 1_555 1_555
Co2_3 N8A 1_555 1_555
S1A C4A 1_555 1_555
S2A C11A 1_555 1_555
O1A Co1 1_555 1_555
N1A C1A 1_555 1_555
N1A_2 Co1 1_555 1_555
N2A N3A 1_555 1_555
N3A C2A 1_555 1_555
N4A Co1 1_555 1_555
N5A Co2 1_555 1_555
N6A N7A 1_555 1_555
N7A C6A 1_555 1_555
N8A C8A 1_555 1_555
N8_2 Co2 1_555 1_555
N8A_2 Co2 1_555 1_555
N9A N10A 1_555 1_555
N10A C9A 1_555 1_555
N11A Co2 1_555 1_555
C1A N2A 1_555 1_555
C2A N1A 1_555 1_555
C3A C3 1_555 1_555
C4A N4A 1_555 1_555
C5A N5A 1_555 1_555
C6A N5A 1_555 1_555
C7A N7A 1_555 1_555
C8A N9A 1_555 1_555
C9A N8A 1_555 1_555
C10A N10A 1_555 1_555
C11A N11A 1_555 1_555
H1A C1A 1_555 1_555
H2A C2A 1_555 1_555
H3A C5A 1_555 1_555
H4A C6A 1_555 1_555
H5A C8A 1_555 1_555
H6A C9A 1_555 1_555
H7A O1A 1_555 1_555
H8A O1A 1_555 1_555
H9A C3A 1_555 1_555
H10A C3A 1_555 1_555
H11A C7A 1_555 1_555
H12A C7A 1_555 1_555
H13A C10A 1_555 1_555
H14A C10A 1_555 1_555
N2 C1 1_555 1_555
C7 C10 1_555 1_555
N3A C3A 1_555 1_555
N6A C5A 1_555 1_555
C7A C10A 1_555 1_555

#END
