
#######################################################################
#
#                 Cambridge Crystallographic Data Centre
#                                CCDC 
#
#######################################################################
#
# If this CIF has been generated from an entry in the Cambridge 
# Structural Database, then it will include bibliographic, chemical, 
# crystal, experimental, refinement or atomic coordinate data resulting 
# from the CCDC's data processing and validation procedures.
#
#######################################################################

data_REKSEH
_symmetry_cell_setting           triclinic
_symmetry_space_group_name_H-M   'P -1'
_symmetry_Int_Tables_number      2
_space_group_name_Hall           '-P 1'
loop_
_symmetry_equiv_pos_site_id
_symmetry_equiv_pos_as_xyz
1 x,y,z
2 -x,-y,-z
_cell_length_a                   12.9575(14)
_cell_length_b                   13.9892(15)
_cell_length_c                   15.8969(18)
_cell_angle_alpha                68.979(2)
_cell_angle_beta                 75.721(2)
_cell_angle_gamma                73.526(2)
_cell_volume                     2545.33
loop_
_atom_site_label
_atom_site_type_symbol
_atom_site_fract_x
_atom_site_fract_y
_atom_site_fract_z
U1 U 0.56309(3) 0.15774(3) 0.36725(2)
U2 U 0.82292(3) 0.43032(3) 0.12812(2)
Zn1 Zn 0.75898(8) 0.08505(8) 0.52817(7)
Zn2 Zn 1.00808(8) 0.19068(8) 0.08083(7)
As1 As 0.49766(7) -0.09968(7) 0.39320(6)
As2 As 0.72813(8) 0.32188(7) 0.38214(6)
As3 As 0.73906(7) 0.20023(7) 0.13776(6)
As4 As 0.96901(8) 0.40498(7) -0.09218(6)
O2 O 0.6675(5) 0.0681(4) 0.4334(4)
O3 O 0.4606(5) 0.2501(4) 0.3027(4)
O4 O 0.9398(5) 0.3204(4) 0.1362(4)
O5 O 0.7055(5) 0.5350(5) 0.1187(5)
O6 O 0.4926(5) 0.0293(4) 0.3647(4)
O7 O 0.5416(5) -0.1620(4) 0.4954(4)
O8 O 0.3780(5) -0.1217(4) 0.3913(4)
O9 O 0.8052(5) 0.2102(4) 0.4379(4)
O10 O 0.6174(5) 0.2993(4) 0.3621(4)
O11 O 0.8002(5) 0.3812(5) 0.2809(4)
O12 O 0.6866(5) 0.1388(5) 0.2456(4)
O13 O 0.7183(5) 0.3289(5) 0.1257(4)
O14 O 0.8692(5) 0.1418(5) 0.1179(4)
O15 O 0.8656(5) 0.4624(4) -0.0268(4)
O16 O 1.0063(5) 0.2756(4) -0.0466(4)
O17 O 1.0779(5) 0.4584(5) -0.1184(4)
N1 N 0.8921(6) 0.0637(5) 0.5933(5)
N2 N 0.8134(6) -0.0784(5) 0.5676(5)
N3 N 1.1545(6) 0.1911(5) 0.1165(5)
N4 N 1.0906(6) 0.0308(5) 0.1132(5)
C1 C 0.6009(8) -0.1534(7) 0.3044(6)
C2 C 0.7038(8) -0.1302(8) 0.2772(7)
H1 H 0.7227 -0.0883 0.3025
C3 C 0.7774(9) -0.1692(9) 0.2129(8)
H2 H 0.8450 -0.1510 0.1939
C4 C 0.7551(11) -0.2346(9) 0.1750(8)
H3 H 0.8063 -0.2612 0.1321
C5 C 0.6541(10) -0.2583(8) 0.2038(7)
H4 H 0.6378 -0.3036 0.1806
C6 C 0.5748(8) -0.2176(7) 0.2661(7)
H5 H 0.5058 -0.2327 0.2819
C7 C 0.6831(8) 0.4183(7) 0.4509(6)
C8 C 0.6242(8) 0.3883(8) 0.5394(7)
H6 H 0.6105 0.3212 0.5654
C9 C 0.5871(8) 0.4595(9) 0.5873(7)
H7 H 0.5459 0.4407 0.6452
C10 C 0.6097(9) 0.5575(8) 0.5512(8)
H8 H 0.5845 0.6040 0.5851
C11 C 0.6708(9) 0.5887(8) 0.4632(8)
H9 H 0.6871 0.6549 0.4390
C12 C 0.7066(8) 0.5175(7) 0.4126(7)
H10 H 0.7458 0.5367 0.3538
C13 C 0.6577(8) 0.1890(8) 0.0598(7)
C14 C 0.6549(9) 0.0895(8) 0.0606(8)
H11 H 0.6971 0.0306 0.0965
C15 C 0.5918(10) 0.0766(9) 0.0099(9)
H12 H 0.5917 0.0099 0.0106
C16 C 0.5282(10) 0.1642(10) -0.0426(8)
H13 H 0.4831 0.1568 -0.0763
C17 C 0.5321(10) 0.2625(10) -0.0448(9)
H14 H 0.4910 0.3211 -0.0820
C18 C 0.5944(9) 0.2763(9) 0.0059(8)
H15 H 0.5944 0.3434 0.0043
C19 C 0.9215(7) 0.4281(6) -0.2034(6)
C20 C 0.8116(8) 0.4549(7) -0.2074(7)
H16 H 0.7608 0.4671 -0.1576
C21 C 0.7779(9) 0.4635(8) -0.2855(8)
H17 H 0.7038 0.4799 -0.2885
C22 C 0.8550(10) 0.4476(7) -0.3603(8)
H18 H 0.8324 0.4542 -0.4137
C23 C 0.9642(9) 0.4222(7) -0.3555(7)
H19 H 1.0149 0.4121 -0.4060
C24 C 1.0004(8) 0.4112(7) -0.2767(6)
H20 H 1.0743 0.3933 -0.2730
C25 C 0.9310(8) 0.1380(7) 0.5991(6)
H21 H 0.8969 0.2074 0.5735
C26 C 1.0201(8) 0.1187(8) 0.6412(7)
H22 H 1.0435 0.1737 0.6452
C27 C 1.0730(8) 0.0165(8) 0.6768(7)
H23 H 1.1331 0.0007 0.7052
C28 C 1.0345(7) -0.0625(7) 0.6692(6)
H24 H 1.0694 -0.1323 0.6921
C29 C 0.9445(7) -0.0375(7) 0.6279(6)
C30 C 0.8985(7) -0.1156(6) 0.6169(6)
C31 C 0.9382(8) -0.2243(7) 0.6510(7)
H25 H 0.9972 -0.2505 0.6824
C32 C 0.8882(8) -0.2924(7) 0.6374(7)
H26 H 0.9124 -0.3645 0.6613
C33 C 0.8031(8) -0.2527(7) 0.5886(7)
H27 H 0.7704 -0.2976 0.5778
C34 C 0.7670(7) -0.1456(7) 0.5559(7)
H28 H 0.7081 -0.1191 0.5245
C35 C 1.1874(8) 0.2767(7) 0.1094(7)
H29 H 1.1456 0.3421 0.0825
C36 C 1.2797(8) 0.2731(8) 0.1398(8)
H30 H 1.3006 0.3342 0.1329
C37 C 1.3409(10) 0.1746(9) 0.1812(9)
H31 H 1.4019 0.1686 0.2052
C38 C 1.3096(8) 0.0872(7) 0.1860(7)
H32 H 1.3510 0.0211 0.2117
C39 C 1.2174(7) 0.0958(7) 0.1531(6)
C40 C 1.1804(8) 0.0050(7) 0.1526(6)
C41 C 1.2334(8) -0.1000(7) 0.1871(8)
H33 H 1.2932 -0.1177 0.2164
C42 C 1.1951(10) -0.1753(8) 0.1764(9)
H34 H 1.2305 -0.2452 0.1974
C43 C 1.1054(9) -0.1504(8) 0.1353(8)
H35 H 1.0805 -0.2019 0.1267
C44 C 1.0538(8) -0.0472(7) 0.1075(7)
H36 H 0.9901 -0.0299 0.0833
U1A U 0.43691(3) -0.15774(3) 0.63275(2)
U2A U 1.17708(3) 0.56968(3) -0.12812(2)
Zn1A Zn 0.24102(8) -0.08505(8) 0.47183(7)
O7A O 0.4584(5) 0.1620(4) 0.5046(4)
O8A O 0.6220(5) 0.1217(4) 0.6087(4)
O17A O 0.9221(5) 0.5416(5) 0.1184(4)
O1 O 0.4739(8) 0.4622(7) 0.1714(8)
loop_
_geom_bond_atom_site_label_1
_geom_bond_atom_site_label_2
_geom_bond_site_symmetry_1
_geom_bond_site_symmetry_2
U1 O2 1_555 1_555
U2 O4 1_555 1_555
Zn1 O2 1_555 1_555
Zn2 O4 1_555 1_555
As1 O6 1_555 1_555
As2 O9 1_555 1_555
As3 O12 1_555 1_555
As4 O15 1_555 1_555
O3 U1 1_555 1_555
O5 U2 1_555 1_555
O6 U1 1_555 1_555
O7 As1 1_555 1_555
O8 As1 1_555 1_555
O9 Zn1 1_555 1_555
O10 U1 1_555 1_555
O11 U2 1_555 1_555
O12 U1 1_555 1_555
O13 U2 1_555 1_555
O14 Zn2 1_555 1_555
O15 U2 1_555 1_555
O16 Zn2 1_555 1_555
O17 As4 1_555 1_555
N1 Zn1 1_555 1_555
N2 Zn1 1_555 1_555
N3 Zn2 1_555 1_555
N4 Zn2 1_555 1_555
C1 As1 1_555 1_555
C2 C1 1_555 1_555
H1 C2 1_555 1_555
C3 C2 1_555 1_555
H2 C3 1_555 1_555
C4 C3 1_555 1_555
H3 C4 1_555 1_555
C5 C4 1_555 1_555
H4 C5 1_555 1_555
C6 C1 1_555 1_555
H5 C6 1_555 1_555
C7 As2 1_555 1_555
C8 C7 1_555 1_555
H6 C8 1_555 1_555
C9 C8 1_555 1_555
H7 C9 1_555 1_555
C10 C9 1_555 1_555
H8 C10 1_555 1_555
C11 C10 1_555 1_555
H9 C11 1_555 1_555
C12 C7 1_555 1_555
H10 C12 1_555 1_555
C13 As3 1_555 1_555
C14 C13 1_555 1_555
H11 C14 1_555 1_555
C15 C14 1_555 1_555
H12 C15 1_555 1_555
C16 C15 1_555 1_555
H13 C16 1_555 1_555
C17 C16 1_555 1_555
H14 C17 1_555 1_555
C18 C13 1_555 1_555
H15 C18 1_555 1_555
C19 As4 1_555 1_555
C20 C19 1_555 1_555
H16 C20 1_555 1_555
C21 C20 1_555 1_555
H17 C21 1_555 1_555
C22 C21 1_555 1_555
H18 C22 1_555 1_555
C23 C22 1_555 1_555
H19 C23 1_555 1_555
C24 C19 1_555 1_555
H20 C24 1_555 1_555
C25 N1 1_555 1_555
H21 C25 1_555 1_555
C26 C25 1_555 1_555
H22 C26 1_555 1_555
C27 C26 1_555 1_555
H23 C27 1_555 1_555
C28 C27 1_555 1_555
H24 C28 1_555 1_555
C29 N1 1_555 1_555
C30 N2 1_555 1_555
C31 C30 1_555 1_555
H25 C31 1_555 1_555
C32 C31 1_555 1_555
H26 C32 1_555 1_555
C33 C32 1_555 1_555
H27 C33 1_555 1_555
C34 N2 1_555 1_555
H28 C34 1_555 1_555
C35 N3 1_555 1_555
H29 C35 1_555 1_555
C36 C35 1_555 1_555
H30 C36 1_555 1_555
C37 C36 1_555 1_555
H31 C37 1_555 1_555
C38 C37 1_555 1_555
H32 C38 1_555 1_555
C39 N3 1_555 1_555
C40 N4 1_555 1_555
C41 C40 1_555 1_555
H33 C41 1_555 1_555
C42 C41 1_555 1_555
H34 C42 1_555 1_555
C43 C42 1_555 1_555
H35 C43 1_555 1_555
C44 N4 1_555 1_555
H36 C44 1_555 1_555
U1A O7 1_555 1_555
U2A O17 1_555 1_555
Zn1A O8 1_555 1_555
O7A U1 1_555 1_555
O8A Zn1 1_555 1_555
O17A U2 1_555 1_555
As2 O10 1_555 1_555
As2 O11 1_555 1_555
As3 O13 1_555 1_555
As3 O14 1_555 1_555
As4 O16 1_555 1_555
C5 C6 1_555 1_555
C11 C12 1_555 1_555
C17 C18 1_555 1_555
C23 C24 1_555 1_555
C28 C29 1_555 1_555
C29 C30 1_555 1_555
C33 C34 1_555 1_555
C38 C39 1_555 1_555
C39 C40 1_555 1_555
C43 C44 1_555 1_555

#END
