
#######################################################################
#
#                 Cambridge Crystallographic Data Centre
#                                CCDC 
#
#######################################################################
#
# If this CIF has been generated from an entry in the Cambridge 
# Structural Database, then it will include bibliographic, chemical, 
# crystal, experimental, refinement or atomic coordinate data resulting 
# from the CCDC's data processing and validation procedures.
#
#######################################################################

data_REKWIP
_symmetry_cell_setting           monoclinic
_symmetry_space_group_name_H-M   'P 21/n'
_symmetry_Int_Tables_number      14
_space_group_name_Hall           '-P 2yn'
loop_
_symmetry_equiv_pos_site_id
_symmetry_equiv_pos_as_xyz
1 x,y,z
2 1/2-x,1/2+y,1/2-z
3 -x,-y,-z
4 1/2+x,1/2-y,1/2+z
_cell_length_a                   10.0358(5)
_cell_length_b                   22.4619(10)
_cell_length_c                   11.2067(7)
_cell_angle_alpha                90
_cell_angle_beta                 111.178(6)
_cell_angle_gamma                90
_cell_volume                     2355.63
loop_
_atom_site_label
_atom_site_type_symbol
_atom_site_fract_x
_atom_site_fract_y
_atom_site_fract_z
Mn1 Mn 0.71786(6) 0.18748(3) 0.55142(6)
Mn2 Mn 1.06927(6) 0.19316(3) 0.61610(6)
Mn3 Mn 0.15060(6) 0.24900(2) 0.33794(5)
O1 O 0.9180(3) 0.17819(13) 0.7096(3)
O2 O 0.1566(3) 0.12971(13) 0.5293(3)
O3 O 0.2781(3) 0.16796(13) 0.4156(3)
O4 O 0.6333(3) 0.12711(12) 0.6479(3)
O5 O 1.1426(3) 0.23348(14) 1.1474(3)
O6 O 0.8712(3) 0.17547(13) 0.4561(3)
O7 O 0.6531(3) 0.23223(13) 0.0265(3)
O8 O 0.8490(3) 0.19931(13) 0.8742(3)
O9 O 1.2044(3) 0.21999(13) 0.9834(3)
O10 O 0.5767(3) 0.21135(14) 0.1798(3)
O11 O 0.9513(3) 0.19739(13) 0.2992(3)
C1 C 0.7845(4) 0.11725(19) 0.2640(4)
H1 H 0.7095 0.1070 0.2998
C2 C 0.8746(4) 0.16812(17) 0.3432(4)
C3 C 1.1491(4) 0.19964(18) 1.0596(4)
C4 C 1.0201(4) 0.12181(18) 0.9021(4)
H2 H 1.0984 0.1168 0.8676
C5 C 0.4375(4) 0.07488(18) 0.6674(4)
H3 H 0.3696 0.0804 0.7135
C6 C 0.6424(4) 0.19532(18) 0.1090(4)
C7 C 0.3501(4) 0.07285(18) 0.5213(4)
H4 H 0.4178 0.0738 0.4742
C8 C 0.7092(4) 0.13461(18) 0.1217(4)
H5 H 0.7827 0.1357 0.0807
C9 C 1.0896(4) 0.13783(18) 1.0452(4)
H6 H 1.0143 0.1364 1.0841
C10 C 0.5378(4) 0.12864(18) 0.6955(4)
C11 C 0.5247(5) 0.01894(19) 0.7182(4)
H7 H 0.5882 0.0117 0.6706
H8 H 0.4603 -0.0151 0.7074
H9 H 0.5820 0.0241 0.8092
C12 C 0.8812(5) 0.0638(2) 0.2800(5)
H10 H 0.9514 0.0719 0.2399
H11 H 0.8238 0.0290 0.2391
H12 H 0.9310 0.0557 0.3713
C13 C 0.2572(4) 0.01699(19) 0.4816(4)
H13 H 0.1910 0.0155 0.5279
H14 H 0.3183 -0.0184 0.5022
H15 H 0.2027 0.0182 0.3894
C14 C 0.2544(4) 0.12794(18) 0.4849(4)
C15 C 0.5954(5) 0.0894(2) 0.0504(4)
H16 H 0.5254 0.0859 0.0924
H17 H 0.6404 0.0506 0.0511
H18 H 0.5471 0.1025 -0.0382
C16 C 0.9354(5) 0.0643(2) 0.8784(5)
H19 H 0.8888 0.0579 0.7861
H20 H 1.0000 0.0310 0.9162
H21 H 0.8627 0.0668 0.9176
C17 C 1.2089(5) 0.0939(2) 1.1175(5)
H22 H 1.2492 0.1051 1.2081
H23 H 1.1694 0.0536 1.1096
H24 H 1.2841 0.0951 1.0810
O12 O 0.5196(3) 0.17102(13) 0.7630(3)
C18 C 0.9223(4) 0.17097(18) 0.8261(4)
O13 O 0.5369(3) 0.16447(15) 0.3851(3)
H25 H 0.526(5) 0.180(2) 0.309(3)
H26 H 0.451(3) 0.165(2) 0.386(4)
O14 O 1.2560(3) 0.17712(15) 0.7828(3)
H27 H 1.245(5) 0.194(2) 0.843(4)
H28 H 1.336(3) 0.178(2) 0.777(5)
Mn1C Mn 1.21786(6) 0.31252(3) 1.05142(6)
Mn2_2 Mn 0.06927(6) 0.19316(3) 0.61610(6)
Mn2C Mn 0.56927(6) 0.30684(3) 0.11610(6)
Mn3_2 Mn 1.15060(6) 0.24900(2) 1.33794(5)
Mn3C Mn 0.65060(6) 0.25100(2) -0.16206(5)
Mn3C_2 Mn 0.65060(6) 0.25100(2) 0.83794(5)
Mn3_3 Mn 1.15060(6) 0.24900(2) 0.33794(5)
O2_2 O 1.1566(3) 0.12971(13) 0.5293(3)
O5C O 0.6426(3) 0.26652(14) 0.6474(3)
O5_2 O 0.1426(3) 0.23348(14) 0.1474(3)
O7C O 1.1531(3) 0.26777(13) 0.5265(3)
O7C_2 O 0.1531(3) 0.26777(13) 0.5265(3)
O8C O 0.3490(3) 0.30069(13) 0.3742(3)
O9C O 0.7044(3) 0.28001(13) 0.4834(3)
O10C O 1.0767(3) 0.28865(14) 0.6798(3)
O11_2 O -0.0487(3) 0.19739(13) 0.2992(3)
O12C O 0.0196(3) 0.32898(13) 0.2630(3)
loop_
_geom_bond_atom_site_label_1
_geom_bond_atom_site_label_2
_geom_bond_site_symmetry_1
_geom_bond_site_symmetry_2
Mn1 O1 1_555 1_555
Mn2 O1 1_555 1_555
Mn3 O3 1_555 1_555
O1 C18 1_555 1_555
O2 C14 1_555 1_555
O3 C14 1_555 1_555
O4 Mn1 1_555 1_555
O5 C3 1_555 1_555
O6 Mn1 1_555 1_555
O7 C6 1_555 1_555
O8 C18 1_555 1_555
O9 C3 1_555 1_555
O10 C6 1_555 1_555
O11 C2 1_555 1_555
C1 H1 1_555 1_555
C2 O6 1_555 1_555
C3 C9 1_555 1_555
C4 H2 1_555 1_555
C5 H3 1_555 1_555
C6 C8 1_555 1_555
C7 C5 1_555 1_555
H4 C7 1_555 1_555
C8 C1 1_555 1_555
H5 C8 1_555 1_555
C9 C4 1_555 1_555
H6 C9 1_555 1_555
C10 O4 1_555 1_555
C11 C5 1_555 1_555
H7 C11 1_555 1_555
H8 C11 1_555 1_555
H9 C11 1_555 1_555
C12 C1 1_555 1_555
H10 C12 1_555 1_555
H11 C12 1_555 1_555
H12 C12 1_555 1_555
C13 C7 1_555 1_555
H13 C13 1_555 1_555
H14 C13 1_555 1_555
H15 C13 1_555 1_555
C14 C7 1_555 1_555
C15 C8 1_555 1_555
H16 C15 1_555 1_555
H17 C15 1_555 1_555
H18 C15 1_555 1_555
C16 C4 1_555 1_555
H19 C16 1_555 1_555
H20 C16 1_555 1_555
H21 C16 1_555 1_555
C17 C9 1_555 1_555
H22 C17 1_555 1_555
H23 C17 1_555 1_555
H24 C17 1_555 1_555
O12 C10 1_555 1_555
C18 C4 1_555 1_555
O13 Mn1 1_555 1_555
H25 O13 1_555 1_555
H26 O13 1_555 1_555
O14 Mn2 1_555 1_555
H27 O14 1_555 1_555
H28 O14 1_555 1_555
Mn1C O5 1_555 1_555
Mn2_2 O2 1_555 1_555
Mn2C O7 1_555 1_555
Mn3_2 O5 1_555 1_555
Mn3C O7 1_555 1_555
Mn3C_2 O8 1_555 1_555
Mn3_3 O11 1_555 1_555
O2_2 Mn2 1_555 1_555
O5C Mn1 1_555 1_555
O5_2 Mn3 1_555 1_555
O7C Mn2 1_555 1_555
O7C_2 Mn3 1_555 1_555
O8C Mn3 1_555 1_555
O9C Mn1 1_555 1_555
O10C Mn2 1_555 1_555
O11_2 Mn3 1_555 1_555
O12C Mn3 1_555 1_555
Mn2 O6 1_555 1_555
O9 Mn1C 1_555 1_555
O10 Mn2C 1_555 1_555
C1 C2 1_555 1_555
C5 C10 1_555 1_555
O12 Mn3C_2 1_555 1_555
Mn2_2 O7C_2 1_555 1_555
Mn3C_2 O5C 1_555 1_555
Mn3_3 O7C 1_555 1_555

#END
