
#######################################################################
#
#                 Cambridge Crystallographic Data Centre
#                                CCDC 
#
#######################################################################
#
# If this CIF has been generated from an entry in the Cambridge 
# Structural Database, then it will include bibliographic, chemical, 
# crystal, experimental, refinement or atomic coordinate data resulting 
# from the CCDC's data processing and validation procedures.
#
#######################################################################

data_REKWUB
_symmetry_cell_setting           monoclinic
_symmetry_space_group_name_H-M   'C 2/c'
_symmetry_Int_Tables_number      15
_space_group_name_Hall           '-C 2yn'
loop_
_symmetry_equiv_pos_site_id
_symmetry_equiv_pos_as_xyz
1 x,y,z
2 -x,y,1/2-z
3 1/2+x,1/2+y,z
4 1/2-x,1/2+y,1/2-z
5 -x,-y,-z
6 x,-y,1/2+z
7 1/2-x,1/2-y,-z
8 1/2+x,1/2-y,1/2+z
_cell_length_a                   13.4747(14)
_cell_length_b                   11.7071(13)
_cell_length_c                   4.8928(4)
_cell_angle_alpha                90
_cell_angle_beta                 108.007(10)
_cell_angle_gamma                90
_cell_volume                     734.032
loop_
_atom_site_label
_atom_site_type_symbol
_atom_site_fract_x
_atom_site_fract_y
_atom_site_fract_z
Mn1 Mn 0.0000 0.07798(5) 0.2500
O1 O 0.09798(16) 0.07036(18) -0.0347(4)
C1 C 0.1287(2) 0.1558(3) -0.1508(6)
O2 O 0.10023(17) 0.17680(18) -0.4161(4)
C2 C 0.2013(3) 0.2423(3) 0.0485(7)
H1 H 0.2230 0.2116 0.2445
C3 C 0.1457(3) 0.3580(3) 0.0478(8)
H2 H 0.1262 0.3902 -0.1419
H3 H 0.1921 0.4093 0.1803
H4 H 0.0844 0.3463 0.1046
Mn1D Mn 0.0000 -0.07798(5) -0.2500
Mn1_2 Mn 0.0000 0.07798(5) -0.7500
Mn1F Mn 0.5000 0.42202(5) -0.2500
Mn1B Mn 0.5000 0.57798(5) 0.2500
Mn1F_2 Mn 0.5000 0.42202(5) 0.7500
O1F O 0.40202(16) 0.42964(18) 0.0347(4)
O1A O -0.09798(16) 0.07036(18) 0.5347(4)
O1D O -0.09798(16) -0.07036(18) 0.0347(4)
O1E O 0.09798(16) -0.07036(18) 0.4653(4)
C1F C 0.3713(2) 0.3442(3) 0.1508(6)
O2F O 0.39977(17) 0.32320(18) 0.4161(4)
O2_2 O 0.10023(17) 0.17680(18) 0.5839(4)
O2A O -0.10023(17) 0.17680(18) -0.0839(4)
C2F C 0.2987(3) 0.2577(3) -0.0485(7)
H1F H 0.2770 0.2884 -0.2445
C3F C 0.3543(3) 0.1420(3) -0.0478(8)
H2F H 0.3738 0.1098 0.1419
H3F H 0.3079 0.0907 -0.1803
H4F H 0.4156 0.1537 -0.1046
loop_
_geom_bond_atom_site_label_1
_geom_bond_atom_site_label_2
_geom_bond_site_symmetry_1
_geom_bond_site_symmetry_2
Mn1 O1 1_555 1_555
O1 C1 1_555 1_555
C1 O2 1_555 1_555
O2 Mn1_2 1_555 1_555
C2 C1 1_555 1_555
H1 C2 1_555 1_555
C3 C2 1_555 1_555
H2 C3 1_555 1_555
H3 C3 1_555 1_555
H4 C3 1_555 1_555
Mn1D O1 1_555 1_555
Mn1F O1F 1_555 1_555
Mn1B O1F 1_555 1_555
Mn1F_2 O2F 1_555 1_555
O1F C1F 1_555 1_555
O1A Mn1 1_555 1_555
O1D Mn1 1_555 1_555
O1E Mn1 1_555 1_555
C1F O2F 1_555 1_555
O2_2 Mn1 1_555 1_555
O2A Mn1 1_555 1_555
C2F C2 1_555 1_555
H1F C2F 1_555 1_555
C3F C2F 1_555 1_555
H2F C3F 1_555 1_555
H3F C3F 1_555 1_555
H4F C3F 1_555 1_555
Mn1D O1D 1_555 1_555
C1F C2F 1_555 1_555

#END
