
#######################################################################
#
#                 Cambridge Crystallographic Data Centre
#                                CCDC 
#
#######################################################################
#
# If this CIF has been generated from an entry in the Cambridge 
# Structural Database, then it will include bibliographic, chemical, 
# crystal, experimental, refinement or atomic coordinate data resulting 
# from the CCDC's data processing and validation procedures.
#
#######################################################################

data_REKXOW01
_symmetry_cell_setting           triclinic
_symmetry_space_group_name_H-M   'P -1'
_symmetry_Int_Tables_number      2
_space_group_name_Hall           '-P 1'
loop_
_symmetry_equiv_pos_site_id
_symmetry_equiv_pos_as_xyz
1 x,y,z
2 -x,-y,-z
_cell_length_a                   4.8404(8)
_cell_length_b                   6.6927(13)
_cell_length_c                   11.6506(16)
_cell_angle_alpha                105.704(15)
_cell_angle_beta                 93.165(12)
_cell_angle_gamma                95.322(15)
_cell_volume                     360.498
loop_
_atom_site_label
_atom_site_type_symbol
_atom_site_fract_x
_atom_site_fract_y
_atom_site_fract_z
Zn1 Zn 0.25890(10) 0.27818(8) 0.41008(4)
O1 O -0.1485(6) 0.2104(4) 0.3768(3)
C1 C -0.1877(8) -0.1372(6) 0.2371(3)
H1 H -0.0124 -0.1582 0.2761
C2 C -0.3871(8) -0.3365(6) 0.2136(4)
H2 H -0.5617 -0.3164 0.1736
C3 C -0.2710(9) -0.5272(7) 0.1344(4)
H3 H -0.2466 -0.5071 0.0569
H4 H -0.3989 -0.6498 0.1261
H5 H -0.0948 -0.5442 0.1705
C4 C -0.3033(8) 0.0496(6) 0.3186(3)
C5 C -0.1241(10) -0.0791(7) 0.1211(4)
H6 H -0.0353 -0.1881 0.0702
H7 H -0.0027 0.0493 0.1406
H8 H -0.2946 -0.0623 0.0805
O2 O -0.5657(6) 0.0375(4) 0.3215(3)
C6 C -0.4506(8) -0.3865(6) 0.3299(4)
O3 O -0.2843(6) -0.3013(5) 0.4211(3)
O4 O -0.6623(6) -0.5128(5) 0.3267(3)
Zn1_2 Zn -0.74110(10) 0.27818(8) 0.41008(4)
Zn1A Zn -0.25890(10) -0.27818(8) 0.58992(4)
Zn1_3 Zn -0.74110(10) -0.72182(8) 0.41008(4)
O2_2 O 0.4343(6) 0.0375(4) 0.3215(3)
O3A O 0.2843(6) 0.3013(5) 0.5789(3)
O4_2 O 0.3377(6) 0.4872(5) 0.3267(3)
loop_
_geom_bond_atom_site_label_1
_geom_bond_atom_site_label_2
_geom_bond_site_symmetry_1
_geom_bond_site_symmetry_2
Zn1 O1 1_555 1_555
O1 C4 1_555 1_555
C1 H1 1_555 1_555
C2 C1 1_555 1_555
H2 C2 1_555 1_555
C3 C2 1_555 1_555
H3 C3 1_555 1_555
H4 C3 1_555 1_555
H5 C3 1_555 1_555
C4 C1 1_555 1_555
C5 C1 1_555 1_555
H6 C5 1_555 1_555
H7 C5 1_555 1_555
H8 C5 1_555 1_555
O2 C4 1_555 1_555
C6 C2 1_555 1_555
O3 C6 1_555 1_555
O4 C6 1_555 1_555
Zn1_2 O2 1_555 1_555
Zn1A O3 1_555 1_555
Zn1_3 O4 1_555 1_555
O2_2 Zn1 1_555 1_555
O3A Zn1 1_555 1_555
O4_2 Zn1 1_555 1_555

#END
