
#######################################################################
#
#                 Cambridge Crystallographic Data Centre
#                                CCDC 
#
#######################################################################
#
# If this CIF has been generated from an entry in the Cambridge 
# Structural Database, then it will include bibliographic, chemical, 
# crystal, experimental, refinement or atomic coordinate data resulting 
# from the CCDC's data processing and validation procedures.
#
#######################################################################

data_REKXAI
_symmetry_cell_setting           monoclinic
_symmetry_space_group_name_H-M   'P 21/c'
_symmetry_Int_Tables_number      14
_space_group_name_Hall           '-P 2ybc'
loop_
_symmetry_equiv_pos_site_id
_symmetry_equiv_pos_as_xyz
1 x,y,z
2 -x,1/2+y,1/2-z
3 -x,-y,-z
4 x,1/2-y,1/2+z
_cell_length_a                   9.8843(11)
_cell_length_b                   11.4178(14)
_cell_length_c                   15.884(2)
_cell_angle_alpha                90
_cell_angle_beta                 90.785(10)
_cell_angle_gamma                90
_cell_volume                     1792.45
loop_
_atom_site_label
_atom_site_type_symbol
_atom_site_fract_x
_atom_site_fract_y
_atom_site_fract_z
Mn1 Mn -0.01317(12) 0.16169(14) 0.22305(9)
Mn2 Mn 0.16756(12) -0.08608(14) 0.33364(9)
O1 O 0.0138(8) 0.0068(8) 0.1541(5)
O2 O 0.2881(6) 0.0301(8) 0.2652(6)
O3 O 0.1957(6) 0.2033(7) 0.2317(5)
C1 C 0.5348(12) 0.1155(15) 0.1979(10)
H1 H 0.5439 0.0418 0.2291
O4 O 0.2504(7) -0.0250(8) 0.4543(5)
H2 H 0.3255 0.0134 0.4469
H3 H 0.1933 0.0213 0.4791
C2 C 0.4351(12) 0.2004(16) 0.2460(10)
H4 H 0.4273 0.2752 0.2161
C3 C 0.2973(10) 0.1354(13) 0.2440(10)
C4 C 0.4776(12) 0.0910(15) 0.1117(11)
H5 H 0.3939 0.0491 0.1166
H6 H 0.5407 0.0447 0.0806
H7 H 0.4617 0.1636 0.0828
C5 C 0.0257(14) -0.184(2) 0.0204(10)
H8 H 0.0137 -0.1126 -0.0132
C6 C -0.0638(16) -0.173(2) 0.0954(10)
H9 H -0.0751 -0.2517 0.1185
C7 C 0.4933(12) 0.2198(15) 0.3337(10)
H10 H 0.5844 0.2481 0.3298
H11 H 0.4930 0.1472 0.3642
H12 H 0.4393 0.2764 0.3628
C8 C -0.1935(16) -0.137(2) 0.0627(10)
H13 H -0.1821 -0.0728 0.0245
H14 H -0.2499 -0.1132 0.1083
H15 H -0.2352 -0.2016 0.0334
C9 C 0.0196(16) -0.1011(14) 0.1618(8)
O5 O -0.0432(6) -0.3794(7) -0.0062(4)
C10 C -0.0028(9) -0.2850(10) -0.0366(6)
O6 O 0.0360(6) -0.2768(6) -0.1132(4)
O7 O 0.0538(6) -0.1568(7) 0.2262(4)
C11 C 0.6725(10) 0.1860(11) 0.2038(9)
O8 O 0.6761(6) 0.2830(8) 0.1712(5)
O9 O 0.7739(6) 0.1244(8) 0.2259(5)
C12 C 0.1841(13) -0.192(2) 0.0458(10)
H16 H 0.2271 -0.2500 0.0114
H17 H 0.1932 -0.2138 0.1039
H18 H 0.2261 -0.1174 0.0370
O11 O -0.0001(5) 0.0480(6) 0.3465(4)
H21 H -0.063(9) -0.002(8) 0.352(6)
H22 H 0.018(10) 0.081(9) 0.393(4)
Mn1B Mn 0.01317(12) -0.16169(14) -0.22305(9)
Mn1A Mn 0.01317(12) -0.33831(14) 0.27695(9)
Mn1_2 Mn 0.98683(12) 0.16169(14) 0.22305(9)
Mn2C Mn 0.16756(12) -0.41392(14) -0.16636(9)
Mn2A Mn 0.83244(12) 0.41392(14) 0.16636(9)
O6B O -0.0360(6) 0.2768(6) 0.1132(4)
O6C O 0.0360(6) -0.2232(6) 0.3868(4)
O7A O -0.0538(6) 0.3432(7) 0.2738(4)
O8A O 0.3239(6) -0.2170(8) 0.3288(5)
O9_2 O -0.2261(6) 0.1244(8) 0.2259(5)
O10 O 0.5270(10) -0.0865(11) 0.4287(7)
H19 H 0.5859 -0.0828 0.3904
H20 H 0.4490 -0.0733 0.4075
O12 O -0.2352(6) -0.0690(7) 0.3282(5)
H23 H -0.231(13) -0.136(5) 0.305(7)
H24 H -0.257(12) -0.017(8) 0.292(6)
loop_
_geom_bond_atom_site_label_1
_geom_bond_atom_site_label_2
_geom_bond_site_symmetry_1
_geom_bond_site_symmetry_2
Mn1 O1 1_555 1_555
Mn2 O2 1_555 1_555
O1 C9 1_555 1_555
O2 C3 1_555 1_555
O3 Mn1 1_555 1_555
C1 H1 1_555 1_555
O4 Mn2 1_555 1_555
H2 O4 1_555 1_555
H3 O4 1_555 1_555
C2 C1 1_555 1_555
H4 C2 1_555 1_555
C3 O3 1_555 1_555
C4 C1 1_555 1_555
H5 C4 1_555 1_555
H6 C4 1_555 1_555
H7 C4 1_555 1_555
C5 H8 1_555 1_555
C6 C5 1_555 1_555
H9 C6 1_555 1_555
C7 C2 1_555 1_555
H10 C7 1_555 1_555
H11 C7 1_555 1_555
H12 C7 1_555 1_555
C8 C6 1_555 1_555
H13 C8 1_555 1_555
H14 C8 1_555 1_555
H15 C8 1_555 1_555
C9 C6 1_555 1_555
O5 C10 1_555 1_555
C10 C5 1_555 1_555
O6 C10 1_555 1_555
O7 Mn2 1_555 1_555
C11 C1 1_555 1_555
O8 C11 1_555 1_555
O9 C11 1_555 1_555
C12 C5 1_555 1_555
H16 C12 1_555 1_555
H17 C12 1_555 1_555
H18 C12 1_555 1_555
O10 H19 1_555 1_555
H20 O10 1_555 1_555
O11 Mn1 1_555 1_555
H21 O11 1_555 1_555
H22 O11 1_555 1_555
O12 H23 1_555 1_555
H24 O12 1_555 1_555
Mn1B O6 1_555 1_555
Mn1A O7 1_555 1_555
Mn1_2 O9 1_555 1_555
Mn2C O6 1_555 1_555
Mn2A O8 1_555 1_555
O6B Mn1 1_555 1_555
O6C Mn2 1_555 1_555
O7A Mn1 1_555 1_555
O8A Mn2 1_555 1_555
O9_2 Mn1 1_555 1_555
Mn2 O11 1_555 1_555
C2 C3 1_555 1_555
C9 O7 1_555 1_555
Mn1A O6C 1_555 1_555

#END
