
#######################################################################
#
#                 Cambridge Crystallographic Data Centre
#                                CCDC 
#
#######################################################################
#
# If this CIF has been generated from an entry in the Cambridge 
# Structural Database, then it will include bibliographic, chemical, 
# crystal, experimental, refinement or atomic coordinate data resulting 
# from the CCDC's data processing and validation procedures.
#
#######################################################################

data_REKXOW
_symmetry_cell_setting           triclinic
_symmetry_space_group_name_H-M   'P -1'
_symmetry_Int_Tables_number      2
_space_group_name_Hall           '-P 1'
loop_
_symmetry_equiv_pos_site_id
_symmetry_equiv_pos_as_xyz
1 x,y,z
2 -x,-y,-z
_cell_length_a                   4.8543(3)
_cell_length_b                   6.7522(5)
_cell_length_c                   11.7208(6)
_cell_angle_alpha                105.932(5)
_cell_angle_beta                 92.578(4)
_cell_angle_gamma                95.916(5)
_cell_volume                     366.371
loop_
_atom_site_label
_atom_site_type_symbol
_atom_site_fract_x
_atom_site_fract_y
_atom_site_fract_z
Zn1 Zn 0.26011(4) 0.27473(3) 0.410578(18)
O1 O -0.1455(3) 0.2058(2) 0.37772(13)
C1 C -0.1899(4) -0.1386(3) 0.23719(16)
H1 H -0.0139 -0.1577 0.2747
C2 C -0.3875(4) -0.3377(3) 0.21617(17)
H2 H -0.5623 -0.3199 0.1771
C3 C -0.2720(5) -0.5268(3) 0.1364(2)
H3 H -0.2464 -0.5064 0.0595
H4 H -0.4004 -0.6489 0.1279
H5 H -0.0969 -0.5435 0.1719
C4 C -0.3031(4) 0.0462(3) 0.31948(16)
C5 C -0.1288(5) -0.0808(4) 0.1220(2)
H6 H -0.039 -0.1878 0.0708
H7 H -0.0095 0.0482 0.141
H8 H -0.2999 -0.0667 0.0822
O2 O -0.5642(3) 0.0367(2) 0.32227(14)
C6 C -0.4507(4) -0.3868(3) 0.33237(18)
O3 O -0.2859(3) -0.3013(2) 0.42176(13)
O4 O -0.6599(3) -0.5158(2) 0.32865(14)
Zn1_2 Zn -0.73989(4) 0.27473(3) 0.410578(18)
Zn1A Zn -0.26011(4) -0.27473(3) 0.589422(18)
Zn1_3 Zn -0.73989(4) -0.72527(3) 0.410578(18)
O2_2 O 0.4358(3) 0.0367(2) 0.32227(14)
O3A O 0.2859(3) 0.3013(2) 0.57824(13)
O4_2 O 0.3401(3) 0.4842(2) 0.32865(14)
loop_
_geom_bond_atom_site_label_1
_geom_bond_atom_site_label_2
_geom_bond_site_symmetry_1
_geom_bond_site_symmetry_2
Zn1 O1 1_555 1_555
O1 C4 1_555 1_555
C1 H1 1_555 1_555
C2 C1 1_555 1_555
H2 C2 1_555 1_555
C3 C2 1_555 1_555
H3 C3 1_555 1_555
H4 C3 1_555 1_555
H5 C3 1_555 1_555
C4 C1 1_555 1_555
C5 C1 1_555 1_555
H6 C5 1_555 1_555
H7 C5 1_555 1_555
H8 C5 1_555 1_555
O2 C4 1_555 1_555
C6 C2 1_555 1_555
O3 C6 1_555 1_555
O4 C6 1_555 1_555
Zn1_2 O2 1_555 1_555
Zn1A O3 1_555 1_555
Zn1_3 O4 1_555 1_555
O2_2 Zn1 1_555 1_555
O3A Zn1 1_555 1_555
O4_2 Zn1 1_555 1_555

#END
