
#######################################################################
#
#                 Cambridge Crystallographic Data Centre
#                                CCDC 
#
#######################################################################
#
# If this CIF has been generated from an entry in the Cambridge 
# Structural Database, then it will include bibliographic, chemical, 
# crystal, experimental, refinement or atomic coordinate data resulting 
# from the CCDC's data processing and validation procedures.
#
#######################################################################

data_REKXIQ
_symmetry_cell_setting           monoclinic
_symmetry_space_group_name_H-M   'C 2/c'
_symmetry_Int_Tables_number      15
_space_group_name_Hall           '-C 2yn'
loop_
_symmetry_equiv_pos_site_id
_symmetry_equiv_pos_as_xyz
1 x,y,z
2 -x,y,1/2-z
3 1/2+x,1/2+y,z
4 1/2-x,1/2+y,1/2-z
5 -x,-y,-z
6 x,-y,1/2+z
7 1/2-x,1/2-y,-z
8 1/2+x,1/2-y,1/2+z
_cell_length_a                   13.1799(12)
_cell_length_b                   11.6913(8)
_cell_length_c                   4.7525(3)
_cell_angle_alpha                90
_cell_angle_beta                 108.393(9)
_cell_angle_gamma                90
_cell_volume                     694.903
loop_
_atom_site_label
_atom_site_type_symbol
_atom_site_fract_x
_atom_site_fract_y
_atom_site_fract_z
Co1 Co 0.00000 0.07149(4) 0.2500
O1 O -0.09784(16) 0.06660(17) 0.5340(4)
C1 C -0.1283(3) 0.1523(3) 0.6562(6)
C2 C -0.1430(3) 0.3575(3) 0.4565(8)
H1 H -0.1214 0.3882 0.6539
H2 H -0.1909 0.41 0.3239
H3 H -0.0811 0.3462 0.3944
C3 C -0.2002(3) 0.2417(3) 0.4522(7)
H4 H -0.2226 0.2121 0.2489
O2 O -0.09929(18) 0.17111(19) 0.9298(4)
Co1D Co 0.00000 -0.07149(4) 0.7500
Co1_2 Co 0.00000 0.07149(4) 1.2500
Co1F Co -0.50000 0.42851(4) 0.7500
Co1B Co -0.50000 0.57149(4) 0.2500
Co1F_2 Co -0.50000 0.42851(4) -0.2500
O1F O -0.40216(16) 0.43340(17) 0.4660(4)
O1A O 0.09784(16) 0.06660(17) -0.0340(4)
O1D O 0.09784(16) -0.06660(17) 0.4660(4)
O1E O -0.09784(16) -0.06660(17) 0.0340(4)
C1F C -0.3717(3) 0.3477(3) 0.3438(6)
C2F C -0.3570(3) 0.1425(3) 0.5435(8)
H1F H -0.3786 0.1118 0.3461
H2F H -0.3091 0.09 0.6761
H3F H -0.4189 0.1538 0.6056
C3F C -0.2998(3) 0.2583(3) 0.5478(7)
H4F H -0.2774 0.2879 0.7511
O2F O -0.40071(18) 0.32889(19) 0.0702(4)
O2_2 O -0.09929(18) 0.17111(19) -0.0702(4)
O2A O 0.09929(18) 0.17111(19) 0.5702(4)
loop_
_geom_bond_atom_site_label_1
_geom_bond_atom_site_label_2
_geom_bond_site_symmetry_1
_geom_bond_site_symmetry_2
Co1 O1 1_555 1_555
O1 C1 1_555 1_555
C1 C3 1_555 1_555
C2 H1 1_555 1_555
H2 C2 1_555 1_555
H3 C2 1_555 1_555
C3 C2 1_555 1_555
H4 C3 1_555 1_555
O2 C1 1_555 1_555
Co1D O1 1_555 1_555
Co1_2 O2 1_555 1_555
Co1F O1F 1_555 1_555
Co1B O1F 1_555 1_555
Co1F_2 O2F 1_555 1_555
O1F C1F 1_555 1_555
O1A Co1 1_555 1_555
O1D Co1 1_555 1_555
O1E Co1 1_555 1_555
C1F C3F 1_555 1_555
C2F H1F 1_555 1_555
H2F C2F 1_555 1_555
H3F C2F 1_555 1_555
C3F C3 1_555 1_555
H4F C3F 1_555 1_555
O2F C1F 1_555 1_555
O2_2 Co1 1_555 1_555
O2A Co1 1_555 1_555
Co1D O1D 1_555 1_555
C2F C3F 1_555 1_555

#END
