
#######################################################################
#
#                 Cambridge Crystallographic Data Centre
#                                CCDC 
#
#######################################################################
#
# If this CIF has been generated from an entry in the Cambridge 
# Structural Database, then it will include bibliographic, chemical, 
# crystal, experimental, refinement or atomic coordinate data resulting 
# from the CCDC's data processing and validation procedures.
#
#######################################################################

data_REKZEN
_symmetry_cell_setting           monoclinic
_symmetry_space_group_name_H-M   'P 21/c'
_symmetry_Int_Tables_number      14
_space_group_name_Hall           '-P 2ybc'
loop_
_symmetry_equiv_pos_site_id
_symmetry_equiv_pos_as_xyz
1 x,y,z
2 -x,1/2+y,1/2-z
3 -x,-y,-z
4 x,1/2-y,1/2+z
_cell_length_a                   11.7434(7)
_cell_length_b                   9.4784(5)
_cell_length_c                   27.8123(16)
_cell_angle_alpha                90
_cell_angle_beta                 97.0030(10)
_cell_angle_gamma                90
_cell_volume                     3072.65
loop_
_atom_site_label
_atom_site_type_symbol
_atom_site_fract_x
_atom_site_fract_y
_atom_site_fract_z
Cd1 Cd 0.418724(16) 0.34059(2) 0.200518(7)
O1 O 0.3608(2) 0.2036(3) 0.27567(8)
O2 O 0.44219(18) 0.4103(2) 0.28597(8)
O3 O -0.35479(19) 0.2634(3) 0.37189(9)
O4 O -0.24553(19) 0.4531(2) 0.36999(9)
O5 O 0.1759(2) 0.1695(2) 0.31756(9)
H1 H 0.2197 0.1579 0.2971
O6 O -0.0320(2) 0.4270(2) 0.37049(9)
H2 H -0.0953 0.4647 0.3667
N1 N 0.2187(2) 0.3527(3) 0.19484(10)
N2 N -0.3787(2) 0.3148(2) 0.20964(9)
N3 N 0.4463(2) 0.3966(3) 0.11801(9)
C1 C 0.3815(2) 0.3148(3) 0.30028(11)
C2 C 0.3282(2) 0.3307(3) 0.34611(10)
C3 C 0.3768(2) 0.4174(3) 0.38232(11)
H3 H 0.4458 0.4622 0.3789
C4 C 0.3244(2) 0.4402(3) 0.42460(11)
C5 C 0.3735(3) 0.5299(4) 0.46226(12)
H4 H 0.4429 0.5744 0.4593
C6 C 0.3214(3) 0.5524(4) 0.50251(13)
H5 H 0.3544 0.6125 0.5267
C7 C 0.2170(3) 0.4840(4) 0.50733(13)
H6 H 0.1818 0.4981 0.5351
C8 C 0.1672(3) 0.3981(4) 0.47201(12)
H7 H 0.0978 0.3549 0.4758
C9 C 0.2185(3) 0.3729(3) 0.42942(11)
C10 C 0.1687(3) 0.2812(3) 0.39234(11)
C11 C 0.2239(3) 0.2589(3) 0.35189(11)
C12 C 0.0554(3) 0.2133(3) 0.39650(11)
C13 C 0.0479(3) 0.0747(3) 0.41427(11)
C14 C 0.1449(3) -0.0109(4) 0.42744(13)
H8 H 0.2173 0.0240 0.4236
C15 C 0.1357(4) -0.1428(4) 0.44562(16)
H9 H 0.2014 -0.1966 0.4540
C16 C 0.0278(4) -0.1984(4) 0.45177(17)
H10 H 0.0219 -0.2889 0.4641
C17 C -0.0677(3) -0.1198(4) 0.43965(15)
H11 H -0.1389 -0.1572 0.4441
C18 C -0.0617(3) 0.0177(3) 0.42038(12)
C19 C -0.1596(3) 0.1013(3) 0.40729(12)
H12 H -0.2314 0.0637 0.4105
C20 C -0.1529(3) 0.2349(3) 0.39013(11)
C21 C -0.0428(3) 0.2923(3) 0.38534(11)
C22 C -0.2600(3) 0.3212(3) 0.37651(11)
C23 C 0.1563(3) 0.2402(4) 0.17920(15)
H13 H 0.1930 0.1661 0.1655
C24 C 0.0409(3) 0.2279(4) 0.18220(14)
H14 H 0.0016 0.1475 0.1704
C25 C -0.0169(2) 0.3346(3) 0.20262(11)
C26 C 0.0469(3) 0.4518(4) 0.21852(13)
H15 H 0.0119 0.5273 0.2323
C27 C 0.1624(3) 0.4568(4) 0.21395(14)
H16 H 0.2032 0.5371 0.2248
C28 C -0.1413(2) 0.3231(3) 0.20642(11)
C29 C -0.2148(3) 0.2532(3) 0.17139(12)
H17 H -0.1855 0.2065 0.1462
C30 C -0.3304(2) 0.2531(3) 0.17396(11)
H18 H -0.3779 0.2077 0.1496
C31 C -0.1904(2) 0.3817(3) 0.24471(11)
H19 H -0.1446 0.4247 0.2702
C32 C -0.3078(2) 0.3758(3) 0.24476(11)
H20 H -0.3391 0.4163 0.2706
C33 C 0.4020(3) 0.3263(3) 0.07878(12)
H21 H 0.3563 0.2481 0.0830
C34 C 0.4199(3) 0.3623(3) 0.03232(12)
H22 H 0.3864 0.3095 0.0062
C35 C 0.4888(2) 0.4787(3) 0.02466(10)
C36 C 0.5341(3) 0.5524(3) 0.06535(11)
H23 H 0.5792 0.6317 0.0623
C37 C 0.5124(3) 0.5083(3) 0.11066(11)
H24 H 0.5453 0.5586 0.1375
O7 O 0.41884(17) 0.1119(2) 0.16971(8)
H25 H 0.4278 0.0414 0.1887
H26 H 0.4099 0.0994 0.1392
O8 O 0.40775(18) 0.5869(2) 0.20336(8)
H27 H 0.4142 0.6293 0.2305
H28 H 0.3970 0.6340 0.1772
Cd1_2 Cd 1.418724(16) 0.34059(2) 0.200518(7)
Cd1_3 Cd -0.581276(16) 0.34059(2) 0.200518(7)
Cd1B Cd 0.581276(16) 0.65941(2) -0.200518(7)
O1_2 O 1.3608(2) 0.2036(3) 0.27567(8)
O2_2 O 1.44219(18) 0.4103(2) 0.28597(8)
O3_2 O 0.64521(19) 0.2634(3) 0.37189(9)
O4_2 O 0.75447(19) 0.4531(2) 0.36999(9)
O5_2 O 1.1759(2) 0.1695(2) 0.31756(9)
H1_2 H 1.2197 0.1579 0.2971
O6_2 O 0.9680(2) 0.4270(2) 0.37049(9)
H2_2 H 0.9047 0.4647 0.3667
N1_2 N 1.2187(2) 0.3527(3) 0.19484(10)
N2_2 N 0.6213(2) 0.3148(2) 0.20964(9)
N2_3 N 1.6213(2) 0.3148(2) 0.20964(9)
N3B N 0.5537(2) 0.6034(3) -0.11801(9)
N3_2 N 1.4463(2) 0.3966(3) 0.11801(9)
C1_2 C 1.3815(2) 0.3148(3) 0.30028(11)
C2_2 C 1.3282(2) 0.3307(3) 0.34611(10)
C3_2 C 1.3768(2) 0.4174(3) 0.38232(11)
H3_2 H 1.4458 0.4622 0.3789
C4_2 C 1.3244(2) 0.4402(3) 0.42460(11)
C5_2 C 1.3735(3) 0.5299(4) 0.46226(12)
H4_2 H 1.4429 0.5744 0.4593
C6_2 C 1.3214(3) 0.5524(4) 0.50251(13)
H5_2 H 1.3544 0.6125 0.5267
C7_2 C 1.2170(3) 0.4840(4) 0.50733(13)
H6_2 H 1.1818 0.4981 0.5351
C8_2 C 1.1672(3) 0.3981(4) 0.47201(12)
H7_2 H 1.0978 0.3549 0.4758
C9_2 C 1.2185(3) 0.3729(3) 0.42942(11)
C10_2 C 1.1687(3) 0.2812(3) 0.39234(11)
C11_2 C 1.2239(3) 0.2589(3) 0.35189(11)
C12_2 C 1.0554(3) 0.2133(3) 0.39650(11)
C13_2 C 1.0479(3) 0.0747(3) 0.41427(11)
C14_2 C 1.1449(3) -0.0109(4) 0.42744(13)
H8_2 H 1.2173 0.0240 0.4236
C15_2 C 1.1357(4) -0.1428(4) 0.44562(16)
H9_2 H 1.2014 -0.1966 0.4540
C16_2 C 1.0278(4) -0.1984(4) 0.45177(17)
H10_2 H 1.0219 -0.2889 0.4641
C17_2 C 0.9323(3) -0.1198(4) 0.43965(15)
H11_2 H 0.8611 -0.1572 0.4441
C18_2 C 0.9383(3) 0.0177(3) 0.42038(12)
C19_2 C 0.8404(3) 0.1013(3) 0.40729(12)
H12_2 H 0.7686 0.0637 0.4105
C20_2 C 0.8471(3) 0.2349(3) 0.39013(11)
C21_2 C 0.9572(3) 0.2923(3) 0.38534(11)
C22_2 C 0.7400(3) 0.3212(3) 0.37651(11)
C23_2 C 1.1563(3) 0.2402(4) 0.17920(15)
H13_2 H 1.1930 0.1661 0.1655
C24_2 C 1.0409(3) 0.2279(4) 0.18220(14)
H14_2 H 1.0016 0.1475 0.1704
C25_2 C 0.9831(2) 0.3346(3) 0.20262(11)
C26_2 C 1.0469(3) 0.4518(4) 0.21852(13)
H15_2 H 1.0119 0.5273 0.2323
C27_2 C 1.1624(3) 0.4568(4) 0.21395(14)
H16_2 H 1.2032 0.5371 0.2248
C28_2 C 0.8587(2) 0.3231(3) 0.20642(11)
C29_2 C 0.7852(3) 0.2532(3) 0.17139(12)
H17_2 H 0.8145 0.2065 0.1462
C30_2 C 0.6696(2) 0.2531(3) 0.17396(11)
H18_2 H 0.6221 0.2077 0.1496
C31_2 C 0.8096(2) 0.3817(3) 0.24471(11)
H19_2 H 0.8554 0.4247 0.2702
C32_2 C 0.6922(2) 0.3758(3) 0.24476(11)
H20_2 H 0.6609 0.4163 0.2706
C33B C 0.5980(3) 0.6737(3) -0.07878(12)
H21B H 0.6437 0.7519 -0.0830
C34B C 0.5801(3) 0.6377(3) -0.03232(12)
H22B H 0.6136 0.6905 -0.0062
C35B C 0.5112(2) 0.5213(3) -0.02466(10)
C36B C 0.4659(3) 0.4476(3) -0.06535(11)
H23B H 0.4208 0.3683 -0.0623
C37B C 0.4876(3) 0.4917(3) -0.11066(11)
H24B H 0.4547 0.4414 -0.1375
O7_2 O 1.41884(17) 0.1119(2) 0.16971(8)
H25_2 H 1.4278 0.0414 0.1887
H26_2 H 1.4099 0.0994 0.1392
O8_2 O 1.40775(18) 0.5869(2) 0.20336(8)
H27_2 H 1.4142 0.6293 0.2305
H28_2 H 1.3970 0.6340 0.1772
loop_
_geom_bond_atom_site_label_1
_geom_bond_atom_site_label_2
_geom_bond_site_symmetry_1
_geom_bond_site_symmetry_2
Cd1 O1 1_555 1_555
O1 C1 1_555 1_555
O2 Cd1 1_555 1_555
O3 C22 1_555 1_555
O4 C22 1_555 1_555
O5 H1 1_555 1_555
O6 H2 1_555 1_555
N1 Cd1 1_555 1_555
N2 C30 1_555 1_555
N3 Cd1 1_555 1_555
C1 O2 1_555 1_555
C2 C1 1_555 1_555
C3 C2 1_555 1_555
H3 C3 1_555 1_555
C4 C3 1_555 1_555
C5 C4 1_555 1_555
H4 C5 1_555 1_555
C6 C5 1_555 1_555
H5 C6 1_555 1_555
C7 C6 1_555 1_555
H6 C7 1_555 1_555
C8 C7 1_555 1_555
H7 C8 1_555 1_555
C9 C4 1_555 1_555
C10 C9 1_555 1_555
C11 O5 1_555 1_555
C12 C10 1_555 1_555
C13 C12 1_555 1_555
C14 C13 1_555 1_555
H8 C14 1_555 1_555
C15 C14 1_555 1_555
H9 C15 1_555 1_555
C16 C15 1_555 1_555
H10 C16 1_555 1_555
C17 C16 1_555 1_555
H11 C17 1_555 1_555
C18 C13 1_555 1_555
C19 C18 1_555 1_555
H12 C19 1_555 1_555
C20 C19 1_555 1_555
C21 O6 1_555 1_555
C22 C20 1_555 1_555
C23 N1 1_555 1_555
H13 C23 1_555 1_555
C24 C23 1_555 1_555
H14 C24 1_555 1_555
C25 C24 1_555 1_555
C26 C25 1_555 1_555
H15 C26 1_555 1_555
C27 N1 1_555 1_555
H16 C27 1_555 1_555
C28 C25 1_555 1_555
C29 C28 1_555 1_555
H17 C29 1_555 1_555
C30 C29 1_555 1_555
H18 C30 1_555 1_555
C31 C28 1_555 1_555
H19 C31 1_555 1_555
C32 N2 1_555 1_555
H20 C32 1_555 1_555
C33 N3 1_555 1_555
H21 C33 1_555 1_555
C34 C33 1_555 1_555
H22 C34 1_555 1_555
C35 C34 1_555 1_555
C36 C35 1_555 1_555
H23 C36 1_555 1_555
C37 N3 1_555 1_555
H24 C37 1_555 1_555
O7 Cd1 1_555 1_555
H25 O7 1_555 1_555
H26 O7 1_555 1_555
O8 Cd1 1_555 1_555
H27 O8 1_555 1_555
H28 O8 1_555 1_555
Cd1_2 O1_2 1_555 1_555
Cd1_3 N2 1_555 1_555
Cd1B N3B 1_555 1_555
O1_2 C1_2 1_555 1_555
O2_2 Cd1_2 1_555 1_555
O3_2 C22_2 1_555 1_555
O4_2 C22_2 1_555 1_555
O5_2 H1_2 1_555 1_555
O6_2 H2_2 1_555 1_555
N1_2 Cd1_2 1_555 1_555
N2_2 Cd1 1_555 1_555
N2_3 Cd1_2 1_555 1_555
N3B C33B 1_555 1_555
N3_2 Cd1_2 1_555 1_555
C1_2 O2_2 1_555 1_555
C2_2 C1_2 1_555 1_555
C3_2 C2_2 1_555 1_555
H3_2 C3_2 1_555 1_555
C4_2 C3_2 1_555 1_555
C5_2 C4_2 1_555 1_555
H4_2 C5_2 1_555 1_555
C6_2 C5_2 1_555 1_555
H5_2 C6_2 1_555 1_555
C7_2 C6_2 1_555 1_555
H6_2 C7_2 1_555 1_555
C8_2 C7_2 1_555 1_555
H7_2 C8_2 1_555 1_555
C9_2 C4_2 1_555 1_555
C10_2 C9_2 1_555 1_555
C11_2 O5_2 1_555 1_555
C12_2 C10_2 1_555 1_555
C13_2 C12_2 1_555 1_555
C14_2 C13_2 1_555 1_555
H8_2 C14_2 1_555 1_555
C15_2 C14_2 1_555 1_555
H9_2 C15_2 1_555 1_555
C16_2 C15_2 1_555 1_555
H10_2 C16_2 1_555 1_555
C17_2 C16_2 1_555 1_555
H11_2 C17_2 1_555 1_555
C18_2 C13_2 1_555 1_555
C19_2 C18_2 1_555 1_555
H12_2 C19_2 1_555 1_555
C20_2 C19_2 1_555 1_555
C21_2 O6_2 1_555 1_555
C22_2 C20_2 1_555 1_555
C23_2 N1_2 1_555 1_555
H13_2 C23_2 1_555 1_555
C24_2 C23_2 1_555 1_555
H14_2 C24_2 1_555 1_555
C25_2 C24_2 1_555 1_555
C26_2 C25_2 1_555 1_555
H15_2 C26_2 1_555 1_555
C27_2 N1_2 1_555 1_555
H16_2 C27_2 1_555 1_555
C28_2 C25_2 1_555 1_555
C29_2 C28_2 1_555 1_555
H17_2 C29_2 1_555 1_555
C30_2 N2_2 1_555 1_555
H18_2 C30_2 1_555 1_555
C31_2 C28_2 1_555 1_555
H19_2 C31_2 1_555 1_555
C32_2 N2_2 1_555 1_555
H20_2 C32_2 1_555 1_555
C33B H21B 1_555 1_555
C34B C33B 1_555 1_555
H22B C34B 1_555 1_555
C35B C35 1_555 1_555
C36B C35B 1_555 1_555
H23B C36B 1_555 1_555
C37B N3B 1_555 1_555
H24B C37B 1_555 1_555
O7_2 Cd1_2 1_555 1_555
H25_2 O7_2 1_555 1_555
H26_2 O7_2 1_555 1_555
O8_2 Cd1_2 1_555 1_555
H27_2 O8_2 1_555 1_555
H28_2 O8_2 1_555 1_555
C2 C11 1_555 1_555
C8 C9 1_555 1_555
C10 C11 1_555 1_555
C12 C21 1_555 1_555
C17 C18 1_555 1_555
C20 C21 1_555 1_555
C26 C27 1_555 1_555
C31 C32 1_555 1_555
C36 C37 1_555 1_555
C2_2 C11_2 1_555 1_555
C8_2 C9_2 1_555 1_555
C10_2 C11_2 1_555 1_555
C12_2 C21_2 1_555 1_555
C17_2 C18_2 1_555 1_555
C20_2 C21_2 1_555 1_555
C26_2 C27_2 1_555 1_555
C29_2 C30_2 1_555 1_555
C31_2 C32_2 1_555 1_555
C34B C35B 1_555 1_555
C36B C37B 1_555 1_555

#END
