
#######################################################################
#
#                 Cambridge Crystallographic Data Centre
#                                CCDC 
#
#######################################################################
#
# If this CIF has been generated from an entry in the Cambridge 
# Structural Database, then it will include bibliographic, chemical, 
# crystal, experimental, refinement or atomic coordinate data resulting 
# from the CCDC's data processing and validation procedures.
#
#######################################################################

data_REKZOX
_symmetry_cell_setting           triclinic
_symmetry_space_group_name_H-M   'P -1'
_symmetry_Int_Tables_number      2
_space_group_name_Hall           '-P 1'
loop_
_symmetry_equiv_pos_site_id
_symmetry_equiv_pos_as_xyz
1 x,y,z
2 -x,-y,-z
_cell_length_a                   12.8165(8)
_cell_length_b                   14.9807(9)
_cell_length_c                   14.9864(9)
_cell_angle_alpha                118.8000(10)
_cell_angle_beta                 101.9040(10)
_cell_angle_gamma                95.4270(10)
_cell_volume                     2403.31
loop_
_atom_site_label
_atom_site_type_symbol
_atom_site_fract_x
_atom_site_fract_y
_atom_site_fract_z
Cd1 Cd 0.856488(19) 0.978509(18) 0.963129(18)
Cd2 Cd 0.72922(2) 0.268590(19) 0.13454(2)
Cd3 Cd 1.431380(19) 1.136900(18) 1.066810(18)
N1 N 0.7912(3) 0.3738(2) 0.3187(2)
N2 N 0.8517(2) 0.8226(2) 0.8155(2)
O1 O 0.8792(2) 1.31595(18) 1.1030(2)
O2 O 0.85192(19) 1.14935(18) 1.04917(18)
O3 O 1.45458(18) 1.00784(18) 0.90983(18)
O4 O 1.38706(17) 0.84286(17) 0.85071(17)
O5 O 1.00104(17) 1.04740(16) 0.93749(16)
O6 O 1.25854(16) 1.08006(16) 0.97097(15)
O7 O 0.4703(2) 0.29238(19) 0.0852(2)
O8 O 0.6364(2) 0.3977(2) 0.1714(2)
O9 O 0.6745(2) 0.9560(2) 0.84333(19)
O10 O 0.5783(2) 0.7938(2) 0.7643(2)
O11 O 0.6576(2) 0.58260(19) 0.3365(2)
H1 H 0.6776 0.5318 0.2957
O12 O 0.5278(2) 0.6711(2) 0.5603(2)
H2 H 0.5327 0.6877 0.6220
O13 O 0.6386(2) 0.1733(2) -0.0457(2)
H3 H 0.6208 0.1013 -0.0752
C1 C 0.8991(3) 1.2276(3) 1.0492(3)
C2 C 0.9745(3) 1.2201(2) 0.9822(2)
C3 C 1.0005(3) 1.3061(3) 0.9735(3)
H4 H 0.9702 1.3630 1.0079
C4 C 1.0709(3) 1.3120(3) 0.9146(3)
C5 C 1.1018(3) 1.4026(3) 0.9103(3)
H5 H 1.0741 1.4608 0.9467
C6 C 1.1707(3) 1.4065(3) 0.8544(3)
H6 H 1.1899 1.4669 0.8525
C7 C 1.2129(3) 1.3193(3) 0.7992(3)
H7 H 1.2599 1.3219 0.7604
C8 C 1.1855(3) 1.2300(3) 0.8017(3)
H8 H 1.2138 1.1726 0.7642
C9 C 1.1147(3) 1.2239(3) 0.8605(3)
C10 C 1.0867(2) 1.1340(2) 0.8676(2)
C11 C 1.0195(2) 1.1314(2) 0.9294(2)
C12 C 1.1324(2) 1.0407(2) 0.8092(2)
C13 C 1.0839(3) 0.9702(3) 0.6977(2)
C14 C 0.9911(3) 0.9823(3) 0.6379(3)
H9 H 0.9604 1.0392 0.6713
C15 C 0.9458(3) 0.9113(3) 0.5315(3)
H10 H 0.8852 0.9210 0.4937
C16 C 0.9892(3) 0.8247(3) 0.4788(3)
H11 H 0.9580 0.7771 0.4065
C17 C 1.0774(3) 0.8107(3) 0.5342(3)
H12 H 1.1055 0.7524 0.4992
C18 C 1.1278(3) 0.8823(3) 0.6436(2)
C19 C 1.2217(3) 0.8705(3) 0.7002(3)
H13 H 1.2526 0.8145 0.6644
C20 C 1.2692(2) 0.9389(2) 0.8066(2)
C21 C 1.3755(3) 0.9302(3) 0.8604(2)
C22 C 1.2206(2) 1.0232(2) 0.8640(2)
C23 C 0.5333(4) 0.3803(3) 0.1517(3)
C24 C 0.4835(3) 0.4701(3) 0.2103(3)
C25 C 0.3740(3) 0.4594(3) 0.1768(3)
H14 H 0.3326 0.3975 0.1161
C26 C 0.3209(3) 0.5382(3) 0.2303(3)
C27 C 0.2062(3) 0.5265(4) 0.1952(3)
H15 H 0.1641 0.4644 0.1352
C28 C 0.1570(4) 0.6045(4) 0.2480(4)
H16 H 0.0816 0.5957 0.2243
C29 C 0.2199(4) 0.6980(4) 0.3379(4)
H17 H 0.1864 0.7522 0.3726
C30 C 0.3289(3) 0.7106(3) 0.3750(3)
H18 H 0.3686 0.7729 0.4363
C31 C 0.3846(3) 0.6320(3) 0.3236(3)
C32 C 0.4990(3) 0.6441(3) 0.3599(3)
C33 C 0.5481(3) 0.5661(3) 0.3031(3)
C34 C 0.5631(3) 0.7448(3) 0.4592(3)
C35 C 0.6049(3) 0.8322(3) 0.4537(3)
C36 C 0.5961(3) 0.8285(3) 0.3565(3)
H19 H 0.5646 0.7656 0.2928
C37 C 0.6332(4) 0.9156(3) 0.3545(4)
H20 H 0.6258 0.9114 0.2895
C38 C 0.6820(4) 1.0106(4) 0.4481(4)
H21 H 0.7070 1.0695 0.4456
C39 C 0.6928(4) 1.0170(3) 0.5430(4)
H22 H 0.7261 1.0806 0.6054
C40 C 0.6548(3) 0.9295(3) 0.5488(3)
C41 C 0.6622(3) 0.9361(3) 0.6460(3)
H23 H 0.6969 0.9994 0.7082
C42 C 0.6209(3) 0.8540(3) 0.6538(3)
C43 C 0.6258(3) 0.8692(4) 0.7608(3)
C44 C 0.5714(3) 0.7560(3) 0.5578(3)
C45 C 0.8749(3) 0.4543(3) 0.3615(3)
H24 H 0.9250 0.4514 0.3238
C46 C 0.8915(3) 0.5427(3) 0.4597(3)
H25 H 0.9511 0.5980 0.4865
C47 C 0.8191(3) 0.5485(3) 0.5180(3)
C48 C 0.7330(3) 0.4634(3) 0.4741(3)
H26 H 0.6833 0.4629 0.5112
C49 C 0.7216(3) 0.3794(3) 0.3749(3)
H27 H 0.6620 0.3234 0.3455
C50 C 0.8315(3) 0.6442(3) 0.6223(3)
C51 C 0.8750(4) 0.7414(3) 0.6426(3)
H28 H 0.8982 0.7490 0.5913
C52 C 0.8839(4) 0.8275(3) 0.7394(3)
H29 H 0.9142 0.8929 0.7521
C53 C 0.7976(4) 0.6386(3) 0.7011(3)
H30 H 0.7672 0.5742 0.6906
C54 C 0.8092(3) 0.7288(3) 0.7953(3)
H31 H 0.7859 0.7236 0.8477
C55 C 0.6600(9) 0.2988(8) -0.1028(7)
H32 H 0.6251 0.3064 -0.1612
H33 H 0.6566 0.3568 -0.0374
H34 H 0.7351 0.2973 -0.1007
C56 C 0.6069(7) 0.2066(6) -0.1160(5)
H35 H 0.6078 0.1510 -0.1850
H36 H 0.5309 0.2104 -0.1210
Cd1A Cd 1.143512(19) 1.021491(18) 1.036871(18)
Cd2_2 Cd 0.72922(2) 1.268590(19) 1.13454(2)
Cd2A Cd 1.27078(2) 0.731410(19) 0.86546(2)
Cd3A Cd 1.568620(19) 0.863100(18) 0.933190(18)
Cd3_2 Cd 0.431380(19) 0.136900(18) 0.066810(18)
Cd3A_2 Cd 0.568620(19) 0.863100(18) 0.933190(18)
O1_2 O 0.8792(2) 0.31595(18) 0.1030(2)
O2_2 O 0.85192(19) 0.14935(18) 0.04917(18)
O4A O 0.61294(17) 0.15714(17) 0.14929(17)
O4A_2 O 1.61294(17) 1.15714(17) 1.14929(17)
O5A O 0.99896(17) 0.95260(16) 1.06251(16)
O6A O 0.74146(16) 0.91994(16) 1.02903(15)
O7_2 O 1.4703(2) 1.29238(19) 1.0852(2)
O10A O 1.4217(2) 1.2062(2) 1.2357(2)
loop_
_geom_bond_atom_site_label_1
_geom_bond_atom_site_label_2
_geom_bond_site_symmetry_1
_geom_bond_site_symmetry_2
Cd1 N2 1_555 1_555
Cd2 N1 1_555 1_555
Cd3 O3 1_555 1_555
N1 C45 1_555 1_555
N2 C52 1_555 1_555
O1 C1 1_555 1_555
O2 Cd1 1_555 1_555
O3 C21 1_555 1_555
O4 C21 1_555 1_555
O5 Cd1 1_555 1_555
O6 Cd3 1_555 1_555
O7 C23 1_555 1_555
O8 Cd2 1_555 1_555
O9 Cd1 1_555 1_555
O10 C43 1_555 1_555
O11 H1 1_555 1_555
O12 H2 1_555 1_555
O13 Cd2 1_555 1_555
H3 O13 1_555 1_555
C1 O2 1_555 1_555
C2 C1 1_555 1_555
C3 C2 1_555 1_555
H4 C3 1_555 1_555
C4 C3 1_555 1_555
C5 C4 1_555 1_555
H5 C5 1_555 1_555
C6 C5 1_555 1_555
H6 C6 1_555 1_555
C7 C6 1_555 1_555
H7 C7 1_555 1_555
C8 C7 1_555 1_555
H8 C8 1_555 1_555
C9 C4 1_555 1_555
C10 C9 1_555 1_555
C11 O5 1_555 1_555
C12 C10 1_555 1_555
C13 C12 1_555 1_555
C14 C13 1_555 1_555
H9 C14 1_555 1_555
C15 C14 1_555 1_555
H10 C15 1_555 1_555
C16 C15 1_555 1_555
H11 C16 1_555 1_555
C17 C16 1_555 1_555
H12 C17 1_555 1_555
C18 C13 1_555 1_555
C19 C18 1_555 1_555
H13 C19 1_555 1_555
C20 C19 1_555 1_555
C21 C20 1_555 1_555
C22 O6 1_555 1_555
C23 O8 1_555 1_555
C24 C23 1_555 1_555
C25 C24 1_555 1_555
H14 C25 1_555 1_555
C26 C25 1_555 1_555
C27 C26 1_555 1_555
H15 C27 1_555 1_555
C28 C27 1_555 1_555
H16 C28 1_555 1_555
C29 C28 1_555 1_555
H17 C29 1_555 1_555
C30 C29 1_555 1_555
H18 C30 1_555 1_555
C31 C26 1_555 1_555
C32 C31 1_555 1_555
C33 O11 1_555 1_555
C34 C32 1_555 1_555
C35 C34 1_555 1_555
C36 C35 1_555 1_555
H19 C36 1_555 1_555
C37 C36 1_555 1_555
H20 C37 1_555 1_555
C38 C37 1_555 1_555
H21 C38 1_555 1_555
C39 C38 1_555 1_555
H22 C39 1_555 1_555
C40 C35 1_555 1_555
C41 C40 1_555 1_555
H23 C41 1_555 1_555
C42 C41 1_555 1_555
C43 O9 1_555 1_555
C44 O12 1_555 1_555
C45 H24 1_555 1_555
C46 C45 1_555 1_555
H25 C46 1_555 1_555
C47 C46 1_555 1_555
C48 C47 1_555 1_555
H26 C48 1_555 1_555
C49 N1 1_555 1_555
H27 C49 1_555 1_555
C50 C47 1_555 1_555
C51 C50 1_555 1_555
H28 C51 1_555 1_555
C52 C51 1_555 1_555
H29 C52 1_555 1_555
C53 C50 1_555 1_555
H30 C53 1_555 1_555
C54 N2 1_555 1_555
H31 C54 1_555 1_555
C55 H32 1_555 1_555
H33 C55 1_555 1_555
H34 C55 1_555 1_555
C56 O13 1_555 1_555
H35 C56 1_555 1_555
H36 C56 1_555 1_555
Cd1A O5 1_555 1_555
Cd2_2 O1 1_555 1_555
Cd2A O4 1_555 1_555
Cd3A O4 1_555 1_555
Cd3_2 O7 1_555 1_555
Cd3A_2 O10 1_555 1_555
O1_2 Cd2 1_555 1_555
O2_2 Cd2 1_555 1_555
O4A Cd2 1_555 1_555
O4A_2 Cd3 1_555 1_555
O5A Cd1 1_555 1_555
O6A Cd1 1_555 1_555
O7_2 Cd3 1_555 1_555
O10A Cd3 1_555 1_555
O2 Cd2_2 1_555 1_555
O6 Cd1A 1_555 1_555
C2 C11 1_555 1_555
C8 C9 1_555 1_555
C10 C11 1_555 1_555
C12 C22 1_555 1_555
C17 C18 1_555 1_555
C20 C22 1_555 1_555
C24 C33 1_555 1_555
C30 C31 1_555 1_555
C32 C33 1_555 1_555
C34 C44 1_555 1_555
C39 C40 1_555 1_555
C42 C43 1_555 1_555
C42 C44 1_555 1_555
C48 C49 1_555 1_555
C53 C54 1_555 1_555
C55 C56 1_555 1_555
Cd1A O5A 1_555 1_555
Cd3_2 O4A 1_555 1_555
Cd3A_2 O6A 1_555 1_555

#END
