
#######################################################################
#
#                 Cambridge Crystallographic Data Centre
#                                CCDC 
#
#######################################################################
#
# If this CIF has been generated from an entry in the Cambridge 
# Structural Database, then it will include bibliographic, chemical, 
# crystal, experimental, refinement or atomic coordinate data resulting 
# from the CCDC's data processing and validation procedures.
#
#######################################################################

data_RELKAU
_symmetry_cell_setting           monoclinic
_symmetry_space_group_name_H-M   'P 21/n'
_symmetry_Int_Tables_number      14
_space_group_name_Hall           '-P 2yn'
loop_
_symmetry_equiv_pos_site_id
_symmetry_equiv_pos_as_xyz
1 x,y,z
2 1/2-x,1/2+y,1/2-z
3 -x,-y,-z
4 1/2+x,1/2-y,1/2+z
_cell_length_a                   16.5471(3)
_cell_length_b                   24.3415(6)
_cell_length_c                   16.5865(3)
_cell_angle_alpha                90
_cell_angle_beta                 104.2530(10)
_cell_angle_gamma                90
_cell_volume                     6475.08
loop_
_atom_site_label
_atom_site_type_symbol
_atom_site_fract_x
_atom_site_fract_y
_atom_site_fract_z
Ca1 Ca 0.1449(1) 0.2272(1) 0.0401(1)
Ca2 Ca 0.3667(1) 0.2696(1) 0.2447(1)
P1 P 0.3076(1) 0.1377(1) 0.1609(1)
P2 P 0.0808(1) 0.1975(1) -0.1835(1)
O1 O 0.3570(2) 0.1771(1) 0.2217(2)
O2 O 0.2307(2) 0.1573(1) 0.1030(2)
O3 O 0.2899(2) 0.0834(1) 0.2084(2)
O4 O 0.3630(2) 0.1097(1) 0.1054(1)
O5 O 0.0885(1) 0.1957(1) -0.0929(1)
O6 O 0.5080(1) 0.2755(1) 0.2615(1)
O7 O 0.0812(2) 0.1368(1) -0.2206(1)
O8 O 0.1649(1) 0.2239(1) -0.1966(1)
O9 O 0.0269(2) 0.1751(1) 0.0543(2)
O10 O 0.0546(2) 0.3034(1) -0.0184(1)
O11 O 0.3851(1) 0.3693(1) 0.2641(1)
O12 O 0.4064(2) 0.2581(1) 0.3925(1)
O14 O 0.1208(1) 0.2743(1) 0.1558(1)
O15 O 0.2343(1) 0.2885(1) 0.2573(2)
O16 O 0.2451(1) 0.4275(1) 0.2666(2)
O17 O 0.0056(1) 0.3834(1) 0.0789(2)
O18 O 0.2505(2) 0.2649(1) -0.0116(2)
O19 O 0.3376(2) 0.2867(1) 0.1079(1)
O20 O 0.4083(1) 0.4143(1) 0.1146(1)
O21 O 0.2263(2) 0.3786(1) -0.1326(2)
N1 N 0.1231(2) 0.4100(1) 0.1726(2)
N2 N 0.3174(2) 0.3947(1) -0.0084(2)
C1 C 0.2385(2) 0.0827(2) 0.2642(2)
C2 C 0.1787(3) 0.0430(2) 0.2514(3)
C3 C 0.1300(3) 0.0381(3) 0.3099(4)
C4 C 0.1428(4) 0.0729(2) 0.3771(4)
C5 C 0.2024(4) 0.1117(2) 0.3871(3)
C6 C 0.2514(3) 0.1172(2) 0.3314(3)
C7 C 0.4425(2) 0.0880(1) 0.1337(2)
C8 C 0.4772(3) 0.0666(2) 0.0729(3)
C9 C 0.5566(3) 0.0434(2) 0.0954(3)
C10 C 0.6006(3) 0.0426(2) 0.1773(3)
C11 C 0.5660(2) 0.0645(2) 0.2369(3)
C12 C 0.4866(2) 0.0872(2) 0.2157(2)
C13 C 0.1209(2) 0.0906(2) -0.1796(2)
C14 C 0.1883(3) 0.0928(2) -0.1116(3)
C15 C 0.2219(4) 0.0437(2) -0.0753(3)
C16 C 0.1894(4) -0.0056(2) -0.1068(4)
C17 C 0.1220(4) -0.0069(2) -0.1753(4)
C18 C 0.0875(3) 0.0414(2) -0.2122(3)
C19 C 0.1737(2) 0.2406(2) -0.2749(2)
C20 C 0.1377(2) 0.2884(2) -0.3096(2)
C21 C 0.1521(2) 0.3059(2) -0.3843(3)
C22 C 0.2021(3) 0.2754(2) -0.4226(3)
C23 C 0.2363(3) 0.2280(2) -0.3869(3)
C24 C 0.2222(3) 0.2095(2) -0.3125(3)
C25 C 0.0092(4) 0.1544(3) 0.1279(3)
C26 C 0.0582(2) 0.3362(2) -0.0894(2)
C27 C 0.3611(3) 0.2475(2) 0.4532(3)
C29 C 0.1567(2) 0.2873(1) 0.2285(2)
C30 C 0.1720(2) 0.4147(1) 0.2546(2)
C31 C 0.0411(2) 0.3903(1) 0.1518(2)
C32 C 0.0999(2) 0.2459(2) 0.3362(2)
C33 C 0.1727(3) 0.4422(2) 0.3978(2)
C34 C -0.0937(2) 0.3905(2) 0.1906(3)
C35 C 0.1030(2) 0.3005(1) 0.2909(2)
C36 C 0.1442(2) 0.3441(2) 0.3545(2)
C37 C 0.1310(2) 0.4041(2) 0.3259(2)
C38 C 0.0380(2) 0.4155(2) 0.2959(2)
C39 C -0.0002(2) 0.3786(2) 0.2223(2)
C40 C 0.0131(2) 0.3173(2) 0.2478(2)
C41 C 0.3220(2) 0.2751(1) 0.0317(2)
C42 C 0.2965(2) 0.3735(1) -0.0904(2)
C43 C 0.3969(2) 0.3931(1) 0.0461(2)
C44 C 0.4201(2) 0.2088(2) -0.0007(2)
C45 C 0.3477(2) 0.3547(2) -0.2158(2)
C46 C 0.5493(2) 0.3930(2) 0.0600(2)
C47 C 0.3960(2) 0.2699(1) -0.0094(2)
C48 C 0.3700(2) 0.2848(2) -0.1019(2)
C49 C 0.3659(2) 0.3467(2) -0.1218(2)
C50 C 0.4492(2) 0.3736(2) -0.0787(2)
C51 C 0.4668(2) 0.3660(2) 0.0154(2)
C52 C 0.4712(2) 0.3043(2) 0.0358(2)
C53 C 0.2171(2) 0.4015(1) 0.0785(2)
C54 C 0.1577(2) 0.4311(1) 0.1062(2)
C55 C 0.1318(2) 0.4830(1) 0.0742(2)
C56 C 0.1682(2) 0.5039(2) 0.0136(2)
C57 C 0.2290(2) 0.4761(2) -0.0144(2)
C58 C 0.2525(2) 0.4245(1) 0.0188(2)
C59 C 0.0694(2) 0.5164(2) 0.1056(3)
C60 C 0.2690(2) 0.5025(2) -0.0776(3)
H1 H 0.1700(3) 0.0193(2) 0.2045(3)
H2 H 0.0881(3) 0.0106(3) 0.3027(4)
H3 H 0.1097(4) 0.0696(2) 0.4163(4)
H4 H 0.2109(4) 0.1358(2) 0.4335(3)
H5 H 0.2936(3) 0.1445(2) 0.3395(3)
H6 H 0.4472(3) 0.0677(2) 0.0162(3)
H7 H 0.5803(3) 0.0280(2) 0.0539(3)
H8 H 0.6548(3) 0.0270(2) 0.1925(3)
H9 H 0.5965(2) 0.0642(2) 0.2935(3)
H10 H 0.4629(2) 0.1021(2) 0.2575(2)
H11 H 0.2114(3) 0.1270(2) -0.0900(3)
H12 H 0.2680(4) 0.0445(2) -0.0281(3)
H13 H 0.2131(4) -0.0389(2) -0.0817(4)
H14 H 0.0991(4) -0.0411(2) -0.1971(4)
H15 H 0.0414(3) 0.0405(2) -0.2594(3)
H16 H 0.1033(2) 0.3093(2) -0.2829(2)
H17 H 0.1275(2) 0.3390(2) -0.4092(3)
H18 H 0.2125(3) 0.2875(2) -0.4736(3)
H19 H 0.2707(3) 0.2070(2) -0.4135(3)
H20 H 0.2458(3) 0.1760(2) -0.2884(3)
H21 H -0.0440(4) 0.1346(3) 0.1138(3)
H22 H 0.0056(4) 0.1849(3) 0.1653(3)
H23 H 0.0537(4) 0.1293(3) 0.1555(3)
H24 H 0.0141(2) 0.3640(2) -0.0987(2)
H25 H 0.0504(2) 0.3126(2) -0.1386(2)
H26 H 0.1126(2) 0.3543(2) -0.0793(2)
H27 H 0.3998(3) 0.2455(2) 0.5083(3)
H28 H 0.3313(3) 0.2125(2) 0.4407(3)
H29 H 0.3209(3) 0.2772(2) 0.4525(3)
H30 H 0.0736(2) 0.2178(2) 0.2960(2)
H31 H 0.0673(2) 0.2507(2) 0.3778(2)
H32 H 0.1567(2) 0.2344(2) 0.3640(2)
H33 H 0.2324(3) 0.4337(2) 0.4156(2)
H34 H 0.1471(3) 0.4366(2) 0.4446(2)
H35 H 0.1652(3) 0.4805(2) 0.3793(2)
H36 H -0.1218(2) 0.3832(2) 0.2351(3)
H37 H -0.1173(2) 0.3667(2) 0.1429(3)
H38 H -0.1018(2) 0.4290(2) 0.1736(3)
H39 H 0.2049(2) 0.3368(2) 0.3708(2)
H40 H 0.1228(2) 0.3396(2) 0.4048(2)
H41 H 0.0290(2) 0.4545(2) 0.2792(2)
H42 H 0.0106(2) 0.4086(2) 0.3417(2)
H43 H -0.0230(2) 0.3085(2) 0.2855(2)
H44 H -0.0060(2) 0.2945(2) 0.1972(2)
H45 H 0.4368(2) 0.1990(2) 0.0584(2)
H46 H 0.4666(2) 0.2021(2) -0.0263(2)
H47 H 0.3721(2) 0.1864(2) -0.0286(2)
H48 H 0.3920(2) 0.3376(2) -0.2369(2)
H49 H 0.3452(2) 0.3941(2) -0.2286(2)
H50 H 0.2941(2) 0.3376(2) -0.2423(2)
H51 H 0.5951(2) 0.3761(2) 0.0411(2)
H52 H 0.5585(2) 0.3878(2) 0.1202(2)
H53 H 0.5470(2) 0.4323(2) 0.0473(2)
H54 H 0.3144(2) 0.2686(2) -0.1260(2)
H55 H 0.4098(2) 0.2675(2) -0.1300(2)
H56 H 0.4947(2) 0.3569(2) -0.0994(2)
H57 H 0.4471(2) 0.4133(2) -0.0920(2)
H58 H 0.5218(2) 0.2890(2) 0.0224(2)
H59 H 0.4780(2) 0.3000(2) 0.0965(2)
H60 H 0.2334(2) 0.3659(1) 0.1001(2)
H61 H 0.1506(2) 0.5389(2) -0.0097(2)
H62 H 0.0504(2) 0.4954(2) 0.1478(3)
H63 H 0.0217(2) 0.5250(2) 0.0592(3)
H64 H 0.0956(2) 0.5506(2) 0.1302(3)
H65 H 0.3103(2) 0.4773(2) -0.0905(3)
H66 H 0.2965(2) 0.5367(2) -0.0547(3)
H67 H 0.2261(2) 0.5105(2) -0.1285(3)
O6C O 0.0080(1) 0.2245(1) -0.2385(1)
Ca2C Ca -0.1333(1) 0.2304(1) -0.2553(1)
O13 O -0.0724(2) 0.1124(1) -0.0605(2)
C28 C -0.0494(4) 0.0565(3) -0.0527(4)
loop_
_geom_bond_atom_site_label_1
_geom_bond_atom_site_label_2
_geom_bond_site_symmetry_1
_geom_bond_site_symmetry_2
Ca1 O2 1_555 1_555
Ca2 O1 1_555 1_555
P1 O1 1_555 1_555
P2 O5 1_555 1_555
O2 P1 1_555 1_555
O3 P1 1_555 1_555
O4 P1 1_555 1_555
O5 Ca1 1_555 1_555
O6 Ca2 1_555 1_555
O7 P2 1_555 1_555
O8 P2 1_555 1_555
O9 Ca1 1_555 1_555
O10 Ca1 1_555 1_555
O11 Ca2 1_555 1_555
O12 Ca2 1_555 1_555
O13 C28 1_555 1_555
O14 Ca1 1_555 1_555
O15 Ca2 1_555 1_555
O16 C30 1_555 1_555
O17 C31 1_555 1_555
O18 Ca1 1_555 1_555
O19 Ca2 1_555 1_555
O20 C43 1_555 1_555
O21 C42 1_555 1_555
N1 C30 1_555 1_555
N2 C42 1_555 1_555
C1 O3 1_555 1_555
C2 C1 1_555 1_555
C3 C2 1_555 1_555
C4 C3 1_555 1_555
C5 C4 1_555 1_555
C6 C1 1_555 1_555
C7 O4 1_555 1_555
C8 C7 1_555 1_555
C9 C8 1_555 1_555
C10 C9 1_555 1_555
C11 C10 1_555 1_555
C12 C7 1_555 1_555
C13 O7 1_555 1_555
C14 C13 1_555 1_555
C15 C14 1_555 1_555
C16 C15 1_555 1_555
C17 C16 1_555 1_555
C18 C13 1_555 1_555
C19 O8 1_555 1_555
C20 C19 1_555 1_555
C21 C20 1_555 1_555
C22 C21 1_555 1_555
C23 C22 1_555 1_555
C24 C19 1_555 1_555
C25 O9 1_555 1_555
C26 O10 1_555 1_555
C27 O12 1_555 1_555
C29 O14 1_555 1_555
C30 C37 1_555 1_555
C31 N1 1_555 1_555
C32 C35 1_555 1_555
C33 C37 1_555 1_555
C34 C39 1_555 1_555
C35 C29 1_555 1_555
C36 C35 1_555 1_555
C37 C36 1_555 1_555
C38 C37 1_555 1_555
C39 C31 1_555 1_555
C40 C35 1_555 1_555
C41 O18 1_555 1_555
C42 C49 1_555 1_555
C43 N2 1_555 1_555
C44 C47 1_555 1_555
C45 C49 1_555 1_555
C46 C51 1_555 1_555
C47 C41 1_555 1_555
C48 C47 1_555 1_555
C49 C48 1_555 1_555
C50 C49 1_555 1_555
C51 C43 1_555 1_555
C52 C47 1_555 1_555
C53 C54 1_555 1_555
C54 N1 1_555 1_555
C55 C54 1_555 1_555
C56 C55 1_555 1_555
C57 C56 1_555 1_555
C58 N2 1_555 1_555
C59 C55 1_555 1_555
C60 C57 1_555 1_555
H1 C2 1_555 1_555
H2 C3 1_555 1_555
H3 C4 1_555 1_555
H4 C5 1_555 1_555
H5 C6 1_555 1_555
H6 C8 1_555 1_555
H7 C9 1_555 1_555
H8 C10 1_555 1_555
H9 C11 1_555 1_555
H10 C12 1_555 1_555
H11 C14 1_555 1_555
H12 C15 1_555 1_555
H13 C16 1_555 1_555
H14 C17 1_555 1_555
H15 C18 1_555 1_555
H16 C20 1_555 1_555
H17 C21 1_555 1_555
H18 C22 1_555 1_555
H19 C23 1_555 1_555
H20 C24 1_555 1_555
H21 C25 1_555 1_555
H22 C25 1_555 1_555
H23 C25 1_555 1_555
H24 C26 1_555 1_555
H25 C26 1_555 1_555
H26 C26 1_555 1_555
H27 C27 1_555 1_555
H28 C27 1_555 1_555
H29 C27 1_555 1_555
H30 C32 1_555 1_555
H31 C32 1_555 1_555
H32 C32 1_555 1_555
H33 C33 1_555 1_555
H34 C33 1_555 1_555
H35 C33 1_555 1_555
H36 C34 1_555 1_555
H37 C34 1_555 1_555
H38 C34 1_555 1_555
H39 C36 1_555 1_555
H40 C36 1_555 1_555
H41 C38 1_555 1_555
H42 C38 1_555 1_555
H43 C40 1_555 1_555
H44 C40 1_555 1_555
H45 C44 1_555 1_555
H46 C44 1_555 1_555
H47 C44 1_555 1_555
H48 C45 1_555 1_555
H49 C45 1_555 1_555
H50 C45 1_555 1_555
H51 C46 1_555 1_555
H52 C46 1_555 1_555
H53 C46 1_555 1_555
H54 C48 1_555 1_555
H55 C48 1_555 1_555
H56 C50 1_555 1_555
H57 C50 1_555 1_555
H58 C52 1_555 1_555
H59 C52 1_555 1_555
H60 C53 1_555 1_555
H61 C56 1_555 1_555
H62 C59 1_555 1_555
H63 C59 1_555 1_555
H64 C59 1_555 1_555
H65 C60 1_555 1_555
H66 C60 1_555 1_555
H67 C60 1_555 1_555
O6C P2 1_555 1_555
Ca2C O6C 1_555 1_555
O15 C29 1_555 1_555
O19 C41 1_555 1_555
C5 C6 1_555 1_555
C11 C12 1_555 1_555
C17 C18 1_555 1_555
C23 C24 1_555 1_555
C38 C39 1_555 1_555
C39 C40 1_555 1_555
C50 C51 1_555 1_555
C51 C52 1_555 1_555
C53 C58 1_555 1_555
C57 C58 1_555 1_555

#END
