
#######################################################################
#
#                 Cambridge Crystallographic Data Centre
#                                CCDC 
#
#######################################################################
#
# If this CIF has been generated from an entry in the Cambridge 
# Structural Database, then it will include bibliographic, chemical, 
# crystal, experimental, refinement or atomic coordinate data resulting 
# from the CCDC's data processing and validation procedures.
#
#######################################################################

data_RELLOK
_symmetry_cell_setting           monoclinic
_symmetry_space_group_name_H-M   'C 2/c'
_symmetry_Int_Tables_number      15
_space_group_name_Hall           '-C 2yn'
loop_
_symmetry_equiv_pos_site_id
_symmetry_equiv_pos_as_xyz
1 x,y,z
2 1/2+x,1/2+y,z
3 -x,y,1/2-z
4 1/2-x,1/2+y,1/2-z
5 -x,-y,-z
6 1/2-x,1/2-y,-z
7 x,-y,1/2+z
8 1/2+x,1/2-y,1/2+z
_cell_length_a                   18.2915(6)
_cell_length_b                   10.6420(3)
_cell_length_c                   11.5508(4)
_cell_angle_alpha                90
_cell_angle_beta                 129.16
_cell_angle_gamma                90
_cell_volume                     1743.42
loop_
_atom_site_label
_atom_site_type_symbol
_atom_site_fract_x
_atom_site_fract_y
_atom_site_fract_z
Cu1 Cu 0.0000 0.71814(6) 0.2500
Cu2 Cu 0.04800(4) 0.40744(4) 0.11903(6)
S1 S 0.05754(7) 0.62602(9) 0.14941(11)
S2 S 0.0000 1.33735(12) 0.2500
N1 N 0.3320(2) 0.8187(3) 0.3124(4)
N2 N 0.0000 0.9068(4) 0.2500
C1 C 0.2915(3) 0.8395(4) 0.3742(5)
H1 H 0.3217 0.8942 0.4551
C2 C 0.2084(3) 0.7860(3) 0.3271(5)
H2 H 0.1827 0.8071 0.3728
C3 C 0.1633(2) 0.7001(3) 0.2107(4)
C4 C 0.2039(3) 0.6762(4) 0.1457(5)
H3 H 0.1762 0.6192 0.0672
C5 C 0.2866(3) 0.7375(4) 0.1975(5)
H4 H 0.3120 0.7214 0.1502
C6 C 0.0251(3) 0.9738(3) 0.3689(5)
H5 H 0.0434 0.9307 0.4535
C7 C 0.0252(3) 1.1035(3) 0.3715(5)
H6 H 0.0424 1.1449 0.4564
C8 C 0.0000 1.1728(4) 0.2500
Cu2B Cu -0.04800(4) 0.40744(4) 0.38097(6)
Cu2D Cu -0.04800(4) 0.59256(4) -0.11903(6)
Cu2_2 Cu 0.04800(4) 1.40744(4) 0.11903(6)
Cu2B_2 Cu -0.04800(4) 1.40744(4) 0.38097(6)
Cu2C Cu 0.45200(4) 0.90744(4) 0.38097(6)
Cu2F Cu 0.04800(4) 0.59256(4) 0.61903(6)
Cu2A Cu -0.45200(4) 0.90744(4) 0.11903(6)
S1B S -0.05754(7) 0.62602(9) 0.35059(11)
S1D S -0.05754(7) 0.37398(9) -0.14941(11)
S1F S 0.05754(7) 0.37398(9) 0.64941(11)
S2_2 S 0.0000 0.33735(12) 0.2500
N1B N -0.3320(2) 0.8187(3) 0.1876(4)
N1C N 0.1680(2) 0.3187(3) 0.1876(4)
N1A N -0.1680(2) 0.3187(3) 0.3124(4)
C1B C -0.2915(3) 0.8395(4) 0.1258(5)
H1B H -0.3217 0.8942 0.0449
C2B C -0.2084(3) 0.7860(3) 0.1729(5)
H2B H -0.1827 0.8071 0.1272
C3B C -0.1633(2) 0.7001(3) 0.2893(4)
C4B C -0.2039(3) 0.6762(4) 0.3543(5)
H3B H -0.1762 0.6192 0.4328
C5B C -0.2866(3) 0.7375(4) 0.3025(5)
H4B H -0.3120 0.7214 0.3498
C6B C -0.0251(3) 0.9738(3) 0.1311(5)
H5B H -0.0434 0.9307 0.0465
C7B C -0.0252(3) 1.1035(3) 0.1285(5)
H6B H -0.0424 1.1449 0.0436
loop_
_geom_bond_atom_site_label_1
_geom_bond_atom_site_label_2
_geom_bond_site_symmetry_1
_geom_bond_site_symmetry_2
Cu1 S1 1_555 1_555
Cu2 S1 1_555 1_555
S1 C3 1_555 1_555
S2 C8 1_555 1_555
N1 C1 1_555 1_555
N2 Cu1 1_555 1_555
C1 H1 1_555 1_555
C2 C1 1_555 1_555
H2 C2 1_555 1_555
C3 C2 1_555 1_555
C4 C3 1_555 1_555
H3 C4 1_555 1_555
C5 N1 1_555 1_555
H4 C5 1_555 1_555
C6 N2 1_555 1_555
H5 C6 1_555 1_555
C7 C6 1_555 1_555
H6 C7 1_555 1_555
C8 C7 1_555 1_555
Cu2B S1B 1_555 1_555
Cu2D S1 1_555 1_555
Cu2_2 S2 1_555 1_555
Cu2B_2 S2 1_555 1_555
Cu2C N1 1_555 1_555
Cu2F S1B 1_555 1_555
Cu2A N1B 1_555 1_555
S1B Cu1 1_555 1_555
S1D Cu2 1_555 1_555
S1F Cu2B 1_555 1_555
S2_2 Cu2 1_555 1_555
N1B C1B 1_555 1_555
N1C Cu2 1_555 1_555
N1A Cu2B 1_555 1_555
C1B H1B 1_555 1_555
C2B C1B 1_555 1_555
H2B C2B 1_555 1_555
C3B S1B 1_555 1_555
C4B C3B 1_555 1_555
H3B C4B 1_555 1_555
C5B N1B 1_555 1_555
H4B C5B 1_555 1_555
C6B N2 1_555 1_555
H5B C6B 1_555 1_555
C7B C8 1_555 1_555
H6B C7B 1_555 1_555
C4 C5 1_555 1_555
Cu2B S2_2 1_555 1_555
Cu2D S1D 1_555 1_555
Cu2F S1F 1_555 1_555
C2B C3B 1_555 1_555
C4B C5B 1_555 1_555
C6B C7B 1_555 1_555

#END
