
#######################################################################
#
#                 Cambridge Crystallographic Data Centre
#                                CCDC 
#
#######################################################################
#
# If this CIF has been generated from an entry in the Cambridge 
# Structural Database, then it will include bibliographic, chemical, 
# crystal, experimental, refinement or atomic coordinate data resulting 
# from the CCDC's data processing and validation procedures.
#
#######################################################################

data_RELTUY
_symmetry_cell_setting           monoclinic
_symmetry_space_group_name_H-M   'P 21/c'
_symmetry_Int_Tables_number      14
_space_group_name_Hall           '-P 2ybc'
loop_
_symmetry_equiv_pos_site_id
_symmetry_equiv_pos_as_xyz
1 x,y,z
2 -x,1/2+y,1/2-z
3 -x,-y,-z
4 x,1/2-y,1/2+z
_cell_length_a                   12.603(3)
_cell_length_b                   10.602(2)
_cell_length_c                   25.621(6)
_cell_angle_alpha                90
_cell_angle_beta                 95.971(4)
_cell_angle_gamma                90
_cell_volume                     3404.83
loop_
_atom_site_label
_atom_site_type_symbol
_atom_site_fract_x
_atom_site_fract_y
_atom_site_fract_z
Cu1 Cu 0.74834(4) 0.60496(4) 0.236500(18)
Cu2 Cu 0.19808(4) 0.76551(5) 0.482390(19)
O1 O 0.1319(2) 0.9704(3) 0.46606(12)
O2 O 0.2860(2) 0.7998(3) 0.42779(12)
O3 O 0.4363(3) 0.6904(3) 0.43718(13)
O4 O 0.7348(2) 0.7200(3) 0.16163(11)
O5 O 0.8765(2) 0.5255(3) 0.21486(11)
O6 O 0.8761(2) 0.3674(3) 0.27269(11)
O7 O 0.6213(2) 0.6741(3) 0.26502(11)
O8 O 0.5840(3) 0.8332(4) 0.20954(15)
O9 O 1.0838(2) 0.4462(3) 0.05998(11)
O10 O 1.2426(2) 0.3530(3) 0.07921(11)
N1 N 0.0835(3) 0.6739(3) 0.43549(14)
N2 N 0.0961(3) 0.7331(3) 0.53190(13)
N3 N 0.2838(3) 0.8282(3) 0.54891(14)
N4 N 0.3411(2) 0.9590(3) 0.29072(13)
N5 N 1.1625(2) 0.2361(3) 0.22275(12)
C1 C 0.0910(4) 0.6352(4) 0.38590(17)
H1 H 0.1537 0.6543 0.3699
C2 C 0.0107(4) 0.5688(4) 0.35790(18)
H2 H 0.0182 0.5414 0.3232
C3 C -0.0810(4) 0.5426(4) 0.38075(19)
H3 H -0.1378 0.4982 0.3616
C4 C -0.0902(4) 0.5811(4) 0.43192(18)
H4 H -0.1527 0.5632 0.4483
C5 C -0.0053(3) 0.6467(4) 0.45846(16)
C6 C 0.0002(3) 0.6885(4) 0.51372(16)
C7 C -0.0812(4) 0.6834(4) 0.54651(18)
H5 H -0.1502 0.6533 0.5340
C8 C -0.0586(4) 0.7233(4) 0.59756(18)
H6 H -0.1132 0.7213 0.6204
C9 C 0.0415(4) 0.7662(4) 0.61632(17)
H7 H 0.0570 0.7911 0.6519
C10 C 0.1194(3) 0.7718(4) 0.58133(16)
C11 C 0.2310(3) 0.8180(4) 0.59230(16)
C12 C 0.2768(4) 0.8493(5) 0.64198(19)
H8 H 0.2391 0.8385 0.6719
C13 C 0.3796(4) 0.8968(5) 0.6466(2)
H9 H 0.4131 0.9213 0.6800
C14 C 0.4331(4) 0.9085(5) 0.6027(2)
H10 H 0.5042 0.9397 0.6057
C15 C 0.3821(4) 0.8741(4) 0.5538(2)
H11 H 0.4187 0.8839 0.5234
C16 C 0.3712(3) 0.7605(4) 0.41210(17)
C17 C 0.3927(3) 0.8109(4) 0.35938(16)
C18 C 0.4740(3) 0.7643(4) 0.33179(15)
H12 H 0.5199 0.6992 0.3461
C19 C 0.4862(3) 0.8158(4) 0.28255(15)
C20 C 0.4193(3) 0.9129(4) 0.26382(16)
H13 H 0.4287 0.9487 0.2306
C21 C 0.3283(3) 0.9071(4) 0.33720(15)
H14 H 0.2724 0.9375 0.3560
C22 C 0.9119(3) 0.4231(4) 0.23626(15)
C23 C 0.5708(3) 0.7716(4) 0.24882(17)
C24 C 1.0741(3) 0.2839(4) 0.24091(15)
H15 H 1.0558 0.2564 0.2741
C25 C 1.0090(3) 0.3712(4) 0.21314(15)
C26 C 1.0343(3) 0.4081(4) 0.16395(15)
H16 H 0.9905 0.4670 0.1438
C27 C 1.1237(3) 0.3586(4) 0.14454(14)
C28 C 1.1871(3) 0.2750(4) 0.17577(15)
H17 H 1.2506 0.2442 0.1633
C29 C 1.1539(3) 0.3877(4) 0.08990(15)
H21 H 0.120(4) 0.995(5) 0.496(2)
H22 H 0.065(4) 0.958(4) 0.4507(18)
Cu1A Cu 0.25166(4) 1.10496(4) 0.263500(18)
Cu1A_2 Cu 1.25166(4) 0.10496(4) 0.263500(18)
N4A N 0.6589(2) 0.4590(3) 0.20928(13)
N5A N 0.8375(2) 0.7361(3) 0.27725(12)
O11 O 0.3535(3) 0.2143(3) 0.01660(13)
O12 O 0.6881(2) 0.6078(3) 0.06542(12)
O13 O 0.2972(3) 0.9596(4) 0.99169(18)
N6 N 0.3402(5) 0.9855(6) 0.1295(2)
C30 C 0.5071(5) 0.9077(6) 0.0898(3)
H18 H 0.5323 0.8296 0.1075
H19 H 0.5637 0.9714 0.0941
H20 H 0.4882 0.8910 0.0524
C31 C 0.4178(5) 0.9518(5) 0.1118(2)
loop_
_geom_bond_atom_site_label_1
_geom_bond_atom_site_label_2
_geom_bond_site_symmetry_1
_geom_bond_site_symmetry_2
Cu1 O4 1_555 1_555
Cu2 O1 1_555 1_555
O1 H21 1_555 1_555
O2 Cu2 1_555 1_555
O3 C16 1_555 1_555
O5 Cu1 1_555 1_555
O6 C22 1_555 1_555
O7 Cu1 1_555 1_555
O8 C23 1_555 1_555
O9 C29 1_555 1_555
O10 C29 1_555 1_555
N1 Cu2 1_555 1_555
N2 Cu2 1_555 1_555
N3 Cu2 1_555 1_555
N4 C20 1_555 1_555
N5 C24 1_555 1_555
N6 C31 1_555 1_555
C1 N1 1_555 1_555
H1 C1 1_555 1_555
C2 C1 1_555 1_555
H2 C2 1_555 1_555
C3 C2 1_555 1_555
H3 C3 1_555 1_555
C4 C3 1_555 1_555
H4 C4 1_555 1_555
C5 N1 1_555 1_555
C6 N2 1_555 1_555
C7 C6 1_555 1_555
H5 C7 1_555 1_555
C8 C7 1_555 1_555
H6 C8 1_555 1_555
C9 C8 1_555 1_555
H7 C9 1_555 1_555
C10 N2 1_555 1_555
C11 N3 1_555 1_555
C12 C11 1_555 1_555
H8 C12 1_555 1_555
C13 C12 1_555 1_555
H9 C13 1_555 1_555
C14 C13 1_555 1_555
H10 C14 1_555 1_555
C15 N3 1_555 1_555
H11 C15 1_555 1_555
C16 O2 1_555 1_555
C17 C16 1_555 1_555
C18 C17 1_555 1_555
H12 C18 1_555 1_555
C19 C18 1_555 1_555
C20 C19 1_555 1_555
H13 C20 1_555 1_555
C21 N4 1_555 1_555
H14 C21 1_555 1_555
C22 O5 1_555 1_555
C23 O7 1_555 1_555
C24 H15 1_555 1_555
C25 C22 1_555 1_555
C26 C25 1_555 1_555
H16 C26 1_555 1_555
C27 C26 1_555 1_555
C28 N5 1_555 1_555
H17 C28 1_555 1_555
C29 C27 1_555 1_555
C30 H18 1_555 1_555
H19 C30 1_555 1_555
H20 C30 1_555 1_555
C31 C30 1_555 1_555
H22 O1 1_555 1_555
Cu1A N4 1_555 1_555
Cu1A_2 N5 1_555 1_555
N4A Cu1 1_555 1_555
N5A Cu1 1_555 1_555
C4 C5 1_555 1_555
C5 C6 1_555 1_555
C9 C10 1_555 1_555
C10 C11 1_555 1_555
C14 C15 1_555 1_555
C17 C21 1_555 1_555
C19 C23 1_555 1_555
C24 C25 1_555 1_555
C27 C28 1_555 1_555

#END
