
#######################################################################
#
#                 Cambridge Crystallographic Data Centre
#                                CCDC 
#
#######################################################################
#
# If this CIF has been generated from an entry in the Cambridge 
# Structural Database, then it will include bibliographic, chemical, 
# crystal, experimental, refinement or atomic coordinate data resulting 
# from the CCDC's data processing and validation procedures.
#
#######################################################################

data_RELTIM
_symmetry_cell_setting           orthorhombic
_symmetry_space_group_name_H-M   'P b c n'
_symmetry_Int_Tables_number      60
_space_group_name_Hall           '-P 2n 2ab'
loop_
_symmetry_equiv_pos_site_id
_symmetry_equiv_pos_as_xyz
1 x,y,z
2 1/2-x,1/2-y,1/2+z
3 -x,y,1/2-z
4 1/2+x,1/2-y,-z
5 -x,-y,-z
6 1/2+x,1/2+y,1/2-z
7 x,-y,1/2+z
8 1/2-x,1/2+y,z
_cell_length_a                   28.389(6)
_cell_length_b                   15.020(3)
_cell_length_c                   17.060(3)
_cell_angle_alpha                90
_cell_angle_beta                 90
_cell_angle_gamma                90
_cell_volume                     7274.43
loop_
_atom_site_label
_atom_site_type_symbol
_atom_site_fract_x
_atom_site_fract_y
_atom_site_fract_z
Ag1 Ag 0.743278(15) 0.61778(3) 0.22158(3)
N1 N 0.80957(15) 0.5349(2) 0.1997(2)
C1 C 0.81929(19) 0.4590(3) 0.2360(3)
H1 H 0.7973 0.4358 0.2708
C2 C 0.8612(2) 0.4128(3) 0.2238(3)
H2 H 0.8669 0.3593 0.2496
C3 C 0.89392(19) 0.4477(3) 0.1729(3)
C4 C 0.8839(2) 0.5266(3) 0.1359(4)
H3 H 0.9054 0.5519 0.1013
C5 C 0.8421(2) 0.5669(3) 0.1506(4)
H4 H 0.8357 0.6202 0.1250
C6 C 0.9390(2) 0.4030(4) 0.1509(5)
O1 O 0.9699(2) 0.4391(4) 0.1150(6)
O2 O 0.93891(14) 0.3180(3) 0.1687(3)
C7 C 0.9808(2) 0.2690(5) 0.1415(5)
H5 H 0.9878 0.2843 0.0875
H6 H 1.0079 0.2838 0.1736
C8 C 0.9701(2) 0.1764(5) 0.1480(6)
H7 H 0.9983 0.1423 0.1369
H8 H 0.9608 0.1636 0.2016
O3 O 0.93405(18) 0.1483(3) 0.0974(4)
C9 C 0.9391(3) 0.0706(4) 0.0592(4)
H9 H 0.9544 0.0284 0.0939
H10 H 0.9597 0.0799 0.0146
C10 C 0.8969(3) 0.0333(4) 0.0325(5)
H11 H 0.8763 0.0222 0.0768
H12 H 0.9034 -0.0232 0.0072
O4 O 0.80362(19) 0.0384(3) 0.0146(3)
O5 O 0.87378(15) 0.0921(2) -0.0222(2)
C11 C 0.8271(2) 0.0868(3) -0.0244(3)
N2 N 0.76760(13) 0.2775(2) -0.1817(2)
C12 C 0.81436(17) 0.2708(3) -0.1723(3)
H13 H 0.8336 0.3090 -0.2008
C13 C 0.83548(16) 0.2109(3) -0.1229(3)
H14 H 0.8681 0.2093 -0.1174
C14 C 0.80684(17) 0.1525(3) -0.0815(3)
C15 C 0.75881(18) 0.1584(3) -0.0906(3)
H15 H 0.7388 0.1204 -0.0633
C16 C 0.74078(18) 0.2214(3) -0.1409(3)
H16 H 0.7083 0.2250 -0.1467
N3 N 0.72372(14) 0.7290(2) 0.1303(2)
C17 C 0.75239(17) 0.7881(3) 0.0960(3)
H17 H 0.7843 0.7863 0.1079
C18 C 0.73688(18) 0.8512(3) 0.0441(3)
H18 H 0.7579 0.8911 0.0214
C19 C 0.68968(17) 0.8546(3) 0.0259(3)
C20 C 0.65958(16) 0.7933(3) 0.0610(3)
H19 H 0.6275 0.7935 0.0496
C21 C 0.67793(15) 0.7331(3) 0.1123(3)
H20 H 0.6576 0.6927 0.1360
C22 C 0.6724(2) 0.9196(3) -0.0330(3)
O6 O 0.69727(18) 0.9669(2) -0.0722(3)
O7 O 0.62582(16) 0.9160(3) -0.0393(3)
C23 C 0.6063(3) 0.9693(4) -0.1039(5)
H21 H 0.6073 1.0321 -0.0906
H22 H 0.6246 0.9601 -0.1512
C24 C 0.5586(3) 0.9421(4) -0.1163(5)
H23 H 0.5411 0.9508 -0.0681
H24 H 0.5447 0.9799 -0.1561
O8 O 0.5542(2) 0.8535(3) -0.1395(3)
C25 C 0.5246(4) 0.8100(8) -0.1312(14)
H25 H 0.5001 0.8404 -0.1603
H26 H 0.5169 0.8202 -0.0765
C26 C 0.5121(2) 0.7213(4) -0.1409(5)
H27 H 0.4834 0.7171 -0.1715
H28 H 0.5065 0.6940 -0.0902
O9 O 0.55051(12) 0.6752(2) -0.1812(3)
O10 O 0.51592(17) 0.5480(3) -0.1522(4)
C27 C 0.54813(17) 0.5879(3) -0.1794(3)
N4 N 0.67450(15) 0.4589(2) -0.2531(2)
C28 C 0.66233(18) 0.5370(3) -0.2847(3)
H29 H 0.6821 0.5622 -0.3221
C29 C 0.62151(18) 0.5819(3) -0.2642(3)
H30 H 0.6143 0.6365 -0.2869
C30 C 0.59198(16) 0.5444(3) -0.2098(2)
C31 C 0.6039(2) 0.4623(3) -0.1792(3)
H31 H 0.5842 0.4340 -0.1434
C32 C 0.6451(2) 0.4234(3) -0.2022(4)
H32 H 0.6528 0.3684 -0.1808
Ag1F Ag 0.743278(15) 0.38222(3) -0.27842(3)
N2F N 0.76760(13) 0.7225(2) 0.3183(2)
N4F N 0.67450(15) 0.5411(2) 0.2469(2)
P1 P 0.89177(5) 0.24927(8) 0.48519(9)
F1 F 0.85411(12) 0.1736(2) 0.4709(3)
F2 F 0.85121(12) 0.3207(2) 0.4891(2)
F3 F 0.92935(14) 0.3246(2) 0.4980(3)
F4 F 0.93274(13) 0.1783(2) 0.4805(3)
F5 F 0.88749(18) 0.2355(3) 0.5761(2)
F6 F 0.89503(16) 0.2631(3) 0.3926(2)
loop_
_geom_bond_atom_site_label_1
_geom_bond_atom_site_label_2
_geom_bond_site_symmetry_1
_geom_bond_site_symmetry_2
Ag1 N1 1_555 1_555
N1 C1 1_555 1_555
C1 H1 1_555 1_555
C2 C1 1_555 1_555
H2 C2 1_555 1_555
C3 C2 1_555 1_555
C4 C3 1_555 1_555
H3 C4 1_555 1_555
C5 N1 1_555 1_555
H4 C5 1_555 1_555
C6 C3 1_555 1_555
O1 C6 1_555 1_555
O2 C6 1_555 1_555
C7 O2 1_555 1_555
H5 C7 1_555 1_555
H6 C7 1_555 1_555
C8 C7 1_555 1_555
H7 C8 1_555 1_555
H8 C8 1_555 1_555
O3 C8 1_555 1_555
C9 O3 1_555 1_555
H9 C9 1_555 1_555
H10 C9 1_555 1_555
C10 C9 1_555 1_555
H11 C10 1_555 1_555
H12 C10 1_555 1_555
O4 C11 1_555 1_555
O5 C10 1_555 1_555
C11 O5 1_555 1_555
N2 C12 1_555 1_555
C12 H13 1_555 1_555
C13 C12 1_555 1_555
H14 C13 1_555 1_555
C14 C11 1_555 1_555
C15 C14 1_555 1_555
H15 C15 1_555 1_555
C16 N2 1_555 1_555
H16 C16 1_555 1_555
N3 Ag1 1_555 1_555
C17 N3 1_555 1_555
H17 C17 1_555 1_555
C18 C17 1_555 1_555
H18 C18 1_555 1_555
C19 C18 1_555 1_555
C20 C19 1_555 1_555
H19 C20 1_555 1_555
C21 N3 1_555 1_555
H20 C21 1_555 1_555
C22 C19 1_555 1_555
O6 C22 1_555 1_555
O7 C22 1_555 1_555
C23 O7 1_555 1_555
H21 C23 1_555 1_555
H22 C23 1_555 1_555
C24 C23 1_555 1_555
H23 C24 1_555 1_555
H24 C24 1_555 1_555
O8 C24 1_555 1_555
C25 O8 1_555 1_555
H25 C25 1_555 1_555
H26 C25 1_555 1_555
C26 C25 1_555 1_555
H27 C26 1_555 1_555
H28 C26 1_555 1_555
O9 C26 1_555 1_555
O10 C27 1_555 1_555
C27 O9 1_555 1_555
N4 C28 1_555 1_555
C28 H29 1_555 1_555
C29 C28 1_555 1_555
H30 C29 1_555 1_555
C30 C27 1_555 1_555
C31 C30 1_555 1_555
H31 C31 1_555 1_555
C32 N4 1_555 1_555
H32 C32 1_555 1_555
P1 F1 1_555 1_555
F2 P1 1_555 1_555
F3 P1 1_555 1_555
F4 P1 1_555 1_555
F5 P1 1_555 1_555
F6 P1 1_555 1_555
Ag1F N2 1_555 1_555
N2F Ag1 1_555 1_555
N4F Ag1 1_555 1_555
C4 C5 1_555 1_555
C13 C14 1_555 1_555
C15 C16 1_555 1_555
C20 C21 1_555 1_555
N4 Ag1F 1_555 1_555
C29 C30 1_555 1_555
C31 C32 1_555 1_555

#END
