
#######################################################################
#
#                 Cambridge Crystallographic Data Centre
#                                CCDC 
#
#######################################################################
#
# If this CIF has been generated from an entry in the Cambridge 
# Structural Database, then it will include bibliographic, chemical, 
# crystal, experimental, refinement or atomic coordinate data resulting 
# from the CCDC's data processing and validation procedures.
#
#######################################################################

data_RELTOS
_symmetry_cell_setting           triclinic
_symmetry_space_group_name_H-M   'P 1'
_symmetry_Int_Tables_number      1
_space_group_name_Hall           'P 1'
loop_
_symmetry_equiv_pos_site_id
_symmetry_equiv_pos_as_xyz
1 x,y,z
_cell_length_a                   7.8264(13)
_cell_length_b                   10.0763(16)
_cell_length_c                   14.114(2)
_cell_angle_alpha                70.216(3)
_cell_angle_beta                 75.354(3)
_cell_angle_gamma                81.848(3)
_cell_volume                     1011.38
loop_
_atom_site_label
_atom_site_type_symbol
_atom_site_fract_x
_atom_site_fract_y
_atom_site_fract_z
Cu1 Cu 1.18916(7) -0.09987(6) 0.14747(4)
Cu2 Cu 1.53070(7) 0.17555(6) 0.60071(4)
O1 O 1.1953(6) -0.0313(4) 0.2578(3)
O2 O 0.9038(6) -0.0399(5) 0.2793(4)
O3 O 1.1942(5) 0.1755(5) 0.6380(3)
O4 O 1.4837(6) -0.1638(5) 0.1197(3)
O5 O 1.4079(5) 0.1357(4) 0.5114(3)
N1 N 1.1215(7) -0.2983(5) 0.2283(4)
N2 N 1.1227(7) -0.1524(6) 0.0434(4)
N3 N 1.2060(7) 0.0877(6) 0.0340(4)
N4 N 1.5182(7) -0.0161(6) 0.7109(4)
N5 N 1.5988(7) 0.2181(6) 0.7107(4)
N6 N 1.5495(7) 0.3879(6) 0.5345(4)
N7 N 0.7978(6) 0.1235(5) 0.5197(4)
C1 C 1.1190(8) -0.3639(6) 0.3274(4)
H1 H 1.1594 -0.3174 0.3653
C2 C 1.0593(9) -0.4981(7) 0.3772(4)
H2 H 1.0596 -0.5439 0.4480
C3 C 0.9991(9) -0.5644(7) 0.3219(5)
H3 H 0.9570 -0.6565 0.3545
C4 C 1.0004(8) -0.4969(6) 0.2205(5)
H4 H 0.9580 -0.5407 0.1817
C5 C 1.0636(8) -0.3651(6) 0.1751(4)
C6 C 1.0664(8) -0.2800(6) 0.0669(5)
C7 C 1.0146(9) -0.3191(7) -0.0064(5)
H5 H 0.9758 -0.4108 0.0094
C8 C 1.0210(9) -0.2205(8) -0.1032(5)
H6 H 0.9887 -0.2454 -0.1553
C9 C 1.0747(9) -0.0842(7) -0.1253(5)
H7 H 1.0782 -0.0160 -0.1914
C10 C 1.1223(8) -0.0520(7) -0.0484(5)
C11 C 1.1713(8) 0.0866(7) -0.0542(5)
C12 C 1.1735(9) 0.2075(7) -0.1402(5)
H8 H 1.1497 0.2044 -0.2021
C13 C 1.2119(9) 0.3320(7) -0.1313(6)
H9 H 1.2147 0.4166 -0.1880
C14 C 1.2461(10) 0.3348(7) -0.0413(6)
H10 H 1.2724 0.4203 -0.0351
C15 C 1.2413(9) 0.2102(7) 0.0401(5)
H11 H 1.2640 0.2116 0.1027
C16 C 1.0344(7) -0.0134(6) 0.3026(4)
C17 C 1.0060(7) 0.0461(6) 0.3898(4)
C18 C 0.8342(8) 0.0751(6) 0.4398(4)
H12 H 0.7385 0.0594 0.4155
C19 C 0.9338(7) 0.1413(6) 0.5535(4)
H13 H 0.9088 0.1717 0.6126
C20 C 1.1096(7) 0.1185(6) 0.5085(4)
C21 C 1.1467(7) 0.0701(6) 0.4245(4)
H14 H 1.2656 0.0534 0.3912
C22 C 1.2443(7) 0.1451(6) 0.5573(4)
C23 C 1.4758(9) -0.1345(7) 0.7028(6)
H15 H 1.4437 -0.1316 0.6415
C24 C 1.4773(10) -0.2609(9) 0.7809(6)
H16 H 1.4419 -0.3433 0.7746
C25 C 1.5303(10) -0.2677(9) 0.8685(6)
H17 H 1.5365 -0.3547 0.9223
C26 C 1.5735(10) -0.1458(9) 0.8751(5)
H18 H 1.6085 -0.1471 0.9352
C27 C 1.5674(8) -0.0209(7) 0.7967(5)
C28 C 1.6137(9) 0.1162(8) 0.7965(5)
C29 C 1.6688(10) 0.1459(9) 0.8732(6)
H19 H 1.6759 0.0741 0.9366
C30 C 1.7117(10) 0.2780(9) 0.8561(6)
H20 H 1.7519 0.2988 0.9073
C31 C 1.6980(10) 0.3833(9) 0.7654(6)
H21 H 1.7297 0.4761 0.7535
C32 C 1.6372(9) 0.3520(8) 0.6914(5)
C33 C 1.6157(8) 0.4479(7) 0.5890(6)
C34 C 1.6566(9) 0.5877(7) 0.5498(6)
H22 H 1.7031 0.6283 0.5889
C35 C 1.6290(10) 0.6700(7) 0.4513(6)
H23 H 1.6571 0.7662 0.4226
C36 C 1.5600(10) 0.6065(7) 0.3980(6)
H24 H 1.5367 0.6590 0.3321
C37 C 1.5250(8) 0.4649(7) 0.4417(5)
H25 H 1.4815 0.4211 0.4032
Cu2_2 Cu 0.53070(7) 0.17555(6) 0.60071(4)
N7_2 N 1.7978(6) 0.1235(5) 0.5197(4)
P1 P 0.5649(3) 0.4040(2) 0.14875(16)
F1 F 0.7113(8) 0.4550(9) 0.0445(5)
F2 F 0.4178(6) 0.4898(6) 0.0866(4)
F3 F 0.6045(11) 0.5428(7) 0.1667(7)
F4 F 0.7112(8) 0.3215(5) 0.2084(5)
F5 F 0.5486(10) 0.2769(7) 0.1130(7)
F6 F 0.4245(9) 0.3562(11) 0.2451(5)
P2 P 0.0853(2) 0.68843(17) 0.62659(12)
F7 F 0.1995(6) 0.7560(4) 0.5137(3)
F8 F -0.0886(5) 0.7695(4) 0.5930(3)
F9 F 0.1161(6) 0.8193(4) 0.6583(3)
F10 F 0.2596(6) 0.6057(5) 0.6631(4)
F11 F 0.0531(7) 0.5568(4) 0.5956(3)
F12 F -0.0290(5) 0.6162(4) 0.7401(3)
O6 O 0.7181(7) 0.0018(6) 0.1321(4)
loop_
_geom_bond_atom_site_label_1
_geom_bond_atom_site_label_2
_geom_bond_site_symmetry_1
_geom_bond_site_symmetry_2
Cu1 O1 1_555 1_555
Cu2 O5 1_555 1_555
P1 F1 1_555 1_555
P2 F7 1_555 1_555
F2 P1 1_555 1_555
F3 P1 1_555 1_555
F4 P1 1_555 1_555
F5 P1 1_555 1_555
F6 P1 1_555 1_555
F8 P2 1_555 1_555
F9 P2 1_555 1_555
F10 P2 1_555 1_555
F11 P2 1_555 1_555
F12 P2 1_555 1_555
O1 C16 1_555 1_555
O2 C16 1_555 1_555
O3 C22 1_555 1_555
O4 Cu1 1_555 1_555
O5 C22 1_555 1_555
N1 Cu1 1_555 1_555
N2 Cu1 1_555 1_555
N3 Cu1 1_555 1_555
N4 Cu2 1_555 1_555
N5 Cu2 1_555 1_555
N6 Cu2 1_555 1_555
N7 C18 1_555 1_555
C1 N1 1_555 1_555
H1 C1 1_555 1_555
C2 C1 1_555 1_555
H2 C2 1_555 1_555
C3 C2 1_555 1_555
H3 C3 1_555 1_555
C4 C3 1_555 1_555
H4 C4 1_555 1_555
C5 N1 1_555 1_555
C6 N2 1_555 1_555
C7 C6 1_555 1_555
H5 C7 1_555 1_555
C8 C7 1_555 1_555
H6 C8 1_555 1_555
C9 C8 1_555 1_555
H7 C9 1_555 1_555
C10 N2 1_555 1_555
C11 N3 1_555 1_555
C12 C11 1_555 1_555
H8 C12 1_555 1_555
C13 C12 1_555 1_555
H9 C13 1_555 1_555
C14 C13 1_555 1_555
H10 C14 1_555 1_555
C15 N3 1_555 1_555
H11 C15 1_555 1_555
C16 C17 1_555 1_555
C17 C18 1_555 1_555
C18 H12 1_555 1_555
C19 N7 1_555 1_555
H13 C19 1_555 1_555
C20 C19 1_555 1_555
C21 C17 1_555 1_555
H14 C21 1_555 1_555
C22 C20 1_555 1_555
C23 N4 1_555 1_555
H15 C23 1_555 1_555
C24 C23 1_555 1_555
H16 C24 1_555 1_555
C25 C24 1_555 1_555
H17 C25 1_555 1_555
C26 C25 1_555 1_555
H18 C26 1_555 1_555
C27 N4 1_555 1_555
C28 N5 1_555 1_555
C29 C28 1_555 1_555
H19 C29 1_555 1_555
C30 C29 1_555 1_555
H20 C30 1_555 1_555
C31 C30 1_555 1_555
H21 C31 1_555 1_555
C32 N5 1_555 1_555
C33 N6 1_555 1_555
C34 C33 1_555 1_555
H22 C34 1_555 1_555
C35 C34 1_555 1_555
H23 C35 1_555 1_555
C36 C35 1_555 1_555
H24 C36 1_555 1_555
C37 N6 1_555 1_555
H25 C37 1_555 1_555
Cu2_2 N7 1_555 1_555
N7_2 Cu2 1_555 1_555
C4 C5 1_555 1_555
C5 C6 1_555 1_555
C9 C10 1_555 1_555
C10 C11 1_555 1_555
C14 C15 1_555 1_555
C20 C21 1_555 1_555
C26 C27 1_555 1_555
C27 C28 1_555 1_555
C31 C32 1_555 1_555
C32 C33 1_555 1_555
C36 C37 1_555 1_555

#END
