
#######################################################################
#
#                 Cambridge Crystallographic Data Centre
#                                CCDC 
#
#######################################################################
#
# If this CIF has been generated from an entry in the Cambridge 
# Structural Database, then it will include bibliographic, chemical, 
# crystal, experimental, refinement or atomic coordinate data resulting 
# from the CCDC's data processing and validation procedures.
#
#######################################################################

data_RELVIP
_symmetry_cell_setting           monoclinic
_symmetry_space_group_name_H-M   'C 2/c'
_symmetry_Int_Tables_number      15
_space_group_name_Hall           '-C 2yn'
loop_
_symmetry_equiv_pos_site_id
_symmetry_equiv_pos_as_xyz
1 x,y,z
2 -x,y,1/2-z
3 1/2+x,1/2+y,z
4 1/2-x,1/2+y,1/2-z
5 -x,-y,-z
6 x,-y,1/2+z
7 1/2-x,1/2-y,-z
8 1/2+x,1/2-y,1/2+z
_cell_length_a                   26.2488(8)
_cell_length_b                   7.6578(3)
_cell_length_c                   17.5445(7)
_cell_angle_alpha                90
_cell_angle_beta                 116.002(3)
_cell_angle_gamma                90
_cell_volume                     3169.62
loop_
_atom_site_label
_atom_site_type_symbol
_atom_site_fract_x
_atom_site_fract_y
_atom_site_fract_z
Cl1 Cl 0.66245(3) 0.03444(8) 0.41287(4)
Cl2 Cl 0.68049(3) 0.31865(8) 0.53219(3)
P1 P 0.57155(3) 0.12553(8) 0.46304(4)
P2 P 0.60541(2) 0.37248(8) 0.34932(4)
Cd1 Cd 0.5000 0.05298(3) 0.2500
Cd2 Cd 0.5000 0.5000 0.5000
O1 O 0.43819(7) -0.1737(2) 0.24266(10)
H1 H 0.4474 -0.2385 0.2856
H2 H 0.4298 -0.2517 0.2023
O2 O 0.52362(7) 0.4638(2) 0.64457(10)
H3 H 0.5420 0.5517 0.6748
H4 H 0.4929 0.4687 0.6507
O3 O 0.41722(7) 0.3591(2) 0.47233(10)
H5 H 0.4041 0.3966 0.5045
H6 H 0.4177 0.2421 0.4757
O4 O 0.73103(8) 0.6093(3) 0.27664(12)
O5 O 0.53389(8) 0.0179(2) 0.38962(11)
O6 O 0.54797(8) 0.2725(2) 0.49231(11)
O7 O 0.60355(7) -0.0065(2) 0.53937(10)
O8 O 0.56535(7) 0.2737(2) 0.27195(9)
O9 O 0.58345(7) 0.5285(2) 0.37785(10)
N1 N 0.66045(8) 0.4329(3) 0.33604(12)
C1 C 0.62869(10) 0.2129(3) 0.43882(14)
C2 C 0.70034(10) 0.5686(3) 0.38770(15)
H7 H 0.7366 0.5141 0.4269
H8 H 0.6845 0.6307 0.4219
C3 C 0.71064(12) 0.6969(4) 0.33005(17)
H9 H 0.6749 0.7585 0.2944
H10 H 0.7388 0.7851 0.3649
C4 C 0.69050(12) 0.4819(4) 0.22521(17)
H11 H 0.7045 0.4245 0.1875
H12 H 0.6543 0.5408 0.1891
C5 C 0.68032(11) 0.3450(3) 0.27952(15)
H13 H 0.6515 0.2601 0.2430
H14 H 0.7159 0.2808 0.3135
C6 C 0.62157(13) 0.0444(4) 0.62767(15)
H15 H 0.6168 0.1707 0.6308
H16 H 0.6616 0.0137 0.6610
H17 H 0.5985 -0.0171 0.6504
Cl1A Cl 0.33755(3) 0.03444(8) 0.08713(4)
Cl2A Cl 0.31951(3) 0.31865(8) -0.03219(3)
P1A P 0.42845(3) 0.12553(8) 0.03696(4)
P2A P 0.39459(2) 0.37248(8) 0.15068(4)
Cd2A Cd 0.5000 0.5000 0.0000
O1A O 0.56181(7) -0.1737(2) 0.25734(10)
H1A H 0.5526 -0.2385 0.2144
H2A H 0.5702 -0.2517 0.2977
O2D O 0.47638(7) 0.5362(2) 0.35543(10)
H3D H 0.4580 0.4483 0.3252
H4D H 0.5071 0.5313 0.3493
O3D O 0.58278(7) 0.6409(2) 0.52767(10)
H5D H 0.5959 0.6034 0.4955
H6D H 0.5823 0.7579 0.5243
O4A O 0.26897(8) 0.6093(3) 0.22336(12)
O5A O 0.46611(8) 0.0179(2) 0.11038(11)
O6A O 0.45203(8) 0.2725(2) 0.00769(11)
O6D O 0.45203(8) 0.7275(2) 0.50769(11)
O7A O 0.39645(7) -0.0065(2) -0.03937(10)
O8A O 0.43465(7) 0.2737(2) 0.22805(9)
O9A O 0.41655(7) 0.5285(2) 0.12215(10)
N1A N 0.33955(8) 0.4329(3) 0.16396(12)
C1A C 0.37131(10) 0.2129(3) 0.06118(14)
C2A C 0.29966(10) 0.5686(3) 0.11230(15)
H7A H 0.2634 0.5141 0.0731
H8A H 0.3155 0.6307 0.0781
C3A C 0.28936(12) 0.6969(4) 0.16995(17)
H9A H 0.3251 0.7585 0.2056
H10A H 0.2612 0.7851 0.1351
C4A C 0.30950(12) 0.4819(4) 0.27479(17)
H11A H 0.2955 0.4245 0.3125
H12A H 0.3457 0.5408 0.3109
C5A C 0.31968(11) 0.3450(3) 0.22048(15)
H13A H 0.3485 0.2601 0.2570
H14A H 0.2841 0.2808 0.1865
C6A C 0.37843(13) 0.0444(4) -0.12767(15)
H15A H 0.3832 0.1707 -0.1308
H16A H 0.3384 0.0137 -0.1610
H17A H 0.4015 -0.0171 -0.1504
loop_
_geom_bond_atom_site_label_1
_geom_bond_atom_site_label_2
_geom_bond_site_symmetry_1
_geom_bond_site_symmetry_2
Cl1 C1 1_555 1_555
Cl2 C1 1_555 1_555
P1 O5 1_555 1_555
P2 O8 1_555 1_555
Cd1 O1 1_555 1_555
Cd2 O2 1_555 1_555
O1 H1 1_555 1_555
H2 O1 1_555 1_555
O2 H3 1_555 1_555
H4 O2 1_555 1_555
O3 Cd2 1_555 1_555
H5 O3 1_555 1_555
H6 O3 1_555 1_555
O4 C3 1_555 1_555
O5 Cd1 1_555 1_555
O6 P1 1_555 1_555
O7 P1 1_555 1_555
O8 Cd1 1_555 1_555
O9 P2 1_555 1_555
N1 P2 1_555 1_555
C1 P1 1_555 1_555
C2 N1 1_555 1_555
H7 C2 1_555 1_555
H8 C2 1_555 1_555
C3 C2 1_555 1_555
H9 C3 1_555 1_555
H10 C3 1_555 1_555
C4 O4 1_555 1_555
H11 C4 1_555 1_555
H12 C4 1_555 1_555
C5 N1 1_555 1_555
H13 C5 1_555 1_555
H14 C5 1_555 1_555
C6 O7 1_555 1_555
H15 C6 1_555 1_555
H16 C6 1_555 1_555
H17 C6 1_555 1_555
Cl1A C1A 1_555 1_555
Cl2A C1A 1_555 1_555
P1A O5A 1_555 1_555
P2A O8A 1_555 1_555
Cd2A O6A 1_555 1_555
O1A Cd1 1_555 1_555
H1A O1A 1_555 1_555
H2A O1A 1_555 1_555
O2D Cd2 1_555 1_555
H3D O2D 1_555 1_555
H4D O2D 1_555 1_555
O3D Cd2 1_555 1_555
H5D O3D 1_555 1_555
H6D O3D 1_555 1_555
O4A C3A 1_555 1_555
O5A Cd1 1_555 1_555
O6A P1A 1_555 1_555
O6D Cd2 1_555 1_555
O7A P1A 1_555 1_555
O8A Cd1 1_555 1_555
O9A P2A 1_555 1_555
N1A P2A 1_555 1_555
C1A P1A 1_555 1_555
C2A N1A 1_555 1_555
H7A C2A 1_555 1_555
H8A C2A 1_555 1_555
C3A C2A 1_555 1_555
H9A C3A 1_555 1_555
H10A C3A 1_555 1_555
C4A O4A 1_555 1_555
H11A C4A 1_555 1_555
H12A C4A 1_555 1_555
C5A N1A 1_555 1_555
H13A C5A 1_555 1_555
H14A C5A 1_555 1_555
C6A O7A 1_555 1_555
H15A C6A 1_555 1_555
H16A C6A 1_555 1_555
H17A C6A 1_555 1_555
P2 C1 1_555 1_555
Cd2 O6 1_555 1_555
C4 C5 1_555 1_555
P2A C1A 1_555 1_555
C4A C5A 1_555 1_555

#END
