
#######################################################################
#
#                 Cambridge Crystallographic Data Centre
#                                CCDC 
#
#######################################################################
#
# If this CIF has been generated from an entry in the Cambridge 
# Structural Database, then it will include bibliographic, chemical, 
# crystal, experimental, refinement or atomic coordinate data resulting 
# from the CCDC's data processing and validation procedures.
#
#######################################################################

data_RELVOU
_symmetry_cell_setting           triclinic
_symmetry_space_group_name_H-M   'P -1'
_symmetry_Int_Tables_number      2
_space_group_name_Hall           '-P 1'
loop_
_symmetry_equiv_pos_site_id
_symmetry_equiv_pos_as_xyz
1 x,y,z
2 -x,-y,-z
_cell_length_a                   7.9964(7)
_cell_length_b                   9.6563(9)
_cell_length_c                   10.1355(9)
_cell_angle_alpha                92.243(3)
_cell_angle_beta                 97.815(3)
_cell_angle_gamma                100.170(2)
_cell_volume                     761.566
loop_
_atom_site_label
_atom_site_type_symbol
_atom_site_fract_x
_atom_site_fract_y
_atom_site_fract_z
Cd1 Cd 0.5000 0.5000 0.5000
Cd2 Cd 0.47764(7) 0.72201(6) 0.17368(6)
Br1 Br 0.71701(15) 0.61263(12) 0.32711(12)
Br2 Br 0.24639(14) 0.54699(12) 0.31851(11)
Br3 Br 0.68599(13) 0.79786(10) -0.00982(10)
N1 N 0.8675(9) 0.1001(8) 0.3561(7)
C1 C 0.7694(11) -0.0263(9) 0.3232(9)
H1 H 0.8288 -0.1005 0.3056
N2 N 0.5991(8) -0.0626(7) 0.3117(7)
C2 C 0.5260(9) 0.0484(8) 0.3397(7)
C3 C 0.6091(10) 0.1859(8) 0.3747(7)
C4 C 0.7892(10) 0.2110(8) 0.3769(8)
N3 N 0.8883(10) 0.3375(8) 0.3994(9)
H2 H 0.9999 0.3467 0.4004
H3 H 0.8423 0.4121 0.4134
N4 N 0.4907(9) 0.2695(7) 0.3952(7)
C5 C 0.3407(10) 0.1825(9) 0.3754(8)
H4 H 0.2347 0.2108 0.3844
N5 N 0.3549(9) 0.0498(7) 0.3413(7)
C6 C 0.2152(10) -0.0747(8) 0.3208(8)
H5 H 0.1222 -0.0565 0.3706
H6 H 0.2596 -0.1565 0.3583
C7 C 0.1406(10) -0.1121(9) 0.1749(8)
H7 H 0.0494 -0.1971 0.1684
H8 H 0.0876 -0.0337 0.1389
N6 N 0.2724(8) -0.1391(7) 0.0942(7)
H9 H 0.3344 -0.0514 0.0799
C8 C 0.1953(11) -0.2052(10) -0.0381(8)
H10 H 0.2770 -0.1814 -0.1024
H11 H 0.0902 -0.1678 -0.0690
C9 C 0.1506(12) -0.3628(10) -0.0341(9)
H12 H 0.0710 -0.3864 0.0318
H13 H 0.0911 -0.4040 -0.1227
N7 N 0.3022(10) -0.4240(8) 0.0016(8)
H14 H 0.3592 -0.4296 -0.0709
H15 H 0.2719 -0.5133 0.0294
Cd2A Cd 0.52236(7) 0.27799(6) 0.82632(6)
Cd2_2 Cd 0.47764(7) -0.27799(6) 0.17368(6)
Cd2A_2 Cd 0.52236(7) 1.27799(6) 0.82632(6)
Br1A Br 0.28299(15) 0.38737(12) 0.67289(12)
Br2A Br 0.75361(14) 0.45301(12) 0.68149(11)
Br3A Br 0.31401(13) 0.20214(10) 1.00982(10)
N1A N 0.1325(9) 0.8999(8) 0.6439(7)
C1A C 0.2306(11) 1.0263(9) 0.6768(9)
H1A H 0.1712 1.1005 0.6944
N2A N 0.4009(8) 1.0626(7) 0.6883(7)
N2_2 N 0.5991(8) 0.9374(7) 0.3117(7)
N2A_2 N 0.4009(8) 0.0626(7) 0.6883(7)
C2A C 0.4740(9) 0.9516(8) 0.6603(7)
C3A C 0.3909(10) 0.8141(8) 0.6253(7)
C4A C 0.2108(10) 0.7890(8) 0.6231(8)
N3A N 0.1117(10) 0.6625(8) 0.6006(9)
H2A H 0.0001 0.6533 0.5996
H3A H 0.1577 0.5879 0.5866
N4A N 0.5093(9) 0.7305(7) 0.6048(7)
C5A C 0.6593(10) 0.8175(9) 0.6246(8)
H4A H 0.7653 0.7892 0.6156
N5A N 0.6451(9) 0.9502(7) 0.6587(7)
C6A C 0.7848(10) 1.0747(8) 0.6792(8)
H5A H 0.8778 1.0565 0.6294
H6A H 0.7404 1.1565 0.6417
C7A C 0.8594(10) 1.1121(9) 0.8251(8)
H7A H 0.9506 1.1971 0.8316
H8A H 0.9124 1.0337 0.8611
N6A N 0.7276(8) 1.1391(7) 0.9058(7)
N6_2 N 0.2724(8) 0.8609(7) 0.0942(7)
N6A_2 N 0.7276(8) 0.1391(7) 0.9058(7)
H9A H 0.6656 1.0514 0.9201
H9_2 H 0.3344 0.9486 0.0799
H9A_2 H 0.6656 0.0514 0.9201
C8A C 0.8047(11) 1.2052(10) 1.0381(8)
H10A H 0.7230 1.1814 1.1024
H11A H 0.9098 1.1678 1.0690
C9A C 0.8494(12) 1.3628(10) 1.0341(9)
H12A H 0.9290 1.3864 0.9682
H13A H 0.9089 1.4040 1.1227
N7A N 0.6978(10) 1.4240(8) 0.9984(8)
N7_2 N 0.3022(10) 0.5760(8) 0.0016(8)
N7A_2 N 0.6978(10) 0.4240(8) 0.9984(8)
H14A H 0.6408 1.4296 1.0709
H14_2 H 0.3592 0.5704 -0.0709
H14A_2 H 0.6408 0.4296 1.0709
H15A H 0.7281 1.5133 0.9706
H15_2 H 0.2719 0.4867 0.0294
H15A_2 H 0.7281 0.5133 0.9706
loop_
_geom_bond_atom_site_label_1
_geom_bond_atom_site_label_2
_geom_bond_site_symmetry_1
_geom_bond_site_symmetry_2
Cd1 Br1 1_555 1_555
Cd2 Br1 1_555 1_555
Br2 Cd1 1_555 1_555
Br3 Cd2 1_555 1_555
N1 C1 1_555 1_555
C1 H1 1_555 1_555
N2 C1 1_555 1_555
C2 N2 1_555 1_555
C3 C2 1_555 1_555
C4 N1 1_555 1_555
N3 C4 1_555 1_555
H2 N3 1_555 1_555
H3 N3 1_555 1_555
N4 Cd1 1_555 1_555
C5 N4 1_555 1_555
H4 C5 1_555 1_555
N5 C2 1_555 1_555
C6 N5 1_555 1_555
H5 C6 1_555 1_555
H6 C6 1_555 1_555
C7 C6 1_555 1_555
H7 C7 1_555 1_555
H8 C7 1_555 1_555
N6 C7 1_555 1_555
H9 N6 1_555 1_555
C8 N6 1_555 1_555
H10 C8 1_555 1_555
H11 C8 1_555 1_555
C9 C8 1_555 1_555
H12 C9 1_555 1_555
H13 C9 1_555 1_555
N7 C9 1_555 1_555
H14 N7 1_555 1_555
H15 N7 1_555 1_555
Cd2A Br1A 1_555 1_555
Cd2_2 N2 1_555 1_555
Cd2A_2 N2A 1_555 1_555
Br1A Cd1 1_555 1_555
Br2A Cd1 1_555 1_555
Br3A Cd2A 1_555 1_555
N1A C1A 1_555 1_555
C1A H1A 1_555 1_555
N2A C1A 1_555 1_555
N2_2 Cd2 1_555 1_555
N2A_2 Cd2A 1_555 1_555
C2A N2A 1_555 1_555
C3A C2A 1_555 1_555
C4A N1A 1_555 1_555
N3A C4A 1_555 1_555
H2A N3A 1_555 1_555
H3A N3A 1_555 1_555
N4A Cd1 1_555 1_555
C5A N4A 1_555 1_555
H4A C5A 1_555 1_555
N5A C2A 1_555 1_555
C6A N5A 1_555 1_555
H5A C6A 1_555 1_555
H6A C6A 1_555 1_555
C7A C6A 1_555 1_555
H7A C7A 1_555 1_555
H8A C7A 1_555 1_555
N6A Cd2A_2 1_555 1_555
N6_2 Cd2 1_555 1_555
N6A_2 Cd2A 1_555 1_555
H9A N6A 1_555 1_555
H9_2 N6_2 1_555 1_555
H9A_2 N6A_2 1_555 1_555
C8A N6A 1_555 1_555
H10A C8A 1_555 1_555
H11A C8A 1_555 1_555
C9A C8A 1_555 1_555
H12A C9A 1_555 1_555
H13A C9A 1_555 1_555
N7A Cd2A_2 1_555 1_555
N7_2 Cd2 1_555 1_555
N7A_2 Cd2A 1_555 1_555
H14A N7A 1_555 1_555
H14_2 N7_2 1_555 1_555
H14A_2 N7A_2 1_555 1_555
H15A N7A 1_555 1_555
H15_2 N7_2 1_555 1_555
H15A_2 N7A_2 1_555 1_555
Cd2 Br2 1_555 1_555
C3 C4 1_555 1_555
C3 N4 1_555 1_555
C5 N5 1_555 1_555
N6 Cd2_2 1_555 1_555
N7 Cd2_2 1_555 1_555
Cd2A Br2A 1_555 1_555
C3A C4A 1_555 1_555
C3A N4A 1_555 1_555
C5A N5A 1_555 1_555
C7A N6A 1_555 1_555
C9A N7A 1_555 1_555

#END
