
#######################################################################
#
#                 Cambridge Crystallographic Data Centre
#                                CCDC 
#
#######################################################################
#
# If this CIF has been generated from an entry in the Cambridge 
# Structural Database, then it will include bibliographic, chemical, 
# crystal, experimental, refinement or atomic coordinate data resulting 
# from the CCDC's data processing and validation procedures.
#
#######################################################################

data_RELZUF
_symmetry_cell_setting           triclinic
_symmetry_space_group_name_H-M   'P -1'
_symmetry_Int_Tables_number      2
_space_group_name_Hall           '-P 1'
loop_
_symmetry_equiv_pos_site_id
_symmetry_equiv_pos_as_xyz
1 x,y,z
2 -x,-y,-z
_cell_length_a                   8.3166(15)
_cell_length_b                   8.3407(14)
_cell_length_c                   9.0956(12)
_cell_angle_alpha                99.0380(10)
_cell_angle_beta                 104.303(4)
_cell_angle_gamma                114.606(6)
_cell_volume                     531.106
loop_
_atom_site_label
_atom_site_type_symbol
_atom_site_fract_x
_atom_site_fract_y
_atom_site_fract_z
Cu1 Cu 0.71662(4) 0.50746(4) 0.60155(3)
S1 S 0.76910(9) 0.23592(8) 0.35372(7)
Cl1 Cl 0.67032(9) 0.71781(8) 0.49350(7)
C1 C 0.7005(4) 0.7669(4) 0.8619(3)
H1 H 0.6795 0.8295 0.7895
C2 C 0.7467(4) 0.5258(4) 0.9205(3)
C3 C 0.8846(4) 0.2063(4) 0.5310(3)
H2 H 0.9102 0.1043 0.5036
H3 H 1.0048 0.3167 0.5869
C4 C 0.7645(4) 0.3647(4) 0.8546(3)
H4 H 0.7793 0.2891 0.9158
C5 C 0.7525(4) 0.5790(4) 1.0735(3)
H5 H 0.7688 0.5123 1.1435
C6 C 0.7715(4) 0.1686(3) 0.6413(3)
H6 H 0.6453 0.0682 0.5820
H7 H 0.8303 0.1302 0.7247
C7 C 0.7076(5) 0.8280(5) 1.0152(4)
H8 H 0.6948 0.9326 1.0457
C8 C 0.7334(5) 0.7346(5) 1.1210(3)
H9 H 0.7381 0.7746 1.2241
N1 N 0.7594(3) 0.3306(3) 0.7128(2)
N2 N 0.7230(3) 0.6201(3) 0.8160(2)
O1 O 0.7356(3) 0.3942(3) 0.4044(2)
O2 O 0.5951(3) 0.0676(3) 0.2702(2)
O3 O 0.8995(3) 0.2845(3) 0.2687(2)
Cu1A Cu 0.28338(4) 0.49254(4) 0.39845(3)
Cu1A_2 Cu 1.28338(4) 0.49254(4) 0.39845(3)
Cl1A Cl 0.32968(9) 0.28219(8) 0.50650(7)
O3A O 1.1005(3) 0.7155(3) 0.7313(2)
loop_
_geom_bond_atom_site_label_1
_geom_bond_atom_site_label_2
_geom_bond_site_symmetry_1
_geom_bond_site_symmetry_2
Cu1 Cl1 1_555 1_555
S1 C3 1_555 1_555
Cl1 Cu1A 1_555 1_555
C1 H1 1_555 1_555
C2 C4 1_555 1_555
C3 H2 1_555 1_555
H3 C3 1_555 1_555
C4 H4 1_555 1_555
C5 C2 1_555 1_555
H5 C5 1_555 1_555
C6 C3 1_555 1_555
H6 C6 1_555 1_555
H7 C6 1_555 1_555
C7 C1 1_555 1_555
H8 C7 1_555 1_555
C8 C5 1_555 1_555
H9 C8 1_555 1_555
N1 Cu1 1_555 1_555
N2 Cu1 1_555 1_555
O1 Cu1 1_555 1_555
O2 S1 1_555 1_555
O3 S1 1_555 1_555
Cu1A Cl1A 1_555 1_555
Cu1A_2 O3 1_555 1_555
Cl1A Cu1 1_555 1_555
O3A Cu1 1_555 1_555
S1 O1 1_555 1_555
C1 N2 1_555 1_555
C2 N2 1_555 1_555
C4 N1 1_555 1_555
C6 N1 1_555 1_555
C7 C8 1_555 1_555

#END
