
#######################################################################
#
#                 Cambridge Crystallographic Data Centre
#                                CCDC 
#
#######################################################################
#
# If this CIF has been generated from an entry in the Cambridge 
# Structural Database, then it will include bibliographic, chemical, 
# crystal, experimental, refinement or atomic coordinate data resulting 
# from the CCDC's data processing and validation procedures.
#
#######################################################################

data_RELZIS
_symmetry_cell_setting           monoclinic
_symmetry_space_group_name_H-M   'C 2/c'
_symmetry_Int_Tables_number      15
_space_group_name_Hall           '-C 2yn'
loop_
_symmetry_equiv_pos_site_id
_symmetry_equiv_pos_as_xyz
1 x,y,z
2 1/2+x,1/2+y,z
3 -x,y,1/2-z
4 1/2-x,1/2+y,1/2-z
5 -x,-y,-z
6 1/2-x,1/2-y,-z
7 x,-y,1/2+z
8 1/2+x,1/2-y,1/2+z
_cell_length_a                   11.4804(2)
_cell_length_b                   13.3369(2)
_cell_length_c                   16.8693(3)
_cell_angle_alpha                90
_cell_angle_beta                 94.5930(10)
_cell_angle_gamma                90
_cell_volume                     2574.61
loop_
_atom_site_label
_atom_site_type_symbol
_atom_site_fract_x
_atom_site_fract_y
_atom_site_fract_z
Co1 Co 0.5000 0.86006(3) 0.7500
O1 O 0.31568(13) 0.86523(12) 0.73818(9)
O2 O 0.23348(14) 0.87294(13) 0.61354(10)
C1 C 0.22825(18) 0.86800(16) 0.68808(14)
C2 C 0.10982(17) 0.86544(16) 0.72024(13)
C3 C 0.10020(19) 0.86490(18) 0.80176(14)
H1 H 0.165(3) 0.866(2) 0.8351(19)
C4 C 0.00872(19) 0.86491(18) 0.66844(14)
H2 H 0.013(3) 0.865(2) 0.6154(19)
N1 N 0.51205(16) 0.97540(15) 0.66250(11)
N2 N 0.42341(16) 1.00635(15) 0.61015(11)
H3 H 0.358(2) 0.971(2) 0.6030(16)
C5 C 0.4502(2) 1.08936(19) 0.57055(14)
C6 C 0.3655(3) 1.1378(2) 0.51083(17)
H4 H 0.2943 1.0997 0.5060
H5 H 0.3984 1.1400 0.4603
H6 H 0.3494 1.2047 0.5277
C7 C 0.5628(2) 1.1145(2) 0.59817(17)
H7 H 0.606(3) 1.169(3) 0.5839(19)
C8 C 0.5967(2) 1.0419(2) 0.65452(16)
H8 H 0.665(3) 1.033(2) 0.6853(17)
N3 N 0.50287(16) 0.74354(15) 0.66168(11)
N4 N 0.41637(17) 0.73858(16) 0.60166(12)
H9 H 0.356(3) 0.784(2) 0.6015(18)
C9 C 0.4276(2) 0.6593(2) 0.55378(16)
H10 H 0.374(3) 0.644(2) 0.509(2)
C10 C 0.5262(3) 0.6089(2) 0.58341(17)
H11 H 0.560(3) 0.544(3) 0.570(2)
C11 C 0.5703(2) 0.66299(18) 0.65050(15)
C12 C 0.6738(2) 0.6379(2) 0.70546(17)
H12 H 0.6841 0.6884 0.7460
H13 H 0.7421 0.6351 0.6762
H14 H 0.6620 0.5739 0.7297
Co1_2 Co -0.5000 0.86006(3) 0.7500
O1B O -0.31568(13) 0.86523(12) 0.76182(9)
O1B_2 O 0.68432(13) 0.86523(12) 0.76182(9)
O2B O -0.23348(14) 0.87294(13) 0.88646(10)
C1B C -0.22825(18) 0.86800(16) 0.81192(14)
C2B C -0.10982(17) 0.86544(16) 0.77976(13)
C3B C -0.10020(19) 0.86490(18) 0.69824(14)
H1B H -0.165(3) 0.866(2) 0.6649(19)
C4B C -0.00872(19) 0.86491(18) 0.83156(14)
H2B H -0.013(3) 0.865(2) 0.8846(19)
N1B N 0.48795(16) 0.97540(15) 0.83750(11)
N2B N 0.57659(16) 1.00635(15) 0.88985(11)
H3B H 0.642(2) 0.971(2) 0.8970(16)
C5B C 0.5498(2) 1.08936(19) 0.92945(14)
C6B C 0.6345(3) 1.1378(2) 0.98917(17)
H4B H 0.7057 1.0997 0.9940
H5B H 0.6016 1.1400 1.0397
H6B H 0.6506 1.2047 0.9723
C7B C 0.4372(2) 1.1145(2) 0.90183(17)
H7B H 0.394(3) 1.169(3) 0.9161(19)
C8B C 0.4033(2) 1.0419(2) 0.84548(16)
H8B H 0.335(3) 1.033(2) 0.8147(17)
N3B N 0.49713(16) 0.74354(15) 0.83832(11)
N4B N 0.58363(17) 0.73858(16) 0.89834(12)
H9B H 0.644(3) 0.784(2) 0.8985(18)
C9B C 0.5724(2) 0.6593(2) 0.94622(16)
H10B H 0.626(3) 0.644(2) 0.991(2)
C10B C 0.4738(3) 0.6089(2) 0.91659(17)
H11B H 0.440(3) 0.544(3) 0.930(2)
C11B C 0.4297(2) 0.66299(18) 0.84950(15)
C12B C 0.3262(2) 0.6379(2) 0.79454(17)
H12B H 0.3159 0.6884 0.7540
H13B H 0.2579 0.6351 0.8238
H14B H 0.3380 0.5739 0.7703
loop_
_geom_bond_atom_site_label_1
_geom_bond_atom_site_label_2
_geom_bond_site_symmetry_1
_geom_bond_site_symmetry_2
Co1 O1 1_555 1_555
O1 C1 1_555 1_555
O2 C1 1_555 1_555
C1 C2 1_555 1_555
C2 C3 1_555 1_555
C3 H1 1_555 1_555
C4 C2 1_555 1_555
H2 C4 1_555 1_555
N1 Co1 1_555 1_555
N2 N1 1_555 1_555
H3 N2 1_555 1_555
C5 N2 1_555 1_555
C6 C5 1_555 1_555
H4 C6 1_555 1_555
H5 C6 1_555 1_555
H6 C6 1_555 1_555
C7 C5 1_555 1_555
H7 C7 1_555 1_555
C8 N1 1_555 1_555
H8 C8 1_555 1_555
N3 Co1 1_555 1_555
N4 N3 1_555 1_555
H9 N4 1_555 1_555
C9 N4 1_555 1_555
H10 C9 1_555 1_555
C10 C9 1_555 1_555
H11 C10 1_555 1_555
C11 N3 1_555 1_555
C12 C11 1_555 1_555
H12 C12 1_555 1_555
H13 C12 1_555 1_555
H14 C12 1_555 1_555
Co1_2 O1B 1_555 1_555
O1B C1B 1_555 1_555
O1B_2 Co1 1_555 1_555
O2B C1B 1_555 1_555
C1B C2B 1_555 1_555
C2B C3B 1_555 1_555
C3B C4 1_555 1_555
H1B C3B 1_555 1_555
C4B C3 1_555 1_555
H2B C4B 1_555 1_555
N1B Co1 1_555 1_555
N2B N1B 1_555 1_555
H3B N2B 1_555 1_555
C5B N2B 1_555 1_555
C6B C5B 1_555 1_555
H4B C6B 1_555 1_555
H5B C6B 1_555 1_555
H6B C6B 1_555 1_555
C7B C5B 1_555 1_555
H7B C7B 1_555 1_555
C8B N1B 1_555 1_555
H8B C8B 1_555 1_555
N3B Co1 1_555 1_555
N4B N3B 1_555 1_555
H9B N4B 1_555 1_555
C9B N4B 1_555 1_555
H10B C9B 1_555 1_555
C10B C9B 1_555 1_555
H11B C10B 1_555 1_555
C11B N3B 1_555 1_555
C12B C11B 1_555 1_555
H12B C12B 1_555 1_555
H13B C12B 1_555 1_555
H14B C12B 1_555 1_555
C7 C8 1_555 1_555
C10 C11 1_555 1_555
C2B C4B 1_555 1_555
C7B C8B 1_555 1_555
C10B C11B 1_555 1_555

#END
