
#######################################################################
#
#                 Cambridge Crystallographic Data Centre
#                                CCDC 
#
#######################################################################
#
# If this CIF has been generated from an entry in the Cambridge 
# Structural Database, then it will include bibliographic, chemical, 
# crystal, experimental, refinement or atomic coordinate data resulting 
# from the CCDC's data processing and validation procedures.
#
#######################################################################

data_RELZOZ
_symmetry_cell_setting           orthorhombic
_symmetry_space_group_name_H-M   'P n a 21'
_symmetry_Int_Tables_number      33
_space_group_name_Hall           'P 2c -2n'
loop_
_symmetry_equiv_pos_site_id
_symmetry_equiv_pos_as_xyz
1 x,y,z
2 -x,-y,1/2+z
3 1/2+x,1/2-y,z
4 1/2-x,1/2+y,1/2+z
_cell_length_a                   20.0467(13)
_cell_length_b                   10.4142(7)
_cell_length_c                   20.7496(14)
_cell_angle_alpha                90
_cell_angle_beta                 90
_cell_angle_gamma                90
_cell_volume                     4331.9
loop_
_atom_site_label
_atom_site_type_symbol
_atom_site_fract_x
_atom_site_fract_y
_atom_site_fract_z
Co1 Co 0.20486(4) 0.44875(8) 0.06753(4)
Co2 Co 0.04706(4) -0.45426(8) 0.09203(4)
C1 C 0.2998(4) 0.2355(7) 0.1202(5)
H1 H 0.2704 0.1785 0.1006
C2 C 0.3568(3) 0.1857(7) 0.1507(4)
H2 H 0.3654 0.0979 0.1508
C3 C 0.3995(5) 0.2698(9) 0.1802(5)
H3 H 0.4367 0.2395 0.2021
C4 C 0.3869(3) 0.4002(7) 0.1771(3)
C5 C 0.3282(3) 0.4423(7) 0.1457(3)
C6 C 0.4299(3) 0.4966(8) 0.2058(4)
H4 H 0.4697 0.4714 0.2251
C7 C 0.4135(3) 0.6209(8) 0.2051(4)
H5 H 0.4418 0.6804 0.2243
C8 C 0.3523(3) 0.6648(7) 0.1748(4)
C9 C 0.3114(3) 0.5749(7) 0.1440(3)
C10 C 0.3330(3) 0.7962(8) 0.1735(4)
H6 H 0.3583 0.8591 0.1939
C11 C 0.2755(4) 0.8264(7) 0.1410(4)
H7 H 0.2617 0.9114 0.1385
C12 C 0.2377(4) 0.7305(8) 0.1116(5)
H8 H 0.1987 0.7541 0.0905
C13 C 0.1052(3) 0.9046(7) -0.0127(4)
H9 H 0.1044 0.8402 0.0183
C14 C 0.1359(3) 1.0214(7) 0.0016(4)
H10 H 0.1562 1.0335 0.0414
C15 C 0.1361(3) 1.1202(6) -0.0439(4)
C16 C 0.1073(3) 1.0987(7) -0.1033(3)
H11 H 0.1089 1.1622 -0.1348
C17 C 0.0758(3) 0.9826(7) -0.1165(4)
H12 H 0.0542 0.9719 -0.1559
C18 C 0.0757(3) 0.8822(7) -0.0724(3)
C19 C 0.0467(4) 0.7554(6) -0.0897(4)
C20 C -0.0104(4) 0.7508(7) -0.1296(4)
H13 H -0.0310 0.8271 -0.1417
C21 C -0.0365(4) 0.6345(8) -0.1512(4)
H14 H -0.0738 0.6343 -0.1779
C22 C -0.0075(4) 0.5196(8) -0.1333(4)
H15 H -0.0242 0.4420 -0.1485
C23 C 0.0472(4) 0.5226(8) -0.0923(4)
H16 H 0.0667 0.4457 -0.0795
C24 C 0.0731(3) 0.6365(7) -0.0702(3)
C25 C 0.1348(3) 0.6238(7) -0.0286(3)
C26 C -0.0494(4) -0.2362(8) 0.0456(5)
H17 H -0.0212 -0.1784 0.0662
C27 C -0.1076(4) -0.1885(7) 0.0156(4)
H18 H -0.1161 -0.1007 0.0151
C28 C -0.1503(4) -0.2702(8) -0.0120(4)
H19 H -0.1894 -0.2392 -0.0305
C29 C -0.1367(3) -0.4044(7) -0.0132(4)
C30 C -0.0775(3) -0.4430(7) 0.0163(3)
C31 C -0.1788(3) -0.4974(8) -0.0415(4)
H20 H -0.2190 -0.4716 -0.0597
C32 C -0.1619(3) -0.6229(8) -0.0428(4)
H21 H -0.1898 -0.6813 -0.0633
C33 C -0.1024(4) -0.6670(8) -0.0132(4)
C34 C -0.0601(3) -0.5766(6) 0.0169(3)
C35 C -0.0830(4) -0.7946(9) -0.0120(4)
H22 H -0.1089 -0.8566 -0.0323
C36 C -0.0247(4) -0.8300(7) 0.0195(4)
H23 H -0.0118 -0.9157 0.0211
C37 C 0.0146(4) -0.7355(7) 0.0488(4)
H24 H 0.0535 -0.7598 0.0698
C38 C 0.1450(3) 0.0804(7) 0.1796(4)
H25 H 0.1527 0.1394 0.1467
C39 C 0.1173(3) -0.0365(7) 0.1657(4)
H26 H 0.1063 -0.0549 0.1231
C40 C 0.1049(3) -0.1288(6) 0.2126(3)
C41 C 0.1202(4) -0.0978(7) 0.2769(4)
H27 H 0.1111 -0.1564 0.3096
C42 C 0.1483(4) 0.0187(7) 0.2917(4)
H28 H 0.1587 0.0373 0.3343
C43 C 0.1618(3) 0.1111(7) 0.2434(4)
C44 C 0.1930(4) 0.2375(6) 0.2619(4)
C45 C 0.2436(3) 0.2398(7) 0.3072(4)
H29 H 0.2573 0.1631 0.3259
C46 C 0.2743(3) 0.3520(7) 0.3253(4)
H30 H 0.3085 0.3509 0.3555
C47 C 0.2541(3) 0.4660(7) 0.2982(4)
H31 H 0.2738 0.5425 0.3113
C48 C 0.2043(3) 0.4681(7) 0.2515(4)
H32 H 0.1915 0.5454 0.2328
C49 C 0.1736(3) 0.3525(7) 0.2325(4)
C50 C 0.1163(3) 0.3648(6) 0.1862(3)
N1 N 0.2861(3) 0.3577(6) 0.1183(3)
N2 N 0.2544(3) 0.6078(5) 0.1122(3)
N3 N -0.0333(2) -0.3594(5) 0.0458(3)
N4 N -0.0022(3) -0.6114(5) 0.0474(3)
O1 O 0.1888(2) 0.6703(5) -0.0478(3)
O2 O 0.1282(2) 0.5584(4) 0.0250(2)
O3 O 0.1254(2) 0.4374(4) 0.1363(2)
O4 O 0.0625(2) 0.3124(4) 0.1991(2)
O5 O 0.0506(3) -0.3221(5) 0.2392(3)
O6 O 0.1755(2) 1.2750(5) 0.0301(3)
O7 O 0.0760(2) -0.2857(5) 0.1361(2)
O8 O 0.1934(3) 1.3098(6) -0.0754(3)
C51 C 0.0752(4) -0.2554(6) 0.1950(4)
C52 C 0.1711(4) 1.2456(7) -0.0290(5)
O9 O 0.2692(2) 0.4773(5) -0.0149(2)
O10 O -0.0190(2) -0.4893(5) 0.1738(2)
Co1_2 Co 0.20486(4) 1.44875(8) 0.06753(4)
Co2_2 Co 0.04706(4) 0.54574(8) 0.09203(4)
O2_2 O 0.1282(2) -0.4416(4) 0.0250(2)
O3_2 O 0.1254(2) -0.5626(4) 0.1363(2)
O6_2 O 0.1755(2) 0.2750(5) 0.0301(3)
loop_
_geom_bond_atom_site_label_1
_geom_bond_atom_site_label_2
_geom_bond_site_symmetry_1
_geom_bond_site_symmetry_2
Co1 N1 1_555 1_555
Co2 N3 1_555 1_555
C1 H1 1_555 1_555
C2 C1 1_555 1_555
H2 C2 1_555 1_555
C3 C2 1_555 1_555
H3 C3 1_555 1_555
C4 C3 1_555 1_555
C5 C4 1_555 1_555
C6 C4 1_555 1_555
H4 C6 1_555 1_555
C7 C6 1_555 1_555
H5 C7 1_555 1_555
C8 C7 1_555 1_555
C9 C5 1_555 1_555
C10 C8 1_555 1_555
H6 C10 1_555 1_555
C11 C10 1_555 1_555
H7 C11 1_555 1_555
C12 C11 1_555 1_555
H8 C12 1_555 1_555
C13 H9 1_555 1_555
C14 C13 1_555 1_555
H10 C14 1_555 1_555
C15 C14 1_555 1_555
C16 C15 1_555 1_555
H11 C16 1_555 1_555
C17 C16 1_555 1_555
H12 C17 1_555 1_555
C18 C13 1_555 1_555
C19 C18 1_555 1_555
C20 C19 1_555 1_555
H13 C20 1_555 1_555
C21 C20 1_555 1_555
H14 C21 1_555 1_555
C22 C21 1_555 1_555
H15 C22 1_555 1_555
C23 C22 1_555 1_555
H16 C23 1_555 1_555
C24 C19 1_555 1_555
C25 C24 1_555 1_555
C26 H17 1_555 1_555
C27 C26 1_555 1_555
H18 C27 1_555 1_555
C28 C27 1_555 1_555
H19 C28 1_555 1_555
C29 C28 1_555 1_555
C30 C29 1_555 1_555
C31 C29 1_555 1_555
H20 C31 1_555 1_555
C32 C31 1_555 1_555
H21 C32 1_555 1_555
C33 C32 1_555 1_555
C34 C30 1_555 1_555
C35 C33 1_555 1_555
H22 C35 1_555 1_555
C36 C35 1_555 1_555
H23 C36 1_555 1_555
C37 C36 1_555 1_555
H24 C37 1_555 1_555
C38 H25 1_555 1_555
C39 C38 1_555 1_555
H26 C39 1_555 1_555
C40 C39 1_555 1_555
C41 C40 1_555 1_555
H27 C41 1_555 1_555
C42 C41 1_555 1_555
H28 C42 1_555 1_555
C43 C38 1_555 1_555
C44 C43 1_555 1_555
C45 C44 1_555 1_555
H29 C45 1_555 1_555
C46 C45 1_555 1_555
H30 C46 1_555 1_555
C47 C46 1_555 1_555
H31 C47 1_555 1_555
C48 C47 1_555 1_555
H32 C48 1_555 1_555
C49 C44 1_555 1_555
C50 C49 1_555 1_555
N1 C1 1_555 1_555
N2 Co1 1_555 1_555
N3 C26 1_555 1_555
N4 Co2 1_555 1_555
O1 C25 1_555 1_555
O2 Co1 1_555 1_555
O3 Co1 1_555 1_555
O4 C50 1_555 1_555
O5 C51 1_555 1_555
O6 C52 1_555 1_555
O7 Co2 1_555 1_555
O8 C52 1_555 1_555
C51 C40 1_555 1_555
C52 C15 1_555 1_555
O9 Co1 1_555 1_555
O10 Co2 1_555 1_555
Co1_2 O6 1_555 1_555
Co2_2 O2 1_555 1_555
O2_2 Co2 1_555 1_555
O3_2 Co2 1_555 1_555
O6_2 Co1 1_555 1_555
C5 N1 1_555 1_555
C8 C9 1_555 1_555
C9 N2 1_555 1_555
C12 N2 1_555 1_555
C17 C18 1_555 1_555
C23 C24 1_555 1_555
C25 O2 1_555 1_555
C30 N3 1_555 1_555
C33 C34 1_555 1_555
C34 N4 1_555 1_555
C37 N4 1_555 1_555
C42 C43 1_555 1_555
C48 C49 1_555 1_555
C50 O3 1_555 1_555
O3 Co2_2 1_555 1_555
O7 C51 1_555 1_555

#END
