
#######################################################################
#
#                 Cambridge Crystallographic Data Centre
#                                CCDC 
#
#######################################################################
#
# If this CIF has been generated from an entry in the Cambridge 
# Structural Database, then it will include bibliographic, chemical, 
# crystal, experimental, refinement or atomic coordinate data resulting 
# from the CCDC's data processing and validation procedures.
#
#######################################################################

data_REMJUP
_symmetry_cell_setting           orthorhombic
_symmetry_space_group_name_H-M   'P b c a'
_symmetry_Int_Tables_number      61
_space_group_name_Hall           '-P 2ac 2ab'
loop_
_symmetry_equiv_pos_site_id
_symmetry_equiv_pos_as_xyz
1 x,y,z
2 1/2-x,-y,1/2+z
3 1/2+x,1/2-y,-z
4 -x,1/2+y,1/2-z
5 -x,-y,-z
6 1/2+x,y,1/2-z
7 1/2-x,1/2+y,z
8 x,1/2-y,1/2+z
_cell_length_a                   6.7240(7)
_cell_length_b                   12.3385(13)
_cell_length_c                   19.032(4)
_cell_angle_alpha                90
_cell_angle_beta                 90
_cell_angle_gamma                90
_cell_volume                     1578.97
loop_
_atom_site_label
_atom_site_type_symbol
_atom_site_fract_x
_atom_site_fract_y
_atom_site_fract_z
Pb1 Pb 0.27843(5) 0.15102(4) 0.53304(2)
O1 O 0.3871(11) 0.3389(8) 0.5468(4)
O2 O 0.3239(12) 0.4821(7) 0.6142(5)
O3 O 0.3035(13) 0.4247(8) 0.8729(5)
O4 O 0.4500(12) 0.2774(8) 0.9161(4)
O5 O 0.6132(13) 0.0893(10) 0.5471(6)
N1 N 0.3772(15) 0.2041(10) 0.6578(6)
C1 C 0.3724(16) 0.3120(10) 0.6695(7)
C2 C 0.3762(15) 0.3558(12) 0.7358(7)
H1 H 0.3727 0.4306 0.7419
C3 C 0.3853(16) 0.2868(11) 0.7939(7)
C4 C 0.4019(16) 0.1778(11) 0.7806(7)
H2 H 0.4224 0.1297 0.8175
C5 C 0.3881(16) 0.1393(13) 0.7123(7)
H3 H 0.3865 0.0648 0.7048
C6 C 0.3603(17) 0.3843(10) 0.6050(8)
C7 C 0.3860(16) 0.3333(11) 0.8662(6)
H4 H 0.6481 0.0800 0.5903
H5 H 0.7178 0.1077 0.5249
Pb1F Pb 0.22157(5) 0.65102(4) 0.53304(2)
Pb1G Pb 0.27843(5) 0.34898(4) 1.03304(2)
O2F O 0.1761(12) -0.0179(7) 0.6142(5)
O4G O 0.4500(12) 0.2226(8) 0.4161(4)
loop_
_geom_bond_atom_site_label_1
_geom_bond_atom_site_label_2
_geom_bond_site_symmetry_1
_geom_bond_site_symmetry_2
Pb1 O1 1_555 1_555
O1 C6 1_555 1_555
O2 C6 1_555 1_555
O3 C7 1_555 1_555
O4 C7 1_555 1_555
O5 Pb1 1_555 1_555
N1 Pb1 1_555 1_555
C1 N1 1_555 1_555
C2 C1 1_555 1_555
H1 C2 1_555 1_555
C3 C2 1_555 1_555
C4 C3 1_555 1_555
H2 C4 1_555 1_555
C5 N1 1_555 1_555
H3 C5 1_555 1_555
C6 C1 1_555 1_555
C7 C3 1_555 1_555
H4 O5 1_555 1_555
H5 O5 1_555 1_555
Pb1F O2 1_555 1_555
Pb1G O4 1_555 1_555
O2F Pb1 1_555 1_555
O4G Pb1 1_555 1_555
C4 C5 1_555 1_555

#END
