
#######################################################################
#
#                 Cambridge Crystallographic Data Centre
#                                CCDC 
#
#######################################################################
#
# If this CIF has been generated from an entry in the Cambridge 
# Structural Database, then it will include bibliographic, chemical, 
# crystal, experimental, refinement or atomic coordinate data resulting 
# from the CCDC's data processing and validation procedures.
#
#######################################################################

data_REMKAW
_symmetry_cell_setting           triclinic
_symmetry_space_group_name_H-M   'P -1'
_symmetry_Int_Tables_number      2
_space_group_name_Hall           '-P 1'
loop_
_symmetry_equiv_pos_site_id
_symmetry_equiv_pos_as_xyz
1 x,y,z
2 -x,-y,-z
_cell_length_a                   6.6792(7)
_cell_length_b                   6.7864(7)
_cell_length_c                   17.9141(9)
_cell_angle_alpha                88.823(10)
_cell_angle_beta                 82.684(11)
_cell_angle_gamma                84.562(11)
_cell_volume                     801.74
loop_
_atom_site_label
_atom_site_type_symbol
_atom_site_fract_x
_atom_site_fract_y
_atom_site_fract_z
Pb1 Pb 0.10703(3) 0.40933(3) 0.205050(11)
O1 O 0.4765(6) 0.3983(6) 0.1942(2)
O2 O 0.7885(6) 0.3384(7) 0.1272(2)
O3 O 0.0263(6) 0.1379(7) -0.1085(3)
O4 O 0.3224(7) 0.1170(9) -0.1843(3)
O5 O 0.1245(6) 0.0474(6) 0.2096(2)
O6 O 0.1731(8) -0.2389(7) 0.2733(3)
O7 O 0.2556(8) 0.5963(7) 0.5140(3)
O8 O 0.2878(8) 0.3248(6) 0.5861(2)
O9 O -0.2807(7) 0.4322(7) 0.3066(2)
N1 N 0.2987(7) 0.2970(7) 0.0733(2)
N2 N 0.1909(7) 0.2586(7) 0.3291(2)
C1 C 0.5029(8) 0.2960(8) 0.0653(3)
C2 C 0.6211(8) 0.2514(8) -0.0026(3)
H1 H 0.7614 0.2499 -0.0063
C3 C 0.5300(8) 0.2091(9) -0.0652(3)
H2 H 0.6075 0.1821 -0.1114
C4 C 0.3202(8) 0.2081(8) -0.0572(3)
C5 C 0.2108(7) 0.2548(8) 0.0125(3)
H3 H 0.0703 0.2570 0.0174
C6 C 0.6006(8) 0.3468(8) 0.1338(3)
C7 C 0.2230(8) 0.1521(8) -0.1230(3)
C8 C 0.1958(8) 0.0588(8) 0.3366(3)
C9 C 0.2289(10) -0.0362(9) 0.4035(4)
H4 H 0.2353 -0.1735 0.4072
C10 C 0.2528(10) 0.0773(9) 0.4658(3)
H5 H 0.2714 0.0170 0.5119
C11 C 0.2481(9) 0.2816(8) 0.4573(3)
C12 C 0.2165(9) 0.3673(8) 0.3879(3)
H6 H 0.2132 0.5041 0.3824
C13 C 0.1634(8) -0.0550(8) 0.2682(3)
C14 C 0.2661(9) 0.4167(9) 0.5207(3)
H7 H -0.0386 0.1136 -0.1418
H8 H 0.2265 0.3979 0.6219
H9 H -0.1719 0.3109 0.2993
H10 H -0.4069 0.4130 0.2844
Pb1_2 Pb 1.10703(3) 0.40933(3) 0.205050(11)
Pb1_3 Pb 0.10703(3) -0.59067(3) 0.205050(11)
O2_2 O -0.2115(6) 0.3384(7) 0.1272(2)
O6_2 O 0.1731(8) 0.7611(7) 0.2733(3)
O10 O 0.2845(9) -0.0379(8) -0.3248(3)
H11 H 0.4000 -0.0030 -0.3445
H12 H 0.1961 0.0561 -0.3342
loop_
_geom_bond_atom_site_label_1
_geom_bond_atom_site_label_2
_geom_bond_site_symmetry_1
_geom_bond_site_symmetry_2
Pb1 O1 1_555 1_555
O1 C6 1_555 1_555
O2 C6 1_555 1_555
O3 C7 1_555 1_555
O4 C7 1_555 1_555
O5 Pb1 1_555 1_555
O6 C13 1_555 1_555
O7 C14 1_555 1_555
O8 C14 1_555 1_555
O9 Pb1 1_555 1_555
O10 H11 1_555 1_555
N1 Pb1 1_555 1_555
N2 Pb1 1_555 1_555
C1 N1 1_555 1_555
C2 C1 1_555 1_555
H1 C2 1_555 1_555
C3 C2 1_555 1_555
H2 C3 1_555 1_555
C4 C3 1_555 1_555
C5 N1 1_555 1_555
H3 C5 1_555 1_555
C6 C1 1_555 1_555
C7 C4 1_555 1_555
C8 N2 1_555 1_555
C9 C8 1_555 1_555
H4 C9 1_555 1_555
C10 C9 1_555 1_555
H5 C10 1_555 1_555
C11 C10 1_555 1_555
C12 N2 1_555 1_555
H6 C12 1_555 1_555
C13 O5 1_555 1_555
C14 C11 1_555 1_555
H7 O3 1_555 1_555
H8 O8 1_555 1_555
H9 O9 1_555 1_555
H10 O9 1_555 1_555
H12 O10 1_555 1_555
Pb1_2 O2 1_555 1_555
Pb1_3 O6 1_555 1_555
O2_2 Pb1 1_555 1_555
O6_2 Pb1 1_555 1_555
C4 C5 1_555 1_555
C8 C13 1_555 1_555
C11 C12 1_555 1_555

#END
