
#######################################################################
#
#                 Cambridge Crystallographic Data Centre
#                                CCDC 
#
#######################################################################
#
# If this CIF has been generated from an entry in the Cambridge 
# Structural Database, then it will include bibliographic, chemical, 
# crystal, experimental, refinement or atomic coordinate data resulting 
# from the CCDC's data processing and validation procedures.
#
#######################################################################

data_REMMAY
_symmetry_cell_setting           monoclinic
_symmetry_space_group_name_H-M   'P 21/n'
_symmetry_Int_Tables_number      14
_space_group_name_Hall           '-P 2yn'
loop_
_symmetry_equiv_pos_site_id
_symmetry_equiv_pos_as_xyz
1 x,y,z
2 1/2-x,1/2+y,1/2-z
3 -x,-y,-z
4 1/2+x,1/2-y,1/2+z
_cell_length_a                   14.888(2)
_cell_length_b                   16.397(3)
_cell_length_c                   21.365(3)
_cell_angle_alpha                90
_cell_angle_beta                 98.022(3)
_cell_angle_gamma                90
_cell_volume                     5164.56
loop_
_atom_site_label
_atom_site_type_symbol
_atom_site_fract_x
_atom_site_fract_y
_atom_site_fract_z
Pb1 Pb 0.34508(5) 0.07223(4) 1.14531(4)
Cu1 Cu 0.22817(13) -0.00310(10) 0.64660(9)
Cu2 Cu 0.35327(12) 0.07242(10) 0.69974(9)
O1 O 0.4213(9) 0.2211(8) 1.1175(7)
O2 O 0.3159(8) 0.2040(7) 1.1776(6)
O3 O 0.2383(8) 0.4273(7) 1.3200(6)
O4 O 0.2685(8) 0.5524(7) 1.2904(6)
O5 O 0.2150(9) 0.0801(8) 1.0656(6)
O6 O 0.3332(12) 0.0642(10) 1.0194(8)
O7 O 0.2950(8) 0.0506(7) 0.7881(5)
O8 O 0.1675(7) 0.0018(6) 0.7382(5)
O9 O 0.4267(7) -0.0238(6) 0.7056(5)
O10 O 0.1715(7) 0.0945(6) 0.6129(5)
N1 N 0.3015(9) -0.0967(7) 0.6662(7)
N2 N 0.1426(10) -0.0895(8) 0.5992(6)
N3 N 0.2835(8) 0.1667(7) 0.6720(6)
N4 N 0.4427(9) 0.1565(7) 0.7405(5)
C1 C 0.3755(11) 0.2476(12) 1.1558(10)
C2 C 0.3814(11) 0.3348(10) 1.1768(7)
C3 C 0.4415(11) 0.3884(12) 1.1538(8)
H1 H 0.4782 0.3701 1.1249
C4 C 0.4469(14) 0.4673(14) 1.1736(11)
H2 H 0.4877 0.5026 1.1583
C5 C 0.3949(12) 0.4944(10) 1.2142(8)
H3 H 0.3998 0.5488 1.2264
C6 C 0.3332(11) 0.4452(9) 1.2394(8)
C7 C 0.3286(10) 0.3640(10) 1.2210(8)
H4 H 0.2900 0.3286 1.2384
C8 C 0.2742(11) 0.4749(11) 1.2859(9)
C9 C 0.2502(14) 0.0735(11) 1.0196(9)
C10 C 0.1887(13) 0.0597(9) 0.9578(9)
C11 C 0.0955(15) 0.0581(9) 0.9559(9)
H5 H 0.0696 0.0657 0.9926
C12 C 0.0433(13) 0.0456(9) 0.9007(10)
H6 H -0.0193 0.0434 0.8998
C13 C 0.0806(12) 0.0355(9) 0.8428(8)
H7 H 0.0436 0.0277 0.8044
C14 C 0.1745(10) 0.0380(8) 0.8467(8)
C15 C 0.2266(12) 0.0499(8) 0.9038(8)
H8 H 0.2894 0.0513 0.9059
C16 C 0.2150(11) 0.0306(9) 0.7858(7)
C17 C 0.3872(13) -0.0943(9) 0.6998(8)
C18 C 0.4316(12) -0.1672(10) 0.7214(8)
H9 H 0.4897 -0.1659 0.7440
C19 C 0.3884(16) -0.2381(10) 0.7089(9)
H10 H 0.4162 -0.2860 0.7248
C20 C 0.3034(14) -0.2426(10) 0.6728(9)
H11 H 0.2751 -0.2925 0.6636
C21 C 0.2625(11) -0.1710(9) 0.6511(8)
C22 C 0.1754(12) -0.1645(10) 0.6096(8)
C23 C 0.1299(15) -0.2288(12) 0.5790(11)
H12 H 0.1504 -0.2817 0.5877
C24 C 0.0550(19) -0.2158(15) 0.5360(12)
H13 H 0.0259 -0.2594 0.5139
C25 C 0.0225(13) -0.1371(14) 0.5254(10)
H14 H -0.0293 -0.1270 0.4968
C26 C 0.0687(12) -0.0742(11) 0.5582(9)
H15 H 0.0482 -0.0209 0.5518
C27 C 0.2036(11) 0.1601(10) 0.6377(7)
C28 C 0.1525(11) 0.2374(10) 0.6238(8)
H16 H 0.0956 0.2372 0.5995
C29 C 0.1901(12) 0.3080(9) 0.6471(9)
H17 H 0.1588 0.3565 0.6379
C30 C 0.2710(12) 0.3101(9) 0.6830(8)
H18 H 0.2959 0.3595 0.6982
C31 C 0.3173(10) 0.2378(10) 0.6975(7)
C32 C 0.4071(11) 0.2330(9) 0.7364(7)
C33 C 0.4544(12) 0.2971(10) 0.7674(7)
H19 H 0.4283 0.3487 0.7666
C34 C 0.5397(14) 0.2846(12) 0.7994(9)
H20 H 0.5736 0.3272 0.8194
C35 C 0.5722(12) 0.2078(11) 0.8005(8)
H21 H 0.6302 0.1978 0.8216
C36 C 0.5253(13) 0.1463(9) 0.7730(8)
H22 H 0.5503 0.0943 0.7764
Pb1A Pb 0.15492(5) 0.57223(4) 1.35469(4)
O4A O 0.2315(8) 0.0524(7) 1.2096(6)
Cu3 Cu 0.48368(12) 0.00162(11) 0.58671(9)
Cu4 Cu 0.37601(12) 0.10080(11) 0.54395(9)
O11 O 0.3024(7) 0.0207(6) 0.5025(5)
O12 O 0.5626(6) 0.0825(6) 0.6230(4)
N5 N 0.4040(9) -0.0750(8) 0.5404(6)
N6 N 0.5634(9) -0.0979(7) 0.6119(6)
N7 N 0.4593(8) 0.1786(8) 0.5811(5)
N8 N 0.3012(10) 0.1995(7) 0.5122(6)
C37 C 0.3261(12) -0.0549(10) 0.5060(8)
C38 C 0.2694(11) -0.1174(11) 0.4755(8)
H23 H 0.2146 -0.1041 0.4513
C39 C 0.2960(13) -0.1968(10) 0.4821(8)
H24 H 0.2598 -0.2380 0.4621
C40 C 0.3782(13) -0.2157(10) 0.5192(8)
H25 H 0.3961 -0.2698 0.5249
C41 C 0.4317(12) -0.1555(9) 0.5468(7)
C42 C 0.5186(11) -0.1673(9) 0.5859(7)
C43 C 0.5609(14) -0.2419(10) 0.6004(8)
H26 H 0.5341 -0.2895 0.5831
C44 C 0.6410(15) -0.2463(12) 0.6398(9)
H27 H 0.6688 -0.2963 0.6497
C45 C 0.6794(12) -0.1761(11) 0.6642(9)
H28 H 0.7327 -0.1783 0.6927
C46 C 0.6400(12) -0.1011(11) 0.6472(8)
H29 H 0.6694 -0.0532 0.6614
C47 C 0.5393(12) 0.1595(11) 0.6157(8)
C48 C 0.5962(10) 0.2238(10) 0.6401(7)
H30 H 0.6521 0.2117 0.6635
C49 C 0.5730(12) 0.2995(10) 0.6309(8)
H31 H 0.6121 0.3404 0.6482
C50 C 0.4917(13) 0.3201(10) 0.5962(8)
H32 H 0.4756 0.3745 0.5897
C51 C 0.4340(12) 0.2586(9) 0.5710(8)
C52 C 0.3469(10) 0.2690(9) 0.5327(7)
C53 C 0.3114(13) 0.3436(11) 0.5170(10)
H33 H 0.3423 0.3914 0.5298
C54 C 0.2237(14) 0.3446(13) 0.4796(10)
H34 H 0.1963 0.3942 0.4677
C55 C 0.1800(15) 0.2739(14) 0.4614(10)
H35 H 0.1223 0.2752 0.4383
C56 C 0.2215(12) 0.2007(13) 0.4771(8)
H36 H 0.1933 0.1522 0.4631
O13 O 0.4593(14) 0.0070(18) 0.8725(11)
O14 O 0.5069(18) 0.0933(17) 0.0022(15)
loop_
_geom_bond_atom_site_label_1
_geom_bond_atom_site_label_2
_geom_bond_site_symmetry_1
_geom_bond_site_symmetry_2
Pb1 O2 1_555 1_555
Cu1 Cu2 1_555 1_555
Cu2 O7 1_555 1_555
Cu3 Cu4 1_555 1_555
Cu4 O11 1_555 1_555
O1 C1 1_555 1_555
O2 C1 1_555 1_555
O3 C8 1_555 1_555
O4 C8 1_555 1_555
O5 Pb1 1_555 1_555
O6 Pb1 1_555 1_555
O7 C16 1_555 1_555
O8 Cu1 1_555 1_555
O9 Cu2 1_555 1_555
O10 Cu1 1_555 1_555
O11 C37 1_555 1_555
O12 Cu3 1_555 1_555
N1 Cu1 1_555 1_555
N2 Cu1 1_555 1_555
N3 Cu2 1_555 1_555
N4 Cu2 1_555 1_555
N5 Cu3 1_555 1_555
N6 Cu3 1_555 1_555
N7 Cu4 1_555 1_555
N8 Cu4 1_555 1_555
C1 C2 1_555 1_555
C2 C3 1_555 1_555
C3 H1 1_555 1_555
C4 C3 1_555 1_555
H2 C4 1_555 1_555
C5 C4 1_555 1_555
H3 C5 1_555 1_555
C6 C5 1_555 1_555
C7 C2 1_555 1_555
H4 C7 1_555 1_555
C8 C6 1_555 1_555
C9 O5 1_555 1_555
C10 C9 1_555 1_555
C11 C10 1_555 1_555
H5 C11 1_555 1_555
C12 C11 1_555 1_555
H6 C12 1_555 1_555
C13 C12 1_555 1_555
H7 C13 1_555 1_555
C14 C13 1_555 1_555
C15 C10 1_555 1_555
H8 C15 1_555 1_555
C16 O8 1_555 1_555
C17 O9 1_555 1_555
C18 C17 1_555 1_555
H9 C18 1_555 1_555
C19 C18 1_555 1_555
H10 C19 1_555 1_555
C20 C19 1_555 1_555
H11 C20 1_555 1_555
C21 N1 1_555 1_555
C22 N2 1_555 1_555
C23 C22 1_555 1_555
H12 C23 1_555 1_555
C24 C23 1_555 1_555
H13 C24 1_555 1_555
C25 C24 1_555 1_555
H14 C25 1_555 1_555
C26 N2 1_555 1_555
H15 C26 1_555 1_555
C27 O10 1_555 1_555
C28 C27 1_555 1_555
H16 C28 1_555 1_555
C29 C28 1_555 1_555
H17 C29 1_555 1_555
C30 C29 1_555 1_555
H18 C30 1_555 1_555
C31 N3 1_555 1_555
C32 N4 1_555 1_555
C33 C32 1_555 1_555
H19 C33 1_555 1_555
C34 C33 1_555 1_555
H20 C34 1_555 1_555
C35 C34 1_555 1_555
H21 C35 1_555 1_555
C36 N4 1_555 1_555
H22 C36 1_555 1_555
C37 N5 1_555 1_555
C38 C37 1_555 1_555
H23 C38 1_555 1_555
C39 C38 1_555 1_555
H24 C39 1_555 1_555
C40 C39 1_555 1_555
H25 C40 1_555 1_555
C41 N5 1_555 1_555
C42 N6 1_555 1_555
C43 C42 1_555 1_555
H26 C43 1_555 1_555
C44 C43 1_555 1_555
H27 C44 1_555 1_555
C45 C44 1_555 1_555
H28 C45 1_555 1_555
C46 N6 1_555 1_555
H29 C46 1_555 1_555
C47 O12 1_555 1_555
C48 C47 1_555 1_555
H30 C48 1_555 1_555
C49 C48 1_555 1_555
H31 C49 1_555 1_555
C50 C49 1_555 1_555
H32 C50 1_555 1_555
C51 N7 1_555 1_555
C52 N8 1_555 1_555
C53 C52 1_555 1_555
H33 C53 1_555 1_555
C54 C53 1_555 1_555
H34 C54 1_555 1_555
C55 C54 1_555 1_555
H35 C55 1_555 1_555
C56 N8 1_555 1_555
H36 C56 1_555 1_555
Pb1A O4 1_555 1_555
O4A Pb1 1_555 1_555
O6 C9 1_555 1_555
N1 C17 1_555 1_555
N3 C27 1_555 1_555
N7 C47 1_555 1_555
C6 C7 1_555 1_555
C14 C15 1_555 1_555
C14 C16 1_555 1_555
C20 C21 1_555 1_555
C21 C22 1_555 1_555
C25 C26 1_555 1_555
C30 C31 1_555 1_555
C31 C32 1_555 1_555
C35 C36 1_555 1_555
C40 C41 1_555 1_555
C41 C42 1_555 1_555
C45 C46 1_555 1_555
C50 C51 1_555 1_555
C51 C52 1_555 1_555
C55 C56 1_555 1_555

#END
