
#######################################################################
#
#                 Cambridge Crystallographic Data Centre
#                                CCDC 
#
#######################################################################
#
# If this CIF has been generated from an entry in the Cambridge 
# Structural Database, then it will include bibliographic, chemical, 
# crystal, experimental, refinement or atomic coordinate data resulting 
# from the CCDC's data processing and validation procedures.
#
#######################################################################

data_REMMIG
_symmetry_cell_setting           triclinic
_symmetry_space_group_name_H-M   'P -1'
_symmetry_Int_Tables_number      2
_space_group_name_Hall           '-P 1'
loop_
_symmetry_equiv_pos_site_id
_symmetry_equiv_pos_as_xyz
1 x,y,z
2 -x,-y,-z
_cell_length_a                   9.3593(19)
_cell_length_b                   11.904(2)
_cell_length_c                   18.237(4)
_cell_angle_alpha                93.18(3)
_cell_angle_beta                 98.53(3)
_cell_angle_gamma                91.98(3)
_cell_volume                     2004.39
loop_
_atom_site_label
_atom_site_type_symbol
_atom_site_fract_x
_atom_site_fract_y
_atom_site_fract_z
Cd1 Cd 0.56311(7) 0.84584(5) 1.01880(4)
Cd2 Cd 1.08812(7) 0.14585(5) 1.54208(4)
Cl1 Cl 1.0864(2) 0.01931(19) 1.42082(12)
Cl2 Cl 0.4128(2) 1.00328(19) 1.07934(12)
Cl3 Cl 0.6989(3) 0.6948(2) 0.95939(16)
N1 N 0.7741(8) 0.9298(7) 1.0906(4)
C1 C 0.8974(10) 0.9184(9) 1.0679(6)
H1 H 0.9026 0.8686 1.0274
C2 C 0.1025(10) 0.6450(7) 0.8743(5)
C3 C 0.1024(10) 0.7034(9) 0.9421(6)
H2 H 0.0190 0.7026 0.9642
C4 C 0.2245(11) 0.7625(8) 0.9769(5)
H3 H 0.2195 0.8037 1.0212
N2 N 0.8886(9) 0.2457(7) 1.4937(5)
N3 N 0.3483(8) 0.7639(6) 0.9508(4)
C5 C 1.2493(9) 1.0564(8) 1.2467(5)
H4 H 1.1992 1.0159 1.2807
H5 H 1.2923 1.0016 1.2163
C6 C 0.0555(10) 0.3310(8) 0.8026(5)
N4 N 0.0637(8) 0.2288(7) 0.6614(5)
N5 N 0.5073(10) 0.7354(7) 1.1176(4)
C7 C 1.1415(10) 1.1219(9) 1.1973(6)
H6 H 1.1544 1.1983 1.1909
C8 C 0.6405(11) 0.2770(9) 1.4717(7)
H7 H 0.5480 0.2531 1.4785
C9 C 1.0153(9) 1.0536(8) 1.1607(5)
C10 C 0.1729(12) 0.3442(10) 0.7681(7)
H8 H 0.2524 0.3890 0.7906
C11 C -0.0479(12) 0.2181(10) 0.6964(7)
H9 H -0.1276 0.1748 0.6724
C12 C -0.0278(11) 0.5770(8) 0.8374(6)
H10 H -0.1108 0.6240 0.8337
H11 H -0.0136 0.5532 0.7874
C13 C 0.8851(10) 1.0629(10) 1.1845(5)
H12 H 0.8754 1.1112 1.2251
C14 C 1.0209(10) 0.9768(9) 1.1011(6)
H13 H 1.1082 0.9651 1.0838
C15 C -0.0586(11) 0.4766(9) 0.8774(7)
H14 H -0.1526 0.4439 0.8554
H15 H -0.0648 0.5006 0.9285
C16 C 0.5309(12) 0.4326(10) 1.4018(7)
H16 H 0.4443 0.3841 1.3977
H17 H 0.5199 0.4962 1.4358
C17 C 0.4910(12) 0.7821(9) 1.1850(6)
H18 H 0.5020 0.8599 1.1933
C18 C 0.7559(11) 0.2185(10) 1.4995(7)
H19 H 0.7385 0.1545 1.5245
C19 C 0.3459(11) 0.7106(9) 0.8832(6)
H20 H 0.4292 0.7146 0.8612
C20 C 0.2285(11) 0.6517(9) 0.8459(6)
H21 H 0.2343 0.6153 0.8000
C21 C 0.0499(13) 0.3870(10) 0.8775(6)
H22 H 0.1449 0.4202 0.8971
H23 H 0.0271 0.3302 0.9106
C22 C 0.1730(11) 0.2907(10) 0.6998(6)
H24 H 0.2568 0.2983 0.6784
C23 C -0.0564(13) 0.2653(10) 0.7651(7)
H25 H -0.1392 0.2527 0.7865
C24 C 0.6587(12) 0.3680(9) 1.4348(6)
C25 C 1.3664(10) 1.1330(9) 1.2903(7)
H26 H 1.4032 1.1840 1.2571
H27 H 1.3258 1.1779 1.3275
C26 C 0.5414(12) 0.4751(10) 1.3274(6)
H28 H 0.5562 0.4123 1.2936
H29 H 0.6250 0.5269 1.3316
N6 N 1.7155(8) 0.9518(7) 1.3976(4)
C27 C 1.5848(10) 0.9419(9) 1.4156(6)
H30 H 1.5690 0.8943 1.4526
C28 C 1.4874(10) 1.0700(8) 1.3275(5)
C29 C 1.6218(11) 1.0814(11) 1.3094(6)
H31 H 1.6395 1.1285 1.2724
C30 C 1.4718(11) 0.9987(9) 1.3820(6)
H32 H 1.3814 0.9885 1.3967
C31 C 1.7308(11) 1.0239(11) 1.3454(6)
H33 H 1.8227 1.0355 1.3328
Cl4 Cl 1.2647(3) 0.2957(2) 1.5139(2)
C32 C 0.4583(12) 0.7184(9) 1.2426(6)
H34 H 0.4501 0.7539 1.2885
C33 C 0.7691(10) 1.0005(10) 1.1479(6)
H35 H 0.6806 1.0084 1.1646
C34 C 0.4380(10) 0.6042(10) 1.2323(6)
C35 C 0.4824(12) 0.6238(8) 1.1073(6)
H36 H 0.4897 0.5899 1.0609
C36 C 0.4467(11) 0.5562(9) 1.1609(6)
H37 H 0.4283 0.4794 1.1502
C37 C 0.4068(12) 0.5352(11) 1.2949(7)
H38 H 0.3292 0.4800 1.2768
H39 H 0.3755 0.5837 1.3333
C38 C 0.7934(14) 0.3980(14) 1.4278(12)
H40 H 0.8124 0.4611 1.4023
C39 C 0.9044(15) 0.3357(14) 1.4583(11)
H41 H 0.9980 0.3594 1.4532
Cd1A Cd 0.43689(7) 1.15416(5) 0.98120(4)
Cd2A Cd 0.91188(7) -0.14585(5) 1.45792(4)
Cd2_2 Cd 0.08812(7) 0.14585(5) 0.54208(4)
Cd2A_2 Cd 1.91188(7) 0.85415(5) 1.45792(4)
Cl1A Cl 0.9136(2) -0.01931(19) 1.57918(12)
Cl2A Cl 0.5872(2) 0.99672(19) 0.92066(12)
N4_2 N 1.0637(8) 0.2288(7) 1.6614(5)
N6A N 1.2845(8) 0.0482(7) 1.6024(4)
loop_
_geom_bond_atom_site_label_1
_geom_bond_atom_site_label_2
_geom_bond_site_symmetry_1
_geom_bond_site_symmetry_2
Cd1 Cl2 1_555 1_555
Cd2 Cl1 1_555 1_555
Cl1 Cd2A 1_555 1_555
Cl2 Cd1A 1_555 1_555
Cl3 Cd1 1_555 1_555
N1 Cd1 1_555 1_555
C1 N1 1_555 1_555
H1 C1 1_555 1_555
C2 C3 1_555 1_555
C3 H2 1_555 1_555
C4 C3 1_555 1_555
H3 C4 1_555 1_555
N2 Cd2 1_555 1_555
N3 Cd1 1_555 1_555
C5 H4 1_555 1_555
H5 C5 1_555 1_555
C6 C10 1_555 1_555
N4 C11 1_555 1_555
N5 Cd1 1_555 1_555
C7 C5 1_555 1_555
H6 C7 1_555 1_555
C8 H7 1_555 1_555
C9 C7 1_555 1_555
C10 H8 1_555 1_555
C11 H9 1_555 1_555
C12 C2 1_555 1_555
H10 C12 1_555 1_555
H11 C12 1_555 1_555
C13 C9 1_555 1_555
H12 C13 1_555 1_555
C14 C1 1_555 1_555
H13 C14 1_555 1_555
C15 C12 1_555 1_555
H14 C15 1_555 1_555
H15 C15 1_555 1_555
C16 H16 1_555 1_555
H17 C16 1_555 1_555
C17 N5 1_555 1_555
H18 C17 1_555 1_555
C18 N2 1_555 1_555
H19 C18 1_555 1_555
C19 N3 1_555 1_555
H20 C19 1_555 1_555
C20 C2 1_555 1_555
H21 C20 1_555 1_555
C21 C6 1_555 1_555
H22 C21 1_555 1_555
H23 C21 1_555 1_555
C22 N4 1_555 1_555
H24 C22 1_555 1_555
C23 C6 1_555 1_555
H25 C23 1_555 1_555
C24 C8 1_555 1_555
C25 C5 1_555 1_555
H26 C25 1_555 1_555
H27 C25 1_555 1_555
C26 C16 1_555 1_555
H28 C26 1_555 1_555
H29 C26 1_555 1_555
N6 C27 1_555 1_555
C27 H30 1_555 1_555
C28 C25 1_555 1_555
C29 C28 1_555 1_555
H31 C29 1_555 1_555
C30 C27 1_555 1_555
H32 C30 1_555 1_555
C31 N6 1_555 1_555
H33 C31 1_555 1_555
Cl4 Cd2 1_555 1_555
C32 C17 1_555 1_555
H34 C32 1_555 1_555
C33 N1 1_555 1_555
H35 C33 1_555 1_555
C34 C32 1_555 1_555
C35 N5 1_555 1_555
H36 C35 1_555 1_555
C36 C34 1_555 1_555
H37 C36 1_555 1_555
C37 C26 1_555 1_555
H38 C37 1_555 1_555
H39 C37 1_555 1_555
C38 C24 1_555 1_555
H40 C38 1_555 1_555
C39 N2 1_555 1_555
H41 C39 1_555 1_555
Cd1A Cl2A 1_555 1_555
Cd2A Cl1A 1_555 1_555
Cd2_2 N4 1_555 1_555
Cd2A_2 N6 1_555 1_555
Cl1A Cd2 1_555 1_555
Cl2A Cd1 1_555 1_555
N4_2 Cd2 1_555 1_555
N6A Cd2 1_555 1_555
C4 N3 1_555 1_555
C8 C18 1_555 1_555
C9 C14 1_555 1_555
C10 C22 1_555 1_555
C11 C23 1_555 1_555
C13 C33 1_555 1_555
C15 C21 1_555 1_555
C16 C24 1_555 1_555
C19 C20 1_555 1_555
C28 C30 1_555 1_555
C29 C31 1_555 1_555
C34 C37 1_555 1_555
C35 C36 1_555 1_555
C38 C39 1_555 1_555

#END
