
#######################################################################
#
#                 Cambridge Crystallographic Data Centre
#                                CCDC 
#
#######################################################################
#
# If this CIF has been generated from an entry in the Cambridge 
# Structural Database, then it will include bibliographic, chemical, 
# crystal, experimental, refinement or atomic coordinate data resulting 
# from the CCDC's data processing and validation procedures.
#
#######################################################################

data_REMNAZ
_symmetry_cell_setting           triclinic
_symmetry_space_group_name_H-M   'P -1'
_symmetry_Int_Tables_number      2
_space_group_name_Hall           '-P 1'
loop_
_symmetry_equiv_pos_site_id
_symmetry_equiv_pos_as_xyz
1 x,y,z
2 -x,-y,-z
_cell_length_a                   7.7791(16)
_cell_length_b                   10.507(2)
_cell_length_c                   14.194(3)
_cell_angle_alpha                102.37(3)
_cell_angle_beta                 103.50(3)
_cell_angle_gamma                91.78(3)
_cell_volume                     1097.88
loop_
_atom_site_label
_atom_site_type_symbol
_atom_site_fract_x
_atom_site_fract_y
_atom_site_fract_z
Br1 Br 0.19487(7) -0.13291(5) 0.50126(4)
Br2 Br -0.33827(7) -1.25913(5) -0.58132(4)
Cu1 Cu -0.32383(10) -1.06772(7) -0.46089(5)
Cu2 Cu -0.10603(10) -0.09457(8) 0.41477(5)
O1 O -0.1626(4) -0.2986(3) -0.0610(2)
N1 N -1.0767(4) -0.4300(3) -0.2552(3)
O2 O -0.2533(4) -0.6329(3) -0.1691(2)
C1 C -0.9048(5) -0.4332(4) -0.2161(3)
H1 H -0.8686 -0.4484 -0.1525
C2 C -0.3583(5) -0.8495(4) -0.1812(3)
C3 C -0.3431(5) -0.7062(4) -0.1347(3)
C4 C -0.1475(5) -0.1836(4) 0.1025(3)
C5 C -0.1865(5) -0.3066(4) 0.0225(3)
C6 C -0.4086(7) -1.1050(4) -0.2794(4)
H2 H -0.4249 -1.1926 -0.3125
C7 C -0.4392(7) -1.0714(4) -0.1857(4)
H3 H -0.4752 -1.1352 -0.1563
C8 C -0.4157(6) -0.9416(4) -0.1365(4)
H4 H -0.4382 -0.9163 -0.0739
C9 C -0.0814(8) 0.0471(5) 0.1586(4)
H5 H -0.0586 0.1288 0.1466
C10 C -0.1128(6) -0.0648(4) 0.0819(4)
H6 H -0.1103 -0.0592 0.0177
N2 N -0.3561(5) -1.0161(4) -0.3249(3)
C11 C -0.3279(5) -0.8910(4) -0.2755(3)
H7 H -0.2865 -0.8294 -0.3050
C12 C -0.1499(6) -0.1861(4) 0.1992(3)
H8 H -0.1759 -0.2662 0.2129
C13 C -1.1286(5) -0.4072(4) -0.3466(3)
H9 H -1.2490 -0.4055 -0.3742
C14 C -0.0848(7) 0.0344(5) 0.2513(4)
H10 H -0.0636 0.1095 0.3022
N3 N -0.1171(5) -0.0804(4) 0.2737(3)
O3 O -0.2400(4) -0.4094(3) 0.0417(2)
C15 C -1.0086(6) -0.3862(5) -0.4011(3)
H11 H -1.0474 -0.3687 -0.4638
C16 C -0.8310(5) -0.3915(4) -0.3607(3)
H12 H -0.7479 -0.3796 -0.3964
C17 C -0.7775(5) -0.4148(4) -0.2670(3)
C18 C -0.5876(5) -0.4219(4) -0.2188(3)
O4 O -0.5438(4) -0.4369(4) -0.1327(3)
O5 O -0.4739(3) -0.4123(3) -0.2684(2)
O6 O -0.4174(4) -0.6725(3) -0.0658(2)
Cu3 Cu -0.5000 -0.5000 0.0000
Cu4 Cu -0.25369(6) -0.45003(4) -0.17191(3)
Br1A Br -0.19487(7) -0.86709(5) -0.50126(4)
Br1A_2 Br -0.19487(7) 0.13291(5) 0.49874(4)
Br1_2 Br -0.80513(7) -0.13291(5) 0.50126(4)
Br1A_3 Br -1.19487(7) -0.86709(5) -0.50126(4)
Br1_3 Br -0.80513(7) -1.13291(5) -0.49874(4)
Br2_2 Br -0.33827(7) -0.25913(5) 0.41868(4)
Br2A Br -0.66173(7) 0.25913(5) 0.58132(4)
Br2A_2 Br -0.66173(7) -0.74087(5) -0.41868(4)
Cu1A Cu -0.67617(10) 0.06772(7) 0.46089(5)
Cu1A_2 Cu 0.32383(10) 0.06772(7) 0.46089(5)
Cu1_2 Cu -0.32383(10) -0.06772(7) 0.53911(5)
Cu2A Cu -0.89397(10) -0.90543(8) -0.41477(5)
Cu2_2 Cu -0.10603(10) -1.09457(8) -0.58523(5)
Cu2A_2 Cu 0.10603(10) -0.90543(8) -0.41477(5)
Cu2A_3 Cu 0.10603(10) 0.09457(8) 0.58523(5)
O1A O -0.8374(4) -0.7014(3) 0.0610(2)
N1A N 0.0767(4) -0.5700(3) 0.2552(3)
N1_2 N -0.0767(4) -0.4300(3) -0.2552(3)
N1A_2 N -0.9233(4) -0.5700(3) 0.2552(3)
O2A O -0.7467(4) -0.3671(3) 0.1691(2)
C1A C -0.0952(5) -0.5668(4) 0.2161(3)
H1A H -0.1314 -0.5516 0.1525
C2A C -0.6417(5) -0.1505(4) 0.1812(3)
C3A C -0.6569(5) -0.2938(4) 0.1347(3)
C4A C -0.8525(5) -0.8164(4) -0.1025(3)
C5A C -0.8135(5) -0.6934(4) -0.0225(3)
C6A C -0.5914(7) 0.1050(4) 0.2794(4)
H2A H -0.5751 0.1926 0.3125
C7A C -0.5608(7) 0.0714(4) 0.1857(4)
H3A H -0.5248 0.1352 0.1563
C8A C -0.5843(6) -0.0584(4) 0.1365(4)
H4A H -0.5618 -0.0837 0.0739
C9A C -0.9186(8) -1.0471(5) -0.1586(4)
H5A H -0.9414 -1.1288 -0.1466
C10A C -0.8872(6) -0.9352(4) -0.0819(4)
H6A H -0.8897 -0.9408 -0.0177
N2A N -0.6439(5) 0.0161(4) 0.3249(3)
C11A C -0.6721(5) -0.1090(4) 0.2755(3)
H7A H -0.7135 -0.1706 0.3050
C12A C -0.8501(6) -0.8139(4) -0.1992(3)
H8A H -0.8241 -0.7338 -0.2129
C13A C 0.1286(5) -0.5928(4) 0.3466(3)
H9A H 0.2490 -0.5945 0.3742
C14A C -0.9152(7) -1.0344(5) -0.2513(4)
H10A H -0.9364 -1.1095 -0.3022
N3A N -0.8829(5) -0.9196(4) -0.2737(3)
O3A O -0.7600(4) -0.5906(3) -0.0417(2)
C15A C 0.0086(6) -0.6138(5) 0.4011(3)
H11A H 0.0474 -0.6313 0.4638
C16A C -0.1690(5) -0.6085(4) 0.3607(3)
H12A H -0.2521 -0.6204 0.3964
C17A C -0.2225(5) -0.5852(4) 0.2670(3)
C18A C -0.4124(5) -0.5781(4) 0.2188(3)
O4A O -0.4562(4) -0.5631(4) 0.1327(3)
O5A O -0.5261(3) -0.5877(3) 0.2684(2)
O6A O -0.5826(4) -0.3275(3) 0.0658(2)
Cu4A Cu -0.74631(6) -0.54997(4) 0.17191(3)
Cu4_2 Cu -1.25369(6) -0.45003(4) -0.17191(3)
Cu4A_2 Cu 0.25369(6) -0.54997(4) 0.17191(3)
loop_
_geom_bond_atom_site_label_1
_geom_bond_atom_site_label_2
_geom_bond_site_symmetry_1
_geom_bond_site_symmetry_2
Br1 Cu2 1_555 1_555
Br2 Cu1 1_555 1_555
Cu1 N2 1_555 1_555
Cu2 N3 1_555 1_555
O1 C5 1_555 1_555
N1 C1 1_555 1_555
O2 C3 1_555 1_555
C1 H1 1_555 1_555
C2 C3 1_555 1_555
C3 O6 1_555 1_555
C4 C5 1_555 1_555
C5 O3 1_555 1_555
C6 H2 1_555 1_555
C7 C6 1_555 1_555
H3 C7 1_555 1_555
C8 C2 1_555 1_555
H4 C8 1_555 1_555
C9 H5 1_555 1_555
C10 C4 1_555 1_555
H6 C10 1_555 1_555
N2 C6 1_555 1_555
C11 C2 1_555 1_555
H7 C11 1_555 1_555
C12 C4 1_555 1_555
H8 C12 1_555 1_555
C13 N1 1_555 1_555
H9 C13 1_555 1_555
C14 C9 1_555 1_555
H10 C14 1_555 1_555
N3 C12 1_555 1_555
O3 Cu3 1_555 1_555
C15 C13 1_555 1_555
H11 C15 1_555 1_555
C16 C15 1_555 1_555
H12 C16 1_555 1_555
C17 C1 1_555 1_555
C18 C17 1_555 1_555
O4 C18 1_555 1_555
O5 C18 1_555 1_555
O6 Cu3 1_555 1_555
Cu3 O4 1_555 1_555
Cu4 O1 1_555 1_555
Br1A Cu1 1_555 1_555
Br1A_2 Cu2 1_555 1_555
Br1_2 Cu1A 1_555 1_555
Br1A_3 Cu2A 1_555 1_555
Br1_3 Cu2A 1_555 1_555
Br2_2 Cu2 1_555 1_555
Br2A Cu1A 1_555 1_555
Br2A_2 Cu2A 1_555 1_555
Cu1A N2A 1_555 1_555
Cu1A_2 Br1 1_555 1_555
Cu1_2 Br1A_2 1_555 1_555
Cu2A N3A 1_555 1_555
Cu2_2 Br2 1_555 1_555
Cu2A_2 Br1A 1_555 1_555
Cu2A_3 Br1 1_555 1_555
O1A C5A 1_555 1_555
N1A C1A 1_555 1_555
N1_2 Cu4 1_555 1_555
N1A_2 Cu4A 1_555 1_555
O2A C3A 1_555 1_555
C1A H1A 1_555 1_555
C2A C3A 1_555 1_555
C3A O6A 1_555 1_555
C4A C5A 1_555 1_555
C5A O3A 1_555 1_555
C6A H2A 1_555 1_555
C7A C6A 1_555 1_555
H3A C7A 1_555 1_555
C8A C2A 1_555 1_555
H4A C8A 1_555 1_555
C9A H5A 1_555 1_555
C10A C4A 1_555 1_555
H6A C10A 1_555 1_555
N2A C6A 1_555 1_555
C11A C2A 1_555 1_555
H7A C11A 1_555 1_555
C12A C4A 1_555 1_555
H8A C12A 1_555 1_555
C13A N1A 1_555 1_555
H9A C13A 1_555 1_555
C14A C9A 1_555 1_555
H10A C14A 1_555 1_555
N3A C12A 1_555 1_555
O3A Cu3 1_555 1_555
C15A C13A 1_555 1_555
H11A C15A 1_555 1_555
C16A C15A 1_555 1_555
H12A C16A 1_555 1_555
C17A C1A 1_555 1_555
C18A C17A 1_555 1_555
O4A Cu3 1_555 1_555
O5A C18A 1_555 1_555
O6A Cu3 1_555 1_555
Cu4A O1A 1_555 1_555
Cu4_2 N1 1_555 1_555
Cu4A_2 N1A 1_555 1_555
O2 Cu4 1_555 1_555
C7 C8 1_555 1_555
C9 C10 1_555 1_555
N2 C11 1_555 1_555
C14 N3 1_555 1_555
C16 C17 1_555 1_555
O5 Cu4 1_555 1_555
Br1A Cu2_2 1_555 1_555
Br1A_2 Cu2A_3 1_555 1_555
Br2_2 Cu1_2 1_555 1_555
O2A Cu4A 1_555 1_555
C7A C8A 1_555 1_555
C9A C10A 1_555 1_555
N2A C11A 1_555 1_555
C14A N3A 1_555 1_555
C16A C17A 1_555 1_555
C18A O4A 1_555 1_555
O5A Cu4A 1_555 1_555

#END
