
#######################################################################
#
#                 Cambridge Crystallographic Data Centre
#                                CCDC 
#
#######################################################################
#
# If this CIF has been generated from an entry in the Cambridge 
# Structural Database, then it will include bibliographic, chemical, 
# crystal, experimental, refinement or atomic coordinate data resulting 
# from the CCDC's data processing and validation procedures.
#
#######################################################################

data_REMPAB
_symmetry_cell_setting           orthorhombic
_symmetry_space_group_name_H-M   'C c c a'
_symmetry_Int_Tables_number      68
_space_group_name_Hall           '-C 2b 2bc'
loop_
_symmetry_equiv_pos_site_id
_symmetry_equiv_pos_as_xyz
1 x,y,z
2 1/2+x,1/2+y,z
3 1/2-x,-y,z
4 -x,y,1/2-z
5 1/2+x,-y,1/2-z
6 -x,1/2-y,z
7 1/2-x,1/2+y,1/2-z
8 x,1/2-y,1/2-z
9 -x,-y,-z
10 1/2-x,1/2-y,-z
11 1/2+x,y,-z
12 x,-y,1/2+z
13 1/2-x,y,1/2+z
14 x,1/2+y,-z
15 1/2+x,1/2-y,1/2+z
16 -x,1/2+y,1/2+z
_cell_length_a                   10.1630(11)
_cell_length_b                   10.6042(15)
_cell_length_c                   10.1858(10)
_cell_angle_alpha                90
_cell_angle_beta                 90
_cell_angle_gamma                90
_cell_volume                     1097.73
loop_
_atom_site_label
_atom_site_type_symbol
_atom_site_fract_x
_atom_site_fract_y
_atom_site_fract_z
Zn1 Zn 0.0000 0.2500 0.2500
Cl1 Cl 0.0000 0.47768(5) 0.2500
N1 N 0.15365(15) 0.24884(12) 0.09712(15)
C1 C 0.25639(11) 0.32718(12) 0.10274(11)
H1 H 0.2640 0.3834 0.1749
C2 C 0.14805(11) 0.17155(12) -0.00601(11)
H2 H 0.0766 0.1142 -0.0132
Zn1J Zn 0.5000 0.2500 -0.2500
Zn1J_2 Zn -0.5000 0.2500 0.7500
Cl1E Cl 0.0000 0.02232(5) 0.2500
N1I N 0.34635(15) 0.25116(12) -0.09712(15)
N1C N -0.15365(15) 0.24884(12) 0.40288(15)
N1N N -0.34635(15) 0.25116(12) 0.59712(15)
N1E N -0.15365(15) 0.25116(12) 0.09712(15)
N1G N 0.15365(15) 0.25116(12) 0.40288(15)
C1I C 0.24361(11) 0.17282(12) -0.10274(11)
C1C C -0.25639(11) 0.32718(12) 0.39726(11)
C1N C -0.24361(11) 0.17282(12) 0.60274(11)
H1I H 0.2360 0.1166 -0.1749
H1C H -0.2640 0.3834 0.3251
H1N H -0.2360 0.1166 0.6749
C2I C 0.35195(11) 0.32845(12) 0.00601(11)
C2C C -0.14805(11) 0.17155(12) 0.50601(11)
C2N C -0.35195(11) 0.32845(12) 0.49399(11)
H2I H 0.4234 0.3858 0.0132
H2C H -0.0766 0.1142 0.5132
H2N H -0.4234 0.3858 0.4868
loop_
_geom_bond_atom_site_label_1
_geom_bond_atom_site_label_2
_geom_bond_site_symmetry_1
_geom_bond_site_symmetry_2
Zn1 Cl1 1_555 1_555
N1 Zn1 1_555 1_555
C1 N1 1_555 1_555
H1 C1 1_555 1_555
C2 N1 1_555 1_555
H2 C2 1_555 1_555
Zn1J N1I 1_555 1_555
Zn1J_2 N1N 1_555 1_555
Cl1E Zn1 1_555 1_555
N1I C1I 1_555 1_555
N1C Zn1 1_555 1_555
N1N C1N 1_555 1_555
N1E Zn1 1_555 1_555
N1G Zn1 1_555 1_555
C1I C2 1_555 1_555
C1C N1C 1_555 1_555
C1N H1N 1_555 1_555
H1I C1I 1_555 1_555
H1C C1C 1_555 1_555
C2I C1 1_555 1_555
C2C N1C 1_555 1_555
C2N N1N 1_555 1_555
H2I C2I 1_555 1_555
H2C C2C 1_555 1_555
H2N C2N 1_555 1_555
N1I C2I 1_555 1_555
C1C C2N 1_555 1_555
C1N C2C 1_555 1_555

#END
