
#######################################################################
#
#                 Cambridge Crystallographic Data Centre
#                                CCDC 
#
#######################################################################
#
# If this CIF has been generated from an entry in the Cambridge 
# Structural Database, then it will include bibliographic, chemical, 
# crystal, experimental, refinement or atomic coordinate data resulting 
# from the CCDC's data processing and validation procedures.
#
#######################################################################

data_REMREI
_symmetry_cell_setting           monoclinic
_symmetry_space_group_name_H-M   'P 21/m'
_symmetry_Int_Tables_number      11
_space_group_name_Hall           '-P 2yb'
loop_
_symmetry_equiv_pos_site_id
_symmetry_equiv_pos_as_xyz
1 x,y,z
2 -x,1/2+y,-z
3 -x,-y,-z
4 x,1/2-y,z
_cell_length_a                   6.4004(7)
_cell_length_b                   10.3632(11)
_cell_length_c                   16.0411(18)
_cell_angle_alpha                90
_cell_angle_beta                 100.904(2)
_cell_angle_gamma                90
_cell_volume                     1044.77
loop_
_atom_site_label
_atom_site_type_symbol
_atom_site_fract_x
_atom_site_fract_y
_atom_site_fract_z
C1 C 0.3777(8) 0.4956(5) -0.0103(3)
C2 C 0.5514(9) 0.4786(6) 0.2749(4)
C3 C 0.5596(11) 0.3653(6) 0.3350(4)
H1 H 0.7071 0.3451 0.3582
H2 H 0.4915 0.3895 0.3818
C4 C 0.2203(14) 0.2500 0.2959(6)
H3 H 0.1901 0.1747 0.3275
C5 C 0.0679(11) 0.2500 0.2118(4)
C6 C 0.9117(9) 0.5030(6) 0.5267(4)
H4 H 0.365(13) 0.684(8) 0.424(5)
H5 H 1.014(17) 0.693(9) 0.248(6)
N1 N 0.4552(10) 0.2500 0.2940(4)
O1 O 0.2934(6) 0.4018(4) 0.0186(3)
O2 O 0.2815(6) 0.5865(4) -0.0541(2)
O3 O 0.4867(7) 0.4631(4) 0.1967(3)
O4 O 0.6120(9) 0.5867(5) 0.3079(3)
O5 O 0.1394(8) 0.2500 0.1451(3)
O6 O -0.1270(9) 0.2500 0.2166(4)
O7 O 0.7859(8) 0.5960(5) 0.5125(3)
O8 O 0.9075(8) 0.4133(5) 0.5776(3)
O9 O 0.4337(11) 0.7500 0.4244(6)
O10 O 0.9816(13) 0.7500 0.2722(5)
Pr1 Pr 0.51175(6) 0.2500 0.12580(2)
Pr2 Pr 0.79570(6) 0.7500 0.39432(2)
C1B C 0.6223(8) 0.5044(5) 0.0103(3)
C2C C 0.5514(9) 0.0214(6) 0.2749(4)
C3C C 0.5596(11) 0.1347(6) 0.3350(4)
H1C H 0.7071 0.1549 0.3582
H2C H 0.4915 0.1105 0.3818
H3C H 0.1901 0.3253 0.3275
C6B C 1.0883(9) 0.4970(6) 0.4733(4)
H4C H 0.365(13) 0.816(8) 0.424(5)
H5C H 1.014(17) 0.807(9) 0.248(6)
O1B O 0.7066(6) 0.5982(4) -0.0186(3)
O1C O 0.2934(6) 0.0982(4) 0.0186(3)
O2B O 0.7185(6) 0.4135(4) 0.0541(2)
O2A O 0.7185(6) 0.0865(4) 0.0541(2)
O3C O 0.4867(7) 0.0369(4) 0.1967(3)
O4C O 0.6120(9) -0.0867(5) 0.3079(3)
O4C_2 O 0.6120(9) 0.9133(5) 0.3079(3)
O6_2 O 0.8730(9) 0.2500 0.2166(4)
O7B O 1.2141(8) 0.4040(5) 0.4875(3)
O7C O 0.7859(8) 0.9040(5) 0.5125(3)
O8B O 1.0925(8) 0.5867(5) 0.4224(3)
O8A O 1.0925(8) 0.9133(5) 0.4224(3)
Pr1A Pr 0.48825(6) 0.7500 -0.12580(2)
Pr1_2 Pr -0.48825(6) 0.2500 0.12580(2)
Pr2A Pr 1.20430(6) 0.2500 0.60568(2)
Pr2_2 Pr 0.79570(6) -0.2500 0.39432(2)
H6 H 0.00(2) 0.456(15) -0.134(8)
H7 H -0.198(15) 0.504(9) -0.168(6)
O11 O -0.0512(9) 0.4427(5) -0.1628(4)
H8 H -0.48(2) 0.295(15) -0.157(8)
O12 O -0.4687(18) 0.2500 -0.1320(7)
H8C H -0.48(2) 0.205(15) -0.157(8)
K1 K -0.0541(3) 0.2500 -0.03508(11)
loop_
_geom_bond_atom_site_label_1
_geom_bond_atom_site_label_2
_geom_bond_site_symmetry_1
_geom_bond_site_symmetry_2
C1 O1 1_555 1_555
C2 C3 1_555 1_555
C3 H1 1_555 1_555
H2 C3 1_555 1_555
C4 H3 1_555 1_555
C5 C4 1_555 1_555
C6 O7 1_555 1_555
H4 O9 1_555 1_555
H5 O10 1_555 1_555
H6 O11 1_555 1_555
H7 O11 1_555 1_555
H8 O12 1_555 1_555
N1 C3 1_555 1_555
O1 Pr1 1_555 1_555
O2 C1 1_555 1_555
O3 C2 1_555 1_555
O4 C2 1_555 1_555
O5 C5 1_555 1_555
O6 C5 1_555 1_555
O7 Pr2 1_555 1_555
O8 C6 1_555 1_555
O9 Pr2 1_555 1_555
O10 Pr2 1_555 1_555
O12 H8C 1_555 1_555
Pr1 N1 1_555 1_555
Pr2 O4 1_555 1_555
C1B C1 1_555 1_555
C2C C3C 1_555 1_555
C3C N1 1_555 1_555
H1C C3C 1_555 1_555
H2C C3C 1_555 1_555
H3C C4 1_555 1_555
C6B C6 1_555 1_555
H4C O9 1_555 1_555
H5C O10 1_555 1_555
O1B C1B 1_555 1_555
O1C Pr1 1_555 1_555
O2B Pr1 1_555 1_555
O2A Pr1 1_555 1_555
O3C Pr1 1_555 1_555
O4C C2C 1_555 1_555
O4C_2 Pr2 1_555 1_555
O6_2 Pr1 1_555 1_555
O7B C6B 1_555 1_555
O7C Pr2 1_555 1_555
O8B Pr2 1_555 1_555
O8A Pr2 1_555 1_555
Pr1A O2 1_555 1_555
Pr1_2 O6 1_555 1_555
Pr2A O8 1_555 1_555
Pr2_2 O4C 1_555 1_555
C4 N1 1_555 1_555
O3 Pr1 1_555 1_555
O5 Pr1 1_555 1_555
C1B O2B 1_555 1_555
C2C O3C 1_555 1_555
C6B O8B 1_555 1_555
O1B Pr1A 1_555 1_555
O7B Pr2A 1_555 1_555

#END
