
#######################################################################
#
#                 Cambridge Crystallographic Data Centre
#                                CCDC 
#
#######################################################################
#
# If this CIF has been generated from an entry in the Cambridge 
# Structural Database, then it will include bibliographic, chemical, 
# crystal, experimental, refinement or atomic coordinate data resulting 
# from the CCDC's data processing and validation procedures.
#
#######################################################################

data_REMWOW
_symmetry_cell_setting           monoclinic
_symmetry_space_group_name_H-M   'P 21/c'
_symmetry_Int_Tables_number      14
_space_group_name_Hall           '-P 2ybc'
loop_
_symmetry_equiv_pos_site_id
_symmetry_equiv_pos_as_xyz
1 x,y,z
2 -x,1/2+y,1/2-z
3 -x,-y,-z
4 x,1/2-y,1/2+z
_cell_length_a                   15.8060(4)
_cell_length_b                   10.1540(2)
_cell_length_c                   15.0020(4)
_cell_angle_alpha                90
_cell_angle_beta                 93.8170(12)
_cell_angle_gamma                90
_cell_volume                     2402.39
loop_
_atom_site_label
_atom_site_type_symbol
_atom_site_fract_x
_atom_site_fract_y
_atom_site_fract_z
Sn1 Sn 0.464399(19) 0.71127(3) 0.20861(2)
Sn2 Sn 0.015090(19) 1.28380(3) 0.20111(2)
C1 C 0.4199(3) 1.0002(5) 0.1669(3)
C2 C 0.3714(3) 1.1148(5) 0.1232(4)
H1 H 0.4106 1.1686 0.0919
H2 H 0.3490 1.1688 0.1695
C3 C 0.2988(3) 1.0736(5) 0.0578(3)
H3 H 0.2765 1.1510 0.0265
H4 H 0.3204 1.0146 0.0139
C4 C 0.2274(3) 1.0059(5) 0.1020(3)
C5 C 0.1591(3) 0.9458(5) 0.0400(3)
H5 H 0.1831 0.8732 0.0081
H6 H 0.1395 1.0112 -0.0038
C6 C 0.0836(3) 0.8956(5) 0.0879(3)
H7 H 0.0404 0.8642 0.0440
H8 H 0.1015 0.8218 0.1256
C7 C 0.0456(3) 1.0005(5) 0.1446(3)
C8 C 0.3756(4) 0.5873(6) 0.1343(4)
H9 H 0.3894 0.5872 0.0723
H10 H 0.3823 0.4979 0.1565
C9 C 0.2852(4) 0.6266(8) 0.1386(7)
H11 H 0.2675 0.6104 0.1976
H12 H 0.2507 0.5761 0.0960
H13 H 0.2792 0.7186 0.1249
C10 C 0.4235(3) 0.7726(5) 0.3355(3)
H14 H 0.4707 0.8152 0.3685
H15 H 0.3791 0.8378 0.3253
C11 C 0.3904(4) 0.6625(6) 0.3935(4)
H16 H 0.3477 0.6131 0.3595
H17 H 0.3664 0.7002 0.4448
H18 H 0.4363 0.6051 0.4127
C12 C 0.5798(3) 0.7543(5) 0.1462(4)
H19 H 0.5693 0.8266 0.1046
H20 H 0.6222 0.7833 0.1917
C13 C 0.6145(5) 0.6417(7) 0.0975(6)
H21 H 0.6326 0.5742 0.1394
H22 H 0.6619 0.6707 0.0659
H23 H 0.5714 0.6071 0.0558
C14 C -0.1175(3) 1.2426(5) 0.1827(4)
H24 H -0.1254 1.1556 0.1568
H25 H -0.1419 1.2426 0.2403
C15 C -0.1637(4) 1.3426(6) 0.1224(5)
H26 H -0.1547 1.4293 0.1468
H27 H -0.2232 1.3231 0.1180
H28 H -0.1423 1.3389 0.0640
C16 C 0.0659(3) 1.4190(5) 0.1086(4)
H29 H 0.0199 1.4499 0.0679
H30 H 0.0885 1.4947 0.1417
C17 C 0.1341(5) 1.3643(6) 0.0548(4)
H31 H 0.1822 1.3407 0.0939
H32 H 0.1505 1.4295 0.0129
H33 H 0.1132 1.2877 0.0230
C18 C 0.1035(3) 1.2290(5) 0.3078(4)
H34 H 0.0746 1.2258 0.3629
H35 H 0.1249 1.1415 0.2965
C19 C 0.1767(4) 1.3232(7) 0.3191(4)
H36 H 0.2082 1.3213 0.2666
H37 H 0.2129 1.2979 0.3701
H38 H 0.1556 1.4107 0.3277
O1 O 0.4015(2) 0.8855(3) 0.1396(2)
O2 O 0.4766(2) 1.0221(3) 0.2281(2)
O3 O 0.0485(2) 1.1178(3) 0.1145(2)
O4 O 0.0124(2) 0.9733(3) 0.2156(2)
O5 O 0.2246(2) 1.0012(4) 0.1824(2)
Sn1A Sn 0.535601(19) 1.21127(3) 0.29139(2)
Sn2A Sn -0.015090(19) 0.78380(3) 0.29889(2)
O2A O 0.5234(2) 0.5221(3) 0.2719(2)
O4A O -0.0124(2) 1.4733(3) 0.2844(2)
loop_
_geom_bond_atom_site_label_1
_geom_bond_atom_site_label_2
_geom_bond_site_symmetry_1
_geom_bond_site_symmetry_2
Sn1 C8 1_555 1_555
Sn2 C14 1_555 1_555
C1 C2 1_555 1_555
C2 H1 1_555 1_555
H2 C2 1_555 1_555
C3 C2 1_555 1_555
H3 C3 1_555 1_555
H4 C3 1_555 1_555
C4 C3 1_555 1_555
C5 C4 1_555 1_555
H5 C5 1_555 1_555
H6 C5 1_555 1_555
C6 C5 1_555 1_555
H7 C6 1_555 1_555
H8 C6 1_555 1_555
C7 C6 1_555 1_555
C8 H9 1_555 1_555
H10 C8 1_555 1_555
C9 C8 1_555 1_555
H11 C9 1_555 1_555
H12 C9 1_555 1_555
H13 C9 1_555 1_555
C10 Sn1 1_555 1_555
H14 C10 1_555 1_555
H15 C10 1_555 1_555
C11 C10 1_555 1_555
H16 C11 1_555 1_555
H17 C11 1_555 1_555
H18 C11 1_555 1_555
C12 Sn1 1_555 1_555
H19 C12 1_555 1_555
H20 C12 1_555 1_555
C13 C12 1_555 1_555
H21 C13 1_555 1_555
H22 C13 1_555 1_555
H23 C13 1_555 1_555
C14 H24 1_555 1_555
H25 C14 1_555 1_555
C15 C14 1_555 1_555
H26 C15 1_555 1_555
H27 C15 1_555 1_555
H28 C15 1_555 1_555
C16 Sn2 1_555 1_555
H29 C16 1_555 1_555
H30 C16 1_555 1_555
C17 C16 1_555 1_555
H31 C17 1_555 1_555
H32 C17 1_555 1_555
H33 C17 1_555 1_555
C18 Sn2 1_555 1_555
H34 C18 1_555 1_555
H35 C18 1_555 1_555
C19 C18 1_555 1_555
H36 C19 1_555 1_555
H37 C19 1_555 1_555
H38 C19 1_555 1_555
O1 Sn1 1_555 1_555
O2 C1 1_555 1_555
O3 Sn2 1_555 1_555
O4 C7 1_555 1_555
O5 C4 1_555 1_555
Sn1A O2 1_555 1_555
Sn2A O4 1_555 1_555
O2A Sn1 1_555 1_555
O4A Sn2 1_555 1_555
C1 O1 1_555 1_555
C7 O3 1_555 1_555

#END
