
#######################################################################
#
#                 Cambridge Crystallographic Data Centre
#                                CCDC 
#
#######################################################################
#
# If this CIF has been generated from an entry in the Cambridge 
# Structural Database, then it will include bibliographic, chemical, 
# crystal, experimental, refinement or atomic coordinate data resulting 
# from the CCDC's data processing and validation procedures.
#
#######################################################################

data_REMWAJ
_symmetry_cell_setting           tetragonal
_symmetry_space_group_name_H-M   'P 41 21 2'
_symmetry_Int_Tables_number      92
_space_group_name_Hall           'P 4abw 2nw'
loop_
_symmetry_equiv_pos_site_id
_symmetry_equiv_pos_as_xyz
1 x,y,z
2 -x,-y,1/2+z
3 1/2-y,1/2+x,1/4+z
4 1/2+y,1/2-x,3/4+z
5 1/2-x,1/2+y,1/4-z
6 1/2+x,1/2-y,3/4-z
7 y,x,-z
8 -y,-x,1/2-z
_cell_length_a                   9.7885(3)
_cell_length_b                   9.7885(3)
_cell_length_c                   28.9618(10)
_cell_angle_alpha                90
_cell_angle_beta                 90
_cell_angle_gamma                90
_cell_volume                     2774.97
loop_
_atom_site_label
_atom_site_type_symbol
_atom_site_fract_x
_atom_site_fract_y
_atom_site_fract_z
Zn1 Zn 1.06353(3) 0.41555(3) 0.116926(10)
O1 O 0.9571(2) 0.4898(2) 0.16867(7)
O2 O 0.9405(3) 0.3183(3) 0.21888(10)
O3 O 0.5783(2) 0.8359(2) 0.17200(8)
O4 O 0.4251(4) 0.8148(4) 0.22649(12)
O5 O 0.6768(3) 0.3815(3) 0.35805(8)
O6 O 0.5108(3) 0.5247(3) 0.35918(8)
N1 N 1.3185(2) 0.7573(2) 0.11167(8)
N2 N 1.3514(2) 0.6941(2) 0.07051(8)
H1 H 1.4141 0.7208 0.0518
N3 N 1.1842(2) 0.5753(2) 0.10022(7)
N4 N 1.2789(3) 0.5029(3) 0.02822(9)
H2 H 1.3382 0.5170 0.0069
H3 H 1.2239 0.4346 0.0263
N5 N 1.1556(3) 0.7073(3) 0.16886(9)
H4 H 1.1802 0.7764 0.1852
H5 H 1.0909 0.6549 0.1784
N6 N 0.6108(3) 0.4736(3) 0.34099(8)
C1 C 1.2721(3) 0.5866(3) 0.06418(9)
C2 C 1.2181(3) 0.6812(3) 0.12853(9)
C3 C 0.7977(3) 0.5078(3) 0.22954(10)
C4 C 0.7298(3) 0.6176(3) 0.20981(9)
H6 H 0.7577 0.6507 0.1812
C5 C 0.6207(3) 0.6782(3) 0.23229(10)
C6 C 0.5814(3) 0.6320(3) 0.27601(9)
H7 H 0.5088 0.6724 0.2916
C7 C 0.6524(3) 0.5261(3) 0.29527(9)
C8 C 0.7596(3) 0.4608(3) 0.27302(10)
H8 H 0.8047 0.3877 0.2868
C9 C 0.9076(3) 0.4312(3) 0.20429(10)
C10 C 0.5355(3) 0.7869(3) 0.20953(12)
Zn1D Zn 0.43647(3) 0.91555(3) 0.133074(10)
Zn1D_2 Zn 1.43647(3) 0.91555(3) 0.133074(10)
O3D O 0.9217(2) 0.3359(2) 0.07800(8)
N1D N 1.1815(2) 0.2573(2) 0.13833(8)
O7 O 0.6211(3) 0.4584(3) 0.04121(9)
H9 H 0.6576 0.4373 0.0669
H10 H 0.6352 0.5389 0.0312
loop_
_geom_bond_atom_site_label_1
_geom_bond_atom_site_label_2
_geom_bond_site_symmetry_1
_geom_bond_site_symmetry_2
Zn1 O1 1_555 1_555
O1 C9 1_555 1_555
O2 C9 1_555 1_555
O3 C10 1_555 1_555
O4 C10 1_555 1_555
O5 N6 1_555 1_555
O6 N6 1_555 1_555
N1 N2 1_555 1_555
N2 H1 1_555 1_555
N3 Zn1 1_555 1_555
N4 H2 1_555 1_555
H3 N4 1_555 1_555
N5 H4 1_555 1_555
H5 N5 1_555 1_555
N6 C7 1_555 1_555
C1 N2 1_555 1_555
C2 N1 1_555 1_555
C3 C4 1_555 1_555
C4 H6 1_555 1_555
C5 C4 1_555 1_555
C6 C5 1_555 1_555
H7 C6 1_555 1_555
C7 C6 1_555 1_555
C8 C3 1_555 1_555
H8 C8 1_555 1_555
C9 C3 1_555 1_555
C10 C5 1_555 1_555
O7 H9 1_555 1_555
H10 O7 1_555 1_555
Zn1D O3 1_555 1_555
Zn1D_2 N1 1_555 1_555
O3D Zn1 1_555 1_555
N1D Zn1 1_555 1_555
N3 C1 1_555 1_555
N3 C2 1_555 1_555
N4 C1 1_555 1_555
N5 C2 1_555 1_555
C7 C8 1_555 1_555

#END
