
#######################################################################
#
#                 Cambridge Crystallographic Data Centre
#                                CCDC 
#
#######################################################################
#
# If this CIF has been generated from an entry in the Cambridge 
# Structural Database, then it will include bibliographic, chemical, 
# crystal, experimental, refinement or atomic coordinate data resulting 
# from the CCDC's data processing and validation procedures.
#
#######################################################################

data_RENFEW
_symmetry_cell_setting           triclinic
_symmetry_space_group_name_H-M   'P -1'
_symmetry_Int_Tables_number      2
_space_group_name_Hall           '-P 1'
loop_
_symmetry_equiv_pos_site_id
_symmetry_equiv_pos_as_xyz
1 x,y,z
2 -x,-y,-z
_cell_length_a                   5.5701(4)
_cell_length_b                   8.7252(6)
_cell_length_c                   10.1198(9)
_cell_angle_alpha                108.643(3)
_cell_angle_beta                 91.893(3)
_cell_angle_gamma                95.713(4)
_cell_volume                     462.605
loop_
_atom_site_label
_atom_site_type_symbol
_atom_site_fract_x
_atom_site_fract_y
_atom_site_fract_z
Cd1 Cd 0.27005(2) 1.015549(17) 0.612712(13)
O1 O -0.1160(3) 0.87457(19) 0.54931(16)
O2 O -0.4621(3) 0.8450(2) 0.65014(17)
O3 O -0.2946(4) 0.9138(2) 1.15292(18)
O4 O -0.0209(3) 0.7823(3) 1.21679(17)
O5 O 0.4847(3) 0.4802(2) 0.8473(2)
O6 O 0.4030(4) 0.4595(2) 0.63171(19)
O7 O 0.3641(3) 0.8237(2) 0.38807(17)
N1 N 0.3679(3) 0.5116(2) 0.7569(2)
C1 C -0.1175(4) 0.7684(2) 0.7393(2)
C2 C -0.1837(4) 0.8139(3) 0.8765(2)
C3 C -0.0630(4) 0.7647(3) 0.9762(2)
C4 C 0.1208(4) 0.6654(3) 0.9378(2)
C5 C 0.1767(4) 0.6181(2) 0.7992(2)
C6 C 0.0645(4) 0.6692(2) 0.6988(2)
C7 C -0.2437(4) 0.8334(2) 0.6385(2)
C8 C -0.1305(4) 0.8231(3) 1.1250(2)
H1 H -0.305(5) 0.884(4) 0.910(3)
H2 H 0.201(5) 0.633(4) 1.005(3)
H3 H 0.107(6) 0.646(4) 0.616(4)
H4 H 0.406(7) 0.724(5) 0.389(4)
H5 H 0.261(6) 0.804(4) 0.328(4)
Cd1A Cd -0.27005(2) 0.984451(17) 0.387288(13)
Cd1_2 Cd -0.72995(2) 1.015549(17) 0.612712(13)
Cd1A_2 Cd -0.27005(2) 0.984451(17) 1.387288(13)
Cd1A_3 Cd 0.72995(2) 0.984451(17) 0.387288(13)
O1A O 0.1160(3) 1.12543(19) 0.45069(16)
O2_2 O 0.5379(3) 0.8450(2) 0.65014(17)
O3A O 0.2946(4) 1.0862(2) 0.84708(18)
O4A O 0.0209(3) 1.2177(3) 0.78321(17)
O7A O 0.6359(3) 1.1763(2) 0.61193(17)
H4A H 0.594(7) 1.276(5) 0.611(4)
H5A H 0.739(6) 1.196(4) 0.672(4)
loop_
_geom_bond_atom_site_label_1
_geom_bond_atom_site_label_2
_geom_bond_site_symmetry_1
_geom_bond_site_symmetry_2
Cd1 O1 1_555 1_555
O1 C7 1_555 1_555
O2 C7 1_555 1_555
O3 C8 1_555 1_555
O4 C8 1_555 1_555
O5 N1 1_555 1_555
O6 N1 1_555 1_555
O7 Cd1 1_555 1_555
N1 C5 1_555 1_555
C1 C2 1_555 1_555
C2 C3 1_555 1_555
C3 C4 1_555 1_555
C4 C5 1_555 1_555
C5 C6 1_555 1_555
C6 C1 1_555 1_555
C7 C1 1_555 1_555
C8 C3 1_555 1_555
H1 C2 1_555 1_555
H2 C4 1_555 1_555
H3 C6 1_555 1_555
H4 O7 1_555 1_555
H5 O7 1_555 1_555
Cd1A O1 1_555 1_555
Cd1_2 O2 1_555 1_555
Cd1A_2 O3 1_555 1_555
Cd1A_3 O7 1_555 1_555
O1A Cd1 1_555 1_555
O2_2 Cd1 1_555 1_555
O3A Cd1 1_555 1_555
O4A Cd1 1_555 1_555
O7A Cd1 1_555 1_555
H4A O7A 1_555 1_555
H5A O7A 1_555 1_555
O4 Cd1A_2 1_555 1_555
Cd1A O1A 1_555 1_555
Cd1A_3 O7A 1_555 1_555

#END
