
#######################################################################
#
#                 Cambridge Crystallographic Data Centre
#                                CCDC 
#
#######################################################################
#
# If this CIF has been generated from an entry in the Cambridge 
# Structural Database, then it will include bibliographic, chemical, 
# crystal, experimental, refinement or atomic coordinate data resulting 
# from the CCDC's data processing and validation procedures.
#
#######################################################################

data_RENFUM
_symmetry_cell_setting           monoclinic
_symmetry_space_group_name_H-M   'P 21/n'
_symmetry_Int_Tables_number      14
_space_group_name_Hall           '-P 2yn'
loop_
_symmetry_equiv_pos_site_id
_symmetry_equiv_pos_as_xyz
1 x,y,z
2 1/2-x,1/2+y,1/2-z
3 -x,-y,-z
4 1/2+x,1/2-y,1/2+z
_cell_length_a                   19.142(13)
_cell_length_b                   12.562(8)
_cell_length_c                   35.70(2)
_cell_angle_alpha                90
_cell_angle_beta                 93.070(12)
_cell_angle_gamma                90
_cell_volume                     8572.17
loop_
_atom_site_label
_atom_site_type_symbol
_atom_site_fract_x
_atom_site_fract_y
_atom_site_fract_z
N1 N 0.8442(4) -0.1193(6) 1.0065(2)
N2 N 0.9735(4) -0.4624(6) 1.0030(2)
N3 N 0.5279(4) 0.4662(6) 0.9982(2)
N4 N 0.6665(4) 0.1281(6) 0.9980(2)
N5 N 0.8388(4) -0.1037(6) 1.1050(2)
N6 N 0.9680(4) -0.4505(6) 1.1047(2)
N7 N 1.0217(4) -0.5240(7) 1.0984(2)
N8 N 1.1492(4) -0.8717(6) 1.0911(2)
N9 N 0.6600(4) 0.1392(6) 1.0961(2)
N10 N 0.5236(4) 0.4795(7) 1.0984(2)
N11 N 0.4665(4) 0.5467(7) 1.1023(2)
N12 N 0.3285(4) 0.8862(6) 1.0998(2)
N13 N 0.8277(4) -0.1020(6) 1.2027(2)
N14 N 0.9708(4) -0.4356(7) 1.2050(2)
N15 N 1.0267(4) -0.5051(6) 1.2012(2)
N16 N 1.1524(4) -0.8551(6) 1.1908(2)
N17 N 0.6527(4) 0.1446(6) 1.1961(2)
N18 N 0.5151(4) 0.4811(7) 1.2022(2)
N19 N 0.4576(4) 0.5496(7) 1.2041(2)
N20 N 0.3184(4) 0.8844(6) 1.1992(2)
N21 N 0.8022(4) 0.0968(6) 1.0528(2)
N22 N 0.8398(5) 0.1676(7) 1.0528(2)
N23 N 0.8748(6) 0.2421(9) 1.0531(3)
N24 N 0.7015(4) -0.0745(5) 1.0501(2)
N25 N 0.6600(5) -0.1346(7) 1.0502(2)
N26 N 0.6115(5) -0.1920(9) 1.0506(3)
N27 N 0.8087(4) 0.0845(6) 0.9560(2)
N28 N 0.8479(4) 0.1508(7) 0.9549(2)
N29 N 0.8884(5) 0.2190(8) 0.9529(3)
N30 N 0.7071(4) -0.0867(6) 0.9543(2)
N31 N 0.6616(4) -0.1442(7) 0.9529(2)
N32 N 0.6135(5) -0.2011(8) 0.9532(3)
N33 N 0.7929(4) 0.1000(6) 1.1499(2)
N34 N 0.8367(5) 0.1627(6) 1.1531(2)
N35 N 0.8811(5) 0.2268(8) 1.1540(3)
N36 N 0.6936(4) -0.0684(6) 1.1448(2)
N37 N 0.6445(4) -0.1188(7) 1.1458(2)
N38 N 0.5950(5) -0.1687(8) 1.1471(3)
N39 N 0.8162(4) 0.0745(6) 0.8597(2)
N40 N 0.8569(5) 0.1398(7) 0.8573(2)
N41 N 0.9021(5) 0.2000(9) 0.8542(3)
N42 N 0.7142(4) -0.0957(6) 0.8572(2)
N43 N 0.6625(5) -0.1506(8) 0.8572(2)
N44 N 0.6104(5) -0.1984(9) 0.8559(3)
N45 N 0.6761(5) -0.0704(7) 1.2341(3)
N46 N 0.6478(5) -0.1469(8) 1.2411(2)
N47 N 0.6185(4) -0.2256(8) 1.2480(3)
N48 N 0.8291(5) 0.0657(8) 0.7703(3)
N49 N 0.8263(5) 0.1175(8) 0.7450(3)
N50 N 0.8246(6) 0.1709(9) 0.7177(3)
O1 O 0.7922(4) 0.1003(6) 1.2435(2)
O2 O 0.6994(4) -0.1119(6) 0.7730(2)
C1 C 0.9087(5) -0.0979(8) 0.9963(3)
H1 H 0.9209 -0.0281 0.9909
C2 C 0.9582(5) -0.1783(8) 0.9938(3)
H2 H 1.0029 -0.1622 0.9865
C3 C 0.9408(5) -0.2822(8) 1.0022(3)
C4 C 0.8753(5) -0.3026(7) 1.0134(3)
H3 H 0.8620 -0.3715 1.0193
C5 C 0.8293(5) -0.2193(7) 1.0157(2)
H4 H 0.7852 -0.2335 1.0243
C6 C 0.6010(5) 0.1059(7) 1.0051(2)
H5 H 0.5892 0.0353 1.0094
C7 C 0.5492(5) 0.1825(8) 1.0063(3)
H6 H 0.5042 0.1631 1.0123
C8 C 0.5635(6) 0.2839(8) 0.9990(3)
C9 C 0.6315(5) 0.3081(8) 0.9905(3)
H7 H 0.6437 0.3775 0.9846
C10 C 0.6803(5) 0.2292(8) 0.9909(3)
H8 H 0.7260 0.2473 0.9859
C11 C 0.9925(5) -0.3687(7) 0.9984(3)
H9 H 1.0382 -0.3534 0.9927
C12 C 0.5115(5) 0.3694(7) 1.0011(3)
H10 H 0.4652 0.3517 1.0048
C13 C 0.8237(4) -0.2036(8) 1.1144(3)
H11 H 0.7786 -0.2176 1.1216
C14 C 0.8696(5) -0.2867(7) 1.1142(3)
H12 H 0.8558 -0.3543 1.1214
C15 C 0.9371(5) -0.2696(7) 1.1032(2)
C16 C 0.9527(4) -0.1666(7) 1.0929(2)
H13 H 0.9969 -0.1505 1.0849
C17 C 0.9025(5) -0.0869(7) 1.0946(3)
H14 H 0.9148 -0.0181 1.0880
C18 C 1.1643(5) -0.7731(7) 1.0834(2)
H15 H 1.2092 -0.7591 1.0760
C19 C 1.1192(5) -0.6880(7) 1.0854(2)
H16 H 1.1331 -0.6204 1.0782
C20 C 1.0550(5) -0.7037(8) 1.0977(3)
C21 C 1.0362(5) -0.8097(8) 1.1062(3)
H17 H 0.9919 -0.8251 1.1144
C22 C 1.0842(5) -0.8891(7) 1.1023(2)
H18 H 1.0713 -0.9586 1.1076
C23 C 0.9849(5) -0.3564(7) 1.0986(3)
H19 H 1.0296 -0.3420 1.0909
C24 C 1.0025(5) -0.6182(8) 1.1027(3)
H20 H 0.9571 -0.6342 1.1089
C25 C 0.5942(5) 0.1169(8) 1.1033(3)
H21 H 0.5822 0.0460 1.1068
C26 C 0.5432(5) 0.1918(8) 1.1057(3)
H22 H 0.4984 0.1722 1.1120
C27 C 0.5586(5) 0.2962(8) 1.0988(3)
C28 C 0.6266(5) 0.3218(8) 1.0910(3)
H23 H 0.6400 0.3921 1.0874
C29 C 0.6729(5) 0.2409(8) 1.0887(3)
H24 H 0.7174 0.2578 1.0813
C30 C 0.3942(6) 0.9084(8) 1.0927(2)
H25 H 0.4067 0.9785 1.0881
C31 C 0.4445(5) 0.8297(9) 1.0922(3)
H26 H 0.4898 0.8471 1.0862
C32 C 0.4287(6) 0.7271(8) 1.1003(3)
C33 C 0.3619(5) 0.7051(8) 1.1094(3)
H27 H 0.3489 0.6365 1.1159
C34 C 0.3148(5) 0.7864(9) 1.1086(3)
H28 H 0.2693 0.7705 1.1148
C35 C 0.5070(5) 0.3832(8) 1.1020(3)
H29 H 0.4610 0.3663 1.1067
C36 C 0.4833(5) 0.6448(8) 1.0987(3)
H30 H 0.5294 0.6638 1.0951
C37 C 0.8944(5) -0.0776(7) 1.1990(3)
H31 H 0.9060 -0.0062 1.1966
C38 C 0.9477(5) -0.1519(7) 1.1985(3)
H32 H 0.9933 -0.1308 1.1946
C39 C 0.9324(5) -0.2552(8) 1.2038(3)
C40 C 0.8656(5) -0.2832(7) 1.2105(3)
H33 H 0.8543 -0.3536 1.2156
C41 C 0.8154(5) -0.2054(8) 1.2098(3)
H34 H 0.7699 -0.2253 1.2144
C42 C 1.0868(5) -0.8725(7) 1.2010(3)
H35 H 1.0725 -0.9423 1.2047
C43 C 1.0397(5) -0.7914(8) 1.2061(3)
H36 H 0.9954 -0.8060 1.2143
C44 C 1.0597(5) -0.6868(8) 1.1986(3)
C45 C 1.1256(5) -0.6712(8) 1.1864(3)
H37 H 1.1402 -0.6033 1.1800
C46 C 1.1699(5) -0.7567(8) 1.1835(3)
H38 H 1.2150 -0.7439 1.1761
C47 C 0.9857(5) -0.3392(8) 1.2016(3)
H39 H 1.0316 -0.3202 1.1975
C48 C 1.0090(5) -0.5997(8) 1.2034(2)
H40 H 0.9629 -0.6163 1.2080
C49 C 0.6685(5) 0.2456(7) 1.1935(3)
H41 H 0.7149 0.2636 1.1903
C50 C 0.6207(5) 0.3262(7) 1.1950(3)
H42 H 0.6347 0.3967 1.1930
C51 C 0.5507(6) 0.3013(8) 1.1998(3)
C52 C 0.5339(5) 0.1972(8) 1.2018(3)
H43 H 0.4877 0.1768 1.2043
C53 C 0.5860(5) 0.1210(7) 1.2000(3)
H44 H 0.5735 0.0497 1.2015
C54 C 0.3858(5) 0.9109(7) 1.1956(3)
H45 H 0.3983 0.9819 1.1930
C55 C 0.4360(5) 0.8334(8) 1.1959(3)
H46 H 0.4820 0.8517 1.1919
C56 C 0.4191(6) 0.7277(8) 1.2023(3)
C57 C 0.3486(5) 0.7051(8) 1.2068(3)
H47 H 0.3342 0.6356 1.2109
C58 C 0.3015(5) 0.7857(8) 1.2051(3)
H48 H 0.2547 0.7696 1.2083
C59 C 0.4983(6) 0.3862(9) 1.2013(3)
H49 H 0.4513 0.3680 1.2015
C60 C 0.4729(5) 0.6451(8) 1.2009(3)
H50 H 0.5191 0.6644 1.1976
H61 H 0.805(4) 0.082(6) 1.2676(9)
H62 H 0.816(3) 0.160(3) 1.2384(17)
H63 H 0.691(4) -0.075(5) 0.7515(14)
H64 H 0.672(4) -0.170(4) 0.772(2)
Mn1 Mn 0.75549(7) 0.00520(12) 1.00326(4)
Mn2 Mn 0.74854(7) 0.01562(11) 1.10002(4)
Mn3 Mn 0.76162(6) -0.00566(11) 0.90587(4)
Mn4 Mn 0.73908(7) 0.01805(11) 1.19711(4)
Mn5 Mn 0.76589(7) -0.01401(11) 0.80909(4)
N1B N 1.1558(4) -0.8807(6) 0.9935(2)
N2B N 1.0265(4) -0.5376(6) 0.9970(2)
N3B N 0.4721(4) 0.5338(6) 1.0018(2)
N4B N 0.3335(4) 0.8719(6) 1.0020(2)
N4B_2 N 1.3335(4) -1.1281(6) 1.0020(2)
N5B N 1.1612(4) -0.8963(6) 0.8950(2)
N6B N 1.0320(4) -0.5495(6) 0.8953(2)
N7B N 0.9783(4) -0.4760(7) 0.9016(2)
N8B N 0.8508(4) -0.1283(6) 0.9089(2)
N9B N 0.3400(4) 0.8608(6) 0.9039(2)
N9B_2 N 1.3400(4) -1.1392(6) 0.9039(2)
N10B N 0.4764(4) 0.5205(7) 0.9016(2)
N11B N 0.5335(4) 0.4533(7) 0.8977(2)
N12B N 0.6715(4) 0.1138(6) 0.9002(2)
N12_2 N 1.3285(4) -1.1138(6) 1.0998(2)
N13B N 1.1723(4) -0.8980(6) 0.7973(2)
N14B N 1.0292(4) -0.5644(7) 0.7950(2)
N15B N 0.9733(4) -0.4949(6) 0.7988(2)
N16B N 0.8476(4) -0.1449(6) 0.8092(2)
N17B N 0.3473(4) 0.8554(6) 0.8039(2)
N17B_2 N 1.3473(4) -1.1446(6) 0.8039(2)
N18B N 0.4849(4) 0.5189(7) 0.7978(2)
N19B N 0.5424(4) 0.4504(7) 0.7959(2)
N20B N 0.6816(4) 0.1156(6) 0.8008(2)
N20_2 N 1.3184(4) -1.1156(6) 1.1992(2)
N21B N 1.1978(4) -1.0968(6) 0.9472(2)
N22B N 1.1602(5) -1.1676(7) 0.9472(2)
N23B N 1.1252(6) -1.2421(9) 0.9469(3)
N24B N 1.2985(4) -0.9255(5) 0.9499(2)
N25B N 1.3400(5) -0.8654(7) 0.9498(2)
N26B N 1.3885(5) -0.8080(9) 0.9494(3)
N27B N 1.1913(4) -1.0845(6) 1.0440(2)
N28B N 1.1521(4) -1.1508(7) 1.0451(2)
N29B N 1.1116(5) -1.2190(8) 1.0471(3)
N30B N 1.2929(4) -0.9133(6) 1.0457(2)
N31B N 1.3384(4) -0.8558(7) 1.0471(2)
N32B N 1.3865(5) -0.7989(8) 1.0468(3)
N33B N 1.2071(4) -1.1000(6) 0.8501(2)
N34B N 1.1633(5) -1.1627(6) 0.8469(2)
N35B N 1.1189(5) -1.2268(8) 0.8460(3)
N36B N 1.3064(4) -0.9316(6) 0.8552(2)
N37B N 1.3555(4) -0.8812(7) 0.8542(2)
N38B N 1.4050(5) -0.8313(8) 0.8529(3)
N39B N 1.1838(4) -1.0745(6) 1.1403(2)
N40B N 1.1431(5) -1.1398(7) 1.1427(2)
N41B N 1.0979(5) -1.2000(9) 1.1458(3)
N42B N 1.2858(4) -0.9043(6) 1.1428(2)
N43B N 1.3375(5) -0.8494(8) 1.1428(2)
N44B N 1.3896(5) -0.8016(9) 1.1441(3)
N45B N 1.3239(5) -0.9296(7) 0.7659(3)
N46B N 1.3522(5) -0.8531(8) 0.7589(2)
N47B N 1.3815(4) -0.7744(8) 0.7520(3)
N48B N 1.1709(5) -1.0657(8) 1.2297(3)
N49B N 1.1737(5) -1.1175(8) 1.2550(3)
N50B N 1.1754(6) -1.1709(9) 1.2823(3)
O1B O 1.2078(4) -1.1003(6) 0.7565(2)
O2B O 1.3006(4) -0.8881(6) 1.2270(2)
C1B C 1.0913(5) -0.9021(8) 1.0037(3)
H1B H 1.0791 -0.9719 1.0091
C2B C 1.0418(5) -0.8217(8) 1.0062(3)
H2B H 0.9971 -0.8378 1.0135
C3B C 1.0592(5) -0.7178(8) 0.9978(3)
C4B C 1.1247(5) -0.6974(7) 0.9866(3)
H3B H 1.1380 -0.6285 0.9807
C5B C 1.1707(5) -0.7807(7) 0.9843(2)
H4B H 1.2148 -0.7665 0.9757
C6B C 0.3990(5) 0.8941(7) 0.9949(2)
H5B H 0.4108 0.9647 0.9906
C7B C 0.4508(5) 0.8175(8) 0.9937(3)
H6B H 0.4958 0.8369 0.9877
C8B C 0.4365(6) 0.7161(8) 1.0010(3)
C9B C 0.3685(5) 0.6919(8) 1.0095(3)
H7B H 0.3563 0.6225 1.0154
C10B C 0.3197(5) 0.7708(8) 1.0091(3)
H8B H 0.2740 0.7527 1.0141
C11B C 1.0075(5) -0.6313(7) 1.0016(3)
H9B H 0.9618 -0.6466 1.0073
C12B C 0.4885(5) 0.6306(7) 0.9989(3)
H10B H 0.5348 0.6483 0.9952
C13B C 1.1763(4) -0.7964(8) 0.8856(3)
H11B H 1.2214 -0.7824 0.8784
C14B C 1.1304(5) -0.7133(7) 0.8858(3)
H12B H 1.1442 -0.6457 0.8786
C15B C 1.0629(5) -0.7304(7) 0.8968(2)
C16B C 1.0473(4) -0.8334(7) 0.9071(2)
H13B H 1.0031 -0.8495 0.9151
C17B C 1.0975(5) -0.9131(7) 0.9054(3)
H14B H 1.0852 -0.9819 0.9120
C18B C 0.8357(5) -0.2269(7) 0.9166(2)
H15B H 0.7908 -0.2409 0.9240
C19B C 0.8808(5) -0.3120(7) 0.9146(2)
H16B H 0.8669 -0.3796 0.9218
C20B C 0.9450(5) -0.2963(8) 0.9023(3)
C21B C 0.9638(5) -0.1903(8) 0.8938(3)
H17B H 1.0081 -0.1749 0.8856
C22B C 0.9158(5) -0.1109(7) 0.8977(2)
H18B H 0.9287 -0.0414 0.8924
C23B C 1.0151(5) -0.6436(7) 0.9014(3)
H19B H 0.9704 -0.6580 0.9091
C24B C 0.9975(5) -0.3818(8) 0.8973(3)
H20B H 1.0429 -0.3658 0.8911
C25B C 0.4058(5) 0.8831(8) 0.8967(3)
H21B H 0.4178 0.9540 0.8932
C26B C 0.4568(5) 0.8082(8) 0.8943(3)
H22B H 0.5016 0.8278 0.8880
C27B C 0.4414(5) 0.7038(8) 0.9012(3)
C28B C 0.3734(5) 0.6782(8) 0.9090(3)
H23B H 0.3600 0.6079 0.9126
C29B C 0.3271(5) 0.7591(8) 0.9113(3)
H24B H 0.2826 0.7422 0.9187
C30B C 0.6058(6) 0.0916(8) 0.9073(2)
H25B H 0.5933 0.0215 0.9119
C31B C 0.5555(5) 0.1703(9) 0.9078(3)
H26B H 0.5102 0.1529 0.9138
C32B C 0.5713(6) 0.2729(8) 0.8997(3)
C33B C 0.6381(5) 0.2949(8) 0.8906(3)
H27B H 0.6511 0.3635 0.8841
C34B C 0.6852(5) 0.2136(9) 0.8914(3)
H28B H 0.7307 0.2295 0.8852
C35B C 0.4930(5) 0.6168(8) 0.8980(3)
H29B H 0.5390 0.6337 0.8933
C36B C 0.5167(5) 0.3552(8) 0.9013(3)
H30B H 0.4706 0.3362 0.9049
C37B C 1.1056(5) -0.9224(7) 0.8010(3)
H31B H 1.0940 -0.9938 0.8034
C38B C 1.0523(5) -0.8481(7) 0.8015(3)
H32B H 1.0067 -0.8692 0.8054
C39B C 1.0676(5) -0.7448(8) 0.7962(3)
C40B C 1.1344(5) -0.7168(7) 0.7895(3)
H33B H 1.1457 -0.6464 0.7844
C41B C 1.1846(5) -0.7946(8) 0.7902(3)
H34B H 1.2301 -0.7747 0.7856
C42B C 0.9132(5) -0.1275(7) 0.7990(3)
H35B H 0.9275 -0.0577 0.7953
C43B C 0.9603(5) -0.2086(8) 0.7939(3)
H36B H 1.0046 -0.1940 0.7857
C44B C 0.9403(5) -0.3132(8) 0.8014(3)
C45B C 0.8744(5) -0.3288(8) 0.8136(3)
H37B H 0.8598 -0.3967 0.8200
C46B C 0.8301(5) -0.2433(8) 0.8165(3)
H38B H 0.7850 -0.2561 0.8239
C47B C 1.0143(5) -0.6608(8) 0.7984(3)
H39B H 0.9684 -0.6798 0.8025
C48B C 0.9910(5) -0.4003(8) 0.7966(2)
H40B H 1.0371 -0.3837 0.7920
C49B C 0.3315(5) 0.7544(7) 0.8065(3)
H41B H 0.2851 0.7364 0.8097
C50B C 0.3793(5) 0.6738(7) 0.8050(3)
H42B H 0.3653 0.6033 0.8070
C51B C 0.4493(6) 0.6987(8) 0.8002(3)
C52B C 0.4661(5) 0.8028(8) 0.7982(3)
H43B H 0.5123 0.8232 0.7957
C53B C 0.4140(5) 0.8790(7) 0.8000(3)
H44B H 0.4265 0.9503 0.7985
C54B C 0.6142(5) 0.0891(7) 0.8044(3)
H45B H 0.6017 0.0181 0.8070
C55B C 0.5640(5) 0.1666(8) 0.8041(3)
H46B H 0.5180 0.1483 0.8081
C56B C 0.5809(6) 0.2723(8) 0.7977(3)
C57B C 0.6514(5) 0.2949(8) 0.7932(3)
H47B H 0.6658 0.3644 0.7891
C58B C 0.6985(5) 0.2143(8) 0.7949(3)
H48B H 0.7453 0.2304 0.7917
C59B C 0.5017(6) 0.6138(9) 0.7987(3)
H49B H 0.5487 0.6320 0.7985
C60B C 0.5271(5) 0.3549(8) 0.7991(3)
H50B H 0.4809 0.3356 0.8024
H61B H 1.195(4) -1.082(6) 0.7324(9)
H62B H 1.184(3) -1.160(3) 0.7616(17)
H63B H 1.309(4) -0.925(5) 1.2485(14)
H64B H 1.328(4) -0.830(4) 1.228(2)
Mn1B Mn 1.24451(7) -1.00520(12) 0.99674(4)
Mn1B_2 Mn 0.24451(7) 0.99480(12) 0.99674(4)
Mn2B Mn 1.25146(7) -1.01562(11) 0.89998(4)
Mn2B_2 Mn 0.25146(7) 0.98438(11) 0.89998(4)
Mn3B Mn 1.23838(6) -0.99434(11) 1.09413(4)
Mn3B_2 Mn 0.23838(6) 1.00566(11) 1.09413(4)
Mn4B Mn 1.26092(7) -1.01805(11) 0.80289(4)
Mn4B_2 Mn 0.26092(7) 0.98195(11) 0.80289(4)
Mn5B Mn 1.23411(7) -0.98599(11) 1.19091(4)
Mn5B_2 Mn 0.23411(7) 1.01401(11) 1.19091(4)
N51 N 0.7328(6) -0.0166(10) 0.6335(3)
N52 N 0.7466(5) 0.0066(8) 0.4949(3)
N53 N 0.7696(5) 0.0419(8) 0.4588(3)
N54 N 0.7740(5) 0.0527(8) 0.3185(3)
C61 C 0.7834(7) 0.0530(11) 0.6277(4)
H51 H 0.8089 0.0831 0.6479
C62 C 0.7981(5) 0.0811(8) 0.5902(3)
H52 H 0.8309 0.1336 0.5859
C63 C 0.7629(5) 0.0291(8) 0.5600(3)
C64 C 0.7116(6) -0.0468(8) 0.5674(4)
H53 H 0.6875 -0.0825 0.5478
C65 C 0.6973(5) -0.0681(9) 0.6057(4)
H54 H 0.6633 -0.1178 0.6113
C66 C 0.8128(6) 0.0970(9) 0.3457(4)
H55 H 0.8495 0.1409 0.3394
C67 C 0.8012(6) 0.0807(8) 0.3846(3)
H56 H 0.8289 0.1152 0.4031
C68 C 0.7502(6) 0.0152(10) 0.3939(3)
C69 C 0.7117(5) -0.0398(9) 0.3665(4)
H57 H 0.6777 -0.0888 0.3726
C70 C 0.7256(7) -0.0191(10) 0.3289(3)
H58 H 0.7005 -0.0565 0.3101
C71 C 0.7814(6) 0.0539(8) 0.5214(3)
H59 H 0.8168 0.1018 0.5166
C72 C 0.7352(5) -0.0059(8) 0.4329(3)
H60 H 0.7006 -0.0543 0.4386
O3 O 0.6724(5) 0.9124(6) 0.69986(19)
H65 H 0.670(5) 0.930(5) 0.6753(6)
H66 H 0.680(5) 0.8418(16) 0.7017(19)
loop_
_geom_bond_atom_site_label_1
_geom_bond_atom_site_label_2
_geom_bond_site_symmetry_1
_geom_bond_site_symmetry_2
N1 C1 1_555 1_555
N2 C11 1_555 1_555
N3 C12 1_555 1_555
N4 C6 1_555 1_555
N5 C13 1_555 1_555
N6 N7 1_555 1_555
N7 C24 1_555 1_555
N8 C18 1_555 1_555
N9 C25 1_555 1_555
N10 N11 1_555 1_555
N11 C36 1_555 1_555
N12 C30 1_555 1_555
N13 C37 1_555 1_555
N14 N15 1_555 1_555
N15 C48 1_555 1_555
N16 C42 1_555 1_555
N17 C49 1_555 1_555
N18 N19 1_555 1_555
N19 C60 1_555 1_555
N20 C54 1_555 1_555
N21 N22 1_555 1_555
N22 N23 1_555 1_555
N24 N25 1_555 1_555
N25 N26 1_555 1_555
N27 N28 1_555 1_555
N28 N29 1_555 1_555
N30 N31 1_555 1_555
N31 N32 1_555 1_555
N33 N34 1_555 1_555
N34 N35 1_555 1_555
N36 N37 1_555 1_555
N37 N38 1_555 1_555
N39 N40 1_555 1_555
N40 N41 1_555 1_555
N42 N43 1_555 1_555
N43 N44 1_555 1_555
N45 N46 1_555 1_555
N46 N47 1_555 1_555
N48 N49 1_555 1_555
N49 N50 1_555 1_555
N51 C61 1_555 1_555
N52 N53 1_555 1_555
N53 C72 1_555 1_555
N54 C66 1_555 1_555
O1 H61 1_555 1_555
O2 H63 1_555 1_555
O3 H65 1_555 1_555
C1 H1 1_555 1_555
C2 C1 1_555 1_555
H2 C2 1_555 1_555
C3 C2 1_555 1_555
C4 C3 1_555 1_555
H3 C4 1_555 1_555
C5 N1 1_555 1_555
H4 C5 1_555 1_555
C6 H5 1_555 1_555
C7 C6 1_555 1_555
H6 C7 1_555 1_555
C8 C7 1_555 1_555
C9 C8 1_555 1_555
H7 C9 1_555 1_555
C10 N4 1_555 1_555
H8 C10 1_555 1_555
C11 C3 1_555 1_555
H9 C11 1_555 1_555
C12 C8 1_555 1_555
H10 C12 1_555 1_555
C13 H11 1_555 1_555
C14 C13 1_555 1_555
H12 C14 1_555 1_555
C15 C14 1_555 1_555
C16 C15 1_555 1_555
H13 C16 1_555 1_555
C17 N5 1_555 1_555
H14 C17 1_555 1_555
C18 H15 1_555 1_555
C19 C18 1_555 1_555
H16 C19 1_555 1_555
C20 C19 1_555 1_555
C21 C20 1_555 1_555
H17 C21 1_555 1_555
C22 N8 1_555 1_555
H18 C22 1_555 1_555
C23 N6 1_555 1_555
H19 C23 1_555 1_555
C24 C20 1_555 1_555
H20 C24 1_555 1_555
C25 H21 1_555 1_555
C26 C25 1_555 1_555
H22 C26 1_555 1_555
C27 C26 1_555 1_555
C28 C27 1_555 1_555
H23 C28 1_555 1_555
C29 N9 1_555 1_555
H24 C29 1_555 1_555
C30 H25 1_555 1_555
C31 C30 1_555 1_555
H26 C31 1_555 1_555
C32 C31 1_555 1_555
C33 C32 1_555 1_555
H27 C33 1_555 1_555
C34 N12 1_555 1_555
H28 C34 1_555 1_555
C35 N10 1_555 1_555
H29 C35 1_555 1_555
C36 C32 1_555 1_555
H30 C36 1_555 1_555
C37 H31 1_555 1_555
C38 C37 1_555 1_555
H32 C38 1_555 1_555
C39 C38 1_555 1_555
C40 C39 1_555 1_555
H33 C40 1_555 1_555
C41 N13 1_555 1_555
H34 C41 1_555 1_555
C42 H35 1_555 1_555
C43 C42 1_555 1_555
H36 C43 1_555 1_555
C44 C43 1_555 1_555
C45 C44 1_555 1_555
H37 C45 1_555 1_555
C46 N16 1_555 1_555
H38 C46 1_555 1_555
C47 N14 1_555 1_555
H39 C47 1_555 1_555
C48 C44 1_555 1_555
H40 C48 1_555 1_555
C49 H41 1_555 1_555
C50 C49 1_555 1_555
H42 C50 1_555 1_555
C51 C50 1_555 1_555
C52 C51 1_555 1_555
H43 C52 1_555 1_555
C53 N17 1_555 1_555
H44 C53 1_555 1_555
C54 H45 1_555 1_555
C55 C54 1_555 1_555
H46 C55 1_555 1_555
C56 C55 1_555 1_555
C57 C56 1_555 1_555
H47 C57 1_555 1_555
C58 N20 1_555 1_555
H48 C58 1_555 1_555
C59 N18 1_555 1_555
H49 C59 1_555 1_555
C60 C56 1_555 1_555
H50 C60 1_555 1_555
C61 H51 1_555 1_555
C62 C61 1_555 1_555
H52 C62 1_555 1_555
C63 C62 1_555 1_555
C64 C63 1_555 1_555
H53 C64 1_555 1_555
C65 N51 1_555 1_555
H54 C65 1_555 1_555
C66 H55 1_555 1_555
C67 C66 1_555 1_555
H56 C67 1_555 1_555
C68 C67 1_555 1_555
C69 C68 1_555 1_555
H57 C69 1_555 1_555
C70 N54 1_555 1_555
H58 C70 1_555 1_555
C71 N52 1_555 1_555
H59 C71 1_555 1_555
C72 C68 1_555 1_555
H60 C72 1_555 1_555
H62 O1 1_555 1_555
H64 O2 1_555 1_555
H66 O3 1_555 1_555
Mn1 N1 1_555 1_555
Mn2 N5 1_555 1_555
Mn3 N27 1_555 1_555
Mn4 N13 1_555 1_555
Mn5 N39 1_555 1_555
N1B C1B 1_555 1_555
N2B N2 1_555 1_555
N3B N3 1_555 1_555
N4B C6B 1_555 1_555
N4B_2 Mn1B 1_555 1_555
N5B C13B 1_555 1_555
N6B N7B 1_555 1_555
N7B C24B 1_555 1_555
N8B Mn3 1_555 1_555
N9B C25B 1_555 1_555
N9B_2 Mn2B 1_555 1_555
N10B N11B 1_555 1_555
N11B C36B 1_555 1_555
N12B Mn3 1_555 1_555
N12_2 Mn3B 1_555 1_555
N13B C37B 1_555 1_555
N14B N15B 1_555 1_555
N15B C48B 1_555 1_555
N16B Mn5 1_555 1_555
N17B C49B 1_555 1_555
N17B_2 Mn4B 1_555 1_555
N18B N19B 1_555 1_555
N19B C60B 1_555 1_555
N20B Mn5 1_555 1_555
N20_2 Mn5B 1_555 1_555
N21B N22B 1_555 1_555
N22B N23B 1_555 1_555
N24B N25B 1_555 1_555
N25B N26B 1_555 1_555
N27B N28B 1_555 1_555
N28B N29B 1_555 1_555
N30B N31B 1_555 1_555
N31B N32B 1_555 1_555
N33B N34B 1_555 1_555
N34B N35B 1_555 1_555
N36B N37B 1_555 1_555
N37B N38B 1_555 1_555
N39B N40B 1_555 1_555
N40B N41B 1_555 1_555
N42B N43B 1_555 1_555
N43B N44B 1_555 1_555
N45B N46B 1_555 1_555
N46B N47B 1_555 1_555
N48B N49B 1_555 1_555
N49B N50B 1_555 1_555
O1B H61B 1_555 1_555
O2B H63B 1_555 1_555
C1B H1B 1_555 1_555
C2B C1B 1_555 1_555
H2B C2B 1_555 1_555
C3B C2B 1_555 1_555
C4B C3B 1_555 1_555
H3B C4B 1_555 1_555
C5B N1B 1_555 1_555
H4B C5B 1_555 1_555
C6B H5B 1_555 1_555
C7B C6B 1_555 1_555
H6B C7B 1_555 1_555
C8B C7B 1_555 1_555
C9B C8B 1_555 1_555
H7B C9B 1_555 1_555
C10B N4B 1_555 1_555
H8B C10B 1_555 1_555
C11B N2B 1_555 1_555
H9B C11B 1_555 1_555
C12B N3B 1_555 1_555
H10B C12B 1_555 1_555
C13B H11B 1_555 1_555
C14B C13B 1_555 1_555
H12B C14B 1_555 1_555
C15B C14B 1_555 1_555
C16B C15B 1_555 1_555
H13B C16B 1_555 1_555
C17B N5B 1_555 1_555
H14B C17B 1_555 1_555
C18B N8B 1_555 1_555
H15B C18B 1_555 1_555
C19B C18B 1_555 1_555
H16B C19B 1_555 1_555
C20B C19B 1_555 1_555
C21B C20B 1_555 1_555
H17B C21B 1_555 1_555
C22B N8B 1_555 1_555
H18B C22B 1_555 1_555
C23B N6B 1_555 1_555
H19B C23B 1_555 1_555
C24B C20B 1_555 1_555
H20B C24B 1_555 1_555
C25B H21B 1_555 1_555
C26B C25B 1_555 1_555
H22B C26B 1_555 1_555
C27B C26B 1_555 1_555
C28B C27B 1_555 1_555
H23B C28B 1_555 1_555
C29B N9B 1_555 1_555
H24B C29B 1_555 1_555
C30B N12B 1_555 1_555
H25B C30B 1_555 1_555
C31B C30B 1_555 1_555
H26B C31B 1_555 1_555
C32B C31B 1_555 1_555
C33B C32B 1_555 1_555
H27B C33B 1_555 1_555
C34B N12B 1_555 1_555
H28B C34B 1_555 1_555
C35B N10B 1_555 1_555
H29B C35B 1_555 1_555
C36B C32B 1_555 1_555
H30B C36B 1_555 1_555
C37B H31B 1_555 1_555
C38B C37B 1_555 1_555
H32B C38B 1_555 1_555
C39B C38B 1_555 1_555
C40B C39B 1_555 1_555
H33B C40B 1_555 1_555
C41B N13B 1_555 1_555
H34B C41B 1_555 1_555
C42B N16B 1_555 1_555
H35B C42B 1_555 1_555
C43B C42B 1_555 1_555
H36B C43B 1_555 1_555
C44B C43B 1_555 1_555
C45B C44B 1_555 1_555
H37B C45B 1_555 1_555
C46B N16B 1_555 1_555
H38B C46B 1_555 1_555
C47B N14B 1_555 1_555
H39B C47B 1_555 1_555
C48B C44B 1_555 1_555
H40B C48B 1_555 1_555
C49B H41B 1_555 1_555
C50B C49B 1_555 1_555
H42B C50B 1_555 1_555
C51B C50B 1_555 1_555
C52B C51B 1_555 1_555
H43B C52B 1_555 1_555
C53B N17B 1_555 1_555
H44B C53B 1_555 1_555
C54B N20B 1_555 1_555
H45B C54B 1_555 1_555
C55B C54B 1_555 1_555
H46B C55B 1_555 1_555
C56B C55B 1_555 1_555
C57B C56B 1_555 1_555
H47B C57B 1_555 1_555
C58B N20B 1_555 1_555
H48B C58B 1_555 1_555
C59B N18B 1_555 1_555
H49B C59B 1_555 1_555
C60B C56B 1_555 1_555
H50B C60B 1_555 1_555
H62B O1B 1_555 1_555
H64B O2B 1_555 1_555
Mn1B N1B 1_555 1_555
Mn1B_2 N4B 1_555 1_555
Mn2B N5B 1_555 1_555
Mn2B_2 N9B 1_555 1_555
Mn3B N8 1_555 1_555
Mn3B_2 N12 1_555 1_555
Mn4B N13B 1_555 1_555
Mn4B_2 N17B 1_555 1_555
Mn5B N16 1_555 1_555
Mn5B_2 N20 1_555 1_555
N4 Mn1 1_555 1_555
N9 Mn2 1_555 1_555
N17 Mn4 1_555 1_555
N21 Mn1 1_555 1_555
N21 Mn2 1_555 1_555
N24 Mn1 1_555 1_555
N24 Mn2 1_555 1_555
N27 Mn1 1_555 1_555
N30 Mn1 1_555 1_555
N30 Mn3 1_555 1_555
N33 Mn2 1_555 1_555
N33 Mn4 1_555 1_555
N36 Mn2 1_555 1_555
N36 Mn4 1_555 1_555
N39 Mn3 1_555 1_555
N42 Mn3 1_555 1_555
N42 Mn5 1_555 1_555
N45 Mn4 1_555 1_555
N48 Mn5 1_555 1_555
O1 Mn4 1_555 1_555
O2 Mn5 1_555 1_555
C4 C5 1_555 1_555
C9 C10 1_555 1_555
C15 C23 1_555 1_555
C16 C17 1_555 1_555
C21 C22 1_555 1_555
C27 C35 1_555 1_555
C28 C29 1_555 1_555
C33 C34 1_555 1_555
C39 C47 1_555 1_555
C40 C41 1_555 1_555
C45 C46 1_555 1_555
C51 C59 1_555 1_555
C52 C53 1_555 1_555
C57 C58 1_555 1_555
C63 C71 1_555 1_555
C64 C65 1_555 1_555
C69 C70 1_555 1_555
N21B Mn1B 1_555 1_555
N21B Mn2B 1_555 1_555
N24B Mn1B 1_555 1_555
N24B Mn2B 1_555 1_555
N27B Mn1B 1_555 1_555
N27B Mn3B 1_555 1_555
N30B Mn1B 1_555 1_555
N30B Mn3B 1_555 1_555
N33B Mn2B 1_555 1_555
N33B Mn4B 1_555 1_555
N36B Mn2B 1_555 1_555
N36B Mn4B 1_555 1_555
N39B Mn3B 1_555 1_555
N39B Mn5B 1_555 1_555
N42B Mn3B 1_555 1_555
N42B Mn5B 1_555 1_555
N45B Mn4B 1_555 1_555
N48B Mn5B 1_555 1_555
O1B Mn4B 1_555 1_555
O2B Mn5B 1_555 1_555
C3B C11B 1_555 1_555
C4B C5B 1_555 1_555
C8B C12B 1_555 1_555
C9B C10B 1_555 1_555
C15B C23B 1_555 1_555
C16B C17B 1_555 1_555
C21B C22B 1_555 1_555
C27B C35B 1_555 1_555
C28B C29B 1_555 1_555
C33B C34B 1_555 1_555
C39B C47B 1_555 1_555
C40B C41B 1_555 1_555
C45B C46B 1_555 1_555
C51B C59B 1_555 1_555
C52B C53B 1_555 1_555
C57B C58B 1_555 1_555

#END
