
#######################################################################
#
#                 Cambridge Crystallographic Data Centre
#                                CCDC 
#
#######################################################################
#
# If this CIF has been generated from an entry in the Cambridge 
# Structural Database, then it will include bibliographic, chemical, 
# crystal, experimental, refinement or atomic coordinate data resulting 
# from the CCDC's data processing and validation procedures.
#
#######################################################################

data_RENGEX
_symmetry_cell_setting           monoclinic
_symmetry_space_group_name_H-M   'P 21/n'
_symmetry_Int_Tables_number      14
_space_group_name_Hall           '-P 2yn'
loop_
_symmetry_equiv_pos_site_id
_symmetry_equiv_pos_as_xyz
1 x,y,z
2 1/2-x,1/2+y,1/2-z
3 -x,-y,-z
4 1/2+x,1/2-y,1/2+z
_cell_length_a                   13.0565(5)
_cell_length_b                   17.9331(8)
_cell_length_c                   18.1321(7)
_cell_angle_alpha                90
_cell_angle_beta                 91.825(2)
_cell_angle_gamma                90
_cell_volume                     4243.36
loop_
_atom_site_label
_atom_site_type_symbol
_atom_site_fract_x
_atom_site_fract_y
_atom_site_fract_z
Ag1 Ag 0.546262(17) 0.223676(13) 0.109941(12)
N1 N 0.45418(18) 0.23706(13) 0.20550(14)
C1 C 0.4398(2) 0.17935(16) 0.25167(16)
H1 H 0.4723 0.1332 0.2416
Ag2 Ag 0.353874(17) 0.257670(12) -0.003744(12)
N2 N 0.14597(18) 0.26963(13) 0.51777(13)
C2 C 0.3804(2) 0.18407(15) 0.31252(15)
H2 H 0.3717 0.1417 0.3431
Ag3 Ag 0.768843(17) 0.208267(12) 0.198363(12)
C3 C 0.4084(2) 0.30221(16) 0.22119(16)
H3 H 0.4179 0.3434 0.1891
N3 N 0.24870(18) 0.25058(13) 0.08480(13)
C4 C 0.3481(2) 0.31195(16) 0.28191(16)
H4 H 0.3175 0.3589 0.2913
N4 N -0.06556(18) 0.25117(13) 0.39493(14)
C5 C 0.3327(2) 0.25153(15) 0.32926(15)
N5 N 0.68452(18) 0.22260(13) 0.29935(13)
C6 C 0.2013(2) 0.32801(16) 0.49498(16)
H5 H 0.1982 0.3735 0.5217
N6 N 0.37622(18) 0.26930(14) 0.61074(13)
C7 C 0.2626(2) 0.32461(15) 0.43400(15)
H6 H 0.3007 0.3670 0.4195
C8 C 0.1505(2) 0.20562(15) 0.47870(16)
H7 H 0.1115 0.1641 0.4942
C9 C 0.2097(2) 0.19790(16) 0.41713(16)
H8 H 0.2107 0.1521 0.3908
C10 C 0.2678(2) 0.25856(15) 0.39431(15)
C11 C 0.2334(2) 0.18801(16) 0.12487(16)
H9 H 0.2680 0.1436 0.1119
C12 C 0.1693(2) 0.18660(16) 0.18376(16)
H10 H 0.1606 0.1418 0.2108
C13 C 0.1981(2) 0.31293(16) 0.10356(16)
H11 H 0.2082 0.3569 0.0755
C14 C 0.1325(2) 0.31581(15) 0.16151(16)
H12 H 0.0981 0.3609 0.1729
C15 C 0.1170(2) 0.25127(15) 0.20353(16)
C16 C -0.0135(2) 0.31226(16) 0.37507(17)
H13 H -0.0166 0.3554 0.4054
C17 C 0.0445(2) 0.31525(15) 0.31263(16)
H14 H 0.0791 0.3599 0.3001
C18 C -0.0604(2) 0.19106(16) 0.35081(16)
H15 H -0.0980 0.1478 0.3636
C19 C -0.0038(2) 0.18895(15) 0.28826(15)
H16 H -0.0023 0.1450 0.2590
C20 C 0.0515(2) 0.25193(15) 0.26814(15)
C21 C 0.6747(2) 0.16646(16) 0.34747(16)
H17 H 0.7064 0.1201 0.3371
C22 C 0.6203(2) 0.17294(16) 0.41163(15)
H18 H 0.6156 0.1317 0.4442
C23 C 0.6394(2) 0.28806(15) 0.31529(16)
H19 H 0.6458 0.3284 0.2818
C24 C 0.5843(2) 0.29893(15) 0.37830(15)
H20 H 0.5543 0.3461 0.3878
C25 C 0.5728(2) 0.23990(15) 0.42799(16)
C26 C 0.4349(2) 0.32531(15) 0.58680(15)
H21 H 0.4309 0.3723 0.6107
C27 C 0.5007(2) 0.31782(15) 0.52915(15)
H22 H 0.5408 0.3590 0.5142
C28 C 0.3844(2) 0.20295(15) 0.57654(16)
H23 H 0.3441 0.1625 0.5931
C29 C 0.4482(2) 0.19098(16) 0.51881(16)
H24 H 0.4516 0.1431 0.4965
C30 C 0.5082(2) 0.24950(15) 0.49302(16)
C31 C 0.7439(2) 0.04478(16) 0.17374(15)
C32 C 0.7547(2) -0.03736(15) 0.15334(16)
H25 H 0.8285 -0.0502 0.1537
H26 H 0.7225 -0.0679 0.1917
C33 C 0.7071(2) -0.05818(16) 0.07866(16)
H27 H 0.6344 -0.0425 0.0775
H28 H 0.7084 -0.1132 0.0740
C34 C 0.7583(2) -0.02469(15) 0.01175(17)
C35 C 0.4160(2) 0.41672(15) 0.02611(16)
C36 C 0.4587(2) 0.49593(15) 0.02908(16)
H29 H 0.4888 0.5062 0.0788
H30 H 0.4029 0.5322 0.0191
O1 O 0.81418(16) 0.07426(11) 0.21271(12)
O2 O 0.66384(16) 0.07903(11) 0.15140(12)
O3 O 0.84780(16) 0.00032(14) 0.01878(13)
O4 O 0.70638(17) -0.02550(13) -0.04778(12)
O5 O 0.33827(15) 0.40391(11) -0.01461(12)
O6 O 0.46463(15) 0.36722(10) 0.06193(11)
O7 O 0.4803(2) 0.09729(13) 0.04957(15)
H31 H 0.525(4) 0.072(3) 0.068(3)
H32 H 0.422(4) 0.070(3) 0.050(3)
Ag1C Ag 1.046262(17) 0.276324(13) -0.390059(12)
Ag1C_2 Ag 0.046262(17) 0.276324(13) 0.609941(12)
N1C N 0.95418(18) 0.26294(13) -0.29450(14)
C1C C 0.9398(2) 0.32065(16) -0.24833(16)
H1C H 0.9723 0.3668 -0.2584
Ag2C Ag 0.853874(17) 0.242330(12) -0.503744(12)
Ag2C_2 Ag -0.146126(17) 0.242330(12) 0.496256(12)
Ag2B Ag 0.646126(17) 0.742330(12) 0.003744(12)
N2C N 0.64597(18) 0.23037(13) 0.01777(13)
N2_2 N 1.14597(18) 0.26963(13) -0.48223(13)
C2C C 0.8804(2) 0.31593(15) -0.18748(15)
H2C H 0.8717 0.3583 -0.1569
Ag3C Ag 1.268843(17) 0.291733(12) -0.301637(12)
Ag3C_2 Ag 0.268843(17) 0.291733(12) 0.698363(12)
C3C C 0.9084(2) 0.19779(16) -0.27881(16)
H3C H 0.9179 0.1566 -0.3109
N3C N 0.74870(18) 0.24942(13) -0.41520(13)
C4C C 0.8481(2) 0.18805(16) -0.21809(16)
H4C H 0.8175 0.1411 -0.2087
N4C N 0.43444(18) 0.24883(13) -0.10507(14)
N4_2 N 0.93444(18) 0.25117(13) -0.60507(14)
C5C C 0.8327(2) 0.24847(15) -0.17074(15)
N5C N 1.18452(18) 0.27740(13) -0.20065(13)
C6C C 0.7013(2) 0.17199(16) -0.00502(16)
H5C H 0.6982 0.1265 0.0217
N6C N 0.87622(18) 0.23070(14) 0.11074(13)
N6_2 N 1.37622(18) 0.26930(14) -0.38926(13)
C7C C 0.7626(2) 0.17539(15) -0.06600(15)
H6C H 0.8007 0.1330 -0.0805
C8C C 0.6505(2) 0.29438(15) -0.02130(16)
H7C H 0.6115 0.3359 -0.0058
C9C C 0.7097(2) 0.30210(16) -0.08287(16)
H8C H 0.7107 0.3479 -0.1092
C10C C 0.7678(2) 0.24144(15) -0.10569(15)
C11C C 0.7334(2) 0.31199(16) -0.37513(16)
H9C H 0.7680 0.3564 -0.3881
C12C C 0.6693(2) 0.31340(16) -0.31624(16)
H10C H 0.6606 0.3582 -0.2892
C13C C 0.6981(2) 0.18707(16) -0.39644(16)
H11C H 0.7082 0.1431 -0.4245
C14C C 0.6325(2) 0.18419(15) -0.33849(16)
H12C H 0.5981 0.1391 -0.3271
C15C C 0.6170(2) 0.24873(15) -0.29647(16)
C16C C 0.4865(2) 0.18774(16) -0.12493(17)
H13C H 0.4834 0.1446 -0.0946
C17C C 0.5445(2) 0.18475(15) -0.18737(16)
H14C H 0.5791 0.1401 -0.1999
C18C C 0.4396(2) 0.30894(16) -0.14919(16)
H15C H 0.4020 0.3522 -0.1364
C19C C 0.4962(2) 0.31105(15) -0.21174(15)
H16C H 0.4977 0.3550 -0.2410
C20C C 0.5515(2) 0.24807(15) -0.23186(15)
C21C C 1.1747(2) 0.33354(16) -0.15253(16)
H17C H 1.2064 0.3799 -0.1629
C22C C 1.1203(2) 0.32706(16) -0.08837(15)
H18C H 1.1156 0.3683 -0.0558
C23C C 1.1394(2) 0.21194(15) -0.18471(16)
H19C H 1.1458 0.1716 -0.2182
C24C C 1.0843(2) 0.20107(15) -0.12170(15)
H20C H 1.0543 0.1539 -0.1122
C25C C 1.0728(2) 0.26010(15) -0.07201(16)
C26C C 0.9349(2) 0.17469(15) 0.08680(15)
H21C H 0.9309 0.1277 0.1107
C27C C 1.0007(2) 0.18218(15) 0.02915(15)
H22C H 1.0408 0.1410 0.0142
C28C C 0.8844(2) 0.29705(15) 0.07654(16)
H23C H 0.8441 0.3375 0.0931
C29C C 0.9482(2) 0.30902(16) 0.01881(16)
H24C H 0.9516 0.3569 -0.0035
C30C C 1.0082(2) 0.25050(15) -0.00698(16)
C31C C 1.2439(2) 0.45522(16) -0.32626(15)
C32C C 1.2547(2) 0.53736(15) -0.34666(16)
H25C H 1.3285 0.5502 -0.3463
H26C H 1.2225 0.5679 -0.3083
C33C C 1.2071(2) 0.55818(16) -0.42134(16)
H27C H 1.1344 0.5425 -0.4225
H28C H 1.2084 0.6132 -0.4260
C34C C 1.2583(2) 0.52469(15) -0.48825(17)
C35B C 0.5840(2) 0.58328(15) -0.02611(16)
C36B C 0.5413(2) 0.50407(15) -0.02908(16)
H29B H 0.5112 0.4938 -0.0788
H30B H 0.5971 0.4678 -0.0191
O1C O 1.31418(16) 0.42574(11) -0.28729(12)
O2C O 1.16384(16) 0.42097(11) -0.34860(12)
O3C O 1.34780(16) 0.49968(14) -0.48122(13)
O4C O 1.20638(17) 0.52550(13) -0.54778(12)
O5B O 0.66173(15) 0.59609(11) 0.01461(12)
O5C O 0.83827(15) 0.09609(11) -0.51461(12)
O6B O 0.53537(15) 0.63278(10) -0.06193(11)
O7C O 0.9803(2) 0.40271(13) -0.45043(15)
H31C H 1.025(4) 0.428(3) -0.432(3)
H32C H 0.922(4) 0.430(3) -0.450(3)
O8 O 0.9861(2) -0.00410(14) 0.24925(14)
H33 H 0.932(4) 0.019(3) 0.242(2)
H34 H 1.012(4) -0.012(3) 0.211(3)
O9 O 0.3094(2) 0.52431(19) 0.18600(17)
H35 H 0.286(4) 0.511(3) 0.223(3)
H36 H 0.367(4) 0.516(2) 0.196(2)
O10 O 0.22696(18) 0.51502(14) -0.07553(14)
H37 H 0.264(4) 0.479(3) -0.059(3)
H38 H 0.266(4) 0.541(3) -0.095(3)
O11 O 0.63115(19) 0.40249(14) 0.15514(14)
H39 H 0.600(3) 0.428(2) 0.187(2)
H40 H 0.579(3) 0.392(2) 0.128(2)
O12 O 0.8432(2) 0.47624(17) -0.07296(18)
H41 H 0.824(3) 0.476(2) -0.033(3)
H42 H 0.798(3) 0.485(2) -0.096(2)
O13 O 0.9735(2) 0.47667(18) 0.13420(16)
H43 H 1.014(3) 0.4998(16) 0.1122(16)
H44 H 0.911(3) 0.4824(14) 0.1102(13)
O14 O 0.5039(2) -0.00562(16) 0.2164(2)
H45 H 0.548(4) 0.019(3) 0.197(3)
H46 H 0.518(3) -0.012(2) 0.252(2)
O15 O 0.7051(2) 0.01888(16) -0.19183(15)
H47 H 0.648(4) 0.013(3) -0.199(3)
H48 H 0.723(3) 0.007(3) -0.150(3)
O16 O 0.9724(2) 0.02556(14) -0.10099(14)
H49 H 0.930(4) 0.021(3) -0.069(3)
H50 H 1.027(4) 0.013(2) -0.083(2)
loop_
_geom_bond_atom_site_label_1
_geom_bond_atom_site_label_2
_geom_bond_site_symmetry_1
_geom_bond_site_symmetry_2
Ag1 N1 1_555 1_555
N1 C1 1_555 1_555
C1 H1 1_555 1_555
Ag2 Ag1 1_555 1_555
N2 C6 1_555 1_555
C2 C1 1_555 1_555
H2 C2 1_555 1_555
Ag3 Ag1 1_555 1_555
C3 N1 1_555 1_555
H3 C3 1_555 1_555
N3 Ag2 1_555 1_555
C4 C3 1_555 1_555
H4 C4 1_555 1_555
N4 C16 1_555 1_555
C5 C2 1_555 1_555
N5 Ag3 1_555 1_555
C6 H5 1_555 1_555
N6 C26 1_555 1_555
C7 C6 1_555 1_555
H6 C7 1_555 1_555
C8 N2 1_555 1_555
H7 C8 1_555 1_555
C9 C8 1_555 1_555
H8 C9 1_555 1_555
C10 C5 1_555 1_555
C11 N3 1_555 1_555
H9 C11 1_555 1_555
C12 C11 1_555 1_555
H10 C12 1_555 1_555
C13 N3 1_555 1_555
H11 C13 1_555 1_555
C14 C13 1_555 1_555
H12 C14 1_555 1_555
C15 C12 1_555 1_555
C16 H13 1_555 1_555
C17 C16 1_555 1_555
H14 C17 1_555 1_555
C18 N4 1_555 1_555
H15 C18 1_555 1_555
C19 C18 1_555 1_555
H16 C19 1_555 1_555
C20 C15 1_555 1_555
C21 N5 1_555 1_555
H17 C21 1_555 1_555
C22 C21 1_555 1_555
H18 C22 1_555 1_555
C23 N5 1_555 1_555
H19 C23 1_555 1_555
C24 C23 1_555 1_555
H20 C24 1_555 1_555
C25 C22 1_555 1_555
C26 H21 1_555 1_555
C27 C26 1_555 1_555
H22 C27 1_555 1_555
C28 N6 1_555 1_555
H23 C28 1_555 1_555
C29 C28 1_555 1_555
H24 C29 1_555 1_555
C30 C25 1_555 1_555
C31 C32 1_555 1_555
C32 H25 1_555 1_555
H26 C32 1_555 1_555
C33 C32 1_555 1_555
H27 C33 1_555 1_555
H28 C33 1_555 1_555
C34 C33 1_555 1_555
C35 C36 1_555 1_555
C36 H29 1_555 1_555
H30 C36 1_555 1_555
O1 Ag3 1_555 1_555
O2 C31 1_555 1_555
O3 C34 1_555 1_555
O4 C34 1_555 1_555
O5 Ag2 1_555 1_555
O6 C35 1_555 1_555
O7 Ag1 1_555 1_555
H31 O7 1_555 1_555
H32 O7 1_555 1_555
O8 H33 1_555 1_555
H34 O8 1_555 1_555
O9 H35 1_555 1_555
H36 O9 1_555 1_555
O10 H37 1_555 1_555
H38 O10 1_555 1_555
O11 H39 1_555 1_555
H40 O11 1_555 1_555
O12 H41 1_555 1_555
H42 O12 1_555 1_555
O13 H43 1_555 1_555
H44 O13 1_555 1_555
O14 H45 1_555 1_555
H46 O14 1_555 1_555
O15 H47 1_555 1_555
H48 O15 1_555 1_555
O16 H49 1_555 1_555
H50 O16 1_555 1_555
Ag1C N1C 1_555 1_555
Ag1C_2 N2 1_555 1_555
N1C C1C 1_555 1_555
C1C H1C 1_555 1_555
Ag2C Ag1C 1_555 1_555
Ag2C_2 N4 1_555 1_555
Ag2B O5B 1_555 1_555
N2C Ag1 1_555 1_555
N2_2 Ag1C 1_555 1_555
C2C C1C 1_555 1_555
H2C C2C 1_555 1_555
Ag3C Ag1C 1_555 1_555
Ag3C_2 N6 1_555 1_555
C3C N1C 1_555 1_555
H3C C3C 1_555 1_555
N3C Ag2C 1_555 1_555
C4C C3C 1_555 1_555
H4C C4C 1_555 1_555
N4C Ag2 1_555 1_555
N4_2 Ag2C 1_555 1_555
C5C C2C 1_555 1_555
N5C Ag3C 1_555 1_555
C6C N2C 1_555 1_555
H5C C6C 1_555 1_555
N6C Ag3 1_555 1_555
N6_2 Ag3C 1_555 1_555
C7C C6C 1_555 1_555
H6C C7C 1_555 1_555
C8C N2C 1_555 1_555
H7C C8C 1_555 1_555
C9C C8C 1_555 1_555
H8C C9C 1_555 1_555
C10C C5C 1_555 1_555
C11C N3C 1_555 1_555
H9C C11C 1_555 1_555
C12C C11C 1_555 1_555
H10C C12C 1_555 1_555
C13C N3C 1_555 1_555
H11C C13C 1_555 1_555
C14C C13C 1_555 1_555
H12C C14C 1_555 1_555
C15C C12C 1_555 1_555
C16C N4C 1_555 1_555
H13C C16C 1_555 1_555
C17C C16C 1_555 1_555
H14C C17C 1_555 1_555
C18C N4C 1_555 1_555
H15C C18C 1_555 1_555
C19C C18C 1_555 1_555
H16C C19C 1_555 1_555
C20C C15C 1_555 1_555
C21C N5C 1_555 1_555
H17C C21C 1_555 1_555
C22C C21C 1_555 1_555
H18C C22C 1_555 1_555
C23C N5C 1_555 1_555
H19C C23C 1_555 1_555
C24C C23C 1_555 1_555
H20C C24C 1_555 1_555
C25C C22C 1_555 1_555
C26C N6C 1_555 1_555
H21C C26C 1_555 1_555
C27C C26C 1_555 1_555
H22C C27C 1_555 1_555
C28C N6C 1_555 1_555
H23C C28C 1_555 1_555
C29C C28C 1_555 1_555
H24C C29C 1_555 1_555
C30C C25C 1_555 1_555
C31C C32C 1_555 1_555
C32C H25C 1_555 1_555
H26C C32C 1_555 1_555
C33C C32C 1_555 1_555
H27C C33C 1_555 1_555
H28C C33C 1_555 1_555
C34C C33C 1_555 1_555
C35B C36B 1_555 1_555
C36B C36 1_555 1_555
H29B C36B 1_555 1_555
H30B C36B 1_555 1_555
O1C Ag3C 1_555 1_555
O2C C31C 1_555 1_555
O3C C34C 1_555 1_555
O4C C34C 1_555 1_555
O5B C35B 1_555 1_555
O5C Ag2C 1_555 1_555
O6B C35B 1_555 1_555
O7C Ag1C 1_555 1_555
H31C O7C 1_555 1_555
H32C O7C 1_555 1_555
C4 C5 1_555 1_555
C7 C10 1_555 1_555
C9 C10 1_555 1_555
C14 C15 1_555 1_555
C17 C20 1_555 1_555
C19 C20 1_555 1_555
C24 C25 1_555 1_555
C27 C30 1_555 1_555
C29 C30 1_555 1_555
C31 O1 1_555 1_555
C35 O5 1_555 1_555
Ag1C_2 Ag2C_2 1_555 1_555
Ag1C_2 Ag3C_2 1_555 1_555
C4C C5C 1_555 1_555
C7C C10C 1_555 1_555
C9C C10C 1_555 1_555
C14C C15C 1_555 1_555
C17C C20C 1_555 1_555
C19C C20C 1_555 1_555
C24C C25C 1_555 1_555
C27C C30C 1_555 1_555
C29C C30C 1_555 1_555
C31C O1C 1_555 1_555

#END
