
#######################################################################
#
#                 Cambridge Crystallographic Data Centre
#                                CCDC 
#
#######################################################################
#
# If this CIF has been generated from an entry in the Cambridge 
# Structural Database, then it will include bibliographic, chemical, 
# crystal, experimental, refinement or atomic coordinate data resulting 
# from the CCDC's data processing and validation procedures.
#
#######################################################################

data_RENMUT
_symmetry_cell_setting           monoclinic
_symmetry_space_group_name_H-M   'P 21/n'
_symmetry_Int_Tables_number      14
_space_group_name_Hall           '-P 2yn'
loop_
_symmetry_equiv_pos_site_id
_symmetry_equiv_pos_as_xyz
1 x,y,z
2 1/2-x,1/2+y,1/2-z
3 -x,-y,-z
4 1/2+x,1/2-y,1/2+z
_cell_length_a                   9.3497(14)
_cell_length_b                   10.0099(15)
_cell_length_c                   10.1720(17)
_cell_angle_alpha                90
_cell_angle_beta                 107.242(4)
_cell_angle_gamma                90
_cell_volume                     909.212
loop_
_atom_site_label
_atom_site_type_symbol
_atom_site_fract_x
_atom_site_fract_y
_atom_site_fract_z
Cd1 Cd 0.5000 0.5000 0.5000
N1 N 0.3082(2) 0.5435(2) 0.5940(2)
N2 N 0.1439(2) 0.50441(19) 0.7097(2)
N3 N 0.0748(2) 0.5836(2) 0.1404(2)
N4 N 0.3191(3) 0.5002(2) 0.2838(2)
N5 N 0.0408(2) 0.7694(2) -0.0246(2)
C1 C 0.2705(3) 0.4664(3) 0.6834(3)
H1 H 0.3276 0.3910 0.7254
C2 C 0.0915(3) 0.6165(2) 0.6291(3)
C3 C 0.1957(3) 0.6404(2) 0.5571(2)
C4 C 0.1741(3) 0.7459(3) 0.4641(3)
H2 H 0.2440 0.7639 0.4150
C5 C 0.0478(3) 0.8234(3) 0.4456(3)
H3 H 0.0306 0.8957 0.3823
C6 C -0.0558(3) 0.7984(3) 0.5178(3)
H4 H -0.1413 0.8543 0.5025
C7 C -0.0368(3) 0.6944(3) 0.6107(3)
H5 H -0.1071 0.6769 0.6594
C8 C 0.2085(3) 0.5441(3) 0.2141(3)
C9 C 0.0637(3) 0.6833(2) 0.0542(3)
Cd1C Cd 0.0000 1.0000 0.0000
Cd1C_2 Cd 1.0000 0.0000 1.0000
N1B N 0.6918(2) 0.4565(2) 0.4060(2)
N2B N 0.8561(2) 0.49559(19) 0.2903(2)
N3B N 0.9252(2) 0.4164(2) 0.8596(2)
N4B N 0.6809(3) 0.4998(2) 0.7162(2)
N5B N 0.9592(2) 0.2306(2) 1.0246(2)
N5C N 0.5408(2) 0.7306(2) 0.4754(2)
N5A N 0.4592(2) 0.2694(2) 0.5246(2)
C1B C 0.7295(3) 0.5336(3) 0.3166(3)
H1B H 0.6724 0.6090 0.2746
C2B C 0.9085(3) 0.3835(2) 0.3709(3)
C3B C 0.8043(3) 0.3596(2) 0.4429(2)
C4B C 0.8259(3) 0.2541(3) 0.5359(3)
H2B H 0.7560 0.2361 0.5850
C5B C 0.9522(3) 0.1766(3) 0.5544(3)
H3B H 0.9694 0.1043 0.6177
C6B C 1.0558(3) 0.2016(3) 0.4822(3)
H4B H 1.1413 0.1457 0.4975
C7B C 1.0368(3) 0.3056(3) 0.3893(3)
H5B H 1.1071 0.3231 0.3406
C8B C 0.7915(3) 0.4559(3) 0.7859(3)
C9B C 0.9363(3) 0.3167(2) 0.9458(3)
loop_
_geom_bond_atom_site_label_1
_geom_bond_atom_site_label_2
_geom_bond_site_symmetry_1
_geom_bond_site_symmetry_2
Cd1 N1 1_555 1_555
N1 C1 1_555 1_555
N2 C1 1_555 1_555
N3 C8 1_555 1_555
N4 Cd1 1_555 1_555
N5 C9 1_555 1_555
C1 H1 1_555 1_555
C2 N2 1_555 1_555
C3 N1 1_555 1_555
C4 C3 1_555 1_555
H2 C4 1_555 1_555
C5 C4 1_555 1_555
H3 C5 1_555 1_555
C6 C5 1_555 1_555
H4 C6 1_555 1_555
C7 C2 1_555 1_555
H5 C7 1_555 1_555
C8 N4 1_555 1_555
C9 N3 1_555 1_555
Cd1C N5 1_555 1_555
Cd1C_2 N5B 1_555 1_555
N1B Cd1 1_555 1_555
N2B C1B 1_555 1_555
N3B C8B 1_555 1_555
N4B Cd1 1_555 1_555
N5B C9B 1_555 1_555
N5C Cd1 1_555 1_555
N5A Cd1 1_555 1_555
C1B N1B 1_555 1_555
H1B C1B 1_555 1_555
C2B N2B 1_555 1_555
C3B N1B 1_555 1_555
C4B C3B 1_555 1_555
H2B C4B 1_555 1_555
C5B C4B 1_555 1_555
H3B C5B 1_555 1_555
C6B C5B 1_555 1_555
H4B C6B 1_555 1_555
C7B C2B 1_555 1_555
H5B C7B 1_555 1_555
C8B N4B 1_555 1_555
C9B N3B 1_555 1_555
C2 C3 1_555 1_555
C6 C7 1_555 1_555
C2B C3B 1_555 1_555
C6B C7B 1_555 1_555

#END
