
#######################################################################
#
#                 Cambridge Crystallographic Data Centre
#                                CCDC 
#
#######################################################################
#
# If this CIF has been generated from an entry in the Cambridge 
# Structural Database, then it will include bibliographic, chemical, 
# crystal, experimental, refinement or atomic coordinate data resulting 
# from the CCDC's data processing and validation procedures.
#
#######################################################################

data_RENNOO
_symmetry_cell_setting           monoclinic
_symmetry_space_group_name_H-M   'P 2/c'
_symmetry_Int_Tables_number      13
_space_group_name_Hall           '-P 2yc'
loop_
_symmetry_equiv_pos_site_id
_symmetry_equiv_pos_as_xyz
1 x,y,z
2 -x,y,1/2-z
3 -x,-y,-z
4 x,-y,1/2+z
_cell_length_a                   7.9029(7)
_cell_length_b                   9.8007(9)
_cell_length_c                   20.5060(19)
_cell_angle_alpha                90
_cell_angle_beta                 99.297(2)
_cell_angle_gamma                90
_cell_volume                     1567.41
loop_
_atom_site_label
_atom_site_type_symbol
_atom_site_fract_x
_atom_site_fract_y
_atom_site_fract_z
C1 C 0.3744(3) 0.0154(3) 0.57291(13)
H1 H 0.3333 0.1045 0.5714
C2 C 0.4893(3) -0.0244(3) 0.62788(13)
H2 H 0.5234 0.0367 0.6622
C3 C 0.5535(3) -0.1571(3) 0.63110(12)
C4 C 0.5001(3) -0.2420(3) 0.57661(13)
H3 H 0.5436 -0.3301 0.5758
C5 C 0.3834(3) -0.1950(3) 0.52438(12)
H4 H 0.3474 -0.2539 0.4893
C6 C 0.8799(3) 0.0273(3) 0.81073(13)
H5 H 0.8998 0.1203 0.8171
C7 C 0.7809(3) -0.0149(3) 0.75225(13)
H6 H 0.7360 0.0487 0.7204
C8 C 0.7493(3) -0.1544(3) 0.74160(12)
C9 C 0.8202(4) -0.2438(3) 0.79217(13)
H7 H 0.8016 -0.3372 0.7874
C10 C 0.9169(3) -0.1934(3) 0.84856(13)
H8 H 0.9626 -0.2547 0.8813
N1 N 0.3187(3) -0.0674(2) 0.52165(10)
N2 N 0.6609(3) -0.2128(2) 0.68477(10)
H9 H 0.6750 -0.2995 0.6822
N3 N 0.9491(3) -0.0592(2) 0.85891(10)
Ag1 Ag 0.12429(2) -0.00345(2) 0.443644(9)
N3C N -0.0509(3) 0.0592(2) 0.35891(10)
Ag1C Ag 1.12429(2) 0.00345(2) 0.943644(9)
C11 C 0.1805(5) 0.4466(4) 0.5940(2)
H10 H 0.0852 0.4750 0.6143
H11 H 0.2243 0.5234 0.5729
H12 H 0.2690 0.4104 0.6271
C12 C 0.1242(4) 0.3411(3) 0.54463(16)
N4 N 0.0818(4) 0.2578(3) 0.50693(14)
F1 F 0.4355(4) 0.7197(2) 0.35668(16)
F2 F 0.2455(4) 0.6696(3) 0.26407(11)
F3 F 0.1363(3) 0.5032(2) 0.32010(13)
F4 F 0.1557(3) 0.7223(2) 0.35957(11)
F5 F 0.3191(4) 0.5539(2) 0.41089(10)
F6 F 0.4199(3) 0.50423(17) 0.31561(10)
P1 P 0.28621(13) 0.61419(8) 0.33690(4)
loop_
_geom_bond_atom_site_label_1
_geom_bond_atom_site_label_2
_geom_bond_site_symmetry_1
_geom_bond_site_symmetry_2
C1 H1 1_555 1_555
C2 C1 1_555 1_555
H2 C2 1_555 1_555
C3 C2 1_555 1_555
C4 C3 1_555 1_555
H3 C4 1_555 1_555
C5 C4 1_555 1_555
H4 C5 1_555 1_555
C6 H5 1_555 1_555
C7 C6 1_555 1_555
H6 C7 1_555 1_555
C8 C7 1_555 1_555
C9 C8 1_555 1_555
H7 C9 1_555 1_555
C10 C9 1_555 1_555
H8 C10 1_555 1_555
N1 C1 1_555 1_555
N2 C3 1_555 1_555
H9 N2 1_555 1_555
N3 C6 1_555 1_555
Ag1 N1 1_555 1_555
C11 H10 1_555 1_555
H11 C11 1_555 1_555
H12 C11 1_555 1_555
C12 C11 1_555 1_555
N4 C12 1_555 1_555
F1 P1 1_555 1_555
F2 P1 1_555 1_555
F3 P1 1_555 1_555
F4 P1 1_555 1_555
F5 P1 1_555 1_555
F6 P1 1_555 1_555
N3C Ag1 1_555 1_555
Ag1C N3 1_555 1_555
C5 N1 1_555 1_555
C8 N2 1_555 1_555
C10 N3 1_555 1_555

#END
