
#######################################################################
#
#                 Cambridge Crystallographic Data Centre
#                                CCDC 
#
#######################################################################
#
# If this CIF has been generated from an entry in the Cambridge 
# Structural Database, then it will include bibliographic, chemical, 
# crystal, experimental, refinement or atomic coordinate data resulting 
# from the CCDC's data processing and validation procedures.
#
#######################################################################

data_RENNUU
_symmetry_cell_setting           monoclinic
_symmetry_space_group_name_H-M   'P 21/c'
_symmetry_Int_Tables_number      14
_space_group_name_Hall           '-P 2ybc'
loop_
_symmetry_equiv_pos_site_id
_symmetry_equiv_pos_as_xyz
1 x,y,z
2 -x,1/2+y,1/2-z
3 -x,-y,-z
4 x,1/2-y,1/2+z
_cell_length_a                   7.324(2)
_cell_length_b                   23.444(8)
_cell_length_c                   19.550(6)
_cell_angle_alpha                90
_cell_angle_beta                 91.168(6)
_cell_angle_gamma                90
_cell_volume                     3356.11
loop_
_atom_site_label
_atom_site_type_symbol
_atom_site_fract_x
_atom_site_fract_y
_atom_site_fract_z
C1 C 0.3144(17) 0.9016(5) 0.6002(6)
H1 H 0.3488 0.9328 0.6287
C2 C 0.3168(19) 0.8484(6) 0.6275(6)
H2 H 0.3484 0.8431 0.6744
C3 C 0.2733(16) 0.8017(5) 0.5871(6)
C4 C 0.2159(17) 0.8126(5) 0.5209(6)
H3 H 0.1761 0.7821 0.4922
C5 C 0.2163(16) 0.8674(5) 0.4961(6)
H4 H 0.1800 0.8736 0.4497
C6 C 0.2399(18) 0.5951(5) 0.6074(6)
H5 H 0.2185 0.5648 0.6385
C7 C 0.2444(19) 0.6488(5) 0.6323(6)
H6 H 0.2284 0.6549 0.6798
C8 C 0.2719(17) 0.6949(5) 0.5897(6)
C9 C 0.2994(18) 0.6823(5) 0.5211(6)
H7 H 0.3239 0.7122 0.4898
C10 C 0.2914(17) 0.6272(5) 0.4984(6)
H8 H 0.3057 0.6204 0.4509
C11 C 0.1905(18) 1.3659(6) 0.5000(6)
H9 H 0.1650 1.3726 0.5467
C12 C 0.1727(17) 1.3111(5) 0.4748(7)
H10 H 0.1299 1.2814 0.5033
C13 C 0.2167(17) 1.3001(5) 0.4090(6)
C14 C 0.2746(19) 1.3460(5) 0.3695(6)
H11 H 0.3059 1.3406 0.3231
C15 C 0.2855(18) 1.3987(5) 0.3983(6)
H12 H 0.3272 1.4294 0.3711
C16 C 0.3031(16) 1.1270(5) 0.4930(6)
H13 H 0.3537 1.1202 0.5373
C17 C 0.2864(17) 1.1824(5) 0.4710(6)
H14 H 0.3221 1.2129 0.5002
C18 C 0.2168(17) 1.1935(5) 0.4057(6)
C19 C 0.1676(19) 1.1460(5) 0.3655(7)
H15 H 0.1212 1.1508 0.3202
C20 C 0.1881(18) 1.0928(5) 0.3931(6)
H16 H 0.1538 1.0611 0.3655
N1 N 0.2647(15) 0.9123(4) 0.5337(5)
N2 N 0.2775(17) 0.7484(4) 0.6169(5)
H29 H 0.2852 0.7490 0.6618
N3 N 0.2643(15) 0.5817(4) 0.5400(5)
N4 N 0.2414(14) 1.4093(4) 0.4618(5)
N5 N 0.1991(17) 1.2466(4) 0.3767(6)
H30 H 0.1736 1.2473 0.3325
N6 N 0.2519(15) 1.0824(4) 0.4551(5)
Ag1 Ag 0.25668(16) 0.99716(4) 0.49520(5)
Ag2 Ag 0.25178(17) 0.49584(4) 0.50298(5)
N4_2 N 0.2414(14) 0.4093(4) 0.4618(5)
Ag2_2 Ag 0.25178(17) 1.49584(4) 0.50298(5)
C21 C -0.0531(19) 0.9279(6) 0.3599(8)
C22 C -0.067(3) 0.8807(6) 0.3128(9)
H17 H -0.0229 0.8459 0.3355
H18 H 0.0081 0.8885 0.2728
H19 H -0.1943 0.8756 0.2980
N7 N -0.0426(18) 0.9651(5) 0.3967(6)
C23 C 0.549(2) 0.7569(6) 0.2969(7)
C24 C 0.561(2) 0.7661(10) 0.3704(8)
H20 H 0.4700 0.7947 0.3834
H21 H 0.6832 0.7797 0.3832
H22 H 0.5361 0.7302 0.3942
N8 N 0.536(2) 0.7482(6) 0.2397(7)
C25 C 0.5292(18) 0.5558(7) 0.3426(10)
C26 C 0.584(2) 0.5928(7) 0.2875(8)
H23 H 0.5005 0.6254 0.2844
H24 H 0.5796 0.5716 0.2443
H25 H 0.7085 0.6064 0.2965
N9 N 0.4841(18) 0.5306(6) 0.3882(7)
C27 C 0.038(2) 0.5386(6) 0.3391(7)
C28 C 0.093(2) 0.5397(8) 0.2670(8)
H26 H 0.2140 0.5226 0.2630
H27 H 0.0956 0.5792 0.2508
H28 H 0.0042 0.5179 0.2392
N10 N -0.0057(17) 0.5344(5) 0.3937(6)
O1 O 0.404(3) 0.8877(7) 0.3353(11)
O2 O 0.5759(18) 0.9394(8) 0.2615(8)
O3 O 0.2684(16) 0.9601(6) 0.2718(7)
O4 O 0.470(3) 0.9796(9) 0.3589(10)
Cl1 Cl 0.4304(4) 0.94193(14) 0.30486(17)
O5 O -0.0916(18) 0.6794(7) 0.3291(8)
O6 O 0.2206(17) 0.6756(6) 0.3237(7)
O7 O 0.075(2) 0.7513(5) 0.3744(6)
O8 O 0.0570(19) 0.7425(6) 0.2585(5)
Cl2 Cl 0.0684(5) 0.71163(15) 0.32134(18)
loop_
_geom_bond_atom_site_label_1
_geom_bond_atom_site_label_2
_geom_bond_site_symmetry_1
_geom_bond_site_symmetry_2
C1 H1 1_555 1_555
C2 C1 1_555 1_555
H2 C2 1_555 1_555
C3 C2 1_555 1_555
C4 C3 1_555 1_555
H3 C4 1_555 1_555
C5 C4 1_555 1_555
H4 C5 1_555 1_555
C6 H5 1_555 1_555
C7 C6 1_555 1_555
H6 C7 1_555 1_555
C8 C7 1_555 1_555
C9 C8 1_555 1_555
H7 C9 1_555 1_555
C10 C9 1_555 1_555
H8 C10 1_555 1_555
C11 H9 1_555 1_555
C12 C11 1_555 1_555
H10 C12 1_555 1_555
C13 C12 1_555 1_555
C14 C13 1_555 1_555
H11 C14 1_555 1_555
C15 C14 1_555 1_555
H12 C15 1_555 1_555
C16 H13 1_555 1_555
C17 C16 1_555 1_555
H14 C17 1_555 1_555
C18 C17 1_555 1_555
C19 C18 1_555 1_555
H15 C19 1_555 1_555
C20 C19 1_555 1_555
H16 C20 1_555 1_555
C21 C22 1_555 1_555
C22 H17 1_555 1_555
H18 C22 1_555 1_555
H19 C22 1_555 1_555
C23 C24 1_555 1_555
C24 H20 1_555 1_555
H21 C24 1_555 1_555
H22 C24 1_555 1_555
C25 C26 1_555 1_555
C26 H23 1_555 1_555
H24 C26 1_555 1_555
H25 C26 1_555 1_555
C27 C28 1_555 1_555
C28 H26 1_555 1_555
H27 C28 1_555 1_555
H28 C28 1_555 1_555
N1 C1 1_555 1_555
N2 C3 1_555 1_555
H29 N2 1_555 1_555
N3 C6 1_555 1_555
N4 C11 1_555 1_555
N5 C13 1_555 1_555
H30 N5 1_555 1_555
N6 C16 1_555 1_555
N7 C21 1_555 1_555
N8 C23 1_555 1_555
N9 C25 1_555 1_555
N10 C27 1_555 1_555
O1 Cl1 1_555 1_555
O2 Cl1 1_555 1_555
O3 Cl1 1_555 1_555
O4 Cl1 1_555 1_555
O5 Cl2 1_555 1_555
O6 Cl2 1_555 1_555
O7 Cl2 1_555 1_555
O8 Cl2 1_555 1_555
Ag1 N1 1_555 1_555
Ag2 N3 1_555 1_555
N4_2 Ag2 1_555 1_555
Ag2_2 N4 1_555 1_555
C5 N1 1_555 1_555
C8 N2 1_555 1_555
C10 N3 1_555 1_555
C15 N4 1_555 1_555
C18 N5 1_555 1_555
C20 N6 1_555 1_555
N6 Ag1 1_555 1_555

#END
