
#######################################################################
#
#                 Cambridge Crystallographic Data Centre
#                                CCDC 
#
#######################################################################
#
# If this CIF has been generated from an entry in the Cambridge 
# Structural Database, then it will include bibliographic, chemical, 
# crystal, experimental, refinement or atomic coordinate data resulting 
# from the CCDC's data processing and validation procedures.
#
#######################################################################

data_RENPEG
_symmetry_cell_setting           rhombohedral
_symmetry_space_group_name_H-M   'R 3 2'
_symmetry_Int_Tables_number      155
_space_group_name_Hall           'R 3 2"'
loop_
_symmetry_equiv_pos_site_id
_symmetry_equiv_pos_as_xyz
1 x,y,z
2 -y,x-y,z
3 -x+y,-x,z
4 y,x,-z
5 -x,-x+y,-z
6 x-y,-y,-z
7 2/3+x,1/3+y,1/3+z
8 2/3-y,1/3+x-y,1/3+z
9 2/3-x+y,1/3-x,1/3+z
10 2/3+y,1/3+x,1/3-z
11 2/3-x,1/3-x+y,1/3-z
12 2/3+x-y,1/3-y,1/3-z
13 1/3+x,2/3+y,2/3+z
14 1/3-y,2/3+x-y,2/3+z
15 1/3-x+y,2/3-x,2/3+z
16 1/3+y,2/3+x,2/3-z
17 1/3-x,2/3-x+y,2/3-z
18 1/3+x-y,2/3-y,2/3-z
_cell_length_a                   9.459(4)
_cell_length_b                   9.459(4)
_cell_length_c                   34.558(14)
_cell_angle_alpha                90
_cell_angle_beta                 90
_cell_angle_gamma                120.0
_cell_volume                     2677.75
loop_
_atom_site_label
_atom_site_type_symbol
_atom_site_fract_x
_atom_site_fract_y
_atom_site_fract_z
Ag1 Ag 0.67731(6) 0.0000 0.00000
N1 N 0.6667 -0.2915(10) -0.1667
H1 H 0.6667 -0.3816 -0.1667
N2 N 0.6641(7) -0.1027(6) -0.05672(16)
C1 C 0.6625(7) -0.2237(7) -0.13048(18)
C2 C 0.7263(7) -0.0573(7) -0.1246(2)
H2 H 0.7702 0.0173 -0.1455
C3 C 0.7245(8) -0.0020(8) -0.0872(2)
H3 H 0.7678 0.1117 -0.0832
C4 C 0.6063(8) -0.2632(7) -0.0625(2)
H4 H 0.5663 -0.3355 -0.041
C5 C 0.6038(8) -0.3253(8) -0.0986(2)
H5 H 0.5612 -0.4393 -0.1017
Ag1N Ag 0.65602(6) -0.01064(6) -0.33333
Ag1G Ag 0.6667 0.01064(6) 0.33333
Ag1G_2 Ag 0.6667 0.01064(6) -0.66667
N1E N 0.9582(10) 0.2915(10) 0.1667
N1N N 0.3751(10) -0.0000 -0.5000
H1E H 1.0483 0.3816 0.1667
H1N H 0.2850 -0.0000 -0.5000
N2P N 0.6692(7) -0.1001(9) -0.27661(16)
N2E N 0.7668(9) 0.1027(6) 0.05672(16)
N2G N 0.7694(6) 0.1001(9) 0.27661(16)
N2N N 0.5665(9) 0.0026(7) -0.39005(16)
N2I N 0.5640(6) -0.0026(7) -0.60995(16)
N2I_2 N 0.5640(6) -0.0026(7) 0.39005(16)
C1P C 0.6708(7) -0.2195(10) -0.20285(18)
C1E C 0.8862(10) 0.2237(7) 0.13048(18)
C1G C 0.8904(7) 0.2195(10) 0.20285(18)
C1N C 0.4471(10) 0.0042(7) -0.46381(18)
C1I C 0.4430(7) -0.0042(7) -0.53619(18)
C2P C 0.6070(7) -0.1169(10) -0.2087(2)
C2E C 0.7836(10) 0.0573(7) 0.1246(2)
C2G C 0.7240(7) 0.1169(10) 0.2087(2)
C2N C 0.5497(10) -0.0596(7) -0.4579(2)
C2I C 0.6094(7) 0.0596(7) -0.5421(2)
H2P H 0.5631 -0.0862 -0.1878
H2E H 0.7529 -0.0173 0.1455
H2G H 0.6494 0.0862 0.1878
H2N H 0.5804 -0.1035 -0.4788
H2I H 0.6840 0.1035 -0.5212
C3P C 0.6088(8) -0.0598(11) -0.2461(2)
C3E C 0.7265(11) 0.0020(8) 0.0872(2)
C3G C 0.6687(8) 0.0598(11) 0.2461(2)
C3N C 0.6068(11) -0.0578(8) -0.4205(2)
C3I C 0.6647(8) 0.0578(8) -0.5795(2)
H3P H 0.5655 0.0106 -0.2501
H3E H 0.6561 -0.1117 0.0832
H3G H 0.5550 -0.0106 0.2501
H3N H 0.6772 -0.1011 -0.4165
H3I H 0.7784 0.1011 -0.5835
C4P C 0.7270(8) -0.2028(11) -0.2708(2)
C4E C 0.8695(11) 0.2632(7) 0.0625(2)
C4G C 0.9299(7) 0.2028(11) 0.2708(2)
C4N C 0.4638(11) 0.0604(8) -0.3958(2)
C4I C 0.4035(7) -0.0604(8) -0.6042(2)
H4P H 0.7670 -0.2351 -0.292333
H4E H 0.9018 0.3355 0.041
H4G H 1.0022 0.2351 0.292333
H4N H 0.4315 0.1004 -0.374333
H4I H 0.3312 -0.1004 -0.625667
C5P C 0.7295(8) -0.2624(11) -0.2347(2)
C5E C 0.9291(11) 0.3253(8) 0.0986(2)
C5G C 0.9920(8) 0.2624(11) 0.2347(2)
C5N C 0.4042(11) 0.0629(8) -0.4319(2)
C5I C 0.3414(8) -0.0629(8) -0.5681(2)
H5P H 0.7721 -0.3338 -0.2316
H5E H 1.0005 0.4393 0.1017
H5G H 1.1060 0.3338 0.2316
H5N H 0.3328 0.1055 -0.4350
H5I H 0.2274 -0.1055 -0.5650
N3 N 0.6667 -0.6667 -0.1667
O1 O 0.7972(6) -0.5362(6) -0.1667
O1A O 0.5362(6) -0.6666(8) -0.1667
O1B O 0.6666(8) -0.7972(6) -0.1667
O2 O 0.6514(5) -0.5423(5) -0.02859(14)
N4 N 0.6667 -0.6667 -0.0287(3)
O2B O 0.8063(7) -0.6514(5) -0.02859(14)
O2A O 0.5423(5) -0.8063(7) -0.02859(14)
loop_
_geom_bond_atom_site_label_1
_geom_bond_atom_site_label_2
_geom_bond_site_symmetry_1
_geom_bond_site_symmetry_2
Ag1 N2 1_555 1_555
N1 H1 1_555 1_555
N2 C3 1_555 1_555
C1 N1 1_555 1_555
C2 C1 1_555 1_555
H2 C2 1_555 1_555
C3 C2 1_555 1_555
H3 C3 1_555 1_555
C4 N2 1_555 1_555
H4 C4 1_555 1_555
C5 C1 1_555 1_555
H5 C5 1_555 1_555
N3 O1 1_555 1_555
O2 N4 1_555 1_555
N4 O2B 1_555 1_555
Ag1N N2P 1_555 1_555
Ag1G N2G 1_555 1_555
Ag1G_2 N2I 1_555 1_555
N1E H1E 1_555 1_555
N1N H1N 1_555 1_555
N2P C3P 1_555 1_555
N2E Ag1 1_555 1_555
N2G C3G 1_555 1_555
N2N Ag1N 1_555 1_555
N2I C3I 1_555 1_555
N2I_2 Ag1G 1_555 1_555
C1P N1 1_555 1_555
C1E N1E 1_555 1_555
C1G N1E 1_555 1_555
C1N N1N 1_555 1_555
C1I N1N 1_555 1_555
C2P C1P 1_555 1_555
C2E C1E 1_555 1_555
C2G C1G 1_555 1_555
C2N C1N 1_555 1_555
C2I C1I 1_555 1_555
H2P C2P 1_555 1_555
H2E C2E 1_555 1_555
H2G C2G 1_555 1_555
H2N C2N 1_555 1_555
H2I C2I 1_555 1_555
C3P C2P 1_555 1_555
C3E N2E 1_555 1_555
C3G C2G 1_555 1_555
C3N N2N 1_555 1_555
C3I C2I 1_555 1_555
H3P C3P 1_555 1_555
H3E C3E 1_555 1_555
H3G C3G 1_555 1_555
H3N C3N 1_555 1_555
H3I C3I 1_555 1_555
C4P N2P 1_555 1_555
C4E N2E 1_555 1_555
C4G N2G 1_555 1_555
C4N N2N 1_555 1_555
C4I N2I 1_555 1_555
H4P C4P 1_555 1_555
H4E C4E 1_555 1_555
H4G C4G 1_555 1_555
H4N C4N 1_555 1_555
H4I C4I 1_555 1_555
C5P C1P 1_555 1_555
C5E C1E 1_555 1_555
C5G C1G 1_555 1_555
C5N C1N 1_555 1_555
C5I C1I 1_555 1_555
H5P C5P 1_555 1_555
H5E C5E 1_555 1_555
H5G C5G 1_555 1_555
H5N C5N 1_555 1_555
H5I C5I 1_555 1_555
O1A N3 1_555 1_555
O1B N3 1_555 1_555
O2A N4 1_555 1_555
C4 C5 1_555 1_555
C2E C3E 1_555 1_555
C2N C3N 1_555 1_555
C4P C5P 1_555 1_555
C4E C5E 1_555 1_555
C4G C5G 1_555 1_555
C4N C5N 1_555 1_555
C4I C5I 1_555 1_555

#END
