
#######################################################################
#
#                 Cambridge Crystallographic Data Centre
#                                CCDC 
#
#######################################################################
#
# If this CIF has been generated from an entry in the Cambridge 
# Structural Database, then it will include bibliographic, chemical, 
# crystal, experimental, refinement or atomic coordinate data resulting 
# from the CCDC's data processing and validation procedures.
#
#######################################################################

data_RENXUF
_symmetry_cell_setting           triclinic
_symmetry_space_group_name_H-M   'P -1'
_symmetry_Int_Tables_number      2
_space_group_name_Hall           '-P 1'
loop_
_symmetry_equiv_pos_site_id
_symmetry_equiv_pos_as_xyz
1 x,y,z
2 -x,-y,-z
_cell_length_a                   9.599(5)
_cell_length_b                   10.082(5)
_cell_length_c                   11.708(5)
_cell_angle_alpha                85.213(5)
_cell_angle_beta                 67.468(5)
_cell_angle_gamma                62.681(5)
_cell_volume                     923.93
loop_
_atom_site_label
_atom_site_type_symbol
_atom_site_fract_x
_atom_site_fract_y
_atom_site_fract_z
Cu1 Cu 0.79932(4) 0.33663(3) 0.72992(3)
N1 N 0.2878(3) 0.6033(3) 0.8041(3)
N2 N 0.7331(3) -0.1615(3) 1.2480(2)
N3 N 0.8923(3) -0.2694(3) 1.2271(2)
N4 N 0.9517(3) -0.2222(3) 1.2897(2)
O1 O 0.7679(3) -0.4826(2) 0.80495(19)
O2 O 0.8103(3) -0.3490(2) 0.64540(19)
O3 O 0.7934(3) 0.1426(2) 0.73117(19)
O4 O 0.6963(3) 0.2314(2) 0.9269(2)
O5 O 0.5651(3) 0.4393(2) 0.7296(2)
O6 O 0.8734(3) 0.3884(3) 0.5259(2)
H1 H 0.9801 0.3595 0.4589
H2 H 0.8518 0.4867 0.5407
C1 C 0.6824(3) -0.1623(3) 1.0554(3)
C2 C 0.7126(3) -0.2708(3) 0.9708(3)
H3 H 0.7054 -0.3575 0.9985
C3 C 0.7535(3) -0.2517(3) 0.8455(3)
C4 C 0.7659(3) -0.1225(3) 0.8042(3)
H4 H 0.7958 -0.1098 0.7201
C5 C 0.7339(3) -0.0125(3) 0.8884(3)
C6 C 0.6920(3) -0.0330(3) 1.0127(3)
H5 H 0.6699 0.0411 1.0689
C7 C 0.6317(4) -0.1842(4) 1.1915(3)
H6 H 0.5125 -0.1144 1.2358
H7 H 0.6445 -0.2852 1.2011
C8 C 0.8298(4) -0.0830(3) 1.3531(3)
C9 C 0.6889(4) -0.0421(3) 1.3244(3)
C10 C 0.5411(4) 0.0955(4) 1.3715(3)
H8 H 0.4480 0.1221 1.3508
C11 C 0.5420(4) 0.1884(4) 1.4497(3)
H9 H 0.4478 0.2821 1.4814
C12 C 0.6818(5) 0.1462(4) 1.4838(3)
H10 H 0.6755 0.2111 1.5397
C13 C 0.8270(4) 0.0112(4) 1.4362(3)
H11 H 0.9191 -0.0162 1.4582
C14 C 0.4391(4) 0.5381(4) 0.8090(3)
H12 H 0.4513 0.5682 0.8761
C15 C 0.2590(5) 0.5696(4) 0.6993(4)
H13 H 0.3664 0.5066 0.6345
H14 H 0.2011 0.6614 0.6685
H15 H 0.1906 0.5184 0.7258
C16 C 0.1413(5) 0.7192(5) 0.8999(4)
H16 H 0.0472 0.6971 0.9255
H17 H 0.1111 0.8147 0.8676
H18 H 0.1687 0.7224 0.9700
C17 C 0.7811(3) -0.3696(3) 0.7563(3)
C18 C 0.7411(3) 0.1313(3) 0.8472(3)
Cu1_2 Cu 0.79932(4) -0.66337(3) 0.72992(3)
Cu1A Cu 1.20068(4) -0.33663(3) 1.27008(3)
N4A N 1.0483(3) 0.2222(3) 0.7103(2)
O1_2 O 0.7679(3) 0.5174(2) 0.80495(19)
loop_
_geom_bond_atom_site_label_1
_geom_bond_atom_site_label_2
_geom_bond_site_symmetry_1
_geom_bond_site_symmetry_2
Cu1 O3 1_555 1_555
N1 C14 1_555 1_555
N2 N3 1_555 1_555
N3 N4 1_555 1_555
N4 C8 1_555 1_555
O1 C17 1_555 1_555
O2 C17 1_555 1_555
O3 C18 1_555 1_555
O4 Cu1 1_555 1_555
O5 Cu1 1_555 1_555
O6 Cu1 1_555 1_555
H1 O6 1_555 1_555
H2 O6 1_555 1_555
C1 C2 1_555 1_555
C2 H3 1_555 1_555
C3 C2 1_555 1_555
C4 C3 1_555 1_555
H4 C4 1_555 1_555
C5 C4 1_555 1_555
C6 C1 1_555 1_555
H5 C6 1_555 1_555
C7 N2 1_555 1_555
H6 C7 1_555 1_555
H7 C7 1_555 1_555
C8 C9 1_555 1_555
C9 N2 1_555 1_555
C10 C9 1_555 1_555
H8 C10 1_555 1_555
C11 C10 1_555 1_555
H9 C11 1_555 1_555
C12 C11 1_555 1_555
H10 C12 1_555 1_555
C13 C8 1_555 1_555
H11 C13 1_555 1_555
C14 O5 1_555 1_555
H12 C14 1_555 1_555
C15 N1 1_555 1_555
H13 C15 1_555 1_555
H14 C15 1_555 1_555
H15 C15 1_555 1_555
C16 N1 1_555 1_555
H16 C16 1_555 1_555
H17 C16 1_555 1_555
H18 C16 1_555 1_555
C17 C3 1_555 1_555
C18 O4 1_555 1_555
Cu1_2 O1 1_555 1_555
Cu1A N4 1_555 1_555
N4A Cu1 1_555 1_555
O1_2 Cu1 1_555 1_555
C1 C7 1_555 1_555
C5 C6 1_555 1_555
C5 C18 1_555 1_555
C12 C13 1_555 1_555

#END
