
#######################################################################
#
#                 Cambridge Crystallographic Data Centre
#                                CCDC 
#
#######################################################################
#
# If this CIF has been generated from an entry in the Cambridge 
# Structural Database, then it will include bibliographic, chemical, 
# crystal, experimental, refinement or atomic coordinate data resulting 
# from the CCDC's data processing and validation procedures.
#
#######################################################################

data_RENXOZ
_symmetry_cell_setting           monoclinic
_symmetry_space_group_name_H-M   'P 21/c'
_symmetry_Int_Tables_number      14
_space_group_name_Hall           '-P 2ybc'
loop_
_symmetry_equiv_pos_site_id
_symmetry_equiv_pos_as_xyz
1 x,y,z
2 -x,1/2+y,1/2-z
3 -x,-y,-z
4 x,1/2-y,1/2+z
_cell_length_a                   8.347(5)
_cell_length_b                   11.127(5)
_cell_length_c                   16.888(5)
_cell_angle_alpha                90
_cell_angle_beta                 119.621(17)
_cell_angle_gamma                90
_cell_volume                     1363.53
loop_
_atom_site_label
_atom_site_type_symbol
_atom_site_fract_x
_atom_site_fract_y
_atom_site_fract_z
Zn1 Zn -0.11585(4) 0.65277(2) 0.485457(17)
N1 N 0.4914(3) 1.13166(19) 0.71556(14)
N2 N 0.3478(3) 1.2054(2) 0.67628(14)
N3 N 0.3324(3) 1.24162(18) 0.59830(13)
O1 O 0.1059(3) 0.75185(19) 0.57677(13)
O2 O -0.0985(3) 0.7195(2) 0.61796(14)
O3 O -0.0320(3) 0.89155(18) 0.89845(12)
O4 O 0.2124(2) 1.00087(16) 0.99114(10)
C1 C 0.3850(3) 0.9948(2) 0.79526(15)
C2 C 0.2947(3) 0.9164(2) 0.72172(16)
H1 H 0.3321 0.9114 0.6783
C3 C 0.1509(3) 0.8463(2) 0.71280(15)
C4 C 0.0962(3) 0.8525(2) 0.77838(16)
H2 H -0.0005 0.8050 0.7727
C5 C 0.1854(3) 0.9291(2) 0.85183(15)
C6 C 0.3303(3) 0.9993(2) 0.86015(15)
H3 H 0.3915 1.0500 0.9101
C7 C 0.5390(4) 1.0741(3) 0.80322(16)
H4 H 0.5647 1.1358 0.8486
H5 H 0.6497 1.0263 0.8236
C8 C 0.4686(4) 1.1886(2) 0.58671(17)
C9 C 0.5717(4) 1.1178(2) 0.66304(17)
C10 C 0.7249(4) 1.0539(3) 0.6743(2)
H6 H 0.7940 1.0061 0.7252
C11 C 0.7680(5) 1.0652(3) 0.6065(2)
H7 H 0.8703 1.0242 0.6121
C12 C 0.6645(5) 1.1360(3) 0.5286(2)
H8 H 0.6997 1.1410 0.4843
C13 C 0.5127(4) 1.1977(3) 0.51705(19)
H9 H 0.4419 1.2437 0.4652
C14 C 0.0464(4) 0.7678(2) 0.63129(16)
C15 C 0.1190(3) 0.9415(2) 0.91957(15)
Zn1A Zn 0.11585(4) 1.15277(2) 1.014543(17)
Zn1B Zn 0.11585(4) 1.34723(2) 0.514543(17)
Zn1C Zn -0.11585(4) 0.84723(2) 0.985457(17)
N3B N -0.3324(3) 0.75838(18) 0.40170(13)
O3C O -0.0320(3) 0.60845(18) 0.39845(12)
O4A O -0.2124(2) 0.50087(16) 0.50886(10)
loop_
_geom_bond_atom_site_label_1
_geom_bond_atom_site_label_2
_geom_bond_site_symmetry_1
_geom_bond_site_symmetry_2
Zn1 O1 1_555 1_555
N1 N2 1_555 1_555
N2 N3 1_555 1_555
N3 C8 1_555 1_555
O1 C14 1_555 1_555
O2 Zn1 1_555 1_555
O3 C15 1_555 1_555
O4 C15 1_555 1_555
C1 C2 1_555 1_555
C2 H1 1_555 1_555
C3 C2 1_555 1_555
C4 C3 1_555 1_555
H2 C4 1_555 1_555
C5 C4 1_555 1_555
C6 C1 1_555 1_555
H3 C6 1_555 1_555
C7 N1 1_555 1_555
H4 C7 1_555 1_555
H5 C7 1_555 1_555
C8 C9 1_555 1_555
C9 N1 1_555 1_555
C10 C9 1_555 1_555
H6 C10 1_555 1_555
C11 C10 1_555 1_555
H7 C11 1_555 1_555
C12 C11 1_555 1_555
H8 C12 1_555 1_555
C13 C8 1_555 1_555
H9 C13 1_555 1_555
C14 O2 1_555 1_555
C15 C5 1_555 1_555
Zn1A O4 1_555 1_555
Zn1B N3 1_555 1_555
Zn1C O3 1_555 1_555
N3B Zn1 1_555 1_555
O3C Zn1 1_555 1_555
O4A Zn1 1_555 1_555
C1 C7 1_555 1_555
C3 C14 1_555 1_555
C5 C6 1_555 1_555
C12 C13 1_555 1_555

#END
