
#######################################################################
#
#                 Cambridge Crystallographic Data Centre
#                                CCDC 
#
#######################################################################
#
# If this CIF has been generated from an entry in the Cambridge 
# Structural Database, then it will include bibliographic, chemical, 
# crystal, experimental, refinement or atomic coordinate data resulting 
# from the CCDC's data processing and validation procedures.
#
#######################################################################

data_REPGUQ
_symmetry_cell_setting           monoclinic
_symmetry_space_group_name_H-M   'P 21/n'
_symmetry_Int_Tables_number      14
_space_group_name_Hall           '-P 2yn'
loop_
_symmetry_equiv_pos_site_id
_symmetry_equiv_pos_as_xyz
1 x,y,z
2 1/2-x,1/2+y,1/2-z
3 -x,-y,-z
4 1/2+x,1/2-y,1/2+z
_cell_length_a                   9.5487(6)
_cell_length_b                   21.2714(13)
_cell_length_c                   15.0618(10)
_cell_angle_alpha                90
_cell_angle_beta                 100.452(2)
_cell_angle_gamma                90
_cell_volume                     3008.5
loop_
_atom_site_label
_atom_site_type_symbol
_atom_site_fract_x
_atom_site_fract_y
_atom_site_fract_z
Re1 Re 0.344262(8) 0.217055(4) 0.345518(5)
K1 K -0.19933(5) 0.126783(19) 0.28331(3)
N1 N 0.27403(18) 0.30440(8) 0.29138(11)
N2 N 0.48023(19) 0.28293(7) 0.42082(11)
O1 O 0.07725(16) 0.14156(7) 0.26233(11)
O2 O -0.15331(15) 0.25418(6) 0.27537(9)
O3 O -0.27978(15) 0.18877(6) 0.11621(9)
O4 O -0.26198(16) 0.05431(6) 0.12340(9)
O5 O -0.26065(16) 0.00039(6) 0.29568(9)
O6 O -0.14288(16) 0.06522(6) 0.45536(9)
O7 O -0.14412(16) 0.19734(6) 0.44271(9)
O8 O 0.3894(2) 0.11365(8) 0.49029(11)
C1 C 0.4632(2) 0.34664(9) 0.39596(12)
O9 O 0.50993(16) 0.13664(7) 0.23263(11)
C2 C 0.1557(2) 0.31442(10) 0.22458(13)
H1 H 0.1019 0.2788 0.2004
C3 C 0.1122(2) 0.37144(10) 0.19172(14)
H2 H 0.0287 0.3748 0.1468
C4 C 0.1901(2) 0.42697(10) 0.22356(13)
C5 C 0.1415(2) 0.49023(10) 0.18509(14)
H3 H 0.0531 0.5021 0.2053
H4 H 0.1245 0.4882 0.1190
H5 H 0.2151 0.5217 0.2059
C6 C 0.3074(2) 0.41879(10) 0.28854(13)
H6 H 0.3628 0.4545 0.3106
C7 C 0.3504(2) 0.35797(9) 0.32492(13)
C8 C 0.5828(2) 0.27004(9) 0.49546(13)
H7 H 0.5984 0.2272 0.5125
C9 C 0.6627(2) 0.31399(9) 0.54626(13)
H8 H 0.7306 0.3017 0.5975
C10 C 0.6449(2) 0.37913(10) 0.52254(13)
C11 C 0.7269(2) 0.42844(10) 0.58237(14)
H9 H 0.7047 0.4701 0.5556
H10 H 0.8292 0.4203 0.5883
H11 H 0.7001 0.4270 0.6421
C12 C 0.5481(2) 0.39348(9) 0.44757(13)
H12 H 0.5368 0.4361 0.4290
C13 C 0.1781(2) 0.17123(10) 0.29295(14)
C14 C -0.2349(3) 0.28440(9) 0.19845(14)
H13 H -0.2026 0.3284 0.1948
H14 H -0.3368 0.2849 0.2036
C15 C -0.2156(2) 0.24911(9) 0.11543(13)
H15 H -0.2605 0.2726 0.0609
H16 H -0.1129 0.2445 0.1140
C16 C -0.2502(2) 0.15027(10) 0.04414(13)
H17 H -0.1466 0.1423 0.0515
H18 H -0.2819 0.1716 -0.0144
C17 C -0.3284(2) 0.08955(10) 0.04634(14)
H19 H -0.4292 0.0979 0.0500
H20 H -0.3259 0.0653 -0.0095
C18 C -0.3393(3) -0.00101(11) 0.13628(15)
H21 H -0.3497 -0.0279 0.0818
H22 H -0.4357 0.0103 0.1467
C19 C -0.2597(3) -0.03577(10) 0.21651(15)
H23 H -0.3052 -0.0771 0.2221
H24 H -0.1603 -0.0432 0.2086
C20 C -0.1902(3) -0.03074(10) 0.37517(15)
H25 H -0.0871 -0.0341 0.3742
H26 H -0.2290 -0.0737 0.3779
C21 C -0.2129(3) 0.00616(10) 0.45596(14)
H27 H -0.3161 0.0127 0.4541
H28 H -0.1737 -0.0171 0.5119
C22 C -0.1727(2) 0.10527(10) 0.52579(13)
H29 H -0.1452 0.0842 0.5850
H30 H -0.2759 0.1147 0.5164
C23 C -0.0899(2) 0.16486(10) 0.52441(14)
H31 H -0.0997 0.1913 0.5770
H32 H 0.0124 0.1552 0.5276
C24 C -0.0668(2) 0.25373(9) 0.43371(14)
H33 H 0.0296 0.2434 0.4226
H34 H -0.0569 0.2788 0.4898
C25 C -0.1473(2) 0.29050(9) 0.35571(13)
H35 H -0.2449 0.2995 0.3659
H36 H -0.0988 0.3310 0.3498
C26 C 0.4484(2) 0.16917(10) 0.27509(14)
C27 C 0.3746(3) 0.15286(11) 0.43538(14)
K1_2 K 0.80067(5) 0.126783(19) 0.28331(3)
O9_2 O -0.49007(16) 0.13664(7) 0.23263(11)
loop_
_geom_bond_atom_site_label_1
_geom_bond_atom_site_label_2
_geom_bond_site_symmetry_1
_geom_bond_site_symmetry_2
Re1 N1 1_555 1_555
K1 O1 1_555 1_555
N1 C2 1_555 1_555
N2 Re1 1_555 1_555
O1 C13 1_555 1_555
O2 K1 1_555 1_555
O3 K1 1_555 1_555
O4 K1 1_555 1_555
O5 K1 1_555 1_555
O6 K1 1_555 1_555
O7 K1 1_555 1_555
O8 C27 1_555 1_555
C1 N2 1_555 1_555
O9 C26 1_555 1_555
C2 H1 1_555 1_555
C3 C2 1_555 1_555
H2 C3 1_555 1_555
C4 C3 1_555 1_555
C5 C4 1_555 1_555
H3 C5 1_555 1_555
H4 C5 1_555 1_555
H5 C5 1_555 1_555
C6 C4 1_555 1_555
H6 C6 1_555 1_555
C7 N1 1_555 1_555
C8 N2 1_555 1_555
H7 C8 1_555 1_555
C9 C8 1_555 1_555
H8 C9 1_555 1_555
C10 C9 1_555 1_555
C11 C10 1_555 1_555
H9 C11 1_555 1_555
H10 C11 1_555 1_555
H11 C11 1_555 1_555
C12 C1 1_555 1_555
H12 C12 1_555 1_555
C13 Re1 1_555 1_555
C14 O2 1_555 1_555
H13 C14 1_555 1_555
H14 C14 1_555 1_555
C15 O3 1_555 1_555
H15 C15 1_555 1_555
H16 C15 1_555 1_555
C16 O3 1_555 1_555
H17 C16 1_555 1_555
H18 C16 1_555 1_555
C17 O4 1_555 1_555
H19 C17 1_555 1_555
H20 C17 1_555 1_555
C18 O4 1_555 1_555
H21 C18 1_555 1_555
H22 C18 1_555 1_555
C19 O5 1_555 1_555
H23 C19 1_555 1_555
H24 C19 1_555 1_555
C20 O5 1_555 1_555
H25 C20 1_555 1_555
H26 C20 1_555 1_555
C21 O6 1_555 1_555
H27 C21 1_555 1_555
H28 C21 1_555 1_555
C22 O6 1_555 1_555
H29 C22 1_555 1_555
H30 C22 1_555 1_555
C23 O7 1_555 1_555
H31 C23 1_555 1_555
H32 C23 1_555 1_555
C24 O7 1_555 1_555
H33 C24 1_555 1_555
H34 C24 1_555 1_555
C25 O2 1_555 1_555
H35 C25 1_555 1_555
H36 C25 1_555 1_555
C26 Re1 1_555 1_555
C27 Re1 1_555 1_555
K1_2 O9 1_555 1_555
O9_2 K1 1_555 1_555
C1 C7 1_555 1_555
C6 C7 1_555 1_555
C10 C12 1_555 1_555
C14 C15 1_555 1_555
C16 C17 1_555 1_555
C18 C19 1_555 1_555
C20 C21 1_555 1_555
C22 C23 1_555 1_555
C24 C25 1_555 1_555

#END
