
#######################################################################
#
#                 Cambridge Crystallographic Data Centre
#                                CCDC 
#
#######################################################################
#
# If this CIF has been generated from an entry in the Cambridge 
# Structural Database, then it will include bibliographic, chemical, 
# crystal, experimental, refinement or atomic coordinate data resulting 
# from the CCDC's data processing and validation procedures.
#
#######################################################################

data_REPGAW
_symmetry_cell_setting           triclinic
_symmetry_space_group_name_H-M   'P -1'
_symmetry_Int_Tables_number      2
_space_group_name_Hall           '-P 1'
loop_
_symmetry_equiv_pos_site_id
_symmetry_equiv_pos_as_xyz
1 x,y,z
2 -x,-y,-z
_cell_length_a                   9.534(3)
_cell_length_b                   11.142(5)
_cell_length_c                   12.049(7)
_cell_angle_alpha                67.25(5)
_cell_angle_beta                 76.51(4)
_cell_angle_gamma                85.53(3)
_cell_volume                     1147.69
loop_
_atom_site_label
_atom_site_type_symbol
_atom_site_fract_x
_atom_site_fract_y
_atom_site_fract_z
C1 C 0.2475(8) 0.3194(7) -0.0046(7)
C2 C -0.1140(7) -0.1478(7) 0.2692(7)
C3 C 0.4577(8) 0.3072(7) 0.0762(7)
H1 H 0.547 0.2711 0.088
C4 C -0.2955(9) -0.0794(8) 0.4032(8)
H2 H -0.3526 -0.0945 0.4814
C5 C 0.4021(7) 0.3945(7) 0.1241(7)
C6 C -0.3099(8) 0.0290(7) 0.3102(8)
C7 C 0.2660(7) 0.4561(7) 0.1030(7)
C8 C -0.2245(7) 0.0592(7) 0.1902(7)
C9 C 0.4524(9) 0.1850(7) -0.0549(8)
H3 H 0.3804 0.1276 -0.0539
H4 H 0.5234 0.1317 -0.0119
C10 C -0.1798(11) -0.2907(9) 0.4901(8)
H5 H -0.1812 -0.2693 0.5612
H6 H -0.0869 -0.3283 0.4698
C11 C 0.5256(10) 0.2651(10) -0.1876(10)
H7 H 0.461 0.3332 -0.2235
H8 H 0.6116 0.3065 -0.1879
C12 C -0.2982(13) -0.3906(10) 0.5235(11)
H9 H -0.2915 -0.4602 0.6012
H10 H -0.3908 -0.3494 0.5363
C13 C 0.5678(13) 0.1842(13) -0.2675(12)
H11 H 0.4877 0.1265 -0.2504
H12 H 0.5819 0.2427 -0.3534
C14 C -0.2949(12) -0.4478(11) 0.4322(12)
H13 H -0.2896 -0.377 0.3528
H14 H -0.3864 -0.4926 0.4532
C15 C 0.6945(12) 0.1076(11) -0.2516(11)
H15 H 0.6815 0.0494 -0.1657
H16 H 0.7756 0.165 -0.2705
C16 C -0.1767(14) -0.5416(10) 0.4161(11)
H17 H -0.0841 -0.4966 0.3821
H18 H -0.1734 -0.6103 0.4952
C17 C 0.7304(13) 0.0274(12) -0.3317(12)
H19 H 0.6524 -0.0345 -0.3087
H20 H 0.737 0.0847 -0.4172
C18 C -0.2089(18) -0.5983(12) 0.3293(13)
H21 H -0.3052 -0.6365 0.3615
H22 H -0.2078 -0.5288 0.2498
C19 C 0.8639(14) -0.0427(14) -0.3207(15)
H23 H 0.9429 0.0123 -0.3781
H24 H 0.86 -0.119 -0.3385
H25 H 0.8775 -0.0677 -0.2383
C20 C -0.1091(18) -0.6948(12) 0.3125(13)
H26 H -0.0125 -0.6621 0.2932
H27 H -0.124 -0.7159 0.246
H28 H -0.1233 -0.7715 0.3869
N1 N 0.3833(6) 0.2702(6) 0.0090(6)
N2 N -0.1965(7) -0.1708(6) 0.3853(6)
N3 N 0.1966(6) 0.4136(5) 0.0388(6)
N4 N -0.1300(6) -0.0335(6) 0.1748(6)
O1 O 0.1812(5) 0.2798(5) -0.0606(6)
O2 O -0.0246(6) -0.2298(5) 0.2522(5)
O3 O 0.2200(5) 0.5454(5) 0.1395(5)
O4 O -0.2369(5) 0.1629(5) 0.1031(5)
F1 F 0.4745(5) 0.4315(5) 0.1889(5)
F2 F -0.4101(5) 0.1176(4) 0.3317(5)
Ag1 Ag 0.00000 0.50000 0.00000
Ag2 Ag 0.00000 0.00000 0.00000
Ag3 Ag -0.05948(6) 0.28821(6) -0.07763(6)
C1A C -0.2475(8) -0.3194(7) 0.0046(7)
C2A C 0.1140(7) 0.1478(7) -0.2692(7)
C3A C -0.4577(8) -0.3072(7) -0.0762(7)
H1A H -0.547 -0.2711 -0.088
C4A C 0.2955(9) 0.0794(8) -0.4032(8)
H2A H 0.3526 0.0945 -0.4814
C5A C -0.4021(7) -0.3945(7) -0.1241(7)
C6A C 0.3099(8) -0.0290(7) -0.3102(8)
C7A C -0.2660(7) -0.4561(7) -0.1030(7)
C8A C 0.2245(7) -0.0592(7) -0.1902(7)
C9A C -0.4524(9) -0.1850(7) 0.0549(8)
H3A H -0.3804 -0.1276 0.0539
H4A H -0.5234 -0.1317 0.0119
C10A C 0.1798(11) 0.2907(9) -0.4901(8)
H5A H 0.1812 0.2693 -0.5612
H6A H 0.0869 0.3283 -0.4698
C11A C -0.5256(10) -0.2651(10) 0.1876(10)
H7A H -0.461 -0.3332 0.2235
H8A H -0.6116 -0.3065 0.1879
C12A C 0.2982(13) 0.3906(10) -0.5235(11)
H9A H 0.2915 0.4602 -0.6012
H10A H 0.3908 0.3494 -0.5363
C13A C -0.5678(13) -0.1842(13) 0.2675(12)
H11A H -0.4877 -0.1265 0.2504
H12A H -0.5819 -0.2427 0.3534
C14A C 0.2949(12) 0.4478(11) -0.4322(12)
H13A H 0.2896 0.377 -0.3528
H14A H 0.3864 0.4926 -0.4532
C15A C -0.6945(12) -0.1076(11) 0.2516(11)
H15A H -0.6815 -0.0494 0.1657
H16A H -0.7756 -0.165 0.2705
C16A C 0.1767(14) 0.5416(10) -0.4161(11)
H17A H 0.0841 0.4966 -0.3821
H18A H 0.1734 0.6103 -0.4952
C17A C -0.7304(13) -0.0274(12) 0.3317(12)
H19A H -0.6524 0.0345 0.3087
H20A H -0.737 -0.0847 0.4172
C18A C 0.2089(18) 0.5983(12) -0.3293(13)
H21A H 0.3052 0.6365 -0.3615
H22A H 0.2078 0.5288 -0.2498
C19A C -0.8639(14) 0.0427(14) 0.3207(15)
H23A H -0.9429 -0.0123 0.3781
H24A H -0.86 0.119 0.3385
H25A H -0.8775 0.0677 0.2383
C20A C 0.1091(18) 0.6948(12) -0.3125(13)
H26A H 0.0125 0.6621 -0.2932
H27A H 0.124 0.7159 -0.246
H28A H 0.1233 0.7715 -0.3869
N1A N -0.3833(6) -0.2702(6) -0.0090(6)
N2A N 0.1965(7) 0.1708(6) -0.3853(6)
N3A N -0.1966(6) -0.4136(5) -0.0388(6)
N4A N 0.1300(6) 0.0335(6) -0.1748(6)
O1A O -0.1812(5) -0.2798(5) 0.0606(6)
O2A O 0.0246(6) 0.2298(5) -0.2522(5)
O3A O -0.2200(5) -0.5454(5) -0.1395(5)
O4A O 0.2369(5) -0.1629(5) -0.1031(5)
F1A F -0.4745(5) -0.4315(5) -0.1889(5)
F2A F 0.4101(5) -0.1176(4) -0.3317(5)
Ag3A Ag 0.05948(6) -0.28821(6) 0.07763(6)
N3A_2 N -0.1966(6) 0.5864(5) -0.0388(6)
O3_2 O 0.2200(5) -0.4546(5) 0.1395(5)
O3A_2 O -0.2200(5) 0.4546(5) -0.1395(5)
Ag1_2 Ag 0.00000 -0.50000 0.00000
Ag3_2 Ag -0.05948(6) -0.71179(6) -0.07763(6)
Ag3A_2 Ag 0.05948(6) 0.71179(6) 0.07763(6)
loop_
_geom_bond_atom_site_label_1
_geom_bond_atom_site_label_2
_geom_bond_site_symmetry_1
_geom_bond_site_symmetry_2
C1 N1 1_555 1_555
C2 N2 1_555 1_555
C3 H1 1_555 1_555
C4 H2 1_555 1_555
C5 C3 1_555 1_555
C6 C4 1_555 1_555
C7 C5 1_555 1_555
C8 C6 1_555 1_555
C9 H3 1_555 1_555
H4 C9 1_555 1_555
C10 H5 1_555 1_555
H6 C10 1_555 1_555
C11 C9 1_555 1_555
H7 C11 1_555 1_555
H8 C11 1_555 1_555
C12 C10 1_555 1_555
H9 C12 1_555 1_555
H10 C12 1_555 1_555
C13 C11 1_555 1_555
H11 C13 1_555 1_555
H12 C13 1_555 1_555
C14 C12 1_555 1_555
H13 C14 1_555 1_555
H14 C14 1_555 1_555
C15 C13 1_555 1_555
H15 C15 1_555 1_555
H16 C15 1_555 1_555
C16 C14 1_555 1_555
H17 C16 1_555 1_555
H18 C16 1_555 1_555
C17 C15 1_555 1_555
H19 C17 1_555 1_555
H20 C17 1_555 1_555
C18 C16 1_555 1_555
H21 C18 1_555 1_555
H22 C18 1_555 1_555
C19 C17 1_555 1_555
H23 C19 1_555 1_555
H24 C19 1_555 1_555
H25 C19 1_555 1_555
C20 C18 1_555 1_555
H26 C20 1_555 1_555
H27 C20 1_555 1_555
H28 C20 1_555 1_555
N1 C3 1_555 1_555
N2 C4 1_555 1_555
N3 C1 1_555 1_555
N4 C2 1_555 1_555
O1 C1 1_555 1_555
O2 C2 1_555 1_555
O3 C7 1_555 1_555
O4 C8 1_555 1_555
F1 C5 1_555 1_555
F2 C6 1_555 1_555
Ag1 N3 1_555 1_555
Ag2 N4 1_555 1_555
Ag3 O1 1_555 1_555
C1A N1A 1_555 1_555
C2A N2A 1_555 1_555
C3A H1A 1_555 1_555
C4A H2A 1_555 1_555
C5A C3A 1_555 1_555
C6A C4A 1_555 1_555
C7A C5A 1_555 1_555
C8A C6A 1_555 1_555
C9A H3A 1_555 1_555
H4A C9A 1_555 1_555
C10A H5A 1_555 1_555
H6A C10A 1_555 1_555
C11A C9A 1_555 1_555
H7A C11A 1_555 1_555
H8A C11A 1_555 1_555
C12A C10A 1_555 1_555
H9A C12A 1_555 1_555
H10A C12A 1_555 1_555
C13A C11A 1_555 1_555
H11A C13A 1_555 1_555
H12A C13A 1_555 1_555
C14A C12A 1_555 1_555
H13A C14A 1_555 1_555
H14A C14A 1_555 1_555
C15A C13A 1_555 1_555
H15A C15A 1_555 1_555
H16A C15A 1_555 1_555
C16A C14A 1_555 1_555
H17A C16A 1_555 1_555
H18A C16A 1_555 1_555
C17A C15A 1_555 1_555
H19A C17A 1_555 1_555
H20A C17A 1_555 1_555
C18A C16A 1_555 1_555
H21A C18A 1_555 1_555
H22A C18A 1_555 1_555
C19A C17A 1_555 1_555
H23A C19A 1_555 1_555
H24A C19A 1_555 1_555
H25A C19A 1_555 1_555
C20A C18A 1_555 1_555
H26A C20A 1_555 1_555
H27A C20A 1_555 1_555
H28A C20A 1_555 1_555
N1A C3A 1_555 1_555
N2A C4A 1_555 1_555
N3A C1A 1_555 1_555
N4A Ag2 1_555 1_555
O1A C1A 1_555 1_555
O2A Ag3 1_555 1_555
O3A C7A 1_555 1_555
O4A C8A 1_555 1_555
F1A C5A 1_555 1_555
F2A C6A 1_555 1_555
Ag3A O2 1_555 1_555
N3A_2 Ag1 1_555 1_555
O3_2 Ag3A 1_555 1_555
O3A_2 Ag3 1_555 1_555
Ag1_2 N3A 1_555 1_555
Ag3_2 O3A 1_555 1_555
Ag3A_2 O3 1_555 1_555
C7 N3 1_555 1_555
C8 N4 1_555 1_555
C9 N1 1_555 1_555
C10 N2 1_555 1_555
O4 Ag3 1_555 1_555
C2A N4A 1_555 1_555
C2A O2A 1_555 1_555
C7A N3A 1_555 1_555
C8A N4A 1_555 1_555
C9A N1A 1_555 1_555
C10A N2A 1_555 1_555
O1A Ag3A 1_555 1_555
O4A Ag3A 1_555 1_555

#END
