
#######################################################################
#
#                 Cambridge Crystallographic Data Centre
#                                CCDC 
#
#######################################################################
#
# If this CIF has been generated from an entry in the Cambridge 
# Structural Database, then it will include bibliographic, chemical, 
# crystal, experimental, refinement or atomic coordinate data resulting 
# from the CCDC's data processing and validation procedures.
#
#######################################################################

data_REPKII
_symmetry_cell_setting           monoclinic
_symmetry_space_group_name_H-M   'C 2/c'
_symmetry_Int_Tables_number      15
_space_group_name_Hall           '-C 2yn'
loop_
_symmetry_equiv_pos_site_id
_symmetry_equiv_pos_as_xyz
1 x,y,z
2 -x,y,1/2-z
3 1/2+x,1/2+y,z
4 1/2-x,1/2+y,1/2-z
5 -x,-y,-z
6 x,-y,1/2+z
7 1/2-x,1/2-y,-z
8 1/2+x,1/2-y,1/2+z
_cell_length_a                   35.6293(18)
_cell_length_b                   10.8722(5)
_cell_length_c                   22.8313(12)
_cell_angle_alpha                90
_cell_angle_beta                 127.9730(10)
_cell_angle_gamma                90
_cell_volume                     6971.84
loop_
_atom_site_label
_atom_site_type_symbol
_atom_site_fract_x
_atom_site_fract_y
_atom_site_fract_z
Zn1 Zn 0.82612(2) 1.20690(5) 1.01635(3)
Zn2 Zn 1.0000 1.06050(8) 0.7500
Zn3 Zn 0.5000 0.12866(10) 0.7500
N1 N 0.81843(14) 1.7217(4) 0.5888(2)
N2 N 0.83529(14) 1.6248(4) 0.6871(2)
N3 N 0.82375(16) 1.3354(4) 0.9520(2)
N4 N 0.83633(15) 1.4181(4) 0.8777(2)
N5 N 0.97888(16) 1.1585(4) 0.7982(2)
N6 N 0.94054(15) 1.2785(4) 0.8223(2)
O1 O 0.78593(13) 1.0608(3) 0.9806(2)
O2 O 0.79398(15) 1.0641(4) 0.8927(2)
O3 O 0.78125(16) 0.9318(4) 0.7952(2)
H1 H 0.7859 0.9787 0.8272
O4 O 0.76798(16) 0.7362(4) 0.7704(3)
O5 O 0.55356(14) 0.2291(4) 0.7786(2)
O6 O 0.53305(17) 0.2511(5) 0.6654(3)
O7 O 0.54397(13) 0.4577(4) 0.8369(2)
O8 O 0.60941(13) 0.3624(4) 0.9277(2)
O9 O 0.48366(19) 0.0134(5) 0.6741(3)
O10 O 0.41143(16) -0.0585(4) 0.6252(3)
O11 O 0.36574(18) -0.2284(5) 0.5399(3)
H2 H 0.3816 -0.1711 0.5680
O12 O 0.36462(19) -0.3433(5) 0.4609(3)
C1 C 0.79590(18) 1.7813(5) 0.6135(3)
H3 H 0.7764 1.8534 0.5911
C2 C 0.80544(18) 1.7220(5) 0.6733(3)
H4 H 0.7943 1.7419 0.6998
C3 C 0.84158(17) 1.6287(5) 0.6344(3)
H5 H 0.8605 1.5710 0.6308
C4 C 0.8402(2) 1.3156(5) 0.9148(3)
H6 H 0.8530 1.2387 0.9137
C5 C 0.80821(19) 1.4549(5) 0.9378(3)
H7 H 0.7945 1.4955 0.9579
C6 C 0.81534(19) 1.5062(5) 0.8917(3)
H8 H 0.8075 1.5859 0.8730
C7 C 0.94828(19) 1.2488(5) 0.7733(3)
H9 H 0.9336 1.2892 0.7265
C8 C 0.9923(2) 1.1289(5) 0.8675(3)
H10 H 1.0149 1.0666 0.8998
C9 C 0.96839(19) 1.2015(5) 0.8827(3)
H11 H 0.9704 1.1999 0.9252
C10 C 0.85419(18) 1.5340(5) 0.7441(3)
C11 C 0.83567(17) 1.5214(5) 0.7825(3)
H12 H 0.8107 1.5745 0.7719
C12 C 0.85382(18) 1.4311(5) 0.8359(3)
C13 C 0.88899(18) 1.3504(5) 0.8503(3)
H13 H 0.9014 1.2878 0.8876
C14 C 0.90608(17) 1.3641(5) 0.8101(3)
C15 C 0.89045(18) 1.4573(5) 0.7589(3)
H14 H 0.9038 1.4687 0.7349
C16 C 0.77940(18) 1.0140(5) 0.9240(3)
C17 C 0.7669(2) 0.8266(5) 0.8011(3)
C18 C 0.5556(2) 0.2821(6) 0.7304(3)
C19 C 0.58548(19) 0.4175(5) 0.8665(3)
C20 C 0.75123(17) 0.8951(5) 0.8950(3)
C21 C 0.74536(18) 0.8155(5) 0.8408(3)
C22 C 0.71524(18) 0.7129(5) 0.8184(3)
H15 H 0.7116 0.6582 0.7823
C23 C 0.69024(18) 0.6868(5) 0.8457(3)
C24 C 0.69814(19) 0.7644(5) 0.9010(3)
H16 H 0.6826 0.7478 0.9226
C25 C 0.72793(19) 0.8646(5) 0.9247(3)
H17 H 0.7329 0.9159 0.9631
C26 C 0.58992(18) 0.3884(5) 0.7601(3)
C27 C 0.60625(18) 0.4463(5) 0.8270(3)
C28 C 0.63951(18) 0.5408(5) 0.8550(3)
H18 H 0.6509 0.5788 0.9012
C29 C 0.65660(17) 0.5826(5) 0.8173(3)
C30 C 0.63898(19) 0.5251(5) 0.7500(3)
H19 H 0.6495 0.5527 0.7223
C31 C 0.6065(2) 0.4293(6) 0.7226(3)
H20 H 0.5954 0.3904 0.6767
C32 C 0.4458(2) -0.0378(6) 0.6231(4)
C33 C 0.3798(2) -0.2545(7) 0.5008(4)
C34 C 0.4435(2) -0.0780(6) 0.5577(3)
C35 C 0.4159(2) -0.1688(6) 0.5052(3)
C36 C 0.4206(2) -0.1895(7) 0.4507(4)
H21 H 0.4008 -0.2504 0.4135
C37 C 0.4528(2) -0.1253(6) 0.4477(3)
H22 H 0.4552 -0.1427 0.4102
C38 C 0.4817(2) -0.0349(6) 0.4999(3)
C39 C 0.4768(2) -0.0125(6) 0.5542(4)
H23 H 0.4966 0.0489 0.5912
O9D O 0.51634(19) -0.0134(5) 0.3259(3)
O10D O 0.58857(16) 0.0585(4) 0.3748(3)
O11D O 0.63426(18) 0.2284(5) 0.4601(3)
H2D H 0.6184 0.1711 0.4320
O12D O 0.63538(19) 0.3433(5) 0.5391(3)
C32D C 0.5542(2) 0.0378(6) 0.3769(4)
C33D C 0.6202(2) 0.2545(7) 0.4992(4)
C34D C 0.5565(2) 0.0780(6) 0.4423(3)
C35D C 0.5841(2) 0.1688(6) 0.4948(3)
C36D C 0.5794(2) 0.1895(7) 0.5493(4)
H21D H 0.5992 0.2504 0.5865
C37D C 0.5472(2) 0.1253(6) 0.5523(3)
H22D H 0.5448 0.1427 0.5898
C38D C 0.5183(2) 0.0349(6) 0.5001(3)
C39D C 0.5232(2) 0.0125(6) 0.4458(4)
H23D H 0.5034 -0.0489 0.4088
Zn1A Zn 0.17388(2) 1.20690(5) 0.48365(3)
N1A N 0.18157(14) 1.7217(4) 0.9112(2)
N2A N 0.16471(14) 1.6248(4) 0.8129(2)
N3A N 0.17625(16) 1.3354(4) 0.5480(2)
N4A N 0.16367(15) 1.4181(4) 0.6223(2)
N5A N 0.02112(16) 1.1585(4) 0.7018(2)
N6A N 0.05946(15) 1.2785(4) 0.6777(2)
O1A O 0.21407(13) 1.0608(3) 0.5194(2)
O2A O 0.20602(15) 1.0641(4) 0.6073(2)
O3A O 0.21875(16) 0.9318(4) 0.7048(2)
H1A H 0.2141 0.9787 0.6728
O4A O 0.23202(16) 0.7362(4) 0.7296(3)
O5A O 0.44644(14) 0.2291(4) 0.7214(2)
O6A O 0.46695(17) 0.2511(5) 0.8346(3)
O7A O 0.45603(13) 0.4577(4) 0.6631(2)
O8A O 0.39059(13) 0.3624(4) 0.5723(2)
C1A C 0.20410(18) 1.7813(5) 0.8865(3)
H3A H 0.2236 1.8534 0.9089
C2A C 0.19456(18) 1.7220(5) 0.8267(3)
H4A H 0.2057 1.7419 0.8002
C3A C 0.15842(17) 1.6287(5) 0.8656(3)
H5A H 0.1395 1.5710 0.8692
C4A C 0.1598(2) 1.3156(5) 0.5852(3)
H6A H 0.1470 1.2387 0.5863
C5A C 0.19179(19) 1.4549(5) 0.5622(3)
H7A H 0.2055 1.4955 0.5421
C6A C 0.18466(19) 1.5062(5) 0.6083(3)
H8A H 0.1925 1.5859 0.6270
C7A C 0.05172(19) 1.2488(5) 0.7267(3)
H9A H 0.0664 1.2892 0.7735
C8A C 0.0077(2) 1.1289(5) 0.6325(3)
H10A H -0.0149 1.0666 0.6002
C9A C 0.03161(19) 1.2015(5) 0.6173(3)
H11A H 0.0296 1.1999 0.5748
C10A C 0.14581(18) 1.5340(5) 0.7559(3)
C11A C 0.16433(17) 1.5214(5) 0.7175(3)
H12A H 0.1893 1.5745 0.7281
C12A C 0.14618(18) 1.4311(5) 0.6641(3)
C13A C 0.11101(18) 1.3504(5) 0.6497(3)
H13A H 0.0986 1.2878 0.6124
C14A C 0.09392(17) 1.3641(5) 0.6899(3)
C15A C 0.10955(18) 1.4573(5) 0.7411(3)
H14A H 0.0962 1.4687 0.7651
C16A C 0.22060(18) 1.0140(5) 0.5760(3)
C17A C 0.2331(2) 0.8266(5) 0.6989(3)
C18A C 0.4444(2) 0.2821(6) 0.7696(3)
C19A C 0.41452(19) 0.4175(5) 0.6335(3)
C20A C 0.24877(17) 0.8951(5) 0.6050(3)
C21A C 0.25464(18) 0.8155(5) 0.6592(3)
C22A C 0.28476(18) 0.7129(5) 0.6816(3)
H15A H 0.2884 0.6582 0.7177
C23A C 0.30976(18) 0.6868(5) 0.6543(3)
C24A C 0.30186(19) 0.7644(5) 0.5990(3)
H16A H 0.3174 0.7478 0.5774
C25A C 0.27207(19) 0.8646(5) 0.5753(3)
H17A H 0.2671 0.9159 0.5369
C26A C 0.41008(18) 0.3884(5) 0.7399(3)
C27A C 0.39375(18) 0.4463(5) 0.6730(3)
C28A C 0.36049(18) 0.5408(5) 0.6450(3)
H18A H 0.3491 0.5788 0.5988
C29A C 0.34340(17) 0.5826(5) 0.6827(3)
C30A C 0.36102(19) 0.5251(5) 0.7500(3)
H19A H 0.3505 0.5527 0.7777
C31A C 0.3935(2) 0.4293(6) 0.7774(3)
H20A H 0.4046 0.3904 0.8233
Zn1D Zn 0.17388(2) 1.79310(5) 0.98365(3)
Zn1E Zn 0.82612(2) 1.79310(5) 0.51635(3)
Zn1F Zn 0.67388(2) 0.29310(5) 0.98365(3)
Zn1G Zn 0.32612(2) 0.29310(5) 0.51635(3)
Zn2_2 Zn 0.0000 1.06050(8) 0.7500
Zn2B Zn 0.5000 0.56050(8) 0.7500
Zn3D Zn 0.5000 -0.12866(10) 0.2500
N1D N 0.18157(14) 1.2783(4) 0.4112(2)
N1E N 0.81843(14) 1.2783(4) 1.0888(2)
N5A_2 N 1.02112(16) 1.1585(4) 0.7018(2)
O7B O 1.04397(13) 0.9577(4) 0.8369(2)
O7C O 0.95603(13) 0.9577(4) 0.6631(2)
O8F O 0.89059(13) 1.1376(4) 1.0723(2)
O8G O 0.10941(13) 1.1376(4) 0.4277(2)
O9A O 0.51634(19) 0.0134(5) 0.8259(3)
O13 O 0.4475(3) 0.3053(9) 0.5262(5)
O14 O 0.4944(6) 0.3867(17) 0.5362(8)
O15 O 0.3968(8) 0.4292(15) 0.4301(14)
O16 O 0.4122(10) 0.484(2) 0.4329(11)
loop_
_geom_bond_atom_site_label_1
_geom_bond_atom_site_label_2
_geom_bond_site_symmetry_1
_geom_bond_site_symmetry_2
Zn1 N3 1_555 1_555
Zn2 N5 1_555 1_555
Zn3 O5 1_555 1_555
N1 C1 1_555 1_555
N2 C2 1_555 1_555
N3 C4 1_555 1_555
N4 C4 1_555 1_555
N5 C7 1_555 1_555
N6 C7 1_555 1_555
O1 Zn1 1_555 1_555
O2 C16 1_555 1_555
O3 H1 1_555 1_555
O4 C17 1_555 1_555
O5 C18 1_555 1_555
O6 C18 1_555 1_555
O7 C19 1_555 1_555
O8 C19 1_555 1_555
O9 Zn3 1_555 1_555
O10 C32 1_555 1_555
O11 H2 1_555 1_555
O12 C33 1_555 1_555
C1 H3 1_555 1_555
C2 C1 1_555 1_555
H4 C2 1_555 1_555
C3 N1 1_555 1_555
H5 C3 1_555 1_555
C4 H6 1_555 1_555
C5 N3 1_555 1_555
H7 C5 1_555 1_555
C6 N4 1_555 1_555
H8 C6 1_555 1_555
C7 H9 1_555 1_555
C8 N5 1_555 1_555
H10 C8 1_555 1_555
C9 N6 1_555 1_555
H11 C9 1_555 1_555
C10 N2 1_555 1_555
C11 C10 1_555 1_555
H12 C11 1_555 1_555
C12 N4 1_555 1_555
C13 C12 1_555 1_555
H13 C13 1_555 1_555
C14 N6 1_555 1_555
C15 C10 1_555 1_555
H14 C15 1_555 1_555
C16 O1 1_555 1_555
C17 O3 1_555 1_555
C18 C26 1_555 1_555
C19 C27 1_555 1_555
C20 C16 1_555 1_555
C21 C17 1_555 1_555
C22 C21 1_555 1_555
H15 C22 1_555 1_555
C23 C22 1_555 1_555
C24 C23 1_555 1_555
H16 C24 1_555 1_555
C25 C20 1_555 1_555
H17 C25 1_555 1_555
C26 C27 1_555 1_555
C27 C28 1_555 1_555
C28 H18 1_555 1_555
C29 C23 1_555 1_555
C30 C29 1_555 1_555
H19 C30 1_555 1_555
C31 C26 1_555 1_555
H20 C31 1_555 1_555
C32 O9 1_555 1_555
C33 O11 1_555 1_555
C34 C32 1_555 1_555
C35 C33 1_555 1_555
C36 C35 1_555 1_555
H21 C36 1_555 1_555
C37 C36 1_555 1_555
H22 C37 1_555 1_555
C38 C37 1_555 1_555
C39 C34 1_555 1_555
H23 C39 1_555 1_555
O9D C32D 1_555 1_555
O10D C32D 1_555 1_555
O11D H2D 1_555 1_555
O12D C33D 1_555 1_555
C32D C34D 1_555 1_555
C33D O11D 1_555 1_555
C34D C35D 1_555 1_555
C35D C33D 1_555 1_555
C36D C35D 1_555 1_555
H21D C36D 1_555 1_555
C37D C36D 1_555 1_555
H22D C37D 1_555 1_555
C38D C38 1_555 1_555
C39D C34D 1_555 1_555
H23D C39D 1_555 1_555
Zn1A N3A 1_555 1_555
N1A C1A 1_555 1_555
N2A C2A 1_555 1_555
N3A C4A 1_555 1_555
N4A C4A 1_555 1_555
N5A C7A 1_555 1_555
N6A C7A 1_555 1_555
O1A Zn1A 1_555 1_555
O2A C16A 1_555 1_555
O3A H1A 1_555 1_555
O4A C17A 1_555 1_555
O5A Zn3 1_555 1_555
O6A C18A 1_555 1_555
O7A C19A 1_555 1_555
O8A C19A 1_555 1_555
C1A H3A 1_555 1_555
C2A C1A 1_555 1_555
H4A C2A 1_555 1_555
C3A N1A 1_555 1_555
H5A C3A 1_555 1_555
C4A H6A 1_555 1_555
C5A N3A 1_555 1_555
H7A C5A 1_555 1_555
C6A N4A 1_555 1_555
H8A C6A 1_555 1_555
C7A H9A 1_555 1_555
C8A N5A 1_555 1_555
H10A C8A 1_555 1_555
C9A N6A 1_555 1_555
H11A C9A 1_555 1_555
C10A N2A 1_555 1_555
C11A C10A 1_555 1_555
H12A C11A 1_555 1_555
C12A N4A 1_555 1_555
C13A C12A 1_555 1_555
H13A C13A 1_555 1_555
C14A N6A 1_555 1_555
C15A C10A 1_555 1_555
H14A C15A 1_555 1_555
C16A O1A 1_555 1_555
C17A O3A 1_555 1_555
C18A O5A 1_555 1_555
C19A C27A 1_555 1_555
C20A C16A 1_555 1_555
C21A C17A 1_555 1_555
C22A C21A 1_555 1_555
H15A C22A 1_555 1_555
C23A C22A 1_555 1_555
C24A C23A 1_555 1_555
H16A C24A 1_555 1_555
C25A C20A 1_555 1_555
H17A C25A 1_555 1_555
C26A C18A 1_555 1_555
C27A C26A 1_555 1_555
C28A C27A 1_555 1_555
H18A C28A 1_555 1_555
C29A C23A 1_555 1_555
C30A C29A 1_555 1_555
H19A C30A 1_555 1_555
C31A C26A 1_555 1_555
H20A C31A 1_555 1_555
Zn1D N1A 1_555 1_555
Zn1E N1 1_555 1_555
Zn1F O8 1_555 1_555
Zn1G O8A 1_555 1_555
Zn2_2 N5A 1_555 1_555
Zn2B O7 1_555 1_555
Zn3D O9D 1_555 1_555
N1D Zn1A 1_555 1_555
N1E Zn1 1_555 1_555
N5A_2 Zn2 1_555 1_555
O7B Zn2 1_555 1_555
O7C Zn2 1_555 1_555
O8F Zn1 1_555 1_555
O8G Zn1A 1_555 1_555
O9A Zn3 1_555 1_555
N2 C3 1_555 1_555
C5 C6 1_555 1_555
C8 C9 1_555 1_555
C11 C12 1_555 1_555
C13 C14 1_555 1_555
C14 C15 1_555 1_555
C20 C21 1_555 1_555
C24 C25 1_555 1_555
C28 C29 1_555 1_555
C30 C31 1_555 1_555
C34 C35 1_555 1_555
C38 C39 1_555 1_555
C37D C38D 1_555 1_555
C38D C39D 1_555 1_555
N2A C3A 1_555 1_555
O7A Zn2B 1_555 1_555
C5A C6A 1_555 1_555
C8A C9A 1_555 1_555
C11A C12A 1_555 1_555
C13A C14A 1_555 1_555
C14A C15A 1_555 1_555
C20A C21A 1_555 1_555
C24A C25A 1_555 1_555
C28A C29A 1_555 1_555
C30A C31A 1_555 1_555

#END
