
#######################################################################
#
#                 Cambridge Crystallographic Data Centre
#                                CCDC 
#
#######################################################################
#
# If this CIF has been generated from an entry in the Cambridge 
# Structural Database, then it will include bibliographic, chemical, 
# crystal, experimental, refinement or atomic coordinate data resulting 
# from the CCDC's data processing and validation procedures.
#
#######################################################################

data_REPLOO
_symmetry_cell_setting           triclinic
_symmetry_space_group_name_H-M   'P -1'
_symmetry_Int_Tables_number      2
_space_group_name_Hall           '-P 1'
loop_
_symmetry_equiv_pos_site_id
_symmetry_equiv_pos_as_xyz
1 x,y,z
2 -x,-y,-z
_cell_length_a                   10.3001(2)
_cell_length_b                   16.3346(4)
_cell_length_c                   16.4319(4)
_cell_angle_alpha                74.3290(10)
_cell_angle_beta                 86.3890(10)
_cell_angle_gamma                78.1000(10)
_cell_volume                     2604.59
loop_
_atom_site_label
_atom_site_type_symbol
_atom_site_fract_x
_atom_site_fract_y
_atom_site_fract_z
Mo1 Mo 0.28145(2) 0.313252(16) 0.291201(15)
C1 C 0.3381(3) 0.4079(2) 0.1841(2)
N1 N 0.3713(3) 0.4575(2) 0.1269(3)
C2 C 0.1036(3) 0.4056(2) 0.24168(19)
N2 N 0.0100(3) 0.4575(2) 0.21964(19)
C3 C 0.4016(4) 0.3834(3) 0.3389(3)
N3 N 0.4664(4) 0.4189(4) 0.3650(4)
C4 C 0.1702(3) 0.3514(2) 0.3946(2)
N4 N 0.1069(3) 0.3746(2) 0.44697(19)
C5 C 0.1418(4) 0.2277(2) 0.3285(3)
N5 N 0.0687(4) 0.1828(3) 0.3523(3)
C6 C 0.3642(4) 0.2147(3) 0.4004(2)
N6 N 0.4098(4) 0.1607(3) 0.4573(2)
C7 C 0.4787(3) 0.2545(2) 0.25719(19)
N7 N 0.5838(3) 0.2234(2) 0.23959(19)
C8 C 0.2540(3) 0.2633(2) 0.1860(2)
N8 N 0.2413(4) 0.2342(2) 0.1316(2)
Cu1 Cu 0.5000 0.5000 0.0000
N9 N 0.3901(3) 0.4596(2) -0.07325(18)
H1 H 0.4278 0.4712 -0.1256
N10 N 0.4033(3) 0.6273(2) -0.03448(18)
H2 H 0.4429 0.6499 -0.0842
C9 C 0.3637(5) 0.3209(4) -0.1058(3)
H3 H 0.2690 0.3409 -0.1145
H4 H 0.4079 0.3380 -0.1599
C10 C 0.4097(4) 0.3635(3) -0.0436(2)
H5 H 0.3598 0.3485 0.0093
C11 C 0.2506(4) 0.5030(3) -0.0848(3)
H6 H 0.2042 0.4901 -0.0310
H7 H 0.2101 0.4806 -0.1238
C12 C 0.2358(5) 0.6007(3) -0.1188(3)
H8 H 0.2981 0.6123 -0.1653
H9 H 0.1472 0.6241 -0.1415
C13 C 0.2580(4) 0.6490(3) -0.0554(3)
H10 H 0.2366 0.7111 -0.0841
C14 C 0.1690(4) 0.6342(4) 0.0231(3)
H11 H 0.1793 0.6737 0.0558
H12 H 0.1982 0.5755 0.0578
C15 C 0.0206(5) 0.6474(5) 0.0026(5)
H13 H -0.0050 0.7008 -0.0402
H14 H -0.0317 0.6497 0.0527
H15 H 0.0062 0.6000 -0.0175
C16 C 0.4432(5) 0.6722(3) 0.0247(2)
H16 H 0.3935 0.6568 0.0776
C17 C 0.4143(6) 0.7705(3) -0.0083(3)
H17 H 0.4595 0.7870 -0.0620
H18 H 0.3198 0.7910 -0.0177
C18 C 0.4588(7) 0.8129(4) 0.0526(3)
H19 H 0.4062 0.8024 0.1041
H20 H 0.4451 0.8751 0.0280
C19 C 0.3940(7) 0.2230(4) -0.0735(3)
H21 H 0.3412 0.2058 -0.0232
H22 H 0.3689 0.1980 -0.1160
Cu2 Cu 0.0000 0.5000 0.5000
N11 N 0.0338(2) 0.43585(16) 0.62583(16)
H23 H 0.0011 0.4772 0.6534
N12 N 0.1655(2) 0.55136(17) 0.48398(17)
H24 H 0.1436 0.6008 0.5015
C20 C -0.1760(4) 0.2808(3) 0.7672(2)
H25 H -0.1448 0.2303 0.7457
H26 H -0.1863 0.2611 0.8280
C21 C -0.0746(3) 0.3397(2) 0.7463(2)
H27 H 0.0103 0.3076 0.7705
H28 H -0.1030 0.3880 0.7712
C22 C -0.0588(3) 0.3742(2) 0.6506(2)
H29 H -0.0239 0.3246 0.6274
C23 C 0.1722(3) 0.4010(2) 0.6585(2)
H30 H 0.1671 0.3879 0.7203
C24 C 0.2333(3) 0.3163(2) 0.6359(2)
H31 H 0.1815 0.2727 0.6626
H32 H 0.2285 0.3255 0.5752
C25 C 0.3771(3) 0.2822(2) 0.6632(3)
H33 H 0.4300 0.3234 0.6343
H34 H 0.4091 0.2280 0.6496
H35 H 0.3828 0.2738 0.7231
C26 C 0.2525(3) 0.4726(2) 0.6281(2)
H36 H 0.2045 0.5237 0.6439
H37 H 0.3359 0.4540 0.6583
C27 C 0.2834(3) 0.4986(2) 0.5337(2)
H38 H 0.3538 0.5316 0.5241
H39 H 0.3149 0.4468 0.5145
C28 C 0.1915(3) 0.5797(2) 0.3916(2)
H40 H 0.2232 0.5277 0.3715
C29 C 0.2960(4) 0.6365(3) 0.3685(2)
H41 H 0.3810 0.6030 0.3915
H42 H 0.2716 0.6850 0.3934
C30 C -0.3086(4) 0.3294(3) 0.7278(3)
H43 H -0.3718 0.2910 0.7406
H44 H -0.3421 0.3777 0.7520
Cu3 Cu 0.5000 0.0000 0.5000
N13 N 0.4234(3) -0.02073(16) 0.62082(17)
H45 H 0.4498 -0.0788 0.6435
N14 N 0.6483(3) 0.03479(17) 0.54914(17)
H46 H 0.6268 0.0936 0.5382
C31 C 0.0654(4) 0.1094(3) 0.6273(4)
H47 H 0.0271 0.0875 0.5877
H48 H 0.0324 0.1707 0.6165
H49 H 0.0417 0.0810 0.6837
C32 C 0.2158(4) 0.0919(2) 0.6174(3)
H50 H 0.2536 0.1158 0.6563
H51 H 0.2391 0.1212 0.5605
C33 C 0.2760(3) -0.0045(2) 0.6345(2)
H52 H 0.2597 -0.0312 0.6942
C34 C 0.4980(3) 0.0189(2) 0.6696(2)
H53 H 0.4648 0.0817 0.6534
C35 C 0.4826(4) -0.0134(2) 0.7653(2)
H54 H 0.5112 -0.0759 0.7827
H55 H 0.3898 0.0005 0.7808
C36 C 0.5649(4) 0.0283(3) 0.8114(3)
H56 H 0.5309 0.0904 0.7983
H57 H 0.5569 0.0048 0.8720
C37 C 0.7098(4) 0.0114(3) 0.7853(2)
H58 H 0.7461 -0.0503 0.8038
H59 H 0.7590 0.0409 0.8128
C38 C 0.7267(4) 0.0431(3) 0.6890(2)
H60 H 0.6993 0.1057 0.6713
H61 H 0.8196 0.0283 0.6740
C39 C 0.6439(3) 0.0019(2) 0.6426(2)
H62 H 0.6774 -0.0609 0.6577
C40 C 0.7835(3) 0.0152(3) 0.5124(2)
H63 H 0.8146 -0.0471 0.5259
H64 H 0.8441 0.0395 0.5376
C41 C 0.2159(3) -0.0523(2) 0.5830(2)
H65 H 0.1248 -0.0531 0.6016
H66 H 0.2637 -0.1119 0.5959
Mo1A Mo 0.71855(2) 0.686748(16) -0.291201(15)
C1A C 0.6619(3) 0.5921(2) -0.1841(2)
N1A N 0.6287(3) 0.5425(2) -0.1269(3)
C2A C 0.8964(3) 0.5944(2) -0.24168(19)
N2A N 0.9900(3) 0.5425(2) -0.21964(19)
C3A C 0.5984(4) 0.6166(3) -0.3389(3)
N3A N 0.5336(4) 0.5811(4) -0.3650(4)
C4A C 0.8298(3) 0.6486(2) -0.3946(2)
N4A N 0.8931(3) 0.6254(2) -0.44697(19)
N4A_2 N -0.1069(3) 0.6254(2) 0.55303(19)
C5A C 0.8582(4) 0.7723(2) -0.3285(3)
N5A N 0.9313(4) 0.8172(3) -0.3523(3)
C6A C 0.6358(4) 0.7853(3) -0.4004(2)
N6A N 0.5902(4) -0.1607(3) 0.5427(2)
N6A_2 N 0.5902(4) 0.8393(3) -0.4573(2)
C7A C 0.5213(3) 0.7455(2) -0.25719(19)
N7A N 0.4162(3) 0.7766(2) -0.23959(19)
C8A C 0.7460(3) 0.7367(2) -0.1860(2)
N8A N 0.7587(4) 0.7658(2) -0.1316(2)
N9A N 0.6099(3) 0.5404(2) 0.07325(18)
H1A H 0.5722 0.5288 0.1256
N10A N 0.5967(3) 0.3727(2) 0.03448(18)
H2A H 0.5571 0.3501 0.0842
C9A C 0.6363(5) 0.6791(4) 0.1058(3)
H3A H 0.7310 0.6591 0.1145
H4A H 0.5921 0.6620 0.1599
C10A C 0.5903(4) 0.6365(3) 0.0436(2)
H5A H 0.6402 0.6515 -0.0093
C11A C 0.7494(4) 0.4970(3) 0.0848(3)
H6A H 0.7958 0.5099 0.0310
H7A H 0.7899 0.5194 0.1238
C12A C 0.7642(5) 0.3993(3) 0.1188(3)
H8A H 0.7019 0.3877 0.1653
H9A H 0.8528 0.3759 0.1415
C13A C 0.7420(4) 0.3510(3) 0.0554(3)
H10A H 0.7634 0.2889 0.0841
C14A C 0.8310(4) 0.3658(4) -0.0231(3)
H11A H 0.8207 0.3263 -0.0558
H12A H 0.8018 0.4245 -0.0578
C15A C 0.9794(5) 0.3526(5) -0.0026(5)
H13A H 1.0050 0.2992 0.0402
H14A H 1.0317 0.3503 -0.0527
H15A H 0.9938 0.4000 0.0175
C16A C 0.5568(5) 0.3278(3) -0.0247(2)
H16A H 0.6065 0.3432 -0.0776
C17A C 0.5857(6) 0.2295(3) 0.0083(3)
H17A H 0.5405 0.2130 0.0620
H18A H 0.6802 0.2090 0.0177
C18A C 0.5412(7) 0.1871(4) -0.0526(3)
H19A H 0.5938 0.1976 -0.1041
H20A H 0.5549 0.1249 -0.0280
C19A C 0.6060(7) 0.7770(4) 0.0735(3)
H21A H 0.6588 0.7942 0.0232
H22A H 0.6311 0.8020 0.1160
Cu2_2 Cu 1.0000 0.5000 -0.5000
N11A N -0.0338(2) 0.56415(16) 0.37417(16)
H23A H -0.0011 0.5228 0.3466
N12A N -0.1655(2) 0.44864(17) 0.51602(17)
H24A H -0.1436 0.3992 0.4985
C20A C 0.1760(4) 0.7192(3) 0.2328(2)
H25A H 0.1448 0.7697 0.2543
H26A H 0.1863 0.7389 0.1720
C21A C 0.0746(3) 0.6603(2) 0.2537(2)
H27A H -0.0103 0.6924 0.2295
H28A H 0.1030 0.6120 0.2288
C22A C 0.0588(3) 0.6258(2) 0.3494(2)
H29A H 0.0239 0.6754 0.3726
C23A C -0.1722(3) 0.5990(2) 0.3415(2)
H30A H -0.1671 0.6121 0.2797
C24A C -0.2333(3) 0.6837(2) 0.3641(2)
H31A H -0.1815 0.7273 0.3374
H32A H -0.2285 0.6745 0.4248
C25A C -0.3771(3) 0.7178(2) 0.3368(3)
H33A H -0.4300 0.6766 0.3657
H34A H -0.4091 0.7720 0.3504
H35A H -0.3828 0.7262 0.2769
C26A C -0.2525(3) 0.5274(2) 0.3719(2)
H36A H -0.2045 0.4763 0.3561
H37A H -0.3359 0.5460 0.3417
C27A C -0.2834(3) 0.5014(2) 0.4663(2)
H38A H -0.3538 0.4684 0.4759
H39A H -0.3149 0.5532 0.4855
C28A C -0.1915(3) 0.4203(2) 0.6084(2)
H40A H -0.2232 0.4723 0.6285
C29A C -0.2960(4) 0.3635(3) 0.6315(2)
H41A H -0.3810 0.3970 0.6085
H42A H -0.2716 0.3150 0.6066
C30A C 0.3086(4) 0.6706(3) 0.2722(3)
H43A H 0.3718 0.7090 0.2594
H44A H 0.3421 0.6223 0.2480
Cu3_2 Cu 0.5000 1.0000 -0.5000
N13A N 0.5766(3) 0.02073(16) 0.37918(17)
H45A H 0.5502 0.0788 0.3565
N14A N 0.3517(3) -0.03479(17) 0.45086(17)
H46A H 0.3732 -0.0936 0.4618
C31A C 0.9346(4) -0.1094(3) 0.3727(4)
H47A H 0.9729 -0.0875 0.4123
H48A H 0.9676 -0.1707 0.3835
H49A H 0.9583 -0.0810 0.3163
C32A C 0.7842(4) -0.0919(2) 0.3826(3)
H50A H 0.7464 -0.1158 0.3437
H51A H 0.7609 -0.1212 0.4395
C33A C 0.7240(3) 0.0045(2) 0.3655(2)
H52A H 0.7403 0.0312 0.3058
C34A C 0.5020(3) -0.0189(2) 0.3304(2)
H53A H 0.5352 -0.0817 0.3466
C35A C 0.5174(4) 0.0134(2) 0.2347(2)
H54A H 0.4888 0.0759 0.2173
H55A H 0.6102 -0.0005 0.2192
C36A C 0.4351(4) -0.0283(3) 0.1886(3)
H56A H 0.4691 -0.0904 0.2017
H57A H 0.4431 -0.0048 0.1280
C37A C 0.2902(4) -0.0114(3) 0.2147(2)
H58A H 0.2539 0.0503 0.1962
H59A H 0.2410 -0.0409 0.1872
C38A C 0.2733(4) -0.0431(3) 0.3110(2)
H60A H 0.3007 -0.1057 0.3287
H61A H 0.1804 -0.0283 0.3260
C39A C 0.3561(3) -0.0019(2) 0.3574(2)
H62A H 0.3226 0.0609 0.3423
C40A C 0.2165(3) -0.0152(3) 0.4876(2)
H63A H 0.1854 0.0471 0.4741
H64A H 0.1559 -0.0395 0.4624
C41A C 0.7841(3) 0.0523(2) 0.4170(2)
H65A H 0.8752 0.0531 0.3984
H66A H 0.7363 0.1119 0.4041
C42 C 0.7882(5) 0.3070(3) 0.3471(4)
O1 O 0.8332(7) 0.2827(4) 0.4347(3)
O2 O 0.9206(9) 0.1363(5) 0.1921(7)
O3 O 0.3639(8) 0.7743(4) 0.4859(4)
O4 O 0.8462(8) 0.8859(8) 0.1451(12)
loop_
_geom_bond_atom_site_label_1
_geom_bond_atom_site_label_2
_geom_bond_site_symmetry_1
_geom_bond_site_symmetry_2
Mo1 C1 1_555 1_555
C1 N1 1_555 1_555
N1 Cu1 1_555 1_555
C2 Mo1 1_555 1_555
N2 C2 1_555 1_555
C3 Mo1 1_555 1_555
N3 C3 1_555 1_555
C4 Mo1 1_555 1_555
N4 C4 1_555 1_555
C5 Mo1 1_555 1_555
N5 C5 1_555 1_555
C6 Mo1 1_555 1_555
N6 C6 1_555 1_555
C7 Mo1 1_555 1_555
N7 C7 1_555 1_555
C8 Mo1 1_555 1_555
N8 C8 1_555 1_555
Cu1 N9 1_555 1_555
N9 H1 1_555 1_555
N10 Cu1 1_555 1_555
H2 N10 1_555 1_555
C9 H3 1_555 1_555
H4 C9 1_555 1_555
C10 N9 1_555 1_555
H5 C10 1_555 1_555
C11 N9 1_555 1_555
H6 C11 1_555 1_555
H7 C11 1_555 1_555
C12 C11 1_555 1_555
H8 C12 1_555 1_555
H9 C12 1_555 1_555
C13 N10 1_555 1_555
H10 C13 1_555 1_555
C14 C13 1_555 1_555
H11 C14 1_555 1_555
H12 C14 1_555 1_555
C15 C14 1_555 1_555
H13 C15 1_555 1_555
H14 C15 1_555 1_555
H15 C15 1_555 1_555
C16 N10 1_555 1_555
H16 C16 1_555 1_555
C17 C16 1_555 1_555
H17 C17 1_555 1_555
H18 C17 1_555 1_555
C18 C17 1_555 1_555
H19 C18 1_555 1_555
H20 C18 1_555 1_555
C19 C9 1_555 1_555
H21 C19 1_555 1_555
H22 C19 1_555 1_555
Cu2 N4 1_555 1_555
N11 Cu2 1_555 1_555
H23 N11 1_555 1_555
N12 Cu2 1_555 1_555
H24 N12 1_555 1_555
C20 H25 1_555 1_555
H26 C20 1_555 1_555
C21 C20 1_555 1_555
H27 C21 1_555 1_555
H28 C21 1_555 1_555
C22 N11 1_555 1_555
H29 C22 1_555 1_555
C23 N11 1_555 1_555
H30 C23 1_555 1_555
C24 C23 1_555 1_555
H31 C24 1_555 1_555
H32 C24 1_555 1_555
C25 C24 1_555 1_555
H33 C25 1_555 1_555
H34 C25 1_555 1_555
H35 C25 1_555 1_555
C26 C23 1_555 1_555
H36 C26 1_555 1_555
H37 C26 1_555 1_555
C27 N12 1_555 1_555
H38 C27 1_555 1_555
H39 C27 1_555 1_555
C28 N12 1_555 1_555
H40 C28 1_555 1_555
C29 C28 1_555 1_555
H41 C29 1_555 1_555
H42 C29 1_555 1_555
C30 C20 1_555 1_555
H43 C30 1_555 1_555
H44 C30 1_555 1_555
Cu3 N6 1_555 1_555
N13 Cu3 1_555 1_555
H45 N13 1_555 1_555
N14 Cu3 1_555 1_555
H46 N14 1_555 1_555
C31 H47 1_555 1_555
H48 C31 1_555 1_555
H49 C31 1_555 1_555
C32 C31 1_555 1_555
H50 C32 1_555 1_555
H51 C32 1_555 1_555
C33 N13 1_555 1_555
H52 C33 1_555 1_555
C34 N13 1_555 1_555
H53 C34 1_555 1_555
C35 C34 1_555 1_555
H54 C35 1_555 1_555
H55 C35 1_555 1_555
C36 C35 1_555 1_555
H56 C36 1_555 1_555
H57 C36 1_555 1_555
C37 C36 1_555 1_555
H58 C37 1_555 1_555
H59 C37 1_555 1_555
C38 C37 1_555 1_555
H60 C38 1_555 1_555
H61 C38 1_555 1_555
C39 N14 1_555 1_555
H62 C39 1_555 1_555
C40 N14 1_555 1_555
H63 C40 1_555 1_555
H64 C40 1_555 1_555
C41 C33 1_555 1_555
H65 C41 1_555 1_555
H66 C41 1_555 1_555
C42 O1 1_555 1_555
Mo1A C1A 1_555 1_555
C1A N1A 1_555 1_555
N1A Cu1 1_555 1_555
C2A Mo1A 1_555 1_555
N2A C2A 1_555 1_555
C3A Mo1A 1_555 1_555
N3A C3A 1_555 1_555
C4A Mo1A 1_555 1_555
N4A C4A 1_555 1_555
N4A_2 Cu2 1_555 1_555
C5A Mo1A 1_555 1_555
N5A C5A 1_555 1_555
C6A Mo1A 1_555 1_555
N6A Cu3 1_555 1_555
N6A_2 C6A 1_555 1_555
C7A Mo1A 1_555 1_555
N7A C7A 1_555 1_555
C8A Mo1A 1_555 1_555
N8A C8A 1_555 1_555
N9A Cu1 1_555 1_555
H1A N9A 1_555 1_555
N10A Cu1 1_555 1_555
H2A N10A 1_555 1_555
C9A H3A 1_555 1_555
H4A C9A 1_555 1_555
C10A C16 1_555 1_555
H5A C10A 1_555 1_555
C11A N9A 1_555 1_555
H6A C11A 1_555 1_555
H7A C11A 1_555 1_555
C12A C11A 1_555 1_555
H8A C12A 1_555 1_555
H9A C12A 1_555 1_555
C13A N10A 1_555 1_555
H10A C13A 1_555 1_555
C14A C13A 1_555 1_555
H11A C14A 1_555 1_555
H12A C14A 1_555 1_555
C15A C14A 1_555 1_555
H13A C15A 1_555 1_555
H14A C15A 1_555 1_555
H15A C15A 1_555 1_555
C16A C10 1_555 1_555
H16A C16A 1_555 1_555
C17A C16A 1_555 1_555
H17A C17A 1_555 1_555
H18A C17A 1_555 1_555
C18A C19 1_555 1_555
H19A C18A 1_555 1_555
H20A C18A 1_555 1_555
C19A C18 1_555 1_555
H21A C19A 1_555 1_555
H22A C19A 1_555 1_555
Cu2_2 N4A 1_555 1_555
N11A Cu2 1_555 1_555
H23A N11A 1_555 1_555
N12A Cu2 1_555 1_555
H24A N12A 1_555 1_555
C20A H25A 1_555 1_555
H26A C20A 1_555 1_555
C21A C20A 1_555 1_555
H27A C21A 1_555 1_555
H28A C21A 1_555 1_555
C22A C28 1_555 1_555
H29A C22A 1_555 1_555
C23A N11A 1_555 1_555
H30A C23A 1_555 1_555
C24A C23A 1_555 1_555
H31A C24A 1_555 1_555
H32A C24A 1_555 1_555
C25A C24A 1_555 1_555
H33A C25A 1_555 1_555
H34A C25A 1_555 1_555
H35A C25A 1_555 1_555
C26A C23A 1_555 1_555
H36A C26A 1_555 1_555
H37A C26A 1_555 1_555
C27A N12A 1_555 1_555
H38A C27A 1_555 1_555
H39A C27A 1_555 1_555
C28A C22 1_555 1_555
H40A C28A 1_555 1_555
C29A C30 1_555 1_555
H41A C29A 1_555 1_555
H42A C29A 1_555 1_555
C30A C29 1_555 1_555
H43A C30A 1_555 1_555
H44A C30A 1_555 1_555
Cu3_2 N6A_2 1_555 1_555
N13A Cu3 1_555 1_555
H45A N13A 1_555 1_555
N14A Cu3 1_555 1_555
H46A N14A 1_555 1_555
C31A H47A 1_555 1_555
H48A C31A 1_555 1_555
H49A C31A 1_555 1_555
C32A C31A 1_555 1_555
H50A C32A 1_555 1_555
H51A C32A 1_555 1_555
C33A N13A 1_555 1_555
H52A C33A 1_555 1_555
C34A N13A 1_555 1_555
H53A C34A 1_555 1_555
C35A C34A 1_555 1_555
H54A C35A 1_555 1_555
H55A C35A 1_555 1_555
C36A C35A 1_555 1_555
H56A C36A 1_555 1_555
H57A C36A 1_555 1_555
C37A C36A 1_555 1_555
H58A C37A 1_555 1_555
H59A C37A 1_555 1_555
C38A C37A 1_555 1_555
H60A C38A 1_555 1_555
H61A C38A 1_555 1_555
C39A N14A 1_555 1_555
H62A C39A 1_555 1_555
C40A C41 1_555 1_555
H63A C40A 1_555 1_555
H64A C40A 1_555 1_555
C41A C40 1_555 1_555
H65A C41A 1_555 1_555
H66A C41A 1_555 1_555
C9 C10 1_555 1_555
C12 C13 1_555 1_555
C21 C22 1_555 1_555
C26 C27 1_555 1_555
C32 C33 1_555 1_555
C34 C39 1_555 1_555
C38 C39 1_555 1_555
N9A C10A 1_555 1_555
N10A C16A 1_555 1_555
C9A C10A 1_555 1_555
C9A C19A 1_555 1_555
C12A C13A 1_555 1_555
C17A C18A 1_555 1_555
N11A C22A 1_555 1_555
N12A C28A 1_555 1_555
C20A C30A 1_555 1_555
C21A C22A 1_555 1_555
C26A C27A 1_555 1_555
C28A C29A 1_555 1_555
N14A C40A 1_555 1_555
C32A C33A 1_555 1_555
C33A C41A 1_555 1_555
C34A C39A 1_555 1_555
C38A C39A 1_555 1_555

#END
