
#######################################################################
#
#                 Cambridge Crystallographic Data Centre
#                                CCDC 
#
#######################################################################
#
# If this CIF has been generated from an entry in the Cambridge 
# Structural Database, then it will include bibliographic, chemical, 
# crystal, experimental, refinement or atomic coordinate data resulting 
# from the CCDC's data processing and validation procedures.
#
#######################################################################

data_REPLUU
_symmetry_cell_setting           triclinic
_symmetry_space_group_name_H-M   'P -1'
_symmetry_Int_Tables_number      2
_space_group_name_Hall           '-P 1'
loop_
_symmetry_equiv_pos_site_id
_symmetry_equiv_pos_as_xyz
1 x,y,z
2 -x,-y,-z
_cell_length_a                   10.3034(2)
_cell_length_b                   16.2949(3)
_cell_length_c                   16.4554(3)
_cell_angle_alpha                74.4490(10)
_cell_angle_beta                 86.0210(10)
_cell_angle_gamma                78.3160(10)
_cell_volume                     2606.12
loop_
_atom_site_label
_atom_site_type_symbol
_atom_site_fract_x
_atom_site_fract_y
_atom_site_fract_z
W1 W 0.282073(14) 0.312037(10) 0.291124(9)
C1 C 0.3384(4) 0.4068(3) 0.1829(3)
N1 N 0.3695(4) 0.4572(3) 0.1259(3)
C2 C 0.2546(4) 0.2615(3) 0.1864(3)
N2 N 0.2416(4) 0.2325(3) 0.1320(3)
C3 C 0.4796(4) 0.2541(3) 0.2559(3)
N3 N 0.5836(4) 0.2228(3) 0.2377(2)
C4 C 0.1712(4) 0.3514(3) 0.3944(3)
N4 N 0.1084(4) 0.3750(3) 0.4474(2)
C5 C 0.4026(4) 0.3852(4) 0.3364(4)
N5 N 0.4662(4) 0.4226(5) 0.3599(5)
C6 C 0.3666(5) 0.2148(4) 0.4006(3)
N6 N 0.4136(5) 0.1624(4) 0.4571(3)
C7 C 0.1441(5) 0.2251(3) 0.3320(3)
N7 N 0.0700(5) 0.1808(3) 0.3562(3)
C8 C 0.1026(4) 0.4027(3) 0.2422(2)
N8 N 0.0091(4) 0.4539(3) 0.2204(2)
Cu1 Cu 0.5000 0.5000 0.0000
N9 N 0.5975(4) 0.3732(3) 0.0342(2)
H1 H 0.5577 0.3503 0.0839
N10 N 0.6082(4) 0.5417(3) 0.0728(2)
H2 H 0.5704 0.5299 0.1253
C9 C 0.5394(7) 0.1871(4) -0.0536(4)
H3 H 0.5916 0.1978 -0.1053
H4 H 0.5523 0.1248 -0.0297
C10 C 0.5878(6) 0.2286(3) 0.0083(3)
H5 H 0.6824 0.2082 0.0159
H6 H 0.5440 0.2118 0.0626
C11 C 0.5582(5) 0.3278(3) -0.0249(3)
H7 H 0.6082 0.3433 -0.0779
C12 C 0.9798(5) 0.3509(5) -0.0051(5)
H8 H 0.9943 0.3922 0.0237
H9 H 1.0301 0.3580 -0.0571
H10 H 1.0074 0.2932 0.0298
C13 C 0.8314(5) 0.3660(4) -0.0242(3)
H11 H 0.8036 0.4252 -0.0577
H12 H 0.8188 0.3276 -0.0577
C14 C 0.7437(5) 0.3507(4) 0.0546(3)
H13 H 0.7648 0.2888 0.0835
C15 C 0.7642(5) 0.4020(4) 0.1178(3)
H14 H 0.7016 0.3904 0.1644
H15 H 0.8525 0.3796 0.1406
C16 C 0.7486(5) 0.4988(4) 0.0836(3)
H16 H 0.7892 0.5219 0.1218
H17 H 0.7947 0.5115 0.0296
C17 C 0.4112(5) 0.3623(3) -0.0436(3)
H18 H 0.3610 0.3473 0.0093
C18 C 0.3666(5) 0.3188(4) -0.1054(3)
H19 H 0.4120 0.3355 -0.1592
H20 H 0.2722 0.3389 -0.1145
C19 C 0.3949(7) 0.2223(4) -0.0735(4)
H21 H 0.3418 0.2053 -0.0230
H22 H 0.3696 0.1970 -0.1157
Cu2 Cu 0.0000 0.5000 0.5000
N11 N 0.1660(3) 0.5516(2) 0.4839(2)
H23 H 0.1441 0.6012 0.5015
N12 N -0.0317(3) 0.5630(2) 0.3745(2)
H24 H 0.0013 0.5213 0.3471
C20 C 0.2499(4) 0.4735(3) 0.6279(3)
H25 H 0.3327 0.4555 0.6582
H26 H 0.2016 0.5248 0.6435
C21 C 0.2828(4) 0.4995(3) 0.5329(3)
H27 H 0.3531 0.5328 0.5234
H28 H 0.3144 0.4476 0.5136
C22 C 0.1929(4) 0.5797(3) 0.3916(3)
H29 H 0.2256 0.5277 0.3715
C23 C 0.2963(5) 0.6376(4) 0.3687(3)
H30 H 0.3808 0.6051 0.3925
H31 H 0.2698 0.6868 0.3927
C24 C 0.3116(5) 0.6699(4) 0.2729(3)
H32 H 0.3750 0.7085 0.2598
H33 H 0.3456 0.6210 0.2495
C25 C 0.1788(5) 0.7181(4) 0.2330(3)
H34 H 0.1471 0.7689 0.2539
H35 H 0.1902 0.7372 0.1723
C26 C 0.0781(4) 0.6592(3) 0.2539(3)
H36 H 0.1069 0.6107 0.2291
H37 H -0.0064 0.6911 0.2297
C27 C 0.0609(4) 0.6250(3) 0.3496(3)
H38 H 0.0256 0.6748 0.3727
C28 C 0.1700(4) 0.4021(3) 0.6585(3)
H39 H 0.1638 0.3898 0.7201
C29 C 0.2309(4) 0.3169(3) 0.6368(3)
H40 H 0.2265 0.3254 0.5763
H41 H 0.1788 0.2735 0.6641
C30 C 0.3742(4) 0.2834(3) 0.6638(3)
H42 H 0.3784 0.2697 0.7242
H43 H 0.4091 0.2322 0.6451
H44 H 0.4256 0.3272 0.6391
Cu3 Cu 0.5000 0.0000 0.5000
N13 N 0.6480(3) 0.0357(2) 0.5485(2)
H45 H 0.6266 0.0945 0.5375
N14 N 0.5777(3) 0.0200(2) 0.3796(2)
H46 H 0.5520 0.0780 0.3569
C31 C 0.7244(5) 0.0451(4) 0.6880(3)
H47 H 0.8173 0.0310 0.6726
H48 H 0.6966 0.1077 0.6705
C32 C 0.6426(4) 0.0032(3) 0.6420(3)
H49 H 0.6759 -0.0597 0.6573
C33 C 0.7831(4) 0.0163(3) 0.5118(3)
H50 H 0.8142 -0.0460 0.5255
H51 H 0.8433 0.0412 0.5367
C34 C 0.7845(4) 0.0529(3) 0.4163(3)
H52 H 0.8756 0.0541 0.3975
H53 H 0.7364 0.1124 0.4031
C35 C 0.7252(4) 0.0037(3) 0.3658(3)
H54 H 0.7420 0.0297 0.3060
C36 C 0.7840(4) -0.0928(3) 0.3833(4)
H55 H 0.7475 -0.1170 0.3442
H56 H 0.7588 -0.1218 0.4400
C37 C 0.9351(5) -0.1101(4) 0.3745(5)
H57 H 0.9605 -0.0803 0.3189
H58 H 0.9677 -0.1713 0.3837
H59 H 0.9719 -0.0894 0.4155
C38 C 0.4966(4) 0.0201(3) 0.6693(3)
H60 H 0.4638 0.0830 0.6528
C39 C 0.4800(4) -0.0114(3) 0.7648(3)
H61 H 0.5081 -0.0740 0.7824
H62 H 0.3872 0.0026 0.7803
C40 C 0.5615(5) 0.0306(4) 0.8103(3)
H63 H 0.5279 0.0927 0.7970
H64 H 0.5529 0.0073 0.8708
C41 C 0.7075(5) 0.0133(4) 0.7837(3)
H65 H 0.7431 -0.0484 0.8019
H66 H 0.7569 0.0428 0.8112
W1A W 0.717927(14) 0.687963(10) -0.291124(9)
C1A C 0.6616(4) 0.5932(3) -0.1829(3)
N1A N 0.6305(4) 0.5428(3) -0.1259(3)
C2A C 0.7454(4) 0.7385(3) -0.1864(3)
N2A N 0.7584(4) 0.7675(3) -0.1320(3)
C3A C 0.5204(4) 0.7459(3) -0.2559(3)
N3A N 0.4164(4) 0.7772(3) -0.2377(2)
C4A C 0.8288(4) 0.6486(3) -0.3944(3)
N4A N 0.8916(4) 0.6250(3) -0.4474(2)
N4A_2 N -0.1084(4) 0.6250(3) 0.5526(2)
C5A C 0.5974(4) 0.6148(4) -0.3364(4)
N5A N 0.5338(4) 0.5774(5) -0.3599(5)
C6A C 0.6334(5) 0.7852(4) -0.4006(3)
N6A N 0.5864(5) 0.8376(4) -0.4571(3)
N6A_2 N 0.5864(5) -0.1624(4) 0.5429(3)
C7A C 0.8559(5) 0.7749(3) -0.3320(3)
N7A N 0.9300(5) 0.8192(3) -0.3562(3)
C8A C 0.8974(4) 0.5973(3) -0.2422(2)
N8A N 0.9909(4) 0.5461(3) -0.2204(2)
N9A N 0.4025(4) 0.6268(3) -0.0342(2)
H1A H 0.4423 0.6497 -0.0839
N10A N 0.3918(4) 0.4583(3) -0.0728(2)
H2A H 0.4296 0.4701 -0.1253
C9A C 0.4606(7) 0.8129(4) 0.0536(4)
H3A H 0.4084 0.8022 0.1053
H4A H 0.4477 0.8752 0.0297
C10A C 0.4122(6) 0.7714(3) -0.0083(3)
H5A H 0.3176 0.7918 -0.0159
H6A H 0.4560 0.7882 -0.0626
C11A C 0.4418(5) 0.6722(3) 0.0249(3)
H7A H 0.3918 0.6567 0.0779
C12A C 0.0202(5) 0.6491(5) 0.0051(5)
H8A H 0.0057 0.6078 -0.0237
H9A H -0.0301 0.6420 0.0571
H10A H -0.0074 0.7068 -0.0298
C13A C 0.1686(5) 0.6340(4) 0.0242(3)
H11A H 0.1964 0.5748 0.0577
H12A H 0.1812 0.6724 0.0577
C14A C 0.2563(5) 0.6493(4) -0.0546(3)
H13A H 0.2352 0.7112 -0.0835
C15A C 0.2358(5) 0.5980(4) -0.1178(3)
H14A H 0.2984 0.6096 -0.1644
H15A H 0.1475 0.6204 -0.1406
C16A C 0.2514(5) 0.5012(4) -0.0836(3)
H16A H 0.2108 0.4781 -0.1218
H17A H 0.2053 0.4885 -0.0296
C17A C 0.5888(5) 0.6377(3) 0.0436(3)
H18A H 0.6390 0.6527 -0.0093
C18A C 0.6334(5) 0.6812(4) 0.1054(3)
H19A H 0.5880 0.6645 0.1592
H20A H 0.7278 0.6611 0.1145
C19A C 0.6051(7) 0.7777(4) 0.0735(4)
H21A H 0.6582 0.7947 0.0230
H22A H 0.6304 0.8030 0.1157
Cu2_2 Cu 1.0000 0.5000 -0.5000
N11A N -0.1660(3) 0.4484(2) 0.5161(2)
H23A H -0.1441 0.3988 0.4985
N12A N 0.0317(3) 0.4370(2) 0.6255(2)
H24A H -0.0013 0.4787 0.6529
C20A C -0.2499(4) 0.5265(3) 0.3721(3)
H25A H -0.3327 0.5445 0.3418
H26A H -0.2016 0.4752 0.3565
C21A C -0.2828(4) 0.5005(3) 0.4671(3)
H27A H -0.3531 0.4672 0.4766
H28A H -0.3144 0.5524 0.4864
C22A C -0.1929(4) 0.4203(3) 0.6084(3)
H29A H -0.2256 0.4723 0.6285
C23A C -0.2963(5) 0.3624(4) 0.6313(3)
H30A H -0.3808 0.3949 0.6075
H31A H -0.2698 0.3132 0.6073
C24A C -0.3116(5) 0.3301(4) 0.7271(3)
H32A H -0.3750 0.2915 0.7402
H33A H -0.3456 0.3790 0.7505
C25A C -0.1788(5) 0.2819(4) 0.7670(3)
H34A H -0.1471 0.2311 0.7461
H35A H -0.1902 0.2628 0.8277
C26A C -0.0781(4) 0.3408(3) 0.7461(3)
H36A H -0.1069 0.3893 0.7709
H37A H 0.0064 0.3089 0.7703
C27A C -0.0609(4) 0.3750(3) 0.6504(3)
H38A H -0.0256 0.3252 0.6273
C28A C -0.1700(4) 0.5979(3) 0.3415(3)
H39A H -0.1638 0.6102 0.2799
C29A C -0.2309(4) 0.6831(3) 0.3632(3)
H40A H -0.2265 0.6746 0.4237
H41A H -0.1788 0.7265 0.3359
C30A C -0.3742(4) 0.7166(3) 0.3362(3)
H42A H -0.3784 0.7303 0.2758
H43A H -0.4091 0.7678 0.3549
H44A H -0.4256 0.6728 0.3609
Cu3_2 Cu 0.5000 1.0000 -0.5000
N13A N 0.3520(3) -0.0357(2) 0.4515(2)
H45A H 0.3734 -0.0945 0.4625
N14A N 0.4223(3) -0.0200(2) 0.6204(2)
H46A H 0.4480 -0.0780 0.6431
C31A C 0.2756(5) -0.0451(4) 0.3120(3)
H47A H 0.1827 -0.0310 0.3274
H48A H 0.3034 -0.1077 0.3295
C32A C 0.3574(4) -0.0032(3) 0.3580(3)
H49A H 0.3241 0.0597 0.3427
C33A C 0.2169(4) -0.0163(3) 0.4882(3)
H50A H 0.1858 0.0460 0.4745
H51A H 0.1567 -0.0412 0.4633
C34A C 0.2155(4) -0.0529(3) 0.5837(3)
H52A H 0.1244 -0.0541 0.6025
H53A H 0.2636 -0.1124 0.5969
C35A C 0.2748(4) -0.0037(3) 0.6342(3)
H54A H 0.2580 -0.0297 0.6940
C36A C 0.2160(4) 0.0928(3) 0.6167(4)
H55A H 0.2525 0.1170 0.6558
H56A H 0.2412 0.1218 0.5600
C37A C 0.0649(5) 0.1101(4) 0.6255(5)
H57A H 0.0395 0.0803 0.6811
H58A H 0.0323 0.1713 0.6163
H59A H 0.0281 0.0894 0.5845
C38A C 0.5034(4) -0.0201(3) 0.3307(3)
H60A H 0.5362 -0.0830 0.3472
C39A C 0.5200(4) 0.0114(3) 0.2352(3)
H61A H 0.4919 0.0740 0.2176
H62A H 0.6128 -0.0026 0.2197
C40A C 0.4385(5) -0.0306(4) 0.1897(3)
H63A H 0.4721 -0.0927 0.2030
H64A H 0.4471 -0.0073 0.1292
C41A C 0.2925(5) -0.0133(4) 0.2163(3)
H65A H 0.2569 0.0484 0.1981
H66A H 0.2431 -0.0428 0.1888
C42 C 0.1560(6) 0.7153(4) 0.5640(4)
O1 O 0.2156(7) 0.6955(5) 0.6477(7)
O2 O 0.9388(8) 0.1385(5) 0.1988(5)
O4 O 0.3442(17) 0.7705(6) 0.4907(7)
O5 O 0.8501(11) 0.8665(8) 0.1769(8)
O3? O 0.922(2) 0.1061(14) 0.1256(13)
O6? O 0.8473(16) 0.9004(11) 0.1082(11)
loop_
_geom_bond_atom_site_label_1
_geom_bond_atom_site_label_2
_geom_bond_site_symmetry_1
_geom_bond_site_symmetry_2
W1 C1 1_555 1_555
C1 N1 1_555 1_555
N1 Cu1 1_555 1_555
C2 W1 1_555 1_555
N2 C2 1_555 1_555
C3 W1 1_555 1_555
N3 C3 1_555 1_555
C4 W1 1_555 1_555
N4 C4 1_555 1_555
C5 W1 1_555 1_555
N5 C5 1_555 1_555
C6 W1 1_555 1_555
N6 C6 1_555 1_555
C7 W1 1_555 1_555
N7 C7 1_555 1_555
C8 W1 1_555 1_555
N8 C8 1_555 1_555
Cu1 N9 1_555 1_555
N9 H1 1_555 1_555
N10 Cu1 1_555 1_555
H2 N10 1_555 1_555
C9 H3 1_555 1_555
H4 C9 1_555 1_555
C10 C9 1_555 1_555
H5 C10 1_555 1_555
H6 C10 1_555 1_555
C11 N9 1_555 1_555
H7 C11 1_555 1_555
C12 H8 1_555 1_555
H9 C12 1_555 1_555
H10 C12 1_555 1_555
C13 C12 1_555 1_555
H11 C13 1_555 1_555
H12 C13 1_555 1_555
C14 N9 1_555 1_555
H13 C14 1_555 1_555
C15 C14 1_555 1_555
H14 C15 1_555 1_555
H15 C15 1_555 1_555
C16 N10 1_555 1_555
H16 C16 1_555 1_555
H17 C16 1_555 1_555
C17 C11 1_555 1_555
H18 C17 1_555 1_555
C18 C17 1_555 1_555
H19 C18 1_555 1_555
H20 C18 1_555 1_555
C19 C9 1_555 1_555
H21 C19 1_555 1_555
H22 C19 1_555 1_555
Cu2 N4 1_555 1_555
N11 Cu2 1_555 1_555
H23 N11 1_555 1_555
N12 Cu2 1_555 1_555
H24 N12 1_555 1_555
C20 H25 1_555 1_555
H26 C20 1_555 1_555
C21 N11 1_555 1_555
H27 C21 1_555 1_555
H28 C21 1_555 1_555
C22 N11 1_555 1_555
H29 C22 1_555 1_555
C23 C22 1_555 1_555
H30 C23 1_555 1_555
H31 C23 1_555 1_555
C24 C23 1_555 1_555
H32 C24 1_555 1_555
H33 C24 1_555 1_555
C25 C24 1_555 1_555
H34 C25 1_555 1_555
H35 C25 1_555 1_555
C26 C25 1_555 1_555
H36 C26 1_555 1_555
H37 C26 1_555 1_555
C27 N12 1_555 1_555
H38 C27 1_555 1_555
C28 C20 1_555 1_555
H39 C28 1_555 1_555
C29 C28 1_555 1_555
H40 C29 1_555 1_555
H41 C29 1_555 1_555
C30 C29 1_555 1_555
H42 C30 1_555 1_555
H43 C30 1_555 1_555
H44 C30 1_555 1_555
Cu3 N6 1_555 1_555
N13 Cu3 1_555 1_555
H45 N13 1_555 1_555
N14 Cu3 1_555 1_555
H46 N14 1_555 1_555
C31 H47 1_555 1_555
H48 C31 1_555 1_555
C32 N13 1_555 1_555
H49 C32 1_555 1_555
C33 N13 1_555 1_555
H50 C33 1_555 1_555
H51 C33 1_555 1_555
C34 C33 1_555 1_555
H52 C34 1_555 1_555
H53 C34 1_555 1_555
C35 N14 1_555 1_555
H54 C35 1_555 1_555
C36 C35 1_555 1_555
H55 C36 1_555 1_555
H56 C36 1_555 1_555
C37 C36 1_555 1_555
H57 C37 1_555 1_555
H58 C37 1_555 1_555
H59 C37 1_555 1_555
C38 C32 1_555 1_555
H60 C38 1_555 1_555
C39 C38 1_555 1_555
H61 C39 1_555 1_555
H62 C39 1_555 1_555
C40 C39 1_555 1_555
H63 C40 1_555 1_555
H64 C40 1_555 1_555
C41 C31 1_555 1_555
H65 C41 1_555 1_555
H66 C41 1_555 1_555
C42 O1 1_555 1_555
W1A C1A 1_555 1_555
C1A N1A 1_555 1_555
N1A Cu1 1_555 1_555
C2A W1A 1_555 1_555
N2A C2A 1_555 1_555
C3A W1A 1_555 1_555
N3A C3A 1_555 1_555
C4A W1A 1_555 1_555
N4A C4A 1_555 1_555
N4A_2 Cu2 1_555 1_555
C5A W1A 1_555 1_555
N5A C5A 1_555 1_555
C6A W1A 1_555 1_555
N6A C6A 1_555 1_555
N6A_2 Cu3 1_555 1_555
C7A W1A 1_555 1_555
N7A C7A 1_555 1_555
C8A W1A 1_555 1_555
N8A C8A 1_555 1_555
N9A Cu1 1_555 1_555
H1A N9A 1_555 1_555
N10A Cu1 1_555 1_555
H2A N10A 1_555 1_555
C9A H3A 1_555 1_555
H4A C9A 1_555 1_555
C10A C9A 1_555 1_555
H5A C10A 1_555 1_555
H6A C10A 1_555 1_555
C11A N9A 1_555 1_555
H7A C11A 1_555 1_555
C12A H8A 1_555 1_555
H9A C12A 1_555 1_555
H10A C12A 1_555 1_555
C13A C12A 1_555 1_555
H11A C13A 1_555 1_555
H12A C13A 1_555 1_555
C14A N9A 1_555 1_555
H13A C14A 1_555 1_555
C15A C14A 1_555 1_555
H14A C15A 1_555 1_555
H15A C15A 1_555 1_555
C16A N10A 1_555 1_555
H16A C16A 1_555 1_555
H17A C16A 1_555 1_555
C17A N10 1_555 1_555
H18A C17A 1_555 1_555
C18A C17A 1_555 1_555
H19A C18A 1_555 1_555
H20A C18A 1_555 1_555
C19A C9A 1_555 1_555
H21A C19A 1_555 1_555
H22A C19A 1_555 1_555
Cu2_2 N4A 1_555 1_555
N11A Cu2 1_555 1_555
H23A N11A 1_555 1_555
N12A Cu2 1_555 1_555
H24A N12A 1_555 1_555
C20A H25A 1_555 1_555
H26A C20A 1_555 1_555
C21A N11A 1_555 1_555
H27A C21A 1_555 1_555
H28A C21A 1_555 1_555
C22A N11A 1_555 1_555
H29A C22A 1_555 1_555
C23A C22A 1_555 1_555
H30A C23A 1_555 1_555
H31A C23A 1_555 1_555
C24A C23A 1_555 1_555
H32A C24A 1_555 1_555
H33A C24A 1_555 1_555
C25A C24A 1_555 1_555
H34A C25A 1_555 1_555
H35A C25A 1_555 1_555
C26A C25A 1_555 1_555
H36A C26A 1_555 1_555
H37A C26A 1_555 1_555
C27A N12A 1_555 1_555
H38A C27A 1_555 1_555
C28A N12 1_555 1_555
H39A C28A 1_555 1_555
C29A C28A 1_555 1_555
H40A C29A 1_555 1_555
H41A C29A 1_555 1_555
C30A C29A 1_555 1_555
H42A C30A 1_555 1_555
H43A C30A 1_555 1_555
H44A C30A 1_555 1_555
Cu3_2 N6A 1_555 1_555
N13A Cu3 1_555 1_555
H45A N13A 1_555 1_555
N14A Cu3 1_555 1_555
H46A N14A 1_555 1_555
C31A H47A 1_555 1_555
H48A C31A 1_555 1_555
C32A N13A 1_555 1_555
H49A C32A 1_555 1_555
C33A N13A 1_555 1_555
H50A C33A 1_555 1_555
H51A C33A 1_555 1_555
C34A C33A 1_555 1_555
H52A C34A 1_555 1_555
H53A C34A 1_555 1_555
C35A N14A 1_555 1_555
H54A C35A 1_555 1_555
C36A C35A 1_555 1_555
H55A C36A 1_555 1_555
H56A C36A 1_555 1_555
C37A C36A 1_555 1_555
H57A C37A 1_555 1_555
H58A C37A 1_555 1_555
H59A C37A 1_555 1_555
C38A N14 1_555 1_555
H60A C38A 1_555 1_555
C39A C38A 1_555 1_555
H61A C39A 1_555 1_555
H62A C39A 1_555 1_555
C40A C39A 1_555 1_555
H63A C40A 1_555 1_555
H64A C40A 1_555 1_555
C41A C31A 1_555 1_555
H65A C41A 1_555 1_555
H66A C41A 1_555 1_555
C10 C11 1_555 1_555
C13 C14 1_555 1_555
C15 C16 1_555 1_555
C17 N10A 1_555 1_555
C18 C19 1_555 1_555
C20 C21 1_555 1_555
C22 C27 1_555 1_555
C26 C27 1_555 1_555
C28 N12A 1_555 1_555
C31 C32 1_555 1_555
C34 C35 1_555 1_555
C38 N14A 1_555 1_555
C40 C41 1_555 1_555
C10A C11A 1_555 1_555
C11A C17A 1_555 1_555
C13A C14A 1_555 1_555
C15A C16A 1_555 1_555
C18A C19A 1_555 1_555
C20A C21A 1_555 1_555
C20A C28A 1_555 1_555
C22A C27A 1_555 1_555
C26A C27A 1_555 1_555
C31A C32A 1_555 1_555
C32A C38A 1_555 1_555
C34A C35A 1_555 1_555
C40A C41A 1_555 1_555

#END
