
#######################################################################
#
#                 Cambridge Crystallographic Data Centre
#                                CCDC 
#
#######################################################################
#
# If this CIF has been generated from an entry in the Cambridge 
# Structural Database, then it will include bibliographic, chemical, 
# crystal, experimental, refinement or atomic coordinate data resulting 
# from the CCDC's data processing and validation procedures.
#
#######################################################################

data_REPMUW
_symmetry_cell_setting           monoclinic
_symmetry_space_group_name_H-M   'P 21/c'
_symmetry_Int_Tables_number      14
_space_group_name_Hall           '-P 2ybc'
loop_
_symmetry_equiv_pos_site_id
_symmetry_equiv_pos_as_xyz
1 x,y,z
2 -x,1/2+y,1/2-z
3 -x,-y,-z
4 x,1/2-y,1/2+z
_cell_length_a                   11.1943(6)
_cell_length_b                   15.6877(13)
_cell_length_c                   9.8087(6)
_cell_angle_alpha                90
_cell_angle_beta                 93.125(6)
_cell_angle_gamma                90
_cell_volume                     1719.97
loop_
_atom_site_label
_atom_site_type_symbol
_atom_site_fract_x
_atom_site_fract_y
_atom_site_fract_z
Tb1 Tb 0.663812(18) 0.022281(12) -0.070428(19)
C1 C 0.7221(4) -0.3510(3) 0.3971(5)
C2 C 0.6240(4) 0.0231(2) 0.2146(4)
C3 C 0.6683(4) 0.1476(3) 0.6467(5)
C4 C 0.9457(4) 0.0963(4) 0.8976(5)
C5 C 0.7611(6) -0.2599(3) 0.3769(6)
H1 H 0.8011 -0.2559 0.2918
H2 H 0.6907 -0.2238 0.3690
C6 C 0.5978(5) 0.0178(3) 0.3641(5)
H3 H 0.5286 0.0530 0.3799
H4 H 0.5773 -0.0406 0.3855
C7 C 0.7027(5) 0.1325(3) 0.4992(4)
H5 H 0.6501 0.1660 0.4385
H6 H 0.7836 0.1530 0.4900
C8 C 1.0316(4) 0.0748(4) 0.7891(4)
H7 H 1.0172 0.1137 0.7131
H8 H 1.1124 0.0849 0.8263
C9 C 0.8443(4) -0.1466(3) 0.5195(5)
C10 C 0.7780(4) -0.0114(3) 0.5055(4)
C11 C 0.9396(4) -0.0367(3) 0.6470(5)
N1 N 0.8408(4) -0.2284(3) 0.4871(4)
H9 H 0.8867 -0.2636 0.5323
N2 N 0.6966(4) 0.0448(3) 0.4560(4)
N3 N 1.0248(4) -0.0115(3) 0.7372(4)
H10 H 1.0780 -0.0478 0.7659
N4 N 0.9323(3) -0.1214(3) 0.6149(4)
N5 N 0.7668(4) -0.0923(2) 0.4632(4)
N6 N 0.8645(4) 0.0204(2) 0.5926(4)
O1 O 0.7257(4) -0.3828(3) 0.5131(4)
O2 O 0.6839(4) -0.3929(2) 0.2930(4)
O3 O 0.5404(3) 0.0027(3) 0.1280(3)
O4 O 0.7235(3) 0.0460(2) 0.1762(3)
O5 O 0.6424(3) 0.0843(2) 0.7161(3)
O6 O 0.6712(4) 0.2229(3) 0.6877(4)
O7 O 0.8617(3) 0.0443(3) 0.9168(4)
O8 O 0.9629(4) 0.1642(3) 0.9584(4)
O9 O 0.6180(6) 0.1638(3) -0.0231(6)
H11 H 0.6253 0.1732 0.0623
H12 H 0.5462 0.1744 -0.0508
Tb1_2 Tb 0.663812(18) 0.022281(12) 0.929572(19)
Tb1B Tb 0.336188(18) -0.022281(12) 0.070428(19)
Tb1C Tb 0.663812(18) -0.522281(12) 0.429572(19)
O1C O 0.7257(4) -0.1172(3) 0.0131(4)
O2C O 0.6839(4) -0.1071(2) -0.2070(4)
O3B O 0.4596(3) -0.0027(3) -0.1280(3)
O5_2 O 0.6424(3) 0.0843(2) -0.2839(3)
O7_2 O 0.8617(3) 0.0443(3) -0.0832(4)
O10 O 0.9123(4) 0.2074(3) 0.2133(4)
H13 H 0.8464 0.2226 0.2362
H14 H 0.9171 0.1992 0.1338
O11 O 0.4532(10) 0.2725(7) -0.1374(14)
H15 H 0.4486 0.3021 -0.0653
H16 H 0.4441 0.3054 -0.2059
loop_
_geom_bond_atom_site_label_1
_geom_bond_atom_site_label_2
_geom_bond_site_symmetry_1
_geom_bond_site_symmetry_2
Tb1 O3 1_555 1_555
C1 C5 1_555 1_555
C2 C6 1_555 1_555
C3 C7 1_555 1_555
C4 C8 1_555 1_555
C5 H1 1_555 1_555
H2 C5 1_555 1_555
C6 H3 1_555 1_555
H4 C6 1_555 1_555
C7 H5 1_555 1_555
H6 C7 1_555 1_555
C8 H7 1_555 1_555
H8 C8 1_555 1_555
C9 N1 1_555 1_555
C10 N2 1_555 1_555
C11 N3 1_555 1_555
N1 C5 1_555 1_555
H9 N1 1_555 1_555
N2 C6 1_555 1_555
N3 C8 1_555 1_555
H10 N3 1_555 1_555
N4 C9 1_555 1_555
N5 C9 1_555 1_555
N6 C10 1_555 1_555
O1 C1 1_555 1_555
O2 C1 1_555 1_555
O3 C2 1_555 1_555
O4 Tb1 1_555 1_555
O5 C3 1_555 1_555
O6 C3 1_555 1_555
O7 C4 1_555 1_555
O8 C4 1_555 1_555
O9 Tb1 1_555 1_555
H11 O9 1_555 1_555
H12 O9 1_555 1_555
O10 H13 1_555 1_555
H14 O10 1_555 1_555
O11 H15 1_555 1_555
H16 O11 1_555 1_555
Tb1_2 O5 1_555 1_555
Tb1B O3 1_555 1_555
Tb1C O1 1_555 1_555
O1C Tb1 1_555 1_555
O2C Tb1 1_555 1_555
O3B Tb1 1_555 1_555
O5_2 Tb1 1_555 1_555
O7_2 Tb1 1_555 1_555
C2 O4 1_555 1_555
C7 N2 1_555 1_555
C10 N5 1_555 1_555
C11 N4 1_555 1_555
C11 N6 1_555 1_555
O2 Tb1C 1_555 1_555
O7 Tb1_2 1_555 1_555
Tb1B O3B 1_555 1_555

#END
