
#######################################################################
#
#                 Cambridge Crystallographic Data Centre
#                                CCDC 
#
#######################################################################
#
# If this CIF has been generated from an entry in the Cambridge 
# Structural Database, then it will include bibliographic, chemical, 
# crystal, experimental, refinement or atomic coordinate data resulting 
# from the CCDC's data processing and validation procedures.
#
#######################################################################

data_REPNEH
_symmetry_cell_setting           monoclinic
_symmetry_space_group_name_H-M   'P 21/c'
_symmetry_Int_Tables_number      14
_space_group_name_Hall           '-P 2ybc'
loop_
_symmetry_equiv_pos_site_id
_symmetry_equiv_pos_as_xyz
1 x,y,z
2 -x,1/2+y,1/2-z
3 -x,-y,-z
4 x,1/2-y,1/2+z
_cell_length_a                   11.252(6)
_cell_length_b                   15.764(9)
_cell_length_c                   9.851(6)
_cell_angle_alpha                90
_cell_angle_beta                 93.173(8)
_cell_angle_gamma                90
_cell_volume                     1744.66
loop_
_atom_site_label
_atom_site_type_symbol
_atom_site_fract_x
_atom_site_fract_y
_atom_site_fract_z
Eu1 Eu 0.66460(3) 0.02223(2) -0.07132(3)
C1 C 0.7250(7) -0.3485(5) 0.3984(8)
C2 C 0.6256(7) 0.0222(4) 0.2151(7)
C3 C 0.6697(8) 0.1472(5) 0.6451(8)
C4 C 0.9477(7) 0.0974(6) 0.8965(8)
C5 C 0.7624(11) -0.2581(6) 0.3779(9)
H1 H 0.8025 -0.2536 0.2935
H2 H 0.6924 -0.2222 0.3707
C6 C 0.5996(7) 0.0166(5) 0.3641(8)
H3 H 0.5306 0.0514 0.3801
H4 H 0.5797 -0.0416 0.3853
C7 C 0.7057(8) 0.1307(5) 0.4983(7)
H5 H 0.6548 0.1644 0.4365
H6 H 0.7868 0.1502 0.4903
C8 C 1.0318(7) 0.0744(6) 0.7898(8)
H7 H 1.0179 0.1131 0.7141
H8 H 1.1121 0.0845 0.8271
C9 C 0.8456(7) -0.1463(5) 0.5212(7)
C10 C 0.7794(7) -0.0119(4) 0.5063(7)
C11 C 0.9397(7) -0.0369(5) 0.6482(8)
N1 N 0.8419(6) -0.2284(4) 0.4899(7)
H9 H 0.8863 -0.2639 0.5356
N2 N 0.6984(6) 0.0439(4) 0.4562(6)
N3 N 1.0270(6) -0.0121(5) 0.7357(7)
H10 H 1.0818 -0.0477 0.7611
N4 N 0.9330(6) -0.1213(4) 0.6162(7)
N5 N 0.7683(6) -0.0928(4) 0.4642(6)
N6 N 0.8655(6) 0.0197(4) 0.5922(6)
O1 O 0.7287(6) -0.3815(4) 0.5145(6)
O2 O 0.6848(6) -0.3898(4) 0.2941(6)
O3 O 0.5413(5) 0.0024(4) 0.1297(5)
O4 O 0.7235(5) 0.0456(4) 0.1773(5)
O5 O 0.6431(5) 0.0847(4) 0.7144(5)
O6 O 0.6714(7) 0.2229(4) 0.6842(7)
O7 O 0.8637(5) 0.0451(5) 0.9168(6)
O8 O 0.9649(6) 0.1643(5) 0.9563(7)
O9 O 0.6152(10) 0.1626(5) -0.0214(9)
H11 H 0.6225 0.1720 0.0639
H12 H 0.5434 0.1732 -0.0491
Eu1_2 Eu 0.66460(3) 0.02223(2) 0.92868(3)
Eu1B Eu 0.33540(3) -0.02223(2) 0.07132(3)
Eu1C Eu 0.66460(3) -0.52223(2) 0.42868(3)
O1C O 0.7287(6) -0.1185(4) 0.0145(6)
O2C O 0.6848(6) -0.1102(4) -0.2059(6)
O3B O 0.4587(5) -0.0024(4) -0.1297(5)
O5_2 O 0.6431(5) 0.0847(4) -0.2856(5)
O7_2 O 0.8637(5) 0.0451(5) -0.0832(6)
O10 O 0.9126(6) 0.2068(5) 0.2111(7)
H13 H 0.8467 0.2220 0.2341
H14 H 0.9174 0.1986 0.1317
O11 O 0.4531(13) 0.2745(9) -0.1351(19)
H15 H 0.4486 0.3041 -0.0630
H16 H 0.4440 0.3074 -0.2037
loop_
_geom_bond_atom_site_label_1
_geom_bond_atom_site_label_2
_geom_bond_site_symmetry_1
_geom_bond_site_symmetry_2
Eu1 O3 1_555 1_555
C1 C5 1_555 1_555
C2 C6 1_555 1_555
C3 C7 1_555 1_555
C4 C8 1_555 1_555
C5 H1 1_555 1_555
H2 C5 1_555 1_555
C6 H3 1_555 1_555
H4 C6 1_555 1_555
C7 H5 1_555 1_555
H6 C7 1_555 1_555
C8 H7 1_555 1_555
H8 C8 1_555 1_555
C9 N1 1_555 1_555
C10 N2 1_555 1_555
C11 N3 1_555 1_555
N1 C5 1_555 1_555
H9 N1 1_555 1_555
N2 C6 1_555 1_555
N3 C8 1_555 1_555
H10 N3 1_555 1_555
N4 C9 1_555 1_555
N5 C9 1_555 1_555
N6 C10 1_555 1_555
O1 C1 1_555 1_555
O2 C1 1_555 1_555
O3 C2 1_555 1_555
O4 Eu1 1_555 1_555
O5 C3 1_555 1_555
O6 C3 1_555 1_555
O7 C4 1_555 1_555
O8 C4 1_555 1_555
O9 Eu1 1_555 1_555
H11 O9 1_555 1_555
H12 O9 1_555 1_555
O10 H13 1_555 1_555
H14 O10 1_555 1_555
O11 H15 1_555 1_555
H16 O11 1_555 1_555
Eu1_2 O5 1_555 1_555
Eu1B O3 1_555 1_555
Eu1C O1 1_555 1_555
O1C Eu1 1_555 1_555
O2C Eu1 1_555 1_555
O3B Eu1 1_555 1_555
O5_2 Eu1 1_555 1_555
O7_2 Eu1 1_555 1_555
C2 O4 1_555 1_555
C7 N2 1_555 1_555
C10 N5 1_555 1_555
C11 N4 1_555 1_555
C11 N6 1_555 1_555
O2 Eu1C 1_555 1_555
O7 Eu1_2 1_555 1_555
Eu1B O3B 1_555 1_555

#END
