
#######################################################################
#
#                 Cambridge Crystallographic Data Centre
#                                CCDC 
#
#######################################################################
#
# If this CIF has been generated from an entry in the Cambridge 
# Structural Database, then it will include bibliographic, chemical, 
# crystal, experimental, refinement or atomic coordinate data resulting 
# from the CCDC's data processing and validation procedures.
#
#######################################################################

data_REPNAD
_symmetry_cell_setting           monoclinic
_symmetry_space_group_name_H-M   'P 21/c'
_symmetry_Int_Tables_number      14
_space_group_name_Hall           '-P 2ybc'
loop_
_symmetry_equiv_pos_site_id
_symmetry_equiv_pos_as_xyz
1 x,y,z
2 -x,1/2+y,1/2-z
3 -x,-y,-z
4 x,1/2-y,1/2+z
_cell_length_a                   11.225(4)
_cell_length_b                   15.717(5)
_cell_length_c                   9.817(3)
_cell_angle_alpha                90
_cell_angle_beta                 93.160(5)
_cell_angle_gamma                90
_cell_volume                     1729.31
loop_
_atom_site_label
_atom_site_type_symbol
_atom_site_fract_x
_atom_site_fract_y
_atom_site_fract_z
Gd1 Gd 0.66422(4) 0.02216(3) -0.07094(4)
C1 C 0.7217(9) -0.3502(7) 0.3972(11)
C2 C 0.6241(8) 0.0233(6) 0.2157(10)
C3 C 0.6674(10) 0.1465(7) 0.6467(10)
C4 C 0.9454(9) 0.0953(8) 0.8988(12)
C5 C 0.7594(14) -0.2591(8) 0.3783(13)
H1 H 0.7981 -0.2541 0.2927
H2 H 0.6889 -0.2233 0.3725
C6 C 0.5989(9) 0.0164(7) 0.3645(10)
H3 H 0.5292 0.0504 0.3815
H4 H 0.5803 -0.0424 0.3849
C7 C 0.7039(10) 0.1311(6) 0.4985(10)
H5 H 0.6521 0.1645 0.4369
H6 H 0.7848 0.1515 0.4906
C8 C 1.0321(9) 0.0724(8) 0.7894(11)
H7 H 1.0194 0.1121 0.7143
H8 H 1.1127 0.0812 0.8276
C9 C 0.8447(8) -0.1468(7) 0.5205(10)
C10 C 0.7774(8) -0.0107(6) 0.5051(9)
C11 C 0.9402(9) -0.0366(7) 0.6489(11)
N1 N 0.8407(8) -0.2284(6) 0.4888(10)
H9 H 0.8863 -0.2638 0.5335
N2 N 0.6982(8) 0.0443(5) 0.4562(8)
N3 N 1.0248(8) -0.0123(6) 0.7350(9)
H10 H 1.0790 -0.0484 0.7607
N4 N 0.9330(7) -0.1217(6) 0.6162(9)
N5 N 0.7683(7) -0.0923(5) 0.4647(8)
N6 N 0.8649(8) 0.0197(5) 0.5926(9)
O1 O 0.7285(8) -0.3821(6) 0.5147(9)
O2 O 0.6849(8) -0.3913(5) 0.2935(8)
O3 O 0.5415(6) 0.0021(5) 0.1271(7)
O4 O 0.7232(6) 0.0465(5) 0.1773(8)
O5 O 0.6439(7) 0.0842(5) 0.7150(8)
O6 O 0.6715(10) 0.2226(6) 0.6850(10)
O7 O 0.8629(7) 0.0442(6) 0.9176(9)
O8 O 0.9640(9) 0.1642(7) 0.9564(10)
O9 O 0.6182(12) 0.1642(6) -0.0241(12)
H11 H 0.6255 0.1736 0.0613
H12 H 0.5465 0.1748 -0.0518
Gd1_2 Gd 0.66422(4) 0.02216(3) 0.92906(4)
Gd1B Gd 0.33578(4) -0.02216(3) 0.07094(4)
Gd1C Gd 0.66422(4) -0.52216(3) 0.42906(4)
O1C O 0.7285(8) -0.1179(6) 0.0147(9)
O2C O 0.6849(8) -0.1087(5) -0.2065(8)
O3B O 0.4585(6) -0.0021(5) -0.1271(7)
O5_2 O 0.6439(7) 0.0842(5) -0.2850(8)
O7_2 O 0.8629(7) 0.0442(6) -0.0824(9)
O10 O 0.9123(8) 0.2073(6) 0.2104(9)
H13 H 0.8464 0.2224 0.2334
H14 H 0.9171 0.1991 0.1310
O11 O 0.4517(19) 0.2717(13) -0.135(3)
H15 H 0.4471 0.3013 -0.0629
H16 H 0.4426 0.3046 -0.2035
loop_
_geom_bond_atom_site_label_1
_geom_bond_atom_site_label_2
_geom_bond_site_symmetry_1
_geom_bond_site_symmetry_2
Gd1 O3 1_555 1_555
C1 C5 1_555 1_555
C2 C6 1_555 1_555
C3 C7 1_555 1_555
C4 C8 1_555 1_555
C5 H1 1_555 1_555
H2 C5 1_555 1_555
C6 H3 1_555 1_555
H4 C6 1_555 1_555
C7 H5 1_555 1_555
H6 C7 1_555 1_555
C8 H7 1_555 1_555
H8 C8 1_555 1_555
C9 N1 1_555 1_555
C10 N2 1_555 1_555
C11 N3 1_555 1_555
N1 C5 1_555 1_555
H9 N1 1_555 1_555
N2 C6 1_555 1_555
N3 C8 1_555 1_555
H10 N3 1_555 1_555
N4 C9 1_555 1_555
N5 C9 1_555 1_555
N6 C10 1_555 1_555
O1 C1 1_555 1_555
O2 C1 1_555 1_555
O3 C2 1_555 1_555
O4 Gd1 1_555 1_555
O5 C3 1_555 1_555
O6 C3 1_555 1_555
O7 C4 1_555 1_555
O8 C4 1_555 1_555
O9 Gd1 1_555 1_555
H11 O9 1_555 1_555
H12 O9 1_555 1_555
O10 H13 1_555 1_555
H14 O10 1_555 1_555
O11 H15 1_555 1_555
H16 O11 1_555 1_555
Gd1_2 O5 1_555 1_555
Gd1B O3 1_555 1_555
Gd1C O1 1_555 1_555
O1C Gd1 1_555 1_555
O2C Gd1 1_555 1_555
O3B Gd1 1_555 1_555
O5_2 Gd1 1_555 1_555
O7_2 Gd1 1_555 1_555
C2 O4 1_555 1_555
C7 N2 1_555 1_555
C10 N5 1_555 1_555
C11 N4 1_555 1_555
C11 N6 1_555 1_555
O2 Gd1C 1_555 1_555
O7 Gd1_2 1_555 1_555
Gd1B O3B 1_555 1_555

#END
