
#######################################################################
#
#                 Cambridge Crystallographic Data Centre
#                                CCDC 
#
#######################################################################
#
# If this CIF has been generated from an entry in the Cambridge 
# Structural Database, then it will include bibliographic, chemical, 
# crystal, experimental, refinement or atomic coordinate data resulting 
# from the CCDC's data processing and validation procedures.
#
#######################################################################

data_REPNUX
_symmetry_cell_setting           monoclinic
_symmetry_space_group_name_H-M   'C c'
_symmetry_Int_Tables_number      9
_space_group_name_Hall           'C -2yc'
loop_
_symmetry_equiv_pos_site_id
_symmetry_equiv_pos_as_xyz
1 x,y,z
2 x,-y,1/2+z
3 1/2+x,1/2+y,z
4 1/2+x,1/2-y,1/2+z
_cell_length_a                   9.5151(17)
_cell_length_b                   16.613(3)
_cell_length_c                   7.1278(13)
_cell_angle_alpha                90
_cell_angle_beta                 104.665(4)
_cell_angle_gamma                90
_cell_volume                     1090.02
loop_
_atom_site_label
_atom_site_type_symbol
_atom_site_fract_x
_atom_site_fract_y
_atom_site_fract_z
Ag1 Ag 0.43020(10) 0.61716(3) 0.57376(11)
N1 N 0.4779(7) 0.4884(4) 0.6001(10)
N2 N 0.6952(7) 0.5909(4) 0.7845(10)
N3 N 0.8059(7) 0.6436(4) 0.8838(10)
N4 N 1.0000(9) 0.6972(4) 1.0662(13)
N5 N 0.8991(9) 0.7570(4) 0.9938(11)
C1 C 0.3787(9) 0.4349(6) 0.5176(15)
H1 H 0.2899 0.4537 0.4435
C2 C 0.4001(12) 0.3500(6) 0.5356(19)
H2 H 0.3274 0.3141 0.4760
C3 C 0.5309(11) 0.3236(6) 0.6434(14)
H3 H 0.5485 0.2687 0.6601
C4 C 0.6360(10) 0.3771(5) 0.7267(14)
H4 H 0.7260 0.3592 0.7992
C5 C 0.6076(9) 0.4583(5) 0.7026(11)
C6 C 0.7177(9) 0.5158(5) 0.7949(13)
H5 H 0.8079 0.4969 0.8642
C7 C 0.9408(11) 0.6291(5) 0.9960(14)
H6 H 0.9844 0.5787 1.0194
C8 C 0.7850(10) 0.7221(5) 0.8866(13)
H7 H 0.7007 0.7485 0.8211
O1 O 0.1721(8) 0.6374(4) 0.6279(13)
O2 O 0.0844(9) 0.5422(5) 0.4253(14)
O3 O -0.0584(17) 0.6084(4) 0.552(2)
N6 N 0.0669(9) 0.5973(5) 0.5363(13)
Ag1C Ag 0.93020(10) 0.88284(3) 1.07376(11)
N5C N 0.3991(9) 0.7430(4) 0.4938(11)
loop_
_geom_bond_atom_site_label_1
_geom_bond_atom_site_label_2
_geom_bond_site_symmetry_1
_geom_bond_site_symmetry_2
Ag1 N1 1_555 1_555
N1 C1 1_555 1_555
N2 Ag1 1_555 1_555
N3 N2 1_555 1_555
N4 N5 1_555 1_555
N5 C8 1_555 1_555
C1 H1 1_555 1_555
C2 C1 1_555 1_555
H2 C2 1_555 1_555
C3 C2 1_555 1_555
H3 C3 1_555 1_555
C4 C3 1_555 1_555
H4 C4 1_555 1_555
C5 N1 1_555 1_555
C6 N2 1_555 1_555
H5 C6 1_555 1_555
C7 N3 1_555 1_555
H6 C7 1_555 1_555
C8 N3 1_555 1_555
H7 C8 1_555 1_555
O1 Ag1 1_555 1_555
O2 N6 1_555 1_555
O3 N6 1_555 1_555
N6 O1 1_555 1_555
Ag1C N5 1_555 1_555
N5C Ag1 1_555 1_555
N4 C7 1_555 1_555
C4 C5 1_555 1_555
C5 C6 1_555 1_555

#END
