
#######################################################################
#
#                 Cambridge Crystallographic Data Centre
#                                CCDC 
#
#######################################################################
#
# If this CIF has been generated from an entry in the Cambridge 
# Structural Database, then it will include bibliographic, chemical, 
# crystal, experimental, refinement or atomic coordinate data resulting 
# from the CCDC's data processing and validation procedures.
#
#######################################################################

data_REPPEI
_symmetry_cell_setting           monoclinic
_symmetry_space_group_name_H-M   'P 21/n'
_symmetry_Int_Tables_number      14
_space_group_name_Hall           '-P 2yn'
loop_
_symmetry_equiv_pos_site_id
_symmetry_equiv_pos_as_xyz
1 x,y,z
2 1/2-x,1/2+y,1/2-z
3 -x,-y,-z
4 1/2+x,1/2-y,1/2+z
_cell_length_a                   11.4282(7)
_cell_length_b                   16.1696(9)
_cell_length_c                   11.5471(7)
_cell_angle_alpha                90.00
_cell_angle_beta                 91.5300(10)
_cell_angle_gamma                90.00
_cell_volume                     2133.02
loop_
_atom_site_label
_atom_site_type_symbol
_atom_site_fract_x
_atom_site_fract_y
_atom_site_fract_z
Pb1 Pb -0.359780(12) 0.042180(8) -0.157310(12)
S1 S -0.36238(9) 0.09530(6) -0.85447(8)
N1 N -0.1996(3) -0.06322(19) -0.1239(3)
N2 N -0.1596(3) 0.09448(18) -0.1832(3)
N3 N -0.4940(4) 0.3203(2) -0.0717(4)
O1 O -0.3485(3) -0.04247(17) -0.3371(3)
O2 O -0.3428(3) 0.08938(19) -0.3865(3)
O3 O -0.3650(3) -0.15572(18) -0.4851(3)
O4 O -0.2858(3) 0.06234(18) -0.9428(2)
O5 O -0.4841(3) 0.09556(19) -0.8959(3)
O6 O -0.3227(3) 0.17264(17) -0.8071(3)
O7 O -0.4179(4) 0.2032(2) -0.1434(3)
C1 C -0.3475(4) 0.0154(3) -0.4137(4)
C2 C -0.3533(3) -0.0117(2) -0.5373(3)
C3 C -0.3594(4) -0.0961(2) -0.5661(4)
C4 C -0.3584(4) -0.1202(3) -0.6811(4)
H1 H -0.3598 -0.1761 -0.7000
C5 C -0.3554(4) -0.0621(2) -0.7673(4)
H2 H -0.3535 -0.0788 -0.8442
C6 C -0.3552(3) 0.0220(2) -0.7407(3)
C7 C -0.3531(3) 0.0464(2) -0.6258(4)
H3 H -0.3516 0.1024 -0.6077
C8 C -0.2255(4) -0.1413(2) -0.0979(4)
H4 H -0.3037 -0.1561 -0.0912
C9 C -0.1401(5) -0.2015(3) -0.0805(4)
H5 H -0.1601 -0.2560 -0.0645
C10 C -0.0254(5) -0.1777(3) -0.0878(4)
H6 H 0.0339 -0.2162 -0.0744
C11 C 0.0025(4) -0.0977(3) -0.1148(4)
H7 H 0.0803 -0.0815 -0.1198
C12 C -0.0877(4) -0.0409(2) -0.1346(4)
C13 C -0.0649(4) 0.0456(2) -0.1682(4)
C14 C 0.0459(4) 0.0766(3) -0.1846(5)
H8 H 0.1111 0.0428 -0.1731
C15 C 0.0601(4) 0.1578(3) -0.2180(5)
H9 H 0.1345 0.1788 -0.2300
C16 C -0.0370(4) 0.2075(3) -0.2334(4)
H10 H -0.0296 0.2625 -0.2556
C17 C -0.1444(4) 0.1736(3) -0.2149(4)
H11 H -0.2103 0.2069 -0.2248
C18 C -0.4112(6) 0.2679(4) -0.1013(6)
H12 H -0.3352 0.2860 -0.0857
C19 C -0.4670(10) 0.4009(5) -0.0320(9)
H13 H -0.5379 0.4323 -0.0259
H14 H -0.4165 0.4276 -0.0857
H15 H -0.4282 0.3977 0.0427
C20 C -0.6098(6) 0.2976(6) -0.0858(8)
H16 H -0.6590 0.3421 -0.0616
H17 H -0.6246 0.2495 -0.0396
H18 H -0.6265 0.2853 -0.1658
H19 H -0.354(5) -0.128(3) -0.423(3)
Pb1B Pb -0.640220(12) -0.042180(8) -0.842690(12)
Pb1_2 Pb -0.359780(12) 0.042180(8) -1.157310(12)
O4_2 O -0.2858(3) 0.06234(18) 0.0572(2)
O5B O -0.5159(3) -0.09556(19) -0.1041(3)
loop_
_geom_bond_atom_site_label_1
_geom_bond_atom_site_label_2
_geom_bond_site_symmetry_1
_geom_bond_site_symmetry_2
Pb1 N1 1_555 1_555
S1 O4 1_555 1_555
N1 C8 1_555 1_555
N2 Pb1 1_555 1_555
N3 C18 1_555 1_555
O1 Pb1 1_555 1_555
O2 Pb1 1_555 1_555
O3 C3 1_555 1_555
O4 Pb1_2 1_555 1_555
O5 S1 1_555 1_555
O6 S1 1_555 1_555
O7 Pb1 1_555 1_555
C1 O1 1_555 1_555
C2 C1 1_555 1_555
C3 C2 1_555 1_555
C4 C3 1_555 1_555
H1 C4 1_555 1_555
C5 C4 1_555 1_555
H2 C5 1_555 1_555
C6 S1 1_555 1_555
C7 C2 1_555 1_555
H3 C7 1_555 1_555
C8 H4 1_555 1_555
C9 C8 1_555 1_555
H5 C9 1_555 1_555
C10 C9 1_555 1_555
H6 C10 1_555 1_555
C11 C10 1_555 1_555
H7 C11 1_555 1_555
C12 N1 1_555 1_555
C13 N2 1_555 1_555
C14 C13 1_555 1_555
H8 C14 1_555 1_555
C15 C14 1_555 1_555
H9 C15 1_555 1_555
C16 C15 1_555 1_555
H10 C16 1_555 1_555
C17 N2 1_555 1_555
H11 C17 1_555 1_555
C18 O7 1_555 1_555
H12 C18 1_555 1_555
C19 N3 1_555 1_555
H13 C19 1_555 1_555
H14 C19 1_555 1_555
H15 C19 1_555 1_555
C20 N3 1_555 1_555
H16 C20 1_555 1_555
H17 C20 1_555 1_555
H18 C20 1_555 1_555
H19 O3 1_555 1_555
Pb1B O5 1_555 1_555
O4_2 Pb1 1_555 1_555
O5B Pb1 1_555 1_555
O2 C1 1_555 1_555
C5 C6 1_555 1_555
C6 C7 1_555 1_555
C11 C12 1_555 1_555
C12 C13 1_555 1_555
C16 C17 1_555 1_555

#END
