
#######################################################################
#
#                 Cambridge Crystallographic Data Centre
#                                CCDC 
#
#######################################################################
#
# If this CIF has been generated from an entry in the Cambridge 
# Structural Database, then it will include bibliographic, chemical, 
# crystal, experimental, refinement or atomic coordinate data resulting 
# from the CCDC's data processing and validation procedures.
#
#######################################################################

data_REPPOS
_symmetry_cell_setting           monoclinic
_symmetry_space_group_name_H-M   'P 21/n'
_symmetry_Int_Tables_number      14
_space_group_name_Hall           '-P 2yn'
loop_
_symmetry_equiv_pos_site_id
_symmetry_equiv_pos_as_xyz
1 x,y,z
2 1/2-x,1/2+y,1/2-z
3 -x,-y,-z
4 1/2+x,1/2-y,1/2+z
_cell_length_a                   11.4005(5)
_cell_length_b                   15.2010(7)
_cell_length_c                   12.6626(6)
_cell_angle_alpha                90.00
_cell_angle_beta                 94.6270(10)
_cell_angle_gamma                90.00
_cell_volume                     2187.26
loop_
_atom_site_label
_atom_site_type_symbol
_atom_site_fract_x
_atom_site_fract_y
_atom_site_fract_z
Pb1 Pb -0.155020(11) 0.043730(9) 0.117460(10)
S1 S -0.84970(8) 0.10951(6) 0.12405(7)
O1 O -0.3807(2) 0.0865(2) 0.1190(2)
O2 O -0.3339(2) -0.05371(18) 0.1378(3)
O3 O -0.4898(3) -0.16993(19) 0.1539(3)
H1 H -0.4241 -0.1502 0.1462
O4 O -0.9385(2) 0.0822(2) 0.1943(2)
O5 O -0.8962(3) 0.1059(2) 0.0134(2)
O6 O -0.7937(3) 0.19162(19) 0.1536(3)
O7 O -0.1473(3) 0.2189(3) 0.0892(4)
N1 N -0.1781(3) 0.0929(2) 0.3012(2)
N2 N -0.1039(3) -0.0728(2) 0.2569(2)
N3 N -0.0777(3) 0.3325(3) 0.0002(3)
C1 C -0.4096(3) 0.0087(3) 0.1298(3)
C2 C -0.5357(3) -0.0155(2) 0.1368(3)
C3 C -0.5678(3) -0.1037(3) 0.1522(3)
C4 C -0.6842(4) -0.1241(3) 0.1666(3)
H2 H -0.7051 -0.1817 0.1812
C5 C -0.7685(4) -0.0594(3) 0.1593(3)
H3 H -0.8464 -0.0738 0.1680
C6 C -0.7389(3) 0.0277(2) 0.1390(3)
C7 C -0.6230(4) 0.0485(2) 0.1290(3)
H4 H -0.6025 0.1066 0.1168
C8 C -0.2093(3) 0.1744(3) 0.3231(3)
H5 H -0.2179 0.2150 0.2680
C9 C -0.2299(4) 0.2024(3) 0.4250(4)
H6 H -0.2530 0.2600 0.4371
C10 C -0.2154(4) 0.1436(3) 0.5066(3)
H7 H -0.2285 0.1609 0.5751
C11 C -0.1811(4) 0.0576(3) 0.4870(3)
C12 C -0.1606(4) -0.0083(4) 0.5684(3)
H8 H -0.1723 0.0064 0.6380
C13 C -0.1255(4) -0.0896(4) 0.5468(3)
H9 H -0.1128 -0.1302 0.6015
C14 C -0.1072(3) -0.1149(3) 0.4416(3)
C15 C -0.0715(4) -0.1998(3) 0.4147(3)
H10 H -0.0618 -0.2434 0.4663
C16 C -0.0510(4) -0.2180(3) 0.3121(3)
H11 H -0.0254 -0.2736 0.2938
C17 C -0.0688(3) -0.1531(2) 0.2355(3)
H12 H -0.0554 -0.1668 0.1659
C18 C -0.1243(3) -0.0536(2) 0.3591(3)
C19 C -0.1620(3) 0.0342(2) 0.3818(3)
C20 C -0.1255(6) 0.2537(4) 0.0101(6)
H13 H -0.1438 0.2225 -0.0523
C21 C -0.0672(6) 0.3688(5) -0.1052(5)
H14 H -0.0947 0.3265 -0.1577
H15 H 0.0137 0.3826 -0.1135
H16 H -0.1137 0.4214 -0.1138
C22 C -0.0407(7) 0.3860(5) 0.0877(6)
H17 H -0.0381 0.3516 0.1514
H18 H -0.0951 0.4337 0.0926
H19 H 0.0362 0.4090 0.0785
Pb1B Pb -0.844980(11) -0.043730(9) -0.117460(10)
Pb1_2 Pb -1.155020(11) 0.043730(9) 0.117460(10)
O4_2 O 0.0615(2) 0.0822(2) 0.1943(2)
O5B O -0.1038(3) -0.1059(2) -0.0134(2)
loop_
_geom_bond_atom_site_label_1
_geom_bond_atom_site_label_2
_geom_bond_site_symmetry_1
_geom_bond_site_symmetry_2
Pb1 O1 1_555 1_555
S1 O4 1_555 1_555
O1 C1 1_555 1_555
O2 Pb1 1_555 1_555
O3 H1 1_555 1_555
O4 Pb1_2 1_555 1_555
O5 S1 1_555 1_555
O6 S1 1_555 1_555
O7 Pb1 1_555 1_555
N1 Pb1 1_555 1_555
N2 Pb1 1_555 1_555
N3 C20 1_555 1_555
C1 O2 1_555 1_555
C2 C1 1_555 1_555
C3 O3 1_555 1_555
C4 C3 1_555 1_555
H2 C4 1_555 1_555
C5 C4 1_555 1_555
H3 C5 1_555 1_555
C6 S1 1_555 1_555
C7 C2 1_555 1_555
H4 C7 1_555 1_555
C8 N1 1_555 1_555
H5 C8 1_555 1_555
C9 C8 1_555 1_555
H6 C9 1_555 1_555
C10 C9 1_555 1_555
H7 C10 1_555 1_555
C11 C10 1_555 1_555
C12 C11 1_555 1_555
H8 C12 1_555 1_555
C13 C12 1_555 1_555
H9 C13 1_555 1_555
C14 C13 1_555 1_555
C15 C14 1_555 1_555
H10 C15 1_555 1_555
C16 C15 1_555 1_555
H11 C16 1_555 1_555
C17 N2 1_555 1_555
H12 C17 1_555 1_555
C18 N2 1_555 1_555
C19 N1 1_555 1_555
C20 O7 1_555 1_555
H13 C20 1_555 1_555
C21 N3 1_555 1_555
H14 C21 1_555 1_555
H15 C21 1_555 1_555
H16 C21 1_555 1_555
C22 N3 1_555 1_555
H17 C22 1_555 1_555
H18 C22 1_555 1_555
H19 C22 1_555 1_555
Pb1B O5 1_555 1_555
O4_2 Pb1 1_555 1_555
O5B Pb1 1_555 1_555
C2 C3 1_555 1_555
C5 C6 1_555 1_555
C6 C7 1_555 1_555
C11 C19 1_555 1_555
C14 C18 1_555 1_555
C16 C17 1_555 1_555
C18 C19 1_555 1_555

#END
