
#######################################################################
#
#                 Cambridge Crystallographic Data Centre
#                                CCDC 
#
#######################################################################
#
# If this CIF has been generated from an entry in the Cambridge 
# Structural Database, then it will include bibliographic, chemical, 
# crystal, experimental, refinement or atomic coordinate data resulting 
# from the CCDC's data processing and validation procedures.
#
#######################################################################

data_REPPUY
_symmetry_cell_setting           monoclinic
_symmetry_space_group_name_H-M   'P 21/c'
_symmetry_Int_Tables_number      14
_space_group_name_Hall           '-P 2ybc'
loop_
_symmetry_equiv_pos_site_id
_symmetry_equiv_pos_as_xyz
1 x,y,z
2 -x,1/2+y,1/2-z
3 -x,-y,-z
4 x,1/2-y,1/2+z
_cell_length_a                   11.7889(7)
_cell_length_b                   21.5596(12)
_cell_length_c                   18.6853(10)
_cell_angle_alpha                90.00
_cell_angle_beta                 106.2470(10)
_cell_angle_gamma                90.00
_cell_volume                     4559.47
loop_
_atom_site_label
_atom_site_type_symbol
_atom_site_fract_x
_atom_site_fract_y
_atom_site_fract_z
Pb1 Pb 0.148660(18) 0.344110(10) 0.214860(11)
Pb2 Pb -0.148100(18) 0.354710(10) 0.284990(11)
Pb3 Pb 0.492244(16) 0.266063(10) 0.244855(10)
S1 S 0.30760(15) 0.14493(7) 0.57568(8)
S2 S -0.29363(14) 0.14735(7) -0.07343(8)
O1 O 0.0764(3) 0.33382(18) 0.3192(2)
O2 O -0.0136(3) 0.2564(2) 0.3592(2)
O3 O 0.2999(3) 0.28934(18) 0.3072(2)
O4 O 0.1940(5) 0.1161(3) 0.5614(2)
O5 O 0.3257(5) 0.1841(2) 0.6413(2)
O6 O 0.4024(6) 0.1028(3) 0.5810(4)
O7 O -0.3251(4) 0.3099(3) 0.1996(3)
O8 O -0.4167(4) 0.2263(2) 0.1547(2)
O9 O -0.0955(3) 0.3216(2) 0.1742(2)
O10 O -0.3304(4) 0.1852(2) -0.1403(2)
O11 O -0.1976(4) 0.1073(2) -0.0778(2)
O12 O -0.3885(5) 0.1155(3) -0.0560(3)
N1 N 0.2446(4) 0.4353(2) 0.2927(3)
N2 N 0.0630(4) 0.4522(2) 0.1658(3)
N3 N -0.0491(5) 0.4646(2) 0.3281(3)
N4 N -0.2212(5) 0.4490(2) 0.1966(3)
N5 N 0.3929(4) 0.1659(2) 0.1819(3)
N6 N 0.5660(4) 0.1639(2) 0.3140(2)
C1 C 0.0776(5) 0.2814(3) 0.3549(3)
C2 C 0.1943(5) 0.2546(2) 0.3945(3)
C3 C 0.2993(5) 0.2650(2) 0.3722(3)
C4 C 0.4057(5) 0.2440(3) 0.4215(3)
H1 H 0.4765 0.2542 0.4116
C5 C 0.4095(5) 0.2092(3) 0.4829(3)
H2 H 0.4816 0.1954 0.5134
C6 C 0.3055(5) 0.1943(2) 0.5002(3)
C7 C 0.1999(5) 0.2185(2) 0.4561(3)
H3 H 0.1305 0.2100 0.4686
C8 C 0.3300(6) 0.4276(3) 0.3565(4)
H4 H 0.3565 0.3876 0.3708
C9 C 0.3803(7) 0.4765(4) 0.4020(4)
H5 H 0.4351 0.4691 0.4477
C10 C 0.3494(7) 0.5355(4) 0.3796(5)
H6 H 0.3852 0.5688 0.4090
C11 C 0.2626(6) 0.5460(3) 0.3114(4)
C12 C 0.2272(8) 0.6075(3) 0.2833(6)
H7 H 0.2631 0.6421 0.3100
C13 C 0.1424(8) 0.6150(4) 0.2185(6)
H8 H 0.1206 0.6549 0.2013
C14 C 0.0856(6) 0.5636(3) 0.1758(4)
C15 C -0.0054(7) 0.5685(5) 0.1067(5)
H9 H -0.0289 0.6075 0.0864
C16 C -0.0571(7) 0.5173(4) 0.0707(4)
H10 H -0.1157 0.5204 0.0257
C17 C -0.0213(6) 0.4599(4) 0.1022(3)
H11 H -0.0583 0.4247 0.0775
C18 C 0.1178(6) 0.5035(3) 0.2021(4)
C19 C 0.2109(5) 0.4942(3) 0.2701(3)
C20 C -0.3361(5) 0.2641(3) 0.1574(3)
C21 C -0.2568(4) 0.2545(2) 0.1089(3)
C22 C -0.1458(5) 0.2849(3) 0.1187(3)
C23 C -0.0877(5) 0.2725(3) 0.0630(3)
H12 H -0.0174 0.2932 0.0656
C24 C -0.1299(5) 0.2318(3) 0.0060(3)
H13 H -0.0882 0.2250 -0.0288
C25 C -0.2362(5) 0.2002(3) -0.0002(3)
C26 C -0.2978(5) 0.2128(3) 0.0508(3)
H14 H -0.3694 0.1928 0.0461
C27 C 0.0298(7) 0.4724(4) 0.3926(4)
H15 H 0.0630 0.4372 0.4191
C28 C 0.0668(8) 0.5299(5) 0.4240(5)
H16 H 0.1223 0.5328 0.4704
C29 C 0.0209(9) 0.5813(5) 0.3861(6)
H17 H 0.0467 0.6201 0.4058
C30 C -0.0668(8) 0.5771(4) 0.3159(5)
C31 C -0.1211(10) 0.6272(4) 0.2737(8)
H18 H -0.0989 0.6670 0.2912
C32 C -0.2045(10) 0.6205(4) 0.2085(7)
H19 H -0.2387 0.6555 0.1819
C33 C -0.2413(7) 0.5600(4) 0.1795(5)
C34 C -0.3278(8) 0.5480(5) 0.1097(5)
H20 H -0.3652 0.5809 0.0802
C35 C -0.3545(8) 0.4903(5) 0.0872(5)
H21 H -0.4087 0.4827 0.0413
C36 C -0.3027(6) 0.4420(4) 0.1312(4)
H22 H -0.3254 0.4019 0.1148
C37 C -0.1903(6) 0.5079(3) 0.2202(4)
C38 C -0.1002(6) 0.5159(3) 0.2904(4)
C39 C 0.3132(6) 0.1665(3) 0.1158(4)
H23 H 0.2823 0.2045 0.0958
C40 C 0.2737(8) 0.1125(4) 0.0747(4)
H24 H 0.2227 0.1151 0.0268
C41 C 0.3107(7) 0.0566(4) 0.1056(4)
H25 H 0.2817 0.0202 0.0804
C42 C 0.3928(6) 0.0544(3) 0.1757(4)
C43 C 0.4352(7) -0.0038(3) 0.2117(4)
H26 H 0.4055 -0.0409 0.1887
C44 C 0.5177(7) -0.0046(3) 0.2783(4)
H27 H 0.5453 -0.0424 0.3003
C45 C 0.5635(6) 0.0520(3) 0.3158(4)
C46 C 0.6486(6) 0.0526(3) 0.3847(4)
H28 H 0.6765 0.0155 0.4085
C47 C 0.6907(7) 0.1071(3) 0.4170(4)
H29 H 0.7460 0.1081 0.4636
C48 C 0.6489(6) 0.1626(3) 0.3785(3)
H30 H 0.6812 0.2000 0.3995
C49 C 0.5230(5) 0.1096(3) 0.2825(3)
C50 C 0.4334(5) 0.1106(3) 0.2116(3)
Pb1C Pb 0.148660(18) 0.155890(10) 0.714860(11)
Pb2C Pb -0.148100(18) 0.145290(10) -0.215010(11)
Pb3_2 Pb -0.507756(16) 0.266063(10) 0.244855(10)
Pb3C Pb 0.492244(16) 0.233937(10) 0.744855(10)
Pb3C_2 Pb -0.507756(16) 0.233937(10) -0.255145(10)
O5C O 0.3257(5) 0.3159(2) 0.1413(2)
O7_2 O 0.6749(4) 0.3099(3) 0.1996(3)
O8_2 O 0.5833(4) 0.2263(2) 0.1547(2)
O10C O 0.6696(4) 0.3148(2) 0.3597(2)
O10C_2 O -0.3304(4) 0.3148(2) 0.3597(2)
O11C O -0.1976(4) 0.3927(2) 0.4222(2)
loop_
_geom_bond_atom_site_label_1
_geom_bond_atom_site_label_2
_geom_bond_site_symmetry_1
_geom_bond_site_symmetry_2
Pb1 O1 1_555 1_555
Pb2 O1 1_555 1_555
Pb3 O3 1_555 1_555
S1 O4 1_555 1_555
S2 O10 1_555 1_555
O1 C1 1_555 1_555
O2 Pb2 1_555 1_555
O3 Pb1 1_555 1_555
O5 S1 1_555 1_555
O6 S1 1_555 1_555
O7 Pb2 1_555 1_555
O8 C20 1_555 1_555
O9 Pb1 1_555 1_555
O10 Pb2C 1_555 1_555
O11 S2 1_555 1_555
O12 S2 1_555 1_555
N1 Pb1 1_555 1_555
N2 Pb1 1_555 1_555
N3 Pb2 1_555 1_555
N4 Pb2 1_555 1_555
N5 Pb3 1_555 1_555
N6 Pb3 1_555 1_555
C1 O2 1_555 1_555
C2 C1 1_555 1_555
C3 O3 1_555 1_555
C4 C3 1_555 1_555
H1 C4 1_555 1_555
C5 C4 1_555 1_555
H2 C5 1_555 1_555
C6 S1 1_555 1_555
C7 C2 1_555 1_555
H3 C7 1_555 1_555
C8 N1 1_555 1_555
H4 C8 1_555 1_555
C9 C8 1_555 1_555
H5 C9 1_555 1_555
C10 C9 1_555 1_555
H6 C10 1_555 1_555
C11 C10 1_555 1_555
C12 C11 1_555 1_555
H7 C12 1_555 1_555
C13 C12 1_555 1_555
H8 C13 1_555 1_555
C14 C13 1_555 1_555
C15 C14 1_555 1_555
H9 C15 1_555 1_555
C16 C15 1_555 1_555
H10 C16 1_555 1_555
C17 N2 1_555 1_555
H11 C17 1_555 1_555
C18 N2 1_555 1_555
C19 N1 1_555 1_555
C20 O7 1_555 1_555
C21 C20 1_555 1_555
C22 O9 1_555 1_555
C23 C22 1_555 1_555
H12 C23 1_555 1_555
C24 C23 1_555 1_555
H13 C24 1_555 1_555
C25 S2 1_555 1_555
C26 C21 1_555 1_555
H14 C26 1_555 1_555
C27 N3 1_555 1_555
H15 C27 1_555 1_555
C28 C27 1_555 1_555
H16 C28 1_555 1_555
C29 C28 1_555 1_555
H17 C29 1_555 1_555
C30 C29 1_555 1_555
C31 C30 1_555 1_555
H18 C31 1_555 1_555
C32 C31 1_555 1_555
H19 C32 1_555 1_555
C33 C32 1_555 1_555
C34 C33 1_555 1_555
H20 C34 1_555 1_555
C35 C34 1_555 1_555
H21 C35 1_555 1_555
C36 N4 1_555 1_555
H22 C36 1_555 1_555
C37 N4 1_555 1_555
C38 N3 1_555 1_555
C39 N5 1_555 1_555
H23 C39 1_555 1_555
C40 C39 1_555 1_555
H24 C40 1_555 1_555
C41 C40 1_555 1_555
H25 C41 1_555 1_555
C42 C41 1_555 1_555
C43 C42 1_555 1_555
H26 C43 1_555 1_555
C44 C43 1_555 1_555
H27 C44 1_555 1_555
C45 C44 1_555 1_555
C46 C45 1_555 1_555
H28 C46 1_555 1_555
C47 C46 1_555 1_555
H29 C47 1_555 1_555
C48 N6 1_555 1_555
H30 C48 1_555 1_555
C49 N6 1_555 1_555
C50 N5 1_555 1_555
Pb1C O5 1_555 1_555
Pb2C O11 1_555 1_555
Pb3_2 O7 1_555 1_555
Pb3C O5 1_555 1_555
Pb3C_2 O10 1_555 1_555
O5C Pb1 1_555 1_555
O7_2 Pb3 1_555 1_555
O8_2 Pb3 1_555 1_555
O10C Pb3 1_555 1_555
O10C_2 Pb2 1_555 1_555
O11C Pb2 1_555 1_555
Pb2 O9 1_555 1_555
Pb3 O5C 1_555 1_555
O8 Pb3_2 1_555 1_555
C2 C3 1_555 1_555
C5 C6 1_555 1_555
C6 C7 1_555 1_555
C11 C19 1_555 1_555
C14 C18 1_555 1_555
C16 C17 1_555 1_555
C18 C19 1_555 1_555
C21 C22 1_555 1_555
C24 C25 1_555 1_555
C25 C26 1_555 1_555
C30 C38 1_555 1_555
C33 C37 1_555 1_555
C35 C36 1_555 1_555
C37 C38 1_555 1_555
C42 C50 1_555 1_555
C45 C49 1_555 1_555
C47 C48 1_555 1_555
C49 C50 1_555 1_555
Pb3_2 O10C_2 1_555 1_555

#END
