
#######################################################################
#
#                 Cambridge Crystallographic Data Centre
#                                CCDC 
#
#######################################################################
#
# If this CIF has been generated from an entry in the Cambridge 
# Structural Database, then it will include bibliographic, chemical, 
# crystal, experimental, refinement or atomic coordinate data resulting 
# from the CCDC's data processing and validation procedures.
#
#######################################################################

data_REQBAS
_symmetry_cell_setting           triclinic
_symmetry_space_group_name_H-M   'P -1'
_symmetry_Int_Tables_number      2
_space_group_name_Hall           '-P 1'
loop_
_symmetry_equiv_pos_site_id
_symmetry_equiv_pos_as_xyz
1 x,y,z
2 -x,-y,-z
_cell_length_a                   9.1570(7)
_cell_length_b                   14.7179(11)
_cell_length_c                   16.2237(13)
_cell_angle_alpha                66.9190(10)
_cell_angle_beta                 87.9440(10)
_cell_angle_gamma                77.0270(10)
_cell_volume                     1956.81
loop_
_atom_site_label
_atom_site_type_symbol
_atom_site_fract_x
_atom_site_fract_y
_atom_site_fract_z
Tb1 Tb 0.27241(4) -0.00140(3) 1.00314(3)
Pd1 Pd 0.52463(7) 0.53279(5) 0.59707(5)
Pd2 Pd 0.00359(7) 0.56707(5) 0.88448(5)
Cl1 Cl 0.7479(2) 0.46587(18) 0.68073(16)
Cl2 Cl 0.6295(3) 0.65251(17) 0.49077(16)
Cl3 Cl 0.2384(2) 0.47618(18) 0.87646(19)
Cl4 Cl 0.1025(3) 0.70336(18) 0.86465(18)
O1 O 0.4110(6) 0.1031(4) 0.9064(4)
O2 O 0.6244(7) 0.1488(5) 0.8665(4)
O3 O -0.0285(8) 0.8066(6) 0.2914(6)
O4 O 0.2084(8) 0.8201(5) 0.2912(5)
O5 O 0.0972(6) 0.1560(5) 0.9499(4)
O6 O -0.1189(7) 0.1114(5) 0.9794(5)
O7 O -0.3486(7) 0.9152(4) 0.9158(4)
O8 O -0.5748(7) 0.8872(4) 0.9451(4)
O9 O 0.1787(7) 0.0287(5) 0.8506(5)
O10 O 0.1183(7) -0.0063(4) 1.1350(4)
N1 N 0.4179(8) 0.4274(5) 0.6801(5)
N2 N 0.3173(8) 0.5893(5) 0.5357(5)
N3 N -0.1035(8) 0.4549(5) 0.8987(5)
N4 N -0.2086(9) 0.6395(6) 0.8904(5)
C1 C 0.4833(10) 0.3385(7) 0.7428(6)
H1 H 0.5885 0.3241 0.7553
C2 C 0.4058(9) 0.2657(6) 0.7906(6)
C3 C 0.2494(10) 0.2907(7) 0.7733(7)
H2 H 0.1914 0.2438 0.8065
C4 C 0.1809(10) 0.3817(7) 0.7092(6)
H3 H 0.0750 0.3995 0.6982
C5 C 0.2684(10) 0.4483(7) 0.6599(6)
C6 C 0.2110(11) 0.5405(7) 0.5806(6)
C7 C 0.0578(10) 0.5770(7) 0.5485(6)
H4 H -0.0168 0.5455 0.5826
C8 C 0.0191(11) 0.6571(7) 0.4685(7)
H5 H -0.0829 0.6828 0.4465
C9 C 0.1324(11) 0.7016(7) 0.4187(7)
C10 C 0.2756(10) 0.6683(6) 0.4546(7)
H6 H 0.3501 0.7014 0.4219
C11 C 0.4874(10) 0.1672(6) 0.8577(6)
C12 C 0.0920(12) 0.7804(7) 0.3280(6)
C13 C -0.0356(9) 0.3587(6) 0.9142(6)
H7 H 0.0708 0.3396 0.9154
C14 C -0.1201(9) 0.2855(6) 0.9286(5)
C15 C -0.2749(10) 0.3155(7) 0.9230(7)
H8 H -0.3346 0.2683 0.9294
C16 C -0.3416(10) 0.4151(7) 0.9078(7)
H9 H -0.4479 0.4361 0.9054
C17 C -0.2556(10) 0.4834(7) 0.8963(7)
C18 C -0.3124(11) 0.5892(7) 0.8879(6)
C19 C -0.4689(10) 0.6287(7) 0.8895(6)
H10 H -0.5400 0.5912 0.8882
C20 C -0.5145(11) 0.7226(7) 0.8931(7)
H11 H -0.6180 0.7538 0.8900
C21 C -0.4000(10) 0.7722(6) 0.9016(6)
C22 C -0.2526(11) 0.7307(7) 0.8958(6)
H12 H -0.1790 0.7672 0.8956
C23 C -0.0412(9) 0.1758(6) 0.9552(6)
C24 C -0.4427(10) 0.8690(7) 0.9202(6)
Tb1_2 Tb -0.72759(4) 0.99860(3) 1.00314(3)
Tb1A Tb -0.27241(4) 0.00140(3) 0.99686(3)
Tb1A_2 Tb -0.27241(4) 1.00140(3) 0.99686(3)
Tb1A_3 Tb 0.72759(4) 0.00140(3) 0.99686(3)
O2A O 0.3756(7) -0.1488(5) 1.1335(4)
O6A O 0.1189(7) -0.1114(5) 1.0206(5)
O7A O 0.3486(7) 0.0848(4) 1.0842(4)
O8_2 O 0.4252(7) -0.1128(4) 0.9451(4)
loop_
_geom_bond_atom_site_label_1
_geom_bond_atom_site_label_2
_geom_bond_site_symmetry_1
_geom_bond_site_symmetry_2
Tb1 O1 1_555 1_555
Pd1 Cl1 1_555 1_555
Pd2 Cl3 1_555 1_555
Cl2 Pd1 1_555 1_555
Cl4 Pd2 1_555 1_555
O1 C11 1_555 1_555
O2 C11 1_555 1_555
O3 C12 1_555 1_555
O4 C12 1_555 1_555
O5 Tb1 1_555 1_555
O6 C23 1_555 1_555
O7 C24 1_555 1_555
O8 C24 1_555 1_555
O9 Tb1 1_555 1_555
O10 Tb1 1_555 1_555
N1 Pd1 1_555 1_555
N2 Pd1 1_555 1_555
N3 Pd2 1_555 1_555
N4 Pd2 1_555 1_555
C1 N1 1_555 1_555
H1 C1 1_555 1_555
C2 C1 1_555 1_555
C3 C2 1_555 1_555
H2 C3 1_555 1_555
C4 C3 1_555 1_555
H3 C4 1_555 1_555
C5 N1 1_555 1_555
C6 N2 1_555 1_555
C7 C6 1_555 1_555
H4 C7 1_555 1_555
C8 C7 1_555 1_555
H5 C8 1_555 1_555
C9 C8 1_555 1_555
C10 N2 1_555 1_555
H6 C10 1_555 1_555
C11 C2 1_555 1_555
C12 C9 1_555 1_555
C13 N3 1_555 1_555
H7 C13 1_555 1_555
C14 C13 1_555 1_555
C15 C14 1_555 1_555
H8 C15 1_555 1_555
C16 C15 1_555 1_555
H9 C16 1_555 1_555
C17 N3 1_555 1_555
C18 N4 1_555 1_555
C19 C18 1_555 1_555
H10 C19 1_555 1_555
C20 C19 1_555 1_555
H11 C20 1_555 1_555
C21 C20 1_555 1_555
C22 N4 1_555 1_555
H12 C22 1_555 1_555
C23 O5 1_555 1_555
C24 C21 1_555 1_555
Tb1_2 O8 1_555 1_555
Tb1A O6 1_555 1_555
Tb1A_2 O7 1_555 1_555
Tb1A_3 O2 1_555 1_555
O2A Tb1 1_555 1_555
O6A Tb1 1_555 1_555
O7A Tb1 1_555 1_555
O8_2 Tb1 1_555 1_555
C4 C5 1_555 1_555
C5 C6 1_555 1_555
C9 C10 1_555 1_555
C14 C23 1_555 1_555
C16 C17 1_555 1_555
C17 C18 1_555 1_555
C21 C22 1_555 1_555

#END
