
#######################################################################
#
#                 Cambridge Crystallographic Data Centre
#                                CCDC 
#
#######################################################################
#
# If this CIF has been generated from an entry in the Cambridge 
# Structural Database, then it will include bibliographic, chemical, 
# crystal, experimental, refinement or atomic coordinate data resulting 
# from the CCDC's data processing and validation procedures.
#
#######################################################################

data_REQBIA
_symmetry_cell_setting           triclinic
_symmetry_space_group_name_H-M   'P -1'
_symmetry_Int_Tables_number      2
_space_group_name_Hall           '-P 1'
loop_
_symmetry_equiv_pos_site_id
_symmetry_equiv_pos_as_xyz
1 x,y,z
2 -x,-y,-z
_cell_length_a                   9.1669(5)
_cell_length_b                   14.7619(8)
_cell_length_c                   16.2021(8)
_cell_angle_alpha                66.9840(10)
_cell_angle_beta                 87.9180(10)
_cell_angle_gamma                77.1600(10)
_cell_volume                     1964.37
loop_
_atom_site_label
_atom_site_type_symbol
_atom_site_fract_x
_atom_site_fract_y
_atom_site_fract_z
Eu1 Eu 0.27359(3) -0.001584(18) 1.003515(17)
Pd1 Pd 0.52387(5) 0.53313(3) 0.59666(3)
Pd2 Pd 0.00392(5) 0.56676(3) 0.88406(3)
Cl1 Cl 0.74787(16) 0.46623(12) 0.67992(10)
Cl2 Cl 0.62786(17) 0.65307(11) 0.49022(10)
Cl3 Cl 0.23891(16) 0.47632(12) 0.87639(12)
Cl4 Cl 0.10333(17) 0.70275(12) 0.86400(11)
O1 O 0.4180(5) 0.1035(3) 0.9079(3)
O2 O 0.6290(5) 0.1502(3) 0.8651(3)
O3 O -0.0304(6) 0.8058(4) 0.2930(4)
O4 O 0.2071(6) 0.8215(4) 0.2934(3)
O5 O 0.0991(5) 0.1582(3) 0.9494(3)
O6 O -0.1174(5) 0.1114(3) 0.9798(3)
O7 O -0.3460(5) 0.9149(3) 0.9138(3)
O8 O -0.5777(5) 0.8863(3) 0.9430(3)
O9 O 0.1779(5) 0.0286(3) 0.8501(3)
O10 O 0.1170(5) -0.0070(3) 1.1380(3)
N1 N 0.4173(6) 0.4283(4) 0.6791(3)
N2 N 0.3152(6) 0.5894(4) 0.5358(3)
N3 N -0.1025(6) 0.4550(4) 0.8975(3)
N4 N -0.2101(6) 0.6395(4) 0.8894(3)
C1 C 0.4863(7) 0.3395(4) 0.7430(4)
H1 H 0.5912 0.3261 0.7557
C2 C 0.4059(6) 0.2664(4) 0.7913(4)
C3 C 0.2512(7) 0.2895(4) 0.7755(4)
H2 H 0.1935 0.2429 0.8097
C4 C 0.1828(7) 0.3808(4) 0.7099(4)
H3 H 0.0773 0.3978 0.6980
C5 C 0.2692(7) 0.4475(4) 0.6613(4)
C6 C 0.2101(7) 0.5399(4) 0.5815(4)
C7 C 0.0591(7) 0.5749(5) 0.5497(4)
H4 H -0.0149 0.5430 0.5841
C8 C 0.0183(7) 0.6557(5) 0.4682(4)
H5 H -0.0833 0.6799 0.4457
C9 C 0.1309(7) 0.7010(5) 0.4196(4)
C10 C 0.2769(7) 0.6678(4) 0.4577(4)
H6 H 0.3513 0.7022 0.4270
C11 C 0.4900(7) 0.1665(4) 0.8589(4)
C12 C 0.0930(7) 0.7819(5) 0.3286(4)
C13 C -0.0361(7) 0.3588(4) 0.9115(4)
H7 H 0.0698 0.3404 0.9101
C14 C -0.1187(6) 0.2860(4) 0.9277(4)
C15 C -0.2732(7) 0.3147(4) 0.9248(4)
H8 H -0.3320 0.2663 0.9345
C16 C -0.3424(7) 0.4152(4) 0.9074(4)
H9 H -0.4486 0.4363 0.9030
C17 C -0.2546(7) 0.4833(4) 0.8966(4)
C18 C -0.3141(7) 0.5863(4) 0.8886(4)
C19 C -0.4645(7) 0.6281(5) 0.8882(4)
H10 H -0.5366 0.5924 0.8842
C20 C -0.5114(7) 0.7209(5) 0.8935(4)
H11 H -0.6150 0.7504 0.8920
C21 C -0.4012(7) 0.7708(4) 0.9010(4)
C22 C -0.2528(7) 0.7291(4) 0.8951(4)
H12 H -0.1790 0.7652 0.8952
C23 C -0.0408(6) 0.1772(4) 0.9531(4)
C24 C -0.4449(6) 0.8658(4) 0.9198(4)
Eu1_2 Eu -0.72641(3) 0.998416(18) 1.003515(17)
Eu1A Eu -0.27359(3) 0.001584(18) 0.996485(17)
Eu1A_2 Eu -0.27359(3) 1.001584(18) 0.996485(17)
Eu1A_3 Eu 0.72641(3) 0.001584(18) 0.996485(17)
O2A O 0.3710(5) -0.1502(3) 1.1349(3)
O6A O 0.1174(5) -0.1114(3) 1.0202(3)
O7A O 0.3460(5) 0.0851(3) 1.0862(3)
O8_2 O 0.4223(5) -0.1137(3) 0.9430(3)
loop_
_geom_bond_atom_site_label_1
_geom_bond_atom_site_label_2
_geom_bond_site_symmetry_1
_geom_bond_site_symmetry_2
Eu1 O1 1_555 1_555
Pd1 Cl1 1_555 1_555
Pd2 Cl3 1_555 1_555
Cl2 Pd1 1_555 1_555
Cl4 Pd2 1_555 1_555
O1 C11 1_555 1_555
O2 C11 1_555 1_555
O3 C12 1_555 1_555
O4 C12 1_555 1_555
O5 Eu1 1_555 1_555
O6 C23 1_555 1_555
O7 C24 1_555 1_555
O8 C24 1_555 1_555
O9 Eu1 1_555 1_555
O10 Eu1 1_555 1_555
N1 Pd1 1_555 1_555
N2 Pd1 1_555 1_555
N3 Pd2 1_555 1_555
N4 Pd2 1_555 1_555
C1 N1 1_555 1_555
H1 C1 1_555 1_555
C2 C1 1_555 1_555
C3 C2 1_555 1_555
H2 C3 1_555 1_555
C4 C3 1_555 1_555
H3 C4 1_555 1_555
C5 N1 1_555 1_555
C6 N2 1_555 1_555
C7 C6 1_555 1_555
H4 C7 1_555 1_555
C8 C7 1_555 1_555
H5 C8 1_555 1_555
C9 C8 1_555 1_555
C10 N2 1_555 1_555
H6 C10 1_555 1_555
C11 C2 1_555 1_555
C12 C9 1_555 1_555
C13 N3 1_555 1_555
H7 C13 1_555 1_555
C14 C13 1_555 1_555
C15 C14 1_555 1_555
H8 C15 1_555 1_555
C16 C15 1_555 1_555
H9 C16 1_555 1_555
C17 N3 1_555 1_555
C18 N4 1_555 1_555
C19 C18 1_555 1_555
H10 C19 1_555 1_555
C20 C19 1_555 1_555
H11 C20 1_555 1_555
C21 C20 1_555 1_555
C22 N4 1_555 1_555
H12 C22 1_555 1_555
C23 O5 1_555 1_555
C24 C21 1_555 1_555
Eu1_2 O8 1_555 1_555
Eu1A O6 1_555 1_555
Eu1A_2 O7 1_555 1_555
Eu1A_3 O2 1_555 1_555
O2A Eu1 1_555 1_555
O6A Eu1 1_555 1_555
O7A Eu1 1_555 1_555
O8_2 Eu1 1_555 1_555
C4 C5 1_555 1_555
C5 C6 1_555 1_555
C9 C10 1_555 1_555
C14 C23 1_555 1_555
C16 C17 1_555 1_555
C17 C18 1_555 1_555
C21 C22 1_555 1_555

#END
