
#######################################################################
#
#                 Cambridge Crystallographic Data Centre
#                                CCDC 
#
#######################################################################
#
# If this CIF has been generated from an entry in the Cambridge 
# Structural Database, then it will include bibliographic, chemical, 
# crystal, experimental, refinement or atomic coordinate data resulting 
# from the CCDC's data processing and validation procedures.
#
#######################################################################

data_REQBOG
_symmetry_cell_setting           triclinic
_symmetry_space_group_name_H-M   'P -1'
_symmetry_Int_Tables_number      2
_space_group_name_Hall           '-P 1'
loop_
_symmetry_equiv_pos_site_id
_symmetry_equiv_pos_as_xyz
1 x,y,z
2 -x,-y,-z
_cell_length_a                   9.1629(8)
_cell_length_b                   14.7835(12)
_cell_length_c                   16.1693(14)
_cell_angle_alpha                67.0610(10)
_cell_angle_beta                 87.9300(10)
_cell_angle_gamma                77.1940(10)
_cell_volume                     1963.83
loop_
_atom_site_label
_atom_site_type_symbol
_atom_site_fract_x
_atom_site_fract_y
_atom_site_fract_z
Sm1 Sm 0.27382(2) -0.001694(14) 1.003538(14)
Pd1 Pd 0.52430(4) 0.53299(2) 0.59688(2)
Pd2 Pd 0.00417(4) 0.56665(2) 0.88382(2)
Cl1 Cl 0.74860(13) 0.46625(9) 0.67989(8)
Cl2 Cl 0.62784(13) 0.65302(9) 0.49011(8)
Cl3 Cl 0.23947(13) 0.47628(9) 0.87650(10)
Cl4 Cl 0.10323(14) 0.70252(9) 0.86375(9)
O1 O 0.4200(4) 0.1037(3) 0.9077(2)
O2 O 0.6307(4) 0.1516(2) 0.8647(2)
O3 O -0.0321(5) 0.8062(3) 0.2929(3)
O4 O 0.2073(4) 0.8217(3) 0.2944(3)
O5 O 0.1016(4) 0.1587(3) 0.9484(3)
O6 O -0.1159(4) 0.1123(2) 0.9804(2)
O7 O -0.3460(4) 0.9146(3) 0.9124(2)
O8 O -0.5759(4) 0.8853(2) 0.9425(2)
O9 O 0.1775(4) 0.0295(3) 0.8487(2)
O10 O 0.1163(4) -0.0065(3) 1.1388(2)
N1 N 0.4184(4) 0.4280(3) 0.6796(3)
N2 N 0.3159(4) 0.5890(3) 0.5360(3)
N3 N -0.1017(4) 0.4546(3) 0.8979(3)
N4 N -0.2092(4) 0.6391(3) 0.8892(3)
C1 C 0.4865(5) 0.3386(3) 0.7426(3)
H1 H 0.5918 0.3242 0.7542
C2 C 0.4070(5) 0.2670(3) 0.7910(3)
C3 C 0.2512(5) 0.2894(3) 0.7753(3)
H2 H 0.1940 0.2425 0.8093
C4 C 0.1823(5) 0.3807(4) 0.7095(3)
H3 H 0.0768 0.3973 0.6975
C5 C 0.2683(5) 0.4479(3) 0.6611(3)
C6 C 0.2094(5) 0.5405(3) 0.5813(3)
C7 C 0.0600(5) 0.5739(4) 0.5509(3)
H4 H -0.0140 0.5423 0.5858
C8 C 0.0201(5) 0.6543(4) 0.4687(3)
H5 H -0.0811 0.6771 0.4454
C9 C 0.1301(5) 0.7010(4) 0.4208(3)
C10 C 0.2772(5) 0.6673(3) 0.4570(3)
H6 H 0.3517 0.7007 0.4250
C11 C 0.4904(5) 0.1676(3) 0.8582(3)
C12 C 0.0929(6) 0.7816(4) 0.3293(3)
C13 C -0.0359(5) 0.3590(3) 0.9123(3)
H7 H 0.0701 0.3403 0.9117
C14 C -0.1186(5) 0.2868(3) 0.9279(3)
C15 C -0.2734(5) 0.3141(3) 0.9257(3)
H8 H -0.3318 0.2654 0.9359
C16 C -0.3428(5) 0.4150(3) 0.9082(3)
H9 H -0.4490 0.4364 0.9041
C17 C -0.2535(5) 0.4824(3) 0.8972(3)
C18 C -0.3138(5) 0.5861(3) 0.8890(3)
C19 C -0.4656(6) 0.6277(4) 0.8876(4)
H10 H -0.5381 0.5922 0.8839
C20 C -0.5102(6) 0.7220(3) 0.8917(3)
H11 H -0.6137 0.7525 0.8891
C21 C -0.4024(5) 0.7713(3) 0.8997(3)
C22 C -0.2528(5) 0.7294(3) 0.8948(3)
H12 H -0.1792 0.7655 0.8954
C23 C -0.0410(5) 0.1780(3) 0.9534(3)
C24 C -0.4457(5) 0.8661(3) 0.9186(3)
Sm1_2 Sm -0.72618(2) 0.998306(14) 1.003538(14)
Sm1A Sm -0.27382(2) 0.001694(14) 0.996462(14)
Sm1A_2 Sm -0.27382(2) 1.001694(14) 0.996462(14)
Sm1A_3 Sm 0.72618(2) 0.001694(14) 0.996462(14)
O2A O 0.3693(4) -0.1516(2) 1.1353(2)
O6A O 0.1159(4) -0.1123(2) 1.0196(2)
O7A O 0.3460(4) 0.0854(3) 1.0876(2)
O8_2 O 0.4241(4) -0.1147(2) 0.9425(2)
loop_
_geom_bond_atom_site_label_1
_geom_bond_atom_site_label_2
_geom_bond_site_symmetry_1
_geom_bond_site_symmetry_2
Sm1 O1 1_555 1_555
Pd1 Cl1 1_555 1_555
Pd2 Cl3 1_555 1_555
Cl2 Pd1 1_555 1_555
Cl4 Pd2 1_555 1_555
O1 C11 1_555 1_555
O2 C11 1_555 1_555
O3 C12 1_555 1_555
O4 C12 1_555 1_555
O5 Sm1 1_555 1_555
O6 C23 1_555 1_555
O7 C24 1_555 1_555
O8 C24 1_555 1_555
O9 Sm1 1_555 1_555
O10 Sm1 1_555 1_555
N1 Pd1 1_555 1_555
N2 Pd1 1_555 1_555
N3 Pd2 1_555 1_555
N4 Pd2 1_555 1_555
C1 N1 1_555 1_555
H1 C1 1_555 1_555
C2 C1 1_555 1_555
C3 C2 1_555 1_555
H2 C3 1_555 1_555
C4 C3 1_555 1_555
H3 C4 1_555 1_555
C5 N1 1_555 1_555
C6 N2 1_555 1_555
C7 C6 1_555 1_555
H4 C7 1_555 1_555
C8 C7 1_555 1_555
H5 C8 1_555 1_555
C9 C8 1_555 1_555
C10 N2 1_555 1_555
H6 C10 1_555 1_555
C11 C2 1_555 1_555
C12 C9 1_555 1_555
C13 N3 1_555 1_555
H7 C13 1_555 1_555
C14 C13 1_555 1_555
C15 C14 1_555 1_555
H8 C15 1_555 1_555
C16 C15 1_555 1_555
H9 C16 1_555 1_555
C17 N3 1_555 1_555
C18 N4 1_555 1_555
C19 C18 1_555 1_555
H10 C19 1_555 1_555
C20 C19 1_555 1_555
H11 C20 1_555 1_555
C21 C20 1_555 1_555
C22 N4 1_555 1_555
H12 C22 1_555 1_555
C23 O5 1_555 1_555
C24 C21 1_555 1_555
Sm1_2 O8 1_555 1_555
Sm1A O6 1_555 1_555
Sm1A_2 O7 1_555 1_555
Sm1A_3 O2 1_555 1_555
O2A Sm1 1_555 1_555
O6A Sm1 1_555 1_555
O7A Sm1 1_555 1_555
O8_2 Sm1 1_555 1_555
C4 C5 1_555 1_555
C5 C6 1_555 1_555
C9 C10 1_555 1_555
C14 C23 1_555 1_555
C16 C17 1_555 1_555
C17 C18 1_555 1_555
C21 C22 1_555 1_555

#END
