
#######################################################################
#
#                 Cambridge Crystallographic Data Centre
#                                CCDC 
#
#######################################################################
#
# If this CIF has been generated from an entry in the Cambridge 
# Structural Database, then it will include bibliographic, chemical, 
# crystal, experimental, refinement or atomic coordinate data resulting 
# from the CCDC's data processing and validation procedures.
#
#######################################################################

data_REQBEW
_symmetry_cell_setting           triclinic
_symmetry_space_group_name_H-M   'P -1'
_symmetry_Int_Tables_number      2
_space_group_name_Hall           '-P 1'
loop_
_symmetry_equiv_pos_site_id
_symmetry_equiv_pos_as_xyz
1 x,y,z
2 -x,-y,-z
_cell_length_a                   9.1605(8)
_cell_length_b                   14.7381(13)
_cell_length_c                   16.2023(15)
_cell_angle_alpha                66.9550(10)
_cell_angle_beta                 87.9010(10)
_cell_angle_gamma                77.0700(10)
_cell_volume                     1958.67
loop_
_atom_site_label
_atom_site_type_symbol
_atom_site_fract_x
_atom_site_fract_y
_atom_site_fract_z
Gd1 Gd 0.27336(4) -0.00159(2) 1.00329(2)
Pd1 Pd 0.52397(6) 0.53292(4) 0.59677(4)
Pd2 Pd 0.00387(6) 0.56681(4) 0.88414(4)
Cl1 Cl 0.7478(2) 0.46594(15) 0.68019(13)
Cl2 Cl 0.6285(2) 0.65285(15) 0.49053(13)
Cl3 Cl 0.2388(2) 0.47598(16) 0.87683(16)
Cl4 Cl 0.1036(2) 0.70256(15) 0.86444(15)
O1 O 0.4156(6) 0.1032(4) 0.9072(4)
O2 O 0.6290(6) 0.1496(4) 0.8664(4)
O3 O -0.0345(8) 0.8068(6) 0.2921(5)
O4 O 0.2078(7) 0.8203(5) 0.2927(4)
O5 O 0.0978(6) 0.1571(4) 0.9483(4)
O6 O -0.1173(6) 0.1130(4) 0.9800(4)
O7 O -0.3462(6) 0.9156(4) 0.9131(4)
O8 O -0.5747(6) 0.8863(4) 0.9442(4)
O9 O 0.1772(6) 0.0277(4) 0.8511(4)
O10 O 0.1179(6) -0.0076(4) 1.1363(4)
N1 N 0.4163(7) 0.4283(5) 0.6794(4)
N2 N 0.3165(7) 0.5889(5) 0.5365(4)
N3 N -0.1017(7) 0.4552(5) 0.8977(4)
N4 N -0.2082(7) 0.6382(5) 0.8899(5)
C1 C 0.4859(8) 0.3381(6) 0.7438(5)
H1 H 0.5907 0.3243 0.7569
C2 C 0.4062(8) 0.2662(5) 0.7904(5)
C3 C 0.2510(8) 0.2891(5) 0.7753(5)
H2 H 0.1941 0.2423 0.8103
C4 C 0.1798(9) 0.3813(6) 0.7086(5)
H3 H 0.0744 0.3981 0.6961
C5 C 0.2687(9) 0.4479(6) 0.6607(5)
C6 C 0.2079(9) 0.5421(6) 0.5804(5)
C7 C 0.0594(9) 0.5746(6) 0.5494(5)
H4 H -0.0143 0.5420 0.5836
C8 C 0.0201(8) 0.6554(6) 0.4677(6)
H5 H -0.0814 0.6795 0.4448
C9 C 0.1310(9) 0.7009(6) 0.4194(6)
C10 C 0.2764(9) 0.6673(6) 0.4573(5)
H6 H 0.3509 0.7012 0.4259
C11 C 0.4894(8) 0.1667(5) 0.8588(5)
C12 C 0.0926(9) 0.7819(6) 0.3280(6)
C13 C -0.0375(8) 0.3598(6) 0.9123(5)
H7 H 0.0687 0.3410 0.9120
C14 C -0.1187(8) 0.2860(5) 0.9280(5)
C15 C -0.2744(9) 0.3154(6) 0.9239(5)
H8 H -0.3334 0.2673 0.9324
C16 C -0.3430(9) 0.4154(6) 0.9074(5)
H9 H -0.4493 0.4369 0.9037
C17 C -0.2542(8) 0.4830(6) 0.8964(5)
C18 C -0.3113(9) 0.5866(6) 0.8888(5)
C19 C -0.4653(9) 0.6289(6) 0.8879(6)
H10 H -0.5373 0.5935 0.8832
C20 C -0.5123(9) 0.7227(6) 0.8939(6)
H11 H -0.6159 0.7521 0.8935
C21 C -0.4014(9) 0.7727(5) 0.9006(5)
C22 C -0.2549(9) 0.7317(6) 0.8960(6)
H12 H -0.1818 0.7680 0.8969
C23 C -0.0430(8) 0.1755(5) 0.9546(5)
C24 C -0.4450(9) 0.8665(6) 0.9199(5)
Gd1_2 Gd -0.72664(4) 0.99841(2) 1.00329(2)
Gd1A Gd -0.27336(4) 0.00159(2) 0.99671(2)
Gd1A_2 Gd -0.27336(4) 1.00159(2) 0.99671(2)
Gd1A_3 Gd 0.72664(4) 0.00159(2) 0.99671(2)
O2A O 0.3710(6) -0.1496(4) 1.1336(4)
O6A O 0.1173(6) -0.1130(4) 1.0200(4)
O7A O 0.3462(6) 0.0844(4) 1.0869(4)
O8_2 O 0.4253(6) -0.1137(4) 0.9442(4)
loop_
_geom_bond_atom_site_label_1
_geom_bond_atom_site_label_2
_geom_bond_site_symmetry_1
_geom_bond_site_symmetry_2
Gd1 O1 1_555 1_555
Pd1 Cl1 1_555 1_555
Pd2 Cl3 1_555 1_555
Cl2 Pd1 1_555 1_555
Cl4 Pd2 1_555 1_555
O1 C11 1_555 1_555
O2 C11 1_555 1_555
O3 C12 1_555 1_555
O4 C12 1_555 1_555
O5 Gd1 1_555 1_555
O6 C23 1_555 1_555
O7 C24 1_555 1_555
O8 C24 1_555 1_555
O9 Gd1 1_555 1_555
O10 Gd1 1_555 1_555
N1 Pd1 1_555 1_555
N2 Pd1 1_555 1_555
N3 Pd2 1_555 1_555
N4 Pd2 1_555 1_555
C1 N1 1_555 1_555
H1 C1 1_555 1_555
C2 C1 1_555 1_555
C3 C2 1_555 1_555
H2 C3 1_555 1_555
C4 C3 1_555 1_555
H3 C4 1_555 1_555
C5 N1 1_555 1_555
C6 N2 1_555 1_555
C7 C6 1_555 1_555
H4 C7 1_555 1_555
C8 C7 1_555 1_555
H5 C8 1_555 1_555
C9 C8 1_555 1_555
C10 N2 1_555 1_555
H6 C10 1_555 1_555
C11 C2 1_555 1_555
C12 C9 1_555 1_555
C13 N3 1_555 1_555
H7 C13 1_555 1_555
C14 C13 1_555 1_555
C15 C14 1_555 1_555
H8 C15 1_555 1_555
C16 C15 1_555 1_555
H9 C16 1_555 1_555
C17 N3 1_555 1_555
C18 N4 1_555 1_555
C19 C18 1_555 1_555
H10 C19 1_555 1_555
C20 C19 1_555 1_555
H11 C20 1_555 1_555
C21 C20 1_555 1_555
C22 N4 1_555 1_555
H12 C22 1_555 1_555
C23 O5 1_555 1_555
C24 C21 1_555 1_555
Gd1_2 O8 1_555 1_555
Gd1A O6 1_555 1_555
Gd1A_2 O7 1_555 1_555
Gd1A_3 O2 1_555 1_555
O2A Gd1 1_555 1_555
O6A Gd1 1_555 1_555
O7A Gd1 1_555 1_555
O8_2 Gd1 1_555 1_555
C4 C5 1_555 1_555
C5 C6 1_555 1_555
C9 C10 1_555 1_555
C14 C23 1_555 1_555
C16 C17 1_555 1_555
C17 C18 1_555 1_555
C21 C22 1_555 1_555

#END
