
#######################################################################
#
#                 Cambridge Crystallographic Data Centre
#                                CCDC 
#
#######################################################################
#
# If this CIF has been generated from an entry in the Cambridge 
# Structural Database, then it will include bibliographic, chemical, 
# crystal, experimental, refinement or atomic coordinate data resulting 
# from the CCDC's data processing and validation procedures.
#
#######################################################################

data_REQCUN
_symmetry_cell_setting           triclinic
_symmetry_space_group_name_H-M   'P -1'
_symmetry_Int_Tables_number      2
_space_group_name_Hall           '-P 1'
loop_
_symmetry_equiv_pos_site_id
_symmetry_equiv_pos_as_xyz
1 x,y,z
2 -x,-y,-z
_cell_length_a                   7.6953(3)
_cell_length_b                   11.0073(5)
_cell_length_c                   11.7836(6)
_cell_angle_alpha                102.715(2)
_cell_angle_beta                 100.109(3)
_cell_angle_gamma                95.054(3)
_cell_volume                     950.149
loop_
_atom_site_label
_atom_site_type_symbol
_atom_site_fract_x
_atom_site_fract_y
_atom_site_fract_z
Cu1 Cu 0.5000 0.0000 0.0000
Cu2 Cu 0.0000 0.0000 0.0000
Cu3 Cu 0.5000 0.0000 0.5000
O1 O 0.2903(3) -0.1040(2) 0.5145(2)
H1 H 0.211(3) -0.077(3) 0.551(3)
H2 H 0.258(4) -0.1795(12) 0.478(3)
N1 N 0.2569(3) -0.1412(3) -0.1218(2)
N2 N 0.0868(3) -0.1340(3) -0.1122(2)
N3 N -0.0226(4) -0.2212(3) -0.1966(3)
N4 N 0.0743(4) -0.2877(3) -0.2645(3)
N5 N 0.5109(4) -0.3137(3) -0.3026(3)
N6 N 0.2324(3) -0.0136(3) 0.1538(2)
N7 N 0.4049(3) -0.0144(3) 0.1461(2)
N8 N 0.5052(3) -0.0157(3) 0.2476(2)
N9 N 0.4002(3) -0.0157(3) 0.3269(2)
N10 N -0.0480(4) -0.0005(3) 0.3548(3)
N11 N 0.4146(4) 0.2382(3) -0.0548(3)
N12 N 0.3477(3) 0.1367(2) -0.0261(2)
N13 N 0.1715(3) 0.1334(3) -0.0358(2)
N14 N 0.1187(4) 0.2326(3) -0.0721(3)
N15 N 0.2900(5) 0.5011(3) -0.1503(4)
N16 N 0.3585(4) 0.1836(3) 0.5446(3)
C1 C 0.2433(4) -0.2363(3) -0.2158(3)
C2 C 0.3938(5) -0.2792(3) -0.2623(3)
C3 C 0.2340(4) -0.0144(3) 0.2662(3)
C4 C 0.0784(5) -0.0085(3) 0.3168(3)
C5 C 0.2709(4) 0.2942(3) -0.0824(3)
C6 C 0.2809(5) 0.4092(4) -0.1208(4)
C7 C 0.3056(5) 0.2752(4) 0.5378(3)
C8 C 0.2376(6) 0.3932(4) 0.5272(4)
H3 H 0.1522 0.3793 0.4519
H4 H 0.3367 0.4565 0.5292
H5 H 0.1783 0.4227 0.5933
N1A N -0.2569(3) 0.1412(3) 0.1218(2)
N2A N -0.0868(3) 0.1340(3) 0.1122(2)
N3A N 0.0226(4) 0.2212(3) 0.1966(3)
N4A N -0.0743(4) 0.2877(3) 0.2645(3)
N5A N -0.5109(4) 0.3137(3) 0.3026(3)
N6A N -0.2324(3) 0.0136(3) -0.1538(2)
N7A N -0.4049(3) 0.0144(3) -0.1461(2)
N8A N -0.5052(3) 0.0157(3) -0.2476(2)
N9A N -0.4002(3) 0.0157(3) -0.3269(2)
N10A N 0.0480(4) 0.0005(3) -0.3548(3)
N11A N -0.4146(4) -0.2382(3) 0.0548(3)
N12A N -0.3477(3) -0.1367(2) 0.0261(2)
N13A N -0.1715(3) -0.1334(3) 0.0358(2)
N14A N -0.1187(4) -0.2326(3) 0.0721(3)
N15A N -0.2900(5) -0.5011(3) 0.1503(4)
C1A C -0.2433(4) 0.2363(3) 0.2158(3)
C2A C -0.3938(5) 0.2792(3) 0.2623(3)
C3A C -0.2340(4) 0.0144(3) -0.2662(3)
C4A C -0.0784(5) 0.0085(3) -0.3168(3)
C5A C -0.2709(4) -0.2942(3) 0.0824(3)
C6A C -0.2809(5) -0.4092(4) 0.1208(4)
N16A N 0.6415(4) -0.1836(3) 0.4554(3)
C7A C 0.6944(5) -0.2752(4) 0.4622(3)
C8A C 0.7624(6) -0.3932(4) 0.4728(4)
H3A H 0.8478 -0.3793 0.5481
H4A H 0.6633 -0.4565 0.4708
H5A H 0.8217 -0.4227 0.4067
O1A O 0.7097(3) 0.1040(2) 0.4855(2)
H1A H 0.789(3) 0.077(3) 0.449(3)
H2A H 0.742(4) 0.1795(12) 0.522(3)
Cu1_2 Cu -0.5000 0.0000 0.0000
Cu3_2 Cu -0.5000 0.0000 -0.5000
N1A_2 N 0.7431(3) 0.1412(3) 0.1218(2)
N7A_2 N 0.5951(3) 0.0144(3) -0.1461(2)
N9A_2 N 0.5998(3) 0.0157(3) 0.6731(2)
N12A_2 N 0.6523(3) -0.1367(2) 0.0261(2)
C9 C 0.1894(7) 0.5993(5) 0.2742(5)
C10 C 0.2075(7) 0.5097(5) 0.1674(5)
H6 H 0.2489 0.5550 0.1122
H7 H 0.0919 0.4596 0.1295
H8 H 0.2941 0.4541 0.1884
N17 N 0.1753(7) 0.6700(5) 0.3559(5)
loop_
_geom_bond_atom_site_label_1
_geom_bond_atom_site_label_2
_geom_bond_site_symmetry_1
_geom_bond_site_symmetry_2
Cu1 N1 1_555 1_555
Cu2 N2 1_555 1_555
Cu3 O1 1_555 1_555
O1 H1 1_555 1_555
H2 O1 1_555 1_555
N1 N2 1_555 1_555
N2 N3 1_555 1_555
N3 N4 1_555 1_555
N4 C1 1_555 1_555
N5 C2 1_555 1_555
N6 Cu2 1_555 1_555
N7 Cu1 1_555 1_555
N8 N7 1_555 1_555
N9 Cu3 1_555 1_555
N10 C4 1_555 1_555
N11 N12 1_555 1_555
N12 Cu1 1_555 1_555
N13 Cu2 1_555 1_555
N14 N13 1_555 1_555
N15 C6 1_555 1_555
N16 Cu3 1_555 1_555
C1 N1 1_555 1_555
C2 C1 1_555 1_555
C3 N6 1_555 1_555
C4 C3 1_555 1_555
C5 N11 1_555 1_555
C6 C5 1_555 1_555
C7 N16 1_555 1_555
C8 C7 1_555 1_555
H3 C8 1_555 1_555
H4 C8 1_555 1_555
H5 C8 1_555 1_555
C9 C10 1_555 1_555
C10 H6 1_555 1_555
H7 C10 1_555 1_555
H8 C10 1_555 1_555
N17 C9 1_555 1_555
N1A N2A 1_555 1_555
N2A Cu2 1_555 1_555
N3A N2A 1_555 1_555
N4A N3A 1_555 1_555
N5A C2A 1_555 1_555
N6A Cu2 1_555 1_555
N7A N6A 1_555 1_555
N8A N7A 1_555 1_555
N9A N8A 1_555 1_555
N10A C4A 1_555 1_555
N11A N12A 1_555 1_555
N12A N13A 1_555 1_555
N13A Cu2 1_555 1_555
N14A N13A 1_555 1_555
N15A C6A 1_555 1_555
C1A N1A 1_555 1_555
C2A C1A 1_555 1_555
C3A N6A 1_555 1_555
C4A C3A 1_555 1_555
C5A N11A 1_555 1_555
C6A C5A 1_555 1_555
N16A Cu3 1_555 1_555
C7A N16A 1_555 1_555
C8A C7A 1_555 1_555
H3A C8A 1_555 1_555
H4A C8A 1_555 1_555
H5A C8A 1_555 1_555
O1A Cu3 1_555 1_555
H1A O1A 1_555 1_555
H2A O1A 1_555 1_555
Cu1_2 N1A 1_555 1_555
Cu3_2 N9A 1_555 1_555
N1A_2 Cu1 1_555 1_555
N7A_2 Cu1 1_555 1_555
N9A_2 Cu3 1_555 1_555
N12A_2 Cu1 1_555 1_555
N6 N7 1_555 1_555
N8 N9 1_555 1_555
N9 C3 1_555 1_555
N12 N13 1_555 1_555
N14 C5 1_555 1_555
N4A C1A 1_555 1_555
N7A Cu1_2 1_555 1_555
N9A C3A 1_555 1_555
N12A Cu1_2 1_555 1_555
N14A C5A 1_555 1_555

#END
