
#######################################################################
#
#                 Cambridge Crystallographic Data Centre
#                                CCDC 
#
#######################################################################
#
# If this CIF has been generated from an entry in the Cambridge 
# Structural Database, then it will include bibliographic, chemical, 
# crystal, experimental, refinement or atomic coordinate data resulting 
# from the CCDC's data processing and validation procedures.
#
#######################################################################

data_REQCEW
_symmetry_cell_setting           monoclinic
_symmetry_space_group_name_H-M   'P 21/c'
_symmetry_Int_Tables_number      14
_space_group_name_Hall           '-P 2ybc'
loop_
_symmetry_equiv_pos_site_id
_symmetry_equiv_pos_as_xyz
1 x,y,z
2 -x,1/2+y,1/2-z
3 -x,-y,-z
4 x,1/2-y,1/2+z
_cell_length_a                   10.3740(17)
_cell_length_b                   7.8608(13)
_cell_length_c                   22.078(4)
_cell_angle_alpha                90
_cell_angle_beta                 102.119(3)
_cell_angle_gamma                90
_cell_volume                     1760.29
loop_
_atom_site_label
_atom_site_type_symbol
_atom_site_fract_x
_atom_site_fract_y
_atom_site_fract_z
C1 C 0.8233(14) 0.6418(17) 0.4330(5)
H1 H 0.8200 0.7559 0.4217
C2 C 0.7791(18) 0.590(2) 0.4875(7)
H2 H 0.7507 0.6680 0.5135
C3 C 0.7813(18) 0.420(2) 0.4989(7)
C4 C 0.8253(15) 0.311(2) 0.4678(7)
H3 H 0.8286 0.1975 0.4801
C5 C 0.8705(12) 0.3574(15) 0.4136(6)
H4 H 0.8999 0.2750 0.3895
C6 C 0.8701(9) 0.5239(13) 0.3976(5)
C7 C 0.9188(9) 0.5834(10) 0.3426(4)
C8 C 0.8708(10) 0.5801(11) 0.1504(5)
H5 H 0.8631 0.7014 0.1426
H6 H 0.9001 0.5284 0.1158
C9 C 0.7352(13) 0.5115(14) 0.1516(6)
H7 H 0.7064 0.5599 0.1869
H8 H 0.7414 0.3893 0.1575
C10 C 0.6313(15) 0.5484(18) 0.0937(6)
H9 H 0.6204 0.6706 0.0895
H10 H 0.6633 0.5079 0.0580
C11 C 0.4988(17) 0.470(2) 0.0923(8)
H11 H 0.4812 0.3850 0.0604
H12 H 0.4321 0.5564 0.0839
H13 H 0.4984 0.4183 0.1316
C12 C 1.2213(10) 0.5795(12) 0.2448(5)
H14 H 1.2495 0.5447 0.2074
H15 H 1.2375 0.7007 0.2496
C13 C 1.3024(13) 0.4979(19) 0.2947(9)
H16 H 1.2843 0.3769 0.2914
H17 H 1.2791 0.5375 0.3326
C14 C 1.4500(15) 0.525(3) 0.3002(13)
H18 H 1.4784 0.4649 0.2668
H19 H 1.4678 0.6448 0.2963
C15 C 1.526(3) 0.460(5) 0.3614(17)
H20 H 1.4659 0.4243 0.3864
H21 H 1.5812 0.5497 0.3823
H22 H 1.5801 0.3659 0.3546
F1 F 0.7395(11) 0.3676(16) 0.5506(4)
N1 N 0.9279(7) 0.7378(10) 0.3336(3)
O1 O 0.9522(6) 0.4543(6) 0.3065(3)
O2 O 0.9741(6) 0.7717(5) 0.2782(3)
Sn1 Sn 1.01690(6) 0.54182(7) 0.22990(3)
O2A O 1.0259(6) 0.2717(5) 0.2218(3)
Sn1A Sn 0.98310(6) 1.04182(7) 0.27010(3)
loop_
_geom_bond_atom_site_label_1
_geom_bond_atom_site_label_2
_geom_bond_site_symmetry_1
_geom_bond_site_symmetry_2
C1 H1 1_555 1_555
C2 C1 1_555 1_555
H2 C2 1_555 1_555
C3 C2 1_555 1_555
C4 C3 1_555 1_555
H3 C4 1_555 1_555
C5 C4 1_555 1_555
H4 C5 1_555 1_555
C6 C1 1_555 1_555
C7 C6 1_555 1_555
C8 H5 1_555 1_555
H6 C8 1_555 1_555
C9 C8 1_555 1_555
H7 C9 1_555 1_555
H8 C9 1_555 1_555
C10 C9 1_555 1_555
H9 C10 1_555 1_555
H10 C10 1_555 1_555
C11 C10 1_555 1_555
H11 C11 1_555 1_555
H12 C11 1_555 1_555
H13 C11 1_555 1_555
C12 H14 1_555 1_555
H15 C12 1_555 1_555
C13 C12 1_555 1_555
H16 C13 1_555 1_555
H17 C13 1_555 1_555
C14 C13 1_555 1_555
H18 C14 1_555 1_555
H19 C14 1_555 1_555
C15 C14 1_555 1_555
H20 C15 1_555 1_555
H21 C15 1_555 1_555
H22 C15 1_555 1_555
F1 C3 1_555 1_555
N1 C7 1_555 1_555
O1 C7 1_555 1_555
O2 N1 1_555 1_555
Sn1 C8 1_555 1_555
O2A Sn1 1_555 1_555
Sn1A O2 1_555 1_555
C5 C6 1_555 1_555
C12 Sn1 1_555 1_555
O1 Sn1 1_555 1_555
O2 Sn1 1_555 1_555

#END
