
#######################################################################
#
#                 Cambridge Crystallographic Data Centre
#                                CCDC 
#
#######################################################################
#
# If this CIF has been generated from an entry in the Cambridge 
# Structural Database, then it will include bibliographic, chemical, 
# crystal, experimental, refinement or atomic coordinate data resulting 
# from the CCDC's data processing and validation procedures.
#
#######################################################################

data_REQCOH
_symmetry_cell_setting           triclinic
_symmetry_space_group_name_H-M   'P -1'
_symmetry_Int_Tables_number      2
_space_group_name_Hall           '-P 1'
loop_
_symmetry_equiv_pos_site_id
_symmetry_equiv_pos_as_xyz
1 x,y,z
2 -x,-y,-z
_cell_length_a                   12.9180(10)
_cell_length_b                   13.4520(10)
_cell_length_c                   14.5180(10)
_cell_angle_alpha                112.1800(10)
_cell_angle_beta                 115.3150(10)
_cell_angle_gamma                92.6260(10)
_cell_volume                     2046.07
loop_
_atom_site_label
_atom_site_type_symbol
_atom_site_fract_x
_atom_site_fract_y
_atom_site_fract_z
Cu1 Cu 0.241078(19) 0.242200(18) 0.263676(19)
Cu2 Cu 0.0000 0.0000 0.0000
Cu3 Cu 0.5000 0.5000 0.5000
Cu4 Cu 0.741522(19) 0.238279(18) 0.259001(19)
O1 O 0.80320(13) 0.39430(11) 0.30084(12)
H1 H 0.783(2) 0.4202(17) 0.2532(14)
H2 H 0.818(2) 0.4441(13) 0.3642(9)
O2 O 0.63710(13) 0.19719(12) 0.07259(13)
H3 H 0.647(2) 0.1372(11) 0.0350(17)
H4 H 0.5657(7) 0.1959(19) 0.0360(18)
O3 O 0.68850(14) 0.08078(12) 0.22244(14)
H5 H 0.676(2) 0.0241(11) 0.1645(12)
H6 H 0.671(2) 0.0605(18) 0.2632(17)
O4 O 0.86468(13) 0.28056(13) 0.45376(13)
N1 N 0.44318(14) 0.28197(13) 0.30275(14)
N2 N 0.52875(14) 0.37177(13) 0.38819(14)
N3 N 0.62925(14) 0.37005(13) 0.38635(14)
N4 N 0.61141(14) 0.27696(13) 0.29720(14)
N5 N 0.39283(17) 0.03754(16) 0.07064(17)
N6 N 0.38328(14) 0.37025(13) 0.51359(14)
N7 N 0.29787(14) 0.28074(13) 0.42719(14)
N8 N 0.24177(15) 0.23293(14) 0.46298(15)
N9 N 0.28896(16) 0.29000(15) 0.57528(15)
N10 N 0.49920(19) 0.52954(18) 0.80575(17)
N11 N 0.32556(15) 0.58067(14) 0.35289(15)
N12 N 0.34786(14) 0.49227(13) 0.36996(13)
N13 N 0.25264(14) 0.40708(13) 0.30009(14)
N14 N 0.16547(15) 0.43773(14) 0.23561(15)
N15 N 0.0955(2) 0.66318(19) 0.1802(2)
N16 N 0.04727(14) 0.21015(13) 0.22772(14)
N17 N -0.03543(14) 0.11984(13) 0.13941(14)
N18 N -0.13566(14) 0.11571(13) 0.14212(14)
N19 N -0.12061(14) 0.20487(13) 0.23345(14)
N20 N 0.10142(16) 0.43769(15) 0.47308(16)
N21 N 0.09403(14) 0.13115(13) 0.00542(14)
N22 N 0.18601(14) 0.20964(13) 0.09984(14)
N23 N 0.23697(16) 0.27481(15) 0.07483(15)
N24 N 0.17984(16) 0.24138(15) -0.03721(15)
N25 N -0.05358(19) 0.05043(18) -0.29090(17)
N26 N 0.15176(14) -0.00513(13) 0.12140(13)
N27 N 0.17959(15) -0.10084(13) 0.11163(14)
N28 N 0.23566(14) 0.07756(13) 0.21742(14)
N29 N 0.32068(15) 0.03800(14) 0.27294(14)
N30 N 0.39279(19) -0.21689(17) 0.24916(18)
C1 C 0.49715(16) 0.22520(16) 0.24761(16)
C2 C 0.43925(17) 0.12097(17) 0.14854(18)
C3 C 0.37470(18) 0.37274(17) 0.60297(17)
C4 C 0.44599(19) 0.45911(18) 0.71630(18)
C5 C 0.21315(17) 0.54416(16) 0.26986(17)
C6 C 0.1485(2) 0.61121(18) 0.22035(19)
C7 C -0.00803(16) 0.26090(15) 0.28416(16)
C8 C 0.05022(17) 0.36057(16) 0.38836(17)
C9 C 0.09324(18) 0.15402(16) -0.07663(17)
C10 C 0.00987(19) 0.09451(18) -0.19545(18)
C11 C 0.28282(18) -0.07171(16) 0.20549(17)
C12 C 0.34569(19) -0.15154(18) 0.23046(19)
C13 C 0.9669(3) 0.1413(2) 0.4758(2)
H7 H 0.9054 0.0948 0.3974
H8 H 0.9652 0.1076 0.5245
H9 H 1.0444 0.1475 0.4791
C14 C 0.94487(19) 0.25389(18) 0.51576(18)
C15 C 1.0281(2) 0.3351(2) 0.6355(2)
H10 H 1.0079 0.4069 0.6504
H11 H 1.1092 0.3436 0.6472
H12 H 1.0218 0.3082 0.6873
Cu1A Cu -0.241078(19) -0.242200(18) -0.263676(19)
Cu4A Cu -0.741522(19) -0.238279(18) -0.259001(19)
O1A O -0.80320(13) -0.39430(11) -0.30084(12)
H1A H -0.783(2) -0.4202(17) -0.2532(14)
H2A H -0.818(2) -0.4441(13) -0.3642(9)
O2A O -0.63710(13) -0.19719(12) -0.07259(13)
H3A H -0.647(2) -0.1372(11) -0.0350(17)
H4A H -0.5657(7) -0.1959(19) -0.0360(18)
O3A O -0.68850(14) -0.08078(12) -0.22244(14)
H5A H -0.676(2) -0.0241(11) -0.1645(12)
H6A H -0.671(2) -0.0605(18) -0.2632(17)
O4A O -0.86468(13) -0.28056(13) -0.45376(13)
N1A N -0.44318(14) -0.28197(13) -0.30275(14)
N2A N -0.52875(14) -0.37177(13) -0.38819(14)
N3A N -0.62925(14) -0.37005(13) -0.38635(14)
N4A N -0.61141(14) -0.27696(13) -0.29720(14)
N5A N -0.39283(17) -0.03754(16) -0.07064(17)
N6A N -0.38328(14) -0.37025(13) -0.51359(14)
N7A N -0.29787(14) -0.28074(13) -0.42719(14)
N8A N -0.24177(15) -0.23293(14) -0.46298(15)
N9A N -0.28896(16) -0.29000(15) -0.57528(15)
N10A N -0.49920(19) -0.52954(18) -0.80575(17)
N11A N -0.32556(15) -0.58067(14) -0.35289(15)
N12A N -0.34786(14) -0.49227(13) -0.36996(13)
N13A N -0.25264(14) -0.40708(13) -0.30009(14)
N14A N -0.16547(15) -0.43773(14) -0.23561(15)
N15A N -0.0955(2) -0.66318(19) -0.1802(2)
N16A N -0.04727(14) -0.21015(13) -0.22772(14)
N17A N 0.03543(14) -0.11984(13) -0.13941(14)
N18A N 0.13566(14) -0.11571(13) -0.14212(14)
N19A N 0.12061(14) -0.20487(13) -0.23345(14)
N20A N -0.10142(16) -0.43769(15) -0.47308(16)
N21A N -0.09403(14) -0.13115(13) -0.00542(14)
N22A N -0.18601(14) -0.20964(13) -0.09984(14)
N23A N -0.23697(16) -0.27481(15) -0.07483(15)
N24A N -0.17984(16) -0.24138(15) 0.03721(15)
N25A N 0.05358(19) -0.05043(18) 0.29090(17)
N26A N -0.15176(14) 0.00513(13) -0.12140(13)
N27A N -0.17959(15) 0.10084(13) -0.11163(14)
N28A N -0.23566(14) -0.07756(13) -0.21742(14)
N29A N -0.32068(15) -0.03800(14) -0.27294(14)
N30A N -0.39279(19) 0.21689(17) -0.24916(18)
C1A C -0.49715(16) -0.22520(16) -0.24761(16)
C2A C -0.43925(17) -0.12097(17) -0.14854(18)
C3A C -0.37470(18) -0.37274(17) -0.60297(17)
C4A C -0.44599(19) -0.45911(18) -0.71630(18)
C5A C -0.21315(17) -0.54416(16) -0.26986(17)
C6A C -0.1485(2) -0.61121(18) -0.22035(19)
C7A C 0.00803(16) -0.26090(15) -0.28416(16)
C8A C -0.05022(17) -0.36057(16) -0.38836(17)
C9A C -0.09324(18) -0.15402(16) 0.07663(17)
C10A C -0.00987(19) -0.09451(18) 0.19545(18)
C11A C -0.28282(18) 0.07171(16) -0.20549(17)
C12A C -0.34569(19) 0.15154(18) -0.23046(19)
C13A C -0.9669(3) -0.1413(2) -0.4758(2)
H7A H -0.9054 -0.0948 -0.3974
H8A H -0.9652 -0.1076 -0.5245
H9A H -1.0444 -0.1475 -0.4791
C14A C -0.94487(19) -0.25389(18) -0.51576(18)
C15A C -1.0281(2) -0.3351(2) -0.6355(2)
H10A H -1.0079 -0.4069 -0.6504
H11A H -1.1092 -0.3436 -0.6472
H12A H -1.0218 -0.3082 -0.6873
Cu3_2 Cu -0.5000 -0.5000 -0.5000
Cu4_2 Cu -0.258478(19) 0.238279(18) 0.259001(19)
Cu4A_2 Cu 0.258478(19) -0.238279(18) -0.259001(19)
N2A_2 N 0.47125(14) 0.62823(13) 0.61181(14)
N6A_2 N 0.61672(14) 0.62975(13) 0.48641(14)
N12A_2 N 0.65214(14) 0.50773(13) 0.63004(13)
N19_2 N 0.87939(14) 0.20487(13) 0.23345(14)
N19A_2 N -0.87939(14) -0.20487(13) -0.23345(14)
O5 O 0.59975(14) 0.84431(13) 0.08566(14)
C16 C 0.7463(2) 0.8198(2) 0.2390(2)
H13 H 0.7859 0.8958 0.2629
H14 H 0.7956 0.7698 0.2229
H15 H 0.7337 0.8163 0.2998
C17 C 0.62997(19) 0.78532(18) 0.13475(18)
C18 C 0.5508(2) 0.6765(2) 0.0936(2)
H16 H 0.5058 0.6862 0.1349
H17 H 0.5986 0.6238 0.1067
H18 H 0.4962 0.6480 0.0123
O6 O 0.74508(15) 0.47602(13) 0.14684(14)
C19 C 0.7525(3) 0.4955(2) -0.0060(2)
H19 H 0.7013 0.5457 0.0035
H20 H 0.7115 0.4349 -0.0830
H21 H 0.8256 0.5364 0.0062
C20 C 0.78162(19) 0.44906(17) 0.07807(19)
C21 C 0.8564(2) 0.3678(2) 0.0743(2)
H22 H 0.9284 0.3957 0.1477
H23 H 0.8778 0.3577 0.0147
H24 H 0.8122 0.2967 0.0578
O7 O 0.61459(19) 0.00788(15) 0.33355(16)
C22 C 0.6415(2) -0.0350(2) 0.4841(2)
H25 H 0.6069 -0.1114 0.4245
H26 H 0.5974 -0.0173 0.5264
H27 H 0.7243 -0.0271 0.5359
C23 C 0.6355(2) 0.04213(19) 0.4316(2)
C24 C 0.6526(3) 0.1609(2) 0.5011(3)
H28 H 0.6747 0.2047 0.4687
H29 H 0.7154 0.1832 0.5788
H30 H 0.5788 0.1737 0.5020
loop_
_geom_bond_atom_site_label_1
_geom_bond_atom_site_label_2
_geom_bond_site_symmetry_1
_geom_bond_site_symmetry_2
Cu1 N1 1_555 1_555
Cu2 N17 1_555 1_555
Cu3 N2 1_555 1_555
Cu4 O1 1_555 1_555
O1 H1 1_555 1_555
H2 O1 1_555 1_555
O2 Cu4 1_555 1_555
H3 O2 1_555 1_555
H4 O2 1_555 1_555
O3 Cu4 1_555 1_555
H5 O3 1_555 1_555
H6 O3 1_555 1_555
O4 Cu4 1_555 1_555
N1 N2 1_555 1_555
N2 N3 1_555 1_555
N3 N4 1_555 1_555
N4 Cu4 1_555 1_555
N5 C2 1_555 1_555
N6 Cu3 1_555 1_555
N7 Cu1 1_555 1_555
N8 N7 1_555 1_555
N9 N8 1_555 1_555
N10 C4 1_555 1_555
N11 N12 1_555 1_555
N12 Cu3 1_555 1_555
N13 Cu1 1_555 1_555
N14 N13 1_555 1_555
N15 C6 1_555 1_555
N16 Cu1 1_555 1_555
N17 N16 1_555 1_555
N18 N17 1_555 1_555
N19 N18 1_555 1_555
N20 C8 1_555 1_555
N21 Cu2 1_555 1_555
N22 Cu1 1_555 1_555
N23 N22 1_555 1_555
N24 N23 1_555 1_555
N25 C10 1_555 1_555
N26 Cu2 1_555 1_555
N27 N26 1_555 1_555
N28 Cu1 1_555 1_555
N29 N28 1_555 1_555
N30 C12 1_555 1_555
C1 N1 1_555 1_555
C2 C1 1_555 1_555
C3 N6 1_555 1_555
C4 C3 1_555 1_555
C5 N11 1_555 1_555
C6 C5 1_555 1_555
C7 N16 1_555 1_555
C8 C7 1_555 1_555
C9 N21 1_555 1_555
C10 C9 1_555 1_555
C11 N27 1_555 1_555
C12 C11 1_555 1_555
C13 H7 1_555 1_555
H8 C13 1_555 1_555
H9 C13 1_555 1_555
C14 O4 1_555 1_555
C15 C14 1_555 1_555
H10 C15 1_555 1_555
H11 C15 1_555 1_555
H12 C15 1_555 1_555
O5 C17 1_555 1_555
C16 H13 1_555 1_555
H14 C16 1_555 1_555
H15 C16 1_555 1_555
C17 C16 1_555 1_555
C18 C17 1_555 1_555
H16 C18 1_555 1_555
H17 C18 1_555 1_555
H18 C18 1_555 1_555
O6 C20 1_555 1_555
C19 H19 1_555 1_555
H20 C19 1_555 1_555
H21 C19 1_555 1_555
C20 C19 1_555 1_555
C21 C20 1_555 1_555
H22 C21 1_555 1_555
H23 C21 1_555 1_555
H24 C21 1_555 1_555
O7 C23 1_555 1_555
C22 H25 1_555 1_555
H26 C22 1_555 1_555
H27 C22 1_555 1_555
C23 C22 1_555 1_555
C24 C23 1_555 1_555
H28 C24 1_555 1_555
H29 C24 1_555 1_555
H30 C24 1_555 1_555
Cu1A N1A 1_555 1_555
Cu4A O1A 1_555 1_555
O1A H1A 1_555 1_555
H2A O1A 1_555 1_555
O2A Cu4A 1_555 1_555
H3A O2A 1_555 1_555
H4A O2A 1_555 1_555
O3A Cu4A 1_555 1_555
H5A O3A 1_555 1_555
H6A O3A 1_555 1_555
O4A Cu4A 1_555 1_555
N1A N2A 1_555 1_555
N2A N3A 1_555 1_555
N3A N4A 1_555 1_555
N4A Cu4A 1_555 1_555
N5A C2A 1_555 1_555
N6A N7A 1_555 1_555
N7A Cu1A 1_555 1_555
N8A N7A 1_555 1_555
N9A N8A 1_555 1_555
N10A C4A 1_555 1_555
N11A N12A 1_555 1_555
N12A N13A 1_555 1_555
N13A Cu1A 1_555 1_555
N14A N13A 1_555 1_555
N15A C6A 1_555 1_555
N16A Cu1A 1_555 1_555
N17A Cu2 1_555 1_555
N18A N17A 1_555 1_555
N19A N18A 1_555 1_555
N20A C8A 1_555 1_555
N21A Cu2 1_555 1_555
N22A Cu1A 1_555 1_555
N23A N22A 1_555 1_555
N24A N23A 1_555 1_555
N25A C10A 1_555 1_555
N26A Cu2 1_555 1_555
N27A N26A 1_555 1_555
N28A Cu1A 1_555 1_555
N29A N28A 1_555 1_555
N30A C12A 1_555 1_555
C1A N1A 1_555 1_555
C2A C1A 1_555 1_555
C3A N6A 1_555 1_555
C4A C3A 1_555 1_555
C5A N11A 1_555 1_555
C6A C5A 1_555 1_555
C7A N16A 1_555 1_555
C8A C7A 1_555 1_555
C9A N21A 1_555 1_555
C10A C9A 1_555 1_555
C11A N27A 1_555 1_555
C12A C11A 1_555 1_555
C13A H7A 1_555 1_555
H8A C13A 1_555 1_555
H9A C13A 1_555 1_555
C14A O4A 1_555 1_555
C15A C14A 1_555 1_555
H10A C15A 1_555 1_555
H11A C15A 1_555 1_555
H12A C15A 1_555 1_555
Cu3_2 N2A 1_555 1_555
Cu4_2 N19 1_555 1_555
Cu4A_2 N19A 1_555 1_555
N2A_2 Cu3 1_555 1_555
N6A_2 Cu3 1_555 1_555
N12A_2 Cu3 1_555 1_555
N19_2 Cu4 1_555 1_555
N19A_2 Cu4A 1_555 1_555
N4 C1 1_555 1_555
N6 N7 1_555 1_555
N9 C3 1_555 1_555
N12 N13 1_555 1_555
N14 C5 1_555 1_555
N19 C7 1_555 1_555
N21 N22 1_555 1_555
N24 C9 1_555 1_555
N26 N28 1_555 1_555
N29 C11 1_555 1_555
C13 C14 1_555 1_555
N4A C1A 1_555 1_555
N6A Cu3_2 1_555 1_555
N9A C3A 1_555 1_555
N12A Cu3_2 1_555 1_555
N14A C5A 1_555 1_555
N16A N17A 1_555 1_555
N19A C7A 1_555 1_555
N21A N22A 1_555 1_555
N24A C9A 1_555 1_555
N26A N28A 1_555 1_555
N29A C11A 1_555 1_555
C13A C14A 1_555 1_555

#END
