
#######################################################################
#
#                 Cambridge Crystallographic Data Centre
#                                CCDC 
#
#######################################################################
#
# If this CIF has been generated from an entry in the Cambridge 
# Structural Database, then it will include bibliographic, chemical, 
# crystal, experimental, refinement or atomic coordinate data resulting 
# from the CCDC's data processing and validation procedures.
#
#######################################################################

data_REQDIC
_symmetry_cell_setting           monoclinic
_symmetry_space_group_name_H-M   'P 21/c'
_symmetry_Int_Tables_number      14
_space_group_name_Hall           '-P 2ybc'
loop_
_symmetry_equiv_pos_site_id
_symmetry_equiv_pos_as_xyz
1 x,y,z
2 -x,1/2+y,1/2-z
3 -x,-y,-z
4 x,1/2-y,1/2+z
_cell_length_a                   7.5389(3)
_cell_length_b                   15.0865(6)
_cell_length_c                   27.3257(9)
_cell_angle_alpha                90
_cell_angle_beta                 93.637(2)
_cell_angle_gamma                90
_cell_volume                     3101.65
loop_
_atom_site_label
_atom_site_type_symbol
_atom_site_fract_x
_atom_site_fract_y
_atom_site_fract_z
Cu1 Cu 0.5000 0.5000 0.0000
Cu2 Cu 1.0000 0.5000 0.0000
N1 N 1.2024(4) 0.4148(2) 0.04754(12)
N2 N 1.3734(4) 0.4380(2) 0.05235(11)
N3 N 1.4500(5) 0.4097(2) 0.09460(12)
N4 N 1.3273(5) 0.3661(3) 0.11877(13)
N5 N 0.8893(6) 0.2965(3) 0.11185(17)
N6 N 1.1038(4) 0.6884(2) 0.01549(12)
N7 N 1.1632(4) 0.6069(2) 0.00969(11)
N8 N 1.3395(4) 0.6080(2) 0.00660(11)
N9 N 1.3987(5) 0.6905(2) 0.01092(12)
N10 N 1.2565(7) 0.9078(3) 0.0243(2)
N11 N 0.7084(4) 0.5588(2) 0.05971(11)
N12 N 0.8795(4) 0.5330(2) 0.06105(11)
N13 N 0.9555(5) 0.5399(3) 0.10598(12)
N14 N 0.8368(5) 0.5723(3) 0.13556(13)
N15 N 0.4031(6) 0.6572(3) 0.13277(15)
C1 C 1.1795(5) 0.3712(3) 0.08943(15)
C2 C 1.0169(6) 0.3313(3) 0.10140(16)
C3 C 1.2508(6) 0.7378(3) 0.01650(15)
C4 C 1.2520(7) 0.8322(3) 0.02061(18)
C5 C 0.6899(6) 0.5824(3) 0.10632(15)
C6 C 0.5299(7) 0.6213(3) 0.12204(15)
N11B N 0.2916(4) 0.4412(2) -0.05971(11)
N12B N 0.1205(4) 0.4670(2) -0.06105(11)
N13B N 0.0445(5) 0.4601(3) -0.10598(12)
N14B N 0.1632(5) 0.4277(3) -0.13556(13)
N15B N 0.5969(6) 0.3428(3) -0.13277(15)
C5B C 0.3101(6) 0.4176(3) -0.10632(15)
C6B C 0.4701(7) 0.3787(3) -0.12204(15)
N1B N 0.7976(4) 0.5852(2) -0.04754(12)
N2B N 0.6266(4) 0.5620(2) -0.05235(11)
N3B N 0.5500(5) 0.5903(2) -0.09460(12)
N4B N 0.6727(5) 0.6339(3) -0.11877(13)
N5B N 1.1107(6) 0.7035(3) -0.11185(17)
C1B C 0.8205(5) 0.6288(3) -0.08943(15)
C2B C 0.9831(6) 0.6687(3) -0.10140(16)
N6B N 0.8962(4) 0.3116(2) -0.01549(12)
N7B N 0.8368(4) 0.3931(2) -0.00969(11)
N8B N 0.6605(4) 0.3920(2) -0.00660(11)
N9B N 0.6013(5) 0.3095(2) -0.01092(12)
N10B N 0.7435(7) 0.0922(3) -0.0243(2)
C3B C 0.7492(6) 0.2622(3) -0.01650(15)
C4B C 0.7480(7) 0.1678(3) -0.02061(18)
Cu1_2 Cu 1.5000 0.5000 0.0000
Cu2_2 Cu 0.0000 0.5000 0.0000
N2_2 N 0.3734(4) 0.4380(2) 0.05235(11)
N8_2 N 0.3395(4) 0.6080(2) 0.00660(11)
N12B_2 N 1.1205(4) 0.4670(2) -0.06105(11)
P1 P 0.14436(13) 0.00037(8) 0.17037(3)
C7 C 0.2829(6) 0.0699(3) 0.13554(14)
C8 C 0.4367(6) 0.1034(3) 0.15974(17)
H1 H 0.4677 0.0861 0.1926
C9 C 0.5446(7) 0.1616(3) 0.13626(18)
H2 H 0.6485 0.1851 0.1530
C10 C 0.5003(8) 0.1849(3) 0.08900(19)
H3 H 0.5746 0.2246 0.0727
C11 C 0.3506(9) 0.1521(4) 0.06440(18)
H4 H 0.3224 0.1696 0.0314
C12 C 0.2367(7) 0.0924(3) 0.08747(16)
H5 H 0.1332 0.0690 0.0705
C13 C 0.2928(5) -0.0682(3) 0.20795(14)
C14 C 0.2832(6) -0.0695(3) 0.25882(14)
H6 H 0.1948 -0.0365 0.2741
C15 C 0.4063(6) -0.1203(3) 0.28656(16)
H7 H 0.4009 -0.1223 0.3212
C16 C 0.5350(7) -0.1673(3) 0.26482(17)
H8 H 0.6180 -0.2015 0.2844
C17 C 0.5449(6) -0.1653(3) 0.21421(17)
H9 H 0.6348 -0.1978 0.1992
C18 C 0.4236(6) -0.1159(3) 0.18589(16)
H10 H 0.4294 -0.1146 0.1513
C19 C -0.0084(6) -0.0657(3) 0.13274(14)
C20 C 0.0153(6) -0.1564(3) 0.12832(15)
H11 H 0.1154 -0.1848 0.1444
C21 C -0.1094(7) -0.2053(3) 0.10000(16)
H12 H -0.0951 -0.2675 0.0969
C22 C -0.2536(7) -0.1639(4) 0.07645(17)
H13 H -0.3384 -0.1980 0.0574
C23 C -0.2761(7) -0.0734(4) 0.08024(18)
H14 H -0.3747 -0.0452 0.0634
C24 C -0.1535(6) -0.0239(3) 0.10885(16)
H15 H -0.1688 0.0383 0.1120
C25 C 0.0160(6) 0.0684(3) 0.20808(14)
C26 C 0.0451(6) 0.1594(3) 0.21154(16)
H16 H 0.1308 0.1870 0.1926
C27 C -0.0524(7) 0.2092(3) 0.24299(17)
H17 H -0.0330 0.2713 0.2455
C28 C -0.1764(7) 0.1698(3) 0.27040(17)
H18 H -0.2411 0.2049 0.2920
C29 C -0.2083(6) 0.0801(3) 0.26703(17)
H19 H -0.2945 0.0535 0.2863
C30 C -0.1147(6) 0.0288(3) 0.23557(15)
H20 H -0.1385 -0.0329 0.2325
loop_
_geom_bond_atom_site_label_1
_geom_bond_atom_site_label_2
_geom_bond_site_symmetry_1
_geom_bond_site_symmetry_2
Cu1 N11 1_555 1_555
Cu2 N1 1_555 1_555
N1 N2 1_555 1_555
N2 N3 1_555 1_555
N3 N4 1_555 1_555
N4 C1 1_555 1_555
N5 C2 1_555 1_555
N6 N7 1_555 1_555
N7 Cu2 1_555 1_555
N8 N7 1_555 1_555
N9 N8 1_555 1_555
N10 C4 1_555 1_555
N11 N12 1_555 1_555
N12 Cu2 1_555 1_555
N13 N12 1_555 1_555
N14 N13 1_555 1_555
N15 C6 1_555 1_555
C1 N1 1_555 1_555
C2 C1 1_555 1_555
C3 N6 1_555 1_555
C4 C3 1_555 1_555
C5 N11 1_555 1_555
C6 C5 1_555 1_555
P1 C7 1_555 1_555
C7 C8 1_555 1_555
C8 H1 1_555 1_555
C9 C8 1_555 1_555
H2 C9 1_555 1_555
C10 C9 1_555 1_555
H3 C10 1_555 1_555
C11 C10 1_555 1_555
H4 C11 1_555 1_555
C12 C7 1_555 1_555
H5 C12 1_555 1_555
C13 P1 1_555 1_555
C14 C13 1_555 1_555
H6 C14 1_555 1_555
C15 C14 1_555 1_555
H7 C15 1_555 1_555
C16 C15 1_555 1_555
H8 C16 1_555 1_555
C17 C16 1_555 1_555
H9 C17 1_555 1_555
C18 C13 1_555 1_555
H10 C18 1_555 1_555
C19 P1 1_555 1_555
C20 C19 1_555 1_555
H11 C20 1_555 1_555
C21 C20 1_555 1_555
H12 C21 1_555 1_555
C22 C21 1_555 1_555
H13 C22 1_555 1_555
C23 C22 1_555 1_555
H14 C23 1_555 1_555
C24 C19 1_555 1_555
H15 C24 1_555 1_555
C25 P1 1_555 1_555
C26 C25 1_555 1_555
H16 C26 1_555 1_555
C27 C26 1_555 1_555
H17 C27 1_555 1_555
C28 C27 1_555 1_555
H18 C28 1_555 1_555
C29 C28 1_555 1_555
H19 C29 1_555 1_555
C30 C25 1_555 1_555
H20 C30 1_555 1_555
N11B Cu1 1_555 1_555
N12B N11B 1_555 1_555
N13B N12B 1_555 1_555
N14B N13B 1_555 1_555
N15B C6B 1_555 1_555
C5B N11B 1_555 1_555
C6B C5B 1_555 1_555
N1B Cu2 1_555 1_555
N2B Cu1 1_555 1_555
N3B N2B 1_555 1_555
N4B N3B 1_555 1_555
N5B C2B 1_555 1_555
C1B N1B 1_555 1_555
C2B C1B 1_555 1_555
N6B N7B 1_555 1_555
N7B Cu2 1_555 1_555
N8B Cu1 1_555 1_555
N9B N8B 1_555 1_555
N10B C4B 1_555 1_555
C3B N6B 1_555 1_555
C4B C3B 1_555 1_555
Cu1_2 N2 1_555 1_555
Cu2_2 N12B 1_555 1_555
N2_2 Cu1 1_555 1_555
N8_2 Cu1 1_555 1_555
N12B_2 Cu2 1_555 1_555
N8 Cu1_2 1_555 1_555
N9 C3 1_555 1_555
N14 C5 1_555 1_555
C11 C12 1_555 1_555
C17 C18 1_555 1_555
C23 C24 1_555 1_555
C29 C30 1_555 1_555
N14B C5B 1_555 1_555
N1B N2B 1_555 1_555
N4B C1B 1_555 1_555
N7B N8B 1_555 1_555
N9B C3B 1_555 1_555

#END
