
#######################################################################
#
#                 Cambridge Crystallographic Data Centre
#                                CCDC 
#
#######################################################################
#
# If this CIF has been generated from an entry in the Cambridge 
# Structural Database, then it will include bibliographic, chemical, 
# crystal, experimental, refinement or atomic coordinate data resulting 
# from the CCDC's data processing and validation procedures.
#
#######################################################################

data_REQDIB
_symmetry_cell_setting           triclinic
_symmetry_space_group_name_H-M   'P -1'
_symmetry_Int_Tables_number      2
_space_group_name_Hall           '-P 1'
loop_
_symmetry_equiv_pos_site_id
_symmetry_equiv_pos_as_xyz
1 x,y,z
2 -x,-y,-z
_cell_length_a                   11.363(3)
_cell_length_b                   11.989(3)
_cell_length_c                   12.987(4)
_cell_angle_alpha                86.741(4)
_cell_angle_beta                 67.084(4)
_cell_angle_gamma                72.150(4)
_cell_volume                     1547.21
loop_
_atom_site_label
_atom_site_type_symbol
_atom_site_fract_x
_atom_site_fract_y
_atom_site_fract_z
Yb1 Yb 0.58489(3) 0.55965(3) 0.36277(3)
Yb2 Yb 0.54190(3) 0.85139(3) 0.24729(3)
Yb3 Yb 0.54612(3) 0.23927(3) 0.38006(3)
O1 O 0.3807(5) 0.6153(5) 0.3386(5)
O2 O 0.3671(5) 0.7863(5) 0.2573(5)
O3 O -0.2489(5) 0.6392(5) 0.3675(5)
O4 O -0.2788(5) 0.8172(5) 0.3004(5)
O5 O 0.6561(5) 0.6442(5) 0.2021(4)
O6 O 0.6954(6) 0.7529(5) 0.0590(5)
O7 O 0.7423(6) 0.2350(5) 0.3800(5)
O8 O 0.7677(5) 0.4119(5) 0.3608(5)
O9 O 1.3918(5) 0.0023(5) 0.3664(5)
O10 O 1.3657(5) 0.1861(5) 0.4171(5)
O11 O 0.6176(5) 0.4117(5) 0.2285(4)
O12 O 0.4513(6) 0.3409(5) 0.2553(5)
O13 O 0.6681(6) 1.1439(5) 0.2136(5)
O14 O 0.6611(6) 0.9747(5) 0.1594(5)
C1 C 0.3226(8) 0.7037(7) 0.2992(6)
C2 C 0.1829(8) 0.7104(7) 0.3097(7)
C3 C 0.1182(8) 0.6323(8) 0.3696(7)
H1 H 0.1617 0.5740 0.4045
C4 C -0.0088(8) 0.6385(7) 0.3789(7)
H2 H -0.0500 0.5851 0.4201
C5 C -0.0751(8) 0.7242(8) 0.3270(7)
C6 C -0.0129(8) 0.8049(8) 0.2683(8)
H3 H -0.0572 0.8636 0.2343
C7 C 0.1141(9) 0.7990(8) 0.2600(8)
H4 H 0.1541 0.8541 0.2211
C8 C -0.2140(8) 0.7285(7) 0.3338(7)
C9 C 0.7335(8) 0.6614(7) 0.1034(7)
C10 C 0.8697(8) 0.5750(7) 0.0505(7)
C11 C 0.9196(10) 0.4847(9) 0.1063(8)
H5 H 0.8669 0.4753 0.1797
C12 C 0.9530(10) 0.5924(9) -0.0549(8)
H6 H 0.9229 0.6567 -0.0918
C13 C 0.8097(8) 0.3023(7) 0.3635(6)
C14 C 0.9528(8) 0.2502(7) 0.3539(7)
C15 C 0.9988(9) 0.1310(8) 0.3693(9)
H7 H 0.9450 0.0834 0.3779
C16 C 1.1245(9) 0.0846(8) 0.3716(9)
H8 H 1.1574 0.0047 0.3790
C17 C 1.2015(8) 0.1567(7) 0.3628(7)
C18 C 1.1575(8) 0.2746(8) 0.3433(8)
H9 H 1.2118 0.3221 0.3333
C19 C 1.0331(8) 0.3202(8) 0.3390(7)
H10 H 1.0030 0.3989 0.3260
C20 C 1.3289(8) 0.1111(7) 0.3811(7)
C21 C 0.5280(8) 0.3997(7) 0.2000(7)
C22 C 0.5127(9) 0.4512(7) 0.0963(7)
C23 C 0.6225(8) 0.4698(8) 0.0101(7)
H11 H 0.7047 0.4505 0.0172
C24 C 0.3890(9) 0.4822(7) 0.0881(7)
H12 H 0.3146 0.4714 0.1467
C25 C 0.7213(8) 1.0474(8) 0.1530(7)
C26 C 0.8648(8) 1.0255(7) 0.0722(6)
C27 C 0.9356(9) 1.1005(8) 0.0717(8)
H13 H 0.8928 1.1686 0.1193
C28 C 0.9285(9) 0.9246(8) -0.0003(8)
H14 H 0.8812 0.8740 -0.0013
O15 O 0.4828(5) 0.7618(5) 0.4229(5)
H15 H 0.400(5) 0.779(8) 0.435(7)
O16 O 0.4601(5) 0.4292(5) 0.4520(4)
H16 H 0.3983 0.4655 0.4464
O17 O 0.4372(7) 0.9598(6) 0.1342(5)
H17 H 0.451(10) 1.024(6) 0.105(8)
H18 H 0.445(10) 0.911(7) 0.085(7)
O18 O 0.6337(7) 0.0437(5) 0.4165(5)
H19 H 0.690(8) -0.013(6) 0.379(7)
H20 H 0.587(8) 0.005(7) 0.461(7)
Yb1_2 Yb 1.58489(3) 0.55965(3) 0.36277(3)
Yb1_3 Yb -0.41511(3) 0.55965(3) 0.36277(3)
Yb1A Yb 0.41511(3) 0.44035(3) 0.63723(3)
Yb1A_2 Yb 1.41511(3) 0.44035(3) -0.36277(3)
Yb1A_3 Yb 0.41511(3) 0.44035(3) -0.36277(3)
Yb1_4 Yb -0.41511(3) 1.55965(3) 0.36277(3)
Yb2_2 Yb 1.54190(3) 0.85139(3) 0.24729(3)
Yb2_3 Yb -0.45810(3) 0.85139(3) 0.24729(3)
Yb2_4 Yb 1.54190(3) -0.14861(3) 0.24729(3)
Yb2A Yb 1.45810(3) 0.14861(3) -0.24729(3)
Yb2A_2 Yb 1.45810(3) 1.14861(3) -0.24729(3)
Yb2A_3 Yb 0.45810(3) 0.14861(3) 0.75271(3)
Yb3_2 Yb 1.54612(3) 0.23927(3) 0.38006(3)
Yb3_3 Yb 0.54612(3) 1.23927(3) 0.38006(3)
Yb3A Yb 0.45388(3) 0.76073(3) 0.61994(3)
Yb3A_2 Yb 0.45388(3) 0.76073(3) -0.38006(3)
Yb3A_3 Yb 1.45388(3) 0.76073(3) -0.38006(3)
Yb3_4 Yb -0.45388(3) 1.23927(3) 0.38006(3)
O1_2 O 1.3807(5) 0.6153(5) 0.3386(5)
O2_2 O 1.3671(5) 0.7863(5) 0.2573(5)
O3_2 O 0.7511(5) 0.6392(5) 0.3675(5)
O3_3 O 1.7511(5) 0.6392(5) 0.3675(5)
O4_2 O 0.7212(5) 0.8172(5) 0.3004(5)
O4_3 O 1.7212(5) 0.8172(5) 0.3004(5)
O5A O 1.3439(5) 0.3558(5) -0.2021(4)
O5_2 O 1.6561(5) 0.6442(5) 0.2021(4)
O6A O 1.3046(6) 0.2471(5) -0.0590(5)
O6_2 O 1.6954(6) 0.7529(5) 0.0590(5)
O7_2 O -0.2577(6) 1.2350(5) 0.3800(5)
O7_3 O 1.7423(6) 0.2350(5) 0.3800(5)
O8_2 O -0.2323(5) 1.4119(5) 0.3608(5)
O8_3 O 1.7677(5) 0.4119(5) 0.3608(5)
O9_2 O 0.3918(5) 1.0023(5) 0.3664(5)
O9_3 O 1.3918(5) 1.0023(5) 0.3664(5)
O10_2 O 0.3657(5) 1.1861(5) 0.4171(5)
O10_3 O 0.3657(5) 0.1861(5) 0.4171(5)
O11A O 0.3824(5) 0.5883(5) -0.2285(4)
O11_2 O 1.6176(5) 0.4117(5) 0.2285(4)
O12A O 0.5487(6) 0.6591(5) -0.2553(5)
O12_2 O 1.4513(6) 0.3409(5) 0.2553(5)
O13A O 1.3319(6) 0.8561(5) -0.2136(5)
O13_2 O 0.6681(6) 0.1439(5) 0.2136(5)
O13_3 O 1.6681(6) 0.1439(5) 0.2136(5)
O14A O 1.3389(6) 1.0253(5) -0.1594(5)
O14_2 O 1.6611(6) 0.9747(5) 0.1594(5)
C1_2 C 1.3226(8) 0.7037(7) 0.2992(6)
C2_2 C 1.1829(8) 0.7104(7) 0.3097(7)
C3_2 C 1.1182(8) 0.6323(8) 0.3696(7)
H1_2 H 1.1617 0.5740 0.4045
C4_2 C 0.9912(8) 0.6385(7) 0.3789(7)
H2_2 H 0.9500 0.5851 0.4201
C5_2 C 0.9249(8) 0.7242(8) 0.3270(7)
C6_2 C 0.9871(8) 0.8049(8) 0.2683(8)
H3_2 H 0.9428 0.8636 0.2343
C7_2 C 1.1141(9) 0.7990(8) 0.2600(8)
H4_2 H 1.1541 0.8541 0.2211
C8_2 C 0.7860(8) 0.7285(7) 0.3338(7)
C9A C 1.2665(8) 0.3386(7) -0.1034(7)
C10A C 1.1303(8) 0.4250(7) -0.0505(7)
C11A C 1.0804(10) 0.5153(9) -0.1063(8)
H5A H 1.1331 0.5247 -0.1797
C12A C 1.0470(10) 0.4076(9) 0.0549(8)
H6A H 1.0771 0.3433 0.0918
C13_2 C -0.1903(8) 1.3023(7) 0.3635(6)
C14_2 C -0.0472(8) 1.2502(7) 0.3539(7)
C15_2 C -0.0012(9) 1.1310(8) 0.3693(9)
H7_2 H -0.0550 1.0834 0.3779
C16_2 C 0.1245(9) 1.0846(8) 0.3716(9)
H8_2 H 0.1574 1.0047 0.3790
C17_2 C 0.2015(8) 1.1567(7) 0.3628(7)
C18_2 C 0.1575(8) 1.2746(8) 0.3433(8)
H9_2 H 0.2118 1.3221 0.3333
C19_2 C 0.0331(8) 1.3202(8) 0.3390(7)
H10_2 H 0.0030 1.3989 0.3260
C20_2 C 0.3289(8) 1.1111(7) 0.3811(7)
C21A C 0.4720(8) 0.6003(7) -0.2000(7)
C22A C 0.4873(9) 0.5488(7) -0.0963(7)
C23A C 0.3775(8) 0.5302(8) -0.0101(7)
H11A H 0.2953 0.5495 -0.0172
C24A C 0.6110(9) 0.5178(7) -0.0881(7)
H12A H 0.6854 0.5286 -0.1467
C25A C 1.2787(8) 0.9526(8) -0.1530(7)
C26A C 1.1352(8) 0.9745(7) -0.0722(6)
C27A C 1.0644(9) 0.8995(8) -0.0717(8)
H13A H 1.1072 0.8314 -0.1193
C28A C 1.0715(9) 1.0754(8) 0.0003(8)
H14A H 1.1188 1.1260 0.0013
O15A O 0.5172(5) 0.2382(5) 0.5771(5)
O15_2 O 1.4828(5) 0.7618(5) 0.4229(5)
O15A_2 O 1.5172(5) 0.2382(5) 0.5771(5)
H15A H 0.600(5) 0.221(8) 0.565(7)
H15_2 H 1.400(5) 0.779(8) 0.435(7)
H15A_2 H 1.600(5) 0.221(8) 0.565(7)
O16A O 0.5399(5) 0.5708(5) 0.5480(4)
O16_2 O 1.4601(5) 0.4292(5) 0.4520(4)
O16A_2 O 1.5399(5) 0.5708(5) 0.5480(4)
H16A H 0.6017 0.5345 0.5536
H16_2 H 1.3983 0.4655 0.4464
H16A_2 H 1.6017 0.5345 0.5536
O17_2 O 1.4372(7) 0.9598(6) 0.1342(5)
H17_2 H 1.451(10) 1.024(6) 0.105(8)
H18_2 H 1.445(10) 0.911(7) 0.085(7)
O18_2 O 1.6337(7) 0.0437(5) 0.4165(5)
H19_2 H 1.690(8) -0.013(6) 0.379(7)
H20_2 H 1.587(8) 0.005(7) 0.461(7)
O19 O 0.5459(10) 0.8226(6) 0.9155(7)
H21 H 0.600(10) 0.786(10) 0.945(10)
H22 H 0.502(11) 0.780(9) 0.909(11)
loop_
_geom_bond_atom_site_label_1
_geom_bond_atom_site_label_2
_geom_bond_site_symmetry_1
_geom_bond_site_symmetry_2
Yb1 O1 1_555 1_555
Yb2 O2 1_555 1_555
Yb3 O7 1_555 1_555
O1 C1 1_555 1_555
O2 C1 1_555 1_555
O3 C8 1_555 1_555
O4 C8 1_555 1_555
O5 Yb1 1_555 1_555
O6 Yb2 1_555 1_555
O7 C13 1_555 1_555
O8 Yb1 1_555 1_555
O9 C20 1_555 1_555
O10 C20 1_555 1_555
O11 Yb1 1_555 1_555
O12 Yb3 1_555 1_555
O13 C25 1_555 1_555
O14 Yb2 1_555 1_555
C1 C2 1_555 1_555
C2 C3 1_555 1_555
C3 H1 1_555 1_555
C4 C3 1_555 1_555
H2 C4 1_555 1_555
C5 C4 1_555 1_555
C6 C5 1_555 1_555
H3 C6 1_555 1_555
C7 C2 1_555 1_555
H4 C7 1_555 1_555
C8 C5 1_555 1_555
C9 O5 1_555 1_555
C10 C9 1_555 1_555
C11 C10 1_555 1_555
H5 C11 1_555 1_555
C12 C10 1_555 1_555
H6 C12 1_555 1_555
C13 O8 1_555 1_555
C14 C13 1_555 1_555
C15 C14 1_555 1_555
H7 C15 1_555 1_555
C16 C15 1_555 1_555
H8 C16 1_555 1_555
C17 C16 1_555 1_555
C18 C17 1_555 1_555
H9 C18 1_555 1_555
C19 C14 1_555 1_555
H10 C19 1_555 1_555
C20 C17 1_555 1_555
C21 O11 1_555 1_555
C22 C21 1_555 1_555
C23 C22 1_555 1_555
H11 C23 1_555 1_555
C24 C22 1_555 1_555
H12 C24 1_555 1_555
C25 O14 1_555 1_555
C26 C25 1_555 1_555
C27 C26 1_555 1_555
H13 C27 1_555 1_555
C28 C26 1_555 1_555
H14 C28 1_555 1_555
O15 Yb1 1_555 1_555
H15 O15 1_555 1_555
O16 Yb1 1_555 1_555
H16 O16 1_555 1_555
O17 Yb2 1_555 1_555
H17 O17 1_555 1_555
H18 O17 1_555 1_555
O18 Yb3 1_555 1_555
H19 O18 1_555 1_555
H20 O18 1_555 1_555
O19 H21 1_555 1_555
H22 O19 1_555 1_555
Yb1_2 O1_2 1_555 1_555
Yb1_3 O3 1_555 1_555
Yb1A O16 1_555 1_555
Yb1A_2 O5A 1_555 1_555
Yb1A_3 O11A 1_555 1_555
Yb1_4 O8_2 1_555 1_555
Yb2_2 O2_2 1_555 1_555
Yb2_3 O4 1_555 1_555
Yb2_4 O9 1_555 1_555
Yb2A O5A 1_555 1_555
Yb2A_2 O14A 1_555 1_555
Yb2A_3 O15A 1_555 1_555
Yb3_2 O10 1_555 1_555
Yb3_3 O13 1_555 1_555
Yb3A O15 1_555 1_555
Yb3A_2 O12A 1_555 1_555
Yb3A_3 O13A 1_555 1_555
Yb3_4 O7_2 1_555 1_555
O1_2 C1_2 1_555 1_555
O2_2 C1_2 1_555 1_555
O3_2 Yb1 1_555 1_555
O3_3 Yb1_2 1_555 1_555
O4_2 Yb2 1_555 1_555
O4_3 Yb2_2 1_555 1_555
O5A C9A 1_555 1_555
O5_2 Yb1_2 1_555 1_555
O6A Yb2A 1_555 1_555
O6_2 Yb2_2 1_555 1_555
O7_2 C13_2 1_555 1_555
O7_3 Yb3_2 1_555 1_555
O8_2 C13_2 1_555 1_555
O8_3 Yb1_2 1_555 1_555
O9_2 Yb2 1_555 1_555
O9_3 Yb2_2 1_555 1_555
O10_2 Yb3_3 1_555 1_555
O10_3 Yb3 1_555 1_555
O11A C21A 1_555 1_555
O11_2 Yb1_2 1_555 1_555
O12A C21A 1_555 1_555
O12_2 Yb3_2 1_555 1_555
O13A C25A 1_555 1_555
O13_2 Yb3 1_555 1_555
O13_3 Yb3_2 1_555 1_555
O14A C25A 1_555 1_555
O14_2 Yb2_2 1_555 1_555
C1_2 C2_2 1_555 1_555
C2_2 C3_2 1_555 1_555
C3_2 H1_2 1_555 1_555
C4_2 C3_2 1_555 1_555
H2_2 C4_2 1_555 1_555
C5_2 C4_2 1_555 1_555
C6_2 C5_2 1_555 1_555
H3_2 C6_2 1_555 1_555
C7_2 C2_2 1_555 1_555
H4_2 C7_2 1_555 1_555
C8_2 O3_2 1_555 1_555
C9A O6A 1_555 1_555
C10A C9A 1_555 1_555
C11A C12 1_555 1_555
H5A C11A 1_555 1_555
C12A C11 1_555 1_555
H6A C12A 1_555 1_555
C13_2 C14_2 1_555 1_555
C14_2 C15_2 1_555 1_555
C15_2 H7_2 1_555 1_555
C16_2 C15_2 1_555 1_555
H8_2 C16_2 1_555 1_555
C17_2 C16_2 1_555 1_555
C18_2 C17_2 1_555 1_555
H9_2 C18_2 1_555 1_555
C19_2 C14_2 1_555 1_555
H10_2 C19_2 1_555 1_555
C20_2 O9_2 1_555 1_555
C21A C22A 1_555 1_555
C22A C23A 1_555 1_555
C23A C24 1_555 1_555
H11A C23A 1_555 1_555
C24A C23 1_555 1_555
H12A C24A 1_555 1_555
C25A C26A 1_555 1_555
C26A C27A 1_555 1_555
C27A C28 1_555 1_555
H13A C27A 1_555 1_555
C28A C27 1_555 1_555
H14A C28A 1_555 1_555
O15A Yb3 1_555 1_555
O15_2 Yb1_2 1_555 1_555
O15A_2 Yb3_2 1_555 1_555
H15A O15A 1_555 1_555
H15_2 O15_2 1_555 1_555
H15A_2 O15A_2 1_555 1_555
O16A Yb1 1_555 1_555
O16_2 Yb1_2 1_555 1_555
O16A_2 Yb1_2 1_555 1_555
H16A O16A 1_555 1_555
H16_2 O16_2 1_555 1_555
H16A_2 O16A_2 1_555 1_555
O17_2 Yb2_2 1_555 1_555
H17_2 O17_2 1_555 1_555
H18_2 O17_2 1_555 1_555
O18_2 Yb3_2 1_555 1_555
H19_2 O18_2 1_555 1_555
H20_2 O18_2 1_555 1_555
Yb2 O5 1_555 1_555
Yb2 O15 1_555 1_555
Yb3 O16 1_555 1_555
O6 C9 1_555 1_555
O12 C21 1_555 1_555
C6 C7 1_555 1_555
C18 C19 1_555 1_555
Yb1A O15A 1_555 1_555
Yb1A O16A 1_555 1_555
Yb2_2 O5_2 1_555 1_555
Yb2_2 O15_2 1_555 1_555
Yb3_2 O16_2 1_555 1_555
Yb3A O16A 1_555 1_555
O4_2 C8_2 1_555 1_555
O10_2 C20_2 1_555 1_555
C5_2 C8_2 1_555 1_555
C6_2 C7_2 1_555 1_555
C10A C11A 1_555 1_555
C10A C12A 1_555 1_555
C17_2 C20_2 1_555 1_555
C18_2 C19_2 1_555 1_555
C22A C24A 1_555 1_555
C26A C28A 1_555 1_555

#END
