
#######################################################################
#
#                 Cambridge Crystallographic Data Centre
#                                CCDC 
#
#######################################################################
#
# If this CIF has been generated from an entry in the Cambridge 
# Structural Database, then it will include bibliographic, chemical, 
# crystal, experimental, refinement or atomic coordinate data resulting 
# from the CCDC's data processing and validation procedures.
#
#######################################################################

data_REQDEX
_symmetry_cell_setting           triclinic
_symmetry_space_group_name_H-M   'P -1'
_symmetry_Int_Tables_number      2
_space_group_name_Hall           '-P 1'
loop_
_symmetry_equiv_pos_site_id
_symmetry_equiv_pos_as_xyz
1 x,y,z
2 -x,-y,-z
_cell_length_a                   11.3918(11)
_cell_length_b                   12.0698(12)
_cell_length_c                   12.9957(13)
_cell_angle_alpha                86.8980(10)
_cell_angle_beta                 67.1760(10)
_cell_angle_gamma                72.2000(10)
_cell_volume                     1563.88
loop_
_atom_site_label
_atom_site_type_symbol
_atom_site_fract_x
_atom_site_fract_y
_atom_site_fract_z
Y1 Y 0.58550(3) 0.55854(3) 0.36106(3)
Y2 Y 0.54150(3) 0.85145(3) 0.24574(3)
Y3 Y 0.54576(3) 0.23937(3) 0.37908(3)
O1 O 0.3806(2) 0.6161(2) 0.3371(2)
O2 O 0.3659(3) 0.7840(2) 0.2562(2)
O3 O -0.2480(3) 0.6398(2) 0.3658(2)
O4 O -0.2771(2) 0.8165(2) 0.2984(2)
O5 O 0.6563(2) 0.6434(2) 0.1983(2)
O6 O 0.6966(3) 0.7512(2) 0.0571(2)
O7 O 0.7417(3) 0.2350(2) 0.3809(2)
O8 O 0.7692(3) 0.4099(2) 0.3586(2)
O9 O 1.3886(3) 0.0026(2) 0.3668(2)
O10 O 1.3648(2) 0.1833(2) 0.4175(2)
O11 O 0.6164(2) 0.4075(2) 0.2281(2)
O12 O 0.4482(3) 0.3408(2) 0.2522(2)
O13 O 0.6672(3) 1.1427(2) 0.2109(2)
O14 O 0.6634(3) 0.9743(2) 0.1569(2)
C1 C 0.3195(3) 0.7031(3) 0.2988(3)
C2 C 0.1815(4) 0.7101(3) 0.3079(3)
C3 C 0.1196(4) 0.6312(3) 0.3665(3)
H1 H 0.1639 0.5726 0.4001
C4 C -0.0076(4) 0.6384(3) 0.3760(3)
H2 H -0.0481 0.5847 0.4163
C5 C -0.0758(4) 0.7246(3) 0.3261(3)
C6 C -0.0134(4) 0.8041(3) 0.2681(4)
H3 H -0.0581 0.8630 0.2350
C7 C 0.1135(4) 0.7982(3) 0.2584(4)
H4 H 0.1535 0.8525 0.2191
C8 C -0.2098(4) 0.7264(3) 0.3316(3)
C9 C 0.7340(3) 0.6605(3) 0.1011(3)
C10 C 0.8702(4) 0.5757(3) 0.0483(3)
C11 C 0.9158(4) 0.4818(4) 0.1027(4)
H5 H 0.8590 0.4688 0.1730
C12 C 0.9558(4) 0.5930(4) -0.0548(4)
H6 H 0.9268 0.6561 -0.0928
C13 C 0.8117(3) 0.3023(3) 0.3645(3)
C14 C 0.9520(4) 0.2495(3) 0.3550(3)
C15 C 0.9984(4) 0.1314(3) 0.3684(4)
H7 H 0.9453 0.0840 0.3755
C16 C 1.1243(4) 0.0846(3) 0.3712(4)
H8 H 1.1571 0.0051 0.3781
C17 C 1.2009(3) 0.1566(3) 0.3637(3)
C18 C 1.1563(4) 0.2738(3) 0.3455(3)
H9 H 1.2099 0.3211 0.3370
C19 C 1.0321(4) 0.3196(3) 0.3400(3)
H10 H 1.0025 0.3975 0.3262
C20 C 1.3276(3) 0.1116(3) 0.3824(3)
C21 C 0.5259(4) 0.3969(3) 0.1987(3)
C22 C 0.5118(4) 0.4511(3) 0.0957(3)
C23 C 0.6219(4) 0.4693(3) 0.0101(3)
H11 H 0.7041 0.4487 0.0167
C24 C 0.3908(4) 0.4817(3) 0.0853(3)
H12 H 0.3169 0.4694 0.1427
C25 C 0.7205(3) 1.0475(3) 0.1519(3)
C26 C 0.8651(4) 1.0240(3) 0.0716(3)
C27 C 0.9349(4) 1.0996(4) 0.0712(4)
H13 H 0.8917 1.1675 0.1185
C28 C 0.9304(4) 0.9248(4) -0.0006(4)
H14 H 0.8842 0.8737 -0.0022
O15 O 0.4812(3) 0.7607(2) 0.4222(2)
H15 H 0.406(4) 0.783(4) 0.442(4)
O16 O 0.4553(2) 0.43113(19) 0.45315(19)
H16 H 0.394(4) 0.457(4) 0.439(4)
O17 O 0.4352(3) 0.9594(3) 0.1316(3)
H17 H 0.432(6) 1.028(4) 0.119(5)
H18 H 0.427(6) 0.924(5) 0.086(4)
O18 O 0.6336(3) 0.0411(2) 0.4156(3)
H19 H 0.677(4) -0.017(3) 0.375(3)
H20 H 0.621(6) 0.036(5) 0.480(3)
Y1_2 Y 1.58550(3) 0.55854(3) 0.36106(3)
Y1_3 Y -0.41450(3) 0.55854(3) 0.36106(3)
Y1A Y 0.41450(3) 0.44146(3) 0.63894(3)
Y1A_2 Y 1.41450(3) 0.44146(3) -0.36106(3)
Y1A_3 Y 0.41450(3) 0.44146(3) -0.36106(3)
Y1_4 Y -0.41450(3) 1.55854(3) 0.36106(3)
Y2_2 Y 1.54150(3) 0.85145(3) 0.24574(3)
Y2_3 Y -0.45850(3) 0.85145(3) 0.24574(3)
Y2_4 Y 1.54150(3) -0.14855(3) 0.24574(3)
Y2A Y 1.45850(3) 0.14855(3) -0.24574(3)
Y2A_2 Y 1.45850(3) 1.14855(3) -0.24574(3)
Y2A_3 Y 0.45850(3) 0.14855(3) 0.75426(3)
Y3_2 Y 1.54576(3) 0.23937(3) 0.37908(3)
Y3_3 Y 0.54576(3) 1.23937(3) 0.37908(3)
Y3A Y 0.45424(3) 0.76063(3) 0.62092(3)
Y3A_2 Y 0.45424(3) 0.76063(3) -0.37908(3)
Y3A_3 Y 1.45424(3) 0.76063(3) -0.37908(3)
Y3_4 Y -0.45424(3) 1.23937(3) 0.37908(3)
O1_2 O 1.3806(2) 0.6161(2) 0.3371(2)
O2_2 O 1.3659(3) 0.7840(2) 0.2562(2)
O3_2 O 0.7520(3) 0.6398(2) 0.3658(2)
O3_3 O 1.7520(3) 0.6398(2) 0.3658(2)
O4_2 O 0.7229(2) 0.8165(2) 0.2984(2)
O4_3 O 1.7229(2) 0.8165(2) 0.2984(2)
O5A O 1.3437(2) 0.3566(2) -0.1983(2)
O5_2 O 1.6563(2) 0.6434(2) 0.1983(2)
O6A O 1.3034(3) 0.2488(2) -0.0571(2)
O6_2 O 1.6966(3) 0.7512(2) 0.0571(2)
O7_2 O -0.2583(3) 1.2350(2) 0.3809(2)
O7_3 O 1.7417(3) 0.2350(2) 0.3809(2)
O8_2 O -0.2308(3) 1.4099(2) 0.3586(2)
O8_3 O 1.7692(3) 0.4099(2) 0.3586(2)
O9_2 O 0.3886(3) 1.0026(2) 0.3668(2)
O9_3 O 1.3886(3) 1.0026(2) 0.3668(2)
O10_2 O 0.3648(2) 1.1833(2) 0.4175(2)
O10_3 O 0.3648(2) 0.1833(2) 0.4175(2)
O11A O 0.3836(2) 0.5925(2) -0.2281(2)
O11_2 O 1.6164(2) 0.4075(2) 0.2281(2)
O12A O 0.5518(3) 0.6592(2) -0.2522(2)
O12_2 O 1.4482(3) 0.3408(2) 0.2522(2)
O13A O 1.3328(3) 0.8573(2) -0.2109(2)
O13_2 O 0.6672(3) 0.1427(2) 0.2109(2)
O13_3 O 1.6672(3) 0.1427(2) 0.2109(2)
O14A O 1.3366(3) 1.0257(2) -0.1569(2)
O14_2 O 1.6634(3) 0.9743(2) 0.1569(2)
C1_2 C 1.3195(3) 0.7031(3) 0.2988(3)
C2_2 C 1.1815(4) 0.7101(3) 0.3079(3)
C3_2 C 1.1196(4) 0.6312(3) 0.3665(3)
H1_2 H 1.1639 0.5726 0.4001
C4_2 C 0.9924(4) 0.6384(3) 0.3760(3)
H2_2 H 0.9519 0.5847 0.4163
C5_2 C 0.9242(4) 0.7246(3) 0.3261(3)
C6_2 C 0.9866(4) 0.8041(3) 0.2681(4)
H3_2 H 0.9419 0.8630 0.2350
C7_2 C 1.1135(4) 0.7982(3) 0.2584(4)
H4_2 H 1.1535 0.8525 0.2191
C8_2 C 0.7902(4) 0.7264(3) 0.3316(3)
C9A C 1.2660(3) 0.3395(3) -0.1011(3)
C10A C 1.1298(4) 0.4243(3) -0.0483(3)
C11A C 1.0842(4) 0.5182(4) -0.1027(4)
H5A H 1.1410 0.5312 -0.1730
C12A C 1.0442(4) 0.4070(4) 0.0548(4)
H6A H 1.0732 0.3439 0.0928
C13_2 C -0.1883(3) 1.3023(3) 0.3645(3)
C14_2 C -0.0480(4) 1.2495(3) 0.3550(3)
C15_2 C -0.0016(4) 1.1314(3) 0.3684(4)
H7_2 H -0.0547 1.0840 0.3755
C16_2 C 0.1243(4) 1.0846(3) 0.3712(4)
H8_2 H 0.1571 1.0051 0.3781
C17_2 C 0.2009(3) 1.1566(3) 0.3637(3)
C18_2 C 0.1563(4) 1.2738(3) 0.3455(3)
H9_2 H 0.2099 1.3211 0.3370
C19_2 C 0.0321(4) 1.3196(3) 0.3400(3)
H10_2 H 0.0025 1.3975 0.3262
C20_2 C 0.3276(3) 1.1116(3) 0.3824(3)
C21A C 0.4741(4) 0.6031(3) -0.1987(3)
C22A C 0.4882(4) 0.5489(3) -0.0957(3)
C23A C 0.3781(4) 0.5307(3) -0.0101(3)
H11A H 0.2959 0.5513 -0.0167
C24A C 0.6092(4) 0.5183(3) -0.0853(3)
H12A H 0.6831 0.5306 -0.1427
C25A C 1.2795(3) 0.9525(3) -0.1519(3)
C26A C 1.1349(4) 0.9760(3) -0.0716(3)
C27A C 1.0651(4) 0.9004(4) -0.0712(4)
H13A H 1.1083 0.8325 -0.1185
C28A C 1.0696(4) 1.0752(4) 0.0006(4)
H14A H 1.1158 1.1263 0.0022
O15A O 0.5188(3) 0.2393(2) 0.5778(2)
O15_2 O 1.4812(3) 0.7607(2) 0.4222(2)
O15A_2 O 1.5188(3) 0.2393(2) 0.5778(2)
H15A H 0.594(4) 0.217(4) 0.558(4)
H15_2 H 1.406(4) 0.783(4) 0.442(4)
H15A_2 H 1.594(4) 0.217(4) 0.558(4)
O16A O 0.5447(2) 0.56887(19) 0.54685(19)
O16_2 O 1.4553(2) 0.43113(19) 0.45315(19)
O16A_2 O 1.5447(2) 0.56887(19) 0.54685(19)
H16A H 0.606(4) 0.543(4) 0.561(4)
H16_2 H 1.394(4) 0.457(4) 0.439(4)
H16A_2 H 1.606(4) 0.543(4) 0.561(4)
O17_2 O 1.4352(3) 0.9594(3) 0.1316(3)
H17_2 H 1.432(6) 1.028(4) 0.119(5)
H18_2 H 1.427(6) 0.924(5) 0.086(4)
O18_2 O 1.6336(3) 0.0411(2) 0.4156(3)
H19_2 H 1.677(4) -0.017(3) 0.375(3)
H20_2 H 1.621(6) 0.036(5) 0.480(3)
O19 O 0.5464(5) 0.8236(3) 0.9161(3)
H21 H 0.604(4) 0.787(4) 0.937(4)
H22 H 0.548(6) 0.782(5) 0.868(4)
loop_
_geom_bond_atom_site_label_1
_geom_bond_atom_site_label_2
_geom_bond_site_symmetry_1
_geom_bond_site_symmetry_2
Y1 O1 1_555 1_555
Y2 O2 1_555 1_555
Y3 O7 1_555 1_555
O1 C1 1_555 1_555
O2 C1 1_555 1_555
O3 C8 1_555 1_555
O4 C8 1_555 1_555
O5 Y1 1_555 1_555
O6 Y2 1_555 1_555
O7 C13 1_555 1_555
O8 Y1 1_555 1_555
O9 C20 1_555 1_555
O10 C20 1_555 1_555
O11 Y1 1_555 1_555
O12 Y3 1_555 1_555
O13 C25 1_555 1_555
O14 Y2 1_555 1_555
C1 C2 1_555 1_555
C2 C3 1_555 1_555
C3 H1 1_555 1_555
C4 C3 1_555 1_555
H2 C4 1_555 1_555
C5 C4 1_555 1_555
C6 C5 1_555 1_555
H3 C6 1_555 1_555
C7 C2 1_555 1_555
H4 C7 1_555 1_555
C8 C5 1_555 1_555
C9 O5 1_555 1_555
C10 C9 1_555 1_555
C11 C10 1_555 1_555
H5 C11 1_555 1_555
C12 C10 1_555 1_555
H6 C12 1_555 1_555
C13 O8 1_555 1_555
C14 C13 1_555 1_555
C15 C14 1_555 1_555
H7 C15 1_555 1_555
C16 C15 1_555 1_555
H8 C16 1_555 1_555
C17 C16 1_555 1_555
C18 C17 1_555 1_555
H9 C18 1_555 1_555
C19 C14 1_555 1_555
H10 C19 1_555 1_555
C20 C17 1_555 1_555
C21 O11 1_555 1_555
C22 C21 1_555 1_555
C23 C22 1_555 1_555
H11 C23 1_555 1_555
C24 C22 1_555 1_555
H12 C24 1_555 1_555
C25 O14 1_555 1_555
C26 C25 1_555 1_555
C27 C26 1_555 1_555
H13 C27 1_555 1_555
C28 C26 1_555 1_555
H14 C28 1_555 1_555
O15 Y1 1_555 1_555
H15 O15 1_555 1_555
O16 Y1 1_555 1_555
H16 O16 1_555 1_555
O17 Y2 1_555 1_555
H17 O17 1_555 1_555
H18 O17 1_555 1_555
O18 Y3 1_555 1_555
H19 O18 1_555 1_555
H20 O18 1_555 1_555
O19 H21 1_555 1_555
H22 O19 1_555 1_555
Y1_2 O1_2 1_555 1_555
Y1_3 O3 1_555 1_555
Y1A O16 1_555 1_555
Y1A_2 O5A 1_555 1_555
Y1A_3 O11A 1_555 1_555
Y1_4 O8_2 1_555 1_555
Y2_2 O2_2 1_555 1_555
Y2_3 O4 1_555 1_555
Y2_4 O9 1_555 1_555
Y2A O5A 1_555 1_555
Y2A_2 O14A 1_555 1_555
Y2A_3 O15A 1_555 1_555
Y3_2 O10 1_555 1_555
Y3_3 O13 1_555 1_555
Y3A O15 1_555 1_555
Y3A_2 O12A 1_555 1_555
Y3A_3 O13A 1_555 1_555
Y3_4 O7_2 1_555 1_555
O1_2 C1_2 1_555 1_555
O2_2 C1_2 1_555 1_555
O3_2 Y1 1_555 1_555
O3_3 Y1_2 1_555 1_555
O4_2 Y2 1_555 1_555
O4_3 Y2_2 1_555 1_555
O5A C9A 1_555 1_555
O5_2 Y1_2 1_555 1_555
O6A Y2A 1_555 1_555
O6_2 Y2_2 1_555 1_555
O7_2 C13_2 1_555 1_555
O7_3 Y3_2 1_555 1_555
O8_2 C13_2 1_555 1_555
O8_3 Y1_2 1_555 1_555
O9_2 Y2 1_555 1_555
O9_3 Y2_2 1_555 1_555
O10_2 Y3_3 1_555 1_555
O10_3 Y3 1_555 1_555
O11A C21A 1_555 1_555
O11_2 Y1_2 1_555 1_555
O12A C21A 1_555 1_555
O12_2 Y3_2 1_555 1_555
O13A C25A 1_555 1_555
O13_2 Y3 1_555 1_555
O13_3 Y3_2 1_555 1_555
O14A C25A 1_555 1_555
O14_2 Y2_2 1_555 1_555
C1_2 C2_2 1_555 1_555
C2_2 C3_2 1_555 1_555
C3_2 H1_2 1_555 1_555
C4_2 C3_2 1_555 1_555
H2_2 C4_2 1_555 1_555
C5_2 C4_2 1_555 1_555
C6_2 C5_2 1_555 1_555
H3_2 C6_2 1_555 1_555
C7_2 C2_2 1_555 1_555
H4_2 C7_2 1_555 1_555
C8_2 O3_2 1_555 1_555
C9A O6A 1_555 1_555
C10A C9A 1_555 1_555
C11A C12 1_555 1_555
H5A C11A 1_555 1_555
C12A C11 1_555 1_555
H6A C12A 1_555 1_555
C13_2 C14_2 1_555 1_555
C14_2 C15_2 1_555 1_555
C15_2 H7_2 1_555 1_555
C16_2 C15_2 1_555 1_555
H8_2 C16_2 1_555 1_555
C17_2 C16_2 1_555 1_555
C18_2 C17_2 1_555 1_555
H9_2 C18_2 1_555 1_555
C19_2 C14_2 1_555 1_555
H10_2 C19_2 1_555 1_555
C20_2 O9_2 1_555 1_555
C21A C22A 1_555 1_555
C22A C23A 1_555 1_555
C23A C24 1_555 1_555
H11A C23A 1_555 1_555
C24A C23 1_555 1_555
H12A C24A 1_555 1_555
C25A C26A 1_555 1_555
C26A C27A 1_555 1_555
C27A C28 1_555 1_555
H13A C27A 1_555 1_555
C28A C27 1_555 1_555
H14A C28A 1_555 1_555
O15A Y3 1_555 1_555
O15_2 Y1_2 1_555 1_555
O15A_2 Y3_2 1_555 1_555
H15A O15A 1_555 1_555
H15_2 O15_2 1_555 1_555
H15A_2 O15A_2 1_555 1_555
O16A Y1 1_555 1_555
O16_2 Y1_2 1_555 1_555
O16A_2 Y1_2 1_555 1_555
H16A O16A 1_555 1_555
H16_2 O16_2 1_555 1_555
H16A_2 O16A_2 1_555 1_555
O17_2 Y2_2 1_555 1_555
H17_2 O17_2 1_555 1_555
H18_2 O17_2 1_555 1_555
O18_2 Y3_2 1_555 1_555
H19_2 O18_2 1_555 1_555
H20_2 O18_2 1_555 1_555
Y2 O5 1_555 1_555
Y2 O15 1_555 1_555
Y3 O16 1_555 1_555
O6 C9 1_555 1_555
O12 C21 1_555 1_555
C6 C7 1_555 1_555
C18 C19 1_555 1_555
Y1A O15A 1_555 1_555
Y1A O16A 1_555 1_555
Y2_2 O5_2 1_555 1_555
Y2_2 O15_2 1_555 1_555
Y3_2 O16_2 1_555 1_555
Y3A O16A 1_555 1_555
O4_2 C8_2 1_555 1_555
O10_2 C20_2 1_555 1_555
C5_2 C8_2 1_555 1_555
C6_2 C7_2 1_555 1_555
C10A C11A 1_555 1_555
C10A C12A 1_555 1_555
C17_2 C20_2 1_555 1_555
C18_2 C19_2 1_555 1_555
C22A C24A 1_555 1_555
C26A C28A 1_555 1_555

#END
