
#######################################################################
#
#                 Cambridge Crystallographic Data Centre
#                                CCDC 
#
#######################################################################
#
# If this CIF has been generated from an entry in the Cambridge 
# Structural Database, then it will include bibliographic, chemical, 
# crystal, experimental, refinement or atomic coordinate data resulting 
# from the CCDC's data processing and validation procedures.
#
#######################################################################

data_REQDEY
_symmetry_cell_setting           monoclinic
_symmetry_space_group_name_H-M   'P 21/c'
_symmetry_Int_Tables_number      14
_space_group_name_Hall           '-P 2ybc'
loop_
_symmetry_equiv_pos_site_id
_symmetry_equiv_pos_as_xyz
1 x,y,z
2 -x,1/2+y,1/2-z
3 -x,-y,-z
4 x,1/2-y,1/2+z
_cell_length_a                   13.0387(8)
_cell_length_b                   8.6569(3)
_cell_length_c                   17.6482(8)
_cell_angle_alpha                90
_cell_angle_beta                 126.492(3)
_cell_angle_gamma                90
_cell_volume                     1601.48
loop_
_atom_site_label
_atom_site_type_symbol
_atom_site_fract_x
_atom_site_fract_y
_atom_site_fract_z
Cu1 Cu 0.42916(4) 0.52767(4) 0.60440(3)
N1 N 0.4484(3) 0.6445(3) 0.7280(2)
N2 N 0.5127(3) 0.7770(3) 0.7618(2)
N3 N 0.5022(3) 0.8258(3) 0.82849(19)
N4 N 0.4320(3) 0.7295(3) 0.83991(19)
N5 N 0.2545(3) 0.3941(3) 0.7501(2)
N6 N 0.6056(3) 0.5756(3) 0.64299(19)
N7 N 0.6278(3) 0.6357(3) 0.5835(2)
N8 N 0.7530(3) 0.6407(3) 0.6270(2)
N9 N 0.8148(3) 0.5820(3) 0.7145(2)
N10 N 0.7755(3) 0.4315(3) 0.8766(2)
N11 N 0.2458(3) 0.4574(3) 0.53348(19)
N12 N 0.3422(3) 0.7135(3) 0.52256(19)
C1 C 0.4008(3) 0.6191(3) 0.7768(2)
C2 C 0.3207(3) 0.4924(4) 0.7620(2)
C3 C 0.7221(3) 0.5447(3) 0.7219(2)
C4 C 0.7486(3) 0.4818(4) 0.8070(2)
C5 C 0.2048(3) 0.3194(4) 0.5405(3)
H1 H 0.2648 0.2510 0.5892
C6 C 0.0796(4) 0.2733(4) 0.4798(3)
H2 H 0.0536 0.1752 0.4870
C7 C -0.0075(4) 0.3718(4) 0.4085(3)
H3 H -0.0945 0.3424 0.3655
C8 C 0.0335(3) 0.5143(4) 0.4005(3)
H4 H -0.0250 0.5841 0.3521
C9 C 0.1603(3) 0.5536(3) 0.4639(2)
C10 C 0.2138(3) 0.7024(4) 0.4605(2)
C11 C 0.1402(3) 0.8241(4) 0.4007(2)
H5 H 0.0505 0.8131 0.3556
C12 C 0.1998(4) 0.9611(4) 0.4081(2)
H6 H 0.1513 1.0457 0.3682
C13 C 0.3300(3) 0.9744(4) 0.4739(2)
H7 H 0.3719 1.0689 0.4809
C14 C 0.3989(3) 0.8483(4) 0.5295(2)
H8 H 0.4889 0.8570 0.5739
Cu1A Cu 0.57084(4) 1.02767(4) 0.89560(3)
N3A N 0.4978(3) 0.3258(3) 0.67151(19)
loop_
_geom_bond_atom_site_label_1
_geom_bond_atom_site_label_2
_geom_bond_site_symmetry_1
_geom_bond_site_symmetry_2
Cu1 N1 1_555 1_555
N1 N2 1_555 1_555
N2 N3 1_555 1_555
N3 N4 1_555 1_555
N4 C1 1_555 1_555
N5 C2 1_555 1_555
N6 Cu1 1_555 1_555
N7 N6 1_555 1_555
N8 N7 1_555 1_555
N9 N8 1_555 1_555
N10 C4 1_555 1_555
N11 Cu1 1_555 1_555
N12 Cu1 1_555 1_555
C1 N1 1_555 1_555
C2 C1 1_555 1_555
C3 N6 1_555 1_555
C4 C3 1_555 1_555
C5 N11 1_555 1_555
H1 C5 1_555 1_555
C6 C5 1_555 1_555
H2 C6 1_555 1_555
C7 C6 1_555 1_555
H3 C7 1_555 1_555
C8 C7 1_555 1_555
H4 C8 1_555 1_555
C9 N11 1_555 1_555
C10 N12 1_555 1_555
C11 C10 1_555 1_555
H5 C11 1_555 1_555
C12 C11 1_555 1_555
H6 C12 1_555 1_555
C13 C12 1_555 1_555
H7 C13 1_555 1_555
C14 N12 1_555 1_555
H8 C14 1_555 1_555
Cu1A N3 1_555 1_555
N3A Cu1 1_555 1_555
N9 C3 1_555 1_555
C8 C9 1_555 1_555
C9 C10 1_555 1_555
C13 C14 1_555 1_555

#END
