
#######################################################################
#
#                 Cambridge Crystallographic Data Centre
#                                CCDC 
#
#######################################################################
#
# If this CIF has been generated from an entry in the Cambridge 
# Structural Database, then it will include bibliographic, chemical, 
# crystal, experimental, refinement or atomic coordinate data resulting 
# from the CCDC's data processing and validation procedures.
#
#######################################################################

data_REQJUT
_symmetry_cell_setting           triclinic
_symmetry_space_group_name_H-M   'P -1'
_symmetry_Int_Tables_number      2
_space_group_name_Hall           '-P 1'
loop_
_symmetry_equiv_pos_site_id
_symmetry_equiv_pos_as_xyz
1 x,y,z
2 -x,-y,-z
_cell_length_a                   7.7388(15)
_cell_length_b                   9.5312(19)
_cell_length_c                   16.777(3)
_cell_angle_alpha                90.02(3)
_cell_angle_beta                 100.42(3)
_cell_angle_gamma                111.17(3)
_cell_volume                     1132.02
loop_
_atom_site_label
_atom_site_type_symbol
_atom_site_fract_x
_atom_site_fract_y
_atom_site_fract_z
Cu1 Cu -0.33518(8) -0.25488(6) 0.34134(4)
I3 I -0.22237(5) -0.46701(4) 0.40570(2)
N1 N -0.3240(6) -0.1482(4) 0.4476(2)
N2 N -0.1964(5) -0.0461(4) 0.3222(2)
N3 N -0.3018(6) -0.2797(4) 0.2258(2)
N4 N 0.3675(5) 0.6351(4) 0.3052(2)
C1 C -0.3670(7) -0.4103(6) 0.1795(3)
H1 H -0.4290 -0.4997 0.2018
C2 C -0.3447(8) -0.4156(6) 0.1001(3)
H2 H -0.3929 -0.5072 0.0691
C3 C -0.2508(8) -0.2848(6) 0.0670(3)
H3 H -0.2337 -0.2867 0.0136
C4 C -0.1819(7) -0.1502(6) 0.1143(3)
H4 H -0.1163 -0.0605 0.0933
C5 C -0.2113(7) -0.1503(5) 0.1930(3)
C6 C -0.1486(6) -0.0145(5) 0.2494(3)
C7 C -0.0539(6) 0.1327(5) 0.2338(3)
H5 H -0.0240 0.1554 0.1829
C8 C -0.0035(6) 0.2469(5) 0.2948(3)
C9 C -0.0510(7) 0.2114(5) 0.3701(3)
H6 H -0.0160 0.2861 0.4119
C10 C -0.1516(6) 0.0625(5) 0.3817(3)
C11 C -0.2267(6) 0.0018(5) 0.4545(3)
C12 C -0.2023(7) 0.0883(6) 0.5251(3)
H7 H -0.1335 0.1916 0.5294
C13 C -0.2815(7) 0.0190(6) 0.5886(3)
H8 H -0.2656 0.0749 0.6366
C14 C -0.3843(8) -0.1336(6) 0.5805(3)
H9 H -0.4414 -0.1818 0.6223
C15 C -0.4010(8) -0.2133(6) 0.5096(3)
H10 H -0.4686 -0.3168 0.5046
C16 C 0.0949(6) 0.4052(5) 0.2773(3)
C17 C 0.2707(7) 0.4942(5) 0.3219(3)
H11 H 0.3241 0.4538 0.3657
C18 C 0.0180(8) 0.4678(6) 0.2131(3)
H12 H -0.0977 0.4110 0.1806
C19 C 0.1126(7) 0.6150(6) 0.1969(3)
H13 H 0.0599 0.6595 0.1548
C20 C 0.2860(7) 0.6942(5) 0.2442(3)
H14 H 0.3496 0.7933 0.2333
Cu1_2 Cu 0.66482(8) 0.74512(6) 0.34134(4)
N4_2 N -0.6325(5) -0.3649(4) 0.3052(2)
Cu2 Cu 0.47151(11) 0.04819(9) 0.06629(4)
I1 I 0.41284(6) 0.14242(4) 0.19305(2)
I2 I 0.25200(6) -0.21435(5) -0.00164(2)
Cu2A Cu 0.52849(11) -0.04819(9) -0.06629(4)
I1A I 0.58716(6) -0.14242(4) -0.19305(2)
I2A I 0.74800(6) 0.21435(5) 0.00164(2)
loop_
_geom_bond_atom_site_label_1
_geom_bond_atom_site_label_2
_geom_bond_site_symmetry_1
_geom_bond_site_symmetry_2
Cu1 I3 1_555 1_555
Cu2 I1 1_555 1_555
I2 Cu2 1_555 1_555
N1 Cu1 1_555 1_555
N2 Cu1 1_555 1_555
N3 Cu1 1_555 1_555
N4 C17 1_555 1_555
C1 N3 1_555 1_555
H1 C1 1_555 1_555
C2 C1 1_555 1_555
H2 C2 1_555 1_555
C3 C2 1_555 1_555
H3 C3 1_555 1_555
C4 C3 1_555 1_555
H4 C4 1_555 1_555
C5 N3 1_555 1_555
C6 N2 1_555 1_555
C7 C6 1_555 1_555
H5 C7 1_555 1_555
C8 C7 1_555 1_555
C9 C8 1_555 1_555
H6 C9 1_555 1_555
C10 N2 1_555 1_555
C11 N1 1_555 1_555
C12 C11 1_555 1_555
H7 C12 1_555 1_555
C13 C12 1_555 1_555
H8 C13 1_555 1_555
C14 C13 1_555 1_555
H9 C14 1_555 1_555
C15 N1 1_555 1_555
H10 C15 1_555 1_555
C16 C8 1_555 1_555
C17 C16 1_555 1_555
H11 C17 1_555 1_555
C18 C16 1_555 1_555
H12 C18 1_555 1_555
C19 C18 1_555 1_555
H13 C19 1_555 1_555
C20 N4 1_555 1_555
H14 C20 1_555 1_555
Cu1_2 N4 1_555 1_555
Cu2A Cu2 1_555 1_555
I1A Cu2A 1_555 1_555
I2A Cu2 1_555 1_555
N4_2 Cu1 1_555 1_555
I2 Cu2A 1_555 1_555
C4 C5 1_555 1_555
C5 C6 1_555 1_555
C9 C10 1_555 1_555
C10 C11 1_555 1_555
C14 C15 1_555 1_555
C19 C20 1_555 1_555
Cu2A I2A 1_555 1_555

#END
