
#######################################################################
#
#                 Cambridge Crystallographic Data Centre
#                                CCDC 
#
#######################################################################
#
# If this CIF has been generated from an entry in the Cambridge 
# Structural Database, then it will include bibliographic, chemical, 
# crystal, experimental, refinement or atomic coordinate data resulting 
# from the CCDC's data processing and validation procedures.
#
#######################################################################

data_REQKON01
_symmetry_cell_setting           monoclinic
_symmetry_space_group_name_H-M   'P 21'
_symmetry_Int_Tables_number      4
_space_group_name_Hall           'P 2yb'
loop_
_symmetry_equiv_pos_site_id
_symmetry_equiv_pos_as_xyz
1 x,y,z
2 -x,1/2+y,-z
_cell_length_a                   11.762(1)
_cell_length_b                   15.924(2)
_cell_length_c                   12.948(2)
_cell_angle_alpha                90
_cell_angle_beta                 109.46(1)
_cell_angle_gamma                90
_cell_volume                     2286.6
loop_
_atom_site_label
_atom_site_type_symbol
_atom_site_fract_x
_atom_site_fract_y
_atom_site_fract_z
Fe1 Fe -0.28480(5) 0.00000 -0.11143(6)
Fe2 Fe -0.55735(6) 0.10699(8) -0.18107(7)
Fe3 Fe -0.70274(6) -0.05506(5) -0.3892(6)
Fe4 Fe -0.43019(6) -0.15919(8) -0.31894(7)
Na1 Na -0.5037(3) -0.5249(2) -0.2499(3)
O1 O -0.4493(3) 0.0208(3) -0.1745(4)
O2 O -0.5384(3) -0.0729(3) -0.3280(4)
O3 O -0.2967(3) -0.1091(3) -0.1927(3)
O4 O -0.2159(3) 0.0584(3) -0.2150(3)
O5 O -0.0525(5) 0.0999(5) -0.2496(5)
O6 O -0.2740(3) -0.0525(4) 0.0338(3)
O7 O -0.1539(5) -0.0775(6) 0.2034(4)
O8 O -0.3490(3) -0.1208(3) -0.4251(3)
O9 O -0.2277(4) -0.1551(4) -0.5195(4)
O10 O -0.4769(4) -0.2416(3) -0.2226(4)
O11 O -0.4976(4) -0.3783(3) -0.2009(5)
O12 O -0.6895(3) 0.0557(3) -0.3076(3)
O13 O -0.6383(4) 0.0674(3) -0.0746(4)
O14 O -0.7616(4) 0.1016(4) 0.0184(4)
O15 O -0.5118(4) 0.1921(3) -0.2780(4)
O16 O -0.4950(4) 0.3298(4) -0.3010(4)
O17 O -0.7175(3) -0.0027(4) -0.5356(3)
O18 O -0.8420(4) 0.0186(5) -0.7063(4)
O19 O -0.7709(3) -0.1104(3) -0.2824(4)
O20 O -0.9320(4) -0.1452(5) -0.2396(4)
O21 O -0.2563(3) 0.1101(4) -0.0227(4)
O22 O -0.4370(3) 0.1714(3) -0.0476(4)
O23 O -0.5468(3) -0.2265(3) -0.4492(4)
O24 O -0.7299(4) -0.1695(4) -0.4708(4)
O25 O -0.5140(4) -0.4872(4) -0.4461(4)
O26 O -0.4878(4) -0.5689(4) -0.0504(4)
O27 O -0.2884(4) -0.5314(4) -0.1617(5)
O28 O -0.7170(4) -0.5197(4) -0.3349(4)
N1 N -0.0949(3) -0.0367(4) -0.0431(4)
N2 N -0.2980(4) -0.2600(3) -0.3020(4)
N3 N -0.6897(4) 0.2054(3) -0.1956(4)
N4 N -0.8938(3) -0.0180(4) -0.4553(4)
N5 N -0.3501(4) 0.2839(4) 0.1073(4)
N6 N -0.6418(4) -0.3504(4) -0.5990(5)
C1 C -0.1012(5) 0.0618(6) -0.1942(6)
C2 C -0.0241(4) 0.0164(5) -0.0914(5)
C3 C -0.1695(5) -0.0573(6) 0.1089(5)
C4 C -0.0635(4) -0.0306(5) 0.0757(5)
C5 C -0.0929(4) -0.1275(5) -0.0735(5)
C6 C -0.1823(4) -0.1446(4) -0.1843(5)
C7 C -0.1967(5) -0.2400(5) -0.2016(6)
C8 C -0.2792(4) -0.1727(5) -0.4532(5)
C9 C -0.2621(5) -0.2581(5) -0.4006(6)
C10 C -0.4513(5) -0.3201(4) -0.2324(5)
C11 C -0.3582(5) -0.3384(5) -0.2876(5)
C12 C -0.7100(4) 0.1173(5) -0.0458(5)
C13 C -0.7246(5) 0.2046(5) -0.0960(5)
C14 C -0.5395(5) 0.2700(5) -0.2683(5)
C15 C -0.6321(5) 0.2835(4) -0.2115(5)
C16 C -0.7921(5) 0.1836(4) -0.2965(6)
C17 C -0.8036(4) 0.0912(4) -0.3142(5)
C18 C -0.8941(5) 0.0716(5) -0.4261(5)
C19 C -0.8215(4) -0.0020(5) -0.6107(5)
C20 C -0.9285(4) -0.0268(5) -0.5753(5)
C21 C -0.8862(5) -0.1117(5) -0.3007(5)
C22 C -0.9650(5) -0.0705(6) -0.4050(5)
C23 C -0.3267(5) 0.1624(4) -0.0022(5)
C24 C -0.2638(5) 0.2195(4) 0.0965(5)
C25 C -0.2144(6) 0.1696(5) 0.1987(5)
C26 C -0.6601(5) -0.2239(5) -0.4895(5)
C27 C -0.7259(5) -0.2960(4) -0.56137(5)
C28 C -0.7819(6) -0.3517(5) -0.4949(6)
H1 H -0.4957 -0.0278 -0.2498
H2 H 0.0162 0.0579 -0.0377
H3 H 0.0338 -0.0172 -0.1072
H4 H 0.0031 -0.0666 0.1092
H5 H -0.0424 0.0255 0.0980
H6 H -0.0141 -0.1415 -0.0729
H7 H -0.1121 -0.1609 -0.0204
H8 H -0.4047 0.2668 0.1188
H9 H -0.3885 0.3216 0.0471
H10 H -0.3079 0.3251 0.1654
H11 H -0.1540 -0.1209 -0.2387
H12 H -0.6910 -0.3836 -0.6648
H13 H -0.6135 -0.3727 -0.5467
H14 H -0.5943 -0.3235 -0.6226
H15 H -0.1247 -0.2617 -0.2082
H16 H -0.2118 -0.2637 -0.1408
H17 H -0.3082 -0.2984 -0.4507
H18 H -0.1784 -0.2732 -0.3792
H19 H -0.2995 -0.3759 -0.2427
H20 H -0.3970 -0.3630 -0.3567
H21 H -0.8053 0.2215 -0.1132
H22 H -0.6733 0.2419 -0.0427
H23 H -0.5921 0.3081 -0.1412
H24 H -0.6918 0.3210 -0.2539
H25 H -0.7795 0.2098 -0.3580
H26 H -0.8651 0.2050 -0.2894
H27 H -0.8300 0.0664 -0.2597
H28 H -0.8751 0.1045 -0.4788
H29 H -0.9720 0.0861 -0.4247
H30 H -0.9501 -0.0837 -0.5957
H31 H -0.9952 0.0085 -0.6106
H32 H -1.0220 -0.0356 -0.3874
H33 H -1.0058 -0.1124 -0.4550
H34 H -0.1979 0.2470 0.0831
H35 H -0.1584 0.1290 0.1895
H36 H -0.1732 0.2057 0.2579
H37 H -0.2777 0.1417 0.2141
H38 H -0.7887 -0.2740 -0.6243
H39 H -0.7197 -0.3718 -0.4322
H40 H -0.8379 -0.3197 -0.4723
H41 H -0.8223 -0.3977 -0.5382
O16_2 O -0.4950(4) -0.6702(4) -0.3010(4)
Na1_2 Na -0.5037(3) 0.4751(2) -0.2499(3)
O29 O -0.041(1) 0.278(1) -0.203(2)
O30 O -0.2337(9) 0.3009(6) -0.1195(9)
loop_
_geom_bond_atom_site_label_1
_geom_bond_atom_site_label_2
_geom_bond_site_symmetry_1
_geom_bond_site_symmetry_2
Fe1 O1 1_555 1_555
Fe2 O1 1_555 1_555
Fe3 O2 1_555 1_555
Fe4 O2 1_555 1_555
Na1 O11 1_555 1_555
O1 H1 1_555 1_555
O2 H1 1_555 1_555
O3 Fe1 1_555 1_555
O4 Fe1 1_555 1_555
O5 C1 1_555 1_555
O6 Fe1 1_555 1_555
O7 C3 1_555 1_555
O8 Fe4 1_555 1_555
O9 C8 1_555 1_555
O10 Fe4 1_555 1_555
O11 C10 1_555 1_555
O12 Fe2 1_555 1_555
O13 Fe2 1_555 1_555
O14 C12 1_555 1_555
O15 Fe2 1_555 1_555
O16 C14 1_555 1_555
O17 Fe3 1_555 1_555
O18 C19 1_555 1_555
O19 Fe3 1_555 1_555
O20 C21 1_555 1_555
O21 Fe1 1_555 1_555
O22 Fe2 1_555 1_555
O23 Fe4 1_555 1_555
O24 Fe3 1_555 1_555
O25 Na1 1_555 1_555
O26 Na1 1_555 1_555
O27 Na1 1_555 1_555
O28 Na1 1_555 1_555
N1 Fe1 1_555 1_555
N2 Fe4 1_555 1_555
N3 Fe2 1_555 1_555
N4 Fe3 1_555 1_555
N5 C24 1_555 1_555
N6 C27 1_555 1_555
C1 O4 1_555 1_555
C2 N1 1_555 1_555
C3 O6 1_555 1_555
C4 N1 1_555 1_555
C5 N1 1_555 1_555
C6 O3 1_555 1_555
C7 N2 1_555 1_555
C8 O8 1_555 1_555
C9 N2 1_555 1_555
C10 O10 1_555 1_555
C11 N2 1_555 1_555
C12 O13 1_555 1_555
C13 N3 1_555 1_555
C14 O15 1_555 1_555
C15 N3 1_555 1_555
C16 N3 1_555 1_555
C17 O12 1_555 1_555
C18 N4 1_555 1_555
C19 O17 1_555 1_555
C20 N4 1_555 1_555
C21 O19 1_555 1_555
C22 N4 1_555 1_555
C23 O21 1_555 1_555
C24 C23 1_555 1_555
C25 C24 1_555 1_555
C26 O23 1_555 1_555
C27 C26 1_555 1_555
C28 C27 1_555 1_555
H2 C2 1_555 1_555
H3 C2 1_555 1_555
H4 C4 1_555 1_555
H5 C4 1_555 1_555
H6 C5 1_555 1_555
H7 C5 1_555 1_555
H8 N5 1_555 1_555
H9 N5 1_555 1_555
H10 N5 1_555 1_555
H11 C6 1_555 1_555
H12 N6 1_555 1_555
H13 N6 1_555 1_555
H14 N6 1_555 1_555
H15 C7 1_555 1_555
H16 C7 1_555 1_555
H17 C9 1_555 1_555
H18 C9 1_555 1_555
H19 C11 1_555 1_555
H20 C11 1_555 1_555
H21 C13 1_555 1_555
H22 C13 1_555 1_555
H23 C15 1_555 1_555
H24 C15 1_555 1_555
H25 C16 1_555 1_555
H26 C16 1_555 1_555
H27 C17 1_555 1_555
H28 C18 1_555 1_555
H29 C18 1_555 1_555
H30 C20 1_555 1_555
H31 C20 1_555 1_555
H32 C22 1_555 1_555
H33 C22 1_555 1_555
H34 C24 1_555 1_555
H35 C25 1_555 1_555
H36 C25 1_555 1_555
H37 C25 1_555 1_555
H38 C27 1_555 1_555
H39 C28 1_555 1_555
H40 C28 1_555 1_555
H41 C28 1_555 1_555
O16_2 Na1 1_555 1_555
Na1_2 O16 1_555 1_555
Fe3 O12 1_555 1_555
Fe4 O3 1_555 1_555
O22 C23 1_555 1_555
O24 C26 1_555 1_555
C1 C2 1_555 1_555
C3 C4 1_555 1_555
C5 C6 1_555 1_555
C6 C7 1_555 1_555
C8 C9 1_555 1_555
C10 C11 1_555 1_555
C12 C13 1_555 1_555
C14 C15 1_555 1_555
C16 C17 1_555 1_555
C17 C18 1_555 1_555
C19 C20 1_555 1_555
C21 C22 1_555 1_555

#END
