
#######################################################################
#
#                 Cambridge Crystallographic Data Centre
#                                CCDC 
#
#######################################################################
#
# If this CIF has been generated from an entry in the Cambridge 
# Structural Database, then it will include bibliographic, chemical, 
# crystal, experimental, refinement or atomic coordinate data resulting 
# from the CCDC's data processing and validation procedures.
#
#######################################################################

data_REQLOQ
_symmetry_cell_setting           orthorhombic
_symmetry_space_group_name_H-M   'P b c a'
_symmetry_Int_Tables_number      61
_space_group_name_Hall           '-P 2ac 2ab'
loop_
_symmetry_equiv_pos_site_id
_symmetry_equiv_pos_as_xyz
1 x,y,z
2 1/2-x,-y,1/2+z
3 1/2+x,1/2-y,-z
4 -x,1/2+y,1/2-z
5 -x,-y,-z
6 1/2+x,y,1/2-z
7 1/2-x,1/2+y,z
8 x,1/2-y,1/2+z
_cell_length_a                   8.425(5)
_cell_length_b                   15.824(5)
_cell_length_c                   16.216(5)
_cell_angle_alpha                90
_cell_angle_beta                 90
_cell_angle_gamma                90
_cell_volume                     2161.87
loop_
_atom_site_label
_atom_site_type_symbol
_atom_site_fract_x
_atom_site_fract_y
_atom_site_fract_z
Cu1 Cu 0.59733(5) 0.10773(3) 0.03527(3)
O1 O 0.8345(8) 0.0013(4) 0.0757(4)
H1 H 0.7788 -0.0361 0.0953
N1 N 0.5937(4) 0.14720(19) 0.15149(19)
N2 N 0.4670(3) 0.01521(18) 0.09136(19)
N3 N 0.3065(4) -0.0802(2) 0.1392(2)
N4 N 0.7505(4) 0.20633(19) 0.02905(19)
N5 N 0.8414(4) 0.3215(2) 0.0898(2)
N6 N 0.8387(4) 0.2483(2) -0.0260(2)
N7 N 0.8916(4) 0.3170(2) 0.0113(2)
N8 N 0.3813(4) -0.05325(18) 0.07293(19)
N9 N 0.3430(4) -0.0295(2) 0.2031(2)
C1 C 0.6733(5) 0.2179(2) 0.1714(2)
C2 C 0.7545(4) 0.2523(2) 0.0984(2)
C3 C 0.5224(5) 0.1248(3) 0.2913(2)
H2 H 0.4719 0.0925 0.3313
C4 C 0.6808(5) 0.2461(3) 0.2525(3)
H3 H 0.7350 0.2953 0.2662
C5 C 0.6043(5) 0.1982(3) 0.3124(2)
H4 H 0.6077 0.2154 0.3672
C6 C 0.4413(4) 0.0280(2) 0.1716(2)
C7 C 0.5187(5) 0.1016(2) 0.2090(2)
C8 C 0.9493(6) -0.0356(3) 0.0165(3)
H5 H 0.8933 -0.0632 -0.0283
H6 H 1.0152 -0.0772 0.0440
Cu1B Cu 1.09733(5) 0.39227(3) -0.03527(3)
Cu1D Cu 0.40267(5) -0.10773(3) -0.03527(3)
N7B N 0.3916(4) 0.1830(2) -0.0113(2)
N8D N 0.6187(4) 0.05325(18) -0.07293(19)
loop_
_geom_bond_atom_site_label_1
_geom_bond_atom_site_label_2
_geom_bond_site_symmetry_1
_geom_bond_site_symmetry_2
Cu1 O1 1_555 1_555
O1 H1 1_555 1_555
N1 Cu1 1_555 1_555
N2 Cu1 1_555 1_555
N3 N8 1_555 1_555
N4 Cu1 1_555 1_555
N5 N7 1_555 1_555
N6 N4 1_555 1_555
N7 N6 1_555 1_555
N8 N2 1_555 1_555
N9 N3 1_555 1_555
C1 N1 1_555 1_555
C2 N4 1_555 1_555
C3 H2 1_555 1_555
C4 C1 1_555 1_555
H3 C4 1_555 1_555
C5 C3 1_555 1_555
H4 C5 1_555 1_555
C6 N2 1_555 1_555
C7 N1 1_555 1_555
C8 O1 1_555 1_555
H5 C8 1_555 1_555
H6 C8 1_555 1_555
Cu1B N7 1_555 1_555
Cu1D N8 1_555 1_555
N7B Cu1 1_555 1_555
N8D Cu1 1_555 1_555
N5 C2 1_555 1_555
N9 C6 1_555 1_555
C1 C2 1_555 1_555
C3 C7 1_555 1_555
C4 C5 1_555 1_555
C6 C7 1_555 1_555

#END
