
#######################################################################
#
#                 Cambridge Crystallographic Data Centre
#                                CCDC 
#
#######################################################################
#
# If this CIF has been generated from an entry in the Cambridge 
# Structural Database, then it will include bibliographic, chemical, 
# crystal, experimental, refinement or atomic coordinate data resulting 
# from the CCDC's data processing and validation procedures.
#
#######################################################################

data_REQLUW
_symmetry_cell_setting           monoclinic
_symmetry_space_group_name_H-M   'P 2/c'
_symmetry_Int_Tables_number      13
_space_group_name_Hall           '-P 2yc'
loop_
_symmetry_equiv_pos_site_id
_symmetry_equiv_pos_as_xyz
1 x,y,z
2 -x,y,1/2-z
3 -x,-y,-z
4 x,-y,1/2+z
_cell_length_a                   24.308(5)
_cell_length_b                   7.9183(11)
_cell_length_c                   13.735(3)
_cell_angle_alpha                90
_cell_angle_beta                 106.284(17)
_cell_angle_gamma                90
_cell_volume                     2537.63
loop_
_atom_site_label
_atom_site_type_symbol
_atom_site_fract_x
_atom_site_fract_y
_atom_site_fract_z
Zn1 Zn 0.0000 -0.2383(2) 0.2500
Zn2 Zn 0.5000 -0.7635(2) 0.2500
Na1 Na 0.26314(14) -0.5129(4) 0.3617(2)
Na2 Na 0.23711(14) -0.4993(4) 0.5986(2)
O1 O 0.2645(2) -0.7136(7) 0.4957(4)
O2 O 0.2354(2) -0.7165(7) 0.2250(4)
O3 O 0.2692(3) -0.2894(7) 0.4913(4)
O4 O 0.2296(3) -0.2943(8) 0.2285(5)
N1 N 0.0083(3) -0.2545(9) 0.4071(5)
N2 N -0.1215(3) -0.0079(9) 0.3733(6)
N3 N 0.0742(3) -0.4018(9) 0.3117(5)
N4 N 0.6215(3) -0.9903(9) 0.4936(5)
N5 N 0.1192(3) -0.4610(10) 0.2845(5)
N6 N 0.1609(3) -0.5047(10) 0.3661(5)
N7 N 0.1425(3) -0.4720(9) 0.4507(5)
N8 N -0.0651(3) -0.0671(9) 0.2743(5)
N9 N -0.1089(3) 0.0294(10) 0.2224(6)
N10 N -0.1422(3) 0.0632(10) 0.2806(7)
N11 N 0.4922(3) -0.7472(9) 0.4001(5)
N12 N 0.4258(3) -0.5992(9) 0.2371(5)
N13 N 0.3807(3) -0.5383(10) 0.1653(6)
N14 N 0.3397(3) -0.4972(10) 0.2064(5)
N15 N 0.3573(3) -0.5299(9) 0.3072(5)
N16 N 0.5647(3) -0.9359(8) 0.3392(5)
N17 N 0.6091(3) -1.0322(9) 0.3306(6)
N18 N 0.6427(3) -1.0612(10) 0.4223(7)
C1 C 0.0514(4) -0.3414(10) 0.4686(6)
C2 C 0.0568(4) -0.3633(10) 0.5710(6)
H1 H 0.0873 -0.4224 0.6133
C3 C 0.0143(4) -0.2925(11) 0.6068(6)
H2 H 0.0161 -0.3046 0.6749
C4 C -0.0301(4) -0.2056(11) 0.5447(7)
H3 H -0.0588 -0.1610 0.5698
C5 C -0.0319(3) -0.1845(10) 0.4458(6)
C6 C 0.0909(3) -0.4080(10) 0.4147(6)
C7 C -0.0735(4) -0.0877(10) 0.3663(7)
C8 C 0.4488(4) -0.6612(9) 0.4171(6)
C9 C 0.4436(4) -0.6388(10) 0.5149(6)
H4 H 0.4127 -0.5812 0.5265
C10 C 0.4859(4) -0.7052(12) 0.5925(7)
H5 H 0.4845 -0.6889 0.6588
C11 C 0.5313(4) -0.7970(10) 0.5751(6)
H6 H 0.5597 -0.8432 0.6285
C12 C 0.5325(3) -0.8166(9) 0.4765(6)
C13 C 0.4099(3) -0.5934(10) 0.3248(6)
C14 C 0.5742(4) -0.9117(10) 0.4392(6)
Na1A Na -0.26314(14) -0.5129(4) 0.1383(2)
Na2A Na -0.23711(14) -0.4993(4) -0.0986(2)
O1A O -0.2645(2) -0.7136(7) 0.0043(4)
O2A O -0.2354(2) -0.7165(7) 0.2750(4)
O3A O -0.2692(3) -0.2894(7) 0.0087(4)
O4A O -0.2296(3) -0.2943(8) 0.2715(5)
N1A N -0.0083(3) -0.2545(9) 0.0929(5)
N2A N 0.1215(3) -0.0079(9) 0.1267(6)
N3A N -0.0742(3) -0.4018(9) 0.1883(5)
N4A N -0.6215(3) -0.9903(9) 0.0064(5)
N5A N -0.1192(3) -0.4610(10) 0.2155(5)
N6A N -0.1609(3) -0.5047(10) 0.1339(5)
N7A N -0.1425(3) -0.4720(9) 0.0493(5)
N8A N 0.0651(3) -0.0671(9) 0.2257(5)
N9A N 0.1089(3) 0.0294(10) 0.2776(6)
N10A N 0.1422(3) 0.0632(10) 0.2194(7)
N11A N -0.4922(3) -0.7472(9) 0.0999(5)
N12A N -0.4258(3) -0.5992(9) 0.2629(5)
N13A N -0.3807(3) -0.5383(10) 0.3347(6)
N14A N -0.3397(3) -0.4972(10) 0.2936(5)
N15A N -0.3573(3) -0.5299(9) 0.1928(5)
N16A N -0.5647(3) -0.9359(8) 0.1608(5)
N17A N -0.6091(3) -1.0322(9) 0.1694(6)
N18A N -0.6427(3) -1.0612(10) 0.0777(7)
C1A C -0.0514(4) -0.3414(10) 0.0314(6)
C2A C -0.0568(4) -0.3633(10) -0.0710(6)
H1A H -0.0873 -0.4224 -0.1133
C3A C -0.0143(4) -0.2925(11) -0.1068(6)
H2A H -0.0161 -0.3046 -0.1749
C4A C 0.0301(4) -0.2056(11) -0.0447(7)
H3A H 0.0588 -0.1610 -0.0698
C5A C 0.0319(3) -0.1845(10) 0.0542(6)
C6A C -0.0909(3) -0.4080(10) 0.0853(6)
C7A C 0.0735(4) -0.0877(10) 0.1337(7)
C8A C -0.4488(4) -0.6612(9) 0.0829(6)
C9A C -0.4436(4) -0.6388(10) -0.0149(6)
H4A H -0.4127 -0.5812 -0.0265
C10A C -0.4859(4) -0.7052(12) -0.0925(7)
H5A H -0.4845 -0.6889 -0.1588
C11A C -0.5313(4) -0.7970(10) -0.0751(6)
H6A H -0.5597 -0.8432 -0.1285
C12A C -0.5325(3) -0.8166(9) 0.0235(6)
C13A C -0.4099(3) -0.5934(10) 0.1752(6)
C14A C -0.5742(4) -0.9117(10) 0.0608(6)
Zn2_2 Zn -0.5000 -0.7635(2) 0.2500
Na2B Na -0.23711(14) -0.5007(4) 0.4014(2)
Na2C Na 0.23711(14) -0.5007(4) 0.0986(2)
O2B O -0.2354(2) -0.2835(7) -0.2250(4)
O2C O 0.2354(2) -0.2835(7) 0.7250(4)
O4B O -0.2296(3) -0.7057(8) -0.2285(5)
O4C O 0.2296(3) -0.7057(8) 0.7285(5)
N11A_2 N 0.5078(3) -0.7472(9) 0.0999(5)
N12A_2 N 0.5742(3) -0.5992(9) 0.2629(5)
N14B N -0.3397(3) -0.5028(10) -0.2064(5)
N14C N 0.3397(3) -0.5028(10) 0.7064(5)
N16A_2 N 0.4353(3) -0.9359(8) 0.1608(5)
O5 O 0.1899(3) -0.0094(8) 0.4778(5)
O6 O 0.3092(3) -0.0129(8) 0.2890(5)
loop_
_geom_bond_atom_site_label_1
_geom_bond_atom_site_label_2
_geom_bond_site_symmetry_1
_geom_bond_site_symmetry_2
Zn1 N1 1_555 1_555
Zn2 N11 1_555 1_555
Na1 O1 1_555 1_555
Na2 O1 1_555 1_555
O2 Na1 1_555 1_555
O3 Na1 1_555 1_555
O4 Na1 1_555 1_555
N1 C1 1_555 1_555
N2 N10 1_555 1_555
N3 Zn1 1_555 1_555
N4 N18 1_555 1_555
N5 N3 1_555 1_555
N6 Na1 1_555 1_555
N7 Na2 1_555 1_555
N8 Zn1 1_555 1_555
N9 N8 1_555 1_555
N10 N9 1_555 1_555
N11 C8 1_555 1_555
N12 Zn2 1_555 1_555
N13 N12 1_555 1_555
N14 N13 1_555 1_555
N15 Na1 1_555 1_555
N16 Zn2 1_555 1_555
N17 N16 1_555 1_555
N18 N17 1_555 1_555
C1 C2 1_555 1_555
C2 H1 1_555 1_555
C3 C2 1_555 1_555
H2 C3 1_555 1_555
C4 C3 1_555 1_555
H3 C4 1_555 1_555
C5 N1 1_555 1_555
C6 N3 1_555 1_555
C7 N2 1_555 1_555
C8 C9 1_555 1_555
C9 H4 1_555 1_555
C10 C9 1_555 1_555
H5 C10 1_555 1_555
C11 C10 1_555 1_555
H6 C11 1_555 1_555
C12 N11 1_555 1_555
C13 N12 1_555 1_555
C14 N4 1_555 1_555
Na1A O1A 1_555 1_555
Na2A O1A 1_555 1_555
O2A Na1A 1_555 1_555
O3A Na1A 1_555 1_555
O4A Na1A 1_555 1_555
N1A Zn1 1_555 1_555
N2A N10A 1_555 1_555
N3A Zn1 1_555 1_555
N4A N18A 1_555 1_555
N5A N3A 1_555 1_555
N6A Na1A 1_555 1_555
N7A Na2A 1_555 1_555
N8A Zn1 1_555 1_555
N9A N8A 1_555 1_555
N10A N9A 1_555 1_555
N11A C8A 1_555 1_555
N12A N13A 1_555 1_555
N13A N14A 1_555 1_555
N14A N15A 1_555 1_555
N15A Na1A 1_555 1_555
N16A N17A 1_555 1_555
N17A N18A 1_555 1_555
C1A N1A 1_555 1_555
C2A C1A 1_555 1_555
H1A C2A 1_555 1_555
C3A C2A 1_555 1_555
H2A C3A 1_555 1_555
C4A C3A 1_555 1_555
H3A C4A 1_555 1_555
C5A N1A 1_555 1_555
C6A N3A 1_555 1_555
C7A N2A 1_555 1_555
C8A C9A 1_555 1_555
C9A H4A 1_555 1_555
C10A C9A 1_555 1_555
H5A C10A 1_555 1_555
C11A C10A 1_555 1_555
H6A C11A 1_555 1_555
C12A N11A 1_555 1_555
C13A N12A 1_555 1_555
C14A N4A 1_555 1_555
Zn2_2 N11A 1_555 1_555
Na2B O2A 1_555 1_555
Na2C O2 1_555 1_555
O2B Na2A 1_555 1_555
O2C Na2 1_555 1_555
O4B Na2A 1_555 1_555
O4C Na2 1_555 1_555
N11A_2 Zn2 1_555 1_555
N12A_2 Zn2 1_555 1_555
N14B Na2A 1_555 1_555
N14C Na2 1_555 1_555
N16A_2 Zn2 1_555 1_555
Na2 O3 1_555 1_555
O4 Na2C 1_555 1_555
N5 N6 1_555 1_555
N6 N7 1_555 1_555
N7 C6 1_555 1_555
N8 C7 1_555 1_555
N14 N15 1_555 1_555
N14 Na2C 1_555 1_555
N15 C13 1_555 1_555
N16 C14 1_555 1_555
C1 C6 1_555 1_555
C4 C5 1_555 1_555
C5 C7 1_555 1_555
C8 C13 1_555 1_555
C11 C12 1_555 1_555
C12 C14 1_555 1_555
Na2A O3A 1_555 1_555
O4A Na2B 1_555 1_555
N5A N6A 1_555 1_555
N6A N7A 1_555 1_555
N7A C6A 1_555 1_555
N8A C7A 1_555 1_555
N12A Zn2_2 1_555 1_555
N14A Na2B 1_555 1_555
N15A C13A 1_555 1_555
N16A C14A 1_555 1_555
N16A Zn2_2 1_555 1_555
C1A C6A 1_555 1_555
C4A C5A 1_555 1_555
C5A C7A 1_555 1_555
C8A C13A 1_555 1_555
C11A C12A 1_555 1_555
C12A C14A 1_555 1_555

#END
