
#######################################################################
#
#                 Cambridge Crystallographic Data Centre
#                                CCDC 
#
#######################################################################
#
# If this CIF has been generated from an entry in the Cambridge 
# Structural Database, then it will include bibliographic, chemical, 
# crystal, experimental, refinement or atomic coordinate data resulting 
# from the CCDC's data processing and validation procedures.
#
#######################################################################

data_REQLAC
_symmetry_cell_setting           monoclinic
_symmetry_space_group_name_H-M   'P 21/c'
_symmetry_Int_Tables_number      14
_space_group_name_Hall           '-P 2ybc'
loop_
_symmetry_equiv_pos_site_id
_symmetry_equiv_pos_as_xyz
1 x,y,z
2 -x,1/2+y,1/2-z
3 -x,-y,-z
4 x,1/2-y,1/2+z
_cell_length_a                   10.2848(12)
_cell_length_b                   11.3639(14)
_cell_length_c                   14.0303(9)
_cell_angle_alpha                90
_cell_angle_beta                 98.706(7)
_cell_angle_gamma                90
_cell_volume                     1620.9
loop_
_atom_site_label
_atom_site_type_symbol
_atom_site_fract_x
_atom_site_fract_y
_atom_site_fract_z
Co1 Co 0.59158(8) 0.56838(8) 0.27641(5)
O1 O 0.4081(4) 0.6486(4) 0.2152(3)
O2 O 0.3981(4) 0.5092(4) 0.3174(3)
O3 O 0.2175(5) 0.6014(5) 0.2538(3)
O4 O 0.6733(5) 0.6974(4) 0.1991(3)
O5 O 0.8565(5) 0.7776(5) 0.1775(3)
O6 O 0.8535(6) 0.6401(6) 0.2808(4)
N1 N 0.7147(5) 0.4680(5) 0.3771(3)
N2 N 0.5981(5) 0.6717(4) 0.4050(3)
N3 N 0.4271(5) 0.9477(4) 0.3396(3)
N4 N 0.3357(6) 0.5853(5) 0.2612(3)
N5 N 0.7981(6) 0.7076(6) 0.2200(4)
C1 C 0.7810(7) 0.3710(6) 0.3611(5)
H1 H 0.7629 0.3352 0.2994
C2 C 0.8753(6) 0.3193(6) 0.4301(4)
H2 H 0.9209 0.2506 0.4152
C3 C 0.9013(7) 0.3692(7) 0.5201(5)
H3 H 0.9642 0.3352 0.5689
C4 C 0.8331(6) 0.4714(6) 0.5384(4)
H4 H 0.8494 0.5081 0.5999
C5 C 0.7420(6) 0.5184(6) 0.4660(4)
C6 C 0.6708(6) 0.6256(6) 0.4789(4)
H5 H 0.6773 0.6616 0.5406
C7 C 0.5198(6) 0.7708(6) 0.4153(4)
C8 C 0.4493(6) 0.7876(6) 0.4912(4)
H6 H 0.4563 0.7323 0.5425
C9 C 0.3699(6) 0.8840(6) 0.4916(4)
H7 H 0.3215 0.8965 0.5432
C10 C 0.3610(6) 0.9635(5) 0.4155(4)
H8 H 0.3070 1.0311 0.4167
C11 C 0.5027(6) 0.8537(6) 0.3404(4)
H9 H 0.5483 0.8415 0.2872
Co1A Co 0.40842(8) 1.06838(8) 0.22359(5)
N3A N 0.5729(5) 0.4477(4) 0.1604(3)
N6 N 0.1670(7) 1.1085(7) 0.5481(5)
C12 C 0.0903(8) 1.0890(7) 0.5942(5)
C13 C -0.0138(7) 1.0655(8) 0.6528(5)
H10 H -0.0266 1.1352 0.6915
H11 H 0.0117 0.9986 0.6956
H12 H -0.0960 1.0471 0.6103
loop_
_geom_bond_atom_site_label_1
_geom_bond_atom_site_label_2
_geom_bond_site_symmetry_1
_geom_bond_site_symmetry_2
Co1 O1 1_555 1_555
O1 N4 1_555 1_555
O2 Co1 1_555 1_555
O3 N4 1_555 1_555
O4 Co1 1_555 1_555
O5 N5 1_555 1_555
O6 N5 1_555 1_555
N1 Co1 1_555 1_555
N2 Co1 1_555 1_555
N3 C10 1_555 1_555
N4 O2 1_555 1_555
N5 O4 1_555 1_555
C1 N1 1_555 1_555
H1 C1 1_555 1_555
C2 C1 1_555 1_555
H2 C2 1_555 1_555
C3 C2 1_555 1_555
H3 C3 1_555 1_555
C4 C3 1_555 1_555
H4 C4 1_555 1_555
C5 N1 1_555 1_555
C6 N2 1_555 1_555
H5 C6 1_555 1_555
C7 N2 1_555 1_555
C8 C7 1_555 1_555
H6 C8 1_555 1_555
C9 C8 1_555 1_555
H7 C9 1_555 1_555
C10 C9 1_555 1_555
H8 C10 1_555 1_555
C11 N3 1_555 1_555
H9 C11 1_555 1_555
N6 C12 1_555 1_555
C12 C13 1_555 1_555
C13 H10 1_555 1_555
H11 C13 1_555 1_555
H12 C13 1_555 1_555
Co1A N3 1_555 1_555
N3A Co1 1_555 1_555
C4 C5 1_555 1_555
C5 C6 1_555 1_555
C7 C11 1_555 1_555

#END
