
#######################################################################
#
#                 Cambridge Crystallographic Data Centre
#                                CCDC 
#
#######################################################################
#
# If this CIF has been generated from an entry in the Cambridge 
# Structural Database, then it will include bibliographic, chemical, 
# crystal, experimental, refinement or atomic coordinate data resulting 
# from the CCDC's data processing and validation procedures.
#
#######################################################################

data_REQMUX
_symmetry_cell_setting           monoclinic
_symmetry_space_group_name_H-M   'C 2/c'
_symmetry_Int_Tables_number      15
_space_group_name_Hall           '-C 2yn'
loop_
_symmetry_equiv_pos_site_id
_symmetry_equiv_pos_as_xyz
1 x,y,z
2 -x,y,1/2-z
3 1/2+x,1/2+y,z
4 1/2-x,1/2+y,1/2-z
5 -x,-y,-z
6 x,-y,1/2+z
7 1/2-x,1/2-y,-z
8 1/2+x,1/2-y,1/2+z
_cell_length_a                   6.33960(10)
_cell_length_b                   18.0440(2)
_cell_length_c                   19.6225(2)
_cell_angle_alpha                90
_cell_angle_beta                 95.4510(10)
_cell_angle_gamma                90
_cell_volume                     2234.5
loop_
_atom_site_label
_atom_site_type_symbol
_atom_site_fract_x
_atom_site_fract_y
_atom_site_fract_z
Yb1 Yb 0.5000 0.098409(12) 0.25000
Na1 Na 0.0000 -0.07823(13) 0.25000
O1 O 0.2707(5) -0.02976(17) 0.66804(14)
O2 O 0.7275(5) 0.19354(19) 0.23436(17)
O3 O 0.3948(5) -0.13598(17) 0.63459(15)
C1 C 0.2877(6) -0.0777(2) 0.6211(2)
C2 C 0.2051(6) -0.0601(2) 0.54901(19)
O4 O 0.2592(5) 0.03900(17) 0.31142(14)
C3 C 0.1656(6) 0.0624(2) 0.3621(2)
O5 O 0.1066(5) 0.12744(18) 0.37016(17)
C4 C 0.1421(6) 0.0082(2) 0.41993(18)
C5 C 0.3027(6) -0.0419(2) 0.43394(19)
H1 H 0.3915 -0.0535 0.4004
C6 C -0.0166(6) 0.0174(2) 0.46711(18)
O6 O 0.2594(10) -0.1259(4) 0.1461(4)
O7 O -0.3215(9) -0.1813(3) 0.1879(3)
C7 C 0.3350(6) -0.0765(2) 0.4991(2)
H2 H 0.4446 -0.1104 0.5079
O4D O -0.2592(5) -0.03900(17) 0.68858(14)
C3D C -0.1656(6) -0.0624(2) 0.6379(2)
O5D O -0.1066(5) -0.12744(18) 0.62984(17)
C4D C -0.1421(6) -0.0082(2) 0.58007(18)
C5D C -0.3027(6) 0.0419(2) 0.56606(19)
H1D H -0.3915 0.0535 0.5996
C6D C 0.0166(6) -0.0174(2) 0.53289(18)
O3D O -0.3948(5) 0.13598(17) 0.36541(15)
C1D C -0.2877(6) 0.0777(2) 0.3789(2)
C2D C -0.2051(6) 0.0601(2) 0.45099(19)
C7D C -0.3350(6) 0.0765(2) 0.5009(2)
H2D H -0.4446 0.1104 0.4921
O1D O -0.2707(5) 0.02976(17) 0.33196(14)
O6A O -0.2594(10) -0.1259(4) 0.3539(4)
O7A O 0.3215(9) -0.1813(3) 0.3121(3)
O2A O 0.2725(5) 0.19354(19) 0.26564(17)
Yb1_2 Yb -0.5000 0.098409(12) 0.25000
Yb1D Yb -0.5000 -0.098409(12) 0.75000
Yb1D_2 Yb 0.5000 -0.098409(12) 0.75000
Na1D Na 0.0000 0.07823(13) 0.75000
O1D_2 O 0.7293(5) 0.02976(17) 0.33196(14)
O1E O 0.2707(5) 0.02976(17) 0.16804(14)
O3D_2 O 0.6052(5) 0.13598(17) 0.36541(15)
O3E O 0.3948(5) 0.13598(17) 0.13459(15)
O4A O -0.2592(5) 0.03900(17) 0.18858(14)
O4A_2 O 0.7408(5) 0.03900(17) 0.18858(14)
O8 O 0.1522(15) 0.1858(5) 0.5044(4)
O9 O 0.651(2) 0.2681(4) 0.4278(5)
loop_
_geom_bond_atom_site_label_1
_geom_bond_atom_site_label_2
_geom_bond_site_symmetry_1
_geom_bond_site_symmetry_2
Yb1 O2 1_555 1_555
Na1 O4 1_555 1_555
O1 C1 1_555 1_555
O3 C1 1_555 1_555
C1 C2 1_555 1_555
C2 C7 1_555 1_555
O4 Yb1 1_555 1_555
C3 O4 1_555 1_555
O5 C3 1_555 1_555
C4 C3 1_555 1_555
C5 C4 1_555 1_555
H1 C5 1_555 1_555
C6 C4 1_555 1_555
O6 Na1 1_555 1_555
O7 Na1 1_555 1_555
C7 C5 1_555 1_555
H2 C7 1_555 1_555
O4D C3D 1_555 1_555
C3D O5D 1_555 1_555
C4D C3D 1_555 1_555
C5D C4D 1_555 1_555
H1D C5D 1_555 1_555
C6D C2 1_555 1_555
O3D C1D 1_555 1_555
C1D C2D 1_555 1_555
C2D C6 1_555 1_555
C7D C5D 1_555 1_555
H2D C7D 1_555 1_555
O1D C1D 1_555 1_555
O6A Na1 1_555 1_555
O7A Na1 1_555 1_555
O2A Yb1 1_555 1_555
Yb1_2 O3D 1_555 1_555
Yb1D O4D 1_555 1_555
Yb1D_2 O1 1_555 1_555
Na1D O4D 1_555 1_555
O1D_2 Yb1 1_555 1_555
O1E Yb1 1_555 1_555
O3D_2 Yb1 1_555 1_555
O3E Yb1 1_555 1_555
O4A Na1 1_555 1_555
O4A_2 Yb1 1_555 1_555
O3 Yb1D_2 1_555 1_555
C6 C6D 1_555 1_555
C4D C6D 1_555 1_555
C2D C7D 1_555 1_555
O1D Yb1_2 1_555 1_555
Yb1_2 O4A 1_555 1_555

#END
