
#######################################################################
#
#                 Cambridge Crystallographic Data Centre
#                                CCDC 
#
#######################################################################
#
# If this CIF has been generated from an entry in the Cambridge 
# Structural Database, then it will include bibliographic, chemical, 
# crystal, experimental, refinement or atomic coordinate data resulting 
# from the CCDC's data processing and validation procedures.
#
#######################################################################

data_REQPIN
_symmetry_cell_setting           triclinic
_symmetry_space_group_name_H-M   'P -1'
_symmetry_Int_Tables_number      2
_space_group_name_Hall           '-P 1'
loop_
_symmetry_equiv_pos_site_id
_symmetry_equiv_pos_as_xyz
1 x,y,z
2 -x,-y,-z
_cell_length_a                   9.765(4)
_cell_length_b                   10.530(4)
_cell_length_c                   11.935(5)
_cell_angle_alpha                108.019(5)
_cell_angle_beta                 95.985(5)
_cell_angle_gamma                100.520(6)
_cell_volume                     1130.33
loop_
_atom_site_label
_atom_site_type_symbol
_atom_site_fract_x
_atom_site_fract_y
_atom_site_fract_z
Sn1 Sn 0.31951(4) 0.23168(4) 0.67429(4)
Sn2 Sn 0.17638(4) 0.27311(4) 1.17352(4)
N1 N 0.4009(5) 0.2269(6) 0.9533(5)
N2 N 0.4033(5) 0.2232(5) 1.0692(4)
N3 N 0.0932(5) 0.2725(6) 0.4401(4)
N4 N 0.0853(5) 0.2660(6) 0.5548(5)
S1 S 0.63837(17) 0.18125(19) 1.01558(14)
S2 S 0.55231(18) 0.2018(2) 0.77391(16)
S3 S -0.14142(16) 0.32534(19) 0.48984(14)
S4 S -0.05001(17) 0.3201(2) 0.25646(14)
C1 C 0.5164(6) 0.2060(7) 0.9147(5)
C2 C 0.5188(6) 0.1996(6) 1.1128(5)
C3 C 0.5500(8) 0.1880(8) 1.2337(6)
H1 H 0.6429 0.1713 1.2456
H2 H 0.4816 0.1135 1.2397
H3 H 0.5456 0.2719 1.2935
C4 C 0.3999(8) 0.2075(10) 0.5119(6)
H4 H 0.3901 0.1117 0.4694
H5 H 0.4980 0.2534 0.5295
H6 H 0.3479 0.2465 0.4635
C5 C 0.3251(7) 0.4316(6) 0.7884(7)
H7 H 0.3947 0.4965 0.7708
H8 H 0.3491 0.4372 0.8701
H9 H 0.2340 0.4520 0.7760
C6 C 0.1800(8) 0.0566(7) 0.6816(8)
H10 H 0.1934 -0.0239 0.6226
H11 H 0.0842 0.0649 0.6660
H12 H 0.1992 0.0492 0.7597
C7 C -0.0181(6) 0.3025(6) 0.3949(5)
C8 C -0.0292(6) 0.2880(7) 0.5908(5)
C9 C -0.0646(8) 0.2867(10) 0.7094(7)
H13 H -0.1560 0.3068 0.7165
H14 H 0.0051 0.3547 0.7722
H15 H -0.0657 0.1978 0.7157
C10 C 0.3221(7) 0.4353(7) 1.3044(6)
H16 H 0.3167 0.5198 1.2913
H17 H 0.4158 0.4204 1.2999
H18 H 0.3007 0.4399 1.3821
C11 C 0.1482(8) 0.0659(8) 1.1647(8)
H19 H 0.0764 0.0094 1.0976
H20 H 0.1198 0.0569 1.2370
H21 H 0.2355 0.0374 1.1554
C12 C 0.1031(8) 0.3156(10) 1.0170(7)
H22 H 0.0376 0.2358 0.9619
H23 H 0.1820 0.3396 0.9799
H24 H 0.0569 0.3905 1.0387
Sn2_2 Sn 0.17638(4) 0.27311(4) 0.17352(4)
S4_2 S -0.05001(17) 0.3201(2) 1.25646(14)
loop_
_geom_bond_atom_site_label_1
_geom_bond_atom_site_label_2
_geom_bond_site_symmetry_1
_geom_bond_site_symmetry_2
Sn1 N4 1_555 1_555
Sn2 N2 1_555 1_555
N1 N2 1_555 1_555
N2 C2 1_555 1_555
N3 N4 1_555 1_555
N4 C8 1_555 1_555
S1 C1 1_555 1_555
S2 Sn1 1_555 1_555
S3 C7 1_555 1_555
S4 C7 1_555 1_555
C1 N1 1_555 1_555
C2 S1 1_555 1_555
C3 C2 1_555 1_555
H1 C3 1_555 1_555
H2 C3 1_555 1_555
H3 C3 1_555 1_555
C4 Sn1 1_555 1_555
H4 C4 1_555 1_555
H5 C4 1_555 1_555
H6 C4 1_555 1_555
C5 Sn1 1_555 1_555
H7 C5 1_555 1_555
H8 C5 1_555 1_555
H9 C5 1_555 1_555
C6 Sn1 1_555 1_555
H10 C6 1_555 1_555
H11 C6 1_555 1_555
H12 C6 1_555 1_555
C7 N3 1_555 1_555
C8 S3 1_555 1_555
C9 C8 1_555 1_555
H13 C9 1_555 1_555
H14 C9 1_555 1_555
H15 C9 1_555 1_555
C10 Sn2 1_555 1_555
H16 C10 1_555 1_555
H17 C10 1_555 1_555
H18 C10 1_555 1_555
C11 Sn2 1_555 1_555
H19 C11 1_555 1_555
H20 C11 1_555 1_555
H21 C11 1_555 1_555
C12 Sn2 1_555 1_555
H22 C12 1_555 1_555
H23 C12 1_555 1_555
H24 C12 1_555 1_555
Sn2_2 S4 1_555 1_555
S4_2 Sn2 1_555 1_555
S2 C1 1_555 1_555

#END
