
#######################################################################
#
#                 Cambridge Crystallographic Data Centre
#                                CCDC 
#
#######################################################################
#
# If this CIF has been generated from an entry in the Cambridge 
# Structural Database, then it will include bibliographic, chemical, 
# crystal, experimental, refinement or atomic coordinate data resulting 
# from the CCDC's data processing and validation procedures.
#
#######################################################################

data_REQQEL
_symmetry_cell_setting           triclinic
_symmetry_space_group_name_H-M   'P -1'
_symmetry_Int_Tables_number      2
_space_group_name_Hall           '-P 1'
loop_
_symmetry_equiv_pos_site_id
_symmetry_equiv_pos_as_xyz
1 x,y,z
2 -x,-y,-z
_cell_length_a                   8.0180(19)
_cell_length_b                   9.348(2)
_cell_length_c                   10.090(2)
_cell_angle_alpha                66.760(2)
_cell_angle_beta                 72.957(2)
_cell_angle_gamma                83.524(2)
_cell_volume                     664.385
loop_
_atom_site_label
_atom_site_type_symbol
_atom_site_fract_x
_atom_site_fract_y
_atom_site_fract_z
Ho1 Ho 0.378118(15) 0.052602(13) 0.795025(12)
N1 N 1.0176(3) 0.7725(3) 0.6955(3)
N2 N 1.0505(3) 0.8105(3) 0.5460(3)
N3 N 0.9615(3) 0.7178(3) 0.5228(3)
O1 O 0.5003(3) 0.2644(2) 0.7976(2)
O2 O 0.1796(2) 0.0721(2) 1.0193(2)
O3 O -0.1011(3) 0.0596(2) 1.1484(2)
O4 O 0.3949(3) -0.1271(2) 0.6792(2)
O5 O 0.5080(3) -0.1722(2) 0.4686(2)
O6 O 0.1756(3) 0.2598(3) 0.7151(2)
H1 H 0.2159 0.3498 0.6901
H2 H 0.1172 0.2555 0.6587
O7 O 0.6873(3) 0.0021(3) 0.7305(2)
H3 H 0.7315 -0.0301 0.8042
H4 H 0.7564 0.0554 0.6470
O8 O 0.5635(3) 0.1575(2) 1.0162(2)
C1 C 0.6876(4) 0.4052(3) 0.8468(3)
C2 C 0.7229(4) 0.4427(3) 0.9604(3)
H5 H 0.6733 0.3819 1.0605
C3 C 0.8279(4) 0.5659(4) 0.9260(3)
H6 H 0.8480 0.5919 1.0000
C4 C 0.9032(4) 0.6507(3) 0.7726(3)
C5 C 0.8679(4) 0.6154(3) 0.6607(3)
C6 C 0.7571(4) 0.4918(3) 0.6964(3)
H7 H 0.7317 0.4694 0.6225
C7 C 0.5762(4) 0.2664(3) 0.8906(3)
C8 C 0.4725(4) -0.0867(3) 0.5430(3)
C9 C 0.0230(4) 0.0386(3) 1.0480(3)
O2A O -0.1796(2) -0.0721(2) 0.9807(2)
C9A C -0.0230(4) -0.0386(3) 0.9520(3)
O3A O 0.1011(3) -0.0596(2) 0.8516(2)
O4A O 0.6051(3) 0.1271(2) 0.3208(2)
C8A C 0.5275(4) 0.0867(3) 0.4570(3)
O5A O 0.4920(3) 0.1722(2) 0.5314(2)
Ho1A Ho -0.378118(15) -0.052602(13) 1.204975(12)
N1A N -1.0176(3) -0.7725(3) 1.3045(3)
N2A N -1.0505(3) -0.8105(3) 1.4540(3)
N3A N -0.9615(3) -0.7178(3) 1.4772(3)
O1A O -0.5003(3) -0.2644(2) 1.2024(2)
O6A O -0.1756(3) -0.2598(3) 1.2849(2)
H1A H -0.2159 -0.3498 1.3099
H2A H -0.1172 -0.2555 1.3413
O7A O -0.6873(3) -0.0021(3) 1.2695(2)
H3A H -0.7315 0.0301 1.1958
H4A H -0.7564 -0.0554 1.3530
O8A O -0.5635(3) -0.1575(2) 0.9838(2)
C1A C -0.6876(4) -0.4052(3) 1.1532(3)
C2A C -0.7229(4) -0.4427(3) 1.0396(3)
H5A H -0.6733 -0.3819 0.9395
C3A C -0.8279(4) -0.5659(4) 1.0740(3)
H6A H -0.8480 -0.5919 1.0000
C4A C -0.9032(4) -0.6507(3) 1.2274(3)
C5A C -0.8679(4) -0.6154(3) 1.3393(3)
C6A C -0.7571(4) -0.4918(3) 1.3036(3)
H7A H -0.7317 -0.4694 1.3775
C7A C -0.5762(4) -0.2664(3) 1.1094(3)
Ho1_2 Ho -0.621882(15) 0.052602(13) 0.795025(12)
Ho1A_2 Ho 0.621882(15) -0.052602(13) 0.204975(12)
Ho1A_3 Ho 0.621882(15) -0.052602(13) 1.204975(12)
O4A_2 O -0.3949(3) 0.1271(2) 1.3208(2)
O5_2 O -0.4920(3) -0.1722(2) 1.4686(2)
O8_2 O -0.4365(3) 0.1575(2) 1.0162(2)
O8A_2 O 0.4365(3) -0.1575(2) 0.9838(2)
O9 O 0.3268(4) 0.5332(3) 0.6472(4)
H8 H 0.4009 0.4719 0.6867
H9 H 0.3797 0.6191 0.5909
loop_
_geom_bond_atom_site_label_1
_geom_bond_atom_site_label_2
_geom_bond_site_symmetry_1
_geom_bond_site_symmetry_2
Ho1 O1 1_555 1_555
N1 N2 1_555 1_555
N2 N3 1_555 1_555
N3 C5 1_555 1_555
O1 C7 1_555 1_555
O2 Ho1 1_555 1_555
O3 C9 1_555 1_555
O4 Ho1 1_555 1_555
O5 C8 1_555 1_555
O6 Ho1 1_555 1_555
H1 O6 1_555 1_555
H2 O6 1_555 1_555
O7 Ho1 1_555 1_555
H3 O7 1_555 1_555
H4 O7 1_555 1_555
O8 C7 1_555 1_555
C1 C2 1_555 1_555
C2 H5 1_555 1_555
C3 C2 1_555 1_555
H6 C3 1_555 1_555
C4 N1 1_555 1_555
C5 C4 1_555 1_555
C6 C1 1_555 1_555
H7 C6 1_555 1_555
C7 C1 1_555 1_555
C8 O4 1_555 1_555
C9 O2 1_555 1_555
O9 H8 1_555 1_555
H9 O9 1_555 1_555
O2A C9A 1_555 1_555
C9A C9 1_555 1_555
O3A Ho1 1_555 1_555
O4A C8A 1_555 1_555
C8A C8 1_555 1_555
O5A Ho1 1_555 1_555
Ho1A O3 1_555 1_555
N1A N2A 1_555 1_555
N2A N3A 1_555 1_555
N3A C5A 1_555 1_555
O1A Ho1A 1_555 1_555
O6A Ho1A 1_555 1_555
H1A O6A 1_555 1_555
H2A O6A 1_555 1_555
O7A Ho1A 1_555 1_555
H3A O7A 1_555 1_555
H4A O7A 1_555 1_555
O8A C7A 1_555 1_555
C1A C2A 1_555 1_555
C2A H5A 1_555 1_555
C3A C2A 1_555 1_555
H6A C3A 1_555 1_555
C4A N1A 1_555 1_555
C5A C4A 1_555 1_555
C6A C1A 1_555 1_555
H7A C6A 1_555 1_555
C7A O1A 1_555 1_555
Ho1_2 O8A 1_555 1_555
Ho1A_2 O5 1_555 1_555
Ho1A_3 O8 1_555 1_555
O4A_2 Ho1A 1_555 1_555
O5_2 Ho1A 1_555 1_555
O8_2 Ho1A 1_555 1_555
O8A_2 Ho1 1_555 1_555
C3 C4 1_555 1_555
C5 C6 1_555 1_555
O2A Ho1A 1_555 1_555
C9A O3A 1_555 1_555
O4A Ho1A_2 1_555 1_555
C8A O5A 1_555 1_555
C1A C7A 1_555 1_555
C3A C4A 1_555 1_555
C5A C6A 1_555 1_555

#END
