
#######################################################################
#
#                 Cambridge Crystallographic Data Centre
#                                CCDC 
#
#######################################################################
#
# If this CIF has been generated from an entry in the Cambridge 
# Structural Database, then it will include bibliographic, chemical, 
# crystal, experimental, refinement or atomic coordinate data resulting 
# from the CCDC's data processing and validation procedures.
#
#######################################################################

data_REQREM
_symmetry_cell_setting           monoclinic
_symmetry_space_group_name_H-M   'P 21/n'
_symmetry_Int_Tables_number      14
_space_group_name_Hall           '-P 2yn'
loop_
_symmetry_equiv_pos_site_id
_symmetry_equiv_pos_as_xyz
1 x,y,z
2 1/2-x,1/2+y,1/2-z
3 -x,-y,-z
4 1/2+x,1/2-y,1/2+z
_cell_length_a                   16.101(3)
_cell_length_b                   10.5899(17)
_cell_length_c                   19.115(3)
_cell_angle_alpha                90
_cell_angle_beta                 108.545(2)
_cell_angle_gamma                90
_cell_volume                     3090.02
loop_
_atom_site_label
_atom_site_type_symbol
_atom_site_fract_x
_atom_site_fract_y
_atom_site_fract_z
K1 K 0.43810(5) 1.02638(7) 0.21203(4)
K2 K 0.52390(5) 0.77140(7) 0.37649(4)
N1 N 0.56982(18) 1.2040(3) 0.52750(15)
N2 N 0.59833(17) 0.9423(2) 0.30995(14)
N3 N 0.48310(17) 0.7705(2) 0.22215(14)
N4 N 0.18241(18) 0.6019(3) 0.21998(15)
O1 O 0.48493(16) 1.1787(3) 0.11836(14)
O2 O 0.30008(16) 1.0094(2) 0.08734(13)
O3 O 0.56890(16) 0.5328(2) 0.37454(14)
C1 C 0.5367(2) 1.0844(3) 0.41441(18)
H1 H 0.4931 1.0481 0.3753
C2 C 0.5142(2) 1.1453(3) 0.46840(18)
H2 H 0.4551 1.1467 0.4642
C3 C 0.6549(2) 1.1993(3) 0.52900(18)
H3 H 0.6962 1.2401 0.5678
C4 C 0.6844(2) 1.1396(3) 0.47840(18)
H4 H 0.7440 1.1409 0.4841
C5 C 0.6255(2) 1.0750(3) 0.41658(17)
C6 C 0.6552(2) 1.0085(3) 0.36586(18)
H5 H 0.6847 1.0687 0.3436
H6 H 0.6995 0.9495 0.3938
C7 C 0.6240(2) 0.8691(3) 0.26426(18)
C8 C 0.7192(2) 0.8586(3) 0.2700(2)
H7 H 0.7530 0.8409 0.3209
H8 H 0.7387 0.9394 0.2570
C9 C 0.7385(2) 0.7571(3) 0.2211(2)
H9 H 0.7970 0.7687 0.2180
H10 H 0.7355 0.6744 0.2419
C10 C 0.6720(2) 0.7663(4) 0.1453(2)
H11 H 0.6884 0.7104 0.1117
H12 H 0.6703 0.8519 0.1269
C11 C 0.5821(2) 0.7295(3) 0.14902(19)
H13 H 0.5381 0.7533 0.1031
H14 H 0.5798 0.6385 0.1537
C12 C 0.5599(2) 0.7902(3) 0.21233(18)
C13 C 0.4216(2) 0.6918(3) 0.17804(18)
H15 H 0.4502 0.6114 0.1774
H16 H 0.4061 0.7256 0.1284
C14 C 0.3428(2) 0.6657(3) 0.19179(17)
C15 C 0.2830(2) 0.5726(3) 0.15075(19)
H17 H 0.2954 0.5296 0.1128
C16 C 0.2081(2) 0.5457(3) 0.16637(19)
H18 H 0.1715 0.4839 0.1380
C17 C 0.2375(2) 0.6918(3) 0.25738(18)
H19 H 0.2218 0.7351 0.2936
C18 C 0.3147(2) 0.7253(3) 0.24701(18)
H20 H 0.3492 0.7879 0.2764
C19 C 0.5582(3) 1.1998(4) 0.0969(3)
H21 H 0.5564 1.1464 0.0551
H22 H 0.6110 1.1800 0.1371
C20 C 0.5583(3) 1.3355(4) 0.0761(3)
H23 H 0.5805 1.3458 0.0348
H24 H 0.5940 1.3852 0.1173
C21 C 0.4641(2) 1.3737(4) 0.0552(2)
H25 H 0.4571 1.4477 0.0827
H26 H 0.4407 1.3920 0.0029
C22 C 0.4191(3) 1.2620(5) 0.0747(3)
H27 H 0.3810 1.2888 0.1023
H28 H 0.3839 1.2195 0.0303
C23 C 0.2199(3) 0.9680(4) 0.0950(2)
H29 H 0.1770 1.0355 0.0816
H30 H 0.2284 0.9447 0.1459
C24 C 0.1878(2) 0.8560(4) 0.0454(2)
H31 H 0.1290 0.8703 0.0123
H32 H 0.1880 0.7803 0.0741
C25 C 0.2523(3) 0.8446(4) 0.0031(3)
H33 H 0.2224 0.8304 -0.0490
H34 H 0.2935 0.7765 0.0222
C26 C 0.2979(3) 0.9716(6) 0.0160(3)
H35 H 0.3568 0.9643 0.0132
H36 H 0.2657 1.0324 -0.0206
C27 C 0.5052(3) 0.4589(4) 0.3941(2)
H37 H 0.4674 0.5124 0.4119
H38 H 0.5334 0.3979 0.4320
C28 C 0.4537(3) 0.3934(4) 0.3235(2)
H39 H 0.4092 0.4484 0.2919
H40 H 0.4262 0.3167 0.3332
C29 C 0.5252(3) 0.3646(4) 0.2900(2)
H41 H 0.5537 0.2851 0.3085
H42 H 0.5016 0.3603 0.2366
C30 C 0.5881(3) 0.4725(4) 0.3137(3)
H43 H 0.6480 0.4419 0.3292
H44 H 0.5805 0.5316 0.2734
K1A K 0.06190(5) 0.52638(7) 0.28797(4)
K2B K 0.47610(5) 1.22860(7) 0.62351(4)
N1B N 0.43018(18) 0.7960(3) 0.47250(15)
N4A N 0.31759(18) 1.1019(3) 0.28002(15)
loop_
_geom_bond_atom_site_label_1
_geom_bond_atom_site_label_2
_geom_bond_site_symmetry_1
_geom_bond_site_symmetry_2
K1 N2 1_555 1_555
K2 N2 1_555 1_555
N1 C2 1_555 1_555
N2 C6 1_555 1_555
N3 K1 1_555 1_555
N4 C16 1_555 1_555
O1 K1 1_555 1_555
O2 K1 1_555 1_555
O3 K2 1_555 1_555
C1 H1 1_555 1_555
C2 C1 1_555 1_555
H2 C2 1_555 1_555
C3 N1 1_555 1_555
H3 C3 1_555 1_555
C4 C3 1_555 1_555
H4 C4 1_555 1_555
C5 C1 1_555 1_555
C6 C5 1_555 1_555
H5 C6 1_555 1_555
H6 C6 1_555 1_555
C7 N2 1_555 1_555
C8 C7 1_555 1_555
H7 C8 1_555 1_555
H8 C8 1_555 1_555
C9 C8 1_555 1_555
H9 C9 1_555 1_555
H10 C9 1_555 1_555
C10 C9 1_555 1_555
H11 C10 1_555 1_555
H12 C10 1_555 1_555
C11 C10 1_555 1_555
H13 C11 1_555 1_555
H14 C11 1_555 1_555
C12 N3 1_555 1_555
C13 N3 1_555 1_555
H15 C13 1_555 1_555
H16 C13 1_555 1_555
C14 C13 1_555 1_555
C15 C14 1_555 1_555
H17 C15 1_555 1_555
C16 C15 1_555 1_555
H18 C16 1_555 1_555
C17 N4 1_555 1_555
H19 C17 1_555 1_555
C18 C14 1_555 1_555
H20 C18 1_555 1_555
C19 O1 1_555 1_555
H21 C19 1_555 1_555
H22 C19 1_555 1_555
C20 C19 1_555 1_555
H23 C20 1_555 1_555
H24 C20 1_555 1_555
C21 C20 1_555 1_555
H25 C21 1_555 1_555
H26 C21 1_555 1_555
C22 O1 1_555 1_555
H27 C22 1_555 1_555
H28 C22 1_555 1_555
C23 O2 1_555 1_555
H29 C23 1_555 1_555
H30 C23 1_555 1_555
C24 C23 1_555 1_555
H31 C24 1_555 1_555
H32 C24 1_555 1_555
C25 C24 1_555 1_555
H33 C25 1_555 1_555
H34 C25 1_555 1_555
C26 O2 1_555 1_555
H35 C26 1_555 1_555
H36 C26 1_555 1_555
C27 O3 1_555 1_555
H37 C27 1_555 1_555
H38 C27 1_555 1_555
C28 C27 1_555 1_555
H39 C28 1_555 1_555
H40 C28 1_555 1_555
C29 C28 1_555 1_555
H41 C29 1_555 1_555
H42 C29 1_555 1_555
C30 O3 1_555 1_555
H43 C30 1_555 1_555
H44 C30 1_555 1_555
K1A N4 1_555 1_555
K2B N1 1_555 1_555
N1B K2 1_555 1_555
N4A K1 1_555 1_555
K2 N3 1_555 1_555
C4 C5 1_555 1_555
C7 C12 1_555 1_555
C11 C12 1_555 1_555
C17 C18 1_555 1_555
C21 C22 1_555 1_555
C25 C26 1_555 1_555
C29 C30 1_555 1_555

#END
