
#######################################################################
#
#                 Cambridge Crystallographic Data Centre
#                                CCDC 
#
#######################################################################
#
# If this CIF has been generated from an entry in the Cambridge 
# Structural Database, then it will include bibliographic, chemical, 
# crystal, experimental, refinement or atomic coordinate data resulting 
# from the CCDC's data processing and validation procedures.
#
#######################################################################

data_REQTUC
_symmetry_cell_setting           monoclinic
_symmetry_space_group_name_H-M   'P 21/a'
_symmetry_Int_Tables_number      14
_space_group_name_Hall           '-P 2yab'
loop_
_symmetry_equiv_pos_site_id
_symmetry_equiv_pos_as_xyz
1 x,y,z
2 1/2-x,1/2+y,-z
3 -x,-y,-z
4 1/2+x,1/2-y,z
_cell_length_a                   12.864(8)
_cell_length_b                   12.4016(11)
_cell_length_c                   15.417(2)
_cell_angle_alpha                90
_cell_angle_beta                 109.29(3)
_cell_angle_gamma                90
_cell_volume                     2321.46
loop_
_atom_site_label
_atom_site_type_symbol
_atom_site_fract_x
_atom_site_fract_y
_atom_site_fract_z
Cu1 Cu 0.0236(1) 0.2080(1) 0.0173(1)
Cu2 Cu -0.3736(1) 0.2462(1) -0.2813(1)
O1 O 0.0092(3) 0.3193(3) -0.0790(2)
O2 O 0.0399(3) 0.3354(3) -0.2133(2)
O3 O 0.1013(4) 0.1226(3) -0.0556(2)
O4 O 0.1469(4) 0.1458(3) -0.1816(3)
N1 N -0.1359(4) 0.1339(4) -0.0572(3)
N2 N -0.1772(4) 0.1494(3) -0.1372(3)
N3 N -0.2135(4) 0.1638(5) -0.2156(3)
N4 N -0.0023(3) 0.3156(3) 0.1073(3)
N5 N 0.0545(4) 0.0998(3) 0.1187(3)
N6 N 0.1522(3) 0.1397(3) -0.3666(2)
N7 N 0.0908(4) 0.3536(3) -0.3873(3)
C1 C 0.0474(5) 0.2869(3) -0.1394(3)
C2 C 0.1001(4) 0.1752(3) -0.1255(3)
C3 C 0.0244(6) 0.2579(4) 0.1971(4)
C4 C -0.0067(5) 0.1384(4) 0.1781(4)
C5 C -0.1192(4) 0.3479(4) 0.0673(4)
C6 C -0.1638(5) 0.4307(6) 0.1177(5)
C7 C 0.0687(4) 0.4126(4) 0.1181(4)
C8 C 0.1855(5) 0.3892(5) 0.1257(4)
C9 C 0.1268(5) 0.1919(4) -0.4587(3)
C10 C 0.1510(5) 0.3105(4) -0.4471(4)
C11 C 0.0818(4) 0.0448(4) -0.3699(3)
C12 C -0.0376(5) 0.0739(5) -0.3813(4)
C13 C 0.2711(4) 0.1082(4) -0.3283(3)
C14 C 0.3064(5) 0.0132(5) -0.3760(5)
H1 H 0.0310(4) 0.0339(3) 0.0962(3)
H2 H 0.1271(4) 0.0965(3) 0.1500(3)
H3 H 0.1134(4) 0.4210(3) -0.3686(3)
H4 H 0.0178(4) 0.3547(3) -0.4175(3)
H5 H -0.0165(6) 0.2894(4) 0.2336(4)
H6 H 0.1024(6) 0.2644(4) 0.2312(4)
H7 H 0.0140(5) 0.0978(4) 0.2351(4)
H8 H -0.0854(5) 0.1308(4) 0.1475(4)
H9 H -0.1638(4) 0.2834(4) 0.0607(4)
H10 H -0.1304(4) 0.3754(4) 0.0060(4)
H11 H -0.2401(5) 0.4438(6) 0.0842(5)
H12 H -0.1231(5) 0.4967(6) 0.1229(5)
H13 H -0.1566(5) 0.4043(6) 0.1779(5)
H14 H 0.0684(4) 0.4513(4) 0.1727(4)
H15 H 0.0369(4) 0.4597(4) 0.0658(4)
H16 H 0.2257(5) 0.4557(5) 0.1325(4)
H17 H 0.1871(5) 0.3528(5) 0.0713(4)
H18 H 0.2187(5) 0.3443(5) 0.1783(4)
H19 H 0.1710(5) 0.1592(4) -0.4918(3)
H20 H 0.0498(5) 0.1809(4) -0.4942(3)
H21 H 0.1266(5) 0.3463(4) -0.5064(4)
H22 H 0.2295(5) 0.3223(4) -0.4189(4)
H23 H 0.0826(4) -0.0009(4) -0.4207(3)
H24 H 0.1125(4) 0.0038(4) -0.3136(3)
H25 H -0.0791(5) 0.0091(5) -0.3830(4)
H26 H -0.0394(5) 0.1177(5) -0.3304(4)
H27 H -0.0693(5) 0.1131(5) -0.4375(4)
H28 H 0.3155(4) 0.1703(4) -0.3314(3)
H29 H 0.2877(4) 0.0902(4) -0.2639(3)
H30 H 0.3835(5) -0.0005(5) -0.3466(5)
H31 H 0.2650(5) -0.0498(5) -0.3718(5)
H32 H 0.2928(5) 0.0306(5) -0.4395(5)
Cu2C Cu 0.1264(1) 0.2538(1) -0.2813(1)
N3C N 0.2865(4) 0.3362(5) -0.2156(3)
Cl1 Cl 0.3403(1) 0.1690(1) 0.3816(1)
O5 O 0.4296(6) 0.1020(5) 0.3817(5)
O6 O 0.3582(6) 0.2024(6) 0.4744(4)
O7 O 0.3391(8) 0.2598(6) 0.3278(6)
O8 O 0.2417(7) 0.1118(9) 0.3459(7)
loop_
_geom_bond_atom_site_label_1
_geom_bond_atom_site_label_2
_geom_bond_site_symmetry_1
_geom_bond_site_symmetry_2
Cu1 O1 1_555 1_555
Cu2 N3 1_555 1_555
Cl1 O5 1_555 1_555
O1 C1 1_555 1_555
O2 C1 1_555 1_555
O3 Cu1 1_555 1_555
O4 C2 1_555 1_555
N1 Cu1 1_555 1_555
N2 N1 1_555 1_555
N3 N2 1_555 1_555
N4 Cu1 1_555 1_555
N5 Cu1 1_555 1_555
N6 C9 1_555 1_555
N7 C10 1_555 1_555
C1 C2 1_555 1_555
C2 O3 1_555 1_555
C3 N4 1_555 1_555
C4 N5 1_555 1_555
C5 N4 1_555 1_555
C6 C5 1_555 1_555
C7 N4 1_555 1_555
C8 C7 1_555 1_555
C9 C10 1_555 1_555
C10 H21 1_555 1_555
C11 N6 1_555 1_555
C12 C11 1_555 1_555
C13 N6 1_555 1_555
C14 C13 1_555 1_555
O6 Cl1 1_555 1_555
O7 Cl1 1_555 1_555
O8 Cl1 1_555 1_555
H1 N5 1_555 1_555
H2 N5 1_555 1_555
H3 N7 1_555 1_555
H4 N7 1_555 1_555
H5 C3 1_555 1_555
H6 C3 1_555 1_555
H7 C4 1_555 1_555
H8 C4 1_555 1_555
H9 C5 1_555 1_555
H10 C5 1_555 1_555
H11 C6 1_555 1_555
H12 C6 1_555 1_555
H13 C6 1_555 1_555
H14 C7 1_555 1_555
H15 C7 1_555 1_555
H16 C8 1_555 1_555
H17 C8 1_555 1_555
H18 C8 1_555 1_555
H19 C9 1_555 1_555
H20 C9 1_555 1_555
H22 C10 1_555 1_555
H23 C11 1_555 1_555
H24 C11 1_555 1_555
H25 C12 1_555 1_555
H26 C12 1_555 1_555
H27 C12 1_555 1_555
H28 C13 1_555 1_555
H29 C13 1_555 1_555
H30 C14 1_555 1_555
H31 C14 1_555 1_555
H32 C14 1_555 1_555
Cu2C O2 1_555 1_555
N3C Cu2C 1_555 1_555
O4 Cu2C 1_555 1_555
N6 Cu2C 1_555 1_555
N7 Cu2C 1_555 1_555
C3 C4 1_555 1_555

#END
