
#######################################################################
#
#                 Cambridge Crystallographic Data Centre
#                                CCDC 
#
#######################################################################
#
# If this CIF has been generated from an entry in the Cambridge 
# Structural Database, then it will include bibliographic, chemical, 
# crystal, experimental, refinement or atomic coordinate data resulting 
# from the CCDC's data processing and validation procedures.
#
#######################################################################

data_RERKUW
_symmetry_cell_setting           triclinic
_symmetry_space_group_name_H-M   'P -1'
_symmetry_Int_Tables_number      2
_space_group_name_Hall           '-P 1'
loop_
_symmetry_equiv_pos_site_id
_symmetry_equiv_pos_as_xyz
1 x,y,z
2 -x,-y,-z
_cell_length_a                   11.2624(5)
_cell_length_b                   12.6186(6)
_cell_length_c                   13.4083(6)
_cell_angle_alpha                84.9610(10)
_cell_angle_beta                 88.2190(10)
_cell_angle_gamma                84.5140(10)
_cell_volume                     1888.98
loop_
_atom_site_label
_atom_site_type_symbol
_atom_site_fract_x
_atom_site_fract_y
_atom_site_fract_z
Zn1 Zn 0.00984(4) 0.39552(3) -0.20243(3)
Zn2 Zn 0.19231(4) 0.05596(3) 0.44124(3)
Zn3 Zn 0.59678(4) 0.81052(3) 0.04655(3)
N1 N 0.5428(3) 0.6903(2) 0.1435(2)
N2 N 0.5404(3) 0.5564(2) 0.2596(2)
N3 N 0.3178(3) 0.1474(2) 0.4851(2)
N4 N 0.4602(2) 0.2540(2) 0.4896(2)
N5 N 0.9162(3) 0.4459(2) 0.6717(2)
N6 N 0.7865(2) 0.4638(2) 0.5505(2)
C1 C -0.0490(3) 0.2376(3) -0.0745(3)
C2 C -0.2436(3) -0.0666(3) 0.1034(3)
C3 C 0.0604(3) 0.1119(3) 0.2796(3)
C4 C -0.0618(3) 0.1631(3) 0.0178(3)
C5 C -0.1408(3) 0.0850(3) 0.0186(3)
H1 H -0.1844 0.0796 -0.0382
C6 C -0.1557(3) 0.0150(3) 0.1024(2)
C7 C -0.0894(3) 0.0232(3) 0.1875(3)
H2 H -0.0984 -0.0238 0.2440
C8 C -0.0101(3) 0.1014(3) 0.1883(2)
C9 C 0.0020(3) 0.1723(3) 0.1033(3)
H3 H 0.0529 0.2261 0.1040
C10 C 0.1897(3) 0.5459(3) -0.1623(3)
C11 C 0.4729(3) 0.8273(3) -0.1485(3)
C12 C 0.1976(3) 0.8422(3) -0.4369(3)
C13 C 0.2386(3) 0.6468(3) -0.2061(3)
C14 C 0.3282(3) 0.6896(3) -0.1585(2)
H4 H 0.3560 0.6571 -0.0977
C15 C 0.3767(3) 0.7807(3) -0.2009(2)
C16 C 0.3344(3) 0.8306(3) -0.2908(3)
H5 H 0.3660 0.8922 -0.3186
C17 C 0.2443(3) 0.7882(2) -0.3394(2)
C18 C 0.1978(3) 0.6963(3) -0.2972(3)
H6 H 0.1386 0.6674 -0.3301
C19 C 0.5962(3) 0.6415(3) 0.2207(3)
H7 H 0.6651 0.6624 0.2466
C20 C 0.4469(4) 0.6337(4) 0.1295(4)
H8 H 0.3922 0.6497 0.0785
C21 C 0.4443(4) 0.5521(4) 0.2000(3)
H9 H 0.3882 0.5022 0.2073
C22 C 0.3761(3) 0.2187(3) 0.4342(3)
H10 H 0.3619 0.2427 0.3677
C23 C 0.3647(4) 0.1358(3) 0.5785(3)
H11 H 0.3397 0.0901 0.6316
C24 C 0.4525(4) 0.2003(3) 0.5820(3)
H12 H 0.4990 0.2071 0.6368
C25 C 0.8363(3) 0.4000(3) 0.6267(3)
H13 H 0.8161 0.3311 0.6452
C26 C 0.9178(4) 0.5458(4) 0.6227(3)
H14 H 0.9662 0.5974 0.6385
C27 C 0.8387(4) 0.5580(3) 0.5484(3)
H15 H 0.8226 0.6184 0.5043
C28 C 0.5721(3) 0.4876(3) 0.3464(2)
C29 C 0.5041(3) 0.4037(3) 0.3738(2)
H16 H 0.4408 0.3910 0.3349
C30 C 0.5320(3) 0.3391(3) 0.4598(2)
C31 C 0.6255(3) 0.3568(3) 0.5194(2)
H17 H 0.6431 0.3131 0.5775
C32 C 0.6919(3) 0.4417(3) 0.4897(2)
C33 C 0.6669(3) 0.5075(3) 0.4038(2)
H18 H 0.7125 0.5640 0.3847
O1 O 0.0357(2) 0.2985(2) -0.07697(19)
O2 O -0.1175(3) 0.2411(3) -0.1445(2)
O3 O -0.3045(2) -0.06677(19) 0.02449(18)
O4 O -0.2574(2) -0.1313(2) 0.17750(19)
O5 O 0.0593(2) 0.0367(2) 0.35033(18)
O6 O 0.1201(3) 0.1881(2) 0.2854(2)
O7 O 0.1297(3) 0.4996(2) -0.2219(2)
O8 O 0.2141(3) 0.5113(2) -0.07516(19)
O9 O 0.5028(3) 0.7798(2) -0.0660(2)
O10 O 0.5161(3) 0.9082(2) -0.1888(2)
O11 O 0.2259(3) 0.9360(2) -0.4575(2)
O12 O 0.1371(2) 0.7916(2) -0.4881(2)
O13 O -0.1136(3) 0.4955(3) -0.1200(2)
H19 H -0.1711 0.5204 -0.1573
H20 H -0.1402 0.4587 -0.0695
O14 O 0.1232(2) 0.2799(2) -0.2916(2)
H21 H 0.1248 0.2177 -0.2613
H22 H 0.0938 0.2794 -0.3492
O15 O 0.3205(3) -0.0019(3) 0.3335(2)
H23 H 0.2954 -0.0550 0.3085
H24 H 0.3301 0.0474 0.2874
O16 O 0.0687(2) 0.1263(2) 0.55739(19)
H25 H 0.0074 0.0917 0.5647
H26 H 0.0476 0.1913 0.5386
O17 O 0.7453(2) 0.7000(2) 0.00460(19)
H27 H 0.8050 0.7070 0.0399
H28 H 0.7257 0.6364 0.0148
O18 O 0.4465(2) 0.9174(2) 0.0983(2)
H29 H 0.4223 0.9613 0.0499
H30 H 0.4693 0.9515 0.1451
Zn1_2 Zn 1.00984(4) 0.39552(3) 0.79757(3)
Zn2_2 Zn 0.19231(4) 1.05596(3) -0.55876(3)
Zn3_2 Zn -0.40322(4) -0.18948(3) 0.04655(3)
N5_2 N -0.0838(3) 0.4459(2) -0.3283(2)
O3_2 O 0.6955(2) 0.93323(19) 0.02449(18)
O11_2 O 0.2259(3) -0.0640(2) 0.5425(2)
O19 O 0.2737(3) 0.3356(2) 0.2075(2)
H31 H 0.2265 0.2906 0.2316
H32 H 0.3388 0.3026 0.1888
O20 O 0.2989(4) -0.1873(3) 0.2541(3)
H33 H 0.3562 -0.1990 0.2125
H34 H 0.2330 -0.1833 0.2241
loop_
_geom_bond_atom_site_label_1
_geom_bond_atom_site_label_2
_geom_bond_site_symmetry_1
_geom_bond_site_symmetry_2
Zn1 O1 1_555 1_555
Zn2 N3 1_555 1_555
Zn3 N1 1_555 1_555
N1 C19 1_555 1_555
N2 C19 1_555 1_555
N3 C22 1_555 1_555
N4 C22 1_555 1_555
N5 C25 1_555 1_555
N6 C25 1_555 1_555
C1 C4 1_555 1_555
C2 C6 1_555 1_555
C3 C8 1_555 1_555
C4 C5 1_555 1_555
C5 H1 1_555 1_555
C6 C5 1_555 1_555
C7 C6 1_555 1_555
H2 C7 1_555 1_555
C8 C7 1_555 1_555
C9 C4 1_555 1_555
H3 C9 1_555 1_555
C10 C13 1_555 1_555
C11 C15 1_555 1_555
C12 C17 1_555 1_555
C13 C14 1_555 1_555
C14 H4 1_555 1_555
C15 C14 1_555 1_555
C16 C15 1_555 1_555
H5 C16 1_555 1_555
C17 C16 1_555 1_555
C18 C13 1_555 1_555
H6 C18 1_555 1_555
C19 H7 1_555 1_555
C20 N1 1_555 1_555
H8 C20 1_555 1_555
C21 N2 1_555 1_555
H9 C21 1_555 1_555
C22 H10 1_555 1_555
C23 N3 1_555 1_555
H11 C23 1_555 1_555
C24 N4 1_555 1_555
H12 C24 1_555 1_555
C25 H13 1_555 1_555
C26 N5 1_555 1_555
H14 C26 1_555 1_555
C27 N6 1_555 1_555
H15 C27 1_555 1_555
C28 N2 1_555 1_555
C29 C28 1_555 1_555
H16 C29 1_555 1_555
C30 N4 1_555 1_555
C31 C30 1_555 1_555
H17 C31 1_555 1_555
C32 N6 1_555 1_555
C33 C28 1_555 1_555
H18 C33 1_555 1_555
O1 C1 1_555 1_555
O2 C1 1_555 1_555
O3 C2 1_555 1_555
O4 C2 1_555 1_555
O5 Zn2 1_555 1_555
O6 C3 1_555 1_555
O7 Zn1 1_555 1_555
O8 C10 1_555 1_555
O9 Zn3 1_555 1_555
O10 C11 1_555 1_555
O11 C12 1_555 1_555
O12 C12 1_555 1_555
O13 Zn1 1_555 1_555
H19 O13 1_555 1_555
H20 O13 1_555 1_555
O14 Zn1 1_555 1_555
H21 O14 1_555 1_555
H22 O14 1_555 1_555
O15 Zn2 1_555 1_555
H23 O15 1_555 1_555
H24 O15 1_555 1_555
O16 Zn2 1_555 1_555
H25 O16 1_555 1_555
H26 O16 1_555 1_555
O17 Zn3 1_555 1_555
H27 O17 1_555 1_555
H28 O17 1_555 1_555
O18 Zn3 1_555 1_555
H29 O18 1_555 1_555
H30 O18 1_555 1_555
O19 H31 1_555 1_555
H32 O19 1_555 1_555
O20 H33 1_555 1_555
H34 O20 1_555 1_555
Zn1_2 N5 1_555 1_555
Zn2_2 O11 1_555 1_555
Zn3_2 O3 1_555 1_555
N5_2 Zn1 1_555 1_555
O3_2 Zn3 1_555 1_555
O11_2 Zn2 1_555 1_555
C3 O5 1_555 1_555
C8 C9 1_555 1_555
C10 O7 1_555 1_555
C11 O9 1_555 1_555
C17 C18 1_555 1_555
C20 C21 1_555 1_555
C23 C24 1_555 1_555
C26 C27 1_555 1_555
C29 C30 1_555 1_555
C31 C32 1_555 1_555
C32 C33 1_555 1_555

#END
