
#######################################################################
#
#                 Cambridge Crystallographic Data Centre
#                                CCDC 
#
#######################################################################
#
# If this CIF has been generated from an entry in the Cambridge 
# Structural Database, then it will include bibliographic, chemical, 
# crystal, experimental, refinement or atomic coordinate data resulting 
# from the CCDC's data processing and validation procedures.
#
#######################################################################

data_RERLAD
_symmetry_cell_setting           triclinic
_symmetry_space_group_name_H-M   'P -1'
_symmetry_Int_Tables_number      2
_space_group_name_Hall           '-P 1'
loop_
_symmetry_equiv_pos_site_id
_symmetry_equiv_pos_as_xyz
1 x,y,z
2 -x,-y,-z
_cell_length_a                   7.3996(6)
_cell_length_b                   11.4771(8)
_cell_length_c                   17.6651(13)
_cell_angle_alpha                94.1000(10)
_cell_angle_beta                 100.7740(10)
_cell_angle_gamma                97.8070(10)
_cell_volume                     1452.87
loop_
_atom_site_label
_atom_site_type_symbol
_atom_site_fract_x
_atom_site_fract_y
_atom_site_fract_z
Zn1 Zn 0.19641(6) 0.46062(4) 0.46390(2)
Zn2 Zn 0.85127(6) 0.16337(3) 0.03168(2)
N1 N 0.2128(4) 0.5146(3) 0.35941(17)
N2 N 0.3390(4) 0.5891(3) 0.26773(17)
N3 N 0.7622(4) 1.0663(3) 0.11134(18)
N4 N 0.6857(4) 0.9026(3) 0.16120(18)
N5 N 0.7896(4) 0.3269(3) 0.03821(18)
N6 N 0.7210(4) 0.4959(2) 0.08180(18)
O1 O 0.3447(3) 0.3270(2) 0.48121(16)
O2 O 0.6161(3) 0.4174(2) 0.46338(14)
O3 O 1.0087(4) 0.3901(2) 0.52010(18)
O4 O 0.9182(4) 0.2837(3) 0.40762(18)
O5 O 0.5884(5) -0.2420(3) 0.9055(2)
O6 O 0.8801(4) -0.1963(3) 0.95797(16)
O7 O 0.7623(4) 0.0435(2) 0.94455(15)
O8 O 0.8610(4) 0.1774(2) 0.87166(15)
O9 O 0.8510(4) -0.0387(2) 0.61526(15)
C1 C 0.3620(5) 0.5270(3) 0.3292(2)
H1 H 0.4701 0.4966 0.3480
C2 C 0.0864(6) 0.5726(4) 0.3149(2)
H2 H -0.0331 0.5785 0.3226
C3 C 0.1639(6) 0.6194(4) 0.2586(2)
H3 H 0.1093 0.6635 0.2210
C4 C 0.7229(5) 0.9508(3) 0.0978(2)
H4 H 0.7211 0.9083 0.0508
C5 C 0.7492(6) 1.0935(3) 0.1864(2)
H5 H 0.7705 1.1694 0.2117
C6 C 0.7011(6) 0.9943(3) 0.2182(2)
H6 H 0.6819 0.9884 0.2685
C7 C 0.7502(5) 0.3860(3) 0.0980(2)
H7 H 0.7433 0.3561 0.1452
C8 C 0.7847(6) 0.4028(3) -0.0192(2)
H8 H 0.8081 0.3848 -0.0683
C9 C 0.7415(6) 0.5061(3) 0.0063(2)
H9 H 0.7280 0.5715 -0.0212
C10 C 0.4718(5) 0.6248(3) 0.2214(2)
C11 C 0.5197(5) 0.7441(3) 0.2163(2)
H10 H 0.4726 0.7996 0.2450
C12 C 0.6387(5) 0.7797(3) 0.1679(2)
C13 C 0.7114(5) 0.6992(3) 0.1253(2)
H11 H 0.7936 0.7244 0.0938
C14 C 0.6593(5) 0.5799(3) 0.1305(2)
C15 C 0.5405(5) 0.5417(3) 0.1787(2)
H12 H 0.5077 0.4615 0.1824
C16 C 0.5171(5) 0.3337(3) 0.4858(2)
C17 C 0.9088(5) 0.3036(4) 0.4757(3)
C18 C 0.7443(6) -0.1953(3) 0.9036(2)
C19 C 0.8085(5) 0.0743(3) 0.8822(2)
C20 C 0.6059(5) 0.2354(3) 0.5197(2)
C21 C 0.7872(5) 0.2204(3) 0.5138(2)
C22 C 0.8651(5) 0.1281(3) 0.5464(2)
H13 H 0.9849 0.1173 0.5415
C23 C 0.7656(5) 0.0521(3) 0.5860(2)
C24 C 0.5858(5) 0.0648(3) 0.5920(2)
H14 H 0.5185 0.0128 0.6183
C25 C 0.5077(5) 0.1552(3) 0.5585(2)
H15 H 0.3860 0.1632 0.5618
C26 C 0.7766(5) -0.1431(3) 0.8300(2)
C27 C 0.8005(5) -0.0232(3) 0.8195(2)
C28 C 0.8233(5) 0.0106(3) 0.7471(2)
H16 H 0.8409 0.0905 0.7398
C29 C 0.8203(5) -0.0718(3) 0.6864(2)
C30 C 0.8016(6) -0.1896(3) 0.6964(2)
H17 H 0.8023 -0.2456 0.6557
C31 C 0.7816(6) -0.2238(3) 0.7685(2)
H18 H 0.7712 -0.3037 0.7758
Zn1_2 Zn 1.19641(6) 0.46062(4) 0.46390(2)
Zn1A Zn 0.80359(6) 0.53938(4) 0.53610(2)
Zn2_2 Zn 0.85127(6) 0.16337(3) 1.03168(2)
Zn2_3 Zn 0.85127(6) 1.16337(3) 0.03168(2)
Zn2A Zn 1.14873(6) -0.16337(3) 0.96832(2)
N3_2 N 0.7622(4) 0.0663(3) 0.11134(18)
O2A O 0.3839(3) 0.5826(2) 0.53662(14)
O3_2 O 0.0087(4) 0.3901(2) 0.52010(18)
O3A O -0.0087(4) 0.6099(2) 0.47990(18)
O6A O 1.1199(4) 0.1963(3) 0.04203(16)
O7_2 O 0.7623(4) 0.0435(2) -0.05545(15)
O10 O 0.6770(6) 0.3391(4) 0.2809(2)
H19 H 0.5678 0.3044 0.2807
H20 H 0.6777 0.4134 0.2839
loop_
_geom_bond_atom_site_label_1
_geom_bond_atom_site_label_2
_geom_bond_site_symmetry_1
_geom_bond_site_symmetry_2
Zn1 N1 1_555 1_555
Zn2 N5 1_555 1_555
N1 C1 1_555 1_555
N2 C1 1_555 1_555
N3 C4 1_555 1_555
N4 C4 1_555 1_555
N5 C7 1_555 1_555
N6 C7 1_555 1_555
O1 Zn1 1_555 1_555
O2 C16 1_555 1_555
O3 C17 1_555 1_555
O4 C17 1_555 1_555
O5 C18 1_555 1_555
O6 C18 1_555 1_555
O7 C19 1_555 1_555
O8 C19 1_555 1_555
O9 C23 1_555 1_555
C1 H1 1_555 1_555
C2 N1 1_555 1_555
H2 C2 1_555 1_555
C3 N2 1_555 1_555
H3 C3 1_555 1_555
C4 H4 1_555 1_555
C5 N3 1_555 1_555
H5 C5 1_555 1_555
C6 N4 1_555 1_555
H6 C6 1_555 1_555
C7 H7 1_555 1_555
C8 N5 1_555 1_555
H8 C8 1_555 1_555
C9 N6 1_555 1_555
H9 C9 1_555 1_555
C10 N2 1_555 1_555
C11 C10 1_555 1_555
H10 C11 1_555 1_555
C12 N4 1_555 1_555
C13 C12 1_555 1_555
H11 C13 1_555 1_555
C14 N6 1_555 1_555
C15 C10 1_555 1_555
H12 C15 1_555 1_555
C16 O1 1_555 1_555
C17 C21 1_555 1_555
C18 C26 1_555 1_555
C19 C27 1_555 1_555
C20 C16 1_555 1_555
C21 C20 1_555 1_555
C22 C21 1_555 1_555
H13 C22 1_555 1_555
C23 C22 1_555 1_555
C24 C23 1_555 1_555
H14 C24 1_555 1_555
C25 C20 1_555 1_555
H15 C25 1_555 1_555
C26 C27 1_555 1_555
C27 C28 1_555 1_555
C28 H16 1_555 1_555
C29 O9 1_555 1_555
C30 C29 1_555 1_555
H17 C30 1_555 1_555
C31 C26 1_555 1_555
H18 C31 1_555 1_555
O10 H19 1_555 1_555
H20 O10 1_555 1_555
Zn1_2 O3 1_555 1_555
Zn1A O2 1_555 1_555
Zn2_2 O7 1_555 1_555
Zn2_3 N3 1_555 1_555
Zn2A O6 1_555 1_555
N3_2 Zn2 1_555 1_555
O2A Zn1 1_555 1_555
O3_2 Zn1 1_555 1_555
O3A Zn1 1_555 1_555
O6A Zn2 1_555 1_555
O7_2 Zn2 1_555 1_555
O3 Zn1A 1_555 1_555
C2 C3 1_555 1_555
C5 C6 1_555 1_555
C8 C9 1_555 1_555
C11 C12 1_555 1_555
C13 C14 1_555 1_555
C14 C15 1_555 1_555
C24 C25 1_555 1_555
C28 C29 1_555 1_555
C30 C31 1_555 1_555

#END
