
#######################################################################
#
#                 Cambridge Crystallographic Data Centre
#                                CCDC 
#
#######################################################################
#
# If this CIF has been generated from an entry in the Cambridge 
# Structural Database, then it will include bibliographic, chemical, 
# crystal, experimental, refinement or atomic coordinate data resulting 
# from the CCDC's data processing and validation procedures.
#
#######################################################################

data_RERNOT
_symmetry_cell_setting           triclinic
_symmetry_space_group_name_H-M   'P -1'
_symmetry_Int_Tables_number      2
_space_group_name_Hall           '-P 1'
loop_
_symmetry_equiv_pos_site_id
_symmetry_equiv_pos_as_xyz
1 x,y,z
2 -x,-y,-z
_cell_length_a                   9.3841(5)
_cell_length_b                   14.0180(8)
_cell_length_c                   16.2721(9)
_cell_angle_alpha                71.0800(10)
_cell_angle_beta                 76.2440(10)
_cell_angle_gamma                72.1510(10)
_cell_volume                     1904.52
loop_
_atom_site_label
_atom_site_type_symbol
_atom_site_fract_x
_atom_site_fract_y
_atom_site_fract_z
Gd1 Gd 0.239782(15) 0.981452(11) 0.477253(9)
O1 O -0.0357(2) 1.04645(18) 0.41231(14)
O2 O 0.1854(2) 1.03044(19) 0.32768(15)
O3 O -0.1819(5) 1.1204(3) -0.0222(2)
O4 O -0.3501(4) 1.2398(3) 0.0261(2)
O5 O 0.2307(3) 0.82978(18) 0.45727(16)
O6 O 0.0599(3) 0.7957(2) 0.40360(17)
O7 O 0.7801(4) 0.5766(4) 0.1813(3)
O8 O 0.6279(4) 0.6227(4) 0.0897(2)
O9 O 0.4617(2) 1.02167(18) 0.39189(14)
O10 O 0.7034(2) 0.96106(17) 0.41377(14)
O11 O 0.6776(5) 0.8871(4) 0.0001(2)
O12 O 0.8786(5) 0.7825(3) 0.0451(2)
O13 O 0.4348(3) 0.8463(2) 0.5481(2)
H1 H 0.479(5) 0.871(3) 0.571(3)
H2 H 0.465(5) 0.7832(16) 0.554(3)
O14 O 0.1398(3) 1.16575(19) 0.45367(17)
H3 H 0.081(4) 1.171(3) 0.4989(14)
H4 H 0.108(4) 1.204(3) 0.4079(14)
N1 N -0.2378(4) 1.1674(3) 0.0329(2)
N2 N 0.6572(4) 0.6198(3) 0.1586(2)
N3 N 0.7606(5) 0.8473(3) 0.0544(2)
C1 C 0.0441(3) 1.0507(2) 0.3372(2)
C2 C -0.0312(3) 1.0811(2) 0.25816(19)
C3 C 0.0409(4) 1.0391(3) 0.1886(2)
H5 H 0.1359 0.9928 0.1914
C4 C -0.0272(4) 1.0654(3) 0.1150(2)
H6 H 0.0193 1.0356 0.0689
C5 C -0.1662(4) 1.1372(3) 0.1118(2)
C6 C -0.2389(4) 1.1811(3) 0.1795(2)
H7 H -0.3319 1.2299 0.1755
C7 C -0.1714(4) 1.1516(3) 0.2537(2)
H8 H -0.2204 1.1792 0.3008
C8 C 0.1909(4) 0.7976(3) 0.4032(2)
C9 C 0.3152(4) 0.7577(2) 0.3359(2)
C10 C 0.4652(4) 0.7222(3) 0.3511(2)
H9 H 0.4895 0.7281 0.4011
C11 C 0.5774(4) 0.6785(3) 0.2927(2)
H10 H 0.6771 0.6532 0.3033
C12 C 0.5385(4) 0.6730(3) 0.2183(2)
C13 C 0.3934(4) 0.7114(3) 0.1987(2)
H11 H 0.3714 0.7097 0.1465
C14 C 0.2809(4) 0.7528(3) 0.2593(2)
H12 H 0.1813 0.7775 0.2484
C15 C 0.5999(3) 0.9767(2) 0.3705(2)
C16 C 0.6410(3) 0.9415(2) 0.28819(19)
C17 C 0.5386(4) 0.9748(3) 0.2293(2)
H13 H 0.4430 1.0171 0.2421
C18 C 0.5777(4) 0.9455(3) 0.1520(2)
H14 H 0.5106 0.9688 0.1117
C19 C 0.7190(4) 0.8808(3) 0.1363(2)
C20 C 0.8224(4) 0.8447(3) 0.1938(2)
H15 H 0.9160 0.7998 0.1818
C21 C 0.7835(3) 0.8769(3) 0.2701(2)
H16 H 0.8525 0.8553 0.3091
Gd1A Gd -0.239782(15) 1.018548(11) 0.522747(9)
Gd1A_2 Gd 0.760218(15) 1.018548(11) 0.522747(9)
O1A O 0.0357(2) 0.95355(18) 0.58769(14)
O10A O 0.2966(2) 1.03894(17) 0.58623(14)
O15 O 1.0134(3) 0.2896(2) 0.30478(17)
O16 O 1.1544(5) 0.6007(3) 0.2027(3)
N4 N 0.7664(5) 0.5596(3) 0.4888(2)
N5 N 1.0752(3) 0.3637(2) 0.25741(19)
N6 N 1.1443(4) 0.5099(3) 0.2095(2)
C22 C 0.7617(5) 0.4746(3) 0.4703(3)
H17 H 0.6894 0.4393 0.5049
C23 C 0.8562(5) 0.4357(3) 0.4037(3)
H18 H 0.8475 0.3759 0.3942
C24 C 0.9651(4) 0.4871(3) 0.3507(2)
C25 C 0.9722(5) 0.5749(3) 0.3705(3)
H19 H 1.0441 0.6114 0.3377
C26 C 0.8722(5) 0.6073(3) 0.4388(3)
H20 H 0.8791 0.6661 0.4507
C27 C 1.0609(4) 0.4531(3) 0.2757(2)
C28 C 1.1798(5) 0.3529(3) 0.1741(3)
C29 C 1.2191(5) 0.4590(3) 0.1371(3)
C30 C 1.0924(10) 0.3313(7) 0.1184(4)
H21 H 1.0822 0.2610 0.1420
H22 H 1.1456 0.3404 0.0593
H23 H 0.9937 0.3786 0.1184
C31 C 1.3111(7) 0.2612(4) 0.2018(7)
H24 H 1.2739 0.2006 0.2334
H25 H 1.3619 0.2765 0.2389
H26 H 1.3809 0.2483 0.1505
C32 C 1.1445(8) 0.5299(4) 0.0573(4)
H27 H 1.0377 0.5345 0.0702
H28 H 1.1881 0.5017 0.0078
H29 H 1.1607 0.5981 0.0436
C33 C 1.3863(5) 0.4550(5) 0.1172(4)
H30 H 1.4299 0.4223 0.1704
H31 H 1.3997 0.5245 0.0934
H32 H 1.4356 0.4156 0.0753
O17 O 0.5337(6) 0.6456(3) 0.5962(3)
H33 H 0.6049 0.6149 0.5664
C34 C 0.4874(9) 0.5797(6) 0.6650(5)
H34 H 0.4214 0.6159 0.7063
H35 H 0.5728 0.5320 0.6914
H36 H 0.4334 0.5419 0.6491
loop_
_geom_bond_atom_site_label_1
_geom_bond_atom_site_label_2
_geom_bond_site_symmetry_1
_geom_bond_site_symmetry_2
Gd1 O1 1_555 1_555
O1 C1 1_555 1_555
O2 Gd1 1_555 1_555
O3 N1 1_555 1_555
O4 N1 1_555 1_555
O5 Gd1 1_555 1_555
O6 C8 1_555 1_555
O7 N2 1_555 1_555
O8 N2 1_555 1_555
O9 Gd1 1_555 1_555
O10 C15 1_555 1_555
O11 N3 1_555 1_555
O12 N3 1_555 1_555
O13 Gd1 1_555 1_555
H1 O13 1_555 1_555
H2 O13 1_555 1_555
O14 Gd1 1_555 1_555
H3 O14 1_555 1_555
H4 O14 1_555 1_555
N1 C5 1_555 1_555
N2 C12 1_555 1_555
N3 C19 1_555 1_555
C1 O2 1_555 1_555
C2 C1 1_555 1_555
C3 C2 1_555 1_555
H5 C3 1_555 1_555
C4 C3 1_555 1_555
H6 C4 1_555 1_555
C5 C4 1_555 1_555
C6 C5 1_555 1_555
H7 C6 1_555 1_555
C7 C2 1_555 1_555
H8 C7 1_555 1_555
C8 O5 1_555 1_555
C9 C8 1_555 1_555
C10 C9 1_555 1_555
H9 C10 1_555 1_555
C11 C10 1_555 1_555
H10 C11 1_555 1_555
C12 C11 1_555 1_555
C13 C12 1_555 1_555
H11 C13 1_555 1_555
C14 C9 1_555 1_555
H12 C14 1_555 1_555
C15 O9 1_555 1_555
C16 C15 1_555 1_555
C17 C16 1_555 1_555
H13 C17 1_555 1_555
C18 C17 1_555 1_555
H14 C18 1_555 1_555
C19 C18 1_555 1_555
C20 C19 1_555 1_555
H15 C20 1_555 1_555
C21 C16 1_555 1_555
H16 C21 1_555 1_555
O15 N5 1_555 1_555
O16 N6 1_555 1_555
N4 C22 1_555 1_555
N5 C27 1_555 1_555
N6 C27 1_555 1_555
C22 H17 1_555 1_555
C23 C22 1_555 1_555
H18 C23 1_555 1_555
C24 C23 1_555 1_555
C25 C24 1_555 1_555
H19 C25 1_555 1_555
C26 N4 1_555 1_555
H20 C26 1_555 1_555
C27 C24 1_555 1_555
C28 N5 1_555 1_555
C29 N6 1_555 1_555
C30 C28 1_555 1_555
H21 C30 1_555 1_555
H22 C30 1_555 1_555
H23 C30 1_555 1_555
C31 C28 1_555 1_555
H24 C31 1_555 1_555
H25 C31 1_555 1_555
H26 C31 1_555 1_555
C32 C29 1_555 1_555
H27 C32 1_555 1_555
H28 C32 1_555 1_555
H29 C32 1_555 1_555
C33 C29 1_555 1_555
H30 C33 1_555 1_555
H31 C33 1_555 1_555
H32 C33 1_555 1_555
O17 H33 1_555 1_555
C34 O17 1_555 1_555
H34 C34 1_555 1_555
H35 C34 1_555 1_555
H36 C34 1_555 1_555
Gd1A O1 1_555 1_555
Gd1A_2 O10 1_555 1_555
O1A Gd1 1_555 1_555
O10A Gd1 1_555 1_555
C6 C7 1_555 1_555
C13 C14 1_555 1_555
C20 C21 1_555 1_555
C25 C26 1_555 1_555
C28 C29 1_555 1_555
Gd1A O1A 1_555 1_555

#END
