
#######################################################################
#
#                 Cambridge Crystallographic Data Centre
#                                CCDC 
#
#######################################################################
#
# If this CIF has been generated from an entry in the Cambridge 
# Structural Database, then it will include bibliographic, chemical, 
# crystal, experimental, refinement or atomic coordinate data resulting 
# from the CCDC's data processing and validation procedures.
#
#######################################################################

data_RERNIN
_symmetry_cell_setting           triclinic
_symmetry_space_group_name_H-M   'P -1'
_symmetry_Int_Tables_number      2
_space_group_name_Hall           '-P 1'
loop_
_symmetry_equiv_pos_site_id
_symmetry_equiv_pos_as_xyz
1 x,y,z
2 -x,-y,-z
_cell_length_a                   9.3724(6)
_cell_length_b                   14.0342(10)
_cell_length_c                   16.2958(11)
_cell_angle_alpha                71.0920(10)
_cell_angle_beta                 76.3130(10)
_cell_angle_gamma                72.1170(10)
_cell_volume                     1907.31
loop_
_atom_site_label
_atom_site_type_symbol
_atom_site_fract_x
_atom_site_fract_y
_atom_site_fract_z
Tb1 Tb 0.241145(18) 0.980896(13) 0.477614(11)
O1 O -0.0395(3) 1.0470(2) 0.41335(16)
O2 O 0.1830(3) 1.0304(2) 0.33031(16)
O3 O -0.1793(5) 1.1196(4) -0.0222(3)
O4 O -0.3490(5) 1.2399(4) 0.0252(3)
O5 O 0.2327(3) 0.8308(2) 0.45666(18)
O6 O 0.0605(3) 0.7965(2) 0.40361(19)
O7 O 0.7796(5) 0.5761(4) 0.1817(3)
O8 O 0.6278(4) 0.6229(4) 0.0898(3)
O9 O 0.4604(3) 1.0220(2) 0.39217(15)
O10 O 0.7025(3) 0.9620(2) 0.41405(16)
O11 O 0.6770(5) 0.8877(4) 0.0004(3)
O12 O 0.8773(5) 0.7826(3) 0.0459(2)
O13 O 0.4359(3) 0.8468(2) 0.5477(2)
H1 H 0.482(5) 0.870(3) 0.570(3)
H2 H 0.462(5) 0.7844(16) 0.553(3)
O14 O 0.1406(3) 1.1633(2) 0.45408(18)
H3 H 0.086(4) 1.169(3) 0.5008(14)
H4 H 0.107(4) 1.201(3) 0.4098(15)
N1 N -0.2365(5) 1.1679(4) 0.0323(3)
N2 N 0.6570(5) 0.6204(3) 0.1587(3)
N3 N 0.7596(5) 0.8478(4) 0.0547(3)
C1 C 0.0418(4) 1.0515(3) 0.3383(2)
C2 C -0.0323(4) 1.0818(3) 0.2588(2)
C3 C 0.0411(4) 1.0395(3) 0.1895(2)
H5 H 0.1364 0.9934 0.1925
C4 C -0.0270(5) 1.0658(3) 0.1161(3)
H6 H 0.0199 1.0356 0.0703
C5 C -0.1651(5) 1.1371(3) 0.1117(3)
C6 C -0.2388(5) 1.1819(3) 0.1791(3)
H7 H -0.3311 1.2314 0.1744
C7 C -0.1725(4) 1.1518(3) 0.2540(3)
H8 H -0.2226 1.1788 0.3012
C8 C 0.1918(4) 0.7986(3) 0.4028(2)
C9 C 0.3159(4) 0.7580(3) 0.3358(2)
C10 C 0.4651(4) 0.7225(3) 0.3514(3)
H9 H 0.4895 0.7285 0.4013
C11 C 0.5778(4) 0.6782(3) 0.2928(3)
H10 H 0.6775 0.6522 0.3035
C12 C 0.5382(4) 0.6737(3) 0.2181(3)
C13 C 0.3936(5) 0.7123(3) 0.1984(3)
H11 H 0.3716 0.7113 0.1461
C14 C 0.2812(4) 0.7530(3) 0.2593(3)
H12 H 0.1812 0.7772 0.2488
C15 C 0.5991(4) 0.9773(3) 0.3709(2)
C16 C 0.6407(4) 0.9421(3) 0.2884(2)
C17 C 0.5380(4) 0.9749(3) 0.2296(2)
H13 H 0.4422 1.0170 0.2423
C18 C 0.5767(5) 0.9456(3) 0.1527(3)
H14 H 0.5091 0.9686 0.1127
C19 C 0.7184(5) 0.8814(3) 0.1367(3)
C20 C 0.8219(5) 0.8454(3) 0.1940(3)
H15 H 0.9156 0.8006 0.1819
C21 C 0.7837(4) 0.8773(3) 0.2703(2)
H16 H 0.8530 0.8556 0.3092
Tb1A Tb -0.241145(18) 1.019104(13) 0.522386(11)
Tb1A_2 Tb 0.758855(18) 1.019104(13) 0.522386(11)
O1A O 0.0395(3) 0.9530(2) 0.58665(16)
O10A O 0.2975(3) 1.0380(2) 0.58595(16)
O15 O 1.0139(4) 0.2895(2) 0.30491(19)
O16 O 1.1552(5) 0.6003(3) 0.2025(3)
N4 N 0.7676(5) 0.5601(3) 0.4882(3)
N5 N 1.0767(4) 0.3636(3) 0.2572(2)
N6 N 1.1445(4) 0.5097(3) 0.2098(3)
C22 C 0.7630(6) 0.4746(4) 0.4711(3)
H17 H 0.6914 0.4392 0.5064
C23 C 0.8580(5) 0.4349(3) 0.4042(3)
H18 H 0.8497 0.3747 0.3953
C24 C 0.9663(5) 0.4867(3) 0.3505(3)
C25 C 0.9733(5) 0.5752(3) 0.3696(3)
H19 H 1.0445 0.6121 0.3365
C26 C 0.8728(6) 0.6072(4) 0.4384(3)
H20 H 0.8799 0.6659 0.4505
C27 C 1.0627(4) 0.4524(3) 0.2756(3)
C28 C 1.1798(5) 0.3518(4) 0.1745(3)
C29 C 1.2198(5) 0.4583(4) 0.1371(3)
C30 C 1.0916(11) 0.3304(7) 0.1189(4)
H21 H 1.0761 0.2617 0.1444
H22 H 1.1473 0.3355 0.0607
H23 H 0.9951 0.3805 0.1162
C31 C 1.3121(8) 0.2611(5) 0.2008(7)
H24 H 1.2771 0.1989 0.2281
H25 H 1.3586 0.2739 0.2414
H26 H 1.3851 0.2526 0.1496
C32 C 1.1451(8) 0.5297(5) 0.0579(4)
H27 H 1.0395 0.5306 0.0691
H28 H 1.1935 0.5048 0.0072
H29 H 1.1552 0.5989 0.0474
C33 C 1.3865(6) 0.4541(5) 0.1174(4)
H30 H 1.4303 0.4208 0.1704
H31 H 1.3998 0.5236 0.0943
H32 H 1.4356 0.4154 0.0751
O17 O 0.5342(6) 0.6464(3) 0.5962(3)
H33 H 0.6055 0.6163 0.5660
C34 C 0.4878(9) 0.5787(6) 0.6650(5)
H34 H 0.4463 0.6101 0.7126
H35 H 0.5716 0.5202 0.6811
H36 H 0.4110 0.5558 0.6522
loop_
_geom_bond_atom_site_label_1
_geom_bond_atom_site_label_2
_geom_bond_site_symmetry_1
_geom_bond_site_symmetry_2
Tb1 O1 1_555 1_555
O1 C1 1_555 1_555
O2 Tb1 1_555 1_555
O3 N1 1_555 1_555
O4 N1 1_555 1_555
O5 Tb1 1_555 1_555
O6 C8 1_555 1_555
O7 N2 1_555 1_555
O8 N2 1_555 1_555
O9 Tb1 1_555 1_555
O10 C15 1_555 1_555
O11 N3 1_555 1_555
O12 N3 1_555 1_555
O13 Tb1 1_555 1_555
H1 O13 1_555 1_555
H2 O13 1_555 1_555
O14 Tb1 1_555 1_555
H3 O14 1_555 1_555
H4 O14 1_555 1_555
N1 C5 1_555 1_555
N2 C12 1_555 1_555
N3 C19 1_555 1_555
C1 O2 1_555 1_555
C2 C1 1_555 1_555
C3 C2 1_555 1_555
H5 C3 1_555 1_555
C4 C3 1_555 1_555
H6 C4 1_555 1_555
C5 C4 1_555 1_555
C6 C5 1_555 1_555
H7 C6 1_555 1_555
C7 C2 1_555 1_555
H8 C7 1_555 1_555
C8 O5 1_555 1_555
C9 C8 1_555 1_555
C10 C9 1_555 1_555
H9 C10 1_555 1_555
C11 C10 1_555 1_555
H10 C11 1_555 1_555
C12 C11 1_555 1_555
C13 C12 1_555 1_555
H11 C13 1_555 1_555
C14 C9 1_555 1_555
H12 C14 1_555 1_555
C15 O9 1_555 1_555
C16 C15 1_555 1_555
C17 C16 1_555 1_555
H13 C17 1_555 1_555
C18 C17 1_555 1_555
H14 C18 1_555 1_555
C19 C18 1_555 1_555
C20 C19 1_555 1_555
H15 C20 1_555 1_555
C21 C16 1_555 1_555
H16 C21 1_555 1_555
O15 N5 1_555 1_555
O16 N6 1_555 1_555
N4 C22 1_555 1_555
N5 C27 1_555 1_555
N6 C27 1_555 1_555
C22 H17 1_555 1_555
C23 C22 1_555 1_555
H18 C23 1_555 1_555
C24 C23 1_555 1_555
C25 C24 1_555 1_555
H19 C25 1_555 1_555
C26 N4 1_555 1_555
H20 C26 1_555 1_555
C27 C24 1_555 1_555
C28 N5 1_555 1_555
C29 N6 1_555 1_555
C30 C28 1_555 1_555
H21 C30 1_555 1_555
H22 C30 1_555 1_555
H23 C30 1_555 1_555
C31 C28 1_555 1_555
H24 C31 1_555 1_555
H25 C31 1_555 1_555
H26 C31 1_555 1_555
C32 C29 1_555 1_555
H27 C32 1_555 1_555
H28 C32 1_555 1_555
H29 C32 1_555 1_555
C33 C29 1_555 1_555
H30 C33 1_555 1_555
H31 C33 1_555 1_555
H32 C33 1_555 1_555
O17 H33 1_555 1_555
C34 O17 1_555 1_555
H34 C34 1_555 1_555
H35 C34 1_555 1_555
H36 C34 1_555 1_555
Tb1A O1 1_555 1_555
Tb1A_2 O10 1_555 1_555
O1A Tb1 1_555 1_555
O10A Tb1 1_555 1_555
C6 C7 1_555 1_555
C13 C14 1_555 1_555
C20 C21 1_555 1_555
C25 C26 1_555 1_555
C28 C29 1_555 1_555
Tb1A O1A 1_555 1_555

#END
