
#######################################################################
#
#                 Cambridge Crystallographic Data Centre
#                                CCDC 
#
#######################################################################
#
# If this CIF has been generated from an entry in the Cambridge 
# Structural Database, then it will include bibliographic, chemical, 
# crystal, experimental, refinement or atomic coordinate data resulting 
# from the CCDC's data processing and validation procedures.
#
#######################################################################

data_RERNEJ
_symmetry_cell_setting           triclinic
_symmetry_space_group_name_H-M   'P -1'
_symmetry_Int_Tables_number      2
_space_group_name_Hall           '-P 1'
loop_
_symmetry_equiv_pos_site_id
_symmetry_equiv_pos_as_xyz
1 x,y,z
2 -x,-y,-z
_cell_length_a                   9.3662(5)
_cell_length_b                   14.0162(8)
_cell_length_c                   16.3114(9)
_cell_angle_alpha                70.8840(10)
_cell_angle_beta                 76.5710(10)
_cell_angle_gamma                72.0190(10)
_cell_volume                     1903.84
loop_
_atom_site_label
_atom_site_type_symbol
_atom_site_fract_x
_atom_site_fract_y
_atom_site_fract_z
Yb1 Yb 0.248792(14) 0.977956(11) 0.479086(9)
O1 O -0.0597(3) 1.0544(2) 0.41547(15)
O2 O 0.1707(2) 1.03078(18) 0.34097(15)
O3 O -0.1670(5) 1.1202(3) -0.0241(2)
O4 O -0.3416(4) 1.2387(3) 0.0210(2)
O5 O 0.2423(3) 0.83256(18) 0.45543(16)
O6 O 0.0652(3) 0.8029(2) 0.40312(17)
O7 O 0.7770(4) 0.5715(4) 0.1816(3)
O8 O 0.6244(4) 0.6243(3) 0.0886(2)
O9 O 0.4553(2) 1.02298(18) 0.39251(14)
O10 O 0.6975(2) 0.96593(18) 0.41369(14)
O11 O 0.6737(5) 0.8901(4) 0.0011(2)
O12 O 0.8719(5) 0.7820(3) 0.0490(2)
O13 O 0.4410(3) 0.84729(19) 0.5461(2)
H1 H 0.508(4) 0.8608(18) 0.563(3)
H2 H 0.447(4) 0.7854(14) 0.557(3)
O14 O 0.1414(3) 1.15521(19) 0.45839(16)
H3 H 0.077(3) 1.169(2) 0.5011(14)
H4 H 0.109(4) 1.185(2) 0.4110(13)
N1 N -0.2283(5) 1.1671(3) 0.0302(2)
N2 N 0.6561(4) 0.6187(3) 0.1582(2)
N3 N 0.7556(5) 0.8486(3) 0.0572(2)
C1 C 0.0297(4) 1.0544(2) 0.3442(2)
C2 C -0.0369(3) 1.0845(2) 0.2615(2)
C3 C 0.0413(4) 1.0421(3) 0.1932(2)
H5 H 0.1370 0.9965 0.1980
C4 C -0.0216(4) 1.0671(3) 0.1179(2)
H6 H 0.0287 1.0367 0.0728
C5 C -0.1606(4) 1.1382(3) 0.1112(2)
C6 C -0.2386(4) 1.1837(3) 0.1770(2)
H7 H -0.3310 1.2330 0.1701
C7 C -0.1775(4) 1.1551(3) 0.2533(2)
H8 H -0.2306 1.1832 0.2993
C8 C 0.1980(4) 0.8015(3) 0.4027(2)
C9 C 0.3195(4) 0.7592(2) 0.3354(2)
C10 C 0.4701(4) 0.7221(3) 0.3504(2)
H9 H 0.4965 0.7276 0.3999
C11 C 0.5805(4) 0.6771(3) 0.2915(2)
H10 H 0.6808 0.6506 0.3017
C12 C 0.5388(4) 0.6725(3) 0.2181(2)
C13 C 0.3937(4) 0.7128(3) 0.1986(2)
H11 H 0.3702 0.7121 0.1464
C14 C 0.2825(4) 0.7547(3) 0.2595(2)
H12 H 0.1823 0.7800 0.2491
C15 C 0.5947(3) 0.9788(2) 0.3716(2)
C16 C 0.6362(3) 0.9437(3) 0.2895(2)
C17 C 0.5322(4) 0.9748(3) 0.2312(2)
H13 H 0.4354 1.0158 0.2441
C18 C 0.5717(4) 0.9453(3) 0.1545(2)
H14 H 0.5034 0.9672 0.1147
C19 C 0.7138(4) 0.8830(3) 0.1383(2)
C20 C 0.8192(4) 0.8485(3) 0.1949(2)
H15 H 0.9139 0.8048 0.1826
C21 C 0.7802(4) 0.8807(3) 0.2707(2)
H16 H 0.8504 0.8603 0.3091
Yb1A Yb -0.248792(14) 1.022044(11) 0.520914(9)
Yb1A_2 Yb 0.751208(14) 1.022044(11) 0.520914(9)
O1A O 0.0597(3) 0.9456(2) 0.58453(15)
O10A O 0.3025(2) 1.03407(18) 0.58631(14)
O15 O 1.0167(3) 0.2884(2) 0.30672(18)
O16 O 1.1576(5) 0.6001(3) 0.2022(3)
N4 N 0.7715(5) 0.5605(3) 0.4877(2)
N5 N 1.0779(3) 0.3623(2) 0.25854(19)
N6 N 1.1464(4) 0.5087(3) 0.2097(2)
C22 C 0.7677(5) 0.4739(3) 0.4719(3)
H17 H 0.6971 0.4380 0.5077
C23 C 0.8622(5) 0.4342(3) 0.4055(3)
H18 H 0.8552 0.3731 0.3977
C24 C 0.9676(4) 0.4868(3) 0.3505(2)
C25 C 0.9755(5) 0.5758(3) 0.3683(3)
H19 H 1.0468 0.6124 0.3349
C26 C 0.8749(5) 0.6086(3) 0.4369(3)
H20 H 0.8807 0.6684 0.4476
C27 C 1.0636(4) 0.4522(3) 0.2759(2)
C28 C 1.1804(5) 0.3507(3) 0.1758(3)
C29 C 1.2208(5) 0.4576(3) 0.1375(3)
C30 C 1.0909(9) 0.3299(6) 0.1202(4)
H21 H 1.0789 0.2600 0.1445
H22 H 1.1442 0.3378 0.0614
H23 H 0.9929 0.3785 0.1193
C31 C 1.3124(7) 0.2593(4) 0.2014(6)
H24 H 1.2763 0.1982 0.2325
H25 H 1.3649 0.2736 0.2383
H26 H 1.3806 0.2478 0.1496
C32 C 1.1463(8) 0.5288(4) 0.0579(4)
H27 H 1.0400 0.5315 0.0696
H28 H 1.1926 0.5022 0.0081
H29 H 1.1591 0.5977 0.0458
C33 C 1.3873(6) 0.4539(5) 0.1171(4)
H30 H 1.4330 0.4190 0.1696
H31 H 1.3999 0.5237 0.0949
H32 H 1.4352 0.4166 0.0739
O17 O 0.5417(6) 0.6465(3) 0.5967(3)
H33 H 0.6128 0.6155 0.5673
C34 C 0.4865(9) 0.5800(6) 0.6617(5)
H34 H 0.4151 0.6157 0.7014
H35 H 0.5671 0.5300 0.6918
H36 H 0.4362 0.5446 0.6404
loop_
_geom_bond_atom_site_label_1
_geom_bond_atom_site_label_2
_geom_bond_site_symmetry_1
_geom_bond_site_symmetry_2
Yb1 O2 1_555 1_555
O1 C1 1_555 1_555
O2 C1 1_555 1_555
O3 N1 1_555 1_555
O4 N1 1_555 1_555
O5 Yb1 1_555 1_555
O6 C8 1_555 1_555
O7 N2 1_555 1_555
O8 N2 1_555 1_555
O9 Yb1 1_555 1_555
O10 C15 1_555 1_555
O11 N3 1_555 1_555
O12 N3 1_555 1_555
O13 Yb1 1_555 1_555
H1 O13 1_555 1_555
H2 O13 1_555 1_555
O14 Yb1 1_555 1_555
H3 O14 1_555 1_555
H4 O14 1_555 1_555
N1 C5 1_555 1_555
N2 C12 1_555 1_555
N3 C19 1_555 1_555
C1 C2 1_555 1_555
C2 C3 1_555 1_555
C3 H5 1_555 1_555
C4 C3 1_555 1_555
H6 C4 1_555 1_555
C5 C4 1_555 1_555
C6 C5 1_555 1_555
H7 C6 1_555 1_555
C7 C2 1_555 1_555
H8 C7 1_555 1_555
C8 O5 1_555 1_555
C9 C8 1_555 1_555
C10 C9 1_555 1_555
H9 C10 1_555 1_555
C11 C10 1_555 1_555
H10 C11 1_555 1_555
C12 C11 1_555 1_555
C13 C12 1_555 1_555
H11 C13 1_555 1_555
C14 C9 1_555 1_555
H12 C14 1_555 1_555
C15 O9 1_555 1_555
C16 C15 1_555 1_555
C17 C16 1_555 1_555
H13 C17 1_555 1_555
C18 C17 1_555 1_555
H14 C18 1_555 1_555
C19 C18 1_555 1_555
C20 C19 1_555 1_555
H15 C20 1_555 1_555
C21 C16 1_555 1_555
H16 C21 1_555 1_555
O15 N5 1_555 1_555
O16 N6 1_555 1_555
N4 C22 1_555 1_555
N5 C27 1_555 1_555
N6 C27 1_555 1_555
C22 H17 1_555 1_555
C23 C22 1_555 1_555
H18 C23 1_555 1_555
C24 C23 1_555 1_555
C25 C24 1_555 1_555
H19 C25 1_555 1_555
C26 N4 1_555 1_555
H20 C26 1_555 1_555
C27 C24 1_555 1_555
C28 N5 1_555 1_555
C29 N6 1_555 1_555
C30 C28 1_555 1_555
H21 C30 1_555 1_555
H22 C30 1_555 1_555
H23 C30 1_555 1_555
C31 C28 1_555 1_555
H24 C31 1_555 1_555
H25 C31 1_555 1_555
H26 C31 1_555 1_555
C32 C29 1_555 1_555
H27 C32 1_555 1_555
H28 C32 1_555 1_555
H29 C32 1_555 1_555
C33 C29 1_555 1_555
H30 C33 1_555 1_555
H31 C33 1_555 1_555
H32 C33 1_555 1_555
O17 H33 1_555 1_555
C34 O17 1_555 1_555
H34 C34 1_555 1_555
H35 C34 1_555 1_555
H36 C34 1_555 1_555
Yb1A O1 1_555 1_555
Yb1A_2 O10 1_555 1_555
O1A Yb1 1_555 1_555
O10A Yb1 1_555 1_555
C6 C7 1_555 1_555
C13 C14 1_555 1_555
C20 C21 1_555 1_555
C25 C26 1_555 1_555
C28 C29 1_555 1_555

#END
