
#######################################################################
#
#                 Cambridge Crystallographic Data Centre
#                                CCDC 
#
#######################################################################
#
# If this CIF has been generated from an entry in the Cambridge 
# Structural Database, then it will include bibliographic, chemical, 
# crystal, experimental, refinement or atomic coordinate data resulting 
# from the CCDC's data processing and validation procedures.
#
#######################################################################

data_RERPUA
_symmetry_cell_setting           triclinic
_symmetry_space_group_name_H-M   'P -1'
_symmetry_Int_Tables_number      2
_space_group_name_Hall           '-P 1'
loop_
_symmetry_equiv_pos_site_id
_symmetry_equiv_pos_as_xyz
1 x,y,z
2 -x,-y,-z
_cell_length_a                   9.3604(11)
_cell_length_b                   10.8601(9)
_cell_length_c                   11.3165(11)
_cell_angle_alpha                63.858(8)
_cell_angle_beta                 74.334(9)
_cell_angle_gamma                82.932(9)
_cell_volume                     994.326
loop_
_atom_site_label
_atom_site_type_symbol
_atom_site_fract_x
_atom_site_fract_y
_atom_site_fract_z
C1 C 0.5886(4) 0.3676(4) 0.1654(4)
C2 C 0.6928(4) 0.3639(4) 0.2476(4)
C3 C 0.4075(4) 0.2515(4) 0.1347(4)
C4 C 0.3238(4) 0.1224(4) 0.1791(4)
C5 C 0.6471(4) 0.1370(4) 0.1672(4)
C6 C 0.6296(4) -0.0072(3) 0.2793(3)
C7 C 0.0813(3) 0.4571(3) 0.5954(3)
C8 C 0.1354(3) 0.4327(3) 0.4808(3)
C9 C 0.2806(3) 0.3572(3) 0.4673(3)
C10 C -0.0528(3) 0.5225(3) 0.6175(3)
C11 C -0.1068(3) 0.5339(3) 0.7513(3)
N1 N 0.5289(3) 0.2302(3) 0.2036(3)
O1 O 0.6310(2) 0.2960(2) 0.3904(2)
H1 H 0.5553 0.3362 0.4113
O2 O 0.2706(3) 0.0653(3) 0.3233(3)
O3 O 0.0843 -0.0270 0.6246
O4 O 0.6103(2) 0.0030(2) 0.4039(2)
O5 O -0.1829 0.1991 0.5592
O7 O 0.2869(2) 0.2684(2) 0.4207(2)
O8 O 0.3822(3) 0.3854(3) 0.5012(3)
O9 O -0.1966(3) 0.4473(3) 0.8426(3)
O10 O -0.0513(3) 0.6262(2) 0.7623(2)
Na1 Na 0.05276(14) 0.16696(13) 0.42225(14)
Cu1 Cu 0.45185(4) 0.13681(4) 0.41017(4)
H2 H 0.636(4) 0.406(3) 0.076(4)
H3 H 0.501(3) 0.428(3) 0.182(3)
H4 H 0.771(4) 0.305(4) 0.236(4)
H5 H 0.725(4) 0.459(4) 0.220(4)
H6 H 0.449(3) 0.289(3) 0.036(4)
H7 H 0.340(3) 0.317(3) 0.157(3)
H8 H 0.249(4) -0.015(4) 0.350(4)
H9 H 0.242(4) 0.144(3) 0.139(3)
H10 H 0.395(4) 0.052(3) 0.148(3)
H11 H 0.651(3) 0.141(3) 0.079(3)
H12 H 0.733(4) 0.174(3) 0.156(3)
H13 H 0.545(4) -0.051(3) 0.279(3)
H14 H 0.721(4) -0.062(3) 0.262(3)
H15 H -0.2517 0.2482 0.5153
H16 H -0.2165 0.2270 0.6198
H17 H 0.138(3) 0.424(3) 0.662(3)
H28 H 0.1794 -0.0199 0.6211
H29 H 0.0415 -0.0051 0.6829
C1A C 0.4114(4) -0.3676(4) 0.8346(4)
C2A C 0.3072(4) -0.3639(4) 0.7524(4)
C3A C 0.5925(4) -0.2515(4) 0.8653(4)
C4A C 0.6762(4) -0.1224(4) 0.8209(4)
C5A C 0.3529(4) -0.1370(4) 0.8328(4)
C6A C 0.3704(4) 0.0072(3) 0.7207(3)
C7A C -0.0813(3) 0.5429(3) 0.4046(3)
C8A C -0.1354(3) 0.5673(3) 0.5192(3)
C9A C -0.2806(3) 0.6428(3) 0.5327(3)
C10A C 0.0528(3) 0.4775(3) 0.3825(3)
C11A C 0.1068(3) 0.4661(3) 0.2487(3)
N1A N 0.4711(3) -0.2302(3) 0.7964(3)
O1A O 0.3690(2) -0.2960(2) 0.6096(2)
H1A H 0.4447 -0.3362 0.5887
O2A O 0.7294(3) -0.0653(3) 0.6767(3)
O2A_2 O -0.2706(3) -0.0653(3) 0.6767(3)
O3A O -0.0843 0.0270 0.3754
O4A O 0.3897(2) -0.0030(2) 0.5961(2)
O5A O 0.1829 -0.1991 0.4408
O7A O -0.2869(2) 0.7316(2) 0.5793(2)
O7A_2 O -0.2869(2) -0.2684(2) 0.5793(2)
O7A_3 O 0.7131(2) -0.2684(2) 0.5793(2)
O8A O -0.3822(3) 0.6146(3) 0.4988(3)
O9A O 0.1966(3) 0.5527(3) 0.1574(3)
O10A O 0.0513(3) 0.3738(2) 0.2377(2)
O10_2 O -0.0513(3) -0.3738(2) 0.7623(2)
Na1A Na -0.05276(14) -0.16696(13) 0.57775(14)
Na1A_2 Na -0.05276(14) 0.83304(13) 0.57775(14)
Na1A_3 Na 0.94724(14) -0.16696(13) 0.57775(14)
Cu1A Cu 0.54815(4) -0.13681(4) 0.58983(4)
Cu1A_2 Cu -0.45185(4) 0.86319(4) 0.58983(4)
H2A H 0.364(4) -0.406(3) 0.924(4)
H3A H 0.499(3) -0.428(3) 0.818(3)
H4A H 0.229(4) -0.305(4) 0.764(4)
H5A H 0.275(4) -0.459(4) 0.780(4)
H6A H 0.551(3) -0.289(3) 0.964(4)
H7A H 0.660(3) -0.317(3) 0.843(3)
H8A H 0.751(4) 0.015(4) 0.650(4)
H8A_2 H -0.249(4) 0.015(4) 0.650(4)
H9A H 0.758(4) -0.144(3) 0.861(3)
H10A H 0.605(4) -0.052(3) 0.852(3)
H11A H 0.349(3) -0.141(3) 0.921(3)
H12A H 0.267(4) -0.174(3) 0.844(3)
H13A H 0.455(4) 0.051(3) 0.721(3)
H14A H 0.279(4) 0.062(3) 0.738(3)
H15A H 0.2517 -0.2482 0.4847
H16A H 0.2165 -0.2270 0.3802
H17A H -0.138(3) 0.576(3) 0.338(3)
H28A H -0.1794 0.0199 0.3789
H29A H -0.0415 0.0051 0.3171
O6 O 0.0241 0.3424 0.0163
H18 H -0.0450 0.4106 -0.0251
H19 H 0.0320 0.3637 0.0840
O11 O 0.1481 0.1630 -0.0822
H20 H 0.0955 0.2167 -0.0465
H21 H 0.1086 0.1596 -0.1288
O12 O 0.4238 0.3027 0.7700
H22 H 0.4347 0.3221 0.6867
H23 H 0.3327 0.2625 0.8385
O13 O 0.2854 0.7463 0.2106
H24 H 0.3878 0.7341 0.2122
H25 H 0.2679 0.6985 0.1836
O14 O -0.0535 0.0652 0.8344
H26 H -0.0840 -0.0024 0.9160
H27 H -0.1341 0.1321 0.8130
loop_
_geom_bond_atom_site_label_1
_geom_bond_atom_site_label_2
_geom_bond_site_symmetry_1
_geom_bond_site_symmetry_2
C1 C2 1_555 1_555
C2 O1 1_555 1_555
C3 C4 1_555 1_555
C4 O2 1_555 1_555
C5 C6 1_555 1_555
C6 O4 1_555 1_555
C7 C8 1_555 1_555
C8 C9 1_555 1_555
C9 O7 1_555 1_555
C10 C7 1_555 1_555
C11 C10 1_555 1_555
N1 C1 1_555 1_555
O1 H1 1_555 1_555
O2 Na1 1_555 1_555
O3 Na1 1_555 1_555
O4 Cu1 1_555 1_555
O5 Na1 1_555 1_555
O6 H18 1_555 1_555
O7 Na1 1_555 1_555
O8 C9 1_555 1_555
O9 C11 1_555 1_555
O10 C11 1_555 1_555
O11 H20 1_555 1_555
O12 H22 1_555 1_555
O13 H24 1_555 1_555
O14 H26 1_555 1_555
Na1 O3A 1_555 1_555
Cu1 N1 1_555 1_555
H2 C1 1_555 1_555
H3 C1 1_555 1_555
H4 C2 1_555 1_555
H5 C2 1_555 1_555
H6 C3 1_555 1_555
H7 C3 1_555 1_555
H8 O2 1_555 1_555
H9 C4 1_555 1_555
H10 C4 1_555 1_555
H11 C5 1_555 1_555
H12 C5 1_555 1_555
H13 C6 1_555 1_555
H14 C6 1_555 1_555
H15 O5 1_555 1_555
H16 O5 1_555 1_555
H17 C7 1_555 1_555
H19 O6 1_555 1_555
H21 O11 1_555 1_555
H23 O12 1_555 1_555
H25 O13 1_555 1_555
H27 O14 1_555 1_555
H28 O3 1_555 1_555
H29 O3 1_555 1_555
C1A C2A 1_555 1_555
C2A O1A 1_555 1_555
C3A C4A 1_555 1_555
C4A O2A 1_555 1_555
C5A C6A 1_555 1_555
C6A O4A 1_555 1_555
C7A C8A 1_555 1_555
C8A C10 1_555 1_555
C9A C8A 1_555 1_555
C10A C8 1_555 1_555
C11A C10A 1_555 1_555
N1A C1A 1_555 1_555
O1A H1A 1_555 1_555
O2A Na1A_3 1_555 1_555
O2A_2 Na1A 1_555 1_555
O3A Na1A 1_555 1_555
O4A Cu1 1_555 1_555
O5A Na1A 1_555 1_555
O7A C9A 1_555 1_555
O7A_2 Na1A 1_555 1_555
O7A_3 Na1A_3 1_555 1_555
O8A C9A 1_555 1_555
O9A C11A 1_555 1_555
O10A Na1 1_555 1_555
O10_2 Na1A 1_555 1_555
Na1A O3 1_555 1_555
Na1A_2 O10 1_555 1_555
Cu1A O4 1_555 1_555
Cu1A_2 O7A 1_555 1_555
H2A C1A 1_555 1_555
H3A C1A 1_555 1_555
H4A C2A 1_555 1_555
H5A C2A 1_555 1_555
H6A C3A 1_555 1_555
H7A C3A 1_555 1_555
H8A O2A 1_555 1_555
H8A_2 O2A_2 1_555 1_555
H9A C4A 1_555 1_555
H10A C4A 1_555 1_555
H11A C5A 1_555 1_555
H12A C5A 1_555 1_555
H13A C6A 1_555 1_555
H14A C6A 1_555 1_555
H15A O5A 1_555 1_555
H16A O5A 1_555 1_555
H17A C7A 1_555 1_555
H28A O3A 1_555 1_555
H29A O3A 1_555 1_555
C3 N1 1_555 1_555
C5 N1 1_555 1_555
O1 Cu1 1_555 1_555
O2 Cu1 1_555 1_555
O7 Cu1 1_555 1_555
C3A N1A 1_555 1_555
C5A N1A 1_555 1_555
C7A C10A 1_555 1_555
C11A O10A 1_555 1_555
N1A Cu1A 1_555 1_555
O1A Cu1A 1_555 1_555
O2A Cu1A 1_555 1_555
O4A Cu1A 1_555 1_555
O7A Na1A_2 1_555 1_555
O7A_3 Cu1A 1_555 1_555

#END
