
#######################################################################
#
#                 Cambridge Crystallographic Data Centre
#                                CCDC 
#
#######################################################################
#
# If this CIF has been generated from an entry in the Cambridge 
# Structural Database, then it will include bibliographic, chemical, 
# crystal, experimental, refinement or atomic coordinate data resulting 
# from the CCDC's data processing and validation procedures.
#
#######################################################################

data_RERQEL
_symmetry_cell_setting           triclinic
_symmetry_space_group_name_H-M   'P -1'
_symmetry_Int_Tables_number      2
_space_group_name_Hall           '-P 1'
loop_
_symmetry_equiv_pos_site_id
_symmetry_equiv_pos_as_xyz
1 x,y,z
2 -x,-y,-z
_cell_length_a                   4.4142(4)
_cell_length_b                   5.5480(6)
_cell_length_c                   10.7180(12)
_cell_angle_alpha                77.470(2)
_cell_angle_beta                 81.865(2)
_cell_angle_gamma                85.993(2)
_cell_volume                     253.445
loop_
_atom_site_label
_atom_site_type_symbol
_atom_site_fract_x
_atom_site_fract_y
_atom_site_fract_z
U1 U 0.0000 0.0000 0.0000
O1 O -0.0404(10) 0.2470(8) 0.0808(4)
O2 O -0.4633(9) 0.1684(8) -0.1016(4)
O3 O -0.8508(9) 0.2699(8) -0.2072(4)
C1 C -0.5840(11) 0.3088(9) -0.1946(5)
C2 C -0.4122(12) 0.5177(10) -0.2826(5)
H1 H -0.2457 0.4486 -0.3351
H2 H -0.3221 0.6086 -0.2303
C3 C -0.6027(11) 0.6988(10) -0.3717(5)
H3 H -0.6909 0.6109 -0.4260
H4 H -0.7694 0.7705 -0.3205
C4 C -0.4092(12) 0.9044(10) -0.4564(6)
H5 H -0.3142 0.9864 -0.4016
H6 H -0.2469 0.8317 -0.5092
U1_2 U -1.0000 0.0000 0.0000
U1_3 U -1.0000 2.0000 -1.0000
U1_4 U 0.0000 2.0000 -1.0000
O1A O 0.0404(10) -0.2470(8) -0.0808(4)
O2A O -0.5367(9) 1.8316(8) -0.8984(4)
O2_2 O 0.5367(9) 0.1684(8) -0.1016(4)
O2A_2 O -0.5367(9) -0.1684(8) 0.1016(4)
O2A_3 O 0.4633(9) -0.1684(8) 0.1016(4)
O3A O -0.1492(9) 1.7301(8) -0.7928(4)
O3_2 O 0.1492(9) 0.2699(8) -0.2072(4)
O3A_2 O -0.1492(9) -0.2699(8) 0.2072(4)
C1A C -0.4160(11) 1.6912(9) -0.8054(5)
C2A C -0.5878(12) 1.4823(10) -0.7174(5)
H1A H -0.7543 1.5514 -0.6649
H2A H -0.6779 1.3914 -0.7697
C3A C -0.3973(11) 1.3012(10) -0.6283(5)
H3A H -0.3091 1.3891 -0.5740
H4A H -0.2306 1.2295 -0.6795
C4A C -0.5908(12) 1.0956(10) -0.5436(6)
H5A H -0.6858 1.0136 -0.5984
H6A H -0.7531 1.1683 -0.4908
loop_
_geom_bond_atom_site_label_1
_geom_bond_atom_site_label_2
_geom_bond_site_symmetry_1
_geom_bond_site_symmetry_2
U1 O1 1_555 1_555
O2 U1 1_555 1_555
O3 C1 1_555 1_555
C1 O2 1_555 1_555
C2 C1 1_555 1_555
H1 C2 1_555 1_555
H2 C2 1_555 1_555
C3 C2 1_555 1_555
H3 C3 1_555 1_555
H4 C3 1_555 1_555
C4 C3 1_555 1_555
H5 C4 1_555 1_555
H6 C4 1_555 1_555
U1_2 O2 1_555 1_555
U1_3 O2A 1_555 1_555
U1_4 O2A 1_555 1_555
O1A U1 1_555 1_555
O2A C1A 1_555 1_555
O2_2 U1 1_555 1_555
O2A_2 U1 1_555 1_555
O2A_3 U1 1_555 1_555
O3A U1_4 1_555 1_555
O3_2 U1 1_555 1_555
O3A_2 U1 1_555 1_555
C1A O3A 1_555 1_555
C2A C1A 1_555 1_555
H1A C2A 1_555 1_555
H2A C2A 1_555 1_555
C3A C2A 1_555 1_555
H3A C3A 1_555 1_555
H4A C3A 1_555 1_555
C4A C4 1_555 1_555
H5A C4A 1_555 1_555
H6A C4A 1_555 1_555
O3 U1_2 1_555 1_555
U1_2 O2A_2 1_555 1_555
C3A C4A 1_555 1_555

#END
