
#######################################################################
#
#                 Cambridge Crystallographic Data Centre
#                                CCDC 
#
#######################################################################
#
# If this CIF has been generated from an entry in the Cambridge 
# Structural Database, then it will include bibliographic, chemical, 
# crystal, experimental, refinement or atomic coordinate data resulting 
# from the CCDC's data processing and validation procedures.
#
#######################################################################

data_RERQUB
_symmetry_cell_setting           monoclinic
_symmetry_space_group_name_H-M   'C 2/c'
_symmetry_Int_Tables_number      15
_space_group_name_Hall           '-C 2yn'
loop_
_symmetry_equiv_pos_site_id
_symmetry_equiv_pos_as_xyz
1 x,y,z
2 1/2+x,1/2+y,z
3 -x,y,1/2-z
4 1/2-x,1/2+y,1/2-z
5 -x,-y,-z
6 1/2-x,1/2-y,-z
7 x,-y,1/2+z
8 1/2+x,1/2-y,1/2+z
_cell_length_a                   15.5406(13)
_cell_length_b                   12.5765(13)
_cell_length_c                   16.821(2)
_cell_angle_alpha                90
_cell_angle_beta                 101.024(4)
_cell_angle_gamma                90
_cell_volume                     3226.94
loop_
_atom_site_label
_atom_site_type_symbol
_atom_site_fract_x
_atom_site_fract_y
_atom_site_fract_z
U1 U 0.20835(2) 0.99443(3) 0.15373(3)
O1 O 0.2063(4) 1.0298(5) 0.2532(4)
O2 O 0.2111(4) 0.9565(6) 0.0537(5)
O3 O 0.3226(4) 1.1287(6) 0.1537(5)
O4 O 0.1882(4) 1.1796(5) 0.1075(5)
O5 O 0.5546(4) 1.5433(6) 0.1153(5)
O6 O 0.5808(4) 1.3792(6) 0.1523(5)
O7 O 0.2616(4) 0.8073(5) 0.1984(5)
O8 O 0.3575(4) 0.9307(6) 0.1927(6)
C1 C 0.2691(7) 1.2024(8) 0.1247(7)
C2 C 0.3001(6) 1.3119(8) 0.1099(7)
H1 H 0.2762 1.3616 0.1440
H2 H 0.2775 1.3312 0.0540
C3 C 0.3991(6) 1.3226(8) 0.1266(8)
H3 H 0.4218 1.3017 0.1822
H4 H 0.4230 1.2741 0.0915
C4 C 0.4299(6) 1.4335(7) 0.1135(7)
H5 H 0.4056 1.4538 0.0581
H6 H 0.4052 1.4811 0.1486
C5 C 0.5249(7) 1.4519(9) 0.1276(8)
C6 C 0.3408(6) 0.8346(9) 0.2040(8)
C7 C 0.4151(6) 0.7574(9) 0.2285(8)
H7 H 0.4051 0.7162 0.2746
H8 H 0.4170 0.7086 0.1843
C8 C 0.5000 0.8134(16) 0.2500
H9 H 0.4957 0.8595 0.2953
H10 H 0.5043 0.8595 0.2047
U1A U -0.29165(2) 0.49443(3) 0.15373(3)
U1A_2 U 0.70835(2) 1.49443(3) 0.15373(3)
U1B U 0.79165(2) 0.99443(3) 0.34627(3)
O1A O -0.2937(4) 0.5298(5) 0.2532(4)
O2A O -0.2889(4) 0.4565(6) 0.0537(5)
O3A O -0.1774(4) 0.6287(6) 0.1537(5)
O4A O -0.3118(4) 0.6796(5) 0.1075(5)
O5A O 0.0546(4) 1.0433(6) 0.1153(5)
O5_2 O -0.4454(4) 0.5433(6) 0.1153(5)
O6A O 0.0808(4) 0.8792(6) 0.1523(5)
O6_2 O -0.4192(4) 0.3792(6) 0.1523(5)
O7B O 0.7384(4) 0.8073(5) 0.3016(5)
O7A O -0.2384(4) 0.3073(5) 0.1984(5)
O8B O 0.6425(4) 0.9307(6) 0.3073(6)
O8A O -0.1425(4) 0.4307(6) 0.1927(6)
C1A C -0.2309(7) 0.7024(8) 0.1247(7)
C2A C -0.1999(6) 0.8119(8) 0.1099(7)
H1A H -0.2238 0.8616 0.1440
H2A H -0.2225 0.8312 0.0540
C3A C -0.1009(6) 0.8226(8) 0.1266(8)
H3A H -0.0782 0.8017 0.1822
H4A H -0.0770 0.7741 0.0915
C4A C -0.0701(6) 0.9335(7) 0.1135(7)
H5A H -0.0944 0.9538 0.0581
H6A H -0.0948 0.9811 0.1486
C5A C 0.0249(7) 0.9519(9) 0.1276(8)
C6B C 0.6592(6) 0.8346(9) 0.2960(8)
C7B C 0.5849(6) 0.7574(9) 0.2715(8)
H7B H 0.5949 0.7162 0.2254
H8B H 0.5830 0.7086 0.3157
O10 O 0.487(7) 1.249(8) -0.039(3)
N1 N 0.1513(6) 0.6449(7) 0.1344(6)
H11 H 0.1885 0.6814 0.1680
C9 C 0.0772(8) 0.6170(11) 0.1542(8)
H12 H 0.0647 0.6383 0.2037
C10 C 0.0180(7) 0.5571(9) 0.1030(8)
H13 H -0.0330 0.5349 0.1192
C11 C 0.0320(6) 0.5298(8) 0.0303(7)
C12 C 0.1125(8) 0.5572(12) 0.0119(9)
H14 H 0.1272 0.5340 -0.0363
C13 C 0.1702(9) 0.6183(12) 0.0642(9)
H15 H 0.2224 0.6407 0.0503
N1D N -0.1513(6) 0.3551(7) -0.1344(6)
H11D H -0.1885 0.3186 -0.1680
C9D C -0.0772(8) 0.3830(11) -0.1542(8)
H12D H -0.0647 0.3617 -0.2037
C10D C -0.0180(7) 0.4429(9) -0.1030(8)
H13D H 0.0330 0.4651 -0.1192
C11D C -0.0320(6) 0.4702(8) -0.0303(7)
C12D C -0.1125(8) 0.4428(12) -0.0119(9)
H14D H -0.1272 0.4660 0.0363
C13D C -0.1702(9) 0.3817(12) -0.0642(9)
H15D H -0.2224 0.3593 -0.0503
O9? O 0.433(7) 0.698(3) 0.034(2)
loop_
_geom_bond_atom_site_label_1
_geom_bond_atom_site_label_2
_geom_bond_site_symmetry_1
_geom_bond_site_symmetry_2
U1 O1 1_555 1_555
O2 U1 1_555 1_555
O3 U1 1_555 1_555
O4 U1 1_555 1_555
O5 C5 1_555 1_555
O6 C5 1_555 1_555
O7 U1 1_555 1_555
O8 U1 1_555 1_555
C1 O3 1_555 1_555
C2 C1 1_555 1_555
H1 C2 1_555 1_555
H2 C2 1_555 1_555
C3 C2 1_555 1_555
H3 C3 1_555 1_555
H4 C3 1_555 1_555
C4 C3 1_555 1_555
H5 C4 1_555 1_555
H6 C4 1_555 1_555
C5 C4 1_555 1_555
C6 O7 1_555 1_555
C7 C6 1_555 1_555
H7 C7 1_555 1_555
H8 C7 1_555 1_555
C8 C7 1_555 1_555
H9 C8 1_555 1_555
H10 C8 1_555 1_555
N1 H11 1_555 1_555
C9 N1 1_555 1_555
H12 C9 1_555 1_555
C10 C9 1_555 1_555
H13 C10 1_555 1_555
C11 C10 1_555 1_555
C12 C11 1_555 1_555
H14 C12 1_555 1_555
C13 N1 1_555 1_555
H15 C13 1_555 1_555
U1A O1A 1_555 1_555
U1A_2 O5 1_555 1_555
U1B O7B 1_555 1_555
O2A U1A 1_555 1_555
O3A U1A 1_555 1_555
O4A U1A 1_555 1_555
O5A U1 1_555 1_555
O5_2 U1A 1_555 1_555
O6A U1 1_555 1_555
O6_2 U1A 1_555 1_555
O7B C6B 1_555 1_555
O7A U1A 1_555 1_555
O8B U1B 1_555 1_555
O8A U1A 1_555 1_555
C1A O3A 1_555 1_555
C2A C1A 1_555 1_555
H1A C2A 1_555 1_555
H2A C2A 1_555 1_555
C3A C2A 1_555 1_555
H3A C3A 1_555 1_555
H4A C3A 1_555 1_555
C4A C3A 1_555 1_555
H5A C4A 1_555 1_555
H6A C4A 1_555 1_555
C5A O5A 1_555 1_555
C6B O8B 1_555 1_555
C7B C8 1_555 1_555
H7B C7B 1_555 1_555
H8B C7B 1_555 1_555
N1D H11D 1_555 1_555
C9D N1D 1_555 1_555
H12D C9D 1_555 1_555
C10D C9D 1_555 1_555
H13D C10D 1_555 1_555
C11D C11 1_555 1_555
C12D C11D 1_555 1_555
H14D C12D 1_555 1_555
C13D N1D 1_555 1_555
H15D C13D 1_555 1_555
O4 C1 1_555 1_555
O6 U1A_2 1_555 1_555
O8 C6 1_555 1_555
C12 C13 1_555 1_555
O4A C1A 1_555 1_555
O6A C5A 1_555 1_555
C4A C5A 1_555 1_555
C6B C7B 1_555 1_555
C10D C11D 1_555 1_555
C12D C13D 1_555 1_555

#END
