
#######################################################################
#
#                 Cambridge Crystallographic Data Centre
#                                CCDC 
#
#######################################################################
#
# If this CIF has been generated from an entry in the Cambridge 
# Structural Database, then it will include bibliographic, chemical, 
# crystal, experimental, refinement or atomic coordinate data resulting 
# from the CCDC's data processing and validation procedures.
#
#######################################################################

data_RERQEM
_symmetry_cell_setting           monoclinic
_symmetry_space_group_name_H-M   'P 21/c'
_symmetry_Int_Tables_number      14
_space_group_name_Hall           '-P 2ybc'
loop_
_symmetry_equiv_pos_site_id
_symmetry_equiv_pos_as_xyz
1 x,y,z
2 -x,1/2+y,1/2-z
3 -x,-y,-z
4 x,1/2-y,1/2+z
_cell_length_a                   7.5423(9)
_cell_length_b                   11.7834(14)
_cell_length_c                   25.477(3)
_cell_angle_alpha                90
_cell_angle_beta                 105.611(3)
_cell_angle_gamma                90
_cell_volume                     2180.72
loop_
_atom_site_label
_atom_site_type_symbol
_atom_site_fract_x
_atom_site_fract_y
_atom_site_fract_z
O1 O 0.0754(8) 0.9590(5) 0.6861(2)
O2 O 0.1841(8) 0.9364(4) 0.6200(2)
O3 O 0.3633(7) 0.9862(4) 0.6939(2)
N5 N 0.2073(8) 0.9605(4) 0.6674(2)
Ag1 Ag -0.21665(4) 0.91405(3) 0.012900(12)
N1 N 0.1820(4) 0.9054(3) 0.16817(12)
N2 N -0.0069(4) 0.9378(3) 0.08627(12)
N3 N 0.3862(4) 0.6024(2) 0.35781(12)
C1 C 0.0760(6) 0.8600(3) 0.12202(15)
H1 H 0.0623 0.7823 0.1158
C2 C 0.0486(5) 1.0413(3) 0.11145(15)
C3 C 0.0080(6) 1.1509(3) 0.09300(16)
H2 H -0.0702 1.1652 0.0586
C4 C 0.0873(6) 1.2384(3) 0.12720(18)
H3 H 0.0630 1.3129 0.1154
C5 C 0.2033(6) 1.2178(4) 0.17906(18)
H4 H 0.2516 1.2789 0.2015
C6 C 0.2472(5) 1.1102(3) 0.19756(16)
H5 H 0.3265 1.0964 0.2318
C7 C 0.1683(5) 1.0221(3) 0.16303(15)
C8 C 0.2841(5) 0.8434(3) 0.21661(15)
H6 H 0.4057 0.8763 0.2301
H7 H 0.2989 0.7650 0.2069
C9 C 0.1850(6) 0.8472(3) 0.26120(15)
H8 H 0.0664 0.8101 0.2482
H9 H 0.1629 0.9257 0.2689
C10 C 0.2947(5) 0.7890(3) 0.31439(15)
H10 H 0.4227 0.8121 0.3227
H11 H 0.2463 0.8128 0.3443
C11 C 0.2821(5) 0.6627(3) 0.30882(15)
H12 H 0.1537 0.6404 0.3008
H13 H 0.3278 0.6399 0.2783
C12 C 0.4976(5) 0.6448(3) 0.40360(14)
H14 H 0.5189 0.7219 0.4099
C13 C 0.5091(5) 0.4621(3) 0.41405(14)
C14 C 0.5426(6) 0.3514(3) 0.43140(17)
H15 H 0.6211 0.3343 0.4654
C15 C 0.4554(6) 0.2671(4) 0.39650(18)
H16 H 0.4763 0.1917 0.4071
C16 C 0.3369(6) 0.2919(4) 0.34583(18)
H17 H 0.2783 0.2328 0.3236
C17 C 0.3046(6) 0.4006(3) 0.32800(16)
H18 H 0.2283 0.4172 0.2936
C18 C 0.3902(5) 0.4851(3) 0.36316(15)
N4 N 0.5741(4) 0.5649(3) 0.43896(12)
Ag1C Ag 0.78335(4) 0.58595(3) 0.512900(12)
N4C N -0.4259(4) 0.9351(3) -0.06104(12)
loop_
_geom_bond_atom_site_label_1
_geom_bond_atom_site_label_2
_geom_bond_site_symmetry_1
_geom_bond_site_symmetry_2
Ag1 N2 1_555 1_555
N1 C1 1_555 1_555
N2 C1 1_555 1_555
N3 C11 1_555 1_555
C1 H1 1_555 1_555
C2 N2 1_555 1_555
C3 C2 1_555 1_555
H2 C3 1_555 1_555
C4 C3 1_555 1_555
H3 C4 1_555 1_555
C5 C4 1_555 1_555
H4 C5 1_555 1_555
C6 C5 1_555 1_555
H5 C6 1_555 1_555
C7 N1 1_555 1_555
C8 N1 1_555 1_555
H6 C8 1_555 1_555
H7 C8 1_555 1_555
C9 C8 1_555 1_555
H8 C9 1_555 1_555
H9 C9 1_555 1_555
C10 C9 1_555 1_555
H10 C10 1_555 1_555
H11 C10 1_555 1_555
C11 C10 1_555 1_555
H12 C11 1_555 1_555
H13 C11 1_555 1_555
C12 N3 1_555 1_555
H14 C12 1_555 1_555
C13 C14 1_555 1_555
C14 H15 1_555 1_555
C15 C14 1_555 1_555
H16 C15 1_555 1_555
C16 C15 1_555 1_555
H17 C16 1_555 1_555
C17 C16 1_555 1_555
H18 C17 1_555 1_555
C18 N3 1_555 1_555
N4 C12 1_555 1_555
O1 N5 1_555 1_555
O2 N5 1_555 1_555
O3 N5 1_555 1_555
Ag1C N4 1_555 1_555
N4C Ag1 1_555 1_555
C2 C7 1_555 1_555
C6 C7 1_555 1_555
C13 C18 1_555 1_555
C13 N4 1_555 1_555
C17 C18 1_555 1_555

#END
