
#######################################################################
#
#                 Cambridge Crystallographic Data Centre
#                                CCDC 
#
#######################################################################
#
# If this CIF has been generated from an entry in the Cambridge 
# Structural Database, then it will include bibliographic, chemical, 
# crystal, experimental, refinement or atomic coordinate data resulting 
# from the CCDC's data processing and validation procedures.
#
#######################################################################

data_RERQIP
_symmetry_cell_setting           monoclinic
_symmetry_space_group_name_H-M   'P 2/c'
_symmetry_Int_Tables_number      13
_space_group_name_Hall           '-P 2yc'
loop_
_symmetry_equiv_pos_site_id
_symmetry_equiv_pos_as_xyz
1 x,y,z
2 -x,y,1/2-z
3 -x,-y,-z
4 x,-y,1/2+z
_cell_length_a                   11.3233(3)
_cell_length_b                   4.40180(10)
_cell_length_c                   10.8499(4)
_cell_angle_alpha                90
_cell_angle_beta                 95.454(2)
_cell_angle_gamma                90
_cell_volume                     538.342
loop_
_atom_site_label
_atom_site_type_symbol
_atom_site_fract_x
_atom_site_fract_y
_atom_site_fract_z
U1 U 0.5000 0.08217(7) 0.7500
O1 O 0.4274(4) 0.0817(10) 0.8862(5)
O2 O 0.6928(4) -0.0100(12) 0.8615(5)
O3 O 0.5942(4) -0.4288(10) 0.8222(5)
C1 C 0.6816(6) -0.2914(14) 0.8836(6)
C2 C 0.7630(6) -0.4480(15) 0.9795(7)
H1 H 0.8124 -0.5878 0.9381
H2 H 0.7155 -0.5679 1.0313
C3 C 0.8435(5) -0.2418(17) 1.0628(6)
H3 H 0.7956 -0.0998 1.1049
H4 H 0.8940 -0.1258 1.0128
C4 C 0.9208(6) -0.4290(16) 1.1590(7)
H5 H 0.8697 -0.5531 1.2052
H6 H 0.9706 -0.5647 1.1160
C5 C 1.0000 -0.234(3) 1.2500
H7 H 0.9505 -0.1042 1.2959
H8 H 1.0495 -0.1042 1.2041
U1_2 U 0.5000 -0.91783(7) 0.7500
U1_3 U 1.5000 0.08217(7) 1.7500
U1_4 U 1.5000 -0.91783(7) 1.7500
O1A O 0.5726(4) 0.0817(10) 0.6138(5)
O2A O 1.3072(4) -0.0100(12) 1.6385(5)
O2A_2 O 0.3072(4) -0.0100(12) 0.6385(5)
O3A O 1.4058(4) -0.4288(10) 1.6778(5)
O3_2 O 0.5942(4) 0.5712(10) 0.8222(5)
O3A_2 O 0.4058(4) -0.4288(10) 0.6778(5)
O3A_3 O 0.4058(4) 0.5712(10) 0.6778(5)
C1A C 1.3184(6) -0.2914(14) 1.6164(6)
C2A C 1.2370(6) -0.4480(15) 1.5205(7)
H1A H 1.1876 -0.5878 1.5619
H2A H 1.2845 -0.5679 1.4687
C3A C 1.1565(5) -0.2418(17) 1.4372(6)
H3A H 1.2044 -0.0998 1.3951
H4A H 1.1060 -0.1258 1.4872
C4A C 1.0792(6) -0.4290(16) 1.3410(7)
H5A H 1.1303 -0.5531 1.2948
H6A H 1.0294 -0.5647 1.3840
loop_
_geom_bond_atom_site_label_1
_geom_bond_atom_site_label_2
_geom_bond_site_symmetry_1
_geom_bond_site_symmetry_2
U1 O1 1_555 1_555
O2 U1 1_555 1_555
O3 U1 1_555 1_555
C1 O2 1_555 1_555
C2 C1 1_555 1_555
H1 C2 1_555 1_555
H2 C2 1_555 1_555
C3 C2 1_555 1_555
H3 C3 1_555 1_555
H4 C3 1_555 1_555
C4 C3 1_555 1_555
H5 C4 1_555 1_555
H6 C4 1_555 1_555
C5 C4 1_555 1_555
H7 C5 1_555 1_555
H8 C5 1_555 1_555
U1_2 O3 1_555 1_555
U1_3 O2A 1_555 1_555
U1_4 O3A 1_555 1_555
O1A U1 1_555 1_555
O2A C1A 1_555 1_555
O2A_2 U1 1_555 1_555
O3A U1_3 1_555 1_555
O3_2 U1 1_555 1_555
O3A_2 U1 1_555 1_555
O3A_3 U1 1_555 1_555
C1A O3A 1_555 1_555
C2A C1A 1_555 1_555
H1A C2A 1_555 1_555
H2A C2A 1_555 1_555
C3A C2A 1_555 1_555
H3A C3A 1_555 1_555
H4A C3A 1_555 1_555
C4A C5 1_555 1_555
H5A C4A 1_555 1_555
H6A C4A 1_555 1_555
O3 C1 1_555 1_555
U1_2 O3A_2 1_555 1_555
C3A C4A 1_555 1_555

#END
