
#######################################################################
#
#                 Cambridge Crystallographic Data Centre
#                                CCDC 
#
#######################################################################
#
# If this CIF has been generated from an entry in the Cambridge 
# Structural Database, then it will include bibliographic, chemical, 
# crystal, experimental, refinement or atomic coordinate data resulting 
# from the CCDC's data processing and validation procedures.
#
#######################################################################

data_RERQAI
_symmetry_cell_setting           monoclinic
_symmetry_space_group_name_H-M   'P 21/c'
_symmetry_Int_Tables_number      14
_space_group_name_Hall           '-P 2ybc'
loop_
_symmetry_equiv_pos_site_id
_symmetry_equiv_pos_as_xyz
1 x,y,z
2 -x,1/2+y,1/2-z
3 -x,-y,-z
4 x,1/2-y,1/2+z
_cell_length_a                   9.2129(6)
_cell_length_b                   9.5467(9)
_cell_length_c                   27.605(3)
_cell_angle_alpha                90
_cell_angle_beta                 102.490(9)
_cell_angle_gamma                90
_cell_volume                     2370.48
loop_
_atom_site_label
_atom_site_type_symbol
_atom_site_fract_x
_atom_site_fract_y
_atom_site_fract_z
Cu1 Cu 0.45737(6) 0.31908(6) 0.90686(2)
Cu2 Cu -0.03871(6) 0.13135(6) 0.91292(2)
N1 N -0.0430(4) -0.0807(4) 0.91673(14)
N2 N -0.1065(3) -0.2960(4) 0.93512(13)
N3 N 0.2652(5) 0.2429(4) 0.90827(15)
N4 N 0.6557(5) 0.2479(4) 0.91145(17)
N5 N 0.4501(4) 0.5321(4) 0.90332(13)
N6 N 0.4175(4) 0.7530(4) 0.92545(12)
C1 C -0.1076(4) -0.1582(5) 0.94521(17)
H1 H -0.1502 -0.1212 0.9701
C2 C 0.0061(4) -0.1757(4) 0.88508(16)
C3 C 0.0791(4) -0.1521(5) 0.84670(15)
H2 H 0.1048 -0.0617 0.8391
C4 C 0.1130(4) -0.2660(5) 0.81988(16)
C5 C 0.0743(5) -0.4034(5) 0.83195(16)
C6 C 0.0008(4) -0.4255(5) 0.86991(16)
H3 H -0.0258 -0.5154 0.8777
C7 C -0.0325(4) -0.3100(4) 0.89626(14)
C8 C 0.1911(5) -0.2426(5) 0.77771(17)
H4 H 0.2867 -0.2873 0.7853
H5 H 0.2037 -0.1440 0.7733
H6 H 0.1325 -0.2818 0.7478
C9 C 0.1135(6) -0.5276(5) 0.80349(18)
H7 H 0.0679 -0.5173 0.7690
H8 H 0.0782 -0.6119 0.8160
H9 H 0.2195 -0.5326 0.8074
C10 C -0.1728(4) -0.4079(5) 0.95918(16)
H10 H -0.2043 -0.4826 0.9354
H11 H -0.2606 -0.3718 0.9690
C11 C -0.0675(5) -0.4682(5) 1.00470(18)
H12 H -0.0395 -0.3938 1.0288
H13 H -0.1208 -0.5383 1.0194
C12 C 0.7738(5) 0.2073(4) 0.91361(18)
C13 C 0.1481(4) 0.2015(4) 0.90920(17)
C14 C 0.3804(4) 0.8712(4) 0.95420(16)
H14 H 0.3192 0.8385 0.9764
H15 H 0.3232 0.9394 0.9318
C15 C 0.5184(4) 0.9406(4) 0.98413(15)
H16 H 0.5774 0.9766 0.9618
H17 H 0.5776 0.8713 1.0054
C16 C 0.3988(4) 0.6164(5) 0.93402(16)
H18 H 0.3543 0.5840 0.9591
C17 C 0.4873(4) 0.7604(4) 0.88574(15)
C18 C 0.5349(5) 0.8729(5) 0.86138(15)
H19 H 0.5216 0.9647 0.8708
C19 C 0.6027(5) 0.8437(5) 0.82271(16)
C20 C 0.6227(5) 0.7044(5) 0.80791(16)
C21 C 0.5759(4) 0.5941(5) 0.83304(16)
H20 H 0.5898 0.5022 0.8238
C22 C 0.5072(4) 0.6222(4) 0.87275(15)
C23 C 0.6947(5) 0.6751(6) 0.76480(17)
H21 H 0.6393 0.7208 0.7356
H22 H 0.6957 0.5760 0.7591
H23 H 0.7948 0.7099 0.7722
C24 C 0.6594(5) 0.9653(5) 0.79664(18)
H24 H 0.6306 1.0520 0.8095
H25 H 0.6176 0.9602 0.7617
H26 H 0.7658 0.9608 0.8022
N1B N 0.0430(4) -0.9193(4) 1.08327(14)
N2B N 0.1065(3) -0.7040(4) 1.06488(13)
C1B C 0.1076(4) -0.8418(5) 1.05479(17)
H1B H 0.1502 -0.8788 1.0299
C2B C -0.0061(4) -0.8243(4) 1.11492(16)
C3B C -0.0791(4) -0.8479(5) 1.15330(15)
H2B H -0.1048 -0.9383 1.1609
C4B C -0.1130(4) -0.7340(5) 1.18012(16)
C5B C -0.0743(5) -0.5966(5) 1.16805(16)
C6B C -0.0008(4) -0.5745(5) 1.13009(16)
H3B H 0.0258 -0.4846 1.1223
C7B C 0.0325(4) -0.6900(4) 1.10374(14)
C8B C -0.1911(5) -0.7574(5) 1.22229(17)
H4B H -0.2867 -0.7127 1.2147
H5B H -0.2037 -0.8560 1.2267
H6B H -0.1325 -0.7182 1.2522
C9B C -0.1135(6) -0.4724(5) 1.19651(18)
H7B H -0.0679 -0.4827 1.2310
H8B H -0.0782 -0.3881 1.1840
H9B H -0.2195 -0.4674 1.1926
C10B C 0.1728(4) -0.5921(5) 1.04082(16)
H10B H 0.2043 -0.5174 1.0646
H11B H 0.2606 -0.6282 1.0310
C11B C 0.0675(5) -0.5318(5) 0.99530(18)
H12B H 0.0395 -0.6062 0.9712
H13B H 0.1208 -0.4617 0.9806
N5B N 0.5499(4) 1.4679(4) 1.09668(13)
N6B N 0.5825(4) 1.2470(4) 1.07455(12)
C14B C 0.6196(4) 1.1288(4) 1.04580(16)
H14B H 0.6808 1.1615 1.0236
H15B H 0.6768 1.0606 1.0682
C15B C 0.4816(4) 1.0594(4) 1.01587(15)
H16B H 0.4226 1.0234 1.0382
H17B H 0.4224 1.1287 0.9946
C16B C 0.6012(4) 1.3836(5) 1.06598(16)
H18B H 0.6457 1.4160 1.0409
C17B C 0.5127(4) 1.2396(4) 1.11426(15)
C18B C 0.4651(5) 1.1271(5) 1.13862(15)
H19B H 0.4784 1.0353 1.1292
C19B C 0.3973(5) 1.1563(5) 1.17729(16)
C20B C 0.3773(5) 1.2956(5) 1.19209(16)
C21B C 0.4241(4) 1.4059(5) 1.16696(16)
H20B H 0.4102 1.4978 1.1762
C22B C 0.4928(4) 1.3778(4) 1.12725(15)
C23B C 0.3053(5) 1.3249(6) 1.23520(17)
H21B H 0.3607 1.2792 1.2644
H22B H 0.3043 1.4240 1.2409
H23B H 0.2052 1.2901 1.2278
C24B C 0.3406(5) 1.0347(5) 1.20336(18)
H24B H 0.3694 0.9480 1.1905
H25B H 0.3824 1.0398 1.2383
H26B H 0.2342 1.0392 1.1978
Cu1B Cu -0.45737(6) -1.31908(6) 1.09314(2)
Cu2B Cu 0.03871(6) -1.13135(6) 1.08708(2)
N3B N -0.2652(5) -1.2429(4) 1.09173(15)
N4B N -0.6557(5) -1.2479(4) 1.08855(17)
C12B C -0.7738(5) -1.2073(4) 1.08639(18)
C13B C -0.1481(4) -1.2015(4) 1.09080(17)
Cu1B_2 Cu 0.54263(6) 1.68092(6) 1.09314(2)
Cu2_2 Cu 0.96129(6) 0.13135(6) 0.91292(2)
Cu2B_2 Cu -0.96129(6) -1.13135(6) 1.08708(2)
N5B_2 N -0.4501(4) -1.5321(4) 1.09668(13)
C12_2 C -0.2262(5) 0.2073(4) 0.91361(18)
C12B_2 C 0.2262(5) -1.2073(4) 1.08639(18)
loop_
_geom_bond_atom_site_label_1
_geom_bond_atom_site_label_2
_geom_bond_site_symmetry_1
_geom_bond_site_symmetry_2
Cu1 N3 1_555 1_555
Cu2 N1 1_555 1_555
N1 C1 1_555 1_555
N2 C1 1_555 1_555
N3 C13 1_555 1_555
N4 Cu1 1_555 1_555
N5 Cu1 1_555 1_555
N6 C14 1_555 1_555
C1 H1 1_555 1_555
C2 N1 1_555 1_555
C3 C2 1_555 1_555
H2 C3 1_555 1_555
C4 C3 1_555 1_555
C5 C4 1_555 1_555
C6 C5 1_555 1_555
H3 C6 1_555 1_555
C7 N2 1_555 1_555
C8 C4 1_555 1_555
H4 C8 1_555 1_555
H5 C8 1_555 1_555
H6 C8 1_555 1_555
C9 C5 1_555 1_555
H7 C9 1_555 1_555
H8 C9 1_555 1_555
H9 C9 1_555 1_555
C10 N2 1_555 1_555
H10 C10 1_555 1_555
H11 C10 1_555 1_555
C11 C10 1_555 1_555
H12 C11 1_555 1_555
H13 C11 1_555 1_555
C12 N4 1_555 1_555
C13 Cu2 1_555 1_555
C14 H14 1_555 1_555
H15 C14 1_555 1_555
C15 C14 1_555 1_555
H16 C15 1_555 1_555
H17 C15 1_555 1_555
C16 N5 1_555 1_555
H18 C16 1_555 1_555
C17 N6 1_555 1_555
C18 C17 1_555 1_555
H19 C18 1_555 1_555
C19 C18 1_555 1_555
C20 C19 1_555 1_555
C21 C20 1_555 1_555
H20 C21 1_555 1_555
C22 N5 1_555 1_555
C23 C20 1_555 1_555
H21 C23 1_555 1_555
H22 C23 1_555 1_555
H23 C23 1_555 1_555
C24 C19 1_555 1_555
H24 C24 1_555 1_555
H25 C24 1_555 1_555
H26 C24 1_555 1_555
N1B C1B 1_555 1_555
N2B C1B 1_555 1_555
C1B H1B 1_555 1_555
C2B N1B 1_555 1_555
C3B C2B 1_555 1_555
H2B C3B 1_555 1_555
C4B C3B 1_555 1_555
C5B C4B 1_555 1_555
C6B C5B 1_555 1_555
H3B C6B 1_555 1_555
C7B N2B 1_555 1_555
C8B C4B 1_555 1_555
H4B C8B 1_555 1_555
H5B C8B 1_555 1_555
H6B C8B 1_555 1_555
C9B C5B 1_555 1_555
H7B C9B 1_555 1_555
H8B C9B 1_555 1_555
H9B C9B 1_555 1_555
C10B N2B 1_555 1_555
H10B C10B 1_555 1_555
H11B C10B 1_555 1_555
C11B C11 1_555 1_555
H12B C11B 1_555 1_555
H13B C11B 1_555 1_555
N5B C16B 1_555 1_555
N6B C14B 1_555 1_555
C14B H14B 1_555 1_555
H15B C14B 1_555 1_555
C15B C15 1_555 1_555
H16B C15B 1_555 1_555
H17B C15B 1_555 1_555
C16B N6B 1_555 1_555
H18B C16B 1_555 1_555
C17B N6B 1_555 1_555
C18B C17B 1_555 1_555
H19B C18B 1_555 1_555
C19B C18B 1_555 1_555
C20B C19B 1_555 1_555
C21B C20B 1_555 1_555
H20B C21B 1_555 1_555
C22B N5B 1_555 1_555
C23B C20B 1_555 1_555
H21B C23B 1_555 1_555
H22B C23B 1_555 1_555
H23B C23B 1_555 1_555
C24B C19B 1_555 1_555
H24B C24B 1_555 1_555
H25B C24B 1_555 1_555
H26B C24B 1_555 1_555
Cu1B N3B 1_555 1_555
Cu2B N1B 1_555 1_555
N3B C13B 1_555 1_555
N4B Cu1B 1_555 1_555
C12B N4B 1_555 1_555
C13B Cu2B 1_555 1_555
Cu1B_2 N5B 1_555 1_555
Cu2_2 C12 1_555 1_555
Cu2B_2 C12B 1_555 1_555
N5B_2 Cu1B 1_555 1_555
C12_2 Cu2 1_555 1_555
C12B_2 Cu2B 1_555 1_555
N6 C16 1_555 1_555
C2 C7 1_555 1_555
C6 C7 1_555 1_555
C17 C22 1_555 1_555
C21 C22 1_555 1_555
C2B C7B 1_555 1_555
C6B C7B 1_555 1_555
C10B C11B 1_555 1_555
C14B C15B 1_555 1_555
C17B C22B 1_555 1_555
C21B C22B 1_555 1_555

#END
