
#######################################################################
#
#                 Cambridge Crystallographic Data Centre
#                                CCDC 
#
#######################################################################
#
# If this CIF has been generated from an entry in the Cambridge 
# Structural Database, then it will include bibliographic, chemical, 
# crystal, experimental, refinement or atomic coordinate data resulting 
# from the CCDC's data processing and validation procedures.
#
#######################################################################

data_RERQAH
_symmetry_cell_setting           monoclinic
_symmetry_space_group_name_H-M   'P 21/n'
_symmetry_Int_Tables_number      14
_space_group_name_Hall           '-P 2yn'
loop_
_symmetry_equiv_pos_site_id
_symmetry_equiv_pos_as_xyz
1 x,y,z
2 1/2-x,1/2+y,1/2-z
3 -x,-y,-z
4 1/2+x,1/2-y,1/2+z
_cell_length_a                   13.222(3)
_cell_length_b                   9.4395(19)
_cell_length_c                   16.383(3)
_cell_angle_alpha                90
_cell_angle_beta                 102.78(3)
_cell_angle_gamma                90
_cell_volume                     1994.09
loop_
_atom_site_label
_atom_site_type_symbol
_atom_site_fract_x
_atom_site_fract_y
_atom_site_fract_z
U1 U 0.74388(5) 0.77123(7) 0.04926(4)
U2 U 0.75485(5) 1.21104(7) 0.01750(4)
O1 O 0.6267(12) 0.7679(15) -0.0261(9)
O2 O 0.8621(12) 0.7788(15) 0.1252(9)
O3 O 0.6350(12) 1.1942(14) -0.0550(9)
O4 O 0.8738(13) 1.2202(16) 0.0904(10)
O5 O 0.7017(11) 1.0174(13) 0.0931(8)
O6 O 0.6472(11) 0.8410(14) 0.1557(9)
O7 O 0.3312(10) 0.8605(14) 0.4674(8)
O8 O 0.2831(13) 1.0814(17) 0.4604(11)
O9 O 0.8045(11) 0.9643(13) -0.0256(8)
O10 O 0.8451(13) 1.1445(15) -0.0914(9)
O11 O 1.2062(14) 0.9360(18) -0.4004(11)
O12 O 1.1797(14) 1.1562(13) -0.3923(10)
C1 C 0.6436(15) 0.9717(18) 0.1404(11)
C2 C 0.5789(15) 1.069(2) 0.1767(12)
H1 H 0.5339 1.1206 0.1315
H2 H 0.6237 1.1380 0.2110
C3 C 0.5118(15) 0.9986(18) 0.2301(12)
H3 H 0.5550 0.9669 0.2827
H4 H 0.4768 0.9167 0.2009
C4 C 0.4309(14) 1.107(2) 0.2469(11)
H5 H 0.4668 1.1895 0.2739
H6 H 0.3878 1.1365 0.1938
C5 C 0.3608(16) 1.047(2) 0.3023(13)
H7 H 0.3279 0.9607 0.2769
H8 H 0.3064 1.1148 0.3044
C6 C 0.4180(14) 1.0143(18) 0.3897(11)
H9 H 0.4630 0.9332 0.3895
H10 H 0.4606 1.0946 0.4127
C7 C 0.3416(16) 0.9829(17) 0.4424(12)
C8 C 0.8415(17) 1.0140(18) -0.0842(13)
C9 C 0.8829(13) 0.9176(19) -0.1413(11)
H11 H 0.8272 0.8561 -0.1694
H12 H 0.9360 0.8580 -0.1077
C10 C 0.9292(16) 0.9919(18) -0.2080(12)
H13 H 0.9933 1.0386 -0.1810
H14 H 0.8813 1.0640 -0.2355
C11 C 0.9507(13) 0.891(2) -0.2719(11)
H15 H 0.9951 0.8161 -0.2434
H16 H 0.8857 0.8478 -0.3001
C12 C 1.0014(14) 0.955(2) -0.3371(11)
H17 H 1.0036 0.8843 -0.3797
H18 H 0.9592 1.0331 -0.3638
C13 C 1.1109(15) 1.0083(19) -0.3019(12)
H19 H 1.1484 0.9373 -0.2642
H20 H 1.1072 1.0933 -0.2694
C14 C 1.1692(14) 1.0402(18) -0.3664(11)
U1C U 0.24388(5) 0.72877(7) 0.54926(4)
U1C_2 U 1.24388(5) 0.72877(7) -0.45074(4)
U2C U 0.25485(5) 1.28896(7) 0.51750(4)
U2C_2 U 1.25485(5) 1.28896(7) -0.48250(4)
O7C O 0.8312(10) 0.6395(14) -0.0326(8)
O8C O 0.7831(13) 1.4186(17) -0.0396(11)
O11C O 0.7062(14) 0.5640(18) 0.0996(11)
O12C O 0.6797(14) 1.3438(13) 0.1077(10)
loop_
_geom_bond_atom_site_label_1
_geom_bond_atom_site_label_2
_geom_bond_site_symmetry_1
_geom_bond_site_symmetry_2
U1 O1 1_555 1_555
U2 O3 1_555 1_555
O2 U1 1_555 1_555
O4 U2 1_555 1_555
O5 U1 1_555 1_555
O6 U1 1_555 1_555
O7 C7 1_555 1_555
O8 C7 1_555 1_555
O9 U1 1_555 1_555
O10 U2 1_555 1_555
O11 C14 1_555 1_555
O12 C14 1_555 1_555
C1 O5 1_555 1_555
C2 C1 1_555 1_555
H1 C2 1_555 1_555
H2 C2 1_555 1_555
C3 C2 1_555 1_555
H3 C3 1_555 1_555
H4 C3 1_555 1_555
C4 C3 1_555 1_555
H5 C4 1_555 1_555
H6 C4 1_555 1_555
C5 C4 1_555 1_555
H7 C5 1_555 1_555
H8 C5 1_555 1_555
C6 C5 1_555 1_555
H9 C6 1_555 1_555
H10 C6 1_555 1_555
C7 C6 1_555 1_555
C8 O9 1_555 1_555
C9 C8 1_555 1_555
H11 C9 1_555 1_555
H12 C9 1_555 1_555
C10 C9 1_555 1_555
H13 C10 1_555 1_555
H14 C10 1_555 1_555
C11 C10 1_555 1_555
H15 C11 1_555 1_555
H16 C11 1_555 1_555
C12 C11 1_555 1_555
H17 C12 1_555 1_555
H18 C12 1_555 1_555
C13 C12 1_555 1_555
H19 C13 1_555 1_555
H20 C13 1_555 1_555
C14 C13 1_555 1_555
U1C O7 1_555 1_555
U1C_2 O11 1_555 1_555
U2C O8 1_555 1_555
U2C_2 O12 1_555 1_555
O7C U1 1_555 1_555
O8C U2 1_555 1_555
O11C U1 1_555 1_555
O12C U2 1_555 1_555
U2 O5 1_555 1_555
U2 O9 1_555 1_555
O6 C1 1_555 1_555
O10 C8 1_555 1_555

#END
