
#######################################################################
#
#                 Cambridge Crystallographic Data Centre
#                                CCDC 
#
#######################################################################
#
# If this CIF has been generated from an entry in the Cambridge 
# Structural Database, then it will include bibliographic, chemical, 
# crystal, experimental, refinement or atomic coordinate data resulting 
# from the CCDC's data processing and validation procedures.
#
#######################################################################

data_RERRIQ
_symmetry_cell_setting           monoclinic
_symmetry_space_group_name_H-M   'C 2/c'
_symmetry_Int_Tables_number      15
_space_group_name_Hall           '-C 2yn'
loop_
_symmetry_equiv_pos_site_id
_symmetry_equiv_pos_as_xyz
1 x,y,z
2 1/2+x,1/2+y,z
3 -x,y,1/2-z
4 1/2-x,1/2+y,1/2-z
5 -x,-y,-z
6 1/2-x,1/2-y,-z
7 x,-y,1/2+z
8 1/2+x,1/2-y,1/2+z
_cell_length_a                   21.3325(15)
_cell_length_b                   10.7195(7)
_cell_length_c                   33.626(2)
_cell_angle_alpha                90
_cell_angle_beta                 105.4250(10)
_cell_angle_gamma                90
_cell_volume                     7412.41
loop_
_atom_site_label
_atom_site_type_symbol
_atom_site_fract_x
_atom_site_fract_y
_atom_site_fract_z
U1 U 0.40099(2) 0.62552(4) 0.119297(14)
U2 U 0.32693(2) 0.88854(3) 0.174372(13)
U3 U 0.22286(2) 0.17318(4) 0.127880(13)
U4 U 0.30258(2) 0.91705(4) 0.062637(13)
O1 O 0.3498(4) 0.8045(6) 0.1194(2)
O2 O 0.2797(4) 1.0098(6) 0.1179(2)
O3 O 0.3275(4) 0.5422(7) 0.0996(3)
O4 O 0.4775(4) 0.6989(7) 0.1390(3)
O5 O 0.2522(4) 0.8078(7) 0.1680(2)
O6 O 0.4016(4) 0.9708(7) 0.1867(2)
O7 O 0.1504(4) 0.0867(7) 0.1206(3)
O8 O 0.2909(4) 0.2734(7) 0.1364(3)
O9 O 0.2344(4) 0.8150(7) 0.0536(3)
O10 O 0.3707(4) 1.0173(7) 0.0681(2)
O11 O 0.4345(5) 0.5920(8) 0.0553(3)
O12 O 0.3692(5) 0.7454(7) 0.0478(3)
O13 O 0.2750(5) 0.0709(6) 0.1945(2)
O14 O 0.2168(5) 0.2307(7) 0.2010(2)
O15 O 0.4192(5) 0.5042(7) 0.1849(3)
O16 O 0.3804(5) 0.6868(7) 0.1905(3)
O17 O 0.6964(6) 0.7152(11) 0.0590(3)
O18 O 0.7271(6) 0.5687(9) 0.0244(3)
O19 O 0.3471(5) 0.8665(7) 0.2502(3)
C11 C 0.4084(6) 0.6789(11) 0.0342(4)
C12 C 0.4189(8) 0.7053(13) -0.0073(4)
H9 H 0.3807 0.7465 -0.0244
H10 H 0.4246 0.6273 -0.0204
C13 C 0.4773(8) 0.7864(15) -0.0039(5)
H11 H 0.4828 0.8410 0.0197
H12 H 0.4701 0.8382 -0.0284
C14 C 0.4152(7) 0.4279(12) 0.2650(4)
H13 H 0.4453 0.3865 0.2522
H14 H 0.4334 0.4247 0.2946
C15 C 0.3516(8) 0.3606(12) 0.2538(4)
H15 H 0.3338 0.3628 0.2241
H16 H 0.3213 0.4031 0.2662
C16 C 0.3586(7) 0.2222(11) 0.2685(4)
H17 H 0.3845 0.1779 0.2533
H18 H 0.3821 0.2203 0.2974
C17 C 0.2939(7) 0.1526(10) 0.2630(4)
H19 H 0.3020 0.0677 0.2731
H20 H 0.2676 0.1940 0.2785
C18 C 0.2592(7) 0.1519(11) 0.2179(4)
C19 C 0.4013(7) 0.5816(11) 0.2062(4)
C20 C 0.4076(7) 0.5618(11) 0.2512(4)
H21 H 0.3693 0.5957 0.2577
H22 H 0.4449 0.6084 0.2670
C21 C 0.5405(8) 0.7085(14) 0.0008(5)
H23 H 0.5551 0.6762 0.0287
H24 H 0.5315 0.6381 -0.0180
C22 C 0.5904(8) 0.7827(13) -0.0079(5)
H25 H 0.6050 0.8428 0.0142
H26 H 0.5724 0.8289 -0.0332
C23 C 0.6491(6) 0.7083(11) -0.0126(4)
H27 H 0.6334 0.6382 -0.0307
H28 H 0.6743 0.7610 -0.0260
C24 C 0.6927(7) 0.6604(12) 0.0261(4)
H31 H 0.321(5) 0.920(9) 0.248(4)
H32 H 0.326(6) 0.825(11) 0.261(4)
U2_2 U 0.32693(2) -0.11146(3) 0.174372(13)
U3_2 U 0.22286(2) 1.17318(4) 0.127880(13)
U3A U 0.72286(2) 0.67318(4) 0.127880(13)
U4A U 0.80258(2) 0.41705(4) 0.062637(13)
O2_2 O 0.2797(4) 0.0098(6) 0.1179(2)
O13_2 O 0.2750(5) 1.0709(6) 0.1945(2)
O17A O 0.1964(6) 0.2152(11) 0.0590(3)
O18A O 0.2271(6) 1.0687(9) 0.0244(3)
O20 O 0.2916(6) 0.9202(7) -0.0154(3)
H33 H 0.282(7) 0.851(5) -0.024(4)
H34 H 0.268(6) 0.972(9) -0.029(4)
O21 O 0.5318(7) 0.8724(14) 0.2077(5)
H29 H 0.522(8) 0.927(10) 0.221(4)
H30 H 0.528(8) 0.808(7) 0.195(4)
N1 N 0.4668(5) 0.4220(7) 0.1200(3)
N2 N 0.6539(5) -0.1267(8) 0.1226(3)
C1 C 0.4787(6) 0.2011(9) 0.1278(4)
H1 H 0.4608 0.1255 0.1327
C2 C 0.4443(6) 0.3095(9) 0.1275(4)
H2 H 0.4037 0.3051 0.1327
C3 C 0.5247(6) 0.4251(9) 0.1136(3)
H3 H 0.5413 0.5024 0.1090
C4 C 0.5632(6) 0.3204(9) 0.1133(4)
H4 H 0.6038 0.3283 0.1083
C5 C 0.5399(6) 0.2032(9) 0.1207(3)
C6 C 0.5787(6) 0.0884(9) 0.1203(3)
C7 C 0.5515(7) -0.0289(10) 0.1151(4)
H5 H 0.5068 -0.0383 0.1105
C8 C 0.5906(8) -0.1336(11) 0.1167(5)
H6 H 0.5711 -0.2119 0.1134
C9 C 0.6800(7) -0.0141(10) 0.1257(4)
H7 H 0.7244 -0.0083 0.1283
C10 C 0.6465(6) 0.0934(10) 0.1253(4)
H8 H 0.6680 0.1698 0.1282
loop_
_geom_bond_atom_site_label_1
_geom_bond_atom_site_label_2
_geom_bond_site_symmetry_1
_geom_bond_site_symmetry_2
U1 O1 1_555 1_555
U2 O1 1_555 1_555
U3 O7 1_555 1_555
U4 O1 1_555 1_555
O2 U2 1_555 1_555
O3 U1 1_555 1_555
O4 U1 1_555 1_555
O5 U2 1_555 1_555
O6 U2 1_555 1_555
O8 U3 1_555 1_555
O9 U4 1_555 1_555
O10 U4 1_555 1_555
O11 U1 1_555 1_555
O12 U4 1_555 1_555
O13 U3 1_555 1_555
O14 C18 1_555 1_555
O15 U1 1_555 1_555
O16 U2 1_555 1_555
O17 C24 1_555 1_555
O18 C24 1_555 1_555
O19 U2 1_555 1_555
O20 H33 1_555 1_555
O21 H29 1_555 1_555
N1 C2 1_555 1_555
N2 C8 1_555 1_555
C1 H1 1_555 1_555
C2 C1 1_555 1_555
H2 C2 1_555 1_555
C3 N1 1_555 1_555
H3 C3 1_555 1_555
C4 C3 1_555 1_555
H4 C4 1_555 1_555
C5 C1 1_555 1_555
C6 C5 1_555 1_555
C7 C6 1_555 1_555
H5 C7 1_555 1_555
C8 C7 1_555 1_555
H6 C8 1_555 1_555
C9 N2 1_555 1_555
H7 C9 1_555 1_555
C10 C6 1_555 1_555
H8 C10 1_555 1_555
C11 O11 1_555 1_555
C12 C11 1_555 1_555
H9 C12 1_555 1_555
H10 C12 1_555 1_555
C13 C12 1_555 1_555
H11 C13 1_555 1_555
H12 C13 1_555 1_555
C14 H13 1_555 1_555
H14 C14 1_555 1_555
C15 C14 1_555 1_555
H15 C15 1_555 1_555
H16 C15 1_555 1_555
C16 C15 1_555 1_555
H17 C16 1_555 1_555
H18 C16 1_555 1_555
C17 C16 1_555 1_555
H19 C17 1_555 1_555
H20 C17 1_555 1_555
C18 O13 1_555 1_555
C19 O15 1_555 1_555
C20 C14 1_555 1_555
H21 C20 1_555 1_555
H22 C20 1_555 1_555
C21 C13 1_555 1_555
H23 C21 1_555 1_555
H24 C21 1_555 1_555
C22 C21 1_555 1_555
H25 C22 1_555 1_555
H26 C22 1_555 1_555
C23 C22 1_555 1_555
H27 C23 1_555 1_555
H28 C23 1_555 1_555
C24 C23 1_555 1_555
H30 O21 1_555 1_555
H31 O19 1_555 1_555
H32 O19 1_555 1_555
H34 O20 1_555 1_555
U2_2 O13 1_555 1_555
U3_2 O2 1_555 1_555
U3A O17 1_555 1_555
U4A O18 1_555 1_555
O2_2 U3 1_555 1_555
O13_2 U2 1_555 1_555
O17A U3 1_555 1_555
O18A U4 1_555 1_555
U4 O2 1_555 1_555
O12 C11 1_555 1_555
O16 C19 1_555 1_555
C4 C5 1_555 1_555
C9 C10 1_555 1_555
C17 C18 1_555 1_555
C19 C20 1_555 1_555
U2_2 O2_2 1_555 1_555
U3_2 O13_2 1_555 1_555

#END
