
#######################################################################
#
#                 Cambridge Crystallographic Data Centre
#                                CCDC 
#
#######################################################################
#
# If this CIF has been generated from an entry in the Cambridge 
# Structural Database, then it will include bibliographic, chemical, 
# crystal, experimental, refinement or atomic coordinate data resulting 
# from the CCDC's data processing and validation procedures.
#
#######################################################################

data_RERROW
_symmetry_cell_setting           monoclinic
_symmetry_space_group_name_H-M   'C 2/c'
_symmetry_Int_Tables_number      15
_space_group_name_Hall           '-C 2yn'
loop_
_symmetry_equiv_pos_site_id
_symmetry_equiv_pos_as_xyz
1 x,y,z
2 1/2+x,1/2+y,z
3 -x,y,1/2-z
4 1/2-x,1/2+y,1/2-z
5 -x,-y,-z
6 1/2-x,1/2-y,-z
7 x,-y,1/2+z
8 1/2+x,1/2-y,1/2+z
_cell_length_a                   15.4208(3)
_cell_length_b                   27.9321(6)
_cell_length_c                   11.0768(3)
_cell_angle_alpha                90
_cell_angle_beta                 112.3050(10)
_cell_angle_gamma                90
_cell_volume                     4414.17
loop_
_atom_site_label
_atom_site_type_symbol
_atom_site_fract_x
_atom_site_fract_y
_atom_site_fract_z
U1 U 0.269902(13) 0.117175(8) 0.229565(19)
U2 U 0.5000 0.050253(10) 0.2500
U3 U 0.5000 0.182741(10) 0.2500
O1 O 0.2340(3) 0.10551(14) 0.0595(4)
O2 O 0.2985(3) 0.12956(15) 0.3970(4)
O3 O 0.4413(3) 0.04600(14) 0.0776(4)
O4 O 0.4630(3) 0.18772(14) 0.0771(4)
O5 O 0.4180(3) 0.11681(13) 0.2536(4)
O6 O 0.0947(3) 0.11684(14) 0.1988(5)
H1 H 0.071(4) 0.0947(16) 0.218(6)
H2 H 0.076(5) 0.1413(14) 0.215(7)
O7 O 0.3500(3) 0.03130(14) 0.2738(4)
O8 O 0.2052(3) 0.04012(16) 0.2521(5)
O9 O 0.1629(3) -0.29674(14) 0.2806(4)
O10 O 0.3131(3) -0.30574(14) 0.3323(4)
N1 N 0.5000 0.5309(2) 0.2500
N2 N 0.5000 0.2759(2) 0.2500
N3 N 0.5000 -0.0419(2) 0.2500
N4 N 0.5000 -0.2979(3) 0.2500
C1 C 0.4639(4) 0.5062(2) 0.1391(6)
H3 H 0.4389 0.5231 0.0611
C2 C 0.4618(4) 0.4566(2) 0.1345(6)
H4 H 0.4350 0.4409 0.0549
C3 C 0.5000 0.4303(3) 0.2500
C4 C 0.5000 0.3768(3) 0.2500
C5 C 0.4667(4) 0.3505(2) 0.1342(6)
H5 H 0.4445 0.3664 0.0544
C6 C 0.4667(4) 0.3008(2) 0.1372(5)
H6 H 0.4428 0.2841 0.0588
C7 C 0.5129(4) -0.0673(2) 0.3592(5)
H7 H 0.5230 -0.0506 0.4360
C8 C 0.5119(4) -0.1166(2) 0.3632(5)
H8 H 0.5192 -0.1324 0.4404
C9 C 0.5000 -0.1429(3) 0.2500
C10 C 0.5000 -0.1955(3) 0.2500
C11 C 0.5547(4) -0.2222(2) 0.3608(6)
H9 H 0.5917 -0.2067 0.4375
C12 C 0.5525(4) -0.2713(2) 0.3542(6)
H10 H 0.5908 -0.2878 0.4281
C13 C 0.2731(4) 0.0127(2) 0.2681(6)
C14 C 0.2609(4) -0.0397(2) 0.2738(6)
H11 H 0.2057 -0.0462 0.2931
H12 H 0.3148 -0.0531 0.3435
C15 C 0.2501(4) -0.0637(2) 0.1435(6)
H13 H 0.2116 -0.0434 0.0722
H14 H 0.3114 -0.0662 0.1385
C16 C 0.2067(4) -0.1128(2) 0.1265(6)
H15 H 0.2130 -0.1280 0.0515
H16 H 0.1402 -0.1094 0.1079
C17 C 0.2499(4) -0.1454(2) 0.2449(6)
H17 H 0.3176 -0.1425 0.2761
H18 H 0.2307 -0.1341 0.3138
C18 C 0.2241(4) -0.1972(2) 0.2203(6)
H19 H 0.2507 -0.2100 0.1605
H20 H 0.1565 -0.2001 0.1792
C19 C 0.2590(4) -0.2266(2) 0.3454(6)
H21 H 0.3252 -0.2203 0.3924
H22 H 0.2260 -0.2166 0.4003
C20 C 0.2451(4) -0.2788(2) 0.3202(6)
U1B U 0.730098(13) 0.117175(8) 0.270435(19)
U1C U 0.230098(13) -0.382825(8) 0.270435(19)
U1A U 0.769902(13) -0.382825(8) 0.229565(19)
U3A U 0.0000 -0.317259(10) 0.2500
U3A_2 U 1.0000 -0.317259(10) 0.2500
O1B O 0.7660(3) 0.10551(14) 0.4405(4)
O2B O 0.7015(3) 0.12956(15) 0.1030(4)
O3B O 0.5587(3) 0.04600(14) 0.4224(4)
O4B O 0.5370(3) 0.18772(14) 0.4229(4)
O5B O 0.5820(3) 0.11681(13) 0.2464(4)
O6B O 0.9053(3) 0.11684(14) 0.3012(5)
H1B H 0.929(4) 0.0947(16) 0.282(6)
H2B H 0.924(5) 0.1413(14) 0.285(7)
O7B O 0.6500(3) 0.03130(14) 0.2262(4)
O8B O 0.7948(3) 0.04012(16) 0.2479(5)
O9B O 0.8371(3) -0.29674(14) 0.2194(4)
O9C O 0.3371(3) 0.20326(14) 0.2194(4)
O9A O 0.6629(3) 0.20326(14) 0.2806(4)
O10B O 0.6869(3) -0.30574(14) 0.1677(4)
O10C O 0.1869(3) 0.19426(14) 0.1677(4)
O10A O 0.8131(3) 0.19426(14) 0.3323(4)
C1B C 0.5361(4) 0.5062(2) 0.3609(6)
H3B H 0.5611 0.5231 0.4389
C2B C 0.5382(4) 0.4566(2) 0.3655(6)
H4B H 0.5650 0.4409 0.4451
C5B C 0.5333(4) 0.3505(2) 0.3658(6)
H5B H 0.5555 0.3664 0.4456
C6B C 0.5333(4) 0.3008(2) 0.3628(5)
H6B H 0.5572 0.2841 0.4412
C7B C 0.4871(4) -0.0673(2) 0.1408(5)
H7B H 0.4770 -0.0506 0.0640
C8B C 0.4881(4) -0.1166(2) 0.1368(5)
H8B H 0.4808 -0.1324 0.0596
C11B C 0.4453(4) -0.2222(2) 0.1392(6)
H9B H 0.4083 -0.2067 0.0625
C12B C 0.4475(4) -0.2713(2) 0.1458(6)
H10B H 0.4092 -0.2878 0.0719
C13B C 0.7269(4) 0.0127(2) 0.2319(6)
C14B C 0.7391(4) -0.0397(2) 0.2262(6)
H11B H 0.7943 -0.0462 0.2069
H12B H 0.6852 -0.0531 0.1565
C15B C 0.7499(4) -0.0637(2) 0.3565(6)
H13B H 0.7884 -0.0434 0.4278
H14B H 0.6886 -0.0662 0.3615
C16B C 0.7933(4) -0.1128(2) 0.3735(6)
H15B H 0.7870 -0.1280 0.4485
H16B H 0.8598 -0.1094 0.3921
C17B C 0.7501(4) -0.1454(2) 0.2551(6)
H17B H 0.6824 -0.1425 0.2239
H18B H 0.7693 -0.1341 0.1862
C18B C 0.7759(4) -0.1972(2) 0.2797(6)
H19B H 0.7493 -0.2100 0.3395
H20B H 0.8435 -0.2001 0.3208
C19B C 0.7410(4) -0.2266(2) 0.1546(6)
H21B H 0.6748 -0.2203 0.1076
H22B H 0.7740 -0.2166 0.0997
C20B C 0.7549(4) -0.2788(2) 0.1798(6)
loop_
_geom_bond_atom_site_label_1
_geom_bond_atom_site_label_2
_geom_bond_site_symmetry_1
_geom_bond_site_symmetry_2
U1 O1 1_555 1_555
U2 O3 1_555 1_555
U3 O4 1_555 1_555
O2 U1 1_555 1_555
O5 U1 1_555 1_555
O6 U1 1_555 1_555
H1 O6 1_555 1_555
H2 O6 1_555 1_555
O7 U1 1_555 1_555
O8 U1 1_555 1_555
O9 C20 1_555 1_555
O10 C20 1_555 1_555
N1 C1 1_555 1_555
N2 U3 1_555 1_555
N3 U2 1_555 1_555
N4 C12 1_555 1_555
C1 H3 1_555 1_555
C2 C1 1_555 1_555
H4 C2 1_555 1_555
C3 C2 1_555 1_555
C4 C3 1_555 1_555
C5 C4 1_555 1_555
H5 C5 1_555 1_555
C6 N2 1_555 1_555
H6 C6 1_555 1_555
C7 N3 1_555 1_555
H7 C7 1_555 1_555
C8 C7 1_555 1_555
H8 C8 1_555 1_555
C9 C8 1_555 1_555
C10 C9 1_555 1_555
C11 C10 1_555 1_555
H9 C11 1_555 1_555
C12 C11 1_555 1_555
H10 C12 1_555 1_555
C13 O7 1_555 1_555
C14 C13 1_555 1_555
H11 C14 1_555 1_555
H12 C14 1_555 1_555
C15 C14 1_555 1_555
H13 C15 1_555 1_555
H14 C15 1_555 1_555
C16 C15 1_555 1_555
H15 C16 1_555 1_555
H16 C16 1_555 1_555
C17 C16 1_555 1_555
H17 C17 1_555 1_555
H18 C17 1_555 1_555
C18 C17 1_555 1_555
H19 C18 1_555 1_555
H20 C18 1_555 1_555
C19 C18 1_555 1_555
H21 C19 1_555 1_555
H22 C19 1_555 1_555
C20 C19 1_555 1_555
U1B O1B 1_555 1_555
U1C O9 1_555 1_555
U1A O9B 1_555 1_555
U3A O9 1_555 1_555
U3A_2 O9B 1_555 1_555
O2B U1B 1_555 1_555
O3B U2 1_555 1_555
O4B U3 1_555 1_555
O5B U2 1_555 1_555
O6B U1B 1_555 1_555
H1B O6B 1_555 1_555
H2B O6B 1_555 1_555
O7B U2 1_555 1_555
O8B U1B 1_555 1_555
O9B C20B 1_555 1_555
O9C U1 1_555 1_555
O9A U3 1_555 1_555
O10B U1A 1_555 1_555
O10C U1 1_555 1_555
O10A U1B 1_555 1_555
C1B N1 1_555 1_555
H3B C1B 1_555 1_555
C2B C3 1_555 1_555
H4B C2B 1_555 1_555
C5B C4 1_555 1_555
H5B C5B 1_555 1_555
C6B N2 1_555 1_555
H6B C6B 1_555 1_555
C7B N3 1_555 1_555
H7B C7B 1_555 1_555
C8B C9 1_555 1_555
H8B C8B 1_555 1_555
C11B C10 1_555 1_555
H9B C11B 1_555 1_555
C12B N4 1_555 1_555
H10B C12B 1_555 1_555
C13B O7B 1_555 1_555
C14B C13B 1_555 1_555
H11B C14B 1_555 1_555
H12B C14B 1_555 1_555
C15B C14B 1_555 1_555
H13B C15B 1_555 1_555
H14B C15B 1_555 1_555
C16B C15B 1_555 1_555
H15B C16B 1_555 1_555
H16B C16B 1_555 1_555
C17B C16B 1_555 1_555
H17B C17B 1_555 1_555
H18B C17B 1_555 1_555
C18B C17B 1_555 1_555
H19B C18B 1_555 1_555
H20B C18B 1_555 1_555
C19B C18B 1_555 1_555
H21B C19B 1_555 1_555
H22B C19B 1_555 1_555
C20B O10B 1_555 1_555
U2 O5 1_555 1_555
U2 O7 1_555 1_555
U3 O5 1_555 1_555
U3 O5B 1_555 1_555
U3 O9C 1_555 1_555
O8 C13 1_555 1_555
O10 U1C 1_555 1_555
C5 C6 1_555 1_555
U1B O5B 1_555 1_555
U1B O7B 1_555 1_555
U1B O9A 1_555 1_555
O8B C13B 1_555 1_555
C1B C2B 1_555 1_555
C5B C6B 1_555 1_555
C7B C8B 1_555 1_555
C11B C12B 1_555 1_555
C19B C20B 1_555 1_555

#END
