
#######################################################################
#
#                 Cambridge Crystallographic Data Centre
#                                CCDC 
#
#######################################################################
#
# If this CIF has been generated from an entry in the Cambridge 
# Structural Database, then it will include bibliographic, chemical, 
# crystal, experimental, refinement or atomic coordinate data resulting 
# from the CCDC's data processing and validation procedures.
#
#######################################################################

data_RERREM
_symmetry_cell_setting           triclinic
_symmetry_space_group_name_H-M   'P -1'
_symmetry_Int_Tables_number      2
_space_group_name_Hall           '-P 1'
loop_
_symmetry_equiv_pos_site_id
_symmetry_equiv_pos_as_xyz
1 x,y,z
2 -x,-y,-z
_cell_length_a                   9.2194(5)
_cell_length_b                   12.1003(8)
_cell_length_c                   12.6351(8)
_cell_angle_alpha                85.6120(10)
_cell_angle_beta                 75.136(2)
_cell_angle_gamma                78.964(2)
_cell_volume                     1336.62
loop_
_atom_site_label
_atom_site_type_symbol
_atom_site_fract_x
_atom_site_fract_y
_atom_site_fract_z
U1 U 0.66640(2) 0.661865(19) 0.074050(16)
O1 O 0.8635(4) 0.6672(4) 0.0462(3)
O2 O 0.4696(4) 0.6531(3) 0.1054(3)
O3 O 0.6762(4) 0.6725(3) -0.1233(3)
O4 O 0.6172(4) 0.8301(3) -0.0383(3)
O5 O 0.6088(4) 0.8330(3) -0.8172(3)
O6 O 0.6510(5) 0.6737(3) -0.7281(3)
O7 O 0.7098(5) 0.4733(3) 0.1660(3)
O8 O 0.7365(4) 0.4755(3) -0.0098(3)
O9 O 0.9906(7) 0.1799(8) 0.5357(5)
O10 O 0.7507(6) 0.1817(6) 0.6057(4)
H1 H 0.7786 0.1686 0.6627
C1 C 0.6384(6) 0.7791(5) -0.1256(4)
C2 C 0.6193(7) 0.8433(5) -0.2292(4)
H3 H 0.6899 0.8959 -0.2465
H4 H 0.5169 0.8872 -0.2152
C3 C 0.6442(6) 0.7736(5) -0.3288(4)
H5 H 0.5772 0.7185 -0.3112
H6 H 0.7484 0.7330 -0.3462
C4 C 0.6152(7) 0.8427(5) -0.4287(4)
H7 H 0.6838 0.8968 -0.4471
H8 H 0.5118 0.8847 -0.4106
C5 C 0.6366(7) 0.7732(5) -0.5286(4)
H9 H 0.5686 0.7188 -0.5102
H10 H 0.7403 0.7317 -0.5472
C6 C 0.6057(6) 0.8440(5) -0.6288(4)
H11 H 0.5030 0.8870 -0.6084
H12 H 0.6751 0.8974 -0.6468
C7 C 0.6211(6) 0.7810(5) -0.7302(4)
C8 C 0.7380(6) 0.4194(5) 0.0790(5)
C9 C 0.7679(7) 0.2936(5) 0.0779(5)
H13 H 0.8621 0.2695 0.0234
H14 H 0.6866 0.2700 0.0544
C10 C 0.7802(7) 0.2320(5) 0.1861(5)
H15 H 0.6957 0.2654 0.2442
H16 H 0.7719 0.1539 0.1815
C11 C 0.9284(7) 0.2364(6) 0.2152(5)
H17 H 0.9364 0.3147 0.2189
H18 H 1.0123 0.2032 0.1566
C12 C 0.9467(9) 0.1758(9) 0.3239(6)
H19 H 0.9626 0.0953 0.3138
H20 H 1.0386 0.1919 0.3388
C13 C 0.8264(10) 0.2023(10) 0.4171(6)
H21 H 0.7474 0.1602 0.4157
H22 H 0.7835 0.2817 0.4119
C14 C 0.8655(11) 0.1794(10) 0.5258(7)
U1_2 U 0.66640(2) 0.661865(19) 1.074050(16)
U1_3 U 0.66640(2) 0.661865(19) -0.925950(16)
O1_2 O 0.8635(4) 0.6672(4) 1.0462(3)
O2_2 O 0.4696(4) 0.6531(3) 1.1054(3)
O3_2 O 0.6762(4) 0.6725(3) 0.8767(3)
O4_2 O 0.6172(4) 0.8301(3) 0.9617(3)
O5_2 O 0.6088(4) 0.8330(3) 0.1828(3)
O5_3 O 0.6088(4) 0.8330(3) 1.1828(3)
O6_2 O 0.6510(5) 0.6737(3) 0.2719(3)
O6_3 O 0.6510(5) 0.6737(3) 1.2719(3)
O7_2 O 0.7098(5) 0.4733(3) 1.1660(3)
O8_2 O 0.7365(4) 0.4755(3) 0.9902(3)
O9_2 O 0.9906(7) 0.1799(8) 1.5357(5)
O10_2 O 0.7507(6) 0.1817(6) 1.6057(4)
H1_2 H 0.7786 0.1686 1.6627
C1_2 C 0.6384(6) 0.7791(5) 0.8744(4)
C2_2 C 0.6193(7) 0.8433(5) 0.7708(4)
H3_2 H 0.6899 0.8959 0.7535
H4_2 H 0.5169 0.8872 0.7848
C3_2 C 0.6442(6) 0.7736(5) 0.6712(4)
H5_2 H 0.5772 0.7185 0.6888
H6_2 H 0.7484 0.7330 0.6538
C4_2 C 0.6152(7) 0.8427(5) 0.5713(4)
H7_2 H 0.6838 0.8968 0.5529
H8_2 H 0.5118 0.8847 0.5894
C5_2 C 0.6366(7) 0.7732(5) 0.4714(4)
H9_2 H 0.5686 0.7188 0.4898
H10_2 H 0.7403 0.7317 0.4528
C6_2 C 0.6057(6) 0.8440(5) 0.3712(4)
H11_2 H 0.5030 0.8870 0.3916
H12_2 H 0.6751 0.8974 0.3532
C7_2 C 0.6211(6) 0.7810(5) 0.2698(4)
C8_2 C 0.7380(6) 0.4194(5) 1.0790(5)
C9_2 C 0.7679(7) 0.2936(5) 1.0779(5)
H13_2 H 0.8621 0.2695 1.0234
H14_2 H 0.6866 0.2700 1.0544
C10_2 C 0.7802(7) 0.2320(5) 1.1861(5)
H15_2 H 0.6957 0.2654 1.2442
H16_2 H 0.7719 0.1539 1.1815
C11_2 C 0.9284(7) 0.2364(6) 1.2152(5)
H17_2 H 0.9364 0.3147 1.2189
H18_2 H 1.0123 0.2032 1.1566
C12_2 C 0.9467(9) 0.1758(9) 1.3239(6)
H19_2 H 0.9626 0.0953 1.3138
H20_2 H 1.0386 0.1919 1.3388
C13_2 C 0.8264(10) 0.2023(10) 1.4171(6)
H21_2 H 0.7474 0.1602 1.4157
H22_2 H 0.7835 0.2817 1.4119
C14_2 C 0.8655(11) 0.1794(10) 1.5258(7)
O11 O 0.5947(7) 0.4707(6) 0.3981(4)
H31 H 0.533(7) 0.511(5) 0.442(4)
H32 H 0.612(8) 0.463(6) 0.3323(19)
N1 N 0.1886(5) 0.5475(4) 0.2296(4)
H2 H 0.2360 0.5577 0.1625
C15 C -0.0302(6) 0.5180(5) 0.3575(4)
H23 H -0.1321 0.5106 0.3727
C16 C 0.0466(7) 0.5357(5) 0.2519(5)
H24 H -0.0026 0.5393 0.1957
C17 C 0.2619(7) 0.5441(6) 0.3070(5)
H25 H 0.3629 0.5543 0.2888
C18 C 0.1905(7) 0.5258(6) 0.4134(5)
H26 H 0.2432 0.5233 0.4675
C19 C 0.0403(6) 0.5108(5) 0.4420(4)
N1A N -0.1886(5) 0.4525(4) 0.7704(4)
H2A H -0.2360 0.4423 0.8375
C15A C 0.0302(6) 0.4820(5) 0.6425(4)
H23A H 0.1321 0.4894 0.6273
C16A C -0.0466(7) 0.4643(5) 0.7481(5)
H24A H 0.0026 0.4607 0.8043
C17A C -0.2619(7) 0.4559(6) 0.6930(5)
H25A H -0.3629 0.4457 0.7112
C18A C -0.1905(7) 0.4742(6) 0.5866(5)
H26A H -0.2432 0.4767 0.5325
C19A C -0.0403(6) 0.4892(5) 0.5580(4)
N2 N 0.1707(6) 0.8645(5) 0.2082(4)
C20 C 0.1883(6) 0.9748(5) 0.0421(5)
H27 H 0.2471 1.0140 -0.0135
C21 C 0.0356(6) 0.9714(5) 0.0430(5)
C22 C -0.0444(7) 0.9109(5) 0.1292(5)
H28 H -0.1447 0.9047 0.1331
C23 C 0.0267(8) 0.8602(6) 0.2086(5)
H29 H -0.0288 0.8206 0.2658
C24 C 0.2487(7) 0.9197(6) 0.1242(6)
H30 H 0.3503 0.9209 0.1210
N2A N -0.1707(6) 1.1355(5) -0.2082(4)
C20A C -0.1883(6) 1.0252(5) -0.0421(5)
H27A H -0.2471 0.9860 0.0135
C21A C -0.0356(6) 1.0286(5) -0.0430(5)
C22A C 0.0444(7) 1.0891(5) -0.1292(5)
H28A H 0.1447 1.0953 -0.1331
C23A C -0.0267(8) 1.1398(6) -0.2086(5)
H29A H 0.0288 1.1794 -0.2658
C24A C -0.2487(7) 1.0803(6) -0.1242(6)
H30A H -0.3503 1.0791 -0.1210
loop_
_geom_bond_atom_site_label_1
_geom_bond_atom_site_label_2
_geom_bond_site_symmetry_1
_geom_bond_site_symmetry_2
U1 O1 1_555 1_555
O2 U1 1_555 1_555
O3 U1 1_555 1_555
O4 U1 1_555 1_555
O5 C7 1_555 1_555
O6 C7 1_555 1_555
O7 U1 1_555 1_555
O8 U1 1_555 1_555
O9 C14 1_555 1_555
O10 H1 1_555 1_555
O11 H31 1_555 1_555
N1 H2 1_555 1_555
N2 C23 1_555 1_555
C1 O3 1_555 1_555
C2 C1 1_555 1_555
H3 C2 1_555 1_555
H4 C2 1_555 1_555
C3 C2 1_555 1_555
H5 C3 1_555 1_555
H6 C3 1_555 1_555
C4 C3 1_555 1_555
H7 C4 1_555 1_555
H8 C4 1_555 1_555
C5 C4 1_555 1_555
H9 C5 1_555 1_555
H10 C5 1_555 1_555
C6 C5 1_555 1_555
H11 C6 1_555 1_555
H12 C6 1_555 1_555
C7 C6 1_555 1_555
C8 O7 1_555 1_555
C9 C8 1_555 1_555
H13 C9 1_555 1_555
H14 C9 1_555 1_555
C10 C9 1_555 1_555
H15 C10 1_555 1_555
H16 C10 1_555 1_555
C11 C10 1_555 1_555
H17 C11 1_555 1_555
H18 C11 1_555 1_555
C12 C11 1_555 1_555
H19 C12 1_555 1_555
H20 C12 1_555 1_555
C13 C12 1_555 1_555
H21 C13 1_555 1_555
H22 C13 1_555 1_555
C14 O10 1_555 1_555
C15 H23 1_555 1_555
C16 N1 1_555 1_555
H24 C16 1_555 1_555
C17 N1 1_555 1_555
H25 C17 1_555 1_555
C18 C17 1_555 1_555
H26 C18 1_555 1_555
C19 C15 1_555 1_555
C20 H27 1_555 1_555
C21 C20 1_555 1_555
C22 C21 1_555 1_555
H28 C22 1_555 1_555
C23 C22 1_555 1_555
H29 C23 1_555 1_555
C24 N2 1_555 1_555
H30 C24 1_555 1_555
H32 O11 1_555 1_555
U1_2 O1_2 1_555 1_555
U1_3 O5 1_555 1_555
O2_2 U1_2 1_555 1_555
O3_2 U1_2 1_555 1_555
O4_2 U1_2 1_555 1_555
O5_2 U1 1_555 1_555
O5_3 U1_2 1_555 1_555
O6_2 U1 1_555 1_555
O6_3 U1_2 1_555 1_555
O7_2 U1_2 1_555 1_555
O8_2 U1_2 1_555 1_555
O9_2 C14_2 1_555 1_555
O10_2 H1_2 1_555 1_555
N1A H2A 1_555 1_555
N2A C23A 1_555 1_555
C1_2 O3_2 1_555 1_555
C2_2 C1_2 1_555 1_555
H3_2 C2_2 1_555 1_555
H4_2 C2_2 1_555 1_555
C3_2 C2_2 1_555 1_555
H5_2 C3_2 1_555 1_555
H6_2 C3_2 1_555 1_555
C4_2 C3_2 1_555 1_555
H7_2 C4_2 1_555 1_555
H8_2 C4_2 1_555 1_555
C5_2 C4_2 1_555 1_555
H9_2 C5_2 1_555 1_555
H10_2 C5_2 1_555 1_555
C6_2 C5_2 1_555 1_555
H11_2 C6_2 1_555 1_555
H12_2 C6_2 1_555 1_555
C7_2 O5_2 1_555 1_555
C8_2 O7_2 1_555 1_555
C9_2 C8_2 1_555 1_555
H13_2 C9_2 1_555 1_555
H14_2 C9_2 1_555 1_555
C10_2 C9_2 1_555 1_555
H15_2 C10_2 1_555 1_555
H16_2 C10_2 1_555 1_555
C11_2 C10_2 1_555 1_555
H17_2 C11_2 1_555 1_555
H18_2 C11_2 1_555 1_555
C12_2 C11_2 1_555 1_555
H19_2 C12_2 1_555 1_555
H20_2 C12_2 1_555 1_555
C13_2 C12_2 1_555 1_555
H21_2 C13_2 1_555 1_555
H22_2 C13_2 1_555 1_555
C14_2 O10_2 1_555 1_555
C15A H23A 1_555 1_555
C16A N1A 1_555 1_555
H24A C16A 1_555 1_555
C17A N1A 1_555 1_555
H25A C17A 1_555 1_555
C18A C17A 1_555 1_555
H26A C18A 1_555 1_555
C19A C19 1_555 1_555
C20A H27A 1_555 1_555
C21A C21 1_555 1_555
C22A C21A 1_555 1_555
H28A C22A 1_555 1_555
C23A C22A 1_555 1_555
H29A C23A 1_555 1_555
C24A N2A 1_555 1_555
H30A C24A 1_555 1_555
O4 C1 1_555 1_555
O6 U1_3 1_555 1_555
O8 C8 1_555 1_555
C13 C14 1_555 1_555
C15 C16 1_555 1_555
C18 C19 1_555 1_555
C20 C24 1_555 1_555
O4_2 C1_2 1_555 1_555
O6_2 C7_2 1_555 1_555
O8_2 C8_2 1_555 1_555
C6_2 C7_2 1_555 1_555
C13_2 C14_2 1_555 1_555
C15A C16A 1_555 1_555
C15A C19A 1_555 1_555
C18A C19A 1_555 1_555
C20A C21A 1_555 1_555
C20A C24A 1_555 1_555

#END
