
#######################################################################
#
#                 Cambridge Crystallographic Data Centre
#                                CCDC 
#
#######################################################################
#
# If this CIF has been generated from an entry in the Cambridge 
# Structural Database, then it will include bibliographic, chemical, 
# crystal, experimental, refinement or atomic coordinate data resulting 
# from the CCDC's data processing and validation procedures.
#
#######################################################################

data_RERSOX
_symmetry_cell_setting           monoclinic
_symmetry_space_group_name_H-M   'P 21/c'
_symmetry_Int_Tables_number      14
_space_group_name_Hall           '-P 2ybc'
loop_
_symmetry_equiv_pos_site_id
_symmetry_equiv_pos_as_xyz
1 x,y,z
2 -x,1/2+y,1/2-z
3 -x,-y,-z
4 x,1/2-y,1/2+z
_cell_length_a                   8.4931(3)
_cell_length_b                   26.2436(11)
_cell_length_c                   10.7482(5)
_cell_angle_alpha                90
_cell_angle_beta                 103.0970(10)
_cell_angle_gamma                90
_cell_volume                     2333.34
loop_
_atom_site_label
_atom_site_type_symbol
_atom_site_fract_x
_atom_site_fract_y
_atom_site_fract_z
U1 U 0.69396(2) 0.986423(8) 0.61704(2)
U2 U 0.59099(3) 1.129006(8) 0.53003(2)
O1 O 0.7960(6) 0.97314(19) 0.4941(4)
O2 O 0.6128(5) 0.99630(18) 0.7532(4)
O3 O 0.6330(6) 1.13810(19) 0.3770(4)
O4 O 0.5583(7) 1.12750(18) 0.6872(5)
O5 O 0.5392(5) 1.04866(16) 0.4980(4)
O6 O 0.8418(6) 1.0675(2) 0.6499(6)
O7 O 0.8735(6) 1.1464(3) 0.6065(6)
O8 O 1.3256(7) 1.3350(3) 0.9699(6)
O9 O 1.2864(6) 1.39798(19) 0.8362(6)
N1 N 0.9671(6) 0.9670(2) 0.7760(5)
N2 N 1.3967(7) 0.7273(2) 0.9360(5)
C1 C 0.9301(8) 1.1061(3) 0.6623(7)
C2 C 1.1001(8) 1.1051(3) 0.7394(7)
H1 H 1.1649 1.0838 0.6965
H2 H 1.1019 1.0900 0.8221
C3 C 1.1740(9) 1.1577(3) 0.7586(7)
H3 H 1.2880 1.1544 0.7985
H4 H 1.1654 1.1735 0.6757
C4 C 1.0965(11) 1.1925(3) 0.8398(9)
H5 H 1.1448 1.1870 0.9296
H6 H 0.9817 1.1854 0.8252
C5 C 1.1238(13) 1.2489(4) 0.8021(11)
H7 H 1.2380 1.2568 0.8292
H8 H 1.0938 1.2519 0.7098
C6 C 1.0340(11) 1.2859(3) 0.8563(10)
H9 H 1.0579 1.2809 0.9481
H10 H 0.9197 1.2792 0.8242
C7 C 1.0658(8) 1.3405(3) 0.8303(8)
H11 H 0.9940 1.3615 0.8668
H12 H 1.0380 1.3457 0.7386
C8 C 1.2362(9) 1.3587(3) 0.8809(7)
C9 C 1.2534(8) 0.9564(3) 0.8033(7)
H13 H 1.3436 0.9591 0.7683
C10 C 1.1033(8) 0.9697(3) 0.7324(6)
H14 H 1.0954 0.9813 0.6494
C11 C 0.9835(8) 0.9499(3) 0.8950(6)
H15 H 0.8912 0.9474 0.9275
C12 C 1.1286(8) 0.9359(3) 0.9721(6)
H16 H 1.1328 0.9243 1.0546
C13 C 1.2696(7) 0.9389(2) 0.9273(6)
C14 C 1.4343(8) 0.9245(2) 1.0083(6)
H17 H 1.4999 0.9551 1.0264
H18 H 1.4206 0.9110 1.0891
C15 C 1.5233(8) 0.8858(3) 0.9463(7)
H19 H 1.5181 0.8970 0.8595
H20 H 1.6362 0.8867 0.9910
C16 C 1.4695(7) 0.8315(2) 0.9405(6)
C17 C 1.3725(9) 0.8109(3) 1.0140(7)
H21 H 1.3295 0.8318 1.0680
C18 C 1.3387(9) 0.7595(3) 1.0078(8)
H22 H 1.2708 0.7469 1.0573
C19 C 1.4906(11) 0.7467(3) 0.8637(7)
H23 H 1.5337 0.7249 0.8118
C20 C 1.5257(10) 0.7978(3) 0.8635(7)
H24 H 1.5892 0.8099 0.8098
U1B U 0.30604(2) 1.013577(8) 0.38296(2)
U1A U 1.30604(2) 1.486423(8) 0.88296(2)
U2C U 1.59099(3) 1.370994(8) 1.03003(2)
U2A U 1.40901(3) 0.629006(8) 0.96997(2)
O5B O 0.4608(5) 0.95134(16) 0.5020(4)
O8C O 0.3256(7) 1.1650(3) 0.4699(6)
O9A O 0.7136(6) 0.89798(19) 0.6638(6)
N2A N 0.6033(7) 1.2273(2) 0.5640(5)
loop_
_geom_bond_atom_site_label_1
_geom_bond_atom_site_label_2
_geom_bond_site_symmetry_1
_geom_bond_site_symmetry_2
U1 O1 1_555 1_555
U2 O3 1_555 1_555
O2 U1 1_555 1_555
O4 U2 1_555 1_555
O5 U1 1_555 1_555
O6 U1 1_555 1_555
O7 U2 1_555 1_555
O8 C8 1_555 1_555
O9 C8 1_555 1_555
N1 U1 1_555 1_555
N2 C18 1_555 1_555
C1 O6 1_555 1_555
C2 C1 1_555 1_555
H1 C2 1_555 1_555
H2 C2 1_555 1_555
C3 C2 1_555 1_555
H3 C3 1_555 1_555
H4 C3 1_555 1_555
C4 C3 1_555 1_555
H5 C4 1_555 1_555
H6 C4 1_555 1_555
C5 C4 1_555 1_555
H7 C5 1_555 1_555
H8 C5 1_555 1_555
C6 C5 1_555 1_555
H9 C6 1_555 1_555
H10 C6 1_555 1_555
C7 C6 1_555 1_555
H11 C7 1_555 1_555
H12 C7 1_555 1_555
C8 C7 1_555 1_555
C9 H13 1_555 1_555
C10 N1 1_555 1_555
H14 C10 1_555 1_555
C11 N1 1_555 1_555
H15 C11 1_555 1_555
C12 C11 1_555 1_555
H16 C12 1_555 1_555
C13 C9 1_555 1_555
C14 C13 1_555 1_555
H17 C14 1_555 1_555
H18 C14 1_555 1_555
C15 C14 1_555 1_555
H19 C15 1_555 1_555
H20 C15 1_555 1_555
C16 C15 1_555 1_555
C17 C16 1_555 1_555
H21 C17 1_555 1_555
C18 C17 1_555 1_555
H22 C18 1_555 1_555
C19 N2 1_555 1_555
H23 C19 1_555 1_555
C20 C16 1_555 1_555
H24 C20 1_555 1_555
U1B O5 1_555 1_555
U1A O9 1_555 1_555
U2C O8 1_555 1_555
U2A N2 1_555 1_555
O5B U1 1_555 1_555
O8C U2 1_555 1_555
O9A U1 1_555 1_555
N2A U2 1_555 1_555
U2 O5 1_555 1_555
U2 O6 1_555 1_555
O7 C1 1_555 1_555
C9 C10 1_555 1_555
C12 C13 1_555 1_555
C19 C20 1_555 1_555
U1B O5B 1_555 1_555

#END
