
#######################################################################
#
#                 Cambridge Crystallographic Data Centre
#                                CCDC 
#
#######################################################################
#
# If this CIF has been generated from an entry in the Cambridge 
# Structural Database, then it will include bibliographic, chemical, 
# crystal, experimental, refinement or atomic coordinate data resulting 
# from the CCDC's data processing and validation procedures.
#
#######################################################################

data_RERSEN
_symmetry_cell_setting           triclinic
_symmetry_space_group_name_H-M   'P -1'
_symmetry_Int_Tables_number      2
_space_group_name_Hall           '-P 1'
loop_
_symmetry_equiv_pos_site_id
_symmetry_equiv_pos_as_xyz
1 x,y,z
2 -x,-y,-z
_cell_length_a                   8.135(3)
_cell_length_b                   9.793(4)
_cell_length_c                   11.236(4)
_cell_angle_alpha                89.670(6)
_cell_angle_beta                 73.760(6)
_cell_angle_gamma                89.722(6)
_cell_volume                     859.392
loop_
_atom_site_label
_atom_site_type_symbol
_atom_site_fract_x
_atom_site_fract_y
_atom_site_fract_z
U1 U 0.12180(5) 0.78772(4) 0.72914(3)
O1 O 0.2922(9) 0.8432(7) 0.6023(7)
O2 O -0.0487(10) 0.7260(7) 0.8536(7)
O3 O -0.0870(9) 0.9551(7) 0.6837(7)
O4 O -0.0489(9) 0.7645(7) 0.5767(6)
O5 O -0.1488(9) 0.4404(7) 0.3609(6)
O6 O -0.3061(10) 0.4051(7) 0.2347(7)
O7 O 0.2913(10) 0.8556(7) 0.8676(7)
O8 O 0.1234(9) 1.0113(7) 0.8273(7)
C1 C -0.1383(13) 0.8714(10) 0.6147(10)
C2 C -0.3059(14) 0.8994(10) 0.5846(10)
C3 C -0.3103(13) 0.8451(10) 0.4562(10)
H2 H -0.2052 0.8710 0.3949
H3 H -0.4048 0.8881 0.4332
C4 C -0.3310(12) 0.6860(9) 0.4538(10)
H4 H -0.2435 0.6435 0.4852
H5 H -0.4415 0.6614 0.5091
C5 C -0.3178(13) 0.6295(10) 0.3268(10)
H6 H -0.2398 0.6864 0.2656
H7 H -0.4295 0.6364 0.3120
C6 C -0.2583(12) 0.4854(10) 0.3069(9)
C7 C 0.2424(13) 0.9795(10) 0.8740(10)
C8 C 0.3283(13) 1.0853(11) 0.9328(10)
H8 H 0.2428 1.1525 0.9724
H9 H 0.4129 1.1318 0.8672
C9 C 0.4169(13) 1.0352(11) 1.0287(11)
H10 H 0.4372 1.1126 1.0761
H11 H 0.3413 0.9728 1.0856
U1A U -0.12180(5) 0.21228(4) 0.27086(3)
U1A_2 U 0.87820(5) 1.21228(4) 1.27086(3)
O1A O -0.2922(9) 0.1568(7) 0.3977(7)
O2A O 0.0487(10) 0.2740(7) 0.1464(7)
O3A O 0.0870(9) 0.0449(7) 0.3163(7)
O4A O 0.0489(9) 0.2355(7) 0.4233(6)
O5A O 0.1488(9) 0.5596(7) 0.6391(6)
O6A O 0.3061(10) 0.5949(7) 0.7653(7)
O7A O 0.7087(10) 1.1444(7) 1.1324(7)
O7A_2 O -0.2913(10) 0.1444(7) 0.1324(7)
O8A O 0.8766(9) 0.9887(7) 1.1727(7)
O8A_2 O -0.1234(9) -0.0113(7) 0.1727(7)
C1A C 0.1383(13) 0.1286(10) 0.3853(10)
C2A C 0.3059(14) 0.1006(10) 0.4154(10)
C3A C 0.3103(13) 0.1549(10) 0.5438(10)
H2A H 0.2052 0.1290 0.6051
H3A H 0.4048 0.1119 0.5668
C4A C 0.3310(12) 0.3140(9) 0.5462(10)
H4A H 0.2435 0.3565 0.5148
H5A H 0.4415 0.3386 0.4909
C5A C 0.3178(13) 0.3705(10) 0.6732(10)
H6A H 0.2398 0.3136 0.7344
H7A H 0.4295 0.3636 0.6880
C6A C 0.2583(12) 0.5146(10) 0.6931(9)
C7A C 0.7576(13) 1.0205(10) 1.1260(10)
C8A C 0.6717(13) 0.9147(11) 1.0672(10)
H8A H 0.7572 0.8475 1.0276
H9A H 0.5871 0.8682 1.1328
C9A C 0.5831(13) 0.9648(11) 0.9713(11)
H10A H 0.5628 0.8874 0.9239
H11A H 0.6587 1.0272 0.9144
N1 N 0.1179(11) 0.6974(8) 0.3286(8)
H1 H 0.055(13) 0.741(10) 0.397(10)
C10 C 0.4117(13) 0.4639(10) 0.0267(10)
H12 H 0.3537 0.4565 -0.0376
H13 H 0.4297 0.3724 0.0544
C11 C 0.3022(13) 0.5450(10) 0.1342(9)
C12 C 0.2856(14) 0.5015(11) 0.2550(9)
H14 H 0.3358 0.4202 0.2702
C13 C 0.1932(14) 0.5810(11) 0.3521(11)
H15 H 0.1829 0.5545 0.4334
C14 C 0.1290(14) 0.7419(11) 0.2116(10)
H16 H 0.0758 0.8225 0.1982
C15 C 0.2208(13) 0.6645(11) 0.1142(9)
H17 H 0.2287 0.6923 0.0335
N1A N 0.8821(11) 0.3026(8) -0.3286(8)
H1A H 0.945(13) 0.259(10) -0.397(10)
C10A C 0.5883(13) 0.5361(10) -0.0267(10)
H12A H 0.6463 0.5435 0.0376
H13A H 0.5703 0.6276 -0.0544
C11A C 0.6978(13) 0.4550(10) -0.1342(9)
C12A C 0.7144(14) 0.4985(11) -0.2550(9)
H14A H 0.6642 0.5798 -0.2702
C13A C 0.8068(14) 0.4190(11) -0.3521(11)
H15A H 0.8171 0.4455 -0.4334
C14A C 0.8710(14) 0.2581(11) -0.2116(10)
H16A H 0.9242 0.1775 -0.1982
C15A C 0.7792(13) 0.3355(11) -0.1142(9)
H17A H 0.7713 0.3077 -0.0335
loop_
_geom_bond_atom_site_label_1
_geom_bond_atom_site_label_2
_geom_bond_site_symmetry_1
_geom_bond_site_symmetry_2
U1 O1 1_555 1_555
O2 U1 1_555 1_555
O3 U1 1_555 1_555
O4 U1 1_555 1_555
O5 C6 1_555 1_555
O6 C6 1_555 1_555
O7 U1 1_555 1_555
O8 U1 1_555 1_555
N1 H1 1_555 1_555
C1 O3 1_555 1_555
C2 C1 1_555 1_555
C3 C2 1_555 1_555
H2 C3 1_555 1_555
H3 C3 1_555 1_555
C4 C3 1_555 1_555
H4 C4 1_555 1_555
H5 C4 1_555 1_555
C5 C4 1_555 1_555
H6 C5 1_555 1_555
H7 C5 1_555 1_555
C6 C5 1_555 1_555
C7 O7 1_555 1_555
C8 C7 1_555 1_555
H8 C8 1_555 1_555
H9 C8 1_555 1_555
C9 C8 1_555 1_555
H10 C9 1_555 1_555
H11 C9 1_555 1_555
C10 H12 1_555 1_555
H13 C10 1_555 1_555
C11 C10 1_555 1_555
C12 C11 1_555 1_555
H14 C12 1_555 1_555
C13 N1 1_555 1_555
H15 C13 1_555 1_555
C14 N1 1_555 1_555
H16 C14 1_555 1_555
C15 C11 1_555 1_555
H17 C15 1_555 1_555
U1A O5 1_555 1_555
U1A_2 O7A 1_555 1_555
O1A U1A 1_555 1_555
O2A U1A 1_555 1_555
O3A U1A 1_555 1_555
O4A U1A 1_555 1_555
O5A U1 1_555 1_555
O6A U1 1_555 1_555
O7A C7A 1_555 1_555
O7A_2 U1A 1_555 1_555
O8A U1A_2 1_555 1_555
O8A_2 U1A 1_555 1_555
N1A H1A 1_555 1_555
C1A O3A 1_555 1_555
C2A C1A 1_555 1_555
C3A C2A 1_555 1_555
H2A C3A 1_555 1_555
H3A C3A 1_555 1_555
C4A C3A 1_555 1_555
H4A C4A 1_555 1_555
H5A C4A 1_555 1_555
C5A C4A 1_555 1_555
H6A C5A 1_555 1_555
H7A C5A 1_555 1_555
C6A O5A 1_555 1_555
C7A O8A 1_555 1_555
C8A C7A 1_555 1_555
H8A C8A 1_555 1_555
H9A C8A 1_555 1_555
C9A C9 1_555 1_555
H10A C9A 1_555 1_555
H11A C9A 1_555 1_555
C10A C10 1_555 1_555
H12A C10A 1_555 1_555
H13A C10A 1_555 1_555
C11A C10A 1_555 1_555
C12A C11A 1_555 1_555
H14A C12A 1_555 1_555
C13A N1A 1_555 1_555
H15A C13A 1_555 1_555
C14A N1A 1_555 1_555
H16A C14A 1_555 1_555
C15A C11A 1_555 1_555
H17A C15A 1_555 1_555
O4 C1 1_555 1_555
O6 U1A 1_555 1_555
O8 C7 1_555 1_555
C12 C13 1_555 1_555
C14 C15 1_555 1_555
O4A C1A 1_555 1_555
O6A C6A 1_555 1_555
C5A C6A 1_555 1_555
C8A C9A 1_555 1_555
C12A C13A 1_555 1_555
C14A C15A 1_555 1_555

#END
