
#######################################################################
#
#                 Cambridge Crystallographic Data Centre
#                                CCDC 
#
#######################################################################
#
# If this CIF has been generated from an entry in the Cambridge 
# Structural Database, then it will include bibliographic, chemical, 
# crystal, experimental, refinement or atomic coordinate data resulting 
# from the CCDC's data processing and validation procedures.
#
#######################################################################

data_RERSUD
_symmetry_cell_setting           triclinic
_symmetry_space_group_name_H-M   'P -1'
_symmetry_Int_Tables_number      2
_space_group_name_Hall           '-P 1'
loop_
_symmetry_equiv_pos_site_id
_symmetry_equiv_pos_as_xyz
1 x,y,z
2 -x,-y,-z
_cell_length_a                   8.2635(19)
_cell_length_b                   9.216(2)
_cell_length_c                   12.7756(19)
_cell_angle_alpha                107.476(2)
_cell_angle_beta                 97.4470(10)
_cell_angle_gamma                103.511(2)
_cell_volume                     881.171
loop_
_atom_site_label
_atom_site_type_symbol
_atom_site_fract_x
_atom_site_fract_y
_atom_site_fract_z
U1 U 0.34113(3) 0.49000(3) 0.174602(19)
O1 O 0.5042(6) 0.6446(5) 0.2795(4)
O2 O 0.1817(7) 0.3306(6) 0.0768(4)
O3 O 0.1501(6) 0.6542(5) 0.2049(4)
O4 O 0.1489(5) 0.5021(5) 0.3061(3)
O5 O -0.4502(7) 1.3757(6) 0.1066(4)
O6 O -0.3859(8) 1.3798(7) -0.0506(5)
N1 N 0.4007(6) 0.3125(6) 0.2869(4)
C1 C 0.3224(8) 0.1584(8) 0.2526(6)
H1 H 0.2317 0.1144 0.1906
C2 C 0.5297(9) 0.3744(8) 0.3777(5)
H2 H 0.5850 0.4827 0.4024
C3 C 0.5837(9) 0.2837(8) 0.4361(5)
H3 H 0.6734 0.3306 0.4987
C4 C 0.3720(9) 0.0601(8) 0.3069(6)
H4 H 0.3163 -0.0483 0.2796
C5 C 0.5026(8) 0.1224(8) 0.4003(5)
C6 C 0.5581(9) 0.0183(9) 0.4626(6)
H5 H 0.5603 -0.0803 0.4082
H6 H 0.6727 0.0722 0.5074
C7 C 0.0901(8) 0.6025(7) 0.2761(5)
C8 C -0.0531(8) 0.6519(8) 0.3253(6)
H7 H -0.0400 0.6487 0.4010
H8 H -0.1598 0.5741 0.2815
C9 C -0.0662(8) 0.8171(8) 0.3300(5)
H9 H -0.1492 0.8425 0.3743
H10 H 0.0431 0.8940 0.3696
C10 C -0.1157(9) 0.8380(8) 0.2180(6)
H11 H -0.2135 0.7501 0.1719
H12 H -0.0223 0.8351 0.1794
C11 C -0.1587(9) 0.9932(8) 0.2312(6)
H13 H -0.0652 1.0798 0.2838
H14 H -0.2590 0.9911 0.2634
C12 C -0.1922(9) 1.0264(8) 0.1212(6)
H15 H -0.0877 1.0424 0.0938
H16 H -0.2760 0.9344 0.0654
C13 C -0.2563(9) 1.1716(8) 0.1346(6)
H17 H -0.3628 1.1539 0.1598
H18 H -0.1743 1.2627 0.1924
C14 C -0.2844(9) 1.2088(8) 0.0278(5)
H19 H -0.1743 1.2455 0.0108
H20 H -0.3478 1.1113 -0.0330
C15 C -0.3777(7) 1.3310(7) 0.0305(5)
U1_2 U 1.34113(3) -0.51000(3) 0.174602(19)
U1_3 U -0.65887(3) 1.49000(3) 0.174602(19)
U1A U -0.34113(3) 1.51000(3) -0.174602(19)
U1A_2 U 0.65887(3) -0.49000(3) 0.825398(19)
U1A_3 U 0.65887(3) 0.51000(3) -0.174602(19)
O1_2 O 1.5042(6) -0.3554(5) 0.2795(4)
O2_2 O 1.1817(7) -0.6694(6) 0.0768(4)
O3_2 O 1.1501(6) -0.3458(5) 0.2049(4)
O4_2 O 1.1489(5) -0.4979(5) 0.3061(3)
O5_2 O 0.5498(7) 0.3757(6) 0.1066(4)
O5_3 O 1.5498(7) -0.6243(6) 0.1066(4)
O6_2 O 0.6141(8) 0.3798(7) -0.0506(5)
O6A O 0.3859(8) 0.6202(7) 0.0506(5)
O6A_2 O 1.3859(8) -0.3798(7) 0.0506(5)
N1A N 0.5993(6) -0.3125(6) 0.7131(4)
N1_2 N 1.4007(6) -0.6875(6) 0.2869(4)
C1A C 0.6776(8) -0.1584(8) 0.7474(6)
H1A H 0.7683 -0.1144 0.8094
C2A C 0.4703(9) -0.3744(8) 0.6223(5)
H2A H 0.4150 -0.4827 0.5976
C3A C 0.4163(9) -0.2837(8) 0.5639(5)
H3A H 0.3266 -0.3306 0.5013
C4A C 0.6280(9) -0.0601(8) 0.6931(6)
H4A H 0.6837 0.0483 0.7204
C5A C 0.4974(8) -0.1224(8) 0.5997(5)
C6A C 0.4419(9) -0.0183(9) 0.5374(6)
H5A H 0.4397 0.0803 0.5918
H6A H 0.3273 -0.0722 0.4926
C7_2 C 1.0901(8) -0.3975(7) 0.2761(5)
C8_2 C 0.9469(8) -0.3481(8) 0.3253(6)
H7_2 H 0.9600 -0.3513 0.4010
H8_2 H 0.8402 -0.4259 0.2815
C9_2 C 0.9338(8) -0.1829(8) 0.3300(5)
H9_2 H 0.8508 -0.1575 0.3743
H10_2 H 1.0431 -0.1060 0.3696
C10_2 C 0.8843(9) -0.1620(8) 0.2180(6)
H11_2 H 0.7865 -0.2499 0.1719
H12_2 H 0.9777 -0.1649 0.1794
C11_2 C 0.8413(9) -0.0068(8) 0.2312(6)
H13_2 H 0.9348 0.0798 0.2838
H14_2 H 0.7410 -0.0089 0.2634
C12_2 C 0.8078(9) 0.0264(8) 0.1212(6)
H15_2 H 0.9123 0.0424 0.0938
H16_2 H 0.7240 -0.0656 0.0654
C13_2 C 0.7437(9) 0.1716(8) 0.1346(6)
H17_2 H 0.6372 0.1539 0.1598
H18_2 H 0.8257 0.2627 0.1924
C14_2 C 0.7156(9) 0.2088(8) 0.0278(5)
H19_2 H 0.8257 0.2455 0.0108
H20_2 H 0.6522 0.1113 -0.0330
C15_2 C 0.6223(7) 0.3310(7) 0.0305(5)
loop_
_geom_bond_atom_site_label_1
_geom_bond_atom_site_label_2
_geom_bond_site_symmetry_1
_geom_bond_site_symmetry_2
U1 O1 1_555 1_555
O2 U1 1_555 1_555
O3 U1 1_555 1_555
O4 U1 1_555 1_555
O5 C15 1_555 1_555
O6 C15 1_555 1_555
N1 U1 1_555 1_555
C1 N1 1_555 1_555
H1 C1 1_555 1_555
C2 N1 1_555 1_555
H2 C2 1_555 1_555
C3 C2 1_555 1_555
H3 C3 1_555 1_555
C4 C1 1_555 1_555
H4 C4 1_555 1_555
C5 C3 1_555 1_555
C6 C5 1_555 1_555
H5 C6 1_555 1_555
H6 C6 1_555 1_555
C7 O3 1_555 1_555
C8 C7 1_555 1_555
H7 C8 1_555 1_555
H8 C8 1_555 1_555
C9 C8 1_555 1_555
H9 C9 1_555 1_555
H10 C9 1_555 1_555
C10 C9 1_555 1_555
H11 C10 1_555 1_555
H12 C10 1_555 1_555
C11 C10 1_555 1_555
H13 C11 1_555 1_555
H14 C11 1_555 1_555
C12 C11 1_555 1_555
H15 C12 1_555 1_555
H16 C12 1_555 1_555
C13 C12 1_555 1_555
H17 C13 1_555 1_555
H18 C13 1_555 1_555
C14 C13 1_555 1_555
H19 C14 1_555 1_555
H20 C14 1_555 1_555
C15 C14 1_555 1_555
U1_2 O1_2 1_555 1_555
U1_3 O5 1_555 1_555
U1A O6 1_555 1_555
U1A_2 N1A 1_555 1_555
U1A_3 O6_2 1_555 1_555
O2_2 U1_2 1_555 1_555
O3_2 U1_2 1_555 1_555
O4_2 U1_2 1_555 1_555
O5_2 U1 1_555 1_555
O5_3 U1_2 1_555 1_555
O6_2 C15_2 1_555 1_555
O6A U1 1_555 1_555
O6A_2 U1_2 1_555 1_555
N1A C1A 1_555 1_555
N1_2 U1_2 1_555 1_555
C1A H1A 1_555 1_555
C2A N1A 1_555 1_555
H2A C2A 1_555 1_555
C3A C2A 1_555 1_555
H3A C3A 1_555 1_555
C4A C1A 1_555 1_555
H4A C4A 1_555 1_555
C5A C3A 1_555 1_555
C6A C6 1_555 1_555
H5A C6A 1_555 1_555
H6A C6A 1_555 1_555
C7_2 O3_2 1_555 1_555
C8_2 C7_2 1_555 1_555
H7_2 C8_2 1_555 1_555
H8_2 C8_2 1_555 1_555
C9_2 C8_2 1_555 1_555
H9_2 C9_2 1_555 1_555
H10_2 C9_2 1_555 1_555
C10_2 C9_2 1_555 1_555
H11_2 C10_2 1_555 1_555
H12_2 C10_2 1_555 1_555
C11_2 C10_2 1_555 1_555
H13_2 C11_2 1_555 1_555
H14_2 C11_2 1_555 1_555
C12_2 C11_2 1_555 1_555
H15_2 C12_2 1_555 1_555
H16_2 C12_2 1_555 1_555
C13_2 C12_2 1_555 1_555
H17_2 C13_2 1_555 1_555
H18_2 C13_2 1_555 1_555
C14_2 C13_2 1_555 1_555
H19_2 C14_2 1_555 1_555
H20_2 C14_2 1_555 1_555
C15_2 O5_2 1_555 1_555
O4 C7 1_555 1_555
C4 C5 1_555 1_555
O4_2 C7_2 1_555 1_555
C4A C5A 1_555 1_555
C5A C6A 1_555 1_555
C14_2 C15_2 1_555 1_555

#END
