
#######################################################################
#
#                 Cambridge Crystallographic Data Centre
#                                CCDC 
#
#######################################################################
#
# If this CIF has been generated from an entry in the Cambridge 
# Structural Database, then it will include bibliographic, chemical, 
# crystal, experimental, refinement or atomic coordinate data resulting 
# from the CCDC's data processing and validation procedures.
#
#######################################################################

data_RERSAJ
_symmetry_cell_setting           triclinic
_symmetry_space_group_name_H-M   'P -1'
_symmetry_Int_Tables_number      2
_space_group_name_Hall           '-P 1'
loop_
_symmetry_equiv_pos_site_id
_symmetry_equiv_pos_as_xyz
1 x,y,z
2 -x,-y,-z
_cell_length_a                   8.1332(18)
_cell_length_b                   9.896(2)
_cell_length_c                   11.983(3)
_cell_angle_alpha                70.663(4)
_cell_angle_beta                 87.499(4)
_cell_angle_gamma                67.749(4)
_cell_volume                     838.591
loop_
_atom_site_label
_atom_site_type_symbol
_atom_site_fract_x
_atom_site_fract_y
_atom_site_fract_z
U1 U 0.76970(10) 0.56084(10) 0.16066(6)
O1 O 0.707(2) 0.4121(16) 0.1645(14)
O2 O 0.8252(18) 0.7157(19) 0.1471(12)
O3 O 1.047(2) 0.410(3) 0.1318(15)
O4 O 1.2822(18) 0.353(2) 0.0480(11)
O5 O 2.3672(16) -0.5799(15) 0.6616(10)
O6 O 2.0945(16) -0.4269(15) 0.6412(10)
N1 N 0.4459(19) 0.7466(16) 0.0965(12)
C1 C 0.345(3) 0.705(2) 0.0485(17)
H1 H 0.3889 0.6067 0.0422
C2 C 0.167(3) 0.807(2) 0.0046(19)
H2 H 0.0987 0.7771 -0.0349
C3 C 0.092(2) 0.9497(19) 0.0187(15)
C4 C 0.202(2) 0.981(2) 0.0774(17)
H3 H 0.1600 1.0737 0.0931
C5 C 0.379(3) 0.878(2) 0.1154(18)
H4 H 0.4508 0.9049 0.1554
C6 C 1.208(2) 0.364(2) 0.1358(15)
C7 C 1.314(3) 0.311(3) 0.2507(16)
H5 H 1.2390 0.2931 0.3145
H6 H 1.3481 0.3940 0.2537
C8 C 1.484(3) 0.163(2) 0.2733(17)
H7 H 1.4506 0.0760 0.2808
H8 H 1.5542 0.1756 0.2060
C9 C 1.594(3) 0.128(2) 0.3845(17)
H9 H 1.5193 0.1266 0.4498
H10 H 1.6364 0.2107 0.3735
C10 C 1.753(3) -0.025(2) 0.4174(19)
H11 H 1.7142 -0.1043 0.4114
H12 H 1.7969 -0.0551 0.4995
C11 C 2.236(2) -0.489(2) 0.5947(17)
C12 C 2.084(2) -0.163(3) 0.391(2)
H13 H 2.1102 -0.1699 0.4716
H14 H 2.1810 -0.1461 0.3459
C13 C 2.237(3) -0.452(3) 0.4668(17)
H15 H 2.3454 -0.4344 0.4434
H16 H 2.2426 -0.5411 0.4476
C14 C 2.083(3) -0.315(3) 0.3949(18)
H17 H 2.0808 -0.3159 0.3143
H18 H 1.9744 -0.3234 0.4268
C15 C 1.910(3) -0.021(3) 0.337(2)
H19 H 1.8774 -0.0183 0.2591
H20 H 1.9300 0.0729 0.3267
U1A U 1.23030(10) 0.43916(10) -0.16066(6)
U1A_2 U 2.23030(10) -0.56084(10) 0.83934(6)
U1A_3 U -0.76970(10) 1.43916(10) -0.16066(6)
U1_2 U -0.23030(10) 1.56084(10) -0.83934(6)
O1A O 1.293(2) 0.5879(16) -0.1645(14)
O2A O 1.1748(18) 0.2843(19) -0.1471(12)
O3A O 0.953(2) 0.590(3) -0.1318(15)
O4A O 0.7178(18) 0.647(2) -0.0480(11)
O5A O -0.3672(16) 1.5799(15) -0.6616(10)
O5A_2 O 0.6328(16) 0.5799(15) 0.3384(10)
O5_2 O 1.3672(16) 0.4201(15) -0.3384(10)
O6A O -0.0945(16) 1.4269(15) -0.6412(10)
O6A_2 O 0.9055(16) 0.4269(15) 0.3588(10)
O6_2 O 1.0945(16) 0.5731(15) -0.3588(10)
N1A N -0.4459(19) 1.2534(16) -0.0965(12)
N1A_2 N 1.5541(19) 0.2534(16) -0.0965(12)
C1A C -0.345(3) 1.295(2) -0.0485(17)
H1A H -0.3889 1.3933 -0.0422
C2A C -0.167(3) 1.193(2) -0.0046(19)
H2A H -0.0987 1.2229 0.0349
C3A C -0.092(2) 1.0503(19) -0.0187(15)
C4A C -0.202(2) 1.019(2) -0.0774(17)
H3A H -0.1600 0.9263 -0.0931
C5A C -0.379(3) 1.122(2) -0.1154(18)
H4A H -0.4508 1.0951 -0.1554
C6A C 0.792(2) 0.636(2) -0.1358(15)
C7A C 0.686(3) 0.689(3) -0.2507(16)
H5A H 0.7610 0.7069 -0.3145
H6A H 0.6519 0.6060 -0.2537
C8A C 0.516(3) 0.837(2) -0.2733(17)
H7A H 0.5494 0.9240 -0.2808
H8A H 0.4458 0.8244 -0.2060
C9A C 0.406(3) 0.872(2) -0.3845(17)
H9A H 0.4807 0.8734 -0.4498
H10A H 0.3636 0.7893 -0.3735
C10A C 0.247(3) 1.025(2) -0.4174(19)
H11A H 0.2858 1.1043 -0.4114
H12A H 0.2031 1.0551 -0.4995
C11A C -0.236(2) 1.489(2) -0.5947(17)
C12A C -0.084(2) 1.163(3) -0.391(2)
H13A H -0.1102 1.1699 -0.4716
H14A H -0.1810 1.1461 -0.3459
C13A C -0.237(3) 1.452(3) -0.4668(17)
H15A H -0.3454 1.4344 -0.4434
H16A H -0.2426 1.5411 -0.4476
C14A C -0.083(3) 1.315(3) -0.3949(18)
H17A H -0.0808 1.3159 -0.3143
H18A H 0.0256 1.3234 -0.4268
C15A C 0.090(3) 1.021(3) -0.337(2)
H19A H 0.1226 1.0183 -0.2591
H20A H 0.0700 0.9271 -0.3267
loop_
_geom_bond_atom_site_label_1
_geom_bond_atom_site_label_2
_geom_bond_site_symmetry_1
_geom_bond_site_symmetry_2
U1 O1 1_555 1_555
O2 U1 1_555 1_555
O3 U1 1_555 1_555
O4 C6 1_555 1_555
O5 C11 1_555 1_555
O6 C11 1_555 1_555
N1 U1 1_555 1_555
C1 N1 1_555 1_555
H1 C1 1_555 1_555
C2 C1 1_555 1_555
H2 C2 1_555 1_555
C3 C2 1_555 1_555
C4 C3 1_555 1_555
H3 C4 1_555 1_555
C5 N1 1_555 1_555
H4 C5 1_555 1_555
C6 O3 1_555 1_555
C7 C6 1_555 1_555
H5 C7 1_555 1_555
H6 C7 1_555 1_555
C8 C7 1_555 1_555
H7 C8 1_555 1_555
H8 C8 1_555 1_555
C9 C8 1_555 1_555
H9 C9 1_555 1_555
H10 C9 1_555 1_555
C10 C9 1_555 1_555
H11 C10 1_555 1_555
H12 C10 1_555 1_555
C11 C13 1_555 1_555
C12 H13 1_555 1_555
H14 C12 1_555 1_555
C13 H15 1_555 1_555
H16 C13 1_555 1_555
C14 C12 1_555 1_555
H17 C14 1_555 1_555
H18 C14 1_555 1_555
C15 C10 1_555 1_555
H19 C15 1_555 1_555
H20 C15 1_555 1_555
U1A O4 1_555 1_555
U1A_2 O5 1_555 1_555
U1A_3 N1A 1_555 1_555
U1_2 O5A 1_555 1_555
O1A U1A 1_555 1_555
O2A U1A 1_555 1_555
O3A U1A 1_555 1_555
O4A U1 1_555 1_555
O5A C11A 1_555 1_555
O5A_2 U1 1_555 1_555
O5_2 U1A 1_555 1_555
O6A U1_2 1_555 1_555
O6A_2 U1 1_555 1_555
O6_2 U1A 1_555 1_555
N1A C1A 1_555 1_555
N1A_2 U1A 1_555 1_555
C1A H1A 1_555 1_555
C2A C1A 1_555 1_555
H2A C2A 1_555 1_555
C3A C3 1_555 1_555
C4A C3A 1_555 1_555
H3A C4A 1_555 1_555
C5A N1A 1_555 1_555
H4A C5A 1_555 1_555
C6A O3A 1_555 1_555
C7A C6A 1_555 1_555
H5A C7A 1_555 1_555
H6A C7A 1_555 1_555
C8A C7A 1_555 1_555
H7A C8A 1_555 1_555
H8A C8A 1_555 1_555
C9A C8A 1_555 1_555
H9A C9A 1_555 1_555
H10A C9A 1_555 1_555
C10A C9A 1_555 1_555
H11A C10A 1_555 1_555
H12A C10A 1_555 1_555
C11A O6A 1_555 1_555
C12A H13A 1_555 1_555
H14A C12A 1_555 1_555
C13A C11A 1_555 1_555
H15A C13A 1_555 1_555
H16A C13A 1_555 1_555
C14A C12A 1_555 1_555
H17A C14A 1_555 1_555
H18A C14A 1_555 1_555
C15A C10A 1_555 1_555
H19A C15A 1_555 1_555
H20A C15A 1_555 1_555
O6 U1A_2 1_555 1_555
C4 C5 1_555 1_555
C12 C15 1_555 1_555
C13 C14 1_555 1_555
O4A C6A 1_555 1_555
C2A C3A 1_555 1_555
C4A C5A 1_555 1_555
C12A C15A 1_555 1_555
C13A C14A 1_555 1_555

#END
