
#######################################################################
#
#                 Cambridge Crystallographic Data Centre
#                                CCDC 
#
#######################################################################
#
# If this CIF has been generated from an entry in the Cambridge 
# Structural Database, then it will include bibliographic, chemical, 
# crystal, experimental, refinement or atomic coordinate data resulting 
# from the CCDC's data processing and validation procedures.
#
#######################################################################

data_RERVAM
_symmetry_cell_setting           triclinic
_symmetry_space_group_name_H-M   'P -1'
_symmetry_Int_Tables_number      2
_space_group_name_Hall           '-P 1'
loop_
_symmetry_equiv_pos_site_id
_symmetry_equiv_pos_as_xyz
1 x,y,z
2 -x,-y,-z
_cell_length_a                   12.795(2)
_cell_length_b                   13.646(2)
_cell_length_c                   13.810(2)
_cell_angle_alpha                93.251(3)
_cell_angle_beta                 115.208(2)
_cell_angle_gamma                108.242(2)
_cell_volume                     2020.66
loop_
_atom_site_label
_atom_site_type_symbol
_atom_site_fract_x
_atom_site_fract_y
_atom_site_fract_z
Cu1 Cu 0.0000 0.5000 0.0000
Cu2 Cu 0.5000 0.5000 0.0000
S1 S 0.22820(6) 0.35373(5) 0.06015(5)
O1 O 0.12619(17) 0.39037(15) 0.04185(17)
O3 O 0.31819(16) 0.42680(14) 0.03284(15)
O5 O 0.17704(18) 0.24675(14) -0.00876(17)
O7 O 0.29176(19) 0.34999(16) 0.17632(17)
N1 N -0.0492(2) 0.45468(18) 0.1172(2)
N2 N -0.1948(3) 0.4326(3) 0.4055(3)
N3 N 0.1472(2) 0.62691(18) 0.1167(2)
N4 N 0.5561(2) 0.85899(19) 0.4345(2)
N5 N 0.54949(19) 0.37335(17) 0.03766(18)
N6 N 0.6827(2) 0.0642(2) 0.0191(2)
N7 N 0.60279(19) 0.58060(16) 0.15910(18)
N8 N 0.9106(3) 0.8627(2) 0.5043(2)
C1 C -0.0394(3) 0.3682(2) 0.1556(3)
H13 H -0.0120 0.3253 0.1254
C2 C -0.0683(3) 0.3404(2) 0.2385(3)
H14 H -0.0613 0.2791 0.2620
C3 C -0.1077(2) 0.4029(2) 0.2866(2)
C4 C -0.1217(3) 0.4902(2) 0.2438(2)
H15 H -0.1518 0.5328 0.2709
C5 C -0.0913(3) 0.5139(2) 0.1617(2)
H16 H -0.1002 0.5736 0.1354
C6 C -0.1317(3) 0.3806(2) 0.3808(3)
C7 C -0.0861(3) 0.3134(3) 0.4413(3)
H17 H -0.0435 0.2787 0.4221
C8 C -0.1051(3) 0.2988(3) 0.5312(3)
H18 H -0.0745 0.2543 0.5740
C9 C -0.1691(4) 0.3500(4) 0.5575(3)
H19 H -0.1832 0.3403 0.6176
C10 C -0.2118(4) 0.4152(4) 0.4936(4)
H20 H -0.2551 0.4498 0.5120
C11 C 0.2515(3) 0.6132(2) 0.1835(2)
H21 H 0.2524 0.5452 0.1784
C12 C 0.3571(3) 0.6950(2) 0.2591(2)
H22 H 0.4278 0.6817 0.3027
C13 C 0.3593(2) 0.7976(2) 0.2711(2)
C14 C 0.2501(3) 0.8112(2) 0.2035(2)
H23 H 0.2461 0.8780 0.2088
C15 C 0.1475(3) 0.7256(2) 0.1283(3)
H24 H 0.0755 0.7366 0.0837
C16 C 0.4734(2) 0.8861(2) 0.3525(2)
C17 C 0.4942(3) 0.9909(2) 0.3455(3)
H25 H 0.4362 1.0081 0.2880
C18 C 0.6025(3) 1.0698(3) 0.4253(3)
H26 H 0.6177 1.1406 0.4225
C19 C 0.6868(3) 1.0417(3) 0.5084(3)
H27 H 0.7606 1.0929 0.5624
C20 C 0.6599(3) 0.9358(3) 0.5101(3)
H28 H 0.7171 0.9171 0.5668
C21 C 0.6079(2) 0.3428(2) -0.0126(2)
H29 H 0.6267 0.3822 -0.0598
C22 C 0.6409(2) 0.2562(2) 0.0027(2)
H30 H 0.6795 0.2373 -0.0351
C23 C 0.6168(2) 0.1962(2) 0.0747(2)
C24 C 0.5587(2) 0.2294(2) 0.1281(2)
H31 H 0.5420 0.1931 0.1781
C25 C 0.5260(2) 0.3162(2) 0.1069(2)
H32 H 0.4857 0.3359 0.1424
C26 C 0.6521(2) 0.1021(2) 0.0921(2)
C27 C 0.6519(3) 0.0568(2) 0.1771(3)
H33 H 0.6308 0.0844 0.2261
C28 C 0.6835(4) -0.0308(3) 0.1891(3)
H34 H 0.6840 -0.0627 0.2470
C29 C 0.7140(3) -0.0714(3) 0.1176(3)
H35 H 0.7348 -0.1309 0.1255
C30 C 0.7134(3) -0.0228(3) 0.0336(3)
H36 H 0.7347 -0.0502 -0.0154
C31 C 0.7079(2) 0.6651(2) 0.1879(2)
H37 H 0.7320 0.6826 0.1345
C32 C 0.7811(2) 0.7267(2) 0.2926(2)
H38 H 0.8528 0.7843 0.3086
C33 C 0.7475(2) 0.7025(2) 0.3750(2)
C34 C 0.6381(2) 0.6148(2) 0.3441(2)
H39 H 0.6116 0.5954 0.3958
C35 C 0.5699(2) 0.5574(2) 0.2377(2)
H40 H 0.4974 0.4996 0.2192
C36 C 0.8233(2) 0.7674(2) 0.4885(2)
C37 C 0.8039(2) 0.7322(2) 0.5724(2)
H41 H 0.7430 0.6666 0.5588
C38 C 0.8746(3) 0.7940(2) 0.6761(2)
H42 H 0.8612 0.7709 0.7334
C39 C 0.9658(3) 0.8905(3) 0.6957(3)
H43 H 1.0155 0.9331 0.7661
C40 C 0.9810(4) 0.9220(3) 0.6082(3)
H44 H 1.0425 0.9870 0.6209
Cu2_2 Cu -0.5000 0.5000 0.0000
S1A S -0.22820(6) 0.64627(5) -0.06015(5)
O1A O -0.12619(17) 0.60963(15) -0.04185(17)
O3A O -0.31819(16) 0.57320(14) -0.03284(15)
O3A_2 O 0.68181(16) 0.57320(14) -0.03284(15)
O5A O -0.17704(18) 0.75325(14) 0.00876(17)
O7A O -0.29176(19) 0.65001(16) -0.17632(17)
N1A N 0.0492(2) 0.54532(18) -0.1172(2)
N2A N 0.1948(3) 0.5674(3) -0.4055(3)
N3A N -0.1472(2) 0.37309(18) -0.1167(2)
N4A N -0.5561(2) 0.14101(19) -0.4345(2)
N5A N 0.45051(19) 0.62665(17) -0.03766(18)
N6A N 0.3173(2) 0.9358(2) -0.0191(2)
N7A N 0.39721(19) 0.41940(16) -0.15910(18)
N8A N 0.0894(3) 0.1373(2) -0.5043(2)
C1A C 0.0394(3) 0.6318(2) -0.1556(3)
H13A H 0.0120 0.6747 -0.1254
C2A C 0.0683(3) 0.6596(2) -0.2385(3)
H14A H 0.0613 0.7209 -0.2620
C3A C 0.1077(2) 0.5971(2) -0.2866(2)
C4A C 0.1217(3) 0.5098(2) -0.2438(2)
H15A H 0.1518 0.4672 -0.2709
C5A C 0.0913(3) 0.4861(2) -0.1617(2)
H16A H 0.1002 0.4264 -0.1354
C6A C 0.1317(3) 0.6194(2) -0.3808(3)
C7A C 0.0861(3) 0.6866(3) -0.4413(3)
H17A H 0.0435 0.7213 -0.4221
C8A C 0.1051(3) 0.7012(3) -0.5312(3)
H18A H 0.0745 0.7457 -0.5740
C9A C 0.1691(4) 0.6500(4) -0.5575(3)
H19A H 0.1832 0.6597 -0.6176
C10A C 0.2118(4) 0.5848(4) -0.4936(4)
H20A H 0.2551 0.5502 -0.5120
C11A C -0.2515(3) 0.3868(2) -0.1835(2)
H21A H -0.2524 0.4548 -0.1784
C12A C -0.3571(3) 0.3050(2) -0.2591(2)
H22A H -0.4278 0.3183 -0.3027
C13A C -0.3593(2) 0.2024(2) -0.2711(2)
C14A C -0.2501(3) 0.1888(2) -0.2035(2)
H23A H -0.2461 0.1220 -0.2088
C15A C -0.1475(3) 0.2744(2) -0.1283(3)
H24A H -0.0755 0.2634 -0.0837
C16A C -0.4734(2) 0.1139(2) -0.3525(2)
C17A C -0.4942(3) 0.0091(2) -0.3455(3)
H25A H -0.4362 -0.0081 -0.2880
C18A C -0.6025(3) -0.0698(3) -0.4253(3)
H26A H -0.6177 -0.1406 -0.4225
C19A C -0.6868(3) -0.0417(3) -0.5084(3)
H27A H -0.7606 -0.0929 -0.5624
C20A C -0.6599(3) 0.0642(3) -0.5101(3)
H28A H -0.7171 0.0829 -0.5668
C21A C 0.3921(2) 0.6572(2) 0.0126(2)
H29A H 0.3733 0.6178 0.0598
C22A C 0.3591(2) 0.7438(2) -0.0027(2)
H30A H 0.3205 0.7627 0.0351
C23A C 0.3832(2) 0.8038(2) -0.0747(2)
C24A C 0.4413(2) 0.7706(2) -0.1281(2)
H31A H 0.4580 0.8069 -0.1781
C25A C 0.4740(2) 0.6838(2) -0.1069(2)
H32A H 0.5143 0.6641 -0.1424
C26A C 0.3479(2) 0.8979(2) -0.0921(2)
C27A C 0.3481(3) 0.9432(2) -0.1771(3)
H33A H 0.3692 0.9156 -0.2261
C28A C 0.3165(4) 1.0308(3) -0.1891(3)
H34A H 0.3160 1.0627 -0.2470
C29A C 0.2860(3) 1.0714(3) -0.1176(3)
H35A H 0.2652 1.1309 -0.1255
C30A C 0.2866(3) 1.0228(3) -0.0336(3)
H36A H 0.2653 1.0502 0.0154
C31A C 0.2921(2) 0.3349(2) -0.1879(2)
H37A H 0.2680 0.3174 -0.1345
C32A C 0.2189(2) 0.2733(2) -0.2926(2)
H38A H 0.1472 0.2157 -0.3086
C33A C 0.2525(2) 0.2975(2) -0.3750(2)
C34A C 0.3619(2) 0.3852(2) -0.3441(2)
H39A H 0.3884 0.4046 -0.3958
C35A C 0.4301(2) 0.4426(2) -0.2377(2)
H40A H 0.5026 0.5004 -0.2192
C36A C 0.1767(2) 0.2326(2) -0.4885(2)
C37A C 0.1961(2) 0.2678(2) -0.5724(2)
H41A H 0.2570 0.3334 -0.5588
C38A C 0.1254(3) 0.2060(2) -0.6761(2)
H42A H 0.1388 0.2291 -0.7334
C39A C 0.0342(3) 0.1095(3) -0.6957(3)
H43A H -0.0155 0.0669 -0.7661
C40A C 0.0190(4) 0.0780(3) -0.6082(3)
H44A H -0.0425 0.0130 -0.6209
O2 O 0.1600(2) 0.01986(17) 0.1680(2)
H1 H 0.2320(16) 0.069(2) 0.206(3)
H2 H 0.112(3) 0.051(3) 0.132(3)
O4 O -0.0079(2) 0.1498(2) -0.2340(2)
H3 H 0.048(2) 0.183(2) -0.1694(13)
H4 H -0.060(3) 0.0961(19) -0.228(3)
O6 O 0.0047(2) 0.12288(18) 0.05037(18)
H5 H -0.059(2) 0.083(2) -0.0086(18)
H6 H 0.057(3) 0.159(3) 0.030(3)
O8 O 0.5029(3) 0.3259(3) 0.4802(2)
H7 H 0.488(4) 0.276(2) 0.513(3)
H8 H 0.561(3) 0.380(2) 0.530(2)
O9 O 0.3834(2) 0.19767(18) 0.2618(2)
H9 H 0.426(3) 0.228(2) 0.3298(10)
H10 H 0.357(4) 0.241(2) 0.226(3)
O10 O 0.3738(4) 0.4721(2) 0.3801(2)
H11 H 0.405(4) 0.436(3) 0.423(3)
H12 H 0.339(4) 0.438(3) 0.3137(13)
loop_
_geom_bond_atom_site_label_1
_geom_bond_atom_site_label_2
_geom_bond_site_symmetry_1
_geom_bond_site_symmetry_2
Cu1 O1 1_555 1_555
Cu2 O3 1_555 1_555
S1 O1 1_555 1_555
O2 H1 1_555 1_555
H2 O2 1_555 1_555
O3 S1 1_555 1_555
O4 H3 1_555 1_555
H4 O4 1_555 1_555
O5 S1 1_555 1_555
O6 H5 1_555 1_555
H6 O6 1_555 1_555
O7 S1 1_555 1_555
O8 H7 1_555 1_555
H8 O8 1_555 1_555
O9 H9 1_555 1_555
H10 O9 1_555 1_555
O10 H11 1_555 1_555
H12 O10 1_555 1_555
N1 Cu1 1_555 1_555
N2 C6 1_555 1_555
N3 Cu1 1_555 1_555
N4 C16 1_555 1_555
N5 Cu2 1_555 1_555
N6 C26 1_555 1_555
N7 Cu2 1_555 1_555
N8 C36 1_555 1_555
C1 N1 1_555 1_555
H13 C1 1_555 1_555
C2 C1 1_555 1_555
H14 C2 1_555 1_555
C3 C2 1_555 1_555
C4 C3 1_555 1_555
H15 C4 1_555 1_555
C5 N1 1_555 1_555
H16 C5 1_555 1_555
C6 C3 1_555 1_555
C7 C6 1_555 1_555
H17 C7 1_555 1_555
C8 C7 1_555 1_555
H18 C8 1_555 1_555
C9 C8 1_555 1_555
H19 C9 1_555 1_555
C10 N2 1_555 1_555
H20 C10 1_555 1_555
C11 N3 1_555 1_555
H21 C11 1_555 1_555
C12 C11 1_555 1_555
H22 C12 1_555 1_555
C13 C12 1_555 1_555
C14 C13 1_555 1_555
H23 C14 1_555 1_555
C15 N3 1_555 1_555
H24 C15 1_555 1_555
C16 C13 1_555 1_555
C17 C16 1_555 1_555
H25 C17 1_555 1_555
C18 C17 1_555 1_555
H26 C18 1_555 1_555
C19 C18 1_555 1_555
H27 C19 1_555 1_555
C20 N4 1_555 1_555
H28 C20 1_555 1_555
C21 N5 1_555 1_555
H29 C21 1_555 1_555
C22 C21 1_555 1_555
H30 C22 1_555 1_555
C23 C22 1_555 1_555
C24 C23 1_555 1_555
H31 C24 1_555 1_555
C25 N5 1_555 1_555
H32 C25 1_555 1_555
C26 C23 1_555 1_555
C27 C26 1_555 1_555
H33 C27 1_555 1_555
C28 C27 1_555 1_555
H34 C28 1_555 1_555
C29 C28 1_555 1_555
H35 C29 1_555 1_555
C30 N6 1_555 1_555
H36 C30 1_555 1_555
C31 N7 1_555 1_555
H37 C31 1_555 1_555
C32 C31 1_555 1_555
H38 C32 1_555 1_555
C33 C32 1_555 1_555
C34 C33 1_555 1_555
H39 C34 1_555 1_555
C35 N7 1_555 1_555
H40 C35 1_555 1_555
C36 C33 1_555 1_555
C37 C36 1_555 1_555
H41 C37 1_555 1_555
C38 C37 1_555 1_555
H42 C38 1_555 1_555
C39 C38 1_555 1_555
H43 C39 1_555 1_555
C40 N8 1_555 1_555
H44 C40 1_555 1_555
Cu2_2 O3A 1_555 1_555
S1A O1A 1_555 1_555
O1A Cu1 1_555 1_555
O3A S1A 1_555 1_555
O3A_2 Cu2 1_555 1_555
O5A S1A 1_555 1_555
O7A S1A 1_555 1_555
N1A Cu1 1_555 1_555
N2A C6A 1_555 1_555
N3A Cu1 1_555 1_555
N4A C16A 1_555 1_555
N5A Cu2 1_555 1_555
N6A C26A 1_555 1_555
N7A Cu2 1_555 1_555
N8A C36A 1_555 1_555
C1A N1A 1_555 1_555
H13A C1A 1_555 1_555
C2A C1A 1_555 1_555
H14A C2A 1_555 1_555
C3A C2A 1_555 1_555
C4A C3A 1_555 1_555
H15A C4A 1_555 1_555
C5A N1A 1_555 1_555
H16A C5A 1_555 1_555
C6A C3A 1_555 1_555
C7A C6A 1_555 1_555
H17A C7A 1_555 1_555
C8A C7A 1_555 1_555
H18A C8A 1_555 1_555
C9A C8A 1_555 1_555
H19A C9A 1_555 1_555
C10A N2A 1_555 1_555
H20A C10A 1_555 1_555
C11A N3A 1_555 1_555
H21A C11A 1_555 1_555
C12A C11A 1_555 1_555
H22A C12A 1_555 1_555
C13A C12A 1_555 1_555
C14A C13A 1_555 1_555
H23A C14A 1_555 1_555
C15A N3A 1_555 1_555
H24A C15A 1_555 1_555
C16A C13A 1_555 1_555
C17A C16A 1_555 1_555
H25A C17A 1_555 1_555
C18A C17A 1_555 1_555
H26A C18A 1_555 1_555
C19A C18A 1_555 1_555
H27A C19A 1_555 1_555
C20A N4A 1_555 1_555
H28A C20A 1_555 1_555
C21A N5A 1_555 1_555
H29A C21A 1_555 1_555
C22A C21A 1_555 1_555
H30A C22A 1_555 1_555
C23A C22A 1_555 1_555
C24A C23A 1_555 1_555
H31A C24A 1_555 1_555
C25A N5A 1_555 1_555
H32A C25A 1_555 1_555
C26A C23A 1_555 1_555
C27A C26A 1_555 1_555
H33A C27A 1_555 1_555
C28A C27A 1_555 1_555
H34A C28A 1_555 1_555
C29A C28A 1_555 1_555
H35A C29A 1_555 1_555
C30A N6A 1_555 1_555
H36A C30A 1_555 1_555
C31A N7A 1_555 1_555
H37A C31A 1_555 1_555
C32A C31A 1_555 1_555
H38A C32A 1_555 1_555
C33A C32A 1_555 1_555
C34A C33A 1_555 1_555
H39A C34A 1_555 1_555
C35A N7A 1_555 1_555
H40A C35A 1_555 1_555
C36A C33A 1_555 1_555
C37A C36A 1_555 1_555
H41A C37A 1_555 1_555
C38A C37A 1_555 1_555
H42A C38A 1_555 1_555
C39A C38A 1_555 1_555
H43A C39A 1_555 1_555
C40A N8A 1_555 1_555
H44A C40A 1_555 1_555
C4 C5 1_555 1_555
C9 C10 1_555 1_555
C14 C15 1_555 1_555
C19 C20 1_555 1_555
C24 C25 1_555 1_555
C29 C30 1_555 1_555
C34 C35 1_555 1_555
C39 C40 1_555 1_555
C4A C5A 1_555 1_555
C9A C10A 1_555 1_555
C14A C15A 1_555 1_555
C19A C20A 1_555 1_555
C24A C25A 1_555 1_555
C29A C30A 1_555 1_555
C34A C35A 1_555 1_555
C39A C40A 1_555 1_555

#END
