
#######################################################################
#
#                 Cambridge Crystallographic Data Centre
#                                CCDC 
#
#######################################################################
#
# If this CIF has been generated from an entry in the Cambridge 
# Structural Database, then it will include bibliographic, chemical, 
# crystal, experimental, refinement or atomic coordinate data resulting 
# from the CCDC's data processing and validation procedures.
#
#######################################################################

data_RERVEQ
_symmetry_cell_setting           triclinic
_symmetry_space_group_name_H-M   'P -1'
_symmetry_Int_Tables_number      2
_space_group_name_Hall           '-P 1'
loop_
_symmetry_equiv_pos_site_id
_symmetry_equiv_pos_as_xyz
1 x,y,z
2 -x,-y,-z
_cell_length_a                   12.796(4)
_cell_length_b                   13.491(4)
_cell_length_c                   14.131(4)
_cell_angle_alpha                90.636(5)
_cell_angle_beta                 108.398(5)
_cell_angle_gamma                116.762(5)
_cell_volume                     2032.74
loop_
_atom_site_label
_atom_site_type_symbol
_atom_site_fract_x
_atom_site_fract_y
_atom_site_fract_z
Cu1 Cu 0.0000 1.0000 0.0000
Cu2 Cu 0.5000 1.0000 0.0000
O1 O 0.3194(3) 0.9979(3) 0.2446(3)
O3 O 0.1780(3) 0.9597(3) 0.0728(2)
O5 O 0.3634(3) 0.9403(3) 0.1068(3)
O7 O 0.1916(3) 0.8065(3) 0.1511(3)
N1 N 0.5456(4) 0.8769(3) 0.0399(3)
N2 N 0.6453(4) 1.1138(3) 0.1240(3)
N3 N -0.0559(3) 0.9551(3) 0.1196(3)
N4 N 0.1039(3) 1.1587(3) 0.0799(3)
C1 C 0.5669(5) 0.7495(4) 0.1517(4)
H11 H 0.5607 0.7231 0.2113
C2 C 0.5857(5) 0.8353(4) -0.0187(4)
H12 H 0.5941 0.8649 -0.0766
C3 C 0.6071(4) 0.7043(4) 0.0906(4)
C4 C 0.5362(5) 0.8330(4) 0.1244(4)
H13 H 0.5077 0.8607 0.1657
C5 C 0.6391(4) 0.6126(4) 0.1168(4)
C6 C 0.6152(5) 0.7495(4) 0.0039(4)
H14 H 0.6410 0.7217 -0.0397
C7 C 0.6131(6) 0.4513(5) 0.1985(4)
H15 H 0.5760 0.4016 0.2375
C8 C 0.5832(5) 0.5374(5) 0.1742(4)
H16 H 0.5255 0.5446 0.1965
C9 C 0.7241(6) 0.5994(5) 0.0854(5)
H17 H 0.7622 0.6488 0.0468
C10 C 0.6962(6) 0.4398(5) 0.1654(5)
H18 H 0.7141 0.3810 0.1803
C11 C 0.7543(7) 0.5143(6) 0.1102(5)
H19 H 0.8133 0.5075 0.0895
C12 C 0.9690(5) 1.3517(4) 0.3750(4)
C13 C 0.6409(4) 1.1250(4) 0.2157(4)
H20 H 0.5661 1.0794 0.2253
C14 C 0.8592(5) 1.2602(4) 0.1917(4)
H21 H 0.9322 1.3053 0.1796
C15 C 0.7427(4) 1.2016(4) 0.2981(4)
H22 H 0.7340 1.2065 0.3607
C16 C 0.8569(4) 1.2710(4) 0.2892(4)
C17 C 0.7535(5) 1.1828(4) 0.1131(4)
H23 H 0.7578 1.1786 0.0489
C18 C 1.0700(5) 1.4390(4) 0.3584(4)
H24 H 1.0664 1.4468 0.2922
C19 C 0.9784(5) 1.3424(4) 0.4752(4)
H25 H 0.9124 1.2846 0.4883
C20 C 1.0835(5) 1.4169(4) 0.5550(4)
H26 H 1.0876 1.4093 0.6212
C21 C 1.1835(5) 1.5035(5) 0.5372(4)
H27 H 1.2549 1.5535 0.5911
C22 C 1.1756(5) 1.5145(5) 0.4386(4)
H28 H 1.2417 1.5728 0.4259
C23 C -0.1188(4) 0.9205(4) 0.2956(3)
C24 C -0.1189(4) 1.0020(4) 0.1451(4)
H29 H -0.1420 1.0469 0.1030
C25 C -0.0560(5) 0.8704(4) 0.2669(4)
H30 H -0.0339 0.8235 0.3067
C26 C -0.0267(4) 0.8888(4) 0.1818(4)
H31 H 0.0154 0.8540 0.1658
C27 C -0.1487(4) 0.9054(4) 0.3888(4)
C28 C -0.1504(4) 0.9869(4) 0.2293(4)
H32 H -0.1939 1.0216 0.2430
C29 C -0.1498(5) 0.8162(5) 0.4382(4)
H33 H -0.1348 0.7632 0.4105
C30 C -0.1737(5) 0.9816(5) 0.4322(4)
H34 H -0.1729 1.0421 0.4010
C31 C -0.1996(5) 0.9698(5) 0.5201(4)
H35 H -0.2178 1.0208 0.5469
C32 C -0.1982(5) 0.8807(5) 0.5684(4)
H36 H -0.2145 0.8724 0.6283
C33 C -0.1727(5) 0.8054(5) 0.5279(4)
H37 H -0.1707 0.7466 0.5608
C34 C 0.0750(4) 1.2423(4) 0.0601(3)
H38 H 0.0044 1.2276 0.0041
C35 C 0.1441(4) 1.3480(4) 0.1183(4)
H39 H 0.1197 1.4027 0.1009
C36 C 0.2793(5) 1.2876(4) 0.2238(4)
H40 H 0.3492 1.3002 0.2796
C37 C 0.2054(4) 1.1832(4) 0.1625(4)
H41 H 0.2266 1.1265 0.1789
C38 C 0.2500(4) 1.3748(4) 0.2028(4)
C39 C 0.3292(4) 1.4892(4) 0.2670(4)
C40 C 0.3061(5) 1.5793(4) 0.2388(4)
H42 H 0.2393 1.5668 0.1802
C41 C 0.4812(5) 1.7066(5) 0.3827(4)
H43 H 0.5334 1.7792 0.4204
C42 C 0.3820(5) 1.6861(4) 0.2976(4)
H44 H 0.3649 1.7446 0.2786
C43 C 0.4294(5) 1.5108(4) 0.3549(4)
H45 H 0.4468 1.4529 0.3753
C44 C 0.5041(5) 1.6192(5) 0.4128(4)
H46 H 0.5701 1.6328 0.4724
S1 S 0.26352(11) 0.92612(10) 0.14334(9)
Cu2_2 Cu -0.5000 1.0000 0.0000
O1A O -0.3194(3) 1.0021(3) -0.2446(3)
O3A O -0.1780(3) 1.0403(3) -0.0728(2)
O5A O -0.3634(3) 1.0597(3) -0.1068(3)
O5A_2 O 0.6366(3) 1.0597(3) -0.1068(3)
O7A O -0.1916(3) 1.1935(3) -0.1511(3)
N1A N 0.4544(4) 1.1231(3) -0.0399(3)
N2A N 0.3547(4) 0.8862(3) -0.1240(3)
N3A N 0.0559(3) 1.0449(3) -0.1196(3)
N4A N -0.1039(3) 0.8413(3) -0.0799(3)
C1A C 0.4331(5) 1.2505(4) -0.1517(4)
H11A H 0.4393 1.2769 -0.2113
C2A C 0.4143(5) 1.1647(4) 0.0187(4)
H12A H 0.4059 1.1351 0.0766
C3A C 0.3929(4) 1.2957(4) -0.0906(4)
C4A C 0.4638(5) 1.1670(4) -0.1244(4)
H13A H 0.4923 1.1393 -0.1657
C5A C 0.3609(4) 1.3874(4) -0.1168(4)
C6A C 0.3848(5) 1.2505(4) -0.0039(4)
H14A H 0.3590 1.2783 0.0397
C7A C 0.3869(6) 1.5487(5) -0.1985(4)
H15A H 0.4240 1.5984 -0.2375
C8A C 0.4168(5) 1.4626(5) -0.1742(4)
H16A H 0.4745 1.4554 -0.1965
C9A C 0.2759(6) 1.4006(5) -0.0854(5)
H17A H 0.2378 1.3512 -0.0468
C10A C 0.3038(6) 1.5602(5) -0.1654(5)
H18A H 0.2859 1.6190 -0.1803
C11A C 0.2457(7) 1.4857(6) -0.1102(5)
H19A H 0.1867 1.4925 -0.0895
C12A C 0.0310(5) 0.6483(4) -0.3750(4)
C13A C 0.3591(4) 0.8750(4) -0.2157(4)
H20A H 0.4339 0.9206 -0.2253
C14A C 0.1408(5) 0.7398(4) -0.1917(4)
H21A H 0.0678 0.6947 -0.1796
C15A C 0.2573(4) 0.7984(4) -0.2981(4)
H22A H 0.2660 0.7935 -0.3607
C16A C 0.1431(4) 0.7290(4) -0.2892(4)
C17A C 0.2465(5) 0.8172(4) -0.1131(4)
H23A H 0.2422 0.8214 -0.0489
C18A C -0.0700(5) 0.5610(4) -0.3584(4)
H24A H -0.0664 0.5532 -0.2922
C19A C 0.0216(5) 0.6576(4) -0.4752(4)
H25A H 0.0876 0.7154 -0.4883
C20A C -0.0835(5) 0.5831(4) -0.5550(4)
H26A H -0.0876 0.5907 -0.6212
C21A C -0.1835(5) 0.4965(5) -0.5372(4)
H27A H -0.2549 0.4465 -0.5911
C22A C -0.1756(5) 0.4855(5) -0.4386(4)
H28A H -0.2417 0.4272 -0.4259
C23A C 0.1188(4) 1.0795(4) -0.2956(3)
C24A C 0.1189(4) 0.9980(4) -0.1451(4)
H29A H 0.1420 0.9531 -0.1030
C25A C 0.0560(5) 1.1296(4) -0.2669(4)
H30A H 0.0339 1.1765 -0.3067
C26A C 0.0267(4) 1.1112(4) -0.1818(4)
H31A H -0.0154 1.1460 -0.1658
C27A C 0.1487(4) 1.0946(4) -0.3888(4)
C28A C 0.1504(4) 1.0131(4) -0.2293(4)
H32A H 0.1939 0.9784 -0.2430
C29A C 0.1498(5) 1.1838(5) -0.4382(4)
H33A H 0.1348 1.2368 -0.4105
C30A C 0.1737(5) 1.0184(5) -0.4322(4)
H34A H 0.1729 0.9579 -0.4010
C31A C 0.1996(5) 1.0302(5) -0.5201(4)
H35A H 0.2178 0.9792 -0.5469
C32A C 0.1982(5) 1.1193(5) -0.5684(4)
H36A H 0.2145 1.1276 -0.6283
C33A C 0.1727(5) 1.1946(5) -0.5279(4)
H37A H 0.1707 1.2534 -0.5608
C34A C -0.0750(4) 0.7577(4) -0.0601(3)
H38A H -0.0044 0.7724 -0.0041
C35A C -0.1441(4) 0.6520(4) -0.1183(4)
H39A H -0.1197 0.5973 -0.1009
C36A C -0.2793(5) 0.7124(4) -0.2238(4)
H40A H -0.3492 0.6998 -0.2796
C37A C -0.2054(4) 0.8168(4) -0.1625(4)
H41A H -0.2266 0.8735 -0.1789
C38A C -0.2500(4) 0.6252(4) -0.2028(4)
C39A C -0.3292(4) 0.5108(4) -0.2670(4)
C40A C -0.3061(5) 0.4207(4) -0.2388(4)
H42A H -0.2393 0.4332 -0.1802
C41A C -0.4812(5) 0.2934(5) -0.3827(4)
H43A H -0.5334 0.2208 -0.4204
C42A C -0.3820(5) 0.3139(4) -0.2976(4)
H44A H -0.3649 0.2554 -0.2786
C43A C -0.4294(5) 0.4892(4) -0.3549(4)
H45A H -0.4468 0.5471 -0.3753
C44A C -0.5041(5) 0.3808(5) -0.4128(4)
H46A H -0.5701 0.3672 -0.4724
S1A S -0.26352(11) 1.07388(10) -0.14334(9)
O2 O 0.1239(4) 0.7323(4) 0.3145(3)
H1 H 0.149(5) 0.761(4) 0.267(3)
H2 H 0.141(6) 0.777(4) 0.364(3)
O4 O 0.3514(4) 0.8342(3) 0.4862(3)
H3 H 0.401(4) 0.871(4) 0.456(4)
H4 H 0.278(2) 0.798(4) 0.442(3)
O6 O 0.4991(4) 0.9553(3) 0.3767(3)
H5 H 0.558(3) 1.016(3) 0.417(3)
H6 H 0.439(3) 0.965(4) 0.341(3)
O8 O 0.5029(4) 0.7715(3) 0.6536(3)
H7 H 0.559(4) 0.836(3) 0.687(4)
H8 H 0.460(5) 0.771(5) 0.595(2)
O9 O 0.1148(8) 0.6108(6) 0.0164(4)
H9 H 0.141(8) 0.677(3) 0.053(6)
H10 H 0.063(7) 0.574(6) 0.053(6)
loop_
_geom_bond_atom_site_label_1
_geom_bond_atom_site_label_2
_geom_bond_site_symmetry_1
_geom_bond_site_symmetry_2
Cu1 O3 1_555 1_555
Cu2 O5 1_555 1_555
O1 S1 1_555 1_555
O2 H1 1_555 1_555
H2 O2 1_555 1_555
O3 S1 1_555 1_555
O4 H3 1_555 1_555
H4 O4 1_555 1_555
O5 S1 1_555 1_555
O6 H5 1_555 1_555
H6 O6 1_555 1_555
O7 S1 1_555 1_555
O8 H7 1_555 1_555
H8 O8 1_555 1_555
O9 H9 1_555 1_555
H10 O9 1_555 1_555
N1 Cu2 1_555 1_555
N2 Cu2 1_555 1_555
N3 Cu1 1_555 1_555
N4 Cu1 1_555 1_555
C1 H11 1_555 1_555
C2 N1 1_555 1_555
H12 C2 1_555 1_555
C3 C1 1_555 1_555
C4 N1 1_555 1_555
H13 C4 1_555 1_555
C5 C3 1_555 1_555
C6 C2 1_555 1_555
H14 C6 1_555 1_555
C7 H15 1_555 1_555
C8 C5 1_555 1_555
H16 C8 1_555 1_555
C9 C5 1_555 1_555
H17 C9 1_555 1_555
C10 C7 1_555 1_555
H18 C10 1_555 1_555
C11 C9 1_555 1_555
H19 C11 1_555 1_555
C12 C16 1_555 1_555
C13 N2 1_555 1_555
H20 C13 1_555 1_555
C14 H21 1_555 1_555
C15 C13 1_555 1_555
H22 C15 1_555 1_555
C16 C14 1_555 1_555
C17 N2 1_555 1_555
H23 C17 1_555 1_555
C18 C12 1_555 1_555
H24 C18 1_555 1_555
C19 C12 1_555 1_555
H25 C19 1_555 1_555
C20 C19 1_555 1_555
H26 C20 1_555 1_555
C21 C20 1_555 1_555
H27 C21 1_555 1_555
C22 C18 1_555 1_555
H28 C22 1_555 1_555
C23 C25 1_555 1_555
C24 N3 1_555 1_555
H29 C24 1_555 1_555
C25 H30 1_555 1_555
C26 N3 1_555 1_555
H31 C26 1_555 1_555
C27 C23 1_555 1_555
C28 C23 1_555 1_555
H32 C28 1_555 1_555
C29 C27 1_555 1_555
H33 C29 1_555 1_555
C30 C27 1_555 1_555
H34 C30 1_555 1_555
C31 C30 1_555 1_555
H35 C31 1_555 1_555
C32 C31 1_555 1_555
H36 C32 1_555 1_555
C33 C29 1_555 1_555
H37 C33 1_555 1_555
C34 N4 1_555 1_555
H38 C34 1_555 1_555
C35 C34 1_555 1_555
H39 C35 1_555 1_555
C36 H40 1_555 1_555
C37 N4 1_555 1_555
H41 C37 1_555 1_555
C38 C35 1_555 1_555
C39 C38 1_555 1_555
C40 C39 1_555 1_555
H42 C40 1_555 1_555
C41 H43 1_555 1_555
C42 C40 1_555 1_555
H44 C42 1_555 1_555
C43 C39 1_555 1_555
H45 C43 1_555 1_555
C44 C41 1_555 1_555
H46 C44 1_555 1_555
Cu2_2 O5A 1_555 1_555
O1A S1A 1_555 1_555
O3A Cu1 1_555 1_555
O5A S1A 1_555 1_555
O5A_2 Cu2 1_555 1_555
O7A S1A 1_555 1_555
N1A Cu2 1_555 1_555
N2A Cu2 1_555 1_555
N3A Cu1 1_555 1_555
N4A Cu1 1_555 1_555
C1A H11A 1_555 1_555
C2A N1A 1_555 1_555
H12A C2A 1_555 1_555
C3A C1A 1_555 1_555
C4A N1A 1_555 1_555
H13A C4A 1_555 1_555
C5A C3A 1_555 1_555
C6A C2A 1_555 1_555
H14A C6A 1_555 1_555
C7A H15A 1_555 1_555
C8A C5A 1_555 1_555
H16A C8A 1_555 1_555
C9A C5A 1_555 1_555
H17A C9A 1_555 1_555
C10A C7A 1_555 1_555
H18A C10A 1_555 1_555
C11A C9A 1_555 1_555
H19A C11A 1_555 1_555
C12A C16A 1_555 1_555
C13A N2A 1_555 1_555
H20A C13A 1_555 1_555
C14A H21A 1_555 1_555
C15A C13A 1_555 1_555
H22A C15A 1_555 1_555
C16A C14A 1_555 1_555
C17A N2A 1_555 1_555
H23A C17A 1_555 1_555
C18A C12A 1_555 1_555
H24A C18A 1_555 1_555
C19A C12A 1_555 1_555
H25A C19A 1_555 1_555
C20A C19A 1_555 1_555
H26A C20A 1_555 1_555
C21A C20A 1_555 1_555
H27A C21A 1_555 1_555
C22A C18A 1_555 1_555
H28A C22A 1_555 1_555
C23A C25A 1_555 1_555
C24A N3A 1_555 1_555
H29A C24A 1_555 1_555
C25A H30A 1_555 1_555
C26A N3A 1_555 1_555
H31A C26A 1_555 1_555
C27A C23A 1_555 1_555
C28A C23A 1_555 1_555
H32A C28A 1_555 1_555
C29A C27A 1_555 1_555
H33A C29A 1_555 1_555
C30A C27A 1_555 1_555
H34A C30A 1_555 1_555
C31A C30A 1_555 1_555
H35A C31A 1_555 1_555
C32A C31A 1_555 1_555
H36A C32A 1_555 1_555
C33A C29A 1_555 1_555
H37A C33A 1_555 1_555
C34A N4A 1_555 1_555
H38A C34A 1_555 1_555
C35A C34A 1_555 1_555
H39A C35A 1_555 1_555
C36A H40A 1_555 1_555
C37A N4A 1_555 1_555
H41A C37A 1_555 1_555
C38A C35A 1_555 1_555
C39A C38A 1_555 1_555
C40A C39A 1_555 1_555
H42A C40A 1_555 1_555
C41A H43A 1_555 1_555
C42A C40A 1_555 1_555
H44A C42A 1_555 1_555
C43A C39A 1_555 1_555
H45A C43A 1_555 1_555
C44A C41A 1_555 1_555
H46A C44A 1_555 1_555
S1A O3A 1_555 1_555
C1 C4 1_555 1_555
C3 C6 1_555 1_555
C7 C8 1_555 1_555
C10 C11 1_555 1_555
C14 C17 1_555 1_555
C15 C16 1_555 1_555
C21 C22 1_555 1_555
C24 C28 1_555 1_555
C25 C26 1_555 1_555
C32 C33 1_555 1_555
C36 C37 1_555 1_555
C36 C38 1_555 1_555
C41 C42 1_555 1_555
C43 C44 1_555 1_555
C1A C4A 1_555 1_555
C3A C6A 1_555 1_555
C7A C8A 1_555 1_555
C10A C11A 1_555 1_555
C14A C17A 1_555 1_555
C15A C16A 1_555 1_555
C21A C22A 1_555 1_555
C24A C28A 1_555 1_555
C25A C26A 1_555 1_555
C32A C33A 1_555 1_555
C36A C37A 1_555 1_555
C36A C38A 1_555 1_555
C41A C42A 1_555 1_555
C43A C44A 1_555 1_555

#END
