
#######################################################################
#
#                 Cambridge Crystallographic Data Centre
#                                CCDC 
#
#######################################################################
#
# If this CIF has been generated from an entry in the Cambridge 
# Structural Database, then it will include bibliographic, chemical, 
# crystal, experimental, refinement or atomic coordinate data resulting 
# from the CCDC's data processing and validation procedures.
#
#######################################################################

data_RERVIU
_symmetry_cell_setting           triclinic
_symmetry_space_group_name_H-M   'P -1'
_symmetry_Int_Tables_number      2
_space_group_name_Hall           '-P 1'
loop_
_symmetry_equiv_pos_site_id
_symmetry_equiv_pos_as_xyz
1 x,y,z
2 -x,-y,-z
_cell_length_a                   13.087(3)
_cell_length_b                   13.149(3)
_cell_length_c                   14.107(3)
_cell_angle_alpha                90.716(4)
_cell_angle_beta                 113.349(3)
_cell_angle_gamma                112.250(3)
_cell_volume                     2024.7
loop_
_atom_site_label
_atom_site_type_symbol
_atom_site_fract_x
_atom_site_fract_y
_atom_site_fract_z
Cu1 Cu 0.0000 0.5000 0.5000
Cu2 Cu 0.5000 0.5000 0.5000
Si1 Si 0.31287(10) 0.70204(9) 0.44632(8)
F1 F 0.1983(2) 0.60161(19) 0.46665(17)
F2 F 0.3877(2) 0.6175(2) 0.46633(19)
F3 F 0.3868(2) 0.7547(2) 0.57573(19)
F4 F 0.4275(2) 0.7995(2) 0.4275(2)
F5 F 0.2407(3) 0.7854(2) 0.4258(2)
F6 F 0.2380(2) 0.6434(2) 0.31794(18)
N1 N 0.5597(3) 0.5549(3) 0.3891(3)
N2 N 0.5763(4) 0.6867(4) 0.0581(4)
N3 N 0.3540(3) 0.3770(3) 0.3841(3)
N4 N -0.0940(3) 0.4257(3) 0.3465(3)
N5 N -0.3941(4) 0.1500(4) 0.0061(3)
N6 N -0.0471(3) 0.6285(3) 0.4683(3)
N7 N -0.2049(4) 0.9200(4) 0.4708(3)
C1 C 0.5475(4) 0.6417(4) 0.3458(4)
H1 H 0.5196 0.6859 0.3742
C2 C 0.5735(4) 0.6698(4) 0.2620(4)
H2 H 0.5648 0.7331 0.2345
C3 C 0.6129(4) 0.6050(4) 0.2169(3)
C4 C 0.6295(4) 0.5179(4) 0.2653(3)
H3 H 0.6601 0.4738 0.2404
C5 C 0.6018(4) 0.4950(4) 0.3491(3)
H4 H 0.6129 0.4341 0.3802
C6 C 0.6320(4) 0.6261(4) 0.1209(3)
C7 C 0.6997(5) 0.5835(4) 0.0980(4)
H5 H 0.7391 0.5439 0.1438
C8 C 0.7093(7) 0.5997(5) 0.0055(6)
H6 H 0.7561 0.5701 -0.0131
C9 C 0.6532(6) 0.6573(6) -0.0610(5)
H7 H 0.6600 0.6671 -0.1252
C10 C 0.5887(5) 0.6993(6) -0.0326(4)
H8 H 0.5500 0.7396 -0.0779
C11 C 0.2661(4) 0.4019(4) 0.3141(4)
H9 H 0.2767 0.4776 0.3200
C12 C 0.1613(4) 0.3231(4) 0.2343(4)
H10 H 0.1014 0.3449 0.1870
C13 C 0.1431(4) 0.2122(4) 0.2227(4)
C14 C 0.2360(4) 0.1869(4) 0.2938(4)
H11 H 0.2285 0.1121 0.2881
C15 C 0.3382(4) 0.2695(4) 0.3721(4)
H12 H 0.4001 0.2500 0.4197
C16 C -0.0480(4) 0.4535(4) 0.2752(3)
H13 H 0.0314 0.5121 0.2971
C17 C -0.1139(4) 0.3987(4) 0.1709(3)
H14 H -0.0791 0.4202 0.1227
C18 C -0.2300(4) 0.3126(3) 0.1364(3)
C19 C -0.2749(4) 0.2841(4) 0.2115(3)
H15 H -0.3533 0.2247 0.1922
C20 C -0.2052(4) 0.3424(3) 0.3142(3)
H16 H -0.2378 0.3222 0.3639
C21 C -0.3023(4) 0.2515(4) 0.0257(3)
C22 C -0.2734(4) 0.2984(4) -0.0517(3)
H17 H -0.2086 0.3703 -0.0363
C23 C -0.3435(6) 0.2355(6) -0.1543(4)
H18 H -0.3262 0.2654 -0.2099
C24 C -0.4351(6) 0.1337(6) -0.1753(4)
H19 H -0.4816 0.0910 -0.2449
C25 C -0.4594(6) 0.0935(5) -0.0954(4)
H20 H -0.5253 0.0223 -0.1108
C26 C -0.1042(4) 0.6559(3) 0.5197(3)
H21 H -0.1223 0.6123 0.5688
C27 C -0.1368(4) 0.7440(3) 0.5035(3)
H22 H -0.1758 0.7609 0.5418
C28 C -0.1131(4) 0.8086(3) 0.4313(3)
C29 C -0.0542(4) 0.7806(4) 0.3792(3)
H23 H -0.0356 0.8225 0.3292
C30 C -0.0226(4) 0.6917(4) 0.4003(3)
H24 H 0.0186 0.6746 0.3644
C31 C -0.1537(4) 0.9013(3) 0.4106(3)
C32 C -0.1410(5) 0.9628(4) 0.3354(4)
H25 H -0.1027 0.9495 0.2947
C33 C -0.1852(6) 1.0452(5) 0.3195(5)
H26 H -0.1787 1.0881 0.2668
C34 C -0.2376(5) 1.0639(4) 0.3799(4)
H27 H -0.2680 1.1200 0.3706
C35 C -0.2454(5) 1.0004(4) 0.4539(5)
H28 H -0.2818 1.0139 0.4962
N8 N -0.0439(10) 0.1540(9) 0.0745(9)
C36 C 0.0276(12) 0.1334(11) 0.1313(11)
C37 C 0.0049(13) 0.0049(12) 0.1489(11)
H29 H 0.0571 -0.0143 0.2075
C38 C -0.0966(15) -0.0687(15) 0.0698(13)
H30 H -0.1092 -0.1450 0.0648
C39 C -0.1859(18) -0.0434(15) -0.0061(15)
H31 H -0.2618 -0.0990 -0.0563
C40 C -0.1541(15) 0.0698(14) -0.0018(13)
H32 H -0.2098 0.0926 -0.0534
Cu2_2 Cu -0.5000 0.5000 0.5000
Si1A Si -0.31287(10) 0.29796(9) 0.55368(8)
F1A F -0.1983(2) 0.39839(19) 0.53335(17)
F2A F -0.3877(2) 0.3825(2) 0.53367(19)
F2A_2 F 0.6123(2) 0.3825(2) 0.53367(19)
F3A F -0.3868(2) 0.2453(2) 0.42427(19)
F4A F -0.4275(2) 0.2005(2) 0.5725(2)
F5A F -0.2407(3) 0.2146(2) 0.5742(2)
F6A F -0.2380(2) 0.3566(2) 0.68206(18)
N1A N 0.4403(3) 0.4451(3) 0.6109(3)
N2A N 0.4237(4) 0.3133(4) 0.9419(4)
N3A N 0.6460(3) 0.6230(3) 0.6159(3)
N4A N 0.0940(3) 0.5743(3) 0.6535(3)
N5A N 0.3941(4) 0.8500(4) 0.9939(3)
N6A N 0.0471(3) 0.3715(3) 0.5317(3)
N7A N 0.2049(4) 0.0800(4) 0.5292(3)
C1A C 0.4525(4) 0.3583(4) 0.6542(4)
H1A H 0.4804 0.3141 0.6258
C2A C 0.4265(4) 0.3302(4) 0.7380(4)
H2A H 0.4352 0.2669 0.7655
C3A C 0.3871(4) 0.3950(4) 0.7831(3)
C4A C 0.3705(4) 0.4821(4) 0.7347(3)
H3A H 0.3399 0.5262 0.7596
C5A C 0.3982(4) 0.5050(4) 0.6509(3)
H4A H 0.3871 0.5659 0.6198
C6A C 0.3680(4) 0.3739(4) 0.8791(3)
C7A C 0.3003(5) 0.4165(4) 0.9020(4)
H5A H 0.2609 0.4561 0.8562
C8A C 0.2907(7) 0.4003(5) 0.9945(6)
H6A H 0.2439 0.4299 1.0131
C9A C 0.3468(6) 0.3427(6) 1.0610(5)
H7A H 0.3400 0.3329 1.1252
C10A C 0.4113(5) 0.3007(6) 1.0326(4)
H8A H 0.4500 0.2604 1.0779
C11A C 0.7339(4) 0.5981(4) 0.6859(4)
H9A H 0.7233 0.5224 0.6800
C12A C 0.8387(4) 0.6769(4) 0.7657(4)
H10A H 0.8986 0.6551 0.8130
C13A C 0.8569(4) 0.7878(4) 0.7773(4)
C14A C 0.7640(4) 0.8131(4) 0.7062(4)
H11A H 0.7715 0.8879 0.7119
C15A C 0.6618(4) 0.7305(4) 0.6279(4)
H12A H 0.5999 0.7500 0.5803
C16A C 0.0480(4) 0.5465(4) 0.7248(3)
H13A H -0.0314 0.4879 0.7029
C17A C 0.1139(4) 0.6013(4) 0.8291(3)
H14A H 0.0791 0.5798 0.8773
C18A C 0.2300(4) 0.6874(3) 0.8636(3)
C19A C 0.2749(4) 0.7159(4) 0.7885(3)
H15A H 0.3533 0.7753 0.8078
C20A C 0.2052(4) 0.6576(3) 0.6858(3)
H16A H 0.2378 0.6778 0.6361
C21A C 0.3023(4) 0.7485(4) 0.9743(3)
C22A C 0.2734(4) 0.7016(4) 1.0517(3)
H17A H 0.2086 0.6297 1.0363
C23A C 0.3435(6) 0.7645(6) 1.1543(4)
H18A H 0.3262 0.7346 1.2099
C24A C 0.4351(6) 0.8663(6) 1.1753(4)
H19A H 0.4816 0.9090 1.2449
C25A C 0.4594(6) 0.9065(5) 1.0954(4)
H20A H 0.5253 0.9777 1.1108
C26A C 0.1042(4) 0.3441(3) 0.4803(3)
H21A H 0.1223 0.3877 0.4312
C27A C 0.1368(4) 0.2560(3) 0.4965(3)
H22A H 0.1758 0.2391 0.4582
C28A C 0.1131(4) 0.1914(3) 0.5687(3)
C29A C 0.0542(4) 0.2194(4) 0.6208(3)
H23A H 0.0356 0.1775 0.6708
C30A C 0.0226(4) 0.3083(4) 0.5997(3)
H24A H -0.0186 0.3254 0.6356
C31A C 0.1537(4) 0.0987(3) 0.5894(3)
C32A C 0.1410(5) 0.0372(4) 0.6646(4)
H25A H 0.1027 0.0505 0.7053
C33A C 0.1852(6) -0.0452(5) 0.6805(5)
H26A H 0.1787 -0.0881 0.7332
C34A C 0.2376(5) -0.0639(4) 0.6201(4)
H27A H 0.2680 -0.1200 0.6294
C35A C 0.2454(5) -0.0004(4) 0.5461(5)
H28A H 0.2818 -0.0139 0.5038
N8A N 1.0439(10) 0.8460(9) 0.9255(9)
C36A C 0.9724(12) 0.8666(11) 0.8687(11)
C37A C 0.9951(13) 0.9951(12) 0.8511(11)
H29A H 0.9429 1.0143 0.7925
C38A C 1.0966(15) 1.0687(15) 0.9302(13)
H30A H 1.1092 1.1450 0.9352
C39A C 1.1859(18) 1.0434(15) 1.0061(15)
H31A H 1.2618 1.0990 1.0563
C40A C 1.1541(15) 0.9302(14) 1.0018(13)
H32A H 1.2098 0.9074 1.0534
O2 O -0.0205(9) 0.6419(8) 0.0231(8)
O3 O 0.2793(18) -0.0500(16) 0.2877(16)
O5 O 0.0546(7) 0.6717(7) 0.1676(6)
O6 O -0.5460(4) 0.1327(4) 0.2265(4)
O8 O -0.8930(8) -0.1182(7) 0.2477(7)
O1? O 0.0825(10) -0.2190(10) 0.2144(9)
C41? C 0.0297(11) 0.1171(12) 0.1476(10)
C42? C -0.0447(11) 0.1648(11) 0.0458(10)
H33? H -0.0164 0.2412 0.0391
C43? C -0.1143(15) -0.0578(14) 0.0693(13)
H34? H -0.1416 -0.1331 0.0791
C44? C -0.1826(15) -0.0246(14) -0.0167(12)
H35? H -0.2555 -0.0795 -0.0709
C45? C -0.1480(12) 0.0841(11) -0.0251(11)
H36? H -0.1994 0.1038 -0.0839
N9? N -0.0011(10) 0.0274(10) 0.1421(9)
O4? O -0.0540(7) 0.5327(6) -0.0243(6)
O7? O -0.6074(5) 0.0026(5) 0.3699(5)
loop_
_geom_bond_atom_site_label_1
_geom_bond_atom_site_label_2
_geom_bond_site_symmetry_1
_geom_bond_site_symmetry_2
Cu1 F1 1_555 1_555
Cu2 F2 1_555 1_555
Si1 F1 1_555 1_555
F2 Si1 1_555 1_555
F3 Si1 1_555 1_555
F4 Si1 1_555 1_555
F5 Si1 1_555 1_555
F6 Si1 1_555 1_555
N1 Cu2 1_555 1_555
N2 C6 1_555 1_555
N3 Cu2 1_555 1_555
N4 Cu1 1_555 1_555
N5 C21 1_555 1_555
N6 Cu1 1_555 1_555
N7 C31 1_555 1_555
C1 N1 1_555 1_555
H1 C1 1_555 1_555
C2 C1 1_555 1_555
H2 C2 1_555 1_555
C3 C2 1_555 1_555
C4 C3 1_555 1_555
H3 C4 1_555 1_555
C5 N1 1_555 1_555
H4 C5 1_555 1_555
C6 C3 1_555 1_555
C7 C6 1_555 1_555
H5 C7 1_555 1_555
C8 C7 1_555 1_555
H6 C8 1_555 1_555
C9 C8 1_555 1_555
H7 C9 1_555 1_555
C10 N2 1_555 1_555
H8 C10 1_555 1_555
C11 N3 1_555 1_555
H9 C11 1_555 1_555
C12 C11 1_555 1_555
H10 C12 1_555 1_555
C13 C12 1_555 1_555
C14 C13 1_555 1_555
H11 C14 1_555 1_555
C15 N3 1_555 1_555
H12 C15 1_555 1_555
C16 N4 1_555 1_555
H13 C16 1_555 1_555
C17 C16 1_555 1_555
H14 C17 1_555 1_555
C18 C17 1_555 1_555
C19 C18 1_555 1_555
H15 C19 1_555 1_555
C20 N4 1_555 1_555
H16 C20 1_555 1_555
C21 C18 1_555 1_555
C22 C21 1_555 1_555
H17 C22 1_555 1_555
C23 C22 1_555 1_555
H18 C23 1_555 1_555
C24 C23 1_555 1_555
H19 C24 1_555 1_555
C25 N5 1_555 1_555
H20 C25 1_555 1_555
C26 N6 1_555 1_555
H21 C26 1_555 1_555
C27 C26 1_555 1_555
H22 C27 1_555 1_555
C28 C27 1_555 1_555
C29 C28 1_555 1_555
H23 C29 1_555 1_555
C30 N6 1_555 1_555
H24 C30 1_555 1_555
C31 C28 1_555 1_555
C32 C31 1_555 1_555
H25 C32 1_555 1_555
C33 C32 1_555 1_555
H26 C33 1_555 1_555
C34 C33 1_555 1_555
H27 C34 1_555 1_555
C35 N7 1_555 1_555
H28 C35 1_555 1_555
N8 C36 1_555 1_555
C36 C13 1_555 1_555
C37 C36 1_555 1_555
H29 C37 1_555 1_555
C38 C37 1_555 1_555
H30 C38 1_555 1_555
C39 C38 1_555 1_555
H31 C39 1_555 1_555
C40 N8 1_555 1_555
H32 C40 1_555 1_555
Cu2_2 F2A 1_555 1_555
Si1A F1A 1_555 1_555
F1A Cu1 1_555 1_555
F2A Si1A 1_555 1_555
F2A_2 Cu2 1_555 1_555
F3A Si1A 1_555 1_555
F4A Si1A 1_555 1_555
F5A Si1A 1_555 1_555
F6A Si1A 1_555 1_555
N1A Cu2 1_555 1_555
N2A C6A 1_555 1_555
N3A Cu2 1_555 1_555
N4A Cu1 1_555 1_555
N5A C21A 1_555 1_555
N6A Cu1 1_555 1_555
N7A C31A 1_555 1_555
C1A N1A 1_555 1_555
H1A C1A 1_555 1_555
C2A C1A 1_555 1_555
H2A C2A 1_555 1_555
C3A C2A 1_555 1_555
C4A C3A 1_555 1_555
H3A C4A 1_555 1_555
C5A N1A 1_555 1_555
H4A C5A 1_555 1_555
C6A C3A 1_555 1_555
C7A C6A 1_555 1_555
H5A C7A 1_555 1_555
C8A C7A 1_555 1_555
H6A C8A 1_555 1_555
C9A C8A 1_555 1_555
H7A C9A 1_555 1_555
C10A N2A 1_555 1_555
H8A C10A 1_555 1_555
C11A N3A 1_555 1_555
H9A C11A 1_555 1_555
C12A C11A 1_555 1_555
H10A C12A 1_555 1_555
C13A C12A 1_555 1_555
C14A C13A 1_555 1_555
H11A C14A 1_555 1_555
C15A N3A 1_555 1_555
H12A C15A 1_555 1_555
C16A N4A 1_555 1_555
H13A C16A 1_555 1_555
C17A C16A 1_555 1_555
H14A C17A 1_555 1_555
C18A C17A 1_555 1_555
C19A C18A 1_555 1_555
H15A C19A 1_555 1_555
C20A N4A 1_555 1_555
H16A C20A 1_555 1_555
C21A C18A 1_555 1_555
C22A C21A 1_555 1_555
H17A C22A 1_555 1_555
C23A C22A 1_555 1_555
H18A C23A 1_555 1_555
C24A C23A 1_555 1_555
H19A C24A 1_555 1_555
C25A N5A 1_555 1_555
H20A C25A 1_555 1_555
C26A N6A 1_555 1_555
H21A C26A 1_555 1_555
C27A C26A 1_555 1_555
H22A C27A 1_555 1_555
C28A C27A 1_555 1_555
C29A C28A 1_555 1_555
H23A C29A 1_555 1_555
C30A N6A 1_555 1_555
H24A C30A 1_555 1_555
C31A C28A 1_555 1_555
C32A C31A 1_555 1_555
H25A C32A 1_555 1_555
C33A C32A 1_555 1_555
H26A C33A 1_555 1_555
C34A C33A 1_555 1_555
H27A C34A 1_555 1_555
C35A N7A 1_555 1_555
H28A C35A 1_555 1_555
N8A C36A 1_555 1_555
C36A C13A 1_555 1_555
C37A C36A 1_555 1_555
H29A C37A 1_555 1_555
C38A C37A 1_555 1_555
H30A C38A 1_555 1_555
C39A C38A 1_555 1_555
H31A C39A 1_555 1_555
C40A N8A 1_555 1_555
H32A C40A 1_555 1_555
C4 C5 1_555 1_555
C9 C10 1_555 1_555
C14 C15 1_555 1_555
C19 C20 1_555 1_555
C24 C25 1_555 1_555
C29 C30 1_555 1_555
C34 C35 1_555 1_555
C39 C40 1_555 1_555
C4A C5A 1_555 1_555
C9A C10A 1_555 1_555
C14A C15A 1_555 1_555
C19A C20A 1_555 1_555
C24A C25A 1_555 1_555
C29A C30A 1_555 1_555
C34A C35A 1_555 1_555
C39A C40A 1_555 1_555

#END
