
#######################################################################
#
#                 Cambridge Crystallographic Data Centre
#                                CCDC 
#
#######################################################################
#
# If this CIF has been generated from an entry in the Cambridge 
# Structural Database, then it will include bibliographic, chemical, 
# crystal, experimental, refinement or atomic coordinate data resulting 
# from the CCDC's data processing and validation procedures.
#
#######################################################################

data_RERVOA
_symmetry_cell_setting           triclinic
_symmetry_space_group_name_H-M   'P -1'
_symmetry_Int_Tables_number      2
_space_group_name_Hall           '-P 1'
loop_
_symmetry_equiv_pos_site_id
_symmetry_equiv_pos_as_xyz
1 x,y,z
2 -x,-y,-z
_cell_length_a                   13.005(3)
_cell_length_b                   13.452(3)
_cell_length_c                   14.081(3)
_cell_angle_alpha                92.909(3)
_cell_angle_beta                 111.721(3)
_cell_angle_gamma                112.678(3)
_cell_volume                     2057.07
loop_
_atom_site_label
_atom_site_type_symbol
_atom_site_fract_x
_atom_site_fract_y
_atom_site_fract_z
Cu1 Cu 0.5000 1.0000 0.5000
Cu2 Cu 0.0000 1.0000 0.5000
Si1 Si 0.31875(8) 1.19896(7) 0.44768(7)
F1 F 0.39372(16) 1.11748(15) 0.46736(14)
F2 F 0.20082(16) 1.09842(15) 0.46271(14)
F3 F 0.24898(19) 1.14080(17) 0.31876(14)
F4 F 0.38829(18) 1.25198(16) 0.57769(14)
F5 F 0.2449(2) 1.27852(17) 0.42917(17)
F6 F 0.4359(2) 1.29702(17) 0.43288(18)
N1 N 0.3522(2) 0.8766(2) 0.3812(2)
N2 N 0.5633(2) 1.0510(2) 0.3915(2)
N3 N -0.0454(2) 1.1248(2) 0.4672(2)
N4 N -0.0944(3) 0.9193(2) 0.3482(2)
C1 C 0.1378(3) 0.7103(3) 0.2186(2)
C2 C 0.2622(3) 0.8992(3) 0.3158(3)
H1 H 0.2720 0.9717 0.3250
C3 C 0.0221(3) 0.6233(3) 0.1372(3)
C4 C 0.3369(3) 0.7717(3) 0.3626(3)
H2 H 0.3988 0.7541 0.4050
C5 C 0.2339(3) 0.6892(3) 0.2836(3)
H3 H 0.2284 0.6182 0.2734
C6 C 0.1572(3) 0.8203(3) 0.2365(3)
H4 H 0.0978 0.8403 0.1938
C7 C -0.0075(3) 0.5122(3) 0.1364(3)
H5 H 0.0482 0.4929 0.1857
C8 C -0.0621(4) 0.6489(3) 0.0604(3)
H6 H -0.0439 0.7225 0.0582
C9 C -0.1180(4) 0.4299(3) 0.0635(3)
H7 H -0.1365 0.3561 0.0651
C10 C -0.2006(4) 0.4564(3) -0.0111(3)
H8 H -0.2748 0.4009 -0.0602
C11 C -0.1727(4) 0.5664(3) -0.0128(3)
H9 H -0.2283 0.5849 -0.0631
C12 C 0.6221(3) 1.0988(3) 0.2208(2)
C13 C 0.6375(3) 1.0141(3) 0.2682(2)
H10 H 0.6685 0.9719 0.2436
C14 C 0.5528(3) 1.1356(3) 0.3488(2)
H11 H 0.5251 1.1788 0.3768
C15 C 0.6073(3) 0.9926(3) 0.3508(2)
H12 H 0.6177 0.9349 0.3803
C16 C 0.5810(3) 1.1611(3) 0.2657(3)
H13 H 0.5726 1.2207 0.2391
C17 C 0.6437(3) 1.1178(3) 0.1256(2)
C18 C 0.5743(3) 1.1580(3) 0.0516(3)
H14 H 0.5179 1.1768 0.0640
C19 C 0.7284(3) 1.0913(3) 0.1056(3)
H15 H 0.7764 1.0652 0.1547
C20 C 0.5885(3) 1.1702(3) -0.0406(3)
H16 H 0.5418 1.1974 -0.0894
C21 C 0.6707(4) 1.1424(3) -0.0602(3)
H17 H 0.6788 1.1496 -0.1228
C22 C 0.7417(4) 1.1036(3) 0.0131(3)
H18 H 0.7984 1.0857 0.0003
C23 C -0.1108(3) 1.3004(3) 0.4287(2)
C24 C -0.1028(3) 1.1546(3) 0.5171(3)
H19 H -0.1219 1.1147 0.5651
C25 C -0.1346(3) 1.2399(3) 0.5017(3)
H20 H -0.1723 1.2577 0.5401
C26 C -0.1465(3) 1.3923(3) 0.4084(3)
C27 C -0.0205(3) 1.1835(3) 0.3979(3)
H21 H 0.0194 1.1651 0.3621
C28 C -0.0509(3) 1.2692(3) 0.3773(3)
H22 H -0.0314 1.3072 0.3283
C29 C -0.1927(4) 1.4299(3) 0.4693(3)
H23 H -0.2004 1.3978 0.5247
C30 C -0.1350(4) 1.4435(3) 0.3279(3)
H24 H -0.1040 1.4201 0.2860
C31 C -0.2142(4) 1.5647(3) 0.3693(4)
H25 H -0.2358 1.6226 0.3569
C32 C -0.2274(4) 1.5140(3) 0.4489(3)
H26 H -0.2601 1.5367 0.4896
C33 C -0.1686(4) 1.5289(4) 0.3083(4)
H27 H -0.1603 1.5620 0.2535
C34 C -0.3255(3) 0.7428(3) 0.0265(2)
C35 C -0.2448(3) 0.8030(3) 0.1379(2)
C36 C -0.1272(3) 0.8866(3) 0.1691(3)
H28 H -0.0963 0.9053 0.1194
C37 C -0.2822(3) 0.7787(3) 0.2175(3)
H29 H -0.3594 0.7222 0.2018
C38 C -0.2063(3) 0.8375(3) 0.3198(3)
H30 H -0.2344 0.8191 0.3713
C39 C -0.2932(3) 0.7783(3) -0.0536(3)
H31 H -0.2201 0.8406 -0.0376
C40 C -0.0552(3) 0.9426(3) 0.2727(3)
H32 H 0.0231 0.9984 0.2908
C41 C -0.4365(4) 0.6505(3) -0.0002(3)
H33 H -0.4605 0.6255 0.0520
C42 C -0.3689(4) 0.7217(4) -0.1573(3)
H34 H -0.3458 0.7459 -0.2102
C43 C -0.4770(4) 0.6309(3) -0.1821(3)
H35 H -0.5272 0.5930 -0.2516
C44 C -0.5115(4) 0.5954(3) -0.1043(3)
H36 H -0.5858 0.5341 -0.1214
Cu2_2 Cu 1.0000 1.0000 0.5000
Si1A Si 0.68125(8) 0.80104(7) 0.55232(7)
F1A F 0.60628(16) 0.88252(15) 0.53264(14)
F2A F 0.79918(16) 0.90158(15) 0.53729(14)
F2A_2 F -0.20082(16) 0.90158(15) 0.53729(14)
F3A F 0.75102(19) 0.85920(17) 0.68124(14)
F4A F 0.61171(18) 0.74802(16) 0.42231(14)
F5A F 0.7551(2) 0.72148(17) 0.57083(17)
F6A F 0.5641(2) 0.70298(17) 0.56712(18)
N1A N 0.6478(2) 1.1234(2) 0.6188(2)
N2A N 0.4367(2) 0.9490(2) 0.6085(2)
N3A N 0.0454(2) 0.8752(2) 0.5328(2)
N4A N 0.0944(3) 1.0807(2) 0.6518(2)
C1A C 0.8622(3) 1.2897(3) 0.7814(2)
C2A C 0.7378(3) 1.1008(3) 0.6842(3)
H1A H 0.7280 1.0283 0.6750
C3A C 0.9779(3) 1.3767(3) 0.8628(3)
C4A C 0.6631(3) 1.2283(3) 0.6374(3)
H2A H 0.6012 1.2459 0.5950
C5A C 0.7661(3) 1.3108(3) 0.7164(3)
H3A H 0.7716 1.3818 0.7266
C6A C 0.8428(3) 1.1797(3) 0.7635(3)
H4A H 0.9022 1.1597 0.8062
C7A C 1.0075(3) 1.4878(3) 0.8636(3)
H5A H 0.9518 1.5071 0.8143
C8A C 1.0621(4) 1.3511(3) 0.9396(3)
H6A H 1.0439 1.2775 0.9418
C9A C 1.1180(4) 1.5701(3) 0.9365(3)
H7A H 1.1365 1.6439 0.9349
C10A C 1.2006(4) 1.5436(3) 1.0111(3)
H8A H 1.2748 1.5991 1.0602
C11A C 1.1727(4) 1.4336(3) 1.0128(3)
H9A H 1.2283 1.4151 1.0631
C12A C 0.3779(3) 0.9012(3) 0.7792(2)
C13A C 0.3625(3) 0.9859(3) 0.7318(2)
H10A H 0.3315 1.0281 0.7564
C14A C 0.4472(3) 0.8644(3) 0.6512(2)
H11A H 0.4749 0.8212 0.6232
C15A C 0.3927(3) 1.0074(3) 0.6492(2)
H12A H 0.3823 1.0651 0.6197
C16A C 0.4190(3) 0.8389(3) 0.7343(3)
H13A H 0.4274 0.7793 0.7609
C17A C 0.3563(3) 0.8822(3) 0.8744(2)
C18A C 0.4257(3) 0.8420(3) 0.9484(3)
H14A H 0.4821 0.8232 0.9360
C19A C 0.2716(3) 0.9087(3) 0.8944(3)
H15A H 0.2236 0.9348 0.8453
C20A C 0.4115(3) 0.8298(3) 1.0406(3)
H16A H 0.4582 0.8026 1.0894
C21A C 0.3293(4) 0.8576(3) 1.0602(3)
H17A H 0.3212 0.8504 1.1228
C22A C 0.2583(4) 0.8964(3) 0.9869(3)
H18A H 0.2016 0.9143 0.9997
C23A C 0.1108(3) 0.6996(3) 0.5713(2)
C24A C 0.1028(3) 0.8454(3) 0.4829(3)
H19A H 0.1219 0.8853 0.4349
C25A C 0.1346(3) 0.7601(3) 0.4983(3)
H20A H 0.1723 0.7423 0.4599
C26A C 0.1465(3) 0.6077(3) 0.5916(3)
C27A C 0.0205(3) 0.8165(3) 0.6021(3)
H21A H -0.0194 0.8349 0.6379
C28A C 0.0509(3) 0.7308(3) 0.6227(3)
H22A H 0.0314 0.6928 0.6717
C29A C 0.1927(4) 0.5701(3) 0.5307(3)
H23A H 0.2004 0.6022 0.4753
C30A C 0.1350(4) 0.5565(3) 0.6721(3)
H24A H 0.1040 0.5799 0.7140
C31A C 0.2142(4) 0.4353(3) 0.6307(4)
H25A H 0.2358 0.3774 0.6431
C32A C 0.2274(4) 0.4860(3) 0.5511(3)
H26A H 0.2601 0.4633 0.5104
C33A C 0.1686(4) 0.4711(4) 0.6917(4)
H27A H 0.1603 0.4380 0.7465
C34A C 0.3255(3) 1.2572(3) 0.9735(2)
C35A C 0.2448(3) 1.1970(3) 0.8621(2)
C36A C 0.1272(3) 1.1134(3) 0.8309(3)
H28A H 0.0963 1.0947 0.8806
C37A C 0.2822(3) 1.2213(3) 0.7825(3)
H29A H 0.3594 1.2778 0.7982
C38A C 0.2063(3) 1.1625(3) 0.6802(3)
H30A H 0.2344 1.1809 0.6287
C39A C 0.2932(3) 1.2217(3) 1.0536(3)
H31A H 0.2201 1.1594 1.0376
C40A C 0.0552(3) 1.0574(3) 0.7273(3)
H32A H -0.0231 1.0016 0.7092
C41A C 0.4365(4) 1.3495(3) 1.0002(3)
H33A H 0.4605 1.3745 0.9480
C42A C 0.3689(4) 1.2783(4) 1.1573(3)
H34A H 0.3458 1.2541 1.2102
C43A C 0.4770(4) 1.3691(3) 1.1821(3)
H35A H 0.5272 1.4070 1.2516
C44A C 0.5115(4) 1.4046(3) 1.1043(3)
H36A H 0.5858 1.4659 1.1214
O1 O 0.5434(4) 1.3811(5) 0.7729(4)
O2 O 0.5706(6) 1.4983(4) 0.6302(5)
H37 H 0.516(6) 1.446(4) 0.575(4)
H38 H 0.570(7) 1.561(3) 0.621(6)
O3 O 0.1740(4) 1.3860(4) 0.2714(3)
H39 H 0.196(5) 1.350(4) 0.315(4)
H40 H 0.233(4) 1.434(4) 0.263(5)
O4 O 0.0614(3) 1.1567(3) 0.1559(3)
H41 H 0.121(3) 1.150(4) 0.201(3)
H42 H 0.077(5) 1.225(2) 0.162(4)
O5 O 0.0424(5) 0.9559(5) 0.0362(4)
H43 H 0.0467 1.0109 0.0692
H44 H 0.0072 0.9171 0.0000
loop_
_geom_bond_atom_site_label_1
_geom_bond_atom_site_label_2
_geom_bond_site_symmetry_1
_geom_bond_site_symmetry_2
Cu1 F1 1_555 1_555
Cu2 F2 1_555 1_555
Si1 F1 1_555 1_555
F2 Si1 1_555 1_555
F3 Si1 1_555 1_555
F4 Si1 1_555 1_555
F5 Si1 1_555 1_555
F6 Si1 1_555 1_555
N1 Cu1 1_555 1_555
N2 Cu1 1_555 1_555
N3 Cu2 1_555 1_555
N4 Cu2 1_555 1_555
C1 C3 1_555 1_555
C2 N1 1_555 1_555
H1 C2 1_555 1_555
C3 C7 1_555 1_555
C4 N1 1_555 1_555
H2 C4 1_555 1_555
C5 C1 1_555 1_555
H3 C5 1_555 1_555
C6 C1 1_555 1_555
H4 C6 1_555 1_555
C7 H5 1_555 1_555
C8 C3 1_555 1_555
H6 C8 1_555 1_555
C9 C7 1_555 1_555
H7 C9 1_555 1_555
C10 C9 1_555 1_555
H8 C10 1_555 1_555
C11 C8 1_555 1_555
H9 C11 1_555 1_555
C12 C13 1_555 1_555
C13 H10 1_555 1_555
C14 N2 1_555 1_555
H11 C14 1_555 1_555
C15 N2 1_555 1_555
H12 C15 1_555 1_555
C16 C12 1_555 1_555
H13 C16 1_555 1_555
C17 C12 1_555 1_555
C18 C17 1_555 1_555
H14 C18 1_555 1_555
C19 C17 1_555 1_555
H15 C19 1_555 1_555
C20 C18 1_555 1_555
H16 C20 1_555 1_555
C21 C20 1_555 1_555
H17 C21 1_555 1_555
C22 C19 1_555 1_555
H18 C22 1_555 1_555
C23 C25 1_555 1_555
C24 N3 1_555 1_555
H19 C24 1_555 1_555
C25 C24 1_555 1_555
H20 C25 1_555 1_555
C26 C23 1_555 1_555
C27 N3 1_555 1_555
H21 C27 1_555 1_555
C28 C23 1_555 1_555
H22 C28 1_555 1_555
C29 C26 1_555 1_555
H23 C29 1_555 1_555
C30 C26 1_555 1_555
H24 C30 1_555 1_555
C31 H25 1_555 1_555
C32 C29 1_555 1_555
H26 C32 1_555 1_555
C33 C30 1_555 1_555
H27 C33 1_555 1_555
C34 C35 1_555 1_555
C35 C36 1_555 1_555
C36 H28 1_555 1_555
C37 C35 1_555 1_555
H29 C37 1_555 1_555
C38 N4 1_555 1_555
H30 C38 1_555 1_555
C39 C34 1_555 1_555
H31 C39 1_555 1_555
C40 N4 1_555 1_555
H32 C40 1_555 1_555
C41 C34 1_555 1_555
H33 C41 1_555 1_555
C42 C39 1_555 1_555
H34 C42 1_555 1_555
C43 C42 1_555 1_555
H35 C43 1_555 1_555
C44 C41 1_555 1_555
H36 C44 1_555 1_555
O2 H37 1_555 1_555
H38 O2 1_555 1_555
O3 H39 1_555 1_555
H40 O3 1_555 1_555
O4 H41 1_555 1_555
H42 O4 1_555 1_555
O5 H43 1_555 1_555
H44 O5 1_555 1_555
Cu2_2 F2A 1_555 1_555
Si1A F1A 1_555 1_555
F1A Cu1 1_555 1_555
F2A Si1A 1_555 1_555
F2A_2 Cu2 1_555 1_555
F3A Si1A 1_555 1_555
F4A Si1A 1_555 1_555
F5A Si1A 1_555 1_555
F6A Si1A 1_555 1_555
N1A Cu1 1_555 1_555
N2A Cu1 1_555 1_555
N3A Cu2 1_555 1_555
N4A Cu2 1_555 1_555
C1A C3A 1_555 1_555
C2A N1A 1_555 1_555
H1A C2A 1_555 1_555
C3A C7A 1_555 1_555
C4A N1A 1_555 1_555
H2A C4A 1_555 1_555
C5A C1A 1_555 1_555
H3A C5A 1_555 1_555
C6A C1A 1_555 1_555
H4A C6A 1_555 1_555
C7A H5A 1_555 1_555
C8A C3A 1_555 1_555
H6A C8A 1_555 1_555
C9A C7A 1_555 1_555
H7A C9A 1_555 1_555
C10A C9A 1_555 1_555
H8A C10A 1_555 1_555
C11A C8A 1_555 1_555
H9A C11A 1_555 1_555
C12A C13A 1_555 1_555
C13A H10A 1_555 1_555
C14A N2A 1_555 1_555
H11A C14A 1_555 1_555
C15A N2A 1_555 1_555
H12A C15A 1_555 1_555
C16A C12A 1_555 1_555
H13A C16A 1_555 1_555
C17A C12A 1_555 1_555
C18A C17A 1_555 1_555
H14A C18A 1_555 1_555
C19A C17A 1_555 1_555
H15A C19A 1_555 1_555
C20A C18A 1_555 1_555
H16A C20A 1_555 1_555
C21A C20A 1_555 1_555
H17A C21A 1_555 1_555
C22A C19A 1_555 1_555
H18A C22A 1_555 1_555
C23A C25A 1_555 1_555
C24A N3A 1_555 1_555
H19A C24A 1_555 1_555
C25A C24A 1_555 1_555
H20A C25A 1_555 1_555
C26A C23A 1_555 1_555
C27A N3A 1_555 1_555
H21A C27A 1_555 1_555
C28A C23A 1_555 1_555
H22A C28A 1_555 1_555
C29A C26A 1_555 1_555
H23A C29A 1_555 1_555
C30A C26A 1_555 1_555
H24A C30A 1_555 1_555
C31A H25A 1_555 1_555
C32A C29A 1_555 1_555
H26A C32A 1_555 1_555
C33A C30A 1_555 1_555
H27A C33A 1_555 1_555
C34A C35A 1_555 1_555
C35A C36A 1_555 1_555
C36A H28A 1_555 1_555
C37A C35A 1_555 1_555
H29A C37A 1_555 1_555
C38A N4A 1_555 1_555
H30A C38A 1_555 1_555
C39A C34A 1_555 1_555
H31A C39A 1_555 1_555
C40A N4A 1_555 1_555
H32A C40A 1_555 1_555
C41A C34A 1_555 1_555
H33A C41A 1_555 1_555
C42A C39A 1_555 1_555
H34A C42A 1_555 1_555
C43A C42A 1_555 1_555
H35A C43A 1_555 1_555
C44A C41A 1_555 1_555
H36A C44A 1_555 1_555
C2 C6 1_555 1_555
C4 C5 1_555 1_555
C10 C11 1_555 1_555
C13 C15 1_555 1_555
C14 C16 1_555 1_555
C21 C22 1_555 1_555
C27 C28 1_555 1_555
C31 C32 1_555 1_555
C31 C33 1_555 1_555
C36 C40 1_555 1_555
C37 C38 1_555 1_555
C43 C44 1_555 1_555
C2A C6A 1_555 1_555
C4A C5A 1_555 1_555
C10A C11A 1_555 1_555
C13A C15A 1_555 1_555
C14A C16A 1_555 1_555
C21A C22A 1_555 1_555
C27A C28A 1_555 1_555
C31A C32A 1_555 1_555
C31A C33A 1_555 1_555
C36A C40A 1_555 1_555
C37A C38A 1_555 1_555
C43A C44A 1_555 1_555

#END
