
#######################################################################
#
#                 Cambridge Crystallographic Data Centre
#                                CCDC 
#
#######################################################################
#
# If this CIF has been generated from an entry in the Cambridge 
# Structural Database, then it will include bibliographic, chemical, 
# crystal, experimental, refinement or atomic coordinate data resulting 
# from the CCDC's data processing and validation procedures.
#
#######################################################################

data_RERZAP
_symmetry_cell_setting           monoclinic
_symmetry_space_group_name_H-M   'P 21/c'
_symmetry_Int_Tables_number      14
_space_group_name_Hall           '-P 2ybc'
loop_
_symmetry_equiv_pos_site_id
_symmetry_equiv_pos_as_xyz
1 x,y,z
2 -x,1/2+y,1/2-z
3 -x,-y,-z
4 x,1/2-y,1/2+z
_cell_length_a                   14.1995(7)
_cell_length_b                   11.3316(5)
_cell_length_c                   9.7483(5)
_cell_angle_alpha                90
_cell_angle_beta                 106.453(4)
_cell_angle_gamma                90
_cell_volume                     1504.3
loop_
_atom_site_label
_atom_site_type_symbol
_atom_site_fract_x
_atom_site_fract_y
_atom_site_fract_z
Cu1 Cu 0.23211(3) 0.09006(4) 0.14839(5)
O1 O 0.14506(17) 0.0104(2) 0.2367(2)
N1 N 0.12558(19) 0.1810(2) 0.0252(3)
C1 C 0.0515(2) 0.0304(3) 0.2190(3)
O2 O 0.30478(16) 0.1479(2) 0.0161(2)
N2 N 0.3463(2) -0.0122(3) 0.2523(3)
C2 C 0.0033(3) -0.0276(4) 0.3071(4)
H1 H 0.0385 -0.0808 0.3752
C3 C -0.0930(3) -0.0088(4) 0.2963(4)
H2 H -0.1216 -0.0472 0.3587
O3 O 0.29164(18) 0.2387(2) 0.3251(2)
C4 C -0.1494(3) 0.0672(4) 0.1934(5)
H3 H -0.2157 0.0785 0.1851
C5 C -0.1059(3) 0.1246(4) 0.1050(5)
H4 H -0.1435 0.1752 0.0358
C6 C -0.0057(3) 0.1101(3) 0.1146(4)
C7 C 0.0340(2) 0.1769(3) 0.0194(4)
H5 H -0.0095 0.2206 -0.0517
C8 C 0.1566(2) 0.2533(3) -0.0776(4)
H6 H 0.1564 0.3358 -0.0511
H7 H 0.1108 0.2435 -0.1719
C9 C 0.2582(2) 0.2183(3) -0.0815(3)
C10 C 0.4374(2) 0.0135(3) 0.2446(4)
H8 H 0.4452 0.0768 0.1879
C11 C 0.5193(3) -0.0492(4) 0.3163(4)
C12 C 0.5066(3) -0.1422(4) 0.4026(4)
H9 H 0.5606 -0.1859 0.4536
C13 C 0.4142(3) -0.1696(3) 0.4127(4)
C14 C 0.3363(3) -0.1026(3) 0.3351(4)
H10 H 0.2737 -0.1213 0.3406
C15 C 0.6194(3) -0.0187(5) 0.3006(5)
H11 H 0.6225 0.0644 0.2833
H12 H 0.6302 -0.0618 0.2216
H13 H 0.6690 -0.0393 0.3868
C16 C 0.3997(4) -0.2683(4) 0.5094(5)
H14 H 0.4376 -0.2523 0.6059
H15 H 0.4209 -0.3416 0.4784
H16 H 0.3315 -0.2737 0.5051
O3C O 0.29164(18) 0.2613(2) -0.1749(2)
Cu1C Cu 0.23211(3) 0.40994(4) -0.35161(5)
loop_
_geom_bond_atom_site_label_1
_geom_bond_atom_site_label_2
_geom_bond_site_symmetry_1
_geom_bond_site_symmetry_2
Cu1 O1 1_555 1_555
O1 C1 1_555 1_555
N1 Cu1 1_555 1_555
C1 C2 1_555 1_555
O2 Cu1 1_555 1_555
N2 Cu1 1_555 1_555
C2 H1 1_555 1_555
C3 C2 1_555 1_555
H2 C3 1_555 1_555
O3 Cu1 1_555 1_555
C4 C3 1_555 1_555
H3 C4 1_555 1_555
C5 C4 1_555 1_555
H4 C5 1_555 1_555
C6 C1 1_555 1_555
C7 N1 1_555 1_555
H5 C7 1_555 1_555
C8 N1 1_555 1_555
H6 C8 1_555 1_555
H7 C8 1_555 1_555
C9 O2 1_555 1_555
C10 N2 1_555 1_555
H8 C10 1_555 1_555
C11 C10 1_555 1_555
C12 C11 1_555 1_555
H9 C12 1_555 1_555
C13 C12 1_555 1_555
C14 N2 1_555 1_555
H10 C14 1_555 1_555
C15 C11 1_555 1_555
H11 C15 1_555 1_555
H12 C15 1_555 1_555
H13 C15 1_555 1_555
C16 C13 1_555 1_555
H14 C16 1_555 1_555
H15 C16 1_555 1_555
H16 C16 1_555 1_555
O3C C9 1_555 1_555
Cu1C O3C 1_555 1_555
C5 C6 1_555 1_555
C6 C7 1_555 1_555
C8 C9 1_555 1_555
C13 C14 1_555 1_555

#END
