
#######################################################################
#
#                 Cambridge Crystallographic Data Centre
#                                CCDC 
#
#######################################################################
#
# If this CIF has been generated from an entry in the Cambridge 
# Structural Database, then it will include bibliographic, chemical, 
# crystal, experimental, refinement or atomic coordinate data resulting 
# from the CCDC's data processing and validation procedures.
#
#######################################################################

data_RESBOG
_symmetry_cell_setting           monoclinic
_symmetry_space_group_name_H-M   'P 21/n'
_symmetry_Int_Tables_number      14
_space_group_name_Hall           '-P 2yn'
loop_
_symmetry_equiv_pos_site_id
_symmetry_equiv_pos_as_xyz
1 x,y,z
2 1/2-x,1/2+y,1/2-z
3 -x,-y,-z
4 1/2+x,1/2-y,1/2+z
_cell_length_a                   7.92871(11)
_cell_length_b                   12.663(2)
_cell_length_c                   11.447(3)
_cell_angle_alpha                90
_cell_angle_beta                 94.116(3)
_cell_angle_gamma                90
_cell_volume                     1146.33
loop_
_atom_site_label
_atom_site_type_symbol
_atom_site_fract_x
_atom_site_fract_y
_atom_site_fract_z
Sb1 Sb 0.20905(4) 0.93716(3) 0.94509(3)
I1 I 0.30913(5) 0.88836(3) 0.72540(3)
I2 I 0.00907(5) 0.76027(3) 0.96058(4)
I3 I 0.48547(5) 0.84519(3) 1.07242(4)
O1 O 0.0848(5) 0.9821(3) 1.1834(3)
C1 C 0.1938(8) 1.0526(5) 1.2546(6)
H1 H 0.1333(8) 1.1167(5) 1.2721(6)
H2 H 0.2921(8) 1.0717(5) 1.2134(6)
C2 C 0.2469(9) 0.9942(6) 1.3660(6)
H3 H 0.2621(9) 1.0420(6) 1.4321(6)
H4 H 0.3505(9) 0.9548(6) 1.3586(6)
C3 C 0.0966(8) 0.9203(5) 1.3783(6)
H5 H 0.1295(8) 0.8592(5) 1.4257(6)
H6 H 0.0050(8) 0.9566(5) 1.4132(6)
C4 C 0.0465(8) 0.8889(5) 1.2553(5)
H7 H 0.1108(8) 0.8280(5) 1.2328(5)
H8 H -0.0730(8) 0.8720(5) 1.2461(5)
Sb1B Sb 0.79095(4) 1.06284(3) 1.05491(3)
I3B I 0.51453(5) 1.15481(3) 0.92758(4)
Sb1B_2 Sb -0.20905(4) 1.06284(3) 1.05491(3)
O1B O -0.0848(5) 1.0179(3) 0.8166(3)
loop_
_geom_bond_atom_site_label_1
_geom_bond_atom_site_label_2
_geom_bond_site_symmetry_1
_geom_bond_site_symmetry_2
Sb1 I1 1_555 1_555
I2 Sb1 1_555 1_555
I3 Sb1 1_555 1_555
O1 Sb1 1_555 1_555
C1 O1 1_555 1_555
H1 C1 1_555 1_555
H2 C1 1_555 1_555
C2 C1 1_555 1_555
H3 C2 1_555 1_555
H4 C2 1_555 1_555
C3 C2 1_555 1_555
H5 C3 1_555 1_555
H6 C3 1_555 1_555
C4 O1 1_555 1_555
H7 C4 1_555 1_555
H8 C4 1_555 1_555
Sb1B I3 1_555 1_555
I3B Sb1 1_555 1_555
Sb1B_2 O1 1_555 1_555
O1B Sb1 1_555 1_555
C3 C4 1_555 1_555
Sb1B I3B 1_555 1_555
Sb1B_2 O1B 1_555 1_555

#END
