
#######################################################################
#
#                 Cambridge Crystallographic Data Centre
#                                CCDC 
#
#######################################################################
#
# If this CIF has been generated from an entry in the Cambridge 
# Structural Database, then it will include bibliographic, chemical, 
# crystal, experimental, refinement or atomic coordinate data resulting 
# from the CCDC's data processing and validation procedures.
#
#######################################################################

data_RESCUO
_symmetry_cell_setting           orthorhombic
_symmetry_space_group_name_H-M   'P b c n'
_symmetry_Int_Tables_number      60
_space_group_name_Hall           '-P 2n 2ab'
loop_
_symmetry_equiv_pos_site_id
_symmetry_equiv_pos_as_xyz
1 x,y,z
2 1/2-x,1/2-y,1/2+z
3 -x,y,1/2-z
4 1/2+x,1/2-y,-z
5 -x,-y,-z
6 1/2+x,1/2+y,1/2-z
7 x,-y,1/2+z
8 1/2-x,1/2+y,z
_cell_length_a                   15.874(4)
_cell_length_b                   9.161(2)
_cell_length_c                   14.936(4)
_cell_angle_alpha                90
_cell_angle_beta                 90
_cell_angle_gamma                90
_cell_volume                     2172.02
loop_
_atom_site_label
_atom_site_type_symbol
_atom_site_fract_x
_atom_site_fract_y
_atom_site_fract_z
Gd1 Gd 0.272551(16) 0.44684(3) 0.356053(17)
C1 C 0.5907(3) 0.8762(6) 0.4224(3)
C2 C 0.5767(4) 1.0209(6) 0.3985(4)
H1 H 0.6191 1.0900 0.4055
C3 C 0.5002(4) 1.0604(6) 0.3647(4)
H2 H 0.4914 1.1572 0.3484
C4 C 0.5281(3) 0.7753(6) 0.4117(3)
H3 H 0.5385 0.6786 0.4270
C5 C 0.4341(4) 0.9600(6) 0.3535(3)
C6 C 0.4496(3) 0.8134(6) 0.3788(3)
C7 C 0.3848(3) 0.6990(6) 0.3714(3)
O1 O 0.4056(3) 0.5670(4) 0.3838(3)
O2 O 0.3076(2) 0.7271(4) 0.3550(2)
O3 O 0.3617(2) 1.0062(4) 0.3213(3)
O4 O 0.7238(2) 0.9540(4) 0.5077(3)
O5 O 0.7410(2) 0.7731(5) 0.3947(3)
O6 O 0.6698(2) 0.7075(4) 0.5316(2)
O7 O 0.2915(3) 0.5305(4) 0.2067(3)
H4 H 0.2653 0.6106 0.1999
H5 H 0.2720 0.4672 0.1706
O8 O 0.3582(2) 0.2826(4) 0.2721(3)
H6 H 0.3122 0.2565 0.2478
H7 H 0.3628 0.2421 0.3231
S1 S 0.68794(8) 0.82294(14) 0.46704(8)
Gd1G Gd 0.227449(16) 0.94684(3) 0.356053(17)
Gd1C Gd 0.772551(16) 1.05316(3) 0.643947(17)
Gd1D Gd 0.727449(16) 0.55316(3) 0.643947(17)
O2G O 0.1924(2) 0.2271(4) 0.3550(2)
O3G O 0.1383(2) 0.5062(4) 0.3213(3)
O4C O 0.2238(2) 0.5460(4) 0.4923(3)
O6D O 0.3302(2) 0.2925(4) 0.4684(2)
O9 O 0.4357(5) 0.4013(8) 0.1138(5)
H8 H 0.4297 0.4336 0.1668
H9 H 0.4842 0.4244 0.0944
O10 O 0.5000 0.431(2) 0.2500
H10 H 0.4714 0.4727 0.2907
H10B H 0.5286 0.4727 0.2093
H11? H 0.5001 0.3393 0.2589
loop_
_geom_bond_atom_site_label_1
_geom_bond_atom_site_label_2
_geom_bond_site_symmetry_1
_geom_bond_site_symmetry_2
Gd1 O1 1_555 1_555
C1 C2 1_555 1_555
C2 H1 1_555 1_555
C3 C2 1_555 1_555
H2 C3 1_555 1_555
C4 C1 1_555 1_555
H3 C4 1_555 1_555
C5 C3 1_555 1_555
C6 C4 1_555 1_555
C7 C6 1_555 1_555
O1 C7 1_555 1_555
O2 Gd1 1_555 1_555
O3 C5 1_555 1_555
O4 S1 1_555 1_555
O5 S1 1_555 1_555
O6 S1 1_555 1_555
O7 Gd1 1_555 1_555
H4 O7 1_555 1_555
H5 O7 1_555 1_555
O8 Gd1 1_555 1_555
H6 O8 1_555 1_555
H7 O8 1_555 1_555
O9 H8 1_555 1_555
H9 O9 1_555 1_555
O10 H10 1_555 1_555
S1 C1 1_555 1_555
Gd1G O2 1_555 1_555
Gd1C O4 1_555 1_555
Gd1D O6 1_555 1_555
O2G Gd1 1_555 1_555
O3G Gd1 1_555 1_555
O4C Gd1 1_555 1_555
O6D Gd1 1_555 1_555
H10B O10 1_555 1_555
C5 C6 1_555 1_555
C7 O2 1_555 1_555
O3 Gd1G 1_555 1_555

#END
