
#######################################################################
#
#                 Cambridge Crystallographic Data Centre
#                                CCDC 
#
#######################################################################
#
# If this CIF has been generated from an entry in the Cambridge 
# Structural Database, then it will include bibliographic, chemical, 
# crystal, experimental, refinement or atomic coordinate data resulting 
# from the CCDC's data processing and validation procedures.
#
#######################################################################

data_RESCEY
_symmetry_cell_setting           monoclinic
_symmetry_space_group_name_H-M   'P 21'
_symmetry_Int_Tables_number      4
_space_group_name_Hall           'P 2yb'
loop_
_symmetry_equiv_pos_site_id
_symmetry_equiv_pos_as_xyz
1 x,y,z
2 -x,1/2+y,-z
_cell_length_a                   11.7049(7)
_cell_length_b                   7.2824(4)
_cell_length_c                   13.4553(8)
_cell_angle_alpha                90
_cell_angle_beta                 114.163(1)
_cell_angle_gamma                90
_cell_volume                     1046.44
loop_
_atom_site_label
_atom_site_type_symbol
_atom_site_fract_x
_atom_site_fract_y
_atom_site_fract_z
Mn1 Mn 1.05807(4) 0.24996(7) 0.87049(3)
S1 S 1.76672(6) 0.80220(11) 1.29068(6)
N1 N 0.8805(2) 0.1272(4) 0.7380(2)
N2 N 0.2724(2) 0.0501(5) 0.3163(2)
O1 O 1.2241(2) 0.3824(4) 0.9797(2)
O2 O 1.3469(2) 0.1404(4) 1.0489(2)
O3 O 1.86168(18) 0.7547(5) 1.25086(17)
O4 O 1.8091(2) 0.7490(5) 1.40439(17)
O5 O 1.7267(2) 0.9905(4) 1.2701(2)
O6 O 0.96836(19) 0.5196(3) 0.82634(18)
O7 O 0.9741(2) 0.2327(5) 0.98689(19)
O8 O 1.1434(2) -0.0223(3) 0.9282(2)
C1 C 0.8570(3) 0.1574(5) 0.6341(3)
H1 H 0.9230 0.1973 0.6179
C2 C 0.7424(3) 0.1341(5) 0.5490(3)
H2 H 0.7324 0.1554 0.4777
C3 C 0.6414(3) 0.0781(5) 0.5709(3)
C4 C 0.6661(3) 0.0388(6) 0.6790(3)
H3 H 0.6026 -0.0052 0.6973
C5 C 0.7847(3) 0.0651(6) 0.7589(3)
H4 H 0.7990 0.0385 0.8306
C6 C 0.5132(3) 0.0663(5) 0.4830(3)
C7 C 0.4936(3) 0.0294(5) 0.3758(3)
H5 H 0.5613 0.0099 0.3578
C8 C 0.3732(3) 0.0219(6) 0.2966(3)
H6 H 0.3619 -0.0043 0.2255
C9 C 0.2909(3) 0.0868(6) 0.4195(3)
H7 H 0.2213 0.1078 0.4348
C10 C 0.4075(3) 0.0949(6) 0.5036(3)
H8 H 0.4158 0.1194 0.5740
C11 C 1.3265(3) 0.3092(5) 1.0370(3)
C12 C 1.4354(3) 0.4365(5) 1.1000(3)
C13 C 1.5449(3) 0.3629(5) 1.1766(3)
H9 H 1.5521 0.2367 1.1880
C14 C 1.6436(3) 0.4769(5) 1.2362(3)
H10 H 1.7162 0.4279 1.2895
C15 C 1.6344(3) 0.6627(5) 1.2167(3)
C16 C 1.5257(3) 0.7396(6) 1.1397(2)
H11 H 1.5197 0.8655 1.1272
C17 C 1.4259(3) 0.6240(5) 1.0817(3)
H12 H 1.3521 0.6733 1.0301
H14 H 0.8924(14) 0.526(8) 0.779(3)
H16 H 1.013(3) 0.581(7) 0.802(3)
H17 H 1.000(5) 0.150(5) 1.035(3)
H18 H 0.939(4) 0.318(5) 1.007(4)
H19 H 1.150(4) -0.096(6) 0.881(3)
H20 H 1.215(2) 0.022(6) 0.967(3)
Mn1A Mn 1.94193(4) 0.74996(7) 1.12951(3)
O3A O 1.13832(18) 0.2547(5) 0.74914(17)
O9 O 1.1083(2) 0.7384(4) 0.7573(2)
H13 H 1.079(4) 0.782(7) 0.6934(18)
H15 H 1.162(4) 0.656(6) 0.764(4)
O10 O 1.0465(3) -0.1098(5) 0.5530(3)
H21 H 0.9708(18) -0.123(6) 0.508(3)
H22 H 1.063(4) 0.003(2) 0.566(4)
loop_
_geom_bond_atom_site_label_1
_geom_bond_atom_site_label_2
_geom_bond_site_symmetry_1
_geom_bond_site_symmetry_2
Mn1 N1 1_555 1_555
S1 O3 1_555 1_555
N1 C1 1_555 1_555
N2 C8 1_555 1_555
O1 Mn1 1_555 1_555
O2 C11 1_555 1_555
O3 Mn1A 1_555 1_555
O4 S1 1_555 1_555
O5 S1 1_555 1_555
O6 Mn1 1_555 1_555
O7 Mn1 1_555 1_555
O8 Mn1 1_555 1_555
O9 H13 1_555 1_555
O10 H21 1_555 1_555
C1 H1 1_555 1_555
C2 C1 1_555 1_555
H2 C2 1_555 1_555
C3 C2 1_555 1_555
C4 C3 1_555 1_555
H3 C4 1_555 1_555
C5 N1 1_555 1_555
H4 C5 1_555 1_555
C6 C3 1_555 1_555
C7 C6 1_555 1_555
H5 C7 1_555 1_555
C8 C7 1_555 1_555
H6 C8 1_555 1_555
C9 N2 1_555 1_555
H7 C9 1_555 1_555
C10 C6 1_555 1_555
H8 C10 1_555 1_555
C11 O1 1_555 1_555
C12 C11 1_555 1_555
C13 C12 1_555 1_555
H9 C13 1_555 1_555
C14 C13 1_555 1_555
H10 C14 1_555 1_555
C15 S1 1_555 1_555
C16 C15 1_555 1_555
H11 C16 1_555 1_555
C17 C12 1_555 1_555
H12 C17 1_555 1_555
H14 O6 1_555 1_555
H15 O9 1_555 1_555
H16 O6 1_555 1_555
H17 O7 1_555 1_555
H18 O7 1_555 1_555
H19 O8 1_555 1_555
H20 O8 1_555 1_555
H22 O10 1_555 1_555
O3A Mn1 1_555 1_555
C4 C5 1_555 1_555
C9 C10 1_555 1_555
C14 C15 1_555 1_555
C16 C17 1_555 1_555

#END
