
#######################################################################
#
#                 Cambridge Crystallographic Data Centre
#                                CCDC 
#
#######################################################################
#
# If this CIF has been generated from an entry in the Cambridge 
# Structural Database, then it will include bibliographic, chemical, 
# crystal, experimental, refinement or atomic coordinate data resulting 
# from the CCDC's data processing and validation procedures.
#
#######################################################################

data_RESDEZ
_symmetry_cell_setting           orthorhombic
_symmetry_space_group_name_H-M   'P b c n'
_symmetry_Int_Tables_number      60
_space_group_name_Hall           '-P 2n 2ab'
loop_
_symmetry_equiv_pos_site_id
_symmetry_equiv_pos_as_xyz
1 x,y,z
2 1/2-x,1/2-y,1/2+z
3 -x,y,1/2-z
4 1/2+x,1/2-y,-z
5 -x,-y,-z
6 1/2+x,1/2+y,1/2-z
7 x,-y,1/2+z
8 1/2-x,1/2+y,z
_cell_length_a                   15.877(4)
_cell_length_b                   9.203(2)
_cell_length_c                   14.958(4)
_cell_angle_alpha                90
_cell_angle_beta                 90
_cell_angle_gamma                90
_cell_volume                     2185.6
loop_
_atom_site_label
_atom_site_type_symbol
_atom_site_fract_x
_atom_site_fract_y
_atom_site_fract_z
O1 O 0.4359(4) 0.3992(6) 0.3909(4)
H8 H 0.4829 0.4506 0.3909
H9 H 0.4113 0.4103 0.3437
O2 O 0.5000 0.425(3) 0.2500
H11 H 0.5258 0.4431 0.2015
H11B H 0.4742 0.4431 0.2985
Sm1 Sm 0.77286(2) -0.05328(3) 0.35423(2)
C1 C 1.0911(4) 0.3758(7) 0.4232(4)
C2 C 1.0765(5) 0.5199(7) 0.4000(4)
H1 H 1.1186 0.5891 0.4077
C3 C 1.0005(4) 0.5593(7) 0.3661(5)
H2 H 0.9918 0.6560 0.3507
C4 C 1.0286(4) 0.2762(7) 0.4117(5)
H3 H 1.0386 0.1799 0.4272
C5 C 0.9346(4) 0.4596(7) 0.3535(4)
C6 C 0.9503(4) 0.3143(7) 0.3775(4)
C7 C 0.8867(4) 0.1987(7) 0.3709(4)
O3 O 0.9071(3) 0.0670(5) 0.3830(3)
O4 O 0.8092(3) 0.2262(5) 0.3540(3)
O5 O 0.8621(3) 0.5053(5) 0.3213(3)
O6 O 1.2242(3) 0.4532(4) 0.5081(3)
O7 O 1.1688(3) 0.2095(4) 0.5325(3)
O8 O 1.2416(3) 0.2723(5) 0.3963(3)
O9 O 0.7922(3) 0.0310(5) 0.2038(3)
H4 H 0.7660 0.1107 0.1968
H5 H 0.7730 -0.0320 0.1676
O10 O 0.8600(3) -0.2178(4) 0.2693(3)
H6 H 0.8140 -0.2435 0.2449
H7 H 0.8644 -0.2585 0.3202
S1 S 1.18813(11) 0.32305(17) 0.46760(11)
Sm1G Sm 0.72714(2) 0.44672(3) 0.35423(2)
Sm1C Sm 1.27286(2) 0.55328(3) 0.64577(2)
Sm1D Sm 1.22714(2) 0.05328(3) 0.64577(2)
O4G O 0.6908(3) -0.2738(5) 0.3540(3)
O5G O 0.6379(3) 0.0053(5) 0.3213(3)
O6C O 0.7242(3) 0.0468(4) 0.4919(3)
O7D O 0.8312(3) -0.2095(4) 0.4675(3)
H10? H 0.5300 0.4730 0.2924
loop_
_geom_bond_atom_site_label_1
_geom_bond_atom_site_label_2
_geom_bond_site_symmetry_1
_geom_bond_site_symmetry_2
O1 H8 1_555 1_555
O2 H11 1_555 1_555
Sm1 O3 1_555 1_555
C1 C2 1_555 1_555
C2 H1 1_555 1_555
C3 C2 1_555 1_555
H2 C3 1_555 1_555
C4 C1 1_555 1_555
H3 C4 1_555 1_555
C5 C3 1_555 1_555
C6 C4 1_555 1_555
C7 C6 1_555 1_555
O3 C7 1_555 1_555
O4 Sm1 1_555 1_555
O5 C5 1_555 1_555
O6 S1 1_555 1_555
O7 S1 1_555 1_555
O8 S1 1_555 1_555
O9 Sm1 1_555 1_555
H4 O9 1_555 1_555
H5 O9 1_555 1_555
O10 Sm1 1_555 1_555
H6 O10 1_555 1_555
H7 O10 1_555 1_555
H9 O1 1_555 1_555
S1 C1 1_555 1_555
Sm1G O4 1_555 1_555
Sm1C O6 1_555 1_555
Sm1D O7 1_555 1_555
O4G Sm1 1_555 1_555
O5G Sm1 1_555 1_555
O6C Sm1 1_555 1_555
O7D Sm1 1_555 1_555
H11B O2 1_555 1_555
C5 C6 1_555 1_555
C7 O4 1_555 1_555
O5 Sm1G 1_555 1_555

#END
