
#######################################################################
#
#                 Cambridge Crystallographic Data Centre
#                                CCDC 
#
#######################################################################
#
# If this CIF has been generated from an entry in the Cambridge 
# Structural Database, then it will include bibliographic, chemical, 
# crystal, experimental, refinement or atomic coordinate data resulting 
# from the CCDC's data processing and validation procedures.
#
#######################################################################

data_RESDAV
_symmetry_cell_setting           orthorhombic
_symmetry_space_group_name_H-M   'P b c n'
_symmetry_Int_Tables_number      60
_space_group_name_Hall           '-P 2n 2ab'
loop_
_symmetry_equiv_pos_site_id
_symmetry_equiv_pos_as_xyz
1 x,y,z
2 1/2-x,1/2-y,1/2+z
3 -x,y,1/2-z
4 1/2+x,1/2-y,-z
5 -x,-y,-z
6 1/2+x,1/2+y,1/2-z
7 x,-y,1/2+z
8 1/2-x,1/2+y,z
_cell_length_a                   15.861(4)
_cell_length_b                   9.269(2)
_cell_length_c                   14.971(4)
_cell_angle_alpha                90
_cell_angle_beta                 90
_cell_angle_gamma                90
_cell_volume                     2200.97
loop_
_atom_site_label
_atom_site_type_symbol
_atom_site_fract_x
_atom_site_fract_y
_atom_site_fract_z
C1 C 0.5489(3) 0.8144(5) 0.3769(3)
C2 C 0.5644(4) 0.9604(5) 0.3534(3)
C3 C 0.4987(4) 1.0580(5) 0.3666(3)
H1 H 0.5076 1.1540 0.3512
C4 C 0.4231(3) 1.0209(5) 0.4005(3)
H2 H 0.3816 1.0904 0.4091
C5 C 0.4076(3) 0.8768(5) 0.4227(3)
C6 C 0.4697(3) 0.7772(5) 0.4107(3)
H3 H 0.4591 0.6814 0.4255
C7 C 0.6127(3) 0.6997(5) 0.3701(3)
Nd1 Nd 0.726473(15) 0.44657(3) 0.352434(16)
O1 O 0.5910(2) 0.5704(3) 0.3844(3)
O2 O 0.6897(2) 0.7266(3) 0.35145(19)
O3 O 0.6364(2) 1.0050(3) 0.3207(2)
O4 O 0.3310(2) 0.7120(3) 0.5331(2)
O5 O 0.2581(2) 0.7715(4) 0.3974(2)
O6 O 0.2744(2) 0.9529(3) 0.5079(3)
O7 O 0.7052(3) 0.5326(4) 0.2013(3)
H4 H 0.7310 0.6121 0.1943
H5 H 0.7246 0.4706 0.1648
O8 O 0.6375(2) 0.2800(3) 0.2685(2)
H6 H 0.6665 0.2085 0.2865
H7 H 0.6651 0.2488 0.2238
S1 S 0.31121(7) 0.82356(11) 0.46816(7)
Nd1G Nd 0.773527(15) 0.94657(3) 0.352434(16)
Nd1D Nd 0.273527(15) 0.55343(3) 0.647566(16)
Nd1C Nd 0.226473(15) 1.05343(3) 0.647566(16)
O2G O 0.8103(2) 0.2266(3) 0.35145(19)
O3G O 0.8636(2) 0.5050(3) 0.3207(2)
O4D O 0.6690(2) 0.2880(3) 0.4669(2)
O6C O 0.7744(2) 0.5471(3) 0.4921(3)
O9 O 0.5645(3) 0.3997(5) 0.1070(4)
H8 H 0.5192 0.4487 0.1094
H9 H 0.5898 0.4045 0.1570
loop_
_geom_bond_atom_site_label_1
_geom_bond_atom_site_label_2
_geom_bond_site_symmetry_1
_geom_bond_site_symmetry_2
C1 C2 1_555 1_555
C2 C3 1_555 1_555
C3 H1 1_555 1_555
C4 C3 1_555 1_555
H2 C4 1_555 1_555
C5 C4 1_555 1_555
C6 C1 1_555 1_555
H3 C6 1_555 1_555
C7 C1 1_555 1_555
Nd1 O1 1_555 1_555
O1 C7 1_555 1_555
O2 C7 1_555 1_555
O3 C2 1_555 1_555
O4 S1 1_555 1_555
O5 S1 1_555 1_555
O6 S1 1_555 1_555
O7 Nd1 1_555 1_555
H4 O7 1_555 1_555
H5 O7 1_555 1_555
O8 Nd1 1_555 1_555
H6 O8 1_555 1_555
H7 O8 1_555 1_555
O9 H8 1_555 1_555
H9 O9 1_555 1_555
S1 C5 1_555 1_555
Nd1G O2 1_555 1_555
Nd1D O4 1_555 1_555
Nd1C O6 1_555 1_555
O2G Nd1 1_555 1_555
O3G Nd1 1_555 1_555
O4D Nd1 1_555 1_555
O6C Nd1 1_555 1_555
C5 C6 1_555 1_555
Nd1 O2 1_555 1_555
O3 Nd1G 1_555 1_555

#END
