
#######################################################################
#
#                 Cambridge Crystallographic Data Centre
#                                CCDC 
#
#######################################################################
#
# If this CIF has been generated from an entry in the Cambridge 
# Structural Database, then it will include bibliographic, chemical, 
# crystal, experimental, refinement or atomic coordinate data resulting 
# from the CCDC's data processing and validation procedures.
#
#######################################################################

data_RESDID01
_symmetry_cell_setting           monoclinic
_symmetry_space_group_name_H-M   'P 21/n'
_symmetry_Int_Tables_number      14
_space_group_name_Hall           '-P 2yn'
loop_
_symmetry_equiv_pos_site_id
_symmetry_equiv_pos_as_xyz
1 x,y,z
2 1/2-x,1/2+y,1/2-z
3 -x,-y,-z
4 1/2+x,1/2-y,1/2+z
_cell_length_a                   8.8444(3)
_cell_length_b                   8.8181(3)
_cell_length_c                   14.2231(3)
_cell_angle_alpha                90
_cell_angle_beta                 100.688(2)
_cell_angle_gamma                90
_cell_volume                     1090.03
loop_
_atom_site_label
_atom_site_type_symbol
_atom_site_fract_x
_atom_site_fract_y
_atom_site_fract_z
Tb1 Tb 0.73913(5) 0.45896(5) 0.78076(3)
S1 S 0.2018(2) 0.8507(2) 1.05446(15)
O1 O 0.6572(7) 0.7343(7) 0.7693(4)
C1 C 0.5517(10) 0.7087(11) 0.8215(6)
O2 O 0.5316(8) 0.5728(7) 0.8448(5)
C2 C 0.4645(10) 0.8314(10) 0.8542(6)
O3 O 0.5170(7) 1.0186(7) 0.7393(4)
C3 C 0.3905(10) 0.7997(10) 0.9305(6)
H1 H 0.4010 0.7039 0.9583
O4 O 0.2913(7) 0.7281(8) 1.1072(4)
C4 C 0.3037(10) 0.9055(10) 0.9650(6)
O5 O 0.0505(8) 0.8019(8) 1.0066(5)
C5 C 0.2821(11) 1.0467(11) 0.9228(7)
H2 H 0.2195 1.1174 0.9454
O6 O 0.1947(8) 0.9818(7) 1.1162(4)
C6 C 0.3535(11) 1.0836(11) 0.8465(7)
H3 H 0.3379 1.1786 0.8180
O7 O 0.5183(8) 0.3214(8) 0.7032(5)
C7 C 0.4484(10) 0.9788(10) 0.8126(6)
O8 O 0.8552(8) 0.5614(8) 0.9318(5)
H4 H 0.7990 0.5628 0.9782
H5 H 0.9414 0.6167 0.9426
H6 H 0.484(13) 0.344(14) 0.641(3)
H7 H 0.4615 0.2410 0.7149
Tb1A Tb 0.76087(5) 0.95896(5) 0.71924(3)
Tb1B Tb 0.26087(5) 0.54104(5) 1.21924(3)
Tb1C Tb 0.23913(5) 1.04104(5) 1.28076(3)
O1A O 0.8428(7) 0.2343(7) 0.7307(4)
O3A O 0.9830(7) 0.5186(7) 0.7607(4)
O4B O 0.7087(7) 0.2719(8) 0.8928(4)
O6C O 0.6947(8) 0.5182(7) 0.6162(4)
O9 O 0.7461(8) 0.5546(10) 1.0963(5)
H8 H 0.6538 0.5526 1.1147
H9 H 0.8240 0.5070 1.1350
loop_
_geom_bond_atom_site_label_1
_geom_bond_atom_site_label_2
_geom_bond_site_symmetry_1
_geom_bond_site_symmetry_2
Tb1 O1 1_555 1_555
S1 O4 1_555 1_555
O1 C1 1_555 1_555
C1 O2 1_555 1_555
O2 Tb1 1_555 1_555
C2 C1 1_555 1_555
O3 C7 1_555 1_555
C3 C2 1_555 1_555
H1 C3 1_555 1_555
O4 Tb1B 1_555 1_555
C4 S1 1_555 1_555
O5 S1 1_555 1_555
C5 C4 1_555 1_555
H2 C5 1_555 1_555
O6 S1 1_555 1_555
C6 C5 1_555 1_555
H3 C6 1_555 1_555
O7 Tb1 1_555 1_555
C7 C2 1_555 1_555
O8 Tb1 1_555 1_555
H4 O8 1_555 1_555
H5 O8 1_555 1_555
H6 O7 1_555 1_555
H7 O7 1_555 1_555
O9 H8 1_555 1_555
H9 O9 1_555 1_555
Tb1A O1 1_555 1_555
Tb1C O6 1_555 1_555
O1A Tb1 1_555 1_555
O3A Tb1 1_555 1_555
O4B Tb1 1_555 1_555
O6C Tb1 1_555 1_555
O3 Tb1A 1_555 1_555
C3 C4 1_555 1_555
C6 C7 1_555 1_555

#END
