
#######################################################################
#
#                 Cambridge Crystallographic Data Centre
#                                CCDC 
#
#######################################################################
#
# If this CIF has been generated from an entry in the Cambridge 
# Structural Database, then it will include bibliographic, chemical, 
# crystal, experimental, refinement or atomic coordinate data resulting 
# from the CCDC's data processing and validation procedures.
#
#######################################################################

data_RESFEB
_symmetry_cell_setting           orthorhombic
_symmetry_space_group_name_H-M   'P n n a'
_symmetry_Int_Tables_number      52
_space_group_name_Hall           '-P 2a 2bc'
loop_
_symmetry_equiv_pos_site_id
_symmetry_equiv_pos_as_xyz
1 x,y,z
2 1/2-x,-y,z
3 1/2-x,1/2+y,1/2-z
4 x,1/2-y,1/2-z
5 -x,-y,-z
6 1/2+x,y,-z
7 1/2+x,1/2-y,1/2+z
8 -x,1/2+y,1/2+z
_cell_length_a                   19.1267(17)
_cell_length_b                   11.4655(9)
_cell_length_c                   9.0154(13)
_cell_angle_alpha                90
_cell_angle_beta                 90
_cell_angle_gamma                90
_cell_volume                     1977.05
loop_
_atom_site_label
_atom_site_type_symbol
_atom_site_fract_x
_atom_site_fract_y
_atom_site_fract_z
I1 I 0.43992(4) -0.06851(7) -0.27658(10)
Ag1 Ag 0.60047(7) -0.2500 0.2500
Ag2 Ag 0.7500 0.0000 -0.26202(15)
N1 N 0.6016(4) -0.1924(8) 0.0192(9)
N2 N 0.7207(4) -0.2019(8) -0.0073(10)
H1 H 0.7245 -0.2454 0.0768
H2 H 0.7527 -0.2115 -0.0831
N3 N 0.6597(4) -0.1059(7) -0.1878(9)
C1 C 0.6599(5) -0.1674(8) -0.0608(10)
C2 C 0.5982(5) -0.0796(9) -0.2464(12)
H3 H 0.5970 -0.0402 -0.3365
C3 C 0.5358(5) -0.1084(8) -0.1789(10)
C4 C 0.5399(5) -0.1624(9) -0.0425(12)
H4 H 0.4988 -0.1787 0.0086
I1C I 0.43992(4) -0.43149(7) 0.77658(10)
Ag2B Ag 0.7500 -0.5000 0.76202(15)
N1C N 0.6016(4) -0.3076(8) 0.4808(9)
N2C N 0.7207(4) -0.2981(8) 0.5073(10)
H1C H 0.7245 -0.2546 0.4232
H2C H 0.7527 -0.2885 0.5831
N3C N 0.6597(4) -0.3941(7) 0.6878(9)
N3A N 0.8403(4) 0.1059(7) -0.1878(9)
C1C C 0.6599(5) -0.3326(8) 0.5608(10)
C2C C 0.5982(5) -0.4204(9) 0.7464(12)
H3C H 0.5970 -0.4598 0.8365
C3C C 0.5358(5) -0.3916(8) 0.6789(10)
C4C C 0.5399(5) -0.3376(9) 0.5425(12)
H4C H 0.4988 -0.3213 0.4914
Cl1 Cl 0.7500 0.0000 -0.6256(4)
O1 O 0.8085(5) -0.0083(12) -0.5314(11)
O2 O 0.7439(9) -0.0969(10) -0.7132(11)
O1A O 0.6915(5) 0.0083(12) -0.5314(11)
O2A O 0.7561(9) 0.0969(10) -0.7132(11)
Cl2 Cl 0.60958(19) 0.2500 0.7500
O3 O 0.5638(11) 0.3113(13) 0.821(2)
O4 O 0.6450(7) 0.1701(10) 0.826(3)
O3C O 0.5638(11) 0.1887(13) 0.679(2)
O4C O 0.6450(7) 0.3299(10) 0.674(3)
loop_
_geom_bond_atom_site_label_1
_geom_bond_atom_site_label_2
_geom_bond_site_symmetry_1
_geom_bond_site_symmetry_2
I1 C3 1_555 1_555
Ag1 N1 1_555 1_555
Ag2 N3 1_555 1_555
N1 C1 1_555 1_555
N2 H1 1_555 1_555
H2 N2 1_555 1_555
N3 C1 1_555 1_555
C1 N2 1_555 1_555
C2 N3 1_555 1_555
H3 C2 1_555 1_555
C3 C2 1_555 1_555
C4 N1 1_555 1_555
H4 C4 1_555 1_555
Cl1 O1 1_555 1_555
Cl2 O3 1_555 1_555
O2 Cl1 1_555 1_555
O4 Cl2 1_555 1_555
I1C C3C 1_555 1_555
Ag2B N3C 1_555 1_555
N1C Ag1 1_555 1_555
N2C H1C 1_555 1_555
H2C N2C 1_555 1_555
N3C C1C 1_555 1_555
N3A Ag2 1_555 1_555
C1C N1C 1_555 1_555
C2C N3C 1_555 1_555
H3C C2C 1_555 1_555
C3C C2C 1_555 1_555
C4C N1C 1_555 1_555
H4C C4C 1_555 1_555
O1A Cl1 1_555 1_555
O2A Cl1 1_555 1_555
O3C Cl2 1_555 1_555
O4C Cl2 1_555 1_555
C3 C4 1_555 1_555
N2C C1C 1_555 1_555
C3C C4C 1_555 1_555

#END
