
#######################################################################
#
#                 Cambridge Crystallographic Data Centre
#                                CCDC 
#
#######################################################################
#
# If this CIF has been generated from an entry in the Cambridge 
# Structural Database, then it will include bibliographic, chemical, 
# crystal, experimental, refinement or atomic coordinate data resulting 
# from the CCDC's data processing and validation procedures.
#
#######################################################################

data_RESFAX
_symmetry_cell_setting           tetragonal
_symmetry_space_group_name_H-M   'I 41/a'
_symmetry_Int_Tables_number      88
_space_group_name_Hall           '-I 4ad'
loop_
_symmetry_equiv_pos_site_id
_symmetry_equiv_pos_as_xyz
1 x,y,z
2 3/4-y,1/4+x,1/4+z
3 1/2+x,1/2+y,1/2+z
4 1/4-y,3/4+x,3/4+z
5 1/4+y,1/4-x,1/4+z
6 1/2-x,-y,1/2+z
7 3/4+y,3/4-x,3/4+z
8 -x,1/2-y,z
9 -x,-y,-z
10 1/4+y,3/4-x,3/4-z
11 1/2-x,1/2-y,1/2-z
12 3/4+y,1/4-x,1/4-z
13 3/4-y,3/4+x,3/4-z
14 1/2+x,y,1/2-z
15 1/4-y,1/4+x,1/4-z
16 x,1/2+y,-z
_cell_length_a                   18.711(3)
_cell_length_b                   18.711(3)
_cell_length_c                   22.584(3)
_cell_angle_alpha                90
_cell_angle_beta                 90
_cell_angle_gamma                90
_cell_volume                     7906.69
loop_
_atom_site_label
_atom_site_type_symbol
_atom_site_fract_x
_atom_site_fract_y
_atom_site_fract_z
P1 P 0.5178(3) 0.5137(3) -0.2077(2)
F1 F 0.6001(5) 0.4823(5) -0.2076(4)
F2 F 0.5386(6) 0.5718(7) -0.1606(5)
F3 F 0.4962(5) 0.4575(6) -0.1578(4)
F4 F 0.5384(7) 0.5716(6) -0.2537(5)
F5 F 0.4943(9) 0.4563(7) -0.2538(5)
F6 F 0.4333(7) 0.5412(6) -0.2074(5)
I1 I 0.55839(4) 0.65434(4) 0.01630(3)
Ag1 Ag 0.34322(5) 0.47084(5) -0.11159(4)
N1 N 0.3709(5) 0.5352(5) -0.0346(3)
N2 N 0.2662(5) 0.5030(6) 0.0147(5)
H1 H 0.2388 0.5072 0.0452
H2 H 0.2530 0.4771 -0.0147
N3 N 0.3466(5) 0.5764(5) 0.0603(4)
C1 C 0.3259(7) 0.5352(7) 0.0133(5)
C2 C 0.4335(6) 0.5702(6) -0.0332(4)
H3 H 0.4621 0.5686 -0.0668
C3 C 0.4578(5) 0.6080(5) 0.0142(4)
C4 C 0.4109(8) 0.6106(6) 0.0612(4)
H4 H 0.4235 0.6367 0.0947
Ag1A Ag 0.27916(5) 0.59322(5) 0.13841(4)
N3F N 0.3264(5) 0.4034(5) -0.1897(4)
loop_
_geom_bond_atom_site_label_1
_geom_bond_atom_site_label_2
_geom_bond_site_symmetry_1
_geom_bond_site_symmetry_2
I1 C3 1_555 1_555
Ag1 N1 1_555 1_555
N1 C1 1_555 1_555
N2 H1 1_555 1_555
H2 N2 1_555 1_555
N3 C1 1_555 1_555
C1 N2 1_555 1_555
C2 N1 1_555 1_555
H3 C2 1_555 1_555
C3 C2 1_555 1_555
C4 N3 1_555 1_555
H4 C4 1_555 1_555
P1 F1 1_555 1_555
F2 P1 1_555 1_555
F3 P1 1_555 1_555
F4 P1 1_555 1_555
F5 P1 1_555 1_555
F6 P1 1_555 1_555
Ag1A N3 1_555 1_555
N3F Ag1 1_555 1_555
C3 C4 1_555 1_555

#END
