
#######################################################################
#
#                 Cambridge Crystallographic Data Centre
#                                CCDC 
#
#######################################################################
#
# If this CIF has been generated from an entry in the Cambridge 
# Structural Database, then it will include bibliographic, chemical, 
# crystal, experimental, refinement or atomic coordinate data resulting 
# from the CCDC's data processing and validation procedures.
#
#######################################################################

data_RESHOO
_symmetry_cell_setting           monoclinic
_symmetry_space_group_name_H-M   'P 21/n'
_symmetry_Int_Tables_number      14
_space_group_name_Hall           '-P 2yn'
loop_
_symmetry_equiv_pos_site_id
_symmetry_equiv_pos_as_xyz
1 x,y,z
2 1/2-x,1/2+y,1/2-z
3 -x,-y,-z
4 1/2+x,1/2-y,1/2+z
_cell_length_a                   6.4645(11)
_cell_length_b                   20.057(3)
_cell_length_c                   12.863(2)
_cell_angle_alpha                90
_cell_angle_beta                 103.475(2)
_cell_angle_gamma                90
_cell_volume                     1621.89
loop_
_atom_site_label
_atom_site_type_symbol
_atom_site_fract_x
_atom_site_fract_y
_atom_site_fract_z
Cu1 Cu -0.04684(9) 0.12053(3) 0.26224(4)
Cu2 Cu 0.53256(8) 0.07191(3) 0.46027(4)
N1 N -0.0856(5) 0.02901(18) 0.1943(3)
N2 N -0.2024(5) 0.14455(18) 0.1181(3)
N3 N -0.0572(6) 0.21973(18) 0.2879(3)
H1 H -0.0911 0.2253 0.3521
N4 N 0.1456(6) 0.0959(2) 0.3957(3)
N5 N 0.0876(7) 0.1013(3) 0.4746(4)
N6 N 0.0389(10) 0.1080(4) 0.5548(5)
N7 N 0.6074(6) 0.10699(19) 0.3281(3)
N8 N 0.4582(6) 0.11340(18) 0.2544(3)
N9 N 0.3174(7) 0.1209(2) 0.1816(3)
N10 N 0.5069(6) -0.02228(18) 0.4105(3)
N11 N 0.4949(6) -0.04318(18) 0.3213(3)
N12 N 0.4810(7) -0.0626(2) 0.2366(3)
N13 N 0.5787(7) 0.1564(2) 0.5370(3)
N14 N 0.6559(6) 0.2019(2) 0.5026(3)
N15 N 0.7273(8) 0.2486(2) 0.4708(4)
C1 C -0.0184(7) -0.0289(2) 0.2359(4)
H2 H 0.0561 -0.0306 0.3070
C2 C -0.0541(8) -0.0880(3) 0.1779(5)
H3 H -0.0061 -0.1284 0.2102
C3 C -0.1601(8) -0.0860(3) 0.0730(5)
H4 H -0.1854 -0.1249 0.0325
C4 C -0.2292(8) -0.0249(3) 0.0282(4)
H5 H -0.3005 -0.0220 -0.0434
C5 C -0.1916(7) 0.0314(2) 0.0903(4)
C6 C -0.2562(7) 0.0988(2) 0.0519(4)
H6 H -0.3327 0.1069 -0.0177
C7 C -0.2415(8) 0.2156(2) 0.0987(4)
H7 H -0.3794 0.2226 0.0506
H8 H -0.1332 0.2348 0.0668
C8 C -0.2348(8) 0.2474(2) 0.2054(4)
H9 H -0.2168 0.2952 0.2002
H10 H -0.3681 0.2394 0.2256
C9 C 0.1445(8) 0.2547(3) 0.2937(4)
H11 H 0.2539 0.2349 0.3484
H12 H 0.1288 0.3008 0.3104
H13 H 0.1827 0.2514 0.2261
Cu1_2 Cu 0.95316(9) 0.12053(3) 0.26224(4)
Cu2B Cu 0.46744(8) -0.07191(3) 0.53973(4)
N7_2 N -0.3926(6) 0.10699(19) 0.3281(3)
N10B N 0.4931(6) 0.02228(18) 0.5895(3)
loop_
_geom_bond_atom_site_label_1
_geom_bond_atom_site_label_2
_geom_bond_site_symmetry_1
_geom_bond_site_symmetry_2
Cu1 N1 1_555 1_555
Cu2 N4 1_555 1_555
N1 C1 1_555 1_555
N2 Cu1 1_555 1_555
N3 Cu1 1_555 1_555
H1 N3 1_555 1_555
N4 Cu1 1_555 1_555
N5 N4 1_555 1_555
N6 N5 1_555 1_555
N7 Cu2 1_555 1_555
N8 N7 1_555 1_555
N9 N8 1_555 1_555
N10 Cu2 1_555 1_555
N11 N10 1_555 1_555
N12 N11 1_555 1_555
N13 Cu2 1_555 1_555
N14 N13 1_555 1_555
N15 N14 1_555 1_555
C1 H2 1_555 1_555
C2 C1 1_555 1_555
H3 C2 1_555 1_555
C3 C2 1_555 1_555
H4 C3 1_555 1_555
C4 C3 1_555 1_555
H5 C4 1_555 1_555
C5 N1 1_555 1_555
C6 N2 1_555 1_555
H6 C6 1_555 1_555
C7 N2 1_555 1_555
H7 C7 1_555 1_555
H8 C7 1_555 1_555
C8 N3 1_555 1_555
H9 C8 1_555 1_555
H10 C8 1_555 1_555
C9 N3 1_555 1_555
H11 C9 1_555 1_555
H12 C9 1_555 1_555
H13 C9 1_555 1_555
Cu1_2 N7 1_555 1_555
Cu2B N10 1_555 1_555
N7_2 Cu1 1_555 1_555
N10B Cu2 1_555 1_555
C4 C5 1_555 1_555
C5 C6 1_555 1_555
C7 C8 1_555 1_555
Cu2B N10B 1_555 1_555

#END
