
#######################################################################
#
#                 Cambridge Crystallographic Data Centre
#                                CCDC 
#
#######################################################################
#
# If this CIF has been generated from an entry in the Cambridge 
# Structural Database, then it will include bibliographic, chemical, 
# crystal, experimental, refinement or atomic coordinate data resulting 
# from the CCDC's data processing and validation procedures.
#
#######################################################################

data_RESHEE
_symmetry_cell_setting           monoclinic
_symmetry_space_group_name_H-M   'P 21/c'
_symmetry_Int_Tables_number      14
_space_group_name_Hall           '-P 2ybc'
loop_
_symmetry_equiv_pos_site_id
_symmetry_equiv_pos_as_xyz
1 x,y,z
2 -x,1/2+y,1/2-z
3 -x,-y,-z
4 x,1/2-y,1/2+z
_cell_length_a                   9.4131(6)
_cell_length_b                   21.4937(10)
_cell_length_c                   18.2110(17)
_cell_angle_alpha                90
_cell_angle_beta                 98.342(7)
_cell_angle_gamma                90
_cell_volume                     3645.51
loop_
_atom_site_label
_atom_site_type_symbol
_atom_site_fract_x
_atom_site_fract_y
_atom_site_fract_z
Cu1 Cu -0.05076(7) 0.73784(3) 0.79097(4)
Cu2 Cu 0.17734(7) 0.66905(3) 0.70682(4)
Cu3 Cu 0.45861(7) 0.60812(3) 0.78196(4)
Cu4 Cu 0.66764(7) 0.53746(3) 0.68777(4)
O1 O 0.0870(4) 0.75129(16) 0.7227(2)
O2 O 0.2572(4) 0.7401(2) 0.6215(3)
O3 O 0.5435(4) 0.52495(16) 0.7617(2)
O4 O 0.3683(5) 0.53382(19) 0.8601(3)
N1 N -0.0947(5) 0.8258(2) 0.7899(3)
N2 N -0.1756(5) 0.7324(2) 0.8710(3)
H1 H -0.2313 0.6979 0.8620
N3 N 0.0239(5) 0.6524(2) 0.8020(3)
N4 N -0.0448(5) 0.6059(2) 0.7880(3)
N5 N -0.1039(6) 0.5605(3) 0.7744(3)
N6 N 0.0242(5) 0.6410(3) 0.6289(3)
N7 N 0.0509(5) 0.6351(2) 0.5674(3)
N8 N 0.0709(7) 0.6282(3) 0.5072(3)
N9 N 0.3493(5) 0.6877(2) 0.7841(3)
N10 N 0.3500(5) 0.7230(2) 0.8337(3)
N11 N 0.3531(8) 0.7588(3) 0.8789(4)
N12 N 0.2897(5) 0.5923(2) 0.7038(3)
N13 N 0.2639(6) 0.5470(3) 0.6689(3)
N14 N 0.2381(10) 0.5031(3) 0.6370(5)
N15 N 0.6094(5) 0.6311(2) 0.8623(3)
N16 N 0.6660(6) 0.5911(3) 0.9002(3)
N17 N 0.7265(8) 0.5555(3) 0.9395(4)
N18 N 0.6050(5) 0.6248(2) 0.6881(3)
N19 N 0.6780(5) 0.6700(2) 0.6911(3)
N20 N 0.7428(6) 0.7140(3) 0.6922(3)
N21 N 0.6973(5) 0.4486(2) 0.6803(3)
N22 N 0.7835(5) 0.5439(3) 0.6044(3)
H2 H 0.8552 0.5711 0.6207
C1 C 0.0994(6) 0.7999(3) 0.6795(3)
C2 C 0.1870(6) 0.7962(3) 0.6236(3)
C3 C 0.2032(7) 0.8457(3) 0.5783(4)
H3 H 0.2610 0.8419 0.5412
C4 C 0.1339(8) 0.9016(4) 0.5874(5)
H4 H 0.1453 0.9354 0.5568
C5 C 0.0495(8) 0.9065(3) 0.6413(4)
H5 H 0.0046 0.9442 0.6477
C6 C 0.0275(6) 0.8564(3) 0.6878(4)
C7 C -0.0627(7) 0.8658(3) 0.7436(4)
H6 H -0.1020 0.9053 0.7464
C8 C -0.1852(7) 0.8433(3) 0.8453(4)
H7 H -0.2481 0.8774 0.8271
H8 H -0.1261 0.8566 0.8907
C9 C -0.2721(6) 0.7875(3) 0.8600(4)
H9 H -0.3171 0.7943 0.9040
H10 H -0.3471 0.7804 0.8183
C10 C -0.0921(6) 0.7256(3) 0.9458(3)
H11 H -0.0317 0.7621 0.9561
H12 H -0.0292 0.6899 0.9455
C11 C -0.1792(7) 0.7178(3) 1.0073(4)
H13 H -0.1165 0.7141 1.0536
H14 H -0.2368 0.6809 0.9989
H15 H -0.2406 0.7533 1.0090
C12 C 0.3466(7) 0.7298(3) 0.5662(4)
H16 H 0.3868 0.6887 0.5718
H17 H 0.4228 0.7599 0.5716
H18 H 0.2909 0.7338 0.5180
C13 C 0.4991(6) 0.4718(3) 0.7897(3)
C14 C 0.4088(6) 0.4750(3) 0.8442(4)
C15 C 0.3604(6) 0.4215(3) 0.8741(4)
H19 H 0.2990 0.4240 0.9097
C16 C 0.4034(7) 0.3641(3) 0.8510(4)
H20 H 0.3695 0.3279 0.8703
C17 C 0.4941(7) 0.3607(3) 0.8005(4)
H21 H 0.5245 0.3217 0.7868
C18 C 0.5445(6) 0.4141(3) 0.7677(4)
C19 C 0.6414(7) 0.4060(3) 0.7157(4)
H22 H 0.6670 0.3652 0.7064
C20 C 0.7973(9) 0.4342(4) 0.6292(4)
H23 H 0.8733 0.4082 0.6544
H24 H 0.7474 0.4104 0.5881
C21 C 0.8550(15) 0.4834(5) 0.6029(10)
H25 H 0.8651 0.4746 0.5516
H26 H 0.9511 0.4878 0.6299
C22 C 0.7290(10) 0.5644(11) 0.5341(6)
H27 H 0.8006 0.5931 0.5208
H28 H 0.7328 0.5284 0.5024
C23 C 0.6050(15) 0.5909(4) 0.5103(6)
H29 H 0.6029 0.6035 0.4596
H30 H 0.5929 0.6268 0.5402
H31 H 0.5287 0.5619 0.5137
C24 C 0.2836(8) 0.5445(3) 0.9148(4)
H32 H 0.2659 0.5883 0.9183
H33 H 0.3321 0.5296 0.9615
H34 H 0.1940 0.5229 0.9027
Cu1_2 Cu 0.94924(7) 0.73784(3) 0.79097(4)
Cu4_2 Cu -0.33236(7) 0.53746(3) 0.68777(4)
N5_2 N 0.8961(6) 0.5605(3) 0.7744(3)
N20_2 N -0.2572(6) 0.7140(3) 0.6922(3)
loop_
_geom_bond_atom_site_label_1
_geom_bond_atom_site_label_2
_geom_bond_site_symmetry_1
_geom_bond_site_symmetry_2
Cu1 O1 1_555 1_555
Cu2 O1 1_555 1_555
Cu3 O3 1_555 1_555
Cu4 O3 1_555 1_555
O1 C1 1_555 1_555
O2 Cu2 1_555 1_555
O3 C13 1_555 1_555
O4 Cu3 1_555 1_555
N1 Cu1 1_555 1_555
N2 Cu1 1_555 1_555
H1 N2 1_555 1_555
N3 Cu1 1_555 1_555
N4 N3 1_555 1_555
N5 N4 1_555 1_555
N6 Cu2 1_555 1_555
N7 N6 1_555 1_555
N8 N7 1_555 1_555
N9 Cu2 1_555 1_555
N10 N9 1_555 1_555
N11 N10 1_555 1_555
N12 Cu2 1_555 1_555
N13 N12 1_555 1_555
N14 N13 1_555 1_555
N15 Cu3 1_555 1_555
N16 N15 1_555 1_555
N17 N16 1_555 1_555
N18 Cu3 1_555 1_555
N19 N18 1_555 1_555
N20 N19 1_555 1_555
N21 Cu4 1_555 1_555
N22 Cu4 1_555 1_555
H2 N22 1_555 1_555
C1 C2 1_555 1_555
C2 O2 1_555 1_555
C3 C2 1_555 1_555
H3 C3 1_555 1_555
C4 C3 1_555 1_555
H4 C4 1_555 1_555
C5 C4 1_555 1_555
H5 C5 1_555 1_555
C6 C1 1_555 1_555
C7 N1 1_555 1_555
H6 C7 1_555 1_555
C8 N1 1_555 1_555
H7 C8 1_555 1_555
H8 C8 1_555 1_555
C9 N2 1_555 1_555
H9 C9 1_555 1_555
H10 C9 1_555 1_555
C10 N2 1_555 1_555
H11 C10 1_555 1_555
H12 C10 1_555 1_555
C11 C10 1_555 1_555
H13 C11 1_555 1_555
H14 C11 1_555 1_555
H15 C11 1_555 1_555
C12 O2 1_555 1_555
H16 C12 1_555 1_555
H17 C12 1_555 1_555
H18 C12 1_555 1_555
C13 C14 1_555 1_555
C14 O4 1_555 1_555
C15 C14 1_555 1_555
H19 C15 1_555 1_555
C16 C15 1_555 1_555
H20 C16 1_555 1_555
C17 C16 1_555 1_555
H21 C17 1_555 1_555
C18 C13 1_555 1_555
C19 N21 1_555 1_555
H22 C19 1_555 1_555
C20 N21 1_555 1_555
H23 C20 1_555 1_555
H24 C20 1_555 1_555
C21 N22 1_555 1_555
H25 C21 1_555 1_555
H26 C21 1_555 1_555
C22 N22 1_555 1_555
H27 C22 1_555 1_555
H28 C22 1_555 1_555
C23 C22 1_555 1_555
H29 C23 1_555 1_555
H30 C23 1_555 1_555
H31 C23 1_555 1_555
C24 O4 1_555 1_555
H32 C24 1_555 1_555
H33 C24 1_555 1_555
H34 C24 1_555 1_555
Cu1_2 N20 1_555 1_555
Cu4_2 N5 1_555 1_555
N5_2 Cu4 1_555 1_555
N20_2 Cu1 1_555 1_555
Cu2 N3 1_555 1_555
Cu3 N9 1_555 1_555
Cu3 N12 1_555 1_555
Cu4 N18 1_555 1_555
C5 C6 1_555 1_555
C6 C7 1_555 1_555
C8 C9 1_555 1_555
C17 C18 1_555 1_555
C18 C19 1_555 1_555
C20 C21 1_555 1_555

#END
