
#######################################################################
#
#                 Cambridge Crystallographic Data Centre
#                                CCDC 
#
#######################################################################
#
# If this CIF has been generated from an entry in the Cambridge 
# Structural Database, then it will include bibliographic, chemical, 
# crystal, experimental, refinement or atomic coordinate data resulting 
# from the CCDC's data processing and validation procedures.
#
#######################################################################

data_RESPUC
_symmetry_cell_setting           triclinic
_symmetry_space_group_name_H-M   'P -1'
_symmetry_Int_Tables_number      2
_space_group_name_Hall           '-P 1'
loop_
_symmetry_equiv_pos_site_id
_symmetry_equiv_pos_as_xyz
1 x,y,z
2 -x,-y,-z
_cell_length_a                   10.6682(6)
_cell_length_b                   13.4763(7)
_cell_length_c                   15.2036(5)
_cell_angle_alpha                94.980(4)
_cell_angle_beta                 105.397(4)
_cell_angle_gamma                110.916(5)
_cell_volume                     1928.04
loop_
_atom_site_label
_atom_site_type_symbol
_atom_site_fract_x
_atom_site_fract_y
_atom_site_fract_z
Zn1 Zn 0.46706(4) -0.20468(3) 0.25131(2)
C1 C -0.3829(3) 0.0531(2) 0.08026(17)
C2 C -0.4110(3) -0.0518(2) 0.03628(18)
C3 C -0.5249(3) -0.1032(2) -0.04541(18)
C4 C -0.2512(3) 0.1126(3) 0.16264(19)
H1 H -0.2408 0.1865 0.1816
H2 H -0.2559 0.0765 0.2149
C5 C -0.0169(3) 0.1147(2) 0.2002(2)
C6 C 0.0273(3) 0.1676(3) 0.2918(2)
H3 H -0.0208 0.2064 0.3108
C7 C 0.1431(3) 0.1624(3) 0.3544(2)
H4 H 0.1732 0.1981 0.4161
C8 C 0.2156(3) 0.1048(3) 0.3272(2)
H5 H 0.2929 0.1007 0.3703
C9 C 0.1715(3) 0.0536(2) 0.23548(19)
C10 C 0.0558(3) 0.0586(2) 0.17109(19)
H6 H 0.0273 0.0247 0.1090
C11 C 0.3150(3) -0.0577(3) 0.2596(2)
H7 H 0.3358 -0.0493 0.3239
C12 C 0.2358(3) -0.0473(3) 0.1187(2)
H8 H 0.1899 -0.0288 0.0656
C13 C -0.3272(3) -0.1138(3) 0.08150(19)
H9 H -0.2679 -0.0742 0.1441
H10 H -0.3915 -0.1839 0.0860
C14 C -0.1700(3) -0.1950(2) 0.05735(19)
C15 C -0.1350(3) -0.2126(3) 0.1476(2)
H11 H -0.1636 -0.1830 0.1923
C16 C -0.0568(4) -0.2749(3) 0.1701(2)
H12 H -0.0317 -0.2858 0.2308
C17 C -0.0155(3) -0.3209(3) 0.1048(2)
H13 H 0.0373 -0.3624 0.1209
C18 C -0.0538(3) -0.3044(3) 0.0150(2)
C19 C -0.1304(3) -0.2416(2) -0.0093(2)
H14 H -0.1551 -0.2308 -0.0700
C20 C 0.1149(4) -0.3482(3) -0.0511(3)
H15 H 0.1944 -0.3163 0.0016
C21 C -0.0921(5) -0.4042(4) -0.1421(3)
H16 H -0.1883 -0.4202 -0.1665
C22 C -0.5431(3) -0.2086(2) -0.10091(18)
H17 H -0.4692 -0.2320 -0.0710
H18 H -0.6345 -0.2651 -0.1081
C23 C -0.5242(3) -0.2559(2) -0.2536(2)
C24 C -0.4675(4) -0.3318(3) -0.2326(2)
H19 H -0.4403 -0.3414 -0.1716
C25 C -0.4515(4) -0.3932(3) -0.3030(2)
H20 H -0.4113 -0.4431 -0.2888
C26 C -0.4941(4) -0.3819(3) -0.3943(2)
H21 H -0.4830 -0.4234 -0.4415
C27 C -0.5534(3) -0.3078(3) -0.41363(19)
C28 C -0.5682(3) -0.2437(3) -0.34434(19)
H22 H -0.6072 -0.1932 -0.3587
C29 C -0.5331(4) -0.2862(3) -0.5719(2)
H23 H -0.4492 -0.2959 -0.5646
C30 C -0.7154(4) -0.2735(3) -0.5486(2)
H24 H -0.7823 -0.2726 -0.5201
C31 C 0.7179(4) -0.0478(3) 0.3765(2)
C32 C 0.9292(3) 0.0635(3) 0.5153(2)
H25 H 0.8815 0.1067 0.5264
C33 C 0.8651(3) -0.0220(3) 0.4398(2)
C34 C 0.9368(3) -0.0860(3) 0.4254(2)
H26 H 0.8946 -0.1446 0.3754
C35 C 0.4941(3) -0.3695(2) 0.1591(2)
C36 C 0.4961(3) -0.4388(2) 0.07709(18)
C37 C 0.3995(3) -0.4569(2) -0.0103(2)
H27 H 0.3312 -0.4280 -0.0174
C38 C 0.4032(3) -0.5171(2) -0.0869(2)
H28 H 0.3380 -0.5282 -0.1451
N1 N 0.2398(2) -0.01156(19) 0.20616(15)
N2 N 0.3548(3) -0.1161(2) 0.20929(15)
N3 N 0.3038(3) -0.1102(2) 0.11799(16)
N4 N -0.0132(3) -0.3515(2) -0.05500(19)
N5 N 0.1158(3) -0.3944(3) -0.1292(2)
N6 N -0.0188(4) -0.4306(3) -0.1890(2)
N7 N -0.5996(3) -0.2934(2) -0.50758(16)
N8 N -0.6033(3) -0.2638(2) -0.64584(17)
N9 N -0.7222(3) -0.2559(3) -0.6318(2)
O1 O -0.1335(2) 0.11185(18) 0.13262(13)
O2 O -0.2395(2) -0.12925(17) 0.02807(12)
O3 O -0.5330(3) -0.18337(18) -0.18984(14)
O4 O 0.6525(3) 0.0056(3) 0.3954(2)
O5 O 0.6708(2) -0.1226(2) 0.30571(14)
O6 O 0.5616(3) -0.3672(2) 0.23961(14)
O7 O 0.4224(2) -0.31120(17) 0.14031(13)
C1A C -0.6171(3) -0.0531(2) -0.08026(17)
C2A C -0.5890(3) 0.0518(2) -0.03628(18)
C3A C -0.4751(3) 0.1032(2) 0.04541(18)
C4A C -0.7488(3) -0.1126(3) -0.16264(19)
H1A H -0.7592 -0.1865 -0.1816
H2A H -0.7441 -0.0765 -0.2149
C5A C -0.9831(3) -0.1147(2) -0.2002(2)
C6A C -1.0273(3) -0.1676(3) -0.2918(2)
H3A H -0.9792 -0.2064 -0.3108
C7A C -1.1431(3) -0.1624(3) -0.3544(2)
H4A H -1.1732 -0.1981 -0.4161
C8A C -1.2156(3) -0.1048(3) -0.3272(2)
H5A H -1.2929 -0.1007 -0.3703
C9A C -1.1715(3) -0.0536(2) -0.23548(19)
C10A C -1.0558(3) -0.0586(2) -0.17109(19)
H6A H -1.0273 -0.0247 -0.1090
C11A C -1.3150(3) 0.0577(3) -0.2596(2)
H7A H -1.3358 0.0493 -0.3239
C12A C -1.2358(3) 0.0473(3) -0.1187(2)
H8A H -1.1899 0.0288 -0.0656
C13A C -0.6728(3) 0.1138(3) -0.08150(19)
H9A H -0.7321 0.0742 -0.1441
H10A H -0.6085 0.1839 -0.0860
C14A C -0.8300(3) 0.1950(2) -0.05735(19)
C15A C -0.8650(3) 0.2126(3) -0.1476(2)
H11A H -0.8364 0.1830 -0.1923
C16A C -0.9432(4) 0.2749(3) -0.1701(2)
H12A H -0.9683 0.2858 -0.2308
C17A C -0.9845(3) 0.3209(3) -0.1048(2)
H13A H -1.0373 0.3624 -0.1209
C18A C -0.9462(3) 0.3044(3) -0.0150(2)
C19A C -0.8696(3) 0.2416(2) 0.0093(2)
H14A H -0.8449 0.2308 0.0700
C20A C -1.1149(4) 0.3482(3) 0.0511(3)
H15A H -1.1944 0.3163 -0.0016
C21A C -0.9079(5) 0.4042(4) 0.1421(3)
H16A H -0.8117 0.4202 0.1665
C22A C -0.4569(3) 0.2086(2) 0.10091(18)
H17A H -0.5308 0.2320 0.0710
H18A H -0.3655 0.2651 0.1081
C23A C -0.4758(3) 0.2559(2) 0.2536(2)
C24A C -0.5325(4) 0.3318(3) 0.2326(2)
H19A H -0.5597 0.3414 0.1716
C25A C -0.5485(4) 0.3932(3) 0.3030(2)
H20A H -0.5887 0.4431 0.2888
C26A C -0.5059(4) 0.3819(3) 0.3943(2)
H21A H -0.5170 0.4234 0.4415
C27A C -0.4466(3) 0.3078(3) 0.41363(19)
C28A C -0.4318(3) 0.2437(3) 0.34434(19)
H22A H -0.3928 0.1932 0.3587
C29A C -0.4669(4) 0.2862(3) 0.5719(2)
H23A H -0.5508 0.2959 0.5646
C30A C -0.2846(4) 0.2735(3) 0.5486(2)
H24A H -0.2177 0.2726 0.5201
N1A N -1.2398(2) 0.01156(19) -0.20616(15)
N2A N -1.3548(3) 0.1161(2) -0.20929(15)
N3A N -1.3038(3) 0.1102(2) -0.11799(16)
N4A N -0.9868(3) 0.3515(2) 0.05500(19)
N5A N -1.1158(3) 0.3944(3) 0.1292(2)
N6A N -0.9812(4) 0.4306(3) 0.1890(2)
N7A N -0.4004(3) 0.2934(2) 0.50758(16)
N8A N -0.3967(3) 0.2638(2) 0.64584(17)
N9A N -0.2778(3) 0.2559(3) 0.6318(2)
O1A O -0.8665(2) -0.11185(18) -0.13262(13)
O2A O -0.7605(2) 0.12925(17) -0.02807(12)
O3A O -0.4670(3) 0.18337(18) 0.18984(14)
C31A C 1.2821(4) 0.0478(3) 0.6235(2)
C32A C 1.0708(3) -0.0635(3) 0.4847(2)
H25A H 1.1185 -0.1067 0.4736
C33A C 1.1349(3) 0.0220(3) 0.5602(2)
C34A C 1.0632(3) 0.0860(3) 0.5746(2)
H26A H 1.1054 0.1446 0.6246
O4A O 1.3475(3) -0.0056(3) 0.6046(2)
O5A O 1.3292(2) 0.1226(2) 0.69429(14)
C35A C 0.5059(3) -0.6305(2) -0.1591(2)
C36A C 0.5039(3) -0.5612(2) -0.07709(18)
C37A C 0.6005(3) -0.5431(2) 0.0103(2)
H27A H 0.6688 -0.5720 0.0174
C38A C 0.5968(3) -0.4829(2) 0.0869(2)
H28A H 0.6620 -0.4718 0.1451
O6A O 0.4384(3) -0.6328(2) -0.23961(14)
O7A O 0.5776(2) -0.68880(17) -0.14031(13)
Zn1A Zn -1.46706(4) 0.20468(3) -0.25131(2)
Zn1_2 Zn -0.53294(4) -0.20468(3) -0.74869(2)
Zn1A_2 Zn -0.46706(4) 0.20468(3) 0.74869(2)
Zn1A_3 Zn 0.53294(4) -0.79532(3) -0.25131(2)
Zn1A_4 Zn 1.53294(4) 0.20468(3) 0.74869(2)
N8_2 N 0.3967(3) -0.2638(2) 0.35416(17)
N8A_2 N -1.3967(3) 0.2638(2) -0.35416(17)
O5A_2 O -1.6708(2) 0.1226(2) -0.30571(14)
O7A_2 O -1.4224(2) 0.31120(17) -0.14031(13)
C39 C -0.2001(4) -0.4084(3) 0.4184(2)
C40 C -0.0954(3) -0.4556(3) 0.4595(2)
C41 C -0.0536(4) -0.4500(3) 0.5545(2)
H29 H -0.0902 -0.4167 0.5914
C42 C 0.0421(4) -0.4932(3) 0.5957(2)
H30 H 0.0705 -0.4881 0.6598
O8 O -0.2582(3) -0.3717(2) 0.46255(16)
O9 O -0.2225(3) -0.4116(3) 0.32851(16)
H31 H -0.2865 -0.3915 0.3077
C39A C 0.2001(4) -0.5916(3) 0.5816(2)
C40A C 0.0954(3) -0.5444(3) 0.5405(2)
C41A C 0.0536(4) -0.5500(3) 0.4455(2)
H29A H 0.0902 -0.5833 0.4086
C42A C -0.0421(4) -0.5068(3) 0.4043(2)
H30A H -0.0705 -0.5119 0.3402
O8A O 0.2582(3) -0.6283(2) 0.53745(16)
O9A O 0.2225(3) -0.5884(3) 0.67149(16)
H31A H 0.2865 -0.6085 0.6923
O10 O 0.4677(7) 0.0409(5) 0.4790(4)
loop_
_geom_bond_atom_site_label_1
_geom_bond_atom_site_label_2
_geom_bond_site_symmetry_1
_geom_bond_site_symmetry_2
Zn1 N2 1_555 1_555
C1 C2 1_555 1_555
C2 C3 1_555 1_555
C3 C22 1_555 1_555
C4 C1 1_555 1_555
H1 C4 1_555 1_555
H2 C4 1_555 1_555
C5 C6 1_555 1_555
C6 H3 1_555 1_555
C7 C6 1_555 1_555
H4 C7 1_555 1_555
C8 C7 1_555 1_555
H5 C8 1_555 1_555
C9 C8 1_555 1_555
C10 C5 1_555 1_555
H6 C10 1_555 1_555
C11 H7 1_555 1_555
C12 H8 1_555 1_555
C13 C2 1_555 1_555
H9 C13 1_555 1_555
H10 C13 1_555 1_555
C14 C15 1_555 1_555
C15 H11 1_555 1_555
C16 C15 1_555 1_555
H12 C16 1_555 1_555
C17 C16 1_555 1_555
H13 C17 1_555 1_555
C18 C17 1_555 1_555
C19 C14 1_555 1_555
H14 C19 1_555 1_555
C20 H15 1_555 1_555
C21 H16 1_555 1_555
C22 H17 1_555 1_555
H18 C22 1_555 1_555
C23 C24 1_555 1_555
C24 H19 1_555 1_555
C25 C24 1_555 1_555
H20 C25 1_555 1_555
C26 C25 1_555 1_555
H21 C26 1_555 1_555
C27 C26 1_555 1_555
C28 C23 1_555 1_555
H22 C28 1_555 1_555
C29 H23 1_555 1_555
C30 H24 1_555 1_555
C31 C33 1_555 1_555
C32 H25 1_555 1_555
C33 C32 1_555 1_555
C34 C33 1_555 1_555
H26 C34 1_555 1_555
C35 C36 1_555 1_555
C36 C37 1_555 1_555
C37 H27 1_555 1_555
C38 C37 1_555 1_555
H28 C38 1_555 1_555
N1 C9 1_555 1_555
N2 C11 1_555 1_555
N3 C12 1_555 1_555
N4 C18 1_555 1_555
N5 C20 1_555 1_555
N6 C21 1_555 1_555
N7 C27 1_555 1_555
N8 C29 1_555 1_555
N9 C30 1_555 1_555
O1 C4 1_555 1_555
O2 C13 1_555 1_555
O3 C22 1_555 1_555
O4 C31 1_555 1_555
O5 Zn1 1_555 1_555
O6 C35 1_555 1_555
O7 Zn1 1_555 1_555
C39 C40 1_555 1_555
C40 C41 1_555 1_555
C41 H29 1_555 1_555
C42 C41 1_555 1_555
H30 C42 1_555 1_555
O8 C39 1_555 1_555
O9 C39 1_555 1_555
H31 O9 1_555 1_555
C1A C3 1_555 1_555
C2A C1A 1_555 1_555
C3A C1 1_555 1_555
C4A C1A 1_555 1_555
H1A C4A 1_555 1_555
H2A C4A 1_555 1_555
C5A C6A 1_555 1_555
C6A H3A 1_555 1_555
C7A C6A 1_555 1_555
H4A C7A 1_555 1_555
C8A C7A 1_555 1_555
H5A C8A 1_555 1_555
C9A C8A 1_555 1_555
C10A C5A 1_555 1_555
H6A C10A 1_555 1_555
C11A H7A 1_555 1_555
C12A H8A 1_555 1_555
C13A C2A 1_555 1_555
H9A C13A 1_555 1_555
H10A C13A 1_555 1_555
C14A C15A 1_555 1_555
C15A H11A 1_555 1_555
C16A C15A 1_555 1_555
H12A C16A 1_555 1_555
C17A C16A 1_555 1_555
H13A C17A 1_555 1_555
C18A C17A 1_555 1_555
C19A C14A 1_555 1_555
H14A C19A 1_555 1_555
C20A H15A 1_555 1_555
C21A H16A 1_555 1_555
C22A C3A 1_555 1_555
H17A C22A 1_555 1_555
H18A C22A 1_555 1_555
C23A C24A 1_555 1_555
C24A H19A 1_555 1_555
C25A C24A 1_555 1_555
H20A C25A 1_555 1_555
C26A C25A 1_555 1_555
H21A C26A 1_555 1_555
C27A C26A 1_555 1_555
C28A C23A 1_555 1_555
H22A C28A 1_555 1_555
C29A H23A 1_555 1_555
C30A H24A 1_555 1_555
N1A C9A 1_555 1_555
N2A C11A 1_555 1_555
N3A C12A 1_555 1_555
N4A C18A 1_555 1_555
N5A C20A 1_555 1_555
N6A C21A 1_555 1_555
N7A C27A 1_555 1_555
N8A C29A 1_555 1_555
N9A C30A 1_555 1_555
O1A C4A 1_555 1_555
O2A C13A 1_555 1_555
O3A C22A 1_555 1_555
C31A C33A 1_555 1_555
C32A C34 1_555 1_555
H25A C32A 1_555 1_555
C33A C32A 1_555 1_555
C34A C32 1_555 1_555
H26A C34A 1_555 1_555
O4A C31A 1_555 1_555
O5A C31A 1_555 1_555
C35A C36A 1_555 1_555
C36A C38 1_555 1_555
C37A C36A 1_555 1_555
H27A C37A 1_555 1_555
C38A C36 1_555 1_555
H28A C38A 1_555 1_555
O6A C35A 1_555 1_555
O7A C35A 1_555 1_555
Zn1A N2A 1_555 1_555
Zn1_2 N8 1_555 1_555
Zn1A_2 N8A 1_555 1_555
Zn1A_3 O7A 1_555 1_555
Zn1A_4 O5A 1_555 1_555
N8_2 Zn1 1_555 1_555
N8A_2 Zn1A 1_555 1_555
O5A_2 Zn1A 1_555 1_555
O7A_2 Zn1A 1_555 1_555
C39A C40A 1_555 1_555
C40A C42 1_555 1_555
C41A C40A 1_555 1_555
H29A C41A 1_555 1_555
C42A C40 1_555 1_555
H30A C42A 1_555 1_555
O8A C39A 1_555 1_555
O9A C39A 1_555 1_555
H31A O9A 1_555 1_555
C5 O1 1_555 1_555
C9 C10 1_555 1_555
C11 N1 1_555 1_555
C12 N1 1_555 1_555
C14 O2 1_555 1_555
C18 C19 1_555 1_555
C20 N4 1_555 1_555
C21 N4 1_555 1_555
C23 O3 1_555 1_555
C27 C28 1_555 1_555
C29 N7 1_555 1_555
C30 N7 1_555 1_555
C31 O5 1_555 1_555
C35 O7 1_555 1_555
N2 N3 1_555 1_555
N5 N6 1_555 1_555
N8 N9 1_555 1_555
C2A C3A 1_555 1_555
C5A O1A 1_555 1_555
C9A C10A 1_555 1_555
C11A N1A 1_555 1_555
C12A N1A 1_555 1_555
C14A O2A 1_555 1_555
C18A C19A 1_555 1_555
C20A N4A 1_555 1_555
C21A N4A 1_555 1_555
C23A O3A 1_555 1_555
C27A C28A 1_555 1_555
C29A N7A 1_555 1_555
C30A N7A 1_555 1_555
N2A N3A 1_555 1_555
N5A N6A 1_555 1_555
N8A N9A 1_555 1_555
C33A C34A 1_555 1_555
C37A C38A 1_555 1_555
C41A C42A 1_555 1_555

#END
