
#######################################################################
#
#                 Cambridge Crystallographic Data Centre
#                                CCDC 
#
#######################################################################
#
# If this CIF has been generated from an entry in the Cambridge 
# Structural Database, then it will include bibliographic, chemical, 
# crystal, experimental, refinement or atomic coordinate data resulting 
# from the CCDC's data processing and validation procedures.
#
#######################################################################

data_RESQEN
_symmetry_cell_setting           triclinic
_symmetry_space_group_name_H-M   'P -1'
_symmetry_Int_Tables_number      2
_space_group_name_Hall           '-P 1'
loop_
_symmetry_equiv_pos_site_id
_symmetry_equiv_pos_as_xyz
1 x,y,z
2 -x,-y,-z
_cell_length_a                   12.1297(4)
_cell_length_b                   13.0897(4)
_cell_length_c                   14.3302(6)
_cell_angle_alpha                91.390(3)
_cell_angle_beta                 98.373(3)
_cell_angle_gamma                90.423(2)
_cell_volume                     2250.21
loop_
_atom_site_label
_atom_site_type_symbol
_atom_site_fract_x
_atom_site_fract_y
_atom_site_fract_z
Na1 Na 0.0000 0.5000 0.5000
C43 C 0.2727(14) 0.5190(13) 0.4566(11)
C44 C 0.4381(8) 0.4185(6) 0.4644(6)
H31 H 0.3943 0.3634 0.4385
C45 C 0.3875(8) 0.5104(7) 0.4765(6)
C46 C 0.4545(7) 0.5950(7) 0.5124(6)
H32 H 0.4233 0.6589 0.5194
O11 O 0.2031(9) 0.4452(7) 0.4354(7)
O12 O 0.2517(15) 0.6177(14) 0.5037(14)
C43A C 0.7273(14) 0.4810(13) 0.5434(11)
C44A C 0.5619(8) 0.5815(6) 0.5356(6)
H31A H 0.6057 0.6366 0.5615
C45A C 0.6125(8) 0.4896(7) 0.5235(6)
C46A C 0.5455(7) 0.4050(7) 0.4876(6)
H32A H 0.5767 0.3411 0.4806
O11A O 0.7969(9) 0.5548(7) 0.5646(7)
O12A O 0.7483(15) 0.3823(14) 0.4963(14)
O13 O -0.0355(6) 0.3661(5) 0.4428(5)
Cd1 Cd 0.19817(2) -0.07401(2) 0.673992(19)
Cd2 Cd 0.06513(2) 0.23006(2) 0.72209(2)
C1 C 0.9291(3) 0.4179(3) 1.0139(3)
C2 C 1.0176(3) 0.4468(3) 1.0842(3)
C3 C 1.0881(3) 0.5285(3) 1.0707(3)
C4 C 0.8545(3) 0.3287(3) 1.0274(3)
H1 H 0.8589 0.2765 0.9790
H2 H 0.8776 0.2991 1.0885
C5 C 0.6592(3) 0.2938(3) 1.0220(3)
C6 C 0.6767(4) 0.1961(3) 1.0571(3)
H3 H 0.7481 0.1748 1.0807
C7 C 0.5862(4) 0.1314(3) 1.0560(3)
H4 H 0.5970 0.0671 1.0818
C8 C 0.4804(4) 0.1593(3) 1.0180(3)
H5 H 0.4205 0.1143 1.0169
C9 C 0.4652(3) 0.2559(3) 0.9814(3)
C10 C 0.5532(3) 0.3232(3) 0.9839(3)
H6 H 0.5415 0.3883 0.9599
C11 C 0.3012(4) 0.3727(4) 0.9426(3)
H7 H 0.3260 0.4264 0.9841
C12 C 0.2924(4) 0.2287(3) 0.8675(3)
H8 H 0.3089 0.1638 0.8461
C13 C 1.0450(3) 0.3853(3) 1.1720(3)
H9 H 1.0854 0.4265 1.2231
H10 H 0.9778 0.3582 1.1921
C14 C 1.1768(4) 0.2518(3) 1.2123(3)
C15 C 1.2735(4) 0.2106(3) 1.1870(3)
H11 H 1.2912 0.2198 1.1268
C16 C 1.3432(4) 0.1558(4) 1.2516(4)
H12 H 1.4091 0.1295 1.2354
C17 C 1.3157(4) 0.1400(3) 1.3398(3)
H13 H 1.3629 0.1037 1.3838
C18 C 1.2186(4) 0.1781(3) 1.3620(3)
C19 C 1.1467(4) 0.2355(3) 1.2991(3)
H14 H 1.0809 0.2616 1.3156
C20 C 1.1712(4) 0.2179(3) 1.5240(3)
H15 H 1.1767 0.2887 1.5228
C21 C 1.1665(5) 0.0596(3) 1.4832(3)
H16 H 1.1684 -0.0005 1.4476
C22 C 1.1805(3) 0.5622(3) 1.1482(3)
H17 H 1.2086 0.6291 1.1350
H18 H 1.1525 0.5665 1.2082
C23 C 1.3712(3) 0.5159(3) 1.1996(3)
C24 C 1.3981(4) 0.6111(3) 1.2404(3)
H19 H 1.3438 0.6608 1.2405
C25 C 1.5066(4) 0.6318(3) 1.2810(3)
H20 H 1.5245 0.6966 1.3071
C26 C 1.5888(4) 0.5603(3) 1.2841(3)
H21 H 1.6617 0.5760 1.3108
C27 C 1.5598(3) 0.4639(3) 1.2463(3)
C28 C 1.4530(3) 0.4408(3) 1.2034(3)
H22 H 1.4355 0.3759 1.1772
C29 C 1.7514(4) 0.3963(3) 1.2467(3)
H23 H 1.7837 0.4569 1.2307
C30 C 1.6326(4) 0.2863(3) 1.2801(3)
H24 H 1.5666 0.2556 1.2915
C31 C -0.1524(3) 0.1802(3) 0.7068(3)
C32 C -0.2721(3) 0.1473(3) 0.7017(3)
C33 C -0.3143(4) 0.1275(3) 0.7842(3)
H25 H -0.2706 0.1393 0.8424
C34 C -0.4224(4) 0.0899(3) 0.7793(3)
H26 H -0.4516 0.0781 0.8346
C35 C -0.4872(3) 0.0697(3) 0.6926(3)
C36 C -0.4458(4) 0.0941(3) 0.6100(3)
H27 H -0.4899 0.0839 0.5517
C37 C -0.3381(4) 0.1338(3) 0.6152(3)
H28 H -0.3106 0.1513 0.5603
C38 C -0.5969(4) 0.0149(3) 0.6877(3)
C39 C 0.0821(3) -0.0112(3) 0.8202(3)
C40 C 0.0401(4) 0.0878(3) 0.9635(3)
H29 H 0.0664 0.1471 0.9394
C41 C 0.0383(3) -0.0038(3) 0.9126(3)
C42 C -0.0026(4) -0.0906(3) 0.9500(3)
H30 H -0.0048 -0.1522 0.9161
N1 N 0.3571(3) 0.2845(3) 0.9354(2)
N2 N 0.2035(3) 0.2800(3) 0.8369(3)
N3 N 0.2087(3) 0.3732(3) 0.8844(3)
N4 N 1.1861(3) 0.1547(3) 1.4520(2)
N5 N 1.1479(3) 0.1672(3) 1.5957(2)
N6 N 1.1448(3) 0.0645(3) 1.5695(2)
N7 N 1.6423(3) 0.3850(2) 1.2548(3)
N8 N 1.7281(3) 0.2404(3) 1.2862(3)
N9 N 1.8058(3) 0.3115(3) 1.2641(3)
O1 O 0.7418(2) 0.3657(2) 1.0215(2)
O2 O 1.1134(3) 0.3042(2) 1.1433(2)
O3 O 0.0982(3) -0.1716(2) 0.5542(2)
O4 O 1.2692(2) 0.4877(2) 1.1525(2)
O5 O -0.1031(2) 0.2210(2) 0.7814(2)
O6 O -0.1040(2) 0.1633(2) 0.6358(2)
O7 O -0.6315(3) -0.0370(3) 0.6150(2)
O8 O -0.6483(3) 0.0203(2) 0.7574(2)
O9 O 0.0980(3) -0.0989(2) 0.7888(2)
O10 O 0.1074(3) 0.0674(2) 0.7808(2)
Cl1 Cl 0.04995(14) 0.41136(9) 0.65813(10)
C1A C 1.0709(3) 0.5821(3) 0.9861(3)
C2A C 0.9824(3) 0.5532(3) 0.9158(3)
C3A C 0.9119(3) 0.4715(3) 0.9293(3)
C4A C 1.1455(3) 0.6713(3) 0.9726(3)
H1A H 1.1411 0.7235 1.0210
H2A H 1.1224 0.7009 0.9115
C5A C 1.3408(3) 0.7062(3) 0.9780(3)
C6A C 1.3233(4) 0.8039(3) 0.9429(3)
H3A H 1.2519 0.8252 0.9193
C7A C 1.4138(4) 0.8686(3) 0.9440(3)
H4A H 1.4030 0.9329 0.9182
C8A C 1.5196(4) 0.8407(3) 0.9820(3)
H5A H 1.5795 0.8857 0.9831
C9A C 1.5348(3) 0.7441(3) 1.0186(3)
C10A C 1.4468(3) 0.6768(3) 1.0161(3)
H6A H 1.4585 0.6117 1.0401
C11A C 1.6988(4) 0.6273(4) 1.0574(3)
H7A H 1.6740 0.5736 1.0159
C12A C 1.7076(4) 0.7713(3) 1.1325(3)
H8A H 1.6911 0.8362 1.1539
C13A C 0.9550(3) 0.6147(3) 0.8280(3)
H9A H 0.9146 0.5735 0.7769
H10A H 1.0222 0.6418 0.8079
C14A C 0.8232(4) 0.7482(3) 0.7877(3)
C15A C 0.7265(4) 0.7894(3) 0.8130(3)
H11A H 0.7088 0.7802 0.8732
C16A C 0.6568(4) 0.8442(4) 0.7484(4)
H12A H 0.5909 0.8705 0.7646
C17A C 0.6843(4) 0.8600(3) 0.6602(3)
H13A H 0.6371 0.8963 0.6162
C18A C 0.7814(4) 0.8219(3) 0.6380(3)
C19A C 0.8533(4) 0.7645(3) 0.7009(3)
H14A H 0.9191 0.7384 0.6844
C20A C 0.8288(4) 0.7821(3) 0.4760(3)
H15A H 0.8233 0.7113 0.4772
C21A C 0.8335(5) 0.9404(3) 0.5168(3)
H16A H 0.8316 1.0005 0.5524
C22A C 0.8195(3) 0.4378(3) 0.8518(3)
H17A H 0.7914 0.3709 0.8650
H18A H 0.8475 0.4335 0.7918
C23A C 0.6288(3) 0.4841(3) 0.8004(3)
C24A C 0.6019(4) 0.3889(3) 0.7596(3)
H19A H 0.6562 0.3392 0.7595
C25A C 0.4934(4) 0.3682(3) 0.7190(3)
H20A H 0.4755 0.3034 0.6929
C26A C 0.4112(4) 0.4397(3) 0.7159(3)
H21A H 0.3383 0.4240 0.6892
C27A C 0.4402(3) 0.5361(3) 0.7537(3)
C28A C 0.5470(3) 0.5592(3) 0.7966(3)
H22A H 0.5645 0.6241 0.8228
C29A C 0.2486(4) 0.6037(3) 0.7533(3)
H23A H 0.2163 0.5431 0.7693
C30A C 0.3674(4) 0.7137(3) 0.7199(3)
H24A H 0.4334 0.7444 0.7085
N1A N 1.6429(3) 0.7155(3) 1.0646(2)
N2A N 1.7965(3) 0.7200(3) 1.1631(3)
N3A N 1.7913(3) 0.6268(3) 1.1156(3)
N4A N 0.8139(3) 0.8453(3) 0.5480(2)
N5A N 0.8521(3) 0.8328(3) 0.4043(2)
N6A N 0.8552(3) 0.9355(3) 0.4305(2)
N7A N 0.3577(3) 0.6150(2) 0.7452(3)
N8A N 0.2719(3) 0.7596(3) 0.7138(3)
N9A N 0.1942(3) 0.6885(3) 0.7359(3)
O1A O 1.2582(2) 0.6343(2) 0.9785(2)
O2A O 0.8866(3) 0.6958(2) 0.8567(2)
O4A O 0.7308(2) 0.5123(2) 0.8475(2)
C39A C -0.0821(3) 0.0112(3) 1.1798(3)
C40A C -0.0401(4) -0.0878(3) 1.0365(3)
H29A H -0.0664 -0.1471 1.0606
C41A C -0.0383(3) 0.0038(3) 1.0874(3)
C42A C 0.0026(4) 0.0906(3) 1.0500(3)
H30A H 0.0048 0.1522 1.0839
O9A O -0.0980(3) 0.0989(2) 1.2112(2)
O10A O -0.1074(3) -0.0674(2) 1.2192(2)
Cd1A Cd -0.19817(2) 0.07401(2) 1.326008(19)
Cd2A Cd -0.06513(2) -0.23006(2) 1.27791(2)
C31A C 0.1524(3) -0.1802(3) 1.2932(3)
C32A C 0.2721(3) -0.1473(3) 1.2983(3)
C33A C 0.3143(4) -0.1275(3) 1.2158(3)
H25A H 0.2706 -0.1393 1.1576
C34A C 0.4224(4) -0.0899(3) 1.2207(3)
H26A H 0.4516 -0.0781 1.1654
C35A C 0.4872(3) -0.0697(3) 1.3074(3)
C36A C 0.4458(4) -0.0941(3) 1.3900(3)
H27A H 0.4899 -0.0839 1.4483
C37A C 0.3381(4) -0.1338(3) 1.3848(3)
H28A H 0.3106 -0.1513 1.4397
C38A C 0.5969(4) -0.0149(3) 1.3123(3)
O3A O -0.0982(3) 0.1716(2) 1.4458(2)
O5A O 0.1031(2) -0.2210(2) 1.2186(2)
O6A O 0.1040(2) -0.1633(2) 1.3642(2)
O7A O 0.6315(3) 0.0370(3) 1.3850(2)
O8A O 0.6483(3) -0.0203(2) 1.2426(2)
Cl1A Cl -0.04995(14) -0.41136(9) 1.34187(10)
Cd1_2 Cd -0.80183(2) -0.07401(2) 0.673992(19)
Cd1_3 Cd 0.19817(2) 0.92599(2) 0.673992(19)
Cd1_4 Cd 1.19817(2) -0.07401(2) 1.673992(19)
Cd1A_2 Cd 0.80183(2) 0.07401(2) 1.326008(19)
Cd1A_3 Cd 0.80183(2) 1.07401(2) 0.326008(19)
Cd1A_4 Cd 1.80183(2) 0.07401(2) 1.326008(19)
Cd2_2 Cd 1.06513(2) 0.23006(2) 1.72209(2)
Cd2A_2 Cd 0.93487(2) 0.76994(2) 0.27791(2)
Cd2A_3 Cd 1.93487(2) 0.76994(2) 1.27791(2)
N2A_2 N -0.2035(3) -0.2800(3) 1.1631(3)
N5_2 N 0.1479(3) 0.1672(3) 0.5957(2)
N5A_2 N -0.1479(3) -0.1672(3) 1.4043(2)
N6_2 N 0.1448(3) 0.0645(3) 0.5695(2)
N6A_2 N -0.1448(3) -0.0645(3) 1.4305(2)
N8_2 N -0.2719(3) 0.2404(3) 1.2862(3)
N8A_2 N 0.2719(3) -0.2404(3) 0.7138(3)
O7_2 O 0.3685(3) -0.0370(3) 0.6150(2)
O7A_2 O -0.3685(3) 0.0370(3) 1.3850(2)
O8_2 O 0.3517(3) 0.0203(2) 0.7574(2)
O8A_2 O -0.3517(3) -0.0203(2) 1.2426(2)
O14? O 0.2189(12) 0.6038(10) 0.4222(10)
loop_
_geom_bond_atom_site_label_1
_geom_bond_atom_site_label_2
_geom_bond_site_symmetry_1
_geom_bond_site_symmetry_2
Cd1 O3 1_555 1_555
Cd2 N2 1_555 1_555
C1 C2 1_555 1_555
C2 C3 1_555 1_555
C3 C22 1_555 1_555
C4 C1 1_555 1_555
H1 C4 1_555 1_555
H2 C4 1_555 1_555
C5 C6 1_555 1_555
C6 H3 1_555 1_555
C7 C6 1_555 1_555
H4 C7 1_555 1_555
C8 C7 1_555 1_555
H5 C8 1_555 1_555
C9 C8 1_555 1_555
C10 C5 1_555 1_555
H6 C10 1_555 1_555
C11 H7 1_555 1_555
C12 H8 1_555 1_555
C13 C2 1_555 1_555
H9 C13 1_555 1_555
H10 C13 1_555 1_555
C14 C15 1_555 1_555
C15 H11 1_555 1_555
C16 C15 1_555 1_555
H12 C16 1_555 1_555
C17 C16 1_555 1_555
H13 C17 1_555 1_555
C18 C17 1_555 1_555
C19 C14 1_555 1_555
H14 C19 1_555 1_555
C20 H15 1_555 1_555
C21 H16 1_555 1_555
C22 H17 1_555 1_555
H18 C22 1_555 1_555
C23 C24 1_555 1_555
C24 H19 1_555 1_555
C25 C24 1_555 1_555
H20 C25 1_555 1_555
C26 C25 1_555 1_555
H21 C26 1_555 1_555
C27 C26 1_555 1_555
C28 C23 1_555 1_555
H22 C28 1_555 1_555
C29 H23 1_555 1_555
C30 H24 1_555 1_555
C31 C32 1_555 1_555
C32 C33 1_555 1_555
C33 H25 1_555 1_555
C34 C33 1_555 1_555
H26 C34 1_555 1_555
C35 C34 1_555 1_555
C36 C35 1_555 1_555
H27 C36 1_555 1_555
C37 C32 1_555 1_555
H28 C37 1_555 1_555
C38 C35 1_555 1_555
C39 C41 1_555 1_555
C40 H29 1_555 1_555
C41 C40 1_555 1_555
C42 C41 1_555 1_555
H30 C42 1_555 1_555
N1 C9 1_555 1_555
N2 C12 1_555 1_555
N3 C11 1_555 1_555
N4 C18 1_555 1_555
N5 C20 1_555 1_555
N6 C21 1_555 1_555
N7 C27 1_555 1_555
N8 C30 1_555 1_555
N9 C29 1_555 1_555
O1 C4 1_555 1_555
O2 C13 1_555 1_555
O4 C22 1_555 1_555
O5 Cd2 1_555 1_555
O6 Cd2 1_555 1_555
O7 C38 1_555 1_555
O8 C38 1_555 1_555
O9 Cd1 1_555 1_555
O10 Cd1 1_555 1_555
Cl1 Cd2 1_555 1_555
C43 C45 1_555 1_555
C44 H31 1_555 1_555
C45 C44 1_555 1_555
C46 C45 1_555 1_555
H32 C46 1_555 1_555
O11 C43 1_555 1_555
O12 C43 1_555 1_555
C1A C3 1_555 1_555
C2A C1A 1_555 1_555
C3A C1 1_555 1_555
C4A C1A 1_555 1_555
H1A C4A 1_555 1_555
H2A C4A 1_555 1_555
C5A C6A 1_555 1_555
C6A H3A 1_555 1_555
C7A C6A 1_555 1_555
H4A C7A 1_555 1_555
C8A C7A 1_555 1_555
H5A C8A 1_555 1_555
C9A C8A 1_555 1_555
C10A C5A 1_555 1_555
H6A C10A 1_555 1_555
C11A H7A 1_555 1_555
C12A H8A 1_555 1_555
C13A C2A 1_555 1_555
H9A C13A 1_555 1_555
H10A C13A 1_555 1_555
C14A C15A 1_555 1_555
C15A H11A 1_555 1_555
C16A C15A 1_555 1_555
H12A C16A 1_555 1_555
C17A C16A 1_555 1_555
H13A C17A 1_555 1_555
C18A C17A 1_555 1_555
C19A C14A 1_555 1_555
H14A C19A 1_555 1_555
C20A H15A 1_555 1_555
C21A H16A 1_555 1_555
C22A C3A 1_555 1_555
H17A C22A 1_555 1_555
H18A C22A 1_555 1_555
C23A C24A 1_555 1_555
C24A H19A 1_555 1_555
C25A C24A 1_555 1_555
H20A C25A 1_555 1_555
C26A C25A 1_555 1_555
H21A C26A 1_555 1_555
C27A C26A 1_555 1_555
C28A C23A 1_555 1_555
H22A C28A 1_555 1_555
C29A H23A 1_555 1_555
C30A H24A 1_555 1_555
N1A C9A 1_555 1_555
N2A C12A 1_555 1_555
N3A C11A 1_555 1_555
N4A C18A 1_555 1_555
N5A C20A 1_555 1_555
N6A C21A 1_555 1_555
N7A C27A 1_555 1_555
N8A C30A 1_555 1_555
N9A C29A 1_555 1_555
O1A C4A 1_555 1_555
O2A C13A 1_555 1_555
O4A C22A 1_555 1_555
C39A C41A 1_555 1_555
C40A C42 1_555 1_555
H29A C40A 1_555 1_555
C41A C40A 1_555 1_555
C42A C40 1_555 1_555
H30A C42A 1_555 1_555
O9A C39A 1_555 1_555
O10A C39A 1_555 1_555
Cd1A O9A 1_555 1_555
Cd2A O10A 1_555 1_555
C31A C32A 1_555 1_555
C32A C33A 1_555 1_555
C33A H25A 1_555 1_555
C34A C33A 1_555 1_555
H26A C34A 1_555 1_555
C35A C34A 1_555 1_555
C36A C35A 1_555 1_555
H27A C36A 1_555 1_555
C37A C32A 1_555 1_555
H28A C37A 1_555 1_555
C38A C35A 1_555 1_555
O3A Cd1A 1_555 1_555
O5A Cd2A 1_555 1_555
O6A Cd2A 1_555 1_555
O7A C38A 1_555 1_555
O8A C38A 1_555 1_555
Cl1A Cd2A 1_555 1_555
Cd1_2 O7 1_555 1_555
Cd1_3 N8A 1_555 1_555
Cd1_4 N6 1_555 1_555
Cd1A_2 O7A 1_555 1_555
Cd1A_3 N6A 1_555 1_555
Cd1A_4 N8 1_555 1_555
Cd2_2 N5 1_555 1_555
Cd2A_2 N5A 1_555 1_555
Cd2A_3 N2A 1_555 1_555
N2A_2 Cd2A 1_555 1_555
N5_2 Cd2 1_555 1_555
N5A_2 Cd2A 1_555 1_555
N6_2 Cd1 1_555 1_555
N6A_2 Cd1A 1_555 1_555
N8_2 Cd1A 1_555 1_555
N8A_2 Cd1 1_555 1_555
O7_2 Cd1 1_555 1_555
O7A_2 Cd1A 1_555 1_555
O8_2 Cd1 1_555 1_555
O8A_2 Cd1A 1_555 1_555
C43A C45A 1_555 1_555
C44A C46 1_555 1_555
H31A C44A 1_555 1_555
C45A C44A 1_555 1_555
C46A C44 1_555 1_555
H32A C46A 1_555 1_555
O11A C43A 1_555 1_555
O12A C43A 1_555 1_555
Cd2 O10 1_555 1_555
C5 O1 1_555 1_555
C9 C10 1_555 1_555
C11 N1 1_555 1_555
C12 N1 1_555 1_555
C14 O2 1_555 1_555
C18 C19 1_555 1_555
C20 N4 1_555 1_555
C21 N4 1_555 1_555
C23 O4 1_555 1_555
C27 C28 1_555 1_555
C29 N7 1_555 1_555
C30 N7 1_555 1_555
C31 O5 1_555 1_555
C31 O6 1_555 1_555
C36 C37 1_555 1_555
C39 O9 1_555 1_555
C39 O10 1_555 1_555
N2 N3 1_555 1_555
N5 N6 1_555 1_555
N8 N9 1_555 1_555
O8 Cd1_2 1_555 1_555
C2A C3A 1_555 1_555
C5A O1A 1_555 1_555
C9A C10A 1_555 1_555
C11A N1A 1_555 1_555
C12A N1A 1_555 1_555
C14A O2A 1_555 1_555
C18A C19A 1_555 1_555
C20A N4A 1_555 1_555
C21A N4A 1_555 1_555
C23A O4A 1_555 1_555
C27A C28A 1_555 1_555
C29A N7A 1_555 1_555
C30A N7A 1_555 1_555
N2A N3A 1_555 1_555
N5A N6A 1_555 1_555
N8A N9A 1_555 1_555
C41A C42A 1_555 1_555
O10A Cd1A 1_555 1_555
C31A O5A 1_555 1_555
C31A O6A 1_555 1_555
C36A C37A 1_555 1_555
O8A Cd1A_2 1_555 1_555
N5_2 N6_2 1_555 1_555
N5A_2 N6A_2 1_555 1_555
C45A C46A 1_555 1_555

#END
