
#######################################################################
#
#                 Cambridge Crystallographic Data Centre
#                                CCDC 
#
#######################################################################
#
# If this CIF has been generated from an entry in the Cambridge 
# Structural Database, then it will include bibliographic, chemical, 
# crystal, experimental, refinement or atomic coordinate data resulting 
# from the CCDC's data processing and validation procedures.
#
#######################################################################

data_RESROX
_symmetry_cell_setting           monoclinic
_symmetry_space_group_name_H-M   'P 21/n'
_symmetry_Int_Tables_number      14
_space_group_name_Hall           '-P 2yn'
loop_
_symmetry_equiv_pos_site_id
_symmetry_equiv_pos_as_xyz
1 x,y,z
2 1/2-x,1/2+y,1/2-z
3 -x,-y,-z
4 1/2+x,1/2-y,1/2+z
_cell_length_a                   13.3135(19)
_cell_length_b                   7.5501(11)
_cell_length_c                   17.487(3)
_cell_angle_alpha                90
_cell_angle_beta                 92.722(3)
_cell_angle_gamma                90
_cell_volume                     1755.78
loop_
_atom_site_label
_atom_site_type_symbol
_atom_site_fract_x
_atom_site_fract_y
_atom_site_fract_z
Ni1 Ni 0.74989(4) 0.38803(7) 0.25274(3)
S1 S 0.91967(8) -0.24689(15) 0.61979(6)
C1 C 0.8336(3) 0.1282(6) 0.4665(2)
C2 C 0.8796(3) 0.2788(6) 0.4954(2)
H1 H 0.8738 0.3855 0.4690
C3 C 0.9355(3) 0.2684(6) 0.5654(2)
H2 H 0.9660 0.3698 0.5859
C4 C 0.9457(3) 0.1137(6) 0.6033(2)
H3 H 0.9851 0.1087 0.6486
C5 C 0.8980(3) -0.0391(6) 0.5756(2)
C6 C 0.8383(3) -0.0312(6) 0.5069(2)
C7 C 0.7832(3) 0.1356(6) 0.3865(2)
C8 C 0.7841(3) -0.1936(5) 0.4800(2)
C9 C 0.8760(3) -0.2157(6) 0.7136(2)
C10 C 0.7878(3) -0.1243(6) 0.7266(2)
H4 H 0.7521 -0.0698 0.6860
C11 C 0.7537(3) -0.1145(6) 0.7981(2)
H5 H 0.6934 -0.0569 0.8064
C12 C 0.8082(3) -0.1900(6) 0.8592(2)
H6 H 0.7861 -0.1778 0.9086
C13 C 0.8946(3) -0.2828(6) 0.8472(2)
C14 C 0.9323(3) -0.2961(6) 0.7744(2)
C15 C 0.9464(3) -0.3686(6) 0.9144(3)
C16 C 1.0265(3) -0.3945(6) 0.7580(2)
O1 O 0.7636(2) 0.2883(4) 0.36026(16)
O2 O 0.7680(2) -0.0077(4) 0.35328(15)
O3 O 0.6917(2) -0.1944(4) 0.49927(16)
H7 H 0.6576 -0.0939 0.4767
O4 O 0.8231(2) -0.3141(4) 0.44714(16)
O5 O 1.0199(2) -0.5469(4) 0.73254(15)
O6 O 1.1077(2) -0.3099(4) 0.76863(15)
O7 O 1.0062(2) -0.4957(4) 0.90136(16)
H8 H 1.0532 -0.4583 0.8744
O8 O 0.9273(2) -0.3243(4) 0.98057(17)
O9 O 0.6048(2) 0.4585(4) 0.27085(18)
H9 H 0.6041 0.5608 0.2911
H10 H 0.5790 0.3840 0.3006
O10 O 0.6985(2) 0.1403(4) 0.20553(16)
H11 H 0.7119 0.1436 0.1521
H12 H 0.6267 0.1400 0.2085
Ni1A Ni 0.75011(4) -0.11197(7) 0.24726(3)
Ni1B Ni 1.25011(4) -0.38803(7) 0.74726(3)
O2A O 0.7320(2) 0.4923(4) 0.14672(15)
O6B O 0.8923(2) 0.3099(4) 0.23137(15)
O10A O 0.8015(2) 0.6403(4) 0.29447(16)
H11A H 0.7881 0.6436 0.3479
H12A H 0.8733 0.6400 0.2915
O11 O 0.6152(2) 0.5004(4) 0.44662(18)
H13 H 0.6326 0.4024 0.4672
H14 H 0.6582 0.5795 0.4595
O12 O 0.4428(2) 0.3254(4) 0.33718(18)
H15 H 0.4257 0.2283 0.3157
H16 H 0.4570 0.3072 0.3844
loop_
_geom_bond_atom_site_label_1
_geom_bond_atom_site_label_2
_geom_bond_site_symmetry_1
_geom_bond_site_symmetry_2
Ni1 O1 1_555 1_555
S1 C5 1_555 1_555
C1 C2 1_555 1_555
C2 H1 1_555 1_555
C3 C2 1_555 1_555
H2 C3 1_555 1_555
C4 C3 1_555 1_555
H3 C4 1_555 1_555
C5 C4 1_555 1_555
C6 C1 1_555 1_555
C7 C1 1_555 1_555
C8 C6 1_555 1_555
C9 S1 1_555 1_555
C10 C9 1_555 1_555
H4 C10 1_555 1_555
C11 C10 1_555 1_555
H5 C11 1_555 1_555
C12 C11 1_555 1_555
H6 C12 1_555 1_555
C13 C12 1_555 1_555
C14 C9 1_555 1_555
C15 C13 1_555 1_555
C16 C14 1_555 1_555
O1 C7 1_555 1_555
O2 C7 1_555 1_555
O3 C8 1_555 1_555
H7 O3 1_555 1_555
O4 C8 1_555 1_555
O5 C16 1_555 1_555
O6 C16 1_555 1_555
O7 C15 1_555 1_555
H8 O7 1_555 1_555
O8 C15 1_555 1_555
O9 Ni1 1_555 1_555
H9 O9 1_555 1_555
H10 O9 1_555 1_555
O10 Ni1 1_555 1_555
H11 O10 1_555 1_555
H12 O10 1_555 1_555
O11 H13 1_555 1_555
H14 O11 1_555 1_555
O12 H15 1_555 1_555
H16 O12 1_555 1_555
Ni1A O2 1_555 1_555
Ni1B O6 1_555 1_555
O2A Ni1 1_555 1_555
O6B Ni1 1_555 1_555
O10A Ni1 1_555 1_555
H11A O10A 1_555 1_555
H12A O10A 1_555 1_555
C5 C6 1_555 1_555
C13 C14 1_555 1_555
O10 Ni1A 1_555 1_555

#END
