
#######################################################################
#
#                 Cambridge Crystallographic Data Centre
#                                CCDC 
#
#######################################################################
#
# If this CIF has been generated from an entry in the Cambridge 
# Structural Database, then it will include bibliographic, chemical, 
# crystal, experimental, refinement or atomic coordinate data resulting 
# from the CCDC's data processing and validation procedures.
#
#######################################################################

data_RESSEP
_symmetry_cell_setting           triclinic
_symmetry_space_group_name_H-M   'P -1'
_symmetry_Int_Tables_number      2
_space_group_name_Hall           '-P 1'
loop_
_symmetry_equiv_pos_site_id
_symmetry_equiv_pos_as_xyz
1 x,y,z
2 -x,-y,-z
_cell_length_a                   8.2079(19)
_cell_length_b                   16.029(4)
_cell_length_c                   24.699(6)
_cell_angle_alpha                102.764(17)
_cell_angle_beta                 98.004(16)
_cell_angle_gamma                101.353(14)
_cell_volume                     3049.93
loop_
_atom_site_label
_atom_site_type_symbol
_atom_site_fract_x
_atom_site_fract_y
_atom_site_fract_z
I1 I 0.6815(2) 0.42379(11) 0.39453(6)
I2 I -0.0993(2) -0.08944(11) 1.10195(6)
I3 I -0.8266(2) -0.04530(11) 0.39785(6)
I4 I 1.3961(2) 0.44251(12) 1.10863(6)
Cu1 Cu -0.4739(3) -0.07341(19) 0.74967(12)
Cu2 Cu 1.0335(3) 0.42129(18) 0.75018(12)
C1 C 0.766(3) 0.4302(14) 0.4805(8)
C2 C -0.738(3) -0.0601(14) 0.4792(8)
O1 O 1.0071(15) 0.3930(8) 0.6672(5)
O2 O 0.8995(15) 0.5082(7) 0.6913(5)
C3 C 1.320(3) 0.4331(14) 1.0243(8)
O3 O 1.0676(15) 0.4574(9) 0.8337(5)
O4 O -0.4212(16) 0.0151(8) 0.8523(5)
N1 N -0.2473(18) -0.0022(11) 0.7450(7)
O5 O -0.4889(15) -0.1517(8) 0.6481(5)
O6 O 1.1779(18) 0.3421(8) 0.8121(5)
C4 C -0.176(3) -0.0764(15) 1.0216(8)
N2 N 0.8052(19) 0.3438(12) 0.7445(8)
N3 N -1.7428(19) -0.4954(12) 0.7534(8)
O7 O -0.5825(16) -0.0351(10) 0.6857(6)
N4 N -0.6972(18) -0.1419(11) 0.7569(7)
O8 O -0.3620(16) -0.1092(9) 0.8152(5)
C5 C 1.292(2) 0.3551(13) 0.9264(8)
H1 H 1.3168 0.3094 0.8994
C6 C -0.364(3) -0.0493(14) 0.8552(8)
C7 C -1.629(2) -0.5213(12) 0.7248(7)
H2 H -1.6488 -0.5814 0.7049
C8 C 1.234(3) 0.4922(16) 1.0035(9)
H3 H 1.2179 0.5410 1.0302
C9 C -0.771(2) -0.2203(11) 0.7179(7)
H4 H -0.7238 -0.2366 0.6853
C10 C -0.132(2) -0.0430(12) 0.7262(7)
H5 H -0.1652 -0.1050 0.7110
C11 C 1.145(3) 0.4060(15) 0.8468(9)
C12 C -0.758(3) 0.0014(17) 0.5247(9)
H6 H -0.8040 0.0499 0.5203
C13 C -0.298(2) -0.0592(12) 0.9137(7)
C14 C 0.800(3) 0.5059(14) 0.5763(9)
H7 H 0.7786 0.5514 0.6044
C15 C -0.171(3) -0.1380(14) 0.9745(8)
H8 H -0.1329 -0.1889 0.9786
C16 C 0.847(3) 0.3706(14) 0.4938(8)
H9 H 0.8684 0.3258 0.4652
C17 C -0.621(2) -0.0772(12) 0.5855(8)
C18 C -0.043(2) 0.1322(13) 0.7675(7)
H10 H -0.0204 0.1945 0.7795
C19 C -0.563(3) -0.0919(14) 0.6413(8)
C20 C 0.538(2) 0.3202(12) 0.7712(8)
H11 H 0.4689 0.3401 0.7968
C21 C -0.221(3) -0.1286(14) 0.9205(8)
H12 H -0.2028 -0.1685 0.8885
C22 C -0.916(2) -0.2770(12) 0.7251(8)
H13 H -0.9675 -0.3300 0.6968
C23 C 0.932(3) 0.4501(14) 0.6533(9)
C24 C -0.982(2) -0.2564(13) 0.7720(7)
C25 C -0.706(3) -0.0118(15) 0.5776(10)
H14 H -0.7298 0.0251 0.6099
C26 C 0.699(3) 0.3637(14) 0.7782(9)
H15 H 0.7413 0.4129 0.8100
C27 C 0.880(2) 0.4458(12) 0.5938(7)
C28 C -0.765(3) -0.1205(14) 0.8005(8)
H16 H -0.7132 -0.0661 0.8275
C29 C -1.484(3) -0.4646(13) 0.7229(8)
H17 H -1.4046 -0.4853 0.7021
C30 C -0.605(3) -0.1374(13) 0.5373(8)
H18 H -0.5542 -0.1847 0.5412
C31 C -1.570(2) -0.3516(13) 0.7802(8)
H19 H -1.5567 -0.2913 0.7984
C32 C -0.663(3) -0.1286(13) 0.4834(8)
H20 H -0.6514 -0.1690 0.4505
C33 C -0.312(3) 0.0008(14) 0.9617(8)
H21 H -0.3628 0.0481 0.9582
C34 C -0.906(2) -0.1720(12) 0.8098(8)
H22 H -0.9545 -0.1516 0.8416
C35 C 0.742(2) 0.2698(12) 0.7026(7)
H23 H 0.8150 0.2514 0.6782
C36 C 1.176(3) 0.4834(15) 0.9496(9)
H24 H 1.1149 0.5235 0.9385
C37 C 1.204(2) 0.4133(13) 0.9081(8)
C38 C 0.471(2) 0.2468(11) 0.7270(6)
C39 C 0.032(2) -0.0020(12) 0.7271(7)
H25 H 0.1071 -0.0343 0.7118
C40 C -0.253(3) -0.0085(16) 1.0137(9)
H26 H -0.2643 0.0332 1.0460
C41 C -1.452(2) -0.3772(13) 0.7513(9)
C42 C 0.747(3) 0.5032(16) 0.5202(9)
H27 H 0.7015 0.5482 0.5092
C43 C 0.899(3) 0.3762(14) 0.5508(8)
H28 H 0.9494 0.3319 0.5610
C44 C 1.343(3) 0.3635(15) 0.9832(8)
H29 H 1.3958 0.3208 0.9947
C45 C -0.203(2) 0.0815(12) 0.7654(7)
H30 H -0.2841 0.1105 0.7798
C46 C 0.583(2) 0.2199(12) 0.6926(7)
H31 H 0.5477 0.1675 0.6628
C47 C 0.086(2) 0.0912(12) 0.7518(8)
C48 C 0.285(2) 0.1932(12) 0.7161(7)
H32 H 0.2084 0.2336 0.7200
H33 H 0.2541 0.1544 0.6772
C49 C 0.268(2) 0.1378(13) 0.7589(8)
H34 H 0.3382 0.0942 0.7531
H35 H 0.3080 0.1762 0.7978
C50 C -1.712(3) -0.4150(14) 0.7832(9)
H36 H -1.7868 -0.3983 0.8075
C51 C -1.138(2) -0.3174(12) 0.7822(7)
H37 H -1.1471 -0.3002 0.8225
H38 H -1.1261 -0.3789 0.7731
C52 C -1.301(3) -0.3112(14) 0.7449(9)
H39 H -1.3187 -0.2510 0.7562
H40 H -1.2883 -0.3233 0.7048
Cu2_2 Cu -1.9665(3) -0.57871(18) 0.75018(12)
N3_2 N 1.2572(19) 0.5046(12) 0.7534(8)
O9 O 0.5899(17) 0.1908(8) 0.8613(6)
H41 H 0.5945 0.1393 0.8626
C53 C 0.895(3) 0.2991(13) 0.9959(8)
H42 H 0.9870 0.3295 0.9829
C54 C 0.619(3) 0.2169(15) 1.0337(9)
H43 H 0.5243 0.1898 1.0471
C55 C 0.611(3) 0.2123(12) 0.9776(8)
H44 H 0.5086 0.1812 0.9519
C56 C 0.779(3) 0.2654(14) 1.0732(10)
H45 H 0.7913 0.2706 1.1127
C57 C 0.906(3) 0.3014(14) 1.0513(9)
H46 H 1.0103 0.3306 1.0762
C58 C 0.742(3) 0.2499(13) 0.9572(8)
C59 C 0.735(3) 0.2501(14) 0.8952(8)
H47 H 0.7354 0.3101 0.8908
H48 H 0.8369 0.2338 0.8828
O10 O 0.2371(18) 0.2436(9) 0.3685(6)
H49 H 0.3336 0.2670 0.3885
C60 C 0.106(3) 0.2019(14) 0.5000(9)
H50 H -0.0007 0.1619 0.4853
C61 C 0.358(3) 0.2967(14) 0.4879(9)
H51 H 0.4250 0.3223 0.4648
C62 C 0.409(3) 0.3145(16) 0.5438(10)
H52 H 0.5183 0.3527 0.5587
C63 C 0.325(3) 0.2847(15) 0.5821(11)
H53 H 0.3689 0.3039 0.6217
C64 C 0.193(3) 0.2362(13) 0.4640(8)
C65 C 0.123(3) 0.2104(14) 0.4033(8)
H54 H 0.0905 0.1453 0.3904
H55 H 0.0181 0.2318 0.3970
C66 C 0.172(3) 0.2242(15) 0.5594(10)
H56 H 0.1099 0.1974 0.5833
loop_
_geom_bond_atom_site_label_1
_geom_bond_atom_site_label_2
_geom_bond_site_symmetry_1
_geom_bond_site_symmetry_2
I1 C1 1_555 1_555
I2 C4 1_555 1_555
I3 C2 1_555 1_555
I4 C3 1_555 1_555
Cu1 O4 1_555 1_555
Cu2 O1 1_555 1_555
C1 C16 1_555 1_555
C2 C12 1_555 1_555
O1 C23 1_555 1_555
O2 Cu2 1_555 1_555
C3 C8 1_555 1_555
O3 Cu2 1_555 1_555
O4 C6 1_555 1_555
N1 Cu1 1_555 1_555
O5 Cu1 1_555 1_555
O6 Cu2 1_555 1_555
C4 C15 1_555 1_555
N2 Cu2 1_555 1_555
N3 C7 1_555 1_555
O7 Cu1 1_555 1_555
N4 Cu1 1_555 1_555
O8 Cu1 1_555 1_555
C5 H1 1_555 1_555
C6 O8 1_555 1_555
C7 H2 1_555 1_555
C8 H3 1_555 1_555
C9 N4 1_555 1_555
H4 C9 1_555 1_555
C10 N1 1_555 1_555
H5 C10 1_555 1_555
C11 O3 1_555 1_555
C12 H6 1_555 1_555
C13 C6 1_555 1_555
C14 H7 1_555 1_555
C15 H8 1_555 1_555
C16 H9 1_555 1_555
C17 C19 1_555 1_555
C18 H10 1_555 1_555
C19 O5 1_555 1_555
C20 H11 1_555 1_555
C21 C13 1_555 1_555
H12 C21 1_555 1_555
C22 C9 1_555 1_555
H13 C22 1_555 1_555
C23 O2 1_555 1_555
C24 C22 1_555 1_555
C25 C12 1_555 1_555
H14 C25 1_555 1_555
C26 N2 1_555 1_555
H15 C26 1_555 1_555
C27 C14 1_555 1_555
C28 N4 1_555 1_555
H16 C28 1_555 1_555
C29 C7 1_555 1_555
H17 C29 1_555 1_555
C30 C17 1_555 1_555
H18 C30 1_555 1_555
C31 H19 1_555 1_555
C32 C2 1_555 1_555
H20 C32 1_555 1_555
C33 C13 1_555 1_555
H21 C33 1_555 1_555
C34 C24 1_555 1_555
H22 C34 1_555 1_555
C35 N2 1_555 1_555
H23 C35 1_555 1_555
C36 C8 1_555 1_555
H24 C36 1_555 1_555
C37 C5 1_555 1_555
C38 C20 1_555 1_555
C39 C10 1_555 1_555
H25 C39 1_555 1_555
C40 C4 1_555 1_555
H26 C40 1_555 1_555
C41 C29 1_555 1_555
C42 C1 1_555 1_555
H27 C42 1_555 1_555
C43 C16 1_555 1_555
H28 C43 1_555 1_555
C44 C3 1_555 1_555
H29 C44 1_555 1_555
C45 N1 1_555 1_555
H30 C45 1_555 1_555
C46 C35 1_555 1_555
H31 C46 1_555 1_555
C47 C18 1_555 1_555
C48 C38 1_555 1_555
H32 C48 1_555 1_555
H33 C48 1_555 1_555
C49 C47 1_555 1_555
H34 C49 1_555 1_555
H35 C49 1_555 1_555
C50 N3 1_555 1_555
H36 C50 1_555 1_555
C51 C24 1_555 1_555
H37 C51 1_555 1_555
H38 C51 1_555 1_555
C52 C41 1_555 1_555
H39 C52 1_555 1_555
H40 C52 1_555 1_555
O9 H41 1_555 1_555
C53 H42 1_555 1_555
C54 H43 1_555 1_555
C55 C54 1_555 1_555
H44 C55 1_555 1_555
C56 C54 1_555 1_555
H45 C56 1_555 1_555
C57 C53 1_555 1_555
H46 C57 1_555 1_555
C58 C53 1_555 1_555
C59 O9 1_555 1_555
H47 C59 1_555 1_555
H48 C59 1_555 1_555
O10 H49 1_555 1_555
C60 H50 1_555 1_555
C61 H51 1_555 1_555
C62 C61 1_555 1_555
H52 C62 1_555 1_555
C63 C62 1_555 1_555
H53 C63 1_555 1_555
C64 C60 1_555 1_555
C65 O10 1_555 1_555
H54 C65 1_555 1_555
H55 C65 1_555 1_555
C66 C60 1_555 1_555
H56 C66 1_555 1_555
Cu2_2 N3 1_555 1_555
N3_2 Cu2 1_555 1_555
O6 C11 1_555 1_555
O7 C19 1_555 1_555
C5 C44 1_555 1_555
C11 C37 1_555 1_555
C14 C42 1_555 1_555
C15 C21 1_555 1_555
C17 C25 1_555 1_555
C18 C45 1_555 1_555
C20 C26 1_555 1_555
C23 C27 1_555 1_555
C27 C43 1_555 1_555
C28 C34 1_555 1_555
C30 C32 1_555 1_555
C31 C41 1_555 1_555
C31 C50 1_555 1_555
C33 C40 1_555 1_555
C36 C37 1_555 1_555
C38 C46 1_555 1_555
C39 C47 1_555 1_555
C48 C49 1_555 1_555
C51 C52 1_555 1_555
C55 C58 1_555 1_555
C56 C57 1_555 1_555
C58 C59 1_555 1_555
C61 C64 1_555 1_555
C63 C66 1_555 1_555
C64 C65 1_555 1_555

#END
