
#######################################################################
#
#                 Cambridge Crystallographic Data Centre
#                                CCDC 
#
#######################################################################
#
# If this CIF has been generated from an entry in the Cambridge 
# Structural Database, then it will include bibliographic, chemical, 
# crystal, experimental, refinement or atomic coordinate data resulting 
# from the CCDC's data processing and validation procedures.
#
#######################################################################

data_RESWUI02
_symmetry_cell_setting           triclinic
_symmetry_space_group_name_H-M   'P -1'
_symmetry_Int_Tables_number      2
_space_group_name_Hall           '-P 1'
loop_
_symmetry_equiv_pos_site_id
_symmetry_equiv_pos_as_xyz
1 x,y,z
2 -x,-y,-z
_cell_length_a                   8.5139(6)
_cell_length_b                   10.2165(7)
_cell_length_c                   11.0721(8)
_cell_angle_alpha                64.2080(10)
_cell_angle_beta                 71.5630(10)
_cell_angle_gamma                80.7520(10)
_cell_volume                     822.325
loop_
_atom_site_label
_atom_site_type_symbol
_atom_site_fract_x
_atom_site_fract_y
_atom_site_fract_z
Er1 Er 0.133484(19) -0.063774(17) 0.162310(16)
C1 C -0.0560(4) 0.2536(4) -0.0427(4)
C2 C -0.0277(5) 0.3808(4) -0.0194(4)
C3 C 0.0036(5) 0.5157(4) -0.1312(4)
H1 H 0.0058 0.5264 -0.2196
C4 C -0.0314(5) 0.3658(4) 0.1124(4)
H2 H -0.0526 0.2759 0.1879
C5 C -0.1737(5) -0.0466(4) 0.3387(4)
C6 C -0.3427(5) -0.0212(4) 0.4222(4)
C7 C -0.4781(5) -0.0889(5) 0.4310(4)
H3 H -0.4628 -0.1484 0.3840
C8 C -0.3663(5) 0.0687(5) 0.4915(4)
H4 H -0.2768 0.1150 0.4854
C9 C 0.3227(5) -0.2724(4) 0.3213(4)
C10 C 0.4152(5) -0.3918(4) 0.4127(4)
C11 C 0.3353(5) -0.4718(5) 0.5499(5)
H5 H 0.2233 -0.4530 0.5840
C12 C 0.5826(5) -0.4204(5) 0.3616(4)
H6 H 0.6386 -0.3676 0.2688
C13 C 0.2577(6) 0.1707(5) 0.2440(5)
H7 H 0.1619 0.1556 0.3177
C14 C 0.3190(9) 0.3581(6) 0.2981(7)
H8 H 0.3081 0.4585 0.2374
H9 H 0.4063 0.3467 0.3399
H10 H 0.2168 0.3272 0.3700
C15 C 0.5133(8) 0.2906(7) 0.1098(8)
H11 H 0.5737 0.1995 0.1267
H12 H 0.5775 0.3593 0.1103
H13 H 0.4916 0.3268 0.0206
N1 N 0.3585(5) 0.2698(4) 0.2176(5)
O1 O -0.0158(4) 0.1273(3) 0.0330(3)
O2 O 0.3148(3) 0.0304(3) -0.0645(3)
H14 H 0.3639 0.1023 -0.0749
H15 H 0.2602 0.0584 -0.1243
O3 O -0.1216(4) 0.2766(3) -0.1365(3)
O4 O -0.0514(3) 0.0107(3) 0.3365(3)
O5 O -0.1549(3) -0.1226(3) 0.2699(3)
O6 O 0.1734(3) -0.2461(3) 0.3730(3)
O7 O 0.3950(3) -0.1965(3) 0.1940(3)
O8 O 0.2821(4) 0.0959(3) 0.1770(3)
C1A C 0.0560(4) 0.7464(4) 0.0427(4)
C2A C 0.0277(5) 0.6192(4) 0.0194(4)
C3A C -0.0036(5) 0.4843(4) 0.1312(4)
H1A H -0.0058 0.4736 0.2196
C4A C 0.0314(5) 0.6342(4) -0.1124(4)
H2A H 0.0526 0.7241 -0.1879
O1A O 0.0158(4) 0.8727(3) -0.0330(3)
O3A O 0.1216(4) 0.7234(3) 0.1365(3)
C5A C -0.8263(5) 0.0466(4) 0.6613(4)
C6A C -0.6573(5) 0.0212(4) 0.5778(4)
C7A C -0.5219(5) 0.0889(5) 0.5690(4)
H3A H -0.5372 0.1484 0.6160
C8A C -0.6337(5) -0.0687(5) 0.5085(4)
H4A H -0.7232 -0.1150 0.5146
O4A O -0.9486(3) -0.0107(3) 0.6635(3)
O5A O -0.8451(3) 0.1226(3) 0.7301(3)
C9A C 0.6773(5) -0.7276(4) 0.6787(4)
C10A C 0.5848(5) -0.6082(4) 0.5873(4)
C11A C 0.6647(5) -0.5282(5) 0.4501(5)
H5A H 0.7767 -0.5470 0.4160
C12A C 0.4174(5) -0.5796(5) 0.6384(4)
H6A H 0.3614 -0.6324 0.7312
O6A O 0.8266(3) -0.7539(3) 0.6270(3)
O7A O 0.6050(3) -0.8035(3) 0.8060(3)
Er1A Er -1.133484(19) 0.063774(17) 0.837690(16)
C13A C -1.2577(6) -0.1707(5) 0.7560(5)
H7A H -1.1619 -0.1556 0.6823
C14A C -1.3190(9) -0.3581(6) 0.7019(7)
H8A H -1.3081 -0.4585 0.7626
H9A H -1.4063 -0.3467 0.6601
H10A H -1.2168 -0.3272 0.6300
C15A C -1.5133(8) -0.2906(7) 0.8902(8)
H11A H -1.5737 -0.1995 0.8733
H12A H -1.5775 -0.3593 0.8897
H13A H -1.4916 -0.3268 0.9794
N1A N -1.3585(5) -0.2698(4) 0.7824(5)
O2A O -1.3148(3) -0.0304(3) 1.0645(3)
H14A H -1.3639 -0.1023 1.0749
H15A H -1.2602 -0.0584 1.1243
O8A O -1.2821(4) -0.0959(3) 0.8230(3)
Er1_2 Er 0.133484(19) 0.936226(17) 0.162310(16)
Er1A_2 Er -0.133484(19) 0.063774(17) -0.162310(16)
Er1A_3 Er -0.133484(19) 1.063774(17) -0.162310(16)
Er1A_4 Er 0.866516(19) -0.936226(17) 0.837690(16)
O1A_2 O -0.9842(4) -0.1273(3) 0.9670(3)
O3_2 O -1.1216(4) 0.2766(3) 0.8635(3)
O3A_2 O 0.1216(4) -0.2766(3) 0.1365(3)
O6A_2 O -1.1734(3) 0.2461(3) 0.6270(3)
O7A_2 O -1.3950(3) 0.1965(3) 0.8060(3)
loop_
_geom_bond_atom_site_label_1
_geom_bond_atom_site_label_2
_geom_bond_site_symmetry_1
_geom_bond_site_symmetry_2
Er1 O1 1_555 1_555
C1 C2 1_555 1_555
C2 C3 1_555 1_555
C3 H1 1_555 1_555
C4 C2 1_555 1_555
H2 C4 1_555 1_555
C5 C6 1_555 1_555
C6 C7 1_555 1_555
C7 H3 1_555 1_555
C8 C6 1_555 1_555
H4 C8 1_555 1_555
C9 C10 1_555 1_555
C10 C11 1_555 1_555
C11 H5 1_555 1_555
C12 C10 1_555 1_555
H6 C12 1_555 1_555
C13 H7 1_555 1_555
C14 H8 1_555 1_555
H9 C14 1_555 1_555
H10 C14 1_555 1_555
C15 H11 1_555 1_555
H12 C15 1_555 1_555
H13 C15 1_555 1_555
N1 C13 1_555 1_555
O1 C1 1_555 1_555
O2 Er1 1_555 1_555
H14 O2 1_555 1_555
H15 O2 1_555 1_555
O3 C1 1_555 1_555
O4 Er1 1_555 1_555
O5 Er1 1_555 1_555
O6 Er1 1_555 1_555
O7 Er1 1_555 1_555
O8 Er1 1_555 1_555
C1A C2A 1_555 1_555
C2A C3A 1_555 1_555
C3A C4 1_555 1_555
H1A C3A 1_555 1_555
C4A C3 1_555 1_555
H2A C4A 1_555 1_555
O1A C1A 1_555 1_555
O3A C1A 1_555 1_555
C5A C6A 1_555 1_555
C6A C7A 1_555 1_555
C7A C8 1_555 1_555
H3A C7A 1_555 1_555
C8A C7 1_555 1_555
H4A C8A 1_555 1_555
O4A C5A 1_555 1_555
O5A C5A 1_555 1_555
C9A C10A 1_555 1_555
C10A C11A 1_555 1_555
C11A C12 1_555 1_555
H5A C11A 1_555 1_555
C12A C11 1_555 1_555
H6A C12A 1_555 1_555
O6A C9A 1_555 1_555
O7A C9A 1_555 1_555
Er1A O4A 1_555 1_555
C13A H7A 1_555 1_555
C14A H8A 1_555 1_555
H9A C14A 1_555 1_555
H10A C14A 1_555 1_555
C15A H11A 1_555 1_555
H12A C15A 1_555 1_555
H13A C15A 1_555 1_555
N1A C13A 1_555 1_555
O2A Er1A 1_555 1_555
H14A O2A 1_555 1_555
H15A O2A 1_555 1_555
O8A Er1A 1_555 1_555
Er1_2 O3A 1_555 1_555
Er1A_2 O3 1_555 1_555
Er1A_3 O1A 1_555 1_555
Er1A_4 O6A 1_555 1_555
O1A_2 Er1A 1_555 1_555
O3_2 Er1A 1_555 1_555
O3A_2 Er1 1_555 1_555
O6A_2 Er1A 1_555 1_555
O7A_2 Er1A 1_555 1_555
C5 O4 1_555 1_555
C5 O5 1_555 1_555
C9 O6 1_555 1_555
C9 O7 1_555 1_555
C13 O8 1_555 1_555
C14 N1 1_555 1_555
C15 N1 1_555 1_555
C2A C4A 1_555 1_555
C6A C8A 1_555 1_555
O5A Er1A 1_555 1_555
C10A C12A 1_555 1_555
O7A Er1A_4 1_555 1_555
C13A O8A 1_555 1_555
C14A N1A 1_555 1_555
C15A N1A 1_555 1_555

#END
