
#######################################################################
#
#                 Cambridge Crystallographic Data Centre
#                                CCDC 
#
#######################################################################
#
# If this CIF has been generated from an entry in the Cambridge 
# Structural Database, then it will include bibliographic, chemical, 
# crystal, experimental, refinement or atomic coordinate data resulting 
# from the CCDC's data processing and validation procedures.
#
#######################################################################

data_RESWUI
_symmetry_cell_setting           triclinic
_symmetry_space_group_name_H-M   'P -1'
_symmetry_Int_Tables_number      2
_space_group_name_Hall           '-P 1'
loop_
_symmetry_equiv_pos_site_id
_symmetry_equiv_pos_as_xyz
1 x,y,z
2 -x,-y,-z
_cell_length_a                   8.5247(3)
_cell_length_b                   10.2004(3)
_cell_length_c                   10.8898(4)
_cell_angle_alpha                63.722(2)
_cell_angle_beta                 71.281(2)
_cell_angle_gamma                81.148(2)
_cell_volume                     804.078
loop_
_atom_site_label
_atom_site_type_symbol
_atom_site_fract_x
_atom_site_fract_y
_atom_site_fract_z
Er1 Er -1.133624(6) 1.063737(5) 0.339630(5)
O1 O -0.94909(11) 0.99064(11) 0.16228(10)
O2 O -0.84675(11) 1.12732(10) 0.22681(10)
O3 O -1.17228(12) 1.24608(11) 0.12327(11)
O4 O -1.39372(12) 1.19312(10) 0.30907(10)
O5 O -0.98345(13) 0.87284(11) 0.47131(11)
O6 O -0.87473(14) 0.71820(12) 0.64001(12)
O7 O -1.28202(13) 0.90369(11) 0.32505(12)
O8 O -1.31485(13) 0.96712(12) 0.56924(11)
H1 H -1.404(3) 0.928(2) 0.597(2)
H2 H -1.282(3) 0.946(3) 0.627(2)
N1 N -1.35887(18) 0.73097(14) 0.28129(16)
C1 C -0.82742(15) 1.04854(13) 0.15915(13)
C2 C -0.65771(15) 1.02262(14) 0.07700(13)
C3 C -0.63460(16) 0.92804(15) 0.01181(15)
H3 H -0.721(3) 0.886(2) 0.016(2)
C4 C -0.52389(16) 1.09337(16) 0.06588(15)
H4 H -0.538(3) 1.158(3) 0.101(2)
C5 C -1.32183(16) 1.27020(14) 0.17857(14)
C6 C -1.41483(16) 1.39068(14) 0.08805(14)
C7 C -1.33444(18) 1.47229(16) -0.05568(15)
H5 H -1.213(3) 1.455(2) -0.090(2)
C8 C -1.58053(17) 1.41921(16) 0.14319(15)
H6 H -1.626(3) 1.370(2) 0.239(2)
C9 C -0.94274(16) 0.74469(14) 0.54485(14)
C10 C -0.97128(17) 0.61846(14) 0.52043(15)
C11 C -0.99635(19) 0.47982(15) 0.63385(16)
H7 H -0.985(2) 0.4642(19) 0.7307(19)
C12 C -0.97397(19) 0.63824(16) 0.38638(16)
H8 H -0.949(2) 0.7366(19) 0.3036(18)
C13 C -1.25627(19) 0.83044(16) 0.25520(17)
H9 H -1.158(3) 0.838(2) 0.177(2)
C14 C -1.3199(3) 0.6413(2) 0.2021(2)
H10 H -1.219(3) 0.670(2) 0.133(2)
H11 H -1.304(3) 0.537(3) 0.269(2)
H12 H -1.397(3) 0.652(2) 0.162(2)
C15 C -1.5148(2) 0.7087(2) 0.3925(3)
H13 H -1.4933 0.6825 0.4839
H14 H -1.5750 0.6296 0.4002
H15 H -1.5816 0.7989 0.3687
Er1A Er 0.133624(6) 0.936263(5) -0.339630(5)
Er1A_2 Er -0.866376(6) 0.936263(5) 0.660370(5)
Er1A_3 Er -1.866376(6) 1.936263(5) -0.339630(5)
Er1_2 Er -1.133624(6) 0.063737(5) 0.339630(5)
Er1A_4 Er -0.866376(6) -0.063737(5) 0.660370(5)
O1A O -0.05091(11) 1.00936(11) -0.16228(10)
O2A O -0.15325(11) 0.87268(10) -0.22681(10)
O3A O -1.82772(12) 1.75392(11) -0.12327(11)
O3A_2 O 0.17228(12) 0.75392(11) -0.12327(11)
O4A O -1.60628(12) 1.80688(10) -0.30907(10)
O4A_2 O 0.39372(12) 0.80688(10) -0.30907(10)
O5A O -1.01655(13) 0.12716(11) 0.52869(11)
O5A_2 O -1.01655(13) 1.12716(11) 0.52869(11)
O5_2 O 0.01655(13) 0.87284(11) -0.52869(11)
O5A_3 O -0.01655(13) 1.12716(11) -0.47131(11)
O6A O -1.12527(14) 0.28180(12) 0.35999(12)
O6A_2 O -1.12527(14) 1.28180(12) 0.35999(12)
O6_2 O 0.12527(14) 0.71820(12) -0.35999(12)
O7A O 0.28202(13) 1.09631(11) -0.32505(12)
O8A O 0.31485(13) 1.03288(12) -0.56924(11)
H1A H 0.404(3) 1.072(2) -0.597(2)
H2A H 0.282(3) 1.054(3) -0.627(2)
N1A N 0.35887(18) 1.26903(14) -0.28129(16)
C1A C -0.17258(15) 0.95146(13) -0.15915(13)
C2A C -0.34229(15) 0.97738(14) -0.07700(13)
C3A C -0.36540(16) 1.07196(15) -0.01181(15)
H3A H -0.279(3) 1.114(2) -0.016(2)
C4A C -0.47611(16) 0.90663(16) -0.06588(15)
H4A H -0.462(3) 0.842(3) -0.101(2)
C5A C -1.67817(16) 1.72980(14) -0.17857(14)
C6A C -1.58517(16) 1.60932(14) -0.08805(14)
C7A C -1.66556(18) 1.52771(16) 0.05568(15)
H5A H -1.787(3) 1.545(2) 0.090(2)
C8A C -1.41947(17) 1.58079(16) -0.14319(15)
H6A H -1.374(3) 1.630(2) -0.239(2)
C9A C -1.05726(16) 0.25531(14) 0.45515(14)
C10A C -1.02872(17) 0.38154(14) 0.47957(15)
C11A C -1.00365(19) 0.52018(15) 0.36615(16)
H7A H -1.015(2) 0.5358(19) 0.2693(19)
C12A C -1.02603(19) 0.36176(16) 0.61362(16)
H8A H -1.051(2) 0.2634(19) 0.6964(18)
C13A C 0.25627(19) 1.16956(16) -0.25520(17)
H9A H 0.158(3) 1.162(2) -0.177(2)
C14A C 0.3199(3) 1.3587(2) -0.2021(2)
H10A H 0.219(3) 1.330(2) -0.133(2)
H11A H 0.304(3) 1.463(3) -0.269(2)
H12A H 0.397(3) 1.348(2) -0.162(2)
C15A C 0.5148(2) 1.2913(2) -0.3925(3)
H13A H 0.4933 1.3175 -0.4839
H14A H 0.5750 1.3704 -0.4002
H15A H 0.5816 1.2011 -0.3687
loop_
_geom_bond_atom_site_label_1
_geom_bond_atom_site_label_2
_geom_bond_site_symmetry_1
_geom_bond_site_symmetry_2
Er1 O1 1_555 1_555
O1 C1 1_555 1_555
O2 Er1 1_555 1_555
O3 Er1 1_555 1_555
O4 Er1 1_555 1_555
O5 Er1 1_555 1_555
O6 C9 1_555 1_555
O7 Er1 1_555 1_555
O8 Er1 1_555 1_555
H1 O8 1_555 1_555
H2 O8 1_555 1_555
N1 C13 1_555 1_555
C1 O2 1_555 1_555
C2 C1 1_555 1_555
C3 C2 1_555 1_555
H3 C3 1_555 1_555
C4 C2 1_555 1_555
H4 C4 1_555 1_555
C5 O3 1_555 1_555
C6 C5 1_555 1_555
C7 C6 1_555 1_555
H5 C7 1_555 1_555
C8 C6 1_555 1_555
H6 C8 1_555 1_555
C9 O5 1_555 1_555
C10 C9 1_555 1_555
C11 C10 1_555 1_555
H7 C11 1_555 1_555
C12 C10 1_555 1_555
H8 C12 1_555 1_555
C13 O7 1_555 1_555
H9 C13 1_555 1_555
C14 N1 1_555 1_555
H10 C14 1_555 1_555
H11 C14 1_555 1_555
H12 C14 1_555 1_555
C15 N1 1_555 1_555
H13 C15 1_555 1_555
H14 C15 1_555 1_555
H15 C15 1_555 1_555
Er1A O1A 1_555 1_555
Er1A_2 O5 1_555 1_555
Er1A_3 O3A 1_555 1_555
Er1_2 O5A 1_555 1_555
Er1A_4 O5A 1_555 1_555
O1A C1A 1_555 1_555
O2A Er1A 1_555 1_555
O3A C5A 1_555 1_555
O3A_2 Er1A 1_555 1_555
O4A Er1A_3 1_555 1_555
O4A_2 Er1A 1_555 1_555
O5A C9A 1_555 1_555
O5A_2 Er1 1_555 1_555
O5_2 Er1A 1_555 1_555
O5A_3 Er1A 1_555 1_555
O6A Er1_2 1_555 1_555
O6A_2 Er1 1_555 1_555
O6_2 Er1A 1_555 1_555
O7A Er1A 1_555 1_555
O8A Er1A 1_555 1_555
H1A O8A 1_555 1_555
H2A O8A 1_555 1_555
N1A C13A 1_555 1_555
C1A O2A 1_555 1_555
C2A C1A 1_555 1_555
C3A C4 1_555 1_555
H3A C3A 1_555 1_555
C4A C3 1_555 1_555
H4A C4A 1_555 1_555
C5A O4A 1_555 1_555
C6A C5A 1_555 1_555
C7A C8 1_555 1_555
H5A C7A 1_555 1_555
C8A C7 1_555 1_555
H6A C8A 1_555 1_555
C9A O6A 1_555 1_555
C10A C9A 1_555 1_555
C11A C12 1_555 1_555
H7A C11A 1_555 1_555
C12A C11 1_555 1_555
H8A C12A 1_555 1_555
C13A O7A 1_555 1_555
H9A C13A 1_555 1_555
C14A N1A 1_555 1_555
H10A C14A 1_555 1_555
H11A C14A 1_555 1_555
H12A C14A 1_555 1_555
C15A N1A 1_555 1_555
H13A C15A 1_555 1_555
H14A C15A 1_555 1_555
H15A C15A 1_555 1_555
O4 C5 1_555 1_555
O6 Er1A_2 1_555 1_555
Er1A_2 O5A_2 1_555 1_555
C2A C3A 1_555 1_555
C2A C4A 1_555 1_555
C6A C7A 1_555 1_555
C6A C8A 1_555 1_555
C10A C11A 1_555 1_555
C10A C12A 1_555 1_555

#END
