
#######################################################################
#
#                 Cambridge Crystallographic Data Centre
#                                CCDC 
#
#######################################################################
#
# If this CIF has been generated from an entry in the Cambridge 
# Structural Database, then it will include bibliographic, chemical, 
# crystal, experimental, refinement or atomic coordinate data resulting 
# from the CCDC's data processing and validation procedures.
#
#######################################################################

data_RESYOF
_symmetry_cell_setting           orthorhombic
_symmetry_space_group_name_H-M   'F d d d'
_symmetry_Int_Tables_number      70
_space_group_name_Hall           '-F 2uv 2vw'
loop_
_symmetry_equiv_pos_site_id
_symmetry_equiv_pos_as_xyz
1 x,y,z
2 3/4-x,3/4-y,z
3 3/4-x,y,3/4-z
4 x,3/4-y,3/4-z
5 x,1/2+y,1/2+z
6 3/4-x,1/4-y,1/2+z
7 3/4-x,1/2+y,1/4-z
8 x,1/4-y,1/4-z
9 1/2+x,y,1/2+z
10 1/4-x,3/4-y,1/2+z
11 1/4-x,y,1/4-z
12 1/2+x,3/4-y,1/4-z
13 1/2+x,1/2+y,z
14 1/4-x,1/4-y,z
15 1/4-x,1/2+y,3/4-z
16 1/2+x,1/4-y,3/4-z
17 -x,-y,-z
18 1/4+x,1/4+y,-z
19 1/4+x,-y,1/4+z
20 -x,1/4+y,1/4+z
21 -x,1/2-y,1/2-z
22 1/4+x,3/4+y,1/2-z
23 1/4+x,1/2-y,3/4+z
24 -x,3/4+y,3/4+z
25 1/2-x,-y,1/2-z
26 3/4+x,1/4+y,1/2-z
27 3/4+x,-y,3/4+z
28 1/2-x,1/4+y,3/4+z
29 1/2-x,1/2-y,-z
30 3/4+x,3/4+y,-z
31 3/4+x,1/2-y,1/4+z
32 1/2-x,3/4+y,1/4+z
_cell_length_a                   17.083(12)
_cell_length_b                   22.908(16)
_cell_length_c                   23.481(15)
_cell_angle_alpha                90
_cell_angle_beta                 90
_cell_angle_gamma                90
_cell_volume                     9188.99
loop_
_atom_site_label
_atom_site_type_symbol
_atom_site_fract_x
_atom_site_fract_y
_atom_site_fract_z
Zn1 Zn 0.6250 -0.05282(3) 0.6250
N1 N 0.5136(3) -0.0532(2) 0.6646(2)
C1 C 0.4541(4) -0.0410(3) 0.6802(2)
C2 C 0.5118(4) -0.1399(2) 0.5529(3)
H1 H 0.4819 -0.1400 0.5880
H2 H 0.5083 -0.1787 0.5363
C3 C 0.4760(3) -0.09662(19) 0.51235(19)
C4 C 0.4230(3) -0.0547(2) 0.52953(19)
H3 H 0.4074 -0.0525 0.5674
C5 C 0.4959(3) -0.0979(2) 0.4548(2)
H4 H 0.5304 -0.1262 0.4412
C6 C 0.3932(2) -0.0159(2) 0.48956(19)
H5 H 0.3574 0.0120 0.5018
C7 C 0.4645(3) -0.0574(2) 0.4180(2)
H6 H 0.4796 -0.0585 0.3799
C8 C 0.6338(4) -0.1778(3) 0.5936(3)
H7 H 0.6899 -0.1753 0.5877
H8 H 0.6154 -0.2138 0.5766
N2 N 0.5944(3) -0.12716(16) 0.5661(2)
H9 H 0.6193 -0.1205 0.5325
N3 N 0.4131(2) -0.01645(15) 0.43469(14)
S1 S 0.36569(17) -0.0226(2) 0.70152(16)
C2J C 0.7382(4) -0.1399(2) 0.6971(3)
H1J H 0.7681 -0.1400 0.6620
H2J H 0.7417 -0.1787 0.7137
C3J C 0.7740(3) -0.09662(19) 0.73765(19)
C4J C 0.8270(3) -0.0547(2) 0.72047(19)
H3J H 0.8426 -0.0525 0.6826
C5J C 0.7541(3) -0.0979(2) 0.7952(2)
H4J H 0.7196 -0.1262 0.8088
C6J C 0.8568(2) -0.0159(2) 0.76044(19)
H5J H 0.8926 0.0120 0.7482
C7J C 0.7855(3) -0.0574(2) 0.8320(2)
H6J H 0.7704 -0.0585 0.8701
C8J C 0.6162(4) -0.1778(3) 0.6564(3)
H7J H 0.5601 -0.1753 0.6623
H8J H 0.6346 -0.2138 0.6734
N2J N 0.6556(3) -0.12716(16) 0.6839(2)
H9J H 0.6307 -0.1205 0.7175
N3J N 0.8369(2) -0.01645(15) 0.81531(14)
N1J N 0.7364(3) -0.0532(2) 0.5854(2)
C1J C 0.7959(4) -0.0410(3) 0.5698(2)
S1J S 0.88431(17) -0.0226(2) 0.54848(16)
Zn1P Zn 0.3750 0.05282(3) 0.3750
Zn1R Zn 0.8750 0.05282(3) 0.8750
N3P N 0.5869(2) 0.01645(15) 0.56531(14)
N3R N 0.6631(2) 0.01645(15) 0.68469(14)
O1 O 0.7197(14) -0.1143(9) 0.4287(10)
loop_
_geom_bond_atom_site_label_1
_geom_bond_atom_site_label_2
_geom_bond_site_symmetry_1
_geom_bond_site_symmetry_2
Zn1 N1 1_555 1_555
N1 C1 1_555 1_555
C1 S1 1_555 1_555
C2 H1 1_555 1_555
H2 C2 1_555 1_555
C3 C2 1_555 1_555
C4 C3 1_555 1_555
H3 C4 1_555 1_555
C5 C3 1_555 1_555
H4 C5 1_555 1_555
C6 C4 1_555 1_555
H5 C6 1_555 1_555
C7 C5 1_555 1_555
H6 C7 1_555 1_555
C8 H7 1_555 1_555
H8 C8 1_555 1_555
N2 Zn1 1_555 1_555
H9 N2 1_555 1_555
N3 C6 1_555 1_555
C2J H1J 1_555 1_555
H2J C2J 1_555 1_555
C3J C2J 1_555 1_555
C4J C3J 1_555 1_555
H3J C4J 1_555 1_555
C5J C3J 1_555 1_555
H4J C5J 1_555 1_555
C6J C4J 1_555 1_555
H5J C6J 1_555 1_555
C7J C5J 1_555 1_555
H6J C7J 1_555 1_555
C8J C8 1_555 1_555
H7J C8J 1_555 1_555
H8J C8J 1_555 1_555
N2J Zn1 1_555 1_555
H9J N2J 1_555 1_555
N3J C6J 1_555 1_555
N1J Zn1 1_555 1_555
C1J N1J 1_555 1_555
S1J C1J 1_555 1_555
Zn1P N3 1_555 1_555
Zn1R N3J 1_555 1_555
N3P Zn1 1_555 1_555
N3R Zn1 1_555 1_555
C2 N2 1_555 1_555
C7 N3 1_555 1_555
C8 N2 1_555 1_555
C2J N2J 1_555 1_555
C7J N3J 1_555 1_555
C8J N2J 1_555 1_555

#END
