
#######################################################################
#
#                 Cambridge Crystallographic Data Centre
#                                CCDC 
#
#######################################################################
#
# If this CIF has been generated from an entry in the Cambridge 
# Structural Database, then it will include bibliographic, chemical, 
# crystal, experimental, refinement or atomic coordinate data resulting 
# from the CCDC's data processing and validation procedures.
#
#######################################################################

data_RESYIZ
_symmetry_cell_setting           orthorhombic
_symmetry_space_group_name_H-M   'F d d 2'
_symmetry_Int_Tables_number      43
_space_group_name_Hall           'F 2 -2d'
loop_
_symmetry_equiv_pos_site_id
_symmetry_equiv_pos_as_xyz
1 x,y,z
2 -x,-y,z
3 1/4+x,1/4-y,1/4+z
4 1/4-x,1/4+y,1/4+z
5 x,1/2+y,1/2+z
6 -x,1/2-y,1/2+z
7 1/4+x,3/4-y,3/4+z
8 1/4-x,3/4+y,3/4+z
9 1/2+x,y,1/2+z
10 1/2-x,-y,1/2+z
11 3/4+x,1/4-y,3/4+z
12 3/4-x,1/4+y,3/4+z
13 1/2+x,1/2+y,z
14 1/2-x,1/2-y,z
15 3/4+x,3/4-y,1/4+z
16 3/4-x,3/4+y,1/4+z
_cell_length_a                   14.429(4)
_cell_length_b                   19.030(5)
_cell_length_c                   24.580(7)
_cell_angle_alpha                90
_cell_angle_beta                 90
_cell_angle_gamma                90
_cell_volume                     6749.27
loop_
_atom_site_label
_atom_site_type_symbol
_atom_site_fract_x
_atom_site_fract_y
_atom_site_fract_z
Zn1 Zn 0.5000 0.0000 0.480286(17)
Zn2 Zn 0.0000 0.0000 0.584428(18)
Cl1 Cl -0.03438(5) 0.13143(4) 0.59227(4)
Cl2 Cl 0.54752(5) 0.12808(4) 0.47641(4)
C1 C 0.4588(2) 0.02501(17) 0.36099(15)
H1 H 0.4807 0.0732 0.3619
H2 H 0.4230 0.0186 0.3280
C2 C 0.23832(19) -0.02384(16) 0.47283(12)
H3 H 0.2839 -0.0577 0.4674
C3 C 0.3184(2) 0.05737(18) 0.40669(15)
H4 H 0.2952 0.0578 0.3697
H5 H 0.3380 0.1048 0.4154
C4 C 0.1735(2) 0.06853(18) 0.65346(15)
H6 H 0.1976 0.0726 0.6902
H7 H 0.1462 0.1134 0.6438
C5 C 0.2403(2) 0.03777(17) 0.44394(15)
C6 C 0.16800(19) -0.03557(15) 0.51026(13)
H8 H 0.1680 -0.0774 0.5298
C7 C 0.0987(2) 0.06847(16) 0.48813(14)
H9 H 0.0497 0.0998 0.4920
C8 C 0.1663(2) 0.08334(17) 0.45074(13)
H10 H 0.1625 0.1240 0.4299
C9 C 0.0397(2) 0.02539(18) 0.70108(16)
H11 H 0.0160 0.0731 0.7007
H12 H 0.0758 0.0193 0.7340
C10 C 0.25319(18) 0.05385(18) 0.61524(15)
C11 C 0.3048(2) -0.00787(16) 0.61789(13)
H13 H 0.2904 -0.0419 0.6437
C12 C 0.37724(19) -0.01860(16) 0.58208(13)
H14 H 0.4110 -0.0601 0.5848
C13 C 0.2804(2) 0.10326(16) 0.57684(13)
H15 H 0.2493 0.1460 0.5742
C14 C 0.35381(19) 0.08856(15) 0.54254(13)
H16 H 0.3714 0.1225 0.5173
N1 N 0.39979(19) 0.01129(14) 0.40883(11)
H17 H 0.3770 -0.0327 0.4034
N2 N 0.09975(19) 0.01416(14) 0.65299(11)
H18 H 0.1284 -0.0280 0.6579
N3 N 0.10011(17) 0.01101(14) 0.51926(11)
N4 N 0.40105(17) 0.02792(14) 0.54376(11)
C1A C 0.5412(2) -0.02501(17) 0.36099(15)
H1A H 0.5193 -0.0732 0.3619
H2A H 0.5770 -0.0186 0.3280
C2A C 0.76168(19) 0.02384(16) 0.47283(12)
H3A H 0.7161 0.0577 0.4674
C3A C 0.6816(2) -0.05737(18) 0.40669(15)
H4A H 0.7048 -0.0578 0.3697
H5A H 0.6620 -0.1048 0.4154
C5A C 0.7597(2) -0.03777(17) 0.44394(15)
C6A C 0.83200(19) 0.03557(15) 0.51026(13)
H8A H 0.8320 0.0774 0.5298
C7A C 0.9013(2) -0.06847(16) 0.48813(14)
H9A H 0.9503 -0.0998 0.4920
C8A C 0.8337(2) -0.08334(17) 0.45074(13)
H10A H 0.8375 -0.1240 0.4299
N1A N 0.60021(19) -0.01129(14) 0.40883(11)
H17A H 0.6230 0.0327 0.4034
N3A N 0.89989(17) -0.01101(14) 0.51926(11)
C4A C -0.1735(2) -0.06853(18) 0.65346(15)
H6A H -0.1976 -0.0726 0.6902
H7A H -0.1462 -0.1134 0.6438
C9A C -0.0397(2) -0.02539(18) 0.70108(16)
H11A H -0.0160 -0.0731 0.7007
H12A H -0.0758 -0.0193 0.7340
C10A C -0.25319(18) -0.05385(18) 0.61524(15)
C11A C -0.3048(2) 0.00787(16) 0.61789(13)
H13A H -0.2904 0.0419 0.6437
C12A C -0.37724(19) 0.01860(16) 0.58208(13)
H14A H -0.4110 0.0601 0.5848
C13A C -0.2804(2) -0.10326(16) 0.57684(13)
H15A H -0.2493 -0.1460 0.5742
C14A C -0.35381(19) -0.08856(15) 0.54254(13)
H16A H -0.3714 -0.1225 0.5173
N2A N -0.09975(19) -0.01416(14) 0.65299(11)
H18A H -0.1284 0.0280 0.6579
N4A N -0.40105(17) -0.02792(14) 0.54376(11)
Cl1A Cl 0.03438(5) -0.13143(4) 0.59227(4)
Cl2A Cl 0.45248(5) -0.12808(4) 0.47641(4)
Zn1_2 Zn -0.5000 0.0000 0.480286(17)
Zn2_2 Zn 1.0000 0.0000 0.584428(18)
N3A_2 N -0.10011(17) -0.01101(14) 0.51926(11)
N4A_2 N 0.59895(17) -0.02792(14) 0.54376(11)
O1 O 0.0785(2) 0.24243(17) 0.5208(2)
O2 O 0.2500 0.2500 0.4609(3)
loop_
_geom_bond_atom_site_label_1
_geom_bond_atom_site_label_2
_geom_bond_site_symmetry_1
_geom_bond_site_symmetry_2
Zn1 Cl2 1_555 1_555
Zn2 Cl1 1_555 1_555
C1 H1 1_555 1_555
H2 C1 1_555 1_555
C2 H3 1_555 1_555
C3 H4 1_555 1_555
H5 C3 1_555 1_555
C4 H6 1_555 1_555
H7 C4 1_555 1_555
C5 C2 1_555 1_555
C6 C2 1_555 1_555
H8 C6 1_555 1_555
C7 H9 1_555 1_555
C8 C5 1_555 1_555
H10 C8 1_555 1_555
C9 H11 1_555 1_555
H12 C9 1_555 1_555
C10 C4 1_555 1_555
C11 C10 1_555 1_555
H13 C11 1_555 1_555
C12 C11 1_555 1_555
H14 C12 1_555 1_555
C13 C10 1_555 1_555
H15 C13 1_555 1_555
C14 C13 1_555 1_555
H16 C14 1_555 1_555
N1 Zn1 1_555 1_555
H17 N1 1_555 1_555
N2 Zn2 1_555 1_555
H18 N2 1_555 1_555
N3 Zn2 1_555 1_555
N4 Zn1 1_555 1_555
C1A C1 1_555 1_555
H1A C1A 1_555 1_555
H2A C1A 1_555 1_555
C2A H3A 1_555 1_555
C3A H4A 1_555 1_555
H5A C3A 1_555 1_555
C5A C2A 1_555 1_555
C6A C2A 1_555 1_555
H8A C6A 1_555 1_555
C7A H9A 1_555 1_555
C8A C5A 1_555 1_555
H10A C8A 1_555 1_555
N1A Zn1 1_555 1_555
H17A N1A 1_555 1_555
N3A C6A 1_555 1_555
C4A H6A 1_555 1_555
H7A C4A 1_555 1_555
C9A C9 1_555 1_555
H11A C9A 1_555 1_555
H12A C9A 1_555 1_555
C10A C4A 1_555 1_555
C11A C10A 1_555 1_555
H13A C11A 1_555 1_555
C12A C11A 1_555 1_555
H14A C12A 1_555 1_555
C13A C10A 1_555 1_555
H15A C13A 1_555 1_555
C14A C13A 1_555 1_555
H16A C14A 1_555 1_555
N2A Zn2 1_555 1_555
H18A N2A 1_555 1_555
N4A C12A 1_555 1_555
Cl1A Zn2 1_555 1_555
Cl2A Zn1 1_555 1_555
Zn1_2 N4A 1_555 1_555
Zn2_2 N3A 1_555 1_555
N3A_2 Zn2 1_555 1_555
N4A_2 Zn1 1_555 1_555
C1 N1 1_555 1_555
C3 C5 1_555 1_555
C3 N1 1_555 1_555
C4 N2 1_555 1_555
C6 N3 1_555 1_555
C7 C8 1_555 1_555
C7 N3 1_555 1_555
C9 N2 1_555 1_555
C12 N4 1_555 1_555
C14 N4 1_555 1_555
C1A N1A 1_555 1_555
C3A C5A 1_555 1_555
C3A N1A 1_555 1_555
C7A C8A 1_555 1_555
C7A N3A 1_555 1_555
C4A N2A 1_555 1_555
C9A N2A 1_555 1_555
C14A N4A 1_555 1_555

#END
