
#######################################################################
#
#                 Cambridge Crystallographic Data Centre
#                                CCDC 
#
#######################################################################
#
# If this CIF has been generated from an entry in the Cambridge 
# Structural Database, then it will include bibliographic, chemical, 
# crystal, experimental, refinement or atomic coordinate data resulting 
# from the CCDC's data processing and validation procedures.
#
#######################################################################

data_RESZUM
_symmetry_cell_setting           triclinic
_symmetry_space_group_name_H-M   'P -1'
_symmetry_Int_Tables_number      2
_space_group_name_Hall           '-P 1'
loop_
_symmetry_equiv_pos_site_id
_symmetry_equiv_pos_as_xyz
1 x,y,z
2 -x,-y,-z
_cell_length_a                   8.424(2)
_cell_length_b                   9.959(6)
_cell_length_c                   11.898(5)
_cell_angle_alpha                90.723(4)
_cell_angle_beta                 105.561(8)
_cell_angle_gamma                101.282(5)
_cell_volume                     940.767
loop_
_atom_site_label
_atom_site_type_symbol
_atom_site_fract_x
_atom_site_fract_y
_atom_site_fract_z
Cd1 Cd 0.82487(4) 0.39410(3) 0.88337(3)
C1 C 0.9163(6) 0.1480(5) 0.8437(4)
C2 C 1.0047(6) 0.0375(5) 0.8217(4)
C3 C 0.9598(6) -0.0948(4) 0.8519(4)
H1 H 0.8828 -0.1144 0.8957
C4 C 1.0281(6) -0.1996(4) 0.8176(4)
C5 C 1.1489(7) -0.1700(5) 0.7577(5)
H2 H 1.1935 -0.2399 0.7332
C6 C 1.2035(9) -0.0346(6) 0.7342(6)
H3 H 1.2884 -0.0132 0.6970
C7 C 1.1311(8) 0.0682(5) 0.7663(5)
H4 H 1.1677 0.1584 0.7505
C8 C 0.9682(5) -0.3464(4) 0.8409(4)
C9 C 0.5617(6) 0.2546(5) 1.0137(5)
H5 H 0.5600 0.1856 0.9598
C10 C 0.4541(7) 0.2290(5) 1.0827(5)
H6 H 0.3803 0.1446 1.0756
C11 C 0.4580(6) 0.3318(5) 1.1631(5)
H7 H 0.3859 0.3170 1.2109
C12 C 0.5688(6) 0.4570(5) 1.1729(4)
C13 C 0.6740(6) 0.4748(5) 1.0993(4)
H8 H 0.7491 0.5582 1.1049
C14 C 0.5667(5) 0.5644(5) 1.2595(4)
C15 C 0.4709(6) 0.6918(5) 1.3638(4)
C16 C 0.6385(6) 0.6999(5) 1.4211(4)
C17 C 0.7181(7) 0.7772(6) 1.5272(5)
H9 H 0.8313 0.7829 1.5655
C18 C 0.6175(8) 0.8440(6) 1.5709(5)
H10 H 0.6652 0.8989 1.6402
C19 C 0.4470(8) 0.8330(6) 1.5158(5)
H11 H 0.3831 0.8765 1.5514
C20 C 0.3719(7) 0.7603(6) 1.4114(5)
H12 H 0.2591 0.7564 1.3732
C21 C 0.8729(6) 0.5985(5) 1.3838(4)
H13 H 0.9497 0.6863 1.4091
H14 H 0.8955 0.5625 1.3149
C22 C 0.9069(6) 0.5010(5) 1.4796(4)
H15 H 0.8432 0.4093 1.4507
H16 H 0.8701 0.5294 1.5451
N1 N 0.6707(5) 0.3762(4) 1.0208(3)
N2 N 0.4277(5) 0.6068(4) 1.2613(3)
N3 N 0.6994(5) 0.6198(4) 1.3526(3)
O1 O 0.9760(5) 0.2680(3) 0.8200(3)
O2 O 0.7911(5) 0.1208(4) 0.8819(3)
O3 O 0.9317(4) -0.3730(3) 0.9359(3)
O4 O 0.9540(5) -0.4363(3) 0.7651(3)
C9A C 1.4383(6) 0.7454(5) 1.9863(5)
H5A H 1.4400 0.8144 2.0402
C10A C 1.5459(7) 0.7710(5) 1.9173(5)
H6A H 1.6197 0.8554 1.9244
C11A C 1.5420(6) 0.6682(5) 1.8369(5)
H7A H 1.6141 0.6830 1.7891
C12A C 1.4312(6) 0.5430(5) 1.8271(4)
C13A C 1.3260(6) 0.5252(5) 1.9007(4)
H8A H 1.2509 0.4418 1.8951
C14A C 1.4333(5) 0.4356(5) 1.7405(4)
C15A C 1.5291(6) 0.3082(5) 1.6362(4)
C16A C 1.3615(6) 0.3001(5) 1.5789(4)
C17A C 1.2819(7) 0.2228(6) 1.4728(5)
H9A H 1.1687 0.2171 1.4345
C18A C 1.3825(8) 0.1560(6) 1.4291(5)
H10A H 1.3348 0.1011 1.3598
C19A C 1.5530(8) 0.1670(6) 1.4842(5)
H11A H 1.6169 0.1235 1.4486
C20A C 1.6281(7) 0.2397(6) 1.5886(5)
H12A H 1.7409 0.2436 1.6268
C21A C 1.1271(6) 0.4015(5) 1.6162(4)
H13A H 1.0503 0.3137 1.5909
H14A H 1.1045 0.4375 1.6851
C22A C 1.0931(6) 0.4990(5) 1.5204(4)
H15A H 1.1568 0.5907 1.5493
H16A H 1.1299 0.4706 1.4549
N1A N 1.3293(5) 0.6238(4) 1.9792(3)
N2A N 1.5723(5) 0.3932(4) 1.7387(3)
N3A N 1.3006(5) 0.3802(4) 1.6474(3)
Cd1A Cd 0.17513(4) 0.60590(3) 1.11663(3)
C1A C 0.0837(6) 0.8520(5) 1.1563(4)
C2A C -0.0047(6) 0.9625(5) 1.1783(4)
C3A C 0.0402(6) 1.0948(4) 1.1481(4)
H1A H 0.1172 1.1144 1.1043
C4A C -0.0281(6) 1.1996(4) 1.1824(4)
C5A C -0.1489(7) 1.1700(5) 1.2423(5)
H2A H -0.1935 1.2399 1.2668
C6A C -0.2035(9) 1.0346(6) 1.2658(6)
H3A H -0.2884 1.0132 1.3030
C7A C -0.1311(8) 0.9318(5) 1.2337(5)
H4A H -0.1677 0.8416 1.2495
C8A C 0.0318(5) 1.3464(4) 1.1591(4)
O1A O 0.0240(5) 0.7320(3) 1.1800(3)
O2A O 0.2089(5) 0.8792(4) 1.1181(3)
O3A O 0.0683(4) 1.3730(3) 1.0641(3)
O4A O 0.0460(5) 1.4363(3) 1.2349(3)
Cd1_2 Cd -0.17513(4) 1.39410(3) 0.88337(3)
Cd1_3 Cd 0.82487(4) -0.60590(3) 0.88337(3)
Cd1_4 Cd 1.82487(4) 0.39410(3) 1.88337(3)
Cd1A_2 Cd 0.17513(4) 1.60590(3) 1.11663(3)
Cd1A_3 Cd 1.17513(4) -0.39410(3) 1.11663(3)
Cd1A_4 Cd 1.17513(4) 0.60590(3) 2.11663(3)
N1A_2 N 0.3293(5) 0.6238(4) 0.9792(3)
N2A_2 N 0.5723(5) 0.3932(4) 0.7387(3)
O3_2 O -0.0683(4) 0.6270(3) 0.9359(3)
O3_3 O 0.9317(4) 0.6270(3) 0.9359(3)
O3A_2 O 0.0683(4) 0.3730(3) 1.0641(3)
O3A_3 O 1.0683(4) 0.3730(3) 1.0641(3)
O4_2 O 0.9540(5) 0.5637(3) 0.7651(3)
O4A_2 O 0.0460(5) 0.4363(3) 1.2349(3)
loop_
_geom_bond_atom_site_label_1
_geom_bond_atom_site_label_2
_geom_bond_site_symmetry_1
_geom_bond_site_symmetry_2
Cd1 N1 1_555 1_555
C1 C2 1_555 1_555
C2 C3 1_555 1_555
C3 H1 1_555 1_555
C4 C3 1_555 1_555
C5 C4 1_555 1_555
H2 C5 1_555 1_555
C6 C5 1_555 1_555
H3 C6 1_555 1_555
C7 C2 1_555 1_555
H4 C7 1_555 1_555
C8 C4 1_555 1_555
C9 H5 1_555 1_555
C10 C9 1_555 1_555
H6 C10 1_555 1_555
C11 C10 1_555 1_555
H7 C11 1_555 1_555
C12 C11 1_555 1_555
C13 C12 1_555 1_555
H8 C13 1_555 1_555
C14 C12 1_555 1_555
C15 C16 1_555 1_555
C16 C17 1_555 1_555
C17 H9 1_555 1_555
C18 C17 1_555 1_555
H10 C18 1_555 1_555
C19 C18 1_555 1_555
H11 C19 1_555 1_555
C20 C15 1_555 1_555
H12 C20 1_555 1_555
C21 H13 1_555 1_555
H14 C21 1_555 1_555
C22 C21 1_555 1_555
H15 C22 1_555 1_555
H16 C22 1_555 1_555
N1 C9 1_555 1_555
N2 C14 1_555 1_555
N3 C14 1_555 1_555
O1 Cd1 1_555 1_555
O2 Cd1 1_555 1_555
O3 C8 1_555 1_555
O4 C8 1_555 1_555
C9A H5A 1_555 1_555
C10A C9A 1_555 1_555
H6A C10A 1_555 1_555
C11A C10A 1_555 1_555
H7A C11A 1_555 1_555
C12A C11A 1_555 1_555
C13A C12A 1_555 1_555
H8A C13A 1_555 1_555
C14A C12A 1_555 1_555
C15A C16A 1_555 1_555
C16A C17A 1_555 1_555
C17A H9A 1_555 1_555
C18A C17A 1_555 1_555
H10A C18A 1_555 1_555
C19A C18A 1_555 1_555
H11A C19A 1_555 1_555
C20A C15A 1_555 1_555
H12A C20A 1_555 1_555
C21A H13A 1_555 1_555
H14A C21A 1_555 1_555
C22A C22 1_555 1_555
H15A C22A 1_555 1_555
H16A C22A 1_555 1_555
N1A C9A 1_555 1_555
N2A C14A 1_555 1_555
N3A C14A 1_555 1_555
Cd1A N2 1_555 1_555
C1A C2A 1_555 1_555
C2A C3A 1_555 1_555
C3A H1A 1_555 1_555
C4A C3A 1_555 1_555
C5A C4A 1_555 1_555
H2A C5A 1_555 1_555
C6A C5A 1_555 1_555
H3A C6A 1_555 1_555
C7A C2A 1_555 1_555
H4A C7A 1_555 1_555
C8A C4A 1_555 1_555
O1A Cd1A 1_555 1_555
O2A Cd1A 1_555 1_555
O3A C8A 1_555 1_555
O4A C8A 1_555 1_555
Cd1_2 O3A 1_555 1_555
Cd1_3 O3 1_555 1_555
Cd1_4 N2A 1_555 1_555
Cd1A_2 O3A 1_555 1_555
Cd1A_3 O3 1_555 1_555
Cd1A_4 N1A 1_555 1_555
N1A_2 Cd1A 1_555 1_555
N2A_2 Cd1 1_555 1_555
O3_2 Cd1A 1_555 1_555
O3_3 Cd1 1_555 1_555
O3A_2 Cd1A 1_555 1_555
O3A_3 Cd1 1_555 1_555
O4_2 Cd1 1_555 1_555
O4A_2 Cd1A 1_555 1_555
C1 O1 1_555 1_555
C1 O2 1_555 1_555
C6 C7 1_555 1_555
C13 N1 1_555 1_555
C15 N2 1_555 1_555
C16 N3 1_555 1_555
C19 C20 1_555 1_555
C21 N3 1_555 1_555
O4 Cd1_3 1_555 1_555
C13A N1A 1_555 1_555
C15A N2A 1_555 1_555
C16A N3A 1_555 1_555
C19A C20A 1_555 1_555
C21A C22A 1_555 1_555
C21A N3A 1_555 1_555
C1A O1A 1_555 1_555
C1A O2A 1_555 1_555
C6A C7A 1_555 1_555
O4A Cd1A_2 1_555 1_555

#END
