
#######################################################################
#
#                 Cambridge Crystallographic Data Centre
#                                CCDC 
#
#######################################################################
#
# If this CIF has been generated from an entry in the Cambridge 
# Structural Database, then it will include bibliographic, chemical, 
# crystal, experimental, refinement or atomic coordinate data resulting 
# from the CCDC's data processing and validation procedures.
#
#######################################################################

data_RESZAS
_symmetry_cell_setting           triclinic
_symmetry_space_group_name_H-M   'P -1'
_symmetry_Int_Tables_number      2
_space_group_name_Hall           '-P 1'
loop_
_symmetry_equiv_pos_site_id
_symmetry_equiv_pos_as_xyz
1 x,y,z
2 -x,-y,-z
_cell_length_a                   9.4123(16)
_cell_length_b                   9.4994(7)
_cell_length_c                   13.1602(18)
_cell_angle_alpha                74.96(2)
_cell_angle_beta                 83.55(3)
_cell_angle_gamma                82.90(3)
_cell_volume                     1123.69
loop_
_atom_site_label
_atom_site_type_symbol
_atom_site_fract_x
_atom_site_fract_y
_atom_site_fract_z
Zn1 Zn 0.74352(3) 0.61279(3) 0.71619(3)
C1 C 0.5707(3) 0.9042(4) 0.6907(3)
H1 H 0.5801 0.9231 0.6143
H2 H 0.5381 0.9959 0.7094
C2 C 0.4623(3) 0.7949(4) 0.7363(3)
H3 H 0.4502 0.7792 0.8125
H4 H 0.3702 0.8333 0.7088
C3 C 0.4259(3) 0.5358(4) 0.7709(3)
H5 H 0.4391 0.5219 0.8450
H6 H 0.4636 0.4458 0.7515
C4 C 0.2669(3) 0.5610(3) 0.7573(3)
C5 C 0.1669(4) 0.5730(4) 0.8403(3)
H7 H 0.1969 0.5701 0.9059
C6 C 0.0220(3) 0.5894(4) 0.8259(3)
H8 H -0.0433 0.5946 0.8837
C7 C 0.0689(4) 0.5883(5) 0.6533(3)
H9 H 0.0367 0.5945 0.5879
C8 C 0.2145(4) 0.5694(5) 0.6624(3)
H10 H 0.2779 0.5623 0.6040
C9 C 0.8286(3) 0.9356(4) 0.6799(3)
H11 H 0.8393 0.9359 0.6057
H12 H 0.9176 0.8896 0.7098
C10 C 0.8075(3) 1.0937(3) 0.6888(3)
C11 C 0.7274(4) 1.2041(4) 0.6192(3)
H13 H 0.6864 1.1823 0.5647
C12 C 0.7098(3) 1.3452(3) 0.6318(2)
H14 H 0.6558 1.4166 0.5850
C13 C 0.8437(3) 1.2790(4) 0.7744(3)
H15 H 0.8846 1.3038 0.8278
C14 C 0.8654(3) 1.1348(3) 0.7673(3)
H16 H 0.9190 1.0655 0.8156
C15 C 0.7049(4) 0.7254(4) 0.4784(3)
C16 C 0.7736(5) 0.8056(6) 0.3728(3)
H17 H 0.7054 0.8256 0.3206
H18 H 0.8559 0.7459 0.3520
H19 H 0.8029 0.8962 0.3789
N1 N 0.7117(3) 0.8457(3) 0.7325(2)
H20 H 0.7040 0.8432 0.8025
N2 N 0.5110(2) 0.6540(3) 0.7089(2)
H21 H 0.4943 0.6670 0.6401
N3 N -0.0294(3) 0.5981(3) 0.7340(2)
N4 N 0.7667(3) 1.3846(3) 0.7082(2)
O1 O 0.7840(2) 0.6924(3) 0.55458(18)
O2 O 0.5790(3) 0.6970(4) 0.4840(2)
O3 O 0.7084(2) 0.5305(2) 0.88869(17)
Zn1_2 Zn -0.25648(3) 0.61279(3) 0.71619(3)
Zn1_3 Zn 0.74352(3) 1.61279(3) 0.71619(3)
N3_2 N 0.9706(3) 0.5981(3) 0.7340(2)
N4_2 N 0.7667(3) 0.3846(3) 0.7082(2)
C17 C 0.5286(4) 0.7705(4) 1.0308(3)
C18 C 0.5193(5) 0.8589(5) 1.1118(3)
H22 H 0.4221 0.8680 1.1422
H23 H 0.5487 0.9545 1.0784
H24 H 0.5813 0.8104 1.1662
O4 O 0.4181(3) 0.7204(3) 1.0150(2)
O5 O 0.6501(3) 0.7486(3) 0.9833(2)
O6 O 1.0976(4) 1.1763(4) 0.9608(4)
O7 O 0.1649(4) 0.8932(4) 0.9274(3)
loop_
_geom_bond_atom_site_label_1
_geom_bond_atom_site_label_2
_geom_bond_site_symmetry_1
_geom_bond_site_symmetry_2
Zn1 N1 1_555 1_555
C1 H1 1_555 1_555
H2 C1 1_555 1_555
C2 C1 1_555 1_555
H3 C2 1_555 1_555
H4 C2 1_555 1_555
C3 H5 1_555 1_555
H6 C3 1_555 1_555
C4 C3 1_555 1_555
C5 C4 1_555 1_555
H7 C5 1_555 1_555
C6 C5 1_555 1_555
H8 C6 1_555 1_555
C7 H9 1_555 1_555
C8 C4 1_555 1_555
H10 C8 1_555 1_555
C9 H11 1_555 1_555
H12 C9 1_555 1_555
C10 C9 1_555 1_555
C11 C10 1_555 1_555
H13 C11 1_555 1_555
C12 C11 1_555 1_555
H14 C12 1_555 1_555
C13 H15 1_555 1_555
C14 C10 1_555 1_555
H16 C14 1_555 1_555
C15 C16 1_555 1_555
C16 H17 1_555 1_555
H18 C16 1_555 1_555
H19 C16 1_555 1_555
N1 C1 1_555 1_555
H20 N1 1_555 1_555
N2 Zn1 1_555 1_555
H21 N2 1_555 1_555
N3 C6 1_555 1_555
N4 C12 1_555 1_555
O1 Zn1 1_555 1_555
O2 C15 1_555 1_555
O3 Zn1 1_555 1_555
C17 C18 1_555 1_555
C18 H22 1_555 1_555
H23 C18 1_555 1_555
H24 C18 1_555 1_555
O4 C17 1_555 1_555
O5 C17 1_555 1_555
Zn1_2 N3 1_555 1_555
Zn1_3 N4 1_555 1_555
N3_2 Zn1 1_555 1_555
N4_2 Zn1 1_555 1_555
C2 N2 1_555 1_555
C3 N2 1_555 1_555
C7 C8 1_555 1_555
C7 N3 1_555 1_555
C9 N1 1_555 1_555
C13 C14 1_555 1_555
C13 N4 1_555 1_555
C15 O1 1_555 1_555

#END
