
#######################################################################
#
#                 Cambridge Crystallographic Data Centre
#                                CCDC 
#
#######################################################################
#
# If this CIF has been generated from an entry in the Cambridge 
# Structural Database, then it will include bibliographic, chemical, 
# crystal, experimental, refinement or atomic coordinate data resulting 
# from the CCDC's data processing and validation procedures.
#
#######################################################################

data_RESZOG
_symmetry_cell_setting           monoclinic
_symmetry_space_group_name_H-M   'P 21/c'
_symmetry_Int_Tables_number      14
_space_group_name_Hall           '-P 2ybc'
loop_
_symmetry_equiv_pos_site_id
_symmetry_equiv_pos_as_xyz
1 x,y,z
2 -x,1/2+y,1/2-z
3 -x,-y,-z
4 x,1/2-y,1/2+z
_cell_length_a                   8.3800(14)
_cell_length_b                   20.837(4)
_cell_length_c                   11.227(3)
_cell_angle_alpha                90
_cell_angle_beta                 101.346(5)
_cell_angle_gamma                90
_cell_volume                     1922.08
loop_
_atom_site_label
_atom_site_type_symbol
_atom_site_fract_x
_atom_site_fract_y
_atom_site_fract_z
Cd1 Cd 0.16955(3) 0.063399(11) 0.124847(18)
C1 C 0.0727(3) -0.06916(16) 0.1348(3)
C2 C 0.0303(4) -0.13384(15) 0.1814(3)
C3 C -0.0576(4) -0.13795(15) 0.2727(3)
H1 H -0.0903 -0.1005 0.3060
C4 C -0.0976(4) -0.19617(16) 0.3154(3)
H2 H -0.1612 -0.1977 0.3745
C5 C -0.0448(4) -0.25237(15) 0.2717(2)
C6 C 0.0465(4) -0.24859(16) 0.1810(3)
H3 H 0.0855 -0.2859 0.1515
C7 C 0.0799(4) -0.18973(16) 0.1345(3)
H4 H 0.1362 -0.1879 0.0710
C8 C -0.0891(4) -0.31632(16) 0.3174(3)
C9 C 0.4013(4) 0.11663(17) -0.0436(3)
H5 H 0.3939 0.1511 0.0077
C10 C 0.4946(5) 0.12317(18) -0.1304(3)
H6 H 0.5484 0.1616 -0.1380
C11 C 0.5080(4) 0.07233(17) -0.2065(3)
H7 H 0.5716 0.0758 -0.2653
C12 C 0.4256(4) 0.01643(15) -0.1937(3)
C13 C 0.3321(4) 0.01353(15) -0.1038(2)
H8 H 0.2758 -0.0241 -0.0951
C14 C 0.4406(4) -0.03893(15) -0.2736(2)
C15 C 0.5425(4) -0.11254(15) -0.3709(2)
C16 C 0.6401(4) -0.15524(17) -0.4210(3)
H9 H 0.7528 -0.1545 -0.3971
C17 C 0.5649(5) -0.19836(18) -0.5066(3)
H10 H 0.6276 -0.2281 -0.5387
C18 C 0.3977(5) -0.19840(18) -0.5459(3)
H11 H 0.3508 -0.2281 -0.6043
C19 C 0.3000(4) -0.15624(18) -0.5015(3)
H12 H 0.1878 -0.1561 -0.5290
C20 C 0.3757(4) -0.11325(16) -0.4130(3)
C21 C 0.1403(4) -0.04653(17) -0.3742(3)
H13 H 0.1191 -0.0225 -0.3049
H14 H 0.0733 -0.0848 -0.3822
C22 C 0.0913(4) -0.00622(16) -0.4869(3)
H15 H 0.1211 -0.0282 -0.5556
H16 H 0.1490 0.0344 -0.4762
N1 N 0.3204(3) 0.06260(13) -0.0298(2)
N2 N 0.5821(3) -0.06548(13) -0.2811(2)
N3 N 0.3123(3) -0.06566(13) -0.3504(2)
O1 O 0.0864(3) -0.06437(11) 0.02726(18)
O2 O 0.0915(3) -0.02418(11) 0.2098(2)
O3 O -0.0258(3) -0.36542(11) 0.2818(2)
O4 O -0.1906(3) -0.31885(11) 0.38423(19)
C9B C -0.4013(4) -0.11663(17) -0.9564(3)
H5B H -0.3939 -0.1511 -1.0077
C10B C -0.4946(5) -0.12317(18) -0.8696(3)
H6B H -0.5484 -0.1616 -0.8620
C11B C -0.5080(4) -0.07233(17) -0.7935(3)
H7B H -0.5716 -0.0758 -0.7347
C12B C -0.4256(4) -0.01643(15) -0.8063(3)
C13B C -0.3321(4) -0.01353(15) -0.8962(2)
H8B H -0.2758 0.0241 -0.9049
C14B C -0.4406(4) 0.03893(15) -0.7264(2)
C15B C -0.5425(4) 0.11254(15) -0.6291(2)
C16B C -0.6401(4) 0.15524(17) -0.5790(3)
H9B H -0.7528 0.1545 -0.6029
C17B C -0.5649(5) 0.19836(18) -0.4934(3)
H10B H -0.6276 0.2281 -0.4613
C18B C -0.3977(5) 0.19840(18) -0.4541(3)
H11B H -0.3508 0.2281 -0.3957
C19B C -0.3000(4) 0.15624(18) -0.4985(3)
H12B H -0.1878 0.1561 -0.4710
C20B C -0.3757(4) 0.11325(16) -0.5870(3)
C21B C -0.1403(4) 0.04653(17) -0.6258(3)
H13B H -0.1191 0.0225 -0.6951
H14B H -0.0733 0.0848 -0.6178
C22B C -0.0913(4) 0.00622(16) -0.5131(3)
H15B H -0.1211 0.0282 -0.4444
H16B H -0.1490 -0.0344 -0.5238
N1B N -0.3204(3) -0.06260(13) -0.9702(2)
N2B N -0.5821(3) 0.06548(13) -0.7189(2)
N3B N -0.3123(3) 0.06566(13) -0.6496(2)
Cd1B Cd -0.16955(3) -0.063399(11) -1.124847(18)
C1B C -0.0727(3) 0.06916(16) -1.1348(3)
C2B C -0.0303(4) 0.13384(15) -1.1814(3)
C3B C 0.0576(4) 0.13795(15) -1.2727(3)
H1B H 0.0903 0.1005 -1.3060
C4B C 0.0976(4) 0.19617(16) -1.3154(3)
H2B H 0.1612 0.1977 -1.3745
C5B C 0.0448(4) 0.25237(15) -1.2717(2)
C6B C -0.0465(4) 0.24859(16) -1.1810(3)
H3B H -0.0855 0.2859 -1.1515
C7B C -0.0799(4) 0.18973(16) -1.1345(3)
H4B H -0.1362 0.1879 -1.0710
C8B C 0.0891(4) 0.31632(16) -1.3174(3)
O1B O -0.0864(3) 0.06437(11) -1.02726(18)
O2B O -0.0915(3) 0.02418(11) -1.2098(2)
O3B O 0.0258(3) 0.36542(11) -1.2818(2)
O4B O 0.1906(3) 0.31885(11) -1.38423(19)
Cd1_2 Cd -0.83045(3) 0.063399(11) -0.875153(18)
Cd1_3 Cd 0.16955(3) 0.063399(11) -0.875153(18)
Cd1A Cd -0.16955(3) -0.436601(11) 0.375153(18)
Cd1B_2 Cd -0.16955(3) -0.063399(11) -0.124847(18)
Cd1B_3 Cd 0.83045(3) -0.063399(11) -0.124847(18)
Cd1C Cd 0.16955(3) 0.436601(11) -1.375153(18)
N2_2 N -0.4179(3) -0.06548(13) -1.2811(2)
N2B_2 N 0.4179(3) 0.06548(13) 0.2811(2)
O1_2 O 0.0864(3) -0.06437(11) -0.97274(18)
O1B_2 O -0.0864(3) 0.06437(11) -0.02726(18)
O3A O 0.0258(3) 0.13458(11) 0.2182(2)
O3C O -0.0258(3) -0.13458(11) -1.2182(2)
O4A O 0.1906(3) 0.18115(11) 0.11577(19)
O4C O -0.1906(3) -0.18115(11) -1.11577(19)
loop_
_geom_bond_atom_site_label_1
_geom_bond_atom_site_label_2
_geom_bond_site_symmetry_1
_geom_bond_site_symmetry_2
Cd1 N1 1_555 1_555
C1 C2 1_555 1_555
C2 C3 1_555 1_555
C3 H1 1_555 1_555
C4 C3 1_555 1_555
H2 C4 1_555 1_555
C5 C4 1_555 1_555
C6 C5 1_555 1_555
H3 C6 1_555 1_555
C7 C2 1_555 1_555
H4 C7 1_555 1_555
C8 C5 1_555 1_555
C9 H5 1_555 1_555
C10 C9 1_555 1_555
H6 C10 1_555 1_555
C11 C10 1_555 1_555
H7 C11 1_555 1_555
C12 C11 1_555 1_555
C13 C12 1_555 1_555
H8 C13 1_555 1_555
C14 C12 1_555 1_555
C15 C16 1_555 1_555
C16 H9 1_555 1_555
C17 C16 1_555 1_555
H10 C17 1_555 1_555
C18 C17 1_555 1_555
H11 C18 1_555 1_555
C19 C18 1_555 1_555
H12 C19 1_555 1_555
C20 C15 1_555 1_555
C21 H13 1_555 1_555
H14 C21 1_555 1_555
C22 C21 1_555 1_555
H15 C22 1_555 1_555
H16 C22 1_555 1_555
N1 C9 1_555 1_555
N2 C14 1_555 1_555
N3 C14 1_555 1_555
O1 C1 1_555 1_555
O2 Cd1 1_555 1_555
O3 C8 1_555 1_555
O4 C8 1_555 1_555
C9B H5B 1_555 1_555
C10B C9B 1_555 1_555
H6B C10B 1_555 1_555
C11B C10B 1_555 1_555
H7B C11B 1_555 1_555
C12B C11B 1_555 1_555
C13B C12B 1_555 1_555
H8B C13B 1_555 1_555
C14B C12B 1_555 1_555
C15B C16B 1_555 1_555
C16B H9B 1_555 1_555
C17B C16B 1_555 1_555
H10B C17B 1_555 1_555
C18B C17B 1_555 1_555
H11B C18B 1_555 1_555
C19B C18B 1_555 1_555
H12B C19B 1_555 1_555
C20B C15B 1_555 1_555
C21B H13B 1_555 1_555
H14B C21B 1_555 1_555
C22B C22 1_555 1_555
H15B C22B 1_555 1_555
H16B C22B 1_555 1_555
N1B C9B 1_555 1_555
N2B C14B 1_555 1_555
N3B C14B 1_555 1_555
Cd1B N1B 1_555 1_555
C1B C2B 1_555 1_555
C2B C3B 1_555 1_555
C3B H1B 1_555 1_555
C4B C3B 1_555 1_555
H2B C4B 1_555 1_555
C5B C4B 1_555 1_555
C6B C5B 1_555 1_555
H3B C6B 1_555 1_555
C7B C2B 1_555 1_555
H4B C7B 1_555 1_555
C8B C5B 1_555 1_555
O1B C1B 1_555 1_555
O2B Cd1B 1_555 1_555
O3B C8B 1_555 1_555
O4B C8B 1_555 1_555
Cd1_2 N2B 1_555 1_555
Cd1_3 O1B 1_555 1_555
Cd1A O3 1_555 1_555
Cd1B_2 O1 1_555 1_555
Cd1B_3 N2 1_555 1_555
Cd1C O3B 1_555 1_555
N2_2 Cd1B 1_555 1_555
N2B_2 Cd1 1_555 1_555
O1_2 Cd1B 1_555 1_555
O1B_2 Cd1 1_555 1_555
O3A Cd1 1_555 1_555
O3C Cd1B 1_555 1_555
O4A Cd1 1_555 1_555
O4C Cd1B 1_555 1_555
C1 O2 1_555 1_555
C6 C7 1_555 1_555
C13 N1 1_555 1_555
C15 N2 1_555 1_555
C19 C20 1_555 1_555
C20 N3 1_555 1_555
C21 N3 1_555 1_555
O4 Cd1A 1_555 1_555
C13B N1B 1_555 1_555
C15B N2B 1_555 1_555
C19B C20B 1_555 1_555
C20B N3B 1_555 1_555
C21B C22B 1_555 1_555
C21B N3B 1_555 1_555
C1B O2B 1_555 1_555
C6B C7B 1_555 1_555
O4B Cd1C 1_555 1_555

#END
