
#######################################################################
#
#                 Cambridge Crystallographic Data Centre
#                                CCDC 
#
#######################################################################
#
# If this CIF has been generated from an entry in the Cambridge 
# Structural Database, then it will include bibliographic, chemical, 
# crystal, experimental, refinement or atomic coordinate data resulting 
# from the CCDC's data processing and validation procedures.
#
#######################################################################

data_RETBID
_symmetry_cell_setting           monoclinic
_symmetry_space_group_name_H-M   'P 21/c'
_symmetry_Int_Tables_number      14
_space_group_name_Hall           '-P 2ybc'
loop_
_symmetry_equiv_pos_site_id
_symmetry_equiv_pos_as_xyz
1 x,y,z
2 -x,1/2+y,1/2-z
3 -x,-y,-z
4 x,1/2-y,1/2+z
_cell_length_a                   15.1367(16)
_cell_length_b                   9.579(2)
_cell_length_c                   18.531(3)
_cell_angle_alpha                90
_cell_angle_beta                 96.767(3)
_cell_angle_gamma                90
_cell_volume                     2668.17
loop_
_atom_site_label
_atom_site_type_symbol
_atom_site_fract_x
_atom_site_fract_y
_atom_site_fract_z
Zn1 Zn 0.71289(4) 0.03704(6) 1.02598(3)
Zn2 Zn 0.5000 0.0000 1.0000
C1 C 0.6263(4) -0.3999(5) 0.6322(2)
C2 C 0.6285(3) -0.3271(5) 0.7050(2)
C3 C 0.5537(4) -0.3243(6) 0.7405(3)
H1 H 0.5010 -0.3648 0.7195
C4 C 0.5576(4) -0.2607(6) 0.8078(3)
H2 H 0.5075 -0.2601 0.8325
C5 C 0.6341(4) -0.1986(5) 0.8383(2)
C6 C 0.7083(4) -0.1968(7) 0.8021(3)
H3 H 0.7599 -0.1517 0.8220
C7 C 0.7050(4) -0.2635(7) 0.7350(3)
H4 H 0.7552 -0.2649 0.7105
C8 C 0.6392(4) -0.1293(5) 0.9128(2)
C9 C 0.6119(4) 0.2652(5) 1.0427(3)
C10 C 0.5537(3) 0.3861(5) 1.0209(2)
C11 C 0.5059(4) 0.3912(5) 0.9517(2)
H5 H 0.5096 0.3176 0.9194
C12 C 0.4533(4) 0.5052(5) 0.9312(3)
H6 H 0.4223 0.5089 0.8848
C13 C 0.8703(4) 0.1905(6) 0.9860(3)
C14 C 0.8245(5) 0.2215(6) 0.9142(3)
C15 C 0.7582(5) 0.3207(9) 0.9061(4)
H7 H 0.7437 0.3840 0.9408
C16 C 0.8470(6) 0.1523(7) 0.8538(4)
H8 H 0.8941 0.0893 0.8598
C17 C 0.8056(7) 0.1709(8) 0.7885(4)
H9 H 0.8226 0.1215 0.7492
C18 C 0.7423(8) 0.2569(14) 0.7797(4)
H10 H 0.7215 0.2818 0.7322
C19 C 0.9738(4) 0.1876(7) 1.0817(4)
C20 C 1.0460(5) 0.2069(8) 1.1336(5)
H11 H 1.0959 0.2563 1.1232
C21 C 1.0413(5) 0.1516(8) 1.1998(4)
H12 H 1.0900 0.1611 1.2350
C22 C 0.9681(5) 0.0819(8) 1.2177(4)
H13 H 0.9678 0.0474 1.2646
C23 C 0.8931(4) 0.0617(7) 1.1660(3)
H14 H 0.8432 0.0130 1.1770
C24 C 0.8981(4) 0.1186(6) 1.0980(3)
C25 C 1.0143(5) 0.3110(8) 0.9681(4)
H15 H 1.0083 0.2770 0.9185
H16 H 1.0754 0.2957 0.9889
C26 C 0.9948(8) 0.4697(10) 0.9673(4)
H17 H 1.0338 0.5153 0.9367
H18 H 0.9340 0.4846 0.9455
N1 N 0.8346(3) 0.1218(4) 1.0376(2)
N2 N 0.9550(4) 0.2304(5) 1.0096(3)
N3 N 0.7114(10) 0.364(4) 0.8405(13)
O1 O 0.7111(2) -0.0699(4) 0.93573(16)
O2 O 0.5708(2) -0.1359(3) 0.94499(16)
O3 O 0.6064(2) 0.1555(3) 1.00040(15)
O4 O 0.6656(3) 0.2677(4) 1.0981(2)
O5 O 0.7005(2) -0.4177(4) 0.60874(16)
O6 O 0.5524(2) -0.4336(4) 0.60147(15)
C9B C 0.3881(4) 0.7348(5) 0.9573(3)
C10B C 0.4463(3) 0.6139(5) 0.9791(2)
C11B C 0.4941(4) 0.6088(5) 1.0483(2)
H5B H 0.4904 0.6824 1.0806
C12B C 0.5467(4) 0.4948(5) 1.0688(3)
H6B H 0.5777 0.4911 1.1152
O3B O 0.3936(2) 0.8445(3) 0.99960(15)
O4B O 0.3344(3) 0.7323(4) 0.9019(2)
C13B C 1.1297(4) 0.8095(6) 1.0140(3)
C14B C 1.1755(5) 0.7785(6) 1.0858(3)
C15B C 1.2418(5) 0.6793(9) 1.0939(4)
H7B H 1.2563 0.6160 1.0592
C16B C 1.1530(6) 0.8477(7) 1.1462(4)
H8B H 1.1059 0.9107 1.1402
C17B C 1.1944(7) 0.8291(8) 1.2115(4)
H9B H 1.1774 0.8785 1.2508
C18B C 1.2577(8) 0.7431(14) 1.2203(4)
H10B H 1.2785 0.7182 1.2678
C19B C 1.0262(4) 0.8124(7) 0.9183(4)
C20B C 0.9540(5) 0.7931(8) 0.8664(5)
H11B H 0.9041 0.7437 0.8768
C21B C 0.9587(5) 0.8484(8) 0.8002(4)
H12B H 0.9100 0.8389 0.7650
C22B C 1.0319(5) 0.9181(8) 0.7823(4)
H13B H 1.0322 0.9526 0.7354
C23B C 1.1069(4) 0.9383(7) 0.8340(3)
H14B H 1.1568 0.9870 0.8230
C24B C 1.1019(4) 0.8814(6) 0.9020(3)
C25B C 0.9857(5) 0.6890(8) 1.0319(4)
H15B H 0.9917 0.7230 1.0815
H16B H 0.9246 0.7043 1.0111
C26B C 1.0052(8) 0.5303(10) 1.0327(4)
H17B H 0.9662 0.4847 1.0633
H18B H 1.0660 0.5154 1.0545
N1B N 1.1654(3) 0.8782(4) 0.9624(2)
N2B N 1.0450(4) 0.7696(5) 0.9904(3)
N3B N 1.2886(10) 0.636(4) 1.1595(13)
Zn1B Zn 0.28711(4) -0.03704(6) 0.97402(3)
C1B C 0.3737(4) 0.3999(5) 1.3678(2)
C2B C 0.3715(3) 0.3271(5) 1.2950(2)
C3B C 0.4463(4) 0.3243(6) 1.2595(3)
H1B H 0.4990 0.3648 1.2805
C4B C 0.4424(4) 0.2607(6) 1.1922(3)
H2B H 0.4925 0.2601 1.1675
C5B C 0.3659(4) 0.1986(5) 1.1617(2)
C6B C 0.2917(4) 0.1968(7) 1.1979(3)
H3B H 0.2401 0.1517 1.1780
C7B C 0.2950(4) 0.2635(7) 1.2650(3)
H4B H 0.2448 0.2649 1.2895
C8B C 0.3608(4) 0.1293(5) 1.0872(2)
O1B O 0.2889(2) 0.0699(4) 1.06427(16)
O2B O 0.4292(2) 0.1359(3) 1.05501(16)
O5B O 0.2995(2) 0.4177(4) 1.39126(16)
O6B O 0.4476(2) 0.4336(4) 1.39853(15)
Zn1A Zn 0.28711(4) 0.53704(6) 1.47402(3)
Zn1B_2 Zn 0.28711(4) 0.96296(6) 0.97402(3)
Zn1B_3 Zn 1.28711(4) 0.96296(6) 0.97402(3)
Zn1C Zn 0.71289(4) -0.53704(6) 0.52598(3)
Zn2_2 Zn 0.5000 1.0000 1.0000
Zn2A Zn 0.5000 -0.5000 0.5000
Zn2A_2 Zn 0.5000 0.5000 1.5000
N1B_2 N 0.1654(3) -0.1218(4) 0.9624(2)
O3B_2 O 0.3936(2) -0.1555(3) 0.99960(15)
O5A O 0.2995(2) 0.0823(4) 0.89126(16)
O5C O 0.7005(2) -0.0823(4) 1.10874(16)
O6A O 0.4476(2) 0.0664(4) 0.89853(15)
O6C O 0.5524(2) -0.0664(4) 1.10147(15)
O7 O 0.8231(6) 0.0519(8) 0.6471(4)
H19 H 0.802(2) -0.014(3) 0.6302(17)
O8 O 0.7678(8) -0.1336(10) 0.5253(6)
H20 H 0.788(6) -0.052(4) 0.5179(19)
N4? N 0.7102(17) 0.304(7) 0.822(2)
loop_
_geom_bond_atom_site_label_1
_geom_bond_atom_site_label_2
_geom_bond_site_symmetry_1
_geom_bond_site_symmetry_2
Zn1 N1 1_555 1_555
Zn2 O2 1_555 1_555
C1 C2 1_555 1_555
C2 C3 1_555 1_555
C3 H1 1_555 1_555
C4 C3 1_555 1_555
H2 C4 1_555 1_555
C5 C4 1_555 1_555
C6 C5 1_555 1_555
H3 C6 1_555 1_555
C7 C2 1_555 1_555
H4 C7 1_555 1_555
C8 C5 1_555 1_555
C9 C10 1_555 1_555
C10 C11 1_555 1_555
C11 H5 1_555 1_555
C12 C11 1_555 1_555
H6 C12 1_555 1_555
C13 C14 1_555 1_555
C14 C15 1_555 1_555
C15 H7 1_555 1_555
C16 C14 1_555 1_555
H8 C16 1_555 1_555
C17 C16 1_555 1_555
H9 C17 1_555 1_555
C18 C17 1_555 1_555
H10 C18 1_555 1_555
C19 C20 1_555 1_555
C20 H11 1_555 1_555
C21 C20 1_555 1_555
H12 C21 1_555 1_555
C22 C21 1_555 1_555
H13 C22 1_555 1_555
C23 C22 1_555 1_555
H14 C23 1_555 1_555
C24 C19 1_555 1_555
C25 H15 1_555 1_555
H16 C25 1_555 1_555
C26 C25 1_555 1_555
H17 C26 1_555 1_555
H18 C26 1_555 1_555
N1 C13 1_555 1_555
N2 C13 1_555 1_555
N3 C15 1_555 1_555
O1 Zn1 1_555 1_555
O2 C8 1_555 1_555
O3 Zn1 1_555 1_555
O4 C9 1_555 1_555
O5 C1 1_555 1_555
O6 C1 1_555 1_555
O7 H19 1_555 1_555
O8 H20 1_555 1_555
C9B C10B 1_555 1_555
C10B C12 1_555 1_555
C11B C10B 1_555 1_555
H5B C11B 1_555 1_555
C12B C10 1_555 1_555
H6B C12B 1_555 1_555
O3B C9B 1_555 1_555
O4B C9B 1_555 1_555
C13B C14B 1_555 1_555
C14B C15B 1_555 1_555
C15B H7B 1_555 1_555
C16B C14B 1_555 1_555
H8B C16B 1_555 1_555
C17B C16B 1_555 1_555
H9B C17B 1_555 1_555
C18B C17B 1_555 1_555
H10B C18B 1_555 1_555
C19B C20B 1_555 1_555
C20B H11B 1_555 1_555
C21B C20B 1_555 1_555
H12B C21B 1_555 1_555
C22B C21B 1_555 1_555
H13B C22B 1_555 1_555
C23B C22B 1_555 1_555
H14B C23B 1_555 1_555
C24B C19B 1_555 1_555
C25B H15B 1_555 1_555
H16B C25B 1_555 1_555
C26B C26 1_555 1_555
H17B C26B 1_555 1_555
H18B C26B 1_555 1_555
N1B C13B 1_555 1_555
N2B C13B 1_555 1_555
N3B C15B 1_555 1_555
Zn1B O1B 1_555 1_555
C1B C2B 1_555 1_555
C2B C3B 1_555 1_555
C3B H1B 1_555 1_555
C4B C3B 1_555 1_555
H2B C4B 1_555 1_555
C5B C4B 1_555 1_555
C6B C5B 1_555 1_555
H3B C6B 1_555 1_555
C7B C2B 1_555 1_555
H4B C7B 1_555 1_555
C8B C5B 1_555 1_555
O1B C8B 1_555 1_555
O2B Zn2 1_555 1_555
O5B C1B 1_555 1_555
O6B C1B 1_555 1_555
Zn1A O5B 1_555 1_555
Zn1B_2 O3B 1_555 1_555
Zn1B_3 N1B 1_555 1_555
Zn1C O5 1_555 1_555
Zn2_2 O3B 1_555 1_555
Zn2A O6 1_555 1_555
Zn2A_2 O6B 1_555 1_555
N1B_2 Zn1B 1_555 1_555
O3B_2 Zn2 1_555 1_555
O5A Zn1B 1_555 1_555
O5C Zn1 1_555 1_555
O6A Zn2 1_555 1_555
O6C Zn2 1_555 1_555
Zn2 O3 1_555 1_555
C6 C7 1_555 1_555
C8 O1 1_555 1_555
C9 O3 1_555 1_555
C18 N3 1_555 1_555
C19 N2 1_555 1_555
C23 C24 1_555 1_555
C24 N1 1_555 1_555
C25 N2 1_555 1_555
C11B C12B 1_555 1_555
C18B N3B 1_555 1_555
C19B N2B 1_555 1_555
C23B C24B 1_555 1_555
C24B N1B 1_555 1_555
C25B C26B 1_555 1_555
C25B N2B 1_555 1_555
Zn1B O3B_2 1_555 1_555
C6B C7B 1_555 1_555
C8B O2B 1_555 1_555

#END
