
#######################################################################
#
#                 Cambridge Crystallographic Data Centre
#                                CCDC 
#
#######################################################################
#
# If this CIF has been generated from an entry in the Cambridge 
# Structural Database, then it will include bibliographic, chemical, 
# crystal, experimental, refinement or atomic coordinate data resulting 
# from the CCDC's data processing and validation procedures.
#
#######################################################################

data_RETBOJ
_symmetry_cell_setting           monoclinic
_symmetry_space_group_name_H-M   'P 21/c'
_symmetry_Int_Tables_number      14
_space_group_name_Hall           '-P 2ybc'
loop_
_symmetry_equiv_pos_site_id
_symmetry_equiv_pos_as_xyz
1 x,y,z
2 -x,1/2+y,1/2-z
3 -x,-y,-z
4 x,1/2-y,1/2+z
_cell_length_a                   11.5009(14)
_cell_length_b                   10.475(2)
_cell_length_c                   18.115(3)
_cell_angle_alpha                90
_cell_angle_beta                 103.417(4)
_cell_angle_gamma                90
_cell_volume                     2122.79
loop_
_atom_site_label
_atom_site_type_symbol
_atom_site_fract_x
_atom_site_fract_y
_atom_site_fract_z
Zn1 Zn 0.25024(3) 0.01475(3) 0.031517(17)
C1 C 0.1713(3) 0.0774(3) 0.16105(17)
C2 C 0.1202(3) 0.1713(3) 0.20691(14)
C3 C 0.1861(3) 0.2008(3) 0.27901(15)
H1 H 0.2574 0.1581 0.2990
C4 C 0.1455(3) 0.2945(3) 0.32145(14)
C5 C 0.0384(3) 0.3540(3) 0.29237(15)
H2 H 0.0127 0.4187 0.3200
C6 C -0.0322(3) 0.3188(3) 0.22202(16)
C7 C 0.0110(3) 0.2299(3) 0.17866(15)
H3 H -0.0334 0.2094 0.1304
C8 C 0.2177(3) 0.3266(3) 0.39951(16)
C9 C 0.3142(3) -0.2260(3) -0.03495(15)
C10 C 0.3841(3) -0.1521(3) -0.07944(15)
C11 C 0.5029(3) -0.1259(3) -0.04863(15)
H4 H 0.5372 -0.1589 -0.0009
C12 C 0.3326(3) -0.1043(4) -0.15069(17)
H5 H 0.2528 -0.1204 -0.1736
C13 C 0.4029(3) -0.0319(4) -0.18685(19)
H6 H 0.3706 0.0015 -0.2348
C14 C 0.5205(3) -0.0090(3) -0.15214(18)
H7 H 0.5662 0.0407 -0.1773
C15 C 0.2027(3) -0.2780(3) 0.04159(17)
C16 C 0.2357(3) -0.3908(3) 0.01166(16)
C17 C 0.1989(3) -0.5099(3) 0.0307(2)
H8 H 0.2214 -0.5849 0.0104
C18 C 0.1269(4) -0.5100(3) 0.0816(2)
H9 H 0.0996 -0.5876 0.0960
C19 C 0.0935(4) -0.3979(4) 0.1124(2)
H10 H 0.0450 -0.4027 0.1468
C20 C 0.1303(4) -0.2807(3) 0.0932(2)
H11 H 0.1078 -0.2060 0.1139
C21 C 0.3661(3) -0.4417(3) -0.08008(16)
H12 H 0.3657 -0.4035 -0.1289
H13 H 0.3212 -0.5207 -0.0892
C22 C 0.4944(3) -0.4712(3) -0.03921(16)
H14 H 0.5408 -0.3931 -0.0343
H15 H 0.5282 -0.5302 -0.0698
N1 N 0.2542(2) -0.1744(2) 0.01201(13)
N2 N 0.3069(2) -0.3544(2) -0.03657(12)
N3 N 0.5720(2) -0.0558(2) -0.08329(13)
O1 O 0.1532(2) 0.0996(2) 0.09011(11)
O2 O 0.23040(19) -0.01420(19) 0.19295(11)
O3 O 0.3013(2) 0.2571(2) 0.43020(13)
O4 O 0.1851(2) 0.4261(2) 0.42928(10)
N4 N -0.1413(2) 0.3710(2) 0.19347(13)
H16 H -0.180(2) 0.3096(18) 0.2026(15)
H17 H -0.155(3) 0.4272(18) 0.2239(13)
C9B C 0.6858(3) -0.7740(3) 0.03495(15)
C10B C 0.6159(3) -0.8479(3) 0.07944(15)
C11B C 0.4971(3) -0.8741(3) 0.04863(15)
H4B H 0.4628 -0.8411 0.0009
C12B C 0.6674(3) -0.8957(4) 0.15069(17)
H5B H 0.7472 -0.8796 0.1736
C13B C 0.5971(3) -0.9681(4) 0.18685(19)
H6B H 0.6294 -1.0015 0.2348
C14B C 0.4795(3) -0.9910(3) 0.15214(18)
H7B H 0.4338 -1.0407 0.1773
C15B C 0.7973(3) -0.7220(3) -0.04159(17)
C16B C 0.7643(3) -0.6092(3) -0.01166(16)
C17B C 0.8011(3) -0.4901(3) -0.0307(2)
H8B H 0.7786 -0.4151 -0.0104
C18B C 0.8731(4) -0.4900(3) -0.0816(2)
H9B H 0.9004 -0.4124 -0.0960
C19B C 0.9065(4) -0.6021(4) -0.1124(2)
H10B H 0.9550 -0.5973 -0.1468
C20B C 0.8697(4) -0.7193(3) -0.0932(2)
H11B H 0.8922 -0.7940 -0.1139
C21B C 0.6339(3) -0.5583(3) 0.08008(16)
H12B H 0.6343 -0.5965 0.1289
H13B H 0.6788 -0.4793 0.0892
C22B C 0.5056(3) -0.5288(3) 0.03921(16)
H14B H 0.4592 -0.6069 0.0343
H15B H 0.4718 -0.4698 0.0698
N1B N 0.7458(2) -0.8256(2) -0.01201(13)
N2B N 0.6931(2) -0.6456(2) 0.03657(12)
N3B N 0.4280(2) -0.9442(2) 0.08329(13)
Zn1B Zn 0.74976(3) -1.01475(3) -0.031517(17)
C1B C 0.8287(3) -1.0774(3) -0.16105(17)
C2B C 0.8798(3) -1.1713(3) -0.20691(14)
C3B C 0.8139(3) -1.2008(3) -0.27901(15)
H1B H 0.7426 -1.1581 -0.2990
C4B C 0.8545(3) -1.2945(3) -0.32145(14)
C5B C 0.9616(3) -1.3540(3) -0.29237(15)
H2B H 0.9873 -1.4187 -0.3200
C6B C 1.0322(3) -1.3188(3) -0.22202(16)
C7B C 0.9890(3) -1.2299(3) -0.17866(15)
H3B H 1.0334 -1.2094 -0.1304
C8B C 0.7823(3) -1.3266(3) -0.39951(16)
O1B O 0.8468(2) -1.0996(2) -0.09011(11)
O2B O 0.76960(19) -0.98580(19) -0.19295(11)
O3B O 0.6987(2) -1.2571(2) -0.43020(13)
O4B O 0.8149(2) -1.4261(2) -0.42928(10)
N4B N 1.1413(2) -1.3710(2) -0.19347(13)
H16B H 1.180(2) -1.3096(18) -0.2026(15)
H17B H 1.155(3) -1.4272(18) -0.2239(13)
Zn1_2 Zn 0.25024(3) -0.98525(3) 0.031517(17)
Zn1A Zn 0.74976(3) -1.48525(3) -0.531517(17)
Zn1B_2 Zn 0.74976(3) -0.01475(3) -0.031517(17)
Zn1C Zn 0.25024(3) 0.48525(3) 0.531517(17)
N3_2 N 0.5720(2) -1.0558(2) -0.08329(13)
N3B_2 N 0.4280(2) 0.0558(2) 0.08329(13)
O4A O 0.8149(2) -1.0739(2) 0.07072(10)
O4C O 0.1851(2) 0.0739(2) -0.07072(10)
loop_
_geom_bond_atom_site_label_1
_geom_bond_atom_site_label_2
_geom_bond_site_symmetry_1
_geom_bond_site_symmetry_2
Zn1 N1 1_555 1_555
C1 C2 1_555 1_555
C2 C3 1_555 1_555
C3 H1 1_555 1_555
C4 C3 1_555 1_555
C5 C4 1_555 1_555
H2 C5 1_555 1_555
C6 C5 1_555 1_555
C7 C2 1_555 1_555
H3 C7 1_555 1_555
C8 C4 1_555 1_555
C9 C10 1_555 1_555
C10 C11 1_555 1_555
C11 H4 1_555 1_555
C12 C10 1_555 1_555
H5 C12 1_555 1_555
C13 C12 1_555 1_555
H6 C13 1_555 1_555
C14 C13 1_555 1_555
H7 C14 1_555 1_555
C15 C16 1_555 1_555
C16 C17 1_555 1_555
C17 H8 1_555 1_555
C18 C17 1_555 1_555
H9 C18 1_555 1_555
C19 C18 1_555 1_555
H10 C19 1_555 1_555
C20 C15 1_555 1_555
H11 C20 1_555 1_555
C21 H12 1_555 1_555
H13 C21 1_555 1_555
C22 C21 1_555 1_555
H14 C22 1_555 1_555
H15 C22 1_555 1_555
N1 C9 1_555 1_555
N2 C9 1_555 1_555
N3 C11 1_555 1_555
O1 Zn1 1_555 1_555
O2 C1 1_555 1_555
O3 C8 1_555 1_555
O4 C8 1_555 1_555
N4 C6 1_555 1_555
H16 N4 1_555 1_555
H17 N4 1_555 1_555
C9B C10B 1_555 1_555
C10B C11B 1_555 1_555
C11B H4B 1_555 1_555
C12B C10B 1_555 1_555
H5B C12B 1_555 1_555
C13B C12B 1_555 1_555
H6B C13B 1_555 1_555
C14B C13B 1_555 1_555
H7B C14B 1_555 1_555
C15B C16B 1_555 1_555
C16B C17B 1_555 1_555
C17B H8B 1_555 1_555
C18B C17B 1_555 1_555
H9B C18B 1_555 1_555
C19B C18B 1_555 1_555
H10B C19B 1_555 1_555
C20B C15B 1_555 1_555
H11B C20B 1_555 1_555
C21B H12B 1_555 1_555
H13B C21B 1_555 1_555
C22B C22 1_555 1_555
H14B C22B 1_555 1_555
H15B C22B 1_555 1_555
N1B C9B 1_555 1_555
N2B C9B 1_555 1_555
N3B C11B 1_555 1_555
Zn1B N1B 1_555 1_555
C1B C2B 1_555 1_555
C2B C3B 1_555 1_555
C3B H1B 1_555 1_555
C4B C3B 1_555 1_555
C5B C4B 1_555 1_555
H2B C5B 1_555 1_555
C6B C5B 1_555 1_555
C7B C2B 1_555 1_555
H3B C7B 1_555 1_555
C8B C4B 1_555 1_555
O1B Zn1B 1_555 1_555
O2B C1B 1_555 1_555
O3B C8B 1_555 1_555
O4B C8B 1_555 1_555
N4B C6B 1_555 1_555
H16B N4B 1_555 1_555
H17B N4B 1_555 1_555
Zn1_2 N3B 1_555 1_555
Zn1A O4B 1_555 1_555
Zn1B_2 N3 1_555 1_555
Zn1C O4 1_555 1_555
N3_2 Zn1B 1_555 1_555
N3B_2 Zn1 1_555 1_555
O4A Zn1B 1_555 1_555
O4C Zn1 1_555 1_555
C1 O1 1_555 1_555
C6 C7 1_555 1_555
C14 N3 1_555 1_555
C15 N1 1_555 1_555
C16 N2 1_555 1_555
C19 C20 1_555 1_555
C21 N2 1_555 1_555
C14B N3B 1_555 1_555
C15B N1B 1_555 1_555
C16B N2B 1_555 1_555
C19B C20B 1_555 1_555
C21B C22B 1_555 1_555
C21B N2B 1_555 1_555
C1B O1B 1_555 1_555
C6B C7B 1_555 1_555

#END
