
#######################################################################
#
#                 Cambridge Crystallographic Data Centre
#                                CCDC 
#
#######################################################################
#
# If this CIF has been generated from an entry in the Cambridge 
# Structural Database, then it will include bibliographic, chemical, 
# crystal, experimental, refinement or atomic coordinate data resulting 
# from the CCDC's data processing and validation procedures.
#
#######################################################################

data_RETCAV
_symmetry_cell_setting           orthorhombic
_symmetry_space_group_name_H-M   'P b c a'
_symmetry_Int_Tables_number      61
_space_group_name_Hall           '-P 2ac 2ab'
loop_
_symmetry_equiv_pos_site_id
_symmetry_equiv_pos_as_xyz
1 x,y,z
2 1/2-x,-y,1/2+z
3 -x,1/2+y,1/2-z
4 1/2+x,1/2-y,-z
5 -x,-y,-z
6 1/2+x,y,1/2-z
7 x,1/2-y,1/2+z
8 1/2-x,1/2+y,z
_cell_length_a                   11.5082(2)
_cell_length_b                   11.2664(2)
_cell_length_c                   27.3565(5)
_cell_angle_alpha                90
_cell_angle_beta                 90
_cell_angle_gamma                90
_cell_volume                     3546.93
loop_
_atom_site_label
_atom_site_type_symbol
_atom_site_fract_x
_atom_site_fract_y
_atom_site_fract_z
Mn1 Mn 0.75480(5) 0.33729(4) 0.675140(18)
O1 O 0.8658(2) 0.3669(2) 0.62636(9)
O2 O 0.8325(2) 0.4283(2) 0.72249(9)
N1 N 0.6719(2) 0.2211(2) 0.63359(10)
N2 N 0.6218(2) 0.3092(2) 0.71987(10)
C1 C 0.8830(3) 0.3087(3) 0.58504(13)
C2 C 0.9783(5) 0.3396(5) 0.55625(17)
H1 H 1.020(4) 0.392(4) 0.5661(17)
C3 C 1.0058(4) 0.2800(5) 0.51435(16)
H2 H 1.082(4) 0.299(4) 0.4976(18)
C4 C 0.9383(4) 0.1871(4) 0.49838(13)
C5 C 0.8413(4) 0.1559(4) 0.52432(14)
H3 H 0.797(3) 0.098(3) 0.5147(14)
C6 C 0.8121(3) 0.2153(3) 0.56779(12)
C7 C 0.7093(3) 0.1763(3) 0.59358(13)
H4 H 0.668(4) 0.109(4) 0.5778(16)
C8 C 0.5707(3) 0.1653(4) 0.65868(15)
H5 H 0.600(4) 0.088(4) 0.6749(15)
H6 H 0.517(3) 0.143(3) 0.6347(13)
C9 C 0.5228(3) 0.2515(4) 0.69464(15)
H7 H 0.473(3) 0.214(3) 0.7194(15)
H8 H 0.478(4) 0.317(4) 0.6764(15)
C10 C 0.6103(3) 0.3486(3) 0.76356(13)
H9 H 0.539(3) 0.335(3) 0.7800(13)
C11 C 0.6949(3) 0.4216(3) 0.78880(13)
C12 C 0.6663(4) 0.4613(3) 0.83629(13)
H10 H 0.592(4) 0.436(3) 0.8487(14)
C13 C 0.7396(4) 0.5356(3) 0.86101(13)
C14 C 0.8434(4) 0.5716(4) 0.83968(15)
H11 H 0.890(3) 0.626(3) 0.8567(13)
C15 C 0.8728(4) 0.5339(3) 0.79375(14)
H12 H 0.941(3) 0.558(3) 0.7790(13)
C16 C 0.7994(3) 0.4590(3) 0.76693(12)
Br1 Br 0.98243(5) 0.10307(4) 0.441404(16)
Br2 Br 0.70007(4) 0.59459(5) 0.923846(16)
N3 N 0.8576(3) 0.1688(3) 0.70029(13)
N4 N 0.8565(3) 0.0827(3) 0.67577(11)
N5 N 0.8533(3) -0.0018(3) 0.65060(12)
Mn1G Mn 0.74520(5) -0.16271(4) 0.675140(18)
N5G N 0.6467(3) 0.4982(3) 0.65060(12)
loop_
_geom_bond_atom_site_label_1
_geom_bond_atom_site_label_2
_geom_bond_site_symmetry_1
_geom_bond_site_symmetry_2
Mn1 O1 1_555 1_555
O1 C1 1_555 1_555
O2 Mn1 1_555 1_555
N1 Mn1 1_555 1_555
N2 Mn1 1_555 1_555
C1 C2 1_555 1_555
C2 H1 1_555 1_555
C3 C2 1_555 1_555
H2 C3 1_555 1_555
C4 C3 1_555 1_555
C5 C4 1_555 1_555
H3 C5 1_555 1_555
C6 C1 1_555 1_555
C7 N1 1_555 1_555
H4 C7 1_555 1_555
C8 N1 1_555 1_555
H5 C8 1_555 1_555
H6 C8 1_555 1_555
C9 N2 1_555 1_555
H7 C9 1_555 1_555
H8 C9 1_555 1_555
C10 N2 1_555 1_555
H9 C10 1_555 1_555
C11 C10 1_555 1_555
C12 C11 1_555 1_555
H10 C12 1_555 1_555
C13 C12 1_555 1_555
C14 C13 1_555 1_555
H11 C14 1_555 1_555
C15 C14 1_555 1_555
H12 C15 1_555 1_555
C16 O2 1_555 1_555
Br1 C4 1_555 1_555
Br2 C13 1_555 1_555
N3 Mn1 1_555 1_555
N4 N3 1_555 1_555
N5 N4 1_555 1_555
Mn1G N5 1_555 1_555
N5G Mn1 1_555 1_555
C5 C6 1_555 1_555
C6 C7 1_555 1_555
C8 C9 1_555 1_555
C11 C16 1_555 1_555
C15 C16 1_555 1_555

#END
