
#######################################################################
#
#                 Cambridge Crystallographic Data Centre
#                                CCDC 
#
#######################################################################
#
# If this CIF has been generated from an entry in the Cambridge 
# Structural Database, then it will include bibliographic, chemical, 
# crystal, experimental, refinement or atomic coordinate data resulting 
# from the CCDC's data processing and validation procedures.
#
#######################################################################

data_RETGED
_symmetry_cell_setting           triclinic
_symmetry_space_group_name_H-M   'P -1'
_symmetry_Int_Tables_number      2
_space_group_name_Hall           '-P 1'
loop_
_symmetry_equiv_pos_site_id
_symmetry_equiv_pos_as_xyz
1 x,y,z
2 -x,-y,-z
_cell_length_a                   6.4521(13)
_cell_length_b                   6.5686(13)
_cell_length_c                   11.661(2)
_cell_angle_alpha                106.19(3)
_cell_angle_beta                 93.57(3)
_cell_angle_gamma                107.21(3)
_cell_volume                     447.678
loop_
_atom_site_label
_atom_site_type_symbol
_atom_site_fract_x
_atom_site_fract_y
_atom_site_fract_z
Pd1 Pd 0.5000 0.5000 0.5000
O1 O 0.3502(5) 0.2797(6) 0.3380(3)
N1 N 0.2125(6) 0.3477(6) 0.5487(4)
C1 C 0.1368(8) 0.2117(8) 0.3298(4)
O2 O 0.0084(6) 0.1153(7) 0.2348(3)
C2 C 0.0544(7) 0.2479(7) 0.4497(4)
C3 C -0.1651(8) 0.1719(8) 0.4579(4)
H1 H -0.2702 0.1002 0.3886
C4 C -0.2272(8) 0.2045(8) 0.5727(5)
H2 H -0.3747 0.1621 0.5815
C5 C -0.0636(8) 0.3017(8) 0.6730(4)
H3 H -0.1018 0.3237 0.7501
C6 C 0.1578(8) 0.3670(7) 0.6599(4)
C7 C 0.3309(7) 0.4337(8) 0.7713(4)
O3 O 0.4786(6) 0.3466(7) 0.7573(3)
O4 O 0.2981(7) 0.5551(7) 0.8670(3)
Na1 Na -0.2052(3) 0.1122(4) 0.05689(19)
O5 O 0.1758(6) 0.2780(7) 0.0240(4)
O6 O -0.4409(7) 0.0501(7) -0.1269(3)
O1A O 0.6498(5) 0.7203(6) 0.6620(3)
N1A N 0.7875(6) 0.6523(6) 0.4513(4)
C1A C 0.8632(8) 0.7883(8) 0.6702(4)
O2A O 0.9916(6) 0.8847(7) 0.7652(3)
C2A C 0.9456(7) 0.7521(7) 0.5503(4)
C3A C 1.1651(8) 0.8281(8) 0.5421(4)
H1A H 1.2702 0.8998 0.6114
C4A C 1.2272(8) 0.7955(8) 0.4273(5)
H2A H 1.3747 0.8379 0.4185
C5A C 1.0636(8) 0.6983(8) 0.3270(4)
H3A H 1.1018 0.6763 0.2499
C6A C 0.8422(8) 0.6330(7) 0.3401(4)
C7A C 0.6691(7) 0.5663(8) 0.2287(4)
O3A O 0.5214(6) 0.6534(7) 0.2427(3)
O4A O 0.7019(7) 0.4449(7) 0.1330(3)
O4A_2 O -0.2981(7) 0.4449(7) 0.1330(3)
O4_2 O 1.2981(7) 0.5551(7) 0.8670(3)
Na1A Na 1.2052(3) 0.8878(4) 0.94311(19)
Na1A_2 Na 0.2052(3) 0.8878(4) 0.94311(19)
Na1A_3 Na 0.2052(3) -0.1122(4) -0.05689(19)
Na1A_4 Na -0.7948(3) -0.1122(4) -0.05689(19)
Na1_2 Na 0.7948(3) 0.1122(4) 0.05689(19)
O5A O -0.1758(6) -0.2780(7) -0.0240(4)
O5_2 O 1.1758(6) 1.2780(7) 1.0240(4)
O5A_2 O 0.8242(6) 0.7220(7) 0.9760(4)
O6A O -0.5591(7) -0.0501(7) 0.1269(3)
O6_2 O 1.5591(7) 1.0501(7) 0.8731(3)
O6A_2 O 1.4409(7) 0.9499(7) 1.1269(3)
loop_
_geom_bond_atom_site_label_1
_geom_bond_atom_site_label_2
_geom_bond_site_symmetry_1
_geom_bond_site_symmetry_2
Pd1 O1 1_555 1_555
O1 C1 1_555 1_555
N1 Pd1 1_555 1_555
C1 O2 1_555 1_555
O2 Na1 1_555 1_555
C2 N1 1_555 1_555
C3 C2 1_555 1_555
H1 C3 1_555 1_555
C4 C3 1_555 1_555
H2 C4 1_555 1_555
C5 C4 1_555 1_555
H3 C5 1_555 1_555
C6 N1 1_555 1_555
C7 C6 1_555 1_555
O3 C7 1_555 1_555
O4 C7 1_555 1_555
Na1 O5 1_555 1_555
O5 Na1A_3 1_555 1_555
O6 Na1 1_555 1_555
O1A Pd1 1_555 1_555
N1A Pd1 1_555 1_555
C1A O1A 1_555 1_555
O2A C1A 1_555 1_555
C2A N1A 1_555 1_555
C3A C2A 1_555 1_555
H1A C3A 1_555 1_555
C4A C3A 1_555 1_555
H2A C4A 1_555 1_555
C5A C4A 1_555 1_555
H3A C5A 1_555 1_555
C6A N1A 1_555 1_555
C7A C6A 1_555 1_555
O3A C7A 1_555 1_555
O4A C7A 1_555 1_555
O4A_2 Na1 1_555 1_555
O4_2 Na1A 1_555 1_555
Na1A O2A 1_555 1_555
Na1A_2 O4 1_555 1_555
Na1A_3 O5A 1_555 1_555
Na1A_4 O6 1_555 1_555
Na1_2 O4A 1_555 1_555
O5A Na1 1_555 1_555
O5_2 Na1A 1_555 1_555
O5A_2 Na1A 1_555 1_555
O6A Na1 1_555 1_555
O6_2 Na1A 1_555 1_555
O6A_2 Na1A 1_555 1_555
C1 C2 1_555 1_555
C5 C6 1_555 1_555
C1A C2A 1_555 1_555
C5A C6A 1_555 1_555
Na1A_4 O6A 1_555 1_555

#END
