
#######################################################################
#
#                 Cambridge Crystallographic Data Centre
#                                CCDC 
#
#######################################################################
#
# If this CIF has been generated from an entry in the Cambridge 
# Structural Database, then it will include bibliographic, chemical, 
# crystal, experimental, refinement or atomic coordinate data resulting 
# from the CCDC's data processing and validation procedures.
#
#######################################################################

data_RETHIJ
_symmetry_cell_setting           monoclinic
_symmetry_space_group_name_H-M   'P 21'
_symmetry_Int_Tables_number      4
_space_group_name_Hall           'P 2yb'
loop_
_symmetry_equiv_pos_site_id
_symmetry_equiv_pos_as_xyz
1 x,y,z
2 -x,1/2+y,-z
_cell_length_a                   9.6120(10)
_cell_length_b                   16.4062(17)
_cell_length_c                   14.7042(15)
_cell_angle_alpha                90
_cell_angle_beta                 104.0780(10)
_cell_angle_gamma                90
_cell_volume                     2249.16
loop_
_atom_site_label
_atom_site_type_symbol
_atom_site_fract_x
_atom_site_fract_y
_atom_site_fract_z
C1 C 0.1360(6) 0.0877(4) 0.1822(4)
C2 C 0.2759(6) 0.0830(4) 0.2541(3)
C3 C 0.2870(6) 0.1113(4) 0.3455(4)
H1 H 0.2066 0.1335 0.3608
C4 C 0.4123(6) 0.1071(4) 0.4122(4)
H2 H 0.4178 0.1283 0.4717
C5 C 0.5337(6) 0.0708(5) 0.3918(4)
C6 C 0.5226(6) 0.0442(5) 0.3000(4)
H3 H 0.6024 0.0217 0.2842
C7 C 0.3973(7) 0.0506(4) 0.2336(4)
H4 H 0.3931 0.0328 0.1729
C8 C 0.6933(6) 0.0621(4) 0.5550(4)
C9 C 0.5906(6) 0.0454(5) 0.6044(4)
H5 H 0.4971 0.0340 0.5716
C10 C 0.6242(6) 0.0453(4) 0.7018(4)
H6 H 0.5540 0.0331 0.7334
C11 C 0.7624(6) 0.0635(4) 0.7516(3)
C12 C 0.8665(6) 0.0792(5) 0.7039(4)
H7 H 0.9603 0.0893 0.7372
C13 C 0.8323(6) 0.0802(5) 0.6060(4)
H8 H 0.9025 0.0930 0.5746
C14 C 0.7992(6) 0.0675(4) 0.8554(4)
C15 C 0.0000(7) -0.0987(4) 0.1190(5)
H9 H 0.0755 -0.0656 0.1496
C16 C -0.0995(8) -0.2350(5) 0.0901(6)
H10 H -0.1773 -0.2050 0.0511
H11 H -0.1334 -0.2639 0.1372
H12 H -0.0625 -0.2731 0.0524
C17 C 0.1430(13) -0.2130(6) 0.1938(7)
H13 H 0.2192 -0.1738 0.2029
H14 H 0.1693 -0.2607 0.1641
H15 H 0.1261 -0.2276 0.2534
Cd1 Cd -0.12168(4) 0.07619(2) 0.04861(2)
N1 N 0.0145(7) -0.1783(4) 0.1353(5)
N2 N 0.6605(5) 0.0668(5) 0.4563(3)
H16 H 0.7343 0.0672 0.4330
O1 O 0.0201(4) 0.0975(3) 0.2067(3)
O2 O 0.1363(4) 0.0801(4) 0.0973(2)
O3 O 0.9282(4) 0.0740(3) 0.9003(2)
O4 O 0.7021(4) 0.0659(4) 0.8997(3)
O5 O -0.1612(5) 0.2142(3) 0.0485(3)
H17 H -0.2146 0.2282 -0.0041
H18 H -0.2023 0.2261 0.0919
O6 O -0.3101(5) 0.0574(3) 0.1144(3)
H19 H -0.3951 0.0465 0.0661
H20 H -0.3241 0.1058 0.1478
O7 O -0.1027(5) -0.0649(3) 0.0680(3)
Cd1_2 Cd 0.87832(4) 0.07619(2) 1.04861(2)
O3_2 O -0.0718(4) 0.0740(3) -0.0997(2)
O4_2 O -0.2979(4) 0.0659(4) -0.1003(3)
C18 C 0.4843(6) 0.8595(4) 0.0688(4)
C19 C 0.5692(6) 0.8240(4) 0.1586(4)
C20 C 0.5400(6) 0.7464(4) 0.1852(4)
H21 H 0.4660 0.7163 0.1475
C21 C 0.6215(7) 0.7132(4) 0.2687(4)
H22 H 0.6004 0.6612 0.2867
C22 C 0.7335(6) 0.7567(4) 0.3253(4)
C23 C 0.7688(6) 0.8330(4) 0.2949(4)
H23 H 0.8472 0.8616 0.3299
C24 C 0.6867(6) 0.8656(4) 0.2128(4)
H24 H 0.7104 0.9165 0.1931
C25 C 0.8884(6) 0.7576(4) 0.4893(3)
C26 C 0.9787(6) 0.7071(4) 0.5562(4)
H25 H 0.9833 0.6514 0.5451
C27 C 1.0610(6) 0.7408(4) 0.6388(4)
H26 H 1.1189 0.7071 0.6831
C28 C 1.0582(6) 0.8232(4) 0.6560(3)
C29 C 0.9672(6) 0.8730(4) 0.5904(4)
H27 H 0.9651 0.9289 0.6009
C30 C 0.8800(6) 0.8397(4) 0.5099(4)
H28 H 0.8149 0.8728 0.4690
C31 C 1.1523(6) 0.8594(4) 0.7427(4)
C32 C 0.6363(7) 0.8764(4) -0.1423(5)
H29 H 0.6724 0.8897 -0.0795
C33 C 0.6790(9) 0.8264(6) -0.2871(5)
H30 H 0.5763 0.8229 -0.3038
H31 H 0.7191 0.7741 -0.2949
H32 H 0.7096 0.8655 -0.3269
C34 C 0.8810(8) 0.8499(7) -0.1518(6)
H33 H 0.8994 0.8646 -0.0868
H34 H 0.9275 0.8881 -0.1841
H35 H 0.9175 0.7962 -0.1574
Cd2 Cd 0.33843(4) 0.92334(2) -0.10194(2)
N3 N 0.7259(5) 0.8512(4) -0.1933(4)
N4 N 0.8121(6) 0.7211(3) 0.4078(3)
H36 H 0.8132 0.6687 0.4080
O8 O 0.3875(5) 0.8171(3) 0.0151(3)
O9 O 0.5072(4) 0.9316(4) 0.0454(3)
O10 O 1.2104(4) 0.8128(3) 0.8097(2)
O11 O 1.1733(5) 0.9360(3) 0.7480(3)
O12 O 0.1593(5) 0.9727(3) -0.0422(3)
H37 H 0.1216 1.0138 -0.0740
H38 H 0.1932 0.9868 0.0145
O13 O 0.4112(5) 1.0542(3) -0.1214(3)
H39 H 0.3928 1.0844 -0.0789
H40 H 0.5009 1.0545 -0.1174
O14 O 0.5058(5) 0.8822(3) -0.1775(3)
Cd2_2 Cd 1.33843(4) 0.92334(2) 0.89806(2)
O10_2 O 0.2104(4) 0.8128(3) -0.1903(2)
O11_2 O 0.1733(5) 0.9360(3) -0.2520(3)
C35 C 0.4548(12) 0.8229(7) 0.4064(7)
H41 H 0.4347 0.7715 0.3747
H42 H 0.5392 0.8179 0.4568
H43 H 0.4704 0.8636 0.3631
C36 C 0.3148(13) 0.8077(7) 0.5282(7)
H44 H 0.2738 0.7546 0.5134
H45 H 0.2507 0.8408 0.5533
H46 H 0.4049 0.8029 0.5736
C37 C 0.2653(13) 0.9131(7) 0.4101(7)
H47 H 0.2946 0.9420 0.3636
N5 N 0.3377(6) 0.8459(5) 0.4427(4)
O15 O 0.1637(6) 0.9396(4) 0.4366(4)
O16 O 0.0909(5) 0.5234(3) 0.6417(3)
H48 H 0.0628 0.5197 0.5824
H49 H 0.0207 0.5148 0.6660
O17 O 0.2101(6) 0.0420(3) 0.6021(4)
H50 H 0.2130 0.0481 0.5452
H51 H 0.1755 -0.0046 0.6092
O18 O 0.4248(8) 0.6968(4) 0.8240(6)
H52 H 0.5100 0.7094 0.8224
H53 H 0.3809 0.7393 0.8349
O19 O 0.3491(9) 0.1573(5) 0.0149(5)
H54 H 0.2861 0.1349 0.0384
H55 H 0.4321 0.1472 0.0491
loop_
_geom_bond_atom_site_label_1
_geom_bond_atom_site_label_2
_geom_bond_site_symmetry_1
_geom_bond_site_symmetry_2
C1 C2 1_555 1_555
C2 C3 1_555 1_555
C3 H1 1_555 1_555
C4 C3 1_555 1_555
H2 C4 1_555 1_555
C5 C4 1_555 1_555
C6 C5 1_555 1_555
H3 C6 1_555 1_555
C7 C2 1_555 1_555
H4 C7 1_555 1_555
C8 C9 1_555 1_555
C9 H5 1_555 1_555
C10 C9 1_555 1_555
H6 C10 1_555 1_555
C11 C10 1_555 1_555
C12 C11 1_555 1_555
H7 C12 1_555 1_555
C13 C8 1_555 1_555
H8 C13 1_555 1_555
C14 C11 1_555 1_555
C15 H9 1_555 1_555
C16 H10 1_555 1_555
H11 C16 1_555 1_555
H12 C16 1_555 1_555
C17 H13 1_555 1_555
H14 C17 1_555 1_555
H15 C17 1_555 1_555
Cd1 O1 1_555 1_555
N1 C15 1_555 1_555
N2 C5 1_555 1_555
H16 N2 1_555 1_555
O1 C1 1_555 1_555
O2 C1 1_555 1_555
O3 C14 1_555 1_555
O4 C14 1_555 1_555
O5 Cd1 1_555 1_555
H17 O5 1_555 1_555
H18 O5 1_555 1_555
O6 Cd1 1_555 1_555
H19 O6 1_555 1_555
H20 O6 1_555 1_555
O7 C15 1_555 1_555
C18 C19 1_555 1_555
C19 C20 1_555 1_555
C20 H21 1_555 1_555
C21 C20 1_555 1_555
H22 C21 1_555 1_555
C22 C21 1_555 1_555
C23 C22 1_555 1_555
H23 C23 1_555 1_555
C24 C19 1_555 1_555
H24 C24 1_555 1_555
C25 C26 1_555 1_555
C26 H25 1_555 1_555
C27 C26 1_555 1_555
H26 C27 1_555 1_555
C28 C27 1_555 1_555
C29 C28 1_555 1_555
H27 C29 1_555 1_555
C30 C25 1_555 1_555
H28 C30 1_555 1_555
C31 C28 1_555 1_555
C32 H29 1_555 1_555
C33 H30 1_555 1_555
H31 C33 1_555 1_555
H32 C33 1_555 1_555
C34 H33 1_555 1_555
H34 C34 1_555 1_555
H35 C34 1_555 1_555
Cd2 O8 1_555 1_555
N3 C32 1_555 1_555
N4 C22 1_555 1_555
H36 N4 1_555 1_555
O8 C18 1_555 1_555
O9 C18 1_555 1_555
O10 C31 1_555 1_555
O11 C31 1_555 1_555
O12 Cd2 1_555 1_555
H37 O12 1_555 1_555
H38 O12 1_555 1_555
O13 Cd2 1_555 1_555
H39 O13 1_555 1_555
H40 O13 1_555 1_555
O14 C32 1_555 1_555
C35 H41 1_555 1_555
H42 C35 1_555 1_555
H43 C35 1_555 1_555
C36 H44 1_555 1_555
H45 C36 1_555 1_555
H46 C36 1_555 1_555
C37 H47 1_555 1_555
N5 C35 1_555 1_555
O15 C37 1_555 1_555
O16 H48 1_555 1_555
H49 O16 1_555 1_555
O17 H50 1_555 1_555
H51 O17 1_555 1_555
O18 H52 1_555 1_555
H53 O18 1_555 1_555
O19 H54 1_555 1_555
H55 O19 1_555 1_555
Cd1_2 O3 1_555 1_555
O3_2 Cd1 1_555 1_555
O4_2 Cd1 1_555 1_555
Cd2_2 O10 1_555 1_555
O10_2 Cd2 1_555 1_555
O11_2 Cd2 1_555 1_555
C6 C7 1_555 1_555
C8 N2 1_555 1_555
C12 C13 1_555 1_555
C16 N1 1_555 1_555
C17 N1 1_555 1_555
Cd1 O2 1_555 1_555
Cd1 O7 1_555 1_555
O4 Cd1_2 1_555 1_555
C23 C24 1_555 1_555
C25 N4 1_555 1_555
C29 C30 1_555 1_555
C33 N3 1_555 1_555
C34 N3 1_555 1_555
Cd2 O9 1_555 1_555
Cd2 O14 1_555 1_555
O11 Cd2_2 1_555 1_555
C36 N5 1_555 1_555
C37 N5 1_555 1_555

#END
