
#######################################################################
#
#                 Cambridge Crystallographic Data Centre
#                                CCDC 
#
#######################################################################
#
# If this CIF has been generated from an entry in the Cambridge 
# Structural Database, then it will include bibliographic, chemical, 
# crystal, experimental, refinement or atomic coordinate data resulting 
# from the CCDC's data processing and validation procedures.
#
#######################################################################

data_RETTUH01
_symmetry_cell_setting           triclinic
_symmetry_space_group_name_H-M   'P -1'
_symmetry_Int_Tables_number      2
_space_group_name_Hall           '-P 1'
loop_
_symmetry_equiv_pos_site_id
_symmetry_equiv_pos_as_xyz
1 x,y,z
2 -x,-y,-z
_cell_length_a                   5.3600(3)
_cell_length_b                   8.5693(7)
_cell_length_c                   13.4999(11)
_cell_angle_alpha                98.830(4)
_cell_angle_beta                 93.800(5)
_cell_angle_gamma                95.524(5)
_cell_volume                     607.801
loop_
_atom_site_label
_atom_site_type_symbol
_atom_site_fract_x
_atom_site_fract_y
_atom_site_fract_z
O1 O 0.3416(2) 0.16457(16) 0.49603(9)
O2 O 0.6436(2) 0.22585(15) 0.39722(9)
O3 O 0.5327(2) 0.56317(14) 0.38665(9)
O4 O 0.1375(2) 0.48863(14) 0.41454(9)
C1 C 0.3404(3) 0.0046(2) 0.33734(13)
C2 C 0.4470(4) -0.0297(2) 0.24678(15)
H1 H 0.5954 0.0318 0.2345
C3 C 0.3374(4) -0.1534(3) 0.17438(16)
H2 H 0.4111 -0.1767 0.1125
C4 C 0.1213(4) -0.2434(2) 0.19147(15)
H3 H 0.0463 -0.3280 0.1414
C5 C 0.0155(4) -0.2099(2) 0.28106(15)
H4 H -0.1327 -0.2720 0.2930
C6 C 0.1233(3) -0.0863(2) 0.35409(15)
H5 H 0.0486 -0.0635 0.4158
C7 C 0.4566(3) 0.1406(2) 0.41272(13)
C8 C 0.2738(3) 0.4015(2) 0.25246(13)
C9 C 0.4525(3) 0.4232(2) 0.18472(14)
H6 H 0.6004 0.4942 0.2055
C10 C 0.4170(4) 0.3421(2) 0.08652(15)
H7 H 0.5383 0.3594 0.0401
C11 C 0.2045(4) 0.2362(2) 0.05679(15)
H8 H 0.1803 0.1799 -0.0101
C12 C 0.0269(4) 0.2121(3) 0.12436(15)
H9 H -0.1184 0.1386 0.1039
C13 C 0.0605(3) 0.2947(2) 0.22178(14)
H10 H -0.0626 0.2784 0.2677
C14 C 0.3151(3) 0.4908(2) 0.35824(13)
Li1 Li 0.7918(5) 0.4407(4) 0.4387(2)
H11 H 0.408(5) 0.271(4) 0.541(2)
O4_2 O 1.1375(2) 0.48863(14) 0.41454(9)
O4A O 0.8625(2) 0.51137(14) 0.58546(9)
Li1_2 Li -0.2082(5) 0.4407(4) 0.4387(2)
Li1A Li 0.2082(5) 0.5593(4) 0.5613(2)
loop_
_geom_bond_atom_site_label_1
_geom_bond_atom_site_label_2
_geom_bond_site_symmetry_1
_geom_bond_site_symmetry_2
O1 C7 1_555 1_555
O2 C7 1_555 1_555
O3 C14 1_555 1_555
O4 C14 1_555 1_555
C1 C2 1_555 1_555
C2 H1 1_555 1_555
C3 C2 1_555 1_555
H2 C3 1_555 1_555
C4 C3 1_555 1_555
H3 C4 1_555 1_555
C5 C4 1_555 1_555
H4 C5 1_555 1_555
C6 C1 1_555 1_555
H5 C6 1_555 1_555
C7 C1 1_555 1_555
C8 C9 1_555 1_555
C9 H6 1_555 1_555
C10 C9 1_555 1_555
H7 C10 1_555 1_555
C11 C10 1_555 1_555
H8 C11 1_555 1_555
C12 C11 1_555 1_555
H9 C12 1_555 1_555
C13 C8 1_555 1_555
H10 C13 1_555 1_555
C14 C8 1_555 1_555
Li1 O2 1_555 1_555
H11 O1 1_555 1_555
O4_2 Li1 1_555 1_555
O4A Li1 1_555 1_555
Li1_2 O4 1_555 1_555
Li1A O4 1_555 1_555
O3 Li1 1_555 1_555
C5 C6 1_555 1_555
C12 C13 1_555 1_555

#END
