
#######################################################################
#
#                 Cambridge Crystallographic Data Centre
#                                CCDC 
#
#######################################################################
#
# If this CIF has been generated from an entry in the Cambridge 
# Structural Database, then it will include bibliographic, chemical, 
# crystal, experimental, refinement or atomic coordinate data resulting 
# from the CCDC's data processing and validation procedures.
#
#######################################################################

data_RETTUH
_symmetry_cell_setting           triclinic
_symmetry_space_group_name_H-M   'P -1'
_symmetry_Int_Tables_number      2
_space_group_name_Hall           '-P 1'
loop_
_symmetry_equiv_pos_site_id
_symmetry_equiv_pos_as_xyz
1 x,y,z
2 -x,-y,-z
_cell_length_a                   5.3629(11)
_cell_length_b                   8.6472(17)
_cell_length_c                   13.516(3)
_cell_angle_alpha                99.36(3)
_cell_angle_beta                 93.73(3)
_cell_angle_gamma                95.70(3)
_cell_volume                     613.28
loop_
_atom_site_label
_atom_site_type_symbol
_atom_site_fract_x
_atom_site_fract_y
_atom_site_fract_z
O1 O 0.36360(17) 0.51152(12) 0.58557(7)
O2 O -0.03318(17) 0.43829(11) 0.61301(7)
O3 O -0.1596(2) 0.16620(13) 0.49560(8)
H1 H -0.0954 0.2509 0.5318
O4 O 0.1417(2) 0.22675(12) 0.39717(8)
C1 C 0.2268(2) 0.59913(15) 0.74748(9)
C2 C 0.1850(2) 0.50984(15) 0.64146(9)
C3 C 0.4408(3) 0.70573(19) 0.77805(11)
H2 H 0.5635 0.7218 0.7320
C4 C -0.1601(3) 0.00489(15) 0.33751(10)
C5 C 0.0479(3) 0.57624(18) 0.81540(11)
H3 H -0.0993 0.5046 0.7948
C6 C -0.0437(2) 0.14257(15) 0.41259(10)
C7 C -0.3759(3) -0.08581(19) 0.35477(12)
H4 H -0.4502 -0.0624 0.4166
C8 C 0.4748(3) 0.7888(2) 0.87625(13)
H5 H 0.6198 0.8623 0.8969
C9 C 0.2981(3) 0.7644(2) 0.94366(12)
H6 H 0.3227 0.8204 1.0107
C10 C -0.3779(3) -0.24466(19) 0.19201(13)
H7 H -0.4516 -0.3301 0.1421
C11 C 0.0852(4) 0.6585(2) 0.91366(12)
H8 H -0.0358 0.6419 0.9603
C12 C -0.0537(3) -0.0292(2) 0.24700(13)
H9 H 0.0939 0.0325 0.2345
C13 C -0.4839(3) -0.21086(19) 0.28173(13)
H10 H -0.6313 -0.2731 0.2939
C14 C -0.1636(4) -0.1539(2) 0.17459(14)
H11 H -0.0908 -0.1771 0.1124
Li1 Li 0.2916(4) 0.4408(3) 0.43872(18)
O1A O 0.63640(17) 0.48848(12) 0.41443(7)
O2A O 0.03318(17) 0.56171(11) 0.38699(7)
Li1A Li -0.2916(4) 0.5592(3) 0.56128(18)
Li1A_2 Li 0.7084(4) 0.5592(3) 0.56128(18)
loop_
_geom_bond_atom_site_label_1
_geom_bond_atom_site_label_2
_geom_bond_site_symmetry_1
_geom_bond_site_symmetry_2
O1 C2 1_555 1_555
O2 C2 1_555 1_555
O3 H1 1_555 1_555
O4 C6 1_555 1_555
C1 C2 1_555 1_555
C3 C1 1_555 1_555
H2 C3 1_555 1_555
C4 C6 1_555 1_555
C5 C1 1_555 1_555
H3 C5 1_555 1_555
C6 O3 1_555 1_555
C7 C4 1_555 1_555
H4 C7 1_555 1_555
C8 C3 1_555 1_555
H5 C8 1_555 1_555
C9 C8 1_555 1_555
H6 C9 1_555 1_555
C10 H7 1_555 1_555
C11 C5 1_555 1_555
H8 C11 1_555 1_555
C12 C4 1_555 1_555
H9 C12 1_555 1_555
C13 C7 1_555 1_555
H10 C13 1_555 1_555
C14 C10 1_555 1_555
H11 C14 1_555 1_555
Li1 O1 1_555 1_555
O1A Li1 1_555 1_555
O2A Li1 1_555 1_555
Li1A O2 1_555 1_555
Li1A_2 O1 1_555 1_555
O4 Li1 1_555 1_555
C9 C11 1_555 1_555
C10 C13 1_555 1_555
C12 C14 1_555 1_555
O1A Li1A_2 1_555 1_555

#END
