
#######################################################################
#
#                 Cambridge Crystallographic Data Centre
#                                CCDC 
#
#######################################################################
#
# If this CIF has been generated from an entry in the Cambridge 
# Structural Database, then it will include bibliographic, chemical, 
# crystal, experimental, refinement or atomic coordinate data resulting 
# from the CCDC's data processing and validation procedures.
#
#######################################################################

data_RETVUJ
_symmetry_cell_setting           monoclinic
_symmetry_space_group_name_H-M   'P 21'
_symmetry_Int_Tables_number      4
_space_group_name_Hall           'P 2yb'
loop_
_symmetry_equiv_pos_site_id
_symmetry_equiv_pos_as_xyz
1 x,y,z
2 -x,1/2+y,-z
_cell_length_a                   10.6283(3)
_cell_length_b                   19.6048(5)
_cell_length_c                   14.2727(3)
_cell_angle_alpha                90
_cell_angle_beta                 103.831(2)
_cell_angle_gamma                90
_cell_volume                     2887.71
loop_
_atom_site_label
_atom_site_type_symbol
_atom_site_fract_x
_atom_site_fract_y
_atom_site_fract_z
Mn1 Mn 0.12942(8) 0.20331(4) 0.47758(6)
Mn2 Mn -0.07073(9) 0.07885(5) 0.47041(6)
Mn3 Mn 0.13091(8) 0.15327(4) -0.00183(6)
Mn4 Mn -0.07174(9) 0.27740(5) -0.00709(6)
Cl1 Cl -0.13866(14) 0.00697(7) 0.33772(9)
Cl2 Cl -0.09814(15) 0.02475(8) 0.61252(10)
Cl3 Cl -0.14389(16) 0.34375(8) -0.14554(10)
Cl4 Cl -0.11295(15) 0.34084(8) 0.12342(10)
O1 O -0.0537(4) 0.1851(2) 0.4456(3)
O2 O 0.3079(4) 0.2119(2) 0.4937(3)
O3 O -0.2724(4) 0.1342(2) 0.4539(3)
O4 O 0.5377(4) 0.1922(2) 0.6173(3)
O5 O 0.1292(4) 0.1067(2) 0.5005(3)
O6 O 0.2067(5) 0.0058(3) 0.6555(3)
H1 H 0.1296 0.0104 0.6541
O7 O -0.0501(4) 0.1703(2) -0.0305(3)
O8 O 0.3084(4) 0.1484(2) 0.0125(3)
O9 O -0.2707(4) 0.2198(2) -0.0245(3)
O10 O 0.5374(4) 0.1578(3) 0.1370(3)
O11 O 0.1306(4) 0.2480(2) 0.0310(3)
O12 O 0.1907(5) 0.3582(3) 0.1781(3)
H2 H 0.1147 0.3479 0.1734
O13 O 0.1289(4) 0.1813(2) 0.8297(3)
O14 O 0.1218(4) 0.1890(2) 0.3096(3)
N1 N 0.0925(5) 0.3083(3) 0.4577(3)
N2 N 0.1347(4) 0.2324(3) 0.6372(3)
N3 N 0.0979(5) 0.0523(2) -0.0490(3)
N4 N 0.1385(4) 0.0990(3) 0.1513(3)
C1 C -0.1568(5) 0.2275(3) 0.4175(4)
C2 C -0.2782(6) 0.2007(4) 0.4209(4)
C3 C -0.3876(6) 0.2380(3) 0.3901(4)
H3 H -0.4671 0.2196 0.3936
C4 C -0.3827(6) 0.3044(3) 0.3527(4)
C5 C -0.2621(6) 0.3306(3) 0.3501(4)
H4 H -0.2565 0.3743 0.3263
C6 C -0.1482(5) 0.2922(3) 0.3828(4)
C7 C -0.0197(5) 0.3214(3) 0.3726(4)
H5 H 0.0006 0.3021 0.3154
H6 H -0.0293 0.3703 0.3629
C8 C 0.2067(6) 0.3411(3) 0.4313(4)
H7 H 0.1897 0.3894 0.4212
H8 H 0.2165 0.3218 0.3708
C9 C 0.3327(6) 0.3319(3) 0.5067(4)
C10 C 0.4020(6) 0.3889(3) 0.5505(5)
H9 H 0.3691 0.4324 0.5339
C11 C 0.5181(7) 0.3815(4) 0.6178(5)
C12 C 0.5657(6) 0.3152(4) 0.6397(4)
H10 H 0.6455 0.3092 0.6831
C13 C 0.4972(6) 0.2587(3) 0.5985(4)
C14 C 0.3764(6) 0.2668(3) 0.5311(4)
C15 C 0.0653(6) 0.3393(3) 0.5463(4)
H11 H -0.026 0.3338 0.5442
H12 H 0.0832 0.3879 0.5464
C16 C 0.1454(6) 0.3079(3) 0.6401(4)
H13 H 0.2356 0.3209 0.6491
H14 H 0.1149 0.3252 0.6944
C17 C 0.2459(5) 0.1984(3) 0.7042(4)
H15 H 0.3261 0.216 0.6926
H16 H 0.2426 0.1499 0.6904
C18 C 0.2468(5) 0.2086(3) 0.8092(4)
H17 H 0.3216 0.1859 0.8493
H18 H 0.2535 0.2569 0.8244
C19 C 0.0184(5) 0.2170(3) 0.7700(4)
H19 H 0.0237 0.2651 0.7864
H20 H -0.061 0.199 0.7825
C20 C 0.0158(5) 0.2085(3) 0.6644(4)
H21 H 0.003 0.1606 0.6477
H22 H -0.0579 0.2333 0.6265
C21 C -0.3933(7) 0.0976(4) 0.4407(6)
H23 H -0.4489 0.121 0.4741
H24 H -0.3767 0.0523 0.4661
H25 H -0.4346 0.0953 0.3732
C22 C -0.5030(6) 0.3456(4) 0.3152(5)
H26 H -0.516 0.3761 0.3647
H27 H -0.5762 0.3156 0.2969
H28 H -0.494 0.3715 0.2601
C23 C 0.6696(6) 0.1827(4) 0.6668(5)
H29 H 0.7243 0.2083 0.6351
H30 H 0.6911 0.1351 0.6664
H31 H 0.6822 0.1981 0.7322
C24 C 0.5922(8) 0.4419(5) 0.6666(6)
H32 H 0.6084 0.4729 0.6188
H33 H 0.6731 0.4269 0.707
H34 H 0.5425 0.4646 0.7053
C25 C 0.2433(6) 0.0654(3) 0.5142(4)
H35 H 0.316 0.0893 0.5552
H36 H 0.2636 0.057 0.4524
C26 C 0.2222(7) -0.0014(4) 0.5602(5)
H37 H 0.1457 -0.0233 0.521
H38 H 0.2956 -0.0311 0.5612
C27 C -0.1537(6) 0.1317(3) -0.0729(4)
C28 C -0.2763(6) 0.1569(3) -0.0698(4)
C29 C -0.3868(6) 0.1213(3) -0.1132(4)
H39 H -0.4675 0.1381 -0.1102
C30 C -0.3788(6) 0.0611(4) -0.1609(4)
C31 C -0.2577(6) 0.0358(3) -0.1635(4)
H40 H -0.2524 -0.0054 -0.1946
C32 C -0.1427(6) 0.0707(3) -0.1203(4)
C33 C -0.0158(6) 0.0457(3) -0.1355(4)
H41 H 0.0038 0.0708 -0.1888
H42 H -0.0252 -0.002 -0.1542
C34 C 0.2126(6) 0.0262(3) -0.0842(4)
H43 H 0.1955 -0.0205 -0.1059
H44 H 0.2211 0.0532 -0.1392
C35 C 0.3391(6) 0.0284(3) -0.0088(4)
C36 C 0.4130(6) -0.0308(3) 0.0182(4)
H45 H 0.3833 -0.0724 -0.0098
C37 C 0.5307(6) -0.0276(4) 0.0865(5)
C38 C 0.5739(6) 0.0349(4) 0.1265(4)
H46 H 0.6528 0.0373 0.1719
C39 C 0.5023(6) 0.0941(3) 0.1005(4)
C40 C 0.3812(6) 0.0909(3) 0.0336(4)
C41 C 0.0721(6) 0.0085(3) 0.0288(4)
H47 H 0.0877 -0.0387 0.0145
H48 H -0.0185 0.0128 0.0298
C42 C 0.1547(6) 0.0262(3) 0.1275(4)
H49 H 0.1304 -0.0026 0.1756
H50 H 0.245 0.0175 0.1291
C43 C 0.2527(5) 0.1185(3) 0.2317(4)
H51 H 0.2631 0.0852 0.2832
H52 H 0.3308 0.1181 0.2078
C44 C 0.2357(5) 0.1875(3) 0.2707(4)
H53 H 0.3115 0.199 0.3211
H54 H 0.2269 0.2211 0.2198
C45 C 0.0105(5) 0.1749(3) 0.2303(4)
H55 H 0.0054 0.209 0.1803
H56 H -0.0682 0.1775 0.2532
C46 C 0.0213(5) 0.1056(3) 0.1892(4)
H57 H 0.0238 0.0715 0.2389
H58 H -0.0548 0.0969 0.1375
C47 C -0.3913(6) 0.2573(4) -0.0384(5)
H59 H -0.4307 0.2609 -0.1062
H60 H -0.3742 0.3022 -0.0113
H61 H -0.4489 0.2337 -0.007
C48 C -0.5000(6) 0.0240(4) -0.2108(6)
H62 H -0.5247 -0.0071 -0.1664
H63 H -0.4843 -0.001 -0.2647
H64 H -0.5684 0.0563 -0.2332
C49 C 0.6723(6) 0.1659(4) 0.1828(4)
H65 H 0.6931 0.1396 0.2412
H66 H 0.6905 0.2131 0.1978
H67 H 0.7237 0.1503 0.1401
C50 C 0.6088(8) -0.0909(4) 0.1205(7)
H68 H 0.6035 -0.1016 0.1851
H69 H 0.6977 -0.0832 0.1195
H70 H 0.575 -0.1283 0.0786
C51 C 0.2443(6) 0.2897(3) 0.0486(4)
H71 H 0.2738 0.2942 -0.0103
H72 H 0.3127 0.2681 0.0968
C52 C 0.2165(7) 0.3600(3) 0.0837(5)
H73 H 0.2904 0.3894 0.0853
H74 H 0.1423 0.3794 0.0384
Mn3_2 Mn 0.13091(8) 0.15327(4) 0.99817(6)
O13_2 O 0.1289(4) 0.1813(2) -0.1703(3)
loop_
_geom_bond_atom_site_label_1
_geom_bond_atom_site_label_2
_geom_bond_site_symmetry_1
_geom_bond_site_symmetry_2
Mn1 O1 1_555 1_555
Mn2 Cl1 1_555 1_555
Mn3 O7 1_555 1_555
Mn4 Cl3 1_555 1_555
Cl2 Mn2 1_555 1_555
Cl4 Mn4 1_555 1_555
O1 Mn2 1_555 1_555
O2 Mn1 1_555 1_555
O3 Mn2 1_555 1_555
O4 C13 1_555 1_555
O5 Mn1 1_555 1_555
O6 H1 1_555 1_555
O7 Mn4 1_555 1_555
O8 Mn3 1_555 1_555
O9 Mn4 1_555 1_555
O10 C39 1_555 1_555
O11 Mn3 1_555 1_555
O12 H2 1_555 1_555
O13 C18 1_555 1_555
O14 Mn1 1_555 1_555
N1 Mn1 1_555 1_555
N2 Mn1 1_555 1_555
N3 Mn3 1_555 1_555
N4 Mn3 1_555 1_555
C1 O1 1_555 1_555
C2 O3 1_555 1_555
C3 C2 1_555 1_555
H3 C3 1_555 1_555
C4 C3 1_555 1_555
C5 C4 1_555 1_555
H4 C5 1_555 1_555
C6 C1 1_555 1_555
C7 N1 1_555 1_555
H5 C7 1_555 1_555
H6 C7 1_555 1_555
C8 N1 1_555 1_555
H7 C8 1_555 1_555
H8 C8 1_555 1_555
C9 C8 1_555 1_555
C10 C9 1_555 1_555
H9 C10 1_555 1_555
C11 C10 1_555 1_555
C12 C11 1_555 1_555
H10 C12 1_555 1_555
C13 C12 1_555 1_555
C14 O2 1_555 1_555
C15 N1 1_555 1_555
H11 C15 1_555 1_555
H12 C15 1_555 1_555
C16 N2 1_555 1_555
H13 C16 1_555 1_555
H14 C16 1_555 1_555
C17 N2 1_555 1_555
H15 C17 1_555 1_555
H16 C17 1_555 1_555
C18 C17 1_555 1_555
H17 C18 1_555 1_555
H18 C18 1_555 1_555
C19 O13 1_555 1_555
H19 C19 1_555 1_555
H20 C19 1_555 1_555
C20 N2 1_555 1_555
H21 C20 1_555 1_555
H22 C20 1_555 1_555
C21 O3 1_555 1_555
H23 C21 1_555 1_555
H24 C21 1_555 1_555
H25 C21 1_555 1_555
C22 C4 1_555 1_555
H26 C22 1_555 1_555
H27 C22 1_555 1_555
H28 C22 1_555 1_555
C23 O4 1_555 1_555
H29 C23 1_555 1_555
H30 C23 1_555 1_555
H31 C23 1_555 1_555
C24 C11 1_555 1_555
H32 C24 1_555 1_555
H33 C24 1_555 1_555
H34 C24 1_555 1_555
C25 O5 1_555 1_555
H35 C25 1_555 1_555
H36 C25 1_555 1_555
C26 O6 1_555 1_555
H37 C26 1_555 1_555
H38 C26 1_555 1_555
C27 O7 1_555 1_555
C28 O9 1_555 1_555
C29 C28 1_555 1_555
H39 C29 1_555 1_555
C30 C29 1_555 1_555
C31 C30 1_555 1_555
H40 C31 1_555 1_555
C32 C27 1_555 1_555
C33 N3 1_555 1_555
H41 C33 1_555 1_555
H42 C33 1_555 1_555
C34 N3 1_555 1_555
H43 C34 1_555 1_555
H44 C34 1_555 1_555
C35 C34 1_555 1_555
C36 C35 1_555 1_555
H45 C36 1_555 1_555
C37 C36 1_555 1_555
C38 C37 1_555 1_555
H46 C38 1_555 1_555
C39 C38 1_555 1_555
C40 O8 1_555 1_555
C41 N3 1_555 1_555
H47 C41 1_555 1_555
H48 C41 1_555 1_555
C42 N4 1_555 1_555
H49 C42 1_555 1_555
H50 C42 1_555 1_555
C43 N4 1_555 1_555
H51 C43 1_555 1_555
H52 C43 1_555 1_555
C44 O14 1_555 1_555
H53 C44 1_555 1_555
H54 C44 1_555 1_555
C45 O14 1_555 1_555
H55 C45 1_555 1_555
H56 C45 1_555 1_555
C46 N4 1_555 1_555
H57 C46 1_555 1_555
H58 C46 1_555 1_555
C47 O9 1_555 1_555
H59 C47 1_555 1_555
H60 C47 1_555 1_555
H61 C47 1_555 1_555
C48 C30 1_555 1_555
H62 C48 1_555 1_555
H63 C48 1_555 1_555
H64 C48 1_555 1_555
C49 O10 1_555 1_555
H65 C49 1_555 1_555
H66 C49 1_555 1_555
H67 C49 1_555 1_555
C50 C37 1_555 1_555
H68 C50 1_555 1_555
H69 C50 1_555 1_555
H70 C50 1_555 1_555
C51 O11 1_555 1_555
H71 C51 1_555 1_555
H72 C51 1_555 1_555
C52 O12 1_555 1_555
H73 C52 1_555 1_555
H74 C52 1_555 1_555
Mn3_2 O13 1_555 1_555
O13_2 Mn3 1_555 1_555
Mn2 O5 1_555 1_555
Mn4 O11 1_555 1_555
C1 C2 1_555 1_555
C5 C6 1_555 1_555
C6 C7 1_555 1_555
C9 C14 1_555 1_555
C13 C14 1_555 1_555
C15 C16 1_555 1_555
C19 C20 1_555 1_555
C25 C26 1_555 1_555
C27 C28 1_555 1_555
C31 C32 1_555 1_555
C32 C33 1_555 1_555
C35 C40 1_555 1_555
C39 C40 1_555 1_555
C41 C42 1_555 1_555
C43 C44 1_555 1_555
C45 C46 1_555 1_555
C51 C52 1_555 1_555

#END
