
#######################################################################
#
#                 Cambridge Crystallographic Data Centre
#                                CCDC 
#
#######################################################################
#
# If this CIF has been generated from an entry in the Cambridge 
# Structural Database, then it will include bibliographic, chemical, 
# crystal, experimental, refinement or atomic coordinate data resulting 
# from the CCDC's data processing and validation procedures.
#
#######################################################################

data_REVFUU
_symmetry_cell_setting           monoclinic
_symmetry_space_group_name_H-M   'P 2/a'
_symmetry_Int_Tables_number      13
_space_group_name_Hall           '-P 2ya'
loop_
_symmetry_equiv_pos_site_id
_symmetry_equiv_pos_as_xyz
1 x,y,z
2 1/2-x,y,-z
3 -x,-y,-z
4 1/2+x,-y,z
_cell_length_a                   10.657(4)
_cell_length_b                   5.466(5)
_cell_length_c                   20.272(4)
_cell_angle_alpha                90
_cell_angle_beta                 92.83(2)
_cell_angle_gamma                90
_cell_volume                     1179.43
loop_
_atom_site_label
_atom_site_type_symbol
_atom_site_fract_x
_atom_site_fract_y
_atom_site_fract_z
Cd1 Cd -0.2500 0.3010(4) -0.5000
O1 O -0.4347(10) 0.260(2) -0.4458(6)
O2 O -0.2870(10) -0.006(2) -0.4216(5)
O3 O -0.1620(10) 0.566(2) -0.4256(5)
N1 N -0.511(1) -0.524(4) -0.1057(7)
C1 C -0.397(2) 0.073(3) -0.4100(10)
C2 C -0.479(2) -0.040(4) -0.360(1)
C3 C -0.412(2) -0.212(4) -0.3130(9)
C4 C -0.508(2) -0.299(4) -0.2631(10)
C5 C -0.448(2) -0.469(6) -0.216(1)
C6 C -0.546(2) -0.552(6) -0.167(1)
H1 H -0.5142 0.0885 -0.3355
H2 H -0.5445 -0.1272 -0.3834
H3 H -0.3805 -0.3484 -0.3363
H4 H -0.3436 -0.1305 -0.2903
H5 H -0.5383 -0.1616 -0.2402
H6 H -0.5757 -0.3790 -0.2863
H7 H -0.417 -0.6070 -0.2385
H8 H -0.3796 -0.3897 -0.1924
H9 H -0.5632 -0.7204 -0.1744
H10 H -0.6204 -0.4594 -0.1754
H11 H -0.5759 -0.5813 -0.0788
H12 H -0.4363 -0.615 -0.0962
H13 H -0.4957 -0.3558 -0.0970
O1A O -0.0653(10) 0.260(2) -0.5542(6)
O2A O -0.2130(10) -0.006(2) -0.5784(5)
O3A O -0.3380(10) 0.566(2) -0.5744(5)
N1A N 0.011(1) -0.524(4) -0.8943(7)
C1A C -0.103(2) 0.073(3) -0.5900(10)
C2A C -0.021(2) -0.040(4) -0.640(1)
C3A C -0.088(2) -0.212(4) -0.6870(9)
C4A C 0.008(2) -0.299(4) -0.7369(10)
C5A C -0.052(2) -0.469(6) -0.784(1)
C6A C 0.046(2) -0.552(6) -0.833(1)
H1A H 0.0142 0.0885 -0.6645
H2A H 0.0445 -0.1272 -0.6166
H3A H -0.1195 -0.3484 -0.6637
H4A H -0.1564 -0.1305 -0.7097
H5A H 0.0383 -0.1616 -0.7598
H6A H 0.0757 -0.3790 -0.7137
H7A H -0.083 -0.6070 -0.7615
H8A H -0.1204 -0.3897 -0.8076
H9A H 0.0632 -0.7204 -0.8256
H10A H 0.1204 -0.4594 -0.8246
H11A H 0.0759 -0.5813 -0.9212
H12A H -0.0637 -0.615 -0.9038
H13A H -0.0043 -0.3558 -0.9030
Cd2 Cd -0.2500 0.0183(4) 0.0000
Cl1 Cl -0.2640(10) 0.018(1) -0.1220(3)
Cl2 Cl -0.2500 -0.484(1) 0.0000
Cl3 Cl 0.0000 0.0000 0.0000
Cd2_2 Cd -0.2500 -0.9817(4) 0.0000
Cd2B Cd 0.2500 -0.0183(4) 0.0000
Cl1A Cl -0.2360(10) 0.018(1) 0.1220(3)
Cl2_2 Cl -0.2500 0.516(1) 0.0000
Cl3A Cl -0.5000 0.0000 0.0000
loop_
_geom_bond_atom_site_label_1
_geom_bond_atom_site_label_2
_geom_bond_site_symmetry_1
_geom_bond_site_symmetry_2
Cd1 O1 1_555 1_555
Cd2 Cl1 1_555 1_555
Cl2 Cd2 1_555 1_555
Cl3 Cd2 1_555 1_555
O1 C1 1_555 1_555
O2 Cd1 1_555 1_555
O3 Cd1 1_555 1_555
N1 C6 1_555 1_555
C1 O2 1_555 1_555
C2 C1 1_555 1_555
C3 C2 1_555 1_555
C4 C3 1_555 1_555
C5 C4 1_555 1_555
C6 C5 1_555 1_555
H1 C2 1_555 1_555
H2 C2 1_555 1_555
H3 C3 1_555 1_555
H4 C3 1_555 1_555
H5 C4 1_555 1_555
H6 C4 1_555 1_555
H7 C5 1_555 1_555
H8 C5 1_555 1_555
H9 C6 1_555 1_555
H10 C6 1_555 1_555
H11 N1 1_555 1_555
H12 N1 1_555 1_555
H13 N1 1_555 1_555
Cd2_2 Cl2 1_555 1_555
Cd2B Cl3 1_555 1_555
Cl1A Cd2 1_555 1_555
Cl2_2 Cd2 1_555 1_555
Cl3A Cd2 1_555 1_555
O1A Cd1 1_555 1_555
O2A Cd1 1_555 1_555
O3A Cd1 1_555 1_555
N1A C6A 1_555 1_555
C1A O1A 1_555 1_555
C2A C1A 1_555 1_555
C3A C2A 1_555 1_555
C4A C3A 1_555 1_555
C5A C4A 1_555 1_555
C6A C5A 1_555 1_555
H1A C2A 1_555 1_555
H2A C2A 1_555 1_555
H3A C3A 1_555 1_555
H4A C3A 1_555 1_555
H5A C4A 1_555 1_555
H6A C4A 1_555 1_555
H7A C5A 1_555 1_555
H8A C5A 1_555 1_555
H9A C6A 1_555 1_555
H10A C6A 1_555 1_555
H11A N1A 1_555 1_555
H12A N1A 1_555 1_555
H13A N1A 1_555 1_555
O2A C1A 1_555 1_555

#END
