
#######################################################################
#
#                 Cambridge Crystallographic Data Centre
#                                CCDC 
#
#######################################################################
#
# If this CIF has been generated from an entry in the Cambridge 
# Structural Database, then it will include bibliographic, chemical, 
# crystal, experimental, refinement or atomic coordinate data resulting 
# from the CCDC's data processing and validation procedures.
#
#######################################################################

data_REVGAB
_symmetry_cell_setting           monoclinic
_symmetry_space_group_name_H-M   'P 21/c'
_symmetry_Int_Tables_number      14
_space_group_name_Hall           '-P 2ybc'
loop_
_symmetry_equiv_pos_site_id
_symmetry_equiv_pos_as_xyz
1 x,y,z
2 -x,1/2+y,1/2-z
3 -x,-y,-z
4 x,1/2-y,1/2+z
_cell_length_a                   7.1829(7)
_cell_length_b                   13.9514(12)
_cell_length_c                   9.1526(8)
_cell_angle_alpha                90
_cell_angle_beta                 93.177(5)
_cell_angle_gamma                90
_cell_volume                     915.786
loop_
_atom_site_label
_atom_site_type_symbol
_atom_site_fract_x
_atom_site_fract_y
_atom_site_fract_z
Cd1 Cd 0.74799(11) 0.47156(6) 0.93851(10)
Br1 Br 0.5651(2) 0.63453(9) 0.9733(2)
Br2 Br 0.9438(2) 0.44979(10) 1.1902(1)
O1 O 0.7546(12) 0.3295(7) 0.7900(10)
O2 O 0.616(1) 0.4617(6) 0.6907(12)
N1 N 0.364(2) 0.3481(7) 0.3911(13)
C1 C 0.649(2) 0.3680(7) 0.6933(13)
C2 C 0.546(2) 0.3057(8) 0.5782(13)
C3 C 0.342(2) 0.3257(12) 0.554(2)
C4 C 0.571(2) 0.328(1) 0.419(2)
H1 H 0.619(2) 0.277(1) 0.364(2)
H2 H 0.643(2) 0.384(1) 0.406(2)
H3 H 0.303(2) 0.3810(12) 0.604(2)
H4 H 0.262(2) 0.2736(12) 0.573(2)
H5 H 0.305(2) 0.3019(7) 0.3283(13)
H6 H 0.331(2) 0.4107(7) 0.3580(13)
H7 H 0.565(2) 0.2394(8) 0.5970(13)
Cd1B Cd 0.25201(11) 0.52844(6) 1.06149(10)
Cd1B_2 Cd 1.25201(11) 0.52844(6) 1.06149(10)
Br1B Br 0.4349(2) 0.36547(9) 1.0267(2)
Br2B Br 1.0562(2) 0.55021(10) 0.8098(1)
loop_
_geom_bond_atom_site_label_1
_geom_bond_atom_site_label_2
_geom_bond_site_symmetry_1
_geom_bond_site_symmetry_2
Cd1 Br1 1_555 1_555
Br1 Cd1B 1_555 1_555
Br2 Cd1 1_555 1_555
O1 Cd1 1_555 1_555
O2 Cd1 1_555 1_555
N1 C3 1_555 1_555
C1 O1 1_555 1_555
C2 C1 1_555 1_555
C3 C2 1_555 1_555
C4 N1 1_555 1_555
H1 C4 1_555 1_555
H2 C4 1_555 1_555
H3 C3 1_555 1_555
H4 C3 1_555 1_555
H5 N1 1_555 1_555
H6 N1 1_555 1_555
H7 C2 1_555 1_555
Cd1B Br1B 1_555 1_555
Cd1B_2 Br2 1_555 1_555
Br1B Cd1 1_555 1_555
Br2B Cd1 1_555 1_555
O2 C1 1_555 1_555
C2 C4 1_555 1_555
Cd1B_2 Br2B 1_555 1_555

#END
