
#######################################################################
#
#                 Cambridge Crystallographic Data Centre
#                                CCDC 
#
#######################################################################
#
# If this CIF has been generated from an entry in the Cambridge 
# Structural Database, then it will include bibliographic, chemical, 
# crystal, experimental, refinement or atomic coordinate data resulting 
# from the CCDC's data processing and validation procedures.
#
#######################################################################

data_REVGUW
_symmetry_cell_setting           monoclinic
_symmetry_space_group_name_H-M   'C 2/c'
_symmetry_Int_Tables_number      15
_space_group_name_Hall           '-C 2yn'
loop_
_symmetry_equiv_pos_site_id
_symmetry_equiv_pos_as_xyz
1 x,y,z
2 -x,y,1/2-z
3 1/2+x,1/2+y,z
4 1/2-x,1/2+y,1/2-z
5 -x,-y,-z
6 x,-y,1/2+z
7 1/2-x,1/2-y,-z
8 1/2+x,1/2-y,1/2+z
_cell_length_a                   29.4618(15)
_cell_length_b                   10.7517(5)
_cell_length_c                   8.2483(4)
_cell_angle_alpha                90
_cell_angle_beta                 93.759(5)
_cell_angle_gamma                90
_cell_volume                     2607.15
loop_
_atom_site_label
_atom_site_type_symbol
_atom_site_fract_x
_atom_site_fract_y
_atom_site_fract_z
Cd1 Cd 0.5000 0.12113(3) 0.2500
O1 O 0.55243(7) 0.1643(2) 0.0703(2)
O2 O 0.54231(8) 0.0275(3) -0.1279(3)
N1 N 0.95257(8) 0.2300(2) -0.4134(3)
N2 N 0.81154(8) 0.1729(2) -0.3592(3)
C1 C 0.97050(10) 0.1612(3) -0.5277(4)
H1 H 1.0016 0.1674 -0.5396
C2 C 0.94555(11) 0.0817(3) -0.6285(4)
H2 H 0.9595 0.0355 -0.7065
C3 C 0.89974(11) 0.0715(3) -0.6125(4)
H3 H 0.8822 0.0184 -0.6798
C4 C 0.88005(9) 0.1403(2) -0.4960(3)
C5 C 0.90779(10) 0.2204(3) -0.3997(3)
H4 H 0.8945 0.2691 -0.3227
C6 C 0.83085(9) 0.1277(3) -0.4763(3)
H5 H 0.8133 0.0838 -0.5549
C7 C 0.76412(9) 0.1519(2) -0.3428(3)
C8 C 0.73810(9) 0.0580(3) -0.4270(3)
H6 H 0.7515 0.0097 -0.5044
C9 C 0.69399(9) 0.0378(3) -0.3961(3)
H7 H 0.6778 -0.0249 -0.4518
C10 C 0.67220(9) 0.1098(2) -0.2816(3)
C11 C 0.62753(9) 0.0848(2) -0.2382(3)
H8 H 0.6109 0.0218 -0.2916
C12 C 0.60818(9) 0.1513(2) -0.1194(3)
C13 C 0.63242(9) 0.2514(2) -0.0461(3)
H9 H 0.6190 0.2993 0.0315
C14 C 0.67533(10) 0.2794(3) -0.0870(3)
H10 H 0.6905 0.3470 -0.0383
C15 C 0.69706(9) 0.2077(2) -0.2018(3)
C16 C 0.74324(9) 0.2249(2) -0.2356(3)
H11 H 0.7598 0.2883 -0.1826
C17 C 0.56338(9) 0.1109(3) -0.0561(3)
O1A O 0.44757(7) 0.1643(2) 0.4297(2)
O2A O 0.45769(8) 0.0275(3) 0.6279(3)
N1A N 0.04743(8) 0.2300(2) 0.9134(3)
N2A N 0.18846(8) 0.1729(2) 0.8592(3)
C1A C 0.02950(10) 0.1612(3) 1.0277(4)
H1A H -0.0016 0.1674 1.0396
C2A C 0.05445(11) 0.0817(3) 1.1285(4)
H2A H 0.0405 0.0355 1.2065
C3A C 0.10026(11) 0.0715(3) 1.1125(4)
H3A H 0.1178 0.0184 1.1798
C4A C 0.11995(9) 0.1403(2) 0.9960(3)
C5A C 0.09221(10) 0.2204(3) 0.8997(3)
H4A H 0.1055 0.2691 0.8227
C6A C 0.16915(9) 0.1277(3) 0.9763(3)
H5A H 0.1867 0.0838 1.0549
C7A C 0.23588(9) 0.1519(2) 0.8428(3)
C8A C 0.26190(9) 0.0580(3) 0.9270(3)
H6A H 0.2485 0.0097 1.0044
C9A C 0.30601(9) 0.0378(3) 0.8961(3)
H7A H 0.3222 -0.0249 0.9518
C10A C 0.32780(9) 0.1098(2) 0.7816(3)
C11A C 0.37247(9) 0.0848(2) 0.7382(3)
H8A H 0.3891 0.0218 0.7916
C12A C 0.39182(9) 0.1513(2) 0.6194(3)
C13A C 0.36758(9) 0.2514(2) 0.5461(3)
H9A H 0.3810 0.2993 0.4685
C14A C 0.32467(10) 0.2794(3) 0.5870(3)
H10A H 0.3095 0.3470 0.5383
C15A C 0.30294(9) 0.2077(2) 0.7018(3)
C16A C 0.25676(9) 0.2249(2) 0.7356(3)
H11A H 0.2402 0.2883 0.6826
C17A C 0.43662(9) 0.1109(3) 0.5561(3)
Cd1D Cd 0.5000 -0.12113(3) -0.2500
Cd1D_2 Cd 0.5000 -0.12113(3) 0.7500
Cd1F Cd 0.0000 0.37887(3) 0.7500
Cd1F_2 Cd 1.0000 0.37887(3) -0.2500
O2D O 0.45769(8) -0.0275(3) 0.1279(3)
O2E O 0.54231(8) -0.0275(3) 0.3721(3)
N1F N 0.54743(8) 0.2700(2) 0.4134(3)
N1G N 0.45257(8) 0.2700(2) 0.0866(3)
loop_
_geom_bond_atom_site_label_1
_geom_bond_atom_site_label_2
_geom_bond_site_symmetry_1
_geom_bond_site_symmetry_2
Cd1 O1 1_555 1_555
O1 C17 1_555 1_555
O2 C17 1_555 1_555
N1 C1 1_555 1_555
N2 C6 1_555 1_555
C1 H1 1_555 1_555
C2 C1 1_555 1_555
H2 C2 1_555 1_555
C3 C2 1_555 1_555
H3 C3 1_555 1_555
C4 C3 1_555 1_555
C5 N1 1_555 1_555
H4 C5 1_555 1_555
C6 C4 1_555 1_555
H5 C6 1_555 1_555
C7 N2 1_555 1_555
C8 C7 1_555 1_555
H6 C8 1_555 1_555
C9 C8 1_555 1_555
H7 C9 1_555 1_555
C10 C9 1_555 1_555
C11 C10 1_555 1_555
H8 C11 1_555 1_555
C12 C11 1_555 1_555
C13 C12 1_555 1_555
H9 C13 1_555 1_555
C14 C13 1_555 1_555
H10 C14 1_555 1_555
C15 C10 1_555 1_555
C16 C7 1_555 1_555
H11 C16 1_555 1_555
C17 C12 1_555 1_555
O1A Cd1 1_555 1_555
O2A C17A 1_555 1_555
N1A C1A 1_555 1_555
N2A C6A 1_555 1_555
C1A H1A 1_555 1_555
C2A C1A 1_555 1_555
H2A C2A 1_555 1_555
C3A C2A 1_555 1_555
H3A C3A 1_555 1_555
C4A C3A 1_555 1_555
C5A N1A 1_555 1_555
H4A C5A 1_555 1_555
C6A C4A 1_555 1_555
H5A C6A 1_555 1_555
C7A N2A 1_555 1_555
C8A C7A 1_555 1_555
H6A C8A 1_555 1_555
C9A C8A 1_555 1_555
H7A C9A 1_555 1_555
C10A C9A 1_555 1_555
C11A C10A 1_555 1_555
H8A C11A 1_555 1_555
C12A C11A 1_555 1_555
C13A C12A 1_555 1_555
H9A C13A 1_555 1_555
C14A C13A 1_555 1_555
H10A C14A 1_555 1_555
C15A C10A 1_555 1_555
C16A C7A 1_555 1_555
H11A C16A 1_555 1_555
C17A O1A 1_555 1_555
Cd1D O2 1_555 1_555
Cd1D_2 O2A 1_555 1_555
Cd1F N1A 1_555 1_555
Cd1F_2 N1 1_555 1_555
O2D Cd1 1_555 1_555
O2E Cd1 1_555 1_555
N1F Cd1 1_555 1_555
N1G Cd1 1_555 1_555
C4 C5 1_555 1_555
C14 C15 1_555 1_555
C15 C16 1_555 1_555
C4A C5A 1_555 1_555
C12A C17A 1_555 1_555
C14A C15A 1_555 1_555
C15A C16A 1_555 1_555

#END
