
#######################################################################
#
#                 Cambridge Crystallographic Data Centre
#                                CCDC 
#
#######################################################################
#
# If this CIF has been generated from an entry in the Cambridge 
# Structural Database, then it will include bibliographic, chemical, 
# crystal, experimental, refinement or atomic coordinate data resulting 
# from the CCDC's data processing and validation procedures.
#
#######################################################################

data_REVJAD
_symmetry_cell_setting           orthorhombic
_symmetry_space_group_name_H-M   'P b c a'
_symmetry_Int_Tables_number      61
_space_group_name_Hall           '-P 2ac 2ab'
loop_
_symmetry_equiv_pos_site_id
_symmetry_equiv_pos_as_xyz
1 x,y,z
2 1/2+x,y,1/2-z
3 x,1/2-y,1/2+z
4 1/2-x,1/2+y,z
5 -x,-y,-z
6 1/2-x,-y,1/2+z
7 -x,1/2+y,1/2-z
8 1/2+x,1/2-y,-z
_cell_length_a                   18.903(6)
_cell_length_b                   9.094(3)
_cell_length_c                   26.927(9)
_cell_angle_alpha                90
_cell_angle_beta                 90
_cell_angle_gamma                90
_cell_volume                     4628.86
loop_
_atom_site_label
_atom_site_type_symbol
_atom_site_fract_x
_atom_site_fract_y
_atom_site_fract_z
Ag1 Ag 0.06075(3) 0.23384(7) 0.13808(2)
N1 N 0.0439(3) 0.4232(7) 0.0899(2)
N2 N 0.4332(3) -0.4435(7) 0.1931(2)
O1 O 0.1339(3) 0.2170(7) 0.0567(2)
O2 O 0.3557(3) -0.1985(6) 0.2144(2)
C1 C -0.0033(5) 0.5218(10) 0.1043(3)
H1 H -0.0322 0.4999 0.1313
C2 C -0.0116(5) 0.6576(11) 0.0806(4)
H2 H -0.0455 0.7237 0.0919
C3 C 0.0290(6) 0.6926(12) 0.0421(4)
H3 H 0.0253 0.7845 0.0272
C4 C 0.0776(5) 0.5888(11) 0.0243(3)
C5 C 0.0840(4) 0.4515(9) 0.0481(3)
C6 C 0.1302(5) 0.3431(12) 0.0306(3)
C7 C 0.1715(5) 0.3763(15) -0.0111(4)
H4 H 0.2024 0.3058 -0.0236
C8 C 0.1672(7) 0.5123(18) -0.0340(4)
H5 H 0.1959 0.5325 -0.0611
C9 C 0.1208(8) 0.6188(17) -0.0171(4)
H6 H 0.1183 0.7096 -0.0329
C10 C 0.1762(6) 0.0946(13) 0.0371(5)
H7 H 0.1539 0.0536 0.0078
H8 H 0.2232 0.1285 0.0282
C11 C 0.1805(5) -0.0188(12) 0.0773(5)
H9 H 0.1328 -0.0423 0.0880
H10 H 0.2008 -0.1076 0.0634
C12 C 0.2232(9) 0.0240(18) 0.1226(7)
H11 H 0.1900 0.0168 0.1499
H12 H 0.2321 0.1283 0.1183
C13 C 0.2748(9) -0.0210(15) 0.1384(5)
H13 H 0.2654 -0.1238 0.1454
H14 H 0.3078 -0.0200 0.1108
C14 C 0.3169(5) 0.0339(10) 0.1827(4)
H15 H 0.2977 0.1282 0.1928
H16 H 0.3653 0.0501 0.1722
C15 C 0.3175(5) -0.0646(10) 0.2263(4)
H17 H 0.2694 -0.0884 0.2358
H18 H 0.3401 -0.0155 0.2541
C16 C 0.3534(4) -0.3090(10) 0.2481(3)
C17 C 0.3167(5) -0.3071(12) 0.2915(3)
H19 H 0.2919 -0.2226 0.3003
C18 C 0.3150(5) -0.4279(14) 0.3232(3)
H20 H 0.2895 -0.4220 0.3527
C19 C 0.3492(5) -0.5525(12) 0.3122(3)
H21 H 0.3459 -0.6337 0.3331
C20 C 0.3905(4) -0.5597(9) 0.2684(3)
C21 C 0.3937(4) -0.4390(8) 0.2361(3)
C22 C 0.4692(5) -0.5620(10) 0.1833(3)
H22 H 0.4964 -0.5633 0.1546
C23 C 0.4692(5) -0.6867(11) 0.2131(4)
H23 H 0.4950 -0.7695 0.2041
C24 C 0.4306(5) -0.6849(11) 0.2559(4)
H24 H 0.4307 -0.7663 0.2768
N2C N 0.0668(3) 0.0565(7) 0.1931(2)
Ag1C Ag 0.43925(3) -0.26616(7) 0.13808(2)
B1 B 0.1266(7) 0.9567(13) -0.1070(4)
F1 F 0.1803(3) 0.8834(10) -0.0871(3)
F2 F 0.1130(6) 0.9057(15) -0.1480(4)
F3 F 0.0685(4) 0.9642(11) -0.0806(3)
F4 F 0.1433(6) 1.0939(9) -0.1146(5)
loop_
_geom_bond_atom_site_label_1
_geom_bond_atom_site_label_2
_geom_bond_site_symmetry_1
_geom_bond_site_symmetry_2
Ag1 N1 1_555 1_555
N1 C1 1_555 1_555
N2 C21 1_555 1_555
O1 Ag1 1_555 1_555
O2 C15 1_555 1_555
C1 H1 1_555 1_555
C2 C1 1_555 1_555
H2 C2 1_555 1_555
C3 C2 1_555 1_555
H3 C3 1_555 1_555
C4 C3 1_555 1_555
C5 N1 1_555 1_555
C6 O1 1_555 1_555
C7 C6 1_555 1_555
H4 C7 1_555 1_555
C8 C7 1_555 1_555
H5 C8 1_555 1_555
C9 C4 1_555 1_555
H6 C9 1_555 1_555
C10 O1 1_555 1_555
H7 C10 1_555 1_555
H8 C10 1_555 1_555
C11 C10 1_555 1_555
H9 C11 1_555 1_555
H10 C11 1_555 1_555
C12 C11 1_555 1_555
H11 C12 1_555 1_555
H12 C12 1_555 1_555
C13 C12 1_555 1_555
H13 C13 1_555 1_555
H14 C13 1_555 1_555
C14 C13 1_555 1_555
H15 C14 1_555 1_555
H16 C14 1_555 1_555
C15 C14 1_555 1_555
H17 C15 1_555 1_555
H18 C15 1_555 1_555
C16 O2 1_555 1_555
C17 C16 1_555 1_555
H19 C17 1_555 1_555
C18 C17 1_555 1_555
H20 C18 1_555 1_555
C19 C18 1_555 1_555
H21 C19 1_555 1_555
C20 C19 1_555 1_555
C21 C16 1_555 1_555
C22 N2 1_555 1_555
H22 C22 1_555 1_555
C23 C22 1_555 1_555
H23 C23 1_555 1_555
C24 C20 1_555 1_555
H24 C24 1_555 1_555
B1 F1 1_555 1_555
F2 B1 1_555 1_555
F3 B1 1_555 1_555
F4 B1 1_555 1_555
N2C Ag1 1_555 1_555
Ag1C N2 1_555 1_555
C4 C5 1_555 1_555
C5 C6 1_555 1_555
C8 C9 1_555 1_555
C20 C21 1_555 1_555
C23 C24 1_555 1_555

#END
