
#######################################################################
#
#                 Cambridge Crystallographic Data Centre
#                                CCDC 
#
#######################################################################
#
# If this CIF has been generated from an entry in the Cambridge 
# Structural Database, then it will include bibliographic, chemical, 
# crystal, experimental, refinement or atomic coordinate data resulting 
# from the CCDC's data processing and validation procedures.
#
#######################################################################

data_REVJEH
_symmetry_cell_setting           monoclinic
_symmetry_space_group_name_H-M   'P 21/n'
_symmetry_Int_Tables_number      14
_space_group_name_Hall           '-P 2yn'
loop_
_symmetry_equiv_pos_site_id
_symmetry_equiv_pos_as_xyz
1 x,y,z
2 1/2+x,1/2-y,1/2+z
3 -x,-y,-z
4 1/2-x,1/2+y,1/2-z
_cell_length_a                   13.271(3)
_cell_length_b                   10.132(2)
_cell_length_c                   19.264(5)
_cell_angle_alpha                90
_cell_angle_beta                 91.562(4)
_cell_angle_gamma                90
_cell_volume                     2589.31
loop_
_atom_site_label
_atom_site_type_symbol
_atom_site_fract_x
_atom_site_fract_y
_atom_site_fract_z
Ag1 Ag 0.86015(2) 0.71505(3) 0.136216(16)
N1 N 0.9155(2) 0.8947(3) 0.18621(17)
N2 N 0.7725(2) 0.5535(3) 0.09161(16)
O1 O 1.0555(2) 0.7253(3) 0.14271(16)
O2 O 0.7775(2) 0.7754(3) 0.01225(14)
C1 C 0.8472(4) 0.9787(4) 0.2077(3)
H1 H 0.7798 0.9539 0.2039
C2 C 0.8695(6) 1.1011(6) 0.2351(3)
H2 H 0.8184 1.1577 0.2486
C3 C 0.9673(6) 1.1359(5) 0.2419(3)
H3 H 0.9837 1.2172 0.2615
C4 C 1.0427(4) 1.0534(5) 0.2206(2)
C5 C 1.0141(3) 0.9277(4) 0.19314(19)
C6 C 1.0891(3) 0.8384(5) 0.1723(2)
C7 C 1.1892(4) 0.8740(8) 0.1812(3)
H4 H 1.2394 0.8152 0.1687
C8 C 1.2160(5) 0.9943(10) 0.2084(3)
H5 H 1.2839 1.0164 0.2131
C9 C 1.1465(6) 1.0825(8) 0.2285(3)
H6 H 1.1667 1.1627 0.2478
C10 C 1.1262(4) 0.6243(6) 0.1249(3)
H7 H 1.1601 0.5909 0.1665
H8 H 1.1768 0.6610 0.0950
C11 C 1.0717(5) 0.5163(5) 0.0888(2)
H9 H 1.0186 0.4846 0.1182
H10 H 1.1182 0.4440 0.0820
C12 C 1.0265(5) 0.5554(5) 0.0190(2)
H11 H 0.9780 0.6255 0.0259
H12 H 1.0791 0.5901 -0.0098
C13 C 0.9607(4) 0.9467(4) -0.0094(3)
H13 H 0.9676 0.9224 -0.0577
H14 H 0.9748 0.8688 0.0185
C14 C 0.8530(4) 0.9894(4) 0.0019(3)
H15 H 0.8430 0.9983 0.0514
H16 H 0.8427 1.0756 -0.0190
C15 C 0.7758(4) 0.8958(5) -0.0280(3)
H17 H 0.7095 0.9358 -0.0266
H18 H 0.7902 0.8767 -0.0761
C16 C 0.7167(3) 0.6759(4) -0.0105(2)
C17 C 0.6585(4) 0.6802(5) -0.0708(2)
H19 H 0.6577 0.7567 -0.0975
C18 C 0.6028(4) 0.5741(6) -0.0926(3)
H20 H 0.5646 0.5801 -0.1337
C19 C 0.6015(4) 0.4594(6) -0.0554(3)
H21 H 0.5639 0.3876 -0.0713
C20 C 0.6571(4) 0.4517(5) 0.0074(2)
C21 C 0.7169(3) 0.5590(4) 0.03011(19)
C22 C 0.7700(4) 0.4436(5) 0.1280(3)
H22 H 0.8087 0.4393 0.1689
C23 C 0.7124(5) 0.3333(6) 0.1086(3)
H23 H 0.7117 0.2585 0.1365
C24 C 0.6588(5) 0.3377(5) 0.0479(4)
H24 H 0.6224 0.2640 0.0332
C12B C 0.9735(5) 0.4446(5) -0.0190(2)
C11B C 0.9283(5) 0.4837(5) -0.0888(2)
C10B C 0.8738(4) 0.3757(6) -0.1249(3)
O1B O 0.9445(2) 0.2747(3) -0.14271(16)
C6B C 0.9109(3) 0.1616(5) -0.1723(2)
C5B C 0.9859(3) 0.0723(4) -0.19314(19)
N1B N 1.0845(2) 0.1053(3) -0.18621(17)
C1B C 1.1528(4) 0.0213(4) -0.2077(3)
H1B H 1.2202 0.0461 -0.2039
C2B C 1.1305(6) -0.1011(6) -0.2351(3)
H2B H 1.1816 -0.1577 -0.2486
C3B C 1.0327(6) -0.1359(5) -0.2419(3)
H3B H 1.0163 -0.2172 -0.2615
C4B C 0.9573(4) -0.0534(5) -0.2206(2)
C9B C 0.8535(6) -0.0825(8) -0.2285(3)
C8B C 0.7840(5) 0.0057(10) -0.2084(3)
C7B C 0.8108(4) 0.1260(8) -0.1812(3)
H4B H 0.7606 0.1848 -0.1687
H5B H 0.7161 -0.0164 -0.2131
H6B H 0.8333 -0.1627 -0.2478
H7B H 0.8399 0.4091 -0.1665
H8B H 0.8232 0.3390 -0.0950
H9B H 0.9814 0.5154 -0.1182
H10B H 0.8818 0.5560 -0.0820
H11B H 1.0220 0.3745 -0.0259
H12B H 0.9209 0.4099 0.0098
C13B C 1.0393(4) 1.0533(4) 0.0094(3)
H13B H 1.0324 1.0776 0.0577
H14B H 1.0252 1.1312 -0.0185
C14B C 1.1470(4) 1.0106(4) -0.0019(3)
H15B H 1.1570 1.0017 -0.0514
H16B H 1.1573 0.9244 0.0190
C15B C 1.2242(4) 1.1042(5) 0.0280(3)
O2B O 1.2225(2) 1.2246(3) -0.01225(14)
C16B C 1.2833(3) 1.3241(4) 0.0105(2)
C17B C 1.3415(4) 1.3198(5) 0.0708(2)
H19B H 1.3423 1.2433 0.0975
C18B C 1.3972(4) 1.4259(6) 0.0926(3)
H20B H 1.4354 1.4199 0.1337
C19B C 1.3985(4) 1.5406(6) 0.0554(3)
H21B H 1.4361 1.6124 0.0713
C20B C 1.3429(4) 1.5483(5) -0.0074(2)
C21B C 1.2831(3) 1.4410(4) -0.03011(19)
N2B N 1.2275(2) 1.4465(3) -0.09161(16)
C22B C 1.2300(4) 1.5564(5) -0.1280(3)
H22B H 1.1913 1.5607 -0.1689
C23B C 1.2876(5) 1.6667(6) -0.1086(3)
H23B H 1.2883 1.7415 -0.1365
C24B C 1.3412(5) 1.6623(5) -0.0479(4)
H24B H 1.3776 1.7360 -0.0332
H17B H 1.2905 1.0642 0.0266
H18B H 1.2098 1.1233 0.0761
Ag1B Ag 1.13985(2) 0.28495(3) -0.136216(16)
Ag1B_2 Ag 1.13985(2) 1.28495(3) -0.136216(16)
N2B_2 N 1.2275(2) 0.4465(3) -0.09161(16)
S1 S 0.52570(9) 1.04335(11) 0.20122(6)
O3 O 0.6226(3) 1.0785(6) 0.2241(3)
O4 O 0.4809(5) 0.9482(5) 0.2432(3)
O5 O 0.4629(3) 1.1491(4) 0.1851(2)
C25 C 0.5433(5) 0.9579(6) 0.1221(3)
F1 F 0.6101(15) 0.8650(16) 0.1252(12)
F2 F 0.5547(14) 1.0403(15) 0.0696(6)
F3 F 0.4585(10) 0.8944(19) 0.1041(10)
F4? F 0.5855(16) 0.8405(15) 0.1306(12)
F5? F 0.6128(10) 1.0217(14) 0.0835(7)
F6? F 0.4626(13) 0.933(2) 0.0851(10)
loop_
_geom_bond_atom_site_label_1
_geom_bond_atom_site_label_2
_geom_bond_site_symmetry_1
_geom_bond_site_symmetry_2
Ag1 N1 1_555 1_555
N1 C1 1_555 1_555
N2 Ag1 1_555 1_555
O1 Ag1 1_555 1_555
O2 C15 1_555 1_555
C1 H1 1_555 1_555
C2 C1 1_555 1_555
H2 C2 1_555 1_555
C3 C2 1_555 1_555
H3 C3 1_555 1_555
C4 C3 1_555 1_555
C5 N1 1_555 1_555
C6 O1 1_555 1_555
C7 C6 1_555 1_555
H4 C7 1_555 1_555
C8 C7 1_555 1_555
H5 C8 1_555 1_555
C9 C4 1_555 1_555
H6 C9 1_555 1_555
C10 O1 1_555 1_555
H7 C10 1_555 1_555
H8 C10 1_555 1_555
C11 C10 1_555 1_555
H9 C11 1_555 1_555
H10 C11 1_555 1_555
C12 C11 1_555 1_555
H11 C12 1_555 1_555
H12 C12 1_555 1_555
C13 H13 1_555 1_555
H14 C13 1_555 1_555
C14 C13 1_555 1_555
H15 C14 1_555 1_555
H16 C14 1_555 1_555
C15 C14 1_555 1_555
H17 C15 1_555 1_555
H18 C15 1_555 1_555
C16 O2 1_555 1_555
C17 C16 1_555 1_555
H19 C17 1_555 1_555
C18 C17 1_555 1_555
H20 C18 1_555 1_555
C19 C18 1_555 1_555
H21 C19 1_555 1_555
C20 C19 1_555 1_555
C21 N2 1_555 1_555
C22 N2 1_555 1_555
H22 C22 1_555 1_555
C23 C22 1_555 1_555
H23 C23 1_555 1_555
C24 C20 1_555 1_555
H24 C24 1_555 1_555
S1 O3 1_555 1_555
O4 S1 1_555 1_555
O5 S1 1_555 1_555
C25 S1 1_555 1_555
F1 C25 1_555 1_555
F2 C25 1_555 1_555
F3 C25 1_555 1_555
C12B C12 1_555 1_555
C11B C12B 1_555 1_555
C10B C11B 1_555 1_555
O1B C10B 1_555 1_555
C6B O1B 1_555 1_555
C5B C6B 1_555 1_555
N1B C5B 1_555 1_555
C1B N1B 1_555 1_555
H1B C1B 1_555 1_555
C2B C1B 1_555 1_555
H2B C2B 1_555 1_555
C3B C2B 1_555 1_555
H3B C3B 1_555 1_555
C4B C5B 1_555 1_555
C9B C4B 1_555 1_555
C8B C9B 1_555 1_555
C7B C6B 1_555 1_555
H4B C7B 1_555 1_555
H5B C8B 1_555 1_555
H6B C9B 1_555 1_555
H7B C10B 1_555 1_555
H8B C10B 1_555 1_555
H9B C11B 1_555 1_555
H10B C11B 1_555 1_555
H11B C12B 1_555 1_555
H12B C12B 1_555 1_555
C13B C13 1_555 1_555
H13B C13B 1_555 1_555
H14B C13B 1_555 1_555
C14B C13B 1_555 1_555
H15B C14B 1_555 1_555
H16B C14B 1_555 1_555
C15B C14B 1_555 1_555
O2B C15B 1_555 1_555
C16B O2B 1_555 1_555
C17B C16B 1_555 1_555
H19B C17B 1_555 1_555
C18B C17B 1_555 1_555
H20B C18B 1_555 1_555
C19B C18B 1_555 1_555
H21B C19B 1_555 1_555
C20B C19B 1_555 1_555
C21B C16B 1_555 1_555
N2B C21B 1_555 1_555
C22B N2B 1_555 1_555
H22B C22B 1_555 1_555
C23B C22B 1_555 1_555
H23B C23B 1_555 1_555
C24B C20B 1_555 1_555
H24B C24B 1_555 1_555
H17B C15B 1_555 1_555
H18B C15B 1_555 1_555
Ag1B O1B 1_555 1_555
Ag1B_2 N2B 1_555 1_555
N2B_2 Ag1B 1_555 1_555
C4 C5 1_555 1_555
C5 C6 1_555 1_555
C8 C9 1_555 1_555
C16 C21 1_555 1_555
C20 C21 1_555 1_555
C23 C24 1_555 1_555
N1B Ag1B 1_555 1_555
C3B C4B 1_555 1_555
C8B C7B 1_555 1_555
C20B C21B 1_555 1_555
C23B C24B 1_555 1_555

#END
