
#######################################################################
#
#                 Cambridge Crystallographic Data Centre
#                                CCDC 
#
#######################################################################
#
# If this CIF has been generated from an entry in the Cambridge 
# Structural Database, then it will include bibliographic, chemical, 
# crystal, experimental, refinement or atomic coordinate data resulting 
# from the CCDC's data processing and validation procedures.
#
#######################################################################

data_REVKEK
_symmetry_cell_setting           triclinic
_symmetry_space_group_name_H-M   'P -1'
_symmetry_Int_Tables_number      2
_space_group_name_Hall           '-P 1'
loop_
_symmetry_equiv_pos_site_id
_symmetry_equiv_pos_as_xyz
1 x,y,z
2 -x,-y,-z
_cell_length_a                   5.5469(18)
_cell_length_b                   10.583(3)
_cell_length_c                   12.227(3)
_cell_angle_alpha                53.692(17)
_cell_angle_beta                 69.966(11)
_cell_angle_gamma                81.833(9)
_cell_volume                     541.649
loop_
_atom_site_label
_atom_site_type_symbol
_atom_site_fract_x
_atom_site_fract_y
_atom_site_fract_z
Mn1 Mn 0.5000 0.5000 0.5000
C1 C 0.3253(4) 0.2601(2) 0.83116(19)
C2 C 0.3818(3) 0.2034(2) 0.96629(18)
C3 C 0.5528(4) 0.2901(2) 0.9622(2)
H1 H 0.6218 0.3891 0.8788
C4 C 0.6212(4) 0.2297(2) 1.0819(2)
H2 H 0.7343 0.2890 1.0795
C5 C 0.3511(4) 0.0013(2) 1.2103(2)
H3 H 0.2827 -0.0967 1.2954
C6 C 0.2729(4) 0.0581(2) 1.09468(19)
H4 H 0.1491 0.0006 1.1019
C7 C 0.6189(4) 0.0161(3) 1.3262(2)
H5 H 0.7897 0.0641 1.2915
H6 H 0.6326 -0.0955 1.3704
C8 C 0.4453(4) 0.0386(2) 1.43807(19)
H7 H 0.2736 -0.0089 1.4737
H8 H 0.4339 0.1499 1.3960
C9 C 0.8833(4) 0.3579(2) 0.3426(2)
O1 O 0.4998(3) 0.35426(16) 0.71602(13)
O2 O 0.1238(3) 0.20695(19) 0.84511(15)
O3 O 0.1687(3) 0.34575(19) 0.57021(17)
H9 H 0.096(6) 0.299(3) 0.656(3)
H10 H 0.065(6) 0.369(3) 0.530(3)
N1 N 0.7843(4) 0.3525(2) 0.44625(19)
N2 N 0.5254(3) 0.08554(18) 1.20222(15)
S1 S 1.02282(13) 0.36578(8) 0.19786(7)
C1A C 0.6747(4) -0.2601(2) 2.16884(19)
C2A C 0.6182(3) -0.2034(2) 2.03371(18)
C3A C 0.4472(4) -0.2901(2) 2.0378(2)
H1A H 0.3782 -0.3891 2.1212
C4A C 0.3788(4) -0.2297(2) 1.9181(2)
H2A H 0.2657 -0.2890 1.9205
C5A C 0.6489(4) -0.0013(2) 1.7897(2)
H3A H 0.7173 0.0967 1.7046
C6A C 0.7271(4) -0.0581(2) 1.90532(19)
H4A H 0.8509 -0.0006 1.8981
C7A C 0.3811(4) -0.0161(3) 1.6738(2)
H5A H 0.2103 -0.0641 1.7085
H6A H 0.3674 0.0955 1.6296
C8A C 0.5547(4) -0.0386(2) 1.56193(19)
H7A H 0.7264 0.0089 1.5263
H8A H 0.5661 -0.1499 1.6040
O1A O 0.5002(3) -0.35426(16) 2.28398(13)
O2A O 0.8762(3) -0.20695(19) 2.15489(15)
N2A N 0.4746(3) -0.08554(18) 1.79778(15)
C9A C 0.1167(4) 0.6421(2) 0.6574(2)
N1A N 0.2157(4) 0.6475(2) 0.55375(19)
S1A S -0.02282(13) 0.63422(8) 0.80214(7)
O3A O 0.8313(3) 0.65425(19) 0.42979(17)
H9A H 0.904(6) 0.701(3) 0.344(3)
H10A H 0.935(6) 0.631(3) 0.470(3)
Mn1_2 Mn 0.5000 -0.5000 2.5000
O1A_2 O 0.5002(3) 0.64574(16) 0.28398(13)
loop_
_geom_bond_atom_site_label_1
_geom_bond_atom_site_label_2
_geom_bond_site_symmetry_1
_geom_bond_site_symmetry_2
Mn1 O1 1_555 1_555
C1 C2 1_555 1_555
C2 C3 1_555 1_555
C3 H1 1_555 1_555
C4 C3 1_555 1_555
H2 C4 1_555 1_555
C5 H3 1_555 1_555
C6 C2 1_555 1_555
H4 C6 1_555 1_555
C7 H5 1_555 1_555
H6 C7 1_555 1_555
C8 C7 1_555 1_555
H7 C8 1_555 1_555
H8 C8 1_555 1_555
C9 N1 1_555 1_555
O1 C1 1_555 1_555
O2 C1 1_555 1_555
O3 Mn1 1_555 1_555
H9 O3 1_555 1_555
H10 O3 1_555 1_555
N1 Mn1 1_555 1_555
N2 C4 1_555 1_555
S1 C9 1_555 1_555
C1A C2A 1_555 1_555
C2A C3A 1_555 1_555
C3A H1A 1_555 1_555
C4A C3A 1_555 1_555
H2A C4A 1_555 1_555
C5A H3A 1_555 1_555
C6A C2A 1_555 1_555
H4A C6A 1_555 1_555
C7A H5A 1_555 1_555
H6A C7A 1_555 1_555
C8A C8 1_555 1_555
H7A C8A 1_555 1_555
H8A C8A 1_555 1_555
O1A C1A 1_555 1_555
O2A C1A 1_555 1_555
N2A C4A 1_555 1_555
C9A N1A 1_555 1_555
N1A Mn1 1_555 1_555
S1A C9A 1_555 1_555
O3A Mn1 1_555 1_555
H9A O3A 1_555 1_555
H10A O3A 1_555 1_555
Mn1_2 O1A 1_555 1_555
O1A_2 Mn1 1_555 1_555
C5 C6 1_555 1_555
C5 N2 1_555 1_555
C7 N2 1_555 1_555
C5A C6A 1_555 1_555
C5A N2A 1_555 1_555
C7A C8A 1_555 1_555
C7A N2A 1_555 1_555

#END
