
#######################################################################
#
#                 Cambridge Crystallographic Data Centre
#                                CCDC 
#
#######################################################################
#
# If this CIF has been generated from an entry in the Cambridge 
# Structural Database, then it will include bibliographic, chemical, 
# crystal, experimental, refinement or atomic coordinate data resulting 
# from the CCDC's data processing and validation procedures.
#
#######################################################################

data_REVKOU
_symmetry_cell_setting           triclinic
_symmetry_space_group_name_H-M   'P -1'
_symmetry_Int_Tables_number      2
_space_group_name_Hall           '-P 1'
loop_
_symmetry_equiv_pos_site_id
_symmetry_equiv_pos_as_xyz
1 x,y,z
2 -x,-y,-z
_cell_length_a                   8.3269(9)
_cell_length_b                   10.4431(11)
_cell_length_c                   12.0864(12)
_cell_angle_alpha                80.2090(10)
_cell_angle_beta                 84.4140(10)
_cell_angle_gamma                84.1660(10)
_cell_volume                     1026.9
loop_
_atom_site_label
_atom_site_type_symbol
_atom_site_fract_x
_atom_site_fract_y
_atom_site_fract_z
Cd1 Cd 0.989336(19) 0.693848(14) 0.385478(12)
O1 O 1.0483(2) 0.92285(15) 0.38310(14)
O2 O 0.9287(2) 0.87394(15) 0.24171(14)
O3 O 0.9013(3) 1.39422(17) 0.44800(14)
O4 O 0.9018(2) 1.54457(15) 0.29491(13)
N1 N 0.7454(2) 0.7480(2) 0.47814(16)
N2 N 0.5612(2) 0.8469(2) 0.58534(16)
N3 N 0.2443(2) 0.65387(19) 1.30192(16)
N4 N 0.4834(2) 0.6881(2) 1.21194(16)
C1 C 0.9502(2) 1.0979(2) 0.24559(17)
C2 C 0.9378(2) 1.19228(19) 0.31547(17)
H1 H 0.9457 1.1675 0.3925
C3 C 0.9134(2) 1.32409(19) 0.26975(17)
C4 C 0.9006(3) 1.3596(2) 0.15422(18)
H2 H 0.8856 1.4475 0.1238
C5 C 0.9095(3) 1.2665(2) 0.08319(18)
C6 C 0.9343(3) 1.1357(2) 0.13054(18)
H3 H 0.9404 1.0722 0.0845
C7 C 0.9781(3) 0.9551(2) 0.29368(18)
C8 C 0.9061(2) 1.4283(2) 0.34381(18)
C9 C 0.8881(4) 1.3060(3) -0.0412(2)
H4 H 0.7765 1.3039 -0.0540
H5 H 0.9541 1.2464 -0.0826
H6 H 0.9201 1.3927 -0.0660
C10 C 0.7160(3) 0.8399(2) 0.54229(19)
H7 H 0.7928 0.8929 0.5558
C11 C 0.6006(3) 0.6950(3) 0.4799(2)
H8 H 0.5840 0.6280 0.4416
C12 C 0.4860(3) 0.7546(3) 0.5453(2)
H9 H 0.3781 0.7369 0.5603
C13 C 0.4921(3) 0.9303(3) 0.6678(2)
H10 H 0.3854 0.9679 0.6477
H11 H 0.5598 1.0013 0.6648
C14 C 0.4782(3) 0.8547(3) 0.7885(2)
H12 H 0.4271 0.9133 0.8384
H13 H 0.4080 0.7854 0.7914
C15 C 0.6367(4) 0.7962(3) 0.8316(2)
H14 H 0.7090 0.8649 0.8241
H15 H 0.6845 0.7340 0.7840
C16 C 0.6269(4) 0.7264(3) 0.9555(2)
H16 H 0.5347 0.6744 0.9688
H17 H 0.7238 0.6677 0.9677
C17 C 0.6106(4) 0.8199(3) 1.0385(2)
H18 H 0.5062 0.8701 1.0329
H19 H 0.6934 0.8805 1.0173
C18 C 0.6246(3) 0.7572(3) 1.1613(2)
H20 H 0.7205 0.6962 1.1658
H21 H 0.6387 0.8245 1.2050
C19 C 0.3445(3) 0.7415(2) 1.2575(2)
H22 H 0.3218 0.8305 1.2575
C20 C 0.4708(3) 0.5567(3) 1.2293(2)
H23 H 0.5482 0.4932 1.2075
C21 C 0.3238(3) 0.5370(3) 1.2844(2)
H24 H 0.2830 0.4562 1.3069
Cd1_2 Cd -0.010664(19) 0.693848(14) 1.385478(12)
Cd1_3 Cd 0.989336(19) 1.693848(14) 0.385478(12)
Cd1A Cd 1.010664(19) 1.306152(14) 0.614522(12)
O3A O 1.0987(3) 0.60578(17) 0.55200(14)
O4_2 O 0.9018(2) 0.54457(15) 0.29491(13)
N3_2 N 1.2443(2) 0.65387(19) 0.30192(16)
loop_
_geom_bond_atom_site_label_1
_geom_bond_atom_site_label_2
_geom_bond_site_symmetry_1
_geom_bond_site_symmetry_2
Cd1 O1 1_555 1_555
O1 C7 1_555 1_555
O2 Cd1 1_555 1_555
O3 C8 1_555 1_555
O4 C8 1_555 1_555
N1 Cd1 1_555 1_555
N2 C10 1_555 1_555
N3 C19 1_555 1_555
N4 C18 1_555 1_555
C1 C2 1_555 1_555
C2 H1 1_555 1_555
C3 C2 1_555 1_555
C4 C3 1_555 1_555
H2 C4 1_555 1_555
C5 C4 1_555 1_555
C6 C1 1_555 1_555
H3 C6 1_555 1_555
C7 O2 1_555 1_555
C8 C3 1_555 1_555
C9 C5 1_555 1_555
H4 C9 1_555 1_555
H5 C9 1_555 1_555
H6 C9 1_555 1_555
C10 N1 1_555 1_555
H7 C10 1_555 1_555
C11 N1 1_555 1_555
H8 C11 1_555 1_555
C12 N2 1_555 1_555
H9 C12 1_555 1_555
C13 N2 1_555 1_555
H10 C13 1_555 1_555
H11 C13 1_555 1_555
C14 C13 1_555 1_555
H12 C14 1_555 1_555
H13 C14 1_555 1_555
C15 C14 1_555 1_555
H14 C15 1_555 1_555
H15 C15 1_555 1_555
C16 C15 1_555 1_555
H16 C16 1_555 1_555
H17 C16 1_555 1_555
C17 C16 1_555 1_555
H18 C17 1_555 1_555
H19 C17 1_555 1_555
C18 C17 1_555 1_555
H20 C18 1_555 1_555
H21 C18 1_555 1_555
C19 N4 1_555 1_555
H22 C19 1_555 1_555
C20 N4 1_555 1_555
H23 C20 1_555 1_555
C21 N3 1_555 1_555
H24 C21 1_555 1_555
Cd1_2 N3 1_555 1_555
Cd1_3 O4 1_555 1_555
Cd1A O3 1_555 1_555
O3A Cd1 1_555 1_555
O4_2 Cd1 1_555 1_555
N3_2 Cd1 1_555 1_555
C1 C7 1_555 1_555
C5 C6 1_555 1_555
C11 C12 1_555 1_555
C20 C21 1_555 1_555

#END
