
#######################################################################
#
#                 Cambridge Crystallographic Data Centre
#                                CCDC 
#
#######################################################################
#
# If this CIF has been generated from an entry in the Cambridge 
# Structural Database, then it will include bibliographic, chemical, 
# crystal, experimental, refinement or atomic coordinate data resulting 
# from the CCDC's data processing and validation procedures.
#
#######################################################################

data_REVKIO
_symmetry_cell_setting           triclinic
_symmetry_space_group_name_H-M   'P -1'
_symmetry_Int_Tables_number      2
_space_group_name_Hall           '-P 1'
loop_
_symmetry_equiv_pos_site_id
_symmetry_equiv_pos_as_xyz
1 x,y,z
2 -x,-y,-z
_cell_length_a                   5.453(3)
_cell_length_b                   9.807(5)
_cell_length_c                   10.363(5)
_cell_angle_alpha                66.809(5)
_cell_angle_beta                 77.466(5)
_cell_angle_gamma                83.677(6)
_cell_volume                     497.08
loop_
_atom_site_label
_atom_site_type_symbol
_atom_site_fract_x
_atom_site_fract_y
_atom_site_fract_z
Mn1 Mn 0.5000 0.0000 0.5000
O1 O 0.7178(2) 0.08743(16) 0.28506(12)
O2 O 0.4658(3) 0.06548(18) 0.15091(14)
O3 O 0.2383(2) -0.09601(15) 0.42295(14)
H1 H 0.252(4) -0.040(2) 0.3365(17)
H2 H 0.093(3) -0.118(3) 0.463(2)
N1 N 0.7421(3) -0.20587(18) 0.55195(18)
C1 C 0.7399(4) -0.3093(2) 0.6580(2)
O4 O 0.7401(5) -0.4174(2) 0.7663(2)
N2 N 1.2299(3) 0.30409(15) -0.19206(14)
C2 C 0.6569(3) 0.1073(2) 0.16922(18)
C3 C 0.8494(3) 0.18770(19) 0.03663(17)
C4 C 1.0196(3) 0.2804(2) 0.03921(18)
H3 H 1.0066 0.3032 0.1195
C5 C 1.2081(3) 0.3389(2) -0.07701(18)
H4 H 1.3211 0.4028 -0.0760
C6 C 1.0608(3) 0.2186(2) -0.19918(18)
H5 H 1.0755 0.1989 -0.2813
C7 C 0.8674(3) 0.16038(19) -0.08673(17)
H6 H 0.7489 0.1030 -0.0929
C8 C 1.4490(3) 0.3544(2) -0.31126(18)
H7 H 1.5146 0.2722 -0.3396
H8 H 1.5802 0.3832 -0.2778
C9 C 1.3846(3) 0.48321(19) -0.43966(17)
H9 H 1.3357 0.5696 -0.4154
H10 H 1.2449 0.4587 -0.4700
O1A O 2.2822(2) 0.91257(16) -1.28506(12)
O2A O 2.5342(3) 0.93452(18) -1.15091(14)
N2A N 1.7701(3) 0.69591(15) -0.80794(14)
C2A C 2.3431(3) 0.8927(2) -1.16922(18)
C3A C 2.1506(3) 0.81230(19) -1.03663(17)
C4A C 1.9804(3) 0.7196(2) -1.03921(18)
H3A H 1.9934 0.6968 -1.1195
C5A C 1.7919(3) 0.6611(2) -0.92299(18)
H4A H 1.6789 0.5972 -0.9240
C6A C 1.9392(3) 0.7814(2) -0.80082(18)
H5A H 1.9245 0.8011 -0.7187
C7A C 2.1326(3) 0.83962(19) -0.91327(17)
H6A H 2.2511 0.8970 -0.9071
C8A C 1.5510(3) 0.6456(2) -0.68874(18)
H7A H 1.4854 0.7278 -0.6604
H8A H 1.4198 0.6168 -0.7222
C9A C 1.6154(3) 0.51679(19) -0.56034(17)
H9A H 1.6643 0.4304 -0.5846
H10A H 1.7551 0.5413 -0.5300
O3A O 0.7617(2) 0.09601(15) 0.57705(14)
H1A H 0.748(4) 0.040(2) 0.6635(17)
H2A H 0.907(3) 0.118(3) 0.537(2)
N1A N 0.2579(3) 0.20587(18) 0.44805(18)
C1A C 0.2601(4) 0.3093(2) 0.3420(2)
O4A O 0.2599(5) 0.4174(2) 0.2337(2)
Mn1_2 Mn 2.5000 1.0000 -1.5000
O1A_2 O 0.2822(2) -0.08743(16) 0.71494(12)
loop_
_geom_bond_atom_site_label_1
_geom_bond_atom_site_label_2
_geom_bond_site_symmetry_1
_geom_bond_site_symmetry_2
Mn1 O1 1_555 1_555
O1 C2 1_555 1_555
O2 C2 1_555 1_555
O3 Mn1 1_555 1_555
H1 O3 1_555 1_555
H2 O3 1_555 1_555
N1 Mn1 1_555 1_555
C1 N1 1_555 1_555
O4 C1 1_555 1_555
N2 C5 1_555 1_555
C2 C3 1_555 1_555
C3 C4 1_555 1_555
C4 H3 1_555 1_555
C5 C4 1_555 1_555
H4 C5 1_555 1_555
C6 N2 1_555 1_555
H5 C6 1_555 1_555
C7 C3 1_555 1_555
H6 C7 1_555 1_555
C8 N2 1_555 1_555
H7 C8 1_555 1_555
H8 C8 1_555 1_555
C9 C8 1_555 1_555
H9 C9 1_555 1_555
H10 C9 1_555 1_555
O1A C2A 1_555 1_555
O2A C2A 1_555 1_555
N2A C5A 1_555 1_555
C2A C3A 1_555 1_555
C3A C4A 1_555 1_555
C4A H3A 1_555 1_555
C5A C4A 1_555 1_555
H4A C5A 1_555 1_555
C6A N2A 1_555 1_555
H5A C6A 1_555 1_555
C7A C3A 1_555 1_555
H6A C7A 1_555 1_555
C8A N2A 1_555 1_555
H7A C8A 1_555 1_555
H8A C8A 1_555 1_555
C9A C9 1_555 1_555
H9A C9A 1_555 1_555
H10A C9A 1_555 1_555
O3A Mn1 1_555 1_555
H1A O3A 1_555 1_555
H2A O3A 1_555 1_555
N1A Mn1 1_555 1_555
C1A N1A 1_555 1_555
O4A C1A 1_555 1_555
Mn1_2 O1A 1_555 1_555
O1A_2 Mn1 1_555 1_555
C6 C7 1_555 1_555
C6A C7A 1_555 1_555
C8A C9A 1_555 1_555

#END
