
#######################################################################
#
#                 Cambridge Crystallographic Data Centre
#                                CCDC 
#
#######################################################################
#
# If this CIF has been generated from an entry in the Cambridge 
# Structural Database, then it will include bibliographic, chemical, 
# crystal, experimental, refinement or atomic coordinate data resulting 
# from the CCDC's data processing and validation procedures.
#
#######################################################################

data_REVLIP
_symmetry_cell_setting           monoclinic
_symmetry_space_group_name_H-M   'P 21/c'
_symmetry_Int_Tables_number      14
_space_group_name_Hall           '-P 2ybc'
loop_
_symmetry_equiv_pos_site_id
_symmetry_equiv_pos_as_xyz
1 x,y,z
2 -x,1/2+y,1/2-z
3 -x,-y,-z
4 x,1/2-y,1/2+z
_cell_length_a                   8.6082(16)
_cell_length_b                   18.137(3)
_cell_length_c                   13.247(2)
_cell_angle_alpha                90
_cell_angle_beta                 99.528(2)
_cell_angle_gamma                90
_cell_volume                     2039.68
loop_
_atom_site_label
_atom_site_type_symbol
_atom_site_fract_x
_atom_site_fract_y
_atom_site_fract_z
Sn1 Sn 0.081493(19) 0.338480(9) 0.799628(13)
O1 O -0.0787(2) 0.33154(11) 0.66457(16)
O2 O -0.6765(2) 0.15358(11) 0.44566(16)
C1 C 0.2272(3) 0.40807(13) 0.72770(18)
C2 C 0.3674(3) 0.38671(18) 0.6987(2)
H1 H 0.4063 0.3395 0.7144
C3 C 0.4503(4) 0.4346(2) 0.6468(3)
H2 H 0.5436 0.4191 0.6269
C4 C 0.3971(4) 0.5045(2) 0.6244(3)
H3 H 0.4541 0.5368 0.5901
C5 C 0.2594(4) 0.52625(18) 0.6529(3)
H4 H 0.2220 0.5738 0.6381
C6 C 0.1751(3) 0.47823(15) 0.7035(2)
H5 H 0.0805 0.4938 0.7217
C7 C 0.1314(3) 0.22533(14) 0.83035(19)
C8 C 0.1868(4) 0.18054(16) 0.7611(2)
H6 H 0.2048 0.2000 0.6991
C9 C 0.2163(4) 0.10699(18) 0.7822(3)
H7 H 0.2546 0.0773 0.7346
C10 C 0.1897(4) 0.07766(17) 0.8715(3)
H8 H 0.2100 0.0280 0.8853
C11 C 0.1330(4) 0.12112(18) 0.9417(2)
H9 H 0.1138 0.1010 1.0030
C12 C 0.1044(4) 0.19462(17) 0.9210(2)
H10 H 0.0663 0.2241 0.9689
C13 C -0.0655(3) 0.38864(13) 0.8939(2)
C14 C -0.0256(3) 0.39213(18) 0.9990(2)
H11 H 0.0701 0.3726 1.0307
C15 C -0.1255(4) 0.42412(19) 1.0579(3)
H12 H -0.0976 0.4253 1.1287
C16 C -0.2653(4) 0.45397(18) 1.0122(3)
H13 H -0.3313 0.4767 1.0518
C17 C -0.3078(4) 0.45041(17) 0.9086(3)
H14 H -0.4037 0.4700 0.8775
C18 C -0.2085(3) 0.41767(16) 0.8495(2)
H15 H -0.2387 0.4153 0.7788
C19 C -0.2037(3) 0.28974(15) 0.63743(19)
C20 C -0.2666(3) 0.24285(16) 0.7032(2)
H16 H -0.2207 0.2404 0.7718
C21 C -0.3961(3) 0.20003(16) 0.6679(2)
H17 H -0.4358 0.1687 0.7132
C22 C -0.4689(3) 0.20246(14) 0.5663(2)
C23 C -0.6020(3) 0.15642(14) 0.5311(2)
H18 H -0.6345 0.1253 0.5793
C24 C -0.4082(3) 0.24978(16) 0.5007(2)
H19 H -0.4560 0.2527 0.4325
C25 C -0.2789(3) 0.29221(17) 0.5346(2)
H20 H -0.2398 0.3233 0.4890
Sn1C Sn -0.918507(19) 0.161520(9) 0.299628(13)
O2C O 0.3235(2) 0.34642(11) 0.94566(16)
loop_
_geom_bond_atom_site_label_1
_geom_bond_atom_site_label_2
_geom_bond_site_symmetry_1
_geom_bond_site_symmetry_2
Sn1 O1 1_555 1_555
O1 C19 1_555 1_555
O2 C23 1_555 1_555
C1 Sn1 1_555 1_555
C2 C1 1_555 1_555
H1 C2 1_555 1_555
C3 C2 1_555 1_555
H2 C3 1_555 1_555
C4 C3 1_555 1_555
H3 C4 1_555 1_555
C5 C4 1_555 1_555
H4 C5 1_555 1_555
C6 C1 1_555 1_555
H5 C6 1_555 1_555
C7 Sn1 1_555 1_555
C8 C7 1_555 1_555
H6 C8 1_555 1_555
C9 C8 1_555 1_555
H7 C9 1_555 1_555
C10 C9 1_555 1_555
H8 C10 1_555 1_555
C11 C10 1_555 1_555
H9 C11 1_555 1_555
C12 C7 1_555 1_555
H10 C12 1_555 1_555
C13 Sn1 1_555 1_555
C14 C13 1_555 1_555
H11 C14 1_555 1_555
C15 C14 1_555 1_555
H12 C15 1_555 1_555
C16 C15 1_555 1_555
H13 C16 1_555 1_555
C17 C16 1_555 1_555
H14 C17 1_555 1_555
C18 C13 1_555 1_555
H15 C18 1_555 1_555
C19 C20 1_555 1_555
C20 H16 1_555 1_555
C21 C20 1_555 1_555
H17 C21 1_555 1_555
C22 C21 1_555 1_555
C23 C22 1_555 1_555
H18 C23 1_555 1_555
C24 C22 1_555 1_555
H19 C24 1_555 1_555
C25 C19 1_555 1_555
H20 C25 1_555 1_555
Sn1C O2 1_555 1_555
O2C Sn1 1_555 1_555
C5 C6 1_555 1_555
C11 C12 1_555 1_555
C17 C18 1_555 1_555
C24 C25 1_555 1_555

#END
