
#######################################################################
#
#                 Cambridge Crystallographic Data Centre
#                                CCDC 
#
#######################################################################
#
# If this CIF has been generated from an entry in the Cambridge 
# Structural Database, then it will include bibliographic, chemical, 
# crystal, experimental, refinement or atomic coordinate data resulting 
# from the CCDC's data processing and validation procedures.
#
#######################################################################

data_REVRIT
_symmetry_cell_setting           tetragonal
_symmetry_space_group_name_H-M   'I 41 c d'
_symmetry_Int_Tables_number      110
_space_group_name_Hall           'I 4bw -2c'
loop_
_symmetry_equiv_pos_site_id
_symmetry_equiv_pos_as_xyz
1 x,y,z
2 1/2-x,1/2-y,1/2+z
3 -y,1/2+x,1/4+z
4 1/2+y,-x,3/4+z
5 x,-y,1/2+z
6 1/2-x,1/2+y,z
7 -y,1/2-x,3/4+z
8 1/2+y,x,1/4+z
9 1/2+x,1/2+y,1/2+z
10 -x,-y,z
11 1/2-y,x,3/4+z
12 y,1/2-x,1/4+z
13 1/2+x,1/2-y,z
14 -x,y,1/2+z
15 1/2-y,-x,1/4+z
16 y,1/2+x,3/4+z
_cell_length_a                   19.490(5)
_cell_length_b                   19.490(5)
_cell_length_c                   16.508(7)
_cell_angle_alpha                90
_cell_angle_beta                 90
_cell_angle_gamma                90
_cell_volume                     6270.73
loop_
_atom_site_label
_atom_site_type_symbol
_atom_site_fract_x
_atom_site_fract_y
_atom_site_fract_z
Co1 Co 0.0000 0.0000 0.0000
O1 O 0.0000 0.0000 -0.128(2)
N1 N -0.0774(7) -0.0802(7) 0.001(1)
C1 C -0.3224(9) -0.3128(8) 0.014(1)
C2 C -0.309(1) -0.3773(9) -0.019(1)
C3 C -0.0744(9) -0.1269(9) -0.062(1)
C4 C -0.3577(8) -0.4295(8) -0.022(1)
C5 C -0.3870(9) -0.3055(9) 0.041(1)
C6 C -0.2728(9) -0.257(1) 0.020(1)
C7 C -0.1184(9) -0.1824(9) -0.068(1)
C8 C -0.2138(8) -0.2518(8) -0.015(1)
N2 N -0.4201(7) -0.4209(7) 0.0129(9)
C9 C -0.1670(8) -0.1926(8) -0.010(1)
C10 C -0.170(1) -0.1459(9) 0.054(1)
C11 C -0.435(1) -0.358(1) 0.038(1)
C12 C -0.1235(9) -0.0882(8) 0.057(1)
O2 O 0.0000 0.0000 0.128(2)
H1 H -0.4018(9) -0.2617(9) 0.061(1)
H2 H -0.264(1) -0.3847(9) -0.042(1)
H3 H -0.3473(8) -0.4725(8) -0.048(1)
H4 H -0.2859(9) -0.217(1) 0.051(1)
H5 H -0.1996(8) -0.2904(8) -0.047(1)
H6 H -0.204(1) -0.1518(9) 0.095(1)
H7 H -0.1265(9) -0.0558(8) 0.100(1)
H8 H -0.0408(9) -0.1198(9) -0.103(1)
H9 H -0.1148(9) -0.2144(9) -0.112(1)
H10 H -0.040(2) -0.003(9) -0.161(1)
H11 H -0.022(7) 0.033(5) 0.1630(9)
H12 H -0.481(1) -0.351(1) 0.059(1)
H10I H 0.040(2) 0.003(9) -0.161(1)
H11I H 0.022(7) -0.033(5) 0.1630(9)
N1I N 0.0774(7) 0.0802(7) 0.001(1)
C1I C 0.3224(9) 0.3128(8) 0.014(1)
C2I C 0.309(1) 0.3773(9) -0.019(1)
C3I C 0.0744(9) 0.1269(9) -0.062(1)
C4I C 0.3577(8) 0.4295(8) -0.022(1)
C5I C 0.3870(9) 0.3055(9) 0.041(1)
C6I C 0.2728(9) 0.257(1) 0.020(1)
C7I C 0.1184(9) 0.1824(9) -0.068(1)
C8I C 0.2138(8) 0.2518(8) -0.015(1)
N2I N 0.4201(7) 0.4209(7) 0.0129(9)
C9I C 0.1670(8) 0.1926(8) -0.010(1)
C10I C 0.170(1) 0.1459(9) 0.054(1)
C11I C 0.435(1) 0.358(1) 0.038(1)
C12I C 0.1235(9) 0.0882(8) 0.057(1)
H1I H 0.4018(9) 0.2617(9) 0.061(1)
H2I H 0.264(1) 0.3847(9) -0.042(1)
H3I H 0.3473(8) 0.4725(8) -0.048(1)
H4I H 0.2859(9) 0.217(1) 0.051(1)
H5I H 0.1996(8) 0.2904(8) -0.047(1)
H6I H 0.204(1) 0.1518(9) 0.095(1)
H7I H 0.1265(9) 0.0558(8) 0.100(1)
H8I H 0.0408(9) 0.1198(9) -0.103(1)
H9I H 0.1148(9) 0.2144(9) -0.112(1)
H12I H 0.481(1) 0.351(1) 0.059(1)
N2E N -0.0799(7) 0.0791(7) 0.0129(9)
N2L N 0.0799(7) -0.0791(7) 0.0129(9)
Co1E Co -0.5000 -0.5000 0.0000
Co1E_2 Co 0.5000 0.5000 0.0000
Cl1 Cl 0.0379(3) 0.1785(2) 0.2464(8)
O3 O 0.1031(8) 0.1487(8) 0.256(2)
O4 O 0.020(1) 0.2139(9) 0.315(1)
O5 O 0.039(1) 0.223(1) 0.179(1)
O6 O -0.0092(9) 0.1261(8) 0.240(2)
C13 C -0.1619(9) -0.033(1) -0.239(2)
O7 O -0.1137(8) 0.0095(8) -0.216(1)
H13 H -0.1452(9) -0.055(1) -0.287(2)
H14 H -0.2011(9) -0.006(1) -0.252(2)
H15 H -0.1748(9) -0.068(1) -0.200(2)
H16 H -0.1352(8) 0.0422(8) -0.194(1)
loop_
_geom_bond_atom_site_label_1
_geom_bond_atom_site_label_2
_geom_bond_site_symmetry_1
_geom_bond_site_symmetry_2
Co1 O1 1_555 1_555
O1 H10 1_555 1_555
N1 Co1 1_555 1_555
C1 C2 1_555 1_555
C2 C4 1_555 1_555
C3 N1 1_555 1_555
C4 N2 1_555 1_555
C5 C1 1_555 1_555
C6 C1 1_555 1_555
C7 C3 1_555 1_555
C8 C6 1_555 1_555
N2 C11 1_555 1_555
C9 C7 1_555 1_555
C10 C9 1_555 1_555
C11 C5 1_555 1_555
C12 N1 1_555 1_555
O2 Co1 1_555 1_555
H1 C5 1_555 1_555
H2 C2 1_555 1_555
H3 C4 1_555 1_555
H4 C6 1_555 1_555
H5 C8 1_555 1_555
H6 C10 1_555 1_555
H7 C12 1_555 1_555
H8 C3 1_555 1_555
H9 C7 1_555 1_555
H11 O2 1_555 1_555
H12 C11 1_555 1_555
Cl1 O3 1_555 1_555
O4 Cl1 1_555 1_555
O5 Cl1 1_555 1_555
O6 Cl1 1_555 1_555
C13 O7 1_555 1_555
O7 H16 1_555 1_555
H13 C13 1_555 1_555
H14 C13 1_555 1_555
H15 C13 1_555 1_555
H10I O1 1_555 1_555
H11I O2 1_555 1_555
N1I Co1 1_555 1_555
C1I C2I 1_555 1_555
C2I C4I 1_555 1_555
C3I N1I 1_555 1_555
C4I N2I 1_555 1_555
C5I C1I 1_555 1_555
C6I C1I 1_555 1_555
C7I C3I 1_555 1_555
C8I C6I 1_555 1_555
N2I C11I 1_555 1_555
C9I C7I 1_555 1_555
C10I C9I 1_555 1_555
C11I C5I 1_555 1_555
C12I N1I 1_555 1_555
H1I C5I 1_555 1_555
H2I C2I 1_555 1_555
H3I C4I 1_555 1_555
H4I C6I 1_555 1_555
H5I C8I 1_555 1_555
H6I C10I 1_555 1_555
H7I C12I 1_555 1_555
H8I C3I 1_555 1_555
H9I C7I 1_555 1_555
H12I C11I 1_555 1_555
N2E Co1 1_555 1_555
N2L Co1 1_555 1_555
Co1E N2 1_555 1_555
Co1E_2 N2I 1_555 1_555
C8 C9 1_555 1_555
C10 C12 1_555 1_555
C8I C9I 1_555 1_555
C10I C12I 1_555 1_555

#END
