
#######################################################################
#
#                 Cambridge Crystallographic Data Centre
#                                CCDC 
#
#######################################################################
#
# If this CIF has been generated from an entry in the Cambridge 
# Structural Database, then it will include bibliographic, chemical, 
# crystal, experimental, refinement or atomic coordinate data resulting 
# from the CCDC's data processing and validation procedures.
#
#######################################################################

data_REVVEV
_symmetry_cell_setting           triclinic
_symmetry_space_group_name_H-M   'P -1'
_symmetry_Int_Tables_number      2
_space_group_name_Hall           '-P 1'
loop_
_symmetry_equiv_pos_site_id
_symmetry_equiv_pos_as_xyz
1 x,y,z
2 -x,-y,-z
_cell_length_a                   9.153(5)
_cell_length_b                   10.338(5)
_cell_length_c                   13.074(5)
_cell_angle_alpha                80.956(5)
_cell_angle_beta                 89.725(5)
_cell_angle_gamma                80.534(5)
_cell_volume                     1204.81
loop_
_atom_site_label
_atom_site_type_symbol
_atom_site_fract_x
_atom_site_fract_y
_atom_site_fract_z
Pb1 Pb 0.664370(19) 0.996661(18) 0.349292(13)
C1 C 0.5605(4) 0.8713(4) 0.1306(3)
C2 C 0.7710(5) 0.9435(5) -0.0072(3)
H1 H 0.8436 0.9698 -0.0520
C3 C 0.4596(5) 0.7502(4) 0.0126(3)
C4 C 0.1755(6) 0.3748(5) -0.2383(4)
C5 C 0.3351(6) 0.5238(5) -0.2126(4)
H2 H 0.4100 0.5711 -0.2360
N1 N 0.4387(4) 0.6919(4) -0.0725(3)
H3 H 0.4860 0.6994 -0.1296
F1 F 0.1245(4) 0.2953(3) -0.2994(2)
C6 C 0.2846(6) 0.4418(5) -0.2740(4)
H4 H 0.3252 0.4332 -0.3384
N2 N 0.4475(4) 0.8816(4) 0.2957(3)
O1 O 0.4948(3) 1.1875(3) 0.2696(2)
C7 C 0.5657(5) 0.8297(4) 0.0322(3)
N3 N 0.6582(4) 0.9457(4) 0.1577(3)
C8 C 0.4498(5) 0.8355(4) 0.2044(3)
N4 N 0.2766(4) 0.6275(4) 0.0459(3)
C9 C 0.7604(5) 0.9788(5) 0.0913(3)
H5 H 0.8284 1.0280 0.1114
C10 C 0.1142(5) 0.3815(5) -0.1435(4)
H6 H 0.0403 0.3327 -0.1207
O2 O 0.4394(3) 1.1273(3) 0.4317(2)
C11 C 0.3268(5) 0.6192(4) -0.0479(3)
C12 C 0.4168(4) 1.2059(4) 0.3491(3)
C13 C 0.6728(5) 0.8696(5) -0.0367(3)
H7 H 0.6772 0.8459 -0.1025
C14 C 0.2749(5) 0.5355(4) -0.1170(3)
C15 C 0.3497(5) 0.7531(5) 0.1823(3)
C16 C 0.3590(5) 0.7094(4) 0.0837(3)
C17 C 0.2983(5) 1.3295(5) 0.3391(4)
H8 H 0.3497 1.4060 0.3360
C18 C 0.1970(5) 1.3309(6) 0.4321(4)
H9 H 0.2571 1.3069 0.4953
H10 H 0.1433 1.4202 0.4311
C19 C 0.1651(5) 0.4626(5) -0.0828(4)
H11 H 0.1251 0.4687 -0.0178
C20 C 0.2462(6) 0.7223(6) 0.2559(4)
H12 H 0.1778 0.6692 0.2429
C21 C 0.3473(6) 0.8501(6) 0.3635(4)
H13 H 0.3448 0.8833 0.4257
C22 C 0.2446(7) 0.7693(7) 0.3466(4)
H14 H 0.1765 0.7483 0.3969
C23 C 0.0868(5) 1.2358(6) 0.4329(4)
H15 H 0.1397 1.1453 0.4436
H16 H 0.0203 1.2456 0.4903
C24 C 0.2060(5) 1.3498(5) 0.2397(4)
H17 H 0.2716 1.3409 0.1818
H18 H 0.1500 1.4392 0.2283
C25 C -0.1249(5) 1.1778(5) 0.3366(4)
C26 C -0.0025(5) 1.2610(5) 0.3334(4)
H19 H -0.0517 1.3538 0.3252
C27 C 0.0989(5) 1.2505(5) 0.2426(4)
H20 H 0.0406 1.2686 0.1787
H21 H 0.1544 1.1611 0.2488
O3 O -0.1439(4) 1.1175(4) 0.2636(3)
O4 O -0.2091(4) 1.1753(4) 0.4124(3)
Pb1_2 Pb -0.335630(19) 0.996661(18) 0.349292(13)
O3_2 O 0.8561(4) 1.1175(4) 0.2636(3)
O4_2 O 0.7909(4) 1.1753(4) 0.4124(3)
O5 O -0.405(2) 1.4098(19) 0.4769(16)
loop_
_geom_bond_atom_site_label_1
_geom_bond_atom_site_label_2
_geom_bond_site_symmetry_1
_geom_bond_site_symmetry_2
Pb1 N2 1_555 1_555
C1 C7 1_555 1_555
C2 H1 1_555 1_555
C3 N1 1_555 1_555
C4 F1 1_555 1_555
C5 H2 1_555 1_555
N1 H3 1_555 1_555
C6 C4 1_555 1_555
H4 C6 1_555 1_555
N2 C8 1_555 1_555
O1 Pb1 1_555 1_555
C7 C3 1_555 1_555
N3 Pb1 1_555 1_555
C8 C1 1_555 1_555
N4 C11 1_555 1_555
C9 C2 1_555 1_555
H5 C9 1_555 1_555
C10 C4 1_555 1_555
H6 C10 1_555 1_555
O2 Pb1 1_555 1_555
C11 N1 1_555 1_555
C12 O1 1_555 1_555
C13 C2 1_555 1_555
H7 C13 1_555 1_555
C14 C5 1_555 1_555
C15 C8 1_555 1_555
C16 C3 1_555 1_555
C17 C12 1_555 1_555
H8 C17 1_555 1_555
C18 C17 1_555 1_555
H9 C18 1_555 1_555
H10 C18 1_555 1_555
C19 C10 1_555 1_555
H11 C19 1_555 1_555
C20 C15 1_555 1_555
H12 C20 1_555 1_555
C21 N2 1_555 1_555
H13 C21 1_555 1_555
C22 C20 1_555 1_555
H14 C22 1_555 1_555
C23 C18 1_555 1_555
H15 C23 1_555 1_555
H16 C23 1_555 1_555
C24 C17 1_555 1_555
H17 C24 1_555 1_555
H18 C24 1_555 1_555
C25 C26 1_555 1_555
C26 C23 1_555 1_555
H19 C26 1_555 1_555
C27 C24 1_555 1_555
H20 C27 1_555 1_555
H21 C27 1_555 1_555
O3 C25 1_555 1_555
O4 C25 1_555 1_555
Pb1_2 O3 1_555 1_555
O3_2 Pb1 1_555 1_555
O4_2 Pb1 1_555 1_555
C1 N3 1_555 1_555
C5 C6 1_555 1_555
C7 C13 1_555 1_555
N3 C9 1_555 1_555
N4 C16 1_555 1_555
O2 C12 1_555 1_555
C11 C14 1_555 1_555
C14 C19 1_555 1_555
C15 C16 1_555 1_555
C21 C22 1_555 1_555
C26 C27 1_555 1_555
O4 Pb1_2 1_555 1_555

#END
