
#######################################################################
#
#                 Cambridge Crystallographic Data Centre
#                                CCDC 
#
#######################################################################
#
# If this CIF has been generated from an entry in the Cambridge 
# Structural Database, then it will include bibliographic, chemical, 
# crystal, experimental, refinement or atomic coordinate data resulting 
# from the CCDC's data processing and validation procedures.
#
#######################################################################

data_REVVUJ
_symmetry_cell_setting           triclinic
_symmetry_space_group_name_H-M   'P -1'
_symmetry_Int_Tables_number      2
_space_group_name_Hall           '-P 1'
loop_
_symmetry_equiv_pos_site_id
_symmetry_equiv_pos_as_xyz
1 x,y,z
2 -x,-y,-z
_cell_length_a                   14.083(2)
_cell_length_b                   15.754(2)
_cell_length_c                   17.519(2)
_cell_angle_alpha                67.011(9)
_cell_angle_beta                 73.512(7)
_cell_angle_gamma                69.083(7)
_cell_volume                     3294.88
loop_
_atom_site_label
_atom_site_type_symbol
_atom_site_fract_x
_atom_site_fract_y
_atom_site_fract_z
O9 O -0.0270(3) 0.1357(3) 0.3351(3)
C55 C -0.0857(4) 0.0816(5) 0.3706(4)
C56 C -0.1293(5) 0.0522(5) 0.3255(4)
C57 C -0.1911(6) -0.0065(6) 0.3661(6)
N7 N -0.2145(4) -0.0388(4) 0.4503(5)
C58 C -0.1758(6) -0.0112(6) 0.4956(5)
C59 C -0.1147(5) 0.0471(6) 0.4591(4)
C60 C -0.2819(6) -0.1031(6) 0.4924(8)
C61 C -0.3959(5) -0.0486(5) 0.4971(5)
C62 C -0.4484(7) -0.0073(7) 0.5575(5)
C63 C -0.4484(7) -0.0395(7) 0.4395(6)
H53 H -0.1181(5) 0.0779(5) 0.2652(4)
H54 H -0.2171(6) -0.0291(6) 0.3347(6)
H55 H -0.1923(6) -0.0350(6) 0.5558(5)
H56 H -0.0895(5) 0.0658(6) 0.4939(4)
H57 H -0.2668(6) -0.1398(6) 0.5482(8)
H58 H -0.2661(6) -0.1471(6) 0.4621(8)
H59 H -0.4141(7) -0.0109(7) 0.5973(5)
H60 H -0.4136(7) -0.0658(7) 0.3966(6)
C63A C -0.5516(7) 0.0395(7) 0.5605(6)
C62A C -0.5516(7) 0.0073(7) 0.4425(5)
Cl1 Cl -0.2044(2) 0.2234(2) 0.1058(1)
O10 O -0.2517(7) 0.2588(6) 0.1720(5)
O11 O -0.2464(6) 0.2756(5) 0.0333(5)
O12 O -0.2074(12) 0.1287(7) 0.1335(8)
O13 O -0.1049(6) 0.2155(12) 0.0878(6)
Cl2 Cl 0.0121(2) 0.3011(2) 0.5125(1)
O14 O 0.0971(6) 0.2952(6) 0.4528(5)
O15 O 0.0204(8) 0.2473(7) 0.5916(4)
O16 O -0.0478(13) 0.2726(18) 0.4884(9)
O17 O -0.0414(11) 0.3910(8) 0.5091(8)
Cl3 Cl -0.3378(2) 0.8404(2) 0.2610(2)
O18 O -0.2848(6) 0.8465(6) 0.1769(5)
O19 O -0.4097(7) 0.9295(7) 0.2613(6)
O20 O -0.2675(6) 0.8099(8) 0.3117(5)
O21 O -0.3926(7) 0.7734(9) 0.2859(9)
O24 O 0.2472(18) 0.3740(16) 0.5553(13)
Nd1 Nd 0.1979(1) 0.2702(1) 0.1551(1)
O1 O 0.1187(3) 0.3507(4) 0.0333(3)
C1 C 0.1385(4) 0.3898(5) -0.0462(4)
C2 C 0.1862(5) 0.3375(5) -0.1022(4)
C3 C 0.1993(5) 0.3801(5) -0.1860(4)
N1 N 0.1676(4) 0.4754(4) -0.2203(3)
C4 C 0.1237(5) 0.5298(5) -0.1693(4)
C5 C 0.1083(5) 0.4903(5) -0.0849(4)
C6 C 0.1781(5) 0.5238(5) -0.3134(4)
C7 C 0.2596(5) 0.5757(5) -0.3471(4)
C8 C 0.3621(5) 0.5272(5) -0.3600(5)
C9 C 0.4382(5) 0.5742(5) -0.3911(5)
C10 C 0.4106(5) 0.6726(5) -0.4115(4)
C11 C 0.3082(6) 0.7208(5) -0.4006(4)
C12 C 0.2328(5) 0.6728(5) -0.3684(4)
O2 O 0.2743(4) 0.4003(3) 0.0761(3)
C13 C 0.3521(5) 0.4211(4) 0.0218(4)
C14 C 0.3400(5) 0.5031(5) -0.0502(4)
C15 C 0.4214(5) 0.5234(4) -0.1075(4)
N2 N 0.5187(4) 0.4680(4) -0.0978(3)
C16 C 0.5349(5) 0.3895(4) -0.0289(4)
C17 C 0.4542(5) 0.3653(4) 0.0306(4)
C18 C 0.6046(5) 0.4863(5) -0.1668(5)
C19 C 0.6234(4) 0.4342(4) -0.2279(4)
C20 C 0.7027(5) 0.4432(4) -0.2957(4)
C21 C 0.7252(5) 0.3942(4) -0.3510(4)
C22 C 0.6679(5) 0.3348(4) -0.3413(4)
C23 C 0.5877(5) 0.3262(4) -0.2751(4)
C24 C 0.5651(5) 0.3744(4) -0.2175(4)
O3 O 0.1139(3) 0.3944(3) 0.2213(3)
C25 C 0.0881(4) 0.4839(4) 0.2131(3)
C26 C 0.0551(5) 0.5148(4) 0.2848(4)
C27 C 0.0213(5) 0.6099(5) 0.2763(4)
N3 N 0.0188(3) 0.6784(4) 0.2008(3)
C28 C 0.0528(5) 0.6519(4) 0.1307(4)
C29 C 0.0884(4) 0.5583(4) 0.1347(4)
C30 C -0.0225(5) 0.7809(4) 0.1940(5)
C31 C 0.0577(4) 0.8362(4) 0.1524(4)
C32 C 0.0254(5) 0.9348(4) 0.1186(4)
C33 C 0.0955(5) 0.9878(4) 0.0819(4)
C34 C 0.1998(4) 0.9437(4) 0.0765(4)
C35 C 0.2317(5) 0.8454(4) 0.1110(4)
C36 C 0.1621(5) 0.7921(4) 0.1490(4)
O4 O 0.3446(3) 0.2258(3) 0.2206(3)
C37 C 0.3823(5) 0.2426(4) 0.2686(4)
C38 C 0.4900(5) 0.2131(5) 0.2696(4)
C39 C 0.5280(5) 0.2254(5) 0.3257(5)
N4 N 0.4668(4) 0.2680(4) 0.3820(3)
C40 C 0.3634(5) 0.3030(5) 0.3808(4)
C41 C 0.3218(5) 0.2930(4) 0.3253(4)
C42 C 0.4909(6) 0.7262(6) -0.4483(4)
O5 O 0.3285(3) 0.2143(3) 0.0470(3)
C43 C 0.4189(4) 0.1645(4) 0.0287(3)
C44 C 0.4910(5) 0.1191(4) 0.0843(4)
C45 C 0.5871(5) 0.0668(4) 0.0610(4)
N5 N 0.6193(4) 0.0518(3) -0.0139(3)
C46 C 0.5523(5) 0.0932(4) -0.0685(4)
C47 C 0.4551(5) 0.1485(4) -0.0511(4)
C48 C 0.2750(5) 1.0038(4) 0.0367(5)
O6 O 0.2232(4) 0.1014(3) 0.1975(3)
C49 C 0.2389(5) 0.0170(4) 0.2497(4)
C50 C 0.3314(6) -0.0319(5) 0.2812(4)
C51 C 0.3503(6) -0.1245(5) 0.3307(4)
N6 N 0.2802(4) -0.1737(4) 0.3551(3)
C52 C 0.1885(5) -0.1278(5) 0.3273(4)
C53 C 0.1660(5) -0.0356(5) 0.2777(4)
C54 C 0.6950(7) 0.2778(5) -0.4007(4)
O7 O 0.0175(3) 0.2520(3) 0.1808(3)
O8 O 0.1331(3) 0.2012(3) 0.3180(2)
H1 H 0.2124(5) 0.2690(5) -0.0798(4)
H2 H 0.2315(5) 0.3409(5) -0.2218(4)
H3 H 0.1025(5) 0.5984(5) -0.1937(4)
H4 H 0.0780(5) 0.5309(5) -0.0502(4)
H5 H 0.1132(5) 0.5692(5) -0.3263(4)
H6 H 0.1940(5) 0.4771(5) -0.3408(4)
H7 H 0.3813(5) 0.4586(5) -0.3451(5)
H8 H 0.5094(5) 0.5388(5) -0.4004(5)
H9 H 0.2882(6) 0.7894(5) -0.4150(4)
H10 H 0.1610(5) 0.7070(5) -0.3609(4)
H11 H 0.2719(5) 0.5442(5) -0.0580(4)
H12 H 0.4110(5) 0.5793(4) -0.1565(4)
H13 H 0.6039(5) 0.3501(4) -0.0218(4)
H14 H 0.4664(5) 0.3102(4) 0.0799(4)
H15 H 0.6662(5) 0.4673(5) -0.1439(5)
H16 H 0.5896(5) 0.5541(5) -0.1965(5)
H17 H 0.7448(5) 0.4828(4) -0.3023(4)
H18 H 0.7800(5) 0.4031(4) -0.3981(4)
H19 H 0.5470(5) 0.2851(4) -0.2676(4)
H20 H 0.5093(5) 0.3677(4) -0.1710(4)
H21 H 0.0563(5) 0.4681(4) 0.3399(4)
H22 H -0.0024(5) 0.6290(5) 0.3258(4)
H23 H 0.0529(5) 0.7009(4) 0.0767(4)
H24 H 0.1127(4) 0.5416(4) 0.0840(4)
H25 H -0.0506(5) 0.7863(4) 0.2492(5)
H26 H -0.0776(5) 0.8096(4) 0.1619(5)
H27 H -0.0471(5) 0.9668(4) 0.1236(4)
H28 H 0.0718(5) 1.0563(4) 0.0576(4)
H29 H 0.3041(5) 0.8132(4) 0.1080(4)
H30 H 0.1858(5) 0.7236(4) 0.1730(4)
H31 H 0.5359(5) 0.1818(5) 0.2302(4)
H32 H 0.6009(5) 0.2047(5) 0.3254(5)
H33 H 0.3197(5) 0.3360(5) 0.4196(4)
H34 H 0.2493(5) 0.3202(4) 0.3239(4)
H35 H 0.4608(6) 0.7906(6) -0.4834(4)
H36 H 0.5467(6) 0.6942(6) -0.4837(4)
H37 H 0.4715(5) 0.1262(4) 0.1391(4)
H38 H 0.6348(5) 0.0373(4) 0.0999(4)
H39 H 0.5740(5) 0.0830(4) -0.1221(4)
H40 H 0.4098(5) 0.1762(4) -0.0917(4)
H41 H 0.2747(5) 1.0339(4) 0.0757(5)
H42 H 0.2520(5) 1.0544(4) -0.0134(5)
H43 H 0.3821(6) 0.0018(5) 0.2670(4)
H44 H 0.4154(6) -0.1574(5) 0.3499(4)
H45 H 0.1379(5) -0.1623(5) 0.3451(4)
H46 H 0.1005(5) -0.0060(5) 0.2590(4)
H47 H 0.7538(7) 0.2923(5) -0.4429(4)
H48 H 0.6373(7) 0.2964(5) -0.4292(4)
H49 H 0.0034(3) 0.2194(3) 0.2298(3)
H50 H 0.0029(3) 0.2391(3) 0.1453(3)
H51 H 0.1047(3) 0.1602(3) 0.3267(2)
H52 H 0.1070(3) 0.2512(3) 0.3295(2)
C42A C 0.5091(6) 0.2738(6) 0.4483(4)
N4A N 0.5332(4) 0.7320(4) -0.3820(3)
C48A C 0.7250(5) -0.0038(4) -0.0367(5)
N5A N 0.3807(4) 0.9482(3) 0.0139(3)
C54A C 0.3050(7) -0.2778(5) 0.4007(4)
N6A N 0.7198(4) 0.1737(4) -0.3551(3)
O22? O 0.3481(37) 0.3620(30) 0.5687(27)
O23? O 0.2033(22) 0.4162(19) 0.5305(17)
O25? O 0.1346(57) 0.4424(48) 0.4921(44)
loop_
_geom_bond_atom_site_label_1
_geom_bond_atom_site_label_2
_geom_bond_site_symmetry_1
_geom_bond_site_symmetry_2
Nd1 O1 1_555 1_555
O1 C1 1_555 1_555
C1 C2 1_555 1_555
C2 C3 1_555 1_555
C3 N1 1_555 1_555
N1 C4 1_555 1_555
C4 C5 1_555 1_555
C5 C1 1_555 1_555
C6 N1 1_555 1_555
C7 C6 1_555 1_555
C8 C7 1_555 1_555
C9 C8 1_555 1_555
C10 C9 1_555 1_555
C11 C10 1_555 1_555
C12 C7 1_555 1_555
O2 Nd1 1_555 1_555
C13 O2 1_555 1_555
C14 C13 1_555 1_555
C15 C14 1_555 1_555
N2 C15 1_555 1_555
C16 N2 1_555 1_555
C17 C13 1_555 1_555
C18 N2 1_555 1_555
C19 C18 1_555 1_555
C20 C19 1_555 1_555
C21 C20 1_555 1_555
C22 C21 1_555 1_555
C23 C22 1_555 1_555
C24 C19 1_555 1_555
O3 Nd1 1_555 1_555
C25 O3 1_555 1_555
C26 C25 1_555 1_555
C27 C26 1_555 1_555
N3 C27 1_555 1_555
C28 N3 1_555 1_555
C29 C25 1_555 1_555
C30 N3 1_555 1_555
C31 C30 1_555 1_555
C32 C31 1_555 1_555
C33 C32 1_555 1_555
C34 C33 1_555 1_555
C35 C34 1_555 1_555
C36 C31 1_555 1_555
O4 Nd1 1_555 1_555
C37 O4 1_555 1_555
C38 C37 1_555 1_555
C39 C38 1_555 1_555
N4 C39 1_555 1_555
C40 N4 1_555 1_555
C41 C37 1_555 1_555
C42 C10 1_555 1_555
O5 Nd1 1_555 1_555
C43 O5 1_555 1_555
C44 C43 1_555 1_555
C45 C44 1_555 1_555
N5 C45 1_555 1_555
C46 N5 1_555 1_555
C47 C43 1_555 1_555
C48 C34 1_555 1_555
O6 Nd1 1_555 1_555
C49 O6 1_555 1_555
C50 C49 1_555 1_555
C51 C50 1_555 1_555
N6 C51 1_555 1_555
C52 N6 1_555 1_555
C53 C49 1_555 1_555
C54 C22 1_555 1_555
O7 Nd1 1_555 1_555
O8 Nd1 1_555 1_555
O9 C55 1_555 1_555
C55 C56 1_555 1_555
C56 C57 1_555 1_555
C57 N7 1_555 1_555
N7 C58 1_555 1_555
C58 C59 1_555 1_555
C59 C55 1_555 1_555
C60 N7 1_555 1_555
C61 C60 1_555 1_555
C62 C61 1_555 1_555
C63 C61 1_555 1_555
Cl1 O10 1_555 1_555
O11 Cl1 1_555 1_555
O12 Cl1 1_555 1_555
O13 Cl1 1_555 1_555
Cl2 O14 1_555 1_555
O15 Cl2 1_555 1_555
O16 Cl2 1_555 1_555
O17 Cl2 1_555 1_555
Cl3 O18 1_555 1_555
O19 Cl3 1_555 1_555
O20 Cl3 1_555 1_555
O21 Cl3 1_555 1_555
H1 C2 1_555 1_555
H2 C3 1_555 1_555
H3 C4 1_555 1_555
H4 C5 1_555 1_555
H5 C6 1_555 1_555
H6 C6 1_555 1_555
H7 C8 1_555 1_555
H8 C9 1_555 1_555
H9 C11 1_555 1_555
H10 C12 1_555 1_555
H11 C14 1_555 1_555
H12 C15 1_555 1_555
H13 C16 1_555 1_555
H14 C17 1_555 1_555
H15 C18 1_555 1_555
H16 C18 1_555 1_555
H17 C20 1_555 1_555
H18 C21 1_555 1_555
H19 C23 1_555 1_555
H20 C24 1_555 1_555
H21 C26 1_555 1_555
H22 C27 1_555 1_555
H23 C28 1_555 1_555
H24 C29 1_555 1_555
H25 C30 1_555 1_555
H26 C30 1_555 1_555
H27 C32 1_555 1_555
H28 C33 1_555 1_555
H29 C35 1_555 1_555
H30 C36 1_555 1_555
H31 C38 1_555 1_555
H32 C39 1_555 1_555
H33 C40 1_555 1_555
H34 C41 1_555 1_555
H35 C42 1_555 1_555
H36 C42 1_555 1_555
H37 C44 1_555 1_555
H38 C45 1_555 1_555
H39 C46 1_555 1_555
H40 C47 1_555 1_555
H41 C48 1_555 1_555
H42 C48 1_555 1_555
H43 C50 1_555 1_555
H44 C51 1_555 1_555
H45 C52 1_555 1_555
H46 C53 1_555 1_555
H47 C54 1_555 1_555
H48 C54 1_555 1_555
H49 O7 1_555 1_555
H50 O7 1_555 1_555
H51 O8 1_555 1_555
H52 O8 1_555 1_555
H53 C56 1_555 1_555
H54 C57 1_555 1_555
H55 C58 1_555 1_555
H56 C59 1_555 1_555
H57 C60 1_555 1_555
H58 C60 1_555 1_555
H59 C62 1_555 1_555
H60 C63 1_555 1_555
C42A N4 1_555 1_555
N4A C42 1_555 1_555
C48A N5 1_555 1_555
N5A C48 1_555 1_555
C54A N6 1_555 1_555
N6A C54 1_555 1_555
C63A C62 1_555 1_555
C62A C63 1_555 1_555
C11 C12 1_555 1_555
C16 C17 1_555 1_555
C23 C24 1_555 1_555
C28 C29 1_555 1_555
C35 C36 1_555 1_555
C40 C41 1_555 1_555
C46 C47 1_555 1_555
C52 C53 1_555 1_555

#END
