
#######################################################################
#
#                 Cambridge Crystallographic Data Centre
#                                CCDC 
#
#######################################################################
#
# If this CIF has been generated from an entry in the Cambridge 
# Structural Database, then it will include bibliographic, chemical, 
# crystal, experimental, refinement or atomic coordinate data resulting 
# from the CCDC's data processing and validation procedures.
#
#######################################################################

data_REVYIC
_symmetry_cell_setting           triclinic
_symmetry_space_group_name_H-M   'P -1'
_symmetry_Int_Tables_number      2
_space_group_name_Hall           '-P 1'
loop_
_symmetry_equiv_pos_site_id
_symmetry_equiv_pos_as_xyz
1 x,y,z
2 -x,-y,-z
_cell_length_a                   5.5829(13)
_cell_length_b                   7.2843(17)
_cell_length_c                   9.482(2)
_cell_angle_alpha                93.241(3)
_cell_angle_beta                 102.883(3)
_cell_angle_gamma                94.796(3)
_cell_volume                     373.463
loop_
_atom_site_label
_atom_site_type_symbol
_atom_site_fract_x
_atom_site_fract_y
_atom_site_fract_z
C1 C 0.4381(5) 0.2806(4) 0.4123(3)
C2 C -0.0570(6) 0.7062(5) 0.0668(4)
H1 H -0.1516 0.7351 -0.0241
C3 C 0.2439(6) 0.6889(5) 0.2480(4)
H2 H 0.4030 0.7025 0.3117
C4 C 0.3485(5) 0.8811(4) 0.0571(3)
C5 C 0.5327(6) 0.9980(4) 0.1496(3)
H3 H 0.5546 0.9957 0.2517
C6 C 0.3150(6) 0.8816(4) -0.0923(3)
H4 H 0.1889 0.8002 -0.1548
Cd1 Cd 0.0000 0.5000 0.5000
N1 N 0.6187(5) 0.3608(4) 0.3964(3)
N2 N 0.0492(5) 0.5980(4) 0.2749(3)
N3 N -0.1450(5) 0.6097(4) 0.1588(3)
N4 N 0.1894(5) 0.7606(4) 0.1182(3)
S1 S 0.18409(14) 0.16826(11) 0.43794(9)
C2A C 1.0570(6) 1.2938(5) -0.0668(4)
H1A H 1.1516 1.2649 0.0241
C3A C 0.7561(6) 1.3111(5) -0.2480(4)
H2A H 0.5970 1.2975 -0.3117
C4A C 0.6515(5) 1.1189(4) -0.0571(3)
C5A C 0.4673(6) 1.0020(4) -0.1496(3)
H3A H 0.4454 1.0043 -0.2517
C6A C 0.6850(6) 1.1184(4) 0.0923(3)
H4A H 0.8111 1.1998 0.1548
N2A N 0.9508(5) 1.4020(4) -0.2749(3)
N3A N 1.1450(5) 1.3903(4) -0.1588(3)
N4A N 0.8106(5) 1.2394(4) -0.1182(3)
C1A C -0.4381(5) 0.7194(4) 0.5877(3)
N1A N -0.6187(5) 0.6392(4) 0.6036(3)
S1A S -0.18409(14) 0.83174(11) 0.56206(9)
Cd1_2 Cd -1.0000 0.5000 0.5000
Cd1_3 Cd 1.0000 0.5000 0.5000
Cd1_4 Cd 1.0000 1.5000 -0.5000
N1_2 N -0.3813(5) 0.3608(4) 0.3964(3)
N1A_2 N 0.3813(5) 0.6392(4) 0.6036(3)
N2A_2 N -0.0492(5) 0.4020(4) 0.7251(3)
loop_
_geom_bond_atom_site_label_1
_geom_bond_atom_site_label_2
_geom_bond_site_symmetry_1
_geom_bond_site_symmetry_2
C1 N1 1_555 1_555
C2 H1 1_555 1_555
C3 H2 1_555 1_555
C4 C5 1_555 1_555
C5 H3 1_555 1_555
C6 C4 1_555 1_555
H4 C6 1_555 1_555
Cd1 N2 1_555 1_555
N1 Cd1_3 1_555 1_555
N2 C3 1_555 1_555
N3 C2 1_555 1_555
N4 C2 1_555 1_555
S1 C1 1_555 1_555
C2A H1A 1_555 1_555
C3A H2A 1_555 1_555
C4A C5A 1_555 1_555
C5A C6 1_555 1_555
H3A C5A 1_555 1_555
C6A C5 1_555 1_555
H4A C6A 1_555 1_555
N2A C3A 1_555 1_555
N3A C2A 1_555 1_555
N4A C2A 1_555 1_555
C1A N1A 1_555 1_555
N1A Cd1_2 1_555 1_555
S1A Cd1 1_555 1_555
Cd1_4 N2A 1_555 1_555
N1_2 Cd1 1_555 1_555
N1A_2 Cd1 1_555 1_555
N2A_2 Cd1 1_555 1_555
C3 N4 1_555 1_555
C4 N4 1_555 1_555
Cd1 S1 1_555 1_555
N2 N3 1_555 1_555
C3A N4A 1_555 1_555
C4A C6A 1_555 1_555
C4A N4A 1_555 1_555
N2A N3A 1_555 1_555
C1A S1A 1_555 1_555

#END
