
#######################################################################
#
#                 Cambridge Crystallographic Data Centre
#                                CCDC 
#
#######################################################################
#
# If this CIF has been generated from an entry in the Cambridge 
# Structural Database, then it will include bibliographic, chemical, 
# crystal, experimental, refinement or atomic coordinate data resulting 
# from the CCDC's data processing and validation procedures.
#
#######################################################################

data_REVZAV
_symmetry_cell_setting           orthorhombic
_symmetry_space_group_name_H-M   'P b c n'
_symmetry_Int_Tables_number      60
_space_group_name_Hall           '-P 2n 2ab'
loop_
_symmetry_equiv_pos_site_id
_symmetry_equiv_pos_as_xyz
1 x,y,z
2 1/2-x,1/2-y,1/2+z
3 -x,y,1/2-z
4 1/2+x,1/2-y,-z
5 -x,-y,-z
6 1/2+x,1/2+y,1/2-z
7 x,-y,1/2+z
8 1/2-x,1/2+y,z
_cell_length_a                   18.3342(6)
_cell_length_b                   7.6172(2)
_cell_length_c                   16.7658(7)
_cell_angle_alpha                90
_cell_angle_beta                 90
_cell_angle_gamma                90
_cell_volume                     2341.43
loop_
_atom_site_label
_atom_site_type_symbol
_atom_site_fract_x
_atom_site_fract_y
_atom_site_fract_z
Cd1 Cd 0.5000 0.55486(7) 0.7500
I1 I 0.59442(2) 0.79723(5) 0.83523(3)
N1 N 0.5768(3) 0.3294(6) 0.8145(3)
N2 N 0.6506(3) 0.3048(7) 0.7933(3)
N3 N 0.6326(2) 0.2137(6) 0.9175(3)
N4 N 0.7156(3) 0.1039(6) 1.0066(3)
N5 N 0.8077(3) 0.0101(6) 1.0888(3)
N6 N 0.9262(3) 0.0464(6) 1.0714(3)
N7 N 0.9134(3) -0.0267(6) 1.1469(3)
C1 C 0.5683(3) 0.2773(7) 0.8865(4)
H1 H 0.5244 0.2817 0.9142
C2 C 0.6810(4) 0.2343(8) 0.8553(4)
H2 H 0.7298 0.2015 0.8576
C3 C 0.6460(4) 0.1337(7) 0.9921(4)
C4 C 0.5895(3) 0.0949(8) 1.0447(4)
H3 H 0.5412 0.1212 1.0324
C5 C 0.6082(3) 0.0154(8) 1.1164(4)
H4 H 0.5723 -0.0133 1.1533
C6 C 0.6811(3) -0.0213(8) 1.1327(4)
H5 H 0.6951 -0.0781 1.1794
C7 C 0.7312(3) 0.0304(7) 1.0767(4)
C8 C 0.8436(3) -0.0446(7) 1.1562(4)
H6 H 0.8211 -0.0882 1.2018
C9 C 0.8625(3) 0.0662(8) 1.0390(4)
H7 H 0.8549 0.1126 0.9884
I1B I 0.40558(2) 0.79723(5) 0.66477(3)
N1B N 0.4232(3) 0.3294(6) 0.6855(3)
N2B N 0.3494(3) 0.3048(7) 0.7067(3)
N3B N 0.3674(2) 0.2137(6) 0.5825(3)
N4B N 0.2844(3) 0.1039(6) 0.4934(3)
N5B N 0.1923(3) 0.0101(6) 0.4112(3)
N6B N 0.0738(3) 0.0464(6) 0.4286(3)
N7B N 0.0866(3) -0.0267(6) 0.3531(3)
C1B C 0.4317(3) 0.2773(7) 0.6135(4)
H1B H 0.4756 0.2817 0.5858
C2B C 0.3190(4) 0.2343(8) 0.6447(4)
H2B H 0.2702 0.2015 0.6424
C3B C 0.3540(4) 0.1337(7) 0.5079(4)
C4B C 0.4105(3) 0.0949(8) 0.4553(4)
H3B H 0.4588 0.1212 0.4676
C5B C 0.3918(3) 0.0154(8) 0.3836(4)
H4B H 0.4277 -0.0133 0.3467
C6B C 0.3189(3) -0.0213(8) 0.3673(4)
H5B H 0.3049 -0.0781 0.3206
C7B C 0.2688(3) 0.0304(7) 0.4233(4)
C8B C 0.1564(3) -0.0446(7) 0.3438(4)
H6B H 0.1789 -0.0882 0.2982
C9B C 0.1375(3) 0.0662(8) 0.4610(4)
H7B H 0.1451 0.1126 0.5116
Cd1A Cd 0.0000 -0.05486(7) 0.2500
Cd1A_2 Cd 1.0000 -0.05486(7) 1.2500
N7A N 0.5866(3) 0.5267(6) 0.6469(3)
N7C N 0.4134(3) 0.5267(6) 0.8531(3)
loop_
_geom_bond_atom_site_label_1
_geom_bond_atom_site_label_2
_geom_bond_site_symmetry_1
_geom_bond_site_symmetry_2
Cd1 I1 1_555 1_555
N1 Cd1 1_555 1_555
N2 N1 1_555 1_555
N3 C1 1_555 1_555
N4 C3 1_555 1_555
N5 C7 1_555 1_555
N6 N7 1_555 1_555
N7 C8 1_555 1_555
C1 N1 1_555 1_555
H1 C1 1_555 1_555
C2 N2 1_555 1_555
H2 C2 1_555 1_555
C3 N3 1_555 1_555
C4 C3 1_555 1_555
H3 C4 1_555 1_555
C5 C4 1_555 1_555
H4 C5 1_555 1_555
C6 C5 1_555 1_555
H5 C6 1_555 1_555
C7 N4 1_555 1_555
C8 N5 1_555 1_555
H6 C8 1_555 1_555
C9 N5 1_555 1_555
H7 C9 1_555 1_555
I1B Cd1 1_555 1_555
N1B Cd1 1_555 1_555
N2B N1B 1_555 1_555
N3B C1B 1_555 1_555
N4B C3B 1_555 1_555
N5B C7B 1_555 1_555
N6B N7B 1_555 1_555
N7B C8B 1_555 1_555
C1B N1B 1_555 1_555
H1B C1B 1_555 1_555
C2B N2B 1_555 1_555
H2B C2B 1_555 1_555
C3B N3B 1_555 1_555
C4B C3B 1_555 1_555
H3B C4B 1_555 1_555
C5B C4B 1_555 1_555
H4B C5B 1_555 1_555
C6B C5B 1_555 1_555
H5B C6B 1_555 1_555
C7B N4B 1_555 1_555
C8B N5B 1_555 1_555
H6B C8B 1_555 1_555
C9B N5B 1_555 1_555
H7B C9B 1_555 1_555
Cd1A N7B 1_555 1_555
Cd1A_2 N7 1_555 1_555
N7A Cd1 1_555 1_555
N7C Cd1 1_555 1_555
N3 C2 1_555 1_555
N6 C9 1_555 1_555
C6 C7 1_555 1_555
N3B C2B 1_555 1_555
N6B C9B 1_555 1_555
C6B C7B 1_555 1_555

#END
