
#######################################################################
#
#                 Cambridge Crystallographic Data Centre
#                                CCDC 
#
#######################################################################
#
# If this CIF has been generated from an entry in the Cambridge 
# Structural Database, then it will include bibliographic, chemical, 
# crystal, experimental, refinement or atomic coordinate data resulting 
# from the CCDC's data processing and validation procedures.
#
#######################################################################

data_REWBEB
_symmetry_cell_setting           triclinic
_symmetry_space_group_name_H-M   'P -1'
_symmetry_Int_Tables_number      2
_space_group_name_Hall           '-P 1'
loop_
_symmetry_equiv_pos_site_id
_symmetry_equiv_pos_as_xyz
1 x,y,z
2 -x,-y,-z
_cell_length_a                   12.6197(6)
_cell_length_b                   12.8711(6)
_cell_length_c                   23.4970(10)
_cell_angle_alpha                82.0790(10)
_cell_angle_beta                 79.7250(10)
_cell_angle_gamma                88.1130(10)
_cell_volume                     3719.43
loop_
_atom_site_label
_atom_site_type_symbol
_atom_site_fract_x
_atom_site_fract_y
_atom_site_fract_z
N11 N 0.0776(8) 0.2001(9) 0.5352(8)
C17 C 0.0395(8) 0.2719(11) 0.5423(7)
C18 C -0.0131(12) 0.3673(10) 0.5567(8)
H3 H 0.0287 0.4015 0.5789
H4 H -0.0833 0.3519 0.5794
H5 H -0.0201 0.4126 0.5215
N12 N 0.3778(16) 0.6852(12) 0.2606(7)
C19 C 0.4021(12) 0.6110(12) 0.2449(6)
C20 C 0.4366(10) 0.5150(11) 0.2266(6)
H6 H 0.4744 0.4762 0.2548
H7 H 0.4839 0.5271 0.1896
H8 H 0.3754 0.4758 0.2229
Mo1 Mo 0.89170(4) 0.51877(4) 0.22809(2)
Cu1 Cu 0.54099(5) 0.10330(6) 0.45144(3)
Cu2 Cu 0.55398(6) 0.93312(6) 0.05877(3)
P1 P 0.38543(12) 0.17367(11) 0.49391(7)
P2 P 0.29864(12) -0.04177(12) 0.52646(7)
P3 P 0.50238(12) 0.80110(11) 0.01520(7)
P4 P 0.53283(11) 0.93404(11) -0.10117(6)
S1 S 0.90430(13) 0.42063(14) 0.14851(7)
S2 S 1.08140(12) 0.48183(12) 0.21509(7)
S3 S 0.90640(14) 0.51988(13) 0.32714(7)
S4 S 0.75863(14) 0.39114(13) 0.26954(7)
S5 S 0.95090(12) 0.69725(12) 0.21167(8)
S6 S 0.73616(12) 0.60034(12) 0.19551(7)
N1 N 1.3141(5) 0.3625(5) 0.1276(3)
N2 N 1.0692(5) 0.2615(6) 0.0493(3)
N3 N 0.7839(7) 0.4259(6) 0.4803(3)
N4 N 0.6029(4) 0.2498(4) 0.4007(2)
N5 N 0.8959(5) 0.9697(5) 0.1500(4)
N6 N 0.6153(5) 0.8437(4) 0.1315(2)
N7 N 0.2856(4) 0.0895(4) 0.5238(2)
H1 H 0.2245 0.1148 0.5386
N8 N 0.5197(4) 0.0200(4) 0.3869(2)
N9 N 0.7022(5) 0.9738(4) 0.0141(2)
N10 N 0.5435(4) 0.8199(3) -0.05807(19)
H2 H 0.5719 0.7674 -0.0744
C1 C 1.0580(5) 0.3160(6) 0.0840(3)
C2 C 1.0370(5) 0.3822(5) 0.1287(3)
C3 C 1.1133(5) 0.4111(5) 0.1571(3)
C4 C 1.2247(6) 0.3836(5) 0.1401(3)
C5 C 0.6650(5) 0.3102(5) 0.3768(3)
C6 C 0.7447(5) 0.3821(4) 0.3441(3)
C7 C 0.8077(5) 0.4372(5) 0.3696(3)
C8 C 0.7959(6) 0.4305(5) 0.4306(3)
C9 C 0.6797(5) 0.7936(5) 0.1519(3)
C10 C 0.7598(4) 0.7318(4) 0.1761(3)
C11 C 0.8536(5) 0.7747(5) 0.1825(3)
C12 C 0.8766(5) 0.8833(6) 0.1653(4)
C13 C 0.5108(6) -0.0267(5) 0.3502(3)
C14 C 0.5020(8) -0.0879(6) 0.3027(4)
C15 C 0.7839(6) 0.9970(6) -0.0114(3)
C16 C 0.8925(7) 1.0264(8) -0.0446(5)
C21 C 0.3927(5) 0.2571(5) 0.5497(3)
C22 C 0.4727(6) 0.3309(6) 0.5395(4)
H9 H 0.5203 0.3383 0.5041
C23 C 0.4833(9) 0.3944(7) 0.5812(5)
H10 H 0.5376 0.4441 0.5738
C24 C 0.4138(11) 0.3837(8) 0.6330(5)
H11 H 0.4206 0.4265 0.6610
C25 C 0.3350(10) 0.3115(8) 0.6441(4)
H12 H 0.2886 0.3044 0.6799
C26 C 0.3223(7) 0.2474(6) 0.6027(3)
H13 H 0.2671 0.1986 0.6105
C27 C 0.3247(4) 0.2610(5) 0.4393(3)
C28 C 0.2922(6) 0.3621(5) 0.4446(3)
H14 H 0.3019 0.3911 0.4774
C29 C 0.2456(8) 0.4216(7) 0.4026(4)
H15 H 0.2247 0.4904 0.4070
C30 C 0.2298(7) 0.3810(7) 0.3546(4)
H16 H 0.1971 0.4214 0.3265
C31 C 0.2621(6) 0.2801(7) 0.3476(3)
H17 H 0.2517 0.2520 0.3146
C32 C 0.3100(5) 0.2203(6) 0.3896(3)
H18 H 0.3326 0.1522 0.3845
C33 C 0.1887(5) -0.0880(5) 0.5860(3)
C34 C 0.1854(5) -0.0580(6) 0.6400(3)
H19 H 0.2343 -0.0086 0.6445
C35 C 0.1114(6) -0.0994(8) 0.6880(3)
H20 H 0.1113 -0.0794 0.7245
C36 C 0.0380(7) -0.1707(7) 0.6804(4)
H21 H -0.0133 -0.1981 0.7119
C37 C 0.0397(7) -0.2013(7) 0.6277(5)
H22 H -0.0098 -0.2503 0.6233
C38 C 0.1144(5) -0.1602(5) 0.5798(4)
H23 H 0.1146 -0.1814 0.5435
C39 C 0.2499(5) -0.0766(5) 0.4636(3)
C40 C 0.2942(6) -0.1650(7) 0.4404(3)
H24 H 0.3491 -0.2023 0.4560
C41 C 0.2565(9) -0.1976(10) 0.3941(5)
H25 H 0.2846 -0.2581 0.3793
C42 C 0.1778(12) -0.1409(13) 0.3702(5)
H26 H 0.1517 -0.1635 0.3394
C43 C 0.1384(10) -0.0534(10) 0.3907(6)
H27 H 0.0876 -0.0137 0.3728
C44 C 0.1718(7) -0.0209(7) 0.4382(4)
H28 H 0.1414 0.0388 0.4530
C45 C 0.5702(5) 0.6777(5) 0.0348(3)
C46 C 0.5164(6) 0.5844(5) 0.0550(3)
H29 H 0.4422 0.5818 0.0572
C47 C 0.5733(8) 0.4945(5) 0.0719(4)
H30 H 0.5367 0.4322 0.0863
C48 C 0.6824(7) 0.4970(6) 0.0674(4)
H31 H 0.7199 0.4366 0.0789
C49 C 0.7369(6) 0.5884(6) 0.0459(3)
H32 H 0.8115 0.5895 0.0423
C50 C 0.6817(6) 0.6791(5) 0.0294(3)
H33 H 0.7191 0.7409 0.0148
C51 C 0.3612(5) 0.7615(4) 0.0296(3)
C52 C 0.3040(5) 0.7466(5) -0.0132(3)
H34 H 0.3367 0.7576 -0.0522
C53 C 0.1983(6) 0.7155(7) 0.0018(5)
H35 H 0.1592 0.7077 -0.0273
C54 C 0.1499(8) 0.6958(8) 0.0595(6)
H36 H 0.0795 0.6716 0.0694
C55 C 0.2065(8) 0.7121(7) 0.1023(5)
H37 H 0.1739 0.7003 0.1413
C56 C 0.3107(6) 0.7458(6) 0.0876(3)
H38 H 0.3480 0.7584 0.1167
C57 C 0.4704(5) 0.8935(4) -0.1584(2)
C58 C 0.5275(6) 0.8430(5) -0.2028(3)
H39 H 0.6008 0.8304 -0.2043
C59 C 0.4770(7) 0.8111(6) -0.2450(3)
H40 H 0.5166 0.7772 -0.2745
C60 C 0.3688(7) 0.8290(6) -0.2436(3)
H41 H 0.3350 0.8083 -0.2722
C61 C 0.3112(6) 0.8776(6) -0.1996(3)
H42 H 0.2376 0.8889 -0.1980
C62 C 0.3611(5) 0.9099(5) -0.1575(3)
H43 H 0.3208 0.9432 -0.1281
C63 C 0.6677(5) 0.9668(5) -0.1416(3)
C64 C 0.6784(6) 1.0599(5) -0.1783(3)
H44 H 0.6185 1.1031 -0.1811
C65 C 0.7770(7) 1.0902(7) -0.2112(3)
H45 H 0.7837 1.1539 -0.2355
C66 C 0.8651(7) 1.0258(8) -0.2076(4)
H46 H 0.9317 1.0459 -0.2297
C67 C 0.8554(6) 0.9330(8) -0.1721(4)
H47 H 0.9152 0.8890 -0.1708
C68 C 0.7567(5) 0.9024(6) -0.1373(3)
H48 H 0.7509 0.8401 -0.1118
Mo1A Mo 0.10830(4) 1.48123(4) -0.22809(2)
Cu1A Cu 0.45901(5) -0.10330(6) 0.54856(3)
Cu1A_2 Cu 0.45901(5) 1.89670(6) -0.45144(3)
Cu2A Cu 0.44602(6) 1.06688(6) -0.05877(3)
P1A P 0.61457(12) -0.17367(11) 0.50609(7)
P2A P 0.70136(12) 0.04177(12) 0.47354(7)
P3A P 0.49762(12) 1.19890(11) -0.01520(7)
P4A P 0.46717(11) 1.06596(11) 0.10117(6)
S1A S 0.09570(13) 1.57937(14) -0.14851(7)
S2A S -0.08140(12) 1.51817(12) -0.21509(7)
S3A S 0.09360(14) 1.48012(13) -0.32714(7)
S4A S 0.24137(14) 1.60886(13) -0.26954(7)
S5A S 0.04910(12) 1.30275(12) -0.21167(8)
S6A S 0.26384(12) 1.39966(12) -0.19551(7)
N1A N -0.3141(5) 1.6375(5) -0.1276(3)
N2A N -0.0692(5) 1.7385(6) -0.0493(3)
N3A N 0.2161(7) 1.5741(6) -0.4803(3)
N4A N 0.3971(4) -0.2498(4) 0.5993(2)
N4A_2 N 0.3971(4) 1.7502(4) -0.4007(2)
N5A N 0.1041(5) 1.0303(5) -0.1500(4)
N6A N 0.3847(5) 1.1563(4) -0.1315(2)
N7A N 0.7144(4) -0.0895(4) 0.4762(2)
H1A H 0.7755 -0.1148 0.4614
N8A N 0.4803(4) -0.0200(4) 0.6131(2)
N9A N 0.2978(5) 1.0262(4) -0.0141(2)
N10A N 0.4565(4) 1.1801(3) 0.05807(19)
H2A H 0.4281 1.2326 0.0744
C1A C -0.0580(5) 1.6840(6) -0.0840(3)
C2A C -0.0370(5) 1.6178(5) -0.1287(3)
C3A C -0.1133(5) 1.5889(5) -0.1571(3)
C4A C -0.2247(6) 1.6164(5) -0.1401(3)
C5A C 0.3350(5) 1.6898(5) -0.3768(3)
C6A C 0.2553(5) 1.6179(4) -0.3441(3)
C7A C 0.1923(5) 1.5628(5) -0.3696(3)
C8A C 0.2041(6) 1.5695(5) -0.4306(3)
C9A C 0.3203(5) 1.2064(5) -0.1519(3)
C10A C 0.2402(4) 1.2682(4) -0.1761(3)
C11A C 0.1464(5) 1.2253(5) -0.1825(3)
C12A C 0.1234(5) 1.1167(6) -0.1653(4)
C13A C 0.4892(6) 0.0267(5) 0.6498(3)
C14A C 0.4980(8) 0.0879(6) 0.6973(4)
C15A C 0.2161(6) 1.0030(6) 0.0114(3)
C16A C 0.1075(7) 0.9736(8) 0.0446(5)
C21A C 0.6073(5) -0.2571(5) 0.4503(3)
C22A C 0.5273(6) -0.3309(6) 0.4605(4)
H9A H 0.4797 -0.3383 0.4959
C23A C 0.5167(9) -0.3944(7) 0.4188(5)
H10A H 0.4624 -0.4441 0.4262
C24A C 0.5862(11) -0.3837(8) 0.3670(5)
H11A H 0.5794 -0.4265 0.3390
C25A C 0.6650(10) -0.3115(8) 0.3559(4)
H12A H 0.7114 -0.3044 0.3201
C26A C 0.6777(7) -0.2474(6) 0.3973(3)
H13A H 0.7329 -0.1986 0.3895
C27A C 0.6753(4) -0.2610(5) 0.5607(3)
C28A C 0.7078(6) -0.3621(5) 0.5554(3)
H14A H 0.6981 -0.3911 0.5226
C29A C 0.7544(8) -0.4216(7) 0.5974(4)
H15A H 0.7753 -0.4904 0.5930
C30A C 0.7702(7) -0.3810(7) 0.6454(4)
H16A H 0.8029 -0.4214 0.6735
C31A C 0.7379(6) -0.2801(7) 0.6524(3)
H17A H 0.7483 -0.2520 0.6854
C32A C 0.6900(5) -0.2203(6) 0.6104(3)
H18A H 0.6674 -0.1522 0.6155
C33A C 0.8113(5) 0.0880(5) 0.4140(3)
C34A C 0.8146(5) 0.0580(6) 0.3600(3)
H19A H 0.7657 0.0086 0.3555
C35A C 0.8886(6) 0.0994(8) 0.3120(3)
H20A H 0.8887 0.0794 0.2755
C36A C 0.9620(7) 0.1707(7) 0.3196(4)
H21A H 1.0133 0.1981 0.2881
C37A C 0.9603(7) 0.2013(7) 0.3723(5)
H22A H 1.0098 0.2503 0.3767
C38A C 0.8856(5) 0.1602(5) 0.4202(4)
H23A H 0.8854 0.1814 0.4565
C39A C 0.7501(5) 0.0766(5) 0.5364(3)
C40A C 0.7058(6) 0.1650(7) 0.5596(3)
H24A H 0.6509 0.2023 0.5440
C41A C 0.7435(9) 0.1976(10) 0.6059(5)
H25A H 0.7154 0.2581 0.6207
C42A C 0.8222(12) 0.1409(13) 0.6298(5)
H26A H 0.8483 0.1635 0.6606
C43A C 0.8616(10) 0.0534(10) 0.6093(6)
H27A H 0.9124 0.0137 0.6272
C44A C 0.8282(7) 0.0209(7) 0.5618(4)
H28A H 0.8586 -0.0388 0.5470
C45A C 0.4298(5) 1.3223(5) -0.0348(3)
C46A C 0.4836(6) 1.4156(5) -0.0550(3)
H29A H 0.5578 1.4182 -0.0572
C47A C 0.4267(8) 1.5055(5) -0.0719(4)
H30A H 0.4633 1.5678 -0.0863
C48A C 0.3176(7) 1.5030(6) -0.0674(4)
H31A H 0.2801 1.5634 -0.0789
C49A C 0.2631(6) 1.4116(6) -0.0459(3)
H32A H 0.1885 1.4105 -0.0423
C50A C 0.3183(6) 1.3209(5) -0.0294(3)
H33A H 0.2809 1.2591 -0.0148
C51A C 0.6388(5) 1.2385(4) -0.0296(3)
C52A C 0.6960(5) 1.2534(5) 0.0132(3)
H34A H 0.6633 1.2424 0.0522
C53A C 0.8017(6) 1.2845(7) -0.0018(5)
H35A H 0.8408 1.2923 0.0273
C54A C 0.8501(8) 1.3042(8) -0.0595(6)
H36A H 0.9205 1.3284 -0.0694
C55A C 0.7935(8) 1.2879(7) -0.1023(5)
H37A H 0.8261 1.2997 -0.1413
C56A C 0.6893(6) 1.2542(6) -0.0876(3)
H38A H 0.6520 1.2416 -0.1167
C57A C 0.5296(5) 1.1065(4) 0.1584(2)
C58A C 0.4725(6) 1.1570(5) 0.2028(3)
H39A H 0.3992 1.1696 0.2043
C59A C 0.5230(7) 1.1889(6) 0.2450(3)
H40A H 0.4834 1.2228 0.2745
C60A C 0.6312(7) 1.1710(6) 0.2436(3)
H41A H 0.6650 1.1917 0.2722
C61A C 0.6888(6) 1.1224(6) 0.1996(3)
H42A H 0.7624 1.1111 0.1980
C62A C 0.6389(5) 1.0901(5) 0.1575(3)
H43A H 0.6792 1.0568 0.1281
C63A C 0.3323(5) 1.0332(5) 0.1416(3)
C64A C 0.3216(6) 0.9401(5) 0.1783(3)
H44A H 0.3815 0.8969 0.1811
C65A C 0.2230(7) 0.9098(7) 0.2112(3)
H45A H 0.2163 0.8461 0.2355
C66A C 0.1349(7) 0.9742(8) 0.2076(4)
H46A H 0.0683 0.9541 0.2297
C67A C 0.1446(6) 1.0670(8) 0.1721(4)
H47A H 0.0848 1.1110 0.1708
C68A C 0.2433(5) 1.0976(6) 0.1373(3)
H48A H 0.2491 1.1599 0.1118
loop_
_geom_bond_atom_site_label_1
_geom_bond_atom_site_label_2
_geom_bond_site_symmetry_1
_geom_bond_site_symmetry_2
Mo1 S1 1_555 1_555
Cu1 P1 1_555 1_555
Cu2 P3 1_555 1_555
P1 N7 1_555 1_555
P2 N7 1_555 1_555
P3 N10 1_555 1_555
P4 N10 1_555 1_555
S1 C2 1_555 1_555
S2 Mo1 1_555 1_555
S3 Mo1 1_555 1_555
S4 Mo1 1_555 1_555
S5 Mo1 1_555 1_555
S6 Mo1 1_555 1_555
N1 C4 1_555 1_555
N2 C1 1_555 1_555
N3 C8 1_555 1_555
N4 Cu1 1_555 1_555
N5 C12 1_555 1_555
N6 Cu2 1_555 1_555
N7 H1 1_555 1_555
N8 Cu1 1_555 1_555
N9 Cu2 1_555 1_555
N10 H2 1_555 1_555
N11 C17 1_555 1_555
N12 C19 1_555 1_555
C1 C2 1_555 1_555
C2 C3 1_555 1_555
C3 S2 1_555 1_555
C4 C3 1_555 1_555
C5 N4 1_555 1_555
C6 S4 1_555 1_555
C7 S3 1_555 1_555
C8 C7 1_555 1_555
C9 N6 1_555 1_555
C10 S6 1_555 1_555
C11 S5 1_555 1_555
C12 C11 1_555 1_555
C13 N8 1_555 1_555
C14 C13 1_555 1_555
C15 N9 1_555 1_555
C16 C15 1_555 1_555
C17 C18 1_555 1_555
C18 H3 1_555 1_555
H4 C18 1_555 1_555
H5 C18 1_555 1_555
C19 C20 1_555 1_555
C20 H6 1_555 1_555
H7 C20 1_555 1_555
H8 C20 1_555 1_555
C21 P1 1_555 1_555
C22 C21 1_555 1_555
H9 C22 1_555 1_555
C23 C22 1_555 1_555
H10 C23 1_555 1_555
C24 C23 1_555 1_555
H11 C24 1_555 1_555
C25 C24 1_555 1_555
H12 C25 1_555 1_555
C26 C21 1_555 1_555
H13 C26 1_555 1_555
C27 P1 1_555 1_555
C28 C27 1_555 1_555
H14 C28 1_555 1_555
C29 C28 1_555 1_555
H15 C29 1_555 1_555
C30 C29 1_555 1_555
H16 C30 1_555 1_555
C31 C30 1_555 1_555
H17 C31 1_555 1_555
C32 C27 1_555 1_555
H18 C32 1_555 1_555
C33 P2 1_555 1_555
C34 C33 1_555 1_555
H19 C34 1_555 1_555
C35 C34 1_555 1_555
H20 C35 1_555 1_555
C36 C35 1_555 1_555
H21 C36 1_555 1_555
C37 C36 1_555 1_555
H22 C37 1_555 1_555
C38 C33 1_555 1_555
H23 C38 1_555 1_555
C39 P2 1_555 1_555
C40 C39 1_555 1_555
H24 C40 1_555 1_555
C41 C40 1_555 1_555
H25 C41 1_555 1_555
C42 C41 1_555 1_555
H26 C42 1_555 1_555
C43 C42 1_555 1_555
H27 C43 1_555 1_555
C44 C39 1_555 1_555
H28 C44 1_555 1_555
C45 P3 1_555 1_555
C46 C45 1_555 1_555
H29 C46 1_555 1_555
C47 C46 1_555 1_555
H30 C47 1_555 1_555
C48 C47 1_555 1_555
H31 C48 1_555 1_555
C49 C48 1_555 1_555
H32 C49 1_555 1_555
C50 C45 1_555 1_555
H33 C50 1_555 1_555
C51 P3 1_555 1_555
C52 C51 1_555 1_555
H34 C52 1_555 1_555
C53 C52 1_555 1_555
H35 C53 1_555 1_555
C54 C53 1_555 1_555
H36 C54 1_555 1_555
C55 C54 1_555 1_555
H37 C55 1_555 1_555
C56 C51 1_555 1_555
H38 C56 1_555 1_555
C57 P4 1_555 1_555
C58 C57 1_555 1_555
H39 C58 1_555 1_555
C59 C58 1_555 1_555
H40 C59 1_555 1_555
C60 C59 1_555 1_555
H41 C60 1_555 1_555
C61 C60 1_555 1_555
H42 C61 1_555 1_555
C62 C57 1_555 1_555
H43 C62 1_555 1_555
C63 P4 1_555 1_555
C64 C63 1_555 1_555
H44 C64 1_555 1_555
C65 C64 1_555 1_555
H45 C65 1_555 1_555
C66 C65 1_555 1_555
H46 C66 1_555 1_555
C67 C66 1_555 1_555
H47 C67 1_555 1_555
C68 C63 1_555 1_555
H48 C68 1_555 1_555
Mo1A S1A 1_555 1_555
Cu1A P2 1_555 1_555
Cu1A_2 N4A_2 1_555 1_555
Cu2A P4 1_555 1_555
P1A Cu1A 1_555 1_555
P2A Cu1 1_555 1_555
P3A Cu2A 1_555 1_555
P4A Cu2 1_555 1_555
S1A C2A 1_555 1_555
S2A Mo1A 1_555 1_555
S3A Mo1A 1_555 1_555
S4A Mo1A 1_555 1_555
S5A Mo1A 1_555 1_555
S6A Mo1A 1_555 1_555
N1A C4A 1_555 1_555
N2A C1A 1_555 1_555
N3A C8A 1_555 1_555
N4A Cu1A 1_555 1_555
N4A_2 C5A 1_555 1_555
N5A C12A 1_555 1_555
N6A Cu2A 1_555 1_555
N7A P1A 1_555 1_555
H1A N7A 1_555 1_555
N8A Cu1A 1_555 1_555
N9A Cu2A 1_555 1_555
N10A P3A 1_555 1_555
H2A N10A 1_555 1_555
C1A C2A 1_555 1_555
C2A C3A 1_555 1_555
C3A S2A 1_555 1_555
C4A C3A 1_555 1_555
C5A C6A 1_555 1_555
C6A S4A 1_555 1_555
C7A S3A 1_555 1_555
C8A C7A 1_555 1_555
C9A N6A 1_555 1_555
C10A S6A 1_555 1_555
C11A S5A 1_555 1_555
C12A C11A 1_555 1_555
C13A N8A 1_555 1_555
C14A C13A 1_555 1_555
C15A N9A 1_555 1_555
C16A C15A 1_555 1_555
C21A P1A 1_555 1_555
C22A C21A 1_555 1_555
H9A C22A 1_555 1_555
C23A C22A 1_555 1_555
H10A C23A 1_555 1_555
C24A C23A 1_555 1_555
H11A C24A 1_555 1_555
C25A C24A 1_555 1_555
H12A C25A 1_555 1_555
C26A C21A 1_555 1_555
H13A C26A 1_555 1_555
C27A P1A 1_555 1_555
C28A C27A 1_555 1_555
H14A C28A 1_555 1_555
C29A C28A 1_555 1_555
H15A C29A 1_555 1_555
C30A C29A 1_555 1_555
H16A C30A 1_555 1_555
C31A C30A 1_555 1_555
H17A C31A 1_555 1_555
C32A C27A 1_555 1_555
H18A C32A 1_555 1_555
C33A P2A 1_555 1_555
C34A C33A 1_555 1_555
H19A C34A 1_555 1_555
C35A C34A 1_555 1_555
H20A C35A 1_555 1_555
C36A C35A 1_555 1_555
H21A C36A 1_555 1_555
C37A C36A 1_555 1_555
H22A C37A 1_555 1_555
C38A C33A 1_555 1_555
H23A C38A 1_555 1_555
C39A P2A 1_555 1_555
C40A C39A 1_555 1_555
H24A C40A 1_555 1_555
C41A C40A 1_555 1_555
H25A C41A 1_555 1_555
C42A C41A 1_555 1_555
H26A C42A 1_555 1_555
C43A C42A 1_555 1_555
H27A C43A 1_555 1_555
C44A C39A 1_555 1_555
H28A C44A 1_555 1_555
C45A P3A 1_555 1_555
C46A C45A 1_555 1_555
H29A C46A 1_555 1_555
C47A C46A 1_555 1_555
H30A C47A 1_555 1_555
C48A C47A 1_555 1_555
H31A C48A 1_555 1_555
C49A C48A 1_555 1_555
H32A C49A 1_555 1_555
C50A C45A 1_555 1_555
H33A C50A 1_555 1_555
C51A P3A 1_555 1_555
C52A C51A 1_555 1_555
H34A C52A 1_555 1_555
C53A C52A 1_555 1_555
H35A C53A 1_555 1_555
C54A C53A 1_555 1_555
H36A C54A 1_555 1_555
C55A C54A 1_555 1_555
H37A C55A 1_555 1_555
C56A C51A 1_555 1_555
H38A C56A 1_555 1_555
C57A P4A 1_555 1_555
C58A C57A 1_555 1_555
H39A C58A 1_555 1_555
C59A C58A 1_555 1_555
H40A C59A 1_555 1_555
C60A C59A 1_555 1_555
H41A C60A 1_555 1_555
C61A C60A 1_555 1_555
H42A C61A 1_555 1_555
C62A C57A 1_555 1_555
H43A C62A 1_555 1_555
C63A P4A 1_555 1_555
C64A C63A 1_555 1_555
H44A C64A 1_555 1_555
C65A C64A 1_555 1_555
H45A C65A 1_555 1_555
C66A C65A 1_555 1_555
H46A C66A 1_555 1_555
C67A C66A 1_555 1_555
H47A C67A 1_555 1_555
C68A C63A 1_555 1_555
H48A C68A 1_555 1_555
C5 C6 1_555 1_555
C6 C7 1_555 1_555
C9 C10 1_555 1_555
C10 C11 1_555 1_555
C25 C26 1_555 1_555
C31 C32 1_555 1_555
C37 C38 1_555 1_555
C43 C44 1_555 1_555
C49 C50 1_555 1_555
C55 C56 1_555 1_555
C61 C62 1_555 1_555
C67 C68 1_555 1_555
P2A N7A 1_555 1_555
P4A N10A 1_555 1_555
C6A C7A 1_555 1_555
C9A C10A 1_555 1_555
C10A C11A 1_555 1_555
C25A C26A 1_555 1_555
C31A C32A 1_555 1_555
C37A C38A 1_555 1_555
C43A C44A 1_555 1_555
C49A C50A 1_555 1_555
C55A C56A 1_555 1_555
C61A C62A 1_555 1_555
C67A C68A 1_555 1_555

#END
