
#######################################################################
#
#                 Cambridge Crystallographic Data Centre
#                                CCDC 
#
#######################################################################
#
# If this CIF has been generated from an entry in the Cambridge 
# Structural Database, then it will include bibliographic, chemical, 
# crystal, experimental, refinement or atomic coordinate data resulting 
# from the CCDC's data processing and validation procedures.
#
#######################################################################

data_REWBIF
_symmetry_cell_setting           monoclinic
_symmetry_space_group_name_H-M   'P 21/n'
_symmetry_Int_Tables_number      14
_space_group_name_Hall           '-P 2yn'
loop_
_symmetry_equiv_pos_site_id
_symmetry_equiv_pos_as_xyz
1 x,y,z
2 1/2-x,1/2+y,1/2-z
3 -x,-y,-z
4 1/2+x,1/2-y,1/2+z
_cell_length_a                   17.3530(3)
_cell_length_b                   21.8357(4)
_cell_length_c                   21.2915(3)
_cell_angle_alpha                90
_cell_angle_beta                 96.5020(10)
_cell_angle_gamma                90
_cell_volume                     8015.77
loop_
_atom_site_label
_atom_site_type_symbol
_atom_site_fract_x
_atom_site_fract_y
_atom_site_fract_z
W1 W 0.872697(17) 0.305269(14) 0.242844(14)
Cu1 Cu 0.45060(5) 0.29485(4) 0.18676(4)
Cu2 Cu 0.48059(5) 0.14255(4) 0.16861(4)
S1 S 0.75430(11) 0.26177(9) 0.19495(8)
S2 S 0.81364(11) 0.28464(10) 0.33697(8)
S3 S 0.91981(13) 0.26147(11) 0.15191(10)
S4 S 0.97554(12) 0.24602(9) 0.29561(9)
S5 S 0.83763(13) 0.38758(10) 0.17140(10)
S6 S 0.93274(12) 0.38694(9) 0.30511(9)
P1 P 0.35188(11) 0.26755(9) 0.24237(9)
P2 P 0.37293(11) 0.12845(8) 0.21760(9)
P3 P 0.45950(11) 0.16058(8) 0.06320(8)
P4 P 0.44358(11) 0.29985(8) 0.07965(8)
N1 N 0.5669(4) 0.1932(3) 0.2138(3)
N2 N 0.6423(5) 0.2204(5) 0.4050(4)
N3 N 1.0476(6) 0.1478(5) 0.0896(5)
N4 N 1.1356(5) 0.1390(4) 0.2836(4)
N5 N 0.8439(6) 0.5559(4) 0.1455(5)
N6 N 0.9645(4) 0.5570(3) 0.3150(3)
N7 N 0.5382(4) 0.3438(3) 0.2284(3)
C1 C 0.4046(4) 0.2309(3) 0.0393(3)
H1 H 0.4045 0.2365 -0.0059
H2 H 0.3513 0.2256 0.0477
C2 C 0.3068(4) 0.1939(3) 0.2193(3)
H3 H 0.2786 0.1985 0.1776
H4 H 0.2693 0.1845 0.2483
C3 C 0.6251(4) 0.2145(3) 0.2343(3)
C4 C 0.6979(4) 0.2413(3) 0.2539(3)
C5 C 0.7232(4) 0.2511(3) 0.3159(3)
C6 C 0.6783(5) 0.2333(4) 0.3654(4)
C7 C 1.0254(6) 0.1757(5) 0.1287(5)
C8 C 0.9937(5) 0.2108(4) 0.1766(4)
C9 C 1.0197(4) 0.2053(4) 0.2396(4)
C10 C 1.0829(5) 0.1670(4) 0.2621(4)
C11 C 0.9416(4) 0.5120(4) 0.2934(4)
C12 C 0.9132(4) 0.4550(3) 0.2644(4)
C13 C 0.8724(5) 0.4553(4) 0.2063(4)
C14 C 0.8564(6) 0.5113(5) 0.1720(5)
C15 C 0.5892(5) 0.3728(4) 0.2474(4)
C16 C 0.6565(5) 0.4098(4) 0.2711(6)
H5 H 0.6684 0.4033 0.3157
H6 H 0.6450 0.4524 0.2632
H7 H 0.7001 0.3982 0.2498
C17 C 0.2690(4) 0.3191(3) 0.2254(3)
C18 C 0.1967(5) 0.3087(4) 0.2442(4)
H8 H 0.1897 0.2749 0.2695
C19 C 0.1342(5) 0.3468(4) 0.2268(5)
H9 H 0.0861 0.3384 0.2401
C20 C 0.1436(7) 0.3964(5) 0.1902(5)
H10 H 0.1017 0.4221 0.1782
C21 C 0.2142(8) 0.4088(5) 0.1711(5)
H11 H 0.2207 0.4428 0.1458
C22 C 0.2769(6) 0.3704(4) 0.1896(5)
H12 H 0.3253 0.3798 0.1774
C23 C 0.3702(4) 0.2663(3) 0.3290(3)
C24 C 0.3253(5) 0.2342(4) 0.3672(4)
H13 H 0.2836 0.2110 0.3491
C25 C 0.3418(6) 0.2365(5) 0.4324(5)
H14 H 0.3124 0.2135 0.4577
C26 C 0.4002(7) 0.2715(6) 0.4592(5)
H15 H 0.4102 0.2730 0.5030
C27 C 0.4442(8) 0.3043(7) 0.4235(5)
H16 H 0.4839 0.3290 0.4425
C28 C 0.4298(6) 0.3010(6) 0.3577(4)
H17 H 0.4612 0.3227 0.3330
C29 C 0.3880(5) 0.1030(3) 0.3001(3)
C30 C 0.3278(5) 0.0795(4) 0.3306(4)
H18 H 0.2788 0.0745 0.3086
C31 C 0.3410(7) 0.0633(4) 0.3944(5)
H19 H 0.3007 0.0477 0.4149
C32 C 0.4138(8) 0.0704(6) 0.4268(5)
H20 H 0.4225 0.0597 0.4693
C33 C 0.4721(7) 0.0928(6) 0.3972(5)
H21 H 0.5212 0.0971 0.4194
C34 C 0.4603(5) 0.1098(4) 0.3336(4)
H22 H 0.5011 0.1256 0.3138
C35 C 0.3105(4) 0.0692(3) 0.1782(3)
C36 C 0.3310(6) 0.0087(4) 0.1873(4)
H23 H 0.3743 -0.0013 0.2152
C37 C 0.2879(6) -0.0378(4) 0.1554(5)
H24 H 0.3008 -0.0785 0.1638
C38 C 0.2277(6) -0.0239(5) 0.1125(5)
H25 H 0.2000 -0.0550 0.0904
C39 C 0.2069(6) 0.0360(5) 0.1009(5)
H26 H 0.1653 0.0455 0.0711
C40 C 0.2483(5) 0.0824(4) 0.1341(5)
H27 H 0.2338 0.1230 0.1264
C41 C 0.4016(4) 0.1013(3) 0.0198(3)
C42 C 0.4204(6) 0.0411(4) 0.0344(5)
H28 H 0.4604 0.0325 0.0661
C43 C 0.3806(6) -0.0070(4) 0.0024(6)
H29 H 0.3930 -0.0472 0.0136
C44 C 0.3238(7) 0.0048(5) -0.0448(5)
H30 H 0.2989 -0.0272 -0.0677
C45 C 0.3037(8) 0.0630(5) -0.0585(6)
H31 H 0.2634 0.0711 -0.0901
C46 C 0.3420(7) 0.1112(5) -0.0263(5)
H32 H 0.3268 0.1512 -0.0365
C47 C 0.5455(4) 0.1654(3) 0.0213(3)
C48 C 0.5397(5) 0.1673(4) -0.0448(4)
H33 H 0.4910 0.1666 -0.0682
C49 C 0.6052(6) 0.1700(4) -0.0754(5)
H34 H 0.6007 0.1704 -0.1194
C50 C 0.6770(6) 0.1722(4) -0.0417(5)
H35 H 0.7210 0.1750 -0.0627
C51 C 0.6847(5) 0.1703(4) 0.0233(5)
H36 H 0.7335 0.1713 0.0463
C52 C 0.6181(5) 0.1667(4) 0.0544(4)
H37 H 0.6231 0.1652 0.0983
C53 C 0.3771(4) 0.3606(3) 0.0488(3)
C54 C 0.3105(5) 0.3520(4) 0.0077(4)
H38 H 0.2963 0.3125 -0.0052
C55 C 0.2645(6) 0.4005(5) -0.0145(4)
H39 H 0.2200 0.3934 -0.0421
C56 C 0.2836(6) 0.4585(5) 0.0037(5)
H40 H 0.2528 0.4912 -0.0117
C57 C 0.3492(7) 0.4685(4) 0.0451(5)
H41 H 0.3622 0.5082 0.0582
C58 C 0.3961(5) 0.4200(4) 0.0675(4)
H42 H 0.4405 0.4274 0.0953
C59 C 0.5288(4) 0.3197(3) 0.0404(3)
C60 C 0.5222(5) 0.3299(4) -0.0243(4)
H43 H 0.4745 0.3252 -0.0486
C61 C 0.5866(6) 0.3470(5) -0.0526(4)
H44 H 0.5817 0.3536 -0.0960
C62 C 0.6570(5) 0.3546(4) -0.0184(5)
H45 H 0.6998 0.3664 -0.0381
C63 C 0.6640(6) 0.3447(5) 0.0449(5)
H46 H 0.7119 0.3496 0.0688
C64 C 0.6002(5) 0.3274(4) 0.0741(4)
H47 H 0.6058 0.3208 0.1175
Cu2A Cu 1.01941(5) 0.64255(4) 0.33139(4)
N6A N 0.5355(4) 0.0570(3) 0.1850(3)
O1 O 0.0188(13) 0.0393(8) -0.1456(10)
C65 C 0.050(3) 0.0186(16) -0.0842(13)
H48 H 0.0820 -0.0171 -0.0874
H49 H 0.0080 0.0081 -0.0594
C66 C 0.096(2) 0.0708(18) -0.0543(13)
H50 H 0.0944 0.1046 -0.0833
H51 H 0.1494 0.0580 -0.0442
H52 H 0.0757 0.0832 -0.0164
C67 C -0.016(2) -0.0093(8) -0.1823(16)
H53 H -0.0426 -0.0366 -0.1559
H54 H 0.0232 -0.0326 -0.2009
C68 C -0.0725(14) 0.0175(10) -0.2329(13)
H55 H -0.1244 0.0076 -0.2248
H56 H -0.0632 0.0009 -0.2731
H57 H -0.0664 0.0611 -0.2335
O2 O 0.6454(6) 0.5526(4) 0.2149(4)
C69 C 0.5754(13) 0.5160(9) 0.1216(7)
H58 H 0.5531 0.5276 0.0799
H59 H 0.5356 0.5005 0.1450
H60 H 0.6139 0.4849 0.1185
C70 C 0.6109(10) 0.5685(7) 0.1532(7)
H61 H 0.6502 0.5848 0.1289
H62 H 0.5721 0.6000 0.1563
C71 C 0.6796(10) 0.6010(6) 0.2509(8)
H63 H 0.6402 0.6312 0.2572
H64 H 0.7181 0.6205 0.2279
C72 C 0.7159(12) 0.5808(7) 0.3115(8)
H65 H 0.7404 0.6150 0.3340
H66 H 0.7542 0.5503 0.3055
H67 H 0.6775 0.5636 0.3354
N8 N 0.2122(6) 0.2395(5) 0.0762(5)
C73 C 0.0902(7) 0.3077(6) 0.0450(5)
H68 H 0.0650 0.2945 0.0049
H69 H 0.1060 0.3497 0.0421
H70 H 0.0549 0.3041 0.0764
C74 C 0.1589(8) 0.2692(6) 0.0630(5)
loop_
_geom_bond_atom_site_label_1
_geom_bond_atom_site_label_2
_geom_bond_site_symmetry_1
_geom_bond_site_symmetry_2
W1 S1 1_555 1_555
Cu1 P1 1_555 1_555
Cu2 P2 1_555 1_555
S1 C4 1_555 1_555
S2 W1 1_555 1_555
S3 W1 1_555 1_555
S4 W1 1_555 1_555
S5 W1 1_555 1_555
S6 W1 1_555 1_555
P1 C2 1_555 1_555
P2 C2 1_555 1_555
P3 Cu2 1_555 1_555
P4 Cu1 1_555 1_555
N1 Cu2 1_555 1_555
N2 C6 1_555 1_555
N3 C7 1_555 1_555
N4 C10 1_555 1_555
N5 C14 1_555 1_555
N6 C11 1_555 1_555
N7 Cu1 1_555 1_555
C1 P3 1_555 1_555
H1 C1 1_555 1_555
H2 C1 1_555 1_555
C2 H3 1_555 1_555
H4 C2 1_555 1_555
C3 N1 1_555 1_555
C4 C3 1_555 1_555
C5 S2 1_555 1_555
C6 C5 1_555 1_555
C7 C8 1_555 1_555
C8 S3 1_555 1_555
C9 S4 1_555 1_555
C10 C9 1_555 1_555
C11 C12 1_555 1_555
C12 S6 1_555 1_555
C13 S5 1_555 1_555
C14 C13 1_555 1_555
C15 N7 1_555 1_555
C16 C15 1_555 1_555
H5 C16 1_555 1_555
H6 C16 1_555 1_555
H7 C16 1_555 1_555
C17 P1 1_555 1_555
C18 C17 1_555 1_555
H8 C18 1_555 1_555
C19 C18 1_555 1_555
H9 C19 1_555 1_555
C20 C19 1_555 1_555
H10 C20 1_555 1_555
C21 C20 1_555 1_555
H11 C21 1_555 1_555
C22 C17 1_555 1_555
H12 C22 1_555 1_555
C23 P1 1_555 1_555
C24 C23 1_555 1_555
H13 C24 1_555 1_555
C25 C24 1_555 1_555
H14 C25 1_555 1_555
C26 C25 1_555 1_555
H15 C26 1_555 1_555
C27 C26 1_555 1_555
H16 C27 1_555 1_555
C28 C23 1_555 1_555
H17 C28 1_555 1_555
C29 P2 1_555 1_555
C30 C29 1_555 1_555
H18 C30 1_555 1_555
C31 C30 1_555 1_555
H19 C31 1_555 1_555
C32 C31 1_555 1_555
H20 C32 1_555 1_555
C33 C32 1_555 1_555
H21 C33 1_555 1_555
C34 C29 1_555 1_555
H22 C34 1_555 1_555
C35 P2 1_555 1_555
C36 C35 1_555 1_555
H23 C36 1_555 1_555
C37 C36 1_555 1_555
H24 C37 1_555 1_555
C38 C37 1_555 1_555
H25 C38 1_555 1_555
C39 C38 1_555 1_555
H26 C39 1_555 1_555
C40 C35 1_555 1_555
H27 C40 1_555 1_555
C41 P3 1_555 1_555
C42 C41 1_555 1_555
H28 C42 1_555 1_555
C43 C42 1_555 1_555
H29 C43 1_555 1_555
C44 C43 1_555 1_555
H30 C44 1_555 1_555
C45 C44 1_555 1_555
H31 C45 1_555 1_555
C46 C41 1_555 1_555
H32 C46 1_555 1_555
C47 P3 1_555 1_555
C48 C47 1_555 1_555
H33 C48 1_555 1_555
C49 C48 1_555 1_555
H34 C49 1_555 1_555
C50 C49 1_555 1_555
H35 C50 1_555 1_555
C51 C50 1_555 1_555
H36 C51 1_555 1_555
C52 C47 1_555 1_555
H37 C52 1_555 1_555
C53 P4 1_555 1_555
C54 C53 1_555 1_555
H38 C54 1_555 1_555
C55 C54 1_555 1_555
H39 C55 1_555 1_555
C56 C55 1_555 1_555
H40 C56 1_555 1_555
C57 C56 1_555 1_555
H41 C57 1_555 1_555
C58 C53 1_555 1_555
H42 C58 1_555 1_555
C59 P4 1_555 1_555
C60 C59 1_555 1_555
H43 C60 1_555 1_555
C61 C60 1_555 1_555
H44 C61 1_555 1_555
C62 C61 1_555 1_555
H45 C62 1_555 1_555
C63 C62 1_555 1_555
H46 C63 1_555 1_555
C64 C59 1_555 1_555
H47 C64 1_555 1_555
O1 C65 1_555 1_555
C65 H48 1_555 1_555
H49 C65 1_555 1_555
C66 C65 1_555 1_555
H50 C66 1_555 1_555
H51 C66 1_555 1_555
H52 C66 1_555 1_555
C67 O1 1_555 1_555
H53 C67 1_555 1_555
H54 C67 1_555 1_555
C68 C67 1_555 1_555
H55 C68 1_555 1_555
H56 C68 1_555 1_555
H57 C68 1_555 1_555
O2 C70 1_555 1_555
C69 H58 1_555 1_555
H59 C69 1_555 1_555
H60 C69 1_555 1_555
C70 C69 1_555 1_555
H61 C70 1_555 1_555
H62 C70 1_555 1_555
C71 O2 1_555 1_555
H63 C71 1_555 1_555
H64 C71 1_555 1_555
C72 C71 1_555 1_555
H65 C72 1_555 1_555
H66 C72 1_555 1_555
H67 C72 1_555 1_555
N8 C74 1_555 1_555
C73 H68 1_555 1_555
H69 C73 1_555 1_555
H70 C73 1_555 1_555
C74 C73 1_555 1_555
Cu2A N6 1_555 1_555
N6A Cu2 1_555 1_555
P4 C1 1_555 1_555
C4 C5 1_555 1_555
C8 C9 1_555 1_555
C12 C13 1_555 1_555
C21 C22 1_555 1_555
C27 C28 1_555 1_555
C33 C34 1_555 1_555
C39 C40 1_555 1_555
C45 C46 1_555 1_555
C51 C52 1_555 1_555
C57 C58 1_555 1_555
C63 C64 1_555 1_555

#END
