
#######################################################################
#
#                 Cambridge Crystallographic Data Centre
#                                CCDC 
#
#######################################################################
#
# If this CIF has been generated from an entry in the Cambridge 
# Structural Database, then it will include bibliographic, chemical, 
# crystal, experimental, refinement or atomic coordinate data resulting 
# from the CCDC's data processing and validation procedures.
#
#######################################################################

data_REWGOP
_symmetry_cell_setting           triclinic
_symmetry_space_group_name_H-M   'P -1'
_symmetry_Int_Tables_number      2
_space_group_name_Hall           '-P 1'
loop_
_symmetry_equiv_pos_site_id
_symmetry_equiv_pos_as_xyz
1 x,y,z
2 -x,-y,-z
_cell_length_a                   8.624(2)
_cell_length_b                   9.558(2)
_cell_length_c                   18.294(3)
_cell_angle_alpha                85.15(2)
_cell_angle_beta                 86.76(2)
_cell_angle_gamma                81.18(2)
_cell_volume                     1483.32
loop_
_atom_site_label
_atom_site_type_symbol
_atom_site_fract_x
_atom_site_fract_y
_atom_site_fract_z
Tb1 Tb -1.0032(1) -0.2406(1) 0.7626(1)
O1 O -0.2474(6) -0.6375(6) 0.2498(3)
O2 O -0.8862(6) -0.0533(6) 0.7125(3)
O3 O -0.0909(7) 0.1742(6) 0.1330(3)
C1 C -0.3555(8) -0.5362(8) 0.2484(4)
C2 C -0.3708(10) -0.4084(9) 0.1933(4)
C3 C -0.5345(11) -0.3315(10) 0.2084(5)
C4 C -0.5866(9) -0.3921(9) 0.2822(5)
N1 N -0.4727(7) -0.5209(6) 0.2967(3)
C5 C -0.4938(11) -0.6254(8) 0.3595(5)
C6 C -0.4978(10) -0.5597(7) 0.4328(4)
C7 C -0.3625(10) -0.5513(8) 0.4648(5)
C8 C -0.6375(10) -0.5085(8) 0.4683(5)
C9 C -0.8920(8) 0.0648(8) 0.6800(3)
C10 C -1.0419(10) 0.1681(9) 0.6690(5)
C11 C -0.9921(12) 0.2869(10) 0.6168(5)
C12 C -0.8111(12) 0.2668(8) 0.6179(4)
N2 N -0.7722(7) 0.1227(6) 0.6528(3)
C13 C -0.6150(9) 0.0485(8) 0.6501(4)
C14 C -0.5514(8) 0.0211(7) 0.5715(3)
C15 C -0.4237(9) 0.0795(8) 0.5411(4)
C16 C -0.6269(9) -0.0571(8) 0.5297(4)
C17 C -0.1540(8) 0.1116(8) 0.0904(4)
C18 C -0.1815(10) -0.0411(8) 0.1015(5)
C19 C -0.2399(12) -0.0678(11) 0.0297(7)
C20 C -0.2712(10) 0.0700(11) -0.0145(5)
N3 N -0.2057(7) 0.1673(6) 0.0269(3)
C21 C -0.1992(9) 0.3151(8) 0.0017(4)
C22 C -0.3568(8) 0.4087(8) 0.0011(3)
C23 C -0.3746(8) 0.5343(8) -0.0436(4)
C24 C -0.5150(9) 0.6255(8) -0.0440(4)
N4 N 0.0915(12) 0.2309(10) 0.3866(4)
O4 O -0.0430(8) 0.2818(7) 0.3688(3)
O5 O 0.1869(7) 0.1772(7) 0.3362(3)
O6 O 0.1309(13) 0.2275(13) 0.4473(4)
N5 N 0.3072(7) 0.1063(7) 0.1803(3)
O7 O 0.2669(6) 0.2400(6) 0.1803(3)
O8 O 0.2054(6) 0.0339(5) 0.2043(3)
O9 O 0.4375(7) 0.0529(7) 0.1586(4)
N6 N 0.0402(8) 0.5333(7) 0.1902(4)
O10 O 0.0676(7) 0.4753(5) 0.2550(3)
O11 O 0.0041(6) 0.4540(5) 0.1452(3)
O12 O 0.0517(9) 0.6570(6) 0.1745(4)
H1 H -0.6418 -0.5624 0.8559
H2 H -0.7064 -0.6511 0.7996
H3 H -0.4657 -0.7689 0.7917
H4 H -0.3966 -0.6518 0.8283
H5 H -0.4164 -0.6738 0.6813
H6 H -0.3089 -0.5851 0.7183
H7 H -0.5906 -0.2966 0.6421
H8 H -0.4096 -0.3384 0.6449
H9 H -0.7357 -0.4127 0.5592
H10 H -0.7348 -0.5136 0.4464
H11 H 0.1177 -0.1238 0.3536
H12 H 0.0864 -0.2023 0.2855
H13 H 0.0265 -0.2833 0.4319
H14 H 0.0347 -0.3776 0.3659
H15 H -0.2253 -0.3361 0.3550
H16 H -0.2338 -0.2723 0.4313
H17 H -0.4528 -0.1027 0.3282
H18 H -0.3880 0.0412 0.3217
H19 H -0.6299 -0.1349 0.4301
H20 H -0.7169 -0.0966 0.5504
H21 H -0.7422 1.0528 -0.1409
H22 H -0.9143 1.1034 -0.1120
H23 H -0.8357 1.1338 -0.0047
H24 H -0.6642 1.1074 -0.0375
H25 H -0.7818 0.9364 0.0619
H26 H -0.6186 0.8997 0.0206
H27 H -0.8472 0.6821 0.0472
H28 H -0.8683 0.6476 -0.0327
H29 H -0.7122 0.4433 0.0753
H30 H -0.4750 0.2861 0.0736
Tb1A Tb 0.0032(1) -0.7594(1) 0.2374(1)
C7A C -0.6375(10) -0.4487(8) 0.5352(5)
C6A C -0.5022(10) -0.4403(7) 0.5672(4)
C5A C -0.5062(11) -0.3746(8) 0.6405(5)
N1A N -0.5273(7) -0.4791(6) 0.7033(3)
C1A C -0.6445(8) -0.4638(8) 0.7516(4)
O1A O -0.7526(6) -0.3625(6) 0.7502(3)
C15A C -0.5763(9) -0.0795(8) 0.4589(4)
C14A C -0.4486(8) -0.0211(7) 0.4285(3)
C13A C -0.3850(9) -0.0485(8) 0.3499(4)
N2A N -0.2278(7) -0.1227(6) 0.3472(3)
C9A C -0.1080(8) -0.0648(8) 0.3200(3)
O2A O -0.1138(6) 0.0533(6) 0.2875(3)
Tb1A_2 Tb 0.0032(1) 0.2406(1) 0.2374(1)
O1_2 O -0.2474(6) 0.3625(6) 0.2498(3)
C22A C -0.6432(8) 0.5913(8) -0.0011(3)
C21A C -0.8008(9) 0.6849(8) -0.0017(4)
N3A N -0.7943(7) 0.8327(6) -0.0269(3)
C17A C -0.8460(8) 0.8884(8) -0.0904(4)
O3A O -0.9091(7) 0.8258(6) -0.1330(3)
Tb1_2 Tb -1.0032(1) 0.7594(1) -0.2374(1)
C18A C -0.8185(10) 1.0411(8) -0.1015(5)
C19A C -0.7601(12) 1.0678(11) -0.0297(7)
C20A C -0.7288(10) 0.9300(11) 0.0145(5)
C23A C -0.6254(8) 0.4657(8) 0.0436(4)
C24A C -0.4850(9) 0.3745(8) 0.0440(4)
H30A H -0.5250 0.7139 -0.0736
H29A H -0.2878 0.5567 -0.0753
H27A H -0.1528 0.3179 -0.0472
H28A H -0.1317 0.3524 0.0327
H25A H -0.2182 0.0636 -0.0619
H26A H -0.3814 0.1003 -0.0206
H23A H -0.1643 -0.1338 0.0047
H24A H -0.3358 -0.1074 0.0375
H21A H -0.2578 -0.0528 0.1409
H22A H -0.0857 -0.1034 0.1120
C10A C 0.0419(10) -0.1681(9) 0.3310(5)
C11A C -0.0079(12) -0.2869(10) 0.3832(5)
C12A C -0.1889(12) -0.2668(8) 0.3821(4)
C16A C -0.3731(9) 0.0571(8) 0.4703(4)
H17A H -0.5472 0.1027 0.6718
H18A H -0.6120 -0.0412 0.6783
H15A H -0.7747 0.3361 0.6450
H16A H -0.7662 0.2723 0.5687
H13A H -1.0265 0.2833 0.5681
H14A H -1.0347 0.3776 0.6341
H11A H -1.1177 0.1238 0.6464
H12A H -1.0864 0.2023 0.7145
O3A_2 O -0.9091(7) -0.1742(6) 0.8670(3)
O4A O -0.9570(8) -0.2818(7) 0.6312(3)
N4A N -1.0915(12) -0.2309(10) 0.6134(4)
O5A O -1.1869(7) -0.1772(7) 0.6638(3)
O7A O -1.2669(6) -0.2400(6) 0.8197(3)
N5A N -1.3072(7) -0.1063(7) 0.8197(3)
O8A O -1.2054(6) -0.0339(5) 0.7957(3)
O10A O -1.0676(7) -0.4753(5) 0.7450(3)
N6A N -1.0402(8) -0.5333(7) 0.8098(4)
O11A O -1.0041(6) -0.4540(5) 0.8548(3)
O12A O -1.0517(9) -0.6570(6) 0.8255(4)
O9A O -1.4375(7) -0.0529(7) 0.8414(4)
O6A O -1.1309(13) -0.2275(13) 0.5527(4)
C2A C -0.6292(10) -0.5916(9) 0.8067(4)
C3A C -0.4655(11) -0.6685(10) 0.7916(5)
C4A C -0.4134(9) -0.6079(9) 0.7178(5)
C8A C -0.3625(10) -0.4915(8) 0.5317(5)
H7A H -0.4094 -0.7034 0.3579
H8A H -0.5904 -0.6616 0.3551
H5A H -0.5836 -0.3262 0.3187
H6A H -0.6911 -0.4149 0.2817
H3A H -0.5343 -0.2311 0.2083
H4A H -0.6034 -0.3482 0.1717
H1A H -0.3582 -0.4376 0.1441
H2A H -0.2936 -0.3489 0.2004
H10A H -0.2652 -0.4864 0.5536
H9A H -0.2643 -0.5873 0.4408
H20A H -0.2831 0.0966 0.4496
H19A H -0.3701 0.1349 0.5699
loop_
_geom_bond_atom_site_label_1
_geom_bond_atom_site_label_2
_geom_bond_site_symmetry_1
_geom_bond_site_symmetry_2
Tb1 O2 1_555 1_555
O1 C1 1_555 1_555
O2 C9 1_555 1_555
O3 C17 1_555 1_555
C1 C2 1_555 1_555
C2 C3 1_555 1_555
C3 C4 1_555 1_555
C4 N1 1_555 1_555
N1 C1 1_555 1_555
C5 N1 1_555 1_555
C6 C5 1_555 1_555
C7 C6 1_555 1_555
C8 C6 1_555 1_555
C9 C10 1_555 1_555
C10 C11 1_555 1_555
C11 C12 1_555 1_555
C12 N2 1_555 1_555
N2 C9 1_555 1_555
C13 N2 1_555 1_555
C14 C13 1_555 1_555
C15 C14 1_555 1_555
C16 C14 1_555 1_555
C17 C18 1_555 1_555
C18 C19 1_555 1_555
C19 C20 1_555 1_555
C20 N3 1_555 1_555
N3 C17 1_555 1_555
C21 N3 1_555 1_555
C22 C21 1_555 1_555
C23 C22 1_555 1_555
C24 C23 1_555 1_555
N4 O4 1_555 1_555
O4 Tb1A_2 1_555 1_555
O5 N4 1_555 1_555
O6 N4 1_555 1_555
N5 O7 1_555 1_555
O7 Tb1A_2 1_555 1_555
O8 N5 1_555 1_555
O9 N5 1_555 1_555
N6 O10 1_555 1_555
O10 Tb1A_2 1_555 1_555
O11 N6 1_555 1_555
O12 N6 1_555 1_555
H1 C2A 1_555 1_555
H2 C2A 1_555 1_555
H3 C3A 1_555 1_555
H4 C3A 1_555 1_555
H5 C4A 1_555 1_555
H6 C4A 1_555 1_555
H7 C5A 1_555 1_555
H8 C5A 1_555 1_555
H9 C7A 1_555 1_555
H10 C8 1_555 1_555
H11 C10A 1_555 1_555
H12 C10A 1_555 1_555
H13 C11A 1_555 1_555
H14 C11A 1_555 1_555
H15 C12A 1_555 1_555
H16 C12A 1_555 1_555
H17 C13A 1_555 1_555
H18 C13A 1_555 1_555
H19 C15A 1_555 1_555
H20 C16 1_555 1_555
H21 C18A 1_555 1_555
H22 C18A 1_555 1_555
H23 C19A 1_555 1_555
H24 C19A 1_555 1_555
H25 C20A 1_555 1_555
H26 C20A 1_555 1_555
H27 C21A 1_555 1_555
H28 C21A 1_555 1_555
H29 C23A 1_555 1_555
H30 C24A 1_555 1_555
Tb1A O1 1_555 1_555
C7A C8 1_555 1_555
C6A C7A 1_555 1_555
C5A C6A 1_555 1_555
N1A C5A 1_555 1_555
C1A N1A 1_555 1_555
O1A Tb1 1_555 1_555
C15A C16 1_555 1_555
C14A C15A 1_555 1_555
C13A C14A 1_555 1_555
N2A C13A 1_555 1_555
C9A N2A 1_555 1_555
O2A C9A 1_555 1_555
Tb1A_2 O3 1_555 1_555
O1_2 Tb1A_2 1_555 1_555
C22A C24 1_555 1_555
C21A C22A 1_555 1_555
N3A C21A 1_555 1_555
C17A N3A 1_555 1_555
O3A C17A 1_555 1_555
Tb1_2 O3A 1_555 1_555
C18A C17A 1_555 1_555
C19A C18A 1_555 1_555
C20A N3A 1_555 1_555
C23A C22A 1_555 1_555
C24A C22 1_555 1_555
H30A C24 1_555 1_555
H29A C23 1_555 1_555
H27A C21 1_555 1_555
H28A C21 1_555 1_555
H25A C20 1_555 1_555
H26A C20 1_555 1_555
H23A C19 1_555 1_555
H24A C19 1_555 1_555
H21A C18 1_555 1_555
H22A C18 1_555 1_555
C10A C9A 1_555 1_555
C11A C10A 1_555 1_555
C12A N2A 1_555 1_555
C16A C15 1_555 1_555
H17A C13 1_555 1_555
H18A C13 1_555 1_555
H15A C12 1_555 1_555
H16A C12 1_555 1_555
H13A C11 1_555 1_555
H14A C11 1_555 1_555
H11A C10 1_555 1_555
H12A C10 1_555 1_555
O3A_2 Tb1 1_555 1_555
O4A Tb1 1_555 1_555
N4A O4A 1_555 1_555
O5A Tb1 1_555 1_555
O7A Tb1 1_555 1_555
N5A O7A 1_555 1_555
O8A Tb1 1_555 1_555
O10A Tb1 1_555 1_555
N6A O10A 1_555 1_555
O11A Tb1 1_555 1_555
O12A N6A 1_555 1_555
O9A N5A 1_555 1_555
O6A N4A 1_555 1_555
C2A C1A 1_555 1_555
C3A C2A 1_555 1_555
C4A N1A 1_555 1_555
C8A C7 1_555 1_555
H7A C5 1_555 1_555
H8A C5 1_555 1_555
H5A C4 1_555 1_555
H6A C4 1_555 1_555
H3A C3 1_555 1_555
H4A C3 1_555 1_555
H1A C2 1_555 1_555
H2A C2 1_555 1_555
H10A C8A 1_555 1_555
H9A C7 1_555 1_555
H20A C16A 1_555 1_555
H19A C15 1_555 1_555
O5 Tb1A_2 1_555 1_555
O8 Tb1A_2 1_555 1_555
O11 Tb1A_2 1_555 1_555
C6A C8A 1_555 1_555
C1A O1A 1_555 1_555
C14A C16A 1_555 1_555
O2A Tb1A_2 1_555 1_555
C19A C20A 1_555 1_555
C23A C24A 1_555 1_555
C11A C12A 1_555 1_555
N4A O5A 1_555 1_555
N5A O8A 1_555 1_555
N6A O11A 1_555 1_555
C3A C4A 1_555 1_555

#END
