
#######################################################################
#
#                 Cambridge Crystallographic Data Centre
#                                CCDC 
#
#######################################################################
#
# If this CIF has been generated from an entry in the Cambridge 
# Structural Database, then it will include bibliographic, chemical, 
# crystal, experimental, refinement or atomic coordinate data resulting 
# from the CCDC's data processing and validation procedures.
#
#######################################################################

data_REWNEO01
_symmetry_cell_setting           tetragonal
_symmetry_space_group_name_H-M   'I 4/m'
_symmetry_Int_Tables_number      87
_space_group_name_Hall           '-I 4'
loop_
_symmetry_equiv_pos_site_id
_symmetry_equiv_pos_as_xyz
1 x,y,z
2 -x,-y,z
3 -y,x,z
4 y,-x,z
5 1/2+x,1/2+y,1/2+z
6 1/2-x,1/2-y,1/2+z
7 1/2-y,1/2+x,1/2+z
8 1/2+y,1/2-x,1/2+z
9 -x,-y,-z
10 x,y,-z
11 y,-x,-z
12 -y,x,-z
13 1/2-x,1/2-y,1/2-z
14 1/2+x,1/2+y,1/2-z
15 1/2+y,1/2-x,1/2-z
16 1/2-y,1/2+x,1/2-z
_cell_length_a                   30.7992(11)
_cell_length_b                   30.7992(11)
_cell_length_c                   44.8105(19)
_cell_angle_alpha                90
_cell_angle_beta                 90
_cell_angle_gamma                90
_cell_volume                     42506.8
loop_
_atom_site_label
_atom_site_type_symbol
_atom_site_fract_x
_atom_site_fract_y
_atom_site_fract_z
Cu1 Cu 0.349434(14) 0.400846(14) 0.128230(10)
Cu2 Cu 0.297549(14) 0.365994(14) 0.169326(10)
Cu3 Cu 0.45119(2) 0.250588(18) 0.0000
Cu4 Cu 0.43513(2) 0.165540(19) 0.0000
C1 C 0.35851(13) 0.22663(12) 0.06651(9)
C2 C 0.33905(14) 0.18990(13) 0.07806(10)
H1 H 0.3420 0.1626 0.0684
C3 C 0.31457(15) 0.19396(14) 0.10461(11)
C4 C 0.30822(14) 0.23329(13) 0.11799(10)
H2 H 0.2913 0.2356 0.1357
C5 C 0.32702(13) 0.26992(12) 0.10516(9)
C6 C 0.35210(12) 0.26683(12) 0.07971(8)
H3 H 0.3649 0.2921 0.0713
C7 C 0.32365(12) 0.31284(12) 0.12079(9)
C8 C 0.38917(12) 0.22080(13) 0.04048(8)
C9 C 0.31447(18) 0.11537(15) 0.11473(12)
H4 H 0.3387 0.1063 0.1032
C10 C 0.2888(2) 0.09054(16) 0.13203(14)
C11 C 0.2913(2) 0.04306(16) 0.13905(13)
C12 C 0.3192(2) 0.01778(17) 0.12190(14)
H5 H 0.3332 0.0296 0.1048
C13 C 0.3266(2) -0.02641(16) 0.13056(14)
C14 C 0.3031(2) -0.04310(16) 0.15365(13)
H6 H 0.3057 -0.0732 0.1580
C15 C 0.2754(2) -0.01797(16) 0.17104(13)
C16 C 0.2671(2) 0.02572(16) 0.16315(13)
H7 H 0.2463 0.0427 0.1736
C17 C 0.3559(2) -0.05320(17) 0.11379(14)
C18 C 0.36803(19) -0.09461(16) 0.11758(12)
H8 H 0.3564 -0.1141 0.1319
C19 C 0.42028(17) -0.14486(14) 0.09230(11)
C20 C 0.40519(15) -0.18059(13) 0.10823(10)
H9 H 0.3834 -0.1775 0.1231
C21 C 0.42307(13) -0.22105(12) 0.10168(9)
C22 C 0.45313(12) -0.22547(12) 0.07916(8)
H10 H 0.4641 -0.2534 0.0742
C23 C 0.46741(14) -0.18917(13) 0.06377(9)
C24 C 0.45084(16) -0.14844(14) 0.07014(10)
H11 H 0.4604 -0.1236 0.0594
C25 C 0.40883(12) -0.25855(12) 0.11946(9)
C26 C 0.50026(13) -0.19473(13) 0.03936(8)
C27 C 0.2528(2) -0.03540(17) 0.19651(13)
C28 C 0.23258(18) -0.01409(16) 0.21963(12)
H12 H 0.2286 0.0163 0.2217
C29 C 0.20032(16) -0.04053(14) 0.26690(10)
C30 C 0.19807(14) -0.00027(13) 0.28039(10)
H13 H 0.2110 0.0244 0.2713
C31 C 0.17690(12) 0.00338(12) 0.30703(9)
C32 C 0.15847(12) -0.03310(12) 0.32088(9)
H14 H 0.1436 -0.0302 0.3394
C33 C 0.16204(13) -0.07262(12) 0.30759(9)
C34 C 0.18227(15) -0.07732(14) 0.28019(10)
H15 H 0.1838 -0.1049 0.2707
C35 C 0.17542(12) 0.04638(12) 0.32296(9)
C36 C 0.14390(13) -0.11136(12) 0.32324(9)
N1 N 0.29846(14) 0.15571(12) 0.11735(10)
N2 N 0.26212(17) 0.15675(14) 0.13483(12)
N3 N 0.25623(18) 0.11610(15) 0.14405(13)
N4 N 0.3805(2) -0.03774(18) 0.09053(14)
N5 N 0.4095(2) -0.06856(18) 0.08250(14)
N6 N 0.39843(16) -0.10367(13) 0.09825(10)
N7 N 0.2270(2) -0.08580(15) 0.22654(12)
N8 N 0.21966(16) -0.04518(13) 0.23853(10)
N9 N 0.2495(2) -0.07955(16) 0.20116(13)
O1 O 0.34101(9) 0.34451(8) 0.10818(6)
O2 O 0.30375(8) 0.31355(8) 0.14535(6)
O3 O 0.39104(11) 0.42666(13) 0.09500(8)
H16 H 0.4111(12) 0.4070(9) 0.0896(10)
H17 H 0.4039(13) 0.4497(9) 0.1006(8)
O4 O 0.25447(10) 0.33910(11) 0.20122(7)
H18 H 0.2401 0.3167 0.1931
H19 H 0.2680 0.3300 0.2167
O5 O 0.40624(8) 0.25504(8) 0.03068(5)
O6 O 0.39403(8) 0.18292(8) 0.03078(6)
O7 O 0.46763(17) 0.31762(13) 0.0000
H20 H 0.4642(17) 0.3283(8) -0.0179(6)
O8 O 0.51937(8) -0.16104(8) 0.03028(6)
O9 O 0.41787(15) 0.09877(12) 0.0000
H21 H 0.4069 0.0924 0.0184
O10 O 0.50751(9) -0.23302(8) 0.03101(6)
O11 O 0.42160(8) -0.29541(8) 0.11044(6)
O12 O 0.38574(8) -0.25179(8) 0.14183(6)
O13 O 0.14888(9) -0.14799(9) 0.31048(6)
O14 O 0.12514(9) -0.10440(8) 0.34733(6)
O15 O 0.19982(8) 0.07582(8) 0.31319(6)
O16 O 0.15094(8) 0.04899(8) 0.34513(6)
H20I H 0.4642(17) 0.3283(8) 0.0179(6)
H21I H 0.4069 0.0924 -0.0184
Cu1A Cu 0.650566(14) -0.400846(14) 0.128230(10)
Cu2A Cu 0.702451(14) -0.365994(14) 0.169326(10)
C1A C 0.64149(13) -0.22663(12) 0.06651(9)
C2A C 0.66095(14) -0.18990(13) 0.07806(10)
H1A H 0.6580 -0.1626 0.0684
C3A C 0.68543(15) -0.19396(14) 0.10461(11)
C4A C 0.69178(14) -0.23329(13) 0.11799(10)
H2A H 0.7087 -0.2356 0.1357
C5A C 0.67298(13) -0.26992(12) 0.10516(9)
C6A C 0.64790(12) -0.26683(12) 0.07971(8)
H3A H 0.6351 -0.2921 0.0713
C7A C 0.67635(12) -0.31284(12) 0.12079(9)
C8A C 0.61083(12) -0.22080(13) 0.04048(8)
C9A C 0.68553(18) -0.11537(15) 0.11473(12)
H4A H 0.6613 -0.1063 0.1032
C10A C 0.7112(2) -0.09054(16) 0.13203(14)
C11A C 0.7087(2) -0.04306(16) 0.13905(13)
C12A C 0.6808(2) -0.01778(17) 0.12190(14)
H5A H 0.6668 -0.0296 0.1048
C13A C 0.6734(2) 0.02641(16) 0.13056(14)
C14A C 0.6969(2) 0.04310(16) 0.15365(13)
H6A H 0.6943 0.0732 0.1580
C15A C 0.7246(2) 0.01797(16) 0.17104(13)
C16A C 0.7329(2) -0.02572(16) 0.16315(13)
H7A H 0.7537 -0.0427 0.1736
C17A C 0.6441(2) 0.05320(17) 0.11379(14)
C18A C 0.63197(19) 0.09461(16) 0.11758(12)
H8A H 0.6436 0.1141 0.1319
C19A C 0.57972(17) 0.14486(14) 0.09230(11)
C20A C 0.59481(15) 0.18059(13) 0.10823(10)
H9A H 0.6166 0.1775 0.1231
C21A C 0.57693(13) 0.22105(12) 0.10168(9)
C22A C 0.54687(12) 0.22547(12) 0.07916(8)
H10A H 0.5359 0.2534 0.0742
C23A C 0.53259(14) 0.18917(13) 0.06377(9)
C24A C 0.54916(16) 0.14844(14) 0.07014(10)
H11A H 0.5396 0.1236 0.0594
C25A C 0.59117(12) 0.25855(12) 0.11946(9)
C26A C 0.49974(13) 0.19473(13) 0.03936(8)
C27A C 0.7472(2) 0.03540(17) 0.19651(13)
C28A C 0.76742(18) 0.01409(16) 0.21963(12)
H12A H 0.7714 -0.0163 0.2217
C29A C 0.79968(16) 0.04053(14) 0.26690(10)
C30A C 0.80193(14) 0.00027(13) 0.28039(10)
H13A H 0.7890 -0.0244 0.2713
C31A C 0.82310(12) -0.00338(12) 0.30703(9)
C32A C 0.84153(12) 0.03310(12) 0.32088(9)
H14A H 0.8564 0.0302 0.3394
C33A C 0.83796(13) 0.07262(12) 0.30759(9)
C34A C 0.81773(15) 0.07732(14) 0.28019(10)
H15A H 0.8162 0.1049 0.2707
C35A C 0.82458(12) -0.04638(12) 0.32296(9)
C36A C 0.85610(13) 0.11136(12) 0.32324(9)
N1A N 0.70154(14) -0.15571(12) 0.11735(10)
N2A N 0.73788(17) -0.15675(14) 0.13483(12)
N3A N 0.74377(18) -0.11610(15) 0.14405(13)
N4A N 0.6195(2) 0.03774(18) 0.09053(14)
N5A N 0.5905(2) 0.06856(18) 0.08250(14)
N6A N 0.60157(16) 0.10367(13) 0.09825(10)
N7A N 0.7730(2) 0.08580(15) 0.22654(12)
N8A N 0.78034(16) 0.04518(13) 0.23853(10)
N9A N 0.7505(2) 0.07955(16) 0.20116(13)
O1A O 0.65899(9) -0.34451(8) 0.10818(6)
O2A O 0.69625(8) -0.31355(8) 0.14535(6)
O3A O 0.60896(11) -0.42666(13) 0.09500(8)
H16A H 0.5889(12) -0.4070(9) 0.0896(10)
H17A H 0.5961(13) -0.4497(9) 0.1006(8)
O4A O 0.74553(10) -0.33910(11) 0.20122(7)
H18A H 0.7599 -0.3167 0.1931
H19A H 0.7320 -0.3300 0.2167
O5A O 0.59376(8) -0.25504(8) 0.03068(5)
O6A O 0.60597(8) -0.18292(8) 0.03078(6)
O8A O 0.48063(8) 0.16104(8) 0.03028(6)
O10A O 0.49249(9) 0.23302(8) 0.03101(6)
O11A O 0.57840(8) 0.29541(8) 0.11044(6)
O12A O 0.61426(8) 0.25179(8) 0.14183(6)
O13A O 0.85112(9) 0.14799(9) 0.31048(6)
O14A O 0.87486(9) 0.10440(8) 0.34733(6)
O15A O 0.80018(8) -0.07582(8) 0.31319(6)
O16A O 0.84906(8) -0.04899(8) 0.34513(6)
Cu1B Cu 0.599154(14) 0.349434(14) 0.128230(10)
Cu1C Cu 0.400846(14) -0.349434(14) 0.128230(10)
Cu1L Cu 0.150566(14) 0.099154(14) 0.371770(10)
Cu1M Cu 0.849434(14) -0.099154(14) 0.371770(10)
Cu1N Cu 0.900846(14) 0.150566(14) 0.371770(10)
Cu1O Cu 0.099154(14) -0.150566(14) 0.371770(10)
Cu2B Cu 0.634006(14) 0.297549(14) 0.169326(10)
Cu2C Cu 0.365994(14) -0.297549(14) 0.169326(10)
Cu2L Cu 0.202451(14) 0.134006(14) 0.330674(10)
Cu2M Cu 0.797549(14) -0.134006(14) 0.330674(10)
Cu2N Cu 0.865994(14) 0.202451(14) 0.330674(10)
Cu2O Cu 0.134006(14) -0.202451(14) 0.330674(10)
Cu3A Cu 0.54881(2) -0.250588(18) 0.0000
Cu4A Cu 0.56487(2) -0.165540(19) 0.0000
O5I O 0.40624(8) 0.25504(8) -0.03068(5)
O6I O 0.39403(8) 0.18292(8) -0.03078(6)
O8H O 0.48063(8) 0.16104(8) -0.03028(6)
O10H O 0.49249(9) 0.23302(8) -0.03101(6)
O11B O 0.29541(8) 0.42160(8) 0.11044(6)
O11C O 0.70459(8) -0.42160(8) 0.11044(6)
O12B O 0.25179(8) 0.38574(8) 0.14183(6)
O12C O 0.74821(8) -0.38574(8) 0.14183(6)
O13N O 0.35201(9) 0.35112(9) 0.18952(6)
O13O O 0.64799(9) -0.35112(9) 0.18952(6)
O14N O 0.39560(8) 0.37486(9) 0.15267(6)
O14O O 0.60440(8) -0.37486(9) 0.15267(6)
O15L O 0.30018(8) 0.42418(8) 0.18681(6)
O15M O 0.69982(8) -0.42418(8) 0.18681(6)
O16L O 0.34906(8) 0.45101(8) 0.15487(6)
O16M O 0.65094(8) -0.45101(8) 0.15487(6)
loop_
_geom_bond_atom_site_label_1
_geom_bond_atom_site_label_2
_geom_bond_site_symmetry_1
_geom_bond_site_symmetry_2
Cu1 Cu2 1_555 1_555
Cu2 O2 1_555 1_555
Cu3 Cu4 1_555 1_555
Cu4 O6 1_555 1_555
C1 C2 1_555 1_555
C2 H1 1_555 1_555
C3 C2 1_555 1_555
C4 C3 1_555 1_555
H2 C4 1_555 1_555
C5 C4 1_555 1_555
C6 C1 1_555 1_555
H3 C6 1_555 1_555
C7 C5 1_555 1_555
C8 C1 1_555 1_555
C9 H4 1_555 1_555
C10 C9 1_555 1_555
C11 C10 1_555 1_555
C12 C11 1_555 1_555
H5 C12 1_555 1_555
C13 C12 1_555 1_555
C14 C13 1_555 1_555
H6 C14 1_555 1_555
C15 C14 1_555 1_555
C16 C11 1_555 1_555
H7 C16 1_555 1_555
C17 C13 1_555 1_555
C18 C17 1_555 1_555
H8 C18 1_555 1_555
C19 C20 1_555 1_555
C20 H9 1_555 1_555
C21 C20 1_555 1_555
C22 C21 1_555 1_555
H10 C22 1_555 1_555
C23 C22 1_555 1_555
C24 C19 1_555 1_555
H11 C24 1_555 1_555
C25 C21 1_555 1_555
C26 C23 1_555 1_555
C27 C15 1_555 1_555
C28 C27 1_555 1_555
H12 C28 1_555 1_555
C29 C30 1_555 1_555
C30 H13 1_555 1_555
C31 C30 1_555 1_555
C32 C31 1_555 1_555
H14 C32 1_555 1_555
C33 C32 1_555 1_555
C34 C29 1_555 1_555
H15 C34 1_555 1_555
C35 C31 1_555 1_555
C36 C33 1_555 1_555
N1 C3 1_555 1_555
N2 N1 1_555 1_555
N3 C10 1_555 1_555
N4 C17 1_555 1_555
N5 N4 1_555 1_555
N6 C18 1_555 1_555
N7 N8 1_555 1_555
N8 C28 1_555 1_555
N9 C27 1_555 1_555
O1 Cu1 1_555 1_555
O2 C7 1_555 1_555
O3 Cu1 1_555 1_555
H16 O3 1_555 1_555
H17 O3 1_555 1_555
O4 Cu2 1_555 1_555
H18 O4 1_555 1_555
H19 O4 1_555 1_555
O5 Cu3 1_555 1_555
O6 C8 1_555 1_555
O7 Cu3 1_555 1_555
H20 O7 1_555 1_555
O8 C26 1_555 1_555
O9 Cu4 1_555 1_555
H21 O9 1_555 1_555
O10 C26 1_555 1_555
O11 C25 1_555 1_555
O12 C25 1_555 1_555
O13 C36 1_555 1_555
O14 C36 1_555 1_555
O15 C35 1_555 1_555
O16 C35 1_555 1_555
H20I O7 1_555 1_555
H21I O9 1_555 1_555
Cu1A Cu2A 1_555 1_555
Cu2A O2A 1_555 1_555
C1A C2A 1_555 1_555
C2A H1A 1_555 1_555
C3A C2A 1_555 1_555
C4A C3A 1_555 1_555
H2A C4A 1_555 1_555
C5A C4A 1_555 1_555
C6A C1A 1_555 1_555
H3A C6A 1_555 1_555
C7A C5A 1_555 1_555
C8A C1A 1_555 1_555
C9A H4A 1_555 1_555
C10A C9A 1_555 1_555
C11A C10A 1_555 1_555
C12A C11A 1_555 1_555
H5A C12A 1_555 1_555
C13A C12A 1_555 1_555
C14A C13A 1_555 1_555
H6A C14A 1_555 1_555
C15A C14A 1_555 1_555
C16A C11A 1_555 1_555
H7A C16A 1_555 1_555
C17A C13A 1_555 1_555
C18A C17A 1_555 1_555
H8A C18A 1_555 1_555
C19A C20A 1_555 1_555
C20A H9A 1_555 1_555
C21A C20A 1_555 1_555
C22A C21A 1_555 1_555
H10A C22A 1_555 1_555
C23A C22A 1_555 1_555
C24A C19A 1_555 1_555
H11A C24A 1_555 1_555
C25A C21A 1_555 1_555
C26A C23A 1_555 1_555
C27A C15A 1_555 1_555
C28A C27A 1_555 1_555
H12A C28A 1_555 1_555
C29A C30A 1_555 1_555
C30A H13A 1_555 1_555
C31A C30A 1_555 1_555
C32A C31A 1_555 1_555
H14A C32A 1_555 1_555
C33A C32A 1_555 1_555
C34A C29A 1_555 1_555
H15A C34A 1_555 1_555
C35A C31A 1_555 1_555
C36A C33A 1_555 1_555
N1A C3A 1_555 1_555
N2A N1A 1_555 1_555
N3A C10A 1_555 1_555
N4A C17A 1_555 1_555
N5A N4A 1_555 1_555
N6A C18A 1_555 1_555
N7A N8A 1_555 1_555
N8A C28A 1_555 1_555
N9A C27A 1_555 1_555
O1A Cu1A 1_555 1_555
O2A C7A 1_555 1_555
O3A Cu1A 1_555 1_555
H16A O3A 1_555 1_555
H17A O3A 1_555 1_555
O4A Cu2A 1_555 1_555
H18A O4A 1_555 1_555
H19A O4A 1_555 1_555
O5A C8A 1_555 1_555
O6A C8A 1_555 1_555
O8A Cu4 1_555 1_555
O10A Cu3 1_555 1_555
O11A C25A 1_555 1_555
O12A C25A 1_555 1_555
O13A C36A 1_555 1_555
O14A C36A 1_555 1_555
O15A C35A 1_555 1_555
O16A C35A 1_555 1_555
Cu1B O11A 1_555 1_555
Cu1C O11 1_555 1_555
Cu1L O16 1_555 1_555
Cu1M O16A 1_555 1_555
Cu1N O14A 1_555 1_555
Cu1O O14 1_555 1_555
Cu2B O12A 1_555 1_555
Cu2C O12 1_555 1_555
Cu2L O15 1_555 1_555
Cu2M O15A 1_555 1_555
Cu2N O13A 1_555 1_555
Cu2O O13 1_555 1_555
Cu3A O10 1_555 1_555
Cu4A O8 1_555 1_555
O5I Cu3 1_555 1_555
O6I Cu4 1_555 1_555
O8H Cu4 1_555 1_555
O10H Cu3 1_555 1_555
O11B Cu1 1_555 1_555
O11C Cu1A 1_555 1_555
O12B Cu2 1_555 1_555
O12C Cu2A 1_555 1_555
O13N Cu2 1_555 1_555
O13O Cu2A 1_555 1_555
O14N Cu1 1_555 1_555
O14O Cu1A 1_555 1_555
O15L Cu2 1_555 1_555
O15M Cu2A 1_555 1_555
O16L Cu1 1_555 1_555
O16M Cu1A 1_555 1_555
C5 C6 1_555 1_555
C7 O1 1_555 1_555
C8 O5 1_555 1_555
C9 N1 1_555 1_555
C15 C16 1_555 1_555
C19 N6 1_555 1_555
C23 C24 1_555 1_555
C29 N8 1_555 1_555
C33 C34 1_555 1_555
N2 N3 1_555 1_555
N5 N6 1_555 1_555
N7 N9 1_555 1_555
C5A C6A 1_555 1_555
C7A O1A 1_555 1_555
C9A N1A 1_555 1_555
C15A C16A 1_555 1_555
C19A N6A 1_555 1_555
C23A C24A 1_555 1_555
C26A O8A 1_555 1_555
C26A O10A 1_555 1_555
C29A N8A 1_555 1_555
C33A C34A 1_555 1_555
N2A N3A 1_555 1_555
N5A N6A 1_555 1_555
N7A N9A 1_555 1_555
O5A Cu3A 1_555 1_555
O6A Cu4A 1_555 1_555
Cu1B Cu2B 1_555 1_555
Cu1C Cu2C 1_555 1_555
Cu1L Cu2L 1_555 1_555
Cu1M Cu2M 1_555 1_555
Cu1N Cu2N 1_555 1_555
Cu1O Cu2O 1_555 1_555
Cu3A Cu4A 1_555 1_555

#END
