
#######################################################################
#
#                 Cambridge Crystallographic Data Centre
#                                CCDC 
#
#######################################################################
#
# If this CIF has been generated from an entry in the Cambridge 
# Structural Database, then it will include bibliographic, chemical, 
# crystal, experimental, refinement or atomic coordinate data resulting 
# from the CCDC's data processing and validation procedures.
#
#######################################################################

data_REWQIU
_symmetry_cell_setting           monoclinic
_symmetry_space_group_name_H-M   'C 2/c'
_symmetry_Int_Tables_number      15
_space_group_name_Hall           '-C 2yn'
loop_
_symmetry_equiv_pos_site_id
_symmetry_equiv_pos_as_xyz
1 x,y,z
2 1/2+x,1/2+y,z
3 -x,y,1/2-z
4 1/2-x,1/2+y,1/2-z
5 -x,-y,-z
6 1/2-x,1/2-y,-z
7 x,-y,1/2+z
8 1/2+x,1/2-y,1/2+z
_cell_length_a                   29.299(6)
_cell_length_b                   10.364(2)
_cell_length_c                   8.2204(17)
_cell_angle_alpha                90
_cell_angle_beta                 92.038(4)
_cell_angle_gamma                90
_cell_volume                     2494.59
loop_
_atom_site_label
_atom_site_type_symbol
_atom_site_fract_x
_atom_site_fract_y
_atom_site_fract_z
Mn1 Mn 1.0000 0.0000 0.0000
O1 O 0.94917(6) 0.13567(16) 0.07386(18)
O2 O 0.92855(6) 0.22712(18) -0.16062(19)
O3 O 1.0000 -0.09473(19) 0.2500
H1 H 1.0237 -0.1397 0.2331
O4 O 1.05298(7) 0.1232(2) 0.0979(2)
H2 H 1.0764 0.1596 0.0558
H3 H 1.0520 0.1277 0.2005
C1 C 0.92390(8) 0.2087(2) -0.0126(3)
C2 C 0.88569(8) 0.2762(2) 0.0718(3)
C3 C 0.89496(9) 0.3924(3) 0.1520(3)
C4 C 0.94134(11) 0.4537(4) 0.1511(5)
H4 H 0.9638 0.3938 0.1933
H5 H 0.9416 0.5297 0.2178
H6 H 0.9483 0.4768 0.0417
C5 C 0.85972(11) 0.4508(3) 0.2357(3)
H7 H 0.8654 0.5281 0.2902
C6 C 0.81677(11) 0.3965(3) 0.2393(4)
C7 C 0.77877(13) 0.4622(4) 0.3318(5)
H8 H 0.7540 0.4836 0.2572
H9 H 0.7904 0.5395 0.3824
H10 H 0.7681 0.4047 0.4137
C8 C 0.80877(10) 0.2829(3) 0.1581(4)
H11 H 0.7798 0.2464 0.1599
C9 C 0.84262(9) 0.2200(3) 0.0726(3)
C10 C 0.83252(12) 0.0945(3) -0.0149(5)
H12 H 0.8373 0.1052 -0.1291
H13 H 0.8014 0.0702 0.0007
H14 H 0.8525 0.0283 0.0280
Mn1F Mn 1.0000 0.0000 0.5000
O1D O 1.05083(6) -0.13567(16) -0.07386(18)
O2D O 1.07145(6) -0.22712(18) 0.16062(19)
O3F O 1.0000 0.09473(19) -0.2500
H1B H 0.9763 -0.1397 0.2669
H1F H 1.0237 0.1397 -0.2669
H1D H 0.9763 0.1397 -0.2331
O4D O 0.94702(7) -0.1232(2) -0.0979(2)
H2D H 0.9236 -0.1596 -0.0558
H3D H 0.9480 -0.1277 -0.2005
C1D C 1.07610(8) -0.2087(2) 0.0126(3)
C2D C 1.11431(8) -0.2762(2) -0.0718(3)
C3D C 1.10504(9) -0.3924(3) -0.1520(3)
C4D C 1.05866(11) -0.4537(4) -0.1511(5)
H4D H 1.0362 -0.3938 -0.1933
H5D H 1.0584 -0.5297 -0.2178
H6D H 1.0517 -0.4768 -0.0417
C5D C 1.14028(11) -0.4508(3) -0.2357(3)
H7D H 1.1346 -0.5281 -0.2902
C6D C 1.18323(11) -0.3965(3) -0.2393(4)
C7D C 1.22123(13) -0.4622(4) -0.3318(5)
H8D H 1.2460 -0.4836 -0.2572
H9D H 1.2096 -0.5395 -0.3824
H10D H 1.2319 -0.4047 -0.4137
C8D C 1.19123(10) -0.2829(3) -0.1581(4)
H11D H 1.2202 -0.2464 -0.1599
C9D C 1.15738(9) -0.2200(3) -0.0726(3)
C10D C 1.16748(12) -0.0945(3) 0.0149(5)
H12D H 1.1627 -0.1052 0.1291
H13D H 1.1986 -0.0702 -0.0007
H14D H 1.1475 -0.0283 -0.0280
O5 O 0.12614(9) 0.2241(3) 0.9444(3)
H15 H 0.1163 0.2357 0.8460
H16 H 0.1333 0.2918 0.9981
loop_
_geom_bond_atom_site_label_1
_geom_bond_atom_site_label_2
_geom_bond_site_symmetry_1
_geom_bond_site_symmetry_2
Mn1 O1 1_555 1_555
O1 C1 1_555 1_555
O2 C1 1_555 1_555
O3 Mn1 1_555 1_555
H1 O3 1_555 1_555
O4 Mn1 1_555 1_555
H2 O4 1_555 1_555
H3 O4 1_555 1_555
C1 C2 1_555 1_555
C2 C3 1_555 1_555
C3 C4 1_555 1_555
C4 H4 1_555 1_555
H5 C4 1_555 1_555
H6 C4 1_555 1_555
C5 C3 1_555 1_555
H7 C5 1_555 1_555
C6 C5 1_555 1_555
C7 C6 1_555 1_555
H8 C7 1_555 1_555
H9 C7 1_555 1_555
H10 C7 1_555 1_555
C8 C6 1_555 1_555
H11 C8 1_555 1_555
C9 C2 1_555 1_555
C10 C9 1_555 1_555
H12 C10 1_555 1_555
H13 C10 1_555 1_555
H14 C10 1_555 1_555
O5 H15 1_555 1_555
H16 O5 1_555 1_555
Mn1F O3 1_555 1_555
O1D Mn1 1_555 1_555
O2D C1D 1_555 1_555
O3F Mn1 1_555 1_555
H1B O3 1_555 1_555
H1F O3F 1_555 1_555
H1D O3F 1_555 1_555
O4D Mn1 1_555 1_555
H2D O4D 1_555 1_555
H3D O4D 1_555 1_555
C1D O1D 1_555 1_555
C2D C1D 1_555 1_555
C3D C2D 1_555 1_555
C4D C3D 1_555 1_555
H4D C4D 1_555 1_555
H5D C4D 1_555 1_555
H6D C4D 1_555 1_555
C5D C3D 1_555 1_555
H7D C5D 1_555 1_555
C6D C5D 1_555 1_555
C7D C6D 1_555 1_555
H8D C7D 1_555 1_555
H9D C7D 1_555 1_555
H10D C7D 1_555 1_555
C8D C6D 1_555 1_555
H11D C8D 1_555 1_555
C9D C2D 1_555 1_555
C10D C9D 1_555 1_555
H12D C10D 1_555 1_555
H13D C10D 1_555 1_555
H14D C10D 1_555 1_555
C8 C9 1_555 1_555
C8D C9D 1_555 1_555

#END
