
#######################################################################
#
#                 Cambridge Crystallographic Data Centre
#                                CCDC 
#
#######################################################################
#
# If this CIF has been generated from an entry in the Cambridge 
# Structural Database, then it will include bibliographic, chemical, 
# crystal, experimental, refinement or atomic coordinate data resulting 
# from the CCDC's data processing and validation procedures.
#
#######################################################################

data_REWRAN
_symmetry_cell_setting           triclinic
_symmetry_space_group_name_H-M   'P -1'
_symmetry_Int_Tables_number      2
_space_group_name_Hall           '-P 1'
loop_
_symmetry_equiv_pos_site_id
_symmetry_equiv_pos_as_xyz
1 x,y,z
2 -x,-y,-z
_cell_length_a                   12.269(3)
_cell_length_b                   18.244(4)
_cell_length_c                   18.958(4)
_cell_angle_alpha                90.875(4)
_cell_angle_beta                 92.723(5)
_cell_angle_gamma                108.513(4)
_cell_volume                     4017.27
loop_
_atom_site_label
_atom_site_type_symbol
_atom_site_fract_x
_atom_site_fract_y
_atom_site_fract_z
Zr1 Zr 0.08654(8) -0.04075(5) 0.05477(4)
Zr2 Zr 0.18647(8) 0.49940(5) 0.24882(4)
Zr3 Zr 0.43332(8) 0.44106(5) 0.24294(4)
Zr4 Zr 0.36834(8) 0.00747(5) 0.52904(4)
O1 O 0.4477(5) -0.0683(3) 0.4761(2)
O2 O 0.3969(6) -0.0255(4) 0.6246(3)
O3 O 0.3352(6) 0.1012(4) 0.5510(3)
O4 O 0.2490(5) -0.0024(3) 0.0815(3)
O5 O 0.0921(5) 0.0497(3) -0.0213(3)
O6 O 0.0882(6) -0.1165(3) -0.0201(3)
O7 O 0.0394(6) -0.1083(3) 0.1334(3)
O8 O 0.2821(5) 0.4442(3) 0.1824(2)
O9 O 0.3354(5) 0.4882(3) 0.3120(3)
O10 O 0.5358(6) 0.4285(4) 0.3193(3)
O11 O 0.4737(5) 0.3782(3) 0.1716(3)
O12 O 0.5155(5) 0.5496(3) 0.2122(3)
O13 O 0.0926(5) 0.3957(3) 0.2798(3)
O14 O 0.0873(6) 0.5151(4) 0.1731(3)
O15 O 0.1514(6) 0.5644(3) 0.3199(3)
O16 O 0.2125(6) -0.0591(4) 0.5053(3)
O17 O 0.3353(5) 0.6047(3) 0.2139(3)
N1 N 0.2904(7) 0.3259(4) 0.2830(4)
H1 H 0.3044 0.3237 0.3309
H2 H 0.2197 0.3330 0.2766
N2 N 0.0667(6) 0.0650(4) 0.1288(3)
H3 H 0.1398 0.0992 0.1370
H4 H 0.0270 0.0900 0.1010
N3 N 0.3797(6) 0.0572(4) 0.4103(3)
H5 H 0.4299 0.1069 0.4133
H6 H 0.4131 0.0285 0.3837
N4 N 0.2044(6) 0.1101(4) 0.2593(3)
C1 C 0.2557(10) 0.4206(7) 0.1089(5)
H7 H 0.3146 0.3942 0.1016
C2 C 0.3588(10) 0.5110(6) 0.3854(5)
H8 H 0.2994 0.5367 0.3932
C3 C 0.5033(9) 0.3283(6) 0.1264(5)
H9 H 0.4328 0.2829 0.1157
C4 C 0.2803(8) 0.2507(4) 0.2521(4)
H10 H 0.3571 0.2437 0.2550
H11 H 0.2560 0.2498 0.2015
C5 C 0.1959(7) 0.1831(4) 0.2868(4)
H12 H 0.2127 0.1872 0.3386
H13 H 0.1165 0.1846 0.2774
C6 C -0.0203(9) 0.3616(6) 0.2983(5)
H14 H -0.0606 0.4013 0.2957
C7 C 0.1184(11) 0.6144(7) 0.3644(6)
H15 H 0.1863 0.6619 0.3740
C8 C 0.1180(10) -0.1737(5) -0.0549(5)
H16 H 0.0518 -0.1998 -0.0890
C9 C 0.2179(11) -0.1427(7) -0.0973(6)
H17 H 0.2040 -0.1046 -0.1294
H18 H 0.2305 -0.1849 -0.1249
H19 H 0.2861 -0.1178 -0.0661
C10 C 0.3281(11) -0.1383(6) 0.3760(5)
H20 H 0.2599 -0.1248 0.3880
H21 H 0.3041 -0.1884 0.3504
H22 H 0.3756 -0.0985 0.3462
C11 C 0.3946(11) -0.1430(5) 0.4405(5)
H23 H 0.4614 -0.1569 0.4231
C12 C 0.2759(7) 0.0593(5) 0.3704(4)
H24 H 0.2401 0.0920 0.3969
H25 H 0.2202 0.0063 0.3663
C13 C 0.2986(7) 0.0904(5) 0.2968(4)
H26 H 0.3671 0.1373 0.3005
H27 H 0.3180 0.0513 0.2676
C14 C 0.0982(7) 0.0458(5) 0.2541(4)
H28 H 0.0621 0.0405 0.3002
H29 H 0.1161 -0.0024 0.2440
C15 C 0.0134(8) 0.0551(5) 0.1975(4)
H30 H -0.0562 0.0090 0.1949
H31 H -0.0100 0.1009 0.2091
C16 C 0.1907(8) 0.1113(6) -0.0394(6)
H32 H 0.2369 0.0987 0.0007
C17 C 0.1303(11) -0.2349(5) -0.0063(5)
H33 H 0.1936 -0.2120 0.0289
H34 H 0.1467 -0.2758 -0.0337
H35 H 0.0586 -0.2569 0.0176
C18 C 0.0290(9) -0.1722(5) 0.1780(5)
H36 H -0.0070 -0.2208 0.1489
C19 C 0.1471(11) -0.1716(6) 0.2047(5)
H37 H 0.1898 -0.1809 0.1650
H38 H 0.1395 -0.2123 0.2391
H39 H 0.1886 -0.1212 0.2275
C20 C -0.0468(10) -0.1718(6) 0.2372(5)
H40 H -0.0129 -0.1247 0.2668
H41 H -0.0543 -0.2172 0.2659
H42 H -0.1230 -0.1732 0.2179
C21 C 0.3438(10) -0.2039(5) 0.4904(5)
H43 H 0.3967 -0.1981 0.5320
H44 H 0.3303 -0.2547 0.4675
H45 H 0.2705 -0.1994 0.5050
C22 C 0.5931(11) 0.2986(7) 0.1625(7)
H46 H 0.6675 0.3398 0.1659
H47 H 0.6000 0.2545 0.1349
H48 H 0.5700 0.2821 0.2100
C23 C 0.1519(13) 0.3559(6) 0.0966(5)
H49 H 0.1048 0.3503 0.1378
H50 H 0.1719 0.3086 0.0890
H51 H 0.1083 0.3648 0.0547
C24 C 0.2906(11) 0.4801(7) 0.0612(4)
H52 H 0.2539 0.5194 0.0711
H53 H 0.2680 0.4590 0.0129
H54 H 0.3745 0.5036 0.0661
C25 C 0.6321(10) 0.5812(6) 0.1951(6)
H55 H 0.6635 0.5369 0.1946
C26 C 0.6428(11) 0.6110(8) 0.1233(6)
H56 H 0.6046 0.5687 0.0891
H57 H 0.7244 0.6324 0.1137
H58 H 0.6065 0.6515 0.1193
C27 C 0.3418(10) 0.6824(5) 0.2017(5)
H59 H 0.2654 0.6878 0.2118
C28 C 0.4665(12) 0.5769(6) 0.3968(6)
H60 H 0.5329 0.5584 0.3932
H61 H 0.4690 0.6005 0.4439
H62 H 0.4690 0.6154 0.3609
C29 C 0.3279(12) 0.4504(7) 0.4333(5)
H63 H 0.2489 0.4172 0.4213
H64 H 0.3330 0.4721 0.4814
H65 H 0.3804 0.4198 0.4304
C30 C -0.0813(11) 0.2964(7) 0.2468(7)
H66 H -0.0625 0.3126 0.1986
H67 H -0.1646 0.2826 0.2512
H68 H -0.0565 0.2514 0.2571
C31 C 0.6078(12) 0.4106(8) 0.3706(6)
H69 H 0.5876 0.4286 0.4168
C32 C 0.2596(11) 0.0887(7) -0.0887(6)
H70 H 0.2266 0.0888 -0.1368
H71 H 0.2614 0.0366 -0.0785
H72 H 0.3381 0.1251 -0.0848
C33 C 0.2100(12) 0.1833(6) -0.0103(7)
H73 H 0.1525 0.2054 -0.0302
H74 H 0.2872 0.2165 -0.0209
H75 H 0.2042 0.1800 0.0410
C34 C 0.4320(10) 0.0912(6) 0.1181(5)
H76 H 0.4448 0.1167 0.0727
H77 H 0.5062 0.0942 0.1416
H78 H 0.3914 0.1172 0.1480
C35 C 0.3623(10) 0.0099(7) 0.1061(8)
H79 H 0.3470 -0.0031 0.1565
C36 C 0.2931(17) 0.1611(9) 0.5636(8)
H80 H 0.2152 0.1349 0.5403
C37 C 0.3225(14) 0.2245(7) 0.5169(7)
H81 H 0.4064 0.2452 0.5151
H82 H 0.2930 0.2651 0.5342
H83 H 0.2883 0.2066 0.4695
C38 C 0.2529(13) 0.1685(8) 0.6309(7)
H84 H 0.1809 0.1265 0.6367
H85 H 0.2390 0.2184 0.6354
H86 H 0.3107 0.1658 0.6674
C39 C 0.3725(15) -0.0436(8) 0.6933(6)
H87 H 0.4542 -0.0323 0.7114
C40 C 0.3380(12) -0.1242(7) 0.7050(6)
H88 H 0.2652 -0.1500 0.6782
H89 H 0.3277 -0.1330 0.7555
H90 H 0.3974 -0.1454 0.6895
C41 C 0.0912(11) -0.0908(9) 0.5051(8)
H91 H 0.0642 -0.0556 0.4739
C42 C 0.0471(11) -0.0802(10) 0.5726(7)
H92 H 0.1092 -0.0698 0.6095
H93 H -0.0149 -0.1272 0.5833
H94 H 0.0170 -0.0365 0.5706
C43 C 0.7269(14) 0.4535(11) 0.3629(9)
H95 H 0.7755 0.4318 0.3929
H96 H 0.7411 0.5078 0.3772
H97 H 0.7454 0.4503 0.3135
C44 C -0.0224(13) 0.3347(8) 0.3715(7)
H98 H 0.0225 0.2989 0.3760
H99 H -0.1021 0.3080 0.3828
H100 H 0.0110 0.3791 0.4042
C45 C 0.5423(13) 0.3632(9) 0.0590(6)
H101 H 0.4810 0.3792 0.0355
H102 H 0.5608 0.3253 0.0288
H103 H 0.6109 0.4085 0.0679
C46 C 0.0054(12) 0.5243(8) 0.1197(7)
H104 H 0.0355 0.5123 0.0744
C47 C 0.0251(14) 0.6380(8) 0.3315(7)
H105 H 0.0553 0.6747 0.2945
H106 H -0.0080 0.6626 0.3673
H107 H -0.0347 0.5924 0.3107
C48 C 0.3487(17) 0.0092(9) 0.7364(6)
H108 H 0.4095 0.0592 0.7344
H109 H 0.3450 -0.0085 0.7850
H110 H 0.2746 0.0149 0.7208
C49 C 0.0460(12) -0.1658(10) 0.4669(9)
H111 H 0.0933 -0.1665 0.4269
H112 H -0.0336 -0.1738 0.4496
H113 H 0.0481 -0.2071 0.4988
C50 C 0.0839(14) 0.5767(10) 0.4344(6)
H114 H 0.0193 0.5289 0.4260
H115 H 0.0608 0.6122 0.4652
H116 H 0.1494 0.5648 0.4572
C51 C -0.1030(15) 0.4685(10) 0.1214(10)
H117 H -0.1412 0.4780 0.1632
H118 H -0.0941 0.4170 0.1236
H119 H -0.1496 0.4712 0.0787
C52 C 0.0084(16) 0.5993(9) 0.1138(11)
H120 H -0.0416 0.6035 0.0733
H121 H 0.0876 0.6320 0.1070
H122 H -0.0184 0.6165 0.1570
C53 C 0.4118(12) -0.0456(7) 0.0905(7)
H123 H 0.3651 -0.0954 0.1079
H124 H 0.4895 -0.0311 0.1131
H125 H 0.4162 -0.0500 0.0392
C54 C 0.5877(17) 0.3304(8) 0.3762(9)
H126 H 0.5080 0.3052 0.3884
H127 H 0.6403 0.3214 0.4131
H128 H 0.6008 0.3087 0.3309
C55 C 0.6991(15) 0.6347(9) 0.2510(9)
H129 H 0.6889 0.6854 0.2450
H130 H 0.7807 0.6397 0.2484
H131 H 0.6726 0.6149 0.2970
C56 C 0.3617(12) 0.7002(7) 0.1260(6)
H132 H 0.3703 0.6551 0.1010
H133 H 0.4318 0.7444 0.1227
H134 H 0.2959 0.7128 0.1044
C57 C 0.4280(13) 0.7356(7) 0.2498(7)
H135 H 0.4105 0.7218 0.2987
H136 H 0.4272 0.7885 0.2426
H137 H 0.5043 0.7324 0.2406
H138 H 0.4121 0.6003 0.2083
Zr1A Zr -0.08654(8) 0.04075(5) -0.05477(4)
Zr4A Zr 0.63166(8) -0.00747(5) 0.47096(4)
O1A O 0.5523(5) 0.0683(3) 0.5239(2)
O5A O -0.0921(5) -0.0497(3) 0.0213(3)
loop_
_geom_bond_atom_site_label_1
_geom_bond_atom_site_label_2
_geom_bond_site_symmetry_1
_geom_bond_site_symmetry_2
Zr1 O4 1_555 1_555
Zr2 O8 1_555 1_555
Zr3 O8 1_555 1_555
Zr4 O1 1_555 1_555
O1 C11 1_555 1_555
O2 Zr4 1_555 1_555
O3 Zr4 1_555 1_555
O4 C35 1_555 1_555
O5 Zr1 1_555 1_555
O6 Zr1 1_555 1_555
O7 Zr1 1_555 1_555
O8 C1 1_555 1_555
O9 Zr2 1_555 1_555
O10 Zr3 1_555 1_555
O11 Zr3 1_555 1_555
O12 Zr3 1_555 1_555
O13 Zr2 1_555 1_555
O14 Zr2 1_555 1_555
O15 Zr2 1_555 1_555
O16 Zr4 1_555 1_555
O17 Zr2 1_555 1_555
N1 Zr3 1_555 1_555
H1 N1 1_555 1_555
H2 N1 1_555 1_555
N2 Zr1 1_555 1_555
H3 N2 1_555 1_555
H4 N2 1_555 1_555
N3 Zr4 1_555 1_555
H5 N3 1_555 1_555
H6 N3 1_555 1_555
N4 C5 1_555 1_555
C1 H7 1_555 1_555
C2 O9 1_555 1_555
H8 C2 1_555 1_555
C3 O11 1_555 1_555
H9 C3 1_555 1_555
C4 N1 1_555 1_555
H10 C4 1_555 1_555
H11 C4 1_555 1_555
C5 C4 1_555 1_555
H12 C5 1_555 1_555
H13 C5 1_555 1_555
C6 O13 1_555 1_555
H14 C6 1_555 1_555
C7 O15 1_555 1_555
H15 C7 1_555 1_555
C8 O6 1_555 1_555
H16 C8 1_555 1_555
C9 C8 1_555 1_555
H17 C9 1_555 1_555
H18 C9 1_555 1_555
H19 C9 1_555 1_555
C10 H20 1_555 1_555
H21 C10 1_555 1_555
H22 C10 1_555 1_555
C11 C10 1_555 1_555
H23 C11 1_555 1_555
C12 N3 1_555 1_555
H24 C12 1_555 1_555
H25 C12 1_555 1_555
C13 N4 1_555 1_555
H26 C13 1_555 1_555
H27 C13 1_555 1_555
C14 N4 1_555 1_555
H28 C14 1_555 1_555
H29 C14 1_555 1_555
C15 N2 1_555 1_555
H30 C15 1_555 1_555
H31 C15 1_555 1_555
C16 O5 1_555 1_555
H32 C16 1_555 1_555
C17 C8 1_555 1_555
H33 C17 1_555 1_555
H34 C17 1_555 1_555
H35 C17 1_555 1_555
C18 O7 1_555 1_555
H36 C18 1_555 1_555
C19 C18 1_555 1_555
H37 C19 1_555 1_555
H38 C19 1_555 1_555
H39 C19 1_555 1_555
C20 C18 1_555 1_555
H40 C20 1_555 1_555
H41 C20 1_555 1_555
H42 C20 1_555 1_555
C21 C11 1_555 1_555
H43 C21 1_555 1_555
H44 C21 1_555 1_555
H45 C21 1_555 1_555
C22 C3 1_555 1_555
H46 C22 1_555 1_555
H47 C22 1_555 1_555
H48 C22 1_555 1_555
C23 C1 1_555 1_555
H49 C23 1_555 1_555
H50 C23 1_555 1_555
H51 C23 1_555 1_555
C24 C1 1_555 1_555
H52 C24 1_555 1_555
H53 C24 1_555 1_555
H54 C24 1_555 1_555
C25 O12 1_555 1_555
H55 C25 1_555 1_555
C26 C25 1_555 1_555
H56 C26 1_555 1_555
H57 C26 1_555 1_555
H58 C26 1_555 1_555
C27 O17 1_555 1_555
H59 C27 1_555 1_555
C28 C2 1_555 1_555
H60 C28 1_555 1_555
H61 C28 1_555 1_555
H62 C28 1_555 1_555
C29 C2 1_555 1_555
H63 C29 1_555 1_555
H64 C29 1_555 1_555
H65 C29 1_555 1_555
C30 C6 1_555 1_555
H66 C30 1_555 1_555
H67 C30 1_555 1_555
H68 C30 1_555 1_555
C31 O10 1_555 1_555
H69 C31 1_555 1_555
C32 C16 1_555 1_555
H70 C32 1_555 1_555
H71 C32 1_555 1_555
H72 C32 1_555 1_555
C33 C16 1_555 1_555
H73 C33 1_555 1_555
H74 C33 1_555 1_555
H75 C33 1_555 1_555
C34 H76 1_555 1_555
H77 C34 1_555 1_555
H78 C34 1_555 1_555
C35 C34 1_555 1_555
H79 C35 1_555 1_555
C36 O3 1_555 1_555
H80 C36 1_555 1_555
C37 C36 1_555 1_555
H81 C37 1_555 1_555
H82 C37 1_555 1_555
H83 C37 1_555 1_555
C38 C36 1_555 1_555
H84 C38 1_555 1_555
H85 C38 1_555 1_555
H86 C38 1_555 1_555
C39 O2 1_555 1_555
H87 C39 1_555 1_555
C40 C39 1_555 1_555
H88 C40 1_555 1_555
H89 C40 1_555 1_555
H90 C40 1_555 1_555
C41 O16 1_555 1_555
H91 C41 1_555 1_555
C42 C41 1_555 1_555
H92 C42 1_555 1_555
H93 C42 1_555 1_555
H94 C42 1_555 1_555
C43 C31 1_555 1_555
H95 C43 1_555 1_555
H96 C43 1_555 1_555
H97 C43 1_555 1_555
C44 C6 1_555 1_555
H98 C44 1_555 1_555
H99 C44 1_555 1_555
H100 C44 1_555 1_555
C45 C3 1_555 1_555
H101 C45 1_555 1_555
H102 C45 1_555 1_555
H103 C45 1_555 1_555
C46 O14 1_555 1_555
H104 C46 1_555 1_555
C47 C7 1_555 1_555
H105 C47 1_555 1_555
H106 C47 1_555 1_555
H107 C47 1_555 1_555
C48 C39 1_555 1_555
H108 C48 1_555 1_555
H109 C48 1_555 1_555
H110 C48 1_555 1_555
C49 C41 1_555 1_555
H111 C49 1_555 1_555
H112 C49 1_555 1_555
H113 C49 1_555 1_555
C50 C7 1_555 1_555
H114 C50 1_555 1_555
H115 C50 1_555 1_555
H116 C50 1_555 1_555
C51 C46 1_555 1_555
H117 C51 1_555 1_555
H118 C51 1_555 1_555
H119 C51 1_555 1_555
C52 C46 1_555 1_555
H120 C52 1_555 1_555
H121 C52 1_555 1_555
H122 C52 1_555 1_555
C53 C35 1_555 1_555
H123 C53 1_555 1_555
H124 C53 1_555 1_555
H125 C53 1_555 1_555
C54 C31 1_555 1_555
H126 C54 1_555 1_555
H127 C54 1_555 1_555
H128 C54 1_555 1_555
C55 C25 1_555 1_555
H129 C55 1_555 1_555
H130 C55 1_555 1_555
H131 C55 1_555 1_555
C56 C27 1_555 1_555
H132 C56 1_555 1_555
H133 C56 1_555 1_555
H134 C56 1_555 1_555
C57 C27 1_555 1_555
H135 C57 1_555 1_555
H136 C57 1_555 1_555
H137 C57 1_555 1_555
H138 O17 1_555 1_555
Zr1A O5 1_555 1_555
Zr4A O1 1_555 1_555
O1A Zr4 1_555 1_555
O5A Zr1 1_555 1_555
Zr3 O9 1_555 1_555
C12 C13 1_555 1_555
C14 C15 1_555 1_555
Zr1A O5A 1_555 1_555
Zr4A O1A 1_555 1_555

#END
