
#######################################################################
#
#                 Cambridge Crystallographic Data Centre
#                                CCDC 
#
#######################################################################
#
# If this CIF has been generated from an entry in the Cambridge 
# Structural Database, then it will include bibliographic, chemical, 
# crystal, experimental, refinement or atomic coordinate data resulting 
# from the CCDC's data processing and validation procedures.
#
#######################################################################

data_REWYOJ
_symmetry_cell_setting           monoclinic
_symmetry_space_group_name_H-M   'C 2/c'
_symmetry_Int_Tables_number      15
_space_group_name_Hall           '-C 2yn'
loop_
_symmetry_equiv_pos_site_id
_symmetry_equiv_pos_as_xyz
1 x,y,z
2 -x,y,1/2-z
3 1/2+x,1/2+y,z
4 1/2-x,1/2+y,1/2-z
5 -x,-y,-z
6 x,-y,1/2+z
7 1/2-x,1/2-y,-z
8 1/2+x,1/2-y,1/2+z
_cell_length_a                   21.2054(18)
_cell_length_b                   7.7717(5)
_cell_length_c                   16.7002(13)
_cell_angle_alpha                90
_cell_angle_beta                 109.771(9)
_cell_angle_gamma                90
_cell_volume                     2589.99
loop_
_atom_site_label
_atom_site_type_symbol
_atom_site_fract_x
_atom_site_fract_y
_atom_site_fract_z
C1 C 0.3123(2) 0.8388(5) 0.4487(2)
H1 H 0.2895 0.8997 0.4808
H2 H 0.3586 0.8242 0.4829
H3 H 0.2919 0.7280 0.4327
C2 C 0.12734(16) 0.4441(4) 0.32330(19)
H4 H 0.1294 0.3246 0.3264
C3 C 0.02883(17) 0.4407(5) 0.3718(2)
H5 H 0.0286 0.3211 0.3736
C4 C 0.12672(15) 0.7847(4) 0.31759(18)
H6 H 0.1281 0.9043 0.3164
C5 C 0.07722(14) 0.7077(4) 0.34477(17)
C6 C 0.07700(15) 0.5273(4) 0.34666(18)
C7 C -0.01755(17) 0.5326(5) 0.3934(2)
H7 H -0.0501 0.4751 0.4089
C8 C -0.01686(17) 0.7117(5) 0.3927(2)
H8 H -0.0486 0.7724 0.4085
C9 C 0.02992(17) 0.7994(5) 0.3691(2)
H9 H 0.0303 0.9190 0.3691
N1 N 0.17127(12) 0.5237(3) 0.29761(15)
N2 N 0.13168(15) 1.1196(3) 0.1872(2)
N3 N 0.17096(12) 0.7007(3) 0.29388(15)
N4 N 0.17531(17) 0.8427(4) 0.03667(19)
N5 N 0.18450(14) 0.7773(4) 0.10278(17)
N6 N 0.1644(3) 0.9025(5) -0.0293(3)
N7 N 0.18890(13) 1.1121(3) 0.23433(17)
N8 N 0.07715(18) 1.1259(4) 0.1432(3)
O1 O 0.30794(12) 0.9322(3) 0.37586(13)
H10 H 0.3098 1.0476 0.3847
Cd1 Cd 0.245461(10) 0.85732(3) 0.236812(13)
N1C N 0.32873(12) 1.0237(3) 0.20239(15)
N7C N 0.31110(13) 0.6121(3) 0.26567(17)
Cd1C Cd 0.254539(10) 0.35732(3) 0.263188(13)
Cd1C_2 Cd 0.254539(10) 1.35732(3) 0.263188(13)
loop_
_geom_bond_atom_site_label_1
_geom_bond_atom_site_label_2
_geom_bond_site_symmetry_1
_geom_bond_site_symmetry_2
C1 H1 1_555 1_555
H2 C1 1_555 1_555
H3 C1 1_555 1_555
C2 H4 1_555 1_555
C3 H5 1_555 1_555
C4 H6 1_555 1_555
C5 C4 1_555 1_555
C6 C2 1_555 1_555
C7 C3 1_555 1_555
H7 C7 1_555 1_555
C8 C7 1_555 1_555
H8 C8 1_555 1_555
C9 C5 1_555 1_555
H9 C9 1_555 1_555
N1 C2 1_555 1_555
N2 N7 1_555 1_555
N3 C4 1_555 1_555
N4 N5 1_555 1_555
N5 Cd1 1_555 1_555
N6 N4 1_555 1_555
N7 Cd1 1_555 1_555
N8 N2 1_555 1_555
O1 C1 1_555 1_555
H10 O1 1_555 1_555
Cd1 N3 1_555 1_555
N1C Cd1 1_555 1_555
N7C Cd1 1_555 1_555
Cd1C N1 1_555 1_555
Cd1C_2 N7 1_555 1_555
C3 C6 1_555 1_555
C5 C6 1_555 1_555
C8 C9 1_555 1_555
N1 N3 1_555 1_555
O1 Cd1 1_555 1_555
N7C Cd1C 1_555 1_555

#END
