
#######################################################################
#
#                 Cambridge Crystallographic Data Centre
#                                CCDC 
#
#######################################################################
#
# If this CIF has been generated from an entry in the Cambridge 
# Structural Database, then it will include bibliographic, chemical, 
# crystal, experimental, refinement or atomic coordinate data resulting 
# from the CCDC's data processing and validation procedures.
#
#######################################################################

data_REWYUP
_symmetry_cell_setting           triclinic
_symmetry_space_group_name_H-M   'P -1'
_symmetry_Int_Tables_number      2
_space_group_name_Hall           '-P 1'
loop_
_symmetry_equiv_pos_site_id
_symmetry_equiv_pos_as_xyz
1 x,y,z
2 -x,-y,-z
_cell_length_a                   7.6231(14)
_cell_length_b                   10.847(3)
_cell_length_c                   13.124(3)
_cell_angle_alpha                103.52(4)
_cell_angle_beta                 90.48(3)
_cell_angle_gamma                110.24(3)
_cell_volume                     985.22
loop_
_atom_site_label
_atom_site_type_symbol
_atom_site_fract_x
_atom_site_fract_y
_atom_site_fract_z
C11 C 0.5522(16) 1.2332(11) 0.3755(8)
H7 H 0.4881 1.1579 0.3208
C12 C 0.5937(19) 1.3545(13) 0.3632(10)
H8 H 0.5519 1.3624 0.2991
C13 C 0.6983(18) 1.4776(12) 0.4393(9)
C14 C 0.735(2) 1.6063(13) 0.4266(10)
H9 H 0.6935 1.6182 0.3640
C15 C 0.836(2) 1.7208(15) 0.5095(11)
H10 H 0.8619 1.8082 0.5017
C16 C 0.896(2) 1.7009(13) 0.6023(12)
H11 H 0.9661 1.7758 0.6559
C17 C 0.856(2) 1.5743(13) 0.6168(11)
H12 H 0.8929 1.5632 0.6807
C18 C 0.7564(17) 1.4597(12) 0.5345(9)
C19 C 0.1021(18) 0.9356(11) 0.3499(10)
C20 C -0.2028(17) 0.9234(12) 0.3326(8)
N6 N 0.6028(15) 1.2173(11) 0.4684(9)
N7 N 0.7007(17) 1.3225(11) 0.5467(9)
N8 N -0.3438(19) 0.9113(12) 0.3530(9)
N9 N 0.2348(14) 0.9375(10) 0.3911(7)
N10 N -0.0413(17) 0.9341(14) 0.2928(9)
Cd2 Cd 0.5000 1.0000 0.5000
C19A C -0.1021(18) 1.0644(11) 0.6501(10)
C20A C 0.2028(17) 1.0766(12) 0.6674(8)
N8A N 0.3438(19) 1.0887(12) 0.6470(9)
N9A N -0.2348(14) 1.0625(10) 0.6089(7)
N10A N 0.0413(17) 1.0659(14) 0.7072(9)
C11A C 0.4478(16) 0.7668(11) 0.6245(8)
H7A H 0.5119 0.8421 0.6792
C12A C 0.4063(19) 0.6455(13) 0.6368(10)
H8A H 0.4481 0.6376 0.7009
C13A C 0.3017(18) 0.5224(12) 0.5607(9)
C14A C 0.265(2) 0.3937(13) 0.5734(10)
H9A H 0.3065 0.3818 0.6360
C15A C 0.164(2) 0.2792(15) 0.4905(11)
H10A H 0.1381 0.1918 0.4983
C16A C 0.104(2) 0.2991(13) 0.3977(12)
H11A H 0.0339 0.2242 0.3441
C17A C 0.144(2) 0.4257(13) 0.3832(11)
H12A H 0.1071 0.4368 0.3193
C18A C 0.2436(17) 0.5403(12) 0.4655(9)
N6A N 0.3972(15) 0.7827(11) 0.5316(9)
N7A N 0.2993(17) 0.6775(11) 0.4533(9)
N8_2 N 0.6562(19) 0.9113(12) 0.3530(9)
N9A_2 N 0.7652(14) 1.0625(10) 0.6089(7)
Cd2_2 Cd -0.5000 1.0000 0.5000
C1 C 0.3775(18) 0.1710(13) -0.0600(11)
H1 H 0.4261 0.1888 -0.1219
C2 C 0.3014(16) 0.0353(12) -0.0546(9)
C3 C 0.2923(19) -0.0727(13) -0.1358(10)
H2 H 0.3389 -0.0584 -0.1990
C4 C 0.215(2) -0.2004(13) -0.1237(10)
H3 H 0.2127 -0.2738 -0.1780
C5 C 0.138(2) -0.2231(14) -0.0281(12)
C6 C 0.154(2) -0.1211(14) 0.0528(11)
H4 H 0.1118 -0.1365 0.1166
C7 C 0.2359(19) 0.0145(13) 0.0406(9)
C8 C 0.256(2) 0.1315(13) 0.1218(10)
H5 H 0.2164 0.1183 0.1865
C9 C 0.8839(19) 0.5845(12) 0.1670(8)
C10 C 1.1789(19) 0.5822(13) 0.1519(11)
N1 N 0.3841(15) 0.2756(9) 0.0185(7)
N2 N 0.3266(17) 0.2567(11) 0.1136(8)
N3 N 0.7378(19) 0.5660(14) 0.1450(9)
N4 N 1.0514(17) 0.6090(16) 0.2104(9)
N5 N 1.3059(15) 0.5630(10) 0.1137(7)
Cd1 Cd 0.5000 0.5000 0.0000
H6 H 0.0761 -0.3116 -0.0230
C1A C 0.6225(18) 0.8290(13) 0.0600(11)
H1A H 0.5739 0.8112 0.1219
C2A C 0.6986(16) 0.9647(12) 0.0546(9)
C3A C 0.7077(19) 1.0727(13) 0.1358(10)
H2A H 0.6611 1.0584 0.1990
C4A C 0.785(2) 1.2004(13) 0.1237(10)
H3A H 0.7873 1.2738 0.1780
C5A C 0.862(2) 1.2231(14) 0.0281(12)
C6A C 0.846(2) 1.1211(14) -0.0528(11)
H4A H 0.8882 1.1365 -0.1166
C7A C 0.7641(19) 0.9855(13) -0.0406(9)
C8A C 0.744(2) 0.8685(13) -0.1218(10)
H5A H 0.7836 0.8817 -0.1865
C9A C 0.1161(19) 0.4155(12) -0.1670(8)
C10A C -0.1789(19) 0.4178(13) -0.1519(11)
N1A N 0.6159(15) 0.7244(9) -0.0185(7)
N2A N 0.6734(17) 0.7433(11) -0.1136(8)
N3A N 0.2622(19) 0.4340(14) -0.1450(9)
N4A N -0.0514(17) 0.3910(16) -0.2104(9)
N5A N -0.3059(15) 0.4370(10) -0.1137(7)
H6A H 0.9239 1.3116 0.0230
N5_2 N 0.3059(15) 0.5630(10) 0.1137(7)
N5A_2 N 0.6941(15) 0.4370(10) -0.1137(7)
Cd1_2 Cd -0.5000 0.5000 0.0000
Cd1_3 Cd 1.5000 0.5000 0.0000
loop_
_geom_bond_atom_site_label_1
_geom_bond_atom_site_label_2
_geom_bond_site_symmetry_1
_geom_bond_site_symmetry_2
C1 H1 1_555 1_555
C2 C1 1_555 1_555
C3 C2 1_555 1_555
H2 C3 1_555 1_555
C4 C3 1_555 1_555
H3 C4 1_555 1_555
C5 C4 1_555 1_555
C6 C5 1_555 1_555
H4 C6 1_555 1_555
C7 C2 1_555 1_555
C8 C7 1_555 1_555
H5 C8 1_555 1_555
C9 N3 1_555 1_555
C10 N4 1_555 1_555
N1 C1 1_555 1_555
N2 C8 1_555 1_555
N3 Cd1 1_555 1_555
N4 C9 1_555 1_555
N5 C10 1_555 1_555
Cd1 N1 1_555 1_555
H6 C5 1_555 1_555
C11 H7 1_555 1_555
C12 C11 1_555 1_555
H8 C12 1_555 1_555
C13 C12 1_555 1_555
C14 C13 1_555 1_555
H9 C14 1_555 1_555
C15 C14 1_555 1_555
H10 C15 1_555 1_555
C16 C15 1_555 1_555
H11 C16 1_555 1_555
C17 C16 1_555 1_555
H12 C17 1_555 1_555
C18 C13 1_555 1_555
C19 N9 1_555 1_555
C20 N8 1_555 1_555
N6 C11 1_555 1_555
N7 C18 1_555 1_555
N8 Cd2_2 1_555 1_555
N9 Cd2 1_555 1_555
N10 C19 1_555 1_555
Cd2 N6 1_555 1_555
C1A H1A 1_555 1_555
C2A C1A 1_555 1_555
C3A C2A 1_555 1_555
H2A C3A 1_555 1_555
C4A C3A 1_555 1_555
H3A C4A 1_555 1_555
C5A C4A 1_555 1_555
C6A C5A 1_555 1_555
H4A C6A 1_555 1_555
C7A C2A 1_555 1_555
C8A C7A 1_555 1_555
H5A C8A 1_555 1_555
C9A N3A 1_555 1_555
C10A N4A 1_555 1_555
N1A Cd1 1_555 1_555
N2A C8A 1_555 1_555
N3A Cd1 1_555 1_555
N4A C9A 1_555 1_555
N5A C10A 1_555 1_555
H6A C5A 1_555 1_555
N5_2 Cd1 1_555 1_555
N5A_2 Cd1 1_555 1_555
Cd1_2 N5A 1_555 1_555
Cd1_3 N5 1_555 1_555
C19A N9A 1_555 1_555
C20A N8A 1_555 1_555
N8A Cd2 1_555 1_555
N9A Cd2_2 1_555 1_555
N10A C19A 1_555 1_555
C11A H7A 1_555 1_555
C12A C11A 1_555 1_555
H8A C12A 1_555 1_555
C13A C12A 1_555 1_555
C14A C13A 1_555 1_555
H9A C14A 1_555 1_555
C15A C14A 1_555 1_555
H10A C15A 1_555 1_555
C16A C15A 1_555 1_555
H11A C16A 1_555 1_555
C17A C16A 1_555 1_555
H12A C17A 1_555 1_555
C18A C13A 1_555 1_555
N6A Cd2 1_555 1_555
N7A C18A 1_555 1_555
N8_2 Cd2 1_555 1_555
N9A_2 Cd2 1_555 1_555
C6 C7 1_555 1_555
N1 N2 1_555 1_555
C17 C18 1_555 1_555
C20 N10 1_555 1_555
N6 N7 1_555 1_555
C1A N1A 1_555 1_555
C6A C7A 1_555 1_555
N1A N2A 1_555 1_555
C20A N10A 1_555 1_555
C11A N6A 1_555 1_555
C17A C18A 1_555 1_555
N6A N7A 1_555 1_555

#END
