
#######################################################################
#
#                 Cambridge Crystallographic Data Centre
#                                CCDC 
#
#######################################################################
#
# If this CIF has been generated from an entry in the Cambridge 
# Structural Database, then it will include bibliographic, chemical, 
# crystal, experimental, refinement or atomic coordinate data resulting 
# from the CCDC's data processing and validation procedures.
#
#######################################################################

data_REWZUQ
_symmetry_cell_setting           rhombohedral
_symmetry_space_group_name_H-M   'R -3'
_symmetry_Int_Tables_number      148
_space_group_name_Hall           '-R 3'
loop_
_symmetry_equiv_pos_site_id
_symmetry_equiv_pos_as_xyz
1 x,y,z
2 -y,x-y,z
3 -x+y,-x,z
4 2/3+x,1/3+y,1/3+z
5 2/3-y,1/3+x-y,1/3+z
6 2/3-x+y,1/3-x,1/3+z
7 1/3+x,2/3+y,2/3+z
8 1/3-y,2/3+x-y,2/3+z
9 1/3-x+y,2/3-x,2/3+z
10 -x,-y,-z
11 y,-x+y,-z
12 x-y,x,-z
13 1/3-x,2/3-y,2/3-z
14 1/3+y,2/3-x+y,2/3-z
15 1/3+x-y,2/3+x,2/3-z
16 2/3-x,1/3-y,1/3-z
17 2/3+y,1/3-x+y,1/3-z
18 2/3+x-y,1/3+x,1/3-z
_cell_length_a                   12.4291(5)
_cell_length_b                   12.4291(5)
_cell_length_c                   10.6013(4)
_cell_angle_alpha                90
_cell_angle_beta                 90
_cell_angle_gamma                120
_cell_volume                     1418.3
loop_
_atom_site_label
_atom_site_type_symbol
_atom_site_fract_x
_atom_site_fract_y
_atom_site_fract_z
F1 F 0.50207(12) 0.12476(11) 0.42115(10)
F2 F 0.65794(10) 0.11369(11) 0.50299(11)
O1 O 0.57345(12) 0.11299(13) 0.73446(12)
O2 O 0.41486(12) 0.12404(12) 0.64858(12)
C1 C 0.50499(18) 0.10583(17) 0.64420(18)
Li1 Li 0.7474(3) 0.1589(3) 0.7606(3)
C2 C 0.53369(18) 0.06998(18) 0.51316(17)
F1I F 0.49793(12) -0.12476(11) 0.57885(10)
F2I F 0.34206(10) -0.11369(11) 0.49701(11)
O1I O 0.42655(12) -0.11299(13) 0.26554(12)
O2I O 0.58514(12) -0.12404(12) 0.35142(12)
C1I C 0.49501(18) -0.10583(17) 0.35580(18)
C2I C 0.46631(18) -0.06998(18) 0.48684(17)
Li1M Li 0.4922(3) 0.0782(4) 0.9061(3)
O1M O 0.44632(13) 0.20621(18) 0.93221(12)
O1N O 0.79379(18) 0.24012(12) 0.93221(12)
O2A O 0.87596(12) 0.29082(17) 0.64858(12)
O2E O 0.37585(17) -0.08153(12) 0.98191(12)
O2P O 0.79071(12) 0.04251(17) 0.68475(12)
O2N O 0.62415(17) 0.08153(12) 1.01809(12)
Li1B Li 0.4115(4) 0.2526(3) 0.7606(3)
Li1D Li 0.5078(3) -0.0782(4) 0.0939(3)
Li1H Li 0.7448(4) -0.0807(3) 0.4273(3)
Li1I Li 0.2526(3) -0.1589(3) 0.2394(3)
Li1K Li 0.5885(4) -0.2526(3) 0.2394(3)
Li1Q Li 0.2552(4) 0.0807(3) 0.5727(3)
loop_
_geom_bond_atom_site_label_1
_geom_bond_atom_site_label_2
_geom_bond_site_symmetry_1
_geom_bond_site_symmetry_2
F1 C2 1_555 1_555
F2 C2 1_555 1_555
O1 C1 1_555 1_555
O2 C1 1_555 1_555
C1 C2 1_555 1_555
Li1 O1 1_555 1_555
C2 C2I 1_555 1_555
F1I C2I 1_555 1_555
F2I C2I 1_555 1_555
O1I C1I 1_555 1_555
O2I C1I 1_555 1_555
C1I C2I 1_555 1_555
Li1M O1 1_555 1_555
O1M Li1M 1_555 1_555
O1N Li1 1_555 1_555
O2A Li1 1_555 1_555
O2E Li1M 1_555 1_555
O2P Li1 1_555 1_555
O2N Li1M 1_555 1_555
Li1B O2 1_555 1_555
Li1D O1I 1_555 1_555
Li1H O2I 1_555 1_555
Li1I O1I 1_555 1_555
Li1K O2I 1_555 1_555
Li1Q O2 1_555 1_555
O1M Li1B 1_555 1_555

#END
