
#######################################################################
#
#                 Cambridge Crystallographic Data Centre
#                                CCDC 
#
#######################################################################
#
# If this CIF has been generated from an entry in the Cambridge 
# Structural Database, then it will include bibliographic, chemical, 
# crystal, experimental, refinement or atomic coordinate data resulting 
# from the CCDC's data processing and validation procedures.
#
#######################################################################

data_REWZOJ
_symmetry_cell_setting           monoclinic
_symmetry_space_group_name_H-M   'P 21/n'
_symmetry_Int_Tables_number      14
_space_group_name_Hall           '-P 2yn'
loop_
_symmetry_equiv_pos_site_id
_symmetry_equiv_pos_as_xyz
1 x,y,z
2 1/2-x,1/2+y,1/2-z
3 -x,-y,-z
4 1/2+x,1/2-y,1/2+z
_cell_length_a                   8.2949(5)
_cell_length_b                   20.1677(13)
_cell_length_c                   17.0993(11)
_cell_angle_alpha                90
_cell_angle_beta                 100.0880(10)
_cell_angle_gamma                90
_cell_volume                     2816.3
loop_
_atom_site_label
_atom_site_type_symbol
_atom_site_fract_x
_atom_site_fract_y
_atom_site_fract_z
Hg1 Hg 0.19852(3) 0.916062(11) 0.497294(14)
Hg2 Hg 0.16155(3) 0.748079(11) 0.575038(13)
Hg3 Hg -0.10632(3) 0.800865(10) 0.401398(13)
F1 F 0.4062(4) 0.74133(18) 0.7353(2)
F2 F 0.6335(5) 0.8258(2) 0.8118(2)
F3 F 0.6770(5) 0.9465(2) 0.7491(2)
F4 F 0.4893(5) 0.98434(18) 0.6109(2)
F5 F -0.3405(4) 0.68256(17) 0.3420(2)
F6 F -0.3650(4) 0.55721(17) 0.3965(2)
F7 F -0.1544(5) 0.51394(17) 0.5242(2)
F8 F 0.0821(4) 0.59515(18) 0.6004(2)
F9 F 0.1364(5) 1.05283(17) 0.4012(2)
F10 F -0.0937(5) 1.08940(16) 0.2781(2)
F11 F -0.3319(4) 1.00375(17) 0.2140(2)
F12 F -0.3288(4) 0.87755(17) 0.2681(2)
C1 C 0.3458(7) 0.8818(3) 0.5997(3)
C2 C 0.3245(7) 0.8186(3) 0.6321(4)
C3 C 0.4218(7) 0.8024(3) 0.7029(4)
C4 C 0.5384(7) 0.8444(3) 0.7436(4)
C5 C 0.5622(8) 0.9052(3) 0.7116(4)
C6 C 0.4650(8) 0.9233(3) 0.6408(4)
C7 C -0.0056(7) 0.6827(3) 0.5107(3)
C8 C -0.1135(7) 0.7048(3) 0.4427(4)
C9 C -0.2295(7) 0.6616(3) 0.4059(3)
C10 C -0.2455(7) 0.5973(3) 0.4314(4)
C11 C -0.1375(8) 0.5757(3) 0.4975(4)
C12 C -0.0199(7) 0.6185(3) 0.5353(4)
C13 C -0.0922(7) 0.8981(3) 0.3643(3)
C14 C 0.0281(7) 0.9433(3) 0.3987(3)
C15 C 0.0238(7) 1.0069(3) 0.3684(4)
C16 C -0.0951(8) 1.0272(3) 0.3063(3)
C17 C -0.2139(7) 0.9837(3) 0.2727(3)
C18 C -0.2112(7) 0.9194(3) 0.3015(4)
O1 O 0.3009(6) 0.7889(2) 0.4204(3)
O2 O 0.5444(7) 0.8281(3) 0.4307(4)
N1 N 0.4478(7) 0.7885(3) 0.4461(3)
C19 C 0.5007(9) 0.7286(4) 0.5010(5)
C20 C 0.4113(8) 0.6690(4) 0.4870(5)
H1 H 0.3264 0.6667 0.4419
C21 C 0.4405(7) 0.6135(4) 0.5353(4)
H2 H 0.3783 0.5740 0.5246
C22 C 0.5656(9) 0.6192(4) 0.6002(5)
C23 C 0.6209(10) 0.5719(4) 0.6618(5)
H3 H 0.6618 0.5312 0.6395
H4 H 0.5315 0.5599 0.6906
C24 C 0.7686(9) 0.6103(4) 0.7202(5)
H5 H 0.7443 0.6143 0.7747
H6 H 0.8741 0.5867 0.7225
C25 C 0.7728(9) 0.6753(4) 0.6830(5)
C26 C 0.8669(9) 0.7258(4) 0.7075(5)
H7 H 0.9475 0.7240 0.7544
C27 C 0.8386(10) 0.7880(4) 0.6556(6)
H8 H 0.9052 0.8255 0.6723
C28 C 0.7300(8) 0.7941(4) 0.5899(5)
H9 H 0.7181 0.8344 0.5608
C29 C 0.6283(9) 0.7362(4) 0.5636(5)
C30 C 0.6520(7) 0.6818(3) 0.6129(4)
Hg3_2 Hg 0.89368(3) 0.800865(10) 0.401398(13)
O2_2 O -0.4556(7) 0.8281(3) 0.4307(4)
loop_
_geom_bond_atom_site_label_1
_geom_bond_atom_site_label_2
_geom_bond_site_symmetry_1
_geom_bond_site_symmetry_2
Hg1 C1 1_555 1_555
Hg2 C2 1_555 1_555
Hg3 C8 1_555 1_555
F1 C3 1_555 1_555
F2 C4 1_555 1_555
F3 C5 1_555 1_555
F4 C6 1_555 1_555
F5 C9 1_555 1_555
F6 C10 1_555 1_555
F7 C11 1_555 1_555
F8 C12 1_555 1_555
F9 C15 1_555 1_555
F10 C16 1_555 1_555
F11 C17 1_555 1_555
F12 C18 1_555 1_555
C1 C2 1_555 1_555
C2 C3 1_555 1_555
C3 C4 1_555 1_555
C4 C5 1_555 1_555
C5 C6 1_555 1_555
C6 C1 1_555 1_555
C7 Hg2 1_555 1_555
C8 C7 1_555 1_555
C9 C8 1_555 1_555
C10 C9 1_555 1_555
C11 C10 1_555 1_555
C12 C7 1_555 1_555
C13 Hg3 1_555 1_555
C14 Hg1 1_555 1_555
C15 C14 1_555 1_555
C16 C15 1_555 1_555
C17 C16 1_555 1_555
C18 C13 1_555 1_555
O1 Hg1 1_555 1_555
O2 N1 1_555 1_555
N1 O1 1_555 1_555
C19 N1 1_555 1_555
C20 C19 1_555 1_555
H1 C20 1_555 1_555
C21 C20 1_555 1_555
H2 C21 1_555 1_555
C22 C21 1_555 1_555
C23 C22 1_555 1_555
H3 C23 1_555 1_555
H4 C23 1_555 1_555
C24 C23 1_555 1_555
H5 C24 1_555 1_555
H6 C24 1_555 1_555
C25 C24 1_555 1_555
C26 C25 1_555 1_555
H7 C26 1_555 1_555
C27 C26 1_555 1_555
H8 C27 1_555 1_555
C28 C27 1_555 1_555
H9 C28 1_555 1_555
C29 C19 1_555 1_555
C30 C22 1_555 1_555
Hg3_2 O2 1_555 1_555
O2_2 Hg3 1_555 1_555
Hg2 O1 1_555 1_555
Hg3 O1 1_555 1_555
C11 C12 1_555 1_555
C13 C14 1_555 1_555
C17 C18 1_555 1_555
C25 C30 1_555 1_555
C28 C29 1_555 1_555
C29 C30 1_555 1_555

#END
