
#######################################################################
#
#                 Cambridge Crystallographic Data Centre
#                                CCDC 
#
#######################################################################
#
# If this CIF has been generated from an entry in the Cambridge 
# Structural Database, then it will include bibliographic, chemical, 
# crystal, experimental, refinement or atomic coordinate data resulting 
# from the CCDC's data processing and validation procedures.
#
#######################################################################

data_REXCII
_symmetry_cell_setting           monoclinic
_symmetry_space_group_name_H-M   'C 2/c'
_symmetry_Int_Tables_number      15
_space_group_name_Hall           '-C 2yn'
loop_
_symmetry_equiv_pos_site_id
_symmetry_equiv_pos_as_xyz
1 x,y,z
2 -x,y,1/2-z
3 1/2+x,1/2+y,z
4 1/2-x,1/2+y,1/2-z
5 -x,-y,-z
6 x,-y,1/2+z
7 1/2-x,1/2-y,-z
8 1/2+x,1/2-y,1/2+z
_cell_length_a                   34.103(6)
_cell_length_b                   14.767(3)
_cell_length_c                   30.700(6)
_cell_angle_alpha                90
_cell_angle_beta                 99.802(2)
_cell_angle_gamma                90
_cell_volume                     15234.8
loop_
_atom_site_label
_atom_site_type_symbol
_atom_site_fract_x
_atom_site_fract_y
_atom_site_fract_z
I1 I 0.39111(3) 0.25675(6) 0.40138(3)
Zn1 Zn 0.37056(4) 0.39518(9) 0.44154(5)
I2 I 0.34539(3) 0.39919(8) 0.51363(3)
N1 N 0.3286(3) 0.4625(6) 0.3966(3)
C1 C 0.3077(4) 0.4203(8) 0.3613(4)
H1 H 0.3138 0.3590 0.3560
C2 C 0.2778(4) 0.4617(8) 0.3329(4)
H2 H 0.2631 0.4290 0.3089
C3 C 0.2695(3) 0.5502(8) 0.3392(3)
C4 C 0.2914(4) 0.5957(7) 0.3745(4)
H3 H 0.2865 0.6577 0.3799
C5 C 0.3211(4) 0.5474(8) 0.4022(4)
H4 H 0.3365 0.5784 0.4264
C6 C 0.2371(3) 0.5970(7) 0.3086(3)
N2 N 0.2172(3) 0.5451(6) 0.2759(3)
C7 C 0.1862(3) 0.5872(6) 0.2508(3)
N3 N 0.1767(2) 0.6733(5) 0.2538(3)
C8 C 0.2013(3) 0.7204(7) 0.2851(3)
N4 N 0.2307(3) 0.6847(6) 0.3146(3)
N5 N 0.1174(3) 0.4415(6) 0.1448(3)
C9 C 0.1079(4) 0.5240(8) 0.1549(4)
H5 H 0.0848 0.5505 0.1381
C10 C 0.1299(4) 0.5759(8) 0.1891(4)
H6 H 0.1227 0.6365 0.1944
C11 C 0.1624(3) 0.5350(6) 0.2145(3)
C12 C 0.1721(4) 0.4467(7) 0.2047(4)
H7 H 0.1944 0.4178 0.2218
C13 C 0.1494(4) 0.4016(7) 0.1705(4)
H8 H 0.1561 0.3410 0.1643
N6 N 0.1836(3) 1.0053(6) 0.2757(3)
C14 C 0.2126(4) 0.9709(9) 0.3043(4)
H9 H 0.2301 1.0112 0.3224
C15 C 0.2193(4) 0.8784(7) 0.3097(5)
H10 H 0.2406 0.8566 0.3311
C16 C 0.1949(3) 0.8193(7) 0.2839(3)
C17 C 0.1639(4) 0.8553(7) 0.2536(4)
H11 H 0.1459 0.8165 0.2354
C18 C 0.1598(4) 0.9473(8) 0.2501(4)
H12 H 0.1390 0.9711 0.2286
I3 I 0.23433(3) 1.23279(7) 0.29132(4)
Zn2 Zn 0.17139(5) 1.14252(9) 0.26822(5)
I4 I 0.12429(4) 1.16051(7) 0.19473(3)
I5 I 0.11705(3) 0.25847(5) 0.06057(3)
Zn3 Zn 0.07833(4) 0.37266(8) 0.09778(4)
I6 I 0.01753(3) 0.34885(7) 0.13433(3)
N7 N 0.0649(3) 0.4788(6) 0.0530(3)
C19 C 0.0911(4) 0.4997(9) 0.0271(5)
H13 H 0.1135 0.4615 0.0273
C20 C 0.0869(4) 0.5747(9) -0.0002(5)
H14 H 0.1063 0.5881 -0.0179
C21 C 0.0547(3) 0.6287(7) -0.0013(4)
C22 C 0.0279(4) 0.6089(8) 0.0256(4)
H15 H 0.0057 0.6474 0.0265
C23 C 0.0337(3) 0.5318(7) 0.0516(4)
H16 H 0.0142 0.5165 0.0692
C24 C 0.0497(3) 0.7119(7) -0.0291(3)
N8 N 0.0742(3) 0.7219(6) -0.0582(3)
C25 C 0.0684(3) 0.7956(7) -0.0833(3)
N9 N 0.0399(3) 0.8571(6) -0.0811(3)
C26 C 0.0168(3) 0.8387(7) -0.0516(3)
N10 N 0.0205(3) 0.7693(6) -0.0240(3)
N11 N -0.0816(3) 1.0157(6) -0.0539(3)
C27 C 0.1190(4) 0.9056(9) -0.1672(5)
H17 H 0.1201 0.9638 -0.1801
C28 C 0.0961(4) 0.8950(9) -0.1353(5)
H18 H 0.0817 0.9447 -0.1262
C29 C 0.0941(3) 0.8108(6) -0.1163(4)
C30 C 0.1165(5) 0.7448(9) -0.1291(5)
H19 H 0.1170 0.6869 -0.1156
C31 C 0.1387(5) 0.7597(10) -0.1614(6)
H20 H 0.1538 0.7108 -0.1700
N12 N 0.1402(3) 0.8387(6) -0.1813(3)
C32 C -0.0679(3) 0.9698(7) -0.0160(4)
H21 H -0.0801 0.9772 0.0093
C33 C -0.0356(3) 0.9118(7) -0.0151(3)
H22 H -0.0260 0.8786 0.0110
C34 C -0.0177(3) 0.9021(7) -0.0505(4)
C35 C -0.0332(4) 0.9484(10) -0.0894(4)
H23 H -0.0223 0.9398 -0.1156
C36 C -0.0641(5) 1.0057(11) -0.0891(5)
H24 H -0.0735 1.0401 -0.1149
Zn1G Zn -0.12944(4) 1.10482(9) -0.05846(5)
Zn2E Zn 0.17139(5) 0.85748(9) -0.23178(5)
N11G N 0.4184(3) 0.4843(6) 0.4461(3)
N12E N 0.1402(3) 1.1613(6) 0.3187(3)
O1 O 0.0729(4) 0.6534(10) 0.2627(4)
C37 C 0.0965(6) 0.6523(10) 0.3022(5)
O2 O 0.0963(6) 0.8876(11) 0.3331(6)
C38 C 0.1345(6) 0.5600(10) 0.3589(6)
C39 C 0.0554(6) 0.7286(16) 0.2446(6)
C40 C 0.0892(7) 0.8124(9) 0.3111(7)
C41 C 0.1309(5) 0.7220(12) 0.3696(4)
C42 C 0.1065(5) 0.7296(10) 0.3284(5)
C43 C 0.0641(6) 0.8106(13) 0.2675(7)
H25 H 0.0536 0.8657 0.2544
C44 C 0.1118(6) 0.5683(8) 0.3178(6)
C45 C 0.1457(6) 0.6376(13) 0.3837(6)
C46 C 0.0158(5) 0.6309(13) 0.1866(6)
H26 H 0.0221 0.5765 0.2027
C47 C 0.0316(6) 0.7134(14) 0.2039(6)
C48 C 0.0229(6) 0.7914(13) 0.1792(6)
H27 H 0.0355 0.8467 0.1893
C49 C -0.0192(6) 0.7078(11) 0.1228(6)
C50 C -0.0096(6) 0.6285(12) 0.1454(6)
H28 H -0.0200 0.5724 0.1334
C51 C -0.0039(6) 0.7901(12) 0.1398(6)
H29 H -0.0117 0.8449 0.1246
O3 O 0.1072(6) 0.4887(14) 0.2953(7)
O4 O 0.1486(6) 0.4775(13) 0.3798(7)
O5 O 0.1640(10) 0.621(2) 0.4223(11)
O6 O 0.1324(9) 0.806(2) 0.3997(9)
O7 O -0.0436(7) 0.7088(15) 0.0823(6)
C52 C 0.1883(7) 0.451(2) 0.3815(10)
H30 H 0.1940 0.3983 0.4010
H31 H 0.2060 0.5010 0.3930
H32 H 0.1927 0.4351 0.3518
C53 C 0.0692(7) 0.450(2) 0.2931(11)
H33 H 0.0665 0.3982 0.2731
H34 H 0.0489 0.4956 0.2820
H35 H 0.0656 0.4305 0.3227
C54 C -0.0666(11) 0.634(2) 0.0659(13)
H36 H -0.0808 0.6475 0.0361
H37 H -0.0859 0.6205 0.0853
H38 H -0.0492 0.5814 0.0647
C55 C 0.1728(10) 0.813(4) 0.3985(16)
H39 H 0.1849 0.8578 0.4203
H40 H 0.1766 0.8320 0.3689
H41 H 0.1855 0.7540 0.4054
C56 C 0.2019(11) 0.638(3) 0.4460(14)
H42 H 0.2115 0.5846 0.4633
H43 H 0.2008 0.6898 0.4659
H44 H 0.2201 0.6524 0.4254
loop_
_geom_bond_atom_site_label_1
_geom_bond_atom_site_label_2
_geom_bond_site_symmetry_1
_geom_bond_site_symmetry_2
I1 Zn1 1_555 1_555
Zn1 I2 1_555 1_555
N1 Zn1 1_555 1_555
C1 N1 1_555 1_555
H1 C1 1_555 1_555
C2 C1 1_555 1_555
H2 C2 1_555 1_555
C3 C2 1_555 1_555
C4 C3 1_555 1_555
H3 C4 1_555 1_555
C5 N1 1_555 1_555
H4 C5 1_555 1_555
C6 C3 1_555 1_555
N2 C6 1_555 1_555
C7 N2 1_555 1_555
N3 C7 1_555 1_555
C8 N3 1_555 1_555
N4 C6 1_555 1_555
N5 C9 1_555 1_555
C9 H5 1_555 1_555
C10 C9 1_555 1_555
H6 C10 1_555 1_555
C11 C7 1_555 1_555
C12 C11 1_555 1_555
H7 C12 1_555 1_555
C13 N5 1_555 1_555
H8 C13 1_555 1_555
N6 C14 1_555 1_555
C14 H9 1_555 1_555
C15 C14 1_555 1_555
H10 C15 1_555 1_555
C16 C8 1_555 1_555
C17 C16 1_555 1_555
H11 C17 1_555 1_555
C18 N6 1_555 1_555
H12 C18 1_555 1_555
I3 Zn2 1_555 1_555
Zn2 N6 1_555 1_555
I4 Zn2 1_555 1_555
I5 Zn3 1_555 1_555
Zn3 N5 1_555 1_555
I6 Zn3 1_555 1_555
N7 Zn3 1_555 1_555
C19 N7 1_555 1_555
H13 C19 1_555 1_555
C20 C19 1_555 1_555
H14 C20 1_555 1_555
C21 C20 1_555 1_555
C22 C21 1_555 1_555
H15 C22 1_555 1_555
C23 N7 1_555 1_555
H16 C23 1_555 1_555
C24 C21 1_555 1_555
N8 C24 1_555 1_555
C25 N8 1_555 1_555
N9 C25 1_555 1_555
C26 N9 1_555 1_555
N10 C24 1_555 1_555
N11 C32 1_555 1_555
C27 H17 1_555 1_555
C28 C27 1_555 1_555
H18 C28 1_555 1_555
C29 C25 1_555 1_555
C30 C29 1_555 1_555
H19 C30 1_555 1_555
C31 C30 1_555 1_555
H20 C31 1_555 1_555
N12 C27 1_555 1_555
C32 H21 1_555 1_555
C33 C32 1_555 1_555
H22 C33 1_555 1_555
C34 C26 1_555 1_555
C35 C34 1_555 1_555
H23 C35 1_555 1_555
C36 N11 1_555 1_555
H24 C36 1_555 1_555
O1 C37 1_555 1_555
C37 C42 1_555 1_555
O2 C40 1_555 1_555
C38 C44 1_555 1_555
C39 O1 1_555 1_555
C40 C42 1_555 1_555
C41 C42 1_555 1_555
C43 C39 1_555 1_555
H25 C43 1_555 1_555
C44 C37 1_555 1_555
C45 C38 1_555 1_555
C46 H26 1_555 1_555
C47 C39 1_555 1_555
C48 C47 1_555 1_555
H27 C48 1_555 1_555
C49 C50 1_555 1_555
C50 C46 1_555 1_555
H28 C50 1_555 1_555
C51 C48 1_555 1_555
H29 C51 1_555 1_555
O3 C44 1_555 1_555
O4 C38 1_555 1_555
O5 C45 1_555 1_555
O6 C41 1_555 1_555
O7 C49 1_555 1_555
C52 O4 1_555 1_555
H30 C52 1_555 1_555
H31 C52 1_555 1_555
H32 C52 1_555 1_555
C53 O3 1_555 1_555
H33 C53 1_555 1_555
H34 C53 1_555 1_555
H35 C53 1_555 1_555
C54 O7 1_555 1_555
H36 C54 1_555 1_555
H37 C54 1_555 1_555
H38 C54 1_555 1_555
C55 O6 1_555 1_555
H39 C55 1_555 1_555
H40 C55 1_555 1_555
H41 C55 1_555 1_555
C56 O5 1_555 1_555
H42 C56 1_555 1_555
H43 C56 1_555 1_555
H44 C56 1_555 1_555
Zn1G N11 1_555 1_555
Zn2E N12 1_555 1_555
N11G Zn1 1_555 1_555
N12E Zn2 1_555 1_555
C4 C5 1_555 1_555
C8 N4 1_555 1_555
C10 C11 1_555 1_555
C12 C13 1_555 1_555
C15 C16 1_555 1_555
C17 C18 1_555 1_555
C22 C23 1_555 1_555
C26 N10 1_555 1_555
C28 C29 1_555 1_555
C31 N12 1_555 1_555
C33 C34 1_555 1_555
C35 C36 1_555 1_555
C40 C43 1_555 1_555
C41 C45 1_555 1_555
C46 C47 1_555 1_555
C49 C51 1_555 1_555

#END
