
#######################################################################
#
#                 Cambridge Crystallographic Data Centre
#                                CCDC 
#
#######################################################################
#
# If this CIF has been generated from an entry in the Cambridge 
# Structural Database, then it will include bibliographic, chemical, 
# crystal, experimental, refinement or atomic coordinate data resulting 
# from the CCDC's data processing and validation procedures.
#
#######################################################################

data_REXCUU
_symmetry_cell_setting           monoclinic
_symmetry_space_group_name_H-M   'C 2/c'
_symmetry_Int_Tables_number      15
_space_group_name_Hall           '-C 2yn'
loop_
_symmetry_equiv_pos_site_id
_symmetry_equiv_pos_as_xyz
1 x,y,z
2 -x,y,1/2-z
3 1/2+x,1/2+y,z
4 1/2-x,1/2+y,1/2-z
5 -x,-y,-z
6 x,-y,1/2+z
7 1/2-x,1/2-y,-z
8 1/2+x,1/2-y,1/2+z
_cell_length_a                   34.562(8)
_cell_length_b                   14.950(4)
_cell_length_c                   30.348(7)
_cell_angle_alpha                90
_cell_angle_beta                 100.119(3)
_cell_angle_gamma                90
_cell_volume                     15437
loop_
_atom_site_label
_atom_site_type_symbol
_atom_site_fract_x
_atom_site_fract_y
_atom_site_fract_z
Zn1 Zn -0.12964(5) 1.09709(12) -0.05641(7)
I1 I -0.15212(4) 1.09664(15) 0.01753(6)
I2 I -0.10871(5) 1.23223(9) -0.09657(7)
N1 N -0.0842(3) 1.0077(8) -0.0528(4)
C1 C -0.0694(6) 0.9935(17) -0.0897(8)
H1 H -0.0804 1.0245 -0.1163
C2 C -0.0394(7) 0.937(2) -0.0905(7)
H2 H -0.0314 0.9241 -0.1183
C3 C -0.0200(4) 0.8961(9) -0.0524(4)
C4 C -0.0365(4) 0.9063(10) -0.0146(5)
H3 H -0.0267 0.8731 0.0117
C5 C -0.0674(4) 0.9647(11) -0.0150(5)
H4 H -0.0771 0.9752 0.0119
C6 C 0.0142(4) 0.8354(8) -0.0528(4)
N2 N 0.0362(3) 0.8549(7) -0.0846(3)
C7 C 0.0645(4) 0.7964(8) -0.0861(4)
N3 N 0.0715(3) 0.7218(7) -0.0609(3)
C8 C 0.0480(3) 0.7116(8) -0.0310(4)
N4 N 0.0194(3) 0.7687(7) -0.0238(3)
N5 N 0.1380(4) 0.8449(7) -0.1813(4)
C9 C 0.1442(8) 0.7761(15) -0.1530(9)
H5 H 0.1657 0.7373 -0.1544
C10 C 0.1206(7) 0.7593(14) -0.1218(8)
H6 H 0.1265 0.7106 -0.1016
C11 C 0.0895(4) 0.8115(9) -0.1198(4)
C12 C 0.0860(7) 0.8825(14) -0.1485(9)
H7 H 0.0643 0.9219 -0.1496
C13 C 0.1127(7) 0.8989(14) -0.1757(8)
H8 H 0.1116 0.9546 -0.1909
N6 N 0.0674(3) 0.4795(7) 0.0505(4)
C14 C 0.0361(4) 0.5317(9) 0.0497(5)
H9 H 0.0173 0.5141 0.0674
C15 C 0.0291(4) 0.6075(10) 0.0256(5)
H10 H 0.0070 0.6434 0.0281
C16 C 0.0541(4) 0.6327(9) -0.0024(5)
C17 C 0.0859(6) 0.5733(13) -0.0047(8)
H11 H 0.1035 0.5844 -0.0249
C18 C 0.0905(7) 0.5007(13) 0.0223(8)
H12 H 0.1122 0.4623 0.0207
Zn2 Zn 0.08267(5) 0.37405(10) 0.09434(5)
I3 I 0.02440(3) 0.34412(8) 0.13294(4)
I4 I 0.12064(4) 0.26470(7) 0.05517(4)
N7 N 0.1209(3) 0.4435(7) 0.1415(3)
C19 C 0.1135(5) 0.5288(11) 0.1520(6)
H13 H 0.0902 0.5554 0.1361
C20 C 0.1358(5) 0.5795(10) 0.1827(6)
H14 H 0.1312 0.6419 0.1846
C21 C 0.1659(3) 0.5378(9) 0.2115(4)
C22 C 0.1740(4) 0.4494(8) 0.2044(4)
H15 H 0.1951 0.4196 0.2230
C23 C 0.1508(4) 0.4051(9) 0.1693(5)
H16 H 0.1563 0.3439 0.1646
C24 C 0.1899(3) 0.5887(8) 0.2490(5)
N8 N 0.1804(3) 0.6760(6) 0.2511(4)
C25 C 0.2035(4) 0.7217(9) 0.2835(5)
N9 N 0.2316(3) 0.6880(7) 0.3120(4)
C26 C 0.2388(4) 0.5971(8) 0.3087(5)
N10 N 0.2185(3) 0.5480(7) 0.2752(4)
N11 N 0.1840(4) 1.0028(8) 0.2767(5)
C27 C 0.1618(5) 0.9461(10) 0.2507(6)
H17 H 0.1405 0.9696 0.2299
C28 C 0.1672(5) 0.8566(9) 0.2515(6)
H18 H 0.1509 0.8193 0.2307
C29 C 0.1967(3) 0.8199(8) 0.2830(5)
C30 C 0.2204(5) 0.8790(10) 0.3111(7)
H19 H 0.2411 0.8574 0.3333
C31 C 0.2133(5) 0.9691(11) 0.3062(6)
H20 H 0.2301 1.0092 0.3248
Zn3 Zn 0.17253(6) 1.13871(11) 0.27003(7)
I5 I 0.12968(5) 1.16066(8) 0.19416(5)
I6 I 0.23379(4) 1.23033(8) 0.29538(7)
N12 N 0.3278(3) 0.4671(7) 0.3985(4)
C32 C 0.3059(5) 0.4229(10) 0.3644(6)
H21 H 0.3104 0.3608 0.3611
C33 C 0.2766(5) 0.4655(9) 0.3335(6)
H22 H 0.2618 0.4335 0.3092
C34 C 0.2703(3) 0.5541(8) 0.3396(4)
C35 C 0.2917(4) 0.5999(10) 0.3755(5)
H23 H 0.2872 0.6616 0.3803
C36 C 0.3197(5) 0.5521(9) 0.4038(5)
H24 H 0.3342 0.5825 0.4289
Zn1G Zn 0.37036(5) 0.40291(12) 0.44359(7)
N5E N 0.1380(4) 1.1551(7) 0.3187(4)
Zn3E Zn 0.17253(6) 0.86129(11) -0.22997(7)
N12G N -0.1722(3) 1.0329(7) -0.1015(4)
O1 O -0.0720(5) 0.6406(15) 0.2412(6)
C37 C -0.0560(6) 0.7162(13) 0.2605(8)
C38 C -0.0659(6) 0.7944(17) 0.2396(7)
H25 H -0.0546 0.8476 0.2533
C39 C -0.0928(9) 0.8025(12) 0.1974(8)
C40 C -0.1088(9) 0.7181(11) 0.1787(9)
C41 C -0.1348(10) 0.7149(15) 0.1385(9)
C42 C -0.1492(9) 0.6333(18) 0.1216(8)
C43 C -0.1380(9) 0.5552(14) 0.1445(9)
C44 C -0.1113(9) 0.5588(13) 0.1841(9)
C45 C -0.0981(7) 0.6403(13) 0.2022(7)
O2 O -0.0998(9) 0.8749(12) 0.1776(9)
C46 C -0.0327(9) 0.7022(18) 0.3021(11)
C47 C -0.0179(8) 0.774(2) 0.3285(9)
H26 H -0.0269 0.8329 0.3204
C48 C 0.0099(8) 0.7609(16) 0.3669(9)
C49 C 0.0233(9) 0.6766(18) 0.3811(10)
C50 C 0.0102(10) 0.605(2) 0.3537(10)
H27 H 0.0207 0.5465 0.3606
C51 C -0.0185(7) 0.618(2) 0.3160(10)
H28 H -0.0290 0.5672 0.2991
O3 O -0.1487(9) 0.7913(16) 0.1162(9)
C52 C -0.1255(15) 0.828(4) 0.0865(17)
H29 H -0.1380 0.8828 0.0729
H30 H -0.1231 0.7848 0.0630
H31 H -0.0993 0.8427 0.1032
O4 O -0.1763(10) 0.616(4) 0.0839(10)
C53 C -0.205(3) 0.683(6) 0.073(4)
H32 H -0.2270 0.6603 0.0507
H33 H -0.1935 0.7352 0.0605
H34 H -0.2151 0.7014 0.0999
O5 O -0.1489(9) 0.4705(16) 0.1302(12)
C54 C -0.1881(9) 0.440(3) 0.1247(17)
H35 H -0.1893 0.3773 0.1148
H36 H -0.2047 0.4765 0.1021
H37 H -0.1976 0.4445 0.1532
O6 O -0.1064(8) 0.4776(16) 0.2053(10)
C55 C -0.0698(10) 0.432(3) 0.2090(16)
H38 H -0.0712 0.3755 0.2247
H39 H -0.0490 0.4696 0.2257
H40 H -0.0641 0.4206 0.1790
O7 O 0.0267(9) 0.8251(19) 0.3963(10)
O8 O 0.0513(9) 0.6735(19) 0.4189(10)
C56 C 0.0706(11) 0.590(2) 0.4301(13)
H41 H 0.0897 0.5971 0.4579
H42 H 0.0842 0.5719 0.4059
H43 H 0.0511 0.5450 0.4343
C57 C 0.0151(17) 0.914(2) 0.3850(18)
H44 H 0.0288 0.9551 0.4077
H45 H -0.0133 0.9202 0.3836
H46 H 0.0217 0.9292 0.3557
loop_
_geom_bond_atom_site_label_1
_geom_bond_atom_site_label_2
_geom_bond_site_symmetry_1
_geom_bond_site_symmetry_2
Zn1 I1 1_555 1_555
I2 Zn1 1_555 1_555
N1 Zn1 1_555 1_555
C1 N1 1_555 1_555
H1 C1 1_555 1_555
C2 C1 1_555 1_555
H2 C2 1_555 1_555
C3 C2 1_555 1_555
C4 C3 1_555 1_555
H3 C4 1_555 1_555
C5 N1 1_555 1_555
H4 C5 1_555 1_555
C6 C3 1_555 1_555
N2 C6 1_555 1_555
C7 N2 1_555 1_555
N3 C7 1_555 1_555
C8 N3 1_555 1_555
N4 C6 1_555 1_555
N5 C9 1_555 1_555
C9 H5 1_555 1_555
C10 C9 1_555 1_555
H6 C10 1_555 1_555
C11 C7 1_555 1_555
C12 C11 1_555 1_555
H7 C12 1_555 1_555
C13 N5 1_555 1_555
H8 C13 1_555 1_555
N6 C14 1_555 1_555
C14 H9 1_555 1_555
C15 C14 1_555 1_555
H10 C15 1_555 1_555
C16 C8 1_555 1_555
C17 C16 1_555 1_555
H11 C17 1_555 1_555
C18 N6 1_555 1_555
H12 C18 1_555 1_555
Zn2 N6 1_555 1_555
I3 Zn2 1_555 1_555
I4 Zn2 1_555 1_555
N7 Zn2 1_555 1_555
C19 N7 1_555 1_555
H13 C19 1_555 1_555
C20 C19 1_555 1_555
H14 C20 1_555 1_555
C21 C20 1_555 1_555
C22 C21 1_555 1_555
H15 C22 1_555 1_555
C23 N7 1_555 1_555
H16 C23 1_555 1_555
C24 C21 1_555 1_555
N8 C24 1_555 1_555
C25 N8 1_555 1_555
N9 C25 1_555 1_555
C26 N9 1_555 1_555
N10 C24 1_555 1_555
N11 C27 1_555 1_555
C27 H17 1_555 1_555
C28 C27 1_555 1_555
H18 C28 1_555 1_555
C29 C25 1_555 1_555
C30 C29 1_555 1_555
H19 C30 1_555 1_555
C31 N11 1_555 1_555
H20 C31 1_555 1_555
Zn3 N11 1_555 1_555
I5 Zn3 1_555 1_555
I6 Zn3 1_555 1_555
N12 C32 1_555 1_555
C32 H21 1_555 1_555
C33 C32 1_555 1_555
H22 C33 1_555 1_555
C34 C26 1_555 1_555
C35 C34 1_555 1_555
H23 C35 1_555 1_555
C36 N12 1_555 1_555
H24 C36 1_555 1_555
O1 C37 1_555 1_555
C37 C38 1_555 1_555
C38 H25 1_555 1_555
C39 C38 1_555 1_555
C40 C39 1_555 1_555
C41 C40 1_555 1_555
C42 C41 1_555 1_555
C43 C42 1_555 1_555
C44 C43 1_555 1_555
C45 O1 1_555 1_555
O2 C39 1_555 1_555
C46 C37 1_555 1_555
C47 C46 1_555 1_555
H26 C47 1_555 1_555
C48 C47 1_555 1_555
C49 C48 1_555 1_555
C50 C49 1_555 1_555
H27 C50 1_555 1_555
C51 C46 1_555 1_555
H28 C51 1_555 1_555
O3 C41 1_555 1_555
C52 O3 1_555 1_555
H29 C52 1_555 1_555
H30 C52 1_555 1_555
H31 C52 1_555 1_555
O4 C42 1_555 1_555
C53 O4 1_555 1_555
H32 C53 1_555 1_555
H33 C53 1_555 1_555
H34 C53 1_555 1_555
O5 C43 1_555 1_555
C54 O5 1_555 1_555
H35 C54 1_555 1_555
H36 C54 1_555 1_555
H37 C54 1_555 1_555
O6 C44 1_555 1_555
C55 O6 1_555 1_555
H38 C55 1_555 1_555
H39 C55 1_555 1_555
H40 C55 1_555 1_555
O7 C48 1_555 1_555
O8 C49 1_555 1_555
C56 O8 1_555 1_555
H41 C56 1_555 1_555
H42 C56 1_555 1_555
H43 C56 1_555 1_555
C57 O7 1_555 1_555
H44 C57 1_555 1_555
H45 C57 1_555 1_555
H46 C57 1_555 1_555
Zn1G N12 1_555 1_555
N5E Zn3 1_555 1_555
Zn3E N5 1_555 1_555
N12G Zn1 1_555 1_555
C4 C5 1_555 1_555
C8 N4 1_555 1_555
C10 C11 1_555 1_555
C12 C13 1_555 1_555
C15 C16 1_555 1_555
C17 C18 1_555 1_555
C22 C23 1_555 1_555
C26 N10 1_555 1_555
C28 C29 1_555 1_555
C30 C31 1_555 1_555
C33 C34 1_555 1_555
C35 C36 1_555 1_555
C40 C45 1_555 1_555
C44 C45 1_555 1_555
C50 C51 1_555 1_555

#END
