
#######################################################################
#
#                 Cambridge Crystallographic Data Centre
#                                CCDC 
#
#######################################################################
#
# If this CIF has been generated from an entry in the Cambridge 
# Structural Database, then it will include bibliographic, chemical, 
# crystal, experimental, refinement or atomic coordinate data resulting 
# from the CCDC's data processing and validation procedures.
#
#######################################################################

data_REXFUX
_symmetry_cell_setting           monoclinic
_symmetry_space_group_name_H-M   'C 2/c'
_symmetry_Int_Tables_number      15
_space_group_name_Hall           '-C 2yn'
loop_
_symmetry_equiv_pos_site_id
_symmetry_equiv_pos_as_xyz
1 x,y,z
2 -x,y,1/2-z
3 1/2+x,1/2+y,z
4 1/2-x,1/2+y,1/2-z
5 -x,-y,-z
6 x,-y,1/2+z
7 1/2-x,1/2-y,-z
8 1/2+x,1/2-y,1/2+z
_cell_length_a                   35.060(4)
_cell_length_b                   14.7672(16)
_cell_length_c                   30.527(3)
_cell_angle_alpha                90
_cell_angle_beta                 101.0880(10)
_cell_angle_gamma                90
_cell_volume                     15510
loop_
_atom_site_label
_atom_site_type_symbol
_atom_site_fract_x
_atom_site_fract_y
_atom_site_fract_z
Zn1 Zn 0.17258(2) -0.35319(4) -0.22779(2)
I1 I 0.126643(17) -0.33623(3) -0.303049(15)
I2 I 0.235349(15) -0.26573(3) -0.204293(19)
N1 N 0.14005(15) -0.3334(3) -0.17955(16)
C1 C 0.10471(19) -0.3704(4) -0.1851(2)
H1 H 0.0959 -0.4054 -0.2112
C2 C 0.0806(2) -0.3605(4) -0.1552(2)
H2 H 0.0561 -0.3900 -0.1601
C3 C 0.09243(16) -0.3059(4) -0.11695(18)
C4 C 0.12903(18) -0.2667(4) -0.1119(2)
H3 H 0.1382 -0.2291 -0.0868
C5 C 0.15237(18) -0.2818(4) -0.1430(2)
H4 H 0.1775 -0.2553 -0.1386
C6 C 0.06733(16) -0.2935(4) -0.08454(18)
N2 N 0.03920(13) -0.3528(3) -0.08440(15)
C7 C 0.01671(15) -0.3392(3) -0.05376(18)
N3 N 0.02152(13) -0.2707(3) -0.02470(14)
C8 C 0.05004(16) -0.2130(3) -0.02870(19)
N4 N 0.07404(13) -0.2213(3) -0.05700(15)
N5 N -0.07857(14) -0.5169(3) -0.05804(18)
C9 C -0.06464(18) -0.4710(4) -0.0204(2)
H5 H -0.0764 -0.4783 0.0049
C10 C -0.03336(17) -0.4133(4) -0.0182(2)
H6 H -0.0237 -0.3815 0.0087
C11 C -0.01603(16) -0.4011(3) -0.05433(19)
C12 C -0.0315(2) -0.4475(5) -0.0926(2)
H7 H -0.0211 -0.4394 -0.1189
C13 C -0.0622(2) -0.5060(6) -0.0926(3)
H8 H -0.0719 -0.5398 -0.1189
N6 N 0.06377(14) 0.0205(3) 0.05492(16)
C14 C 0.0898(2) 0.0002(5) 0.0302(2)
H9 H 0.1117 0.0388 0.0314
C15 C 0.0863(2) -0.0755(5) 0.0026(2)
H10 H 0.1056 -0.0887 -0.0145
C16 C 0.05445(16) -0.1312(4) 0.00027(18)
C17 C 0.03332(16) -0.0326(4) 0.0530(2)
H11 H 0.0145 -0.0179 0.0706
C18 C 0.02768(17) -0.1098(4) 0.02603(19)
H12 H 0.0055 -0.1471 0.0255
Zn2 Zn 0.07576(2) 0.12847(4) 0.09988(2)
I3 I 0.017019(14) 0.15305(3) 0.135706(15)
I4 I 0.111631(15) 0.24252(3) 0.061038(16)
N7 N 0.11495(13) 0.0607(3) 0.14853(16)
C19 C 0.10465(18) -0.0214(4) 0.1603(2)
H13 H 0.0805 -0.0459 0.1456
C20 C 0.12789(18) -0.0723(4) 0.1933(2)
H14 H 0.1200 -0.1309 0.2008
C21 C 0.16258(15) -0.0363(3) 0.21477(18)
C22 C 0.17318(16) 0.0496(3) 0.20364(19)
H15 H 0.1966 0.0768 0.2187
C23 C 0.14845(17) 0.0949(4) 0.1697(2)
H16 H 0.1559 0.1533 0.1612
C24 C 0.18828(15) -0.0895(3) 0.24972(19)
N8 N 0.17813(13) -0.1776(3) 0.25432(15)
C25 C 0.20322(15) -0.2236(3) 0.28472(17)
N9 N 0.23351(13) -0.1895(3) 0.31240(15)
C26 C 0.24027(15) -0.0997(3) 0.30588(19)
N10 N 0.21948(13) -0.0496(3) 0.27348(15)
N11 N 0.18435(15) -0.5084(3) 0.27916(17)
C27 C 0.21519(18) -0.4744(4) 0.3060(2)
H17 H 0.2332 -0.5147 0.3232
C28 C 0.22211(16) -0.3815(4) 0.3098(2)
H18 H 0.2445 -0.3592 0.3294
C29 C 0.19611(15) -0.3222(3) 0.28500(18)
C30 C 0.16316(18) -0.3583(4) 0.2590(2)
H19 H 0.1437 -0.3195 0.2431
C31 C 0.15847(19) -0.4506(4) 0.2563(2)
H20 H 0.1360 -0.4744 0.2374
N12 N 0.33335(13) 0.0340(3) 0.39077(16)
C32 C 0.31237(17) 0.0750(4) 0.3546(2)
H21 H 0.3185 0.1357 0.3485
C33 C 0.28279(17) 0.0332(4) 0.3266(2)
H22 H 0.2687 0.0644 0.3014
C34 C 0.27342(15) -0.0561(3) 0.33535(18)
C35 C 0.29520(18) -0.0987(4) 0.3718(2)
H23 H 0.2900 -0.1596 0.3787
C36 C 0.3250(2) -0.0505(4) 0.3981(2)
H24 H 0.3402 -0.0804 0.4230
I5 I -0.107826(19) -0.74286(3) -0.10483(3)
Zn3 Zn -0.12549(2) -0.60386(5) -0.06439(3)
I6 I -0.150139(16) -0.60236(6) 0.00814(2)
Zn1E Zn 0.17258(2) -0.64681(4) 0.27221(2)
N11E N 0.18435(15) -0.4916(3) -0.22084(17)
N12G N -0.16665(13) -0.5340(3) -0.10923(16)
Zn3G Zn 0.37451(2) 0.10386(5) 0.43561(3)
C37 C 0.1239(3) 0.0608(7) 0.3263(4)
C38 C 0.1068(4) 0.1119(7) 0.2857(4)
H25 H 0.1245 0.1361 0.2688
C39 C 0.1614(4) 0.0482(9) 0.3371(5)
H26 H 0.1780 0.0721 0.3187
H27 H 0.1720 0.0152 0.3633
C40 C 0.0972(4) 0.0292(10) 0.3562(5)
H28 H 0.0702 0.0423 0.3421
H29 H 0.1035 0.0609 0.3849
H30 H 0.1003 -0.0362 0.3611
C41 C 0.0702(5) 0.1272(12) 0.2707(6)
H31 H 0.0513 0.1045 0.2864
H32 H 0.0623 0.1612 0.2441
loop_
_geom_bond_atom_site_label_1
_geom_bond_atom_site_label_2
_geom_bond_site_symmetry_1
_geom_bond_site_symmetry_2
Zn1 I1 1_555 1_555
I2 Zn1 1_555 1_555
N1 Zn1 1_555 1_555
C1 N1 1_555 1_555
H1 C1 1_555 1_555
C2 C1 1_555 1_555
H2 C2 1_555 1_555
C3 C2 1_555 1_555
C4 C3 1_555 1_555
H3 C4 1_555 1_555
C5 N1 1_555 1_555
H4 C5 1_555 1_555
C6 C3 1_555 1_555
N2 C6 1_555 1_555
C7 N2 1_555 1_555
N3 C7 1_555 1_555
C8 N3 1_555 1_555
N4 C6 1_555 1_555
N5 C9 1_555 1_555
C9 H5 1_555 1_555
C10 C9 1_555 1_555
H6 C10 1_555 1_555
C11 C7 1_555 1_555
C12 C11 1_555 1_555
H7 C12 1_555 1_555
C13 N5 1_555 1_555
H8 C13 1_555 1_555
N6 C14 1_555 1_555
C14 H9 1_555 1_555
C15 C14 1_555 1_555
H10 C15 1_555 1_555
C16 C8 1_555 1_555
C17 N6 1_555 1_555
H11 C17 1_555 1_555
C18 C16 1_555 1_555
H12 C18 1_555 1_555
Zn2 N6 1_555 1_555
I3 Zn2 1_555 1_555
I4 Zn2 1_555 1_555
N7 Zn2 1_555 1_555
C19 N7 1_555 1_555
H13 C19 1_555 1_555
C20 C19 1_555 1_555
H14 C20 1_555 1_555
C21 C20 1_555 1_555
C22 C21 1_555 1_555
H15 C22 1_555 1_555
C23 N7 1_555 1_555
H16 C23 1_555 1_555
C24 C21 1_555 1_555
N8 C24 1_555 1_555
C25 N8 1_555 1_555
N9 C25 1_555 1_555
C26 N9 1_555 1_555
N10 C24 1_555 1_555
N11 C27 1_555 1_555
C27 H17 1_555 1_555
C28 C27 1_555 1_555
H18 C28 1_555 1_555
C29 C25 1_555 1_555
C30 C29 1_555 1_555
H19 C30 1_555 1_555
C31 N11 1_555 1_555
H20 C31 1_555 1_555
N12 C32 1_555 1_555
C32 H21 1_555 1_555
C33 C32 1_555 1_555
H22 C33 1_555 1_555
C34 C26 1_555 1_555
C35 C34 1_555 1_555
H23 C35 1_555 1_555
C36 N12 1_555 1_555
H24 C36 1_555 1_555
I5 Zn3 1_555 1_555
Zn3 N5 1_555 1_555
I6 Zn3 1_555 1_555
C37 C38 1_555 1_555
C38 H25 1_555 1_555
C39 C37 1_555 1_555
H26 C39 1_555 1_555
H27 C39 1_555 1_555
C40 C37 1_555 1_555
H28 C40 1_555 1_555
H29 C40 1_555 1_555
H30 C40 1_555 1_555
C41 C38 1_555 1_555
H31 C41 1_555 1_555
H32 C41 1_555 1_555
Zn1E N11 1_555 1_555
N11E Zn1 1_555 1_555
N12G Zn3 1_555 1_555
Zn3G N12 1_555 1_555
C4 C5 1_555 1_555
C8 N4 1_555 1_555
C10 C11 1_555 1_555
C12 C13 1_555 1_555
C15 C16 1_555 1_555
C17 C18 1_555 1_555
C22 C23 1_555 1_555
C26 N10 1_555 1_555
C28 C29 1_555 1_555
C30 C31 1_555 1_555
C33 C34 1_555 1_555
C35 C36 1_555 1_555

#END
