
#######################################################################
#
#                 Cambridge Crystallographic Data Centre
#                                CCDC 
#
#######################################################################
#
# If this CIF has been generated from an entry in the Cambridge 
# Structural Database, then it will include bibliographic, chemical, 
# crystal, experimental, refinement or atomic coordinate data resulting 
# from the CCDC's data processing and validation procedures.
#
#######################################################################

data_REXFOR
_symmetry_cell_setting           monoclinic
_symmetry_space_group_name_H-M   'C 2/c'
_symmetry_Int_Tables_number      15
_space_group_name_Hall           '-C 2yn'
loop_
_symmetry_equiv_pos_site_id
_symmetry_equiv_pos_as_xyz
1 x,y,z
2 -x,y,1/2-z
3 1/2+x,1/2+y,z
4 1/2-x,1/2+y,1/2-z
5 -x,-y,-z
6 x,-y,1/2+z
7 1/2-x,1/2-y,-z
8 1/2+x,1/2-y,1/2+z
_cell_length_a                   34.644(6)
_cell_length_b                   14.879(3)
_cell_length_c                   30.836(6)
_cell_angle_alpha                90
_cell_angle_beta                 101.787(2)
_cell_angle_gamma                90
_cell_volume                     15559.8
loop_
_atom_site_label
_atom_site_type_symbol
_atom_site_fract_x
_atom_site_fract_y
_atom_site_fract_z
Zn1 Zn 0.37396(4) 0.89436(10) 0.44168(5)
I1 I 0.34772(3) 0.90860(11) 0.51195(4)
I2 I 0.38888(4) 0.75416(7) 0.40549(5)
N1 N 0.3341(3) 0.9632(5) 0.3941(3)
C1 C 0.3250(4) 1.0499(7) 0.4009(4)
H1 H 0.3383 1.0787 0.4273
C2 C 0.2973(4) 1.0984(7) 0.3714(4)
H2 H 0.2934 1.1607 0.3756
C3 C 0.2749(3) 1.0519(6) 0.3346(3)
C4 C 0.2831(3) 0.9637(6) 0.3290(4)
H3 H 0.2687 0.9315 0.3043
C5 C 0.3120(3) 0.9212(7) 0.3589(4)
H4 H 0.3167 0.8593 0.3546
C6 C 0.2417(3) 1.0977(6) 0.3054(3)
N2 N 0.2361(2) 1.1849(4) 0.3120(3)
C7 C 0.2067(3) 1.2219(5) 0.2834(3)
N3 N 0.1814(2) 1.1751(4) 0.2520(2)
C8 C 0.1914(2) 1.0916(5) 0.2489(3)
N4 N 0.2214(2) 1.0496(4) 0.2735(2)
N5 N 0.1873(3) 1.5049(5) 0.2816(3)
C9 C 0.1624(4) 1.4478(7) 0.2579(4)
H5 H 0.1395 1.4723 0.2395
C10 C 0.1667(4) 1.3566(6) 0.2575(5)
H6 H 0.1481 1.3193 0.2388
C11 C 0.1991(3) 1.3216(5) 0.2854(3)
C12 C 0.2240(3) 1.3777(6) 0.3109(4)
H7 H 0.2467 1.3536 0.3300
C13 C 0.2182(4) 1.4683(7) 0.3105(5)
H8 H 0.2357 1.5057 0.3303
N6 N 0.1171(2) 0.9462(5) 0.1427(2)
C14 C 0.1484(3) 0.9067(6) 0.1690(3)
H9 H 0.1535 0.8452 0.1640
C15 C 0.1732(3) 0.9505(5) 0.2026(3)
H10 H 0.1954 0.9200 0.2194
C16 C 0.1661(2) 1.0385(5) 0.2120(3)
C17 C 0.1354(4) 1.0788(7) 0.1835(4)
H11 H 0.1307 1.1413 0.1862
C18 C 0.1116(4) 1.0306(7) 0.1517(4)
H12 H 0.0892 1.0601 0.1347
Zn2 Zn 0.07699(4) 0.87674(7) 0.09669(4)
I3 I 0.01897(3) 0.85289(6) 0.13383(3)
I4 I 0.11319(4) 0.75975(5) 0.06072(3)
N7 N 0.0634(3) 0.9807(5) 0.0517(3)
C19 C 0.0341(3) 1.0369(6) 0.0490(3)
H13 H 0.0151 1.0233 0.0663
C20 C 0.0279(3) 1.1124(6) 0.0242(3)
H14 H 0.0063 1.1508 0.0254
C21 C 0.0533(2) 1.1318(5) -0.0022(3)
C22 C 0.0837(3) 1.0716(7) -0.0034(3)
H15 H 0.1011 1.0799 -0.0232
C23 C 0.0876(3) 0.9989(7) 0.0253(4)
H16 H 0.1093 0.9595 0.0258
C24 C 0.0485(3) 1.2133(5) -0.0307(3)
N8 N 0.0211(2) 1.2732(5) -0.0260(2)
C25 C 0.0173(2) 1.3432(6) -0.0545(3)
N9 N 0.0392(2) 1.3577(4) -0.0840(2)
C26 C 0.0673(3) 1.2973(6) -0.0849(3)
N10 N 0.0739(2) 1.2228(4) -0.0585(2)
N11 N -0.0777(3) 1.5230(7) -0.0518(3)
C27 C -0.0568(4) 1.5253(11) -0.0840(7)
H17 H -0.0627 1.5700 -0.1063
C28 C -0.0273(4) 1.4652(12) -0.0853(4)
H18 H -0.0153 1.4639 -0.1104
C29 C -0.0151(3) 1.4074(6) -0.0515(4)
C30 C -0.0351(3) 1.4081(6) -0.0186(3)
H19 H -0.0282 1.3673 0.0055
C31 C -0.0645(3) 1.4655(7) -0.0197(3)
H20 H -0.0772 1.4654 0.0049
N12 N 0.1422(3) 1.3398(5) -0.1767(3)
C32 C 0.1527(4) 1.2837(7) -0.1416(4)
H21 H 0.1776 1.2548 -0.1373
C33 C 0.1289(3) 1.2668(6) -0.1122(3)
H22 H 0.1370 1.2257 -0.0885
C34 C 0.0929(3) 1.3101(6) -0.1173(3)
C35 C 0.0833(4) 1.3697(7) -0.1524(4)
H23 H 0.0594 1.4030 -0.1562
C36 C 0.1081(4) 1.3808(8) -0.1817(4)
H24 H 0.1002 1.4196 -0.2064
Zn3 Zn 0.17588(5) 1.35720(8) -0.22369(6)
I5 I 0.23902(4) 1.27213(6) -0.19774(5)
I6 I 0.13024(5) 1.33218(7) -0.29935(4)
Zn1G Zn -0.12604(4) 1.60564(10) -0.05832(5)
N5E N 0.1873(3) 1.4951(5) -0.2184(3)
N11G N 0.4223(3) 0.9770(7) 0.4482(3)
Zn3E Zn 0.17588(5) 1.64280(8) 0.27631(6)
C37 C 0.3877(6) 1.5436(10) 0.6896(5)
C38 C 0.3496(5) 1.5760(13) 0.6839(6)
H25 H 0.3451 1.6114 0.7081
C39 C 0.3388(6) 1.4773(13) 0.5923(6)
C40 C 0.4177(7) 1.5671(12) 0.7303(6)
H26 H 0.4020 1.5885 0.7521
C41 C 0.3999(6) 1.4979(12) 0.6551(5)
H27 H 0.4272 1.4836 0.6617
C42 C 0.3166(7) 1.5674(13) 0.6500(6)
H28 H 0.2937 1.5966 0.6557
C43 C 0.3810(6) 1.4686(13) 0.6133(6)
C44 C 0.3107(7) 1.5239(13) 0.6093(7)
C45 C 0.4405(8) 1.6462(14) 0.7213(7)
H29 H 0.4224 1.6925 0.7065
H30 H 0.4586 1.6286 0.7022
H31 H 0.4557 1.6699 0.7493
C46 C 0.3670(6) 1.4010(16) 0.5486(8)
H32 H 0.3712 1.3696 0.5232
C47 C 0.3306(7) 1.4367(15) 0.5508(7)
H33 H 0.3064 1.4341 0.5296
C48 C 0.4397(10) 1.4871(18) 0.7514(12)
H34 H 0.4210 1.4388 0.7538
H35 H 0.4544 1.5032 0.7810
H36 H 0.4581 1.4667 0.7332
C49 C 0.4393(7) 1.385(2) 0.5960(11)
H37 H 0.4447 1.3460 0.5722
H38 H 0.4446 1.3513 0.6240
H39 H 0.4563 1.4378 0.5986
C50 C 0.3971(7) 1.4133(15) 0.5855(7)
C51 C 0.2724(9) 1.535(3) 0.5769(11)
H40 H 0.2542 1.5702 0.5905
H41 H 0.2609 1.4755 0.5686
H42 H 0.2770 1.5658 0.5504
loop_
_geom_bond_atom_site_label_1
_geom_bond_atom_site_label_2
_geom_bond_site_symmetry_1
_geom_bond_site_symmetry_2
Zn1 I1 1_555 1_555
I2 Zn1 1_555 1_555
N1 Zn1 1_555 1_555
C1 N1 1_555 1_555
H1 C1 1_555 1_555
C2 C1 1_555 1_555
H2 C2 1_555 1_555
C3 C2 1_555 1_555
C4 C3 1_555 1_555
H3 C4 1_555 1_555
C5 N1 1_555 1_555
H4 C5 1_555 1_555
C6 C3 1_555 1_555
N2 C6 1_555 1_555
C7 N2 1_555 1_555
N3 C7 1_555 1_555
C8 N3 1_555 1_555
N4 C6 1_555 1_555
N5 C9 1_555 1_555
C9 H5 1_555 1_555
C10 C9 1_555 1_555
H6 C10 1_555 1_555
C11 C7 1_555 1_555
C12 C11 1_555 1_555
H7 C12 1_555 1_555
C13 N5 1_555 1_555
H8 C13 1_555 1_555
N6 C14 1_555 1_555
C14 H9 1_555 1_555
C15 C14 1_555 1_555
H10 C15 1_555 1_555
C16 C8 1_555 1_555
C17 C16 1_555 1_555
H11 C17 1_555 1_555
C18 N6 1_555 1_555
H12 C18 1_555 1_555
Zn2 N6 1_555 1_555
I3 Zn2 1_555 1_555
I4 Zn2 1_555 1_555
N7 Zn2 1_555 1_555
C19 N7 1_555 1_555
H13 C19 1_555 1_555
C20 C19 1_555 1_555
H14 C20 1_555 1_555
C21 C20 1_555 1_555
C22 C21 1_555 1_555
H15 C22 1_555 1_555
C23 N7 1_555 1_555
H16 C23 1_555 1_555
C24 C21 1_555 1_555
N8 C24 1_555 1_555
C25 N8 1_555 1_555
N9 C25 1_555 1_555
C26 N9 1_555 1_555
N10 C24 1_555 1_555
N11 C27 1_555 1_555
C27 H17 1_555 1_555
C28 C27 1_555 1_555
H18 C28 1_555 1_555
C29 C25 1_555 1_555
C30 C29 1_555 1_555
H19 C30 1_555 1_555
C31 N11 1_555 1_555
H20 C31 1_555 1_555
N12 C32 1_555 1_555
C32 H21 1_555 1_555
C33 C32 1_555 1_555
H22 C33 1_555 1_555
C34 C26 1_555 1_555
C35 C34 1_555 1_555
H23 C35 1_555 1_555
C36 N12 1_555 1_555
H24 C36 1_555 1_555
Zn3 N12 1_555 1_555
I5 Zn3 1_555 1_555
I6 Zn3 1_555 1_555
C37 C38 1_555 1_555
C38 H25 1_555 1_555
C39 C43 1_555 1_555
C40 C37 1_555 1_555
H26 C40 1_555 1_555
C41 C37 1_555 1_555
H27 C41 1_555 1_555
C42 C38 1_555 1_555
H28 C42 1_555 1_555
C43 C41 1_555 1_555
C44 C39 1_555 1_555
C45 C40 1_555 1_555
H29 C45 1_555 1_555
H30 C45 1_555 1_555
H31 C45 1_555 1_555
C46 H32 1_555 1_555
C47 C39 1_555 1_555
H33 C47 1_555 1_555
C48 C40 1_555 1_555
H34 C48 1_555 1_555
H35 C48 1_555 1_555
H36 C48 1_555 1_555
C49 H37 1_555 1_555
H38 C49 1_555 1_555
H39 C49 1_555 1_555
C50 C43 1_555 1_555
C51 C44 1_555 1_555
H40 C51 1_555 1_555
H41 C51 1_555 1_555
H42 C51 1_555 1_555
Zn1G N11 1_555 1_555
N5E Zn3 1_555 1_555
N11G Zn1 1_555 1_555
Zn3E N5 1_555 1_555
C4 C5 1_555 1_555
C8 N4 1_555 1_555
C10 C11 1_555 1_555
C12 C13 1_555 1_555
C15 C16 1_555 1_555
C17 C18 1_555 1_555
C22 C23 1_555 1_555
C26 N10 1_555 1_555
C28 C29 1_555 1_555
C30 C31 1_555 1_555
C33 C34 1_555 1_555
C35 C36 1_555 1_555
C42 C44 1_555 1_555
C46 C47 1_555 1_555
C46 C50 1_555 1_555
C49 C50 1_555 1_555

#END
