
#######################################################################
#
#                 Cambridge Crystallographic Data Centre
#                                CCDC 
#
#######################################################################
#
# If this CIF has been generated from an entry in the Cambridge 
# Structural Database, then it will include bibliographic, chemical, 
# crystal, experimental, refinement or atomic coordinate data resulting 
# from the CCDC's data processing and validation procedures.
#
#######################################################################

data_REXFAD
_symmetry_cell_setting           monoclinic
_symmetry_space_group_name_H-M   'C 2/c'
_symmetry_Int_Tables_number      15
_space_group_name_Hall           '-C 2yn'
loop_
_symmetry_equiv_pos_site_id
_symmetry_equiv_pos_as_xyz
1 x,y,z
2 -x,y,1/2-z
3 1/2+x,1/2+y,z
4 1/2-x,1/2+y,1/2-z
5 -x,-y,-z
6 x,-y,1/2+z
7 1/2-x,1/2-y,-z
8 1/2+x,1/2-y,1/2+z
_cell_length_a                   35.752(9)
_cell_length_b                   14.774(4)
_cell_length_c                   30.594(7)
_cell_angle_alpha                90
_cell_angle_beta                 101.647(4)
_cell_angle_gamma                90
_cell_volume                     15827
loop_
_atom_site_label
_atom_site_type_symbol
_atom_site_fract_x
_atom_site_fract_y
_atom_site_fract_z
Zn1 Zn 0.16637(4) 0.35698(9) 0.27546(5)
I1 I 0.22655(3) 0.26034(6) 0.29400(3)
I2 I 0.11781(3) 0.33581(7) 0.20235(3)
N1 N 0.1361(3) 0.3420(7) 0.3259(4)
C1 C 0.1116(4) 0.4014(9) 0.3321(5)
H1 H 0.1089 0.4545 0.3142
C2 C 0.0892(4) 0.3925(9) 0.3629(4)
H2 H 0.0714 0.4387 0.3660
C3 C 0.0922(3) 0.3171(6) 0.3895(4)
C4 C 0.1202(3) 0.2556(8) 0.3858(4)
H3 H 0.1242 0.2039 0.4047
C5 C 0.1425(4) 0.2695(8) 0.3545(4)
H4 H 0.1626 0.2284 0.3527
C6 C 0.0651(3) 0.3004(7) 0.4206(3)
N2 N 0.0377(3) 0.3613(6) 0.4207(3)
C7 C 0.0157(3) 0.3437(6) 0.4503(4)
N3 N 0.0202(3) 0.2754(6) 0.4794(3)
C8 C 0.0485(3) 0.2189(7) 0.4767(4)
N4 N 0.0722(3) 0.2290(6) 0.4480(3)
N5 N -0.0808(3) 0.5122(7) 0.4411(3)
C9 C -0.0650(3) 0.4741(7) 0.4800(3)
H5 H -0.0757 0.4869 0.5053
C10 C -0.0340(3) 0.4171(7) 0.4851(4)
H6 H -0.0236 0.3885 0.5127
C11 C -0.0187(3) 0.4041(7) 0.4468(3)
C12 C -0.0349(3) 0.4400(8) 0.4064(4)
H7 H -0.0247 0.4293 0.3805
C13 C -0.0664(3) 0.4921(11) 0.4053(3)
H8 H -0.0791 0.5156 0.3773
Zn2 Zn -0.12545(4) 0.60510(10) 0.43032(5)
I3 I -0.10284(3) 0.73414(6) 0.38619(4)
I4 I -0.15259(3) 0.62474(9) 0.49908(4)
N6 N 0.0631(3) -0.0183(7) 0.5580(4)
C14 C 0.0890(4) 0.0088(10) 0.5354(5)
H9 H 0.1108 -0.0286 0.5367
C15 C 0.0870(3) 0.0873(9) 0.5100(4)
H10 H 0.1075 0.1055 0.4966
C16 C 0.0540(3) 0.1378(7) 0.5051(4)
C17 C 0.0262(3) 0.1137(9) 0.5280(4)
H11 H 0.0041 0.1501 0.5273
C18 C 0.0320(3) 0.0320(8) 0.5529(4)
H12 H 0.0120 0.0119 0.5668
Zn3 Zn 0.07443(4) -0.13116(9) 0.59999(5)
I5 I 0.10832(3) -0.24180(6) 0.55794(3)
I6 I 0.01634(3) -0.15541(6) 0.63386(3)
N7 N 0.1148(3) -0.0644(6) 0.6489(3)
C19 C 0.1047(3) 0.0168(6) 0.6613(4)
H13 H 0.0802 0.0399 0.6484
C20 C 0.1289(3) 0.0684(8) 0.6925(4)
H14 H 0.1210 0.1263 0.7007
C21 C 0.1640(4) 0.0356(8) 0.7112(4)
C22 C 0.1740(3) -0.0528(8) 0.6993(4)
H15 H 0.1978 -0.0790 0.7129
C23 C 0.1484(3) -0.0994(7) 0.6676(4)
H16 H 0.1549 -0.1581 0.6590
C24 C 0.1912(3) 0.0908(6) 0.7441(4)
N8 N 0.1805(3) 0.1760(6) 0.7489(3)
C25 C 0.2051(3) 0.2207(7) 0.7802(3)
N9 N 0.2360(3) 0.1892(6) 0.8076(3)
C26 C 0.2428(3) 0.1025(7) 0.7995(4)
N10 N 0.2227(3) 0.0495(6) 0.7668(3)
N11 N 0.1801(3) 0.5056(7) 0.7793(3)
C27 C 0.2118(3) 0.4740(7) 0.8055(4)
H17 H 0.2292 0.5150 0.8229
C28 C 0.2195(3) 0.3833(6) 0.8079(4)
H18 H 0.2416 0.3623 0.8279
C29 C 0.1960(3) 0.3215(7) 0.7820(4)
C30 C 0.1639(3) 0.3562(7) 0.7543(4)
H19 H 0.1468 0.3167 0.7355
C31 C 0.1566(4) 0.4477(6) 0.7538(5)
H20 H 0.1342 0.4703 0.7348
N12 N 0.3336(3) -0.0351(5) 0.8843(3)
C32 C 0.3130(3) -0.0770(7) 0.8490(4)
H21 H 0.3191 -0.1374 0.8424
C33 C 0.2831(3) -0.0339(6) 0.8221(4)
H22 H 0.2672 -0.0657 0.7984
C34 C 0.2762(3) 0.0558(6) 0.8295(3)
C35 C 0.2988(3) 0.0999(8) 0.8645(4)
H23 H 0.2946 0.1620 0.8699
C36 C 0.3276(3) 0.0529(6) 0.8919(4)
H24 H 0.3435 0.0829 0.9162
Zn1E Zn 0.16637(4) 0.64302(9) 0.77546(5)
Zn2G Zn 0.37455(4) -0.10510(10) 0.93032(5)
N11E N 0.1801(3) 0.4944(7) 0.2793(3)
N12G N -0.1664(3) 0.5351(5) 0.3843(3)
C37 C 0.1463(4) 0.0292(12) 0.3484(4)
C38 C 0.1648(4) 0.0113(12) 0.3922(4)
C39 C 0.1421(4) -0.0128(13) 0.4224(4)
H25 H 0.1540 -0.0221 0.4528
C40 C 0.1028(4) -0.024(2) 0.4099(5)
H26 H 0.0882 -0.0469 0.4301
C41 C 0.0858(4) 0.000(2) 0.3666(5)
H27 H 0.0587 0.0019 0.3586
C42 C 0.2078(6) 0.0146(12) 0.4067(6)
H28 H 0.2187 -0.0109 0.3816
C43 C 0.2232(7) 0.1105(15) 0.4147(9)
H29 H 0.2511 0.1088 0.4235
H30 H 0.2126 0.1386 0.4386
H31 H 0.2157 0.1460 0.3873
C44 C 0.2252(8) -0.0432(17) 0.4501(8)
H32 H 0.2532 -0.0383 0.4563
H33 H 0.2178 -0.1067 0.4451
H34 H 0.2155 -0.0199 0.4756
C45 C 0.0852(6) 0.0461(14) 0.2872(8)
H35 H 0.1044 0.0420 0.2675
C46 C 0.0661(11) 0.1400(14) 0.2780(13)
H36 H 0.0534 0.1440 0.2466
H37 H 0.0856 0.1874 0.2847
H38 H 0.0473 0.1481 0.2969
C47 C 0.1068(4) 0.0224(16) 0.3344(4)
C48 C 0.0535(8) -0.0212(17) 0.2681(9)
H39 H 0.0408 -0.0018 0.2382
H40 H 0.0348 -0.0234 0.2876
H41 H 0.0646 -0.0815 0.2665
N13 N 0.1684(5) 0.0494(14) 0.3180(5)
H42 H 0.1577 0.0580 0.2898
H43 H 0.1934 0.0538 0.3266
loop_
_geom_bond_atom_site_label_1
_geom_bond_atom_site_label_2
_geom_bond_site_symmetry_1
_geom_bond_site_symmetry_2
Zn1 I1 1_555 1_555
I2 Zn1 1_555 1_555
N1 Zn1 1_555 1_555
C1 N1 1_555 1_555
H1 C1 1_555 1_555
C2 C1 1_555 1_555
H2 C2 1_555 1_555
C3 C2 1_555 1_555
C4 C3 1_555 1_555
H3 C4 1_555 1_555
C5 N1 1_555 1_555
H4 C5 1_555 1_555
C6 C3 1_555 1_555
N2 C6 1_555 1_555
C7 N2 1_555 1_555
N3 C7 1_555 1_555
C8 N3 1_555 1_555
N4 C6 1_555 1_555
N5 C9 1_555 1_555
C9 H5 1_555 1_555
C10 C9 1_555 1_555
H6 C10 1_555 1_555
C11 C7 1_555 1_555
C12 C11 1_555 1_555
H7 C12 1_555 1_555
C13 N5 1_555 1_555
H8 C13 1_555 1_555
Zn2 N5 1_555 1_555
I3 Zn2 1_555 1_555
I4 Zn2 1_555 1_555
N6 C14 1_555 1_555
C14 H9 1_555 1_555
C15 C14 1_555 1_555
H10 C15 1_555 1_555
C16 C8 1_555 1_555
C17 C16 1_555 1_555
H11 C17 1_555 1_555
C18 N6 1_555 1_555
H12 C18 1_555 1_555
Zn3 N6 1_555 1_555
I5 Zn3 1_555 1_555
I6 Zn3 1_555 1_555
N7 Zn3 1_555 1_555
C19 N7 1_555 1_555
H13 C19 1_555 1_555
C20 C19 1_555 1_555
H14 C20 1_555 1_555
C21 C20 1_555 1_555
C22 C21 1_555 1_555
H15 C22 1_555 1_555
C23 N7 1_555 1_555
H16 C23 1_555 1_555
C24 C21 1_555 1_555
N8 C24 1_555 1_555
C25 N8 1_555 1_555
N9 C25 1_555 1_555
C26 N9 1_555 1_555
N10 C24 1_555 1_555
N11 C27 1_555 1_555
C27 H17 1_555 1_555
C28 C27 1_555 1_555
H18 C28 1_555 1_555
C29 C25 1_555 1_555
C30 C29 1_555 1_555
H19 C30 1_555 1_555
C31 N11 1_555 1_555
H20 C31 1_555 1_555
N12 C32 1_555 1_555
C32 H21 1_555 1_555
C33 C32 1_555 1_555
H22 C33 1_555 1_555
C34 C26 1_555 1_555
C35 C34 1_555 1_555
H23 C35 1_555 1_555
C36 N12 1_555 1_555
H24 C36 1_555 1_555
C37 C38 1_555 1_555
C38 C39 1_555 1_555
C39 H25 1_555 1_555
C40 C39 1_555 1_555
H26 C40 1_555 1_555
C41 C40 1_555 1_555
H27 C41 1_555 1_555
C42 C38 1_555 1_555
H28 C42 1_555 1_555
C43 C42 1_555 1_555
H29 C43 1_555 1_555
H30 C43 1_555 1_555
H31 C43 1_555 1_555
C44 C42 1_555 1_555
H32 C44 1_555 1_555
H33 C44 1_555 1_555
H34 C44 1_555 1_555
C45 H35 1_555 1_555
C46 C45 1_555 1_555
H36 C46 1_555 1_555
H37 C46 1_555 1_555
H38 C46 1_555 1_555
C47 C37 1_555 1_555
C48 C45 1_555 1_555
H39 C48 1_555 1_555
H40 C48 1_555 1_555
H41 C48 1_555 1_555
N13 C37 1_555 1_555
H42 N13 1_555 1_555
H43 N13 1_555 1_555
Zn1E N11 1_555 1_555
Zn2G N12 1_555 1_555
N11E Zn1 1_555 1_555
N12G Zn2 1_555 1_555
C4 C5 1_555 1_555
C8 N4 1_555 1_555
C10 C11 1_555 1_555
C12 C13 1_555 1_555
C15 C16 1_555 1_555
C17 C18 1_555 1_555
C22 C23 1_555 1_555
C26 N10 1_555 1_555
C28 C29 1_555 1_555
C30 C31 1_555 1_555
C33 C34 1_555 1_555
C35 C36 1_555 1_555
C41 C47 1_555 1_555
C45 C47 1_555 1_555

#END
