
#######################################################################
#
#                 Cambridge Crystallographic Data Centre
#                                CCDC 
#
#######################################################################
#
# If this CIF has been generated from an entry in the Cambridge 
# Structural Database, then it will include bibliographic, chemical, 
# crystal, experimental, refinement or atomic coordinate data resulting 
# from the CCDC's data processing and validation procedures.
#
#######################################################################

data_REXFEH
_symmetry_cell_setting           monoclinic
_symmetry_space_group_name_H-M   'C 2/c'
_symmetry_Int_Tables_number      15
_space_group_name_Hall           '-C 2yn'
loop_
_symmetry_equiv_pos_site_id
_symmetry_equiv_pos_as_xyz
1 x,y,z
2 -x,y,1/2-z
3 1/2+x,1/2+y,z
4 1/2-x,1/2+y,1/2-z
5 -x,-y,-z
6 x,-y,1/2+z
7 1/2-x,1/2-y,-z
8 1/2+x,1/2-y,1/2+z
_cell_length_a                   35.602(11)
_cell_length_b                   14.879(5)
_cell_length_c                   30.538(10)
_cell_angle_alpha                90
_cell_angle_beta                 103.153(4)
_cell_angle_gamma                90
_cell_volume                     15752.3
loop_
_atom_site_label
_atom_site_type_symbol
_atom_site_fract_x
_atom_site_fract_y
_atom_site_fract_z
Zn1 Zn 0.58502(5) 0.12687(11) 0.58828(6)
I1 I 0.61502(5) 0.24472(8) 0.54887(5)
I2 I 0.53027(4) 0.14633(9) 0.62771(4)
N1 N 0.5709(4) 0.0186(8) 0.5434(4)
C1 C 0.5951(5) -0.0037(11) 0.5175(6)
H1 H 0.6174 0.0324 0.5192
C2 C 0.5896(4) -0.0749(10) 0.4887(6)
H2 H 0.6062 -0.0856 0.4689
C3 C 0.5590(3) -0.1307(8) 0.4897(4)
C4 C 0.5344(4) -0.1097(10) 0.5160(4)
H3 H 0.5128 -0.1469 0.5164
C5 C 0.5411(4) -0.0345(9) 0.5420(5)
H4 H 0.5234 -0.0196 0.5599
C6 C 0.5518(4) -0.2117(8) 0.4587(4)
N2 N 0.5730(3) -0.2182(6) 0.4284(3)
C7 C 0.5652(4) -0.2912(8) 0.4023(4)
N3 N 0.5379(3) -0.3518(7) 0.4039(4)
C8 C 0.5192(3) -0.3376(8) 0.4365(3)
N4 N 0.5261(3) -0.2706(6) 0.4665(4)
N5 N 0.6379(3) -0.3440(7) 0.3133(4)
C9 C 0.6126(5) -0.4046(10) 0.3197(6)
H5 H 0.6109 -0.4603 0.3041
C10 C 0.5886(5) -0.3889(13) 0.3484(6)
H6 H 0.5708 -0.4343 0.3521
C11 C 0.5893(4) -0.3125(11) 0.3712(5)
C12 C 0.6146(6) -0.2458(11) 0.3623(8)
H7 H 0.6147 -0.1878 0.3753
C13 C 0.6390(6) -0.2649(14) 0.3349(9)
H8 H 0.6573 -0.2209 0.3309
N6 N 0.4254(3) -0.5127(7) 0.4426(4)
C14 C 0.4427(4) -0.4613(8) 0.4773(4)
H9 H 0.4336 -0.4653 0.5042
C15 C 0.4725(3) -0.4037(9) 0.4771(4)
H10 H 0.4829 -0.3681 0.5028
C16 C 0.4873(4) -0.3974(10) 0.4396(4)
C17 C 0.4693(5) -0.4494(13) 0.4016(6)
H11 H 0.4771 -0.4443 0.3739
C18 C 0.4404(5) -0.5067(14) 0.4060(6)
H12 H 0.4301 -0.5452 0.3814
Zn2 Zn 0.38024(4) -0.59530(11) 0.44225(6)
I3 I 0.39446(3) -0.74104(7) 0.40552(4)
I4 I 0.36454(3) -0.58364(9) 0.51859(4)
N7 N 0.3359(3) -0.5355(8) 0.3973(4)
C19 C 0.3147(4) -0.5784(8) 0.3605(5)
H13 H 0.3211 -0.6384 0.3545
C20 C 0.2841(3) -0.5368(7) 0.3317(5)
H14 H 0.2695 -0.5691 0.3067
C21 C 0.2745(3) -0.4490(7) 0.3387(4)
C22 C 0.2959(5) -0.4033(9) 0.3754(5)
H15 H 0.2909 -0.3418 0.3802
C23 C 0.3257(4) -0.4508(9) 0.4058(5)
H16 H 0.3388 -0.4221 0.4327
C24 C 0.2427(4) -0.4058(8) 0.3072(5)
N8 N 0.2232(3) -0.4563(7) 0.2730(3)
C25 C 0.1935(4) -0.4169(9) 0.2464(5)
N9 N 0.1840(3) -0.3301(7) 0.2474(4)
C26 C 0.2078(4) -0.2830(8) 0.2821(4)
N10 N 0.2362(3) -0.3158(6) 0.3129(4)
N11 N 0.1264(4) -0.5624(9) 0.1372(4)
C27 C 0.1199(7) -0.4729(13) 0.1429(8)
H17 H 0.0999 -0.4436 0.1218
C28 C 0.1418(6) -0.4228(10) 0.1790(7)
H18 H 0.1369 -0.3609 0.1828
C29 C 0.1705(4) -0.4674(7) 0.2081(4)
C30 C 0.1775(4) -0.5566(6) 0.2008(4)
H19 H 0.1977 -0.5880 0.2206
C31 C 0.1542(4) -0.6003(9) 0.1638(5)
H20 H 0.1597 -0.6613 0.1584
N12 N 0.1845(3) -0.0017(7) 0.2765(4)
C32 C 0.2160(4) -0.0352(9) 0.3054(5)
H21 H 0.2341 0.0049 0.3230
C33 C 0.2222(4) -0.1269(8) 0.3096(4)
H22 H 0.2430 -0.1490 0.3322
C34 C 0.1988(3) -0.1870(7) 0.2815(4)
C35 C 0.1678(4) -0.1500(9) 0.2521(5)
H23 H 0.1507 -0.1881 0.2318
C36 C 0.1608(4) -0.0595(10) 0.2512(5)
H24 H 0.1380 -0.0373 0.2316
Zn3 Zn 0.17270(5) 0.13454(10) 0.26847(6)
I5 I 0.23324(3) 0.22745(7) 0.29751(4)
I6 I 0.12939(4) 0.15513(7) 0.19041(4)
Zn1G Zn 0.08502(5) -0.62687(11) 0.08828(6)
N5B N 0.1379(3) 0.1560(7) 0.3133(4)
N11G N 0.6264(4) 0.0624(9) 0.6372(4)
Zn3B Zn 0.67270(5) -0.36546(10) 0.26847(6)
O1 O 0.2212(10) -0.5224(17) 0.5999(11)
O2 O 0.2747(9) -0.974(2) 0.5293(13)
C37 C 0.2133(6) -0.7559(14) 0.5632(11)
H25 H 0.1866 -0.7600 0.5630
C38 C 0.2111(8) -0.5962(14) 0.5856(9)
H26 H 0.1843 -0.6074 0.5827
C39 C 0.2904(6) -0.7428(16) 0.5602(11)
H27 H 0.3167 -0.7381 0.5587
C40 C 0.2717(5) -0.8251(14) 0.5507(10)
O3 O 0.3246(7) -0.909(3) 0.5397(14)
C41 C 0.2327(6) -0.6745(14) 0.5716(9)
C42 C 0.2717(6) -0.6669(15) 0.5720(9)
H28 H 0.2852 -0.6121 0.5799
C43 C 0.2337(5) -0.8309(14) 0.5550(11)
H29 H 0.2214 -0.8879 0.5524
N13 N 0.2910(8) -0.9041(16) 0.5397(14)
O4 O 0.2678(10) -0.206(2) 0.4138(10)
C44 C 0.3000(10) -0.376(2) 0.5293(9)
H30 H 0.2923 -0.4377 0.5286
C45 C 0.2886(12) -0.327(2) 0.4901(9)
H31 H 0.2750 -0.3526 0.4626
C46 C 0.3219(10) -0.3432(18) 0.5696(8)
C47 C 0.2858(10) -0.182(2) 0.4514(9)
H32 H 0.2926 -0.1201 0.4538
O5 O 0.3230(11) -0.471(3) 0.6085(10)
C48 C 0.2985(12) -0.236(2) 0.4939(9)
C49 C 0.3285(11) -0.2511(18) 0.5704(10)
H33 H 0.3401 -0.2244 0.5985
C50 C 0.3194(12) -0.195(2) 0.5329(11)
H34 H 0.3270 -0.1339 0.5339
O6 O 0.3545(11) -0.365(3) 0.6427(10)
N14 N 0.3353(12) -0.396(3) 0.6091(10)
loop_
_geom_bond_atom_site_label_1
_geom_bond_atom_site_label_2
_geom_bond_site_symmetry_1
_geom_bond_site_symmetry_2
Zn1 I1 1_555 1_555
I2 Zn1 1_555 1_555
N1 Zn1 1_555 1_555
C1 N1 1_555 1_555
H1 C1 1_555 1_555
C2 C1 1_555 1_555
H2 C2 1_555 1_555
C3 C2 1_555 1_555
C4 C3 1_555 1_555
H3 C4 1_555 1_555
C5 N1 1_555 1_555
H4 C5 1_555 1_555
C6 C3 1_555 1_555
N2 C6 1_555 1_555
C7 N2 1_555 1_555
N3 C7 1_555 1_555
C8 N3 1_555 1_555
N4 C6 1_555 1_555
N5 C9 1_555 1_555
C9 H5 1_555 1_555
C10 C9 1_555 1_555
H6 C10 1_555 1_555
C11 C7 1_555 1_555
C12 C11 1_555 1_555
H7 C12 1_555 1_555
C13 N5 1_555 1_555
H8 C13 1_555 1_555
N6 C14 1_555 1_555
C14 H9 1_555 1_555
C15 C14 1_555 1_555
H10 C15 1_555 1_555
C16 C8 1_555 1_555
C17 C16 1_555 1_555
H11 C17 1_555 1_555
C18 N6 1_555 1_555
H12 C18 1_555 1_555
Zn2 N6 1_555 1_555
I3 Zn2 1_555 1_555
I4 Zn2 1_555 1_555
N7 Zn2 1_555 1_555
C19 N7 1_555 1_555
H13 C19 1_555 1_555
C20 C19 1_555 1_555
H14 C20 1_555 1_555
C21 C20 1_555 1_555
C22 C21 1_555 1_555
H15 C22 1_555 1_555
C23 N7 1_555 1_555
H16 C23 1_555 1_555
C24 C21 1_555 1_555
N8 C24 1_555 1_555
C25 N8 1_555 1_555
N9 C25 1_555 1_555
C26 N9 1_555 1_555
N10 C24 1_555 1_555
N11 C27 1_555 1_555
C27 H17 1_555 1_555
C28 C27 1_555 1_555
H18 C28 1_555 1_555
C29 C25 1_555 1_555
C30 C29 1_555 1_555
H19 C30 1_555 1_555
C31 N11 1_555 1_555
H20 C31 1_555 1_555
N12 C32 1_555 1_555
C32 H21 1_555 1_555
C33 C32 1_555 1_555
H22 C33 1_555 1_555
C34 C26 1_555 1_555
C35 C34 1_555 1_555
H23 C35 1_555 1_555
C36 N12 1_555 1_555
H24 C36 1_555 1_555
Zn3 N12 1_555 1_555
I5 Zn3 1_555 1_555
I6 Zn3 1_555 1_555
O1 C38 1_555 1_555
O2 N13 1_555 1_555
C37 H25 1_555 1_555
C38 H26 1_555 1_555
C39 H27 1_555 1_555
C40 C39 1_555 1_555
O3 N13 1_555 1_555
C41 C37 1_555 1_555
C42 C39 1_555 1_555
H28 C42 1_555 1_555
C43 C37 1_555 1_555
H29 C43 1_555 1_555
N13 C40 1_555 1_555
O4 C47 1_555 1_555
C44 H30 1_555 1_555
C45 C44 1_555 1_555
H31 C45 1_555 1_555
C46 C44 1_555 1_555
C47 H32 1_555 1_555
O5 N14 1_555 1_555
C48 C45 1_555 1_555
C49 C46 1_555 1_555
H33 C49 1_555 1_555
C50 C48 1_555 1_555
H34 C50 1_555 1_555
O6 N14 1_555 1_555
N14 C46 1_555 1_555
Zn1G N11 1_555 1_555
N5B Zn3 1_555 1_555
N11G Zn1 1_555 1_555
Zn3B N5 1_555 1_555
C4 C5 1_555 1_555
C8 N4 1_555 1_555
C10 C11 1_555 1_555
C12 C13 1_555 1_555
C15 C16 1_555 1_555
C17 C18 1_555 1_555
C22 C23 1_555 1_555
C26 N10 1_555 1_555
C28 C29 1_555 1_555
C30 C31 1_555 1_555
C33 C34 1_555 1_555
C35 C36 1_555 1_555
C38 C41 1_555 1_555
C40 C43 1_555 1_555
C41 C42 1_555 1_555
C47 C48 1_555 1_555
C49 C50 1_555 1_555

#END
