
#######################################################################
#
#                 Cambridge Crystallographic Data Centre
#                                CCDC 
#
#######################################################################
#
# If this CIF has been generated from an entry in the Cambridge 
# Structural Database, then it will include bibliographic, chemical, 
# crystal, experimental, refinement or atomic coordinate data resulting 
# from the CCDC's data processing and validation procedures.
#
#######################################################################

data_REXGAC
_symmetry_cell_setting           orthorhombic
_symmetry_space_group_name_H-M   'P n m a'
_symmetry_Int_Tables_number      62
_space_group_name_Hall           '-P 2ac 2n'
loop_
_symmetry_equiv_pos_site_id
_symmetry_equiv_pos_as_xyz
1 x,y,z
2 1/2-x,-y,1/2+z
3 1/2+x,1/2-y,1/2-z
4 -x,1/2+y,-z
5 -x,-y,-z
6 1/2+x,y,1/2-z
7 1/2-x,1/2+y,1/2+z
8 x,1/2-y,z
_cell_length_a                   15.162(1)
_cell_length_b                   15.290(1)
_cell_length_c                   23.067(1)
_cell_angle_alpha                90
_cell_angle_beta                 90
_cell_angle_gamma                90
_cell_volume                     5347.55
loop_
_atom_site_label
_atom_site_type_symbol
_atom_site_fract_x
_atom_site_fract_y
_atom_site_fract_z
Ag1 Ag 0.4487(1) 0.7500 0.1570(1)
O1 O 0.4633(2) 0.6095(2) 0.1596(2)
C1 C 0.3947(2) 0.5742(2) 0.1796(2)
O2 O 0.3263(2) 0.6114(2) 0.1929(2)
C2 C 0.4011(2) 0.4769(2) 0.1899(2)
C3 C 0.3114(2) 0.4325(2) 0.1865(2)
H1 H 0.4251 0.4672 0.2279
H2 H 0.4407 0.4516 0.1621
N1 N 0.3165(2) 0.3344(2) 0.1858(1)
H3 H 0.2827 0.4517 0.1517
H4 H 0.2755 0.4503 0.2187
C4 C 0.2236(2) 0.2997(2) 0.1881(2)
C5 C 0.3589(2) 0.2987(2) 0.1316(2)
C6 C 0.3665(2) 0.2989(2) 0.2367(2)
H5 H 0.1906 0.3208 0.1554
H6 H 0.1957 0.3208 0.2228
H7 H 0.4185 0.3195 0.1293
H8 H 0.3277 0.3195 0.0981
H9 H 0.3397 0.3197 0.2718
H10 H 0.4262 0.3197 0.2357
O1G O 0.4633(2) -0.1095(2) 0.1596(2)
C1G C 0.3947(2) -0.0742(2) 0.1796(2)
O2G O 0.3263(2) -0.1114(2) 0.1929(2)
C2G C 0.4011(2) 0.0231(2) 0.1899(2)
C3G C 0.3114(2) 0.0675(2) 0.1865(2)
H1G H 0.4251 0.0328 0.2279
H2G H 0.4407 0.0484 0.1621
N1G N 0.3165(2) 0.1656(2) 0.1858(1)
H3G H 0.2827 0.0483 0.1517
H4G H 0.2755 0.0497 0.2187
C4G C 0.2236(2) 0.2003(2) 0.1881(2)
C5G C 0.3589(2) 0.2013(2) 0.1316(2)
C6G C 0.3665(2) 0.2011(2) 0.2367(2)
H5G H 0.1906 0.1792 0.1554
H6G H 0.1957 0.1792 0.2228
H7G H 0.4185 0.1805 0.1293
H8G H 0.3277 0.1805 0.0981
H9G H 0.3397 0.1803 0.2718
H10G H 0.4262 0.1803 0.2357
Ag1_2 Ag 0.4487(1) -0.2500 0.1570(1)
O1G_2 O 0.4633(2) 0.8905(2) 0.1596(2)
O3 O 0.3462(2) 0.5069(2) -0.0389(2)
O4 O 0.3682(2) 0.4958(2) 0.0563(2)
C7 C 0.3209(2) 0.5077(2) 0.0130(2)
C8 C 0.2224(2) 0.5211(2) 0.0245(2)
C9 C 0.1695(2) 0.5664(2) -0.0227(2)
N2 N 0.1710(2) 0.6651(2) -0.0202(2)
C10 C 0.1288(2) 0.7012(2) -0.0743(2)
C11 C 0.1203(2) 0.7002(2) 0.0307(2)
C12 C 0.2638(2) 0.7009(2) -0.0168(2)
H11 H 0.2157 0.5539 0.0597
H12 H 0.1968 0.4645 0.0310
H13 H 0.1090 0.5485 -0.0192
H14 H 0.1903 0.5475 -0.0599
H15 H 0.0692 0.6802 -0.0762
H16 H 0.1597 0.6802 -0.1078
H17 H 0.1458 0.6791 0.0661
H18 H 0.0608 0.6791 0.0285
H19 H 0.2975 0.6798 -0.0491
H20 H 0.2910 0.6798 0.0182
Ag2 Ag 0.4877(1) 0.5008(1) -0.0591(1)
O3G O 0.3462(2) 0.9931(2) -0.0389(2)
O4G O 0.3682(2) 1.0042(2) 0.0563(2)
C7G C 0.3209(2) 0.9923(2) 0.0130(2)
C8G C 0.2224(2) 0.9789(2) 0.0245(2)
C9G C 0.1695(2) 0.9336(2) -0.0227(2)
N2G N 0.1710(2) 0.8349(2) -0.0202(2)
C10G C 0.1288(2) 0.7988(2) -0.0743(2)
C11G C 0.1203(2) 0.7998(2) 0.0307(2)
C12G C 0.2638(2) 0.7991(2) -0.0168(2)
H11G H 0.2157 0.9461 0.0597
H12G H 0.1968 1.0355 0.0310
H13G H 0.1090 0.9515 -0.0192
H14G H 0.1903 0.9525 -0.0599
H15G H 0.0692 0.8198 -0.0762
H16G H 0.1597 0.8198 -0.1078
H17G H 0.1458 0.8209 0.0661
H18G H 0.0608 0.8209 0.0285
H19G H 0.2975 0.8202 -0.0491
H20G H 0.2910 0.8202 0.0182
Ag2D Ag 0.5123(1) 0.4992(1) 0.0591(1)
O3D O 0.6538(2) 0.4931(2) 0.0389(2)
O4D O 0.6318(2) 0.5042(2) -0.0563(2)
Ag2C Ag 0.5123(1) 1.0008(1) 0.0591(1)
Ag2G Ag 0.4877(1) 0.9992(1) -0.0591(1)
Cl1 Cl 0.0281(1) 0.5039(1) 0.1472(1)
O5 O 0.0611(2) 0.4362(2) 0.1790(2)
O6 O 0.0876(2) 0.5717(2) 0.1552(2)
O7 O 0.0364(2) 0.4762(2) 0.0904(2)
O8 O -0.0552(2) 0.5184(2) 0.1616(2)
O9 O 0.2471(2) 0.7500 0.1326(2)
O10 O 0.0210(2) 0.7500 0.1999(2)
O11 O 0.5130(2) 0.2500 0.3159(2)
O12 O 0.4137(2) 0.6111(2) -0.1555(2)
O13 O 0.2701(2) 0.6123(2) -0.1700(2)
C13 C 0.3417(2) 0.5754(2) -0.1673(2)
C14 C 0.3474(2) 0.4772(2) -0.1779(2)
C15 C 0.2599(2) 0.4331(2) -0.1687(2)
N3 N 0.2647(2) 0.3338(2) -0.1684(1)
C16 C 0.3140(2) 0.2990(2) -0.2205(2)
C17 C 0.1722(2) 0.2991(2) -0.1690(2)
C18 C 0.3104(2) 0.2989(2) -0.1155(2)
H21 H 0.3652 0.4678 -0.2174
H22 H 0.3912 0.4518 -0.1531
H23 H 0.2369 0.4523 -0.1321
H24 H 0.2193 0.4511 -0.1983
H25 H 0.2863 0.3200 -0.2552
H26 H 0.3737 0.3200 -0.2199
H27 H 0.1418 0.3202 -0.1353
H28 H 0.1417 0.3202 -0.2027
H29 H 0.3700 0.3200 -0.1146
H30 H 0.2807 0.3200 -0.0815
Ag3 Ag 0.3956(1) 0.7500 -0.1550(1)
O12G O 0.4137(2) -0.1111(2) -0.1555(2)
O13G O 0.2701(2) -0.1123(2) -0.1700(2)
C13G C 0.3417(2) -0.0754(2) -0.1673(2)
C14G C 0.3474(2) 0.0228(2) -0.1779(2)
C15G C 0.2599(2) 0.0669(2) -0.1687(2)
N3G N 0.2647(2) 0.1662(2) -0.1684(1)
C16G C 0.3140(2) 0.2010(2) -0.2205(2)
C17G C 0.1722(2) 0.2009(2) -0.1690(2)
C18G C 0.3104(2) 0.2011(2) -0.1155(2)
H21G H 0.3652 0.0322 -0.2174
H22G H 0.3912 0.0482 -0.1531
H23G H 0.2369 0.0477 -0.1321
H24G H 0.2193 0.0489 -0.1983
H25G H 0.2863 0.1800 -0.2552
H26G H 0.3737 0.1800 -0.2199
H27G H 0.1418 0.1798 -0.1353
H28G H 0.1417 0.1798 -0.2027
H29G H 0.3700 0.1800 -0.1146
H30G H 0.2807 0.1800 -0.0815
O12G_2 O 0.4137(2) 0.8889(2) -0.1555(2)
Ag3_2 Ag 0.3956(1) -0.2500 -0.1550(1)
loop_
_geom_bond_atom_site_label_1
_geom_bond_atom_site_label_2
_geom_bond_site_symmetry_1
_geom_bond_site_symmetry_2
Ag1 O1 1_555 1_555
O1 C1 1_555 1_555
C1 O2 1_555 1_555
C2 C1 1_555 1_555
C3 C2 1_555 1_555
H1 C2 1_555 1_555
H2 C2 1_555 1_555
N1 C3 1_555 1_555
H3 C3 1_555 1_555
H4 C3 1_555 1_555
C4 N1 1_555 1_555
C5 N1 1_555 1_555
C6 N1 1_555 1_555
H5 C4 1_555 1_555
H6 C4 1_555 1_555
H7 C5 1_555 1_555
H8 C5 1_555 1_555
H9 C6 1_555 1_555
H10 C6 1_555 1_555
O3 C7 1_555 1_555
O4 C7 1_555 1_555
C7 C8 1_555 1_555
C8 C9 1_555 1_555
C9 N2 1_555 1_555
N2 C10 1_555 1_555
C10 H15 1_555 1_555
C11 N2 1_555 1_555
C12 N2 1_555 1_555
H11 C8 1_555 1_555
H12 C8 1_555 1_555
H13 C9 1_555 1_555
H14 C9 1_555 1_555
H16 C10 1_555 1_555
H17 C11 1_555 1_555
H18 C11 1_555 1_555
H19 C12 1_555 1_555
H20 C12 1_555 1_555
Ag2 O3 1_555 1_555
Cl1 O5 1_555 1_555
O6 Cl1 1_555 1_555
O7 Cl1 1_555 1_555
O8 Cl1 1_555 1_555
O12 C13 1_555 1_555
O13 C13 1_555 1_555
C13 C14 1_555 1_555
C14 C15 1_555 1_555
C15 N3 1_555 1_555
N3 C16 1_555 1_555
C16 H25 1_555 1_555
C17 N3 1_555 1_555
C18 N3 1_555 1_555
H21 C14 1_555 1_555
H22 C14 1_555 1_555
H23 C15 1_555 1_555
H24 C15 1_555 1_555
H26 C16 1_555 1_555
H27 C17 1_555 1_555
H28 C17 1_555 1_555
H29 C18 1_555 1_555
H30 C18 1_555 1_555
Ag3 O12 1_555 1_555
O1G C1G 1_555 1_555
C1G O2G 1_555 1_555
C2G C1G 1_555 1_555
C3G C2G 1_555 1_555
H1G C2G 1_555 1_555
H2G C2G 1_555 1_555
N1G C3G 1_555 1_555
H3G C3G 1_555 1_555
H4G C3G 1_555 1_555
C4G C4 1_555 1_555
C5G C5 1_555 1_555
C6G C6 1_555 1_555
H5G C4G 1_555 1_555
H6G C4G 1_555 1_555
H7G C5G 1_555 1_555
H8G C5G 1_555 1_555
H9G C6G 1_555 1_555
H10G C6G 1_555 1_555
Ag1_2 O1G 1_555 1_555
O1G_2 Ag1 1_555 1_555
O3G C7G 1_555 1_555
O4G C7G 1_555 1_555
C7G C8G 1_555 1_555
C8G C9G 1_555 1_555
C9G N2G 1_555 1_555
N2G C10G 1_555 1_555
C10G C10 1_555 1_555
C11G C11 1_555 1_555
C12G C12 1_555 1_555
H11G C8G 1_555 1_555
H12G C8G 1_555 1_555
H13G C9G 1_555 1_555
H14G C9G 1_555 1_555
H15G C10G 1_555 1_555
H16G C10G 1_555 1_555
H17G C11G 1_555 1_555
H18G C11G 1_555 1_555
H19G C12G 1_555 1_555
H20G C12G 1_555 1_555
Ag2D O4 1_555 1_555
O3D Ag2D 1_555 1_555
O4D Ag2 1_555 1_555
Ag2C O4G 1_555 1_555
Ag2G O3G 1_555 1_555
O12G C13G 1_555 1_555
O13G C13G 1_555 1_555
C13G C14G 1_555 1_555
C14G C15G 1_555 1_555
C15G N3G 1_555 1_555
N3G C16G 1_555 1_555
C16G C16 1_555 1_555
C17G C17 1_555 1_555
C18G C18 1_555 1_555
H21G C14G 1_555 1_555
H22G C14G 1_555 1_555
H23G C15G 1_555 1_555
H24G C15G 1_555 1_555
H25G C16G 1_555 1_555
H26G C16G 1_555 1_555
H27G C17G 1_555 1_555
H28G C17G 1_555 1_555
H29G C18G 1_555 1_555
H30G C18G 1_555 1_555
O12G_2 Ag3 1_555 1_555
Ag3_2 O12G 1_555 1_555
N1G C4G 1_555 1_555
N1G C5G 1_555 1_555
N1G C6G 1_555 1_555
N2G C11G 1_555 1_555
N2G C12G 1_555 1_555
N3G C17G 1_555 1_555
N3G C18G 1_555 1_555

#END
