
#######################################################################
#
#                 Cambridge Crystallographic Data Centre
#                                CCDC 
#
#######################################################################
#
# If this CIF has been generated from an entry in the Cambridge 
# Structural Database, then it will include bibliographic, chemical, 
# crystal, experimental, refinement or atomic coordinate data resulting 
# from the CCDC's data processing and validation procedures.
#
#######################################################################

data_REXKEK
_symmetry_cell_setting           monoclinic
_symmetry_space_group_name_H-M   'P 21/c'
_symmetry_Int_Tables_number      14
_space_group_name_Hall           '-P 2ybc'
loop_
_symmetry_equiv_pos_site_id
_symmetry_equiv_pos_as_xyz
1 x,y,z
2 -x,1/2+y,1/2-z
3 -x,-y,-z
4 x,1/2-y,1/2+z
_cell_length_a                   13.244(2)
_cell_length_b                   10.349(1)
_cell_length_c                   7.086(1)
_cell_angle_alpha                90
_cell_angle_beta                 102.84(1)
_cell_angle_gamma                90
_cell_volume                     946.936
loop_
_atom_site_label
_atom_site_type_symbol
_atom_site_fract_x
_atom_site_fract_y
_atom_site_fract_z
Cd1 Cd 0.3161(1) 0.1711(1) 0.1355(1)
S1 S 0.1335(1) -0.2012(1) 0.2456(2)
N1 N 0.3870(2) -0.0462(2) 0.1201(3)
C1 C 0.2268(2) -0.0900(2) 0.2061(3)
C2 C 0.1007(2) 0.0512(3) 0.2522(4)
C3 C 0.0675(2) -0.0715(3) 0.3395(5)
N2 N 0.3132(2) -0.1346(2) 0.1631(4)
Cl1 Cl 0.4434(1) 0.1905(1) 0.4973(1)
Cl2 Cl 0.2177(1) 0.1399(1) -0.2416(1)
N3 N 0.2056(2) 0.0304(2) 0.2207(3)
H1 H 0.4477 -0.0540 0.2066
H2 H 0.3978 -0.0618 0.0012
H3 H 0.1013 0.1222 0.3396
H4 H 0.0533 0.0711 0.1323
H5 H 0.0871 -0.0689 0.4783
H6 H -0.0062 -0.0824 0.3010
H7 H 0.3251 -0.2202 0.1621
Cd1C Cd 0.3161(1) 0.3289(1) 0.6355(1)
Cl2C Cl 0.2177(1) 0.3601(1) 0.2584(1)
Cl1C Cl 0.4434(1) 0.3095(1) -0.0027(1)
Cd1C_2 Cd 0.3161(1) 0.3289(1) -0.3645(1)
O1 O 0.6356(2) 0.0936(2) 0.3109(3)
H8 H 0.6869 0.0270 0.3193
H9 H 0.5928 0.0651 0.3958
loop_
_geom_bond_atom_site_label_1
_geom_bond_atom_site_label_2
_geom_bond_site_symmetry_1
_geom_bond_site_symmetry_2
Cd1 N1 1_555 1_555
S1 C1 1_555 1_555
N1 N2 1_555 1_555
C1 N2 1_555 1_555
C2 C3 1_555 1_555
C3 S1 1_555 1_555
N2 H7 1_555 1_555
Cl1 Cd1 1_555 1_555
Cl2 Cd1 1_555 1_555
N3 Cd1 1_555 1_555
O1 H8 1_555 1_555
H1 N1 1_555 1_555
H2 N1 1_555 1_555
H3 C2 1_555 1_555
H4 C2 1_555 1_555
H5 C3 1_555 1_555
H6 C3 1_555 1_555
H9 O1 1_555 1_555
Cd1C Cl1 1_555 1_555
Cl2C Cd1 1_555 1_555
Cl1C Cd1 1_555 1_555
Cd1C_2 Cl2 1_555 1_555
C1 N3 1_555 1_555
C2 N3 1_555 1_555
Cd1C Cl2C 1_555 1_555
Cl1C Cd1C_2 1_555 1_555

#END
