
#######################################################################
#
#                 Cambridge Crystallographic Data Centre
#                                CCDC 
#
#######################################################################
#
# If this CIF has been generated from an entry in the Cambridge 
# Structural Database, then it will include bibliographic, chemical, 
# crystal, experimental, refinement or atomic coordinate data resulting 
# from the CCDC's data processing and validation procedures.
#
#######################################################################

data_REXRUJ
_symmetry_cell_setting           monoclinic
_symmetry_space_group_name_H-M   'P 21/c'
_symmetry_Int_Tables_number      14
_space_group_name_Hall           '-P 2ybc'
loop_
_symmetry_equiv_pos_site_id
_symmetry_equiv_pos_as_xyz
1 x,y,z
2 -x,1/2+y,1/2-z
3 -x,-y,-z
4 x,1/2-y,1/2+z
_cell_length_a                   8.439(5)
_cell_length_b                   11.404(5)
_cell_length_c                   17.255(5)
_cell_angle_alpha                90
_cell_angle_beta                 119.279(17)
_cell_angle_gamma                90
_cell_volume                     1448.45
loop_
_atom_site_label
_atom_site_type_symbol
_atom_site_fract_x
_atom_site_fract_y
_atom_site_fract_z
Cd1 Cd 0.38948(2) 0.848476(13) 0.485098(10)
N1 N 1.0058(3) 0.36942(18) 0.72030(13)
N2 N 0.8649(3) 0.29673(19) 0.68302(14)
N3 N 0.8482(3) 0.26275(17) 0.60665(13)
O1 O 0.6268(3) 0.73220(19) 0.57878(12)
O2 O 0.4313(3) 0.78017(18) 0.62093(12)
O3 O 0.4666(2) 0.59993(18) 0.88675(11)
O4 O 0.7194(2) 0.51018(15) 0.98637(10)
C1 C 0.8967(3) 0.50411(19) 0.79596(14)
C2 C 0.8106(3) 0.5792(2) 0.72328(15)
H1 H 0.8501 0.5831 0.6816
C3 C 0.6662(3) 0.64817(17) 0.71289(15)
C4 C 0.6078(3) 0.64308(17) 0.77532(14)
H2 H 0.5113 0.6897 0.7685
C5 C 0.6928(3) 0.56882(18) 0.84772(14)
C6 C 0.8388(3) 0.5002(2) 0.85788(15)
H3 H 0.8975 0.4513 0.9070
C7 C 1.0511(3) 0.4265(2) 0.80532(15)
H4 H 1.1600 0.4735 0.8250
H5 H 1.0759 0.3671 0.8500
C8 C 0.9807(3) 0.3142(2) 0.59389(16)
C9 C 1.0840(3) 0.3845(2) 0.66814(16)
C10 C 1.2326(4) 0.4480(3) 0.6766(2)
H6 H 1.3013 0.4956 0.7255
C11 C 1.2710(4) 0.4364(3) 0.6099(2)
H7 H 1.3712 0.4760 0.6141
C12 C 1.1667(5) 0.3670(3) 0.5339(2)
H8 H 1.1988 0.3633 0.4895
C13 C 1.0193(4) 0.3051(3) 0.52424(19)
H9 H 0.9490 0.2596 0.4742
C14 C 0.5690(3) 0.7251(2) 0.63255(14)
C15 C 0.6226(3) 0.55911(19) 0.91206(14)
Cd1A Cd 0.61052(2) 0.348476(13) 1.014902(10)
Cd1B Cd 0.61052(2) 0.151524(13) 0.514902(10)
Cd1C Cd 0.38948(2) 0.651524(13) 0.985098(10)
N3B N 0.1518(3) 0.73725(17) 0.39335(13)
O3C O 0.4666(2) 0.90007(18) 0.38675(11)
O4A O 0.2806(2) 1.01018(15) 0.51363(10)
loop_
_geom_bond_atom_site_label_1
_geom_bond_atom_site_label_2
_geom_bond_site_symmetry_1
_geom_bond_site_symmetry_2
Cd1 O1 1_555 1_555
N1 N2 1_555 1_555
N2 N3 1_555 1_555
N3 C8 1_555 1_555
O1 C14 1_555 1_555
O2 Cd1 1_555 1_555
O3 C15 1_555 1_555
O4 C15 1_555 1_555
C1 C2 1_555 1_555
C2 H1 1_555 1_555
C3 C2 1_555 1_555
C4 C3 1_555 1_555
H2 C4 1_555 1_555
C5 C4 1_555 1_555
C6 C1 1_555 1_555
H3 C6 1_555 1_555
C7 N1 1_555 1_555
H4 C7 1_555 1_555
H5 C7 1_555 1_555
C8 C9 1_555 1_555
C9 N1 1_555 1_555
C10 C9 1_555 1_555
H6 C10 1_555 1_555
C11 C10 1_555 1_555
H7 C11 1_555 1_555
C12 C11 1_555 1_555
H8 C12 1_555 1_555
C13 C8 1_555 1_555
H9 C13 1_555 1_555
C14 O2 1_555 1_555
C15 C5 1_555 1_555
Cd1A O4 1_555 1_555
Cd1B N3 1_555 1_555
Cd1C O3 1_555 1_555
N3B Cd1 1_555 1_555
O3C Cd1 1_555 1_555
O4A Cd1 1_555 1_555
C1 C7 1_555 1_555
C3 C14 1_555 1_555
C5 C6 1_555 1_555
C12 C13 1_555 1_555

#END
