
#######################################################################
#
#                 Cambridge Crystallographic Data Centre
#                                CCDC 
#
#######################################################################
#
# If this CIF has been generated from an entry in the Cambridge 
# Structural Database, then it will include bibliographic, chemical, 
# crystal, experimental, refinement or atomic coordinate data resulting 
# from the CCDC's data processing and validation procedures.
#
#######################################################################

data_REXRUJ01
_symmetry_cell_setting           monoclinic
_symmetry_space_group_name_H-M   'P 21/c'
_symmetry_Int_Tables_number      14
_space_group_name_Hall           '-P 2ybc'
loop_
_symmetry_equiv_pos_site_id
_symmetry_equiv_pos_as_xyz
1 x,y,z
2 -x,1/2+y,1/2-z
3 -x,-y,-z
4 x,1/2-y,1/2+z
_cell_length_a                   11.3010(6)
_cell_length_b                   9.1272(5)
_cell_length_c                   16.8393(7)
_cell_angle_alpha                90
_cell_angle_beta                 127.069(3)
_cell_angle_gamma                90
_cell_volume                     1385.9
loop_
_atom_site_label
_atom_site_type_symbol
_atom_site_fract_x
_atom_site_fract_y
_atom_site_fract_z
Cd1 Cd 0.79921(3) 0.05076(3) 0.392553(19)
N1 N 0.8148(4) 0.5318(4) 0.7716(3)
N2 N 0.9474(4) 0.5558(4) 0.7965(3)
N3 N 0.9343(4) 0.6376(4) 0.7264(3)
O1 O 1.0567(3) 0.1495(3) 0.50612(19)
O2 O 0.8650(3) 0.2525(4) 0.4869(2)
O3 O 1.5628(3) 0.3572(3) 0.7646(2)
O4 O 1.5888(3) 0.5294(3) 0.8655(2)
C1 C 1.1271(4) 0.5632(4) 0.7070(3)
C2 C 1.0378(4) 0.4613(4) 0.6320(3)
H1 H 0.9356 0.4634 0.5979
C3 C 1.1003(4) 0.3568(4) 0.6081(3)
C4 C 1.2532(4) 0.3531(4) 0.6586(3)
H2 H 1.2949 0.2838 0.6417
C5 C 1.3430(4) 0.4526(4) 0.7340(3)
C6 C 1.2794(4) 0.5589(4) 0.7565(3)
H3 H 1.3397 0.6281 0.8054
C7 C 1.0639(5) 0.6833(5) 0.7340(4)
H4 H 1.1400 0.7153 0.8016
H5 H 1.0374 0.7665 0.6903
C8 C 0.7893(5) 0.6727(6) 0.6534(3)
C9 C 0.7120(5) 0.6019(6) 0.6828(3)
C10 C 0.5580(5) 0.6152(6) 0.6271(3)
H6 H 0.5052 0.5657 0.6449
C11 C 0.4886(5) 0.7043(6) 0.5453(4)
H7 H 0.3861 0.7148 0.5064
C12 C 0.5688(6) 0.7816(7) 0.5180(4)
H8 H 0.5184 0.8462 0.4646
C13 C 0.7198(5) 0.7626(6) 0.5690(4)
H9 H 0.7717 0.8066 0.5488
C14 C 1.0014(4) 0.2475(4) 0.5289(3)
C15 C 1.5091(4) 0.4453(4) 0.7918(3)
Cd1B Cd 1.20079(3) -0.05076(3) 0.607447(19)
Cd1C Cd 0.79921(3) 0.44924(3) 0.892553(19)
Cd1C_2 Cd 1.79921(3) 0.44924(3) 0.892553(19)
N1C N 0.8148(4) -0.0318(4) 0.2716(3)
O1B O 0.9433(3) -0.1495(3) 0.49388(19)
O3C O 0.5628(3) 0.1428(3) 0.2646(2)
O4C O 0.5888(3) -0.0294(3) 0.3655(2)
loop_
_geom_bond_atom_site_label_1
_geom_bond_atom_site_label_2
_geom_bond_site_symmetry_1
_geom_bond_site_symmetry_2
Cd1 O1 1_555 1_555
N1 N2 1_555 1_555
N2 N3 1_555 1_555
N3 C7 1_555 1_555
O1 C14 1_555 1_555
O2 Cd1 1_555 1_555
O3 C15 1_555 1_555
O4 C15 1_555 1_555
C1 C2 1_555 1_555
C2 H1 1_555 1_555
C3 C2 1_555 1_555
C4 C3 1_555 1_555
H2 C4 1_555 1_555
C5 C4 1_555 1_555
C6 C1 1_555 1_555
H3 C6 1_555 1_555
C7 C1 1_555 1_555
H4 C7 1_555 1_555
H5 C7 1_555 1_555
C8 N3 1_555 1_555
C9 N1 1_555 1_555
C10 C9 1_555 1_555
H6 C10 1_555 1_555
C11 C10 1_555 1_555
H7 C11 1_555 1_555
C12 C11 1_555 1_555
H8 C12 1_555 1_555
C13 C8 1_555 1_555
H9 C13 1_555 1_555
C14 O2 1_555 1_555
C15 C5 1_555 1_555
Cd1B O1 1_555 1_555
Cd1C N1 1_555 1_555
Cd1C_2 O3 1_555 1_555
N1C Cd1 1_555 1_555
O1B Cd1 1_555 1_555
O3C Cd1 1_555 1_555
O4C Cd1 1_555 1_555
O4 Cd1C_2 1_555 1_555
C3 C14 1_555 1_555
C5 C6 1_555 1_555
C8 C9 1_555 1_555
C12 C13 1_555 1_555
Cd1B O1B 1_555 1_555

#END
