
#######################################################################
#
#                 Cambridge Crystallographic Data Centre
#                                CCDC 
#
#######################################################################
#
# If this CIF has been generated from an entry in the Cambridge 
# Structural Database, then it will include bibliographic, chemical, 
# crystal, experimental, refinement or atomic coordinate data resulting 
# from the CCDC's data processing and validation procedures.
#
#######################################################################

data_REXSAQ
_symmetry_cell_setting           triclinic
_symmetry_space_group_name_H-M   'P -1'
_symmetry_Int_Tables_number      2
_space_group_name_Hall           '-P 1'
loop_
_symmetry_equiv_pos_site_id
_symmetry_equiv_pos_as_xyz
1 x,y,z
2 -x,-y,-z
_cell_length_a                   9.7945(3)
_cell_length_b                   10.4765(3)
_cell_length_c                   11.3523(4)
_cell_angle_alpha                73.84
_cell_angle_beta                 65.96
_cell_angle_gamma                64.10
_cell_volume                     949.818
loop_
_atom_site_label
_atom_site_type_symbol
_atom_site_fract_x
_atom_site_fract_y
_atom_site_fract_z
Cd1 Cd 0.464660(12) 0.173888(10) 0.227848(10)
N1 N 0.91360(17) -0.11344(18) 0.32205(16)
N2 N 0.03479(15) 0.63173(14) 0.77300(12)
N3 N -0.10145(16) 0.73843(15) 0.76256(14)
N4 N -0.21840(16) 0.68965(15) 0.81772(14)
O1 O 0.36440(16) 0.30017(13) 0.40394(12)
O2 O 0.49129(14) 0.39057(12) 0.21132(11)
O3 O 0.40399(16) 0.98362(12) 0.33532(12)
O4 O 0.52415(16) 0.86524(13) 0.16205(11)
O5 O 0.72028(16) 0.05791(15) 0.24573(16)
O6 O 0.60258(16) 0.09796(15) 0.02613(12)
H1 H 0.5594 0.1383 -0.0320
H2 H 0.6101 0.0108 0.0453
C1 C 0.26457(16) 0.65119(15) 0.57585(14)
C2 C 0.29723(17) 0.53284(15) 0.52058(14)
H3 H 0.2663 0.4578 0.5729
C3 C 0.37555(16) 0.52687(14) 0.38810(14)
C4 C 0.42179(17) 0.63962(15) 0.30917(14)
H4 H 0.4737 0.6360 0.2203
C5 C 0.39023(17) 0.75732(15) 0.36355(14)
C6 C 0.31126(17) 0.76248(15) 0.49682(14)
H5 H 0.2897 0.8415 0.5331
C7 C 0.18636(18) 0.65578(17) 0.72079(14)
H6 H 0.2602 0.5835 0.7640
H7 H 0.1661 0.7483 0.7401
C8 C -0.15723(18) 0.54767(17) 0.86529(15)
C9 C 0.00751(18) 0.50952(17) 0.83571(14)
C10 C 0.1074(2) 0.37137(18) 0.87043(16)
H8 H 0.2174 0.3464 0.8497
C11 C 0.0332(2) 0.2755(2) 0.93677(18)
H9 H 0.0951 0.1823 0.9610
C12 C -0.1336(2) 0.3130(2) 0.96967(18)
H10 H -0.1787 0.2444 1.0160
C13 C -0.2312(2) 0.4480(2) 0.93505(17)
H11 H -0.3412 0.4724 0.9568
C14 C 0.7655(2) -0.0512(2) 0.31834(18)
H12 H 0.6909 -0.0922 0.3739
C15 C 1.0380(2) -0.0582(2) 0.2357(3)
H13 H 1.0019 0.0095 0.1678
H14 H 1.1339 -0.1356 0.1983
H15 H 1.0605 -0.0121 0.2840
C16 C 0.9616(3) -0.2436(4) 0.4083(3)
H16 H 0.8754 -0.2788 0.4494
H17 H 0.9860 -0.2236 0.4734
H18 H 1.0551 -0.3144 0.3591
C17 C 0.41275(17) 0.39750(15) 0.33053(14)
C18 C 0.44279(18) 0.87837(15) 0.27985(15)
Cd1_2 Cd 0.464660(12) 1.173888(10) 0.227848(10)
Cd1A Cd -0.464660(12) 0.826112(10) 0.772152(10)
N4A N 0.21840(16) 0.31035(15) 0.18228(14)
O3_2 O 0.40399(16) -0.01638(12) 0.33532(12)
loop_
_geom_bond_atom_site_label_1
_geom_bond_atom_site_label_2
_geom_bond_site_symmetry_1
_geom_bond_site_symmetry_2
Cd1 O1 1_555 1_555
N1 C14 1_555 1_555
N2 N3 1_555 1_555
N3 N4 1_555 1_555
N4 C8 1_555 1_555
O1 C17 1_555 1_555
O2 Cd1 1_555 1_555
O3 C18 1_555 1_555
O4 C18 1_555 1_555
O5 Cd1 1_555 1_555
O6 Cd1 1_555 1_555
H1 O6 1_555 1_555
H2 O6 1_555 1_555
C1 C2 1_555 1_555
C2 H3 1_555 1_555
C3 C2 1_555 1_555
C4 C3 1_555 1_555
H4 C4 1_555 1_555
C5 C4 1_555 1_555
C6 C1 1_555 1_555
H5 C6 1_555 1_555
C7 N2 1_555 1_555
H6 C7 1_555 1_555
H7 C7 1_555 1_555
C8 C9 1_555 1_555
C9 N2 1_555 1_555
C10 C9 1_555 1_555
H8 C10 1_555 1_555
C11 C10 1_555 1_555
H9 C11 1_555 1_555
C12 C11 1_555 1_555
H10 C12 1_555 1_555
C13 C8 1_555 1_555
H11 C13 1_555 1_555
C14 O5 1_555 1_555
H12 C14 1_555 1_555
C15 N1 1_555 1_555
H13 C15 1_555 1_555
H14 C15 1_555 1_555
H15 C15 1_555 1_555
C16 N1 1_555 1_555
H16 C16 1_555 1_555
H17 C16 1_555 1_555
H18 C16 1_555 1_555
C17 O2 1_555 1_555
C18 C5 1_555 1_555
Cd1_2 O3 1_555 1_555
Cd1A N4 1_555 1_555
N4A Cd1 1_555 1_555
O3_2 Cd1 1_555 1_555
C1 C7 1_555 1_555
C3 C17 1_555 1_555
C5 C6 1_555 1_555
C12 C13 1_555 1_555

#END
