
#######################################################################
#
#                 Cambridge Crystallographic Data Centre
#                                CCDC 
#
#######################################################################
#
# If this CIF has been generated from an entry in the Cambridge 
# Structural Database, then it will include bibliographic, chemical, 
# crystal, experimental, refinement or atomic coordinate data resulting 
# from the CCDC's data processing and validation procedures.
#
#######################################################################

data_REXSEU
_symmetry_cell_setting           monoclinic
_symmetry_space_group_name_H-M   'P 21/c'
_symmetry_Int_Tables_number      14
_space_group_name_Hall           '-P 2ybc'
loop_
_symmetry_equiv_pos_site_id
_symmetry_equiv_pos_as_xyz
1 x,y,z
2 -x,1/2+y,1/2-z
3 -x,-y,-z
4 x,1/2-y,1/2+z
_cell_length_a                   15.5435(10)
_cell_length_b                   10.3174(7)
_cell_length_c                   17.9635(9)
_cell_angle_alpha                90
_cell_angle_beta                 119.374(4)
_cell_angle_gamma                90
_cell_volume                     2510.42
loop_
_atom_site_label
_atom_site_type_symbol
_atom_site_fract_x
_atom_site_fract_y
_atom_site_fract_z
Cd1 Cd 0.32846(3) 0.17808(3) 0.90548(2)
N1 N 0.1833(3) 0.8841(4) 0.5077(3)
N2 N 0.1788(3) 0.7550(4) 0.5327(2)
N3 N 0.0786(3) 0.7201(4) 0.4975(3)
N4 N 0.1577(3) 0.1691(3) 0.8565(3)
N5 N 0.3682(4) 0.1875(4) 1.0480(3)
O1 O 0.2548(2) 0.3477(3) 0.8030(2)
O2 O 0.3776(2) 0.4214(3) 0.9222(2)
O3 O 0.3472(2) 0.9314(3) 0.92507(19)
O4 O 0.3026(2) 1.0272(3) 0.80123(19)
O5 O 0.4951(2) 0.1916(3) 0.9449(2)
H1 H 0.5108 0.2790 0.9373
H2 H 0.5347 0.1671 1.0037
C1 C 0.2830(3) 0.6764(4) 0.6802(3)
C2 C 0.2907(3) 0.5609(5) 0.7224(3)
H3 H 0.2842 0.4821 0.6949
C3 C 0.3082(3) 0.5638(4) 0.8053(3)
C4 C 0.3162(3) 0.6818(4) 0.8469(3)
H4 H 0.3254 0.6827 0.9021
C5 C 0.3103(3) 0.7971(4) 0.8051(3)
C6 C 0.2929(4) 0.7929(5) 0.7207(3)
H5 H 0.2880 0.8698 0.6918
C7 C 0.2647(4) 0.6735(4) 0.5904(3)
H6 H 0.3231 0.7044 0.5894
H7 H 0.2528 0.5848 0.5699
C8 C 0.0292(5) 0.8081(5) 0.4546(4)
C9 C 0.0884(3) 0.9135(5) 0.4617(3)
C10 C 0.0452(4) 1.0289(5) 0.4186(3)
H8 H 0.0843 1.1000 0.4234
C11 C -0.0563(4) 1.0357(5) 0.3687(3)
H9 H -0.0853 1.1114 0.3388
C12 C -0.1159(4) 0.9302(5) 0.3628(3)
H10 H -0.1842 0.9363 0.3303
C13 C -0.0721(4) 0.8173(5) 0.4055(3)
H11 H -0.1113 0.7465 0.4013
C14 C 0.1194(3) 0.0756(5) 0.8879(3)
H12 H 0.1612 0.0156 0.9281
C15 C 0.0179(3) 0.0719(5) 0.8590(3)
H13 H -0.0078 0.0103 0.8805
C16 C -0.0448(4) 0.1606(4) 0.7979(3)
H14 H -0.1125 0.1576 0.7779
C17 C -0.0055(3) 0.2534(5) 0.7673(3)
H15 H -0.0470 0.3136 0.7272
C18 C 0.0957(3) 0.2574(5) 0.7961(3)
H16 H 0.1213 0.3193 0.7748
C19 C 0.3129(3) 0.4373(5) 0.8475(3)
C20 C 0.3315(3) 0.2877(4) 1.0760(3)
H17 H 0.2850 0.3445 1.0366
C21 C 0.3634(4) 0.3032(4) 1.1615(3)
H18 H 0.3386 0.3706 1.1798
C22 C 0.4323(4) 0.2191(5) 1.2206(3)
H19 H 0.4539 0.2297 1.2785
C23 C 0.4691(3) 0.1186(4) 1.1929(3)
H20 H 0.5157 0.0620 1.2324
C24 C 0.4362(3) 0.1026(4) 1.1066(3)
H21 H 0.4601 0.0343 1.0880
C25 C 0.3181(4) 0.9259(5) 0.8456(3)
Cd1_2 Cd 0.32846(3) 1.17808(3) 0.90548(2)
O3_2 O 0.3472(2) -0.0686(3) 0.92507(19)
O4_2 O 0.3026(2) 0.0272(3) 0.80123(19)
loop_
_geom_bond_atom_site_label_1
_geom_bond_atom_site_label_2
_geom_bond_site_symmetry_1
_geom_bond_site_symmetry_2
Cd1 N4 1_555 1_555
N1 N2 1_555 1_555
N2 N3 1_555 1_555
N3 C8 1_555 1_555
N4 C14 1_555 1_555
N5 Cd1 1_555 1_555
O1 Cd1 1_555 1_555
O2 Cd1 1_555 1_555
O3 C25 1_555 1_555
O4 C25 1_555 1_555
O5 Cd1 1_555 1_555
H1 O5 1_555 1_555
H2 O5 1_555 1_555
C1 C2 1_555 1_555
C2 H3 1_555 1_555
C3 C2 1_555 1_555
C4 C3 1_555 1_555
H4 C4 1_555 1_555
C5 C4 1_555 1_555
C6 C1 1_555 1_555
H5 C6 1_555 1_555
C7 N2 1_555 1_555
H6 C7 1_555 1_555
H7 C7 1_555 1_555
C8 C9 1_555 1_555
C9 N1 1_555 1_555
C10 C9 1_555 1_555
H8 C10 1_555 1_555
C11 C10 1_555 1_555
H9 C11 1_555 1_555
C12 C11 1_555 1_555
H10 C12 1_555 1_555
C13 C8 1_555 1_555
H11 C13 1_555 1_555
C14 H12 1_555 1_555
C15 C14 1_555 1_555
H13 C15 1_555 1_555
C16 C15 1_555 1_555
H14 C16 1_555 1_555
C17 C16 1_555 1_555
H15 C17 1_555 1_555
C18 N4 1_555 1_555
H16 C18 1_555 1_555
C19 O1 1_555 1_555
C20 N5 1_555 1_555
H17 C20 1_555 1_555
C21 C20 1_555 1_555
H18 C21 1_555 1_555
C22 C21 1_555 1_555
H19 C22 1_555 1_555
C23 C22 1_555 1_555
H20 C23 1_555 1_555
C24 N5 1_555 1_555
H21 C24 1_555 1_555
C25 C5 1_555 1_555
Cd1_2 O3 1_555 1_555
O3_2 Cd1 1_555 1_555
O4_2 Cd1 1_555 1_555
O2 C19 1_555 1_555
O4 Cd1_2 1_555 1_555
C1 C7 1_555 1_555
C3 C19 1_555 1_555
C5 C6 1_555 1_555
C12 C13 1_555 1_555
C17 C18 1_555 1_555
C23 C24 1_555 1_555

#END
