
#######################################################################
#
#                 Cambridge Crystallographic Data Centre
#                                CCDC 
#
#######################################################################
#
# If this CIF has been generated from an entry in the Cambridge 
# Structural Database, then it will include bibliographic, chemical, 
# crystal, experimental, refinement or atomic coordinate data resulting 
# from the CCDC's data processing and validation procedures.
#
#######################################################################

data_REXTOE
_symmetry_cell_setting           orthorhombic
_symmetry_space_group_name_H-M   'P 21 21 21'
_symmetry_Int_Tables_number      19
_space_group_name_Hall           'P 2ac 2ab'
loop_
_symmetry_equiv_pos_site_id
_symmetry_equiv_pos_as_xyz
1 x,y,z
2 1/2+x,1/2-y,-z
3 -x,1/2+y,1/2-z
4 1/2-x,-y,1/2+z
_cell_length_a                   14.0062(5)
_cell_length_b                   15.0224(6)
_cell_length_c                   16.4600(6)
_cell_angle_alpha                90
_cell_angle_beta                 90
_cell_angle_gamma                90
_cell_volume                     3463.29
loop_
_atom_site_label
_atom_site_type_symbol
_atom_site_fract_x
_atom_site_fract_y
_atom_site_fract_z
Mn1 Mn 0.06727(3) 0.16718(3) 0.02643(3)
Si1 Si 0.40150(8) 0.38979(8) 0.48395(6)
O1 O 0.14153(15) 0.26784(16) -0.03845(14)
O2 O 0.46911(16) 0.23006(16) -0.05232(14)
O3 O 0.01362(17) 0.09927(17) -0.08009(15)
O4 O -0.02631(18) 0.07552(17) 0.08646(15)
O5 O 0.18290(17) 0.07364(16) 0.01366(16)
O6 O 0.12822(17) 0.18252(16) 0.14569(15)
F1 F 0.0325(4) 0.0216(3) -0.2202(2)
F2 F 0.0372(4) -0.1023(3) -0.1628(2)
F3 F -0.0915(3) -0.0432(3) -0.1924(2)
F4 F 0.0088(3) -0.1033(3) 0.1603(3)
F5 F -0.1178(4) -0.0317(2) 0.1866(3)
F6 F -0.1184(3) -0.1368(2) 0.1030(2)
F7 F 0.3116(3) -0.1002(2) 0.10064(17)
F8 F 0.31961(19) -0.04902(17) -0.01878(17)
F9 F 0.1940(2) -0.11569(19) 0.0179(3)
F10 F 0.2437(2) 0.0993(2) 0.31326(15)
F11 F 0.09135(17) 0.08762(17) 0.30530(14)
F12 F 0.1569(2) 0.21604(15) 0.29997(13)
N1 N 0.22698(19) 0.25682(19) -0.06825(16)
N2 N 0.38067(19) 0.23932(19) -0.07453(16)
C1 C 0.3668(3) 0.3612(3) 0.3797(2)
C2 C 0.3521(3) 0.3419(3) 0.3102(2)
C3 C 0.3378(3) 0.3173(3) 0.2258(2)
C4 C 0.3157(2) 0.2746(2) 0.0627(2)
C5 C 0.3079(2) 0.2562(2) -0.0239(2)
C6 C 0.2450(3) 0.2555(3) -0.1571(2)
C7 C 0.3488(2) 0.2173(2) -0.1590(2)
C8 C -0.0067(3) -0.0260(3) -0.1647(3)
C9 C -0.0089(3) 0.0193(3) -0.0815(2)
C10 C -0.0427(3) -0.0025(2) 0.0623(2)
C11 C -0.0693(3) -0.0675(3) 0.1295(3)
C12 C 0.2611(3) -0.0603(3) 0.0433(2)
C13 C 0.2172(3) 0.0287(2) 0.0705(2)
C14 C 0.1708(2) 0.1238(2) 0.1836(2)
C15 C 0.1676(3) 0.1319(3) 0.2771(2)
C16 C 0.2741(3) 0.3651(3) 0.1777(2)
C17 C 0.2623(2) 0.3438(3) 0.0965(2)
C18 C 0.3790(3) 0.2259(3) 0.1113(2)
C19 C 0.3887(3) 0.2472(3) 0.1922(2)
C20 C -0.0368(3) -0.0345(2) -0.0165(3)
C21 C 0.2165(3) 0.0470(2) 0.1531(2)
H1 H 0.2378(3) 0.4118(3) 0.2013(2)
H2 H 0.2188(2) 0.3767(3) 0.0640(2)
H3 H 0.4159(3) 0.1793(3) 0.0881(2)
H4 H 0.4312(3) 0.2141(3) 0.2255(2)
H5 H -0.0524(3) -0.0949(2) -0.0270(3)
H6 H 0.2462(3) 0.0069(2) 0.1898(2)
C22 C 0.1712(3) 0.1970(4) -0.2005(2)
H7 H 0.1830(3) 0.1969(4) -0.2573(2)
H8 H 0.1091(3) 0.2198(4) -0.1903(2)
H9 H 0.1755(3) 0.1379(4) -0.1802(2)
C23 C 0.2387(3) 0.3526(3) -0.1845(3)
H10 H 0.2491(3) 0.3563(3) -0.2414(3)
H11 H 0.2861(3) 0.3862(3) -0.1568(3)
H12 H 0.1773(3) 0.3757(3) -0.1718(3)
C24 C 0.3540(3) 0.1157(3) -0.1656(2)
H13 H 0.3349(3) 0.0972(3) -0.2184(2)
H14 H 0.4173(3) 0.0959(3) -0.1554(2)
H15 H 0.3121(3) 0.0909(3) -0.1263(2)
C25 C 0.4148(2) 0.2621(3) -0.2209(2)
H16 H 0.3950(2) 0.2484(3) -0.2747(2)
H17 H 0.4781(2) 0.2412(3) -0.2127(2)
H18 H 0.4129(2) 0.3247(3) -0.2131(2)
C26 C 0.4884(3) 0.3032(3) 0.5171(3)
H19 H 0.5081(3) 0.3151(3) 0.5712(3)
H20 H 0.5424(3) 0.3036(3) 0.4823(3)
H21 H 0.4585(3) 0.2465(3) 0.5149(3)
C27 C 0.4555(4) 0.5031(3) 0.4810(4)
H22 H 0.4740(4) 0.5196(3) 0.5344(4)
H23 H 0.5099(4) 0.5032(3) 0.4465(4)
H24 H 0.4098(4) 0.5444(3) 0.4611(4)
C28 C 0.2955(4) 0.3892(5) 0.5512(3)
H25 H 0.3148(4) 0.4038(5) 0.6050(3)
H26 H 0.2501(4) 0.4316(5) 0.5328(3)
H27 H 0.2676(4) 0.3316(5) 0.5509(3)
Mn1A Mn 0.56727(3) 0.33282(3) -0.02643(3)
O2A O -0.03089(16) 0.26994(16) 0.05232(14)
loop_
_geom_bond_atom_site_label_1
_geom_bond_atom_site_label_2
_geom_bond_site_symmetry_1
_geom_bond_site_symmetry_2
Mn1 O1 1_555 1_555
Si1 C1 1_555 1_555
O1 N1 1_555 1_555
O2 N2 1_555 1_555
O3 Mn1 1_555 1_555
O4 Mn1 1_555 1_555
O5 Mn1 1_555 1_555
O6 Mn1 1_555 1_555
F1 C8 1_555 1_555
F2 C8 1_555 1_555
F3 C8 1_555 1_555
F4 C11 1_555 1_555
F5 C11 1_555 1_555
F6 C11 1_555 1_555
F7 C12 1_555 1_555
F8 C12 1_555 1_555
F9 C12 1_555 1_555
F10 C15 1_555 1_555
F11 C15 1_555 1_555
F12 C15 1_555 1_555
N1 C5 1_555 1_555
N2 C5 1_555 1_555
C1 C2 1_555 1_555
C2 C3 1_555 1_555
C3 C16 1_555 1_555
C4 C5 1_555 1_555
C6 N1 1_555 1_555
C7 N2 1_555 1_555
C8 C9 1_555 1_555
C9 O3 1_555 1_555
C10 O4 1_555 1_555
C11 C10 1_555 1_555
C12 C13 1_555 1_555
C13 O5 1_555 1_555
C14 O6 1_555 1_555
C15 C14 1_555 1_555
C16 C17 1_555 1_555
C17 C4 1_555 1_555
C18 C4 1_555 1_555
C19 C3 1_555 1_555
C20 C9 1_555 1_555
C21 C13 1_555 1_555
H1 C16 1_555 1_555
H2 C17 1_555 1_555
H3 C18 1_555 1_555
H4 C19 1_555 1_555
H5 C20 1_555 1_555
H6 C21 1_555 1_555
C22 C6 1_555 1_555
H7 C22 1_555 1_555
H8 C22 1_555 1_555
H9 C22 1_555 1_555
C23 C6 1_555 1_555
H10 C23 1_555 1_555
H11 C23 1_555 1_555
H12 C23 1_555 1_555
C24 C7 1_555 1_555
H13 C24 1_555 1_555
H14 C24 1_555 1_555
H15 C24 1_555 1_555
C25 C7 1_555 1_555
H16 C25 1_555 1_555
H17 C25 1_555 1_555
H18 C25 1_555 1_555
C26 Si1 1_555 1_555
H19 C26 1_555 1_555
H20 C26 1_555 1_555
H21 C26 1_555 1_555
C27 Si1 1_555 1_555
H22 C27 1_555 1_555
H23 C27 1_555 1_555
H24 C27 1_555 1_555
C28 Si1 1_555 1_555
H25 C28 1_555 1_555
H26 C28 1_555 1_555
H27 C28 1_555 1_555
Mn1A O2 1_555 1_555
O2A Mn1 1_555 1_555
C6 C7 1_555 1_555
C10 C20 1_555 1_555
C14 C21 1_555 1_555
C18 C19 1_555 1_555

#END
