
#######################################################################
#
#                 Cambridge Crystallographic Data Centre
#                                CCDC 
#
#######################################################################
#
# If this CIF has been generated from an entry in the Cambridge 
# Structural Database, then it will include bibliographic, chemical, 
# crystal, experimental, refinement or atomic coordinate data resulting 
# from the CCDC's data processing and validation procedures.
#
#######################################################################

data_REXVOH
_symmetry_cell_setting           monoclinic
_symmetry_space_group_name_H-M   'C 2/c'
_symmetry_Int_Tables_number      15
_space_group_name_Hall           '-C 2yn'
loop_
_symmetry_equiv_pos_site_id
_symmetry_equiv_pos_as_xyz
1 x,y,z
2 -x,y,1/2-z
3 1/2+x,1/2+y,z
4 1/2-x,1/2+y,1/2-z
5 -x,-y,-z
6 x,-y,1/2+z
7 1/2-x,1/2-y,-z
8 1/2+x,1/2-y,1/2+z
_cell_length_a                   29.2901(8)
_cell_length_b                   9.4068(3)
_cell_length_c                   17.3833(5)
_cell_angle_alpha                90
_cell_angle_beta                 124.817(3)
_cell_angle_gamma                90
_cell_volume                     3932.13
loop_
_atom_site_label
_atom_site_type_symbol
_atom_site_fract_x
_atom_site_fract_y
_atom_site_fract_z
Cd1 Cd 0.0000 0.29349(3) 0.2500
O1 O 0.13154(15) 0.2900(3) 0.2548(2)
O2 O 0.09969(11) 0.2955(3) 0.3448(2)
N1 N 0.2325(5) 0.2154(14) 0.3254(9)
N2 N 0.07502(14) 0.1029(4) 0.4318(2)
H1 H 0.0997 0.1647 0.4427
N3 N 0.02160(13) 0.1066(3) 0.3568(2)
N4 N -0.00238(13) -0.5278(3) 0.3405(2)
N5 N -0.04609(13) -0.5256(4) 0.3468(2)
H2 H -0.0718 -0.5890 0.3228
C1 C -0.06318(19) -0.0344(5) 0.2958(4)
H3 H -0.0786 0.0360 0.2471
H4 H -0.0823 -0.0315 0.3258
H5 H -0.0674 -0.1269 0.2691
C2 C 0.1420(2) -0.0384(7) 0.5740(3)
H6 H 0.1674 0.0329 0.5805
H7 H 0.1543 -0.1303 0.5689
H8 H 0.1407 -0.0366 0.6279
C3 C -0.0895(2) -0.3871(6) 0.4097(4)
H9 H -0.1168 -0.4613 0.3796
H10 H -0.1068 -0.2969 0.3832
H11 H -0.0738 -0.3870 0.4756
C4 C 0.0798(2) -0.3785(5) 0.3943(4)
H12 H 0.0859 -0.4485 0.3609
H13 H 0.1106 -0.3786 0.4591
H14 H 0.0764 -0.2863 0.3678
C5 C 0.08517(18) -0.0094(4) 0.4877(3)
C6 C 0.02789(17) -0.4127(4) 0.3868(3)
C7 C -0.04453(17) -0.4119(4) 0.3952(3)
C8 C 0.23948(18) 0.2317(5) 0.4112(3)
C9 C 0.03554(18) -0.0806(4) 0.4480(3)
C10 C 0.19611(16) 0.2671(4) 0.4191(3)
C11 C 0.0244(3) -0.2097(4) 0.4864(3)
H15 H 0.0587 -0.2357 0.5452
H16 H -0.0023 -0.1839 0.5000
C12 C -0.00275(17) -0.0044(4) 0.3664(3)
C13 C 0.00291(18) -0.3381(4) 0.4237(3)
C14 C 0.13791(18) 0.2856(4) 0.3316(3)
C15 C 0.20673(18) 0.2850(4) 0.5067(3)
H17 H 0.1776 0.3087 0.5115
O1F O 0.36846(15) 0.2100(3) 0.7452(2)
O2F O 0.40031(11) 0.2045(3) 0.6552(2)
N1F N 0.2675(5) 0.2846(14) 0.6746(9)
C8F C 0.26052(18) 0.2683(5) 0.5888(3)
C10F C 0.30389(16) 0.2329(4) 0.5809(3)
C14F C 0.36209(18) 0.2144(4) 0.6684(3)
C15F C 0.29327(18) 0.2150(4) 0.4933(3)
H17F H 0.3224 0.1913 0.4885
N2A N -0.07502(14) 0.1029(4) 0.0682(2)
H1A H -0.0997 0.1647 0.0573
N3A N -0.02160(13) 0.1066(3) 0.1432(2)
N4A N 0.00238(13) -0.5278(3) 0.1595(2)
N5A N 0.04609(13) -0.5256(4) 0.1532(2)
H2A H 0.0718 -0.5890 0.1772
C1A C 0.06318(19) -0.0344(5) 0.2042(4)
H3A H 0.0786 0.0360 0.2529
H4A H 0.0823 -0.0315 0.1742
H5A H 0.0674 -0.1269 0.2309
C2A C -0.1420(2) -0.0384(7) -0.0740(3)
H6A H -0.1674 0.0329 -0.0805
H7A H -0.1543 -0.1303 -0.0689
H8A H -0.1407 -0.0366 -0.1279
C3A C 0.0895(2) -0.3871(6) 0.0903(4)
H9A H 0.1168 -0.4613 0.1204
H10A H 0.1068 -0.2969 0.1168
H11A H 0.0738 -0.3870 0.0244
C4A C -0.0798(2) -0.3785(5) 0.1057(4)
H12A H -0.0859 -0.4485 0.1391
H13A H -0.1106 -0.3786 0.0409
H14A H -0.0764 -0.2863 0.1322
C5A C -0.08517(18) -0.0094(4) 0.0123(3)
C6A C -0.02789(17) -0.4127(4) 0.1132(3)
C7A C 0.04453(17) -0.4119(4) 0.1048(3)
C9A C -0.03554(18) -0.0806(4) 0.0520(3)
C11A C -0.0244(3) -0.2097(4) 0.0136(3)
H15A H -0.0587 -0.2357 -0.0452
H16A H 0.0023 -0.1839 0.0000
C12A C 0.00275(17) -0.0044(4) 0.1336(3)
C13A C -0.00291(18) -0.3381(4) 0.0763(3)
Cd1_2 Cd 0.0000 -0.70651(3) 0.2500
Cd1F Cd 0.5000 0.20651(3) 0.7500
O2A O -0.09969(11) 0.2955(3) 0.1552(2)
N4_2 N -0.00238(13) 0.4722(3) 0.3405(2)
N4A_2 N 0.00238(13) 0.4722(3) 0.1595(2)
loop_
_geom_bond_atom_site_label_1
_geom_bond_atom_site_label_2
_geom_bond_site_symmetry_1
_geom_bond_site_symmetry_2
Cd1 O2 1_555 1_555
O1 C14 1_555 1_555
O2 C14 1_555 1_555
N1 C8 1_555 1_555
N2 H1 1_555 1_555
N3 Cd1 1_555 1_555
N4 N5 1_555 1_555
N5 H2 1_555 1_555
C1 H3 1_555 1_555
H4 C1 1_555 1_555
H5 C1 1_555 1_555
C2 H6 1_555 1_555
H7 C2 1_555 1_555
H8 C2 1_555 1_555
C3 H9 1_555 1_555
H10 C3 1_555 1_555
H11 C3 1_555 1_555
C4 H12 1_555 1_555
H13 C4 1_555 1_555
H14 C4 1_555 1_555
C5 N2 1_555 1_555
C6 N4 1_555 1_555
C7 N5 1_555 1_555
C8 C10 1_555 1_555
C9 C5 1_555 1_555
C10 C14 1_555 1_555
C11 C9 1_555 1_555
H15 C11 1_555 1_555
H16 C11 1_555 1_555
C12 N3 1_555 1_555
C13 C6 1_555 1_555
C15 C10 1_555 1_555
H17 C15 1_555 1_555
O1F C14F 1_555 1_555
O2F C14F 1_555 1_555
N1F C8F 1_555 1_555
C8F C15 1_555 1_555
C10F C8F 1_555 1_555
C14F C10F 1_555 1_555
C15F C8 1_555 1_555
H17F C15F 1_555 1_555
N2A H1A 1_555 1_555
N3A Cd1 1_555 1_555
N4A N5A 1_555 1_555
N5A H2A 1_555 1_555
C1A H3A 1_555 1_555
H4A C1A 1_555 1_555
H5A C1A 1_555 1_555
C2A H6A 1_555 1_555
H7A C2A 1_555 1_555
H8A C2A 1_555 1_555
C3A H9A 1_555 1_555
H10A C3A 1_555 1_555
H11A C3A 1_555 1_555
C4A H12A 1_555 1_555
H13A C4A 1_555 1_555
H14A C4A 1_555 1_555
C5A N2A 1_555 1_555
C6A N4A 1_555 1_555
C7A N5A 1_555 1_555
C9A C5A 1_555 1_555
C11A C9A 1_555 1_555
H15A C11A 1_555 1_555
H16A C11A 1_555 1_555
C12A N3A 1_555 1_555
C13A C6A 1_555 1_555
Cd1_2 N4 1_555 1_555
Cd1F O2F 1_555 1_555
O2A Cd1 1_555 1_555
N4_2 Cd1 1_555 1_555
N4A_2 Cd1 1_555 1_555
N2 N3 1_555 1_555
C1 C12 1_555 1_555
C2 C5 1_555 1_555
C3 C7 1_555 1_555
C4 C6 1_555 1_555
C7 C13 1_555 1_555
C9 C12 1_555 1_555
C11 C13 1_555 1_555
C10F C15F 1_555 1_555
N2A N3A 1_555 1_555
N4A Cd1_2 1_555 1_555
C1A C12A 1_555 1_555
C2A C5A 1_555 1_555
C3A C7A 1_555 1_555
C4A C6A 1_555 1_555
C7A C13A 1_555 1_555
C9A C12A 1_555 1_555
C11A C13A 1_555 1_555

#END
