
#######################################################################
#
#                 Cambridge Crystallographic Data Centre
#                                CCDC 
#
#######################################################################
#
# If this CIF has been generated from an entry in the Cambridge 
# Structural Database, then it will include bibliographic, chemical, 
# crystal, experimental, refinement or atomic coordinate data resulting 
# from the CCDC's data processing and validation procedures.
#
#######################################################################

data_REXVOH01
_symmetry_cell_setting           monoclinic
_symmetry_space_group_name_H-M   'P 2/c'
_symmetry_Int_Tables_number      13
_space_group_name_Hall           '-P 2yc'
loop_
_symmetry_equiv_pos_site_id
_symmetry_equiv_pos_as_xyz
1 x,y,z
2 -x,y,1/2-z
3 -x,-y,-z
4 x,-y,1/2+z
_cell_length_a                   9.7163(4)
_cell_length_b                   9.3623(3)
_cell_length_c                   18.4041(8)
_cell_angle_alpha                90
_cell_angle_beta                 105.392(4)
_cell_angle_gamma                90
_cell_volume                     1614.12
loop_
_atom_site_label
_atom_site_type_symbol
_atom_site_fract_x
_atom_site_fract_y
_atom_site_fract_z
Cd1 Cd 0.0000 -0.35696(2) -0.2500
O1 O -0.20686(19) -0.3525(2) -0.35144(10)
O2 O -0.3910(2) -0.3752(2) -0.30224(11)
N1 N 0.2407(3) -1.1896(2) -0.30839(12)
H1 H 0.2968 -1.2572 -0.2869
N2 N 0.1012(3) -1.1813(2) -0.30955(11)
N3 N -0.5908(5) -0.5478(6) -0.3746(3)
H2 H -0.6666 -0.5977 -0.3780
H3 H -0.5446 -0.5131 -0.3318
N4 N -0.0458(3) -0.5498(2) -0.39394(12)
H4 H -0.1126 -0.4877 -0.4087
N5 N 0.0501(3) -0.5467(2) -0.32590(11)
C1 C -0.4230(3) -0.4434(3) -0.43014(13)
C2 C -0.3804(3) -0.4195(3) -0.49520(14)
H5 H -0.2995 -0.3644 -0.4922
C3 C -0.5457(3) -0.5249(3) -0.43472(14)
C4 C -0.3354(3) -0.3850(3) -0.35516(14)
C5 C 0.0907(3) -0.7340(2) -0.39430(14)
C6 C -0.0256(3) -0.6608(3) -0.43631(14)
C7 C 0.1341(3) -0.6597(3) -0.32540(15)
C8 C 0.1557(4) -0.8643(3) -0.41992(16)
H6 H 0.2519 -0.8406 -0.4218
H7 H 0.1012 -0.8872 -0.4708
C9 C 0.1625(3) -0.9958(3) -0.37182(13)
C10 C 0.2814(3) -1.0799(3) -0.34489(14)
C11 C 0.0521(3) -1.0625(3) -0.34880(13)
C12 C -0.0998(4) -1.0181(3) -0.36253(18)
H8 H -0.1561 -1.0983 -0.3550
H9 H -0.1345 -0.9841 -0.4133
H10 H -0.1069 -0.9432 -0.3281
C13 C 0.4286(4) -1.0672(4) -0.3538(2)
H11 H 0.4839 -1.1485 -0.3313
H12 H 0.4722 -0.9816 -0.3294
H13 H 0.4248 -1.0632 -0.4064
C14 C 0.2508(5) -0.6969(4) -0.2580(2)
H14 H 0.3392 -0.6581 -0.2632
H15 H 0.2587 -0.7989 -0.2533
H16 H 0.2302 -0.6578 -0.2138
C15 C -0.1239(4) -0.6879(4) -0.51273(18)
H17 H -0.2043 -0.7429 -0.5077
H18 H -0.0740 -0.7397 -0.5429
H19 H -0.1566 -0.5984 -0.5366
O1B O -0.79314(19) -0.6475(2) -0.64856(10)
O2B O -0.6090(2) -0.6248(2) -0.69776(11)
N3B N -0.4092(5) -0.4522(6) -0.6254(3)
H2B H -0.3334 -0.4023 -0.6220
H3B H -0.4554 -0.4869 -0.6682
C1B C -0.5770(3) -0.5566(3) -0.56986(13)
C2B C -0.6196(3) -0.5805(3) -0.50480(14)
H5B H -0.7005 -0.6356 -0.5078
C3B C -0.4543(3) -0.4751(3) -0.56528(14)
C4B C -0.6646(3) -0.6150(3) -0.64484(14)
N1A N -0.2407(3) -1.1896(2) -0.19161(12)
H1A H -0.2968 -1.2572 -0.2131
N2A N -0.1012(3) -1.1813(2) -0.19045(11)
N4A N 0.0458(3) -0.5498(2) -0.10606(12)
H4A H 0.1126 -0.4877 -0.0913
N5A N -0.0501(3) -0.5467(2) -0.17410(11)
C5A C -0.0907(3) -0.7340(2) -0.10570(14)
C6A C 0.0256(3) -0.6608(3) -0.06369(14)
C7A C -0.1341(3) -0.6597(3) -0.17460(15)
C8A C -0.1557(4) -0.8643(3) -0.08008(16)
H6A H -0.2519 -0.8406 -0.0782
H7A H -0.1012 -0.8872 -0.0292
C9A C -0.1625(3) -0.9958(3) -0.12818(13)
C10A C -0.2814(3) -1.0799(3) -0.15511(14)
C11A C -0.0521(3) -1.0625(3) -0.15120(13)
C12A C 0.0998(4) -1.0181(3) -0.13747(18)
H8A H 0.1561 -1.0983 -0.1450
H9A H 0.1345 -0.9841 -0.0867
H10A H 0.1069 -0.9432 -0.1719
C13A C -0.4286(4) -1.0672(4) -0.1462(2)
H11A H -0.4839 -1.1485 -0.1687
H12A H -0.4722 -0.9816 -0.1706
H13A H -0.4248 -1.0632 -0.0936
C14A C -0.2508(5) -0.6969(4) -0.2420(2)
H14A H -0.3392 -0.6581 -0.2368
H15A H -0.2587 -0.7989 -0.2467
H16A H -0.2302 -0.6578 -0.2862
C15A C 0.1239(4) -0.6879(4) 0.01273(18)
H17A H 0.2043 -0.7429 0.0077
H18A H 0.0740 -0.7397 0.0429
H19A H 0.1566 -0.5984 0.0366
Cd1_2 Cd 0.0000 -1.35696(2) -0.2500
Cd1B Cd -1.0000 -0.64304(2) -0.7500
O1A O 0.20686(19) -0.3525(2) -0.14856(10)
N2_2 N 0.1012(3) -0.1813(2) -0.30955(11)
N2A_2 N -0.1012(3) -0.1813(2) -0.19045(11)
loop_
_geom_bond_atom_site_label_1
_geom_bond_atom_site_label_2
_geom_bond_site_symmetry_1
_geom_bond_site_symmetry_2
Cd1 O1 1_555 1_555
O1 C4 1_555 1_555
O2 C4 1_555 1_555
N1 H1 1_555 1_555
N2 N1 1_555 1_555
N3 H2 1_555 1_555
H3 N3 1_555 1_555
N4 H4 1_555 1_555
N5 Cd1 1_555 1_555
C1 C2 1_555 1_555
C2 H5 1_555 1_555
C3 N3 1_555 1_555
C4 C1 1_555 1_555
C5 C6 1_555 1_555
C6 N4 1_555 1_555
C7 N5 1_555 1_555
C8 C5 1_555 1_555
H6 C8 1_555 1_555
H7 C8 1_555 1_555
C9 C8 1_555 1_555
C10 N1 1_555 1_555
C11 N2 1_555 1_555
C12 C11 1_555 1_555
H8 C12 1_555 1_555
H9 C12 1_555 1_555
H10 C12 1_555 1_555
C13 C10 1_555 1_555
H11 C13 1_555 1_555
H12 C13 1_555 1_555
H13 C13 1_555 1_555
C14 C7 1_555 1_555
H14 C14 1_555 1_555
H15 C14 1_555 1_555
H16 C14 1_555 1_555
C15 C6 1_555 1_555
H17 C15 1_555 1_555
H18 C15 1_555 1_555
H19 C15 1_555 1_555
O1B C4B 1_555 1_555
O2B C4B 1_555 1_555
N3B H2B 1_555 1_555
H3B N3B 1_555 1_555
C1B C2B 1_555 1_555
C2B C3 1_555 1_555
H5B C2B 1_555 1_555
C3B C2 1_555 1_555
C4B C1B 1_555 1_555
N1A H1A 1_555 1_555
N2A N1A 1_555 1_555
N4A H4A 1_555 1_555
N5A Cd1 1_555 1_555
C5A C6A 1_555 1_555
C6A N4A 1_555 1_555
C7A N5A 1_555 1_555
C8A C5A 1_555 1_555
H6A C8A 1_555 1_555
H7A C8A 1_555 1_555
C9A C8A 1_555 1_555
C10A N1A 1_555 1_555
C11A N2A 1_555 1_555
C12A C11A 1_555 1_555
H8A C12A 1_555 1_555
H9A C12A 1_555 1_555
H10A C12A 1_555 1_555
C13A C10A 1_555 1_555
H11A C13A 1_555 1_555
H12A C13A 1_555 1_555
H13A C13A 1_555 1_555
C14A C7A 1_555 1_555
H14A C14A 1_555 1_555
H15A C14A 1_555 1_555
H16A C14A 1_555 1_555
C15A C6A 1_555 1_555
H17A C15A 1_555 1_555
H18A C15A 1_555 1_555
H19A C15A 1_555 1_555
Cd1_2 N2 1_555 1_555
Cd1B O1B 1_555 1_555
O1A Cd1 1_555 1_555
N2_2 Cd1 1_555 1_555
N2A_2 Cd1 1_555 1_555
N4 N5 1_555 1_555
C1 C3 1_555 1_555
C5 C7 1_555 1_555
C9 C10 1_555 1_555
C9 C11 1_555 1_555
N3B C3B 1_555 1_555
C1B C3B 1_555 1_555
N2A Cd1_2 1_555 1_555
N4A N5A 1_555 1_555
C5A C7A 1_555 1_555
C9A C10A 1_555 1_555
C9A C11A 1_555 1_555

#END
