
#######################################################################
#
#                 Cambridge Crystallographic Data Centre
#                                CCDC 
#
#######################################################################
#
# If this CIF has been generated from an entry in the Cambridge 
# Structural Database, then it will include bibliographic, chemical, 
# crystal, experimental, refinement or atomic coordinate data resulting 
# from the CCDC's data processing and validation procedures.
#
#######################################################################

data_REXWIC
_symmetry_cell_setting           monoclinic
_symmetry_space_group_name_H-M   'P 21/n'
_symmetry_Int_Tables_number      14
_space_group_name_Hall           '-P 2yn'
loop_
_symmetry_equiv_pos_site_id
_symmetry_equiv_pos_as_xyz
1 x,y,z
2 1/2-x,1/2+y,1/2-z
3 -x,-y,-z
4 1/2+x,1/2-y,1/2+z
_cell_length_a                   15.3134(3)
_cell_length_b                   14.0411(2)
_cell_length_c                   16.3451(3)
_cell_angle_alpha                90
_cell_angle_beta                 90.2190(10)
_cell_angle_gamma                90
_cell_volume                     3514.45
loop_
_atom_site_label
_atom_site_type_symbol
_atom_site_fract_x
_atom_site_fract_y
_atom_site_fract_z
Cd1 Cd 0.20860(2) 0.13822(2) 0.02584(2)
Cd2 Cd 0.20583(2) 0.36641(2) 0.02191(2)
O1 O 0.6155(4) 0.1719(4) 0.4223(3)
O2 O 0.3004(3) 0.3482(4) 0.1256(3)
O3 O -0.1949(3) 0.3226(4) 0.4242(3)
O4 O 0.6036(3) 0.3289(4) 0.4384(3)
C1 C 0.5878(5) 0.2519(3) 0.4033(4)
O5 O -0.1812(3) 0.1642(4) 0.4407(3)
C2 C 0.5262(4) 0.2558(3) 0.3311(4)
O6 O 0.3137(3) 0.1921(4) 0.1065(3)
C3 C -0.1600(5) 0.2432(4) 0.4099(4)
C4 C 0.4033(4) 0.2649(4) 0.2042(4)
C5 C -0.0868(4) 0.2418(4) 0.3482(4)
O7 O 0.1104(3) 0.2917(4) 0.1072(3)
C6 C 0.3332(4) 0.2682(5) 0.1396(4)
C7 C 0.0362(4) 0.2313(5) 0.2221(3)
O8 O 0.1264(3) 0.1387(3) 0.1376(3)
C8 C 0.1597(5) 0.5814(4) -0.0368(5)
N1 N 0.2556(4) 0.5783(4) 0.0580(3)
H1 H 0.2874 0.5581 0.0979
C9 C 0.0962(4) 0.2206(5) 0.1506(3)
C10 C 0.6208(4) 0.3726(4) 0.2573(4)
H2 H 0.6609 0.3728 0.3002
C11 C 0.5420(3) 0.3184(4) 0.2642(3)
C12 C 0.1859(6) 0.9107(5) -0.0161(5)
C13 C 0.4993(4) 0.3797(5) 0.1293(4)
H3 H 0.4590 0.3838 0.0868
C14 C -0.0236(3) 0.3157(4) 0.3411(3)
C15 C 0.0383(3) 0.3112(4) 0.2757(3)
C16 C 0.4808(3) 0.3228(4) 0.1996(3)
C17 C 0.4543(4) 0.1981(4) 0.3312(3)
H4 H 0.4460 0.1552 0.3739
C18 C -0.0223(4) 0.1595(4) 0.2344(4)
H5 H -0.0204 0.1056 0.2013
N2 N 0.2848(4) 0.9809(4) -0.0831(4)
H6 H 0.3215 1.0237 -0.0983
C19 C 0.2002(5) 0.6714(4) -0.0348(5)
C20 C -0.0163(4) 0.3906(5) 0.3980(4)
H7 H -0.0543 0.3931 0.4421
C21 C 0.3931(4) 0.2029(4) 0.2676(3)
H8 H 0.3446 0.1632 0.2686
C22 C 0.0885(5) 0.5519(5) -0.0933(6)
H9 H 0.0726 0.4870 -0.0823
H10 H 0.1081 0.5573 -0.1488
H11 H 0.0386 0.5923 -0.0854
C23 C -0.0850(4) 0.1659(4) 0.2958(4)
H12 H -0.1263 0.1177 0.3012
C24 C 0.1022(4) 0.3842(5) 0.2692(4)
H13 H 0.1422 0.3825 0.2266
N3 N 0.1946(3) 0.5248(3) 0.0196(3)
C25 C 0.6375(4) 0.4235(5) 0.1888(4)
H14 H 0.6903 0.4558 0.1842
C26 C 0.1810(8) 0.7493(4) -0.0976(7)
H15 H 0.2050 0.7293 -0.1497
H16 H 0.1181 0.7537 -0.1043
N4 N 0.2286(3) 0.9912(3) -0.0205(3)
C27 C 0.2609(5) 0.6656(5) 0.0273(5)
C28 C 0.2153(6) 0.8468(5) -0.0787(5)
C29 C 0.5768(4) 0.4285(5) 0.1247(4)
H17 H 0.5890 0.4650 0.0788
C30 C 0.2761(6) 0.8942(5) -0.1191(5)
C31 C 0.1056(4) 0.4568(5) 0.3245(4)
H18 H 0.1475 0.5042 0.3193
C32 C 0.0458(4) 0.4598(5) 0.3894(4)
H19 H 0.0484 0.5095 0.4269
C33 C 0.1154(7) 0.8978(7) 0.0450(7)
H20 H 0.1108 0.9540 0.0781
H21 H 0.1287 0.8441 0.0791
H22 H 0.0609 0.8869 0.0171
C34 C 0.3251(8) 0.7353(6) 0.0604(8)
H23 H 0.3569 0.7067 0.1048
H24 H 0.2948 0.7906 0.0799
H25 H 0.3650 0.7534 0.0181
C35 C 0.3315(8) 0.8688(7) -0.1914(7)
H26 H 0.3173 0.8056 -0.2095
H27 H 0.3921 0.8714 -0.1760
H28 H 0.3207 0.9132 -0.2350
Cd1_2 Cd 0.20860(2) 1.13822(2) 0.02584(2)
Cd1C Cd -0.29140(2) 0.36178(2) 0.52584(2)
Cd1C_2 Cd 0.70860(2) 0.36178(2) 0.52584(2)
Cd2C Cd -0.29417(2) 0.13359(2) 0.52191(2)
Cd2C_2 Cd 0.70583(2) 0.13359(2) 0.52191(2)
O1C O 0.1155(4) 0.3281(4) -0.0777(3)
O3C O 0.3051(3) 0.1774(4) -0.0758(3)
O4C O 0.1036(3) 0.1711(4) -0.0616(3)
O5C O 0.3188(3) 0.3358(4) -0.0593(3)
N4_2 N 0.2286(3) -0.0088(3) -0.0205(3)
O9 O 0.3125(5) 0.5274(5) 0.2170(4)
H29 H 0.333(7) 0.473(4) 0.203(7)
H30 H 0.346(7) 0.553(9) 0.252(6)
loop_
_geom_bond_atom_site_label_1
_geom_bond_atom_site_label_2
_geom_bond_site_symmetry_1
_geom_bond_site_symmetry_2
Cd1 O6 1_555 1_555
Cd2 O2 1_555 1_555
O1 C1 1_555 1_555
O2 C6 1_555 1_555
O3 C3 1_555 1_555
O4 C1 1_555 1_555
C1 C2 1_555 1_555
O5 C3 1_555 1_555
C2 C11 1_555 1_555
O6 C6 1_555 1_555
C3 C5 1_555 1_555
C4 C6 1_555 1_555
C5 C14 1_555 1_555
O7 Cd2 1_555 1_555
C7 C9 1_555 1_555
O8 Cd1 1_555 1_555
C8 C19 1_555 1_555
N1 H1 1_555 1_555
C9 O7 1_555 1_555
C10 H2 1_555 1_555
C11 C10 1_555 1_555
C12 N4 1_555 1_555
C13 H3 1_555 1_555
C14 C15 1_555 1_555
C15 C7 1_555 1_555
C16 C4 1_555 1_555
C17 C2 1_555 1_555
H4 C17 1_555 1_555
C18 C7 1_555 1_555
H5 C18 1_555 1_555
N2 H6 1_555 1_555
C19 C26 1_555 1_555
C20 C14 1_555 1_555
H7 C20 1_555 1_555
C21 C4 1_555 1_555
H8 C21 1_555 1_555
C22 C8 1_555 1_555
H9 C22 1_555 1_555
H10 C22 1_555 1_555
H11 C22 1_555 1_555
C23 C5 1_555 1_555
H12 C23 1_555 1_555
C24 C15 1_555 1_555
H13 C24 1_555 1_555
N3 Cd2 1_555 1_555
C25 C10 1_555 1_555
H14 C25 1_555 1_555
C26 H15 1_555 1_555
H16 C26 1_555 1_555
N4 N2 1_555 1_555
C27 N1 1_555 1_555
C28 C12 1_555 1_555
C29 C13 1_555 1_555
H17 C29 1_555 1_555
C30 N2 1_555 1_555
C31 C24 1_555 1_555
H18 C31 1_555 1_555
C32 C20 1_555 1_555
H19 C32 1_555 1_555
C33 C12 1_555 1_555
H20 C33 1_555 1_555
H21 C33 1_555 1_555
H22 C33 1_555 1_555
C34 C27 1_555 1_555
H23 C34 1_555 1_555
H24 C34 1_555 1_555
H25 C34 1_555 1_555
C35 C30 1_555 1_555
H26 C35 1_555 1_555
H27 C35 1_555 1_555
H28 C35 1_555 1_555
O9 H29 1_555 1_555
H30 O9 1_555 1_555
Cd1_2 N4 1_555 1_555
Cd1C O3 1_555 1_555
Cd1C_2 O4 1_555 1_555
Cd2C O5 1_555 1_555
Cd2C_2 O1 1_555 1_555
O1C Cd2 1_555 1_555
O3C Cd1 1_555 1_555
O4C Cd1 1_555 1_555
O5C Cd2 1_555 1_555
N4_2 Cd1 1_555 1_555
O8 C9 1_555 1_555
C8 N3 1_555 1_555
N1 N3 1_555 1_555
C11 C16 1_555 1_555
C13 C16 1_555 1_555
C17 C21 1_555 1_555
C18 C23 1_555 1_555
C19 C27 1_555 1_555
C25 C29 1_555 1_555
C26 C28 1_555 1_555
C28 C30 1_555 1_555
C31 C32 1_555 1_555

#END
