
#######################################################################
#
#                 Cambridge Crystallographic Data Centre
#                                CCDC 
#
#######################################################################
#
# If this CIF has been generated from an entry in the Cambridge 
# Structural Database, then it will include bibliographic, chemical, 
# crystal, experimental, refinement or atomic coordinate data resulting 
# from the CCDC's data processing and validation procedures.
#
#######################################################################

data_REXXOH
_symmetry_cell_setting           monoclinic
_symmetry_space_group_name_H-M   'C 2/n'
_symmetry_Int_Tables_number      15
_space_group_name_Hall           '-C 2ybc'
loop_
_symmetry_equiv_pos_site_id
_symmetry_equiv_pos_as_xyz
1 x,y,z
2 1/2+x,1/2+y,z
3 1/2-x,y,1/2-z
4 -x,1/2+y,1/2-z
5 -x,-y,-z
6 1/2-x,1/2-y,-z
7 1/2+x,-y,1/2+z
8 x,1/2-y,1/2+z
_cell_length_a                   15.525(5)
_cell_length_b                   5.758(3)
_cell_length_c                   22.255(5)
_cell_angle_alpha                90
_cell_angle_beta                 105.00(1)
_cell_angle_gamma                90
_cell_volume                     1921.65
loop_
_atom_site_label
_atom_site_type_symbol
_atom_site_fract_x
_atom_site_fract_y
_atom_site_fract_z
Cu1 Cu 0.2500 0.5939(1) 0.2500
O1 O 0.3376(2) 0.5945(5) 0.3302(1)
O2 O 0.3181(3) 0.2262(6) 0.3508(1)
O3 O 0.2500 0.9764(8) 0.2500
N1 N 0.1529(2) 0.5619(6) 0.2954(2)
C1 C 0.3445(3) 0.4215(8) 0.3665(2)
C2 C 0.3889(3) 0.4713(9) 0.4340(2)
C3 C 0.3616(3) 0.3041(10) 0.4781(2)
C4 C 0.2650(3) 0.3336(10) 0.4791(2)
C5 C 0.0957(3) 0.3888(8) 0.2848(2)
C6 C 0.0298(3) 0.3617(10) 0.3159(2)
C7 C 0.0237(3) 0.5228(11) 0.3592(2)
C8 C 0.0831(4) 0.7010(11) 0.3710(3)
C9 C 0.1470(3) 0.7160(9) 0.3387(2)
H1 H 0.3739(3) 0.6280(9) 0.4437(2)
H2 H 0.4531(3) 0.4637(9) 0.4405(2)
H3 H 0.3995(3) 0.3280(10) 0.5197(2)
H4 H 0.3708(3) 0.1463(10) 0.4658(2)
H5 H 0.2565(3) 0.4905(10) 0.4924(2)
H6 H 0.2276(3) 0.3148(10) 0.4371(2)
H7 H 0.0998(3) 0.2792(8) 0.2550(2)
H8 H -0.0092(3) 0.2364(10) 0.3074(2)
H9 H -0.0204(3) 0.5113(11) 0.3805(2)
H10 H 0.0803(4) 0.8121(11) 0.4008(3)
H11 H 0.1876(3) 0.8380(9) 0.3473(2)
O1E O 0.1624(2) -0.0945(5) 0.6698(1)
O2E O 0.1819(3) 0.2738(6) 0.6492(1)
C1E C 0.1555(3) 0.0785(8) 0.6335(2)
C2E C 0.1111(3) 0.0287(9) 0.5660(2)
C3E C 0.1384(3) 0.1959(10) 0.5219(2)
C4E C 0.2350(3) 0.1664(10) 0.5209(2)
H1E H 0.1261(3) -0.1280(9) 0.5563(2)
H2E H 0.0469(3) 0.0363(9) 0.5595(2)
H3E H 0.1005(3) 0.1720(10) 0.4803(2)
H4E H 0.1292(3) 0.3537(10) 0.5342(2)
H5E H 0.2435(3) 0.0095(10) 0.5076(2)
H6E H 0.2724(3) 0.1852(10) 0.5629(2)
N1B N 0.3471(2) 0.5619(6) 0.2046(2)
C5B C 0.4043(3) 0.3888(8) 0.2152(2)
C6B C 0.4702(3) 0.3617(10) 0.1841(2)
C7B C 0.4763(3) 0.5228(11) 0.1408(2)
C8B C 0.4169(4) 0.7010(11) 0.1290(3)
C9B C 0.3530(3) 0.7160(9) 0.1613(2)
H7B H 0.4002(3) 0.2792(8) 0.2450(2)
H8B H 0.5092(3) 0.2364(10) 0.1926(2)
H9B H 0.5204(3) 0.5113(11) 0.1195(2)
H10B H 0.4197(4) 0.8121(11) 0.0992(3)
H11B H 0.3124(3) 0.8380(9) 0.1527(2)
Cu1E Cu 0.2500 -0.0939(1) 0.7500
O1B O 0.1624(2) 0.5945(5) 0.1698(1)
loop_
_geom_bond_atom_site_label_1
_geom_bond_atom_site_label_2
_geom_bond_site_symmetry_1
_geom_bond_site_symmetry_2
Cu1 O1 1_555 1_555
O1 C1 1_555 1_555
O2 C1 1_555 1_555
O3 Cu1 1_555 1_555
N1 Cu1 1_555 1_555
C1 C2 1_555 1_555
C2 C3 1_555 1_555
C3 C4 1_555 1_555
C4 H5 1_555 1_555
C5 N1 1_555 1_555
C6 C5 1_555 1_555
C7 C6 1_555 1_555
C8 C7 1_555 1_555
C9 N1 1_555 1_555
H1 C2 1_555 1_555
H2 C2 1_555 1_555
H3 C3 1_555 1_555
H4 C3 1_555 1_555
H6 C4 1_555 1_555
H7 C5 1_555 1_555
H8 C6 1_555 1_555
H9 C7 1_555 1_555
H10 C8 1_555 1_555
H11 C9 1_555 1_555
O1E C1E 1_555 1_555
O2E C1E 1_555 1_555
C1E C2E 1_555 1_555
C2E C3E 1_555 1_555
C3E C4E 1_555 1_555
C4E C4 1_555 1_555
H1E C2E 1_555 1_555
H2E C2E 1_555 1_555
H3E C3E 1_555 1_555
H4E C3E 1_555 1_555
H5E C4E 1_555 1_555
H6E C4E 1_555 1_555
N1B Cu1 1_555 1_555
C5B N1B 1_555 1_555
C6B C5B 1_555 1_555
C7B C6B 1_555 1_555
C8B C7B 1_555 1_555
C9B N1B 1_555 1_555
H7B C5B 1_555 1_555
H8B C6B 1_555 1_555
H9B C7B 1_555 1_555
H10B C8B 1_555 1_555
H11B C9B 1_555 1_555
Cu1E O1E 1_555 1_555
O1B Cu1 1_555 1_555
C8 C9 1_555 1_555
C8B C9B 1_555 1_555

#END
