
#######################################################################
#
#                 Cambridge Crystallographic Data Centre
#                                CCDC 
#
#######################################################################
#
# If this CIF has been generated from an entry in the Cambridge 
# Structural Database, then it will include bibliographic, chemical, 
# crystal, experimental, refinement or atomic coordinate data resulting 
# from the CCDC's data processing and validation procedures.
#
#######################################################################

data_REXYEZ
_symmetry_cell_setting           orthorhombic
_symmetry_space_group_name_H-M   'P c a 21'
_symmetry_Int_Tables_number      29
_space_group_name_Hall           'P 2c -2ac'
loop_
_symmetry_equiv_pos_site_id
_symmetry_equiv_pos_as_xyz
1 x,y,z
2 -x,-y,1/2+z
3 1/2+x,-y,z
4 1/2-x,y,1/2+z
_cell_length_a                   10.1452(5)
_cell_length_b                   18.1918(9)
_cell_length_c                   17.3237(9)
_cell_angle_alpha                90
_cell_angle_beta                 90
_cell_angle_gamma                90
_cell_volume                     3197.25
loop_
_atom_site_label
_atom_site_type_symbol
_atom_site_fract_x
_atom_site_fract_y
_atom_site_fract_z
Hg1 Hg 0.68747(5) 0.60004(3) 0.11801(3)
Cl1 Cl 0.6879(5) 0.5091(2) 0.2181(4)
N1 N 0.5006(15) 0.6674(8) 0.1835(9)
N2 N 0.5779(11) 0.7709(7) 0.1143(10)
N3 N 0.6569(13) 0.7274(5) 0.0844(9)
N4 N 0.8400(10) 0.6306(6) 0.0276(7)
N5 N 1.0592(11) 0.4716(7) 0.0264(8)
C1 C 0.415(2) 0.6384(12) 0.2315(13)
H1 H 0.4137 0.5876 0.2374
C2 C 0.3290(16) 0.6797(13) 0.2727(12)
H2 H 0.2728 0.6576 0.3082
C3 C 0.3257(18) 0.7513(13) 0.2619(14)
H3 H 0.2672 0.7798 0.2904
C4 C 0.4084(18) 0.7849(12) 0.2086(11)
H4 H 0.4041 0.8351 0.1989
C5 C 0.4993(18) 0.7390(10) 0.1699(12)
C6 C 0.7500(15) 0.7510(8) 0.0289(10)
C7 C 0.7461(19) 0.8247(8) 0.0044(11)
H5 H 0.6874 0.8579 0.0264
C8 C 0.8311(16) 0.8463(9) -0.0529(11)
H6 H 0.8226 0.8928 -0.0748
C9 C 0.9311(18) 0.7987(10) -0.0788(10)
H7 H 0.9950 0.8159 -0.1128
C10 C 0.9350(16) 0.7266(9) -0.0540(10)
H8 H 0.9994 0.6953 -0.0734
C11 C 0.8398(15) 0.6986(8) 0.0020(10)
C12 C 0.9197(13) 0.5738(7) -0.0033(8)
C13 C 0.9291(17) 0.5577(9) -0.0821(9)
H9 H 0.8862 0.5858 -0.1193
C14 C 1.005(2) 0.4985(9) -0.1012(13)
H10 H 1.0106 0.4855 -0.1531
C15 C 1.0712(15) 0.4577(9) -0.0496(10)
H11 H 1.1255 0.4197 -0.0664
C16 C 0.9902(15) 0.5254(8) 0.0479(9)
H12 H 0.9844 0.5346 0.1006
Hg1B Hg 1.18747(5) 0.39996(3) 0.11801(3)
N5B N 0.5592(11) 0.5284(7) 0.0264(8)
Hg2 Hg 0.07024(5) 0.89701(3) 0.07745(3)
Cl2 Cl 0.0649(5) 0.9910(2) -0.0196(4)
N6 N 0.2572(13) 0.8263(7) 0.0196(8)
N7 N 0.1544(13) 0.7256(7) 0.0892(9)
N8 N 0.0792(10) 0.7741(6) 0.1169(8)
N9 N -0.0854(11) 0.8765(5) 0.1685(7)
N10 N -0.2970(13) 1.0393(7) 0.1711(8)
C17 C 0.3400(15) 0.8504(11) -0.0344(11)
H13 H 0.3432 0.9003 -0.0456
C18 C 0.421(2) 0.8026(13) -0.0743(11)
H14 H 0.4840 0.8207 -0.1085
C19 C 0.4093(19) 0.7296(12) -0.0631(12)
H15 H 0.4577 0.6970 -0.0932
C20 C 0.3226(17) 0.7022(12) -0.0051(11)
H16 H 0.3182 0.6526 0.0076
C21 C 0.2463(16) 0.7541(9) 0.0306(9)
C22 C -0.0023(15) 0.7529(9) 0.1741(10)
C23 C -0.0100(17) 0.6821(8) 0.2035(8)
H17 H 0.0490 0.6468 0.1857
C24 C -0.0994(19) 0.6626(10) 0.2569(12)
H18 H -0.1035 0.6150 0.2761
C25 C -0.1870(15) 0.7177(10) 0.2823(12)
H19 H -0.2498 0.7056 0.3193
C26 C -0.1834(15) 0.7856(9) 0.2560(10)
H20 H -0.2446 0.8193 0.2747
C27 C -0.0932(15) 0.8089(8) 0.2022(9)
C28 C -0.1588(13) 0.9345(7) 0.1985(8)
C29 C -0.1656(16) 0.9531(9) 0.2775(9)
H21 H -0.1242 0.9236 0.3140
C30 C -0.234(2) 1.0149(9) 0.3005(12)
H22 H -0.2341 1.0292 0.3520
C31 C -0.3000(15) 1.0546(8) 0.2464(10)
H23 H -0.3500 1.0945 0.2628
C32 C -0.2267(14) 0.9808(8) 0.1502(9)
H24 H -0.2233 0.9703 0.0977
Hg2B Hg -0.42976(5) 1.10299(3) 0.07745(3)
N10B N 0.2030(13) 0.9607(7) 0.1711(8)
loop_
_geom_bond_atom_site_label_1
_geom_bond_atom_site_label_2
_geom_bond_site_symmetry_1
_geom_bond_site_symmetry_2
Hg1 Cl1 1_555 1_555
N1 Hg1 1_555 1_555
N2 N3 1_555 1_555
N3 Hg1 1_555 1_555
N4 Hg1 1_555 1_555
N5 C15 1_555 1_555
C1 N1 1_555 1_555
H1 C1 1_555 1_555
C2 C1 1_555 1_555
H2 C2 1_555 1_555
C3 C2 1_555 1_555
H3 C3 1_555 1_555
C4 C3 1_555 1_555
H4 C4 1_555 1_555
C5 N1 1_555 1_555
C6 N3 1_555 1_555
C7 C6 1_555 1_555
H5 C7 1_555 1_555
C8 C7 1_555 1_555
H6 C8 1_555 1_555
C9 C8 1_555 1_555
H7 C9 1_555 1_555
C10 C9 1_555 1_555
H8 C10 1_555 1_555
C11 N4 1_555 1_555
C12 N4 1_555 1_555
C13 C12 1_555 1_555
H9 C13 1_555 1_555
C14 C13 1_555 1_555
H10 C14 1_555 1_555
C15 C14 1_555 1_555
H11 C15 1_555 1_555
C16 N5 1_555 1_555
H12 C16 1_555 1_555
Hg2 Cl2 1_555 1_555
N6 Hg2 1_555 1_555
N7 N8 1_555 1_555
N8 Hg2 1_555 1_555
N9 Hg2 1_555 1_555
N10 C31 1_555 1_555
C17 N6 1_555 1_555
H13 C17 1_555 1_555
C18 C17 1_555 1_555
H14 C18 1_555 1_555
C19 C18 1_555 1_555
H15 C19 1_555 1_555
C20 C19 1_555 1_555
H16 C20 1_555 1_555
C21 N6 1_555 1_555
C22 N8 1_555 1_555
C23 C22 1_555 1_555
H17 C23 1_555 1_555
C24 C23 1_555 1_555
H18 C24 1_555 1_555
C25 C24 1_555 1_555
H19 C25 1_555 1_555
C26 C25 1_555 1_555
H20 C26 1_555 1_555
C27 N9 1_555 1_555
C28 N9 1_555 1_555
C29 C28 1_555 1_555
H21 C29 1_555 1_555
C30 C29 1_555 1_555
H22 C30 1_555 1_555
C31 C30 1_555 1_555
H23 C31 1_555 1_555
C32 N10 1_555 1_555
H24 C32 1_555 1_555
Hg1B N5 1_555 1_555
N5B Hg1 1_555 1_555
Hg2B N10 1_555 1_555
N10B Hg2 1_555 1_555
N2 C5 1_555 1_555
C4 C5 1_555 1_555
C6 C11 1_555 1_555
C10 C11 1_555 1_555
C12 C16 1_555 1_555
N7 C21 1_555 1_555
C20 C21 1_555 1_555
C22 C27 1_555 1_555
C26 C27 1_555 1_555
C28 C32 1_555 1_555

#END
