
#######################################################################
#
#                 Cambridge Crystallographic Data Centre
#                                CCDC 
#
#######################################################################
#
# If this CIF has been generated from an entry in the Cambridge 
# Structural Database, then it will include bibliographic, chemical, 
# crystal, experimental, refinement or atomic coordinate data resulting 
# from the CCDC's data processing and validation procedures.
#
#######################################################################

data_REYBUU
_symmetry_cell_setting           triclinic
_symmetry_space_group_name_H-M   'P -1'
_symmetry_Int_Tables_number      2
_space_group_name_Hall           '-P 1'
loop_
_symmetry_equiv_pos_site_id
_symmetry_equiv_pos_as_xyz
1 x,y,z
2 -x,-y,-z
_cell_length_a                   8.815(4)
_cell_length_b                   15.386(7)
_cell_length_c                   16.055(8)
_cell_angle_alpha                104.527(6)
_cell_angle_beta                 92.798(6)
_cell_angle_gamma                101.187(6)
_cell_volume                     2056.91
loop_
_atom_site_label
_atom_site_type_symbol
_atom_site_fract_x
_atom_site_fract_y
_atom_site_fract_z
C1 C 0.9469(6) 0.1180(3) -0.0356(3)
C2 C 1.0266(5) 0.2065(3) 0.0260(3)
C3 C 1.1436(5) 0.2658(3) 0.0011(3)
H1 H 1.1740 0.2501 -0.0544
C4 C 1.2157(5) 0.3486(3) 0.0591(3)
C5 C 1.3415(5) 0.4141(3) 0.0339(3)
C6 C 1.1718(5) 0.3718(3) 0.1420(3)
H2 H 1.2188 0.4278 0.1805
C7 C 1.0572(5) 0.3111(3) 0.1676(3)
C8 C 0.9831(5) 0.2291(3) 0.1096(3)
H3 H 0.9044 0.1893 0.1264
C9 C 0.9325(6) 0.2699(3) 0.2852(3)
H4 H 0.9770 0.2157 0.2750
H5 H 0.8272 0.2523 0.2570
C10 C 0.9317(6) 0.3099(3) 0.3806(3)
C11 C 1.0621(7) 0.3304(5) 0.4355(4)
H6 H 1.1536 0.3175 0.4139
C12 C 1.0633(6) 0.3700(5) 0.5225(4)
H7 H 1.1547 0.3821 0.5589
C13 C 0.9323(6) 0.3915(3) 0.5560(3)
C14 C 0.7992(7) 0.3687(4) 0.5020(3)
H8 H 0.7077 0.3812 0.5237
C15 C 0.7981(7) 0.3268(4) 0.4145(3)
H9 H 0.7053 0.3102 0.3787
C16 C 0.9421(6) 0.4444(3) 0.6508(3)
H10 H 1.0054 0.4187 0.6854
H11 H 0.9927 0.5080 0.6576
C17 C 0.7209(6) 0.3618(3) 0.7013(3)
C18 C 0.7949(5) 0.2918(3) 0.7086(3)
H12 H 0.8982 0.2952 0.6978
C19 C 0.7131(5) 0.2171(3) 0.7320(3)
C20 C 0.7953(6) 0.1431(3) 0.7418(3)
C21 C 0.5577(5) 0.2102(3) 0.7464(3)
H13 H 0.5037 0.1597 0.7624
C22 C 0.4831(5) 0.2800(3) 0.7368(3)
C23 C 0.3141(6) 0.2746(4) 0.7478(3)
C24 C 0.5655(6) 0.3559(3) 0.7157(3)
H14 H 0.5171 0.4034 0.7112
C25 C 0.6960(5) -0.1326(3) -0.1573(3)
C26 C 0.5929(5) -0.2269(3) -0.1853(3)
C27 C 0.5981(5) -0.2812(3) -0.2680(3)
H15 H 0.6626 -0.2587 -0.3054
C28 C 0.5066(5) -0.3687(3) -0.2939(3)
C29 C 0.5072(5) -0.4266(3) -0.3844(3)
C30 C 0.4094(5) -0.4037(3) -0.2394(3)
H16 H 0.3506 -0.4635 -0.2570
C31 C 0.4015(5) -0.3472(3) -0.1576(3)
C32 C 0.4932(5) -0.2592(3) -0.1309(3)
H17 H 0.4876 -0.2218 -0.0762
C33 C 0.2019(5) -0.4605(3) -0.1288(3)
H18 H 0.2598 -0.5087 -0.1447
H19 H 0.1378 -0.4611 -0.1799
C34 C 0.0999(5) -0.4785(3) -0.0601(3)
C35 C 0.1092(5) -0.4177(3) 0.0200(3)
H20 H 0.1821 -0.3624 0.0343
C36 C -0.0088(5) -0.5605(3) -0.0792(3)
H21 H -0.0148 -0.6020 -0.1331
C37 C 1.2331(6) -0.0021(4) -0.1802(4)
H22 H 1.2124 0.0254 -0.1246
C38 C 1.3754(7) -0.0241(4) -0.1911(4)
H23 H 1.4491 -0.0126 -0.1441
C39 C 1.4057(7) -0.0629(4) -0.2720(5)
H24 H 1.5018 -0.0782 -0.2809
C40 C 1.2972(7) -0.0800(4) -0.3405(4)
H25 H 1.3188 -0.1059 -0.3964
C41 C 1.1525(6) -0.0578(3) -0.3256(3)
C42 C 1.0232(6) -0.0781(4) -0.3945(3)
C43 C 1.0336(9) -0.1174(5) -0.4814(4)
H26 H 1.1263 -0.1319 -0.4997
C44 C 0.9063(11) -0.1345(6) -0.5395(4)
H27 H 0.9124 -0.1612 -0.5977
C45 C 0.7720(9) -0.1132(5) -0.5136(4)
H28 H 0.6845 -0.1254 -0.5529
C46 C 0.7681(7) -0.0724(4) -0.4263(4)
H29 H 0.6763 -0.0569 -0.4076
N1 N 1.1229(4) -0.0181(3) -0.2452(3)
N2 N 0.8917(5) -0.0546(3) -0.3681(2)
O1 O 0.9878(4) 0.0935(2) -0.1079(2)
O2 O 0.8342(5) 0.0712(3) -0.0064(2)
H30 H 0.7979 0.0227 -0.0429
O3 O 1.3803(4) 0.3891(2) -0.0431(2)
H31 H 1.4573 0.4259 -0.0489
O4 O 1.4032(4) 0.4883(2) 0.0871(2)
O5 O 1.0229(4) 0.3377(2) 0.25152(19)
O6 O 0.7916(4) 0.4411(2) 0.6823(2)
O7 O 0.9375(4) 0.1526(2) 0.7317(2)
O8 O 0.7218(4) 0.0732(2) 0.7609(2)
O9 O 0.2463(4) 0.1992(2) 0.7663(3)
H32 H 0.1545 0.1998 0.7718
O10 O 0.2460(4) 0.3325(3) 0.7357(2)
O11 O 0.7842(4) -0.1090(2) -0.2105(2)
O12 O 0.6851(4) -0.0822(2) -0.0845(2)
O13 O 0.5716(4) -0.3907(2) -0.4390(2)
O14 O 0.4356(4) -0.5104(2) -0.4014(2)
H33 H 0.4373 -0.5353 -0.4528
O15 O 0.3076(4) -0.3737(2) -0.09866(18)
Zn1 Zn 0.89956(6) 0.00721(4) -0.23012(3)
C25A C -0.6960(5) -0.8674(3) 0.1573(3)
C26A C -0.5929(5) -0.7731(3) 0.1853(3)
C27A C -0.5981(5) -0.7188(3) 0.2680(3)
H15A H -0.6626 -0.7413 0.3054
C28A C -0.5066(5) -0.6313(3) 0.2939(3)
C29A C -0.5072(5) -0.5734(3) 0.3844(3)
C30A C -0.4094(5) -0.5963(3) 0.2394(3)
H16A H -0.3506 -0.5365 0.2570
C31A C -0.4015(5) -0.6528(3) 0.1576(3)
C32A C -0.4932(5) -0.7408(3) 0.1309(3)
H17A H -0.4876 -0.7782 0.0762
C33A C -0.2019(5) -0.5395(3) 0.1288(3)
H18A H -0.2598 -0.4913 0.1447
H19A H -0.1378 -0.5389 0.1799
C34A C -0.0999(5) -0.5215(3) 0.0601(3)
C35A C -0.1092(5) -0.5823(3) -0.0200(3)
H20A H -0.1821 -0.6376 -0.0343
C36A C 0.0088(5) -0.4395(3) 0.0792(3)
H21A H 0.0148 -0.3980 0.1331
O11A O -0.7842(4) -0.8910(2) 0.2105(2)
O12A O -0.6851(4) -0.9178(2) 0.0845(2)
O13A O -0.5716(4) -0.6093(2) 0.4390(2)
O14A O -0.4356(4) -0.4896(2) 0.4014(2)
H33A H -0.4373 -0.4647 0.4528
O15A O -0.3076(4) -0.6263(2) 0.09866(18)
C1A C -0.9469(6) -1.1180(3) 0.0356(3)
C2A C -1.0266(5) -1.2065(3) -0.0260(3)
C3A C -1.1436(5) -1.2658(3) -0.0011(3)
H1A H -1.1740 -1.2501 0.0544
C4A C -1.2157(5) -1.3486(3) -0.0591(3)
C5A C -1.3415(5) -1.4141(3) -0.0339(3)
C6A C -1.1718(5) -1.3718(3) -0.1420(3)
H2A H -1.2188 -1.4278 -0.1805
C7A C -1.0572(5) -1.3111(3) -0.1676(3)
C8A C -0.9831(5) -1.2291(3) -0.1096(3)
H3A H -0.9044 -1.1893 -0.1264
C9A C -0.9325(6) -1.2699(3) -0.2852(3)
H4A H -0.9770 -1.2157 -0.2750
H5A H -0.8272 -1.2523 -0.2570
C10A C -0.9317(6) -1.3099(3) -0.3806(3)
C11A C -1.0621(7) -1.3304(5) -0.4355(4)
H6A H -1.1536 -1.3175 -0.4139
C12A C -1.0633(6) -1.3700(5) -0.5225(4)
H7A H -1.1547 -1.3821 -0.5589
C13A C -0.9323(6) -1.3915(3) -0.5560(3)
C14A C -0.7992(7) -1.3687(4) -0.5020(3)
H8A H -0.7077 -1.3812 -0.5237
C15A C -0.7981(7) -1.3268(4) -0.4145(3)
H9A H -0.7053 -1.3102 -0.3787
C16A C -0.9421(6) -1.4444(3) -0.6508(3)
H10A H -1.0054 -1.4187 -0.6854
H11A H -0.9927 -1.5080 -0.6576
C17A C -0.7209(6) -1.3618(3) -0.7013(3)
C18A C -0.7949(5) -1.2918(3) -0.7086(3)
H12A H -0.8982 -1.2952 -0.6978
C19A C -0.7131(5) -1.2171(3) -0.7320(3)
C20A C -0.7953(6) -1.1431(3) -0.7418(3)
C21A C -0.5577(5) -1.2102(3) -0.7464(3)
H13A H -0.5037 -1.1597 -0.7624
C22A C -0.4831(5) -1.2800(3) -0.7368(3)
C23A C -0.3141(6) -1.2746(4) -0.7478(3)
C24A C -0.5655(6) -1.3559(3) -0.7157(3)
H14A H -0.5171 -1.4034 -0.7112
C37A C -1.2331(6) -0.9979(4) 0.1802(4)
H22A H -1.2124 -1.0254 0.1246
C38A C -1.3754(7) -0.9759(4) 0.1911(4)
H23A H -1.4491 -0.9874 0.1441
C39A C -1.4057(7) -0.9371(4) 0.2720(5)
H24A H -1.5018 -0.9218 0.2809
C40A C -1.2972(7) -0.9200(4) 0.3405(4)
H25A H -1.3188 -0.8941 0.3964
C41A C -1.1525(6) -0.9422(3) 0.3256(3)
C42A C -1.0232(6) -0.9219(4) 0.3945(3)
C43A C -1.0336(9) -0.8826(5) 0.4814(4)
H26A H -1.1263 -0.8681 0.4997
C44A C -0.9063(11) -0.8655(6) 0.5395(4)
H27A H -0.9124 -0.8388 0.5977
C45A C -0.7720(9) -0.8868(5) 0.5136(4)
H28A H -0.6845 -0.8746 0.5529
C46A C -0.7681(7) -0.9276(4) 0.4263(4)
H29A H -0.6763 -0.9431 0.4076
N1A N -1.1229(4) -0.9819(3) 0.2452(3)
N2A N -0.8917(5) -0.9454(3) 0.3681(2)
O1A O -0.9878(4) -1.0935(2) 0.1079(2)
O2A O -0.8342(5) -1.0712(3) 0.0064(2)
H30A H -0.7979 -1.0227 0.0429
O3A O -1.3803(4) -1.3891(2) 0.0431(2)
H31A H -1.4573 -1.4259 0.0489
O4A O -1.4032(4) -1.4883(2) -0.0871(2)
O5A O -1.0229(4) -1.3377(2) -0.25152(19)
O6A O -0.7916(4) -1.4411(2) -0.6823(2)
O7A O -0.9375(4) -1.1526(2) -0.7317(2)
O8A O -0.7218(4) -1.0732(2) -0.7609(2)
O9A O -0.2463(4) -1.1992(2) -0.7663(3)
H32A H -0.1545 -1.1998 -0.7718
O10A O -0.2460(4) -1.3325(3) -0.7357(2)
Zn1A Zn -0.89956(6) -1.00721(4) 0.23012(3)
O7_2 O 0.9375(4) 0.1526(2) -0.2683(2)
O7A_2 O -0.9375(4) -1.1526(2) 0.2683(2)
O8_2 O 0.7218(4) 0.0732(2) -0.2391(2)
O8A_2 O -0.7218(4) -1.0732(2) 0.2391(2)
Zn1_2 Zn 0.89956(6) 0.00721(4) 0.76988(3)
Zn1A_2 Zn -0.89956(6) -1.00721(4) -0.76988(3)
loop_
_geom_bond_atom_site_label_1
_geom_bond_atom_site_label_2
_geom_bond_site_symmetry_1
_geom_bond_site_symmetry_2
C1 C2 1_555 1_555
C2 C3 1_555 1_555
C3 H1 1_555 1_555
C4 C3 1_555 1_555
C5 C4 1_555 1_555
C6 C4 1_555 1_555
H2 C6 1_555 1_555
C7 C6 1_555 1_555
C8 C2 1_555 1_555
H3 C8 1_555 1_555
C9 H4 1_555 1_555
H5 C9 1_555 1_555
C10 C9 1_555 1_555
C11 C10 1_555 1_555
H6 C11 1_555 1_555
C12 C11 1_555 1_555
H7 C12 1_555 1_555
C13 C12 1_555 1_555
C14 C13 1_555 1_555
H8 C14 1_555 1_555
C15 C10 1_555 1_555
H9 C15 1_555 1_555
C16 C13 1_555 1_555
H10 C16 1_555 1_555
H11 C16 1_555 1_555
C17 C18 1_555 1_555
C18 H12 1_555 1_555
C19 C18 1_555 1_555
C20 C19 1_555 1_555
C21 C19 1_555 1_555
H13 C21 1_555 1_555
C22 C21 1_555 1_555
C23 C22 1_555 1_555
C24 C17 1_555 1_555
H14 C24 1_555 1_555
C25 C26 1_555 1_555
C26 C27 1_555 1_555
C27 H15 1_555 1_555
C28 C27 1_555 1_555
C29 C28 1_555 1_555
C30 C28 1_555 1_555
H16 C30 1_555 1_555
C31 C30 1_555 1_555
C32 C26 1_555 1_555
H17 C32 1_555 1_555
C33 H18 1_555 1_555
H19 C33 1_555 1_555
C34 C33 1_555 1_555
C35 C34 1_555 1_555
H20 C35 1_555 1_555
C36 C34 1_555 1_555
H21 C36 1_555 1_555
C37 H22 1_555 1_555
C38 C37 1_555 1_555
H23 C38 1_555 1_555
C39 C38 1_555 1_555
H24 C39 1_555 1_555
C40 C39 1_555 1_555
H25 C40 1_555 1_555
C41 C40 1_555 1_555
C42 C41 1_555 1_555
C43 C42 1_555 1_555
H26 C43 1_555 1_555
C44 C43 1_555 1_555
H27 C44 1_555 1_555
C45 C44 1_555 1_555
H28 C45 1_555 1_555
C46 C45 1_555 1_555
H29 C46 1_555 1_555
N1 C37 1_555 1_555
N2 C42 1_555 1_555
O1 C1 1_555 1_555
O2 C1 1_555 1_555
H30 O2 1_555 1_555
O3 C5 1_555 1_555
H31 O3 1_555 1_555
O4 C5 1_555 1_555
O5 C7 1_555 1_555
O6 C16 1_555 1_555
O7 C20 1_555 1_555
O8 C20 1_555 1_555
O9 C23 1_555 1_555
H32 O9 1_555 1_555
O10 C23 1_555 1_555
O11 C25 1_555 1_555
O12 C25 1_555 1_555
O13 C29 1_555 1_555
O14 C29 1_555 1_555
H33 O14 1_555 1_555
O15 C31 1_555 1_555
Zn1 N1 1_555 1_555
C25A C26A 1_555 1_555
C26A C27A 1_555 1_555
C27A H15A 1_555 1_555
C28A C27A 1_555 1_555
C29A C28A 1_555 1_555
C30A C28A 1_555 1_555
H16A C30A 1_555 1_555
C31A C30A 1_555 1_555
C32A C26A 1_555 1_555
H17A C32A 1_555 1_555
C33A H18A 1_555 1_555
H19A C33A 1_555 1_555
C34A C33A 1_555 1_555
C35A C36 1_555 1_555
H20A C35A 1_555 1_555
C36A C35 1_555 1_555
H21A C36A 1_555 1_555
O11A C25A 1_555 1_555
O12A C25A 1_555 1_555
O13A C29A 1_555 1_555
O14A C29A 1_555 1_555
H33A O14A 1_555 1_555
O15A C31A 1_555 1_555
C1A C2A 1_555 1_555
C2A C3A 1_555 1_555
C3A H1A 1_555 1_555
C4A C3A 1_555 1_555
C5A C4A 1_555 1_555
C6A C4A 1_555 1_555
H2A C6A 1_555 1_555
C7A C6A 1_555 1_555
C8A C2A 1_555 1_555
H3A C8A 1_555 1_555
C9A H4A 1_555 1_555
H5A C9A 1_555 1_555
C10A C9A 1_555 1_555
C11A C10A 1_555 1_555
H6A C11A 1_555 1_555
C12A C11A 1_555 1_555
H7A C12A 1_555 1_555
C13A C12A 1_555 1_555
C14A C13A 1_555 1_555
H8A C14A 1_555 1_555
C15A C10A 1_555 1_555
H9A C15A 1_555 1_555
C16A C13A 1_555 1_555
H10A C16A 1_555 1_555
H11A C16A 1_555 1_555
C17A C18A 1_555 1_555
C18A H12A 1_555 1_555
C19A C18A 1_555 1_555
C20A C19A 1_555 1_555
C21A C19A 1_555 1_555
H13A C21A 1_555 1_555
C22A C21A 1_555 1_555
C23A C22A 1_555 1_555
C24A C17A 1_555 1_555
H14A C24A 1_555 1_555
C37A H22A 1_555 1_555
C38A C37A 1_555 1_555
H23A C38A 1_555 1_555
C39A C38A 1_555 1_555
H24A C39A 1_555 1_555
C40A C39A 1_555 1_555
H25A C40A 1_555 1_555
C41A C40A 1_555 1_555
C42A C41A 1_555 1_555
C43A C42A 1_555 1_555
H26A C43A 1_555 1_555
C44A C43A 1_555 1_555
H27A C44A 1_555 1_555
C45A C44A 1_555 1_555
H28A C45A 1_555 1_555
C46A C45A 1_555 1_555
H29A C46A 1_555 1_555
N1A C37A 1_555 1_555
N2A C42A 1_555 1_555
O1A C1A 1_555 1_555
O2A C1A 1_555 1_555
H30A O2A 1_555 1_555
O3A C5A 1_555 1_555
H31A O3A 1_555 1_555
O4A C5A 1_555 1_555
O5A C7A 1_555 1_555
O6A C16A 1_555 1_555
O7A C20A 1_555 1_555
O8A C20A 1_555 1_555
O9A C23A 1_555 1_555
H32A O9A 1_555 1_555
O10A C23A 1_555 1_555
Zn1A O11A 1_555 1_555
O7_2 Zn1 1_555 1_555
O7A_2 Zn1A 1_555 1_555
O8_2 Zn1 1_555 1_555
O8A_2 Zn1A 1_555 1_555
Zn1_2 O7 1_555 1_555
Zn1A_2 O7A 1_555 1_555
C7 C8 1_555 1_555
C9 O5 1_555 1_555
C14 C15 1_555 1_555
C17 O6 1_555 1_555
C22 C24 1_555 1_555
C31 C32 1_555 1_555
C33 O15 1_555 1_555
C41 N1 1_555 1_555
C46 N2 1_555 1_555
N2 Zn1 1_555 1_555
O1 Zn1 1_555 1_555
O8 Zn1_2 1_555 1_555
O11 Zn1 1_555 1_555
C31A C32A 1_555 1_555
C33A O15A 1_555 1_555
C34A C35A 1_555 1_555
C34A C36A 1_555 1_555
C7A C8A 1_555 1_555
C9A O5A 1_555 1_555
C14A C15A 1_555 1_555
C17A O6A 1_555 1_555
C22A C24A 1_555 1_555
C41A N1A 1_555 1_555
C46A N2A 1_555 1_555
N1A Zn1A 1_555 1_555
N2A Zn1A 1_555 1_555
O1A Zn1A 1_555 1_555
O8A Zn1A_2 1_555 1_555

#END
