
#######################################################################
#
#                 Cambridge Crystallographic Data Centre
#                                CCDC 
#
#######################################################################
#
# If this CIF has been generated from an entry in the Cambridge 
# Structural Database, then it will include bibliographic, chemical, 
# crystal, experimental, refinement or atomic coordinate data resulting 
# from the CCDC's data processing and validation procedures.
#
#######################################################################

data_REYBII
_symmetry_cell_setting           monoclinic
_symmetry_space_group_name_H-M   'P 21/n'
_symmetry_Int_Tables_number      14
_space_group_name_Hall           '-P 2yn'
loop_
_symmetry_equiv_pos_site_id
_symmetry_equiv_pos_as_xyz
1 x,y,z
2 1/2-x,1/2+y,1/2-z
3 -x,-y,-z
4 1/2+x,1/2-y,1/2+z
_cell_length_a                   7.9598(6)
_cell_length_b                   15.1435(12)
_cell_length_c                   17.0375(14)
_cell_angle_alpha                90
_cell_angle_beta                 99.4310(10)
_cell_angle_gamma                90
_cell_volume                     2025.93
loop_
_atom_site_label
_atom_site_type_symbol
_atom_site_fract_x
_atom_site_fract_y
_atom_site_fract_z
Zn1 Zn 0.80239(4) 0.86068(2) 0.823953(19)
O1 O 0.6348(3) 0.84519(15) 0.72794(13)
O2 O 0.4617(3) 0.94624(18) 0.76259(16)
C1 C 0.3225(4) 0.7132(2) 0.46615(17)
O3 O -0.0722(3) 0.91559(17) 0.56855(13)
O4 O 0.4571(4) 0.67162(17) 0.47397(14)
N1 N 0.9958(3) 0.78452(16) 0.78898(14)
N2 N 1.5899(3) 0.48204(16) 0.67692(14)
C2 C 1.1582(4) 0.7866(2) 0.82532(17)
H1 H 1.1878 0.8253 0.8677
C3 C 1.2848(4) 0.7335(2) 0.80270(17)
H2 H 1.3963 0.7369 0.8294
C4 C 1.2420(4) 0.67496(19) 0.73929(17)
C5 C 1.3696(4) 0.61395(19) 0.71485(17)
C6 C 1.5230(5) 0.5951(2) 0.7641(2)
H3 H 1.5545 0.6268 0.8110
C7 C 1.6278(5) 0.5300(2) 0.7438(2)
H4 H 1.7294 0.5185 0.7777
C8 C 1.4498(4) 0.5047(2) 0.62657(17)
H5 H 1.4264 0.4755 0.5780
C9 C 1.3386(4) 0.5687(2) 0.64273(18)
H6 H 1.2427 0.5820 0.6056
C10 C 1.0737(4) 0.6750(2) 0.7014(2)
H7 H 1.0400 0.6371 0.6588
C11 C 0.9573(4) 0.7303(2) 0.7263(2)
H8 H 0.8465 0.7303 0.6985
C12 C 0.4945(4) 0.8877(2) 0.71853(17)
C13 C 0.3652(4) 0.86049(17) 0.64782(16)
C14 C 0.4036(4) 0.79756(18) 0.59366(16)
H9 H 0.5107 0.7714 0.6007
C15 C 0.2819(4) 0.77428(18) 0.52948(16)
C16 C 0.1191(4) 0.81153(19) 0.52038(16)
H10 H 0.0361 0.7945 0.4782
C17 C 0.0823(4) 0.8737(2) 0.57436(18)
C18 C 0.2055(4) 0.89865(19) 0.63742(16)
H11 H 0.1806 0.9414 0.6730
C19 C -0.1932(4) 0.8970(2) 0.49957(19)
H12 H -0.2221 0.8347 0.4982
H13 H -0.1452 0.9108 0.4522
C20 C -0.3502(4) 0.9512(2) 0.50108(18)
C21 C -0.3549(4) 1.0213(2) 0.55227(19)
H14 H -0.2573 1.0363 0.5877
C22 C -0.5033(4) 1.0697(2) 0.55181(19)
H15 H -0.5045 1.1165 0.5871
O5 O 0.2140(3) 0.70981(19) 0.40275(13)
O1B O -1.6348(3) 1.15481(15) 0.27206(13)
O2B O -1.4617(3) 1.05376(18) 0.23741(16)
C1B C -1.3225(4) 1.2868(2) 0.53385(17)
O3B O -0.9278(3) 1.08441(17) 0.43145(13)
O4B O -1.4571(4) 1.32838(17) 0.52603(14)
C12B C -1.4945(4) 1.1123(2) 0.28147(17)
C13B C -1.3652(4) 1.13951(17) 0.35218(16)
C14B C -1.4036(4) 1.20244(18) 0.40634(16)
H9B H -1.5107 1.2286 0.3993
C15B C -1.2819(4) 1.22572(18) 0.47052(16)
C16B C -1.1191(4) 1.18847(19) 0.47962(16)
H10B H -1.0361 1.2055 0.5218
C17B C -1.0823(4) 1.1263(2) 0.42564(18)
C18B C -1.2055(4) 1.10135(19) 0.36258(16)
H11B H -1.1806 1.0586 0.3270
C19B C -0.8068(4) 1.1030(2) 0.50043(19)
H12B H -0.7779 1.1653 0.5018
H13B H -0.8548 1.0892 0.5478
C20B C -0.6498(4) 1.0488(2) 0.49892(18)
C21B C -0.6451(4) 0.9787(2) 0.44773(19)
H14B H -0.7427 0.9637 0.4123
C22B C -0.4967(4) 0.9303(2) 0.44819(19)
H15B H -0.4955 0.8835 0.4129
O5B O -1.2140(3) 1.29019(19) 0.59725(13)
Zn1B Zn -1.80239(4) 1.13932(2) 0.176047(19)
N1B N -1.9958(3) 1.21548(16) 0.21102(14)
N2B N -2.5899(3) 1.51796(16) 0.32308(14)
C2B C -2.1582(4) 1.2134(2) 0.17468(17)
H1B H -2.1878 1.1747 0.1323
C3B C -2.2848(4) 1.2665(2) 0.19730(17)
H2B H -2.3963 1.2631 0.1706
C4B C -2.2420(4) 1.32504(19) 0.26071(17)
C5B C -2.3696(4) 1.38605(19) 0.28515(17)
C6B C -2.5230(5) 1.4049(2) 0.2359(2)
H3B H -2.5545 1.3732 0.1890
C7B C -2.6278(5) 1.4700(2) 0.2562(2)
H4B H -2.7294 1.4815 0.2223
C8B C -2.4498(4) 1.4953(2) 0.37343(17)
H5B H -2.4264 1.5245 0.4220
C9B C -2.3386(4) 1.4313(2) 0.35727(18)
H6B H -2.2427 1.4180 0.3944
C10B C -2.0737(4) 1.3250(2) 0.2986(2)
H7B H -2.0400 1.3629 0.3412
C11B C -1.9573(4) 1.2697(2) 0.2737(2)
H8B H -1.8465 1.2697 0.3015
Zn1A Zn -1.30239(4) 1.36068(2) 0.676047(19)
Zn1A_2 Zn 1.69761(4) 0.36068(2) 0.676047(19)
Zn1C Zn -2.69761(4) 1.63932(2) 0.323953(19)
Zn1C_2 Zn 0.30239(4) 0.63932(2) 0.323953(19)
N2A N 0.9101(3) 0.98204(16) 0.82308(14)
N2C N -1.9101(3) 1.01796(16) 0.17692(14)
O5A O -1.7140(3) 1.20981(19) 0.09725(13)
O5C O 0.7140(3) 0.79019(19) 0.90275(13)
O6 O 1.3033(7) 0.8653(4) 1.0293(4)
O7 O 0.5609(7) 0.9720(3) 0.9175(3)
loop_
_geom_bond_atom_site_label_1
_geom_bond_atom_site_label_2
_geom_bond_site_symmetry_1
_geom_bond_site_symmetry_2
Zn1 O1 1_555 1_555
O1 C12 1_555 1_555
O2 C12 1_555 1_555
C1 O4 1_555 1_555
O3 C17 1_555 1_555
N1 Zn1 1_555 1_555
N2 C7 1_555 1_555
C2 N1 1_555 1_555
H1 C2 1_555 1_555
C3 C2 1_555 1_555
H2 C3 1_555 1_555
C4 C3 1_555 1_555
C5 C4 1_555 1_555
C6 C5 1_555 1_555
H3 C6 1_555 1_555
C7 C6 1_555 1_555
H4 C7 1_555 1_555
C8 N2 1_555 1_555
H5 C8 1_555 1_555
C9 C5 1_555 1_555
H6 C9 1_555 1_555
C10 C4 1_555 1_555
H7 C10 1_555 1_555
C11 N1 1_555 1_555
H8 C11 1_555 1_555
C12 C13 1_555 1_555
C13 C14 1_555 1_555
C14 H9 1_555 1_555
C15 C1 1_555 1_555
C16 C15 1_555 1_555
H10 C16 1_555 1_555
C17 C16 1_555 1_555
C18 C13 1_555 1_555
H11 C18 1_555 1_555
C19 O3 1_555 1_555
H12 C19 1_555 1_555
H13 C19 1_555 1_555
C20 C19 1_555 1_555
C21 C20 1_555 1_555
H14 C21 1_555 1_555
C22 C21 1_555 1_555
H15 C22 1_555 1_555
O5 C1 1_555 1_555
O1B C12B 1_555 1_555
O2B C12B 1_555 1_555
C1B O4B 1_555 1_555
O3B C17B 1_555 1_555
C12B C13B 1_555 1_555
C13B C14B 1_555 1_555
C14B H9B 1_555 1_555
C15B C1B 1_555 1_555
C16B C15B 1_555 1_555
H10B C16B 1_555 1_555
C17B C16B 1_555 1_555
C18B C13B 1_555 1_555
H11B C18B 1_555 1_555
C19B O3B 1_555 1_555
H12B C19B 1_555 1_555
H13B C19B 1_555 1_555
C20B C22 1_555 1_555
C21B C20B 1_555 1_555
H14B C21B 1_555 1_555
C22B C20 1_555 1_555
H15B C22B 1_555 1_555
O5B C1B 1_555 1_555
Zn1B O1B 1_555 1_555
N1B Zn1B 1_555 1_555
N2B C7B 1_555 1_555
C2B N1B 1_555 1_555
H1B C2B 1_555 1_555
C3B C2B 1_555 1_555
H2B C3B 1_555 1_555
C4B C3B 1_555 1_555
C5B C4B 1_555 1_555
C6B C5B 1_555 1_555
H3B C6B 1_555 1_555
C7B C6B 1_555 1_555
H4B C7B 1_555 1_555
C8B N2B 1_555 1_555
H5B C8B 1_555 1_555
C9B C5B 1_555 1_555
H6B C9B 1_555 1_555
C10B C4B 1_555 1_555
H7B C10B 1_555 1_555
C11B N1B 1_555 1_555
H8B C11B 1_555 1_555
Zn1A O5B 1_555 1_555
Zn1A_2 N2 1_555 1_555
Zn1C N2B 1_555 1_555
Zn1C_2 O5 1_555 1_555
N2A Zn1 1_555 1_555
N2C Zn1B 1_555 1_555
O5A Zn1B 1_555 1_555
O5C Zn1 1_555 1_555
C8 C9 1_555 1_555
C10 C11 1_555 1_555
C14 C15 1_555 1_555
C17 C18 1_555 1_555
C14B C15B 1_555 1_555
C17B C18B 1_555 1_555
C19B C20B 1_555 1_555
C21B C22B 1_555 1_555
C8B C9B 1_555 1_555
C10B C11B 1_555 1_555

#END
