
#######################################################################
#
#                 Cambridge Crystallographic Data Centre
#                                CCDC 
#
#######################################################################
#
# If this CIF has been generated from an entry in the Cambridge 
# Structural Database, then it will include bibliographic, chemical, 
# crystal, experimental, refinement or atomic coordinate data resulting 
# from the CCDC's data processing and validation procedures.
#
#######################################################################

data_REYCUV
_symmetry_cell_setting           triclinic
_symmetry_space_group_name_H-M   'P -1'
_symmetry_Int_Tables_number      2
_space_group_name_Hall           '-P 1'
loop_
_symmetry_equiv_pos_site_id
_symmetry_equiv_pos_as_xyz
1 x,y,z
2 -x,-y,-z
_cell_length_a                   10.4354(11)
_cell_length_b                   11.5091(12)
_cell_length_c                   12.1928(12)
_cell_angle_alpha                80.0500(10)
_cell_angle_beta                 70.9540(10)
_cell_angle_gamma                73.5240(10)
_cell_volume                     1322.17
loop_
_atom_site_label
_atom_site_type_symbol
_atom_site_fract_x
_atom_site_fract_y
_atom_site_fract_z
C1 C -0.0531(5) 0.3052(4) 0.3965(4)
C2 C -0.0326(5) 0.4316(4) 0.3732(4)
C3 C -0.1420(5) 0.5258(4) 0.4239(4)
H1 H -0.2302 0.5104 0.4675
C4 C -0.1225(5) 0.6418(4) 0.4109(4)
C5 C -0.2379(5) 0.7418(4) 0.4704(4)
C6 C 0.0075(5) 0.6643(4) 0.3487(4)
H2 H 0.0208 0.7441 0.3393
C7 C 0.1173(5) 0.5693(4) 0.3006(4)
C8 C 0.0974(5) 0.4533(4) 0.3100(4)
H3 H 0.1717 0.3894 0.2737
C9 C 0.3597(5) 0.5042(5) 0.1971(6)
H4 H 0.3380 0.4716 0.1369
H5 H 0.3780 0.4369 0.2569
C10 C 0.4854(5) 0.5541(5) 0.1430(5)
C11 C 0.4823(6) 0.6544(5) 0.0639(5)
H6 H 0.3972 0.6949 0.0467
C12 C 0.6016(6) 0.6983(5) 0.0079(5)
H7 H 0.5967 0.7684 -0.0461
C13 C 0.7249(5) 0.6412(5) 0.0305(5)
C14 C 0.7299(7) 0.5407(6) 0.1091(7)
H8 H 0.8159 0.4987 0.1240
C15 C 0.6084(7) 0.4992(6) 0.1680(7)
H9 H 0.6120 0.4323 0.2257
C16 C 0.8529(6) 0.6867(6) -0.0321(5)
H10 H 0.9327 0.6185 -0.0634
H11 H 0.8366 0.7468 -0.0978
C17 C 0.9963(5) 0.7915(5) 0.0125(4)
C18 C 1.0176(5) 0.8449(4) 0.0961(4)
H12 H 0.9554 0.8455 0.1730
C19 C 1.1305(5) 0.8980(4) 0.0676(4)
C20 C 1.1502(5) 0.9578(4) 0.1595(4)
C21 C 1.2185(5) 0.8986(4) -0.0450(4)
H13 H 1.2960 0.9339 -0.0645
C22 C 1.1949(5) 0.8483(4) -0.1299(4)
C23 C 1.2846(5) 0.8549(4) -0.2532(4)
C24 C 1.0835(5) 0.7931(4) -0.1004(4)
H14 H 1.0678 0.7568 -0.1576
O1 O -0.1615(4) 0.2867(3) 0.4702(3)
O2 O 0.0435(3) 0.2216(3) 0.3411(3)
O3 O -0.3423(4) 0.7160(3) 0.5477(3)
O4 O -0.2285(4) 0.8496(3) 0.4458(4)
O5 O 0.2435(3) 0.5992(3) 0.2495(3)
O6 O 0.8819(4) 0.7422(4) 0.0509(3)
O7 O 1.0577(4) 0.9577(3) 0.2572(3)
O8 O 1.2490(5) 1.0043(4) 0.1366(3)
O9 O 1.3888(4) 0.8980(4) -0.2758(3)
O10 O 1.2502(4) 0.8171(4) -0.3269(3)
O11 O -0.3494(5) 0.2144(4) 0.6719(4)
H15 H -0.4070 0.2811 0.6931
H16 H -0.3123 0.1657 0.7202
O12 O -0.4589(6) 0.3612(7) 0.4867(6)
H17 H -0.4310 0.4263 0.4734
H18 H -0.5438 0.3646 0.4943
O13 O -0.4554(3) 0.0813(3) 0.5452(3)
H19 H -0.5293 0.1218 0.6125
O14 O -0.1374(3) 0.0197(3) 0.5054(3)
H20 H -0.1622 -0.0488 0.4829
Zn1 Zn -0.29940(6) 0.17035(5) 0.50272(5)
Zn2 Zn -0.44536(5) 0.89990(5) 0.58446(5)
Zn3 Zn 0.02992(6) 0.05257(5) 0.37881(5)
O15 O -0.3387(4) 0.8752(4) 0.7161(3)
H21 H -0.2593 0.8253 0.7080
H22 H -0.3763 0.9155 0.7756
O7_2 O 0.0577(4) -0.0423(3) 0.2572(3)
O9_2 O -0.6112(4) 0.8980(4) 0.7242(3)
O10A O -0.2502(4) 0.1829(4) 0.3269(3)
O13_2 O -0.4554(3) 1.0813(3) 0.5452(3)
O13A O -0.5446(3) 0.9187(3) 0.4548(3)
O14A O 0.1374(3) -0.0197(3) 0.4946(3)
Zn1A Zn 1.29940(6) 0.82965(5) -0.50272(5)
Zn2_2 Zn -0.44536(5) -0.10010(5) 0.58446(5)
Zn2_3 Zn 1.55464(5) 0.89990(5) -0.41554(5)
Zn2A Zn -0.55464(5) 0.10010(5) 0.41554(5)
Zn3_2 Zn 1.02992(6) 1.05257(5) 0.37881(5)
Zn3A Zn -0.02992(6) -0.05257(5) 0.62119(5)
O16 O 0.3874(6) 0.1608(6) 0.7692(5)
O17 O 0.5094(13) 0.9874(11) 0.0754(9)
loop_
_geom_bond_atom_site_label_1
_geom_bond_atom_site_label_2
_geom_bond_site_symmetry_1
_geom_bond_site_symmetry_2
C1 C2 1_555 1_555
C2 C3 1_555 1_555
C3 H1 1_555 1_555
C4 C3 1_555 1_555
C5 C4 1_555 1_555
C6 C4 1_555 1_555
H2 C6 1_555 1_555
C7 C6 1_555 1_555
C8 C2 1_555 1_555
H3 C8 1_555 1_555
C9 H4 1_555 1_555
H5 C9 1_555 1_555
C10 C9 1_555 1_555
C11 C10 1_555 1_555
H6 C11 1_555 1_555
C12 C11 1_555 1_555
H7 C12 1_555 1_555
C13 C12 1_555 1_555
C14 C13 1_555 1_555
H8 C14 1_555 1_555
C15 C10 1_555 1_555
H9 C15 1_555 1_555
C16 C13 1_555 1_555
H10 C16 1_555 1_555
H11 C16 1_555 1_555
C17 C18 1_555 1_555
C18 H12 1_555 1_555
C19 C18 1_555 1_555
C20 C19 1_555 1_555
C21 C19 1_555 1_555
H13 C21 1_555 1_555
C22 C21 1_555 1_555
C23 C22 1_555 1_555
C24 C17 1_555 1_555
H14 C24 1_555 1_555
O1 C1 1_555 1_555
O2 C1 1_555 1_555
O3 C5 1_555 1_555
O4 C5 1_555 1_555
O5 C7 1_555 1_555
O6 C16 1_555 1_555
O7 C20 1_555 1_555
O8 C20 1_555 1_555
O9 C23 1_555 1_555
O10 C23 1_555 1_555
O11 H15 1_555 1_555
H16 O11 1_555 1_555
O12 H17 1_555 1_555
H18 O12 1_555 1_555
O13 H19 1_555 1_555
O14 H20 1_555 1_555
Zn1 O1 1_555 1_555
Zn2 O3 1_555 1_555
Zn3 O2 1_555 1_555
O15 Zn2 1_555 1_555
H21 O15 1_555 1_555
H22 O15 1_555 1_555
O7_2 Zn3 1_555 1_555
O9_2 Zn2 1_555 1_555
O10A Zn1 1_555 1_555
O13_2 Zn2 1_555 1_555
O13A Zn2 1_555 1_555
O14A Zn3 1_555 1_555
Zn1A O10 1_555 1_555
Zn2_2 O13 1_555 1_555
Zn2_3 O9 1_555 1_555
Zn2A O13 1_555 1_555
Zn3_2 O7 1_555 1_555
Zn3A O14 1_555 1_555
C7 C8 1_555 1_555
C9 O5 1_555 1_555
C14 C15 1_555 1_555
C17 O6 1_555 1_555
C22 C24 1_555 1_555
O4 Zn2 1_555 1_555
O11 Zn1 1_555 1_555
O12 Zn1 1_555 1_555
O13 Zn1 1_555 1_555
O14 Zn1 1_555 1_555
O14 Zn3 1_555 1_555
O14A Zn3A 1_555 1_555

#END
