
#######################################################################
#
#                 Cambridge Crystallographic Data Centre
#                                CCDC 
#
#######################################################################
#
# If this CIF has been generated from an entry in the Cambridge 
# Structural Database, then it will include bibliographic, chemical, 
# crystal, experimental, refinement or atomic coordinate data resulting 
# from the CCDC's data processing and validation procedures.
#
#######################################################################

data_REYCEF
_symmetry_cell_setting           monoclinic
_symmetry_space_group_name_H-M   'C 2/c'
_symmetry_Int_Tables_number      15
_space_group_name_Hall           '-C 2yn'
loop_
_symmetry_equiv_pos_site_id
_symmetry_equiv_pos_as_xyz
1 x,y,z
2 -x,y,1/2-z
3 1/2+x,1/2+y,z
4 1/2-x,1/2+y,1/2-z
5 -x,-y,-z
6 x,-y,1/2+z
7 1/2-x,1/2-y,-z
8 1/2+x,1/2-y,1/2+z
_cell_length_a                   20.334(2)
_cell_length_b                   15.2784(16)
_cell_length_c                   8.0062(9)
_cell_angle_alpha                90
_cell_angle_beta                 105.8440(10)
_cell_angle_gamma                90
_cell_volume                     2392.8
loop_
_atom_site_label
_atom_site_type_symbol
_atom_site_fract_x
_atom_site_fract_y
_atom_site_fract_z
C1 C 0.35678(18) 0.1895(2) 0.2707(5)
C2 C 0.33646(18) 0.2545(2) 0.3860(5)
C3 C 0.27973(17) 0.3093(2) 0.3186(5)
H1 H 0.2526 0.3020 0.2054
C4 C 0.26502(17) 0.3744(2) 0.4236(5)
C5 C 0.20508(18) 0.4352(3) 0.3610(5)
C6 C 0.30450(19) 0.3830(3) 0.5962(5)
H2 H 0.2943 0.4266 0.6663
C7 C 0.35864(18) 0.3269(3) 0.6622(5)
C8 C 0.37465(17) 0.2627(2) 0.5555(5)
H3 H 0.4114 0.2254 0.5996
C9 C 0.3859(2) 0.3964(3) 0.9422(6)
H4 H 0.3440 0.3831 0.9726
H5 H 0.3809 0.4531 0.8855
C10 C 0.4450(2) 0.3973(2) 1.1008(5)
C11 C 0.4339(2) 0.3981(3) 1.2636(6)
H6 H 0.3894 0.3987 1.2742
C12 C 0.4889(2) 0.3980(3) 1.4114(6)
H7 H 0.4809 0.3983 1.5204
O1 O 0.32588(14) 0.18875(19) 0.1122(4)
O2 O 0.40536(14) 0.13641(18) 0.3338(4)
O3 O 0.45448(14) 0.16687(19) -0.0015(4)
O4 O 0.44246(14) -0.01426(19) 0.0936(4)
O5 O 0.15828(14) 0.41538(19) 0.2286(4)
O6 O 0.20449(14) 0.5009(2) 0.4529(4)
O7 O 0.39969(14) 0.33021(19) 0.8290(4)
Zn1 Zn 0.37153(2) 0.08547(3) 0.03178(6)
C1A C 0.64322(18) 0.1895(2) 2.2293(5)
C2A C 0.66354(18) 0.2545(2) 2.1140(5)
C3A C 0.72027(17) 0.3093(2) 2.1814(5)
H1A H 0.7474 0.3020 2.2946
C4A C 0.73498(17) 0.3744(2) 2.0764(5)
C5A C 0.79492(18) 0.4352(3) 2.1390(5)
C6A C 0.69550(19) 0.3830(3) 1.9038(5)
H2A H 0.7057 0.4266 1.8337
C7A C 0.64136(18) 0.3269(3) 1.8378(5)
C8A C 0.62535(17) 0.2627(2) 1.9445(5)
H3A H 0.5886 0.2254 1.9004
C9A C 0.6141(2) 0.3964(3) 1.5578(6)
H4A H 0.6560 0.3831 1.5274
H5A H 0.6191 0.4531 1.6145
C10A C 0.5550(2) 0.3973(2) 1.3992(5)
C11A C 0.5661(2) 0.3981(3) 1.2364(6)
H6A H 0.6106 0.3987 1.2258
C12A C 0.5111(2) 0.3980(3) 1.0886(6)
H7A H 0.5191 0.3983 0.9796
O1A O 0.67412(14) 0.18875(19) 2.3878(4)
O2A O 0.59464(14) 0.13641(18) 2.1662(4)
O5A O 0.84172(14) 0.41538(19) 2.2714(4)
O6A O 0.79551(14) 0.5009(2) 2.0471(4)
O7A O 0.60031(14) 0.33021(19) 1.6710(4)
O3A O 0.54552(14) 0.16687(19) 2.5015(4)
O4A O 0.55754(14) -0.01426(19) 2.4064(4)
Zn1A Zn 0.62847(2) 0.08547(3) 2.46822(6)
O5F O 0.34172(14) 0.08462(19) -0.2286(4)
O5G O 0.65828(14) 0.08462(19) 2.7286(4)
O6B O 0.70449(14) 0.0009(2) 2.4529(4)
O6C O 0.29551(14) 0.0009(2) 0.0471(4)
Zn1B Zn 0.87153(2) 0.58547(3) 2.03178(6)
Zn1C Zn 0.12847(2) 0.58547(3) 0.46822(6)
Zn1F Zn 0.12847(2) 0.41453(3) -0.03178(6)
Zn1G Zn 0.87153(2) 0.41453(3) 2.53178(6)
loop_
_geom_bond_atom_site_label_1
_geom_bond_atom_site_label_2
_geom_bond_site_symmetry_1
_geom_bond_site_symmetry_2
C1 C2 1_555 1_555
C2 C3 1_555 1_555
C3 H1 1_555 1_555
C4 C3 1_555 1_555
C5 C4 1_555 1_555
C6 C4 1_555 1_555
H2 C6 1_555 1_555
C7 C6 1_555 1_555
C8 C2 1_555 1_555
H3 C8 1_555 1_555
C9 H4 1_555 1_555
H5 C9 1_555 1_555
C10 C9 1_555 1_555
C11 C10 1_555 1_555
H6 C11 1_555 1_555
C12 C11 1_555 1_555
H7 C12 1_555 1_555
O1 C1 1_555 1_555
O2 C1 1_555 1_555
O3 Zn1 1_555 1_555
O4 Zn1 1_555 1_555
O5 C5 1_555 1_555
O6 C5 1_555 1_555
O7 C7 1_555 1_555
Zn1 O1 1_555 1_555
C1A C2A 1_555 1_555
C2A C3A 1_555 1_555
C3A H1A 1_555 1_555
C4A C3A 1_555 1_555
C5A C4A 1_555 1_555
C6A C4A 1_555 1_555
H2A C6A 1_555 1_555
C7A C6A 1_555 1_555
C8A C2A 1_555 1_555
H3A C8A 1_555 1_555
C9A H4A 1_555 1_555
H5A C9A 1_555 1_555
C10A C12 1_555 1_555
C11A C10A 1_555 1_555
H6A C11A 1_555 1_555
C12A C10 1_555 1_555
H7A C12A 1_555 1_555
O1A C1A 1_555 1_555
O2A C1A 1_555 1_555
O5A C5A 1_555 1_555
O6A C5A 1_555 1_555
O7A C7A 1_555 1_555
O3A Zn1A 1_555 1_555
O4A Zn1A 1_555 1_555
Zn1A O1A 1_555 1_555
O5F Zn1 1_555 1_555
O5G Zn1A 1_555 1_555
O6B Zn1A 1_555 1_555
O6C Zn1 1_555 1_555
Zn1B O6A 1_555 1_555
Zn1C O6 1_555 1_555
Zn1F O5 1_555 1_555
Zn1G O5A 1_555 1_555
C7 C8 1_555 1_555
C9 O7 1_555 1_555
O2 Zn1 1_555 1_555
C7A C8A 1_555 1_555
C9A C10A 1_555 1_555
C9A O7A 1_555 1_555
C11A C12A 1_555 1_555
O2A Zn1A 1_555 1_555

#END
