
#######################################################################
#
#                 Cambridge Crystallographic Data Centre
#                                CCDC 
#
#######################################################################
#
# If this CIF has been generated from an entry in the Cambridge 
# Structural Database, then it will include bibliographic, chemical, 
# crystal, experimental, refinement or atomic coordinate data resulting 
# from the CCDC's data processing and validation procedures.
#
#######################################################################

data_REYCAB
_symmetry_cell_setting           triclinic
_symmetry_space_group_name_H-M   'P -1'
_symmetry_Int_Tables_number      2
_space_group_name_Hall           '-P 1'
loop_
_symmetry_equiv_pos_site_id
_symmetry_equiv_pos_as_xyz
1 x,y,z
2 -x,-y,-z
_cell_length_a                   8.7504(10)
_cell_length_b                   10.7138(12)
_cell_length_c                   21.673(2)
_cell_angle_alpha                93.144(2)
_cell_angle_beta                 100.882(2)
_cell_angle_gamma                112.205(2)
_cell_volume                     1829.45
loop_
_atom_site_label
_atom_site_type_symbol
_atom_site_fract_x
_atom_site_fract_y
_atom_site_fract_z
C1 C 0.8922(5) 0.4627(4) 0.17712(17)
C2 C 0.8180(5) 0.4946(4) 0.11507(18)
C3 C 0.9543(5) 0.3621(4) 0.17755(18)
H1 H 0.9495 0.3148 0.1395
C4 C 1.0236(5) 0.3315(4) 0.23440(18)
C5 C 1.0858(5) 0.2212(4) 0.23466(19)
C6 C 1.0309(5) 0.4014(4) 0.29156(19)
H2 H 1.0770 0.3803 0.3298
C7 C 0.9685(5) 0.5038(4) 0.29112(18)
C8 C 0.8969(5) 0.5327(4) 0.23434(18)
H3 H 0.8517 0.5986 0.2341
C9 C 0.9306(7) 0.6781(5) 0.3526(2)
H4 H 0.8079 0.6426 0.3406
H5 H 0.9759 0.7418 0.3241
C10 C 0.9932(6) 0.7477(5) 0.4200(2)
C11 C 1.1112(8) 0.8789(6) 0.4343(2)
H6 H 1.1533 0.9255 0.4022
C12 C 1.1683(8) 0.9425(6) 0.4968(2)
H7 H 1.2477 1.0320 0.5058
C13 C 1.1121(6) 0.8785(5) 0.5446(2)
C14 C 0.9962(9) 0.7477(7) 0.5302(2)
H8 H 0.9560 0.7014 0.5627
C15 C 0.9361(9) 0.6814(7) 0.4681(2)
H9 H 0.8569 0.5918 0.4595
C16 C 1.1680(7) 0.9470(6) 0.6124(2)
H10 H 1.2332 1.0437 0.6144
H11 H 1.0701 0.9348 0.6300
C17 C 1.3101(5) 0.9152(4) 0.71203(18)
C18 C 1.2776(5) 1.0129(4) 0.74559(18)
H12 H 1.2265 1.0649 0.7241
C19 C 1.3220(5) 1.0327(4) 0.81165(17)
C20 C 1.2915(5) 1.1363(4) 0.84962(18)
C21 C 1.3967(5) 0.9542(4) 0.84367(18)
H13 H 1.4237 0.9659 0.8878
C22 C 1.4312(5) 0.8572(4) 0.80943(18)
C23 C 1.5091(5) 0.7740(4) 0.84568(19)
C24 C 1.3869(5) 0.8384(4) 0.74429(18)
H14 H 1.4088 0.7733 0.7215
C25 C 0.6605(5) 0.3582(4) -0.18286(17)
C26 C 0.6656(5) 0.4313(4) -0.12115(18)
C27 C 0.7218(5) 0.2560(4) -0.18185(17)
H15 H 0.7662 0.2347 -0.1434
C28 C 0.7166(5) 0.1861(4) -0.23841(17)
C29 C 0.7787(5) 0.0753(4) -0.23750(18)
C30 C 0.6518(5) 0.2187(4) -0.29662(18)
H16 H 0.6479 0.1716 -0.3346
C31 C 0.5942(5) 0.3218(4) -0.29648(18)
C32 C 0.5955(5) 0.3901(4) -0.24011(18)
H17 H 0.5526 0.4574 -0.2408
C33 C 0.5714(7) 0.3311(5) -0.40792(19)
H18 H 0.5060 0.2358 -0.4245
H19 H 0.6908 0.3477 -0.4002
C34 C 0.5320(6) 0.4190(5) -0.45494(19)
C35 C 0.4874(7) 0.3723(5) -0.5193(2)
H20 H 0.4777 0.2852 -0.5328
C36 C 0.5430(7) 0.5475(5) -0.4363(2)
H21 H 0.5712 0.5806 -0.3933
C37 C 1.0570(7) 0.7634(6) 0.0014(2)
C38 C 1.2202(8) 0.8737(6) 0.0035(3)
H22 H 1.3031 0.8365 0.0007
H23 H 1.2554 0.9339 0.0426
H24 H 1.2094 0.9233 -0.0316
Co1 Co 0.70621(7) 0.51807(6) -0.00046(2)
N1 N 0.9306(5) 0.6781(4) -0.00059(17)
O1 O 0.7993(4) 0.4204(3) 0.06565(12)
O2 O 0.7738(4) 0.5929(3) 0.11190(13)
O3 O 1.0705(4) 0.1537(3) 0.18374(14)
O4 O 1.1518(5) 0.1972(3) 0.28863(14)
H25 H 1.2208 0.2690 0.3098
O5 O 0.9871(5) 0.5699(3) 0.34938(13)
O6 O 1.2694(4) 0.8859(4) 0.64734(13)
O7 O 1.2296(4) 1.2108(3) 0.81535(13)
H26 H 1.2128 1.2646 0.8388
O8 O 1.3255(4) 1.1523(3) 0.90718(13)
O9 O 1.5478(4) 0.7913(3) 0.90318(14)
O10 O 1.5311(5) 0.6827(3) 0.81018(14)
H27 H 1.5683 0.6370 0.8328
O11 O 0.7054(4) 0.3862(3) -0.07123(13)
O12 O 0.6321(4) 0.5344(3) -0.11871(15)
O13 O 0.8268(4) 0.0444(3) -0.18376(13)
H28 H 0.8616 -0.0159 -0.1884
O14 O 0.7785(4) 0.0157(3) -0.28946(13)
O15 O 0.5298(4) 0.3633(3) -0.35070(13)
O16 O 0.5616(3) 0.6367(3) -0.00171(12)
H29 H 0.5604 0.6777 0.0328
H30 H 0.5043 0.6434 -0.0367
C25A C 0.3395(5) 0.6418(4) -0.81714(17)
C26A C 0.3344(5) 0.5687(4) -0.87885(18)
C27A C 0.2782(5) 0.7440(4) -0.81815(17)
H15A H 0.2338 0.7653 -0.8566
C28A C 0.2834(5) 0.8139(4) -0.76159(17)
C29A C 0.2213(5) 0.9247(4) -0.76250(18)
C30A C 0.3482(5) 0.7813(4) -0.70338(18)
H16A H 0.3521 0.8284 -0.6654
C31A C 0.4058(5) 0.6782(4) -0.70352(18)
C32A C 0.4045(5) 0.6099(4) -0.75989(18)
H17A H 0.4474 0.5426 -0.7592
C33A C 0.4286(7) 0.6689(5) -0.59208(19)
H18A H 0.4940 0.7642 -0.5755
H19A H 0.3092 0.6523 -0.5998
C34A C 0.4680(6) 0.5810(5) -0.54506(19)
C35A C 0.5126(7) 0.6277(5) -0.4807(2)
H20A H 0.5223 0.7148 -0.4672
C36A C 0.4570(7) 0.4525(5) -0.5637(2)
H21A H 0.4288 0.4194 -0.6067
O11A O 0.2946(4) 0.6138(3) -0.92877(13)
O12A O 0.3679(4) 0.4656(3) -0.88129(15)
O13A O 0.1732(4) 0.9556(3) -0.81624(13)
H28A H 0.1384 1.0159 -0.8116
O14A O 0.2215(4) 0.9843(3) -0.71054(13)
O15A O 0.4702(4) 0.6367(3) -0.64930(13)
C1A C 0.1078(5) 0.5373(4) -1.17712(17)
C2A C 0.1820(5) 0.5054(4) -1.11507(18)
C3A C 0.0457(5) 0.6379(4) -1.17755(18)
H1A H 0.0505 0.6852 -1.1395
C4A C -0.0236(5) 0.6685(4) -1.23440(18)
C5A C -0.0858(5) 0.7788(4) -1.23466(19)
C6A C -0.0309(5) 0.5986(4) -1.29156(19)
H2A H -0.0770 0.6197 -1.3298
C7A C 0.0315(5) 0.4962(4) -1.29112(18)
C8A C 0.1031(5) 0.4673(4) -1.23434(18)
H3A H 0.1483 0.4014 -1.2341
C9A C 0.0694(7) 0.3219(5) -1.3526(2)
H4A H 0.1921 0.3574 -1.3406
H5A H 0.0241 0.2582 -1.3241
C10A C 0.0068(6) 0.2523(5) -1.4200(2)
C11A C -0.1112(8) 0.1211(6) -1.4343(2)
H6A H -0.1533 0.0745 -1.4022
C12A C -0.1683(8) 0.0575(6) -1.4968(2)
H7A H -0.2477 -0.0320 -1.5058
C13A C -0.1121(6) 0.1215(5) -1.5446(2)
C14A C 0.0038(9) 0.2523(7) -1.5302(2)
H8A H 0.0440 0.2986 -1.5627
C15A C 0.0639(9) 0.3186(7) -1.4681(2)
H9A H 0.1431 0.4082 -1.4595
C16A C -0.1680(7) 0.0530(6) -1.6124(2)
H10A H -0.2332 -0.0437 -1.6144
H11A H -0.0701 0.0652 -1.6300
C17A C -0.3101(5) 0.0848(4) -1.71203(18)
C18A C -0.2776(5) -0.0129(4) -1.74559(18)
H12A H -0.2265 -0.0649 -1.7241
C19A C -0.3220(5) -0.0327(4) -1.81165(17)
C20A C -0.2915(5) -0.1363(4) -1.84962(18)
C21A C -0.3967(5) 0.0458(4) -1.84367(18)
H13A H -0.4237 0.0341 -1.8878
C22A C -0.4312(5) 0.1428(4) -1.80943(18)
C23A C -0.5091(5) 0.2260(4) -1.84568(19)
C24A C -0.3869(5) 0.1616(4) -1.74429(18)
H14A H -0.4088 0.2267 -1.7215
C37A C -0.0570(7) 0.2366(6) -1.0014(2)
C38A C -0.2202(8) 0.1263(6) -1.0035(3)
H22A H -0.3031 0.1635 -1.0007
H23A H -0.2554 0.0661 -1.0426
H24A H -0.2094 0.0767 -0.9684
Co1A Co 0.29379(7) 0.48193(6) -0.99954(2)
N1A N 0.0694(5) 0.3219(4) -0.99941(17)
O1A O 0.2007(4) 0.5796(3) -1.06565(12)
O2A O 0.2262(4) 0.4071(3) -1.11190(13)
O3A O -0.0705(4) 0.8463(3) -1.18374(14)
O4A O -0.1518(5) 0.8028(3) -1.28863(14)
H25A H -0.2208 0.7310 -1.3098
O5A O 0.0129(5) 0.4301(3) -1.34938(13)
O6A O -0.2694(4) 0.1141(4) -1.64734(13)
O7A O -0.2296(4) -0.2108(3) -1.81535(13)
H26A H -0.2128 -0.2646 -1.8388
O8A O -0.3255(4) -0.1523(3) -1.90718(13)
O9A O -0.5478(4) 0.2087(3) -1.90318(14)
O10A O -0.5311(5) 0.3173(3) -1.81018(14)
H27A H -0.5683 0.3630 -1.8328
O16A O 0.4384(3) 0.3633(3) -0.99829(12)
H29A H 0.4396 0.3223 -1.0328
H30A H 0.4957 0.3566 -0.9633
Co1_2 Co 0.70621(7) 0.51807(6) -1.00046(2)
Co1A_2 Co 0.29379(7) 0.48193(6) 0.00046(2)
O16_2 O 0.5616(3) 0.6367(3) -1.00171(12)
O16A_2 O 0.4384(3) 0.3633(3) 0.00171(12)
loop_
_geom_bond_atom_site_label_1
_geom_bond_atom_site_label_2
_geom_bond_site_symmetry_1
_geom_bond_site_symmetry_2
C1 C2 1_555 1_555
C2 O1 1_555 1_555
C3 C1 1_555 1_555
H1 C3 1_555 1_555
C4 C3 1_555 1_555
C5 C4 1_555 1_555
C6 C4 1_555 1_555
H2 C6 1_555 1_555
C7 C6 1_555 1_555
C8 C1 1_555 1_555
H3 C8 1_555 1_555
C9 H4 1_555 1_555
H5 C9 1_555 1_555
C10 C9 1_555 1_555
C11 C10 1_555 1_555
H6 C11 1_555 1_555
C12 C11 1_555 1_555
H7 C12 1_555 1_555
C13 C12 1_555 1_555
C14 C13 1_555 1_555
H8 C14 1_555 1_555
C15 C10 1_555 1_555
H9 C15 1_555 1_555
C16 C13 1_555 1_555
H10 C16 1_555 1_555
H11 C16 1_555 1_555
C17 C18 1_555 1_555
C18 H12 1_555 1_555
C19 C18 1_555 1_555
C20 C19 1_555 1_555
C21 C19 1_555 1_555
H13 C21 1_555 1_555
C22 C21 1_555 1_555
C23 C22 1_555 1_555
C24 C17 1_555 1_555
H14 C24 1_555 1_555
C25 C26 1_555 1_555
C26 O11 1_555 1_555
C27 C25 1_555 1_555
H15 C27 1_555 1_555
C28 C27 1_555 1_555
C29 C28 1_555 1_555
C30 C28 1_555 1_555
H16 C30 1_555 1_555
C31 C30 1_555 1_555
C32 C25 1_555 1_555
H17 C32 1_555 1_555
C33 H18 1_555 1_555
H19 C33 1_555 1_555
C34 C33 1_555 1_555
C35 C34 1_555 1_555
H20 C35 1_555 1_555
C36 C34 1_555 1_555
H21 C36 1_555 1_555
C37 C38 1_555 1_555
C38 H22 1_555 1_555
H23 C38 1_555 1_555
H24 C38 1_555 1_555
Co1 N1 1_555 1_555
N1 C37 1_555 1_555
O1 Co1 1_555 1_555
O2 C2 1_555 1_555
O3 C5 1_555 1_555
O4 C5 1_555 1_555
H25 O4 1_555 1_555
O5 C7 1_555 1_555
O6 C16 1_555 1_555
O7 C20 1_555 1_555
H26 O7 1_555 1_555
O8 C20 1_555 1_555
O9 C23 1_555 1_555
O10 C23 1_555 1_555
H27 O10 1_555 1_555
O11 Co1 1_555 1_555
O12 C26 1_555 1_555
O13 C29 1_555 1_555
H28 O13 1_555 1_555
O14 C29 1_555 1_555
O15 C31 1_555 1_555
O16 Co1 1_555 1_555
H29 O16 1_555 1_555
H30 O16 1_555 1_555
C25A C26A 1_555 1_555
C26A O11A 1_555 1_555
C27A C25A 1_555 1_555
H15A C27A 1_555 1_555
C28A C27A 1_555 1_555
C29A C28A 1_555 1_555
C30A C28A 1_555 1_555
H16A C30A 1_555 1_555
C31A C30A 1_555 1_555
C32A C25A 1_555 1_555
H17A C32A 1_555 1_555
C33A H18A 1_555 1_555
H19A C33A 1_555 1_555
C34A C33A 1_555 1_555
C35A C36 1_555 1_555
H20A C35A 1_555 1_555
C36A C35 1_555 1_555
H21A C36A 1_555 1_555
O11A Co1A 1_555 1_555
O12A C26A 1_555 1_555
O13A C29A 1_555 1_555
H28A O13A 1_555 1_555
O14A C29A 1_555 1_555
O15A C31A 1_555 1_555
C1A C2A 1_555 1_555
C2A O1A 1_555 1_555
C3A C1A 1_555 1_555
H1A C3A 1_555 1_555
C4A C3A 1_555 1_555
C5A C4A 1_555 1_555
C6A C4A 1_555 1_555
H2A C6A 1_555 1_555
C7A C6A 1_555 1_555
C8A C1A 1_555 1_555
H3A C8A 1_555 1_555
C9A H4A 1_555 1_555
H5A C9A 1_555 1_555
C10A C9A 1_555 1_555
C11A C10A 1_555 1_555
H6A C11A 1_555 1_555
C12A C11A 1_555 1_555
H7A C12A 1_555 1_555
C13A C12A 1_555 1_555
C14A C13A 1_555 1_555
H8A C14A 1_555 1_555
C15A C10A 1_555 1_555
H9A C15A 1_555 1_555
C16A C13A 1_555 1_555
H10A C16A 1_555 1_555
H11A C16A 1_555 1_555
C17A C18A 1_555 1_555
C18A H12A 1_555 1_555
C19A C18A 1_555 1_555
C20A C19A 1_555 1_555
C21A C19A 1_555 1_555
H13A C21A 1_555 1_555
C22A C21A 1_555 1_555
C23A C22A 1_555 1_555
C24A C17A 1_555 1_555
H14A C24A 1_555 1_555
C37A C38A 1_555 1_555
C38A H22A 1_555 1_555
H23A C38A 1_555 1_555
H24A C38A 1_555 1_555
Co1A N1A 1_555 1_555
N1A C37A 1_555 1_555
O1A Co1A 1_555 1_555
O2A C2A 1_555 1_555
O3A C5A 1_555 1_555
O4A C5A 1_555 1_555
H25A O4A 1_555 1_555
O5A C7A 1_555 1_555
O6A C16A 1_555 1_555
O7A C20A 1_555 1_555
H26A O7A 1_555 1_555
O8A C20A 1_555 1_555
O9A C23A 1_555 1_555
O10A C23A 1_555 1_555
H27A O10A 1_555 1_555
O16A Co1A 1_555 1_555
H29A O16A 1_555 1_555
H30A O16A 1_555 1_555
Co1_2 O16A 1_555 1_555
Co1A_2 O16 1_555 1_555
O16_2 Co1A 1_555 1_555
O16A_2 Co1 1_555 1_555
C7 C8 1_555 1_555
C9 O5 1_555 1_555
C14 C15 1_555 1_555
C17 O6 1_555 1_555
C22 C24 1_555 1_555
C31 C32 1_555 1_555
C33 O15 1_555 1_555
Co1 O2 1_555 1_555
C31A C32A 1_555 1_555
C33A O15A 1_555 1_555
C34A C35A 1_555 1_555
C34A C36A 1_555 1_555
C7A C8A 1_555 1_555
C9A O5A 1_555 1_555
C14A C15A 1_555 1_555
C17A O6A 1_555 1_555
C22A C24A 1_555 1_555
Co1A O2A 1_555 1_555
Co1_2 O16_2 1_555 1_555
Co1A_2 O16A_2 1_555 1_555

#END
