
#######################################################################
#
#                 Cambridge Crystallographic Data Centre
#                                CCDC 
#
#######################################################################
#
# If this CIF has been generated from an entry in the Cambridge 
# Structural Database, then it will include bibliographic, chemical, 
# crystal, experimental, refinement or atomic coordinate data resulting 
# from the CCDC's data processing and validation procedures.
#
#######################################################################

data_REYCIJ
_symmetry_cell_setting           triclinic
_symmetry_space_group_name_H-M   'P -1'
_symmetry_Int_Tables_number      2
_space_group_name_Hall           '-P 1'
loop_
_symmetry_equiv_pos_site_id
_symmetry_equiv_pos_as_xyz
1 x,y,z
2 -x,-y,-z
_cell_length_a                   7.700(4)
_cell_length_b                   7.867(4)
_cell_length_c                   19.442(9)
_cell_angle_alpha                85.133(6)
_cell_angle_beta                 88.430(6)
_cell_angle_gamma                88.495(6)
_cell_volume                     1172.69
loop_
_atom_site_label
_atom_site_type_symbol
_atom_site_fract_x
_atom_site_fract_y
_atom_site_fract_z
Zn1 Zn 0.41044(18) 0.33872(12) 0.44927(5)
C1 C 0.2811(12) 0.0917(10) 0.3753(4)
C2 C 0.7231(8) 0.9161(8) 0.3307(3)
H1 H 0.7500 0.9621 0.3715
C3 C 0.7581(8) 1.0064(8) 0.2677(3)
C4 C 0.6487(9) 0.7767(8) 0.2088(3)
C5 C 0.7218(9) 0.9367(9) 0.2068(3)
H2 H 0.7463 0.9970 0.1646
C6 C 0.8399(9) 1.1751(9) 0.2644(4)
C7 C 0.5460(10) 0.5536(8) 0.1435(3)
H3 H 0.4364 0.5439 0.1691
H4 H 0.6273 0.4687 0.1638
C8 C 0.1513(9) -0.2267(8) 0.2514(4)
C9 C 0.6485(9) 0.7585(9) 0.3330(3)
C10 C 0.1765(9) -0.1539(9) 0.3122(4)
H5 H 0.1450 -0.2109 0.3544
C11 C 0.0722(9) -0.3977(9) 0.2552(4)
C12 C 0.1974(9) -0.1444(9) 0.1879(3)
H6 H 0.1790 -0.1949 0.1472
C13 C 0.6111(9) 0.6875(9) 0.2718(3)
H7 H 0.5612 0.5809 0.2733
C14 C 0.5209(10) 0.5262(8) 0.0699(3)
C15 C 0.2716(9) 0.0148(8) 0.1863(4)
C16 C 0.1574(10) 0.0149(9) 0.0319(4)
C17 C 0.3331(10) 0.0301(10) 0.0637(4)
H8 H 0.3853 -0.0831 0.0718
H9 H 0.4077 0.0955 0.0309
C18 C 0.2496(9) 0.0060(9) 0.3095(4)
C19 C 0.2980(9) 0.0896(9) 0.2464(4)
H10 H 0.3483 0.1961 0.2448
C20 C 0.6070(10) 0.6640(9) 0.4012(3)
C21 C 0.6619(10) 0.5369(10) 0.0226(4)
H11 H 0.7714 0.5622 0.0374
C22 C 0.3610(10) 0.4901(10) 0.0461(4)
H12 H 0.2659 0.4837 0.0767
C23 C 0.0163(11) 0.1142(10) 0.0490(4)
H13 H 0.0261 0.1912 0.0824
C24 C 0.1416(11) -0.1008(10) -0.0169(4)
H14 H 0.2362 -0.1698 -0.0283
O1 O 0.2367(11) 0.0195(9) 0.4314(3)
O2 O 0.3488(11) 0.2336(8) 0.3666(3)
O3 O 0.0282(7) -0.4728(7) 0.3108(3)
O4 O 0.0482(8) -0.4593(7) 0.1965(3)
H15 H -0.0202 -0.5377 0.2020
O5 O 0.3268(7) 0.1100(6) 0.1277(3)
O6 O 0.5401(12) 0.5259(9) 0.4004(3)
O7 O 0.8682(8) 1.2334(7) 0.3236(3)
H16 H 0.9098 1.3285 0.3172
O8 O 0.8751(7) 1.2549(6) 0.2086(3)
O9 O 0.6133(7) 0.7223(6) 0.1460(2)
O10 O 0.6439(14) 0.1983(12) 0.4614(4)
H17 H 0.6595 0.1365 0.4279
H18 H 0.7269 0.2672 0.4619
O11 O 0.1748(13) 0.4887(11) 0.4446(4)
H19 H 0.1207 0.4693 0.4086
H20 H 0.1117 0.4620 0.4802
O12 O 0.6387(11) 0.7308(9) 0.4537(3)
C1A C -0.2811(12) -0.0917(10) -0.3753(4)
C8A C -0.1513(9) 0.2267(8) -0.2514(4)
C10A C -0.1765(9) 0.1539(9) -0.3122(4)
H5A H -0.1450 0.2109 -0.3544
C11A C -0.0722(9) 0.3977(9) -0.2552(4)
C12A C -0.1974(9) 0.1444(9) -0.1879(3)
H6A H -0.1790 0.1949 -0.1472
C15A C -0.2716(9) -0.0148(8) -0.1863(4)
C16A C -0.1574(10) -0.0149(9) -0.0319(4)
C17A C -0.3331(10) -0.0301(10) -0.0637(4)
H8A H -0.3853 0.0831 -0.0718
H9A H -0.4077 -0.0955 -0.0309
C18A C -0.2496(9) -0.0060(9) -0.3095(4)
C19A C -0.2980(9) -0.0896(9) -0.2464(4)
H10A H -0.3483 -0.1961 -0.2448
C23A C -0.0163(11) -0.1142(10) -0.0490(4)
H13A H -0.0261 -0.1912 -0.0824
C24A C -0.1416(11) 0.1008(10) 0.0169(4)
H14A H -0.2362 0.1698 0.0283
O1A O -0.2367(11) -0.0195(9) -0.4314(3)
O2A O -0.3488(11) -0.2336(8) -0.3666(3)
O3A O -0.0282(7) 0.4728(7) -0.3108(3)
O4A O -0.0482(8) 0.4593(7) -0.1965(3)
H15A H 0.0202 0.5377 -0.2020
O5A O -0.3268(7) -0.1100(6) -0.1277(3)
C2A C 0.2769(8) 0.0839(8) -0.3307(3)
H1A H 0.2500 0.0379 -0.3715
C3A C 0.2419(8) -0.0064(8) -0.2677(3)
C4A C 0.3513(9) 0.2233(8) -0.2088(3)
C5A C 0.2782(9) 0.0633(9) -0.2068(3)
H2A H 0.2537 0.0030 -0.1646
C6A C 0.1601(9) -0.1751(9) -0.2644(4)
C7A C 0.4540(10) 0.4464(8) -0.1435(3)
H3A H 0.5636 0.4561 -0.1691
H4A H 0.3727 0.5313 -0.1638
C9A C 0.3515(9) 0.2415(9) -0.3330(3)
C13A C 0.3889(9) 0.3125(9) -0.2718(3)
H7A H 0.4388 0.4191 -0.2733
C14A C 0.4791(10) 0.4738(8) -0.0699(3)
C20A C 0.3930(10) 0.3360(9) -0.4012(3)
C21A C 0.3381(10) 0.4631(10) -0.0226(4)
H11A H 0.2286 0.4378 -0.0374
C22A C 0.6390(10) 0.5099(10) -0.0461(4)
H12A H 0.7341 0.5163 -0.0767
O6A O 0.4599(12) 0.4741(9) -0.4004(3)
O7A O 0.1318(8) -0.2334(7) -0.3236(3)
H16A H 0.0902 -0.3285 -0.3172
O8A O 0.1249(7) -0.2549(6) -0.2086(3)
O9A O 0.3867(7) 0.2777(6) -0.1460(2)
O12A O 0.3613(11) 0.2692(9) -0.4537(3)
Zn1A Zn -0.41044(18) -0.33872(12) -0.44927(5)
O10A O -0.6439(14) -0.1983(12) -0.4614(4)
H17A H -0.6595 -0.1365 -0.4279
H18A H -0.7269 -0.2672 -0.4619
O11A O -0.1748(13) -0.4887(11) -0.4446(4)
H19A H -0.1207 -0.4693 -0.4086
H20A H -0.1117 -0.4620 -0.4802
Zn1_2 Zn 0.41044(18) 0.33872(12) -0.55073(5)
Zn1A_2 Zn 0.58956(18) 0.66128(12) -0.44927(5)
Zn1A_3 Zn 0.58956(18) 0.66128(12) 0.55073(5)
O6A_2 O -0.5401(12) -0.5259(9) -0.4004(3)
O12_2 O -0.3613(11) -0.2692(9) -0.5463(3)
O12A_2 O 0.3613(11) 0.2692(9) 0.5463(3)
O13 O 0.0410(19) 0.7802(18) 0.4932(7)
loop_
_geom_bond_atom_site_label_1
_geom_bond_atom_site_label_2
_geom_bond_site_symmetry_1
_geom_bond_site_symmetry_2
Zn1 O2 1_555 1_555
C1 C18 1_555 1_555
C2 H1 1_555 1_555
C3 C2 1_555 1_555
C4 C5 1_555 1_555
C5 C3 1_555 1_555
H2 C5 1_555 1_555
C6 C3 1_555 1_555
C7 H3 1_555 1_555
H4 C7 1_555 1_555
C8 C10 1_555 1_555
C9 C2 1_555 1_555
C10 H5 1_555 1_555
C11 C8 1_555 1_555
C12 C8 1_555 1_555
H6 C12 1_555 1_555
C13 C4 1_555 1_555
H7 C13 1_555 1_555
C14 C7 1_555 1_555
C15 C12 1_555 1_555
C16 C17 1_555 1_555
C17 H8 1_555 1_555
H9 C17 1_555 1_555
C18 C10 1_555 1_555
C19 C15 1_555 1_555
H10 C19 1_555 1_555
C20 C9 1_555 1_555
C21 C14 1_555 1_555
H11 C21 1_555 1_555
C22 C14 1_555 1_555
H12 C22 1_555 1_555
C23 C16 1_555 1_555
H13 C23 1_555 1_555
C24 C16 1_555 1_555
H14 C24 1_555 1_555
O1 C1 1_555 1_555
O2 C1 1_555 1_555
O3 C11 1_555 1_555
O4 C11 1_555 1_555
H15 O4 1_555 1_555
O5 C15 1_555 1_555
O6 Zn1 1_555 1_555
O7 C6 1_555 1_555
H16 O7 1_555 1_555
O8 C6 1_555 1_555
O9 C4 1_555 1_555
O10 Zn1 1_555 1_555
H17 O10 1_555 1_555
H18 O10 1_555 1_555
O11 Zn1 1_555 1_555
H19 O11 1_555 1_555
H20 O11 1_555 1_555
O12 C20 1_555 1_555
C1A C18A 1_555 1_555
C8A C10A 1_555 1_555
C10A H5A 1_555 1_555
C11A C8A 1_555 1_555
C12A C8A 1_555 1_555
H6A C12A 1_555 1_555
C15A C12A 1_555 1_555
C16A C17A 1_555 1_555
C17A H8A 1_555 1_555
H9A C17A 1_555 1_555
C18A C10A 1_555 1_555
C19A C15A 1_555 1_555
H10A C19A 1_555 1_555
C23A C24 1_555 1_555
H13A C23A 1_555 1_555
C24A C23 1_555 1_555
H14A C24A 1_555 1_555
O1A C1A 1_555 1_555
O2A C1A 1_555 1_555
O3A C11A 1_555 1_555
O4A C11A 1_555 1_555
H15A O4A 1_555 1_555
O5A C15A 1_555 1_555
C2A H1A 1_555 1_555
C3A C2A 1_555 1_555
C4A C5A 1_555 1_555
C5A C3A 1_555 1_555
H2A C5A 1_555 1_555
C6A C3A 1_555 1_555
C7A H3A 1_555 1_555
H4A C7A 1_555 1_555
C9A C2A 1_555 1_555
C13A C4A 1_555 1_555
H7A C13A 1_555 1_555
C14A C7A 1_555 1_555
C20A C9A 1_555 1_555
C21A C22 1_555 1_555
H11A C21A 1_555 1_555
C22A C21 1_555 1_555
H12A C22A 1_555 1_555
O6A C20A 1_555 1_555
O7A C6A 1_555 1_555
H16A O7A 1_555 1_555
O8A C6A 1_555 1_555
O9A C4A 1_555 1_555
O12A C20A 1_555 1_555
Zn1A O2A 1_555 1_555
O10A Zn1A 1_555 1_555
H17A O10A 1_555 1_555
H18A O10A 1_555 1_555
O11A Zn1A 1_555 1_555
H19A O11A 1_555 1_555
H20A O11A 1_555 1_555
Zn1_2 O12A 1_555 1_555
Zn1A_2 O6A 1_555 1_555
Zn1A_3 O12 1_555 1_555
O6A_2 Zn1A 1_555 1_555
O12_2 Zn1A 1_555 1_555
O12A_2 Zn1 1_555 1_555
C7 O9 1_555 1_555
C9 C13 1_555 1_555
C17 O5 1_555 1_555
C18 C19 1_555 1_555
C20 O6 1_555 1_555
C16A C23A 1_555 1_555
C16A C24A 1_555 1_555
C17A O5A 1_555 1_555
C18A C19A 1_555 1_555
C7A O9A 1_555 1_555
C9A C13A 1_555 1_555
C14A C21A 1_555 1_555
C14A C22A 1_555 1_555

#END
