
#######################################################################
#
#                 Cambridge Crystallographic Data Centre
#                                CCDC 
#
#######################################################################
#
# If this CIF has been generated from an entry in the Cambridge 
# Structural Database, then it will include bibliographic, chemical, 
# crystal, experimental, refinement or atomic coordinate data resulting 
# from the CCDC's data processing and validation procedures.
#
#######################################################################

data_REYNIU
_symmetry_cell_setting           monoclinic
_symmetry_space_group_name_H-M   'C 2/c'
_symmetry_Int_Tables_number      15
_space_group_name_Hall           '-C 2yn'
loop_
_symmetry_equiv_pos_site_id
_symmetry_equiv_pos_as_xyz
1 x,y,z
2 -x,y,1/2-z
3 1/2+x,1/2+y,z
4 1/2-x,1/2+y,1/2-z
5 -x,-y,-z
6 x,-y,1/2+z
7 1/2-x,1/2-y,-z
8 1/2+x,1/2-y,1/2+z
_cell_length_a                   18.672(9)
_cell_length_b                   7.359(3)
_cell_length_c                   14.810(7)
_cell_angle_alpha                90
_cell_angle_beta                 125.297(5)
_cell_angle_gamma                90
_cell_volume                     1660.9
loop_
_atom_site_label
_atom_site_type_symbol
_atom_site_fract_x
_atom_site_fract_y
_atom_site_fract_z
Cu1 Cu 0.28942(2) -0.20331(4) 0.15401(2)
O1 O 0.34297(14) 0.1285(3) 0.39864(16)
O2 O 0.27811(14) -0.0070(3) 0.23525(15)
O3 O 0.4116(2) -0.0500(4) 0.1412(3)
H1 H 0.439(3) -0.055(6) 0.2106(11)
H2 H 0.404(4) 0.062(2) 0.125(4)
N1 N 0.29087(15) -0.4398(3) -0.01342(18)
N2 N 0.32418(18) -0.5930(3) -0.01808(19)
N3 N 0.36856(17) -0.6714(3) 0.08163(19)
N4 N 0.37290(16) -0.2981(3) 0.31088(18)
H3 H 0.3386 -0.3584 0.3263
N5 N 0.31313(15) -0.4149(3) 0.09002(17)
C1 C 0.36074(17) -0.5614(3) 0.1462(2)
C2 C 0.4021(2) -0.5965(4) 0.2663(2)
H4 H 0.4470 -0.6889 0.2923
H5 H 0.3580 -0.6431 0.2752
C3 C 0.4429(2) -0.4275(4) 0.3366(2)
H6 H 0.4770 -0.4598 0.4143
H7 H 0.4821 -0.3714 0.3216
C4 C 0.40771(19) -0.1401(4) 0.3852(2)
H8 H 0.4596 -0.0945 0.3926
H9 H 0.4241 -0.1753 0.4579
C5 C 0.33875(19) 0.0057(4) 0.3384(2)
Cu1C Cu 0.21058(2) 0.29669(4) 0.34599(2)
Cu1F Cu 0.21058(2) -0.29669(4) -0.15401(2)
O1C O 0.15703(14) -0.3715(3) 0.10136(16)
N1F N 0.20913(15) -0.0602(3) 0.01342(18)
loop_
_geom_bond_atom_site_label_1
_geom_bond_atom_site_label_2
_geom_bond_site_symmetry_1
_geom_bond_site_symmetry_2
Cu1 O2 1_555 1_555
O1 C5 1_555 1_555
O2 C5 1_555 1_555
O3 Cu1 1_555 1_555
H1 O3 1_555 1_555
H2 O3 1_555 1_555
N1 N2 1_555 1_555
N2 N3 1_555 1_555
N3 C1 1_555 1_555
N4 Cu1 1_555 1_555
H3 N4 1_555 1_555
N5 Cu1 1_555 1_555
C1 N5 1_555 1_555
C2 C1 1_555 1_555
H4 C2 1_555 1_555
H5 C2 1_555 1_555
C3 N4 1_555 1_555
H6 C3 1_555 1_555
H7 C3 1_555 1_555
C4 N4 1_555 1_555
H8 C4 1_555 1_555
H9 C4 1_555 1_555
C5 C4 1_555 1_555
Cu1C O1 1_555 1_555
Cu1F N1 1_555 1_555
O1C Cu1 1_555 1_555
N1F Cu1 1_555 1_555
N1 N5 1_555 1_555
C2 C3 1_555 1_555

#END
