
#######################################################################
#
#                 Cambridge Crystallographic Data Centre
#                                CCDC 
#
#######################################################################
#
# If this CIF has been generated from an entry in the Cambridge 
# Structural Database, then it will include bibliographic, chemical, 
# crystal, experimental, refinement or atomic coordinate data resulting 
# from the CCDC's data processing and validation procedures.
#
#######################################################################

data_REYNOA01
_symmetry_cell_setting           monoclinic
_symmetry_space_group_name_H-M   'C 2/c'
_symmetry_Int_Tables_number      15
_space_group_name_Hall           '-C 2yn'
loop_
_symmetry_equiv_pos_site_id
_symmetry_equiv_pos_as_xyz
1 x,y,z
2 -x,y,1/2-z
3 1/2+x,1/2+y,z
4 1/2-x,1/2+y,1/2-z
5 -x,-y,-z
6 x,-y,1/2+z
7 1/2-x,1/2-y,-z
8 1/2+x,1/2-y,1/2+z
_cell_length_a                   18.628(3)
_cell_length_b                   7.5600(12)
_cell_length_c                   14.269(2)
_cell_angle_alpha                90
_cell_angle_beta                 119.874(2)
_cell_angle_gamma                90
_cell_volume                     1742.46
loop_
_atom_site_label
_atom_site_type_symbol
_atom_site_fract_x
_atom_site_fract_y
_atom_site_fract_z
Cd1 Cd 0.279614(12) 0.81582(3) 0.147954(15)
N1 N 0.32277(14) 0.5654(3) 0.10037(18)
N2 N 0.30069(14) 0.5096(3) -0.00045(19)
N3 N 0.33525(15) 0.3562(3) 0.0049(2)
N4 N 0.38109(15) 0.3087(3) 0.1095(2)
C1 C 0.37241(16) 0.4394(4) 0.1663(2)
C2 C 0.41298(17) 0.4423(4) 0.2874(2)
H1 H 0.4589 0.3597 0.3165
H2 H 0.3734 0.4001 0.3075
C3 C 0.44533(17) 0.6226(4) 0.3407(2)
H3 H 0.4824 0.6060 0.4175
H4 H 0.4768 0.6763 0.3107
N5 N 0.37775(14) 0.7427(3) 0.32436(18)
C4 C 0.40837(17) 0.9079(4) 0.3856(2)
H5 H 0.4515 0.9566 0.3740
H6 H 0.4324 0.8831 0.4621
C5 C 0.33923(16) 1.0440(4) 0.3518(2)
O1 O 0.27784(12) 1.0362(3) 0.25783(15)
O2 O 0.34760(12) 1.1617(2) 0.41932(16)
O3 O 0.39408(12) 0.9373(3) 0.13307(15)
H7 H 0.3847 0.9063 0.0763
H8 H 0.3923 1.0423 0.1303
H9 H 0.344(2) 0.688(4) 0.345(3)
Cd1C Cd 0.220386(12) 1.31582(3) 0.352046(15)
Cd1F Cd 0.220386(12) 0.68418(3) -0.147954(15)
N2F N 0.19931(14) 0.9904(3) 0.00045(19)
O2C O 0.15240(12) 0.6617(2) 0.08068(16)
loop_
_geom_bond_atom_site_label_1
_geom_bond_atom_site_label_2
_geom_bond_site_symmetry_1
_geom_bond_site_symmetry_2
Cd1 N1 1_555 1_555
N1 N2 1_555 1_555
N2 N3 1_555 1_555
N3 N4 1_555 1_555
N4 C1 1_555 1_555
C1 N1 1_555 1_555
C2 C1 1_555 1_555
H1 C2 1_555 1_555
H2 C2 1_555 1_555
C3 C2 1_555 1_555
H3 C3 1_555 1_555
H4 C3 1_555 1_555
N5 Cd1 1_555 1_555
C4 N5 1_555 1_555
H5 C4 1_555 1_555
H6 C4 1_555 1_555
C5 C4 1_555 1_555
O1 Cd1 1_555 1_555
O2 C5 1_555 1_555
O3 Cd1 1_555 1_555
H7 O3 1_555 1_555
H8 O3 1_555 1_555
H9 N5 1_555 1_555
Cd1C O2 1_555 1_555
Cd1F N2 1_555 1_555
N2F Cd1 1_555 1_555
O2C Cd1 1_555 1_555
C3 N5 1_555 1_555
C5 O1 1_555 1_555

#END
