
#######################################################################
#
#                 Cambridge Crystallographic Data Centre
#                                CCDC 
#
#######################################################################
#
# If this CIF has been generated from an entry in the Cambridge 
# Structural Database, then it will include bibliographic, chemical, 
# crystal, experimental, refinement or atomic coordinate data resulting 
# from the CCDC's data processing and validation procedures.
#
#######################################################################

data_REYPOB
_symmetry_cell_setting           monoclinic
_symmetry_space_group_name_H-M   'C 2/c'
_symmetry_Int_Tables_number      15
_space_group_name_Hall           '-C 2yn'
loop_
_symmetry_equiv_pos_site_id
_symmetry_equiv_pos_as_xyz
1 x,y,z
2 1/2+x,1/2+y,z
3 -x,y,1/2-z
4 1/2-x,1/2+y,1/2-z
5 -x,-y,-z
6 1/2-x,1/2-y,-z
7 x,-y,1/2+z
8 1/2+x,1/2-y,1/2+z
_cell_length_a                   23.745(6)
_cell_length_b                   13.068(5)
_cell_length_c                   17.161(6)
_cell_angle_alpha                90
_cell_angle_beta                 132.328(2)
_cell_angle_gamma                90
_cell_volume                     3936.82
loop_
_atom_site_label
_atom_site_type_symbol
_atom_site_fract_x
_atom_site_fract_y
_atom_site_fract_z
Fe1 Fe 0.0000 0.14511(5) 0.2500
N1 N 0.08289(16) 0.0197(2) 0.3336(2)
N2 N -0.01188(17) 0.1686(2) 0.3632(3)
N3 N 0.08917(16) 0.2592(2) 0.3606(2)
N4 N 0.0269(2) 0.2521(3) 0.5038(3)
H1 H 0.0526 0.2925 0.5573
C1 C 0.1236(2) 0.0006(3) 0.4346(3)
H2 H 0.1253 0.0500 0.4752
C2 C 0.1631(2) -0.0883(3) 0.4821(3)
H3 H 0.1902 -0.0986 0.5532
C3 C 0.1631(2) -0.1630(3) 0.4249(4)
C4 C 0.1216(3) -0.1439(3) 0.3197(4)
H4 H 0.1203 -0.1915 0.2782
C5 C 0.0819(2) -0.0531(3) 0.2767(3)
H5 H 0.0531 -0.0415 0.2053
C6 C -0.0573(3) 0.1409(4) 0.3828(4)
H6 H -0.0977 0.0948 0.3433
C7 C -0.0335(4) 0.1920(5) 0.4695(5)
H7 H -0.0542 0.1871 0.4999
C8 C 0.0381(2) 0.2354(3) 0.4375(3)
C9 C 0.0956(2) 0.2842(3) 0.4423(3)
C10 C 0.1514(3) 0.3488(3) 0.5209(4)
H8 H 0.1555 0.3632 0.5777
C11 C 0.2009(3) 0.3921(4) 0.5148(4)
H9 H 0.2384 0.4373 0.5666
C12 C 0.1946(3) 0.3682(4) 0.4323(4)
H10 H 0.2276 0.3970 0.4267
C13 C 0.1388(2) 0.3008(3) 0.3568(3)
H11 H 0.1355 0.2837 0.3013
C14 C 0.2092(2) -0.2596(3) 0.4752(4)
H12 H 0.1866 -0.3130 0.4223
H13 H 0.2090 -0.2826 0.5288
Fe1G Fe 0.5000 -0.64511(5) 0.7500
N1E N 0.41711(16) -0.5197(2) 0.6664(2)
N1B N -0.08289(16) 0.0197(2) 0.1664(2)
N2B N 0.01188(17) 0.1686(2) 0.1368(3)
N3B N -0.08917(16) 0.2592(2) 0.1394(2)
N4B N -0.0269(2) 0.2521(3) -0.0038(3)
H1B H -0.0526 0.2925 -0.0573
C1E C 0.3764(2) -0.5006(3) 0.5654(3)
H2E H 0.3747 -0.5500 0.5248
C2E C 0.3369(2) -0.4117(3) 0.5179(3)
H3E H 0.3098 -0.4014 0.4468
C3E C 0.3369(2) -0.3370(3) 0.5751(4)
C4E C 0.3784(3) -0.3561(3) 0.6803(4)
H4E H 0.3797 -0.3085 0.7218
C5E C 0.4181(2) -0.4469(3) 0.7233(3)
H5E H 0.4469 -0.4585 0.7947
C6B C 0.0573(3) 0.1409(4) 0.1172(4)
H6B H 0.0977 0.0948 0.1567
C7B C 0.0335(4) 0.1920(5) 0.0305(5)
H7B H 0.0542 0.1871 0.0001
C8B C -0.0381(2) 0.2354(3) 0.0625(3)
C9B C -0.0956(2) 0.2842(3) 0.0577(3)
C10B C -0.1514(3) 0.3488(3) -0.0209(4)
H8B H -0.1555 0.3632 -0.0777
C11B C -0.2009(3) 0.3921(4) -0.0148(4)
H9B H -0.2384 0.4373 -0.0666
C12B C -0.1946(3) 0.3682(4) 0.0677(4)
H10B H -0.2276 0.3970 0.0733
C13B C -0.1388(2) 0.3008(3) 0.1432(3)
H11B H -0.1355 0.2837 0.1987
C14E C 0.2908(2) -0.2404(3) 0.5248(4)
H12E H 0.3134 -0.1870 0.5777
H13E H 0.2910 -0.2174 0.4712
O1 O 0.0940(4) 0.3877(5) 0.6688(5)
H14 H 0.1339 0.4171 0.6952
C15 C 0.0439(9) 0.4581(9) 0.6668(11)
H15 H 0.0678 0.4740 0.7386
H16 H 0.0380 0.5215 0.6326
C16 C -0.0276(10) 0.4157(12) 0.6138(13)
H17 H -0.0564 0.4158 0.5394
H18 H -0.0538 0.4554 0.6280
H19 H -0.0218 0.3467 0.6374
Cl1 Cl 0.24964(9) 0.59203(14) 0.74989(12)
O6 O 0.1897(12) 0.579(2) 0.7403(19)
O7 O 0.2817(11) 0.5217(14) 0.738(2)
O8 O 0.2956(17) 0.6324(17) 0.8444(11)
O9 O 0.2229(19) 0.656(3) 0.677(2)
O2? O 0.2257(14) 0.5805(16) 0.6571(12)
O3? O 0.2414(19) 0.677(2) 0.771(2)
O4? O 0.3308(8) 0.5829(19) 0.8263(16)
O5? O 0.2263(11) 0.5030(17) 0.7749(12)
loop_
_geom_bond_atom_site_label_1
_geom_bond_atom_site_label_2
_geom_bond_site_symmetry_1
_geom_bond_site_symmetry_2
Fe1 N1 1_555 1_555
N1 C1 1_555 1_555
N2 Fe1 1_555 1_555
N3 Fe1 1_555 1_555
N4 H1 1_555 1_555
C1 H2 1_555 1_555
C2 C1 1_555 1_555
H3 C2 1_555 1_555
C3 C2 1_555 1_555
C4 C3 1_555 1_555
H4 C4 1_555 1_555
C5 N1 1_555 1_555
H5 C5 1_555 1_555
C6 N2 1_555 1_555
H6 C6 1_555 1_555
C7 N4 1_555 1_555
H7 C7 1_555 1_555
C8 N2 1_555 1_555
C9 N3 1_555 1_555
C10 C9 1_555 1_555
H8 C10 1_555 1_555
C11 C10 1_555 1_555
H9 C11 1_555 1_555
C12 C11 1_555 1_555
H10 C12 1_555 1_555
C13 N3 1_555 1_555
H11 C13 1_555 1_555
C14 C3 1_555 1_555
H12 C14 1_555 1_555
H13 C14 1_555 1_555
O1 H14 1_555 1_555
C15 O1 1_555 1_555
H15 C15 1_555 1_555
H16 C15 1_555 1_555
C16 C15 1_555 1_555
H17 C16 1_555 1_555
H18 C16 1_555 1_555
H19 C16 1_555 1_555
Cl1 O6 1_555 1_555
O7 Cl1 1_555 1_555
O8 Cl1 1_555 1_555
O9 Cl1 1_555 1_555
Fe1G N1E 1_555 1_555
N1E C1E 1_555 1_555
N1B Fe1 1_555 1_555
N2B Fe1 1_555 1_555
N3B Fe1 1_555 1_555
N4B H1B 1_555 1_555
C1E H2E 1_555 1_555
C2E C1E 1_555 1_555
H3E C2E 1_555 1_555
C3E C2E 1_555 1_555
C4E C3E 1_555 1_555
H4E C4E 1_555 1_555
C5E N1E 1_555 1_555
H5E C5E 1_555 1_555
C6B N2B 1_555 1_555
H6B C6B 1_555 1_555
C7B N4B 1_555 1_555
H7B C7B 1_555 1_555
C8B N2B 1_555 1_555
C9B N3B 1_555 1_555
C10B C9B 1_555 1_555
H8B C10B 1_555 1_555
C11B C10B 1_555 1_555
H9B C11B 1_555 1_555
C12B C11B 1_555 1_555
H10B C12B 1_555 1_555
C13B N3B 1_555 1_555
H11B C13B 1_555 1_555
C14E C14 1_555 1_555
H12E C14E 1_555 1_555
H13E C14E 1_555 1_555
N4 C8 1_555 1_555
C4 C5 1_555 1_555
C6 C7 1_555 1_555
C8 C9 1_555 1_555
C12 C13 1_555 1_555
N4B C8B 1_555 1_555
C3E C14E 1_555 1_555
C4E C5E 1_555 1_555
C6B C7B 1_555 1_555
C8B C9B 1_555 1_555
C12B C13B 1_555 1_555

#END
