
#######################################################################
#
#                 Cambridge Crystallographic Data Centre
#                                CCDC 
#
#######################################################################
#
# If this CIF has been generated from an entry in the Cambridge 
# Structural Database, then it will include bibliographic, chemical, 
# crystal, experimental, refinement or atomic coordinate data resulting 
# from the CCDC's data processing and validation procedures.
#
#######################################################################

data_REYPUH
_symmetry_cell_setting           monoclinic
_symmetry_space_group_name_H-M   'C 2/c'
_symmetry_Int_Tables_number      15
_space_group_name_Hall           '-C 2yn'
loop_
_symmetry_equiv_pos_site_id
_symmetry_equiv_pos_as_xyz
1 x,y,z
2 1/2+x,1/2+y,z
3 -x,y,1/2-z
4 1/2-x,1/2+y,1/2-z
5 -x,-y,-z
6 1/2-x,1/2-y,-z
7 x,-y,1/2+z
8 1/2+x,1/2-y,1/2+z
_cell_length_a                   22.897(2)
_cell_length_b                   13.968(2)
_cell_length_c                   16.456(2)
_cell_angle_alpha                90
_cell_angle_beta                 133.195(5)
_cell_angle_gamma                90
_cell_volume                     3836.91
loop_
_atom_site_label
_atom_site_type_symbol
_atom_site_fract_x
_atom_site_fract_y
_atom_site_fract_z
Fe1 Fe 0.0000 0.13739(10) 0.2500
N1 N 0.0867(4) 0.0221(4) 0.3268(6)
N2 N -0.0092(5) 0.1614(5) 0.1100(7)
N3 N 0.0917(4) 0.2487(4) 0.3163(6)
N4 N 0.0275(6) 0.2569(8) 0.0449(9)
H1 H 0.0518 0.3007 0.0408
C1 C 0.1330(5) 0.0060(6) 0.3078(7)
H2 H 0.1324 0.0503 0.2650
C2 C 0.1829(5) -0.0734(6) 0.3478(7)
H3 H 0.2134 -0.0823 0.3301
C3 C 0.1865(5) -0.1397(5) 0.4148(7)
C4 C 0.1382(6) -0.1218(6) 0.4364(9)
H4 H 0.1383 -0.1637 0.4804
C5 C 0.0904(5) -0.0416(6) 0.3922(8)
H5 H 0.0590 -0.0306 0.4081
C6 C 0.2410(5) -0.2200(6) 0.4617(8)
H6 H 0.2658 -0.2304 0.4355
C7 C -0.0516(6) 0.1387(8) 0.0021(9)
H7 H -0.0877 0.0881 -0.0350
C8 C -0.0357(10) 0.1976(11) -0.0454(13)
H8 H -0.0599 0.1993 -0.1194
C9 C 0.0428(6) 0.2332(7) 0.1367(9)
C10 C 0.0994(5) 0.2790(6) 0.2484(8)
C11 C 0.1529(7) 0.3483(7) 0.2754(11)
H9 H 0.1565 0.3669 0.2247
C12 C 0.1996(7) 0.3882(8) 0.3766(12)
H10 H 0.2362 0.4355 0.3972
C13 C 0.1933(6) 0.3595(7) 0.4492(11)
H11 H 0.2255 0.3867 0.5198
C14 C 0.1379(5) 0.2887(6) 0.4161(8)
H12 H 0.1332 0.2690 0.4655
Fe1G Fe 0.5000 -0.63739(10) 0.7500
N1E N 0.4133(4) -0.5221(4) 0.6732(6)
N1B N -0.0867(4) 0.0221(4) 0.1732(6)
N2B N 0.0092(5) 0.1614(5) 0.3900(7)
N3B N -0.0917(4) 0.2487(4) 0.1837(6)
N4B N -0.0275(6) 0.2569(8) 0.4551(9)
H1B H -0.0518 0.3007 0.4592
C1E C 0.3670(5) -0.5060(6) 0.6922(7)
H2E H 0.3676 -0.5503 0.7350
C2E C 0.3171(5) -0.4266(6) 0.6522(7)
H3E H 0.2866 -0.4177 0.6699
C3E C 0.3135(5) -0.3603(5) 0.5852(7)
C4E C 0.3618(6) -0.3782(6) 0.5636(9)
H4E H 0.3617 -0.3363 0.5196
C5E C 0.4096(5) -0.4584(6) 0.6078(8)
H5E H 0.4410 -0.4694 0.5919
C6E C 0.2590(5) -0.2800(6) 0.5383(8)
H6E H 0.2342 -0.2696 0.5645
C7B C 0.0516(6) 0.1387(8) 0.4979(9)
H7B H 0.0877 0.0881 0.5350
C8B C 0.0357(10) 0.1976(11) 0.5454(13)
H8B H 0.0599 0.1993 0.6194
C9B C -0.0428(6) 0.2332(7) 0.3633(9)
C10B C -0.0994(5) 0.2790(6) 0.2516(8)
C11B C -0.1529(7) 0.3483(7) 0.2246(11)
H9B H -0.1565 0.3669 0.2753
C12B C -0.1996(7) 0.3882(8) 0.1234(12)
H10B H -0.2362 0.4355 0.1028
C13B C -0.1933(6) 0.3595(7) 0.0508(11)
H11B H -0.2255 0.3867 -0.0198
C14B C -0.1379(5) 0.2887(6) 0.0839(8)
H12B H -0.1332 0.2690 0.0345
Cl1 Cl -0.2312(3) 0.3952(3) -0.2423(4)
O1 O -0.1896(8) 0.3884(10) -0.2762(11)
O2 O -0.2939(17) 0.4710(18) -0.3190(17)
O3 O -0.1776(14) 0.4198(16) -0.1272(16)
O4 O -0.2676(14) 0.3065(16) -0.2856(15)
O8 O 0.1008(8) 0.4017(11) 0.0247(11)
H13 H 0.1174 0.4509 0.0618
C15 C 0.009(2) 0.506(3) -0.131(3)
H14 H -0.0361 0.4933 -0.2082
H15 H 0.0337 0.5652 -0.1235
H16 H -0.0094 0.5123 -0.0929
C16 C 0.0697(17) 0.4242(17) -0.0787(15)
H17 H 0.0437 0.3682 -0.1263
H18 H 0.1128 0.4427 -0.0741
O5? O -0.326(3) 0.398(3) -0.342(4)
O6? O -0.251(3) 0.335(2) -0.199(4)
O7? O -0.225(3) 0.492(3) -0.221(4)
loop_
_geom_bond_atom_site_label_1
_geom_bond_atom_site_label_2
_geom_bond_site_symmetry_1
_geom_bond_site_symmetry_2
Fe1 N1 1_555 1_555
N1 C1 1_555 1_555
N2 Fe1 1_555 1_555
N3 Fe1 1_555 1_555
N4 H1 1_555 1_555
C1 H2 1_555 1_555
C2 C1 1_555 1_555
H3 C2 1_555 1_555
C3 C2 1_555 1_555
C4 C3 1_555 1_555
H4 C4 1_555 1_555
C5 N1 1_555 1_555
H5 C5 1_555 1_555
C6 C3 1_555 1_555
H6 C6 1_555 1_555
C7 N2 1_555 1_555
H7 C7 1_555 1_555
C8 N4 1_555 1_555
H8 C8 1_555 1_555
C9 N2 1_555 1_555
C10 N3 1_555 1_555
C11 C10 1_555 1_555
H9 C11 1_555 1_555
C12 C11 1_555 1_555
H10 C12 1_555 1_555
C13 C12 1_555 1_555
H11 C13 1_555 1_555
C14 N3 1_555 1_555
H12 C14 1_555 1_555
Cl1 O1 1_555 1_555
O2 Cl1 1_555 1_555
O3 Cl1 1_555 1_555
O4 Cl1 1_555 1_555
O8 H13 1_555 1_555
C15 H14 1_555 1_555
H15 C15 1_555 1_555
H16 C15 1_555 1_555
C16 O8 1_555 1_555
H17 C16 1_555 1_555
H18 C16 1_555 1_555
Fe1G N1E 1_555 1_555
N1E C1E 1_555 1_555
N1B Fe1 1_555 1_555
N2B Fe1 1_555 1_555
N3B Fe1 1_555 1_555
N4B H1B 1_555 1_555
C1E H2E 1_555 1_555
C2E C1E 1_555 1_555
H3E C2E 1_555 1_555
C3E C2E 1_555 1_555
C4E C3E 1_555 1_555
H4E C4E 1_555 1_555
C5E N1E 1_555 1_555
H5E C5E 1_555 1_555
C6E C6 1_555 1_555
H6E C6E 1_555 1_555
C7B N2B 1_555 1_555
H7B C7B 1_555 1_555
C8B N4B 1_555 1_555
H8B C8B 1_555 1_555
C9B N2B 1_555 1_555
C10B N3B 1_555 1_555
C11B C10B 1_555 1_555
H9B C11B 1_555 1_555
C12B C11B 1_555 1_555
H10B C12B 1_555 1_555
C13B C12B 1_555 1_555
H11B C13B 1_555 1_555
C14B N3B 1_555 1_555
H12B C14B 1_555 1_555
N4 C9 1_555 1_555
C4 C5 1_555 1_555
C7 C8 1_555 1_555
C9 C10 1_555 1_555
C13 C14 1_555 1_555
C15 C16 1_555 1_555
N4B C9B 1_555 1_555
C3E C6E 1_555 1_555
C4E C5E 1_555 1_555
C7B C8B 1_555 1_555
C9B C10B 1_555 1_555
C13B C14B 1_555 1_555

#END
