
#######################################################################
#
#                 Cambridge Crystallographic Data Centre
#                                CCDC 
#
#######################################################################
#
# If this CIF has been generated from an entry in the Cambridge 
# Structural Database, then it will include bibliographic, chemical, 
# crystal, experimental, refinement or atomic coordinate data resulting 
# from the CCDC's data processing and validation procedures.
#
#######################################################################

data_REYPAO
_symmetry_cell_setting           monoclinic
_symmetry_space_group_name_H-M   'P 2/n'
_symmetry_Int_Tables_number      13
_space_group_name_Hall           '-P 2yac'
loop_
_symmetry_equiv_pos_site_id
_symmetry_equiv_pos_as_xyz
1 x,y,z
2 1/2-x,y,1/2-z
3 -x,-y,-z
4 1/2+x,-y,1/2+z
_cell_length_a                   7.9992(4)
_cell_length_b                   7.6259(3)
_cell_length_c                   20.6651(10)
_cell_angle_alpha                90
_cell_angle_beta                 97.391(4)
_cell_angle_gamma                90
_cell_volume                     1250.12
loop_
_atom_site_label
_atom_site_type_symbol
_atom_site_fract_x
_atom_site_fract_y
_atom_site_fract_z
Cd1 Cd 0.50811(5) 0.48730(5) 0.606766(17)
O1 O -0.1599(5) 0.1423(5) 0.51523(19)
O2 O 0.5602(5) 0.1913(5) 0.61737(17)
N1 N 0.7500 0.5506(9) 0.7500
O3 O 0.0015(5) 0.2451(6) 0.61740(19)
N2 N 0.2950(6) 0.4194(6) 0.4564(2)
O4 O -0.1382(5) 0.1354(5) 0.40942(19)
N3 N 0.1576(6) 0.3318(6) 0.4290(2)
C1 C -0.0838(6) 0.1800(7) 0.4654(3)
N4 N 0.6739(6) 0.4466(6) 0.7027(2)
N5 N 0.3009(6) 0.4241(6) 0.5212(2)
O5 O 0.2457(5) 0.3822(6) 0.64809(17)
C2 C 0.1356(7) 0.3215(7) 0.6056(2)
C3 C 0.1633(6) 0.3386(7) 0.5362(3)
C4 C 0.7021(6) 0.2773(6) 0.7196(2)
C5 C 0.6362(6) 0.1380(7) 0.6711(2)
O6 O 0.4570(6) 0.7751(6) 0.6151(3)
H1 H 0.3575 0.8200 0.6091
H2 H 0.5006 0.8080 0.6540
C6 C 0.0747(6) 0.2806(7) 0.4787(2)
O7 O 0.6583(6) -0.0181(5) 0.6862(2)
O2A O 0.9398(5) 0.1913(5) 0.88263(17)
N4A N 0.8261(6) 0.4466(6) 0.7973(2)
C4A C 0.7979(6) 0.2773(6) 0.7804(2)
C5A C 0.8638(6) 0.1380(7) 0.8289(2)
O7A O 0.8417(6) -0.0181(5) 0.8138(2)
Cd1A Cd 0.99189(5) 0.48730(5) 0.893234(17)
O1A O 1.6599(5) 0.1423(5) 0.98477(19)
O3A O 1.4985(5) 0.2451(6) 0.88260(19)
N2A N 1.2050(6) 0.4194(6) 1.0436(2)
O4A O 1.6382(5) 0.1354(5) 1.09058(19)
N3A N 1.3424(6) 0.3318(6) 1.0710(2)
C1A C 1.5838(6) 0.1800(7) 1.0346(3)
N5A N 1.1991(6) 0.4241(6) 0.9788(2)
O5A O 1.2543(5) 0.3822(6) 0.85191(17)
C2A C 1.3644(7) 0.3215(7) 0.8944(2)
C3A C 1.3367(6) 0.3386(7) 0.9638(3)
O6A O 1.0430(6) 0.7751(6) 0.8849(3)
H1A H 1.1425 0.8200 0.8909
H2A H 0.9994 0.8080 0.8460
C6A C 1.4253(6) 0.2806(7) 1.0213(2)
Cd1B Cd 0.49189(5) 0.51270(5) 0.393234(17)
Cd1C Cd 1.00811(5) 0.51270(5) 1.106766(17)
N2B N 0.7050(6) 0.5806(6) 0.5436(2)
N2C N 0.7950(6) 0.5806(6) 0.9564(2)
K1 K 0.97810(18) -0.1587(2) 0.70344(7)
O8 O 1.2500 0.0937(8) 0.7500
H3 H 1.2743 0.1611 0.7200
H3A H 1.2257 0.1611 0.7800
O9 O 1.2500 -0.3761(8) 0.7500
H4 H 1.2749 -0.4391 0.7192
H4A H 1.2251 -0.4391 0.7808
K2 K 0.5000 0.0000 0.5000
loop_
_geom_bond_atom_site_label_1
_geom_bond_atom_site_label_2
_geom_bond_site_symmetry_1
_geom_bond_site_symmetry_2
Cd1 O2 1_555 1_555
O1 C1 1_555 1_555
O2 C5 1_555 1_555
N1 N4 1_555 1_555
O3 C2 1_555 1_555
N2 N3 1_555 1_555
O4 C1 1_555 1_555
N3 C6 1_555 1_555
C1 C6 1_555 1_555
N4 Cd1 1_555 1_555
N5 Cd1 1_555 1_555
O5 Cd1 1_555 1_555
C2 O5 1_555 1_555
C3 N5 1_555 1_555
C4 N4 1_555 1_555
C5 C4 1_555 1_555
O6 Cd1 1_555 1_555
H1 O6 1_555 1_555
H2 O6 1_555 1_555
C6 C3 1_555 1_555
O7 C5 1_555 1_555
O8 H3 1_555 1_555
O9 H4 1_555 1_555
O2A C5A 1_555 1_555
N4A N1 1_555 1_555
C4A C4 1_555 1_555
C5A C4A 1_555 1_555
O7A C5A 1_555 1_555
Cd1A O2A 1_555 1_555
O1A C1A 1_555 1_555
O3A C2A 1_555 1_555
N2A N3A 1_555 1_555
O4A C1A 1_555 1_555
N3A C6A 1_555 1_555
C1A C6A 1_555 1_555
N5A Cd1A 1_555 1_555
O5A Cd1A 1_555 1_555
C2A O5A 1_555 1_555
C3A N5A 1_555 1_555
O6A Cd1A 1_555 1_555
H1A O6A 1_555 1_555
H2A O6A 1_555 1_555
C6A C3A 1_555 1_555
Cd1B N2 1_555 1_555
Cd1C N2A 1_555 1_555
N2B Cd1 1_555 1_555
N2C Cd1A 1_555 1_555
H3A O8 1_555 1_555
H4A O9 1_555 1_555
N2 N5 1_555 1_555
C2 C3 1_555 1_555
N4A C4A 1_555 1_555
N4A Cd1A 1_555 1_555
N2A N5A 1_555 1_555
C2A C3A 1_555 1_555

#END
