
#######################################################################
#
#                 Cambridge Crystallographic Data Centre
#                                CCDC 
#
#######################################################################
#
# If this CIF has been generated from an entry in the Cambridge 
# Structural Database, then it will include bibliographic, chemical, 
# crystal, experimental, refinement or atomic coordinate data resulting 
# from the CCDC's data processing and validation procedures.
#
#######################################################################

data_REYRUJ
_symmetry_cell_setting           monoclinic
_symmetry_space_group_name_H-M   'P 21/c'
_symmetry_Int_Tables_number      14
_space_group_name_Hall           '-P 2ybc'
loop_
_symmetry_equiv_pos_site_id
_symmetry_equiv_pos_as_xyz
1 x,y,z
2 -x,1/2+y,1/2-z
3 -x,-y,-z
4 x,1/2-y,1/2+z
_cell_length_a                   20.322(4)
_cell_length_b                   19.728(4)
_cell_length_c                   13.473(3)
_cell_angle_alpha                90.00
_cell_angle_beta                 106.48(3)
_cell_angle_gamma                90.00
_cell_volume                     5179.59
loop_
_atom_site_label
_atom_site_type_symbol
_atom_site_fract_x
_atom_site_fract_y
_atom_site_fract_z
Sm1 Sm 0.252831(15) 0.602579(14) 0.51167(2)
Fe1 Fe 0.5000 0.5000 0.5000
Fe2 Fe 0.0000 0.5000 0.5000
N1 N 0.2094(2) 0.7044(2) 0.5958(3)
N2 N 0.2983(2) 0.7097(2) 0.4483(3)
C1 C 0.3270(3) 0.7196(3) 0.6933(4)
C2 C 0.2519(3) 0.7578(3) 0.4011(4)
N3 N 0.1687(2) 0.6684(2) 0.3620(3)
O1 O 0.2877(2) 0.50521(19) 0.6204(3)
N4 N 0.4241(3) 0.3658(3) 0.4208(4)
C3 C 0.3682(3) 0.8314(3) 0.7559(4)
H1 H 0.4043 0.8603 0.7927
C4 C 0.3846(3) 0.7976(3) 0.4978(4)
C5 C 0.2597(3) 0.7472(3) 0.6478(4)
N5 N 0.3357(2) 0.6524(2) 0.6767(3)
C6 C 0.3626(3) 0.7302(3) 0.4915(4)
H2 H 0.3959 0.6965 0.5201
N6 N 0.0654(3) 0.3576(3) 0.5441(4)
C7 C 0.1468(3) 0.7306(3) 0.5569(4)
H3 H 0.1107 0.7004 0.5248
C8 C 0.2489(3) 0.8169(3) 0.6557(4)
C9 C 0.2689(3) 0.8269(3) 0.4003(4)
C10 C 0.0499(3) 0.6912(3) 0.2668(4)
N7 N 0.3621(3) 0.5691(2) 0.4819(3)
C11 C 0.1305(3) 0.7989(3) 0.5599(4)
C12 C 0.4553(3) 0.6625(3) 0.7771(4)
O2 O 0.2272(2) 0.5199(2) 0.3737(3)
C13 C 0.1829(3) 0.7349(3) 0.3522(4)
C14 C 0.4573(3) 0.8140(3) 0.5566(4)
H4 H 0.4798 0.8370 0.5106
H5 H 0.4819 0.7720 0.5824
H6 H 0.4577 0.8437 0.6150
C15 C 0.3982(3) 0.6259(3) 0.7193(4)
H7 H 0.4041 0.5789 0.7095
C16 C 0.3362(3) 0.8471(3) 0.4543(4)
C17 C 0.3815(3) 0.7607(3) 0.7487(4)
C18 C 0.1322(3) 0.7827(3) 0.3016(4)
C19 C 0.1824(3) 0.8439(3) 0.6073(4)
C20 C 0.4539(3) 0.4157(3) 0.4493(4)
C21 C 0.0631(3) 0.7591(3) 0.2583(4)
C22 C 0.0406(3) 0.4109(3) 0.5277(4)
C23 C -0.0218(3) 0.6633(3) 0.2261(4)
H8 H -0.0514 0.6837 0.2641
H9 H -0.0208 0.6140 0.2353
H10 H -0.0398 0.6741 0.1523
N8 N 0.1423(3) 0.5619(3) 0.5280(4)
C24 C 0.4477(3) 0.7310(3) 0.7910(4)
C25 C 0.1521(3) 0.8514(3) 0.2989(4)
H11 H 0.1191 0.8835 0.2627
C26 C 0.5075(3) 0.7740(3) 0.8492(5)
H12 H 0.4970 0.7950 0.9087
H13 H 0.5160 0.8093 0.8033
H14 H 0.5484 0.7455 0.8733
C27 C 0.0573(3) 0.8221(3) 0.5066(5)
H15 H 0.0395 0.8477 0.5557
H16 H 0.0282 0.7824 0.4824
H17 H 0.0573 0.8510 0.4474
C28 C 0.3055(3) 0.8583(3) 0.7118(4)
H18 H 0.2986 0.9056 0.7180
N9 N 0.4998(3) 0.4575(3) 0.7219(4)
C29 C 0.2163(3) 0.8725(3) 0.3461(4)
H19 H 0.2270 0.9192 0.3432
C30 C 0.1037(3) 0.6482(3) 0.3180(4)
H20 H 0.0935 0.6014 0.3219
C31 C 0.0075(3) 0.8067(3) 0.2056(5)
H21 H -0.0128 0.7919 0.1340
H22 H 0.0266 0.8523 0.2059
H23 H -0.0279 0.8072 0.2422
C32 C 0.5231(3) 0.6265(3) 0.8175(4)
H24 H 0.5569 0.6468 0.7871
H25 H 0.5174 0.5784 0.7987
H26 H 0.5390 0.6308 0.8930
C33 C 0.1686(4) 0.9189(3) 0.6051(5)
H27 H 0.1789 0.9391 0.5447
H28 H 0.1977 0.9398 0.6684
H29 H 0.1202 0.9267 0.6007
C34 C 0.3556(3) 0.9213(3) 0.4652(5)
H30 H 0.3985 0.9268 0.5207
H31 H 0.3191 0.9472 0.4820
H32 H 0.3619 0.9379 0.3999
C35 C 0.5007(3) 0.4737(3) 0.6398(4)
C36 C 0.4139(3) 0.5430(3) 0.4855(4)
C37 C 0.0889(3) 0.5385(3) 0.5198(4)
N10 N 0.0100(3) 0.5166(3) 0.7319(4)
C38 C 0.0072(3) 0.5109(3) 0.6453(4)
H36 H 0.2694(15) 0.491(2) 0.676(2)
H37 H 0.308(2) 0.4667(15) 0.596(4)
H38 H 0.2617(12) 0.505(3) 0.341(3)
H39 H 0.1906(16) 0.4869(19) 0.360(5)
Sm1B Sm 0.747169(15) 0.397421(14) 0.48833(2)
Fe2_2 Fe 1.0000 0.5000 0.5000
N1B N 0.7906(2) 0.2956(2) 0.4042(3)
N2B N 0.7017(2) 0.2903(2) 0.5517(3)
C1B C 0.6730(3) 0.2804(3) 0.3067(4)
C2B C 0.7481(3) 0.2422(3) 0.5989(4)
N3B N 0.8313(2) 0.3316(2) 0.6380(3)
O1B O 0.7123(2) 0.49479(19) 0.3796(3)
N4B N 0.5759(3) 0.6342(3) 0.5792(4)
C3B C 0.6318(3) 0.1686(3) 0.2441(4)
H1B H 0.5957 0.1397 0.2073
C4B C 0.6154(3) 0.2024(3) 0.5022(4)
C5B C 0.7403(3) 0.2528(3) 0.3522(4)
N5B N 0.6643(2) 0.3476(2) 0.3233(3)
C6B C 0.6374(3) 0.2698(3) 0.5085(4)
H2B H 0.6041 0.3035 0.4799
N6B N -0.0654(3) 0.6424(3) 0.4559(4)
C7B C 0.8532(3) 0.2694(3) 0.4431(4)
H3B H 0.8893 0.2996 0.4752
C8B C 0.7511(3) 0.1831(3) 0.3443(4)
C9B C 0.7311(3) 0.1731(3) 0.5997(4)
C10B C 0.9501(3) 0.3088(3) 0.7332(4)
N7B N 0.6379(3) 0.4309(2) 0.5181(3)
C11B C 0.8695(3) 0.2011(3) 0.4401(4)
C12B C 0.5447(3) 0.3375(3) 0.2229(4)
O2B O 0.7728(2) 0.4801(2) 0.6263(3)
C13B C 0.8171(3) 0.2651(3) 0.6478(4)
C14B C 0.5427(3) 0.1860(3) 0.4434(4)
H4B H 0.5202 0.1630 0.4894
H5B H 0.5181 0.2280 0.4176
H6B H 0.5423 0.1563 0.3850
C15B C 0.6018(3) 0.3741(3) 0.2807(4)
H7B H 0.5959 0.4211 0.2905
C16B C 0.6638(3) 0.1529(3) 0.5457(4)
C17B C 0.6185(3) 0.2393(3) 0.2513(4)
C18B C 0.8678(3) 0.2173(3) 0.6984(4)
C19B C 0.8176(3) 0.1561(3) 0.3927(4)
C20B C 0.5461(3) 0.5843(3) 0.5507(4)
C21B C 0.9369(3) 0.2409(3) 0.7417(4)
C22B C -0.0406(3) 0.5891(3) 0.4723(4)
C23B C 1.0218(3) 0.3367(3) 0.7739(4)
H8B H 1.0514 0.3163 0.7359
H9B H 1.0208 0.3860 0.7647
H10B H 1.0398 0.3259 0.8477
N8B N 0.8577(3) 0.4381(3) 0.4720(4)
C24B C 0.5523(3) 0.2690(3) 0.2090(4)
C25B C 0.8479(3) 0.1486(3) 0.7011(4)
H11B H 0.8809 0.1165 0.7373
C26B C 0.4925(3) 0.2260(3) 0.1508(5)
H12B H 0.5030 0.2050 0.0913
H13B H 0.4840 0.1907 0.1967
H14B H 0.4516 0.2545 0.1267
C27B C 0.9427(3) 0.1779(3) 0.4934(5)
H15B H 0.9605 0.1523 0.4443
H16B H 0.9718 0.2176 0.5176
H17B H 0.9427 0.1490 0.5526
C28B C 0.6945(3) 0.1417(3) 0.2882(4)
H18B H 0.7014 0.0944 0.2820
N9B N 0.5002(3) 0.5425(3) 0.2781(4)
C29B C 0.7837(3) 0.1275(3) 0.6539(4)
H19B H 0.7730 0.0808 0.6568
C30B C 0.8963(3) 0.3518(3) 0.6820(4)
H20B H 0.9065 0.3986 0.6781
C31B C 0.9925(3) 0.1933(3) 0.7944(5)
H21B H 1.0128 0.2081 0.8660
H22B H 0.9734 0.1477 0.7941
H23B H 1.0279 0.1928 0.7578
C32B C 0.4769(3) 0.3735(3) 0.1825(4)
H24B H 0.4431 0.3532 0.2129
H25B H 0.4826 0.4216 0.2013
H26B H 0.4610 0.3692 0.1070
C33B C 0.8314(4) 0.0811(3) 0.3949(5)
H27B H 0.8211 0.0609 0.4553
H28B H 0.8023 0.0602 0.3316
H29B H 0.8798 0.0733 0.3993
C34B C 0.6444(3) 0.0787(3) 0.5348(5)
H30B H 0.6015 0.0732 0.4793
H31B H 0.6809 0.0528 0.5180
H32B H 0.6381 0.0621 0.6001
C35B C 0.4993(3) 0.5263(3) 0.3602(4)
C36B C 0.5861(3) 0.4570(3) 0.5145(4)
C37B C 0.9111(3) 0.4615(3) 0.4802(4)
C37B_2 C -0.0889(3) 0.4615(3) 0.4802(4)
N10B N -0.0100(3) 0.4834(3) 0.2681(4)
C38B C -0.0072(3) 0.4891(3) 0.3547(4)
H36B H 0.7306(15) 0.509(2) 0.324(2)
H37B H 0.692(2) 0.5333(15) 0.404(4)
H38B H 0.7383(12) 0.495(3) 0.659(3)
H39B H 0.8094(16) 0.5131(19) 0.640(5)
O3 O 0.3464(2) 0.3890(2) -0.0756(3)
O4 O 0.1423(2) 0.3905(2) 0.0736(3)
O5 O 0.2504(2) 0.4637(2) 0.7855(3)
C39 C 0.1854(4) 0.4349(4) 0.7722(7)
H33 H 0.1683 0.4472 0.8308
H34 H 0.1888 0.3854 0.7686
H35 H 0.1538 0.4518 0.7079
H40 H 0.284(3) 0.438(3) 0.837(5)
O6 O 0.3117(3) 0.3804(2) 0.5381(4)
O7 O 0.4593(2) 0.4657(2) 0.9129(3)
O8 O 0.3433(3) 0.2447(2) 0.3539(4)
O9 O 0.2922(3) 0.2420(2) 0.1401(4)
O10 O 0.1507(3) 0.2454(3) 0.6287(5)
O11 O 0.1243(3) 0.4409(3) 0.2565(4)
O12 O 0.3129(3) 0.4671(3) 0.2651(4)
O13 O -0.0411(3) 0.5289(3) 0.0522(4)
O14 O 0.1717(3) 0.3618(3) 0.4257(5)
O15 O 0.2007(4) 0.2565(4) -0.1564(5)
O16 O 0.2850(3) 0.3815(2) 0.0881(3)
loop_
_geom_bond_atom_site_label_1
_geom_bond_atom_site_label_2
_geom_bond_site_symmetry_1
_geom_bond_site_symmetry_2
Sm1 N1 1_555 1_555
Fe1 C20 1_555 1_555
Fe2 C22 1_555 1_555
N1 C5 1_555 1_555
N2 Sm1 1_555 1_555
C1 C5 1_555 1_555
C2 N2 1_555 1_555
N3 Sm1 1_555 1_555
O1 Sm1 1_555 1_555
N4 C20 1_555 1_555
C3 H1 1_555 1_555
C4 C6 1_555 1_555
C5 C8 1_555 1_555
N5 Sm1 1_555 1_555
C6 N2 1_555 1_555
H2 C6 1_555 1_555
N6 C22 1_555 1_555
C7 N1 1_555 1_555
H3 C7 1_555 1_555
C8 C19 1_555 1_555
C9 C2 1_555 1_555
C10 C21 1_555 1_555
N7 Sm1 1_555 1_555
C11 C7 1_555 1_555
C12 C15 1_555 1_555
O2 Sm1 1_555 1_555
C13 C2 1_555 1_555
C14 C4 1_555 1_555
H4 C14 1_555 1_555
H5 C14 1_555 1_555
H6 C14 1_555 1_555
C15 N5 1_555 1_555
H7 C15 1_555 1_555
C16 C4 1_555 1_555
C17 C1 1_555 1_555
C18 C13 1_555 1_555
C19 C11 1_555 1_555
C21 C18 1_555 1_555
C23 C10 1_555 1_555
H8 C23 1_555 1_555
H9 C23 1_555 1_555
H10 C23 1_555 1_555
N8 Sm1 1_555 1_555
C24 C12 1_555 1_555
C25 C18 1_555 1_555
H11 C25 1_555 1_555
C26 C24 1_555 1_555
H12 C26 1_555 1_555
H13 C26 1_555 1_555
H14 C26 1_555 1_555
C27 C11 1_555 1_555
H15 C27 1_555 1_555
H16 C27 1_555 1_555
H17 C27 1_555 1_555
C28 C3 1_555 1_555
H18 C28 1_555 1_555
N9 C35 1_555 1_555
C29 C9 1_555 1_555
H19 C29 1_555 1_555
C30 N3 1_555 1_555
H20 C30 1_555 1_555
C31 C21 1_555 1_555
H21 C31 1_555 1_555
H22 C31 1_555 1_555
H23 C31 1_555 1_555
C32 C12 1_555 1_555
H24 C32 1_555 1_555
H25 C32 1_555 1_555
H26 C32 1_555 1_555
C33 C19 1_555 1_555
H27 C33 1_555 1_555
H28 C33 1_555 1_555
H29 C33 1_555 1_555
C34 C16 1_555 1_555
H30 C34 1_555 1_555
H31 C34 1_555 1_555
H32 C34 1_555 1_555
C35 Fe1 1_555 1_555
C36 Fe1 1_555 1_555
C37 Fe2 1_555 1_555
O5 C39 1_555 1_555
N10 C38 1_555 1_555
C38 Fe2 1_555 1_555
C39 H33 1_555 1_555
H34 C39 1_555 1_555
H35 C39 1_555 1_555
H36 O1 1_555 1_555
H37 O1 1_555 1_555
H38 O2 1_555 1_555
H39 O2 1_555 1_555
H40 O5 1_555 1_555
Sm1B N1B 1_555 1_555
Fe2_2 C37B 1_555 1_555
N1B C5B 1_555 1_555
N2B Sm1B 1_555 1_555
C1B C5B 1_555 1_555
C2B N2B 1_555 1_555
N3B Sm1B 1_555 1_555
O1B Sm1B 1_555 1_555
N4B C20B 1_555 1_555
C3B H1B 1_555 1_555
C4B C6B 1_555 1_555
C5B C8B 1_555 1_555
N5B Sm1B 1_555 1_555
C6B N2B 1_555 1_555
H2B C6B 1_555 1_555
N6B C22B 1_555 1_555
C7B N1B 1_555 1_555
H3B C7B 1_555 1_555
C8B C19B 1_555 1_555
C9B C2B 1_555 1_555
C10B C21B 1_555 1_555
N7B Sm1B 1_555 1_555
C11B C7B 1_555 1_555
C12B C15B 1_555 1_555
O2B Sm1B 1_555 1_555
C13B C2B 1_555 1_555
C14B C4B 1_555 1_555
H4B C14B 1_555 1_555
H5B C14B 1_555 1_555
H6B C14B 1_555 1_555
C15B N5B 1_555 1_555
H7B C15B 1_555 1_555
C16B C4B 1_555 1_555
C17B C1B 1_555 1_555
C18B C13B 1_555 1_555
C19B C11B 1_555 1_555
C20B Fe1 1_555 1_555
C21B C18B 1_555 1_555
C22B Fe2 1_555 1_555
C23B C10B 1_555 1_555
H8B C23B 1_555 1_555
H9B C23B 1_555 1_555
H10B C23B 1_555 1_555
N8B Sm1B 1_555 1_555
C24B C12B 1_555 1_555
C25B C18B 1_555 1_555
H11B C25B 1_555 1_555
C26B C24B 1_555 1_555
H12B C26B 1_555 1_555
H13B C26B 1_555 1_555
H14B C26B 1_555 1_555
C27B C11B 1_555 1_555
H15B C27B 1_555 1_555
H16B C27B 1_555 1_555
H17B C27B 1_555 1_555
C28B C3B 1_555 1_555
H18B C28B 1_555 1_555
N9B C35B 1_555 1_555
C29B C9B 1_555 1_555
H19B C29B 1_555 1_555
C30B N3B 1_555 1_555
H20B C30B 1_555 1_555
C31B C21B 1_555 1_555
H21B C31B 1_555 1_555
H22B C31B 1_555 1_555
H23B C31B 1_555 1_555
C32B C12B 1_555 1_555
H24B C32B 1_555 1_555
H25B C32B 1_555 1_555
H26B C32B 1_555 1_555
C33B C19B 1_555 1_555
H27B C33B 1_555 1_555
H28B C33B 1_555 1_555
H29B C33B 1_555 1_555
C34B C16B 1_555 1_555
H30B C34B 1_555 1_555
H31B C34B 1_555 1_555
H32B C34B 1_555 1_555
C35B Fe1 1_555 1_555
C36B Fe1 1_555 1_555
C37B N8B 1_555 1_555
C37B_2 Fe2 1_555 1_555
N10B C38B 1_555 1_555
C38B Fe2 1_555 1_555
H36B O1B 1_555 1_555
H37B O1B 1_555 1_555
H38B O2B 1_555 1_555
H39B O2B 1_555 1_555
C1 N5 1_555 1_555
N3 C13 1_555 1_555
C3 C17 1_555 1_555
C8 C28 1_555 1_555
C9 C16 1_555 1_555
C10 C30 1_555 1_555
N7 C36 1_555 1_555
C17 C24 1_555 1_555
N8 C37 1_555 1_555
C25 C29 1_555 1_555
C1B N5B 1_555 1_555
N3B C13B 1_555 1_555
C3B C17B 1_555 1_555
C8B C28B 1_555 1_555
C9B C16B 1_555 1_555
C10B C30B 1_555 1_555
N7B C36B 1_555 1_555
C17B C24B 1_555 1_555
C25B C29B 1_555 1_555

#END
