
#######################################################################
#
#                 Cambridge Crystallographic Data Centre
#                                CCDC 
#
#######################################################################
#
# If this CIF has been generated from an entry in the Cambridge 
# Structural Database, then it will include bibliographic, chemical, 
# crystal, experimental, refinement or atomic coordinate data resulting 
# from the CCDC's data processing and validation procedures.
#
#######################################################################

data_REYRIX
_symmetry_cell_setting           monoclinic
_symmetry_space_group_name_H-M   'C 2/c'
_symmetry_Int_Tables_number      15
_space_group_name_Hall           '-C 2yn'
loop_
_symmetry_equiv_pos_site_id
_symmetry_equiv_pos_as_xyz
1 x,y,z
2 1/2+x,1/2+y,z
3 -x,y,1/2-z
4 1/2-x,1/2+y,1/2-z
5 -x,-y,-z
6 1/2-x,1/2-y,-z
7 x,-y,1/2+z
8 1/2+x,1/2-y,1/2+z
_cell_length_a                   16.069(3)
_cell_length_b                   14.390(3)
_cell_length_c                   32.076(6)
_cell_angle_alpha                90.00
_cell_angle_beta                 102.45(3)
_cell_angle_gamma                90.00
_cell_volume                     7242.61
loop_
_atom_site_label
_atom_site_type_symbol
_atom_site_fract_x
_atom_site_fract_y
_atom_site_fract_z
La1 La 0.463872(19) 0.30502(2) 0.105635(9)
Fe1 Fe 0.75974(5) 0.48810(6) 0.10827(2)
N1 N 0.5360(3) 0.2123(3) 0.17755(16)
N2 N 0.5262(3) 0.4009(3) 0.17760(14)
C1 C 0.6797(4) 0.3942(4) 0.11551(17)
N3 N 0.5621(3) 0.5442(4) 0.21347(16)
C2 C 0.5684(4) 0.3591(4) 0.21343(18)
C3 C 0.5730(4) 0.2557(4) 0.21409(19)
C4 C 0.3354(4) 0.0873(4) 0.10219(19)
N4 N 0.6090(4) 0.4032(4) 0.24848(16)
C5 C 0.5256(4) 0.4941(4) 0.17940(18)
N5 N 0.6264(3) 0.3421(4) 0.11803(16)
C6 C 0.6136(6) 0.2098(5) 0.2505(2)
H1 H 0.6399 0.2433 0.2753
N6 N 0.4488(3) 0.4942(4) 0.10644(16)
C7 C 0.6708(4) 0.5349(4) 0.06214(18)
C8 C 0.7985(4) 0.4096(4) 0.0673(2)
C9 C 0.6048(4) 0.4958(4) 0.24654(19)
C10 C 0.5390(5) 0.1189(4) 0.1778(2)
H2 H 0.5132 0.0864 0.1525
C11 C 0.7223(5) 0.5683(7) 0.1479(2)
C12 C 0.6521(4) 0.5500(5) 0.2835(2)
C13 C 0.4771(5) 0.6418(4) 0.1415(2)
H3 H 0.5008 0.6759 0.1666
C14 C 0.8474(5) 0.4367(5) 0.1538(2)
C15 C 0.4825(4) 0.5453(4) 0.14114(19)
C16 C 0.5781(6) 0.0681(5) 0.2133(3)
H4 H 0.5792 0.0021 0.2121
C17 C 0.4372(6) 0.6869(5) 0.1050(3)
H5 H 0.4337 0.7528 0.1042
C18 C 0.6151(6) 0.1134(5) 0.2499(2)
H6 H 0.6415 0.0795 0.2747
C19 C 0.4021(5) 0.6350(5) 0.0693(3)
H7 H 0.3734 0.6647 0.0438
C20 C 0.4093(5) 0.5389(4) 0.0712(2)
H8 H 0.3851 0.5036 0.0465
O1 O 0.3277(3) 0.3296(3) 0.05256(15)
O2 O 0.5364(3) 0.1756(3) 0.07336(16)
O3 O 0.3505(3) 0.3274(4) 0.14945(15)
N7 N 0.3777(3) 0.1511(4) 0.10083(19)
N8 N 0.8184(5) 0.3621(4) 0.0421(2)
N9 N 0.6174(4) 0.5579(4) 0.03448(18)
O4 O 0.4982(3) 0.3692(4) 0.03620(14)
N10 N 0.6836(4) 0.4995(5) 0.31948(19)
N11 N 0.8978(5) 0.4070(5) 0.1809(3)
C21 C 0.7146(6) 0.6904(6) 0.3146(3)
H9 H 0.7248 0.7552 0.3131
C22 C 0.7300(5) 0.5482(6) 0.3523(2)
H10 H 0.7520 0.5159 0.3782
C23 C 0.6655(5) 0.6437(5) 0.2799(2)
H11 H 0.6418 0.6760 0.2543
C24 C 0.7479(5) 0.6423(6) 0.3508(3)
H12 H 0.7827 0.6726 0.3747
N12 N 0.7014(6) 0.6241(10) 0.1699(3)
N13 N 0.1843(4) 0.3432(4) 0.03484(18)
C25 C 0.2539(5) 0.2989(5) 0.0507(2)
H13 H 0.2488 0.2385 0.0619
C26 C 0.1858(7) 0.4356(7) 0.0169(3)
H14 H 0.2445 0.4519 0.0157
H15 H 0.1642 0.4806 0.0349
H16 H 0.1499 0.4368 -0.0119
C27 C 0.1011(6) 0.3023(7) 0.0343(3)
H17 H 0.1085 0.2389 0.0457
H18 H 0.0675 0.3007 0.0049
H19 H 0.0712 0.3399 0.0520
La1A La -0.036128(19) -0.19498(2) 0.105635(9)
La1A_2 La 0.963872(19) 0.80502(2) 0.105635(9)
Fe1A Fe 0.25974(5) -0.01190(6) 0.10827(2)
N1A N 0.0360(3) -0.2877(3) 0.17755(16)
N2A N 0.0262(3) -0.0991(3) 0.17760(14)
C1A C 0.1797(4) -0.1058(4) 0.11551(17)
N3A N 0.0621(3) 0.0442(4) 0.21347(16)
C2A C 0.0684(4) -0.1409(4) 0.21343(18)
C3A C 0.0730(4) -0.2443(4) 0.21409(19)
C4A C 0.8354(4) 0.5873(4) 0.10219(19)
N4A N 0.1090(4) -0.0968(4) 0.24848(16)
C5A C 0.0256(4) -0.0059(4) 0.17940(18)
N5A N 0.1264(3) -0.1579(4) 0.11803(16)
C6A C 0.1136(6) -0.2902(5) 0.2505(2)
H1A H 0.1399 -0.2567 0.2753
N6A N -0.0512(3) -0.0058(4) 0.10644(16)
C7A C 0.1708(4) 0.0349(4) 0.06214(18)
C8A C 0.2985(4) -0.0904(4) 0.0673(2)
C9A C 0.1048(4) -0.0042(4) 0.24654(19)
C10A C 0.0390(5) -0.3811(4) 0.1778(2)
H2A H 0.0132 -0.4136 0.1525
C11A C 0.2223(5) 0.0683(7) 0.1479(2)
C12A C 0.1521(4) 0.0500(5) 0.2835(2)
C13A C -0.0229(5) 0.1418(4) 0.1415(2)
H3A H 0.0008 0.1759 0.1666
C14A C 0.3474(5) -0.0633(5) 0.1538(2)
C15A C -0.0175(4) 0.0453(4) 0.14114(19)
C16A C 0.0781(6) -0.4319(5) 0.2133(3)
H4A H 0.0792 -0.4979 0.2121
C17A C -0.0628(6) 0.1869(5) 0.1050(3)
H5A H -0.0663 0.2528 0.1042
C18A C 0.1151(6) -0.3866(5) 0.2499(2)
H6A H 0.1415 -0.4205 0.2747
C19A C -0.0979(5) 0.1350(5) 0.0693(3)
H7A H -0.1266 0.1647 0.0438
C20A C -0.0907(5) 0.0389(4) 0.0712(2)
H8A H -0.1149 0.0036 0.0465
O1A O -0.1723(3) -0.1704(3) 0.05256(15)
O2A O 0.0364(3) -0.3244(3) 0.07336(16)
O3A O -0.1495(3) -0.1726(4) 0.14945(15)
N7A N 0.8777(3) 0.6511(4) 0.10083(19)
N7A_2 N -0.1223(3) -0.3489(4) 0.10083(19)
N8A N 0.3184(5) -0.1379(4) 0.0421(2)
N9A N 0.1174(4) 0.0579(4) 0.03448(18)
O4A O -0.0018(3) -0.1308(4) 0.03620(14)
N10A N 0.1836(4) -0.0005(5) 0.31948(19)
N11A N 0.3978(5) -0.0930(5) 0.1809(3)
C21A C 0.2146(6) 0.1904(6) 0.3146(3)
H9A H 0.2248 0.2552 0.3131
C22A C 0.2300(5) 0.0482(6) 0.3523(2)
H10A H 0.2520 0.0159 0.3782
C23A C 0.1655(5) 0.1437(5) 0.2799(2)
H11A H 0.1418 0.1760 0.2543
C24A C 0.2479(5) 0.1423(6) 0.3508(3)
H12A H 0.2827 0.1726 0.3747
N12A N 0.2014(6) 0.1241(10) 0.1699(3)
N13A N -0.3157(4) -0.1568(4) 0.03484(18)
C25A C -0.2461(5) -0.2011(5) 0.0507(2)
H13A H -0.2512 -0.2615 0.0619
C26A C -0.3142(7) -0.0644(7) 0.0169(3)
H14A H -0.2555 -0.0481 0.0157
H15A H -0.3358 -0.0194 0.0349
H16A H -0.3501 -0.0632 -0.0119
C27A C -0.3989(6) -0.1977(7) 0.0343(3)
H17A H -0.3915 -0.2611 0.0457
H18A H -0.4325 -0.1993 0.0049
H19A H -0.4288 -0.1601 0.0520
O5 O 0.5021(9) -0.0064(9) 0.0630(4)
O6 O 1.0000 0.3114(15) 0.2500
O7 O 0.5421(14) 0.8995(15) 0.1297(7)
O8 O 0.6687(5) 0.2129(5) 0.0369(2)
O9 O 0.1709(18) 0.3086(17) 0.1665(8)
loop_
_geom_bond_atom_site_label_1
_geom_bond_atom_site_label_2
_geom_bond_site_symmetry_1
_geom_bond_site_symmetry_2
La1 N1 1_555 1_555
Fe1 C1 1_555 1_555
N1 C3 1_555 1_555
N2 La1 1_555 1_555
C1 N5 1_555 1_555
N3 C5 1_555 1_555
C2 N2 1_555 1_555
C3 C2 1_555 1_555
C4 N7 1_555 1_555
N4 C2 1_555 1_555
C5 N2 1_555 1_555
N5 La1 1_555 1_555
C6 C3 1_555 1_555
H1 C6 1_555 1_555
N6 La1 1_555 1_555
C7 Fe1 1_555 1_555
C8 Fe1 1_555 1_555
C9 N3 1_555 1_555
C10 N1 1_555 1_555
H2 C10 1_555 1_555
C11 Fe1 1_555 1_555
C12 C9 1_555 1_555
C13 H3 1_555 1_555
C14 Fe1 1_555 1_555
C15 C5 1_555 1_555
C16 C10 1_555 1_555
H4 C16 1_555 1_555
C17 C13 1_555 1_555
H5 C17 1_555 1_555
C18 C6 1_555 1_555
H6 C18 1_555 1_555
C19 C17 1_555 1_555
H7 C19 1_555 1_555
C20 N6 1_555 1_555
H8 C20 1_555 1_555
O1 La1 1_555 1_555
O2 La1 1_555 1_555
O3 La1 1_555 1_555
N7 La1 1_555 1_555
N8 C8 1_555 1_555
N9 C7 1_555 1_555
O4 La1 1_555 1_555
N10 C12 1_555 1_555
N11 C14 1_555 1_555
C21 H9 1_555 1_555
C22 N10 1_555 1_555
H10 C22 1_555 1_555
C23 C12 1_555 1_555
H11 C23 1_555 1_555
C24 C21 1_555 1_555
H12 C24 1_555 1_555
N12 C11 1_555 1_555
N13 C25 1_555 1_555
C25 O1 1_555 1_555
H13 C25 1_555 1_555
C26 N13 1_555 1_555
H14 C26 1_555 1_555
H15 C26 1_555 1_555
H16 C26 1_555 1_555
C27 N13 1_555 1_555
H17 C27 1_555 1_555
H18 C27 1_555 1_555
H19 C27 1_555 1_555
La1A N1A 1_555 1_555
La1A_2 N7A 1_555 1_555
Fe1A C4 1_555 1_555
N1A C3A 1_555 1_555
N2A La1A 1_555 1_555
C1A Fe1A 1_555 1_555
N3A C5A 1_555 1_555
C2A N2A 1_555 1_555
C3A C2A 1_555 1_555
C4A Fe1 1_555 1_555
N4A C2A 1_555 1_555
C5A N2A 1_555 1_555
N5A La1A 1_555 1_555
C6A C3A 1_555 1_555
H1A C6A 1_555 1_555
N6A La1A 1_555 1_555
C7A Fe1A 1_555 1_555
C8A Fe1A 1_555 1_555
C9A N3A 1_555 1_555
C10A N1A 1_555 1_555
H2A C10A 1_555 1_555
C11A Fe1A 1_555 1_555
C12A C9A 1_555 1_555
C13A H3A 1_555 1_555
C14A Fe1A 1_555 1_555
C15A C5A 1_555 1_555
C16A C10A 1_555 1_555
H4A C16A 1_555 1_555
C17A C13A 1_555 1_555
H5A C17A 1_555 1_555
C18A C6A 1_555 1_555
H6A C18A 1_555 1_555
C19A C17A 1_555 1_555
H7A C19A 1_555 1_555
C20A N6A 1_555 1_555
H8A C20A 1_555 1_555
O1A La1A 1_555 1_555
O2A La1A 1_555 1_555
O3A La1A 1_555 1_555
N7A C4A 1_555 1_555
N7A_2 La1A 1_555 1_555
N8A C8A 1_555 1_555
N9A C7A 1_555 1_555
O4A La1A 1_555 1_555
N10A C12A 1_555 1_555
N11A C14A 1_555 1_555
C21A H9A 1_555 1_555
C22A N10A 1_555 1_555
H10A C22A 1_555 1_555
C23A C12A 1_555 1_555
H11A C23A 1_555 1_555
C24A C21A 1_555 1_555
H12A C24A 1_555 1_555
N12A C11A 1_555 1_555
N13A C25A 1_555 1_555
C25A O1A 1_555 1_555
H13A C25A 1_555 1_555
C26A N13A 1_555 1_555
H14A C26A 1_555 1_555
H15A C26A 1_555 1_555
H16A C26A 1_555 1_555
C27A N13A 1_555 1_555
H17A C27A 1_555 1_555
H18A C27A 1_555 1_555
H19A C27A 1_555 1_555
N4 C9 1_555 1_555
N6 C15 1_555 1_555
C13 C15 1_555 1_555
C16 C18 1_555 1_555
C19 C20 1_555 1_555
C21 C23 1_555 1_555
C22 C24 1_555 1_555
C1A N5A 1_555 1_555
N4A C9A 1_555 1_555
N6A C15A 1_555 1_555
C13A C15A 1_555 1_555
C16A C18A 1_555 1_555
C19A C20A 1_555 1_555
C21A C23A 1_555 1_555
C22A C24A 1_555 1_555

#END
