
#######################################################################
#
#                 Cambridge Crystallographic Data Centre
#                                CCDC 
#
#######################################################################
#
# If this CIF has been generated from an entry in the Cambridge 
# Structural Database, then it will include bibliographic, chemical, 
# crystal, experimental, refinement or atomic coordinate data resulting 
# from the CCDC's data processing and validation procedures.
#
#######################################################################

data_REYROD
_symmetry_cell_setting           triclinic
_symmetry_space_group_name_H-M   'P -1'
_symmetry_Int_Tables_number      2
_space_group_name_Hall           '-P 1'
loop_
_symmetry_equiv_pos_site_id
_symmetry_equiv_pos_as_xyz
1 x,y,z
2 -x,-y,-z
_cell_length_a                   9.7240(19)
_cell_length_b                   13.477(3)
_cell_length_c                   16.552(3)
_cell_angle_alpha                74.62(3)
_cell_angle_beta                 88.44(3)
_cell_angle_gamma                81.45(3)
_cell_volume                     2068.05
loop_
_atom_site_label
_atom_site_type_symbol
_atom_site_fract_x
_atom_site_fract_y
_atom_site_fract_z
Sm1 Sm 0.13212(3) 0.62950(3) 0.22862(2)
Fe1 Fe 0.5000 0.5000 0.5000
Fe2 Fe 0.0000 1.0000 0.0000
N1 N 0.0033(6) 0.5399(4) 0.1394(3)
O1 O 0.0537(5) 0.4816(4) 0.3242(3)
N2 N 0.2682(6) 0.4664(4) 0.1949(4)
O2 O 0.3275(5) 0.6823(4) 0.1515(3)
C1 C 0.6543(8) 0.5423(6) 0.4298(5)
O3 O -0.0931(5) 0.6859(4) 0.2758(3)
C2 C -0.0168(7) 0.3830(5) 0.0985(4)
C3 C 0.0126(7) 0.8578(5) 0.0660(4)
N3 N 0.0274(6) 0.7734(4) 0.1086(4)
N4 N 0.3029(6) 0.5719(5) 0.3473(4)
N5 N -0.0117(7) 0.3550(5) 0.4316(4)
C4 C -0.1257(7) 0.5769(5) 0.1126(4)
H1 H -0.1629 0.6448 0.1165
O4 O 0.1660(6) 0.7817(4) 0.2703(4)
C5 C 0.3760(7) 0.5457(5) 0.4036(4)
C6 C 0.1993(7) 0.4048(5) 0.1621(4)
N6 N 0.4944(6) 0.7846(5) 0.1360(4)
C7 C 0.0563(8) 0.4340(5) 0.3994(4)
H2 H 0.1109 0.4557 0.4364
N7 N 0.2660(7) 1.0098(5) 0.0943(5)
C8 C 0.3836(8) 0.7572(6) 0.1118(5)
H3 H 0.3423 0.7974 0.0598
C9 C 0.1664(8) 1.0087(6) 0.0591(5)
C10 C -0.2123(7) 0.5219(5) 0.0782(4)
C11 C -0.1566(7) 0.4235(5) 0.0713(4)
C12 C -0.1180(7) 1.0437(6) 0.0853(5)
C13 C 0.0582(7) 0.4442(5) 0.1330(4)
C14 C 0.5371(8) 0.3611(7) 0.4824(5)
C15 C -0.3568(7) 0.5726(6) 0.0507(5)
H4 H -0.3747 0.5660 -0.0054
H5 H -0.3668 0.6465 0.0495
H6 H -0.4235 0.5388 0.0900
C16 C 0.0515(8) 0.2839(6) 0.0915(5)
H7 H 0.0025 0.2424 0.0677
C17 C 0.3990(7) 0.4306(6) 0.2203(4)
C18 C 0.1836(8) 0.2485(6) 0.1179(5)
H8 H 0.2253 0.1827 0.1117
C19 C 0.4709(7) 0.3338(6) 0.2168(5)
C20 C 0.2635(7) 0.3057(5) 0.1547(5)
N8 N 0.5554(9) 0.2767(6) 0.4732(5)
C21 C -0.2425(8) 0.3601(6) 0.0363(5)
H9 H -0.3414 0.3831 0.0434
H10 H -0.2189 0.2864 0.0661
H11 H -0.2230 0.3694 -0.0234
C22 C 0.6179(8) 0.3037(7) 0.2514(5)
H12 H 0.6176 0.2564 0.3077
H13 H 0.6554 0.3662 0.2542
H14 H 0.6758 0.2688 0.2147
C23 C 0.4016(8) 0.2696(6) 0.1836(5)
N9 N 0.7491(7) 0.5701(6) 0.3895(5)
C24 C 0.4756(9) 0.1641(7) 0.1813(8)
H15 H 0.5643 0.1717 0.1525
H16 H 0.4177 0.1317 0.1512
H17 H 0.4929 0.1203 0.2386
N10 N -0.1868(7) 1.0662(5) 0.1363(5)
C25 C -0.0991(11) 0.3180(8) 0.3797(6)
H18 H -0.1074 0.3657 0.3234
H19 H -0.1916 0.3147 0.4045
H20 H -0.0574 0.2485 0.3762
C26 C -0.0152(11) 0.3095(8) 0.5209(5)
H21 H 0.0283 0.3515 0.5501
H22 H 0.0357 0.2386 0.5346
H23 H -0.1120 0.3075 0.5387
C27 C 0.5655(10) 0.8676(7) 0.0906(7)
H24 H 0.5221 0.8982 0.0351
H25 H 0.6633 0.8405 0.0843
H26 H 0.5599 0.9210 0.1214
C28 C 0.5530(10) 0.7274(9) 0.2207(6)
H27 H 0.4953 0.6744 0.2476
H28 H 0.5542 0.7765 0.2550
H29 H 0.6481 0.6938 0.2152
N11 N 0.1642(10) 0.9316(6) 0.3039(6)
C29 C 0.1005(17) 1.0443(9) 0.2875(9)
H30 H 0.0136 1.0560 0.2554
H31 H 0.1654 1.0885 0.2555
H32 H 0.0810 1.0616 0.3410
C30 C 0.2720(17) 0.8887(13) 0.3668(10)
H33 H 0.2792 0.8127 0.3834
H34 H 0.2493 0.9155 0.4158
H35 H 0.3609 0.9087 0.3440
C31 C 0.1214(9) 0.8718(6) 0.2625(6)
H36 H 0.0485 0.9022 0.2225
H37 H 0.456(6) 0.482(5) 0.245(4)
Sm1A Sm 0.86788(3) 0.37050(3) 0.77138(2)
Fe2_2 Fe 1.0000 0.0000 1.0000
N1A N 0.9967(6) 0.4601(4) 0.8606(3)
O1A O 0.9463(5) 0.5184(4) 0.6758(3)
N2A N 0.7318(6) 0.5336(4) 0.8051(4)
O2A O 0.6725(5) 0.3177(4) 0.8485(3)
C1A C 0.3457(8) 0.4577(6) 0.5702(5)
O3A O 1.0931(5) 0.3141(4) 0.7242(3)
C2A C 1.0168(7) 0.6170(5) 0.9015(4)
C3A C 0.9874(7) 0.1422(5) 0.9340(4)
C3A_2 C -0.0126(7) 1.1422(5) -0.0660(4)
N3A N 0.9726(6) 0.2266(4) 0.8914(4)
N4A N 0.6971(6) 0.4281(5) 0.6527(4)
N5A N 1.0117(7) 0.6450(5) 0.5684(4)
C4A C 1.1257(7) 0.4231(5) 0.8874(4)
H1A H 1.1629 0.3552 0.8835
O4A O 0.8340(6) 0.2183(4) 0.7297(4)
C5A C 0.6240(7) 0.4543(5) 0.5964(4)
C6A C 0.8007(7) 0.5952(5) 0.8379(4)
N6A N 0.5056(6) 0.2154(5) 0.8640(4)
C7A C 0.9437(8) 0.5660(5) 0.6006(4)
H2A H 0.8891 0.5443 0.5636
N7A N -0.2660(7) 0.9902(5) -0.0943(5)
C8A C 0.6164(8) 0.2428(6) 0.8882(5)
H3A H 0.6577 0.2026 0.9402
C9A C -0.1664(8) 0.9913(6) -0.0591(5)
C10A C 1.2123(7) 0.4781(5) 0.9218(4)
C11A C 1.1566(7) 0.5765(5) 0.9287(4)
C12A C 0.1180(7) 0.9563(6) -0.0853(5)
C13A C 0.9418(7) 0.5558(5) 0.8670(4)
C14A C 0.4629(8) 0.6389(7) 0.5176(5)
C15A C 1.3568(7) 0.4274(6) 0.9493(5)
H4A H 1.3747 0.4340 1.0054
H5A H 1.3668 0.3535 0.9505
H6A H 1.4235 0.4612 0.9100
C16A C 0.9485(8) 0.7161(6) 0.9085(5)
H7A H 0.9975 0.7576 0.9323
C17A C 0.6010(7) 0.5694(6) 0.7797(4)
C18A C 0.8164(8) 0.7515(6) 0.8821(5)
H8A H 0.7747 0.8173 0.8883
C19A C 0.5291(7) 0.6662(6) 0.7832(5)
C20A C 0.7365(7) 0.6943(5) 0.8453(5)
N8A N 0.4446(9) 0.7233(6) 0.5268(5)
C21A C 1.2425(8) 0.6399(6) 0.9637(5)
H9A H 1.3414 0.6169 0.9566
H10A H 1.2189 0.7136 0.9339
H11A H 1.2230 0.6306 1.0234
C22A C 0.3821(8) 0.6963(7) 0.7486(5)
H12A H 0.3824 0.7436 0.6923
H13A H 0.3446 0.6338 0.7458
H14A H 0.3242 0.7312 0.7853
C23A C 0.5984(8) 0.7304(6) 0.8164(5)
N9A N 0.2509(7) 0.4299(6) 0.6105(5)
C24A C 0.5244(9) 0.8359(7) 0.8187(8)
H15A H 0.4357 0.8283 0.8475
H16A H 0.5823 0.8683 0.8488
H17A H 0.5071 0.8797 0.7614
N10A N 0.1868(7) 0.9338(5) -0.1363(5)
C25A C 1.0991(11) 0.6820(8) 0.6203(6)
H18A H 1.1074 0.6343 0.6766
H19A H 1.1916 0.6853 0.5955
H20A H 1.0574 0.7515 0.6238
C26A C 1.0152(11) 0.6905(8) 0.4791(5)
H21A H 0.9717 0.6485 0.4499
H22A H 0.9643 0.7614 0.4654
H23A H 1.1120 0.6925 0.4613
C27A C 0.4345(10) 0.1324(7) 0.9094(7)
H24A H 0.4779 0.1018 0.9649
H25A H 0.3367 0.1595 0.9157
H26A H 0.4401 0.0790 0.8786
C28A C 0.4470(10) 0.2726(9) 0.7793(6)
H27A H 0.5047 0.3256 0.7524
H28A H 0.4458 0.2235 0.7450
H29A H 0.3519 0.3062 0.7848
N11A N 0.8358(10) 0.0684(6) 0.6961(6)
C29A C 0.8995(17) -0.0443(9) 0.7125(9)
H30A H 0.9864 -0.0560 0.7446
H31A H 0.8346 -0.0885 0.7445
H32A H 0.9190 -0.0616 0.6590
C30A C 0.7280(17) 0.1113(13) 0.6332(10)
H33A H 0.7208 0.1873 0.6166
H34A H 0.7507 0.0845 0.5842
H35A H 0.6391 0.0913 0.6560
C31A C 0.8786(9) 0.1282(6) 0.7375(6)
H36A H 0.9515 0.0978 0.7775
H37A H 0.544(6) 0.518(5) 0.755(4)
O5 O -0.2246(8) 0.8829(6) 0.2695(5)
O6 O 0.299(3) 0.186(2) 0.4133(17)
loop_
_geom_bond_atom_site_label_1
_geom_bond_atom_site_label_2
_geom_bond_site_symmetry_1
_geom_bond_site_symmetry_2
Sm1 N1 1_555 1_555
Fe1 C1 1_555 1_555
Fe2 C3 1_555 1_555
N1 C4 1_555 1_555
O1 Sm1 1_555 1_555
N2 Sm1 1_555 1_555
O2 Sm1 1_555 1_555
C1 N9 1_555 1_555
O3 Sm1 1_555 1_555
C2 C11 1_555 1_555
C3 N3 1_555 1_555
N3 Sm1 1_555 1_555
N4 Sm1 1_555 1_555
N5 C7 1_555 1_555
C4 H1 1_555 1_555
O4 Sm1 1_555 1_555
C5 Fe1 1_555 1_555
C6 N2 1_555 1_555
N6 C8 1_555 1_555
C7 O1 1_555 1_555
H2 C7 1_555 1_555
N7 C9 1_555 1_555
C8 O2 1_555 1_555
H3 C8 1_555 1_555
C9 Fe2 1_555 1_555
C10 C4 1_555 1_555
C11 C10 1_555 1_555
C12 Fe2 1_555 1_555
C13 N1 1_555 1_555
C14 Fe1 1_555 1_555
C15 C10 1_555 1_555
H4 C15 1_555 1_555
H5 C15 1_555 1_555
H6 C15 1_555 1_555
C16 C2 1_555 1_555
H7 C16 1_555 1_555
C17 N2 1_555 1_555
C18 C16 1_555 1_555
H8 C18 1_555 1_555
C19 C17 1_555 1_555
C20 C6 1_555 1_555
N8 C14 1_555 1_555
C21 C11 1_555 1_555
H9 C21 1_555 1_555
H10 C21 1_555 1_555
H11 C21 1_555 1_555
C22 C19 1_555 1_555
H12 C22 1_555 1_555
H13 C22 1_555 1_555
H14 C22 1_555 1_555
C23 C19 1_555 1_555
C24 C23 1_555 1_555
H15 C24 1_555 1_555
H16 C24 1_555 1_555
H17 C24 1_555 1_555
N10 C12 1_555 1_555
C25 N5 1_555 1_555
H18 C25 1_555 1_555
H19 C25 1_555 1_555
H20 C25 1_555 1_555
C26 N5 1_555 1_555
H21 C26 1_555 1_555
H22 C26 1_555 1_555
H23 C26 1_555 1_555
C27 N6 1_555 1_555
H24 C27 1_555 1_555
H25 C27 1_555 1_555
H26 C27 1_555 1_555
C28 N6 1_555 1_555
H27 C28 1_555 1_555
H28 C28 1_555 1_555
H29 C28 1_555 1_555
N11 C29 1_555 1_555
C29 H30 1_555 1_555
H31 C29 1_555 1_555
H32 C29 1_555 1_555
C30 N11 1_555 1_555
H33 C30 1_555 1_555
H34 C30 1_555 1_555
H35 C30 1_555 1_555
C31 O4 1_555 1_555
H36 C31 1_555 1_555
H37 C17 1_555 1_555
Sm1A N1A 1_555 1_555
Fe2_2 C3A 1_555 1_555
N1A C4A 1_555 1_555
O1A Sm1A 1_555 1_555
N2A Sm1A 1_555 1_555
O2A Sm1A 1_555 1_555
C1A Fe1 1_555 1_555
O3A Sm1A 1_555 1_555
C2A C11A 1_555 1_555
C3A N3A 1_555 1_555
C3A_2 Fe2 1_555 1_555
N3A Sm1A 1_555 1_555
N4A Sm1A 1_555 1_555
N5A C7A 1_555 1_555
C4A H1A 1_555 1_555
O4A Sm1A 1_555 1_555
C5A Fe1 1_555 1_555
C6A N2A 1_555 1_555
N6A C8A 1_555 1_555
C7A O1A 1_555 1_555
H2A C7A 1_555 1_555
N7A C9A 1_555 1_555
C8A O2A 1_555 1_555
H3A C8A 1_555 1_555
C9A Fe2 1_555 1_555
C10A C4A 1_555 1_555
C11A C10A 1_555 1_555
C12A Fe2 1_555 1_555
C13A N1A 1_555 1_555
C14A Fe1 1_555 1_555
C15A C10A 1_555 1_555
H4A C15A 1_555 1_555
H5A C15A 1_555 1_555
H6A C15A 1_555 1_555
C16A C2A 1_555 1_555
H7A C16A 1_555 1_555
C17A N2A 1_555 1_555
C18A C16A 1_555 1_555
H8A C18A 1_555 1_555
C19A C17A 1_555 1_555
C20A C6A 1_555 1_555
N8A C14A 1_555 1_555
C21A C11A 1_555 1_555
H9A C21A 1_555 1_555
H10A C21A 1_555 1_555
H11A C21A 1_555 1_555
C22A C19A 1_555 1_555
H12A C22A 1_555 1_555
H13A C22A 1_555 1_555
H14A C22A 1_555 1_555
C23A C19A 1_555 1_555
N9A C1A 1_555 1_555
C24A C23A 1_555 1_555
H15A C24A 1_555 1_555
H16A C24A 1_555 1_555
H17A C24A 1_555 1_555
N10A C12A 1_555 1_555
C25A N5A 1_555 1_555
H18A C25A 1_555 1_555
H19A C25A 1_555 1_555
H20A C25A 1_555 1_555
C26A N5A 1_555 1_555
H21A C26A 1_555 1_555
H22A C26A 1_555 1_555
H23A C26A 1_555 1_555
C27A N6A 1_555 1_555
H24A C27A 1_555 1_555
H25A C27A 1_555 1_555
H26A C27A 1_555 1_555
C28A N6A 1_555 1_555
H27A C28A 1_555 1_555
H28A C28A 1_555 1_555
H29A C28A 1_555 1_555
N11A C29A 1_555 1_555
C29A H30A 1_555 1_555
H31A C29A 1_555 1_555
H32A C29A 1_555 1_555
C30A N11A 1_555 1_555
H33A C30A 1_555 1_555
H34A C30A 1_555 1_555
H35A C30A 1_555 1_555
C31A O4A 1_555 1_555
H36A C31A 1_555 1_555
H37A C17A 1_555 1_555
C2 C13 1_555 1_555
N4 C5 1_555 1_555
C6 C13 1_555 1_555
C18 C20 1_555 1_555
C20 C23 1_555 1_555
N11 C31 1_555 1_555
C2A C13A 1_555 1_555
N4A C5A 1_555 1_555
C6A C13A 1_555 1_555
C18A C20A 1_555 1_555
C20A C23A 1_555 1_555
N11A C31A 1_555 1_555

#END
