
#######################################################################
#
#                 Cambridge Crystallographic Data Centre
#                                CCDC 
#
#######################################################################
#
# If this CIF has been generated from an entry in the Cambridge 
# Structural Database, then it will include bibliographic, chemical, 
# crystal, experimental, refinement or atomic coordinate data resulting 
# from the CCDC's data processing and validation procedures.
#
#######################################################################

data_REZKUE
_symmetry_cell_setting           orthorhombic
_symmetry_space_group_name_H-M   'P b c a'
_symmetry_Int_Tables_number      61
_space_group_name_Hall           '-P 2ac 2ab'
loop_
_symmetry_equiv_pos_site_id
_symmetry_equiv_pos_as_xyz
1 x,y,z
2 1/2-x,-y,1/2+z
3 1/2+x,1/2-y,-z
4 -x,1/2+y,1/2-z
5 -x,-y,-z
6 1/2+x,y,1/2-z
7 1/2-x,1/2+y,z
8 x,1/2-y,1/2+z
_cell_length_a                   12.1097(14)
_cell_length_b                   12.7228(15)
_cell_length_c                   25.460(3)
_cell_angle_alpha                90
_cell_angle_beta                 90
_cell_angle_gamma                90
_cell_volume                     3922.6
loop_
_atom_site_label
_atom_site_type_symbol
_atom_site_fract_x
_atom_site_fract_y
_atom_site_fract_z
Cu1 Cu 0.33070(3) 0.14424(3) 0.743508(13)
Cl1 Cl 0.29359(14) 0.24731(10) 0.95875(5)
O1 O 0.3587(2) 0.16286(17) 0.67086(9)
O2 O 0.2266(2) 0.05254(19) 0.91314(9)
O3 O 0.28663(19) 0.11455(17) 0.81582(8)
O4 O 0.64883(17) 0.22791(18) 0.76452(8)
N1 N 0.2720(2) 0.00459(19) 0.73382(9)
N2 N 0.2273(2) -0.04121(19) 0.77925(10)
N3 N 0.4178(2) 0.27242(19) 0.76592(9)
H1 H 0.3671 0.3230 0.7734
C1 C 0.3148(2) -0.0135(3) 0.64183(12)
C2 C 0.3150(3) -0.0851(3) 0.59935(14)
H2 H 0.2897 -0.1533 0.6046
C3 C 0.3516(3) -0.0560(3) 0.55069(14)
H3 H 0.3501 -0.1036 0.5230
C4 C 0.3908(4) 0.0445(3) 0.54306(14)
H4 H 0.4163 0.0644 0.5101
C5 C 0.3925(3) 0.1155(3) 0.58357(14)
H5 H 0.4195 0.1827 0.5773
C6 C 0.3550(2) 0.0901(3) 0.63397(12)
C7 C 0.2721(2) -0.0502(2) 0.69113(12)
H6 H 0.2427 -0.1177 0.6924
C8 C 0.2389(3) 0.0252(2) 0.81830(12)
C9 C 0.1875(3) -0.0076(3) 0.87037(12)
H7 H 0.1079 -0.0002 0.8681
H8 H 0.2037 -0.0812 0.8767
C10 C 0.3377(3) 0.0540(3) 0.92159(12)
C11 C 0.4091(4) -0.0270(4) 0.90935(16)
H9 H 0.3815 -0.0876 0.8937
C12 C 0.5202(4) -0.0198(5) 0.91986(18)
H10 H 0.5669 -0.0751 0.9111
C13 C 0.5618(5) 0.0672(6) 0.9428(2)
H11 H 0.6370 0.0714 0.9499
C14 C 0.4937(5) 0.1500(5) 0.95590(17)
H12 H 0.5226 0.2098 0.9718
C15 C 0.3802(4) 0.1433(3) 0.94509(14)
C16 C 0.4930(3) 0.3186(2) 0.72579(13)
H13 H 0.5193 0.3865 0.7377
H14 H 0.4533 0.3287 0.6931
C17 C 0.5892(3) 0.2462(3) 0.71704(13)
H15 H 0.5626 0.1797 0.7033
H16 H 0.6384 0.2768 0.6911
C18 C 0.5780(3) 0.1840(3) 0.80407(12)
H17 H 0.6198 0.1733 0.8361
H18 H 0.5509 0.1162 0.7924
C19 C 0.4815(2) 0.2556(3) 0.81505(12)
H19 H 0.4343 0.2244 0.8415
H20 H 0.5080 0.3225 0.8283
Cu1E Cu 0.83070(3) 0.14424(3) 0.756492(13)
O4E O 0.14883(17) 0.22791(18) 0.73548(8)
loop_
_geom_bond_atom_site_label_1
_geom_bond_atom_site_label_2
_geom_bond_site_symmetry_1
_geom_bond_site_symmetry_2
Cu1 O1 1_555 1_555
Cl1 C15 1_555 1_555
O1 C6 1_555 1_555
O2 C9 1_555 1_555
O3 Cu1 1_555 1_555
O4 C17 1_555 1_555
N1 Cu1 1_555 1_555
N2 N1 1_555 1_555
N3 Cu1 1_555 1_555
H1 N3 1_555 1_555
C1 C2 1_555 1_555
C2 H2 1_555 1_555
C3 C2 1_555 1_555
H3 C3 1_555 1_555
C4 C3 1_555 1_555
H4 C4 1_555 1_555
C5 C4 1_555 1_555
H5 C5 1_555 1_555
C6 C1 1_555 1_555
C7 N1 1_555 1_555
H6 C7 1_555 1_555
C8 O3 1_555 1_555
C9 C8 1_555 1_555
H7 C9 1_555 1_555
H8 C9 1_555 1_555
C10 O2 1_555 1_555
C11 C10 1_555 1_555
H9 C11 1_555 1_555
C12 C11 1_555 1_555
H10 C12 1_555 1_555
C13 C12 1_555 1_555
H11 C13 1_555 1_555
C14 C13 1_555 1_555
H12 C14 1_555 1_555
C15 C10 1_555 1_555
C16 N3 1_555 1_555
H13 C16 1_555 1_555
H14 C16 1_555 1_555
C17 C16 1_555 1_555
H15 C17 1_555 1_555
H16 C17 1_555 1_555
C18 O4 1_555 1_555
H17 C18 1_555 1_555
H18 C18 1_555 1_555
C19 N3 1_555 1_555
H19 C19 1_555 1_555
H20 C19 1_555 1_555
Cu1E O4 1_555 1_555
O4E Cu1 1_555 1_555
N2 C8 1_555 1_555
C1 C7 1_555 1_555
C5 C6 1_555 1_555
C14 C15 1_555 1_555
C18 C19 1_555 1_555

#END
