
#######################################################################
#
#                 Cambridge Crystallographic Data Centre
#                                CCDC 
#
#######################################################################
#
# If this CIF has been generated from an entry in the Cambridge 
# Structural Database, then it will include bibliographic, chemical, 
# crystal, experimental, refinement or atomic coordinate data resulting 
# from the CCDC's data processing and validation procedures.
#
#######################################################################

data_REZKIQ
_symmetry_cell_setting           monoclinic
_symmetry_space_group_name_H-M   'P 21/c'
_symmetry_Int_Tables_number      14
_space_group_name_Hall           '-P 2ybc'
loop_
_symmetry_equiv_pos_site_id
_symmetry_equiv_pos_as_xyz
1 x,y,z
2 -x,1/2+y,1/2-z
3 -x,-y,-z
4 x,1/2-y,1/2+z
_cell_length_a                   9.4805(11)
_cell_length_b                   14.829(2)
_cell_length_c                   22.868(3)
_cell_angle_alpha                90
_cell_angle_beta                 93.799(11)
_cell_angle_gamma                90
_cell_volume                     3207.86
loop_
_atom_site_label
_atom_site_type_symbol
_atom_site_fract_x
_atom_site_fract_y
_atom_site_fract_z
Ag1 Ag 1.32248(5) 0.13284(3) 0.12678(2)
Ag2 Ag 0.96086(5) 0.08997(3) 0.08827(2)
S1 S 0.80056(14) -0.00751(9) 0.02840(6)
S2 S 1.13635(13) 0.21575(9) 0.06889(6)
P1 P 0.75504(13) -0.10700(8) 0.08169(5)
P2 P 1.07810(13) 0.31705(8) 0.12013(5)
N1 N 0.4393(6) -0.0874(4) 0.1664(3)
N2 N 0.7553(6) 0.2815(5) 0.2104(3)
N3 N 1.4026(5) 0.2028(3) 0.2480(2)
N4 N 1.0919(5) -0.0007(3) 0.2018(2)
O1 O 1.5080(4) 0.0350(3) 0.1208(2)
O2 O 0.8117(4) 0.1965(3) 0.1372(2)
O3 O 1.4727(5) 0.1983(4) 0.2052(2)
O4 O 1.2832(5) 0.1696(4) 0.2425(2)
O5 O 1.4513(6) 0.2343(3) 0.2946(2)
O6 O 1.1384(6) -0.0453(3) 0.2437(2)
O7 O 0.9833(5) 0.0456(3) 0.2040(2)
O8 O 1.1549(4) 0.0001(3) 0.1558(2)
C1 C 0.6847(6) -0.0719(4) 0.1506(2)
C2 C 0.5359(5) -0.0367(4) 0.1448(2)
C3 C 0.9968(5) 0.2828(4) 0.1861(2)
C4 C 0.8461(5) 0.2496(4) 0.1758(2)
C5 C 0.6206(5) -0.1776(3) 0.0454(2)
C6 C 0.5386(5) -0.1421(4) -0.0016(2)
C7 C 0.4355(5) -0.1945(4) -0.0318(2)
C8 C 0.4139(6) -0.2816(4) -0.0145(3)
C9 C 0.4919(6) -0.3166(4) 0.0332(3)
C10 C 0.5954(6) -0.2653(4) 0.0628(3)
C11 C 0.9092(5) -0.1751(3) 0.1040(2)
C12 C 0.9049(6) -0.2418(4) 0.1471(2)
C13 C 1.0244(7) -0.2919(5) 0.1629(3)
C14 C 1.1466(7) -0.2764(5) 0.1361(3)
C15 C 1.1522(6) -0.2116(5) 0.0931(3)
C16 C 1.0328(6) -0.1617(4) 0.0774(3)
C17 C 1.2280(5) 0.3862(3) 0.1447(2)
C18 C 1.2134(6) 0.4547(4) 0.1856(2)
C19 C 1.3273(7) 0.5085(4) 0.2030(3)
C20 C 1.4550(7) 0.4941(5) 0.1802(3)
C21 C 1.4703(7) 0.4272(5) 0.1403(4)
C22 C 1.3569(6) 0.3736(4) 0.1221(3)
C23 C 0.9530(5) 0.3892(3) 0.0792(2)
C24 C 0.8818(6) 0.4551(4) 0.1087(3)
C25 C 0.7912(6) 0.5140(4) 0.0777(3)
C26 C 0.7729(6) 0.5066(4) 0.0175(3)
C27 C 0.8415(6) 0.4416(4) -0.0118(3)
C28 C 0.9328(6) 0.3830(4) 0.0187(2)
H1 H 0.6924(44) -0.1262(32) 0.1770(19)
H2 H 0.7414(43) -0.0337(29) 0.1614(17)
H3 H 1.0463(40) 0.2365(28) 0.2001(16)
H4 H 1.0042(43) 0.3354(31) 0.2132(18)
H5 H 0.4567(45) -0.1314(30) 0.1773(18)
H6 H 0.3381(66) -0.0714(39) 0.1648(25)
H7 H 0.6767(80) 0.2616(51) 0.2104(33)
H8 H 0.7748(63) 0.3136(41) 0.2334(26)
H9 H 0.5517(41) -0.0849(30) -0.0148(18)
H10 H 0.3816(48) -0.1679(32) -0.0650(21)
H11 H 0.3465(51) -0.3155(34) -0.0339(21)
H12 H 0.4702(55) -0.3696(39) 0.0472(24)
H13 H 0.6406(47) -0.2912(32) 0.0964(21)
H14 H 0.8274(47) -0.2468(29) 0.1686(19)
H15 H 1.0088(58) -0.3375(39) 0.1888(25)
H16 H 1.2217(66) -0.3108(42) 0.1452(25)
H17 H 1.2427(58) -0.2007(35) 0.0735(23)
H18 H 1.0389(52) -0.1230(34) 0.0531(21)
H19 H 1.1266(51) 0.4643(31) 0.2019(20)
H20 H 1.3187(57) 0.5554(39) 0.2296(24)
H21 H 1.5239(73) 0.5283(48) 0.1953(30)
H22 H 1.5504(60) 0.4168(36) 0.1271(23)
H23 H 1.3736(50) 0.3289(35) 0.0937(21)
H24 H 0.9007(56) 0.4601(37) 0.1481(25)
H25 H 0.7531(64) 0.5546(42) 0.1040(27)
H26 H 0.7080(53) 0.5492(36) 0.0003(22)
H27 H 0.8254(55) 0.4361(36) -0.0573(26)
H28 H 0.9781(44) 0.3452(29) 0.0012(18)
O1_2 O 0.5080(4) 0.0350(3) 0.1208(2)
Ag1_2 Ag 0.32248(5) 0.13284(3) 0.12678(2)
loop_
_geom_bond_atom_site_label_1
_geom_bond_atom_site_label_2
_geom_bond_site_symmetry_1
_geom_bond_site_symmetry_2
Ag1 S2 1_555 1_555
Ag2 S1 1_555 1_555
S1 P1 1_555 1_555
S2 Ag2 1_555 1_555
P1 C1 1_555 1_555
P2 S2 1_555 1_555
N1 C2 1_555 1_555
N2 C4 1_555 1_555
N3 O3 1_555 1_555
N4 O6 1_555 1_555
O1 Ag1 1_555 1_555
O2 Ag2 1_555 1_555
O3 Ag1 1_555 1_555
O4 Ag1 1_555 1_555
O5 N3 1_555 1_555
O7 Ag2 1_555 1_555
O8 Ag1 1_555 1_555
C1 C2 1_555 1_555
C2 O1_2 1_555 1_555
C3 P2 1_555 1_555
C4 O2 1_555 1_555
C5 P1 1_555 1_555
C6 C5 1_555 1_555
C7 C6 1_555 1_555
C8 C7 1_555 1_555
C9 C8 1_555 1_555
C10 C5 1_555 1_555
C11 P1 1_555 1_555
C12 C11 1_555 1_555
C13 C12 1_555 1_555
C14 C13 1_555 1_555
C15 C14 1_555 1_555
C16 C11 1_555 1_555
C17 P2 1_555 1_555
C18 C17 1_555 1_555
C19 C18 1_555 1_555
C20 C19 1_555 1_555
C21 C20 1_555 1_555
C22 C17 1_555 1_555
C23 P2 1_555 1_555
C24 C23 1_555 1_555
C25 C24 1_555 1_555
C26 C25 1_555 1_555
C27 C26 1_555 1_555
C28 C23 1_555 1_555
H1 C1 1_555 1_555
H2 C1 1_555 1_555
H3 C3 1_555 1_555
H4 C3 1_555 1_555
H5 N1 1_555 1_555
H6 N1 1_555 1_555
H7 N2 1_555 1_555
H8 N2 1_555 1_555
H9 C6 1_555 1_555
H10 C7 1_555 1_555
H11 C8 1_555 1_555
H12 C9 1_555 1_555
H13 C10 1_555 1_555
H14 C12 1_555 1_555
H15 C13 1_555 1_555
H16 C14 1_555 1_555
H17 C15 1_555 1_555
H18 C16 1_555 1_555
H19 C18 1_555 1_555
H20 C19 1_555 1_555
H21 C20 1_555 1_555
H22 C21 1_555 1_555
H23 C22 1_555 1_555
H24 C24 1_555 1_555
H25 C25 1_555 1_555
H26 C26 1_555 1_555
H27 C27 1_555 1_555
H28 C28 1_555 1_555
O1_2 Ag1_2 1_555 1_555
Ag2 O8 1_555 1_555
N3 O4 1_555 1_555
N4 O7 1_555 1_555
N4 O8 1_555 1_555
C3 C4 1_555 1_555
C9 C10 1_555 1_555
C15 C16 1_555 1_555
C21 C22 1_555 1_555
C27 C28 1_555 1_555

#END
