
#######################################################################
#
#                 Cambridge Crystallographic Data Centre
#                                CCDC 
#
#######################################################################
#
# If this CIF has been generated from an entry in the Cambridge 
# Structural Database, then it will include bibliographic, chemical, 
# crystal, experimental, refinement or atomic coordinate data resulting 
# from the CCDC's data processing and validation procedures.
#
#######################################################################

data_REZKUD
_symmetry_cell_setting           triclinic
_symmetry_space_group_name_H-M   'P -1'
_symmetry_Int_Tables_number      2
_space_group_name_Hall           '-P 1'
loop_
_symmetry_equiv_pos_site_id
_symmetry_equiv_pos_as_xyz
1 x,y,z
2 -x,-y,-z
_cell_length_a                   5.9785(3)
_cell_length_b                   10.1376(5)
_cell_length_c                   11.1811(5)
_cell_angle_alpha                104.3400(5)
_cell_angle_beta                 99.9260(5)
_cell_angle_gamma                105.2930(5)
_cell_volume                     612.47
loop_
_atom_site_label
_atom_site_type_symbol
_atom_site_fract_x
_atom_site_fract_y
_atom_site_fract_z
N1 N 0.8166(6) 0.3078(4) 0.4318(2)
Y1 Y 0.64874(4) 0.69151(3) 0.93921(2)
O1 O 0.6450(4) 0.5797(3) 0.7178(2)
O2 O 0.3979(4) 0.7273(3) 1.0725(2)
H1 H 0.4272 0.8029 1.1345
H2 H 0.2966 0.6641 1.0909
O3 O 0.8478(4) 0.5210(2) 0.86906(19)
O4 O 0.3918(5) 0.7714(3) 0.8168(2)
H3 H 0.2684 0.7847 0.8389
H4 H 0.3227 0.7272 0.7384
O6 O 1.3356(4) 0.4774(3) 0.8838(2)
O8 O 1.0782(4) 0.2715(3) 0.8653(2)
O9 O 0.9956(4) 0.8355(3) 0.9014(2)
C1 C 0.7779(5) 0.5111(4) 0.7525(3)
C2 C 0.8570(6) 0.4166(4) 0.6544(3)
C3 C 0.7531(6) 0.3869(4) 0.5261(3)
H7 H 0.6314 0.4244 0.5043
C4 C 0.9912(7) 0.2532(5) 0.4643(3)
H8 H 1.0394 0.1988 0.3999
C5 C 1.1024(7) 0.2746(5) 0.5900(3)
H9 H 1.2219 0.2345 0.6091
C6 C 1.0344(5) 0.3560(4) 0.6869(3)
C7 C 1.1545(5) 0.3722(4) 0.8220(3)
C8 C 1.0724(5) 0.9700(3) 0.9563(3)
O10 O 1.2548(4) 1.0574(3) 0.9471(2)
N1_2 N -0.1834(6) 0.3078(4) 0.4318(2)
Y1_2 Y -0.35126(4) 0.69151(3) 0.93921(2)
Y1_3 Y 1.64874(4) 0.69151(3) 0.93921(2)
Y1A Y 1.35126(4) 0.30849(3) 1.06079(2)
Y1A_2 Y 1.35126(4) 1.30849(3) 1.06079(2)
Y1A_3 Y 0.35126(4) 0.30849(3) 1.06079(2)
O1_2 O -0.3550(4) 0.5797(3) 0.7178(2)
O2_2 O -0.6021(4) 0.7273(3) 1.0725(2)
H1_2 H -0.5728 0.8029 1.1345
H2_2 H -0.7034 0.6641 1.0909
O3_2 O -0.1522(4) 0.5210(2) 0.86906(19)
O4_2 O -0.6082(5) 0.7714(3) 0.8168(2)
H3_2 H -0.7316 0.7847 0.8389
H4_2 H -0.6773 0.7272 0.7384
O6_2 O 0.3356(4) 0.4774(3) 0.8838(2)
O6_3 O -0.6644(4) 0.4774(3) 0.8838(2)
O8_2 O 0.0782(4) 0.2715(3) 0.8653(2)
O8A O 0.9218(4) 0.7285(3) 1.1347(2)
O8A_2 O -0.0782(4) 0.7285(3) 1.1347(2)
O9A O 1.0044(4) 1.1645(3) 1.0986(2)
O9_2 O -0.0044(4) 0.8355(3) 0.9014(2)
C1_2 C -0.2221(5) 0.5111(4) 0.7525(3)
C2_2 C -0.1430(6) 0.4166(4) 0.6544(3)
C3_2 C -0.2469(6) 0.3869(4) 0.5261(3)
H7_2 H -0.3686 0.4244 0.5043
C4_2 C -0.0088(7) 0.2532(5) 0.4643(3)
H8_2 H 0.0394 0.1988 0.3999
C5_2 C 0.1024(7) 0.2746(5) 0.5900(3)
H9_2 H 0.2219 0.2345 0.6091
C6_2 C 0.0344(5) 0.3560(4) 0.6869(3)
C7_2 C 0.1545(5) 0.3722(4) 0.8220(3)
C8A C 0.9276(5) 1.0300(3) 1.0437(3)
O10A O 0.7452(4) 0.9426(3) 1.0529(2)
O10A_2 O -0.2548(4) 0.9426(3) 1.0529(2)
O5 O 0.3668(9) -0.0370(5) 0.2501(4)
H5 H 0.2806 0.0025 0.2899
H6 H 0.4059 0.0359 0.2242
O7 O 0.600(3) -0.0389(18) 0.4868(15)
loop_
_geom_bond_atom_site_label_1
_geom_bond_atom_site_label_2
_geom_bond_site_symmetry_1
_geom_bond_site_symmetry_2
N1 C3 1_555 1_555
Y1 O1 1_555 1_555
O1 C1 1_555 1_555
O2 Y1 1_555 1_555
H1 O2 1_555 1_555
H2 O2 1_555 1_555
O3 Y1 1_555 1_555
O4 Y1 1_555 1_555
H3 O4 1_555 1_555
H4 O4 1_555 1_555
O5 H5 1_555 1_555
H6 O5 1_555 1_555
O6 C7 1_555 1_555
O8 C7 1_555 1_555
O9 Y1 1_555 1_555
C1 O3 1_555 1_555
C2 C1 1_555 1_555
C3 C2 1_555 1_555
H7 C3 1_555 1_555
C4 N1 1_555 1_555
H8 C4 1_555 1_555
C5 C4 1_555 1_555
H9 C5 1_555 1_555
C6 C2 1_555 1_555
C7 C6 1_555 1_555
C8 O9 1_555 1_555
O10 C8 1_555 1_555
N1_2 C3_2 1_555 1_555
Y1_2 O1_2 1_555 1_555
Y1_3 O6 1_555 1_555
Y1A O8 1_555 1_555
Y1A_2 O10 1_555 1_555
Y1A_3 O8_2 1_555 1_555
O1_2 C1_2 1_555 1_555
O2_2 Y1_2 1_555 1_555
H1_2 O2_2 1_555 1_555
H2_2 O2_2 1_555 1_555
O3_2 Y1_2 1_555 1_555
O4_2 Y1_2 1_555 1_555
H3_2 O4_2 1_555 1_555
H4_2 O4_2 1_555 1_555
O6_2 Y1 1_555 1_555
O6_3 Y1_2 1_555 1_555
O8_2 C7_2 1_555 1_555
O8A Y1 1_555 1_555
O8A_2 Y1_2 1_555 1_555
O9A Y1A_2 1_555 1_555
O9_2 Y1_2 1_555 1_555
C1_2 O3_2 1_555 1_555
C2_2 C1_2 1_555 1_555
C3_2 C2_2 1_555 1_555
H7_2 C3_2 1_555 1_555
C4_2 N1_2 1_555 1_555
H8_2 C4_2 1_555 1_555
C5_2 C4_2 1_555 1_555
H9_2 C5_2 1_555 1_555
C6_2 C2_2 1_555 1_555
C7_2 O6_2 1_555 1_555
C8A C8 1_555 1_555
O10A Y1 1_555 1_555
O10A_2 Y1_2 1_555 1_555
C5 C6 1_555 1_555
O9A C8A 1_555 1_555
C5_2 C6_2 1_555 1_555
C6_2 C7_2 1_555 1_555
C8A O10A 1_555 1_555

#END
