
#######################################################################
#
#                 Cambridge Crystallographic Data Centre
#                                CCDC 
#
#######################################################################
#
# If this CIF has been generated from an entry in the Cambridge 
# Structural Database, then it will include bibliographic, chemical, 
# crystal, experimental, refinement or atomic coordinate data resulting 
# from the CCDC's data processing and validation procedures.
#
#######################################################################

data_REZLUF
_symmetry_cell_setting           tetragonal
_symmetry_space_group_name_H-M   'P -4 21 c'
_symmetry_Int_Tables_number      114
_space_group_name_Hall           'P -4 2n'
loop_
_symmetry_equiv_pos_site_id
_symmetry_equiv_pos_as_xyz
1 x,y,z
2 -x,-y,z
3 y,-x,-z
4 -y,x,-z
5 1/2-x,1/2+y,1/2-z
6 1/2+x,1/2-y,1/2-z
7 1/2-y,1/2-x,1/2+z
8 1/2+y,1/2+x,1/2+z
_cell_length_a                   12.2905(14)
_cell_length_b                   12.2905(14)
_cell_length_c                   16.133(4)
_cell_angle_alpha                90
_cell_angle_beta                 90
_cell_angle_gamma                90
_cell_volume                     2436.99
loop_
_atom_site_label
_atom_site_type_symbol
_atom_site_fract_x
_atom_site_fract_y
_atom_site_fract_z
Zn1 Zn 0.5000 1.0000 0.85678(2)
Cl1 Cl 0.34442(8) 0.97835(7) 0.92316(6)
O1 O 0.54728(13) 0.62201(13) 0.60884(9)
N1 N 0.51928(16) 0.87304(14) 0.77596(11)
C1 C 0.6057(2) 0.8061(2) 0.77321(17)
H1 H 0.6623 0.8177 0.8105
C2 C 0.61440(19) 0.7234(2) 0.71932(17)
H2 H 0.6750 0.6782 0.7205
C3 C 0.53285(18) 0.70591(18) 0.66208(14)
C4 C 0.44309(19) 0.7715(2) 0.66406(16)
H3 H 0.3857 0.7603 0.6274
C5 C 0.43936(18) 0.8540(2) 0.72117(17)
H4 H 0.3785 0.8989 0.7220
C6 C 0.46106(17) 0.59462(17) 0.55325(13)
H5 H 0.4431 0.6566 0.5186
H6 H 0.3966 0.5739 0.5841
C7 C 0.5000 0.5000 0.5000
O1A O 0.45272(13) 0.37799(13) 0.60884(9)
N1A N 0.48072(16) 0.12696(14) 0.77596(11)
C1A C 0.3943(2) 0.1939(2) 0.77321(17)
H1A H 0.3377 0.1823 0.8105
C2A C 0.38560(19) 0.2766(2) 0.71932(17)
H2A H 0.3250 0.3218 0.7205
C3A C 0.46715(18) 0.29409(18) 0.66208(14)
C4A C 0.55691(19) 0.2285(2) 0.66406(16)
H3A H 0.6143 0.2397 0.6274
C5A C 0.56064(18) 0.1460(2) 0.72117(17)
H4A H 0.6215 0.1011 0.7220
C6A C 0.53894(17) 0.40538(17) 0.55325(13)
H5A H 0.5569 0.3434 0.5186
H6A H 0.6034 0.4261 0.5841
O1B O 0.62201(13) 0.45272(13) 0.39116(9)
N1B N 0.87304(14) 0.48072(16) 0.22404(11)
C1B C 0.8061(2) 0.3943(2) 0.22679(17)
H1B H 0.8177 0.3377 0.1895
C2B C 0.7234(2) 0.38560(19) 0.28068(17)
H2B H 0.6782 0.3250 0.2795
C3B C 0.70591(18) 0.46715(18) 0.33792(14)
C4B C 0.7715(2) 0.55691(19) 0.33594(16)
H3B H 0.7603 0.6143 0.3726
C5B C 0.8540(2) 0.56064(18) 0.27883(17)
H4B H 0.8989 0.6215 0.2780
C6B C 0.59462(17) 0.53894(17) 0.44675(13)
H5B H 0.6566 0.5569 0.4814
H6B H 0.5739 0.6034 0.4159
O1C O 0.37799(13) 0.54728(13) 0.39116(9)
N1C N 0.12696(14) 0.51928(16) 0.22404(11)
C1C C 0.1939(2) 0.6057(2) 0.22679(17)
H1C H 0.1823 0.6623 0.1895
C2C C 0.2766(2) 0.61440(19) 0.28068(17)
H2C H 0.3218 0.6750 0.2795
C3C C 0.29409(18) 0.53285(18) 0.33792(14)
C4C C 0.2285(2) 0.44309(19) 0.33594(16)
H3C H 0.2397 0.3857 0.3726
C5C C 0.1460(2) 0.43936(18) 0.27883(17)
H4C H 0.1011 0.3785 0.2780
C6C C 0.40538(17) 0.46106(17) 0.44675(13)
H5C H 0.3434 0.4431 0.4814
H6C H 0.4261 0.3966 0.4159
Zn1B Zn 0.0000 0.5000 0.14322(2)
Cl1B Cl -0.02165(7) 0.65558(8) 0.07684(6)
Cl1A Cl 0.65558(8) 1.02165(7) 0.92316(6)
Cl1C Cl 0.02165(7) 0.34442(8) 0.07684(6)
Zn1_2 Zn 0.5000 0.0000 0.85678(2)
Zn1B_2 Zn 1.0000 0.5000 0.14322(2)
N1A_2 N 0.48072(16) 1.12696(14) 0.77596(11)
N1B_2 N -0.12696(14) 0.48072(16) 0.22404(11)
O2 O 0.7769(3) 1.0492(4) 0.6489(3)
N2 N 0.7964(2) 0.8929(2) 0.5793(2)
C8 C 0.8988(5) 0.8688(6) 0.6135(3)
H7 H 0.9539 0.8772 0.5718
H8 H 0.8991 0.7952 0.6334
H9 H 0.9134 0.9175 0.6587
C9 C 0.7535(4) 0.8170(4) 0.5198(4)
H10 H 0.7640 0.7441 0.5397
H11 H 0.7907 0.8259 0.4679
H12 H 0.6772 0.8303 0.5121
C10 C 0.7416(4) 0.9791(6) 0.5987(3)
H13 H 0.6737 0.9897 0.5746
loop_
_geom_bond_atom_site_label_1
_geom_bond_atom_site_label_2
_geom_bond_site_symmetry_1
_geom_bond_site_symmetry_2
Zn1 Cl1 1_555 1_555
O1 C3 1_555 1_555
N1 Zn1 1_555 1_555
C1 N1 1_555 1_555
H1 C1 1_555 1_555
C2 C1 1_555 1_555
H2 C2 1_555 1_555
C3 C2 1_555 1_555
C4 C3 1_555 1_555
H3 C4 1_555 1_555
C5 N1 1_555 1_555
H4 C5 1_555 1_555
C6 O1 1_555 1_555
H5 C6 1_555 1_555
H6 C6 1_555 1_555
C7 C6 1_555 1_555
O2 C10 1_555 1_555
N2 C8 1_555 1_555
C8 H7 1_555 1_555
H8 C8 1_555 1_555
H9 C8 1_555 1_555
C9 N2 1_555 1_555
H10 C9 1_555 1_555
H11 C9 1_555 1_555
H12 C9 1_555 1_555
C10 N2 1_555 1_555
H13 C10 1_555 1_555
O1A C3A 1_555 1_555
N1A C1A 1_555 1_555
C1A H1A 1_555 1_555
C2A C1A 1_555 1_555
H2A C2A 1_555 1_555
C3A C2A 1_555 1_555
C4A C3A 1_555 1_555
H3A C4A 1_555 1_555
C5A N1A 1_555 1_555
H4A C5A 1_555 1_555
C6A C7 1_555 1_555
H5A C6A 1_555 1_555
H6A C6A 1_555 1_555
O1B C3B 1_555 1_555
N1B C1B 1_555 1_555
C1B H1B 1_555 1_555
C2B C1B 1_555 1_555
H2B C2B 1_555 1_555
C3B C2B 1_555 1_555
C4B C3B 1_555 1_555
H3B C4B 1_555 1_555
C5B N1B 1_555 1_555
H4B C5B 1_555 1_555
C6B C7 1_555 1_555
H5B C6B 1_555 1_555
H6B C6B 1_555 1_555
O1C C3C 1_555 1_555
N1C C1C 1_555 1_555
C1C H1C 1_555 1_555
C2C C1C 1_555 1_555
H2C C2C 1_555 1_555
C3C C2C 1_555 1_555
C4C C3C 1_555 1_555
H3C C4C 1_555 1_555
C5C N1C 1_555 1_555
H4C C5C 1_555 1_555
C6C C7 1_555 1_555
H5C C6C 1_555 1_555
H6C C6C 1_555 1_555
Zn1B N1C 1_555 1_555
Cl1B Zn1B 1_555 1_555
Cl1A Zn1 1_555 1_555
Cl1C Zn1B 1_555 1_555
Zn1_2 N1A 1_555 1_555
Zn1B_2 N1B 1_555 1_555
N1A_2 Zn1 1_555 1_555
N1B_2 Zn1B 1_555 1_555
C4 C5 1_555 1_555
O1A C6A 1_555 1_555
C4A C5A 1_555 1_555
O1B C6B 1_555 1_555
C4B C5B 1_555 1_555
O1C C6C 1_555 1_555
C4C C5C 1_555 1_555

#END
