
#######################################################################
#
#                 Cambridge Crystallographic Data Centre
#                                CCDC 
#
#######################################################################
#
# If this CIF has been generated from an entry in the Cambridge 
# Structural Database, then it will include bibliographic, chemical, 
# crystal, experimental, refinement or atomic coordinate data resulting 
# from the CCDC's data processing and validation procedures.
#
#######################################################################

data_REZSAR
_symmetry_cell_setting           triclinic
_symmetry_space_group_name_H-M   'P -1'
_symmetry_Int_Tables_number      2
_space_group_name_Hall           '-P 1'
loop_
_symmetry_equiv_pos_site_id
_symmetry_equiv_pos_as_xyz
1 x,y,z
2 -x,-y,-z
_cell_length_a                   9.9620(13)
_cell_length_b                   10.1592(13)
_cell_length_c                   13.7049(17)
_cell_angle_alpha                100.607(2)
_cell_angle_beta                 107.197(2)
_cell_angle_gamma                102.838(2)
_cell_volume                     1244.57
loop_
_atom_site_label
_atom_site_type_symbol
_atom_site_fract_x
_atom_site_fract_y
_atom_site_fract_z
Cu1 Cu 0.42651(11) 0.13624(11) 0.03034(8)
Mo1 Mo 0.42714(8) 0.40068(8) 0.27634(5)
Mo2 Mo 0.31406(8) 0.47056(7) 0.49784(5)
Mo3 Mo 0.42297(8) 0.19768(8) 0.45350(6)
Mo4 Mo 0.30653(8) 0.67085(8) 0.31835(6)
O1 O 0.5343(6) 0.0341(6) 0.1130(4)
O2 O 0.3216(6) 0.2410(6) -0.0491(5)
O3 O 0.5479(6) 0.4936(6) 0.2315(4)
O4 O 0.3051(6) 0.3141(5) 0.3881(4)
O5 O 0.3585(6) 0.2381(6) 0.1884(4)
O6 O 0.2691(6) 0.4784(6) 0.2415(4)
O7 O 0.5721(6) 0.3578(6) 0.3931(4)
O8 O 0.3925(6) 0.0723(6) 0.3435(4)
O9 O 0.2027(6) 0.3864(6) 0.5547(4)
O10 O 0.2021(6) 0.5445(6) 0.4146(4)
O11 O 0.3074(6) 0.1244(6) 0.5128(4)
O12 O 0.6084(6) 0.1991(6) 0.5428(4)
O13 O 0.4184(7) 0.7472(6) 0.2576(5)
O14 O 0.4879(6) 0.5801(6) 0.4271(4)
O15 O 0.1447(7) 0.7040(6) 0.2682(5)
N1 N 0.2337(8) -0.0098(7) -0.0080(5)
N2 N 0.1295(8) 0.1988(8) -0.3212(6)
H1 H 0.161(8) 0.248(7) -0.362(5)
N3 N 0.6166(8) 0.2841(7) 0.0642(6)
N4 N 0.7357(8) 0.0963(8) 0.3858(6)
H2 H 0.748(9) 0.060(8) 0.441(4)
C1 C 0.2229(9) -0.0815(9) 0.0651(7)
H3 H 0.3070 -0.0650 0.1263
C2 C 0.0918(9) -0.1785(9) 0.0529(7)
H4 H 0.0856 -0.2252 0.1062
C3 C -0.0297(9) -0.2061(9) -0.0384(6)
H5 H -0.1195 -0.2730 -0.0488
C4 C -0.0183(9) -0.1349(9) -0.1138(7)
H6 H -0.1002 -0.1537 -0.1768
C5 C 0.1125(9) -0.0363(9) -0.0973(7)
C6 C 0.1216(10) 0.0481(10) -0.1743(7)
C7 C 0.2257(10) 0.1780(10) -0.1425(7)
C8 C 0.2260(10) 0.2533(10) -0.2218(7)
H7 H 0.2954 0.3429 -0.2034
C9 C 0.0224(10) -0.0015(10) -0.2775(7)
H8 H -0.0494 -0.0903 -0.2987
C10 C 0.0265(10) 0.0763(9) -0.3499(7)
H9 H -0.0439 0.0425 -0.4198
C11 C 0.6258(10) 0.3562(9) -0.0102(7)
H10 H 0.5408 0.3370 -0.0712
C12 C 0.7493(9) 0.4530(9) -0.0010(7)
H11 H 0.7495 0.4997 -0.0550
C13 C 0.8757(10) 0.4843(9) 0.0865(7)
H12 H 0.9632 0.5528 0.0942
C14 C 0.8701(10) 0.4119(9) 0.1630(7)
H13 H 0.9551 0.4298 0.2237
C15 C 0.7407(10) 0.3137(9) 0.1506(7)
C16 C 0.7361(9) 0.2353(9) 0.2327(7)
C17 C 0.6336(9) 0.1020(9) 0.2060(7)
C18 C 0.6394(9) 0.0348(9) 0.2880(6)
H14 H 0.5736 -0.0558 0.2730
C19 C 0.8346(9) 0.2946(9) 0.3366(6)
H15 H 0.9030 0.3848 0.3550
C20 C 0.8331(9) 0.2224(9) 0.4130(7)
H16 H 0.9004 0.2621 0.4837
Cu1A Cu 0.57349(11) -0.13624(11) -0.03034(8)
Cu1A_2 Cu 0.57349(11) 0.86376(11) 0.96966(8)
Cu1_2 Cu 0.42651(11) 1.13624(11) 1.03034(8)
Mo1A Mo 0.57286(8) 0.59932(8) 0.72366(5)
Mo2A Mo 0.68594(8) 0.52944(7) 0.50216(5)
Mo3A Mo 0.57703(8) 0.80232(8) 0.54650(6)
Mo4A Mo 0.69347(8) 0.32915(8) 0.68165(6)
O1A O 0.4657(6) -0.0341(6) -0.1130(4)
O1_2 O 0.5343(6) 1.0341(6) 1.1130(4)
O1A_2 O 0.4657(6) 0.9659(6) 0.8870(4)
O2A O 0.6784(6) 0.7590(6) 1.0491(5)
O3A O 0.4521(6) 0.5064(6) 0.7685(4)
O4A O 0.6949(6) 0.6859(5) 0.6119(4)
O5A O 0.6415(6) 0.7619(6) 0.8116(4)
O6A O 0.7309(6) 0.5216(6) 0.7585(4)
O7A O 0.4279(6) 0.6422(6) 0.6069(4)
O8A O 0.6075(6) 0.9277(6) 0.6565(4)
O9A O 0.7973(6) 0.6136(6) 0.4453(4)
O10A O 0.7979(6) 0.4555(6) 0.5854(4)
O11A O 0.6926(6) 0.8756(6) 0.4872(4)
O12A O 0.3916(6) 0.8009(6) 0.4572(4)
O13A O 0.5816(7) 0.2528(6) 0.7424(5)
O14A O 0.5121(6) 0.4199(6) 0.5729(4)
O15A O 0.8553(7) 0.2960(6) 0.7318(5)
N1A N 0.7663(8) 1.0098(7) 1.0080(5)
N2A N 0.8705(8) 0.8012(8) 1.3212(6)
H1A H 0.839(8) 0.752(7) 1.362(5)
N3A N 0.3834(8) 0.7159(7) 0.9358(6)
N4A N 0.2643(8) 0.9037(8) 0.6142(6)
H2A H 0.252(9) 0.940(8) 0.559(4)
C1A C 0.7771(9) 1.0815(9) 0.9349(7)
H3A H 0.6930 1.0650 0.8737
C2A C 0.9082(9) 1.1785(9) 0.9471(7)
H4A H 0.9144 1.2252 0.8938
C3A C 1.0297(9) 1.2061(9) 1.0384(6)
H5A H 1.1195 1.2730 1.0488
C4A C 1.0183(9) 1.1349(9) 1.1138(7)
H6A H 1.1002 1.1537 1.1768
C5A C 0.8875(9) 1.0363(9) 1.0973(7)
C6A C 0.8784(10) 0.9519(10) 1.1743(7)
C7A C 0.7743(10) 0.8220(10) 1.1425(7)
C8A C 0.7740(10) 0.7467(10) 1.2218(7)
H7A H 0.7046 0.6571 1.2034
C9A C 0.9776(10) 1.0015(10) 1.2775(7)
H8A H 1.0494 1.0903 1.2987
C10A C 0.9735(10) 0.9237(9) 1.3499(7)
H9A H 1.0439 0.9575 1.4198
C11A C 0.3742(10) 0.6438(9) 1.0102(7)
H10A H 0.4592 0.6630 1.0712
C12A C 0.2507(9) 0.5470(9) 1.0010(7)
H11A H 0.2505 0.5003 1.0550
C13A C 0.1243(10) 0.5157(9) 0.9135(7)
H12A H 0.0368 0.4472 0.9058
C14A C 0.1299(10) 0.5881(9) 0.8370(7)
H13A H 0.0449 0.5702 0.7763
C15A C 0.2593(10) 0.6863(9) 0.8494(7)
C16A C 0.2639(9) 0.7647(9) 0.7673(7)
C17A C 0.3664(9) 0.8980(9) 0.7940(7)
C18A C 0.3606(9) 0.9652(9) 0.7120(6)
H14A H 0.4264 1.0558 0.7270
C19A C 0.1654(9) 0.7054(9) 0.6634(6)
H15A H 0.0970 0.6152 0.6450
C20A C 0.1669(9) 0.7776(9) 0.5870(7)
H16A H 0.0996 0.7379 0.5163
loop_
_geom_bond_atom_site_label_1
_geom_bond_atom_site_label_2
_geom_bond_site_symmetry_1
_geom_bond_site_symmetry_2
Cu1 O1 1_555 1_555
Mo1 O3 1_555 1_555
Mo2 O4 1_555 1_555
Mo3 O4 1_555 1_555
Mo4 O6 1_555 1_555
O1 C17 1_555 1_555
O2 Cu1 1_555 1_555
O4 Mo1 1_555 1_555
O5 Cu1 1_555 1_555
O6 Mo1 1_555 1_555
O7 Mo1 1_555 1_555
O8 Mo3 1_555 1_555
O9 Mo2 1_555 1_555
O10 Mo2 1_555 1_555
O11 Mo3 1_555 1_555
O12 Mo3 1_555 1_555
O13 Mo4 1_555 1_555
O14 Mo1 1_555 1_555
O15 Mo4 1_555 1_555
N1 Cu1 1_555 1_555
N2 H1 1_555 1_555
N3 Cu1 1_555 1_555
N4 H2 1_555 1_555
C1 N1 1_555 1_555
H3 C1 1_555 1_555
C2 C1 1_555 1_555
H4 C2 1_555 1_555
C3 C2 1_555 1_555
H5 C3 1_555 1_555
C4 C3 1_555 1_555
H6 C4 1_555 1_555
C5 N1 1_555 1_555
C6 C5 1_555 1_555
C7 O2 1_555 1_555
C8 N2 1_555 1_555
H7 C8 1_555 1_555
C9 C6 1_555 1_555
H8 C9 1_555 1_555
C10 N2 1_555 1_555
H9 C10 1_555 1_555
C11 N3 1_555 1_555
H10 C11 1_555 1_555
C12 C11 1_555 1_555
H11 C12 1_555 1_555
C13 C12 1_555 1_555
H12 C13 1_555 1_555
C14 C13 1_555 1_555
H13 C14 1_555 1_555
C15 N3 1_555 1_555
C16 C15 1_555 1_555
C17 C16 1_555 1_555
C18 N4 1_555 1_555
H14 C18 1_555 1_555
C19 C16 1_555 1_555
H15 C19 1_555 1_555
C20 N4 1_555 1_555
H16 C20 1_555 1_555
Cu1A O1 1_555 1_555
Cu1A_2 O1_2 1_555 1_555
Cu1_2 O1_2 1_555 1_555
Mo1A O3A 1_555 1_555
Mo2A O7 1_555 1_555
Mo3A O14 1_555 1_555
Mo4A O12 1_555 1_555
O1A Cu1 1_555 1_555
O1A_2 Cu1A_2 1_555 1_555
O2A Cu1A_2 1_555 1_555
O4A Mo1A 1_555 1_555
O5A Cu1A_2 1_555 1_555
O6A Mo1A 1_555 1_555
O7A Mo2 1_555 1_555
O8A Mo3A 1_555 1_555
O9A Mo2A 1_555 1_555
O10A Mo2A 1_555 1_555
O11A Mo3A 1_555 1_555
O12A Mo4 1_555 1_555
O13A Mo4A 1_555 1_555
O14A Mo2 1_555 1_555
O15A Mo4A 1_555 1_555
N1A Cu1A_2 1_555 1_555
N2A H1A 1_555 1_555
N3A Cu1A_2 1_555 1_555
N4A H2A 1_555 1_555
C1A N1A 1_555 1_555
H3A C1A 1_555 1_555
C2A C1A 1_555 1_555
H4A C2A 1_555 1_555
C3A C2A 1_555 1_555
H5A C3A 1_555 1_555
C4A C3A 1_555 1_555
H6A C4A 1_555 1_555
C5A N1A 1_555 1_555
C6A C5A 1_555 1_555
C7A O2A 1_555 1_555
C8A N2A 1_555 1_555
H7A C8A 1_555 1_555
C9A C6A 1_555 1_555
H8A C9A 1_555 1_555
C10A N2A 1_555 1_555
H9A C10A 1_555 1_555
C11A N3A 1_555 1_555
H10A C11A 1_555 1_555
C12A C11A 1_555 1_555
H11A C12A 1_555 1_555
C13A C12A 1_555 1_555
H12A C13A 1_555 1_555
C14A C13A 1_555 1_555
H13A C14A 1_555 1_555
C15A N3A 1_555 1_555
C16A C15A 1_555 1_555
C17A O1A_2 1_555 1_555
C18A N4A 1_555 1_555
H14A C18A 1_555 1_555
C19A C16A 1_555 1_555
H15A C19A 1_555 1_555
C20A N4A 1_555 1_555
H16A C20A 1_555 1_555
Mo1 O5 1_555 1_555
Mo2 O14 1_555 1_555
Mo3 O7 1_555 1_555
Mo3 O14A 1_555 1_555
Mo4 O10 1_555 1_555
Mo4 O14 1_555 1_555
O14 Mo2A 1_555 1_555
C4 C5 1_555 1_555
C6 C7 1_555 1_555
C7 C8 1_555 1_555
C9 C10 1_555 1_555
C14 C15 1_555 1_555
C17 C18 1_555 1_555
C19 C20 1_555 1_555
Cu1A O1A 1_555 1_555
Cu1_2 O1A_2 1_555 1_555
Mo1A O5A 1_555 1_555
Mo1A O7A 1_555 1_555
Mo1A O14A 1_555 1_555
Mo2A O4A 1_555 1_555
Mo2A O14A 1_555 1_555
Mo3A O4A 1_555 1_555
Mo3A O7A 1_555 1_555
Mo3A O12A 1_555 1_555
Mo4A O6A 1_555 1_555
Mo4A O10A 1_555 1_555
Mo4A O14A 1_555 1_555
C4A C5A 1_555 1_555
C6A C7A 1_555 1_555
C7A C8A 1_555 1_555
C9A C10A 1_555 1_555
C14A C15A 1_555 1_555
C16A C17A 1_555 1_555
C17A C18A 1_555 1_555
C19A C20A 1_555 1_555

#END
