
#######################################################################
#
#                 Cambridge Crystallographic Data Centre
#                                CCDC 
#
#######################################################################
#
# If this CIF has been generated from an entry in the Cambridge 
# Structural Database, then it will include bibliographic, chemical, 
# crystal, experimental, refinement or atomic coordinate data resulting 
# from the CCDC's data processing and validation procedures.
#
#######################################################################

data_REZVUP
_symmetry_cell_setting           monoclinic
_symmetry_space_group_name_H-M   'P 21/n'
_symmetry_Int_Tables_number      14
_space_group_name_Hall           '-P 2yn'
loop_
_symmetry_equiv_pos_site_id
_symmetry_equiv_pos_as_xyz
1 x,y,z
2 1/2-x,1/2+y,1/2-z
3 -x,-y,-z
4 1/2+x,1/2-y,1/2+z
_cell_length_a                   8.89548(8)
_cell_length_b                   9.60922(13)
_cell_length_c                   11.92740(12)
_cell_angle_alpha                90
_cell_angle_beta                 108.0589(6)
_cell_angle_gamma                90
_cell_volume                     969.314
loop_
_atom_site_label
_atom_site_type_symbol
_atom_site_fract_x
_atom_site_fract_y
_atom_site_fract_z
Ca1 Ca 0.0000 0.0000 0.50000
N1 N 0.1327(8) -0.4421(9) 0.6435(7)
C1 C 0.2253(13) -0.5636(10) 0.6367(11)
C2 C 0.3399(10) -0.5115(13) 0.5674(10)
C3 C 0.2748(14) -0.3850(13) 0.5147(12)
C4 C 0.1602(13) -0.3377(11) 0.5831(12)
C5 C 0.0310(8) -0.4362(12) 0.7236(9)
C6 C 0.1083(9) -0.3946(14) 0.8434(7)
N2 N 0.0214(11) -0.3573(13) 0.9090(8)
O1 O 0.0893(9) -0.2123(11) 0.5734(8)
O2 O 0.2486(10) -0.4049(12) 0.8814(8)
O3 O 0.1173(9) -0.0196(11) 0.3390(8)
N1B N -0.1327(8) 0.4421(9) 0.3565(7)
C1B C -0.2253(13) 0.5636(10) 0.3633(11)
C2B C -0.3399(10) 0.5115(13) 0.4326(10)
C3B C -0.2748(14) 0.3850(13) 0.4853(12)
C4B C -0.1602(13) 0.3377(11) 0.4169(12)
C5B C -0.0310(8) 0.4362(12) 0.2764(9)
C6B C -0.1083(9) 0.3946(14) 0.1566(7)
N2B N -0.0214(11) 0.3573(13) 0.0910(8)
O1B O -0.0893(9) 0.2123(11) 0.4266(8)
O2B O -0.2486(10) 0.4049(12) 0.1186(8)
O3B O -0.1173(9) 0.0196(11) 0.6610(8)
Ca1A Ca -0.5000 0.5000 0.00000
Ca1A_2 Ca 0.5000 -0.5000 1.00000
O2A O 0.2514(10) 0.0951(12) 0.6186(8)
O2C O -0.2514(10) -0.0951(12) 0.3814(8)
Cl1 Cl 0.3207(4) 0.2223(5) 0.29850(32)
loop_
_geom_bond_atom_site_label_1
_geom_bond_atom_site_label_2
_geom_bond_site_symmetry_1
_geom_bond_site_symmetry_2
Ca1 O1 1_555 1_555
N1 C1 1_555 1_555
C1 C2 1_555 1_555
C2 C3 1_555 1_555
C3 C4 1_555 1_555
C4 N1 1_555 1_555
C5 N1 1_555 1_555
C6 C5 1_555 1_555
N2 C6 1_555 1_555
O1 C4 1_555 1_555
O2 C6 1_555 1_555
O3 Ca1 1_555 1_555
N1B C1B 1_555 1_555
C1B C2B 1_555 1_555
C2B C3B 1_555 1_555
C3B C4B 1_555 1_555
C4B N1B 1_555 1_555
C5B N1B 1_555 1_555
C6B C5B 1_555 1_555
N2B C6B 1_555 1_555
O1B Ca1 1_555 1_555
O2B C6B 1_555 1_555
O3B Ca1 1_555 1_555
Ca1A O2B 1_555 1_555
Ca1A_2 O2 1_555 1_555
O2A Ca1 1_555 1_555
O2C Ca1 1_555 1_555
C4B O1B 1_555 1_555

#END
