
#######################################################################
#
#                 Cambridge Crystallographic Data Centre
#                                CCDC 
#
#######################################################################
#
# If this CIF has been generated from an entry in the Cambridge 
# Structural Database, then it will include bibliographic, chemical, 
# crystal, experimental, refinement or atomic coordinate data resulting 
# from the CCDC's data processing and validation procedures.
#
#######################################################################

data_REZVOJ
_symmetry_cell_setting           monoclinic
_symmetry_space_group_name_H-M   'P 21/n'
_symmetry_Int_Tables_number      14
_space_group_name_Hall           '-P 2yn'
loop_
_symmetry_equiv_pos_site_id
_symmetry_equiv_pos_as_xyz
1 x,y,z
2 1/2-x,1/2+y,1/2-z
3 -x,-y,-z
4 1/2+x,1/2-y,1/2+z
_cell_length_a                   8.9444(5)
_cell_length_b                   9.8519(4)
_cell_length_c                   11.8823(7)
_cell_angle_alpha                90
_cell_angle_beta                 106.520(7)
_cell_angle_gamma                90
_cell_volume                     1003.84
loop_
_atom_site_label
_atom_site_type_symbol
_atom_site_fract_x
_atom_site_fract_y
_atom_site_fract_z
O1 O 0.2531(2) -0.4016(2) 0.38433(17)
C1 C 0.1103(4) -0.3932(3) 0.3450(3)
N1 N 0.0209(4) -0.3536(4) 0.4082(4)
O2 O 0.1211(4) -0.0266(3) -0.1640(3)
H1 H 0.071(5) -0.346(4) 0.484(4)
H2 H -0.075(6) -0.341(5) 0.377(4)
H3 H 0.171(5) 0.038(4) -0.175(3)
H4 H 0.123(6) -0.106(5) -0.206(4)
Sr1 Sr 0.0000 0.0000 0.0000
O3 O 0.0966(3) -0.2229(2) 0.0787(2)
N2 N 0.1298(3) -0.4378(2) 0.1471(2)
C2 C 0.1604(4) -0.3351(3) 0.0851(2)
C3 C 0.0266(4) -0.4266(3) 0.2187(3)
H5 H -0.0291 -0.5116 0.2160
H6 H -0.0497 -0.3563 0.1870
C4 C 0.2188(4) -0.5608(3) 0.1405(3)
H7 H 0.1494 -0.6363 0.1102
H8 H 0.2864 -0.5848 0.2173
C5 C 0.2811(4) -0.3764(4) 0.0279(3)
H9 H 0.3753 -0.3232 0.0578
H10 H 0.2432 -0.3642 -0.0564
C6 C 0.3124(5) -0.5255(4) 0.0585(3)
H11 H 0.2808 -0.5810 -0.0117
H12 H 0.4226 -0.5403 0.0961
O1B O -0.2531(2) 0.4016(2) -0.38433(17)
C1B C -0.1103(4) 0.3932(3) -0.3450(3)
N1B N -0.0209(4) 0.3536(4) -0.4082(4)
O2B O -0.1211(4) 0.0266(3) 0.1640(3)
H1B H -0.071(5) 0.346(4) -0.484(4)
H2B H 0.075(6) 0.341(5) -0.377(4)
H3B H -0.171(5) -0.038(4) 0.175(3)
H4B H -0.123(6) 0.106(5) 0.206(4)
O3B O -0.0966(3) 0.2229(2) -0.0787(2)
N2B N -0.1298(3) 0.4378(2) -0.1471(2)
C2B C -0.1604(4) 0.3351(3) -0.0851(2)
C3B C -0.0266(4) 0.4266(3) -0.2187(3)
H5B H 0.0291 0.5116 -0.2160
H6B H 0.0497 0.3563 -0.1870
C4B C -0.2188(4) 0.5608(3) -0.1405(3)
H7B H -0.1494 0.6363 -0.1102
H8B H -0.2864 0.5848 -0.2173
C5B C -0.2811(4) 0.3764(4) -0.0279(3)
H9B H -0.3753 0.3232 -0.0578
H10B H -0.2432 0.3642 0.0564
C6B C -0.3124(5) 0.5255(4) -0.0585(3)
H11B H -0.2808 0.5810 0.0117
H12B H -0.4226 0.5403 -0.0961
O1A O 0.2469(2) 0.0984(2) 0.11567(17)
O1C O -0.2469(2) -0.0984(2) -0.11567(17)
Sr1A Sr -0.5000 0.5000 -0.5000
Sr1A_2 Sr 0.5000 -0.5000 0.5000
Cl1 Cl 0.32571(10) 0.21975(8) -0.19886(7)
loop_
_geom_bond_atom_site_label_1
_geom_bond_atom_site_label_2
_geom_bond_site_symmetry_1
_geom_bond_site_symmetry_2
O1 C1 1_555 1_555
C1 N1 1_555 1_555
N1 H1 1_555 1_555
O2 H3 1_555 1_555
H2 N1 1_555 1_555
H4 O2 1_555 1_555
Sr1 O2 1_555 1_555
O3 Sr1 1_555 1_555
N2 C2 1_555 1_555
C2 O3 1_555 1_555
C3 C1 1_555 1_555
H5 C3 1_555 1_555
H6 C3 1_555 1_555
C4 N2 1_555 1_555
H7 C4 1_555 1_555
H8 C4 1_555 1_555
C5 C2 1_555 1_555
H9 C5 1_555 1_555
H10 C5 1_555 1_555
C6 C4 1_555 1_555
H11 C6 1_555 1_555
H12 C6 1_555 1_555
O1B C1B 1_555 1_555
C1B N1B 1_555 1_555
N1B H1B 1_555 1_555
O2B Sr1 1_555 1_555
H2B N1B 1_555 1_555
H3B O2B 1_555 1_555
H4B O2B 1_555 1_555
O3B Sr1 1_555 1_555
N2B C2B 1_555 1_555
C2B O3B 1_555 1_555
C3B C1B 1_555 1_555
H5B C3B 1_555 1_555
H6B C3B 1_555 1_555
C4B N2B 1_555 1_555
H7B C4B 1_555 1_555
H8B C4B 1_555 1_555
C5B C2B 1_555 1_555
H9B C5B 1_555 1_555
H10B C5B 1_555 1_555
C6B C4B 1_555 1_555
H11B C6B 1_555 1_555
H12B C6B 1_555 1_555
O1A Sr1 1_555 1_555
O1C Sr1 1_555 1_555
Sr1A O1B 1_555 1_555
Sr1A_2 O1 1_555 1_555
N2 C3 1_555 1_555
C5 C6 1_555 1_555
N2B C3B 1_555 1_555
C5B C6B 1_555 1_555

#END
