
#######################################################################
#
#                 Cambridge Crystallographic Data Centre
#                                CCDC 
#
#######################################################################
#
# If this CIF has been generated from an entry in the Cambridge 
# Structural Database, then it will include bibliographic, chemical, 
# crystal, experimental, refinement or atomic coordinate data resulting 
# from the CCDC's data processing and validation procedures.
#
#######################################################################

data_REZWEA
_symmetry_cell_setting           triclinic
_symmetry_space_group_name_H-M   'P -1'
_symmetry_Int_Tables_number      2
_space_group_name_Hall           '-P 1'
loop_
_symmetry_equiv_pos_site_id
_symmetry_equiv_pos_as_xyz
1 x,y,z
2 -x,-y,-z
_cell_length_a                   9.68836(19)
_cell_length_b                   9.27808(12)
_cell_length_c                   6.19667(11)
_cell_angle_alpha                103.0355(16)
_cell_angle_beta                 98.5641(14)
_cell_angle_gamma                107.8581(17)
_cell_volume                     502.027
loop_
_atom_site_label
_atom_site_type_symbol
_atom_site_fract_x
_atom_site_fract_y
_atom_site_fract_z
Cl1 Cl 0.0399(5) 0.7948(4) 0.1160(6)
Cl2 Cl 0.4520(5) 0.8724(5) 0.2017(7)
Ca1 Ca 0.2769(5) 0.9309(4) 0.4911(7)
O1 O 0.1092(12) 0.9625(12) 0.7297(17)
C1 C 0.3371(15) 0.4858(15) 0.3177(22)
C2 C 0.2533(13) 0.4337(17) 0.4862(21)
C3 C 0.2392(13) 0.2872(17) 0.5158(17)
N1 N 0.2853(11) 0.1804(13) 0.3808(20)
C4 C 0.3479(13) 0.2232(15) 0.1961(21)
C5 C 0.2033(10) 0.5606(13) 0.6038(15)
C6 C 0.3818(14) 0.3771(16) 0.1707(18)
N2 N 0.1391(11) 0.5378(11) 0.7738(18)
O2 O 0.2456(9) 0.6893(12) 0.5698(16)
Cl2A Cl 0.5480(5) 1.1276(5) 0.7983(7)
Ca1_2 Ca 0.2769(5) -0.0691(4) 0.4911(7)
Ca1A Ca 0.7231(5) 1.0691(4) 0.5089(7)
N1_2 N 0.2853(11) 1.1804(13) 0.3808(20)
loop_
_geom_bond_atom_site_label_1
_geom_bond_atom_site_label_2
_geom_bond_site_symmetry_1
_geom_bond_site_symmetry_2
Cl1 Ca1 1_555 1_555
Cl2 Ca1 1_555 1_555
Ca1 O1 1_555 1_555
C1 C2 1_555 1_555
C2 C3 1_555 1_555
C3 N1 1_555 1_555
N1 C4 1_555 1_555
C4 C6 1_555 1_555
C5 C2 1_555 1_555
C6 C1 1_555 1_555
N2 C5 1_555 1_555
O2 Ca1 1_555 1_555
Cl2A Ca1 1_555 1_555
Ca1_2 N1 1_555 1_555
Ca1A Cl2 1_555 1_555
N1_2 Ca1 1_555 1_555
C5 O2 1_555 1_555
Cl2A Ca1A 1_555 1_555

#END
