
#######################################################################
#
#                 Cambridge Crystallographic Data Centre
#                                CCDC 
#
#######################################################################
#
# If this CIF has been generated from an entry in the Cambridge 
# Structural Database, then it will include bibliographic, chemical, 
# crystal, experimental, refinement or atomic coordinate data resulting 
# from the CCDC's data processing and validation procedures.
#
#######################################################################

data_REZWUP
_symmetry_cell_setting           monoclinic
_symmetry_space_group_name_H-M   'C 2/c'
_symmetry_Int_Tables_number      15
_space_group_name_Hall           '-C 2yn'
loop_
_symmetry_equiv_pos_site_id
_symmetry_equiv_pos_as_xyz
1 x,y,z
2 1/2+x,1/2+y,z
3 -x,y,1/2-z
4 1/2-x,1/2+y,1/2-z
5 -x,-y,-z
6 1/2-x,1/2-y,-z
7 x,-y,1/2+z
8 1/2+x,1/2-y,1/2+z
_cell_length_a                   26.753(15)
_cell_length_b                   18.415(10)
_cell_length_c                   14.940(7)
_cell_angle_alpha                90
_cell_angle_beta                 109.50(1)
_cell_angle_gamma                90
_cell_volume                     6938.11
loop_
_atom_site_label
_atom_site_type_symbol
_atom_site_fract_x
_atom_site_fract_y
_atom_site_fract_z
Hg1 Hg 0.5000 -0.57969(6) 0.7500
Hg2 Hg -0.15579(4) -0.38330(5) 0.52761(6)
Br1 Br -0.13615(11) -0.40175(11) 0.70076(15)
Br2 Br 0.46941(14) -0.61636(14) 0.58237(17)
Br3 Br -0.19204(14) -0.43279(17) 0.36673(18)
S1 S 0.2131(3) 0.0164(3) 0.5013(4)
S2 S 0.0834(3) -0.2520(4) 0.5100(4)
S3 S 0.3514(3) -0.2718(3) 0.7392(4)
C1 C 0.2317(10) -0.0105(10) 0.6244(14)
H1 H 0.2677 0.0046 0.6591
H2 H 0.2080 0.0109 0.6541
C2 C 0.3208(10) -0.1022(11) 0.6232(17)
H3 H 0.3181 -0.0502 0.6240
H4 H 0.3286 -0.1171 0.5677
H5 H 0.3487 -0.1181 0.6790
C3 C 0.1743(10) 0.2178(11) 0.4106(16)
H6 H 0.1613 0.2400 0.3514
N1 N 0.4405(9) -0.4804(8) 0.7491(12)
C4 C 0.2028(10) 0.1088(11) 0.5009(15)
C5 C 0.2696(9) -0.1350(10) 0.6217(14)
C6 C 0.2005(10) 0.2280(12) 0.5680(17)
H7 H 0.2064 0.2559 0.6224
C7 C 0.0264(10) -0.2871(11) 0.5219(14)
N2 N -0.0716(9) -0.3444(10) 0.5256(13)
C8 C 0.1833(12) 0.1434(12) 0.4101(17)
H8 H 0.1771 0.1176 0.3539
C9 C 0.3094(10) -0.2574(11) 0.6186(13)
H9 H 0.3290 -0.2333 0.5830
H10 H 0.2966 -0.3035 0.5882
C10 C -0.0312(12) -0.3316(11) 0.6049(17)
H11 H -0.0359 -0.3404 0.6628
C11 C -0.0154(12) -0.2982(12) 0.4432(17)
H12 H -0.0123 -0.2863 0.3847
N3 N 0.1819(8) 0.2610(9) 0.4856(12)
C12 C 0.1778(11) -0.1265(12) 0.6230(15)
C13 C 0.4125(10) -0.4525(11) 0.6673(16)
H13 H 0.4122 -0.4777 0.6132
C14 C 0.2273(11) -0.0940(10) 0.6231(14)
C15 C 0.1253(10) -0.2351(11) 0.6279(15)
H14 H 0.1334 -0.2805 0.6627
H15 H 0.1074 -0.2036 0.6595
C16 C 0.0170(10) -0.3060(11) 0.6054(16)
H16 H 0.0443 -0.3012 0.6631
C17 C 0.2633(9) -0.2106(10) 0.6209(13)
C18 C 0.4417(11) -0.4406(12) 0.8267(13)
H17 H 0.4621 -0.4583 0.8860
C19 C 0.2173(11) -0.2427(10) 0.6265(15)
C20 C 0.3856(11) -0.3508(12) 0.7398(16)
C21 C 0.4165(11) -0.3795(11) 0.8246(14)
H18 H 0.4195 -0.3554 0.8809
C22 C 0.2124(10) 0.1517(10) 0.5801(14)
H19 H 0.2264 0.1318 0.6406
C23 C 0.3823(10) -0.3874(11) 0.6528(14)
H20 H 0.3624 -0.3701 0.5930
C24 C 0.1752(9) -0.2002(10) 0.6271(14)
C25 C 0.2127(11) -0.3267(10) 0.6267(16)
H21 H 0.1790 -0.3401 0.6314
H22 H 0.2406 -0.3462 0.6800
H23 H 0.2157 -0.3458 0.5689
C26 C -0.0642(12) -0.3276(12) 0.4453(16)
H24 H -0.0917 -0.3350 0.3884
C27 C 0.1316(12) -0.0798(12) 0.6178(17)
H25 H 0.1023 -0.1097 0.6181
H26 H 0.1218 -0.0517 0.5604
H27 H 0.1409 -0.0477 0.6715
Hg2B Hg 1.15579(4) -0.38330(5) 0.97239(6)
Hg2D Hg 0.15579(4) 0.38330(5) 0.47239(6)
Hg2F Hg 0.84421(4) 0.38330(5) 1.02761(6)
Br1B Br 1.13615(11) -0.40175(11) 0.79924(15)
Br2B Br 0.53059(14) -0.61636(14) 0.91763(17)
Br3B Br 1.19204(14) -0.43279(17) 1.13327(18)
S1B S 0.7869(3) 0.0164(3) 0.9987(4)
S2B S 0.9166(3) -0.2520(4) 0.9900(4)
S3B S 0.6486(3) -0.2718(3) 0.7608(4)
C1B C 0.7683(10) -0.0105(10) 0.8756(14)
H1B H 0.7323 0.0046 0.8409
H2B H 0.7920 0.0109 0.8459
C2B C 0.6792(10) -0.1022(11) 0.8768(17)
H3B H 0.6819 -0.0502 0.8760
H4B H 0.6714 -0.1171 0.9323
H5B H 0.6513 -0.1181 0.8210
C3B C 0.8257(10) 0.2178(11) 1.0894(16)
H6B H 0.8387 0.2400 1.1486
N1B N 0.5595(9) -0.4804(8) 0.7509(12)
C4B C 0.7972(10) 0.1088(11) 0.9991(15)
C5B C 0.7304(9) -0.1350(10) 0.8783(14)
C6B C 0.7995(10) 0.2280(12) 0.9320(17)
H7B H 0.7936 0.2559 0.8776
C7B C 0.9736(10) -0.2871(11) 0.9781(14)
N2B N 1.0716(9) -0.3444(10) 0.9744(13)
C8B C 0.8167(12) 0.1434(12) 1.0899(17)
H8B H 0.8229 0.1176 1.1461
C9B C 0.6906(10) -0.2574(11) 0.8814(13)
H9B H 0.6710 -0.2333 0.9170
H10B H 0.7034 -0.3035 0.9118
C10B C 1.0312(12) -0.3316(11) 0.8951(17)
H11B H 1.0359 -0.3404 0.8372
C11B C 1.0154(12) -0.2982(12) 1.0568(17)
H12B H 1.0123 -0.2863 1.1153
N3B N 0.8181(8) 0.2610(9) 1.0144(12)
N3D N -0.1819(8) -0.2610(9) 0.5144(12)
N3F N 1.1819(8) -0.2610(9) 0.9856(12)
C12B C 0.8222(11) -0.1265(12) 0.8770(15)
C13B C 0.5875(10) -0.4525(11) 0.8327(16)
H13B H 0.5878 -0.4777 0.8868
C14B C 0.7727(11) -0.0940(10) 0.8769(14)
C15B C 0.8747(10) -0.2351(11) 0.8721(15)
H14B H 0.8666 -0.2805 0.8373
H15B H 0.8926 -0.2036 0.8405
C16B C 0.9830(10) -0.3060(11) 0.8946(16)
H16B H 0.9557 -0.3012 0.8369
C17B C 0.7367(9) -0.2106(10) 0.8791(13)
C18B C 0.5583(11) -0.4406(12) 0.6733(13)
H17B H 0.5379 -0.4583 0.6140
C19B C 0.7827(11) -0.2427(10) 0.8735(15)
C20B C 0.6144(11) -0.3508(12) 0.7602(16)
C21B C 0.5835(11) -0.3795(11) 0.6754(14)
H18B H 0.5805 -0.3554 0.6191
C22B C 0.7876(10) 0.1517(10) 0.9199(14)
H19B H 0.7736 0.1318 0.8594
C23B C 0.6177(10) -0.3874(11) 0.8472(14)
H20B H 0.6376 -0.3701 0.9070
C24B C 0.8248(9) -0.2002(10) 0.8729(14)
C25B C 0.7873(11) -0.3267(10) 0.8733(16)
H21B H 0.8210 -0.3401 0.8686
H22B H 0.7594 -0.3462 0.8200
H23B H 0.7843 -0.3458 0.9311
C26B C 1.0642(12) -0.3276(12) 1.0547(16)
H24B H 1.0917 -0.3350 1.1116
C27B C 0.8684(12) -0.0798(12) 0.8822(17)
H25B H 0.8977 -0.1097 0.8819
H26B H 0.8782 -0.0517 0.9396
H27B H 0.8591 -0.0477 0.8285
loop_
_geom_bond_atom_site_label_1
_geom_bond_atom_site_label_2
_geom_bond_site_symmetry_1
_geom_bond_site_symmetry_2
Hg1 Br2 1_555 1_555
Hg2 Br1 1_555 1_555
Br3 Hg2 1_555 1_555
S1 C1 1_555 1_555
S2 C7 1_555 1_555
S3 C9 1_555 1_555
C1 H1 1_555 1_555
H2 C1 1_555 1_555
C2 H3 1_555 1_555
H4 C2 1_555 1_555
H5 C2 1_555 1_555
C3 H6 1_555 1_555
N1 Hg1 1_555 1_555
C4 S1 1_555 1_555
C5 C2 1_555 1_555
C6 H7 1_555 1_555
C7 C11 1_555 1_555
N2 Hg2 1_555 1_555
C8 C3 1_555 1_555
H8 C8 1_555 1_555
C9 H9 1_555 1_555
H10 C9 1_555 1_555
C10 N2 1_555 1_555
H11 C10 1_555 1_555
C11 H12 1_555 1_555
N3 C3 1_555 1_555
C12 C14 1_555 1_555
C13 N1 1_555 1_555
H13 C13 1_555 1_555
C14 C1 1_555 1_555
C15 S2 1_555 1_555
H14 C15 1_555 1_555
H15 C15 1_555 1_555
C16 C7 1_555 1_555
H16 C16 1_555 1_555
C17 C5 1_555 1_555
C18 N1 1_555 1_555
H17 C18 1_555 1_555
C19 C17 1_555 1_555
C20 S3 1_555 1_555
C21 C18 1_555 1_555
H18 C21 1_555 1_555
C22 C4 1_555 1_555
H19 C22 1_555 1_555
C23 C13 1_555 1_555
H20 C23 1_555 1_555
C24 C12 1_555 1_555
C25 C19 1_555 1_555
H21 C25 1_555 1_555
H22 C25 1_555 1_555
H23 C25 1_555 1_555
C26 N2 1_555 1_555
H24 C26 1_555 1_555
C27 C12 1_555 1_555
H25 C27 1_555 1_555
H26 C27 1_555 1_555
H27 C27 1_555 1_555
Hg2B Br1B 1_555 1_555
Hg2D N3 1_555 1_555
Hg2F N3B 1_555 1_555
Br2B Hg1 1_555 1_555
Br3B Hg2B 1_555 1_555
S1B C1B 1_555 1_555
S2B C7B 1_555 1_555
S3B C9B 1_555 1_555
C1B H1B 1_555 1_555
H2B C1B 1_555 1_555
C2B H3B 1_555 1_555
H4B C2B 1_555 1_555
H5B C2B 1_555 1_555
C3B H6B 1_555 1_555
N1B Hg1 1_555 1_555
C4B S1B 1_555 1_555
C5B C2B 1_555 1_555
C6B H7B 1_555 1_555
C7B C11B 1_555 1_555
N2B Hg2B 1_555 1_555
C8B C3B 1_555 1_555
H8B C8B 1_555 1_555
C9B H9B 1_555 1_555
H10B C9B 1_555 1_555
C10B N2B 1_555 1_555
H11B C10B 1_555 1_555
C11B H12B 1_555 1_555
N3B C3B 1_555 1_555
N3D Hg2 1_555 1_555
N3F Hg2B 1_555 1_555
C12B C14B 1_555 1_555
C13B N1B 1_555 1_555
H13B C13B 1_555 1_555
C14B C1B 1_555 1_555
C15B S2B 1_555 1_555
H14B C15B 1_555 1_555
H15B C15B 1_555 1_555
C16B C7B 1_555 1_555
H16B C16B 1_555 1_555
C17B C5B 1_555 1_555
C18B N1B 1_555 1_555
H17B C18B 1_555 1_555
C19B C17B 1_555 1_555
C20B S3B 1_555 1_555
C21B C18B 1_555 1_555
H18B C21B 1_555 1_555
C22B C4B 1_555 1_555
H19B C22B 1_555 1_555
C23B C13B 1_555 1_555
H20B C23B 1_555 1_555
C24B C12B 1_555 1_555
C25B C19B 1_555 1_555
H21B C25B 1_555 1_555
H22B C25B 1_555 1_555
H23B C25B 1_555 1_555
C26B N2B 1_555 1_555
H24B C26B 1_555 1_555
C27B C12B 1_555 1_555
H25B C27B 1_555 1_555
H26B C27B 1_555 1_555
H27B C27B 1_555 1_555
C4 C8 1_555 1_555
C5 C14 1_555 1_555
C6 N3 1_555 1_555
C6 C22 1_555 1_555
C9 C17 1_555 1_555
C10 C16 1_555 1_555
C11 C26 1_555 1_555
C15 C24 1_555 1_555
C19 C24 1_555 1_555
C20 C21 1_555 1_555
C20 C23 1_555 1_555
C4B C8B 1_555 1_555
C5B C14B 1_555 1_555
C6B N3B 1_555 1_555
C6B C22B 1_555 1_555
C9B C17B 1_555 1_555
C10B C16B 1_555 1_555
C11B C26B 1_555 1_555
C15B C24B 1_555 1_555
C19B C24B 1_555 1_555
C20B C21B 1_555 1_555
C20B C23B 1_555 1_555

#END
