
#######################################################################
#
#                 Cambridge Crystallographic Data Centre
#                                CCDC 
#
#######################################################################
#
# If this CIF has been generated from an entry in the Cambridge 
# Structural Database, then it will include bibliographic, chemical, 
# crystal, experimental, refinement or atomic coordinate data resulting 
# from the CCDC's data processing and validation procedures.
#
#######################################################################

data_REZWIE
_symmetry_cell_setting           triclinic
_symmetry_space_group_name_H-M   'P -1'
_symmetry_Int_Tables_number      2
_space_group_name_Hall           '-P 1'
loop_
_symmetry_equiv_pos_site_id
_symmetry_equiv_pos_as_xyz
1 x,y,z
2 -x,-y,-z
_cell_length_a                   5.9055(4)
_cell_length_b                   8.0258(5)
_cell_length_c                   11.5035(6)
_cell_angle_alpha                71.208(5)
_cell_angle_beta                 80.134(5)
_cell_angle_gamma                85.297(5)
_cell_volume                     508.317
loop_
_atom_site_label
_atom_site_type_symbol
_atom_site_fract_x
_atom_site_fract_y
_atom_site_fract_z
Cl1 Cl 0.29809(9) 0.68360(7) 0.55184(5)
C1 C -0.1174(3) 1.3262(3) 0.77645(19)
O1 O -0.0763(3) 1.3433(2) 0.87433(14)
N1 N -0.3085(4) 1.3841(3) 0.7328(2)
O2 O 0.1965(3) 1.1372(3) 0.39282(17)
H1 H 0.358(5) 0.988(4) 0.894(2)
H2 H 0.180(5) 1.139(4) 0.911(3)
H3 H -0.407(6) 1.433(4) 0.776(3)
H4 H -0.326(5) 1.379(4) 0.665(3)
H5 H 0.079(5) 1.177(4) 0.412(3)
H6 H 0.206(5) 1.153(4) 0.317(3)
Ca1 Ca 0.50000 1.00000 0.50000
O3 O 0.3159(3) 1.0112(2) 0.68830(13)
N2 N 0.2462(4) 1.0655(3) 0.86944(17)
C2 C 0.2137(3) 1.0973(2) 0.75461(17)
C3 C 0.0548(4) 1.2442(3) 0.69673(19)
H7 H 0.1497 1.3379 0.6389
H8 H -0.0306 1.2014 0.6477
Cl2 Cl 0.27265(9) 1.21730(7) 1.10221(5)
O4 O 0.3130(3) 1.6133(2) 0.84413(17)
H9 H 0.294(6) 1.655(5) 0.773(3)
H10 H 0.409(6) 1.664(5) 0.866(3)
Ca2 Ca 0.00000 1.50000 1.00000
C1A C 0.1174(3) 1.6738(3) 1.22355(19)
O1A O 0.0763(3) 1.6567(2) 1.12567(14)
N1A N 0.3085(4) 1.6159(3) 1.2672(2)
H1A H -0.358(5) 2.012(4) 1.106(2)
H2A H -0.180(5) 1.861(4) 1.089(3)
H3A H 0.407(6) 1.567(4) 1.224(3)
H4A H 0.326(5) 1.621(4) 1.335(3)
O3A O -0.3159(3) 1.9888(2) 1.31170(13)
N2A N -0.2462(4) 1.9345(3) 1.13056(17)
C2A C -0.2137(3) 1.9027(2) 1.24539(17)
C3A C -0.0548(4) 1.7558(3) 1.30327(19)
H7A H -0.1497 1.6621 1.3611
H8A H 0.0306 1.7986 1.3523
Cl2A Cl -0.27265(9) 1.78270(7) 0.89779(5)
O4A O -0.3130(3) 1.3867(2) 1.15587(17)
H9A H -0.294(6) 1.345(5) 1.227(3)
H10A H -0.409(6) 1.336(5) 1.134(3)
O2A O 0.8035(3) 0.8628(3) 0.60718(17)
H5A H 0.921(5) 0.823(4) 0.588(3)
H6A H 0.794(5) 0.847(4) 0.683(3)
Cl1A Cl 0.70191(9) 1.31640(7) 0.44816(5)
Ca1_2 Ca -0.50000 2.00000 1.50000
O3A_2 O 0.6841(3) 0.9888(2) 0.31170(13)
loop_
_geom_bond_atom_site_label_1
_geom_bond_atom_site_label_2
_geom_bond_site_symmetry_1
_geom_bond_site_symmetry_2
Cl1 Ca1 1_555 1_555
C1 O1 1_555 1_555
O1 Ca2 1_555 1_555
N1 C1 1_555 1_555
O2 H5 1_555 1_555
H1 N2 1_555 1_555
H2 N2 1_555 1_555
H3 N1 1_555 1_555
H4 N1 1_555 1_555
H6 O2 1_555 1_555
Ca1 O2 1_555 1_555
O3 Ca1 1_555 1_555
N2 C2 1_555 1_555
C2 O3 1_555 1_555
C3 C1 1_555 1_555
H7 C3 1_555 1_555
H8 C3 1_555 1_555
Cl2 Ca2 1_555 1_555
O4 H9 1_555 1_555
H10 O4 1_555 1_555
Ca2 O4 1_555 1_555
C1A O1A 1_555 1_555
O1A Ca2 1_555 1_555
N1A C1A 1_555 1_555
H1A N2A 1_555 1_555
H2A N2A 1_555 1_555
H3A N1A 1_555 1_555
H4A N1A 1_555 1_555
O3A C2A 1_555 1_555
N2A C2A 1_555 1_555
C2A C3A 1_555 1_555
C3A C1A 1_555 1_555
H7A C3A 1_555 1_555
H8A C3A 1_555 1_555
Cl2A Ca2 1_555 1_555
O4A Ca2 1_555 1_555
H9A O4A 1_555 1_555
H10A O4A 1_555 1_555
O2A Ca1 1_555 1_555
H5A O2A 1_555 1_555
H6A O2A 1_555 1_555
Cl1A Ca1 1_555 1_555
Ca1_2 O3A 1_555 1_555
O3A_2 Ca1 1_555 1_555
C2 C3 1_555 1_555

#END
