
#######################################################################
#
#                 Cambridge Crystallographic Data Centre
#                                CCDC 
#
#######################################################################
#
# If this CIF has been generated from an entry in the Cambridge 
# Structural Database, then it will include bibliographic, chemical, 
# crystal, experimental, refinement or atomic coordinate data resulting 
# from the CCDC's data processing and validation procedures.
#
#######################################################################

data_REZWUQ
_symmetry_cell_setting           monoclinic
_symmetry_space_group_name_H-M   'P 21/c'
_symmetry_Int_Tables_number      14
_space_group_name_Hall           '-P 2ybc'
loop_
_symmetry_equiv_pos_site_id
_symmetry_equiv_pos_as_xyz
1 x,y,z
2 -x,1/2+y,1/2-z
3 -x,-y,-z
4 x,1/2-y,1/2+z
_cell_length_a                   8.9583(7)
_cell_length_b                   21.060(2)
_cell_length_c                   8.9583(7)
_cell_angle_alpha                90
_cell_angle_beta                 130.337(12)
_cell_angle_gamma                90
_cell_volume                     1288.27
loop_
_atom_site_label
_atom_site_type_symbol
_atom_site_fract_x
_atom_site_fract_y
_atom_site_fract_z
Ca1 Ca 0.52707(9) 0.09638(2) 0.97620(9)
O1 O 0.6066(4) 0.19883(10) 0.9022(4)
O2 O 0.7064(4) 0.15440(13) 1.2770(4)
O3 O 0.3025(3) 0.00133(12) 0.8021(3)
O4 O 0.2347(4) 0.15801(12) 0.8058(4)
H1 H 0.730(5) 0.1895(18) 1.273(6)
H2 H 0.737(5) 0.1402(19) 1.378(6)
H3 H 0.173(6) 0.0161(16) 0.767(5)
H4 H 0.288(6) -0.0070(17) 0.725(6)
C1 C 0.3053(5) 0.07366(11) 0.1954(5)
N1 N 0.4158(4) 0.07941(13) 0.3940(4)
N2 N 0.1077(4) 0.07594(13) 0.0842(4)
C2 C 0.3457(5) 0.09175(16) 0.4883(5)
C3 C 0.0132(4) 0.08771(15) 0.1559(5)
C4 C 0.1365(4) 0.11130(12) 0.3604(5)
H5 H 0.0816 0.0961 0.4182
H6 H 0.1303 0.1573 0.3578
O5 O 0.3798(3) 0.06398(9) 0.1226(3)
O6 O -0.1635(3) 0.08106(12) 0.0497(3)
O7 O 0.4522(3) 0.08806(13) 0.6652(3)
H7 H 0.544(5) 0.0737(14) 0.467(5)
H8 H 0.041(5) 0.0658(14) -0.032(5)
Ca1_2 Ca -0.47293(9) 0.09638(2) -0.02380(9)
Ca1_3 Ca 0.52707(9) 0.09638(2) -0.02380(9)
Ca1B Ca 0.47293(9) -0.09638(2) 1.02380(9)
O3B O 0.6975(3) -0.00133(12) 1.1979(3)
O5_2 O 0.3798(3) 0.06398(9) 1.1226(3)
O6_2 O 0.8365(3) 0.08106(12) 1.0497(3)
O8 O 1.2530(5) 0.22246(13) 1.1941(5)
Cl1 Cl 0.87344(12) 0.04569(3) 1.62153(12)
Cl2 Cl 0.85483(16) 0.21130(5) 0.75977(16)
loop_
_geom_bond_atom_site_label_1
_geom_bond_atom_site_label_2
_geom_bond_site_symmetry_1
_geom_bond_site_symmetry_2
Ca1 O1 1_555 1_555
O2 Ca1 1_555 1_555
O3 Ca1 1_555 1_555
O4 Ca1 1_555 1_555
H1 O2 1_555 1_555
H2 O2 1_555 1_555
H3 O3 1_555 1_555
H4 O3 1_555 1_555
C1 N1 1_555 1_555
N1 C2 1_555 1_555
N2 C1 1_555 1_555
C2 C4 1_555 1_555
C3 N2 1_555 1_555
C4 C3 1_555 1_555
H5 C4 1_555 1_555
H6 C4 1_555 1_555
O5 C1 1_555 1_555
O6 C3 1_555 1_555
O7 Ca1 1_555 1_555
H7 N1 1_555 1_555
H8 N2 1_555 1_555
Ca1_2 O6 1_555 1_555
Ca1_3 O5 1_555 1_555
Ca1B O3 1_555 1_555
O3B Ca1 1_555 1_555
O5_2 Ca1 1_555 1_555
O6_2 Ca1 1_555 1_555
C2 O7 1_555 1_555
Ca1B O3B 1_555 1_555

#END
