
#######################################################################
#
#                 Cambridge Crystallographic Data Centre
#                                CCDC 
#
#######################################################################
#
# If this CIF has been generated from an entry in the Cambridge 
# Structural Database, then it will include bibliographic, chemical, 
# crystal, experimental, refinement or atomic coordinate data resulting 
# from the CCDC's data processing and validation procedures.
#
#######################################################################

data_REZWID
_symmetry_cell_setting           monoclinic
_symmetry_space_group_name_H-M   'C 2/c'
_symmetry_Int_Tables_number      15
_space_group_name_Hall           '-C 2yn'
loop_
_symmetry_equiv_pos_site_id
_symmetry_equiv_pos_as_xyz
1 x,y,z
2 1/2+x,1/2+y,z
3 -x,y,1/2-z
4 1/2-x,1/2+y,1/2-z
5 -x,-y,-z
6 1/2-x,1/2-y,-z
7 x,-y,1/2+z
8 1/2+x,1/2-y,1/2+z
_cell_length_a                   27.661(7)
_cell_length_b                   18.821(4)
_cell_length_c                   15.786(4)
_cell_angle_alpha                90
_cell_angle_beta                 113.13(1)
_cell_angle_gamma                90
_cell_volume                     7557.69
loop_
_atom_site_label
_atom_site_type_symbol
_atom_site_fract_x
_atom_site_fract_y
_atom_site_fract_z
Hg1 Hg 1.0000 0.54825(6) 0.7500
Hg2 Hg 0.65620(3) -0.38241(5) 0.46973(6)
I1 I 0.63067(6) -0.40450(8) 0.29132(10)
I2 I 1.03437(6) 0.59610(9) 0.92036(11)
I3 I 0.69970(8) -0.44067(12) 0.63332(12)
S1 S 0.8350(3) 0.2694(3) 0.7370(4)
S2 S 0.7032(3) -0.0204(3) 0.4983(4)
S3 S 0.5691(2) 0.2353(4) 0.5074(4)
C1 C 0.6982(8) -0.1150(10) 0.4989(15)
N1 N 0.9427(6) 0.4547(8) 0.7458(12)
C2 C 0.7165(8) 0.0888(10) 0.6147(12)
C3 C 0.7578(8) 0.1329(9) 0.6159(13)
N2 N 0.6828(6) -0.2598(9) 0.4837(12)
C4 C 0.7926(8) 0.2524(11) 0.6170(13)
H1 H 0.7774 0.2965 0.5863
H2 H 0.8128 0.2312 0.5851
C5 C 0.7043(8) 0.2346(10) 0.6175(13)
C6 C 0.9421(8) 0.4244(11) 0.8206(14)
H3 H 0.9648 0.4418 0.8775
N3 N 0.4266(7) 0.3378(9) 0.5303(13)
C7 C 0.6682(8) 0.1128(12) 0.6166(13)
C8 C 0.6641(8) 0.1909(12) 0.6212(13)
C9 C 0.6767(9) -0.1480(13) 0.4120(14)
H4 H 0.6667 -0.1218 0.3578
C10 C 0.7513(7) 0.2037(10) 0.6164(12)
C11 C 0.7094(8) -0.1577(12) 0.5744(15)
H5 H 0.7216 -0.1378 0.6330
C12 C 0.6714(9) -0.2199(12) 0.4110(17)
H6 H 0.6586 -0.2423 0.3539
C13 C 0.9106(9) 0.3699(13) 0.8196(13)
H7 H 0.9113 0.3514 0.8747
C14 C 0.8797(10) 0.3699(13) 0.6564(14)
H8 H 0.8588 0.3524 0.5985
C15 C 0.7028(8) -0.2293(10) 0.5640(16)
H9 H 0.7130 -0.2576 0.6164
C16 C 0.4681(8) 0.3246(12) 0.6049(17)
H10 H 0.4679 0.3377 0.6616
C17 C 0.9148(10) 0.4259(12) 0.6685(17)
H11 H 0.9182 0.4437 0.6162
C18 C 0.4742(8) 0.2904(13) 0.4415(14)
H12 H 0.4736 0.2783 0.3839
C19 C 0.5145(7) 0.2774(12) 0.5169(16)
C20 C 0.6128(8) 0.2201(11) 0.6225(15)
H13 H 0.6195 0.2642 0.6572
H14 H 0.5977 0.1863 0.6515
C21 C 0.6222(8) 0.0650(11) 0.6125(17)
H15 H 0.6314 0.0161 0.6095
H16 H 0.5916 0.0767 0.5589
H17 H 0.6151 0.0725 0.6667
C22 C 0.8778(8) 0.3415(12) 0.7382(16)
C23 C 0.6971(9) 0.3135(10) 0.6217(16)
H18 H 0.6629 0.3232 0.6214
H19 H 0.7002 0.3357 0.5694
H20 H 0.7236 0.3320 0.6772
C24 C 0.8066(8) 0.0988(10) 0.6162(16)
H21 H 0.8313 0.1349 0.6172
H22 H 0.7980 0.0703 0.5617
H23 H 0.8217 0.0692 0.6697
C25 C 0.4337(10) 0.3222(13) 0.4513(18)
H24 H 0.4064 0.3356 0.3968
C26 C 0.5119(8) 0.2922(12) 0.6025(16)
H25 H 0.5397 0.2799 0.6571
C27 C 0.7249(8) 0.0046(9) 0.6198(13)
H26 H 0.7036 -0.0183 0.6483
H27 H 0.7615 -0.0076 0.6540
Hg2B Hg 1.34380(3) -0.38241(5) 1.03027(6)
Hg2D Hg 0.34380(3) 0.38241(5) 0.53027(6)
Hg2F Hg 1.65620(3) 0.38241(5) 0.96973(6)
I1B I 1.36933(6) -0.40450(8) 1.20868(10)
I2B I 0.96563(6) 0.59610(9) 0.57964(11)
I3B I 1.30030(8) -0.44067(12) 0.86668(12)
S1B S 1.1650(3) 0.2694(3) 0.7630(4)
S2B S 1.2968(3) -0.0204(3) 1.0017(4)
S3B S 1.4309(2) 0.2353(4) 0.9926(4)
C1B C 1.3018(8) -0.1150(10) 1.0011(15)
N1B N 1.0573(6) 0.4547(8) 0.7542(12)
C2B C 1.2835(8) 0.0888(10) 0.8853(12)
C3B C 1.2422(8) 0.1329(9) 0.8841(13)
N2B N 1.3172(6) -0.2598(9) 1.0163(12)
C4B C 1.2074(8) 0.2524(11) 0.8830(13)
H1B H 1.2226 0.2965 0.9137
H2B H 1.1872 0.2312 0.9149
C5B C 1.2957(8) 0.2346(10) 0.8825(13)
C6B C 1.0579(8) 0.4244(11) 0.6794(14)
H3B H 1.0352 0.4418 0.6225
N3B N 1.5734(7) 0.3378(9) 0.9697(13)
N3D N 0.5734(7) -0.3378(9) 0.4697(13)
N3F N 1.4266(7) -0.3378(9) 1.0303(13)
C7B C 1.3318(8) 0.1128(12) 0.8834(13)
C8B C 1.3359(8) 0.1909(12) 0.8788(13)
C9B C 1.3233(9) -0.1480(13) 1.0880(14)
H4B H 1.3333 -0.1218 1.1422
C10B C 1.2487(7) 0.2037(10) 0.8836(12)
C11B C 1.2906(8) -0.1577(12) 0.9256(15)
H5B H 1.2784 -0.1378 0.8670
C12B C 1.3286(9) -0.2199(12) 1.0890(17)
H6B H 1.3414 -0.2423 1.1461
C13B C 1.0894(9) 0.3699(13) 0.6804(13)
H7B H 1.0887 0.3514 0.6253
C14B C 1.1203(10) 0.3699(13) 0.8436(14)
H8B H 1.1412 0.3524 0.9015
C15B C 1.2972(8) -0.2293(10) 0.9360(16)
H9B H 1.2870 -0.2576 0.8836
C16B C 1.5319(8) 0.3246(12) 0.8951(17)
H10B H 1.5321 0.3377 0.8384
C17B C 1.0852(10) 0.4259(12) 0.8315(17)
H11B H 1.0818 0.4437 0.8838
C18B C 1.5258(8) 0.2904(13) 1.0585(14)
H12B H 1.5264 0.2783 1.1161
C19B C 1.4855(7) 0.2774(12) 0.9831(16)
C20B C 1.3872(8) 0.2201(11) 0.8775(15)
H13B H 1.3805 0.2642 0.8428
H14B H 1.4023 0.1863 0.8485
C21B C 1.3778(8) 0.0650(11) 0.8875(17)
H15B H 1.3686 0.0161 0.8905
H16B H 1.4084 0.0767 0.9411
H17B H 1.3849 0.0725 0.8333
C22B C 1.1222(8) 0.3415(12) 0.7618(16)
C23B C 1.3029(9) 0.3135(10) 0.8783(16)
H18B H 1.3371 0.3232 0.8786
H19B H 1.2998 0.3357 0.9306
H20B H 1.2764 0.3320 0.8228
C24B C 1.1934(8) 0.0988(10) 0.8838(16)
H21B H 1.1687 0.1349 0.8828
H22B H 1.2020 0.0703 0.9383
H23B H 1.1783 0.0692 0.8303
C25B C 1.5663(10) 0.3222(13) 1.0487(18)
H24B H 1.5936 0.3356 1.1032
C26B C 1.4881(8) 0.2922(12) 0.8975(16)
H25B H 1.4603 0.2799 0.8429
C27B C 1.2751(8) 0.0046(9) 0.8802(13)
H26B H 1.2964 -0.0183 0.8517
H27B H 1.2385 -0.0076 0.8460
loop_
_geom_bond_atom_site_label_1
_geom_bond_atom_site_label_2
_geom_bond_site_symmetry_1
_geom_bond_site_symmetry_2
Hg1 I2 1_555 1_555
Hg2 I1 1_555 1_555
I3 Hg2 1_555 1_555
S1 C4 1_555 1_555
S2 C1 1_555 1_555
S3 C19 1_555 1_555
C1 C9 1_555 1_555
N1 Hg1 1_555 1_555
C2 C3 1_555 1_555
C3 C10 1_555 1_555
N2 Hg2 1_555 1_555
C4 H1 1_555 1_555
H2 C4 1_555 1_555
C5 C8 1_555 1_555
C6 N1 1_555 1_555
H3 C6 1_555 1_555
N3 C16 1_555 1_555
C7 C2 1_555 1_555
C8 C7 1_555 1_555
C9 H4 1_555 1_555
C10 C4 1_555 1_555
C11 C1 1_555 1_555
H5 C11 1_555 1_555
C12 N2 1_555 1_555
H6 C12 1_555 1_555
C13 C6 1_555 1_555
H7 C13 1_555 1_555
C14 H8 1_555 1_555
C15 N2 1_555 1_555
H9 C15 1_555 1_555
C16 H10 1_555 1_555
C17 N1 1_555 1_555
H11 C17 1_555 1_555
C18 H12 1_555 1_555
C19 C18 1_555 1_555
C20 S3 1_555 1_555
H13 C20 1_555 1_555
H14 C20 1_555 1_555
C21 C7 1_555 1_555
H15 C21 1_555 1_555
H16 C21 1_555 1_555
H17 C21 1_555 1_555
C22 S1 1_555 1_555
C23 C5 1_555 1_555
H18 C23 1_555 1_555
H19 C23 1_555 1_555
H20 C23 1_555 1_555
C24 C3 1_555 1_555
H21 C24 1_555 1_555
H22 C24 1_555 1_555
H23 C24 1_555 1_555
C25 N3 1_555 1_555
H24 C25 1_555 1_555
C26 C16 1_555 1_555
H25 C26 1_555 1_555
C27 S2 1_555 1_555
H26 C27 1_555 1_555
H27 C27 1_555 1_555
Hg2B I1B 1_555 1_555
Hg2D N3 1_555 1_555
Hg2F N3B 1_555 1_555
I2B Hg1 1_555 1_555
I3B Hg2B 1_555 1_555
S1B C4B 1_555 1_555
S2B C1B 1_555 1_555
S3B C19B 1_555 1_555
C1B C9B 1_555 1_555
N1B Hg1 1_555 1_555
C2B C3B 1_555 1_555
C3B C10B 1_555 1_555
N2B Hg2B 1_555 1_555
C4B H1B 1_555 1_555
H2B C4B 1_555 1_555
C5B C8B 1_555 1_555
C6B N1B 1_555 1_555
H3B C6B 1_555 1_555
N3B C16B 1_555 1_555
N3D Hg2 1_555 1_555
N3F Hg2B 1_555 1_555
C7B C2B 1_555 1_555
C8B C7B 1_555 1_555
C9B H4B 1_555 1_555
C10B C4B 1_555 1_555
C11B C1B 1_555 1_555
H5B C11B 1_555 1_555
C12B N2B 1_555 1_555
H6B C12B 1_555 1_555
C13B C6B 1_555 1_555
H7B C13B 1_555 1_555
C14B H8B 1_555 1_555
C15B N2B 1_555 1_555
H9B C15B 1_555 1_555
C16B H10B 1_555 1_555
C17B N1B 1_555 1_555
H11B C17B 1_555 1_555
C18B H12B 1_555 1_555
C19B C18B 1_555 1_555
C20B S3B 1_555 1_555
H13B C20B 1_555 1_555
H14B C20B 1_555 1_555
C21B C7B 1_555 1_555
H15B C21B 1_555 1_555
H16B C21B 1_555 1_555
H17B C21B 1_555 1_555
C22B S1B 1_555 1_555
C23B C5B 1_555 1_555
H18B C23B 1_555 1_555
H19B C23B 1_555 1_555
H20B C23B 1_555 1_555
C24B C3B 1_555 1_555
H21B C24B 1_555 1_555
H22B C24B 1_555 1_555
H23B C24B 1_555 1_555
C25B N3B 1_555 1_555
H24B C25B 1_555 1_555
C26B C16B 1_555 1_555
H25B C26B 1_555 1_555
C27B S2B 1_555 1_555
H26B C27B 1_555 1_555
H27B C27B 1_555 1_555
C2 C27 1_555 1_555
C5 C10 1_555 1_555
C8 C20 1_555 1_555
C9 C12 1_555 1_555
C11 C15 1_555 1_555
C13 C22 1_555 1_555
C14 C17 1_555 1_555
C14 C22 1_555 1_555
C18 C25 1_555 1_555
C19 C26 1_555 1_555
C2B C27B 1_555 1_555
C5B C10B 1_555 1_555
C8B C20B 1_555 1_555
C9B C12B 1_555 1_555
C11B C15B 1_555 1_555
C13B C22B 1_555 1_555
C14B C17B 1_555 1_555
C14B C22B 1_555 1_555
C18B C25B 1_555 1_555
C19B C26B 1_555 1_555

#END
