
#######################################################################
#
#                 Cambridge Crystallographic Data Centre
#                                CCDC 
#
#######################################################################
#
# If this CIF has been generated from an entry in the Cambridge 
# Structural Database, then it will include bibliographic, chemical, 
# crystal, experimental, refinement or atomic coordinate data resulting 
# from the CCDC's data processing and validation procedures.
#
#######################################################################

data_REZWEZ
_symmetry_cell_setting           triclinic
_symmetry_space_group_name_H-M   'P -1'
_symmetry_Int_Tables_number      2
_space_group_name_Hall           '-P 1'
loop_
_symmetry_equiv_pos_site_id
_symmetry_equiv_pos_as_xyz
1 x,y,z
2 -x,-y,-z
_cell_length_a                   9.049(2)
_cell_length_b                   13.646(4)
_cell_length_c                   16.298(4)
_cell_angle_alpha                111.990(1)
_cell_angle_beta                 90.430(1)
_cell_angle_gamma                101.570(1)
_cell_volume                     1820.61
loop_
_atom_site_label
_atom_site_type_symbol
_atom_site_fract_x
_atom_site_fract_y
_atom_site_fract_z
Hg1 Hg -0.57706(3) -0.98219(2) 0.387272(18)
Cl1 Cl -0.7507(2) -0.86572(17) 0.38485(14)
Cl2 Cl -0.3957(2) -1.08326(16) 0.41623(13)
S1 S -1.1816(2) -1.38884(18) 0.39506(18)
S2 S -1.9790(3) -1.6005(2) 0.3349(2)
S3 S -1.4297(5) -1.7601(3) 0.07217(17)
N1 N -0.7900(7) -1.1272(5) 0.3857(4)
N2 N -2.3653(8) -1.8444(5) 0.3732(4)
C1 C -1.4894(13) -1.7836(8) -0.1018(6)
H1 H -1.5328 -1.7234 -0.0814
N3 N -1.4176(8) -1.9227(6) -0.2256(5)
C2 C -1.3613(12) -1.9564(9) -0.1689(6)
H2 H -1.3165 -2.0157 -0.1912
C3 C -1.0338(9) -1.2858(7) 0.3922(6)
C4 C -1.0503(9) -1.1810(7) 0.4085(6)
H3 H -1.1426 -1.1617 0.4223
C5 C -2.2221(9) -1.8384(7) 0.3988(5)
H4 H -2.2042 -1.8862 0.4242
C6 C -2.1003(9) -1.7668(7) 0.3902(6)
H5 H -2.0030 -1.7662 0.4095
C7 C -0.9256(9) -1.1061(7) 0.4035(5)
H6 H -0.9380 -1.0366 0.4132
C8 C -1.6655(11) -1.6472(7) 0.2281(6)
C9 C -1.5861(8) -1.4887(6) 0.3630(5)
C10 C -0.7747(9) -1.2273(7) 0.3732(6)
H7 H -0.6797 -1.2432 0.3626
C11 C -2.2721(9) -1.7000(7) 0.3243(6)
H8 H -2.2925 -1.6536 0.2981
C12 C -2.1233(10) -1.6957(7) 0.3524(6)
C13 C -1.3283(15) -1.4577(12) 0.1855(9)
H9 H -1.3339 -1.5054 0.1243
H10 H -1.2318 -1.4505 0.2146
H11 H -1.3400 -1.3879 0.1891
C14 C -2.3873(9) -1.7747(7) 0.3366(5)
H12 H -2.4861 -1.7769 0.3185
C15 C -1.4678(9) -1.4495(6) 0.3202(5)
C16 C -1.6809(9) -1.5889(7) 0.3167(6)
C17 C -1.3509(9) -1.3475(7) 0.3717(6)
H13 H -1.3883 -1.3059 0.4266
H14 H -1.3284 -1.3030 0.3369
C18 C -1.8072(10) -1.6363(8) 0.3602(8)
H15 H -1.7826 -1.6076 0.4240
H16 H -1.8208 -1.7145 0.3378
C20 C -0.8909(9) -1.3072(7) 0.3750(6)
H20 H -0.8745 -1.3758 0.3648
C22 C -1.5561(12) -1.6029(8) 0.1835(6)
C23 C -1.3649(14) -1.9093(10) -0.0791(7)
H24 H -1.3226 -1.9360 -0.0420
C24 C -1.4811(12) -1.8373(8) -0.1919(6)
H25 H -1.5219 -1.8125 -0.2310
C25 C -1.4544(11) -1.5044(8) 0.2311(6)
C26 C -1.6032(10) -1.4214(7) 0.4589(6)
H26 H -1.6881 -1.4582 0.4790
H27 H -1.6197 -1.3523 0.4634
H28 H -1.5128 -1.4109 0.4951
C27 C -1.4330(13) -1.8201(9) -0.0431(6)
C29 C -1.5450(18) -1.6616(11) 0.0863(7)
H32 H -1.4997 -1.6105 0.0605
H33 H -1.6454 -1.6979 0.0563
C30 C -1.7696(14) -1.7577(8) 0.1786(9)
H34 H -1.8383 -1.7753 0.2182
H35 H -1.7100 -1.8115 0.1573
H36 H -1.8260 -1.7559 0.1293
Hg1_2 Hg -2.57706(3) -1.98219(2) 0.387272(18)
Hg1A Hg -1.42294(3) -2.01781(2) -0.387272(18)
N2_2 N -0.3653(8) -0.8444(5) 0.3732(4)
N3A N -0.5824(8) -1.0773(6) 0.2256(5)
S4 S -0.0283(9) -1.0356(5) 0.1129(4)
O1 O -0.097(4) -1.1344(16) 0.0328(12)
C19 C -0.1560(19) -0.9492(16) 0.1260(12)
H17 H -0.1840 -0.9257 0.1859
H18 H -0.2449 -0.9878 0.0855
H19 H -0.1083 -0.8874 0.1137
C28 C -0.084(3) -1.0697(15) 0.2084(10)
H29 H -0.1409 -1.0196 0.2443
H30 H 0.0048 -1.0656 0.2430
H31 H -0.1455 -1.1419 0.1878
S5 S -0.8031(6) -1.4436(5) 0.1174(4)
C21 C -0.928(2) -1.3381(15) 0.1283(11)
H21 H -0.8639 -1.2700 0.1345
H22 H -0.9836 -1.3286 0.1796
H23 H -0.9974 -1.3640 0.0761
C31 C -0.970(3) -1.571(3) 0.107(2)
H37 H -0.9276 -1.6327 0.0997
H38 H -1.0402 -1.5882 0.0566
H39 H -1.0225 -1.5536 0.1600
O2 O -0.7724(14) -1.4797(12) 0.0200(8)
S6? S -0.135(2) -1.0706(10) 0.0969(7)
O3? O -0.976(8) -1.087(7) 0.065(5)
loop_
_geom_bond_atom_site_label_1
_geom_bond_atom_site_label_2
_geom_bond_site_symmetry_1
_geom_bond_site_symmetry_2
Hg1 Cl1 1_555 1_555
Cl2 Hg1 1_555 1_555
S1 C3 1_555 1_555
S2 C12 1_555 1_555
S3 C27 1_555 1_555
S4 O1 1_555 1_555
N1 Hg1 1_555 1_555
N2 C5 1_555 1_555
S5 C21 1_555 1_555
C1 H1 1_555 1_555
N3 C2 1_555 1_555
C2 H2 1_555 1_555
C3 C4 1_555 1_555
C4 H3 1_555 1_555
C5 H4 1_555 1_555
C6 C5 1_555 1_555
H5 C6 1_555 1_555
C7 N1 1_555 1_555
H6 C7 1_555 1_555
C8 C16 1_555 1_555
C9 C15 1_555 1_555
C10 N1 1_555 1_555
H7 C10 1_555 1_555
C11 H8 1_555 1_555
C12 C6 1_555 1_555
C13 H9 1_555 1_555
H10 C13 1_555 1_555
H11 C13 1_555 1_555
C14 N2 1_555 1_555
H12 C14 1_555 1_555
C15 C17 1_555 1_555
C16 C9 1_555 1_555
C17 S1 1_555 1_555
H13 C17 1_555 1_555
H14 C17 1_555 1_555
C18 S2 1_555 1_555
H15 C18 1_555 1_555
H16 C18 1_555 1_555
C19 S4 1_555 1_555
H17 C19 1_555 1_555
H18 C19 1_555 1_555
H19 C19 1_555 1_555
C20 C3 1_555 1_555
H20 C20 1_555 1_555
C21 H21 1_555 1_555
H22 C21 1_555 1_555
H23 C21 1_555 1_555
C22 C8 1_555 1_555
C23 C2 1_555 1_555
H24 C23 1_555 1_555
C24 C1 1_555 1_555
H25 C24 1_555 1_555
C25 C13 1_555 1_555
C26 C9 1_555 1_555
H26 C26 1_555 1_555
H27 C26 1_555 1_555
H28 C26 1_555 1_555
C27 C1 1_555 1_555
C28 S4 1_555 1_555
H29 C28 1_555 1_555
H30 C28 1_555 1_555
H31 C28 1_555 1_555
C29 S3 1_555 1_555
H32 C29 1_555 1_555
H33 C29 1_555 1_555
C30 C8 1_555 1_555
H34 C30 1_555 1_555
H35 C30 1_555 1_555
H36 C30 1_555 1_555
C31 S5 1_555 1_555
H37 C31 1_555 1_555
H38 C31 1_555 1_555
H39 C31 1_555 1_555
O2 S5 1_555 1_555
Hg1_2 N2 1_555 1_555
Hg1A N3 1_555 1_555
N2_2 Hg1 1_555 1_555
N3A Hg1 1_555 1_555
N3 C24 1_555 1_555
C4 C7 1_555 1_555
C10 C20 1_555 1_555
C11 C12 1_555 1_555
C11 C14 1_555 1_555
C15 C25 1_555 1_555
C16 C18 1_555 1_555
C22 C25 1_555 1_555
C22 C29 1_555 1_555
C23 C27 1_555 1_555

#END
