
#######################################################################
#
#                 Cambridge Crystallographic Data Centre
#                                CCDC 
#
#######################################################################
#
# If this CIF has been generated from an entry in the Cambridge 
# Structural Database, then it will include bibliographic, chemical, 
# crystal, experimental, refinement or atomic coordinate data resulting 
# from the CCDC's data processing and validation procedures.
#
#######################################################################

data_REZWOJ
_symmetry_cell_setting           monoclinic
_symmetry_space_group_name_H-M   'P 21/c'
_symmetry_Int_Tables_number      14
_space_group_name_Hall           '-P 2ybc'
loop_
_symmetry_equiv_pos_site_id
_symmetry_equiv_pos_as_xyz
1 x,y,z
2 -x,1/2+y,1/2-z
3 -x,-y,-z
4 x,1/2-y,1/2+z
_cell_length_a                   17.950(5)
_cell_length_b                   9.031(2)
_cell_length_c                   22.200(6)
_cell_angle_alpha                90
_cell_angle_beta                 113.62(1)
_cell_angle_gamma                90
_cell_volume                     3297.27
loop_
_atom_site_label
_atom_site_type_symbol
_atom_site_fract_x
_atom_site_fract_y
_atom_site_fract_z
Hg1 Hg -0.05221(3) 0.11021(7) 0.13848(3)
Br1 Br -0.02535(10) 0.35025(19) 0.20107(8)
Br2 Br -0.11321(10) 0.0382(2) 0.01877(7)
S1 S -0.3503(2) -0.1821(4) 0.22565(18)
S2 S -0.6703(2) -0.1959(4) 0.24399(19)
S3 S -0.4167(3) -0.6588(4) 0.40848(19)
N1 N -0.1494(7) 0.0023(13) 0.1708(5)
N2 N -0.9211(7) 0.0096(13) 0.1761(6)
C1 C -0.3351(9) -0.1018(16) 0.3049(7)
H1 H -0.2793 -0.1164 0.3358
H2 H -0.3458 0.0038 0.3002
C2 C -0.4175(8) -0.3570(14) 0.4005(6)
N3 N -0.3038(9) -1.0101(16) 0.5664(7)
C3 C -0.9025(8) -0.0909(17) 0.1404(7)
H3 H -0.9420 -0.1189 0.0999
C4 C -0.3668(9) -0.2990(16) 0.3713(6)
C5 C -0.2045(9) -0.0966(17) 0.1348(7)
H4 H -0.2020 -0.1269 0.0956
C6 C -0.5223(8) -0.1806(15) 0.3408(6)
C7 C -0.7662(8) -0.1118(15) 0.2215(7)
C8 C -0.4706(8) -0.1123(17) 0.3138(6)
C9 C -0.4077(13) -0.9246(18) 0.4662(8)
H5 H -0.4565 -0.9446 0.4308
C10 C -0.1549(9) 0.0474(17) 0.2265(7)
H6 H -0.1184 0.1185 0.2518
C11 C -0.8260(9) -0.1552(17) 0.1617(7)
H7 H -0.8149 -0.2265 0.1362
C12 C -0.2720(8) -0.1097(16) 0.2078(7)
C13 C -0.2134(8) -0.0075(16) 0.2489(7)
H8 H -0.2135 0.0223 0.2890
C14 C -0.2861(9) -0.3708(18) 0.3838(7)
H9 H -0.2596 -0.3179 0.3603
H10 H -0.2947 -0.4717 0.3689
H11 H -0.2525 -0.3685 0.4300
C15 C -0.2641(9) -0.1570(18) 0.1503(7)
H12 H -0.2990 -0.2283 0.1233
C17 C -0.3926(8) -0.1760(15) 0.3306(7)
C18 C -0.4958(8) -0.3004(15) 0.3836(6)
C19 C -0.7860(9) -0.0048(16) 0.2590(7)
H16 H -0.7480 0.0274 0.2994
C20 C -0.8632(8) 0.0492(17) 0.2335(7)
H17 H -0.8766 0.1194 0.2581
C21 C -0.5519(9) -0.3712(19) 0.4107(8)
H18 H -0.5242 -0.4513 0.4394
H19 H -0.5992 -0.4084 0.3752
H20 H -0.5679 -0.2988 0.4349
C22 C -0.4967(9) 0.0164(17) 0.2705(7)
H21 H -0.4538 0.0461 0.2577
H22 H -0.5094 0.0964 0.2933
H23 H -0.5441 -0.0088 0.2321
C23 C -0.3703(9) -0.7888(16) 0.4714(7)
C24 C -0.2977(10) -0.7684(18) 0.5246(8)
H24 H -0.2695 -0.6797 0.5297
C25 C -0.6060(8) -0.1154(17) 0.3228(7)
H25 H -0.6043 -0.0085 0.3194
H26 H -0.6265 -0.1401 0.3559
C26 C -0.3713(13) -1.0319(18) 0.5144(8)
H27 H -0.3964 -1.1239 0.5094
C28 C -0.2672(10) -0.879(2) 0.5698(8)
H31 H -0.2180 -0.8619 0.6053
C29 C -0.3856(8) -0.4814(15) 0.4493(7)
H32 H -0.4063 -0.4713 0.4833
H33 H -0.3268 -0.4766 0.4700
Hg1_2 Hg -1.05221(3) 0.11021(7) 0.13848(3)
N2_2 N 0.0789(7) 0.0096(13) 0.1761(6)
S4 S 0.8934(4) -0.0110(8) 0.4574(3)
C16 C 0.8932(13) -0.079(3) 0.5320(9)
H13 H 0.8789 -0.0006 0.5545
H14 H 0.9464 -0.1156 0.5591
H15 H 0.8543 -0.1579 0.5228
O1 O 0.8143(11) 0.035(2) 0.4127(8)
C27 C 0.9223(12) -0.185(2) 0.4301(9)
H28 H 0.9256 -0.1699 0.3884
H29 H 0.8822 -0.2592 0.4256
H30 H 0.9742 -0.2168 0.4619
loop_
_geom_bond_atom_site_label_1
_geom_bond_atom_site_label_2
_geom_bond_site_symmetry_1
_geom_bond_site_symmetry_2
Hg1 Br1 1_555 1_555
Br2 Hg1 1_555 1_555
S1 C1 1_555 1_555
S2 C7 1_555 1_555
S3 C23 1_555 1_555
S4 C16 1_555 1_555
N1 Hg1 1_555 1_555
N2 C3 1_555 1_555
C1 H1 1_555 1_555
H2 C1 1_555 1_555
C2 C4 1_555 1_555
N3 C26 1_555 1_555
C3 H3 1_555 1_555
C4 C14 1_555 1_555
C5 N1 1_555 1_555
H4 C5 1_555 1_555
C6 C8 1_555 1_555
C7 C11 1_555 1_555
C8 C17 1_555 1_555
C9 H5 1_555 1_555
C10 N1 1_555 1_555
H6 C10 1_555 1_555
C11 C3 1_555 1_555
H7 C11 1_555 1_555
C12 S1 1_555 1_555
C13 C10 1_555 1_555
H8 C13 1_555 1_555
C14 H9 1_555 1_555
H10 C14 1_555 1_555
H11 C14 1_555 1_555
C15 C5 1_555 1_555
H12 C15 1_555 1_555
C16 H13 1_555 1_555
H14 C16 1_555 1_555
H15 C16 1_555 1_555
C17 C1 1_555 1_555
C18 C2 1_555 1_555
C19 C7 1_555 1_555
H16 C19 1_555 1_555
C20 N2 1_555 1_555
H17 C20 1_555 1_555
O1 S4 1_555 1_555
C21 C18 1_555 1_555
H18 C21 1_555 1_555
H19 C21 1_555 1_555
H20 C21 1_555 1_555
C22 C8 1_555 1_555
H21 C22 1_555 1_555
H22 C22 1_555 1_555
H23 C22 1_555 1_555
C23 C9 1_555 1_555
C24 C23 1_555 1_555
H24 C24 1_555 1_555
C25 S2 1_555 1_555
H25 C25 1_555 1_555
H26 C25 1_555 1_555
C26 C9 1_555 1_555
H27 C26 1_555 1_555
C27 S4 1_555 1_555
H28 C27 1_555 1_555
H29 C27 1_555 1_555
H30 C27 1_555 1_555
C28 N3 1_555 1_555
H31 C28 1_555 1_555
C29 S3 1_555 1_555
H32 C29 1_555 1_555
H33 C29 1_555 1_555
Hg1_2 N2 1_555 1_555
N2_2 Hg1 1_555 1_555
C2 C29 1_555 1_555
C4 C17 1_555 1_555
C6 C18 1_555 1_555
C6 C25 1_555 1_555
C12 C13 1_555 1_555
C12 C15 1_555 1_555
C19 C20 1_555 1_555
C24 C28 1_555 1_555

#END
