
#######################################################################
#
#                 Cambridge Crystallographic Data Centre
#                                CCDC 
#
#######################################################################
#
# If this CIF has been generated from an entry in the Cambridge 
# Structural Database, then it will include bibliographic, chemical, 
# crystal, experimental, refinement or atomic coordinate data resulting 
# from the CCDC's data processing and validation procedures.
#
#######################################################################

data_REZXAX
_symmetry_cell_setting           monoclinic
_symmetry_space_group_name_H-M   'C 2/c'
_symmetry_Int_Tables_number      15
_space_group_name_Hall           '-C 2yn'
loop_
_symmetry_equiv_pos_site_id
_symmetry_equiv_pos_as_xyz
1 x,y,z
2 -x,y,1/2-z
3 1/2+x,1/2+y,z
4 1/2-x,1/2+y,1/2-z
5 -x,-y,-z
6 x,-y,1/2+z
7 1/2-x,1/2-y,-z
8 1/2+x,1/2-y,1/2+z
_cell_length_a                   15.491(5)
_cell_length_b                   25.283(5)
_cell_length_c                   14.293(5)
_cell_angle_alpha                90
_cell_angle_beta                 108.877(5)
_cell_angle_gamma                90
_cell_volume                     5296.9
loop_
_atom_site_label
_atom_site_type_symbol
_atom_site_fract_x
_atom_site_fract_y
_atom_site_fract_z
Mg1 Mg 0.2500 0.7500 0.5000
O1 O -0.27649(17) 0.77385(10) 0.15089(18)
O2 O -0.36866(17) 0.72757(11) 0.2731(2)
O3 O -0.27632(18) 0.68362(11) 0.4437(2)
O4 O 0.37452(18) 0.43098(10) 0.49659(19)
O5 O 0.31127(19) 0.41321(9) 0.30381(19)
O6 O 0.2285(2) 0.49089(11) 0.17482(19)
N1 N 0.1424(2) 0.80213(11) 0.4721(2)
N2 N 0.1609(2) 0.69046(11) 0.4346(2)
C1 C 0.1469(3) 0.85420(14) 0.5025(3)
C2 C 0.0552(3) 0.87477(14) 0.4821(3)
H1 H 0.0394 0.9088 0.4951
C3 C -0.0025(2) 0.83518(14) 0.4408(3)
H2 H -0.0658 0.8369 0.4195
C4 C 0.0512(2) 0.78975(13) 0.4355(3)
C5 C 0.0159(2) 0.73894(13) 0.4030(3)
C6 C 0.0677(2) 0.69309(13) 0.4047(3)
C7 C 0.0301(2) 0.64142(14) 0.3734(3)
H3 H -0.0315 0.6328 0.3499
C8 C 0.1009(2) 0.60770(14) 0.3844(3)
H4 H 0.0970 0.5717 0.3700
C9 C 0.1835(2) 0.63850(14) 0.4229(3)
C10 C 0.2722(3) 0.61794(14) 0.4480(3)
C11 C 0.2819(2) 0.56336(14) 0.4106(3)
C12 C 0.3228(2) 0.52302(14) 0.4743(3)
H5 H 0.3433 0.5291 0.5421
C13 C 0.3338(2) 0.47307(14) 0.4382(3)
C14 C 0.3028(3) 0.46354(13) 0.3370(3)
C15 C 0.2586(3) 0.50410(14) 0.2728(3)
C16 C 0.2497(3) 0.55399(14) 0.3101(3)
H6 H 0.2218 0.5811 0.2670
C17 C -0.2300(2) 0.75186(14) 0.2426(3)
C18 C -0.2754(3) 0.72759(15) 0.2998(3)
C19 C -0.2253(3) 0.70626(15) 0.3915(3)
C20 C -0.1305(3) 0.70915(14) 0.4248(3)
H7 H -0.0973 0.6947 0.4857
C21 C -0.0854(2) 0.73389(14) 0.3662(3)
C22 C -0.1354(2) 0.75455(13) 0.2753(3)
H8 H -0.1055 0.7704 0.2357
C23 C 0.4144(3) 0.43964(18) 0.5996(3)
H9 H 0.4403 0.4072 0.6313
H10 H 0.3684 0.4517 0.6264
H11 H 0.4614 0.4659 0.6109
C24 C 0.3691(4) 0.40953(18) 0.2432(4)
H12 H 0.3713 0.3735 0.2230
H13 H 0.4294 0.4212 0.2802
H14 H 0.3450 0.4314 0.1858
C25 C 0.1724(3) 0.52869(18) 0.1066(3)
H15 H 0.1557 0.5147 0.0406
H16 H 0.2057 0.5610 0.1101
H17 H 0.1183 0.5355 0.1235
C26 C -0.3307(3) 0.81875(17) 0.1582(3)
H18 H -0.3615 0.8324 0.0933
H19 H -0.2919 0.8457 0.1976
H20 H -0.3748 0.8082 0.1887
C27 C -0.4130(3) 0.69218(19) 0.1942(3)
H21 H -0.4778 0.6945 0.1797
H22 H -0.3932 0.6566 0.2133
H23 H -0.3976 0.7016 0.1364
C28 C -0.2268(3) 0.66451(17) 0.5411(3)
H24 H -0.2687 0.6494 0.5706
H25 H -0.1947 0.6933 0.5812
H26 H -0.1838 0.6381 0.5366
O4F O 0.12548(18) 1.06902(10) 0.50341(19)
O5F O 0.18873(19) 1.08679(9) 0.69619(19)
O6F O 0.2715(2) 1.00911(11) 0.82518(19)
N1F N 0.3576(2) 0.69787(11) 0.5279(2)
N2F N 0.3391(2) 0.80954(11) 0.5654(2)
C1F C 0.3531(3) 0.64580(14) 0.4975(3)
C2F C 0.4448(3) 0.62523(14) 0.5179(3)
H1F H 0.4606 0.5912 0.5049
C3F C 0.5025(2) 0.66482(14) 0.5592(3)
H2F H 0.5658 0.6631 0.5805
C4F C 0.4488(2) 0.71025(13) 0.5645(3)
C5F C 0.4841(2) 0.76106(13) 0.5970(3)
C6F C 0.4323(2) 0.80691(13) 0.5953(3)
C7F C 0.4699(2) 0.85858(14) 0.6266(3)
H3F H 0.5315 0.8672 0.6501
C8F C 0.3991(2) 0.89230(14) 0.6156(3)
H4F H 0.4030 0.9283 0.6300
C9F C 0.3165(2) 0.86150(14) 0.5771(3)
C10F C 0.2278(3) 0.88206(14) 0.5520(3)
C11F C 0.2181(2) 0.93664(14) 0.5894(3)
C12F C 0.1772(2) 0.97698(14) 0.5257(3)
H5F H 0.1567 0.9709 0.4579
C13F C 0.1662(2) 1.02693(14) 0.5618(3)
C14F C 0.1972(3) 1.03646(13) 0.6630(3)
C15F C 0.2414(3) 0.99590(14) 0.7272(3)
C16F C 0.2503(3) 0.94601(14) 0.6899(3)
H6F H 0.2782 0.9189 0.7330
C23F C 0.0856(3) 1.06036(18) 0.4004(3)
H9F H 0.0597 1.0928 0.3687
H10F H 0.1316 1.0483 0.3736
H11F H 0.0386 1.0341 0.3891
C24F C 0.1309(4) 1.09047(18) 0.7568(4)
H12F H 0.1287 1.1265 0.7770
H13F H 0.0706 1.0788 0.7198
H14F H 0.1550 1.0686 0.8142
C25F C 0.3276(3) 0.97131(18) 0.8934(3)
H15F H 0.3443 0.9853 0.9594
H16F H 0.2943 0.9390 0.8899
H17F H 0.3817 0.9645 0.8765
O1F O 0.77649(17) 0.72615(10) 0.84911(18)
O2F O 0.86866(17) 0.77243(11) 0.7269(2)
O3F O 0.77632(18) 0.81638(11) 0.5563(2)
C17F C 0.7300(2) 0.74814(14) 0.7574(3)
C18F C 0.7754(3) 0.77241(15) 0.7002(3)
C19F C 0.7253(3) 0.79374(15) 0.6085(3)
C20F C 0.6305(3) 0.79085(14) 0.5752(3)
H7F H 0.5973 0.8053 0.5143
C21F C 0.5854(2) 0.76611(14) 0.6338(3)
C22F C 0.6354(2) 0.74545(13) 0.7247(3)
H8F H 0.6055 0.7296 0.7643
C26F C 0.8307(3) 0.68125(17) 0.8418(3)
H18F H 0.8615 0.6676 0.9067
H19F H 0.7919 0.6543 0.8024
H20F H 0.8748 0.6918 0.8113
C27F C 0.9130(3) 0.80782(19) 0.8058(3)
H21F H 0.9778 0.8055 0.8203
H22F H 0.8932 0.8434 0.7867
H23F H 0.8976 0.7984 0.8636
C28F C 0.7268(3) 0.83549(17) 0.4589(3)
H24F H 0.7687 0.8506 0.4294
H25F H 0.6947 0.8067 0.4188
H26F H 0.6838 0.8619 0.4634
Mg1A Mg -0.2500 0.7500 0.0000
Mg1A_2 Mg 0.7500 0.7500 1.0000
O1A O 0.27649(17) 0.77385(10) 0.34911(18)
O1G O 0.22351(17) 0.72615(10) 0.65089(18)
loop_
_geom_bond_atom_site_label_1
_geom_bond_atom_site_label_2
_geom_bond_site_symmetry_1
_geom_bond_site_symmetry_2
Mg1 N1 1_555 1_555
O1 C17 1_555 1_555
O2 C18 1_555 1_555
O3 C19 1_555 1_555
O4 C13 1_555 1_555
O5 C14 1_555 1_555
O6 C15 1_555 1_555
N1 C1 1_555 1_555
N2 Mg1 1_555 1_555
C1 C2 1_555 1_555
C2 H1 1_555 1_555
C3 C2 1_555 1_555
H2 C3 1_555 1_555
C4 N1 1_555 1_555
C5 C4 1_555 1_555
C6 N2 1_555 1_555
C7 C6 1_555 1_555
H3 C7 1_555 1_555
C8 C7 1_555 1_555
H4 C8 1_555 1_555
C9 N2 1_555 1_555
C10 C9 1_555 1_555
C11 C10 1_555 1_555
C12 C11 1_555 1_555
H5 C12 1_555 1_555
C13 C12 1_555 1_555
C14 C13 1_555 1_555
C15 C14 1_555 1_555
C16 C11 1_555 1_555
H6 C16 1_555 1_555
C17 C18 1_555 1_555
C18 C19 1_555 1_555
C19 C20 1_555 1_555
C20 H7 1_555 1_555
C21 C5 1_555 1_555
C22 C17 1_555 1_555
H8 C22 1_555 1_555
C23 O4 1_555 1_555
H9 C23 1_555 1_555
H10 C23 1_555 1_555
H11 C23 1_555 1_555
C24 O5 1_555 1_555
H12 C24 1_555 1_555
H13 C24 1_555 1_555
H14 C24 1_555 1_555
C25 O6 1_555 1_555
H15 C25 1_555 1_555
H16 C25 1_555 1_555
H17 C25 1_555 1_555
C26 O1 1_555 1_555
H18 C26 1_555 1_555
H19 C26 1_555 1_555
H20 C26 1_555 1_555
C27 O2 1_555 1_555
H21 C27 1_555 1_555
H22 C27 1_555 1_555
H23 C27 1_555 1_555
C28 O3 1_555 1_555
H24 C28 1_555 1_555
H25 C28 1_555 1_555
H26 C28 1_555 1_555
O4F C13F 1_555 1_555
O5F C14F 1_555 1_555
O6F C15F 1_555 1_555
N1F Mg1 1_555 1_555
N2F Mg1 1_555 1_555
C1F C10 1_555 1_555
C2F C1F 1_555 1_555
H1F C2F 1_555 1_555
C3F C2F 1_555 1_555
H2F C3F 1_555 1_555
C4F N1F 1_555 1_555
C5F C4F 1_555 1_555
C6F N2F 1_555 1_555
C7F C6F 1_555 1_555
H3F C7F 1_555 1_555
C8F C7F 1_555 1_555
H4F C8F 1_555 1_555
C9F N2F 1_555 1_555
C10F C1 1_555 1_555
C11F C10F 1_555 1_555
C12F C11F 1_555 1_555
H5F C12F 1_555 1_555
C13F C12F 1_555 1_555
C14F C13F 1_555 1_555
C15F C14F 1_555 1_555
C16F C11F 1_555 1_555
H6F C16F 1_555 1_555
C23F O4F 1_555 1_555
H9F C23F 1_555 1_555
H10F C23F 1_555 1_555
H11F C23F 1_555 1_555
C24F O5F 1_555 1_555
H12F C24F 1_555 1_555
H13F C24F 1_555 1_555
H14F C24F 1_555 1_555
C25F O6F 1_555 1_555
H15F C25F 1_555 1_555
H16F C25F 1_555 1_555
H17F C25F 1_555 1_555
O1F C17F 1_555 1_555
O2F C18F 1_555 1_555
O3F C19F 1_555 1_555
C17F C18F 1_555 1_555
C18F C19F 1_555 1_555
C19F C20F 1_555 1_555
C20F H7F 1_555 1_555
C21F C5F 1_555 1_555
C22F C17F 1_555 1_555
H8F C22F 1_555 1_555
C26F O1F 1_555 1_555
H18F C26F 1_555 1_555
H19F C26F 1_555 1_555
H20F C26F 1_555 1_555
C27F O2F 1_555 1_555
H21F C27F 1_555 1_555
H22F C27F 1_555 1_555
H23F C27F 1_555 1_555
C28F O3F 1_555 1_555
H24F C28F 1_555 1_555
H25F C28F 1_555 1_555
H26F C28F 1_555 1_555
Mg1A O1 1_555 1_555
Mg1A_2 O1F 1_555 1_555
O1A Mg1 1_555 1_555
O1G Mg1 1_555 1_555
C3 C4 1_555 1_555
C5 C6 1_555 1_555
C8 C9 1_555 1_555
C15 C16 1_555 1_555
C20 C21 1_555 1_555
C21 C22 1_555 1_555
N1F C1F 1_555 1_555
C3F C4F 1_555 1_555
C5F C6F 1_555 1_555
C8F C9F 1_555 1_555
C9F C10F 1_555 1_555
C15F C16F 1_555 1_555
C20F C21F 1_555 1_555
C21F C22F 1_555 1_555

#END
