
#######################################################################
#
#                 Cambridge Crystallographic Data Centre
#                                CCDC 
#
#######################################################################
#
# If this CIF has been generated from an entry in the Cambridge 
# Structural Database, then it will include bibliographic, chemical, 
# crystal, experimental, refinement or atomic coordinate data resulting 
# from the CCDC's data processing and validation procedures.
#
#######################################################################

data_REZYUQ
_symmetry_cell_setting           tetragonal
_symmetry_space_group_name_H-M   'P 41'
_symmetry_Int_Tables_number      76
_space_group_name_Hall           'P 4w'
loop_
_symmetry_equiv_pos_site_id
_symmetry_equiv_pos_as_xyz
1 x,y,z
2 -y,x,1/4+z
3 -x,-y,1/2+z
4 y,-x,3/4+z
_cell_length_a                   8.849(2)
_cell_length_b                   8.849(2)
_cell_length_c                   16.486(3)
_cell_angle_alpha                90
_cell_angle_beta                 90
_cell_angle_gamma                90
_cell_volume                     1290.93
loop_
_atom_site_label
_atom_site_type_symbol
_atom_site_fract_x
_atom_site_fract_y
_atom_site_fract_z
S1 S 0.9099(1) 0.1857(1) 0.0014(1)
C1 C 0.9849(4) 0.3527(4) 0.0052(3)
N1 N 1.0397(4) 0.4710(4) 0.0112(3)
S2 S 1.6230(1) 0.4593(2) -0.0285(2)
C2 C 1.4658(5) 0.5506(5) -0.0222(3)
N2 N 1.3534(4) 0.6159(4) -0.0172(3)
N3 N 1.1030(4) 0.7107(4) -0.1325(3)
C3 C 1.1992(5) 0.6682(5) -0.1912(3)
C4 C 1.1659(6) 0.6855(5) -0.2718(3)
C5 C 1.0266(5) 0.7492(5) -0.2906(3)
N4 N 1.2135(3) 0.9268(3) 0.0167(2)
C6 C 0.9708(4) 0.7663(4) -0.1568(3)
C7 C 0.8613(4) 0.8059(4) -0.0925(3)
N5 N 1.1399(4) 0.7275(3) 0.1327(3)
C8 C 0.6279(5) 0.8906(5) -0.0584(3)
C9 C 0.6583(5) 0.8656(6) 0.0217(4)
C10 C 0.7996(5) 0.8090(5) 0.0408(3)
N6 N 0.9026(3) 0.7811(3) -0.0162(2)
H1 H 1.294 0.624 -0.176
H2 H 1.235 0.655 -0.313
H3 H 1.002 0.767 -0.346
H4 H 0.531 0.932 -0.073
H5 H 0.585 0.886 0.063
H6 H 0.824 0.789 0.096
Fe1 Fe 1.1371(1) 0.6844(1) 0.0000
N4C N 0.9268(3) 0.7865(3) -0.2333(2)
N5C N 0.7275(3) 0.8601(4) -0.1173(3)
Fe1C Fe 0.6844(1) 0.8629(1) -0.2500
loop_
_geom_bond_atom_site_label_1
_geom_bond_atom_site_label_2
_geom_bond_site_symmetry_1
_geom_bond_site_symmetry_2
S1 C1 1_555 1_555
C1 N1 1_555 1_555
N1 Fe1 1_555 1_555
S2 C2 1_555 1_555
C2 N2 1_555 1_555
N2 Fe1 1_555 1_555
N3 C3 1_555 1_555
C3 C4 1_555 1_555
C4 C5 1_555 1_555
C5 H3 1_555 1_555
N4 Fe1 1_555 1_555
C6 N3 1_555 1_555
C7 C6 1_555 1_555
N5 Fe1 1_555 1_555
C8 C9 1_555 1_555
C9 C10 1_555 1_555
C10 N6 1_555 1_555
N6 C7 1_555 1_555
H1 C3 1_555 1_555
H2 C4 1_555 1_555
H4 C8 1_555 1_555
H5 C9 1_555 1_555
H6 C10 1_555 1_555
Fe1 N3 1_555 1_555
N4C C5 1_555 1_555
N5C C7 1_555 1_555
Fe1C N4C 1_555 1_555
C6 N4C 1_555 1_555
C8 N5C 1_555 1_555
N6 Fe1 1_555 1_555
N5C Fe1C 1_555 1_555

#END
