
#######################################################################
#
#                 Cambridge Crystallographic Data Centre
#                                CCDC 
#
#######################################################################
#
# If this CIF has been generated from an entry in the Cambridge 
# Structural Database, then it will include bibliographic, chemical, 
# crystal, experimental, refinement or atomic coordinate data resulting 
# from the CCDC's data processing and validation procedures.
#
#######################################################################

data_RIBCUB
_symmetry_cell_setting           triclinic
_symmetry_space_group_name_H-M   'P -1'
_symmetry_Int_Tables_number      2
_space_group_name_Hall           '-P 1'
loop_
_symmetry_equiv_pos_site_id
_symmetry_equiv_pos_as_xyz
1 x,y,z
2 -x,-y,-z
_cell_length_a                   6.8534(11)
_cell_length_b                   10.6185(17)
_cell_length_c                   14.069(2)
_cell_angle_alpha                85.509(7)
_cell_angle_beta                 77.865(6)
_cell_angle_gamma                83.595(6)
_cell_volume                     993.129
loop_
_atom_site_label
_atom_site_type_symbol
_atom_site_fract_x
_atom_site_fract_y
_atom_site_fract_z
Ru1 Ru -0.31004(2) 0.249105(14) -0.270793(11)
Ba1 Ba -0.982840(16) 0.280740(10) 0.042310(8)
O1 O -1.1949(2) 0.40242(15) 0.20621(11)
H1 H -1.1090 0.4347 0.2424
H2 H -1.2687 0.4782 0.1857
O2 O -0.7333(2) 0.25569(15) 0.18537(12)
H3 H -0.6690 0.1833 0.2159
O3 O -0.8386(2) 0.51137(14) 0.06649(11)
H4 H -0.8434 0.5287 0.1329
H5 H -0.7031 0.5156 0.0313
O4 O -1.4048(2) 0.32242(16) 0.04773(12)
H6 H -1.5063 0.3047 0.1041
H7 H -1.4333 0.2839 -0.0067
O5 O -1.1261(3) 0.08641(16) 0.16089(13)
H8 H -1.0639 0.0022 0.1481
H9 H -1.2601 0.0696 0.1919
O6 O -0.7013(3) 0.07664(17) 0.00013(13)
H10 H -0.7455 -0.0052 0.0225
H11 H -0.6224 0.0640 -0.0640
N1 N -0.4290(3) 0.29838(16) -0.39687(13)
N2 N -0.0781(3) 0.18224(16) -0.38216(12)
N3 N -0.4804(3) -0.01947(18) -0.23864(14)
N4 N -0.6737(3) 0.35315(19) -0.11527(14)
N5 N -0.1033(3) 0.15072(18) -0.09878(14)
N6 N -0.1205(3) 0.51135(18) -0.28613(14)
C1 C 0.0968(3) 0.1218(2) -0.36885(16)
H12 H 0.1206 0.1089 -0.3045
C2 C 0.2430(3) 0.0778(2) -0.44439(17)
H13 H 0.3646 0.0336 -0.4325
C3 C 0.2103(3) 0.0991(2) -0.53805(17)
H14 H 0.3099 0.0704 -0.5918
C4 C 0.0321(3) 0.1622(2) -0.55264(16)
H15 H 0.0075 0.1779 -0.6167
C5 C -0.1113(3) 0.20251(19) -0.47362(15)
C6 C -0.3078(3) 0.26735(19) -0.48149(15)
C7 C -0.3669(4) 0.2958(2) -0.56967(16)
H16 H -0.2796 0.2720 -0.6288
C8 C -0.5532(4) 0.3590(2) -0.57092(18)
H17 H -0.5949 0.3810 -0.6308
C9 C -0.6773(4) 0.3896(2) -0.48447(18)
H18 H -0.8072 0.4322 -0.4833
C10 C -0.6103(3) 0.3575(2) -0.39924(17)
H19 H -0.6973 0.3784 -0.3394
C11 C -0.4230(3) 0.07910(19) -0.25260(14)
C12 C -0.5405(3) 0.31580(19) -0.17403(15)
C13 C -0.1775(3) 0.19052(19) -0.16288(15)
C14 C -0.1895(3) 0.4170(2) -0.28309(14)
H20 H -0.766(4) 0.303(3) 0.223(2)
Ba1A Ba -1.017160(16) 0.719260(10) -0.042310(8)
Ba1_2 Ba 0.017160(16) 0.280740(10) 0.042310(8)
O3A O -1.1614(2) 0.48863(14) -0.06649(11)
H4A H -1.1566 0.4713 -0.1329
H5A H -1.2969 0.4844 -0.0313
N5_2 N -1.1033(3) 0.15072(18) -0.09878(14)
loop_
_geom_bond_atom_site_label_1
_geom_bond_atom_site_label_2
_geom_bond_site_symmetry_1
_geom_bond_site_symmetry_2
Ru1 N1 1_555 1_555
Ba1 O1 1_555 1_555
O1 H1 1_555 1_555
H2 O1 1_555 1_555
O2 Ba1 1_555 1_555
H3 O2 1_555 1_555
O3 Ba1 1_555 1_555
H4 O3 1_555 1_555
H5 O3 1_555 1_555
O4 Ba1 1_555 1_555
H6 O4 1_555 1_555
H7 O4 1_555 1_555
O5 Ba1 1_555 1_555
H8 O5 1_555 1_555
H9 O5 1_555 1_555
O6 Ba1 1_555 1_555
H10 O6 1_555 1_555
H11 O6 1_555 1_555
N1 C6 1_555 1_555
N2 Ru1 1_555 1_555
N3 C11 1_555 1_555
N4 Ba1 1_555 1_555
N5 C13 1_555 1_555
N6 C14 1_555 1_555
C1 N2 1_555 1_555
H12 C1 1_555 1_555
C2 C1 1_555 1_555
H13 C2 1_555 1_555
C3 C2 1_555 1_555
H14 C3 1_555 1_555
C4 C3 1_555 1_555
H15 C4 1_555 1_555
C5 N2 1_555 1_555
C6 C5 1_555 1_555
C7 C6 1_555 1_555
H16 C7 1_555 1_555
C8 C7 1_555 1_555
H17 C8 1_555 1_555
C9 C8 1_555 1_555
H18 C9 1_555 1_555
C10 N1 1_555 1_555
H19 C10 1_555 1_555
C11 Ru1 1_555 1_555
C12 Ru1 1_555 1_555
C13 Ru1 1_555 1_555
C14 Ru1 1_555 1_555
H20 O2 1_555 1_555
Ba1A O3 1_555 1_555
Ba1_2 N5 1_555 1_555
O3A Ba1 1_555 1_555
H4A O3A 1_555 1_555
H5A O3A 1_555 1_555
N5_2 Ba1 1_555 1_555
N4 C12 1_555 1_555
C4 C5 1_555 1_555
C9 C10 1_555 1_555
Ba1A O3A 1_555 1_555

#END
