
#######################################################################
#
#                 Cambridge Crystallographic Data Centre
#                                CCDC 
#
#######################################################################
#
# If this CIF has been generated from an entry in the Cambridge 
# Structural Database, then it will include bibliographic, chemical, 
# crystal, experimental, refinement or atomic coordinate data resulting 
# from the CCDC's data processing and validation procedures.
#
#######################################################################

data_RIBDAJ
_symmetry_cell_setting           orthorhombic
_symmetry_space_group_name_H-M   'C 2 2 21'
_symmetry_Int_Tables_number      20
_space_group_name_Hall           'C 2n 2'
loop_
_symmetry_equiv_pos_site_id
_symmetry_equiv_pos_as_xyz
1 x,y,z
2 -x,-y,1/2+z
3 -x,y,1/2-z
4 x,-y,-z
5 1/2+x,1/2+y,z
6 1/2-x,1/2-y,1/2+z
7 1/2-x,1/2+y,1/2-z
8 1/2+x,1/2-y,-z
_cell_length_a                   12.419(3)
_cell_length_b                   15.579(3)
_cell_length_c                   19.680(4)
_cell_angle_alpha                90
_cell_angle_beta                 90
_cell_angle_gamma                90
_cell_volume                     3807.6
loop_
_atom_site_label
_atom_site_type_symbol
_atom_site_fract_x
_atom_site_fract_y
_atom_site_fract_z
Cu1 Cu 0.95937(13) 0.02199(9) 0.41996(8)
Ni1 Ni 1.62782(7) 0.05914(5) 0.26635(4)
N1 N 0.9389(8) 0.1384(5) 0.3863(4)
N2 N 0.9041(9) -0.0939(5) 0.4296(4)
O1 O 1.1241(11) 0.0200(9) 0.4463(7)
O2 O 1.6192(10) 0.0533(6) 0.3859(5)
O3 O 1.7919(5) 0.0702(3) 0.2402(4)
O4 O 1.7121(5) -0.0488(3) 0.2674(4)
O5 O 2.0901(5) -0.3213(3) 0.2584(3)
O6 O 1.4880(8) 0.0238(5) 0.3207(5)
C1 C 0.8426(10) 0.1746(7) 0.3850(6)
H1 H 0.7840 0.1425 0.3997
C2 C 0.8241(17) 0.2583(10) 0.3629(8)
H2 H 0.7557 0.2826 0.3639
C3 C 0.913(2) 0.3036(10) 0.3393(8)
H3 H 0.9047 0.3598 0.3240
C4 C 1.0122(18) 0.2658(10) 0.3385(7)
H4 H 1.0719 0.2945 0.3212
C5 C 1.0215(12) 0.1834(7) 0.3642(6)
H5 H 1.0895 0.1585 0.3659
C6 C 0.8004(12) -0.1093(8) 0.4317(7)
H6 H 0.7533 -0.0630 0.4287
C7 C 0.7577(19) -0.1897(12) 0.4380(10)
H7 H 0.6838 -0.1990 0.4401
C8 C 0.8316(18) -0.2570(11) 0.4410(10)
H8 H 0.8061 -0.3129 0.4454
C9 C 0.9402(18) -0.2435(9) 0.4378(9)
H9 H 0.9895 -0.2884 0.4394
C10 C 0.9725(15) -0.1576(7) 0.4319(6)
H10 H 1.0457 -0.1454 0.4294
C11 C 1.1681(14) 0.0000 0.5000
C12 C 1.2889(13) 0.0000 0.5000
C13 C 1.3447(9) 0.0122(6) 0.4404(5)
H11 H 1.3067 0.0189 0.4000
C14 C 1.5267(11) 0.0316(6) 0.3766(5)
C15 C 1.4551(8) 0.0146(5) 0.4390(3)
C16 C 1.5115(12) 0.0000 0.5000
H12 H 1.5863 0.0000 0.5000
C17 C 1.7982(7) -0.0079(4) 0.2534(4)
C18 C 1.9029(6) -0.1444(4) 0.2509(4)
H13 H 1.8378 -0.1739 0.2516
C19 C 1.9035(6) -0.0546(4) 0.2505(3)
C20 C 2.0000 -0.0108(6) 0.2500
H14 H 2.0000 0.0489 0.2500
C21 C 2.0000 -0.2863(6) 0.2500
C22 C 2.0000 -0.1899(5) 0.2500
O1C O 1.1241(11) -0.0200(9) 0.5537(7)
O2C O 1.6192(10) -0.0533(6) 0.6141(5)
O6C O 1.4880(8) -0.0238(5) 0.6793(5)
C13C C 1.3447(9) -0.0122(6) 0.5596(5)
H11C H 1.3067 -0.0189 0.6000
C14C C 1.5267(11) -0.0316(6) 0.6234(5)
C15C C 1.4551(8) -0.0146(5) 0.5610(3)
O3B O 2.2081(5) 0.0702(3) 0.2598(4)
O4B O 2.2879(5) -0.0488(3) 0.2326(4)
O5B O 1.9099(5) -0.3213(3) 0.2416(3)
C17B C 2.2018(7) -0.0079(4) 0.2466(4)
C18B C 2.0971(6) -0.1444(4) 0.2491(4)
H13B H 2.1622 -0.1739 0.2484
C19B C 2.0965(6) -0.0546(4) 0.2495(3)
Ni1B Ni 1.37218(7) 0.05914(5) 0.23365(4)
Cu1C Cu 0.95937(13) -0.02199(9) 0.58004(8)
N1C N 0.9389(8) -0.1384(5) 0.6137(4)
N2C N 0.9041(9) 0.0939(5) 0.5704(4)
C1C C 0.8426(10) -0.1746(7) 0.6150(6)
H1C H 0.7840 -0.1425 0.6003
C2C C 0.8241(17) -0.2583(10) 0.6371(8)
H2C H 0.7557 -0.2826 0.6361
C3C C 0.913(2) -0.3036(10) 0.6607(8)
H3C H 0.9047 -0.3598 0.6760
C4C C 1.0122(18) -0.2658(10) 0.6615(7)
H4C H 1.0719 -0.2945 0.6788
C5C C 1.0215(12) -0.1834(7) 0.6358(6)
H5C H 1.0895 -0.1585 0.6341
C6C C 0.8004(12) 0.1093(8) 0.5683(7)
H6C H 0.7533 0.0630 0.5713
C7C C 0.7577(19) 0.1897(12) 0.5620(10)
H7C H 0.6838 0.1990 0.5599
C8C C 0.8316(18) 0.2570(11) 0.5590(10)
H8C H 0.8061 0.3129 0.5546
C9C C 0.9402(18) 0.2435(9) 0.5622(9)
H9C H 0.9895 0.2884 0.5606
C10C C 0.9725(15) 0.1576(7) 0.5681(6)
H10C H 1.0457 0.1454 0.5706
Ni1A Ni 1.37218(7) -0.05914(5) 0.76635(4)
Ni1B_2 Ni 2.37218(7) 0.05914(5) 0.23365(4)
Ni1C Ni 1.62782(7) -0.05914(5) 0.73365(4)
Ni1D Ni 2.12782(7) -0.44086(5) 0.26635(4)
Ni1F Ni 1.87218(7) -0.44086(5) 0.23365(4)
O2B O 1.3808(10) 0.0533(6) 0.1141(5)
O3B_2 O 1.2081(5) 0.0702(3) 0.2598(4)
O4B_2 O 1.2879(5) -0.0488(3) 0.2326(4)
O5D O 1.5901(5) 0.1787(3) 0.2584(3)
O5F O 1.4099(5) 0.1787(3) 0.2416(3)
O6B O 1.5120(8) 0.0238(5) 0.1793(5)
loop_
_geom_bond_atom_site_label_1
_geom_bond_atom_site_label_2
_geom_bond_site_symmetry_1
_geom_bond_site_symmetry_2
Cu1 N1 1_555 1_555
Ni1 O2 1_555 1_555
N1 C1 1_555 1_555
N2 Cu1 1_555 1_555
O1 Cu1 1_555 1_555
O2 C14 1_555 1_555
O3 Ni1 1_555 1_555
O4 Ni1 1_555 1_555
O5 C21 1_555 1_555
O6 Ni1 1_555 1_555
C1 H1 1_555 1_555
C2 C1 1_555 1_555
H2 C2 1_555 1_555
C3 C2 1_555 1_555
H3 C3 1_555 1_555
C4 C3 1_555 1_555
H4 C4 1_555 1_555
C5 N1 1_555 1_555
H5 C5 1_555 1_555
C6 N2 1_555 1_555
H6 C6 1_555 1_555
C7 C6 1_555 1_555
H7 C7 1_555 1_555
C8 C7 1_555 1_555
H8 C8 1_555 1_555
C9 C8 1_555 1_555
H9 C9 1_555 1_555
C10 N2 1_555 1_555
H10 C10 1_555 1_555
C11 O1 1_555 1_555
C12 C11 1_555 1_555
C13 C12 1_555 1_555
H11 C13 1_555 1_555
C14 O6 1_555 1_555
C15 C13 1_555 1_555
C16 C15 1_555 1_555
H12 C16 1_555 1_555
C17 O3 1_555 1_555
C18 H13 1_555 1_555
C19 C17 1_555 1_555
C20 C19 1_555 1_555
H14 C20 1_555 1_555
C21 C22 1_555 1_555
C22 C18 1_555 1_555
O1C C11 1_555 1_555
O2C C14C 1_555 1_555
O6C C14C 1_555 1_555
C13C C12 1_555 1_555
H11C C13C 1_555 1_555
C14C C15C 1_555 1_555
C15C C16 1_555 1_555
O3B C17B 1_555 1_555
O4B C17B 1_555 1_555
O5B C21 1_555 1_555
C17B C19B 1_555 1_555
C18B C22 1_555 1_555
H13B C18B 1_555 1_555
C19B C20 1_555 1_555
Ni1B O6 1_555 1_555
Cu1C O1C 1_555 1_555
N1C Cu1C 1_555 1_555
N2C Cu1C 1_555 1_555
C1C N1C 1_555 1_555
H1C C1C 1_555 1_555
C2C C1C 1_555 1_555
H2C C2C 1_555 1_555
C3C C2C 1_555 1_555
H3C C3C 1_555 1_555
C4C C3C 1_555 1_555
H4C C4C 1_555 1_555
C5C N1C 1_555 1_555
H5C C5C 1_555 1_555
C6C N2C 1_555 1_555
H6C C6C 1_555 1_555
C7C C6C 1_555 1_555
H7C C7C 1_555 1_555
C8C C7C 1_555 1_555
H8C C8C 1_555 1_555
C9C C8C 1_555 1_555
H9C C9C 1_555 1_555
C10C N2C 1_555 1_555
H10C C10C 1_555 1_555
Ni1A O6C 1_555 1_555
Ni1B_2 O3B 1_555 1_555
Ni1C O2C 1_555 1_555
Ni1D O5 1_555 1_555
Ni1F O5B 1_555 1_555
O2B Ni1B 1_555 1_555
O3B_2 Ni1B 1_555 1_555
O4B_2 Ni1B 1_555 1_555
O5D Ni1 1_555 1_555
O5F Ni1B 1_555 1_555
O6B Ni1 1_555 1_555
O4 C17 1_555 1_555
C4 C5 1_555 1_555
C9 C10 1_555 1_555
C14 C15 1_555 1_555
C18 C19 1_555 1_555
O6C Ni1C 1_555 1_555
C13C C15C 1_555 1_555
O4B Ni1B_2 1_555 1_555
C18B C19B 1_555 1_555
Ni1B O6B 1_555 1_555
C4C C5C 1_555 1_555
C9C C10C 1_555 1_555

#END
