
#######################################################################
#
#                 Cambridge Crystallographic Data Centre
#                                CCDC 
#
#######################################################################
#
# If this CIF has been generated from an entry in the Cambridge 
# Structural Database, then it will include bibliographic, chemical, 
# crystal, experimental, refinement or atomic coordinate data resulting 
# from the CCDC's data processing and validation procedures.
#
#######################################################################

data_RIBDEM
_symmetry_cell_setting           monoclinic
_symmetry_space_group_name_H-M   'P 2/n'
_symmetry_Int_Tables_number      13
_space_group_name_Hall           '-P 2yac'
loop_
_symmetry_equiv_pos_site_id
_symmetry_equiv_pos_as_xyz
1 x,y,z
2 1/2-x,y,1/2-z
3 -x,-y,-z
4 1/2+x,-y,1/2+z
_cell_length_a                   6.8956(6)
_cell_length_b                   14.5781(12)
_cell_length_c                   10.5162(9)
_cell_angle_alpha                90
_cell_angle_beta                 103.531(4)
_cell_angle_gamma                90
_cell_volume                     1027.8
loop_
_atom_site_label
_atom_site_type_symbol
_atom_site_fract_x
_atom_site_fract_y
_atom_site_fract_z
Ru1 Ru 0.2500 0.251059(9) 0.7500
O3 O -0.40882(19) 0.55767(8) 0.61104(12)
H5 H -0.3755 0.6153 0.5774
H6 H -0.5511 0.5606 0.5988
N1 N 0.05898(19) 0.13767(9) 0.68946(12)
N2 N 0.1537(2) 0.24910(8) 1.03274(16)
N3 N -0.0566(2) 0.41138(9) 0.66947(13)
C1 C -0.1340(2) 0.14316(11) 0.62429(14)
H7 H -0.1930 0.2020 0.6057
C2 C -0.2491(2) 0.06599(12) 0.58341(15)
H8 H -0.3840 0.0720 0.5363
C3 C -0.1646(3) -0.02022(11) 0.61221(16)
H9 H -0.2412 -0.0741 0.5863
C4 C 0.0336(2) -0.02639(11) 0.67941(15)
H10 H 0.0942 -0.0847 0.7005
C5 C 0.1431(2) 0.05364(10) 0.71581(13)
C6 C 0.1865(3) 0.25066(8) 0.92939(17)
C7 C 0.0539(2) 0.35030(10) 0.69661(14)
Li1 Li -0.2500 0.4858(3) 0.7500
O3A O -0.09118(19) 0.55767(8) 0.88896(12)
H5A H -0.1245 0.6153 0.9226
H6A H 0.0511 0.5606 0.9012
N1A N 0.44102(19) 0.13767(9) 0.81054(12)
N2A N 0.3463(2) 0.24910(8) 0.46726(16)
N3A N 0.5566(2) 0.41138(9) 0.83053(13)
N3A_2 N -0.4434(2) 0.41138(9) 0.83053(13)
C1A C 0.6340(2) 0.14316(11) 0.87571(14)
H7A H 0.6930 0.2020 0.8943
C2A C 0.7491(2) 0.06599(12) 0.91659(15)
H8A H 0.8840 0.0720 0.9637
C3A C 0.6646(3) -0.02022(11) 0.88779(16)
H9A H 0.7412 -0.0741 0.9137
C4A C 0.4664(2) -0.02639(11) 0.82059(15)
H10A H 0.4058 -0.0847 0.7995
C5A C 0.3569(2) 0.05364(10) 0.78419(13)
C6A C 0.3135(3) 0.25066(8) 0.57061(17)
C7A C 0.4461(2) 0.35030(10) 0.80339(14)
Li1_2 Li 0.7500 0.4858(3) 0.7500
O1 O -0.0259(2) 0.24828(7) 0.25002(13)
H1 H 0.0291 0.2453 0.1743
H2 H 0.0873 0.2508 0.3232
O2 O -0.1676(2) 0.42025(9) 0.38786(12)
H3 H -0.1184 0.4134 0.4806
H4 H -0.1153 0.4781 0.3675
Li2 Li -0.2500 0.3296(3) 0.2500
O1A O -0.4741(2) 0.24828(7) 0.24998(13)
H1A H -0.5291 0.2453 0.3257
H2A H -0.5873 0.2508 0.1768
O2A O -0.3324(2) 0.42025(9) 0.11214(12)
H3A H -0.3816 0.4134 0.0194
H4A H -0.3847 0.4781 0.1325
loop_
_geom_bond_atom_site_label_1
_geom_bond_atom_site_label_2
_geom_bond_site_symmetry_1
_geom_bond_site_symmetry_2
Ru1 N1 1_555 1_555
O1 H1 1_555 1_555
H2 O1 1_555 1_555
O2 H3 1_555 1_555
H4 O2 1_555 1_555
O3 H5 1_555 1_555
H6 O3 1_555 1_555
N1 C1 1_555 1_555
N2 C6 1_555 1_555
N3 C7 1_555 1_555
C1 H7 1_555 1_555
C2 C1 1_555 1_555
H8 C2 1_555 1_555
C3 C2 1_555 1_555
H9 C3 1_555 1_555
C4 C3 1_555 1_555
H10 C4 1_555 1_555
C5 N1 1_555 1_555
C6 Ru1 1_555 1_555
C7 Ru1 1_555 1_555
Li1 O3 1_555 1_555
Li2 O1 1_555 1_555
O1A Li2 1_555 1_555
H1A O1A 1_555 1_555
H2A O1A 1_555 1_555
O2A Li2 1_555 1_555
H3A O2A 1_555 1_555
H4A O2A 1_555 1_555
O3A Li1 1_555 1_555
H5A O3A 1_555 1_555
H6A O3A 1_555 1_555
N1A Ru1 1_555 1_555
N2A C6A 1_555 1_555
N3A C7A 1_555 1_555
N3A_2 Li1 1_555 1_555
C1A N1A 1_555 1_555
H7A C1A 1_555 1_555
C2A C1A 1_555 1_555
H8A C2A 1_555 1_555
C3A C2A 1_555 1_555
H9A C3A 1_555 1_555
C4A C3A 1_555 1_555
H10A C4A 1_555 1_555
C5A C5 1_555 1_555
C6A Ru1 1_555 1_555
C7A Ru1 1_555 1_555
Li1_2 N3A 1_555 1_555
O2 Li2 1_555 1_555
N3 Li1 1_555 1_555
C4 C5 1_555 1_555
N1A C5A 1_555 1_555
C4A C5A 1_555 1_555

#END
