
#######################################################################
#
#                 Cambridge Crystallographic Data Centre
#                                CCDC 
#
#######################################################################
#
# If this CIF has been generated from an entry in the Cambridge 
# Structural Database, then it will include bibliographic, chemical, 
# crystal, experimental, refinement or atomic coordinate data resulting 
# from the CCDC's data processing and validation procedures.
#
#######################################################################

data_RIBDAI
_symmetry_cell_setting           triclinic
_symmetry_space_group_name_H-M   'P -1'
_symmetry_Int_Tables_number      2
_space_group_name_Hall           '-P 1'
loop_
_symmetry_equiv_pos_site_id
_symmetry_equiv_pos_as_xyz
1 x,y,z
2 -x,-y,-z
_cell_length_a                   7.8843(9)
_cell_length_b                   14.8087(17)
_cell_length_c                   18.078(3)
_cell_angle_alpha                111.702(6)
_cell_angle_beta                 100.355(6)
_cell_angle_gamma                96.102(4)
_cell_volume                     1894.39
loop_
_atom_site_label
_atom_site_type_symbol
_atom_site_fract_x
_atom_site_fract_y
_atom_site_fract_z
Ru1 Ru 0.122290(19) 0.484428(10) 0.227990(9)
Ru2 Ru -0.131082(19) -0.003903(11) 0.261994(9)
K1 K 0.61250(6) 0.35982(4) 0.25706(3)
K2 K 0.11346(6) 0.17149(4) 0.18312(3)
Li1 Li 0.3191(5) 0.3200(3) 0.4205(2)
Li2 Li -0.3261(5) 0.1602(2) 0.0680(2)
O1 O 0.5236(2) 0.26597(13) 0.43837(11)
H1 H 0.5382 0.1984 0.4156
H2 H 0.6379 0.3077 0.4604
O2 O 0.2949(3) 0.42334(13) 0.51799(11)
H3 H 0.2489 0.4281 0.5647
H4 H 0.2571 0.4756 0.5039
O3 O -0.33612(19) 0.05635(11) -0.03833(9)
H5 H -0.4489 0.0170 -0.0705
H6 H -0.2784 0.0591 -0.0801
O4 O 0.4678(2) 0.21737(11) 0.06657(10)
H7 H 0.4543 0.2847 0.0792
H8 H 0.3508 0.1790 0.0460
N1 N 0.0138(2) 0.55181(12) 0.15093(10)
N2 N 0.2720(2) 0.63041(12) 0.28437(10)
N3 N 0.4135(2) 0.41176(13) 0.12896(11)
N4 N -0.1308(2) 0.27827(13) 0.12778(11)
N5 N 0.3126(3) 0.39105(15) 0.34227(12)
N6 N -0.1441(3) 0.55002(13) 0.34321(12)
N7 N -0.0176(2) -0.06565(12) 0.34289(10)
N8 N -0.2750(2) -0.15070(12) 0.20948(10)
N9 N 0.1204(3) -0.06371(14) 0.13947(12)
N10 N -0.3174(2) 0.07386(13) 0.13562(11)
N11 N 0.1167(3) 0.20290(14) 0.36137(12)
N12 N -0.4131(3) 0.07300(14) 0.36643(12)
C1 C -0.1202(3) 0.50757(15) 0.08391(12)
H9 H -0.1786 0.4425 0.0717
C2 C -0.1756(3) 0.55345(17) 0.03240(13)
H10 H -0.2713 0.5206 -0.0140
C3 C -0.0903(3) 0.64765(17) 0.04899(14)
H11 H -0.1239 0.6796 0.0132
C4 C 0.0451(3) 0.69484(15) 0.11857(13)
H12 H 0.1046 0.7600 0.1316
C5 C 0.0930(2) 0.64563(14) 0.16924(12)
C6 C 0.2319(2) 0.69110(14) 0.24569(12)
C7 C 0.3153(3) 0.79002(15) 0.27755(13)
H13 H 0.2844 0.8315 0.2499
C8 C 0.4434(3) 0.82687(16) 0.34994(14)
H14 H 0.5020 0.8940 0.3725
C9 C 0.4853(3) 0.76479(16) 0.38913(13)
H15 H 0.5733 0.7886 0.4388
C10 C 0.3966(3) 0.66727(15) 0.35473(12)
H16 H 0.4251 0.6250 0.3820
C11 C 0.3048(3) 0.43915(14) 0.16157(12)
C12 C -0.0360(3) 0.35406(14) 0.16488(12)
C13 C 0.2432(3) 0.42862(15) 0.30244(12)
C14 C -0.0500(3) 0.52756(14) 0.30029(12)
C15 C -0.3989(3) -0.19121(15) 0.13888(12)
H17 H -0.4290 -0.1512 0.1097
C16 C -0.4845(3) -0.28871(16) 0.10691(13)
H18 H -0.5718 -0.3149 0.0569
C17 C -0.4408(3) -0.34760(15) 0.14912(13)
H19 H -0.4974 -0.4149 0.1284
C18 C -0.3133(3) -0.30677(15) 0.22199(13)
H20 H -0.2810 -0.3459 0.2517
C19 C -0.2331(2) -0.20796(14) 0.25124(12)
C20 C -0.0946(2) -0.15871(14) 0.32781(12)
C21 C -0.0451(3) -0.20382(15) 0.38155(13)
H21 H -0.1031 -0.2686 0.3707
C22 C 0.0893(3) -0.15331(17) 0.45091(13)
H22 H 0.1236 -0.1824 0.4888
C23 C 0.1726(3) -0.06003(17) 0.46414(13)
H23 H 0.2680 -0.0250 0.5103
C24 C 0.1162(3) -0.01805(16) 0.40970(13)
H24 H 0.1734 0.0465 0.4196
C25 C 0.0367(3) -0.04472(14) 0.18728(13)
C26 C -0.2508(3) 0.04391(14) 0.18237(12)
C27 C 0.0226(3) 0.12701(15) 0.32399(13)
C28 C -0.3113(3) 0.04295(14) 0.33034(12)
O5 O 0.1450(2) 0.09469(11) 0.01938(10)
H25 H 0.1908 0.0349 0.0099
H26 H 0.0721 0.0885 -0.0315
O6 O 0.4529(2) 0.17749(13) 0.24145(10)
H27 H 0.5213 0.1343 0.2111
H28 H 0.4600 0.1558 0.2856
O7 O 0.8991(3) 0.34370(14) 0.35652(13)
H29 H 0.9466 0.2866 0.3563
H30 H 0.9874 0.3930 0.3557
K1_2 K -0.38750(6) 0.35982(4) 0.25706(3)
Li2_2 Li 0.6739(5) 0.1602(2) 0.0680(2)
O4_2 O -0.5322(2) 0.21737(11) 0.06657(10)
H7_2 H -0.5457 0.2847 0.0792
H8_2 H -0.6492 0.1790 0.0460
N4_2 N 0.8692(2) 0.27827(13) 0.12778(11)
N6_2 N 0.8559(3) 0.55002(13) 0.34321(12)
C12_2 C 0.9640(3) 0.35406(14) 0.16488(12)
C14_2 C 0.9500(3) 0.52756(14) 0.30029(12)
O8 O 0.8252(3) 0.40748(16) 0.50681(13)
H31 H 0.9159 0.4259 0.5558
H32 H 0.8808 0.3865 0.4618
loop_
_geom_bond_atom_site_label_1
_geom_bond_atom_site_label_2
_geom_bond_site_symmetry_1
_geom_bond_site_symmetry_2
Ru1 N1 1_555 1_555
Ru2 N7 1_555 1_555
K1 O4 1_555 1_555
K2 N4 1_555 1_555
Li1 O1 1_555 1_555
Li2 O3 1_555 1_555
O1 H1 1_555 1_555
H2 O1 1_555 1_555
O2 Li1 1_555 1_555
H3 O2 1_555 1_555
H4 O2 1_555 1_555
O3 H5 1_555 1_555
H6 O3 1_555 1_555
O4 H7 1_555 1_555
H8 O4 1_555 1_555
N1 C1 1_555 1_555
N2 Ru1 1_555 1_555
N3 K1 1_555 1_555
N4 Li2 1_555 1_555
N5 K1 1_555 1_555
N6 C14 1_555 1_555
N7 C20 1_555 1_555
N8 Ru2 1_555 1_555
N9 K2 1_555 1_555
N10 K2 1_555 1_555
N11 K2 1_555 1_555
N12 C28 1_555 1_555
C1 H9 1_555 1_555
C2 C1 1_555 1_555
H10 C2 1_555 1_555
C3 C2 1_555 1_555
H11 C3 1_555 1_555
C4 C3 1_555 1_555
H12 C4 1_555 1_555
C5 N1 1_555 1_555
C6 N2 1_555 1_555
C7 C6 1_555 1_555
H13 C7 1_555 1_555
C8 C7 1_555 1_555
H14 C8 1_555 1_555
C9 C8 1_555 1_555
H15 C9 1_555 1_555
C10 N2 1_555 1_555
H16 C10 1_555 1_555
C11 Ru1 1_555 1_555
C12 Ru1 1_555 1_555
C13 Ru1 1_555 1_555
C14 Ru1 1_555 1_555
C15 N8 1_555 1_555
H17 C15 1_555 1_555
C16 C15 1_555 1_555
H18 C16 1_555 1_555
C17 C16 1_555 1_555
H19 C17 1_555 1_555
C18 C17 1_555 1_555
H20 C18 1_555 1_555
C19 N8 1_555 1_555
C20 C19 1_555 1_555
C21 C20 1_555 1_555
H21 C21 1_555 1_555
C22 C21 1_555 1_555
H22 C22 1_555 1_555
C23 C22 1_555 1_555
H23 C23 1_555 1_555
C24 N7 1_555 1_555
H24 C24 1_555 1_555
C25 Ru2 1_555 1_555
C26 Ru2 1_555 1_555
C27 Ru2 1_555 1_555
C28 Ru2 1_555 1_555
O5 K2 1_555 1_555
H25 O5 1_555 1_555
H26 O5 1_555 1_555
O6 K1 1_555 1_555
H27 O6 1_555 1_555
H28 O6 1_555 1_555
O7 K1 1_555 1_555
H29 O7 1_555 1_555
H30 O7 1_555 1_555
O8 H31 1_555 1_555
H32 O8 1_555 1_555
K1_2 N4 1_555 1_555
Li2_2 O4 1_555 1_555
O4_2 Li2 1_555 1_555
H7_2 O4_2 1_555 1_555
H8_2 O4_2 1_555 1_555
N4_2 K1 1_555 1_555
N6_2 K1 1_555 1_555
C12_2 K1 1_555 1_555
C14_2 K1 1_555 1_555
K1 C11 1_555 1_555
K1 C13 1_555 1_555
K2 N5 1_555 1_555
K2 C12 1_555 1_555
K2 C13 1_555 1_555
K2 C25 1_555 1_555
K2 C26 1_555 1_555
K2 C27 1_555 1_555
K2 O6 1_555 1_555
Li1 N5 1_555 1_555
Li1 N11 1_555 1_555
Li2 N10 1_555 1_555
N3 C11 1_555 1_555
N4 C12 1_555 1_555
N5 C13 1_555 1_555
N6 K1_2 1_555 1_555
N9 C25 1_555 1_555
N10 C26 1_555 1_555
N11 C27 1_555 1_555
C4 C5 1_555 1_555
C5 C6 1_555 1_555
C9 C10 1_555 1_555
C12 K1_2 1_555 1_555
C14 K1_2 1_555 1_555
C18 C19 1_555 1_555
C23 C24 1_555 1_555
K1_2 O4_2 1_555 1_555
Li2_2 N4_2 1_555 1_555
N4_2 C12_2 1_555 1_555
N6_2 C14_2 1_555 1_555

#END
