
#######################################################################
#
#                 Cambridge Crystallographic Data Centre
#                                CCDC 
#
#######################################################################
#
# If this CIF has been generated from an entry in the Cambridge 
# Structural Database, then it will include bibliographic, chemical, 
# crystal, experimental, refinement or atomic coordinate data resulting 
# from the CCDC's data processing and validation procedures.
#
#######################################################################

data_RIBROL
_symmetry_cell_setting           triclinic
_symmetry_space_group_name_H-M   'P -1'
_symmetry_Int_Tables_number      2
_space_group_name_Hall           '-P 1'
loop_
_symmetry_equiv_pos_site_id
_symmetry_equiv_pos_as_xyz
1 x,y,z
2 -x,-y,-z
_cell_length_a                   8.4360(5)
_cell_length_b                   8.4562(7)
_cell_length_c                   10.4267(7)
_cell_angle_alpha                85.234(2)
_cell_angle_beta                 78.750(6)
_cell_angle_gamma                81.2300(10)
_cell_volume                     719.891
loop_
_atom_site_label
_atom_site_type_symbol
_atom_site_fract_x
_atom_site_fract_y
_atom_site_fract_z
Co1 Co -0.42565(6) 0.45617(7) 0.37410(5)
O1 O -0.2959(3) 0.3716(4) 0.5266(3)
O2 O -0.3992(3) 0.4415(3) 0.7282(3)
O3 O 0.4565(3) 0.2636(3) 0.4219(3)
O4 O 0.3405(3) 0.3341(3) 0.6234(3)
N1 N -0.2331(4) 0.3580(4) 0.2364(3)
N2 N 0.2010(4) 0.3603(4) 0.1209(4)
H1 H 0.2229 0.4072 0.1840
C1 C -0.2922(5) 0.3649(5) 0.6455(4)
C2 C -0.1560(5) 0.2565(5) 0.6936(4)
H2 H -0.1945 0.1559 0.7269
H3 H -0.1288 0.3048 0.7662
C3 C -0.0030(5) 0.2211(5) 0.5929(4)
H4 H 0.0397 0.3204 0.5619
H5 H -0.0291 0.1751 0.5187
C4 C 0.1271(4) 0.1054(5) 0.6486(4)
H6 H 0.1404 0.1431 0.7307
H7 H 0.0912 0.0008 0.6666
C5 C 0.2894(5) 0.0900(5) 0.5553(4)
H8 H 0.3639 0.0061 0.5902
H9 H 0.2739 0.0570 0.4723
C6 C 0.3670(4) 0.2408(5) 0.5310(4)
C7 C -0.0814(5) 0.3861(5) 0.2248(4)
H10 H -0.0582 0.4500 0.2853
C8 C 0.0458(5) 0.3263(5) 0.1283(4)
C9 C 0.0069(5) 0.2302(5) 0.0397(4)
H11 H 0.0870 0.1866 -0.0274
C10 C -0.1508(5) 0.2009(5) 0.0530(4)
H12 H -0.1783 0.1363 -0.0049
C11 C -0.2677(5) 0.2664(5) 0.1512(4)
H13 H -0.3745 0.2462 0.1586
C12 C 0.4123(4) 0.1538(5) 0.0057(4)
C13 C 0.4872(5) 0.0926(5) -0.1132(4)
H14 H 0.4787 0.1542 -0.1903
C14 C 0.5743(4) -0.0591(5) -0.1185(4)
H15 H 0.6248 -0.0982 -0.1993
C15 C 0.3294(5) 0.3242(5) 0.0086(5)
H16 H 0.4114 0.3939 0.0061
H17 H 0.2834 0.3497 -0.0702
N1A N 1.2331(4) -0.3580(4) -0.2364(3)
N2A N 0.7990(4) -0.3603(4) -0.1209(4)
H1A H 0.7771 -0.4072 -0.1840
C7A C 1.0814(5) -0.3861(5) -0.2248(4)
H10A H 1.0582 -0.4500 -0.2853
C8A C 0.9542(5) -0.3263(5) -0.1283(4)
C9A C 0.9931(5) -0.2302(5) -0.0397(4)
H11A H 0.9130 -0.1866 0.0274
C10A C 1.1508(5) -0.2009(5) -0.0530(4)
H12A H 1.1783 -0.1363 0.0049
C11A C 1.2677(5) -0.2664(5) -0.1512(4)
H13A H 1.3745 -0.2462 -0.1586
C12A C 0.5877(4) -0.1538(5) -0.0057(4)
C13A C 0.5128(5) -0.0926(5) 0.1132(4)
H14A H 0.5213 -0.1542 0.1903
C14A C 0.4257(4) 0.0591(5) 0.1185(4)
H15A H 0.3752 0.0982 0.1993
C15A C 0.6706(5) -0.3242(5) -0.0086(5)
H16A H 0.5886 -0.3939 -0.0061
H17A H 0.7166 -0.3497 0.0702
Co1A Co -0.57435(6) 0.54383(7) 0.62590(5)
O1A O -0.7041(3) 0.6284(4) 0.4734(3)
O2A O -0.6008(3) 0.5585(3) 0.2718(3)
O3A O -1.4565(3) 0.7364(3) 0.5781(3)
O4A O -1.3405(3) 0.6659(3) 0.3766(3)
C1A C -0.7078(5) 0.6351(5) 0.3545(4)
C2A C -0.8440(5) 0.7435(5) 0.3064(4)
H2A H -0.8055 0.8441 0.2731
H3A H -0.8712 0.6952 0.2338
C3A C -0.9970(5) 0.7789(5) 0.4071(4)
H4A H -1.0397 0.6796 0.4381
H5A H -0.9709 0.8249 0.4813
C4A C -1.1271(4) 0.8946(5) 0.3514(4)
H6A H -1.1404 0.8569 0.2693
H7A H -1.0912 0.9992 0.3334
C5A C -1.2894(5) 0.9100(5) 0.4447(4)
H8A H -1.3639 0.9939 0.4098
H9A H -1.2739 0.9430 0.5277
C6A C -1.3670(4) 0.7592(5) 0.4690(4)
Co1_2 Co -1.42565(6) 0.45617(7) 0.37410(5)
Co1_3 Co 0.57435(6) 0.45617(7) 0.37410(5)
Co1A_2 Co -1.57435(6) 0.54383(7) 0.62590(5)
Co1A_3 Co 0.42565(6) 0.54383(7) 0.62590(5)
Co1A_4 Co 1.42565(6) -0.45617(7) -0.37410(5)
O3_2 O -0.5435(3) 0.2636(3) 0.4219(3)
O3A_2 O -0.4565(3) 0.7364(3) 0.5781(3)
O4_2 O -0.6595(3) 0.3341(3) 0.6234(3)
O4A_2 O -0.3405(3) 0.6659(3) 0.3766(3)
N1A_2 N -0.7669(4) 0.6420(4) 0.7636(3)
loop_
_geom_bond_atom_site_label_1
_geom_bond_atom_site_label_2
_geom_bond_site_symmetry_1
_geom_bond_site_symmetry_2
Co1 O1 1_555 1_555
O1 C1 1_555 1_555
O2 C1 1_555 1_555
O3 C6 1_555 1_555
O4 C6 1_555 1_555
N1 Co1 1_555 1_555
N2 H1 1_555 1_555
C1 C2 1_555 1_555
C2 H2 1_555 1_555
H3 C2 1_555 1_555
C3 C2 1_555 1_555
H4 C3 1_555 1_555
H5 C3 1_555 1_555
C4 C3 1_555 1_555
H6 C4 1_555 1_555
H7 C4 1_555 1_555
C5 C4 1_555 1_555
H8 C5 1_555 1_555
H9 C5 1_555 1_555
C6 C5 1_555 1_555
C7 N1 1_555 1_555
H10 C7 1_555 1_555
C8 N2 1_555 1_555
C9 C8 1_555 1_555
H11 C9 1_555 1_555
C10 C9 1_555 1_555
H12 C10 1_555 1_555
C11 N1 1_555 1_555
H13 C11 1_555 1_555
C12 C13 1_555 1_555
C13 H14 1_555 1_555
C14 C13 1_555 1_555
H15 C14 1_555 1_555
C15 N2 1_555 1_555
H16 C15 1_555 1_555
H17 C15 1_555 1_555
N1A C7A 1_555 1_555
N2A H1A 1_555 1_555
C7A H10A 1_555 1_555
C8A N2A 1_555 1_555
C9A C8A 1_555 1_555
H11A C9A 1_555 1_555
C10A C9A 1_555 1_555
H12A C10A 1_555 1_555
C11A N1A 1_555 1_555
H13A C11A 1_555 1_555
C12A C14 1_555 1_555
C13A C12A 1_555 1_555
H14A C13A 1_555 1_555
C14A C12 1_555 1_555
H15A C14A 1_555 1_555
C15A N2A 1_555 1_555
H16A C15A 1_555 1_555
H17A C15A 1_555 1_555
Co1A O2 1_555 1_555
O1A Co1A 1_555 1_555
O2A Co1 1_555 1_555
O3A C6A 1_555 1_555
O4A C6A 1_555 1_555
C1A O1A 1_555 1_555
C2A C1A 1_555 1_555
H2A C2A 1_555 1_555
H3A C2A 1_555 1_555
C3A C2A 1_555 1_555
H4A C3A 1_555 1_555
H5A C3A 1_555 1_555
C4A C3A 1_555 1_555
H6A C4A 1_555 1_555
H7A C4A 1_555 1_555
C5A C4A 1_555 1_555
H8A C5A 1_555 1_555
H9A C5A 1_555 1_555
C6A C5A 1_555 1_555
Co1_2 O4A 1_555 1_555
Co1_3 O3 1_555 1_555
Co1A_2 O3A 1_555 1_555
Co1A_3 O4 1_555 1_555
Co1A_4 N1A 1_555 1_555
O3_2 Co1 1_555 1_555
O3A_2 Co1A 1_555 1_555
O4_2 Co1A 1_555 1_555
O4A_2 Co1 1_555 1_555
N1A_2 Co1A 1_555 1_555
C7 C8 1_555 1_555
C10 C11 1_555 1_555
C12 C15 1_555 1_555
C7A C8A 1_555 1_555
C10A C11A 1_555 1_555
C12A C15A 1_555 1_555
C13A C14A 1_555 1_555
O2A C1A 1_555 1_555

#END
