
#######################################################################
#
#                 Cambridge Crystallographic Data Centre
#                                CCDC 
#
#######################################################################
#
# If this CIF has been generated from an entry in the Cambridge 
# Structural Database, then it will include bibliographic, chemical, 
# crystal, experimental, refinement or atomic coordinate data resulting 
# from the CCDC's data processing and validation procedures.
#
#######################################################################

data_RIBSAY
_symmetry_cell_setting           triclinic
_symmetry_space_group_name_H-M   'P -1'
_symmetry_Int_Tables_number      2
_space_group_name_Hall           '-P 1'
loop_
_symmetry_equiv_pos_site_id
_symmetry_equiv_pos_as_xyz
1 x,y,z
2 -x,-y,-z
_cell_length_a                   11.050(3)
_cell_length_b                   12.255(4)
_cell_length_c                   13.652(4)
_cell_angle_alpha                94.145(7)
_cell_angle_beta                 106.864(6)
_cell_angle_gamma                107.510(5)
_cell_volume                     1661.26
loop_
_atom_site_label
_atom_site_type_symbol
_atom_site_fract_x
_atom_site_fract_y
_atom_site_fract_z
Cu1 Cu -0.00875(16) 0.31902(13) 0.12800(11)
Cu2 Cu 0.00349(16) 0.57265(13) 0.11357(11)
Cu3 Cu 0.00699(17) 0.82265(13) 0.09688(12)
Cu4 Cu -0.01895(17) 0.06349(13) 0.12702(12)
Cu5 Cu 0.0000 0.5000 0.5000
Cu6 Cu 0.04189(19) 0.80176(16) 0.50155(13)
O1 O -0.0995(11) 0.5875(9) 0.2327(7)
O2 O 0.0360(10) 0.6898(9) 0.3904(7)
O3 O -0.1467(10) 0.2989(7) 0.2238(7)
O4 O -0.0084(9) 0.3932(8) 0.3841(7)
O5 O -0.1656(10) 0.0215(8) 0.2152(7)
O6 O -0.0366(10) 0.1098(8) 0.3791(7)
N1 N -0.1371(12) 0.7835(11) 0.4138(8)
N2 N -0.1904(12) 0.4637(10) 0.4255(8)
N3 N -0.2340(12) 0.1527(10) 0.4222(8)
N4 N -0.1160(11) 0.1565(9) 0.0393(8)
N5 N -0.2388(14) 0.1229(10) 0.0080(9)
N6 N -0.3535(15) 0.0883(14) -0.0218(14)
N7 N 0.1019(11) 0.2240(8) 0.1953(8)
N8 N 0.1871(11) 0.2504(9) 0.2795(9)
N9 N 0.2680(15) 0.2753(12) 0.3590(10)
N10 N -0.1124(11) 0.4105(8) 0.0424(8)
N11 N -0.2334(13) 0.3780(10) 0.0119(10)
N12 N -0.3469(16) 0.3460(15) -0.0200(16)
N13 N 0.1155(12) 0.4806(10) 0.1827(8)
N14 N 0.2158(15) 0.5210(10) 0.2599(10)
N15 N 0.3118(17) 0.5587(14) 0.3302(13)
N16 N -0.1043(11) 0.6617(8) 0.0274(8)
N17 N -0.2242(15) 0.6225(10) -0.0125(10)
N18 N -0.3379(17) 0.5857(15) -0.0548(15)
N19 N 0.1244(12) 0.7363(9) 0.1700(9)
N20 N 0.2338(13) 0.7759(10) 0.2326(10)
N21 N 0.3393(14) 0.8138(12) 0.2916(13)
N22 N -0.1108(12) 0.9083(9) 0.0318(8)
N23 N -0.2279(16) 0.8682(11) -0.0214(11)
N24 N -0.3389(19) 0.8355(14) -0.0740(17)
N25 N 0.1039(11) 0.9761(8) 0.1927(8)
N26 N 0.1411(13) 0.9728(10) 0.2856(10)
N27 N 0.1764(19) 0.9714(13) 0.3741(11)
C1 C -0.0690(17) 0.6609(12) 0.3124(11)
C2 C -0.1759(17) 0.7129(13) 0.3185(12)
C3 C -0.2968(17) 0.6934(15) 0.2439(12)
H1 H -0.3172 0.6482 0.1798
C4 C -0.3892(19) 0.7396(18) 0.2622(14)
H2 H -0.4724 0.7253 0.2122
C5 C -0.3526(18) 0.8090(15) 0.3592(14)
H3 H -0.4111 0.8430 0.3745
C6 C -0.2277(17) 0.8265(14) 0.4325(12)
H4 H -0.2063 0.8703 0.4976
C7 C -0.1182(13) 0.3605(11) 0.3093(11)
C8 C -0.2307(14) 0.3966(12) 0.3316(10)
C9 C -0.3586(16) 0.3659(14) 0.2622(11)
H5 H -0.3832 0.3203 0.1975
C10 C -0.4478(16) 0.4049(15) 0.2919(12)
H6 H -0.5358 0.3840 0.2474
C11 C -0.4093(18) 0.4755(15) 0.3880(12)
H7 H -0.4695 0.5034 0.4081
C12 C -0.2795(16) 0.5024(13) 0.4517(11)
H8 H -0.2522 0.5496 0.5160
C13 C -0.1487(16) 0.0717(12) 0.3041(12)
C14 C -0.2673(15) 0.0900(11) 0.3254(11)
C15 C -0.3958(16) 0.0525(12) 0.2571(11)
H9 H -0.4172 0.0109 0.1911
C16 C -0.4919(17) 0.0787(15) 0.2897(13)
H10 H -0.5796 0.0555 0.2444
C17 C -0.4607(15) 0.1393(15) 0.3895(13)
H11 H -0.5266 0.1549 0.4119
C18 C -0.3319(16) 0.1742(14) 0.4520(12)
H12 H -0.3096 0.2148 0.5186
Cu1A Cu 0.00875(16) 0.68098(13) -0.12800(11)
Cu2A Cu -0.00349(16) 0.42735(13) -0.11357(11)
Cu3A Cu -0.00699(17) 0.17735(13) -0.09688(12)
Cu4A Cu 0.01895(17) 0.93651(13) -0.12702(12)
Cu6A Cu -0.04189(19) 0.19824(16) -0.50155(13)
O1A O 0.0995(11) 0.4125(9) -0.2327(7)
O2A O -0.0360(10) 0.3102(9) -0.3904(7)
O3A O 0.1467(10) 0.7011(7) -0.2238(7)
O4A O 0.0084(9) 0.6068(8) -0.3841(7)
O5A O 0.1656(10) 0.9785(8) -0.2152(7)
O6A O 0.0366(10) 0.8902(8) -0.3791(7)
N1A N 0.1371(12) 0.2165(11) -0.4138(8)
N2A N 0.1904(12) 0.5363(10) -0.4255(8)
N3A N 0.2340(12) 0.8473(10) -0.4222(8)
N4A N 0.1160(11) 0.8435(9) -0.0393(8)
N5A N 0.2388(14) 0.8771(10) -0.0080(9)
N6A N 0.3535(15) 0.9117(14) 0.0218(14)
N7A N -0.1019(11) 0.7760(8) -0.1953(8)
N8A N -0.1871(11) 0.7496(9) -0.2795(9)
N9A N -0.2680(15) 0.7247(12) -0.3590(10)
N10A N 0.1124(11) 0.5895(8) -0.0424(8)
N11A N 0.2334(13) 0.6220(10) -0.0119(10)
N12A N 0.3469(16) 0.6540(15) 0.0200(16)
N13A N -0.1155(12) 0.5194(10) -0.1827(8)
N14A N -0.2158(15) 0.4790(10) -0.2599(10)
N15A N -0.3118(17) 0.4413(14) -0.3302(13)
N16A N 0.1043(11) 0.3383(8) -0.0274(8)
N17A N 0.2242(15) 0.3775(10) 0.0125(10)
N18A N 0.3379(17) 0.4143(15) 0.0548(15)
N19A N -0.1244(12) 0.2637(9) -0.1700(9)
N20A N -0.2338(13) 0.2241(10) -0.2326(10)
N21A N -0.3393(14) 0.1862(12) -0.2916(13)
N22A N 0.1108(12) 0.0917(9) -0.0318(8)
N23A N 0.2279(16) 0.1318(11) 0.0214(11)
N24A N 0.3389(19) 0.1645(14) 0.0740(17)
N25A N -0.1039(11) 0.0239(8) -0.1927(8)
N26A N -0.1411(13) 0.0272(10) -0.2856(10)
N27A N -0.1764(19) 0.0286(13) -0.3741(11)
C1A C 0.0690(17) 0.3391(12) -0.3124(11)
C2A C 0.1759(17) 0.2871(13) -0.3185(12)
C3A C 0.2968(17) 0.3066(15) -0.2439(12)
H1A H 0.3172 0.3518 -0.1798
C4A C 0.3892(19) 0.2604(18) -0.2622(14)
H2A H 0.4724 0.2747 -0.2122
C5A C 0.3526(18) 0.1910(15) -0.3592(14)
H3A H 0.4111 0.1570 -0.3745
C6A C 0.2277(17) 0.1735(14) -0.4325(12)
H4A H 0.2063 0.1297 -0.4976
C7A C 0.1182(13) 0.6395(11) -0.3093(11)
C8A C 0.2307(14) 0.6034(12) -0.3316(10)
C9A C 0.3586(16) 0.6341(14) -0.2622(11)
H5A H 0.3832 0.6797 -0.1975
C10A C 0.4478(16) 0.5951(15) -0.2919(12)
H6A H 0.5358 0.6160 -0.2474
C11A C 0.4093(18) 0.5245(15) -0.3880(12)
H7A H 0.4695 0.4966 -0.4081
C12A C 0.2795(16) 0.4976(13) -0.4517(11)
H8A H 0.2522 0.4504 -0.5160
C13A C 0.1487(16) 0.9283(12) -0.3041(12)
C14A C 0.2673(15) 0.9100(11) -0.3254(11)
C15A C 0.3958(16) 0.9475(12) -0.2571(11)
H9A H 0.4172 0.9891 -0.1911
C16A C 0.4919(17) 0.9213(15) -0.2897(13)
H10A H 0.5796 0.9445 -0.2444
C17A C 0.4607(15) 0.8607(15) -0.3895(13)
H11A H 0.5266 0.8451 -0.4119
C18A C 0.3319(16) 0.8258(14) -0.4520(12)
H12A H 0.3096 0.7852 -0.5186
Cu4_2 Cu -0.01895(17) 1.06349(13) 0.12702(12)
Cu4A_2 Cu 0.01895(17) -0.06349(13) -0.12702(12)
Cu5_2 Cu 0.0000 0.5000 -0.5000
Cu6_2 Cu 0.04189(19) 0.80176(16) -0.49845(13)
Cu6A_2 Cu -0.04189(19) 0.19824(16) 0.49845(13)
O4A_2 O 0.0084(9) 0.6068(8) 0.6159(7)
O6_2 O -0.0366(10) 0.1098(8) -0.6209(7)
O6A_2 O 0.0366(10) 0.8902(8) 0.6209(7)
N2A_2 N 0.1904(12) 0.5363(10) 0.5745(8)
N3_2 N -0.2340(12) 0.1527(10) -0.5778(8)
N3A_2 N 0.2340(12) 0.8473(10) 0.5778(8)
N22_2 N -0.1108(12) -0.0917(9) 0.0318(8)
N22A_2 N 0.1108(12) 1.0917(9) -0.0318(8)
N25_2 N 0.1039(11) -0.0239(8) 0.1927(8)
N25A_2 N -0.1039(11) 1.0239(8) -0.1927(8)
loop_
_geom_bond_atom_site_label_1
_geom_bond_atom_site_label_2
_geom_bond_site_symmetry_1
_geom_bond_site_symmetry_2
Cu1 O3 1_555 1_555
Cu2 O1 1_555 1_555
Cu3 N16 1_555 1_555
Cu4 O5 1_555 1_555
Cu5 O4 1_555 1_555
Cu6 O2 1_555 1_555
O1 C1 1_555 1_555
O2 C1 1_555 1_555
O3 C7 1_555 1_555
O4 C7 1_555 1_555
O5 C13 1_555 1_555
O6 C13 1_555 1_555
N1 Cu6 1_555 1_555
N2 Cu5 1_555 1_555
N3 C14 1_555 1_555
N4 Cu1 1_555 1_555
N5 N4 1_555 1_555
N6 N5 1_555 1_555
N7 Cu1 1_555 1_555
N8 N7 1_555 1_555
N9 N8 1_555 1_555
N10 Cu1 1_555 1_555
N11 N10 1_555 1_555
N12 N11 1_555 1_555
N13 Cu1 1_555 1_555
N14 N13 1_555 1_555
N15 N14 1_555 1_555
N16 Cu2 1_555 1_555
N17 N16 1_555 1_555
N18 N17 1_555 1_555
N19 Cu2 1_555 1_555
N20 N19 1_555 1_555
N21 N20 1_555 1_555
N22 Cu3 1_555 1_555
N23 N22 1_555 1_555
N24 N23 1_555 1_555
N25 Cu3 1_555 1_555
N26 N25 1_555 1_555
N27 N26 1_555 1_555
C1 C2 1_555 1_555
C2 N1 1_555 1_555
C3 C2 1_555 1_555
H1 C3 1_555 1_555
C4 C3 1_555 1_555
H2 C4 1_555 1_555
C5 C4 1_555 1_555
H3 C5 1_555 1_555
C6 N1 1_555 1_555
H4 C6 1_555 1_555
C7 C8 1_555 1_555
C8 N2 1_555 1_555
C9 C8 1_555 1_555
H5 C9 1_555 1_555
C10 C9 1_555 1_555
H6 C10 1_555 1_555
C11 C10 1_555 1_555
H7 C11 1_555 1_555
C12 N2 1_555 1_555
H8 C12 1_555 1_555
C13 C14 1_555 1_555
C14 C15 1_555 1_555
C15 H9 1_555 1_555
C16 C15 1_555 1_555
H10 C16 1_555 1_555
C17 C16 1_555 1_555
H11 C17 1_555 1_555
C18 N3 1_555 1_555
H12 C18 1_555 1_555
Cu1A N16 1_555 1_555
Cu2A N10 1_555 1_555
Cu3A N4 1_555 1_555
Cu4A O5A 1_555 1_555
Cu6A O2A 1_555 1_555
O1A Cu2A 1_555 1_555
O2A C1A 1_555 1_555
O3A Cu1A 1_555 1_555
O4A C7A 1_555 1_555
O5A C13A 1_555 1_555
O6A C13A 1_555 1_555
N1A Cu6A 1_555 1_555
N2A C8A 1_555 1_555
N3A C14A 1_555 1_555
N4A Cu3 1_555 1_555
N5A N4A 1_555 1_555
N6A N5A 1_555 1_555
N7A Cu1A 1_555 1_555
N8A N7A 1_555 1_555
N9A N8A 1_555 1_555
N10A Cu2 1_555 1_555
N11A N10A 1_555 1_555
N12A N11A 1_555 1_555
N13A Cu1A 1_555 1_555
N14A N13A 1_555 1_555
N15A N14A 1_555 1_555
N16A Cu1 1_555 1_555
N17A N16A 1_555 1_555
N18A N17A 1_555 1_555
N19A Cu2A 1_555 1_555
N20A N19A 1_555 1_555
N21A N20A 1_555 1_555
N22A Cu3A 1_555 1_555
N23A N22A 1_555 1_555
N24A N23A 1_555 1_555
N25A Cu3A 1_555 1_555
N26A N25A 1_555 1_555
N27A N26A 1_555 1_555
C1A O1A 1_555 1_555
C2A N1A 1_555 1_555
C3A C2A 1_555 1_555
H1A C3A 1_555 1_555
C4A C3A 1_555 1_555
H2A C4A 1_555 1_555
C5A C4A 1_555 1_555
H3A C5A 1_555 1_555
C6A N1A 1_555 1_555
H4A C6A 1_555 1_555
C7A O3A 1_555 1_555
C8A C7A 1_555 1_555
C9A C8A 1_555 1_555
H5A C9A 1_555 1_555
C10A C9A 1_555 1_555
H6A C10A 1_555 1_555
C11A C10A 1_555 1_555
H7A C11A 1_555 1_555
C12A N2A 1_555 1_555
H8A C12A 1_555 1_555
C13A C14A 1_555 1_555
C14A C15A 1_555 1_555
C15A H9A 1_555 1_555
C16A C15A 1_555 1_555
H10A C16A 1_555 1_555
C17A C16A 1_555 1_555
H11A C17A 1_555 1_555
C18A N3A 1_555 1_555
H12A C18A 1_555 1_555
Cu4_2 N22 1_555 1_555
Cu4A_2 N22A 1_555 1_555
Cu5_2 O4A 1_555 1_555
Cu6_2 O6A 1_555 1_555
Cu6A_2 O6 1_555 1_555
O4A_2 Cu5 1_555 1_555
O6_2 Cu6A 1_555 1_555
O6A_2 Cu6 1_555 1_555
N2A_2 Cu5 1_555 1_555
N3_2 Cu6A 1_555 1_555
N3A_2 Cu6 1_555 1_555
N22_2 Cu4 1_555 1_555
N22A_2 Cu4A 1_555 1_555
N25_2 Cu4 1_555 1_555
N25A_2 Cu4A 1_555 1_555
Cu2 N10 1_555 1_555
Cu2 N13 1_555 1_555
Cu3 N19 1_555 1_555
Cu4 N4 1_555 1_555
Cu4 N7 1_555 1_555
N3 Cu6A_2 1_555 1_555
N25 Cu4_2 1_555 1_555
C5 C6 1_555 1_555
C11 C12 1_555 1_555
C17 C18 1_555 1_555
Cu1A N4A 1_555 1_555
Cu1A N10A 1_555 1_555
Cu2A N10A 1_555 1_555
Cu2A N13A 1_555 1_555
Cu2A N16A 1_555 1_555
Cu3A N16A 1_555 1_555
Cu3A N19A 1_555 1_555
Cu4A N4A 1_555 1_555
Cu4A N7A 1_555 1_555
N2A Cu5_2 1_555 1_555
N3A Cu6_2 1_555 1_555
N25A Cu4A_2 1_555 1_555
C1A C2A 1_555 1_555
C5A C6A 1_555 1_555
C11A C12A 1_555 1_555
C17A C18A 1_555 1_555

#END
