
#######################################################################
#
#                 Cambridge Crystallographic Data Centre
#                                CCDC 
#
#######################################################################
#
# If this CIF has been generated from an entry in the Cambridge 
# Structural Database, then it will include bibliographic, chemical, 
# crystal, experimental, refinement or atomic coordinate data resulting 
# from the CCDC's data processing and validation procedures.
#
#######################################################################

data_RIBXUV
_symmetry_cell_setting           triclinic
_symmetry_space_group_name_H-M   'P -1'
_symmetry_Int_Tables_number      2
_space_group_name_Hall           '-P 1'
loop_
_symmetry_equiv_pos_site_id
_symmetry_equiv_pos_as_xyz
1 x,y,z
2 -x,-y,-z
_cell_length_a                   8.0452(11)
_cell_length_b                   8.7160(10)
_cell_length_c                   16.913(2)
_cell_angle_alpha                96.471(9)
_cell_angle_beta                 93.088(8)
_cell_angle_gamma                105.273(10)
_cell_volume                     1132.47
loop_
_atom_site_label
_atom_site_type_symbol
_atom_site_fract_x
_atom_site_fract_y
_atom_site_fract_z
Cl1 Cl -0.21607(12) 0.01929(12) -0.01737(6)
Cl2 Cl 0.12962(10) 0.34614(10) 0.15091(5)
O1 O 0.1441(3) 0.2503(2) 0.49863(12)
N1 N 0.0302(3) 0.2357(3) 0.43269(12)
C1 C -0.0575(4) 0.0902(3) 0.4084(2)
C2 C -0.1849(3) 0.0378(3) 0.34033(15)
C3 C -0.2178(3) 0.1359(3) 0.28405(14)
O2 O -0.1390(2) 0.2929(2) 0.29314(10)
C4 C -0.3377(3) 0.0620(3) 0.2179(2)
C5 C -0.3839(4) 0.1462(3) 0.1551(2)
N2 N -0.3226(3) 0.2931(3) 0.14545(13)
C6 C -0.3996(4) 0.3401(4) 0.0735(2)
C7 C -0.2673(5) 0.4512(4) 0.0330(2)
C8 C -0.2077(6) 0.6166(4) 0.0766(2)
N3 N -0.1079(3) 0.6285(3) 0.15510(14)
C9 C -0.0097(4) 0.7691(3) 0.1796(2)
C10 C 0.1005(4) 0.8258(3) 0.2533(2)
C11 C 0.1121(3) 0.7322(3) 0.31481(14)
O3 O 0.0198(2) 0.5788(2) 0.30775(10)
C12 C 0.2233(3) 0.8072(3) 0.3840(2)
C13 C 0.2492(3) 0.7288(3) 0.4530(2)
N4 N 0.1784(3) 0.5817(3) 0.46111(12)
O4 O 0.2112(3) 0.5394(2) 0.53478(11)
C14 C -0.2754(4) -0.1255(3) 0.3310(2)
C15 C -0.3969(4) -0.1979(3) 0.2678(2)
C16 C -0.4928(5) -0.3727(3) 0.2625(2)
C17 C -0.4247(4) -0.1023(3) 0.2116(2)
C18 C 0.1946(4) 0.9889(3) 0.2622(2)
C19 C 0.3012(4) 1.0636(3) 0.3298(2)
C20 C 0.3962(4) 1.2397(3) 0.3386(2)
C21 C 0.3135(4) 0.9701(3) 0.3895(2)
H1 H -0.0371(4) 0.0113(3) 0.4373(2)
H2 H -0.4699(4) 0.0854(3) 0.1166(2)
H3 H -0.4880(4) 0.3920(4) 0.0888(2)
H4 H -0.4546(4) 0.2446(4) 0.0363(2)
H5 H -0.1683(5) 0.4082(4) 0.0273(2)
H6 H -0.3155(5) 0.4560(4) -0.0202(2)
H7 H -0.3078(6) 0.6565(4) 0.0855(2)
H8 H -0.1359(6) 0.6855(4) 0.0433(2)
H9 H -0.0091(4) 0.8454(3) 0.1453(2)
H10 H 0.3242(3) 0.7908(3) 0.4954(2)
H11 H -0.2525(4) -0.1878(3) 0.3692(2)
H12 H -0.4914(32) -0.4057(9) 0.3148(3)
H13 H -0.4378(22) -0.4354(5) 0.2278(14)
H14 H -0.6102(11) -0.3885(6) 0.2416(16)
H15 H -0.5041(4) -0.1482(3) 0.1678(2)
H16 H 0.1843(4) 1.0484(3) 0.2208(2)
H17 H 0.3708(28) 1.2836(8) 0.2913(7)
H18 H 0.5184(5) 1.2524(4) 0.3463(16)
H19 H 0.3596(26) 1.2951(6) 0.3839(10)
H20 H 0.3853(4) 1.0174(3) 0.4356(2)
Cu1 Cu 0.01304(4) 0.42466(3) 0.38409(2)
Cu2 Cu -0.12635(4) 0.44260(3) 0.21317(2)
Cu3 Cu 0.02052(8) 0.14247(6) 0.06173(3)
Cl1A Cl 0.21607(12) -0.01929(12) 0.01737(6)
Cu3A Cu -0.02052(8) -0.14247(6) -0.06173(3)
Cl2A Cl -0.12962(10) -0.34614(10) -0.15091(5)
Cu2A Cu 0.12635(4) -0.44260(3) -0.21317(2)
O2A O 0.1390(2) -0.2929(2) -0.29314(10)
C3A C 0.2178(3) -0.1359(3) -0.28405(14)
C2A C 0.1849(3) -0.0378(3) -0.34033(15)
C1A C 0.0575(4) -0.0902(3) -0.4084(2)
N1A N -0.0302(3) -0.2357(3) -0.43269(12)
O1A O -0.1441(3) -0.2503(2) -0.49863(12)
Cu1A Cu -0.01304(4) -0.42466(3) -0.38409(2)
O3A O -0.0198(2) -0.5788(2) -0.30775(10)
C11A C -0.1121(3) -0.7322(3) -0.31481(14)
C10A C -0.1005(4) -0.8258(3) -0.2533(2)
C9A C 0.0097(4) -0.7691(3) -0.1796(2)
N3A N 0.1079(3) -0.6285(3) -0.15510(14)
C8A C 0.2077(6) -0.6166(4) -0.0766(2)
C7A C 0.2673(5) -0.4512(4) -0.0330(2)
C6A C 0.3996(4) -0.3401(4) -0.0735(2)
N2A N 0.3226(3) -0.2931(3) -0.14545(13)
C5A C 0.3839(4) -0.1462(3) -0.1551(2)
C4A C 0.3377(3) -0.0620(3) -0.2179(2)
C17A C 0.4247(4) 0.1023(3) -0.2116(2)
C15A C 0.3969(4) 0.1979(3) -0.2678(2)
C14A C 0.2754(4) 0.1255(3) -0.3310(2)
H11A H 0.2525(4) 0.1878(3) -0.3692(2)
C16A C 0.4928(5) 0.3727(3) -0.2625(2)
H12A H 0.4914(32) 0.4057(9) -0.3148(3)
H13A H 0.4378(22) 0.4354(5) -0.2278(14)
H14A H 0.6102(11) 0.3885(6) -0.2416(16)
H15A H 0.5041(4) 0.1482(3) -0.1678(2)
H2A H 0.4699(4) -0.0854(3) -0.1166(2)
H3A H 0.4880(4) -0.3920(4) -0.0888(2)
H4A H 0.4546(4) -0.2446(4) -0.0363(2)
H5A H 0.1683(5) -0.4082(4) -0.0273(2)
H6A H 0.3155(5) -0.4560(4) 0.0202(2)
H7A H 0.3078(6) -0.6565(4) -0.0855(2)
H8A H 0.1359(6) -0.6855(4) -0.0433(2)
H9A H 0.0091(4) -0.8454(3) -0.1453(2)
C18A C -0.1946(4) -0.9889(3) -0.2622(2)
C19A C -0.3012(4) -1.0636(3) -0.3298(2)
C20A C -0.3962(4) -1.2397(3) -0.3386(2)
H17A H -0.3708(28) -1.2836(8) -0.2913(7)
H18A H -0.5184(5) -1.2524(4) -0.3463(16)
H19A H -0.3596(26) -1.2951(6) -0.3839(10)
C21A C -0.3135(4) -0.9701(3) -0.3895(2)
C12A C -0.2233(3) -0.8072(3) -0.3840(2)
C13A C -0.2492(3) -0.7288(3) -0.4530(2)
N4A N -0.1784(3) -0.5817(3) -0.46111(12)
O4A O -0.2112(3) -0.5394(2) -0.53478(11)
Cu1_2 Cu 0.01304(4) -0.57534(3) -0.61591(2)
O4_2 O 0.2112(3) -0.4606(2) -0.46522(11)
H10A H -0.3242(3) -0.7908(3) -0.4954(2)
H20A H -0.3853(4) -1.0174(3) -0.4356(2)
H16A H -0.1843(4) -1.0484(3) -0.2208(2)
H1A H 0.0371(4) -0.0113(3) -0.4373(2)
Cu1A_2 Cu -0.01304(4) 0.57534(3) 0.61591(2)
O4A_2 O -0.2112(3) 0.4606(2) 0.46522(11)
loop_
_geom_bond_atom_site_label_1
_geom_bond_atom_site_label_2
_geom_bond_site_symmetry_1
_geom_bond_site_symmetry_2
Cl1 Cu3 1_555 1_555
Cl2 Cu2 1_555 1_555
O1 N1 1_555 1_555
N1 C1 1_555 1_555
C1 C2 1_555 1_555
C2 C3 1_555 1_555
C3 O2 1_555 1_555
O2 Cu1 1_555 1_555
C4 C3 1_555 1_555
C5 C4 1_555 1_555
N2 C5 1_555 1_555
C6 N2 1_555 1_555
C7 C6 1_555 1_555
C8 C7 1_555 1_555
N3 C8 1_555 1_555
C9 N3 1_555 1_555
C10 C9 1_555 1_555
C11 C10 1_555 1_555
O3 C11 1_555 1_555
C12 C11 1_555 1_555
C13 C12 1_555 1_555
N4 C13 1_555 1_555
O4 N4 1_555 1_555
C14 C2 1_555 1_555
C15 C14 1_555 1_555
C16 C15 1_555 1_555
C17 C4 1_555 1_555
C18 C10 1_555 1_555
C19 C18 1_555 1_555
C20 C19 1_555 1_555
C21 C12 1_555 1_555
H1 C1 1_555 1_555
H2 C5 1_555 1_555
H3 C6 1_555 1_555
H4 C6 1_555 1_555
H5 C7 1_555 1_555
H6 C7 1_555 1_555
H7 C8 1_555 1_555
H8 C8 1_555 1_555
H9 C9 1_555 1_555
H10 C13 1_555 1_555
H11 C14 1_555 1_555
H12 C16 1_555 1_555
H13 C16 1_555 1_555
H14 C16 1_555 1_555
H15 C17 1_555 1_555
H16 C18 1_555 1_555
H17 C20 1_555 1_555
H18 C20 1_555 1_555
H19 C20 1_555 1_555
H20 C21 1_555 1_555
Cu1 N1 1_555 1_555
Cu2 O2 1_555 1_555
Cu3 Cl2 1_555 1_555
Cl1A Cu3 1_555 1_555
Cu3A Cl1 1_555 1_555
Cl2A Cu3A 1_555 1_555
Cu2A Cl2A 1_555 1_555
O2A Cu2A 1_555 1_555
C3A O2A 1_555 1_555
C2A C3A 1_555 1_555
C1A C2A 1_555 1_555
N1A C1A 1_555 1_555
O1A N1A 1_555 1_555
Cu1A O2A 1_555 1_555
O3A Cu2A 1_555 1_555
C11A O3A 1_555 1_555
C10A C11A 1_555 1_555
C9A C10A 1_555 1_555
N3A Cu2A 1_555 1_555
C8A N3A 1_555 1_555
C7A C8A 1_555 1_555
C6A C7A 1_555 1_555
N2A Cu2A 1_555 1_555
C5A N2A 1_555 1_555
C4A C3A 1_555 1_555
C17A C4A 1_555 1_555
C15A C17A 1_555 1_555
C14A C2A 1_555 1_555
H11A C14A 1_555 1_555
C16A C15A 1_555 1_555
H12A C16A 1_555 1_555
H13A C16A 1_555 1_555
H14A C16A 1_555 1_555
H15A C17A 1_555 1_555
H2A C5A 1_555 1_555
H3A C6A 1_555 1_555
H4A C6A 1_555 1_555
H5A C7A 1_555 1_555
H6A C7A 1_555 1_555
H7A C8A 1_555 1_555
H8A C8A 1_555 1_555
H9A C9A 1_555 1_555
C18A C10A 1_555 1_555
C19A C18A 1_555 1_555
C20A C19A 1_555 1_555
H17A C20A 1_555 1_555
H18A C20A 1_555 1_555
H19A C20A 1_555 1_555
C21A C19A 1_555 1_555
C12A C11A 1_555 1_555
C13A C12A 1_555 1_555
N4A Cu1A 1_555 1_555
O4A N4A 1_555 1_555
Cu1_2 O4A 1_555 1_555
O4_2 Cu1A 1_555 1_555
H10A C13A 1_555 1_555
H20A C21A 1_555 1_555
H16A C18A 1_555 1_555
H1A C1A 1_555 1_555
Cu1A_2 O4 1_555 1_555
O4A_2 Cu1 1_555 1_555
N2 Cu2 1_555 1_555
N3 Cu2 1_555 1_555
O3 Cu1 1_555 1_555
O3 Cu2 1_555 1_555
N4 Cu1 1_555 1_555
C15 C17 1_555 1_555
C19 C21 1_555 1_555
Cl1A Cu3A 1_555 1_555
N1A Cu1A 1_555 1_555
Cu1A O3A 1_555 1_555
C9A N3A 1_555 1_555
C6A N2A 1_555 1_555
C5A C4A 1_555 1_555
C15A C14A 1_555 1_555
C21A C12A 1_555 1_555
C13A N4A 1_555 1_555

#END
