
#######################################################################
#
#                 Cambridge Crystallographic Data Centre
#                                CCDC 
#
#######################################################################
#
# If this CIF has been generated from an entry in the Cambridge 
# Structural Database, then it will include bibliographic, chemical, 
# crystal, experimental, refinement or atomic coordinate data resulting 
# from the CCDC's data processing and validation procedures.
#
#######################################################################

data_RIBYAE
_symmetry_cell_setting           triclinic
_symmetry_space_group_name_H-M   'P -1'
_symmetry_Int_Tables_number      2
_space_group_name_Hall           '-P 1'
loop_
_symmetry_equiv_pos_site_id
_symmetry_equiv_pos_as_xyz
1 x,y,z
2 -x,-y,-z
_cell_length_a                   6.9033(12)
_cell_length_b                   7.8520(13)
_cell_length_c                   8.6789(15)
_cell_angle_alpha                99.337(2)
_cell_angle_beta                 97.714(2)
_cell_angle_gamma                115.448(2)
_cell_volume                     408.038
loop_
_atom_site_label
_atom_site_type_symbol
_atom_site_fract_x
_atom_site_fract_y
_atom_site_fract_z
Ag1 Ag 0.52126(11) 0.51517(9) 0.80182(6)
S1 S 0.8601(3) 0.1506(3) 0.9886(2)
N1 N 0.2724(9) 0.2722(8) 0.4604(7)
O1 O 0.2731(10) 0.4271(8) 0.5198(7)
O2 O 0.2368(9) 0.2120(8) 0.3125(6)
C1 C 0.7383(10) 0.2302(9) 1.1235(8)
N2 N 0.6504(9) 0.3325(8) 1.0706(6)
N3 N 0.6783(9) 0.3548(8) 0.9180(6)
C2 C 0.8328(13) 0.2647(11) 0.6973(8)
H1 H 0.7523 0.1345 0.6307
H2 H 0.9879 0.3087 0.7066
H3 H 0.7896 0.3491 0.6500
C3 C 0.7841(11) 0.2673(9) 0.8593(8)
C4 C 0.7334(13) 0.1857(11) 1.2827(8)
H4 H 0.8665 0.2802 1.3587
H5 H 0.7220 0.0583 1.2754
H6 H 0.6088 0.1899 1.3172
O3 O 0.3147(13) 0.1828(10) 0.5511(8)
Ag1A Ag 0.47874(11) 0.48483(9) 0.19818(6)
Ag1A_2 Ag 0.47874(11) 0.48483(9) 1.19818(6)
O2A O 0.7632(9) 0.7880(8) 0.6875(6)
N2A N 0.3496(9) 0.6675(8) 0.9294(6)
loop_
_geom_bond_atom_site_label_1
_geom_bond_atom_site_label_2
_geom_bond_site_symmetry_1
_geom_bond_site_symmetry_2
Ag1 O1 1_555 1_555
S1 C1 1_555 1_555
N1 O1 1_555 1_555
O2 N1 1_555 1_555
C1 N2 1_555 1_555
N2 N3 1_555 1_555
N3 Ag1 1_555 1_555
C2 H1 1_555 1_555
H2 C2 1_555 1_555
H3 C2 1_555 1_555
C3 S1 1_555 1_555
C4 C1 1_555 1_555
H4 C4 1_555 1_555
H5 C4 1_555 1_555
H6 C4 1_555 1_555
O3 N1 1_555 1_555
Ag1A O2 1_555 1_555
Ag1A_2 N2 1_555 1_555
O2A Ag1 1_555 1_555
N2A Ag1 1_555 1_555
N3 C3 1_555 1_555
C2 C3 1_555 1_555

#END
