
#######################################################################
#
#                 Cambridge Crystallographic Data Centre
#                                CCDC 
#
#######################################################################
#
# If this CIF has been generated from an entry in the Cambridge 
# Structural Database, then it will include bibliographic, chemical, 
# crystal, experimental, refinement or atomic coordinate data resulting 
# from the CCDC's data processing and validation procedures.
#
#######################################################################

data_RIBZOS
_symmetry_cell_setting           monoclinic
_symmetry_space_group_name_H-M   'P 21/n'
_symmetry_Int_Tables_number      14
_space_group_name_Hall           '-P 2yn'
loop_
_symmetry_equiv_pos_site_id
_symmetry_equiv_pos_as_xyz
1 x,y,z
2 1/2-x,1/2+y,1/2-z
3 -x,-y,-z
4 1/2+x,1/2-y,1/2+z
_cell_length_a                   9.4149(3)
_cell_length_b                   14.6460(8)
_cell_length_c                   14.6985(11)
_cell_angle_alpha                90
_cell_angle_beta                 91.005(5)
_cell_angle_gamma                90
_cell_volume                     2026.47
loop_
_atom_site_label
_atom_site_type_symbol
_atom_site_fract_x
_atom_site_fract_y
_atom_site_fract_z
Ho1 Ho 0.476017(17) 0.163627(11) 0.254716(11)
Ho2 Ho 0.688568(17) 0.345718(11) 0.093250(11)
O1 O 0.7161(3) 0.2227(2) 0.1965(2)
O2 O 0.7119(3) 0.1465(2) 0.3233(2)
O3 O 1.2403(3) 0.1815(2) 0.2928(2)
O4 O 1.2065(3) 0.1277(2) 0.43263(19)
O5 O 0.3511(3) 0.0170(2) 0.2185(2)
O6 O 0.5808(3) 0.0254(2) 0.1955(2)
O7 O 0.4068(3) -0.2196(2) -0.0218(2)
O8 O 0.5855(4) -0.1545(2) -0.0961(2)
O9 O 0.4616(3) 0.3136(2) 0.1868(2)
O10 O 0.4445(3) 0.3940(2) 0.0620(2)
O11 O -0.0913(3) 0.2707(2) 0.0403(2)
O12 O -0.0690(3) 0.3878(2) 0.1323(2)
C1 C 0.7815(4) 0.1862(3) 0.2632(3)
C2 C 0.9387(4) 0.1875(3) 0.2691(3)
H1 H 0.9906 0.2019 0.2178
C3 C 1.0058(4) 0.1687(3) 0.3461(3)
H2 H 0.9510 0.1600 0.3974
C4 C 1.1627(4) 0.1601(2) 0.3574(3)
C5 C 0.4603(5) -0.0134(3) 0.1817(3)
C6 C 0.4462(5) -0.0893(3) 0.1161(3)
H3 H 0.3694 -0.1288 0.1206
C7 C 0.5390(5) -0.1030(3) 0.0511(3)
H4 H 0.6262 -0.0732 0.0544
C8 C 0.5080(5) -0.1646(3) -0.0274(3)
C9 C 0.3861(4) 0.3534(3) 0.1268(3)
C10 C 0.2296(4) 0.3537(3) 0.1344(3)
H5 H 0.1911 0.3729 0.1890
C11 C 0.1421(4) 0.3284(3) 0.0690(3)
H6 H 0.1786 0.3100 0.0136
C12 C -0.0146(4) 0.3286(3) 0.0811(3)
O13 O 0.4702(3) 0.0745(2) 0.3916(2)
H7 H 0.4941 0.0113 0.3869
H8 H 0.3756 0.0830 0.4132
O14 O 0.4897(4) 0.2771(2) 0.3687(2)
H9 H 0.4880 0.2672 0.4322
H10 H 0.4568 0.3363 0.3529
O15 O 0.7114(4) 0.5024(2) 0.0603(2)
H11 H 0.7355 0.5446 0.1079
H12 H 0.6493 0.5321 0.0171
O16 O 0.6887(3) 0.4236(2) 0.2352(2)
H13 H 0.6140 0.4448 0.2566
H14 H 0.7622 0.4484 0.2556
Ho1_2 Ho 1.476017(17) 0.163627(11) 0.254716(11)
Ho1B Ho 0.523983(17) -0.163627(11) -0.254716(11)
Ho2C Ho 1.188568(17) 0.154282(11) 0.593250(11)
Ho2B Ho 0.311432(17) -0.345718(11) -0.093250(11)
Ho2_2 Ho -0.311432(17) 0.345718(11) 0.093250(11)
O3_2 O 0.2403(3) 0.1815(2) 0.2928(2)
O4C O 0.7065(3) 0.3723(2) -0.06737(19)
O7B O 0.5932(3) 0.2196(2) 0.0218(2)
O8B O 0.4145(4) 0.1545(2) 0.0961(2)
O11_2 O 0.9087(3) 0.2707(2) 0.0403(2)
O12_2 O 0.9310(3) 0.3878(2) 0.1323(2)
O17 O 0.4351(5) 0.4627(3) 0.3308(3)
H15 H 0.4009 0.5051 0.3584
H16 H 0.3734 0.4681 0.2767
O18 O 0.1280(8) 0.0946(6) 0.0415(7)
H17 H 0.2008 0.1186 0.0819
H18 H 0.1716 0.0485 0.0195
O19 O 0.8417(7) 0.0635(4) 0.0673(4)
H19 H 0.8383 0.1239 0.0588
H20 H 0.9274 0.0502 0.0590
loop_
_geom_bond_atom_site_label_1
_geom_bond_atom_site_label_2
_geom_bond_site_symmetry_1
_geom_bond_site_symmetry_2
Ho1 O1 1_555 1_555
Ho2 O1 1_555 1_555
O1 C1 1_555 1_555
O2 Ho1 1_555 1_555
O3 C4 1_555 1_555
O4 C4 1_555 1_555
O5 Ho1 1_555 1_555
O6 Ho1 1_555 1_555
O7 C8 1_555 1_555
O8 C8 1_555 1_555
O9 Ho1 1_555 1_555
O10 Ho2 1_555 1_555
O11 C12 1_555 1_555
O12 C12 1_555 1_555
C1 O2 1_555 1_555
C2 C1 1_555 1_555
H1 C2 1_555 1_555
C3 C2 1_555 1_555
H2 C3 1_555 1_555
C4 C3 1_555 1_555
C5 O5 1_555 1_555
C6 C5 1_555 1_555
H3 C6 1_555 1_555
C7 C6 1_555 1_555
H4 C7 1_555 1_555
C8 C7 1_555 1_555
C9 O9 1_555 1_555
C10 C9 1_555 1_555
H5 C10 1_555 1_555
C11 C10 1_555 1_555
H6 C11 1_555 1_555
C12 C11 1_555 1_555
O13 Ho1 1_555 1_555
H7 O13 1_555 1_555
H8 O13 1_555 1_555
O14 Ho1 1_555 1_555
H9 O14 1_555 1_555
H10 O14 1_555 1_555
O15 Ho2 1_555 1_555
H11 O15 1_555 1_555
H12 O15 1_555 1_555
O16 Ho2 1_555 1_555
H13 O16 1_555 1_555
H14 O16 1_555 1_555
O17 H15 1_555 1_555
H16 O17 1_555 1_555
O18 H17 1_555 1_555
H18 O18 1_555 1_555
O19 H19 1_555 1_555
H20 O19 1_555 1_555
Ho1_2 O3 1_555 1_555
Ho1B O8 1_555 1_555
Ho2C O4 1_555 1_555
Ho2B O7 1_555 1_555
Ho2_2 O11 1_555 1_555
O3_2 Ho1 1_555 1_555
O4C Ho2 1_555 1_555
O7B Ho2 1_555 1_555
O8B Ho1 1_555 1_555
O11_2 Ho2 1_555 1_555
O12_2 Ho2 1_555 1_555
Ho2 O9 1_555 1_555
O6 C5 1_555 1_555
O10 C9 1_555 1_555
O12 Ho2_2 1_555 1_555

#END
