
#######################################################################
#
#                 Cambridge Crystallographic Data Centre
#                                CCDC 
#
#######################################################################
#
# If this CIF has been generated from an entry in the Cambridge 
# Structural Database, then it will include bibliographic, chemical, 
# crystal, experimental, refinement or atomic coordinate data resulting 
# from the CCDC's data processing and validation procedures.
#
#######################################################################

data_RIBZIM
_symmetry_cell_setting           orthorhombic
_symmetry_space_group_name_H-M   'F d d d'
_symmetry_Int_Tables_number      70
_space_group_name_Hall           '-F 2uv 2vw'
loop_
_symmetry_equiv_pos_site_id
_symmetry_equiv_pos_as_xyz
1 x,y,z
2 x,1/2+y,1/2+z
3 x,1/4-y,1/4-z
4 1/2+x,y,1/2+z
5 1/4-x,y,1/4-z
6 1/2+x,1/2+y,z
7 1/4-x,1/4-y,z
8 3/4-x,3/4-y,z
9 3/4-x,y,3/4-z
10 x,3/4-y,3/4-z
11 3/4-x,1/4-y,1/2+z
12 3/4-x,1/2+y,1/4-z
13 1/4-x,3/4-y,1/2+z
14 1/2+x,3/4-y,1/4-z
15 1/4-x,1/2+y,3/4-z
16 1/2+x,1/4-y,3/4-z
17 -x,-y,-z
18 -x,1/2-y,1/2-z
19 -x,3/4+y,3/4+z
20 1/2-x,-y,1/2-z
21 3/4+x,-y,3/4+z
22 1/2-x,1/2-y,-z
23 3/4+x,3/4+y,-z
24 1/4+x,1/4+y,-z
25 1/4+x,-y,1/4+z
26 -x,1/4+y,1/4+z
27 1/4+x,3/4+y,1/2-z
28 1/4+x,1/2-y,3/4+z
29 3/4+x,1/4+y,1/2-z
30 1/2-x,1/4+y,3/4+z
31 3/4+x,1/2-y,1/4+z
32 1/2-x,3/4+y,1/4+z
_cell_length_a                   13.5570(10)
_cell_length_b                   15.2840(10)
_cell_length_c                   33.413(3)
_cell_angle_alpha                90
_cell_angle_beta                 90
_cell_angle_gamma                90
_cell_volume                     6923.35
loop_
_atom_site_label
_atom_site_type_symbol
_atom_site_fract_x
_atom_site_fract_y
_atom_site_fract_z
O1 O 0.7626(2) 0.5136(2) 0.15980(10)
H1 H 0.8206 0.5311 0.1533
H2 H 0.7536 0.4630 0.1496
O2 O 0.7226(2) 0.3603(2) 0.11780(10)
H3 H 0.7509 0.3111 0.1209
H4 H 0.7362 0.3758 0.0929
O3 O 0.6250 0.6250 0.1250
O4 O 0.9470(10) 0.5610(10) 0.1285(6)
O5 O 0.9330(10) 0.5440(10) 0.1257(5)
C7 C 0.9802(4) 0.637(2) 0.1265(4)
C8 C 1.0885(3) 0.6538(3) 0.1264(3)
H12 H 1.1073 0.7123 0.1264
O4B O 0.9470(10) 0.6890(10) 0.1215(6)
O4D O 1.3030(10) 0.5610(10) 0.1215(6)
O4F O 1.3030(10) 0.6890(10) 0.1285(6)
O5B O 0.9330(10) 0.7060(10) 0.1243(5)
O5D O 1.3170(10) 0.5440(10) 0.1243(5)
O5F O 1.3170(10) 0.7060(10) 0.1257(5)
C7B C 0.9802(4) 0.613(2) 0.1235(4)
C7D C 1.2698(4) 0.637(2) 0.1235(4)
C7F C 1.2698(4) 0.613(2) 0.1265(4)
C8B C 1.0885(3) 0.5962(3) 0.1236(3)
C8D C 1.1615(3) 0.6538(3) 0.1236(3)
C8F C 1.1615(3) 0.5962(3) 0.1264(3)
H12D H 1.1427 0.7123 0.1236
H12F H 1.1427 0.5377 0.1264
H12B H 1.1073 0.5377 0.1236
Ag1 Ag 0.7500 0.5000 0.2500
N1 N 0.5922(2) 0.5158(2) 0.24640(10)
C1 C 0.5433(2) 0.5054(2) 0.21210(10)
C2 C 0.4425(2) 0.5121(2) 0.20900(10)
C3 C 0.3867(2) 0.5307(2) 0.24240(10)
C4 C 0.4372(2) 0.5426(2) 0.27780(10)
C5 C 0.5383(2) 0.5350(2) 0.27850(10)
C6 C 0.2758(2) 0.5370(3) 0.24010(10)
H6 H 0.5793 0.4929 0.1891
H7 H 0.4120 0.5041 0.1843
H8 H 0.4030 0.5556 0.3012
H9 H 0.5708 0.5439 0.3027
H10 H 0.2550 0.5913 0.2526
H11 H 0.2562 0.5391 0.2122
Ag1_2 Ag -0.2500 0.5000 0.2500
Ag1_3 Ag 1.7500 0.5000 0.2500
N1S N -0.0922(2) 0.4842(2) 0.25360(10)
N1S_2 N 0.9078(2) 0.4842(2) 0.25360(10)
N1_2 N 1.5922(2) 0.5158(2) 0.24640(10)
N1_3 N -0.4078(2) 0.5158(2) 0.24640(10)
C1S C -0.0433(2) 0.4946(2) 0.28790(10)
C1S_2 C 0.9567(2) 0.4946(2) 0.28790(10)
C1_2 C 1.5433(2) 0.5054(2) 0.21210(10)
C2S C 0.0575(2) 0.4879(2) 0.29100(10)
C2S_2 C 1.0575(2) 0.4879(2) 0.29100(10)
C2_2 C 1.4425(2) 0.5121(2) 0.20900(10)
C3S C 0.1133(2) 0.4693(2) 0.25760(10)
C3S_2 C 1.1133(2) 0.4693(2) 0.25760(10)
C3_2 C 1.3867(2) 0.5307(2) 0.24240(10)
C4S C 0.0628(2) 0.4574(2) 0.22220(10)
C4S_2 C 1.0628(2) 0.4574(2) 0.22220(10)
C4_2 C 1.4372(2) 0.5426(2) 0.27780(10)
C5S C -0.0383(2) 0.4650(2) 0.22150(10)
C5S_2 C 0.9617(2) 0.4650(2) 0.22150(10)
C5_2 C 1.5383(2) 0.5350(2) 0.27850(10)
C6S C 0.2242(2) 0.4630(3) 0.25990(10)
C6S_2 C 1.2242(2) 0.4630(3) 0.25990(10)
C6_2 C 1.2758(2) 0.5370(3) 0.24010(10)
H6S H -0.0793 0.5071 0.3109
H6S_2 H 0.9207 0.5071 0.3109
H6_2 H 1.5793 0.4929 0.1891
H7S H 0.0880 0.4959 0.3157
H7S_2 H 1.0880 0.4959 0.3157
H7_2 H 1.4120 0.5041 0.1843
H8S H 0.0970 0.4444 0.1988
H8S_2 H 1.0970 0.4444 0.1988
H8_2 H 1.4030 0.5556 0.3012
H9S H -0.0708 0.4561 0.1973
H9S_2 H 0.9292 0.4561 0.1973
H9_2 H 1.5708 0.5439 0.3027
H10S H 0.2450 0.4087 0.2474
H10S_2 H 1.2450 0.4087 0.2474
H10_2 H 1.2550 0.5913 0.2526
H11S H 0.2438 0.4609 0.2878
H11S_2 H 1.2438 0.4609 0.2878
H11_2 H 1.2562 0.5391 0.2122
H5? H 0.6340 0.5904 0.1444
loop_
_geom_bond_atom_site_label_1
_geom_bond_atom_site_label_2
_geom_bond_site_symmetry_1
_geom_bond_site_symmetry_2
Ag1 N1 1_555 1_555
O1 H1 1_555 1_555
O2 H3 1_555 1_555
N1 C1 1_555 1_555
C1 C2 1_555 1_555
C2 C3 1_555 1_555
C3 C4 1_555 1_555
C4 C5 1_555 1_555
C5 N1 1_555 1_555
C6 C3 1_555 1_555
O4 O5 1_555 1_555
O5 C7 1_555 1_555
C7 O4 1_555 1_555
C8 C7 1_555 1_555
H2 O1 1_555 1_555
H4 O2 1_555 1_555
H6 C1 1_555 1_555
H7 C2 1_555 1_555
H8 C4 1_555 1_555
H9 C5 1_555 1_555
H10 C6 1_555 1_555
H11 C6 1_555 1_555
H12 C8 1_555 1_555
Ag1_2 N1S 1_555 1_555
Ag1_3 N1_2 1_555 1_555
N1S C1S 1_555 1_555
N1S_2 Ag1 1_555 1_555
N1_2 C1_2 1_555 1_555
N1_3 Ag1_2 1_555 1_555
C1S C2S 1_555 1_555
C1S_2 N1S_2 1_555 1_555
C1_2 C2_2 1_555 1_555
C2S C3S 1_555 1_555
C2S_2 C1S_2 1_555 1_555
C2_2 C3_2 1_555 1_555
C3S C4S 1_555 1_555
C3S_2 C2S_2 1_555 1_555
C3_2 C4_2 1_555 1_555
C4S C5S 1_555 1_555
C4S_2 C3S_2 1_555 1_555
C4_2 C5_2 1_555 1_555
C5S N1S 1_555 1_555
C5S_2 N1S_2 1_555 1_555
C5_2 N1_2 1_555 1_555
C6S C6 1_555 1_555
C6S_2 C3S_2 1_555 1_555
C6_2 C3_2 1_555 1_555
O4B C7 1_555 1_555
O4D O5D 1_555 1_555
O4F O5F 1_555 1_555
O5B C7 1_555 1_555
O5D C7D 1_555 1_555
O5F C7D 1_555 1_555
C7B O4 1_555 1_555
C7D O4D 1_555 1_555
C7F O4D 1_555 1_555
C8B C7 1_555 1_555
C8D C8 1_555 1_555
C8F C8 1_555 1_555
H6S C1S 1_555 1_555
H6S_2 C1S_2 1_555 1_555
H6_2 C1_2 1_555 1_555
H7S C2S 1_555 1_555
H7S_2 C2S_2 1_555 1_555
H7_2 C2_2 1_555 1_555
H8S C4S 1_555 1_555
H8S_2 C4S_2 1_555 1_555
H8_2 C4_2 1_555 1_555
H9S C5S 1_555 1_555
H9S_2 C5S_2 1_555 1_555
H9_2 C5_2 1_555 1_555
H10S C6S 1_555 1_555
H10S_2 C6S_2 1_555 1_555
H10_2 C6_2 1_555 1_555
H11S C6S 1_555 1_555
H11S_2 C6S_2 1_555 1_555
H11_2 C6_2 1_555 1_555
H12D C8 1_555 1_555
H12F C8B 1_555 1_555
H12B C8B 1_555 1_555
O5 C7B 1_555 1_555
C7 C7B 1_555 1_555
C8 C7B 1_555 1_555
C8 C8B 1_555 1_555
H12 C8D 1_555 1_555
H12 H12D 1_555 1_555
C3S C6S 1_555 1_555
C4S_2 C5S_2 1_555 1_555
C6S_2 C6_2 1_555 1_555
O4B O5B 1_555 1_555
O4B C7B 1_555 1_555
O4F C7D 1_555 1_555
O4F C7F 1_555 1_555
O5B C7B 1_555 1_555
O5D C7F 1_555 1_555
O5F C7F 1_555 1_555
C7B C8B 1_555 1_555
C7D C7F 1_555 1_555
C7D C8D 1_555 1_555
C7D C8F 1_555 1_555
C7F C8D 1_555 1_555
C7F C8F 1_555 1_555
C8B C8D 1_555 1_555
C8B C8F 1_555 1_555
C8D C8F 1_555 1_555
C8D H12D 1_555 1_555
C8F H12F 1_555 1_555
C8F H12B 1_555 1_555
H12F H12B 1_555 1_555

#END
