
#######################################################################
#
#                 Cambridge Crystallographic Data Centre
#                                CCDC 
#
#######################################################################
#
# If this CIF has been generated from an entry in the Cambridge 
# Structural Database, then it will include bibliographic, chemical, 
# crystal, experimental, refinement or atomic coordinate data resulting 
# from the CCDC's data processing and validation procedures.
#
#######################################################################

data_RICCUD
_symmetry_cell_setting           orthorhombic
_symmetry_space_group_name_H-M   'P c c a'
_symmetry_Int_Tables_number      54
_space_group_name_Hall           '-P 2a 2ac'
loop_
_symmetry_equiv_pos_site_id
_symmetry_equiv_pos_as_xyz
1 x,y,z
2 1/2-x,-y,z
3 1/2+x,-y,1/2-z
4 -x,y,1/2-z
5 -x,-y,-z
6 1/2+x,y,-z
7 1/2-x,y,1/2+z
8 x,-y,1/2+z
_cell_length_a                   12.8694(8)
_cell_length_b                   3.5673(2)
_cell_length_c                   27.9784(17)
_cell_angle_alpha                90
_cell_angle_beta                 90
_cell_angle_gamma                90
_cell_volume                     1284.46
loop_
_atom_site_label
_atom_site_type_symbol
_atom_site_fract_x
_atom_site_fract_y
_atom_site_fract_z
Ag1 Ag 0.5000 0.35776(14) 0.2500
Ag2 Ag 0.7500 0.0000 0.182322(16)
O1 O 0.6749(2) -0.1348(8) 0.26373(10)
O2 O 0.7500 0.0000 0.33083(15)
N1 N 0.5226(2) 0.3853(9) 0.17437(11)
N2 N 0.6121(2) 0.2750(9) 0.15057(10)
N3 N 0.4985(2) 0.4585(10) 0.09821(12)
N4 N 0.4531(4) 0.5516(14) 0.05409(15)
H1 H 0.4878 0.5226 0.0281
H2 H 0.3907 0.6377 0.0531
N5 N 0.7500 0.0000 0.28673(15)
C1 C 0.4567(3) 0.4936(11) 0.14210(14)
H3 H 0.3901 0.5827 0.1484
C2 C 0.5949(3) 0.3219(11) 0.10482(13)
H4 H 0.6421 0.2690 0.0806
O1A O 0.8251(2) 0.1348(8) 0.26373(10)
N1A N 0.9774(2) -0.3853(9) 0.17437(11)
N2A N 0.8879(2) -0.2750(9) 0.15057(10)
N3A N 1.0015(2) -0.4585(10) 0.09821(12)
N4A N 1.0469(4) -0.5516(14) 0.05409(15)
H1A H 1.0122 -0.5226 0.0281
H2A H 1.1093 -0.6377 0.0531
C1A C 1.0433(3) -0.4936(11) 0.14210(14)
H3A H 1.1099 -0.5827 0.1484
C2A C 0.9051(3) -0.3219(11) 0.10482(13)
H4A H 0.8579 -0.2690 0.0806
Ag1A Ag 1.0000 -0.35776(14) 0.2500
N1C N 0.4774(2) 0.3853(9) 0.32563(11)
O3 O 0.2500 0.0000 0.0472(2)
O4 O 0.3232(3) 0.1420(12) -0.01911(16)
N6 N 0.2500 0.0000 0.0029(2)
O4A O 0.1768(3) -0.1420(12) -0.01911(16)
loop_
_geom_bond_atom_site_label_1
_geom_bond_atom_site_label_2
_geom_bond_site_symmetry_1
_geom_bond_site_symmetry_2
Ag1 N1 1_555 1_555
Ag2 O1 1_555 1_555
O1 N5 1_555 1_555
O2 N5 1_555 1_555
N1 N2 1_555 1_555
N2 Ag2 1_555 1_555
N3 N4 1_555 1_555
N4 H1 1_555 1_555
H2 N4 1_555 1_555
N5 O1A 1_555 1_555
C1 N1 1_555 1_555
H3 C1 1_555 1_555
C2 N2 1_555 1_555
H4 C2 1_555 1_555
O3 N6 1_555 1_555
O4 N6 1_555 1_555
N6 O4A 1_555 1_555
O1A Ag2 1_555 1_555
N1A N2A 1_555 1_555
N2A Ag2 1_555 1_555
N3A N4A 1_555 1_555
N4A H1A 1_555 1_555
H2A N4A 1_555 1_555
C1A N1A 1_555 1_555
H3A C1A 1_555 1_555
C2A N2A 1_555 1_555
H4A C2A 1_555 1_555
Ag1A N1A 1_555 1_555
N1C Ag1 1_555 1_555
N3 C1 1_555 1_555
N3 C2 1_555 1_555
N3A C1A 1_555 1_555
N3A C2A 1_555 1_555

#END
