
#######################################################################
#
#                 Cambridge Crystallographic Data Centre
#                                CCDC 
#
#######################################################################
#
# If this CIF has been generated from an entry in the Cambridge 
# Structural Database, then it will include bibliographic, chemical, 
# crystal, experimental, refinement or atomic coordinate data resulting 
# from the CCDC's data processing and validation procedures.
#
#######################################################################

data_RICCEM01
_symmetry_cell_setting           orthorhombic
_symmetry_space_group_name_H-M   'P m m n'
_symmetry_Int_Tables_number      59
_space_group_name_Hall           '-P 2ab 2a'
loop_
_symmetry_equiv_pos_site_id
_symmetry_equiv_pos_as_xyz
1 x,y,z
2 1/2-x,1/2-y,z
3 1/2+x,-y,-z
4 -x,1/2+y,-z
5 -x,-y,-z
6 1/2+x,1/2+y,-z
7 1/2-x,y,z
8 x,1/2-y,z
_cell_length_a                   11.706(4)
_cell_length_b                   6.994(3)
_cell_length_c                   12.732(4)
_cell_angle_alpha                90
_cell_angle_beta                 90
_cell_angle_gamma                90
_cell_volume                     1042.39
loop_
_atom_site_label
_atom_site_type_symbol
_atom_site_fract_x
_atom_site_fract_y
_atom_site_fract_z
Cu1 Cu 0.2500 0.2500 0.21648(8)
Cl1 Cl 0.2500 -0.2500 0.26575(16)
N1 N 0.3618(5) 0.2500 0.3336(4)
C1 C 0.4738(7) 0.2500 0.3296(7)
C2 C 0.5416(9) 0.2500 0.4200(9)
C3 C 0.4904(9) 0.2500 0.5173(8)
C4 C 0.3708(8) 0.2500 0.5237(6)
C5 C 0.3101(6) 0.2500 0.4287(5)
C6 C 0.3071(11) 0.2500 0.6192(7)
N2 N 0.3668(7) 0.2500 0.1024(5)
C7 C 0.4131(9) 0.2500 0.0258(6)
C8 C 0.4728(12) 0.2500 -0.0763(6)
O1 O 0.2500 -0.250(5) 0.3739(6)
O2 O 0.3764(8) -0.2500 0.2511(10)
O3 O 0.2107(8) -0.0896(9) 0.2172(7)
H1 H 0.513(9) 0.2500 0.264(7)
H2 H 0.537(11) 0.2500 0.594(9)
H3 H 0.632(10) 0.2500 0.421(7)
H4 H 0.353(9) 0.2500 0.670(7)
N1A N 0.1382(5) 0.2500 0.3336(4)
N2A N 0.1332(7) 0.2500 0.1024(5)
O3A O 0.2893(8) 0.5896(9) 0.2172(7)
O3F O 0.2893(8) -0.0896(9) 0.2172(7)
O3G O 0.2107(8) 0.5896(9) 0.2172(7)
O2A O 0.1236(8) -0.2500 0.2511(10)
O3A_2 O 0.2893(8) -0.4104(9) 0.2172(7)
O3G_2 O 0.2107(8) -0.4104(9) 0.2172(7)
C5A C 0.1899(6) 0.2500 0.4287(5)
C6A C 0.1929(11) 0.2500 0.6192(7)
Cl2 Cl 0.7500 0.2500 0.1399(2)
O4 O 0.7500 0.2500 0.2502(9)
O5 O 0.6387(10) 0.2500 0.1056(16)
O6 O 0.8079(12) 0.0878(13) 0.1085(15)
O5A O 0.8613(10) 0.2500 0.1056(16)
O6A O 0.6921(12) 0.4122(13) 0.1085(15)
O6F O 0.6921(12) 0.0878(13) 0.1085(15)
O6G O 0.8079(12) 0.4122(13) 0.1085(15)
loop_
_geom_bond_atom_site_label_1
_geom_bond_atom_site_label_2
_geom_bond_site_symmetry_1
_geom_bond_site_symmetry_2
Cu1 N1 1_555 1_555
Cl1 O1 1_555 1_555
Cl2 O4 1_555 1_555
N1 C1 1_555 1_555
C1 C2 1_555 1_555
C2 C3 1_555 1_555
C3 C4 1_555 1_555
C4 C5 1_555 1_555
C5 N1 1_555 1_555
C6 C4 1_555 1_555
N2 Cu1 1_555 1_555
C7 N2 1_555 1_555
C8 C7 1_555 1_555
O2 Cl1 1_555 1_555
O3 Cu1 1_555 1_555
O5 Cl2 1_555 1_555
O6 Cl2 1_555 1_555
H1 C1 1_555 1_555
H2 C3 1_555 1_555
H3 C2 1_555 1_555
H4 C6 1_555 1_555
N1A Cu1 1_555 1_555
N2A Cu1 1_555 1_555
O3A Cu1 1_555 1_555
O3F Cu1 1_555 1_555
O3G Cu1 1_555 1_555
O2A Cl1 1_555 1_555
O3A_2 Cl1 1_555 1_555
O3G_2 Cl1 1_555 1_555
O5A Cl2 1_555 1_555
O6A Cl2 1_555 1_555
O6F Cl2 1_555 1_555
O6G Cl2 1_555 1_555
C5A C5 1_555 1_555
C6A C6 1_555 1_555
Cl1 O3 1_555 1_555
Cl1 O3F 1_555 1_555
O3 O3F 1_555 1_555
O5 O6A 1_555 1_555
O5 O6F 1_555 1_555
O6 O6F 1_555 1_555
O6 O5A 1_555 1_555
N1A C5A 1_555 1_555
O3A O3G 1_555 1_555
O3A_2 O3G_2 1_555 1_555
O5A O6G 1_555 1_555
O6A O6G 1_555 1_555

#END
