
#######################################################################
#
#                 Cambridge Crystallographic Data Centre
#                                CCDC 
#
#######################################################################
#
# If this CIF has been generated from an entry in the Cambridge 
# Structural Database, then it will include bibliographic, chemical, 
# crystal, experimental, refinement or atomic coordinate data resulting 
# from the CCDC's data processing and validation procedures.
#
#######################################################################

data_RICCEM
_symmetry_cell_setting           monoclinic
_symmetry_space_group_name_H-M   'P 21'
_symmetry_Int_Tables_number      4
_space_group_name_Hall           'P 2yb'
loop_
_symmetry_equiv_pos_site_id
_symmetry_equiv_pos_as_xyz
1 x,y,z
2 -x,1/2+y,-z
_cell_length_a                   11.578(3)
_cell_length_b                   6.943(2)
_cell_length_c                   12.542(4)
_cell_angle_alpha                90
_cell_angle_beta                 90.018(3)
_cell_angle_gamma                90
_cell_volume                     1008.2
loop_
_atom_site_label
_atom_site_type_symbol
_atom_site_fract_x
_atom_site_fract_y
_atom_site_fract_z
Cu1 Cu 0.77228(3) 0.46932(6) 0.28035(3)
Cl1 Cl 0.73197(7) 0.97776(16) 0.23489(5)
O1 O 0.7563(3) 0.8176(4) 0.3057(2)
O2 O 0.7433(2) 0.9184(4) 0.12494(19)
O3 O 0.8158(2) 1.1291(4) 0.2568(2)
O4 O 0.6169(2) 1.0494(4) 0.2546(2)
N1 N 0.6574(3) 0.4364(5) 0.3962(2)
N2 N 0.8924(2) 0.4680(7) 0.3946(2)
N3 N 0.8834(3) 0.5048(5) 0.1587(2)
N4 N 0.6557(2) 0.4773(6) 0.1640(2)
C1 C 0.9381(3) 0.4555(7) 0.4745(3)
C2 C 0.9967(4) 0.4458(9) 0.5768(3)
H1 H 1.0744 0.3929 0.5667
H2 H 0.9530 0.3625 0.6252
H3 H 1.0023 0.5754 0.6073
C3 C 0.6087(4) 0.4208(7) 0.4727(3)
C4 C 0.5447(5) 0.4026(9) 0.5751(4)
H4 H 0.5572 0.5183 0.6182
H5 H 0.5726 0.2894 0.6140
H6 H 0.4620 0.3879 0.5604
C5 C 0.8274(3) 0.5133(5) 0.0638(3)
C6 C 0.8856(4) 0.5366(6) -0.0346(3)
C7 C 0.6407(4) 0.5103(6) -0.0294(3)
C8 C 1.0622(4) 0.5420(7) 0.0669(4)
H7 H 1.1440 0.5505 0.0707
C9 C 0.7049(3) 0.4960(6) 0.0666(3)
C10 C 0.9977(3) 0.5192(6) 0.1603(3)
H8 H 1.0369 0.5139 0.2268
C11 C 1.0080(4) 0.5522(7) -0.0299(3)
H9 H 1.0516 0.5695 -0.0934
C12 C 0.5408(3) 0.4672(8) 0.1713(3)
H10 H 0.5062 0.4518 0.2394
C13 C 0.4699(3) 0.4788(10) 0.0805(3)
H11 H 0.3883 0.4732 0.0875
C14 C 0.8186(4) 0.5519(7) -0.1291(3)
H12 H 0.8562 0.5744 -0.1953
C15 C 0.7022(4) 0.5350(7) -0.1266(3)
H13 H 0.6603 0.5397 -0.1917
C16 C 0.5195(4) 0.4984(7) -0.0182(3)
H14 H 0.4718 0.5039 -0.0798
Cu1_2 Cu 0.77228(3) 1.46932(6) 0.28035(3)
O3_2 O 0.8158(2) 0.1291(4) 0.2568(2)
Cl2 Cl 0.25589(7) 0.44708(18) 0.36263(7)
O5 O 0.3674(3) 0.3691(8) 0.3817(4)
O6 O 0.2581(4) 0.5355(6) 0.2593(3)
O7 O 0.2284(6) 0.5863(7) 0.4418(4)
O8 O 0.1703(3) 0.2997(6) 0.3659(3)
loop_
_geom_bond_atom_site_label_1
_geom_bond_atom_site_label_2
_geom_bond_site_symmetry_1
_geom_bond_site_symmetry_2
Cu1 O1 1_555 1_555
Cl1 O1 1_555 1_555
O2 Cl1 1_555 1_555
O3 Cl1 1_555 1_555
O4 Cl1 1_555 1_555
N1 Cu1 1_555 1_555
N2 Cu1 1_555 1_555
N3 Cu1 1_555 1_555
N4 Cu1 1_555 1_555
C1 N2 1_555 1_555
C2 C1 1_555 1_555
H1 C2 1_555 1_555
H2 C2 1_555 1_555
H3 C2 1_555 1_555
C3 N1 1_555 1_555
C4 C3 1_555 1_555
H4 C4 1_555 1_555
H5 C4 1_555 1_555
H6 C4 1_555 1_555
C5 N3 1_555 1_555
C6 C5 1_555 1_555
C7 C9 1_555 1_555
C8 H7 1_555 1_555
C9 N4 1_555 1_555
C10 N3 1_555 1_555
H8 C10 1_555 1_555
C11 C6 1_555 1_555
H9 C11 1_555 1_555
C12 N4 1_555 1_555
H10 C12 1_555 1_555
C13 C12 1_555 1_555
H11 C13 1_555 1_555
C14 C6 1_555 1_555
H12 C14 1_555 1_555
C15 C7 1_555 1_555
H13 C15 1_555 1_555
C16 C7 1_555 1_555
H14 C16 1_555 1_555
Cl2 O5 1_555 1_555
O6 Cl2 1_555 1_555
O7 Cl2 1_555 1_555
O8 Cl2 1_555 1_555
Cu1_2 O3 1_555 1_555
O3_2 Cu1 1_555 1_555
C5 C9 1_555 1_555
C8 C10 1_555 1_555
C8 C11 1_555 1_555
C13 C16 1_555 1_555
C14 C15 1_555 1_555

#END
