
#######################################################################
#
#                 Cambridge Crystallographic Data Centre
#                                CCDC 
#
#######################################################################
#
# If this CIF has been generated from an entry in the Cambridge 
# Structural Database, then it will include bibliographic, chemical, 
# crystal, experimental, refinement or atomic coordinate data resulting 
# from the CCDC's data processing and validation procedures.
#
#######################################################################

data_RICDIR
_symmetry_cell_setting           tetragonal
_symmetry_space_group_name_H-M   'I 41/a'
_symmetry_Int_Tables_number      88
_space_group_name_Hall           '-I 4ad'
loop_
_symmetry_equiv_pos_site_id
_symmetry_equiv_pos_as_xyz
1 x,y,z
2 3/4-y,1/4+x,1/4+z
3 1/2+x,1/2+y,1/2+z
4 1/4-y,3/4+x,3/4+z
5 1/4+y,1/4-x,1/4+z
6 1/2-x,-y,1/2+z
7 3/4+y,3/4-x,3/4+z
8 -x,1/2-y,z
9 -x,-y,-z
10 1/4+y,3/4-x,3/4-z
11 1/2-x,1/2-y,1/2-z
12 3/4+y,1/4-x,1/4-z
13 3/4-y,3/4+x,3/4-z
14 1/2+x,y,1/2-z
15 1/4-y,1/4+x,1/4-z
16 x,1/2+y,-z
_cell_length_a                   19.734(3)
_cell_length_b                   19.734(3)
_cell_length_c                   16.293(5)
_cell_angle_alpha                90
_cell_angle_beta                 90
_cell_angle_gamma                90
_cell_volume                     6345
loop_
_atom_site_label
_atom_site_type_symbol
_atom_site_fract_x
_atom_site_fract_y
_atom_site_fract_z
Zn1 Zn 0.415392(14) 0.991745(14) 1.259416(18)
Zn2 Zn 0.329556(14) 0.836972(15) 0.706435(18)
O1 O 0.31976(14) 0.87114(18) 0.84636(18)
O2 O 0.3651(2) 0.77920(16) 0.80041(16)
O3 O 0.48508(12) 0.95691(11) 1.10306(15)
O4 O 0.41707(12) 0.90867(11) 1.19380(13)
N1 N 0.36715(11) 0.95692(11) 1.36055(13)
N2 N 0.36589(12) 0.99170(11) 1.43440(14)
N3 N 0.49576(11) 1.04150(11) 1.30223(13)
N4 N 0.48931(11) 1.07982(12) 1.37362(14)
N5 N 0.30543(13) 0.89816(12) 1.45026(14)
N6 N 0.58913(11) 1.10347(11) 1.31795(14)
C1 C 0.3889(2) 0.80627(19) 0.9391(2)
H1 H 0.3602 0.7757 0.9702
H2 H 0.4314 0.7832 0.9289
C2 C 0.4027(2) 0.86769(18) 0.9903(2)
H3 H 0.4312 0.8987 0.9596
H4 H 0.3603 0.8906 1.0020
N7 N 0.58248(14) 1.02870(15) 1.20274(17)
H5 H 0.5599 0.9984 1.1765
H6 H 0.6218 1.0409 1.1855
C3 C 0.3551(2) 0.8204(2) 0.8576(2)
C4 C 0.4369(2) 0.85002(16) 1.0692(2)
H7 H 0.4805 0.8295 1.0571
H8 H 0.4097 0.8166 1.0978
C5 C 0.55625(13) 1.05717(13) 1.27098(16)
C6 C 0.44795(15) 0.90999(14) 1.12515(17)
C7 C 0.54524(14) 1.11538(15) 1.38001(18)
H9 H 0.5538 1.1455 1.4226
N8 N 0.32216(19) 0.85213(17) 1.3160(2)
H10 H 0.3408 0.8560 1.2685
H11 H 0.2980 0.8170 1.3273
C8 C 0.32878(15) 0.95545(14) 1.48453(17)
H12 H 0.3195 0.9681 1.5384
C9 C 0.33069(15) 0.90076(14) 1.37243(17)
Zn1D Zn 0.241745(14) 0.834608(14) 1.509416(18)
Zn2C Zn 0.413028(15) 1.079556(14) 1.456435(18)
Zn2H Zn 0.670444(14) 1.163028(15) 1.293565(18)
N2D N 0.24170(11) 0.88411(12) 0.68440(14)
N4D N 0.32982(12) 0.76069(11) 0.62362(14)
N5C N 0.35184(12) 1.05543(13) 1.20026(14)
N6H N 0.41087(11) 0.89653(11) 0.68205(14)
loop_
_geom_bond_atom_site_label_1
_geom_bond_atom_site_label_2
_geom_bond_site_symmetry_1
_geom_bond_site_symmetry_2
Zn1 O4 1_555 1_555
Zn2 O1 1_555 1_555
O1 C3 1_555 1_555
O2 Zn2 1_555 1_555
O3 C6 1_555 1_555
O4 C6 1_555 1_555
N1 Zn1 1_555 1_555
N2 N1 1_555 1_555
N3 Zn1 1_555 1_555
N4 N3 1_555 1_555
N5 C8 1_555 1_555
N6 C5 1_555 1_555
C1 H1 1_555 1_555
H2 C1 1_555 1_555
C2 C1 1_555 1_555
H3 C2 1_555 1_555
H4 C2 1_555 1_555
N7 H5 1_555 1_555
H6 N7 1_555 1_555
C3 O2 1_555 1_555
C4 C2 1_555 1_555
H7 C4 1_555 1_555
H8 C4 1_555 1_555
C5 N3 1_555 1_555
C6 C4 1_555 1_555
C7 N4 1_555 1_555
H9 C7 1_555 1_555
N8 H10 1_555 1_555
H11 N8 1_555 1_555
C8 N2 1_555 1_555
H12 C8 1_555 1_555
C9 N1 1_555 1_555
Zn1D N5 1_555 1_555
Zn2C N2 1_555 1_555
Zn2H N6 1_555 1_555
N2D Zn2 1_555 1_555
N4D Zn2 1_555 1_555
N5C Zn1 1_555 1_555
N6H Zn2 1_555 1_555
N4 Zn2C 1_555 1_555
N5 C9 1_555 1_555
N6 C7 1_555 1_555
C1 C3 1_555 1_555
N7 C5 1_555 1_555
N8 C9 1_555 1_555

#END
