
#######################################################################
#
#                 Cambridge Crystallographic Data Centre
#                                CCDC 
#
#######################################################################
#
# If this CIF has been generated from an entry in the Cambridge 
# Structural Database, then it will include bibliographic, chemical, 
# crystal, experimental, refinement or atomic coordinate data resulting 
# from the CCDC's data processing and validation procedures.
#
#######################################################################

data_RICFIT
_symmetry_cell_setting           monoclinic
_symmetry_space_group_name_H-M   'C 2/c'
_symmetry_Int_Tables_number      15
_space_group_name_Hall           '-C 2yn'
loop_
_symmetry_equiv_pos_site_id
_symmetry_equiv_pos_as_xyz
1 x,y,z
2 1/2+x,1/2+y,z
3 -x,y,1/2-z
4 1/2-x,1/2+y,1/2-z
5 -x,-y,-z
6 1/2-x,1/2-y,-z
7 x,-y,1/2+z
8 1/2+x,1/2-y,1/2+z
_cell_length_a                   15.675(3)
_cell_length_b                   11.791(3)
_cell_length_c                   11.316(4)
_cell_angle_alpha                90
_cell_angle_beta                 130.913(9)
_cell_angle_gamma                90
_cell_volume                     1580.53
loop_
_atom_site_label
_atom_site_type_symbol
_atom_site_fract_x
_atom_site_fract_y
_atom_site_fract_z
Cu1 Cu 0.0000 0.03428(7) 0.7500
N1 N 0.1010(2) 0.0323(3) 0.7155(3)
N2 N 0.2364(2) -0.0240(2) 0.7199(3)
C1 C 0.1038(3) 0.1019(3) 0.6214(4)
H1 H 0.0546 0.1643 0.5635
C2 C 0.1820(3) -0.0431(3) 0.7721(4)
H2 H 0.1992 -0.1030 0.8409
C3 C 0.1870(3) 0.0683(3) 0.6235(4)
H3 H 0.2073 0.1022 0.5687
C4 C 0.3268(3) -0.0932(3) 0.7520(4)
H4 H 0.3622 -0.1381 0.8481
H5 H 0.3853 -0.0429 0.7713
C5 C 0.2847(3) -0.1731(3) 0.6183(4)
C6 C 0.1956(3) -0.2469(3) 0.5576(4)
H6 H 0.1576 -0.2452 0.5970
C7 C 0.3388(3) -0.1771(3) 0.5593(4)
H7 H 0.4001 -0.1272 0.5993
Cu1G Cu 0.5000 -0.53428(7) 0.2500
N1E N 0.3990(2) -0.5323(3) 0.2845(3)
N1B N -0.1010(2) 0.0323(3) 0.7845(3)
N2E N 0.2636(2) -0.4760(2) 0.2801(3)
C1E C 0.3962(3) -0.6019(3) 0.3786(4)
H1E H 0.4454 -0.6643 0.4365
C2E C 0.3180(3) -0.4569(3) 0.2279(4)
H2E H 0.3008 -0.3970 0.1591
C3E C 0.3130(3) -0.5683(3) 0.3765(4)
H3E H 0.2927 -0.6022 0.4313
C4E C 0.1732(3) -0.4068(3) 0.2480(4)
H4E H 0.1378 -0.3619 0.1519
H5E H 0.1147 -0.4571 0.2287
C5E C 0.2153(3) -0.3269(3) 0.3817(4)
C6E C 0.3044(3) -0.2531(3) 0.4424(4)
H6E H 0.3424 -0.2548 0.4030
C7E C 0.1612(3) -0.3229(3) 0.4407(4)
H7E H 0.0999 -0.3728 0.4007
Cl1 Cl 0.0000 0.68238(12) 0.7500
O1 O -0.1182(8) 0.7003(12) 0.6225(13)
O2 O 0.0340(8) 0.6747(9) 0.6560(10)
O1B O 0.1182(8) 0.7003(12) 0.8775(13)
O2B O -0.0340(8) 0.6747(9) 0.8440(10)
O3? O 0.0335(9) 0.5895(7) 0.8349(10)
O4? O 0.0540(10) 0.7744(10) 0.8073(18)
loop_
_geom_bond_atom_site_label_1
_geom_bond_atom_site_label_2
_geom_bond_site_symmetry_1
_geom_bond_site_symmetry_2
Cu1 N1 1_555 1_555
Cl1 O1 1_555 1_555
O2 Cl1 1_555 1_555
N1 C1 1_555 1_555
N2 C2 1_555 1_555
C1 H1 1_555 1_555
C2 N1 1_555 1_555
H2 C2 1_555 1_555
C3 N2 1_555 1_555
H3 C3 1_555 1_555
C4 N2 1_555 1_555
H4 C4 1_555 1_555
H5 C4 1_555 1_555
C5 C4 1_555 1_555
C6 C5 1_555 1_555
H6 C6 1_555 1_555
C7 C5 1_555 1_555
H7 C7 1_555 1_555
Cu1G N1E 1_555 1_555
O1B Cl1 1_555 1_555
O2B Cl1 1_555 1_555
N1E C1E 1_555 1_555
N1B Cu1 1_555 1_555
N2E C2E 1_555 1_555
C1E H1E 1_555 1_555
C2E N1E 1_555 1_555
H2E C2E 1_555 1_555
C3E N2E 1_555 1_555
H3E C3E 1_555 1_555
C4E N2E 1_555 1_555
H4E C4E 1_555 1_555
H5E C4E 1_555 1_555
C5E C4E 1_555 1_555
C6E C7 1_555 1_555
H6E C6E 1_555 1_555
C7E C6 1_555 1_555
H7E C7E 1_555 1_555
C1 C3 1_555 1_555
C1E C3E 1_555 1_555
C5E C6E 1_555 1_555
C5E C7E 1_555 1_555

#END
