
#######################################################################
#
#                 Cambridge Crystallographic Data Centre
#                                CCDC 
#
#######################################################################
#
# If this CIF has been generated from an entry in the Cambridge 
# Structural Database, then it will include bibliographic, chemical, 
# crystal, experimental, refinement or atomic coordinate data resulting 
# from the CCDC's data processing and validation procedures.
#
#######################################################################

data_RICGUG
_symmetry_cell_setting           monoclinic
_symmetry_space_group_name_H-M   'P 21/c'
_symmetry_Int_Tables_number      14
_space_group_name_Hall           '-P 2ybc'
loop_
_symmetry_equiv_pos_site_id
_symmetry_equiv_pos_as_xyz
1 x,y,z
2 -x,1/2+y,1/2-z
3 -x,-y,-z
4 x,1/2-y,1/2+z
_cell_length_a                   24.6142(4)
_cell_length_b                   6.9028(2)
_cell_length_c                   11.50580(10)
_cell_angle_alpha                90
_cell_angle_beta                 98.9310(10)
_cell_angle_gamma                90
_cell_volume                     1931.21
loop_
_atom_site_label
_atom_site_type_symbol
_atom_site_fract_x
_atom_site_fract_y
_atom_site_fract_z
C1 C 0.8199(7) 0.973(2) 0.9946(14)
C2 C 0.8583(7) 0.940(2) 0.9045(15)
H1 H 0.8373 0.8628 0.8417
C3 C 0.9088(7) 0.824(2) 0.9489(16)
H2 H 0.8977 0.7002 0.9779
H3 H 0.9303 0.8917 1.0143
C4 C 0.9446(9) 0.788(3) 0.854(2)
H4 H 0.9782 0.7236 0.8890
H5 H 0.9253 0.7030 0.7945
C5 C 0.9582(9) 0.971(3) 0.799(2)
H6 H 0.9780 0.9415 0.7345
H7 H 0.9823 1.0469 0.8563
C6 C 0.9055(9) 1.093(3) 0.7515(18)
H8 H 0.9166 1.2144 0.7202
H9 H 0.8836 1.0227 0.6877
C7 C 0.8706(7) 1.134(2) 0.8467(15)
H10 H 0.8921 1.2153 0.9068
C8 C 0.8197(9) 1.248(3) 0.7932(17)
C9 C 0.6928(8) 0.817(2) 0.8637(16)
C10 C 0.6520(7) 0.947(2) 0.7829(14)
H11 H 0.6717 1.0079 0.7247
C11 C 0.6091(8) 0.809(2) 0.7188(16)
H12 H 0.5925 0.7360 0.7761
H13 H 0.6271 0.7174 0.6731
C12 C 0.5640(9) 0.917(3) 0.6365(17)
H14 H 0.5797 0.9711 0.5714
H15 H 0.5357 0.8256 0.6045
C13 C 0.5385(8) 1.076(3) 0.6979(19)
H16 H 0.5172 1.0212 0.7540
H17 H 0.5138 1.1506 0.6408
C14 C 0.5848(8) 1.216(3) 0.7648(18)
H18 H 0.6036 1.2806 0.7076
H19 H 0.5676 1.3142 0.8071
C15 C 0.6253(7) 1.108(2) 0.8482(14)
H20 H 0.6067 1.0491 0.9088
C16 C 0.6678(7) 1.2487(19) 0.9054(16)
O1 O 0.7908(5) 1.1218(13) 0.9961(9)
O2 O 0.8137(5) 0.8342(14) 1.0658(10)
O3 O 0.7841(6) 1.1724(16) 0.7133(11)
O4 O 0.8156(5) 1.4240(15) 0.8230(10)
O5 O 0.6861(5) 0.7839(14) 0.9693(11)
O6 O 0.7334(5) 0.7473(13) 0.8225(9)
O7 O 0.6945(5) 1.3511(13) 0.8427(10)
O8 O 0.6762(5) 1.2667(14) 1.0174(10)
Pb1 Pb 0.73481(3) 1.01955(7) 1.15081(5)
Pb2 Pb 0.76283(3) 1.50845(7) 0.98754(5)
O2_2 O 0.8137(5) 1.8342(14) 1.0658(10)
O3C O 0.7841(6) 1.3276(16) 1.2133(11)
O4C O 0.8156(5) 1.0760(15) 1.3230(10)
O5_2 O 0.6861(5) 1.7839(14) 0.9693(11)
O6C O 0.7334(5) 0.7527(13) 1.3225(9)
O6_2 O 0.7334(5) 1.7473(13) 0.8225(9)
O7C O 0.6945(5) 1.1489(13) 1.3427(10)
Pb1C Pb 0.73481(3) 1.48045(7) 0.65081(5)
Pb1C_2 Pb 0.73481(3) 0.48045(7) 0.65081(5)
Pb2_2 Pb 0.76283(3) 0.50845(7) 0.98754(5)
Pb2C Pb 0.76283(3) 0.99155(7) 0.48754(5)
loop_
_geom_bond_atom_site_label_1
_geom_bond_atom_site_label_2
_geom_bond_site_symmetry_1
_geom_bond_site_symmetry_2
C1 C2 1_555 1_555
C2 H1 1_555 1_555
C3 C2 1_555 1_555
H2 C3 1_555 1_555
H3 C3 1_555 1_555
C4 C3 1_555 1_555
H4 C4 1_555 1_555
H5 C4 1_555 1_555
C5 C4 1_555 1_555
H6 C5 1_555 1_555
H7 C5 1_555 1_555
C6 C5 1_555 1_555
H8 C6 1_555 1_555
H9 C6 1_555 1_555
C7 C2 1_555 1_555
H10 C7 1_555 1_555
C8 C7 1_555 1_555
C9 C10 1_555 1_555
C10 H11 1_555 1_555
C11 C10 1_555 1_555
H12 C11 1_555 1_555
H13 C11 1_555 1_555
C12 C11 1_555 1_555
H14 C12 1_555 1_555
H15 C12 1_555 1_555
C13 C12 1_555 1_555
H16 C13 1_555 1_555
H17 C13 1_555 1_555
C14 C13 1_555 1_555
H18 C14 1_555 1_555
H19 C14 1_555 1_555
C15 C10 1_555 1_555
H20 C15 1_555 1_555
C16 C15 1_555 1_555
O1 C1 1_555 1_555
O2 C1 1_555 1_555
O3 C8 1_555 1_555
O4 C8 1_555 1_555
O5 C9 1_555 1_555
O6 C9 1_555 1_555
O7 C16 1_555 1_555
O8 C16 1_555 1_555
Pb1 O1 1_555 1_555
Pb2 O1 1_555 1_555
O2_2 Pb2 1_555 1_555
O3C Pb1 1_555 1_555
O4C Pb1 1_555 1_555
O5_2 Pb2 1_555 1_555
O6C Pb1 1_555 1_555
O6_2 Pb2 1_555 1_555
O7C Pb1 1_555 1_555
Pb1C O3 1_555 1_555
Pb1C_2 O6 1_555 1_555
Pb2_2 O2 1_555 1_555
Pb2C O3 1_555 1_555
C6 C7 1_555 1_555
C14 C15 1_555 1_555
O2 Pb1 1_555 1_555
O4 Pb2 1_555 1_555
O4 Pb1C 1_555 1_555
O5 Pb1 1_555 1_555
O5 Pb2_2 1_555 1_555
O6 Pb2_2 1_555 1_555
O7 Pb2 1_555 1_555
O7 Pb1C 1_555 1_555
O8 Pb1 1_555 1_555
O8 Pb2 1_555 1_555
Pb2 O3C 1_555 1_555
O6_2 Pb1C 1_555 1_555

#END
