
#######################################################################
#
#                 Cambridge Crystallographic Data Centre
#                                CCDC 
#
#######################################################################
#
# If this CIF has been generated from an entry in the Cambridge 
# Structural Database, then it will include bibliographic, chemical, 
# crystal, experimental, refinement or atomic coordinate data resulting 
# from the CCDC's data processing and validation procedures.
#
#######################################################################

data_RICGOA
_symmetry_cell_setting           orthorhombic
_symmetry_space_group_name_H-M   'P n c 2'
_symmetry_Int_Tables_number      30
_space_group_name_Hall           'P 2 -2bc'
loop_
_symmetry_equiv_pos_site_id
_symmetry_equiv_pos_as_xyz
1 x,y,z
2 -x,-y,z
3 x,1/2-y,1/2+z
4 -x,1/2+y,1/2+z
_cell_length_a                   9.7988(13)
_cell_length_b                   12.1843(16)
_cell_length_c                   7.3722(10)
_cell_angle_alpha                90
_cell_angle_beta                 90
_cell_angle_gamma                90
_cell_volume                     880.178
loop_
_atom_site_label
_atom_site_type_symbol
_atom_site_fract_x
_atom_site_fract_y
_atom_site_fract_z
Cd1 Cd 0.05137(5) 0.21041(4) 0.42721(12)
O1 O 0.1309(8) 0.3797(5) 0.4121(15)
O2 O 0.2145(9) 0.3330(8) 0.1491(15)
O3 O 0.1165(9) 0.5852(6) 0.0440(13)
C1 C 0.1417(10) 0.6458(7) 0.1766(13)
O4 O 0.0881(7) 0.7591(10) 0.1707(16)
C2 C 0.3366(11) 0.6896(8) 0.409(4)
O5 O 0.1400(13) 0.0724(8) 0.2670(13)
C3 C 0.2345(13) 0.6044(9) 0.3344(16)
H1 H 0.1729 0.5869 0.4350
C4 C 0.4626(12) 0.6856(11) 0.2833(19)
C5 C 0.3086(11) 0.4987(9) 0.2898(16)
H2 H 0.3666 0.4848 0.3957
C6 C 0.4066(12) 0.5074(10) 0.1339(15)
C7 C 0.4965(14) 0.6054(10) 0.1630(18)
C8 C 0.2076(13) 0.3938(9) 0.2809(15)
Cd1B Cd 0.05137(5) 0.28959(4) -0.07279(12)
Cd1C Cd -0.05137(5) 0.71041(4) -0.07279(12)
Cd1A Cd -0.05137(5) 0.78959(4) 0.42721(12)
O2B O 0.2145(9) 0.1670(8) 0.6491(15)
O3C O -0.1165(9) 0.0852(6) 0.5440(13)
O4A O -0.0881(7) 0.2409(10) 0.1707(16)
O4C O -0.0881(7) 0.2591(10) 0.6707(16)
loop_
_geom_bond_atom_site_label_1
_geom_bond_atom_site_label_2
_geom_bond_site_symmetry_1
_geom_bond_site_symmetry_2
Cd1 O1 1_555 1_555
O1 C8 1_555 1_555
O2 C8 1_555 1_555
O3 C1 1_555 1_555
C1 O4 1_555 1_555
O4 Cd1C 1_555 1_555
C2 C3 1_555 1_555
O5 Cd1 1_555 1_555
C3 C1 1_555 1_555
H1 C3 1_555 1_555
C4 C2 1_555 1_555
C5 C3 1_555 1_555
H2 C5 1_555 1_555
C6 C5 1_555 1_555
C7 C4 1_555 1_555
C8 C5 1_555 1_555
Cd1B O2 1_555 1_555
Cd1C O3 1_555 1_555
Cd1A O4 1_555 1_555
O2B Cd1 1_555 1_555
O3C Cd1 1_555 1_555
O4A Cd1 1_555 1_555
O4C Cd1 1_555 1_555
C6 C7 1_555 1_555
Cd1B O4A 1_555 1_555

#END
