
#######################################################################
#
#                 Cambridge Crystallographic Data Centre
#                                CCDC 
#
#######################################################################
#
# If this CIF has been generated from an entry in the Cambridge 
# Structural Database, then it will include bibliographic, chemical, 
# crystal, experimental, refinement or atomic coordinate data resulting 
# from the CCDC's data processing and validation procedures.
#
#######################################################################

data_RICHER
_symmetry_cell_setting           triclinic
_symmetry_space_group_name_H-M   'P -1'
_symmetry_Int_Tables_number      2
_space_group_name_Hall           '-P 1'
loop_
_symmetry_equiv_pos_site_id
_symmetry_equiv_pos_as_xyz
1 x,y,z
2 -x,-y,-z
_cell_length_a                   9.6476(9)
_cell_length_b                   10.9358(10)
_cell_length_c                   11.0897(10)
_cell_angle_alpha                64.6360(10)
_cell_angle_beta                 77.9880(10)
_cell_angle_gamma                84.3110(10)
_cell_volume                     1034.01
loop_
_atom_site_label
_atom_site_type_symbol
_atom_site_fract_x
_atom_site_fract_y
_atom_site_fract_z
C1 C 0.121(2) 0.263(2) 0.959(2)
C2 C 0.082(3) 0.402(3) 0.956(3)
H1 H 0.1373 0.4675 0.8725
C3 C -0.072(3) 0.434(3) 0.945(3)
H2 H -0.0898 0.4210 0.8689
H3 H -0.1302 0.3708 1.0266
C4 C 0.117(3) 0.427(3) 1.072(3)
H4 H 0.2178 0.4153 1.0721
H5 H 0.0675 0.3618 1.1587
C5 C -0.120(3) 0.240(3) 0.701(2)
C6 C -0.037(3) 0.374(2) 0.621(2)
H6 H 0.0270 0.3795 0.6767
C7 C -0.135(3) 0.497(3) 0.589(3)
H7 H -0.2017 0.4917 0.5373
H8 H -0.1878 0.4990 0.6726
C8 C 0.050(3) 0.372(3) 0.493(3)
H9 H 0.1147 0.2948 0.5160
H10 H -0.0115 0.3622 0.4392
C9 C 0.462(2) -0.227(2) 0.860(2)
C10 C 0.437(3) -0.252(3) 0.749(3)
H11 H 0.3429 -0.2137 0.7325
C11 C 0.541(3) -0.178(2) 0.618(2)
H12 H 0.5389 -0.0822 0.5984
H13 H 0.6358 -0.2121 0.6298
C12 C 0.429(3) -0.403(3) 0.781(3)
H14 H 0.5196 -0.4462 0.7984
H15 H 0.3583 -0.4463 0.8619
C13 C 0.389(3) -0.423(3) 0.659(3)
H16 H 0.3928 -0.5188 0.6794
H17 H 0.2924 -0.3912 0.6497
C14 C 0.494(3) -0.342(3) 0.519(3)
H18 H 0.4605 -0.3472 0.4443
H19 H 0.5881 -0.3839 0.5222
C15 C 0.503(3) -0.195(2) 0.494(2)
H20 H 0.4084 -0.1552 0.4826
C16 C 0.601(3) -0.123(3) 0.360(3)
O1 O 0.2039(18) 0.2546(16) 0.8593(16)
O2 O 0.0752(19) 0.1589(18) 1.0686(17)
O3 O -0.242(2) 0.236(2) 0.677(2)
O4 O -0.065(2) 0.1357(18) 0.7804(18)
O5 O 0.3553(17) -0.2116(16) 0.9406(15)
O6 O 0.5875(17) -0.2309(16) 0.8793(15)
O7 O 0.721(2) -0.104(2) 0.359(2)
O8 O 0.5520(19) -0.0814(18) 0.2548(17)
O9 O 0.3510(15) 0.0060(14) 1.0398(14)
Pb1 Pb 0.19533(10) 0.01088(9) 0.90243(9)
Pb2 Pb 0.50587(10) 0.18556(8) 0.90135(8)
Pb3 Pb -0.23143(12) -0.01777(10) 0.77067(9)
C1A C -0.121(2) 0.737(2) 1.041(2)
C2A C -0.082(3) 0.598(3) 1.044(3)
H1A H -0.1373 0.5325 1.1275
C3A C 0.072(3) 0.566(3) 1.055(3)
H2A H 0.0898 0.5790 1.1311
H3A H 0.1302 0.6292 0.9734
C4A C -0.117(3) 0.573(3) 0.928(3)
H4A H -0.2178 0.5847 0.9279
H5A H -0.0675 0.6382 0.8413
C5A C 0.120(3) 0.760(3) 0.299(2)
C6A C 0.037(3) 0.626(2) 0.379(2)
H6A H -0.0270 0.6205 0.3233
C7A C 0.135(3) 0.503(3) 0.411(3)
H7A H 0.2017 0.5083 0.4627
H8A H 0.1878 0.5010 0.3274
C8A C -0.050(3) 0.628(3) 0.507(3)
H9A H -0.1147 0.7052 0.4840
H10A H 0.0115 0.6378 0.5608
C9A C 0.538(2) 0.227(2) 0.140(2)
C10A C 0.563(3) 0.252(3) 0.251(3)
H11A H 0.6571 0.2137 0.2675
C11A C 0.459(3) 0.178(2) 0.382(2)
H12A H 0.4611 0.0822 0.4016
H13A H 0.3642 0.2121 0.3702
C12A C 0.571(3) 0.403(3) 0.219(3)
H14A H 0.4804 0.4462 0.2016
H15A H 0.6417 0.4463 0.1381
C13A C 0.611(3) 0.423(3) 0.341(3)
H16A H 0.6072 0.5188 0.3206
H17A H 0.7076 0.3912 0.3503
C14A C 0.506(3) 0.342(3) 0.481(3)
H18A H 0.5395 0.3472 0.5557
H19A H 0.4119 0.3839 0.4778
C15A C 0.497(3) 0.195(2) 0.506(2)
H20A H 0.5916 0.1552 0.5174
C16A C 0.399(3) 0.123(3) 0.640(3)
O1A O -0.2039(18) 0.7454(16) 1.1407(16)
O2A O -0.0752(19) 0.8411(18) 0.9314(17)
O2A_2 O -0.0752(19) -0.1589(18) 0.9314(17)
O2_2 O 0.0752(19) 1.1589(18) 0.0686(17)
O3A O 0.242(2) 0.764(2) 0.323(2)
O3_2 O 0.758(2) 0.236(2) 0.677(2)
O3A_2 O -0.758(2) 0.764(2) 1.323(2)
O4A O 0.065(2) 0.8643(18) 0.2196(18)
O4A_2 O 0.065(2) 0.8643(18) 1.2196(18)
O5A O 0.6447(17) 0.2116(16) 0.0594(15)
O5A_2 O 0.6447(17) 0.2116(16) 1.0594(15)
O5A_3 O -0.3553(17) 1.2116(16) 1.0594(15)
O5_2 O -0.6447(17) 0.7884(16) 0.9406(15)
O6A O 0.4125(17) 0.2309(16) 0.1207(15)
O6A_2 O 0.4125(17) 0.2309(16) 1.1207(15)
O6_2 O -0.4125(17) -0.2309(16) 0.8793(15)
O6_3 O -0.4125(17) 0.7691(16) 0.8793(15)
O6A_3 O 0.4125(17) 1.2309(16) 0.1207(15)
O7A O 0.279(2) 0.104(2) 0.641(2)
O7_2 O -0.279(2) 0.896(2) 1.359(2)
O8A O 0.4480(19) 0.0814(18) 0.7452(17)
O8_2 O -0.4480(19) 0.9186(18) 1.2548(17)
O9A O 0.6490(15) -0.0060(14) 0.9602(14)
O9A_2 O -0.3510(15) -0.0060(14) 0.9602(14)
O9A_3 O -0.3510(15) 0.9940(14) 0.9602(14)
O9_2 O -0.6490(15) 1.0060(14) 1.0398(14)
O9_3 O 0.3510(15) 1.0060(14) 0.0398(14)
Pb1A Pb -0.19533(10) 0.98912(9) 1.09757(9)
Pb1A_2 Pb 0.80467(10) -0.01088(9) 0.09757(9)
Pb1A_3 Pb -0.19533(10) -0.01088(9) 1.09757(9)
Pb1A_4 Pb 0.80467(10) -0.01088(9) 1.09757(9)
Pb1A_5 Pb -0.19533(10) 0.98912(9) 0.09757(9)
Pb1_2 Pb -0.80467(10) 1.01088(9) 0.90243(9)
Pb1_3 Pb 0.19533(10) 1.01088(9) -0.09757(9)
Pb2A Pb -0.50587(10) 0.81444(8) 1.09865(8)
Pb2_2 Pb -0.49413(10) 0.18556(8) 0.90135(8)
Pb2A_2 Pb 0.49413(10) -0.18556(8) 1.09865(8)
Pb2A_3 Pb 0.49413(10) -0.18556(8) 0.09865(8)
Pb2A_4 Pb -0.50587(10) -0.18556(8) 1.09865(8)
Pb2A_5 Pb 0.49413(10) 0.81444(8) 0.09865(8)
Pb2_3 Pb 0.50587(10) 0.18556(8) -0.09865(8)
Pb2_4 Pb -0.49413(10) 1.18556(8) 0.90135(8)
Pb2_5 Pb 0.50587(10) 1.18556(8) -0.09865(8)
Pb3A Pb 0.23143(12) 1.01777(10) 0.22933(9)
Pb3A_2 Pb 0.23143(12) 0.01777(10) 1.22933(9)
Pb3_2 Pb 0.76857(12) -0.01777(10) 0.77067(9)
Pb3_3 Pb -0.23143(12) 0.98223(10) 0.77067(9)
Pb3A_3 Pb 0.23143(12) 0.01777(10) 0.22933(9)
Pb3A_4 Pb -0.76857(12) 1.01777(10) 1.22933(9)
O10 O 0.085(5) 0.938(4) 0.614(4)
loop_
_geom_bond_atom_site_label_1
_geom_bond_atom_site_label_2
_geom_bond_site_symmetry_1
_geom_bond_site_symmetry_2
C1 C2 1_555 1_555
C2 H1 1_555 1_555
C3 C2 1_555 1_555
H2 C3 1_555 1_555
H3 C3 1_555 1_555
C4 C2 1_555 1_555
H4 C4 1_555 1_555
H5 C4 1_555 1_555
C5 C6 1_555 1_555
C6 H6 1_555 1_555
C7 C6 1_555 1_555
H7 C7 1_555 1_555
H8 C7 1_555 1_555
C8 C6 1_555 1_555
H9 C8 1_555 1_555
H10 C8 1_555 1_555
C9 C10 1_555 1_555
C10 H11 1_555 1_555
C11 C10 1_555 1_555
H12 C11 1_555 1_555
H13 C11 1_555 1_555
C12 C10 1_555 1_555
H14 C12 1_555 1_555
H15 C12 1_555 1_555
C13 C12 1_555 1_555
H16 C13 1_555 1_555
H17 C13 1_555 1_555
C14 C13 1_555 1_555
H18 C14 1_555 1_555
H19 C14 1_555 1_555
C15 C11 1_555 1_555
H20 C15 1_555 1_555
C16 C15 1_555 1_555
O1 C1 1_555 1_555
O2 C1 1_555 1_555
O3 C5 1_555 1_555
O4 C5 1_555 1_555
O5 C9 1_555 1_555
O6 C9 1_555 1_555
O7 C16 1_555 1_555
O8 C16 1_555 1_555
O9 Pb1 1_555 1_555
Pb1 O1 1_555 1_555
Pb2 O1 1_555 1_555
Pb3 O3 1_555 1_555
C1A C2A 1_555 1_555
C2A H1A 1_555 1_555
C3A C4 1_555 1_555
H2A C3A 1_555 1_555
H3A C3A 1_555 1_555
C4A C3 1_555 1_555
H4A C4A 1_555 1_555
H5A C4A 1_555 1_555
C5A C6A 1_555 1_555
C6A H6A 1_555 1_555
C7A C8 1_555 1_555
H7A C7A 1_555 1_555
H8A C7A 1_555 1_555
C8A C7 1_555 1_555
H9A C8A 1_555 1_555
H10A C8A 1_555 1_555
C9A C10A 1_555 1_555
C10A H11A 1_555 1_555
C11A C10A 1_555 1_555
H12A C11A 1_555 1_555
H13A C11A 1_555 1_555
C12A C10A 1_555 1_555
H14A C12A 1_555 1_555
H15A C12A 1_555 1_555
C13A C12A 1_555 1_555
H16A C13A 1_555 1_555
H17A C13A 1_555 1_555
C14A C13A 1_555 1_555
H18A C14A 1_555 1_555
H19A C14A 1_555 1_555
C15A C11A 1_555 1_555
H20A C15A 1_555 1_555
C16A C15A 1_555 1_555
O1A C1A 1_555 1_555
O2A C1A 1_555 1_555
O2A_2 Pb3 1_555 1_555
O2_2 Pb1_3 1_555 1_555
O3A C5A 1_555 1_555
O3_2 Pb2 1_555 1_555
O3A_2 Pb2A 1_555 1_555
O4A C5A 1_555 1_555
O4A_2 Pb1A 1_555 1_555
O5A C9A 1_555 1_555
O5A_2 Pb2 1_555 1_555
O5A_3 Pb1A 1_555 1_555
O5_2 Pb1_2 1_555 1_555
O6A C9A 1_555 1_555
O6A_2 Pb2 1_555 1_555
O6_2 Pb3 1_555 1_555
O6_3 Pb2A 1_555 1_555
O6A_3 Pb2_5 1_555 1_555
O7A Pb1 1_555 1_555
O7_2 Pb1A 1_555 1_555
O8A Pb1 1_555 1_555
O8_2 Pb1A 1_555 1_555
O9A Pb2 1_555 1_555
O9A_2 Pb3 1_555 1_555
O9A_3 Pb1A 1_555 1_555
O9_2 Pb1_2 1_555 1_555
O9_3 Pb1_3 1_555 1_555
Pb1A O1A 1_555 1_555
Pb1A_2 O7 1_555 1_555
Pb1A_3 O2A_2 1_555 1_555
Pb1A_4 O5A_2 1_555 1_555
Pb1A_5 O4A 1_555 1_555
Pb2A O1A 1_555 1_555
Pb2_2 O3 1_555 1_555
Pb2A_2 O5 1_555 1_555
Pb2A_3 O8 1_555 1_555
Pb2A_4 O6_2 1_555 1_555
Pb2A_5 O3A 1_555 1_555
Pb2_3 O5A 1_555 1_555
Pb2_4 O5A_3 1_555 1_555
Pb2_5 O9_3 1_555 1_555
Pb3A O2_2 1_555 1_555
Pb3A_2 O2 1_555 1_555
Pb3_2 O6 1_555 1_555
Pb3_3 O2A 1_555 1_555
Pb3A_3 O6A 1_555 1_555
Pb3A_4 O3A_2 1_555 1_555
C14 C15 1_555 1_555
O2 Pb1 1_555 1_555
O4 Pb1 1_555 1_555
O4 Pb3 1_555 1_555
O5 Pb1 1_555 1_555
O6 Pb2A_2 1_555 1_555
O8 Pb1A_2 1_555 1_555
O9 Pb2 1_555 1_555
O9 Pb2A_2 1_555 1_555
O9 Pb3A_2 1_555 1_555
Pb2 O8A 1_555 1_555
C2A C3A 1_555 1_555
C2A C4A 1_555 1_555
C6A C7A 1_555 1_555
C6A C8A 1_555 1_555
C14A C15A 1_555 1_555
C16A O7A 1_555 1_555
C16A O8A 1_555 1_555
O2A Pb1A 1_555 1_555
O3A Pb3A 1_555 1_555
O3_2 Pb3_2 1_555 1_555
O4A Pb3A 1_555 1_555
O5A Pb1A_2 1_555 1_555
O5_2 Pb2A 1_555 1_555
O6A Pb2_3 1_555 1_555
O6A_2 Pb3A_2 1_555 1_555
O6_3 Pb3_3 1_555 1_555
O6A_3 Pb3A 1_555 1_555
O8_2 Pb2A 1_555 1_555
O9A Pb1A_4 1_555 1_555
O9A Pb2A_2 1_555 1_555
O9A Pb3_2 1_555 1_555
O9A_2 Pb1A_3 1_555 1_555
O9A_2 Pb2_2 1_555 1_555
O9A_2 Pb2A_4 1_555 1_555
O9A_3 Pb2A 1_555 1_555
O9A_3 Pb2_4 1_555 1_555
O9A_3 Pb3_3 1_555 1_555
O9_2 Pb2A 1_555 1_555
O9_2 Pb2_4 1_555 1_555
O9_2 Pb3A_4 1_555 1_555
O9_3 Pb2A_5 1_555 1_555
O9_3 Pb3A 1_555 1_555

#END
