
#######################################################################
#
#                 Cambridge Crystallographic Data Centre
#                                CCDC 
#
#######################################################################
#
# If this CIF has been generated from an entry in the Cambridge 
# Structural Database, then it will include bibliographic, chemical, 
# crystal, experimental, refinement or atomic coordinate data resulting 
# from the CCDC's data processing and validation procedures.
#
#######################################################################

data_RICHAN
_symmetry_cell_setting           monoclinic
_symmetry_space_group_name_H-M   'P 21/c'
_symmetry_Int_Tables_number      14
_space_group_name_Hall           '-P 2ybc'
loop_
_symmetry_equiv_pos_site_id
_symmetry_equiv_pos_as_xyz
1 x,y,z
2 -x,1/2+y,1/2-z
3 -x,-y,-z
4 x,1/2-y,1/2+z
_cell_length_a                   11.6959(2)
_cell_length_b                   39.6296(7)
_cell_length_c                   11.54340(10)
_cell_angle_alpha                90
_cell_angle_beta                 105.0000(10)
_cell_angle_gamma                90
_cell_volume                     5168.1
loop_
_atom_site_label
_atom_site_type_symbol
_atom_site_fract_x
_atom_site_fract_y
_atom_site_fract_z
C1 C 0.7279(5) 0.12456(14) 0.0099(4)
C2 C 0.7281(4) 0.12285(13) -0.1208(4)
H1 H 0.8071 0.1296 -0.1264
C3 C 0.7083(6) 0.08677(15) -0.1648(5)
H2 H 0.6312 0.0792 -0.1585
H3 H 0.7677 0.0724 -0.1141
C4 C 0.6401(6) 0.14573(16) -0.2021(5)
H4 H 0.6556 0.1689 -0.1756
H5 H 0.5609 0.1400 -0.1973
C5 C 0.6470(6) 0.14270(16) -0.3328(5)
H6 H 0.5865 0.1568 -0.3834
H7 H 0.7235 0.1507 -0.3390
C6 C 0.7149(6) 0.08334(16) -0.2947(5)
H8 H 0.7948 0.0884 -0.2994
H9 H 0.6973 0.0602 -0.3210
C7 C 0.6298(5) 0.10659(15) -0.3768(4)
H10 H 0.5493 0.0997 -0.3770
C8 C 0.6411(5) 0.10459(15) -0.5047(5)
C9 C 1.1892(5) 0.10520(15) 0.5042(5)
C10 C 1.1844(4) 0.10276(14) 0.6342(4)
H11 H 1.1736 0.0788 0.6500
C11 C 1.0803(5) 0.12137(15) 0.6602(4)
H12 H 1.0075 0.1140 0.6043
H13 H 1.0889 0.1454 0.6492
C12 C 1.2987(5) 0.11358(17) 0.7217(5)
H14 H 1.3124 0.1373 0.7102
H15 H 1.3642 0.1010 0.7060
C13 C 1.2942(5) 0.10765(17) 0.8504(4)
H16 H 1.2914 0.0836 0.8643
H17 H 1.3661 0.1164 0.9041
C14 C 1.0734(5) 0.11458(16) 0.7882(4)
H18 H 1.0574 0.0908 0.7968
H19 H 1.0084 0.1274 0.8040
C15 C 1.1884(4) 0.12423(14) 0.8799(4)
H20 H 1.1982 0.1487 0.8740
C16 C 1.1816(5) 0.11675(13) 1.0071(4)
C17 C 0.5082(5) 0.05437(13) 0.1002(5)
C18 C 0.4266(5) 0.02833(13) 0.0257(5)
H21 H 0.3454 0.0366 0.0138
C19 C 0.4357(5) -0.00509(13) 0.0934(5)
H22 H 0.3703 -0.0196 0.0539
H23 H 0.4297 -0.0009 0.1743
C20 C 0.4474(5) 0.02309(13) -0.0985(5)
H24 H 0.4474 0.0449 -0.1369
H25 H 0.3827 0.0099 -0.1471
C21 C 0.8648(5) 0.05068(14) 0.3393(5)
C22 C 0.9576(4) 0.02766(13) 0.4138(5)
H26 H 1.0344 0.0345 0.4020
C23 C 0.9641(5) 0.03150(14) 0.5467(5)
H27 H 0.9789 0.0549 0.5700
H28 H 0.8888 0.0251 0.5609
C24 C 0.9383(5) -0.00966(14) 0.3776(5)
H29 H 0.8625 -0.0171 0.3878
H30 H 0.9369 -0.0122 0.2937
C25 C 1.1400(5) 0.04371(13) 0.1853(5)
C26 C 1.0453(4) 0.02252(12) 0.1053(5)
H31 H 0.9734 0.0245 0.1334
C27 C 1.0177(5) 0.03607(14) -0.0239(5)
H32 H 0.9912 0.0593 -0.0254
H33 H 1.0891 0.0356 -0.0520
C28 C 1.0786(5) -0.01463(13) 0.1073(5)
H34 H 1.0924 -0.0231 0.1886
H35 H 1.1517 -0.0169 0.0832
C29 C 0.7833(5) 0.17259(14) 0.3206(5)
C30 C 0.8398(5) 0.20647(14) 0.3523(5)
H36 H 0.9069 0.2074 0.3163
C31 C 0.8899(7) 0.20937(17) 0.4823(7)
H37 H 0.9468 0.1914 0.5090
H38 H 0.8272 0.2066 0.5224
C32 C 0.7624(7) 0.23522(16) 0.3017(7)
H39 H 0.6920 0.2347 0.3313
H40 H 0.7378 0.2332 0.2150
C33 C 0.8261(7) 0.26907(16) 0.3355(7)
H41 H 0.8921 0.2706 0.2993
H42 H 0.7720 0.2874 0.3047
C34 C 0.9512(8) 0.24344(17) 0.5179(7)
H43 H 0.9758 0.2451 0.6047
H44 H 1.0214 0.2448 0.4883
C35 C 0.8704(6) 0.27223(15) 0.4683(6)
H45 H 0.8020 0.2709 0.5022
C36 C 0.9317(5) 0.30556(15) 0.5069(6)
C37 C 1.2198(5) 0.17307(15) 0.2962(5)
C38 C 1.3035(6) 0.20200(17) 0.3337(7)
H46 H 1.3677 0.1972 0.2959
C39 C 1.2543(8) 0.23505(19) 0.2799(8)
H47 H 1.1789 0.2389 0.2979
H48 H 1.2399 0.2337 0.1934
C40 C 1.3586(11) 0.2030(2) 0.4535(9)
H49 H 1.4060 0.1828 0.4744
H50 H 1.2984 0.2026 0.4977
C41 C 1.4400(9) 0.2343(2) 0.4959(9)
H51 H 1.4610 0.2355 0.5828
H52 H 1.5124 0.2318 0.4706
C42 C 1.3347(10) 0.2646(2) 0.3248(9)
H53 H 1.3995 0.2641 0.2867
H54 H 1.2908 0.2853 0.3004
C43 C 1.3807(9) 0.2653(2) 0.4463(8)
H55 H 1.3107 0.2660 0.4780
C44 C 1.4465(8) 0.2969(2) 0.4937(8)
O1 O 0.6516(3) 0.14007(9) 0.0464(3)
O2 O 0.8098(3) 0.10802(9) 0.0836(3)
O3 O 0.7393(4) 0.10081(12) -0.5236(3)
O4 O 0.5496(3) 0.10805(10) -0.5906(3)
O5 O 1.2770(3) 0.09150(11) 0.4773(3)
O6 O 1.1072(3) 0.11943(10) 0.4309(3)
O7 O 1.2603(3) 0.09945(9) 1.0741(3)
O8 O 1.0940(3) 0.12919(9) 1.0396(3)
O9 O 0.5833(3) 0.06933(10) 0.0617(3)
O10 O 0.4971(3) 0.06153(9) 0.2063(3)
O11 O 0.8938(3) 0.07893(9) 0.3074(3)
O12 O 0.7566(3) 0.04249(10) 0.3128(4)
O13 O 1.1141(3) 0.07283(9) 0.2175(3)
O14 O 1.2446(3) 0.03368(9) 0.2166(4)
O15 O 0.8488(3) 0.14850(8) 0.3023(3)
O16 O 0.6762(3) 0.16775(9) 0.3123(4)
O17 O 1.0149(4) 0.31278(11) 0.4542(4)
H56 H 1.0446 0.3310 0.4787
O18 O 0.9065(3) 0.32407(9) 0.5783(3)
O19 O 1.2580(3) 0.14438(10) 0.2872(3)
O20 O 1.1112(3) 0.17947(10) 0.2717(4)
O21 O 1.3983(6) 0.31978(17) 0.5290(7)
O22 O 1.5555(5) 0.29940(13) 0.4882(5)
H57 H 1.5828 0.3176 0.5163
O23 O 0.4711(3) 0.13369(11) 0.1897(4)
O24 O 0.4477(4) 0.04124(12) -0.5618(4)
La1 La 0.68082(2) 0.103826(7) 0.24751(3)
La2 La 1.00604(2) 0.124780(7) 0.22118(3)
La3 La 0.34848(2) 0.088640(8) -0.70422(3)
H58 H 0.481(11) 0.1544(9) 0.209(11)
H59 H 0.440(6) 0.1405(19) 0.119(3)
H60 H 0.402(4) 0.0308(12) -0.528(4)
H61 H 0.375(6) 0.046(7) -0.59(2)
C1_2 C 0.7279(5) 0.12456(14) 1.0099(4)
C2_2 C 0.7281(4) 0.12285(13) 0.8792(4)
H1_2 H 0.8071 0.1296 0.8736
C3_2 C 0.7083(6) 0.08677(15) 0.8352(5)
H2_2 H 0.6312 0.0792 0.8415
H3_2 H 0.7677 0.0724 0.8859
C4_2 C 0.6401(6) 0.14573(16) 0.7979(5)
H4_2 H 0.6556 0.1689 0.8244
H5_2 H 0.5609 0.1400 0.8027
C5_2 C 0.6470(6) 0.14270(16) 0.6672(5)
H6_2 H 0.5865 0.1568 0.6166
H7_2 H 0.7235 0.1507 0.6610
C6_2 C 0.7149(6) 0.08334(16) 0.7053(5)
H8_2 H 0.7948 0.0884 0.7006
H9_2 H 0.6973 0.0602 0.6790
C7_2 C 0.6298(5) 0.10659(15) 0.6232(4)
H10_2 H 0.5493 0.0997 0.6230
C8_2 C 0.6411(5) 0.10459(15) 0.4953(5)
C9_2 C 1.1892(5) 0.10520(15) -0.4958(5)
C10_2 C 1.1844(4) 0.10276(14) -0.3658(4)
H11_2 H 1.1736 0.0788 -0.3500
C11_2 C 1.0803(5) 0.12137(15) -0.3398(4)
H12_2 H 1.0075 0.1140 -0.3957
H13_2 H 1.0889 0.1454 -0.3508
C12_2 C 1.2987(5) 0.11358(17) -0.2783(5)
H14_2 H 1.3124 0.1373 -0.2898
H15_2 H 1.3642 0.1010 -0.2940
C13_2 C 1.2942(5) 0.10765(17) -0.1496(4)
H16_2 H 1.2914 0.0836 -0.1357
H17_2 H 1.3661 0.1164 -0.0959
C14_2 C 1.0734(5) 0.11458(16) -0.2118(4)
H18_2 H 1.0574 0.0908 -0.2032
H19_2 H 1.0084 0.1274 -0.1960
C15_2 C 1.1884(4) 0.12423(14) -0.1201(4)
H20_2 H 1.1982 0.1487 -0.1260
C16_2 C 1.1816(5) 0.11675(13) 0.0071(4)
C17B C 0.4918(5) -0.05437(13) -0.1002(5)
C18B C 0.5734(5) -0.02833(13) -0.0257(5)
H21B H 0.6546 -0.0366 -0.0138
C19B C 0.5643(5) 0.00509(13) -0.0934(5)
H22B H 0.6297 0.0196 -0.0539
H23B H 0.5703 0.0009 -0.1743
C20B C 0.5526(5) -0.02309(13) 0.0985(5)
H24B H 0.5526 -0.0449 0.1369
H25B H 0.6173 -0.0099 0.1471
C21B C 1.1352(5) -0.05068(14) 0.6607(5)
C22B C 1.0424(4) -0.02766(13) 0.5862(5)
H26B H 0.9656 -0.0345 0.5980
C23B C 1.0359(5) -0.03150(14) 0.4533(5)
H27B H 1.0211 -0.0549 0.4300
H28B H 1.1112 -0.0251 0.4391
C24B C 1.0617(5) 0.00966(14) 0.6224(5)
H29B H 1.1375 0.0171 0.6122
H30B H 1.0631 0.0122 0.7063
C25B C 0.8600(5) -0.04371(13) -0.1853(5)
C26B C 0.9547(4) -0.02252(12) -0.1053(5)
H31B H 1.0266 -0.0245 -0.1334
C27B C 0.9823(5) -0.03607(14) 0.0239(5)
H32B H 1.0088 -0.0593 0.0254
H33B H 0.9109 -0.0356 0.0520
C28B C 0.9214(5) 0.01463(13) -0.1073(5)
H34B H 0.9076 0.0231 -0.1886
H35B H 0.8483 0.0169 -0.0832
C29C C 0.7833(5) 0.32741(14) -0.1794(5)
C30C C 0.8398(5) 0.29353(14) -0.1477(5)
H36C H 0.9069 0.2926 -0.1837
C31C C 0.8899(7) 0.29063(17) -0.0177(7)
H37C H 0.9468 0.3086 0.0090
H38C H 0.8272 0.2934 0.0224
C32C C 0.7624(7) 0.26478(16) -0.1983(7)
H39C H 0.6920 0.2653 -0.1687
H40C H 0.7378 0.2668 -0.2850
C33C C 0.8261(7) 0.23093(16) -0.1645(7)
H41C H 0.8921 0.2294 -0.2007
H42C H 0.7720 0.2126 -0.1953
C34C C 0.9512(8) 0.25656(17) 0.0179(7)
H43C H 0.9758 0.2549 0.1047
H44C H 1.0214 0.2552 -0.0117
C35C C 0.8704(6) 0.22777(15) -0.0317(6)
H45C H 0.8020 0.2291 0.0022
C36C C 0.9317(5) 0.19444(15) 0.0069(6)
C37_2 C 0.2198(5) 0.17307(15) -0.7038(5)
C38_2 C 0.3035(6) 0.20200(17) -0.6663(7)
H46_2 H 0.3677 0.1972 -0.7041
C39_2 C 0.2543(8) 0.23505(19) -0.7201(8)
H47_2 H 0.1789 0.2389 -0.7021
H48_2 H 0.2399 0.2337 -0.8066
C40_2 C 0.3586(11) 0.2030(2) -0.5465(9)
H49_2 H 0.4060 0.1828 -0.5256
H50_2 H 0.2984 0.2026 -0.5023
C41_2 C 0.4400(9) 0.2343(2) -0.5041(9)
H51_2 H 0.4610 0.2355 -0.4172
H52_2 H 0.5124 0.2318 -0.5294
C42_2 C 0.3347(10) 0.2646(2) -0.6752(9)
H53_2 H 0.3995 0.2641 -0.7133
H54_2 H 0.2908 0.2853 -0.6996
C43_2 C 0.3807(9) 0.2653(2) -0.5537(8)
H55_2 H 0.3107 0.2660 -0.5220
C44_2 C 0.4465(8) 0.2969(2) -0.5063(8)
O1_2 O 0.6516(3) 0.14007(9) 1.0464(3)
O2_2 O 0.8098(3) 0.10802(9) 1.0836(3)
O3_2 O 0.7393(4) 0.10081(12) 0.4764(3)
O3_3 O 0.7393(4) 0.10081(12) 1.4764(3)
O4_2 O 0.5496(3) 0.10805(10) 0.4094(3)
O4_3 O 0.5496(3) 0.10805(10) 1.4094(3)
O5_2 O 1.2770(3) 0.09150(11) -0.5227(3)
O5_3 O 0.2770(3) 0.09150(11) -0.5227(3)
O5_4 O 0.2770(3) 0.09150(11) 0.4773(3)
O6_2 O 1.1072(3) 0.11943(10) -0.5691(3)
O6_3 O 1.1072(3) 0.11943(10) 1.4309(3)
O7_2 O 1.2603(3) 0.09945(9) 0.0741(3)
O7_3 O 0.2603(3) 0.09945(9) -0.9259(3)
O7_4 O 0.2603(3) 0.09945(9) 0.0741(3)
O8_2 O 1.0940(3) 0.12919(9) 0.0396(3)
O9B O 0.4167(3) -0.06933(10) -0.0617(3)
O9_2 O 0.5833(3) 0.06933(10) 1.0617(3)
O10B O 0.5029(3) -0.06153(9) -0.2063(3)
O10_2 O 0.4971(3) 0.06153(9) -0.7937(3)
O10_3 O 0.4971(3) 0.06153(9) 1.2063(3)
O11B O 1.1062(3) -0.07893(9) 0.6926(3)
O11_2 O 0.8938(3) 0.07893(9) 1.3074(3)
O12B O 1.2434(3) -0.04249(10) 0.6872(4)
O12_2 O 0.7566(3) 0.04249(10) 1.3128(4)
O13B O 0.8859(3) -0.07283(9) -0.2175(3)
O13_2 O 0.1141(3) 0.07283(9) -0.7825(3)
O13_3 O 1.1141(3) 0.07283(9) 1.2175(3)
O13_4 O 0.1141(3) 0.07283(9) 0.2175(3)
O14B O 0.7554(3) -0.03368(9) -0.2166(4)
O14_2 O 0.2446(3) 0.03368(9) -0.7834(4)
O14_3 O 0.2446(3) 0.03368(9) 0.2166(4)
O15C O 0.8488(3) 0.35150(8) -0.1977(3)
O15_2 O 0.8488(3) 0.14850(8) 1.3023(3)
O16C O 0.6762(3) 0.33225(9) -0.1877(4)
O16_2 O 0.6762(3) 0.16775(9) 1.3123(4)
O17C O 1.0149(4) 0.18722(11) -0.0458(4)
H56C H 1.0446 0.1690 -0.0213
O18C O 0.9065(3) 0.17593(9) 0.0783(3)
O18C_2 O 0.9065(3) 0.17593(9) 1.0783(3)
O19_2 O 0.2580(3) 0.14438(10) -0.7128(3)
O19_3 O 0.2580(3) 0.14438(10) 0.2872(3)
O20_2 O 0.1112(3) 0.17947(10) -0.7283(4)
O20_3 O 1.1112(3) 0.17947(10) 1.2717(4)
O21_2 O 0.3983(6) 0.31978(17) -0.4710(7)
O22_2 O 0.5555(5) 0.29940(13) -0.5118(5)
H57_2 H 0.5828 0.3176 -0.4837
O23_2 O 0.4711(3) 0.13369(11) 1.1897(4)
O24_2 O 0.4477(4) 0.04124(12) 0.4382(4)
La1_2 La 0.68082(2) 0.103826(7) 1.24751(3)
La1_3 La 0.68082(2) 0.103826(7) -0.75249(3)
La1B La 0.31918(2) -0.103826(7) -0.24751(3)
La1B_2 La 1.31918(2) -0.103826(7) 0.75249(3)
La1C La 0.68082(2) 0.396174(7) -0.25249(3)
La2_2 La 1.00604(2) 0.124780(7) 1.22118(3)
La2C La 1.00604(2) 0.375220(7) 0.72118(3)
La2B La 0.99396(2) -0.124780(7) 0.77882(3)
La2B_2 La 0.99396(2) -0.124780(7) -0.22118(3)
La2_3 La 1.00604(2) 0.124780(7) -0.77882(3)
La2C_2 La 1.00604(2) 0.375220(7) -0.27882(3)
La2_4 La 0.00604(2) 0.124780(7) -0.77882(3)
La3_2 La 0.34848(2) 0.088640(8) 0.29578(3)
La3_3 La 1.34848(2) 0.088640(8) 0.29578(3)
La3_4 La 1.34848(2) 0.088640(8) 1.29578(3)
La3B La 0.65152(2) -0.088640(8) -0.29578(3)
La3_5 La 1.34848(2) 0.088640(8) -0.70422(3)
H58_2 H 0.481(11) 0.1544(9) 1.209(11)
H59_2 H 0.440(6) 0.1405(19) 1.119(3)
H60_2 H 0.402(4) 0.0308(12) 0.472(4)
H61_2 H 0.375(6) 0.046(7) 0.41(2)
O25 O 0.3745(6) 0.0021(2) 0.6021(8)
H62 H 0.347(7) -0.0101(18) 0.538(4)
H63? H 0.34(2) -0.015(4) 0.55(2)
loop_
_geom_bond_atom_site_label_1
_geom_bond_atom_site_label_2
_geom_bond_site_symmetry_1
_geom_bond_site_symmetry_2
C1 C2 1_555 1_555
C2 H1 1_555 1_555
C3 C2 1_555 1_555
H2 C3 1_555 1_555
H3 C3 1_555 1_555
C4 C2 1_555 1_555
H4 C4 1_555 1_555
H5 C4 1_555 1_555
C5 C4 1_555 1_555
H6 C5 1_555 1_555
H7 C5 1_555 1_555
C6 C3 1_555 1_555
H8 C6 1_555 1_555
H9 C6 1_555 1_555
C7 C5 1_555 1_555
H10 C7 1_555 1_555
C8 C7 1_555 1_555
C9 C10 1_555 1_555
C10 H11 1_555 1_555
C11 C10 1_555 1_555
H12 C11 1_555 1_555
H13 C11 1_555 1_555
C12 C10 1_555 1_555
H14 C12 1_555 1_555
H15 C12 1_555 1_555
C13 C12 1_555 1_555
H16 C13 1_555 1_555
H17 C13 1_555 1_555
C14 C11 1_555 1_555
H18 C14 1_555 1_555
H19 C14 1_555 1_555
C15 C13 1_555 1_555
H20 C15 1_555 1_555
C16 C15 1_555 1_555
C17 C18 1_555 1_555
C18 H21 1_555 1_555
C19 C18 1_555 1_555
H22 C19 1_555 1_555
H23 C19 1_555 1_555
C20 C18 1_555 1_555
H24 C20 1_555 1_555
H25 C20 1_555 1_555
C21 C22 1_555 1_555
C22 H26 1_555 1_555
C23 C22 1_555 1_555
H27 C23 1_555 1_555
H28 C23 1_555 1_555
C24 C22 1_555 1_555
H29 C24 1_555 1_555
H30 C24 1_555 1_555
C25 C26 1_555 1_555
C26 H31 1_555 1_555
C27 C26 1_555 1_555
H32 C27 1_555 1_555
H33 C27 1_555 1_555
C28 C26 1_555 1_555
H34 C28 1_555 1_555
H35 C28 1_555 1_555
C29 C30 1_555 1_555
C30 H36 1_555 1_555
C31 C30 1_555 1_555
H37 C31 1_555 1_555
H38 C31 1_555 1_555
C32 C30 1_555 1_555
H39 C32 1_555 1_555
H40 C32 1_555 1_555
C33 C32 1_555 1_555
H41 C33 1_555 1_555
H42 C33 1_555 1_555
C34 C31 1_555 1_555
H43 C34 1_555 1_555
H44 C34 1_555 1_555
C35 C33 1_555 1_555
H45 C35 1_555 1_555
C36 C35 1_555 1_555
C37 C38 1_555 1_555
C38 H46 1_555 1_555
C39 C38 1_555 1_555
H47 C39 1_555 1_555
H48 C39 1_555 1_555
C40 C38 1_555 1_555
H49 C40 1_555 1_555
H50 C40 1_555 1_555
C41 C40 1_555 1_555
H51 C41 1_555 1_555
H52 C41 1_555 1_555
C42 C39 1_555 1_555
H53 C42 1_555 1_555
H54 C42 1_555 1_555
C43 C41 1_555 1_555
H55 C43 1_555 1_555
C44 C43 1_555 1_555
O1 C1 1_555 1_555
O2 C1 1_555 1_555
O3 C8 1_555 1_555
O4 C8 1_555 1_555
O5 C9 1_555 1_555
O6 C9 1_555 1_555
O7 C16 1_555 1_555
O8 C16 1_555 1_555
O9 C17 1_555 1_555
O10 C17 1_555 1_555
O11 C21 1_555 1_555
O12 C21 1_555 1_555
O13 C25 1_555 1_555
O14 C25 1_555 1_555
O15 C29 1_555 1_555
O16 C29 1_555 1_555
O17 C36 1_555 1_555
H56 O17 1_555 1_555
O18 C36 1_555 1_555
O19 C37 1_555 1_555
O20 C37 1_555 1_555
O21 C44 1_555 1_555
O22 C44 1_555 1_555
H57 O22 1_555 1_555
O23 La1 1_555 1_555
O24 La3 1_555 1_555
O25 H62 1_555 1_555
La1 O1 1_555 1_555
La2 O2 1_555 1_555
La3 O4 1_555 1_555
H58 O23 1_555 1_555
H59 O23 1_555 1_555
H60 O24 1_555 1_555
H61 O24 1_555 1_555
C1_2 C2_2 1_555 1_555
C2_2 H1_2 1_555 1_555
C3_2 C2_2 1_555 1_555
H2_2 C3_2 1_555 1_555
H3_2 C3_2 1_555 1_555
C4_2 C2_2 1_555 1_555
H4_2 C4_2 1_555 1_555
H5_2 C4_2 1_555 1_555
C5_2 C4_2 1_555 1_555
H6_2 C5_2 1_555 1_555
H7_2 C5_2 1_555 1_555
C6_2 C3_2 1_555 1_555
H8_2 C6_2 1_555 1_555
H9_2 C6_2 1_555 1_555
C7_2 C5_2 1_555 1_555
H10_2 C7_2 1_555 1_555
C8_2 C7_2 1_555 1_555
C9_2 C10_2 1_555 1_555
C10_2 H11_2 1_555 1_555
C11_2 C10_2 1_555 1_555
H12_2 C11_2 1_555 1_555
H13_2 C11_2 1_555 1_555
C12_2 C10_2 1_555 1_555
H14_2 C12_2 1_555 1_555
H15_2 C12_2 1_555 1_555
C13_2 C12_2 1_555 1_555
H16_2 C13_2 1_555 1_555
H17_2 C13_2 1_555 1_555
C14_2 C11_2 1_555 1_555
H18_2 C14_2 1_555 1_555
H19_2 C14_2 1_555 1_555
C15_2 C13_2 1_555 1_555
H20_2 C15_2 1_555 1_555
C16_2 C15_2 1_555 1_555
C17B C18B 1_555 1_555
C18B H21B 1_555 1_555
C19B C20 1_555 1_555
H22B C19B 1_555 1_555
H23B C19B 1_555 1_555
C20B C19 1_555 1_555
H24B C20B 1_555 1_555
H25B C20B 1_555 1_555
C21B C22B 1_555 1_555
C22B H26B 1_555 1_555
C23B C24 1_555 1_555
H27B C23B 1_555 1_555
H28B C23B 1_555 1_555
C24B C23 1_555 1_555
H29B C24B 1_555 1_555
H30B C24B 1_555 1_555
C25B C26B 1_555 1_555
C26B H31B 1_555 1_555
C27B C28 1_555 1_555
H32B C27B 1_555 1_555
H33B C27B 1_555 1_555
C28B C27 1_555 1_555
H34B C28B 1_555 1_555
H35B C28B 1_555 1_555
C29C C30C 1_555 1_555
C30C H36C 1_555 1_555
C31C C30C 1_555 1_555
H37C C31C 1_555 1_555
H38C C31C 1_555 1_555
C32C C30C 1_555 1_555
H39C C32C 1_555 1_555
H40C C32C 1_555 1_555
C33C C32C 1_555 1_555
H41C C33C 1_555 1_555
H42C C33C 1_555 1_555
C34C C31C 1_555 1_555
H43C C34C 1_555 1_555
H44C C34C 1_555 1_555
C35C C33C 1_555 1_555
H45C C35C 1_555 1_555
C36C C35C 1_555 1_555
C37_2 C38_2 1_555 1_555
C38_2 H46_2 1_555 1_555
C39_2 C38_2 1_555 1_555
H47_2 C39_2 1_555 1_555
H48_2 C39_2 1_555 1_555
C40_2 C38_2 1_555 1_555
H49_2 C40_2 1_555 1_555
H50_2 C40_2 1_555 1_555
C41_2 C40_2 1_555 1_555
H51_2 C41_2 1_555 1_555
H52_2 C41_2 1_555 1_555
C42_2 C39_2 1_555 1_555
H53_2 C42_2 1_555 1_555
H54_2 C42_2 1_555 1_555
C43_2 C41_2 1_555 1_555
H55_2 C43_2 1_555 1_555
C44_2 C43_2 1_555 1_555
O1_2 C1_2 1_555 1_555
O2_2 C1_2 1_555 1_555
O3_2 La1 1_555 1_555
O3_3 La1_2 1_555 1_555
O4_2 La1 1_555 1_555
O4_3 La1_2 1_555 1_555
O5_2 C9_2 1_555 1_555
O5_3 La3 1_555 1_555
O5_4 La3_2 1_555 1_555
O6_2 C9_2 1_555 1_555
O6_3 La2_2 1_555 1_555
O7_2 C16_2 1_555 1_555
O7_3 La3 1_555 1_555
O7_4 La3_2 1_555 1_555
O8_2 La2 1_555 1_555
O9B C17B 1_555 1_555
O9_2 La1_2 1_555 1_555
O10B C17B 1_555 1_555
O10_2 La3 1_555 1_555
O10_3 La1_2 1_555 1_555
O11B C21B 1_555 1_555
O11_2 La1_2 1_555 1_555
O12B C21B 1_555 1_555
O12_2 La1_2 1_555 1_555
O13B C25B 1_555 1_555
O13_2 La3 1_555 1_555
O13_3 La2_2 1_555 1_555
O13_4 La3_2 1_555 1_555
O14B C25B 1_555 1_555
O14_2 La3 1_555 1_555
O14_3 La3_2 1_555 1_555
O15C C29C 1_555 1_555
O15_2 La1_2 1_555 1_555
O16C C29C 1_555 1_555
O16_2 La1_2 1_555 1_555
O17C C36C 1_555 1_555
H56C O17C 1_555 1_555
O18C La2 1_555 1_555
O18C_2 La2_2 1_555 1_555
O19_2 La3 1_555 1_555
O19_3 La3_2 1_555 1_555
O20_2 C37_2 1_555 1_555
O20_3 La2_2 1_555 1_555
O21_2 C44_2 1_555 1_555
O22_2 C44_2 1_555 1_555
H57_2 O22_2 1_555 1_555
O23_2 La1_2 1_555 1_555
O24_2 La3_2 1_555 1_555
La1_2 O1_2 1_555 1_555
La1_3 O3 1_555 1_555
La1B O9B 1_555 1_555
La1B_2 O11B 1_555 1_555
La1C O15C 1_555 1_555
La2_2 O8 1_555 1_555
La2C O18 1_555 1_555
La2B O11B 1_555 1_555
La2B_2 O13B 1_555 1_555
La2_3 O6_2 1_555 1_555
La2C_2 O15C 1_555 1_555
La2_4 O13_2 1_555 1_555
La3_2 O10 1_555 1_555
La3_3 O5 1_555 1_555
La3_4 O7 1_555 1_555
La3B O10B 1_555 1_555
La3_5 O5_2 1_555 1_555
H58_2 O23_2 1_555 1_555
H59_2 O23_2 1_555 1_555
H60_2 O24_2 1_555 1_555
H61_2 O24_2 1_555 1_555
C6 C7 1_555 1_555
C14 C15 1_555 1_555
C34 C35 1_555 1_555
C42 C43 1_555 1_555
O2 La1 1_555 1_555
O4 La1_3 1_555 1_555
O6 La2 1_555 1_555
O9 La1 1_555 1_555
O10 La1 1_555 1_555
O11 La1 1_555 1_555
O11 La2 1_555 1_555
O12 La1 1_555 1_555
O13 La2 1_555 1_555
O13 La3_3 1_555 1_555
O14 La3_3 1_555 1_555
O15 La1 1_555 1_555
O15 La2 1_555 1_555
O16 La1 1_555 1_555
O19 La3_3 1_555 1_555
O20 La2 1_555 1_555
C6_2 C7_2 1_555 1_555
C8_2 O3_2 1_555 1_555
C8_2 O4_2 1_555 1_555
C14_2 C15_2 1_555 1_555
C16_2 O8_2 1_555 1_555
C18B C19B 1_555 1_555
C18B C20B 1_555 1_555
C22B C23B 1_555 1_555
C22B C24B 1_555 1_555
C26B C27B 1_555 1_555
C26B C28B 1_555 1_555
C34C C35C 1_555 1_555
C36C O18C 1_555 1_555
C37_2 O19_2 1_555 1_555
C42_2 C43_2 1_555 1_555
O2_2 La1_2 1_555 1_555
O2_2 La2_2 1_555 1_555
O4_2 La3_2 1_555 1_555
O7_2 La3_3 1_555 1_555
O10B La1B 1_555 1_555
O10_2 La1_3 1_555 1_555
O11_2 La2_2 1_555 1_555
O12B La1B_2 1_555 1_555
O13B La3B 1_555 1_555
O13_3 La3_4 1_555 1_555
O14B La3B 1_555 1_555
O15_2 La2_2 1_555 1_555
O16C La1C 1_555 1_555
O20_2 La2_4 1_555 1_555

#END
