
#######################################################################
#
#                 Cambridge Crystallographic Data Centre
#                                CCDC 
#
#######################################################################
#
# If this CIF has been generated from an entry in the Cambridge 
# Structural Database, then it will include bibliographic, chemical, 
# crystal, experimental, refinement or atomic coordinate data resulting 
# from the CCDC's data processing and validation procedures.
#
#######################################################################

data_RICLIA
_symmetry_cell_setting           triclinic
_symmetry_space_group_name_H-M   'P -1'
_symmetry_Int_Tables_number      2
_space_group_name_Hall           '-P 1'
loop_
_symmetry_equiv_pos_site_id
_symmetry_equiv_pos_as_xyz
1 x,y,z
2 -x,-y,-z
_cell_length_a                   8.90086(24)
_cell_length_b                   10.66551(31)
_cell_length_c                   16.41085(79)
_cell_angle_alpha                103.6597(35)
_cell_angle_beta                 95.9754(32)
_cell_angle_gamma                113.5266(19)
_cell_volume                     1353.17
loop_
_atom_site_label
_atom_site_type_symbol
_atom_site_fract_x
_atom_site_fract_y
_atom_site_fract_z
Cu1 Cu 1.1209(10) -0.0447(10) -0.0443(6)
P1 P 1.0469(9) 0.0435(7) 0.2226(5)
P2 P 1.5365(8) -0.1694(6) 0.0734(4)
O1 O 1.065(2) 0.1481(12) 0.1675(16)
O2 O 1.707(2) -0.0460(17) 0.1045(10)
O3 O 0.969(4) -0.099(2) 0.0276(13)
O4 O 1.227(2) -0.161(2) -0.0276(11)
O5 O 1.2059(16) 0.0769(8) 0.3799(5)
O6 O 1.3584(13) -0.4082(11) 0.1103(9)
O7 O 0.9906(15) 0.2147(8) 0.3505(7)
O8 O 1.450(2) -0.1108(11) 0.2208(7)
C1 C 0.9810(18) -0.1411(7) 0.1664(4)
C2 C 1.4584(9) -0.2315(13) -0.0403(5)
C3 C 0.955(2) -0.1834(6) 0.0735(5)
C4 C 1.3116(8) -0.2143(13) -0.0741(5)
C5 C 0.923(6) -0.3281(9) 0.0317(6)
C6 C 1.2494(9) -0.2721(19) -0.1658(9)
C7 C 0.897(5) -0.4258(11) 0.0758(5)
C8 C 1.3508(12) -0.302(3) -0.2195(6)
C9 C 0.921(4) -0.3827(12) 0.1664(8)
C10 C 1.5007(10) -0.310(2) -0.1853(8)
C11 C 0.981(3) -0.2369(11) 0.2109(7)
C12 C 1.5560(13) -0.269(2) -0.0957(6)
C13 C 1.2410(17) 0.1037(15) 0.3001(5)
C14 C 1.5258(15) -0.3237(15) 0.1062(9)
C15 C 0.9174(19) 0.0656(11) 0.2990(8)
C16 C 1.3946(15) -0.1288(14) 0.1308(6)
C17 C 1.2076(11) 0.1895(8) 0.4414(6)
C18 C 1.3191(17) -0.3791(9) 0.1884(5)
C19 C 1.0961(9) 0.2494(10) 0.4302(5)
C20 C 1.377(2) -0.2371(8) 0.2458(4)
C21 C 1.0437(10) 0.3023(16) 0.5035(8)
C22 C 1.356(4) -0.2182(9) 0.3334(6)
C23 C 1.1279(16) 0.319(2) 0.5889(6)
C24 C 1.287(4) -0.3414(15) 0.3637(7)
C25 C 1.2742(16) 0.300(2) 0.5982(6)
C26 C 1.234(4) -0.4846(10) 0.3048(5)
C27 C 1.3097(10) 0.2279(13) 0.5258(9)
C28 C 1.230(4) -0.5010(11) 0.2166(8)
H1 H 1.55195 -0.38346 0.06106
H2 H 1.60859 -0.29098 0.15930
H3 H 0.90767 -0.35416 -0.02787
H4 H 1.37960 -0.04847 0.12009
H5 H 1.14568 -0.27820 -0.18838
H6 H 0.86323 -0.52182 0.04624
H7 H 1.28799 -0.21416 0.11094
H8 H 1.32274 -0.31777 -0.27845
H9 H 0.91250 -0.44972 0.19527
H10 H 1.56474 -0.33936 -0.21959
H11 H 0.99397 -0.20680 0.27026
H12 H 1.65161 -0.27263 -0.07027
H13 H 1.30543 0.20568 0.30924
H14 H 1.30306 0.05274 0.27594
H15 H 0.80376 0.02985 0.26616
H16 H 0.91927 0.00656 0.33554
H17 H 0.94102 0.30629 0.50230
H18 H 1.38939 -0.12546 0.36904
H19 H 1.11358 0.37254 0.63842
H20 H 1.26727 -0.32663 0.41886
H21 H 1.36613 0.35618 0.64416
H22 H 1.19243 -0.56481 0.32394
H23 H 1.37181 0.17885 0.53647
H24 H 1.16729 -0.59187 0.17732
Cu1A Cu 0.8791(10) 0.0447(10) 0.0443(6)
Cu1A_2 Cu 1.8791(10) 0.0447(10) 0.0443(6)
O1A O 0.935(2) -0.1481(12) -0.1675(16)
O2A O 1.293(2) 0.0460(17) -0.1045(10)
O3A O 1.031(4) 0.099(2) -0.0276(13)
loop_
_geom_bond_atom_site_label_1
_geom_bond_atom_site_label_2
_geom_bond_site_symmetry_1
_geom_bond_site_symmetry_2
Cu1 O3 1_555 1_555
P1 O1 1_555 1_555
P2 O2 1_555 1_555
O1 Cu1A 1_555 1_555
O2 Cu1A_2 1_555 1_555
O3 C3 1_555 1_555
O4 Cu1 1_555 1_555
O5 C13 1_555 1_555
O6 C14 1_555 1_555
O7 C15 1_555 1_555
O8 C16 1_555 1_555
C1 P1 1_555 1_555
C2 P2 1_555 1_555
C3 C1 1_555 1_555
C4 O4 1_555 1_555
C5 C3 1_555 1_555
C6 C4 1_555 1_555
C7 C5 1_555 1_555
C8 C6 1_555 1_555
C9 C7 1_555 1_555
C10 C8 1_555 1_555
C11 C1 1_555 1_555
C12 C2 1_555 1_555
C13 P1 1_555 1_555
C14 P2 1_555 1_555
C15 P1 1_555 1_555
C16 P2 1_555 1_555
C17 O5 1_555 1_555
C18 O6 1_555 1_555
C19 O7 1_555 1_555
C20 O8 1_555 1_555
C21 C19 1_555 1_555
C22 C20 1_555 1_555
C23 C21 1_555 1_555
C24 C22 1_555 1_555
C25 C23 1_555 1_555
C26 C24 1_555 1_555
C27 C17 1_555 1_555
C28 C18 1_555 1_555
H1 C14 1_555 1_555
H2 C14 1_555 1_555
H3 C5 1_555 1_555
H4 C16 1_555 1_555
H5 C6 1_555 1_555
H6 C7 1_555 1_555
H7 C16 1_555 1_555
H8 C8 1_555 1_555
H9 C9 1_555 1_555
H10 C10 1_555 1_555
H11 C11 1_555 1_555
H12 C12 1_555 1_555
H13 C13 1_555 1_555
H14 C13 1_555 1_555
H15 C15 1_555 1_555
H16 C15 1_555 1_555
H17 C21 1_555 1_555
H18 C22 1_555 1_555
H19 C23 1_555 1_555
H20 C24 1_555 1_555
H21 C25 1_555 1_555
H22 C26 1_555 1_555
H23 C27 1_555 1_555
H24 C28 1_555 1_555
Cu1A O3 1_555 1_555
O1A Cu1 1_555 1_555
O2A Cu1 1_555 1_555
O3A Cu1 1_555 1_555
C2 C4 1_555 1_555
C9 C11 1_555 1_555
C10 C12 1_555 1_555
C17 C19 1_555 1_555
C18 C20 1_555 1_555
C25 C27 1_555 1_555
C26 C28 1_555 1_555
Cu1A O3A 1_555 1_555

#END
