
#######################################################################
#
#                 Cambridge Crystallographic Data Centre
#                                CCDC 
#
#######################################################################
#
# If this CIF has been generated from an entry in the Cambridge 
# Structural Database, then it will include bibliographic, chemical, 
# crystal, experimental, refinement or atomic coordinate data resulting 
# from the CCDC's data processing and validation procedures.
#
#######################################################################

data_RICMOH
_symmetry_cell_setting           monoclinic
_symmetry_space_group_name_H-M   'P 21/c'
_symmetry_Int_Tables_number      14
_space_group_name_Hall           '-P 2ybc'
loop_
_symmetry_equiv_pos_site_id
_symmetry_equiv_pos_as_xyz
1 x,y,z
2 -x,1/2+y,1/2-z
3 -x,-y,-z
4 x,1/2-y,1/2+z
_cell_length_a                   7.7487(15)
_cell_length_b                   19.408(4)
_cell_length_c                   8.3361(17)
_cell_angle_alpha                90
_cell_angle_beta                 99.81(3)
_cell_angle_gamma                90
_cell_volume                     1235.31
loop_
_atom_site_label
_atom_site_type_symbol
_atom_site_fract_x
_atom_site_fract_y
_atom_site_fract_z
Fe1 Fe 1.05476(8) 0.67548(3) 0.60917(8)
P1 P 0.74786(15) 0.30964(6) 0.71614(14)
O1 O 0.8195(5) 0.33723(18) 0.5752(4)
O2 O 0.7762(4) 0.23433(15) 0.7523(4)
O3 O 0.5481(4) 0.32612(16) 0.6821(4)
H1 H 0.5044 0.3151 0.7613
O4 O 0.8297(4) 0.64235(15) 0.7216(4)
O5 O 0.8529(4) 0.74203(19) 0.5322(5)
O6 O 0.6237(4) 0.79759(17) 0.5919(4)
N1 N 1.0885(4) 0.56753(18) 0.6704(4)
C1 C 1.2231(6) 0.5311(2) 0.6394(6)
H2 H 1.3057 0.5525 0.5872
C2 C 1.2459(6) 0.4617(2) 0.6823(6)
H3 H 1.3435 0.4378 0.6607
C3 C 1.1244(5) 0.4293(2) 0.7558(6)
H4 H 1.1390 0.3831 0.7848
C4 C 0.9767(5) 0.4656(2) 0.7880(5)
C5 C 0.8379(6) 0.4355(2) 0.8569(5)
C6 C 0.6998(6) 0.4767(2) 0.8800(5)
H5 H 0.6087 0.4573 0.9246
C7 C 0.6915(6) 0.5471(2) 0.8386(6)
H6 H 0.5973 0.5737 0.8576
C8 C 0.8212(5) 0.5759(2) 0.7708(5)
C9 C 0.9655(5) 0.5357(2) 0.7431(5)
C10 C 0.8365(6) 0.3595(2) 0.8953(5)
H7 H 0.7664 0.3517 0.9795
H8 H 0.9550 0.3443 0.9366
C11 C 0.6744(6) 0.6843(2) 0.6962(6)
H9 H 0.6437 0.6983 0.7994
H10 H 0.5765 0.6593 0.6346
C12 C 0.7207(6) 0.7467(2) 0.6009(6)
Fe1A Fe 0.94524(8) 0.17548(3) 0.89083(8)
Fe1B Fe 0.94524(8) 0.32452(3) 0.39083(8)
O1B O 1.1805(5) 0.66277(18) 0.4248(4)
O2A O 1.2238(4) 0.73433(15) 0.7477(4)
loop_
_geom_bond_atom_site_label_1
_geom_bond_atom_site_label_2
_geom_bond_site_symmetry_1
_geom_bond_site_symmetry_2
Fe1 O4 1_555 1_555
P1 O1 1_555 1_555
O1 Fe1B 1_555 1_555
O2 P1 1_555 1_555
O3 P1 1_555 1_555
H1 O3 1_555 1_555
O4 C8 1_555 1_555
O5 Fe1 1_555 1_555
O6 C12 1_555 1_555
N1 Fe1 1_555 1_555
C1 N1 1_555 1_555
H2 C1 1_555 1_555
C2 C1 1_555 1_555
H3 C2 1_555 1_555
C3 C2 1_555 1_555
H4 C3 1_555 1_555
C4 C3 1_555 1_555
C5 C4 1_555 1_555
C6 C5 1_555 1_555
H5 C6 1_555 1_555
C7 C6 1_555 1_555
H6 C7 1_555 1_555
C8 C7 1_555 1_555
C9 N1 1_555 1_555
C10 P1 1_555 1_555
H7 C10 1_555 1_555
H8 C10 1_555 1_555
C11 O4 1_555 1_555
H9 C11 1_555 1_555
H10 C11 1_555 1_555
C12 O5 1_555 1_555
Fe1A O2 1_555 1_555
O1B Fe1 1_555 1_555
O2A Fe1 1_555 1_555
C4 C9 1_555 1_555
C5 C10 1_555 1_555
C8 C9 1_555 1_555
C11 C12 1_555 1_555

#END
