
#######################################################################
#
#                 Cambridge Crystallographic Data Centre
#                                CCDC 
#
#######################################################################
#
# If this CIF has been generated from an entry in the Cambridge 
# Structural Database, then it will include bibliographic, chemical, 
# crystal, experimental, refinement or atomic coordinate data resulting 
# from the CCDC's data processing and validation procedures.
#
#######################################################################

data_RICMUN
_symmetry_cell_setting           monoclinic
_symmetry_space_group_name_H-M   'P 21/c'
_symmetry_Int_Tables_number      14
_space_group_name_Hall           '-P 2ybc'
loop_
_symmetry_equiv_pos_site_id
_symmetry_equiv_pos_as_xyz
1 x,y,z
2 -x,1/2+y,1/2-z
3 -x,-y,-z
4 x,1/2-y,1/2+z
_cell_length_a                   10.8573(10)
_cell_length_b                   11.5904(11)
_cell_length_c                   10.9689(10)
_cell_angle_alpha                90
_cell_angle_beta                 96.0800(10)
_cell_angle_gamma                90
_cell_volume                     1372.57
loop_
_atom_site_label
_atom_site_type_symbol
_atom_site_fract_x
_atom_site_fract_y
_atom_site_fract_z
Cu1 Cu -0.31450(3) 0.41276(3) 0.61306(3)
P1 P 0.39554(7) 0.36620(7) 0.54637(8)
O1 O 0.5238(2) 0.3439(2) 0.6080(2)
O2 O 0.3591(2) 0.4915(2) 0.5297(2)
O3 O 0.3742(2) 0.3079(2) 0.4167(2)
H1 H 0.3826 0.2378 0.4241
O4 O -0.2257(2) 0.27457(19) 0.4964(2)
O5 O -0.2715(2) 0.1782(2) 0.2656(2)
O6 O -0.3197(3) 0.0090(2) 0.3443(3)
N1 N -0.1349(2) 0.4558(2) 0.6250(2)
C1 C -0.0920(3) 0.5505(3) 0.6820(3)
H2 H -0.1481 0.6061 0.7022
C2 C 0.0349(3) 0.5702(3) 0.7133(3)
H3 H 0.0622 0.6390 0.7505
C3 C 0.1181(3) 0.4871(3) 0.6886(3)
H4 H 0.2021 0.4977 0.7127
C4 C 0.0765(3) 0.3847(3) 0.6264(3)
C5 C 0.1578(3) 0.2938(3) 0.5972(3)
C6 C 0.1075(3) 0.2020(3) 0.5292(3)
H5 H 0.1599 0.1436 0.5078
C7 C -0.0203(3) 0.1930(3) 0.4909(3)
H6 H -0.0505 0.1308 0.4432
C8 C -0.1000(3) 0.2766(3) 0.5244(3)
C9 C -0.0525(3) 0.3741(3) 0.5931(3)
C10 C 0.2937(3) 0.2953(3) 0.6432(3)
H7 H 0.3212 0.2161 0.6553
H8 H 0.3030 0.3327 0.7227
C11 C -0.2830(3) 0.1632(3) 0.4818(3)
H9 H -0.3662 0.1689 0.5058
H10 H -0.2373 0.1101 0.5380
C12 C -0.2909(3) 0.1122(3) 0.3546(3)
Cu1_2 Cu 0.68550(3) 0.41276(3) 0.61306(3)
Cu1B Cu 0.31450(3) 0.58724(3) 0.38694(3)
Cu1C Cu -0.31450(3) 0.08724(3) 0.11306(3)
O1_2 O -0.4762(2) 0.3439(2) 0.6080(2)
O2B O -0.3591(2) 0.5085(2) 0.4703(2)
O5C O -0.2715(2) 0.3218(2) 0.7656(2)
O6C O -0.3197(3) 0.4910(2) 0.8443(3)
O7 O 0.4129(3) 0.5962(2) 0.7740(3)
H11 H 0.3974 0.5658 0.7036
H12 H 0.3940 0.6674 0.7701
O8 O 0.4011(3) 0.0852(2) 0.4389(3)
H13 H 0.3894 0.0541 0.3685
H14 H 0.3485 0.0591 0.4840
loop_
_geom_bond_atom_site_label_1
_geom_bond_atom_site_label_2
_geom_bond_site_symmetry_1
_geom_bond_site_symmetry_2
Cu1 O4 1_555 1_555
P1 O1 1_555 1_555
O1 Cu1_2 1_555 1_555
O2 P1 1_555 1_555
O3 P1 1_555 1_555
H1 O3 1_555 1_555
O4 C8 1_555 1_555
O5 C12 1_555 1_555
O6 C12 1_555 1_555
N1 Cu1 1_555 1_555
C1 N1 1_555 1_555
H2 C1 1_555 1_555
C2 C1 1_555 1_555
H3 C2 1_555 1_555
C3 C2 1_555 1_555
H4 C3 1_555 1_555
C4 C3 1_555 1_555
C5 C4 1_555 1_555
C6 C5 1_555 1_555
H5 C6 1_555 1_555
C7 C6 1_555 1_555
H6 C7 1_555 1_555
C8 C7 1_555 1_555
C9 N1 1_555 1_555
C10 P1 1_555 1_555
H7 C10 1_555 1_555
H8 C10 1_555 1_555
C11 O4 1_555 1_555
H9 C11 1_555 1_555
H10 C11 1_555 1_555
C12 C11 1_555 1_555
O7 H11 1_555 1_555
H12 O7 1_555 1_555
O8 H13 1_555 1_555
H14 O8 1_555 1_555
Cu1B O2 1_555 1_555
Cu1C O5 1_555 1_555
O1_2 Cu1 1_555 1_555
O2B Cu1 1_555 1_555
O5C Cu1 1_555 1_555
O6C Cu1 1_555 1_555
O6 Cu1C 1_555 1_555
C4 C9 1_555 1_555
C5 C10 1_555 1_555
C8 C9 1_555 1_555

#END
