
#######################################################################
#
#                 Cambridge Crystallographic Data Centre
#                                CCDC 
#
#######################################################################
#
# If this CIF has been generated from an entry in the Cambridge 
# Structural Database, then it will include bibliographic, chemical, 
# crystal, experimental, refinement or atomic coordinate data resulting 
# from the CCDC's data processing and validation procedures.
#
#######################################################################

data_RICNAU
_symmetry_cell_setting           orthorhombic
_symmetry_space_group_name_H-M   'P b c a'
_symmetry_Int_Tables_number      61
_space_group_name_Hall           '-P 2ac 2ab'
loop_
_symmetry_equiv_pos_site_id
_symmetry_equiv_pos_as_xyz
1 x,y,z
2 1/2-x,-y,1/2+z
3 -x,1/2+y,1/2-z
4 1/2+x,1/2-y,-z
5 -x,-y,-z
6 1/2+x,y,1/2-z
7 x,1/2-y,1/2+z
8 1/2-x,1/2+y,z
_cell_length_a                   15.4847(16)
_cell_length_b                   7.8115(8)
_cell_length_c                   19.2932(19)
_cell_angle_alpha                90
_cell_angle_beta                 90
_cell_angle_gamma                90
_cell_volume                     2333.68
loop_
_atom_site_label
_atom_site_type_symbol
_atom_site_fract_x
_atom_site_fract_y
_atom_site_fract_z
Zn1 Zn 0.51991(4) 0.19585(7) 0.65625(2)
P1 P 0.60740(8) 0.04337(15) 0.26060(6)
O1 O 0.5157(2) -0.0083(4) 0.28313(16)
O2 O 0.4136(2) 0.3578(5) 0.68255(19)
H1 H 0.375(3) 0.300(7) 0.704(3)
H2 H 0.432(4) 0.439(7) 0.708(3)
O3 O 0.60394(19) 0.1394(4) 0.19166(15)
O4 O 0.6682(2) -0.1087(5) 0.25811(17)
O5 O 0.6245(2) 0.0378(4) 0.60942(16)
H3 H 0.672(4) 0.061(7) 0.630(3)
N1 N 0.5021(2) 0.2255(5) 0.55226(18)
C1 C 0.4384(3) 0.3105(7) 0.5249(3)
H4 H 0.3938 0.3477 0.5535
C2 C 0.4341(3) 0.3487(7) 0.4533(2)
H5 H 0.3872 0.4084 0.4354
C3 C 0.4990(3) 0.2975(6) 0.4108(2)
H6 H 0.4964 0.3217 0.3636
C4 C 0.5711(3) 0.2068(6) 0.4384(2)
C5 C 0.6411(3) 0.1479(6) 0.3983(2)
C6 C 0.7031(3) 0.0504(7) 0.4296(2)
H7 H 0.7487 0.0093 0.4030
C7 C 0.7004(3) 0.0100(7) 0.5009(3)
H8 H 0.7436 -0.0574 0.5204
C8 C 0.6350(3) 0.0692(6) 0.5411(2)
C9 C 0.5696(3) 0.1678(6) 0.5103(2)
C10 C 0.6499(3) 0.1956(7) 0.3224(2)
H9 H 0.7107 0.2126 0.3124
H10 H 0.6210 0.3043 0.3151
Zn1D Zn 0.48009(4) -0.19585(7) 0.34375(2)
Zn1F Zn 0.51991(4) 0.30415(7) 0.15625(2)
O1D O 0.4843(2) 0.0083(4) 0.71687(16)
O3F O 0.60394(19) 0.3606(4) 0.69166(15)
O6 O 0.7228(3) 0.8040(6) 0.6514(2)
H11 H 0.709(4) 0.699(9) 0.646(3)
H12 H 0.774(4) 0.820(8) 0.637(3)
loop_
_geom_bond_atom_site_label_1
_geom_bond_atom_site_label_2
_geom_bond_site_symmetry_1
_geom_bond_site_symmetry_2
Zn1 O2 1_555 1_555
P1 O1 1_555 1_555
O1 Zn1D 1_555 1_555
O2 H1 1_555 1_555
H2 O2 1_555 1_555
O3 P1 1_555 1_555
O4 P1 1_555 1_555
O5 Zn1 1_555 1_555
H3 O5 1_555 1_555
N1 Zn1 1_555 1_555
C1 N1 1_555 1_555
H4 C1 1_555 1_555
C2 C1 1_555 1_555
H5 C2 1_555 1_555
C3 C2 1_555 1_555
H6 C3 1_555 1_555
C4 C3 1_555 1_555
C5 C4 1_555 1_555
C6 C5 1_555 1_555
H7 C6 1_555 1_555
C7 C6 1_555 1_555
H8 C7 1_555 1_555
C8 O5 1_555 1_555
C9 N1 1_555 1_555
C10 P1 1_555 1_555
H9 C10 1_555 1_555
H10 C10 1_555 1_555
O6 H11 1_555 1_555
H12 O6 1_555 1_555
Zn1F O3 1_555 1_555
O1D Zn1 1_555 1_555
O3F Zn1 1_555 1_555
C4 C9 1_555 1_555
C5 C10 1_555 1_555
C7 C8 1_555 1_555
C8 C9 1_555 1_555

#END
