
#######################################################################
#
#                 Cambridge Crystallographic Data Centre
#                                CCDC 
#
#######################################################################
#
# If this CIF has been generated from an entry in the Cambridge 
# Structural Database, then it will include bibliographic, chemical, 
# crystal, experimental, refinement or atomic coordinate data resulting 
# from the CCDC's data processing and validation procedures.
#
#######################################################################

data_RICQOK
_symmetry_cell_setting           monoclinic
_symmetry_space_group_name_H-M   'C 2/c'
_symmetry_Int_Tables_number      15
_space_group_name_Hall           '-C 2yn'
loop_
_symmetry_equiv_pos_site_id
_symmetry_equiv_pos_as_xyz
1 x,y,z
2 1/2+x,1/2+y,z
3 -x,y,1/2-z
4 1/2-x,1/2+y,1/2-z
5 -x,-y,-z
6 1/2-x,1/2-y,-z
7 x,-y,1/2+z
8 1/2+x,1/2-y,1/2+z
_cell_length_a                   25.593(2)
_cell_length_b                   14.9494(14)
_cell_length_c                   16.2415(15)
_cell_angle_alpha                90
_cell_angle_beta                 116.503(2)
_cell_angle_gamma                90
_cell_volume                     5560.97
loop_
_atom_site_label
_atom_site_type_symbol
_atom_site_fract_x
_atom_site_fract_y
_atom_site_fract_z
Cu1 Cu 0.311137(18) -0.12188(3) -0.00584(3)
Cu2 Cu 0.394330(18) -0.13167(3) -0.21526(3)
O1 O 0.30978(10) -0.03210(15) -0.23569(15)
N1 N 0.42414(11) -0.01403(18) -0.15194(18)
N2 N 0.27644(12) -0.00030(19) -0.05522(19)
N3 N 0.34557(11) -0.10282(17) -0.08824(18)
N4 N 0.36778(11) -0.16404(18) -0.12166(17)
N5 N 0.36329(12) -0.22858(18) 0.04607(18)
N6 N 0.40431(12) -0.26116(18) -0.21540(19)
N7 N 0.25801(14) -0.1373(2) 0.0486(2)
N8 N 0.25495(13) -0.1894(2) 0.0991(2)
N9 N 0.24970(15) -0.2422(3) 0.1477(3)
N10 N 0.39919(17) 0.1080(2) 0.1709(2)
N11 N 0.39397(13) 0.0336(2) 0.14698(19)
N12 N 0.39059(15) -0.0399(2) 0.1232(2)
C1 C 0.47530(15) 0.0198(3) -0.1386(2)
H1 H 0.4965 -0.0091 -0.1646
C2 C 0.49809(17) 0.0960(3) -0.0878(3)
H2 H 0.5340 0.1183 -0.0794
C3 C 0.46638(17) 0.1382(3) -0.0499(3)
H3 H 0.4806 0.1900 -0.0152
C4 C 0.41326(15) 0.1034(2) -0.0636(3)
H4 H 0.3917 0.1305 -0.0372
C5 C 0.39268(14) 0.0279(2) -0.1168(2)
C6 C 0.33425(14) -0.0179(2) -0.1394(2)
C7 C 0.29459(15) 0.0377(2) -0.1126(2)
C8 C 0.27670(15) 0.1220(2) -0.1483(3)
H5 H 0.2884 0.1460 -0.1903
C9 C 0.24119(17) 0.1703(3) -0.1211(3)
H6 H 0.2297 0.2282 -0.1426
C10 C 0.22298(18) 0.1308(3) -0.0608(3)
H7 H 0.1989 0.1617 -0.0415
C11 C 0.24104(16) 0.0459(3) -0.0303(3)
H8 H 0.2283 0.0192 0.0093
C12 C 0.37694(16) -0.2515(3) 0.1337(2)
H9 H 0.3603 -0.2184 0.1645
C13 C 0.41290(17) -0.3189(3) 0.1795(3)
H10 H 0.4195 -0.3335 0.2390
C14 C 0.43974(18) -0.3657(3) 0.1359(3)
H11 H 0.4650 -0.4126 0.1658
C15 C 0.42900(16) -0.3427(2) 0.0478(2)
H12 H 0.4479 -0.3728 0.0187
C16 C 0.38977(14) -0.2743(2) 0.0024(2)
C17 C 0.38159(14) -0.2453(2) -0.0889(2)
C18 C 0.39430(14) -0.3048(2) -0.1508(2)
C19 C 0.39181(17) -0.3975(2) -0.1515(3)
H13 H 0.3822 -0.4278 -0.1102
C20 C 0.40385(18) -0.4440(3) -0.2142(3)
H14 H 0.4028 -0.5062 -0.2149
C21 C 0.41731(18) -0.3993(3) -0.2754(3)
H15 H 0.4266 -0.4305 -0.3166
C22 C 0.41684(16) -0.3073(3) -0.2750(3)
H16 H 0.4254 -0.2764 -0.3172
C23 C 0.25169(16) -0.0699(3) -0.2773(3)
H17 H 0.2388 -0.0771 -0.3422
H18 H 0.2254 -0.0307 -0.2672
H19 H 0.2522 -0.1271 -0.2501
Cu2F Cu 0.394330(18) 0.13167(3) 0.28474(3)
N10F N 0.39919(17) -0.1080(2) -0.3291(2)
Cl1 Cl 0.40762(5) 0.36540(7) -0.02618(7)
O2 O 0.3939(2) 0.4495(3) 0.0008(4)
O3 O 0.4268(2) 0.3702(4) -0.0955(3)
O4 O 0.3601(2) 0.3007(4) -0.0453(4)
O5 O 0.4559(2) 0.3263(4) 0.0512(3)
O6? O 0.3945(3) 0.3530(5) -0.1190(4)
O7? O 0.3925(4) 0.2924(5) 0.0112(6)
O8? O 0.4644(3) 0.3877(8) 0.0279(8)
O9? O 0.3708(3) 0.4384(4) -0.0274(5)
loop_
_geom_bond_atom_site_label_1
_geom_bond_atom_site_label_2
_geom_bond_site_symmetry_1
_geom_bond_site_symmetry_2
Cu1 N2 1_555 1_555
Cu2 N1 1_555 1_555
O1 C6 1_555 1_555
N1 C1 1_555 1_555
N2 C7 1_555 1_555
N3 Cu1 1_555 1_555
N4 Cu2 1_555 1_555
N5 Cu1 1_555 1_555
N6 Cu2 1_555 1_555
N7 Cu1 1_555 1_555
N8 N7 1_555 1_555
N9 N8 1_555 1_555
N10 N11 1_555 1_555
N11 N12 1_555 1_555
N12 Cu1 1_555 1_555
C1 H1 1_555 1_555
C2 C1 1_555 1_555
H2 C2 1_555 1_555
C3 C2 1_555 1_555
H3 C3 1_555 1_555
C4 C3 1_555 1_555
H4 C4 1_555 1_555
C5 N1 1_555 1_555
C6 N3 1_555 1_555
C7 C6 1_555 1_555
C8 C7 1_555 1_555
H5 C8 1_555 1_555
C9 C8 1_555 1_555
H6 C9 1_555 1_555
C10 C9 1_555 1_555
H7 C10 1_555 1_555
C11 N2 1_555 1_555
H8 C11 1_555 1_555
C12 N5 1_555 1_555
H9 C12 1_555 1_555
C13 C12 1_555 1_555
H10 C13 1_555 1_555
C14 C13 1_555 1_555
H11 C14 1_555 1_555
C15 C14 1_555 1_555
H12 C15 1_555 1_555
C16 N5 1_555 1_555
C17 N4 1_555 1_555
C18 N6 1_555 1_555
C19 C18 1_555 1_555
H13 C19 1_555 1_555
C20 C19 1_555 1_555
H14 C20 1_555 1_555
C21 C20 1_555 1_555
H15 C21 1_555 1_555
C22 N6 1_555 1_555
H16 C22 1_555 1_555
C23 O1 1_555 1_555
H17 C23 1_555 1_555
H18 C23 1_555 1_555
H19 C23 1_555 1_555
Cl1 O2 1_555 1_555
O3 Cl1 1_555 1_555
O4 Cl1 1_555 1_555
O5 Cl1 1_555 1_555
Cu2F N10 1_555 1_555
N10F Cu2 1_555 1_555
N3 N4 1_555 1_555
C4 C5 1_555 1_555
C5 C6 1_555 1_555
C10 C11 1_555 1_555
C15 C16 1_555 1_555
C16 C17 1_555 1_555
C17 C18 1_555 1_555
C21 C22 1_555 1_555

#END
