
#######################################################################
#
#                 Cambridge Crystallographic Data Centre
#                                CCDC 
#
#######################################################################
#
# If this CIF has been generated from an entry in the Cambridge 
# Structural Database, then it will include bibliographic, chemical, 
# crystal, experimental, refinement or atomic coordinate data resulting 
# from the CCDC's data processing and validation procedures.
#
#######################################################################

data_RICRAX
_symmetry_cell_setting           monoclinic
_symmetry_space_group_name_H-M   'P 21/c'
_symmetry_Int_Tables_number      14
_space_group_name_Hall           '-P 2ybc'
loop_
_symmetry_equiv_pos_site_id
_symmetry_equiv_pos_as_xyz
1 x,y,z
2 -x,1/2+y,1/2-z
3 -x,-y,-z
4 x,1/2-y,1/2+z
_cell_length_a                   6.2520(8)
_cell_length_b                   9.6115(12)
_cell_length_c                   12.8642(16)
_cell_angle_alpha                90
_cell_angle_beta                 103.816(2)
_cell_angle_gamma                90
_cell_volume                     750.658
loop_
_atom_site_label
_atom_site_type_symbol
_atom_site_fract_x
_atom_site_fract_y
_atom_site_fract_z
Na1 Na 0.43012(16) 0.45693(11) 0.13805(8)
N1 N 0.7396(3) 0.5955(2) 0.11199(17)
N2 N 0.8150(4) 0.7269(2) 0.12325(17)
N3 N 1.0308(3) 0.7264(2) 0.13583(17)
N4 N 1.1018(3) 0.5943(2) 0.13294(16)
C1 C 0.9191(4) 0.5174(3) 0.11857(18)
C2 C 0.9159(4) 0.3645(3) 0.11222(19)
N5 N 0.7182(3) 0.3030(2) 0.09878(17)
C3 C 0.7193(4) 0.1645(3) 0.0940(2)
H1 H 0.5826 0.1166 0.0821
C4 C 0.9103(4) 0.0872(3) 0.1056(2)
H2 H 0.9082 -0.0116 0.1041
C5 C 1.1046(4) 0.1619(3) 0.1194(2)
H3 H 1.2393 0.1125 0.1279
N6 N 1.1093(3) 0.3006(2) 0.12129(17)
O1 O 0.5491(4) 0.3911(2) 0.32034(16)
H4 H 0.657(8) 0.346(5) 0.336(3)
H5 H 0.462(7) 0.349(5) 0.337(3)
Na1_2 Na 1.43012(16) 0.45693(11) 0.13805(8)
N4_2 N 0.1018(3) 0.5943(2) 0.13294(16)
N6_2 N 0.1093(3) 0.3006(2) 0.12129(17)
loop_
_geom_bond_atom_site_label_1
_geom_bond_atom_site_label_2
_geom_bond_site_symmetry_1
_geom_bond_site_symmetry_2
Na1 N1 1_555 1_555
N1 N2 1_555 1_555
N2 N3 1_555 1_555
N3 N4 1_555 1_555
N4 C1 1_555 1_555
C1 N1 1_555 1_555
C2 C1 1_555 1_555
N5 Na1 1_555 1_555
C3 N5 1_555 1_555
H1 C3 1_555 1_555
C4 C3 1_555 1_555
H2 C4 1_555 1_555
C5 C4 1_555 1_555
H3 C5 1_555 1_555
N6 C2 1_555 1_555
O1 Na1 1_555 1_555
H4 O1 1_555 1_555
H5 O1 1_555 1_555
Na1_2 N4 1_555 1_555
N4_2 Na1 1_555 1_555
N6_2 Na1 1_555 1_555
C2 N5 1_555 1_555
C5 N6 1_555 1_555
N6 Na1_2 1_555 1_555

#END
