
#######################################################################
#
#                 Cambridge Crystallographic Data Centre
#                                CCDC 
#
#######################################################################
#
# If this CIF has been generated from an entry in the Cambridge 
# Structural Database, then it will include bibliographic, chemical, 
# crystal, experimental, refinement or atomic coordinate data resulting 
# from the CCDC's data processing and validation procedures.
#
#######################################################################

data_RICRIF
_symmetry_cell_setting           monoclinic
_symmetry_space_group_name_H-M   'C 2/c'
_symmetry_Int_Tables_number      15
_space_group_name_Hall           '-C 2yn'
loop_
_symmetry_equiv_pos_site_id
_symmetry_equiv_pos_as_xyz
1 x,y,z
2 -x,y,1/2-z
3 1/2+x,1/2+y,z
4 1/2-x,1/2+y,1/2-z
5 -x,-y,-z
6 x,-y,1/2+z
7 1/2-x,1/2-y,-z
8 1/2+x,1/2-y,1/2+z
_cell_length_a                   16.10858(80)
_cell_length_b                   6.60053(31)
_cell_length_c                   17.24252(89)
_cell_angle_alpha                90
_cell_angle_beta                 95.1767(44)
_cell_angle_gamma                90
_cell_volume                     1825.84
loop_
_atom_site_label
_atom_site_type_symbol
_atom_site_fract_x
_atom_site_fract_y
_atom_site_fract_z
Cd1 Cd 1.03826(20) -0.08601(51) -1.11902(20)
N1 N 0.769829 -0.046531 -1.074914
N2 N 0.831399 -0.074096 -1.121531
N3 N 0.904087 -0.058134 -1.080027
N4 N 0.891705 -0.019962 -1.005131
C1 C 0.808925 -0.013419 -1.004429
C2 C 0.765698 0.028211 -0.934468
N5 N 0.682017 0.031636 -0.943994
C3 C 0.644163 0.070962 -0.88006
H1 H 0.584967 0.070317 -0.883630
C4 C 0.687125 0.112696 -0.808712
H2 H 0.659077 0.144483 -0.764103
C5 C 0.773295 0.105571 -0.805917
H3 H 0.805004 0.133795 -0.757984
N6 N 0.813335 0.060516 -0.868090
Cl1 Cl 1.00000 -0.2734(19) -1.25
N7 N 1.00000 0.2588(63) -1.25
N8 N 1.0295(19) 0.2370(48) -1.1774(10)
O1 O 1.0662(12) -0.4416(36) -1.0726(11)
Cd1D Cd 0.96174(20) 0.08601(51) -0.88098(20)
Cd1A Cd 0.96174(20) -0.08601(51) -1.38098(20)
N1D N 1.230171 0.046531 -0.925086
N2D N 1.168601 0.074096 -0.878469
N3D N 1.095913 0.058134 -0.919973
N4D N 1.108295 0.019962 -0.994869
C1D C 1.191075 0.013419 -0.995571
C2D C 1.234302 -0.028211 -1.065532
N5D N 1.317983 -0.031636 -1.056006
C3D C 1.355837 -0.070962 -1.11994
H1D H 1.415033 -0.070317 -1.116370
C4D C 1.312875 -0.112696 -1.191288
H2D H 1.340923 -0.144483 -1.235897
C5D C 1.226705 -0.105571 -1.194083
H3D H 1.194996 -0.133795 -1.242016
N6D N 1.186665 -0.060516 -1.131910
Cl1D Cl 1.00000 0.2734(19) -0.75
N8A N 0.9705(19) 0.2370(48) -1.3226(10)
N8D N 0.9705(19) -0.2370(48) -0.8226(10)
O1D O 0.9338(12) 0.4416(36) -0.9274(11)
loop_
_geom_bond_atom_site_label_1
_geom_bond_atom_site_label_2
_geom_bond_site_symmetry_1
_geom_bond_site_symmetry_2
Cd1 N3 1_555 1_555
N1 N2 1_555 1_555
N2 N3 1_555 1_555
N3 N4 1_555 1_555
N4 C1 1_555 1_555
C1 N1 1_555 1_555
C2 C1 1_555 1_555
N5 C2 1_555 1_555
C3 N5 1_555 1_555
H1 C3 1_555 1_555
C4 C3 1_555 1_555
H2 C4 1_555 1_555
C5 C4 1_555 1_555
H3 C5 1_555 1_555
N6 C2 1_555 1_555
Cl1 Cd1 1_555 1_555
N7 N8 1_555 1_555
N8 Cd1 1_555 1_555
O1 Cd1 1_555 1_555
Cd1D N4 1_555 1_555
Cd1A Cl1 1_555 1_555
N1D N2D 1_555 1_555
N2D N3D 1_555 1_555
N3D Cd1D 1_555 1_555
N4D Cd1 1_555 1_555
C1D N1D 1_555 1_555
C2D C1D 1_555 1_555
N5D C2D 1_555 1_555
C3D N5D 1_555 1_555
H1D C3D 1_555 1_555
C4D C3D 1_555 1_555
H2D C4D 1_555 1_555
C5D C4D 1_555 1_555
H3D C5D 1_555 1_555
N6D Cd1 1_555 1_555
Cl1D Cd1D 1_555 1_555
N8A N7 1_555 1_555
N8D Cd1D 1_555 1_555
O1D Cd1D 1_555 1_555
C5 N6 1_555 1_555
N6 Cd1D 1_555 1_555
Cd1A N8A 1_555 1_555
N3D N4D 1_555 1_555
N4D C1D 1_555 1_555
C2D N6D 1_555 1_555
C5D N6D 1_555 1_555

#END
