
#######################################################################
#
#                 Cambridge Crystallographic Data Centre
#                                CCDC 
#
#######################################################################
#
# If this CIF has been generated from an entry in the Cambridge 
# Structural Database, then it will include bibliographic, chemical, 
# crystal, experimental, refinement or atomic coordinate data resulting 
# from the CCDC's data processing and validation procedures.
#
#######################################################################

data_RICREB
_symmetry_cell_setting           tetragonal
_symmetry_space_group_name_H-M   'P 42/n n m'
_symmetry_Int_Tables_number      134
_space_group_name_Hall           '-P 4ac 2bc'
loop_
_symmetry_equiv_pos_site_id
_symmetry_equiv_pos_as_xyz
1 x,y,z
2 1/2-y,x,1/2+z
3 y,1/2-x,1/2+z
4 y,x,-z
5 1/2-x,1/2-y,z
6 1/2-x,y,1/2-z
7 x,1/2-y,1/2-z
8 1/2-y,1/2-x,-z
9 -x,-y,-z
10 1/2+y,-x,1/2-z
11 -y,1/2+x,1/2-z
12 -y,-x,z
13 1/2+x,1/2+y,-z
14 1/2+x,-y,1/2+z
15 -x,1/2+y,1/2+z
16 1/2+y,1/2+x,z
_cell_length_a                   9.0559(3)
_cell_length_b                   9.0559(3)
_cell_length_c                   15.7800(13)
_cell_angle_alpha                90
_cell_angle_beta                 90
_cell_angle_gamma                90
_cell_volume                     1294.11
loop_
_atom_site_label
_atom_site_type_symbol
_atom_site_fract_x
_atom_site_fract_y
_atom_site_fract_z
Cd1 Cd 0.2500 0.2500 0.2500
N1 N 0.45790(15) 0.14460(15) 0.33904(8)
C1 C 0.52937(18) 0.02937(18) 0.30528(14)
C2 C 0.61788(18) 0.11788(18) 0.45800(14)
H1 H 0.6476 0.1476 0.5132
C3 C 0.50326(17) 0.18763(18) 0.41631(10)
H2 H 0.4551 0.2684 0.4430
N2 N 0.46123(15) -0.14188(16) 0.10718(8)
N3 N 0.53910(15) -0.13327(15) 0.17988(8)
C4 C 0.47847(18) -0.02153(18) 0.22167(15)
Cd1O Cd 0.7500 -0.2500 0.2500
Cd1O_2 Cd 0.7500 0.7500 0.2500
N1O N 0.64460(15) -0.04210(15) 0.33904(8)
N1F N 0.45790(15) 0.35540(15) 0.16096(8)
N1I N 0.64460(15) 0.54210(15) 0.16096(8)
N1D N 0.04210(15) 0.35540(15) 0.33904(8)
N1E N 0.04210(15) 0.14460(15) 0.16096(8)
C1I C 0.52937(18) 0.47063(18) 0.19472(14)
C2I C 0.61788(18) 0.38212(18) 0.04200(14)
H1I H 0.6476 0.3524 -0.0132
C3O C 0.68763(18) 0.00326(17) 0.41631(10)
C3F C 0.50326(17) 0.31237(18) 0.08369(10)
C3I C 0.68763(18) 0.49674(17) 0.08369(10)
H2O H 0.7684 -0.0449 0.4430
H2F H 0.4551 0.2316 0.0570
H2I H 0.7684 0.5449 0.0570
N2O N 0.35812(16) -0.03877(15) 0.10718(8)
N2F N 0.46123(15) 0.64188(16) 0.39282(8)
N2I N 0.35812(16) 0.53877(15) 0.39282(8)
N3O N 0.36673(15) 0.03910(15) 0.17988(8)
N3F N 0.53910(15) 0.63327(15) 0.32012(8)
N3I N 0.36673(15) 0.46090(15) 0.32012(8)
N3J N 0.13327(15) 0.03910(15) 0.32012(8)
N3K N 0.13327(15) 0.46090(15) 0.17988(8)
C4I C 0.47847(18) 0.52153(18) 0.27833(15)
loop_
_geom_bond_atom_site_label_1
_geom_bond_atom_site_label_2
_geom_bond_site_symmetry_1
_geom_bond_site_symmetry_2
Cd1 N1 1_555 1_555
N1 C1 1_555 1_555
C1 C4 1_555 1_555
C2 H1 1_555 1_555
C3 N1 1_555 1_555
H2 C3 1_555 1_555
N2 N3 1_555 1_555
N3 C4 1_555 1_555
C4 N3O 1_555 1_555
Cd1O N3 1_555 1_555
Cd1O_2 N1I 1_555 1_555
N1O C1 1_555 1_555
N1F Cd1 1_555 1_555
N1I C1I 1_555 1_555
N1D Cd1 1_555 1_555
N1E Cd1 1_555 1_555
C1I N1F 1_555 1_555
C2I H1I 1_555 1_555
C3O C2 1_555 1_555
C3F N1F 1_555 1_555
C3I N1I 1_555 1_555
H2O C3O 1_555 1_555
H2F C3F 1_555 1_555
H2I C3I 1_555 1_555
N2O N2 1_555 1_555
N2F N2I 1_555 1_555
N2I N3I 1_555 1_555
N3O Cd1 1_555 1_555
N3F Cd1O_2 1_555 1_555
N3I Cd1 1_555 1_555
N3J Cd1 1_555 1_555
N3K Cd1 1_555 1_555
C4I C1I 1_555 1_555
C2 C3 1_555 1_555
Cd1O N1O 1_555 1_555
N1O C3O 1_555 1_555
C2I C3F 1_555 1_555
C2I C3I 1_555 1_555
N2O N3O 1_555 1_555
N2F N3F 1_555 1_555
N3F C4I 1_555 1_555
N3I C4I 1_555 1_555

#END
