
#######################################################################
#
#                 Cambridge Crystallographic Data Centre
#                                CCDC 
#
#######################################################################
#
# If this CIF has been generated from an entry in the Cambridge 
# Structural Database, then it will include bibliographic, chemical, 
# crystal, experimental, refinement or atomic coordinate data resulting 
# from the CCDC's data processing and validation procedures.
#
#######################################################################

data_RICREB01
_symmetry_cell_setting           tetragonal
_symmetry_space_group_name_H-M   'I 41/a m d'
_symmetry_Int_Tables_number      141
_space_group_name_Hall           '-I 4bd 2'
loop_
_symmetry_equiv_pos_site_id
_symmetry_equiv_pos_as_xyz
1 x,y,z
2 1/4-y,3/4+x,1/4+z
3 1/4+y,1/4-x,3/4+z
4 1/4+y,3/4+x,1/4-z
5 1/2+x,1/2+y,1/2+z
6 3/4-y,1/4+x,3/4+z
7 3/4+y,3/4-x,1/4+z
8 3/4+y,1/4+x,3/4-z
9 1/2-x,-y,1/2+z
10 1/2-x,y,1/2-z
11 x,-y,-z
12 1/4-y,1/4-x,3/4-z
13 -x,1/2-y,z
14 -x,1/2+y,-z
15 1/2+x,1/2-y,1/2-z
16 3/4-y,3/4-x,1/4-z
17 -x,-y,-z
18 3/4+y,1/4-x,3/4-z
19 3/4-y,3/4+x,1/4-z
20 3/4-y,1/4-x,3/4+z
21 1/2-x,1/2-y,1/2-z
22 1/4+y,3/4-x,1/4-z
23 1/4-y,1/4+x,3/4-z
24 1/4-y,3/4-x,1/4+z
25 1/2+x,y,1/2-z
26 1/2+x,-y,1/2+z
27 -x,y,z
28 3/4+y,3/4+x,1/4+z
29 x,1/2+y,-z
30 x,1/2-y,z
31 1/2-x,1/2+y,1/2+z
32 1/4+y,1/4+x,3/4+z
_cell_length_a                   6.4690(3)
_cell_length_b                   6.4690(3)
_cell_length_c                   32.806(3)
_cell_angle_alpha                90
_cell_angle_beta                 90
_cell_angle_gamma                90
_cell_volume                     1372.86
loop_
_atom_site_label
_atom_site_type_symbol
_atom_site_fract_x
_atom_site_fract_y
_atom_site_fract_z
Cd1 Cd -1.5000 1.2500 0.6250
C1 C -1.5000 0.7500 0.62217(8)
C2 C -1.5000 0.7500 0.66691(8)
C3 C -1.5000 0.9312(4) 0.72556(6)
H1 H -1.5000 1.0557 0.7397
C4 C -1.5000 0.7500 0.74700(10)
H2 H -1.5000 0.7500 0.7753
N1 N -1.5000 0.9190(3) 0.59950(5)
N2 N -1.5000 0.8509(3) 0.56055(5)
N3 N -1.5000 0.9344(3) 0.68477(5)
Cd1_2 Cd -1.5000 0.2500 0.6250
Cd1_3 Cd -2.5000 1.2500 0.6250
C1C C -2.0000 1.2500 0.62783(8)
C2C C -2.0000 1.2500 0.58309(8)
C3CA C -1.5000 0.5688(4) 0.72556(6)
C3C C -1.8188(4) 1.2500 0.52444(6)
C3R C -2.1812(4) 1.2500 0.52444(6)
H1CA H -1.5000 0.4443 0.7397
H1C H -1.6943 1.2500 0.5103
H1R H -2.3057 1.2500 0.5103
C4C C -2.0000 1.2500 0.50300(10)
H2C H -2.0000 1.2500 0.4747
N1CA N -1.5000 0.5810(3) 0.59950(5)
N1C N -1.8310(3) 1.2500 0.65050(5)
N1R N -2.1690(3) 1.2500 0.65050(5)
N1CA_2 N -1.5000 1.5810(3) 0.59950(5)
N1R_2 N -1.1690(3) 1.2500 0.65050(5)
N2CA N -1.5000 0.6491(3) 0.56055(5)
N2C N -1.8991(3) 1.2500 0.68945(5)
N2R N -2.1009(3) 1.2500 0.68945(5)
N3CA N -1.5000 0.5656(3) 0.68477(5)
N3C N -1.8156(3) 1.2500 0.56523(5)
N3R N -2.1844(3) 1.2500 0.56523(5)
N3CA_2 N -1.5000 1.5656(3) 0.68477(5)
N3R_2 N -1.1844(3) 1.2500 0.56523(5)
loop_
_geom_bond_atom_site_label_1
_geom_bond_atom_site_label_2
_geom_bond_site_symmetry_1
_geom_bond_site_symmetry_2
Cd1 N1 1_555 1_555
C1 C2 1_555 1_555
C2 N3 1_555 1_555
C3 H1 1_555 1_555
C4 C3 1_555 1_555
H2 C4 1_555 1_555
N1 C1 1_555 1_555
N2 N1 1_555 1_555
N3 Cd1 1_555 1_555
Cd1_2 N1CA 1_555 1_555
Cd1_3 N1R 1_555 1_555
C1C C2C 1_555 1_555
C2C N3C 1_555 1_555
C3CA C4 1_555 1_555
C3C H1C 1_555 1_555
C3R H1R 1_555 1_555
H1CA C3CA 1_555 1_555
C4C C3C 1_555 1_555
H2C C4C 1_555 1_555
N1CA C1 1_555 1_555
N1C Cd1 1_555 1_555
N1R C1C 1_555 1_555
N1CA_2 Cd1 1_555 1_555
N1R_2 Cd1 1_555 1_555
N2CA N2 1_555 1_555
N2C N1C 1_555 1_555
N2R N1R 1_555 1_555
N3CA C2 1_555 1_555
N3C Cd1 1_555 1_555
N3R Cd1_3 1_555 1_555
N3CA_2 Cd1 1_555 1_555
N3R_2 Cd1 1_555 1_555
C3 N3 1_555 1_555
Cd1_2 N3CA 1_555 1_555
C1C N1C 1_555 1_555
C2C N3R 1_555 1_555
C3CA N3CA 1_555 1_555
C3C N3C 1_555 1_555
C3R C4C 1_555 1_555
C3R N3R 1_555 1_555
N1CA N2CA 1_555 1_555
N2C N2R 1_555 1_555

#END
