
#######################################################################
#
#                 Cambridge Crystallographic Data Centre
#                                CCDC 
#
#######################################################################
#
# If this CIF has been generated from an entry in the Cambridge 
# Structural Database, then it will include bibliographic, chemical, 
# crystal, experimental, refinement or atomic coordinate data resulting 
# from the CCDC's data processing and validation procedures.
#
#######################################################################

data_RICZUA
_symmetry_cell_setting           triclinic
_symmetry_space_group_name_H-M   'P -1'
_symmetry_Int_Tables_number      2
_space_group_name_Hall           '-P 1'
loop_
_symmetry_equiv_pos_site_id
_symmetry_equiv_pos_as_xyz
1 x,y,z
2 -x,-y,-z
_cell_length_a                   7.984(2)
_cell_length_b                   8.729(2)
_cell_length_c                   16.898(4)
_cell_angle_alpha                93.577(4)
_cell_angle_beta                 95.508(5)
_cell_angle_gamma                103.030(4)
_cell_volume                     1137.75
loop_
_atom_site_label
_atom_site_type_symbol
_atom_site_fract_x
_atom_site_fract_y
_atom_site_fract_z
Zn1 Zn 0.82609(6) 0.74709(5) 0.69778(3)
C1 C 1.1152(4) 0.6237(4) 0.6377(2)
H1 H 1.1404 0.5832 0.6872
C2 C 0.9972(5) 0.7344(4) 0.5458(2)
H2 H 0.9228 0.7886 0.5177
C3 C 1.1264(5) 0.6820(4) 0.5155(2)
H3 H 1.1585 0.6912 0.4630
C4 C 1.3427(5) 0.5298(5) 0.5735(2)
H4 H 1.2949 0.4160 0.5778
H5 H 1.4289 0.5702 0.6205
C5 C 1.4315(4) 0.5485(4) 0.4996(2)
H6 H 1.4868 0.6612 0.4966
H7 H 1.3456 0.5129 0.4521
C6 C 1.1368(5) 0.9044(4) 0.8073(2)
H8 H 1.2091 0.8597 0.7758
C7 C 0.9145(6) 0.9654(5) 0.8500(2)
H9 H 0.7986 0.9724 0.8541
C8 C 1.0544(6) 1.0409(5) 0.9005(2)
H10 H 1.0545 1.1081 0.9469
C9 C 1.3718(5) 1.0532(5) 0.9081(2)
H11 H 1.4006 1.1690 0.9208
H12 H 1.4487 1.0286 0.8689
C10 C 1.4054(5) 0.9748(5) 0.9830(2)
H13 H 1.3729 0.8587 0.9710
H14 H 1.3327 1.0030 1.0233
C11 C 0.6126(5) 0.9519(4) 0.6718(2)
C12 C 0.5742(5) 1.0948(4) 0.6338(2)
H15 H 0.6790 1.1822 0.6439
H16 H 0.5498 1.0689 0.5754
C13 C 0.4255(5) 1.1512(4) 0.6630(2)
C14 C 0.2634(5) 1.0949(4) 0.6213(2)
H17 H 0.2515 1.0263 0.5742
C15 C 0.1191(5) 1.1353(5) 0.6460(3)
H18 H 0.0086 1.0931 0.6170
C16 C 0.1358(6) 1.2359(5) 0.7121(3)
H19 H 0.0368 1.2654 0.7295
C17 C 0.2961(6) 1.2954(5) 0.7543(3)
H20 H 0.3064 1.3673 0.8000
C18 C 0.4437(5) 1.2530(4) 0.7316(2)
C19 C 0.6149(5) 1.3156(4) 0.7801(2)
H21 H 0.6781 1.2302 0.7814
H22 H 0.5942 1.3424 0.8355
C20 C 0.7310(5) 1.4597(4) 0.7515(2)
N1 N 0.9898(4) 0.6974(3) 0.62265(16)
N2 N 1.2016(4) 0.6133(3) 0.57500(16)
N3 N 0.9679(4) 0.8771(3) 0.79164(17)
N4 N 1.1942(4) 1.0026(4) 0.87266(18)
O1 O 0.7096(3) 0.8820(3) 0.63461(15)
O2 O 0.5561(4) 0.9144(4) 0.73390(18)
O3 O 0.6584(3) 1.5601(3) 0.72144(16)
O4 O 0.8889(4) 1.4784(3) 0.76197(18)
C1A C 1.8848(4) 0.3763(4) 0.3623(2)
H1A H 1.8596 0.4168 0.3128
C2A C 2.0028(5) 0.2656(4) 0.4542(2)
H2A H 2.0772 0.2114 0.4823
C3A C 1.8736(5) 0.3180(4) 0.4845(2)
H3A H 1.8415 0.3088 0.5370
C4A C 1.6573(5) 0.4702(5) 0.4265(2)
H4A H 1.7051 0.5840 0.4222
H5A H 1.5711 0.4298 0.3795
C5A C 1.5685(4) 0.4515(4) 0.5004(2)
H6A H 1.5132 0.3388 0.5034
H7A H 1.6544 0.4871 0.5479
N1A N 2.0102(4) 0.3026(3) 0.37735(16)
N2A N 1.7984(4) 0.3867(3) 0.42500(16)
C6A C 1.8632(5) 1.0956(4) 1.1927(2)
H8A H 1.7909 1.1403 1.2242
C7A C 2.0855(6) 1.0346(5) 1.1500(2)
H9A H 2.2014 1.0276 1.1459
C8A C 1.9456(6) 0.9591(5) 1.0995(2)
H10A H 1.9455 0.8919 1.0531
C9A C 1.6282(5) 0.9468(5) 1.0919(2)
H11A H 1.5994 0.8310 1.0792
H12A H 1.5513 0.9714 1.1311
C10A C 1.5946(5) 1.0252(5) 1.0170(2)
H13A H 1.6271 1.1413 1.0290
H14A H 1.6673 0.9970 0.9767
N3A N 2.0321(4) 1.1229(3) 1.20836(17)
N4A N 1.8058(4) 0.9974(4) 1.12734(18)
Zn1A Zn 2.17391(6) 0.25291(5) 0.30222(3)
C11A C 2.3874(5) 0.0481(4) 0.3282(2)
C12A C 2.4258(5) -0.0948(4) 0.3662(2)
H15A H 2.3210 -0.1822 0.3561
H16A H 2.4502 -0.0689 0.4246
C13A C 2.5745(5) -0.1512(4) 0.3370(2)
C14A C 2.7366(5) -0.0949(4) 0.3787(2)
H17A H 2.7485 -0.0263 0.4258
C15A C 2.8809(5) -0.1353(5) 0.3540(3)
H18A H 2.9914 -0.0931 0.3830
C16A C 2.8642(6) -0.2359(5) 0.2879(3)
H19A H 2.9632 -0.2654 0.2705
C17A C 2.7039(6) -0.2954(5) 0.2457(3)
H20A H 2.6936 -0.3673 0.2000
C18A C 2.5563(5) -0.2530(4) 0.2684(2)
C19A C 2.3851(5) -0.3156(4) 0.2199(2)
H21A H 2.3219 -0.2302 0.2186
H22A H 2.4058 -0.3424 0.1645
C20A C 2.2690(5) -0.4597(4) 0.2485(2)
O1A O 2.2904(3) 0.1180(3) 0.36539(15)
O2A O 2.4439(4) 0.0856(4) 0.26610(18)
O3A O 2.3416(3) -0.5601(3) 0.27856(16)
O4A O 2.1111(4) -0.4784(3) 0.23803(18)
Zn1_2 Zn 0.82609(6) 1.74709(5) 0.69778(3)
Zn1A_2 Zn 2.17391(6) -0.74709(5) 0.30222(3)
Zn1A_3 Zn 2.17391(6) 1.25291(5) 1.30222(3)
N3A_2 N 2.0321(4) 0.1229(3) 0.20836(17)
O3_2 O 0.6584(3) 0.5601(3) 0.72144(16)
O3A_2 O 2.3416(3) 0.4399(3) 0.27856(16)
loop_
_geom_bond_atom_site_label_1
_geom_bond_atom_site_label_2
_geom_bond_site_symmetry_1
_geom_bond_site_symmetry_2
Zn1 N1 1_555 1_555
C1 H1 1_555 1_555
C2 H2 1_555 1_555
C3 C2 1_555 1_555
H3 C3 1_555 1_555
C4 H4 1_555 1_555
H5 C4 1_555 1_555
C5 C4 1_555 1_555
H6 C5 1_555 1_555
H7 C5 1_555 1_555
C6 H8 1_555 1_555
C7 H9 1_555 1_555
C8 C7 1_555 1_555
H10 C8 1_555 1_555
C9 H11 1_555 1_555
H12 C9 1_555 1_555
C10 C9 1_555 1_555
H13 C10 1_555 1_555
H14 C10 1_555 1_555
C11 C12 1_555 1_555
C12 H15 1_555 1_555
H16 C12 1_555 1_555
C13 C12 1_555 1_555
C14 C13 1_555 1_555
H17 C14 1_555 1_555
C15 C14 1_555 1_555
H18 C15 1_555 1_555
C16 C15 1_555 1_555
H19 C16 1_555 1_555
C17 C16 1_555 1_555
H20 C17 1_555 1_555
C18 C13 1_555 1_555
C19 C18 1_555 1_555
H21 C19 1_555 1_555
H22 C19 1_555 1_555
C20 C19 1_555 1_555
N1 C1 1_555 1_555
N2 C1 1_555 1_555
N3 Zn1 1_555 1_555
N4 C6 1_555 1_555
O1 Zn1 1_555 1_555
O2 C11 1_555 1_555
O3 C20 1_555 1_555
O4 C20 1_555 1_555
C1A H1A 1_555 1_555
C2A H2A 1_555 1_555
C3A C2A 1_555 1_555
H3A C3A 1_555 1_555
C4A H4A 1_555 1_555
H5A C4A 1_555 1_555
C5A C5 1_555 1_555
H6A C5A 1_555 1_555
H7A C5A 1_555 1_555
N1A C1A 1_555 1_555
N2A C1A 1_555 1_555
C6A H8A 1_555 1_555
C7A H9A 1_555 1_555
C8A C7A 1_555 1_555
H10A C8A 1_555 1_555
C9A H11A 1_555 1_555
H12A C9A 1_555 1_555
C10A C10 1_555 1_555
H13A C10A 1_555 1_555
H14A C10A 1_555 1_555
N3A C6A 1_555 1_555
N4A C6A 1_555 1_555
Zn1A N1A 1_555 1_555
C11A C12A 1_555 1_555
C12A H15A 1_555 1_555
H16A C12A 1_555 1_555
C13A C12A 1_555 1_555
C14A C13A 1_555 1_555
H17A C14A 1_555 1_555
C15A C14A 1_555 1_555
H18A C15A 1_555 1_555
C16A C15A 1_555 1_555
H19A C16A 1_555 1_555
C17A C16A 1_555 1_555
H20A C17A 1_555 1_555
C18A C13A 1_555 1_555
C19A C18A 1_555 1_555
H21A C19A 1_555 1_555
H22A C19A 1_555 1_555
C20A C19A 1_555 1_555
O1A Zn1A 1_555 1_555
O2A C11A 1_555 1_555
O3A C20A 1_555 1_555
O4A C20A 1_555 1_555
Zn1_2 O3 1_555 1_555
Zn1A_2 O3A 1_555 1_555
Zn1A_3 N3A 1_555 1_555
N3A_2 Zn1A 1_555 1_555
O3_2 Zn1 1_555 1_555
O3A_2 Zn1A 1_555 1_555
C2 N1 1_555 1_555
C3 N2 1_555 1_555
C4 N2 1_555 1_555
C6 N3 1_555 1_555
C7 N3 1_555 1_555
C8 N4 1_555 1_555
C9 N4 1_555 1_555
C11 O1 1_555 1_555
C17 C18 1_555 1_555
C2A N1A 1_555 1_555
C3A N2A 1_555 1_555
C4A C5A 1_555 1_555
C4A N2A 1_555 1_555
C7A N3A 1_555 1_555
C8A N4A 1_555 1_555
C9A C10A 1_555 1_555
C9A N4A 1_555 1_555
C11A O1A 1_555 1_555
C17A C18A 1_555 1_555

#END
