
#######################################################################
#
#                 Cambridge Crystallographic Data Centre
#                                CCDC 
#
#######################################################################
#
# If this CIF has been generated from an entry in the Cambridge 
# Structural Database, then it will include bibliographic, chemical, 
# crystal, experimental, refinement or atomic coordinate data resulting 
# from the CCDC's data processing and validation procedures.
#
#######################################################################

data_RIDBIR
_symmetry_cell_setting           triclinic
_symmetry_space_group_name_H-M   'P -1'
_symmetry_Int_Tables_number      2
_space_group_name_Hall           '-P 1'
loop_
_symmetry_equiv_pos_site_id
_symmetry_equiv_pos_as_xyz
1 x,y,z
2 -x,-y,-z
_cell_length_a                   8.2532(11)
_cell_length_b                   9.6073(12)
_cell_length_c                   14.1941(19)
_cell_angle_alpha                96.513(2)
_cell_angle_beta                 96.661(2)
_cell_angle_gamma                104.406(2)
_cell_volume                     1070.81
loop_
_atom_site_label
_atom_site_type_symbol
_atom_site_fract_x
_atom_site_fract_y
_atom_site_fract_z
Zn1 Zn 0.75456(5) 0.77614(4) 0.76749(3)
C1 C 0.8857(5) 1.0762(4) 0.8705(3)
H1 H 0.9532 1.1023 0.8239
C2 C 0.7017(6) 0.9575(4) 0.9455(3)
H2 H 0.6174 0.8841 0.9618
C3 C 0.7739(6) 1.0878(5) 0.9992(3)
H3 H 0.7473 1.1211 1.0580
C4 C 1.0122(5) 1.3048(4) 0.9852(3)
H4 H 1.1024 1.3177 0.9462
H5 H 1.0626 1.3073 1.0509
C5 C 0.9340(4) 1.4275(4) 0.9812(3)
H6 H 0.8431 1.4155 1.0197
H7 H 0.8861 1.4278 0.9156
C6 C 0.4718(4) 0.6273(4) 0.6151(2)
H8 H 0.4407 0.5534 0.6517
C7 C 0.6024(5) 0.8228(4) 0.5688(3)
H9 H 0.6805 0.9106 0.5672
C8 C 0.4704(5) 0.7559(4) 0.4993(3)
H10 H 0.4408 0.7887 0.4422
C9 C 0.2307(4) 0.5254(4) 0.4827(3)
H11 H 0.2368 0.4282 0.4920
H12 H 0.2165 0.5291 0.4144
C10 C 0.0811(4) 0.5563(4) 0.5232(2)
H13 H 0.0726 0.6522 0.5121
H14 H 0.0966 0.5554 0.5919
C11 C 1.0679(4) 0.8707(4) 0.7162(3)
C12 C 1.2538(4) 0.8854(4) 0.7121(3)
H15 H 1.3022 0.8544 0.7691
H16 H 1.2637 0.8198 0.6572
C13 C 1.3570(5) 1.0368(4) 0.7052(3)
H17 H 1.4683 1.0322 0.6918
H18 H 1.3030 1.0718 0.6517
C14 C 1.3768(5) 1.1434(4) 0.7947(3)
H19 H 1.4448 1.1161 0.8462
H20 H 1.2662 1.1383 0.8132
C15 C 1.4588(5) 1.2976(4) 0.7819(3)
H21 H 1.3925 1.3228 0.7287
H22 H 1.5703 1.3023 0.7649
C16 C 1.4766(5) 1.4095(4) 0.8690(3)
H23 H 1.5556 1.3935 0.9201
H24 H 1.3679 1.3983 0.8912
C17 C 1.5388(5) 1.5623(4) 0.8466(2)
N1 N 0.7717(3) 0.9500(3) 0.8633(2)
N2 N 0.8922(4) 1.1609(3) 0.9518(2)
N3 N 0.6031(3) 0.7418(3) 0.6411(2)
N4 N 0.3899(3) 0.6315(3) 0.5294(2)
O1 O 0.9917(3) 0.7699(3) 0.75909(18)
O2 O 0.9947(3) 0.9516(3) 0.6779(2)
O3 O 1.4473(4) 1.6458(3) 0.8506(2)
O4 O 1.6838(3) 1.5935(3) 0.81995(19)
C1A C 1.1143(5) 1.9238(4) 1.1295(3)
H1A H 1.0468 1.8977 1.1761
C2A C 1.2983(6) 2.0425(4) 1.0545(3)
H2A H 1.3826 2.1159 1.0382
C3A C 1.2261(6) 1.9122(5) 1.0008(3)
H3A H 1.2527 1.8789 0.9420
C4A C 0.9878(5) 1.6952(4) 1.0148(3)
H4A H 0.8976 1.6823 1.0538
H5A H 0.9374 1.6927 0.9491
C5A C 1.0660(4) 1.5725(4) 1.0188(3)
H6A H 1.1569 1.5845 0.9803
H7A H 1.1139 1.5722 1.0844
N1A N 1.2283(3) 2.0500(3) 1.1367(2)
N2A N 1.1078(4) 1.8391(3) 1.0482(2)
C6A C -0.4718(4) 0.3727(4) 0.3849(2)
H8A H -0.4407 0.4466 0.3483
C7A C -0.6024(5) 0.1772(4) 0.4312(3)
H9A H -0.6805 0.0894 0.4328
C8A C -0.4704(5) 0.2441(4) 0.5007(3)
H10A H -0.4408 0.2113 0.5578
C9A C -0.2307(4) 0.4746(4) 0.5173(3)
H11A H -0.2368 0.5718 0.5080
H12A H -0.2165 0.4709 0.5856
C10A C -0.0811(4) 0.4437(4) 0.4768(2)
H13A H -0.0726 0.3478 0.4879
H14A H -0.0966 0.4446 0.4081
N3A N -0.6031(3) 0.2582(3) 0.3589(2)
N4A N -0.3899(3) 0.3685(3) 0.4706(2)
Zn1A Zn -0.75456(5) 0.22386(4) 0.23251(3)
C11A C -1.0679(4) 0.1293(4) 0.2838(3)
C12A C -1.2538(4) 0.1146(4) 0.2879(3)
H15A H -1.3022 0.1456 0.2309
H16A H -1.2637 0.1802 0.3428
C13A C -1.3570(5) -0.0368(4) 0.2948(3)
H17A H -1.4683 -0.0322 0.3082
H18A H -1.3030 -0.0718 0.3483
C14A C -1.3768(5) -0.1434(4) 0.2053(3)
H19A H -1.4448 -0.1161 0.1538
H20A H -1.2662 -0.1383 0.1868
C15A C -1.4588(5) -0.2976(4) 0.2181(3)
H21A H -1.3925 -0.3228 0.2713
H22A H -1.5703 -0.3023 0.2351
C16A C -1.4766(5) -0.4095(4) 0.1310(3)
H23A H -1.5556 -0.3935 0.0799
H24A H -1.3679 -0.3983 0.1088
C17A C -1.5388(5) -0.5623(4) 0.1534(2)
O1A O -0.9917(3) 0.2301(3) 0.24091(18)
O2A O -0.9947(3) 0.0484(3) 0.3221(2)
O3A O -1.4473(4) -0.6458(3) 0.1494(2)
O4A O -1.6838(3) -0.5935(3) 0.18005(19)
Zn1_2 Zn 1.75456(5) 1.77614(4) 0.76749(3)
Zn1A_2 Zn -1.75456(5) -0.77614(4) 0.23251(3)
Zn1A_3 Zn 1.24544(5) 2.22386(4) 1.23251(3)
N1A_2 N -0.7717(3) 0.0500(3) 0.1367(2)
O4_2 O 0.6838(3) 0.5935(3) 0.81995(19)
O4A_2 O -0.6838(3) 0.4065(3) 0.18005(19)
O5 O 1.1064(4) 0.5149(3) 0.7751(2)
H25 H 1.0674 0.5889 0.7799
H26 H 1.2084 0.5465 0.8026
O6 O 0.8856(7) 0.2515(5) 0.6741(4)
H27 H 0.9576 0.3292 0.7017
H28 H 0.9339 0.2375 0.6255
O7 O 0.9996(13) 0.1142(9) 0.5352(6)
H29 H 0.9995 0.0492 0.5711
H30 H 1.0022 0.0781 0.4780
loop_
_geom_bond_atom_site_label_1
_geom_bond_atom_site_label_2
_geom_bond_site_symmetry_1
_geom_bond_site_symmetry_2
Zn1 N1 1_555 1_555
C1 H1 1_555 1_555
C2 H2 1_555 1_555
C3 C2 1_555 1_555
H3 C3 1_555 1_555
C4 H4 1_555 1_555
H5 C4 1_555 1_555
C5 C4 1_555 1_555
H6 C5 1_555 1_555
H7 C5 1_555 1_555
C6 H8 1_555 1_555
C7 H9 1_555 1_555
C8 C7 1_555 1_555
H10 C8 1_555 1_555
C9 H11 1_555 1_555
H12 C9 1_555 1_555
C10 C9 1_555 1_555
H13 C10 1_555 1_555
H14 C10 1_555 1_555
C11 C12 1_555 1_555
C12 H15 1_555 1_555
H16 C12 1_555 1_555
C13 C12 1_555 1_555
H17 C13 1_555 1_555
H18 C13 1_555 1_555
C14 C13 1_555 1_555
H19 C14 1_555 1_555
H20 C14 1_555 1_555
C15 C14 1_555 1_555
H21 C15 1_555 1_555
H22 C15 1_555 1_555
C16 C15 1_555 1_555
H23 C16 1_555 1_555
H24 C16 1_555 1_555
C17 C16 1_555 1_555
N1 C1 1_555 1_555
N2 C1 1_555 1_555
N3 Zn1 1_555 1_555
N4 C6 1_555 1_555
O1 Zn1 1_555 1_555
O2 C11 1_555 1_555
O3 C17 1_555 1_555
O4 C17 1_555 1_555
O5 H25 1_555 1_555
H26 O5 1_555 1_555
O6 H27 1_555 1_555
H28 O6 1_555 1_555
O7 H29 1_555 1_555
H30 O7 1_555 1_555
C1A H1A 1_555 1_555
C2A H2A 1_555 1_555
C3A C2A 1_555 1_555
H3A C3A 1_555 1_555
C4A H4A 1_555 1_555
H5A C4A 1_555 1_555
C5A C5 1_555 1_555
H6A C5A 1_555 1_555
H7A C5A 1_555 1_555
N1A C1A 1_555 1_555
N2A C1A 1_555 1_555
C6A H8A 1_555 1_555
C7A H9A 1_555 1_555
C8A C7A 1_555 1_555
H10A C8A 1_555 1_555
C9A H11A 1_555 1_555
H12A C9A 1_555 1_555
C10A C10 1_555 1_555
H13A C10A 1_555 1_555
H14A C10A 1_555 1_555
N3A C6A 1_555 1_555
N4A C6A 1_555 1_555
Zn1A N3A 1_555 1_555
C11A C12A 1_555 1_555
C12A H15A 1_555 1_555
H16A C12A 1_555 1_555
C13A C12A 1_555 1_555
H17A C13A 1_555 1_555
H18A C13A 1_555 1_555
C14A C13A 1_555 1_555
H19A C14A 1_555 1_555
H20A C14A 1_555 1_555
C15A C14A 1_555 1_555
H21A C15A 1_555 1_555
H22A C15A 1_555 1_555
C16A C15A 1_555 1_555
H23A C16A 1_555 1_555
H24A C16A 1_555 1_555
C17A C16A 1_555 1_555
O1A Zn1A 1_555 1_555
O2A C11A 1_555 1_555
O3A C17A 1_555 1_555
O4A C17A 1_555 1_555
Zn1_2 O4 1_555 1_555
Zn1A_2 O4A 1_555 1_555
Zn1A_3 N1A 1_555 1_555
N1A_2 Zn1A 1_555 1_555
O4_2 Zn1 1_555 1_555
O4A_2 Zn1A 1_555 1_555
C2 N1 1_555 1_555
C3 N2 1_555 1_555
C4 N2 1_555 1_555
C6 N3 1_555 1_555
C7 N3 1_555 1_555
C8 N4 1_555 1_555
C9 N4 1_555 1_555
C11 O1 1_555 1_555
C2A N1A 1_555 1_555
C3A N2A 1_555 1_555
C4A C5A 1_555 1_555
C4A N2A 1_555 1_555
C7A N3A 1_555 1_555
C8A N4A 1_555 1_555
C9A C10A 1_555 1_555
C9A N4A 1_555 1_555
C11A O1A 1_555 1_555

#END
