
#######################################################################
#
#                 Cambridge Crystallographic Data Centre
#                                CCDC 
#
#######################################################################
#
# If this CIF has been generated from an entry in the Cambridge 
# Structural Database, then it will include bibliographic, chemical, 
# crystal, experimental, refinement or atomic coordinate data resulting 
# from the CCDC's data processing and validation procedures.
#
#######################################################################

data_RIDBAJ
_symmetry_cell_setting           monoclinic
_symmetry_space_group_name_H-M   'P 21/n'
_symmetry_Int_Tables_number      14
_space_group_name_Hall           '-P 2yn'
loop_
_symmetry_equiv_pos_site_id
_symmetry_equiv_pos_as_xyz
1 x,y,z
2 1/2-x,1/2+y,1/2-z
3 -x,-y,-z
4 1/2+x,1/2-y,1/2+z
_cell_length_a                   9.8348(10)
_cell_length_b                   15.2564(17)
_cell_length_c                   13.8403(15)
_cell_angle_alpha                90
_cell_angle_beta                 95.714(2)
_cell_angle_gamma                90
_cell_volume                     2066.33
loop_
_atom_site_label
_atom_site_type_symbol
_atom_site_fract_x
_atom_site_fract_y
_atom_site_fract_z
Zn1 Zn 0.84968(6) 0.26705(4) 0.25160(4)
C1 C 0.6100(5) 0.3588(4) 0.3291(4)
H1 H 0.5764 0.3073 0.3536
C2 C 0.7341(5) 0.4507(4) 0.2620(4)
H2 H 0.8045 0.4748 0.2305
C3 C 0.6293(6) 0.4943(4) 0.2883(4)
H3 H 0.6124 0.5539 0.2795
N1 N 0.5497(4) 0.4356(3) 0.3310(3)
C4 C 0.4259(5) 0.4557(5) 0.3751(4)
H4 H 0.3859 0.4016 0.3960
H5 H 0.3606 0.4828 0.3271
C5 C 0.4525(6) 0.5165(6) 0.4614(5)
H6 H 0.4872 0.5717 0.4390
H7 H 0.3664 0.5286 0.4873
C6 C 0.6319(5) 0.1762(4) 0.1293(4)
H8 H 0.5897 0.1597 0.1837
C7 C 0.7736(6) 0.2304(4) 0.0386(4)
H9 H 0.8489 0.2590 0.0177
C8 C 0.6669(6) 0.1956(5) -0.0190(4)
H10 H 0.6567 0.1950 -0.0865
C9 C 0.4495(6) 0.1213(4) 0.0090(5)
H11 H 0.3985 0.1582 -0.0388
H12 H 0.3971 0.1163 0.0645
C10 C 0.4655(7) 0.0327(5) -0.0334(6)
H13 H 0.3756 0.0106 -0.0564
H14 H 0.5170 0.0384 -0.0893
C11 C 0.8090(5) 0.1457(4) 0.3888(3)
C12 C 0.8445(5) 0.0840(4) 0.4726(4)
H15 H 0.9108 0.0419 0.4516
C13 C 0.7234(6) 0.0313(4) 0.5007(4)
H16 H 0.6755 0.0060 0.4427
H17 H 0.7564 -0.0164 0.5431
C14 C 0.6251(5) 0.0866(4) 0.5517(4)
H18 H 0.5794 0.1272 0.5052
H19 H 0.5560 0.0488 0.5747
C15 C 0.6926(5) 0.1378(4) 0.6361(4)
H20 H 0.7261 0.0960 0.6867
C16 C 0.8130(5) 0.1889(4) 0.6075(4)
H21 H 0.8595 0.2164 0.6647
H22 H 0.7808 0.2350 0.5626
C17 C 0.9135(5) 0.1311(4) 0.5600(4)
H23 H 0.9874 0.1669 0.5402
H24 H 0.9525 0.0884 0.6068
C18 C 0.5858(5) 0.1949(4) 0.6763(4)
N2 N 0.7251(4) 0.3648(3) 0.2874(3)
N3 N 0.7491(4) 0.2155(3) 0.1334(3)
N4 N 0.5793(4) 0.1624(3) 0.0393(3)
O1 O 0.9085(3) 0.1892(3) 0.3598(3)
O2 O 0.6939(4) 0.1526(3) 0.3492(3)
O3 O 0.5789(5) 0.2746(3) 0.6561(4)
O4 O 0.5029(4) 0.1578(3) 0.7250(3)
C1B C 0.3900(5) 0.6412(4) 0.6709(4)
H1B H 0.4236 0.6927 0.6464
C2B C 0.2659(5) 0.5493(4) 0.7380(4)
H2B H 0.1955 0.5252 0.7695
C3B C 0.3707(6) 0.5057(4) 0.7117(4)
H3B H 0.3876 0.4461 0.7205
N1B N 0.4503(4) 0.5644(3) 0.6690(3)
C4B C 0.5741(5) 0.5443(5) 0.6249(4)
H4B H 0.6141 0.5984 0.6040
H5B H 0.6394 0.5172 0.6729
C5B C 0.5475(6) 0.4835(6) 0.5386(5)
H6B H 0.5128 0.4283 0.5610
H7B H 0.6336 0.4714 0.5127
N2B N 0.2749(4) 0.6352(3) 0.7126(3)
C6B C 0.3681(5) -0.1762(4) -0.1293(4)
H8B H 0.4103 -0.1597 -0.1837
C7B C 0.2264(6) -0.2304(4) -0.0386(4)
H9B H 0.1511 -0.2590 -0.0177
C8B C 0.3331(6) -0.1956(5) 0.0190(4)
H10B H 0.3433 -0.1950 0.0865
C9B C 0.5505(6) -0.1213(4) -0.0090(5)
H11B H 0.6015 -0.1582 0.0388
H12B H 0.6029 -0.1163 -0.0645
C10B C 0.5345(7) -0.0327(5) 0.0334(6)
H13B H 0.6244 -0.0106 0.0564
H14B H 0.4830 -0.0384 0.0893
N3B N 0.2509(4) -0.2155(3) -0.1334(3)
N4B N 0.4207(4) -0.1624(3) -0.0393(3)
Zn1B Zn 0.15032(6) -0.26705(4) -0.25160(4)
C11B C 0.1910(5) -0.1457(4) -0.3888(3)
C12B C 0.1555(5) -0.0840(4) -0.4726(4)
H15B H 0.0892 -0.0419 -0.4516
C13B C 0.2766(6) -0.0313(4) -0.5007(4)
H16B H 0.3245 -0.0060 -0.4427
H17B H 0.2436 0.0164 -0.5431
C14B C 0.3749(5) -0.0866(4) -0.5517(4)
H18B H 0.4206 -0.1272 -0.5052
H19B H 0.4440 -0.0488 -0.5747
C15B C 0.3074(5) -0.1378(4) -0.6361(4)
H20B H 0.2739 -0.0960 -0.6867
C16B C 0.1870(5) -0.1889(4) -0.6075(4)
H21B H 0.1405 -0.2164 -0.6647
H22B H 0.2192 -0.2350 -0.5626
C17B C 0.0865(5) -0.1311(4) -0.5600(4)
H23B H 0.0126 -0.1669 -0.5402
H24B H 0.0475 -0.0884 -0.6068
C18B C 0.4142(5) -0.1949(4) -0.6763(4)
O1B O 0.0915(3) -0.1892(3) -0.3598(3)
O2B O 0.3061(4) -0.1526(3) -0.3492(3)
O3B O 0.4211(5) -0.2746(3) -0.6561(4)
O4B O 0.4971(4) -0.1578(3) -0.7250(3)
Zn1A Zn 0.65032(6) -0.23295(4) -0.75160(4)
Zn1B_2 Zn 0.15032(6) 0.73295(4) 0.74840(4)
Zn1C Zn 0.34968(6) 0.23295(4) 0.75160(4)
N2B_2 N 0.2749(4) -0.3648(3) -0.2874(3)
O4A O -0.0029(4) -0.3422(3) -0.2250(3)
O4C O 1.0029(4) 0.3422(3) 0.2250(3)
O5 O 0.6613(5) 0.3860(4) 0.8026(5)
H25 H 0.5926 0.3735 0.8327
H26 H 0.6554 0.3562 0.7505
O6 O 0.9149(7) 0.3070(7) 0.8391(7)
H27 H 0.8585 0.3479 0.8231
H28 H 0.9907 0.3333 0.8373
loop_
_geom_bond_atom_site_label_1
_geom_bond_atom_site_label_2
_geom_bond_site_symmetry_1
_geom_bond_site_symmetry_2
Zn1 N2 1_555 1_555
C1 H1 1_555 1_555
C2 H2 1_555 1_555
C3 C2 1_555 1_555
H3 C3 1_555 1_555
N1 C1 1_555 1_555
C4 N1 1_555 1_555
H4 C4 1_555 1_555
H5 C4 1_555 1_555
C5 C4 1_555 1_555
H6 C5 1_555 1_555
H7 C5 1_555 1_555
C6 H8 1_555 1_555
C7 H9 1_555 1_555
C8 C7 1_555 1_555
H10 C8 1_555 1_555
C9 H11 1_555 1_555
H12 C9 1_555 1_555
C10 C9 1_555 1_555
H13 C10 1_555 1_555
H14 C10 1_555 1_555
C11 C12 1_555 1_555
C12 H15 1_555 1_555
C13 C12 1_555 1_555
H16 C13 1_555 1_555
H17 C13 1_555 1_555
C14 C13 1_555 1_555
H18 C14 1_555 1_555
H19 C14 1_555 1_555
C15 C14 1_555 1_555
H20 C15 1_555 1_555
C16 C15 1_555 1_555
H21 C16 1_555 1_555
H22 C16 1_555 1_555
C17 C12 1_555 1_555
H23 C17 1_555 1_555
H24 C17 1_555 1_555
C18 C15 1_555 1_555
N2 C1 1_555 1_555
N3 Zn1 1_555 1_555
N4 C6 1_555 1_555
O1 Zn1 1_555 1_555
O2 C11 1_555 1_555
O3 C18 1_555 1_555
O4 C18 1_555 1_555
O5 H25 1_555 1_555
H26 O5 1_555 1_555
O6 H27 1_555 1_555
H28 O6 1_555 1_555
C1B H1B 1_555 1_555
C2B H2B 1_555 1_555
C3B C2B 1_555 1_555
H3B C3B 1_555 1_555
N1B C1B 1_555 1_555
C4B N1B 1_555 1_555
H4B C4B 1_555 1_555
H5B C4B 1_555 1_555
C5B C5 1_555 1_555
H6B C5B 1_555 1_555
H7B C5B 1_555 1_555
N2B C1B 1_555 1_555
C6B H8B 1_555 1_555
C7B H9B 1_555 1_555
C8B C7B 1_555 1_555
H10B C8B 1_555 1_555
C9B H11B 1_555 1_555
H12B C9B 1_555 1_555
C10B C10 1_555 1_555
H13B C10B 1_555 1_555
H14B C10B 1_555 1_555
N3B C6B 1_555 1_555
N4B C6B 1_555 1_555
Zn1B N3B 1_555 1_555
C11B C12B 1_555 1_555
C12B H15B 1_555 1_555
C13B C12B 1_555 1_555
H16B C13B 1_555 1_555
H17B C13B 1_555 1_555
C14B C13B 1_555 1_555
H18B C14B 1_555 1_555
H19B C14B 1_555 1_555
C15B C14B 1_555 1_555
H20B C15B 1_555 1_555
C16B C15B 1_555 1_555
H21B C16B 1_555 1_555
H22B C16B 1_555 1_555
C17B C12B 1_555 1_555
H23B C17B 1_555 1_555
H24B C17B 1_555 1_555
C18B C15B 1_555 1_555
O1B Zn1B 1_555 1_555
O2B C11B 1_555 1_555
O3B C18B 1_555 1_555
O4B C18B 1_555 1_555
Zn1A O4B 1_555 1_555
Zn1B_2 N2B 1_555 1_555
Zn1C O4 1_555 1_555
N2B_2 Zn1B 1_555 1_555
O4A Zn1B 1_555 1_555
O4C Zn1 1_555 1_555
C2 N2 1_555 1_555
C3 N1 1_555 1_555
C6 N3 1_555 1_555
C7 N3 1_555 1_555
C8 N4 1_555 1_555
C9 N4 1_555 1_555
C11 O1 1_555 1_555
C16 C17 1_555 1_555
C2B N2B 1_555 1_555
C3B N1B 1_555 1_555
C4B C5B 1_555 1_555
C7B N3B 1_555 1_555
C8B N4B 1_555 1_555
C9B C10B 1_555 1_555
C9B N4B 1_555 1_555
C11B O1B 1_555 1_555
C16B C17B 1_555 1_555

#END
