
#######################################################################
#
#                 Cambridge Crystallographic Data Centre
#                                CCDC 
#
#######################################################################
#
# If this CIF has been generated from an entry in the Cambridge 
# Structural Database, then it will include bibliographic, chemical, 
# crystal, experimental, refinement or atomic coordinate data resulting 
# from the CCDC's data processing and validation procedures.
#
#######################################################################

data_RIDJEV
_symmetry_cell_setting           monoclinic
_symmetry_space_group_name_H-M   'C 2/c'
_symmetry_Int_Tables_number      15
_space_group_name_Hall           '-C 2yn'
loop_
_symmetry_equiv_pos_site_id
_symmetry_equiv_pos_as_xyz
1 x,y,z
2 -x,y,1/2-z
3 1/2+x,1/2+y,z
4 1/2-x,1/2+y,1/2-z
5 -x,-y,-z
6 x,-y,1/2+z
7 1/2-x,1/2-y,-z
8 1/2+x,1/2-y,1/2+z
_cell_length_a                   20.8165(3)
_cell_length_b                   27.3239(3)
_cell_length_c                   9.48820(10)
_cell_angle_alpha                90
_cell_angle_beta                 97.6520(10)
_cell_angle_gamma                90
_cell_volume                     5348.72
loop_
_atom_site_label
_atom_site_type_symbol
_atom_site_fract_x
_atom_site_fract_y
_atom_site_fract_z
Cu1 Cu 0.5000 0.259034(13) -0.2500
O1 O 0.37188(9) 0.06916(7) 0.12287(18)
O2 O 0.31100(8) 0.06225(6) -0.09106(17)
O3 O 0.15855(10) 0.07183(8) -0.13555(19)
O4 O 0.21186(8) 0.05891(6) 0.08431(17)
O5 O 0.58580(12) 0.32144(8) 0.1110(2)
O6 O 0.58253(16) 0.24734(10) 0.1908(3)
O7 O 0.58165(9) 0.26019(6) -0.03417(19)
N1 N 0.44958(10) 0.20518(7) -0.1637(2)
N2 N 0.05588(9) 0.19006(7) 0.1681(2)
N3 N 0.58424(11) 0.27676(9) 0.0917(2)
C1 C 0.47175(13) 0.18559(9) -0.0368(3)
H1 H 0.5096 0.1980 0.0138
C2 C 0.44018(13) 0.14773(9) 0.0209(3)
H2 H 0.4557 0.1357 0.1108
C3 C 0.38530(11) 0.12776(8) -0.0558(2)
C4 C 0.36197(11) 0.14796(8) -0.1858(3)
H3 H 0.3246 0.1357 -0.2389
C5 C 0.39529(12) 0.18684(8) -0.2357(3)
H4 H 0.3793 0.2007 -0.3228
C6 C 0.35610(11) 0.08381(8) 0.0048(2)
C7 C 0.28793(11) 0.01683(8) -0.0485(2)
C8 C 0.31337(11) -0.02512(8) -0.0942(2)
H5 H 0.3465 -0.0237 -0.1508
C9 C 0.28932(11) -0.07123(8) -0.0558(2)
C10 C 0.31473(14) -0.11597(9) -0.1001(3)
H6 H 0.3486 -0.1156 -0.1548
C11 C 0.28964(15) -0.15985(9) -0.0629(3)
H7 H 0.3070 -0.1890 -0.0914
C12 C 0.23778(14) -0.16100(9) 0.0182(3)
H8 H 0.2199 -0.1909 0.0395
C13 C 0.21358(13) -0.11864(9) 0.0656(3)
H9 H 0.1802 -0.1199 0.1216
C14 C 0.23863(11) -0.07264(8) 0.0306(2)
C15 C 0.21381(11) -0.02793(9) 0.0766(2)
H10 H 0.1813 -0.0283 0.1349
C16 C 0.23727(11) 0.01537(8) 0.0361(2)
C17 C 0.16818(12) 0.08208(9) -0.0125(3)
C18 C 0.08949(12) 0.15684(8) 0.2524(2)
H11 H 0.0862 0.1571 0.3492
C19 C 0.12879(12) 0.12227(9) 0.2003(2)
H12 H 0.1524 0.1002 0.2613
C20 C 0.13241(11) 0.12117(8) 0.0553(2)
C21 C 0.09809(12) 0.15557(9) -0.0321(2)
H13 H 0.0998 0.1556 -0.1296
C22 C 0.06138(12) 0.18962(9) 0.0285(3)
H14 H 0.0394 0.2133 -0.0296
O1A O 0.62812(9) 0.06916(7) -0.62287(18)
O2A O 0.68900(8) 0.06225(6) -0.40894(17)
O3A O 0.84145(10) 0.07183(8) -0.36445(19)
O4A O 0.78814(8) 0.05891(6) -0.58431(17)
O5A O 0.41420(12) 0.32144(8) -0.6110(2)
O6A O 0.41747(16) 0.24734(10) -0.6908(3)
O7A O 0.41835(9) 0.26019(6) -0.46583(19)
N1A N 0.55042(10) 0.20518(7) -0.3363(2)
N2A N 0.94412(9) 0.19006(7) -0.6681(2)
N3A N 0.41576(11) 0.27676(9) -0.5917(2)
C1A C 0.52825(13) 0.18559(9) -0.4632(3)
H1A H 0.4904 0.1980 -0.5138
C2A C 0.55982(13) 0.14773(9) -0.5209(3)
H2A H 0.5443 0.1357 -0.6108
C3A C 0.61470(11) 0.12776(8) -0.4442(2)
C4A C 0.63803(11) 0.14796(8) -0.3142(3)
H3A H 0.6754 0.1357 -0.2611
C5A C 0.60471(12) 0.18684(8) -0.2643(3)
H4A H 0.6207 0.2007 -0.1772
C6A C 0.64390(11) 0.08381(8) -0.5048(2)
C7A C 0.71207(11) 0.01683(8) -0.4515(2)
C8A C 0.68663(11) -0.02512(8) -0.4058(2)
H5A H 0.6535 -0.0237 -0.3492
C9A C 0.71068(11) -0.07123(8) -0.4442(2)
C10A C 0.68527(14) -0.11597(9) -0.3999(3)
H6A H 0.6514 -0.1156 -0.3452
C11A C 0.71036(15) -0.15985(9) -0.4371(3)
H7A H 0.6930 -0.1890 -0.4086
C12A C 0.76222(14) -0.16100(9) -0.5182(3)
H8A H 0.7801 -0.1909 -0.5395
C13A C 0.78642(13) -0.11864(9) -0.5656(3)
H9A H 0.8198 -0.1199 -0.6216
C14A C 0.76137(11) -0.07264(8) -0.5306(2)
C15A C 0.78619(11) -0.02793(9) -0.5766(2)
H10A H 0.8187 -0.0283 -0.6349
C16A C 0.76273(11) 0.01537(8) -0.5361(2)
C17A C 0.83182(12) 0.08208(9) -0.4875(3)
C18A C 0.91051(12) 0.15684(8) -0.7524(2)
H11A H 0.9138 0.1571 -0.8492
C19A C 0.87121(12) 0.12227(9) -0.7003(2)
H12A H 0.8476 0.1002 -0.7613
C20A C 0.86759(11) 0.12117(8) -0.5553(2)
C21A C 0.90191(12) 0.15557(9) -0.4679(2)
H13A H 0.9002 0.1556 -0.3704
C22A C 0.93862(12) 0.18962(9) -0.5285(3)
H14A H 0.9606 0.2133 -0.4704
Cu1F Cu 0.0000 0.240966(13) 0.2500
Cu1F_2 Cu 1.0000 0.240966(13) -0.7500
N2F N 0.44412(9) 0.30994(7) -0.1681(2)
N2G N 0.55588(9) 0.30994(7) -0.3319(2)
O8 O 0.25371(13) 0.19962(11) 0.9693(3)
C23 C 0.2967(2) 0.22128(17) 1.0739(4)
H15 H 0.3346 0.2324 1.0336
H16 H 0.3107 0.1975 1.1474
C24 C 0.2344(3) 0.2361(2) 0.8619(4)
H17 H 0.2040 0.2219 0.7866
H18 H 0.2721 0.2472 0.8208
O8F O 0.24629(13) 0.30038(11) 1.0307(3)
C23F C 0.2033(2) 0.27872(17) 0.9261(4)
H15F H 0.1654 0.2676 0.9664
H16F H 0.1893 0.3025 0.8526
C24F C 0.2656(3) 0.2639(2) 1.1381(4)
H17F H 0.2960 0.2781 1.2134
H18F H 0.2279 0.2528 1.1792
O9 O 0.04665(17) 0.01479(14) 0.1090(5)
C25 C 0.0346(4) -0.0342(3) 0.0643(12)
H19 H 0.0763 -0.0506 0.0731
H20 H 0.0103 -0.0494 0.1331
C26 C -0.0061(3) 0.0446(2) 0.0549(8)
H21 H -0.0375 0.0438 0.1217
H22 H 0.0094 0.0780 0.0518
O9D O -0.04665(17) -0.01479(14) -0.1090(5)
C25D C -0.0346(4) 0.0342(3) -0.0643(12)
H19D H -0.0763 0.0506 -0.0731
H20D H -0.0103 0.0494 -0.1331
C26D C 0.0061(3) -0.0446(2) -0.0549(8)
H21D H 0.0375 -0.0438 -0.1217
H22D H -0.0094 -0.0780 -0.0518
O10 O 0.45526(11) 0.04336(11) 0.8470(2)
C27 C 0.43518(17) 0.04338(17) 0.6978(4)
H23 H 0.4325 0.0099 0.6631
H24 H 0.3924 0.0579 0.6779
C28 C 0.5248(3) 0.0675(2) 0.8670(6)
H25 H 0.5216 0.1007 0.8307
H26 H 0.5410 0.0690 0.9676
O10A O 0.54474(11) 0.04336(11) 0.6530(2)
C27A C 0.56482(17) 0.04338(17) 0.8022(4)
H23A H 0.5675 0.0099 0.8369
H24A H 0.6076 0.0579 0.8221
C28A C 0.4752(3) 0.0675(2) 0.6330(6)
H25A H 0.4784 0.1007 0.6693
H26A H 0.4590 0.0690 0.5324
C29? C 0.5172(3) 0.0197(3) 0.8846(7)
H27? H 0.5137 -0.0149 0.8622
H28? H 0.5313 0.0232 0.9858
loop_
_geom_bond_atom_site_label_1
_geom_bond_atom_site_label_2
_geom_bond_site_symmetry_1
_geom_bond_site_symmetry_2
Cu1 O7 1_555 1_555
O1 C6 1_555 1_555
O2 C6 1_555 1_555
O3 C17 1_555 1_555
O4 C16 1_555 1_555
O5 N3 1_555 1_555
O6 N3 1_555 1_555
O7 N3 1_555 1_555
N1 Cu1 1_555 1_555
N2 C18 1_555 1_555
C1 N1 1_555 1_555
H1 C1 1_555 1_555
C2 C1 1_555 1_555
H2 C2 1_555 1_555
C3 C2 1_555 1_555
C4 C3 1_555 1_555
H3 C4 1_555 1_555
C5 N1 1_555 1_555
H4 C5 1_555 1_555
C6 C3 1_555 1_555
C7 O2 1_555 1_555
C8 C7 1_555 1_555
H5 C8 1_555 1_555
C9 C8 1_555 1_555
C10 C9 1_555 1_555
H6 C10 1_555 1_555
C11 C10 1_555 1_555
H7 C11 1_555 1_555
C12 C11 1_555 1_555
H8 C12 1_555 1_555
C13 C12 1_555 1_555
H9 C13 1_555 1_555
C14 C9 1_555 1_555
C15 C14 1_555 1_555
H10 C15 1_555 1_555
C16 C7 1_555 1_555
C17 O4 1_555 1_555
C18 H11 1_555 1_555
C19 C18 1_555 1_555
H12 C19 1_555 1_555
C20 C17 1_555 1_555
C21 C20 1_555 1_555
H13 C21 1_555 1_555
C22 N2 1_555 1_555
H14 C22 1_555 1_555
O8 C23 1_555 1_555
C23 H15 1_555 1_555
H16 C23 1_555 1_555
C24 O8 1_555 1_555
H17 C24 1_555 1_555
H18 C24 1_555 1_555
O9 C25 1_555 1_555
C25 H19 1_555 1_555
H20 C25 1_555 1_555
C26 O9 1_555 1_555
H21 C26 1_555 1_555
H22 C26 1_555 1_555
O10 C27 1_555 1_555
C27 H23 1_555 1_555
H24 C27 1_555 1_555
C28 O10 1_555 1_555
H25 C28 1_555 1_555
H26 C28 1_555 1_555
O1A C6A 1_555 1_555
O2A C6A 1_555 1_555
O3A C17A 1_555 1_555
O4A C16A 1_555 1_555
O5A N3A 1_555 1_555
O6A N3A 1_555 1_555
O7A Cu1 1_555 1_555
N1A Cu1 1_555 1_555
N2A C18A 1_555 1_555
N3A O7A 1_555 1_555
C1A N1A 1_555 1_555
H1A C1A 1_555 1_555
C2A C1A 1_555 1_555
H2A C2A 1_555 1_555
C3A C2A 1_555 1_555
C4A C3A 1_555 1_555
H3A C4A 1_555 1_555
C5A N1A 1_555 1_555
H4A C5A 1_555 1_555
C6A C3A 1_555 1_555
C7A O2A 1_555 1_555
C8A C7A 1_555 1_555
H5A C8A 1_555 1_555
C9A C8A 1_555 1_555
C10A C9A 1_555 1_555
H6A C10A 1_555 1_555
C11A C10A 1_555 1_555
H7A C11A 1_555 1_555
C12A C11A 1_555 1_555
H8A C12A 1_555 1_555
C13A C12A 1_555 1_555
H9A C13A 1_555 1_555
C14A C9A 1_555 1_555
C15A C14A 1_555 1_555
H10A C15A 1_555 1_555
C16A C7A 1_555 1_555
C17A O4A 1_555 1_555
C18A H11A 1_555 1_555
C19A C18A 1_555 1_555
H12A C19A 1_555 1_555
C20A C17A 1_555 1_555
C21A C20A 1_555 1_555
H13A C21A 1_555 1_555
C22A N2A 1_555 1_555
H14A C22A 1_555 1_555
Cu1F N2 1_555 1_555
Cu1F_2 N2A 1_555 1_555
N2F Cu1 1_555 1_555
N2G Cu1 1_555 1_555
O8F C23F 1_555 1_555
C23F C24 1_555 1_555
H15F C23F 1_555 1_555
H16F C23F 1_555 1_555
C24F C23 1_555 1_555
H17F C24F 1_555 1_555
H18F C24F 1_555 1_555
O9D C25D 1_555 1_555
C25D C26 1_555 1_555
H19D C25D 1_555 1_555
H20D C25D 1_555 1_555
C26D C25 1_555 1_555
H21D C26D 1_555 1_555
H22D C26D 1_555 1_555
O10A C27A 1_555 1_555
C27A C28 1_555 1_555
H23A C27A 1_555 1_555
H24A C27A 1_555 1_555
C28A C27 1_555 1_555
H25A C28A 1_555 1_555
H26A C28A 1_555 1_555
C4 C5 1_555 1_555
C13 C14 1_555 1_555
C15 C16 1_555 1_555
C19 C20 1_555 1_555
C21 C22 1_555 1_555
C4A C5A 1_555 1_555
C13A C14A 1_555 1_555
C15A C16A 1_555 1_555
C19A C20A 1_555 1_555
C21A C22A 1_555 1_555
O8F C24F 1_555 1_555
O9D C26D 1_555 1_555
O10A C28A 1_555 1_555

#END
