
#######################################################################
#
#                 Cambridge Crystallographic Data Centre
#                                CCDC 
#
#######################################################################
#
# If this CIF has been generated from an entry in the Cambridge 
# Structural Database, then it will include bibliographic, chemical, 
# crystal, experimental, refinement or atomic coordinate data resulting 
# from the CCDC's data processing and validation procedures.
#
#######################################################################

data_RIDJIZ
_symmetry_cell_setting           triclinic
_symmetry_space_group_name_H-M   'P -1'
_symmetry_Int_Tables_number      2
_space_group_name_Hall           '-P 1'
loop_
_symmetry_equiv_pos_site_id
_symmetry_equiv_pos_as_xyz
1 x,y,z
2 -x,-y,-z
_cell_length_a                   9.36130(10)
_cell_length_b                   9.87730(10)
_cell_length_c                   15.2023(2)
_cell_angle_alpha                102.5020(10)
_cell_angle_beta                 90.3140(10)
_cell_angle_gamma                105.9450(10)
_cell_volume                     1316.38
loop_
_atom_site_label
_atom_site_type_symbol
_atom_site_fract_x
_atom_site_fract_y
_atom_site_fract_z
Cu1 Cu 0.5000 0.5000 0.0000
O1 O 0.1417(2) 0.2717(2) 0.37249(12)
O2 O 0.25798(19) 0.10144(17) 0.32127(10)
O3 O 0.15109(19) -0.28679(19) 0.28838(12)
O4 O 0.02782(18) -0.12574(17) 0.34911(11)
O5 O 0.4135(3) 0.7036(2) 0.06050(13)
O6 O 0.4455(3) 0.9290(2) 0.07750(16)
O7 O 0.2343(3) 0.7923(4) 0.09801(19)
N1 N 0.3810(2) 0.3974(2) 0.09365(12)
N2 N -0.3236(2) -0.4188(2) 0.09157(12)
N3 N 0.3640(2) 0.8100(2) 0.07896(13)
C1 C 0.3015(3) 0.4610(3) 0.15446(16)
H1 H 0.2871 0.5483 0.1488
C2 C 0.2403(3) 0.4016(3) 0.22498(16)
H2 H 0.1856 0.4481 0.2656
C3 C 0.2617(2) 0.2723(2) 0.23411(15)
C4 C 0.3376(3) 0.2031(3) 0.17001(16)
H3 H 0.3497 0.1139 0.1730
C5 C 0.3951(3) 0.2687(3) 0.10129(16)
H4 H 0.4461 0.2215 0.0583
C6 C 0.2100(3) 0.2168(3) 0.31606(16)
C7 C 0.2542(3) 0.0627(2) 0.40511(15)
C8 C 0.3655(3) 0.1347(2) 0.47007(15)
H5 H 0.4377 0.2158 0.4614
C9 C 0.3723(2) 0.0867(2) 0.55083(15)
C10 C 0.4924(3) 0.1520(3) 0.61734(16)
H6 H 0.5672 0.2322 0.6099
C11 C 0.4993(3) 0.0984(3) 0.69219(16)
H7 H 0.5801 0.1406 0.7346
C12 C 0.3850(3) -0.0206(3) 0.70581(16)
H8 H 0.3902 -0.0555 0.7575
C13 C 0.2668(3) -0.0852(3) 0.64362(16)
H9 H 0.1912 -0.1626 0.6538
C14 C 0.2583(2) -0.0352(2) 0.56360(15)
C15 C 0.1422(2) -0.1058(2) 0.49498(15)
H10 H 0.0660 -0.1844 0.5030
C16 C 0.1426(2) -0.0582(2) 0.41743(15)
C17 C 0.0454(2) -0.2409(2) 0.28757(15)
C18 C -0.1939(3) -0.4504(3) 0.07736(16)
H11 H -0.1851 -0.5121 0.0233
C19 C -0.0732(3) -0.3949(3) 0.13982(16)
H12 H 0.0148 -0.4197 0.1283
C20 C -0.0850(2) -0.3017(2) 0.22004(15)
C21 C -0.2179(3) -0.2699(3) 0.23518(16)
H13 H -0.2294 -0.2087 0.2888
C22 C -0.3341(3) -0.3299(3) 0.16982(16)
H14 H -0.4237 -0.3077 0.1806
O1A O -0.1417(2) -0.2717(2) -0.37249(12)
O2A O -0.25798(19) -0.10144(17) -0.32127(10)
O3A O -0.15109(19) 0.28679(19) -0.28838(12)
O4A O -0.02782(18) 0.12574(17) -0.34911(11)
N1A N -0.3810(2) -0.3974(2) -0.09365(12)
N2A N 0.3236(2) 0.4188(2) -0.09157(12)
C1A C -0.3015(3) -0.4610(3) -0.15446(16)
H1A H -0.2871 -0.5483 -0.1488
C2A C -0.2403(3) -0.4016(3) -0.22498(16)
H2A H -0.1856 -0.4481 -0.2656
C3A C -0.2617(2) -0.2723(2) -0.23411(15)
C4A C -0.3376(3) -0.2031(3) -0.17001(16)
H3A H -0.3497 -0.1139 -0.1730
C5A C -0.3951(3) -0.2687(3) -0.10129(16)
H4A H -0.4461 -0.2215 -0.0583
C6A C -0.2100(3) -0.2168(3) -0.31606(16)
C7A C -0.2542(3) -0.0627(2) -0.40511(15)
C8A C -0.3655(3) -0.1347(2) -0.47007(15)
H5A H -0.4377 -0.2158 -0.4614
C9A C -0.3723(2) -0.0867(2) -0.55083(15)
C10A C -0.4924(3) -0.1520(3) -0.61734(16)
H6A H -0.5672 -0.2322 -0.6099
C11A C -0.4993(3) -0.0984(3) -0.69219(16)
H7A H -0.5801 -0.1406 -0.7346
C12A C -0.3850(3) 0.0206(3) -0.70581(16)
H8A H -0.3902 0.0555 -0.7575
C13A C -0.2668(3) 0.0852(3) -0.64362(16)
H9A H -0.1912 0.1626 -0.6538
C14A C -0.2583(2) 0.0352(2) -0.56360(15)
C15A C -0.1422(2) 0.1058(2) -0.49498(15)
H10A H -0.0660 0.1844 -0.5030
C16A C -0.1426(2) 0.0582(2) -0.41743(15)
C17A C -0.0454(2) 0.2409(2) -0.28757(15)
C18A C 0.1939(3) 0.4504(3) -0.07736(16)
H11A H 0.1851 0.5121 -0.0233
C19A C 0.0732(3) 0.3949(3) -0.13982(16)
H12A H -0.0148 0.4197 -0.1283
C20A C 0.0850(2) 0.3017(2) -0.22004(15)
C21A C 0.2179(3) 0.2699(3) -0.23518(16)
H13A H 0.2294 0.2087 -0.2888
C22A C 0.3341(3) 0.3299(3) -0.16982(16)
H14A H 0.4237 0.3077 -0.1806
O5A O 0.5865(3) 0.2964(2) -0.06050(13)
O6A O 0.5545(3) 0.0710(2) -0.07750(16)
O7A O 0.7657(3) 0.2077(4) -0.09801(19)
N3A N 0.6360(2) 0.1900(2) -0.07896(13)
Cu1_2 Cu -0.5000 -0.5000 0.0000
N1A_2 N 0.6190(2) 0.6026(2) -0.09365(12)
N2_2 N 0.6764(2) 0.5812(2) 0.09157(12)
Cl1 Cl 0.10571(11) 0.50701(10) 0.60918(7)
Cl2 Cl 0.42250(12) 0.53223(13) 0.62798(10)
C23 C 0.2672(5) 0.5062(8) 0.5579(3)
H15 H 0.2883 0.5812 0.5239
H16 H 0.2512 0.4143 0.5149
Cl3 Cl 0.93814(12) -0.01785(12) 0.11210(8)
Cl4 Cl 0.82918(14) 0.23559(11) 0.14180(8)
C24 C 0.8132(4) 0.0632(4) 0.0731(2)
H17 H 0.7123 0.0021 0.0725
H18 H 0.8328 0.0719 0.0117
loop_
_geom_bond_atom_site_label_1
_geom_bond_atom_site_label_2
_geom_bond_site_symmetry_1
_geom_bond_site_symmetry_2
Cu1 O5 1_555 1_555
O1 C6 1_555 1_555
O2 C6 1_555 1_555
O3 C17 1_555 1_555
O4 C16 1_555 1_555
O5 N3 1_555 1_555
O6 N3 1_555 1_555
O7 N3 1_555 1_555
N1 Cu1 1_555 1_555
N2 C18 1_555 1_555
C1 N1 1_555 1_555
H1 C1 1_555 1_555
C2 C1 1_555 1_555
H2 C2 1_555 1_555
C3 C2 1_555 1_555
C4 C3 1_555 1_555
H3 C4 1_555 1_555
C5 N1 1_555 1_555
H4 C5 1_555 1_555
C6 C3 1_555 1_555
C7 O2 1_555 1_555
C8 C7 1_555 1_555
H5 C8 1_555 1_555
C9 C8 1_555 1_555
C10 C9 1_555 1_555
H6 C10 1_555 1_555
C11 C10 1_555 1_555
H7 C11 1_555 1_555
C12 C11 1_555 1_555
H8 C12 1_555 1_555
C13 C12 1_555 1_555
H9 C13 1_555 1_555
C14 C9 1_555 1_555
C15 C14 1_555 1_555
H10 C15 1_555 1_555
C16 C7 1_555 1_555
C17 O4 1_555 1_555
C18 H11 1_555 1_555
C19 C18 1_555 1_555
H12 C19 1_555 1_555
C20 C17 1_555 1_555
C21 C20 1_555 1_555
H13 C21 1_555 1_555
C22 N2 1_555 1_555
H14 C22 1_555 1_555
Cl1 C23 1_555 1_555
Cl2 C23 1_555 1_555
C23 H15 1_555 1_555
H16 C23 1_555 1_555
Cl3 C24 1_555 1_555
Cl4 C24 1_555 1_555
C24 H17 1_555 1_555
H18 C24 1_555 1_555
O1A C6A 1_555 1_555
O2A C6A 1_555 1_555
O3A C17A 1_555 1_555
O4A C16A 1_555 1_555
N1A C1A 1_555 1_555
N2A Cu1 1_555 1_555
C1A H1A 1_555 1_555
C2A C1A 1_555 1_555
H2A C2A 1_555 1_555
C3A C2A 1_555 1_555
C4A C3A 1_555 1_555
H3A C4A 1_555 1_555
C5A N1A 1_555 1_555
H4A C5A 1_555 1_555
C6A C3A 1_555 1_555
C7A O2A 1_555 1_555
C8A C7A 1_555 1_555
H5A C8A 1_555 1_555
C9A C8A 1_555 1_555
C10A C9A 1_555 1_555
H6A C10A 1_555 1_555
C11A C10A 1_555 1_555
H7A C11A 1_555 1_555
C12A C11A 1_555 1_555
H8A C12A 1_555 1_555
C13A C12A 1_555 1_555
H9A C13A 1_555 1_555
C14A C9A 1_555 1_555
C15A C14A 1_555 1_555
H10A C15A 1_555 1_555
C16A C7A 1_555 1_555
C17A O4A 1_555 1_555
C18A N2A 1_555 1_555
H11A C18A 1_555 1_555
C19A C18A 1_555 1_555
H12A C19A 1_555 1_555
C20A C17A 1_555 1_555
C21A C20A 1_555 1_555
H13A C21A 1_555 1_555
C22A N2A 1_555 1_555
H14A C22A 1_555 1_555
O5A Cu1 1_555 1_555
O6A N3A 1_555 1_555
O7A N3A 1_555 1_555
N3A O5A 1_555 1_555
Cu1_2 N2 1_555 1_555
N1A_2 Cu1 1_555 1_555
N2_2 Cu1 1_555 1_555
C4 C5 1_555 1_555
C13 C14 1_555 1_555
C15 C16 1_555 1_555
C19 C20 1_555 1_555
C21 C22 1_555 1_555
N1A Cu1_2 1_555 1_555
C4A C5A 1_555 1_555
C13A C14A 1_555 1_555
C15A C16A 1_555 1_555
C19A C20A 1_555 1_555
C21A C22A 1_555 1_555

#END
