
#######################################################################
#
#                 Cambridge Crystallographic Data Centre
#                                CCDC 
#
#######################################################################
#
# If this CIF has been generated from an entry in the Cambridge 
# Structural Database, then it will include bibliographic, chemical, 
# crystal, experimental, refinement or atomic coordinate data resulting 
# from the CCDC's data processing and validation procedures.
#
#######################################################################

data_RIDKOE
_symmetry_cell_setting           orthorhombic
_symmetry_space_group_name_H-M   'C m c 21'
_symmetry_Int_Tables_number      36
_space_group_name_Hall           'C 2n -2'
loop_
_symmetry_equiv_pos_site_id
_symmetry_equiv_pos_as_xyz
1 x,y,z
2 -x,-y,1/2+z
3 -x,y,z
4 x,-y,1/2+z
5 1/2+x,1/2+y,z
6 1/2-x,1/2-y,1/2+z
7 1/2-x,1/2+y,z
8 1/2+x,1/2-y,1/2+z
_cell_length_a                   20.417(1)
_cell_length_b                   16.598(1)
_cell_length_c                   15.912(1)
_cell_angle_alpha                90
_cell_angle_beta                 90
_cell_angle_gamma                90
_cell_volume                     5392.28
loop_
_atom_site_label
_atom_site_type_symbol
_atom_site_fract_x
_atom_site_fract_y
_atom_site_fract_z
N1 N 0.3040(4) 0.1036(5) 0.6030(5)
N2 N 0.3790(3) -0.0518(4) 0.4956(5)
N3 N 0.3079(4) 0.0990(4) 0.3889(5)
N4 N 0.4418(3) 0.1322(5) 0.5097(6)
N5 N 0.2179(4) 0.1740(5) 0.6696(5)
N6 N 0.1919(4) 0.3394(6) 0.7568(5)
N7 N 0.0587(4) 0.2123(4) 0.7183(5)
N8 N 0.1257(4) 0.3191(4) 0.5624(5)
Cu1 Cu 0.35574(5) 0.06859(7) 0.49691(7)
Cu2 Cu 0.14454(5) 0.25877(7) 0.67074(8)
C1 C 0.2524(5) 0.1496(6) 0.6022(6)
H1 H 0.2381(5) 0.1675(6) 0.5499(6)
C2 C 0.2418(6) 0.1487(8) 0.7437(6)
H2 H 0.2214(6) 0.1668(8) 0.7924(6)
C3 C 0.2938(6) 0.0984(7) 0.7521(6)
H3 H 0.3067(6) 0.0781(7) 0.8039(6)
C4 C 0.3266(6) 0.0792(6) 0.6775(7)
H4 H 0.3649(6) 0.0490(6) 0.6799(7)
C5 C 0.3360(4) 0.1373(5) 0.3283(6)
H5 H 0.3800(4) 0.1498(5) 0.3353(6)
C6 C 0.2452(5) 0.0802(6) 0.3796(7)
H6 H 0.2232(5) 0.0539(6) 0.4228(7)
C7 C 0.2120(5) 0.0994(10) 0.3061(8)
H7 H 0.1687(5) 0.0841(10) 0.2973(8)
C8 C 0.2534(5) 0.3578(10) 0.7475(6)
H8 H 0.2748(5) 0.3412(10) 0.6988(6)
C9 C 0.0000 0.2389(9) 0.6927(7)
H9 H 0.0000 0.2800(9) 0.6531(7)
C10 C 0.0000 0.1190(16) 0.8038(17)
H10 H 0.0000 0.0777(16) 0.8432(17)
C11 C 0.0557(8) 0.1523(10) 0.7720(10)
H11 H 0.0952(8) 0.1305(10) 0.7899(10)
C12 C 0.3647(4) -0.1015(5) 0.5601(6)
H12 H 0.3464(4) -0.0781(5) 0.6077(6)
C13 C 0.4062(5) -0.0891(6) 0.4290(6)
H13 H 0.4183(5) -0.0575(6) 0.3833(6)
C14 C 0.4170(6) -0.1676(7) 0.4240(7)
H14 H 0.4352(6) -0.1910(7) 0.3763(7)
C15 C 0.1005(5) 0.2866(6) 0.4947(7)
H15 H 0.0940(5) 0.2312(6) 0.4934(7)
C16 C 0.4422(6) 0.2081(8) 0.5278(20)
H16 H 0.4027(6) 0.2356(8) 0.5313(20)
C17 C 0.5000 0.2497(17) 0.5423(44)
H17 H 0.5000 0.3028(17) 0.5608(44)
C18 C 0.5000 0.0984(7) 0.4999(11)
H18 H 0.5000 0.0444(7) 0.4843(11)
C5E C 0.1640(4) 0.3627(5) 0.8283(6)
C12F C 0.1353(4) 0.3985(5) 0.5601(6)
N6E N 0.3081(4) 0.1606(6) 0.2568(5)
C8E C 0.2466(5) 0.1422(10) 0.2475(6)
C7E C 0.2880(5) 0.4006(10) 0.8061(8)
N7B N -0.0587(4) 0.2123(4) 0.7183(5)
C11B C -0.0557(8) 0.1523(10) 0.7720(10)
N8F N 0.3743(4) -0.1809(4) 0.5624(5)
C15F C 0.3995(5) -0.2134(6) 0.4947(7)
C14F C 0.0830(6) 0.3324(7) 0.4240(7)
C16B C 0.5578(6) 0.2081(8) 0.5278(20)
N4B N 0.5582(3) 0.1322(5) 0.5097(6)
N3E N 0.1921(4) 0.4010(4) 0.8889(5)
H5E H 0.1200(4) 0.3502(5) 0.8353(6)
N2F N 0.1210(3) 0.4482(4) 0.4956(5)
H12F H 0.1536(4) 0.4219(5) 0.6077(6)
Cu2E Cu 0.35546(5) 0.24123(7) 0.17074(8)
H8E H 0.2252(5) 0.1588(10) 0.1988(6)
C6E C 0.2548(5) 0.4198(6) 0.8796(7)
H7E H 0.3313(5) 0.4159(10) 0.7973(8)
Cu2B Cu -0.14454(5) 0.25877(7) 0.67074(8)
H11B H -0.0952(8) 0.1305(10) 0.7899(10)
Cu2F Cu 0.35546(5) -0.24123(7) 0.67074(8)
H15F H 0.4060(5) -0.2688(6) 0.4934(7)
C13F C 0.0938(5) 0.4109(6) 0.4290(6)
H14F H 0.0648(6) 0.3090(7) 0.3763(7)
H16B H 0.5973(6) 0.2356(8) 0.5313(20)
Cu1B Cu 0.64426(5) 0.06859(7) 0.49691(7)
Cu1E Cu 0.14426(5) 0.43141(7) 0.99691(7)
Cu1F Cu 0.14426(5) 0.56859(7) 0.49691(7)
N5E N 0.2821(4) 0.3260(5) 0.1696(5)
N7E N 0.4413(4) 0.2877(4) 0.2183(5)
N8E N 0.3743(4) 0.1809(4) 0.0624(5)
H6E H 0.2768(5) 0.4461(6) 0.9228(7)
N5B N -0.2179(4) 0.1740(5) 0.6696(5)
N6B N -0.1919(4) 0.3394(6) 0.7568(5)
N8B N -0.1257(4) 0.3191(4) 0.5624(5)
N5F N 0.2821(4) -0.3260(5) 0.6696(5)
N6F N 0.3081(4) -0.1606(6) 0.7568(5)
N7F N 0.4413(4) -0.2877(4) 0.7183(5)
H13F H 0.0817(5) 0.4425(6) 0.3833(6)
N1B N 0.6960(4) 0.1036(5) 0.6030(5)
N2B N 0.6210(3) -0.0518(4) 0.4956(5)
N3B N 0.6921(4) 0.0990(4) 0.3889(5)
C19 C 0.0000 0.0376(31) 0.5238(31)
C20 C 0.1410(22) 0.0123(30) 0.6408(32)
C21 C 0.1299(16) 0.0754(20) 0.5340(23)
C24 C 0.1197(27) 0.0338(31) 0.5876(34)
C22 C 0.0000 0.1747(35) 0.3739(36)
C23 C 0.0499(18) 0.0713(21) 0.3411(25)
F1 F 0.5000 0.0991(20) 0.3010(17)
F2 F 0.4422(7) 0.0235(16) 0.2545(13)
F3 F 0.5000 -0.0567(13) 0.2451(20)
F4 F 0.5000 0.0598(11) 0.1595(11)
B1 B 0.5000 0.0285(15) 0.2356(12)
F5 F 0.1974(5) 0.1827(7) 0.0530(5)
F6 F 0.1505(6) 0.1632(18) -0.0723(8)
F7 F 0.2482(10) 0.2233(10) -0.0617(8)
F8 F 0.2343(6) 0.0938(7) -0.0424(9)
B2 B 0.2056(8) 0.1581(17) -0.0297(10)
loop_
_geom_bond_atom_site_label_1
_geom_bond_atom_site_label_2
_geom_bond_site_symmetry_1
_geom_bond_site_symmetry_2
F1 B1 1_555 1_555
F2 B1 1_555 1_555
F3 B1 1_555 1_555
F4 B1 1_555 1_555
F5 B2 1_555 1_555
F6 B2 1_555 1_555
F7 B2 1_555 1_555
F8 B2 1_555 1_555
N1 Cu1 1_555 1_555
N2 Cu1 1_555 1_555
N3 Cu1 1_555 1_555
N4 Cu1 1_555 1_555
N5 Cu2 1_555 1_555
N6 Cu2 1_555 1_555
N7 Cu2 1_555 1_555
N8 Cu2 1_555 1_555
C1 N1 1_555 1_555
H1 C1 1_555 1_555
C2 N5 1_555 1_555
H2 C2 1_555 1_555
C3 C2 1_555 1_555
H3 C3 1_555 1_555
C4 N1 1_555 1_555
H4 C4 1_555 1_555
C5 N3 1_555 1_555
H5 C5 1_555 1_555
C6 N3 1_555 1_555
H6 C6 1_555 1_555
C7 C6 1_555 1_555
H7 C7 1_555 1_555
C8 N6 1_555 1_555
H8 C8 1_555 1_555
C9 N7 1_555 1_555
H9 C9 1_555 1_555
C10 H10 1_555 1_555
C11 N7 1_555 1_555
H11 C11 1_555 1_555
C12 N2 1_555 1_555
H12 C12 1_555 1_555
C13 N2 1_555 1_555
H13 C13 1_555 1_555
C14 C13 1_555 1_555
H14 C14 1_555 1_555
C15 N8 1_555 1_555
H15 C15 1_555 1_555
C16 N4 1_555 1_555
H16 C16 1_555 1_555
C17 C16 1_555 1_555
H17 C17 1_555 1_555
C18 N4 1_555 1_555
H18 C18 1_555 1_555
C20 C24 1_555 1_555
C21 C24 1_555 1_555
C5E N6 1_555 1_555
C12F N8 1_555 1_555
N6E C5 1_555 1_555
C8E C7 1_555 1_555
C7E C8 1_555 1_555
N7B C9 1_555 1_555
C11B C10 1_555 1_555
N8F C12 1_555 1_555
C15F C14 1_555 1_555
C14F C15 1_555 1_555
C16B C17 1_555 1_555
N4B C18 1_555 1_555
N3E C5E 1_555 1_555
H5E C5E 1_555 1_555
N2F C12F 1_555 1_555
H12F C12F 1_555 1_555
Cu2E N6E 1_555 1_555
H8E C8E 1_555 1_555
C6E C7E 1_555 1_555
H7E C7E 1_555 1_555
Cu2B N7B 1_555 1_555
H11B C11B 1_555 1_555
Cu2F N8F 1_555 1_555
H15F C15F 1_555 1_555
C13F C14F 1_555 1_555
H14F C14F 1_555 1_555
H16B C16B 1_555 1_555
Cu1B N4B 1_555 1_555
Cu1E N3E 1_555 1_555
Cu1F N2F 1_555 1_555
N5E Cu2E 1_555 1_555
N7E Cu2E 1_555 1_555
N8E Cu2E 1_555 1_555
H6E C6E 1_555 1_555
N5B Cu2B 1_555 1_555
N6B Cu2B 1_555 1_555
N8B Cu2B 1_555 1_555
N5F Cu2F 1_555 1_555
N6F Cu2F 1_555 1_555
N7F Cu2F 1_555 1_555
H13F C13F 1_555 1_555
N1B Cu1B 1_555 1_555
N2B Cu1B 1_555 1_555
N3B Cu1B 1_555 1_555
N5 C1 1_555 1_555
C3 C4 1_555 1_555
C10 C11 1_555 1_555
N6E C8E 1_555 1_555
N7B C11B 1_555 1_555
N8F C15F 1_555 1_555
C16B N4B 1_555 1_555
N3E C6E 1_555 1_555
N2F C13F 1_555 1_555

#END
