
#######################################################################
#
#                 Cambridge Crystallographic Data Centre
#                                CCDC 
#
#######################################################################
#
# If this CIF has been generated from an entry in the Cambridge 
# Structural Database, then it will include bibliographic, chemical, 
# crystal, experimental, refinement or atomic coordinate data resulting 
# from the CCDC's data processing and validation procedures.
#
#######################################################################

data_RIDNUO
_symmetry_cell_setting           monoclinic
_symmetry_space_group_name_H-M   'C 2/m'
_symmetry_Int_Tables_number      12
_space_group_name_Hall           '-C 2y'
loop_
_symmetry_equiv_pos_site_id
_symmetry_equiv_pos_as_xyz
1 x,y,z
2 1/2+x,1/2+y,z
3 -x,y,-z
4 1/2-x,1/2+y,-z
5 -x,-y,-z
6 1/2-x,1/2-y,-z
7 x,-y,z
8 1/2+x,1/2-y,z
_cell_length_a                   17.163(10)
_cell_length_b                   15.442(9)
_cell_length_c                   12.133(7)
_cell_angle_alpha                90
_cell_angle_beta                 113.534(8)
_cell_angle_gamma                90
_cell_volume                     2948.16
loop_
_atom_site_label
_atom_site_type_symbol
_atom_site_fract_x
_atom_site_fract_y
_atom_site_fract_z
C15 C 0.3527(9) 0.0000 0.9176(11)
H10 H 0.3851 0.0513 0.9168
C16 C 0.3306(11) 0.0000 1.0247(15)
H11 H 0.3824 0.0000 1.0958
H12 H 0.2982 0.0508 1.0241
O4 O 0.2743(5) 0.0000 0.8224(8)
H13 H 0.2808 0.0000 0.7590
H10F H 0.3851 -0.0513 0.9168
H12F H 0.2982 -0.0508 1.0241
Cd1 Cd 0.0000 0.0000 0.5000
N1 N 0.02847(18) 0.11249(18) 0.6433(2)
N2 N 0.10348(18) 0.19299(19) 0.8030(2)
N3 N 0.1916(4) 0.0000 0.5150(5)
C1 C 0.1007(2) 0.1213(2) 0.7360(3)
H1 H 0.1456 0.0825 0.7544
C2 C -0.0210(2) 0.1834(2) 0.6465(3)
C3 C -0.1025(2) 0.2095(3) 0.5673(4)
H2 H -0.1340 0.1766 0.5000
C4 C -0.1340(3) 0.2851(3) 0.5924(5)
H3 H -0.1873 0.3044 0.5401
C5 C -0.0877(3) 0.3339(4) 0.6952(5)
H4 H -0.1117 0.3840 0.7106
C6 C -0.0070(3) 0.3093(3) 0.7744(5)
H5 H 0.0239 0.3417 0.8426
C7 C 0.0249(2) 0.2342(2) 0.7469(3)
C8 C 0.1773(2) 0.2230(2) 0.9039(3)
C9 C 0.1883(2) 0.1961(2) 1.0190(3)
C10 C 0.2349(2) 0.2769(2) 0.8809(3)
C11 C 0.2216(3) 0.3072(3) 0.7635(3)
H6 H 0.1724 0.2913 0.6982
C12 C 0.2794(3) 0.3585(4) 0.7462(4)
H7 H 0.2687 0.3792 0.6668
C13 C 0.3557(3) 0.3826(4) 0.8434(4)
H8 H 0.3955 0.4166 0.8292
C14 C 0.1290(3) 0.1434(3) 1.0435(4)
H9 H 0.0789 0.1266 0.9806
O1 O 0.1498(3) 0.0000 0.5766(4)
O2 O 0.2682(3) 0.0000 0.5502(7)
O3 O 0.1485(4) 0.0000 0.4022(5)
N1F N 0.02847(18) -0.11249(18) 0.6433(2)
N1D N -0.02847(18) -0.11249(18) 0.3567(2)
N1B N -0.02847(18) 0.11249(18) 0.3567(2)
C9E C 0.3117(2) 0.3039(2) 0.9810(3)
C10E C 0.2651(2) 0.2231(2) 1.1191(3)
C13E C 0.1443(3) 0.1174(4) 1.1566(4)
C14E C 0.3710(3) 0.3566(3) 0.9565(4)
O1D O -0.1498(3) 0.0000 0.4234(4)
C17? C -0.0714(10) 0.5322(13) 0.379(2)
H14? H -0.1121 0.5676 0.3184
H15? H -0.0991 0.5120 0.4294
C18? C 0.0000 0.6101(10) 0.5000
H16? H -0.0243 0.6552 0.5306
H17? H 0.0408 0.5784 0.5659
H18? H 0.0276 0.6351 0.4526
O5? O -0.051(3) 0.5000 0.484(5)
H19? H -0.0984 0.4754 0.4460
loop_
_geom_bond_atom_site_label_1
_geom_bond_atom_site_label_2
_geom_bond_site_symmetry_1
_geom_bond_site_symmetry_2
Cd1 N1 1_555 1_555
N1 C1 1_555 1_555
N2 C1 1_555 1_555
N3 O1 1_555 1_555
C1 H1 1_555 1_555
C2 N1 1_555 1_555
C3 C2 1_555 1_555
H2 C3 1_555 1_555
C4 C3 1_555 1_555
H3 C4 1_555 1_555
C5 C4 1_555 1_555
H4 C5 1_555 1_555
C6 C5 1_555 1_555
H5 C6 1_555 1_555
C7 N2 1_555 1_555
C8 N2 1_555 1_555
C9 C8 1_555 1_555
C10 C8 1_555 1_555
C11 C10 1_555 1_555
H6 C11 1_555 1_555
C12 C11 1_555 1_555
H7 C12 1_555 1_555
C13 C12 1_555 1_555
H8 C13 1_555 1_555
C14 C9 1_555 1_555
H9 C14 1_555 1_555
C15 H10 1_555 1_555
C16 C15 1_555 1_555
H11 C16 1_555 1_555
H12 C16 1_555 1_555
O1 Cd1 1_555 1_555
O2 N3 1_555 1_555
O3 N3 1_555 1_555
O4 C15 1_555 1_555
H13 O4 1_555 1_555
N1F Cd1 1_555 1_555
N1D Cd1 1_555 1_555
N1B Cd1 1_555 1_555
C9E C10 1_555 1_555
C10E C9 1_555 1_555
C13E C14 1_555 1_555
C14E C13 1_555 1_555
H10F C15 1_555 1_555
H12F C16 1_555 1_555
O1D Cd1 1_555 1_555
C2 C7 1_555 1_555
C6 C7 1_555 1_555
C9E C14E 1_555 1_555

#END
