
#######################################################################
#
#                 Cambridge Crystallographic Data Centre
#                                CCDC 
#
#######################################################################
#
# If this CIF has been generated from an entry in the Cambridge 
# Structural Database, then it will include bibliographic, chemical, 
# crystal, experimental, refinement or atomic coordinate data resulting 
# from the CCDC's data processing and validation procedures.
#
#######################################################################

data_RIDPIE
_symmetry_cell_setting           triclinic
_symmetry_space_group_name_H-M   'P -1'
_symmetry_Int_Tables_number      2
_space_group_name_Hall           '-P 1'
loop_
_symmetry_equiv_pos_site_id
_symmetry_equiv_pos_as_xyz
1 x,y,z
2 -x,-y,-z
_cell_length_a                   9.0079(16)
_cell_length_b                   12.129(2)
_cell_length_c                   14.031(2)
_cell_angle_alpha                110.672(2)
_cell_angle_beta                 100.713(3)
_cell_angle_gamma                98.948(3)
_cell_volume                     1367.9
loop_
_atom_site_label
_atom_site_type_symbol
_atom_site_fract_x
_atom_site_fract_y
_atom_site_fract_z
Mn1 Mn 0.5000 1.5000 1.0000
Cl1 Cl 0.70002(13) 1.42154(9) 0.90918(8)
N1 N 0.3322(4) 1.3136(3) 0.9245(3)
N2 N 0.1753(4) 1.1556(3) 0.9311(2)
N3 N 0.4078(4) 1.5494(3) 0.8490(2)
N4 N 0.4075(4) 1.5493(3) 0.6894(2)
C1 C 0.2510(5) 1.2749(3) 0.9801(3)
H1 H 0.2458 1.3244 1.0467
C2 C 0.3066(5) 1.2122(3) 0.8305(3)
C3 C 0.3595(5) 1.1978(4) 0.7408(3)
H2 H 0.4243 1.2624 0.7362
C4 C 0.3134(6) 1.0861(4) 0.6598(3)
H3 H 0.3469 1.0752 0.5990
C5 C 0.2170(6) 0.9872(4) 0.6655(4)
H4 H 0.1888 0.9122 0.6090
C6 C 0.1635(6) 0.9998(4) 0.7535(3)
H5 H 0.0999 0.9350 0.7585
C7 C 0.2093(5) 1.1133(3) 0.8338(3)
C8 C 0.0861(5) 1.0801(3) 0.9697(3)
C9 C -0.0751(5) 1.0618(3) 0.9434(3)
C10 C -0.1548(5) 1.1234(4) 0.8894(3)
H6 H -0.0982 1.1798 0.8707
C11 C -0.3114(6) 1.1013(5) 0.8647(4)
H7 H -0.3614 1.1431 0.8298
C12 C -0.3998(6) 1.0157(5) 0.8912(4)
H8 H -0.5078 1.0001 0.8717
C13 C -0.3306(5) 0.9555(4) 0.9446(3)
H9 H -0.3912 0.9001 0.9623
C14 C 0.1653(5) 1.0231(3) 1.0262(3)
C15 C 0.4754(5) 1.5237(4) 0.7717(3)
H10 H 0.5620 1.4909 0.7729
C16 C 0.2832(5) 1.5943(4) 0.8151(3)
C17 C 0.1714(7) 1.6367(5) 0.8639(4)
H11 H 0.1713 1.6395 0.9310
C18 C 0.0607(8) 1.6744(6) 0.8098(4)
H12 H -0.0158 1.7028 0.8411
C19 C 0.0596(8) 1.6714(6) 0.7093(4)
H13 H -0.0184 1.6965 0.6748
C20 C 0.1710(7) 1.6321(5) 0.6602(4)
H14 H 0.1723 1.6314 0.5939
C21 C 0.2811(5) 1.5937(4) 0.7150(3)
C22 C 0.4530(5) 1.5248(4) 0.5927(3)
C23 C 0.5579(5) 1.6168(4) 0.5840(3)
C24 C 0.6171(6) 1.7351(4) 0.6649(3)
H15 H 0.5863 1.7539 0.7273
C25 C 0.7177(6) 1.8211(4) 0.6522(4)
H16 H 0.7549 1.8980 0.7060
C26 C 0.7664(6) 1.7954(4) 0.5590(4)
H17 H 0.8355 1.8556 0.5519
C27 C 0.7140(5) 1.6840(4) 0.4793(3)
H18 H 0.7480 1.6684 0.4183
C28 C 0.3925(5) 1.4092(4) 0.5117(3)
Mn1_2 Mn -0.5000 0.5000 1.0000
Mn1_3 Mn 0.5000 1.5000 0.0000
Cl1A Cl 0.29998(13) 1.57846(9) 1.09082(8)
N1A N -0.3322(4) 0.6864(3) 1.0755(3)
N1A_2 N 0.6678(4) 1.6864(3) 1.0755(3)
N2A N -0.1753(4) 0.8444(3) 1.0689(2)
N3A N 0.5922(4) 1.4506(3) 0.1510(2)
N3A_2 N 0.5922(4) 1.4506(3) 1.1510(2)
N4A N 0.5925(4) 1.4507(3) 0.3106(2)
C1A C -0.2510(5) 0.7251(3) 1.0199(3)
H1A H -0.2458 0.6756 0.9533
C2A C -0.3066(5) 0.7878(3) 1.1695(3)
C3A C -0.3595(5) 0.8022(4) 1.2592(3)
H2A H -0.4243 0.7376 1.2638
C4A C -0.3134(6) 0.9139(4) 1.3402(3)
H3A H -0.3469 0.9248 1.4010
C5A C -0.2170(6) 1.0128(4) 1.3345(4)
H4A H -0.1888 1.0878 1.3910
C6A C -0.1635(6) 1.0002(4) 1.2465(3)
H5A H -0.0999 1.0650 1.2415
C7A C -0.2093(5) 0.8867(3) 1.1662(3)
C8A C -0.0861(5) 0.9199(3) 1.0303(3)
C9A C 0.0751(5) 0.9382(3) 1.0566(3)
C10A C 0.1548(5) 0.8766(4) 1.1106(3)
H6A H 0.0982 0.8202 1.1293
C11A C 0.3114(6) 0.8987(5) 1.1353(4)
H7A H 0.3614 0.8569 1.1702
C12A C 0.3998(6) 0.9843(5) 1.1088(4)
H8A H 0.5078 0.9999 1.1283
C13A C 0.3306(5) 1.0445(4) 1.0554(3)
H9A H 0.3912 1.0999 1.0377
C14A C -0.1653(5) 0.9769(3) 0.9738(3)
C15A C 0.5246(5) 1.4763(4) 0.2283(3)
H10A H 0.4380 1.5091 0.2271
C16A C 0.7168(5) 1.4057(4) 0.1849(3)
C17A C 0.8286(7) 1.3633(5) 0.1361(4)
H11A H 0.8287 1.3605 0.0690
C18A C 0.9393(8) 1.3256(6) 0.1902(4)
H12A H 1.0158 1.2972 0.1589
C19A C 0.9404(8) 1.3286(6) 0.2907(4)
H13A H 1.0184 1.3035 0.3252
C20A C 0.8290(7) 1.3679(5) 0.3398(4)
H14A H 0.8277 1.3686 0.4061
C21A C 0.7189(5) 1.4063(4) 0.2850(3)
C22A C 0.5470(5) 1.4752(4) 0.4073(3)
C23A C 0.4421(5) 1.3832(4) 0.4160(3)
C24A C 0.3829(6) 1.2649(4) 0.3351(3)
H15A H 0.4137 1.2461 0.2727
C25A C 0.2823(6) 1.1789(4) 0.3478(4)
H16A H 0.2451 1.1020 0.2940
C26A C 0.2336(6) 1.2046(4) 0.4410(4)
H17A H 0.1645 1.1444 0.4481
C27A C 0.2860(5) 1.3160(4) 0.5207(3)
H18A H 0.2520 1.3316 0.5817
C28A C 0.6075(5) 1.5908(4) 0.4883(3)
Cl2 Cl 0.7129(8) 1.1225(4) 0.6167(3)
Cl4 Cl 0.7419(10) 1.3504(7) 0.6042(4)
Cl6 Cl 1.0000(5) 1.2826(6) 0.6975(6)
C29 C 0.8096(7) 1.2743(6) 0.6713(5)
Cl3? Cl 0.6389(6) 1.1957(8) 0.5711(5)
Cl5? Cl 0.8761(16) 1.3919(9) 0.6347(7)
Cl7? Cl 0.9211(14) 1.1673(11) 0.6454(6)
loop_
_geom_bond_atom_site_label_1
_geom_bond_atom_site_label_2
_geom_bond_site_symmetry_1
_geom_bond_site_symmetry_2
Mn1 Cl1 1_555 1_555
Cl2 C29 1_555 1_555
Cl4 C29 1_555 1_555
Cl6 C29 1_555 1_555
N1 Mn1 1_555 1_555
N2 C1 1_555 1_555
N3 Mn1 1_555 1_555
N4 C15 1_555 1_555
C1 N1 1_555 1_555
H1 C1 1_555 1_555
C2 N1 1_555 1_555
C3 C2 1_555 1_555
H2 C3 1_555 1_555
C4 C3 1_555 1_555
H3 C4 1_555 1_555
C5 C4 1_555 1_555
H4 C5 1_555 1_555
C6 C5 1_555 1_555
H5 C6 1_555 1_555
C7 N2 1_555 1_555
C8 N2 1_555 1_555
C9 C8 1_555 1_555
C10 C9 1_555 1_555
H6 C10 1_555 1_555
C11 C10 1_555 1_555
H7 C11 1_555 1_555
C12 C11 1_555 1_555
H8 C12 1_555 1_555
C13 C12 1_555 1_555
H9 C13 1_555 1_555
C14 C8 1_555 1_555
C15 N3 1_555 1_555
H10 C15 1_555 1_555
C16 N3 1_555 1_555
C17 C16 1_555 1_555
H11 C17 1_555 1_555
C18 C17 1_555 1_555
H12 C18 1_555 1_555
C19 C18 1_555 1_555
H13 C19 1_555 1_555
C20 C19 1_555 1_555
H14 C20 1_555 1_555
C21 N4 1_555 1_555
C22 N4 1_555 1_555
C23 C22 1_555 1_555
C24 C23 1_555 1_555
H15 C24 1_555 1_555
C25 C24 1_555 1_555
H16 C25 1_555 1_555
C26 C25 1_555 1_555
H17 C26 1_555 1_555
C27 C26 1_555 1_555
H18 C27 1_555 1_555
C28 C22 1_555 1_555
Mn1_2 N1A 1_555 1_555
Mn1_3 N3A 1_555 1_555
Cl1A Mn1 1_555 1_555
N1A C1A 1_555 1_555
N1A_2 Mn1 1_555 1_555
N2A C1A 1_555 1_555
N3A C15A 1_555 1_555
N3A_2 Mn1 1_555 1_555
N4A C15A 1_555 1_555
C1A H1A 1_555 1_555
C2A N1A 1_555 1_555
C3A C2A 1_555 1_555
H2A C3A 1_555 1_555
C4A C3A 1_555 1_555
H3A C4A 1_555 1_555
C5A C4A 1_555 1_555
H4A C5A 1_555 1_555
C6A C5A 1_555 1_555
H5A C6A 1_555 1_555
C7A N2A 1_555 1_555
C8A N2A 1_555 1_555
C9A C14 1_555 1_555
C10A C9A 1_555 1_555
H6A C10A 1_555 1_555
C11A C10A 1_555 1_555
H7A C11A 1_555 1_555
C12A C11A 1_555 1_555
H8A C12A 1_555 1_555
C13A C14 1_555 1_555
H9A C13A 1_555 1_555
C14A C9 1_555 1_555
C15A H10A 1_555 1_555
C16A N3A 1_555 1_555
C17A C16A 1_555 1_555
H11A C17A 1_555 1_555
C18A C17A 1_555 1_555
H12A C18A 1_555 1_555
C19A C18A 1_555 1_555
H13A C19A 1_555 1_555
C20A C19A 1_555 1_555
H14A C20A 1_555 1_555
C21A N4A 1_555 1_555
C22A N4A 1_555 1_555
C23A C28 1_555 1_555
C24A C23A 1_555 1_555
H15A C24A 1_555 1_555
C25A C24A 1_555 1_555
H16A C25A 1_555 1_555
C26A C25A 1_555 1_555
H17A C26A 1_555 1_555
C27A C28 1_555 1_555
H18A C27A 1_555 1_555
C28A C23 1_555 1_555
C2 C7 1_555 1_555
C6 C7 1_555 1_555
C13 C14A 1_555 1_555
C16 C21 1_555 1_555
C20 C21 1_555 1_555
C27 C28A 1_555 1_555
C2A C7A 1_555 1_555
C6A C7A 1_555 1_555
C8A C9A 1_555 1_555
C8A C14A 1_555 1_555
C12A C13A 1_555 1_555
C16A C21A 1_555 1_555
C20A C21A 1_555 1_555
C22A C23A 1_555 1_555
C22A C28A 1_555 1_555
C26A C27A 1_555 1_555

#END
