
#######################################################################
#
#                 Cambridge Crystallographic Data Centre
#                                CCDC 
#
#######################################################################
#
# If this CIF has been generated from an entry in the Cambridge 
# Structural Database, then it will include bibliographic, chemical, 
# crystal, experimental, refinement or atomic coordinate data resulting 
# from the CCDC's data processing and validation procedures.
#
#######################################################################

data_RIDPUQ
_symmetry_cell_setting           triclinic
_symmetry_space_group_name_H-M   'P -1'
_symmetry_Int_Tables_number      2
_space_group_name_Hall           '-P 1'
loop_
_symmetry_equiv_pos_site_id
_symmetry_equiv_pos_as_xyz
1 x,y,z
2 -x,-y,-z
_cell_length_a                   13.5370(3)
_cell_length_b                   15.4019(4)
_cell_length_c                   17.2256(4)
_cell_angle_alpha                69.5800(10)
_cell_angle_beta                 73.3540(10)
_cell_angle_gamma                71.9100(10)
_cell_volume                     3134.8
loop_
_atom_site_label
_atom_site_type_symbol
_atom_site_fract_x
_atom_site_fract_y
_atom_site_fract_z
La1 La 0.514670(11) 0.626264(10) 0.320928(8)
O1 O 0.36895(15) 0.74275(14) 0.39177(11)
N1 N 0.7026(2) 0.4406(2) -0.07180(17)
C1 C 0.3544(2) 0.81317(19) 0.32758(16)
La2 La 0.534700(11) 0.870064(9) 0.113538(8)
O2 O 0.41362(15) 0.81468(13) 0.25586(11)
N2 N 0.8419(3) 0.6364(3) 0.50503(19)
C2 C 0.2627(2) 0.89530(19) 0.33730(17)
O3 O 0.0293(2) 1.1708(2) 0.2109(2)
N3 N 0.0994(2) 1.0997(2) 0.2020(2)
C3 C 0.2240(2) 0.95807(19) 0.26637(17)
H1 H 0.2557 0.9500 0.2117
O4 O 0.1397(2) 1.08279(19) 0.13408(17)
N4 N 0.4316(2) 0.94391(17) 0.47420(17)
C4 C 0.1382(2) 1.0324(2) 0.2778(2)
O5 O 0.57994(18) 0.53981(13) 0.20202(12)
N5 N 0.1451(2) 1.40190(19) 0.1619(2)
C5 C 0.0906(3) 1.0477(2) 0.3557(2)
H2 H 0.0316 1.0998 0.3612
O6 O 0.53281(15) 0.69592(12) 0.15475(11)
N6 N 0.06514(19) 1.07356(19) -0.16232(16)
C6 C 0.1310(3) 0.9851(3) 0.4258(2)
H3 H 0.1002 0.9944 0.4801
O7 O 0.75431(19) 0.37892(17) -0.02230(16)
C7 C 0.2163(2) 0.9091(2) 0.41634(18)
H4 H 0.2434 0.8660 0.4645
O8 O 0.7078(2) 0.4381(2) -0.14276(17)
C8 C 0.5580(2) 0.61373(18) 0.14433(16)
O9 O 0.62750(16) 0.73726(14) 0.27978(12)
C9 C 0.5602(2) 0.60653(18) 0.05919(15)
O10 O 0.62052(16) 0.89151(14) 0.21827(12)
C10 C 0.6276(2) 0.52861(19) 0.03373(16)
H5 H 0.6717 0.4805 0.0695
O11 O 0.8159(4) 0.5654(3) 0.5083(3)
C11 C 0.6294(2) 0.52233(19) -0.04462(17)
O12 O 0.8952(2) 0.6359(2) 0.55216(16)
C12 C 0.5645(2) 0.5893(2) -0.09778(17)
H6 H 0.5665 0.5828 -0.1511
O13 O 0.54825(15) 0.60560(13) 0.46139(11)
C13 C 0.4966(2) 0.6660(2) -0.07106(17)
H7 H 0.4507 0.7126 -0.1062
O14 O 0.54895(17) 0.51593(13) 0.59340(12)
C14 C 0.4950(2) 0.67545(19) 0.00670(16)
H8 H 0.4492 0.7291 0.0240
O15 O 0.4540(2) 0.94768(15) 0.39917(14)
C15 C 0.6484(2) 0.8147(2) 0.27203(16)
O16 O 0.38469(19) 1.01289(15) 0.50147(16)
C16 C 0.7126(2) 0.8124(2) 0.33159(16)
O17 O 0.42862(15) 1.02158(13) 0.13960(11)
C17 C 0.7474(2) 0.7270(2) 0.38934(17)
H9 H 0.7312 0.6701 0.3921
O18 O 0.41324(16) 1.15315(13) 0.02980(11)
C18 C 0.8066(2) 0.7267(2) 0.44301(18)
O19 O 0.0977(2) 1.4487(2) 0.2116(2)
C19 C 0.8326(2) 0.8073(3) 0.4407(2)
H10 H 0.8741 0.8045 0.4780
O20 O 0.1395(2) 1.43009(17) 0.08743(18)
C20 C 0.7973(3) 0.8918(3) 0.3833(2)
H11 H 0.8138 0.9484 0.3809
O21 O 0.36228(15) 0.87291(14) 0.08331(12)
C21 C 0.7374(2) 0.8943(2) 0.32871(19)
H12 H 0.7133 0.9529 0.2890
O22 O 0.37183(15) 1.00787(14) -0.01926(12)
C22 C 0.5392(2) 0.59447(18) 0.53787(15)
O23 O 0.07851(18) 1.15286(16) -0.17622(15)
C23 C 0.5148(2) 0.68248(18) 0.56604(15)
O24 O 0.0165(2) 1.05434(19) -0.20172(16)
C24 C 0.4901(2) 0.77108(18) 0.50843(16)
H13 H 0.4921 0.7764 0.4514
O25 O 0.69022(17) 0.50826(16) 0.34228(12)
C25 C 0.4627(2) 0.85131(19) 0.53533(17)
O26 O 0.34564(18) 0.63552(16) 0.28579(14)
C26 C 0.4617(3) 0.8478(2) 0.61675(19)
H14 H 0.4429 0.9043 0.6336
O27 O 0.72520(16) 0.77595(17) 0.09727(13)
C27 C 0.4892(3) 0.7588(2) 0.67293(18)
H15 H 0.4911 0.7541 0.7290
C28 C 0.5141(2) 0.6766(2) 0.64876(16)
H16 H 0.5306 0.6160 0.6886
C29 C 0.3978(2) 1.10927(18) 0.10682(16)
C30 C 0.3349(2) 1.16754(18) 0.16697(15)
C31 C 0.2714(2) 1.25693(18) 0.13680(17)
H17 H 0.2678 1.2823 0.0786
C32 C 0.2134(2) 1.3080(2) 0.19371(19)
C33 C 0.2183(2) 1.2750(2) 0.2785(2)
H18 H 0.1786 1.3125 0.3157
C34 C 0.2823(3) 1.1864(2) 0.30760(19)
H19 H 0.2871 1.1622 0.3656
C35 C 0.3397(2) 1.1325(2) 0.25221(17)
H20 H 0.3827 1.0711 0.2728
C36 C 0.3308(2) 0.93854(18) 0.02140(16)
C37 C 0.2376(2) 0.93222(18) -0.00603(16)
C38 C 0.1940(2) 1.00628(19) -0.06930(16)
H21 H 0.2203 1.0624 -0.0946
C39 C 0.1110(2) 0.9961(2) -0.09446(17)
C40 C 0.0692(2) 0.9167(2) -0.05907(19)
H22 H 0.0120 0.9121 -0.0779
C41 C 0.1130(2) 0.8434(2) 0.00492(19)
H23 H 0.0853 0.7881 0.0310
C42 C 0.1973(2) 0.85120(19) 0.03063(17)
H24 H 0.2277 0.8006 0.0738
N8 N 0.1739(2) 0.64707(18) 0.29410(15)
C43 C 0.7170(2) 0.4512(2) 0.40848(17)
H25 H 0.6623 0.4357 0.4560
N9 N 0.8799(2) 0.67653(19) 0.06048(17)
C44 C 0.9028(4) 0.4345(6) 0.3494(3)
H26 H 0.9697 0.3980 0.3677
H27 H 0.8991 0.5028 0.3342
H28 H 0.8992 0.4185 0.3001
C45 C 0.8422(3) 0.3449(3) 0.4959(2)
H29 H 0.9196 0.3232 0.4887
H30 H 0.8113 0.2900 0.5112
H31 H 0.8145 0.3767 0.5407
N10 N 0.8146(2) 0.4112(2) 0.41752(16)
C46 C 0.2695(2) 0.5997(2) 0.30219(18)
H35 H 0.2821 0.5322 0.3223
C47 C 0.1475(4) 0.7499(3) 0.2669(3)
H36 H 0.0722 0.7733 0.2642
H37 H 0.1904 0.7724 0.2108
H38 H 0.1622 0.7739 0.3072
C48 C 0.0889(3) 0.6018(3) 0.3102(3)
H42 H 0.0237 0.6506 0.2999
H43 H 0.0782 0.5624 0.3691
H44 H 0.1070 0.5617 0.2725
C49 C 0.8089(2) 0.7579(2) 0.04878(18)
H48 H 0.8240 0.8068 -0.0017
C50 C 0.8592(4) 0.5969(4) 0.1318(4)
H49 H 0.9207 0.5426 0.1307
H50 H 0.7967 0.5794 0.1294
H51 H 0.8462 0.6141 0.1841
C51 C 0.9781(3) 0.6590(3) 0.0004(2)
H52 H 1.0192 0.5940 0.0215
H53 H 1.0194 0.7046 -0.0071
H54 H 0.9623 0.6666 -0.0540
La1A La 0.485330(11) 0.373736(10) 0.679072(8)
La2A La 0.465300(11) 1.129936(9) -0.113538(8)
O14A O 0.45105(17) 0.48407(13) 0.40660(12)
O18A O 0.58676(16) 0.84685(13) -0.02980(11)
O22A O 0.62817(15) 0.99213(14) 0.01926(12)
N7 N 0.2207(2) 0.7623(2) 0.73795(18)
O28 O 0.1819(3) 0.8837(2) 0.6194(2)
C53 C 0.2144(5) 0.7918(5) 0.6549(4)
H59 H 0.2330 0.7473 0.6233
C55 C 0.2551(9) 0.6634(5) 0.7774(6)
H63 H 0.3088 0.6536 0.8095
H64 H 0.2857 0.6295 0.7341
H65 H 0.1945 0.6389 0.8158
C57 C 0.2070(7) 0.8278(7) 0.7823(5)
H69 H 0.1317 0.8471 0.8069
H70 H 0.2321 0.8840 0.7435
H71 H 0.2477 0.7979 0.8275
O29 O 0.6006(3) 1.0975(3) 0.1927(3)
H32? H 0.7773 0.3367 0.5384
H33? H 0.8856 0.3699 0.5158
H34? H 0.8824 0.2833 0.4864
H39? H 0.2110 0.7731 0.2573
H40? H 0.0927 0.7740 0.3107
H41? H 0.1210 0.7725 0.2143
H45? H 0.1156 0.5325 0.3277
H46? H 0.0611 0.6207 0.2586
H47? H 0.0322 0.6215 0.3552
H55? H 0.9814 0.7161 -0.0479
H56? H 0.9812 0.6055 -0.0193
H57? H 1.0383 0.6435 0.0276
C52? C 0.2014(6) 0.8559(6) 0.6951(5)
H58? H 0.2020 0.9016 0.7204
C54? C 0.2438(8) 0.7324(7) 0.8222(5)
H60? H 0.1962 0.6923 0.8618
H61? H 0.2330 0.7887 0.8406
H62? H 0.3175 0.6960 0.8210
C56? C 0.2069(13) 0.6978(8) 0.7060(10)
H66? H 0.1731 0.7319 0.6570
H67? H 0.1616 0.6581 0.7495
H68? H 0.2759 0.6573 0.6887
loop_
_geom_bond_atom_site_label_1
_geom_bond_atom_site_label_2
_geom_bond_site_symmetry_1
_geom_bond_site_symmetry_2
La1 O1 1_555 1_555
O1 C1 1_555 1_555
N1 O7 1_555 1_555
C1 O2 1_555 1_555
La2 O2 1_555 1_555
O2 La1 1_555 1_555
N2 O11 1_555 1_555
C2 C1 1_555 1_555
O3 N3 1_555 1_555
N3 O4 1_555 1_555
C3 C2 1_555 1_555
H1 C3 1_555 1_555
N4 O15 1_555 1_555
C4 N3 1_555 1_555
O5 La1 1_555 1_555
N5 O19 1_555 1_555
C5 C4 1_555 1_555
H2 C5 1_555 1_555
O6 La1 1_555 1_555
N6 O23 1_555 1_555
C6 C5 1_555 1_555
H3 C6 1_555 1_555
N7 C53 1_555 1_555
C7 C2 1_555 1_555
H4 C7 1_555 1_555
O8 N1 1_555 1_555
C8 O5 1_555 1_555
O9 La1 1_555 1_555
C9 C8 1_555 1_555
O10 La2 1_555 1_555
C10 C9 1_555 1_555
H5 C10 1_555 1_555
C11 N1 1_555 1_555
O12 N2 1_555 1_555
C12 C11 1_555 1_555
H6 C12 1_555 1_555
O13 La1 1_555 1_555
C13 C12 1_555 1_555
H7 C13 1_555 1_555
O14 C22 1_555 1_555
C14 C9 1_555 1_555
H8 C14 1_555 1_555
C15 O9 1_555 1_555
O16 N4 1_555 1_555
C16 C15 1_555 1_555
O17 La2 1_555 1_555
C17 C16 1_555 1_555
H9 C17 1_555 1_555
O18 C29 1_555 1_555
C18 N2 1_555 1_555
C19 C18 1_555 1_555
H10 C19 1_555 1_555
O20 N5 1_555 1_555
C20 C19 1_555 1_555
H11 C20 1_555 1_555
O21 La2 1_555 1_555
C21 C16 1_555 1_555
H12 C21 1_555 1_555
O22 C36 1_555 1_555
C22 O13 1_555 1_555
C23 C22 1_555 1_555
O24 N6 1_555 1_555
C24 C23 1_555 1_555
H13 C24 1_555 1_555
O25 La1 1_555 1_555
C25 N4 1_555 1_555
O26 La1 1_555 1_555
C26 C25 1_555 1_555
H14 C26 1_555 1_555
O27 La2 1_555 1_555
C27 C26 1_555 1_555
H15 C27 1_555 1_555
O28 C53 1_555 1_555
C28 C23 1_555 1_555
H16 C28 1_555 1_555
C29 O17 1_555 1_555
C30 C29 1_555 1_555
C31 C30 1_555 1_555
H17 C31 1_555 1_555
C32 N5 1_555 1_555
C33 C32 1_555 1_555
H18 C33 1_555 1_555
C34 C33 1_555 1_555
H19 C34 1_555 1_555
C35 C30 1_555 1_555
H20 C35 1_555 1_555
C36 O21 1_555 1_555
C37 C36 1_555 1_555
C38 C37 1_555 1_555
H21 C38 1_555 1_555
C39 N6 1_555 1_555
C40 C39 1_555 1_555
H22 C40 1_555 1_555
C41 C40 1_555 1_555
H23 C41 1_555 1_555
C42 C37 1_555 1_555
H24 C42 1_555 1_555
N8 C46 1_555 1_555
C43 O25 1_555 1_555
H25 C43 1_555 1_555
N9 C49 1_555 1_555
C44 H26 1_555 1_555
H27 C44 1_555 1_555
H28 C44 1_555 1_555
C45 H29 1_555 1_555
H30 C45 1_555 1_555
H31 C45 1_555 1_555
N10 C43 1_555 1_555
C46 O26 1_555 1_555
H35 C46 1_555 1_555
C47 N8 1_555 1_555
H36 C47 1_555 1_555
H37 C47 1_555 1_555
H38 C47 1_555 1_555
C48 N8 1_555 1_555
H42 C48 1_555 1_555
H43 C48 1_555 1_555
H44 C48 1_555 1_555
C49 O27 1_555 1_555
H48 C49 1_555 1_555
C50 N9 1_555 1_555
H49 C50 1_555 1_555
H50 C50 1_555 1_555
H51 C50 1_555 1_555
C51 N9 1_555 1_555
H52 C51 1_555 1_555
H53 C51 1_555 1_555
H54 C51 1_555 1_555
C53 H59 1_555 1_555
C55 N7 1_555 1_555
H63 C55 1_555 1_555
H64 C55 1_555 1_555
H65 C55 1_555 1_555
C57 N7 1_555 1_555
H69 C57 1_555 1_555
H70 C57 1_555 1_555
H71 C57 1_555 1_555
La1A O14 1_555 1_555
La2A O18 1_555 1_555
O14A La1 1_555 1_555
O18A La2 1_555 1_555
O22A La2 1_555 1_555
La2 O6 1_555 1_555
C3 C4 1_555 1_555
O6 C8 1_555 1_555
C6 C7 1_555 1_555
O10 C15 1_555 1_555
C10 C11 1_555 1_555
C13 C14 1_555 1_555
C17 C18 1_555 1_555
C20 C21 1_555 1_555
O22 La2A 1_555 1_555
C24 C25 1_555 1_555
C27 C28 1_555 1_555
C31 C32 1_555 1_555
C34 C35 1_555 1_555
C38 C39 1_555 1_555
C41 C42 1_555 1_555
C44 N10 1_555 1_555
C45 N10 1_555 1_555

#END
