
#######################################################################
#
#                 Cambridge Crystallographic Data Centre
#                                CCDC 
#
#######################################################################
#
# If this CIF has been generated from an entry in the Cambridge 
# Structural Database, then it will include bibliographic, chemical, 
# crystal, experimental, refinement or atomic coordinate data resulting 
# from the CCDC's data processing and validation procedures.
#
#######################################################################

data_RIDQOL
_symmetry_cell_setting           triclinic
_symmetry_space_group_name_H-M   'P -1'
_symmetry_Int_Tables_number      2
_space_group_name_Hall           '-P 1'
loop_
_symmetry_equiv_pos_site_id
_symmetry_equiv_pos_as_xyz
1 x,y,z
2 -x,-y,-z
_cell_length_a                   9.6330(3)
_cell_length_b                   10.0380(3)
_cell_length_c                   32.5121(8)
_cell_angle_alpha                86.1710(10)
_cell_angle_beta                 89.5090(10)
_cell_angle_gamma                75.7160(10)
_cell_volume                     3039.7
loop_
_atom_site_label
_atom_site_type_symbol
_atom_site_fract_x
_atom_site_fract_y
_atom_site_fract_z
La1 La 0.84653(3) 1.04577(3) 0.242865(9)
O1 O 0.6631(3) 1.2035(3) 0.19775(10)
C1 C 0.5635(5) 1.1862(5) 0.17547(15)
S1 S 0.8773(4) 1.3983(4) 0.20745(12)
H1 H 1.119(2) 0.811(4) 0.2288(12)
La2 La 0.42393(3) 0.95752(3) 0.240496(9)
S3 S 0.47752(16) 0.58778(15) 0.22684(4)
O2 O 0.4623(3) 1.1372(4) 0.18758(10)
C2 C 0.5675(5) 1.2292(5) 0.13034(15)
H2 H 1.065(4) 0.767(4) 0.2597(7)
O3 O 0.5990(4) 1.3249(4) 0.00478(10)
C3 C 0.6925(5) 1.2506(5) 0.11247(15)
H3 H 0.7744 1.2430 0.1294
H4 H 0.154(2) 1.172(5) 0.2529(15)
O4 O 0.7181(3) 1.1799(4) 0.30134(10)
C4 C 0.7000(6) 1.2824(5) 0.07082(16)
H5 H 0.7863 1.2967 0.0591
H6 H 0.245(5) 1.238(4) 0.2676(10)
O5 O 0.5405(4) 1.0878(3) 0.28467(10)
C5 C 0.5805(6) 1.2936(5) 0.04588(16)
O6 O 0.4320(4) 1.1491(4) 0.47667(11)
C6 C 0.4527(6) 1.2758(5) 0.06315(16)
H7 H 0.3696 1.2866 0.0465
O7 O 0.8107(3) 0.8650(3) 0.29752(10)
C7 C 0.4492(6) 1.2420(5) 0.10545(16)
H8 H 0.3633 1.2274 0.1173
O8 O 0.6169(4) 0.7957(3) 0.27964(10)
C8 C 0.4788(6) 1.3367(6) -0.02187(17)
H9 H 0.5048 1.3591 -0.0502
H10 H 0.3987 1.4099 -0.0132
H11 H 0.4506 1.2492 -0.0205
O9 O 0.6990(4) 0.5065(4) 0.45867(11)
C9 C 0.6074(5) 1.1394(5) 0.31021(15)
O10 O 0.7284(4) 0.9101(4) 0.20089(10)
C10 C 0.5568(5) 1.1469(5) 0.35378(15)
O11 O 0.5533(3) 0.8187(4) 0.18324(11)
C11 C 0.6120(5) 1.2229(5) 0.38074(16)
H12 H 0.6778 1.2736 0.3706
O12 O 1.0028(4) 0.5637(4) 0.04982(12)
C12 C 0.5742(5) 1.2271(5) 0.42194(16)
H13 H 0.6132 1.2801 0.4398
O13 O 1.2712(3) 0.9250(3) 0.30167(10)
C13 C 0.4785(5) 1.1525(5) 0.43671(15)
O14 O 1.0470(3) 1.0441(3) 0.29047(10)
C14 C 0.4215(5) 1.0752(5) 0.41015(15)
H14 H 0.3554 1.0248 0.4203
O15 O 1.0151(4) 0.8286(4) 0.47799(10)
C15 C 0.4611(5) 1.0722(5) 0.36920(16)
H15 H 0.4229 1.0187 0.3514
O16 O 1.2183(3) 0.9564(4) 0.19514(10)
C16 C 0.5082(6) 1.2031(6) 0.50618(17)
H16 H 0.4657 1.1949 0.5334
H17 H 0.5025 1.3003 0.4984
H18 H 0.6087 1.1511 0.5070
O17 O 0.9944(4) 1.0595(4) 0.17826(11)
C17 C 0.7164(5) 0.8003(5) 0.30426(15)
C18 C 0.7171(5) 0.7210(5) 0.34531(15)
O18 O 1.3203(6) 1.0063(5) 0.00451(15)
O20 O 1.0322(4) 0.8145(4) 0.23702(11)
C19 C 0.8253(5) 0.7118(5) 0.37407(15)
H19 H 0.9015 0.7540 0.3675
O21 O 0.2380(4) 1.1848(4) 0.24797(11)
C20 C 0.8239(6) 0.6414(5) 0.41264(16)
H20 H 0.8981 0.6361 0.4322
C21 C 0.7128(6) 0.5796(5) 0.42187(15)
O22 O 0.9152(12) 1.2698(10) 0.2374(4)
O24 O 0.3768(4) 0.7107(4) 0.24548(11)
C22 C 0.6034(6) 0.5880(5) 0.39308(16)
H21 H 0.5274 0.5454 0.3995
C23 C 0.6063(5) 0.6583(5) 0.35544(16)
H22 H 0.5315 0.6643 0.3360
C24 C 0.8058(7) 0.5013(7) 0.48955(18)
H23 H 0.7861 0.4474 0.5142
H24 H 0.8038 0.5951 0.4967
H25 H 0.9005 0.4579 0.4789
C25 C 0.6770(5) 0.8364(5) 0.17852(15)
C26 C 0.7684(5) 0.7645(5) 0.14526(14)
C27 C 0.8970(5) 0.7926(5) 0.13482(15)
H26 H 0.9295 0.8582 0.1494
C28 C 0.9820(5) 0.7272(5) 0.10318(16)
H27 H 1.0712 0.7473 0.0965
C29 C 0.9327(6) 0.6328(6) 0.08200(16)
C30 C 0.8032(6) 0.6015(6) 0.09258(16)
H28 H 0.7713 0.5346 0.0785
C31 C 0.7223(5) 0.6679(5) 0.12344(15)
H29 H 0.6331 0.6478 0.1301
C32 C 1.1308(6) 0.5967(7) 0.0357(2)
H30 H 1.1698 0.5400 0.0129
H31 H 1.2010 0.5787 0.0583
H32 H 1.1100 0.6944 0.0261
C33 C 1.1449(5) 0.9705(5) 0.31325(15)
C34 C 1.1107(5) 0.9375(5) 0.35684(14)
C35 C 1.2080(5) 0.8414(5) 0.38231(15)
H33 H 1.2995 0.7982 0.3720
C36 C 1.1723(5) 0.8085(5) 0.42256(15)
H34 H 1.2388 0.7420 0.4394
C37 C 1.0408(5) 0.8719(5) 0.43814(14)
C38 C 0.9440(5) 0.9693(5) 0.41380(15)
H35 H 0.8544 1.0148 0.4248
C39 C 0.9779(5) 1.0006(5) 0.37337(15)
H36 H 0.9099 1.0659 0.3566
C40 C 0.8769(6) 0.8876(6) 0.49448(16)
H37 H 0.8712 0.8492 0.5228
H38 H 0.8027 0.8662 0.4775
H39 H 0.8622 0.9878 0.4945
C41 C 1.1223(5) 1.0137(5) 0.16948(15)
C42 C 1.1725(8) 1.0068(9) 0.1255(2)
C44 C 1.3146(10) 0.9533(9) 0.1153(3)
H40 H 1.3826 0.9163 0.1367
C46 C 1.3596(10) 0.9526(9) 0.0749(2)
H42 H 1.4569 0.9133 0.0685
C48 C 1.2617(10) 1.0095(10) 0.0438(3)
C50 C 1.1206(9) 1.0600(8) 0.0526(2)
H44 H 1.0528 1.0952 0.0311
C52 C 1.0770(7) 1.0597(7) 0.0934(2)
H46 H 0.9789 1.0967 0.0995
C54 C 1.2418(15) 1.0586(12) -0.0276(3)
H48 H 1.3013 1.0479 -0.0523
H49 H 1.1994 1.1567 -0.0245
H50 H 1.1654 1.0107 -0.0301
C56 C 0.9046(10) 1.5343(8) 0.2367(3)
H54 H 0.8234 1.5631 0.2552
H55 H 0.9125 1.6126 0.2179
H56 H 0.9930 1.5017 0.2530
C58 C 1.0277(8) 1.3827(9) 0.1736(2)
H60 H 1.1166 1.3575 0.1899
H61 H 1.0212 1.4708 0.1579
H62 H 1.0274 1.3112 0.1545
C60 C 0.4585(9) 0.4410(6) 0.2577(2)
H66 H 0.5032 0.4398 0.2847
H67 H 0.5052 0.3574 0.2441
H68 H 0.3565 0.4447 0.2612
C61 C 0.3894(8) 0.5645(7) 0.1813(2)
H69 H 0.3912 0.6400 0.1608
H70 H 0.2898 0.5641 0.1876
H71 H 0.4383 0.4766 0.1704
La2_2 La 1.42393(3) 0.95752(3) 0.240496(9)
O13_2 O 0.2712(3) 0.9250(3) 0.30167(10)
O16_2 O 0.2183(3) 0.9564(4) 0.19514(10)
S4 S 0.13929(15) 1.30164(15) 0.34715(5)
O26 O 0.1953(4) 1.3690(4) 0.30949(13)
C62 C 0.1714(7) 1.4015(7) 0.38847(19)
H72 H 0.2745 1.3816 0.3941
H73 H 0.1221 1.3775 0.4133
H74 H 0.1351 1.4998 0.3805
C63 C -0.0493(6) 1.3577(6) 0.34430(18)
H75 H -0.0850 1.3115 0.3226
H76 H -0.0773 1.4576 0.3380
H77 H -0.0902 1.3352 0.3708
O25 O 1.1681(4) 0.6495(4) 0.30538(14)
S2? S 0.8653(16) 1.4275(14) 0.2137(4)
O19? O 0.2025(18) 1.1400(16) -0.0003(5)
O23? O 0.896(4) 1.299(4) 0.2400(14)
C43? C 0.149(3) 1.063(3) 0.1252(8)
C45? C 0.255(3) 0.959(3) 0.1045(9)
H41? H 0.3098 0.8798 0.1195
C47? C 0.274(4) 0.980(3) 0.0613(10)
H43? H 0.3383 0.9128 0.0463
C49? C 0.192(3) 1.104(3) 0.0416(7)
C51? C 0.094(2) 1.205(2) 0.0629(7)
H45? H 0.0435 1.2884 0.0487
C53? C 0.073(2) 1.181(2) 0.1039(6)
H47? H 0.0048 1.2469 0.1180
C55? C 0.214(6) 1.021(5) -0.0300(17)
H51? H 0.2234 1.0561 -0.0585
H52? H 0.1280 0.9856 -0.0276
H53? H 0.2987 0.9462 -0.0225
C57? C 0.846(3) 1.556(4) 0.2478(11)
H57? H 0.7444 1.5899 0.2542
H58? H 0.8830 1.6313 0.2353
H59? H 0.8997 1.5181 0.2732
C59? C 1.040(3) 1.432(3) 0.1925(9)
H63? H 1.1009 1.4503 0.2142
H64? H 1.0278 1.5042 0.1702
H65? H 1.0843 1.3424 0.1816
loop_
_geom_bond_atom_site_label_1
_geom_bond_atom_site_label_2
_geom_bond_site_symmetry_1
_geom_bond_site_symmetry_2
La1 O1 1_555 1_555
O1 C1 1_555 1_555
C1 O2 1_555 1_555
S1 O22 1_555 1_555
H1 O20 1_555 1_555
La2 O2 1_555 1_555
S3 O24 1_555 1_555
C2 C1 1_555 1_555
H2 O20 1_555 1_555
S4 O26 1_555 1_555
O3 C5 1_555 1_555
C3 C2 1_555 1_555
H3 C3 1_555 1_555
H4 O21 1_555 1_555
O4 La1 1_555 1_555
C4 C3 1_555 1_555
H5 C4 1_555 1_555
H6 O21 1_555 1_555
O5 La2 1_555 1_555
C5 C4 1_555 1_555
O6 C13 1_555 1_555
C6 C5 1_555 1_555
H7 C6 1_555 1_555
O7 La1 1_555 1_555
C7 C2 1_555 1_555
H8 C7 1_555 1_555
O8 La2 1_555 1_555
C8 O3 1_555 1_555
H9 C8 1_555 1_555
H10 C8 1_555 1_555
H11 C8 1_555 1_555
O9 C21 1_555 1_555
C9 O4 1_555 1_555
O10 La1 1_555 1_555
C10 C9 1_555 1_555
O11 La2 1_555 1_555
C11 C10 1_555 1_555
H12 C11 1_555 1_555
O12 C29 1_555 1_555
C12 C11 1_555 1_555
H13 C12 1_555 1_555
O13 C33 1_555 1_555
C13 C12 1_555 1_555
O14 La1 1_555 1_555
C14 C13 1_555 1_555
H14 C14 1_555 1_555
O15 C37 1_555 1_555
C15 C10 1_555 1_555
H15 C15 1_555 1_555
O16 C41 1_555 1_555
C16 O6 1_555 1_555
H16 C16 1_555 1_555
H17 C16 1_555 1_555
H18 C16 1_555 1_555
O17 La1 1_555 1_555
C17 O7 1_555 1_555
C18 C17 1_555 1_555
O18 C48 1_555 1_555
O20 La1 1_555 1_555
C19 C18 1_555 1_555
H19 C19 1_555 1_555
O21 La2 1_555 1_555
C20 C19 1_555 1_555
H20 C20 1_555 1_555
C21 C20 1_555 1_555
O22 La1 1_555 1_555
O24 La2 1_555 1_555
C22 C21 1_555 1_555
H21 C22 1_555 1_555
C23 C18 1_555 1_555
H22 C23 1_555 1_555
C24 O9 1_555 1_555
H23 C24 1_555 1_555
H24 C24 1_555 1_555
H25 C24 1_555 1_555
C25 O10 1_555 1_555
C26 C25 1_555 1_555
C27 C26 1_555 1_555
H26 C27 1_555 1_555
C28 C27 1_555 1_555
H27 C28 1_555 1_555
C29 C28 1_555 1_555
C30 C29 1_555 1_555
H28 C30 1_555 1_555
C31 C26 1_555 1_555
H29 C31 1_555 1_555
C32 O12 1_555 1_555
H30 C32 1_555 1_555
H31 C32 1_555 1_555
H32 C32 1_555 1_555
C33 O14 1_555 1_555
C34 C33 1_555 1_555
C35 C34 1_555 1_555
H33 C35 1_555 1_555
C36 C35 1_555 1_555
H34 C36 1_555 1_555
C37 C36 1_555 1_555
C38 C37 1_555 1_555
H35 C38 1_555 1_555
C39 C34 1_555 1_555
H36 C39 1_555 1_555
C40 O15 1_555 1_555
H37 C40 1_555 1_555
H38 C40 1_555 1_555
H39 C40 1_555 1_555
C41 O17 1_555 1_555
C42 C41 1_555 1_555
C44 C42 1_555 1_555
H40 C44 1_555 1_555
C46 C44 1_555 1_555
H42 C46 1_555 1_555
C48 C46 1_555 1_555
C50 C48 1_555 1_555
H44 C50 1_555 1_555
C52 C42 1_555 1_555
H46 C52 1_555 1_555
C54 O18 1_555 1_555
H48 C54 1_555 1_555
H49 C54 1_555 1_555
H50 C54 1_555 1_555
C56 S1 1_555 1_555
H54 C56 1_555 1_555
H55 C56 1_555 1_555
H56 C56 1_555 1_555
C58 S1 1_555 1_555
H60 C58 1_555 1_555
H61 C58 1_555 1_555
H62 C58 1_555 1_555
C60 S3 1_555 1_555
H66 C60 1_555 1_555
H67 C60 1_555 1_555
H68 C60 1_555 1_555
C61 S3 1_555 1_555
H69 C61 1_555 1_555
H70 C61 1_555 1_555
H71 C61 1_555 1_555
C62 S4 1_555 1_555
H72 C62 1_555 1_555
H73 C62 1_555 1_555
H74 C62 1_555 1_555
C63 S4 1_555 1_555
H75 C63 1_555 1_555
H76 C63 1_555 1_555
H77 C63 1_555 1_555
La2_2 O13 1_555 1_555
O13_2 La2 1_555 1_555
O16_2 La2 1_555 1_555
O5 C9 1_555 1_555
C6 C7 1_555 1_555
O8 C17 1_555 1_555
O11 C25 1_555 1_555
C14 C15 1_555 1_555
O16 La2_2 1_555 1_555
C22 C23 1_555 1_555
C30 C31 1_555 1_555
C38 C39 1_555 1_555
C50 C52 1_555 1_555

#END
