
#######################################################################
#
#                 Cambridge Crystallographic Data Centre
#                                CCDC 
#
#######################################################################
#
# If this CIF has been generated from an entry in the Cambridge 
# Structural Database, then it will include bibliographic, chemical, 
# crystal, experimental, refinement or atomic coordinate data resulting 
# from the CCDC's data processing and validation procedures.
#
#######################################################################

data_RIDQUR
_symmetry_cell_setting           monoclinic
_symmetry_space_group_name_H-M   'P 21/c'
_symmetry_Int_Tables_number      14
_space_group_name_Hall           '-P 2ybc'
loop_
_symmetry_equiv_pos_site_id
_symmetry_equiv_pos_as_xyz
1 x,y,z
2 -x,1/2+y,1/2-z
3 -x,-y,-z
4 x,1/2-y,1/2+z
_cell_length_a                   11.5323(2)
_cell_length_b                   33.7471(6)
_cell_length_c                   9.5791(3)
_cell_angle_alpha                90
_cell_angle_beta                 104.326(1)
_cell_angle_gamma                90
_cell_volume                     3612.08
loop_
_atom_site_label
_atom_site_type_symbol
_atom_site_fract_x
_atom_site_fract_y
_atom_site_fract_z
La1 La 0.044164(14) 0.000066(6) 0.797661(17)
O1 O 0.21246(19) -0.04559(7) 0.9276(2)
N1 N 0.3684(2) 0.06546(9) 0.6699(3)
C1 C 0.1865(3) -0.04940(11) 1.0478(3)
H1 H -0.172(4) -0.0041(11) 0.5131(10)
O2 O 0.11939(18) -0.02455(7) 1.0907(2)
C2 C 0.2342(3) -0.08447(11) 1.1380(3)
H2 H -0.2179(16) -0.0212(10) 0.613(4)
O3 O 0.3498(2) -0.18753(8) 1.3686(2)
C3 C 0.2857(3) -0.11596(11) 1.0808(3)
H3 H 0.2939 -0.1142 0.9847
O4 O 0.12636(19) 0.05890(7) 0.9467(2)
C4 C 0.3246(3) -0.14933(12) 1.1590(4)
H4 H 0.3593 -0.1704 1.1172
O5 O 0.05897(19) 0.06100(7) 1.1476(2)
C5 C 0.3135(3) -0.15245(11) 1.2999(4)
O6 O 0.3135(2) 0.22751(8) 1.2056(3)
C6 C 0.2672(3) -0.12097(11) 1.3617(4)
H5 H 0.2627 -0.1223 1.4593
O7 O 0.09342(19) -0.04146(7) 0.6050(2)
C7 C 0.2273(3) -0.08740(11) 1.2799(4)
H6 H 0.1946 -0.0660 1.3222
O8 O -0.00887(19) -0.05525(7) 0.3801(2)
C8 C 0.3248(4) -0.19384(14) 1.5062(4)
H7 H 0.2396 -0.1880 1.5005
H8 H 0.3747 -0.1760 1.5790
O9 O 0.0528(2) -0.22855(8) 0.6444(2)
C9 C 0.3521(4) -0.23635(15) 1.5487(5)
H9 H 0.3061 -0.2538 1.4731
H10 H 0.3302 -0.2417 1.6394
H11 H 0.4378 -0.2413 1.5612
O10 O -0.1511(2) -0.00986(8) 0.6055(2)
C10 C 0.1151(3) 0.07522(11) 1.0614(4)
O11 O 0.24827(19) 0.02095(8) 0.7431(2)
C11 C 0.1745(3) 0.11466(10) 1.0997(3)
C12 C 0.1725(3) 0.13305(11) 1.2292(3)
H12 H 0.1372 0.1199 1.2961
C13 C 0.2211(3) 0.17012(11) 1.2610(4)
H13 H 0.2190 0.1823 1.3497
C14 C 0.2732(3) 0.18982(12) 1.1659(4)
C15 C 0.2814(3) 0.17127(12) 1.0390(4)
H14 H 0.3206 0.1840 0.9748
C16 C 0.2312(3) 0.13382(12) 1.0075(4)
H15 H 0.2360 0.1211 0.9206
C17 C 0.3624(3) 0.25001(12) 1.1069(4)
H16 H 0.3079 0.2491 1.0093
H17 H 0.4409 0.2390 1.1020
C18 C 0.3768(3) 0.29173(12) 1.1611(4)
H18 H 0.2980 0.3030 1.1587
H19 H 0.4156 0.3076 1.0997
H20 H 0.4263 0.2920 1.2603
C19 C 0.0409(3) -0.06526(11) 0.5071(3)
C20 C 0.0411(3) -0.10841(11) 0.5435(3)
C21 C 0.1006(3) -0.12272(11) 0.6803(3)
H21 H 0.1397 -0.1047 0.7528
C22 C 0.1026(3) -0.16255(11) 0.7100(4)
H22 H 0.1444 -0.1718 0.8024
C23 C 0.0443(3) -0.18951(11) 0.6066(4)
C24 C -0.0168(3) -0.17578(11) 0.4708(4)
H23 H -0.0586 -0.1938 0.3999
C25 C -0.0161(3) -0.13593(11) 0.4407(4)
H24 H -0.0557 -0.1269 0.3471
C26 C 0.0057(3) -0.25756(12) 0.5339(4)
H25 H 0.0404 -0.2534 0.4503
H26 H -0.0823 -0.2549 0.5007
C27 C 0.0373(4) -0.29788(13) 0.5953(4)
H27 H 0.1244 -0.3000 0.6314
H28 H 0.0092 -0.3178 0.5203
H29 H -0.0008 -0.3023 0.6748
C28 C 0.2688(3) 0.05448(11) 0.7018(3)
H30 H 0.2074 0.0738 0.6925
C29 C 0.4674(3) 0.03807(12) 0.6812(3)
H31 H 0.4475 0.0127 0.7192
H32 H 0.5394 0.0491 0.7464
H33 H 0.4820 0.0340 0.5858
C30 C 0.3816(3) 0.10507(12) 0.6156(4)
H34 H 0.3103 0.1208 0.6164
H35 H 0.3909 0.1033 0.5169
H36 H 0.4524 0.1178 0.6771
La1B La -0.044164(14) -0.000066(6) 1.202339(17)
La1B_2 La -0.044164(14) -0.000066(6) 0.202339(17)
O2B O -0.11939(18) 0.02455(7) 0.9093(2)
O5B O -0.05897(19) -0.06100(7) 0.8524(2)
O8B O 0.00887(19) 0.05525(7) 0.6199(2)
N2 N -0.4660(2) -0.05660(10) 0.8145(3)
O12 O -0.3577(2) -0.04228(9) 0.6525(3)
C31 C -0.3726(3) -0.04129(11) 0.7747(4)
H37 H -0.3127 -0.0286 0.8470
C32 C -0.5641(4) -0.07565(16) 0.7121(4)
H38 H -0.5650 -0.1040 0.7343
H39 H -0.5537 -0.0722 0.6144
H40 H -0.6400 -0.0636 0.7185
C33 C -0.4752(3) -0.05548(14) 0.9629(4)
H41 H -0.4070 -0.0409 1.0217
H42 H -0.4751 -0.0826 0.9996
H43 H -0.5498 -0.0422 0.9674
loop_
_geom_bond_atom_site_label_1
_geom_bond_atom_site_label_2
_geom_bond_site_symmetry_1
_geom_bond_site_symmetry_2
La1 O1 1_555 1_555
O1 C1 1_555 1_555
N1 C28 1_555 1_555
C1 O2 1_555 1_555
H1 O10 1_555 1_555
O2 La1 1_555 1_555
N2 C31 1_555 1_555
C2 C1 1_555 1_555
H2 O10 1_555 1_555
O3 C5 1_555 1_555
C3 C2 1_555 1_555
H3 C3 1_555 1_555
O4 La1 1_555 1_555
C4 C3 1_555 1_555
H4 C4 1_555 1_555
O5 C10 1_555 1_555
C5 C4 1_555 1_555
O6 C14 1_555 1_555
C6 C5 1_555 1_555
H5 C6 1_555 1_555
O7 La1 1_555 1_555
C7 C2 1_555 1_555
H6 C7 1_555 1_555
O8 C19 1_555 1_555
C8 O3 1_555 1_555
H7 C8 1_555 1_555
H8 C8 1_555 1_555
O9 C23 1_555 1_555
C9 C8 1_555 1_555
H9 C9 1_555 1_555
H10 C9 1_555 1_555
H11 C9 1_555 1_555
O10 La1 1_555 1_555
C10 O4 1_555 1_555
O11 La1 1_555 1_555
C11 C10 1_555 1_555
O12 C31 1_555 1_555
C12 C11 1_555 1_555
H12 C12 1_555 1_555
C13 C12 1_555 1_555
H13 C13 1_555 1_555
C14 C13 1_555 1_555
C15 C14 1_555 1_555
H14 C15 1_555 1_555
C16 C11 1_555 1_555
H15 C16 1_555 1_555
C17 O6 1_555 1_555
H16 C17 1_555 1_555
H17 C17 1_555 1_555
C18 C17 1_555 1_555
H18 C18 1_555 1_555
H19 C18 1_555 1_555
H20 C18 1_555 1_555
C19 O7 1_555 1_555
C20 C19 1_555 1_555
C21 C20 1_555 1_555
H21 C21 1_555 1_555
C22 C21 1_555 1_555
H22 C22 1_555 1_555
C23 C22 1_555 1_555
C24 C23 1_555 1_555
H23 C24 1_555 1_555
C25 C20 1_555 1_555
H24 C25 1_555 1_555
C26 O9 1_555 1_555
H25 C26 1_555 1_555
H26 C26 1_555 1_555
C27 C26 1_555 1_555
H27 C27 1_555 1_555
H28 C27 1_555 1_555
H29 C27 1_555 1_555
C28 O11 1_555 1_555
H30 C28 1_555 1_555
C29 N1 1_555 1_555
H31 C29 1_555 1_555
H32 C29 1_555 1_555
H33 C29 1_555 1_555
C30 N1 1_555 1_555
H34 C30 1_555 1_555
H35 C30 1_555 1_555
H36 C30 1_555 1_555
C31 H37 1_555 1_555
C32 N2 1_555 1_555
H38 C32 1_555 1_555
H39 C32 1_555 1_555
H40 C32 1_555 1_555
C33 N2 1_555 1_555
H41 C33 1_555 1_555
H42 C33 1_555 1_555
H43 C33 1_555 1_555
La1B O2 1_555 1_555
La1B_2 O8 1_555 1_555
O2B La1 1_555 1_555
O5B La1 1_555 1_555
O8B La1 1_555 1_555
O5 La1B 1_555 1_555
C6 C7 1_555 1_555
C15 C16 1_555 1_555
C24 C25 1_555 1_555
La1B O2B 1_555 1_555

#END
