
#######################################################################
#
#                 Cambridge Crystallographic Data Centre
#                                CCDC 
#
#######################################################################
#
# If this CIF has been generated from an entry in the Cambridge 
# Structural Database, then it will include bibliographic, chemical, 
# crystal, experimental, refinement or atomic coordinate data resulting 
# from the CCDC's data processing and validation procedures.
#
#######################################################################

data_RIDQAX
_symmetry_cell_setting           monoclinic
_symmetry_space_group_name_H-M   'P 21/c'
_symmetry_Int_Tables_number      14
_space_group_name_Hall           '-P 2ybc'
loop_
_symmetry_equiv_pos_site_id
_symmetry_equiv_pos_as_xyz
1 x,y,z
2 -x,1/2+y,1/2-z
3 -x,-y,-z
4 x,1/2-y,1/2+z
_cell_length_a                   16.4013(10)
_cell_length_b                   9.6954(5)
_cell_length_c                   20.2097(11)
_cell_angle_alpha                90
_cell_angle_beta                 108.461(2)
_cell_angle_gamma                90
_cell_volume                     3048.31
loop_
_atom_site_label
_atom_site_type_symbol
_atom_site_fract_x
_atom_site_fract_y
_atom_site_fract_z
La1 La 0.004286(18) 0.76828(3) 0.981179(16)
S1 S 0.04473(9) 0.69166(13) 0.81498(7)
O1 O 0.1127(2) 0.8814(4) 0.93477(19)
N1 N 0.4395(4) 1.2273(7) 0.9195(3)
C1 C 0.1296(3) 1.0078(5) 0.9464(3)
H1 H 0.038(4) 0.656(6) 1.133(3)
O2 O 0.0851(2) 1.0891(4) 0.96853(19)
N2 N -0.5069(3) 1.0475(5) 0.7599(3)
C2 C 0.2088(3) 1.0626(5) 0.9338(3)
H2 H -0.007(3) 0.564(5) 1.094(2)
O3 O 0.5046(3) 1.1596(7) 0.9440(3)
N3 N 0.4953(3) 0.2874(5) 1.0928(3)
C3 C 0.2797(3) 0.9778(6) 0.9453(3)
H3 H 0.2762 0.8835 0.9567
O4 O 0.4369(3) 1.3420(6) 0.8940(2)
C4 C 0.3563(3) 1.0311(6) 0.9401(3)
H4 H 0.4061 0.9751 0.9493
O5 O -0.1063(2) 0.8973(3) 0.88281(18)
C5 C 0.3577(4) 1.1664(7) 0.9213(3)
O6 O -0.1042(2) 1.1171(3) 0.91775(18)
C6 C 0.2869(4) 1.2516(6) 0.9067(3)
H5 H 0.2894 1.3437 0.8914
O7 O -0.5412(3) 0.9662(5) 0.7142(2)
C7 C 0.2120(3) 1.1998(5) 0.9150(3)
H6 H 0.1632 1.2576 0.9078
O8 O -0.5464(3) 1.1314(5) 0.7833(3)
C8 C -0.1406(3) 1.0125(5) 0.8858(3)
O9 O 0.1362(2) 0.6160(4) 1.00786(19)
C9 C -0.2365(3) 1.0254(5) 0.8499(3)
O10 O 0.0999(2) 0.4178(4) 1.04662(18)
C10 C -0.2785(3) 0.9409(5) 0.7935(3)
H7 H -0.2468 0.8766 0.7758
O11 O 0.5479(3) 0.3511(5) 1.0747(3)
C11 C -0.3673(3) 0.9517(5) 0.7632(3)
H8 H -0.3968 0.8961 0.7243
O12 O 0.5113(3) 0.1767(5) 1.1233(3)
C12 C -0.4116(3) 1.0440(6) 0.7907(3)
O13 O 0.0001(3) 0.6471(4) 1.0950(2)
C13 C -0.3719(4) 1.1313(5) 0.8447(3)
H9 H -0.4039 1.1966 0.8614
O14 O 0.0004(2) 0.6459(3) 0.86746(18)
C14 C -0.2832(3) 1.1210(5) 0.8740(3)
H10 H -0.2541 1.1806 0.9114
C15 C 0.1533(3) 0.4974(5) 1.0333(3)
C16 C 0.2442(3) 0.4463(5) 1.0489(2)
C17 C 0.3069(3) 0.5239(5) 1.0338(3)
H11 H 0.2930 0.6129 1.0136
C18 C 0.3895(3) 0.4732(5) 1.0476(3)
H12 H 0.4328 0.5265 1.0377
C19 C 0.4072(3) 0.3431(6) 1.0763(3)
C20 C 0.3469(3) 0.2623(6) 1.0918(3)
H13 H 0.3613 0.1733 1.1117
C21 C 0.2645(3) 0.3140(5) 1.0776(3)
H14 H 0.2214 0.2597 1.0874
C22 C -0.0053(4) 0.5944(6) 0.7387(3)
H15 H -0.0637 0.6292 0.7163
H16 H -0.0081 0.4972 0.7512
H17 H 0.0280 0.6028 0.7063
C23 C 0.1450(4) 0.6058(6) 0.8417(3)
H18 H 0.1820 0.6474 0.8850
H19 H 0.1723 0.6145 0.8053
H20 H 0.1361 0.5081 0.8497
La1B La -0.004286(18) 1.23172(3) 1.018821(16)
La1B_2 La -0.004286(18) 0.23172(3) 1.018821(16)
O2B O -0.0851(2) 0.9109(4) 1.03147(19)
O6B O 0.1042(2) 0.8829(3) 1.08225(18)
O10B O -0.0999(2) 0.5822(4) 0.95338(18)
S2 S 0.21252(9) 0.61239(14) 1.20413(7)
O15 O 0.1328(2) 0.6716(4) 1.21651(18)
C24 C 0.3009(3) 0.6742(6) 1.2744(3)
H21 H 0.3078 0.7735 1.2688
H22 H 0.3535 0.6261 1.2744
H23 H 0.2900 0.6571 1.3187
C25 C 0.2188(4) 0.4360(5) 1.2305(3)
H24 H 0.1732 0.3833 1.1969
H25 H 0.2117 0.4295 1.2768
H26 H 0.2749 0.3983 1.2323
loop_
_geom_bond_atom_site_label_1
_geom_bond_atom_site_label_2
_geom_bond_site_symmetry_1
_geom_bond_site_symmetry_2
La1 O1 1_555 1_555
S1 O14 1_555 1_555
O1 C1 1_555 1_555
N1 O3 1_555 1_555
C1 O2 1_555 1_555
H1 O13 1_555 1_555
S2 O15 1_555 1_555
O2 La1B 1_555 1_555
N2 O7 1_555 1_555
C2 C1 1_555 1_555
H2 O13 1_555 1_555
N3 O11 1_555 1_555
C3 C2 1_555 1_555
H3 C3 1_555 1_555
O4 N1 1_555 1_555
C4 C3 1_555 1_555
H4 C4 1_555 1_555
O5 La1 1_555 1_555
C5 N1 1_555 1_555
O6 C8 1_555 1_555
C6 C5 1_555 1_555
H5 C6 1_555 1_555
C7 C2 1_555 1_555
H6 C7 1_555 1_555
O8 N2 1_555 1_555
C8 O5 1_555 1_555
O9 La1 1_555 1_555
C9 C8 1_555 1_555
O10 C15 1_555 1_555
C10 C9 1_555 1_555
H7 C10 1_555 1_555
C11 C10 1_555 1_555
H8 C11 1_555 1_555
O12 N3 1_555 1_555
C12 N2 1_555 1_555
O13 La1 1_555 1_555
C13 C12 1_555 1_555
H9 C13 1_555 1_555
O14 La1 1_555 1_555
C14 C9 1_555 1_555
H10 C14 1_555 1_555
C15 O9 1_555 1_555
C16 C15 1_555 1_555
C17 C16 1_555 1_555
H11 C17 1_555 1_555
C18 C17 1_555 1_555
H12 C18 1_555 1_555
C19 N3 1_555 1_555
C20 C19 1_555 1_555
H13 C20 1_555 1_555
C21 C16 1_555 1_555
H14 C21 1_555 1_555
C22 S1 1_555 1_555
H15 C22 1_555 1_555
H16 C22 1_555 1_555
H17 C22 1_555 1_555
C23 S1 1_555 1_555
H18 C23 1_555 1_555
H19 C23 1_555 1_555
H20 C23 1_555 1_555
C24 S2 1_555 1_555
H21 C24 1_555 1_555
H22 C24 1_555 1_555
H23 C24 1_555 1_555
C25 S2 1_555 1_555
H24 C25 1_555 1_555
H25 C25 1_555 1_555
H26 C25 1_555 1_555
La1B O6 1_555 1_555
La1B_2 O10 1_555 1_555
O2B La1 1_555 1_555
O6B La1 1_555 1_555
O10B La1 1_555 1_555
C4 C5 1_555 1_555
C6 C7 1_555 1_555
C11 C12 1_555 1_555
C13 C14 1_555 1_555
C18 C19 1_555 1_555
C20 C21 1_555 1_555

#END
