
#######################################################################
#
#                 Cambridge Crystallographic Data Centre
#                                CCDC 
#
#######################################################################
#
# If this CIF has been generated from an entry in the Cambridge 
# Structural Database, then it will include bibliographic, chemical, 
# crystal, experimental, refinement or atomic coordinate data resulting 
# from the CCDC's data processing and validation procedures.
#
#######################################################################

data_RIDRIG
_symmetry_cell_setting           triclinic
_symmetry_space_group_name_H-M   'P -1'
_symmetry_Int_Tables_number      2
_space_group_name_Hall           '-P 1'
loop_
_symmetry_equiv_pos_site_id
_symmetry_equiv_pos_as_xyz
1 x,y,z
2 -x,-y,-z
_cell_length_a                   9.6022(2)
_cell_length_b                   9.9801(2)
_cell_length_c                   16.1375(3)
_cell_angle_alpha                106.171(1)
_cell_angle_beta                 94.743(1)
_cell_angle_gamma                101.490(1)
_cell_volume                     1439.75
loop_
_atom_site_label
_atom_site_type_symbol
_atom_site_fract_x
_atom_site_fract_y
_atom_site_fract_z
La1 La 0.78499(4) 0.51119(4) 0.51150(3)
S1 S 0.8358(2) 0.9067(2) 0.54729(18)
O1 O 0.8253(5) 0.3963(6) 0.6323(4)
C1 C 0.9557(7) 0.3910(7) 0.6350(5)
O2 O 1.0300(5) 0.4240(5) 0.5799(3)
C2 C 1.0206(8) 0.3415(8) 0.7048(5)
O3 O 0.9580(5) 0.7049(5) 0.6333(4)
C3 C 0.9534(9) 0.3393(9) 0.7771(6)
H1 H 0.8681 0.3736 0.7826
O4 O 1.1700(5) 0.7093(5) 0.5858(4)
C4 C 1.0070(12) 0.2884(12) 0.8417(7)
O5 O 0.6179(5) 0.5982(6) 0.6103(3)
C5 C 1.1311(12) 0.2378(12) 0.8309(8)
H2 H 1.1690 0.1996 0.8732
O6 O 0.3874(5) 0.5258(6) 0.6187(3)
C6 C 1.1993(12) 0.2420(12) 0.7607(8)
H3 H 1.2845 0.2076 0.7548
O7 O 0.5684(6) 0.2909(6) 0.5000(5)
C7 C 1.1464(9) 0.2952(10) 0.6989(6)
H4 H 1.1967 0.3003 0.6511
H5 H 0.552(12) 0.280(12) 0.555(8)
H6 H 0.501(10) 0.297(10) 0.480(7)
O8 O 0.7516(5) 0.7551(5) 0.5018(4)
C8 C 0.9306(16) 0.286(2) 0.9198(9)
H9 H 0.9877 0.3586 0.9719
H10 H 0.9185 0.1910 0.9281
H11 H 0.8361 0.3067 0.9098
C9 C 1.0938(8) 0.7403(7) 0.6442(5)
C10 C 1.1695(8) 0.8254(8) 0.7345(5)
C11 C 1.3167(9) 0.8817(8) 0.7471(6)
H12 H 1.3673 0.8690 0.6984
C12 C 1.3912(10) 0.9566(10) 0.8304(7)
C13 C 1.3170(13) 0.9738(11) 0.8992(7)
H13 H 1.3674 1.0243 0.9560
C14 C 1.1722(14) 0.9208(12) 0.8892(7)
H14 H 1.1228 0.9350 0.9384
C15 C 1.0970(10) 0.8455(10) 0.8057(6)
H15 H 0.9962 0.8082 0.7981
C16 C 1.5523(13) 1.0162(15) 0.8427(10)
H16 H 1.5858 1.0740 0.9036
H17 H 1.5743 1.0762 0.8045
H18 H 1.6007 0.9368 0.8279
C17 C 0.5165(7) 0.5731(7) 0.6526(5)
C18 C 0.5517(8) 0.6034(8) 0.7494(5)
C19 C 0.4432(9) 0.5987(8) 0.8003(5)
H19 H 0.3461 0.5765 0.7735
C20 C 0.4731(12) 0.6256(10) 0.8899(6)
C21 C 0.6169(15) 0.6563(12) 0.9264(7)
H20 H 0.6403 0.6750 0.9875
C22 C 0.7252(13) 0.6602(14) 0.8763(7)
H21 H 0.8221 0.6804 0.9029
C23 C 0.6946(9) 0.6353(11) 0.7879(6)
H22 H 0.7700 0.6396 0.7534
C24 C 0.3549(15) 0.6232(13) 0.9452(8)
H23 H 0.3376 0.7197 0.9661
H24 H 0.3831 0.5918 0.9952
H25 H 0.2669 0.5566 0.9105
C25 C 0.7560(14) 1.0129(10) 0.4941(9)
H26 H 0.7825 0.9977 0.4354
H27 H 0.7903 1.1144 0.5277
H28 H 0.6513 0.9850 0.4899
C26 C 0.7735(14) 0.9572(11) 0.6489(8)
H29 H 0.8111 0.9080 0.6873
H30 H 0.6682 0.9305 0.6400
H31 H 0.8065 1.0612 0.6757
La1A La 1.21501(4) 0.48881(4) 0.48850(3)
La1A_2 La 0.21501(4) 0.48881(4) 0.48850(3)
O2A O 0.9700(5) 0.5760(5) 0.4201(3)
O4A O 0.8300(5) 0.2907(5) 0.4142(4)
O6A O 0.6126(5) 0.4742(6) 0.3813(3)
H7 H 0.5010 0.2574 0.7073
H8 H 0.6671 0.2924 0.6995
O9 O 0.57541(14) 0.2547(8) 0.67893(17)
loop_
_geom_bond_atom_site_label_1
_geom_bond_atom_site_label_2
_geom_bond_site_symmetry_1
_geom_bond_site_symmetry_2
La1 O1 1_555 1_555
S1 O8 1_555 1_555
O1 C1 1_555 1_555
C1 O2 1_555 1_555
O2 La1 1_555 1_555
C2 C1 1_555 1_555
O3 La1 1_555 1_555
C3 C2 1_555 1_555
H1 C3 1_555 1_555
O4 C9 1_555 1_555
C4 C3 1_555 1_555
O5 La1 1_555 1_555
C5 C4 1_555 1_555
H2 C5 1_555 1_555
O6 C17 1_555 1_555
C6 C5 1_555 1_555
H3 C6 1_555 1_555
O7 La1 1_555 1_555
C7 C2 1_555 1_555
H4 C7 1_555 1_555
H5 O7 1_555 1_555
H6 O7 1_555 1_555
H7 O9 1_555 1_555
H8 O9 1_555 1_555
O8 La1 1_555 1_555
C8 C4 1_555 1_555
H9 C8 1_555 1_555
H10 C8 1_555 1_555
H11 C8 1_555 1_555
C9 O3 1_555 1_555
C10 C9 1_555 1_555
C11 C10 1_555 1_555
H12 C11 1_555 1_555
C12 C11 1_555 1_555
C13 C12 1_555 1_555
H13 C13 1_555 1_555
C14 C13 1_555 1_555
H14 C14 1_555 1_555
C15 C10 1_555 1_555
H15 C15 1_555 1_555
C16 C12 1_555 1_555
H16 C16 1_555 1_555
H17 C16 1_555 1_555
H18 C16 1_555 1_555
C17 O5 1_555 1_555
C18 C17 1_555 1_555
C19 C18 1_555 1_555
H19 C19 1_555 1_555
C20 C19 1_555 1_555
C21 C20 1_555 1_555
H20 C21 1_555 1_555
C22 C21 1_555 1_555
H21 C22 1_555 1_555
C23 C18 1_555 1_555
H22 C23 1_555 1_555
C24 C20 1_555 1_555
H23 C24 1_555 1_555
H24 C24 1_555 1_555
H25 C24 1_555 1_555
C25 S1 1_555 1_555
H26 C25 1_555 1_555
H27 C25 1_555 1_555
H28 C25 1_555 1_555
C26 S1 1_555 1_555
H29 C26 1_555 1_555
H30 C26 1_555 1_555
H31 C26 1_555 1_555
La1A O2 1_555 1_555
La1A_2 O6 1_555 1_555
O2A La1 1_555 1_555
O4A La1 1_555 1_555
O6A La1 1_555 1_555
O4 La1A 1_555 1_555
C6 C7 1_555 1_555
C14 C15 1_555 1_555
C22 C23 1_555 1_555
La1A O2A 1_555 1_555

#END
