
#######################################################################
#
#                 Cambridge Crystallographic Data Centre
#                                CCDC 
#
#######################################################################
#
# If this CIF has been generated from an entry in the Cambridge 
# Structural Database, then it will include bibliographic, chemical, 
# crystal, experimental, refinement or atomic coordinate data resulting 
# from the CCDC's data processing and validation procedures.
#
#######################################################################

data_RIDRUS
_symmetry_cell_setting           monoclinic
_symmetry_space_group_name_H-M   'P 21/c'
_symmetry_Int_Tables_number      14
_space_group_name_Hall           '-P 2ybc'
loop_
_symmetry_equiv_pos_site_id
_symmetry_equiv_pos_as_xyz
1 x,y,z
2 -x,1/2+y,1/2-z
3 -x,-y,-z
4 x,1/2-y,1/2+z
_cell_length_a                   22.1543(18)
_cell_length_b                   16.1425(13)
_cell_length_c                   9.6019(7)
_cell_angle_alpha                90
_cell_angle_beta                 93.077(3)
_cell_angle_gamma                90
_cell_volume                     3428.94
loop_
_atom_site_label
_atom_site_type_symbol
_atom_site_fract_x
_atom_site_fract_y
_atom_site_fract_z
La1 La 0.42158(6) 0.22752(8) 0.30587(13)
S1 S 0.5083(3) 0.0351(4) 0.2577(7)
O1 O 0.5043(8) 0.3267(11) 0.2506(17)
C1 C 0.5141(10) 0.3019(16) 0.128(2)
O2 O 0.4740(6) 0.2582(9) 0.0566(15)
C2 C 0.5786(9) 0.3118(13) 0.076(2)
O3 O 0.3966(7) 0.1126(10) 0.1427(17)
C3 C 0.5952(11) 0.2578(14) -0.034(2)
H1 H 0.5693 0.2158 -0.0729
O4 O 0.3869(8) 0.1443(11) -0.0836(17)
C4 C 0.6525(11) 0.2728(17) -0.079(3)
H2 H 0.6670 0.2366 -0.1481
O5 O 0.3375(7) 0.2779(11) 0.1546(17)
C5 C 0.6909(11) 0.3374(17) -0.031(3)
O6 O 0.3423(8) 0.3317(11) -0.0561(17)
C6 C 0.6724(11) 0.3841(16) 0.078(3)
H3 H 0.6980 0.4266 0.1154
O7 O 0.4952(8) 0.1126(11) 0.3389(19)
C7 C 0.6160(11) 0.3701(15) 0.134(2)
H4 H 0.6042 0.4014 0.2120
C8 C 0.7504(12) 0.3472(17) -0.106(3)
C9 C 0.7358(18) 0.363(3) -0.265(4)
H5 H 0.7736 0.3650 -0.3134
H6 H 0.7143 0.4157 -0.2772
H7 H 0.7104 0.3179 -0.3034
C10 C 0.7901(19) 0.271(3) -0.089(5)
H8 H 0.8307 0.2841 -0.1182
H9 H 0.7728 0.2262 -0.1474
H10 H 0.7924 0.2536 0.0087
C11 C 0.7837(16) 0.422(2) -0.046(4)
H11 H 0.8033 0.4084 0.0449
H12 H 0.7550 0.4678 -0.0348
H13 H 0.8145 0.4398 -0.1097
C12 C 0.3684(11) 0.1124(15) 0.026(3)
C13 C 0.3057(11) 0.0725(15) 0.018(3)
C14 C 0.2898(12) 0.0253(16) 0.125(3)
H14 H 0.3181 0.0148 0.2010
C15 C 0.2300(12) -0.0093(17) 0.125(3)
H15 H 0.2187 -0.0428 0.2005
C16 C 0.1889(11) 0.0061(15) 0.014(2)
C17 C 0.2085(13) 0.0568(17) -0.096(3)
H16 H 0.1810 0.0696 -0.1725
C18 C 0.2657(13) 0.0873(17) -0.094(3)
H17 H 0.2783 0.1191 -0.1705
C19 C 0.1241(13) -0.0208(19) 0.017(3)
C20 C 0.1093(11) -0.0722(16) 0.141(3)
H18 H 0.1383 -0.1179 0.1522
H19 H 0.0683 -0.0947 0.1266
H20 H 0.1116 -0.0377 0.2251
C21 C 0.0835(12) 0.0591(17) 0.018(3)
H21 H 0.0409 0.0430 0.0189
H22 H 0.0898 0.0918 -0.0665
H23 H 0.0946 0.0924 0.1004
C22 C 0.1049(12) -0.0698(17) -0.114(3)
H24 H 0.1263 -0.1230 -0.1126
H25 H 0.1149 -0.0382 -0.1964
H26 H 0.0612 -0.0797 -0.1158
C23 C 0.3139(11) 0.3063(16) 0.042(3)
C24 C 0.2464(10) 0.3148(14) 0.033(2)
C25 C 0.2105(11) 0.2778(16) 0.131(3)
H27 H 0.2292 0.2474 0.2059
C26 C 0.1464(11) 0.2849(16) 0.120(3)
H28 H 0.1223 0.2577 0.1847
C27 C 0.1193(12) 0.3323(16) 0.012(3)
C28 C 0.1536(11) 0.3648(15) -0.090(3)
H29 H 0.1346 0.3901 -0.1698
C29 C 0.2183(13) 0.3604(18) -0.075(3)
H30 H 0.2421 0.3888 -0.1388
C30 C 0.0484(10) 0.3424(15) 0.006(2)
C31 C 0.0309(19) 0.388(3) 0.134(4)
H31 H 0.0477 0.4438 0.1333
H32 H 0.0468 0.3580 0.2169
H33 H -0.0133 0.3906 0.1343
C32 C 0.0181(15) 0.255(2) 0.009(4)
H34 H 0.0328 0.2254 0.0931
H35 H 0.0282 0.2237 -0.0738
H36 H -0.0259 0.2616 0.0099
C33 C 0.026(2) 0.387(3) -0.127(4)
H37 H -0.0125 0.4149 -0.1110
H38 H 0.0195 0.3465 -0.2026
H39 H 0.0558 0.4279 -0.1530
C34 C 0.5728(11) -0.0086(16) 0.350(3)
H40 H 0.5978 -0.0375 0.2848
H41 H 0.5594 -0.0479 0.4202
H42 H 0.5964 0.0357 0.3971
C35 C 0.5464(13) 0.0714(18) 0.109(3)
H43 H 0.5225 0.1154 0.0622
H44 H 0.5512 0.0254 0.0435
H45 H 0.5863 0.0930 0.1391
La1C La 0.42158(6) 0.27248(8) -0.19413(13)
O2C O 0.4740(6) 0.2418(9) 0.5566(15)
O4C O 0.3869(8) 0.3557(11) 0.4164(17)
O6C O 0.3423(8) 0.1683(11) 0.4439(17)
loop_
_geom_bond_atom_site_label_1
_geom_bond_atom_site_label_2
_geom_bond_site_symmetry_1
_geom_bond_site_symmetry_2
La1 O1 1_555 1_555
S1 O7 1_555 1_555
O1 C1 1_555 1_555
C1 O2 1_555 1_555
O2 La1 1_555 1_555
C2 C1 1_555 1_555
O3 La1 1_555 1_555
C3 C2 1_555 1_555
H1 C3 1_555 1_555
O4 C12 1_555 1_555
C4 C3 1_555 1_555
H2 C4 1_555 1_555
O5 La1 1_555 1_555
C5 C4 1_555 1_555
O6 C23 1_555 1_555
C6 C5 1_555 1_555
H3 C6 1_555 1_555
O7 La1 1_555 1_555
C7 C2 1_555 1_555
H4 C7 1_555 1_555
C8 C5 1_555 1_555
C9 C8 1_555 1_555
H5 C9 1_555 1_555
H6 C9 1_555 1_555
H7 C9 1_555 1_555
C10 C8 1_555 1_555
H8 C10 1_555 1_555
H9 C10 1_555 1_555
H10 C10 1_555 1_555
C11 C8 1_555 1_555
H11 C11 1_555 1_555
H12 C11 1_555 1_555
H13 C11 1_555 1_555
C12 O3 1_555 1_555
C13 C12 1_555 1_555
C14 C13 1_555 1_555
H14 C14 1_555 1_555
C15 C14 1_555 1_555
H15 C15 1_555 1_555
C16 C15 1_555 1_555
C17 C16 1_555 1_555
H16 C17 1_555 1_555
C18 C13 1_555 1_555
H17 C18 1_555 1_555
C19 C16 1_555 1_555
C20 C19 1_555 1_555
H18 C20 1_555 1_555
H19 C20 1_555 1_555
H20 C20 1_555 1_555
C21 C19 1_555 1_555
H21 C21 1_555 1_555
H22 C21 1_555 1_555
H23 C21 1_555 1_555
C22 C19 1_555 1_555
H24 C22 1_555 1_555
H25 C22 1_555 1_555
H26 C22 1_555 1_555
C23 O5 1_555 1_555
C24 C23 1_555 1_555
C25 C24 1_555 1_555
H27 C25 1_555 1_555
C26 C25 1_555 1_555
H28 C26 1_555 1_555
C27 C26 1_555 1_555
C28 C27 1_555 1_555
H29 C28 1_555 1_555
C29 C24 1_555 1_555
H30 C29 1_555 1_555
C30 C27 1_555 1_555
C31 C30 1_555 1_555
H31 C31 1_555 1_555
H32 C31 1_555 1_555
H33 C31 1_555 1_555
C32 C30 1_555 1_555
H34 C32 1_555 1_555
H35 C32 1_555 1_555
H36 C32 1_555 1_555
C33 C30 1_555 1_555
H37 C33 1_555 1_555
H38 C33 1_555 1_555
H39 C33 1_555 1_555
C34 S1 1_555 1_555
H40 C34 1_555 1_555
H41 C34 1_555 1_555
H42 C34 1_555 1_555
C35 S1 1_555 1_555
H43 C35 1_555 1_555
H44 C35 1_555 1_555
H45 C35 1_555 1_555
La1C O2 1_555 1_555
O2C La1 1_555 1_555
O4C La1 1_555 1_555
O6C La1 1_555 1_555
O4 La1C 1_555 1_555
O6 La1C 1_555 1_555
C6 C7 1_555 1_555
C17 C18 1_555 1_555
C28 C29 1_555 1_555

#END
