
#######################################################################
#
#                 Cambridge Crystallographic Data Centre
#                                CCDC 
#
#######################################################################
#
# If this CIF has been generated from an entry in the Cambridge 
# Structural Database, then it will include bibliographic, chemical, 
# crystal, experimental, refinement or atomic coordinate data resulting 
# from the CCDC's data processing and validation procedures.
#
#######################################################################

data_RIDSED
_symmetry_cell_setting           triclinic
_symmetry_space_group_name_H-M   'P -1'
_symmetry_Int_Tables_number      2
_space_group_name_Hall           '-P 1'
loop_
_symmetry_equiv_pos_site_id
_symmetry_equiv_pos_as_xyz
1 x,y,z
2 -x,-y,-z
_cell_length_a                   9.9777(1)
_cell_length_b                   13.9145(2)
_cell_length_c                   13.9532(2)
_cell_angle_alpha                70.295(1)
_cell_angle_beta                 82.314(1)
_cell_angle_gamma                75.908(1)
_cell_volume                     1766.03
loop_
_atom_site_label
_atom_site_type_symbol
_atom_site_fract_x
_atom_site_fract_y
_atom_site_fract_z
La1 La 0.243162(12) 0.498292(10) 0.482860(10)
S1 S 0.38700(6) 0.37146(6) 0.28421(5)
O1 O 0.10993(18) 0.48173(15) 0.64906(13)
N1 N 0.2403(3) 0.3825(3) 1.0151(2)
C1 C -0.0012(2) 0.46785(19) 0.69860(18)
H1 H 0.270(3) 0.639(3) 0.6162(18)
O2 O -0.11574(18) 0.48510(16) 0.66293(14)
N2 N 0.0978(3) 0.9648(3) 0.1095(2)
C2 C 0.0041(2) 0.42460(19) 0.81341(18)
H2 H 0.3994(15) 0.621(3) 0.570(3)
O3 O 0.3180(3) 0.4377(3) 0.9685(2)
N3 N 0.4452(3) 0.8271(2) -0.03160(18)
C3 C 0.1155(2) 0.4278(2) 0.86055(18)
H3 H 0.1861 0.4597 0.8229
O4 O 0.2587(3) 0.3223(3) 1.10160(19)
C4 C 0.1194(3) 0.3826(2) 0.9646(2)
O5 O 0.06375(18) 0.66205(14) 0.44474(14)
C5 C 0.0169(4) 0.3362(3) 1.0230(2)
H4 H 0.0227 0.3062 1.0932
O6 O -0.16454(18) 0.67309(14) 0.45949(14)
C6 C -0.0946(4) 0.3350(4) 0.9758(3)
H5 H -0.1657 0.3042 1.0142
O7 O 0.1921(3) 0.8961(3) 0.0985(2)
C7 C -0.1011(3) 0.3792(3) 0.8718(2)
H6 H -0.1772 0.3785 0.8403
O8 O 0.0825(3) 1.0544(2) 0.0529(2)
C8 C -0.0577(2) 0.70804(19) 0.42361(18)
O9 O 0.37109(17) 0.61622(14) 0.34002(13)
C9 C -0.0777(2) 0.81670(19) 0.34674(18)
O10 O 0.55961(16) 0.60722(14) 0.41346(12)
C10 C 0.0199(2) 0.8410(2) 0.26722(19)
H7 H 0.1003 0.7921 0.2617
O11 O 0.3719(3) 0.7705(2) -0.03418(17)
C11 C -0.0050(3) 0.9399(2) 0.1958(2)
O12 O 0.4660(3) 0.9013(2) -0.10352(17)
C12 C -0.1203(3) 1.0148(2) 0.2019(2)
H8 H -0.1344 1.0804 0.1527
O13 O 0.31420(18) 0.61622(18) 0.56641(17)
C13 C -0.2149(3) 0.9908(2) 0.2829(3)
H9 H -0.2931 1.0411 0.2894
O14 O 0.40988(17) 0.38581(15) 0.38408(13)
C14 C -0.1949(3) 0.8927(2) 0.3545(2)
H10 H -0.2602 0.8771 0.4084
C15 C 0.4855(2) 0.63850(18) 0.33860(17)
C16 C 0.5363(2) 0.71016(18) 0.24020(17)
C17 C 0.4678(2) 0.73595(19) 0.15179(18)
H11 H 0.3914 0.7085 0.1524
C18 C 0.5147(3) 0.8029(2) 0.06299(18)
C19 C 0.6253(3) 0.8477(2) 0.0590(2)
H12 H 0.6529 0.8946 -0.0012
C20 C 0.6941(3) 0.8208(2) 0.1473(2)
H13 H 0.7698 0.8490 0.1464
C21 C 0.6505(2) 0.7521(2) 0.23663(19)
H14 H 0.6983 0.7337 0.2952
C22 C 0.4884(4) 0.2470(3) 0.2876(3)
H15 H 0.4470 0.1938 0.3370
H16 H 0.5801 0.2409 0.3061
H17 H 0.4930 0.2387 0.2216
C23 C 0.4903(4) 0.4466(3) 0.1891(2)
H18 H 0.4501 0.5196 0.1763
H19 H 0.4949 0.4295 0.1274
H20 H 0.5819 0.4316 0.2120
La1A La -0.243162(12) 0.501708(10) 0.517140(10)
La1A_2 La 0.756838(12) 0.501708(10) 0.517140(10)
O2A O 0.11574(18) 0.51490(16) 0.33707(14)
O6A O 0.16454(18) 0.32691(14) 0.54051(14)
O10A O 0.44039(16) 0.39278(14) 0.58654(12)
S2 S 0.05007(8) 0.78598(7) 0.69227(7)
O16 O 0.1830(2) 0.7073(2) 0.71143(18)
C24 C -0.0741(3) 0.7227(3) 0.6739(3)
H21 H -0.0971 0.6736 0.7376
H22 H -0.0365 0.6864 0.6255
H23 H -0.1560 0.7737 0.6486
C25 C 0.0643(4) 0.8656(3) 0.5643(3)
H24 H 0.1298 0.9082 0.5575
H25 H -0.0243 0.9096 0.5444
H26 H 0.0952 0.8224 0.5212
S3 S 0.40312(10) -0.01185(8) 0.36931(8)
O15 O 0.3013(3) 0.0418(2) 0.4330(2)
C26 C 0.4359(6) -0.1455(3) 0.4393(4)
H27 H 0.4866 -0.1573 0.4975
H28 H 0.4892 -0.1847 0.3970
H29 H 0.3497 -0.1674 0.4617
C28 C 0.3134(6) -0.0152(5) 0.2715(4)
H33 H 0.2873 0.0541 0.2249
H34 H 0.2318 -0.0421 0.3001
H35 H 0.3717 -0.0595 0.2359
S4? S 0.2828(17) -0.0271(11) 0.3810(10)
C27? C 0.4359(6) -0.1455(3) 0.4393(4)
H30? H 0.4496 -0.1474 0.5068
H31? H 0.5192 -0.1368 0.3972
H32? H 0.4132 -0.2096 0.4424
C29? C 0.3134(6) -0.0152(5) 0.2715(4)
H36? H 0.2616 0.0508 0.2316
H37? H 0.2879 -0.0707 0.2567
H38? H 0.4105 -0.0179 0.2552
loop_
_geom_bond_atom_site_label_1
_geom_bond_atom_site_label_2
_geom_bond_site_symmetry_1
_geom_bond_site_symmetry_2
La1 O1 1_555 1_555
S1 O14 1_555 1_555
O1 C1 1_555 1_555
N1 O3 1_555 1_555
C1 O2 1_555 1_555
H1 O13 1_555 1_555
S2 O16 1_555 1_555
O2 La1A 1_555 1_555
N2 O7 1_555 1_555
C2 C1 1_555 1_555
H2 O13 1_555 1_555
N3 O11 1_555 1_555
C3 C2 1_555 1_555
H3 C3 1_555 1_555
S3 O15 1_555 1_555
O4 N1 1_555 1_555
C4 N1 1_555 1_555
O5 La1 1_555 1_555
C5 C4 1_555 1_555
H4 C5 1_555 1_555
O6 C8 1_555 1_555
C6 C5 1_555 1_555
H5 C6 1_555 1_555
C7 C2 1_555 1_555
H6 C7 1_555 1_555
O8 N2 1_555 1_555
C8 O5 1_555 1_555
O9 La1 1_555 1_555
C9 C8 1_555 1_555
O10 C15 1_555 1_555
C10 C9 1_555 1_555
H7 C10 1_555 1_555
C11 N2 1_555 1_555
O12 N3 1_555 1_555
C12 C11 1_555 1_555
H8 C12 1_555 1_555
O13 La1 1_555 1_555
C13 C12 1_555 1_555
H9 C13 1_555 1_555
O14 La1 1_555 1_555
C14 C9 1_555 1_555
H10 C14 1_555 1_555
C15 O9 1_555 1_555
C16 C15 1_555 1_555
C17 C16 1_555 1_555
H11 C17 1_555 1_555
C18 N3 1_555 1_555
C19 C18 1_555 1_555
H12 C19 1_555 1_555
C20 C19 1_555 1_555
H13 C20 1_555 1_555
C21 C16 1_555 1_555
H14 C21 1_555 1_555
C22 S1 1_555 1_555
H15 C22 1_555 1_555
H16 C22 1_555 1_555
H17 C22 1_555 1_555
C23 S1 1_555 1_555
H18 C23 1_555 1_555
H19 C23 1_555 1_555
H20 C23 1_555 1_555
C24 S2 1_555 1_555
H21 C24 1_555 1_555
H22 C24 1_555 1_555
H23 C24 1_555 1_555
C25 S2 1_555 1_555
H24 C25 1_555 1_555
H25 C25 1_555 1_555
H26 C25 1_555 1_555
C26 S3 1_555 1_555
H27 C26 1_555 1_555
H28 C26 1_555 1_555
H29 C26 1_555 1_555
C28 S3 1_555 1_555
H33 C28 1_555 1_555
H34 C28 1_555 1_555
H35 C28 1_555 1_555
La1A O6 1_555 1_555
La1A_2 O10 1_555 1_555
O2A La1 1_555 1_555
O6A La1 1_555 1_555
O10A La1 1_555 1_555
C3 C4 1_555 1_555
C6 C7 1_555 1_555
C10 C11 1_555 1_555
C13 C14 1_555 1_555
C17 C18 1_555 1_555
C20 C21 1_555 1_555

#END
