
#######################################################################
#
#                 Cambridge Crystallographic Data Centre
#                                CCDC 
#
#######################################################################
#
# If this CIF has been generated from an entry in the Cambridge 
# Structural Database, then it will include bibliographic, chemical, 
# crystal, experimental, refinement or atomic coordinate data resulting 
# from the CCDC's data processing and validation procedures.
#
#######################################################################

data_RIDXIM
_symmetry_cell_setting           monoclinic
_symmetry_space_group_name_H-M   'C 2/c'
_symmetry_Int_Tables_number      15
_space_group_name_Hall           '-C 2yn'
loop_
_symmetry_equiv_pos_site_id
_symmetry_equiv_pos_as_xyz
1 x,y,z
2 1/2+x,1/2+y,z
3 -x,y,1/2-z
4 1/2-x,1/2+y,1/2-z
5 -x,-y,-z
6 1/2-x,1/2-y,-z
7 x,-y,1/2+z
8 1/2+x,1/2-y,1/2+z
_cell_length_a                   16.420(3)
_cell_length_b                   18.624(4)
_cell_length_c                   26.339(5)
_cell_angle_alpha                90
_cell_angle_beta                 100.08(3)
_cell_angle_gamma                90
_cell_volume                     7930.3
loop_
_atom_site_label
_atom_site_type_symbol
_atom_site_fract_x
_atom_site_fract_y
_atom_site_fract_z
Zn1 Zn 0.5000 -0.97491(11) 0.2500
Zn2 Zn 0.5000 -0.57336(11) 0.2500
V1 V 0.46887(13) -0.76451(12) 0.39607(8)
V2 V 0.64738(13) -0.77413(11) 0.38363(8)
V3 V 0.25793(12) -0.78308(10) 0.20395(8)
V4 V 0.31198(13) -0.77527(11) 0.32019(8)
V5 V 0.52032(13) -0.91013(11) 0.14344(8)
V6 V 0.32252(13) -0.64090(11) 0.21699(8)
As1 As 0.32768(8) -0.94178(7) 0.15662(5)
As2 As 0.30353(8) -0.94045(7) 0.27696(5)
As3 As 0.37535(9) -0.60613(7) 0.34106(5)
As4 As 0.57531(9) -0.60562(7) 0.37870(5)
O1 O 0.7060(6) -0.7748(5) 0.4394(4)
O2 O 0.7530(6) -0.5867(5) 0.2976(4)
O3 O 0.4775(6) -0.9683(5) 0.4026(4)
O4 O 0.2935(5) -0.8474(4) 0.2640(3)
O5 O 0.1601(5) -0.7840(5) 0.1863(4)
O6 O 0.7103(5) -0.9715(4) 0.2883(3)
O7 O 0.4118(5) -0.9474(4) 0.2920(3)
O8 O 0.2343(6) -0.7785(5) 0.3473(4)
O9 O 0.5530(5) -0.8335(4) 0.3866(3)
O10 O 0.2865(5) -0.7149(4) 0.2595(3)
O11 O 0.4003(6) -0.6049(4) 0.2791(3)
O12 O 0.5813(5) -0.6045(5) 0.3131(3)
O13 O 0.5620(5) -0.6995(5) 0.3882(3)
O14 O 0.3879(5) -0.7011(4) 0.3541(3)
O15 O 0.6944(5) -0.7135(4) 0.3361(3)
O16 O 0.5662(5) -0.9417(4) 0.3188(3)
O17 O 0.3976(5) -0.8346(4) 0.3578(3)
O18 O 0.6904(5) -0.8479(4) 0.3400(3)
O19 O 0.4578(7) -0.7636(6) 0.4553(4)
O20 O 0.4700(7) -0.5777(5) 0.3749(4)
N1 N 0.5000 -0.0822(8) 0.2500
N2 N 0.5000 -0.4687(8) 0.2500
C1 C 0.5649(10) -0.4288(10) 0.2744(8)
H1 H 0.6106 -0.4536 0.2917
C2 C 0.5685(9) -0.3532(7) 0.2755(7)
H2 H 0.6150 -0.3293 0.2927
C3 C 0.5000 -0.3155(10) 0.2500
C4 C 0.5000 -0.2348(9) 0.2500
C5 C 0.5739(10) -0.1944(8) 0.2580(6)
H3 H 0.6250 -0.2174 0.2648
C6 C 0.5697(9) -0.1226(7) 0.2559(6)
H4 H 0.6196 -0.0980 0.2587
Zn1_2 Zn 0.5000 0.02509(11) 0.2500
V1B V 0.53113(13) -0.76451(12) 0.10393(8)
V2B V 0.35262(13) -0.77413(11) 0.11637(8)
V3B V 0.74207(12) -0.78308(10) 0.29605(8)
V4B V 0.68802(13) -0.77527(11) 0.17981(8)
V5B V 0.47968(13) -0.91013(11) 0.35656(8)
V6B V 0.67748(13) -0.64090(11) 0.28301(8)
As1B As 0.67232(8) -0.94178(7) 0.34338(5)
As2B As 0.69647(8) -0.94045(7) 0.22304(5)
As3B As 0.62465(9) -0.60613(7) 0.15894(5)
As4B As 0.42469(9) -0.60562(7) 0.12130(5)
O1B O 0.2940(6) -0.7748(5) 0.0606(4)
O2B O 0.2470(6) -0.5867(5) 0.2024(4)
O3B O 0.5225(6) -0.9683(5) 0.0974(4)
O4B O 0.7065(5) -0.8474(4) 0.2360(3)
O5B O 0.8399(5) -0.7840(5) 0.3137(4)
O6B O 0.2897(5) -0.9715(4) 0.2117(3)
O7B O 0.5882(5) -0.9474(4) 0.2080(3)
O8B O 0.7657(6) -0.7785(5) 0.1527(4)
O9B O 0.4470(5) -0.8335(4) 0.1134(3)
O10B O 0.7135(5) -0.7149(4) 0.2405(3)
O11B O 0.5997(6) -0.6049(4) 0.2209(3)
O12B O 0.4187(5) -0.6045(5) 0.1869(3)
O13B O 0.4380(5) -0.6995(5) 0.1118(3)
O14B O 0.6121(5) -0.7011(4) 0.1459(3)
O15B O 0.3056(5) -0.7135(4) 0.1639(3)
O16B O 0.4338(5) -0.9417(4) 0.1812(3)
O17B O 0.6024(5) -0.8346(4) 0.1422(3)
O18B O 0.3096(5) -0.8479(4) 0.1600(3)
O19B O 0.5422(7) -0.7636(6) 0.0447(4)
O20B O 0.5300(7) -0.5777(5) 0.1251(4)
N1_2 N 0.5000 -1.0822(8) 0.2500
C1B C 0.4351(10) -0.4288(10) 0.2256(8)
H1B H 0.3894 -0.4536 0.2083
C2B C 0.4315(9) -0.3532(7) 0.2245(7)
H2B H 0.3850 -0.3293 0.2073
C5B C 0.4261(10) -0.1944(8) 0.2420(6)
H3B H 0.3750 -0.2174 0.2352
C6B C 0.4303(9) -0.1226(7) 0.2441(6)
H4B H 0.3804 -0.0980 0.2413
Zn3 Zn 0.43503(15) 0.81842(15) 0.45087(9)
N3 N 0.3922(9) 0.8874(7) 0.5038(6)
H5 H 0.3547 0.8646 0.5191
H6 H 0.4345 0.9011 0.5283
N4 N 0.3548(13) 0.8759(12) 0.4008(9)
H7 H 0.3834 0.9001 0.3800
H8 H 0.3208 0.8453 0.3809
C7 C 0.3030(15) 0.9287(13) 0.4242(9)
C8 C 0.3535(17) 0.9517(12) 0.4748(9)
H9 H 0.3935 0.9895 0.4711
C9 C 0.2822(19) 0.978(2) 0.4980(13)
H10 H 0.3021 0.9950 0.5323
H11 H 0.2440 0.9392 0.4993
H12 H 0.2548 1.0162 0.4774
N5 N 0.4872(11) 0.7451(9) 0.4057(7)
N6 N 0.5472(10) 0.8708(9) 0.4521(6)
H18 H 0.5389 0.9183 0.4475
H19 H 0.5807 0.8637 0.4826
C12 C 0.5839(19) 0.8406(17) 0.4101(13)
H20 H 0.5552 0.8665 0.3798
C13 C 0.570(2) 0.7735(18) 0.3972(17)
H21 H 0.6137 0.7445 0.4170
H22 H 0.5741 0.7680 0.3611
C14 C 0.6702(19) 0.8618(19) 0.4123(14)
H23 H 0.6742 0.9132 0.4126
H24 H 0.6900 0.8432 0.3827
H25 H 0.7031 0.8429 0.4431
O21 O 0.5000 0.221(2) 0.2500
C10? C 0.3053(14) 0.905(4) 0.4786(14)
H13? H 0.2705 0.8629 0.4790
H14? H 0.2836 0.9428 0.4978
C11? C 0.255(5) 0.996(3) 0.407(3)
H15? H 0.2579 1.0056 0.3718
H16? H 0.2779 1.0354 0.4283
H17? H 0.1982 0.9892 0.4107
N7? N 0.3880(10) 0.7183(8) 0.4739(6)
H26? H 0.4085 0.7097 0.5073
H27? H 0.3325 0.7204 0.4702
C15? C 0.4120(15) 0.6605(13) 0.4421(10)
H28? H 0.3704 0.6588 0.4105
C16? C 0.4855(15) 0.6694(13) 0.4278(10)
H29? H 0.4930 0.6340 0.4019
H30? H 0.5296 0.6636 0.4572
C17? C 0.415(3) 0.5886(18) 0.4650(18)
H31? H 0.3624 0.5768 0.4734
H32? H 0.4565 0.5878 0.4958
H33? H 0.4294 0.5542 0.4408
loop_
_geom_bond_atom_site_label_1
_geom_bond_atom_site_label_2
_geom_bond_site_symmetry_1
_geom_bond_site_symmetry_2
Zn1 O7 1_555 1_555
Zn2 O11 1_555 1_555
Zn3 N3 1_555 1_555
V1 O9 1_555 1_555
V2 O1 1_555 1_555
V3 O4 1_555 1_555
V4 O4 1_555 1_555
V5 O3B 1_555 1_555
V6 O10 1_555 1_555
As1 O6B 1_555 1_555
As2 O4 1_555 1_555
As3 O11 1_555 1_555
As4 O12 1_555 1_555
O2 V6B 1_555 1_555
O3 V5B 1_555 1_555
O5 V3 1_555 1_555
O6 As1B 1_555 1_555
O7 As2 1_555 1_555
O8 V4 1_555 1_555
O9 V2 1_555 1_555
O10 V3 1_555 1_555
O11 V6 1_555 1_555
O12 Zn2 1_555 1_555
O13 V1 1_555 1_555
O14 V1 1_555 1_555
O15 V2 1_555 1_555
O16 Zn1 1_555 1_555
O17 V1 1_555 1_555
O18 V2 1_555 1_555
O19 V1 1_555 1_555
O20 As3 1_555 1_555
N1 C6 1_555 1_555
N2 Zn2 1_555 1_555
C1 N2 1_555 1_555
H1 C1 1_555 1_555
C2 C1 1_555 1_555
H2 C2 1_555 1_555
C3 C2 1_555 1_555
C4 C3 1_555 1_555
C5 C4 1_555 1_555
H3 C5 1_555 1_555
C6 C5 1_555 1_555
H4 C6 1_555 1_555
N3 H5 1_555 1_555
H6 N3 1_555 1_555
N4 Zn3 1_555 1_555
H7 N4 1_555 1_555
H8 N4 1_555 1_555
C7 N4 1_555 1_555
C8 N3 1_555 1_555
H9 C8 1_555 1_555
C9 C8 1_555 1_555
H10 C9 1_555 1_555
H11 C9 1_555 1_555
H12 C9 1_555 1_555
N5 Zn3 1_555 1_555
N6 Zn3 1_555 1_555
H18 N6 1_555 1_555
H19 N6 1_555 1_555
C12 N6 1_555 1_555
H20 C12 1_555 1_555
C13 N5 1_555 1_555
H21 C13 1_555 1_555
H22 C13 1_555 1_555
C14 C12 1_555 1_555
H23 C14 1_555 1_555
H24 C14 1_555 1_555
H25 C14 1_555 1_555
Zn1_2 N1 1_555 1_555
V1B O9B 1_555 1_555
V2B O1B 1_555 1_555
V3B O15 1_555 1_555
V4B O4B 1_555 1_555
V5B O7 1_555 1_555
V6B O12 1_555 1_555
As1B O16 1_555 1_555
As2B O6 1_555 1_555
As3B O11B 1_555 1_555
As4B O12B 1_555 1_555
O2B V6 1_555 1_555
O4B V3B 1_555 1_555
O5B V3B 1_555 1_555
O6B As2 1_555 1_555
O7B Zn1 1_555 1_555
O8B V4B 1_555 1_555
O9B V5 1_555 1_555
O10B V3B 1_555 1_555
O11B Zn2 1_555 1_555
O12B Zn2 1_555 1_555
O13B V1B 1_555 1_555
O14B V1B 1_555 1_555
O15B V3 1_555 1_555
O16B Zn1 1_555 1_555
O17B V5 1_555 1_555
O18B V3 1_555 1_555
O19B V1B 1_555 1_555
O20B As3B 1_555 1_555
N1_2 Zn1 1_555 1_555
C1B N2 1_555 1_555
H1B C1B 1_555 1_555
C2B C3 1_555 1_555
H2B C2B 1_555 1_555
C5B C4 1_555 1_555
H3B C5B 1_555 1_555
C6B N1 1_555 1_555
H4B C6B 1_555 1_555
V2 O13 1_555 1_555
V4 O10 1_555 1_555
V4 O14 1_555 1_555
V4 O17 1_555 1_555
V5 O7B 1_555 1_555
V5 O16B 1_555 1_555
V6 O12B 1_555 1_555
V6 O15B 1_555 1_555
As1 O16B 1_555 1_555
As1 O18B 1_555 1_555
As3 O14 1_555 1_555
As4 O13 1_555 1_555
As4 O20 1_555 1_555
O9 V5B 1_555 1_555
O15 V6B 1_555 1_555
O16 V5B 1_555 1_555
O17 V5B 1_555 1_555
O18 V3B 1_555 1_555
O18 As1B 1_555 1_555
C7 C8 1_555 1_555
C12 C13 1_555 1_555
V1B O17B 1_555 1_555
V2B O9B 1_555 1_555
V2B O13B 1_555 1_555
V2B O15B 1_555 1_555
V2B O18B 1_555 1_555
V4B O10B 1_555 1_555
V4B O14B 1_555 1_555
V4B O17B 1_555 1_555
V6B O10B 1_555 1_555
V6B O11B 1_555 1_555
As2B O4B 1_555 1_555
As2B O7B 1_555 1_555
As3B O14B 1_555 1_555
As4B O13B 1_555 1_555
As4B O20B 1_555 1_555
C1B C2B 1_555 1_555
C5B C6B 1_555 1_555

#END
