
#######################################################################
#
#                 Cambridge Crystallographic Data Centre
#                                CCDC 
#
#######################################################################
#
# If this CIF has been generated from an entry in the Cambridge 
# Structural Database, then it will include bibliographic, chemical, 
# crystal, experimental, refinement or atomic coordinate data resulting 
# from the CCDC's data processing and validation procedures.
#
#######################################################################

data_RIDXEI
_symmetry_cell_setting           monoclinic
_symmetry_space_group_name_H-M   'P 21/n'
_symmetry_Int_Tables_number      14
_space_group_name_Hall           '-P 2yn'
loop_
_symmetry_equiv_pos_site_id
_symmetry_equiv_pos_as_xyz
1 x,y,z
2 1/2-x,1/2+y,1/2-z
3 -x,-y,-z
4 1/2+x,1/2-y,1/2+z
_cell_length_a                   12.901(3)
_cell_length_b                   22.591(5)
_cell_length_c                   25.299(5)
_cell_angle_alpha                90
_cell_angle_beta                 103.56(3)
_cell_angle_gamma                90
_cell_volume                     7167.77
loop_
_atom_site_label
_atom_site_type_symbol
_atom_site_fract_x
_atom_site_fract_y
_atom_site_fract_z
Zn1 Zn -0.43501(9) 0.41813(4) 0.88500(4)
N5 N -0.5821(7) 0.3733(4) 0.8638(4)
H5 H -0.5712 0.3342 0.8693
H6 H -0.6244 0.3858 0.8853
N6 N -0.5013(8) 0.4590(5) 0.8074(4)
H7 H -0.4933 0.4985 0.8103
H8 H -0.4665 0.4461 0.7827
N7 N -0.2752(6) 0.4244(4) 0.8740(3)
H9 H -0.2717 0.4078 0.8421
H10 H -0.2560 0.4626 0.8735
N8 N -0.3592(6) 0.3524(3) 0.9412(3)
H11 H -0.3538 0.3650 0.9755
H12 H -0.3978 0.3188 0.9363
N9 N -0.4507(8) 0.4858(4) 0.9382(4)
H13 H -0.3848 0.4994 0.9530
H14 H -0.4865 0.5154 0.9181
C13 C -0.6342(11) 0.3840(7) 0.8075(7)
H27 H -0.7106 0.3792 0.8025
H28 H -0.6099 0.3551 0.7848
C14 C -0.6110(12) 0.4447(7) 0.7903(6)
H29 H -0.6329 0.4475 0.7510
H30 H -0.6522 0.4732 0.8055
C15 C -0.2042(9) 0.3942(6) 0.9180(5)
H31 H -0.1387 0.3843 0.9074
H32 H -0.1864 0.4201 0.9494
C16 C -0.2522(8) 0.3412(5) 0.9321(5)
H33 H -0.2070 0.3246 0.9648
H34 H -0.2576 0.3125 0.9031
C19 C -0.4993(13) 0.4755(5) 0.9800(6)
H39 H -0.4649 0.4415 1.0002
H40 H -0.5727 0.4644 0.9642
Zn1B Zn -0.56499(9) 0.58187(4) 1.11500(4)
N5B N -0.4179(7) 0.6267(4) 1.1362(4)
H5B H -0.4288 0.6658 1.1307
H6B H -0.3756 0.6142 1.1147
N6B N -0.4987(8) 0.5410(5) 1.1926(4)
H7B H -0.5067 0.5015 1.1897
H8B H -0.5335 0.5539 1.2173
N7B N -0.7248(6) 0.5756(4) 1.1260(3)
H9B H -0.7283 0.5922 1.1579
H10B H -0.7440 0.5374 1.1265
N8B N -0.6408(6) 0.6476(3) 1.0588(3)
H11B H -0.6462 0.6350 1.0245
H12B H -0.6022 0.6812 1.0637
N9B N -0.5493(8) 0.5142(4) 1.0618(4)
H13B H -0.6152 0.5006 1.0470
H14B H -0.5135 0.4846 1.0819
C13B C -0.3658(11) 0.6160(7) 1.1925(7)
H27B H -0.2894 0.6208 1.1975
H28B H -0.3901 0.6449 1.2152
C14B C -0.3890(12) 0.5553(7) 1.2097(6)
H29B H -0.3671 0.5525 1.2490
H30B H -0.3478 0.5268 1.1945
C15B C -0.7958(9) 0.6058(6) 1.0820(5)
H31B H -0.8613 0.6157 1.0926
H32B H -0.8136 0.5799 1.0506
C16B C -0.7478(8) 0.6588(5) 1.0679(5)
H33B H -0.7930 0.6754 1.0352
H34B H -0.7424 0.6875 1.0969
C19B C -0.5007(13) 0.5245(5) 1.0200(6)
H39B H -0.5351 0.5585 0.9998
H40B H -0.4273 0.5356 1.0358
Zn2 Zn 0.0000 0.5000 0.5000
Zn3 Zn -0.49995(7) 0.30150(4) 0.54338(4)
Zn4 Zn 0.02833(7) 0.23174(4) 0.73212(4)
As1 As 0.10201(6) 0.25048(4) 0.60829(3)
As2 As -0.11450(6) 0.10768(3) 0.75113(3)
As3 As 0.08217(6) 0.36785(3) 0.68037(3)
As4 As -0.13595(6) 0.22634(3) 0.82246(3)
As5 As -0.41698(6) 0.44299(3) 0.58503(3)
As6 As -0.53802(6) 0.36506(3) 0.66179(3)
As7 As -0.37954(6) 0.22546(3) 0.45497(3)
As8 As -0.49708(6) 0.14834(3) 0.53343(3)
V1 V -0.22631(10) 0.12546(5) 0.54610(5)
V2 V -0.31984(10) 0.10170(5) 0.64198(5)
V3 V -0.36663(10) 0.17084(5) 0.73536(5)
V4 V -0.35548(9) 0.30174(5) 0.76184(5)
V5 V -0.15520(10) 0.43253(5) 0.63317(5)
V6 V -0.08248(9) 0.36005(5) 0.54761(5)
V7 V -0.11848(10) 0.23175(5) 0.51215(5)
V8 V -0.07806(10) 0.34848(5) 0.76346(5)
V9 V -0.04184(10) 0.13948(5) 0.63746(5)
V10 V -0.30824(10) 0.35836(5) 0.50551(5)
V11 V -0.51992(10) 0.22124(5) 0.64313(5)
V12 V -0.27739(10) 0.41291(5) 0.71874(5)
O2 O -0.5191(4) 0.4252(2) 0.6195(2)
O3 O -0.2236(5) 0.0683(3) 0.5087(2)
O4 O -0.0095(5) 0.3827(3) 0.8153(2)
O5 O 0.0421(5) 0.0864(2) 0.6389(3)
O6 O -0.3383(5) 0.3955(3) 0.4508(2)
O7 O -0.6393(4) 0.2041(3) 0.6452(2)
O8 O -0.0528(4) 0.1544(2) 0.7128(2)
O9 O -0.3612(5) 0.0341(2) 0.6416(2)
O10 O -0.2925(5) 0.4699(2) 0.7532(2)
O11 O -0.5089(4) 0.2145(2) 0.5661(2)
O12 O -0.1216(4) 0.5005(2) 0.6315(2)
O13 O -0.3974(4) 0.2861(2) 0.4951(2)
O14 O 0.0396(4) 0.2145(2) 0.6537(2)
O15 O -0.0661(4) 0.2163(2) 0.4623(2)
O16 O -0.4062(4) 0.3169(2) 0.8123(2)
O17 O -0.4144(4) 0.3767(2) 0.5491(2)
O18 O -0.1019(4) 0.1524(2) 0.8109(2)
O19 O -0.0222(4) 0.4006(2) 0.5107(2)
O20 O -0.4204(4) 0.1304(2) 0.7737(2)
O21 O -0.4750(4) 0.1760(2) 0.4710(2)
O22 O -0.4275(4) 0.1516(2) 0.6599(2)
O23 O -0.2621(4) 0.1948(2) 0.4974(2)
O24 O -0.5216(4) 0.3058(2) 0.6209(2)
O25 O -0.1835(4) 0.1042(2) 0.6223(2)
O26 O 0.1472(4) 0.3157(2) 0.6471(2)
O27 O -0.4094(4) 0.3652(2) 0.7077(2)
O28 O -0.0677(4) 0.2623(2) 0.7795(2)
O29 O -0.2495(4) 0.1245(2) 0.7180(2)
O30 O -0.0918(4) 0.1668(2) 0.5636(2)
O31 O -0.0298(4) 0.3853(2) 0.62491(19)
O32 O -0.3634(4) 0.1307(2) 0.5664(2)
O33 O 0.0201(4) 0.3216(2) 0.7182(2)
O34 O -0.4430(4) 0.2442(2) 0.7156(2)
O35 O -0.2677(4) 0.2285(2) 0.7804(2)
O36 O -0.2267(4) 0.3469(2) 0.76722(19)
O37 O -0.3051(4) 0.4313(2) 0.6399(2)
O38 O -0.1853(4) 0.3095(2) 0.50263(19)
O39 O -0.1309(4) 0.4105(2) 0.7093(2)
O40 O -0.2016(4) 0.4034(2) 0.5592(2)
O41 O -0.0122(4) 0.2813(2) 0.5628(2)
N1 N -0.6440(5) 0.3215(3) 0.4952(2)
N2 N -1.3236(5) 0.2871(3) 0.2774(3)
N3 N 0.0737(6) 0.5036(3) 0.5851(3)
H1 H 0.0534 0.5368 0.5996
H2 H 0.0527 0.4724 0.6021
N4 N 0.1588(5) 0.4819(3) 0.4963(3)
H3 H 0.1598 0.4527 0.4722
H4 H 0.1882 0.5143 0.4852
C1 C -0.7319(6) 0.3010(4) 0.5097(3)
H15 H -0.7238 0.2796 0.5418
C2 C -0.8332(6) 0.3108(4) 0.4782(3)
H16 H -0.8918 0.2947 0.4885
C3 C -0.8479(6) 0.3441(4) 0.4317(3)
C4 C -0.7571(6) 0.3646(4) 0.4156(3)
H17 H -0.7637 0.3857 0.3835
C5 C -0.6572(6) 0.3525(4) 0.4489(3)
H18 H -0.5970 0.3665 0.4385
C6 C -0.9597(7) 0.3536(4) 0.3960(3)
H19 H -1.0071 0.3675 0.4179
H20 H -0.9578 0.3830 0.3683
C7 C -0.9990(6) 0.2960(4) 0.3699(4)
H21 H -0.9935 0.2663 0.3981
H22 H -0.9526 0.2839 0.3467
C8 C -1.1117(6) 0.2969(4) 0.3365(3)
C9 C -1.3011(7) 0.3017(5) 0.3296(4)
H23 H -1.3572 0.3087 0.3460
C10 C -1.1979(7) 0.3072(5) 0.3606(4)
H24 H -1.1856 0.3175 0.3972
C11 C -1.2412(7) 0.2802(5) 0.2542(4)
H25 H -1.2556 0.2719 0.2171
C12 C -1.1370(7) 0.2847(5) 0.2819(4)
H26 H -1.0829 0.2794 0.2637
C17 C 0.1900(8) 0.5030(5) 0.5933(4)
H35 H 0.2226 0.4874 0.6290
H36 H 0.2161 0.5429 0.5909
C18 C 0.2195(8) 0.4643(5) 0.5496(4)
H37 H 0.2951 0.4680 0.5514
H38 H 0.2047 0.4231 0.5561
Zn3B Zn 0.49995(7) 0.69850(4) 0.45662(4)
Zn3C Zn 1.00005(7) 0.19850(4) 1.04338(4)
Zn4B Zn -0.02833(7) 0.76826(4) 0.26788(4)
Zn4C Zn -1.47167(7) 0.26826(4) 0.23212(4)
As1B As -0.10201(6) 0.74952(4) 0.39171(3)
As2B As 0.11450(6) 0.89232(3) 0.24887(3)
As3B As -0.08217(6) 0.63215(3) 0.31963(3)
As4B As 0.13595(6) 0.77366(3) 0.17754(3)
As5B As 0.41698(6) 0.55701(3) 0.41497(3)
As6B As 0.53802(6) 0.63494(3) 0.33821(3)
As7B As 0.37954(6) 0.77454(3) 0.54503(3)
As8B As 0.49708(6) 0.85166(3) 0.46657(3)
V1B V 0.22631(10) 0.87454(5) 0.45390(5)
V2B V 0.31984(10) 0.89830(5) 0.35802(5)
V3B V 0.36663(10) 0.82916(5) 0.26464(5)
V4B V 0.35548(9) 0.69826(5) 0.23816(5)
V5B V 0.15520(10) 0.56747(5) 0.36683(5)
V6B V 0.08248(9) 0.63995(5) 0.45239(5)
V7B V 0.11848(10) 0.76825(5) 0.48785(5)
V8B V 0.07806(10) 0.65152(5) 0.23654(5)
V9B V 0.04184(10) 0.86052(5) 0.36254(5)
V10B V 0.30824(10) 0.64164(5) 0.49449(5)
V11B V 0.51992(10) 0.77876(5) 0.35687(5)
V12B V 0.27739(10) 0.58709(5) 0.28126(5)
O2B O 0.5191(4) 0.5748(2) 0.3805(2)
O3B O 0.2236(5) 0.9317(3) 0.4913(2)
O4B O 0.0095(5) 0.6173(3) 0.1847(2)
O5B O -0.0421(5) 0.9136(2) 0.3611(3)
O6B O 0.3383(5) 0.6045(3) 0.5492(2)
O7B O 0.6393(4) 0.7959(3) 0.3548(2)
O8B O 0.0528(4) 0.8456(2) 0.2872(2)
O9B O 0.3612(5) 0.9659(2) 0.3584(2)
O10B O 0.2925(5) 0.5301(2) 0.2468(2)
O11B O 0.5089(4) 0.7855(2) 0.4339(2)
O12B O 0.1216(4) 0.4995(2) 0.3685(2)
O13B O 0.3974(4) 0.7139(2) 0.5049(2)
O14B O -0.0396(4) 0.7855(2) 0.3463(2)
O15B O 0.0661(4) 0.7837(2) 0.5377(2)
O16B O 0.4062(4) 0.6831(2) 0.1877(2)
O17B O 0.4144(4) 0.6233(2) 0.4509(2)
O18B O 0.1019(4) 0.8476(2) 0.1891(2)
O19B O 0.0222(4) 0.5994(2) 0.4893(2)
O20B O 0.4204(4) 0.8696(2) 0.2263(2)
O21B O 0.4750(4) 0.8240(2) 0.5290(2)
O22B O 0.4275(4) 0.8484(2) 0.3401(2)
O23B O 0.2621(4) 0.8052(2) 0.5026(2)
O24B O 0.5216(4) 0.6942(2) 0.3791(2)
O25B O 0.1835(4) 0.8958(2) 0.3777(2)
O26B O -0.1472(4) 0.6843(2) 0.3529(2)
O27B O 0.4094(4) 0.6348(2) 0.2923(2)
O28B O 0.0677(4) 0.7377(2) 0.2205(2)
O29B O 0.2495(4) 0.8755(2) 0.2820(2)
O30B O 0.0918(4) 0.8332(2) 0.4364(2)
O31B O 0.0298(4) 0.6147(2) 0.37509(19)
O32B O 0.3634(4) 0.8693(2) 0.4336(2)
O33B O -0.0201(4) 0.6784(2) 0.2818(2)
O34B O 0.4430(4) 0.7558(2) 0.2844(2)
O35B O 0.2677(4) 0.7715(2) 0.2196(2)
O36B O 0.2267(4) 0.6531(2) 0.23278(19)
O37B O 0.3051(4) 0.5687(2) 0.3601(2)
O38B O 0.1853(4) 0.6905(2) 0.49737(19)
O39B O 0.1309(4) 0.5895(2) 0.2907(2)
O40B O 0.2016(4) 0.5966(2) 0.4408(2)
O41B O 0.0122(4) 0.7187(2) 0.4372(2)
N1C N 0.8560(5) 0.1785(3) 0.9952(2)
N1B N 0.6440(5) 0.6785(3) 0.5048(2)
N2C N 0.1764(5) 0.2129(3) 0.7774(3)
N2A N -0.1764(5) 0.7871(3) 0.2226(3)
N3B N -0.0737(6) 0.4964(3) 0.4149(3)
H1B H -0.0534 0.4632 0.4004
H2B H -0.0527 0.5276 0.3979
N4B N -0.1588(5) 0.5181(3) 0.5037(3)
H3B H -0.1598 0.5473 0.5278
H4B H -0.1882 0.4857 0.5148
C1C C 0.7681(6) 0.1990(4) 1.0097(3)
H15C H 0.7762 0.2204 1.0418
C2C C 0.6668(6) 0.1892(4) 0.9782(3)
H16C H 0.6082 0.2053 0.9885
C3C C 0.6521(6) 0.1559(4) 0.9317(3)
C4C C 0.7429(6) 0.1354(4) 0.9156(3)
H17C H 0.7363 0.1143 0.8835
C5C C 0.8428(6) 0.1475(4) 0.9489(3)
H18C H 0.9030 0.1335 0.9385
C6C C 0.5403(7) 0.1464(4) 0.8960(3)
H19C H 0.4929 0.1325 0.9179
H20C H 0.5422 0.1170 0.8683
C7C C 0.5010(6) 0.2040(4) 0.8699(4)
H21C H 0.5065 0.2337 0.8981
H22C H 0.5474 0.2161 0.8467
C8C C 0.3883(6) 0.2031(4) 0.8365(3)
C9C C 0.1989(7) 0.1983(5) 0.8296(4)
H23C H 0.1428 0.1913 0.8460
C10C C 0.3021(7) 0.1928(5) 0.8606(4)
H24C H 0.3144 0.1825 0.8972
C11C C 0.2588(7) 0.2198(5) 0.7542(4)
H25C H 0.2444 0.2281 0.7171
C12C C 0.3630(7) 0.2153(5) 0.7819(4)
H26C H 0.4171 0.2206 0.7637
C17B C -0.1900(8) 0.4970(5) 0.4067(4)
H35B H -0.2226 0.5126 0.3710
H36B H -0.2161 0.4571 0.4091
C18B C -0.2195(8) 0.5357(5) 0.4504(4)
H37B H -0.2951 0.5320 0.4486
H38B H -0.2047 0.5769 0.4439
O1 O -0.2312(15) 0.2752(8) 0.6361(8)
O42 O -0.7869(13) 0.1138(8) 0.5588(5)
O43 O -0.3022(10) 0.0900(5) 0.3906(4)
O44 O -0.6334(9) 0.0523(5) 0.6594(14)
O45 O -0.5804(10) 0.0121(5) 0.7246(6)
O46? O -0.4578(6) 0.0139(3) 0.7325(3)
C20? C -0.0825(12) 0.3358(7) 0.8030(7)
C21? C 0.0254(14) 0.1526(8) 0.6135(7)
loop_
_geom_bond_atom_site_label_1
_geom_bond_atom_site_label_2
_geom_bond_site_symmetry_1
_geom_bond_site_symmetry_2
Zn1 N5 1_555 1_555
Zn2 O19 1_555 1_555
Zn3 O11 1_555 1_555
Zn4 O8 1_555 1_555
As1 O14 1_555 1_555
As2 O8 1_555 1_555
As3 O26 1_555 1_555
As4 O18 1_555 1_555
As5 O2 1_555 1_555
As6 O2 1_555 1_555
As7 O13 1_555 1_555
As8 O11 1_555 1_555
V1 O3 1_555 1_555
V2 O9 1_555 1_555
V3 O20 1_555 1_555
V4 O16 1_555 1_555
V5 O12 1_555 1_555
V6 O19 1_555 1_555
V7 O15 1_555 1_555
V8 O4 1_555 1_555
V9 O5 1_555 1_555
V10 O6 1_555 1_555
V11 O7 1_555 1_555
V12 O10 1_555 1_555
O8 V9 1_555 1_555
O11 V11 1_555 1_555
O13 Zn3 1_555 1_555
O14 Zn4 1_555 1_555
O17 Zn3 1_555 1_555
O18 As2 1_555 1_555
O21 As7 1_555 1_555
O22 V2 1_555 1_555
O23 As7 1_555 1_555
O24 Zn3 1_555 1_555
O25 V1 1_555 1_555
O26 As1 1_555 1_555
O27 As6 1_555 1_555
O28 Zn4 1_555 1_555
O29 As2 1_555 1_555
O30 V1 1_555 1_555
O31 As3 1_555 1_555
O32 As8 1_555 1_555
O33 Zn4 1_555 1_555
O34 V3 1_555 1_555
O35 As4 1_555 1_555
O36 V4 1_555 1_555
O37 As5 1_555 1_555
O38 V6 1_555 1_555
O39 V5 1_555 1_555
O40 V5 1_555 1_555
O41 As1 1_555 1_555
N1 Zn3 1_555 1_555
N2 C9 1_555 1_555
N3 Zn2 1_555 1_555
H1 N3 1_555 1_555
H2 N3 1_555 1_555
N4 Zn2 1_555 1_555
H3 N4 1_555 1_555
H4 N4 1_555 1_555
N5 H5 1_555 1_555
H6 N5 1_555 1_555
N6 Zn1 1_555 1_555
H7 N6 1_555 1_555
H8 N6 1_555 1_555
N7 Zn1 1_555 1_555
H9 N7 1_555 1_555
H10 N7 1_555 1_555
N8 Zn1 1_555 1_555
H11 N8 1_555 1_555
H12 N8 1_555 1_555
N9 Zn1 1_555 1_555
H13 N9 1_555 1_555
H14 N9 1_555 1_555
C1 N1 1_555 1_555
H15 C1 1_555 1_555
C2 C1 1_555 1_555
H16 C2 1_555 1_555
C3 C2 1_555 1_555
C4 C3 1_555 1_555
H17 C4 1_555 1_555
C5 N1 1_555 1_555
H18 C5 1_555 1_555
C6 C3 1_555 1_555
H19 C6 1_555 1_555
H20 C6 1_555 1_555
C7 C6 1_555 1_555
H21 C7 1_555 1_555
H22 C7 1_555 1_555
C8 C7 1_555 1_555
C9 H23 1_555 1_555
C10 C8 1_555 1_555
H24 C10 1_555 1_555
C11 N2 1_555 1_555
H25 C11 1_555 1_555
C12 C8 1_555 1_555
H26 C12 1_555 1_555
C13 N5 1_555 1_555
H27 C13 1_555 1_555
H28 C13 1_555 1_555
C14 N6 1_555 1_555
H29 C14 1_555 1_555
H30 C14 1_555 1_555
C15 N7 1_555 1_555
H31 C15 1_555 1_555
H32 C15 1_555 1_555
C16 N8 1_555 1_555
H33 C16 1_555 1_555
H34 C16 1_555 1_555
C17 N3 1_555 1_555
H35 C17 1_555 1_555
H36 C17 1_555 1_555
C18 N4 1_555 1_555
H37 C18 1_555 1_555
H38 C18 1_555 1_555
C19 N9 1_555 1_555
H39 C19 1_555 1_555
H40 C19 1_555 1_555
Zn1B N5B 1_555 1_555
Zn3B O11B 1_555 1_555
Zn3C N1C 1_555 1_555
Zn4B O8B 1_555 1_555
Zn4C N2 1_555 1_555
As1B O14B 1_555 1_555
As2B O8B 1_555 1_555
As3B O26B 1_555 1_555
As4B O18B 1_555 1_555
As5B O2B 1_555 1_555
As6B O2B 1_555 1_555
As7B O13B 1_555 1_555
As8B O11B 1_555 1_555
V1B O3B 1_555 1_555
V2B O9B 1_555 1_555
V3B O20B 1_555 1_555
V4B O16B 1_555 1_555
V5B O12B 1_555 1_555
V6B O19B 1_555 1_555
V7B O15B 1_555 1_555
V8B O4B 1_555 1_555
V9B O5B 1_555 1_555
V10B O6B 1_555 1_555
V11B O7B 1_555 1_555
V12B O10B 1_555 1_555
O8B V9B 1_555 1_555
O11B V11B 1_555 1_555
O13B Zn3B 1_555 1_555
O14B Zn4B 1_555 1_555
O17B Zn3B 1_555 1_555
O18B As2B 1_555 1_555
O19B Zn2 1_555 1_555
O21B As7B 1_555 1_555
O22B V2B 1_555 1_555
O23B As7B 1_555 1_555
O24B Zn3B 1_555 1_555
O25B V1B 1_555 1_555
O26B As1B 1_555 1_555
O27B As6B 1_555 1_555
O28B Zn4B 1_555 1_555
O29B As2B 1_555 1_555
O30B V1B 1_555 1_555
O31B As3B 1_555 1_555
O32B As8B 1_555 1_555
O33B Zn4B 1_555 1_555
O34B V3B 1_555 1_555
O35B As4B 1_555 1_555
O36B V4B 1_555 1_555
O37B As5B 1_555 1_555
O38B V6B 1_555 1_555
O39B V5B 1_555 1_555
O40B V5B 1_555 1_555
O41B As1B 1_555 1_555
N1C C1C 1_555 1_555
N1B Zn3B 1_555 1_555
N2C Zn4 1_555 1_555
N2A Zn4B 1_555 1_555
N3B Zn2 1_555 1_555
H1B N3B 1_555 1_555
H2B N3B 1_555 1_555
N4B Zn2 1_555 1_555
H3B N4B 1_555 1_555
H4B N4B 1_555 1_555
N5B H5B 1_555 1_555
H6B N5B 1_555 1_555
N6B Zn1B 1_555 1_555
H7B N6B 1_555 1_555
H8B N6B 1_555 1_555
N7B Zn1B 1_555 1_555
H9B N7B 1_555 1_555
H10B N7B 1_555 1_555
N8B Zn1B 1_555 1_555
H11B N8B 1_555 1_555
H12B N8B 1_555 1_555
N9B Zn1B 1_555 1_555
H13B N9B 1_555 1_555
H14B N9B 1_555 1_555
C1C H15C 1_555 1_555
C2C C1C 1_555 1_555
H16C C2C 1_555 1_555
C3C C2C 1_555 1_555
C4C C3C 1_555 1_555
H17C C4C 1_555 1_555
C5C N1C 1_555 1_555
H18C C5C 1_555 1_555
C6C C3C 1_555 1_555
H19C C6C 1_555 1_555
H20C C6C 1_555 1_555
C7C C6C 1_555 1_555
H21C C7C 1_555 1_555
H22C C7C 1_555 1_555
C8C C7C 1_555 1_555
C9C N2C 1_555 1_555
H23C C9C 1_555 1_555
C10C C8C 1_555 1_555
H24C C10C 1_555 1_555
C11C N2C 1_555 1_555
H25C C11C 1_555 1_555
C12C C8C 1_555 1_555
H26C C12C 1_555 1_555
C13B N5B 1_555 1_555
H27B C13B 1_555 1_555
H28B C13B 1_555 1_555
C14B N6B 1_555 1_555
H29B C14B 1_555 1_555
H30B C14B 1_555 1_555
C15B N7B 1_555 1_555
H31B C15B 1_555 1_555
H32B C15B 1_555 1_555
C16B N8B 1_555 1_555
H33B C16B 1_555 1_555
H34B C16B 1_555 1_555
C17B N3B 1_555 1_555
H35B C17B 1_555 1_555
H36B C17B 1_555 1_555
C18B N4B 1_555 1_555
H37B C18B 1_555 1_555
H38B C18B 1_555 1_555
C19B C19 1_555 1_555
H39B C19B 1_555 1_555
H40B C19B 1_555 1_555
As3 O33 1_555 1_555
As4 O28 1_555 1_555
As5 O17 1_555 1_555
As6 O24 1_555 1_555
As8 O21 1_555 1_555
V1 O23 1_555 1_555
V1 O32 1_555 1_555
V2 O25 1_555 1_555
V2 O29 1_555 1_555
V2 O32 1_555 1_555
V3 O22 1_555 1_555
V3 O29 1_555 1_555
V3 O35 1_555 1_555
V4 O27 1_555 1_555
V4 O34 1_555 1_555
V4 O35 1_555 1_555
V5 O31 1_555 1_555
V5 O37 1_555 1_555
V6 O31 1_555 1_555
V6 O40 1_555 1_555
V6 O41 1_555 1_555
V7 O23 1_555 1_555
V7 O30 1_555 1_555
V7 O38 1_555 1_555
V7 O41 1_555 1_555
V8 O28 1_555 1_555
V8 O33 1_555 1_555
V8 O36 1_555 1_555
V8 O39 1_555 1_555
V9 O14 1_555 1_555
V9 O25 1_555 1_555
V9 O30 1_555 1_555
V10 O13 1_555 1_555
V10 O17 1_555 1_555
V10 O38 1_555 1_555
V10 O40 1_555 1_555
V11 O22 1_555 1_555
V11 O24 1_555 1_555
V11 O34 1_555 1_555
V12 O27 1_555 1_555
V12 O36 1_555 1_555
V12 O37 1_555 1_555
V12 O39 1_555 1_555
C4 C5 1_555 1_555
C9 C10 1_555 1_555
C11 C12 1_555 1_555
C13 C14 1_555 1_555
C15 C16 1_555 1_555
C17 C18 1_555 1_555
As3B O33B 1_555 1_555
As4B O28B 1_555 1_555
As5B O17B 1_555 1_555
As6B O24B 1_555 1_555
As8B O21B 1_555 1_555
V1B O23B 1_555 1_555
V1B O32B 1_555 1_555
V2B O25B 1_555 1_555
V2B O29B 1_555 1_555
V2B O32B 1_555 1_555
V3B O22B 1_555 1_555
V3B O29B 1_555 1_555
V3B O35B 1_555 1_555
V4B O27B 1_555 1_555
V4B O34B 1_555 1_555
V4B O35B 1_555 1_555
V5B O31B 1_555 1_555
V5B O37B 1_555 1_555
V6B O31B 1_555 1_555
V6B O40B 1_555 1_555
V6B O41B 1_555 1_555
V7B O23B 1_555 1_555
V7B O30B 1_555 1_555
V7B O38B 1_555 1_555
V7B O41B 1_555 1_555
V8B O28B 1_555 1_555
V8B O33B 1_555 1_555
V8B O36B 1_555 1_555
V8B O39B 1_555 1_555
V9B O14B 1_555 1_555
V9B O25B 1_555 1_555
V9B O30B 1_555 1_555
V10B O13B 1_555 1_555
V10B O17B 1_555 1_555
V10B O38B 1_555 1_555
V10B O40B 1_555 1_555
V11B O22B 1_555 1_555
V11B O24B 1_555 1_555
V11B O34B 1_555 1_555
V12B O27B 1_555 1_555
V12B O36B 1_555 1_555
V12B O37B 1_555 1_555
V12B O39B 1_555 1_555
N9B C19B 1_555 1_555
C4C C5C 1_555 1_555
C9C C10C 1_555 1_555
C11C C12C 1_555 1_555
C13B C14B 1_555 1_555
C15B C16B 1_555 1_555
C17B C18B 1_555 1_555

#END
