
#######################################################################
#
#                 Cambridge Crystallographic Data Centre
#                                CCDC 
#
#######################################################################
#
# If this CIF has been generated from an entry in the Cambridge 
# Structural Database, then it will include bibliographic, chemical, 
# crystal, experimental, refinement or atomic coordinate data resulting 
# from the CCDC's data processing and validation procedures.
#
#######################################################################

data_RIFLUP
_symmetry_cell_setting           orthorhombic
_symmetry_space_group_name_H-M   'P n n a'
_symmetry_Int_Tables_number      52
_space_group_name_Hall           '-P 2a 2bc'
loop_
_symmetry_equiv_pos_site_id
_symmetry_equiv_pos_as_xyz
1 x,y,z
2 1/2-x,-y,z
3 x,1/2-y,1/2-z
4 1/2-x,1/2+y,1/2-z
5 -x,-y,-z
6 1/2+x,y,-z
7 -x,1/2+y,1/2+z
8 1/2+x,1/2-y,1/2+z
_cell_length_a                   33.523
_cell_length_b                   21.280
_cell_length_c                   30.021
_cell_angle_alpha                90
_cell_angle_beta                 90
_cell_angle_gamma                90
_cell_volume                     21416.1
loop_
_atom_site_label
_atom_site_type_symbol
_atom_site_fract_x
_atom_site_fract_y
_atom_site_fract_z
Ni1 Ni 0.37013(3) 0.27868(5) -0.04766(3)
Tb1 Tb 0.613432(10) 0.177916(15) 0.200322(10)
C1 C 0.5742(3) 0.1527(4) 0.1214(3)
C2 C 0.5515(3) 0.1409(4) 0.0766(3)
C3 C 0.5158(3) 0.1040(4) 0.0780(4)
H1 H 0.5057 0.0875 0.1043
C4 C 0.4967(3) 0.0943(5) 0.0351(5)
H2 H 0.4735 0.0704 0.0346
C5 C 0.5098(4) 0.1169(6) -0.0032(4)
C6 C 0.5419(4) 0.1505(5) -0.0005(4)
H3 H 0.5509 0.1679 -0.0271
C7 C 0.5651(3) 0.1641(4) 0.0374(4)
H4 H 0.5884 0.1876 0.0357
C8 C 0.4859(3) 0.1039(4) -0.0422(3)
H5 H 0.4876 0.0593 -0.0485
H6 H 0.4975 0.1260 -0.0673
C9 C 0.4304(3) 0.1790(7) -0.0417(3)
C10 C 0.3760(3) 0.1225(3) -0.0379(2)
C11 C 0.4099(2) 0.0848(5) -0.0379(3)
C12 C 0.4061(3) 0.0198(5) -0.0371(3)
H7 H 0.4287 -0.0055 -0.0371
C13 C 0.3684(4) -0.0076(3) -0.0362(3)
H8 H 0.3659 -0.0511 -0.0357
C14 C 0.3346(3) 0.0301(5) -0.0362(3)
H9 H 0.3094 0.0118 -0.0357
C15 C 0.3384(2) 0.0952(5) -0.0370(2)
H10 H 0.3157 0.1204 -0.0370
C16 C 0.3136(3) 0.2268(4) -0.1056(5)
C17 C 0.2727(4) 0.2409(4) -0.0505(4)
C18 C 0.2515(4) 0.2122(4) -0.0860(5)
C19 C 0.2536(4) 0.2629(4) -0.0118(4)
H11 H 0.2671 0.2868 0.0093
C20 C 0.2142(4) 0.2474(6) -0.0067(4)
H12 H 0.2011 0.2568 0.0198
C21 C 0.1938(5) 0.2179(7) -0.0408(5)
H13 H 0.1668 0.2103 -0.0366
C22 C 0.2103(5) 0.1989(5) -0.0801(5)
H14 H 0.1955 0.1784 -0.1018
C23 C 0.3083(2) 0.4523(3) -0.1547(2)
H15 H 0.3281 0.4455 -0.1778
H16 H 0.3011 0.4964 -0.1550
C24 C 0.2716(2) 0.4131(3) -0.1649(3)
C25 C 0.2546(2) 0.3721(4) -0.1344(2)
H17 H 0.2642 0.3702 -0.1054
C26 C 0.2237(2) 0.3344(3) -0.1474(2)
H18 H 0.2141 0.3037 -0.1281
C27 C 0.2065(2) 0.3415(3) -0.1888(3)
C28 C 0.2232(2) 0.3840(3) -0.2187(2)
H19 H 0.2124 0.3879 -0.2471
C29 C 0.2556(2) 0.4207(3) -0.2069(2)
H20 H 0.2663 0.4497 -0.2268
C30 C 0.3469(2) 0.3827(5) -0.1031(3)
C31 C 0.3365(2) 0.4231(4) -0.0380(4)
C32 C 0.3192(3) 0.4639(5) -0.0686(4)
C33 C 0.3016(3) 0.5207(5) -0.0570(5)
H21 H 0.2900 0.5481 -0.0774
C34 C 0.3035(3) 0.5321(5) -0.0105(5)
H22 H 0.2940 0.5706 -0.0003
C35 C 0.3175(4) 0.4929(6) 0.0194(4)
H23 H 0.3140 0.5020 0.0495
C36 C 0.3369(3) 0.4392(5) 0.0076(3)
H24 H 0.3499 0.4143 0.0286
C37 C 0.4145(3) 0.3393(4) 0.0205(4)
C38 C 0.3642(5) 0.2959(7) 0.0627(4)
C39 C 0.3865(5) 0.3349(7) 0.0893(6)
C40 C 0.3803(5) 0.3490(6) 0.1327(6)
H25 H 0.3946 0.3778 0.1497
C41 C 0.3488(6) 0.3124(8) 0.1467(5)
H26 H 0.3447 0.3125 0.1774
C42 C 0.3220(4) 0.2755(9) 0.1229(6)
H27 H 0.2985 0.2607 0.1354
C43 C 0.3324(4) 0.2624(6) 0.0798(6)
H28 H 0.3188 0.2326 0.0630
C44 C 0.4470(3) 0.4102(4) 0.0773(3)
H29 H 0.4330 0.4460 0.0899
H30 H 0.4615 0.4246 0.0513
C45 C 0.4768(3) 0.3835(5) 0.1122(3)
C46 C 0.4838(3) 0.4179(4) 0.1488(4)
H31 H 0.4712 0.4566 0.1523
C47 C 0.5102(3) 0.3956(5) 0.1825(3)
H32 H 0.5148 0.4191 0.2081
C48 C 0.5290(3) 0.3381(5) 0.1763(3)
C49 C 0.5228(2) 0.3058(4) 0.1380(3)
H33 H 0.5366 0.2687 0.1328
C50 C 0.4959(3) 0.3280(5) 0.1066(3)
H34 H 0.4909 0.3042 0.0812
C51 C 0.5601(2) 0.3150(4) 0.2078(3)
C52 C 0.4556(3) 0.2376(5) -0.0384(3)
H35 H 0.4789 0.2326 -0.0572
H36 H 0.4648 0.2421 -0.0079
C53 C 0.4398(2) 0.3503(4) -0.0195(3)
H37 H 0.4325 0.3899 -0.0334
H38 H 0.4676 0.3525 -0.0109
C54 C 0.4411(2) 0.3167(5) -0.1004(3)
H39 H 0.4311 0.3588 -0.1056
H40 H 0.4694 0.3161 -0.1069
C55 C 0.4191(3) 0.2694(5) -0.1299(3)
H41 H 0.4241 0.2781 -0.1611
H42 H 0.4278 0.2269 -0.1233
C56 C 0.3590(2) 0.3353(4) -0.1374(2)
H43 H 0.3358 0.3248 -0.1553
H44 H 0.3785 0.3545 -0.1570
C57 C 0.3509(3) 0.2230(4) -0.1338(3)
H45 H 0.3648 0.1836 -0.1288
H46 H 0.3444 0.2264 -0.1652
C58 C 0.3474(3) -0.0603(4) -0.1898(3)
C59 C 0.3282(3) -0.0011(5) -0.1815(3)
C60 C 0.3345(3) 0.0450(6) -0.2099(3)
H47 H 0.3517 0.0386 -0.2337
C61 C 0.3158(4) 0.1037(6) -0.2052(3)
H48 H 0.3208 0.1360 -0.2253
C62 C 0.2905(3) 0.1120(4) -0.1709(4)
C63 C 0.2846(3) 0.0648(6) -0.1413(4)
H49 H 0.2680 0.0707 -0.1168
C64 C 0.3035(3) 0.0073(4) -0.1481(4)
H50 H 0.2985 -0.0257 -0.1286
C65 C 0.1713(2) 0.3021(3) -0.2042(3)
N1 N 0.3918(2) 0.1875(3) -0.0408(2)
N2 N 0.4438(3) 0.1210(5) -0.0392(3)
N3 N 0.3121(3) 0.2490(3) -0.0644(3)
N4 N 0.2781(4) 0.2027(3) -0.1200(3)
N5 N 0.3260(2) 0.4365(4) -0.1109(3)
N6 N 0.35346(18) 0.3724(3) -0.0590(3)
N7 N 0.3821(3) 0.2998(3) 0.0203(3)
N8 N 0.4178(3) 0.3618(4) 0.0640(4)
N9 N 0.43367(19) 0.2974(3) -0.0520(3)
N10 N 0.3759(2) 0.2770(4) -0.11939(19)
O1 O 0.56164(16) 0.1287(3) 0.15622(17)
O2 O 0.60335(15) 0.1878(3) 0.11836(15)
O3 O 0.33458(13) -0.1094(2) -0.16926(13)
O4 O 0.37647(17) -0.0648(2) -0.21389(16)
O5 O 0.15327(13) 0.3177(2) -0.23867(13)
O6 O 0.56515(14) 0.3475(2) 0.24248(15)
O7 O 0.16272(13) 0.2548(2) -0.18043(13)
O8 O 0.57457(13) 0.2651(2) 0.19995(17)
C66 C 0.2680(2) 0.1760(4) -0.1623(3)
H51 H 0.2394 0.1688 -0.1634
H52 H 0.2748 0.2056 -0.1856
Tb1B Tb 0.613432(10) 0.322084(15) 0.299678(10)
Tb1D Tb 0.386568(10) -0.177916(15) -0.200322(10)
Tb1E Tb 0.113432(10) 0.177916(15) -0.200322(10)
Tb1G Tb 0.113432(10) 0.322084(15) -0.299678(10)
O3D O 0.66542(13) 0.1094(2) 0.16926(13)
O4D O 0.62353(17) 0.0648(2) 0.21389(16)
O5G O 0.65327(13) 0.1823(2) 0.26133(13)
O6B O 0.56515(14) 0.1525(2) 0.25752(15)
O7E O 0.66272(13) 0.2548(2) 0.18043(13)
loop_
_geom_bond_atom_site_label_1
_geom_bond_atom_site_label_2
_geom_bond_site_symmetry_1
_geom_bond_site_symmetry_2
Ni1 N1 1_555 1_555
Tb1 O1 1_555 1_555
C1 C2 1_555 1_555
C2 C3 1_555 1_555
C3 H1 1_555 1_555
C4 C3 1_555 1_555
H2 C4 1_555 1_555
C5 C4 1_555 1_555
C6 C5 1_555 1_555
H3 C6 1_555 1_555
C7 C2 1_555 1_555
H4 C7 1_555 1_555
C8 C5 1_555 1_555
H5 C8 1_555 1_555
H6 C8 1_555 1_555
C9 C52 1_555 1_555
C10 C11 1_555 1_555
C11 C12 1_555 1_555
C12 H7 1_555 1_555
C13 C12 1_555 1_555
H8 C13 1_555 1_555
C14 C13 1_555 1_555
H9 C14 1_555 1_555
C15 C10 1_555 1_555
H10 C15 1_555 1_555
C16 C57 1_555 1_555
C17 C18 1_555 1_555
C18 C22 1_555 1_555
C19 C17 1_555 1_555
H11 C19 1_555 1_555
C20 C19 1_555 1_555
H12 C20 1_555 1_555
C21 C20 1_555 1_555
H13 C21 1_555 1_555
C22 C21 1_555 1_555
H14 C22 1_555 1_555
C23 H15 1_555 1_555
H16 C23 1_555 1_555
C24 C23 1_555 1_555
C25 C24 1_555 1_555
H17 C25 1_555 1_555
C26 C25 1_555 1_555
H18 C26 1_555 1_555
C27 C26 1_555 1_555
C28 C27 1_555 1_555
H19 C28 1_555 1_555
C29 C24 1_555 1_555
H20 C29 1_555 1_555
C30 C56 1_555 1_555
C31 C32 1_555 1_555
C32 C33 1_555 1_555
C33 H21 1_555 1_555
C34 C33 1_555 1_555
H22 C34 1_555 1_555
C35 C34 1_555 1_555
H23 C35 1_555 1_555
C36 C31 1_555 1_555
H24 C36 1_555 1_555
C37 C53 1_555 1_555
C38 C39 1_555 1_555
C39 C40 1_555 1_555
C40 H25 1_555 1_555
C41 C40 1_555 1_555
H26 C41 1_555 1_555
C42 C41 1_555 1_555
H27 C42 1_555 1_555
C43 C38 1_555 1_555
H28 C43 1_555 1_555
C44 H29 1_555 1_555
H30 C44 1_555 1_555
C45 C44 1_555 1_555
C46 C45 1_555 1_555
H31 C46 1_555 1_555
C47 C46 1_555 1_555
H32 C47 1_555 1_555
C48 C47 1_555 1_555
C49 C48 1_555 1_555
H33 C49 1_555 1_555
C50 C45 1_555 1_555
H34 C50 1_555 1_555
C51 C48 1_555 1_555
C52 H35 1_555 1_555
H36 C52 1_555 1_555
C53 H37 1_555 1_555
H38 C53 1_555 1_555
C54 H39 1_555 1_555
H40 C54 1_555 1_555
C55 C54 1_555 1_555
H41 C55 1_555 1_555
H42 C55 1_555 1_555
C56 H43 1_555 1_555
H44 C56 1_555 1_555
C57 H45 1_555 1_555
H46 C57 1_555 1_555
C58 C59 1_555 1_555
C59 C60 1_555 1_555
C60 H47 1_555 1_555
C61 C60 1_555 1_555
H48 C61 1_555 1_555
C62 C61 1_555 1_555
C63 C62 1_555 1_555
H49 C63 1_555 1_555
C64 C59 1_555 1_555
H50 C64 1_555 1_555
C65 C27 1_555 1_555
N1 C9 1_555 1_555
N2 C8 1_555 1_555
N3 Ni1 1_555 1_555
N4 C16 1_555 1_555
N5 C23 1_555 1_555
N6 Ni1 1_555 1_555
N7 Ni1 1_555 1_555
N8 C37 1_555 1_555
N9 Ni1 1_555 1_555
N10 Ni1 1_555 1_555
O1 C1 1_555 1_555
O2 Tb1 1_555 1_555
O3 C58 1_555 1_555
O4 C58 1_555 1_555
O5 C65 1_555 1_555
O6 C51 1_555 1_555
O7 C65 1_555 1_555
O8 Tb1 1_555 1_555
C66 C62 1_555 1_555
H51 C66 1_555 1_555
H52 C66 1_555 1_555
Tb1B O6 1_555 1_555
Tb1D O3 1_555 1_555
Tb1E O7 1_555 1_555
Tb1G O5 1_555 1_555
O3D Tb1 1_555 1_555
O4D Tb1 1_555 1_555
O5G Tb1 1_555 1_555
O6B Tb1 1_555 1_555
O7E Tb1 1_555 1_555
C1 O2 1_555 1_555
C6 C7 1_555 1_555
C9 N2 1_555 1_555
C10 N1 1_555 1_555
C11 N2 1_555 1_555
C14 C15 1_555 1_555
C16 N3 1_555 1_555
C17 N3 1_555 1_555
C18 N4 1_555 1_555
C28 C29 1_555 1_555
C30 N5 1_555 1_555
C30 N6 1_555 1_555
C31 N6 1_555 1_555
C32 N5 1_555 1_555
C35 C36 1_555 1_555
C37 N7 1_555 1_555
C38 N7 1_555 1_555
C39 N8 1_555 1_555
C42 C43 1_555 1_555
C44 N8 1_555 1_555
C49 C50 1_555 1_555
C51 O8 1_555 1_555
C52 N9 1_555 1_555
C53 N9 1_555 1_555
C54 N9 1_555 1_555
C55 N10 1_555 1_555
C56 N10 1_555 1_555
C57 N10 1_555 1_555
C63 C64 1_555 1_555
N4 C66 1_555 1_555
O4 Tb1D 1_555 1_555

#END
