
#######################################################################
#
#                 Cambridge Crystallographic Data Centre
#                                CCDC 
#
#######################################################################
#
# If this CIF has been generated from an entry in the Cambridge 
# Structural Database, then it will include bibliographic, chemical, 
# crystal, experimental, refinement or atomic coordinate data resulting 
# from the CCDC's data processing and validation procedures.
#
#######################################################################

data_RIFMOK
_symmetry_cell_setting           orthorhombic
_symmetry_space_group_name_H-M   'P n n a'
_symmetry_Int_Tables_number      52
_space_group_name_Hall           '-P 2a 2bc'
loop_
_symmetry_equiv_pos_site_id
_symmetry_equiv_pos_as_xyz
1 x,y,z
2 1/2-x,-y,z
3 x,1/2-y,1/2-z
4 1/2-x,1/2+y,1/2-z
5 -x,-y,-z
6 1/2+x,y,-z
7 -x,1/2+y,1/2+z
8 1/2+x,1/2-y,1/2+z
_cell_length_a                   33.621(3)
_cell_length_b                   21.4450(19)
_cell_length_c                   30.163(3)
_cell_angle_alpha                90
_cell_angle_beta                 90
_cell_angle_gamma                90
_cell_volume                     21747.6
loop_
_atom_site_label
_atom_site_type_symbol
_atom_site_fract_x
_atom_site_fract_y
_atom_site_fract_z
C1 C 0.31433(18) 0.7266(3) 0.3938(3)
C2 C 0.57393(19) 0.6546(3) 0.6205(2)
C3 C 0.25364(15) 0.71248(19) 0.41310(15)
C4 C 0.27562(11) 0.74243(19) 0.44581(18)
C5 C 0.25738(17) 0.76059(19) 0.48510(16)
H1 H 0.2721 0.7806 0.5070
C6 C 0.21716(18) 0.7488(2) 0.49168(17)
H2 H 0.2050 0.7609 0.5180
C7 C 0.19518(11) 0.7188(2) 0.4590(2)
H3 H 0.1683 0.7110 0.4634
C8 C 0.21341(15) 0.70069(19) 0.41969(19)
H4 H 0.1987 0.6807 0.3978
C9 C 0.34626(15) 0.4370(2) 0.31163(18)
C10 C 0.34760(16) 0.8808(3) 0.3956(2)
C11 C 0.32046(12) 0.9620(2) 0.42795(12)
C12 C 0.33710(11) 0.92307(15) 0.45980(14)
C13 C 0.33552(13) 0.93953(19) 0.50434(13)
H5 H 0.3467 0.9135 0.5256
C14 C 0.31729(15) 0.9949(2) 0.51703(14)
H6 H 0.3162 1.0059 0.5468
C15 C 0.30065(13) 1.03382(17) 0.4852(2)
H7 H 0.2885 1.0709 0.4937
C16 C 0.30223(12) 1.01735(19) 0.44064(18)
H8 H 0.2911 1.0434 0.4193
C17 C 0.41549(18) 0.8381(2) 0.5195(2)
C18 C 0.36887(15) 0.7957(2) 0.55901(14)
C19 C 0.39030(13) 0.8355(2) 0.5864(2)
C20 C 0.37923(19) 0.8428(3) 0.63054(18)
H9 H 0.3936 0.8694 0.6489
C21 C 0.3467(2) 0.8103(3) 0.64719(14)
H10 H 0.3393 0.8152 0.6767
C22 C 0.32529(15) 0.7705(3) 0.6198(2)
H11 H 0.3035 0.7488 0.6309
C23 C 0.33636(15) 0.7632(2) 0.5757(2)
H12 H 0.3220 0.7366 0.5573
C24 C 0.4313(2) 0.6859(4) 0.4588(2)
C25 C 0.55930(15) 0.8163(3) 0.70937(19)
C26 C 0.45685(18) 0.7418(3) 0.4616(2)
H13 H 0.4796 0.7368 0.4422
H14 H 0.4666 0.7464 0.4917
C27 C 0.44147(18) 0.8170(3) 0.4002(2)
H15 H 0.4331 0.8597 0.3949
H16 H 0.4697 0.8142 0.3940
C28 C 0.41907(17) 0.7738(4) 0.3701(2)
H17 H 0.4281 0.7313 0.3747
H18 H 0.4241 0.7849 0.3394
C29 C 0.3496(2) 0.7228(3) 0.3670(2)
H19 H 0.3428 0.7245 0.3358
H20 H 0.3636 0.6841 0.3728
C30 C 0.35849(19) 0.8372(3) 0.36154(19)
H21 H 0.3780 0.8564 0.3422
H22 H 0.3352 0.8275 0.3439
C31 C 0.44039(18) 0.8517(3) 0.4811(2)
H23 H 0.4682 0.8534 0.4897
H24 H 0.4330 0.8915 0.4682
C32 C 0.4875(2) 0.6093(3) 0.4566(3)
H25 H 0.4996 0.6344 0.4335
H26 H 0.4901 0.5659 0.4479
C33 C 0.51058(14) 0.6195(2) 0.49991(14)
C34 C 0.49709(12) 0.5946(2) 0.53971(18)
H27 H 0.4741 0.5706 0.5403
C35 C 0.51803(14) 0.6056(2) 0.57868(14)
H28 H 0.5090 0.5890 0.6053
C36 C 0.55245(12) 0.6415(2) 0.57783(13)
C37 C 0.56594(11) 0.6664(2) 0.53802(17)
H29 H 0.5890 0.6904 0.5374
C38 C 0.54501(16) 0.6554(2) 0.49906(13)
H30 H 0.5540 0.6720 0.4724
C39 C 0.30929(17) 0.9518(3) 0.3458(2)
H31 H 0.3286 0.9471 0.3222
H32 H 0.3019 0.9955 0.3473
C40 C 0.27243(14) 0.9129(2) 0.33487(17)
C41 C 0.25552(14) 0.8714(2) 0.36557(15)
H33 H 0.2659 0.8679 0.3941
C42 C 0.22327(14) 0.83603(18) 0.35269(15)
H34 H 0.2122 0.8081 0.3728
C43 C 0.20694(13) 0.84067(19) 0.31119(17)
C44 C 0.22313(14) 0.8828(2) 0.28120(15)
H35 H 0.2120 0.8870 0.2531
C45 C 0.25598(16) 0.9190(2) 0.29296(16)
H36 H 0.2668 0.9470 0.2728
C46 C 0.47758(17) 0.8844(2) 0.6097(2)
C47 C 0.4970(2) 0.8289(3) 0.6054(2)
H37 H 0.4923 0.8052 0.5801
C48 C 0.5229(2) 0.8065(3) 0.6363(2)
H38 H 0.5363 0.7692 0.6311
C49 C 0.52975(15) 0.8399(3) 0.6766(2)
C50 C 0.50863(18) 0.8963(3) 0.6806(2)
H39 H 0.5128 0.9210 0.7056
C51 C 0.48272(19) 0.9158(3) 0.6497(2)
H40 H 0.4677 0.9513 0.6552
C52 C 0.4479(2) 0.9067(3) 0.5766(2)
H41 H 0.4335 0.9416 0.5893
H42 H 0.4621 0.9221 0.5508
C53 C 0.26876(19) 0.6754(2) 0.3380(3)
H43 H 0.2743 0.7046 0.3142
H44 H 0.2404 0.6672 0.3380
C54 C 0.29112(13) 0.61417(15) 0.32895(18)
C55 C 0.28272(12) 0.5659(2) 0.35827(17)
H45 H 0.2648 0.5722 0.3813
C56 C 0.30108(14) 0.50831(17) 0.35311(16)
H46 H 0.2955 0.4760 0.3727
C57 C 0.32785(12) 0.49894(15) 0.31862(16)
C58 C 0.33625(14) 0.5472(2) 0.28930(13)
H47 H 0.3542 0.5409 0.2662
C59 C 0.31788(16) 0.60479(19) 0.29446(15)
H48 H 0.3235 0.6371 0.2748
C60 C 0.3803(2) 0.62845(19) 0.4600(2)
C61 C 0.41281(15) 0.5884(3) 0.4589(2)
C62 C 0.4070(2) 0.5243(3) 0.4607(2)
H49 H 0.4288 0.4975 0.4600
C63 C 0.3687(3) 0.5002(2) 0.4636(3)
H50 H 0.3649 0.4573 0.4648
C64 C 0.33623(18) 0.5402(3) 0.4647(3)
H51 H 0.3106 0.5241 0.4666
C65 C 0.34201(17) 0.6043(3) 0.4629(3)
H52 H 0.3203 0.6311 0.4636
N1 N 0.35382(12) 0.87151(19) 0.43964(15)
N2 N 0.38376(15) 0.7987(2) 0.51630(16)
N3 N 0.43364(13) 0.7998(2) 0.44843(19)
N4 N 0.39316(17) 0.6903(2) 0.4584(2)
N5 N 0.37525(13) 0.7783(3) 0.37968(15)
N6 N 0.31454(14) 0.74936(19) 0.43465(18)
N7 N 0.41925(14) 0.8603(2) 0.56203(17)
N8 N 0.27966(17) 0.7036(2) 0.3797(2)
N9 N 0.32721(14) 0.9336(2) 0.38724(15)
N10 N 0.44516(19) 0.6248(3) 0.4594(2)
O1 O 0.33313(10) 0.39040(15) 0.33051(12)
O2 O 0.57512(10) 0.76559(16) 0.70062(12)
O3 O 0.37564(12) 0.43409(15) 0.28603(13)
O4 O 0.56573(10) 0.84883(15) 0.74348(12)
O5 O 0.60508(12) 0.68662(17) 0.61874(11)
O6 O 0.56181(12) 0.6286(2) 0.65426(15)
Ni1 Ni 0.37114(2) 0.77937(3) 0.45139(3)
Eu1 Eu 0.385747(7) 0.321916(11) 0.299671(8)
O7 O 0.15419(9) 0.81748(15) 0.26184(11)
O8 O 0.16391(9) 0.75425(15) 0.31992(11)
C66 C 0.17249(14) 0.8013(2) 0.29612(19)
O2D O 0.42488(10) 0.23441(16) 0.29938(12)
O4F O 0.43427(10) 0.34883(15) 0.24348(12)
O5D O 0.39492(12) 0.31338(17) 0.38126(11)
O6D O 0.43819(12) 0.3714(2) 0.34574(15)
Eu1A Eu 0.114253(7) 0.678084(11) 0.299671(8)
Eu1C Eu 0.114253(7) 0.821916(11) 0.200329(8)
Eu1D Eu 0.614253(7) 0.678084(11) 0.700329(8)
Eu1F Eu 0.614253(7) 0.821916(11) 0.799671(8)
O7C O 0.34581(9) 0.31748(15) 0.23816(11)
O8A O 0.33609(9) 0.24575(15) 0.31992(11)
loop_
_geom_bond_atom_site_label_1
_geom_bond_atom_site_label_2
_geom_bond_site_symmetry_1
_geom_bond_site_symmetry_2
C1 C29 1_555 1_555
C2 C36 1_555 1_555
C3 C4 1_555 1_555
C4 C5 1_555 1_555
C5 H1 1_555 1_555
C6 C5 1_555 1_555
H2 C6 1_555 1_555
C7 C6 1_555 1_555
H3 C7 1_555 1_555
C8 C3 1_555 1_555
H4 C8 1_555 1_555
C9 C57 1_555 1_555
C10 C30 1_555 1_555
C11 C12 1_555 1_555
C12 C13 1_555 1_555
C13 H5 1_555 1_555
C14 C13 1_555 1_555
H6 C14 1_555 1_555
C15 C14 1_555 1_555
H7 C15 1_555 1_555
C16 C11 1_555 1_555
H8 C16 1_555 1_555
C17 C31 1_555 1_555
C18 C19 1_555 1_555
C19 C20 1_555 1_555
C20 H9 1_555 1_555
C21 C20 1_555 1_555
H10 C21 1_555 1_555
C22 C21 1_555 1_555
H11 C22 1_555 1_555
C23 C18 1_555 1_555
H12 C23 1_555 1_555
C24 C26 1_555 1_555
C25 C49 1_555 1_555
C26 H13 1_555 1_555
H14 C26 1_555 1_555
C27 H15 1_555 1_555
H16 C27 1_555 1_555
C28 C27 1_555 1_555
H17 C28 1_555 1_555
H18 C28 1_555 1_555
C29 H19 1_555 1_555
H20 C29 1_555 1_555
C30 H21 1_555 1_555
H22 C30 1_555 1_555
C31 H23 1_555 1_555
H24 C31 1_555 1_555
C32 H25 1_555 1_555
H26 C32 1_555 1_555
C33 C32 1_555 1_555
C34 C33 1_555 1_555
H27 C34 1_555 1_555
C35 C34 1_555 1_555
H28 C35 1_555 1_555
C36 C35 1_555 1_555
C37 C36 1_555 1_555
H29 C37 1_555 1_555
C38 C33 1_555 1_555
H30 C38 1_555 1_555
C39 H31 1_555 1_555
H32 C39 1_555 1_555
C40 C39 1_555 1_555
C41 C40 1_555 1_555
H33 C41 1_555 1_555
C42 C41 1_555 1_555
H34 C42 1_555 1_555
C43 C42 1_555 1_555
C44 C43 1_555 1_555
H35 C44 1_555 1_555
C45 C40 1_555 1_555
H36 C45 1_555 1_555
C46 C47 1_555 1_555
C47 H37 1_555 1_555
C48 C47 1_555 1_555
H38 C48 1_555 1_555
C49 C48 1_555 1_555
C50 C49 1_555 1_555
H39 C50 1_555 1_555
C51 C46 1_555 1_555
H40 C51 1_555 1_555
C52 C46 1_555 1_555
H41 C52 1_555 1_555
H42 C52 1_555 1_555
C53 H43 1_555 1_555
H44 C53 1_555 1_555
C54 C53 1_555 1_555
C55 C54 1_555 1_555
H45 C55 1_555 1_555
C56 C55 1_555 1_555
H46 C56 1_555 1_555
C57 C56 1_555 1_555
C58 C57 1_555 1_555
H47 C58 1_555 1_555
C59 C54 1_555 1_555
H48 C59 1_555 1_555
C60 C61 1_555 1_555
C61 C62 1_555 1_555
C62 H49 1_555 1_555
C63 C62 1_555 1_555
H50 C63 1_555 1_555
C64 C63 1_555 1_555
H51 C64 1_555 1_555
C65 C60 1_555 1_555
H52 C65 1_555 1_555
N1 C10 1_555 1_555
N2 C17 1_555 1_555
N3 C26 1_555 1_555
N4 C24 1_555 1_555
N5 C28 1_555 1_555
N6 C1 1_555 1_555
N7 C17 1_555 1_555
N8 C1 1_555 1_555
N9 C10 1_555 1_555
N10 C24 1_555 1_555
O1 C9 1_555 1_555
O2 C25 1_555 1_555
O3 C9 1_555 1_555
O4 C25 1_555 1_555
O5 C2 1_555 1_555
O6 C2 1_555 1_555
Ni1 N1 1_555 1_555
Eu1 O1 1_555 1_555
O7 C66 1_555 1_555
O8 C66 1_555 1_555
C66 C43 1_555 1_555
O2D Eu1 1_555 1_555
O4F Eu1 1_555 1_555
O5D Eu1 1_555 1_555
O6D Eu1 1_555 1_555
Eu1A O8 1_555 1_555
Eu1C O7 1_555 1_555
Eu1D O2 1_555 1_555
Eu1F O4 1_555 1_555
O7C Eu1 1_555 1_555
O8A Eu1 1_555 1_555
C3 N8 1_555 1_555
C4 N6 1_555 1_555
C7 C8 1_555 1_555
C11 N9 1_555 1_555
C12 N1 1_555 1_555
C15 C16 1_555 1_555
C18 N2 1_555 1_555
C19 N7 1_555 1_555
C22 C23 1_555 1_555
C27 N3 1_555 1_555
C29 N5 1_555 1_555
C30 N5 1_555 1_555
C31 N3 1_555 1_555
C32 N10 1_555 1_555
C37 C38 1_555 1_555
C39 N9 1_555 1_555
C44 C45 1_555 1_555
C50 C51 1_555 1_555
C52 N7 1_555 1_555
C53 N8 1_555 1_555
C58 C59 1_555 1_555
C60 N4 1_555 1_555
C61 N10 1_555 1_555
C64 C65 1_555 1_555
N2 Ni1 1_555 1_555
N3 Ni1 1_555 1_555
N4 Ni1 1_555 1_555
N5 Ni1 1_555 1_555
N6 Ni1 1_555 1_555
O3 Eu1 1_555 1_555
O5 Eu1D 1_555 1_555
O6 Eu1D 1_555 1_555

#END
