
#######################################################################
#
#                 Cambridge Crystallographic Data Centre
#                                CCDC 
#
#######################################################################
#
# If this CIF has been generated from an entry in the Cambridge 
# Structural Database, then it will include bibliographic, chemical, 
# crystal, experimental, refinement or atomic coordinate data resulting 
# from the CCDC's data processing and validation procedures.
#
#######################################################################

data_RIFMEA
_symmetry_cell_setting           triclinic
_symmetry_space_group_name_H-M   'P -1'
_symmetry_Int_Tables_number      2
_space_group_name_Hall           '-P 1'
loop_
_symmetry_equiv_pos_site_id
_symmetry_equiv_pos_as_xyz
1 x,y,z
2 -x,-y,-z
_cell_length_a                   13.299(2)
_cell_length_b                   16.398(3)
_cell_length_c                   18.333(3)
_cell_angle_alpha                98.535(2)
_cell_angle_beta                 106.088(2)
_cell_angle_gamma                94.143(3)
_cell_volume                     3771.75
loop_
_atom_site_label
_atom_site_type_symbol
_atom_site_fract_x
_atom_site_fract_y
_atom_site_fract_z
C1 C 0.3071(6) 0.1697(5) 0.2605(5)
C2 C 0.2287(4) 0.1728(4) 0.1415(3)
C3 C 0.3340(4) 0.1661(3) 0.1471(3)
C4 C 0.3686(4) 0.1639(3) 0.0820(4)
H1 H 0.4391 0.1594 0.0857
C5 C 0.2979(6) 0.1683(4) 0.0113(3)
H2 H 0.3210 0.1668 -0.0323
C6 C 0.1925(6) 0.1750(4) 0.0057(3)
H3 H 0.1452 0.1780 -0.0416
C7 C 0.1579(4) 0.1773(4) 0.0708(4)
H4 H 0.0874 0.1818 0.0671
C8 C 0.4902(6) 0.1444(6) 0.2515(6)
H5 H 0.5125 0.1583 0.3074
H6 H 0.5367 0.1781 0.2324
C9 C 0.4988(6) 0.0520(6) 0.2267(5)
C10 C 0.5635(7) 0.0285(6) 0.1823(5)
H7 H 0.6023 0.0690 0.1674
C11 C 0.5719(7) -0.0546(6) 0.1595(5)
H8 H 0.6180 -0.0687 0.1310
C12 C 0.5136(6) -0.1163(6) 0.1781(5)
C13 C 0.4500(8) -0.0925(7) 0.2233(7)
H9 H 0.4120 -0.1326 0.2392
C14 C 0.4423(8) -0.0103(7) 0.2449(6)
H10 H 0.3962 0.0037 0.2735
C15 C 0.5171(6) -0.2040(6) 0.1527(5)
C16 C 0.1744(5) 0.0339(5) 0.3393(4)
C17 C 0.1191(5) -0.0285(5) 0.2219(4)
C18 C 0.1682(6) -0.0840(5) 0.2646(4)
C19 C 0.0800(6) -0.0515(5) 0.1413(4)
H11 H 0.0428 -0.0164 0.1112
C20 C 0.0981(6) -0.1261(6) 0.1091(5)
H12 H 0.0760 -0.1409 0.0557
C21 C 0.1487(7) -0.1820(6) 0.1527(5)
H13 H 0.1594 -0.2329 0.1278
C22 C 0.1827(6) -0.1635(5) 0.2311(5)
H14 H 0.2138 -0.2012 0.2608
C23 C 0.2504(7) -0.0814(6) 0.4079(5)
H15 H 0.2748 -0.0390 0.4538
H16 H 0.3107 -0.1077 0.4005
C24 C 0.1701(8) -0.1461(7) 0.4191(5)
C25 C 0.1885(9) -0.2279(7) 0.4154(5)
H17 H 0.2517 -0.2420 0.4076
C26 C 0.1193(11) -0.2892(8) 0.4225(6)
H18 H 0.1346 -0.3439 0.4199
C27 C 0.0238(11) -0.2672(8) 0.4339(6)
C28 C 0.0054(9) -0.1839(9) 0.4391(5)
H19 H -0.0574 -0.1692 0.4472
C29 C 0.0799(8) -0.1213(7) 0.4322(5)
H20 H 0.0678 -0.0659 0.4365
C30 C -0.0597(17) -0.3314(10) 0.4389(8)
C31 C -0.0418(5) 0.2378(5) 0.3453(4)
C32 C -0.0900(6) 0.1102(5) 0.3401(4)
C33 C -0.0993(6) 0.0217(5) 0.3320(5)
H21 H -0.0499 -0.0088 0.3170
C34 C -0.1859(7) -0.0163(6) 0.3475(5)
H22 H -0.1960 -0.0739 0.3407
C35 C -0.2582(7) 0.0287(7) 0.3729(5)
H23 H -0.3131 0.0003 0.3846
C36 C -0.2508(6) 0.1149(6) 0.3813(4)
H24 H -0.3004 0.1447 0.3968
C37 C -0.1658(6) 0.1535(5) 0.3652(4)
C38 C -0.1907(6) 0.3061(5) 0.3785(4)
H25 H -0.1438 0.3530 0.4123
H26 H -0.2434 0.2907 0.4031
C39 C -0.2448(5) 0.3315(5) 0.3023(4)
C40 C -0.2777(5) 0.2747(4) 0.2353(4)
H27 H -0.2645 0.2198 0.2357
C41 C -0.3310(5) 0.2988(5) 0.1663(4)
H28 H -0.3538 0.2595 0.1211
C42 C -0.3499(5) 0.3797(5) 0.1643(4)
C43 C -0.3180(7) 0.4368(5) 0.2305(5)
H29 H -0.3316 0.4916 0.2299
C44 C -0.2649(6) 0.4125(5) 0.2990(5)
H30 H -0.2423 0.4519 0.3440
C45 C 0.2300(6) 0.2625(5) 0.4131(5)
H31 H 0.2984 0.2804 0.4505
H32 H 0.1775 0.2600 0.4406
C46 C 0.2053(6) 0.3229(6) 0.3582(5)
H33 H 0.2084 0.3781 0.3871
H34 H 0.2575 0.3245 0.3304
C47 C 0.3284(6) 0.1729(5) 0.3455(4)
H35 H 0.3585 0.1233 0.3597
H36 H 0.3792 0.2206 0.3730
C48 C 0.0165(5) 0.3175(4) 0.3401(4)
H37 H -0.0319 0.3498 0.3099
H38 H 0.0477 0.3499 0.3913
C49 C 0.7858(16) -0.3545(11) 0.2025(9)
H39 H 0.8062 -0.4072 0.1932
C50 C 0.0787(6) 0.3314(5) 0.2289(4)
H40 H 0.0592 0.3873 0.2358
H41 H 0.1410 0.3327 0.2110
C51 C -0.0096(5) 0.2740(5) 0.1721(4)
C52 C -0.1097(5) 0.1588(4) 0.1161(4)
C53 C -0.1525(6) 0.2216(5) 0.0775(4)
C54 C -0.1587(6) 0.0789(5) 0.0957(4)
H42 H -0.1319 0.0372 0.1220
C55 C -0.2432(6) 0.2072(6) 0.0155(5)
H43 H -0.2703 0.2492 -0.0103
C56 C -0.2508(7) 0.0628(6) 0.0336(5)
H44 H -0.2861 0.0093 0.0180
C57 C -0.2904(7) 0.1262(7) -0.0053(5)
H45 H -0.3512 0.1132 -0.0469
C58 C -0.0977(7) 0.3793(5) 0.0943(5)
H46 H -0.1101 0.4159 0.1367
H47 H -0.1578 0.3762 0.0492
C59 C 0.8476(18) -0.2126(11) 0.2198(10)
H48 H 0.9160 -0.1826 0.2295
H49 H 0.8194 -0.1949 0.2616
H50 H 0.8015 -0.2018 0.1726
C60 C 0.9611(14) -0.3116(12) 0.2158(11)
H51 H 1.0028 -0.2594 0.2222
H52 H 0.9609 -0.3459 0.1686
H53 H 0.9904 -0.3389 0.2584
C61 C -0.4046(8) 0.4040(8) 0.0894(6)
C62 C 0.2915(17) 0.5316(14) 0.0687(12)
C63 C 0.2080(6) 0.1069(5) 0.4040(4)
H54 H 0.1524 0.1159 0.4281
H55 H 0.2707 0.0980 0.4428
C64 C 0.1408(6) 0.3981(7) 0.0195(5)
H56 H 0.1726 0.3659 -0.0118
C65 C 0.0481(6) 0.3658(4) 0.0313(4)
H57 H 0.0179 0.3120 0.0077
C66 C 0.0005(5) 0.4138(5) 0.0781(4)
C67 C 0.0456(8) 0.4942(4) 0.1133(4)
H58 H 0.0138 0.5264 0.1447
C68 C 0.1383(8) 0.5265(5) 0.1016(5)
H59 H 0.1685 0.5803 0.1251
C69 C 0.1859(5) 0.4785(7) 0.0547(6)
N1 N -0.0193(4) 0.1947(3) 0.1750(3)
N2 N 0.2139(5) 0.1770(4) 0.2152(3)
N3 N 0.1228(4) 0.0450(4) 0.2708(3)
N4 N 0.2301(4) 0.1788(4) 0.3681(3)
N5 N -0.0133(4) 0.1648(4) 0.3284(3)
N6 N 0.1001(4) 0.2987(4) 0.3033(3)
N7 N 0.3821(5) 0.1633(4) 0.2220(4)
N8 N 0.2038(4) -0.0422(4) 0.3404(3)
N9 N -0.1307(4) 0.2366(4) 0.3683(3)
N10 N -0.0862(4) 0.2947(4) 0.1142(3)
N11 N 0.8560(8) -0.2977(7) 0.2135(5)
O1 O -0.0328(9) -0.4081(7) 0.4356(6)
O2 O -0.1458(11) -0.3090(8) 0.4438(7)
O3 O 0.3005(9) 0.6221(8) 0.0973(6)
O4 O 0.5679(7) -0.2277(4) 0.1075(4)
O5 O 0.6922(6) -0.3542(5) 0.2017(4)
O6 O -0.4350(5) 0.4741(5) 0.0867(3)
O7 O 0.4709(7) -0.2575(5) 0.1738(6)
O8 O 0.3424(6) 0.5113(7) 0.0451(5)
O9 O -0.4267(6) 0.3507(6) 0.0298(4)
O10 O 0.4847(6) -0.4310(5) 0.2169(4)
Ni1 Ni 0.09619(7) 0.16727(6) 0.26759(5)
La1 La 0.51485(5) -0.38594(3) 0.09646(3)
N12 N 0.4322(18) -0.5546(10) 0.2801(13)
C70 C 0.3750(17) -0.6005(14) 0.2009(11)
H60 H 0.3485 -0.6555 0.2040
H61 H 0.4225 -0.6038 0.1698
H62 H 0.3174 -0.5716 0.1780
C71 C 0.474(2) -0.4856(16) 0.2648(16)
H63 H 0.5230 -0.4616 0.3116
C72 C 0.4728(18) -0.6107(14) 0.3381(11)
H64 H 0.4312 -0.6640 0.3217
H65 H 0.4680 -0.5862 0.3878
H66 H 0.5450 -0.6173 0.3415
O11 O 0.6556(5) -0.3834(7) 0.0309(4)
H67 H 0.6365 -0.4168 -0.0097
O3_2 O 0.3005(9) -0.3779(8) 0.0973(6)
O6_2 O 0.5650(5) -0.5259(5) 0.0867(3)
O8_2 O 0.3424(6) -0.4887(7) 0.0451(5)
O9A O 0.4267(6) -0.3507(6) -0.0298(4)
La1_2 La -0.48515(5) 0.61406(3) 0.09646(3)
La1_3 La 0.51485(5) 0.61406(3) 0.09646(3)
La1A La -0.51485(5) 0.38594(3) -0.09646(3)
loop_
_geom_bond_atom_site_label_1
_geom_bond_atom_site_label_2
_geom_bond_site_symmetry_1
_geom_bond_site_symmetry_2
C1 C47 1_555 1_555
C2 C3 1_555 1_555
C3 C4 1_555 1_555
C4 H1 1_555 1_555
C5 C4 1_555 1_555
H2 C5 1_555 1_555
C6 C5 1_555 1_555
H3 C6 1_555 1_555
C7 C2 1_555 1_555
H4 C7 1_555 1_555
C8 H5 1_555 1_555
H6 C8 1_555 1_555
C9 C8 1_555 1_555
C10 C9 1_555 1_555
H7 C10 1_555 1_555
C11 C10 1_555 1_555
H8 C11 1_555 1_555
C12 C11 1_555 1_555
C13 C12 1_555 1_555
H9 C13 1_555 1_555
C14 C9 1_555 1_555
H10 C14 1_555 1_555
C15 C12 1_555 1_555
C16 C63 1_555 1_555
C17 C18 1_555 1_555
C18 C22 1_555 1_555
C19 C17 1_555 1_555
H11 C19 1_555 1_555
C20 C19 1_555 1_555
H12 C20 1_555 1_555
C21 C20 1_555 1_555
H13 C21 1_555 1_555
C22 C21 1_555 1_555
H14 C22 1_555 1_555
C23 H15 1_555 1_555
H16 C23 1_555 1_555
C24 C23 1_555 1_555
C25 C24 1_555 1_555
H17 C25 1_555 1_555
C26 C25 1_555 1_555
H18 C26 1_555 1_555
C27 C26 1_555 1_555
C28 C27 1_555 1_555
H19 C28 1_555 1_555
C29 C24 1_555 1_555
H20 C29 1_555 1_555
C30 C27 1_555 1_555
C31 C48 1_555 1_555
C32 C33 1_555 1_555
C33 H21 1_555 1_555
C34 C33 1_555 1_555
H22 C34 1_555 1_555
C35 C34 1_555 1_555
H23 C35 1_555 1_555
C36 C35 1_555 1_555
H24 C36 1_555 1_555
C37 C32 1_555 1_555
C38 H25 1_555 1_555
H26 C38 1_555 1_555
C39 C38 1_555 1_555
C40 C39 1_555 1_555
H27 C40 1_555 1_555
C41 C40 1_555 1_555
H28 C41 1_555 1_555
C42 C41 1_555 1_555
C43 C42 1_555 1_555
H29 C43 1_555 1_555
C44 C39 1_555 1_555
H30 C44 1_555 1_555
C45 H31 1_555 1_555
H32 C45 1_555 1_555
C46 C45 1_555 1_555
H33 C46 1_555 1_555
H34 C46 1_555 1_555
C47 H35 1_555 1_555
H36 C47 1_555 1_555
C48 H37 1_555 1_555
H38 C48 1_555 1_555
C49 H39 1_555 1_555
C50 H40 1_555 1_555
H41 C50 1_555 1_555
C51 C50 1_555 1_555
C52 C53 1_555 1_555
C53 C55 1_555 1_555
C54 C52 1_555 1_555
H42 C54 1_555 1_555
C55 H43 1_555 1_555
C56 C54 1_555 1_555
H44 C56 1_555 1_555
C57 C55 1_555 1_555
H45 C57 1_555 1_555
C58 H46 1_555 1_555
H47 C58 1_555 1_555
C59 H48 1_555 1_555
H49 C59 1_555 1_555
H50 C59 1_555 1_555
C60 H51 1_555 1_555
H52 C60 1_555 1_555
H53 C60 1_555 1_555
C61 C42 1_555 1_555
C62 C69 1_555 1_555
C63 H54 1_555 1_555
H55 C63 1_555 1_555
C64 H56 1_555 1_555
C65 C64 1_555 1_555
H57 C65 1_555 1_555
C66 C58 1_555 1_555
C67 C66 1_555 1_555
H58 C67 1_555 1_555
C68 C67 1_555 1_555
H59 C68 1_555 1_555
C69 C64 1_555 1_555
N1 C51 1_555 1_555
N2 C1 1_555 1_555
N3 C16 1_555 1_555
N4 C45 1_555 1_555
N5 C31 1_555 1_555
N6 C46 1_555 1_555
N7 C1 1_555 1_555
N8 C16 1_555 1_555
N9 C31 1_555 1_555
N10 C51 1_555 1_555
N11 C49 1_555 1_555
O1 C30 1_555 1_555
O2 C30 1_555 1_555
O3 C62 1_555 1_555
O4 C15 1_555 1_555
O5 C49 1_555 1_555
O6 C61 1_555 1_555
O7 C15 1_555 1_555
O8 C62 1_555 1_555
O9 C61 1_555 1_555
O10 La1 1_555 1_555
Ni1 N1 1_555 1_555
La1 O4 1_555 1_555
N12 C70 1_555 1_555
C70 H60 1_555 1_555
H61 C70 1_555 1_555
H62 C70 1_555 1_555
C71 O10 1_555 1_555
H63 C71 1_555 1_555
C72 N12 1_555 1_555
H64 C72 1_555 1_555
H65 C72 1_555 1_555
H66 C72 1_555 1_555
O11 La1 1_555 1_555
H67 O11 1_555 1_555
O3_2 La1 1_555 1_555
O6_2 La1 1_555 1_555
O8_2 La1 1_555 1_555
O9A La1 1_555 1_555
La1_2 O6 1_555 1_555
La1_3 O3 1_555 1_555
La1A O9 1_555 1_555
C2 N2 1_555 1_555
C3 N7 1_555 1_555
C6 C7 1_555 1_555
C8 N7 1_555 1_555
C13 C14 1_555 1_555
C17 N3 1_555 1_555
C18 N8 1_555 1_555
C23 N8 1_555 1_555
C28 C29 1_555 1_555
C32 N5 1_555 1_555
C36 C37 1_555 1_555
C37 N9 1_555 1_555
C38 N9 1_555 1_555
C43 C44 1_555 1_555
C47 N4 1_555 1_555
C48 N6 1_555 1_555
C50 N6 1_555 1_555
C52 N1 1_555 1_555
C53 N10 1_555 1_555
C56 C57 1_555 1_555
C58 N10 1_555 1_555
C59 N11 1_555 1_555
C60 N11 1_555 1_555
C63 N4 1_555 1_555
C65 C66 1_555 1_555
C68 C69 1_555 1_555
N2 Ni1 1_555 1_555
N3 Ni1 1_555 1_555
N4 Ni1 1_555 1_555
N5 Ni1 1_555 1_555
N6 Ni1 1_555 1_555
O5 La1 1_555 1_555
O7 La1 1_555 1_555
O8 La1_3 1_555 1_555
N12 C71 1_555 1_555

#END
