
#######################################################################
#
#                 Cambridge Crystallographic Data Centre
#                                CCDC 
#
#######################################################################
#
# If this CIF has been generated from an entry in the Cambridge 
# Structural Database, then it will include bibliographic, chemical, 
# crystal, experimental, refinement or atomic coordinate data resulting 
# from the CCDC's data processing and validation procedures.
#
#######################################################################

data_RIFPEB
_symmetry_cell_setting           monoclinic
_symmetry_space_group_name_H-M   'P 21/c'
_symmetry_Int_Tables_number      14
_space_group_name_Hall           '-P 2ybc'
loop_
_symmetry_equiv_pos_site_id
_symmetry_equiv_pos_as_xyz
1 x,y,z
2 -x,1/2+y,1/2-z
3 -x,-y,-z
4 x,1/2-y,1/2+z
_cell_length_a                   6.4216(2)
_cell_length_b                   10.0990(5)
_cell_length_c                   6.5008(3)
_cell_angle_alpha                90
_cell_angle_beta                 99.622(3)
_cell_angle_gamma                90
_cell_volume                     415.657
loop_
_atom_site_label
_atom_site_type_symbol
_atom_site_fract_x
_atom_site_fract_y
_atom_site_fract_z
Mn1 Mn 0.0000 0.5000 0.0000
O1 O 0.29699(18) 0.40456(11) 0.13666(17)
N1 N 0.0207(3) 0.64185(15) 0.2536(2)
N2 N 0.0974(2) 0.74650(14) 0.2924(2)
N3 N 0.39739(19) 0.45110(14) 0.3157(2)
C1 C 0.3746(3) 0.39282(17) 0.4963(3)
C2 C 0.5236(3) 0.55878(17) 0.3184(3)
N4 N 0.1731(2) 0.85039(15) 0.3352(3)
H1 H 0.294(3) 0.324(2) 0.484(3)
H2 H 0.525(4) 0.596(2) 0.184(4)
C2B C 0.4764(3) 0.44122(17) 0.6816(3)
N3B N 0.60261(19) 0.54890(14) 0.6843(2)
O1B O 0.70301(18) 0.59544(11) 0.86334(17)
C1B C 0.6254(3) 0.60718(17) 0.5037(3)
H1B H 0.706(3) 0.676(2) 0.516(3)
H2B H 0.475(4) 0.404(2) 0.816(4)
N1B N -0.0207(3) 0.35815(15) -0.2536(2)
N2B N -0.0974(2) 0.25350(14) -0.2924(2)
N4B N -0.1731(2) 0.14961(15) -0.3352(3)
O1B_2 O -0.29699(18) 0.59544(11) -0.13666(17)
N4C N 0.1731(2) 0.64961(15) -0.1648(3)
N4A N -0.1731(2) 0.35039(15) 0.1648(3)
Mn1C Mn 0.0000 1.0000 0.5000
Mn1_2 Mn 1.0000 0.5000 1.0000
Mn1C_2 Mn 0.0000 0.0000 -0.5000
loop_
_geom_bond_atom_site_label_1
_geom_bond_atom_site_label_2
_geom_bond_site_symmetry_1
_geom_bond_site_symmetry_2
Mn1 O1 1_555 1_555
O1 N3 1_555 1_555
N1 Mn1 1_555 1_555
N2 N1 1_555 1_555
N3 C1 1_555 1_555
C1 H1 1_555 1_555
C2 N3 1_555 1_555
N4 N2 1_555 1_555
H2 C2 1_555 1_555
C2B C1 1_555 1_555
N3B C2B 1_555 1_555
O1B N3B 1_555 1_555
C1B C2 1_555 1_555
H1B C1B 1_555 1_555
H2B C2B 1_555 1_555
N1B Mn1 1_555 1_555
N2B N1B 1_555 1_555
N4B N2B 1_555 1_555
O1B_2 Mn1 1_555 1_555
N4C Mn1 1_555 1_555
N4A Mn1 1_555 1_555
Mn1C N4 1_555 1_555
Mn1_2 O1B 1_555 1_555
Mn1C_2 N4B 1_555 1_555
N3B C1B 1_555 1_555

#END
