
#######################################################################
#
#                 Cambridge Crystallographic Data Centre
#                                CCDC 
#
#######################################################################
#
# If this CIF has been generated from an entry in the Cambridge 
# Structural Database, then it will include bibliographic, chemical, 
# crystal, experimental, refinement or atomic coordinate data resulting 
# from the CCDC's data processing and validation procedures.
#
#######################################################################

data_RIFQIG
_symmetry_cell_setting           orthorhombic
_symmetry_space_group_name_H-M   'P n m a'
_symmetry_Int_Tables_number      62
_space_group_name_Hall           '-P 2ac 2n'
loop_
_symmetry_equiv_pos_site_id
_symmetry_equiv_pos_as_xyz
1 x,y,z
2 1/2-x,-y,1/2+z
3 1/2+x,1/2-y,1/2-z
4 -x,1/2+y,-z
5 -x,-y,-z
6 1/2+x,y,1/2-z
7 1/2-x,1/2+y,1/2+z
8 x,1/2-y,z
_cell_length_a                   7.322(1)
_cell_length_b                   10.825(2)
_cell_length_c                   6.738(1)
_cell_angle_alpha                90
_cell_angle_beta                 90
_cell_angle_gamma                90
_cell_volume                     534.058
loop_
_atom_site_label
_atom_site_type_symbol
_atom_site_fract_x
_atom_site_fract_y
_atom_site_fract_z
Ce1 Ce 0.21001(4) 0.2500 0.12921(5)
O1 O 0.0454(6) 0.2500 0.4652(7)
O2 O 0.0527(7) 0.2500 0.7925(6)
O3 O 0.4207(4) 0.3781(3) 0.3551(5)
O4 O 0.2699(4) 0.5397(3) 0.4766(5)
C1 C 0.1237(8) 0.2500 0.628(1)
C2 C 0.4092(5) 0.4779(4) 0.4536(6)
C2D C 0.5908(5) 0.5221(4) 0.5464(6)
O3D O 0.5793(4) 0.6219(3) 0.6449(5)
O4D O 0.7301(4) 0.4603(3) 0.5234(5)
O1B O 0.5454(6) 0.2500 0.0348(7)
O2_2 O 0.0527(7) 0.2500 -0.2075(6)
O3B O -0.0793(4) 0.1219(3) 0.1449(5)
O3E O -0.0793(4) 0.3781(3) 0.1449(5)
O3G O 0.4207(4) 0.1219(3) 0.3551(5)
O4A O 0.2301(4) 0.4603(3) -0.0234(5)
O4F O 0.2301(4) 0.0397(3) -0.0234(5)
Ce1B Ce -0.28999(4) 0.2500 0.37079(5)
Ce1_2 Ce 0.21001(4) 0.2500 1.12921(5)
Ce1B_2 Ce 0.71001(4) 0.2500 0.37079(5)
Ce1A Ce 0.28999(4) 0.7500 0.62921(5)
Ce1C Ce 0.78999(4) 0.7500 0.87079(5)
loop_
_geom_bond_atom_site_label_1
_geom_bond_atom_site_label_2
_geom_bond_site_symmetry_1
_geom_bond_site_symmetry_2
Ce1 O1 1_555 1_555
O1 C1 1_555 1_555
O2 C1 1_555 1_555
O3 Ce1 1_555 1_555
O4 C2 1_555 1_555
C2 O3 1_555 1_555
C2D C2 1_555 1_555
O3D C2D 1_555 1_555
O4D C2D 1_555 1_555
O1B Ce1 1_555 1_555
O2_2 Ce1 1_555 1_555
O3B Ce1 1_555 1_555
O3E Ce1 1_555 1_555
O3G Ce1 1_555 1_555
O4A Ce1 1_555 1_555
O4F Ce1 1_555 1_555
Ce1B O1 1_555 1_555
Ce1_2 O2 1_555 1_555
Ce1B_2 O3 1_555 1_555
Ce1A O4 1_555 1_555
Ce1C O3D 1_555 1_555
O3D Ce1A 1_555 1_555
O4D Ce1B_2 1_555 1_555
O1B Ce1B_2 1_555 1_555
O3B Ce1B 1_555 1_555
O3E Ce1B 1_555 1_555
O3G Ce1B_2 1_555 1_555

#END
