
#######################################################################
#
#                 Cambridge Crystallographic Data Centre
#                                CCDC 
#
#######################################################################
#
# If this CIF has been generated from an entry in the Cambridge 
# Structural Database, then it will include bibliographic, chemical, 
# crystal, experimental, refinement or atomic coordinate data resulting 
# from the CCDC's data processing and validation procedures.
#
#######################################################################

data_RIFQIG01
_symmetry_cell_setting           orthorhombic
_symmetry_space_group_name_H-M   'P n a 21'
_symmetry_Int_Tables_number      33
_space_group_name_Hall           'P 2c -2n'
loop_
_symmetry_equiv_pos_site_id
_symmetry_equiv_pos_as_xyz
1 x,y,z
2 -x,-y,1/2+z
3 1/2-x,1/2+y,1/2+z
4 1/2+x,1/2-y,z
_cell_length_a                   7.328
_cell_length_b                   6.743
_cell_length_c                   10.816
_cell_angle_alpha                90
_cell_angle_beta                 90
_cell_angle_gamma                90
_cell_volume                     534.448
loop_
_atom_site_label
_atom_site_type_symbol
_atom_site_fract_x
_atom_site_fract_y
_atom_site_fract_z
C1 C 0.6284(4) 0.8721(4) 0.4605(16)
H1 H 0.7580 0.8757 0.4598
C2 C 0.0961(9) 0.9551(10) 0.1934(5)
C3 C -0.0851(9) 1.0495(10) 0.2384(5)
O1 O 0.5452(3) 1.0371(3) 0.4632(9)
O2 O 0.0784(8) 0.8488(7) 0.0937(4)
O3 O -0.0804(9) 1.1389(7) 0.3380(4)
O4 O 0.2302(7) 0.9861(7) 0.2497(5)
O5 O 0.5548(3) 0.7069(3) 0.4588(9)
O6 O -0.2306(7) 1.0279(8) 0.1705(4)
Ce1 Ce 0.210526(18) 1.12998(2) 0.4638(3)
O1C O 0.0452(3) 1.4629(3) 0.4632(9)
O2A O -0.0784(8) 1.1512(7) 0.5937(4)
O2B O 0.4216(8) 1.3488(7) 0.5937(4)
O3C O 0.4196(9) 1.3611(7) 0.3380(4)
O5C O 0.0548(3) 0.7931(3) 0.4588(9)
O6A O 0.2306(7) 0.9721(8) 0.6705(4)
Ce1C Ce 0.710526(18) 1.37002(2) 0.4638(3)
Ce1A Ce -0.210526(18) 0.87002(2) -0.0362(3)
Ce1B Ce 0.289474(18) 0.62998(2) -0.0362(3)
Ce1C_2 Ce -0.289474(18) 1.37002(2) 0.4638(3)
Ce1C_3 Ce 0.710526(18) 0.37002(2) 0.4638(3)
loop_
_geom_bond_atom_site_label_1
_geom_bond_atom_site_label_2
_geom_bond_site_symmetry_1
_geom_bond_site_symmetry_2
C1 H1 1_555 1_555
C2 C3 1_555 1_555
C3 O3 1_555 1_555
O1 C1 1_555 1_555
O2 C2 1_555 1_555
O3 Ce1 1_555 1_555
O4 C2 1_555 1_555
O5 C1 1_555 1_555
O6 C3 1_555 1_555
Ce1 O1 1_555 1_555
O1C Ce1 1_555 1_555
O2A Ce1 1_555 1_555
O2B Ce1 1_555 1_555
O3C Ce1 1_555 1_555
O5C Ce1 1_555 1_555
O6A Ce1 1_555 1_555
Ce1C O1 1_555 1_555
Ce1A O2 1_555 1_555
Ce1B O2 1_555 1_555
Ce1C_2 O3 1_555 1_555
Ce1C_3 O5 1_555 1_555
O4 Ce1 1_555 1_555
O6 Ce1A 1_555 1_555
O1C Ce1C_2 1_555 1_555
O2A Ce1C_2 1_555 1_555
O2B Ce1C 1_555 1_555
O3C Ce1C 1_555 1_555

#END
