
#######################################################################
#
#                 Cambridge Crystallographic Data Centre
#                                CCDC 
#
#######################################################################
#
# If this CIF has been generated from an entry in the Cambridge 
# Structural Database, then it will include bibliographic, chemical, 
# crystal, experimental, refinement or atomic coordinate data resulting 
# from the CCDC's data processing and validation procedures.
#
#######################################################################

data_RIFQUU
_symmetry_cell_setting           monoclinic
_symmetry_space_group_name_H-M   'P 21'
_symmetry_Int_Tables_number      4
_space_group_name_Hall           'P 2yb'
loop_
_symmetry_equiv_pos_site_id
_symmetry_equiv_pos_as_xyz
1 x,y,z
2 -x,1/2+y,-z
_cell_length_a                   8.4385(10)
_cell_length_b                   6.5661(6)
_cell_length_c                   9.8829(11)
_cell_angle_alpha                90
_cell_angle_beta                 92.302(10)
_cell_angle_gamma                90
_cell_volume                     547.15
loop_
_atom_site_label
_atom_site_type_symbol
_atom_site_fract_x
_atom_site_fract_y
_atom_site_fract_z
Zn1 Zn 0.71394(7) 0.39911(10) 0.79452(5)
S1 S 0.74728(14) 0.9004(3) 0.87317(11)
N1 N 0.7639(5) 0.3907(13) 0.5900(4)
N2 N 0.4707(5) 0.4052(13) 0.6862(4)
O1 O 0.3149(4) 0.4104(16) 0.7237(4)
H1 H 0.3123 0.4232 0.8062
O2 O 0.7325(6) 0.7273(7) 0.7799(4)
O3 O 0.6703(5) 0.8451(5) 1.0012(4)
O4 O 0.9153(5) 0.9485(6) 0.9031(4)
O5 O 0.6651(5) 1.0778(7) 0.8109(4)
O6 O 0.6415(5) 0.4360(6) 0.9876(4)
H2 H 0.547(4) 0.389(9) 0.993(6)
H3 H 0.659(7) 0.558(4) 1.012(6)
O7 O 0.9498(5) 0.3503(6) 0.8520(4)
H4 H 0.987(7) 0.401(9) 0.926(4)
H5 H 0.936(8) 0.222(3) 0.849(6)
C1 C 0.9090(7) 0.3777(14) 0.5427(5)
H6 H 0.9954 0.3719 0.6039
C2 C 0.9357(7) 0.3725(16) 0.4053(6)
H7 H 1.0383 0.3637 0.3749
C3 C 0.8094(8) 0.3804(17) 0.3159(5)
H8 H 0.8251 0.3766 0.2233
C4 C 0.6573(7) 0.3942(15) 0.3625(5)
H9 H 0.5697 0.4027 0.3026
C5 C 0.6400(6) 0.3949(14) 0.5002(5)
C6 C 0.4821(6) 0.4019(17) 0.5564(5)
H10 H 0.3917 0.4040 0.4994
Zn1_2 Zn 0.71394(7) 1.39911(10) 0.79452(5)
O5_2 O 0.6651(5) 0.0778(7) 0.8109(4)
loop_
_geom_bond_atom_site_label_1
_geom_bond_atom_site_label_2
_geom_bond_site_symmetry_1
_geom_bond_site_symmetry_2
Zn1 N1 1_555 1_555
S1 O2 1_555 1_555
N1 C1 1_555 1_555
N2 Zn1 1_555 1_555
O1 N2 1_555 1_555
H1 O1 1_555 1_555
O2 Zn1 1_555 1_555
O3 S1 1_555 1_555
O4 S1 1_555 1_555
O5 S1 1_555 1_555
O6 Zn1 1_555 1_555
H2 O6 1_555 1_555
H3 O6 1_555 1_555
O7 Zn1 1_555 1_555
H4 O7 1_555 1_555
H5 O7 1_555 1_555
C1 H6 1_555 1_555
C2 C1 1_555 1_555
H7 C2 1_555 1_555
C3 C2 1_555 1_555
H8 C3 1_555 1_555
C4 C3 1_555 1_555
H9 C4 1_555 1_555
C5 N1 1_555 1_555
C6 N2 1_555 1_555
H10 C6 1_555 1_555
Zn1_2 O5 1_555 1_555
O5_2 Zn1 1_555 1_555
C4 C5 1_555 1_555
C5 C6 1_555 1_555

#END
