
#######################################################################
#
#                 Cambridge Crystallographic Data Centre
#                                CCDC 
#
#######################################################################
#
# If this CIF has been generated from an entry in the Cambridge 
# Structural Database, then it will include bibliographic, chemical, 
# crystal, experimental, refinement or atomic coordinate data resulting 
# from the CCDC's data processing and validation procedures.
#
#######################################################################

data_RIFRAB
_symmetry_cell_setting           monoclinic
_symmetry_space_group_name_H-M   'P 21'
_symmetry_Int_Tables_number      4
_space_group_name_Hall           'P 2yb'
loop_
_symmetry_equiv_pos_site_id
_symmetry_equiv_pos_as_xyz
1 x,y,z
2 -x,1/2+y,-z
_cell_length_a                   8.2096(13)
_cell_length_b                   6.7868(11)
_cell_length_c                   9.1930(15)
_cell_angle_alpha                90
_cell_angle_beta                 91.251(15)
_cell_angle_gamma                90
_cell_volume                     512.083
loop_
_atom_site_label
_atom_site_type_symbol
_atom_site_fract_x
_atom_site_fract_y
_atom_site_fract_z
Cd1 Cd 0.83387(10) 0.6408(2) 0.82913(9)
S1 S 0.8337(3) 1.1413(12) 0.9195(3)
O1 O 1.2078(13) 0.7170(13) 0.6802(12)
H1 H 1.2288 0.7240 0.7677
O2 O 0.7654(15) 0.9614(18) 0.8500(14)
O3 O 0.7220(11) 1.2041(11) 1.0382(11)
O4 O 0.9972(9) 1.1002(17) 0.9793(9)
O5 O 0.8412(14) 1.2962(17) 0.8083(13)
N1 N 0.7197(10) 0.646(3) 0.5921(10)
N2 N 1.0455(13) 0.6930(13) 0.6591(13)
C1 C 0.8233(17) 0.6867(17) 0.4847(16)
C2 C 0.997(2) 0.7068(19) 0.5250(16)
H2 H 1.0725 0.7298 0.4531
C3 C 0.7675(16) 0.700(2) 0.3447(16)
H3 H 0.8398 0.7302 0.2715
C4 C 0.6004(18) 0.668(5) 0.3086(17)
H4 H 0.5616 0.6728 0.2128
C5 C 0.5037(17) 0.633(5) 0.4170(14)
H5 H 0.3940 0.6094 0.3962
C6 C 0.5574(13) 0.629(4) 0.5631(13)
H6 H 0.4838 0.6142 0.6379
O6 O 0.5957(12) 0.5623(13) 0.9442(13)
H7 H 0.595(14) 0.458(14) 0.999(14)
H8 H 0.500(7) 0.60(2) 0.917(14)
Cd1_2 Cd 0.83387(10) 1.6408(2) 0.82913(9)
Cd1A Cd 1.16613(10) 1.1408(2) 1.17087(9)
O4A O 1.0028(9) 0.6002(17) 1.0207(9)
O5_2 O 0.8412(14) 0.2962(17) 0.8083(13)
loop_
_geom_bond_atom_site_label_1
_geom_bond_atom_site_label_2
_geom_bond_site_symmetry_1
_geom_bond_site_symmetry_2
Cd1 O2 1_555 1_555
S1 O2 1_555 1_555
O1 H1 1_555 1_555
O3 S1 1_555 1_555
O4 S1 1_555 1_555
O5 S1 1_555 1_555
N1 Cd1 1_555 1_555
N2 Cd1 1_555 1_555
C1 N1 1_555 1_555
C2 N2 1_555 1_555
H2 C2 1_555 1_555
C3 C1 1_555 1_555
H3 C3 1_555 1_555
C4 C3 1_555 1_555
H4 C4 1_555 1_555
C5 C4 1_555 1_555
H5 C5 1_555 1_555
C6 N1 1_555 1_555
H6 C6 1_555 1_555
O6 Cd1 1_555 1_555
H7 O6 1_555 1_555
H8 O6 1_555 1_555
Cd1_2 O5 1_555 1_555
Cd1A O4 1_555 1_555
O4A Cd1 1_555 1_555
O5_2 Cd1 1_555 1_555
O1 N2 1_555 1_555
C1 C2 1_555 1_555
C5 C6 1_555 1_555

#END
