
#######################################################################
#
#                 Cambridge Crystallographic Data Centre
#                                CCDC 
#
#######################################################################
#
# If this CIF has been generated from an entry in the Cambridge 
# Structural Database, then it will include bibliographic, chemical, 
# crystal, experimental, refinement or atomic coordinate data resulting 
# from the CCDC's data processing and validation procedures.
#
#######################################################################

data_RIFSOQ
_symmetry_cell_setting           cubic
_symmetry_space_group_name_H-M   'F d -3 c'
_symmetry_Int_Tables_number      228
_space_group_name_Hall           '-F 4ud 2vw 3'
loop_
_symmetry_equiv_pos_site_id
_symmetry_equiv_pos_as_xyz
1 x,y,z
2 1/4-x,3/4-y,1/2+z
3 3/4-x,1/2+y,1/4-z
4 1/2+x,1/4-y,3/4-z
5 z,x,y
6 1/2+z,1/4-x,3/4-y
7 1/4-z,3/4-x,1/2+y
8 3/4-z,1/2+x,1/4-y
9 y,z,x
10 3/4-y,1/2+z,1/4-x
11 1/2+y,1/4-z,3/4-x
12 1/4-y,3/4-z,1/2+x
13 3/4+y,1/4+x,-z
14 1/2-y,1/2-x,1/2-z
15 1/4+y,-x,3/4+z
16 -y,3/4+x,1/4+z
17 3/4+x,1/4+z,-y
18 -x,3/4+z,1/4+y
19 1/2-x,1/2-z,1/2-y
20 1/4+x,-z,3/4+y
21 3/4+z,1/4+y,-x
22 1/4+z,-y,3/4+x
23 -z,3/4+y,1/4+x
24 1/2-z,1/2-y,1/2-x
25 x,1/2+y,1/2+z
26 1/4-x,1/4-y,z
27 3/4-x,y,3/4-z
28 1/2+x,3/4-y,1/4-z
29 z,1/2+x,1/2+y
30 1/2+z,3/4-x,1/4-y
31 1/4-z,1/4-x,y
32 3/4-z,x,3/4-y
33 y,1/2+z,1/2+x
34 3/4-y,z,3/4-x
35 1/2+y,3/4-z,1/4-x
36 1/4-y,1/4-z,x
37 3/4+y,3/4+x,1/2-z
38 1/2-y,-x,-z
39 1/4+y,1/2-x,1/4+z
40 -y,1/4+x,3/4+z
41 3/4+x,3/4+z,1/2-y
42 -x,1/4+z,3/4+y
43 1/2-x,-z,-y
44 1/4+x,1/2-z,1/4+y
45 3/4+z,3/4+y,1/2-x
46 1/4+z,1/2-y,1/4+x
47 -z,1/4+y,3/4+x
48 1/2-z,-y,-x
49 1/2+x,y,1/2+z
50 3/4-x,3/4-y,z
51 1/4-x,1/2+y,3/4-z
52 x,1/4-y,1/4-z
53 1/2+z,x,1/2+y
54 z,1/4-x,1/4-y
55 3/4-z,3/4-x,y
56 1/4-z,1/2+x,3/4-y
57 1/2+y,z,1/2+x
58 1/4-y,1/2+z,3/4-x
59 y,1/4-z,1/4-x
60 3/4-y,3/4-z,x
61 1/4+y,1/4+x,1/2-z
62 -y,1/2-x,-z
63 3/4+y,-x,1/4+z
64 1/2-y,3/4+x,3/4+z
65 1/4+x,1/4+z,1/2-y
66 1/2-x,3/4+z,3/4+y
67 -x,1/2-z,-y
68 3/4+x,-z,1/4+y
69 1/4+z,1/4+y,1/2-x
70 3/4+z,-y,1/4+x
71 1/2-z,3/4+y,3/4+x
72 -z,1/2-y,-x
73 1/2+x,1/2+y,z
74 3/4-x,1/4-y,1/2+z
75 1/4-x,y,1/4-z
76 x,3/4-y,3/4-z
77 1/2+z,1/2+x,y
78 z,3/4-x,3/4-y
79 3/4-z,1/4-x,1/2+y
80 1/4-z,x,1/4-y
81 1/2+y,1/2+z,x
82 1/4-y,z,1/4-x
83 y,3/4-z,3/4-x
84 3/4-y,1/4-z,1/2+x
85 1/4+y,3/4+x,-z
86 -y,-x,1/2-z
87 3/4+y,1/2-x,3/4+z
88 1/2-y,1/4+x,1/4+z
89 1/4+x,3/4+z,-y
90 1/2-x,1/4+z,1/4+y
91 -x,-z,1/2-y
92 3/4+x,1/2-z,3/4+y
93 1/4+z,3/4+y,-x
94 3/4+z,1/2-y,3/4+x
95 1/2-z,1/4+y,1/4+x
96 -z,-y,1/2-x
97 -x,-y,-z
98 3/4+x,1/4+y,1/2-z
99 1/4+x,1/2-y,3/4+z
100 1/2-x,3/4+y,1/4+z
101 -z,-x,-y
102 1/2-z,3/4+x,1/4+y
103 3/4+z,1/4+x,1/2-y
104 1/4+z,1/2-x,3/4+y
105 -y,-z,-x
106 1/4+y,1/2-z,3/4+x
107 1/2-y,3/4+z,1/4+x
108 3/4+y,1/4+z,1/2-x
109 1/4-y,3/4-x,z
110 1/2+y,1/2+x,1/2+z
111 3/4-y,x,1/4-z
112 y,1/4-x,3/4-z
113 1/4-x,3/4-z,y
114 x,1/4-z,3/4-y
115 1/2+x,1/2+z,1/2+y
116 3/4-x,z,1/4-y
117 1/4-z,3/4-y,x
118 3/4-z,y,1/4-x
119 z,1/4-y,3/4-x
120 1/2+z,1/2+y,1/2+x
121 -x,1/2-y,1/2-z
122 3/4+x,3/4+y,-z
123 1/4+x,-y,1/4+z
124 1/2-x,1/4+y,3/4+z
125 -z,1/2-x,1/2-y
126 1/2-z,1/4+x,3/4+y
127 3/4+z,3/4+x,-y
128 1/4+z,-x,1/4+y
129 -y,1/2-z,1/2-x
130 1/4+y,-z,1/4+x
131 1/2-y,1/4+z,3/4+x
132 3/4+y,3/4+z,-x
133 1/4-y,1/4-x,1/2+z
134 1/2+y,x,z
135 3/4-y,1/2+x,3/4-z
136 y,3/4-x,1/4-z
137 1/4-x,1/4-z,1/2+y
138 x,3/4-z,1/4-y
139 1/2+x,z,y
140 3/4-x,1/2+z,3/4-y
141 1/4-z,1/4-y,1/2+x
142 3/4-z,1/2+y,3/4-x
143 z,3/4-y,1/4-x
144 1/2+z,y,x
145 1/2-x,-y,1/2-z
146 1/4+x,1/4+y,-z
147 3/4+x,1/2-y,1/4+z
148 -x,3/4+y,3/4+z
149 1/2-z,-x,1/2-y
150 -z,3/4+x,3/4+y
151 1/4+z,1/4+x,-y
152 3/4+z,1/2-x,1/4+y
153 1/2-y,-z,1/2-x
154 3/4+y,1/2-z,1/4+x
155 -y,3/4+z,3/4+x
156 1/4+y,1/4+z,-x
157 3/4-y,3/4-x,1/2+z
158 y,1/2+x,z
159 1/4-y,x,3/4-z
160 1/2+y,1/4-x,1/4-z
161 3/4-x,3/4-z,1/2+y
162 1/2+x,1/4-z,1/4-y
163 x,1/2+z,y
164 1/4-x,z,3/4-y
165 3/4-z,3/4-y,1/2+x
166 1/4-z,y,3/4-x
167 1/2+z,1/4-y,1/4-x
168 z,1/2+y,x
169 1/2-x,1/2-y,-z
170 1/4+x,3/4+y,1/2-z
171 3/4+x,-y,3/4+z
172 -x,1/4+y,1/4+z
173 1/2-z,1/2-x,-y
174 -z,1/4+x,1/4+y
175 1/4+z,3/4+x,1/2-y
176 3/4+z,-x,3/4+y
177 1/2-y,1/2-z,-x
178 3/4+y,-z,3/4+x
179 -y,1/4+z,1/4+x
180 1/4+y,3/4+z,1/2-x
181 3/4-y,1/4-x,z
182 y,x,1/2+z
183 1/4-y,1/2+x,1/4-z
184 1/2+y,3/4-x,3/4-z
185 3/4-x,1/4-z,y
186 1/2+x,3/4-z,3/4-y
187 x,z,1/2+y
188 1/4-x,1/2+z,1/4-y
189 3/4-z,1/4-y,x
190 1/4-z,1/2+y,1/4-x
191 1/2+z,3/4-y,3/4-x
192 z,y,1/2+x
_cell_length_a                   64.0734(17)
_cell_length_b                   64.0734(17)
_cell_length_c                   64.0734(17)
_cell_angle_alpha                90
_cell_angle_beta                 90
_cell_angle_gamma                90
_cell_volume                     263047
loop_
_atom_site_label
_atom_site_type_symbol
_atom_site_fract_x
_atom_site_fract_y
_atom_site_fract_z
C1 C 0.82798(10) 0.89336(11) 0.17104(12)
H1 H 0.8268 0.9069 0.1784
H2 H 0.8211 0.8823 0.1794
C2 C 0.85040(10) 0.88792(12) 0.16649(10)
H3 H 0.8518 0.8729 0.1630
H4 H 0.8594 0.8910 0.1787
C3 C 0.85652(9) 0.90152(11) 0.14785(9)
H5 H 0.8671 0.8943 0.1392
H6 H 0.8625 0.9149 0.1527
C4 C 0.83652(11) 0.90536(11) 0.13523(11)
H7 H 0.8374 0.8989 0.1212
H8 H 0.8338 0.9205 0.1336
C5 C 0.81894(11) 0.89463(13) 0.14887(13)
H9 H 0.8060 0.9031 0.1487
H10 H 0.8157 0.8805 0.1435
Co1 Co 0.871782(11) 1.0000 0.121782(11)
Co2 Co 0.8750 0.8750 0.247883(12)
C6 C 0.98987(7) 0.87344(7) 0.17701(7)
H11 H 1.0010 0.8637 0.1770
C7 C 0.97925(8) 0.87652(8) 0.19533(7)
H12 H 0.9831 0.8691 0.2076
C8 C 0.96263(7) 0.89078(8) 0.19589(8)
H13 H 0.9548 0.8930 0.2083
C9 C 0.95818(6) 0.90156(7) 0.17748(6)
C10 C 0.96997(6) 0.89746(6) 0.15970(6)
H14 H 0.9669 0.9050 0.1473
C11 C 0.89882(6) 1.03238(6) 0.09522(6)
C12 C 0.90471(6) 0.97032(6) 0.14037(6)
H15 H 0.8938 0.9688 0.1502
C13 C 0.92235(6) 0.95790(6) 0.14240(6)
C14 C 0.93854(7) 0.96012(7) 0.12773(7)
H16 H 0.9507 0.9516 0.1285
C15 C 0.93636(7) 0.97493(8) 0.11228(8)
H17 H 0.9471 0.9771 0.1023
C16 C 0.91811(7) 0.98671(7) 0.11146(7)
H18 H 0.9168 0.9968 0.1007
C17 C 0.92319(6) 0.94180(6) 0.15890(6)
C18 C 0.90743(6) 0.92468(6) 0.18540(6)
C19 C 0.94012(6) 0.91577(7) 0.17565(6)
C20 C 0.88881(6) 0.92099(6) 0.19838(6)
C21 C 0.87097(7) 0.93355(7) 0.19700(7)
H19 H 0.8705 0.9451 0.1877
C22 C 0.85410(7) 0.92884(8) 0.20943(8)
H20 H 0.8418 0.9371 0.2089
C23 C 0.85532(7) 0.91161(7) 0.22298(7)
H21 H 0.8436 0.9085 0.2315
C24 C 0.88848(6) 0.90414(6) 0.21226(6)
H22 H 0.9005 0.8956 0.2131
C25 C 0.92519(8) 0.87829(9) 0.25064(7)
C26 C 0.88841(8) 0.91733(7) 0.26726(7)
H23 H 0.8991 0.9160 0.2571
C27 C 0.88748(8) 0.93527(8) 0.27852(8)
H24 H 0.8973 0.9461 0.2762
C28 C 0.87182(8) 0.93761(7) 0.29369(8)
H25 H 0.8707 0.9500 0.3017
C29 C 0.85798(7) 0.92105(7) 0.29663(7)
C30 C 0.85987(6) 0.90334(6) 0.28441(6)
H26 H 0.8502 0.8923 0.2864
C31 C 0.84166(7) 0.92216(7) 0.31299(7)
N1 N 0.88727(5) 1.02456(5) 0.10714(5)
N2 N 0.98537(5) 0.88338(5) 0.15915(5)
N3 N 0.90248(5) 0.98453(5) 0.12495(5)
N4 N 0.94038(5) 0.93013(5) 0.16047(5)
N5 N 0.92406(5) 0.91252(6) 0.18884(5)
N6 N 0.90611(5) 0.93980(5) 0.17093(5)
N7 N 0.87228(5) 0.89942(5) 0.22438(5)
N8 N 0.90744(6) 0.87682(5) 0.24876(5)
N9 N 0.87489(5) 0.90109(6) 0.26975(5)
N10 N 0.84295(6) 0.93743(5) 0.32681(6)
S1 S 0.914801(19) 1.041831(19) 0.078027(19)
S2 S 0.95027(3) 0.88023(7) 0.25327(3)
C26CA C 0.76726(7) 0.86159(8) 0.33267(7)
H23CA H 0.7571 0.8509 0.3340
C27CA C 0.77852(8) 0.86252(8) 0.31473(8)
H24CA H 0.7762 0.8527 0.3039
C28CA C 0.79369(8) 0.87818(8) 0.31239(7)
H25CA H 0.8017 0.8793 0.3000
C29CA C 0.79663(7) 0.89202(7) 0.32895(7)
C30CA C 0.78441(6) 0.89013(6) 0.34666(6)
H26CA H 0.7864 0.8998 0.3577
C31CA C 0.81299(7) 0.90834(7) 0.32784(7)
N9CA N 0.76975(5) 0.87511(5) 0.34891(6)
N10CA N 0.82681(6) 0.90705(6) 0.31257(5)
C26EC C 0.83267(7) 0.98274(7) 0.38841(8)
H23EC H 0.8340 0.9929 0.3991
C27EC C 0.81473(8) 0.97148(8) 0.38748(8)
H24EC H 0.8039 0.9738 0.3973
C28EC C 0.81239(7) 0.95631(8) 0.37182(8)
H25EC H 0.8000 0.9483 0.3707
C29EC C 0.82895(7) 0.95337(7) 0.35798(7)
C30EC C 0.84666(6) 0.96559(6) 0.35987(6)
H26EC H 0.8577 0.9636 0.3502
C31EC C 0.82784(7) 0.93701(7) 0.34166(7)
N9EC N 0.84891(6) 0.98025(5) 0.37489(5)
N10EC N 0.81257(5) 0.92319(6) 0.34295(6)
Co2CA Co 0.747883(12) 0.8750 0.3750
C6CA C 0.67701(7) 0.76013(7) 0.37656(7)
H11CA H 0.6770 0.7490 0.3863
C7CA C 0.69533(7) 0.77075(8) 0.37348(8)
H12CA H 0.7076 0.7669 0.3809
C8CA C 0.69589(8) 0.78737(7) 0.35922(8)
H13CA H 0.7083 0.7952 0.3570
C9CA C 0.67748(6) 0.79182(6) 0.34844(7)
C10CA C 0.65970(6) 0.78003(6) 0.35254(6)
H14CA H 0.6473 0.7831 0.3450
C12CA C 0.64037(6) 0.84529(6) 0.27968(6)
H15CA H 0.6502 0.8562 0.2812
C13CA C 0.64240(6) 0.82765(6) 0.29210(6)
C14CA C 0.62773(7) 0.81146(7) 0.28988(7)
H16CA H 0.6285 0.7993 0.2984
C15CA C 0.61228(8) 0.81364(7) 0.27507(8)
H17CA H 0.6023 0.8029 0.2729
C16CA C 0.61146(7) 0.83189(7) 0.26329(7)
H18CA H 0.6007 0.8332 0.2532
C17CA C 0.65890(6) 0.82681(6) 0.30820(6)
C18CA C 0.68540(6) 0.84257(6) 0.32532(6)
C19CA C 0.67565(6) 0.80988(6) 0.33423(7)
C20CA C 0.69838(6) 0.86119(6) 0.32901(6)
C21CA C 0.69700(7) 0.87903(7) 0.31645(7)
H19CA H 0.6877 0.8795 0.3049
C22CA C 0.70943(8) 0.89590(7) 0.32116(8)
H20CA H 0.7089 0.9082 0.3129
C23CA C 0.72298(7) 0.89468(7) 0.33839(7)
H21CA H 0.7315 0.9064 0.3415
C24CA C 0.71226(6) 0.86152(6) 0.34586(6)
H22CA H 0.7131 0.8495 0.3544
C25CA C 0.75064(7) 0.82481(8) 0.37171(9)
N2CA N 0.65915(5) 0.76463(5) 0.36662(5)
N3CA N 0.62495(5) 0.84752(5) 0.26547(5)
N4CA N 0.66047(5) 0.80962(5) 0.31987(5)
N5CA N 0.68884(5) 0.82594(5) 0.33748(6)
N6CA N 0.67093(5) 0.84389(5) 0.31020(5)
N7CA N 0.72438(5) 0.87772(5) 0.35058(5)
N8CA N 0.74876(5) 0.84256(6) 0.37318(5)
S2CA S 0.75327(3) 0.79973(3) 0.36977(7)
Co2I Co 0.8750 0.747883(12) 0.3750
C6FA C 0.87344(7) 0.67701(7) 0.48987(7)
H11FA H 0.8637 0.6770 0.5010
C7FA C 0.87652(8) 0.69533(7) 0.47925(8)
H12FA H 0.8691 0.7076 0.4831
C8FA C 0.89078(8) 0.69589(8) 0.46263(7)
H13FA H 0.8930 0.7083 0.4548
C9FA C 0.90156(7) 0.67748(6) 0.45818(6)
C10FA C 0.89746(6) 0.65970(6) 0.46997(6)
H14FA H 0.9050 0.6473 0.4669
C12FA C 0.97032(6) 0.64037(6) 0.40471(6)
H15FA H 0.9688 0.6502 0.3938
C13FA C 0.95790(6) 0.64240(6) 0.42235(6)
C14FA C 0.96012(7) 0.62773(7) 0.43854(7)
H16FA H 0.9516 0.6285 0.4507
C15FA C 0.97493(8) 0.61228(8) 0.43636(7)
H17FA H 0.9771 0.6023 0.4471
C16FA C 0.98671(7) 0.61146(7) 0.41811(7)
H18FA H 0.9968 0.6007 0.4168
C17FA C 0.94180(6) 0.65890(6) 0.42319(6)
C18FA C 0.92468(6) 0.68540(6) 0.40743(6)
C19FA C 0.91577(7) 0.67565(6) 0.44012(6)
C20FA C 0.92099(6) 0.69838(6) 0.38881(6)
C21FA C 0.93355(7) 0.69700(7) 0.37097(7)
H19FA H 0.9451 0.6877 0.3705
C22FA C 0.92884(8) 0.70943(8) 0.35410(7)
H20FA H 0.9371 0.7089 0.3418
C23FA C 0.91161(7) 0.72298(7) 0.35532(7)
H21FA H 0.9085 0.7315 0.3436
C24FA C 0.90414(6) 0.71226(6) 0.38848(6)
H22FA H 0.8956 0.7131 0.4005
C25FA C 0.87829(9) 0.75064(7) 0.42519(8)
C26FA C 0.91733(7) 0.76726(7) 0.38841(8)
H23FA H 0.9160 0.7571 0.3991
C27FA C 0.93527(8) 0.77852(8) 0.38748(8)
H24FA H 0.9461 0.7762 0.3973
C28FA C 0.93761(7) 0.79369(8) 0.37182(8)
H25FA H 0.9500 0.8017 0.3707
C29FA C 0.92105(7) 0.79663(7) 0.35798(7)
C30FA C 0.90334(6) 0.78441(6) 0.35987(6)
H26FA H 0.8923 0.7864 0.3502
C31FA C 0.92216(7) 0.81299(7) 0.34166(7)
N2FA N 0.88338(5) 0.65915(5) 0.48537(5)
N3FA N 0.98453(5) 0.62495(5) 0.40248(5)
N4FA N 0.93013(5) 0.66047(5) 0.44038(5)
N5FA N 0.91252(6) 0.68884(5) 0.42406(5)
N6FA N 0.93980(5) 0.67093(5) 0.40611(5)
N7FA N 0.89942(5) 0.72438(5) 0.37228(5)
N8FA N 0.87682(5) 0.74876(5) 0.40744(6)
N9FA N 0.90109(6) 0.76975(5) 0.37489(5)
N10FA N 0.93743(5) 0.82681(6) 0.34295(6)
S2FA S 0.88023(7) 0.75327(3) 0.45027(3)
C26WA C 0.86159(8) 0.83267(7) 0.26726(7)
H23WA H 0.8509 0.8340 0.2571
C27WA C 0.86252(8) 0.81473(8) 0.27852(8)
H24WA H 0.8527 0.8039 0.2762
C28WA C 0.87818(8) 0.81239(7) 0.29369(8)
H25WA H 0.8793 0.8000 0.3017
C29WA C 0.89202(7) 0.82895(7) 0.29663(7)
C30WA C 0.89013(6) 0.84666(6) 0.28441(6)
H26WA H 0.8998 0.8577 0.2864
C31WA C 0.90834(7) 0.82784(7) 0.31299(7)
N9WA N 0.87511(5) 0.84891(6) 0.26975(5)
N10WA N 0.90705(6) 0.81257(5) 0.32681(6)
C26AC C 0.98274(7) 0.88841(8) 0.33267(7)
H23AC H 0.9929 0.8991 0.3340
C27AC C 0.97148(8) 0.88748(8) 0.31473(8)
H24AC H 0.9738 0.8973 0.3039
C28AC C 0.95631(8) 0.87182(8) 0.31239(7)
H25AC H 0.9483 0.8707 0.3000
C29AC C 0.95337(7) 0.85798(7) 0.32895(7)
C30AC C 0.96559(6) 0.85987(6) 0.34666(6)
H26AC H 0.9636 0.8502 0.3577
C31AC C 0.93701(7) 0.84166(7) 0.32784(7)
N9AC N 0.98025(5) 0.87489(5) 0.34891(6)
N10AC N 0.92319(6) 0.84295(6) 0.31257(5)
C6WA C 0.76013(7) 0.87656(7) 0.17701(7)
H11WA H 0.7490 0.8863 0.1770
C7WA C 0.77075(8) 0.87348(8) 0.19533(7)
H12WA H 0.7669 0.8809 0.2076
C8WA C 0.78737(7) 0.85922(8) 0.19589(8)
H13WA H 0.7952 0.8570 0.2083
C9WA C 0.79182(6) 0.84844(7) 0.17748(6)
C10WA C 0.78003(6) 0.85254(6) 0.15970(6)
H14WA H 0.7831 0.8450 0.1473
C12WA C 0.84529(6) 0.77968(6) 0.14037(6)
H15WA H 0.8562 0.7812 0.1502
C13WA C 0.82765(6) 0.79210(6) 0.14240(6)
C14WA C 0.81146(7) 0.78988(7) 0.12773(7)
H16WA H 0.7993 0.7984 0.1285
C15WA C 0.81364(7) 0.77507(8) 0.11228(8)
H17WA H 0.8029 0.7729 0.1023
C16WA C 0.83189(7) 0.76329(7) 0.11146(7)
H18WA H 0.8332 0.7532 0.1007
C17WA C 0.82681(6) 0.80820(6) 0.15890(6)
C18WA C 0.84257(6) 0.82532(6) 0.18540(6)
C19WA C 0.80988(6) 0.83423(7) 0.17565(6)
C20WA C 0.86119(6) 0.82901(6) 0.19838(6)
C21WA C 0.87903(7) 0.81645(7) 0.19700(7)
H19WA H 0.8795 0.8049 0.1877
C22WA C 0.89590(7) 0.82116(8) 0.20943(8)
H20WA H 0.9082 0.8129 0.2089
C23WA C 0.89468(7) 0.83839(7) 0.22298(7)
H21WA H 0.9064 0.8415 0.2315
C24WA C 0.86152(6) 0.84586(6) 0.21226(6)
H22WA H 0.8495 0.8544 0.2131
C25WA C 0.82481(8) 0.87171(9) 0.25064(7)
N2WA N 0.76463(5) 0.86662(5) 0.15915(5)
N3WA N 0.84752(5) 0.76547(5) 0.12495(5)
N4WA N 0.80962(5) 0.81987(5) 0.16047(5)
N5WA N 0.82594(5) 0.83748(6) 0.18884(5)
N6WA N 0.84389(5) 0.81020(5) 0.17093(5)
N7WA N 0.87772(5) 0.85058(5) 0.22438(5)
N8WA N 0.84256(6) 0.87318(5) 0.24876(5)
S2WA S 0.79973(3) 0.86977(7) 0.25327(3)
C6ZA C 0.67701(7) 0.98987(7) 0.37344(7)
H11ZA H 0.6770 1.0010 0.3637
C7ZA C 0.69533(7) 0.97925(8) 0.37652(8)
H12ZA H 0.7076 0.9831 0.3691
C8ZA C 0.69589(8) 0.96263(7) 0.39078(8)
H13ZA H 0.7083 0.9548 0.3930
C9ZA C 0.67748(6) 0.95818(6) 0.40156(7)
C10ZA C 0.65970(6) 0.96997(6) 0.39746(6)
H14ZA H 0.6473 0.9669 0.4050
C12ZA C 0.64037(6) 0.90471(6) 0.47032(6)
H15ZA H 0.6502 0.8938 0.4688
C13ZA C 0.64240(6) 0.92235(6) 0.45790(6)
C14ZA C 0.62773(7) 0.93854(7) 0.46012(7)
H16ZA H 0.6285 0.9507 0.4516
C15ZA C 0.61228(8) 0.93636(7) 0.47493(8)
H17ZA H 0.6023 0.9471 0.4771
C16ZA C 0.61146(7) 0.91811(7) 0.48671(7)
H18ZA H 0.6007 0.9168 0.4968
C17ZA C 0.65890(6) 0.92319(6) 0.44180(6)
C18ZA C 0.68540(6) 0.90743(6) 0.42468(6)
C19ZA C 0.67565(6) 0.94012(6) 0.41577(7)
C20ZA C 0.69838(6) 0.88881(6) 0.42099(6)
C21ZA C 0.69700(7) 0.87097(7) 0.43355(7)
H19ZA H 0.6877 0.8705 0.4451
C22ZA C 0.70943(8) 0.85410(7) 0.42884(8)
H20ZA H 0.7089 0.8418 0.4371
C23ZA C 0.72298(7) 0.85532(7) 0.41161(7)
H21ZA H 0.7315 0.8436 0.4085
C24ZA C 0.71226(6) 0.88848(6) 0.40414(6)
H22ZA H 0.7131 0.9005 0.3956
C25ZA C 0.75064(7) 0.92519(8) 0.37829(9)
N2ZA N 0.65915(5) 0.98537(5) 0.38338(5)
N3ZA N 0.62495(5) 0.90248(5) 0.48453(5)
N4ZA N 0.66047(5) 0.94038(5) 0.43013(5)
N5ZA N 0.68884(5) 0.92406(5) 0.41252(6)
N6ZA N 0.67093(5) 0.90611(5) 0.43980(5)
N7ZA N 0.72438(5) 0.87228(5) 0.39942(5)
N8ZA N 0.74876(5) 0.90744(6) 0.37682(5)
S2ZA S 0.75327(3) 0.95027(3) 0.38023(7)
Co1VC Co 0.878218(11) 1.128218(11) 0.0000
C6VC C 0.82299(7) 1.01013(7) 0.12656(7)
H11VC H 0.8230 0.9990 0.1363
C7VC C 0.80467(7) 1.02075(8) 0.12348(8)
H12VC H 0.7924 1.0169 0.1309
C8VC C 0.80411(8) 1.03737(7) 0.10922(8)
H13VC H 0.7917 1.0452 0.1070
C9VC C 0.82252(6) 1.04182(6) 0.09844(7)
C10VC C 0.84030(6) 1.03003(6) 0.10254(6)
H14VC H 0.8527 1.0331 0.0950
C11VC C 0.90478(6) 1.10118(6) -0.03238(6)
C12VC C 0.85963(6) 1.09529(6) 0.02968(6)
H15VC H 0.8498 1.1062 0.0312
C13VC C 0.85760(6) 1.07765(6) 0.04210(6)
C14VC C 0.87227(7) 1.06146(7) 0.03988(7)
H16VC H 0.8715 1.0493 0.0484
C15VC C 0.88772(8) 1.06364(7) 0.02507(8)
H17VC H 0.8977 1.0529 0.0229
C16VC C 0.88854(7) 1.08189(7) 0.01329(7)
H18VC H 0.8993 1.0832 0.0032
C17VC C 0.84110(6) 1.07681(6) 0.05820(6)
C18VC C 0.81460(6) 1.09257(6) 0.07532(6)
C19VC C 0.82435(6) 1.05988(6) 0.08423(7)
C20VC C 0.80162(6) 1.11119(6) 0.07901(6)
C21VC C 0.80300(7) 1.12903(7) 0.06645(7)
H19VC H 0.8123 1.1295 0.0549
C22VC C 0.79057(8) 1.14590(7) 0.07116(8)
H20VC H 0.7911 1.1582 0.0629
C23VC C 0.77702(7) 1.14468(7) 0.08839(7)
H21VC H 0.7685 1.1564 0.0915
C24VC C 0.78774(6) 1.11152(6) 0.09586(6)
H22VC H 0.7869 1.0995 0.1044
N1VC N 0.89286(5) 1.11273(5) -0.02456(5)
N2VC N 0.84085(5) 1.01463(5) 0.11662(5)
N3VC N 0.87505(5) 1.09752(5) 0.01547(5)
N4VC N 0.83953(5) 1.05962(5) 0.06987(5)
N5VC N 0.81116(5) 1.07594(5) 0.08748(6)
N6VC N 0.82907(5) 1.09389(5) 0.06020(5)
N7VC N 0.77562(5) 1.12772(5) 0.10058(5)
S1VC S 0.921973(19) 1.085199(19) -0.041831(19)
C11QB C 0.84522(6) 0.96762(6) 0.14882(6)
N1QB N 0.85714(5) 0.97544(5) 0.13727(5)
S1QB S 0.828027(19) 0.958169(19) 0.164801(19)
C25I C 0.87171(9) 0.75064(7) 0.32481(8)
N8I N 0.87318(5) 0.74876(5) 0.34256(6)
S2I S 0.86977(7) 0.75327(3) 0.29973(3)
Co1ZC Co 1.0000 0.878218(11) 0.128218(11)
C11BG C 0.85118(6) 1.15478(6) 0.03238(6)
N1BG N 0.86273(5) 1.14286(5) 0.02456(5)
S1BG S 0.835199(19) 1.171973(19) 0.041831(19)
C11EE C 1.03238(6) 0.85118(6) 0.15478(6)
N1EE N 1.02456(5) 0.86273(5) 0.14286(5)
S1EE S 1.041831(19) 0.835199(19) 0.171973(19)
C11ZC C 0.96762(6) 0.90478(6) 0.10118(6)
N1ZC N 0.97544(5) 0.89286(5) 0.11273(5)
S1ZC S 0.958169(19) 0.921973(19) 0.085199(19)
Co1O Co 1.0000 0.621782(11) 0.371782(11)
Co1V Co 0.878218(11) 0.7500 0.121782(11)
Co1CA Co 0.621782(11) 0.878218(11) 0.2500
Co1NA Co 0.621782(11) 0.871782(11) 0.5000
Co1UC Co 0.628218(11) 0.7500 0.371782(11)
Co1FD Co 0.7500 0.871782(11) 0.128218(11)
Co1MD Co 0.628218(11) 1.0000 0.378218(11)
Co1TD Co 0.878218(11) 0.628218(11) 0.5000
Co2F Co 1.002117(12) 0.8750 0.3750
Co2FB Co 0.8750 1.002117(12) 0.3750
Co2VC Co 0.752117(12) 1.1250 0.1250
N2H N 0.88338(5) 1.15915(5) -0.01463(5)
N2Q N 1.01463(5) 0.90915(5) 0.13338(5)
N2T N 0.90915(5) 1.13338(5) 0.01463(5)
N2FD N 0.86662(5) 0.98537(5) 0.09085(5)
N3QB N 0.87495(5) 1.01547(5) 0.15248(5)
N3ZC N 1.01547(5) 0.87505(5) 0.09752(5)
N3EE N 0.98453(5) 0.84752(5) 0.12505(5)
N3BG N 0.84752(5) 1.12505(5) -0.01547(5)
N7I N 0.85058(5) 0.72438(5) 0.37772(5)
N9I N 0.84891(6) 0.76975(5) 0.37511(5)
N9ZA N 0.76975(5) 0.87489(5) 0.40109(6)
loop_
_geom_bond_atom_site_label_1
_geom_bond_atom_site_label_2
_geom_bond_site_symmetry_1
_geom_bond_site_symmetry_2
C1 H1 1_555 1_555
H2 C1 1_555 1_555
C2 C1 1_555 1_555
H3 C2 1_555 1_555
H4 C2 1_555 1_555
C3 C2 1_555 1_555
H5 C3 1_555 1_555
H6 C3 1_555 1_555
C4 C3 1_555 1_555
H7 C4 1_555 1_555
H8 C4 1_555 1_555
C5 C1 1_555 1_555
H9 C5 1_555 1_555
H10 C5 1_555 1_555
Co1 N1 1_555 1_555
Co2 N7 1_555 1_555
C6 H11 1_555 1_555
C7 C6 1_555 1_555
H12 C7 1_555 1_555
C8 C7 1_555 1_555
H13 C8 1_555 1_555
C9 C8 1_555 1_555
C10 C9 1_555 1_555
H14 C10 1_555 1_555
C11 N1 1_555 1_555
C12 H15 1_555 1_555
C13 C12 1_555 1_555
C14 C13 1_555 1_555
H16 C14 1_555 1_555
C15 C14 1_555 1_555
H17 C15 1_555 1_555
C16 C15 1_555 1_555
H18 C16 1_555 1_555
C17 C13 1_555 1_555
C18 C20 1_555 1_555
C19 C9 1_555 1_555
C20 C21 1_555 1_555
C21 H19 1_555 1_555
C22 C21 1_555 1_555
H20 C22 1_555 1_555
C23 C22 1_555 1_555
H21 C23 1_555 1_555
C24 C20 1_555 1_555
H22 C24 1_555 1_555
C25 N8 1_555 1_555
C26 H23 1_555 1_555
C27 C26 1_555 1_555
H24 C27 1_555 1_555
C28 C27 1_555 1_555
H25 C28 1_555 1_555
C29 C28 1_555 1_555
C30 C29 1_555 1_555
H26 C30 1_555 1_555
C31 C29 1_555 1_555
N2 C6 1_555 1_555
N3 Co1 1_555 1_555
N4 C17 1_555 1_555
N5 C18 1_555 1_555
N6 C17 1_555 1_555
N7 C23 1_555 1_555
N8 Co2 1_555 1_555
N9 Co2 1_555 1_555
N10 C31 1_555 1_555
S1 C11 1_555 1_555
S2 C25 1_555 1_555
C26CA H23CA 1_555 1_555
C27CA C26CA 1_555 1_555
H24CA C27CA 1_555 1_555
C28CA C27CA 1_555 1_555
H25CA C28CA 1_555 1_555
C29CA C28CA 1_555 1_555
C30CA C29CA 1_555 1_555
H26CA C30CA 1_555 1_555
C31CA C29CA 1_555 1_555
N9CA C26CA 1_555 1_555
N10CA C31 1_555 1_555
C26EC H23EC 1_555 1_555
C27EC C26EC 1_555 1_555
H24EC C27EC 1_555 1_555
C28EC C27EC 1_555 1_555
H25EC C28EC 1_555 1_555
C29EC C28EC 1_555 1_555
C30EC C29EC 1_555 1_555
H26EC C30EC 1_555 1_555
C31EC N10 1_555 1_555
N9EC C26EC 1_555 1_555
N10EC C31CA 1_555 1_555
Co2CA N9CA 1_555 1_555
C6CA H11CA 1_555 1_555
C7CA C6CA 1_555 1_555
H12CA C7CA 1_555 1_555
C8CA C7CA 1_555 1_555
H13CA C8CA 1_555 1_555
C9CA C8CA 1_555 1_555
C10CA C9CA 1_555 1_555
H14CA C10CA 1_555 1_555
C12CA H15CA 1_555 1_555
C13CA C12CA 1_555 1_555
C14CA C13CA 1_555 1_555
H16CA C14CA 1_555 1_555
C15CA C14CA 1_555 1_555
H17CA C15CA 1_555 1_555
C16CA C15CA 1_555 1_555
H18CA C16CA 1_555 1_555
C17CA C13CA 1_555 1_555
C18CA C20CA 1_555 1_555
C19CA C9CA 1_555 1_555
C20CA C21CA 1_555 1_555
C21CA H19CA 1_555 1_555
C22CA C21CA 1_555 1_555
H20CA C22CA 1_555 1_555
C23CA C22CA 1_555 1_555
H21CA C23CA 1_555 1_555
C24CA C20CA 1_555 1_555
H22CA C24CA 1_555 1_555
C25CA N8CA 1_555 1_555
N2CA C6CA 1_555 1_555
N3CA C12CA 1_555 1_555
N4CA C17CA 1_555 1_555
N5CA C18CA 1_555 1_555
N6CA C17CA 1_555 1_555
N7CA Co2CA 1_555 1_555
N8CA Co2CA 1_555 1_555
S2CA C25CA 1_555 1_555
Co2I N7FA 1_555 1_555
C6FA H11FA 1_555 1_555
C7FA C6FA 1_555 1_555
H12FA C7FA 1_555 1_555
C8FA C7FA 1_555 1_555
H13FA C8FA 1_555 1_555
C9FA C8FA 1_555 1_555
C10FA C9FA 1_555 1_555
H14FA C10FA 1_555 1_555
C12FA H15FA 1_555 1_555
C13FA C12FA 1_555 1_555
C14FA C13FA 1_555 1_555
H16FA C14FA 1_555 1_555
C15FA C14FA 1_555 1_555
H17FA C15FA 1_555 1_555
C16FA C15FA 1_555 1_555
H18FA C16FA 1_555 1_555
C17FA C13FA 1_555 1_555
C18FA C20FA 1_555 1_555
C19FA C9FA 1_555 1_555
C20FA C21FA 1_555 1_555
C21FA H19FA 1_555 1_555
C22FA C21FA 1_555 1_555
H20FA C22FA 1_555 1_555
C23FA C22FA 1_555 1_555
H21FA C23FA 1_555 1_555
C24FA C20FA 1_555 1_555
H22FA C24FA 1_555 1_555
C25FA N8FA 1_555 1_555
C26FA H23FA 1_555 1_555
C27FA C26FA 1_555 1_555
H24FA C27FA 1_555 1_555
C28FA C27FA 1_555 1_555
H25FA C28FA 1_555 1_555
C29FA C28FA 1_555 1_555
C30FA C29FA 1_555 1_555
H26FA C30FA 1_555 1_555
C31FA C29FA 1_555 1_555
N2FA C6FA 1_555 1_555
N3FA C12FA 1_555 1_555
N4FA C17FA 1_555 1_555
N5FA C18FA 1_555 1_555
N6FA C17FA 1_555 1_555
N7FA C23FA 1_555 1_555
N8FA Co2I 1_555 1_555
N9FA Co2I 1_555 1_555
N10FA C31FA 1_555 1_555
S2FA C25FA 1_555 1_555
C26WA H23WA 1_555 1_555
C27WA C26WA 1_555 1_555
H24WA C27WA 1_555 1_555
C28WA C27WA 1_555 1_555
H25WA C28WA 1_555 1_555
C29WA C28WA 1_555 1_555
C30WA C29WA 1_555 1_555
H26WA C30WA 1_555 1_555
C31WA C29WA 1_555 1_555
N9WA Co2 1_555 1_555
N10WA C31FA 1_555 1_555
C26AC H23AC 1_555 1_555
C27AC C26AC 1_555 1_555
H24AC C27AC 1_555 1_555
C28AC C27AC 1_555 1_555
H25AC C28AC 1_555 1_555
C29AC C28AC 1_555 1_555
C30AC C29AC 1_555 1_555
H26AC C30AC 1_555 1_555
C31AC N10FA 1_555 1_555
N9AC C26AC 1_555 1_555
N10AC C31WA 1_555 1_555
C6WA H11WA 1_555 1_555
C7WA C6WA 1_555 1_555
H12WA C7WA 1_555 1_555
C8WA C7WA 1_555 1_555
H13WA C8WA 1_555 1_555
C9WA C8WA 1_555 1_555
C10WA C9WA 1_555 1_555
H14WA C10WA 1_555 1_555
C12WA H15WA 1_555 1_555
C13WA C12WA 1_555 1_555
C14WA C13WA 1_555 1_555
H16WA C14WA 1_555 1_555
C15WA C14WA 1_555 1_555
H17WA C15WA 1_555 1_555
C16WA C15WA 1_555 1_555
H18WA C16WA 1_555 1_555
C17WA C13WA 1_555 1_555
C18WA C20WA 1_555 1_555
C19WA C9WA 1_555 1_555
C20WA C21WA 1_555 1_555
C21WA H19WA 1_555 1_555
C22WA C21WA 1_555 1_555
H20WA C22WA 1_555 1_555
C23WA C22WA 1_555 1_555
H21WA C23WA 1_555 1_555
C24WA C20WA 1_555 1_555
H22WA C24WA 1_555 1_555
C25WA N8WA 1_555 1_555
N2WA C6WA 1_555 1_555
N3WA C12WA 1_555 1_555
N4WA C17WA 1_555 1_555
N5WA C18WA 1_555 1_555
N6WA C17WA 1_555 1_555
N7WA Co2 1_555 1_555
N8WA Co2 1_555 1_555
S2WA C25WA 1_555 1_555
C6ZA H11ZA 1_555 1_555
C7ZA C6ZA 1_555 1_555
H12ZA C7ZA 1_555 1_555
C8ZA C7ZA 1_555 1_555
H13ZA C8ZA 1_555 1_555
C9ZA C8ZA 1_555 1_555
C10ZA C9ZA 1_555 1_555
H14ZA C10ZA 1_555 1_555
C12ZA H15ZA 1_555 1_555
C13ZA C12ZA 1_555 1_555
C14ZA C13ZA 1_555 1_555
H16ZA C14ZA 1_555 1_555
C15ZA C14ZA 1_555 1_555
H17ZA C15ZA 1_555 1_555
C16ZA C15ZA 1_555 1_555
H18ZA C16ZA 1_555 1_555
C17ZA C13ZA 1_555 1_555
C18ZA C20ZA 1_555 1_555
C19ZA C9ZA 1_555 1_555
C20ZA C21ZA 1_555 1_555
C21ZA H19ZA 1_555 1_555
C22ZA C21ZA 1_555 1_555
H20ZA C22ZA 1_555 1_555
C23ZA C22ZA 1_555 1_555
H21ZA C23ZA 1_555 1_555
C24ZA C20ZA 1_555 1_555
H22ZA C24ZA 1_555 1_555
C25ZA N8ZA 1_555 1_555
N2ZA C6ZA 1_555 1_555
N3ZA C12ZA 1_555 1_555
N4ZA C17ZA 1_555 1_555
N5ZA C18ZA 1_555 1_555
N6ZA C17ZA 1_555 1_555
N7ZA Co2CA 1_555 1_555
N8ZA Co2CA 1_555 1_555
S2ZA C25ZA 1_555 1_555
Co1VC N1VC 1_555 1_555
C6VC H11VC 1_555 1_555
C7VC C6VC 1_555 1_555
H12VC C7VC 1_555 1_555
C8VC C7VC 1_555 1_555
H13VC C8VC 1_555 1_555
C9VC C8VC 1_555 1_555
C10VC C9VC 1_555 1_555
H14VC C10VC 1_555 1_555
C11VC N1VC 1_555 1_555
C12VC H15VC 1_555 1_555
C13VC C12VC 1_555 1_555
C14VC C13VC 1_555 1_555
H16VC C14VC 1_555 1_555
C15VC C14VC 1_555 1_555
H17VC C15VC 1_555 1_555
C16VC C15VC 1_555 1_555
H18VC C16VC 1_555 1_555
C17VC C13VC 1_555 1_555
C18VC C20VC 1_555 1_555
C19VC C9VC 1_555 1_555
C20VC C21VC 1_555 1_555
C21VC H19VC 1_555 1_555
C22VC C21VC 1_555 1_555
H20VC C22VC 1_555 1_555
C23VC C22VC 1_555 1_555
H21VC C23VC 1_555 1_555
C24VC C20VC 1_555 1_555
H22VC C24VC 1_555 1_555
N2VC Co1 1_555 1_555
N3VC Co1VC 1_555 1_555
N4VC C17VC 1_555 1_555
N5VC C18VC 1_555 1_555
N6VC C17VC 1_555 1_555
N7VC C23VC 1_555 1_555
S1VC C11VC 1_555 1_555
C11QB N1QB 1_555 1_555
N1QB Co1 1_555 1_555
S1QB C11QB 1_555 1_555
C25I N8I 1_555 1_555
N8I Co2I 1_555 1_555
S2I C25I 1_555 1_555
Co1ZC N2 1_555 1_555
C11BG N1BG 1_555 1_555
N1BG Co1VC 1_555 1_555
S1BG C11BG 1_555 1_555
C11EE N1EE 1_555 1_555
N1EE Co1ZC 1_555 1_555
S1EE C11EE 1_555 1_555
C11ZC N1ZC 1_555 1_555
N1ZC Co1ZC 1_555 1_555
S1ZC C11ZC 1_555 1_555
Co1O N3FA 1_555 1_555
Co1V N3WA 1_555 1_555
Co1CA N3CA 1_555 1_555
Co1NA N3ZA 1_555 1_555
Co1UC N2CA 1_555 1_555
Co1FD N2WA 1_555 1_555
Co1MD N2ZA 1_555 1_555
Co1TD N2FA 1_555 1_555
Co2F N9AC 1_555 1_555
Co2FB N9EC 1_555 1_555
Co2VC N7VC 1_555 1_555
N2H Co1VC 1_555 1_555
N2Q Co1ZC 1_555 1_555
N2T Co1VC 1_555 1_555
N2FD Co1 1_555 1_555
N3QB Co1 1_555 1_555
N3ZC Co1ZC 1_555 1_555
N3EE Co1ZC 1_555 1_555
N3BG Co1VC 1_555 1_555
N7I Co2I 1_555 1_555
N9I Co2I 1_555 1_555
N9ZA Co2CA 1_555 1_555
C4 C5 1_555 1_555
C10 N2 1_555 1_555
C12 N3 1_555 1_555
C16 N3 1_555 1_555
C18 N6 1_555 1_555
C19 N4 1_555 1_555
C19 N5 1_555 1_555
C24 N7 1_555 1_555
C26 N9 1_555 1_555
C30 N9 1_555 1_555
C30CA N9CA 1_555 1_555
C31CA N10CA 1_555 1_555
C29EC C31EC 1_555 1_555
C30EC N9EC 1_555 1_555
C31EC N10EC 1_555 1_555
C10CA N2CA 1_555 1_555
C16CA N3CA 1_555 1_555
C18CA N6CA 1_555 1_555
C19CA N4CA 1_555 1_555
C19CA N5CA 1_555 1_555
C23CA N7CA 1_555 1_555
C24CA N7CA 1_555 1_555
C10FA N2FA 1_555 1_555
C16FA N3FA 1_555 1_555
C18FA N6FA 1_555 1_555
C19FA N4FA 1_555 1_555
C19FA N5FA 1_555 1_555
C24FA N7FA 1_555 1_555
C26FA N9FA 1_555 1_555
C30FA N9FA 1_555 1_555
C26WA N9WA 1_555 1_555
C30WA N9WA 1_555 1_555
C31WA N10WA 1_555 1_555
C29AC C31AC 1_555 1_555
C30AC N9AC 1_555 1_555
C31AC N10AC 1_555 1_555
C10WA N2WA 1_555 1_555
C16WA N3WA 1_555 1_555
C18WA N6WA 1_555 1_555
C19WA N4WA 1_555 1_555
C19WA N5WA 1_555 1_555
C23WA N7WA 1_555 1_555
C24WA N7WA 1_555 1_555
C10ZA N2ZA 1_555 1_555
C16ZA N3ZA 1_555 1_555
C18ZA N6ZA 1_555 1_555
C19ZA N4ZA 1_555 1_555
C19ZA N5ZA 1_555 1_555
C23ZA N7ZA 1_555 1_555
C24ZA N7ZA 1_555 1_555
C6VC N2VC 1_555 1_555
C10VC N2VC 1_555 1_555
C12VC N3VC 1_555 1_555
C16VC N3VC 1_555 1_555
C18VC N6VC 1_555 1_555
C19VC N4VC 1_555 1_555
C19VC N5VC 1_555 1_555
C24VC N7VC 1_555 1_555

#END
