
#######################################################################
#
#                 Cambridge Crystallographic Data Centre
#                                CCDC 
#
#######################################################################
#
# If this CIF has been generated from an entry in the Cambridge 
# Structural Database, then it will include bibliographic, chemical, 
# crystal, experimental, refinement or atomic coordinate data resulting 
# from the CCDC's data processing and validation procedures.
#
#######################################################################

data_RIFTIK
_symmetry_cell_setting           triclinic
_symmetry_space_group_name_H-M   'P -1'
_symmetry_Int_Tables_number      2
_space_group_name_Hall           '-P 1'
loop_
_symmetry_equiv_pos_site_id
_symmetry_equiv_pos_as_xyz
1 x,y,z
2 -x,-y,-z
_cell_length_a                   8.4947(6)
_cell_length_b                   10.4886(8)
_cell_length_c                   12.9341(10)
_cell_angle_alpha                78.8110(10)
_cell_angle_beta                 72.7770(10)
_cell_angle_gamma                81.0530(10)
_cell_volume                     1073.87
loop_
_atom_site_label
_atom_site_type_symbol
_atom_site_fract_x
_atom_site_fract_y
_atom_site_fract_z
Cd1 Cd 1.046401(14) 0.167747(11) 0.488623(10)
S1 S 1.05760(5) -0.20475(4) 0.96022(3)
O1 O 1.05388(19) 0.08273(13) 0.69418(12)
O2 O 1.10825(16) -0.04679(13) 0.57054(10)
O3 O 1.67169(16) -0.19225(14) 0.54175(12)
O4 O 1.73641(16) -0.10099(14) 0.66140(11)
O5 O 1.05066(18) -0.14325(14) 1.05180(10)
O6 O 1.15468(16) -0.32861(12) 0.94982(11)
N1 N 1.12830(18) -0.10324(14) 0.85089(11)
N2 N 1.00294(19) 0.37415(14) 0.38466(12)
N3 N 0.79952(19) 0.27842(15) 0.57761(12)
C1 C 1.09810(19) -0.02529(16) 0.66611(13)
C2 C 1.15295(19) -0.14199(15) 0.74299(13)
H1 H 1.0842 -0.2124 0.7521
C3 C 1.3353(2) -0.19117(16) 0.69317(14)
H2 H 1.3698 -0.2635 0.7437
H3 H 1.3453 -0.2232 0.6258
C4 C 1.4495(2) -0.08402(18) 0.66905(16)
H4 H 1.4156 -0.0126 0.6175
H5 H 1.4368 -0.0507 0.7363
C5 C 1.6310(2) -0.13016(17) 0.62204(15)
C6 C 0.8530(2) -0.22787(17) 0.96479(13)
C7 C 0.7469(3) -0.1237(2) 0.93337(19)
H6 H 0.7813 -0.0403 0.9098
C8 C 0.5879(3) -0.1461(3) 0.9378(2)
H7 H 0.5153 -0.0772 0.9161
C9 C 0.5367(3) -0.2695(3) 0.9741(2)
H8 H 0.4299 -0.2833 0.9769
C10 C 0.6426(3) -0.3720(3) 1.0061(2)
H9 H 0.6072 -0.4548 1.0307
C11 C 0.8022(2) -0.3523(2) 1.00167(18)
H10 H 0.8744 -0.4216 1.0231
C12 C 1.1048(3) 0.4144(2) 0.28652(16)
H11 H 1.1919 0.3560 0.2551
C13 C 1.0856(3) 0.5394(2) 0.23010(17)
H12 H 1.1571 0.5642 0.1615
C14 C 0.9590(3) 0.6261(2) 0.27739(17)
H13 H 0.9445 0.7111 0.2415
C15 C 0.8524(3) 0.58588(18) 0.37928(16)
H14 H 0.7664 0.6438 0.4125
C16 C 0.8761(2) 0.45802(16) 0.43089(14)
C17 C 0.7631(2) 0.40453(17) 0.53754(14)
C18 C 0.6243(3) 0.4791(2) 0.59295(18)
H15 H 0.6024 0.5670 0.5662
C19 C 0.5199(3) 0.4207(2) 0.6881(2)
H16 H 0.4271 0.4691 0.7262
C20 C 0.5540(3) 0.2904(2) 0.72626(19)
H17 H 0.4829 0.2488 0.7888
C21 C 0.6965(3) 0.2226(2) 0.66945(18)
H18 H 0.7216 0.1351 0.6961
H19 H 1.088(3) -0.022(2) 0.858(2)
Cd1A Cd 0.953599(14) -0.167747(11) 0.511377(10)
Cd1A_2 Cd 1.953599(14) -0.167747(11) 0.511377(10)
O2A O 0.89175(16) 0.04679(13) 0.42946(10)
O3A O 1.32831(16) 0.19225(14) 0.45825(12)
O4A O 1.26359(16) 0.10099(14) 0.33860(11)
loop_
_geom_bond_atom_site_label_1
_geom_bond_atom_site_label_2
_geom_bond_site_symmetry_1
_geom_bond_site_symmetry_2
Cd1 O2 1_555 1_555
S1 O5 1_555 1_555
O1 C1 1_555 1_555
O2 C1 1_555 1_555
O3 C5 1_555 1_555
O4 C5 1_555 1_555
O6 S1 1_555 1_555
N1 S1 1_555 1_555
N2 Cd1 1_555 1_555
N3 Cd1 1_555 1_555
C1 C2 1_555 1_555
C2 N1 1_555 1_555
H1 C2 1_555 1_555
C3 C2 1_555 1_555
H2 C3 1_555 1_555
H3 C3 1_555 1_555
C4 C3 1_555 1_555
H4 C4 1_555 1_555
H5 C4 1_555 1_555
C5 C4 1_555 1_555
C6 S1 1_555 1_555
C7 C6 1_555 1_555
H6 C7 1_555 1_555
C8 C7 1_555 1_555
H7 C8 1_555 1_555
C9 C8 1_555 1_555
H8 C9 1_555 1_555
C10 C9 1_555 1_555
H9 C10 1_555 1_555
C11 C6 1_555 1_555
H10 C11 1_555 1_555
C12 N2 1_555 1_555
H11 C12 1_555 1_555
C13 C12 1_555 1_555
H12 C13 1_555 1_555
C14 C13 1_555 1_555
H13 C14 1_555 1_555
C15 C14 1_555 1_555
H14 C15 1_555 1_555
C16 N2 1_555 1_555
C17 N3 1_555 1_555
C18 C17 1_555 1_555
H15 C18 1_555 1_555
C19 C18 1_555 1_555
H16 C19 1_555 1_555
C20 C19 1_555 1_555
H17 C20 1_555 1_555
C21 N3 1_555 1_555
H18 C21 1_555 1_555
H19 N1 1_555 1_555
Cd1A O2 1_555 1_555
Cd1A_2 O3 1_555 1_555
O2A Cd1 1_555 1_555
O3A Cd1 1_555 1_555
O4A Cd1 1_555 1_555
O4 Cd1A_2 1_555 1_555
C10 C11 1_555 1_555
C15 C16 1_555 1_555
C16 C17 1_555 1_555
C20 C21 1_555 1_555
Cd1A O2A 1_555 1_555

#END
