
#######################################################################
#
#                 Cambridge Crystallographic Data Centre
#                                CCDC 
#
#######################################################################
#
# If this CIF has been generated from an entry in the Cambridge 
# Structural Database, then it will include bibliographic, chemical, 
# crystal, experimental, refinement or atomic coordinate data resulting 
# from the CCDC's data processing and validation procedures.
#
#######################################################################

data_RIFTUW
_symmetry_cell_setting           orthorhombic
_symmetry_space_group_name_H-M   'P 21 21 21'
_symmetry_Int_Tables_number      19
_space_group_name_Hall           'P 2ac 2ab'
loop_
_symmetry_equiv_pos_site_id
_symmetry_equiv_pos_as_xyz
1 x,y,z
2 1/2-x,-y,1/2+z
3 -x,1/2+y,1/2-z
4 1/2+x,1/2-y,-z
_cell_length_a                   13.5122(9)
_cell_length_b                   14.0553(9)
_cell_length_c                   25.2257(16)
_cell_angle_alpha                90
_cell_angle_beta                 90
_cell_angle_gamma                90
_cell_volume                     4790.82
loop_
_atom_site_label
_atom_site_type_symbol
_atom_site_fract_x
_atom_site_fract_y
_atom_site_fract_z
Cu1 Cu 0.82909(4) 0.99712(4) 0.05135(2)
Cu2 Cu 0.62915(4) 0.44683(4) 0.00753(2)
S1 S 0.60978(18) 0.80391(12) 0.24338(6)
S2 S 1.02233(12) 0.78677(9) 0.18550(5)
O1 O 0.8123(3) 0.9097(2) 0.11054(14)
O2 O 0.6553(3) 0.9513(3) 0.12223(18)
O3 O 0.7735(3) 0.5050(3) 0.06665(18)
O4 O 0.6155(3) 0.5388(2) 0.06496(15)
O5 O 0.5086(6) 0.7899(6) 0.2579(3)
O6 O 0.6835(7) 0.7455(4) 0.2662(2)
O7 O 0.9935(2) 0.9492(2) 0.04868(14)
O8 O 1.1551(3) 0.9512(3) 0.04149(15)
O9 O 1.1431(3) 0.5453(3) 0.0085(2)
O10 O 1.2935(3) 0.6025(2) -0.00190(16)
O11 O 1.0885(4) 0.7091(3) 0.18878(16)
O12 O 0.9292(4) 0.7805(4) 0.2118(2)
N1 N 0.6152(4) 0.7915(4) 0.18037(18)
H1 H 0.5613 0.7812 0.1631
N2 N 1.0011(4) 0.8072(4) 0.1238(2)
H2 H 0.964(4) 0.838(4) 0.122(2)
N3 N 0.6125(3) 0.3344(3) 0.05480(16)
N4 N 0.6274(3) 0.3449(3) -0.04758(17)
N5 N 0.8487(2) 1.0970(3) -0.00526(14)
N6 N 0.8482(3) 1.1123(2) 0.09724(14)
C1 C 0.7228(4) 0.8964(3) 0.12667(19)
C2 C 0.7075(4) 0.7970(3) 0.15132(19)
H3 H 0.7624 0.7834 0.1755
C3 C 0.7085(4) 0.7240(3) 0.10619(18)
H4 H 0.7650 0.7359 0.0834
H5 H 0.6490 0.7312 0.0850
C4 C 0.7140(6) 0.6219(4) 0.1275(2)
H6 H 0.7771 0.6124 0.1450
H7 H 0.6621 0.6124 0.1535
C5 C 0.7027(5) 0.5495(4) 0.0837(2)
C6 C 0.6361(5) 0.9227(4) 0.2600(2)
C7 C 0.5631(7) 0.9861(6) 0.2592(4)
H8 H 0.4992 0.9720 0.2479
C8 C 0.5943(10) 1.0841(8) 0.2787(5)
H9 H 0.5505 1.1351 0.2797
C9 C 0.6916(10) 1.0926(7) 0.2949(4)
H10 H 0.7097 1.1500 0.3104
C10 C 0.7585(9) 1.0301(7) 0.2907(4)
H11 H 0.8243 1.0437 0.2983
C11 C 0.7302(6) 0.9439(6) 0.2748(3)
H12 H 0.7774 0.8957 0.2739
C12 C 1.0746(4) 0.9142(3) 0.05764(19)
C13 C 1.0847(4) 0.8219(3) 0.0883(2)
H13 H 1.1443 0.8269 0.1103
C14 C 1.0981(6) 0.7367(5) 0.0518(3)
H14 H 1.0491 0.6896 0.0618
H15 H 1.0817 0.7575 0.0162
C15 C 1.1851(6) 0.6924(8) 0.0491(4)
H16 H 1.2022 0.6751 0.0852
H17 H 1.2329 0.7399 0.0381
C16 C 1.2048(5) 0.6065(5) 0.0161(2)
C17 C 1.0864(5) 0.8863(4) 0.2102(2)
C18 C 1.1875(6) 0.8899(6) 0.2098(3)
H18 H 1.2229 0.8372 0.1981
C19 C 1.2388(10) 0.9699(9) 0.2263(4)
H19 H 1.3075 0.9736 0.2255
C20 C 1.1800(13) 1.0439(9) 0.2441(4)
H20 H 1.2118 1.0992 0.2551
C21 C 1.0811(11) 1.0424(7) 0.2469(4)
H21 H 1.0462 1.0940 0.2604
C22 C 1.0318(9) 0.9619(6) 0.2292(3)
H22 H 0.9631 0.9589 0.2301
C23 C 0.6072(4) 0.3360(4) 0.1083(2)
H23 H 0.6056 0.3946 0.1253
C24 C 0.6039(4) 0.2551(4) 0.1387(2)
H24 H 0.6006 0.2586 0.1754
C25 C 0.6057(4) 0.1688(4) 0.1132(3)
H25 H 0.6037 0.1129 0.1329
C26 C 0.6103(4) 0.1642(4) 0.0586(2)
H26 H 0.6118 0.1059 0.0412
C27 C 0.6126(3) 0.2488(3) 0.03049(19)
C28 C 0.6179(3) 0.2557(3) -0.02817(19)
C29 C 0.6108(4) 0.1769(4) -0.0612(2)
H27 H 0.6032 0.1161 -0.0472
C30 C 0.6155(5) 0.1910(5) -0.1150(2)
H28 H 0.6119 0.1393 -0.1379
C31 C 0.6253(5) 0.2808(5) -0.1349(2)
H29 H 0.6271 0.2910 -0.1713
C32 C 0.6326(5) 0.3570(4) -0.0997(2)
H30 H 0.6413 0.4181 -0.1132
C33 C 0.8518(4) 1.0810(4) -0.05766(19)
H31 H 0.8470 1.0190 -0.0702
C34 C 0.8621(4) 1.1545(5) -0.0934(2)
H32 H 0.8645 1.1421 -0.1296
C35 C 0.8685(4) 1.2455(4) -0.0752(2)
H33 H 0.8727 1.2958 -0.0990
C36 C 0.8689(4) 1.2629(4) -0.0218(2)
H34 H 0.8761 1.3245 -0.0089
C37 C 0.8580(3) 1.1861(3) 0.01290(17)
C38 C 0.8568(3) 1.1955(3) 0.07136(17)
C39 C 0.8632(4) 1.2814(3) 0.0983(2)
H35 H 0.8681 1.3385 0.0798
C40 C 0.8622(5) 1.2806(4) 0.1525(2)
H36 H 0.8670 1.3374 0.1712
C41 C 0.8541(5) 1.1961(4) 0.1794(2)
H37 H 0.8526 1.1951 0.2162
C42 C 0.8483(4) 1.1128(4) 0.15071(18)
H38 H 0.8442 1.0552 0.1688
Cu1C Cu 1.32909(4) 0.50288(4) -0.05135(2)
Cu2C Cu 1.12915(4) 1.05317(4) -0.00753(2)
O8C O 0.6551(3) 0.5488(3) -0.04149(15)
O10C O 0.7935(3) 0.8975(2) 0.00190(16)
O13 O 0.4183(6) 0.8209(5) 0.1334(3)
H39 H 0.4097 0.7662 0.1234
H40 H 0.4385 0.8526 0.1044
O14 O 0.4473(4) 0.6681(4) 0.0660(2)
H41 H 0.4203 0.6777 0.0371
H42 H 0.4787 0.6161 0.0652
O15 O 0.9518(5) 0.4956(7) 0.0172(5)
H43 H 0.9180 0.4909 0.0005
H44 H 1.0108 0.5099 0.0124
O16 O 0.8875(13) 0.5064(10) 0.9100(8)
H45 H 0.9435 0.5023 0.8934
H46 H 0.8877 0.5650 0.9224
loop_
_geom_bond_atom_site_label_1
_geom_bond_atom_site_label_2
_geom_bond_site_symmetry_1
_geom_bond_site_symmetry_2
Cu1 O1 1_555 1_555
Cu2 O3 1_555 1_555
S1 O5 1_555 1_555
S2 O11 1_555 1_555
O1 C1 1_555 1_555
O2 C1 1_555 1_555
O3 C5 1_555 1_555
O4 Cu2 1_555 1_555
O6 S1 1_555 1_555
O7 Cu1 1_555 1_555
O8 C12 1_555 1_555
O9 C16 1_555 1_555
O10 C16 1_555 1_555
O12 S2 1_555 1_555
O13 H39 1_555 1_555
O14 H41 1_555 1_555
O15 H43 1_555 1_555
O16 H45 1_555 1_555
N1 S1 1_555 1_555
H1 N1 1_555 1_555
N2 S2 1_555 1_555
H2 N2 1_555 1_555
N3 Cu2 1_555 1_555
N4 Cu2 1_555 1_555
N5 Cu1 1_555 1_555
N6 Cu1 1_555 1_555
C1 C2 1_555 1_555
C2 N1 1_555 1_555
H3 C2 1_555 1_555
C3 C2 1_555 1_555
H4 C3 1_555 1_555
H5 C3 1_555 1_555
C4 C3 1_555 1_555
H6 C4 1_555 1_555
H7 C4 1_555 1_555
C5 O4 1_555 1_555
C6 S1 1_555 1_555
C7 C6 1_555 1_555
H8 C7 1_555 1_555
C8 C7 1_555 1_555
H9 C8 1_555 1_555
C9 C8 1_555 1_555
H10 C9 1_555 1_555
C10 C9 1_555 1_555
H11 C10 1_555 1_555
C11 C6 1_555 1_555
H12 C11 1_555 1_555
C12 O7 1_555 1_555
C13 N2 1_555 1_555
H13 C13 1_555 1_555
C14 C13 1_555 1_555
H14 C14 1_555 1_555
H15 C14 1_555 1_555
C15 C14 1_555 1_555
H16 C15 1_555 1_555
H17 C15 1_555 1_555
C16 C15 1_555 1_555
C17 S2 1_555 1_555
C18 C17 1_555 1_555
H18 C18 1_555 1_555
C19 C18 1_555 1_555
H19 C19 1_555 1_555
C20 C19 1_555 1_555
H20 C20 1_555 1_555
C21 C20 1_555 1_555
H21 C21 1_555 1_555
C22 C17 1_555 1_555
H22 C22 1_555 1_555
C23 N3 1_555 1_555
H23 C23 1_555 1_555
C24 C23 1_555 1_555
H24 C24 1_555 1_555
C25 C24 1_555 1_555
H25 C25 1_555 1_555
C26 C25 1_555 1_555
H26 C26 1_555 1_555
C27 N3 1_555 1_555
C28 N4 1_555 1_555
C29 C28 1_555 1_555
H27 C29 1_555 1_555
C30 C29 1_555 1_555
H28 C30 1_555 1_555
C31 C30 1_555 1_555
H29 C31 1_555 1_555
C32 N4 1_555 1_555
H30 C32 1_555 1_555
C33 N5 1_555 1_555
H31 C33 1_555 1_555
C34 C33 1_555 1_555
H32 C34 1_555 1_555
C35 C34 1_555 1_555
H33 C35 1_555 1_555
C36 C35 1_555 1_555
H34 C36 1_555 1_555
C37 N5 1_555 1_555
C38 N6 1_555 1_555
C39 C38 1_555 1_555
H35 C39 1_555 1_555
C40 C39 1_555 1_555
H36 C40 1_555 1_555
C41 C40 1_555 1_555
H37 C41 1_555 1_555
C42 N6 1_555 1_555
H38 C42 1_555 1_555
H40 O13 1_555 1_555
H42 O14 1_555 1_555
H44 O15 1_555 1_555
H46 O16 1_555 1_555
Cu1C O10 1_555 1_555
Cu2C O8 1_555 1_555
O8C Cu2 1_555 1_555
O10C Cu1 1_555 1_555
C4 C5 1_555 1_555
C10 C11 1_555 1_555
C12 C13 1_555 1_555
C21 C22 1_555 1_555
C26 C27 1_555 1_555
C27 C28 1_555 1_555
C31 C32 1_555 1_555
C36 C37 1_555 1_555
C37 C38 1_555 1_555
C41 C42 1_555 1_555

#END
