
#######################################################################
#
#                 Cambridge Crystallographic Data Centre
#                                CCDC 
#
#######################################################################
#
# If this CIF has been generated from an entry in the Cambridge 
# Structural Database, then it will include bibliographic, chemical, 
# crystal, experimental, refinement or atomic coordinate data resulting 
# from the CCDC's data processing and validation procedures.
#
#######################################################################

data_RIFTOQ
_symmetry_cell_setting           monoclinic
_symmetry_space_group_name_H-M   'P 21'
_symmetry_Int_Tables_number      4
_space_group_name_Hall           'P 2yb'
loop_
_symmetry_equiv_pos_site_id
_symmetry_equiv_pos_as_xyz
1 x,y,z
2 -x,1/2+y,-z
_cell_length_a                   8.022(3)
_cell_length_b                   5.1670(19)
_cell_length_c                   17.229(6)
_cell_angle_alpha                90
_cell_angle_beta                 96.806(5)
_cell_angle_gamma                90
_cell_volume                     709.104
loop_
_atom_site_label
_atom_site_type_symbol
_atom_site_fract_x
_atom_site_fract_y
_atom_site_fract_z
Cd1 Cd 0.92754(4) -0.39302(14) 0.401874(18)
S1 S 0.4066(2) 0.3388(3) 0.18368(8)
O1 O 0.7342(6) -0.1502(10) 0.3237(3)
O2 O 0.8708(5) 0.2199(9) 0.3412(3)
O3 O 0.2783(6) 0.0607(11) 0.5154(3)
O4 O 0.1116(5) 0.3896(10) 0.4875(2)
O5 O 0.2740(7) 0.2164(13) 0.1336(3)
O6 O 0.3785(7) 0.5887(14) 0.2152(3)
O7 O 1.1086(7) -0.2142(15) 0.3223(4)
N1 N 0.4560(6) 0.1467(10) 0.2567(3)
H1 H 0.4157 -0.0077 0.2544
C1 C 0.7389(7) 0.0894(15) 0.3308(3)
C2 C 0.5668(7) 0.2243(12) 0.3271(3)
H2 H 0.5835 0.4121 0.3261
C3 C 0.4839(7) 0.1538(13) 0.3993(3)
H3 H 0.4511 -0.0269 0.3965
H4 H 0.5637 0.1772 0.4456
C4 C 0.3303(7) 0.3206(13) 0.4056(3)
H5 H 0.3656 0.4998 0.4115
H6 H 0.2557 0.3069 0.3572
C5 C 0.2334(7) 0.2497(13) 0.4731(4)
C6 C 0.5822(11) 0.3599(18) 0.1301(4)
C7 C 0.7108(13) 0.531(2) 0.1519(5)
H7 H 0.7086 0.6392 0.1949
C8 C 0.8458(15) 0.536(3) 0.1066(6)
H8 H 0.9273 0.6638 0.1157
C9 C 0.8585(15) 0.363(3) 0.0518(5)
H9 H 0.9546 0.3598 0.0265
C10 C 0.7333(12) 0.186(2) 0.0309(5)
H10 H 0.7433 0.0665 -0.0088
C11 C 0.5935(11) 0.1877(19) 0.0695(5)
H11 H 0.5061 0.0730 0.0550
H12 H 1.1805 -0.2658 0.2933
H13 H 1.0443 -0.1092 0.2966
Cd1_2 Cd 0.92754(4) 0.60698(14) 0.401874(18)
Cd1A Cd 0.07246(4) 0.10698(14) 0.598126(18)
Cd1_3 Cd -0.07246(4) 0.60698(14) 0.401874(18)
O2_2 O 0.8708(5) -0.7801(9) 0.3412(3)
O3A O 0.7217(6) -0.4393(11) 0.4846(3)
O4_2 O 1.1116(5) -0.6104(10) 0.4875(2)
O4A O 0.8884(5) -0.1104(10) 0.5125(2)
loop_
_geom_bond_atom_site_label_1
_geom_bond_atom_site_label_2
_geom_bond_site_symmetry_1
_geom_bond_site_symmetry_2
Cd1 O1 1_555 1_555
S1 O5 1_555 1_555
O1 C1 1_555 1_555
O2 C1 1_555 1_555
O3 C5 1_555 1_555
O4 C5 1_555 1_555
O6 S1 1_555 1_555
O7 Cd1 1_555 1_555
N1 S1 1_555 1_555
H1 N1 1_555 1_555
C1 C2 1_555 1_555
C2 N1 1_555 1_555
H2 C2 1_555 1_555
C3 C2 1_555 1_555
H3 C3 1_555 1_555
H4 C3 1_555 1_555
C4 C3 1_555 1_555
H5 C4 1_555 1_555
H6 C4 1_555 1_555
C5 C4 1_555 1_555
C6 S1 1_555 1_555
C7 C6 1_555 1_555
H7 C7 1_555 1_555
C8 C7 1_555 1_555
H8 C8 1_555 1_555
C9 C8 1_555 1_555
H9 C9 1_555 1_555
C10 C9 1_555 1_555
H10 C10 1_555 1_555
C11 C6 1_555 1_555
H11 C11 1_555 1_555
H12 O7 1_555 1_555
H13 O7 1_555 1_555
Cd1_2 O2 1_555 1_555
Cd1A O3 1_555 1_555
Cd1_3 O4 1_555 1_555
O2_2 Cd1 1_555 1_555
O3A Cd1 1_555 1_555
O4_2 Cd1 1_555 1_555
O4A Cd1 1_555 1_555
O4 Cd1A 1_555 1_555
C10 C11 1_555 1_555

#END
