
#######################################################################
#
#                 Cambridge Crystallographic Data Centre
#                                CCDC 
#
#######################################################################
#
# If this CIF has been generated from an entry in the Cambridge 
# Structural Database, then it will include bibliographic, chemical, 
# crystal, experimental, refinement or atomic coordinate data resulting 
# from the CCDC's data processing and validation procedures.
#
#######################################################################

data_RIFVUY
_symmetry_cell_setting           monoclinic
_symmetry_space_group_name_H-M   'C 2/c'
_symmetry_Int_Tables_number      15
_space_group_name_Hall           '-C 2yn'
loop_
_symmetry_equiv_pos_site_id
_symmetry_equiv_pos_as_xyz
1 x,y,z
2 1/2+x,1/2+y,z
3 -x,y,1/2-z
4 1/2-x,1/2+y,1/2-z
5 -x,-y,-z
6 1/2-x,1/2-y,-z
7 x,-y,1/2+z
8 1/2+x,1/2-y,1/2+z
_cell_length_a                   33.656(8)
_cell_length_b                   6.274(3)
_cell_length_c                   8.572(4)
_cell_angle_alpha                90
_cell_angle_beta                 93.350(10)
_cell_angle_gamma                90
_cell_volume                     1806.95
loop_
_atom_site_label
_atom_site_type_symbol
_atom_site_fract_x
_atom_site_fract_y
_atom_site_fract_z
K1 K 0.718720(14) 0.56650(8) 0.89036(6)
S1 S 0.691677(15) 0.07921(9) 0.77736(6)
O1 O 0.73023(5) 0.0564(3) 0.86271(19)
O2 O 0.67405(5) -0.1265(3) 0.73404(18)
O3 O 0.69331(5) 0.2208(3) 0.64353(18)
N1 N 0.66446(5) 0.2061(3) 0.9001(2)
C1 C 0.62172(6) 0.2413(4) 0.8574(3)
H1 H 0.6188 0.2759 0.7435
C2 C 0.59561(7) 0.0477(4) 0.8878(3)
H2 H 0.5993 0.0058 0.9990
H3 H 0.6038 -0.0737 0.8233
C3 C 0.55151(7) 0.0982(4) 0.8481(3)
H4 H 0.5474 0.1272 0.7348
H5 H 0.5351 -0.0271 0.8728
C4 C 0.53800(7) 0.2907(4) 0.9398(3)
H6 H 0.5100 0.3251 0.9070
H7 H 0.5392 0.2560 1.0527
C5 C 0.56428(7) 0.4834(4) 0.9124(3)
H8 H 0.5562 0.6027 0.9793
H9 H 0.5603 0.5291 0.8021
C6 C 0.60829(7) 0.4348(4) 0.9488(3)
H10 H 0.6129 0.4075 1.0621
H11 H 0.6244 0.5603 0.9220
H12 H 0.6679(7) 0.161(4) 0.980(3)
K1E K 0.781280(14) 0.93350(8) 1.10964(6)
K1_2 K 0.718720(14) -0.43350(8) 0.89036(6)
K1E_2 K 0.781280(14) -0.06650(8) 1.10964(6)
K1C K 0.781280(14) 0.06650(8) 0.60964(6)
K1F K 0.718720(14) 0.43350(8) 0.39036(6)
O1_2 O 0.73023(5) 1.0564(3) 0.86271(19)
O1E O 0.76977(5) 0.4436(3) 1.13729(19)
O1C O 0.76977(5) 0.5564(3) 0.63729(19)
O2_2 O 0.67405(5) 0.8735(3) 0.73404(18)
O3F O 0.69331(5) 0.7792(3) 1.14353(18)
O3C O 0.80669(5) 0.7208(3) 0.85647(18)
loop_
_geom_bond_atom_site_label_1
_geom_bond_atom_site_label_2
_geom_bond_site_symmetry_1
_geom_bond_site_symmetry_2
K1 O1 1_555 1_555
S1 O1 1_555 1_555
O1 K1_2 1_555 1_555
O2 S1 1_555 1_555
O3 K1 1_555 1_555
N1 K1 1_555 1_555
C1 N1 1_555 1_555
H1 C1 1_555 1_555
C2 C1 1_555 1_555
H2 C2 1_555 1_555
H3 C2 1_555 1_555
C3 C2 1_555 1_555
H4 C3 1_555 1_555
H5 C3 1_555 1_555
C4 C3 1_555 1_555
H6 C4 1_555 1_555
H7 C4 1_555 1_555
C5 C4 1_555 1_555
H8 C5 1_555 1_555
H9 C5 1_555 1_555
C6 C1 1_555 1_555
H10 C6 1_555 1_555
H11 C6 1_555 1_555
H12 N1 1_555 1_555
K1E O1_2 1_555 1_555
K1_2 O2 1_555 1_555
K1E_2 O1 1_555 1_555
K1C O1 1_555 1_555
K1F O3 1_555 1_555
O1_2 K1 1_555 1_555
O1E K1 1_555 1_555
O1C K1 1_555 1_555
O2_2 K1 1_555 1_555
O3F K1 1_555 1_555
O3C K1 1_555 1_555
S1 O3 1_555 1_555
S1 N1 1_555 1_555
O3 K1C 1_555 1_555
C5 C6 1_555 1_555
K1E O1E 1_555 1_555
K1E O3F 1_555 1_555
K1E O3C 1_555 1_555
K1E_2 O1E 1_555 1_555
K1C O1C 1_555 1_555
K1F O1C 1_555 1_555

#END
