
#######################################################################
#
#                 Cambridge Crystallographic Data Centre
#                                CCDC 
#
#######################################################################
#
# If this CIF has been generated from an entry in the Cambridge 
# Structural Database, then it will include bibliographic, chemical, 
# crystal, experimental, refinement or atomic coordinate data resulting 
# from the CCDC's data processing and validation procedures.
#
#######################################################################

data_RIFVOS
_symmetry_cell_setting           monoclinic
_symmetry_space_group_name_H-M   'C 2/c'
_symmetry_Int_Tables_number      15
_space_group_name_Hall           '-C 2yn'
loop_
_symmetry_equiv_pos_site_id
_symmetry_equiv_pos_as_xyz
1 x,y,z
2 1/2+x,1/2+y,z
3 -x,y,1/2-z
4 1/2-x,1/2+y,1/2-z
5 -x,-y,-z
6 1/2-x,1/2-y,-z
7 x,-y,1/2+z
8 1/2+x,1/2-y,1/2+z
_cell_length_a                   31.083(6)
_cell_length_b                   6.2718(14)
_cell_length_c                   8.5682(17)
_cell_angle_alpha                90
_cell_angle_beta                 94.481(10)
_cell_angle_gamma                90
_cell_volume                     1665.23
loop_
_atom_site_label
_atom_site_type_symbol
_atom_site_fract_x
_atom_site_fract_y
_atom_site_fract_z
Na1 Na 0.23231(4) 0.62743(18) 0.18626(13)
S1 S 0.19481(2) 0.12150(11) 0.03258(8)
O1 O 0.20935(6) 0.2810(3) 0.1485(2)
O2 O 0.22509(6) -0.0589(3) 0.0390(2)
O3 O 0.18643(6) 0.2011(3) -0.1255(2)
N1 N 0.14785(7) 0.0461(4) 0.0890(3)
C1 C 0.11847(9) -0.0859(4) -0.0149(3)
H1 H 0.1159 -0.0173 -0.1206
C2 C 0.13362(9) -0.3161(5) -0.0352(4)
H2 H 0.1615 -0.3160 -0.0835
H3 H 0.1381 -0.3852 0.0687
C3 C 0.10038(10) -0.4426(5) -0.1382(4)
H4 H 0.1100 -0.5928 -0.1435
H5 H 0.0987 -0.3837 -0.2457
C4 C 0.05540(10) -0.4361(5) -0.0767(4)
H6 H 0.0345 -0.5099 -0.1515
H7 H 0.0560 -0.5120 0.0247
C5 C 0.04077(9) -0.2064(5) -0.0551(4)
H8 H 0.0127 -0.2060 -0.0076
H9 H 0.0366 -0.1360 -0.1586
C6 C 0.07391(9) -0.0816(5) 0.0495(4)
H10 H 0.0760 -0.1437 0.1560
H11 H 0.0642 0.0681 0.0574
H12 H 0.1531(11) -0.020(6) 0.188(4)
Na1C Na 0.26769(4) 0.12743(18) 0.31374(13)
Na1_2 Na 0.23231(4) -0.37257(18) 0.18626(13)
Na1E Na 0.26769(4) -0.12743(18) -0.18626(13)
Na1F Na 0.23231(4) 0.37257(18) -0.31374(13)
O1C O 0.29065(6) 0.7810(3) 0.3515(2)
O2_2 O 0.22509(6) 0.9411(3) 0.0390(2)
O2E O 0.27491(6) 0.5589(3) -0.0390(2)
O2C O 0.27491(6) 0.4411(3) 0.4610(2)
O3F O 0.18643(6) 0.7989(3) 0.3745(2)
loop_
_geom_bond_atom_site_label_1
_geom_bond_atom_site_label_2
_geom_bond_site_symmetry_1
_geom_bond_site_symmetry_2
Na1 O1 1_555 1_555
S1 O1 1_555 1_555
O1 Na1C 1_555 1_555
O2 S1 1_555 1_555
O3 S1 1_555 1_555
N1 S1 1_555 1_555
C1 N1 1_555 1_555
H1 C1 1_555 1_555
C2 C1 1_555 1_555
H2 C2 1_555 1_555
H3 C2 1_555 1_555
C3 C2 1_555 1_555
H4 C3 1_555 1_555
H5 C3 1_555 1_555
C4 C3 1_555 1_555
H6 C4 1_555 1_555
H7 C4 1_555 1_555
C5 C4 1_555 1_555
H8 C5 1_555 1_555
H9 C5 1_555 1_555
C6 C1 1_555 1_555
H10 C6 1_555 1_555
H11 C6 1_555 1_555
H12 N1 1_555 1_555
Na1C O2 1_555 1_555
Na1_2 O2 1_555 1_555
Na1E O2 1_555 1_555
Na1F O3 1_555 1_555
O1C Na1 1_555 1_555
O2_2 Na1 1_555 1_555
O2E Na1 1_555 1_555
O2C Na1 1_555 1_555
O3F Na1 1_555 1_555
C5 C6 1_555 1_555
Na1C O2C 1_555 1_555
Na1F O2E 1_555 1_555

#END
