
#######################################################################
#
#                 Cambridge Crystallographic Data Centre
#                                CCDC 
#
#######################################################################
#
# If this CIF has been generated from an entry in the Cambridge 
# Structural Database, then it will include bibliographic, chemical, 
# crystal, experimental, refinement or atomic coordinate data resulting 
# from the CCDC's data processing and validation procedures.
#
#######################################################################

data_RIFWEJ
_symmetry_cell_setting           monoclinic
_symmetry_space_group_name_H-M   'C 2/c'
_symmetry_Int_Tables_number      15
_space_group_name_Hall           '-C 2yn'
loop_
_symmetry_equiv_pos_site_id
_symmetry_equiv_pos_as_xyz
1 x,y,z
2 1/2+x,1/2+y,z
3 -x,y,1/2-z
4 1/2-x,1/2+y,1/2-z
5 -x,-y,-z
6 1/2-x,1/2-y,-z
7 x,-y,1/2+z
8 1/2+x,1/2-y,1/2+z
_cell_length_a                   34.039(5)
_cell_length_b                   6.451(2)
_cell_length_c                   8.811(2)
_cell_angle_alpha                90
_cell_angle_beta                 92.670(10)
_cell_angle_gamma                90
_cell_volume                     1932.67
loop_
_atom_site_label
_atom_site_type_symbol
_atom_site_fract_x
_atom_site_fract_y
_atom_site_fract_z
Rb1 Rb -0.282260(5) 0.56222(3) -0.10781(2)
S1 S -0.311300(13) 0.07618(7) -0.22236(5)
O1 O -0.27361(4) 0.0498(2) -0.13963(17)
O2 O -0.32859(4) -0.1206(2) -0.26981(17)
O3 O -0.30919(5) 0.2204(2) -0.34829(16)
N1 N -0.33839(4) 0.1939(3) -0.09960(18)
C1 C -0.38034(5) 0.2295(3) -0.1405(2)
H1 H -0.3830 0.2559 -0.2501
C2 C -0.40626(6) 0.0469(3) -0.1042(3)
H2 H -0.4025 0.0128 0.0027
H3 H -0.3985 -0.0726 -0.1626
C3 C -0.45007(7) 0.0935(4) -0.1409(4)
H4 H -0.4544 0.1125 -0.2496
H5 H -0.4658 -0.0234 -0.1106
C4 C -0.46291(7) 0.2868(5) -0.0590(4)
H6 H -0.4899 0.3187 -0.0901
H7 H -0.4618 0.2613 0.0496
C5 C -0.43713(8) 0.4693(4) -0.0930(4)
H8 H -0.4449 0.5872 -0.0329
H9 H -0.4410 0.5060 -0.1994
C6 C -0.39326(7) 0.4229(4) -0.0579(4)
H10 H -0.3776 0.5401 -0.0885
H11 H -0.3887 0.4038 0.0507
H12 H -0.3351(6) 0.139(4) -0.019(3)
Rb1F Rb -0.282260(5) 0.43778(3) -0.60781(2)
Rb1F_2 Rb -0.282260(5) 0.43778(3) 0.39219(2)
Rb1E Rb -0.217740(5) 0.93778(3) 0.10781(2)
Rb1C Rb -0.217740(5) 0.06222(3) -0.39219(2)
Rb1C_2 Rb -0.217740(5) 1.06222(3) -0.39219(2)
Rb1_2 Rb -0.282260(5) -0.43778(3) -0.10781(2)
Rb1E_2 Rb -0.217740(5) -0.06222(3) 0.10781(2)
S1_2 S -0.311300(13) 1.07618(7) -0.22236(5)
O1_2 O -0.27361(4) 1.0498(2) -0.13963(17)
O1E O -0.22639(4) 0.4502(2) 0.13963(17)
O1C O -0.22639(4) 0.5498(2) -0.36037(17)
O2_2 O -0.32859(4) 0.8794(2) -0.26981(17)
O3F O -0.30919(5) 0.7796(2) 0.15171(16)
O3C O -0.19081(5) 0.7204(2) -0.15171(16)
loop_
_geom_bond_atom_site_label_1
_geom_bond_atom_site_label_2
_geom_bond_site_symmetry_1
_geom_bond_site_symmetry_2
Rb1 O1 1_555 1_555
S1 O1 1_555 1_555
O1 Rb1C 1_555 1_555
O2 S1 1_555 1_555
O3 Rb1 1_555 1_555
N1 Rb1 1_555 1_555
C1 N1 1_555 1_555
H1 C1 1_555 1_555
C2 C1 1_555 1_555
H2 C2 1_555 1_555
H3 C2 1_555 1_555
C3 C2 1_555 1_555
H4 C3 1_555 1_555
H5 C3 1_555 1_555
C4 C3 1_555 1_555
H6 C4 1_555 1_555
H7 C4 1_555 1_555
C5 C4 1_555 1_555
H8 C5 1_555 1_555
H9 C5 1_555 1_555
C6 C1 1_555 1_555
H10 C6 1_555 1_555
H11 C6 1_555 1_555
H12 N1 1_555 1_555
Rb1F O3 1_555 1_555
Rb1F_2 O1E 1_555 1_555
Rb1E O1_2 1_555 1_555
Rb1C O3 1_555 1_555
Rb1C_2 O1_2 1_555 1_555
Rb1_2 O1 1_555 1_555
Rb1E_2 O1 1_555 1_555
S1_2 O1_2 1_555 1_555
O1_2 Rb1 1_555 1_555
O1E Rb1 1_555 1_555
O1C Rb1 1_555 1_555
O2_2 Rb1 1_555 1_555
O3F Rb1 1_555 1_555
O3C Rb1 1_555 1_555
S1 O3 1_555 1_555
S1 N1 1_555 1_555
O2 Rb1_2 1_555 1_555
C5 C6 1_555 1_555
Rb1F O1C 1_555 1_555
Rb1F_2 O3F 1_555 1_555
Rb1E O1E 1_555 1_555
Rb1E O3F 1_555 1_555
Rb1E O3C 1_555 1_555
Rb1C O1C 1_555 1_555
Rb1C_2 O1C 1_555 1_555
Rb1C_2 O3C 1_555 1_555
Rb1E_2 O1E 1_555 1_555
S1_2 O2_2 1_555 1_555

#END
