
#######################################################################
#
#                 Cambridge Crystallographic Data Centre
#                                CCDC 
#
#######################################################################
#
# If this CIF has been generated from an entry in the Cambridge 
# Structural Database, then it will include bibliographic, chemical, 
# crystal, experimental, refinement or atomic coordinate data resulting 
# from the CCDC's data processing and validation procedures.
#
#######################################################################

data_RIFWAG
_symmetry_cell_setting           triclinic
_symmetry_space_group_name_H-M   'P -1'
_symmetry_Int_Tables_number      2
_space_group_name_Hall           '-P 1'
loop_
_symmetry_equiv_pos_site_id
_symmetry_equiv_pos_as_xyz
1 x,y,z
2 -x,-y,-z
_cell_length_a                   10.123(8)
_cell_length_b                   12.874(10)
_cell_length_c                   14.181(12)
_cell_angle_alpha                64.106(15)
_cell_angle_beta                 88.638(16)
_cell_angle_gamma                76.091(15)
_cell_volume                     1606.83
loop_
_atom_site_label
_atom_site_type_symbol
_atom_site_fract_x
_atom_site_fract_y
_atom_site_fract_z
Cu1 Cu 0.12923(6) 0.57455(5) 0.06325(5)
O1 O 0.3209(3) 0.5923(2) 0.0589(3)
O2 O 0.2276(3) 0.6930(3) 0.1479(3)
O3 O 0.8342(3) 0.5196(3) 0.0397(3)
O4 O 0.9445(3) 0.6061(3) 0.1062(3)
N1 N 0.0650(4) 0.7346(3) -0.0634(4)
N2 N -0.2586(7) 1.3910(7) -0.4090(6)
N3 N 0.1797(4) 0.4175(3) 0.1948(4)
N4 N 0.3498(4) -0.1160(4) 0.6807(4)
C1 C -0.0361(5) 0.9463(5) -0.1336(5)
H1 H -0.0745 1.0112 -0.1201
C2 C 0.0090(5) 0.8328(5) -0.0511(5)
H2 H -0.0001 0.8244 0.0171
C3 C 0.0765(5) 0.7527(5) -0.1641(5)
H3 H 0.1159 0.6871 -0.1763
C4 C 0.0335(5) 0.8623(6) -0.2496(5)
H4 H 0.0432 0.8684 -0.3171
C5 C -0.0234(5) 0.9624(5) -0.2370(5)
C6 C -0.0691(5) 1.0810(5) -0.3300(5)
H5 H -0.0544 1.0836 -0.3959
C7 C -0.1274(5) 1.1805(6) -0.3276(5)
H6 H -0.1408 1.1804 -0.2624
C8 C -0.1743(7) 1.2962(6) -0.4248(6)
C9 C -0.1406(5) 1.3036(5) -0.5161(6)
H7 H -0.0843 1.2384 -0.5220
C10 C -0.1872(7) 1.4037(7) -0.5985(6)
H8 H -0.1619 1.4075 -0.6631
C11 C -0.2710(9) 1.5051(7) -0.5988(6)
H9 H -0.3014 1.5748 -0.6609
C12 C -0.3077(8) 1.4983(6) -0.5026(7)
H10 H -0.3650 1.5644 -0.4988
C13 C 0.2689(5) 0.2052(5) 0.2857(5)
H11 H 0.3105 0.1351 0.2810
C14 C 0.2407(5) 0.3123(5) 0.1956(4)
H12 H 0.2652 0.3115 0.1322
C15 C 0.1474(5) 0.4129(5) 0.2889(5)
H13 H 0.1053 0.4842 0.2915
C16 C 0.1733(5) 0.3080(5) 0.3824(5)
H14 H 0.1480 0.3107 0.4449
C17 C 0.2366(5) 0.1996(5) 0.3831(5)
C18 C 0.2674(5) 0.0887(5) 0.4802(4)
H15 H 0.2399 0.0950 0.5410
C19 C 0.3298(5) -0.0202(5) 0.4927(5)
H16 H 0.3520 -0.0285 0.4319
C20 C 0.3668(5) -0.1275(5) 0.5917(5)
C21 C 0.3863(5) -0.2143(5) 0.7718(5)
H17 H 0.3725 -0.2059 0.8335
C22 C 0.4428(6) -0.3273(5) 0.7813(6)
H18 H 0.4678 -0.3929 0.8468
C23 C 0.4609(6) -0.3389(5) 0.6894(6)
H19 H 0.4972 -0.4136 0.6917
C24 C 0.4244(5) -0.2385(5) 0.5940(5)
H20 H 0.4382 -0.2449 0.5314
C25 C 0.4601(4) 0.6868(4) 0.1126(3)
C26 C 0.4651(4) 0.7716(4) 0.1488(4)
H21 H 0.3850 0.8088 0.1670
C27 C 0.5857(4) 0.8021(4) 0.1586(4)
C28 C 0.7043(4) 0.7402(3) 0.1362(3)
H22 H 0.7871 0.7555 0.1454
C29 C 0.7029(4) 0.6551(3) 0.0999(3)
C30 C 0.5804(4) 0.6309(3) 0.0857(3)
H23 H 0.5787 0.5775 0.0582
C31 C 0.3262(5) 0.6568(4) 0.1063(4)
C32 C 0.8365(5) 0.5881(4) 0.0793(4)
C33 C 0.5890(5) 0.8951(4) 0.1992(4)
C34 C 0.7218(6) 0.9307(6) 0.1850(6)
H24 H 0.7319 0.9716 0.1112
H25 H 0.7963 0.8606 0.2176
H26 H 0.7219 0.9827 0.2171
C35 C 0.5634(7) 0.8449(5) 0.3150(5)
H27 H 0.5546 0.9058 0.3383
H28 H 0.6386 0.7785 0.3557
H29 H 0.4807 0.8188 0.3242
C36 C 0.4709(6) 1.0061(4) 0.1430(5)
H30 H 0.4652 1.0582 0.1757
H31 H 0.3868 0.9827 0.1476
H32 H 0.4864 1.0470 0.0703
Cu1_2 Cu 1.12923(6) 0.57455(5) 0.06325(5)
Cu1A Cu 0.87077(6) 0.42545(5) -0.06325(5)
O3A O 0.1658(3) 0.4804(3) -0.0397(3)
O4_2 O -0.0555(3) 0.6061(3) 0.1062(3)
loop_
_geom_bond_atom_site_label_1
_geom_bond_atom_site_label_2
_geom_bond_site_symmetry_1
_geom_bond_site_symmetry_2
Cu1 O1 1_555 1_555
O1 C31 1_555 1_555
O2 Cu1 1_555 1_555
O3 C32 1_555 1_555
O4 C32 1_555 1_555
N1 Cu1 1_555 1_555
N2 C8 1_555 1_555
N3 Cu1 1_555 1_555
N4 C20 1_555 1_555
C1 H1 1_555 1_555
C2 N1 1_555 1_555
H2 C2 1_555 1_555
C3 N1 1_555 1_555
H3 C3 1_555 1_555
C4 C3 1_555 1_555
H4 C4 1_555 1_555
C5 C1 1_555 1_555
C6 C5 1_555 1_555
H5 C6 1_555 1_555
C7 C6 1_555 1_555
H6 C7 1_555 1_555
C8 C7 1_555 1_555
C9 C8 1_555 1_555
H7 C9 1_555 1_555
C10 C9 1_555 1_555
H8 C10 1_555 1_555
C11 C10 1_555 1_555
H9 C11 1_555 1_555
C12 N2 1_555 1_555
H10 C12 1_555 1_555
C13 H11 1_555 1_555
C14 N3 1_555 1_555
H12 C14 1_555 1_555
C15 N3 1_555 1_555
H13 C15 1_555 1_555
C16 C15 1_555 1_555
H14 C16 1_555 1_555
C17 C13 1_555 1_555
C18 C17 1_555 1_555
H15 C18 1_555 1_555
C19 C18 1_555 1_555
H16 C19 1_555 1_555
C20 C19 1_555 1_555
C21 N4 1_555 1_555
H17 C21 1_555 1_555
C22 C21 1_555 1_555
H18 C22 1_555 1_555
C23 C22 1_555 1_555
H19 C23 1_555 1_555
C24 C20 1_555 1_555
H20 C24 1_555 1_555
C25 C26 1_555 1_555
C26 H21 1_555 1_555
C27 C26 1_555 1_555
C28 C27 1_555 1_555
H22 C28 1_555 1_555
C29 C28 1_555 1_555
C30 C25 1_555 1_555
H23 C30 1_555 1_555
C31 O2 1_555 1_555
C32 C29 1_555 1_555
C33 C27 1_555 1_555
C34 C33 1_555 1_555
H24 C34 1_555 1_555
H25 C34 1_555 1_555
H26 C34 1_555 1_555
C35 C33 1_555 1_555
H27 C35 1_555 1_555
H28 C35 1_555 1_555
H29 C35 1_555 1_555
C36 C33 1_555 1_555
H30 C36 1_555 1_555
H31 C36 1_555 1_555
H32 C36 1_555 1_555
Cu1_2 O4 1_555 1_555
Cu1A O3 1_555 1_555
O3A Cu1 1_555 1_555
O4_2 Cu1 1_555 1_555
C1 C2 1_555 1_555
C4 C5 1_555 1_555
C11 C12 1_555 1_555
C13 C14 1_555 1_555
C16 C17 1_555 1_555
C23 C24 1_555 1_555
C25 C31 1_555 1_555
C29 C30 1_555 1_555

#END
