
#######################################################################
#
#                 Cambridge Crystallographic Data Centre
#                                CCDC 
#
#######################################################################
#
# If this CIF has been generated from an entry in the Cambridge 
# Structural Database, then it will include bibliographic, chemical, 
# crystal, experimental, refinement or atomic coordinate data resulting 
# from the CCDC's data processing and validation procedures.
#
#######################################################################

data_RIFWIO
_symmetry_cell_setting           monoclinic
_symmetry_space_group_name_H-M   'P 21/n'
_symmetry_Int_Tables_number      14
_space_group_name_Hall           '-P 2yn'
loop_
_symmetry_equiv_pos_site_id
_symmetry_equiv_pos_as_xyz
1 x,y,z
2 1/2-x,1/2+y,1/2-z
3 -x,-y,-z
4 1/2+x,1/2-y,1/2+z
_cell_length_a                   9.5243(5)
_cell_length_b                   15.9002(9)
_cell_length_c                   24.8762(14)
_cell_angle_alpha                90
_cell_angle_beta                 93.4810(10)
_cell_angle_gamma                90
_cell_volume                     3760.26
loop_
_atom_site_label
_atom_site_type_symbol
_atom_site_fract_x
_atom_site_fract_y
_atom_site_fract_z
Zn1 Zn 0.25385(3) 0.866383(19) 0.677790(12)
O1 O 0.12177(18) 0.96128(12) 0.67652(8)
O2 O -0.0191(2) 0.85244(12) 0.66797(9)
O3 O -0.55279(18) 0.90983(12) 0.67587(7)
O4 O -0.57998(19) 0.99515(12) 0.74514(8)
N1 N 0.2736(2) 0.78332(14) 0.61552(9)
N2 N 0.6151(3) 0.52486(16) 0.41104(10)
N3 N 0.2366(2) 0.80208(14) 0.74724(9)
C1 C 0.1798(9) 0.4710(3) 0.96024(19)
H1 H 0.1630 0.4410 0.9284
C2 C 0.4281(3) 0.7091(2) 0.56063(13)
H2 H 0.5201 0.6946 0.5540
C3 C 0.4029(3) 0.75984(19) 0.60308(12)
H3 H 0.4795 0.7792 0.6246
C4 C 0.1669(3) 0.7534(2) 0.58406(12)
H4 H 0.0758 0.7678 0.5919
C5 C 0.1850(3) 0.7023(2) 0.54071(13)
H5 H 0.1067 0.6832 0.5201
C6 C 0.3179(3) 0.67885(18) 0.52722(11)
C7 C 0.3371(3) 0.62527(19) 0.48018(12)
H6 H 0.2564 0.6093 0.4598
C8 C 0.4567(3) 0.5979(2) 0.46422(12)
H7 H 0.5366 0.6140 0.4850
C9 C 0.4804(3) 0.54489(19) 0.41746(11)
C10 C 0.3736(4) 0.5176(2) 0.38094(13)
H8 H 0.2804 0.5311 0.3862
C11 C 0.4061(4) 0.4707(2) 0.33714(14)
H9 H 0.3358 0.4519 0.3125
C12 C 0.5443(4) 0.4522(2) 0.33041(13)
H10 H 0.5698 0.4221 0.3005
C13 C 0.6443(4) 0.4788(2) 0.36848(14)
H11 H 0.7375 0.4639 0.3644
C14 C 0.2474(3) 0.8027(2) 0.84257(13)
H12 H 0.2566 0.8339 0.8742
C15 C 0.2509(3) 0.84258(19) 0.79426(12)
H13 H 0.2639 0.9005 0.7940
C16 C 0.2174(3) 0.71834(18) 0.74905(12)
H14 H 0.2044 0.6890 0.7168
C17 C 0.2161(3) 0.67452(19) 0.79628(12)
H15 H 0.2055 0.6164 0.7956
C18 C 0.2306(3) 0.7166(2) 0.84529(12)
C19 C 0.2283(4) 0.6746(2) 0.89753(14)
H16 H 0.2397 0.7088 0.9278
C20 C 0.2126(5) 0.5966(2) 0.90611(15)
H17 H 0.2026 0.5622 0.8758
C21 C 0.2084(6) 0.5547(3) 0.95819(15)
C22 C 0.1755(10) 0.4304(3) 1.0089(2)
H18 H 0.1575 0.3730 1.0106
C23 C 0.1983(9) 0.4767(3) 1.05449(19)
H19 H 0.1979 0.4516 1.0883
C24 C 0.2218(8) 0.5605(3) 1.04947(17)
H20 H 0.2344 0.5921 1.0809
N4 N 0.2279(5) 0.6007(2) 1.00254(13)
C25 C -0.1230(2) 0.98566(16) 0.68434(10)
C26 C -0.1074(3) 1.07195(17) 0.68488(10)
H21 H -0.0193 1.0948 0.6799
C27 C -0.2200(3) 1.12589(16) 0.69272(11)
C28 C -0.3479(3) 1.08906(16) 0.70252(10)
H22 H -0.4233 1.1233 0.7103
C29 C -0.3666(2) 1.00208(16) 0.70101(10)
C30 C -0.2548(3) 0.95048(17) 0.69097(10)
H23 H -0.2672 0.8926 0.6886
C31 C -0.0010(3) 0.92868(18) 0.67539(11)
C32 C -0.5101(3) 0.96683(16) 0.70907(11)
C33 C -0.2013(3) 1.22173(17) 0.68994(13)
C34 C -0.0946(3) 1.2490(2) 0.73492(15)
H24 H -0.1301 1.2357 0.7692
H25 H -0.0792 1.3086 0.7326
H26 H -0.0074 1.2199 0.7312
C35 C -0.3386(3) 1.26894(19) 0.69742(17)
H27 H -0.4063 1.2545 0.6687
H28 H -0.3213 1.3284 0.6969
H29 H -0.3743 1.2535 0.7313
C36 C -0.1466(4) 1.2444(2) 0.63528(15)
H30 H -0.1310 1.3039 0.6336
H31 H -0.2147 1.2281 0.6072
H32 H -0.0598 1.2153 0.6308
Zn1_2 Zn -0.74615(3) 0.866383(19) 0.677790(12)
O3_2 O 0.44721(18) 0.90983(12) 0.67587(7)
O5 O 0.7880(3) 0.72918(17) 0.53194(11)
H33 H 0.7888 0.7281 0.5661
H34 H 0.7763 0.7770 0.5170
O6 O 0.5512(3) 0.99031(19) 0.92879(10)
H35 H 0.4834 0.9618 0.9400
H36 H 0.5920 1.0235 0.9515
O7 O 0.3378(3) 0.91693(17) 0.98116(10)
H37 H 0.2664 0.9355 0.9627
H38 H 0.3254 0.8712 0.9980
O8 O 0.8032(3) 0.71812(16) 0.64276(10)
H39 H 0.8391 0.7654 0.6516
H40 H 0.8457 0.6750 0.6558
O9 O 0.5059(3) 0.08535(17) 0.83732(10)
H41 H 0.4479 0.1243 0.8439
H42 H 0.4896 0.0566 0.8088
loop_
_geom_bond_atom_site_label_1
_geom_bond_atom_site_label_2
_geom_bond_site_symmetry_1
_geom_bond_site_symmetry_2
Zn1 O1 1_555 1_555
O1 C31 1_555 1_555
O2 C31 1_555 1_555
O3 C32 1_555 1_555
O4 C32 1_555 1_555
N1 Zn1 1_555 1_555
N2 C9 1_555 1_555
N3 Zn1 1_555 1_555
C1 H1 1_555 1_555
C2 H2 1_555 1_555
C3 N1 1_555 1_555
H3 C3 1_555 1_555
C4 N1 1_555 1_555
H4 C4 1_555 1_555
C5 C4 1_555 1_555
H5 C5 1_555 1_555
C6 C2 1_555 1_555
C7 C6 1_555 1_555
H6 C7 1_555 1_555
C8 C7 1_555 1_555
H7 C8 1_555 1_555
C9 C8 1_555 1_555
C10 C9 1_555 1_555
H8 C10 1_555 1_555
C11 C10 1_555 1_555
H9 C11 1_555 1_555
C12 C11 1_555 1_555
H10 C12 1_555 1_555
C13 N2 1_555 1_555
H11 C13 1_555 1_555
C14 H12 1_555 1_555
C15 N3 1_555 1_555
H13 C15 1_555 1_555
C16 N3 1_555 1_555
H14 C16 1_555 1_555
C17 C16 1_555 1_555
H15 C17 1_555 1_555
C18 C14 1_555 1_555
C19 C18 1_555 1_555
H16 C19 1_555 1_555
C20 C19 1_555 1_555
H17 C20 1_555 1_555
C21 C1 1_555 1_555
C22 C1 1_555 1_555
H18 C22 1_555 1_555
C23 C22 1_555 1_555
H19 C23 1_555 1_555
C24 C23 1_555 1_555
H20 C24 1_555 1_555
N4 C21 1_555 1_555
C25 C26 1_555 1_555
C26 H21 1_555 1_555
C27 C26 1_555 1_555
C28 C27 1_555 1_555
H22 C28 1_555 1_555
C29 C28 1_555 1_555
C30 C25 1_555 1_555
H23 C30 1_555 1_555
C31 C25 1_555 1_555
C32 C29 1_555 1_555
C33 C27 1_555 1_555
C34 C33 1_555 1_555
H24 C34 1_555 1_555
H25 C34 1_555 1_555
H26 C34 1_555 1_555
C35 C33 1_555 1_555
H27 C35 1_555 1_555
H28 C35 1_555 1_555
H29 C35 1_555 1_555
C36 C33 1_555 1_555
H30 C36 1_555 1_555
H31 C36 1_555 1_555
H32 C36 1_555 1_555
O5 H33 1_555 1_555
H34 O5 1_555 1_555
O6 H35 1_555 1_555
H36 O6 1_555 1_555
O7 H37 1_555 1_555
H38 O7 1_555 1_555
O8 H39 1_555 1_555
H40 O8 1_555 1_555
O9 H41 1_555 1_555
H42 O9 1_555 1_555
Zn1_2 O3 1_555 1_555
O3_2 Zn1 1_555 1_555
C2 C3 1_555 1_555
C5 C6 1_555 1_555
C12 C13 1_555 1_555
C14 C15 1_555 1_555
C17 C18 1_555 1_555
C20 C21 1_555 1_555
C24 N4 1_555 1_555
C29 C30 1_555 1_555

#END
