
#######################################################################
#
#                 Cambridge Crystallographic Data Centre
#                                CCDC 
#
#######################################################################
#
# If this CIF has been generated from an entry in the Cambridge 
# Structural Database, then it will include bibliographic, chemical, 
# crystal, experimental, refinement or atomic coordinate data resulting 
# from the CCDC's data processing and validation procedures.
#
#######################################################################

data_RIFYAI
_symmetry_cell_setting           orthorhombic
_symmetry_space_group_name_H-M   'I b a 2'
_symmetry_Int_Tables_number      45
_space_group_name_Hall           'I 2 -2c'
loop_
_symmetry_equiv_pos_site_id
_symmetry_equiv_pos_as_xyz
1 x,y,z
2 -x,-y,z
3 1/2+x,1/2-y,z
4 1/2-x,1/2+y,z
5 1/2+x,1/2+y,1/2+z
6 1/2-x,1/2-y,1/2+z
7 x,-y,1/2+z
8 -x,y,1/2+z
_cell_length_a                   8.5337(2)
_cell_length_b                   16.1764(3)
_cell_length_c                   19.9903(5)
_cell_angle_alpha                90
_cell_angle_beta                 90
_cell_angle_gamma                90
_cell_volume                     2759.55
loop_
_atom_site_label
_atom_site_type_symbol
_atom_site_fract_x
_atom_site_fract_y
_atom_site_fract_z
Zn1 Zn 0.6102(7) 0.2480(4) 0.117(4)
Zn2 Zn 0.6027(7) 0.2430(4) 0.292(4)
Zn3 Zn 0.5000 0.5000 0.453(4)
P1 P 0.8437(5) 0.3428(3) 0.207(4)
P2 P 0.624(1) 0.6211(9) 0.068(4)
P3 P 0.641(1) 0.620(1) 0.344(4)
O1 O 0.737(2) 0.694(1) 0.063(4)
O2 O 0.460(2) 0.651(1) 0.077(4)
O3 O 0.930(3) 0.327(1) 0.141(4)
O4 O 0.6989(9) 0.2837(5) 0.207(4)
O5 O 0.941(3) 0.335(1) 0.268(4)
O6 O 0.472(2) 0.663(1) 0.341(4)
O7 O 0.763(2) 0.685(1) 0.348(4)
O8 O 0.647(2) 0.563(1) 0.401(4)
O9 O 0.633(2) 0.563(1) 0.009(4)
C1 C 0.772(1) 0.4467(6) 0.206(5)
C2 C 0.664(2) 0.566(1) 0.145(5)
C3 C 0.679(2) 0.568(1) 0.265(4)
C4 C 0.637(1) 0.6049(5) 0.205(5)
C5 C 0.730(2) 0.487(1) 0.144(4)
C6 C 0.748(2) 0.488(1) 0.265(5)
H1 H 0.576(4) 0.651(2) 0.205(5)
H2 H 0.725(17) 0.457(3) 0.107(5)
H3 H 0.800(8) 0.471(2) 0.302(5)
Zn1A Zn 0.3898(7) 0.7520(4) 0.117(4)
Zn2A Zn 0.3973(7) 0.7570(4) 0.292(4)
P1A P 0.1563(5) 0.6572(3) 0.207(4)
P2A P 0.376(1) 0.3789(9) 0.068(4)
P3A P 0.359(1) 0.380(1) 0.344(4)
O1A O 0.263(2) 0.306(1) 0.063(4)
O2A O 0.540(2) 0.349(1) 0.077(4)
O3A O 0.070(3) 0.673(1) 0.141(4)
O4A O 0.3011(9) 0.7163(5) 0.207(4)
O5A O 0.059(3) 0.665(1) 0.268(4)
O6A O 0.528(2) 0.337(1) 0.341(4)
O7A O 0.237(2) 0.315(1) 0.348(4)
O8A O 0.353(2) 0.437(1) 0.401(4)
O9A O 0.367(2) 0.437(1) 0.009(4)
C1A C 0.228(1) 0.5533(6) 0.206(5)
C2A C 0.336(2) 0.434(1) 0.145(5)
C3A C 0.321(2) 0.432(1) 0.265(4)
C4A C 0.363(1) 0.3951(5) 0.205(5)
C5A C 0.270(2) 0.513(1) 0.144(4)
C6A C 0.252(2) 0.512(1) 0.265(5)
H1A H 0.424(4) 0.349(2) 0.205(5)
H2A H 0.275(17) 0.543(3) 0.107(5)
H3A H 0.200(8) 0.529(2) 0.302(5)
Zn1B Zn 0.1102(7) 0.2520(4) 0.117(4)
Zn1B_2 Zn 1.1102(7) 0.2520(4) 0.117(4)
Zn1C Zn -0.1102(7) 0.7480(4) 0.117(4)
Zn1C_2 Zn 0.8898(7) 0.7480(4) 0.117(4)
Zn2B Zn 0.1027(7) 0.2570(4) 0.292(4)
Zn2B_2 Zn 1.1027(7) 0.2570(4) 0.292(4)
Zn2C Zn -0.1027(7) 0.7430(4) 0.292(4)
Zn2C_2 Zn 0.8973(7) 0.7430(4) 0.292(4)
Zn3F Zn 0.5000 0.5000 -0.047(4)
O1B O 0.237(2) 0.806(1) 0.063(4)
O1C O 0.763(2) 0.194(1) 0.063(4)
O3B O 0.430(3) 0.173(1) 0.141(4)
O3C O 0.570(3) 0.827(1) 0.141(4)
O5B O 0.441(3) 0.165(1) 0.268(4)
O5C O 0.559(3) 0.835(1) 0.268(4)
O7B O 0.263(2) 0.815(1) 0.348(4)
O7C O 0.737(2) 0.185(1) 0.348(4)
O9F O 0.633(2) 0.437(1) 0.509(4)
O9G O 0.367(2) 0.563(1) 0.509(4)
N1 N 0.655(3) 0.166(2) 0.500(4)
O10 O 0.0000 0.5000 0.416(4)
O11 O 0.126(3) 0.642(1) 0.427(4)
loop_
_geom_bond_atom_site_label_1
_geom_bond_atom_site_label_2
_geom_bond_site_symmetry_1
_geom_bond_site_symmetry_2
Zn1 O4 1_555 1_555
Zn2 O4 1_555 1_555
Zn3 O8 1_555 1_555
P1 O3 1_555 1_555
P2 O1 1_555 1_555
P3 O6 1_555 1_555
O1 Zn1C_2 1_555 1_555
O2 P2 1_555 1_555
O3 Zn1B_2 1_555 1_555
O4 P1 1_555 1_555
O5 P1 1_555 1_555
O6 Zn2A 1_555 1_555
O7 P3 1_555 1_555
O8 P3 1_555 1_555
O9 P2 1_555 1_555
C1 P1 1_555 1_555
C2 P2 1_555 1_555
C3 P3 1_555 1_555
C4 C2 1_555 1_555
C5 C1 1_555 1_555
C6 C1 1_555 1_555
H1 C4 1_555 1_555
H2 C5 1_555 1_555
H3 C6 1_555 1_555
Zn1A O2 1_555 1_555
Zn2A O4A 1_555 1_555
P1A O3A 1_555 1_555
P2A O1A 1_555 1_555
P3A O6A 1_555 1_555
O1A Zn1B 1_555 1_555
O2A Zn1 1_555 1_555
O3A Zn1C 1_555 1_555
O4A Zn1A 1_555 1_555
O5A P1A 1_555 1_555
O6A Zn2 1_555 1_555
O7A P3A 1_555 1_555
O8A Zn3 1_555 1_555
O9A P2A 1_555 1_555
C1A P1A 1_555 1_555
C2A P2A 1_555 1_555
C3A P3A 1_555 1_555
C4A C2A 1_555 1_555
C5A C1A 1_555 1_555
C6A C1A 1_555 1_555
H1A C4A 1_555 1_555
H2A C5A 1_555 1_555
H3A C6A 1_555 1_555
Zn2B O7A 1_555 1_555
Zn2B_2 O5 1_555 1_555
Zn2C O5A 1_555 1_555
Zn2C_2 O7 1_555 1_555
Zn3F O9 1_555 1_555
O1B Zn1A 1_555 1_555
O1C Zn1 1_555 1_555
O3B Zn1 1_555 1_555
O3C Zn1A 1_555 1_555
O5B Zn2 1_555 1_555
O5C Zn2A 1_555 1_555
O7B Zn2A 1_555 1_555
O7C Zn2 1_555 1_555
O9F Zn3 1_555 1_555
O9G Zn3 1_555 1_555
C2 C5 1_555 1_555
C3 C4 1_555 1_555
C3 C6 1_555 1_555
P1A O4A 1_555 1_555
P2A O2A 1_555 1_555
P3A O8A 1_555 1_555
O9A Zn3F 1_555 1_555
C2A C5A 1_555 1_555
C3A C4A 1_555 1_555
C3A C6A 1_555 1_555

#END
