
#######################################################################
#
#                 Cambridge Crystallographic Data Centre
#                                CCDC 
#
#######################################################################
#
# If this CIF has been generated from an entry in the Cambridge 
# Structural Database, then it will include bibliographic, chemical, 
# crystal, experimental, refinement or atomic coordinate data resulting 
# from the CCDC's data processing and validation procedures.
#
#######################################################################

data_RIFYOW
_symmetry_cell_setting           orthorhombic
_symmetry_space_group_name_H-M   'I b a 2'
_symmetry_Int_Tables_number      45
_space_group_name_Hall           'I 2 -2c'
loop_
_symmetry_equiv_pos_site_id
_symmetry_equiv_pos_as_xyz
1 x,y,z
2 -x,-y,z
3 1/2+x,1/2-y,z
4 1/2-x,1/2+y,z
5 1/2+x,1/2+y,1/2+z
6 1/2-x,1/2-y,1/2+z
7 x,-y,1/2+z
8 -x,y,1/2+z
_cell_length_a                   8.4899(1)
_cell_length_b                   16.1856(3)
_cell_length_c                   19.8846(4)
_cell_angle_alpha                90
_cell_angle_beta                 90
_cell_angle_gamma                90
_cell_volume                     2732.42
loop_
_atom_site_label
_atom_site_type_symbol
_atom_site_fract_x
_atom_site_fract_y
_atom_site_fract_z
Zn1 Zn 0.5000 0.5000 0.4533
P1 P 0.627(1) 0.6235(7) 0.3450(8)
O1 O 0.463(2) 0.654(1) 0.338(1)
O2 O 0.745(2) 0.694(1) 0.351(1)
O3 O 0.635(1) 0.565(1) 0.403(1)
K1 K 0.8393(9) 0.6614(4) 0.4914(8)
O4 O 1.130(2) 0.6400(9) 0.423(1)
O5 O 1.0000 0.5000 0.4205(8)
Zn2 Zn 0.3890(6) 0.7549(3) 0.1154(7)
Zn3 Zn 0.3942(6) 0.7537(3) 0.2901(7)
P2 P 0.8494(4) 0.3460(2) 0.2100(8)
O6 O 0.941(1) 0.3336(9) 0.1437(8)
O7 O 0.7040(7) 0.2864(4) 0.2036(9)
O8 O 0.939(1) 0.3276(9) 0.2708(8)
P3 P 0.632(1) 0.6196(7) 0.0685(8)
O9 O 0.749(2) 0.687(1) 0.0616(9)
O10 O 0.464(2) 0.659(1) 0.0726(10)
O11 O 0.638(1) 0.562(1) 0.009(1)
C1 C 0.7807(9) 0.4490(6) 0.208(1)
C2 C 0.679(2) 0.5692(7) 0.145(1)
C3 C 0.662(2) 0.5664(6) 0.268(1)
C4 C 0.6341(8) 0.6058(4) 0.206(1)
C5 C 0.754(2) 0.4904(8) 0.146(1)
C6 C 0.736(2) 0.4874(7) 0.269(1)
H1 H 0.569(2) 0.651(1) 0.2043(9)
H2 H 0.811(6) 0.473(2) 0.108(1)
H3 H 0.769(14) 0.466(8) 0.311(4)
P1A P 0.373(1) 0.3765(7) 0.3450(8)
O1A O 0.537(2) 0.346(1) 0.338(1)
O2A O 0.255(2) 0.306(1) 0.351(1)
O3A O 0.365(1) 0.435(1) 0.403(1)
K1A K 0.1607(9) 0.3386(4) 0.4914(8)
O4A O -0.130(2) 0.3600(9) 0.423(1)
Zn2A Zn 0.6110(6) 0.2451(3) 0.1154(7)
Zn3A Zn 0.6058(6) 0.2463(3) 0.2901(7)
P2A P 0.1506(4) 0.6540(2) 0.2100(8)
O6A O 0.059(1) 0.6664(9) 0.1437(8)
O7A O 0.2960(7) 0.7136(4) 0.2036(9)
O8A O 0.061(1) 0.6724(9) 0.2708(8)
P3A P 0.368(1) 0.3804(7) 0.0685(8)
O9A O 0.251(2) 0.313(1) 0.0616(9)
O10A O 0.536(2) 0.341(1) 0.0726(10)
O11A O 0.362(1) 0.438(1) 0.009(1)
C1A C 0.2193(9) 0.5510(6) 0.208(1)
C2A C 0.321(2) 0.4308(7) 0.145(1)
C3A C 0.338(2) 0.4336(6) 0.268(1)
C4A C 0.3659(8) 0.3942(4) 0.206(1)
C5A C 0.246(2) 0.5096(8) 0.146(1)
C6A C 0.264(2) 0.5126(7) 0.269(1)
H1A H 0.431(2) 0.349(1) 0.2043(9)
H2A H 0.189(6) 0.527(2) 0.108(1)
H3A H 0.231(14) 0.534(8) 0.311(4)
Zn1F Zn 0.5000 0.5000 -0.0467
O2B O 0.245(2) 0.806(1) 0.351(1)
O2C O 0.755(2) 0.194(1) 0.351(1)
K1A_2 K 1.1607(9) 0.3386(4) 0.4914(8)
K1D K 0.3393(9) 0.1614(4) -0.0086(8)
K1E K 0.6607(9) 0.8386(4) -0.0086(8)
K1F K 0.8393(9) 0.3386(4) -0.0086(8)
K1G K 0.1607(9) 0.6614(4) -0.0086(8)
O5_2 O 0.0000 0.5000 0.4205(8)
Zn2B Zn -0.1110(6) 0.7451(3) 0.1154(7)
Zn2B_2 Zn 0.8890(6) 0.7451(3) 0.1154(7)
Zn2C Zn 0.1110(6) 0.2549(3) 0.1154(7)
Zn2C_2 Zn 1.1110(6) 0.2549(3) 0.1154(7)
Zn3B Zn -0.1058(6) 0.7463(3) 0.2901(7)
Zn3B_2 Zn 0.8942(6) 0.7463(3) 0.2901(7)
Zn3C Zn 0.1058(6) 0.2537(3) 0.2901(7)
Zn3C_2 Zn 1.1058(6) 0.2537(3) 0.2901(7)
O6B O 0.441(1) 0.1664(9) 0.1437(8)
O6C O 0.559(1) 0.8336(9) 0.1437(8)
O6F O 0.941(1) 0.6664(9) 0.6437(8)
O6G O 0.059(1) 0.3336(9) 0.6437(8)
O8B O 0.439(1) 0.1724(9) 0.2708(8)
O8C O 0.561(1) 0.8276(9) 0.2708(8)
O9B O 0.249(2) 0.813(1) 0.0616(9)
O9C O 0.751(2) 0.187(1) 0.0616(9)
O9D O 0.249(2) 0.187(1) 0.5616(9)
O9E O 0.751(2) 0.813(1) 0.5616(9)
O10F O 0.464(2) 0.341(1) 0.5726(10)
O10G O 0.536(2) 0.659(1) 0.5726(10)
O11F O 0.638(1) 0.438(1) 0.509(1)
O11G O 0.362(1) 0.562(1) 0.509(1)
loop_
_geom_bond_atom_site_label_1
_geom_bond_atom_site_label_2
_geom_bond_site_symmetry_1
_geom_bond_site_symmetry_2
Zn1 O3 1_555 1_555
P1 O1 1_555 1_555
O1 Zn3 1_555 1_555
O2 P1 1_555 1_555
O3 P1 1_555 1_555
K1 O2 1_555 1_555
O4 K1 1_555 1_555
O5 K1 1_555 1_555
Zn2 O10 1_555 1_555
Zn3 O7A 1_555 1_555
P2 O6 1_555 1_555
O6 K1F 1_555 1_555
O7 P2 1_555 1_555
O8 P2 1_555 1_555
P3 O9 1_555 1_555
O9 K1E 1_555 1_555
O10 P3 1_555 1_555
O11 P3 1_555 1_555
C1 P2 1_555 1_555
C2 P3 1_555 1_555
C3 P1 1_555 1_555
C4 C2 1_555 1_555
C5 C1 1_555 1_555
C6 C1 1_555 1_555
H1 C4 1_555 1_555
H2 C5 1_555 1_555
H3 C6 1_555 1_555
P1A O1A 1_555 1_555
O1A Zn3A 1_555 1_555
O2A P1A 1_555 1_555
O3A Zn1 1_555 1_555
K1A O2A 1_555 1_555
O4A K1A 1_555 1_555
Zn2A O7 1_555 1_555
Zn3A O7 1_555 1_555
P2A O6A 1_555 1_555
O6A K1G 1_555 1_555
O7A Zn2 1_555 1_555
O8A P2A 1_555 1_555
P3A O9A 1_555 1_555
O9A K1D 1_555 1_555
O10A Zn2A 1_555 1_555
O11A P3A 1_555 1_555
C1A P2A 1_555 1_555
C2A P3A 1_555 1_555
C3A P1A 1_555 1_555
C4A C2A 1_555 1_555
C5A C1A 1_555 1_555
C6A C1A 1_555 1_555
H1A C4A 1_555 1_555
H2A C5A 1_555 1_555
H3A C6A 1_555 1_555
Zn1F O11 1_555 1_555
O2B Zn3 1_555 1_555
O2C Zn3A 1_555 1_555
K1A_2 O5 1_555 1_555
K1D O6B 1_555 1_555
K1E O6C 1_555 1_555
K1F O10A 1_555 1_555
K1G O10 1_555 1_555
O5_2 K1A 1_555 1_555
Zn2B O6A 1_555 1_555
Zn2B_2 O9 1_555 1_555
Zn2C O9A 1_555 1_555
Zn2C_2 O6 1_555 1_555
Zn3B O8A 1_555 1_555
Zn3B_2 O2 1_555 1_555
Zn3C O2A 1_555 1_555
Zn3C_2 O8 1_555 1_555
O6B Zn2A 1_555 1_555
O6C Zn2 1_555 1_555
O6F K1 1_555 1_555
O6G K1A 1_555 1_555
O8B Zn3A 1_555 1_555
O8C Zn3 1_555 1_555
O9B Zn2 1_555 1_555
O9C Zn2A 1_555 1_555
O9D K1A 1_555 1_555
O9E K1 1_555 1_555
O10F K1A 1_555 1_555
O10G K1 1_555 1_555
O11F Zn1 1_555 1_555
O11G Zn1 1_555 1_555
O3 K1 1_555 1_555
C2 C5 1_555 1_555
C3 C4 1_555 1_555
C3 C6 1_555 1_555
P1A O3A 1_555 1_555
O3A K1A 1_555 1_555
P2A O7A 1_555 1_555
P3A O10A 1_555 1_555
O11A Zn1F 1_555 1_555
C2A C5A 1_555 1_555
C3A C4A 1_555 1_555
C3A C6A 1_555 1_555
K1F O9C 1_555 1_555
K1G O9B 1_555 1_555

#END
