
#######################################################################
#
#                 Cambridge Crystallographic Data Centre
#                                CCDC 
#
#######################################################################
#
# If this CIF has been generated from an entry in the Cambridge 
# Structural Database, then it will include bibliographic, chemical, 
# crystal, experimental, refinement or atomic coordinate data resulting 
# from the CCDC's data processing and validation procedures.
#
#######################################################################

data_RIGDOC
_symmetry_cell_setting           monoclinic
_symmetry_space_group_name_H-M   'C 2/c'
_symmetry_Int_Tables_number      15
_space_group_name_Hall           '-C 2yn'
loop_
_symmetry_equiv_pos_site_id
_symmetry_equiv_pos_as_xyz
1 x,y,z
2 -x,y,1/2-z
3 1/2+x,1/2+y,z
4 1/2-x,1/2+y,1/2-z
5 -x,-y,-z
6 x,-y,1/2+z
7 1/2-x,1/2-y,-z
8 1/2+x,1/2-y,1/2+z
_cell_length_a                   11.7969(13)
_cell_length_b                   16.3711(13)
_cell_length_c                   15.6845(16)
_cell_angle_alpha                90
_cell_angle_beta                 92.153(10)
_cell_angle_gamma                90
_cell_volume                     3026.98
loop_
_atom_site_label
_atom_site_type_symbol
_atom_site_fract_x
_atom_site_fract_y
_atom_site_fract_z
O1 O 0.0017(7) 0.2543(4) 0.0514(5)
Ag1 Ag 0.18522(8) 0.74732(5) 0.06864(6)
Ag2 Ag -0.07881(9) 0.17024(6) 0.14703(7)
Ag3 Ag -0.13465(10) 0.32339(6) 0.21696(6)
O2 O 0.1873(7) 0.6147(4) 0.0431(5)
O3 O 0.2665(6) 0.6215(4) -0.0841(5)
O4 O 0.0024(6) 0.3658(4) 0.1338(4)
O5 O 0.2743(6) 0.2468(4) -0.1876(5)
O6 O 0.3431(8) 0.3644(5) -0.2330(5)
N1 N 0.0670(6) 0.7465(5) 0.1811(5)
N2 N -0.0302(8) 0.0609(6) 0.0566(6)
C1 C 0.2183(8) 0.5833(6) -0.0264(7)
C2 C 0.0328(9) 0.3261(6) 0.0686(8)
C3 C 0.2860(9) 0.3222(6) -0.1835(7)
C4 C 0.1953(7) 0.4935(6) -0.0394(6)
C5 C 0.1274(7) 0.4516(6) 0.0165(6)
H1 H 0.0930 0.4805 0.0596
C6 C 0.1094(8) 0.3680(6) 0.0099(5)
C7 C 0.1615(8) 0.3265(5) -0.0559(6)
H2 H 0.1508 0.2705 -0.0619
C8 C 0.2295(7) 0.3680(6) -0.1126(6)
C9 C 0.2443(8) 0.4514(6) -0.1043(6)
H3 H 0.2879 0.4793 -0.1429
C10 C 0.0334(8) 0.6770(6) 0.2153(7)
H4 H 0.0556 0.6276 0.1919
C11 C 0.0333(11) 0.8164(7) 0.2155(8)
H5 H 0.0556 0.8658 0.1920
C12 C 0.0243(9) 0.0768(7) -0.0136(8)
H6 H 0.0442 0.1305 -0.0249
C13 C -0.0533(10) -0.0163(7) 0.0712(7)
H7 H -0.0894 -0.0307 0.1207
N1A N -0.0670(6) 0.7465(5) 0.3189(5)
C10A C -0.0334(8) 0.6770(6) 0.2847(7)
H4A H -0.0556 0.6276 0.3081
C11A C -0.0333(11) 0.8164(7) 0.2845(8)
H5A H -0.0556 0.8658 0.3080
N2D N 0.0302(8) -0.0609(6) -0.0566(6)
C12D C -0.0243(9) -0.0768(7) 0.0136(8)
H6D H -0.0442 -0.1305 0.0249
C13D C 0.0533(10) 0.0163(7) -0.0712(7)
H7D H 0.0894 0.0307 -0.1207
O1A O -0.0017(7) 0.2543(4) 0.4486(5)
Ag1A Ag -0.18522(8) 0.74732(5) 0.43136(6)
Ag2A Ag 0.07881(9) 0.17024(6) 0.35297(7)
Ag3A Ag 0.13465(10) 0.32339(6) 0.28304(6)
O2A O -0.1873(7) 0.6147(4) 0.4569(5)
O3A O -0.2665(6) 0.6215(4) 0.5841(5)
O4A O -0.0024(6) 0.3658(4) 0.3662(4)
O5A O -0.2743(6) 0.2468(4) 0.6876(5)
O6A O -0.3431(8) 0.3644(5) 0.7330(5)
C1A C -0.2183(8) 0.5833(6) 0.5264(7)
C2A C -0.0328(9) 0.3261(6) 0.4314(8)
C3A C -0.2860(9) 0.3222(6) 0.6835(7)
C4A C -0.1953(7) 0.4935(6) 0.5394(6)
C5A C -0.1274(7) 0.4516(6) 0.4835(6)
H1A H -0.0930 0.4805 0.4404
C6A C -0.1094(8) 0.3680(6) 0.4901(5)
C7A C -0.1615(8) 0.3265(5) 0.5559(6)
H2A H -0.1508 0.2705 0.5619
C8A C -0.2295(7) 0.3680(6) 0.6126(6)
C9A C -0.2443(8) 0.4514(6) 0.6043(6)
H3A H -0.2879 0.4793 0.6429
Ag1F Ag 0.31478(8) 0.75268(5) -0.06864(6)
Ag1G Ag -0.31478(8) 0.75268(5) 0.56864(6)
Ag2D Ag 0.07881(9) -0.17024(6) -0.14703(7)
Ag2F Ag -0.42119(9) 0.32976(6) 0.85297(7)
Ag2G Ag 0.42119(9) 0.32976(6) -0.35297(7)
Ag3D Ag 0.13465(10) 0.67661(6) -0.21696(6)
Ag3E Ag -0.13465(10) 0.67661(6) 0.71696(6)
Ag3F Ag -0.36535(10) 0.17661(6) 0.78304(6)
Ag3G Ag 0.36535(10) 0.17661(6) -0.28304(6)
O3D O -0.2665(6) 0.3785(4) 0.0841(5)
O3E O 0.2665(6) 0.3785(4) 0.4159(5)
O3F O 0.2335(6) 0.8785(4) 0.0841(5)
O3G O -0.2335(6) 0.8785(4) 0.4159(5)
O5F O 0.2257(6) 0.2532(4) 0.1876(5)
O5G O -0.2257(6) 0.2532(4) 0.3124(5)
O6F O 0.1569(8) 0.1356(5) 0.2330(5)
O6G O -0.1569(8) 0.1356(5) 0.2670(5)
N2A N 0.0302(8) 0.0609(6) 0.4434(6)
O7 O -0.230(2) 0.4627(15) 0.2888(11)
H8 H -0.1806 0.5004 0.2921
H9 H -0.2484 0.4529 0.3308
loop_
_geom_bond_atom_site_label_1
_geom_bond_atom_site_label_2
_geom_bond_site_symmetry_1
_geom_bond_site_symmetry_2
O1 Ag2 1_555 1_555
Ag1 O2 1_555 1_555
Ag2 Ag3 1_555 1_555
Ag3 O4 1_555 1_555
O2 C1 1_555 1_555
O3 C1 1_555 1_555
O4 C2 1_555 1_555
O5 C3 1_555 1_555
O6 C3 1_555 1_555
N1 Ag1 1_555 1_555
N2 Ag2 1_555 1_555
C1 C4 1_555 1_555
C2 O1 1_555 1_555
C3 C8 1_555 1_555
C4 C5 1_555 1_555
C5 H1 1_555 1_555
C6 C2 1_555 1_555
C7 C6 1_555 1_555
H2 C7 1_555 1_555
C8 C7 1_555 1_555
C9 C4 1_555 1_555
H3 C9 1_555 1_555
C10 N1 1_555 1_555
H4 C10 1_555 1_555
C11 N1 1_555 1_555
H5 C11 1_555 1_555
C12 N2 1_555 1_555
H6 C12 1_555 1_555
C13 N2 1_555 1_555
H7 C13 1_555 1_555
O7 H8 1_555 1_555
H9 O7 1_555 1_555
N1A C10A 1_555 1_555
C10A C10 1_555 1_555
H4A C10A 1_555 1_555
C11A C11 1_555 1_555
H5A C11A 1_555 1_555
N2D C12D 1_555 1_555
C12D C13 1_555 1_555
H6D C12D 1_555 1_555
C13D C12 1_555 1_555
H7D C13D 1_555 1_555
O1A Ag2A 1_555 1_555
Ag1A N1A 1_555 1_555
Ag2A Ag3A 1_555 1_555
Ag3A O4A 1_555 1_555
O2A Ag1A 1_555 1_555
O3A C1A 1_555 1_555
O4A C2A 1_555 1_555
O5A C3A 1_555 1_555
O6A C3A 1_555 1_555
C1A O2A 1_555 1_555
C2A O1A 1_555 1_555
C3A C8A 1_555 1_555
C4A C1A 1_555 1_555
C5A C4A 1_555 1_555
H1A C5A 1_555 1_555
C6A C2A 1_555 1_555
C7A C6A 1_555 1_555
H2A C7A 1_555 1_555
C8A C7A 1_555 1_555
C9A C4A 1_555 1_555
H3A C9A 1_555 1_555
Ag1F Ag1 1_555 1_555
Ag1G Ag1A 1_555 1_555
Ag2D N2D 1_555 1_555
Ag2F O6A 1_555 1_555
Ag2G O6 1_555 1_555
Ag3D O3 1_555 1_555
Ag3E O3A 1_555 1_555
Ag3F O5A 1_555 1_555
Ag3G O5 1_555 1_555
O3D Ag3 1_555 1_555
O3E Ag3A 1_555 1_555
O3F Ag1 1_555 1_555
O3G Ag1A 1_555 1_555
O5F Ag3A 1_555 1_555
O5G Ag3 1_555 1_555
O6F Ag2A 1_555 1_555
O6G Ag2 1_555 1_555
N2A Ag2A 1_555 1_555
O3 Ag1F 1_555 1_555
C5 C6 1_555 1_555
C8 C9 1_555 1_555
N1A C11A 1_555 1_555
N2D C13D 1_555 1_555
O3A Ag1G 1_555 1_555
C5A C6A 1_555 1_555
C8A C9A 1_555 1_555
Ag2F Ag3F 1_555 1_555
Ag2G Ag3G 1_555 1_555

#END
