
#######################################################################
#
#                 Cambridge Crystallographic Data Centre
#                                CCDC 
#
#######################################################################
#
# If this CIF has been generated from an entry in the Cambridge 
# Structural Database, then it will include bibliographic, chemical, 
# crystal, experimental, refinement or atomic coordinate data resulting 
# from the CCDC's data processing and validation procedures.
#
#######################################################################

data_RIGJEY01
_symmetry_cell_setting           triclinic
_symmetry_space_group_name_H-M   'P -1'
_symmetry_Int_Tables_number      2
_space_group_name_Hall           '-P 1'
loop_
_symmetry_equiv_pos_site_id
_symmetry_equiv_pos_as_xyz
1 x,y,z
2 -x,-y,-z
_cell_length_a                   9.8395(15)
_cell_length_b                   11.6635(18)
_cell_length_c                   26.523(4)
_cell_angle_alpha                96.577(10)
_cell_angle_beta                 97.513(9)
_cell_angle_gamma                96.040(10)
_cell_volume                     2975.46
loop_
_atom_site_label
_atom_site_type_symbol
_atom_site_fract_x
_atom_site_fract_y
_atom_site_fract_z
Cd1 Cd -0.89066(8) -0.35355(7) 0.02291(2)
Cd2 Cd -0.90889(8) -0.34470(8) -0.47330(2)
N1 N -0.7807(8) -0.4058(6) -0.0475(2)
N2 N -0.6837(7) -0.5129(6) -0.2259(2)
N3 N -0.8143(8) -0.4214(7) -0.4017(2)
C1 C -0.6647(10) -0.4574(10) -0.0441(3)
H1 H -0.6164 -0.4616 -0.0111
C2 C -0.6126(9) -0.5049(9) -0.0869(3)
H2 H -0.5329 -0.5443 -0.0829
C3 C -0.6778(9) -0.4945(8) -0.1356(3)
C4 C -0.7974(11) -0.4404(9) -0.1380(3)
H3 H -0.8468 -0.4324 -0.1704
C5 C -0.8447(11) -0.3984(9) -0.0938(3)
H4 H -0.9271 -0.3624 -0.0967
C6 C -0.6274(9) -0.5485(8) -0.1816(3)
C7 C -0.5403(9) -0.6350(7) -0.1806(3)
H5 H -0.5070 -0.6593 -0.1487
C8 C -0.5012(8) -0.6864(7) -0.2257(3)
C9 C -0.5572(8) -0.6451(8) -0.2715(3)
H6 H -0.5359 -0.6771 -0.3037
C10 C -0.6419(9) -0.5589(8) -0.2691(3)
C11 C -0.8606(11) -0.3977(9) -0.3571(3)
H7 H -0.9341 -0.3513 -0.3553
C12 C -0.8038(10) -0.4391(9) -0.3132(3)
H8 H -0.8373 -0.4204 -0.2816
C13 C -0.6989(9) -0.5074(8) -0.3155(3)
C14 C -0.6540(10) -0.5326(9) -0.3627(3)
H9 H -0.5841 -0.5820 -0.3665
C15 C -0.7133(9) -0.4843(9) -0.4037(3)
H10 H -0.6785 -0.4977 -0.4353
C16 C -0.4140(9) -0.7784(8) -0.2248(3)
C17 C -0.3897(14) -0.8359(11) -0.1829(4)
H11 H -0.4275 -0.8110 -0.1529
C18 C -0.3123(12) -0.9290(11) -0.1821(4)
H12 H -0.3119 -0.9743 -0.1545
C19 C -0.2354(9) -0.9567(8) -0.2213(4)
C20 C -0.2579(12) -0.9002(9) -0.2633(4)
H13 H -0.2133 -0.9212 -0.2921
C21 C -0.3444(13) -0.8125(10) -0.2654(4)
H14 H -0.3560 -0.7752 -0.2955
C22 C -0.1396(9) -1.0456(8) -0.2165(4)
C23 C -0.0835(10) -1.0712(9) -0.1669(5)
H15 H -0.1094 -1.0326 -0.1368
C24 C 0.0072(15) -1.1511(10) -0.1636(5)
H16 H 0.0422 -1.1695 -0.1308
C25 C 0.0496(13) -1.2062(10) -0.2065(4)
H17 H 0.1138 -1.2612 -0.2030
C26 C -0.0013(11) -1.1816(9) -0.2549(5)
H18 H 0.0290 -1.2194 -0.2843
C27 C -0.0964(10) -1.1020(8) -0.2606(5)
H19 H -0.1318 -1.0858 -0.2937
N4 N -1.0048(7) -0.3048(6) 0.0919(2)
N5 N -1.1079(6) -0.1942(6) 0.2698(2)
N6 N -0.9988(8) -0.2784(8) 0.4511(3)
C28 C -0.9493(12) -0.3203(9) 0.1389(3)
H20 H -0.8711 -0.3615 0.1431
C29 C -1.0032(12) -0.2778(9) 0.1810(3)
H21 H -0.9654 -0.2960 0.2135
C30 C -1.1073(9) -0.2114(7) 0.1789(2)
C31 C -1.1591(9) -0.1886(9) 0.1302(3)
H22 H -1.2315 -0.1414 0.1252
C32 C -1.1015(10) -0.2371(9) 0.0894(3)
H23 H -1.1357 -0.2194 0.0564
C33 C -1.1585(8) -0.1582(7) 0.2260(3)
C34 C -1.2419(9) -0.0700(7) 0.2240(3)
H24 H -1.2751 -0.0475 0.1918
C35 C -1.2779(9) -0.0137(7) 0.2689(3)
C36 C -1.2258(9) -0.0524(8) 0.3152(3)
H25 H -1.2462 -0.0173 0.3470
C37 C -1.1456(9) -0.1409(9) 0.3136(3)
C38 C -0.9546(12) -0.3099(10) 0.4072(3)
H26 H -0.8853 -0.3606 0.4067
C39 C -1.0070(12) -0.2707(10) 0.3618(3)
H27 H -0.9813 -0.3026 0.3303
C40 C -1.0928(9) -0.1891(8) 0.3616(3)
C41 C -1.1305(13) -0.1493(12) 0.4095(4)
H28 H -1.1850 -0.0871 0.4127
C42 C -1.0871(12) -0.2022(11) 0.4512(4)
H29 H -1.1234 -0.1823 0.4821
C43 C -1.3668(9) 0.0800(7) 0.2685(3)
C44 C -1.3933(11) 0.1387(9) 0.2272(3)
H30 H -1.3488 0.1222 0.1980
C45 C -1.4823(11) 0.2202(10) 0.2274(4)
H31 H -1.4993 0.2569 0.1974
C46 C -1.5481(9) 0.2525(7) 0.2672(3)
C47 C -1.5208(14) 0.1994(10) 0.3083(4)
H32 H -1.5658 0.2177 0.3373
C48 C -1.4265(14) 0.1165(11) 0.3101(4)
H33 H -1.4038 0.0852 0.3412
C49 C -1.6443(9) 0.3424(7) 0.2663(3)
C50 C -1.6947(12) 0.3800(9) 0.2202(4)
H34 H -1.6658 0.3494 0.1891
C51 C -1.7865(14) 0.4616(10) 0.2197(4)
H35 H -1.8167 0.4888 0.1882
C52 C -1.8354(12) 0.5043(9) 0.2627(4)
H36 H -1.9009 0.5586 0.2618
C53 C -1.7853(11) 0.4653(12) 0.3078(4)
H37 H -1.8178 0.4935 0.3385
C54 C -1.6916(10) 0.3884(11) 0.3101(4)
H38 H -1.6579 0.3658 0.3422
O1 O -0.7250(6) -0.4550(6) 0.0750(2)
O2 O -0.9090(7) -0.5549(6) 0.0308(2)
C55 C -0.7963(9) -0.5484(8) 0.0599(3)
C56 C -0.7523(11) -0.6630(9) 0.0763(4)
H39 H -0.8267 -0.7029 0.0914
H40 H -0.6686 -0.6462 0.1017
H41 H -0.7336 -0.7128 0.0463
O3 O -0.7534(7) -0.1742(7) 0.0430(2)
O4 O -0.9430(7) -0.1831(6) -0.0118(2)
C57 C -0.8378(11) -0.1269(10) 0.0117(4)
C58 C -0.7964(14) 0.0078(11) 0.0095(5)
H42 H -0.7884 0.0204 -0.0260
H43 H -0.7077 0.0341 0.0312
H44 H -0.8677 0.0519 0.0218
O5 O -0.8052(11) -0.1546(7) -0.4394(3)
O6 O -0.6999(12) -0.2646(7) -0.4814(3)
C59 C -0.6941(11) -0.1678(9) -0.4575(3)
C60 C -0.5760(17) -0.0663(15) -0.4470(5)
H45 H -0.6050 -0.0009 -0.4642
H46 H -0.4942 -0.0918 -0.4603
H47 H -0.5539 -0.0418 -0.4100
O7 O -1.1155(8) -0.3057(8) -0.4367(3)
O8 O -1.1193(8) -0.4838(6) -0.4783(2)
C61 C -1.1846(11) -0.4059(11) -0.4555(3)
C62 C -1.3347(13) -0.4307(16) -0.4513(4)
H48 H -1.3901 -0.4164 -0.4830
H49 H -1.3567 -0.3798 -0.4222
H50 H -1.3558 -0.5121 -0.4460
Cd1A Cd -1.10934(8) -0.64645(7) -0.02291(2)
Cd2_2 Cd -0.90889(8) -0.34470(8) 0.52670(2)
Cd2A Cd -1.09111(8) -0.65530(8) -0.52670(2)
N6_2 N -0.9988(8) -0.2784(8) -0.5489(3)
O2A O -1.0910(7) -0.4451(6) -0.0308(2)
O8A O -0.8807(8) -0.5162(6) -0.5217(2)
loop_
_geom_bond_atom_site_label_1
_geom_bond_atom_site_label_2
_geom_bond_site_symmetry_1
_geom_bond_site_symmetry_2
Cd1 N1 1_555 1_555
Cd2 N3 1_555 1_555
N1 C1 1_555 1_555
N2 C6 1_555 1_555
N3 C11 1_555 1_555
C1 H1 1_555 1_555
C2 C1 1_555 1_555
H2 C2 1_555 1_555
C3 C2 1_555 1_555
C4 C3 1_555 1_555
H3 C4 1_555 1_555
C5 N1 1_555 1_555
H4 C5 1_555 1_555
C6 C3 1_555 1_555
C7 C6 1_555 1_555
H5 C7 1_555 1_555
C8 C7 1_555 1_555
C9 C8 1_555 1_555
H6 C9 1_555 1_555
C10 N2 1_555 1_555
C11 H7 1_555 1_555
C12 C11 1_555 1_555
H8 C12 1_555 1_555
C13 C10 1_555 1_555
C14 C13 1_555 1_555
H9 C14 1_555 1_555
C15 N3 1_555 1_555
H10 C15 1_555 1_555
C16 C8 1_555 1_555
C17 C16 1_555 1_555
H11 C17 1_555 1_555
C18 C17 1_555 1_555
H12 C18 1_555 1_555
C19 C18 1_555 1_555
C20 C19 1_555 1_555
H13 C20 1_555 1_555
C21 C16 1_555 1_555
H14 C21 1_555 1_555
C22 C19 1_555 1_555
C23 C22 1_555 1_555
H15 C23 1_555 1_555
C24 C23 1_555 1_555
H16 C24 1_555 1_555
C25 C24 1_555 1_555
H17 C25 1_555 1_555
C26 C25 1_555 1_555
H18 C26 1_555 1_555
C27 C22 1_555 1_555
H19 C27 1_555 1_555
N4 Cd1 1_555 1_555
N5 C33 1_555 1_555
N6 C38 1_555 1_555
C28 N4 1_555 1_555
H20 C28 1_555 1_555
C29 C28 1_555 1_555
H21 C29 1_555 1_555
C30 C29 1_555 1_555
C31 C30 1_555 1_555
H22 C31 1_555 1_555
C32 N4 1_555 1_555
H23 C32 1_555 1_555
C33 C30 1_555 1_555
C34 C33 1_555 1_555
H24 C34 1_555 1_555
C35 C34 1_555 1_555
C36 C35 1_555 1_555
H25 C36 1_555 1_555
C37 N5 1_555 1_555
C38 H26 1_555 1_555
C39 C38 1_555 1_555
H27 C39 1_555 1_555
C40 C37 1_555 1_555
C41 C40 1_555 1_555
H28 C41 1_555 1_555
C42 N6 1_555 1_555
H29 C42 1_555 1_555
C43 C35 1_555 1_555
C44 C43 1_555 1_555
H30 C44 1_555 1_555
C45 C44 1_555 1_555
H31 C45 1_555 1_555
C46 C45 1_555 1_555
C47 C46 1_555 1_555
H32 C47 1_555 1_555
C48 C43 1_555 1_555
H33 C48 1_555 1_555
C49 C46 1_555 1_555
C50 C49 1_555 1_555
H34 C50 1_555 1_555
C51 C50 1_555 1_555
H35 C51 1_555 1_555
C52 C51 1_555 1_555
H36 C52 1_555 1_555
C53 C52 1_555 1_555
H37 C53 1_555 1_555
C54 C49 1_555 1_555
H38 C54 1_555 1_555
O1 Cd1 1_555 1_555
O2 Cd1 1_555 1_555
C55 O1 1_555 1_555
C56 C55 1_555 1_555
H39 C56 1_555 1_555
H40 C56 1_555 1_555
H41 C56 1_555 1_555
O3 Cd1 1_555 1_555
O4 Cd1 1_555 1_555
C57 O3 1_555 1_555
C58 C57 1_555 1_555
H42 C58 1_555 1_555
H43 C58 1_555 1_555
H44 C58 1_555 1_555
O5 Cd2 1_555 1_555
O6 Cd2 1_555 1_555
C59 O5 1_555 1_555
C60 C59 1_555 1_555
H45 C60 1_555 1_555
H46 C60 1_555 1_555
H47 C60 1_555 1_555
O7 Cd2 1_555 1_555
O8 Cd2 1_555 1_555
C61 O7 1_555 1_555
C62 C61 1_555 1_555
H48 C62 1_555 1_555
H49 C62 1_555 1_555
H50 C62 1_555 1_555
Cd1A O2 1_555 1_555
Cd2_2 N6 1_555 1_555
Cd2A O8 1_555 1_555
N6_2 Cd2 1_555 1_555
O2A Cd1 1_555 1_555
O8A Cd2 1_555 1_555
C4 C5 1_555 1_555
C9 C10 1_555 1_555
C12 C13 1_555 1_555
C14 C15 1_555 1_555
C20 C21 1_555 1_555
C26 C27 1_555 1_555
C31 C32 1_555 1_555
C36 C37 1_555 1_555
C39 C40 1_555 1_555
C41 C42 1_555 1_555
C47 C48 1_555 1_555
C53 C54 1_555 1_555
O2 C55 1_555 1_555
O4 C57 1_555 1_555
O6 C59 1_555 1_555
O8 C61 1_555 1_555
Cd1A O2A 1_555 1_555
Cd2A O8A 1_555 1_555

#END
