
#######################################################################
#
#                 Cambridge Crystallographic Data Centre
#                                CCDC 
#
#######################################################################
#
# If this CIF has been generated from an entry in the Cambridge 
# Structural Database, then it will include bibliographic, chemical, 
# crystal, experimental, refinement or atomic coordinate data resulting 
# from the CCDC's data processing and validation procedures.
#
#######################################################################

data_RIGJEY
_symmetry_cell_setting           triclinic
_symmetry_space_group_name_H-M   'P -1'
_symmetry_Int_Tables_number      2
_space_group_name_Hall           '-P 1'
loop_
_symmetry_equiv_pos_site_id
_symmetry_equiv_pos_as_xyz
1 x,y,z
2 -x,-y,-z
_cell_length_a                   9.8395(15)
_cell_length_b                   11.6635(18)
_cell_length_c                   26.523(4)
_cell_angle_alpha                96.577(10)
_cell_angle_beta                 97.513(9)
_cell_angle_gamma                96.040(10)
_cell_volume                     2975.46
loop_
_atom_site_label
_atom_site_type_symbol
_atom_site_fract_x
_atom_site_fract_y
_atom_site_fract_z
Cd1 Cd 0.10925(9) 0.64663(8) 1.02291(3)
Cd2 Cd 0.09096(10) 0.65511(10) 0.52675(3)
N1 N 0.2199(11) 0.5940(8) 0.9524(3)
N2 N 0.3165(9) 0.4868(7) 0.7739(3)
N3 N 0.1854(9) 0.5790(9) 0.5984(3)
C1 C 0.3319(11) 0.5395(11) 0.9549(4)
H1 H 0.3767 0.5300 0.9879
C2 C 0.3866(12) 0.4963(11) 0.9132(4)
H2 H 0.4687 0.4603 0.9176
C3 C 0.3224(12) 0.5050(9) 0.8643(3)
C4 C 0.1967(14) 0.5568(11) 0.8617(4)
H3 H 0.1445 0.5615 0.8294
C5 C 0.1525(14) 0.5993(11) 0.9059(4)
H4 H 0.0695 0.6345 0.9035
C6 C 0.3729(11) 0.4514(10) 0.8184(3)
C7 C 0.4577(12) 0.3653(9) 0.8195(4)
H5 H 0.4900 0.3410 0.8514
C8 C 0.4979(10) 0.3121(9) 0.7743(4)
C9 C 0.4420(10) 0.3531(10) 0.7287(4)
H6 H 0.4612 0.3194 0.6965
C10 C 0.3589(11) 0.4427(9) 0.7310(3)
C11 C 0.1400(13) 0.6035(11) 0.6424(4)
H7 H 0.0690 0.6523 0.6444
C12 C 0.1952(12) 0.5584(11) 0.6864(4)
H8 H 0.1583 0.5735 0.7176
C13 C 0.3020(11) 0.4927(10) 0.6844(3)
C14 C 0.3438(12) 0.4663(11) 0.6371(4)
H9 H 0.4116 0.4151 0.6330
C15 C 0.2857(11) 0.5153(11) 0.5962(4)
H10 H 0.3206 0.5019 0.5645
C16 C 0.5848(11) 0.2222(10) 0.7749(4)
C17 C 0.6072(15) 0.1616(12) 0.8164(4)
H11 H 0.5659 0.1838 0.8459
C18 C 0.6866(15) 0.0705(14) 0.8176(5)
H12 H 0.6885 0.0261 0.8455
C19 C 0.7632(11) 0.0431(10) 0.7786(5)
C20 C 0.7415(15) 0.0998(11) 0.7365(5)
H13 H 0.7862 0.0787 0.7078
C21 C 0.6566(15) 0.1869(12) 0.7344(5)
H14 H 0.6463 0.2243 0.7043
C22 C 0.8622(12) -0.0452(10) 0.7834(5)
C23 C 0.9149(13) -0.0708(11) 0.8322(6)
H15 H 0.8881 -0.0319 0.8621
C24 C 1.0045(16) -0.1518(12) 0.8363(5)
H16 H 1.0359 -0.1716 0.8692
C25 C 1.0513(15) -0.2062(12) 0.7934(4)
H17 H 1.1175 -0.2594 0.7973
C26 C 0.9996(13) -0.1816(11) 0.7448(5)
H18 H 1.0310 -0.2186 0.7154
C27 C 0.9024(12) -0.1032(11) 0.7387(6)
H19 H 0.8641 -0.0892 0.7055
N4 N -0.0054(9) 0.6948(7) 1.0919(3)
N5 N -0.1085(8) 0.8066(7) 1.2704(3)
N6 N -0.0002(10) 0.7201(9) 1.4511(3)
C28 C 0.0502(15) 0.6779(12) 1.1398(4)
H20 H 0.1270 0.6351 1.1439
C29 C -0.0020(16) 0.7213(11) 1.1817(5)
H21 H 0.0367 0.7049 1.2144
C30 C -0.1087(10) 0.7881(8) 1.1788(3)
C31 C -0.1594(11) 0.8090(11) 1.1308(4)
H22 H -0.2333 0.8546 1.1259
C32 C -0.1014(12) 0.7628(12) 1.0897(4)
H23 H -0.1345 0.7826 1.0569
C33 C -0.1596(11) 0.8423(10) 1.2257(3)
C34 C -0.2425(10) 0.9298(8) 1.2242(3)
H24 H -0.2764 0.9522 1.1920
C35 C -0.2775(11) 0.9855(10) 1.2685(4)
C36 C -0.2251(11) 0.9492(10) 1.3151(4)
H25 H -0.2426 0.9868 1.3469
C37 C -0.1479(11) 0.8579(10) 1.3134(4)
C38 C 0.0424(14) 0.6868(12) 1.4081(4)
H26 H 0.1079 0.6325 1.4077
C39 C -0.0064(14) 0.7297(12) 1.3613(4)
H27 H 0.0231 0.7006 1.3301
C40 C -0.0935(12) 0.8106(11) 1.3615(4)
C41 C -0.1313(15) 0.8519(14) 1.4112(5)
H28 H -0.1866 0.9136 1.4147
C42 C -0.0865(14) 0.8014(14) 1.4512(5)
H29 H -0.1183 0.8246 1.4827
C43 C -0.3663(11) 1.0802(9) 1.2690(4)
C44 C -0.3938(14) 1.1374(12) 1.2275(4)
H30 H -0.3522 1.1182 1.1978
C45 C -0.4804(14) 1.2221(12) 1.2278(4)
H31 H -0.4938 1.2614 1.1984
C46 C -0.5478(11) 1.2529(10) 1.2676(4)
C47 C -0.5206(17) 1.2000(13) 1.3082(4)
H32 H -0.5634 1.2207 1.3375
C48 C -0.4303(18) 1.1135(13) 1.3102(5)
H33 H -0.4138 1.0780 1.3406
C49 C -0.6441(11) 1.3436(9) 1.2667(4)
C50 C -0.6953(15) 1.3813(11) 1.2214(5)
H34 H -0.6652 1.3515 1.1904
C51 C -0.7887(16) 1.4611(12) 1.2198(5)
H35 H -0.8216 1.4860 1.1881
C52 C -0.8334(16) 1.5040(12) 1.2629(5)
H36 H -0.8977 1.5593 1.2620
C53 C -0.7845(13) 1.4666(14) 1.3083(5)
H37 H -0.8171 1.4950 1.3390
C54 C -0.6909(13) 1.3899(14) 1.3101(5)
H38 H -0.6566 1.3675 1.3422
O1 O 0.2747(8) 0.5440(8) 1.0749(3)
O2 O 0.0906(8) 0.4456(7) 1.0313(3)
C55 C 0.2005(12) 0.4500(10) 1.0594(4)
C56 C 0.2455(14) 0.3362(11) 1.0765(5)
H39 H 0.1694 0.2942 1.0900
H40 H 0.3259 0.3542 1.1033
H41 H 0.2696 0.2876 1.0471
O3 O 0.2471(9) 0.8266(8) 1.0430(3)
O4 O 0.0598(9) 0.8191(7) 0.9878(3)
C57 C 0.1616(14) 0.8728(12) 1.0115(5)
C58 C 0.2009(17) 1.0056(14) 1.0111(6)
H42 H 0.2127 1.0204 0.9762
H43 H 0.2875 1.0319 1.0342
H44 H 0.1273 1.0480 1.0226
O5 O 0.1962(13) 0.8462(10) 0.5606(4)
O6 O 0.3106(11) 0.7365(8) 0.5172(4)
C59 C 0.3045(12) 0.8322(10) 0.5429(6)
C60 C 0.422(2) 0.9326(15) 0.5522(8)
H45 H 0.4538 0.9519 0.5891
H46 H 0.3897 1.0008 0.5384
H47 H 0.4994 0.9092 0.5350
O7 O -0.1164(9) 0.6925(10) 0.5633(3)
O8 O -0.1216(8) 0.5159(8) 0.5221(3)
C61 C -0.1824(14) 0.5906(14) 0.5441(4)
C62 C -0.3346(15) 0.5650(14) 0.5487(5)
H48 H -0.3883 0.6113 0.5267
H49 H -0.3484 0.5852 0.5844
H50 H -0.3653 0.4822 0.5378
Cd1A Cd -0.10925(9) 0.35337(8) 0.97709(3)
Cd2_2 Cd 0.09096(10) 0.65511(10) 1.52675(3)
Cd2A Cd -0.09096(10) 0.34489(10) 0.47325(3)
N6_2 N -0.0002(10) 0.7201(9) 0.4511(3)
O2A O -0.0906(8) 0.5544(7) 0.9687(3)
O8A O 0.1216(8) 0.4841(8) 0.4779(3)
O9 O 1.7730(19) 0.8825(19) 0.6032(10)
O10 O 1.364(2) 0.9791(19) 0.8933(7)
H51 H 1.4167 1.0403 0.9049
C63 C 1.414(3) 0.891(3) 0.9109(10)
H52 H 1.5092 0.8898 0.9034
H53 H 1.3579 0.8190 0.8946
H54 H 1.4146 0.8980 0.9481
O12 O 0.5135(19) 1.2844(15) 0.5568(8)
H59 H 0.5381 1.3564 0.5631
C65 C 0.547(4) 1.232(2) 0.6013(14)
H60 H 0.5626 1.2916 0.6314
H61 H 0.6318 1.1954 0.5989
H62 H 0.4716 1.1732 0.6046
O11? O 1.475(2) 1.2006(13) 0.9522(10)
H55? H 1.4819 1.1965 0.9838
C64? C 1.4655(19) 1.1009(13) 0.9284(6)
H56? H 1.5229 1.1015 0.9009
H57? H 1.3689 1.0757 0.9136
H58? H 1.4968 1.0472 0.9520
loop_
_geom_bond_atom_site_label_1
_geom_bond_atom_site_label_2
_geom_bond_site_symmetry_1
_geom_bond_site_symmetry_2
Cd1 N1 1_555 1_555
Cd2 N3 1_555 1_555
N1 C1 1_555 1_555
N2 C6 1_555 1_555
N3 C11 1_555 1_555
C1 H1 1_555 1_555
C2 C1 1_555 1_555
H2 C2 1_555 1_555
C3 C2 1_555 1_555
C4 C3 1_555 1_555
H3 C4 1_555 1_555
C5 N1 1_555 1_555
H4 C5 1_555 1_555
C6 C3 1_555 1_555
C7 C6 1_555 1_555
H5 C7 1_555 1_555
C8 C7 1_555 1_555
C9 C8 1_555 1_555
H6 C9 1_555 1_555
C10 N2 1_555 1_555
C11 H7 1_555 1_555
C12 C11 1_555 1_555
H8 C12 1_555 1_555
C13 C10 1_555 1_555
C14 C13 1_555 1_555
H9 C14 1_555 1_555
C15 N3 1_555 1_555
H10 C15 1_555 1_555
C16 C8 1_555 1_555
C17 C16 1_555 1_555
H11 C17 1_555 1_555
C18 C17 1_555 1_555
H12 C18 1_555 1_555
C19 C18 1_555 1_555
C20 C19 1_555 1_555
H13 C20 1_555 1_555
C21 C16 1_555 1_555
H14 C21 1_555 1_555
C22 C19 1_555 1_555
C23 C22 1_555 1_555
H15 C23 1_555 1_555
C24 C23 1_555 1_555
H16 C24 1_555 1_555
C25 C24 1_555 1_555
H17 C25 1_555 1_555
C26 C25 1_555 1_555
H18 C26 1_555 1_555
C27 C22 1_555 1_555
H19 C27 1_555 1_555
N4 Cd1 1_555 1_555
N5 C33 1_555 1_555
N6 C38 1_555 1_555
C28 N4 1_555 1_555
H20 C28 1_555 1_555
C29 C28 1_555 1_555
H21 C29 1_555 1_555
C30 C29 1_555 1_555
C31 C30 1_555 1_555
H22 C31 1_555 1_555
C32 N4 1_555 1_555
H23 C32 1_555 1_555
C33 C30 1_555 1_555
C34 C33 1_555 1_555
H24 C34 1_555 1_555
C35 C34 1_555 1_555
C36 C35 1_555 1_555
H25 C36 1_555 1_555
C37 N5 1_555 1_555
C38 H26 1_555 1_555
C39 C38 1_555 1_555
H27 C39 1_555 1_555
C40 C37 1_555 1_555
C41 C40 1_555 1_555
H28 C41 1_555 1_555
C42 N6 1_555 1_555
H29 C42 1_555 1_555
C43 C35 1_555 1_555
C44 C43 1_555 1_555
H30 C44 1_555 1_555
C45 C44 1_555 1_555
H31 C45 1_555 1_555
C46 C45 1_555 1_555
C47 C46 1_555 1_555
H32 C47 1_555 1_555
C48 C43 1_555 1_555
H33 C48 1_555 1_555
C49 C46 1_555 1_555
C50 C49 1_555 1_555
H34 C50 1_555 1_555
C51 C50 1_555 1_555
H35 C51 1_555 1_555
C52 C51 1_555 1_555
H36 C52 1_555 1_555
C53 C52 1_555 1_555
H37 C53 1_555 1_555
C54 C49 1_555 1_555
H38 C54 1_555 1_555
O1 Cd1 1_555 1_555
O2 Cd1 1_555 1_555
C55 O1 1_555 1_555
C56 C55 1_555 1_555
H39 C56 1_555 1_555
H40 C56 1_555 1_555
H41 C56 1_555 1_555
O3 Cd1 1_555 1_555
O4 Cd1 1_555 1_555
C57 O3 1_555 1_555
C58 C57 1_555 1_555
H42 C58 1_555 1_555
H43 C58 1_555 1_555
H44 C58 1_555 1_555
O5 Cd2 1_555 1_555
O6 Cd2 1_555 1_555
C59 O5 1_555 1_555
C60 C59 1_555 1_555
H45 C60 1_555 1_555
H46 C60 1_555 1_555
H47 C60 1_555 1_555
O7 Cd2 1_555 1_555
O8 Cd2 1_555 1_555
C61 O7 1_555 1_555
C62 C61 1_555 1_555
H48 C62 1_555 1_555
H49 C62 1_555 1_555
H50 C62 1_555 1_555
O10 H51 1_555 1_555
C63 O10 1_555 1_555
H52 C63 1_555 1_555
H53 C63 1_555 1_555
H54 C63 1_555 1_555
O12 H59 1_555 1_555
C65 O12 1_555 1_555
H60 C65 1_555 1_555
H61 C65 1_555 1_555
H62 C65 1_555 1_555
Cd1A O2 1_555 1_555
Cd2_2 N6 1_555 1_555
Cd2A O8 1_555 1_555
N6_2 Cd2 1_555 1_555
O2A Cd1 1_555 1_555
O8A Cd2 1_555 1_555
C4 C5 1_555 1_555
C9 C10 1_555 1_555
C12 C13 1_555 1_555
C14 C15 1_555 1_555
C20 C21 1_555 1_555
C26 C27 1_555 1_555
C31 C32 1_555 1_555
C36 C37 1_555 1_555
C39 C40 1_555 1_555
C41 C42 1_555 1_555
C47 C48 1_555 1_555
C53 C54 1_555 1_555
O2 C55 1_555 1_555
O4 C57 1_555 1_555
O6 C59 1_555 1_555
O8 C61 1_555 1_555
Cd1A O2A 1_555 1_555
Cd2A O8A 1_555 1_555

#END
