
#######################################################################
#
#                 Cambridge Crystallographic Data Centre
#                                CCDC 
#
#######################################################################
#
# If this CIF has been generated from an entry in the Cambridge 
# Structural Database, then it will include bibliographic, chemical, 
# crystal, experimental, refinement or atomic coordinate data resulting 
# from the CCDC's data processing and validation procedures.
#
#######################################################################

data_RIGJAU
_symmetry_cell_setting           monoclinic
_symmetry_space_group_name_H-M   'C 2/c'
_symmetry_Int_Tables_number      15
_space_group_name_Hall           '-C 2yn'
loop_
_symmetry_equiv_pos_site_id
_symmetry_equiv_pos_as_xyz
1 x,y,z
2 -x,y,1/2-z
3 1/2+x,1/2+y,z
4 1/2-x,1/2+y,1/2-z
5 -x,-y,-z
6 x,-y,1/2+z
7 1/2-x,1/2-y,-z
8 1/2+x,1/2-y,1/2+z
_cell_length_a                   26.0528(9)
_cell_length_b                   16.1512(9)
_cell_length_c                   8.2267(3)
_cell_angle_alpha                90
_cell_angle_beta                 108.113(2)
_cell_angle_gamma                90
_cell_volume                     3290.12
loop_
_atom_site_label
_atom_site_type_symbol
_atom_site_fract_x
_atom_site_fract_y
_atom_site_fract_z
Cu1 Cu 0.214373(8) 0.299596(13) 0.89733(3)
N1 N 0.15772(6) 0.38065(9) 0.72108(19)
N2 N 0.0000 0.48818(12) 0.2500
C1 C 0.11364(7) 0.34833(11) 0.6096(2)
H1 H 0.1086 0.2901 0.6105
C2 C 0.07482(7) 0.39511(11) 0.4927(2)
H2 H 0.0440 0.3691 0.4164
C3 C 0.08116(6) 0.48024(10) 0.4873(2)
C4 C 0.12777(7) 0.51414(11) 0.6006(2)
H3 H 0.1344 0.5719 0.5999
C5 C 0.16432(7) 0.46267(12) 0.7146(2)
H4 H 0.1957 0.4868 0.7921
C6 C 0.03910(6) 0.53085(10) 0.3647(2)
C7 C 0.03999(7) 0.61706(10) 0.3703(2)
H5 H 0.0677 0.6452 0.4554
C8 C 0.0000 0.66188(14) 0.2500
C9 C 0.0000 0.75334(15) 0.2500
C10 C 0.04729(7) 0.79785(11) 0.3296(2)
H6 H 0.0799 0.7690 0.3841
C11 C 0.04698(7) 0.88356(11) 0.3296(2)
H7 H 0.0794 0.9126 0.3849
C12 C 0.0000 0.92826(15) 0.2500
C13 C 0.0000 1.02001(15) 0.2500
C14 C 0.03423(8) 1.06414(12) 0.3864(3)
H8 H 0.0579 1.0351 0.4805
C15 C 0.03407(9) 1.14999(12) 0.3863(3)
H9 H 0.0575 1.1793 0.4805
C16 C 0.0000 1.19317(17) 0.2500
H10 H 0.0000 1.2520 0.2500
O1 O 0.17246(5) 0.28251(9) 1.05709(18)
O2 O 0.23287(7) 0.19759(11) 1.2295(2)
C17 C 0.18940(8) 0.23706(14) 1.1877(3)
C18 C 0.15363(12) 0.2283(2) 1.3007(4)
H11 H 0.1370 0.1733 1.2848
H12 H 0.1253 0.2707 1.2698
H13 H 0.1754 0.2354 1.4206
O3 O 0.18463(6) 0.19476(9) 0.78012(19)
O4 O 0.24609(6) 0.11096(9) 0.95247(19)
C19 C 0.20561(8) 0.12478(12) 0.8252(3)
C20 C 0.18025(10) 0.05136(15) 0.7162(3)
H14 H 0.2028 0.0023 0.7553
H15 H 0.1772 0.0627 0.5965
H16 H 0.1442 0.0414 0.7259
N1A N -0.15772(6) 0.38065(9) -0.22108(19)
C1A C -0.11364(7) 0.34833(11) -0.1096(2)
H1A H -0.1086 0.2901 -0.1105
C2A C -0.07482(7) 0.39511(11) 0.0073(2)
H2A H -0.0440 0.3691 0.0836
C3A C -0.08116(6) 0.48024(10) 0.0127(2)
C4A C -0.12777(7) 0.51414(11) -0.1006(2)
H3A H -0.1344 0.5719 -0.0999
C5A C -0.16432(7) 0.46267(12) -0.2146(2)
H4A H -0.1957 0.4868 -0.2921
C6A C -0.03910(6) 0.53085(10) 0.1353(2)
C7A C -0.03999(7) 0.61706(10) 0.1297(2)
H5A H -0.0677 0.6452 0.0446
C10A C -0.04729(7) 0.79785(11) 0.1704(2)
H6A H -0.0799 0.7690 0.1159
C11A C -0.04698(7) 0.88356(11) 0.1704(2)
H7A H -0.0794 0.9126 0.1151
C14A C -0.03423(8) 1.06414(12) 0.1136(3)
H8A H -0.0579 1.0351 0.0195
C15A C -0.03407(9) 1.14999(12) 0.1137(3)
H9A H -0.0575 1.1793 0.0195
Cu1A Cu -0.214373(8) 0.299596(13) -0.39733(3)
O1A O -0.17246(5) 0.28251(9) -0.55709(18)
O2A O -0.23287(7) 0.19759(11) -0.7295(2)
C17A C -0.18940(8) 0.23706(14) -0.6877(3)
C18A C -0.15363(12) 0.2283(2) -0.8007(4)
H11A H -0.1370 0.1733 -0.7848
H12A H -0.1253 0.2707 -0.7698
H13A H -0.1754 0.2354 -0.9206
O3A O -0.18463(6) 0.19476(9) -0.28012(19)
O4A O -0.24609(6) 0.11096(9) -0.45247(19)
C19A C -0.20561(8) 0.12478(12) -0.3252(3)
C20A C -0.18025(10) 0.05136(15) -0.2162(3)
H14A H -0.2028 0.0023 -0.2553
H15A H -0.1772 0.0627 -0.0965
H16A H -0.1442 0.0414 -0.2259
Cu1F Cu 0.285627(8) 0.200404(13) 1.10267(3)
Cu1G Cu -0.285627(8) 0.200404(13) -0.60267(3)
O2F O 0.26713(7) 0.30241(11) 0.7705(2)
O2G O -0.26713(7) 0.30241(11) -0.2705(2)
O4F O 0.25391(6) 0.38904(9) 1.04753(19)
O4G O -0.25391(6) 0.38904(9) -0.54753(19)
loop_
_geom_bond_atom_site_label_1
_geom_bond_atom_site_label_2
_geom_bond_site_symmetry_1
_geom_bond_site_symmetry_2
Cu1 N1 1_555 1_555
N1 C1 1_555 1_555
N2 C6 1_555 1_555
C1 H1 1_555 1_555
C2 C1 1_555 1_555
H2 C2 1_555 1_555
C3 C2 1_555 1_555
C4 C3 1_555 1_555
H3 C4 1_555 1_555
C5 N1 1_555 1_555
H4 C5 1_555 1_555
C6 C3 1_555 1_555
C7 C6 1_555 1_555
H5 C7 1_555 1_555
C8 C7 1_555 1_555
C9 C8 1_555 1_555
C10 C9 1_555 1_555
H6 C10 1_555 1_555
C11 C10 1_555 1_555
H7 C11 1_555 1_555
C12 C11 1_555 1_555
C13 C12 1_555 1_555
C14 C13 1_555 1_555
H8 C14 1_555 1_555
C15 C14 1_555 1_555
H9 C15 1_555 1_555
C16 C15 1_555 1_555
H10 C16 1_555 1_555
O1 Cu1 1_555 1_555
O2 C17 1_555 1_555
C17 O1 1_555 1_555
C18 C17 1_555 1_555
H11 C18 1_555 1_555
H12 C18 1_555 1_555
H13 C18 1_555 1_555
O3 Cu1 1_555 1_555
O4 C19 1_555 1_555
C19 O3 1_555 1_555
C20 C19 1_555 1_555
H14 C20 1_555 1_555
H15 C20 1_555 1_555
H16 C20 1_555 1_555
N1A C1A 1_555 1_555
C1A H1A 1_555 1_555
C2A C1A 1_555 1_555
H2A C2A 1_555 1_555
C3A C2A 1_555 1_555
C4A C3A 1_555 1_555
H3A C4A 1_555 1_555
C5A N1A 1_555 1_555
H4A C5A 1_555 1_555
C6A N2 1_555 1_555
C7A C8 1_555 1_555
H5A C7A 1_555 1_555
C10A C9 1_555 1_555
H6A C10A 1_555 1_555
C11A C12 1_555 1_555
H7A C11A 1_555 1_555
C14A C13 1_555 1_555
H8A C14A 1_555 1_555
C15A C16 1_555 1_555
H9A C15A 1_555 1_555
Cu1A N1A 1_555 1_555
O1A Cu1A 1_555 1_555
O2A C17A 1_555 1_555
C17A O1A 1_555 1_555
C18A C17A 1_555 1_555
H11A C18A 1_555 1_555
H12A C18A 1_555 1_555
H13A C18A 1_555 1_555
O3A Cu1A 1_555 1_555
O4A C19A 1_555 1_555
C19A O3A 1_555 1_555
C20A C19A 1_555 1_555
H14A C20A 1_555 1_555
H15A C20A 1_555 1_555
H16A C20A 1_555 1_555
Cu1F Cu1 1_555 1_555
Cu1G Cu1A 1_555 1_555
O2F Cu1 1_555 1_555
O2G Cu1A 1_555 1_555
O4F Cu1 1_555 1_555
O4G Cu1A 1_555 1_555
C4 C5 1_555 1_555
O2 Cu1F 1_555 1_555
O4 Cu1F 1_555 1_555
C3A C6A 1_555 1_555
C4A C5A 1_555 1_555
C6A C7A 1_555 1_555
C10A C11A 1_555 1_555
C14A C15A 1_555 1_555
O2A Cu1G 1_555 1_555
O4A Cu1G 1_555 1_555

#END
