
#######################################################################
#
#                 Cambridge Crystallographic Data Centre
#                                CCDC 
#
#######################################################################
#
# If this CIF has been generated from an entry in the Cambridge 
# Structural Database, then it will include bibliographic, chemical, 
# crystal, experimental, refinement or atomic coordinate data resulting 
# from the CCDC's data processing and validation procedures.
#
#######################################################################

data_RIGKAV
_symmetry_cell_setting           triclinic
_symmetry_space_group_name_H-M   'P -1'
_symmetry_Int_Tables_number      2
_space_group_name_Hall           '-P 1'
loop_
_symmetry_equiv_pos_site_id
_symmetry_equiv_pos_as_xyz
1 x,y,z
2 -x,-y,-z
_cell_length_a                   13.3203(7)
_cell_length_b                   14.0006(8)
_cell_length_c                   17.1257(9)
_cell_angle_alpha                68.1050(10)
_cell_angle_beta                 71.7770(10)
_cell_angle_gamma                88.3660(10)
_cell_volume                     2800.71
loop_
_atom_site_label
_atom_site_type_symbol
_atom_site_fract_x
_atom_site_fract_y
_atom_site_fract_z
W1 W -0.28652(6) -0.38142(5) -0.73829(5)
W2 W -0.34709(6) -0.15157(5) -0.86550(5)
W3 W -0.15178(6) -0.27042(5) -0.95738(5)
W4 W -0.03111(6) -0.39489(5) -0.68830(5)
W5 W 0.10282(6) -0.28238(5) -0.90804(5)
W6 W 0.13477(6) -0.17554(6) -0.77071(5)
W7 W -0.25135(6) -0.26558(6) -0.58374(5)
W8 W -0.08495(6) -0.04661(6) -0.67027(5)
W9 W -0.31852(6) -0.03879(6) -0.70830(6)
As1 As -0.10476(13) -0.14935(13) -0.82239(11)
O1 O -0.3626(10) -0.4977(10) -0.6754(9)
O2 O -0.4643(10) -0.1223(10) -0.8904(9)
O3 O -0.1388(12) -0.3263(11) -1.0351(9)
O4 O -0.0279(11) -0.5152(11) -0.6109(10)
O5 O 0.1902(11) -0.3429(10) -0.9683(10)
O6 O 0.2453(10) -0.1597(11) -0.7428(10)
O7 O -0.3164(10) -0.3502(10) -0.4759(9)
O8 O -0.0447(11) 0.0104(10) -0.6093(9)
O9 O -0.4248(12) 0.0287(11) -0.6807(11)
O10 O -0.1483(9) -0.4180(8) -0.7236(8)
O11 O -0.1220(10) -0.3337(9) -0.6118(9)
O12 O -0.3088(11) -0.3228(11) -0.6489(10)
O13 O -0.3900(10) -0.2998(10) -0.7754(10)
O14 O -0.2293(10) -0.3941(10) -0.8483(9)
O15 O 0.0565(12) -0.4075(10) -0.7918(9)
O16 O 0.0818(11) -0.3210(10) -0.6840(8)
O17 O -0.1715(10) -0.1728(10) -0.5653(9)
O18 O -0.3527(10) -0.1667(9) -0.6011(8)
O19 O -0.2884(10) -0.2190(10) -0.9491(9)
O20 O -0.0272(10) -0.3165(10) -0.9230(9)
O21 O 0.1946(10) -0.2424(11) -0.8558(9)
O22 O 0.0265(9) -0.1331(9) -0.6885(8)
O23 O -0.2228(10) 0.0080(10) -0.6622(9)
O24 O -0.3686(10) -0.1129(10) -0.7670(9)
O25 O -0.2592(10) -0.0394(10) -0.9398(9)
O26 O -0.0824(9) -0.1412(9) -1.0235(8)
O27 O 0.1116(10) -0.1528(9) -0.9875(8)
O28 O 0.1412(10) -0.0526(10) -0.8642(9)
O29 O -0.0335(10) 0.0483(10) -0.7830(8)
O30 O -0.2324(10) 0.0555(10) -0.8222(9)
O31 O -0.1974(9) -0.2182(8) -0.8408(8)
O32 O -0.0052(9) -0.2310(8) -0.8022(8)
O33 O -0.1710(10) -0.1351(9) -0.7211(8)
O34 O -0.0534(9) -0.0309(9) -0.9130(8)
Zn1 Zn -0.10619(17) 0.00475(16) -1.02054(14)
Zn2 Zn 0.07774(18) -0.10681(17) -1.10667(15)
N1 N 0.104(2) -0.2479(18) -1.1217(14)
H1 H 0.1626 -0.2699 -1.1070
H2 H 0.0491 -0.2943 -1.0821
N2 N 0.080(2) -0.4436(16) -1.1742(16)
H3 H 0.1060 -0.4926 -1.1941
H4 H 0.0149 -0.4348 -1.1770
H5 H 0.0785 -0.4624 -1.1180
C1 C 0.119(3) -0.2489(19) -1.2117(16)
H6 H 0.1725 -0.1926 -1.2546
H7 H 0.0531 -0.2323 -1.2240
C2 C 0.150(3) -0.3441(15) -1.2306(15)
H8 H 0.2212 -0.3561 -1.2256
C3 C 0.157(3) -0.329(2) -1.3239(17)
H9 H 0.1760 -0.3909 -1.3338
H10 H 0.2108 -0.2729 -1.3655
H11 H 0.0901 -0.3121 -1.3322
Zn3 Zn -0.5000 0.0000 -1.0000
N3 N -0.3772(13) -0.0309(12) -1.0953(12)
H12 H -0.3606 0.0244 -1.1471
H13 H -0.3193 -0.0408 -1.0778
N4 N -0.5859(14) -0.1101(13) -1.0132(11)
H14 H -0.6011 -0.1684 -0.9639
H15 H -0.6475 -0.0868 -1.0201
C4 C -0.4052(16) -0.1237(17) -1.1100(19)
H16 H -0.3856 -0.1853 -1.0699
H17 H -0.3674 -0.1164 -1.1707
C5 C -0.5221(14) -0.1325(19) -1.0928(17)
H18 H -0.5320 -0.0752 -1.1435
C6 C -0.566(3) -0.227(3) -1.097(3)
H19 H -0.5228 -0.2359 -1.1502
H20 H -0.6374 -0.2190 -1.0986
H21 H -0.5661 -0.2866 -1.0460
Zn4 Zn 0.0000 0.0000 -0.5000
N5 N 0.1224(15) -0.0869(14) -0.5382(12)
H22 H 0.1432 -0.1232 -0.4912
H23 H 0.0980 -0.1322 -0.5556
N6 N 0.1183(15) 0.1235(17) -0.5812(16)
H24 H 0.1081 0.1573 -0.6339
H25 H 0.1173 0.1685 -0.5548
C7 C 0.2156(19) -0.0190(16) -0.6127(16)
H26 H 0.2802 -0.0530 -0.6136
H27 H 0.2048 -0.0023 -0.6696
C8 C 0.2223(14) 0.0767(16) -0.5943(18)
H28 H 0.2328 0.0527 -0.5361
C9 C 0.3198(18) 0.148(2) -0.6578(18)
H29 H 0.3813 0.1107 -0.6592
H30 H 0.3270 0.2033 -0.6386
H31 H 0.3136 0.1770 -0.7163
Zn5 Zn -0.3241(3) -0.4837(3) -0.3565(2)
N7 N -0.2002(17) -0.5422(18) -0.4315(18)
H32 H -0.1605 -0.4903 -0.4811
H33 H -0.1581 -0.5739 -0.3993
N8 N -0.4179(19) -0.573(3) -0.379(2)
H34 H -0.4480 -0.6278 -0.3277
H35 H -0.4705 -0.5368 -0.3937
N9 N -0.3308(17) -0.6068(17) -0.2452(12)
H36 H -0.3451 -0.6659 -0.2507
H37 H -0.2685 -0.6090 -0.2347
N10 N -0.4427(19) -0.4323(18) -0.2804(12)
H38 H -0.4286 -0.3641 -0.2958
H39 H -0.5039 -0.4422 -0.2896
C10 C -0.2489(18) -0.618(2) -0.456(2)
H40 H -0.2413 -0.6869 -0.4171
H41 H -0.2076 -0.6087 -0.5160
C11 C -0.3632(15) -0.612(3) -0.450(3)
H42 H -0.3562 -0.5492 -0.5024
C12 C -0.418(2) -0.685(3) -0.472(3)
H43 H -0.3692 -0.7325 -0.4877
H44 H -0.4408 -0.6468 -0.5221
H45 H -0.4780 -0.7232 -0.4221
C13 C -0.417(2) -0.5934(16) -0.1711(11)
H46 H -0.3940 -0.6154 -0.1194
H47 H -0.4784 -0.6407 -0.1566
C14 C -0.455(2) -0.4887(17) -0.1843(12)
H48 H -0.4018 -0.4517 -0.1742
C15 C -0.5574(19) -0.487(2) -0.1170(17)
H49 H -0.5543 -0.5245 -0.0582
H50 H -0.6144 -0.5186 -0.1251
H51 H -0.5696 -0.4167 -0.1244
O35 O -0.211(2) -0.393(2) -0.341(2)
W1A W -0.71348(6) 0.38142(5) -1.26171(5)
W2A W -0.65291(6) 0.15157(5) -1.13450(5)
W3A W -0.84822(6) 0.27042(5) -1.04262(5)
W4A W -0.96889(6) 0.39489(5) -1.31170(5)
W5A W -1.10282(6) 0.28238(5) -1.09196(5)
W6A W -1.13477(6) 0.17554(6) -1.22929(5)
W7A W -0.74865(6) 0.26558(6) -1.41626(5)
W8A W -0.91505(6) 0.04661(6) -1.32973(5)
W9A W -0.68148(6) 0.03879(6) -1.29170(6)
As1A As -0.89524(13) 0.14935(13) -1.17761(11)
O1A O -0.6374(10) 0.4977(10) -1.3246(9)
O2A O -0.5357(10) 0.1223(10) -1.1096(9)
O3A O -0.8612(12) 0.3263(11) -0.9649(9)
O4A O -0.9721(11) 0.5152(11) -1.3891(10)
O5A O -1.1902(11) 0.3429(10) -1.0317(10)
O6A O -1.2453(10) 0.1597(11) -1.2572(10)
O7A O -0.6836(10) 0.3502(10) -1.5241(9)
O8A O -0.9553(11) -0.0104(10) -1.3907(9)
O9A O -0.5752(12) -0.0287(11) -1.3193(11)
O10A O -0.8517(9) 0.4180(8) -1.2764(8)
O11A O -0.8780(10) 0.3337(9) -1.3882(9)
O12A O -0.6912(11) 0.3228(11) -1.3511(10)
O13A O -0.6100(10) 0.2998(10) -1.2246(10)
O14A O -0.7707(10) 0.3941(10) -1.1517(9)
O15A O -1.0565(12) 0.4075(10) -1.2082(9)
O16A O -1.0818(11) 0.3210(10) -1.3160(8)
O17A O -0.8285(10) 0.1728(10) -1.4347(9)
O18A O -0.6473(10) 0.1667(9) -1.3989(8)
O19A O -0.7116(10) 0.2190(10) -1.0509(9)
O20A O -0.9728(10) 0.3165(10) -1.0770(9)
O21A O -1.1946(10) 0.2424(11) -1.1442(9)
O22A O -1.0265(9) 0.1331(9) -1.3115(8)
O23A O -0.7772(10) -0.0080(10) -1.3378(9)
O24A O -0.6314(10) 0.1129(10) -1.2330(9)
O25A O -0.7408(10) 0.0394(10) -1.0602(9)
O26A O -0.9176(9) 0.1412(9) -0.9765(8)
O27A O -1.1116(10) 0.1528(9) -1.0125(8)
O28A O -1.1412(10) 0.0526(10) -1.1358(9)
O29A O -0.9665(10) -0.0483(10) -1.2170(8)
O30A O -0.7676(10) -0.0555(10) -1.1778(9)
O31A O -0.8026(9) 0.2182(8) -1.1592(8)
O32A O -0.9948(9) 0.2310(8) -1.1978(8)
O33A O -0.8290(10) 0.1351(9) -1.2789(8)
O34A O -0.9466(9) 0.0309(9) -1.0870(8)
Zn1A Zn -0.89381(17) -0.00475(16) -0.97946(14)
Zn2A Zn -1.07774(18) 0.10681(17) -0.89333(15)
N1A N -1.104(2) 0.2479(18) -0.8783(14)
H1A H -1.1626 0.2699 -0.8930
H2A H -1.0491 0.2943 -0.9179
N2A N -1.080(2) 0.4436(16) -0.8258(16)
H3A H -1.1060 0.4926 -0.8059
H4A H -1.0149 0.4348 -0.8230
H5A H -1.0785 0.4624 -0.8820
C1A C -1.119(3) 0.2489(19) -0.7883(16)
H6A H -1.1725 0.1926 -0.7454
H7A H -1.0531 0.2323 -0.7760
C2A C -1.150(3) 0.3441(15) -0.7694(15)
H8A H -1.2212 0.3561 -0.7744
C3A C -1.157(3) 0.329(2) -0.6761(17)
H9A H -1.1760 0.3909 -0.6662
H10A H -1.2108 0.2729 -0.6345
H11A H -1.0901 0.3121 -0.6678
N3A N -0.6228(13) 0.0309(12) -0.9047(12)
H12A H -0.6394 -0.0244 -0.8529
H13A H -0.6807 0.0408 -0.9222
N4A N -0.4141(14) 0.1101(13) -0.9868(11)
H14A H -0.3989 0.1684 -1.0361
H15A H -0.3525 0.0868 -0.9799
C4A C -0.5948(16) 0.1237(17) -0.8900(19)
H16A H -0.6144 0.1853 -0.9301
H17A H -0.6326 0.1164 -0.8293
C5A C -0.4779(14) 0.1325(19) -0.9072(17)
H18A H -0.4680 0.0752 -0.8565
C6A C -0.434(3) 0.227(3) -0.903(3)
H19A H -0.4772 0.2359 -0.8498
H20A H -0.3626 0.2190 -0.9014
H21A H -0.4339 0.2866 -0.9540
Zn5A Zn -0.6759(3) 0.4837(3) -1.6435(2)
N7A N -0.7998(17) 0.5422(18) -1.5685(18)
H32A H -0.8395 0.4903 -1.5189
H33A H -0.8419 0.5739 -1.6007
N8A N -0.5821(19) 0.573(3) -1.621(2)
H34A H -0.5520 0.6278 -1.6723
H35A H -0.5295 0.5368 -1.6063
N9A N -0.6692(17) 0.6068(17) -1.7548(12)
H36A H -0.6549 0.6659 -1.7493
H37A H -0.7315 0.6090 -1.7653
N10A N -0.5573(19) 0.4323(18) -1.7196(12)
H38A H -0.5714 0.3641 -1.7042
H39A H -0.4961 0.4422 -1.7104
C10A C -0.7511(18) 0.618(2) -1.544(2)
H40A H -0.7587 0.6869 -1.5829
H41A H -0.7924 0.6087 -1.4840
C11A C -0.6368(15) 0.612(3) -1.550(3)
H42A H -0.6438 0.5492 -1.4976
C12A C -0.582(2) 0.685(3) -1.528(3)
H43A H -0.6308 0.7325 -1.5123
H44A H -0.5592 0.6468 -1.4779
H45A H -0.5220 0.7232 -1.5779
C13A C -0.583(2) 0.5934(16) -1.8289(11)
H46A H -0.6060 0.6154 -1.8806
H47A H -0.5216 0.6407 -1.8434
C14A C -0.545(2) 0.4887(17) -1.8157(12)
H48A H -0.5982 0.4517 -1.8258
C15A C -0.4426(19) 0.487(2) -1.8830(17)
H49A H -0.4457 0.5245 -1.9418
H50A H -0.3856 0.5186 -1.8749
H51A H -0.4304 0.4167 -1.8756
O35A O -0.789(2) 0.393(2) -1.659(2)
N5A N -0.1224(15) 0.0869(14) -0.4618(12)
H22A H -0.1432 0.1232 -0.5088
H23A H -0.0980 0.1322 -0.4444
N6A N -0.1183(15) -0.1235(17) -0.4188(16)
H24A H -0.1081 -0.1573 -0.3661
H25A H -0.1173 -0.1685 -0.4452
C7A C -0.2156(19) 0.0190(16) -0.3873(16)
H26A H -0.2802 0.0530 -0.3864
H27A H -0.2048 0.0023 -0.3304
C8A C -0.2223(14) -0.0767(16) -0.4057(18)
H28A H -0.2328 -0.0527 -0.4639
C9A C -0.3198(18) -0.148(2) -0.3422(18)
H29A H -0.3813 -0.1107 -0.3408
H30A H -0.3270 -0.2033 -0.3614
H31A H -0.3136 -0.1770 -0.2837
O8A_2 O 0.0447(11) -0.0104(10) -0.3907(9)
O27_2 O -0.8884(10) -0.1528(9) -0.9875(8)
O27A_2 O -0.1116(10) 0.1528(9) -1.0125(8)
O28_2 O -0.8588(10) -0.0526(10) -0.8642(9)
O28A_2 O -0.1412(10) 0.0526(10) -1.1358(9)
O29_2 O -1.0335(10) 0.0483(10) -0.7830(8)
O29A_2 O 0.0335(10) -0.0483(10) -1.2170(8)
O30_2 O -1.2324(10) 0.0555(10) -0.8222(9)
O30A_2 O 0.2324(10) -0.0555(10) -1.1778(9)
O34_2 O -1.0534(9) -0.0309(9) -0.9130(8)
O34A_2 O 0.0534(9) 0.0309(9) -1.0870(8)
Zn1_2 Zn -1.10619(17) 0.00475(16) -1.02054(14)
Zn1A_2 Zn 0.10619(17) -0.00475(16) -0.97946(14)
Zn2_2 Zn -0.92226(18) -0.10681(17) -1.10667(15)
Zn2A_2 Zn -0.07774(18) 0.10681(17) -0.89333(15)
Zn4_2 Zn -1.0000 0.0000 -1.5000
O36 O 0.0162(14) -0.7049(13) -0.5103(12)
O37 O 0.138(3) 0.173(3) -0.793(2)
loop_
_geom_bond_atom_site_label_1
_geom_bond_atom_site_label_2
_geom_bond_site_symmetry_1
_geom_bond_site_symmetry_2
W1 O1 1_555 1_555
W2 O2 1_555 1_555
W3 O3 1_555 1_555
W4 O4 1_555 1_555
W5 O5 1_555 1_555
W6 O6 1_555 1_555
W7 O7 1_555 1_555
W8 O8 1_555 1_555
W9 O9 1_555 1_555
As1 O31 1_555 1_555
O2 Zn3 1_555 1_555
O7 Zn5 1_555 1_555
O8 Zn4 1_555 1_555
O10 W1 1_555 1_555
O11 W4 1_555 1_555
O12 W1 1_555 1_555
O13 W1 1_555 1_555
O14 W1 1_555 1_555
O15 W4 1_555 1_555
O16 W4 1_555 1_555
O17 W7 1_555 1_555
O18 W7 1_555 1_555
O19 W2 1_555 1_555
O20 W3 1_555 1_555
O21 W5 1_555 1_555
O22 W6 1_555 1_555
O23 W8 1_555 1_555
O24 W2 1_555 1_555
O25 W2 1_555 1_555
O26 W3 1_555 1_555
O27 W5 1_555 1_555
O28 W6 1_555 1_555
O29 W8 1_555 1_555
O30 W9 1_555 1_555
O31 W1 1_555 1_555
O32 W4 1_555 1_555
O33 W7 1_555 1_555
O34 As1 1_555 1_555
Zn1 O25 1_555 1_555
Zn2 O26 1_555 1_555
N1 Zn2 1_555 1_555
H1 N1 1_555 1_555
H2 N1 1_555 1_555
N2 H3 1_555 1_555
H4 N2 1_555 1_555
H5 N2 1_555 1_555
C1 N1 1_555 1_555
H6 C1 1_555 1_555
H7 C1 1_555 1_555
C2 N2 1_555 1_555
H8 C2 1_555 1_555
C3 C2 1_555 1_555
H9 C3 1_555 1_555
H10 C3 1_555 1_555
H11 C3 1_555 1_555
Zn3 N3 1_555 1_555
N3 H12 1_555 1_555
H13 N3 1_555 1_555
N4 Zn3 1_555 1_555
H14 N4 1_555 1_555
H15 N4 1_555 1_555
C4 N3 1_555 1_555
H16 C4 1_555 1_555
H17 C4 1_555 1_555
C5 N4 1_555 1_555
H18 C5 1_555 1_555
C6 C5 1_555 1_555
H19 C6 1_555 1_555
H20 C6 1_555 1_555
H21 C6 1_555 1_555
Zn4 N5 1_555 1_555
N5 H22 1_555 1_555
H23 N5 1_555 1_555
N6 Zn4 1_555 1_555
H24 N6 1_555 1_555
H25 N6 1_555 1_555
C7 N5 1_555 1_555
H26 C7 1_555 1_555
H27 C7 1_555 1_555
C8 N6 1_555 1_555
H28 C8 1_555 1_555
C9 C8 1_555 1_555
H29 C9 1_555 1_555
H30 C9 1_555 1_555
H31 C9 1_555 1_555
Zn5 N7 1_555 1_555
N7 H32 1_555 1_555
H33 N7 1_555 1_555
N8 Zn5 1_555 1_555
H34 N8 1_555 1_555
H35 N8 1_555 1_555
N9 Zn5 1_555 1_555
H36 N9 1_555 1_555
H37 N9 1_555 1_555
N10 Zn5 1_555 1_555
H38 N10 1_555 1_555
H39 N10 1_555 1_555
C10 N7 1_555 1_555
H40 C10 1_555 1_555
H41 C10 1_555 1_555
C11 N8 1_555 1_555
H42 C11 1_555 1_555
C12 C11 1_555 1_555
H43 C12 1_555 1_555
H44 C12 1_555 1_555
H45 C12 1_555 1_555
C13 N9 1_555 1_555
H46 C13 1_555 1_555
H47 C13 1_555 1_555
C14 N10 1_555 1_555
H48 C14 1_555 1_555
C15 C14 1_555 1_555
H49 C15 1_555 1_555
H50 C15 1_555 1_555
H51 C15 1_555 1_555
O35 Zn5 1_555 1_555
W1A O1A 1_555 1_555
W2A O2A 1_555 1_555
W3A O3A 1_555 1_555
W4A O4A 1_555 1_555
W5A O5A 1_555 1_555
W6A O6A 1_555 1_555
W7A O7A 1_555 1_555
W8A O8A 1_555 1_555
W9A O9A 1_555 1_555
As1A O31A 1_555 1_555
O2A Zn3 1_555 1_555
O7A Zn5A 1_555 1_555
O8A Zn4_2 1_555 1_555
O10A W1A 1_555 1_555
O11A W4A 1_555 1_555
O12A W1A 1_555 1_555
O13A W1A 1_555 1_555
O14A W1A 1_555 1_555
O15A W4A 1_555 1_555
O16A W4A 1_555 1_555
O17A W7A 1_555 1_555
O18A W7A 1_555 1_555
O19A W2A 1_555 1_555
O20A W3A 1_555 1_555
O21A W5A 1_555 1_555
O22A W6A 1_555 1_555
O23A W8A 1_555 1_555
O24A W2A 1_555 1_555
O25A W2A 1_555 1_555
O26A W3A 1_555 1_555
O27A W5A 1_555 1_555
O28A W6A 1_555 1_555
O29A W8A 1_555 1_555
O30A W9A 1_555 1_555
O31A W1A 1_555 1_555
O32A W4A 1_555 1_555
O33A W7A 1_555 1_555
O34A As1A 1_555 1_555
Zn1A O25A 1_555 1_555
Zn2A O26A 1_555 1_555
N1A Zn2A 1_555 1_555
H1A N1A 1_555 1_555
H2A N1A 1_555 1_555
N2A H3A 1_555 1_555
H4A N2A 1_555 1_555
H5A N2A 1_555 1_555
C1A N1A 1_555 1_555
H6A C1A 1_555 1_555
H7A C1A 1_555 1_555
C2A N2A 1_555 1_555
H8A C2A 1_555 1_555
C3A C2A 1_555 1_555
H9A C3A 1_555 1_555
H10A C3A 1_555 1_555
H11A C3A 1_555 1_555
N3A Zn3 1_555 1_555
H12A N3A 1_555 1_555
H13A N3A 1_555 1_555
N4A Zn3 1_555 1_555
H14A N4A 1_555 1_555
H15A N4A 1_555 1_555
C4A N3A 1_555 1_555
H16A C4A 1_555 1_555
H17A C4A 1_555 1_555
C5A N4A 1_555 1_555
H18A C5A 1_555 1_555
C6A C5A 1_555 1_555
H19A C6A 1_555 1_555
H20A C6A 1_555 1_555
H21A C6A 1_555 1_555
Zn5A N7A 1_555 1_555
N7A H32A 1_555 1_555
H33A N7A 1_555 1_555
N8A Zn5A 1_555 1_555
H34A N8A 1_555 1_555
H35A N8A 1_555 1_555
N9A Zn5A 1_555 1_555
H36A N9A 1_555 1_555
H37A N9A 1_555 1_555
N10A Zn5A 1_555 1_555
H38A N10A 1_555 1_555
H39A N10A 1_555 1_555
C10A N7A 1_555 1_555
H40A C10A 1_555 1_555
H41A C10A 1_555 1_555
C11A N8A 1_555 1_555
H42A C11A 1_555 1_555
C12A C11A 1_555 1_555
H43A C12A 1_555 1_555
H44A C12A 1_555 1_555
H45A C12A 1_555 1_555
C13A N9A 1_555 1_555
H46A C13A 1_555 1_555
H47A C13A 1_555 1_555
C14A N10A 1_555 1_555
H48A C14A 1_555 1_555
C15A C14A 1_555 1_555
H49A C15A 1_555 1_555
H50A C15A 1_555 1_555
H51A C15A 1_555 1_555
O35A Zn5A 1_555 1_555
N5A Zn4 1_555 1_555
H22A N5A 1_555 1_555
H23A N5A 1_555 1_555
N6A Zn4 1_555 1_555
H24A N6A 1_555 1_555
H25A N6A 1_555 1_555
C7A N5A 1_555 1_555
H26A C7A 1_555 1_555
H27A C7A 1_555 1_555
C8A N6A 1_555 1_555
H28A C8A 1_555 1_555
C9A C8A 1_555 1_555
H29A C9A 1_555 1_555
H30A C9A 1_555 1_555
H31A C9A 1_555 1_555
O8A_2 Zn4 1_555 1_555
O27_2 Zn1A 1_555 1_555
O27A_2 Zn1 1_555 1_555
O28_2 Zn1A 1_555 1_555
O28A_2 Zn1 1_555 1_555
O29_2 Zn2A 1_555 1_555
O29A_2 Zn2 1_555 1_555
O30_2 Zn2A 1_555 1_555
O30A_2 Zn2 1_555 1_555
O34_2 Zn1A 1_555 1_555
O34A_2 Zn1 1_555 1_555
Zn1_2 O27A 1_555 1_555
Zn1A_2 O27 1_555 1_555
Zn2_2 O29A 1_555 1_555
Zn2A_2 O29 1_555 1_555
W2 O13 1_555 1_555
W2 O31 1_555 1_555
W3 O14 1_555 1_555
W3 O19 1_555 1_555
W3 O31 1_555 1_555
W4 O10 1_555 1_555
W5 O15 1_555 1_555
W5 O20 1_555 1_555
W5 O32 1_555 1_555
W6 O16 1_555 1_555
W6 O21 1_555 1_555
W6 O32 1_555 1_555
W7 O11 1_555 1_555
W7 O12 1_555 1_555
W8 O17 1_555 1_555
W8 O22 1_555 1_555
W8 O33 1_555 1_555
W9 O18 1_555 1_555
W9 O23 1_555 1_555
W9 O24 1_555 1_555
W9 O33 1_555 1_555
As1 O32 1_555 1_555
As1 O33 1_555 1_555
O26 Zn1 1_555 1_555
O27 Zn2 1_555 1_555
O28 Zn1A_2 1_555 1_555
O30 Zn2A_2 1_555 1_555
O34 Zn1 1_555 1_555
O34 Zn1A_2 1_555 1_555
O34 Zn2A_2 1_555 1_555
Zn2 O34A_2 1_555 1_555
C1 C2 1_555 1_555
C4 C5 1_555 1_555
C7 C8 1_555 1_555
C10 C11 1_555 1_555
C13 C14 1_555 1_555
W2A O13A 1_555 1_555
W2A O31A 1_555 1_555
W3A O14A 1_555 1_555
W3A O19A 1_555 1_555
W3A O31A 1_555 1_555
W4A O10A 1_555 1_555
W5A O15A 1_555 1_555
W5A O20A 1_555 1_555
W5A O32A 1_555 1_555
W6A O16A 1_555 1_555
W6A O21A 1_555 1_555
W6A O32A 1_555 1_555
W7A O11A 1_555 1_555
W7A O12A 1_555 1_555
W8A O17A 1_555 1_555
W8A O22A 1_555 1_555
W8A O33A 1_555 1_555
W9A O18A 1_555 1_555
W9A O23A 1_555 1_555
W9A O24A 1_555 1_555
W9A O33A 1_555 1_555
As1A O32A 1_555 1_555
As1A O33A 1_555 1_555
O26A Zn1A 1_555 1_555
O27A Zn2A 1_555 1_555
O28A Zn1_2 1_555 1_555
O30A Zn2_2 1_555 1_555
O34A Zn1A 1_555 1_555
O34A Zn1_2 1_555 1_555
O34A Zn2_2 1_555 1_555
Zn2A O34_2 1_555 1_555
C1A C2A 1_555 1_555
C4A C5A 1_555 1_555
C10A C11A 1_555 1_555
C13A C14A 1_555 1_555
C7A C8A 1_555 1_555
O27_2 Zn2_2 1_555 1_555
O27A_2 Zn2A_2 1_555 1_555
O34_2 Zn1_2 1_555 1_555
O34A_2 Zn1A_2 1_555 1_555

#END
