
#######################################################################
#
#                 Cambridge Crystallographic Data Centre
#                                CCDC 
#
#######################################################################
#
# If this CIF has been generated from an entry in the Cambridge 
# Structural Database, then it will include bibliographic, chemical, 
# crystal, experimental, refinement or atomic coordinate data resulting 
# from the CCDC's data processing and validation procedures.
#
#######################################################################

data_RIGMEB
_symmetry_cell_setting           orthorhombic
_symmetry_space_group_name_H-M   'P b a m'
_symmetry_Int_Tables_number      55
_space_group_name_Hall           '-P 2 2ab'
loop_
_symmetry_equiv_pos_site_id
_symmetry_equiv_pos_as_xyz
1 x,y,z
2 -x,-y,z
3 1/2-x,1/2+y,-z
4 1/2+x,1/2-y,-z
5 -x,-y,-z
6 x,y,-z
7 1/2+x,1/2-y,z
8 1/2-x,1/2+y,z
_cell_length_a                   10.427(3)
_cell_length_b                   7.8659(9)
_cell_length_c                   4.1849(9)
_cell_angle_alpha                90
_cell_angle_beta                 90
_cell_angle_gamma                90
_cell_volume                     343.236
loop_
_atom_site_label
_atom_site_type_symbol
_atom_site_fract_x
_atom_site_fract_y
_atom_site_fract_z
Cd1 Cd 0.50000 0.00000 0.00000
Br1 Br 0.6765(11) 0.0651(10) 0.50000
N1 N 0.55766(15) -0.27890(6) 0.00000
C1 C 0.46687(13) -0.41691(6) 0.00000
H1 H 0.615019 -0.296292 -0.147397
H2 H 0.413009 -0.408625 -0.185405
N1A N 0.44234(15) -0.72110(6) 0.00000
C1A C 0.53313(13) -0.58309(6) 0.00000
H1A H 0.384981 -0.703708 -0.147397
H2A H 0.586991 -0.591375 -0.185405
H1D H 0.384981 -0.703708 0.147397
H2D H 0.586991 -0.591375 0.185405
H1E H 0.615019 -0.296292 0.147397
H2E H 0.413009 -0.408625 0.185405
Br1A Br 0.3235(11) -0.0651(10) -0.50000
Cd1_2 Cd 0.50000 -1.00000 0.00000
Cd1_3 Cd 0.50000 0.00000 -1.00000
Cd1_4 Cd 0.50000 0.00000 1.00000
Br1_2 Br 0.6765(11) 0.0651(10) -0.50000
Br1A_2 Br 0.3235(11) -0.0651(10) 0.50000
N1A_2 N 0.44234(15) 0.27890(6) 0.00000
loop_
_geom_bond_atom_site_label_1
_geom_bond_atom_site_label_2
_geom_bond_site_symmetry_1
_geom_bond_site_symmetry_2
Cd1 Br1 1_555 1_555
Br1 Cd1_4 1_555 1_555
N1 Cd1 1_555 1_555
C1 N1 1_555 1_555
H1 N1 1_555 1_555
H2 C1 1_555 1_555
N1A C1A 1_555 1_555
C1A C1 1_555 1_555
H1A N1A 1_555 1_555
H2A C1A 1_555 1_555
H1D N1A 1_555 1_555
H2D C1A 1_555 1_555
H1E N1 1_555 1_555
H2E C1 1_555 1_555
Br1A Cd1 1_555 1_555
Cd1_2 N1A 1_555 1_555
Cd1_3 Br1A 1_555 1_555
Cd1_4 Br1A_2 1_555 1_555
Br1_2 Cd1 1_555 1_555
Br1A_2 Cd1 1_555 1_555
N1A_2 Cd1 1_555 1_555
Cd1_3 Br1_2 1_555 1_555

#END
