
#######################################################################
#
#                 Cambridge Crystallographic Data Centre
#                                CCDC 
#
#######################################################################
#
# If this CIF has been generated from an entry in the Cambridge 
# Structural Database, then it will include bibliographic, chemical, 
# crystal, experimental, refinement or atomic coordinate data resulting 
# from the CCDC's data processing and validation procedures.
#
#######################################################################

data_RIGMIF
_symmetry_cell_setting           orthorhombic
_symmetry_space_group_name_H-M   'P b a m'
_symmetry_Int_Tables_number      55
_space_group_name_Hall           '-P 2 2ab'
loop_
_symmetry_equiv_pos_site_id
_symmetry_equiv_pos_as_xyz
1 x,y,z
2 -x,-y,z
3 1/2-x,1/2+y,-z
4 1/2+x,1/2-y,-z
5 -x,-y,-z
6 x,y,-z
7 1/2+x,1/2-y,z
8 1/2-x,1/2+y,z
_cell_length_a                   9.9264(9)
_cell_length_b                   7.8271(5)
_cell_length_c                   4.0421(6)
_cell_angle_alpha                90
_cell_angle_beta                 90
_cell_angle_gamma                90
_cell_volume                     314.051
loop_
_atom_site_label
_atom_site_type_symbol
_atom_site_fract_x
_atom_site_fract_y
_atom_site_fract_z
Cd1 Cd 0.50000 0.00000 0.00000
Cl1 Cl 0.6726(15) -0.0688(16) 0.50000
C1 C 0.52791(17) -0.40735(8) 0.00000
N1 N 0.41977(13) -0.29381(4) 0.00000
H1 H 0.58141 -0.389499 0.194791
H2 H 0.370397 -0.311334 0.174559
C1A C 0.47209(17) -0.59265(8) 0.00000
N1A N 0.58023(13) -0.70619(4) 0.00000
H1A H 0.41859 -0.610501 0.194791
H2A H 0.629603 -0.688666 0.174559
H1D H 0.41859 -0.610501 -0.194791
H2D H 0.629603 -0.688666 -0.174559
H1E H 0.58141 -0.389499 -0.194791
H2E H 0.370397 -0.311334 -0.174559
Cl1A Cl 0.3274(15) 0.0688(16) -0.50000
Cd1_2 Cd 0.50000 -1.00000 0.00000
Cd1_3 Cd 0.50000 0.00000 -1.00000
Cd1_4 Cd 0.50000 0.00000 1.00000
Cl1_2 Cl 0.6726(15) -0.0688(16) -0.50000
Cl1A_2 Cl 0.3274(15) 0.0688(16) 0.50000
N1A_2 N 0.58023(13) 0.29381(4) 0.00000
loop_
_geom_bond_atom_site_label_1
_geom_bond_atom_site_label_2
_geom_bond_site_symmetry_1
_geom_bond_site_symmetry_2
Cd1 Cl1 1_555 1_555
Cl1 Cd1_4 1_555 1_555
C1 N1 1_555 1_555
N1 Cd1 1_555 1_555
H1 C1 1_555 1_555
H2 N1 1_555 1_555
C1A C1 1_555 1_555
N1A C1A 1_555 1_555
H1A C1A 1_555 1_555
H2A N1A 1_555 1_555
H1D C1A 1_555 1_555
H2D N1A 1_555 1_555
H1E C1 1_555 1_555
H2E N1 1_555 1_555
Cl1A Cd1 1_555 1_555
Cd1_2 N1A 1_555 1_555
Cd1_3 Cl1A 1_555 1_555
Cd1_4 Cl1A_2 1_555 1_555
Cl1_2 Cd1 1_555 1_555
Cl1A_2 Cd1 1_555 1_555
N1A_2 Cd1 1_555 1_555
Cd1_3 Cl1_2 1_555 1_555

#END
