
#######################################################################
#
#                 Cambridge Crystallographic Data Centre
#                                CCDC 
#
#######################################################################
#
# If this CIF has been generated from an entry in the Cambridge 
# Structural Database, then it will include bibliographic, chemical, 
# crystal, experimental, refinement or atomic coordinate data resulting 
# from the CCDC's data processing and validation procedures.
#
#######################################################################

data_RIGREG
_symmetry_cell_setting           triclinic
_symmetry_space_group_name_H-M   'P -1'
_symmetry_Int_Tables_number      2
_space_group_name_Hall           '-P 1'
loop_
_symmetry_equiv_pos_site_id
_symmetry_equiv_pos_as_xyz
1 x,y,z
2 -x,-y,-z
_cell_length_a                   9.5713(10)
_cell_length_b                   9.9024(10)
_cell_length_c                   12.3279(13)
_cell_angle_alpha                100.634(3)
_cell_angle_beta                 91.382(3)
_cell_angle_gamma                111.021(2)
_cell_volume                     1066.73
loop_
_atom_site_label
_atom_site_type_symbol
_atom_site_fract_x
_atom_site_fract_y
_atom_site_fract_z
Pr1 Pr 0.792197(11) 0.050553(12) 0.016255(9)
O1 O 0.99495(17) 0.29795(18) 0.09682(14)
C1 C 1.2635(2) 0.3960(2) 0.11408(18)
O2 O 0.7261(2) 0.10472(19) 0.22048(14)
C2 C 0.7812(3) -0.0083(3) 0.36571(19)
N1 N 1.6587(2) 0.5022(2) 0.24514(17)
N2 N 0.6601(3) 0.1153(3) 0.64299(18)
O3 O 0.91894(18) 0.14406(19) -0.14502(14)
H1 H 0.9595 0.2490 -0.1700
H2 H 0.9906 0.1032 -0.1678
O4 O 1.10942(17) 0.13817(17) 0.06971(13)
O5 O 0.6085(2) -0.0381(2) -0.16782(14)
H3 H 0.527(4) -0.059(4) -0.165(3)
H4 H 0.641(5) 0.019(5) -0.218(4)
O6 O 0.85936(18) -0.03742(19) 0.18333(13)
C3 C 1.3872(2) 0.3851(3) 0.17125(18)
H5 H 1.377(3) 0.307(3) 0.202(2)
C4 C 0.7247(3) 0.0721(3) 0.4471(2)
H6 H 0.693(3) 0.146(4) 0.425(2)
N3 N 0.6071(3) 0.2070(3) 0.62043(18)
N4 N 1.6337(2) 0.4200(2) 0.31303(18)
C5 C 1.5265(2) 0.5016(2) 0.18501(18)
C6 C 0.7170(3) 0.0412(3) 0.5538(2)
O7 O 0.9147(2) -0.3401(2) 0.45210(16)
N5 N 0.5531(3) 0.2892(3) 0.6111(2)
N6 N 1.6239(3) 0.3518(3) 0.3783(2)
O8 O 1.32120(18) 0.77003(18) -0.01676(14)
C7 C 0.7635(3) -0.0682(3) 0.5793(2)
H7 H 0.7582 -0.0875 0.6504
O9 O 0.8480(3) -0.2938(3) 0.62237(17)
H8 H 0.8682 -0.3661 0.6279
C8 C 1.5445(2) 0.6230(2) 0.13844(18)
H9 H 1.638(3) 0.695(3) 0.146(2)
O10 O 1.56862(17) 0.85669(18) 0.03483(14)
C9 C 0.8181(3) -0.1486(3) 0.4981(2)
C10 C 1.4199(2) 0.6320(2) 0.08109(17)
C11 C 1.2784(2) 0.5200(2) 0.07127(18)
H10 H 1.204(3) 0.529(3) 0.036(2)
C12 C 0.8281(3) -0.1176(3) 0.39118(19)
H11 H 0.863(3) -0.177(3) 0.336(2)
C13 C 0.8656(3) -0.2695(3) 0.5212(2)
C14 C 1.4382(2) 0.7621(2) 0.02891(18)
C15 C 1.1139(2) 0.2699(2) 0.09319(17)
C16 C 0.7895(2) 0.0236(3) 0.25007(19)
Pr1_2 Pr 1.792197(11) 1.050553(12) 0.016255(9)
Pr1A Pr 1.207803(11) -0.050553(12) -0.016255(9)
Pr1A_2 Pr 1.207803(11) 0.949447(12) -0.016255(9)
O4A O 0.89058(17) -0.13817(17) -0.06971(13)
O8A O 0.67880(18) 0.22997(18) 0.01676(14)
O10_2 O 0.56862(17) -0.14331(18) 0.03483(14)
O11 O 1.0354(2) 0.4348(2) -0.17358(18)
H12 H 1.1366 0.4581 -0.1925
H13 H 0.9976 0.5013 -0.1336
O12 O 0.8919(3) -0.5353(3) 0.6347(2)
H14 H 1.0126 -0.4829 0.6335
H15 H 1.0115 -0.4354 0.6502
loop_
_geom_bond_atom_site_label_1
_geom_bond_atom_site_label_2
_geom_bond_site_symmetry_1
_geom_bond_site_symmetry_2
Pr1 O1 1_555 1_555
O1 C15 1_555 1_555
C1 C3 1_555 1_555
O2 Pr1 1_555 1_555
C2 C4 1_555 1_555
N1 N4 1_555 1_555
N2 N3 1_555 1_555
O3 Pr1 1_555 1_555
H1 O3 1_555 1_555
H2 O3 1_555 1_555
O4 Pr1 1_555 1_555
O5 Pr1 1_555 1_555
H3 O5 1_555 1_555
H4 O5 1_555 1_555
O6 Pr1 1_555 1_555
C3 H5 1_555 1_555
C4 H6 1_555 1_555
N3 N5 1_555 1_555
N4 N6 1_555 1_555
C5 N1 1_555 1_555
C6 N2 1_555 1_555
O7 C13 1_555 1_555
O8 C14 1_555 1_555
C7 C6 1_555 1_555
H7 C7 1_555 1_555
O9 H8 1_555 1_555
C8 C5 1_555 1_555
H9 C8 1_555 1_555
O10 C14 1_555 1_555
C9 C7 1_555 1_555
C10 C8 1_555 1_555
C11 C1 1_555 1_555
H10 C11 1_555 1_555
C12 C2 1_555 1_555
H11 C12 1_555 1_555
C13 O9 1_555 1_555
C14 C10 1_555 1_555
C15 C1 1_555 1_555
C16 O2 1_555 1_555
O11 H12 1_555 1_555
H13 O11 1_555 1_555
O12 H14 1_555 1_555
H15 O12 1_555 1_555
Pr1_2 O10 1_555 1_555
Pr1A O4 1_555 1_555
Pr1A_2 O8 1_555 1_555
O4A Pr1 1_555 1_555
O8A Pr1 1_555 1_555
O10_2 Pr1 1_555 1_555
C2 C16 1_555 1_555
O4 C15 1_555 1_555
O6 C16 1_555 1_555
C3 C5 1_555 1_555
C4 C6 1_555 1_555
C9 C12 1_555 1_555
C9 C13 1_555 1_555
C10 C11 1_555 1_555
Pr1A O4A 1_555 1_555

#END
