
#######################################################################
#
#                 Cambridge Crystallographic Data Centre
#                                CCDC 
#
#######################################################################
#
# If this CIF has been generated from an entry in the Cambridge 
# Structural Database, then it will include bibliographic, chemical, 
# crystal, experimental, refinement or atomic coordinate data resulting 
# from the CCDC's data processing and validation procedures.
#
#######################################################################

data_RIGROP
_symmetry_cell_setting           triclinic
_symmetry_space_group_name_H-M   'P -1'
_symmetry_Int_Tables_number      2
_space_group_name_Hall           '-P 1'
loop_
_symmetry_equiv_pos_site_id
_symmetry_equiv_pos_as_xyz
1 x,y,z
2 -x,-y,-z
_cell_length_a                   9.9920(7)
_cell_length_b                   10.0882(7)
_cell_length_c                   11.1708(8)
_cell_angle_alpha                78.380(8)
_cell_angle_beta                 76.815(9)
_cell_angle_gamma                65.419(5)
_cell_volume                     989.746
loop_
_atom_site_label
_atom_site_type_symbol
_atom_site_fract_x
_atom_site_fract_y
_atom_site_fract_z
Mo1 Mo 0.77935(3) 0.61288(3) 0.79284(3)
Mo2 Mo 0.88214(3) 0.41297(3) 0.55817(3)
Mo3 Mo 0.73644(3) 0.77007(3) 0.46269(3)
Mo4 Mo 1.07708(3) 0.31763(3) 0.82081(3)
Cu1 Cu 0.63879(4) 1.17139(5) 0.54290(4)
O1 O 0.6347(3) 0.5844(3) 0.8909(2)
O2 O 0.7496(4) 0.7901(3) 0.7984(3)
O3 O 0.9513(3) 0.5148(3) 0.8652(2)
O4 O 0.8896(3) 0.3842(3) 0.7297(2)
O5 O 0.7276(3) 0.3837(3) 0.5533(2)
O6 O 0.7559(3) 0.6323(2) 0.6213(2)
O7 O 1.0337(3) 0.2564(3) 0.5070(2)
O8 O 0.8961(3) 0.5515(3) 0.4189(2)
O9 O 0.6673(3) 0.9306(3) 0.5254(2)
O10 O 0.5772(3) 0.7536(3) 0.4371(2)
O11 O 0.8197(3) 0.8207(3) 0.3041(2)
O12 O 1.0348(3) 0.2048(3) 0.9428(3)
N1 N 0.6697(3) 1.1186(3) 0.7192(3)
N2 N 0.8558(3) 1.0819(3) 0.5190(3)
N3 N 1.3167(3) 0.7618(3) 0.6371(3)
C1 C 0.5647(4) 1.1625(4) 0.8167(3)
H1 H 0.4651 1.2018 0.8065
C2 C 0.5985(5) 1.1519(5) 0.9330(4)
H2 H 0.5230 1.1804 1.0004
C3 C 0.7463(5) 1.0982(4) 0.9465(4)
H3 H 0.7717 1.0952 1.0224
C4 C 0.8576(4) 1.0483(4) 0.8457(3)
H4 H 0.9579 1.0107 0.8534
C5 C 0.8152(4) 1.0561(3) 0.7350(3)
C6 C 0.9201(4) 1.0125(4) 0.6188(3)
C7 C 1.0729(4) 0.9208(4) 0.5985(3)
C8 C 1.1688(4) 0.8103(4) 0.6846(3)
C9 C 1.1152(4) 0.7432(4) 0.7943(3)
H5 H 1.0135 0.7757 0.8244
C10 C 1.2172(4) 0.6257(4) 0.8587(3)
H6 H 1.1839 0.5787 0.9325
C11 C 1.3657(4) 0.5803(4) 0.8129(3)
H7 H 1.4349 0.5037 0.8560
C12 C 1.4123(4) 0.6499(4) 0.7008(3)
H8 H 1.5136 0.6175 0.6690
O13 O 1.2342(3) 0.3300(4) 0.8418(3)
Mo1A Mo 1.22065(3) 0.38712(3) 0.20716(3)
Mo2A Mo 1.11786(3) 0.58703(3) 0.44183(3)
Mo3A Mo 1.26356(3) 0.22993(3) 0.53731(3)
Mo3A_2 Mo 0.26356(3) 1.22993(3) 0.53731(3)
Mo4A Mo 0.92292(3) 0.68237(3) 0.17919(3)
Cu1A Cu 0.36121(4) 0.82861(5) 0.45710(4)
Cu1A_2 Cu 1.36121(4) 0.82861(5) 0.45710(4)
Cu1A_3 Cu 1.36121(4) -0.17139(5) 0.45710(4)
O1A O 1.3653(3) 0.4156(3) 0.1091(2)
O2A O 1.2504(4) 0.2099(3) 0.2016(3)
O3A O 1.0487(3) 0.4852(3) 0.1348(2)
O4A O 1.1104(3) 0.6158(3) 0.2703(2)
O5A O 1.2724(3) 0.6163(3) 0.4467(2)
O6A O 1.2441(3) 0.3677(2) 0.3787(2)
O7A O 0.9663(3) 0.7436(3) 0.4930(2)
O8A O 1.1039(3) 0.4485(3) 0.5811(2)
O9A O 1.3327(3) 0.0694(3) 0.4746(2)
O9A_2 O 0.3327(3) 1.0694(3) 0.4746(2)
O10A O 0.4228(3) 1.2464(3) 0.5629(2)
O10A_2 O 1.4228(3) 0.2464(3) 0.5629(2)
O11A O 1.1803(3) 0.1793(3) 0.6959(2)
O12A O 0.9652(3) 0.7952(3) 0.0572(3)
N1A N 1.3303(3) 0.8814(3) 0.2808(3)
N1A_2 N 0.3303(3) 0.8814(3) 0.2808(3)
N2A N 1.1442(3) 0.9181(3) 0.4810(3)
N2A_2 N 0.1442(3) 0.9181(3) 0.4810(3)
N3A N 0.6833(3) 1.2382(3) 0.3629(3)
N3_2 N 0.3167(3) 0.7618(3) 0.6371(3)
C1A C 1.4353(4) 0.8375(4) 0.1833(3)
H1A H 1.5349 0.7982 0.1935
C2A C 1.4015(5) 0.8481(5) 0.0670(4)
H2A H 1.4770 0.8196 -0.0004
C3A C 1.2537(5) 0.9018(4) 0.0535(4)
H3A H 1.2283 0.9048 -0.0224
C4A C 1.1424(4) 0.9517(4) 0.1543(3)
H4A H 1.0421 0.9893 0.1466
C5A C 1.1848(4) 0.9439(3) 0.2650(3)
C6A C 1.0799(4) 0.9875(4) 0.3812(3)
C7A C 0.9271(4) 1.0792(4) 0.4015(3)
C8A C 0.8312(4) 1.1897(4) 0.3154(3)
C9A C 0.8848(4) 1.2568(4) 0.2057(3)
H5A H 0.9865 1.2243 0.1756
C10A C 0.7828(4) 1.3743(4) 0.1413(3)
H6A H 0.8161 1.4213 0.0675
C11A C 0.6343(4) 1.4197(4) 0.1871(3)
H7A H 0.5651 1.4963 0.1440
C12A C 0.5877(4) 1.3501(4) 0.2992(3)
H8A H 0.4864 1.3825 0.3310
O13A O 0.7658(3) 0.6700(4) 0.1582(3)
loop_
_geom_bond_atom_site_label_1
_geom_bond_atom_site_label_2
_geom_bond_site_symmetry_1
_geom_bond_site_symmetry_2
Mo1 O1 1_555 1_555
Mo2 O4 1_555 1_555
Mo3 O6 1_555 1_555
Mo4 O3 1_555 1_555
Cu1 O9 1_555 1_555
O2 Mo1 1_555 1_555
O3 Mo1 1_555 1_555
O4 Mo1 1_555 1_555
O5 Mo2 1_555 1_555
O6 Mo1 1_555 1_555
O7 Mo2 1_555 1_555
O8 Mo2 1_555 1_555
O9 Mo3 1_555 1_555
O10 Mo3 1_555 1_555
O11 Mo3 1_555 1_555
O12 Mo4 1_555 1_555
N1 Cu1 1_555 1_555
N2 Cu1 1_555 1_555
N3 C8 1_555 1_555
C1 N1 1_555 1_555
H1 C1 1_555 1_555
C2 C1 1_555 1_555
H2 C2 1_555 1_555
C3 C2 1_555 1_555
H3 C3 1_555 1_555
C4 C3 1_555 1_555
H4 C4 1_555 1_555
C5 N1 1_555 1_555
C6 N2 1_555 1_555
C7 C6 1_555 1_555
C8 C7 1_555 1_555
C9 C8 1_555 1_555
H5 C9 1_555 1_555
C10 C9 1_555 1_555
H6 C10 1_555 1_555
C11 C10 1_555 1_555
H7 C11 1_555 1_555
C12 N3 1_555 1_555
H8 C12 1_555 1_555
O13 Mo4 1_555 1_555
Mo1A O1A 1_555 1_555
Mo2A O8 1_555 1_555
Mo3A O7 1_555 1_555
Mo3A_2 O9A_2 1_555 1_555
Mo4A O11 1_555 1_555
Cu1A O10 1_555 1_555
Cu1A_2 N3 1_555 1_555
Cu1A_3 O9A 1_555 1_555
O2A Mo1A 1_555 1_555
O3A Mo1A 1_555 1_555
O4A Mo1A 1_555 1_555
O5A Mo2A 1_555 1_555
O6A Mo1A 1_555 1_555
O7A Mo3 1_555 1_555
O8A Mo2 1_555 1_555
O9A Mo3A 1_555 1_555
O9A_2 Cu1A 1_555 1_555
O10A Cu1 1_555 1_555
O10A_2 Mo3A 1_555 1_555
O11A Mo4 1_555 1_555
O12A Mo4A 1_555 1_555
N1A Cu1A_2 1_555 1_555
N1A_2 Cu1A 1_555 1_555
N2A C7 1_555 1_555
N2A_2 Cu1A 1_555 1_555
N3A Cu1 1_555 1_555
N3_2 Cu1A 1_555 1_555
C1A N1A 1_555 1_555
H1A C1A 1_555 1_555
C2A C1A 1_555 1_555
H2A C2A 1_555 1_555
C3A C2A 1_555 1_555
H3A C3A 1_555 1_555
C4A C3A 1_555 1_555
H4A C4A 1_555 1_555
C5A N1A 1_555 1_555
C6A N2A 1_555 1_555
C7A N2 1_555 1_555
C8A N3A 1_555 1_555
C9A C8A 1_555 1_555
H5A C9A 1_555 1_555
C10A C9A 1_555 1_555
H6A C10A 1_555 1_555
C11A C10A 1_555 1_555
H7A C11A 1_555 1_555
C12A N3A 1_555 1_555
H8A C12A 1_555 1_555
O13A Mo4A 1_555 1_555
Mo2 O6 1_555 1_555
Mo3 O8 1_555 1_555
Mo4 O4 1_555 1_555
C4 C5 1_555 1_555
C5 C6 1_555 1_555
C11 C12 1_555 1_555
Mo2A O4A 1_555 1_555
Mo2A O6A 1_555 1_555
Mo2A O7A 1_555 1_555
Mo2A O8A 1_555 1_555
Mo3A O6A 1_555 1_555
Mo3A O8A 1_555 1_555
Mo3A O11A 1_555 1_555
Mo3A_2 O10A 1_555 1_555
Mo4A O3A 1_555 1_555
Mo4A O4A 1_555 1_555
Cu1A_2 N2A 1_555 1_555
C4A C5A 1_555 1_555
C5A C6A 1_555 1_555
C6A C7A 1_555 1_555
C7A C8A 1_555 1_555
C11A C12A 1_555 1_555

#END
