
#######################################################################
#
#                 Cambridge Crystallographic Data Centre
#                                CCDC 
#
#######################################################################
#
# If this CIF has been generated from an entry in the Cambridge 
# Structural Database, then it will include bibliographic, chemical, 
# crystal, experimental, refinement or atomic coordinate data resulting 
# from the CCDC's data processing and validation procedures.
#
#######################################################################

data_RIGTAD
_symmetry_cell_setting           orthorhombic
_symmetry_space_group_name_H-M   'P 21 21 21'
_symmetry_Int_Tables_number      19
_space_group_name_Hall           'P 2ac 2ab'
loop_
_symmetry_equiv_pos_site_id
_symmetry_equiv_pos_as_xyz
1 x,y,z
2 1/2-x,-y,1/2+z
3 -x,1/2+y,1/2-z
4 1/2+x,1/2-y,-z
_cell_length_a                   5.1575(11)
_cell_length_b                   17.430(2)
_cell_length_c                   35.147(4)
_cell_angle_alpha                90
_cell_angle_beta                 90
_cell_angle_gamma                90
_cell_volume                     3159.55
loop_
_atom_site_label
_atom_site_type_symbol
_atom_site_fract_x
_atom_site_fract_y
_atom_site_fract_z
Ca1 Ca 0.85026(15) 0.64157(4) 0.06135(2)
N1 N 1.6802(6) 0.46340(18) 0.13168(10)
H1 H 1.7678 0.4925 0.1149
N2 N 0.0086(6) 0.84341(17) 0.11043(9)
H2 H -0.0864 0.8062 0.0994
O1 O 1.0994(5) 0.56081(16) 0.09914(8)
O2 O 1.5023(6) 0.56391(15) 0.07629(8)
O3 O 1.9911(6) 0.36387(18) 0.11820(10)
O4 O 1.5574(6) 0.32834(17) 0.14181(10)
O5 O 0.5959(5) 0.73580(15) 0.09304(8)
O6 O 0.2036(5) 0.72545(15) 0.06731(8)
O7 O 0.1982(6) 0.91204(16) 0.05345(7)
O8 O -0.2625(5) 0.92264(17) 0.06999(8)
O9 O 0.6424(8) 0.69671(18) 0.00867(8)
H3 H 0.4981 0.7103 0.0182
H4 H 0.6140 0.6662 -0.0097
O10 O 1.0908(6) 0.57833(18) 0.01260(9)
H5 H 1.0654 0.5833 -0.0112
H6 H 1.2449 0.5779 0.0211
S1 S 1.7171(2) 0.37528(6) 0.11838(4)
S2 S 0.0025(2) 0.91630(6) 0.08220(3)
C1 C 1.3381(8) 0.5440(2) 0.10069(11)
C2 C 1.4202(8) 0.4970(2) 0.13530(11)
H7 H 1.2950 0.4553 0.1389
C3 C 1.4144(10) 0.5481(3) 0.17045(13)
H8 H 1.5502 0.5863 0.1681
H9 H 1.2499 0.5751 0.1710
C4 C 1.4492(10) 0.5064(3) 0.20805(13)
H10 H 1.6039 0.4740 0.2058
C5 C 1.2227(13) 0.4545(5) 0.21638(18)
H11 H 1.0701 0.4849 0.2205
H12 H 1.2586 0.4248 0.2388
H13 H 1.1949 0.4207 0.1952
C6 C 1.4963(17) 0.5625(4) 0.24014(17)
H14 H 1.3482 0.5954 0.2429
H15 H 1.6467 0.5929 0.2345
H16 H 1.5237 0.5348 0.2634
C7 C 1.6044(9) 0.3669(2) 0.07123(13)
C8 C 1.3987(9) 0.3197(2) 0.06278(15)
H17 H 1.3225 0.2899 0.0817
C9 C 1.3070(11) 0.3169(3) 0.02595(15)
H18 H 1.1670 0.2852 0.0205
C10 C 1.4153(9) 0.3596(3) -0.00300(14)
C11 C 1.6259(11) 0.4066(3) 0.00626(15)
H19 H 1.7040 0.4360 -0.0126
C12 C 1.7187(9) 0.4097(2) 0.04283(14)
H20 H 1.8597 0.4409 0.0485
C13 C 1.3128(12) 0.3565(3) -0.04291(15)
H21 H 1.1532 0.3282 -0.0433
H22 H 1.4372 0.3316 -0.0591
H23 H 1.2823 0.4077 -0.0519
C14 C 0.3589(8) 0.7525(2) 0.09079(11)
C15 C 0.2574(8) 0.8097(2) 0.12076(11)
H24 H 0.3851 0.8507 0.1241
C16 C 0.2253(10) 0.7668(3) 0.15842(13)
H25 H 0.0999 0.7259 0.1547
H26 H 0.3896 0.7430 0.1648
C17 C 0.1382(12) 0.8154(3) 0.19202(13)
H27 H -0.0259 0.8400 0.1850
C18 C 0.3295(13) 0.8783(4) 0.20161(17)
H28 H 0.3598 0.9093 0.1795
H29 H 0.4898 0.8558 0.2098
H30 H 0.2601 0.9097 0.2216
C19 C 0.0868(19) 0.7650(4) 0.22628(16)
H31 H 0.2438 0.7392 0.2335
H32 H -0.0435 0.7277 0.2200
H33 H 0.0275 0.7961 0.2471
C20 C 0.0724(8) 0.9945(2) 0.11172(12)
C21 C 0.2778(9) 1.0421(2) 0.10399(13)
H34 H 0.3907 1.0310 0.0841
C22 C 0.3151(11) 1.1071(2) 0.12623(13)
H35 H 0.4537 1.1395 0.1210
C23 C 0.1494(11) 1.1245(2) 0.15617(13)
C24 C -0.0499(11) 1.0745(3) 0.16340(14)
H36 H -0.1618 1.0846 0.1835
C25 C -0.0886(10) 1.0103(3) 0.14186(13)
H37 H -0.2244 0.9772 0.1476
C26 C 0.1876(14) 1.1967(3) 0.17961(16)
H38 H 0.1332 1.2405 0.1651
H39 H 0.3675 1.2019 0.1861
H40 H 0.0862 1.1933 0.2025
Ca1_2 Ca 1.85026(15) 0.64157(4) 0.06135(2)
Ca1_3 Ca -0.14974(15) 0.64157(4) 0.06135(2)
O2_2 O 0.5023(6) 0.56391(15) 0.07629(8)
O6_2 O 1.2036(5) 0.72545(15) 0.06731(8)
loop_
_geom_bond_atom_site_label_1
_geom_bond_atom_site_label_2
_geom_bond_site_symmetry_1
_geom_bond_site_symmetry_2
Ca1 O1 1_555 1_555
N1 H1 1_555 1_555
N2 H2 1_555 1_555
O1 C1 1_555 1_555
O2 C1 1_555 1_555
O3 S1 1_555 1_555
O4 S1 1_555 1_555
O5 Ca1 1_555 1_555
O6 C14 1_555 1_555
O7 S2 1_555 1_555
O8 S2 1_555 1_555
O9 Ca1 1_555 1_555
H3 O9 1_555 1_555
H4 O9 1_555 1_555
O10 Ca1 1_555 1_555
H5 O10 1_555 1_555
H6 O10 1_555 1_555
S1 N1 1_555 1_555
S2 N2 1_555 1_555
C1 C2 1_555 1_555
C2 N1 1_555 1_555
H7 C2 1_555 1_555
C3 C2 1_555 1_555
H8 C3 1_555 1_555
H9 C3 1_555 1_555
C4 C3 1_555 1_555
H10 C4 1_555 1_555
C5 C4 1_555 1_555
H11 C5 1_555 1_555
H12 C5 1_555 1_555
H13 C5 1_555 1_555
C6 C4 1_555 1_555
H14 C6 1_555 1_555
H15 C6 1_555 1_555
H16 C6 1_555 1_555
C7 S1 1_555 1_555
C8 C7 1_555 1_555
H17 C8 1_555 1_555
C9 C8 1_555 1_555
H18 C9 1_555 1_555
C10 C9 1_555 1_555
C11 C10 1_555 1_555
H19 C11 1_555 1_555
C12 C7 1_555 1_555
H20 C12 1_555 1_555
C13 C10 1_555 1_555
H21 C13 1_555 1_555
H22 C13 1_555 1_555
H23 C13 1_555 1_555
C14 O5 1_555 1_555
C15 N2 1_555 1_555
H24 C15 1_555 1_555
C16 C15 1_555 1_555
H25 C16 1_555 1_555
H26 C16 1_555 1_555
C17 C16 1_555 1_555
H27 C17 1_555 1_555
C18 C17 1_555 1_555
H28 C18 1_555 1_555
H29 C18 1_555 1_555
H30 C18 1_555 1_555
C19 C17 1_555 1_555
H31 C19 1_555 1_555
H32 C19 1_555 1_555
H33 C19 1_555 1_555
C20 S2 1_555 1_555
C21 C20 1_555 1_555
H34 C21 1_555 1_555
C22 C21 1_555 1_555
H35 C22 1_555 1_555
C23 C22 1_555 1_555
C24 C23 1_555 1_555
H36 C24 1_555 1_555
C25 C20 1_555 1_555
H37 C25 1_555 1_555
C26 C23 1_555 1_555
H38 C26 1_555 1_555
H39 C26 1_555 1_555
H40 C26 1_555 1_555
Ca1_2 O2 1_555 1_555
Ca1_3 O6 1_555 1_555
O2_2 Ca1 1_555 1_555
O6_2 Ca1 1_555 1_555
C11 C12 1_555 1_555
C14 C15 1_555 1_555
C24 C25 1_555 1_555

#END
