
#######################################################################
#
#                 Cambridge Crystallographic Data Centre
#                                CCDC 
#
#######################################################################
#
# If this CIF has been generated from an entry in the Cambridge 
# Structural Database, then it will include bibliographic, chemical, 
# crystal, experimental, refinement or atomic coordinate data resulting 
# from the CCDC's data processing and validation procedures.
#
#######################################################################

data_RIHCAO
_symmetry_cell_setting           monoclinic
_symmetry_space_group_name_H-M   'P 21'
_symmetry_Int_Tables_number      4
_space_group_name_Hall           'P 2yb'
loop_
_symmetry_equiv_pos_site_id
_symmetry_equiv_pos_as_xyz
1 x,y,z
2 -x,1/2+y,-z
_cell_length_a                   6.2251(10)
_cell_length_b                   7.3733(13)
_cell_length_c                   19.833(5)
_cell_angle_alpha                90
_cell_angle_beta                 96.299(17)
_cell_angle_gamma                90
_cell_volume                     904.83
loop_
_atom_site_label
_atom_site_type_symbol
_atom_site_fract_x
_atom_site_fract_y
_atom_site_fract_z
Na1 Na 1.0043(5) 0.5391(4) -0.00445(17)
S1 S 0.3031(2) 0.2877(3) 0.81056(8)
O1 O 0.2781(7) 0.4833(6) 0.8178(2)
O2 O 0.4691(6) 0.2158(6) 0.8620(2)
O3 O 0.8929(5) 0.2833(7) -0.07622(19)
H1 H 0.949(7) 0.244(8) -0.1118(19)
H2 H 0.760(4) 0.254(9) -0.087(2)
O4 O 0.1016(6) 0.1896(6) 0.8092(2)
O5 O 0.6749(6) 0.4841(7) 0.0379(3)
H3 H 0.633(9) 0.537(9) 0.0738(18)
H4 H 0.565(7) 0.503(10) 0.009(2)
O6 O 1.3282(7) 0.6092(6) -0.0495(3)
H5 H 1.337(10) 0.564(6) -0.0893(16)
H6 H 1.344(10) 0.722(3) -0.055(3)
N1 N 0.6033(8) 0.2032(7) 0.5370(3)
N2 N 0.7893(7) 0.2634(8) 0.5316(2)
N3 N 1.0970(8) 0.2327(8) 0.2762(3)
N4 N 1.1484(7) 0.2922(9) 0.0823(3)
C1 C 0.3960(8) 0.2536(8) 0.7310(3)
C2 C 0.2702(9) 0.1726(8) 0.6785(3)
H7 H 0.1311 0.1283 0.6856
C3 C 0.3417(9) 0.1542(8) 0.6154(3)
H8 H 0.2557 0.0935 0.5798
C4 C 0.5448(9) 0.2271(9) 0.6048(3)
C5 C 0.6707(8) 0.3114(10) 0.6572(3)
H9 H 0.8070 0.3606 0.6496
C6 C 0.5998(8) 0.3249(8) 0.7208(3)
H10 H 0.6875 0.3815 0.7570
C7 C 0.8535(9) 0.2457(8) 0.4650(3)
C8 C 1.0585(8) 0.3162(9) 0.4579(3)
H11 H 1.1426 0.3667 0.4962
C9 C 1.1399(8) 0.3132(9) 0.3962(3)
H12 H 1.2793 0.3618 0.3924
C10 C 1.0208(9) 0.2403(9) 0.3399(3)
C11 C 0.8144(9) 0.1659(8) 0.3468(3)
H13 H 0.7320 0.1125 0.3087
C12 C 0.7336(10) 0.1710(8) 0.4084(3)
H14 H 0.5940 0.1230 0.4124
C13 C 1.2585(9) 0.3642(10) 0.2588(3)
H15 H 1.3664 0.3823 0.2988
H16 H 1.1864 0.4820 0.2482
C14 C 1.3731(9) 0.3073(12) 0.1999(3)
H17 H 1.4930 0.3935 0.1958
H18 H 1.4383 0.1866 0.2101
C15 C 1.2427(8) 0.2971(11) 0.1344(3)
H19 H 1.009(10) 0.206(10) 0.244(3)
Na1A Na 0.9957(5) 0.0391(4) 0.00445(17)
O3A O 1.1071(5) 0.7833(7) 0.07622(19)
N4A N 0.8516(7) 0.7922(9) -0.0823(3)
loop_
_geom_bond_atom_site_label_1
_geom_bond_atom_site_label_2
_geom_bond_site_symmetry_1
_geom_bond_site_symmetry_2
Na1 O3 1_555 1_555
S1 O1 1_555 1_555
O2 S1 1_555 1_555
O3 H1 1_555 1_555
H2 O3 1_555 1_555
O4 S1 1_555 1_555
O5 Na1 1_555 1_555
H3 O5 1_555 1_555
H4 O5 1_555 1_555
O6 Na1 1_555 1_555
H5 O6 1_555 1_555
H6 O6 1_555 1_555
N1 N2 1_555 1_555
N2 C7 1_555 1_555
N3 C10 1_555 1_555
N4 Na1 1_555 1_555
C1 S1 1_555 1_555
C2 C1 1_555 1_555
H7 C2 1_555 1_555
C3 C2 1_555 1_555
H8 C3 1_555 1_555
C4 N1 1_555 1_555
C5 C4 1_555 1_555
H9 C5 1_555 1_555
C6 C1 1_555 1_555
H10 C6 1_555 1_555
C7 C8 1_555 1_555
C8 H11 1_555 1_555
C9 C8 1_555 1_555
H12 C9 1_555 1_555
C10 C9 1_555 1_555
C11 C10 1_555 1_555
H13 C11 1_555 1_555
C12 C7 1_555 1_555
H14 C12 1_555 1_555
C13 N3 1_555 1_555
H15 C13 1_555 1_555
H16 C13 1_555 1_555
C14 C13 1_555 1_555
H17 C14 1_555 1_555
H18 C14 1_555 1_555
C15 N4 1_555 1_555
H19 N3 1_555 1_555
Na1A O3 1_555 1_555
O3A Na1 1_555 1_555
N4A Na1 1_555 1_555
N4 Na1A 1_555 1_555
C3 C4 1_555 1_555
C5 C6 1_555 1_555
C11 C12 1_555 1_555
C14 C15 1_555 1_555

#END
