
#######################################################################
#
#                 Cambridge Crystallographic Data Centre
#                                CCDC 
#
#######################################################################
#
# If this CIF has been generated from an entry in the Cambridge 
# Structural Database, then it will include bibliographic, chemical, 
# crystal, experimental, refinement or atomic coordinate data resulting 
# from the CCDC's data processing and validation procedures.
#
#######################################################################

data_RIHGUL
_symmetry_cell_setting           triclinic
_symmetry_space_group_name_H-M   'P -1'
_symmetry_Int_Tables_number      2
_space_group_name_Hall           '-P 1'
loop_
_symmetry_equiv_pos_site_id
_symmetry_equiv_pos_as_xyz
1 x,y,z
2 -x,-y,-z
_cell_length_a                   8.979(3)
_cell_length_b                   13.611(5)
_cell_length_c                   16.355(5)
_cell_angle_alpha                111.57(1)
_cell_angle_beta                 92.37(1)
_cell_angle_gamma                101.07(1)
_cell_volume                     1810.46
loop_
_atom_site_label
_atom_site_type_symbol
_atom_site_fract_x
_atom_site_fract_y
_atom_site_fract_z
Hg1 Hg 1.082490(16) 0.484487(11) 0.118425(10)
Cl1 Cl 0.89857(12) 0.58163(8) 0.08700(7)
Cl2 Cl 1.25467(12) 0.36604(9) 0.11609(8)
S1 S 0.48545(13) 0.10143(10) 0.16976(9)
S2 S -0.31592(12) -0.11455(9) 0.10010(8)
S3 S -0.0764(2) 0.26053(14) 0.42299(9)
C1 C 0.0574(5) 0.1063(4) 0.3151(3)
C2 C -0.0791(6) 0.3184(4) 0.5374(3)
C3 C 0.2720(7) 0.2606(4) 0.3247(4)
H1 H 0.2444 0.2890 0.3836
H2 H 0.3766 0.2544 0.3276
H3 H 0.2599 0.3087 0.2954
N1 N 0.8698(4) 0.3392(3) 0.1262(3)
C4 C 0.1704(5) 0.1510(4) 0.2739(3)
N2 N -0.7045(4) -0.3737(3) 0.1144(2)
N3 N -0.0946(5) 0.4187(3) 0.7182(3)
C5 C 0.7251(5) 0.3335(4) 0.0994(3)
H4 H 0.7056 0.3806 0.0732
C6 C 0.0905(4) -0.0100(3) 0.1380(3)
C7 C 0.1873(5) 0.0915(3) 0.1856(3)
C8 C 0.8957(5) 0.2699(4) 0.1632(3)
H5 H 0.9963 0.2721 0.1812
C9 C -0.0272(5) -0.0496(3) 0.1795(3)
C10 C 0.1081(5) -0.0764(4) 0.0435(3)
H6 H 0.1928 -0.0384 0.0249
H7 H 0.1264 -0.1450 0.0396
H8 H 0.0163 -0.0878 0.0058
C11 C -0.4619(5) -0.2178(3) 0.1038(3)
C12 C -0.1434(5) -0.1536(4) 0.1270(3)
H9 H -0.1052 -0.1949 0.0733
H10 H -0.1644 -0.1978 0.1619
C13 C 0.7812(5) 0.1962(4) 0.1758(3)
H11 H 0.8041 0.1501 0.2022
C14 C -0.0078(6) 0.2888(4) 0.5986(3)
H12 H 0.0472 0.2347 0.5800
C15 C 0.0482(6) 0.1663(4) 0.4124(3)
H13 H 0.0075 0.1152 0.4389
H14 H 0.1494 0.2056 0.4429
C16 C 0.6295(5) 0.1915(3) 0.1482(3)
C17 C 0.3111(5) 0.1390(4) 0.1435(3)
H15 H 0.2839 0.1110 0.0798
H16 H 0.3259 0.2173 0.1664
C18 C -0.0419(5) 0.0069(4) 0.2673(3)
C19 C -0.6037(5) -0.1946(4) 0.1231(3)
H17 H -0.6196 -0.1257 0.1335
C20 C -0.4460(5) -0.3215(4) 0.0886(3)
H18 H -0.3539 -0.3411 0.0743
C21 C -0.7190(5) -0.2737(4) 0.1267(3)
H19 H -0.8136 -0.2569 0.1383
C22 C -0.0190(6) 0.3398(4) 0.6866(3)
H20 H 0.0287 0.3184 0.7268
C23 C -0.1656(6) -0.0385(5) 0.3126(4)
H21 H -0.2249 -0.1067 0.2712
H22 H -0.1191 -0.0489 0.3619
H23 H -0.2311 0.0113 0.3334
C24 C -0.5680(5) -0.3956(4) 0.0948(3)
H24 H -0.5551 -0.4651 0.0848
C25 C 0.6039(5) 0.2620(4) 0.1085(3)
H25 H 0.5050 0.2605 0.0881
C26 C -0.1578(10) 0.3993(7) 0.5703(4)
H26 H -0.2063 0.4227 0.5318
C27 C -0.1650(8) 0.4452(5) 0.6591(4)
H27 H -0.2222 0.4978 0.6792
Hg1_2 Hg -0.917510(16) -0.515513(11) 0.118425(10)
Hg1A Hg -0.082490(16) 0.515513(11) 0.881575(10)
N2_2 N 1.2955(4) 0.6263(3) 0.1144(2)
N3A N 1.0946(5) 0.5813(3) 0.2818(3)
N4 N 0.6231(7) 0.5389(5) 0.3521(4)
C28 C 0.6023(10) 0.5657(8) 0.2779(6)
H28 H 0.5595 0.6287 0.2941
H29 H 0.5341 0.5061 0.2319
H30 H 0.6991 0.5805 0.2570
C29 C 0.6838(15) 0.4456(8) 0.3415(7)
H31 H 0.6906 0.4364 0.3969
H32 H 0.7838 0.4554 0.3230
H33 H 0.6178 0.3825 0.2976
C32 C 0.5976(17) 0.5997(11) 0.4296(8)
O2 O 0.562(2) 0.5528(15) 0.4872(13)
N5 N 0.6372(9) 0.9716(7) 0.5784(5)
C30 C 0.4937(13) 0.8966(11) 0.5702(9)
H34 H 0.4775 0.8378 0.5134
H35 H 0.4115 0.9336 0.5757
H36 H 0.4971 0.8687 0.6161
C31 C 0.679(2) 1.0661(12) 0.6604(9)
H37 H 0.7761 1.1093 0.6587
H38 H 0.6864 1.0435 0.7092
H39 H 0.6027 1.1082 0.6677
O3 O 0.8629(13) 1.0134(9) 0.5255(7)
C33 C 0.7264(13) 0.9517(11) 0.5151(7)
O1? O 0.6078(14) 0.7003(11) 0.4503(8)
O4? O 0.660(2) 0.8414(17) 0.4362(14)
loop_
_geom_bond_atom_site_label_1
_geom_bond_atom_site_label_2
_geom_bond_site_symmetry_1
_geom_bond_site_symmetry_2
Hg1 Cl1 1_555 1_555
Cl2 Hg1 1_555 1_555
S1 C16 1_555 1_555
S2 C11 1_555 1_555
S3 C2 1_555 1_555
C1 C4 1_555 1_555
C2 C14 1_555 1_555
C3 H1 1_555 1_555
H2 C3 1_555 1_555
H3 C3 1_555 1_555
N1 Hg1 1_555 1_555
C4 C3 1_555 1_555
N2 C21 1_555 1_555
N3 C22 1_555 1_555
C5 N1 1_555 1_555
H4 C5 1_555 1_555
C6 C7 1_555 1_555
C7 C4 1_555 1_555
C8 N1 1_555 1_555
H5 C8 1_555 1_555
C9 C6 1_555 1_555
C10 C6 1_555 1_555
H6 C10 1_555 1_555
H7 C10 1_555 1_555
H8 C10 1_555 1_555
C11 C19 1_555 1_555
C12 S2 1_555 1_555
H9 C12 1_555 1_555
H10 C12 1_555 1_555
C13 C8 1_555 1_555
H11 C13 1_555 1_555
C14 H12 1_555 1_555
C15 S3 1_555 1_555
H13 C15 1_555 1_555
H14 C15 1_555 1_555
C16 C13 1_555 1_555
C17 S1 1_555 1_555
H15 C17 1_555 1_555
H16 C17 1_555 1_555
C18 C1 1_555 1_555
C19 H17 1_555 1_555
C20 C11 1_555 1_555
H18 C20 1_555 1_555
C21 C19 1_555 1_555
H19 C21 1_555 1_555
C22 C14 1_555 1_555
H20 C22 1_555 1_555
C23 C18 1_555 1_555
H21 C23 1_555 1_555
H22 C23 1_555 1_555
H23 C23 1_555 1_555
C24 N2 1_555 1_555
H24 C24 1_555 1_555
C25 C5 1_555 1_555
H25 C25 1_555 1_555
C26 C2 1_555 1_555
H26 C26 1_555 1_555
C27 N3 1_555 1_555
H27 C27 1_555 1_555
N4 C28 1_555 1_555
N5 C30 1_555 1_555
C28 H28 1_555 1_555
H29 C28 1_555 1_555
H30 C28 1_555 1_555
C29 N4 1_555 1_555
H31 C29 1_555 1_555
H32 C29 1_555 1_555
H33 C29 1_555 1_555
C30 H34 1_555 1_555
H35 C30 1_555 1_555
H36 C30 1_555 1_555
C31 N5 1_555 1_555
H37 C31 1_555 1_555
H38 C31 1_555 1_555
H39 C31 1_555 1_555
C32 N4 1_555 1_555
O2 C32 1_555 1_555
O3 C33 1_555 1_555
C33 N5 1_555 1_555
Hg1_2 N2 1_555 1_555
Hg1A N3 1_555 1_555
N2_2 Hg1 1_555 1_555
N3A Hg1 1_555 1_555
C1 C15 1_555 1_555
C7 C17 1_555 1_555
C9 C12 1_555 1_555
C9 C18 1_555 1_555
C16 C25 1_555 1_555
C20 C24 1_555 1_555
C26 C27 1_555 1_555

#END
