
#######################################################################
#
#                 Cambridge Crystallographic Data Centre
#                                CCDC 
#
#######################################################################
#
# If this CIF has been generated from an entry in the Cambridge 
# Structural Database, then it will include bibliographic, chemical, 
# crystal, experimental, refinement or atomic coordinate data resulting 
# from the CCDC's data processing and validation procedures.
#
#######################################################################

data_RIHHAS
_symmetry_cell_setting           monoclinic
_symmetry_space_group_name_H-M   'P 21/n'
_symmetry_Int_Tables_number      14
_space_group_name_Hall           '-P 2yn'
loop_
_symmetry_equiv_pos_site_id
_symmetry_equiv_pos_as_xyz
1 x,y,z
2 1/2-x,1/2+y,1/2-z
3 -x,-y,-z
4 1/2+x,1/2-y,1/2+z
_cell_length_a                   17.697(10)
_cell_length_b                   9.224(5)
_cell_length_c                   21.933(12)
_cell_angle_alpha                90
_cell_angle_beta                 112.50(1)
_cell_angle_gamma                90
_cell_volume                     3307.75
loop_
_atom_site_label
_atom_site_type_symbol
_atom_site_fract_x
_atom_site_fract_y
_atom_site_fract_z
Hg1 Hg -1.30955(7) 0.62972(14) 0.63749(6)
Br1 Br -1.36601(19) 0.5640(4) 0.51734(15)
Br2 Br -1.2665(2) 0.8477(4) 0.7092(2)
S1 S -1.5831(5) 0.3034(10) 0.7459(4)
S2 S -1.9273(4) 0.3167(9) 0.7256(4)
S3 S -1.6808(6) -0.1501(9) 0.9087(4)
N1 N -1.4017(14) 0.527(3) 0.6761(12)
N2 N -2.1797(15) 0.514(3) 0.6690(13)
C2 C -1.867(2) 0.395(4) 0.8049(16)
H1 H -1.8603 0.4987 0.8001
H2 H -1.8937 0.3813 0.8354
C3 C -1.6291(19) 0.198(3) 0.8814(13)
C4 C -1.6419(16) 0.320(3) 0.8423(14)
C5 C -1.7820(15) 0.322(3) 0.8321(14)
C6 C -2.0236(17) 0.384(3) 0.7045(15)
C7 C -1.670(2) -0.256(4) 1.0313(16)
H3 H -1.6872 -0.1658 1.0395
C8 C -1.5752(16) 0.383(3) 0.8229(14)
H4 H -1.5220 0.3614 0.8567
H5 H -1.5812 0.4870 0.8184
C9 C -1.4071(16) 0.557(4) 0.7337(14)
H6 H -1.3712 0.6271 0.7594
C10 C -1.6543(18) -0.368(4) 1.0751(17)
H7 H -1.6621 -0.3507 1.1141
C11 C -1.5437(18) 0.131(4) 0.9117(17)
H8 H -1.5073 0.1837 0.8966
H9 H -1.5459 0.0317 0.8986
H10 H -1.5242 0.1373 0.9589
C12 C -2.0410(16) 0.497(3) 0.7477(14)
H11 H -2.0007 0.5273 0.7872
N3 N -1.629(2) -0.500(4) 1.0666(14)
C13 C -1.638(4) -0.422(6) 0.960(2)
H12 H -1.6353 -0.4441 0.9192
C14 C -2.1626(18) 0.413(3) 0.6327(14)
H13 H -2.2042 0.3821 0.5941
C15 C -2.1177(17) 0.551(3) 0.7262(14)
H14 H -2.1289 0.6195 0.7528
C16 C -1.624(3) -0.518(4) 1.0078(18)
H15 H -1.6089 -0.6096 0.9995
C17 C -1.7350(19) 0.511(4) 0.7699(14)
H16 H -1.6871 0.5309 0.7607
H17 H -1.7457 0.5908 0.7933
H18 H -1.7809 0.4963 0.7291
C19 C -2.0856(17) 0.352(4) 0.6498(15)
H22 H -2.0775 0.2859 0.6210
C20 C -1.8368(18) 0.136(4) 0.8869(17)
H23 H -1.8181 0.0521 0.9145
H24 H -1.8805 0.1087 0.8465
H25 H -1.8561 0.2073 0.9093
C22 C -1.7215(15) 0.381(3) 0.8098(12)
C23 C -1.6960(19) 0.144(4) 0.8940(15)
C24 C -1.5110(16) 0.397(3) 0.7215(13)
C25 C -1.4570(16) 0.499(3) 0.7592(13)
H29 H -1.4556 0.5269 0.8005
C26 C -1.5104(17) 0.350(3) 0.6603(13)
H30 H -1.5432 0.2744 0.6365
C27 C -1.6586(16) -0.285(3) 0.9760(13)
C28 C -1.6731(17) 0.027(3) 0.9500(13)
H31 H -1.7106 0.0308 0.9726
H32 H -1.6180 0.0421 0.9819
C29 C -1.7686(16) 0.197(3) 0.8720(13)
C30 C -1.4581(17) 0.423(3) 0.6383(14)
H33 H -1.4603 0.4033 0.5961
Hg1_2 Hg -2.30955(7) 0.62972(14) 0.63749(6)
N2_2 N -1.1797(15) 0.514(3) 0.6690(13)
C1 C -0.882(2) 0.512(4) 0.9683(16)
O1 O -0.9190(19) 0.546(3) 0.9112(13)
C18 C -0.857(3) 0.360(5) 1.0627(19)
H19 H -0.8113 0.4214 1.0855
H20 H -0.8379 0.2635 1.0598
H21 H -0.8927 0.3567 1.0865
C21 C -0.976(3) 0.323(6) 0.960(2)
H26 H -1.0024 0.3673 0.9179
H27 H -1.0124 0.3215 0.9832
H28 H -0.9600 0.2260 0.9551
N4 N -0.8986(17) 0.412(3) 1.0010(14)
loop_
_geom_bond_atom_site_label_1
_geom_bond_atom_site_label_2
_geom_bond_site_symmetry_1
_geom_bond_site_symmetry_2
Hg1 Br1 1_555 1_555
Br2 Hg1 1_555 1_555
S1 C8 1_555 1_555
S2 C2 1_555 1_555
S3 C27 1_555 1_555
N1 Hg1 1_555 1_555
N2 C14 1_555 1_555
C1 O1 1_555 1_555
C2 H1 1_555 1_555
H2 C2 1_555 1_555
C3 C4 1_555 1_555
C4 C8 1_555 1_555
C5 C2 1_555 1_555
C6 S2 1_555 1_555
C7 H3 1_555 1_555
C8 H4 1_555 1_555
H5 C8 1_555 1_555
C9 N1 1_555 1_555
H6 C9 1_555 1_555
C10 C7 1_555 1_555
H7 C10 1_555 1_555
C11 C3 1_555 1_555
H8 C11 1_555 1_555
H9 C11 1_555 1_555
H10 C11 1_555 1_555
C12 C6 1_555 1_555
H11 C12 1_555 1_555
N3 C10 1_555 1_555
C13 H12 1_555 1_555
C14 H13 1_555 1_555
C15 N2 1_555 1_555
H14 C15 1_555 1_555
C16 N3 1_555 1_555
H15 C16 1_555 1_555
C17 H16 1_555 1_555
H17 C17 1_555 1_555
H18 C17 1_555 1_555
C18 H19 1_555 1_555
H20 C18 1_555 1_555
H21 C18 1_555 1_555
C19 C6 1_555 1_555
H22 C19 1_555 1_555
C20 H23 1_555 1_555
H24 C20 1_555 1_555
H25 C20 1_555 1_555
C21 H26 1_555 1_555
H27 C21 1_555 1_555
H28 C21 1_555 1_555
C22 C4 1_555 1_555
C23 C3 1_555 1_555
C24 S1 1_555 1_555
C25 C9 1_555 1_555
H29 C25 1_555 1_555
N4 C1 1_555 1_555
C26 C24 1_555 1_555
H30 C26 1_555 1_555
C27 C7 1_555 1_555
C28 S3 1_555 1_555
H31 C28 1_555 1_555
H32 C28 1_555 1_555
C29 C5 1_555 1_555
C30 N1 1_555 1_555
H33 C30 1_555 1_555
Hg1_2 N2 1_555 1_555
N2_2 Hg1 1_555 1_555
C5 C22 1_555 1_555
C12 C15 1_555 1_555
C13 C16 1_555 1_555
C13 C27 1_555 1_555
C14 C19 1_555 1_555
C17 C22 1_555 1_555
C18 N4 1_555 1_555
C20 C29 1_555 1_555
C21 N4 1_555 1_555
C23 C28 1_555 1_555
C23 C29 1_555 1_555
C24 C25 1_555 1_555
C26 C30 1_555 1_555

#END
