
#######################################################################
#
#                 Cambridge Crystallographic Data Centre
#                                CCDC 
#
#######################################################################
#
# If this CIF has been generated from an entry in the Cambridge 
# Structural Database, then it will include bibliographic, chemical, 
# crystal, experimental, refinement or atomic coordinate data resulting 
# from the CCDC's data processing and validation procedures.
#
#######################################################################

data_RIHJUP
_symmetry_cell_setting           triclinic
_symmetry_space_group_name_H-M   'P -1'
_symmetry_Int_Tables_number      2
_space_group_name_Hall           '-P 1'
loop_
_symmetry_equiv_pos_site_id
_symmetry_equiv_pos_as_xyz
1 x,y,z
2 -x,-y,-z
_cell_length_a                   8.0467(19)
_cell_length_b                   12.063(4)
_cell_length_c                   13.016(4)
_cell_angle_alpha                86.066(12)
_cell_angle_beta                 72.390(10)
_cell_angle_gamma                79.253(11)
_cell_volume                     1183
loop_
_atom_site_label
_atom_site_type_symbol
_atom_site_fract_x
_atom_site_fract_y
_atom_site_fract_z
Zn1 Zn 0.14622(7) 0.42186(5) 0.52793(4)
S1 S -0.7573(2) 0.13031(13) 0.92178(11)
C1 C -0.2111(6) 0.3853(4) 0.6315(4)
C2 C 0.3589(5) 0.2980(3) 0.5157(3)
O1 O -0.2706(5) 0.4644(3) 0.5765(3)
O2 O -1.1265(5) 0.4816(3) 1.3435(3)
O3 O -0.0517(5) 0.3500(3) 0.6237(3)
O4 O -0.9085(5) 0.3713(4) 1.3946(3)
C3 C 0.8379(6) 0.0667(4) 0.5014(4)
C4 C 0.6683(6) 0.1421(4) 0.5030(4)
C5 C -0.5282(7) 0.3649(5) 0.7249(4)
H1 H -0.5650 0.4307 0.6888
C6 C 0.6695(7) 0.2408(5) 0.4435(5)
H2 H 0.7772 0.2570 0.3971
C7 C 0.5031(6) 0.1218(4) 0.5684(4)
H3 H 0.4935 0.0548 0.6095
C8 C -0.3476(6) 0.3269(4) 0.7103(4)
C9 C -0.8378(7) 0.2041(5) 1.0450(4)
O5 O -0.6674(6) 0.0196(4) 0.9402(4)
C10 C -0.7925(7) 0.2491(5) 1.2080(4)
H4 H -0.7261 0.2366 1.2572
C11 C -0.5972(7) 0.2090(5) 0.8445(4)
C12 C -0.4192(7) 0.1733(5) 0.8355(5)
H5 H -0.3837 0.1093 0.8743
C13 C -0.9450(6) 0.3314(5) 1.2300(4)
C14 C -0.9979(7) 0.4000(5) 1.3292(4)
C15 C -0.6526(7) 0.3073(5) 0.7916(4)
H6 H -0.7739 0.3337 0.8016
C16 C -0.2949(7) 0.2315(5) 0.7698(5)
H7 H -0.1745 0.2078 0.7643
C17 C 0.5156(7) 0.3160(5) 0.4510(5)
H8 H 0.5209 0.3826 0.4091
O6 O -0.8986(6) 0.1438(4) 0.8720(3)
C18 C 0.3548(6) 0.2016(4) 0.5715(5)
H9 H 0.2446 0.1870 0.6155
C19 C -0.7367(7) 0.1857(5) 1.1157(5)
H10 H -0.6326 0.1314 1.1011
C20 C -1.0451(8) 0.3469(6) 1.1583(5)
H11 H -1.1497 0.4009 1.1728
C21 C -0.9914(8) 0.2832(6) 1.0654(5)
H12 H -1.0590 0.2938 1.0168
C22 C 0.9817(9) 0.0639(7) 0.4125(7)
H13 H 0.9715 0.1059 0.3505
C23 C 1.1434(9) -0.0008(7) 0.4133(7)
H14 H 1.2425 0.0013 0.3527
C2A C 1.6411(5) -0.2980(3) 0.4843(3)
C3A C 1.1621(6) -0.0667(4) 0.4986(4)
C4A C 1.3317(6) -0.1421(4) 0.4970(4)
C6A C 1.3305(7) -0.2408(5) 0.5565(5)
H2A H 1.2228 -0.2570 0.6029
C7A C 1.4969(6) -0.1218(4) 0.4316(4)
H3A H 1.5065 -0.0548 0.3905
C17A C 1.4844(7) -0.3160(5) 0.5490(5)
H8A H 1.4791 -0.3826 0.5909
C18A C 1.6452(6) -0.2016(4) 0.4285(5)
H9A H 1.7554 -0.1870 0.3845
C22A C 1.0183(9) -0.0639(7) 0.5875(7)
H13A H 1.0285 -0.1059 0.6495
C23A C 0.8566(9) 0.0008(7) 0.5867(7)
H14A H 0.7575 -0.0013 0.6473
Zn1A Zn -1.14622(7) 0.57814(5) 1.47207(4)
S1A S -0.2427(2) 0.86969(13) 1.07822(11)
C1A C -0.7889(6) 0.6147(4) 1.3685(4)
O1A O -0.7294(5) 0.5356(3) 1.4235(3)
O2A O 0.1265(5) 0.5184(3) 0.6565(3)
O3A O -0.9483(5) 0.6500(3) 1.3763(3)
O4A O -0.0915(5) 0.6287(4) 0.6054(3)
C5A C -0.4718(7) 0.6351(5) 1.2751(4)
H1A H -0.4350 0.5693 1.3112
C8A C -0.6524(6) 0.6731(4) 1.2897(4)
C9A C -0.1622(7) 0.7959(5) 0.9550(4)
O5A O -0.3326(6) 0.9804(4) 1.0598(4)
C10A C -0.2075(7) 0.7509(5) 0.7920(4)
H4A H -0.2739 0.7634 0.7428
C11A C -0.4028(7) 0.7910(5) 1.1555(4)
C12A C -0.5808(7) 0.8267(5) 1.1645(5)
H5A H -0.6163 0.8907 1.1257
C13A C -0.0550(6) 0.6686(5) 0.7700(4)
C14A C -0.0021(7) 0.6000(5) 0.6708(4)
C15A C -0.3474(7) 0.6927(5) 1.2084(4)
H6A H -0.2261 0.6663 1.1984
C16A C -0.7051(7) 0.7685(5) 1.2302(5)
H7A H -0.8255 0.7922 1.2357
O6A O -0.1014(6) 0.8562(4) 1.1280(3)
C19A C -0.2633(7) 0.8143(5) 0.8843(5)
H10A H -0.3674 0.8686 0.8989
C20A C 0.0451(8) 0.6531(6) 0.8417(5)
H11A H 0.1497 0.5991 0.8272
C21A C -0.0086(8) 0.7168(6) 0.9346(5)
H12A H 0.0590 0.7062 0.9832
Zn1_2 Zn -0.85378(7) 0.42186(5) 1.52793(4)
Zn1A_2 Zn -0.14622(7) 0.57814(5) 0.47207(4)
Zn1A_3 Zn 1.85378(7) -0.42186(5) 0.47207(4)
C2A_2 C -1.3589(5) 0.7020(3) 1.4843(3)
O1_2 O -1.2706(5) 0.4644(3) 1.5765(3)
O1A_2 O 0.2706(5) 0.5356(3) 0.4235(3)
O4_2 O 0.0915(5) 0.3713(4) 0.3946(3)
O4A_2 O -1.0915(5) 0.6287(4) 1.6054(3)
loop_
_geom_bond_atom_site_label_1
_geom_bond_atom_site_label_2
_geom_bond_site_symmetry_1
_geom_bond_site_symmetry_2
Zn1 C2 1_555 1_555
S1 C9 1_555 1_555
C1 O1 1_555 1_555
C2 C17 1_555 1_555
O1 Zn1A_2 1_555 1_555
O2 C14 1_555 1_555
O3 Zn1 1_555 1_555
O4 C14 1_555 1_555
C3 C4 1_555 1_555
C4 C6 1_555 1_555
C5 H1 1_555 1_555
C6 H2 1_555 1_555
C7 C4 1_555 1_555
H3 C7 1_555 1_555
C8 C1 1_555 1_555
C9 C19 1_555 1_555
O5 S1 1_555 1_555
C10 H4 1_555 1_555
C11 S1 1_555 1_555
C12 C11 1_555 1_555
H5 C12 1_555 1_555
C13 C10 1_555 1_555
C14 C13 1_555 1_555
C15 C5 1_555 1_555
H6 C15 1_555 1_555
C16 C8 1_555 1_555
H7 C16 1_555 1_555
C17 C6 1_555 1_555
H8 C17 1_555 1_555
O6 S1 1_555 1_555
C18 C2 1_555 1_555
H9 C18 1_555 1_555
C19 C10 1_555 1_555
H10 C19 1_555 1_555
C20 C13 1_555 1_555
H11 C20 1_555 1_555
C21 C9 1_555 1_555
H12 C21 1_555 1_555
C22 C3 1_555 1_555
H13 C22 1_555 1_555
C23 C22 1_555 1_555
H14 C23 1_555 1_555
C2A C17A 1_555 1_555
C3A C23 1_555 1_555
C4A C3A 1_555 1_555
C6A C4A 1_555 1_555
H2A C6A 1_555 1_555
C7A C4A 1_555 1_555
H3A C7A 1_555 1_555
C17A C6A 1_555 1_555
H8A C17A 1_555 1_555
C18A C2A 1_555 1_555
H9A C18A 1_555 1_555
C22A C3A 1_555 1_555
H13A C22A 1_555 1_555
C23A C3 1_555 1_555
H14A C23A 1_555 1_555
Zn1A O2 1_555 1_555
S1A C9A 1_555 1_555
C1A O1A 1_555 1_555
O1A Zn1_2 1_555 1_555
O2A Zn1 1_555 1_555
O3A Zn1A 1_555 1_555
O4A C14A 1_555 1_555
C5A H1A 1_555 1_555
C8A C1A 1_555 1_555
C9A C19A 1_555 1_555
O5A S1A 1_555 1_555
C10A H4A 1_555 1_555
C11A S1A 1_555 1_555
C12A C11A 1_555 1_555
H5A C12A 1_555 1_555
C13A C10A 1_555 1_555
C14A O2A 1_555 1_555
C15A C5A 1_555 1_555
H6A C15A 1_555 1_555
C16A C8A 1_555 1_555
H7A C16A 1_555 1_555
O6A S1A 1_555 1_555
C19A C10A 1_555 1_555
H10A C19A 1_555 1_555
C20A C13A 1_555 1_555
H11A C20A 1_555 1_555
C21A C9A 1_555 1_555
H12A C21A 1_555 1_555
Zn1_2 O4 1_555 1_555
Zn1A_2 O4A 1_555 1_555
Zn1A_3 C2A 1_555 1_555
C2A_2 Zn1A 1_555 1_555
O1_2 Zn1A 1_555 1_555
O1A_2 Zn1 1_555 1_555
O4_2 Zn1 1_555 1_555
O4A_2 Zn1A 1_555 1_555
C1 O3 1_555 1_555
C5 C8 1_555 1_555
C7 C18 1_555 1_555
C11 C15 1_555 1_555
C12 C16 1_555 1_555
C20 C21 1_555 1_555
C7A C18A 1_555 1_555
C22A C23A 1_555 1_555
C1A O3A 1_555 1_555
C5A C8A 1_555 1_555
C11A C15A 1_555 1_555
C12A C16A 1_555 1_555
C13A C14A 1_555 1_555
C20A C21A 1_555 1_555

#END
