
#######################################################################
#
#                 Cambridge Crystallographic Data Centre
#                                CCDC 
#
#######################################################################
#
# If this CIF has been generated from an entry in the Cambridge 
# Structural Database, then it will include bibliographic, chemical, 
# crystal, experimental, refinement or atomic coordinate data resulting 
# from the CCDC's data processing and validation procedures.
#
#######################################################################

data_RIHJOJ
_symmetry_cell_setting           triclinic
_symmetry_space_group_name_H-M   'P -1'
_symmetry_Int_Tables_number      2
_space_group_name_Hall           '-P 1'
loop_
_symmetry_equiv_pos_site_id
_symmetry_equiv_pos_as_xyz
1 x,y,z
2 -x,-y,-z
_cell_length_a                   7.3068(12)
_cell_length_b                   12.984(2)
_cell_length_c                   14.251(2)
_cell_angle_alpha                77.487(6)
_cell_angle_beta                 77.231(6)
_cell_angle_gamma                88.687(7)
_cell_volume                     1286.81
loop_
_atom_site_label
_atom_site_type_symbol
_atom_site_fract_x
_atom_site_fract_y
_atom_site_fract_z
Zn1 Zn 0.81347(5) -0.01522(3) 0.07066(3)
S1 S 0.6511(2) 0.58436(8) -0.32271(9)
O1 O 0.7693(4) 0.1235(2) -0.0218(2)
N1 N 0.5988(4) -0.0235(2) 0.1907(2)
O2 O 0.7201(4) 0.9013(2) -0.0164(2)
C1 C 0.9631(7) 0.3474(4) -0.2151(4)
H1 H 1.0906 0.3302 -0.2250
C2 C 0.5613(6) 0.7112(3) -0.1894(3)
H2 H 0.4379 0.6846 -0.1777
O3 O 1.0021(4) 0.9295(2) -0.1174(2)
C3 C 0.9095(8) 0.4410(4) -0.2679(4)
H3 H 0.9997 0.4875 -0.3139
O4 O 1.0539(4) 0.1488(2) -0.1222(2)
C4 C 0.8403(5) 0.8885(3) -0.0903(3)
C5 C 0.6235(5) 0.0124(3) 0.2692(3)
H4 H 0.7444 0.0349 0.2700
N2 N -0.1671(5) -0.0469(3) 0.5053(3)
C6 C 0.3001(5) -0.0173(3) 0.3482(3)
C7 C 0.2758(5) -0.0588(3) 0.2694(3)
H5 H 0.1582 -0.0861 0.2688
C8 C 0.8294(6) 0.2785(3) -0.1475(3)
C9 C 0.4275(5) -0.0591(3) 0.1924(3)
H6 H 0.4099 -0.0856 0.1385
C10 C 0.4776(5) 0.0171(4) 0.3486(3)
H7 H 0.4987 0.0434 0.4019
C11 C 0.7881(6) 0.8185(3) -0.1528(3)
C12 C 0.6406(6) 0.3049(3) -0.1328(3)
H8 H 0.5493 0.2588 -0.0872
N3 N -0.0241(5) -0.0552(3) 0.4323(3)
O5 O 0.4514(6) 0.5763(3) -0.3124(3)
C13 C 0.8894(5) 0.1755(3) -0.0922(3)
C14 C 0.7218(7) 0.4656(3) -0.2523(3)
C15 C 0.5880(7) 0.3990(3) -0.1856(3)
H9 H 0.4609 0.4172 -0.1757
C16 C 0.7007(7) 0.6820(3) -0.2609(3)
C17 C 0.1386(5) -0.0078(3) 0.4302(3)
C18 C 0.6043(6) 0.7800(3) -0.1350(3)
H10 H 0.5103 0.8005 -0.0864
O6 O 0.7742(7) 0.6039(3) -0.4184(3)
C19 C 0.8817(7) 0.7231(4) -0.2823(3)
H11 H 0.9739 0.7049 -0.3330
C20 C 0.9245(6) 0.7910(4) -0.2282(3)
H12 H 1.0472 0.8194 -0.2421
N1A N -0.5988(4) 0.0235(2) 0.8093(2)
C5A C -0.6235(5) -0.0124(3) 0.7308(3)
H4A H -0.7444 -0.0349 0.7300
N2A N 0.1671(5) 0.0469(3) 0.4947(3)
C6A C -0.3001(5) 0.0173(3) 0.6518(3)
C7A C -0.2758(5) 0.0588(3) 0.7306(3)
H5A H -0.1582 0.0861 0.7312
C9A C -0.4275(5) 0.0591(3) 0.8076(3)
H6A H -0.4099 0.0856 0.8615
C10A C -0.4776(5) -0.0171(4) 0.6514(3)
H7A H -0.4987 -0.0434 0.5981
N3A N 0.0241(5) 0.0552(3) 0.5677(3)
C17A C -0.1386(5) 0.0078(3) 0.5698(3)
Zn1A Zn -0.81347(5) 0.01522(3) 0.92934(3)
S1A S -0.6511(2) -0.58436(8) 1.32271(9)
O1A O -0.7693(4) -0.1235(2) 1.0218(2)
O2A O -0.7201(4) -0.9013(2) 1.0164(2)
C1A C -0.9631(7) -0.3474(4) 1.2151(4)
H1A H -1.0906 -0.3302 1.2250
C2A C -0.5613(6) -0.7112(3) 1.1894(3)
H2A H -0.4379 -0.6846 1.1777
O3A O -1.0021(4) -0.9295(2) 1.1174(2)
C3A C -0.9095(8) -0.4410(4) 1.2679(4)
H3A H -0.9997 -0.4875 1.3139
O4A O -1.0539(4) -0.1488(2) 1.1222(2)
C4A C -0.8403(5) -0.8885(3) 1.0903(3)
C8A C -0.8294(6) -0.2785(3) 1.1475(3)
C11A C -0.7881(6) -0.8185(3) 1.1528(3)
C12A C -0.6406(6) -0.3049(3) 1.1328(3)
H8A H -0.5493 -0.2588 1.0872
O5A O -0.4514(6) -0.5763(3) 1.3124(3)
C13A C -0.8894(5) -0.1755(3) 1.0922(3)
C14A C -0.7218(7) -0.4656(3) 1.2523(3)
C15A C -0.5880(7) -0.3990(3) 1.1856(3)
H9A H -0.4609 -0.4172 1.1757
C16A C -0.7007(7) -0.6820(3) 1.2609(3)
C18A C -0.6043(6) -0.7800(3) 1.1350(3)
H10A H -0.5103 -0.8005 1.0864
O6A O -0.7742(7) -0.6039(3) 1.4184(3)
C19A C -0.8817(7) -0.7231(4) 1.2823(3)
H11A H -0.9739 -0.7049 1.3330
C20A C -0.9245(6) -0.7910(4) 1.2282(3)
H12A H -1.0472 -0.8194 1.2421
Zn1_2 Zn -1.18653(5) -1.01522(3) 1.07066(3)
Zn1_3 Zn -1.18653(5) -0.01522(3) 1.07066(3)
Zn1_4 Zn 0.81347(5) 0.98478(3) 0.07066(3)
Zn1A_2 Zn -0.81347(5) -0.98478(3) 0.92934(3)
Zn1A_3 Zn 1.18653(5) 0.01522(3) -0.07066(3)
Zn1A_4 Zn 1.18653(5) 1.01522(3) -0.07066(3)
O2_2 O 0.7201(4) -0.0987(2) -0.0164(2)
O2A_2 O -0.7201(4) 0.0987(2) 1.0164(2)
O3_2 O -0.9979(4) -0.0705(2) 0.8826(2)
O3A_2 O 0.9979(4) 0.0705(2) 0.1174(2)
O4_2 O -0.9461(4) 0.1488(2) 0.8778(2)
O4A_2 O 0.9461(4) -0.1488(2) 0.1222(2)
O7 O 0.2834(7) 0.8175(3) 0.5709(3)
N4 N 0.4097(8) 0.7228(4) 0.4570(3)
C21 C 0.4183(9) 0.7861(4) 0.5186(4)
H13 H 0.5380 0.8080 0.5218
C22 C 0.2328(12) 0.6813(6) 0.4513(6)
H14 H 0.2140 0.6094 0.4896
H15 H 0.2327 0.6822 0.3831
H16 H 0.1324 0.7244 0.4774
C23 C 0.5768(12) 0.6912(7) 0.3943(5)
H17 H 0.6864 0.7266 0.4020
H18 H 0.5663 0.7104 0.3261
H19 H 0.5894 0.6154 0.4131
loop_
_geom_bond_atom_site_label_1
_geom_bond_atom_site_label_2
_geom_bond_site_symmetry_1
_geom_bond_site_symmetry_2
Zn1 O1 1_555 1_555
S1 O5 1_555 1_555
O1 C13 1_555 1_555
N1 Zn1 1_555 1_555
O2 C4 1_555 1_555
C1 H1 1_555 1_555
C2 H2 1_555 1_555
O3 C4 1_555 1_555
C3 C1 1_555 1_555
H3 C3 1_555 1_555
O4 C13 1_555 1_555
C4 C11 1_555 1_555
C5 N1 1_555 1_555
H4 C5 1_555 1_555
N2 N3 1_555 1_555
C6 C7 1_555 1_555
C7 H5 1_555 1_555
C8 C1 1_555 1_555
C9 N1 1_555 1_555
H6 C9 1_555 1_555
C10 C5 1_555 1_555
H7 C10 1_555 1_555
C11 C18 1_555 1_555
C12 C8 1_555 1_555
H8 C12 1_555 1_555
N3 C17 1_555 1_555
C13 C8 1_555 1_555
C14 S1 1_555 1_555
C15 C12 1_555 1_555
H9 C15 1_555 1_555
C16 S1 1_555 1_555
C17 C6 1_555 1_555
C18 C2 1_555 1_555
H10 C18 1_555 1_555
O6 S1 1_555 1_555
C19 C16 1_555 1_555
H11 C19 1_555 1_555
C20 C11 1_555 1_555
H12 C20 1_555 1_555
O7 C21 1_555 1_555
N4 C21 1_555 1_555
C21 H13 1_555 1_555
C22 N4 1_555 1_555
H14 C22 1_555 1_555
H15 C22 1_555 1_555
H16 C22 1_555 1_555
C23 N4 1_555 1_555
H17 C23 1_555 1_555
H18 C23 1_555 1_555
H19 C23 1_555 1_555
N1A C5A 1_555 1_555
C5A H4A 1_555 1_555
N2A C17 1_555 1_555
C6A C7A 1_555 1_555
C7A H5A 1_555 1_555
C9A N1A 1_555 1_555
H6A C9A 1_555 1_555
C10A C5A 1_555 1_555
H7A C10A 1_555 1_555
N3A N2A 1_555 1_555
C17A N2 1_555 1_555
Zn1A N1A 1_555 1_555
S1A O5A 1_555 1_555
O1A Zn1A 1_555 1_555
O2A C4A 1_555 1_555
C1A H1A 1_555 1_555
C2A H2A 1_555 1_555
O3A C4A 1_555 1_555
C3A C1A 1_555 1_555
H3A C3A 1_555 1_555
O4A C13A 1_555 1_555
C4A C11A 1_555 1_555
C8A C1A 1_555 1_555
C11A C18A 1_555 1_555
C12A C8A 1_555 1_555
H8A C12A 1_555 1_555
C13A O1A 1_555 1_555
C14A S1A 1_555 1_555
C15A C12A 1_555 1_555
H9A C15A 1_555 1_555
C16A S1A 1_555 1_555
C18A C2A 1_555 1_555
H10A C18A 1_555 1_555
O6A S1A 1_555 1_555
C19A C16A 1_555 1_555
H11A C19A 1_555 1_555
C20A C11A 1_555 1_555
H12A C20A 1_555 1_555
Zn1_2 O3A 1_555 1_555
Zn1_3 O4A 1_555 1_555
Zn1_4 O2 1_555 1_555
Zn1A_2 O2A 1_555 1_555
Zn1A_3 O4 1_555 1_555
Zn1A_4 O3 1_555 1_555
O2_2 Zn1 1_555 1_555
O2A_2 Zn1A 1_555 1_555
O3_2 Zn1A 1_555 1_555
O3A_2 Zn1 1_555 1_555
O4_2 Zn1A 1_555 1_555
O4A_2 Zn1 1_555 1_555
C2 C16 1_555 1_555
C3 C14 1_555 1_555
C6 C10 1_555 1_555
C7 C9 1_555 1_555
C14 C15 1_555 1_555
C19 C20 1_555 1_555
C6A C10A 1_555 1_555
C6A C17A 1_555 1_555
C7A C9A 1_555 1_555
N3A C17A 1_555 1_555
C2A C16A 1_555 1_555
C3A C14A 1_555 1_555
C8A C13A 1_555 1_555
C14A C15A 1_555 1_555
C19A C20A 1_555 1_555

#END
