
#######################################################################
#
#                 Cambridge Crystallographic Data Centre
#                                CCDC 
#
#######################################################################
#
# If this CIF has been generated from an entry in the Cambridge 
# Structural Database, then it will include bibliographic, chemical, 
# crystal, experimental, refinement or atomic coordinate data resulting 
# from the CCDC's data processing and validation procedures.
#
#######################################################################

data_RIHMEC
_symmetry_cell_setting           triclinic
_symmetry_space_group_name_H-M   'P -1'
_symmetry_Int_Tables_number      2
_space_group_name_Hall           '-P 1'
loop_
_symmetry_equiv_pos_site_id
_symmetry_equiv_pos_as_xyz
1 x,y,z
2 -x,-y,-z
_cell_length_a                   8.2815(7)
_cell_length_b                   13.8825(14)
_cell_length_c                   15.7906(16)
_cell_angle_alpha                90.8640(10)
_cell_angle_beta                 92.9230(10)
_cell_angle_gamma                94.187(2)
_cell_volume                     1807.89
loop_
_atom_site_label
_atom_site_type_symbol
_atom_site_fract_x
_atom_site_fract_y
_atom_site_fract_z
Cd1 Cd 0.59491(12) 0.86030(8) 0.09635(6)
Cd2 Cd 0.48924(12) 0.85182(8) 0.40682(6)
N1 N 0.4346(15) 0.7772(8) -0.0180(7)
N2 N 0.4094(13) 0.8258(10) -0.0943(7)
H1 H 0.4420 0.8850 -0.1028
N3 N 0.7667(14) 0.7285(8) 0.1122(7)
N4 N 0.7856(14) 0.6877(9) 0.1928(7)
H2 H 0.7451 0.7093 0.2378
N5 N 0.3946(16) 0.6878(9) 0.3898(7)
N6 N 0.4177(16) 0.6377(9) 0.3147(8)
H3 H 0.4481 0.6663 0.2696
N7 N 0.6801(14) 0.8157(9) 0.5224(7)
N8 N 0.6647(15) 0.8582(9) 0.6033(7)
H4 H 0.6029 0.9039 0.6128
O1 O 0.3996(12) 0.7883(7) 0.1917(6)
O2 O 0.3032(11) 0.8881(8) 0.2937(6)
O3 O 0.4269(10) 0.9909(6) 0.0979(6)
O4 O 0.2467(11) 1.0557(8) 0.0030(6)
O5 O 0.7525(11) 0.9435(7) 0.2079(6)
O6 O 0.7094(12) 0.8329(8) 0.3127(6)
O7 O 0.5827(11) 1.0136(7) 0.4011(6)
O8 O 0.7183(13) 1.1159(8) 0.5020(6)
C1 C 0.3002(15) 0.8489(11) 0.2195(8)
C2 C 0.1518(15) 0.8683(11) 0.1575(8)
H5 H 0.0557 0.8323 0.1677
C3 C 0.1425(15) 0.9293(11) 0.0917(8)
H6 H 0.0428 0.9303 0.0620
C4 C 0.2822(16) 0.9970(10) 0.0618(8)
C5 C 0.7749(17) 0.9126(12) 0.2839(9)
C6 C 0.9047(16) 0.9717(10) 0.3423(8)
H7 H 1.0124 0.9656 0.3304
C7 C 0.8788(17) 1.0306(11) 0.4080(9)
H8 H 0.9705 1.0588 0.4377
C8 C 0.7157(16) 1.0560(11) 0.4389(8)
C9 C 0.369(2) 0.6098(12) 0.0399(10)
H9 H 0.4780 0.5942 0.0536
H10 H 0.3046 0.5525 0.0209
H11 H 0.3238 0.6361 0.0893
C10 C 0.369(2) 0.6843(11) -0.0305(9)
C11 C 0.291(2) 0.6751(12) -0.1148(10)
H12 H 0.2308 0.6210 -0.1381
C12 C 0.3236(19) 0.7642(12) -0.1547(10)
C13 C 0.285(3) 0.7999(15) -0.2433(10)
H13 H 0.3776 0.8369 -0.2628
H14 H 0.1949 0.8398 -0.2421
H15 H 0.2572 0.7457 -0.2810
C14 C 0.844(3) 0.6943(13) -0.0373(11)
H16 H 0.7425 0.7191 -0.0552
H17 H 0.8580 0.6364 -0.0691
H18 H 0.9310 0.7416 -0.0469
C15 C 0.843(2) 0.6716(12) 0.0585(10)
C16 C 0.913(2) 0.5970(13) 0.1036(11)
H19 H 0.9722 0.5491 0.0810
C17 C 0.877(2) 0.6086(11) 0.1905(9)
C18 C 0.928(3) 0.5532(14) 0.2697(12)
H20 H 1.0175 0.5889 0.2999
H21 H 0.9610 0.4910 0.2530
H22 H 0.8387 0.5450 0.3058
C19 C 0.321(3) 0.6382(14) 0.5386(11)
H23 H 0.3969 0.6889 0.5612
H24 H 0.3305 0.5814 0.5718
H25 H 0.2130 0.6585 0.5404
C20 C 0.357(2) 0.6161(11) 0.4485(9)
C21 C 0.356(3) 0.5237(12) 0.4067(12)
H26 H 0.3371 0.4640 0.4317
C22 C 0.388(2) 0.5401(12) 0.3181(10)
C23 C 0.400(3) 0.4710(14) 0.2447(12)
H27 H 0.3183 0.4827 0.2013
H28 H 0.3830 0.4058 0.2637
H29 H 0.5051 0.4803 0.2221
C24 C 0.849(2) 0.6897(13) 0.4599(10)
H30 H 0.7605 0.6751 0.4190
H31 H 0.8875 0.6307 0.4811
H32 H 0.9350 0.7262 0.4336
C25 C 0.7903(19) 0.7494(12) 0.5340(9)
C26 C 0.844(2) 0.7465(12) 0.6230(10)
H33 H 0.9177 0.7063 0.6474
C27 C 0.761(2) 0.8532(13) 0.7587(9)
H34 H 0.6540 0.8703 0.7710
H35 H 0.8362 0.9087 0.7673
H36 H 0.7918 0.8027 0.7956
C28 C 0.7605(19) 0.8176(11) 0.6653(10)
Cd1A Cd 0.40509(12) 1.13970(8) -0.09635(6)
Cd2A Cd 0.51076(12) 1.14818(8) 0.59318(6)
O4A O 0.7533(11) 0.9443(8) -0.0030(6)
O8A O 0.2817(13) 0.8841(8) 0.4980(6)
loop_
_geom_bond_atom_site_label_1
_geom_bond_atom_site_label_2
_geom_bond_site_symmetry_1
_geom_bond_site_symmetry_2
Cd1 N1 1_555 1_555
Cd2 N5 1_555 1_555
N1 N2 1_555 1_555
N2 H1 1_555 1_555
N3 Cd1 1_555 1_555
N4 N3 1_555 1_555
H2 N4 1_555 1_555
N5 N6 1_555 1_555
N6 H3 1_555 1_555
N7 Cd2 1_555 1_555
N8 N7 1_555 1_555
H4 N8 1_555 1_555
O1 Cd1 1_555 1_555
O2 Cd2 1_555 1_555
O3 Cd1 1_555 1_555
O4 C4 1_555 1_555
O5 Cd1 1_555 1_555
O6 Cd2 1_555 1_555
O7 Cd2 1_555 1_555
O8 C8 1_555 1_555
C1 O1 1_555 1_555
C2 C1 1_555 1_555
H5 C2 1_555 1_555
C3 C2 1_555 1_555
H6 C3 1_555 1_555
C4 O3 1_555 1_555
C5 O5 1_555 1_555
C6 C5 1_555 1_555
H7 C6 1_555 1_555
C7 C6 1_555 1_555
H8 C7 1_555 1_555
C8 O7 1_555 1_555
C9 H9 1_555 1_555
H10 C9 1_555 1_555
H11 C9 1_555 1_555
C10 N1 1_555 1_555
C11 C10 1_555 1_555
H12 C11 1_555 1_555
C12 N2 1_555 1_555
C13 C12 1_555 1_555
H13 C13 1_555 1_555
H14 C13 1_555 1_555
H15 C13 1_555 1_555
C14 H16 1_555 1_555
H17 C14 1_555 1_555
H18 C14 1_555 1_555
C15 N3 1_555 1_555
C16 C15 1_555 1_555
H19 C16 1_555 1_555
C17 N4 1_555 1_555
C18 C17 1_555 1_555
H20 C18 1_555 1_555
H21 C18 1_555 1_555
H22 C18 1_555 1_555
C19 H23 1_555 1_555
H24 C19 1_555 1_555
H25 C19 1_555 1_555
C20 N5 1_555 1_555
C21 C20 1_555 1_555
H26 C21 1_555 1_555
C22 N6 1_555 1_555
C23 C22 1_555 1_555
H27 C23 1_555 1_555
H28 C23 1_555 1_555
H29 C23 1_555 1_555
C24 H30 1_555 1_555
H31 C24 1_555 1_555
H32 C24 1_555 1_555
C25 N7 1_555 1_555
C26 C25 1_555 1_555
H33 C26 1_555 1_555
C27 H34 1_555 1_555
H35 C27 1_555 1_555
H36 C27 1_555 1_555
C28 N8 1_555 1_555
Cd1A O4 1_555 1_555
Cd2A O8 1_555 1_555
O4A Cd1 1_555 1_555
O8A Cd2 1_555 1_555
O2 C1 1_555 1_555
O6 C5 1_555 1_555
C3 C4 1_555 1_555
C7 C8 1_555 1_555
C9 C10 1_555 1_555
C11 C12 1_555 1_555
C14 C15 1_555 1_555
C16 C17 1_555 1_555
C19 C20 1_555 1_555
C21 C22 1_555 1_555
C24 C25 1_555 1_555
C26 C28 1_555 1_555
C27 C28 1_555 1_555

#END
