
#######################################################################
#
#                 Cambridge Crystallographic Data Centre
#                                CCDC 
#
#######################################################################
#
# If this CIF has been generated from an entry in the Cambridge 
# Structural Database, then it will include bibliographic, chemical, 
# crystal, experimental, refinement or atomic coordinate data resulting 
# from the CCDC's data processing and validation procedures.
#
#######################################################################

data_RIHMIG
_symmetry_cell_setting           orthorhombic
_symmetry_space_group_name_H-M   'C m c 21'
_symmetry_Int_Tables_number      36
_space_group_name_Hall           'C 2n -2'
loop_
_symmetry_equiv_pos_site_id
_symmetry_equiv_pos_as_xyz
1 x,y,z
2 -x,-y,1/2+z
3 -x,y,z
4 x,-y,1/2+z
5 1/2+x,1/2+y,z
6 1/2-x,1/2-y,1/2+z
7 1/2-x,1/2+y,z
8 1/2+x,1/2-y,1/2+z
_cell_length_a                   14.7358(13)
_cell_length_b                   9.3354(11)
_cell_length_c                   14.3430(12)
_cell_angle_alpha                90
_cell_angle_beta                 90
_cell_angle_gamma                90
_cell_volume                     1973.09
loop_
_atom_site_label
_atom_site_type_symbol
_atom_site_fract_x
_atom_site_fract_y
_atom_site_fract_z
Cd1 Cd 0.5000 0.07515(3) 0.545339(19)
N1 N 0.36734(19) -0.0376(3) 0.58084(18)
N2 N 0.36144(19) -0.1204(3) 0.65855(18)
H1 H 0.4043 -0.1286 0.6989
O1 O 0.5000 0.7343(3) 0.1462(2)
O2 O 0.5000 0.9278(3) 0.2341(2)
H2 H 0.5000 0.9476 0.2898
O3 O 0.5000 0.9128(3) 0.4071(2)
O4 O 0.42023(18) 0.2348(2) 0.43189(16)
O5 O 0.5000 0.2442(3) 0.2839(2)
S1 S 0.5000 0.28323(12) 0.38141(8)
C1 C 0.2655(3) 0.0144(5) 0.4468(3)
H3 H 0.2511 0.1135 0.4571
H4 H 0.2144 -0.0329 0.4190
H5 H 0.3169 0.0074 0.4059
C2 C 0.2873(2) -0.0548(3) 0.5371(4)
C3 C 0.2330(3) -0.1469(4) 0.5889(3)
H6 H 0.1743 -0.1757 0.5743
C4 C 0.2822(3) -0.1871(4) 0.6653(2)
C5 C 0.2593(3) -0.2868(5) 0.7433(3)
H7 H 0.3139 -0.3146 0.7750
H8 H 0.2298 -0.3704 0.7187
H9 H 0.2193 -0.2395 0.7863
C6 C 0.5000 0.7927(5) 0.2242(3)
C7 C 0.5000 0.7043(5) 0.3119(3)
C8 C 0.5000 0.7688(4) 0.3999(3)
C9 C 0.5000 0.6849(5) 0.4807(3)
H10 H 0.5000 0.7283 0.5391
C10 C 0.5000 0.5370(5) 0.4735(3)
H11 H 0.5000 0.4810 0.5271
C11 C 0.5000 0.4719(4) 0.3863(3)
C12 C 0.5000 0.5542(4) 0.3055(3)
H12 H 0.5000 0.5099 0.2474
O4B O 0.57977(18) 0.2348(2) 0.43189(16)
N1B N 0.63266(19) -0.0376(3) 0.58084(18)
N2B N 0.63856(19) -0.1204(3) 0.65855(18)
H1B H 0.5957 -0.1286 0.6989
C1B C 0.7345(3) 0.0144(5) 0.4468(3)
H3B H 0.7489 0.1135 0.4571
H4B H 0.7856 -0.0329 0.4190
H5B H 0.6831 0.0074 0.4059
C2B C 0.7127(2) -0.0548(3) 0.5371(4)
C3B C 0.7670(3) -0.1469(4) 0.5889(3)
H6B H 0.8257 -0.1757 0.5743
C4B C 0.7178(3) -0.1871(4) 0.6653(2)
C5B C 0.7407(3) -0.2868(5) 0.7433(3)
H7B H 0.6861 -0.3146 0.7750
H8B H 0.7702 -0.3704 0.7187
H9B H 0.7807 -0.2395 0.7863
Cd1_2 Cd 0.5000 1.07515(3) 0.545339(19)
Cd1A Cd 0.5000 0.92485(3) 0.045339(19)
O1A O 0.5000 0.2657(3) 0.6462(2)
O2A O 0.5000 0.0722(3) 0.7341(2)
O3_2 O 0.5000 -0.0872(3) 0.4071(2)
loop_
_geom_bond_atom_site_label_1
_geom_bond_atom_site_label_2
_geom_bond_site_symmetry_1
_geom_bond_site_symmetry_2
Cd1 N1 1_555 1_555
N1 N2 1_555 1_555
N2 H1 1_555 1_555
O1 C6 1_555 1_555
O2 H2 1_555 1_555
O3 C8 1_555 1_555
O4 Cd1 1_555 1_555
O5 S1 1_555 1_555
S1 O4 1_555 1_555
C1 H3 1_555 1_555
H4 C1 1_555 1_555
H5 C1 1_555 1_555
C2 N1 1_555 1_555
C3 C2 1_555 1_555
H6 C3 1_555 1_555
C4 N2 1_555 1_555
C5 C4 1_555 1_555
H7 C5 1_555 1_555
H8 C5 1_555 1_555
H9 C5 1_555 1_555
C6 O2 1_555 1_555
C7 C6 1_555 1_555
C8 C7 1_555 1_555
C9 C8 1_555 1_555
H10 C9 1_555 1_555
C10 C9 1_555 1_555
H11 C10 1_555 1_555
C11 S1 1_555 1_555
C12 C7 1_555 1_555
H12 C12 1_555 1_555
O4B Cd1 1_555 1_555
N1B Cd1 1_555 1_555
N2B N1B 1_555 1_555
H1B N2B 1_555 1_555
C1B H3B 1_555 1_555
H4B C1B 1_555 1_555
H5B C1B 1_555 1_555
C2B N1B 1_555 1_555
C3B C2B 1_555 1_555
H6B C3B 1_555 1_555
C4B N2B 1_555 1_555
C5B C4B 1_555 1_555
H7B C5B 1_555 1_555
H8B C5B 1_555 1_555
H9B C5B 1_555 1_555
Cd1_2 O3 1_555 1_555
Cd1A O1 1_555 1_555
O1A Cd1 1_555 1_555
O2A Cd1 1_555 1_555
O3_2 Cd1 1_555 1_555
O2 Cd1A 1_555 1_555
S1 O4B 1_555 1_555
C1 C2 1_555 1_555
C3 C4 1_555 1_555
C10 C11 1_555 1_555
C11 C12 1_555 1_555
C1B C2B 1_555 1_555
C3B C4B 1_555 1_555

#END
