
#######################################################################
#
#                 Cambridge Crystallographic Data Centre
#                                CCDC 
#
#######################################################################
#
# If this CIF has been generated from an entry in the Cambridge 
# Structural Database, then it will include bibliographic, chemical, 
# crystal, experimental, refinement or atomic coordinate data resulting 
# from the CCDC's data processing and validation procedures.
#
#######################################################################

data_RIHRAD
_symmetry_cell_setting           monoclinic
_symmetry_space_group_name_H-M   'C 2/c'
_symmetry_Int_Tables_number      15
_space_group_name_Hall           '-C 2yn'
loop_
_symmetry_equiv_pos_site_id
_symmetry_equiv_pos_as_xyz
1 x,y,z
2 -x,y,1/2-z
3 1/2+x,1/2+y,z
4 1/2-x,1/2+y,1/2-z
5 -x,-y,-z
6 x,-y,1/2+z
7 1/2-x,1/2-y,-z
8 1/2+x,1/2-y,1/2+z
_cell_length_a                   18.2970(15)
_cell_length_b                   9.3893(8)
_cell_length_c                   15.6582(13)
_cell_angle_alpha                90
_cell_angle_beta                 102.8030(10)
_cell_angle_gamma                90
_cell_volume                     2623.14
loop_
_atom_site_label
_atom_site_type_symbol
_atom_site_fract_x
_atom_site_fract_y
_atom_site_fract_z
Co1 Co 0.0000 0.22636(5) 0.7500
N1 N 0.09601(13) 0.3371(2) 0.78435(14)
C1 C 0.10970(16) 0.4744(3) 0.77614(18)
H1 H 0.0735 0.5391 0.7488
O1 O 0.00548(14) 0.0887(3) 0.65527(19)
N2 N 0.18100(14) 0.5109(2) 0.81125(15)
C2 C 0.16468(15) 0.2794(3) 0.82887(16)
O2 O 0.00468(18) 0.2835(3) 0.5762(2)
C3 C 0.21813(16) 0.3872(3) 0.84554(17)
C4 C 0.29210(18) 0.3616(4) 0.8886(2)
H2 H 0.3278 0.4337 0.8992
C5 C 0.3092(2) 0.2232(5) 0.9146(3)
H3 H 0.3579 0.2012 0.9435
C6 C 0.2562(2) 0.1157(4) 0.8990(2)
H4 H 0.2703 0.0241 0.9185
C7 C 0.1833(2) 0.1402(3) 0.8558(2)
H5 H 0.1481 0.0672 0.8450
C8 C 0.2121(2) 0.6550(3) 0.8191(2)
H6 H 0.1759 0.7201 0.7849
H7 H 0.2568 0.6569 0.7954
C9 C 0.23165(17) 0.7041(3) 0.91298(19)
C10 C 0.17704(17) 0.7151(3) 0.9609(2)
H8 H 0.1277 0.6914 0.9351
C11 C 0.30474(18) 0.7388(3) 0.9530(2)
H9 H 0.3421 0.7311 0.9216
C12 C 0.00384(18) 0.1560(5) 0.5825(2)
C13 C 0.0017(2) 0.0675(4) 0.5009(3)
H10 H 0.0030 0.1150 0.4492
N1F N 0.40399(13) 1.1629(2) 1.21565(14)
C1F C 0.39030(16) 1.0256(3) 1.22386(18)
H1F H 0.4265 0.9609 1.2512
N2F N 0.31900(14) 0.9891(2) 1.18875(15)
C2F C 0.33532(15) 1.2206(3) 1.17113(16)
C3F C 0.28187(16) 1.1128(3) 1.15446(17)
C4F C 0.20790(18) 1.1384(4) 1.1114(2)
H2F H 0.1722 1.0663 1.1008
C5F C 0.1908(2) 1.2768(5) 1.0854(3)
H3F H 0.1421 1.2988 1.0565
C6F C 0.2438(2) 1.3843(4) 1.1010(2)
H4F H 0.2297 1.4759 1.0815
C7F C 0.3167(2) 1.3598(3) 1.1442(2)
H5F H 0.3519 1.4328 1.1550
C8F C 0.2879(2) 0.8450(3) 1.1809(2)
H6F H 0.3241 0.7799 1.2151
H7F H 0.2432 0.8431 1.2046
C9F C 0.26835(17) 0.7959(3) 1.08702(19)
C10F C 0.32296(17) 0.7849(3) 1.0391(2)
H8F H 0.3723 0.8086 1.0649
C11F C 0.19526(18) 0.7612(3) 1.0470(2)
H9F H 0.1579 0.7689 1.0784
O1D O -0.00548(14) -0.0887(3) 0.34473(19)
O2D O -0.00468(18) -0.2835(3) 0.4238(2)
C12D C -0.00384(18) -0.1560(5) 0.4175(2)
C13D C -0.0017(2) -0.0675(4) 0.4991(3)
H10D H -0.0030 -0.1150 0.5508
Co1D Co 0.0000 -0.22636(5) 0.2500
Co1F Co 0.5000 1.27364(5) 1.2500
N1A N -0.09601(13) 0.3371(2) 0.71565(14)
O1A O -0.00548(14) 0.0887(3) 0.84473(19)
O3 O 0.0000 0.7822(6) 0.7500
O4 O 0.0039(2) 0.5841(6) 0.5913(3)
loop_
_geom_bond_atom_site_label_1
_geom_bond_atom_site_label_2
_geom_bond_site_symmetry_1
_geom_bond_site_symmetry_2
Co1 N1 1_555 1_555
N1 C1 1_555 1_555
C1 H1 1_555 1_555
O1 Co1 1_555 1_555
N2 C1 1_555 1_555
C2 N1 1_555 1_555
O2 C12 1_555 1_555
C3 N2 1_555 1_555
C4 C3 1_555 1_555
H2 C4 1_555 1_555
C5 C4 1_555 1_555
H3 C5 1_555 1_555
C6 C5 1_555 1_555
H4 C6 1_555 1_555
C7 C2 1_555 1_555
H5 C7 1_555 1_555
C8 N2 1_555 1_555
H6 C8 1_555 1_555
H7 C8 1_555 1_555
C9 C8 1_555 1_555
C10 C9 1_555 1_555
H8 C10 1_555 1_555
C11 C9 1_555 1_555
H9 C11 1_555 1_555
C12 O1 1_555 1_555
C13 C12 1_555 1_555
H10 C13 1_555 1_555
N1F C1F 1_555 1_555
C1F H1F 1_555 1_555
N2F C1F 1_555 1_555
C2F N1F 1_555 1_555
C3F N2F 1_555 1_555
C4F C3F 1_555 1_555
H2F C4F 1_555 1_555
C5F C4F 1_555 1_555
H3F C5F 1_555 1_555
C6F C5F 1_555 1_555
H4F C6F 1_555 1_555
C7F C2F 1_555 1_555
H5F C7F 1_555 1_555
C8F N2F 1_555 1_555
H6F C8F 1_555 1_555
H7F C8F 1_555 1_555
C9F C8F 1_555 1_555
C10F C11 1_555 1_555
H8F C10F 1_555 1_555
C11F C10 1_555 1_555
H9F C11F 1_555 1_555
O1D C12D 1_555 1_555
O2D C12D 1_555 1_555
C12D C13D 1_555 1_555
C13D C13 1_555 1_555
H10D C13D 1_555 1_555
Co1D O1D 1_555 1_555
Co1F N1F 1_555 1_555
N1A Co1 1_555 1_555
O1A Co1 1_555 1_555
C2 C3 1_555 1_555
C6 C7 1_555 1_555
C2F C3F 1_555 1_555
C6F C7F 1_555 1_555
C9F C10F 1_555 1_555
C9F C11F 1_555 1_555

#END
