
#######################################################################
#
#                 Cambridge Crystallographic Data Centre
#                                CCDC 
#
#######################################################################
#
# If this CIF has been generated from an entry in the Cambridge 
# Structural Database, then it will include bibliographic, chemical, 
# crystal, experimental, refinement or atomic coordinate data resulting 
# from the CCDC's data processing and validation procedures.
#
#######################################################################

data_RIHRIL
_symmetry_cell_setting           monoclinic
_symmetry_space_group_name_H-M   'P 21/n'
_symmetry_Int_Tables_number      14
_space_group_name_Hall           '-P 2yn'
loop_
_symmetry_equiv_pos_site_id
_symmetry_equiv_pos_as_xyz
1 x,y,z
2 1/2-x,1/2+y,1/2-z
3 -x,-y,-z
4 1/2+x,1/2-y,1/2+z
_cell_length_a                   16.628(4)
_cell_length_b                   20.452(3)
_cell_length_c                   28.774(2)
_cell_angle_alpha                90
_cell_angle_beta                 93.519(2)
_cell_angle_gamma                90
_cell_volume                     9766.89
loop_
_atom_site_label
_atom_site_type_symbol
_atom_site_fract_x
_atom_site_fract_y
_atom_site_fract_z
Co1 Co 0.33032(3) 0.31542(3) -0.036790(16)
O1 O 0.30964(17) 0.37275(15) -0.09892(9)
N1 N 0.4243(2) 0.38233(18) -0.01344(11)
C1 C 0.4414(3) 0.4004(2) 0.03008(15)
H1 H 0.4052 0.3962 0.0533
O2 O 0.23767(15) 0.36684(14) -0.00184(7)
H2 H 0.2095 0.3873 -0.0228
H3 H 0.2587 0.3950 0.0169
Co2 Co 0.14879(3) 0.31074(3) 0.033602(16)
O3 O 0.1916(2) 0.41460(18) -0.08127(10)
C2 C 0.5515(3) 0.4232(2) -0.00431(17)
N2 N 0.5160(2) 0.42559(19) 0.03797(13)
O4 O 0.0364(2) 0.51234(19) -0.26825(12)
N3 N 0.7152(2) 0.2257(2) 0.22634(13)
C3 C 0.4938(3) 0.3972(2) -0.03629(15)
O5 O 0.0080(2) 0.5066(2) -0.19672(13)
N4 N 0.7339(3) 0.2372(2) 0.30329(13)
C4 C 0.5116(3) 0.3886(2) -0.08292(16)
H4 H 0.4732 0.3731 -0.1050
C5 C 0.5881(4) 0.4039(3) -0.0945(2)
H5 H 0.6017 0.3973 -0.1250
N5 N 0.0543(2) 0.37926(18) 0.01378(12)
O6 O 0.3803(3) 0.4007(3) -0.26372(13)
N6 N -0.0377(2) 0.42829(19) -0.03394(13)
C6 C 0.6456(4) 0.4289(3) -0.0626(3)
H6 H 0.6967 0.4386 -0.0722
O7 O 0.2921(3) 0.4325(2) -0.31448(12)
O8 O 0.23654(18) 0.25270(15) -0.06293(9)
N7 N -0.2336(3) 0.2348(2) -0.22708(13)
C7 C 0.6286(3) 0.4397(3) -0.0166(2)
H7 H 0.6668 0.4570 0.0049
C8 C 0.5548(3) 0.4443(2) 0.08270(17)
H8 H 0.5139 0.4587 0.1030
H9 H 0.5904 0.4811 0.0781
N8 N -0.2522(3) 0.2462(2) -0.30426(14)
O9 O 0.12030(17) 0.25914(15) -0.02750(9)
O10 O 0.1526(3) 0.06582(19) -0.22634(12)
N9 N 0.0694(2) 0.24991(17) 0.07057(10)
C9 C 0.6032(3) 0.3895(2) 0.10653(16)
O11 O 0.2619(3) 0.0965(2) -0.18932(16)
N10 N 0.0311(2) 0.19116(17) 0.13068(11)
C10 C 0.6114(5) 0.3295(3) 0.0874(2)
H10 H 0.5888 0.3220 0.0575
N11 N -0.0517(2) 0.30877(17) 0.36991(11)
C11 C 0.6517(5) 0.2793(3) 0.1105(2)
H11 H 0.6532 0.2382 0.0968
O12 O -0.0856(3) 0.0509(3) -0.14010(15)
C12 C 0.6893(3) 0.2888(3) 0.15288(16)
O13 O -0.1070(2) 0.1266(3) -0.09104(18)
N12 N -0.0909(2) 0.24448(17) 0.42700(10)
O14 O 0.17400(17) 0.36343(15) 0.09703(9)
C13 C 0.6851(3) 0.3497(3) 0.17160(17)
H12 H 0.7113 0.3578 0.2005
N13 N 0.4256(3) 0.4994(2) 0.22182(15)
O15 O 0.2705(2) 0.42868(18) 0.07449(10)
N14 N 0.1743(3) 0.4099(2) 0.27329(12)
C14 C 0.6432(3) 0.3994(3) 0.14901(16)
H13 H 0.6420 0.4404 0.1628
O16 O 0.4440(3) 0.5141(2) 0.26164(13)
C15 C 0.7653(3) 0.2427(3) 0.26283(17)
H14 H 0.8177 0.2572 0.2596
N15 N 0.5470(3) 0.0956(3) 0.10532(17)
O17 O 0.4703(2) 0.5068(2) 0.19031(13)
C16 C 0.6565(3) 0.2144(2) 0.29254(16)
N16 N 0.2983(3) 0.0871(2) 0.18690(14)
C17 C 0.6435(3) 0.2070(2) 0.24404(16)
N17 N 0.0536(3) 0.4993(2) -0.22787(14)
O18 O 0.1117(2) 0.3820(2) 0.26399(12)
O19 O 0.1986(3) 0.4241(2) 0.31295(11)
C18 C 0.5722(3) 0.1834(3) 0.2236(2)
H15 H 0.5644 0.1782 0.1916
N18 N 0.3146(3) 0.4213(2) -0.27458(14)
C19 C 0.5134(4) 0.1681(3) 0.2532(3)
H16 H 0.4640 0.1531 0.2406
N19 N 0.1898(3) 0.0897(2) -0.19297(15)
O20 O 0.23881(18) 0.24428(16) 0.05540(10)
C20 C 0.5249(4) 0.1740(3) 0.3012(2)
H17 H 0.4836 0.1621 0.3199
N20 N -0.0635(3) 0.0971(3) -0.11586(16)
O21 O 0.2250(3) 0.0889(2) 0.18319(13)
C21 C 0.5957(3) 0.1970(3) 0.32143(19)
H18 H 0.6031 0.2009 0.3536
O22 O 0.3368(3) 0.0661(2) 0.22110(12)
C22 C 0.0895(3) 0.2278(2) 0.11250(13)
H19 H 0.1390 0.2364 0.1282
O23 O 0.5866(3) 0.1216(2) 0.07734(19)
C23 C -0.0333(3) 0.1908(2) 0.09786(14)
O24 O 0.5737(3) 0.0533(3) 0.13068(17)
C24 C -0.0086(3) 0.2269(2) 0.06004(13)
O25 O 0.35668(17) 0.26072(15) 0.02322(9)
C25 C -0.0601(3) 0.2353(2) 0.02039(15)
H20 H -0.0440 0.2586 -0.0052
C26 C -0.1356(3) 0.2078(3) 0.02046(18)
H21 H -0.1712 0.2126 -0.0055
C27 C -0.1599(3) 0.1726(3) 0.05917(19)
H22 H -0.2117 0.1553 0.0581
C28 C -0.1102(3) 0.1626(2) 0.09854(16)
H23 H -0.1264 0.1388 0.1239
C29 C 0.0342(3) 0.1615(2) 0.17653(13)
H24 H 0.0886 0.1462 0.1844
H25 H -0.0013 0.1238 0.1759
C30 C 0.0095(2) 0.2087(2) 0.21417(13)
C31 C -0.0201(3) 0.2704(2) 0.20480(14)
H26 H -0.0269 0.2844 0.1741
C32 C -0.0400(3) 0.3118(2) 0.24021(14)
H27 H -0.0599 0.3533 0.2332
C33 C -0.0302(3) 0.2913(2) 0.28655(13)
C34 C -0.0015(3) 0.2295(2) 0.29586(14)
H28 H 0.0046 0.2151 0.3265
C35 C 0.0185(3) 0.1881(2) 0.26014(14)
H29 H 0.0381 0.1464 0.2670
C36 C -0.0522(3) 0.3388(2) 0.32415(13)
H30 H -0.0143 0.3749 0.3252
H31 H -0.1054 0.3564 0.3162
C37 C -0.1096(3) 0.2682(2) 0.38553(12)
H32 H -0.1574 0.2585 0.3684
C38 C 0.0112(3) 0.3096(2) 0.40406(14)
C39 C -0.0145(3) 0.2696(2) 0.43977(13)
C40 C 0.0348(3) 0.2598(2) 0.47966(15)
H33 H 0.0185 0.2340 0.5039
C41 C 0.1090(3) 0.2899(3) 0.48194(17)
H34 H 0.1434 0.2839 0.5083
C42 C 0.1341(3) 0.3289(3) 0.44589(19)
H35 H 0.1852 0.3475 0.4485
C43 C 0.0853(3) 0.3406(2) 0.40653(17)
H36 H 0.1012 0.3677 0.3829
C44 C 0.0347(3) 0.4005(2) -0.02883(15)
H37 H 0.0686 0.3964 -0.0532
C45 C -0.0124(3) 0.3960(2) 0.03870(15)
C46 C -0.0705(3) 0.4253(2) 0.00914(17)
C47 C -0.1452(3) 0.4440(3) 0.0236(2)
H38 H -0.1837 0.4639 0.0034
C48 C -0.1595(4) 0.4315(3) 0.0696(2)
H39 H -0.2094 0.4421 0.0805
C49 C -0.1014(4) 0.4035(3) 0.0996(2)
H40 H -0.1133 0.3962 0.1304
C50 C -0.0266(3) 0.3860(2) 0.08596(16)
H41 H 0.0125 0.3684 0.1068
C51 C -0.0785(3) 0.4497(2) -0.07771(17)
H42 H -0.0387 0.4667 -0.0978
H43 H -0.1151 0.4851 -0.0713
C52 C -0.1256(3) 0.3956(2) -0.10321(16)
C53 C -0.1420(4) 0.3367(3) -0.08245(19)
H44 H -0.1259 0.3300 -0.0513
C54 C -0.1816(4) 0.2879(3) -0.10709(18)
H45 H -0.1906 0.2483 -0.0925
C55 C -0.2083(3) 0.2959(3) -0.15259(16)
C56 C -0.1951(3) 0.3555(3) -0.17227(17)
H46 H -0.2144 0.3630 -0.2028
C57 C -0.1545(3) 0.4042(3) -0.14855(16)
H47 H -0.1461 0.4438 -0.1633
C58 C -0.2517(4) 0.2388(3) -0.17776(16)
H48 H -0.2357 0.1982 -0.1623
H49 H -0.3094 0.2438 -0.1756
C59 C -0.2829(3) 0.2524(3) -0.26385(18)
H50 H -0.3349 0.2679 -0.2607
C60 C -0.1633(3) 0.2147(2) -0.24485(16)
C61 C -0.1761(3) 0.2218(2) -0.29350(16)
C62 C -0.1157(4) 0.2030(3) -0.32289(19)
H51 H -0.1233 0.2070 -0.3551
C63 C -0.0451(4) 0.1785(3) -0.3027(2)
H52 H -0.0044 0.1655 -0.3214
C64 C -0.0335(4) 0.1728(3) -0.2541(3)
H53 H 0.0153 0.1567 -0.2414
C65 C -0.0914(3) 0.1901(3) -0.2250(2)
H54 H -0.0830 0.1855 -0.1929
C66 C 0.2254(3) 0.4267(2) 0.23544(13)
C67 C 0.2000(3) 0.4098(2) 0.18999(13)
H55 H 0.1506 0.3894 0.1837
C68 C 0.2498(3) 0.4238(2) 0.15415(13)
C69 C 0.3226(3) 0.4555(2) 0.16464(14)
H56 H 0.3553 0.4671 0.1409
C70 C 0.3463(3) 0.4696(2) 0.21054(14)
C71 C 0.2977(3) 0.4563(2) 0.24676(14)
H57 H 0.3135 0.4670 0.2774
C72 C 0.2291(3) 0.4028(2) 0.10434(13)
C73 C 0.0508(3) 0.1643(2) -0.08637(14)
H58 H 0.0190 0.1813 -0.0638
C74 C 0.0204(3) 0.1173(2) -0.11773(15)
C75 C 0.0647(3) 0.0912(2) -0.15257(15)
H59 H 0.0430 0.0602 -0.1734
C76 C 0.1417(3) 0.1135(2) -0.15457(14)
C77 C 0.1755(3) 0.1591(2) -0.12384(14)
H60 H 0.2287 0.1723 -0.1260
C78 C 0.1296(3) 0.1853(2) -0.08958(13)
C79 C 0.1660(3) 0.2373(2) -0.05696(13)
C80 C 0.3117(3) 0.2332(2) 0.05063(13)
C81 C 0.3506(3) 0.1811(2) 0.08226(13)
C82 C 0.4295(3) 0.1621(2) 0.07798(14)
H61 H 0.4596 0.1797 0.0548
C83 C 0.4634(3) 0.1156(2) 0.10928(15)
C84 C 0.4221(3) 0.0897(2) 0.14504(15)
H62 H 0.4457 0.0595 0.1659
C85 C 0.3438(3) 0.1109(2) 0.14839(14)
C86 C 0.3074(3) 0.1545(2) 0.11747(14)
H63 H 0.2538 0.1661 0.1201
C87 C 0.2820(3) 0.4167(2) -0.19245(14)
H64 H 0.3324 0.3984 -0.1851
C88 C 0.2593(3) 0.4343(2) -0.23775(14)
C89 C 0.1858(3) 0.4615(2) -0.25081(14)
H65 H 0.1717 0.4723 -0.2816
C90 C 0.1340(3) 0.4720(2) -0.21580(14)
C91 C 0.1543(3) 0.4551(2) -0.16994(13)
H66 H 0.1181 0.4627 -0.1471
C92 C 0.2280(3) 0.4270(2) -0.15812(13)
C93 C 0.2458(3) 0.4029(2) -0.10834(14)
C94 C 0.7337(4) 0.2317(3) 0.17687(16)
H67 H 0.7187 0.1915 0.1607
H68 H 0.7912 0.2378 0.1750
Co1C Co -0.16968(3) 0.18458(3) 0.463210(16)
N12C N 0.4091(2) 0.25552(17) -0.07300(10)
N21 N 0.2054(3) 0.0415(2) 0.05586(16)
N22 N 0.3123(3) -0.0217(2) 0.07697(15)
C95 C 0.2398(3) -0.0029(3) 0.08659(19)
H69 H 0.2139 -0.0184 0.1121
C96 C 0.3267(3) 0.0131(3) 0.03647(19)
C97 C 0.2605(3) 0.0527(3) 0.02329(19)
C98 C 0.2605(4) 0.0924(4) -0.0143(3)
H70 H 0.2168 0.1191 -0.0228
C99 C 0.3291(6) 0.0914(5) -0.0400(3)
H71 H 0.3299 0.1177 -0.0663
C100 C 0.3948(5) 0.0539(4) -0.0283(3)
H72 H 0.4397 0.0558 -0.0461
C101 C 0.3948(4) 0.0124(4) 0.0105(2)
H73 H 0.4386 -0.0144 0.0187
C102 C 0.1257(3) 0.0689(3) 0.0558(2)
H74 H 0.1277 0.1136 0.0447
H75 H 0.1096 0.0703 0.0876
C103 C 0.0618(3) 0.0326(3) 0.02648(19)
C104 C 0.0774(4) -0.0117(4) -0.0049(3)
H76 H 0.1306 -0.0207 -0.0108
C105 C -0.0151(4) 0.0458(4) 0.0294(3)
H77 H -0.0290 0.0796 0.0490
N21B N -0.2054(3) -0.0415(2) -0.05586(16)
N22B N -0.3123(3) 0.0217(2) -0.07697(15)
C95B C -0.2398(3) 0.0029(3) -0.08659(19)
H69B H -0.2139 0.0184 -0.1121
C96B C -0.3267(3) -0.0131(3) -0.03647(19)
C97B C -0.2605(3) -0.0527(3) -0.02329(19)
C98B C -0.2605(4) -0.0924(4) 0.0143(3)
H70B H -0.2168 -0.1191 0.0228
C99B C -0.3291(6) -0.0914(5) 0.0400(3)
H71B H -0.3299 -0.1177 0.0663
C100B C -0.3948(5) -0.0539(4) 0.0283(3)
H72B H -0.4397 -0.0558 0.0461
C101B C -0.3948(4) -0.0124(4) -0.0105(2)
H73B H -0.4386 0.0144 -0.0187
C102B C -0.1257(3) -0.0689(3) -0.0558(2)
H74B H -0.1277 -0.1136 -0.0447
H75B H -0.1096 -0.0703 -0.0876
C103B C -0.0618(3) -0.0326(3) -0.02648(19)
C104B C -0.0774(4) 0.0117(4) 0.0049(3)
H76B H -0.1306 0.0207 0.0108
C105B C 0.0151(4) -0.0458(4) -0.0294(3)
H77B H 0.0290 -0.0796 -0.0490
loop_
_geom_bond_atom_site_label_1
_geom_bond_atom_site_label_2
_geom_bond_site_symmetry_1
_geom_bond_site_symmetry_2
Co1 O1 1_555 1_555
O1 C93 1_555 1_555
N1 Co1 1_555 1_555
C1 N1 1_555 1_555
H1 C1 1_555 1_555
O2 Co1 1_555 1_555
H2 O2 1_555 1_555
H3 O2 1_555 1_555
Co2 O2 1_555 1_555
O3 C93 1_555 1_555
C2 N2 1_555 1_555
N2 C1 1_555 1_555
O4 N17 1_555 1_555
N3 C15 1_555 1_555
C3 N1 1_555 1_555
O5 N17 1_555 1_555
N4 C15 1_555 1_555
C4 C3 1_555 1_555
H4 C4 1_555 1_555
C5 C4 1_555 1_555
H5 C5 1_555 1_555
N5 Co2 1_555 1_555
O6 N18 1_555 1_555
N6 C44 1_555 1_555
C6 C5 1_555 1_555
H6 C6 1_555 1_555
O7 N18 1_555 1_555
O8 Co1 1_555 1_555
N7 C58 1_555 1_555
C7 C2 1_555 1_555
H7 C7 1_555 1_555
C8 N2 1_555 1_555
H8 C8 1_555 1_555
H9 C8 1_555 1_555
N8 C59 1_555 1_555
O9 Co2 1_555 1_555
O10 N19 1_555 1_555
N9 Co2 1_555 1_555
C9 C8 1_555 1_555
O11 N19 1_555 1_555
N10 C22 1_555 1_555
C10 C9 1_555 1_555
H10 C10 1_555 1_555
N11 C36 1_555 1_555
C11 C10 1_555 1_555
H11 C11 1_555 1_555
O12 N20 1_555 1_555
C12 C11 1_555 1_555
O13 N20 1_555 1_555
N12 C37 1_555 1_555
O14 Co2 1_555 1_555
C13 C12 1_555 1_555
H12 C13 1_555 1_555
N13 O16 1_555 1_555
O15 C72 1_555 1_555
N14 O18 1_555 1_555
C14 C9 1_555 1_555
H13 C14 1_555 1_555
C15 H14 1_555 1_555
N15 O23 1_555 1_555
O17 N13 1_555 1_555
C16 N4 1_555 1_555
N16 O21 1_555 1_555
C17 N3 1_555 1_555
N17 C90 1_555 1_555
O19 N14 1_555 1_555
C18 C17 1_555 1_555
H15 C18 1_555 1_555
N18 C88 1_555 1_555
C19 C18 1_555 1_555
H16 C19 1_555 1_555
N19 C76 1_555 1_555
O20 Co2 1_555 1_555
C20 C19 1_555 1_555
H17 C20 1_555 1_555
N20 C74 1_555 1_555
C21 C16 1_555 1_555
H18 C21 1_555 1_555
O22 N16 1_555 1_555
C22 N9 1_555 1_555
H19 C22 1_555 1_555
C23 N10 1_555 1_555
O24 N15 1_555 1_555
C24 N9 1_555 1_555
O25 Co1 1_555 1_555
C25 C24 1_555 1_555
H20 C25 1_555 1_555
C26 C25 1_555 1_555
H21 C26 1_555 1_555
C27 C26 1_555 1_555
H22 C27 1_555 1_555
C28 C23 1_555 1_555
H23 C28 1_555 1_555
C29 N10 1_555 1_555
H24 C29 1_555 1_555
H25 C29 1_555 1_555
C30 C29 1_555 1_555
C31 C30 1_555 1_555
H26 C31 1_555 1_555
C32 C31 1_555 1_555
H27 C32 1_555 1_555
C33 C32 1_555 1_555
C34 C33 1_555 1_555
H28 C34 1_555 1_555
C35 C30 1_555 1_555
H29 C35 1_555 1_555
C36 C33 1_555 1_555
H30 C36 1_555 1_555
H31 C36 1_555 1_555
C37 N11 1_555 1_555
H32 C37 1_555 1_555
C38 N11 1_555 1_555
C39 N12 1_555 1_555
C40 C39 1_555 1_555
H33 C40 1_555 1_555
C41 C40 1_555 1_555
H34 C41 1_555 1_555
C42 C41 1_555 1_555
H35 C42 1_555 1_555
C43 C38 1_555 1_555
H36 C43 1_555 1_555
C44 N5 1_555 1_555
H37 C44 1_555 1_555
C45 N5 1_555 1_555
C46 N6 1_555 1_555
C47 C46 1_555 1_555
H38 C47 1_555 1_555
C48 C47 1_555 1_555
H39 C48 1_555 1_555
C49 C48 1_555 1_555
H40 C49 1_555 1_555
C50 C45 1_555 1_555
H41 C50 1_555 1_555
C51 N6 1_555 1_555
H42 C51 1_555 1_555
H43 C51 1_555 1_555
C52 C51 1_555 1_555
C53 C52 1_555 1_555
H44 C53 1_555 1_555
C54 C53 1_555 1_555
H45 C54 1_555 1_555
C55 C54 1_555 1_555
C56 C55 1_555 1_555
H46 C56 1_555 1_555
C57 C52 1_555 1_555
H47 C57 1_555 1_555
C58 C55 1_555 1_555
H48 C58 1_555 1_555
H49 C58 1_555 1_555
C59 N7 1_555 1_555
H50 C59 1_555 1_555
C60 N7 1_555 1_555
C61 N8 1_555 1_555
C62 C61 1_555 1_555
H51 C62 1_555 1_555
C63 C62 1_555 1_555
H52 C63 1_555 1_555
C64 C63 1_555 1_555
H53 C64 1_555 1_555
C65 C60 1_555 1_555
H54 C65 1_555 1_555
C66 N14 1_555 1_555
C67 C66 1_555 1_555
H55 C67 1_555 1_555
C68 C67 1_555 1_555
C69 C68 1_555 1_555
H56 C69 1_555 1_555
C70 N13 1_555 1_555
C71 C66 1_555 1_555
H57 C71 1_555 1_555
C72 O14 1_555 1_555
C73 H58 1_555 1_555
C74 C73 1_555 1_555
C75 C74 1_555 1_555
H59 C75 1_555 1_555
C76 C75 1_555 1_555
C77 C76 1_555 1_555
H60 C77 1_555 1_555
C78 C73 1_555 1_555
C79 O8 1_555 1_555
C80 O20 1_555 1_555
C81 C80 1_555 1_555
C82 C81 1_555 1_555
H61 C82 1_555 1_555
C83 N15 1_555 1_555
C84 C83 1_555 1_555
H62 C84 1_555 1_555
C85 N16 1_555 1_555
C86 C81 1_555 1_555
H63 C86 1_555 1_555
C87 H64 1_555 1_555
C88 C87 1_555 1_555
C89 C88 1_555 1_555
H65 C89 1_555 1_555
C90 C89 1_555 1_555
C91 C90 1_555 1_555
H66 C91 1_555 1_555
C92 C87 1_555 1_555
C93 C92 1_555 1_555
C94 N3 1_555 1_555
H67 C94 1_555 1_555
H68 C94 1_555 1_555
N21 C95 1_555 1_555
N22 C95 1_555 1_555
C95 H69 1_555 1_555
C96 N22 1_555 1_555
C97 N21 1_555 1_555
C98 C97 1_555 1_555
H70 C98 1_555 1_555
C99 C98 1_555 1_555
H71 C99 1_555 1_555
C100 C99 1_555 1_555
H72 C100 1_555 1_555
C101 C96 1_555 1_555
H73 C101 1_555 1_555
C102 N21 1_555 1_555
H74 C102 1_555 1_555
H75 C102 1_555 1_555
C103 C102 1_555 1_555
C104 C103 1_555 1_555
H76 C104 1_555 1_555
C105 C103 1_555 1_555
H77 C105 1_555 1_555
Co1C N12 1_555 1_555
N12C Co1 1_555 1_555
N21B C95B 1_555 1_555
N22B C95B 1_555 1_555
C95B H69B 1_555 1_555
C96B N22B 1_555 1_555
C97B N21B 1_555 1_555
C98B C97B 1_555 1_555
H70B C98B 1_555 1_555
C99B C98B 1_555 1_555
H71B C99B 1_555 1_555
C100B C99B 1_555 1_555
H72B C100B 1_555 1_555
C101B C96B 1_555 1_555
H73B C101B 1_555 1_555
C102B N21B 1_555 1_555
H74B C102B 1_555 1_555
H75B C102B 1_555 1_555
C103B C102B 1_555 1_555
C104B C105 1_555 1_555
H76B C104B 1_555 1_555
C105B C104 1_555 1_555
H77B C105B 1_555 1_555
C2 C3 1_555 1_555
C6 C7 1_555 1_555
O9 C79 1_555 1_555
C12 C94 1_555 1_555
C13 C14 1_555 1_555
C16 C17 1_555 1_555
C20 C21 1_555 1_555
C23 C24 1_555 1_555
O25 C80 1_555 1_555
C27 C28 1_555 1_555
C34 C35 1_555 1_555
C38 C39 1_555 1_555
C42 C43 1_555 1_555
C45 C46 1_555 1_555
C49 C50 1_555 1_555
C56 C57 1_555 1_555
C60 C61 1_555 1_555
C64 C65 1_555 1_555
C68 C72 1_555 1_555
C69 C70 1_555 1_555
C70 C71 1_555 1_555
C77 C78 1_555 1_555
C78 C79 1_555 1_555
C82 C83 1_555 1_555
C84 C85 1_555 1_555
C85 C86 1_555 1_555
C91 C92 1_555 1_555
C96 C97 1_555 1_555
C100 C101 1_555 1_555
C96B C97B 1_555 1_555
C100B C101B 1_555 1_555
C103B C104B 1_555 1_555
C103B C105B 1_555 1_555

#END
