
#######################################################################
#
#                 Cambridge Crystallographic Data Centre
#                                CCDC 
#
#######################################################################
#
# If this CIF has been generated from an entry in the Cambridge 
# Structural Database, then it will include bibliographic, chemical, 
# crystal, experimental, refinement or atomic coordinate data resulting 
# from the CCDC's data processing and validation procedures.
#
#######################################################################

data_RIHREH
_symmetry_cell_setting           monoclinic
_symmetry_space_group_name_H-M   'P 21/c'
_symmetry_Int_Tables_number      14
_space_group_name_Hall           '-P 2ybc'
loop_
_symmetry_equiv_pos_site_id
_symmetry_equiv_pos_as_xyz
1 x,y,z
2 -x,1/2+y,1/2-z
3 -x,-y,-z
4 x,1/2-y,1/2+z
_cell_length_a                   20.5996(15)
_cell_length_b                   10.0969(8)
_cell_length_c                   18.5081(14)
_cell_angle_alpha                90
_cell_angle_beta                 112.0670(10)
_cell_angle_gamma                90
_cell_volume                     3567.54
loop_
_atom_site_label
_atom_site_type_symbol
_atom_site_fract_x
_atom_site_fract_y
_atom_site_fract_z
Co1 Co 0.266522(15) 0.06920(3) 0.689816(19)
O1 O 0.34446(10) -0.07237(15) 0.70684(11)
N1 N 0.15490(9) 0.07904(18) 0.63731(11)
C1 C 0.12206(12) 0.1705(2) 0.58628(14)
H1 H 0.1451 0.2293 0.5654
O2 O 0.24553(10) -0.17357(18) 0.68681(12)
N2 N 0.05198(10) 0.17191(19) 0.56670(12)
C2 C 0.03732(12) 0.0700(2) 0.60869(14)
N3 N -0.22405(11) 0.5915(2) 0.60133(12)
O3 O 0.24389(10) -0.67362(19) 0.69024(13)
C3 C 0.10172(12) 0.0120(2) 0.65199(14)
N4 N -0.26528(10) 0.56298(19) 0.69558(12)
O4 O 0.34338(10) -0.77945(16) 0.72696(12)
C4 C 0.10512(13) -0.0963(2) 0.70022(15)
H2 H 0.1475 -0.1372 0.7286
N5 N 0.27434(10) 0.08794(19) 0.57447(12)
C5 C 0.04297(15) -0.1403(3) 0.70406(17)
H3 H 0.0437 -0.2122 0.7358
N6 N 0.33047(10) 0.1349(2) 0.49505(13)
C6 C -0.02073(15) -0.0794(3) 0.66149(19)
H4 H -0.0614 -0.1107 0.6663
C7 C -0.02516(13) 0.0256(3) 0.61256(18)
H5 H -0.0678 0.0649 0.5835
C8 C 0.00224(14) 0.2485(3) 0.50249(15)
H6 H -0.0279 0.1867 0.4645
H7 H 0.0285 0.2971 0.4773
C9 C -0.04382(12) 0.3458(2) 0.52336(14)
N7 N 0.52356(12) -0.4292(2) 0.7431(2)
H8 H 0.5450 -0.3560 0.7435
H9 H 0.5456 -0.5032 0.7489
C10 C -0.02655(13) 0.4021(3) 0.59649(15)
H10 H 0.0144 0.3768 0.6371
C11 C -0.07034(13) 0.4964(3) 0.60914(15)
H11 H -0.0585 0.5331 0.6585
C12 C -0.13134(13) 0.5367(2) 0.54948(15)
C13 C -0.14779(13) 0.4805(3) 0.47669(16)
H12 H -0.1882 0.5070 0.4358
C14 C -0.10495(13) 0.3852(3) 0.46364(16)
H13 H -0.1173 0.3475 0.4144
C15 C -0.17809(14) 0.6410(3) 0.56308(17)
H14 H -0.1489 0.7110 0.5949
H15 H -0.2068 0.6794 0.5133
C16 C -0.21606(13) 0.6146(2) 0.67576(15)
H16 H -0.1788 0.6630 0.7101
C17 C -0.28507(14) 0.5185(3) 0.56851(15)
C18 C -0.31107(13) 0.5022(3) 0.62763(15)
C19 C -0.37400(15) 0.4378(3) 0.61297(18)
H17 H -0.3921 0.4271 0.6517
C20 C -0.40873(19) 0.3903(5) 0.5388(2)
H18 H -0.4512 0.3465 0.5273
C21 C -0.3821(2) 0.4059(5) 0.4811(2)
H19 H -0.4072 0.3716 0.4318
C22 C -0.32025(18) 0.4701(4) 0.49366(18)
H20 H -0.3028 0.4806 0.4544
C23 C 0.30916(14) -0.1772(2) 0.70074(14)
C24 C 0.34680(12) -0.3075(2) 0.71183(14)
C25 C 0.31164(12) -0.4256(2) 0.70968(13)
H21 H 0.2643 -0.4247 0.7018
C26 C 0.34714(12) -0.5445(2) 0.71935(13)
C27 C 0.30887(14) -0.6736(2) 0.71291(15)
C28 C 0.41757(12) -0.5455(2) 0.73079(16)
H22 H 0.4410 -0.6260 0.7370
C29 C 0.45417(13) -0.4280(2) 0.73313(18)
C30 C 0.41726(12) -0.3096(2) 0.72358(17)
H23 H 0.4405 -0.2300 0.7251
C31 C 0.32045(12) 0.1641(2) 0.56116(15)
H24 H 0.3441 0.2322 0.5945
C32 C 0.25358(12) -0.0019(2) 0.51237(15)
C33 C 0.28875(13) 0.0264(3) 0.46259(15)
C34 C 0.28098(15) -0.0493(3) 0.39766(17)
H25 H 0.3049 -0.0292 0.3653
C35 C 0.23636(17) -0.1557(3) 0.38315(19)
H26 H 0.2298 -0.2091 0.3400
C36 C 0.20053(15) -0.1853(3) 0.43246(19)
H27 H 0.1703 -0.2574 0.4208
C37 C 0.20896(13) -0.1105(3) 0.49761(17)
H28 H 0.1857 -0.1318 0.5305
C38 C 0.38576(14) 0.1881(3) 0.47142(18)
H29 H 0.4039 0.2692 0.4999
H30 H 0.3662 0.2093 0.4163
C39 C 0.44508(13) 0.0897(3) 0.48694(15)
C40 C 0.46594(18) 0.0066(4) 0.5500(2)
H31 H 0.4432 0.0099 0.5848
C41 C 0.47957(17) 0.0825(3) 0.4372(2)
H32 H 0.4664 0.1380 0.3940
N5B N 0.72566(10) -0.08794(19) 0.42553(12)
N6B N 0.66953(10) -0.1349(2) 0.50495(13)
C31B C 0.67955(12) -0.1641(2) 0.43884(15)
H24B H 0.6559 -0.2322 0.4055
C32B C 0.74642(12) 0.0019(2) 0.48763(15)
C33B C 0.71125(13) -0.0264(3) 0.53741(15)
C34B C 0.71902(15) 0.0493(3) 0.60234(17)
H25B H 0.6951 0.0292 0.6347
C35B C 0.76364(17) 0.1557(3) 0.61685(19)
H26B H 0.7702 0.2091 0.6600
C36B C 0.79947(15) 0.1853(3) 0.56754(19)
H27B H 0.8297 0.2574 0.5792
C37B C 0.79104(13) 0.1105(3) 0.50239(17)
H28B H 0.8143 0.1318 0.4695
C38B C 0.61424(14) -0.1881(3) 0.52858(18)
H29B H 0.5961 -0.2692 0.5001
H30B H 0.6338 -0.2093 0.5837
C39B C 0.55492(13) -0.0897(3) 0.51306(15)
C40B C 0.53406(18) -0.0066(4) 0.4500(2)
H31B H 0.5568 -0.0099 0.4152
C41B C 0.52043(17) -0.0825(3) 0.5628(2)
H32B H 0.5336 -0.1380 0.6060
Co1B Co 0.733478(15) -0.06920(3) 0.310184(19)
O1B O 0.65554(10) 0.07237(15) 0.29316(11)
N1B N 0.84510(9) -0.07904(18) 0.36269(11)
C1B C 0.87794(12) -0.1705(2) 0.41372(14)
H1B H 0.8549 -0.2293 0.4346
O2B O 0.75447(10) 0.17357(18) 0.31319(12)
N2B N 0.94802(10) -0.17191(19) 0.43330(12)
C2B C 0.96268(12) -0.0700(2) 0.39131(14)
N3B N 1.22405(11) -0.5915(2) 0.39867(12)
O3B O 0.75611(10) 0.67362(19) 0.30976(13)
C3B C 0.89828(12) -0.0120(2) 0.34801(14)
N4B N 1.26528(10) -0.56298(19) 0.30442(12)
O4B O 0.65662(10) 0.77945(16) 0.27304(12)
C4B C 0.89488(13) 0.0963(2) 0.29978(15)
H2B H 0.8525 0.1372 0.2714
C5B C 0.95703(15) 0.1403(3) 0.29594(17)
H3B H 0.9563 0.2122 0.2642
C6B C 1.02073(15) 0.0794(3) 0.33851(19)
H4B H 1.0614 0.1107 0.3337
C7B C 1.02516(13) -0.0256(3) 0.38744(18)
H5B H 1.0678 -0.0649 0.4165
C8B C 0.99776(14) -0.2485(3) 0.49751(15)
H6B H 1.0279 -0.1867 0.5355
H7B H 0.9715 -0.2971 0.5227
C9B C 1.04382(12) -0.3458(2) 0.47664(14)
N7B N 0.47644(12) 0.4292(2) 0.2569(2)
H8B H 0.4550 0.3560 0.2565
H9B H 0.4544 0.5032 0.2511
C10B C 1.02655(13) -0.4021(3) 0.40351(15)
H10B H 0.9856 -0.3768 0.3629
C11B C 1.07034(13) -0.4964(3) 0.39086(15)
H11B H 1.0585 -0.5331 0.3415
C12B C 1.13134(13) -0.5367(2) 0.45052(15)
C13B C 1.14779(13) -0.4805(3) 0.52331(16)
H12B H 1.1882 -0.5070 0.5642
C14B C 1.10495(13) -0.3852(3) 0.53636(16)
H13B H 1.1173 -0.3475 0.5856
C15B C 1.17809(14) -0.6410(3) 0.43692(17)
H14B H 1.1489 -0.7110 0.4051
H15B H 1.2068 -0.6794 0.4867
C16B C 1.21606(13) -0.6146(2) 0.32424(15)
H16B H 1.1788 -0.6630 0.2899
C17B C 1.28507(14) -0.5185(3) 0.43149(15)
C18B C 1.31107(13) -0.5022(3) 0.37237(15)
C19B C 1.37400(15) -0.4378(3) 0.38703(18)
H17B H 1.3921 -0.4271 0.3483
C20B C 1.40873(19) -0.3903(5) 0.4612(2)
H18B H 1.4512 -0.3465 0.4727
C21B C 1.3821(2) -0.4059(5) 0.5189(2)
H19B H 1.4072 -0.3716 0.5682
C22B C 1.32025(18) -0.4701(4) 0.50634(18)
H20B H 1.3028 -0.4806 0.5456
C23B C 0.69084(14) 0.1772(2) 0.29926(14)
C24B C 0.65320(12) 0.3075(2) 0.28817(14)
C25B C 0.68836(12) 0.4256(2) 0.29032(13)
H21B H 0.7357 0.4247 0.2982
C26B C 0.65286(12) 0.5445(2) 0.28065(13)
C27B C 0.69113(14) 0.6736(2) 0.28709(15)
C28B C 0.58243(12) 0.5455(2) 0.26921(16)
H22B H 0.5590 0.6260 0.2630
C29B C 0.54583(13) 0.4280(2) 0.26687(18)
C30B C 0.58274(12) 0.3096(2) 0.27642(17)
H23B H 0.5595 0.2300 0.2749
Co1_2 Co 0.266522(15) -0.93080(3) 0.689816(19)
Co1A Co -0.266522(15) 0.56920(3) 0.810184(19)
Co1B_2 Co 0.733478(15) 0.93080(3) 0.310184(19)
Co1C Co 1.266522(15) -0.56920(3) 0.189816(19)
N4A N 0.26528(10) 0.06298(19) 0.80442(12)
N4C N 0.73472(10) -0.06298(19) 0.19558(12)
O4_2 O 0.34338(10) 0.22055(16) 0.72696(12)
O4B_2 O 0.65662(10) -0.22055(16) 0.27304(12)
O5 O 0.14110(15) -0.5972(3) 0.7454(2)
H33 H 0.138(2) -0.508(5) 0.744(3)
H34 H 0.178(2) -0.614(4) 0.725(3)
loop_
_geom_bond_atom_site_label_1
_geom_bond_atom_site_label_2
_geom_bond_site_symmetry_1
_geom_bond_site_symmetry_2
Co1 O1 1_555 1_555
O1 C23 1_555 1_555
N1 Co1 1_555 1_555
C1 N1 1_555 1_555
H1 C1 1_555 1_555
O2 C23 1_555 1_555
N2 C1 1_555 1_555
C2 N2 1_555 1_555
N3 C15 1_555 1_555
O3 C27 1_555 1_555
C3 N1 1_555 1_555
N4 C16 1_555 1_555
O4 C27 1_555 1_555
C4 C3 1_555 1_555
H2 C4 1_555 1_555
N5 Co1 1_555 1_555
C5 C4 1_555 1_555
H3 C5 1_555 1_555
N6 C31 1_555 1_555
C6 C5 1_555 1_555
H4 C6 1_555 1_555
C7 C2 1_555 1_555
H5 C7 1_555 1_555
C8 N2 1_555 1_555
H6 C8 1_555 1_555
H7 C8 1_555 1_555
C9 C8 1_555 1_555
N7 H8 1_555 1_555
H9 N7 1_555 1_555
C10 C9 1_555 1_555
H10 C10 1_555 1_555
C11 C10 1_555 1_555
H11 C11 1_555 1_555
C12 C11 1_555 1_555
C13 C12 1_555 1_555
H12 C13 1_555 1_555
C14 C9 1_555 1_555
H13 C14 1_555 1_555
C15 C12 1_555 1_555
H14 C15 1_555 1_555
H15 C15 1_555 1_555
C16 N3 1_555 1_555
H16 C16 1_555 1_555
C17 N3 1_555 1_555
C18 N4 1_555 1_555
C19 C18 1_555 1_555
H17 C19 1_555 1_555
C20 C19 1_555 1_555
H18 C20 1_555 1_555
C21 C20 1_555 1_555
H19 C21 1_555 1_555
C22 C17 1_555 1_555
H20 C22 1_555 1_555
C23 C24 1_555 1_555
C24 C25 1_555 1_555
C25 H21 1_555 1_555
C26 C25 1_555 1_555
C27 C26 1_555 1_555
C28 C26 1_555 1_555
H22 C28 1_555 1_555
C29 N7 1_555 1_555
C30 C24 1_555 1_555
H23 C30 1_555 1_555
C31 N5 1_555 1_555
H24 C31 1_555 1_555
C32 N5 1_555 1_555
C33 N6 1_555 1_555
C34 C33 1_555 1_555
H25 C34 1_555 1_555
C35 C34 1_555 1_555
H26 C35 1_555 1_555
C36 C35 1_555 1_555
H27 C36 1_555 1_555
C37 C32 1_555 1_555
H28 C37 1_555 1_555
C38 N6 1_555 1_555
H29 C38 1_555 1_555
H30 C38 1_555 1_555
C39 C38 1_555 1_555
C40 C39 1_555 1_555
H31 C40 1_555 1_555
C41 C39 1_555 1_555
H32 C41 1_555 1_555
O5 H33 1_555 1_555
H34 O5 1_555 1_555
N5B C31B 1_555 1_555
N6B C31B 1_555 1_555
C31B H24B 1_555 1_555
C32B N5B 1_555 1_555
C33B N6B 1_555 1_555
C34B C33B 1_555 1_555
H25B C34B 1_555 1_555
C35B C34B 1_555 1_555
H26B C35B 1_555 1_555
C36B C35B 1_555 1_555
H27B C36B 1_555 1_555
C37B C32B 1_555 1_555
H28B C37B 1_555 1_555
C38B N6B 1_555 1_555
H29B C38B 1_555 1_555
H30B C38B 1_555 1_555
C39B C38B 1_555 1_555
C40B C41 1_555 1_555
H31B C40B 1_555 1_555
C41B C40 1_555 1_555
H32B C41B 1_555 1_555
Co1B N5B 1_555 1_555
O1B Co1B 1_555 1_555
N1B Co1B 1_555 1_555
C1B N1B 1_555 1_555
H1B C1B 1_555 1_555
O2B C23B 1_555 1_555
N2B C1B 1_555 1_555
C2B N2B 1_555 1_555
N3B C15B 1_555 1_555
O3B C27B 1_555 1_555
C3B N1B 1_555 1_555
N4B C16B 1_555 1_555
O4B C27B 1_555 1_555
C4B C3B 1_555 1_555
H2B C4B 1_555 1_555
C5B C4B 1_555 1_555
H3B C5B 1_555 1_555
C6B C5B 1_555 1_555
H4B C6B 1_555 1_555
C7B C2B 1_555 1_555
H5B C7B 1_555 1_555
C8B N2B 1_555 1_555
H6B C8B 1_555 1_555
H7B C8B 1_555 1_555
C9B C8B 1_555 1_555
N7B H8B 1_555 1_555
H9B N7B 1_555 1_555
C10B C9B 1_555 1_555
H10B C10B 1_555 1_555
C11B C10B 1_555 1_555
H11B C11B 1_555 1_555
C12B C11B 1_555 1_555
C13B C12B 1_555 1_555
H12B C13B 1_555 1_555
C14B C9B 1_555 1_555
H13B C14B 1_555 1_555
C15B C12B 1_555 1_555
H14B C15B 1_555 1_555
H15B C15B 1_555 1_555
C16B N3B 1_555 1_555
H16B C16B 1_555 1_555
C17B N3B 1_555 1_555
C18B N4B 1_555 1_555
C19B C18B 1_555 1_555
H17B C19B 1_555 1_555
C20B C19B 1_555 1_555
H18B C20B 1_555 1_555
C21B C20B 1_555 1_555
H19B C21B 1_555 1_555
C22B C17B 1_555 1_555
H20B C22B 1_555 1_555
C23B O1B 1_555 1_555
C24B C23B 1_555 1_555
C25B C24B 1_555 1_555
H21B C25B 1_555 1_555
C26B C25B 1_555 1_555
C27B C26B 1_555 1_555
C28B C26B 1_555 1_555
H22B C28B 1_555 1_555
C29B N7B 1_555 1_555
C30B C24B 1_555 1_555
H23B C30B 1_555 1_555
Co1_2 O4 1_555 1_555
Co1A N4 1_555 1_555
Co1B_2 O4B 1_555 1_555
Co1C N4B 1_555 1_555
N4A Co1 1_555 1_555
N4C Co1B 1_555 1_555
O4_2 Co1 1_555 1_555
O4B_2 Co1B 1_555 1_555
C2 C3 1_555 1_555
C6 C7 1_555 1_555
C13 C14 1_555 1_555
C17 C18 1_555 1_555
C21 C22 1_555 1_555
C28 C29 1_555 1_555
C29 C30 1_555 1_555
C32 C33 1_555 1_555
C36 C37 1_555 1_555
C32B C33B 1_555 1_555
C36B C37B 1_555 1_555
C39B C40B 1_555 1_555
C39B C41B 1_555 1_555
C2B C3B 1_555 1_555
C6B C7B 1_555 1_555
C13B C14B 1_555 1_555
C17B C18B 1_555 1_555
C21B C22B 1_555 1_555
C28B C29B 1_555 1_555
C29B C30B 1_555 1_555

#END
