
#######################################################################
#
#                 Cambridge Crystallographic Data Centre
#                                CCDC 
#
#######################################################################
#
# If this CIF has been generated from an entry in the Cambridge 
# Structural Database, then it will include bibliographic, chemical, 
# crystal, experimental, refinement or atomic coordinate data resulting 
# from the CCDC's data processing and validation procedures.
#
#######################################################################

data_RIHSIK
_symmetry_cell_setting           orthorhombic
_symmetry_space_group_name_H-M   'P n m a'
_symmetry_Int_Tables_number      62
_space_group_name_Hall           '-P 2ac 2n'
loop_
_symmetry_equiv_pos_site_id
_symmetry_equiv_pos_as_xyz
1 x,y,z
2 1/2-x,1/2+y,1/2+z
3 x,1/2-y,z
4 1/2+x,y,1/2-z
5 -x,-y,-z
6 1/2+x,1/2-y,1/2-z
7 -x,1/2+y,-z
8 1/2-x,-y,1/2+z
_cell_length_a                   9.937(1)
_cell_length_b                   6.797(1)
_cell_length_c                   16.711(1)
_cell_angle_alpha                90
_cell_angle_beta                 90
_cell_angle_gamma                90
_cell_volume                     1128.69
loop_
_atom_site_label
_atom_site_type_symbol
_atom_site_fract_x
_atom_site_fract_y
_atom_site_fract_z
Cu1 Cu 0.66957(5) 0.2500 0.73923(3)
O1 O 0.7131(3) 0.2500 0.6251(2)
O2 O 0.8982(3) 0.2500 0.7454(1)
N1 N 0.8769(4) 0.2500 0.5316(2)
N2 N 1.0692(3) 0.2500 0.6564(2)
N3 N 1.0829(4) 0.2500 0.3690(3)
N4 N 1.3605(5) 0.2500 0.5475(4)
N5 N 0.6654(2) 0.5468(3) 0.7375(1)
C1 C 0.8379(4) 0.2500 0.6071(2)
C2 C 0.9371(4) 0.2500 0.6742(2)
C3 C 1.1059(4) 0.2500 0.5779(2)
C4 C 1.0120(4) 0.2500 0.5180(2)
C5 C 1.2477(5) 0.2500 0.5609(3)
C6 C 1.0531(5) 0.2500 0.4355(2)
C7 C 0.7331(3) 0.6477(4) 0.7931(2)
C8 C 0.5987(3) 0.6483(4) 0.6820(2)
H1 H 0.783(3) 0.566(6) 0.836(2)
H2 H 0.546(3) 0.581(6) 0.643(2)
C7B C 0.7331(3) 0.8523(4) 0.7931(2)
N5B N 0.6654(2) 0.9532(3) 0.7375(1)
C8B C 0.5987(3) 0.8517(4) 0.6820(2)
H2B H 0.546(3) 0.919(6) 0.643(2)
H1B H 0.783(3) 0.934(6) 0.836(2)
O2C O 0.3982(3) 0.2500 0.7546(1)
N2C N 0.5692(3) 0.2500 0.8436(2)
N5B_2 N 0.6654(2) -0.0468(3) 0.7375(1)
Cu1C Cu 1.16957(5) 0.2500 0.76077(3)
Cu1_2 Cu 0.66957(5) 1.2500 0.73923(3)
O3 O 0.6109(5) 0.2500 0.4506(3)
H3 H 0.686(6) 0.2500 0.472(4)
H4 H 0.528(5) 0.2500 0.484(3)
loop_
_geom_bond_atom_site_label_1
_geom_bond_atom_site_label_2
_geom_bond_site_symmetry_1
_geom_bond_site_symmetry_2
Cu1 O1 1_555 1_555
O1 C1 1_555 1_555
O2 Cu1 1_555 1_555
O3 H3 1_555 1_555
N1 C1 1_555 1_555
N2 C2 1_555 1_555
N3 C6 1_555 1_555
N4 C5 1_555 1_555
N5 Cu1 1_555 1_555
C1 C2 1_555 1_555
C2 O2 1_555 1_555
C3 N2 1_555 1_555
C4 N1 1_555 1_555
C5 C3 1_555 1_555
C6 C4 1_555 1_555
C7 N5 1_555 1_555
C8 N5 1_555 1_555
H1 C7 1_555 1_555
H2 C8 1_555 1_555
H4 O3 1_555 1_555
C7B C7 1_555 1_555
N5B C7B 1_555 1_555
C8B C8 1_555 1_555
H2B C8B 1_555 1_555
H1B C7B 1_555 1_555
O2C Cu1 1_555 1_555
N2C Cu1 1_555 1_555
N5B_2 Cu1 1_555 1_555
Cu1C O2 1_555 1_555
Cu1_2 N5B 1_555 1_555
N2 Cu1C 1_555 1_555
C3 C4 1_555 1_555
N5B C8B 1_555 1_555

#END
