
#######################################################################
#
#                 Cambridge Crystallographic Data Centre
#                                CCDC 
#
#######################################################################
#
# If this CIF has been generated from an entry in the Cambridge 
# Structural Database, then it will include bibliographic, chemical, 
# crystal, experimental, refinement or atomic coordinate data resulting 
# from the CCDC's data processing and validation procedures.
#
#######################################################################

data_RIHWUC
_symmetry_cell_setting           monoclinic
_symmetry_space_group_name_H-M   'P 21/c'
_symmetry_Int_Tables_number      14
_space_group_name_Hall           '-P 2ybc'
loop_
_symmetry_equiv_pos_site_id
_symmetry_equiv_pos_as_xyz
1 x,y,z
2 -x,1/2+y,1/2-z
3 -x,-y,-z
4 x,1/2-y,1/2+z
_cell_length_a                   10.5461(6)
_cell_length_b                   13.5619(10)
_cell_length_c                   17.8840(10)
_cell_angle_alpha                90
_cell_angle_beta                 104.436(6)
_cell_angle_gamma                90
_cell_volume                     2477.1
loop_
_atom_site_label
_atom_site_type_symbol
_atom_site_fract_x
_atom_site_fract_y
_atom_site_fract_z
Ag1 Ag -0.14714(4) 0.55235(4) 0.14523(3)
S1 S 0.2883(3) 0.31935(18) 0.00818(14)
O1 O 0.3588(6) 0.5138(4) 0.6295(2)
H1 H 0.3659 0.5017 0.6753
O2 O 0.4146(10) 0.6610(5) 0.6745(3)
O3 O 0.6725(4) 0.5437(3) 0.2376(2)
O4 O 0.6471(4) 0.5176(4) 0.1135(2)
N1 N 0.0495(4) 0.6021(4) 0.1846(3)
N2 N 0.2282(4) 0.6761(3) 0.2500(2)
C1 C 0.0980(5) 0.6731(4) 0.2356(3)
C2 C 0.3145(5) 0.7409(4) 0.3068(3)
H2 H 0.2757 0.8061 0.3040
H3 H 0.3981 0.7469 0.2938
C3 C 0.3369(5) 0.7021(4) 0.3886(3)
C4 C 0.3313(8) 0.6035(5) 0.4054(3)
H4 H 0.3160 0.5578 0.3655
C5 C 0.3478(7) 0.5709(5) 0.4803(3)
H5 H 0.3400 0.5041 0.4901
C6 C 0.3758(7) 0.6366(5) 0.5403(3)
C7 C 0.3859(8) 0.6055(5) 0.6217(3)
C8 C 0.3893(9) 0.7338(5) 0.5244(4)
H6 H 0.4125 0.7786 0.5648
C9 C 0.3688(9) 0.7674(5) 0.4484(4)
H7 H 0.3770 0.8342 0.4387
C10 C 0.1557(5) 0.5585(4) 0.1663(3)
H8 H 0.1515 0.5062 0.1322
C11 C 0.2691(5) 0.6040(4) 0.2062(3)
C12 C 0.4057(5) 0.5864(4) 0.2090(3)
H9 H 0.4665 0.6108 0.2520
C13 C 0.4543(5) 0.5388(4) 0.1565(3)
C14 C 0.6001(5) 0.5319(4) 0.1711(3)
C15 C 0.3742(5) 0.4974(4) 0.0819(3)
H10 H 0.4229 0.5036 0.0428
H11 H 0.2944 0.5356 0.0652
C16 C 0.3395(6) 0.3913(4) 0.0890(3)
C17 C 0.3408(6) 0.3368(4) 0.1565(4)
H12 H 0.3642 0.3620 0.2064
C18 C 0.2725(12) 0.2183(7) 0.0627(6)
H13 H 0.2463 0.1567 0.0418
C19 C 0.0153(7) 0.7411(6) 0.2689(4)
H14 H 0.0681 0.7693 0.3163
H15 H -0.0549 0.7037 0.2816
C20 C -0.0462(16) 0.8278(9) 0.2112(12)
H16 H -0.1035 0.7992 0.1654
H17 H -0.0994 0.8689 0.2357
C21 C 0.0463(16) 0.8874(11) 0.1887(10)
H18 H 0.1052 0.8453 0.1692
H19 H 0.0980 0.9210 0.2340
C22 C 0.3010(8) 0.2368(6) 0.1372(6)
H20 H 0.2959 0.1895 0.1739
C23 C -0.013(2) 0.9679(13) 0.1247(11)
H21 H -0.1056 0.9723 0.1183
H22 H 0.0054 0.9493 0.0766
H23 H 0.0266 1.0308 0.1407
N3 N -0.0697(11) 0.4148(9) 0.0600(7)
C24 C -0.0650(10) 0.3412(8) 0.0298(6)
C25 C -0.0650(15) 0.2515(11) -0.0147(10)
H24 H -0.1181 0.2025 0.0017
H25 H 0.0230 0.2274 -0.0065
H26 H -0.1000 0.2652 -0.0685
Ag1_2 Ag 0.85286(4) 0.55235(4) 0.14523(3)
O4_2 O -0.3529(4) 0.5176(4) 0.1135(2)
loop_
_geom_bond_atom_site_label_1
_geom_bond_atom_site_label_2
_geom_bond_site_symmetry_1
_geom_bond_site_symmetry_2
Ag1 N1 1_555 1_555
S1 C16 1_555 1_555
O1 H1 1_555 1_555
O2 C7 1_555 1_555
O3 C14 1_555 1_555
O4 C14 1_555 1_555
N1 C1 1_555 1_555
N2 C1 1_555 1_555
C1 C19 1_555 1_555
C2 N2 1_555 1_555
H2 C2 1_555 1_555
H3 C2 1_555 1_555
C3 C2 1_555 1_555
C4 C3 1_555 1_555
H4 C4 1_555 1_555
C5 C4 1_555 1_555
H5 C5 1_555 1_555
C6 C5 1_555 1_555
C7 O1 1_555 1_555
C8 C6 1_555 1_555
H6 C8 1_555 1_555
C9 C3 1_555 1_555
H7 C9 1_555 1_555
C10 N1 1_555 1_555
H8 C10 1_555 1_555
C11 N2 1_555 1_555
C12 C11 1_555 1_555
H9 C12 1_555 1_555
C13 C12 1_555 1_555
C14 C13 1_555 1_555
C15 C13 1_555 1_555
H10 C15 1_555 1_555
H11 C15 1_555 1_555
C16 C15 1_555 1_555
C17 C16 1_555 1_555
H12 C17 1_555 1_555
C18 S1 1_555 1_555
H13 C18 1_555 1_555
C19 H14 1_555 1_555
H15 C19 1_555 1_555
C20 C19 1_555 1_555
H16 C20 1_555 1_555
H17 C20 1_555 1_555
C21 C20 1_555 1_555
H18 C21 1_555 1_555
H19 C21 1_555 1_555
C22 C17 1_555 1_555
H20 C22 1_555 1_555
C23 C21 1_555 1_555
H21 C23 1_555 1_555
H22 C23 1_555 1_555
H23 C23 1_555 1_555
N3 Ag1 1_555 1_555
C24 N3 1_555 1_555
C25 C24 1_555 1_555
H24 C25 1_555 1_555
H25 C25 1_555 1_555
H26 C25 1_555 1_555
Ag1_2 O4 1_555 1_555
O4_2 Ag1 1_555 1_555
C6 C7 1_555 1_555
C8 C9 1_555 1_555
C10 C11 1_555 1_555
C18 C22 1_555 1_555

#END
