
#######################################################################
#
#                 Cambridge Crystallographic Data Centre
#                                CCDC 
#
#######################################################################
#
# If this CIF has been generated from an entry in the Cambridge 
# Structural Database, then it will include bibliographic, chemical, 
# crystal, experimental, refinement or atomic coordinate data resulting 
# from the CCDC's data processing and validation procedures.
#
#######################################################################

data_RIHWOW
_symmetry_cell_setting           triclinic
_symmetry_space_group_name_H-M   'P -1'
_symmetry_Int_Tables_number      2
_space_group_name_Hall           '-P 1'
loop_
_symmetry_equiv_pos_site_id
_symmetry_equiv_pos_as_xyz
1 x,y,z
2 -x,-y,-z
_cell_length_a                   8.1957(3)
_cell_length_b                   10.6351(5)
_cell_length_c                   13.0526(6)
_cell_angle_alpha                70.577(4)
_cell_angle_beta                 89.354(3)
_cell_angle_gamma                85.356(3)
_cell_volume                     1069.27
loop_
_atom_site_label
_atom_site_type_symbol
_atom_site_fract_x
_atom_site_fract_y
_atom_site_fract_z
Ag1 Ag 0.09750(3) 0.42263(2) 0.370005(19)
O1 O 0.1356(2) -0.3709(2) 0.35014(17)
C1 C 0.0967(3) 0.0341(3) 0.3263(2)
C2 C 0.5379(3) -0.0758(3) 0.4004(2)
H1 H 0.4916 0.0117 0.3831
C3 C 0.4687(3) -0.1851(3) 0.4684(2)
C4 C 0.7311(3) -0.2465(3) 0.3950(3)
H2 H 0.8257 -0.2871 0.3756
C5 C 0.0415(3) 0.2491(3) 0.2263(2)
C6 C 0.0465(4) 0.0889(3) 0.1218(2)
H3 H -0.0471 0.1377 0.0773
H4 H 0.0347 -0.0060 0.1394
C7 C 0.2021(4) 0.1241(3) 0.0583(2)
C8 C 0.1122(3) 0.1154(3) 0.3883(2)
H5 H 0.1413 0.0855 0.4616
C9 C -0.0096(4) 0.3723(3) 0.1340(3)
H6 H -0.0118 0.3508 0.0675
H7 H 0.0701 0.4375 0.1259
C10 C 0.4965(4) 0.1245(3) 0.0529(3)
H8 H 0.5979 0.1017 0.0884
C11 C 0.6904(4) -0.1124(3) 0.3590(3)
H9 H 0.7549 -0.0507 0.3122
C12 C 0.1070(3) -0.1097(3) 0.3500(2)
H10 H 0.0521 -0.1381 0.3007
C13 C 0.1838(3) -0.2079(3) 0.4323(2)
C14 C 0.2985(3) -0.1892(3) 0.5153(2)
H11 H 0.2958 -0.2627 0.5833
H12 H 0.2664 -0.1064 0.5289
C15 C 0.1934(4) 0.1912(3) -0.0529(2)
H13 H 0.0922 0.2132 -0.0885
C16 C 0.4877(4) 0.1934(3) -0.0583(2)
C17 C -0.3160(4) 0.3429(4) 0.1572(3)
H14 H -0.2925 0.2599 0.2168
H15 H -0.3178 0.3217 0.0905
C18 C 0.6429(4) 0.2309(3) -0.1190(2)
C19 C -0.1806(4) 0.4341(3) 0.1517(3)
H16 H -0.1781 0.4544 0.2188
H17 H -0.2051 0.5176 0.0928
C20 C -0.4852(4) 0.4056(4) 0.1734(3)
H18 H -0.5097 0.4876 0.1144
H19 H -0.4855 0.4238 0.2407
H20 H -0.5664 0.3448 0.1752
N1 N 0.0784(3) 0.2470(2) 0.3256(2)
C21 C 0.3361(4) 0.2258(3) -0.1114(2)
H21 H 0.3298 0.2706 -0.1859
O2 O 0.6171(2) 0.2855(2) -0.22453(17)
H22 H 0.7025 0.3124 -0.2539
O3 O 0.7764(3) 0.2133(3) -0.07521(19)
S1 S 0.58662(9) -0.33162(8) 0.48038(6)
C22 C 0.3549(4) 0.0896(3) 0.1112(3)
H23 H 0.3616 0.0432 0.1855
N2 N 0.0495(3) 0.1222(2) 0.2233(2)
C23 C 0.1633(3) -0.3496(3) 0.4396(2)
O4 O 0.1728(2) -0.4393(2) 0.53007(17)
Ag1_2 Ag 0.09750(3) -0.57737(2) 0.370005(19)
Ag1A Ag -0.09750(3) -0.42263(2) 0.629995(19)
O1_2 O 0.1356(2) 0.6291(2) 0.35014(17)
O4A O -0.1728(2) 0.4393(2) 0.46993(17)
loop_
_geom_bond_atom_site_label_1
_geom_bond_atom_site_label_2
_geom_bond_site_symmetry_1
_geom_bond_site_symmetry_2
Ag1 N1 1_555 1_555
O1 C23 1_555 1_555
C1 C8 1_555 1_555
C2 H1 1_555 1_555
C3 C2 1_555 1_555
C4 H2 1_555 1_555
C5 C9 1_555 1_555
C6 H3 1_555 1_555
H4 C6 1_555 1_555
C7 C6 1_555 1_555
C8 H5 1_555 1_555
C9 H6 1_555 1_555
H7 C9 1_555 1_555
C10 H8 1_555 1_555
C11 C2 1_555 1_555
H9 C11 1_555 1_555
C12 C1 1_555 1_555
H10 C12 1_555 1_555
C13 C12 1_555 1_555
C14 C3 1_555 1_555
H11 C14 1_555 1_555
H12 C14 1_555 1_555
C15 C7 1_555 1_555
H13 C15 1_555 1_555
C16 C10 1_555 1_555
C17 H14 1_555 1_555
H15 C17 1_555 1_555
C18 C16 1_555 1_555
C19 C9 1_555 1_555
H16 C19 1_555 1_555
H17 C19 1_555 1_555
C20 C17 1_555 1_555
H18 C20 1_555 1_555
H19 C20 1_555 1_555
H20 C20 1_555 1_555
N1 C5 1_555 1_555
C21 C15 1_555 1_555
H21 C21 1_555 1_555
O2 C18 1_555 1_555
H22 O2 1_555 1_555
O3 C18 1_555 1_555
S1 C3 1_555 1_555
C22 C7 1_555 1_555
H23 C22 1_555 1_555
N2 C1 1_555 1_555
C23 C13 1_555 1_555
O4 C23 1_555 1_555
Ag1_2 O1 1_555 1_555
Ag1A O4 1_555 1_555
O1_2 Ag1 1_555 1_555
O4A Ag1 1_555 1_555
C4 C11 1_555 1_555
C4 S1 1_555 1_555
C5 N2 1_555 1_555
C6 N2 1_555 1_555
C8 N1 1_555 1_555
C10 C22 1_555 1_555
C13 C14 1_555 1_555
C16 C21 1_555 1_555
C17 C19 1_555 1_555

#END
