
#######################################################################
#
#                 Cambridge Crystallographic Data Centre
#                                CCDC 
#
#######################################################################
#
# If this CIF has been generated from an entry in the Cambridge 
# Structural Database, then it will include bibliographic, chemical, 
# crystal, experimental, refinement or atomic coordinate data resulting 
# from the CCDC's data processing and validation procedures.
#
#######################################################################

data_RIHZUF
_symmetry_cell_setting           monoclinic
_symmetry_space_group_name_H-M   'C 2/c'
_symmetry_Int_Tables_number      15
_space_group_name_Hall           '-C 2yn'
loop_
_symmetry_equiv_pos_site_id
_symmetry_equiv_pos_as_xyz
1 x,y,z
2 -x,y,1/2-z
3 1/2+x,1/2+y,z
4 1/2-x,1/2+y,1/2-z
5 -x,-y,-z
6 x,-y,1/2+z
7 1/2-x,1/2-y,-z
8 1/2+x,1/2-y,1/2+z
_cell_length_a                   26.4130(16)
_cell_length_b                   15.7397(10)
_cell_length_c                   15.8586(10)
_cell_angle_alpha                90
_cell_angle_beta                 122.9630(10)
_cell_angle_gamma                90
_cell_volume                     5531.62
loop_
_atom_site_label
_atom_site_type_symbol
_atom_site_fract_x
_atom_site_fract_y
_atom_site_fract_z
Y1 Y 0.015794(17) 0.90895(2) 0.10712(3)
Si1 Si 0.34200(5) 0.90727(7) 0.05197(9)
O1 O 0.06786(15) 1.0091(2) -0.0244(3)
O2 O 0.09900(15) 0.9151(2) 0.0991(3)
O3 O 0.21101(19) 0.7932(3) -0.4432(3)
O4 O 0.29935(18) 0.7323(3) -0.3808(3)
O5 O 0.52103(14) 1.2506(2) 0.1052(3)
O6 O 0.45420(14) 1.31213(19) 0.1244(3)
O7 O 0.44503(16) 0.5417(2) 0.3237(2)
O8 O 0.47615(17) 0.6323(2) 0.4490(3)
O9 O 0.09342(14) 0.8679(2) 0.2734(2)
O10 O 0.0000 0.9624(3) 0.2500
C1 C 0.10722(19) 0.9606(3) 0.0426(4)
C2 C 0.16659(18) 0.9541(3) 0.0517(3)
C3 C 0.1798(2) 1.0050(3) -0.0044(4)
H1 H 0.1530 1.0475 -0.0447
C4 C 0.2326(2) 0.9933(3) -0.0012(3)
H2 H 0.2407 1.0284 -0.0397
C5 C 0.27405(18) 0.9307(2) 0.0578(3)
C6 C 0.26111(19) 0.8826(3) 0.1175(4)
H3 H 0.2886 0.8418 0.1603
C7 C 0.2080(2) 0.8941(3) 0.1147(4)
H4 H 0.2004 0.8613 0.1554
C8 C 0.2653(2) 0.7739(4) -0.3691(4)
C9 C 0.2817(2) 0.8069(3) -0.2690(4)
C10 C 0.2388(2) 0.8399(4) -0.2532(4)
H5 H 0.1985 0.8426 -0.3058
C11 C 0.2566(2) 0.8691(4) -0.1577(4)
H6 H 0.2274 0.8907 -0.1480
C12 C 0.31657(18) 0.8672(3) -0.0761(3)
C13 C 0.3582(2) 0.8322(3) -0.0960(4)
H7 H 0.3986 0.8294 -0.0437
C14 C 0.3421(2) 0.8022(3) -0.1886(4)
H8 H 0.3711 0.7789 -0.1979
C15 C 0.4765(2) 1.2457(3) 0.1121(3)
C16 C 0.4473(2) 1.1614(3) 0.1037(4)
C17 C 0.4589(3) 1.0926(4) 0.0655(6)
H9 H 0.4872 1.0963 0.0480
C18 C 0.4289(3) 1.0166(4) 0.0524(6)
H10 H 0.4373 0.9705 0.0253
C19 C 0.38719(19) 1.0070(3) 0.0782(4)
C20 C 0.3804(3) 1.0746(3) 0.1237(5)
H11 H 0.3556 1.0695 0.1483
C21 C 0.4095(3) 1.1520(3) 0.1352(5)
H12 H 0.4026 1.1976 0.1651
C22 C 0.4530(2) 0.6147(3) 0.3582(4)
C23 C 0.43178(19) 0.6874(3) 0.2846(3)
C24 C 0.4450(2) 0.7697(3) 0.3163(4)
H13 H 0.4693 0.7814 0.3847
C25 C 0.4227(2) 0.8358(3) 0.2480(4)
H14 H 0.4328 0.8915 0.2711
C26 C 0.38535(18) 0.8206(3) 0.1449(3)
C27 C 0.3745(2) 0.7377(3) 0.1156(4)
H15 H 0.3507 0.7252 0.0473
C28 C 0.3976(2) 0.6717(3) 0.1836(3)
H16 H 0.3898 0.6159 0.1606
Y1A Y -0.015794(17) 0.90895(2) 0.39288(3)
Si1A Si -0.34200(5) 0.90727(7) 0.44803(9)
O1A O -0.06786(15) 1.0091(2) 0.5244(3)
O2A O -0.09900(15) 0.9151(2) 0.4009(3)
O3A O -0.21101(19) 0.7932(3) 0.9432(3)
O4A O -0.29935(18) 0.7323(3) 0.8808(3)
O5A O -0.52103(14) 1.2506(2) 0.3948(3)
O6A O -0.45420(14) 1.31213(19) 0.3756(3)
O7A O -0.44503(16) 0.5417(2) 0.1763(2)
O8A O -0.47615(17) 0.6323(2) 0.0510(3)
O9A O -0.09342(14) 0.8679(2) 0.2266(2)
C1A C -0.10722(19) 0.9606(3) 0.4574(4)
C2A C -0.16659(18) 0.9541(3) 0.4483(3)
C3A C -0.1798(2) 1.0050(3) 0.5044(4)
H1A H -0.1530 1.0475 0.5447
C4A C -0.2326(2) 0.9933(3) 0.5012(3)
H2A H -0.2407 1.0284 0.5397
C5A C -0.27405(18) 0.9307(2) 0.4422(3)
C6A C -0.26111(19) 0.8826(3) 0.3825(4)
H3A H -0.2886 0.8418 0.3397
C7A C -0.2080(2) 0.8941(3) 0.3853(4)
H4A H -0.2004 0.8613 0.3446
C8A C -0.2653(2) 0.7739(4) 0.8691(4)
C9A C -0.2817(2) 0.8069(3) 0.7690(4)
C10A C -0.2388(2) 0.8399(4) 0.7532(4)
H5A H -0.1985 0.8426 0.8058
C11A C -0.2566(2) 0.8691(4) 0.6577(4)
H6A H -0.2274 0.8907 0.6480
C12A C -0.31657(18) 0.8672(3) 0.5761(3)
C13A C -0.3582(2) 0.8322(3) 0.5960(4)
H7A H -0.3986 0.8294 0.5437
C14A C -0.3421(2) 0.8022(3) 0.6886(4)
H8A H -0.3711 0.7789 0.6979
C15A C -0.4765(2) 1.2457(3) 0.3879(3)
C16A C -0.4473(2) 1.1614(3) 0.3963(4)
C17A C -0.4589(3) 1.0926(4) 0.4345(6)
H9A H -0.4872 1.0963 0.4520
C18A C -0.4289(3) 1.0166(4) 0.4476(6)
H10A H -0.4373 0.9705 0.4747
C19A C -0.38719(19) 1.0070(3) 0.4218(4)
C20A C -0.3804(3) 1.0746(3) 0.3763(5)
H11A H -0.3556 1.0695 0.3517
C21A C -0.4095(3) 1.1520(3) 0.3648(5)
H12A H -0.4026 1.1976 0.3349
C22A C -0.4530(2) 0.6147(3) 0.1418(4)
C23A C -0.43178(19) 0.6874(3) 0.2154(3)
C24A C -0.4450(2) 0.7697(3) 0.1837(4)
H13A H -0.4693 0.7814 0.1153
C25A C -0.4227(2) 0.8358(3) 0.2520(4)
H14A H -0.4328 0.8915 0.2289
C26A C -0.38535(18) 0.8206(3) 0.3551(3)
C27A C -0.3745(2) 0.7377(3) 0.3844(4)
H15A H -0.3507 0.7252 0.4527
C28A C -0.3976(2) 0.6717(3) 0.3164(3)
H16A H -0.3898 0.6159 0.3394
Y1B Y -0.484206(17) 0.40895(2) 0.10712(3)
Y1B_2 Y 0.515794(17) 1.40895(2) 0.10712(3)
Y1C Y -0.515794(17) 1.40895(2) 0.39288(3)
Y1C_2 Y 0.484206(17) 0.40895(2) 0.39288(3)
Y1D Y -0.015794(17) 1.09105(2) -0.10712(3)
Y1E Y 0.015794(17) 1.09105(2) 0.60712(3)
Y1F Y -0.515794(17) 0.59105(2) -0.10712(3)
Y1G Y 0.515794(17) 0.59105(2) 0.60712(3)
O1D O -0.06786(15) 0.9909(2) 0.0244(3)
O1E O 0.06786(15) 0.9909(2) 0.4756(3)
O5B O 0.02103(14) 0.7506(2) 0.1052(3)
O5C O -0.02103(14) 0.7506(2) 0.3948(3)
O6B O -0.04580(14) 0.81213(19) 0.1244(3)
O6C O 0.04580(14) 0.81213(19) 0.3756(3)
O7B O -0.05497(16) 1.0417(2) 0.3237(2)
O7C O 0.05497(16) 1.0417(2) 0.1763(2)
O8F O 0.02385(17) 0.8677(2) 0.5510(3)
O8G O -0.02385(17) 0.8677(2) -0.0510(3)
loop_
_geom_bond_atom_site_label_1
_geom_bond_atom_site_label_2
_geom_bond_site_symmetry_1
_geom_bond_site_symmetry_2
Y1 O2 1_555 1_555
Si1 C5 1_555 1_555
O1 C1 1_555 1_555
O2 C1 1_555 1_555
O3 C8 1_555 1_555
O4 C8 1_555 1_555
O5 C15 1_555 1_555
O6 C15 1_555 1_555
O7 C22 1_555 1_555
O8 C22 1_555 1_555
O9 Y1 1_555 1_555
O10 Y1 1_555 1_555
C1 C2 1_555 1_555
C2 C3 1_555 1_555
C3 H1 1_555 1_555
C4 C3 1_555 1_555
H2 C4 1_555 1_555
C5 C4 1_555 1_555
C6 C5 1_555 1_555
H3 C6 1_555 1_555
C7 C2 1_555 1_555
H4 C7 1_555 1_555
C8 C9 1_555 1_555
C9 C10 1_555 1_555
C10 H5 1_555 1_555
C11 C10 1_555 1_555
H6 C11 1_555 1_555
C12 Si1 1_555 1_555
C13 C12 1_555 1_555
H7 C13 1_555 1_555
C14 C9 1_555 1_555
H8 C14 1_555 1_555
C15 C16 1_555 1_555
C16 C17 1_555 1_555
C17 H9 1_555 1_555
C18 C17 1_555 1_555
H10 C18 1_555 1_555
C19 Si1 1_555 1_555
C20 C19 1_555 1_555
H11 C20 1_555 1_555
C21 C16 1_555 1_555
H12 C21 1_555 1_555
C22 C23 1_555 1_555
C23 C24 1_555 1_555
C24 H13 1_555 1_555
C25 C24 1_555 1_555
H14 C25 1_555 1_555
C26 Si1 1_555 1_555
C27 C26 1_555 1_555
H15 C27 1_555 1_555
C28 C23 1_555 1_555
H16 C28 1_555 1_555
Y1A O10 1_555 1_555
Si1A C5A 1_555 1_555
O1A C1A 1_555 1_555
O2A Y1A 1_555 1_555
O3A C8A 1_555 1_555
O4A C8A 1_555 1_555
O5A C15A 1_555 1_555
O6A C15A 1_555 1_555
O7A C22A 1_555 1_555
O8A C22A 1_555 1_555
O9A Y1A 1_555 1_555
C1A O2A 1_555 1_555
C2A C1A 1_555 1_555
C3A C2A 1_555 1_555
H1A C3A 1_555 1_555
C4A C3A 1_555 1_555
H2A C4A 1_555 1_555
C5A C4A 1_555 1_555
C6A C5A 1_555 1_555
H3A C6A 1_555 1_555
C7A C2A 1_555 1_555
H4A C7A 1_555 1_555
C8A C9A 1_555 1_555
C9A C10A 1_555 1_555
C10A H5A 1_555 1_555
C11A C10A 1_555 1_555
H6A C11A 1_555 1_555
C12A Si1A 1_555 1_555
C13A C12A 1_555 1_555
H7A C13A 1_555 1_555
C14A C9A 1_555 1_555
H8A C14A 1_555 1_555
C15A C16A 1_555 1_555
C16A C17A 1_555 1_555
C17A H9A 1_555 1_555
C18A C17A 1_555 1_555
H10A C18A 1_555 1_555
C19A Si1A 1_555 1_555
C20A C19A 1_555 1_555
H11A C20A 1_555 1_555
C21A C16A 1_555 1_555
H12A C21A 1_555 1_555
C22A C23A 1_555 1_555
C23A C24A 1_555 1_555
C24A H13A 1_555 1_555
C25A C24A 1_555 1_555
H14A C25A 1_555 1_555
C26A Si1A 1_555 1_555
C27A C26A 1_555 1_555
H15A C27A 1_555 1_555
C28A C23A 1_555 1_555
H16A C28A 1_555 1_555
Y1B O7A 1_555 1_555
Y1B_2 O5 1_555 1_555
Y1C O5A 1_555 1_555
Y1C_2 O7 1_555 1_555
Y1D O1 1_555 1_555
Y1E O1A 1_555 1_555
Y1F O8A 1_555 1_555
Y1G O8 1_555 1_555
O1D Y1 1_555 1_555
O1E Y1A 1_555 1_555
O5B Y1 1_555 1_555
O5C Y1A 1_555 1_555
O6B Y1 1_555 1_555
O6C Y1A 1_555 1_555
O7B Y1A 1_555 1_555
O7C Y1 1_555 1_555
O8F Y1A 1_555 1_555
O8G Y1 1_555 1_555
O6 Y1B_2 1_555 1_555
C6 C7 1_555 1_555
C11 C12 1_555 1_555
C13 C14 1_555 1_555
C18 C19 1_555 1_555
C20 C21 1_555 1_555
C25 C26 1_555 1_555
C27 C28 1_555 1_555
O6A Y1C 1_555 1_555
C6A C7A 1_555 1_555
C11A C12A 1_555 1_555
C13A C14A 1_555 1_555
C18A C19A 1_555 1_555
C20A C21A 1_555 1_555
C25A C26A 1_555 1_555
C27A C28A 1_555 1_555

#END
