
#######################################################################
#
#                 Cambridge Crystallographic Data Centre
#                                CCDC 
#
#######################################################################
#
# If this CIF has been generated from an entry in the Cambridge 
# Structural Database, then it will include bibliographic, chemical, 
# crystal, experimental, refinement or atomic coordinate data resulting 
# from the CCDC's data processing and validation procedures.
#
#######################################################################

data_RIHZEN
_symmetry_cell_setting           monoclinic
_symmetry_space_group_name_H-M   'P 21/m'
_symmetry_Int_Tables_number      11
_space_group_name_Hall           '-P 2yb'
loop_
_symmetry_equiv_pos_site_id
_symmetry_equiv_pos_as_xyz
1 x,y,z
2 -x,1/2+y,-z
3 -x,-y,-z
4 x,1/2-y,z
_cell_length_a                   7.383(3)
_cell_length_b                   6.568(4)
_cell_length_c                   10.659(4)
_cell_angle_alpha                90
_cell_angle_beta                 93.38(3)
_cell_angle_gamma                90
_cell_volume                     515.972
loop_
_atom_site_label
_atom_site_type_symbol
_atom_site_fract_x
_atom_site_fract_y
_atom_site_fract_z
Cu1 Cu 0.0000 0.5000 0.0000
N1 N 0.0673(4) 0.2500 -0.0904(3)
N2 N 0.0709(4) 0.2500 -0.2049(3)
N3 N 0.0759(7) 0.2500 -0.3115(4)
O1 O 0.1629(2) 0.4215(2) 0.1456(2)
O2 O 0.7804(3) 0.2500 0.0975(3)
O3 O 0.4865(3) 0.2500 0.0356(3)
C1 C 0.3778(4) 0.2500 0.2802(3)
C2 C 0.3325(5) 0.2500 0.4058(4)
C3 C 0.4673(6) 0.2500 0.5023(4)
C4 C 0.6473(6) 0.2500 0.4749(4)
C5 C 0.6939(5) 0.2500 0.3516(4)
C6 C 0.5615(4) 0.2500 0.2526(3)
C7 C 0.2242(4) 0.2500 0.1805(3)
C8 C 0.6192(4) 0.2500 0.1220(4)
H1 H 0.197(3) 0.250 0.425(4)
H2 H 0.440(5) 0.250 0.595(2)
H3 H 0.743(6) 0.250 0.548(4)
H4 H 0.829(3) 0.250 0.332(5)
H5 H 0.517(6) 0.250 -0.049(2)
O1C O 0.1629(2) 0.0785(2) 0.1456(2)
N1A N -0.0673(4) 0.7500 0.0904(3)
O1B O -0.1629(2) 0.5785(2) -0.1456(2)
O2_2 O -0.2196(3) 0.2500 0.0975(3)
O2A O 0.2196(3) 0.7500 -0.0975(3)
Cu1A Cu 0.0000 0.0000 0.0000
Cu1B Cu 1.0000 0.5000 0.0000
Cu1A_2 Cu 1.0000 0.0000 0.0000
O4 O 0.5963(3) 0.2500 -0.1880(3)
H6 H 0.670(5) 0.137(4) -0.198(4)
H6C H 0.670(5) 0.363(4) -0.198(4)
loop_
_geom_bond_atom_site_label_1
_geom_bond_atom_site_label_2
_geom_bond_site_symmetry_1
_geom_bond_site_symmetry_2
Cu1 N1 1_555 1_555
N1 N2 1_555 1_555
N2 N3 1_555 1_555
O1 Cu1 1_555 1_555
O2 C8 1_555 1_555
O3 C8 1_555 1_555
C1 C2 1_555 1_555
C2 C3 1_555 1_555
C3 C4 1_555 1_555
C4 C5 1_555 1_555
C5 C6 1_555 1_555
C6 C1 1_555 1_555
C7 O1 1_555 1_555
C8 C6 1_555 1_555
H1 C2 1_555 1_555
H2 C3 1_555 1_555
H3 C4 1_555 1_555
H4 C5 1_555 1_555
H5 O3 1_555 1_555
O4 H6 1_555 1_555
O1C C7 1_555 1_555
N1A Cu1 1_555 1_555
O1B Cu1 1_555 1_555
O2_2 Cu1 1_555 1_555
O2A Cu1 1_555 1_555
Cu1A N1 1_555 1_555
Cu1B O2 1_555 1_555
Cu1A_2 O2 1_555 1_555
H6C O4 1_555 1_555
C1 C7 1_555 1_555
O1C Cu1A 1_555 1_555
O2_2 Cu1A 1_555 1_555

#END
