
#######################################################################
#
#                 Cambridge Crystallographic Data Centre
#                                CCDC 
#
#######################################################################
#
# If this CIF has been generated from an entry in the Cambridge 
# Structural Database, then it will include bibliographic, chemical, 
# crystal, experimental, refinement or atomic coordinate data resulting 
# from the CCDC's data processing and validation procedures.
#
#######################################################################

data_RIJBAP
_symmetry_cell_setting           monoclinic
_symmetry_space_group_name_H-M   'C 2/c'
_symmetry_Int_Tables_number      15
_space_group_name_Hall           '-C 2yn'
loop_
_symmetry_equiv_pos_site_id
_symmetry_equiv_pos_as_xyz
1 x,y,z
2 -x,y,1/2-z
3 1/2+x,1/2+y,z
4 1/2-x,1/2+y,1/2-z
5 -x,-y,-z
6 x,-y,1/2+z
7 1/2-x,1/2-y,-z
8 1/2+x,1/2-y,1/2+z
_cell_length_a                   26.288(3)
_cell_length_b                   15.5464(19)
_cell_length_c                   15.8310(18)
_cell_angle_alpha                90
_cell_angle_beta                 123.036(2)
_cell_angle_gamma                90
_cell_volume                     5423.88
loop_
_atom_site_label
_atom_site_type_symbol
_atom_site_fract_x
_atom_site_fract_y
_atom_site_fract_z
Tm1 Tm 0.01498(2) 0.40889(4) 0.09897(4)
Si1 Si 0.15892(12) 0.9045(2) 0.4498(2)
O1 O 0.0408(5) 0.5375(8) 0.1775(9)
O2 O 0.0133(5) 0.6244(8) 0.0571(8)
O3 O 0.3965(4) 0.9272(7) 0.3905(7)
O4 O 0.4252(4) 1.0251(7) 0.5063(8)
O5 O 0.0438(4) 1.3144(6) 0.3735(6)
O6 O -0.0153(4) 1.2535(5) 0.4056(8)
O7 O 0.2905(5) 0.7850(7) 0.9395(7)
O8 O 0.2006(5) 0.7378(8) 0.8799(6)
O9 O 0.0896(4) 0.3694(5) 0.2664(6)
O10 O 0.0000 0.456(3) 0.2500
C1 C 0.0343(8) 0.6081(14) 0.1435(13)
C2 C 0.0607(6) 0.6844(10) 0.2193(11)
C3 C 0.0497(6) 0.7666(11) 0.1871(9)
H1 H 0.0239 0.7782 0.1187
C4 C 0.0763(5) 0.8335(8) 0.2540(9)
H2 H 0.0689 0.8899 0.2307
C5 C 0.1147(4) 0.8168(7) 0.3577(8)
C6 C 0.1220(5) 0.7344(8) 0.3847(8)
H3 H 0.1465 0.7215 0.4530
C7 C 0.0961(5) 0.6686(8) 0.3194(10)
H4 H 0.1026 0.6123 0.3431
C8 C 0.3873(6) 0.9729(10) 0.4426(11)
C9 C 0.3293(5) 0.9636(8) 0.4372(8)
C10 C 0.3175(5) 1.0087(7) 0.4970(8)
H5 H 0.3442 1.0515 0.5387
C11 C 0.2659(5) 0.9918(7) 0.4969(8)
H6 H 0.2587 1.0254 0.5380
C12 C 0.2248(5) 0.9290(7) 0.4407(7)
C13 C 0.2375(5) 0.8857(7) 0.3814(8)
H7 H 0.2110 0.8427 0.3400
C14 C 0.2891(5) 0.9026(8) 0.3789(8)
H8 H 0.2957 0.8708 0.3359
C15 C 0.0256(6) 1.2468(9) 0.3928(9)
C16 C 0.0538(5) 1.1626(8) 0.4001(8)
C17 C 0.0455(7) 1.0973(11) 0.4410(12)
H9 H 0.0186 1.1018 0.4618
C18 C 0.0761(7) 1.0198(11) 0.4550(12)
H10 H 0.0693 0.9753 0.4870
C19 C 0.1144(5) 1.0047(7) 0.4257(8)
C20 C 0.1166(5) 1.0715(8) 0.3760(9)
H11 H 0.1386 1.0659 0.3461
C21 C 0.0880(6) 1.1494(9) 0.3658(9)
H12 H 0.0937 1.1942 0.3327
C22 C 0.2385(7) 0.7727(11) 0.8635(15)
C23 C 0.2211(7) 0.8045(8) 0.7663(9)
C24 C 0.1614(6) 0.8023(7) 0.6895(10)
H13 H 0.1323 0.7815 0.7006
C25 C 0.1449(5) 0.8306(7) 0.5972(8)
H14 H 0.1043 0.8275 0.5447
C26 C 0.1859(5) 0.8633(7) 0.5789(8)
C27 C 0.2460(5) 0.8629(7) 0.6582(9)
H15 H 0.2755 0.8829 0.6479
C28 C 0.2629(5) 0.8340(8) 0.7511(9)
H16 H 0.3036 0.8348 0.8038
Tm1A Tm -0.01498(2) 0.40889(4) 0.40103(4)
Si1A Si -0.15892(12) 0.9045(2) 0.0502(2)
O1A O -0.0408(5) 0.5375(8) 0.3225(9)
O2A O -0.0133(5) 0.6244(8) 0.4429(8)
O3A O -0.3965(4) 0.9272(7) 0.1095(7)
O4A O -0.4252(4) 1.0251(7) -0.0063(8)
O5A O -0.0438(4) 1.3144(6) 0.1265(6)
O6A O 0.0153(4) 1.2535(5) 0.0944(8)
O7A O -0.2905(5) 0.7850(7) -0.4395(7)
O8A O -0.2006(5) 0.7378(8) -0.3799(6)
O9A O -0.0896(4) 0.3694(5) 0.2336(6)
C1A C -0.0343(8) 0.6081(14) 0.3565(13)
C2A C -0.0607(6) 0.6844(10) 0.2807(11)
C3A C -0.0497(6) 0.7666(11) 0.3129(9)
H1A H -0.0239 0.7782 0.3813
C4A C -0.0763(5) 0.8335(8) 0.2460(9)
H2A H -0.0689 0.8899 0.2693
C5A C -0.1147(4) 0.8168(7) 0.1423(8)
C6A C -0.1220(5) 0.7344(8) 0.1153(8)
H3A H -0.1465 0.7215 0.0470
C7A C -0.0961(5) 0.6686(8) 0.1806(10)
H4A H -0.1026 0.6123 0.1569
C8A C -0.3873(6) 0.9729(10) 0.0574(11)
C9A C -0.3293(5) 0.9636(8) 0.0628(8)
C10A C -0.3175(5) 1.0087(7) 0.0030(8)
H5A H -0.3442 1.0515 -0.0387
C11A C -0.2659(5) 0.9918(7) 0.0031(8)
H6A H -0.2587 1.0254 -0.0380
C12A C -0.2248(5) 0.9290(7) 0.0593(7)
C13A C -0.2375(5) 0.8857(7) 0.1186(8)
H7A H -0.2110 0.8427 0.1600
C14A C -0.2891(5) 0.9026(8) 0.1211(8)
H8A H -0.2957 0.8708 0.1641
C15A C -0.0256(6) 1.2468(9) 0.1072(9)
C16A C -0.0538(5) 1.1626(8) 0.0999(8)
C17A C -0.0455(7) 1.0973(11) 0.0590(12)
H9A H -0.0186 1.1018 0.0382
C18A C -0.0761(7) 1.0198(11) 0.0450(12)
H10A H -0.0693 0.9753 0.0130
C19A C -0.1144(5) 1.0047(7) 0.0743(8)
C20A C -0.1166(5) 1.0715(8) 0.1240(9)
H11A H -0.1386 1.0659 0.1539
C21A C -0.0880(6) 1.1494(9) 0.1342(9)
H12A H -0.0937 1.1942 0.1673
C22A C -0.2385(7) 0.7727(11) -0.3635(15)
C23A C -0.2211(7) 0.8045(8) -0.2663(9)
C24A C -0.1614(6) 0.8023(7) -0.1895(10)
H13A H -0.1323 0.7815 -0.2006
C25A C -0.1449(5) 0.8306(7) -0.0972(8)
H14A H -0.1043 0.8275 -0.0447
C26A C -0.1859(5) 0.8633(7) -0.0789(8)
C27A C -0.2460(5) 0.8629(7) -0.1582(9)
H15A H -0.2755 0.8829 -0.1479
C28A C -0.2629(5) 0.8340(8) -0.2511(9)
H16A H -0.3036 0.8348 -0.3038
Tm1_2 Tm 0.01498(2) 1.40889(4) 0.09897(4)
Tm1A_2 Tm -0.01498(2) 1.40889(4) 0.40103(4)
Tm1B Tm -0.48502(2) 0.90889(4) 0.09897(4)
Tm1C Tm 0.48502(2) 0.90889(4) 0.40103(4)
Tm1D Tm -0.01498(2) 0.59111(4) -0.09897(4)
Tm1E Tm 0.01498(2) 0.59111(4) 0.59897(4)
Tm1F Tm -0.51498(2) 1.09111(4) -0.09897(4)
Tm1G Tm 0.51498(2) 1.09111(4) 0.59897(4)
O2D O -0.0133(5) 0.3756(8) -0.0571(8)
O2E O 0.0133(5) 0.3756(8) 0.5571(8)
O3B O -0.1035(4) 0.4272(7) 0.3905(7)
O3C O 0.1035(4) 0.4272(7) 0.1095(7)
O4F O 0.0748(4) 0.4749(7) 0.4937(8)
O4G O -0.0748(4) 0.4749(7) 0.0063(8)
O5_2 O 0.0438(4) 0.3144(6) 0.3735(6)
O5A_2 O -0.0438(4) 0.3144(6) 0.1265(6)
O6_2 O -0.0153(4) 0.2535(5) 0.4056(8)
O6A_2 O 0.0153(4) 0.2535(5) 0.0944(8)
loop_
_geom_bond_atom_site_label_1
_geom_bond_atom_site_label_2
_geom_bond_site_symmetry_1
_geom_bond_site_symmetry_2
Tm1 O1 1_555 1_555
Si1 C5 1_555 1_555
O1 C1 1_555 1_555
O2 C1 1_555 1_555
O3 C8 1_555 1_555
O4 C8 1_555 1_555
O5 C15 1_555 1_555
O6 C15 1_555 1_555
O7 C22 1_555 1_555
O8 C22 1_555 1_555
O9 Tm1 1_555 1_555
O10 Tm1 1_555 1_555
C1 C2 1_555 1_555
C2 C3 1_555 1_555
C3 H1 1_555 1_555
C4 C3 1_555 1_555
H2 C4 1_555 1_555
C5 C4 1_555 1_555
C6 C5 1_555 1_555
H3 C6 1_555 1_555
C7 C2 1_555 1_555
H4 C7 1_555 1_555
C8 C9 1_555 1_555
C9 C10 1_555 1_555
C10 H5 1_555 1_555
C11 C10 1_555 1_555
H6 C11 1_555 1_555
C12 Si1 1_555 1_555
C13 C12 1_555 1_555
H7 C13 1_555 1_555
C14 C9 1_555 1_555
H8 C14 1_555 1_555
C15 C16 1_555 1_555
C16 C17 1_555 1_555
C17 H9 1_555 1_555
C18 C17 1_555 1_555
H10 C18 1_555 1_555
C19 Si1 1_555 1_555
C20 C19 1_555 1_555
H11 C20 1_555 1_555
C21 C16 1_555 1_555
H12 C21 1_555 1_555
C22 C23 1_555 1_555
C23 C24 1_555 1_555
C24 H13 1_555 1_555
C25 C24 1_555 1_555
H14 C25 1_555 1_555
C26 Si1 1_555 1_555
C27 C26 1_555 1_555
H15 C27 1_555 1_555
C28 C23 1_555 1_555
H16 C28 1_555 1_555
Tm1A O10 1_555 1_555
Si1A C5A 1_555 1_555
O1A Tm1A 1_555 1_555
O2A C1A 1_555 1_555
O3A C8A 1_555 1_555
O4A C8A 1_555 1_555
O5A C15A 1_555 1_555
O6A C15A 1_555 1_555
O7A C22A 1_555 1_555
O8A C22A 1_555 1_555
O9A Tm1A 1_555 1_555
C1A O1A 1_555 1_555
C2A C1A 1_555 1_555
C3A C2A 1_555 1_555
H1A C3A 1_555 1_555
C4A C3A 1_555 1_555
H2A C4A 1_555 1_555
C5A C4A 1_555 1_555
C6A C5A 1_555 1_555
H3A C6A 1_555 1_555
C7A C2A 1_555 1_555
H4A C7A 1_555 1_555
C8A C9A 1_555 1_555
C9A C10A 1_555 1_555
C10A H5A 1_555 1_555
C11A C10A 1_555 1_555
H6A C11A 1_555 1_555
C12A Si1A 1_555 1_555
C13A C12A 1_555 1_555
H7A C13A 1_555 1_555
C14A C9A 1_555 1_555
H8A C14A 1_555 1_555
C15A C16A 1_555 1_555
C16A C17A 1_555 1_555
C17A H9A 1_555 1_555
C18A C17A 1_555 1_555
H10A C18A 1_555 1_555
C19A Si1A 1_555 1_555
C20A C19A 1_555 1_555
H11A C20A 1_555 1_555
C21A C16A 1_555 1_555
H12A C21A 1_555 1_555
C22A C23A 1_555 1_555
C23A C24A 1_555 1_555
C24A H13A 1_555 1_555
C25A C24A 1_555 1_555
H14A C25A 1_555 1_555
C26A Si1A 1_555 1_555
C27A C26A 1_555 1_555
H15A C27A 1_555 1_555
C28A C23A 1_555 1_555
H16A C28A 1_555 1_555
Tm1_2 O5A 1_555 1_555
Tm1A_2 O5 1_555 1_555
Tm1B O3A 1_555 1_555
Tm1C O3 1_555 1_555
Tm1D O2 1_555 1_555
Tm1E O2A 1_555 1_555
Tm1F O4A 1_555 1_555
Tm1G O4 1_555 1_555
O2D Tm1 1_555 1_555
O2E Tm1A 1_555 1_555
O3B Tm1A 1_555 1_555
O3C Tm1 1_555 1_555
O4F Tm1A 1_555 1_555
O4G Tm1 1_555 1_555
O5_2 Tm1A 1_555 1_555
O5A_2 Tm1 1_555 1_555
O6_2 Tm1A 1_555 1_555
O6A_2 Tm1 1_555 1_555
O6 Tm1A_2 1_555 1_555
C6 C7 1_555 1_555
C11 C12 1_555 1_555
C13 C14 1_555 1_555
C18 C19 1_555 1_555
C20 C21 1_555 1_555
C25 C26 1_555 1_555
C27 C28 1_555 1_555
O6A Tm1_2 1_555 1_555
C6A C7A 1_555 1_555
C11A C12A 1_555 1_555
C13A C14A 1_555 1_555
C18A C19A 1_555 1_555
C20A C21A 1_555 1_555
C25A C26A 1_555 1_555
C27A C28A 1_555 1_555

#END
