
#######################################################################
#
#                 Cambridge Crystallographic Data Centre
#                                CCDC 
#
#######################################################################
#
# If this CIF has been generated from an entry in the Cambridge 
# Structural Database, then it will include bibliographic, chemical, 
# crystal, experimental, refinement or atomic coordinate data resulting 
# from the CCDC's data processing and validation procedures.
#
#######################################################################

data_RIJBET
_symmetry_cell_setting           monoclinic
_symmetry_space_group_name_H-M   'C 2/c'
_symmetry_Int_Tables_number      15
_space_group_name_Hall           '-C 2yn'
loop_
_symmetry_equiv_pos_site_id
_symmetry_equiv_pos_as_xyz
1 x,y,z
2 -x,y,1/2-z
3 1/2+x,1/2+y,z
4 1/2-x,1/2+y,1/2-z
5 -x,-y,-z
6 x,-y,1/2+z
7 1/2-x,1/2-y,-z
8 1/2+x,1/2-y,1/2+z
_cell_length_a                   26.543(2)
_cell_length_b                   15.9393(13)
_cell_length_c                   16.0990(17)
_cell_angle_alpha                90
_cell_angle_beta                 124.1860(10)
_cell_angle_gamma                90
_cell_volume                     5634.28
loop_
_atom_site_label
_atom_site_type_symbol
_atom_site_fract_x
_atom_site_fract_y
_atom_site_fract_z
Pr1 Pr 1.016250(9) -0.409124(11) 0.605964(14)
Si1 Si 0.84023(5) 0.09185(6) 0.54558(7)
O1 O 0.97763(16) 0.3609(2) 0.9427(2)
O2 O 0.94305(14) 0.45252(16) 0.8187(2)
O3 O 0.70962(18) 0.2040(3) 0.0525(2)
O4 O 0.79839(16) 0.2646(2) 0.1189(2)
O5 O 0.60879(15) 0.0913(2) 0.6148(3)
O6 O 0.57043(14) -0.0036(2) 0.4950(3)
O7 O 0.95240(14) -0.30889(17) 0.6239(2)
O8 O 1.01999(13) -0.24741(17) 0.6079(2)
O9 O 1.09764(13) -0.36755(18) 0.78334(19)
O10 O 1.0000 -0.4673(2) 0.7500
C1 C 0.88518(16) 0.1766(2) 0.6384(3)
C2 C 0.9245(2) 0.1614(2) 0.7418(3)
H1 H 0.9360 0.1067 0.7647
C3 C 0.8734(2) 0.2594(2) 0.6094(3)
H2 H 0.8491 0.2720 0.5412
C4 C 0.8965(2) 0.3247(2) 0.6778(3)
H3 H 0.8879 0.3798 0.6550
C5 C 0.93176(18) 0.3087(2) 0.7786(3)
C6 C 0.9465(2) 0.2268(3) 0.8105(3)
H4 H 0.9714 0.2151 0.8789
C7 C 0.9522(2) 0.3793(3) 0.8514(3)
C8 C 0.81408(17) 0.1310(2) 0.4176(3)
C9 C 0.8562(2) 0.1671(3) 0.4012(3)
H5 H 0.8967 0.1714 0.4552
C10 C 0.7541(2) 0.1281(3) 0.3347(3)
H6 H 0.7245 0.1063 0.3424
C11 C 0.7368(2) 0.1568(3) 0.2404(3)
H7 H 0.6964 0.1532 0.1861
C12 C 0.8403(2) 0.1964(3) 0.3091(3)
H8 H 0.8695 0.2197 0.3015
C13 C 0.7801(2) 0.1908(3) 0.2278(3)
C14 C 0.7638(2) 0.2229(3) 0.1287(3)
C15 C 0.77321(16) 0.0709(2) 0.5531(3)
C16 C 0.76353(18) 0.1195(2) 0.6149(3)
H9 H 0.7921 0.1599 0.6559
C17 C 0.72942(18) 0.0097(2) 0.4957(3)
H10 H 0.7347 -0.0252 0.4549
C18 C 0.67873(18) -0.0003(2) 0.4978(3)
H11 H 0.6505 -0.0417 0.4585
C19 C 0.71270(19) 0.1091(2) 0.6168(3)
H12 H 0.7076 0.1424 0.6590
C20 C 0.66927(17) 0.0498(2) 0.5570(3)
C21 C 0.61237(19) 0.0453(3) 0.5561(3)
C22 C 0.88459(18) -0.0074(2) 0.5725(3)
C23 C 0.9248(3) -0.0184(3) 0.5445(6)
H13 H 0.9315 0.0258 0.5142
C24 C 0.8798(2) -0.0724(3) 0.6215(4)
H14 H 0.8562 -0.0658 0.6472
C25 C 0.9552(3) -0.0936(3) 0.5601(6)
H15 H 0.9826 -0.0987 0.5417
C26 C 0.9089(2) -0.1492(3) 0.6351(4)
H16 H 0.9031 -0.1931 0.6670
C27 C 0.94537(19) -0.1598(2) 0.6021(3)
C28 C 0.97496(18) -0.2431(2) 0.6124(3)
Pr1A Pr 0.983750(9) -0.409124(11) 0.894036(14)
Si1A Si 1.15977(5) 0.09185(6) 0.95442(7)
O1A O 1.02237(16) 0.3609(2) 0.5573(2)
O2A O 1.05695(14) 0.45252(16) 0.6813(2)
O3A O 1.29038(18) 0.2040(3) 1.4475(2)
O4A O 1.20161(16) 0.2646(2) 1.3811(2)
O5A O 1.39121(15) 0.0913(2) 0.8852(3)
O6A O 1.42957(14) -0.0036(2) 1.0050(3)
O7A O 1.04760(14) -0.30889(17) 0.8761(2)
O8A O 0.98001(13) -0.24741(17) 0.8921(2)
O9A O 0.90236(13) -0.36755(18) 0.71666(19)
C1A C 1.11482(16) 0.1766(2) 0.8616(3)
C2A C 1.0755(2) 0.1614(2) 0.7582(3)
H1A H 1.0640 0.1067 0.7353
C3A C 1.1266(2) 0.2594(2) 0.8906(3)
H2A H 1.1509 0.2720 0.9588
C4A C 1.1035(2) 0.3247(2) 0.8222(3)
H3A H 1.1121 0.3798 0.8450
C5A C 1.06824(18) 0.3087(2) 0.7214(3)
C6A C 1.0535(2) 0.2268(3) 0.6895(3)
H4A H 1.0286 0.2151 0.6211
C7A C 1.0478(2) 0.3793(3) 0.6486(3)
C8A C 1.18592(17) 0.1310(2) 1.0824(3)
C9A C 1.1438(2) 0.1671(3) 1.0988(3)
H5A H 1.1033 0.1714 1.0448
C10A C 1.2459(2) 0.1281(3) 1.1653(3)
H6A H 1.2755 0.1063 1.1576
C11A C 1.2632(2) 0.1568(3) 1.2596(3)
H7A H 1.3036 0.1532 1.3139
C12A C 1.1597(2) 0.1964(3) 1.1909(3)
H8A H 1.1305 0.2197 1.1985
C13A C 1.2199(2) 0.1908(3) 1.2722(3)
C14A C 1.2362(2) 0.2229(3) 1.3713(3)
C15A C 1.22679(16) 0.0709(2) 0.9469(3)
C16A C 1.23647(18) 0.1195(2) 0.8851(3)
H9A H 1.2079 0.1599 0.8441
C17A C 1.27058(18) 0.0097(2) 1.0043(3)
H10A H 1.2653 -0.0252 1.0451
C18A C 1.32127(18) -0.0003(2) 1.0022(3)
H11A H 1.3495 -0.0417 1.0415
C19A C 1.28730(19) 0.1091(2) 0.8832(3)
H12A H 1.2924 0.1424 0.8410
C20A C 1.33073(17) 0.0498(2) 0.9430(3)
C21A C 1.38763(19) 0.0453(3) 0.9439(3)
C22A C 1.11541(18) -0.0074(2) 0.9275(3)
C23A C 1.0752(3) -0.0184(3) 0.9555(6)
H13A H 1.0685 0.0258 0.9858
C24A C 1.1202(2) -0.0724(3) 0.8785(4)
H14A H 1.1438 -0.0658 0.8528
C25A C 1.0448(3) -0.0936(3) 0.9399(6)
H15A H 1.0174 -0.0987 0.9583
C26A C 1.0911(2) -0.1492(3) 0.8649(4)
H16A H 1.0969 -0.1931 0.8330
C27A C 1.05463(19) -0.1598(2) 0.8979(3)
C28A C 1.02504(18) -0.2431(2) 0.8876(3)
Pr1_2 Pr 1.016250(9) 0.590876(11) 0.605964(14)
Pr1A_2 Pr 0.983750(9) 0.590876(11) 0.894036(14)
Pr1B Pr 0.516250(9) 0.090876(11) 0.605964(14)
Pr1C Pr 1.483750(9) 0.090876(11) 0.894036(14)
Pr1D Pr 0.983750(9) 0.409124(11) 0.394036(14)
Pr1E Pr 1.016250(9) 0.409124(11) 1.105964(14)
Pr1F Pr 0.483750(9) -0.090876(11) 0.394036(14)
Pr1G Pr 1.516250(9) -0.090876(11) 1.105964(14)
O1D O 1.02237(16) -0.3609(2) 1.0573(2)
O1E O 0.97763(16) -0.3609(2) 0.4427(2)
O2_2 O 0.94305(14) -0.54748(16) 0.8187(2)
O2A_2 O 1.05695(14) -0.54748(16) 0.6813(2)
O5B O 1.10879(15) -0.4087(2) 0.6148(3)
O5C O 0.89121(15) -0.4087(2) 0.8852(3)
O6F O 0.92957(14) -0.4964(2) 0.5050(3)
O6G O 1.07043(14) -0.4964(2) 0.9950(3)
loop_
_geom_bond_atom_site_label_1
_geom_bond_atom_site_label_2
_geom_bond_site_symmetry_1
_geom_bond_site_symmetry_2
Pr1 O7 1_555 1_555
Si1 C1 1_555 1_555
O1 C7 1_555 1_555
O2 C7 1_555 1_555
O3 C14 1_555 1_555
O4 C14 1_555 1_555
O5 C21 1_555 1_555
O6 C21 1_555 1_555
O7 C28 1_555 1_555
O8 Pr1 1_555 1_555
O9 Pr1 1_555 1_555
O10 Pr1 1_555 1_555
C1 C2 1_555 1_555
C2 H1 1_555 1_555
C3 C1 1_555 1_555
H2 C3 1_555 1_555
C4 C3 1_555 1_555
H3 C4 1_555 1_555
C5 C4 1_555 1_555
C6 C2 1_555 1_555
H4 C6 1_555 1_555
C7 C5 1_555 1_555
C8 Si1 1_555 1_555
C9 C8 1_555 1_555
H5 C9 1_555 1_555
C10 C8 1_555 1_555
H6 C10 1_555 1_555
C11 C10 1_555 1_555
H7 C11 1_555 1_555
C12 C9 1_555 1_555
H8 C12 1_555 1_555
C13 C11 1_555 1_555
C14 C13 1_555 1_555
C15 Si1 1_555 1_555
C16 C15 1_555 1_555
H9 C16 1_555 1_555
C17 C15 1_555 1_555
H10 C17 1_555 1_555
C18 C17 1_555 1_555
H11 C18 1_555 1_555
C19 C16 1_555 1_555
H12 C19 1_555 1_555
C20 C18 1_555 1_555
C21 C20 1_555 1_555
C22 Si1 1_555 1_555
C23 C22 1_555 1_555
H13 C23 1_555 1_555
C24 C22 1_555 1_555
H14 C24 1_555 1_555
C25 C23 1_555 1_555
H15 C25 1_555 1_555
C26 C24 1_555 1_555
H16 C26 1_555 1_555
C27 C25 1_555 1_555
C28 O8 1_555 1_555
Pr1A O10 1_555 1_555
Si1A C1A 1_555 1_555
O1A C7A 1_555 1_555
O2A C7A 1_555 1_555
O3A C14A 1_555 1_555
O4A C14A 1_555 1_555
O5A C21A 1_555 1_555
O6A C21A 1_555 1_555
O7A Pr1A 1_555 1_555
O8A Pr1A 1_555 1_555
O9A Pr1A 1_555 1_555
C1A C2A 1_555 1_555
C2A H1A 1_555 1_555
C3A C1A 1_555 1_555
H2A C3A 1_555 1_555
C4A C3A 1_555 1_555
H3A C4A 1_555 1_555
C5A C4A 1_555 1_555
C6A C2A 1_555 1_555
H4A C6A 1_555 1_555
C7A C5A 1_555 1_555
C8A Si1A 1_555 1_555
C9A C8A 1_555 1_555
H5A C9A 1_555 1_555
C10A C8A 1_555 1_555
H6A C10A 1_555 1_555
C11A C10A 1_555 1_555
H7A C11A 1_555 1_555
C12A C9A 1_555 1_555
H8A C12A 1_555 1_555
C13A C11A 1_555 1_555
C14A C13A 1_555 1_555
C15A Si1A 1_555 1_555
C16A C15A 1_555 1_555
H9A C16A 1_555 1_555
C17A C15A 1_555 1_555
H10A C17A 1_555 1_555
C18A C17A 1_555 1_555
H11A C18A 1_555 1_555
C19A C16A 1_555 1_555
H12A C19A 1_555 1_555
C20A C18A 1_555 1_555
C21A C20A 1_555 1_555
C22A Si1A 1_555 1_555
C23A C22A 1_555 1_555
H13A C23A 1_555 1_555
C24A C22A 1_555 1_555
H14A C24A 1_555 1_555
C25A C23A 1_555 1_555
H15A C25A 1_555 1_555
C26A C24A 1_555 1_555
H16A C26A 1_555 1_555
C27A C25A 1_555 1_555
C28A O7A 1_555 1_555
Pr1_2 O2A 1_555 1_555
Pr1A_2 O2 1_555 1_555
Pr1B O5 1_555 1_555
Pr1C O5A 1_555 1_555
Pr1D O1A 1_555 1_555
Pr1E O1 1_555 1_555
Pr1F O6 1_555 1_555
Pr1G O6A 1_555 1_555
O1D Pr1A 1_555 1_555
O1E Pr1 1_555 1_555
O2_2 Pr1A 1_555 1_555
O2A_2 Pr1 1_555 1_555
O5B Pr1 1_555 1_555
O5C Pr1A 1_555 1_555
O6F Pr1 1_555 1_555
O6G Pr1A 1_555 1_555
C5 C6 1_555 1_555
C12 C13 1_555 1_555
C19 C20 1_555 1_555
C26 C27 1_555 1_555
C27 C28 1_555 1_555
O8A C28A 1_555 1_555
C5A C6A 1_555 1_555
C12A C13A 1_555 1_555
C19A C20A 1_555 1_555
C26A C27A 1_555 1_555
C27A C28A 1_555 1_555

#END
