
#######################################################################
#
#                 Cambridge Crystallographic Data Centre
#                                CCDC 
#
#######################################################################
#
# If this CIF has been generated from an entry in the Cambridge 
# Structural Database, then it will include bibliographic, chemical, 
# crystal, experimental, refinement or atomic coordinate data resulting 
# from the CCDC's data processing and validation procedures.
#
#######################################################################

data_RIJFUN
_symmetry_cell_setting           monoclinic
_symmetry_space_group_name_H-M   'C 2/c'
_symmetry_Int_Tables_number      15
_space_group_name_Hall           '-C 2yn'
loop_
_symmetry_equiv_pos_site_id
_symmetry_equiv_pos_as_xyz
1 x,y,z
2 -x,y,1/2-z
3 1/2+x,1/2+y,z
4 1/2-x,1/2+y,1/2-z
5 -x,-y,-z
6 x,-y,1/2+z
7 1/2-x,1/2-y,-z
8 1/2+x,1/2-y,1/2+z
_cell_length_a                   26.210(5)
_cell_length_b                   16.151(2)
_cell_length_c                   8.3410(15)
_cell_angle_alpha                90
_cell_angle_beta                 108.050(14)
_cell_angle_gamma                90
_cell_volume                     3357.13
loop_
_atom_site_label
_atom_site_type_symbol
_atom_site_fract_x
_atom_site_fract_y
_atom_site_fract_z
Zn1 Zn 0.210550(12) 0.305142(19) 0.53180(4)
N1 N 0.15706(9) 0.38021(13) 0.5954(3)
N2 N 0.0000 0.48757(17) 0.7500
C1 C 0.11301(11) 0.34799(16) 0.6163(4)
H1 H 0.1077 0.2899 0.6034
C2 C 0.07444(10) 0.39472(16) 0.6557(4)
H2 H 0.0435 0.3688 0.6691
C3 C 0.08107(9) 0.47956(15) 0.6755(3)
C4 C 0.12781(11) 0.51313(16) 0.6576(4)
H3 H 0.1346 0.5708 0.6730
C5 C 0.16430(11) 0.46215(17) 0.6172(4)
H4 H 0.1959 0.4861 0.6042
C6 C 0.03890(9) 0.53041(15) 0.7141(3)
C7 C 0.04006(10) 0.61632(15) 0.7112(3)
H5 H 0.0680 0.6443 0.6830
C8 C 0.0000 0.6612(2) 0.7500
C9 C 0.0000 0.7535(2) 0.7500
C10 C 0.04680(11) 0.79748(16) 0.7633(4)
H6 H 0.0791 0.7684 0.7728
C11 C 0.04658(11) 0.88322(16) 0.7627(4)
H7 H 0.0788 0.9123 0.7712
C12 C 0.0000 0.9276(2) 0.7500
C13 C 0.0000 1.0197(2) 0.7500
C14 C 0.03398(13) 1.06353(18) 0.6830(4)
H8 H 0.0576 1.0347 0.6361
C15 C 0.03381(17) 1.1492(2) 0.6839(5)
H9 H 0.0574 1.1789 0.6382
C16 C 0.0000 1.1911(3) 0.7500
H10 H 0.0000 1.2499 0.7500
O1 O 0.26819(10) 0.29920(18) 0.7589(3)
O2 O 0.32963(9) 0.21497(14) 0.7187(3)
C17 C 0.31091(13) 0.2599(2) 0.8080(4)
C18 C 0.3432(2) 0.2681(4) 0.9916(5)
H11 H 0.3474 0.3268 1.0225
H12 H 0.3787 0.2431 1.0105
H13 H 0.3246 0.2397 1.0611
O3 O 0.25426(9) 0.39181(14) 0.4560(3)
O4 O 0.31674(10) 0.30837(14) 0.4180(3)
C19 C 0.29523(12) 0.37781(18) 0.4154(4)
C20 C 0.32098(17) 0.4507(2) 0.3574(6)
H14 H 0.3237 0.4393 0.2449
H15 H 0.3569 0.4597 0.4365
H16 H 0.2990 0.5002 0.3531
N1A N -0.15706(9) 0.38021(13) 0.9046(3)
C1A C -0.11301(11) 0.34799(16) 0.8837(4)
H1A H -0.1077 0.2899 0.8966
C2A C -0.07444(10) 0.39472(16) 0.8443(4)
H2A H -0.0435 0.3688 0.8309
C3A C -0.08107(9) 0.47956(15) 0.8245(3)
C4A C -0.12781(11) 0.51313(16) 0.8424(4)
H3A H -0.1346 0.5708 0.8270
C5A C -0.16430(11) 0.46215(17) 0.8828(4)
H4A H -0.1959 0.4861 0.8958
C6A C -0.03890(9) 0.53041(15) 0.7859(3)
C7A C -0.04006(10) 0.61632(15) 0.7888(3)
H5A H -0.0680 0.6443 0.8170
C10A C -0.04680(11) 0.79748(16) 0.7367(4)
H6A H -0.0791 0.7684 0.7272
C11A C -0.04658(11) 0.88322(16) 0.7373(4)
H7A H -0.0788 0.9123 0.7288
C14A C -0.03398(13) 1.06353(18) 0.8170(4)
H8A H -0.0576 1.0347 0.8639
C15A C -0.03381(17) 1.1492(2) 0.8161(5)
H9A H -0.0574 1.1789 0.8618
Zn1A Zn -0.210550(12) 0.305142(19) 0.96820(4)
O1A O -0.26819(10) 0.29920(18) 0.7411(3)
O2A O -0.32963(9) 0.21497(14) 0.7813(3)
C17A C -0.31091(13) 0.2599(2) 0.6920(4)
C18A C -0.3432(2) 0.2681(4) 0.5084(5)
H11A H -0.3474 0.3268 0.4775
H12A H -0.3787 0.2431 0.4895
H13A H -0.3246 0.2397 0.4389
O3A O -0.25426(9) 0.39181(14) 1.0440(3)
O4A O -0.31674(10) 0.30837(14) 1.0820(3)
C19A C -0.29523(12) 0.37781(18) 1.0846(4)
C20A C -0.32098(17) 0.4507(2) 1.1426(6)
H14A H -0.3237 0.4393 1.2551
H15A H -0.3569 0.4597 1.0635
H16A H -0.2990 0.5002 1.1469
Zn1F Zn 0.289450(12) 0.194858(19) 0.46820(4)
Zn1G Zn -0.289450(12) 0.194858(19) 1.03180(4)
O2F O 0.17037(9) 0.28503(14) 0.2813(3)
O2G O -0.17037(9) 0.28503(14) 1.2187(3)
O4F O 0.18326(10) 0.19163(14) 0.5820(3)
O4G O -0.18326(10) 0.19163(14) 0.9180(3)
loop_
_geom_bond_atom_site_label_1
_geom_bond_atom_site_label_2
_geom_bond_site_symmetry_1
_geom_bond_site_symmetry_2
Zn1 N1 1_555 1_555
N1 C1 1_555 1_555
N2 C6 1_555 1_555
C1 H1 1_555 1_555
C2 C1 1_555 1_555
H2 C2 1_555 1_555
C3 C2 1_555 1_555
C4 C3 1_555 1_555
H3 C4 1_555 1_555
C5 N1 1_555 1_555
H4 C5 1_555 1_555
C6 C3 1_555 1_555
C7 C6 1_555 1_555
H5 C7 1_555 1_555
C8 C7 1_555 1_555
C9 C8 1_555 1_555
C10 C9 1_555 1_555
H6 C10 1_555 1_555
C11 C10 1_555 1_555
H7 C11 1_555 1_555
C12 C11 1_555 1_555
C13 C12 1_555 1_555
C14 C13 1_555 1_555
H8 C14 1_555 1_555
C15 C14 1_555 1_555
H9 C15 1_555 1_555
C16 C15 1_555 1_555
H10 C16 1_555 1_555
O1 Zn1 1_555 1_555
O2 C17 1_555 1_555
C17 O1 1_555 1_555
C18 C17 1_555 1_555
H11 C18 1_555 1_555
H12 C18 1_555 1_555
H13 C18 1_555 1_555
O3 Zn1 1_555 1_555
O4 C19 1_555 1_555
C19 O3 1_555 1_555
C20 C19 1_555 1_555
H14 C20 1_555 1_555
H15 C20 1_555 1_555
H16 C20 1_555 1_555
N1A C1A 1_555 1_555
C1A H1A 1_555 1_555
C2A C1A 1_555 1_555
H2A C2A 1_555 1_555
C3A C2A 1_555 1_555
C4A C3A 1_555 1_555
H3A C4A 1_555 1_555
C5A N1A 1_555 1_555
H4A C5A 1_555 1_555
C6A N2 1_555 1_555
C7A C8 1_555 1_555
H5A C7A 1_555 1_555
C10A C9 1_555 1_555
H6A C10A 1_555 1_555
C11A C12 1_555 1_555
H7A C11A 1_555 1_555
C14A C13 1_555 1_555
H8A C14A 1_555 1_555
C15A C16 1_555 1_555
H9A C15A 1_555 1_555
Zn1A N1A 1_555 1_555
O1A Zn1A 1_555 1_555
O2A C17A 1_555 1_555
C17A O1A 1_555 1_555
C18A C17A 1_555 1_555
H11A C18A 1_555 1_555
H12A C18A 1_555 1_555
H13A C18A 1_555 1_555
O3A Zn1A 1_555 1_555
O4A C19A 1_555 1_555
C19A O3A 1_555 1_555
C20A C19A 1_555 1_555
H14A C20A 1_555 1_555
H15A C20A 1_555 1_555
H16A C20A 1_555 1_555
Zn1F O2 1_555 1_555
Zn1G O2A 1_555 1_555
O2F Zn1 1_555 1_555
O2G Zn1A 1_555 1_555
O4F Zn1 1_555 1_555
O4G Zn1A 1_555 1_555
C4 C5 1_555 1_555
O4 Zn1F 1_555 1_555
C3A C6A 1_555 1_555
C4A C5A 1_555 1_555
C6A C7A 1_555 1_555
C10A C11A 1_555 1_555
C14A C15A 1_555 1_555
O4A Zn1G 1_555 1_555

#END
