
#######################################################################
#
#                 Cambridge Crystallographic Data Centre
#                                CCDC 
#
#######################################################################
#
# If this CIF has been generated from an entry in the Cambridge 
# Structural Database, then it will include bibliographic, chemical, 
# crystal, experimental, refinement or atomic coordinate data resulting 
# from the CCDC's data processing and validation procedures.
#
#######################################################################

data_RIJJAV
_symmetry_cell_setting           monoclinic
_symmetry_space_group_name_H-M   'C 2/c'
_symmetry_Int_Tables_number      15
_space_group_name_Hall           '-C 2yn'
loop_
_symmetry_equiv_pos_site_id
_symmetry_equiv_pos_as_xyz
1 x,y,z
2 x,-y,1/2+z
3 1/2+x,1/2+y,z
4 1/2+x,1/2-y,1/2+z
5 -x,-y,-z
6 -x,y,1/2-z
7 1/2-x,1/2-y,-z
8 1/2-x,1/2+y,1/2-z
_cell_length_a                   16.250(8)
_cell_length_b                   18.471(17)
_cell_length_c                   7.729(7)
_cell_angle_alpha                90
_cell_angle_beta                 109.71(5)
_cell_angle_gamma                90
_cell_volume                     2183.97
loop_
_atom_site_label
_atom_site_type_symbol
_atom_site_fract_x
_atom_site_fract_y
_atom_site_fract_z
Ca1 Ca 0.0000 -0.0225(3) 0.2500
O1 O -0.1082(7) 0.0725(6) 0.1501(13)
O2 O -0.0701(7) 0.0593(6) 0.4463(13)
C1 C -0.1160(9) 0.0891(8) 0.3000(17)
C2 C -0.1807(12) 0.1449(9) 0.3085(19)
C3 C -0.1547(21) 0.2194(8) 0.2662(29)
C4 C -0.0935(35) 0.2558(19) 0.4377(51)
C5 C -0.0914(49) 0.3370(16) 0.4001(73)
C6 C -0.2721(11) 0.1256(15) 0.1806(36)
C7 C -0.3018(17) 0.0544(16) 0.2387(49)
C8 C -0.3982(16) 0.0420(23) 0.1336(60)
O3 O -0.1082(7) -0.1018(7) 0.3063(12)
H1 H -0.1831 0.1457 0.4476
H2 H -0.1356 0.2143 0.1430
H3 H -0.2148 0.2536 0.2235
H4 H -0.0918 0.2325 0.5478
H5 H -0.0230 0.2362 0.4136
H6 H -0.0444 0.3581 0.5233
H7 H -0.1583 0.3491 0.4158
H8 H -0.0895 0.3527 0.2817
H9 H -0.2721 0.1167 0.0421
H10 H -0.3191 0.1663(2) 0.1799
H11 H -0.2945 0.0577(2) 0.3886
H12 H -0.2631 0.0092 0.2244
H13 H -0.4185 -0.0110 0.1810
H14 H -0.4063 0.0346 -0.0094
H15 H -0.4377 0.0830 0.1549
O1E O 0.1082(7) 0.0725(6) 0.3499(13)
C1E C 0.1160(9) 0.0891(8) 0.2000(17)
O2E O 0.0701(7) 0.0593(6) 0.0537(13)
O2A O -0.0701(7) -0.0593(6) -0.0537(13)
Ca1A Ca 0.0000 0.0225(3) -0.2500
O2D O 0.0701(7) -0.0593(6) 0.5537(13)
O3E O 0.1082(7) -0.1018(7) 0.1937(12)
C2E C 0.1807(12) 0.1449(9) 0.1915(19)
C3E C 0.1547(21) 0.2194(8) 0.2338(29)
C4E C 0.0935(35) 0.2558(19) 0.0623(51)
C5E C 0.0914(49) 0.3370(16) 0.0999(73)
H6E H 0.0444 0.3581 -0.0233
H7E H 0.1583 0.3491 0.0842
H8E H 0.0895 0.3527 0.2183
H4E H 0.0918 0.2325 -0.0478
H5E H 0.0230 0.2362 0.0864
H2E H 0.1356 0.2143 0.3570
H3E H 0.2148 0.2536 0.2765
C6E C 0.2721(11) 0.1256(15) 0.3194(36)
C7E C 0.3018(17) 0.0544(16) 0.2613(49)
C8E C 0.3982(16) 0.0420(23) 0.3664(60)
H13E H 0.4185 -0.0110 0.3190
H14E H 0.4063 0.0346 0.5094
H15E H 0.4377 0.0830 0.3451
H11E H 0.2945 0.0577(2) 0.1114
H12E H 0.2631 0.0092 0.2756
H9E H 0.2721 0.1167 0.4579
H10E H 0.3191 0.1663(2) 0.3201
H1E H 0.1831 0.1457 0.0524
Ca1A_2 Ca 0.0000 0.0225(3) 0.7500
loop_
_geom_bond_atom_site_label_1
_geom_bond_atom_site_label_2
_geom_bond_site_symmetry_1
_geom_bond_site_symmetry_2
Ca1 O1 1_555 1_555
O1 C1 1_555 1_555
O2 Ca1 1_555 1_555
C1 O2 1_555 1_555
C2 C1 1_555 1_555
C3 C2 1_555 1_555
C4 C3 1_555 1_555
C5 C4 1_555 1_555
C6 C2 1_555 1_555
C7 C6 1_555 1_555
C8 C7 1_555 1_555
O3 Ca1 1_555 1_555
H1 C2 1_555 1_555
H2 C3 1_555 1_555
H3 C3 1_555 1_555
H4 C4 1_555 1_555
H5 C4 1_555 1_555
H6 C5 1_555 1_555
H7 C5 1_555 1_555
H8 C5 1_555 1_555
H9 C6 1_555 1_555
H10 C6 1_555 1_555
H11 C7 1_555 1_555
H12 C7 1_555 1_555
H13 C8 1_555 1_555
H14 C8 1_555 1_555
H15 C8 1_555 1_555
O1E Ca1 1_555 1_555
C1E O1E 1_555 1_555
O2E Ca1 1_555 1_555
O2A Ca1 1_555 1_555
Ca1A O2E 1_555 1_555
O2D Ca1 1_555 1_555
O3E Ca1 1_555 1_555
C2E C1E 1_555 1_555
C3E C2E 1_555 1_555
C4E C3E 1_555 1_555
C5E C4E 1_555 1_555
H6E C5E 1_555 1_555
H7E C5E 1_555 1_555
H8E C5E 1_555 1_555
H4E C4E 1_555 1_555
H5E C4E 1_555 1_555
H2E C3E 1_555 1_555
H3E C3E 1_555 1_555
C6E C2E 1_555 1_555
C7E C6E 1_555 1_555
C8E C7E 1_555 1_555
H13E C8E 1_555 1_555
H14E C8E 1_555 1_555
H15E C8E 1_555 1_555
H11E C7E 1_555 1_555
H12E C7E 1_555 1_555
H9E C6E 1_555 1_555
H10E C6E 1_555 1_555
H1E C2E 1_555 1_555
Ca1A_2 O2 1_555 1_555
C1E O2E 1_555 1_555
O2A Ca1A 1_555 1_555
O2D Ca1A_2 1_555 1_555

#END
