
#######################################################################
#
#                 Cambridge Crystallographic Data Centre
#                                CCDC 
#
#######################################################################
#
# If this CIF has been generated from an entry in the Cambridge 
# Structural Database, then it will include bibliographic, chemical, 
# crystal, experimental, refinement or atomic coordinate data resulting 
# from the CCDC's data processing and validation procedures.
#
#######################################################################

data_RIKFAU
_symmetry_cell_setting           monoclinic
_symmetry_space_group_name_H-M   'P 2/c'
_symmetry_Int_Tables_number      13
_space_group_name_Hall           '-P 2yc'
loop_
_symmetry_equiv_pos_site_id
_symmetry_equiv_pos_as_xyz
1 x,y,z
2 -x,y,1/2-z
3 -x,-y,-z
4 x,-y,1/2+z
_cell_length_a                   19.002
_cell_length_b                   8.390
_cell_length_c                   26.833
_cell_angle_alpha                90
_cell_angle_beta                 108.73
_cell_angle_gamma                90
_cell_volume                     4051.35
loop_
_atom_site_label
_atom_site_type_symbol
_atom_site_fract_x
_atom_site_fract_y
_atom_site_fract_z
C1 C 0.3100(3) 0.5668(5) 0.52538(16)
C2 C 0.3099(3) 0.4714(5) 0.47891(16)
C3 C 0.3129(3) 0.3078(5) 0.48430(17)
H1 H 0.3210 0.2620 0.5172
C4 C 0.3042(3) 0.2155(6) 0.44255(17)
C5 C 0.2950(4) 0.2827(5) 0.39344(17)
H2 H 0.2895 0.2173 0.3644
C6 C 0.2942(3) 0.4456(5) 0.38775(17)
C7 C 0.3003(3) 0.5372(5) 0.43080(16)
H3 H 0.2980 0.6475 0.4273
C8 C 0.2892(3) 0.5166(5) 0.33540(16)
C9 C 0.2799(3) 0.4238(5) 0.29214(16)
H4 H 0.2760 0.3139 0.2950
C10 C 0.2761(3) 0.4890(5) 0.24441(16)
C11 C 0.2786(4) 0.6485(5) 0.23898(17)
H5 H 0.2761 0.6927 0.2067
C12 C 0.2849(4) 0.7448(5) 0.28150(18)
C13 C 0.2917(4) 0.6787(6) 0.32917(18)
H6 H 0.2981 0.7448 0.3581
C14 C 0.2870(5) 0.9174(6) 0.2747(3)
C15 C 0.2736(3) 0.3907(6) 0.19846(16)
C16 C 0.3051(5) 0.0403(7) 0.4481(2)
C17 C 0.4509(3) 0.5982(6) 0.6634(2)
H7 H 0.4320 0.4955 0.6561
C18 C 0.5239(4) 0.6133(7) 0.6902(2)
H8 H 0.5540 0.5239 0.7007
C19 C 0.5528(4) 0.7645(7) 0.7017(2)
H9 H 0.6029 0.7797 0.7200
C20 C 0.5061(3) 0.8913(6) 0.6856(2)
H10 H 0.5236 0.9948 0.6934
C21 C 0.4324(3) 0.8634(6) 0.65756(18)
C22 C 0.3782(3) 0.9898(5) 0.63823(17)
C23 C 0.2756(3) 1.0930(5) 0.59939(16)
C24 C 0.2003(3) 1.1308(5) 0.57026(18)
C25 C 0.1651(4) 1.2453(8) 0.5864(2)
H11 H 0.1896 1.2993 0.6174
C26 C 0.0924(4) 1.2870(8) 0.5582(3)
H12 H 0.0687 1.3665 0.5710
C27 C 0.0564(3) 1.2158(6) 0.51341(19)
C28 C 0.0922(4) 1.1109(8) 0.4949(2)
H13 H 0.0682 1.0653 0.4623
C29 C 0.1648(4) 1.0640(7) 0.5218(2)
H14 H 0.1888 0.9892 0.5074
C30 C -0.0238(3) 1.2500(6) 0.4862(2)
C31 C -0.0670(4) 1.3139(8) 0.5095(2)
H15 H -0.0472 1.3472 0.5442
C32 C -0.1435(4) 1.3338(8) 0.4830(3)
H16 H -0.1724 1.3776 0.5018
C33 C -0.0540(3) 1.2189(7) 0.4327(2)
H17 H -0.0248 1.1829 0.4131
C34 C -0.1302(4) 1.2440(7) 0.4097(2)
H18 H -0.1510 1.2230 0.3739
Co1 Co 0.28969(4) 0.70426(6) 0.60430(2)
N1 N 0.4039(2) 0.7183(4) 0.64650(12)
N2 N 0.3064(3) 0.9520(4) 0.61094(13)
N3 N 0.3910(3) 1.1375(5) 0.64342(17)
H19 H 0.4325 1.1839 0.6592
N4 N 0.3251(2) 1.2060(5) 0.61861(15)
N5 N -0.1757(3) 1.2960(5) 0.43540(16)
O1 O 0.3075(2) 0.7132(3) 0.52374(10)
O2 O 0.3103(2) 0.4979(3) 0.56659(11)
O3 O 0.3285(3) -0.0056(4) 0.49502(14)
H20 H 0.3369 -0.1016 0.4959
O4 O 0.2759(4) -0.0487(5) 0.41253(16)
O5 O 0.2673(2) 0.2444(3) 0.20043(11)
O6 O 0.27859(19) 0.4550(3) 0.15890(11)
O7 O 0.2749(3) 0.9611(4) 0.22775(14)
H21 H 0.2754 1.0587 0.2264
O8 O 0.3056(5) 1.0079(5) 0.30908(17)
Co1B Co -0.28969(4) 1.29574(6) 0.39570(2)
Co1C Co 0.28969(4) 0.29574(6) 0.10430(2)
N5B N 0.1757(3) 0.7040(5) 0.56460(16)
O6C O 0.27859(19) 0.5450(3) 0.65890(11)
loop_
_geom_bond_atom_site_label_1
_geom_bond_atom_site_label_2
_geom_bond_site_symmetry_1
_geom_bond_site_symmetry_2
C1 C2 1_555 1_555
C2 C3 1_555 1_555
C3 H1 1_555 1_555
C4 C3 1_555 1_555
C5 C4 1_555 1_555
H2 C5 1_555 1_555
C6 C5 1_555 1_555
C7 C2 1_555 1_555
H3 C7 1_555 1_555
C8 C6 1_555 1_555
C9 C8 1_555 1_555
H4 C9 1_555 1_555
C10 C9 1_555 1_555
C11 C10 1_555 1_555
H5 C11 1_555 1_555
C12 C11 1_555 1_555
C13 C8 1_555 1_555
H6 C13 1_555 1_555
C14 C12 1_555 1_555
C15 C10 1_555 1_555
C16 C4 1_555 1_555
C17 H7 1_555 1_555
C18 C17 1_555 1_555
H8 C18 1_555 1_555
C19 C18 1_555 1_555
H9 C19 1_555 1_555
C20 C19 1_555 1_555
H10 C20 1_555 1_555
C21 C20 1_555 1_555
C22 C21 1_555 1_555
C23 C24 1_555 1_555
C24 C25 1_555 1_555
C25 H11 1_555 1_555
C26 C25 1_555 1_555
H12 C26 1_555 1_555
C27 C26 1_555 1_555
C28 C27 1_555 1_555
H13 C28 1_555 1_555
C29 C24 1_555 1_555
H14 C29 1_555 1_555
C30 C27 1_555 1_555
C31 C30 1_555 1_555
H15 C31 1_555 1_555
C32 C31 1_555 1_555
H16 C32 1_555 1_555
C33 C30 1_555 1_555
H17 C33 1_555 1_555
C34 C33 1_555 1_555
H18 C34 1_555 1_555
Co1 N1 1_555 1_555
N1 C17 1_555 1_555
N2 C22 1_555 1_555
N3 C22 1_555 1_555
H19 N3 1_555 1_555
N4 C23 1_555 1_555
N5 C32 1_555 1_555
O1 C1 1_555 1_555
O2 C1 1_555 1_555
O3 C16 1_555 1_555
H20 O3 1_555 1_555
O4 C16 1_555 1_555
O5 C15 1_555 1_555
O6 C15 1_555 1_555
O7 C14 1_555 1_555
H21 O7 1_555 1_555
O8 C14 1_555 1_555
Co1B N5 1_555 1_555
Co1C O6 1_555 1_555
N5B Co1 1_555 1_555
O6C Co1 1_555 1_555
C6 C7 1_555 1_555
C12 C13 1_555 1_555
C21 N1 1_555 1_555
C23 N2 1_555 1_555
C28 C29 1_555 1_555
C34 N5 1_555 1_555
Co1 N2 1_555 1_555
Co1 O1 1_555 1_555
Co1 O2 1_555 1_555
N3 N4 1_555 1_555

#END
