
#######################################################################
#
#                 Cambridge Crystallographic Data Centre
#                                CCDC 
#
#######################################################################
#
# If this CIF has been generated from an entry in the Cambridge 
# Structural Database, then it will include bibliographic, chemical, 
# crystal, experimental, refinement or atomic coordinate data resulting 
# from the CCDC's data processing and validation procedures.
#
#######################################################################

data_RIKFEY
_symmetry_cell_setting           monoclinic
_symmetry_space_group_name_H-M   'P 2/c'
_symmetry_Int_Tables_number      13
_space_group_name_Hall           '-P 2yc'
loop_
_symmetry_equiv_pos_site_id
_symmetry_equiv_pos_as_xyz
1 x,y,z
2 -x,y,1/2-z
3 -x,-y,-z
4 x,-y,1/2+z
_cell_length_a                   19.282(9)
_cell_length_b                   8.542(4)
_cell_length_c                   27.116(13)
_cell_angle_alpha                90
_cell_angle_beta                 108.450(10)
_cell_angle_gamma                90
_cell_volume                     4236.63
loop_
_atom_site_label
_atom_site_type_symbol
_atom_site_fract_x
_atom_site_fract_y
_atom_site_fract_z
C1 C 0.4514(5) 0.3946(9) 0.6652(4)
H1 H 0.4329 0.4958 0.6592
C2 C 0.5247(5) 0.3754(12) 0.6914(4)
H2 H 0.5549 0.4619 0.7023
C3 C 0.5520(6) 0.2281(12) 0.7010(5)
H3 H 0.6017 0.2125 0.7178
C4 C 0.5053(5) 0.1009(10) 0.6856(4)
H4 H 0.5227 -0.0007 0.6931
C5 C 0.4333(4) 0.1280(8) 0.6592(3)
C6 C 0.3782(4) 0.0050(7) 0.6398(3)
C7 C 0.2762(4) -0.1007(7) 0.6015(3)
C8 C 0.2002(4) -0.1385(8) 0.5714(3)
C9 C 0.1641(5) -0.2568(11) 0.5878(4)
H5 H 0.1875 -0.3115 0.6182
C10 C 0.0934(5) -0.2937(10) 0.5593(4)
H6 H 0.0696 -0.3732 0.5710
C11 C 0.0568(4) -0.2177(8) 0.5142(3)
C12 C 0.0957(4) -0.1059(9) 0.4959(3)
H7 H 0.0734 -0.0573 0.4641
C13 C 0.1669(4) -0.0662(10) 0.5243(3)
H8 H 0.1920 0.0086 0.5117
C14 C -0.0218(4) -0.2537(9) 0.4847(3)
C15 C -0.0663(5) -0.3156(11) 0.5095(4)
H9 H -0.0480 -0.3443 0.5443
C16 C -0.1408(5) -0.3355(11) 0.4816(4)
H10 H -0.1701 -0.3821 0.4988
C17 C -0.1261(5) -0.2361(11) 0.4092(3)
H11 H -0.1458 -0.2087 0.3744
C18 C -0.0519(4) -0.2147(11) 0.4322(3)
H12 H -0.0229 -0.1758 0.4134
C19 C 0.3098(4) 0.4344(7) 0.5267(2)
C20 C 0.3095(4) 0.5295(7) 0.4809(2)
C21 C 0.3124(5) 0.6900(8) 0.4861(3)
H13 H 0.3198 0.7348 0.5186
C22 C 0.3045(5) 0.7852(8) 0.4435(3)
C23 C 0.2966(6) 0.7176(8) 0.3954(3)
H14 H 0.2915 0.7816 0.3668
C24 C 0.2959(4) 0.5556(8) 0.3894(3)
C25 C 0.3025(4) 0.4636(7) 0.4323(2)
H15 H 0.3024 0.3553 0.4290
C26 C 0.3022(6) 0.9611(9) 0.4492(3)
C27 C 0.2907(5) 0.4834(7) 0.3379(3)
C28 C 0.2943(7) 0.3226(9) 0.3320(3)
H16 H 0.3004 0.2575 0.3606
C29 C 0.2890(7) 0.2568(9) 0.2835(3)
C30 C 0.2818(5) 0.3518(8) 0.2416(3)
H17 H 0.2789 0.3085 0.2095
C31 C 0.2789(4) 0.5117(7) 0.2469(2)
C32 C 0.2822(4) 0.5770(7) 0.2943(2)
H18 H 0.2788 0.6850 0.2971
C33 C 0.2757(4) 0.6100(7) 0.2002(2)
C34 C 0.2903(10) 0.0841(9) 0.2775(4)
N1 N 0.4054(3) 0.2741(7) 0.6479(2)
N2 N 0.3078(3) 0.0392(6) 0.61246(19)
N3 N 0.3262(4) -0.2100(6) 0.6225(3)
N4 N 0.3910(4) -0.1448(7) 0.6462(3)
H19 H 0.4317 -0.1907 0.6619
N5 N -0.1721(3) -0.2928(7) 0.4329(3)
O1 O 0.3081(3) 0.5024(5) 0.56703(17)
O2 O 0.3067(3) 0.2868(5) 0.52509(17)
O3 O 0.3289(4) 1.0044(6) 0.4967(2)
H20 H 0.3432 1.0951 0.4978
O4 O 0.2731(6) 1.0480(7) 0.4133(3)
O5 O 0.2688(4) 0.7552(6) 0.2015(2)
O6 O 0.2795(3) 0.5425(6) 0.16023(18)
O7 O 0.2751(7) 0.0404(7) 0.2299(3)
H21 H 0.2635 -0.0524 0.2274
O8 O 0.3149(9) -0.0059(9) 0.3125(3)
Fe1 Fe 0.28871(5) 0.29342(10) 0.60611(3)
N5B N 0.1721(3) 0.2928(7) 0.5671(3)
O6C O 0.2795(3) 0.4575(6) 0.66023(18)
Fe1B Fe -0.28871(5) -0.29342(10) 0.39389(3)
Fe1C Fe 0.28871(5) 0.70658(10) 0.10611(3)
loop_
_geom_bond_atom_site_label_1
_geom_bond_atom_site_label_2
_geom_bond_site_symmetry_1
_geom_bond_site_symmetry_2
C1 H1 1_555 1_555
C2 C1 1_555 1_555
H2 C2 1_555 1_555
C3 C2 1_555 1_555
H3 C3 1_555 1_555
C4 C3 1_555 1_555
H4 C4 1_555 1_555
C5 C4 1_555 1_555
C6 C5 1_555 1_555
C7 C8 1_555 1_555
C8 C9 1_555 1_555
C9 H5 1_555 1_555
C10 C9 1_555 1_555
H6 C10 1_555 1_555
C11 C10 1_555 1_555
C12 C11 1_555 1_555
H7 C12 1_555 1_555
C13 C8 1_555 1_555
H8 C13 1_555 1_555
C14 C11 1_555 1_555
C15 C14 1_555 1_555
H9 C15 1_555 1_555
C16 C15 1_555 1_555
H10 C16 1_555 1_555
C17 H11 1_555 1_555
C18 C14 1_555 1_555
H12 C18 1_555 1_555
C19 C20 1_555 1_555
C20 C21 1_555 1_555
C21 H13 1_555 1_555
C22 C21 1_555 1_555
C23 C22 1_555 1_555
H14 C23 1_555 1_555
C24 C23 1_555 1_555
C25 C20 1_555 1_555
H15 C25 1_555 1_555
C26 C22 1_555 1_555
C27 C24 1_555 1_555
C28 C27 1_555 1_555
H16 C28 1_555 1_555
C29 C28 1_555 1_555
C30 C29 1_555 1_555
H17 C30 1_555 1_555
C31 C30 1_555 1_555
C32 C27 1_555 1_555
H18 C32 1_555 1_555
C33 C31 1_555 1_555
C34 C29 1_555 1_555
N1 C1 1_555 1_555
N2 C6 1_555 1_555
N3 C7 1_555 1_555
N4 C6 1_555 1_555
H19 N4 1_555 1_555
N5 C16 1_555 1_555
O1 C19 1_555 1_555
O2 C19 1_555 1_555
O3 C26 1_555 1_555
H20 O3 1_555 1_555
O4 C26 1_555 1_555
O5 C33 1_555 1_555
O6 C33 1_555 1_555
O7 C34 1_555 1_555
H21 O7 1_555 1_555
O8 C34 1_555 1_555
Fe1 N1 1_555 1_555
N5B Fe1 1_555 1_555
O6C Fe1 1_555 1_555
Fe1B N5 1_555 1_555
Fe1C O6 1_555 1_555
C5 N1 1_555 1_555
C7 N2 1_555 1_555
C12 C13 1_555 1_555
C17 C18 1_555 1_555
C17 N5 1_555 1_555
C24 C25 1_555 1_555
C31 C32 1_555 1_555
N2 Fe1 1_555 1_555
N3 N4 1_555 1_555
O1 Fe1 1_555 1_555
O2 Fe1 1_555 1_555

#END
