
#######################################################################
#
#                 Cambridge Crystallographic Data Centre
#                                CCDC 
#
#######################################################################
#
# If this CIF has been generated from an entry in the Cambridge 
# Structural Database, then it will include bibliographic, chemical, 
# crystal, experimental, refinement or atomic coordinate data resulting 
# from the CCDC's data processing and validation procedures.
#
#######################################################################

data_RILDEV
_symmetry_cell_setting           monoclinic
_symmetry_space_group_name_H-M   'P 21/c'
_symmetry_Int_Tables_number      14
_space_group_name_Hall           '-P 2ybc'
loop_
_symmetry_equiv_pos_site_id
_symmetry_equiv_pos_as_xyz
1 x,y,z
2 -x,1/2+y,1/2-z
3 -x,-y,-z
4 x,1/2-y,1/2+z
_cell_length_a                   12.7030(10)
_cell_length_b                   13.013(2)
_cell_length_c                   12.3290(10)
_cell_angle_alpha                90
_cell_angle_beta                 117.970(10)
_cell_angle_gamma                90
_cell_volume                     1799.98
loop_
_atom_site_label
_atom_site_type_symbol
_atom_site_fract_x
_atom_site_fract_y
_atom_site_fract_z
Ag1 Ag -0.02049(6) -1.11686(5) 0.30032(6)
S1 S -0.1950(2) -1.1952(2) 0.1069(2)
S2 S -0.1874(2) -1.5333(2) 0.1137(2)
S3 S -0.1607(2) -1.8592(2) 0.1516(3)
F1 F -0.0025(9) -1.9153(11) 0.0894(10)
F2 F -0.1714(11) -1.9808(7) -0.0205(9)
F3 F -0.1412(11) -1.8278(7) -0.0460(9)
O1 O -0.4515(5) -1.2703(5) -0.0385(6)
O2 O -0.3944(6) -1.4485(5) -0.1263(7)
O3 O -0.0933(10) -1.7716(6) 0.2030(9)
O4 O -0.2808(9) -1.8383(13) 0.0820(14)
O5 O -0.1308(10) -1.9436(6) 0.2293(9)
N1 N -0.0783(9) -1.3675(6) -0.0524(9)
N2 N -0.3103(8) -1.3629(7) 0.2689(9)
C1 C -0.1750(7) -1.4009(6) 0.0858(8)
C2 C -0.2132(7) -1.3248(6) 0.1333(7)
C3 C -0.3302(8) -1.1395(6) 0.0985(9)
H1 H -0.3443(8) -1.1678(6) 0.1634(9)
H2 H -0.3206(8) -1.0658(6) 0.1103(9)
C4 C -0.4362(7) -1.1624(7) -0.0253(9)
H3 H -0.5074(7) -1.1307(7) -0.0303(9)
H4 H -0.4223(7) -1.1347(7) -0.0906(9)
C5 C -0.5153(8) -1.2997(8) -0.1625(9)
H5 H -0.4776(8) -1.2715(8) -0.2086(9)
H6 H -0.5962(8) -1.2738(8) -0.1979(9)
C6 C -0.5162(10) -1.4156(9) -0.1687(12)
H7 H -0.5475(10) -1.4442(9) -0.1170(12)
H8 H -0.5660(10) -1.4385(9) -0.2524(12)
C7 C -0.3840(10) -1.5551(7) -0.1144(11)
H9 H -0.4190(10) -1.5867(7) -0.1950(11)
H10 H -0.4262(10) -1.5800(7) -0.0713(11)
C8 C -0.2525(9) -1.5837(7) -0.0430(8)
H11 H -0.2100(9) -1.5559(7) -0.0844(8)
H12 H -0.2443(9) -1.6579(7) -0.0404(8)
C9 C -0.1213(8) -1.3776(6) 0.0085(9)
C10 C -0.2656(8) -1.3499(6) 0.2097(8)
C11 C -0.1204(14) -1.8947(10) 0.0366(17)
Ag1A Ag 0.02049(6) -1.61686(5) 0.19968(6)
S1A S 0.1950(2) -1.6952(2) 0.3931(2)
Ag1_2 Ag -0.02049(6) -2.11686(5) 0.30032(6)
Ag1C Ag -0.02049(6) -1.38314(5) -0.19968(6)
O5A O 0.1308(10) -1.4436(6) 0.2707(9)
N1B N 0.0783(9) -1.6325(6) 0.0524(9)
loop_
_geom_bond_atom_site_label_1
_geom_bond_atom_site_label_2
_geom_bond_site_symmetry_1
_geom_bond_site_symmetry_2
Ag1 S1 1_555 1_555
S1 C2 1_555 1_555
S2 C1 1_555 1_555
S3 O3 1_555 1_555
F1 C11 1_555 1_555
F2 C11 1_555 1_555
F3 C11 1_555 1_555
O1 C4 1_555 1_555
O2 C6 1_555 1_555
O3 Ag1A 1_555 1_555
O4 S3 1_555 1_555
O5 S3 1_555 1_555
N1 C9 1_555 1_555
N2 C10 1_555 1_555
C1 C2 1_555 1_555
C2 C10 1_555 1_555
C3 S1 1_555 1_555
H1 C3 1_555 1_555
H2 C3 1_555 1_555
C4 C3 1_555 1_555
H3 C4 1_555 1_555
H4 C4 1_555 1_555
C5 O1 1_555 1_555
H5 C5 1_555 1_555
H6 C5 1_555 1_555
C6 C5 1_555 1_555
H7 C6 1_555 1_555
H8 C6 1_555 1_555
C7 O2 1_555 1_555
H9 C7 1_555 1_555
H10 C7 1_555 1_555
C8 S2 1_555 1_555
H11 C8 1_555 1_555
H12 C8 1_555 1_555
C9 C1 1_555 1_555
C11 S3 1_555 1_555
Ag1A S2 1_555 1_555
S1A Ag1A 1_555 1_555
Ag1_2 O5 1_555 1_555
Ag1C N1 1_555 1_555
O5A Ag1A 1_555 1_555
N1B Ag1A 1_555 1_555
C7 C8 1_555 1_555

#END
