
#######################################################################
#
#                 Cambridge Crystallographic Data Centre
#                                CCDC 
#
#######################################################################
#
# If this CIF has been generated from an entry in the Cambridge 
# Structural Database, then it will include bibliographic, chemical, 
# crystal, experimental, refinement or atomic coordinate data resulting 
# from the CCDC's data processing and validation procedures.
#
#######################################################################

data_RILHUP
_symmetry_cell_setting           monoclinic
_symmetry_space_group_name_H-M   'P 21/m'
_symmetry_Int_Tables_number      11
_space_group_name_Hall           '-P 2yb'
loop_
_symmetry_equiv_pos_site_id
_symmetry_equiv_pos_as_xyz
1 x,y,z
2 -x,1/2+y,-z
3 -x,-y,-z
4 x,1/2-y,z
_cell_length_a                   8.305(1)
_cell_length_b                   14.162(2)
_cell_length_c                   10.747(2)
_cell_angle_alpha                90
_cell_angle_beta                 101.02(1)
_cell_angle_gamma                90
_cell_volume                     1240.71
loop_
_atom_site_label
_atom_site_type_symbol
_atom_site_fract_x
_atom_site_fract_y
_atom_site_fract_z
Cu1 Cu 0.4152(1) 0.1229(1) 0.7250(1)
O1 O 0.3450(3) 0.1705(2) 0.5545(2)
O2 O 0.6344(3) 0.1706(2) 0.7478(2)
N1 N 0.4756(3) 0.0522(2) 0.8911(2)
N2 N 0.2002(3) 0.0601(2) 0.7269(3)
C1 C 0.3527(4) 0.0006(2) 0.9217(3)
C2 C 0.6216(4) 0.0522(3) 0.9689(3)
C3 C 0.1952(4) 0.0076(2) 0.8307(3)
C4 C 0.0504(4) -0.0346(3) 0.8506(3)
C5 C -0.0905(4) -0.0221(3) 0.7601(3)
C6 C -0.0839(4) 0.0294(3) 0.6530(3)
C7 C 0.0637(4) 0.0699(3) 0.6391(3)
C8 C 0.3295(6) 0.2500 0.5009(4)
C9 C 0.2902(8) 0.2500 0.3590(5)
C10 C 0.7036(5) 0.2500 0.7562(4)
C11 C 0.8882(6) 0.2500 0.7793(6)
Cl1 Cl 0.2952(2) 0.2500 1.0031(1)
O3 O 0.3029(5) 0.2500 0.8694(3)
O4 O 0.4565(6) 0.2500 1.0735(5)
O5 O 0.2097(4) 0.1683(2) 1.0313(3)
O9 O 0.4927(4) -0.0333(2) 0.6275(3)
H1 H 0.7077(4) 0.0886(3) 0.9487(3)
H2 H 0.0487(4) -0.0707(3) 0.9237(3)
H3 H -0.1902(4) -0.0488(3) 0.7719(3)
H4 H -0.1783(4) 0.0373(3) 0.5899(3)
H5 H 0.0679(4) 0.1051(3) 0.5657(3)
H6 H 0.2156(68) 0.2041(41) 0.3272(50)
H7 H 0.367(11) 0.2500 0.3250(82)
H8 H 0.929(10) 0.2500 0.6975(84)
H9 H 0.9273(51) 0.1887(34) 0.8170(41)
H10 H 0.4277(56) -0.0736(34) 0.6385(53)
H11 H 0.5261(68) -0.0599(42) 0.5733(42)
O1C O 0.3450(3) 0.3295(2) 0.5545(2)
Cu1C Cu 0.4152(1) 0.3771(1) 0.7250(1)
O2C O 0.6344(3) 0.3294(2) 0.7478(2)
C2B C 0.3784(4) -0.0522(3) 1.0311(3)
N1B N 0.5244(3) -0.0522(2) 1.1089(2)
Cu1B Cu 0.5848(1) -0.1229(1) 1.2750(1)
N2B N 0.7998(3) -0.0601(2) 1.2731(3)
C3B C 0.8048(4) -0.0076(2) 1.1693(3)
C1B C 0.6473(4) -0.0006(2) 1.0783(3)
C4B C 0.9496(4) 0.0346(3) 1.1494(3)
C5B C 1.0905(4) 0.0221(3) 1.2399(3)
C6B C 1.0839(4) -0.0294(3) 1.3470(3)
C7B C 0.9363(4) -0.0699(3) 1.3609(3)
H5B H 0.9321(4) -0.1051(3) 1.4343(3)
H4B H 1.1783(4) -0.0373(3) 1.4101(3)
H3B H 1.1902(4) 0.0488(3) 1.2281(3)
H2B H 0.9513(4) 0.0707(3) 1.0763(3)
H1B H 0.2923(4) -0.0886(3) 1.0513(3)
H9C H 0.9273(51) 0.3113(34) 0.8170(41)
N1C N 0.4756(3) 0.4478(2) 0.8911(2)
N2C N 0.2002(3) 0.4399(2) 0.7269(3)
O9C O 0.4927(4) 0.5333(2) 0.6275(3)
H10C H 0.4277(56) 0.5736(34) 0.6385(53)
H11C H 0.5261(68) 0.5599(42) 0.5733(42)
H6C H 0.2156(68) 0.2959(41) 0.3272(50)
O5C O 0.2097(4) 0.3317(2) 1.0313(3)
Cl2 Cl 0.2152(2) -0.2500 0.6114(1)
O6 O 0.2490(5) -0.1685(3) 0.6864(4)
O7 O 0.0498(5) -0.2500 0.5484(5)
O8 O 0.3210(6) -0.2500 0.5213(5)
O6C O 0.2490(5) -0.3315(3) 0.6864(4)
O10 O 0.8255(7) 0.2500 1.0473(5)
loop_
_geom_bond_atom_site_label_1
_geom_bond_atom_site_label_2
_geom_bond_site_symmetry_1
_geom_bond_site_symmetry_2
Cu1 O1 1_555 1_555
O1 C8 1_555 1_555
O2 Cu1 1_555 1_555
N1 Cu1 1_555 1_555
N2 Cu1 1_555 1_555
C1 N1 1_555 1_555
C2 N1 1_555 1_555
C3 N2 1_555 1_555
C4 C3 1_555 1_555
C5 C4 1_555 1_555
C6 C5 1_555 1_555
C7 N2 1_555 1_555
C8 C9 1_555 1_555
C9 H6 1_555 1_555
C10 O2 1_555 1_555
C11 C10 1_555 1_555
Cl1 O3 1_555 1_555
O3 Cu1 1_555 1_555
O4 Cl1 1_555 1_555
O5 Cl1 1_555 1_555
Cl2 O6 1_555 1_555
O7 Cl2 1_555 1_555
O8 Cl2 1_555 1_555
O9 Cu1 1_555 1_555
H1 C2 1_555 1_555
H2 C4 1_555 1_555
H3 C5 1_555 1_555
H4 C6 1_555 1_555
H5 C7 1_555 1_555
H7 C9 1_555 1_555
H8 C11 1_555 1_555
H9 C11 1_555 1_555
H10 O9 1_555 1_555
H11 O9 1_555 1_555
O1C C8 1_555 1_555
Cu1C O3 1_555 1_555
O2C C10 1_555 1_555
C2B C1 1_555 1_555
N1B C2B 1_555 1_555
Cu1B N1B 1_555 1_555
N2B Cu1B 1_555 1_555
C3B N2B 1_555 1_555
C1B C2 1_555 1_555
C4B C3B 1_555 1_555
C5B C4B 1_555 1_555
C6B C5B 1_555 1_555
C7B N2B 1_555 1_555
H5B C7B 1_555 1_555
H4B C6B 1_555 1_555
H3B C5B 1_555 1_555
H2B C4B 1_555 1_555
H1B C2B 1_555 1_555
H9C C11 1_555 1_555
N1C Cu1C 1_555 1_555
N2C Cu1C 1_555 1_555
O9C Cu1C 1_555 1_555
H10C O9C 1_555 1_555
H11C O9C 1_555 1_555
H6C C9 1_555 1_555
O5C Cl1 1_555 1_555
O6C Cl2 1_555 1_555
C1 C3 1_555 1_555
C6 C7 1_555 1_555
O1C Cu1C 1_555 1_555
Cu1C O2C 1_555 1_555
N1B C1B 1_555 1_555
C3B C1B 1_555 1_555
C6B C7B 1_555 1_555

#END
