
#######################################################################
#
#                 Cambridge Crystallographic Data Centre
#                                CCDC 
#
#######################################################################
#
# If this CIF has been generated from an entry in the Cambridge 
# Structural Database, then it will include bibliographic, chemical, 
# crystal, experimental, refinement or atomic coordinate data resulting 
# from the CCDC's data processing and validation procedures.
#
#######################################################################

data_RILJAX
_symmetry_cell_setting           triclinic
_symmetry_space_group_name_H-M   'P -1'
_symmetry_Int_Tables_number      2
_space_group_name_Hall           '-P 1'
loop_
_symmetry_equiv_pos_site_id
_symmetry_equiv_pos_as_xyz
1 x,y,z
2 -x,-y,-z
_cell_length_a                   10.505(4)
_cell_length_b                   11.666(3)
_cell_length_c                   16.780(5)
_cell_angle_alpha                91.87(3)
_cell_angle_beta                 102.85(4)
_cell_angle_gamma                113.60(2)
_cell_volume                     1820.11
loop_
_atom_site_label
_atom_site_type_symbol
_atom_site_fract_x
_atom_site_fract_y
_atom_site_fract_z
Cu1 Cu 0.3943(1) 0.4137(1) 0.6745(1)
Cu2 Cu 0.2361(1) 0.4284(1) 0.8238(1)
O1 O 0.4799(4) 0.5893(4) 0.7269(3)
O2 O 0.3135(4) 0.5934(4) 0.7884(2)
O3 O 0.1825(5) 0.4115(4) 0.6315(3)
O4 O 0.0704(4) 0.3579(4) 0.7318(3)
O5 O 0.3693(5) 0.3363(4) 0.7745(3)
O6 O 0.5887(6) 0.3645(6) 0.7796(4)
N1 N 0.4643(5) 0.4725(5) 0.5731(3)
N2 N 0.3187(5) 0.2469(5) 0.6037(3)
N3 N 0.3965(5) 0.4827(5) 0.9285(3)
N4 N 0.1352(5) 0.3136(5) 0.8970(3)
C1 C 0.4210(6) 0.3809(6) 0.5102(4)
C2 C 0.5435(7) 0.5923(6) 0.5631(4)
C3 C 0.3345(6) 0.2519(6) 0.5270(4)
C4 C 0.2758(8) 0.1460(6) 0.4687(4)
C5 C 0.1967(8) 0.0305(7) 0.4910(5)
C6 C 0.1792(8) 0.0255(7) 0.5690(5)
C7 C 0.2413(8) 0.1346(6) 0.6245(4)
C8 C 0.3621(6) 0.4202(6) 0.9912(3)
C9 C 0.5350(6) 0.5634(6) 0.9372(4)
C10 C 0.2101(6) 0.3288(7) 0.9762(4)
C11 C 0.1496(7) 0.2697(8) 1.0349(4)
C12 C 0.0046(9) 0.1847(11) 1.0124(5)
C13 C -0.0725(9) 0.1665(11) 0.9327(6)
C14 C -0.0034(7) 0.2293(8) 0.8748(5)
C15 C 0.4152(6) 0.6453(6) 0.7560(3)
C16 C 0.4650(6) 0.7834(6) 0.7519(4)
C17 C 0.6012(6) 0.8536(6) 0.7400(4)
C18 C 0.6479(7) 0.9811(6) 0.7375(5)
C19 C 0.5620(8) 1.0416(7) 0.7466(5)
C20 C 0.4271(8) 0.9710(6) 0.7599(4)
C21 C 0.3808(7) 0.8444(6) 0.7625(4)
C22 C 0.0727(7) 0.3672(6) 0.6574(4)
C23 C -0.0703(7) 0.3185(6) 0.5954(4)
C24 C -0.1975(7) 0.2598(8) 0.6182(5)
C25 C -0.3274(8) 0.2109(9) 0.5598(5)
C26 C -0.3310(9) 0.2202(9) 0.4774(5)
C27 C -0.2062(9) 0.2817(8) 0.4550(5)
C28 C -0.0751(8) 0.3270(7) 0.5123(4)
C29 C 0.4845(8) 0.3242(7) 0.8078(4)
C30 C 0.4826(11) 0.2561(8) 0.8827(5)
C31 C 0.3523(14) 0.1699(9) 0.8939(5)
C32 C 0.3448(17) 0.1041(10) 0.9613(7)
C33 C 0.4712(19) 0.1308(12) 1.0176(7)
C34 C 0.6002(17) 0.2139(11) 1.0113(6)
C35 C 0.6039(14) 0.2774(10) 0.9402(6)
C9A C 0.4650(6) 0.4366(6) 1.0628(4)
N3A N 0.6035(5) 0.5173(5) 1.0715(3)
Cu2A Cu 0.7639(1) 0.5716(1) 1.1762(1)
O2A O 0.6865(4) 0.4066(4) 1.2116(2)
C15A C 0.5848(6) 0.3547(6) 1.2440(3)
O1A O 0.5201(4) 0.4107(4) 1.2731(3)
Cu1A Cu 0.6057(1) 0.5863(1) 1.3255(1)
O3A O 0.8175(5) 0.5885(4) 1.3685(3)
C22A C 0.9273(7) 0.6328(6) 1.3426(4)
O4A O 0.9296(4) 0.6421(4) 1.2682(3)
O5A O 0.6307(5) 0.6637(4) 1.2255(3)
N1A N 0.5357(5) 0.5275(5) 1.4269(3)
N2A N 0.6813(5) 0.7531(5) 1.3963(3)
C29A C 0.5155(8) 0.6758(7) 1.1922(4)
O6A O 0.4113(6) 0.6355(6) 1.2204(4)
C30A C 0.5174(11) 0.7439(8) 1.1173(5)
C31A C 0.6477(14) 0.8301(9) 1.1061(5)
C32A C 0.6552(17) 0.8959(10) 1.0387(7)
C33A C 0.5288(19) 0.8692(12) 0.9824(7)
C34A C 0.3998(17) 0.7861(11) 0.9887(6)
C35A C 0.3961(14) 0.7226(10) 1.0598(6)
N4A N 0.8648(5) 0.6864(5) 1.1030(3)
C10A C 0.7899(6) 0.6712(7) 1.0238(4)
C8A C 0.6379(6) 0.5798(6) 1.0088(3)
C11A C 0.8504(7) 0.7303(8) 0.9651(4)
C12A C 0.9954(9) 0.8153(11) 0.9876(5)
C13A C 1.0725(9) 0.8335(11) 1.0673(6)
C14A C 1.0034(7) 0.7707(8) 1.1252(5)
C23A C 1.0703(7) 0.6815(6) 1.4046(4)
C24A C 1.1975(7) 0.7402(8) 1.3818(5)
C25A C 1.3274(8) 0.7891(9) 1.4402(5)
C26A C 1.3310(9) 0.7798(9) 1.5226(5)
C27A C 1.2062(9) 0.7183(8) 1.5450(5)
C28A C 1.0751(8) 0.6730(7) 1.4877(4)
C16A C 0.5350(6) 0.2166(6) 1.2481(4)
C17A C 0.3988(6) 0.1464(6) 1.2600(4)
C18A C 0.3521(7) 0.0189(6) 1.2625(5)
C19A C 0.4380(8) -0.0416(7) 1.2534(5)
C20A C 0.5729(8) 0.0290(6) 1.2401(4)
C21A C 0.6192(7) 0.1556(6) 1.2375(4)
C2A C 0.4565(7) 0.4077(6) 0.4369(4)
C1A C 0.5790(6) 0.6191(6) 0.4898(4)
N1A_2 N 0.5357(5) 0.5275(5) 0.4269(3)
C3A C 0.6655(6) 0.7481(6) 0.4730(4)
Cu1A_2 Cu 0.6057(1) 0.5863(1) 0.3255(1)
N2A_2 N 0.6813(5) 0.7531(5) 0.3963(3)
C4A C 0.7242(8) 0.8540(6) 0.5313(4)
C7A C 0.7587(8) 0.8654(6) 0.3755(4)
C5A C 0.8033(8) 0.9695(7) 0.5090(5)
C6A C 0.8208(8) 0.9745(7) 0.4310(5)
Cl1 Cl 0.0139(3) 0.1008(3) 0.2509(2)
O7 O 0.0240(9) -0.0052(8) 0.2876(5)
O8 O 0.1340(12) 0.2097(11) 0.2946(11)
O9 O -0.1019(11) 0.1098(12) 0.2419(14)
O10 O 0.0647(14) 0.1094(19) 0.1868(8)
O11 O 0.0880(17) 0.4443(13) 0.2265(14)
O12 O 0.0528(20) 0.5435(11) 0.8891(13)
loop_
_geom_bond_atom_site_label_1
_geom_bond_atom_site_label_2
_geom_bond_site_symmetry_1
_geom_bond_site_symmetry_2
Cu1 O1 1_555 1_555
Cu2 O2 1_555 1_555
O1 C15 1_555 1_555
O2 C15 1_555 1_555
O3 Cu1 1_555 1_555
O4 Cu2 1_555 1_555
O5 Cu1 1_555 1_555
O6 C29 1_555 1_555
N1 Cu1 1_555 1_555
N2 Cu1 1_555 1_555
N3 Cu2 1_555 1_555
N4 Cu2 1_555 1_555
C1 N1 1_555 1_555
C2 N1 1_555 1_555
C3 N2 1_555 1_555
C4 C3 1_555 1_555
C5 C4 1_555 1_555
C6 C5 1_555 1_555
C7 N2 1_555 1_555
C8 N3 1_555 1_555
C9 N3 1_555 1_555
C10 N4 1_555 1_555
C11 C10 1_555 1_555
C12 C11 1_555 1_555
C13 C12 1_555 1_555
C14 N4 1_555 1_555
C15 C16 1_555 1_555
C16 C17 1_555 1_555
C17 C18 1_555 1_555
C18 C19 1_555 1_555
C19 C20 1_555 1_555
C20 C21 1_555 1_555
C21 C16 1_555 1_555
C22 O3 1_555 1_555
C23 C22 1_555 1_555
C24 C23 1_555 1_555
C25 C24 1_555 1_555
C26 C25 1_555 1_555
C27 C26 1_555 1_555
C28 C23 1_555 1_555
C29 O5 1_555 1_555
C30 C29 1_555 1_555
C31 C30 1_555 1_555
C32 C31 1_555 1_555
C33 C32 1_555 1_555
C34 C33 1_555 1_555
C35 C30 1_555 1_555
Cl1 O7 1_555 1_555
O8 Cl1 1_555 1_555
O9 Cl1 1_555 1_555
O10 Cl1 1_555 1_555
C9A C8 1_555 1_555
N3A C9A 1_555 1_555
Cu2A N3A 1_555 1_555
O2A Cu2A 1_555 1_555
C15A O2A 1_555 1_555
O1A C15A 1_555 1_555
Cu1A O1A 1_555 1_555
O3A Cu1A 1_555 1_555
C22A O3A 1_555 1_555
O4A Cu2A 1_555 1_555
O5A Cu2A 1_555 1_555
N1A Cu1A 1_555 1_555
N2A Cu1A 1_555 1_555
C29A O5A 1_555 1_555
O6A C29A 1_555 1_555
C30A C29A 1_555 1_555
C31A C30A 1_555 1_555
C32A C31A 1_555 1_555
C33A C32A 1_555 1_555
C34A C33A 1_555 1_555
C35A C30A 1_555 1_555
N4A Cu2A 1_555 1_555
C10A N4A 1_555 1_555
C8A C9 1_555 1_555
C11A C10A 1_555 1_555
C12A C11A 1_555 1_555
C13A C12A 1_555 1_555
C14A N4A 1_555 1_555
C23A C22A 1_555 1_555
C24A C23A 1_555 1_555
C25A C24A 1_555 1_555
C26A C25A 1_555 1_555
C27A C26A 1_555 1_555
C28A C23A 1_555 1_555
C16A C15A 1_555 1_555
C17A C16A 1_555 1_555
C18A C17A 1_555 1_555
C19A C18A 1_555 1_555
C20A C19A 1_555 1_555
C21A C16A 1_555 1_555
C2A C1 1_555 1_555
C1A C2 1_555 1_555
N1A_2 C2A 1_555 1_555
C3A C1A 1_555 1_555
Cu1A_2 N1A_2 1_555 1_555
N2A_2 C3A 1_555 1_555
C4A C3A 1_555 1_555
C7A N2A_2 1_555 1_555
C5A C4A 1_555 1_555
C6A C7A 1_555 1_555
Cu2 O5 1_555 1_555
O4 C22 1_555 1_555
C1 C3 1_555 1_555
C6 C7 1_555 1_555
C8 C10 1_555 1_555
C13 C14 1_555 1_555
C27 C28 1_555 1_555
C34 C35 1_555 1_555
N3A C8A 1_555 1_555
Cu1A O5A 1_555 1_555
C22A O4A 1_555 1_555
C34A C35A 1_555 1_555
C10A C8A 1_555 1_555
C13A C14A 1_555 1_555
C27A C28A 1_555 1_555
C20A C21A 1_555 1_555
C1A N1A_2 1_555 1_555
Cu1A_2 N2A_2 1_555 1_555
C5A C6A 1_555 1_555

#END
