
#######################################################################
#
#                 Cambridge Crystallographic Data Centre
#                                CCDC 
#
#######################################################################
#
# If this CIF has been generated from an entry in the Cambridge 
# Structural Database, then it will include bibliographic, chemical, 
# crystal, experimental, refinement or atomic coordinate data resulting 
# from the CCDC's data processing and validation procedures.
#
#######################################################################

data_RILVOZ
_symmetry_cell_setting           orthorhombic
_symmetry_space_group_name_H-M   'P n a 21'
_symmetry_Int_Tables_number      33
_space_group_name_Hall           'P 2c -2n'
loop_
_symmetry_equiv_pos_site_id
_symmetry_equiv_pos_as_xyz
1 x,y,z
2 -x,-y,1/2+z
3 1/2+x,1/2-y,z
4 1/2-x,1/2+y,1/2+z
_cell_length_a                   7.437(3)
_cell_length_b                   15.164(7)
_cell_length_c                   11.278(5)
_cell_angle_alpha                90
_cell_angle_beta                 90
_cell_angle_gamma                90
_cell_volume                     1271.87
loop_
_atom_site_label
_atom_site_type_symbol
_atom_site_fract_x
_atom_site_fract_y
_atom_site_fract_z
Mn1 Mn 0.46469(3) 0.779411(15) 0.71385(3)
O1 O 0.26169(18) 0.73411(8) 0.83165(12)
O2 O 0.07962(19) 0.62064(10) 0.83468(14)
O3 O 0.20239(15) 0.37525(7) 1.12943(12)
O4 O 0.49225(16) 0.35535(9) 1.17490(12)
O5 O 0.73679(19) 0.66780(10) 1.12827(15)
O6 O 0.64562(19) 0.80417(9) 0.56696(12)
N1 N 0.7467(2) 0.88928(10) 0.41656(15)
C1 C 0.2187(3) 0.65818(13) 0.86907(17)
C2 C 0.3638(2) 0.39894(11) 1.13184(16)
C3 C 0.3358(2) 0.61394(12) 0.96051(16)
C4 C 0.2966(2) 0.52920(11) 0.99959(16)
H1 H 0.1936 0.4993 0.9701
C5 C 0.4083(2) 0.48800(11) 1.08206(15)
C6 C 0.5604(2) 0.53224(13) 1.12449(17)
H2 H 0.6394 0.5038 1.1784
C7 C 0.5953(2) 0.61766(12) 1.08763(16)
C8 C 0.4823(2) 0.65894(13) 1.00619(17)
H3 H 0.5057 0.7179 0.9820
C9 C 0.8788(3) 0.62473(15) 1.1852(3)
H4 H 0.9695 0.6681 1.2092
H5 H 0.9331 0.5820 1.1308
H6 H 0.8333 0.5939 1.2554
C10 C 0.6518(3) 0.87450(13) 0.51296(18)
H7 H 0.5824 0.9220 0.5433
C11 C 0.7441(3) 0.97403(15) 0.3578(2)
H8 H 0.6597 1.0133 0.3986
H9 H 0.7061 0.9663 0.2753
H10 H 0.8648 0.9999 0.3598
C12 C 0.8643(4) 0.82111(17) 0.3690(2)
H11 H 0.8525 0.7674 0.4168
H12 H 0.9892 0.8416 0.3714
H13 H 0.8302 0.8084 0.2868
Mn1A Mn 0.53531(3) 0.220589(15) 1.21385(3)
Mn1B Mn -0.03531(3) 0.720589(15) 0.71385(3)
Mn1C Mn 0.03531(3) 0.279411(15) 1.21385(3)
O2B O 0.57962(19) 0.87936(10) 0.83468(14)
O3C O 0.29761(15) 0.87525(7) 0.62943(12)
O4A O 0.50775(16) 0.64465(9) 0.67490(12)
loop_
_geom_bond_atom_site_label_1
_geom_bond_atom_site_label_2
_geom_bond_site_symmetry_1
_geom_bond_site_symmetry_2
Mn1 O1 1_555 1_555
O1 C1 1_555 1_555
O2 C1 1_555 1_555
O3 C2 1_555 1_555
O4 C2 1_555 1_555
O5 C7 1_555 1_555
O6 Mn1 1_555 1_555
N1 C10 1_555 1_555
C1 C3 1_555 1_555
C2 C5 1_555 1_555
C3 C4 1_555 1_555
C4 H1 1_555 1_555
C5 C4 1_555 1_555
C6 C5 1_555 1_555
H2 C6 1_555 1_555
C7 C6 1_555 1_555
C8 C3 1_555 1_555
H3 C8 1_555 1_555
C9 O5 1_555 1_555
H4 C9 1_555 1_555
H5 C9 1_555 1_555
H6 C9 1_555 1_555
C10 O6 1_555 1_555
H7 C10 1_555 1_555
C11 N1 1_555 1_555
H8 C11 1_555 1_555
H9 C11 1_555 1_555
H10 C11 1_555 1_555
C12 N1 1_555 1_555
H11 C12 1_555 1_555
H12 C12 1_555 1_555
H13 C12 1_555 1_555
Mn1A O4 1_555 1_555
Mn1B O2 1_555 1_555
Mn1C O3 1_555 1_555
O2B Mn1 1_555 1_555
O3C Mn1 1_555 1_555
O4A Mn1 1_555 1_555
C7 C8 1_555 1_555

#END
