
#######################################################################
#
#                 Cambridge Crystallographic Data Centre
#                                CCDC 
#
#######################################################################
#
# If this CIF has been generated from an entry in the Cambridge 
# Structural Database, then it will include bibliographic, chemical, 
# crystal, experimental, refinement or atomic coordinate data resulting 
# from the CCDC's data processing and validation procedures.
#
#######################################################################

data_RILVAL
_symmetry_cell_setting           monoclinic
_symmetry_space_group_name_H-M   'P 21/c'
_symmetry_Int_Tables_number      14
_space_group_name_Hall           '-P 2ybc'
loop_
_symmetry_equiv_pos_site_id
_symmetry_equiv_pos_as_xyz
1 x,y,z
2 -x,1/2+y,1/2-z
3 -x,-y,-z
4 x,1/2-y,1/2+z
_cell_length_a                   4.3137(4)
_cell_length_b                   27.918(2)
_cell_length_c                   17.6437(15)
_cell_angle_alpha                90
_cell_angle_beta                 93.8970(10)
_cell_angle_gamma                90
_cell_volume                     2119.92
loop_
_atom_site_label
_atom_site_type_symbol
_atom_site_fract_x
_atom_site_fract_y
_atom_site_fract_z
Pb1 Pb 0.42997(6) 0.359536(9) 0.468120(15)
Pb2 Pb 1.06483(6) 0.340255(9) 0.698110(15)
I1 I 1.11882(13) 0.474418(18) 0.88313(3)
I2 I 0.25214(13) 0.402666(19) 1.07356(3)
O1 O 1.0482(11) 0.59910(18) 0.5617(3)
O2 O 1.4538(11) 0.59467(18) 0.6435(3)
O3 O 0.4803(13) 0.43503(18) 0.5367(3)
O4 O 0.6139(12) 0.38246(17) 0.6271(3)
O5 O 0.6761(13) 0.34714(18) 0.7933(3)
O6 O 1.0108(14) 0.2875(2) 0.8149(3)
O7 O 0.9856(14) 0.19388(19) 1.0519(3)
O8 O 0.7680(18) 0.2246(2) 1.1505(3)
C1 C 1.1927(15) 0.5803(2) 0.6190(4)
C2 C 1.0581(15) 0.5371(2) 0.6565(4)
C3 C 1.1319(16) 0.5290(2) 0.7334(4)
H1 H 1.2604 0.5500 0.7616
C4 C 1.0113(16) 0.4891(2) 0.7671(4)
C5 C 0.8355(15) 0.4564(2) 0.7250(4)
H2 H 0.7585 0.4294 0.7483
C6 C 0.7722(15) 0.4635(2) 0.6472(4)
C7 C 0.8748(15) 0.5052(2) 0.6133(4)
H3 H 0.8208 0.5115 0.5623
C8 C 0.6111(15) 0.4248(2) 0.6003(4)
C9 C 0.7997(18) 0.3147(2) 0.8365(4)
C10 C 0.7015(16) 0.3101(2) 0.9156(4)
C11 C 0.5359(17) 0.3470(2) 0.9481(4)
H4 H 0.4706 0.3734 0.9190
C12 C 0.4692(18) 0.3442(2) 1.0239(4)
C13 C 0.5569(18) 0.3048(2) 1.0674(4)
H5 H 0.5081 0.3030 1.1178
C14 C 0.7198(18) 0.2678(2) 1.0347(4)
C15 C 0.7920(17) 0.2714(2) 0.9596(4)
H6 H 0.9045 0.2469 0.9385
C16 C 0.8333(19) 0.2262(2) 1.0812(4)
O9 O 0.223(3) 0.3057(3) 0.3413(5)
H7 H 0.18(3) 0.2765(16) 0.348(8)
C17 C 0.128(6) 0.3237(6) 0.2691(10)
H8 H -0.0938 0.3209 0.2610
H9 H 0.2256 0.3058 0.2310
H10 H 0.1863 0.3568 0.2661
Pb1B Pb 0.57003(6) 0.640464(9) 0.531880(15)
Pb1B_2 Pb 1.57003(6) 0.640464(9) 0.531880(15)
Pb1C Pb 1.42997(6) 0.140464(9) 0.968120(15)
Pb2C Pb 1.06483(6) 0.159745(9) 1.198110(15)
O1B O -0.0482(11) 0.40090(18) 0.4383(3)
O1B_2 O 0.9518(11) 0.40090(18) 0.4383(3)
O2B O 0.5462(11) 0.40533(18) 0.3565(3)
O7C O -0.0144(14) 0.30612(19) 0.5519(3)
O7C_2 O 0.9856(14) 0.30612(19) 0.5519(3)
O8C O 0.7680(18) 0.2754(2) 0.6505(3)
loop_
_geom_bond_atom_site_label_1
_geom_bond_atom_site_label_2
_geom_bond_site_symmetry_1
_geom_bond_site_symmetry_2
Pb1 O3 1_555 1_555
Pb2 O4 1_555 1_555
I1 C4 1_555 1_555
I2 C12 1_555 1_555
O1 C1 1_555 1_555
O2 C1 1_555 1_555
O3 C8 1_555 1_555
O4 C8 1_555 1_555
O5 Pb2 1_555 1_555
O6 Pb2 1_555 1_555
O7 C16 1_555 1_555
O8 C16 1_555 1_555
C1 C2 1_555 1_555
C2 C3 1_555 1_555
C3 H1 1_555 1_555
C4 C3 1_555 1_555
C5 C4 1_555 1_555
H2 C5 1_555 1_555
C6 C5 1_555 1_555
C7 C2 1_555 1_555
H3 C7 1_555 1_555
C8 C6 1_555 1_555
C9 O5 1_555 1_555
C10 C9 1_555 1_555
C11 C10 1_555 1_555
H4 C11 1_555 1_555
C12 C11 1_555 1_555
C13 C12 1_555 1_555
H5 C13 1_555 1_555
C14 C13 1_555 1_555
C15 C10 1_555 1_555
H6 C15 1_555 1_555
C16 C14 1_555 1_555
O9 Pb1 1_555 1_555
H7 O9 1_555 1_555
C17 O9 1_555 1_555
H8 C17 1_555 1_555
H9 C17 1_555 1_555
H10 C17 1_555 1_555
Pb1B O1 1_555 1_555
Pb1B_2 O1 1_555 1_555
Pb1C O7 1_555 1_555
Pb2C O7 1_555 1_555
O1B Pb1 1_555 1_555
O1B_2 Pb1 1_555 1_555
O2B Pb1 1_555 1_555
O7C Pb1 1_555 1_555
O7C_2 Pb2 1_555 1_555
O8C Pb2 1_555 1_555
O2 Pb1B_2 1_555 1_555
O6 C9 1_555 1_555
O8 Pb2C 1_555 1_555
C6 C7 1_555 1_555
C14 C15 1_555 1_555

#END
