
#######################################################################
#
#                 Cambridge Crystallographic Data Centre
#                                CCDC 
#
#######################################################################
#
# If this CIF has been generated from an entry in the Cambridge 
# Structural Database, then it will include bibliographic, chemical, 
# crystal, experimental, refinement or atomic coordinate data resulting 
# from the CCDC's data processing and validation procedures.
#
#######################################################################

data_RILWAM
_symmetry_cell_setting           triclinic
_symmetry_space_group_name_H-M   'P -1'
_symmetry_Int_Tables_number      2
_space_group_name_Hall           '-P 1'
loop_
_symmetry_equiv_pos_site_id
_symmetry_equiv_pos_as_xyz
1 x,y,z
2 -x,-y,-z
_cell_length_a                   9.128(2)
_cell_length_b                   10.254(3)
_cell_length_c                   13.429(4)
_cell_angle_alpha                70.065(3)
_cell_angle_beta                 77.717(4)
_cell_angle_gamma                86.952(3)
_cell_volume                     1154.31
loop_
_atom_site_label
_atom_site_type_symbol
_atom_site_fract_x
_atom_site_fract_y
_atom_site_fract_z
Cd1 Cd 0.36190(3) 1.32721(3) 0.23763(2)
I1 I 0.64498(4) 1.37177(4) 0.10783(3)
I2 I 0.13184(3) 1.50971(3) 0.27458(2)
N1 N 0.7491(4) 0.7373(3) -0.1127(3)
N2 N 0.3074(4) 1.1119(3) 0.3762(2)
N3 N 0.2289(4) 0.8917(3) 0.4570(3)
N4 N 0.5115(4) 0.6109(3) 0.6357(3)
C1 C 0.8846(5) 0.6977(5) -0.0930(3)
H1 H 0.9473 0.6579 -0.1386
C2 C 0.9356(5) 0.7129(6) -0.0089(4)
H2 H 1.0314 0.6851 0.0017
C3 C 0.8426(5) 0.7702(5) 0.0600(4)
H3 H 0.8747 0.7793 0.1187
C4 C 0.7029(5) 0.8138(4) 0.0419(3)
C5 C 0.6607(5) 0.7932(4) -0.0451(3)
H4 H 0.5653 0.8198 -0.0573
C6 C 0.5966(5) 0.8703(4) 0.1159(3)
C7 C 0.6494(5) 0.9482(4) 0.1686(3)
H5 H 0.7503 0.9741 0.1502
C8 C 0.5542(5) 0.9875(4) 0.2477(3)
H6 H 0.5920 1.0385 0.2825
C9 C 0.4032(4) 0.9520(4) 0.2757(3)
C10 C 0.3474(5) 0.8807(4) 0.2189(3)
H7 H 0.2453 0.8601 0.2339
C11 C 0.4436(5) 0.8408(4) 0.1405(3)
H8 H 0.4053 0.7933 0.1035
C12 C 0.3096(4) 0.9876(4) 0.3660(3)
C13 C 0.2237(4) 1.0964(4) 0.4795(3)
C14 C 0.1860(4) 1.1918(4) 0.5325(3)
H9 H 0.2162 1.2845 0.4990
C15 C 0.1027(5) 1.1447(4) 0.6358(3)
H10 H 0.0773 1.2070 0.6731
C16 C 0.0539(5) 1.0056(5) 0.6879(3)
H11 H -0.0027 0.9778 0.7582
C17 C 0.0893(5) 0.9100(4) 0.6354(3)
H12 H 0.0582 0.8175 0.6686
C18 C 0.1736(4) 0.9588(4) 0.5304(3)
C19 C 0.2048(4) 0.7445(4) 0.4788(3)
H13 H 0.2187 0.7284 0.4103
H14 H 0.1016 0.7197 0.5162
C20 C 0.3062(4) 0.6507(4) 0.5452(3)
C21 C 0.4219(4) 0.6962(4) 0.5774(3)
H15 H 0.4382 0.7913 0.5573
C22 C 0.4864(5) 0.4756(4) 0.6638(4)
H16 H 0.5486 0.4150 0.7041
C23 C 0.3738(5) 0.4208(4) 0.6364(4)
H17 H 0.3602 0.3252 0.6580
C24 C 0.2816(5) 0.5083(4) 0.5770(3)
H18 H 0.2037 0.4732 0.5581
Cd1A Cd 0.63810(3) 0.67279(3) -0.23763(2)
Cd1A_2 Cd 0.63810(3) 0.67279(3) 0.76237(2)
N1A N 0.2509(4) 1.2627(3) 0.1127(3)
N4A N 0.4885(4) 1.3891(3) 0.3643(3)
loop_
_geom_bond_atom_site_label_1
_geom_bond_atom_site_label_2
_geom_bond_site_symmetry_1
_geom_bond_site_symmetry_2
Cd1 I1 1_555 1_555
I2 Cd1 1_555 1_555
N1 C1 1_555 1_555
N2 Cd1 1_555 1_555
N3 C12 1_555 1_555
N4 C21 1_555 1_555
C1 H1 1_555 1_555
C2 C1 1_555 1_555
H2 C2 1_555 1_555
C3 C2 1_555 1_555
H3 C3 1_555 1_555
C4 C3 1_555 1_555
C5 N1 1_555 1_555
H4 C5 1_555 1_555
C6 C4 1_555 1_555
C7 C6 1_555 1_555
H5 C7 1_555 1_555
C8 C7 1_555 1_555
H6 C8 1_555 1_555
C9 C8 1_555 1_555
C10 C9 1_555 1_555
H7 C10 1_555 1_555
C11 C6 1_555 1_555
H8 C11 1_555 1_555
C12 N2 1_555 1_555
C13 N2 1_555 1_555
C14 C13 1_555 1_555
H9 C14 1_555 1_555
C15 C14 1_555 1_555
H10 C15 1_555 1_555
C16 C15 1_555 1_555
H11 C16 1_555 1_555
C17 C16 1_555 1_555
H12 C17 1_555 1_555
C18 N3 1_555 1_555
C19 N3 1_555 1_555
H13 C19 1_555 1_555
H14 C19 1_555 1_555
C20 C19 1_555 1_555
C21 C20 1_555 1_555
H15 C21 1_555 1_555
C22 N4 1_555 1_555
H16 C22 1_555 1_555
C23 C22 1_555 1_555
H17 C23 1_555 1_555
C24 C20 1_555 1_555
H18 C24 1_555 1_555
Cd1A N1 1_555 1_555
Cd1A_2 N4 1_555 1_555
N1A Cd1 1_555 1_555
N4A Cd1 1_555 1_555
C4 C5 1_555 1_555
C9 C12 1_555 1_555
C10 C11 1_555 1_555
C13 C18 1_555 1_555
C17 C18 1_555 1_555
C23 C24 1_555 1_555

#END
