
#######################################################################
#
#                 Cambridge Crystallographic Data Centre
#                                CCDC 
#
#######################################################################
#
# If this CIF has been generated from an entry in the Cambridge 
# Structural Database, then it will include bibliographic, chemical, 
# crystal, experimental, refinement or atomic coordinate data resulting 
# from the CCDC's data processing and validation procedures.
#
#######################################################################

data_RILWIU
_symmetry_cell_setting           monoclinic
_symmetry_space_group_name_H-M   'C 2/c'
_symmetry_Int_Tables_number      15
_space_group_name_Hall           '-C 2yn'
loop_
_symmetry_equiv_pos_site_id
_symmetry_equiv_pos_as_xyz
1 x,y,z
2 -x,y,1/2-z
3 1/2+x,1/2+y,z
4 1/2-x,1/2+y,1/2-z
5 -x,-y,-z
6 x,-y,1/2+z
7 1/2-x,1/2-y,-z
8 1/2+x,1/2-y,1/2+z
_cell_length_a                   26.6175(11)
_cell_length_b                   6.0635(3)
_cell_length_c                   18.7796(9)
_cell_angle_alpha                90
_cell_angle_beta                 110.954(2)
_cell_angle_gamma                90
_cell_volume                     2830.5
loop_
_atom_site_label
_atom_site_type_symbol
_atom_site_fract_x
_atom_site_fract_y
_atom_site_fract_z
C1 C 0.70862(10) 1.2295(4) 0.63512(14)
C2 C 1.00075(10) 0.0676(4) 0.96740(14)
C3 C 0.75587(10) 1.1146(4) 0.65099(15)
H1 H 0.7611 0.9845 0.6790
C4 C 0.91399(11) 0.7744(5) 0.68978(17)
C5 C 0.79649(10) 1.1908(4) 0.62552(15)
C6 C 0.84658(11) 1.0676(5) 0.64012(16)
H2 H 0.8700 1.1250 0.6182
C7 C 0.70055(11) 1.4278(5) 0.59293(15)
C8 C 0.86246(11) 0.8876(5) 0.67996(16)
H3 H 0.8403 0.8270 0.7035
C9 C 0.63889(14) 1.7147(5) 0.53058(19)
H4 H 0.6663 1.8256 0.5491
H5 H 0.6050 1.7740 0.5287
H6 H 0.6363 1.6697 0.4804
C10 C 0.96471(12) 0.0337(5) 0.89359(16)
H7 H 0.9384 -0.0748 0.8841
C11 C 0.78791(12) 1.3861(5) 0.58533(17)
H8 H 0.8146 1.4404 0.5689
C12 C 1.03855(13) 0.2323(5) 0.97580(16)
H9 H 1.0638 0.2626 1.0238
C13 C 1.03899(12) 0.3512(5) 0.91370(16)
H10 H 1.0650 0.4599 0.9213
C14 C 0.96792(12) 0.1606(5) 0.83463(15)
H11 H 0.9433 0.1339 0.7859
C15 C 0.74044(13) 1.5033(5) 0.56893(18)
H12 H 0.7356 1.6341 0.5414
C16 C 0.67560(13) 0.9839(5) 0.70686(19)
H13 H 0.6824 0.8543 0.6823
H14 H 0.6443 0.9606 0.7200
H15 H 0.7061 1.0132 0.7523
N1 N 1.00409(8) 0.3189(4) 0.84324(12)
O1 O 0.92764(9) 0.6198(4) 0.73752(14)
O2 O 0.94172(9) 0.8319(4) 0.65310(14)
O3 O 0.66668(8) 1.1677(3) 0.65616(12)
O4 O 0.65248(9) 1.5292(3) 0.58049(13)
Zn1 Zn 1.0000 0.51729(7) 0.7500
C2D C 0.99925(10) -0.0676(4) 1.03260(14)
C10D C 1.03529(12) -0.0337(5) 1.10641(16)
H7D H 1.0616 0.0748 1.1159
C12D C 0.96145(13) -0.2323(5) 1.02420(16)
H9D H 0.9362 -0.2626 0.9762
C13D C 0.96101(12) -0.3512(5) 1.08630(16)
H10D H 0.9350 -0.4599 1.0787
C14D C 1.03208(12) -0.1606(5) 1.16537(15)
H11D H 1.0567 -0.1339 1.2141
N1D N 0.99591(8) -0.3189(4) 1.15676(12)
C1A C 1.29138(10) 1.2295(4) 0.86488(14)
C3A C 1.24413(10) 1.1146(4) 0.84901(15)
H1A H 1.2389 0.9845 0.8210
C4A C 1.08601(11) 0.7744(5) 0.81022(17)
C5A C 1.20351(10) 1.1908(4) 0.87448(15)
C6A C 1.15342(11) 1.0676(5) 0.85988(16)
H2A H 1.1300 1.1250 0.8818
C7A C 1.29945(11) 1.4278(5) 0.90707(15)
C8A C 1.13754(11) 0.8876(5) 0.82004(16)
H3A H 1.1597 0.8270 0.7965
C9A C 1.36111(14) 1.7147(5) 0.96942(19)
H4A H 1.3337 1.8256 0.9509
H5A H 1.3950 1.7740 0.9713
H6A H 1.3637 1.6697 1.0196
C11A C 1.21209(12) 1.3861(5) 0.91467(17)
H8A H 1.1854 1.4404 0.9311
C15A C 1.25956(13) 1.5033(5) 0.93107(18)
H12A H 1.2644 1.6341 0.9586
C16A C 1.32440(13) 0.9839(5) 0.79314(19)
H13A H 1.3176 0.8543 0.8177
H14A H 1.3557 0.9606 0.7800
H15A H 1.2939 1.0132 0.7477
O1A O 1.07236(9) 0.6198(4) 0.76248(14)
O2A O 1.05828(9) 0.8319(4) 0.84690(14)
O3A O 1.33332(8) 1.1677(3) 0.84384(12)
O4A O 1.34752(9) 1.5292(3) 0.91951(13)
N1A N 0.99591(8) 0.3189(4) 0.65676(12)
Zn1D Zn 1.0000 -0.51729(7) 1.2500
loop_
_geom_bond_atom_site_label_1
_geom_bond_atom_site_label_2
_geom_bond_site_symmetry_1
_geom_bond_site_symmetry_2
C1 C3 1_555 1_555
C2 C10 1_555 1_555
C3 H1 1_555 1_555
C4 C8 1_555 1_555
C5 C3 1_555 1_555
C6 C5 1_555 1_555
H2 C6 1_555 1_555
C7 C1 1_555 1_555
C8 C6 1_555 1_555
H3 C8 1_555 1_555
C9 H4 1_555 1_555
H5 C9 1_555 1_555
H6 C9 1_555 1_555
C10 H7 1_555 1_555
C11 C5 1_555 1_555
H8 C11 1_555 1_555
C12 C2 1_555 1_555
H9 C12 1_555 1_555
C13 C12 1_555 1_555
H10 C13 1_555 1_555
C14 C10 1_555 1_555
H11 C14 1_555 1_555
C15 C7 1_555 1_555
H12 C15 1_555 1_555
C16 H13 1_555 1_555
H14 C16 1_555 1_555
H15 C16 1_555 1_555
N1 C13 1_555 1_555
O1 C4 1_555 1_555
O2 C4 1_555 1_555
O3 C1 1_555 1_555
O4 C7 1_555 1_555
Zn1 N1 1_555 1_555
C2D C2 1_555 1_555
C10D C2D 1_555 1_555
H7D C10D 1_555 1_555
C12D C2D 1_555 1_555
H9D C12D 1_555 1_555
C13D C12D 1_555 1_555
H10D C13D 1_555 1_555
C14D C10D 1_555 1_555
H11D C14D 1_555 1_555
N1D C13D 1_555 1_555
C1A C3A 1_555 1_555
C3A H1A 1_555 1_555
C4A C8A 1_555 1_555
C5A C3A 1_555 1_555
C6A C5A 1_555 1_555
H2A C6A 1_555 1_555
C7A C1A 1_555 1_555
C8A C6A 1_555 1_555
H3A C8A 1_555 1_555
C9A H4A 1_555 1_555
H5A C9A 1_555 1_555
H6A C9A 1_555 1_555
C11A C5A 1_555 1_555
H8A C11A 1_555 1_555
C15A C7A 1_555 1_555
H12A C15A 1_555 1_555
C16A H13A 1_555 1_555
H14A C16A 1_555 1_555
H15A C16A 1_555 1_555
O1A Zn1 1_555 1_555
O2A C4A 1_555 1_555
O3A C1A 1_555 1_555
O4A C7A 1_555 1_555
N1A Zn1 1_555 1_555
Zn1D N1D 1_555 1_555
C9 O4 1_555 1_555
C11 C15 1_555 1_555
C14 N1 1_555 1_555
C16 O3 1_555 1_555
O1 Zn1 1_555 1_555
C14D N1D 1_555 1_555
C4A O1A 1_555 1_555
C9A O4A 1_555 1_555
C11A C15A 1_555 1_555
C16A O3A 1_555 1_555

#END
