
#######################################################################
#
#                 Cambridge Crystallographic Data Centre
#                                CCDC 
#
#######################################################################
#
# If this CIF has been generated from an entry in the Cambridge 
# Structural Database, then it will include bibliographic, chemical, 
# crystal, experimental, refinement or atomic coordinate data resulting 
# from the CCDC's data processing and validation procedures.
#
#######################################################################

data_RIMLEE
_symmetry_cell_setting           monoclinic
_symmetry_space_group_name_H-M   'C 2/c'
_symmetry_Int_Tables_number      15
_space_group_name_Hall           '-C 2yn'
loop_
_symmetry_equiv_pos_site_id
_symmetry_equiv_pos_as_xyz
1 x,y,z
2 -x,y,1/2-z
3 1/2+x,1/2+y,z
4 1/2-x,1/2+y,1/2-z
5 -x,-y,-z
6 x,-y,1/2+z
7 1/2-x,1/2-y,-z
8 1/2+x,1/2-y,1/2+z
_cell_length_a                   7.322(2)
_cell_length_b                   14.513(3)
_cell_length_c                   10.743(2)
_cell_angle_alpha                90
_cell_angle_beta                 99.95(2)
_cell_angle_gamma                90
_cell_volume                     1124.43
loop_
_atom_site_label
_atom_site_type_symbol
_atom_site_fract_x
_atom_site_fract_y
_atom_site_fract_z
Mn1 Mn 0.0000 0.1090(1) 0.2500
N1 N 0.1612(2) 0.0816(1) 0.0817(2)
C1 C 0.3130(3) 0.1270(2) 0.0621(3)
C2 C 0.3875(4) 0.1146(2) -0.0459(3)
C3 C 0.2995(3) 0.0528(2) -0.1346(2)
N2 N -0.1478(2) -0.0069(1) 0.1166(2)
C4 C 0.0858(2) 0.0245(1) -0.0097(2)
N3 N 0.2155(4) 0.1998(1) 0.3211(2)
C5 C 0.2813(3) 0.2690(2) 0.3472(2)
O1 O 0.3481(6) 0.3413(2) 0.3746(3)
H1 H 0.372 0.169 0.125
H2 H 0.495 0.148 -0.060
H3 H 0.349 0.042 -0.210
N2D N 0.1478(2) 0.0069(1) -0.1166(2)
Mn1D Mn 0.0000 -0.1090(1) -0.2500
N1D N -0.1612(2) -0.0816(1) -0.0817(2)
C1D C -0.3130(3) -0.1270(2) -0.0621(3)
C2D C -0.3875(4) -0.1146(2) 0.0459(3)
C3D C -0.2995(3) -0.0528(2) 0.1346(2)
N1A N -0.1612(2) 0.0816(1) 0.4183(2)
N2A N 0.1478(2) -0.0069(1) 0.3834(2)
N3A N -0.2155(4) 0.1998(1) 0.1789(2)
C5A C -0.2813(3) 0.2690(2) 0.1528(2)
O1A O -0.3481(6) 0.3413(2) 0.1254(3)
C4D C -0.0858(2) -0.0245(1) 0.0097(2)
H3D H -0.349 -0.042 0.210
H2D H -0.495 -0.148 0.060
H1D H -0.372 -0.169 -0.125
loop_
_geom_bond_atom_site_label_1
_geom_bond_atom_site_label_2
_geom_bond_site_symmetry_1
_geom_bond_site_symmetry_2
Mn1 N1 1_555 1_555
N1 C1 1_555 1_555
C1 C2 1_555 1_555
C2 C3 1_555 1_555
C3 H3 1_555 1_555
N2 Mn1 1_555 1_555
C4 N1 1_555 1_555
N3 Mn1 1_555 1_555
C5 N3 1_555 1_555
O1 C5 1_555 1_555
H1 C1 1_555 1_555
H2 C2 1_555 1_555
N2D C3 1_555 1_555
Mn1D N2D 1_555 1_555
N1D Mn1D 1_555 1_555
C1D N1D 1_555 1_555
C2D C1D 1_555 1_555
C3D N2 1_555 1_555
N1A Mn1 1_555 1_555
N2A Mn1 1_555 1_555
N3A Mn1 1_555 1_555
C5A N3A 1_555 1_555
O1A C5A 1_555 1_555
C4D N2 1_555 1_555
H3D C3D 1_555 1_555
H2D C2D 1_555 1_555
H1D C1D 1_555 1_555
C4 N2D 1_555 1_555
C4 C4D 1_555 1_555
N1D C4D 1_555 1_555
C2D C3D 1_555 1_555

#END
