
#######################################################################
#
#                 Cambridge Crystallographic Data Centre
#                                CCDC 
#
#######################################################################
#
# If this CIF has been generated from an entry in the Cambridge 
# Structural Database, then it will include bibliographic, chemical, 
# crystal, experimental, refinement or atomic coordinate data resulting 
# from the CCDC's data processing and validation procedures.
#
#######################################################################

data_RIMVUE
_symmetry_cell_setting           monoclinic
_symmetry_space_group_name_H-M   'P 21/c'
_symmetry_Int_Tables_number      14
_space_group_name_Hall           '-P 2ybc'
loop_
_symmetry_equiv_pos_site_id
_symmetry_equiv_pos_as_xyz
1 x,y,z
2 -x,1/2+y,1/2-z
3 -x,-y,-z
4 x,1/2-y,1/2+z
_cell_length_a                   9.050(1)
_cell_length_b                   13.429(1)
_cell_length_c                   14.317(1)
_cell_angle_alpha                90
_cell_angle_beta                 106.47(1)
_cell_angle_gamma                90
_cell_volume                     1668.59
loop_
_atom_site_label
_atom_site_type_symbol
_atom_site_fract_x
_atom_site_fract_y
_atom_site_fract_z
Ni1 Ni 0.5000 0.0000 0.5000
O1 O 0.5947(4) 0.1432(2) 0.5148(2)
O2 O 0.3884(4) 0.0371(2) 0.3564(2)
O3 O 0.3023(5) -0.1109(2) 0.2949(3)
C1 C 0.3193(5) -0.0198(3) 0.2898(3)
C2 C 0.2465(5) 0.0227(3) 0.1873(3)
N1 N 0.2244(4) 0.1334(2) 0.1784(3)
C3 C 0.1310(5) 0.1547(3) 0.0743(3)
C4 C 0.1290(5) 0.2662(3) 0.0555(3)
C5 C 0.1381(5) 0.1741(3) 0.2467(3)
C6 C 0.0839(5) 0.2797(3) 0.2156(3)
C7 C 0.3740(5) 0.1890(3) 0.1966(4)
C8 C 0.3438(5) 0.3008(3) 0.2032(3)
N2 N 0.1765(4) 0.3210(2) 0.1513(3)
C9 C 0.1404(5) 0.4307(3) 0.1365(4)
C10 C 0.2239(5) 0.4876(3) 0.0750(4)
O4 O 0.6787(4) -0.0568(2) 0.4563(3)
O5 O 0.1854(5) 0.5775(2) 0.0621(3)
H1 H 0.1472 -0.0077 0.1619
H2 H 0.3083 0.0028 0.1460
H3 H 0.0276 0.1307 0.0634
H4 H 0.1763 0.1210 0.0301
H5 H 0.0273 0.2867 0.0192
H6 H 0.1986 0.2822 0.0181
H7 H 0.2034 0.1741 0.3125
H8 H 0.0505 0.1326 0.2438
H9 H 0.0989 0.3212 0.2721
H10 H -0.0238 0.2798 0.1810
H11 H 0.4202 0.1764 0.1451
H12 H 0.4442 0.1667 0.2566
H13 H 0.4093 0.3378 0.1734
H14 H 0.3659 0.3211 0.2700
H15 H 0.1652 0.4613 0.1997
H16 H 0.0315 0.4381 0.1076
O1B O 0.4053(4) -0.1432(2) 0.4852(2)
O4A O 0.3213(4) 0.4432(2) 0.0437(3)
Ni1A Ni 0.5000 0.5000 0.0000
Ni1C Ni 0.5000 0.5000 1.0000
O2C O 0.3884(4) 0.4629(2) 0.8564(2)
C1C C 0.3193(5) 0.5198(3) 0.7898(3)
O3C O 0.3023(5) 0.6109(2) 0.7949(3)
C2C C 0.2465(5) 0.4773(3) 0.6873(3)
N1C N 0.2244(4) 0.3666(2) 0.6784(3)
C3C C 0.1310(5) 0.3453(3) 0.5743(3)
C4C C 0.1290(5) 0.2338(3) 0.5555(3)
N2C N 0.1765(4) 0.1790(2) 0.6513(3)
C6C C 0.0839(5) 0.2203(3) 0.7156(3)
C5C C 0.1381(5) 0.3259(3) 0.7467(3)
C7C C 0.3740(5) 0.3110(3) 0.6966(4)
C8C C 0.3438(5) 0.1992(3) 0.7032(3)
C9C C 0.1404(5) 0.0693(3) 0.6365(4)
C10C C 0.2239(5) 0.0124(3) 0.5750(4)
O4B O 0.3213(4) 0.0568(2) 0.5437(3)
O2B O 0.6116(4) -0.0371(2) 0.6436(2)
O5C O 0.1854(5) -0.0775(2) 0.5621(3)
H15C H 0.1652 0.0387 0.6997
H16C H 0.0315 0.0619 0.6076
H13C H 0.4093 0.1622 0.6734
H14C H 0.3659 0.1789 0.7700
H11C H 0.4202 0.3236 0.6451
H12C H 0.4442 0.3333 0.7566
H7C H 0.2034 0.3259 0.8125
H8C H 0.0505 0.3674 0.7438
H9C H 0.0989 0.1788 0.7721
H10C H -0.0238 0.2202 0.6810
H5C H 0.0273 0.2133 0.5192
H6C H 0.1986 0.2178 0.5181
H3C H 0.0276 0.3693 0.5634
H4C H 0.1763 0.3790 0.5301
H1C H 0.1472 0.5077 0.6619
H2C H 0.3083 0.4972 0.6460
Cl1 Cl -0.2747(1) 0.0609(1) 0.1100(1)
O6 O -0.3370(7) 0.0522(6) 0.0080(4)
O7 O -0.3830(6) 0.0185(4) 0.1547(5)
O8 O -0.1350(5) 0.0045(3) 0.1397(4)
O9 O -0.2460(7) 0.1604(3) 0.1378(6)
O10 O 0.3867(5) 0.1983(3) -0.0567(3)
O11 O 0.1144(5) 0.7652(3) 0.1425(4)
loop_
_geom_bond_atom_site_label_1
_geom_bond_atom_site_label_2
_geom_bond_site_symmetry_1
_geom_bond_site_symmetry_2
Ni1 O1 1_555 1_555
O2 Ni1 1_555 1_555
O3 C1 1_555 1_555
C1 O2 1_555 1_555
C2 C1 1_555 1_555
N1 C2 1_555 1_555
C3 N1 1_555 1_555
C4 C3 1_555 1_555
C5 N1 1_555 1_555
C6 C5 1_555 1_555
C7 N1 1_555 1_555
C8 C7 1_555 1_555
N2 C4 1_555 1_555
C9 N2 1_555 1_555
C10 C9 1_555 1_555
O4 Ni1 1_555 1_555
O5 C10 1_555 1_555
H1 C2 1_555 1_555
H2 C2 1_555 1_555
H3 C3 1_555 1_555
H4 C3 1_555 1_555
H5 C4 1_555 1_555
H6 C4 1_555 1_555
H7 C5 1_555 1_555
H8 C5 1_555 1_555
H9 C6 1_555 1_555
H10 C6 1_555 1_555
H11 C7 1_555 1_555
H12 C7 1_555 1_555
H13 C8 1_555 1_555
H14 C8 1_555 1_555
H15 C9 1_555 1_555
H16 C9 1_555 1_555
Cl1 O6 1_555 1_555
O7 Cl1 1_555 1_555
O8 Cl1 1_555 1_555
O9 Cl1 1_555 1_555
O1B Ni1 1_555 1_555
O4A C10 1_555 1_555
Ni1A O4A 1_555 1_555
Ni1C O2C 1_555 1_555
O2C C1C 1_555 1_555
C1C O3C 1_555 1_555
C2C C1C 1_555 1_555
N1C C2C 1_555 1_555
C3C N1C 1_555 1_555
C4C C3C 1_555 1_555
N2C C4C 1_555 1_555
C6C N2C 1_555 1_555
C5C N1C 1_555 1_555
C7C N1C 1_555 1_555
C8C N2C 1_555 1_555
C9C N2C 1_555 1_555
C10C C9C 1_555 1_555
O4B Ni1 1_555 1_555
O2B Ni1 1_555 1_555
O5C C10C 1_555 1_555
H15C C9C 1_555 1_555
H16C C9C 1_555 1_555
H13C C8C 1_555 1_555
H14C C8C 1_555 1_555
H11C C7C 1_555 1_555
H12C C7C 1_555 1_555
H7C C5C 1_555 1_555
H8C C5C 1_555 1_555
H9C C6C 1_555 1_555
H10C C6C 1_555 1_555
H5C C4C 1_555 1_555
H6C C4C 1_555 1_555
H3C C3C 1_555 1_555
H4C C3C 1_555 1_555
H1C C2C 1_555 1_555
H2C C2C 1_555 1_555
C6 N2 1_555 1_555
C8 N2 1_555 1_555
C6C C5C 1_555 1_555
C7C C8C 1_555 1_555
C10C O4B 1_555 1_555

#END
