
#######################################################################
#
#                 Cambridge Crystallographic Data Centre
#                                CCDC 
#
#######################################################################
#
# If this CIF has been generated from an entry in the Cambridge 
# Structural Database, then it will include bibliographic, chemical, 
# crystal, experimental, refinement or atomic coordinate data resulting 
# from the CCDC's data processing and validation procedures.
#
#######################################################################

data_RINDAV
_symmetry_cell_setting           monoclinic
_symmetry_space_group_name_H-M   'P 21/c'
_symmetry_Int_Tables_number      14
_space_group_name_Hall           '-P 2ybc'
loop_
_symmetry_equiv_pos_site_id
_symmetry_equiv_pos_as_xyz
1 x,y,z
2 -x,1/2+y,1/2-z
3 -x,-y,-z
4 x,1/2-y,1/2+z
_cell_length_a                   9.079(2)
_cell_length_b                   8.564(2)
_cell_length_c                   13.833(4)
_cell_angle_alpha                90
_cell_angle_beta                 106.016(3)
_cell_angle_gamma                90
_cell_volume                     1033.8
loop_
_atom_site_label
_atom_site_type_symbol
_atom_site_fract_x
_atom_site_fract_y
_atom_site_fract_z
V1 V 0.267405(17) 0.489347(18) 0.099419(11)
O1 O 0.20021(8) 0.66573(8) 0.08533(5)
O2 O 0.37775(8) 0.51498(8) 0.24168(5)
O3 O 0.47413(8) 0.53106(8) 0.17149(5)
O4 O 0.32714(8) 0.45143(9) -0.01875(5)
O5 O 0.17011(8) 0.39934(8) -0.02766(5)
O6 O 0.34102(8) 0.23980(8) 0.14585(5)
O7 O 0.24413(8) -0.00095(8) 0.14566(5)
C1 C 0.23216(10) 0.14522(11) 0.14178(6)
C2 C 0.07380(10) 0.21597(11) 0.12833(7)
H1 H 0.0113(17) 0.1927(17) 0.0618(11)
H2 H 0.0255(17) 0.1675(17) 0.1747(11)
N1 N 0.08323(9) 0.38744(10) 0.14280(6)
H3 H 0.0030(17) 0.4294(18) 0.1083(11)
H4 H 0.0904(16) 0.4069(17) 0.2043(11)
Ca1 Ca 0.57064(2) 0.29995(2) 0.276193(13)
O8 O 0.47354(9) 0.31087(9) 0.41820(6)
H5 H 0.4205(17) 0.3817(18) 0.4257(12)
H6 H 0.4439(18) 0.2364(17) 0.4420(12)
O9 O 0.72250(9) 0.30843(9) 0.16223(6)
H7 H 0.7216(19) 0.2264(17) 0.1333(11)
H8 H 0.7028(18) 0.3774(17) 0.1241(11)
O1A O 0.79979(8) 0.16573(8) 0.41467(5)
O2A O 0.62225(8) 0.01498(8) 0.25832(5)
O3A O 0.52587(8) 0.03106(8) 0.32851(5)
O7A O 0.75587(8) 0.49905(8) 0.35434(5)
Ca1A Ca 0.42936(2) -0.20005(2) 0.223807(13)
Ca1A_2 Ca 0.42936(2) 0.79995(2) 0.223807(13)
O10 O 0.95780(9) 0.64679(9) 0.65051(6)
H9 H 0.9318(19) 0.7264(17) 0.6175(12)
H10 H 1.0428(16) 0.6240(19) 0.6510(12)
O11 O 0.72534(9) 0.46100(9) 0.56158(6)
H11 H 0.8052(17) 0.5155(17) 0.5836(13)
H12 H 0.7092(19) 0.4449(19) 0.5028(10)
loop_
_geom_bond_atom_site_label_1
_geom_bond_atom_site_label_2
_geom_bond_site_symmetry_1
_geom_bond_site_symmetry_2
V1 O1 1_555 1_555
O1 Ca1A_2 1_555 1_555
O2 V1 1_555 1_555
O3 V1 1_555 1_555
O4 V1 1_555 1_555
O5 V1 1_555 1_555
O6 V1 1_555 1_555
O7 C1 1_555 1_555
C1 O6 1_555 1_555
C2 C1 1_555 1_555
H1 C2 1_555 1_555
H2 C2 1_555 1_555
N1 V1 1_555 1_555
H3 N1 1_555 1_555
H4 N1 1_555 1_555
Ca1 O2 1_555 1_555
O8 Ca1 1_555 1_555
H5 O8 1_555 1_555
H6 O8 1_555 1_555
O9 Ca1 1_555 1_555
H7 O9 1_555 1_555
H8 O9 1_555 1_555
O10 H9 1_555 1_555
H10 O10 1_555 1_555
O11 H11 1_555 1_555
H12 O11 1_555 1_555
O1A Ca1 1_555 1_555
O2A Ca1 1_555 1_555
O3A Ca1 1_555 1_555
O7A Ca1 1_555 1_555
Ca1A O7 1_555 1_555
Ca1A_2 O2 1_555 1_555
O2 O3 1_555 1_555
O3 Ca1 1_555 1_555
O3 Ca1A_2 1_555 1_555
O4 O5 1_555 1_555
O6 Ca1 1_555 1_555
C2 N1 1_555 1_555
O2A O3A 1_555 1_555
O2A Ca1A 1_555 1_555
O3A Ca1A 1_555 1_555

#END
