
#######################################################################
#
#                 Cambridge Crystallographic Data Centre
#                                CCDC 
#
#######################################################################
#
# If this CIF has been generated from an entry in the Cambridge 
# Structural Database, then it will include bibliographic, chemical, 
# crystal, experimental, refinement or atomic coordinate data resulting 
# from the CCDC's data processing and validation procedures.
#
#######################################################################

data_RINLOP
_symmetry_cell_setting           monoclinic
_symmetry_space_group_name_H-M   'P 21/n'
_symmetry_Int_Tables_number      14
_space_group_name_Hall           '-P 2yn'
loop_
_symmetry_equiv_pos_site_id
_symmetry_equiv_pos_as_xyz
1 x,y,z
2 1/2-x,1/2+y,1/2-z
3 -x,-y,-z
4 1/2+x,1/2-y,1/2+z
_cell_length_a                   13.090(7)
_cell_length_b                   8.831(4)
_cell_length_c                   16.273(9)
_cell_angle_alpha                90
_cell_angle_beta                 94.35(2)
_cell_angle_gamma                90
_cell_volume                     1875.7
loop_
_atom_site_label
_atom_site_type_symbol
_atom_site_fract_x
_atom_site_fract_y
_atom_site_fract_z
Cu1 Cu 0.9218(1) 0.1283(1) 0.0025(1)
Cl1 Cl 0.9987(1) 0.0194(1) -0.1116(1)
P1 P 0.7572(1) 0.0766(1) -0.0044(1)
N1 N 0.9727(2) 0.3472(3) 0.0038(1)
C1 C 0.6835(2) 0.1343(3) -0.0987(2)
C2 C 0.5917(2) 0.0662(4) -0.1264(2)
C3 C 0.5377(3) 0.1151(5) -0.1981(2)
C4 C 0.5749(3) 0.2335(4) -0.2419(2)
C5 C 0.6659(3) 0.3019(4) -0.2150(2)
C6 C 0.7208(3) 0.2509(4) -0.1445(2)
C7 C 0.7301(2) -0.1259(3) -0.0014(2)
C8 C 0.7716(2) -0.2132(4) -0.0615(2)
C9 C 0.7518(3) -0.3680(4) -0.0656(2)
C10 C 0.6934(3) -0.4358(4) -0.0086(2)
C11 C 0.6532(3) -0.3493(4) 0.0518(2)
C12 C 0.6711(2) -0.1939(4) 0.0557(2)
C13 C 0.6896(2) 0.1560(3) 0.0797(2)
C14 C 0.5930(2) 0.2226(4) 0.0692(2)
C15 C 0.5495(3) 0.2884(4) 0.1361(2)
C16 C 0.6012(3) 0.2872(4) 0.2125(2)
C17 C 0.6960(3) 0.2200(5) 0.2236(2)
C18 C 0.7412(3) 0.1549(4) 0.1578(2)
C19 C 0.9483(2) 0.4465(3) 0.0611(2)
C20 C 1.0248(2) 0.4024(4) -0.0574(2)
Cu1B Cu 1.0782(1) -0.1283(1) -0.0025(1)
Cl1B Cl 1.0013(1) -0.0194(1) 0.1116(1)
C20B C 0.9752(2) 0.5976(4) 0.0574(2)
N1B N 1.0273(2) 0.6528(3) -0.0038(1)
Cu1B_2 Cu 1.0782(1) 0.8717(1) -0.0025(1)
C19B C 1.0517(2) 0.5535(3) -0.0611(2)
P1B P 1.2428(1) -0.0766(1) 0.0044(1)
C1B C 1.3165(2) -0.1343(3) 0.0987(2)
C2B C 1.4083(2) -0.0662(4) 0.1264(2)
C3B C 1.4623(3) -0.1151(5) 0.1981(2)
C4B C 1.4251(3) -0.2335(4) 0.2419(2)
C5B C 1.3341(3) -0.3019(4) 0.2150(2)
C6B C 1.2792(3) -0.2509(4) 0.1445(2)
C7B C 1.2699(2) 0.1259(3) 0.0014(2)
C8B C 1.2284(2) 0.2132(4) 0.0615(2)
C9B C 1.2482(3) 0.3680(4) 0.0656(2)
C10B C 1.3066(3) 0.4358(4) 0.0086(2)
C11B C 1.3468(3) 0.3493(4) -0.0518(2)
C12B C 1.3289(2) 0.1939(4) -0.0557(2)
C13B C 1.3104(2) -0.1560(3) -0.0797(2)
C14B C 1.4070(2) -0.2226(4) -0.0692(2)
C15B C 1.4505(3) -0.2884(4) -0.1361(2)
C16B C 1.3988(3) -0.2872(4) -0.2125(2)
C17B C 1.3040(3) -0.2200(5) -0.2236(2)
C18B C 1.2588(3) -0.1549(4) -0.1578(2)
N1B_2 N 1.0273(2) -0.3472(3) -0.0038(1)
loop_
_geom_bond_atom_site_label_1
_geom_bond_atom_site_label_2
_geom_bond_site_symmetry_1
_geom_bond_site_symmetry_2
Cu1 Cl1 1_555 1_555
Cl1 Cu1B 1_555 1_555
P1 Cu1 1_555 1_555
N1 Cu1 1_555 1_555
C1 P1 1_555 1_555
C2 C1 1_555 1_555
C3 C2 1_555 1_555
C4 C3 1_555 1_555
C5 C4 1_555 1_555
C6 C1 1_555 1_555
C7 P1 1_555 1_555
C8 C7 1_555 1_555
C9 C8 1_555 1_555
C10 C9 1_555 1_555
C11 C10 1_555 1_555
C12 C7 1_555 1_555
C13 P1 1_555 1_555
C14 C13 1_555 1_555
C15 C14 1_555 1_555
C16 C15 1_555 1_555
C17 C16 1_555 1_555
C18 C13 1_555 1_555
C19 N1 1_555 1_555
C20 N1 1_555 1_555
Cu1B Cl1B 1_555 1_555
Cl1B Cu1 1_555 1_555
C20B C19 1_555 1_555
N1B C20B 1_555 1_555
Cu1B_2 N1B 1_555 1_555
C19B C20 1_555 1_555
P1B Cu1B 1_555 1_555
C1B P1B 1_555 1_555
C2B C1B 1_555 1_555
C3B C2B 1_555 1_555
C4B C3B 1_555 1_555
C5B C4B 1_555 1_555
C6B C1B 1_555 1_555
C7B P1B 1_555 1_555
C8B C7B 1_555 1_555
C9B C8B 1_555 1_555
C10B C9B 1_555 1_555
C11B C10B 1_555 1_555
C12B C7B 1_555 1_555
C13B P1B 1_555 1_555
C14B C13B 1_555 1_555
C15B C14B 1_555 1_555
C16B C15B 1_555 1_555
C17B C16B 1_555 1_555
C18B C13B 1_555 1_555
N1B_2 Cu1B 1_555 1_555
C5 C6 1_555 1_555
C11 C12 1_555 1_555
C17 C18 1_555 1_555
N1B C19B 1_555 1_555
C5B C6B 1_555 1_555
C11B C12B 1_555 1_555
C17B C18B 1_555 1_555

#END
