
#######################################################################
#
#                 Cambridge Crystallographic Data Centre
#                                CCDC 
#
#######################################################################
#
# If this CIF has been generated from an entry in the Cambridge 
# Structural Database, then it will include bibliographic, chemical, 
# crystal, experimental, refinement or atomic coordinate data resulting 
# from the CCDC's data processing and validation procedures.
#
#######################################################################

data_RINPOT
_symmetry_cell_setting           triclinic
_symmetry_space_group_name_H-M   'P -1'
_symmetry_Int_Tables_number      2
_space_group_name_Hall           '-P 1'
loop_
_symmetry_equiv_pos_site_id
_symmetry_equiv_pos_as_xyz
1 x,y,z
2 -x,-y,-z
_cell_length_a                   7.450(1)
_cell_length_b                   9.020(1)
_cell_length_c                   10.122(1)
_cell_angle_alpha                107.74(1)
_cell_angle_beta                 104.02(1)
_cell_angle_gamma                97.16(1)
_cell_volume                     613.88
loop_
_atom_site_label
_atom_site_type_symbol
_atom_site_fract_x
_atom_site_fract_y
_atom_site_fract_z
Co1 Co 0.0000 0.0000 0.0000
S1 S 0.4325(1) 0.1190(2) -0.2617(1)
O1 O 0.1337(3) -0.1726(3) 0.0563(2)
N1 N 0.2008(3) 0.1858(2) 0.1858(2)
C1 C 0.2275(4) 0.1788(3) 0.3186(3)
C2 C 0.3432(4) 0.2966(3) 0.4427(3)
C3 C 0.4399(3) 0.4340(3) 0.4344(2)
C4 C 0.4129(4) 0.4412(3) 0.2950(3)
C5 C 0.2956(4) 0.3166(3) 0.1764(3)
N2 N 0.1824(3) 0.0258(3) -0.1236(2)
C6 C 0.2864(4) 0.0658(4) -0.1791(3)
H1 H 0.3554(59) 0.2771(48) 0.5439(45)
H2 H 0.1702(51) 0.0987(41) 0.3347(37)
H3 H 0.2787(47) 0.3191(39) 0.0839(37)
H4 H 0.4857(54) 0.5199(43) 0.2802(40)
H5 H 0.1096(51) -0.2112(42) 0.0966(39)
H6 H 0.2605(69) -0.1654(49) 0.0823(45)
O1A O -0.1337(3) 0.1726(3) -0.0563(2)
H5A H -0.1096(51) 0.2112(42) -0.0966(39)
H6A H -0.2605(69) 0.1654(49) -0.0823(45)
C3A C 0.5601(3) 0.5660(3) 0.5656(2)
C2A C 0.6568(4) 0.7034(3) 0.5573(3)
C1A C 0.7725(4) 0.8212(3) 0.6814(3)
N1A N 0.7992(3) 0.8142(2) 0.8142(2)
Co1A Co 1.0000 1.0000 1.0000
C5A C 0.7044(4) 0.6834(3) 0.8236(3)
C4A C 0.5871(4) 0.5588(3) 0.7050(3)
H4A H 0.5143(54) 0.4801(43) 0.7198(40)
H3A H 0.7213(47) 0.6809(39) 0.9161(37)
H2A H 0.8298(51) 0.9013(41) 0.6653(37)
H1A H 0.6446(59) 0.7229(48) 0.4561(45)
N1A_2 N -0.2008(3) -0.1858(2) -0.1858(2)
N2A N -0.1824(3) -0.0258(3) 0.1236(2)
C6A C -0.2864(4) -0.0658(4) 0.1791(3)
S1A S -0.4325(1) -0.1190(2) 0.2617(1)
N3 N -0.0451(5) 0.3113(4) -0.2447(3)
C7 C -0.1336(6) 0.2406(4) -0.3863(5)
C8 C -0.1199(6) 0.3084(4) -0.4904(4)
C9 C -0.0081(4) 0.4609(4) -0.4463(3)
C10 C 0.0818(5) 0.5345(5) -0.2997(4)
C11 C 0.0604(6) 0.4554(5) -0.2040(4)
H7 H -0.1789(53) 0.2528(42) -0.5835(41)
H8 H 0.1446(65) 0.6117(51) -0.2737(47)
H9 H -0.2160(65) 0.1382(50) -0.4175(48)
H10 H 0.1238(72) 0.5116(56) -0.0887(55)
C9A C 0.0081(4) 0.5391(4) -0.5537(3)
C8A C 0.1199(6) 0.6916(4) -0.5096(4)
C7A C 0.1336(6) 0.7594(4) -0.6137(5)
N3A N 0.0451(5) 0.6887(4) -0.7553(3)
C11A C -0.0604(6) 0.5446(5) -0.7960(4)
C10A C -0.0818(5) 0.4655(5) -0.7003(4)
H8A H -0.1446(65) 0.3883(51) -0.7263(47)
H10A H -0.1238(72) 0.4884(56) -0.9113(55)
H9A H 0.2160(65) 0.8618(50) -0.5825(48)
H7A H 0.1789(53) 0.7472(42) -0.4165(41)
loop_
_geom_bond_atom_site_label_1
_geom_bond_atom_site_label_2
_geom_bond_site_symmetry_1
_geom_bond_site_symmetry_2
Co1 O1 1_555 1_555
S1 C6 1_555 1_555
O1 H5 1_555 1_555
N1 Co1 1_555 1_555
C1 N1 1_555 1_555
C2 C1 1_555 1_555
C3 C2 1_555 1_555
C4 C3 1_555 1_555
C5 N1 1_555 1_555
N2 Co1 1_555 1_555
C6 N2 1_555 1_555
N3 C7 1_555 1_555
C7 C8 1_555 1_555
C8 C9 1_555 1_555
C9 C10 1_555 1_555
C10 C11 1_555 1_555
C11 N3 1_555 1_555
H1 C2 1_555 1_555
H2 C1 1_555 1_555
H3 C5 1_555 1_555
H4 C4 1_555 1_555
H6 O1 1_555 1_555
H7 C8 1_555 1_555
H8 C10 1_555 1_555
H9 C7 1_555 1_555
H10 C11 1_555 1_555
O1A Co1 1_555 1_555
H5A O1A 1_555 1_555
H6A O1A 1_555 1_555
C3A C3 1_555 1_555
C2A C3A 1_555 1_555
C1A C2A 1_555 1_555
N1A C1A 1_555 1_555
Co1A N1A 1_555 1_555
C5A N1A 1_555 1_555
C4A C3A 1_555 1_555
H4A C4A 1_555 1_555
H3A C5A 1_555 1_555
H2A C1A 1_555 1_555
H1A C2A 1_555 1_555
N1A_2 Co1 1_555 1_555
N2A Co1 1_555 1_555
C6A N2A 1_555 1_555
S1A C6A 1_555 1_555
C9A C9 1_555 1_555
C8A C9A 1_555 1_555
C7A C8A 1_555 1_555
N3A C7A 1_555 1_555
C11A N3A 1_555 1_555
C10A C9A 1_555 1_555
H8A C10A 1_555 1_555
H10A C11A 1_555 1_555
H9A C7A 1_555 1_555
H7A C8A 1_555 1_555
C4 C5 1_555 1_555
C5A C4A 1_555 1_555
C11A C10A 1_555 1_555

#END
