
#######################################################################
#
#                 Cambridge Crystallographic Data Centre
#                                CCDC 
#
#######################################################################
#
# If this CIF has been generated from an entry in the Cambridge 
# Structural Database, then it will include bibliographic, chemical, 
# crystal, experimental, refinement or atomic coordinate data resulting 
# from the CCDC's data processing and validation procedures.
#
#######################################################################

data_RINPOT01
_symmetry_cell_setting           triclinic
_symmetry_space_group_name_H-M   'P -1'
_symmetry_Int_Tables_number      2
_space_group_name_Hall           '-P 1'
loop_
_symmetry_equiv_pos_site_id
_symmetry_equiv_pos_as_xyz
1 x,y,z
2 -x,-y,-z
_cell_length_a                   7.4433(11)
_cell_length_b                   9.0147(11)
_cell_length_c                   10.1114(13)
_cell_angle_alpha                107.770(2)
_cell_angle_beta                 103.978(2)
_cell_angle_gamma                97.038(2)
_cell_volume                     612.663
loop_
_atom_site_label
_atom_site_type_symbol
_atom_site_fract_x
_atom_site_fract_y
_atom_site_fract_z
Co1 Co 0.5000 0.5000 0.5000
S1 S 0.93240(12) 0.61882(16) 0.23801(12)
O1 O 0.3666(3) 0.6731(2) 0.4436(2)
H1 H 0.251(3) 0.659(4) 0.418(4)
H2 H 0.403(4) 0.719(4) 0.394(3)
N1 N 0.6824(3) 0.5256(3) 0.3768(2)
N2 N 0.2992(3) 0.3143(2) 0.3142(2)
C1 C 0.2050(4) 0.1832(3) 0.3238(3)
H3 H 0.2201 0.1757 0.4154
C2 C 0.0868(4) 0.0590(3) 0.2048(3)
H4 H 0.0247 -0.0295 0.2172
C3 C 0.0605(3) 0.0664(3) 0.0661(2)
C4 C 0.1567(4) 0.2036(3) 0.0576(2)
H5 H 0.1423 0.2157 -0.0322
C5 C 0.2730(4) 0.3217(3) 0.1814(2)
H6 H 0.3369 0.4115 0.1721
C6 C 0.7868(4) 0.5654(3) 0.3206(3)
Co1_2 Co -0.5000 -0.5000 -0.5000
S1A S 0.06760(12) 0.38118(16) 0.76199(12)
O1A O 0.6334(3) 0.3269(2) 0.5564(2)
H1A H 0.749(3) 0.341(4) 0.582(4)
H2A H 0.597(4) 0.281(4) 0.606(3)
N1A N 0.3176(3) 0.4744(3) 0.6232(2)
N2A N -0.2992(3) -0.3143(2) -0.3142(2)
N2A_2 N 0.7008(3) 0.6857(2) 0.6858(2)
C1A C -0.2050(4) -0.1832(3) -0.3238(3)
H3A H -0.2201 -0.1757 -0.4154
C2A C -0.0868(4) -0.0590(3) -0.2048(3)
H4A H -0.0247 0.0295 -0.2172
C3A C -0.0605(3) -0.0664(3) -0.0661(2)
C4A C -0.1567(4) -0.2036(3) -0.0576(2)
H5A H -0.1423 -0.2157 0.0322
C5A C -0.2730(4) -0.3217(3) -0.1814(2)
H6A H -0.3369 -0.4115 -0.1721
C6A C 0.2132(4) 0.4346(3) 0.6794(3)
N3 N 0.4547(4) 0.8112(3) 0.2551(3)
C7 C 0.5596(5) 0.9552(4) 0.2955(4)
H7 H 0.6222 1.0072 0.3939
C8 C 0.5829(5) 1.0347(4) 0.2006(3)
H8 H 0.6588 1.1365 0.2356
C9 C 0.4917(4) 0.9604(3) 0.0537(3)
C10 C 0.3805(5) 0.8079(4) 0.0096(4)
H9 H 0.3170 0.7522 -0.0881
C11 C 0.3664(6) 0.7408(4) 0.1137(4)
H10 H 0.2901 0.6397 0.0828
N3A N 0.5453(4) 1.1888(3) -0.2551(3)
C7A C 0.4404(5) 1.0448(4) -0.2955(4)
H7A H 0.3778 0.9928 -0.3939
C8A C 0.4171(5) 0.9653(4) -0.2006(3)
H8A H 0.3412 0.8635 -0.2356
C9A C 0.5083(4) 1.0396(3) -0.0537(3)
C10A C 0.6195(5) 1.1921(4) -0.0096(4)
H9A H 0.6830 1.2478 0.0881
C11A C 0.6336(6) 1.2592(4) -0.1137(4)
H10A H 0.7099 1.3603 -0.0828
loop_
_geom_bond_atom_site_label_1
_geom_bond_atom_site_label_2
_geom_bond_site_symmetry_1
_geom_bond_site_symmetry_2
Co1 O1 1_555 1_555
S1 C6 1_555 1_555
O1 H1 1_555 1_555
H2 O1 1_555 1_555
N1 Co1 1_555 1_555
N2 Co1 1_555 1_555
C1 N2 1_555 1_555
H3 C1 1_555 1_555
C2 C1 1_555 1_555
H4 C2 1_555 1_555
C3 C2 1_555 1_555
C4 C3 1_555 1_555
H5 C4 1_555 1_555
C5 N2 1_555 1_555
H6 C5 1_555 1_555
C6 N1 1_555 1_555
N3 C7 1_555 1_555
C7 H7 1_555 1_555
C8 C7 1_555 1_555
H8 C8 1_555 1_555
C9 C8 1_555 1_555
C10 C9 1_555 1_555
H9 C10 1_555 1_555
C11 N3 1_555 1_555
H10 C11 1_555 1_555
Co1_2 N2A 1_555 1_555
S1A C6A 1_555 1_555
O1A Co1 1_555 1_555
H1A O1A 1_555 1_555
H2A O1A 1_555 1_555
N1A Co1 1_555 1_555
N2A C1A 1_555 1_555
N2A_2 Co1 1_555 1_555
C1A H3A 1_555 1_555
C2A C1A 1_555 1_555
H4A C2A 1_555 1_555
C3A C3 1_555 1_555
C4A C3A 1_555 1_555
H5A C4A 1_555 1_555
C5A N2A 1_555 1_555
H6A C5A 1_555 1_555
C6A N1A 1_555 1_555
N3A C7A 1_555 1_555
C7A H7A 1_555 1_555
C8A C7A 1_555 1_555
H8A C8A 1_555 1_555
C9A C9 1_555 1_555
C10A C9A 1_555 1_555
H9A C10A 1_555 1_555
C11A N3A 1_555 1_555
H10A C11A 1_555 1_555
C4 C5 1_555 1_555
C10 C11 1_555 1_555
C2A C3A 1_555 1_555
C4A C5A 1_555 1_555
C8A C9A 1_555 1_555
C10A C11A 1_555 1_555

#END
