
#######################################################################
#
#                 Cambridge Crystallographic Data Centre
#                                CCDC 
#
#######################################################################
#
# If this CIF has been generated from an entry in the Cambridge 
# Structural Database, then it will include bibliographic, chemical, 
# crystal, experimental, refinement or atomic coordinate data resulting 
# from the CCDC's data processing and validation procedures.
#
#######################################################################

data_RINPUZ
_symmetry_cell_setting           monoclinic
_symmetry_space_group_name_H-M   'P 2/c'
_symmetry_Int_Tables_number      13
_space_group_name_Hall           '-P 2yc'
loop_
_symmetry_equiv_pos_site_id
_symmetry_equiv_pos_as_xyz
1 x,y,z
2 -x,y,1/2-z
3 -x,-y,-z
4 x,-y,1/2+z
_cell_length_a                   11.483(2)
_cell_length_b                   11.397(3)
_cell_length_c                   13.609(1)
_cell_angle_alpha                90
_cell_angle_beta                 107.55(1)
_cell_angle_gamma                90
_cell_volume                     1698.13
loop_
_atom_site_label
_atom_site_type_symbol
_atom_site_fract_x
_atom_site_fract_y
_atom_site_fract_z
Co1 Co 0.0000 0.2003(1) 0.2500
N1 N 0.0000 0.3907(4) 0.2500
S1 S -0.2261(2) 1.1750(2) -0.1020(1)
N2 N 0.1917(3) 1.1978(3) 0.2508(3)
N3 N -0.0544(3) 1.2046(3) 0.0901(3)
C1 C 0.4357(4) 1.1910(4) 0.2502(3)
C2 C -0.1242(4) 1.1917(3) 0.0102(4)
N4 N 0.0000 1.0104(4) 0.2500
C3 C 0.0000 0.7647(5) 0.2500
C4 C 0.2821(4) 1.2422(5) 0.3290(4)
C5 C 0.6565(4) 1.1443(5) 0.3309(4)
C6 C -0.0677(4) 0.9480(4) 0.1693(4)
C7 C 0.7766(4) 1.1494(5) 0.3258(4)
C8 C 0.4037(4) 1.2388(5) 0.3319(4)
C9 C -0.0698(5) 0.8278(4) 0.1660(4)
C10 C 0.0000 0.6353(5) 0.2500
C11 C 0.0294(4) 0.4519(4) 0.1775(3)
C12 C 0.0300(5) 0.5731(3) 0.1746(4)
Co1_2 Co 0.0000 1.2003(1) 0.2500
N1_2 N 0.0000 1.3907(4) 0.2500
C1A C 0.5643(4) 1.1910(4) 0.2498(3)
N2A N 0.8083(3) 1.1978(3) 0.2492(3)
Co1A Co 1.0000 1.2003(1) 0.2500
C4A C 0.7179(4) 1.2422(5) 0.1710(4)
C8A C 0.5963(4) 1.2388(5) 0.1681(4)
C5A C 0.3435(4) 1.1443(5) 0.1691(4)
C7A C 0.2234(4) 1.1494(5) 0.1742(4)
N2A_2 N -0.1917(3) 1.1978(3) 0.2492(3)
N3A N 0.0544(3) 1.2046(3) 0.4099(3)
C2A C 0.1242(4) 1.1917(3) 0.4898(4)
S1A S 0.2261(2) 1.1750(2) 0.6020(1)
C6A C 0.0677(4) 0.9480(4) 0.3307(4)
C9A C 0.0698(5) 0.8278(4) 0.3340(4)
C12A C -0.0300(5) 0.5731(3) 0.3254(4)
C11A C -0.0294(4) 0.4519(4) 0.3225(3)
O1 O 0.6392(6) 0.6896(5) 0.0468(4)
C13 C 0.6681(9) 0.5700(9) 0.0540(7)
C14 C 0.6015(9) 0.7266(9) 0.1315(8)
C15 C 0.7088(11) 0.5343(10) -0.0396(9)
C16 C 0.5814(10) 0.8603(10) 0.1200(9)
loop_
_geom_bond_atom_site_label_1
_geom_bond_atom_site_label_2
_geom_bond_site_symmetry_1
_geom_bond_site_symmetry_2
Co1 N1 1_555 1_555
N1 C11 1_555 1_555
S1 C2 1_555 1_555
N2 C4 1_555 1_555
N3 C2 1_555 1_555
C1 C8 1_555 1_555
N4 C6 1_555 1_555
C3 C9 1_555 1_555
C4 C8 1_555 1_555
C5 C7 1_555 1_555
C6 C9 1_555 1_555
C7 N2A 1_555 1_555
C10 C3 1_555 1_555
C11 C12 1_555 1_555
C12 C10 1_555 1_555
O1 C13 1_555 1_555
C13 C15 1_555 1_555
C14 O1 1_555 1_555
C16 C14 1_555 1_555
Co1_2 N2 1_555 1_555
N1_2 Co1_2 1_555 1_555
C1A C1 1_555 1_555
N2A Co1A 1_555 1_555
C4A N2A 1_555 1_555
C8A C1A 1_555 1_555
C5A C1 1_555 1_555
C7A N2 1_555 1_555
N2A_2 Co1_2 1_555 1_555
N3A Co1_2 1_555 1_555
C2A N3A 1_555 1_555
S1A C2A 1_555 1_555
C6A N4 1_555 1_555
C9A C3 1_555 1_555
C12A C10 1_555 1_555
C11A N1 1_555 1_555
N3 Co1_2 1_555 1_555
N4 Co1_2 1_555 1_555
C5 C1A 1_555 1_555
C4A C8A 1_555 1_555
C5A C7A 1_555 1_555
C6A C9A 1_555 1_555
C12A C11A 1_555 1_555

#END
