
#######################################################################
#
#                 Cambridge Crystallographic Data Centre
#                                CCDC 
#
#######################################################################
#
# If this CIF has been generated from an entry in the Cambridge 
# Structural Database, then it will include bibliographic, chemical, 
# crystal, experimental, refinement or atomic coordinate data resulting 
# from the CCDC's data processing and validation procedures.
#
#######################################################################

data_RINPAF01
_symmetry_cell_setting           orthorhombic
_symmetry_space_group_name_H-M   'P b c m'
_symmetry_Int_Tables_number      57
_space_group_name_Hall           '-P 2c 2b'
loop_
_symmetry_equiv_pos_site_id
_symmetry_equiv_pos_as_xyz
1 x,y,z
2 x,y,1/2-z
3 -x,1/2+y,z
4 x,1/2-y,1/2+z
5 -x,-y,-z
6 -x,-y,1/2+z
7 x,1/2-y,-z
8 -x,1/2+y,1/2-z
_cell_length_a                   10.3233(8)
_cell_length_b                   19.973(2)
_cell_length_c                   6.4540(5)
_cell_angle_alpha                90
_cell_angle_beta                 90
_cell_angle_gamma                90
_cell_volume                     1330.73
loop_
_atom_site_label
_atom_site_type_symbol
_atom_site_fract_x
_atom_site_fract_y
_atom_site_fract_z
Pt1 Pt 0.15071(3) 0.25621(1) 0.2500
S1 S 0.3619(3) 0.4666(1) 0.2500
S2 S -0.2567(2) 0.3660(1) 0.2500
N1 N 0.0910(6) 0.1613(3) 0.2500
N2 N 0.3251(6) 0.2114(3) 0.2500
N3 N 0.2234(8) 0.3484(4) 0.2500
N4 N -0.0256(8) 0.2958(4) 0.2500
C1 C -0.0315(8) 0.1392(4) 0.2500
C2 C -0.0607(9) 0.0720(5) 0.2500
C3 C 0.0344(9) 0.0262(4) 0.2500
C4 C 0.1641(8) 0.0464(4) 0.2500
C5 C 0.1901(8) 0.1146(4) 0.2500
C6 C 0.3210(8) 0.1440(4) 0.2500
C7 C 0.4309(9) 0.1063(5) 0.2500
C8 C 0.5508(9) 0.1387(5) 0.2500
C9 C 0.5543(9) 0.2057(5) 0.2500
C10 C 0.4382(8) 0.2424(4) 0.2500
C11 C 0.2803(10) 0.3980(4) 0.2500
C12 C -0.1210(8) 0.3252(4) 0.2500
H1 H -0.1002 0.1711 0.2500
H2 H -0.1494 0.0589 0.2500
H3 H 0.0141 -0.0204 0.2500
H4 H 0.2360 0.0148 0.2500
H5 H 0.4248 0.0589 0.2500
H6 H 0.6304 0.1124 0.2500
H7 H 0.6371 0.2271 0.2500
H8 H 0.4402 0.2911 0.2500
Pt1C Pt 0.15071(3) 0.24379(1) -0.2500
Pt1C_2 Pt 0.15071(3) 0.24379(1) 0.7500
loop_
_geom_bond_atom_site_label_1
_geom_bond_atom_site_label_2
_geom_bond_site_symmetry_1
_geom_bond_site_symmetry_2
Pt1 N1 1_555 1_555
S1 C11 1_555 1_555
S2 C12 1_555 1_555
N1 C1 1_555 1_555
N2 Pt1 1_555 1_555
N3 Pt1 1_555 1_555
N4 Pt1 1_555 1_555
C1 C2 1_555 1_555
C2 C3 1_555 1_555
C3 C4 1_555 1_555
C4 C5 1_555 1_555
C5 N1 1_555 1_555
C6 N2 1_555 1_555
C7 C6 1_555 1_555
C8 C7 1_555 1_555
C9 C8 1_555 1_555
C10 N2 1_555 1_555
C11 N3 1_555 1_555
C12 N4 1_555 1_555
H1 C1 1_555 1_555
H2 C2 1_555 1_555
H3 C3 1_555 1_555
H4 C4 1_555 1_555
H5 C7 1_555 1_555
H6 C8 1_555 1_555
H7 C9 1_555 1_555
H8 C10 1_555 1_555
Pt1C Pt1 1_555 1_555
Pt1C_2 Pt1 1_555 1_555
C5 C6 1_555 1_555
C9 C10 1_555 1_555

#END
