
#######################################################################
#
#                 Cambridge Crystallographic Data Centre
#                                CCDC 
#
#######################################################################
#
# If this CIF has been generated from an entry in the Cambridge 
# Structural Database, then it will include bibliographic, chemical, 
# crystal, experimental, refinement or atomic coordinate data resulting 
# from the CCDC's data processing and validation procedures.
#
#######################################################################

data_RINPEJ
_symmetry_cell_setting           orthorhombic
_symmetry_space_group_name_H-M   'C 2 2 21'
_symmetry_Int_Tables_number      20
_space_group_name_Hall           'C 2n 2'
loop_
_symmetry_equiv_pos_site_id
_symmetry_equiv_pos_as_xyz
1 x,y,z
2 -x,-y,1/2+z
3 -x,y,1/2-z
4 x,-y,-z
5 1/2+x,1/2+y,z
6 1/2-x,1/2-y,1/2+z
7 1/2-x,1/2+y,1/2-z
8 1/2+x,1/2-y,-z
_cell_length_a                   13.1187(10)
_cell_length_b                   23.3448(16)
_cell_length_c                   22.9554(17)
_cell_angle_alpha                90
_cell_angle_beta                 90
_cell_angle_gamma                90
_cell_volume                     7030.17
loop_
_atom_site_label
_atom_site_type_symbol
_atom_site_fract_x
_atom_site_fract_y
_atom_site_fract_z
Cd1 Cd 0.48966(5) 0.17018(3) 0.06478(3)
O1 O 0.4925(6) 0.1812(3) -0.0375(2)
N1 N 0.4526(6) 0.2238(4) -0.2535(6)
O2 O 0.3431(6) 0.2027(3) 0.0009(3)
C1 C 0.4025(9) 0.1989(5) -0.0430(5)
C2 C 0.3637(8) 0.2095(5) -0.1021(5)
C3 C 0.2620(9) 0.2218(5) -0.1128(5)
H1 H 0.2175 0.2241 -0.0814
C4 C 0.9963(11) 0.1009(5) 0.1411(6)
H2 H 1.0626 0.0910 0.1513
C5 C 0.4263(8) 0.2106(5) -0.1491(5)
H3 H 0.4954 0.2030 -0.1443
C6 C 0.2911(9) 0.2316(5) -0.2131(5)
H4 H 0.2677 0.2384 -0.2508
N2 N 0.1470(8) -0.0835(4) 0.2562(6)
C7 C 0.9281(10) 0.1135(5) 0.1826(7)
O3 O 0.4374(7) 0.0722(3) 0.0548(4)
O4 O 0.3678(7) 0.1178(4) 0.1245(4)
C8 C 0.3893(8) 0.2228(5) -0.2039(4)
C9 C 0.6900(11) 0.1387(6) 0.0970(8)
O5 O 0.6253(8) 0.1420(4) 0.1331(5)
N3 N 0.1778(9) -0.0349(5) 0.2441(7)
C10 C 0.3791(11) 0.0742(6) 0.0995(6)
C11 C 0.2241(9) 0.2308(5) -0.1678(6)
H5 H 0.1546 0.2361 -0.1740
O6 O 0.6666(7) 0.1456(4) 0.0457(5)
C12 C 0.2713(10) 0.0172(5) 0.1689(6)
H6 H 0.2710 0.0471 0.1955
C13 C 0.7960(11) 0.1258(6) 0.1126(7)
C14 C 0.2221(11) -0.0330(5) 0.1838(6)
C15 C 0.2154(12) -0.0796(6) 0.1474(7)
H7 H 0.1836 -0.1133 0.1592
C16 C 0.3215(12) 0.0253(6) 0.1157(7)
C17 C 0.8262(9) 0.1242(5) 0.1684(6)
H8 H 0.7788 0.1302 0.1979
C18 C 0.3168(12) -0.0223(7) 0.0773(8)
H9 H 0.3513 -0.0209 0.0419
C19 C 0.8658(10) 0.1136(6) 0.0689(8)
H10 H 0.8446 0.1128 0.0303
C20 C 0.1047(10) -0.0885(6) 0.3123(7)
C21 C 0.0883(15) -0.0449(6) 0.3501(8)
H11 H 0.1074 -0.0077 0.3404
C22 C 0.2578(13) -0.0743(7) 0.0925(7)
H12 H 0.2493 -0.1033 0.0652
C23 C 0.9680(13) 0.1025(6) 0.0828(7)
H13 H 1.0159 0.0963 0.0536
N4 N 0.9525(6) 0.1155(4) 0.2431(7)
C24 C 0.0768(9) -0.1434(5) 0.3311(5)
H14 H 0.0874 -0.1740 0.3059
C25 C 0.0361(10) -0.1539(6) 0.3827(6)
C26 C 0.0164(10) -0.2159(7) 0.3989(7)
C27 C 0.0175(13) -0.1099(7) 0.4191(6)
H15 H -0.0128 -0.1169 0.4550
C28 C 0.0423(16) -0.0564(7) 0.4041(8)
H16 H 0.0289 -0.0265 0.4296
O7 O -0.0320(7) -0.2207(4) 0.4471(5)
O8 O 0.0472(8) -0.2545(4) 0.3734(5)
N1B N 0.5474(6) 0.2238(4) -0.2465(6)
C8B C 0.6107(8) 0.2228(5) -0.2961(4)
C5B C 0.5737(8) 0.2106(5) -0.3509(5)
C2B C 0.6363(8) 0.2095(5) -0.3979(5)
C1B C 0.5975(9) 0.1989(5) -0.4570(5)
O1B O 0.5075(6) 0.1812(3) -0.4625(2)
O2B O 0.6569(6) 0.2027(3) -0.5009(3)
C3B C 0.7380(9) 0.2218(5) -0.3872(5)
H1B H 0.7825 0.2241 -0.4186
C11B C 0.7759(9) 0.2308(5) -0.3322(6)
C6B C 0.7089(9) 0.2316(5) -0.2869(5)
H4B H 0.7323 0.2384 -0.2492
H5B H 0.8454 0.2361 -0.3260
H3B H 0.5046 0.2030 -0.3557
N4B N 1.0475(6) 0.1155(4) 0.2569(7)
C7B C 1.0719(10) 0.1135(5) 0.3174(7)
C4B C 1.0037(11) 0.1009(5) 0.3589(6)
H2B H 0.9374 0.0910 0.3487
C23B C 1.0320(13) 0.1025(6) 0.4172(7)
C19B C 1.1342(10) 0.1136(6) 0.4311(8)
C13B C 1.2040(11) 0.1258(6) 0.3874(7)
C9B C 1.3100(11) 0.1387(6) 0.4030(8)
O5B O 1.3747(8) 0.1420(4) 0.3669(5)
O6B O 1.3334(7) 0.1456(4) 0.4543(5)
C17B C 1.1738(9) 0.1242(5) 0.3316(6)
H8B H 1.2212 0.1302 0.3021
H10B H 1.1554 0.1128 0.4697
H13B H 0.9841 0.0963 0.4464
N2F N 0.3530(8) 0.4165(4) 0.2438(6)
O3F O 0.0626(7) 0.5722(3) 0.4452(4)
O4F O 0.1322(7) 0.6178(4) 0.3755(4)
N3F N 0.3222(9) 0.4651(5) 0.2559(7)
C10F C 0.1209(11) 0.5742(6) 0.4005(6)
C12F C 0.2287(10) 0.5172(5) 0.3311(6)
H6F H 0.2290 0.5471 0.3045
C14F C 0.2779(11) 0.4670(5) 0.3162(6)
C15F C 0.2846(12) 0.4204(6) 0.3526(7)
H7F H 0.3164 0.3867 0.3408
C16F C 0.1785(12) 0.5253(6) 0.3843(7)
C18F C 0.1832(12) 0.4777(7) 0.4227(8)
H9F H 0.1487 0.4791 0.4581
C20F C 0.3953(10) 0.4115(6) 0.1877(7)
C21F C 0.4117(15) 0.4551(6) 0.1499(8)
H11F H 0.3926 0.4923 0.1596
C22F C 0.2422(13) 0.4257(7) 0.4075(7)
H12F H 0.2507 0.3967 0.4348
C24F C 0.4232(9) 0.3566(5) 0.1689(5)
H14F H 0.4126 0.3260 0.1941
C25F C 0.4639(10) 0.3461(6) 0.1173(6)
C26F C 0.4836(10) 0.2841(7) 0.1011(7)
C27F C 0.4825(13) 0.3901(7) 0.0809(6)
H15F H 0.5128 0.3831 0.0450
C28F C 0.4577(16) 0.4436(7) 0.0959(8)
H16F H 0.4711 0.4735 0.0704
O7F O 0.5320(7) 0.2793(4) 0.0529(5)
O8F O 0.4528(8) 0.2455(4) 0.1266(5)
Cd1B Cd 0.51034(5) 0.17018(3) -0.56478(3)
Cd1F Cd 0.01034(5) -0.32982(3) 0.43522(3)
Cd1B_2 Cd 1.51034(5) 0.17018(3) 0.43522(3)
Cd1F_2 Cd 0.01034(5) 0.67018(3) 0.43522(3)
O3B O 0.5626(7) 0.0722(3) -0.5548(4)
O4B O 0.6322(7) 0.1178(4) -0.6245(4)
O5B_2 O 0.3747(8) 0.1420(4) -0.6331(5)
O6B_2 O 0.3334(7) 0.1456(4) -0.5457(5)
O7D O 0.4680(7) 0.2793(4) -0.5529(5)
O8D O 0.5472(8) 0.2455(4) -0.6266(5)
N5 N 0.1828(7) 0.2530(5) 0.0513(4)
H17 H 0.2319 0.2429 0.0259
H18 H 0.1293 0.2659 0.0306
C29 C 0.1526(12) 0.2043(6) 0.0825(8)
H19 H 0.1265 0.1761 0.0559
H20 H 0.1004 0.2145 0.1099
H21 H 0.2101 0.1888 0.1030
C30 C 0.2192(11) 0.2974(7) 0.0864(6)
H22 H 0.2354 0.3299 0.0625
H23 H 0.2792 0.2848 0.1066
H24 H 0.1678 0.3079 0.1142
N6 N 0.5000 0.1531(13) 0.2500
N7 N 0.5000 0.041(2) 0.2500
loop_
_geom_bond_atom_site_label_1
_geom_bond_atom_site_label_2
_geom_bond_site_symmetry_1
_geom_bond_site_symmetry_2
Cd1 O1 1_555 1_555
O1 C1 1_555 1_555
N1 C8 1_555 1_555
O2 Cd1 1_555 1_555
C1 O2 1_555 1_555
C2 C1 1_555 1_555
C3 C2 1_555 1_555
H1 C3 1_555 1_555
C4 H2 1_555 1_555
C5 C2 1_555 1_555
H3 C5 1_555 1_555
C6 H4 1_555 1_555
N2 N3 1_555 1_555
C7 C4 1_555 1_555
O3 Cd1 1_555 1_555
O4 Cd1 1_555 1_555
C8 C5 1_555 1_555
C9 O5 1_555 1_555
O5 Cd1 1_555 1_555
N3 C14 1_555 1_555
C10 O3 1_555 1_555
C11 C3 1_555 1_555
H5 C11 1_555 1_555
O6 Cd1 1_555 1_555
C12 H6 1_555 1_555
C13 C9 1_555 1_555
C14 C12 1_555 1_555
C15 C14 1_555 1_555
H7 C15 1_555 1_555
C16 C10 1_555 1_555
C17 C7 1_555 1_555
H8 C17 1_555 1_555
C18 C16 1_555 1_555
H9 C18 1_555 1_555
C19 C13 1_555 1_555
H10 C19 1_555 1_555
C20 N2 1_555 1_555
C21 C20 1_555 1_555
H11 C21 1_555 1_555
C22 C15 1_555 1_555
H12 C22 1_555 1_555
C23 C4 1_555 1_555
H13 C23 1_555 1_555
N4 C7 1_555 1_555
C24 C20 1_555 1_555
H14 C24 1_555 1_555
C25 C24 1_555 1_555
C26 C25 1_555 1_555
C27 C25 1_555 1_555
H15 C27 1_555 1_555
C28 C21 1_555 1_555
H16 C28 1_555 1_555
O7 C26 1_555 1_555
O8 C26 1_555 1_555
N5 H17 1_555 1_555
H18 N5 1_555 1_555
C29 N5 1_555 1_555
H19 C29 1_555 1_555
H20 C29 1_555 1_555
H21 C29 1_555 1_555
C30 N5 1_555 1_555
H22 C30 1_555 1_555
H23 C30 1_555 1_555
H24 C30 1_555 1_555
N1B N1 1_555 1_555
C8B N1B 1_555 1_555
C5B C8B 1_555 1_555
C2B C5B 1_555 1_555
C1B C2B 1_555 1_555
O1B C1B 1_555 1_555
O2B C1B 1_555 1_555
C3B C2B 1_555 1_555
H1B C3B 1_555 1_555
C11B C3B 1_555 1_555
C6B C8B 1_555 1_555
H4B C6B 1_555 1_555
H5B C11B 1_555 1_555
H3B C5B 1_555 1_555
N4B N4 1_555 1_555
C7B N4B 1_555 1_555
C4B C7B 1_555 1_555
H2B C4B 1_555 1_555
C23B C4B 1_555 1_555
C19B C23B 1_555 1_555
C13B C19B 1_555 1_555
C9B C13B 1_555 1_555
O5B C9B 1_555 1_555
O6B C9B 1_555 1_555
C17B C7B 1_555 1_555
H8B C17B 1_555 1_555
H10B C19B 1_555 1_555
H13B C23B 1_555 1_555
N2F N3F 1_555 1_555
O3F C10F 1_555 1_555
O4F C10F 1_555 1_555
N3F C14F 1_555 1_555
C10F C16F 1_555 1_555
C12F H6F 1_555 1_555
C14F C12F 1_555 1_555
C15F C14F 1_555 1_555
H7F C15F 1_555 1_555
C16F C12F 1_555 1_555
C18F C16F 1_555 1_555
H9F C18F 1_555 1_555
C20F N2F 1_555 1_555
C21F C20F 1_555 1_555
H11F C21F 1_555 1_555
C22F C15F 1_555 1_555
H12F C22F 1_555 1_555
C24F C20F 1_555 1_555
H14F C24F 1_555 1_555
C25F C24F 1_555 1_555
C26F C25F 1_555 1_555
C27F C25F 1_555 1_555
H15F C27F 1_555 1_555
C28F C21F 1_555 1_555
H16F C28F 1_555 1_555
O7F Cd1 1_555 1_555
O8F Cd1 1_555 1_555
Cd1B O1B 1_555 1_555
Cd1F O7 1_555 1_555
Cd1B_2 O5B 1_555 1_555
Cd1F_2 O3F 1_555 1_555
O3B Cd1B 1_555 1_555
O4B Cd1B 1_555 1_555
O5B_2 Cd1B 1_555 1_555
O6B_2 Cd1B 1_555 1_555
O7D Cd1B 1_555 1_555
O8D Cd1B 1_555 1_555
C6 C11 1_555 1_555
C6 C8 1_555 1_555
O4 C10 1_555 1_555
C9 O6 1_555 1_555
C12 C16 1_555 1_555
C13 C17 1_555 1_555
C18 C22 1_555 1_555
C19 C23 1_555 1_555
C27 C28 1_555 1_555
O8 Cd1F 1_555 1_555
O2B Cd1B 1_555 1_555
C11B C6B 1_555 1_555
C13B C17B 1_555 1_555
O6B Cd1B_2 1_555 1_555
O4F Cd1F_2 1_555 1_555
C18F C22F 1_555 1_555
C26F O7F 1_555 1_555
C26F O8F 1_555 1_555
C27F C28F 1_555 1_555

#END
