
#######################################################################
#
#                 Cambridge Crystallographic Data Centre
#                                CCDC 
#
#######################################################################
#
# If this CIF has been generated from an entry in the Cambridge 
# Structural Database, then it will include bibliographic, chemical, 
# crystal, experimental, refinement or atomic coordinate data resulting 
# from the CCDC's data processing and validation procedures.
#
#######################################################################

data_RINROX
_symmetry_cell_setting           rhombohedral
_symmetry_space_group_name_H-M   'R 3'
_symmetry_Int_Tables_number      146
_space_group_name_Hall           'R 3'
loop_
_symmetry_equiv_pos_site_id
_symmetry_equiv_pos_as_xyz
1 x,y,z
2 -y,x-y,z
3 -x+y,-x,z
4 2/3+x,1/3+y,1/3+z
5 2/3-y,1/3+x-y,1/3+z
6 2/3-x+y,1/3-x,1/3+z
7 1/3+x,2/3+y,2/3+z
8 1/3-y,2/3+x-y,2/3+z
9 1/3-x+y,2/3-x,2/3+z
_cell_length_a                   21.9957(2)
_cell_length_b                   21.9957(2)
_cell_length_c                   14.0739(1)
_cell_angle_alpha                90
_cell_angle_beta                 90
_cell_angle_gamma                120
_cell_volume                     5896.86
loop_
_atom_site_label
_atom_site_type_symbol
_atom_site_fract_x
_atom_site_fract_y
_atom_site_fract_z
Ag1 Ag 0.0000 0.0000 0.58860(2)
Ag2 Ag 0.070400(13) -0.015410(14) 0.319641(18)
Ag3 Ag 0.0000 0.0000 0.07707(3)
Ag4 Ag 0.0000 0.0000 -0.16466(3)
Cl1 Cl 0.22908(4) 0.01824(5) 0.26373(6)
O1 O 0.08429(12) -0.00149(13) 0.47384(15)
O2 O 0.08321(12) 0.07826(12) 0.20344(18)
O3 O 0.00175(12) 0.08307(11) -0.04303(16)
O4 O -0.05522(11) -0.09270(12) -0.28597(16)
O5 O 0.16134(16) -0.04501(15) 0.2634(3)
O6 O 0.25412(16) 0.0339(2) 0.1686(2)
O7 O 0.2769(2) 0.0074(2) 0.3204(2)
O8 O 0.22066(14) 0.07444(13) 0.30316(19)
N1 N 0.15220(13) 0.03986(15) 0.49987(18)
N2 N 0.14657(14) 0.13392(14) 0.18377(19)
N3 N 0.05667(15) 0.14825(14) -0.04197(19)
N4 N -0.12504(14) -0.12752(14) -0.27790(18)
C1 C 0.19339(17) 0.01105(18) 0.5083(2)
H1 H 0.1758 -0.0371 0.4937
C2 C 0.26207(18) 0.05291(19) 0.5388(2)
H2 H 0.2919 0.0335 0.5453
C3 C 0.28704(18) 0.1226(2) 0.5597(3)
H3 H 0.3337 0.1511 0.5820
C4 C 0.24350(18) 0.15075(19) 0.5479(3)
H4 H 0.2605 0.1990 0.5606
C5 C 0.17525(17) 0.10823(17) 0.5175(2)
H5 H 0.1449 0.1269 0.5091
C6 C 0.17630(18) 0.18975(18) 0.2427(2)
H6 H 0.1531 0.1896 0.2997
C7 C 0.24075(18) 0.24723(18) 0.2200(3)
H7 H 0.2619 0.2868 0.2611
C8 C 0.27413(19) 0.24661(19) 0.1368(3)
H8 H 0.3180 0.2860 0.1197
C9 C 0.24308(18) 0.1882(2) 0.0792(3)
H9 H 0.2661 0.1868 0.0228
C10 C 0.17853(17) 0.13177(18) 0.1031(2)
H10 H 0.1568 0.0917 0.0629
C11 C 0.0529(2) 0.19737(19) 0.0106(3)
H11 H 0.0114 0.1854 0.0454
C12 C 0.1087(2) 0.2648(2) 0.0140(3)
H12 H 0.1062 0.2990 0.0523
C13 C 0.1676(2) 0.2826(2) -0.0375(3)
H13 H 0.2059 0.3294 -0.0366
C14 C 0.1711(2) 0.2322(2) -0.0908(3)
H14 H 0.2120 0.2437 -0.1268
C15 C 0.11484(19) 0.16449(19) -0.0915(3)
H15 H 0.1174 0.1292 -0.1274
C16 C -0.16248(18) -0.09798(19) -0.3091(2)
H16 H -0.1390 -0.0523 -0.3361
C17 C -0.2343(2) -0.1338(2) -0.3018(3)
H17 H -0.2605 -0.1131 -0.3242
C18 C -0.2683(2) -0.1998(3) -0.2620(3)
H18 H -0.3180 -0.2251 -0.2568
C19 C -0.2294(2) -0.2282(2) -0.2301(3)
H19 H -0.2524 -0.2735 -0.2020
C20 C -0.1572(2) -0.19216(18) -0.2380(3)
H20 H -0.1305 -0.2124 -0.2158
Ag2A Ag 0.015410(14) 0.085810(19) 0.319641(18)
Cl1A Cl -0.01824(5) 0.21084(6) 0.26373(6)
O1A O 0.00149(13) 0.08578(18) 0.47384(15)
O2A O -0.07826(12) 0.00495(17) 0.20344(18)
O3A O -0.08307(11) -0.08132(16) -0.04303(16)
O4A O 0.09270(12) 0.03748(16) -0.28597(16)
O5A O 0.04501(15) 0.20635(22) 0.2634(3)
O6A O -0.0339(2) 0.22022(26) 0.1686(2)
O7A O -0.0074(2) 0.2695(3) 0.3204(2)
O8A O -0.07444(13) 0.14622(19) 0.30316(19)
N1A N -0.03986(15) 0.11234(20) 0.49987(18)
N2A N -0.13392(14) 0.01265(20) 0.18377(19)
N3A N -0.14825(14) -0.09158(21) -0.04197(19)
N4A N 0.12752(14) 0.00248(20) -0.27790(18)
C1A C -0.01105(18) 0.18234(25) 0.5083(2)
H1A H 0.0371 0.2129 0.4937
C2A C -0.05291(19) 0.20916(26) 0.5388(2)
H2A H -0.0335 0.2584 0.5453
C3A C -0.1226(2) 0.16444(27) 0.5597(3)
H3A H -0.1511 0.1826 0.5820
C4A C -0.15075(19) 0.09275(26) 0.5479(3)
H4A H -0.1990 0.0615 0.5606
C5A C -0.10823(17) 0.06702(24) 0.5175(2)
H5A H -0.1269 0.0180 0.5091
C6A C -0.18975(18) -0.01345(25) 0.2427(2)
H6A H -0.1896 -0.0365 0.2997
C7A C -0.24723(18) -0.00648(25) 0.2200(3)
H7A H -0.2868 -0.0249 0.2611
C8A C -0.24661(19) 0.02752(27) 0.1368(3)
H8A H -0.2860 0.0320 0.1197
C9A C -0.1882(2) 0.05488(27) 0.0792(3)
H9A H -0.1868 0.0793 0.0228
C10A C -0.13177(18) 0.04676(25) 0.1031(2)
H10A H -0.0917 0.0651 0.0629
C11A C -0.19737(19) -0.14447(28) 0.0106(3)
H11A H -0.1854 -0.1740 0.0454
C12A C -0.2648(2) -0.1561(3) 0.0140(3)
H12A H -0.2990 -0.1928 0.0523
C13A C -0.2826(2) -0.1150(3) -0.0375(3)
H13A H -0.3294 -0.1235 -0.0366
C14A C -0.2322(2) -0.0611(3) -0.0908(3)
H14A H -0.2437 -0.0317 -0.1268
C15A C -0.16449(19) -0.04965(27) -0.0915(3)
H15A H -0.1292 -0.0118 -0.1274
C16A C 0.09798(19) -0.06450(26) -0.3091(2)
H16A H 0.0523 -0.0867 -0.3361
C17A C 0.1338(2) -0.1005(3) -0.3018(3)
H17A H 0.1131 -0.1474 -0.3242
C18A C 0.1998(3) -0.0685(4) -0.2620(3)
H18A H 0.2251 -0.0929 -0.2568
C19A C 0.2282(2) -0.0012(3) -0.2301(3)
H19A H 0.2735 0.0211 -0.2020
C20A C 0.19216(18) 0.03496(27) -0.2380(3)
H20A H 0.2124 0.0819 -0.2158
Ag2B Ag -0.085810(19) -0.070400(13) 0.319641(18)
Cl1B Cl -0.21084(6) -0.22908(4) 0.26373(6)
O1B O -0.08578(18) -0.08429(12) 0.47384(15)
O2B O -0.00495(17) -0.08321(12) 0.20344(18)
O3B O 0.08132(16) -0.00175(12) -0.04303(16)
O4B O -0.03748(16) 0.05522(11) -0.28597(16)
O5B O -0.20635(22) -0.16134(16) 0.2634(3)
O6B O -0.22022(26) -0.25412(16) 0.1686(2)
O7B O -0.2695(3) -0.2769(2) 0.3204(2)
O8B O -0.14622(19) -0.22066(14) 0.30316(19)
N1B N -0.11234(20) -0.15220(13) 0.49987(18)
N2B N -0.01265(20) -0.14657(14) 0.18377(19)
N3B N 0.09158(21) -0.05667(15) -0.04197(19)
N4B N -0.00248(20) 0.12504(14) -0.27790(18)
C1B C -0.18234(25) -0.19339(17) 0.5083(2)
H1B H -0.2129 -0.1758 0.4937
C2B C -0.20916(26) -0.26207(18) 0.5388(2)
H2B H -0.2584 -0.2919 0.5453
C3B C -0.16444(27) -0.28704(18) 0.5597(3)
H3B H -0.1826 -0.3337 0.5820
C4B C -0.09275(26) -0.24350(18) 0.5479(3)
H4B H -0.0615 -0.2605 0.5606
C5B C -0.06702(24) -0.17525(17) 0.5175(2)
H5B H -0.0180 -0.1449 0.5091
C6B C 0.01345(25) -0.17630(18) 0.2427(2)
H6B H 0.0365 -0.1531 0.2997
C7B C 0.00648(25) -0.24075(18) 0.2200(3)
H7B H 0.0249 -0.2619 0.2611
C8B C -0.02752(27) -0.27413(19) 0.1368(3)
H8B H -0.0320 -0.3180 0.1197
C9B C -0.05488(27) -0.24308(18) 0.0792(3)
H9B H -0.0793 -0.2661 0.0228
C10B C -0.04676(25) -0.17853(17) 0.1031(2)
H10B H -0.0651 -0.1568 0.0629
C11B C 0.14447(28) -0.0529(2) 0.0106(3)
H11B H 0.1740 -0.0114 0.0454
C12B C 0.1561(3) -0.1087(2) 0.0140(3)
H12B H 0.1928 -0.1062 0.0523
C13B C 0.1150(3) -0.1676(2) -0.0375(3)
H13B H 0.1235 -0.2059 -0.0366
C14B C 0.0611(3) -0.1711(2) -0.0908(3)
H14B H 0.0317 -0.2120 -0.1268
C15B C 0.04965(27) -0.11484(19) -0.0915(3)
H15B H 0.0118 -0.1174 -0.1274
C16B C 0.06450(26) 0.16248(18) -0.3091(2)
H16B H 0.0867 0.1390 -0.3361
C17B C 0.1005(3) 0.2343(2) -0.3018(3)
H17B H 0.1474 0.2605 -0.3242
C18B C 0.0685(4) 0.2683(2) -0.2620(3)
H18B H 0.0929 0.3180 -0.2568
C19B C 0.0012(3) 0.2294(2) -0.2301(3)
H19B H -0.0211 0.2524 -0.2020
C20B C -0.03496(27) 0.1572(2) -0.2380(3)
H20B H -0.0819 0.1305 -0.2158
Ag1_2 Ag 0.0000 0.0000 -0.41140(2)
O4_2 O -0.05522(11) -0.09270(12) 0.71403(16)
O4A_2 O 0.09270(12) 0.03748(16) 0.71403(16)
O4B_2 O -0.03748(16) 0.05522(11) 0.71403(16)
Cl2 Cl 0.34883(4) 0.23328(4) -0.17688(6)
O9 O 0.31820(17) 0.16341(14) -0.1397(2)
O10 O 0.35380(15) 0.27985(14) -0.10153(18)
O11 O 0.30548(18) 0.23570(18) -0.2511(2)
O12 O 0.41771(16) 0.25402(17) -0.2128(2)
loop_
_geom_bond_atom_site_label_1
_geom_bond_atom_site_label_2
_geom_bond_site_symmetry_1
_geom_bond_site_symmetry_2
Ag1 O1 1_555 1_555
Ag2 O1 1_555 1_555
Ag3 O2 1_555 1_555
Ag4 O3 1_555 1_555
Cl1 O5 1_555 1_555
O1 N1 1_555 1_555
O2 Ag2 1_555 1_555
O3 Ag3 1_555 1_555
O4 Ag4 1_555 1_555
O5 Ag2 1_555 1_555
O6 Cl1 1_555 1_555
O7 Cl1 1_555 1_555
O8 Cl1 1_555 1_555
N1 C1 1_555 1_555
N2 O2 1_555 1_555
N3 O3 1_555 1_555
N4 O4 1_555 1_555
C1 H1 1_555 1_555
C2 C1 1_555 1_555
H2 C2 1_555 1_555
C3 C2 1_555 1_555
H3 C3 1_555 1_555
C4 C3 1_555 1_555
H4 C4 1_555 1_555
C5 N1 1_555 1_555
H5 C5 1_555 1_555
C6 N2 1_555 1_555
H6 C6 1_555 1_555
C7 C6 1_555 1_555
H7 C7 1_555 1_555
C8 C7 1_555 1_555
H8 C8 1_555 1_555
C9 C8 1_555 1_555
H9 C9 1_555 1_555
C10 N2 1_555 1_555
H10 C10 1_555 1_555
C11 N3 1_555 1_555
H11 C11 1_555 1_555
C12 C11 1_555 1_555
H12 C12 1_555 1_555
C13 C12 1_555 1_555
H13 C13 1_555 1_555
C14 C13 1_555 1_555
H14 C14 1_555 1_555
C15 N3 1_555 1_555
H15 C15 1_555 1_555
C16 N4 1_555 1_555
H16 C16 1_555 1_555
C17 C16 1_555 1_555
H17 C17 1_555 1_555
C18 C17 1_555 1_555
H18 C18 1_555 1_555
C19 C18 1_555 1_555
H19 C19 1_555 1_555
C20 N4 1_555 1_555
H20 C20 1_555 1_555
Cl2 O9 1_555 1_555
O10 Cl2 1_555 1_555
O11 Cl2 1_555 1_555
O12 Cl2 1_555 1_555
Ag2A O2 1_555 1_555
Cl1A O5A 1_555 1_555
O1A Ag1 1_555 1_555
O2A Ag3 1_555 1_555
O3A Ag3 1_555 1_555
O4A Ag4 1_555 1_555
O5A Ag2A 1_555 1_555
O6A Cl1A 1_555 1_555
O7A Cl1A 1_555 1_555
O8A Cl1A 1_555 1_555
N1A O1A 1_555 1_555
N2A O2A 1_555 1_555
N3A O3A 1_555 1_555
N4A O4A 1_555 1_555
C1A N1A 1_555 1_555
H1A C1A 1_555 1_555
C2A C1A 1_555 1_555
H2A C2A 1_555 1_555
C3A C2A 1_555 1_555
H3A C3A 1_555 1_555
C4A C3A 1_555 1_555
H4A C4A 1_555 1_555
C5A N1A 1_555 1_555
H5A C5A 1_555 1_555
C6A N2A 1_555 1_555
H6A C6A 1_555 1_555
C7A C6A 1_555 1_555
H7A C7A 1_555 1_555
C8A C7A 1_555 1_555
H8A C8A 1_555 1_555
C9A C8A 1_555 1_555
H9A C9A 1_555 1_555
C10A N2A 1_555 1_555
H10A C10A 1_555 1_555
C11A N3A 1_555 1_555
H11A C11A 1_555 1_555
C12A C11A 1_555 1_555
H12A C12A 1_555 1_555
C13A C12A 1_555 1_555
H13A C13A 1_555 1_555
C14A C13A 1_555 1_555
H14A C14A 1_555 1_555
C15A N3A 1_555 1_555
H15A C15A 1_555 1_555
C16A N4A 1_555 1_555
H16A C16A 1_555 1_555
C17A C16A 1_555 1_555
H17A C17A 1_555 1_555
C18A C17A 1_555 1_555
H18A C18A 1_555 1_555
C19A C18A 1_555 1_555
H19A C19A 1_555 1_555
C20A N4A 1_555 1_555
H20A C20A 1_555 1_555
Ag2B O2A 1_555 1_555
Cl1B O5B 1_555 1_555
O1B Ag1 1_555 1_555
O2B Ag2 1_555 1_555
O3B Ag3 1_555 1_555
O4B Ag4 1_555 1_555
O5B Ag2B 1_555 1_555
O6B Cl1B 1_555 1_555
O7B Cl1B 1_555 1_555
O8B Cl1B 1_555 1_555
N1B O1B 1_555 1_555
N2B O2B 1_555 1_555
N3B O3B 1_555 1_555
N4B O4B 1_555 1_555
C1B N1B 1_555 1_555
H1B C1B 1_555 1_555
C2B C1B 1_555 1_555
H2B C2B 1_555 1_555
C3B C2B 1_555 1_555
H3B C3B 1_555 1_555
C4B C3B 1_555 1_555
H4B C4B 1_555 1_555
C5B N1B 1_555 1_555
H5B C5B 1_555 1_555
C6B N2B 1_555 1_555
H6B C6B 1_555 1_555
C7B C6B 1_555 1_555
H7B C7B 1_555 1_555
C8B C7B 1_555 1_555
H8B C8B 1_555 1_555
C9B C8B 1_555 1_555
H9B C9B 1_555 1_555
C10B N2B 1_555 1_555
H10B C10B 1_555 1_555
C11B N3B 1_555 1_555
H11B C11B 1_555 1_555
C12B C11B 1_555 1_555
H12B C12B 1_555 1_555
C13B C12B 1_555 1_555
H13B C13B 1_555 1_555
C14B C13B 1_555 1_555
H14B C14B 1_555 1_555
C15B N3B 1_555 1_555
H15B C15B 1_555 1_555
C16B N4B 1_555 1_555
H16B C16B 1_555 1_555
C17B C16B 1_555 1_555
H17B C17B 1_555 1_555
C18B C17B 1_555 1_555
H18B C18B 1_555 1_555
C19B C18B 1_555 1_555
H19B C19B 1_555 1_555
C20B N4B 1_555 1_555
H20B C20B 1_555 1_555
Ag1_2 O4 1_555 1_555
O4_2 Ag1 1_555 1_555
O4A_2 Ag1 1_555 1_555
O4B_2 Ag1 1_555 1_555
Ag3 O2B 1_555 1_555
Ag4 O3A 1_555 1_555
Ag4 O3B 1_555 1_555
C4 C5 1_555 1_555
C9 C10 1_555 1_555
C14 C15 1_555 1_555
C19 C20 1_555 1_555
Ag2A O1A 1_555 1_555
Ag2A O2A 1_555 1_555
O4A Ag1_2 1_555 1_555
C4A C5A 1_555 1_555
C9A C10A 1_555 1_555
C14A C15A 1_555 1_555
C19A C20A 1_555 1_555
Ag2B O1B 1_555 1_555
Ag2B O2B 1_555 1_555
O4B Ag1_2 1_555 1_555
C4B C5B 1_555 1_555
C9B C10B 1_555 1_555
C14B C15B 1_555 1_555
C19B C20B 1_555 1_555

#END
