
#######################################################################
#
#                 Cambridge Crystallographic Data Centre
#                                CCDC 
#
#######################################################################
#
# If this CIF has been generated from an entry in the Cambridge 
# Structural Database, then it will include bibliographic, chemical, 
# crystal, experimental, refinement or atomic coordinate data resulting 
# from the CCDC's data processing and validation procedures.
#
#######################################################################

data_RINSAK
_symmetry_cell_setting           triclinic
_symmetry_space_group_name_H-M   'P -1'
_symmetry_Int_Tables_number      2
_space_group_name_Hall           '-P 1'
loop_
_symmetry_equiv_pos_site_id
_symmetry_equiv_pos_as_xyz
1 x,y,z
2 -x,-y,-z
_cell_length_a                   8.26718(8)
_cell_length_b                   10.26639(13)
_cell_length_c                   11.74637(13)
_cell_angle_alpha                86.5046(10)
_cell_angle_beta                 81.1991(9)
_cell_angle_gamma                88.2690(9)
_cell_volume                     983.171
loop_
_atom_site_label
_atom_site_type_symbol
_atom_site_fract_x
_atom_site_fract_y
_atom_site_fract_z
Ag1 Ag 0.11033(2) 0.885213(16) 0.089435(14)
Ag2 Ag 0.38475(2) 1.072407(16) -0.085811(14)
F1 F -0.2939(2) 0.74049(17) 0.51287(12)
F2 F -0.2996(2) 0.58429(16) 0.40056(15)
F3 F -0.07575(19) 0.62545(16) 0.46127(12)
F4 F 0.2964(2) 0.58396(18) -0.21747(16)
F5 F 0.4904(2) 0.51091(15) -0.12739(14)
F6 F 0.5407(2) 0.64993(19) -0.27028(14)
O1 O 0.11326(19) 1.11106(15) 0.01791(13)
O2 O 0.6611(2) 1.07046(16) -0.17961(14)
O3 O -0.3108(2) 0.8343(2) 0.27111(17)
O4 O -0.0665(3) 0.89278(19) 0.3458(2)
O5 O -0.0530(2) 0.71491(19) 0.21916(15)
O6 O 0.5446(2) 0.76760(19) -0.04478(17)
O7 O 0.3333(3) 0.85499(18) -0.15225(19)
N1 N 0.0982(2) 1.20540(17) 0.09417(16)
N2 N 0.6701(2) 1.1256(2) -0.28636(17)
S1 S -0.15413(7) 0.79360(6) 0.30104(5)
S2 S 0.38975(7) 0.74813(5) -0.08160(5)
C1 C 0.0605(3) 1.1727(2) 0.20780(19)
H1 H 0.0435 1.0840 0.2337
C2 C 0.0466(3) 1.2680(2) 0.2861(2)
H2 H 0.0214 1.2453 0.3663
C3 C 0.0695(3) 1.3974(2) 0.2476(2)
H3 H 0.0604 1.4640 0.3010
C4 C 0.1057(3) 1.4283(2) 0.1305(2)
H4 H 0.1204 1.5166 0.1027
C5 C 0.1203(3) 1.3300(2) 0.0543(2)
H5 H 0.1459 1.3504 -0.0263
C6 C 0.6746(4) 1.0492(4) -0.3748(3)
H6 H 0.6709 0.9570 -0.3624
C7 C 0.6850(4) 1.1084(6) -0.4862(3)
H7 H 0.6905 1.0566 -0.5511
C8 C 0.6871(4) 1.2431(6) -0.5008(3)
H8 H 0.6922 1.2844 -0.5758
C9 C 0.6820(4) 1.3161(4) -0.4080(3)
H9 H 0.6843 1.4086 -0.4179
C10 C 0.6733(3) 1.2562(3) -0.2999(3)
H10 H 0.6696 1.3071 -0.2346
C11 C -0.2094(3) 0.6799(2) 0.42525(19)
C12 C 0.4314(3) 0.6157(2) -0.1790(2)
O8 O 0.2645(2) 0.69530(17) 0.00674(16)
Ag1A Ag -0.11033(2) 1.114787(16) -0.089435(14)
Ag1A_2 Ag 0.88967(2) 1.114787(16) -0.089435(14)
Ag2A Ag -0.38475(2) 0.927593(16) 0.085811(14)
Ag2A_2 Ag 0.61525(2) 0.927593(16) 0.085811(14)
O1A O -0.11326(19) 0.88894(15) -0.01791(13)
O2A O 0.3389(2) 0.92954(16) 0.17961(14)
O3A O 0.3108(2) 1.1657(2) -0.27111(17)
O6A O 0.4554(2) 1.23240(19) 0.04478(17)
loop_
_geom_bond_atom_site_label_1
_geom_bond_atom_site_label_2
_geom_bond_site_symmetry_1
_geom_bond_site_symmetry_2
Ag1 O1 1_555 1_555
Ag2 O1 1_555 1_555
F1 C11 1_555 1_555
F2 C11 1_555 1_555
F3 C11 1_555 1_555
F4 C12 1_555 1_555
F5 C12 1_555 1_555
F6 C12 1_555 1_555
O1 N1 1_555 1_555
O2 Ag2 1_555 1_555
O3 S1 1_555 1_555
O4 S1 1_555 1_555
O5 Ag1 1_555 1_555
O6 S2 1_555 1_555
O7 Ag2 1_555 1_555
N1 C1 1_555 1_555
N2 O2 1_555 1_555
S1 O5 1_555 1_555
S2 O7 1_555 1_555
C1 H1 1_555 1_555
C2 C1 1_555 1_555
H2 C2 1_555 1_555
C3 C2 1_555 1_555
H3 C3 1_555 1_555
C4 C3 1_555 1_555
H4 C4 1_555 1_555
C5 N1 1_555 1_555
H5 C5 1_555 1_555
C6 N2 1_555 1_555
H6 C6 1_555 1_555
C7 C6 1_555 1_555
H7 C7 1_555 1_555
C8 C7 1_555 1_555
H8 C8 1_555 1_555
C9 C8 1_555 1_555
H9 C9 1_555 1_555
C10 N2 1_555 1_555
H10 C10 1_555 1_555
C11 S1 1_555 1_555
C12 S2 1_555 1_555
O8 Ag1 1_555 1_555
Ag1A O1 1_555 1_555
Ag1A_2 O2 1_555 1_555
Ag2A O3 1_555 1_555
Ag2A_2 O6 1_555 1_555
O1A Ag1 1_555 1_555
O2A Ag1 1_555 1_555
O3A Ag2 1_555 1_555
O6A Ag2 1_555 1_555
S2 O8 1_555 1_555
C4 C5 1_555 1_555
C9 C10 1_555 1_555
Ag1A O1A 1_555 1_555
Ag2A O1A 1_555 1_555
Ag2A_2 O2A 1_555 1_555

#END
