
#######################################################################
#
#                 Cambridge Crystallographic Data Centre
#                                CCDC 
#
#######################################################################
#
# If this CIF has been generated from an entry in the Cambridge 
# Structural Database, then it will include bibliographic, chemical, 
# crystal, experimental, refinement or atomic coordinate data resulting 
# from the CCDC's data processing and validation procedures.
#
#######################################################################

data_RINSOW02
_symmetry_cell_setting           triclinic
_symmetry_space_group_name_H-M   'P -1'
_symmetry_Int_Tables_number      2
_space_group_name_Hall           '-P 1'
loop_
_symmetry_equiv_pos_site_id
_symmetry_equiv_pos_as_xyz
1 x,y,z
2 -x,-y,-z
_cell_length_a                   7.6487(15)
_cell_length_b                   4.1457(8)
_cell_length_c                   7.6677(15)
_cell_angle_alpha                90.03(3)
_cell_angle_beta                 119.81(3)
_cell_angle_gamma                89.98(3)
_cell_volume                     210.965
loop_
_atom_site_label
_atom_site_type_symbol
_atom_site_fract_x
_atom_site_fract_y
_atom_site_fract_z
Cd1 Cd 0.5000 -1.5000 0.5000
I1 I 0.6578(2) -1.0002(3) 0.81579(13)
N1 N 0.1792(18) -1.5007(37) 0.5014(19)
C1 C 0.1772(24) -1.4998(53) 0.6650(22)
C2 C -0.0090(25) -1.4886(53) 0.6685(27)
H1 H -0.090(17) -1.520(37) 0.1878(70)
H2 H -0.310(32) -1.492(51) 0.205(31)
Cd1_2 Cd 0.5000 -0.5000 0.5000
Cd1_3 Cd -0.5000 -1.5000 0.5000
I1A I 0.3422(2) -0.9998(3) 0.18421(13)
I1A_2 I 0.3422(2) -1.9998(3) 0.18421(13)
I1_2 I 0.6578(2) -2.0002(3) 0.81579(13)
N1A N -0.1792(18) -1.4993(37) 0.4986(19)
N1A_2 N 0.8208(18) -1.4993(37) 0.4986(19)
C1A C -0.1772(24) -1.5002(53) 0.3350(22)
C2A C 0.0090(25) -1.5114(53) 0.3315(27)
H1A H 0.090(17) -1.480(37) 0.8122(70)
H2A H 0.310(32) -1.508(51) 0.795(31)
loop_
_geom_bond_atom_site_label_1
_geom_bond_atom_site_label_2
_geom_bond_site_symmetry_1
_geom_bond_site_symmetry_2
Cd1 I1 1_555 1_555
I1 Cd1_2 1_555 1_555
N1 Cd1 1_555 1_555
C1 N1 1_555 1_555
C2 C1 1_555 1_555
H1 C2A 1_555 1_555
H2 C1A 1_555 1_555
Cd1_2 I1A 1_555 1_555
Cd1_3 N1A 1_555 1_555
I1A Cd1 1_555 1_555
I1A_2 Cd1 1_555 1_555
I1_2 Cd1 1_555 1_555
N1A C2 1_555 1_555
N1A_2 Cd1 1_555 1_555
C1A N1A 1_555 1_555
C2A N1 1_555 1_555
H1A C2 1_555 1_555
H2A C1 1_555 1_555
C1A C2A 1_555 1_555

#END
