
#######################################################################
#
#                 Cambridge Crystallographic Data Centre
#                                CCDC 
#
#######################################################################
#
# If this CIF has been generated from an entry in the Cambridge 
# Structural Database, then it will include bibliographic, chemical, 
# crystal, experimental, refinement or atomic coordinate data resulting 
# from the CCDC's data processing and validation procedures.
#
#######################################################################

data_RINSIQ01
_symmetry_cell_setting           orthorhombic
_symmetry_space_group_name_H-M   'C m m m'
_symmetry_Int_Tables_number      65
_space_group_name_Hall           '-C 2 2'
loop_
_symmetry_equiv_pos_site_id
_symmetry_equiv_pos_as_xyz
1 x,y,z
2 -x,-y,z
3 x,-y,-z
4 -x,y,-z
5 1/2+x,1/2+y,z
6 1/2-x,1/2-y,z
7 1/2+x,1/2-y,-z
8 1/2-x,1/2+y,-z
9 -x,-y,-z
10 x,y,-z
11 -x,y,z
12 x,-y,z
13 1/2-x,1/2-y,-z
14 1/2+x,1/2+y,-z
15 1/2-x,1/2+y,z
16 1/2+x,1/2-y,z
_cell_length_a                   7.558(2)
_cell_length_b                   12.575(4)
_cell_length_c                   3.889(1)
_cell_angle_alpha                90
_cell_angle_beta                 90
_cell_angle_gamma                90
_cell_volume                     369.618
loop_
_atom_site_label
_atom_site_type_symbol
_atom_site_fract_x
_atom_site_fract_y
_atom_site_fract_z
Cd1 Cd 0.00000 0.00000 -1.00000
Br1 Br 0.00000 -0.15486 -1.50000
N1 N -0.31536 0.00000 -2.00000
C1 C -0.40947 -0.08993 -2.00000
H1 H -0.34997 0.15466 -2.00000
Br1A Br 0.00000 0.15486 -1.50000
Cd1_2 Cd 0.00000 0.00000 -2.00000
Br1A_2 Br 0.00000 0.15486 -2.50000
Br1_2 Br 0.00000 -0.15486 -2.50000
C1C C -0.59053 -0.08993 -2.00000
N1A N -0.68464 0.00000 -2.00000
Cd1_3 Cd -1.00000 0.00000 -2.00000
C1A C -0.59053 0.08993 -2.00000
C1B C -0.40947 0.08993 -2.00000
H1C H -0.65003 0.15466 -2.00000
H1A H -0.65003 -0.15466 -2.00000
H1B H -0.34997 -0.15466 -2.00000
N1A_2 N 0.31536 0.00000 -2.00000
loop_
_geom_bond_atom_site_label_1
_geom_bond_atom_site_label_2
_geom_bond_site_symmetry_1
_geom_bond_site_symmetry_2
Cd1 Br1 1_555 1_555
Br1 Cd1_2 1_555 1_555
N1 C1 1_555 1_555
C1 C1C 1_555 1_555
H1 C1B 1_555 1_555
Br1A Cd1 1_555 1_555
Cd1_2 N1 1_555 1_555
Br1A_2 Cd1_2 1_555 1_555
Br1_2 Cd1_2 1_555 1_555
C1C N1A 1_555 1_555
N1A Cd1_3 1_555 1_555
C1A N1A 1_555 1_555
C1B N1 1_555 1_555
H1C C1A 1_555 1_555
H1A C1C 1_555 1_555
H1B C1 1_555 1_555
N1A_2 Cd1_2 1_555 1_555
Br1A Cd1_2 1_555 1_555
C1A C1B 1_555 1_555

#END
