
#######################################################################
#
#                 Cambridge Crystallographic Data Centre
#                                CCDC 
#
#######################################################################
#
# If this CIF has been generated from an entry in the Cambridge 
# Structural Database, then it will include bibliographic, chemical, 
# crystal, experimental, refinement or atomic coordinate data resulting 
# from the CCDC's data processing and validation procedures.
#
#######################################################################

data_RINSOW01
_symmetry_cell_setting           orthorhombic
_symmetry_space_group_name_H-M   'C m m m'
_symmetry_Int_Tables_number      65
_space_group_name_Hall           '-C 2 2'
loop_
_symmetry_equiv_pos_site_id
_symmetry_equiv_pos_as_xyz
1 x,y,z
2 -x,-y,z
3 x,-y,-z
4 -x,y,-z
5 1/2+x,1/2+y,z
6 1/2-x,1/2-y,z
7 1/2+x,1/2-y,-z
8 1/2-x,1/2+y,-z
9 -x,-y,-z
10 x,y,-z
11 -x,y,z
12 x,-y,z
13 1/2-x,1/2-y,-z
14 1/2+x,1/2+y,-z
15 1/2-x,1/2+y,z
16 1/2+x,1/2-y,z
_cell_length_a                   7.7403(60)
_cell_length_b                   13.4723(15)
_cell_length_c                   4.2304(44)
_cell_angle_alpha                90
_cell_angle_beta                 90
_cell_angle_gamma                90
_cell_volume                     441.145
loop_
_atom_site_label
_atom_site_type_symbol
_atom_site_fract_x
_atom_site_fract_y
_atom_site_fract_z
N1 N -0.31814 0.00000 0.50000
C1 C -0.40926 -0.08555 0.50000
H1 H -0.34461 -0.14525 0.50000
Cd1 Cd 0.00000 0.00000 0.50000
I1 I 0.00000 0.15792 0.00000
C1C C -0.59074 -0.08555 0.50000
N1C N -0.68186 0.00000 0.50000
C1A C -0.59074 0.08555 0.50000
C1B C -0.40926 0.08555 0.50000
N1A N 0.31814 0.00000 0.50000
Cd1_2 Cd 0.00000 0.00000 -0.50000
I1A I 0.00000 -0.15792 0.00000
I1_2 I 0.00000 0.15792 1.00000
I1A_2 I 0.00000 -0.15792 1.00000
H1B H -0.34461 0.14525 0.50000
H1A H -0.65539 0.14525 0.50000
Cd1C Cd -1.00000 0.00000 0.50000
H1C H -0.65539 -0.14525 0.50000
loop_
_geom_bond_atom_site_label_1
_geom_bond_atom_site_label_2
_geom_bond_site_symmetry_1
_geom_bond_site_symmetry_2
N1 C1 1_555 1_555
C1 H1 1_555 1_555
Cd1 N1 1_555 1_555
I1 Cd1 1_555 1_555
C1C C1 1_555 1_555
N1C C1C 1_555 1_555
C1A N1C 1_555 1_555
C1B N1 1_555 1_555
N1A Cd1 1_555 1_555
Cd1_2 I1 1_555 1_555
I1A Cd1 1_555 1_555
I1_2 Cd1 1_555 1_555
I1A_2 Cd1 1_555 1_555
H1B C1B 1_555 1_555
H1A C1A 1_555 1_555
Cd1C N1C 1_555 1_555
H1C C1C 1_555 1_555
C1A C1B 1_555 1_555
Cd1_2 I1A 1_555 1_555

#END
