
#######################################################################
#
#                 Cambridge Crystallographic Data Centre
#                                CCDC 
#
#######################################################################
#
# If this CIF has been generated from an entry in the Cambridge 
# Structural Database, then it will include bibliographic, chemical, 
# crystal, experimental, refinement or atomic coordinate data resulting 
# from the CCDC's data processing and validation procedures.
#
#######################################################################

data_RINVER
_symmetry_cell_setting           monoclinic
_symmetry_space_group_name_H-M   'P 21/c'
_symmetry_Int_Tables_number      14
_space_group_name_Hall           '-P 2ybc'
loop_
_symmetry_equiv_pos_site_id
_symmetry_equiv_pos_as_xyz
1 x,y,z
2 -x,1/2+y,1/2-z
3 -x,-y,-z
4 x,1/2-y,1/2+z
_cell_length_a                   12.652(3)
_cell_length_b                   7.2481(14)
_cell_length_c                   24.787(8)
_cell_angle_alpha                90
_cell_angle_beta                 105.32(3)
_cell_angle_gamma                90
_cell_volume                     2192.27
loop_
_atom_site_label
_atom_site_type_symbol
_atom_site_fract_x
_atom_site_fract_y
_atom_site_fract_z
Zn1 Zn 0.04092(5) -0.13985(9) 0.32148(2)
N1 N 0.1425(4) 0.0563(6) 0.36483(17)
N2 N 0.2412(4) 0.2536(6) 0.42480(17)
C1 C 0.1277(5) -0.4022(8) 0.2583(2)
C2 C 0.2204(5) -0.4689(7) 0.2349(2)
H1 H 0.1949 -0.5737 0.2106
H2 H 0.2802 -0.5111 0.2657
C3 C 0.2643(4) -0.3206(7) 0.2018(2)
C4 C 0.3302(5) -0.4165(7) 0.1660(2)
H3 H 0.2831 -0.5021 0.1405
H4 H 0.3895 -0.4866 0.1901
C5 C 0.3777(5) -0.2762(8) 0.1323(2)
H5 H 0.4193 -0.3408 0.1099
C6 C 0.2832(5) -0.1698(8) 0.0940(2)
H6 H 0.2372 -0.2548 0.0678
H7 H 0.3124 -0.0803 0.0726
C7 C 0.2137(5) -0.0697(7) 0.1270(2)
C8 C 0.1707(4) -0.2111(7) 0.1626(2)
H8 H 0.1295 -0.1470 0.1847
H9 H 0.1214 -0.2963 0.1380
C9 C 0.2917(5) 0.0630(7) 0.1683(2)
H10 H 0.3198 0.1552 0.1473
H11 H 0.2512 0.1264 0.1909
C10 C 0.3415(4) -0.1844(7) 0.2402(2)
H12 H 0.4018 -0.2515 0.2647
H13 H 0.3022 -0.1210 0.2635
C11 C 0.3871(5) -0.0419(8) 0.2063(3)
H14 H 0.4350 0.0448 0.2319
C12 C 0.4525(5) -0.1418(8) 0.1720(3)
H15 H 0.5127 -0.2084 0.1967
H16 H 0.4828 -0.0533 0.1508
C13 C 0.1205(5) 0.0360(8) 0.0868(2)
H17 H 0.1534 0.1314 0.0691
H18 H 0.0837 -0.0489 0.0577
C14 C 0.0341(5) 0.1259(9) 0.1098(2)
C15 C 0.2156(5) 0.1416(8) 0.3406(2)
H19 H 0.2222 0.1193 0.3047
C16 C 0.1591(4) 0.1288(7) 0.4154(2)
C17 C 0.0972(5) 0.0768(9) 0.4563(2)
H20 H 0.0391 -0.0062 0.4389
H21 H 0.0669 0.1856 0.4684
H22 H 0.1456 0.0174 0.4879
C18 C 0.2766(5) 0.2636(9) 0.3775(2)
H23 H 0.3319 0.3393 0.3717
C19 C 0.2722(4) 0.3779(8) 0.4730(2)
H24 H 0.2600 0.3158 0.5055
H25 H 0.2253 0.4859 0.4658
C20 C 0.3917(4) 0.4395(7) 0.4861(2)
C21 C 0.4725(5) 0.3346(7) 0.5222(2)
C22 C 0.4421(5) 0.1558(8) 0.5458(2)
H26 H 0.4171 0.1813 0.5783
H27 H 0.5051 0.0767 0.5558
H28 H 0.3848 0.0958 0.5181
C23 C 0.4182(4) 0.6043(7) 0.4636(2)
C24 C 0.3311(5) 0.7202(8) 0.4232(2)
H29 H 0.2643 0.6508 0.4116
H30 H 0.3563 0.7516 0.3911
H31 H 0.3180 0.8310 0.4417
O1 O 0.1484(3) -0.2721(5) 0.29298(14)
O2 O 0.0337(3) -0.4753(5) 0.24235(14)
O3 O 0.0658(3) 0.2534(6) 0.14533(16)
O4 O -0.0596(4) 0.0774(8) 0.0949(2)
N1B N 0.8575(4) 0.9437(6) 0.63517(17)
N2B N 0.7588(4) 0.7464(6) 0.57520(17)
C15B C 0.7844(5) 0.8584(8) 0.6594(2)
H19B H 0.7778 0.8807 0.6953
C16B C 0.8409(4) 0.8712(7) 0.5846(2)
C17B C 0.9028(5) 0.9232(9) 0.5437(2)
H20B H 0.9609 1.0062 0.5611
H21B H 0.9331 0.8144 0.5316
H22B H 0.8544 0.9826 0.5121
C18B C 0.7234(5) 0.7364(9) 0.6225(2)
H23B H 0.6681 0.6607 0.6283
C19B C 0.7278(4) 0.6221(8) 0.5270(2)
H24B H 0.7400 0.6842 0.4945
H25B H 0.7747 0.5141 0.5342
C20B C 0.6083(4) 0.5605(7) 0.5139(2)
C21B C 0.5275(5) 0.6654(7) 0.4778(2)
C22B C 0.5579(5) 0.8442(8) 0.4542(2)
H26B H 0.5829 0.8187 0.4217
H27B H 0.4949 0.9233 0.4442
H28B H 0.6152 0.9042 0.4819
C23B C 0.5818(4) 0.3957(7) 0.5364(2)
C24B C 0.6689(5) 0.2798(8) 0.5768(2)
H29B H 0.7357 0.3492 0.5884
H30B H 0.6437 0.2484 0.6089
H31B H 0.6820 0.1690 0.5583
Zn1B Zn 0.95908(5) 1.13985(9) 0.67852(2)
C1B C 0.8723(5) 1.4022(8) 0.7417(2)
C2B C 0.7796(5) 1.4689(7) 0.7651(2)
H1B H 0.8051 1.5737 0.7894
H2B H 0.7198 1.5111 0.7343
C3B C 0.7357(4) 1.3206(7) 0.7982(2)
C4B C 0.6698(5) 1.4165(7) 0.8340(2)
H3B H 0.7169 1.5021 0.8595
H4B H 0.6105 1.4866 0.8099
C5B C 0.6223(5) 1.2762(8) 0.8677(2)
H5B H 0.5807 1.3408 0.8901
C6B C 0.7168(5) 1.1698(8) 0.9060(2)
H6B H 0.7628 1.2548 0.9322
H7B H 0.6876 1.0803 0.9274
C7B C 0.7863(5) 1.0697(7) 0.8730(2)
C8B C 0.8293(4) 1.2111(7) 0.8374(2)
H8B H 0.8705 1.1470 0.8153
H9B H 0.8786 1.2963 0.8620
C9B C 0.7083(5) 0.9370(7) 0.8317(2)
H10B H 0.6802 0.8448 0.8527
H11B H 0.7488 0.8736 0.8091
C10B C 0.6585(4) 1.1844(7) 0.7598(2)
H12B H 0.5982 1.2515 0.7353
H13B H 0.6978 1.1210 0.7365
C11B C 0.6129(5) 1.0419(8) 0.7937(3)
H14B H 0.5650 0.9552 0.7681
C12B C 0.5475(5) 1.1418(8) 0.8280(3)
H15B H 0.4873 1.2084 0.8033
H16B H 0.5172 1.0533 0.8492
C13B C 0.8795(5) 0.9640(8) 0.9132(2)
H17B H 0.8466 0.8686 0.9309
H18B H 0.9163 1.0489 0.9423
C14B C 0.9659(5) 0.8741(9) 0.8902(2)
O1B O 0.8516(3) 1.2721(5) 0.70702(14)
O2B O 0.9663(3) 1.4753(5) 0.75765(14)
O3B O 0.9342(3) 0.7466(6) 0.85467(16)
O4B O 1.0596(4) 0.9226(8) 0.9051(2)
Zn1A Zn -0.04092(5) -0.63985(9) 0.17852(2)
Zn1A_2 Zn -0.04092(5) 0.36015(9) 0.17852(2)
Zn1C Zn 1.04092(5) 0.63985(9) 0.82148(2)
Zn1C_2 Zn 1.04092(5) 1.63985(9) 0.82148(2)
O2A O -0.0337(3) 0.0247(5) 0.25765(14)
O2C O 1.0337(3) 0.9753(5) 0.74235(14)
O3A O -0.0658(3) -0.2466(6) 0.35467(16)
O3C O 1.0658(3) 1.2466(6) 0.64533(16)
loop_
_geom_bond_atom_site_label_1
_geom_bond_atom_site_label_2
_geom_bond_site_symmetry_1
_geom_bond_site_symmetry_2
Zn1 N1 1_555 1_555
N1 C15 1_555 1_555
N2 C16 1_555 1_555
C1 C2 1_555 1_555
C2 H1 1_555 1_555
H2 C2 1_555 1_555
C3 C2 1_555 1_555
C4 C3 1_555 1_555
H3 C4 1_555 1_555
H4 C4 1_555 1_555
C5 C4 1_555 1_555
H5 C5 1_555 1_555
C6 C5 1_555 1_555
H6 C6 1_555 1_555
H7 C6 1_555 1_555
C7 C6 1_555 1_555
C8 C3 1_555 1_555
H8 C8 1_555 1_555
H9 C8 1_555 1_555
C9 C7 1_555 1_555
H10 C9 1_555 1_555
H11 C9 1_555 1_555
C10 C3 1_555 1_555
H12 C10 1_555 1_555
H13 C10 1_555 1_555
C11 C9 1_555 1_555
H14 C11 1_555 1_555
C12 C5 1_555 1_555
H15 C12 1_555 1_555
H16 C12 1_555 1_555
C13 C7 1_555 1_555
H17 C13 1_555 1_555
H18 C13 1_555 1_555
C14 C13 1_555 1_555
C15 H19 1_555 1_555
C16 N1 1_555 1_555
C17 C16 1_555 1_555
H20 C17 1_555 1_555
H21 C17 1_555 1_555
H22 C17 1_555 1_555
C18 N2 1_555 1_555
H23 C18 1_555 1_555
C19 N2 1_555 1_555
H24 C19 1_555 1_555
H25 C19 1_555 1_555
C20 C19 1_555 1_555
C21 C20 1_555 1_555
C22 C21 1_555 1_555
H26 C22 1_555 1_555
H27 C22 1_555 1_555
H28 C22 1_555 1_555
C23 C20 1_555 1_555
C24 C23 1_555 1_555
H29 C24 1_555 1_555
H30 C24 1_555 1_555
H31 C24 1_555 1_555
O1 Zn1 1_555 1_555
O2 C1 1_555 1_555
O3 C14 1_555 1_555
O4 C14 1_555 1_555
N1B C15B 1_555 1_555
N2B C16B 1_555 1_555
C15B H19B 1_555 1_555
C16B N1B 1_555 1_555
C17B C16B 1_555 1_555
H20B C17B 1_555 1_555
H21B C17B 1_555 1_555
H22B C17B 1_555 1_555
C18B N2B 1_555 1_555
H23B C18B 1_555 1_555
C19B N2B 1_555 1_555
H24B C19B 1_555 1_555
H25B C19B 1_555 1_555
C20B C19B 1_555 1_555
C21B C23 1_555 1_555
C22B C21B 1_555 1_555
H26B C22B 1_555 1_555
H27B C22B 1_555 1_555
H28B C22B 1_555 1_555
C23B C21 1_555 1_555
C24B C23B 1_555 1_555
H29B C24B 1_555 1_555
H30B C24B 1_555 1_555
H31B C24B 1_555 1_555
Zn1B N1B 1_555 1_555
C1B C2B 1_555 1_555
C2B H1B 1_555 1_555
H2B C2B 1_555 1_555
C3B C2B 1_555 1_555
C4B C3B 1_555 1_555
H3B C4B 1_555 1_555
H4B C4B 1_555 1_555
C5B C4B 1_555 1_555
H5B C5B 1_555 1_555
C6B C5B 1_555 1_555
H6B C6B 1_555 1_555
H7B C6B 1_555 1_555
C7B C6B 1_555 1_555
C8B C3B 1_555 1_555
H8B C8B 1_555 1_555
H9B C8B 1_555 1_555
C9B C7B 1_555 1_555
H10B C9B 1_555 1_555
H11B C9B 1_555 1_555
C10B C3B 1_555 1_555
H12B C10B 1_555 1_555
H13B C10B 1_555 1_555
C11B C9B 1_555 1_555
H14B C11B 1_555 1_555
C12B C5B 1_555 1_555
H15B C12B 1_555 1_555
H16B C12B 1_555 1_555
C13B C7B 1_555 1_555
H17B C13B 1_555 1_555
H18B C13B 1_555 1_555
C14B C13B 1_555 1_555
O1B Zn1B 1_555 1_555
O2B C1B 1_555 1_555
O3B C14B 1_555 1_555
O4B C14B 1_555 1_555
Zn1A O2 1_555 1_555
Zn1A_2 O3 1_555 1_555
Zn1C O3B 1_555 1_555
Zn1C_2 O2B 1_555 1_555
O2A Zn1 1_555 1_555
O2C Zn1B 1_555 1_555
O3A Zn1 1_555 1_555
O3C Zn1B 1_555 1_555
C1 O1 1_555 1_555
C7 C8 1_555 1_555
C10 C11 1_555 1_555
C11 C12 1_555 1_555
C15 C18 1_555 1_555
C15B C18B 1_555 1_555
C20B C21B 1_555 1_555
C20B C23B 1_555 1_555
C1B O1B 1_555 1_555
C7B C8B 1_555 1_555
C10B C11B 1_555 1_555
C11B C12B 1_555 1_555

#END
