
#######################################################################
#
#                 Cambridge Crystallographic Data Centre
#                                CCDC 
#
#######################################################################
#
# If this CIF has been generated from an entry in the Cambridge 
# Structural Database, then it will include bibliographic, chemical, 
# crystal, experimental, refinement or atomic coordinate data resulting 
# from the CCDC's data processing and validation procedures.
#
#######################################################################

data_RINVUH
_symmetry_cell_setting           monoclinic
_symmetry_space_group_name_H-M   'P 21/c'
_symmetry_Int_Tables_number      14
_space_group_name_Hall           '-P 2ybc'
loop_
_symmetry_equiv_pos_site_id
_symmetry_equiv_pos_as_xyz
1 x,y,z
2 -x,1/2+y,1/2-z
3 -x,-y,-z
4 x,1/2-y,1/2+z
_cell_length_a                   7.3768(15)
_cell_length_b                   15.147(3)
_cell_length_c                   15.592(3)
_cell_angle_alpha                90
_cell_angle_beta                 103.43(3)
_cell_angle_gamma                90
_cell_volume                     1694.55
loop_
_atom_site_label
_atom_site_type_symbol
_atom_site_fract_x
_atom_site_fract_y
_atom_site_fract_z
O1 O 1.0535(9) 0.4437(4) 0.5741(4)
O2 O 0.9992(10) 0.3316(5) 0.4831(5)
C1 C 0.9873(12) 0.3684(7) 0.5526(6)
C2 C 0.9072(13) 0.3194(6) 0.6199(6)
C3 C 1.0319(15) 0.2777(8) 0.6873(8)
C4 C 0.9715(17) 0.2351(8) 0.7549(7)
Zn1 Zn 0.20343(10) 0.44746(5) 0.45785(4)
N1 N 0.2629(12) 0.4494(6) 0.3216(5)
N2 N 0.2712(12) 0.4899(7) 0.1884(5)
C5 C 0.4355(17) 0.4374(9) 0.3122(7)
H1 H 0.5352 0.4164 0.3553
C6 C 0.4417(18) 0.4607(13) 0.2290(8)
H2 H 0.5450 0.4572 0.2045
C7 C 0.1636(13) 0.4799(7) 0.2457(6)
C8 C -0.0439(15) 0.5010(10) 0.2227(8)
H3 H -0.1045 0.4678 0.1717
H4 H -0.0614 0.5630 0.2106
H5 H -0.0967 0.4856 0.2715
C9 C 0.2133(18) 0.5270(9) 0.0972(8)
H6 H 0.0985 0.4990 0.0662
H7 H 0.1899 0.5898 0.1005
C10 C 0.3599(18) 0.5126(9) 0.0475(7)
C11 C 0.3734(17) 0.4302(7) 0.0044(7)
C12 C 0.2432(19) 0.3595(9) 0.0153(10)
H8 H 0.1507 0.3520 -0.0388
H9 H 0.1835 0.3751 0.0617
H10 H 0.3107 0.3053 0.0301
C13 C 0.4896(16) 0.5821(8) 0.0417(7)
C14 C 0.479(3) 0.6684(12) 0.0867(12)
H11 H 0.5983 0.6815 0.1249
H12 H 0.3867 0.6650 0.1209
H13 H 0.4463 0.7143 0.0434
C15 C 0.5825(12) 0.3705(6) 0.5532(6)
C16 C 0.7157(13) 0.3207(7) 0.6219(6)
C17 C 0.6577(16) 0.2755(8) 0.6868(8)
H14 H 0.5309 0.2721 0.6849
C18 C 0.7834(18) 0.2349(8) 0.7552(8)
H15 H 0.7424 0.2077 0.8008
H16 H 1.1589 0.2782 0.6879
H17 H 1.0568 0.2059 0.7993
O3 O 0.4056(10) 0.3547(5) 0.5440(6)
O4 O 0.6395(10) 0.4249(4) 0.5038(4)
N1B N 0.7371(12) 0.5506(6) -0.3216(5)
N2B N 0.7288(12) 0.5101(7) -0.1884(5)
C5B C 0.5645(17) 0.5626(9) -0.3122(7)
H1B H 0.4648 0.5836 -0.3553
C6B C 0.5583(18) 0.5393(13) -0.2290(8)
H2B H 0.4550 0.5428 -0.2045
C7B C 0.8364(13) 0.5201(7) -0.2457(6)
C8B C 1.0439(15) 0.4990(10) -0.2227(8)
H3B H 1.1045 0.5322 -0.1717
H4B H 1.0614 0.4370 -0.2106
H5B H 1.0967 0.5144 -0.2715
C9B C 0.7867(18) 0.4730(9) -0.0972(8)
H6B H 0.9015 0.5010 -0.0662
H7B H 0.8101 0.4102 -0.1005
C10B C 0.6401(18) 0.4874(9) -0.0475(7)
C11B C 0.6266(17) 0.5698(7) -0.0044(7)
C12B C 0.7568(19) 0.6405(9) -0.0153(10)
H8B H 0.8493 0.6480 0.0388
H9B H 0.8165 0.6249 -0.0617
H10B H 0.6893 0.6947 -0.0301
C13B C 0.5104(16) 0.4179(8) -0.0417(7)
C14B C 0.521(3) 0.3316(12) -0.0867(12)
H11B H 0.4017 0.3185 -0.1249
H12B H 0.6133 0.3350 -0.1209
H13B H 0.5537 0.2857 -0.0434
O1B O -0.0535(9) 0.5563(4) -0.5741(4)
O2B O 0.0008(10) 0.6684(5) -0.4831(5)
C1B C 0.0127(12) 0.6316(7) -0.5526(6)
C2B C 0.0928(13) 0.6806(6) -0.6199(6)
C3B C -0.0319(15) 0.7223(8) -0.6873(8)
C4B C 0.0285(17) 0.7649(8) -0.7549(7)
Zn1B Zn 0.79657(10) 0.55254(5) -0.45785(4)
C15B C 0.4175(12) 0.6295(6) -0.5532(6)
C16B C 0.2843(13) 0.6793(7) -0.6219(6)
C17B C 0.3423(16) 0.7245(8) -0.6868(8)
H14B H 0.4691 0.7279 -0.6849
C18B C 0.2166(18) 0.7651(8) -0.7552(8)
H15B H 0.2576 0.7923 -0.8008
H16B H -0.1589 0.7218 -0.6879
H17B H -0.0568 0.7941 -0.7993
O3B O 0.5944(10) 0.6453(5) -0.5440(6)
O4B O 0.3605(10) 0.5751(4) -0.5038(4)
O1_2 O 0.0535(9) 0.4437(4) 0.5741(4)
O1_3 O 1.0535(9) 0.4437(4) -0.4259(4)
O1B_2 O -0.0535(9) 0.5563(4) 0.4259(4)
O1B_3 O 0.9465(9) 0.5563(4) -0.5741(4)
O2_2 O -0.0008(10) 0.3316(5) 0.4831(5)
O2B_2 O 1.0008(10) 0.6684(5) -0.4831(5)
Zn1_2 Zn 0.20343(10) 0.44746(5) -0.54215(4)
Zn1_3 Zn 1.20343(10) 0.44746(5) 0.45785(4)
Zn1B_2 Zn -0.20343(10) 0.55254(5) -0.45785(4)
Zn1B_3 Zn 0.79657(10) 0.55254(5) 0.54215(4)
O4_2 O 0.6395(10) 0.4249(4) -0.4962(4)
O4B_2 O 0.3605(10) 0.5751(4) 0.4962(4)
loop_
_geom_bond_atom_site_label_1
_geom_bond_atom_site_label_2
_geom_bond_site_symmetry_1
_geom_bond_site_symmetry_2
O1 C1 1_555 1_555
O2 C1 1_555 1_555
C1 C2 1_555 1_555
C2 C3 1_555 1_555
C3 C4 1_555 1_555
C4 C18 1_555 1_555
Zn1 N1 1_555 1_555
N1 C5 1_555 1_555
N2 C6 1_555 1_555
C5 H1 1_555 1_555
C6 C5 1_555 1_555
H2 C6 1_555 1_555
C7 N1 1_555 1_555
C8 C7 1_555 1_555
H3 C8 1_555 1_555
H4 C8 1_555 1_555
H5 C8 1_555 1_555
C9 N2 1_555 1_555
H6 C9 1_555 1_555
H7 C9 1_555 1_555
C10 C9 1_555 1_555
C11 C10 1_555 1_555
C12 C11 1_555 1_555
H8 C12 1_555 1_555
H9 C12 1_555 1_555
H10 C12 1_555 1_555
C13 C10 1_555 1_555
C14 C13 1_555 1_555
H11 C14 1_555 1_555
H12 C14 1_555 1_555
H13 C14 1_555 1_555
C15 C16 1_555 1_555
C16 C2 1_555 1_555
C17 C16 1_555 1_555
H14 C17 1_555 1_555
C18 C17 1_555 1_555
H15 C18 1_555 1_555
H16 C3 1_555 1_555
H17 C4 1_555 1_555
O3 Zn1 1_555 1_555
O4 C15 1_555 1_555
N1B C5B 1_555 1_555
N2B C6B 1_555 1_555
C5B H1B 1_555 1_555
C6B C5B 1_555 1_555
H2B C6B 1_555 1_555
C7B N1B 1_555 1_555
C8B C7B 1_555 1_555
H3B C8B 1_555 1_555
H4B C8B 1_555 1_555
H5B C8B 1_555 1_555
C9B N2B 1_555 1_555
H6B C9B 1_555 1_555
H7B C9B 1_555 1_555
C10B C9B 1_555 1_555
C11B C13 1_555 1_555
C12B C11B 1_555 1_555
H8B C12B 1_555 1_555
H9B C12B 1_555 1_555
H10B C12B 1_555 1_555
C13B C11 1_555 1_555
C14B C13B 1_555 1_555
H11B C14B 1_555 1_555
H12B C14B 1_555 1_555
H13B C14B 1_555 1_555
O1B C1B 1_555 1_555
O2B C1B 1_555 1_555
C1B C2B 1_555 1_555
C2B C3B 1_555 1_555
C3B C4B 1_555 1_555
C4B C18B 1_555 1_555
Zn1B N1B 1_555 1_555
C15B C16B 1_555 1_555
C16B C2B 1_555 1_555
C17B C16B 1_555 1_555
H14B C17B 1_555 1_555
C18B C17B 1_555 1_555
H15B C18B 1_555 1_555
H16B C3B 1_555 1_555
H17B C4B 1_555 1_555
O3B Zn1B 1_555 1_555
O4B C15B 1_555 1_555
O1_2 Zn1 1_555 1_555
O1_3 Zn1B 1_555 1_555
O1B_2 Zn1 1_555 1_555
O1B_3 Zn1B 1_555 1_555
O2_2 Zn1 1_555 1_555
O2B_2 Zn1B 1_555 1_555
Zn1_2 O1B 1_555 1_555
Zn1_3 O1 1_555 1_555
Zn1B_2 O1B 1_555 1_555
Zn1B_3 O1 1_555 1_555
O4_2 Zn1B 1_555 1_555
O4B_2 Zn1 1_555 1_555
O2 Zn1_3 1_555 1_555
N2 C7 1_555 1_555
C15 O3 1_555 1_555
O4 Zn1B_3 1_555 1_555
N2B C7B 1_555 1_555
C10B C11B 1_555 1_555
C10B C13B 1_555 1_555
O2B Zn1B_2 1_555 1_555
C15B O3B 1_555 1_555
O4B Zn1_2 1_555 1_555

#END
