
#######################################################################
#
#                 Cambridge Crystallographic Data Centre
#                                CCDC 
#
#######################################################################
#
# If this CIF has been generated from an entry in the Cambridge 
# Structural Database, then it will include bibliographic, chemical, 
# crystal, experimental, refinement or atomic coordinate data resulting 
# from the CCDC's data processing and validation procedures.
#
#######################################################################

data_RINWAO
_symmetry_cell_setting           monoclinic
_symmetry_space_group_name_H-M   'P 21/c'
_symmetry_Int_Tables_number      14
_space_group_name_Hall           '-P 2ybc'
loop_
_symmetry_equiv_pos_site_id
_symmetry_equiv_pos_as_xyz
1 x,y,z
2 -x,1/2+y,1/2-z
3 -x,-y,-z
4 x,1/2-y,1/2+z
_cell_length_a                   11.435(2)
_cell_length_b                   16.319(3)
_cell_length_c                   15.161(3)
_cell_angle_alpha                90
_cell_angle_beta                 92.97(3)
_cell_angle_gamma                90
_cell_volume                     2825.36
loop_
_atom_site_label
_atom_site_type_symbol
_atom_site_fract_x
_atom_site_fract_y
_atom_site_fract_z
Zn1 Zn 0.35498(4) 0.46302(3) 0.56978(3)
N1 N 0.3725(3) 0.33957(19) 0.5650(2)
N2 N 0.4349(3) 0.2134(2) 0.5821(2)
N3 N 0.2656(3) 0.4758(2) 0.6808(2)
N4 N 0.1290(3) 0.4805(2) 0.7772(2)
C1 C 0.2846(4) 0.2863(3) 0.5373(3)
H1 H 0.2107 0.3018 0.5150
C2 C 0.3215(4) 0.2087(3) 0.5471(3)
H2 H 0.2791 0.1613 0.5332
C3 C 0.4620(3) 0.2930(2) 0.5919(3)
C4 C 0.5769(4) 0.3241(3) 0.6286(4)
H3 H 0.6363 0.3127 0.5878
H4 H 0.5965 0.2975 0.6839
H5 H 0.5720 0.3822 0.6378
C5 C 0.5081(4) 0.1436(3) 0.6129(3)
H6 H 0.4849 0.1274 0.6710
H7 H 0.5891 0.1615 0.6188
C6 C 0.5003(4) 0.0697(2) 0.5526(3)
C7 C 0.4242(4) 0.0055(3) 0.5697(3)
C8 C 0.3395(4) 0.0109(3) 0.6434(3)
H8 H 0.2631 -0.0064 0.6216
H9 H 0.3357 0.0665 0.6638
H10 H 0.3660 -0.0239 0.6913
C9 C 0.5741(4) 0.0654(3) 0.4814(3)
C10 C 0.6541(4) 0.1370(3) 0.4611(4)
H11 H 0.7260 0.1325 0.4963
H12 H 0.6161 0.1876 0.4745
H13 H 0.6706 0.1361 0.3997
C11 C 0.3166(4) 0.4870(3) 0.7646(3)
H14 H 0.3965 0.4919 0.7780
C12 C 0.2332(4) 0.4898(3) 0.8237(3)
H15 H 0.2444 0.4967 0.8844
C13 C 0.1511(3) 0.4726(2) 0.6906(3)
C14 C 0.0612(4) 0.4627(4) 0.6188(3)
H16 H 0.0981 0.4568 0.5637
H17 H 0.0114 0.5101 0.6162
H18 H 0.0152 0.4149 0.6294
C15 C 0.0095(4) 0.4816(3) 0.8106(3)
H19 H -0.0300 0.4310 0.7937
H20 H -0.0342 0.5265 0.7828
C16 C 0.0090(3) 0.4913(3) 0.9101(3)
C17 C 0.0070(4) 0.5697(3) 0.9462(3)
C18 C 0.0182(5) 0.6446(3) 0.8884(4)
H21 H -0.0573 0.6696 0.8784
H22 H 0.0481 0.6287 0.8330
H23 H 0.0709 0.6830 0.9174
C19 C -0.0035(4) 0.5781(3) 1.0373(3)
C20 C -0.0094(5) 0.6631(3) 1.0773(4)
H24 H -0.0674 0.6639 1.1209
H25 H -0.0300 0.7021 1.0318
H26 H 0.0656 0.6771 1.1047
C21 C 0.4933(4) 0.5947(3) 0.6161(3)
C22 C 0.6029(4) 0.6392(2) 0.6462(3)
C23 C 0.5931(5) 0.7184(3) 0.6793(3)
H27 H 0.5197 0.7429 0.6795
C24 C 0.6891(6) 0.7610(3) 0.7115(3)
H28 H 0.6804 0.8136 0.7336
C25 C 0.7970(5) 0.7264(3) 0.7113(3)
H29 H 0.8621 0.7552 0.7338
C26 C 0.8101(4) 0.6482(3) 0.6774(3)
H30 H 0.8846 0.6255 0.6765
C27 C 0.7146(4) 0.6030(3) 0.6450(2)
C28 C 0.7410(3) 0.5175(3) 0.6154(3)
O1 O 0.5034(2) 0.51871(17) 0.59861(19)
O2 O 0.3991(3) 0.6311(2) 0.6112(3)
O3 O 0.7712(3) 0.46742(17) 0.67252(19)
O4 O 0.7413(2) 0.50139(17) 0.53262(18)
N1B N 0.6275(3) -0.33957(19) 0.4350(2)
N2B N 0.5651(3) -0.2134(2) 0.4179(2)
C1B C 0.7154(4) -0.2863(3) 0.4627(3)
H1B H 0.7893 -0.3018 0.4850
C2B C 0.6785(4) -0.2087(3) 0.4529(3)
H2B H 0.7209 -0.1613 0.4668
C3B C 0.5380(3) -0.2930(2) 0.4081(3)
C4B C 0.4231(4) -0.3241(3) 0.3714(4)
H3B H 0.3637 -0.3127 0.4122
H4B H 0.4035 -0.2975 0.3161
H5B H 0.4280 -0.3822 0.3622
C5B C 0.4919(4) -0.1436(3) 0.3871(3)
H6B H 0.5151 -0.1274 0.3290
H7B H 0.4109 -0.1615 0.3812
C6B C 0.4997(4) -0.0697(2) 0.4474(3)
C7B C 0.5758(4) -0.0055(3) 0.4303(3)
C8B C 0.6605(4) -0.0109(3) 0.3566(3)
H8B H 0.7369 0.0064 0.3784
H9B H 0.6643 -0.0665 0.3362
H10B H 0.6340 0.0239 0.3087
C9B C 0.4259(4) -0.0654(3) 0.5186(3)
C10B C 0.3459(4) -0.1370(3) 0.5389(4)
H11B H 0.2740 -0.1325 0.5037
H12B H 0.3839 -0.1876 0.5255
H13B H 0.3294 -0.1361 0.6003
N3B N -0.2656(3) 0.5242(2) 1.3192(2)
N4B N -0.1290(3) 0.5195(2) 1.2228(2)
C11B C -0.3166(4) 0.5130(3) 1.2354(3)
H14B H -0.3965 0.5081 1.2220
C12B C -0.2332(4) 0.5102(3) 1.1763(3)
H15B H -0.2444 0.5033 1.1156
C13B C -0.1511(3) 0.5274(2) 1.3094(3)
C14B C -0.0612(4) 0.5373(4) 1.3812(3)
H16B H -0.0981 0.5432 1.4363
H17B H -0.0114 0.4899 1.3838
H18B H -0.0152 0.5851 1.3706
C15B C -0.0095(4) 0.5184(3) 1.1894(3)
H19B H 0.0300 0.5690 1.2063
H20B H 0.0342 0.4735 1.2172
C16B C -0.0090(3) 0.5087(3) 1.0899(3)
C17B C -0.0070(4) 0.4303(3) 1.0538(3)
C18B C -0.0182(5) 0.3554(3) 1.1116(4)
H21B H 0.0573 0.3304 1.1216
H22B H -0.0481 0.3713 1.1670
H23B H -0.0709 0.3170 1.0826
C19B C 0.0035(4) 0.4219(3) 0.9627(3)
C20B C 0.0094(5) 0.3369(3) 0.9227(4)
H24B H 0.0674 0.3361 0.8791
H25B H 0.0300 0.2979 0.9682
H26B H -0.0656 0.3229 0.8953
Zn1B Zn -0.35498(4) 0.53698(3) 1.43022(3)
C21B C -0.4933(4) 0.4053(3) 1.3839(3)
C22B C -0.6029(4) 0.3608(2) 1.3538(3)
C23B C -0.5931(5) 0.2816(3) 1.3207(3)
H27B H -0.5197 0.2571 1.3205
C24B C -0.6891(6) 0.2390(3) 1.2885(3)
H28B H -0.6804 0.1864 1.2664
C25B C -0.7970(5) 0.2736(3) 1.2887(3)
H29B H -0.8621 0.2448 1.2662
C26B C -0.8101(4) 0.3518(3) 1.3226(3)
H30B H -0.8846 0.3745 1.3235
C27B C -0.7146(4) 0.3970(3) 1.3550(2)
C28B C -0.7410(3) 0.4825(3) 1.3846(3)
O1B O -0.5034(2) 0.48129(17) 1.40139(19)
O2B O -0.3991(3) 0.3689(2) 1.3888(3)
O3B O -0.7712(3) 0.53258(17) 1.32748(19)
O4B O -0.7413(2) 0.49861(17) 1.46738(18)
Zn1_2 Zn -0.64502(4) 0.46302(3) 1.56978(3)
Zn1B_2 Zn 0.64502(4) -0.46302(3) 0.43022(3)
Zn1B_3 Zn 0.64502(4) 0.53698(3) 0.43022(3)
N1B_2 N -0.3725(3) 0.66043(19) 1.4350(2)
O4_2 O -0.2587(2) 0.50139(17) 1.53262(18)
O4B_2 O 0.2587(2) 0.49861(17) 0.46738(18)
O5 O 0.1429(5) 0.6609(3) 0.4880(3)
H31 H 0.188(4) 0.688(4) 0.524(3)
H32 H 0.094(4) 0.635(4) 0.519(3)
O6 O 0.1759(4) 0.6787(3) 0.6771(4)
H33 H 0.245(2) 0.658(3) 0.683(4)
H34 H 0.180(5) 0.7270(17) 0.699(4)
O7 O 0.8597(4) 0.3096(2) 0.7013(3)
H35 H 0.820(5) 0.354(2) 0.704(4)
H36 H 0.870(6) 0.300(4) 0.6470(13)
loop_
_geom_bond_atom_site_label_1
_geom_bond_atom_site_label_2
_geom_bond_site_symmetry_1
_geom_bond_site_symmetry_2
Zn1 N1 1_555 1_555
N1 C1 1_555 1_555
N2 C2 1_555 1_555
N3 Zn1 1_555 1_555
N4 C12 1_555 1_555
C1 H1 1_555 1_555
C2 C1 1_555 1_555
H2 C2 1_555 1_555
C3 N1 1_555 1_555
C4 C3 1_555 1_555
H3 C4 1_555 1_555
H4 C4 1_555 1_555
H5 C4 1_555 1_555
C5 N2 1_555 1_555
H6 C5 1_555 1_555
H7 C5 1_555 1_555
C6 C5 1_555 1_555
C7 C6 1_555 1_555
C8 C7 1_555 1_555
H8 C8 1_555 1_555
H9 C8 1_555 1_555
H10 C8 1_555 1_555
C9 C6 1_555 1_555
C10 C9 1_555 1_555
H11 C10 1_555 1_555
H12 C10 1_555 1_555
H13 C10 1_555 1_555
C11 N3 1_555 1_555
H14 C11 1_555 1_555
C12 C11 1_555 1_555
H15 C12 1_555 1_555
C13 N3 1_555 1_555
C14 C13 1_555 1_555
H16 C14 1_555 1_555
H17 C14 1_555 1_555
H18 C14 1_555 1_555
C15 N4 1_555 1_555
H19 C15 1_555 1_555
H20 C15 1_555 1_555
C16 C15 1_555 1_555
C17 C16 1_555 1_555
C18 C17 1_555 1_555
H21 C18 1_555 1_555
H22 C18 1_555 1_555
H23 C18 1_555 1_555
C19 C17 1_555 1_555
C20 C19 1_555 1_555
H24 C20 1_555 1_555
H25 C20 1_555 1_555
H26 C20 1_555 1_555
C21 C22 1_555 1_555
C22 C23 1_555 1_555
C23 H27 1_555 1_555
C24 C23 1_555 1_555
H28 C24 1_555 1_555
C25 C24 1_555 1_555
H29 C25 1_555 1_555
C26 C25 1_555 1_555
H30 C26 1_555 1_555
C27 C22 1_555 1_555
C28 C27 1_555 1_555
O1 Zn1 1_555 1_555
O2 C21 1_555 1_555
O3 C28 1_555 1_555
O4 C28 1_555 1_555
O5 H31 1_555 1_555
H32 O5 1_555 1_555
O6 H33 1_555 1_555
H34 O6 1_555 1_555
O7 H35 1_555 1_555
H36 O7 1_555 1_555
N1B C1B 1_555 1_555
N2B C2B 1_555 1_555
C1B H1B 1_555 1_555
C2B C1B 1_555 1_555
H2B C2B 1_555 1_555
C3B N1B 1_555 1_555
C4B C3B 1_555 1_555
H3B C4B 1_555 1_555
H4B C4B 1_555 1_555
H5B C4B 1_555 1_555
C5B N2B 1_555 1_555
H6B C5B 1_555 1_555
H7B C5B 1_555 1_555
C6B C5B 1_555 1_555
C7B C9 1_555 1_555
C8B C7B 1_555 1_555
H8B C8B 1_555 1_555
H9B C8B 1_555 1_555
H10B C8B 1_555 1_555
C9B C7 1_555 1_555
C10B C9B 1_555 1_555
H11B C10B 1_555 1_555
H12B C10B 1_555 1_555
H13B C10B 1_555 1_555
N3B C11B 1_555 1_555
N4B C12B 1_555 1_555
C11B H14B 1_555 1_555
C12B C11B 1_555 1_555
H15B C12B 1_555 1_555
C13B N3B 1_555 1_555
C14B C13B 1_555 1_555
H16B C14B 1_555 1_555
H17B C14B 1_555 1_555
H18B C14B 1_555 1_555
C15B N4B 1_555 1_555
H19B C15B 1_555 1_555
H20B C15B 1_555 1_555
C16B C19 1_555 1_555
C17B C16B 1_555 1_555
C18B C17B 1_555 1_555
H21B C18B 1_555 1_555
H22B C18B 1_555 1_555
H23B C18B 1_555 1_555
C19B C16 1_555 1_555
C20B C19B 1_555 1_555
H24B C20B 1_555 1_555
H25B C20B 1_555 1_555
H26B C20B 1_555 1_555
Zn1B N3B 1_555 1_555
C21B C22B 1_555 1_555
C22B C23B 1_555 1_555
C23B H27B 1_555 1_555
C24B C23B 1_555 1_555
H28B C24B 1_555 1_555
C25B C24B 1_555 1_555
H29B C25B 1_555 1_555
C26B C25B 1_555 1_555
H30B C26B 1_555 1_555
C27B C22B 1_555 1_555
C28B C27B 1_555 1_555
O1B Zn1B 1_555 1_555
O2B C21B 1_555 1_555
O3B C28B 1_555 1_555
O4B C28B 1_555 1_555
Zn1_2 O4B 1_555 1_555
Zn1B_2 N1B 1_555 1_555
Zn1B_3 O4 1_555 1_555
N1B_2 Zn1B 1_555 1_555
O4_2 Zn1B 1_555 1_555
O4B_2 Zn1 1_555 1_555
N2 C3 1_555 1_555
N4 C13 1_555 1_555
C21 O1 1_555 1_555
C26 C27 1_555 1_555
N2B C3B 1_555 1_555
C6B C7B 1_555 1_555
C6B C9B 1_555 1_555
N4B C13B 1_555 1_555
C15B C16B 1_555 1_555
C17B C19B 1_555 1_555
C21B O1B 1_555 1_555
C26B C27B 1_555 1_555

#END
