
#######################################################################
#
#                 Cambridge Crystallographic Data Centre
#                                CCDC 
#
#######################################################################
#
# If this CIF has been generated from an entry in the Cambridge 
# Structural Database, then it will include bibliographic, chemical, 
# crystal, experimental, refinement or atomic coordinate data resulting 
# from the CCDC's data processing and validation procedures.
#
#######################################################################

data_RIPBUP
_symmetry_cell_setting           monoclinic
_symmetry_space_group_name_H-M   'P 21/c'
_symmetry_Int_Tables_number      14
_space_group_name_Hall           '-P 2ybc'
loop_
_symmetry_equiv_pos_site_id
_symmetry_equiv_pos_as_xyz
1 x,y,z
2 -x,1/2+y,1/2-z
3 -x,-y,-z
4 x,1/2-y,1/2+z
_cell_length_a                   4.0623(12)
_cell_length_b                   25.842(8)
_cell_length_c                   15.761(5)
_cell_angle_alpha                90
_cell_angle_beta                 98.332(16)
_cell_angle_gamma                90
_cell_volume                     1637.09
loop_
_atom_site_label
_atom_site_type_symbol
_atom_site_fract_x
_atom_site_fract_y
_atom_site_fract_z
Mo1 Mo 0.32608(15) 0.22646(2) 0.89514(4)
O1 O 0.3014(13) 0.22328(18) 1.0141(3)
O2 O 0.1658(13) 0.19844(19) 0.7796(3)
O3 O -0.2568(13) 0.2203(2) 0.8953(4)
O4 O 0.2395(14) 0.2895(2) 0.8751(3)
N1 N 0.2121(15) 0.1427(2) 0.9101(4)
N2 N 0.0625(16) 0.1189(2) 0.8351(4)
C1 C 0.4064(17) 0.1881(3) 1.0751(5)
C2 C 0.546(2) 0.2096(3) 1.1548(6)
C3 C 0.662(2) 0.1784(3) 1.2206(5)
C4 C 0.6460(19) 0.1247(3) 1.2126(5)
C5 C 0.787(2) 0.0929(4) 1.2817(6)
C6 C 0.785(3) 0.0413(4) 1.2749(6)
H1 H 0.8747 0.0211 1.3214
C7 C 0.649(2) 0.0179(3) 1.1988(6)
H2 H 0.6521 -0.0179 1.1941
C8 C 0.508(2) 0.0472(3) 1.1300(5)
C9 C 0.4977(17) 0.1015(3) 1.1340(5)
C10 C 0.3692(17) 0.1356(3) 1.0625(5)
C11 C 0.1990(17) 0.1160(2) 0.9803(5)
C12 C 0.0580(18) 0.1507(3) 0.7713(5)
C13 C -0.0821(19) 0.1336(3) 0.6833(5)
C14 C -0.239(2) 0.0864(3) 0.6702(6)
C15 C -0.373(2) 0.0704(4) 0.5898(6)
C16 C -0.344(3) 0.1015(4) 0.5188(6)
C17 C -0.184(3) 0.1481(4) 0.5308(6)
C18 C -0.054(2) 0.1644(3) 0.6130(5)
C19 C 0.000(2) 0.0668(3) 0.9728(6)
H3 H 0.55(2) 0.246(4) 1.164(6)
H4 H -0.20(2) 0.073(3) 0.927(6)
H5 H -0.47(2) 0.035(4) 0.584(6)
H6 H 0.05(2) 0.194(3) 0.625(5)
H7 H 0.78(2) 0.194(3) 1.275(6)
H8 H 0.44(2) 0.029(4) 1.077(7)
H9 H 0.13(2) 0.040(3) 0.950(6)
H10 H -0.249(19) 0.067(3) 0.724(5)
H11 H -0.45(3) 0.091(4) 0.463(7)
H12 H -0.06(2) 0.058(3) 1.025(6)
H13 H 0.89(2) 0.112(3) 1.323(6)
H14 H -0.15(2) 0.167(4) 0.487(7)
Mo1_2 Mo -0.67392(15) 0.22646(2) 0.89514(4)
O3_2 O 0.7432(13) 0.2203(2) 0.8953(4)
loop_
_geom_bond_atom_site_label_1
_geom_bond_atom_site_label_2
_geom_bond_site_symmetry_1
_geom_bond_site_symmetry_2
Mo1 O1 1_555 1_555
O1 C1 1_555 1_555
O2 Mo1 1_555 1_555
O3 Mo1 1_555 1_555
O4 Mo1 1_555 1_555
N1 Mo1 1_555 1_555
N2 N1 1_555 1_555
C1 C2 1_555 1_555
C2 C3 1_555 1_555
C3 C4 1_555 1_555
C4 C5 1_555 1_555
C5 C6 1_555 1_555
C6 H1 1_555 1_555
C7 C6 1_555 1_555
H2 C7 1_555 1_555
C8 C7 1_555 1_555
C9 C4 1_555 1_555
C10 C1 1_555 1_555
C11 N1 1_555 1_555
C12 O2 1_555 1_555
C13 C12 1_555 1_555
C14 C13 1_555 1_555
C15 C14 1_555 1_555
C16 C15 1_555 1_555
C17 C16 1_555 1_555
C18 C13 1_555 1_555
C19 C11 1_555 1_555
H3 C2 1_555 1_555
H4 C19 1_555 1_555
H5 C15 1_555 1_555
H6 C18 1_555 1_555
H7 C3 1_555 1_555
H8 C8 1_555 1_555
H9 C19 1_555 1_555
H10 C14 1_555 1_555
H11 C16 1_555 1_555
H12 C19 1_555 1_555
H13 C5 1_555 1_555
H14 C17 1_555 1_555
Mo1_2 O3 1_555 1_555
O3_2 Mo1 1_555 1_555
N2 C12 1_555 1_555
C8 C9 1_555 1_555
C9 C10 1_555 1_555
C10 C11 1_555 1_555
C17 C18 1_555 1_555

#END
