
#######################################################################
#
#                 Cambridge Crystallographic Data Centre
#                                CCDC 
#
#######################################################################
#
# If this CIF has been generated from an entry in the Cambridge 
# Structural Database, then it will include bibliographic, chemical, 
# crystal, experimental, refinement or atomic coordinate data resulting 
# from the CCDC's data processing and validation procedures.
#
#######################################################################

data_RIPDEB
_symmetry_cell_setting           orthorhombic
_symmetry_space_group_name_H-M   'P b c a'
_symmetry_Int_Tables_number      61
_space_group_name_Hall           '-P 2ac 2ab'
loop_
_symmetry_equiv_pos_site_id
_symmetry_equiv_pos_as_xyz
1 x,y,z
2 1/2-x,-y,1/2+z
3 -x,1/2+y,1/2-z
4 1/2+x,1/2-y,-z
5 -x,-y,-z
6 1/2+x,y,1/2-z
7 x,1/2-y,1/2+z
8 1/2-x,1/2+y,z
_cell_length_a                   21.66396(16)
_cell_length_b                   23.95890(14)
_cell_length_c                   18.11334(12)
_cell_angle_alpha                90
_cell_angle_beta                 90
_cell_angle_gamma                90
_cell_volume                     9401.63
loop_
_atom_site_label
_atom_site_type_symbol
_atom_site_fract_x
_atom_site_fract_y
_atom_site_fract_z
Zn1 Zn 0.568743(14) 0.587353(12) 0.884439(15)
Zn2 Zn 0.425805(14) 0.578985(12) 0.880641(15)
Zn3 Zn 0.507405(14) 0.475205(12) 0.835444(18)
Zn4 Zn 0.5000 0.5000 1.0000
C1 C 0.38371(11) 0.46519(10) 0.24287(13)
C2 C 0.34427(12) 0.46894(11) 0.31036(12)
C3 C 0.30246(12) 0.42712(13) 0.32874(14)
H1 H 0.2976 0.3958 0.2970
C4 C 0.26772(13) 0.43060(15) 0.39298(14)
H2 H 0.2390 0.4021 0.4053
C5 C 0.27568(12) 0.47619(14) 0.43866(14)
C6 C 0.31582(14) 0.51880(14) 0.42068(15)
H3 H 0.3197 0.5505 0.4518
C7 C 0.35021(14) 0.51474(13) 0.35692(15)
H4 H 0.3784 0.5437 0.3446
C8 C 0.27826(12) 0.48714(14) 0.56662(14)
C9 C 0.25832(13) 0.52538(15) 0.61800(14)
H5 H 0.2211 0.5456 0.6106
C10 C 0.29370(13) 0.53391(13) 0.68101(14)
H6 H 0.2800 0.5596 0.7174
C11 C 0.34843(12) 0.50565(11) 0.69153(13)
C12 C 0.36672(14) 0.46667(12) 0.63919(15)
H7 H 0.4038 0.4462 0.6463
C13 C 0.33145(14) 0.45737(14) 0.57706(15)
H8 H 0.3440 0.4304 0.5416
C14 C 0.38819(12) 0.51683(10) 0.75735(13)
C15 C 0.51403(14) 0.38678(11) 0.72879(15)
H9 H 0.5149 0.4186 0.6974
C16 C 0.51460(15) 0.33472(12) 0.69726(15)
H10 H 0.5158 0.3311 0.6451
C17 C 0.51337(12) 0.28723(11) 0.74158(15)
C18 C 0.51275(13) 0.29613(11) 0.81757(16)
H11 H 0.5129 0.2652 0.8505
C19 C 0.51191(12) 0.35001(10) 0.84514(14)
H12 H 0.5110 0.3551 0.8971
C20 C 0.51145(13) 0.23073(11) 0.70895(15)
C21 C 0.45919(13) 0.20291(11) 0.68391(18)
C22 C 0.39373(17) 0.22156(17) 0.6848(4)
H13 H 0.3862 0.2469 0.7270
H14 H 0.3657 0.1891 0.6892
C23 C 0.3819(3) 0.2541(3) 0.6067(6)
H15 H 0.3390 0.2673 0.6048
H16 H 0.3895 0.2285 0.5655
H17 H 0.4099 0.2861 0.6031
C24 C 0.56032(13) 0.19511(11) 0.69328(16)
C25 C 0.62876(17) 0.20337(15) 0.7046(3)
H18 H 0.6512 0.1842 0.6642
H19 H 0.6382 0.2437 0.7011
C26 C 0.6517(3) 0.1822(2) 0.7759(4)
H20 H 0.6962 0.1889 0.7794
H21 H 0.6435 0.1421 0.7793
H22 H 0.6305 0.2016 0.8162
C27 C 0.39200(11) 0.40826(10) 0.96486(13)
C28 C 0.35254(12) 0.37921(10) 0.90818(14)
C29 C 0.36005(13) 0.39050(11) 0.83404(13)
H23 H 0.3899 0.4173 0.8192
C30 C 0.32526(12) 0.36383(11) 0.78102(14)
H24 H 0.3310 0.3722 0.7302
C31 C 0.28211(13) 0.32497(11) 0.80246(14)
C32 C 0.27401(18) 0.31224(16) 0.87525(18)
H25 H 0.2447 0.2848 0.8895
C33 C 0.30910(16) 0.33971(15) 0.92870(16)
H26 H 0.3032 0.3313 0.9795
C34 C 0.21722(12) 0.32739(11) 0.69681(14)
C35 C 0.19393(12) 0.37971(12) 0.71158(14)
H27 H 0.2004 0.3965 0.7584
C36 C 0.16097(12) 0.40750(11) 0.65748(14)
H28 H 0.1442 0.4433 0.6679
C37 C 0.15205(11) 0.38420(10) 0.58858(13)
C38 C 0.17723(13) 0.33198(11) 0.57401(15)
H29 H 0.1727 0.3159 0.5264
C39 C 0.20903(14) 0.30309(11) 0.62858(16)
H30 H 0.2250 0.2669 0.6189
C40 C 0.11419(11) 0.41418(9) 0.53171(12)
N1 N 0.51226(9) 0.39468(8) 0.80215(11)
N2 N 0.53807(10) 0.14897(8) 0.66110(11)
N3 N 0.47591(10) 0.15373(9) 0.65498(13)
O1 O 0.50010(6) 0.53672(6) 0.90343(9)
O2 O 0.24205(9) 0.47917(12) 0.50391(9)
O3 O 0.36840(8) 0.54971(7) 0.80607(9)
O4 O 0.43981(8) 0.49283(7) 0.75952(9)
O5 O 0.42713(8) 0.49963(7) 0.23799(9)
O6 O 0.37170(8) 0.42837(7) 0.19560(9)
O7 O 0.24778(9) 0.29592(9) 0.75015(9)
O8 O 0.37915(8) 0.39684(8) 1.03170(9)
O9 O 0.43491(7) 0.43956(7) 0.94425(9)
O10 O 0.07482(7) 0.44923(6) 0.55261(9)
O11 O 0.12330(8) 0.39940(7) 0.46546(8)
Zn1D Zn 0.431257(14) 0.412647(12) 0.115561(15)
Zn2D Zn 0.574195(14) 0.421015(12) 0.119359(15)
Zn3D Zn 0.492595(14) 0.524795(12) 0.164556(18)
C1D C 0.61629(11) 0.53481(10) 0.75713(13)
C2D C 0.65573(12) 0.53106(11) 0.68964(12)
C3D C 0.69754(12) 0.57288(13) 0.67126(14)
H1D H 0.7024 0.6042 0.7030
C4D C 0.73228(13) 0.56940(15) 0.60702(14)
H2D H 0.7610 0.5979 0.5947
C5D C 0.72432(12) 0.52381(14) 0.56134(14)
C6D C 0.68418(14) 0.48120(14) 0.57932(15)
H3D H 0.6803 0.4495 0.5482
C7D C 0.64979(14) 0.48526(13) 0.64308(15)
H4D H 0.6216 0.4563 0.6554
C8D C 0.72174(12) 0.51286(14) 0.43338(14)
C9D C 0.74168(13) 0.47462(15) 0.38200(14)
H5D H 0.7789 0.4544 0.3894
C10D C 0.70630(13) 0.46609(13) 0.31899(14)
H6D H 0.7200 0.4404 0.2826
C11D C 0.65157(12) 0.49435(11) 0.30847(13)
C12D C 0.63328(14) 0.53333(12) 0.36081(15)
H7D H 0.5962 0.5538 0.3537
C13D C 0.66855(14) 0.54263(14) 0.42294(15)
H8D H 0.6560 0.5696 0.4584
C14D C 0.61181(12) 0.48317(10) 0.24265(13)
C15D C 0.48597(14) 0.61322(11) 0.27121(15)
H9D H 0.4851 0.5814 0.3026
C16D C 0.48540(15) 0.66528(12) 0.30274(15)
H10D H 0.4842 0.6689 0.3549
C17D C 0.48663(12) 0.71277(11) 0.25842(15)
C18D C 0.48725(13) 0.70387(11) 0.18243(16)
H11D H 0.4871 0.7348 0.1495
C19D C 0.48809(12) 0.64999(10) 0.15486(14)
H12D H 0.4890 0.6449 0.1029
C20D C 0.48855(13) 0.76927(11) 0.29105(15)
C21D C 0.54081(13) 0.79709(11) 0.31609(18)
C22D C 0.60627(17) 0.77844(17) 0.3152(4)
H13D H 0.6138 0.7531 0.2730
H14D H 0.6343 0.8109 0.3108
C23D C 0.6181(3) 0.7459(3) 0.3933(6)
H15D H 0.6610 0.7327 0.3952
H16D H 0.6105 0.7715 0.4345
H17D H 0.5901 0.7139 0.3969
C24D C 0.43968(13) 0.80489(11) 0.30672(16)
C25D C 0.37124(17) 0.79663(15) 0.2954(3)
H18D H 0.3488 0.8158 0.3358
H19D H 0.3618 0.7563 0.2989
C26D C 0.3483(3) 0.8178(2) 0.2241(4)
H20D H 0.3038 0.8111 0.2206
H21D H 0.3565 0.8579 0.2207
H22D H 0.3695 0.7984 0.1838
N1D N 0.48774(9) 0.60532(8) 0.19785(11)
N2D N 0.46193(10) 0.85103(8) 0.33890(11)
N3D N 0.52409(10) 0.84627(9) 0.34502(13)
O1D O 0.49990(6) 0.46328(6) 0.09657(9)
O2D O 0.75795(9) 0.52083(12) 0.49609(9)
O3D O 0.63160(8) 0.45029(7) 0.19393(9)
O4D O 0.56019(8) 0.50717(7) 0.24048(9)
O5D O 0.57287(8) 0.50037(7) 0.76201(9)
O6D O 0.62830(8) 0.57163(7) 0.80440(9)
C27D C 0.60800(11) 0.59174(10) 1.03514(13)
C28D C 0.64746(12) 0.62079(10) 1.09182(14)
C29D C 0.63995(13) 0.60950(11) 1.16596(13)
H23D H 0.6101 0.5827 1.1808
C30D C 0.67474(12) 0.63617(11) 1.21898(14)
H24D H 0.6690 0.6278 1.2698
C31D C 0.71789(13) 0.67503(11) 1.19754(14)
C32D C 0.72599(18) 0.68776(16) 1.12475(18)
H25D H 0.7553 0.7152 1.1105
C33D C 0.69090(16) 0.66029(15) 1.07130(16)
H26D H 0.6968 0.6687 1.0205
C34D C 0.78278(12) 0.67261(11) 1.30319(14)
C35D C 0.80607(12) 0.62029(12) 1.28842(14)
H27D H 0.7996 0.6035 1.2416
C36D C 0.83903(12) 0.59250(11) 1.34252(14)
H28D H 0.8558 0.5567 1.3321
C37D C 0.84795(11) 0.61580(10) 1.41142(13)
C38D C 0.82277(13) 0.66802(11) 1.42599(15)
H29D H 0.8273 0.6841 1.4736
C39D C 0.79097(14) 0.69691(11) 1.37142(16)
H30D H 0.7750 0.7331 1.3811
C40D C 0.88581(11) 0.58582(9) 1.46829(12)
O7D O 0.75222(9) 0.70408(9) 1.24985(9)
O8D O 0.62085(8) 0.60316(8) 0.96830(9)
O9D O 0.56509(7) 0.56044(7) 1.05575(9)
O10D O 0.92518(7) 0.55077(6) 1.44739(9)
O11D O 0.87670(8) 0.60060(7) 1.53454(8)
Zn1B Zn 0.431257(14) 0.087353(12) 0.615561(15)
Zn1D_2 Zn 0.431257(14) 0.412647(12) 1.115561(15)
Zn1F Zn 0.568743(14) 0.912647(12) 0.384439(15)
Zn2A Zn 0.074195(14) 0.421015(12) 0.380641(15)
Zn2B Zn 0.574195(14) 0.078985(12) 0.619359(15)
Zn2E Zn 0.925805(14) 0.578985(12) 1.619359(15)
Zn2F Zn 0.425805(14) 0.921015(12) 0.380641(15)
Zn3A Zn 0.992595(14) 0.524795(12) 1.335444(18)
Zn3E Zn 0.007405(14) 0.475205(12) 0.664556(18)
Zn4_2 Zn 0.5000 0.5000 0.0000
Zn4A Zn 0.0000 0.5000 0.5000
Zn4A_2 Zn 1.0000 0.5000 1.5000
N2B N 0.46193(10) 0.64897(8) 0.83890(11)
N2F N 0.53807(10) 0.35103(8) 0.16110(11)
N3B N 0.52409(10) 0.65373(9) 0.84502(13)
N3F N 0.47591(10) 0.34627(9) 0.15498(13)
O1D_2 O 0.49990(6) 0.46328(6) 1.09657(9)
O8_2 O 0.37915(8) 0.39684(8) 0.03170(9)
O10A O 0.42518(7) 0.55077(6) 0.05261(9)
O10A_2 O 0.42518(7) 0.55077(6) 1.05261(9)
O10E O 0.57482(7) 0.44923(6) 0.94739(9)
O11A O 0.37670(8) 0.60060(7) 0.96546(8)
O11E O 0.62330(8) 0.39940(7) 0.03454(8)
loop_
_geom_bond_atom_site_label_1
_geom_bond_atom_site_label_2
_geom_bond_site_symmetry_1
_geom_bond_site_symmetry_2
Zn1 O1 1_555 1_555
Zn2 O1 1_555 1_555
Zn3 N1 1_555 1_555
Zn4 O1 1_555 1_555
C1 C2 1_555 1_555
C2 C3 1_555 1_555
C3 H1 1_555 1_555
C4 C3 1_555 1_555
H2 C4 1_555 1_555
C5 C4 1_555 1_555
C6 C5 1_555 1_555
H3 C6 1_555 1_555
C7 C2 1_555 1_555
H4 C7 1_555 1_555
C8 C9 1_555 1_555
C9 H5 1_555 1_555
C10 C9 1_555 1_555
H6 C10 1_555 1_555
C11 C10 1_555 1_555
C12 C11 1_555 1_555
H7 C12 1_555 1_555
C13 C8 1_555 1_555
H8 C13 1_555 1_555
C14 C11 1_555 1_555
C15 H9 1_555 1_555
C16 C15 1_555 1_555
H10 C16 1_555 1_555
C17 C16 1_555 1_555
C18 C17 1_555 1_555
H11 C18 1_555 1_555
C19 C18 1_555 1_555
H12 C19 1_555 1_555
C20 C17 1_555 1_555
C21 C20 1_555 1_555
C22 C21 1_555 1_555
H13 C22 1_555 1_555
H14 C22 1_555 1_555
C23 C22 1_555 1_555
H15 C23 1_555 1_555
H16 C23 1_555 1_555
H17 C23 1_555 1_555
C24 C20 1_555 1_555
C25 C24 1_555 1_555
H18 C25 1_555 1_555
H19 C25 1_555 1_555
C26 C25 1_555 1_555
H20 C26 1_555 1_555
H21 C26 1_555 1_555
H22 C26 1_555 1_555
C27 C28 1_555 1_555
C28 C29 1_555 1_555
C29 H23 1_555 1_555
C30 C29 1_555 1_555
H24 C30 1_555 1_555
C31 C30 1_555 1_555
C32 C31 1_555 1_555
H25 C32 1_555 1_555
C33 C28 1_555 1_555
H26 C33 1_555 1_555
C34 C35 1_555 1_555
C35 H27 1_555 1_555
C36 C35 1_555 1_555
H28 C36 1_555 1_555
C37 C36 1_555 1_555
C38 C37 1_555 1_555
H29 C38 1_555 1_555
C39 C34 1_555 1_555
H30 C39 1_555 1_555
C40 C37 1_555 1_555
N1 C15 1_555 1_555
N2 C24 1_555 1_555
N3 C21 1_555 1_555
O1 Zn3 1_555 1_555
O2 C5 1_555 1_555
O3 Zn2 1_555 1_555
O4 Zn3 1_555 1_555
O5 C1 1_555 1_555
O6 C1 1_555 1_555
O7 C31 1_555 1_555
O8 C27 1_555 1_555
O9 Zn4 1_555 1_555
O10 C40 1_555 1_555
O11 C40 1_555 1_555
Zn1D O6 1_555 1_555
Zn2D O1D 1_555 1_555
Zn3D O5 1_555 1_555
C1D C2D 1_555 1_555
C2D C3D 1_555 1_555
C3D H1D 1_555 1_555
C4D C3D 1_555 1_555
H2D C4D 1_555 1_555
C5D C4D 1_555 1_555
C6D C5D 1_555 1_555
H3D C6D 1_555 1_555
C7D C2D 1_555 1_555
H4D C7D 1_555 1_555
C8D C9D 1_555 1_555
C9D H5D 1_555 1_555
C10D C9D 1_555 1_555
H6D C10D 1_555 1_555
C11D C10D 1_555 1_555
C12D C11D 1_555 1_555
H7D C12D 1_555 1_555
C13D C8D 1_555 1_555
H8D C13D 1_555 1_555
C14D C11D 1_555 1_555
C15D H9D 1_555 1_555
C16D C15D 1_555 1_555
H10D C16D 1_555 1_555
C17D C16D 1_555 1_555
C18D C17D 1_555 1_555
H11D C18D 1_555 1_555
C19D C18D 1_555 1_555
H12D C19D 1_555 1_555
C20D C17D 1_555 1_555
C21D C20D 1_555 1_555
C22D C21D 1_555 1_555
H13D C22D 1_555 1_555
H14D C22D 1_555 1_555
C23D C22D 1_555 1_555
H15D C23D 1_555 1_555
H16D C23D 1_555 1_555
H17D C23D 1_555 1_555
C24D C20D 1_555 1_555
C25D C24D 1_555 1_555
H18D C25D 1_555 1_555
H19D C25D 1_555 1_555
C26D C25D 1_555 1_555
H20D C26D 1_555 1_555
H21D C26D 1_555 1_555
H22D C26D 1_555 1_555
N1D Zn3D 1_555 1_555
N2D C24D 1_555 1_555
N3D C21D 1_555 1_555
O1D Zn1D 1_555 1_555
O2D C5D 1_555 1_555
O3D Zn2D 1_555 1_555
O4D Zn3D 1_555 1_555
O5D Zn3 1_555 1_555
O6D Zn1 1_555 1_555
C27D C28D 1_555 1_555
C28D C29D 1_555 1_555
C29D H23D 1_555 1_555
C30D C29D 1_555 1_555
H24D C30D 1_555 1_555
C31D C30D 1_555 1_555
C32D C31D 1_555 1_555
H25D C32D 1_555 1_555
C33D C28D 1_555 1_555
H26D C33D 1_555 1_555
C34D C35D 1_555 1_555
C35D H27D 1_555 1_555
C36D C35D 1_555 1_555
H28D C36D 1_555 1_555
C37D C36D 1_555 1_555
C38D C37D 1_555 1_555
H29D C38D 1_555 1_555
C39D C34D 1_555 1_555
H30D C39D 1_555 1_555
C40D C37D 1_555 1_555
O7D C31D 1_555 1_555
O8D Zn1 1_555 1_555
O9D Zn4 1_555 1_555
O10D C40D 1_555 1_555
O11D C40D 1_555 1_555
Zn1B N3 1_555 1_555
Zn1D_2 O8 1_555 1_555
Zn1F N3D 1_555 1_555
Zn2A O11 1_555 1_555
Zn2B N2 1_555 1_555
Zn2E O11D 1_555 1_555
Zn2F N2D 1_555 1_555
Zn3A O10D 1_555 1_555
Zn3E O10 1_555 1_555
Zn4_2 O1D 1_555 1_555
Zn4A O10 1_555 1_555
Zn4A_2 O10D 1_555 1_555
N2B Zn2 1_555 1_555
N2F Zn2D 1_555 1_555
N3B Zn1 1_555 1_555
N3F Zn1D 1_555 1_555
O1D_2 Zn4 1_555 1_555
O8_2 Zn1D 1_555 1_555
O10A Zn3D 1_555 1_555
O10A_2 Zn4 1_555 1_555
O10E Zn3 1_555 1_555
O11A Zn2 1_555 1_555
O11E Zn2D 1_555 1_555
Zn4 O10E 1_555 1_555
C6 C7 1_555 1_555
C8 O2 1_555 1_555
C12 C13 1_555 1_555
C14 O3 1_555 1_555
C14 O4 1_555 1_555
C19 N1 1_555 1_555
C27 O9 1_555 1_555
C32 C33 1_555 1_555
C34 O7 1_555 1_555
C38 C39 1_555 1_555
N2 N3 1_555 1_555
Zn3D O1D 1_555 1_555
C1D O5D 1_555 1_555
C1D O6D 1_555 1_555
C6D C7D 1_555 1_555
C8D O2D 1_555 1_555
C12D C13D 1_555 1_555
C14D O3D 1_555 1_555
C14D O4D 1_555 1_555
C15D N1D 1_555 1_555
C19D N1D 1_555 1_555
N2D N3D 1_555 1_555
C27D O8D 1_555 1_555
C27D O9D 1_555 1_555
C32D C33D 1_555 1_555
C34D O7D 1_555 1_555
C38D C39D 1_555 1_555
Zn1D_2 O1D_2 1_555 1_555
Zn4_2 O10A 1_555 1_555
N2B N3B 1_555 1_555
N2F N3F 1_555 1_555

#END
