
#######################################################################
#
#                 Cambridge Crystallographic Data Centre
#                                CCDC 
#
#######################################################################
#
# If this CIF has been generated from an entry in the Cambridge 
# Structural Database, then it will include bibliographic, chemical, 
# crystal, experimental, refinement or atomic coordinate data resulting 
# from the CCDC's data processing and validation procedures.
#
#######################################################################

data_RIPFIG
_symmetry_cell_setting           monoclinic
_symmetry_space_group_name_H-M   'P 21'
_symmetry_Int_Tables_number      4
_space_group_name_Hall           'P 2yb'
loop_
_symmetry_equiv_pos_site_id
_symmetry_equiv_pos_as_xyz
1 x,y,z
2 -x,1/2+y,-z
_cell_length_a                   8.3621(4)
_cell_length_b                   11.0698(5)
_cell_length_c                   9.8203(5)
_cell_angle_alpha                90
_cell_angle_beta                 101.459(3)
_cell_angle_gamma                90
_cell_volume                     890.914
loop_
_atom_site_label
_atom_site_type_symbol
_atom_site_fract_x
_atom_site_fract_y
_atom_site_fract_z
Au1 Au 0.97964(7) 0.2338(2) -0.79519(7)
Au2 Au 0.00706(9) -0.0136(2) -0.97295(8)
Cu1 Cu 0.43120(19) 0.2254(3) -1.1606(2)
N1 N 0.6308(16) 0.2505(16) -0.9790(17)
N2 N 1.3101(18) 0.222(2) -0.5847(19)
N3 N 0.289(2) 0.1114(14) -1.0841(19)
N4 N 0.280(2) 0.3539(15) -1.122(2)
N5 N 0.5673(17) 0.0914(12) -1.2245(17)
N6 N 0.5219(17) 0.3269(13) -1.2984(17)
C1 C 0.7575(18) 0.2448(19) -0.9101(16)
C2 C 1.196(2) 0.228(2) -0.6660(19)
C3 C 0.190(3) 0.0648(17) -1.043(2)
C4 C 0.179(2) 0.4070(19) -1.092(3)
C5 C 0.6529(18) 0.1408(15) -1.3331(18)
C6 C 0.808(3) 0.074(2) -1.343(3)
C7 C 0.896(3) 0.129(2) -1.446(3)
C8 C 0.919(3) 0.259(3) -1.419(3)
C9 C 0.759(3) 0.326(2) -1.421(3)
C10 C 0.681(2) 0.2706(15) -1.309(2)
C11 C 0.474(3) -0.023(2) -1.269(3)
C12 C 0.525(3) 0.4564(18) -1.278(3)
H1 H 0.6484 0.0717 -1.1483
H2 H 0.5764 0.1320 -1.4248
H3 H 0.4534 0.3138 -1.3839
H4 H 0.7791 -0.0113 -1.3725
H5 H 0.8817 0.0735 -1.2494
H6 H 0.8312 0.1168 -1.5421
H7 H 1.0048 0.0891 -1.4374
H8 H 0.9734 0.2949 -1.4918
H9 H 0.9909 0.2706 -1.3255
H10 H 0.6861 0.3164 -1.5140
H11 H 0.7809 0.4139 -1.4014
H12 H 0.7577 0.2810 -1.2172
H13 H 0.4201 -0.0512 -1.1930
H14 H 0.5517 -0.0861 -1.2892
H15 H 0.3897 -0.0071 -1.3548
H16 H 0.4126 0.4850 -1.2722
H17 H 0.5610 0.4971 -1.3572
H18 H 0.6019 0.4765 -1.1892
Au2A Au -0.00706(9) 0.4864(2) -1.02705(8)
C4A C -0.179(2) -0.0930(19) -0.908(3)
loop_
_geom_bond_atom_site_label_1
_geom_bond_atom_site_label_2
_geom_bond_site_symmetry_1
_geom_bond_site_symmetry_2
Au1 C1 1_555 1_555
Au2 C3 1_555 1_555
Cu1 N1 1_555 1_555
N1 C1 1_555 1_555
N2 C2 1_555 1_555
N3 Cu1 1_555 1_555
N4 Cu1 1_555 1_555
N5 Cu1 1_555 1_555
N6 Cu1 1_555 1_555
C2 Au1 1_555 1_555
C3 N3 1_555 1_555
C4 N4 1_555 1_555
C5 N5 1_555 1_555
C6 C5 1_555 1_555
C7 C6 1_555 1_555
C8 C7 1_555 1_555
C9 C8 1_555 1_555
C10 N6 1_555 1_555
C11 N5 1_555 1_555
C12 N6 1_555 1_555
H1 N5 1_555 1_555
H2 C5 1_555 1_555
H3 N6 1_555 1_555
H4 C6 1_555 1_555
H5 C6 1_555 1_555
H6 C7 1_555 1_555
H7 C7 1_555 1_555
H8 C8 1_555 1_555
H9 C8 1_555 1_555
H10 C9 1_555 1_555
H11 C9 1_555 1_555
H12 C10 1_555 1_555
H13 C11 1_555 1_555
H14 C11 1_555 1_555
H15 C11 1_555 1_555
H16 C12 1_555 1_555
H17 C12 1_555 1_555
H18 C12 1_555 1_555
Au2A C4 1_555 1_555
C4A Au2 1_555 1_555
C5 C10 1_555 1_555
C9 C10 1_555 1_555

#END
