
#######################################################################
#
#                 Cambridge Crystallographic Data Centre
#                                CCDC 
#
#######################################################################
#
# If this CIF has been generated from an entry in the Cambridge 
# Structural Database, then it will include bibliographic, chemical, 
# crystal, experimental, refinement or atomic coordinate data resulting 
# from the CCDC's data processing and validation procedures.
#
#######################################################################

data_RIPFUS
_symmetry_cell_setting           monoclinic
_symmetry_space_group_name_H-M   'P 21/c'
_symmetry_Int_Tables_number      14
_space_group_name_Hall           '-P 2ybc'
loop_
_symmetry_equiv_pos_site_id
_symmetry_equiv_pos_as_xyz
1 x,y,z
2 -x,1/2+y,1/2-z
3 -x,-y,-z
4 x,1/2-y,1/2+z
_cell_length_a                   8.8638(8)
_cell_length_b                   14.5474(14)
_cell_length_c                   15.4248(12)
_cell_angle_alpha                90
_cell_angle_beta                 121.174(4)
_cell_angle_gamma                90
_cell_volume                     1701.75
loop_
_atom_site_label
_atom_site_type_symbol
_atom_site_fract_x
_atom_site_fract_y
_atom_site_fract_z
Ce1 Ce 0.75316(5) 0.50377(2) 0.50240(3)
C1 C 0.7640(10) 0.9736(5) 0.4713(6)
C2 C 0.7518(10) 1.1181(5) 0.4164(5)
C3 C 0.7299(9) 1.0923(5) 0.5520(5)
C4 C 0.7634(11) 0.8055(5) 0.5496(6)
H1 H 0.8573 0.8249 0.6162
H2 H 0.6515 0.8230 0.5418
C5 C 0.7704(10) 0.7028(5) 0.5383(6)
C6 C 0.7711(9) 1.1261(5) 0.2428(5)
H3 H 0.8181 1.1623 0.2093
H4 H 0.8542 1.0770 0.2793
C7 C 0.5971(10) 1.0839(5) 0.1625(5)
C8 C 0.7019(9) 1.0430(5) 0.7185(5)
H5 H 0.6140 1.0525 0.7371
H6 H 0.6690 0.9884 0.6764
C9 C 0.8778(9) 1.0271(5) 0.8128(5)
N1 N 0.7687(8) 1.0291(4) 0.4024(4)
N2 N 0.7337(7) 1.1544(4) 0.4900(4)
N3 N 0.7434(9) 1.0014(4) 0.5469(5)
O1 O 0.8548(8) 0.6699(4) 0.5009(5)
O2 O 0.6896(8) 0.6526(4) 0.5666(5)
O3 O 0.6006(6) 1.0430(4) 0.0908(4)
O4 O 0.4628(7) 1.0865(4) 0.1674(4)
O5 O 1.0152(7) 1.0256(4) 0.8091(4)
O6 O 0.8843(7) 1.0136(3) 0.8968(4)
O7 O 0.5382(8) 0.3768(4) 0.3730(5)
H7 H 0.5916 0.3257 0.3937
H8 H 0.4422 0.3749 0.3727
O8 O 0.9074(8) 0.3431(4) 0.5730(5)
H9 H 0.8431 0.3026 0.5299
H10 H 1.0093 0.3425 0.5804
S1 S 0.7892(3) 0.85877(13) 0.45270(17)
S2 S 0.7556(3) 1.19837(13) 0.33305(14)
S3 S 0.7009(3) 1.14004(14) 0.64617(14)
Ce1C Ce 0.75316(5) 0.99623(2) 0.00240(3)
Ce1A Ce 0.24684(5) 1.00377(2) -0.00240(3)
Ce1A_2 Ce 1.24684(5) 1.00377(2) 0.99760(3)
Ce1C_2 Ce 0.75316(5) 0.99623(2) 1.00240(3)
O3C O 0.6006(6) 0.4570(4) 0.5908(4)
O3A O 0.3994(6) 0.5430(4) 0.4092(4)
O4A O 0.5372(7) 0.5865(4) 0.3326(4)
O5A O 0.9848(7) 0.5256(4) 0.6909(4)
O6C O 0.8843(7) 0.4864(3) 0.3968(4)
O6A O 1.1157(7) 0.5136(3) 0.6032(4)
O9 O 0.2867(16) 0.1893(6) 0.2486(8)
H11 H 0.2505 0.2444 0.2425
H12 H 0.2844 0.1733 0.1950
O10 O 0.153(5) 0.366(2) 0.2233(15)
H13 H 0.0898 0.3932 0.2421
H14 H 0.1487 0.3948 0.1745
loop_
_geom_bond_atom_site_label_1
_geom_bond_atom_site_label_2
_geom_bond_site_symmetry_1
_geom_bond_site_symmetry_2
Ce1 O1 1_555 1_555
C1 N1 1_555 1_555
C2 N1 1_555 1_555
C3 N2 1_555 1_555
C4 H1 1_555 1_555
H2 C4 1_555 1_555
C5 C4 1_555 1_555
C6 H3 1_555 1_555
H4 C6 1_555 1_555
C7 C6 1_555 1_555
C8 H5 1_555 1_555
H6 C8 1_555 1_555
C9 C8 1_555 1_555
N2 C2 1_555 1_555
N3 C1 1_555 1_555
O1 C5 1_555 1_555
O2 Ce1 1_555 1_555
O3 C7 1_555 1_555
O4 C7 1_555 1_555
O5 C9 1_555 1_555
O6 C9 1_555 1_555
O7 Ce1 1_555 1_555
H7 O7 1_555 1_555
H8 O7 1_555 1_555
O8 Ce1 1_555 1_555
H9 O8 1_555 1_555
H10 O8 1_555 1_555
O9 H11 1_555 1_555
H12 O9 1_555 1_555
O10 H13 1_555 1_555
H14 O10 1_555 1_555
S1 C1 1_555 1_555
S2 C2 1_555 1_555
S3 C3 1_555 1_555
Ce1C O3 1_555 1_555
Ce1A O3 1_555 1_555
Ce1A_2 O5 1_555 1_555
Ce1C_2 O6 1_555 1_555
O3C Ce1 1_555 1_555
O3A Ce1 1_555 1_555
O4A Ce1 1_555 1_555
O5A Ce1 1_555 1_555
O6C Ce1 1_555 1_555
O6A Ce1 1_555 1_555
C3 N3 1_555 1_555
C4 S1 1_555 1_555
C5 O2 1_555 1_555
C6 S2 1_555 1_555
C8 S3 1_555 1_555
O4 Ce1A 1_555 1_555
O6 Ce1A_2 1_555 1_555

#END
