
#######################################################################
#
#                 Cambridge Crystallographic Data Centre
#                                CCDC 
#
#######################################################################
#
# If this CIF has been generated from an entry in the Cambridge 
# Structural Database, then it will include bibliographic, chemical, 
# crystal, experimental, refinement or atomic coordinate data resulting 
# from the CCDC's data processing and validation procedures.
#
#######################################################################

data_RIPFOM
_symmetry_cell_setting           orthorhombic
_symmetry_space_group_name_H-M   'C 2 2 21'
_symmetry_Int_Tables_number      20
_space_group_name_Hall           'C 2n 2'
loop_
_symmetry_equiv_pos_site_id
_symmetry_equiv_pos_as_xyz
1 x,y,z
2 1/2+x,1/2+y,z
3 x,-y,-z
4 1/2+x,1/2-y,-z
5 -x,y,1/2-z
6 1/2-x,1/2+y,1/2-z
7 -x,-y,1/2+z
8 1/2-x,1/2-y,1/2+z
_cell_length_a                   7.2413(2)
_cell_length_b                   17.2528(5)
_cell_length_c                   12.9833(3)
_cell_angle_alpha                90
_cell_angle_beta                 90
_cell_angle_gamma                90
_cell_volume                     1622.04
loop_
_atom_site_label
_atom_site_type_symbol
_atom_site_fract_x
_atom_site_fract_y
_atom_site_fract_z
Au1 Au 0.51150(8) 0.5000 0.5000
Cu1 Cu 0.5000 0.72630(7) 0.7500
Cl1 Cl 0.0000 0.77510(16) 0.7500
O1 O 0.1541(7) 0.7279(3) 0.7236(6)
O2 O 0.0476(11) 0.8232(4) 0.8350(4)
N1 N 0.5096(15) 0.6446(3) 0.6439(4)
N2 N 0.4769(10) 0.8126(3) 0.8541(4)
C1 C 0.5098(16) 0.5917(4) 0.5902(5)
C2 C 0.5342(10) 0.8863(3) 0.8054(4)
C3 C 0.472(2) 0.9583(4) 0.8606(6)
C4 C 0.529(3) 1.0312(4) 0.8050(7)
C5 C 0.5606(13) 0.8012(5) 0.9558(5)
H1 H 0.3509 0.8178 0.8662
H2 H 0.6723 0.8865 0.8034
H3 H 0.5295 0.9586 0.9307
H4 H 0.3345 0.9569 0.8676
H5 H 0.4677 1.0762 0.8397
H6 H 0.6661 1.0373 0.8096
H7 H 0.5165 0.7512 0.9858
H8 H 0.5251 0.8449 1.0023
H9 H 0.6981 0.7998 0.9484
Cu1_2 Cu -0.5000 0.72630(7) 0.7500
Cu1B Cu 0.5000 0.27370(7) 0.2500
O1D O -0.1541(7) 0.7279(3) 0.7764(6)
O1D_2 O 0.8459(7) 0.7279(3) 0.7764(6)
O2D O -0.0476(11) 0.8232(4) 0.6650(4)
N1B N 0.5096(15) 0.3554(3) 0.3561(4)
N1D N 0.4904(15) 0.6446(3) 0.8561(4)
N2D N 0.5231(10) 0.8126(3) 0.6459(4)
C1B C 0.5098(16) 0.4083(4) 0.4098(5)
C2D C 0.4658(10) 0.8863(3) 0.6946(4)
C3D C 0.528(2) 0.9583(4) 0.6394(6)
C4D C 0.471(3) 1.0312(4) 0.6950(7)
C5D C 0.4394(13) 0.8012(5) 0.5442(5)
H1D H 0.6491 0.8178 0.6338
H2D H 0.3277 0.8865 0.6966
H3D H 0.4705 0.9586 0.5693
H4D H 0.6655 0.9569 0.6324
H5D H 0.5323 1.0762 0.6603
H6D H 0.3339 1.0373 0.6904
H7D H 0.4835 0.7512 0.5142
H8D H 0.4749 0.8449 0.4977
H9D H 0.3019 0.7998 0.5516
loop_
_geom_bond_atom_site_label_1
_geom_bond_atom_site_label_2
_geom_bond_site_symmetry_1
_geom_bond_site_symmetry_2
Au1 C1 1_555 1_555
Cu1 O1 1_555 1_555
Cl1 O1 1_555 1_555
O2 Cl1 1_555 1_555
N1 Cu1 1_555 1_555
N2 Cu1 1_555 1_555
C1 N1 1_555 1_555
C2 N2 1_555 1_555
C3 C2 1_555 1_555
C4 C3 1_555 1_555
C5 N2 1_555 1_555
H1 N2 1_555 1_555
H2 C2 1_555 1_555
H3 C3 1_555 1_555
H4 C3 1_555 1_555
H5 C4 1_555 1_555
H6 C4 1_555 1_555
H7 C5 1_555 1_555
H8 C5 1_555 1_555
H9 C5 1_555 1_555
Cu1_2 O1D 1_555 1_555
Cu1B N1B 1_555 1_555
O1D Cl1 1_555 1_555
O1D_2 Cu1 1_555 1_555
O2D Cl1 1_555 1_555
N1B C1B 1_555 1_555
N1D Cu1 1_555 1_555
N2D Cu1 1_555 1_555
C1B Au1 1_555 1_555
C2D C2 1_555 1_555
C3D C2D 1_555 1_555
C4D C4 1_555 1_555
C5D N2D 1_555 1_555
H1D N2D 1_555 1_555
H2D C2D 1_555 1_555
H3D C3D 1_555 1_555
H4D C3D 1_555 1_555
H5D C4D 1_555 1_555
H6D C4D 1_555 1_555
H7D C5D 1_555 1_555
H8D C5D 1_555 1_555
H9D C5D 1_555 1_555
N2D C2D 1_555 1_555
C3D C4D 1_555 1_555

#END
