
#######################################################################
#
#                 Cambridge Crystallographic Data Centre
#                                CCDC 
#
#######################################################################
#
# If this CIF has been generated from an entry in the Cambridge 
# Structural Database, then it will include bibliographic, chemical, 
# crystal, experimental, refinement or atomic coordinate data resulting 
# from the CCDC's data processing and validation procedures.
#
#######################################################################

data_RIPGED01
_symmetry_cell_setting           monoclinic
_symmetry_space_group_name_H-M   'P 21/c'
_symmetry_Int_Tables_number      14
_space_group_name_Hall           '-P 2ybc'
loop_
_symmetry_equiv_pos_site_id
_symmetry_equiv_pos_as_xyz
1 x,y,z
2 -x,1/2+y,1/2-z
3 -x,-y,-z
4 x,1/2-y,1/2+z
_cell_length_a                   8.7281(17)
_cell_length_b                   14.495(3)
_cell_length_c                   15.445(5)
_cell_angle_alpha                90
_cell_angle_beta                 121.07(2)
_cell_angle_gamma                90
_cell_volume                     1673.68
loop_
_atom_site_label
_atom_site_type_symbol
_atom_site_fract_x
_atom_site_fract_y
_atom_site_fract_z
C1 C 0.7693(2) 0.46739(11) 0.97411(10)
N1 N 0.7679(2) 0.52671(11) 0.90299(10)
C2 C 0.7422(2) 0.62077(11) 0.90784(12)
N2 N 0.7179(3) 0.65552(11) 0.98381(12)
C3 C 0.7193(2) 0.59620(12) 1.05494(12)
N3 N 0.7450(2) 0.50214(12) 1.05009(10)
S1 S 0.7428(3) 0.69762(12) 0.82960(14)
S2 S 0.6953(3) 0.64241(14) 1.14597(13)
O1 O 0.6004(4) 0.53985(17) 0.59122(12)
O2 O 0.4541(3) 0.58508(15) 0.66402(11)
O3 O 0.6781(4) 0.15095(19) 1.06061(14)
O4 O 0.8607(5) 0.1694(2) 1.00640(19)
O5 O 1.0205(3) 0.53324(16) 1.31218(10)
O6 O 0.8876(4) 0.5111(2) 1.39819(13)
O7 O 0.5671(5) 0.6245(2) 0.38781(15)
O8 O 0.8895(5) 0.6518(2) 0.57062(18)
C4 C 0.7021(3) 0.54798(17) 1.22101(13)
H1 H 0.6163 0.5595 1.2419
H2 H 0.6631 0.4932 1.1790
C5 C 0.7611(5) 0.6267(3) 0.7404(3)
H3 H 0.8055 0.6649 0.7065
H4 H 0.8510 0.5800 0.7779
C6 C 0.7647(5) 0.2030(3) 1.0391(3)
C7 C 0.5977(5) 0.5796(3) 0.6621(3)
C8 C 0.8764(5) 0.5283(3) 1.3118(3)
C9 C 0.7664(16) 0.3050(10) 1.0545(9)
H5 H 0.8634 0.3218 1.1215
H6 H 0.6544 0.3249 1.0475
S3 S 0.7971(4) 0.3582(2) 0.9594(2)
Nd1 Nd 0.75639(7) 0.49447(4) 0.50426(4)
O1B O 0.3996(4) 0.46015(17) 0.40878(12)
O2B O 0.5459(3) 0.41492(15) 0.33598(11)
O3C O 0.6781(4) 0.34905(19) 0.56061(14)
O4C O 0.8607(5) 0.3306(2) 0.50640(19)
O5B O 0.9795(3) 0.46676(16) 0.68782(10)
O6_2 O 0.8876(4) 0.5111(2) 0.39819(13)
O6B O 1.1124(4) 0.4889(2) 0.60181(13)
Nd1_2 Nd 0.75639(7) 0.49447(4) 1.50426(4)
Nd1B Nd 0.24361(7) 0.50553(4) 0.49574(4)
Nd1B_2 Nd 1.24361(7) 0.50553(4) 1.49574(4)
Nd1C Nd 0.75639(7) 0.00553(4) 1.00426(4)
O9 O 0.7627(5) 0.1835(3) 0.7717(3)
H7 H 0.6553 0.1867 0.7755
H8 H 0.8536 0.1434 0.8225
O10 O 0.789(2) 0.3869(11) 0.7675(10)
loop_
_geom_bond_atom_site_label_1
_geom_bond_atom_site_label_2
_geom_bond_site_symmetry_1
_geom_bond_site_symmetry_2
C1 N1 1_555 1_555
N1 C2 1_555 1_555
C2 N2 1_555 1_555
N2 C3 1_555 1_555
C3 N3 1_555 1_555
N3 C1 1_555 1_555
S1 C2 1_555 1_555
S2 C3 1_555 1_555
O1 C7 1_555 1_555
O2 C7 1_555 1_555
O3 C6 1_555 1_555
O4 C6 1_555 1_555
O5 C8 1_555 1_555
O6 C8 1_555 1_555
O7 Nd1 1_555 1_555
O8 Nd1 1_555 1_555
C4 S2 1_555 1_555
H1 C4 1_555 1_555
H2 C4 1_555 1_555
C5 S1 1_555 1_555
H3 C5 1_555 1_555
H4 C5 1_555 1_555
C6 C9 1_555 1_555
C7 C5 1_555 1_555
C8 C4 1_555 1_555
C9 H5 1_555 1_555
H6 C9 1_555 1_555
S3 C1 1_555 1_555
Nd1 O1 1_555 1_555
O9 H7 1_555 1_555
H8 O9 1_555 1_555
O1B Nd1 1_555 1_555
O2B Nd1 1_555 1_555
O3C Nd1 1_555 1_555
O4C Nd1 1_555 1_555
O5B Nd1 1_555 1_555
O6_2 Nd1 1_555 1_555
O6B Nd1 1_555 1_555
Nd1_2 O6 1_555 1_555
Nd1B O1 1_555 1_555
Nd1B_2 O5 1_555 1_555
Nd1C O3 1_555 1_555
O2 Nd1B 1_555 1_555
O4 Nd1C 1_555 1_555
O6 Nd1B_2 1_555 1_555
C9 S3 1_555 1_555
O1B Nd1B 1_555 1_555

#END
