
#######################################################################
#
#                 Cambridge Crystallographic Data Centre
#                                CCDC 
#
#######################################################################
#
# If this CIF has been generated from an entry in the Cambridge 
# Structural Database, then it will include bibliographic, chemical, 
# crystal, experimental, refinement or atomic coordinate data resulting 
# from the CCDC's data processing and validation procedures.
#
#######################################################################

data_RIPGUT
_symmetry_cell_setting           triclinic
_symmetry_space_group_name_H-M   'P -1'
_symmetry_Int_Tables_number      2
_space_group_name_Hall           '-P 1'
loop_
_symmetry_equiv_pos_site_id
_symmetry_equiv_pos_as_xyz
1 x,y,z
2 -x,-y,-z
_cell_length_a                   8.442(3)
_cell_length_b                   8.996(3)
_cell_length_c                   11.700(4)
_cell_angle_alpha                98.850(4)
_cell_angle_beta                 99.386(5)
_cell_angle_gamma                96.468(4)
_cell_volume                     857.525
loop_
_atom_site_label
_atom_site_type_symbol
_atom_site_fract_x
_atom_site_fract_y
_atom_site_fract_z
Tb1 Tb 0.52808(4) 1.16962(3) 0.41400(2)
C1 C -0.0179(8) 0.5953(7) 0.2227(5)
C2 C 0.1965(8) 0.5324(7) 0.1467(5)
C3 C -0.0302(8) 0.3621(7) 0.1201(6)
C4 C 0.0061(9) 0.9016(7) 0.3146(6)
H1 H 0.0184 0.9130 0.2353
H2 H -0.0535 0.9813 0.3431
C5 C 0.1732(8) 0.9310(7) 0.3899(6)
C6 C 0.4582(8) 0.7563(7) 0.2046(6)
H3 H 0.5556 0.7983 0.1801
H4 H 0.3741 0.8171 0.1826
C7 C 0.4917(7) 0.7716(7) 0.3379(5)
C8 C -0.3233(9) 0.1780(8) 0.0809(6)
H5 H -0.3504 0.2777 0.0708
H6 H -0.3915 0.1048 0.0175
C9 C -0.3680(8) 0.1455(7) 0.1960(5)
N1 N 0.1320(7) 0.6408(6) 0.2090(5)
N2 N 0.1198(7) 0.3917(6) 0.0970(5)
N3 N -0.1049(7) 0.4581(6) 0.1833(5)
O1 O 0.2611(6) 1.0463(5) 0.3727(4)
O2 O 0.2160(6) 0.8474(5) 0.4634(4)
O3 O 0.5379(6) 0.9050(5) 0.3972(4)
O4 O 0.4730(6) 0.6614(5) 0.3902(4)
O5 O -0.2645(6) 0.1395(5) 0.2845(4)
O6 O -0.5183(6) 0.1300(6) 0.2009(4)
O7 O 0.6792(7) 1.4131(5) 0.4058(5)
H7 H 0.7775 1.4213 0.4409
H8 H 0.6301 1.4798 0.4400
O8 O 0.3385(6) 1.3497(5) 0.3744(4)
H9 H 0.2366 1.3528 0.3643
H10 H 0.3756 1.3794 0.3173
S1 S 0.3964(2) 0.56541(19) 0.12528(14)
S2 S -0.1185(2) 0.72291(18) 0.30508(15)
S3 S -0.1162(2) 0.17337(19) 0.06396(15)
Tb1A Tb 0.47192(4) 0.83038(3) 0.58600(2)
Tb1_2 Tb -0.47192(4) 0.16962(3) 0.41400(2)
O2A O 0.7840(6) 1.1526(5) 0.5366(4)
O3A O 0.4621(6) 1.0950(5) 0.6028(4)
O4A O 0.5270(6) 1.3386(5) 0.6098(4)
O5_2 O 0.7355(6) 1.1395(5) 0.2845(4)
O6_2 O 0.4817(6) 1.1300(6) 0.2009(4)
O9 O 0.2911(7) 0.1644(7) -0.0200(5)
H11 H 0.2031 0.1566 0.0066
H12 H 0.3716 0.1808 0.0372
O10 O 0.0179(7) 0.3286(7) 0.4046(5)
H13 H -0.0365 0.2525 0.3562
H14 H 0.0308 0.3090 0.4741
loop_
_geom_bond_atom_site_label_1
_geom_bond_atom_site_label_2
_geom_bond_site_symmetry_1
_geom_bond_site_symmetry_2
Tb1 O1 1_555 1_555
C1 N1 1_555 1_555
C2 N1 1_555 1_555
C3 N2 1_555 1_555
C4 H1 1_555 1_555
H2 C4 1_555 1_555
C5 C4 1_555 1_555
C6 H3 1_555 1_555
H4 C6 1_555 1_555
C7 C6 1_555 1_555
C8 H5 1_555 1_555
H6 C8 1_555 1_555
C9 C8 1_555 1_555
N2 C2 1_555 1_555
N3 C1 1_555 1_555
O1 C5 1_555 1_555
O2 C5 1_555 1_555
O3 Tb1 1_555 1_555
O4 C7 1_555 1_555
O5 C9 1_555 1_555
O6 C9 1_555 1_555
O7 Tb1 1_555 1_555
H7 O7 1_555 1_555
H8 O7 1_555 1_555
O8 Tb1 1_555 1_555
H9 O8 1_555 1_555
H10 O8 1_555 1_555
O9 H11 1_555 1_555
H12 O9 1_555 1_555
O10 H13 1_555 1_555
H14 O10 1_555 1_555
S1 C2 1_555 1_555
S2 C1 1_555 1_555
S3 C3 1_555 1_555
Tb1A O2 1_555 1_555
Tb1_2 O5 1_555 1_555
O2A Tb1 1_555 1_555
O3A Tb1 1_555 1_555
O4A Tb1 1_555 1_555
O5_2 Tb1 1_555 1_555
O6_2 Tb1 1_555 1_555
C3 N3 1_555 1_555
C4 S2 1_555 1_555
C6 S1 1_555 1_555
C7 O3 1_555 1_555
C8 S3 1_555 1_555
O3 Tb1A 1_555 1_555
O4 Tb1A 1_555 1_555
O6 Tb1_2 1_555 1_555
Tb1A O3A 1_555 1_555

#END
