
#######################################################################
#
#                 Cambridge Crystallographic Data Centre
#                                CCDC 
#
#######################################################################
#
# If this CIF has been generated from an entry in the Cambridge 
# Structural Database, then it will include bibliographic, chemical, 
# crystal, experimental, refinement or atomic coordinate data resulting 
# from the CCDC's data processing and validation procedures.
#
#######################################################################

data_RIPGON
_symmetry_cell_setting           triclinic
_symmetry_space_group_name_H-M   'P -1'
_symmetry_Int_Tables_number      2
_space_group_name_Hall           '-P 1'
loop_
_symmetry_equiv_pos_site_id
_symmetry_equiv_pos_as_xyz
1 x,y,z
2 -x,-y,-z
_cell_length_a                   8.403(4)
_cell_length_b                   9.008(5)
_cell_length_c                   11.651(6)
_cell_angle_alpha                99.135(7)
_cell_angle_beta                 99.531(5)
_cell_angle_gamma                96.161(6)
_cell_volume                     850.586
loop_
_atom_site_label
_atom_site_type_symbol
_atom_site_fract_x
_atom_site_fract_y
_atom_site_fract_z
Eu1 Eu 0.52686(4) 1.16921(4) 0.41244(3)
C1 C -0.0200(8) 0.5943(7) 0.2218(6)
C2 C 0.1935(8) 0.5323(8) 0.1462(6)
C3 C -0.0297(8) 0.3604(8) 0.1198(6)
C4 C 0.0027(8) 0.9006(8) 0.3134(6)
H1 H 0.0147 0.9117 0.2337
H2 H -0.0578 0.9800 0.3422
C5 C 0.1715(8) 0.9296(7) 0.3899(6)
C6 C 0.4565(8) 0.7548(8) 0.2039(6)
H3 H 0.5537 0.7969 0.1791
H4 H 0.3713 0.8153 0.1822
C7 C 0.4913(8) 0.7699(8) 0.3381(6)
C8 C -0.3249(8) 0.1779(8) 0.0797(6)
H5 H -0.3518 0.2782 0.0715
H6 H -0.3937 0.1062 0.0149
C9 C -0.3686(8) 0.1427(7) 0.1941(6)
N1 N 0.1305(7) 0.6389(6) 0.2077(5)
N2 N 0.1188(7) 0.3920(6) 0.0959(5)
N3 N -0.1063(7) 0.4564(6) 0.1819(5)
O1 O 0.2581(6) 1.0440(6) 0.3712(4)
O2 O 0.2143(5) 0.8473(5) 0.4633(4)
O3 O 0.5373(6) 0.9031(5) 0.3963(4)
O4 O 0.4737(6) 0.6586(5) 0.3893(4)
O5 O -0.2635(6) 0.1391(6) 0.2838(4)
O6 O -0.5178(6) 0.1249(6) 0.1968(4)
O7 O 0.6777(6) 1.4156(5) 0.4030(5)
H7 H 0.7760 1.4237 0.4382
H8 H 0.6286 1.4822 0.4373
O8 O 0.3356(6) 1.3494(6) 0.3726(5)
H9 H 0.2337 1.3525 0.3625
H10 H 0.3727 1.3791 0.3155
S1 S 0.3951(2) 0.5637(2) 0.12410(15)
S2 S -0.1191(2) 0.7213(2) 0.30455(16)
S3 S -0.1159(2) 0.1727(2) 0.06280(16)
Eu1A Eu 0.47314(4) 0.83079(4) 0.58756(3)
Eu1_2 Eu -0.47314(4) 0.16921(4) 0.41244(3)
O2A O 0.7857(5) 1.1527(5) 0.5367(4)
O3A O 0.4627(6) 1.0969(5) 0.6037(4)
O4A O 0.5263(6) 1.3414(5) 0.6107(4)
O5_2 O 0.7365(6) 1.1391(6) 0.2838(4)
O6_2 O 0.4822(6) 1.1249(6) 0.1968(4)
O9 O 0.2908(7) 0.1648(7) -0.0218(5)
H11 H 0.2028 0.1570 0.0048
H12 H 0.3713 0.1812 0.0354
O10 O 0.0163(7) 0.3263(7) 0.4039(5)
H13 H -0.0381 0.2502 0.3555
H14 H 0.0292 0.3066 0.4734
loop_
_geom_bond_atom_site_label_1
_geom_bond_atom_site_label_2
_geom_bond_site_symmetry_1
_geom_bond_site_symmetry_2
Eu1 O1 1_555 1_555
C1 N1 1_555 1_555
C2 N1 1_555 1_555
C3 N2 1_555 1_555
C4 H1 1_555 1_555
H2 C4 1_555 1_555
C5 C4 1_555 1_555
C6 H3 1_555 1_555
H4 C6 1_555 1_555
C7 C6 1_555 1_555
C8 H5 1_555 1_555
H6 C8 1_555 1_555
C9 C8 1_555 1_555
N2 C2 1_555 1_555
N3 C1 1_555 1_555
O1 C5 1_555 1_555
O2 C5 1_555 1_555
O3 Eu1 1_555 1_555
O4 C7 1_555 1_555
O5 C9 1_555 1_555
O6 C9 1_555 1_555
O7 Eu1 1_555 1_555
H7 O7 1_555 1_555
H8 O7 1_555 1_555
O8 Eu1 1_555 1_555
H9 O8 1_555 1_555
H10 O8 1_555 1_555
O9 H11 1_555 1_555
H12 O9 1_555 1_555
O10 H13 1_555 1_555
H14 O10 1_555 1_555
S1 C2 1_555 1_555
S2 C1 1_555 1_555
S3 C3 1_555 1_555
Eu1A O2 1_555 1_555
Eu1_2 O5 1_555 1_555
O2A Eu1 1_555 1_555
O3A Eu1 1_555 1_555
O4A Eu1 1_555 1_555
O5_2 Eu1 1_555 1_555
O6_2 Eu1 1_555 1_555
C3 N3 1_555 1_555
C4 S2 1_555 1_555
C6 S1 1_555 1_555
C7 O3 1_555 1_555
C8 S3 1_555 1_555
O3 Eu1A 1_555 1_555
O4 Eu1A 1_555 1_555
O6 Eu1_2 1_555 1_555
Eu1A O3A 1_555 1_555

#END
