
#######################################################################
#
#                 Cambridge Crystallographic Data Centre
#                                CCDC 
#
#######################################################################
#
# If this CIF has been generated from an entry in the Cambridge 
# Structural Database, then it will include bibliographic, chemical, 
# crystal, experimental, refinement or atomic coordinate data resulting 
# from the CCDC's data processing and validation procedures.
#
#######################################################################

data_RIPGIH
_symmetry_cell_setting           triclinic
_symmetry_space_group_name_H-M   'P -1'
_symmetry_Int_Tables_number      2
_space_group_name_Hall           '-P 1'
loop_
_symmetry_equiv_pos_site_id
_symmetry_equiv_pos_as_xyz
1 x,y,z
2 -x,-y,-z
_cell_length_a                   8.4178(12)
_cell_length_b                   9.0262(13)
_cell_length_c                   11.6753(17)
_cell_angle_alpha                99.299(2)
_cell_angle_beta                 99.648(3)
_cell_angle_gamma                96.047(2)
_cell_volume                     855.026
loop_
_atom_site_label
_atom_site_type_symbol
_atom_site_fract_x
_atom_site_fract_y
_atom_site_fract_z
Sm1 Sm 0.52643(3) 1.16888(2) 0.411686(19)
C1 C -0.0199(6) 0.5939(5) 0.2218(4)
C2 C 0.1945(6) 0.5308(6) 0.1453(4)
C3 C -0.0299(6) 0.3598(6) 0.1195(5)
C4 C 0.0035(6) 0.8993(6) 0.3137(5)
H1 H 0.0150 0.9104 0.2341
H2 H -0.0566 0.9788 0.3428
C5 C 0.1722(6) 0.9284(5) 0.3896(4)
C6 C 0.4559(6) 0.7519(5) 0.2039(4)
H3 H 0.5527 0.7937 0.1790
H4 H 0.3708 0.8124 0.1824
C7 C 0.4915(6) 0.7679(5) 0.3370(4)
C8 C -0.3234(6) 0.1780(6) 0.0791(4)
H5 H -0.3498 0.2786 0.0720
H6 H -0.3921 0.1075 0.0137
C9 C -0.3680(6) 0.1416(5) 0.1920(4)
N1 N 0.1304(5) 0.6379(5) 0.2078(4)
N2 N 0.1191(5) 0.3913(5) 0.0957(4)
N3 N -0.1066(5) 0.4557(5) 0.1824(4)
O1 O 0.2576(4) 1.0419(4) 0.3705(3)
O2 O 0.2130(4) 0.8479(4) 0.4636(3)
O3 O 0.5374(4) 0.9014(4) 0.3965(3)
O4 O 0.4734(5) 0.6590(4) 0.3891(3)
O5 O -0.2644(4) 0.1377(4) 0.2810(3)
O6 O -0.5182(4) 0.1233(4) 0.1948(3)
O7 O 0.6766(5) 1.4155(4) 0.4027(4)
H7 H 0.7749 1.4237 0.4378
H8 H 0.6275 1.4822 0.4369
O8 O 0.3343(5) 1.3490(4) 0.3709(4)
H9 H 0.2324 1.3521 0.3609
H10 H 0.3714 1.3787 0.3138
S1 S 0.39444(15) 0.56266(14) 0.12366(11)
S2 S -0.11930(15) 0.72061(14) 0.30411(12)
S3 S -0.11575(17) 0.17287(15) 0.06222(12)
Sm1A Sm 0.47357(3) 0.83112(2) 0.588314(19)
Sm1_2 Sm -0.47357(3) 0.16888(2) 0.411686(19)
O2A O 0.7870(4) 1.1521(4) 0.5364(3)
O3A O 0.4626(4) 1.0986(4) 0.6035(3)
O4A O 0.5266(5) 1.3410(4) 0.6109(3)
O5_2 O 0.7356(4) 1.1377(4) 0.2810(3)
O6_2 O 0.4818(4) 1.1233(4) 0.1948(3)
O9 O 0.2913(5) 0.1639(5) -0.0231(4)
H11 H 0.2033 0.1561 0.0035
H12 H 0.3718 0.1803 0.0341
O10 O 0.0149(5) 0.3266(5) 0.4052(4)
H13 H -0.0395 0.2505 0.3568
H14 H 0.0278 0.3070 0.4747
loop_
_geom_bond_atom_site_label_1
_geom_bond_atom_site_label_2
_geom_bond_site_symmetry_1
_geom_bond_site_symmetry_2
Sm1 O1 1_555 1_555
C1 N1 1_555 1_555
C2 N1 1_555 1_555
C3 N2 1_555 1_555
C4 H1 1_555 1_555
H2 C4 1_555 1_555
C5 C4 1_555 1_555
C6 H3 1_555 1_555
H4 C6 1_555 1_555
C7 C6 1_555 1_555
C8 H5 1_555 1_555
H6 C8 1_555 1_555
C9 C8 1_555 1_555
N2 C2 1_555 1_555
N3 C1 1_555 1_555
O1 C5 1_555 1_555
O2 C5 1_555 1_555
O3 Sm1 1_555 1_555
O4 C7 1_555 1_555
O5 C9 1_555 1_555
O6 C9 1_555 1_555
O7 Sm1 1_555 1_555
H7 O7 1_555 1_555
H8 O7 1_555 1_555
O8 Sm1 1_555 1_555
H9 O8 1_555 1_555
H10 O8 1_555 1_555
O9 H11 1_555 1_555
H12 O9 1_555 1_555
O10 H13 1_555 1_555
H14 O10 1_555 1_555
S1 C2 1_555 1_555
S2 C1 1_555 1_555
S3 C3 1_555 1_555
Sm1A O2 1_555 1_555
Sm1_2 O5 1_555 1_555
O2A Sm1 1_555 1_555
O3A Sm1 1_555 1_555
O4A Sm1 1_555 1_555
O5_2 Sm1 1_555 1_555
O6_2 Sm1 1_555 1_555
C3 N3 1_555 1_555
C4 S2 1_555 1_555
C6 S1 1_555 1_555
C7 O3 1_555 1_555
C8 S3 1_555 1_555
O3 Sm1A 1_555 1_555
O4 Sm1A 1_555 1_555
O6 Sm1_2 1_555 1_555
Sm1A O3A 1_555 1_555

#END
