
#######################################################################
#
#                 Cambridge Crystallographic Data Centre
#                                CCDC 
#
#######################################################################
#
# If this CIF has been generated from an entry in the Cambridge 
# Structural Database, then it will include bibliographic, chemical, 
# crystal, experimental, refinement or atomic coordinate data resulting 
# from the CCDC's data processing and validation procedures.
#
#######################################################################

data_RIPGAZ
_symmetry_cell_setting           monoclinic
_symmetry_space_group_name_H-M   'P 21/c'
_symmetry_Int_Tables_number      14
_space_group_name_Hall           '-P 2ybc'
loop_
_symmetry_equiv_pos_site_id
_symmetry_equiv_pos_as_xyz
1 x,y,z
2 -x,1/2+y,1/2-z
3 -x,-y,-z
4 x,1/2-y,1/2+z
_cell_length_a                   8.8231(3)
_cell_length_b                   14.5403(6)
_cell_length_c                   15.3938(6)
_cell_angle_alpha                90
_cell_angle_beta                 121.0520(10)
_cell_angle_gamma                90
_cell_volume                     1691.88
loop_
_atom_site_label
_atom_site_type_symbol
_atom_site_fract_x
_atom_site_fract_y
_atom_site_fract_z
Pr1 Pr 0.75345(4) 0.50429(2) 0.50254(2)
C1 C 0.7629(10) 0.9742(6) 0.4703(6)
C2 C 0.7519(9) 1.1177(4) 0.4153(5)
C3 C 0.7299(9) 1.0917(5) 0.5521(5)
C4 C 0.7628(11) 0.8055(5) 0.5489(6)
H1 H 0.8562 0.8252 0.6156
H2 H 0.6498 0.8227 0.5407
C5 C 0.7711(9) 0.7017(4) 0.5376(5)
C6 C 0.7700(9) 1.1273(5) 0.2415(5)
H3 H 0.8159 1.1642 0.2077
H4 H 0.8549 1.0787 0.2779
C7 C 0.5980(9) 1.0837(4) 0.1615(5)
C8 C 0.7048(9) 1.0420(5) 0.7199(5)
H5 H 0.6160 1.0506 0.7383
H6 H 0.6735 0.9872 0.6781
C9 C 0.8796(9) 1.0273(5) 0.8137(5)
N1 N 0.7686(8) 1.0291(4) 0.4019(4)
N2 N 0.7318(7) 1.1541(4) 0.4889(4)
N3 N 0.7442(11) 1.0006(3) 0.5466(6)
O1 O 0.8580(7) 0.6689(3) 0.5017(4)
O2 O 0.6890(8) 0.6528(3) 0.5663(5)
O3 O 0.6011(6) 1.0433(3) 0.0898(3)
O4 O 0.4623(6) 1.0870(4) 0.1660(4)
O5 O 1.0156(7) 1.0260(4) 0.8104(4)
O6 O 0.8834(7) 1.0133(3) 0.8970(4)
O7 O 0.5385(8) 0.3787(4) 0.3732(5)
H7 H 0.5919 0.3276 0.3939
H8 H 0.4425 0.3767 0.3729
O8 O 0.9040(8) 0.3439(3) 0.5708(4)
H9 H 0.8397 0.3034 0.5277
H10 H 1.0059 0.3433 0.5781
S1 S 0.7896(3) 0.85839(12) 0.45207(15)
S2 S 0.7539(3) 1.19855(11) 0.33203(12)
S3 S 0.7006(3) 1.13974(12) 0.64630(12)
Pr1C Pr 0.75345(4) 0.99571(2) 0.00254(2)
Pr1A Pr 0.24655(4) 1.00429(2) -0.00254(2)
Pr1A_2 Pr 1.24655(4) 1.00429(2) 0.99746(2)
Pr1C_2 Pr 0.75345(4) 0.99571(2) 1.00254(2)
O3C O 0.6011(6) 0.4567(3) 0.5898(3)
O3A O 0.3989(6) 0.5433(3) 0.4102(3)
O4A O 0.5377(6) 0.5870(4) 0.3340(4)
O5A O 0.9844(7) 0.5260(4) 0.6896(4)
O6C O 0.8834(7) 0.4867(3) 0.3970(4)
O6A O 1.1166(7) 0.5133(3) 0.6030(4)
O9 O 0.2968(17) 0.1886(6) 0.2536(8)
H11 H 0.2606 0.2436 0.2474
H12 H 0.2946 0.1725 0.1999
O10 O 0.150(5) 0.354(3) 0.2198(19)
H13 H 0.0874 0.3816 0.2386
H14 H 0.1464 0.3832 0.1710
loop_
_geom_bond_atom_site_label_1
_geom_bond_atom_site_label_2
_geom_bond_site_symmetry_1
_geom_bond_site_symmetry_2
Pr1 O1 1_555 1_555
C1 N1 1_555 1_555
C2 N1 1_555 1_555
C3 N2 1_555 1_555
C4 H1 1_555 1_555
H2 C4 1_555 1_555
C5 C4 1_555 1_555
C6 H3 1_555 1_555
H4 C6 1_555 1_555
C7 C6 1_555 1_555
C8 H5 1_555 1_555
H6 C8 1_555 1_555
C9 C8 1_555 1_555
N2 C2 1_555 1_555
N3 C1 1_555 1_555
O1 C5 1_555 1_555
O2 Pr1 1_555 1_555
O3 C7 1_555 1_555
O4 C7 1_555 1_555
O5 C9 1_555 1_555
O6 C9 1_555 1_555
O7 Pr1 1_555 1_555
H7 O7 1_555 1_555
H8 O7 1_555 1_555
O8 Pr1 1_555 1_555
H9 O8 1_555 1_555
H10 O8 1_555 1_555
O9 H11 1_555 1_555
H12 O9 1_555 1_555
O10 H13 1_555 1_555
H14 O10 1_555 1_555
S1 C1 1_555 1_555
S2 C2 1_555 1_555
S3 C3 1_555 1_555
Pr1C O3 1_555 1_555
Pr1A O3 1_555 1_555
Pr1A_2 O5 1_555 1_555
Pr1C_2 O6 1_555 1_555
O3C Pr1 1_555 1_555
O3A Pr1 1_555 1_555
O4A Pr1 1_555 1_555
O5A Pr1 1_555 1_555
O6C Pr1 1_555 1_555
O6A Pr1 1_555 1_555
C3 N3 1_555 1_555
C4 S1 1_555 1_555
C5 O2 1_555 1_555
C6 S2 1_555 1_555
C8 S3 1_555 1_555
O4 Pr1A 1_555 1_555
O6 Pr1A_2 1_555 1_555

#END
