
#######################################################################
#
#                 Cambridge Crystallographic Data Centre
#                                CCDC 
#
#######################################################################
#
# If this CIF has been generated from an entry in the Cambridge 
# Structural Database, then it will include bibliographic, chemical, 
# crystal, experimental, refinement or atomic coordinate data resulting 
# from the CCDC's data processing and validation procedures.
#
#######################################################################

data_RIPKIM
_symmetry_cell_setting           monoclinic
_symmetry_space_group_name_H-M   'C 2/c'
_symmetry_Int_Tables_number      15
_space_group_name_Hall           '-C 2yn'
loop_
_symmetry_equiv_pos_site_id
_symmetry_equiv_pos_as_xyz
1 x,y,z
2 -x,y,1/2-z
3 1/2+x,1/2+y,z
4 1/2-x,1/2+y,1/2-z
5 -x,-y,-z
6 x,-y,1/2+z
7 1/2-x,1/2-y,-z
8 1/2+x,1/2-y,1/2+z
_cell_length_a                   28.642(2)
_cell_length_b                   13.1862(11)
_cell_length_c                   8.5395(6)
_cell_angle_alpha                90
_cell_angle_beta                 91.660(5)
_cell_angle_gamma                90
_cell_volume                     3223.84
loop_
_atom_site_label
_atom_site_type_symbol
_atom_site_fract_x
_atom_site_fract_y
_atom_site_fract_z
C1 C 0.34606(16) -0.0262(4) 0.3393(6)
H1 H 0.3233 0.0099 0.3914
C2 C 0.38013(16) 0.0272(4) 0.2630(6)
H2 H 0.3800 0.0977 0.2639
C3 C 0.41442(15) -0.0247(4) 0.1852(5)
C4 C 0.41183(18) -0.1292(4) 0.1841(6)
H3 H 0.4339 -0.1672 0.1318
C5 C 0.37645(18) -0.1769(4) 0.2610(6)
H4 H 0.3748 -0.2473 0.2569
C6 C 0.45244(15) 0.0304(4) 0.1032(5)
C7 C 0.45207(18) 0.1425(4) 0.1080(7)
H5 H 0.4781 0.1682 0.0518
H6 H 0.4544 0.1649 0.2149
H7 H 0.4235 0.1671 0.0605
C8 C 0.21016(15) -0.2346(3) 0.2318(5)
C9 C 0.18721(16) -0.2111(3) 0.0744(5)
H8 H 0.1536 -0.2089 0.0853
H9 H 0.1942 -0.2651 0.0015
C10 C 0.20374(16) -0.1099(3) 0.0076(5)
H10 H 0.2369 -0.1140 -0.0118
H11 H 0.1875 -0.0973 -0.0917
C11 C 0.19484(16) -0.0217(3) 0.1196(5)
H12 H 0.1614 -0.0150 0.1312
H13 H 0.2084 -0.0386 0.2216
C12 C 0.21414(14) 0.0803(3) 0.0696(5)
N1 N 0.34433(12) -0.1269(3) 0.3416(4)
N2 N 0.48203(14) -0.0265(3) 0.0369(5)
O1 O 0.18559(11) -0.2781(3) 0.3329(4)
O2 O 0.18905(10) 0.1562(2) 0.0902(4)
O3 O 0.25200(11) -0.2084(2) 0.2527(4)
O4 O 0.25419(11) 0.0812(2) 0.0139(4)
Cu1 Cu 0.28809(2) -0.20535(4) 0.45252(5)
C1D C 0.65394(16) 0.0262(4) -0.3393(6)
H1D H 0.6767 -0.0099 -0.3914
C2D C 0.61987(16) -0.0272(4) -0.2630(6)
H2D H 0.6200 -0.0977 -0.2639
C3D C 0.58558(15) 0.0247(4) -0.1852(5)
C4D C 0.58817(18) 0.1292(4) -0.1841(6)
H3D H 0.5661 0.1672 -0.1318
C5D C 0.62355(18) 0.1769(4) -0.2610(6)
H4D H 0.6252 0.2473 -0.2569
C6D C 0.54756(15) -0.0304(4) -0.1032(5)
C7D C 0.54793(18) -0.1425(4) -0.1080(7)
H5D H 0.5219 -0.1682 -0.0518
H6D H 0.5456 -0.1649 -0.2149
H7D H 0.5765 -0.1671 -0.0605
N1D N 0.65567(12) 0.1269(3) -0.3416(4)
N2D N 0.51797(14) 0.0265(3) -0.0369(5)
C8D C 0.78984(15) 0.2346(3) -0.2318(5)
C9D C 0.81279(16) 0.2111(3) -0.0744(5)
H8D H 0.8464 0.2089 -0.0853
H9D H 0.8058 0.2651 -0.0015
C10D C 0.79626(16) 0.1099(3) -0.0076(5)
H10D H 0.7631 0.1140 0.0118
H11D H 0.8125 0.0973 0.0917
C11D C 0.80516(16) 0.0217(3) -0.1196(5)
H12D H 0.8386 0.0150 -0.1312
H13D H 0.7916 0.0386 -0.2216
C12D C 0.78586(14) -0.0803(3) -0.0696(5)
O1D O 0.81441(11) 0.2781(3) -0.3329(4)
O2D O 0.81095(10) -0.1562(2) -0.0902(4)
O3D O 0.74800(11) 0.2084(2) -0.2527(4)
O4D O 0.74581(11) -0.0812(2) -0.0139(4)
Cu1D Cu 0.71191(2) 0.20535(4) -0.45252(5)
O1B O 0.68559(11) 0.2219(3) -0.6671(4)
O1F O 0.31441(11) -0.2219(3) 0.6671(4)
O2C O 0.31095(10) -0.3438(2) 0.4098(4)
O2G O 0.68905(10) 0.3438(2) -0.4098(4)
O4A O 0.74581(11) 0.0812(2) -0.5139(4)
O4E O 0.25419(11) -0.0812(2) 0.5139(4)
Cu1A Cu 0.71191(2) -0.20535(4) 0.04748(5)
Cu1B Cu 0.78809(2) 0.29465(4) -0.54748(5)
Cu1C Cu 0.21191(2) 0.29465(4) 0.04748(5)
Cu1E Cu 0.28809(2) 0.20535(4) -0.04748(5)
Cu1F Cu 0.21191(2) -0.29465(4) 0.54748(5)
Cu1G Cu 0.78809(2) -0.29465(4) -0.04748(5)
O5 O 0.0931(6) 0.1037(12) -0.0620(17)
O6 O 0.4388(12) -0.388(3) 0.041(4)
O7 O 0.0366(13) 0.120(3) -0.262(4)
loop_
_geom_bond_atom_site_label_1
_geom_bond_atom_site_label_2
_geom_bond_site_symmetry_1
_geom_bond_site_symmetry_2
C1 H1 1_555 1_555
C2 C1 1_555 1_555
H2 C2 1_555 1_555
C3 C2 1_555 1_555
C4 C3 1_555 1_555
H3 C4 1_555 1_555
C5 C4 1_555 1_555
H4 C5 1_555 1_555
C6 C3 1_555 1_555
C7 C6 1_555 1_555
H5 C7 1_555 1_555
H6 C7 1_555 1_555
H7 C7 1_555 1_555
C8 C9 1_555 1_555
C9 H8 1_555 1_555
H9 C9 1_555 1_555
C10 C9 1_555 1_555
H10 C10 1_555 1_555
H11 C10 1_555 1_555
C11 C10 1_555 1_555
H12 C11 1_555 1_555
H13 C11 1_555 1_555
C12 C11 1_555 1_555
N1 C1 1_555 1_555
N2 C6 1_555 1_555
O1 C8 1_555 1_555
O2 C12 1_555 1_555
O3 C8 1_555 1_555
O4 C12 1_555 1_555
Cu1 N1 1_555 1_555
C1D H1D 1_555 1_555
C2D C1D 1_555 1_555
H2D C2D 1_555 1_555
C3D C2D 1_555 1_555
C4D C3D 1_555 1_555
H3D C4D 1_555 1_555
C5D C4D 1_555 1_555
H4D C5D 1_555 1_555
C6D C3D 1_555 1_555
C7D C6D 1_555 1_555
H5D C7D 1_555 1_555
H6D C7D 1_555 1_555
H7D C7D 1_555 1_555
N1D C1D 1_555 1_555
N2D N2 1_555 1_555
C8D C9D 1_555 1_555
C9D H8D 1_555 1_555
H9D C9D 1_555 1_555
C10D C9D 1_555 1_555
H10D C10D 1_555 1_555
H11D C10D 1_555 1_555
C11D C10D 1_555 1_555
H12D C11D 1_555 1_555
H13D C11D 1_555 1_555
C12D C11D 1_555 1_555
O1D C8D 1_555 1_555
O2D C12D 1_555 1_555
O3D C8D 1_555 1_555
O4D C12D 1_555 1_555
Cu1D N1D 1_555 1_555
O1B Cu1D 1_555 1_555
O1F Cu1 1_555 1_555
O2C Cu1 1_555 1_555
O2G Cu1D 1_555 1_555
O4A Cu1D 1_555 1_555
O4E Cu1 1_555 1_555
Cu1A O4D 1_555 1_555
Cu1B O1D 1_555 1_555
Cu1C O2 1_555 1_555
Cu1E O4 1_555 1_555
Cu1F O1 1_555 1_555
Cu1G O2D 1_555 1_555
C5 N1 1_555 1_555
O3 Cu1 1_555 1_555
Cu1 Cu1F 1_555 1_555
C5D N1D 1_555 1_555
C6D N2D 1_555 1_555
O3D Cu1D 1_555 1_555
Cu1D Cu1B 1_555 1_555
Cu1A Cu1G 1_555 1_555
Cu1C Cu1E 1_555 1_555

#END
