
#######################################################################
#
#                 Cambridge Crystallographic Data Centre
#                                CCDC 
#
#######################################################################
#
# If this CIF has been generated from an entry in the Cambridge 
# Structural Database, then it will include bibliographic, chemical, 
# crystal, experimental, refinement or atomic coordinate data resulting 
# from the CCDC's data processing and validation procedures.
#
#######################################################################

data_RIPKEI
_symmetry_cell_setting           orthorhombic
_symmetry_space_group_name_H-M   'P b c a'
_symmetry_Int_Tables_number      61
_space_group_name_Hall           '-P 2ac 2ab'
loop_
_symmetry_equiv_pos_site_id
_symmetry_equiv_pos_as_xyz
1 x,y,z
2 1/2-x,-y,1/2+z
3 -x,1/2+y,1/2-z
4 1/2+x,1/2-y,-z
5 -x,-y,-z
6 1/2+x,y,1/2-z
7 x,1/2-y,1/2+z
8 1/2-x,1/2+y,z
_cell_length_a                   8.1741(7)
_cell_length_b                   18.8484(15)
_cell_length_c                   36.492(3)
_cell_angle_alpha                90
_cell_angle_beta                 90
_cell_angle_gamma                90
_cell_volume                     5622.28
loop_
_atom_site_label
_atom_site_type_symbol
_atom_site_fract_x
_atom_site_fract_y
_atom_site_fract_z
Cu1 Cu 0.58750(4) 0.054390(18) 0.177793(9)
Cu2 Cu 0.63930(5) 0.09942(2) 0.088265(9)
N1 N 0.5890(3) 0.13235(14) 0.03714(7)
N2 N 0.7434(3) 0.01971(14) 0.05974(7)
N3 N 0.6893(3) 0.13568(13) 0.20537(6)
N4 N 0.5274(3) 0.02719(13) 0.23013(6)
O1 O 0.3913(2) 0.13014(11) 0.15633(6)
O2 O 0.5183(3) 0.18075(11) 0.10833(5)
O3 O -0.1805(3) 0.39962(12) 0.16007(7)
O4 O 0.0342(3) 0.47414(10) 0.15851(6)
O5 O 0.1716(3) 0.14260(12) 0.07230(6)
O6 O 0.0381(3) 0.10281(11) 0.12734(6)
O7 O -0.1062(3) 0.17981(11) 0.08536(6)
O8 O 0.3789(3) 0.02494(13) 0.08781(6)
H1 H 0.3847 0.0113 0.1094
H2 H 0.2966 0.0503 0.0848
O9 O 0.7126(2) 0.06474(10) 0.13430(5)
H3 H 0.8089 0.0765 0.1363
S1 S 0.05104(9) 0.15840(4) 0.10000(2)
C1 C 0.2918(4) 0.23898(15) 0.13420(8)
C2 C 0.1277(3) 0.23457(14) 0.12359(7)
C3 C 0.0245(4) 0.29130(15) 0.13011(7)
H4 H -0.0857 0.2874 0.1241
C4 C 0.0817(4) 0.35398(15) 0.14548(8)
C5 C 0.2466(4) 0.35961(16) 0.15346(9)
H5 H 0.2881 0.4022 0.1624
C6 C 0.3499(4) 0.30296(17) 0.14837(9)
H6 H 0.4600 0.3073 0.1544
C7 C 0.4090(4) 0.17724(15) 0.13277(8)
C8 C -0.0346(4) 0.41309(16) 0.15495(8)
C9 C 0.5118(5) 0.19242(19) 0.02837(9)
H7 H 0.4726 0.2215 0.0470
C10 C 0.4889(6) 0.2124(2) -0.00750(11)
H8 H 0.4349 0.2544 -0.0131
C11 C 0.5468(7) 0.1693(3) -0.03478(11)
H9 H 0.5332 0.1823 -0.0592
C12 C 0.6244(6) 0.1075(2) -0.02625(10)
H10 H 0.6629 0.0777 -0.0447
C13 C 0.6451(4) 0.08957(18) 0.01034(8)
C14 C 0.7273(4) 0.02466(19) 0.02314(8)
C15 C 0.7829(5) -0.0288(2) 0.00020(10)
H11 H 0.7711 -0.0249 -0.0251
C16 C 0.8557(6) -0.0876(2) 0.01529(12)
H12 H 0.8940 -0.1238 0.0003
C17 C 0.8715(6) -0.0926(2) 0.05259(12)
H13 H 0.9204 -0.1321 0.0632
C18 C 0.8132(5) -0.03771(19) 0.07410(10)
H14 H 0.8231 -0.0410 0.0994
C19 C 0.7546(4) 0.19332(16) 0.18999(9)
H15 H 0.7603 0.1961 0.1646
C20 C 0.8143(5) 0.24923(18) 0.21074(10)
H16 H 0.8572 0.2893 0.1994
C21 C 0.8091(5) 0.2446(2) 0.24819(10)
H17 H 0.8505 0.2812 0.2625
C22 C 0.7419(4) 0.18521(19) 0.26446(9)
H18 H 0.7383 0.1811 0.2898
C23 C 0.6800(4) 0.13189(16) 0.24236(8)
C24 C 0.5946(4) 0.06874(16) 0.25629(8)
C25 C 0.5780(4) 0.05264(17) 0.29315(9)
H19 H 0.6270 0.0811 0.3109
C26 C 0.4885(4) -0.00573(18) 0.30319(9)
H20 H 0.4742 -0.0167 0.3278
C27 C 0.4205(4) -0.04779(18) 0.27666(9)
H21 H 0.3598 -0.0876 0.2830
C28 C 0.4435(4) -0.03014(17) 0.24044(9)
H22 H 0.3989 -0.0593 0.2225
Cu1G Cu -0.08750(4) 0.554390(18) 0.177793(9)
Cu2_2 Cu -0.36070(5) 0.09942(2) 0.088265(9)
O4G O 0.4658(3) -0.02586(10) 0.15851(6)
O7_2 O 0.8938(3) 0.17981(11) 0.08536(6)
loop_
_geom_bond_atom_site_label_1
_geom_bond_atom_site_label_2
_geom_bond_site_symmetry_1
_geom_bond_site_symmetry_2
Cu1 N3 1_555 1_555
Cu2 N1 1_555 1_555
N1 C9 1_555 1_555
N2 Cu2 1_555 1_555
N3 C19 1_555 1_555
N4 Cu1 1_555 1_555
O1 Cu1 1_555 1_555
O2 Cu2 1_555 1_555
O3 C8 1_555 1_555
O4 C8 1_555 1_555
O5 S1 1_555 1_555
O6 S1 1_555 1_555
O7 S1 1_555 1_555
O8 Cu2 1_555 1_555
H1 O8 1_555 1_555
H2 O8 1_555 1_555
O9 Cu1 1_555 1_555
H3 O9 1_555 1_555
S1 C2 1_555 1_555
C1 C2 1_555 1_555
C2 C3 1_555 1_555
C3 H4 1_555 1_555
C4 C3 1_555 1_555
C5 C4 1_555 1_555
H5 C5 1_555 1_555
C6 C1 1_555 1_555
H6 C6 1_555 1_555
C7 O1 1_555 1_555
C8 C4 1_555 1_555
C9 H7 1_555 1_555
C10 C9 1_555 1_555
H8 C10 1_555 1_555
C11 C10 1_555 1_555
H9 C11 1_555 1_555
C12 C11 1_555 1_555
H10 C12 1_555 1_555
C13 N1 1_555 1_555
C14 N2 1_555 1_555
C15 C14 1_555 1_555
H11 C15 1_555 1_555
C16 C15 1_555 1_555
H12 C16 1_555 1_555
C17 C16 1_555 1_555
H13 C17 1_555 1_555
C18 N2 1_555 1_555
H14 C18 1_555 1_555
C19 H15 1_555 1_555
C20 C19 1_555 1_555
H16 C20 1_555 1_555
C21 C20 1_555 1_555
H17 C21 1_555 1_555
C22 C21 1_555 1_555
H18 C22 1_555 1_555
C23 N3 1_555 1_555
C24 N4 1_555 1_555
C25 C24 1_555 1_555
H19 C25 1_555 1_555
C26 C25 1_555 1_555
H20 C26 1_555 1_555
C27 C26 1_555 1_555
H21 C27 1_555 1_555
C28 N4 1_555 1_555
H22 C28 1_555 1_555
Cu1G O4 1_555 1_555
Cu2_2 O7 1_555 1_555
O4G Cu1 1_555 1_555
O7_2 Cu2 1_555 1_555
Cu2 O9 1_555 1_555
O2 C7 1_555 1_555
C1 C7 1_555 1_555
C5 C6 1_555 1_555
C12 C13 1_555 1_555
C13 C14 1_555 1_555
C17 C18 1_555 1_555
C22 C23 1_555 1_555
C23 C24 1_555 1_555
C27 C28 1_555 1_555

#END
