
#######################################################################
#
#                 Cambridge Crystallographic Data Centre
#                                CCDC 
#
#######################################################################
#
# If this CIF has been generated from an entry in the Cambridge 
# Structural Database, then it will include bibliographic, chemical, 
# crystal, experimental, refinement or atomic coordinate data resulting 
# from the CCDC's data processing and validation procedures.
#
#######################################################################

data_RIPKAE
_symmetry_cell_setting           monoclinic
_symmetry_space_group_name_H-M   'P 21/n'
_symmetry_Int_Tables_number      14
_space_group_name_Hall           '-P 2yn'
loop_
_symmetry_equiv_pos_site_id
_symmetry_equiv_pos_as_xyz
1 x,y,z
2 1/2-x,1/2+y,1/2-z
3 -x,-y,-z
4 1/2+x,1/2-y,1/2+z
_cell_length_a                   16.5454(15)
_cell_length_b                   12.1635(12)
_cell_length_c                   23.910(2)
_cell_angle_alpha                90
_cell_angle_beta                 96.4940(10)
_cell_angle_gamma                90
_cell_volume                     4781.01
loop_
_atom_site_label
_atom_site_type_symbol
_atom_site_fract_x
_atom_site_fract_y
_atom_site_fract_z
Cu1 Cu 0.54212(2) 0.25991(3) 0.734053(16)
Cu2 Cu 0.53206(2) 0.42812(3) 0.631898(16)
Cu3 Cu 0.41403(2) 0.39112(3) 0.868542(15)
S1 S 0.60939(5) 0.00972(8) 0.61190(4)
S2 S 0.41843(5) 0.64572(7) 0.81907(4)
O1 O 0.57874(13) 0.28204(18) 0.64684(9)
O2 O 0.67954(16) 0.3298(2) 0.59780(11)
O3 O 0.89086(14) -0.00328(19) 0.81049(9)
O4 O 0.87096(13) -0.13282(18) 0.74309(9)
O5 O 0.46313(13) 0.37820(17) 0.70578(9)
O6 O 0.45733(13) 0.3942(2) 0.79558(9)
O7 O 0.18680(13) 0.8239(2) 0.66860(9)
O8 O 0.11105(16) 0.6806(2) 0.64126(13)
O9 O 0.53508(16) 0.0221(3) 0.63605(13)
O10 O 0.63388(18) -0.1021(3) 0.60653(15)
O11 O 0.6088(2) 0.0745(3) 0.56086(12)
O12 O 0.39567(16) 0.5721(2) 0.86315(9)
O13 O 0.50113(16) 0.6329(3) 0.80723(12)
O14 O 0.3956(2) 0.7576(2) 0.83019(12)
N1 N 0.45565(16) 0.1489(2) 0.71859(12)
N2 N 0.59085(17) 0.1419(2) 0.78471(12)
N3 N 0.47830(18) 0.5708(2) 0.61230(12)
N4 N 0.46334(17) 0.3817(2) 0.56337(11)
N5 N 0.38203(16) 0.3757(2) 0.94583(11)
N6 N 0.52519(16) 0.3851(2) 0.91160(11)
C1 C 0.3898(2) 0.1575(3) 0.68121(16)
H1 H 0.3826 0.2216 0.6600
C2 C 0.3325(2) 0.0764(4) 0.67258(18)
H2 H 0.2878 0.0849 0.6456
C3 C 0.3417(3) -0.0169(4) 0.70409(19)
H3 H 0.3030 -0.0725 0.6995
C4 C 0.4100(3) -0.0278(3) 0.74332(18)
H4 H 0.4173 -0.0907 0.7654
C5 C 0.4666(2) 0.0556(3) 0.74911(15)
C6 C 0.5433(2) 0.0531(3) 0.78702(15)
C7 C 0.5676(3) -0.0353(4) 0.82180(19)
H5 H 0.5345 -0.0969 0.8229
C8 C 0.6415(3) -0.0304(4) 0.8546(2)
H6 H 0.6583 -0.0880 0.8787
C9 C 0.6896(3) 0.0598(4) 0.85128(19)
H7 H 0.7403 0.0635 0.8724
C10 C 0.6622(2) 0.1455(3) 0.81630(16)
H8 H 0.6947 0.2076 0.8148
C11 C 0.4894(3) 0.6644(3) 0.64152(18)
H9 H 0.5241 0.6644 0.6750
C12 C 0.4511(3) 0.7603(4) 0.6236(2)
H10 H 0.4597 0.8244 0.6447
C13 C 0.4004(3) 0.7602(4) 0.5747(2)
H11 H 0.3746 0.8247 0.5617
C14 C 0.3874(3) 0.6639(4) 0.5445(2)
H12 H 0.3524 0.6626 0.5112
C15 C 0.4269(2) 0.5700(3) 0.56429(15)
C16 C 0.4188(2) 0.4622(3) 0.53649(14)
C17 C 0.3700(3) 0.4416(4) 0.48688(18)
H13 H 0.3393 0.4976 0.4684
C18 C 0.3674(3) 0.3356(4) 0.4650(2)
H14 H 0.3350 0.3199 0.4316
C19 C 0.4123(3) 0.2554(4) 0.4926(2)
H15 H 0.4113 0.1842 0.4783
C20 C 0.4597(3) 0.2805(3) 0.54207(17)
H16 H 0.4901 0.2250 0.5612
C21 C 0.3063(2) 0.3737(4) 0.95936(16)
H17 H 0.2636 0.3845 0.9311
C22 C 0.2885(3) 0.3563(4) 1.01361(18)
H18 H 0.2349 0.3538 1.0217
C23 C 0.3514(3) 0.3427(4) 1.05511(18)
H19 H 0.3410 0.3314 1.0921
C24 C 0.4307(2) 0.3458(4) 1.04190(15)
H20 H 0.4742 0.3367 1.0697
C25 C 0.4439(2) 0.3628(3) 0.98663(14)
C26 C 0.5258(2) 0.3678(3) 0.96723(14)
C27 C 0.5974(2) 0.3569(4) 1.00222(16)
H21 H 0.5965 0.3468 1.0407
C28 C 0.6700(2) 0.3611(4) 0.97954(17)
H22 H 0.7189 0.3528 1.0025
C29 C 0.6697(2) 0.3776(4) 0.92289(17)
H23 H 0.7183 0.3802 0.9068
C30 C 0.5965(2) 0.3902(3) 0.89022(15)
H24 H 0.5965 0.4028 0.8519
C31 C 0.70191(19) 0.1832(3) 0.66310(13)
C32 C 0.68816(19) 0.0694(3) 0.65972(13)
C33 C 0.7400(2) -0.0013(3) 0.69246(14)
H25 H 0.7311 -0.0767 0.6899
C34 C 0.80449(19) 0.0383(3) 0.72883(13)
C35 C 0.8178(2) 0.1506(3) 0.73213(15)
H26 H 0.8607 0.1785 0.7565
C36 C 0.7674(2) 0.2209(3) 0.69935(15)
H27 H 0.7775 0.2961 0.7016
C37 C 0.86023(18) -0.0393(3) 0.76375(13)
C38 C 0.6504(2) 0.2695(3) 0.63144(13)
C39 C 0.36609(19) 0.5031(3) 0.73071(13)
C40 C 0.35551(18) 0.6043(3) 0.75711(13)
C41 C 0.29494(19) 0.6759(3) 0.73483(13)
H28 H 0.2900 0.7445 0.7513
C42 C 0.2417(2) 0.6463(3) 0.68825(14)
C43 C 0.2498(2) 0.5445(3) 0.66350(16)
H29 H 0.2130 0.5226 0.6332
C44 C 0.3122(2) 0.4760(3) 0.68381(15)
H30 H 0.3187 0.4094 0.6657
C45 C 0.43307(18) 0.4223(3) 0.74682(13)
C46 C 0.1746(2) 0.7213(3) 0.66421(15)
Cu1A Cu 0.95788(2) -0.24009(3) 0.765947(16)
Cu2A Cu 0.96794(2) -0.07188(3) 0.868102(16)
Cu3A Cu 0.08597(2) 0.89112(3) 0.631458(15)
O3A O 0.60914(14) 0.49672(19) 0.68951(9)
O4A O 0.62904(13) 0.36718(18) 0.75691(9)
O7A O 0.31320(13) 0.3239(2) 0.83140(9)
O8A O 0.38895(16) 0.1806(2) 0.85874(13)
O15 O 0.6201(3) -0.0198(4) 0.44941(17)
H31 H 0.6099 -0.0065 0.4828
H32 H 0.5750 -0.0295 0.4292
O16 O 0.2628(5) 0.7913(6) 0.9076(3)
H33 H 0.2981 0.7836 0.8847
H34 H 0.2834 0.8340 0.9336
O17 O 0.3362(8) 0.9425(15) 0.9985(5)
O18 O 0.0137(9) 0.5907(7) 0.5534(4)
H35 H -0.0349 0.5821 0.5383
H36 H 0.0444 0.6187 0.5805
O19 O 0.0397(11) 0.3870(10) 0.5679(5)
H37 H 0.0711 0.3413 0.5863
H38 H 0.0241 0.3940 0.5329
loop_
_geom_bond_atom_site_label_1
_geom_bond_atom_site_label_2
_geom_bond_site_symmetry_1
_geom_bond_site_symmetry_2
Cu1 O1 1_555 1_555
Cu2 O1 1_555 1_555
Cu3 O6 1_555 1_555
S1 O9 1_555 1_555
S2 O12 1_555 1_555
O1 C38 1_555 1_555
O2 C38 1_555 1_555
O3 C37 1_555 1_555
O4 C37 1_555 1_555
O5 Cu1 1_555 1_555
O6 Cu1 1_555 1_555
O7 C46 1_555 1_555
O8 C46 1_555 1_555
O10 S1 1_555 1_555
O11 S1 1_555 1_555
O12 Cu3 1_555 1_555
O13 S2 1_555 1_555
O14 S2 1_555 1_555
N1 Cu1 1_555 1_555
N2 Cu1 1_555 1_555
N3 Cu2 1_555 1_555
N4 Cu2 1_555 1_555
N5 Cu3 1_555 1_555
N6 Cu3 1_555 1_555
C1 N1 1_555 1_555
H1 C1 1_555 1_555
C2 C1 1_555 1_555
H2 C2 1_555 1_555
C3 C2 1_555 1_555
H3 C3 1_555 1_555
C4 C3 1_555 1_555
H4 C4 1_555 1_555
C5 N1 1_555 1_555
C6 N2 1_555 1_555
C7 C6 1_555 1_555
H5 C7 1_555 1_555
C8 C7 1_555 1_555
H6 C8 1_555 1_555
C9 C8 1_555 1_555
H7 C9 1_555 1_555
C10 N2 1_555 1_555
H8 C10 1_555 1_555
C11 N3 1_555 1_555
H9 C11 1_555 1_555
C12 C11 1_555 1_555
H10 C12 1_555 1_555
C13 C12 1_555 1_555
H11 C13 1_555 1_555
C14 C13 1_555 1_555
H12 C14 1_555 1_555
C15 N3 1_555 1_555
C16 N4 1_555 1_555
C17 C16 1_555 1_555
H13 C17 1_555 1_555
C18 C17 1_555 1_555
H14 C18 1_555 1_555
C19 C18 1_555 1_555
H15 C19 1_555 1_555
C20 N4 1_555 1_555
H16 C20 1_555 1_555
C21 N5 1_555 1_555
H17 C21 1_555 1_555
C22 C21 1_555 1_555
H18 C22 1_555 1_555
C23 C22 1_555 1_555
H19 C23 1_555 1_555
C24 C23 1_555 1_555
H20 C24 1_555 1_555
C25 N5 1_555 1_555
C26 N6 1_555 1_555
C27 C26 1_555 1_555
H21 C27 1_555 1_555
C28 C27 1_555 1_555
H22 C28 1_555 1_555
C29 C28 1_555 1_555
H23 C29 1_555 1_555
C30 N6 1_555 1_555
H24 C30 1_555 1_555
C31 C32 1_555 1_555
C32 S1 1_555 1_555
C33 C32 1_555 1_555
H25 C33 1_555 1_555
C34 C33 1_555 1_555
C35 C34 1_555 1_555
H26 C35 1_555 1_555
C36 C31 1_555 1_555
H27 C36 1_555 1_555
C37 C34 1_555 1_555
C38 C31 1_555 1_555
C39 C40 1_555 1_555
C40 S2 1_555 1_555
C41 C40 1_555 1_555
H28 C41 1_555 1_555
C42 C41 1_555 1_555
C43 C42 1_555 1_555
H29 C43 1_555 1_555
C44 C39 1_555 1_555
H30 C44 1_555 1_555
C45 O5 1_555 1_555
C46 C42 1_555 1_555
O15 H31 1_555 1_555
H32 O15 1_555 1_555
O16 H33 1_555 1_555
H34 O16 1_555 1_555
O18 H35 1_555 1_555
H36 O18 1_555 1_555
O19 H37 1_555 1_555
H38 O19 1_555 1_555
Cu1A O4 1_555 1_555
Cu2A O3 1_555 1_555
Cu3A O7 1_555 1_555
O3A Cu2 1_555 1_555
O4A Cu1 1_555 1_555
O7A Cu3 1_555 1_555
O8A Cu3 1_555 1_555
Cu2 O5 1_555 1_555
O6 C45 1_555 1_555
O8 Cu3A 1_555 1_555
C4 C5 1_555 1_555
C5 C6 1_555 1_555
C9 C10 1_555 1_555
C14 C15 1_555 1_555
C15 C16 1_555 1_555
C19 C20 1_555 1_555
C24 C25 1_555 1_555
C25 C26 1_555 1_555
C29 C30 1_555 1_555
C35 C36 1_555 1_555
C39 C45 1_555 1_555
C43 C44 1_555 1_555

#END
