
#######################################################################
#
#                 Cambridge Crystallographic Data Centre
#                                CCDC 
#
#######################################################################
#
# If this CIF has been generated from an entry in the Cambridge 
# Structural Database, then it will include bibliographic, chemical, 
# crystal, experimental, refinement or atomic coordinate data resulting 
# from the CCDC's data processing and validation procedures.
#
#######################################################################

data_RIPKOS
_symmetry_cell_setting           monoclinic
_symmetry_space_group_name_H-M   'C 2/c'
_symmetry_Int_Tables_number      15
_space_group_name_Hall           '-C 2yn'
loop_
_symmetry_equiv_pos_site_id
_symmetry_equiv_pos_as_xyz
1 x,y,z
2 -x,y,1/2-z
3 1/2+x,1/2+y,z
4 1/2-x,1/2+y,1/2-z
5 -x,-y,-z
6 x,-y,1/2+z
7 1/2-x,1/2-y,-z
8 1/2+x,1/2-y,1/2+z
_cell_length_a                   29.2971(11)
_cell_length_b                   13.1552(4)
_cell_length_c                   8.5923(3)
_cell_angle_alpha                90
_cell_angle_beta                 90.723(4)
_cell_angle_gamma                90
_cell_volume                     3311.29
loop_
_atom_site_label
_atom_site_type_symbol
_atom_site_fract_x
_atom_site_fract_y
_atom_site_fract_z
Cu1 Cu 0.213094(14) -0.20401(4) 0.44769(5)
O1 O 0.24830(10) -0.2055(2) 0.2542(3)
O2 O 0.31177(10) -0.2797(2) 0.3417(3)
O3 O 0.30919(9) 0.1581(2) 0.0994(3)
O4 O 0.24663(10) 0.0800(2) 0.0125(4)
N1 N 0.15718(11) -0.1254(3) 0.3325(4)
C1 C 0.08660(13) -0.0234(4) 0.1789(5)
N2 N 0.01833(13) -0.0268(4) 0.0368(5)
C2 C 0.31124(15) -0.2109(3) 0.0868(5)
H1 H 0.3045 -0.2653 0.0138
H2 H 0.3441 -0.2089 0.1028
C3 C 0.30579(15) -0.0207(3) 0.1228(5)
H3 H 0.3387 -0.0132 0.1315
H4 H 0.2946 -0.0369 0.2256
C4 C 0.28887(13) -0.2340(3) 0.2386(5)
C5 C 0.28561(13) 0.0808(3) 0.0729(4)
C6 C 0.12232(15) 0.0273(4) 0.2443(6)
H5 H 0.1236 0.0979 0.2387
C7 C 0.15685(15) -0.0260(4) 0.3194(6)
H6 H 0.1811 0.0105 0.3627
C8 C 0.29550(15) -0.1098(3) 0.0160(5)
H7 H 0.3107 -0.0994 -0.0824
H8 H 0.2629 -0.1127 -0.0047
C9 C 0.04819(14) 0.0311(4) 0.1020(5)
C10 C 0.08728(16) -0.1277(4) 0.1901(6)
H9 H 0.0638 -0.1661 0.1462
C11 C 0.12292(17) -0.1749(4) 0.2666(7)
H10 H 0.1229 -0.2455 0.2722
C12 C 0.04760(19) 0.1442(5) 0.1082(7)
H11 H 0.0210 0.1691 0.0539
H12 H 0.0745 0.1704 0.0599
H13 H 0.0469 0.1660 0.2148
N1D N -0.15718(11) 0.1254(3) -0.3325(4)
C1D C -0.08660(13) 0.0234(4) -0.1789(5)
N2D N -0.01833(13) 0.0268(4) -0.0368(5)
C6D C -0.12232(15) -0.0273(4) -0.2443(6)
H5D H -0.1236 -0.0979 -0.2387
C7D C -0.15685(15) 0.0260(4) -0.3194(6)
H6D H -0.1811 -0.0105 -0.3627
C9D C -0.04819(14) -0.0311(4) -0.1020(5)
C10D C -0.08728(16) 0.1277(4) -0.1901(6)
H9D H -0.0638 0.1661 -0.1462
C11D C -0.12292(17) 0.1749(4) -0.2666(7)
H10D H -0.1229 0.2455 -0.2722
C12D C -0.04760(19) -0.1442(5) -0.1082(7)
H11D H -0.0210 -0.1691 -0.0539
H12D H -0.0745 -0.1704 -0.0599
H13D H -0.0469 -0.1660 -0.2148
Cu1D Cu -0.213094(14) 0.20401(4) -0.44769(5)
O1D O -0.24830(10) 0.2055(2) -0.2542(3)
O2D O -0.31177(10) 0.2797(2) -0.3417(3)
O3D O -0.30919(9) -0.1581(2) -0.0994(3)
O4D O -0.24663(10) -0.0800(2) -0.0125(4)
C2D C -0.31124(15) 0.2109(3) -0.0868(5)
H1D H -0.3045 0.2653 -0.0138
H2D H -0.3441 0.2089 -0.1028
C3D C -0.30579(15) 0.0207(3) -0.1228(5)
H3D H -0.3387 0.0132 -0.1315
H4D H -0.2946 0.0369 -0.2256
C4D C -0.28887(13) 0.2340(3) -0.2386(5)
C5D C -0.28561(13) -0.0808(3) -0.0729(4)
C8D C -0.29550(15) 0.1098(3) -0.0160(5)
H7D H -0.3107 0.0994 0.0824
H8D H -0.2629 0.1127 0.0047
Cu1A Cu -0.213094(14) -0.20401(4) 0.05231(5)
Cu1B Cu -0.286906(14) 0.29599(4) -0.55231(5)
Cu1C Cu 0.286906(14) 0.29599(4) 0.05231(5)
Cu1E Cu 0.213094(14) 0.20401(4) -0.05231(5)
Cu1F Cu 0.286906(14) -0.29599(4) 0.55231(5)
Cu1G Cu -0.286906(14) -0.29599(4) -0.05231(5)
O2B O -0.18823(10) 0.2203(2) -0.6583(3)
O2F O 0.18823(10) -0.2203(2) 0.6583(3)
O3C O 0.19081(9) -0.3419(2) 0.4006(3)
O3G O -0.19081(9) 0.3419(2) -0.4006(3)
O4A O -0.24663(10) 0.0800(2) -0.5125(4)
O4E O 0.24663(10) -0.0800(2) 0.5125(4)
loop_
_geom_bond_atom_site_label_1
_geom_bond_atom_site_label_2
_geom_bond_site_symmetry_1
_geom_bond_site_symmetry_2
Cu1 O1 1_555 1_555
O1 C4 1_555 1_555
O2 C4 1_555 1_555
O3 C5 1_555 1_555
O4 C5 1_555 1_555
N1 Cu1 1_555 1_555
C1 C6 1_555 1_555
N2 C9 1_555 1_555
C2 H1 1_555 1_555
H2 C2 1_555 1_555
C3 H3 1_555 1_555
H4 C3 1_555 1_555
C4 C2 1_555 1_555
C5 C3 1_555 1_555
C6 H5 1_555 1_555
C7 N1 1_555 1_555
H6 C7 1_555 1_555
C8 C2 1_555 1_555
H7 C8 1_555 1_555
H8 C8 1_555 1_555
C9 C1 1_555 1_555
C10 C1 1_555 1_555
H9 C10 1_555 1_555
C11 N1 1_555 1_555
H10 C11 1_555 1_555
C12 C9 1_555 1_555
H11 C12 1_555 1_555
H12 C12 1_555 1_555
H13 C12 1_555 1_555
N1D C7D 1_555 1_555
C1D C6D 1_555 1_555
N2D N2 1_555 1_555
C6D H5D 1_555 1_555
C7D C6D 1_555 1_555
H6D C7D 1_555 1_555
C9D C1D 1_555 1_555
C10D C1D 1_555 1_555
H9D C10D 1_555 1_555
C11D N1D 1_555 1_555
H10D C11D 1_555 1_555
C12D C9D 1_555 1_555
H11D C12D 1_555 1_555
H12D C12D 1_555 1_555
H13D C12D 1_555 1_555
Cu1D N1D 1_555 1_555
O1D Cu1D 1_555 1_555
O2D C4D 1_555 1_555
O3D C5D 1_555 1_555
O4D C5D 1_555 1_555
C2D H1D 1_555 1_555
H2D C2D 1_555 1_555
C3D H3D 1_555 1_555
H4D C3D 1_555 1_555
C4D O1D 1_555 1_555
C5D C3D 1_555 1_555
C8D C2D 1_555 1_555
H7D C8D 1_555 1_555
H8D C8D 1_555 1_555
Cu1A O4D 1_555 1_555
Cu1B Cu1D 1_555 1_555
Cu1C O3 1_555 1_555
Cu1E O4 1_555 1_555
Cu1F Cu1 1_555 1_555
Cu1G O3D 1_555 1_555
O2B Cu1D 1_555 1_555
O2F Cu1 1_555 1_555
O3C Cu1 1_555 1_555
O3G Cu1D 1_555 1_555
O4A Cu1D 1_555 1_555
O4E Cu1 1_555 1_555
O2 Cu1F 1_555 1_555
C3 C8 1_555 1_555
C6 C7 1_555 1_555
C10 C11 1_555 1_555
N2D C9D 1_555 1_555
C10D C11D 1_555 1_555
O2D Cu1B 1_555 1_555
C2D C4D 1_555 1_555
C3D C8D 1_555 1_555
Cu1A Cu1G 1_555 1_555
Cu1C Cu1E 1_555 1_555

#END
