
#######################################################################
#
#                 Cambridge Crystallographic Data Centre
#                                CCDC 
#
#######################################################################
#
# If this CIF has been generated from an entry in the Cambridge 
# Structural Database, then it will include bibliographic, chemical, 
# crystal, experimental, refinement or atomic coordinate data resulting 
# from the CCDC's data processing and validation procedures.
#
#######################################################################

data_RIPKIM01
_symmetry_cell_setting           monoclinic
_symmetry_space_group_name_H-M   'C 2/c'
_symmetry_Int_Tables_number      15
_space_group_name_Hall           '-C 2yn'
loop_
_symmetry_equiv_pos_site_id
_symmetry_equiv_pos_as_xyz
1 x,y,z
2 -x,y,1/2-z
3 1/2+x,1/2+y,z
4 1/2-x,1/2+y,1/2-z
5 -x,-y,-z
6 x,-y,1/2+z
7 1/2-x,1/2-y,-z
8 1/2+x,1/2-y,1/2+z
_cell_length_a                   29.135(5)
_cell_length_b                   13.191(5)
_cell_length_c                   8.599(5)
_cell_angle_alpha                90
_cell_angle_beta                 90.247(5)
_cell_angle_gamma                90
_cell_volume                     3304.74
loop_
_atom_site_label
_atom_site_type_symbol
_atom_site_fract_x
_atom_site_fract_y
_atom_site_fract_z
C1 C 0.37646(18) -0.1746(3) 0.7388(6)
H1 H 0.3761 -0.2451 0.7373
C2 C 0.41149(17) -0.1275(4) 0.8167(6)
H2 H 0.4338 -0.1660 0.8670
C3 C 0.41390(14) -0.0242(3) 0.8211(5)
C4 C 0.37858(15) 0.0271(3) 0.7475(6)
H3 H 0.3778 0.0975 0.7493
C5 C 0.34447(16) -0.0262(3) 0.6716(6)
H4 H 0.3213 0.0102 0.6221
C6 C 0.45202(14) 0.0304(4) 0.9001(5)
C7 C 0.45216(19) 0.1425(4) 0.8969(7)
H5 H 0.4787 0.1673 0.9515
H6 H 0.4249 0.1676 0.9463
H7 H 0.4529 0.1655 0.7911
C8 C 0.21112(14) -0.2334(3) 0.7620(4)
C9 C 0.18851(16) -0.2100(3) 0.9152(4)
H8 H 0.1951 -0.2642 0.9882
H9 H 0.1555 -0.2071 0.9003
C10 C 0.20519(15) -0.1095(3) 0.9834(4)
H10 H 0.1903 -0.0981 1.0825
H11 H 0.2380 -0.1135 1.0022
C11 C 0.19527(15) -0.0210(3) 0.8764(5)
H12 H 0.1622 -0.0144 0.8655
H13 H 0.2075 -0.0367 0.7744
C12 C 0.21454(13) 0.0808(3) 0.9275(4)
N1 N 0.34310(11) -0.1264(2) 0.6655(4)
N2 N 0.48184(14) -0.0265(3) 0.9640(5)
O1 O 0.25193(10) -0.2070(2) 0.7458(3)
O2 O 0.18730(11) -0.2778(2) 0.6600(3)
O3 O 0.19042(10) 0.1567(2) 0.9037(3)
O4 O 0.25385(10) 0.08120(18) 0.9855(3)
Cu1 Cu 0.28745(2) -0.20482(3) 0.55066(5)
C1D C 0.62354(18) 0.1746(3) 1.2612(6)
H1D H 0.6239 0.2451 1.2627
C2D C 0.58851(17) 0.1275(4) 1.1833(6)
H2D H 0.5662 0.1660 1.1330
C3D C 0.58610(14) 0.0242(3) 1.1789(5)
C4D C 0.62142(15) -0.0271(3) 1.2525(6)
H3D H 0.6222 -0.0975 1.2507
C5D C 0.65553(16) 0.0262(3) 1.3284(6)
H4D H 0.6787 -0.0102 1.3779
C6D C 0.54798(14) -0.0304(4) 1.0999(5)
C7D C 0.54784(19) -0.1425(4) 1.1031(7)
H5D H 0.5213 -0.1673 1.0485
H6D H 0.5751 -0.1676 1.0537
H7D H 0.5471 -0.1655 1.2089
N1D N 0.65690(11) 0.1264(2) 1.3345(4)
N2D N 0.51816(14) 0.0265(3) 1.0360(5)
C8D C 0.78888(14) 0.2334(3) 1.2380(4)
C9D C 0.81149(16) 0.2100(3) 1.0848(4)
H8D H 0.8049 0.2642 1.0118
H9D H 0.8445 0.2071 1.0997
C10D C 0.79481(15) 0.1095(3) 1.0166(4)
H10D H 0.8097 0.0981 0.9175
H11D H 0.7620 0.1135 0.9978
C11D C 0.80473(15) 0.0210(3) 1.1236(5)
H12D H 0.8378 0.0144 1.1345
H13D H 0.7925 0.0367 1.2256
C12D C 0.78546(13) -0.0808(3) 1.0725(4)
O1D O 0.74807(10) 0.2070(2) 1.2542(3)
O2D O 0.81270(11) 0.2778(2) 1.3400(3)
O3D O 0.80958(10) -0.1567(2) 1.0963(3)
O4D O 0.74615(10) -0.08120(18) 1.0145(3)
Cu1D Cu 0.71255(2) 0.20482(3) 1.44934(5)
O2B O 0.68730(11) 0.2222(2) 1.6600(3)
O2F O 0.31270(11) -0.2222(2) 0.3400(3)
O3C O 0.30958(10) -0.3433(2) 0.5963(3)
O3G O 0.69042(10) 0.3433(2) 1.4037(3)
O4A O 0.74615(10) 0.08120(18) 1.5145(3)
O4E O 0.25385(10) -0.08120(18) 0.4855(3)
Cu1A Cu 0.71255(2) -0.20482(3) 0.94934(5)
Cu1B Cu 0.78745(2) 0.29518(3) 1.55066(5)
Cu1C Cu 0.21255(2) 0.29518(3) 0.94934(5)
Cu1E Cu 0.28745(2) 0.20482(3) 1.05066(5)
Cu1F Cu 0.21255(2) -0.29518(3) 0.44934(5)
Cu1G Cu 0.78745(2) -0.29518(3) 1.05066(5)
O5 O 0.4007(5) 0.3852(12) 0.9140(16)
O6 O 0.442(2) 0.606(5) 0.901(6)
O7 O 0.4567(14) -0.379(3) 1.183(5)
loop_
_geom_bond_atom_site_label_1
_geom_bond_atom_site_label_2
_geom_bond_site_symmetry_1
_geom_bond_site_symmetry_2
C1 H1 1_555 1_555
C2 C1 1_555 1_555
H2 C2 1_555 1_555
C3 C2 1_555 1_555
C4 C3 1_555 1_555
H3 C4 1_555 1_555
C5 C4 1_555 1_555
H4 C5 1_555 1_555
C6 C3 1_555 1_555
C7 C6 1_555 1_555
H5 C7 1_555 1_555
H6 C7 1_555 1_555
H7 C7 1_555 1_555
C8 C9 1_555 1_555
C9 H8 1_555 1_555
H9 C9 1_555 1_555
C10 C9 1_555 1_555
H10 C10 1_555 1_555
H11 C10 1_555 1_555
C11 C10 1_555 1_555
H12 C11 1_555 1_555
H13 C11 1_555 1_555
C12 C11 1_555 1_555
N1 C1 1_555 1_555
N2 C6 1_555 1_555
O1 C8 1_555 1_555
O2 C8 1_555 1_555
O3 C12 1_555 1_555
O4 C12 1_555 1_555
Cu1 N1 1_555 1_555
C1D H1D 1_555 1_555
C2D C1D 1_555 1_555
H2D C2D 1_555 1_555
C3D C2D 1_555 1_555
C4D C3D 1_555 1_555
H3D C4D 1_555 1_555
C5D C4D 1_555 1_555
H4D C5D 1_555 1_555
C6D C3D 1_555 1_555
C7D C6D 1_555 1_555
H5D C7D 1_555 1_555
H6D C7D 1_555 1_555
H7D C7D 1_555 1_555
N1D C1D 1_555 1_555
N2D N2 1_555 1_555
C8D C9D 1_555 1_555
C9D H8D 1_555 1_555
H9D C9D 1_555 1_555
C10D C9D 1_555 1_555
H10D C10D 1_555 1_555
H11D C10D 1_555 1_555
C11D C10D 1_555 1_555
H12D C11D 1_555 1_555
H13D C11D 1_555 1_555
C12D C11D 1_555 1_555
O1D C8D 1_555 1_555
O2D C8D 1_555 1_555
O3D C12D 1_555 1_555
O4D C12D 1_555 1_555
Cu1D N1D 1_555 1_555
O2B Cu1D 1_555 1_555
O2F Cu1 1_555 1_555
O3C Cu1 1_555 1_555
O3G Cu1D 1_555 1_555
O4A Cu1D 1_555 1_555
O4E Cu1 1_555 1_555
Cu1A O4D 1_555 1_555
Cu1B O2D 1_555 1_555
Cu1C O3 1_555 1_555
Cu1E O4 1_555 1_555
Cu1F O2 1_555 1_555
Cu1G O3D 1_555 1_555
C5 N1 1_555 1_555
O1 Cu1 1_555 1_555
Cu1 Cu1F 1_555 1_555
C5D N1D 1_555 1_555
C6D N2D 1_555 1_555
O1D Cu1D 1_555 1_555
Cu1D Cu1B 1_555 1_555
Cu1A Cu1G 1_555 1_555
Cu1C Cu1E 1_555 1_555

#END
