
#######################################################################
#
#                 Cambridge Crystallographic Data Centre
#                                CCDC 
#
#######################################################################
#
# If this CIF has been generated from an entry in the Cambridge 
# Structural Database, then it will include bibliographic, chemical, 
# crystal, experimental, refinement or atomic coordinate data resulting 
# from the CCDC's data processing and validation procedures.
#
#######################################################################

data_RIPLEJ
_symmetry_cell_setting           monoclinic
_symmetry_space_group_name_H-M   'P 21/n'
_symmetry_Int_Tables_number      14
_space_group_name_Hall           '-P 2yn'
loop_
_symmetry_equiv_pos_site_id
_symmetry_equiv_pos_as_xyz
1 x,y,z
2 1/2-x,1/2+y,1/2-z
3 -x,-y,-z
4 1/2+x,1/2-y,1/2+z
_cell_length_a                   9.0842(2)
_cell_length_b                   14.7259(4)
_cell_length_c                   10.7959(3)
_cell_angle_alpha                90
_cell_angle_beta                 107.0830(10)
_cell_angle_gamma                90
_cell_volume                     1380.48
loop_
_atom_site_label
_atom_site_type_symbol
_atom_site_fract_x
_atom_site_fract_y
_atom_site_fract_z
O1 O 1.0505(2) 0.39260(13) -0.31942(16)
O2 O 0.4753(2) 0.08731(15) -0.19180(16)
O3 O 0.84115(19) 0.39496(13) -0.48941(18)
N1 N 1.4274(2) 0.00952(14) 0.4562(2)
H1 H 1.342(3) -0.0766(19) 0.554(3)
Zn1 Zn 0.64356(2) -0.00088(2) 0.11179(2)
C1 C 0.8409(2) 0.29787(14) -0.3174(2)
C2 C 0.6887(2) 0.17629(14) -0.1989(2)
O4 O 0.68520(18) 0.08410(13) -0.02230(17)
C3 C 0.8985(2) -0.07542(15) 0.3301(2)
H2 H 0.8224 -0.1148 0.3394
C4 C 0.6902(2) 0.27067(14) -0.3801(2)
H3 H 0.6401 0.2933 -0.4621
C5 C 0.6100(2) 0.11077(14) -0.1324(2)
C6 C 1.0466(2) -0.08550(15) 0.4124(2)
H4 H 1.0689 -0.1304 0.4759
C7 C 0.6144(2) 0.21041(15) -0.3215(2)
H5 H 0.5139 0.1928 -0.3641
C8 C 1.1612(2) -0.02736(16) 0.3985(2)
N2 N 0.8598(2) -0.01147(12) 0.23756(18)
C9 C 0.8398(3) 0.20285(17) -0.1370(2)
H6 H 0.8904 0.1796 -0.0555
C10 C 0.9169(2) 0.36711(14) -0.3805(2)
C11 C 0.9155(2) 0.26337(16) -0.1952(2)
H7 H 1.0161 0.2809 -0.1527
C12 C 1.3210(2) -0.03613(16) 0.4830(2)
C13 C 1.1211(3) 0.03944(19) 0.3037(2)
H8 H 1.1949 0.0798 0.2925
C14 C 0.9706(3) 0.04526(18) 0.2263(2)
H9 H 0.9449 0.0905 0.1635
N1B N 1.5726(2) -0.00952(14) 0.5438(2)
H1B H 1.658(3) 0.0766(19) 0.446(3)
C3B C 2.1015(2) 0.07542(15) 0.6699(2)
H2B H 2.1776 0.1148 0.6606
C6B C 1.9534(2) 0.08550(15) 0.5876(2)
H4B H 1.9311 0.1304 0.5241
C8B C 1.8388(2) 0.02736(16) 0.6015(2)
N2B N 2.1402(2) 0.01147(12) 0.76244(18)
C12B C 1.6790(2) 0.03613(16) 0.5170(2)
C13B C 1.8789(3) -0.03944(19) 0.6963(2)
H8B H 1.8051 -0.0798 0.7075
C14B C 2.0294(3) -0.04526(18) 0.7737(2)
H9B H 2.0551 -0.0905 0.8365
O1B O -0.0505(2) -0.39260(13) 0.31942(16)
O2B O 0.5247(2) -0.08731(15) 0.19180(16)
O3B O 0.15885(19) -0.39496(13) 0.48941(18)
Zn1B Zn 0.35644(2) 0.00088(2) -0.11179(2)
C1B C 0.1591(2) -0.29787(14) 0.3174(2)
C2B C 0.3113(2) -0.17629(14) 0.1989(2)
O4B O 0.31480(18) -0.08410(13) 0.02230(17)
C4B C 0.3098(2) -0.27067(14) 0.3801(2)
H3B H 0.3599 -0.2933 0.4621
C5B C 0.3900(2) -0.11077(14) 0.1324(2)
C7B C 0.3856(2) -0.21041(15) 0.3215(2)
H5B H 0.4861 -0.1928 0.3641
C9B C 0.1602(3) -0.20285(17) 0.1370(2)
H6B H 0.1096 -0.1796 0.0555
C10B C 0.0831(2) -0.36711(14) 0.3805(2)
C11B C 0.0845(2) -0.26337(16) 0.1952(2)
H7B H -0.0161 -0.2809 0.1527
O1A O 0.4495(2) -0.10740(13) -0.18058(16)
O1C O 0.5505(2) 0.10740(13) 0.18058(16)
O3A O 0.65885(19) -0.10504(13) -0.01059(18)
O3C O 0.34115(19) 0.10504(13) 0.01059(18)
Zn1A Zn -0.14356(2) -0.50088(2) 0.38821(2)
Zn1A_2 Zn 0.85644(2) 0.49912(2) -0.61179(2)
Zn1B_2 Zn 2.35644(2) 0.00088(2) 0.88821(2)
Zn1C Zn 0.14356(2) -0.49912(2) 0.61179(2)
Zn1C_2 Zn 1.14356(2) 0.50088(2) -0.38821(2)
N2B_2 N 0.1402(2) 0.01147(12) -0.23756(18)
O5 O 1.3209(3) 0.28274(19) -0.1693(3)
H10 H 1.3652 0.2338 -0.1797
H11 H 1.2352 0.2873 -0.2281
loop_
_geom_bond_atom_site_label_1
_geom_bond_atom_site_label_2
_geom_bond_site_symmetry_1
_geom_bond_site_symmetry_2
O1 C10 1_555 1_555
O2 C5 1_555 1_555
O3 C10 1_555 1_555
N1 C12 1_555 1_555
H1 C12 1_555 1_555
Zn1 O4 1_555 1_555
C1 C4 1_555 1_555
C2 C5 1_555 1_555
O4 C5 1_555 1_555
C3 H2 1_555 1_555
C4 H3 1_555 1_555
C6 C3 1_555 1_555
H4 C6 1_555 1_555
C7 C2 1_555 1_555
H5 C7 1_555 1_555
C8 C6 1_555 1_555
N2 Zn1 1_555 1_555
C9 C2 1_555 1_555
H6 C9 1_555 1_555
C10 C1 1_555 1_555
C11 C1 1_555 1_555
H7 C11 1_555 1_555
C12 C8 1_555 1_555
C13 C8 1_555 1_555
H8 C13 1_555 1_555
C14 N2 1_555 1_555
H9 C14 1_555 1_555
O5 H10 1_555 1_555
H11 O5 1_555 1_555
N1B N1 1_555 1_555
H1B C12B 1_555 1_555
C3B H2B 1_555 1_555
C6B C3B 1_555 1_555
H4B C6B 1_555 1_555
C8B C6B 1_555 1_555
N2B C3B 1_555 1_555
C12B N1B 1_555 1_555
C13B C8B 1_555 1_555
H8B C13B 1_555 1_555
C14B N2B 1_555 1_555
H9B C14B 1_555 1_555
O1B C10B 1_555 1_555
O2B Zn1 1_555 1_555
O3B C10B 1_555 1_555
Zn1B O2 1_555 1_555
C1B C4B 1_555 1_555
C2B C5B 1_555 1_555
O4B Zn1B 1_555 1_555
C4B H3B 1_555 1_555
C5B O2B 1_555 1_555
C7B C2B 1_555 1_555
H5B C7B 1_555 1_555
C9B C2B 1_555 1_555
H6B C9B 1_555 1_555
C10B C1B 1_555 1_555
C11B C1B 1_555 1_555
H7B C11B 1_555 1_555
O1A Zn1B 1_555 1_555
O1C Zn1 1_555 1_555
O3A Zn1 1_555 1_555
O3C Zn1B 1_555 1_555
Zn1A O1B 1_555 1_555
Zn1A_2 O3 1_555 1_555
Zn1B_2 N2B 1_555 1_555
Zn1C O3B 1_555 1_555
Zn1C_2 O1 1_555 1_555
N2B_2 Zn1B 1_555 1_555
C3 N2 1_555 1_555
C4 C7 1_555 1_555
C9 C11 1_555 1_555
C13 C14 1_555 1_555
C8B C12B 1_555 1_555
C13B C14B 1_555 1_555
O4B C5B 1_555 1_555
C4B C7B 1_555 1_555
C9B C11B 1_555 1_555

#END
