
#######################################################################
#
#                 Cambridge Crystallographic Data Centre
#                                CCDC 
#
#######################################################################
#
# If this CIF has been generated from an entry in the Cambridge 
# Structural Database, then it will include bibliographic, chemical, 
# crystal, experimental, refinement or atomic coordinate data resulting 
# from the CCDC's data processing and validation procedures.
#
#######################################################################

data_RIPPAJ
_symmetry_cell_setting           rhombohedral
_symmetry_space_group_name_H-M   'R -3'
_symmetry_Int_Tables_number      148
_space_group_name_Hall           '-R 3'
loop_
_symmetry_equiv_pos_site_id
_symmetry_equiv_pos_as_xyz
1 x,y,z
2 -x+y,-x,z
3 -y,x-y,z
4 2/3-x+y,1/3-x,1/3+z
5 2/3-y,1/3+x-y,1/3+z
6 2/3+x,1/3+y,1/3+z
7 1/3-x+y,2/3-x,2/3+z
8 1/3-y,2/3+x-y,2/3+z
9 1/3+x,2/3+y,2/3+z
10 -x,-y,-z
11 x-y,x,-z
12 y,-x+y,-z
13 1/3+x-y,2/3+x,2/3-z
14 1/3+y,2/3-x+y,2/3-z
15 1/3-x,2/3-y,2/3-z
16 2/3+x-y,1/3+x,1/3-z
17 2/3+y,1/3-x+y,1/3-z
18 2/3-x,1/3-y,1/3-z
_cell_length_a                   22.876(15)
_cell_length_b                   22.876(15)
_cell_length_c                   15.662(11)
_cell_angle_alpha                90
_cell_angle_beta                 90
_cell_angle_gamma                120
_cell_volume                     7098.03
loop_
_atom_site_label
_atom_site_type_symbol
_atom_site_fract_x
_atom_site_fract_y
_atom_site_fract_z
N1 N 0.973002 0.300912 0.427964
C1 C 0.999692 0.343176 0.493591
H1 H 0.996133 0.381768 0.498803
N2 N 1.03212 0.326721 0.551913
C2 C 0.990976 0.251627 0.442618
C3 C 0.977152 0.194761 0.396946
D1 D 0.953152 0.184027 0.346025
C4 C 1.000644 0.154812 0.429667
D2 D 0.992564 0.116309 0.399945
C5 C 1.036753 0.170409 0.507853
D3 D 1.052013 0.142107 0.528001
C6 C 1.026849 0.267208 0.520221
C7 C 1.049607 0.226273 0.554006
D4 D 1.07255 0.236308 0.605824
N3 N 0.930754 0.410754 0.379973
C8 C 0.94771 0.470772 0.349650
H2 H 0.977000 0.489097 0.303650
N4 N 0.921311 0.503742 0.387204
C9 C 0.881374 0.460279 0.450102
C10 C 0.840514 0.466966 0.513997
D5 D 0.837717 0.505967 0.517799
C11 C 0.886461 0.403268 0.447011
C12 C 0.850534 0.347807 0.505531
D6 D 0.854400 0.309258 0.503100
C13 C 0.805810 0.415032 0.569030
D7 D 0.778566 0.418954 0.610023
C14 C 0.809855 0.355126 0.566105
D8 D 0.785220 0.320506 0.604684
Zn1 Zn 0.93462(62) 0.32777(87) 0.31901(81)
N2G N 1.006612 0.372066 0.218580
N4M N 0.837075 0.249098 0.279463
Zn1C Zn 1.0598(11) 0.39871(62) 0.65234(81)
Zn1L Zn 0.9402(11) 0.60129(62) 0.34766(81)
C15 C 0.808569 0.136056 0.612380
O1 O 0.815517 0.095232 0.647739
O2 O 0.801268 0.176345 0.576190
C16 C 0.697604 0.252135 0.429394
O3 O 0.705131 0.219639 0.378225
O4 O 0.702868 0.262151 0.502560
loop_
_geom_bond_atom_site_label_1
_geom_bond_atom_site_label_2
_geom_bond_site_symmetry_1
_geom_bond_site_symmetry_2
N1 C1 1_555 1_555
C1 H1 1_555 1_555
N2 C1 1_555 1_555
C2 N1 1_555 1_555
C3 C2 1_555 1_555
D1 C3 1_555 1_555
C4 C3 1_555 1_555
D2 C4 1_555 1_555
C5 C4 1_555 1_555
D3 C5 1_555 1_555
C6 N2 1_555 1_555
C7 C5 1_555 1_555
D4 C7 1_555 1_555
N3 C8 1_555 1_555
C8 H2 1_555 1_555
N4 C8 1_555 1_555
C9 N4 1_555 1_555
C10 C9 1_555 1_555
D5 C10 1_555 1_555
C11 N3 1_555 1_555
C12 C11 1_555 1_555
D6 C12 1_555 1_555
C13 C10 1_555 1_555
D7 C13 1_555 1_555
C14 C12 1_555 1_555
D8 C14 1_555 1_555
Zn1 N1 1_555 1_555
C15 O1 1_555 1_555
O2 C15 1_555 1_555
C16 O3 1_555 1_555
O4 C16 1_555 1_555
N2G Zn1 1_555 1_555
N4M Zn1 1_555 1_555
Zn1C N2 1_555 1_555
Zn1L N4 1_555 1_555
C2 C6 1_555 1_555
C6 C7 1_555 1_555
N3 Zn1 1_555 1_555
C9 C11 1_555 1_555
C13 C14 1_555 1_555

#END
