
#######################################################################
#
#                 Cambridge Crystallographic Data Centre
#                                CCDC 
#
#######################################################################
#
# If this CIF has been generated from an entry in the Cambridge 
# Structural Database, then it will include bibliographic, chemical, 
# crystal, experimental, refinement or atomic coordinate data resulting 
# from the CCDC's data processing and validation procedures.
#
#######################################################################

data_RIPRUD
_symmetry_cell_setting           triclinic
_symmetry_space_group_name_H-M   'P -1'
_symmetry_Int_Tables_number      2
_space_group_name_Hall           '-P 1'
loop_
_symmetry_equiv_pos_site_id
_symmetry_equiv_pos_as_xyz
1 x,y,z
2 -x,-y,-z
_cell_length_a                   11.498(2)
_cell_length_b                   11.720(2)
_cell_length_c                   13.079(3)
_cell_angle_alpha                84.09(3)
_cell_angle_beta                 74.76(3)
_cell_angle_gamma                79.30(3)
_cell_volume                     1668.2
loop_
_atom_site_label
_atom_site_type_symbol
_atom_site_fract_x
_atom_site_fract_y
_atom_site_fract_z
Mo1 Mo -0.08278(2) 0.61626(2) 0.70307(2)
O1 O -0.1805(2) 0.5419(2) 0.79532(13)
O2 O 0.0012(2) 0.49161(15) 0.38160(13)
O3 O 0.0118(2) 0.63014(14) 0.80812(12)
O4 O 0.0583(2) 0.71717(15) 0.61699(13)
O5 O -0.1800(2) 0.77971(14) 0.75884(13)
O6 O -0.1658(2) 0.68485(15) 0.58786(13)
O7 O -0.1736(2) 1.2686(2) 0.96694(14)
O8 O -0.3251(2) 1.1315(2) 0.8042(2)
N1 N 0.0247(2) 0.6440(2) 1.0064(2)
N2 N -0.2926(2) 0.9567(2) 0.8903(2)
C1 C 0.1027(2) 0.6950(2) 0.7815(2)
C2 C 0.1318(2) 0.7371(2) 0.6745(2)
C3 C 0.2312(2) 0.7944(2) 0.6382(2)
C4 C 0.2960(3) 0.8162(2) 0.7085(2)
C5 C 0.2613(2) 0.7823(2) 0.8149(2)
C6 C 0.1635(2) 0.7209(2) 0.8540(2)
C7 C -0.2349(2) 0.8467(2) 0.6911(2)
C8 C -0.2301(2) 0.7947(2) 0.5975(2)
C9 C -0.2875(2) 0.8525(2) 0.5223(2)
C10 C -0.3456(2) 0.9679(2) 0.5373(2)
C11 C -0.3463(2) 1.0222(2) 0.6264(2)
C12 C -0.2938(2) 0.9623(2) 0.7058(2)
C13 C 0.1224(2) 0.6986(2) 0.9722(2)
C14 C -0.3041(2) 1.0249(2) 0.8031(2)
C15 C -0.0484(2) 0.6438(2) 1.1159(2)
C16 C -0.1602(2) 0.7386(2) 1.1327(2)
C17 C -0.2452(3) 0.7391(3) 1.2312(2)
C18 C -0.3467(3) 0.8241(3) 1.2518(2)
C19 C -0.3669(2) 0.9109(3) 1.1751(2)
C20 C -0.2853(2) 0.9127(2) 1.0759(2)
C21 C -0.1820(2) 0.8255(2) 1.0556(2)
C22 C -0.3077(3) 1.0060(2) 0.9917(2)
Na1 Na -0.24445(9) 1.30519(9) 0.80507(8)
Na2 Na 0.05123(9) 0.64603(8) 0.45242(7)
S1 S -0.55303(6) 1.33614(6) 0.93595(6)
S2 S 0.05114(6) 1.12074(6) 0.69695(5)
S3 S -0.36714(6) 1.44116(6) 0.58901(5)
O9 O -0.4426(2) 1.3911(2) 0.8812(2)
O10 O 0.2571(2) 0.6152(2) 0.37156(14)
O11 O 0.0365(2) 0.7655(2) 0.29835(14)
C23 C -0.5511(3) 1.3172(3) 1.0728(2)
C24 C -0.6794(3) 1.4523(3) 0.9501(2)
C25 C 0.0003(3) 1.0366(2) 0.8164(2)
C26 C 0.0090(3) 1.0409(3) 0.6075(2)
C27 C -0.3082(3) 1.5190(3) 0.4671(2)
C28 C -0.4379(3) 1.5638(3) 0.6665(2)
H1 H 0.0040(2) 0.6068(2) 0.9605(2)
H2 H -0.2757(2) 0.8807(2) 0.8860(2)
H3 H 0.2554(2) 0.8189(2) 0.5653(2)
H4 H 0.3647(3) 0.8548(2) 0.6830(2)
H5 H 0.3043(2) 0.8009(2) 0.8622(2)
H6 H -0.2877(2) 0.8147(2) 0.4615(2)
H7 H -0.3848(2) 1.0092(2) 0.4858(2)
H8 H -0.3832(2) 1.1014(2) 0.6339(2)
H9 H -0.0750(2) 0.5672(2) 1.1362(5)
H10 H 0.0030(2) 0.6547(2) 1.1631(2)
H11 H -0.2327(3) 0.6800(3) 1.2844(2)
H12 H -0.4036(3) 0.8235(3) 1.3193(2)
H13 H -0.4372(2) 0.9696(3) 1.1905(2)
H14 H -0.1257(2) 0.8256(2) 0.9879(2)
H15 H -0.2499(3) 1.0612(2) 0.9831(2)
H16 H -0.3917(3) 1.0497(2) 1.0146(2)
H17 H -0.6269(9) 1.2916(18) 1.1145(3)
H18 H -0.4811(11) 1.2584(13) 1.0813(3)
H19 H -0.5443(19) 1.3911(5) 1.0977(5)
H20 H -0.6938(12) 1.4784(12) 0.8802(3)
H21 H -0.7524(5) 1.4253(6) 0.9960(13)
H22 H -0.6614(8) 1.5170(7) 0.9820(15)
H23 H 0.0530(11) 0.9604(7) 0.8143(7)
H24 H -0.0841(7) 1.0261(14) 0.8234(8)
H25 H 0.0041(17) 1.0769(8) 0.8771(2)
H26 H 0.0490(15) 0.9596(5) 0.6112(12)
H27 H 0.0348(17) 1.0746(11) 0.5350(3)
H28 H -0.0798(3) 1.0446(15) 0.6270(10)
H29 H -0.3755(3) 1.5708(13) 0.4448(9)
H30 H -0.2669(16) 1.4638(3) 0.4124(5)
H31 H -0.2497(14) 1.5652(14) 0.4774(5)
H32 H -0.5067(12) 1.6063(11) 0.6398(11)
H33 H -0.3781(6) 1.6152(10) 0.6615(14)
H34 H -0.4676(18) 1.5372(3) 0.7408(4)
O2A O -0.0012(2) 0.50839(15) 0.61840(13)
Na2A Na -0.05123(9) 1.35397(8) 0.54758(7)
O10A O -0.2571(2) 1.3848(2) 0.62844(14)
O11A O -0.0365(2) 1.2345(2) 0.70165(14)
O7A O 0.1736(2) 0.7314(2) 1.03306(14)
Na1A Na 0.24445(9) 0.69481(9) 1.19493(8)
Na2A_2 Na -0.05123(9) 0.35397(8) 0.54758(7)
loop_
_geom_bond_atom_site_label_1
_geom_bond_atom_site_label_2
_geom_bond_site_symmetry_1
_geom_bond_site_symmetry_2
Mo1 O1 1_555 1_555
O2 Na2 1_555 1_555
O3 Mo1 1_555 1_555
O4 Mo1 1_555 1_555
O5 Mo1 1_555 1_555
O6 Mo1 1_555 1_555
O7 Na1 1_555 1_555
O8 C14 1_555 1_555
N1 C13 1_555 1_555
N2 C14 1_555 1_555
C1 O3 1_555 1_555
C2 O4 1_555 1_555
C3 C2 1_555 1_555
C4 C3 1_555 1_555
C5 C4 1_555 1_555
C6 C1 1_555 1_555
C7 O5 1_555 1_555
C8 O6 1_555 1_555
C9 C8 1_555 1_555
C10 C9 1_555 1_555
C11 C10 1_555 1_555
C12 C7 1_555 1_555
C13 C6 1_555 1_555
C14 C12 1_555 1_555
C15 N1 1_555 1_555
C16 C15 1_555 1_555
C17 C16 1_555 1_555
C18 C17 1_555 1_555
C19 C18 1_555 1_555
C20 C19 1_555 1_555
C21 C16 1_555 1_555
C22 N2 1_555 1_555
Na1 O8 1_555 1_555
Na2 O4 1_555 1_555
S1 O9 1_555 1_555
S2 C25 1_555 1_555
S3 C27 1_555 1_555
O9 Na1 1_555 1_555
O10 Na2 1_555 1_555
O11 Na2 1_555 1_555
C23 S1 1_555 1_555
C24 S1 1_555 1_555
C25 H23 1_555 1_555
C26 S2 1_555 1_555
C27 H29 1_555 1_555
C28 S3 1_555 1_555
H1 N1 1_555 1_555
H2 N2 1_555 1_555
H3 C3 1_555 1_555
H4 C4 1_555 1_555
H5 C5 1_555 1_555
H6 C9 1_555 1_555
H7 C10 1_555 1_555
H8 C11 1_555 1_555
H9 C15 1_555 1_555
H10 C15 1_555 1_555
H11 C17 1_555 1_555
H12 C18 1_555 1_555
H13 C19 1_555 1_555
H14 C21 1_555 1_555
H15 C22 1_555 1_555
H16 C22 1_555 1_555
H17 C23 1_555 1_555
H18 C23 1_555 1_555
H19 C23 1_555 1_555
H20 C24 1_555 1_555
H21 C24 1_555 1_555
H22 C24 1_555 1_555
H24 C25 1_555 1_555
H25 C25 1_555 1_555
H26 C26 1_555 1_555
H27 C26 1_555 1_555
H28 C26 1_555 1_555
H30 C27 1_555 1_555
H31 C27 1_555 1_555
H32 C28 1_555 1_555
H33 C28 1_555 1_555
H34 C28 1_555 1_555
O2A Mo1 1_555 1_555
Na2A O10A 1_555 1_555
O10A Na1 1_555 1_555
O11A Na1 1_555 1_555
O7A C13 1_555 1_555
Na1A O7A 1_555 1_555
Na2A_2 O2 1_555 1_555
O6 Na2 1_555 1_555
C1 C2 1_555 1_555
C5 C6 1_555 1_555
C7 C8 1_555 1_555
C11 C12 1_555 1_555
C20 C22 1_555 1_555
C20 C21 1_555 1_555
Na2 O2A 1_555 1_555
S2 O11A 1_555 1_555
S3 O10A 1_555 1_555
O2A Na2A_2 1_555 1_555
Na2A O11A 1_555 1_555

#END
