
#######################################################################
#
#                 Cambridge Crystallographic Data Centre
#                                CCDC 
#
#######################################################################
#
# If this CIF has been generated from an entry in the Cambridge 
# Structural Database, then it will include bibliographic, chemical, 
# crystal, experimental, refinement or atomic coordinate data resulting 
# from the CCDC's data processing and validation procedures.
#
#######################################################################

data_RIPRAK
_symmetry_cell_setting           monoclinic
_symmetry_space_group_name_H-M   'P 21/n'
_symmetry_Int_Tables_number      14
_space_group_name_Hall           '-P 2yn'
loop_
_symmetry_equiv_pos_site_id
_symmetry_equiv_pos_as_xyz
1 x,y,z
2 1/2-x,1/2+y,1/2-z
3 -x,-y,-z
4 1/2+x,1/2-y,1/2+z
_cell_length_a                   9.9900(17)
_cell_length_b                   28.463(4)
_cell_length_c                   12.124(5)
_cell_angle_alpha                90
_cell_angle_beta                 100.33(2)
_cell_angle_gamma                90
_cell_volume                     3391.53
loop_
_atom_site_label
_atom_site_type_symbol
_atom_site_fract_x
_atom_site_fract_y
_atom_site_fract_z
Cd1 Cd 0.22230(5) 0.762036(15) 0.44015(4)
O1 O 0.1775(6) 0.69430(17) 0.3192(4)
O2 O 0.0038(6) 0.7227(2) 0.3792(5)
O3 O -0.0153(7) 0.6567(2) 0.2907(5)
O4 O 0.4680(7) 0.7452(2) 0.4113(5)
O5 O 0.4342(5) 0.8008(2) 0.5226(5)
O6 O 0.6363(6) 0.7887(3) 0.4926(5)
N1 N 0.1165(5) 0.81217(17) 0.5522(4)
N2 N 0.0340(6) 0.9289(2) 0.8438(5)
N3 N 0.2600(6) 0.70754(19) 0.5847(4)
N4 N 0.4222(8) 0.5759(2) 0.8521(5)
N5 N 0.2288(6) 0.80872(16) 0.2864(4)
N6 N 0.4186(6) 0.92841(19) 0.0469(5)
N7 N 0.0525(8) 0.6909(2) 0.3287(5)
N8 N 0.5154(7) 0.7782(3) 0.4754(6)
C1 C 0.1977(7) 0.8396(2) 0.6259(6)
H1 H 0.2899 0.8405 0.6226
C2 C 0.1520(7) 0.8668(3) 0.7064(6)
H2 H 0.2120 0.8858 0.7544
C3 C 0.0155(7) 0.8651(2) 0.7142(5)
C4 C -0.0680(7) 0.8361(2) 0.6400(6)
H3 H -0.1600 0.8336 0.6433
C5 C -0.0145(7) 0.8110(2) 0.5617(6)
H4 H -0.0729 0.7921 0.5123
C6 C -0.0373(7) 0.8955(2) 0.7961(6)
H5 H -0.1234 0.8900 0.8123
C7 C -0.0223(7) 0.9588(2) 0.9229(6)
H6 H -0.1143 0.9482 0.9284
C8 C 0.0689(8) 0.9559(2) 1.0370(6)
H7 H 0.1621 0.9622 1.0287
H8 H 0.0656 0.9242 1.0660
C9 C -0.0275(8) 1.0092(2) 0.8783(6)
H9 H -0.0923 1.0109 0.8086
H10 H 0.0613 1.0178 0.8628
C10 C 0.3511(9) 0.6736(3) 0.5862(6)
H11 H 0.3982 0.6718 0.5268
C11 C 0.3796(9) 0.6410(3) 0.6710(6)
H12 H 0.4462 0.6184 0.6689
C12 C 0.3101(8) 0.6419(2) 0.7578(5)
C13 C 0.2151(11) 0.6762(3) 0.7538(8)
H13 H 0.1638 0.6782 0.8106
C14 C 0.1935(10) 0.7078(3) 0.6678(7)
H14 H 0.1276 0.7309 0.6686
C15 C 0.3394(9) 0.6081(3) 0.8506(5)
H15 H 0.2936 0.6111 0.9106
C16 C 0.4440(10) 0.5441(2) 0.9487(6)
H16 H 0.4043 0.5579 1.0095
C17 C 0.3757(9) 0.4972(3) 0.9151(6)
H17 H 0.4093 0.4846 0.8509
H18 H 0.2782 0.5018 0.8937
C18 C 0.5953(10) 0.5374(3) 0.9879(7)
H19 H 0.6369 0.5674 1.0113
H20 H 0.6357 0.5258 0.9261
C19 C 0.2612(8) 0.8540(2) 0.2994(5)
H21 H 0.2501 0.8687 0.3657
C20 C 0.3105(8) 0.8803(2) 0.2199(5)
H22 H 0.3340 0.9116 0.2338
C21 C 0.3245(7) 0.8599(2) 0.1200(5)
C22 C 0.2855(8) 0.8136(2) 0.1034(6)
H23 H 0.2901 0.7987 0.0360
C23 C 0.2392(8) 0.7896(2) 0.1891(5)
H24 H 0.2141 0.7583 0.1772
C24 C 0.3836(7) 0.8855(2) 0.0335(5)
H25 H 0.3953 0.8699 -0.0315
C25 C 0.4817(8) 0.9505(2) -0.0417(6)
H26 H 0.4930 0.9272 -0.0988
C26 C 0.3922(8) 0.9903(3) -0.0943(6)
H27 H 0.3019 0.9781 -0.1227
H28 H 0.4287 1.0025 -0.1576
C27 C 0.6193(8) 0.9696(3) 0.0135(7)
H29 H 0.6723 0.9444 0.0539
H30 H 0.6675 0.9806 -0.0442
Cd1B Cd -0.22230(5) 1.237964(15) 1.55985(4)
Cd1B_2 Cd 0.77770(5) 0.237964(15) 1.55985(4)
Cd1B_3 Cd 0.77770(5) 1.237964(15) -0.44015(4)
O1B O -0.1775(6) 1.30570(17) 1.6808(4)
O2B O -0.0038(6) 1.2773(2) 1.6208(5)
O3B O 0.0153(7) 1.3433(2) 1.7093(5)
O4B O -0.4680(7) 1.2548(2) 1.5887(5)
O5B O -0.4342(5) 1.1992(2) 1.4774(5)
O6B O -0.6363(6) 1.2113(3) 1.5074(5)
N1B N -0.1165(5) 1.18783(17) 1.4478(4)
N2B N -0.0340(6) 1.0711(2) 1.1562(5)
N3B N 0.7400(6) 0.29246(19) 1.4153(4)
N3B_2 N -0.2600(6) 1.29246(19) 1.4153(4)
N4B N 0.5778(8) 0.4241(2) 1.1479(5)
N5B N 0.7712(6) 1.19128(16) -0.2864(4)
N5B_2 N -0.2288(6) 1.19128(16) 1.7136(4)
N6B N 0.5814(6) 1.07159(19) -0.0469(5)
N7B N -0.0525(8) 1.3091(2) 1.6713(5)
N8B N -0.5154(7) 1.2218(3) 1.5246(6)
C1B C -0.1977(7) 1.1604(2) 1.3741(6)
H1B H -0.2899 1.1595 1.3774
C2B C -0.1520(7) 1.1332(3) 1.2936(6)
H2B H -0.2120 1.1142 1.2456
C3B C -0.0155(7) 1.1349(2) 1.2858(5)
C4B C 0.0680(7) 1.1639(2) 1.3600(6)
H3B H 0.1600 1.1664 1.3567
C5B C 0.0145(7) 1.1890(2) 1.4383(6)
H4B H 0.0729 1.2079 1.4877
C6B C 0.0373(7) 1.1045(2) 1.2039(6)
H5B H 0.1234 1.1100 1.1877
C7B C 0.0223(7) 1.0412(2) 1.0771(6)
H6B H 0.1143 1.0518 1.0716
C8B C -0.0689(8) 1.0441(2) 0.9630(6)
H7B H -0.1621 1.0378 0.9713
H8B H -0.0656 1.0758 0.9340
C9B C 0.0275(8) 0.9908(2) 1.1217(6)
H9B H 0.0923 0.9891 1.1914
H10B H -0.0613 0.9822 1.1372
C10B C 0.6489(9) 0.3264(3) 1.4138(6)
H11B H 0.6018 0.3282 1.4732
C11B C 0.6204(9) 0.3590(3) 1.3290(6)
H12B H 0.5538 0.3816 1.3311
C12B C 0.6899(8) 0.3581(2) 1.2422(5)
C13B C 0.7849(11) 0.3238(3) 1.2462(8)
H13B H 0.8362 0.3218 1.1894
C14B C 0.8065(10) 0.2922(3) 1.3322(7)
H14B H 0.8724 0.2691 1.3314
C15B C 0.6606(9) 0.3919(3) 1.1494(5)
H15B H 0.7064 0.3889 1.0894
C16B C 0.5560(10) 0.4559(2) 1.0513(6)
H16B H 0.5957 0.4421 0.9905
C17B C 0.6243(9) 0.5028(3) 1.0849(6)
H17B H 0.5907 0.5154 1.1491
H18B H 0.7218 0.4982 1.1063
C18B C 0.4047(10) 0.4626(3) 1.0121(7)
H19B H 0.3631 0.4326 0.9887
H20B H 0.3643 0.4742 1.0739
C19B C 0.7388(8) 1.1460(2) -0.2994(5)
H21B H 0.7499 1.1313 -0.3657
C20B C 0.6895(8) 1.1197(2) -0.2199(5)
H22B H 0.6660 1.0884 -0.2338
C21B C 0.6755(7) 1.1401(2) -0.1200(5)
C22B C 0.7145(8) 1.1864(2) -0.1034(6)
H23B H 0.7099 1.2013 -0.0360
C23B C 0.7608(8) 1.2104(2) -0.1891(5)
H24B H 0.7859 1.2417 -0.1772
C24B C 0.6164(7) 1.1145(2) -0.0335(5)
H25B H 0.6047 1.1301 0.0315
C25B C 0.5183(8) 1.0495(2) 0.0417(6)
H26B H 0.5070 1.0728 0.0988
C26B C 0.6078(8) 1.0097(3) 0.0943(6)
H27B H 0.6981 1.0219 0.1227
H28B H 0.5713 0.9975 0.1576
C27B C 0.3807(8) 1.0304(3) -0.0135(7)
H29B H 0.3277 1.0556 -0.0539
H30B H 0.3325 1.0194 0.0442
C28 C 0.448(2) 0.0841(6) 0.3929(12)
H31 H 0.5261 0.0891 0.3567
H32 H 0.3989 0.1135 0.3902
Cl1 Cl 0.3469(6) 0.0438(2) 0.3197(4)
Cl2 Cl 0.5015(8) 0.0709(2) 0.5201(7)
loop_
_geom_bond_atom_site_label_1
_geom_bond_atom_site_label_2
_geom_bond_site_symmetry_1
_geom_bond_site_symmetry_2
Cd1 O1 1_555 1_555
O1 N7 1_555 1_555
O2 Cd1 1_555 1_555
O3 N7 1_555 1_555
O4 Cd1 1_555 1_555
O5 Cd1 1_555 1_555
O6 N8 1_555 1_555
N1 Cd1 1_555 1_555
N2 C6 1_555 1_555
N3 Cd1 1_555 1_555
N4 C15 1_555 1_555
N5 Cd1 1_555 1_555
N6 C24 1_555 1_555
N7 O2 1_555 1_555
N8 O4 1_555 1_555
C1 N1 1_555 1_555
H1 C1 1_555 1_555
C2 C1 1_555 1_555
H2 C2 1_555 1_555
C3 C2 1_555 1_555
C4 C3 1_555 1_555
H3 C4 1_555 1_555
C5 N1 1_555 1_555
H4 C5 1_555 1_555
C6 C3 1_555 1_555
H5 C6 1_555 1_555
C7 N2 1_555 1_555
H6 C7 1_555 1_555
C8 C7 1_555 1_555
H7 C8 1_555 1_555
H8 C8 1_555 1_555
C9 C7 1_555 1_555
H9 C9 1_555 1_555
H10 C9 1_555 1_555
C10 N3 1_555 1_555
H11 C10 1_555 1_555
C11 C10 1_555 1_555
H12 C11 1_555 1_555
C12 C11 1_555 1_555
C13 C12 1_555 1_555
H13 C13 1_555 1_555
C14 N3 1_555 1_555
H14 C14 1_555 1_555
C15 C12 1_555 1_555
H15 C15 1_555 1_555
C16 N4 1_555 1_555
H16 C16 1_555 1_555
C17 C16 1_555 1_555
H17 C17 1_555 1_555
H18 C17 1_555 1_555
C18 C16 1_555 1_555
H19 C18 1_555 1_555
H20 C18 1_555 1_555
C19 N5 1_555 1_555
H21 C19 1_555 1_555
C20 C19 1_555 1_555
H22 C20 1_555 1_555
C21 C20 1_555 1_555
C22 C21 1_555 1_555
H23 C22 1_555 1_555
C23 N5 1_555 1_555
H24 C23 1_555 1_555
C24 C21 1_555 1_555
H25 C24 1_555 1_555
C25 N6 1_555 1_555
H26 C25 1_555 1_555
C26 C25 1_555 1_555
H27 C26 1_555 1_555
H28 C26 1_555 1_555
C27 C25 1_555 1_555
H29 C27 1_555 1_555
H30 C27 1_555 1_555
C28 H31 1_555 1_555
H32 C28 1_555 1_555
Cl1 C28 1_555 1_555
Cl2 C28 1_555 1_555
Cd1B O1B 1_555 1_555
Cd1B_2 N3B 1_555 1_555
Cd1B_3 N5B 1_555 1_555
O1B N7B 1_555 1_555
O2B Cd1B 1_555 1_555
O3B N7B 1_555 1_555
O4B Cd1B 1_555 1_555
O5B Cd1B 1_555 1_555
O6B N8B 1_555 1_555
N1B Cd1B 1_555 1_555
N2B C6B 1_555 1_555
N3B C10B 1_555 1_555
N3B_2 Cd1B 1_555 1_555
N4B C15B 1_555 1_555
N5B C19B 1_555 1_555
N5B_2 Cd1B 1_555 1_555
N6B C24B 1_555 1_555
N7B O2B 1_555 1_555
N8B O4B 1_555 1_555
C1B N1B 1_555 1_555
H1B C1B 1_555 1_555
C2B C1B 1_555 1_555
H2B C2B 1_555 1_555
C3B C2B 1_555 1_555
C4B C3B 1_555 1_555
H3B C4B 1_555 1_555
C5B N1B 1_555 1_555
H4B C5B 1_555 1_555
C6B C3B 1_555 1_555
H5B C6B 1_555 1_555
C7B N2B 1_555 1_555
H6B C7B 1_555 1_555
C8B C9 1_555 1_555
H7B C8B 1_555 1_555
H8B C8B 1_555 1_555
C9B C8 1_555 1_555
H9B C9B 1_555 1_555
H10B C9B 1_555 1_555
C10B H11B 1_555 1_555
C11B C10B 1_555 1_555
H12B C11B 1_555 1_555
C12B C11B 1_555 1_555
C13B C12B 1_555 1_555
H13B C13B 1_555 1_555
C14B N3B 1_555 1_555
H14B C14B 1_555 1_555
C15B C12B 1_555 1_555
H15B C15B 1_555 1_555
C16B N4B 1_555 1_555
H16B C16B 1_555 1_555
C17B C18 1_555 1_555
H17B C17B 1_555 1_555
H18B C17B 1_555 1_555
C18B C17 1_555 1_555
H19B C18B 1_555 1_555
H20B C18B 1_555 1_555
C19B H21B 1_555 1_555
C20B C19B 1_555 1_555
H22B C20B 1_555 1_555
C21B C20B 1_555 1_555
C22B C21B 1_555 1_555
H23B C22B 1_555 1_555
C23B N5B 1_555 1_555
H24B C23B 1_555 1_555
C24B C21B 1_555 1_555
H25B C24B 1_555 1_555
C25B N6B 1_555 1_555
H26B C25B 1_555 1_555
C26B C27 1_555 1_555
H27B C26B 1_555 1_555
H28B C26B 1_555 1_555
C27B C26 1_555 1_555
H29B C27B 1_555 1_555
H30B C27B 1_555 1_555
O5 N8 1_555 1_555
C4 C5 1_555 1_555
C13 C14 1_555 1_555
C22 C23 1_555 1_555
O5B N8B 1_555 1_555
C4B C5B 1_555 1_555
C7B C8B 1_555 1_555
C7B C9B 1_555 1_555
C13B C14B 1_555 1_555
C16B C17B 1_555 1_555
C16B C18B 1_555 1_555
C22B C23B 1_555 1_555
C25B C26B 1_555 1_555
C25B C27B 1_555 1_555

#END
