
#######################################################################
#
#                 Cambridge Crystallographic Data Centre
#                                CCDC 
#
#######################################################################
#
# If this CIF has been generated from an entry in the Cambridge 
# Structural Database, then it will include bibliographic, chemical, 
# crystal, experimental, refinement or atomic coordinate data resulting 
# from the CCDC's data processing and validation procedures.
#
#######################################################################

data_RIPSUF
_symmetry_cell_setting           monoclinic
_symmetry_space_group_name_H-M   'P 21/c'
_symmetry_Int_Tables_number      14
_space_group_name_Hall           '-P 2ybc'
loop_
_symmetry_equiv_pos_site_id
_symmetry_equiv_pos_as_xyz
1 x,y,z
2 -x,1/2+y,1/2-z
3 -x,-y,-z
4 x,1/2-y,1/2+z
_cell_length_a                   10.996(2)
_cell_length_b                   22.689(5)
_cell_length_c                   9.3927(19)
_cell_angle_alpha                90
_cell_angle_beta                 112.48(3)
_cell_angle_gamma                90
_cell_volume                     2165.3
loop_
_atom_site_label
_atom_site_type_symbol
_atom_site_fract_x
_atom_site_fract_y
_atom_site_fract_z
Co1 Co 0.87823(4) 0.94896(2) 0.06444(5)
O1 O 0.8480(2) 0.85945(11) 0.1338(3)
O2 O 0.7549(3) 0.93451(11) 0.1957(3)
O3 O 0.8593(2) 1.03720(11) 0.0795(3)
O4 O 1.0381(2) 1.08297(11) 0.0765(3)
N1 N 1.0631(3) 0.94797(14) 0.2603(3)
N2 N 1.6944(2) 0.94937(13) 0.8658(3)
C1 C 1.0957(3) 0.98735(18) 0.3724(4)
H1 H 1.0332 1.0152 0.3711
C2 C 1.2179(3) 0.98926(18) 0.4914(4)
H2 H 1.2364 1.0183 0.5666
C3 C 1.3127(3) 0.94818(16) 0.4991(4)
C4 C 1.4451(3) 0.94793(17) 0.6258(4)
C5 C 1.5457(4) 0.9109(2) 0.6256(5)
C6 C 1.2766(3) 0.90577(17) 0.3838(4)
H3 H 1.3360 0.8766 0.3833
C7 C 1.1518(4) 0.90719(16) 0.2697(4)
H4 H 1.1289 0.8778 0.1951
C8 C 0.7721(3) 0.87957(17) 0.1926(4)
C9 C 0.6944(4) 0.83951(17) 0.2497(5)
C10 C 0.7586(6) 0.7960(3) 0.3543(7)
H5 H 0.8497 0.7924 0.3894
C11 C 0.6856(9) 0.7572(3) 0.4075(9)
H6 H 0.7280 0.7279 0.4781
C12 C 0.5510(9) 0.7630(3) 0.3544(10)
H7 H 0.5026 0.7381 0.3914
C13 C 0.4889(6) 0.8048(3) 0.2484(8)
H8 H 0.3975 0.8073 0.2096
C14 C 0.5600(4) 0.8437(2) 0.1976(6)
H9 H 0.5164 0.8730 0.1275
C15 C 1.6670(4) 0.91187(19) 0.7472(5)
C16 C 1.5989(3) 0.98524(18) 0.8652(4)
H10 H 1.6163 1.0112 0.9473
C17 C 1.4744(4) 0.98609(19) 0.7488(4)
C18 C 0.9358(3) 1.08077(16) 0.1052(4)
C19 C 0.9041(3) 1.13397(16) 0.1793(4)
C20 C 0.8011(4) 1.13268(18) 0.2272(6)
H11 H 0.7485 1.0992 0.2100
C21 C 0.7750(6) 1.1810(2) 0.3012(6)
H12 H 0.7058 1.1799 0.3351
C22 C 0.8510(6) 1.2302(2) 0.3239(6)
H13 H 0.8336 1.2625 0.3742
C23 C 0.9522(5) 1.2330(2) 0.2742(6)
H14 H 1.0021 1.2671 0.2883
C24 C 0.9799(4) 1.18478(17) 0.2033(5)
H15 H 1.0499 1.1862 0.1710
Co1B Co 1.12177(4) 1.05104(2) -0.06444(5)
Co1_2 Co 1.87823(4) 0.94896(2) 1.06444(5)
O4B O 0.9619(2) 0.91703(11) -0.0765(3)
N2_2 N 0.6944(2) 0.94937(13) -0.1342(3)
loop_
_geom_bond_atom_site_label_1
_geom_bond_atom_site_label_2
_geom_bond_site_symmetry_1
_geom_bond_site_symmetry_2
Co1 O1 1_555 1_555
O1 C8 1_555 1_555
O2 Co1 1_555 1_555
O3 Co1 1_555 1_555
O4 C18 1_555 1_555
N1 Co1 1_555 1_555
N2 C15 1_555 1_555
C1 N1 1_555 1_555
H1 C1 1_555 1_555
C2 C1 1_555 1_555
H2 C2 1_555 1_555
C3 C2 1_555 1_555
C4 C3 1_555 1_555
C5 C4 1_555 1_555
C6 C3 1_555 1_555
H3 C6 1_555 1_555
C7 N1 1_555 1_555
H4 C7 1_555 1_555
C8 O2 1_555 1_555
C9 C8 1_555 1_555
C10 C9 1_555 1_555
H5 C10 1_555 1_555
C11 C10 1_555 1_555
H6 C11 1_555 1_555
C12 C11 1_555 1_555
H7 C12 1_555 1_555
C13 C12 1_555 1_555
H8 C13 1_555 1_555
C14 C9 1_555 1_555
H9 C14 1_555 1_555
C15 C5 1_555 1_555
C16 N2 1_555 1_555
H10 C16 1_555 1_555
C17 C4 1_555 1_555
C18 O3 1_555 1_555
C19 C18 1_555 1_555
C20 C19 1_555 1_555
H11 C20 1_555 1_555
C21 C20 1_555 1_555
H12 C21 1_555 1_555
C22 C21 1_555 1_555
H13 C22 1_555 1_555
C23 C22 1_555 1_555
H14 C23 1_555 1_555
C24 C19 1_555 1_555
H15 C24 1_555 1_555
Co1B O4 1_555 1_555
Co1_2 N2 1_555 1_555
O4B Co1 1_555 1_555
N2_2 Co1 1_555 1_555
C6 C7 1_555 1_555
C13 C14 1_555 1_555
C16 C17 1_555 1_555
C23 C24 1_555 1_555

#END
