
#######################################################################
#
#                 Cambridge Crystallographic Data Centre
#                                CCDC 
#
#######################################################################
#
# If this CIF has been generated from an entry in the Cambridge 
# Structural Database, then it will include bibliographic, chemical, 
# crystal, experimental, refinement or atomic coordinate data resulting 
# from the CCDC's data processing and validation procedures.
#
#######################################################################

data_RIPSUF01
_symmetry_cell_setting           monoclinic
_symmetry_space_group_name_H-M   'P 21/c'
_symmetry_Int_Tables_number      14
_space_group_name_Hall           '-P 2ybc'
loop_
_symmetry_equiv_pos_site_id
_symmetry_equiv_pos_as_xyz
1 x,y,z
2 -x,1/2+y,1/2-z
3 -x,-y,-z
4 x,1/2-y,1/2+z
_cell_length_a                   10.9885(14)
_cell_length_b                   22.643(3)
_cell_length_c                   9.3980(12)
_cell_angle_alpha                90
_cell_angle_beta                 112.458(2)
_cell_angle_gamma                90
_cell_volume                     2161
loop_
_atom_site_label
_atom_site_type_symbol
_atom_site_fract_x
_atom_site_fract_y
_atom_site_fract_z
Co1 Co 0.87820(4) 0.05106(2) 0.56442(6)
O1 O 0.8594(2) -0.03689(12) 0.5803(3)
O2 O 1.0378(2) -0.08304(12) 0.5752(3)
C1 C 0.9355(4) -0.0807(2) 0.6054(4)
C2 C 0.9048(4) -0.13395(19) 0.6792(5)
C3 C 0.8012(5) -0.1323(2) 0.7276(6)
H1 H 0.7494 -0.0986 0.7111
C4 C 0.7737(6) -0.1808(3) 0.8009(7)
H2 H 0.7039 -0.1796 0.8338
C5 C 0.8504(6) -0.2303(3) 0.8241(7)
H3 H 0.8325 -0.2628 0.8738
C6 C 0.9516(5) -0.2329(2) 0.7762(7)
H4 H 1.0026 -0.2669 0.7918
C7 C 0.9788(4) -0.1843(2) 0.7035(6)
H5 H 1.0486 -0.1860 0.6707
O3 O 0.7549(3) 0.06533(14) 0.6948(3)
O4 O 0.8473(3) 0.14053(12) 0.6329(3)
C8 C 0.7710(4) 0.1198(2) 0.6920(5)
C9 C 0.6944(4) 0.1603(2) 0.7498(6)
C10 C 0.5597(5) 0.1565(2) 0.6964(6)
H6 H 0.5156 0.1274 0.6258
C11 C 0.4897(6) 0.1960(3) 0.7478(9)
H7 H 0.3983 0.1939 0.7087
C12 C 0.5526(10) 0.2382(4) 0.8554(11)
H8 H 0.5049 0.2646 0.8897
C13 C 0.6849(9) 0.2406(4) 0.9101(9)
H9 H 0.7289 0.2678 0.9866
C14 C 0.7564(6) 0.2036(3) 0.8551(7)
H10 H 0.8472 0.2079 0.8895
N1 N 0.6945(3) 0.05093(15) 0.3659(4)
N2 N 0.0635(3) 0.05193(15) -0.2405(4)
C15 C 0.5993(4) 0.0150(2) 0.3642(5)
H11 H 0.6168 -0.0114 0.4455
C16 C 0.4751(4) 0.0142(2) 0.2484(5)
H12 H 0.4117 -0.0119 0.2539
C17 C 0.4451(3) 0.05207(18) 0.1251(4)
C18 C 0.5448(4) 0.0893(2) 0.1277(5)
H13 H 0.5297 0.1164 0.0483
C19 C 0.6663(4) 0.0871(2) 0.2460(5)
H14 H 0.7321 0.1122 0.2422
C20 C 0.3129(3) 0.05257(19) -0.0012(4)
C21 C 0.2770(4) 0.0942(2) -0.1155(5)
H15 H 0.3362 0.1234 -0.1165
C22 C 0.1522(4) 0.09251(19) -0.2292(5)
H16 H 0.1293 0.1222 -0.3031
C23 C 0.0965(4) 0.0124(2) -0.1275(5)
H17 H 0.0344 -0.0159 -0.1293
C24 C 0.2180(4) 0.01105(19) -0.0076(5)
H18 H 0.2362 -0.0176 0.0687
Co1B Co 1.12180(4) -0.05106(2) 0.43558(6)
Co1_2 Co -0.12180(4) 0.05106(2) -0.43558(6)
O2B O 0.9622(2) 0.08304(12) 0.4248(3)
N2_2 N 1.0635(3) 0.05193(15) 0.7595(4)
loop_
_geom_bond_atom_site_label_1
_geom_bond_atom_site_label_2
_geom_bond_site_symmetry_1
_geom_bond_site_symmetry_2
Co1 O1 1_555 1_555
O1 C1 1_555 1_555
O2 C1 1_555 1_555
C1 C2 1_555 1_555
C2 C3 1_555 1_555
C3 H1 1_555 1_555
C4 C3 1_555 1_555
H2 C4 1_555 1_555
C5 C4 1_555 1_555
H3 C5 1_555 1_555
C6 C5 1_555 1_555
H4 C6 1_555 1_555
C7 C2 1_555 1_555
H5 C7 1_555 1_555
O3 Co1 1_555 1_555
O4 Co1 1_555 1_555
C8 O3 1_555 1_555
C9 C8 1_555 1_555
C10 C9 1_555 1_555
H6 C10 1_555 1_555
C11 C10 1_555 1_555
H7 C11 1_555 1_555
C12 C11 1_555 1_555
H8 C12 1_555 1_555
C13 C12 1_555 1_555
H9 C13 1_555 1_555
C14 C9 1_555 1_555
H10 C14 1_555 1_555
N1 Co1 1_555 1_555
N2 C22 1_555 1_555
C15 N1 1_555 1_555
H11 C15 1_555 1_555
C16 C15 1_555 1_555
H12 C16 1_555 1_555
C17 C16 1_555 1_555
C18 C17 1_555 1_555
H13 C18 1_555 1_555
C19 N1 1_555 1_555
H14 C19 1_555 1_555
C20 C17 1_555 1_555
C21 C20 1_555 1_555
H15 C21 1_555 1_555
C22 C21 1_555 1_555
H16 C22 1_555 1_555
C23 N2 1_555 1_555
H17 C23 1_555 1_555
C24 C20 1_555 1_555
H18 C24 1_555 1_555
Co1B O2 1_555 1_555
Co1_2 N2 1_555 1_555
O2B Co1 1_555 1_555
N2_2 Co1 1_555 1_555
C6 C7 1_555 1_555
O4 C8 1_555 1_555
C13 C14 1_555 1_555
C18 C19 1_555 1_555
C23 C24 1_555 1_555

#END
