
#######################################################################
#
#                 Cambridge Crystallographic Data Centre
#                                CCDC 
#
#######################################################################
#
# If this CIF has been generated from an entry in the Cambridge 
# Structural Database, then it will include bibliographic, chemical, 
# crystal, experimental, refinement or atomic coordinate data resulting 
# from the CCDC's data processing and validation procedures.
#
#######################################################################

data_RIPTOA
_symmetry_cell_setting           triclinic
_symmetry_space_group_name_H-M   'P -1'
_symmetry_Int_Tables_number      2
_space_group_name_Hall           '-P 1'
loop_
_symmetry_equiv_pos_site_id
_symmetry_equiv_pos_as_xyz
1 x,y,z
2 -x,-y,-z
_cell_length_a                   4.2519(15)
_cell_length_b                   7.880(3)
_cell_length_c                   12.934(5)
_cell_angle_alpha                74.427(5)
_cell_angle_beta                 83.583(4)
_cell_angle_gamma                79.881(4)
_cell_volume                     409.997
loop_
_atom_site_label
_atom_site_type_symbol
_atom_site_fract_x
_atom_site_fract_y
_atom_site_fract_z
Cu1 Cu 0.27792(9) -0.11889(5) 0.02814(3)
N1 N 0.2472(6) -0.3012(3) 0.1754(2)
C1 C 0.4267(7) -0.4607(4) 0.1965(2)
H1 H 0.5824 -0.4932 0.1438
C2 C 0.3852(7) -0.5809(4) 0.2972(2)
N2 N 0.1730(6) -0.5459(3) 0.3738(2)
C3 C -0.0110(8) -0.3832(4) 0.3496(3)
H2 H -0.1703 -0.3522 0.4018
C4 C 0.0246(8) -0.2632(4) 0.2534(2)
H3 H -0.1084 -0.1504 0.2402
O1 O 0.5827(6) -0.7400(3) 0.31225(17)
C5 C 0.6525(8) -0.8568(4) 0.5019(3)
H4 H 0.7558 -0.7592 0.5020
C6 C 0.5346(7) -0.8690(4) 0.4089(2)
C7 C 0.3844(8) -1.0086(4) 0.4048(3)
H5 H 0.3077 -1.0126 0.3394
I1 I -0.16938(4) -0.19441(2) -0.075983(14)
Cu1A Cu 0.72208(9) -1.88111(5) 0.97186(3)
Cu1_2 Cu -0.72208(9) -0.11889(5) 0.02814(3)
Cu1A_2 Cu -0.27792(9) 0.11889(5) -0.02814(3)
Cu1_3 Cu 1.27792(9) -0.11889(5) 0.02814(3)
Cu1A_3 Cu 0.72208(9) 0.11889(5) -0.02814(3)
N1A N 0.7528(6) -1.6988(3) 0.8246(2)
C1A C 0.5733(7) -1.5393(4) 0.8035(2)
H1A H 0.4176 -1.5068 0.8562
C2A C 0.6148(7) -1.4191(4) 0.7028(2)
N2A N 0.8270(6) -1.4541(3) 0.6262(2)
C3A C 1.0110(8) -1.6168(4) 0.6504(3)
H2A H 1.1703 -1.6478 0.5982
C4A C 0.9754(8) -1.7368(4) 0.7466(2)
H3A H 1.1084 -1.8496 0.7598
O1A O 0.4173(6) -1.2600(3) 0.68775(17)
C5A C 0.3475(8) -1.1432(4) 0.4981(3)
H4A H 0.2442 -1.2408 0.4980
C6A C 0.4654(7) -1.1310(4) 0.5911(2)
C7A C 0.6156(8) -0.9914(4) 0.5952(3)
H5A H 0.6923 -0.9874 0.6606
I1_2 I 0.83062(4) -0.19441(2) -0.075983(14)
I1A I 0.16938(4) 0.19441(2) 0.075983(14)
I1_3 I 0.83062(4) -2.19441(2) 0.924017(14)
I1A_2 I 0.16938(4) -1.80559(2) 1.075983(14)
I1A_3 I 1.16938(4) -1.80559(2) 1.075983(14)
loop_
_geom_bond_atom_site_label_1
_geom_bond_atom_site_label_2
_geom_bond_site_symmetry_1
_geom_bond_site_symmetry_2
Cu1 N1 1_555 1_555
N1 C1 1_555 1_555
C1 H1 1_555 1_555
C2 C1 1_555 1_555
N2 C2 1_555 1_555
C3 N2 1_555 1_555
H2 C3 1_555 1_555
C4 N1 1_555 1_555
H3 C4 1_555 1_555
O1 C2 1_555 1_555
C5 H4 1_555 1_555
C6 O1 1_555 1_555
C7 C6 1_555 1_555
H5 C7 1_555 1_555
I1 Cu1 1_555 1_555
Cu1A N1A 1_555 1_555
Cu1_2 I1 1_555 1_555
Cu1A_2 I1 1_555 1_555
Cu1_3 I1_2 1_555 1_555
Cu1A_3 I1_2 1_555 1_555
N1A C1A 1_555 1_555
C1A H1A 1_555 1_555
C2A C1A 1_555 1_555
N2A C2A 1_555 1_555
C3A N2A 1_555 1_555
H2A C3A 1_555 1_555
C4A N1A 1_555 1_555
H3A C4A 1_555 1_555
O1A C2A 1_555 1_555
C5A C7 1_555 1_555
H4A C5A 1_555 1_555
C6A O1A 1_555 1_555
C7A C5 1_555 1_555
H5A C7A 1_555 1_555
I1_2 Cu1 1_555 1_555
I1A Cu1 1_555 1_555
I1_3 Cu1A 1_555 1_555
I1A_2 Cu1A 1_555 1_555
I1A_3 Cu1A 1_555 1_555
C3 C4 1_555 1_555
C5 C6 1_555 1_555
Cu1A_2 I1A 1_555 1_555
Cu1A_3 I1A 1_555 1_555
C3A C4A 1_555 1_555
C5A C6A 1_555 1_555
C6A C7A 1_555 1_555

#END
