
#######################################################################
#
#                 Cambridge Crystallographic Data Centre
#                                CCDC 
#
#######################################################################
#
# If this CIF has been generated from an entry in the Cambridge 
# Structural Database, then it will include bibliographic, chemical, 
# crystal, experimental, refinement or atomic coordinate data resulting 
# from the CCDC's data processing and validation procedures.
#
#######################################################################

data_RIPTUG
_symmetry_cell_setting           monoclinic
_symmetry_space_group_name_H-M   'P 21/n'
_symmetry_Int_Tables_number      14
_space_group_name_Hall           '-P 2yn'
loop_
_symmetry_equiv_pos_site_id
_symmetry_equiv_pos_as_xyz
1 x,y,z
2 1/2-x,1/2+y,1/2-z
3 -x,-y,-z
4 1/2+x,1/2-y,1/2+z
_cell_length_a                   4.2849(14)
_cell_length_b                   17.584(6)
_cell_length_c                   13.959(5)
_cell_angle_alpha                90
_cell_angle_beta                 97.884(14)
_cell_angle_gamma                90
_cell_volume                     1041.81
loop_
_atom_site_label
_atom_site_type_symbol
_atom_site_fract_x
_atom_site_fract_y
_atom_site_fract_z
Cu1 Cu 0.19039(17) 0.44029(3) 0.50896(5)
N1 N 0.1684(10) 0.3312(2) 0.4573(3)
C1 C 0.3487(13) 0.2796(3) 0.5017(4)
H1 H 0.4935 0.2934 0.5567
C2 C 0.3351(14) 0.2026(3) 0.4699(4)
N2 N 0.1582(11) 0.1789(2) 0.3953(3)
C3 C -0.0324(13) 0.2320(3) 0.3467(4)
C4 C -0.2281(13) 0.2116(3) 0.2625(4)
H2 H -0.2231 0.1611 0.2388
C5 C -0.4268(14) 0.2636(3) 0.2140(4)
H3 H -0.5600 0.2488 0.1570
C6 C -0.4365(13) 0.3373(3) 0.2466(4)
H4 H -0.5795 0.3724 0.2127
C7 C -0.2431(13) 0.3603(3) 0.3271(4)
H5 H -0.2491 0.4115 0.3486
C8 C -0.0355(13) 0.3082(3) 0.3779(4)
O1 O 0.5330(9) 0.1557(2) 0.5272(3)
C9 C 0.6016(18) 0.0444(3) 0.4294(5)
H6 H 0.6730 0.0754 0.3811
C10 C 0.5104(14) 0.0758(3) 0.5105(4)
C11 C 0.4124(16) 0.0323(3) 0.5804(4)
H7 H 0.3531 0.0556 0.6366
I1 I -0.24964(8) 0.454230(18) 0.62293(3)
Cu1B Cu 0.80961(17) -0.44029(3) 0.49104(5)
Cu1B_2 Cu -0.19039(17) 0.55971(3) 0.49104(5)
Cu1B_3 Cu 0.80961(17) 0.55971(3) 0.49104(5)
Cu1_2 Cu -0.80961(17) 0.44029(3) 0.50896(5)
Cu1_3 Cu 1.19039(17) 0.44029(3) 0.50896(5)
N1B N 0.8316(10) -0.3312(2) 0.5427(3)
C1B C 0.6513(13) -0.2796(3) 0.4983(4)
H1B H 0.5065 -0.2934 0.4433
C2B C 0.6649(14) -0.2026(3) 0.5301(4)
N2B N 0.8418(11) -0.1789(2) 0.6047(3)
C3B C 1.0324(13) -0.2320(3) 0.6533(4)
C4B C 1.2281(13) -0.2116(3) 0.7375(4)
H2B H 1.2231 -0.1611 0.7612
C5B C 1.4268(14) -0.2636(3) 0.7860(4)
H3B H 1.5600 -0.2488 0.8430
C6B C 1.4365(13) -0.3373(3) 0.7534(4)
H4B H 1.5795 -0.3724 0.7873
C7B C 1.2431(13) -0.3603(3) 0.6729(4)
H5B H 1.2491 -0.4115 0.6514
C8B C 1.0355(13) -0.3082(3) 0.6221(4)
O1B O 0.4670(9) -0.1557(2) 0.4728(3)
C9B C 0.3984(18) -0.0444(3) 0.5706(5)
H6B H 0.3270 -0.0754 0.6189
C10B C 0.4896(14) -0.0758(3) 0.4895(4)
C11B C 0.5876(16) -0.0323(3) 0.4196(4)
H7B H 0.6469 -0.0556 0.3634
I1B I 0.24964(8) 0.545770(18) 0.37707(3)
I1_2 I 0.75036(8) 0.454230(18) 0.62293(3)
I1B_2 I 0.24964(8) -0.454230(18) 0.37707(3)
I1B_3 I 1.24964(8) -0.454230(18) 0.37707(3)
I1_3 I 0.75036(8) -0.545770(18) 0.62293(3)
loop_
_geom_bond_atom_site_label_1
_geom_bond_atom_site_label_2
_geom_bond_site_symmetry_1
_geom_bond_site_symmetry_2
Cu1 N1 1_555 1_555
N1 C1 1_555 1_555
C1 H1 1_555 1_555
C2 C1 1_555 1_555
N2 C2 1_555 1_555
C3 N2 1_555 1_555
C4 C3 1_555 1_555
H2 C4 1_555 1_555
C5 C4 1_555 1_555
H3 C5 1_555 1_555
C6 C5 1_555 1_555
H4 C6 1_555 1_555
C7 C6 1_555 1_555
H5 C7 1_555 1_555
C8 N1 1_555 1_555
O1 C2 1_555 1_555
C9 H6 1_555 1_555
C10 O1 1_555 1_555
C11 C10 1_555 1_555
H7 C11 1_555 1_555
I1 Cu1 1_555 1_555
Cu1B N1B 1_555 1_555
Cu1B_2 I1 1_555 1_555
Cu1B_3 I1B 1_555 1_555
Cu1_2 I1 1_555 1_555
Cu1_3 I1_2 1_555 1_555
N1B C1B 1_555 1_555
C1B H1B 1_555 1_555
C2B C1B 1_555 1_555
N2B C2B 1_555 1_555
C3B N2B 1_555 1_555
C4B C3B 1_555 1_555
H2B C4B 1_555 1_555
C5B C4B 1_555 1_555
H3B C5B 1_555 1_555
C6B C5B 1_555 1_555
H4B C6B 1_555 1_555
C7B C6B 1_555 1_555
H5B C7B 1_555 1_555
C8B N1B 1_555 1_555
O1B C2B 1_555 1_555
C9B C11 1_555 1_555
H6B C9B 1_555 1_555
C10B O1B 1_555 1_555
C11B C9 1_555 1_555
H7B C11B 1_555 1_555
I1B Cu1 1_555 1_555
I1_2 Cu1 1_555 1_555
I1B_2 Cu1B 1_555 1_555
I1B_3 Cu1B 1_555 1_555
I1_3 Cu1B 1_555 1_555
C3 C8 1_555 1_555
C7 C8 1_555 1_555
C9 C10 1_555 1_555
Cu1B_2 I1B 1_555 1_555
Cu1B_3 I1_2 1_555 1_555
C3B C8B 1_555 1_555
C7B C8B 1_555 1_555
C9B C10B 1_555 1_555
C10B C11B 1_555 1_555

#END
