
#######################################################################
#
#                 Cambridge Crystallographic Data Centre
#                                CCDC 
#
#######################################################################
#
# If this CIF has been generated from an entry in the Cambridge 
# Structural Database, then it will include bibliographic, chemical, 
# crystal, experimental, refinement or atomic coordinate data resulting 
# from the CCDC's data processing and validation procedures.
#
#######################################################################

data_RIQNEL
_symmetry_cell_setting           triclinic
_symmetry_space_group_name_H-M   'P -1'
_symmetry_Int_Tables_number      2
_space_group_name_Hall           '-P 1'
loop_
_symmetry_equiv_pos_site_id
_symmetry_equiv_pos_as_xyz
1 x,y,z
2 -x,-y,-z
_cell_length_a                   7.8638(7)
_cell_length_b                   9.6992(9)
_cell_length_c                   11.2680(10)
_cell_angle_alpha                84.012(2)
_cell_angle_beta                 88.758(2)
_cell_angle_gamma                78.403(2)
_cell_volume                     837.301
loop_
_atom_site_label
_atom_site_type_symbol
_atom_site_fract_x
_atom_site_fract_y
_atom_site_fract_z
Ag1 Ag 0.0000 0.0000 1.0000
Ag2 Ag 0.30802(10) 0.11942(10) 0.47488(5)
N1 N 0.2090(9) 0.0865(9) 0.8586(6)
N2 N 0.3106(9) 0.1452(8) 0.6656(6)
N3 N 0.2160(10) 0.0808(9) 1.1003(6)
N4 N 0.3287(9) 0.1285(8) 1.2807(6)
C1 C 0.2103(12) 0.0861(12) 0.7397(8)
H1 H 0.1327 0.0396 0.7071
C2 C 0.4216(14) 0.2140(11) 0.7115(8)
H2 H 0.4956 0.2561 0.6608
C3 C 0.4280(14) 0.2232(11) 0.8323(8)
H3 H 0.5020 0.2738 0.8638
C4 C 0.3190(9) 0.1537(8) 0.9060(6)
C5 C 0.3255(9) 0.1475(9) 1.0386(7)
C6 C 0.4459(12) 0.2044(11) 1.0955(7)
H4 H 0.5268 0.2479 1.0529
C7 C 0.4394(13) 0.1932(11) 1.2182(8)
H5 H 0.5162 0.2329 1.2589
C8 C 0.2242(12) 0.0753(12) 1.2171(7)
H6 H 0.1468 0.0281 1.2598
Ag2A Ag -0.30802(10) -0.11942(10) 1.52512(5)
Ag2_2 Ag 0.30802(10) 0.11942(10) 1.47488(5)
Ag2A_2 Ag -0.30802(10) -0.11942(10) 0.52512(5)
N1A N -0.2090(9) -0.0865(9) 1.1414(6)
N2A N -0.3106(9) -0.1452(8) 1.3344(6)
N3A N -0.2160(10) -0.0808(9) 0.8997(6)
N4A N -0.3287(9) -0.1285(8) 0.7193(6)
N4_2 N 0.3287(9) 0.1285(8) 0.2807(6)
N4A_2 N -0.3287(9) -0.1285(8) 1.7193(6)
C1A C -0.2103(12) -0.0861(12) 1.2603(8)
H1A H -0.1327 -0.0396 1.2929
C2A C -0.4216(14) -0.2140(11) 1.2885(8)
H2A H -0.4956 -0.2561 1.3392
C3A C -0.4280(14) -0.2232(11) 1.1677(8)
H3A H -0.5020 -0.2738 1.1362
C4A C -0.3190(9) -0.1537(8) 1.0940(6)
C5A C -0.3255(9) -0.1475(9) 0.9614(7)
C6A C -0.4459(12) -0.2044(11) 0.9045(7)
H4A H -0.5268 -0.2479 0.9471
C7A C -0.4394(13) -0.1932(11) 0.7818(8)
H5A H -0.5162 -0.2329 0.7411
C8A C -0.2242(12) -0.0753(12) 0.7829(7)
H6A H -0.1468 -0.0281 0.7402
S1 S 0.1787(3) -0.2073(3) 1.5175(2)
O1 O 0.3342(10) -0.1660(10) 1.5413(8)
O2 O 0.0326(15) -0.147(3) 1.5790(12)
O3 O 0.1498(15) -0.2060(12) 1.3905(8)
C9 C 0.219(6) -0.388(3) 1.5704(18)
F1 F 0.287(3) -0.4216(16) 1.6703(13)
F2 F 0.049(4) -0.412(3) 1.5749(19)
F3 F 0.309(5) -0.4722(17) 1.4964(19)
S2 S -0.1576(7) 0.3830(6) 0.9852(5)
O4 O -0.1974(14) 0.2603(13) 0.9583(12)
O5 O 0.017(2) 0.3639(18) 1.0342(19)
O6 O -0.289(2) 0.4768(19) 1.0364(15)
C10 C -0.123(3) 0.461(2) 0.826(3)
F4 F -0.269(3) 0.4890(18) 0.7751(14)
F5 F -0.020(2) 0.3939(16) 0.7745(14)
F6 F -0.090(2) 0.5884(16) 0.8330(18)
loop_
_geom_bond_atom_site_label_1
_geom_bond_atom_site_label_2
_geom_bond_site_symmetry_1
_geom_bond_site_symmetry_2
Ag1 N1 1_555 1_555
Ag2 N2 1_555 1_555
N1 C1 1_555 1_555
N2 C1 1_555 1_555
N3 Ag1 1_555 1_555
N4 C7 1_555 1_555
C1 H1 1_555 1_555
C2 N2 1_555 1_555
H2 C2 1_555 1_555
C3 C2 1_555 1_555
H3 C3 1_555 1_555
C4 N1 1_555 1_555
C5 N3 1_555 1_555
C6 C5 1_555 1_555
H4 C6 1_555 1_555
C7 C6 1_555 1_555
H5 C7 1_555 1_555
C8 N3 1_555 1_555
H6 C8 1_555 1_555
S1 O1 1_555 1_555
O2 S1 1_555 1_555
O3 S1 1_555 1_555
C9 S1 1_555 1_555
F1 C9 1_555 1_555
F2 C9 1_555 1_555
F3 C9 1_555 1_555
S2 O4 1_555 1_555
O5 S2 1_555 1_555
O6 S2 1_555 1_555
C10 S2 1_555 1_555
F4 C10 1_555 1_555
F5 C10 1_555 1_555
F6 C10 1_555 1_555
Ag2A N2A 1_555 1_555
Ag2_2 N4 1_555 1_555
Ag2A_2 N4A 1_555 1_555
N1A Ag1 1_555 1_555
N2A C1A 1_555 1_555
N3A Ag1 1_555 1_555
N4A C7A 1_555 1_555
N4_2 Ag2 1_555 1_555
N4A_2 Ag2A 1_555 1_555
C1A N1A 1_555 1_555
H1A C1A 1_555 1_555
C2A N2A 1_555 1_555
H2A C2A 1_555 1_555
C3A C2A 1_555 1_555
H3A C3A 1_555 1_555
C4A N1A 1_555 1_555
C5A N3A 1_555 1_555
C6A C5A 1_555 1_555
H4A C6A 1_555 1_555
C7A C6A 1_555 1_555
H5A C7A 1_555 1_555
C8A N3A 1_555 1_555
H6A C8A 1_555 1_555
N4 C8 1_555 1_555
C3 C4 1_555 1_555
C4 C5 1_555 1_555
N4A C8A 1_555 1_555
C3A C4A 1_555 1_555
C4A C5A 1_555 1_555

#END
