
#######################################################################
#
#                 Cambridge Crystallographic Data Centre
#                                CCDC 
#
#######################################################################
#
# If this CIF has been generated from an entry in the Cambridge 
# Structural Database, then it will include bibliographic, chemical, 
# crystal, experimental, refinement or atomic coordinate data resulting 
# from the CCDC's data processing and validation procedures.
#
#######################################################################

data_RIQNIP
_symmetry_cell_setting           orthorhombic
_symmetry_space_group_name_H-M   'P b c m'
_symmetry_Int_Tables_number      57
_space_group_name_Hall           '-P 2c 2b'
loop_
_symmetry_equiv_pos_site_id
_symmetry_equiv_pos_as_xyz
1 x,y,z
2 -x,-y,1/2+z
3 -x,1/2+y,1/2-z
4 x,1/2-y,-z
5 -x,-y,-z
6 x,y,1/2-z
7 x,1/2-y,1/2+z
8 -x,1/2+y,z
_cell_length_a                   15.001(7)
_cell_length_b                   14.016(7)
_cell_length_c                   20.654(10)
_cell_angle_alpha                90
_cell_angle_beta                 90
_cell_angle_gamma                90
_cell_volume                     4342.59
loop_
_atom_site_label
_atom_site_type_symbol
_atom_site_fract_x
_atom_site_fract_y
_atom_site_fract_z
Cl1 Cl -0.1713(3) -0.3032(3) 0.2500
O1 O -0.2530(11) -0.2514(12) 0.2500
O2 O -0.1675(9) -0.3606(9) 0.1938(6)
O3 O -0.1000(12) -0.2378(13) 0.2500
O2E O -0.1675(9) -0.3606(9) 0.3062(6)
Cl2 Cl -0.4170(2) -0.4359(3) 0.7500
O4 O -0.4014(5) -0.3806(6) 0.8066(4)
O5 O -0.5088(7) -0.4652(8) 0.7500
O6 O -0.3617(9) -0.5193(9) 0.7500
O4E O -0.4014(5) -0.3806(6) 0.6934(4)
Cl3 Cl 0.5369(3) 0.2500 0.5000
O7 O 0.596(3) 0.215(2) 0.4575(10)
O8 O 0.4863(10) 0.1869(11) 0.5407(12)
O7C O 0.596(3) 0.285(2) 0.5425(10)
O8C O 0.4863(10) 0.3131(11) 0.4593(12)
O14 O -0.7825(11) -0.3278(14) 0.8869(7)
Co1 Co -0.22221(13) -0.2500 0.5000
Ag1 Ag -0.43745(8) -0.15753(9) 0.7500
Ag2 Ag -0.13479(8) -0.02679(10) 0.2500
N1 N -0.3125(6) -0.1624(6) 0.5538(4)
N2 N -0.3945(6) -0.1196(7) 0.6474(5)
N3 N -0.2020(6) -0.0356(6) 0.3482(4)
N4 N -0.2366(6) -0.1295(6) 0.4401(4)
C1 C -0.3459(8) -0.1798(8) 0.6115(5)
H1 H -0.3344 -0.2409 0.6295
C2 C -0.4128(10) -0.0356(9) 0.6205(6)
H2 H -0.4478 0.0090 0.6439
C3 C -0.3820(11) -0.0109(9) 0.5585(7)
H3 H -0.3964 0.0487 0.5393
C4 C -0.3297(8) -0.0771(7) 0.5266(6)
C5 C -0.2900(8) -0.0592(7) 0.4631(5)
C6 C -0.2990(8) 0.0245(8) 0.4290(6)
H4 H -0.3351 0.0750 0.4450
C7 C -0.2549(8) 0.0332(8) 0.3718(6)
H5 H -0.2618 0.0904 0.3475
C8 C -0.1964(7) -0.1144(8) 0.3840(5)
H6 H -0.1601 -0.1645 0.3678
N5 N -0.1107(18) -0.200(3) 0.5545(18)
C9 C -0.049(2) -0.187(3) 0.5832(19)
C10 C 0.033(2) -0.178(4) 0.626(2)
H7 H 0.0714 -0.1264 0.6098
H8 H 0.0665 -0.2379 0.6260
H9 H 0.0147 -0.1628 0.6706
O13 O -0.1336(17) 0.1630(14) 0.2500
H12 H -0.1096 0.1827 0.2152
N6 N -0.5672(8) -0.2441(10) 0.7500
C11 C -0.6067(8) -0.2700(9) 0.8044(6)
H13 H -0.5747 -0.2539 0.8431
C12 C -0.690(3) -0.323(5) 0.813(2)
C13 C -0.7232(13) -0.3432(13) 0.7500
C14 C -0.8126(11) -0.3892(12) 0.7500
C15 C -0.857(3) -0.413(3) 0.805(2)
H15 H -0.8219 -0.4192 0.8441
C16 C -0.9375(9) -0.4410(14) 0.8047(8)
H16 H -0.9736 -0.4393 0.8431
N9 N -0.9823(9) -0.4560(10) 0.7500
Ag1F Ag -0.43745(8) -0.34247(9) 0.2500
Ag2F Ag -1.13479(8) -0.47321(10) 0.7500
Ag2F_2 Ag -0.13479(8) -0.47321(10) 0.7500
N1C N -0.3125(6) -0.3376(6) 0.4462(4)
N2C N -0.3945(6) -0.3804(7) 0.3526(5)
N2E N -0.3945(6) -0.1196(7) 0.8526(5)
N3C N -0.2020(6) -0.4644(6) 0.6518(4)
N3E N -0.2020(6) -0.0356(6) 0.1518(4)
N4C N -0.2366(6) -0.3705(6) 0.5599(4)
C1C C -0.3459(8) -0.3202(8) 0.3885(5)
H1C H -0.3344 -0.2591 0.3705
C2C C -0.4128(10) -0.4644(9) 0.3795(6)
H2C H -0.4478 -0.5090 0.3561
C3C C -0.3820(11) -0.4891(9) 0.4415(7)
H3C H -0.3964 -0.5487 0.4607
C4C C -0.3297(8) -0.4229(7) 0.4734(6)
C5C C -0.2900(8) -0.4408(7) 0.5369(5)
C6C C -0.2990(8) -0.5245(8) 0.5710(6)
H4C H -0.3351 -0.5750 0.5550
C7C C -0.2549(8) -0.5332(8) 0.6282(6)
H5C H -0.2618 -0.5904 0.6525
C8C C -0.1964(7) -0.3856(8) 0.6160(5)
H6C H -0.1601 -0.3355 0.6322
N5C N -0.1107(18) -0.300(3) 0.4455(18)
C9C C -0.049(2) -0.313(3) 0.4168(19)
C10C C 0.033(2) -0.322(4) 0.374(2)
H7C H 0.0714 -0.3736 0.3902
H8C H 0.0665 -0.2621 0.3740
H9C H 0.0147 -0.3372 0.3294
H12E H -0.1096 0.1827 0.2848
C11E C -0.6067(8) -0.2700(9) 0.6956(6)
H13E H -0.5747 -0.2539 0.6569
C12E C -0.690(3) -0.323(5) 0.687(2)
C15E C -0.857(3) -0.413(3) 0.695(2)
H15E H -0.8219 -0.4192 0.6559
C16E C -0.9375(9) -0.4410(14) 0.6953(8)
H16E H -0.9736 -0.4393 0.6569
N9F N 0.0177(9) -0.0440(10) 0.2500
Cl4? Cl -0.0467(7) 0.0466(10) 0.5076(5)
O9? O 0.0343(11) 0.021(2) 0.5437(9)
O10? O -0.1317(14) 0.032(2) 0.5417(12)
O11? O -0.038(2) 0.1483(17) 0.501(3)
O12? O -0.1340(19) -0.183(3) 0.558(2)
H10? H -0.0821 -0.2030 0.5490
H11? H -0.1463 -0.1951 0.5971
H14? H -0.7107 -0.3433 0.8548
N7? N -0.681(4) -0.319(4) 0.798(2)
N8? N -0.849(3) -0.400(4) 0.808(2)
loop_
_geom_bond_atom_site_label_1
_geom_bond_atom_site_label_2
_geom_bond_site_symmetry_1
_geom_bond_site_symmetry_2
Co1 N1 1_555 1_555
Ag1 N2 1_555 1_555
Ag2 N3 1_555 1_555
N1 C1 1_555 1_555
N2 C1 1_555 1_555
N3 C7 1_555 1_555
N4 Co1 1_555 1_555
C1 H1 1_555 1_555
C2 N2 1_555 1_555
H2 C2 1_555 1_555
C3 C2 1_555 1_555
H3 C3 1_555 1_555
C4 N1 1_555 1_555
C5 N4 1_555 1_555
C6 C5 1_555 1_555
H4 C6 1_555 1_555
C7 C6 1_555 1_555
H5 C7 1_555 1_555
C8 N3 1_555 1_555
H6 C8 1_555 1_555
Cl1 O1 1_555 1_555
O2 Cl1 1_555 1_555
O3 Cl1 1_555 1_555
Cl2 O4 1_555 1_555
O5 Cl2 1_555 1_555
O6 Cl2 1_555 1_555
Cl3 O7 1_555 1_555
O8 Cl3 1_555 1_555
N5 Co1 1_555 1_555
C9 N5 1_555 1_555
C10 C9 1_555 1_555
H7 C10 1_555 1_555
H8 C10 1_555 1_555
H9 C10 1_555 1_555
O13 Ag2 1_555 1_555
H12 O13 1_555 1_555
N6 Ag1 1_555 1_555
C11 N6 1_555 1_555
H13 C11 1_555 1_555
C12 C11 1_555 1_555
C13 C12 1_555 1_555
C14 C13 1_555 1_555
C15 C14 1_555 1_555
H15 C15 1_555 1_555
C16 C15 1_555 1_555
H16 C16 1_555 1_555
N9 C16 1_555 1_555
Ag1F N2C 1_555 1_555
Ag2F N9 1_555 1_555
Ag2F_2 N3C 1_555 1_555
N1C Co1 1_555 1_555
N2C C1C 1_555 1_555
N2E Ag1 1_555 1_555
N3C C7C 1_555 1_555
N3E Ag2 1_555 1_555
N4C Co1 1_555 1_555
C1C N1C 1_555 1_555
H1C C1C 1_555 1_555
C2C N2C 1_555 1_555
H2C C2C 1_555 1_555
C3C C2C 1_555 1_555
H3C C3C 1_555 1_555
C4C N1C 1_555 1_555
C5C N4C 1_555 1_555
C6C C5C 1_555 1_555
H4C C6C 1_555 1_555
C7C C6C 1_555 1_555
H5C C7C 1_555 1_555
C8C N3C 1_555 1_555
H6C C8C 1_555 1_555
O2E Cl1 1_555 1_555
O4E Cl2 1_555 1_555
O7C Cl3 1_555 1_555
O8C Cl3 1_555 1_555
N5C Co1 1_555 1_555
C9C N5C 1_555 1_555
C10C C9C 1_555 1_555
H7C C10C 1_555 1_555
H8C C10C 1_555 1_555
H9C C10C 1_555 1_555
H12E O13 1_555 1_555
C11E N6 1_555 1_555
H13E C11E 1_555 1_555
C12E C13 1_555 1_555
C15E C14 1_555 1_555
H15E C15E 1_555 1_555
C16E N9 1_555 1_555
H16E C16E 1_555 1_555
N9F Ag2 1_555 1_555
N4 C8 1_555 1_555
C3 C4 1_555 1_555
C4 C5 1_555 1_555
N4C C8C 1_555 1_555
C3C C4C 1_555 1_555
C4C C5C 1_555 1_555
C11E C12E 1_555 1_555
C15E C16E 1_555 1_555

#END
