
#######################################################################
#
#                 Cambridge Crystallographic Data Centre
#                                CCDC 
#
#######################################################################
#
# If this CIF has been generated from an entry in the Cambridge 
# Structural Database, then it will include bibliographic, chemical, 
# crystal, experimental, refinement or atomic coordinate data resulting 
# from the CCDC's data processing and validation procedures.
#
#######################################################################

data_RIQNIO
_symmetry_cell_setting           monoclinic
_symmetry_space_group_name_H-M   'P 21/c'
_symmetry_Int_Tables_number      14
_space_group_name_Hall           '-P 2ybc'
loop_
_symmetry_equiv_pos_site_id
_symmetry_equiv_pos_as_xyz
1 x,y,z
2 x,1/2-y,1/2+z
3 -x,-y,-z
4 -x,1/2+y,1/2-z
_cell_length_a                   15.1964(3)
_cell_length_b                   15.0813(8)
_cell_length_c                   7.2346(4)
_cell_angle_alpha                90
_cell_angle_beta                 91.876(3)
_cell_angle_gamma                90
_cell_volume                     1657.15
loop_
_atom_site_label
_atom_site_type_symbol
_atom_site_fract_x
_atom_site_fract_y
_atom_site_fract_z
Cu1 Cu 0.13187(3) 0.22624(4) 0.13544(8)
Cu2 Cu 0.47448(3) 0.01641(4) -0.26532(8)
Cl1 Cl 0.02874(7) 0.26241(8) 0.3495(2)
Cl2 Cl 0.17900(7) 0.36619(8) 0.1043(2)
Cl3 Cl 0.58066(7) 0.11163(8) -0.1760(2)
Cl4 Cl 0.57156(7) -0.08056(8) -0.3856(2)
N1 N 0.1100(2) 0.0945(2) 0.1598(5)
N2 N 0.2520(2) 0.1757(2) 0.0511(5)
N3 N 0.3812(2) 0.0923(2) -0.1423(5)
N4 N 0.3714(2) -0.0686(2) -0.2722(5)
C1 C 0.0403(3) 0.0573(3) 0.2390(6)
H1 H -0.0096(3) 0.0933(3) 0.2605(6)
C2 C 0.0378(3) -0.0303(3) 0.2904(6)
H2 H -0.0144(3) -0.0557(3) 0.3361(6)
C3 C 0.1131(3) -0.0804(3) 0.2738(6)
H3 H 0.1151(3) -0.1397(3) 0.3177(6)
C4 C 0.1854(3) -0.0432(3) 0.1927(6)
H4 H 0.2382(3) -0.0763(3) 0.1822(6)
C5 C 0.1800(3) 0.0422(3) 0.1273(6)
C6 C 0.2493(3) 0.0869(3) 0.0264(6)
C7 C 0.3195(3) 0.2211(3) -0.0149(6)
H5 H 0.3208(3) 0.2838(3) -0.0036(6)
C8 C 0.3876(3) 0.1780(3) -0.0992(6)
H6 H 0.4395(3) 0.2097(3) -0.1269(6)
C9 C 0.3090(3) 0.0464(3) -0.0945(6)
C10 C 0.2978(3) -0.0390(3) -0.1916(6)
C11 C 0.2177(3) -0.0825(3) -0.2167(6)
H7 H 0.1656(3) -0.0586(3) -0.1677(6)
C12 C 0.2154(3) -0.1612(3) -0.3144(6)
H8 H 0.1616(3) -0.1929(3) -0.3297(6)
C13 C 0.2900(3) -0.1937(3) -0.3887(6)
H9 H 0.2892(3) -0.2483(3) -0.4541(6)
C14 C 0.3676(3) -0.1448(3) -0.3667(6)
H10 H 0.4196(3) -0.1665(3) -0.4206(6)
Cl1A Cl 0.02874(7) 0.23759(8) -0.1505(2)
Cl4B Cl 0.42844(7) 0.08056(8) -0.6144(2)
Cu1A Cu 0.13187(3) 0.27376(4) 0.63544(8)
Cu2B Cu 0.52552(3) -0.01641(4) -0.73468(8)
loop_
_geom_bond_atom_site_label_1
_geom_bond_atom_site_label_2
_geom_bond_site_symmetry_1
_geom_bond_site_symmetry_2
Cu1 Cl1 1_555 1_555
Cu2 Cl3 1_555 1_555
Cl1 Cu1A 1_555 1_555
Cl2 Cu1 1_555 1_555
Cl4 Cu2 1_555 1_555
N1 Cu1 1_555 1_555
N2 Cu1 1_555 1_555
N3 Cu2 1_555 1_555
N4 Cu2 1_555 1_555
C1 N1 1_555 1_555
H1 C1 1_555 1_555
C2 C1 1_555 1_555
H2 C2 1_555 1_555
C3 C2 1_555 1_555
H3 C3 1_555 1_555
C4 C3 1_555 1_555
H4 C4 1_555 1_555
C5 N1 1_555 1_555
C6 N2 1_555 1_555
C7 N2 1_555 1_555
H5 C7 1_555 1_555
C8 N3 1_555 1_555
H6 C8 1_555 1_555
C9 N3 1_555 1_555
C10 N4 1_555 1_555
C11 C10 1_555 1_555
H7 C11 1_555 1_555
C12 C11 1_555 1_555
H8 C12 1_555 1_555
C13 C12 1_555 1_555
H9 C13 1_555 1_555
C14 N4 1_555 1_555
H10 C14 1_555 1_555
Cl1A Cu1 1_555 1_555
Cl4B Cu2 1_555 1_555
Cu2B Cl4 1_555 1_555
C4 C5 1_555 1_555
C5 C6 1_555 1_555
C6 C9 1_555 1_555
C7 C8 1_555 1_555
C9 C10 1_555 1_555
C13 C14 1_555 1_555
Cl4B Cu2B 1_555 1_555

#END
