
#######################################################################
#
#                 Cambridge Crystallographic Data Centre
#                                CCDC 
#
#######################################################################
#
# If this CIF has been generated from an entry in the Cambridge 
# Structural Database, then it will include bibliographic, chemical, 
# crystal, experimental, refinement or atomic coordinate data resulting 
# from the CCDC's data processing and validation procedures.
#
#######################################################################

data_RIQVUJ
_symmetry_cell_setting           monoclinic
_symmetry_space_group_name_H-M   'P 21/c'
_symmetry_Int_Tables_number      14
_space_group_name_Hall           '-P 2ybc'
loop_
_symmetry_equiv_pos_site_id
_symmetry_equiv_pos_as_xyz
1 x,y,z
2 -x,1/2+y,1/2-z
3 -x,-y,-z
4 x,1/2-y,1/2+z
_cell_length_a                   13.0362(10)
_cell_length_b                   6.7037(4)
_cell_length_c                   16.4150(12)
_cell_angle_alpha                90
_cell_angle_beta                 108.589(3)
_cell_angle_gamma                90
_cell_volume                     1359.68
loop_
_atom_site_label
_atom_site_type_symbol
_atom_site_fract_x
_atom_site_fract_y
_atom_site_fract_z
Gd1 Gd 0.470641(9) 0.186416(17) 0.093514(8)
O1 O 0.37564(16) 0.2894(3) 0.18657(14)
O2 O 0.42197(14) 0.5550(3) 0.27182(12)
O3 O 0.42347(14) 0.3760(3) 0.42749(13)
O4 O 0.29407(15) 0.3746(3) 0.48712(13)
O5 O -0.25825(16) 0.1213(3) -0.19535(14)
O6 O -0.38036(14) 0.1242(3) -0.12523(13)
O7 O -0.39017(16) 0.5086(3) -0.03287(15)
O8 O -0.37196(16) 0.2760(3) 0.06663(14)
O9 O 0.56242(17) 0.4926(3) 0.17839(15)
C1 C 0.25227(19) 0.3914(4) 0.25583(17)
C2 C 0.2348(2) 0.3889(4) 0.33522(17)
C3 C 0.1278(2) 0.3758(4) 0.33565(19)
H1 H 0.1145 0.3760 0.3881
C4 C 0.0412(2) 0.3626(5) 0.2606(2)
H2 H -0.0289 0.3554 0.2633
C5 C 0.0579(2) 0.3600(4) 0.18105(18)
C6 C 0.1650(2) 0.3744(4) 0.18026(18)
H3 H 0.1782 0.3725 0.1278
C7 C 0.35956(19) 0.4115(4) 0.23902(17)
C8 C 0.3221(2) 0.3830(4) 0.42154(18)
C9 C -0.2014(2) 0.2413(4) -0.05319(18)
C10 C -0.2246(2) 0.3278(4) 0.01664(18)
C11 C -0.1402(2) 0.3702(4) 0.09179(18)
H4 H -0.1560 0.4253 0.1384
C12 C -0.0322(2) 0.3315(4) 0.09837(18)
C13 C -0.0104(2) 0.2553(5) 0.0263(2)
H5 H 0.0609 0.2342 0.0284
C14 C -0.0938(2) 0.2108(4) -0.0482(2)
H6 H -0.0779 0.1600 -0.0955
C15 C -0.2889(2) 0.1589(4) -0.12807(18)
C16 C -0.3388(2) 0.3750(4) 0.01536(17)
H7 H 0.558(3) 0.592(7) 0.144(3)
H8 H 0.527(3) 0.527(6) 0.209(3)
H9 H -0.319(4) 0.069(7) -0.243(4)
Gd1A Gd 0.529359(9) 0.686416(17) 0.406486(8)
Gd1C Gd 0.470641(9) 0.313584(17) 0.593514(8)
Gd1B Gd -0.470641(9) -0.186416(17) -0.093514(8)
Gd1B_2 Gd -0.470641(9) 0.813584(17) -0.093514(8)
Gd1_2 Gd -0.529359(9) 0.186416(17) 0.093514(8)
O2A O 0.57803(14) 0.0550(3) 0.22818(12)
O3C O 0.42347(14) 0.1240(3) -0.07251(13)
O3A O 0.57653(14) -0.1240(3) 0.07251(13)
O4C O 0.29407(15) 0.1254(3) -0.01288(13)
O6B O 0.38036(14) -0.1242(3) 0.12523(13)
O7B O 0.39017(16) 0.4914(3) 0.03287(15)
O8_2 O 0.62804(16) 0.2760(3) 0.06663(14)
loop_
_geom_bond_atom_site_label_1
_geom_bond_atom_site_label_2
_geom_bond_site_symmetry_1
_geom_bond_site_symmetry_2
Gd1 O1 1_555 1_555
O1 C7 1_555 1_555
O2 C7 1_555 1_555
O3 C8 1_555 1_555
O4 C8 1_555 1_555
O5 C15 1_555 1_555
O6 C15 1_555 1_555
O7 C16 1_555 1_555
O8 C16 1_555 1_555
O9 Gd1 1_555 1_555
C1 C2 1_555 1_555
C2 C3 1_555 1_555
C3 H1 1_555 1_555
C4 C3 1_555 1_555
H2 C4 1_555 1_555
C5 C4 1_555 1_555
C6 C1 1_555 1_555
H3 C6 1_555 1_555
C7 C1 1_555 1_555
C8 C2 1_555 1_555
C9 C10 1_555 1_555
C10 C11 1_555 1_555
C11 H4 1_555 1_555
C12 C5 1_555 1_555
C13 C12 1_555 1_555
H5 C13 1_555 1_555
C14 C9 1_555 1_555
H6 C14 1_555 1_555
C15 C9 1_555 1_555
C16 C10 1_555 1_555
H7 O9 1_555 1_555
H8 O9 1_555 1_555
H9 O5 1_555 1_555
Gd1A O2 1_555 1_555
Gd1C O3 1_555 1_555
Gd1B O6 1_555 1_555
Gd1B_2 O7 1_555 1_555
Gd1_2 O8 1_555 1_555
O2A Gd1 1_555 1_555
O3C Gd1 1_555 1_555
O3A Gd1 1_555 1_555
O4C Gd1 1_555 1_555
O6B Gd1 1_555 1_555
O7B Gd1 1_555 1_555
O8_2 Gd1 1_555 1_555
O3 Gd1A 1_555 1_555
O4 Gd1C 1_555 1_555
C5 C6 1_555 1_555
C11 C12 1_555 1_555
C13 C14 1_555 1_555

#END
