
#######################################################################
#
#                 Cambridge Crystallographic Data Centre
#                                CCDC 
#
#######################################################################
#
# If this CIF has been generated from an entry in the Cambridge 
# Structural Database, then it will include bibliographic, chemical, 
# crystal, experimental, refinement or atomic coordinate data resulting 
# from the CCDC's data processing and validation procedures.
#
#######################################################################

data_RIQVOD
_symmetry_cell_setting           monoclinic
_symmetry_space_group_name_H-M   'P 21/c'
_symmetry_Int_Tables_number      14
_space_group_name_Hall           '-P 2ybc'
loop_
_symmetry_equiv_pos_site_id
_symmetry_equiv_pos_as_xyz
1 x,y,z
2 -x,1/2+y,1/2-z
3 -x,-y,-z
4 x,1/2-y,1/2+z
_cell_length_a                   13.030(6)
_cell_length_b                   6.715(3)
_cell_length_c                   16.385(8)
_cell_angle_alpha                90
_cell_angle_beta                 108.600(3)
_cell_angle_gamma                90
_cell_volume                     1358.75
loop_
_atom_site_label
_atom_site_type_symbol
_atom_site_fract_x
_atom_site_fract_y
_atom_site_fract_z
Eu1 Eu 0.47056(2) 0.18636(4) 0.093352(18)
O1 O 0.3753(3) 0.2896(6) 0.1872(3)
O2 O 0.4212(3) 0.5546(6) 0.2719(2)
O3 O 0.4231(3) 0.3753(6) 0.4275(3)
O4 O 0.2931(3) 0.3741(6) 0.4865(3)
O5 O -0.2584(3) 0.1227(7) -0.1946(3)
O6 O -0.3798(3) 0.1241(6) -0.1252(3)
O7 O -0.3892(3) 0.5091(6) -0.0326(3)
O8 O -0.3716(3) 0.2762(6) 0.0660(3)
O9 O 0.5630(3) 0.4932(6) 0.1783(3)
C1 C 0.2517(4) 0.3912(8) 0.2553(4)
C2 C 0.2347(4) 0.3883(8) 0.3353(4)
C3 C 0.1281(4) 0.3750(10) 0.3356(4)
H1 H 0.1150 0.3749 0.3882
C4 C 0.0407(5) 0.3620(10) 0.2604(4)
H2 H -0.0294 0.3553 0.2632
C5 C 0.0579(4) 0.3591(9) 0.1806(4)
C6 C 0.1643(4) 0.3737(9) 0.1805(4)
H3 H 0.1774 0.3717 0.1279
C7 C 0.3591(4) 0.4133(9) 0.2391(3)
C8 C 0.3221(4) 0.3834(9) 0.4215(4)
C9 C -0.2007(4) 0.2400(9) -0.0533(4)
C10 C -0.2244(4) 0.3277(8) 0.0160(4)
C11 C -0.1397(4) 0.3707(8) 0.0917(4)
H4 H -0.1554 0.4266 0.1383
C12 C -0.0318(4) 0.3307(9) 0.0982(4)
C13 C -0.0108(4) 0.2546(10) 0.0264(4)
H5 H 0.0606 0.2349 0.0284
C14 C -0.0937(5) 0.2072(9) -0.0482(4)
H6 H -0.0775 0.1533 -0.0950
C15 C -0.2888(4) 0.1587(8) -0.1277(4)
C16 C -0.3376(4) 0.3743(8) 0.0154(4)
H7 H 0.564(6) 0.588(8) 0.144(4)
H8 H 0.513(5) 0.509(11) 0.200(5)
H9 H -0.308(6) 0.071(13) -0.237(6)
Eu1A Eu 0.52944(2) 0.68636(4) 0.406648(18)
Eu1C Eu 0.47056(2) 0.31364(4) 0.593352(18)
Eu1B Eu -0.47056(2) -0.18636(4) -0.093352(18)
Eu1B_2 Eu -0.47056(2) 0.81364(4) -0.093352(18)
Eu1_2 Eu -0.52944(2) 0.18636(4) 0.093352(18)
O2A O 0.5788(3) 0.0546(6) 0.2281(2)
O3C O 0.4231(3) 0.1247(6) -0.0725(3)
O3A O 0.5769(3) -0.1247(6) 0.0725(3)
O4C O 0.2931(3) 0.1259(6) -0.0135(3)
O6B O 0.3798(3) -0.1241(6) 0.1252(3)
O7B O 0.3892(3) 0.4909(6) 0.0326(3)
O8_2 O 0.6284(3) 0.2762(6) 0.0660(3)
loop_
_geom_bond_atom_site_label_1
_geom_bond_atom_site_label_2
_geom_bond_site_symmetry_1
_geom_bond_site_symmetry_2
Eu1 O1 1_555 1_555
O1 C7 1_555 1_555
O2 C7 1_555 1_555
O3 C8 1_555 1_555
O4 C8 1_555 1_555
O5 C15 1_555 1_555
O6 C15 1_555 1_555
O7 C16 1_555 1_555
O8 C16 1_555 1_555
O9 Eu1 1_555 1_555
C1 C2 1_555 1_555
C2 C3 1_555 1_555
C3 H1 1_555 1_555
C4 C3 1_555 1_555
H2 C4 1_555 1_555
C5 C4 1_555 1_555
C6 C1 1_555 1_555
H3 C6 1_555 1_555
C7 C1 1_555 1_555
C8 C2 1_555 1_555
C9 C10 1_555 1_555
C10 C11 1_555 1_555
C11 H4 1_555 1_555
C12 C5 1_555 1_555
C13 C12 1_555 1_555
H5 C13 1_555 1_555
C14 C9 1_555 1_555
H6 C14 1_555 1_555
C15 C9 1_555 1_555
C16 C10 1_555 1_555
H7 O9 1_555 1_555
H8 O9 1_555 1_555
H9 O5 1_555 1_555
Eu1A O2 1_555 1_555
Eu1C O3 1_555 1_555
Eu1B O6 1_555 1_555
Eu1B_2 O7 1_555 1_555
Eu1_2 O8 1_555 1_555
O2A Eu1 1_555 1_555
O3C Eu1 1_555 1_555
O3A Eu1 1_555 1_555
O4C Eu1 1_555 1_555
O6B Eu1 1_555 1_555
O7B Eu1 1_555 1_555
O8_2 Eu1 1_555 1_555
O3 Eu1A 1_555 1_555
O4 Eu1C 1_555 1_555
C5 C6 1_555 1_555
C11 C12 1_555 1_555
C13 C14 1_555 1_555

#END
