
#######################################################################
#
#                 Cambridge Crystallographic Data Centre
#                                CCDC 
#
#######################################################################
#
# If this CIF has been generated from an entry in the Cambridge 
# Structural Database, then it will include bibliographic, chemical, 
# crystal, experimental, refinement or atomic coordinate data resulting 
# from the CCDC's data processing and validation procedures.
#
#######################################################################

data_RIRBIE01
_symmetry_cell_setting           monoclinic
_symmetry_space_group_name_H-M   'P 21/c'
_symmetry_Int_Tables_number      14
_space_group_name_Hall           '-P 2ybc'
loop_
_symmetry_equiv_pos_site_id
_symmetry_equiv_pos_as_xyz
1 x,y,z
2 -x,1/2+y,1/2-z
3 -x,-y,-z
4 x,1/2-y,1/2+z
_cell_length_a                   9.1087(2)
_cell_length_b                   12.6860(3)
_cell_length_c                   16.3140(4)
_cell_angle_alpha                90
_cell_angle_beta                 99.696(2)
_cell_angle_gamma                90
_cell_volume                     1858.2
loop_
_atom_site_label
_atom_site_type_symbol
_atom_site_fract_x
_atom_site_fract_y
_atom_site_fract_z
Fe1 Fe 0.65195(6) -0.50386(4) 1.23753(3)
Ag1 Ag 0.73764(4) -0.72539(3) 0.97990(2)
Ag2 Ag 0.58157(4) -0.26826(3) 1.49272(2)
Cl1 Cl 0.11182(17) -0.61197(16) 1.02084(9)
Cl2 Cl 1.21228(14) -0.47144(11) 1.45067(7)
N1 N 0.4292(5) -0.5635(3) 1.2128(2)
N2 N 0.8768(4) -0.4517(3) 1.2640(2)
N3 N 0.7071(4) -0.6243(3) 1.3206(2)
N4 N 0.6001(4) -0.3861(3) 1.1508(2)
N5 N 0.7074(4) -0.5943(3) 1.1439(2)
N6 N 0.6036(4) -0.4118(3) 1.3328(2)
C1 C 0.3486(6) -0.5659(4) 1.1362(3)
H1 H 0.3878 -0.5373 1.0920
C2 C 0.2066(6) -0.6106(4) 1.1218(3)
C3 C 0.1453(6) -0.6528(4) 1.1851(3)
H2 H 0.0507 -0.6827 1.1752
C4 C 0.2273(6) -0.6501(4) 1.2638(3)
H3 H 0.1891 -0.6778 1.3086
C5 C 0.3678(6) -0.6053(4) 1.2753(3)
H4 H 0.4227 -0.6038 1.3288
C6 C 0.9604(5) -0.4661(3) 1.3391(3)
H5 H 0.9169 -0.4953 1.3816
C7 C 1.1087(5) -0.4390(4) 1.3551(3)
C8 C 1.1746(6) -0.3891(4) 1.2951(3)
H6 H 1.2731 -0.3665 1.3061
C9 C 1.0875(6) -0.3744(5) 1.2182(3)
H7 H 1.1271 -0.3423 1.1755
C10 C 0.9417(6) -0.4075(4) 1.2053(3)
H8 H 0.8854 -0.3986 1.1527
C11 C 0.5927(5) -0.3611(4) 1.3897(3)
C12 C 0.5897(5) -0.3283(4) 1.0962(3)
C13 C 0.7290(5) -0.6413(4) 1.0870(3)
C14 C 0.7285(5) -0.6835(4) 1.3738(3)
Ag1C Ag 0.73764(4) -0.77461(3) 1.47990(2)
Ag2C Ag 0.58157(4) -0.23174(3) 0.99272(2)
C12C C 0.5897(5) -0.1717(4) 1.5962(3)
C14C C 0.7285(5) -0.8165(4) 0.8738(3)
loop_
_geom_bond_atom_site_label_1
_geom_bond_atom_site_label_2
_geom_bond_site_symmetry_1
_geom_bond_site_symmetry_2
Fe1 N1 1_555 1_555
Ag1 C13 1_555 1_555
Ag2 C11 1_555 1_555
Cl1 C2 1_555 1_555
Cl2 C7 1_555 1_555
N1 C1 1_555 1_555
N2 Fe1 1_555 1_555
N3 Fe1 1_555 1_555
N4 Fe1 1_555 1_555
N5 Fe1 1_555 1_555
N6 Fe1 1_555 1_555
C1 H1 1_555 1_555
C2 C1 1_555 1_555
C3 C2 1_555 1_555
H2 C3 1_555 1_555
C4 C3 1_555 1_555
H3 C4 1_555 1_555
C5 N1 1_555 1_555
H4 C5 1_555 1_555
C6 N2 1_555 1_555
H5 C6 1_555 1_555
C7 C6 1_555 1_555
C8 C7 1_555 1_555
H6 C8 1_555 1_555
C9 C8 1_555 1_555
H7 C9 1_555 1_555
C10 N2 1_555 1_555
H8 C10 1_555 1_555
C11 N6 1_555 1_555
C12 N4 1_555 1_555
C13 N5 1_555 1_555
C14 N3 1_555 1_555
Ag1C C14 1_555 1_555
Ag2C C12 1_555 1_555
C12C Ag2 1_555 1_555
C14C Ag1 1_555 1_555
C4 C5 1_555 1_555
C9 C10 1_555 1_555

#END
