
#######################################################################
#
#                 Cambridge Crystallographic Data Centre
#                                CCDC 
#
#######################################################################
#
# If this CIF has been generated from an entry in the Cambridge 
# Structural Database, then it will include bibliographic, chemical, 
# crystal, experimental, refinement or atomic coordinate data resulting 
# from the CCDC's data processing and validation procedures.
#
#######################################################################

data_RIRBEA
_symmetry_cell_setting           triclinic
_symmetry_space_group_name_H-M   'P -1'
_symmetry_Int_Tables_number      2
_space_group_name_Hall           '-P 1'
loop_
_symmetry_equiv_pos_site_id
_symmetry_equiv_pos_as_xyz
1 x,y,z
2 -x,-y,-z
_cell_length_a                   10.6450(4)
_cell_length_b                   12.3660(5)
_cell_length_c                   15.0310(8)
_cell_angle_alpha                99.888(2)
_cell_angle_beta                 93.642(2)
_cell_angle_gamma                95.419(3)
_cell_volume                     1934.09
loop_
_atom_site_label
_atom_site_type_symbol
_atom_site_fract_x
_atom_site_fract_y
_atom_site_fract_z
Fe1 Fe 0.79527(10) 0.55803(10) 0.29173(8)
Fe2 Fe 0.68680(10) 0.03760(10) 0.77553(8)
Ag1 Ag 0.74769(8) 0.80888(7) 0.03992(5)
Ag2 Ag 0.74626(7) 0.27797(7) 0.52123(5)
Ag3 Ag 0.29812(6) 0.58087(7) 0.29420(5)
Ag4 Ag 0.18595(6) 0.03246(7) 0.77042(6)
F1 F 0.9720(15) 0.2096(14) 0.0830(12)
F2 F 1.0318(7) 0.8445(8) 0.5830(6)
F3 F 0.5125(19) -0.3075(19) 0.5081(17)
F4 F 0.9379(19) 0.4219(18) 0.9622(16)
N1 N 0.7861(7) 0.6456(7) 0.1793(5)
N2 N 0.5947(7) 0.5617(8) 0.2961(6)
N3 N 0.7980(7) 0.4638(7) 0.4004(5)
N4 N 0.9956(7) 0.5664(6) 0.2903(5)
N5 N 0.6825(7) 0.1088(7) 0.6540(5)
N6 N 0.4832(7) 0.0286(7) 0.7704(5)
N7 N 0.6949(7) 0.9638(7) -0.1040(6)
N8 N 0.8889(7) 0.0434(7) 0.7737(6)
N9 N 0.7735(7) 0.3950(5) 0.1999(5)
C1 C 0.6553(7) 0.3339(8) 0.1821(6)
C2 C 0.6435(11) 0.2279(8) 0.1312(8)
C3 C 0.7498(15) 0.1829(5) 0.0982(7)
C4 C 0.8680(12) 0.2440(9) 0.1160(7)
C5 C 0.8798(7) 0.3500(8) 0.1668(6)
N10 N 0.8220(5) 0.7169(4) 0.3901(4)
C6 C 0.7435(6) 0.7995(6) 0.3842(4)
C7 C 0.7631(7) 0.8978(5) 0.4464(5)
C8 C 0.8612(8) 0.9134(5) 0.5145(5)
C9 C 0.9397(6) 0.8308(6) 0.5204(4)
C10 C 0.9201(5) 0.7325(5) 0.4582(4)
N11 N 0.6748(6) -0.1326(5) 0.6973(4)
C11 C 0.7705(6) -0.1957(7) 0.7175(5)
C12 C 0.7773(9) -0.2987(6) 0.6649(7)
C13 C 0.6884(10) -0.3387(5) 0.5921(7)
C14 C 0.5927(8) -0.2756(7) 0.5719(5)
C15 C 0.5859(6) -0.1725(6) 0.6245(5)
N12 N 0.7058(6) 0.2081(4) 0.8571(4)
C16 C 0.5969(5) 0.2547(7) 0.8828(6)
C17 C 0.6061(9) 0.3606(8) 0.9336(7)
C18 C 0.7242(11) 0.4199(5) 0.9589(6)
C19 C 0.8331(8) 0.3733(6) 0.9333(6)
C20 C 0.8239(5) 0.2674(6) 0.8824(6)
C21 C 0.7784(9) 0.7008(9) 0.1259(7)
C22 C 0.4883(9) 0.5697(9) 0.2969(7)
C23 C 0.7824(9) 0.3981(9) 0.4427(7)
C24 C 0.7018(9) 0.1618(9) 0.6005(7)
C25 C 1.1019(9) 0.5747(8) 0.2893(6)
C26 C 0.3773(8) 0.0257(9) 0.7685(7)
C27 C 0.7141(10) 0.9098(9) -0.0522(7)
C28 C 0.9947(8) 0.0377(8) 0.7715(7)
Fe2_2 Fe 0.68680(10) 1.03760(10) -0.22447(8)
Ag3_2 Ag 1.29812(6) 0.58087(7) 0.29420(5)
Ag4_2 Ag 1.18595(6) 0.03246(7) 0.77042(6)
N7_2 N 0.6949(7) -0.0362(7) 0.8960(6)
C25_2 C 0.1019(9) 0.5747(8) 0.2893(6)
C28_2 C -0.0053(8) 0.0377(8) 0.7715(7)
loop_
_geom_bond_atom_site_label_1
_geom_bond_atom_site_label_2
_geom_bond_site_symmetry_1
_geom_bond_site_symmetry_2
Fe1 N1 1_555 1_555
Fe2 N5 1_555 1_555
Ag1 C21 1_555 1_555
Ag2 C23 1_555 1_555
Ag3 C22 1_555 1_555
Ag4 C26 1_555 1_555
F1 C4 1_555 1_555
F2 C9 1_555 1_555
F3 C14 1_555 1_555
F4 C19 1_555 1_555
N1 C21 1_555 1_555
N2 Fe1 1_555 1_555
N3 Fe1 1_555 1_555
N4 Fe1 1_555 1_555
N5 C24 1_555 1_555
N6 Fe2 1_555 1_555
N7 C27 1_555 1_555
N8 Fe2 1_555 1_555
N9 Fe1 1_555 1_555
C1 N9 1_555 1_555
C2 C1 1_555 1_555
C3 C2 1_555 1_555
C4 C3 1_555 1_555
C5 N9 1_555 1_555
N10 Fe1 1_555 1_555
C6 N10 1_555 1_555
C7 C6 1_555 1_555
C8 C7 1_555 1_555
C9 C8 1_555 1_555
C10 N10 1_555 1_555
N11 Fe2 1_555 1_555
C11 N11 1_555 1_555
C12 C11 1_555 1_555
C13 C12 1_555 1_555
C14 C13 1_555 1_555
C15 N11 1_555 1_555
N12 Fe2 1_555 1_555
C16 N12 1_555 1_555
C17 C16 1_555 1_555
C18 C17 1_555 1_555
C19 C18 1_555 1_555
C20 N12 1_555 1_555
C22 N2 1_555 1_555
C23 N3 1_555 1_555
C24 Ag2 1_555 1_555
C25 N4 1_555 1_555
C26 N6 1_555 1_555
C27 Ag1 1_555 1_555
C28 N8 1_555 1_555
Fe2_2 N7 1_555 1_555
Ag3_2 C25 1_555 1_555
Ag4_2 C28 1_555 1_555
N7_2 Fe2 1_555 1_555
C25_2 Ag3 1_555 1_555
C28_2 Ag4 1_555 1_555
C4 C5 1_555 1_555
C9 C10 1_555 1_555
C14 C15 1_555 1_555
C19 C20 1_555 1_555

#END
