
#######################################################################
#
#                 Cambridge Crystallographic Data Centre
#                                CCDC 
#
#######################################################################
#
# If this CIF has been generated from an entry in the Cambridge 
# Structural Database, then it will include bibliographic, chemical, 
# crystal, experimental, refinement or atomic coordinate data resulting 
# from the CCDC's data processing and validation procedures.
#
#######################################################################

data_RIRCAX01
_symmetry_cell_setting           monoclinic
_symmetry_space_group_name_H-M   'P 21'
_symmetry_Int_Tables_number      4
_space_group_name_Hall           'P 2yb'
loop_
_symmetry_equiv_pos_site_id
_symmetry_equiv_pos_as_xyz
1 x,y,z
2 -x,1/2+y,-z
_cell_length_a                   15.3630(4)
_cell_length_b                   13.4180(3)
_cell_length_c                   16.6060(5)
_cell_angle_alpha                90
_cell_angle_beta                 112.5030(10)
_cell_angle_gamma                90
_cell_volume                     3162.53
loop_
_atom_site_label
_atom_site_type_symbol
_atom_site_fract_x
_atom_site_fract_y
_atom_site_fract_z
Fe1 Fe 0.7496(2) 0.2650(2) 1.5014(2)
Ag1 Ag 0.45937(11) 0.05168(14) 1.47103(11)
Ag2 Ag 1.01941(12) 0.50799(13) 1.53224(12)
I1 I 0.87657(13) -0.02997(16) 1.78989(14)
I2 I 0.62267(13) 0.5633(2) 1.21945(15)
I3 I 0.10580(13) 0.24077(16) 1.52706(13)
N2 N 0.8090(9) 0.2333(10) 1.6291(6)
C6 C 0.8160(11) 0.1356(8) 1.6587(8)
C7 C 0.8541(12) 0.1157(8) 1.7476(9)
C8 C 0.8852(11) 0.1936(11) 1.8070(6)
C9 C 0.8783(12) 0.2914(10) 1.7774(7)
C10 C 0.8401(11) 0.3112(8) 1.6885(8)
N3 N 0.6905(9) 0.2978(9) 1.3745(6)
C11 C 0.6793(11) 0.3960(8) 1.3457(8)
C12 C 0.6426(13) 0.4166(8) 1.2569(9)
C13 C 0.6171(12) 0.3389(11) 1.1969(6)
C14 C 0.6283(12) 0.2407(10) 1.2258(7)
C15 C 0.6650(10) 0.2201(7) 1.3146(8)
N4 N 0.3750(10) 0.1965(11) 1.5048(11)
C16 C 0.4075(10) 0.2919(14) 1.4992(13)
C17 C 0.3536(14) 0.3744(10) 1.5012(15)
C18 C 0.2673(13) 0.3614(11) 1.5087(14)
C19 C 0.2349(9) 0.2660(13) 1.5143(12)
C20 C 0.2887(11) 0.1835(10) 1.5124(12)
N8 N 0.6490(12) 0.1738(13) 1.4891(11)
N10 N 0.8500(10) 0.3590(12) 1.5139(10)
N11 N 0.6753(11) 0.3699(11) 1.5234(12)
C27 C 0.9109(15) 0.4137(18) 1.5255(15)
C29 C 0.8775(15) 0.1083(17) 1.4708(14)
N13 N 0.8249(11) 0.1634(12) 1.4781(10)
C32 C 0.5815(15) 0.1300(18) 1.4848(14)
C33 C 0.6321(15) 0.4356(16) 1.5345(14)
Ag1A Ag 0.54063(11) 0.55168(14) 1.52897(11)
Ag2A Ag 0.98059(12) 0.00799(13) 1.46776(12)
C29A C 1.1225(15) 0.6083(17) 1.5292(14)
C33A C 0.3679(15) -0.0644(16) 1.4655(14)
Fe2 Fe 0.7484(2) 0.2652(2) 0.99995(19)
Ag3 Ag 0.47778(11) 0.05495(13) 1.01865(11)
Ag4 Ag 1.00136(12) 0.00069(12) 1.03009(12)
I4 I 0.90906(14) 0.55319(19) 1.28635(16)
I5 I 0.59058(14) -0.02336(18) 0.71027(15)
I6 I 0.10263(11) 0.24110(14) 1.03050(12)
N1 N 0.8120(8) 0.2936(9) 1.1255(6)
C1 C 0.8323(11) 0.2139(7) 1.1832(9)
C2 C 0.8724(14) 0.2310(11) 1.2725(8)
C3 C 0.8921(13) 0.3278(13) 1.3041(6)
C4 C 0.8718(12) 0.4075(9) 1.2464(9)
C5 C 0.8317(11) 0.3904(8) 1.1570(8)
N5 N 0.3673(10) 0.1984(11) 1.0042(11)
C21 C 0.2816(11) 0.1842(9) 1.0127(12)
C22 C 0.2313(9) 0.2657(12) 1.0237(11)
C23 C 0.2668(13) 0.3614(10) 1.0261(13)
C24 C 0.3525(14) 0.3757(10) 1.0176(15)
C25 C 0.4027(10) 0.2942(14) 1.0066(12)
N6 N 0.8354(11) 0.3538(12) 0.9792(10)
N7 N 0.6593(11) 0.3757(13) 0.9839(11)
N9 N 0.8349(12) 0.1561(13) 1.0122(11)
C26 C 0.8949(14) 0.0976(16) 1.0230(13)
N12 N 0.6582(12) 0.1762(13) 1.0202(11)
C28 C 0.8924(15) 0.4094(18) 0.9724(14)
C30 C 0.5991(13) 0.1331(16) 1.0267(12)
C31 C 0.6160(15) 0.4376(17) 0.9871(14)
N16 N 0.6875(9) 0.2353(9) 0.8716(6)
C44 C 0.6648(11) 0.3151(7) 0.8138(8)
C45 C 0.6198(11) 0.2982(9) 0.7248(8)
C46 C 0.5975(11) 0.2016(10) 0.6935(6)
C47 C 0.6202(11) 0.1218(8) 0.7513(8)
C48 C 0.6652(10) 0.1387(8) 0.8403(7)
Ag3A Ag 0.52222(11) 0.55495(13) 0.98135(11)
Ag4A Ag 0.99864(12) 0.50069(12) 0.96991(12)
C28A C 1.1076(15) -0.0906(18) 1.0276(14)
C31A C 0.3840(15) -0.0624(17) 1.0129(14)
N14 N 0.1368(10) 0.2102(11) 0.2946(16)
C34 C 0.0872(6) 0.1211(11) 0.2719(8)
C35 C 0.1258(9) 0.0404(10) 0.2447(15)
C36 C 0.2141(9) 0.0489(9) 0.2403(15)
C37 C 0.2636(5) 0.1380(8) 0.2630(6)
C38 C 0.2250(9) 0.2187(9) 0.2901(16)
I7 I 0.3933(2) 0.1505(3) 0.2571(2)
N15 N 0.838(2) 0.0560(15) 1.266(5)
C39 C 0.9049(13) -0.0060(13) 1.255(3)
C40 C 0.8849(6) -0.1063(11) 1.2359(9)
C41 C 0.7980(7) -0.1447(9) 1.2280(12)
C42 C 0.7310(7) -0.0827(9) 1.2392(13)
C43 C 0.7510(18) 0.0176(13) 1.258(4)
I8 I 0.6013(2) -0.1332(3) 1.2287(3)
loop_
_geom_bond_atom_site_label_1
_geom_bond_atom_site_label_2
_geom_bond_site_symmetry_1
_geom_bond_site_symmetry_2
Fe1 N2 1_555 1_555
Fe2 N1 1_555 1_555
Ag1 N4 1_555 1_555
Ag2 C27 1_555 1_555
Ag3 N5 1_555 1_555
Ag4 C26 1_555 1_555
I1 C7 1_555 1_555
I2 C12 1_555 1_555
I3 C19 1_555 1_555
I4 C4 1_555 1_555
I5 C47 1_555 1_555
I6 C22 1_555 1_555
N1 C1 1_555 1_555
C1 C2 1_555 1_555
C2 C3 1_555 1_555
C3 C4 1_555 1_555
C4 C5 1_555 1_555
C5 N1 1_555 1_555
N2 C6 1_555 1_555
C6 C7 1_555 1_555
C7 C8 1_555 1_555
C8 C9 1_555 1_555
C9 C10 1_555 1_555
C10 N2 1_555 1_555
N3 Fe1 1_555 1_555
C11 N3 1_555 1_555
C12 C11 1_555 1_555
C13 C12 1_555 1_555
C14 C13 1_555 1_555
C15 N3 1_555 1_555
N4 C16 1_555 1_555
C16 C17 1_555 1_555
C17 C18 1_555 1_555
C18 C19 1_555 1_555
C19 C20 1_555 1_555
C20 N4 1_555 1_555
N5 C21 1_555 1_555
C21 C22 1_555 1_555
C22 C23 1_555 1_555
C23 C24 1_555 1_555
C24 C25 1_555 1_555
C25 N5 1_555 1_555
N6 Fe2 1_555 1_555
N7 Fe2 1_555 1_555
N8 Fe1 1_555 1_555
N9 Fe2 1_555 1_555
N10 Fe1 1_555 1_555
C26 N9 1_555 1_555
N11 Fe1 1_555 1_555
N12 Fe2 1_555 1_555
C27 N10 1_555 1_555
C28 N6 1_555 1_555
C29 N13 1_555 1_555
N13 Fe1 1_555 1_555
C30 Ag3 1_555 1_555
C31 N7 1_555 1_555
C32 Ag1 1_555 1_555
C33 N11 1_555 1_555
N14 C34 1_555 1_555
C34 C35 1_555 1_555
C35 C36 1_555 1_555
C36 C37 1_555 1_555
C37 C38 1_555 1_555
C38 N14 1_555 1_555
I7 C37 1_555 1_555
N15 C39 1_555 1_555
C39 C40 1_555 1_555
C40 C41 1_555 1_555
C41 C42 1_555 1_555
C42 C43 1_555 1_555
C43 N15 1_555 1_555
I8 C42 1_555 1_555
N16 Fe2 1_555 1_555
C44 N16 1_555 1_555
C45 C44 1_555 1_555
C46 C45 1_555 1_555
C47 C46 1_555 1_555
C48 N16 1_555 1_555
Ag1A C33 1_555 1_555
Ag2A C29 1_555 1_555
Ag3A C31 1_555 1_555
Ag4A C28 1_555 1_555
C28A Ag4 1_555 1_555
C29A Ag2 1_555 1_555
C31A Ag3 1_555 1_555
C33A Ag1 1_555 1_555
C14 C15 1_555 1_555
N8 C32 1_555 1_555
N12 C30 1_555 1_555
C47 C48 1_555 1_555

#END
