
#######################################################################
#
#                 Cambridge Crystallographic Data Centre
#                                CCDC 
#
#######################################################################
#
# If this CIF has been generated from an entry in the Cambridge 
# Structural Database, then it will include bibliographic, chemical, 
# crystal, experimental, refinement or atomic coordinate data resulting 
# from the CCDC's data processing and validation procedures.
#
#######################################################################

data_RIRCAX
_symmetry_cell_setting           monoclinic
_symmetry_space_group_name_H-M   'P 21'
_symmetry_Int_Tables_number      4
_space_group_name_Hall           'P 2yb'
loop_
_symmetry_equiv_pos_site_id
_symmetry_equiv_pos_as_xyz
1 x,y,z
2 -x,1/2+y,-z
_cell_length_a                   15.5780(2)
_cell_length_b                   13.5570(2)
_cell_length_c                   16.7680(3)
_cell_angle_alpha                90
_cell_angle_beta                 112.5781(6)
_cell_angle_gamma                90
_cell_volume                     3269.84
loop_
_atom_site_label
_atom_site_type_symbol
_atom_site_fract_x
_atom_site_fract_y
_atom_site_fract_z
Fe1 Fe 0.74905(12) 0.26392(15) 1.50114(13)
Ag1 Ag 0.45854(8) 0.05141(10) 1.46879(9)
Ag2 Ag 0.97893(9) 0.00533(11) 1.46667(10)
I1 I 0.87457(11) -0.03091(14) 1.79013(12)
I2 I 0.62523(12) 0.56610(17) 1.22083(13)
I3 I 0.10930(10) 0.23806(13) 1.52487(12)
N2 N 0.8074(6) 0.2302(6) 1.6300(4)
C6 C 0.8376(8) 0.3086(5) 1.6875(6)
C7 C 0.8767(9) 0.2909(7) 1.7759(6)
C8 C 0.8858(9) 0.1947(9) 1.8068(4)
C9 C 0.8556(9) 0.1163(6) 1.7493(6)
C10 C 0.8165(7) 0.1340(6) 1.6609(6)
N3 N 0.6888(7) 0.3004(7) 1.3715(5)
C11 C 0.6623(9) 0.2246(6) 1.3110(7)
C12 C 0.6264(11) 0.2466(9) 1.2233(6)
C13 C 0.6170(11) 0.3443(10) 1.1961(5)
C14 C 0.6435(9) 0.4200(7) 1.2566(7)
C15 C 0.6794(8) 0.3981(6) 1.3443(6)
N4 N 0.3733(7) 0.1968(8) 1.4995(8)
C16 C 0.4045(7) 0.2920(10) 1.4953(9)
C17 C 0.3509(10) 0.3726(7) 1.4988(11)
C18 C 0.2661(9) 0.3580(8) 1.5066(10)
C19 C 0.2349(7) 0.2629(9) 1.5108(8)
C20 C 0.2885(8) 0.1823(7) 1.5073(9)
N6 N 0.6421(9) 0.1690(10) 1.4844(8)
N7 N 0.8239(8) 0.1572(10) 1.4755(8)
N8 N 0.6775(9) 0.3748(11) 1.5262(9)
N9 N 0.8504(8) 0.3569(9) 1.5137(8)
C26 C 0.5787(10) 0.1297(11) 1.4763(10)
C27 C 0.8768(10) 0.1016(12) 1.4703(10)
C28 C 0.6322(12) 0.4370(13) 1.5369(11)
C29 C 0.9153(12) 0.4208(14) 1.5209(12)
Ag1A Ag 0.54146(8) 0.55141(10) 1.53121(9)
Ag2A Ag 1.02107(9) 0.50533(11) 1.53333(10)
C28A C 0.3678(12) -0.0630(13) 1.4631(11)
C29A C 1.0847(12) -0.0792(14) 1.4791(12)
Fe2 Fe 0.74819(12) 0.26534(15) 0.99883(13)
Ag3 Ag 0.52341(9) 0.55728(10) 0.98152(9)
Ag4 Ag 1.00110(9) 0.00095(10) 1.03063(10)
I4 I 0.91098(12) 0.55536(17) 1.28539(14)
I5 I 0.58906(12) -0.02436(17) 0.71050(14)
I6 I 0.89493(9) 0.74218(12) 0.97338(11)
N1 N 0.8152(7) 0.2955(7) 1.1291(5)
C1 C 0.8322(10) 0.2172(6) 1.1866(8)
C2 C 0.8717(13) 0.2345(9) 1.2750(7)
C3 C 0.8943(11) 0.3301(11) 1.3059(5)
C4 C 0.8772(9) 0.4084(8) 1.2484(7)
C5 C 0.8377(8) 0.3911(6) 1.1600(7)
N5 N 0.6299(8) 0.7001(9) 0.9945(9)
C21 C 0.5943(8) 0.7946(10) 0.9916(10)
C22 C 0.6453(11) 0.8760(8) 0.9847(12)
C23 C 0.7320(10) 0.8628(8) 0.9806(11)
C24 C 0.7677(7) 0.7683(10) 0.9835(9)
C25 C 0.7167(8) 0.6870(8) 0.9904(10)
N10 N 0.6613(9) 0.3794(10) 0.9872(9)
N11 N 0.8356(10) 0.1513(11) 1.0141(10)
N12 N 0.8373(8) 0.3580(9) 0.9768(8)
N13 N 0.6555(9) 0.1744(11) 1.0251(9)
C30 C 0.6153(11) 0.4397(12) 0.9838(11)
C31 C 0.8951(11) 0.0914(13) 1.0202(11)
C32 C 0.8915(11) 0.4121(13) 0.9707(11)
C33 C 0.5971(9) 0.1327(11) 1.0255(9)
N16 N 0.6851(6) 0.2335(7) 0.8689(5)
C44 C 0.6611(8) 0.3123(6) 0.8114(7)
C45 C 0.6172(10) 0.2951(8) 0.7232(6)
C46 C 0.5972(10) 0.1991(10) 0.6925(5)
C47 C 0.6212(10) 0.1203(7) 0.7500(7)
C48 C 0.6651(8) 0.1376(6) 0.8382(6)
Ag3A Ag 0.47659(9) 0.05728(10) 1.01848(9)
Ag4A Ag 0.99890(9) 0.50095(10) 0.96937(10)
C32A C 1.1085(11) -0.0879(13) 1.0293(11)
C33A C 0.4029(9) 0.6327(11) 0.9745(9)
N14 N 0.1358(11) 0.2021(12) 0.2929(18)
C34 C 0.0874(6) 0.1136(12) 0.2709(9)
C35 C 0.1256(9) 0.0341(11) 0.2437(15)
C36 C 0.2121(9) 0.0431(9) 0.2384(14)
C37 C 0.2605(5) 0.1317(8) 0.2604(6)
C38 C 0.2223(10) 0.2112(10) 0.2876(17)
I7 I 0.3883(2) 0.1455(3) 0.2532(2)
N15 N 0.8344(18) 0.0639(10) 1.262(4)
C39 C 0.9020(11) 0.0032(8) 1.253(2)
C40 C 0.8848(4) -0.0970(6) 1.2370(5)
C41 C 0.8001(6) -0.1366(6) 1.2306(10)
C42 C 0.7325(5) -0.0759(8) 1.2397(10)
C43 C 0.7496(14) 0.0243(10) 1.255(3)
I8 I 0.6044(2) -0.1266(4) 1.2311(3)
loop_
_geom_bond_atom_site_label_1
_geom_bond_atom_site_label_2
_geom_bond_site_symmetry_1
_geom_bond_site_symmetry_2
Fe1 N2 1_555 1_555
Fe2 N1 1_555 1_555
Ag1 N4 1_555 1_555
Ag2 C27 1_555 1_555
Ag3 N5 1_555 1_555
Ag4 C31 1_555 1_555
I1 C9 1_555 1_555
I2 C14 1_555 1_555
I3 C19 1_555 1_555
I4 C4 1_555 1_555
I5 C47 1_555 1_555
I6 C24 1_555 1_555
N1 C1 1_555 1_555
C1 C2 1_555 1_555
C2 C3 1_555 1_555
C3 C4 1_555 1_555
C4 C5 1_555 1_555
C5 N1 1_555 1_555
N2 C6 1_555 1_555
C6 C7 1_555 1_555
C7 C8 1_555 1_555
C8 C9 1_555 1_555
C9 C10 1_555 1_555
C10 N2 1_555 1_555
N3 Fe1 1_555 1_555
C11 N3 1_555 1_555
C12 C11 1_555 1_555
C13 C12 1_555 1_555
C14 C13 1_555 1_555
C15 N3 1_555 1_555
N4 C16 1_555 1_555
C16 C17 1_555 1_555
C17 C18 1_555 1_555
C18 C19 1_555 1_555
C19 C20 1_555 1_555
C20 N4 1_555 1_555
N5 C21 1_555 1_555
C21 C22 1_555 1_555
C22 C23 1_555 1_555
C23 C24 1_555 1_555
C24 C25 1_555 1_555
C25 N5 1_555 1_555
N6 Fe1 1_555 1_555
N7 Fe1 1_555 1_555
N8 Fe1 1_555 1_555
N9 Fe1 1_555 1_555
N10 Fe2 1_555 1_555
N11 Fe2 1_555 1_555
N12 Fe2 1_555 1_555
N13 Fe2 1_555 1_555
C26 Ag1 1_555 1_555
C27 N7 1_555 1_555
C28 N8 1_555 1_555
C29 N9 1_555 1_555
C30 Ag3 1_555 1_555
C31 N11 1_555 1_555
C32 N12 1_555 1_555
C33 N13 1_555 1_555
N14 C34 1_555 1_555
C34 C35 1_555 1_555
C35 C36 1_555 1_555
C36 C37 1_555 1_555
C37 C38 1_555 1_555
C38 N14 1_555 1_555
I7 C37 1_555 1_555
N15 C39 1_555 1_555
C39 C40 1_555 1_555
C40 C41 1_555 1_555
C41 C42 1_555 1_555
C42 C43 1_555 1_555
C43 N15 1_555 1_555
I8 C42 1_555 1_555
N16 Fe2 1_555 1_555
C44 N16 1_555 1_555
C45 C44 1_555 1_555
C46 C45 1_555 1_555
C47 C46 1_555 1_555
C48 N16 1_555 1_555
Ag1A C28 1_555 1_555
Ag2A C29 1_555 1_555
Ag3A C33 1_555 1_555
Ag4A C32 1_555 1_555
C28A Ag1 1_555 1_555
C29A Ag2 1_555 1_555
C32A Ag4 1_555 1_555
C33A Ag3 1_555 1_555
C14 C15 1_555 1_555
N6 C26 1_555 1_555
N10 C30 1_555 1_555
C47 C48 1_555 1_555

#END
