
#######################################################################
#
#                 Cambridge Crystallographic Data Centre
#                                CCDC 
#
#######################################################################
#
# If this CIF has been generated from an entry in the Cambridge 
# Structural Database, then it will include bibliographic, chemical, 
# crystal, experimental, refinement or atomic coordinate data resulting 
# from the CCDC's data processing and validation procedures.
#
#######################################################################

data_RIRJEJ
_symmetry_cell_setting           triclinic
_symmetry_space_group_name_H-M   'P -1'
_symmetry_Int_Tables_number      2
_space_group_name_Hall           '-P 1'
loop_
_symmetry_equiv_pos_site_id
_symmetry_equiv_pos_as_xyz
1 x,y,z
2 -x,-y,-z
_cell_length_a                   7.94040(10)
_cell_length_b                   19.2434(2)
_cell_length_c                   19.4392(2)
_cell_angle_alpha                111.1960(10)
_cell_angle_beta                 101.5680(10)
_cell_angle_gamma                92.2640(10)
_cell_volume                     2692.64
loop_
_atom_site_label
_atom_site_type_symbol
_atom_site_fract_x
_atom_site_fract_y
_atom_site_fract_z
C1 C 1.1087(6) -0.3723(2) -0.6878(2)
H1 H 1.1309 -0.3957 -0.6520
C2 C 1.1566(6) -0.4040(2) -0.7565(2)
H2 H 1.2123 -0.4483 -0.7672
C3 C 1.1222(6) -0.3707(2) -0.8088(2)
H3 H 1.1534 -0.3918 -0.8561
C4 C 1.0415(5) -0.3058(2) -0.7917(2)
H4 H 1.0159 -0.2823 -0.8273
C5 C 0.9990(5) -0.2761(2) -0.7220(2)
C6 C 0.9230(5) -0.2051(2) -0.6944(2)
C7 C 0.8805(5) -0.1570(2) -0.7325(2)
H5 H 0.8931 -0.1698 -0.7831
C8 C 0.8198(5) -0.0906(2) -0.6957(2)
H6 H 0.7897 -0.0574 -0.7212
C9 C 0.8025(5) -0.0718(2) -0.6214(2)
H7 H 0.7623 -0.0260 -0.5952
C10 C 0.8459(5) -0.1225(2) -0.5873(2)
C11 C 0.8384(5) -0.1137(2) -0.5088(2)
C12 C 0.9240(5) -0.2042(2) -0.3865(2)
H8 H 0.9581 -0.2493 -0.4179
C13 C 0.9302(5) -0.1936(2) -0.3087(2)
C14 C 0.9880(5) -0.2533(2) -0.2874(2)
H9 H 1.0180 -0.2962 -0.3241
C15 C 1.0015(5) -0.2505(2) -0.2149(2)
H10 H 1.0411 -0.2907 -0.2013
C16 C 0.9563(6) -0.1876(2) -0.1616(2)
H11 H 0.9630 -0.1858 -0.1116
C17 C 0.9020(5) -0.1278(2) -0.1800(2)
H12 H 0.8728 -0.0855 -0.1425
C18 C 0.8897(5) -0.1290(2) -0.2531(2)
C19 C 0.4631(6) 0.3391(3) 0.1202(2)
H13 H 0.4561 0.3674 0.0888
C20 C 0.4135(7) 0.3689(3) 0.1886(3)
H14 H 0.3730 0.4167 0.2035
C21 C 0.4239(6) 0.3283(3) 0.2344(3)
H15 H 0.3903 0.3476 0.2813
C22 C 0.4840(6) 0.2589(3) 0.2111(2)
H16 H 0.4928 0.2300 0.2420
C23 C 0.5314(5) 0.2320(2) 0.1419(2)
C24 C 0.5945(5) 0.1582(2) 0.1108(2)
C25 C 0.6227(6) 0.1065(2) 0.1450(2)
H17 H 0.5992 0.1162 0.1934
C26 C 0.6856(6) 0.0406(2) 0.1076(2)
H18 H 0.7065 0.0049 0.1306
C27 C 0.7182(6) 0.0267(2) 0.0364(2)
H19 H 0.7622 -0.0180 0.0101
C28 C 0.6844(5) 0.0802(2) 0.0053(2)
C29 C 0.6995(5) 0.0733(2) -0.0720(2)
C30 C 0.6225(5) 0.1664(2) -0.1929(2)
H20 H 0.5839 0.2106 -0.1621
C31 C 0.6239(5) 0.1575(2) -0.2699(2)
C32 C 0.5591(5) 0.2149(2) -0.2924(2)
H21 H 0.5194 0.2556 -0.2570
C33 C 0.5515(5) 0.2140(2) -0.3641(2)
H22 H 0.5073 0.2532 -0.3782
C34 C 0.6099(5) 0.1542(2) -0.4154(2)
H23 H 0.6055 0.1527 -0.4651
C35 C 0.6741(5) 0.0969(2) -0.3953(2)
H24 H 0.7126 0.0566 -0.4317
C36 C 0.6840(5) 0.0968(2) -0.3225(2)
N1 N 1.0320(4) -0.30942(18) -0.67085(18)
N2 N 0.9030(4) -0.18709(17) -0.62365(17)
N3 N 0.8823(4) -0.17133(18) -0.49084(17)
N4 N 0.8754(4) -0.15646(17) -0.41581(16)
N5 N 0.5202(5) 0.2721(2) 0.09712(19)
N6 N 0.6275(4) 0.14442(18) 0.04265(18)
N7 N 0.6621(4) 0.13277(18) -0.08857(18)
N8 N 0.6700(4) 0.11842(18) -0.16371(17)
O1 O 0.7960(4) -0.05364(15) -0.46470(14)
O2 O 0.8402(3) -0.06891(14) -0.26921(14)
O3 O 0.7394(4) 0.01290(15) -0.11656(15)
O4 O 0.7512(3) 0.04031(14) -0.30431(14)
Cu1 Cu 0.96554(6) -0.25424(3) -0.57133(2)
Cu2 Cu 0.80299(6) -0.05933(2) -0.36635(2)
Cu3 Cu 0.75205(6) 0.02330(2) -0.21145(2)
Cu4 Cu 0.59755(7) 0.21954(3) -0.00185(3)
O5 O 0.5100(4) -0.1140(2) -0.39311(18)
O6 O 0.4466(4) -0.03819(16) -0.27709(17)
O7 O 0.2272(4) -0.09252(19) -0.3885(2)
O8 O 0.3602(6) -0.16868(17) -0.33015(18)
Cl1 Cl 0.38618(12) -0.10314(5) -0.34704(5)
O9 O 0.3071(5) 0.1667(4) -0.0808(3)
O10 O 0.0562(4) 0.0868(2) -0.14166(18)
O11 O 0.1307(8) 0.1403(3) -0.0085(2)
O12 O 0.0455(6) 0.2143(2) -0.0761(2)
Cl2 Cl 0.13549(14) 0.15167(7) -0.07543(6)
C37 C 0.7487(6) -0.4052(2) -0.5847(2)
C38 C 0.6652(7) -0.4799(2) -0.5982(3)
H25 H 0.6617 -0.4836 -0.5496
H26 H 0.7312 -0.5184 -0.6253
H27 H 0.5469 -0.4874 -0.6288
N9 N 0.8112(5) -0.3467(2) -0.5742(2)
C39 C 1.3025(6) -0.2927(2) -0.4806(2)
C40 C 1.4603(8) -0.3158(3) -0.4447(4)
H28 H 1.5544 -0.2743 -0.4250
H29 H 1.4936 -0.3594 -0.4823
H30 H 1.4379 -0.3290 -0.4029
N10 N 1.1806(4) -0.27501(19) -0.50848(18)
O13 O 0.8689(4) 0.27925(18) 0.04404(19)
H31 H 0.900(6) 0.3196(16) 0.0815(18)
H32 H 0.945(5) 0.273(3) 0.019(2)
O14 O 0.5436(6) 0.2940(2) -0.0477(2)
H33 H 0.628(4) 0.327(2) -0.033(4)
H34 H 0.455(4) 0.315(2) -0.044(3)
Cu3_2 Cu -0.24795(6) 0.02330(2) -0.21145(2)
O10_2 O 1.0562(4) 0.0868(2) -0.14166(18)
O15 O 0.7928(7) 0.5369(2) 0.6871(2)
O16 O 0.7972(7) 0.46321(19) 0.5617(2)
O17 O 1.0066(6) 0.5632(3) 0.6348(4)
O18 O 0.7267(5) 0.58644(19) 0.59393(19)
Cl3 Cl 0.82842(15) 0.53694(6) 0.61820(6)
O19 O 0.3512(10) 0.4667(5) 0.7580(3)
O20 O 0.5669(5) 0.4808(2) 0.8640(2)
O21 O 0.3847(6) 0.3708(3) 0.8024(4)
O22 O 0.2781(6) 0.4747(3) 0.8666(3)
Cl4 Cl 0.39767(17) 0.44642(8) 0.82118(7)
O23 O 0.0448(5) 0.58288(19) 0.83300(19)
H35 H 0.000(6) 0.574(3) 0.7872(10)
H36 H 0.120(5) 0.554(2) 0.834(2)
C41 C 0.8654(12) 0.4301(18) 1.0046(13)
C42 C 1.0600(8) 0.4430(4) 1.0392(4)
H37 H 1.0946 0.4962 1.0714
H38 H 1.1229 0.4287 0.9986
H39 H 1.0873 0.4124 1.0699
N11 N 0.7101(7) 0.4283(3) 0.9858(3)
O24 O 1.2679(9) 0.3706(3) 0.9526(3)
H40 H 1.309(10) 0.376(3) 0.917(4)
H41 H 1.290(10) 0.328(2) 0.951(4)
loop_
_geom_bond_atom_site_label_1
_geom_bond_atom_site_label_2
_geom_bond_site_symmetry_1
_geom_bond_site_symmetry_2
C1 H1 1_555 1_555
C2 C1 1_555 1_555
H2 C2 1_555 1_555
C3 C2 1_555 1_555
H3 C3 1_555 1_555
C4 C3 1_555 1_555
H4 C4 1_555 1_555
C5 C4 1_555 1_555
C6 C5 1_555 1_555
C7 C6 1_555 1_555
H5 C7 1_555 1_555
C8 C7 1_555 1_555
H6 C8 1_555 1_555
C9 C8 1_555 1_555
H7 C9 1_555 1_555
C10 C9 1_555 1_555
C11 C10 1_555 1_555
C12 H8 1_555 1_555
C13 C12 1_555 1_555
C14 C13 1_555 1_555
H9 C14 1_555 1_555
C15 C14 1_555 1_555
H10 C15 1_555 1_555
C16 C15 1_555 1_555
H11 C16 1_555 1_555
C17 C16 1_555 1_555
H12 C17 1_555 1_555
C18 C13 1_555 1_555
C19 H13 1_555 1_555
C20 C19 1_555 1_555
H14 C20 1_555 1_555
C21 C20 1_555 1_555
H15 C21 1_555 1_555
C22 C21 1_555 1_555
H16 C22 1_555 1_555
C23 C22 1_555 1_555
C24 C23 1_555 1_555
C25 C24 1_555 1_555
H17 C25 1_555 1_555
C26 C25 1_555 1_555
H18 C26 1_555 1_555
C27 C26 1_555 1_555
H19 C27 1_555 1_555
C28 C27 1_555 1_555
C29 C28 1_555 1_555
C30 H20 1_555 1_555
C31 C30 1_555 1_555
C32 C31 1_555 1_555
H21 C32 1_555 1_555
C33 C32 1_555 1_555
H22 C33 1_555 1_555
C34 C33 1_555 1_555
H23 C34 1_555 1_555
C35 C34 1_555 1_555
H24 C35 1_555 1_555
C36 C31 1_555 1_555
N1 C1 1_555 1_555
N2 C6 1_555 1_555
N3 C11 1_555 1_555
N4 C12 1_555 1_555
N5 C19 1_555 1_555
N6 C24 1_555 1_555
N7 C29 1_555 1_555
N8 C30 1_555 1_555
O1 C11 1_555 1_555
O2 C18 1_555 1_555
O3 C29 1_555 1_555
O4 C36 1_555 1_555
Cu1 N1 1_555 1_555
Cu2 N4 1_555 1_555
Cu3 N8 1_555 1_555
Cu4 N5 1_555 1_555
O5 Cu2 1_555 1_555
O6 Cu3 1_555 1_555
O7 Cl1 1_555 1_555
O8 Cl1 1_555 1_555
Cl1 O5 1_555 1_555
O9 Cu4 1_555 1_555
O10 Cl2 1_555 1_555
O11 Cl2 1_555 1_555
O12 Cl2 1_555 1_555
Cl2 O9 1_555 1_555
C37 C38 1_555 1_555
C38 H25 1_555 1_555
H26 C38 1_555 1_555
H27 C38 1_555 1_555
N9 Cu1 1_555 1_555
C39 C40 1_555 1_555
C40 H28 1_555 1_555
H29 C40 1_555 1_555
H30 C40 1_555 1_555
N10 Cu1 1_555 1_555
O13 Cu4 1_555 1_555
H31 O13 1_555 1_555
H32 O13 1_555 1_555
O14 Cu4 1_555 1_555
H33 O14 1_555 1_555
H34 O14 1_555 1_555
O15 Cl3 1_555 1_555
O16 Cl3 1_555 1_555
O17 Cl3 1_555 1_555
O18 Cl3 1_555 1_555
O19 Cl4 1_555 1_555
O20 Cl4 1_555 1_555
O21 Cl4 1_555 1_555
O22 Cl4 1_555 1_555
O23 H35 1_555 1_555
H36 O23 1_555 1_555
C41 C42 1_555 1_555
C42 H37 1_555 1_555
H38 C42 1_555 1_555
H39 C42 1_555 1_555
N11 C41 1_555 1_555
O24 H40 1_555 1_555
H41 O24 1_555 1_555
Cu3_2 O10 1_555 1_555
O10_2 Cu3 1_555 1_555
C5 N1 1_555 1_555
C10 N2 1_555 1_555
C17 C18 1_555 1_555
C23 N5 1_555 1_555
C28 N6 1_555 1_555
C35 C36 1_555 1_555
N2 Cu1 1_555 1_555
N3 N4 1_555 1_555
N3 Cu1 1_555 1_555
N6 Cu4 1_555 1_555
N7 N8 1_555 1_555
N7 Cu4 1_555 1_555
O1 Cu2 1_555 1_555
O2 Cu2 1_555 1_555
O2 Cu3 1_555 1_555
O3 Cu3 1_555 1_555
O4 Cu2 1_555 1_555
O4 Cu3 1_555 1_555
O6 Cl1 1_555 1_555
C37 N9 1_555 1_555
C39 N10 1_555 1_555

#END
