
#######################################################################
#
#                 Cambridge Crystallographic Data Centre
#                                CCDC 
#
#######################################################################
#
# If this CIF has been generated from an entry in the Cambridge 
# Structural Database, then it will include bibliographic, chemical, 
# crystal, experimental, refinement or atomic coordinate data resulting 
# from the CCDC's data processing and validation procedures.
#
#######################################################################

data_RIRMAG
_symmetry_cell_setting           monoclinic
_symmetry_space_group_name_H-M   'P 21/n'
_symmetry_Int_Tables_number      14
_space_group_name_Hall           '-P 2yn'
loop_
_symmetry_equiv_pos_site_id
_symmetry_equiv_pos_as_xyz
1 x,y,z
2 1/2-x,1/2+y,1/2-z
3 -x,-y,-z
4 1/2+x,1/2-y,1/2+z
_cell_length_a                   11.531(2)
_cell_length_b                   7.220(4)
_cell_length_c                   29.639(5)
_cell_angle_alpha                90
_cell_angle_beta                 90.85(1)
_cell_angle_gamma                90
_cell_volume                     2467.29
loop_
_atom_site_label
_atom_site_type_symbol
_atom_site_fract_x
_atom_site_fract_y
_atom_site_fract_z
Hg1 Hg 0.33143(5) -0.32259(9) 0.31910(2)
Mn1 Mn 0.5053(2) -0.5804(3) 0.08158(6)
O1 O 0.5477(7) -0.750(1) 0.0374(3)
O2 O 0.3701(7) -0.512(1) 0.0500(3)
O3 O 0.5986(8) -0.376(1) 0.0372(3)
N1 N 0.6456(9) -0.621(2) 0.1193(3)
N2 N 0.4744(8) -0.409(2) 0.1314(3)
N3 N 0.401(1) -0.812(2) 0.1149(4)
N4 N -0.103(1) -0.977(3) 0.1787(6)
N5 N 0.246(1) -0.556(2) 0.2656(5)
C1 C 0.647(1) -0.833(2) 0.0318(4)
C2 C 0.661(1) -0.938(2) -0.0069(5)
C3 C 0.756(2) -1.030(2) -0.0128(5)
C4 C 0.846(1) -1.029(2) 0.0190(6)
C5 C 0.833(1) -0.930(2) 0.0586(5)
C6 C 0.735(1) -0.826(2) 0.0656(5)
C7 C 0.726(1) -0.727(2) 0.1073(5)
C8 C 0.649(1) -0.535(2) 0.1648(4)
C9 C 0.767(1) -0.492(3) 0.1831(5)
C10 C 0.596(1) -0.673(2) 0.1964(5)
C11 C 0.577(1) -0.354(2) 0.1603(4)
C12 C 0.639(1) -0.204(2) 0.1350(5)
C13 C 0.544(1) -0.278(2) 0.2053(5)
C14 C 0.375(1) -0.348(2) 0.1393(4)
C15 C 0.270(1) -0.382(2) 0.1126(5)
C16 C 0.161(1) -0.324(2) 0.1300(5)
C17 C 0.056(1) -0.350(3) 0.1067(7)
C18 C 0.063(1) -0.428(3) 0.0639(6)
C19 C 0.169(1) -0.479(2) 0.0447(5)
C20 C 0.276(1) -0.460(2) 0.0684(5)
C21 C 0.325(2) -0.832(2) 0.1335(5)
C22 C -0.014(2) -0.928(2) 0.1776(5)
C23 C 0.214(1) -0.628(2) 0.2342(5)
Hg1A Hg 0.16857(5) -0.82259(9) 0.18090(2)
N5A N 0.254(1) -1.056(2) 0.2344(5)
loop_
_geom_bond_atom_site_label_1
_geom_bond_atom_site_label_2
_geom_bond_site_symmetry_1
_geom_bond_site_symmetry_2
Hg1 N5 1_555 1_555
Mn1 O1 1_555 1_555
O1 C1 1_555 1_555
O2 Mn1 1_555 1_555
O3 Mn1 1_555 1_555
N1 Mn1 1_555 1_555
N2 Mn1 1_555 1_555
N3 Mn1 1_555 1_555
N4 C22 1_555 1_555
N5 C23 1_555 1_555
C1 C2 1_555 1_555
C2 C3 1_555 1_555
C3 C4 1_555 1_555
C4 C5 1_555 1_555
C5 C6 1_555 1_555
C6 C1 1_555 1_555
C7 N1 1_555 1_555
C8 N1 1_555 1_555
C9 C8 1_555 1_555
C10 C8 1_555 1_555
C11 N2 1_555 1_555
C12 C11 1_555 1_555
C13 C11 1_555 1_555
C14 N2 1_555 1_555
C15 C14 1_555 1_555
C16 C15 1_555 1_555
C17 C16 1_555 1_555
C18 C17 1_555 1_555
C19 C18 1_555 1_555
C20 O2 1_555 1_555
C21 N3 1_555 1_555
C22 Hg1A 1_555 1_555
C23 Hg1A 1_555 1_555
Hg1A C21 1_555 1_555
N5A Hg1A 1_555 1_555
C6 C7 1_555 1_555
C8 C11 1_555 1_555
C15 C20 1_555 1_555
C19 C20 1_555 1_555

#END
