
#######################################################################
#
#                 Cambridge Crystallographic Data Centre
#                                CCDC 
#
#######################################################################
#
# If this CIF has been generated from an entry in the Cambridge 
# Structural Database, then it will include bibliographic, chemical, 
# crystal, experimental, refinement or atomic coordinate data resulting 
# from the CCDC's data processing and validation procedures.
#
#######################################################################

data_RIRRAM
_symmetry_cell_setting           triclinic
_symmetry_space_group_name_H-M   'P -1'
_symmetry_Int_Tables_number      2
_space_group_name_Hall           '-P 1'
loop_
_symmetry_equiv_pos_site_id
_symmetry_equiv_pos_as_xyz
1 x,y,z
2 -x,-y,-z
_cell_length_a                   9.1930(14)
_cell_length_b                   13.1472(16)
_cell_length_c                   13.9623(17)
_cell_angle_alpha                108.557(8)
_cell_angle_beta                 98.624(9)
_cell_angle_gamma                103.288(10)
_cell_volume                     1510.74
loop_
_atom_site_label
_atom_site_type_symbol
_atom_site_fract_x
_atom_site_fract_y
_atom_site_fract_z
Tb1 Tb 1.218053(18) 0.485208(14) 0.982123(13)
O1 O 1.1605(3) 0.4639(2) 1.1388(2)
O2 O 1.4031(3) 0.4030(2) 1.0218(2)
O3 O 1.0683(3) 0.2886(2) 0.9186(2)
O4 O 0.9487(3) 0.5154(2) 1.1666(2)
O5 O 1.6299(3) 0.3870(2) 1.0821(2)
O6 O 0.8984(3) 0.3774(2) 0.9575(2)
O7 O 1.4115(4) 0.6320(3) 1.1319(3)
O8 O 1.2780(4) 0.3739(3) 0.8180(2)
O9 O 0.8640(5) 0.2105(3) 1.0587(3)
O10 O 0.6359(6) 0.1115(5) 1.0428(4)
O11 O 0.3659(7) -0.1576(5) 0.6984(6)
O12 O 0.4185(7) -0.1286(6) 0.5649(6)
O13 O 1.3066(4) 0.6582(3) 1.3269(3)
O14 O 1.4624(4) 0.6037(4) 1.4175(3)
O15 O 1.2205(4) 0.4193(3) 1.6271(3)
O16 O 0.9934(5) 0.3010(3) 1.5608(3)
O17 O 1.3407(5) 0.1642(3) 0.9248(3)
O18 O 1.1225(6) 0.0719(4) 0.9353(3)
O19 O 1.0620(7) 0.0822(5) 1.2746(4)
O20 O 1.2250(6) 0.1987(4) 1.4100(4)
N1 N 0.7385(5) 0.1500(4) 1.0070(4)
N2 N 0.4407(7) -0.1038(5) 0.6581(7)
N3 N 1.3342(4) 0.5967(3) 1.3722(3)
N4 N 1.1030(5) 0.3705(3) 1.5571(3)
N5 N 1.2484(5) 0.1413(3) 0.9735(3)
N6 N 1.1742(6) 0.1582(4) 1.3163(4)
C1 C 0.8050(4) 0.1842(3) 0.8537(3)
C2 C 0.7089(5) 0.1207(3) 0.8943(4)
C3 C 0.5873(5) 0.0275(4) 0.8316(5)
H2 H 0.5231 -0.0139 0.8602
C4 C 0.5647(6) -0.0018(4) 0.7264(5)
C5 C 0.6579(7) 0.0574(5) 0.6819(4)
H3 H 0.6406 0.0348 0.6098
C6 C 0.7778(5) 0.1509(4) 0.7458(4)
H4 H 0.8410 0.1920 0.7166
C7 C 1.0753(4) 0.4585(3) 1.2889(3)
C8 C 1.2035(4) 0.5082(3) 1.3725(3)
C9 C 1.2154(4) 0.4806(3) 1.4607(3)
H5 H 1.3022 0.5159 1.5159
C10 C 1.0940(5) 0.3995(4) 1.4630(3)
C11 C 0.9627(5) 0.3472(4) 1.3831(3)
H6 H 0.8817 0.2927 1.3872
C12 C 0.9540(5) 0.3776(4) 1.2964(3)
H7 H 0.8656 0.3434 1.2423
C13 C 1.4127(4) 0.3015(3) 1.1314(3)
C14 C 1.2896(5) 0.2027(3) 1.0870(3)
C15 C 1.2085(5) 0.1558(3) 1.1457(4)
H8 H 1.1239 0.0919 1.1147
C16 C 1.2588(5) 0.2081(4) 1.2526(4)
C17 C 1.3819(6) 0.3017(4) 1.3002(3)
H9 H 1.4142 0.3336 1.3724
C18 C 1.4583(5) 0.3487(4) 1.2393(3)
H10 H 1.5417 0.4133 1.2712
C19 C 0.9338(4) 0.2899(3) 0.9168(3)
C20 C 1.0621(4) 0.4832(3) 1.1893(3)
C21 C 1.4878(4) 0.3665(3) 1.0711(3)
H16 H 1.230(7) 0.315(5) 0.794(4)
H17 H 1.251(7) 0.394(5) 0.780(5)
H18 H 1.390(8) 0.650(6) 1.179(5)
H19 H 1.495(9) 0.631(6) 1.142(6)
Tb1A Tb 0.781947(18) 0.514792(14) 1.017877(13)
Tb1A_2 Tb 1.781947(18) 0.514792(14) 1.017877(13)
O4A O 1.0513(3) 0.4846(2) 0.8334(2)
O5A O 1.3701(3) 0.6130(2) 0.9179(2)
O6A O 1.1016(3) 0.6226(2) 1.0425(2)
O21 O 0.264(3) 0.102(3) 0.6017(16)
H1 H 0.2135 0.1137 0.5549
C22 C 0.1353(6) 0.1496(4) 0.7206(3)
H11 H 0.2164 0.2061 0.7767
H12 H 0.0688 0.1041 0.7478
H13 H 0.0771 0.1850 0.6857
C23 C 0.193(2) 0.0881(11) 0.6565(14)
H14 H 0.2528 0.0589 0.6989
H15 H 0.1053 0.0247 0.6125
loop_
_geom_bond_atom_site_label_1
_geom_bond_atom_site_label_2
_geom_bond_site_symmetry_1
_geom_bond_site_symmetry_2
Tb1 O1 1_555 1_555
O1 C20 1_555 1_555
O2 Tb1 1_555 1_555
O3 Tb1 1_555 1_555
O4 C20 1_555 1_555
O5 C21 1_555 1_555
O6 C19 1_555 1_555
O7 Tb1 1_555 1_555
O8 Tb1 1_555 1_555
O9 N1 1_555 1_555
O10 N1 1_555 1_555
O11 N2 1_555 1_555
O12 N2 1_555 1_555
O13 N3 1_555 1_555
O14 N3 1_555 1_555
O15 N4 1_555 1_555
O16 N4 1_555 1_555
O17 N5 1_555 1_555
O18 N5 1_555 1_555
O19 N6 1_555 1_555
O20 N6 1_555 1_555
O21 H1 1_555 1_555
N1 C2 1_555 1_555
N2 C4 1_555 1_555
N3 C8 1_555 1_555
N4 C10 1_555 1_555
N5 C14 1_555 1_555
N6 C16 1_555 1_555
C1 C2 1_555 1_555
C2 C3 1_555 1_555
C3 H2 1_555 1_555
C4 C3 1_555 1_555
C5 C4 1_555 1_555
H3 C5 1_555 1_555
C6 C1 1_555 1_555
H4 C6 1_555 1_555
C7 C8 1_555 1_555
C8 C9 1_555 1_555
C9 H5 1_555 1_555
C10 C9 1_555 1_555
C11 C10 1_555 1_555
H6 C11 1_555 1_555
C12 C7 1_555 1_555
H7 C12 1_555 1_555
C13 C14 1_555 1_555
C14 C15 1_555 1_555
C15 H8 1_555 1_555
C16 C15 1_555 1_555
C17 C16 1_555 1_555
H9 C17 1_555 1_555
C18 C13 1_555 1_555
H10 C18 1_555 1_555
C19 O3 1_555 1_555
C20 C7 1_555 1_555
C21 O2 1_555 1_555
C22 H11 1_555 1_555
H12 C22 1_555 1_555
H13 C22 1_555 1_555
C23 O21 1_555 1_555
H14 C23 1_555 1_555
H15 C23 1_555 1_555
H16 O8 1_555 1_555
H17 O8 1_555 1_555
H18 O7 1_555 1_555
H19 O7 1_555 1_555
Tb1A O4 1_555 1_555
Tb1A_2 O5 1_555 1_555
O4A Tb1 1_555 1_555
O5A Tb1 1_555 1_555
O6A Tb1 1_555 1_555
O6 Tb1A 1_555 1_555
C1 C19 1_555 1_555
C5 C6 1_555 1_555
C11 C12 1_555 1_555
C13 C21 1_555 1_555
C17 C18 1_555 1_555
C22 C23 1_555 1_555

#END
