
#######################################################################
#
#                 Cambridge Crystallographic Data Centre
#                                CCDC 
#
#######################################################################
#
# If this CIF has been generated from an entry in the Cambridge 
# Structural Database, then it will include bibliographic, chemical, 
# crystal, experimental, refinement or atomic coordinate data resulting 
# from the CCDC's data processing and validation procedures.
#
#######################################################################

data_RIRRIU
_symmetry_cell_setting           triclinic
_symmetry_space_group_name_H-M   'P -1'
_symmetry_Int_Tables_number      2
_space_group_name_Hall           '-P 1'
loop_
_symmetry_equiv_pos_site_id
_symmetry_equiv_pos_as_xyz
1 x,y,z
2 -x,-y,-z
_cell_length_a                   7.1951(8)
_cell_length_b                   11.1708(17)
_cell_length_c                   11.4514(11)
_cell_angle_alpha                98.545(7)
_cell_angle_beta                 90.315(2)
_cell_angle_gamma                105.777(5)
_cell_volume                     874.881
loop_
_atom_site_label
_atom_site_type_symbol
_atom_site_fract_x
_atom_site_fract_y
_atom_site_fract_z
Mo1 Mo 0.76342(8) -0.09743(6) 0.22715(5)
Mo2 Mo 0.24768(8) 0.09663(6) 0.27242(5)
Co1 Co 0.5000 0.0000 0.5000
Co2 Co 0.5000 0.0000 0.0000
O1 O 0.6749(8) -0.2589(5) 0.2061(5)
O2 O 0.6478(8) -0.0365(5) 0.3470(5)
O3 O 0.7098(8) -0.0434(6) 0.0998(5)
O4 O 1.0279(7) -0.0548(5) 0.2569(5)
O5 O 0.1160(8) 0.2031(5) 0.2608(5)
O6 O 0.3696(8) 0.0524(5) 0.1496(5)
O7 O 0.3330(7) 0.0913(5) 0.4157(4)
C1 C 0.0890(11) -0.1727(7) 0.4755(7)
H1 H 0.0643 -0.1016 0.5183
C2 C -0.0625(11) -0.2786(7) 0.4449(7)
H2 H -0.1853 -0.2796 0.4703
C3 C -0.0327(11) -0.3847(7) 0.3759(7)
C4 C 0.1545(12) -0.3772(8) 0.3406(8)
H3 H 0.1808 -0.4447 0.2923
C5 C 0.3009(11) -0.2685(7) 0.3781(8)
H4 H 0.4254 -0.2657 0.3547
C6 C -0.1922(11) -0.5022(7) 0.3445(7)
C7 C -0.3837(13) -0.4983(8) 0.3399(11)
H5 H -0.4123 -0.4213 0.3545
C8 C -0.5303(12) -0.6077(8) 0.3138(10)
H6 H -0.6570 -0.6025 0.3095
C9 C -0.3136(11) -0.7262(7) 0.2965(7)
H7 H -0.2882 -0.8042 0.2812
C10 C -0.1592(11) -0.6196(7) 0.3207(7)
H8 H -0.0334 -0.6267 0.3209
C11 C 0.1199(12) -0.2122(8) 0.0021(8)
H9 H 0.0685 -0.1439 0.0058
C12 C -0.0056(12) -0.3302(8) 0.0050(9)
H10 H -0.1373 -0.3393 0.0120
C13 C 0.0657(11) -0.4360(7) -0.0025(7)
C14 C 0.2639(13) -0.4127(8) -0.0125(8)
H11 H 0.3197 -0.4792 -0.0188
C15 C 0.3787(11) -0.2924(8) -0.0132(8)
H12 H 0.5112 -0.2804 -0.0192
N1 N 0.2731(9) -0.1672(6) 0.4461(6)
N2 N -0.4985(9) -0.7225(6) 0.2941(6)
N3 N 0.3102(9) -0.1915(6) -0.0057(6)
Mo1A Mo 0.23658(8) 0.09743(6) 0.77285(5)
Mo1_2 Mo -0.23658(8) -0.09743(6) 0.22715(5)
Mo2A Mo 0.75232(8) -0.09663(6) 0.72758(5)
Mo2_2 Mo 1.24768(8) 0.09663(6) 0.27242(5)
Mo2_3 Mo -0.75232(8) -0.90337(6) 0.27242(5)
Mo2A_2 Mo 1.75232(8) 0.90337(6) 0.72758(5)
Co2_2 Co -0.5000 -1.0000 0.0000
Co2_3 Co 0.5000 0.0000 1.0000
O1A O 0.3251(8) 0.2589(5) 0.7939(5)
O2A O 0.3522(8) 0.0365(5) 0.6530(5)
O3A O 0.2902(8) 0.0434(6) 0.9002(5)
O3A_2 O 0.2902(8) 0.0434(6) -0.0998(5)
O4_2 O 0.0279(7) -0.0548(5) 0.2569(5)
O4A O -0.0279(7) 0.0548(5) 0.7431(5)
O4A_2 O 0.9721(7) 0.0548(5) 0.7431(5)
O5A O 0.8840(8) -0.2031(5) 0.7392(5)
O6A O 0.6304(8) -0.0524(5) 0.8504(5)
O6A_2 O 0.6304(8) -0.0524(5) -0.1496(5)
O7A O 0.6670(7) -0.0913(5) 0.5843(4)
C1A C 0.9110(11) 0.1727(7) 0.5245(7)
H1A H 0.9357 0.1016 0.4817
C2A C 1.0625(11) 0.2786(7) 0.5551(7)
H2A H 1.1853 0.2796 0.5297
C3A C 1.0327(11) 0.3847(7) 0.6241(7)
C4A C 0.8455(12) 0.3772(8) 0.6594(8)
H3A H 0.8192 0.4447 0.7077
C5A C 0.6991(11) 0.2685(7) 0.6219(8)
H4A H 0.5746 0.2657 0.6453
C6A C 1.1922(11) 0.5022(7) 0.6555(7)
C7A C 1.3837(13) 0.4983(8) 0.6601(11)
H5A H 1.4123 0.4213 0.6455
C8A C 1.5303(12) 0.6077(8) 0.6862(10)
H6A H 1.6570 0.6025 0.6905
C9A C 1.3136(11) 0.7262(7) 0.7035(7)
H7A H 1.2882 0.8042 0.7188
C10A C 1.1592(11) 0.6196(7) 0.6793(7)
H8A H 1.0334 0.6267 0.6791
C11A C -0.1199(12) -0.7878(8) -0.0021(8)
H9A H -0.0685 -0.8561 -0.0058
C12A C 0.0056(12) -0.6698(8) -0.0050(9)
H10A H 0.1373 -0.6607 -0.0120
C13A C -0.0657(11) -0.5640(7) 0.0025(7)
C14A C -0.2639(13) -0.5873(8) 0.0125(8)
H11A H -0.3197 -0.5208 0.0188
C15A C -0.3787(11) -0.7076(8) 0.0132(8)
H12A H -0.5112 -0.7196 0.0192
N1A N 0.7269(9) 0.1672(6) 0.5539(6)
N2A N 1.4985(9) 0.7225(6) 0.7059(6)
N2_2 N 0.5015(9) 0.2775(6) 0.2941(6)
N2A_2 N 0.4985(9) -0.2775(6) 0.7059(6)
N3A N -0.3102(9) -0.8085(6) 0.0057(6)
N3A_2 N 0.6898(9) 0.1915(6) 0.0057(6)
loop_
_geom_bond_atom_site_label_1
_geom_bond_atom_site_label_2
_geom_bond_site_symmetry_1
_geom_bond_site_symmetry_2
Mo1 O1 1_555 1_555
Mo2 O5 1_555 1_555
Co1 O2 1_555 1_555
Co2 O3 1_555 1_555
O2 Mo1 1_555 1_555
O3 Mo1 1_555 1_555
O4 Mo1 1_555 1_555
O6 Mo2 1_555 1_555
O7 Mo2 1_555 1_555
C1 H1 1_555 1_555
C2 C1 1_555 1_555
H2 C2 1_555 1_555
C3 C2 1_555 1_555
C4 C3 1_555 1_555
H3 C4 1_555 1_555
C5 C4 1_555 1_555
H4 C5 1_555 1_555
C6 C3 1_555 1_555
C7 C6 1_555 1_555
H5 C7 1_555 1_555
C8 C7 1_555 1_555
H6 C8 1_555 1_555
C9 H7 1_555 1_555
C10 C6 1_555 1_555
H8 C10 1_555 1_555
C11 H9 1_555 1_555
C12 C11 1_555 1_555
H10 C12 1_555 1_555
C13 C12 1_555 1_555
C14 C13 1_555 1_555
H11 C14 1_555 1_555
C15 C14 1_555 1_555
H12 C15 1_555 1_555
N1 Co1 1_555 1_555
N2 C8 1_555 1_555
N3 Co2 1_555 1_555
Mo1A O1A 1_555 1_555
Mo1_2 O4_2 1_555 1_555
Mo2A O4A_2 1_555 1_555
Mo2_2 O4 1_555 1_555
Mo2_3 N2 1_555 1_555
Mo2A_2 N2A 1_555 1_555
Co2_2 N3A 1_555 1_555
Co2_3 O3A 1_555 1_555
O2A Co1 1_555 1_555
O3A Mo1A 1_555 1_555
O3A_2 Co2 1_555 1_555
O4_2 Mo2 1_555 1_555
O4A Mo1A 1_555 1_555
O5A Mo2A 1_555 1_555
O6A Mo2A 1_555 1_555
O6A_2 Co2 1_555 1_555
O7A Co1 1_555 1_555
C1A H1A 1_555 1_555
C2A C1A 1_555 1_555
H2A C2A 1_555 1_555
C3A C2A 1_555 1_555
C4A C3A 1_555 1_555
H3A C4A 1_555 1_555
C5A C4A 1_555 1_555
H4A C5A 1_555 1_555
C6A C3A 1_555 1_555
C7A C6A 1_555 1_555
H5A C7A 1_555 1_555
C8A C7A 1_555 1_555
H6A C8A 1_555 1_555
C9A H7A 1_555 1_555
C10A C6A 1_555 1_555
H8A C10A 1_555 1_555
C11A H9A 1_555 1_555
C12A C11A 1_555 1_555
H10A C12A 1_555 1_555
C13A C13 1_555 1_555
C14A C13A 1_555 1_555
H11A C14A 1_555 1_555
C15A C14A 1_555 1_555
H12A C15A 1_555 1_555
N1A Co1 1_555 1_555
N2A C8A 1_555 1_555
N2_2 Mo2 1_555 1_555
N2A_2 Mo2A 1_555 1_555
N3A C11A 1_555 1_555
N3A_2 Co2 1_555 1_555
Co1 O7 1_555 1_555
Co2 O6 1_555 1_555
C1 N1 1_555 1_555
C5 N1 1_555 1_555
C9 C10 1_555 1_555
C9 N2 1_555 1_555
C11 N3 1_555 1_555
C15 N3 1_555 1_555
Mo1A O2A 1_555 1_555
Mo2A O7A 1_555 1_555
Co2_3 O6A 1_555 1_555
C1A N1A 1_555 1_555
C5A N1A 1_555 1_555
C9A C10A 1_555 1_555
C9A N2A 1_555 1_555
C12A C13A 1_555 1_555
C15A N3A 1_555 1_555

#END
