
#######################################################################
#
#                 Cambridge Crystallographic Data Centre
#                                CCDC 
#
#######################################################################
#
# If this CIF has been generated from an entry in the Cambridge 
# Structural Database, then it will include bibliographic, chemical, 
# crystal, experimental, refinement or atomic coordinate data resulting 
# from the CCDC's data processing and validation procedures.
#
#######################################################################

data_RIRSER
_symmetry_cell_setting           monoclinic
_symmetry_space_group_name_H-M   'P 21/n'
_symmetry_Int_Tables_number      14
_space_group_name_Hall           '-P 2yn'
loop_
_symmetry_equiv_pos_site_id
_symmetry_equiv_pos_as_xyz
1 x,y,z
2 1/2-x,1/2+y,1/2-z
3 -x,-y,-z
4 1/2+x,1/2-y,1/2+z
_cell_length_a                   8.4523(8)
_cell_length_b                   9.8196(9)
_cell_length_c                   10.9217(10)
_cell_angle_alpha                90
_cell_angle_beta                 105.950(1)
_cell_angle_gamma                90
_cell_volume                     871.584
loop_
_atom_site_label
_atom_site_type_symbol
_atom_site_fract_x
_atom_site_fract_y
_atom_site_fract_z
Fe1 Fe 0.05695(4) 0.29457(3) 0.66011(3)
P1 P -0.07113(6) 0.61809(5) 0.62371(5)
O1 O -0.1370(2) 0.71851(17) 0.70368(17)
O2 O -0.07951(19) 0.47295(16) 0.67011(16)
O3 O -0.15261(19) 0.63488(17) 0.48153(15)
O4 O 0.24168(19) 0.64564(16) 0.77621(15)
H1 H 0.2457 0.5654 0.7975
O5 O 0.2629(2) 0.88101(16) 0.67828(16)
O6 O 0.1045(2) 0.83032(18) 0.48523(16)
O7 O -0.0526(2) 0.18751(18) 0.78468(18)
H2 H -0.0138 0.1072 0.7957
H3 H -0.0313 0.2285 0.8559
C1 C 0.1483(3) 0.6581(2) 0.6457(2)
H9 H 0.1924 0.5930 0.5955
C2 C 0.1720(3) 0.8003(2) 0.5997(2)
Fe1B Fe -0.05695(4) 0.70543(3) 0.33989(3)
Fe1A Fe 0.44305(4) 0.79457(3) 0.83989(3)
Fe1C Fe -0.44305(4) 0.20543(3) 0.16011(3)
P1B P 0.07113(6) 0.38191(5) 0.37629(5)
O1B O 0.1370(2) 0.28149(17) 0.29632(17)
O2B O 0.07951(19) 0.52705(16) 0.32989(16)
O3B O 0.15261(19) 0.36512(17) 0.51847(15)
O4B O -0.24168(19) 0.35436(16) 0.22379(15)
O4A O 0.25832(19) 0.14564(16) 0.72379(15)
O4C O -0.25832(19) 0.85436(16) 0.27621(15)
H1B H -0.2457 0.4346 0.2025
H1A H 0.2543 0.0654 0.7025
H1C H -0.2543 0.9346 0.2975
O5B O -0.2629(2) 0.11899(16) 0.32172(16)
O5A O 0.2371(2) 0.38101(16) 0.82172(16)
O5C O -0.2371(2) 0.61899(16) 0.17828(16)
O6B O -0.1045(2) 0.16968(18) 0.51477(16)
O7B O 0.0526(2) 0.81249(18) 0.21532(18)
H2B H 0.0138 0.8928 0.2043
H3B H 0.0313 0.7715 0.1441
C1B C -0.1483(3) 0.3419(2) 0.3543(2)
H9B H -0.1924 0.4070 0.4045
C2B C -0.1720(3) 0.1997(2) 0.4003(2)
O8 O 0.0188(3) 0.9286(2) 0.8715(2)
H4 H 0.0596 0.9834 0.8281
H5 H -0.0810 0.9496 0.8636
N1 N 0.7064(3) 0.9607(2) 0.6116(2)
H6 H 0.6679 0.9526 0.6808
H7 H 0.771(4) 1.024(3) 0.589(3)
H8 H 0.768(4) 0.888(4) 0.635(3)
C3 C 0.5521(3) 0.9361(2) 0.5107(2)
H10 H 0.4918 0.8619 0.5355
H11 H 0.5773 0.9106 0.4323
N1B N 0.2936(3) 1.0393(2) 0.3884(2)
H6B H 0.3321 1.0474 0.3192
H7B H 0.229(4) 0.976(3) 0.411(3)
H8B H 0.232(4) 1.112(4) 0.365(3)
C3B C 0.4479(3) 1.0639(2) 0.4893(2)
H10B H 0.5082 1.1381 0.4645
H11B H 0.4227 1.0894 0.5677
loop_
_geom_bond_atom_site_label_1
_geom_bond_atom_site_label_2
_geom_bond_site_symmetry_1
_geom_bond_site_symmetry_2
Fe1 O2 1_555 1_555
P1 O1 1_555 1_555
O2 P1 1_555 1_555
O3 P1 1_555 1_555
O4 H1 1_555 1_555
O5 C2 1_555 1_555
O6 C2 1_555 1_555
O7 Fe1 1_555 1_555
H2 O7 1_555 1_555
H3 O7 1_555 1_555
O8 H4 1_555 1_555
H5 O8 1_555 1_555
N1 H6 1_555 1_555
H7 N1 1_555 1_555
H8 N1 1_555 1_555
C1 P1 1_555 1_555
H9 C1 1_555 1_555
C2 C1 1_555 1_555
C3 N1 1_555 1_555
H10 C3 1_555 1_555
H11 C3 1_555 1_555
Fe1B O3 1_555 1_555
Fe1A O4 1_555 1_555
Fe1C O4B 1_555 1_555
P1B O1B 1_555 1_555
O2B Fe1B 1_555 1_555
O3B Fe1 1_555 1_555
O4B H1B 1_555 1_555
O4A Fe1 1_555 1_555
O4C Fe1B 1_555 1_555
H1A O4A 1_555 1_555
H1C O4C 1_555 1_555
O5B Fe1C 1_555 1_555
O5A Fe1 1_555 1_555
O5C Fe1B 1_555 1_555
O6B Fe1 1_555 1_555
O7B Fe1B 1_555 1_555
H2B O7B 1_555 1_555
H3B O7B 1_555 1_555
N1B H6B 1_555 1_555
H7B N1B 1_555 1_555
H8B N1B 1_555 1_555
C1B P1B 1_555 1_555
H9B C1B 1_555 1_555
C2B O5B 1_555 1_555
C3B C3 1_555 1_555
H10B C3B 1_555 1_555
H11B C3B 1_555 1_555
O4 C1 1_555 1_555
O5 Fe1A 1_555 1_555
O6 Fe1B 1_555 1_555
P1B O2B 1_555 1_555
P1B O3B 1_555 1_555
O4B C1B 1_555 1_555
O6B C2B 1_555 1_555
N1B C3B 1_555 1_555
C1B C2B 1_555 1_555

#END
