
#######################################################################
#
#                 Cambridge Crystallographic Data Centre
#                                CCDC 
#
#######################################################################
#
# If this CIF has been generated from an entry in the Cambridge 
# Structural Database, then it will include bibliographic, chemical, 
# crystal, experimental, refinement or atomic coordinate data resulting 
# from the CCDC's data processing and validation procedures.
#
#######################################################################

data_RIRSAN
_symmetry_cell_setting           monoclinic
_symmetry_space_group_name_H-M   'P 21/n'
_symmetry_Int_Tables_number      14
_space_group_name_Hall           '-P 2yn'
loop_
_symmetry_equiv_pos_site_id
_symmetry_equiv_pos_as_xyz
1 x,y,z
2 1/2-x,1/2+y,1/2-z
3 -x,-y,-z
4 1/2+x,1/2-y,1/2+z
_cell_length_a                   11.945(2)
_cell_length_b                   8.0865(16)
_cell_length_c                   13.114(3)
_cell_angle_alpha                90
_cell_angle_beta                 91.36(3)
_cell_angle_gamma                90
_cell_volume                     1266.37
loop_
_atom_site_label
_atom_site_type_symbol
_atom_site_fract_x
_atom_site_fract_y
_atom_site_fract_z
Cd1 Cd 0.250945(18) 0.00007(3) 0.944890(16)
O1 O 0.08263(19) -0.1717(3) 1.00730(16)
O2 O 0.17119(19) -0.2167(3) 0.86645(17)
O3 O 0.1180(2) 0.1910(4) 0.90815(19)
H1 H 0.0613 0.1697 0.9397
C1 C 0.0901(3) -0.2374(4) 0.9221(2)
C2 C -0.0051(3) -0.3456(4) 0.8848(2)
H2 H -0.0741 -0.3025 0.9117
H3 H 0.0059 -0.4555 0.9130
N1 N -0.0027(2) -0.2029(3) 0.71631(17)
C3 C -0.0193(2) -0.3610(4) 0.7683(2)
C4 C -0.0607(3) -0.0628(5) 0.7279(3)
H4 H -0.1205 -0.0584 0.7720
C5 C -0.0307(3) 0.0732(5) 0.6739(3)
H5 H -0.0705 0.1714 0.6802
O4 O 0.0914(2) -0.6078(3) 0.74113(18)
C6 C -0.1656(3) -0.4691(4) 0.6340(2)
C7 C 0.0734(3) -0.4636(4) 0.7208(2)
C8 C -0.1344(3) -0.4379(5) 0.7447(2)
C9 C 0.0841(2) -0.2185(4) 0.6519(2)
N2 N 0.1279(2) -0.3718(3) 0.65161(18)
C10 C 0.1178(3) -0.0804(5) 0.5980(3)
H6 H 0.1784 -0.0860 0.5548
C11 C 0.0598(4) 0.0648(5) 0.6094(3)
H7 H 0.0813 0.1585 0.5737
O5 O -0.22813(19) -0.5891(3) 0.61457(15)
O6 O -0.13328(19) -0.3711(3) 0.56768(15)
H8 H -0.137(3) -0.544(5) 0.786(3)
H9 H -0.188(3) -0.361(4) 0.772(2)
H10 H 0.114(3) 0.247(5) 0.859(3)
Cd1A Cd 0.249055(18) -0.49993(3) 0.555110(16)
Cd1C Cd -0.249055(18) -0.50007(3) 0.444890(16)
N2A N 0.3721(2) 0.1282(3) 0.84839(18)
O5C O 0.27187(19) 0.0891(3) 1.11457(15)
O6C O 0.36672(19) -0.1289(3) 1.06768(15)
loop_
_geom_bond_atom_site_label_1
_geom_bond_atom_site_label_2
_geom_bond_site_symmetry_1
_geom_bond_site_symmetry_2
Cd1 O1 1_555 1_555
O1 C1 1_555 1_555
O2 Cd1 1_555 1_555
O3 Cd1 1_555 1_555
H1 O3 1_555 1_555
C1 O2 1_555 1_555
C2 C1 1_555 1_555
H2 C2 1_555 1_555
H3 C2 1_555 1_555
N1 C3 1_555 1_555
C3 C2 1_555 1_555
C4 N1 1_555 1_555
H4 C4 1_555 1_555
C5 C4 1_555 1_555
H5 C5 1_555 1_555
O4 C7 1_555 1_555
C6 C8 1_555 1_555
C7 C3 1_555 1_555
C8 C3 1_555 1_555
C9 N1 1_555 1_555
N2 C7 1_555 1_555
C10 C9 1_555 1_555
H6 C10 1_555 1_555
C11 C5 1_555 1_555
H7 C11 1_555 1_555
O5 C6 1_555 1_555
O6 C6 1_555 1_555
H8 C8 1_555 1_555
H9 C8 1_555 1_555
H10 O3 1_555 1_555
Cd1A N2 1_555 1_555
Cd1C O5 1_555 1_555
N2A Cd1 1_555 1_555
O5C Cd1 1_555 1_555
O6C Cd1 1_555 1_555
C9 N2 1_555 1_555
C10 C11 1_555 1_555
O6 Cd1C 1_555 1_555

#END
