
#######################################################################
#
#                 Cambridge Crystallographic Data Centre
#                                CCDC 
#
#######################################################################
#
# If this CIF has been generated from an entry in the Cambridge 
# Structural Database, then it will include bibliographic, chemical, 
# crystal, experimental, refinement or atomic coordinate data resulting 
# from the CCDC's data processing and validation procedures.
#
#######################################################################

data_RIRVAQ
_symmetry_cell_setting           monoclinic
_symmetry_space_group_name_H-M   'P 21/c'
_symmetry_Int_Tables_number      14
_space_group_name_Hall           '-P 2ybc'
loop_
_symmetry_equiv_pos_site_id
_symmetry_equiv_pos_as_xyz
1 x,y,z
2 -x,1/2+y,1/2-z
3 -x,-y,-z
4 x,1/2-y,1/2+z
_cell_length_a                   8.9520(9)
_cell_length_b                   21.583(2)
_cell_length_c                   9.3428(9)
_cell_angle_alpha                90
_cell_angle_beta                 107.788(2)
_cell_angle_gamma                90
_cell_volume                     1718.83
loop_
_atom_site_label
_atom_site_type_symbol
_atom_site_fract_x
_atom_site_fract_y
_atom_site_fract_z
Sm1 Sm 0.56514(2) 0.587432(8) 0.621358(18)
O1 O 0.5025(4) 0.61890(13) 0.8320(3)
O2 O 0.4764(5) 0.71766(14) 0.8810(3)
O3 O 0.4974(4) 0.60506(14) 1.3645(3)
O4 O 0.4525(4) 0.50847(13) 1.2752(3)
O5 O 0.2968(3) 0.56649(14) 0.5434(4)
O6 O 0.2536(4) 0.47015(14) 0.4538(4)
O7 O 0.4649(4) 0.69184(13) 0.5835(3)
N1 N 0.8165(5) 0.58817(18) 0.8514(5)
N2 N 0.7961(4) 0.65828(17) 0.6089(5)
C1 C 0.4913(5) 0.66180(18) 0.9178(4)
C2 C 0.4921(5) 0.64408(19) 1.0730(4)
H1 H 0.5023 0.6749 1.1448
C3 C 0.4788(6) 0.58656(19) 1.1102(5)
H2 H 0.4701 0.5565 1.0369
C4 C 0.4765(5) 0.56539(19) 1.2619(4)
C5 C 0.2123(5) 0.51953(18) 0.5016(4)
C6 C 0.0484(5) 0.52337(19) 0.5099(5)
H3 H 0.0128 0.5618 0.5306
C7 C 0.8157(7) 0.5584(3) 0.9775(6)
H4 H 0.7291 0.5343 0.9755
C8 C 0.9381(10) 0.5623(4) 1.1100(7)
H5 H 0.9353 0.5401 1.1944
C9 C 1.0630(9) 0.5992(4) 1.1146(8)
H6 H 1.1448 0.6040 1.2035
C10 C 1.0666(7) 0.6296(3) 0.9851(8)
H7 H 1.1514 0.6546 0.9857
C11 C 0.9428(6) 0.6223(3) 0.8554(6)
C12 C 0.9384(6) 0.6538(2) 0.7123(6)
C13 C 1.0722(7) 0.6758(3) 0.6846(9)
H8 H 1.1690 0.6725 0.7581
C14 C 1.0618(9) 0.7028(3) 0.5471(11)
H9 H 1.1512 0.7164 0.5258
C15 C 0.9170(8) 0.7089(3) 0.4440(9)
H10 H 0.9050 0.7280 0.3520
C16 C 0.7891(7) 0.6861(2) 0.4795(7)
H11 H 0.6910 0.6903 0.4084
H12 H 0.456(6) 0.7082(18) 0.664(3)
H13 H 0.469(6) 0.7175(15) 0.515(4)
Sm1_2 Sm 0.56514(2) 0.587432(8) -0.378642(18)
Sm1_3 Sm 0.56514(2) 0.587432(8) 1.621358(18)
Sm1B Sm 0.43486(2) 0.412568(8) 1.378642(18)
Sm1B_2 Sm 0.43486(2) 0.412568(8) 0.378642(18)
Sm1B_3 Sm -0.56514(2) 0.412568(8) 0.378642(18)
Sm1_4 Sm -0.43486(2) 0.587432(8) 0.621358(18)
O1_2 O 0.5025(4) 0.61890(13) -0.1680(3)
O2_2 O 0.4764(5) 0.71766(14) -0.1190(3)
O3_2 O 0.4974(4) 0.60506(14) 0.3645(3)
O3_3 O 0.4974(4) 0.60506(14) -0.6355(3)
O4_2 O 0.4525(4) 0.50847(13) 0.2752(3)
O4B O 0.5475(4) 0.49153(13) 0.7248(3)
O4B_2 O 0.5475(4) 0.49153(13) -0.2752(3)
O5B O -0.2968(3) 0.43351(14) 0.4566(4)
O5_2 O 0.2968(3) 0.56649(14) -0.4566(4)
O6B O -0.2536(4) 0.52985(14) 0.5462(4)
O6B_2 O 0.7464(4) 0.52985(14) 0.5462(4)
O6B_3 O 0.7464(4) 0.52985(14) -0.4538(4)
O7_2 O 0.4649(4) 0.69184(13) -0.4165(3)
N1_2 N 0.8165(5) 0.58817(18) -0.1486(5)
N2_2 N 0.7961(4) 0.65828(17) -0.3911(5)
C1_2 C 0.4913(5) 0.66180(18) -0.0822(4)
C2_2 C 0.4921(5) 0.64408(19) 0.0730(4)
H1_2 H 0.5023 0.6749 0.1448
C3_2 C 0.4788(6) 0.58656(19) 0.1102(5)
H2_2 H 0.4701 0.5565 0.0369
C4_2 C 0.4765(5) 0.56539(19) 0.2619(4)
C5B C -0.2123(5) 0.48047(18) 0.4984(4)
C6B C -0.0484(5) 0.47663(19) 0.4901(5)
H3B H -0.0128 0.4382 0.4694
C7_2 C 0.8157(7) 0.5584(3) -0.0225(6)
H4_2 H 0.7291 0.5343 -0.0245
C8_2 C 0.9381(10) 0.5623(4) 0.1100(7)
H5_2 H 0.9353 0.5401 0.1944
C9_2 C 1.0630(9) 0.5992(4) 0.1146(8)
H6_2 H 1.1448 0.6040 0.2035
C10_2 C 1.0666(7) 0.6296(3) -0.0149(8)
H7_2 H 1.1514 0.6546 -0.0143
C11_2 C 0.9428(6) 0.6223(3) -0.1446(6)
C12_2 C 0.9384(6) 0.6538(2) -0.2877(6)
C13_2 C 1.0722(7) 0.6758(3) -0.3154(9)
H8_2 H 1.1690 0.6725 -0.2419
C14_2 C 1.0618(9) 0.7028(3) -0.4529(11)
H9_2 H 1.1512 0.7164 -0.4742
C15_2 C 0.9170(8) 0.7089(3) -0.5560(9)
H10_2 H 0.9050 0.7280 -0.6480
C16_2 C 0.7891(7) 0.6861(2) -0.5205(7)
H11_2 H 0.6910 0.6903 -0.5916
H12_2 H 0.456(6) 0.7082(18) -0.336(3)
H13_2 H 0.469(6) 0.7175(15) -0.485(4)
loop_
_geom_bond_atom_site_label_1
_geom_bond_atom_site_label_2
_geom_bond_site_symmetry_1
_geom_bond_site_symmetry_2
Sm1 O1 1_555 1_555
O1 C1 1_555 1_555
O2 C1 1_555 1_555
O3 C4 1_555 1_555
O4 C4 1_555 1_555
O5 Sm1 1_555 1_555
O6 C5 1_555 1_555
O7 Sm1 1_555 1_555
N1 Sm1 1_555 1_555
N2 Sm1 1_555 1_555
C1 C2 1_555 1_555
C2 H1 1_555 1_555
C3 C2 1_555 1_555
H2 C3 1_555 1_555
C4 C3 1_555 1_555
C5 O5 1_555 1_555
C6 C5 1_555 1_555
H3 C6 1_555 1_555
C7 N1 1_555 1_555
H4 C7 1_555 1_555
C8 C7 1_555 1_555
H5 C8 1_555 1_555
C9 C8 1_555 1_555
H6 C9 1_555 1_555
C10 C9 1_555 1_555
H7 C10 1_555 1_555
C11 N1 1_555 1_555
C12 N2 1_555 1_555
C13 C12 1_555 1_555
H8 C13 1_555 1_555
C14 C13 1_555 1_555
H9 C14 1_555 1_555
C15 C14 1_555 1_555
H10 C15 1_555 1_555
C16 N2 1_555 1_555
H11 C16 1_555 1_555
H12 O7 1_555 1_555
H13 O7 1_555 1_555
Sm1_2 O1_2 1_555 1_555
Sm1_3 O3 1_555 1_555
Sm1B O4 1_555 1_555
Sm1B_2 O6 1_555 1_555
Sm1B_3 O5B 1_555 1_555
Sm1_4 O6B 1_555 1_555
O1_2 C1_2 1_555 1_555
O2_2 C1_2 1_555 1_555
O3_2 Sm1 1_555 1_555
O3_3 Sm1_2 1_555 1_555
O4_2 Sm1B_2 1_555 1_555
O4B Sm1 1_555 1_555
O4B_2 Sm1_2 1_555 1_555
O5B C5B 1_555 1_555
O5_2 Sm1_2 1_555 1_555
O6B C5B 1_555 1_555
O6B_2 Sm1 1_555 1_555
O6B_3 Sm1_2 1_555 1_555
O7_2 Sm1_2 1_555 1_555
N1_2 Sm1_2 1_555 1_555
N2_2 Sm1_2 1_555 1_555
C1_2 C2_2 1_555 1_555
C2_2 H1_2 1_555 1_555
C3_2 C2_2 1_555 1_555
H2_2 C3_2 1_555 1_555
C4_2 O3_2 1_555 1_555
C5B C6B 1_555 1_555
C6B C6 1_555 1_555
H3B C6B 1_555 1_555
C7_2 N1_2 1_555 1_555
H4_2 C7_2 1_555 1_555
C8_2 C7_2 1_555 1_555
H5_2 C8_2 1_555 1_555
C9_2 C8_2 1_555 1_555
H6_2 C9_2 1_555 1_555
C10_2 C9_2 1_555 1_555
H7_2 C10_2 1_555 1_555
C11_2 N1_2 1_555 1_555
C12_2 N2_2 1_555 1_555
C13_2 C12_2 1_555 1_555
H8_2 C13_2 1_555 1_555
C14_2 C13_2 1_555 1_555
H9_2 C14_2 1_555 1_555
C15_2 C14_2 1_555 1_555
H10_2 C15_2 1_555 1_555
C16_2 N2_2 1_555 1_555
H11_2 C16_2 1_555 1_555
H12_2 O7_2 1_555 1_555
H13_2 O7_2 1_555 1_555
C10 C11 1_555 1_555
C11 C12 1_555 1_555
C15 C16 1_555 1_555
O4_2 C4_2 1_555 1_555
C3_2 C4_2 1_555 1_555
C10_2 C11_2 1_555 1_555
C11_2 C12_2 1_555 1_555
C15_2 C16_2 1_555 1_555

#END
