
#######################################################################
#
#                 Cambridge Crystallographic Data Centre
#                                CCDC 
#
#######################################################################
#
# If this CIF has been generated from an entry in the Cambridge 
# Structural Database, then it will include bibliographic, chemical, 
# crystal, experimental, refinement or atomic coordinate data resulting 
# from the CCDC's data processing and validation procedures.
#
#######################################################################

data_RIRVEU
_symmetry_cell_setting           monoclinic
_symmetry_space_group_name_H-M   'P 21/c'
_symmetry_Int_Tables_number      14
_space_group_name_Hall           '-P 2ybc'
loop_
_symmetry_equiv_pos_site_id
_symmetry_equiv_pos_as_xyz
1 x,y,z
2 -x,1/2+y,1/2-z
3 -x,-y,-z
4 x,1/2-y,1/2+z
_cell_length_a                   8.9448(11)
_cell_length_b                   21.577(3)
_cell_length_c                   9.3399(12)
_cell_angle_alpha                90
_cell_angle_beta                 107.789(2)
_cell_angle_gamma                90
_cell_volume                     1716.43
loop_
_atom_site_label
_atom_site_type_symbol
_atom_site_fract_x
_atom_site_fract_y
_atom_site_fract_z
Dy1 Dy 0.06517(3) 0.412564(12) 0.12135(3)
O1 O 0.0032(5) 0.3811(2) 0.3323(4)
O2 O -0.0233(6) 0.2822(2) 0.3815(4)
O3 O -0.0023(5) 0.3946(2) 0.8641(4)
O4 O -0.0477(5) 0.4914(2) 0.7748(5)
O5 O -0.2029(4) 0.4335(2) 0.0432(5)
O6 O -0.2462(5) 0.5297(2) -0.0454(5)
O7 O -0.0348(5) 0.30817(19) 0.0829(4)
H1 H -0.0274 0.2795 0.0184
H2 H -0.0462 0.2935 0.1634
N1 N 0.3163(7) 0.4123(3) 0.3522(6)
N2 N 0.2976(6) 0.3418(2) 0.1092(6)
C1 C -0.0090(7) 0.3377(3) 0.4169(6)
C2 C -0.0081(7) 0.3559(3) 0.5725(6)
H3 H 0.0030 0.3251 0.6447
C3 C -0.0224(8) 0.4131(3) 0.6101(7)
H4 H -0.0326 0.4432 0.5364
C4 C -0.0238(6) 0.4346(3) 0.7618(6)
C5 C -0.2875(6) 0.4804(3) 0.0015(6)
C6 C -0.4520(6) 0.4762(3) 0.0100(6)
H5 H -0.4880 0.4378 0.0307
C7 C 0.3163(9) 0.4416(4) 0.4766(8)
H6 H 0.2292 0.4657 0.4744
C8 C 0.4373(12) 0.4386(6) 0.6089(9)
H7 H 0.4337 0.4612 0.6926
C9 C 0.5623(12) 0.4020(6) 0.6150(11)
H8 H 0.6445 0.3981 0.7040
C10 C 0.5658(9) 0.3703(5) 0.4867(11)
H9 H 0.6499 0.3446 0.4890
C11 C 0.4423(8) 0.3776(4) 0.3545(9)
C12 C 0.4379(7) 0.3462(3) 0.2123(9)
C13 C 0.5729(8) 0.3243(4) 0.1846(12)
H10 H 0.6702 0.3280 0.2574
C14 C 0.5606(12) 0.2969(5) 0.0466(15)
H11 H 0.6497 0.2829 0.0251
C15 C 0.4148(10) 0.2909(5) -0.0574(13)
H12 H 0.4022 0.2715 -0.1492
C16 C 0.2879(9) 0.3144(4) -0.0211(10)
H13 H 0.1893 0.3110 -0.0921
Dy1_2 Dy 0.06517(3) 0.412564(12) -0.87865(3)
Dy1_3 Dy 0.06517(3) 0.412564(12) 1.12135(3)
Dy1B Dy -0.06517(3) 0.587436(12) 0.87865(3)
Dy1B_2 Dy -0.06517(3) 0.587436(12) -0.12135(3)
Dy1B_3 Dy -1.06517(3) 0.587436(12) -0.12135(3)
Dy1_4 Dy -0.93483(3) 0.412564(12) 0.12135(3)
O1_2 O 0.0032(5) 0.3811(2) -0.6677(4)
O2_2 O -0.0233(6) 0.2822(2) -0.6185(4)
O3_2 O -0.0023(5) 0.3946(2) -0.1359(4)
O3_3 O -0.0023(5) 0.3946(2) -1.1359(4)
O4_2 O -0.0477(5) 0.4914(2) -0.2252(5)
O4B O 0.0477(5) 0.5086(2) 0.2252(5)
O4B_2 O 0.0477(5) 0.5086(2) -0.7748(5)
O5B O -0.7971(4) 0.5665(2) -0.0432(5)
O5_2 O -0.2029(4) 0.4335(2) -0.9568(5)
O6B O -0.7538(5) 0.4703(2) 0.0454(5)
O6B_2 O 0.2462(5) 0.4703(2) 0.0454(5)
O6B_3 O 0.2462(5) 0.4703(2) -0.9546(5)
O7_2 O -0.0348(5) 0.30817(19) -0.9171(4)
H1_2 H -0.0274 0.2795 -0.9816
H2_2 H -0.0462 0.2935 -0.8366
N1_2 N 0.3163(7) 0.4123(3) -0.6478(6)
N2_2 N 0.2976(6) 0.3418(2) -0.8908(6)
C1_2 C -0.0090(7) 0.3377(3) -0.5831(6)
C2_2 C -0.0081(7) 0.3559(3) -0.4275(6)
H3_2 H 0.0030 0.3251 -0.3553
C3_2 C -0.0224(8) 0.4131(3) -0.3899(7)
H4_2 H -0.0326 0.4432 -0.4636
C4_2 C -0.0238(6) 0.4346(3) -0.2382(6)
C5B C -0.7125(6) 0.5196(3) -0.0015(6)
C6B C -0.5480(6) 0.5238(3) -0.0100(6)
H5B H -0.5120 0.5622 -0.0307
C7_2 C 0.3163(9) 0.4416(4) -0.5234(8)
H6_2 H 0.2292 0.4657 -0.5256
C8_2 C 0.4373(12) 0.4386(6) -0.3911(9)
H7_2 H 0.4337 0.4612 -0.3074
C9_2 C 0.5623(12) 0.4020(6) -0.3850(11)
H8_2 H 0.6445 0.3981 -0.2960
C10_2 C 0.5658(9) 0.3703(5) -0.5133(11)
H9_2 H 0.6499 0.3446 -0.5110
C11_2 C 0.4423(8) 0.3776(4) -0.6455(9)
C12_2 C 0.4379(7) 0.3462(3) -0.7877(9)
C13_2 C 0.5729(8) 0.3243(4) -0.8154(12)
H10_2 H 0.6702 0.3280 -0.7426
C14_2 C 0.5606(12) 0.2969(5) -0.9534(15)
H11_2 H 0.6497 0.2829 -0.9749
C15_2 C 0.4148(10) 0.2909(5) -1.0574(13)
H12_2 H 0.4022 0.2715 -1.1492
C16_2 C 0.2879(9) 0.3144(4) -1.0211(10)
H13_2 H 0.1893 0.3110 -1.0921
loop_
_geom_bond_atom_site_label_1
_geom_bond_atom_site_label_2
_geom_bond_site_symmetry_1
_geom_bond_site_symmetry_2
Dy1 O1 1_555 1_555
O1 C1 1_555 1_555
O2 C1 1_555 1_555
O3 C4 1_555 1_555
O4 C4 1_555 1_555
O5 Dy1 1_555 1_555
O6 C5 1_555 1_555
O7 Dy1 1_555 1_555
H1 O7 1_555 1_555
H2 O7 1_555 1_555
N1 Dy1 1_555 1_555
N2 Dy1 1_555 1_555
C1 C2 1_555 1_555
C2 H3 1_555 1_555
C3 C2 1_555 1_555
H4 C3 1_555 1_555
C4 C3 1_555 1_555
C5 O5 1_555 1_555
C6 C5 1_555 1_555
H5 C6 1_555 1_555
C7 N1 1_555 1_555
H6 C7 1_555 1_555
C8 C7 1_555 1_555
H7 C8 1_555 1_555
C9 C8 1_555 1_555
H8 C9 1_555 1_555
C10 C9 1_555 1_555
H9 C10 1_555 1_555
C11 N1 1_555 1_555
C12 N2 1_555 1_555
C13 C12 1_555 1_555
H10 C13 1_555 1_555
C14 C13 1_555 1_555
H11 C14 1_555 1_555
C15 C14 1_555 1_555
H12 C15 1_555 1_555
C16 N2 1_555 1_555
H13 C16 1_555 1_555
Dy1_2 O1_2 1_555 1_555
Dy1_3 O3 1_555 1_555
Dy1B O4 1_555 1_555
Dy1B_2 O6 1_555 1_555
Dy1B_3 O5B 1_555 1_555
Dy1_4 O6B 1_555 1_555
O1_2 C1_2 1_555 1_555
O2_2 C1_2 1_555 1_555
O3_2 Dy1 1_555 1_555
O3_3 Dy1_2 1_555 1_555
O4_2 Dy1B_2 1_555 1_555
O4B Dy1 1_555 1_555
O4B_2 Dy1_2 1_555 1_555
O5B C5B 1_555 1_555
O5_2 Dy1_2 1_555 1_555
O6B C5B 1_555 1_555
O6B_2 Dy1 1_555 1_555
O6B_3 Dy1_2 1_555 1_555
O7_2 Dy1_2 1_555 1_555
H1_2 O7_2 1_555 1_555
H2_2 O7_2 1_555 1_555
N1_2 Dy1_2 1_555 1_555
N2_2 Dy1_2 1_555 1_555
C1_2 C2_2 1_555 1_555
C2_2 H3_2 1_555 1_555
C3_2 C2_2 1_555 1_555
H4_2 C3_2 1_555 1_555
C4_2 O3_2 1_555 1_555
C5B C6B 1_555 1_555
C6B C6 1_555 1_555
H5B C6B 1_555 1_555
C7_2 N1_2 1_555 1_555
H6_2 C7_2 1_555 1_555
C8_2 C7_2 1_555 1_555
H7_2 C8_2 1_555 1_555
C9_2 C8_2 1_555 1_555
H8_2 C9_2 1_555 1_555
C10_2 C9_2 1_555 1_555
H9_2 C10_2 1_555 1_555
C11_2 N1_2 1_555 1_555
C12_2 N2_2 1_555 1_555
C13_2 C12_2 1_555 1_555
H10_2 C13_2 1_555 1_555
C14_2 C13_2 1_555 1_555
H11_2 C14_2 1_555 1_555
C15_2 C14_2 1_555 1_555
H12_2 C15_2 1_555 1_555
C16_2 N2_2 1_555 1_555
H13_2 C16_2 1_555 1_555
C10 C11 1_555 1_555
C11 C12 1_555 1_555
C15 C16 1_555 1_555
O4_2 C4_2 1_555 1_555
C3_2 C4_2 1_555 1_555
C10_2 C11_2 1_555 1_555
C11_2 C12_2 1_555 1_555
C15_2 C16_2 1_555 1_555

#END
