
#######################################################################
#
#                 Cambridge Crystallographic Data Centre
#                                CCDC 
#
#######################################################################
#
# If this CIF has been generated from an entry in the Cambridge 
# Structural Database, then it will include bibliographic, chemical, 
# crystal, experimental, refinement or atomic coordinate data resulting 
# from the CCDC's data processing and validation procedures.
#
#######################################################################

data_RISBUS
_symmetry_cell_setting           monoclinic
_symmetry_space_group_name_H-M   'P 21/c'
_symmetry_Int_Tables_number      14
_space_group_name_Hall           '-P 2ybc'
loop_
_symmetry_equiv_pos_site_id
_symmetry_equiv_pos_as_xyz
1 x,y,z
2 -x,1/2+y,1/2-z
3 -x,-y,-z
4 x,1/2-y,1/2+z
_cell_length_a                   11.9824(13)
_cell_length_b                   32.547(4)
_cell_length_c                   10.7535(12)
_cell_angle_alpha                90
_cell_angle_beta                 98.598(2)
_cell_angle_gamma                90
_cell_volume                     4146.64
loop_
_atom_site_label
_atom_site_type_symbol
_atom_site_fract_x
_atom_site_fract_y
_atom_site_fract_z
O1 O 0.9945(4) 0.07170(17) 0.9221(5)
C1 C 0.9527(6) 0.0999(3) 0.8503(6)
C2 C 0.3245(5) 0.14395(17) -0.1471(5)
H1 H 0.2552 0.1517 -0.1918
C3 C 0.4334(5) 0.09748(19) -0.0258(6)
H2 H 0.4407 0.0723 0.0158
C4 C 0.5269(4) 0.12177(17) -0.0204(5)
H3 H 0.5955 0.1129 0.0231
C5 C 0.5198(4) 0.15973(16) -0.0799(5)
C6 C 0.4139(5) 0.17005(17) -0.1453(5)
H4 H 0.4042 0.1949 -0.1881
C7 C 0.6180(4) 0.18691(16) -0.0742(5)
C8 C 0.6311(5) 0.21392(17) -0.1697(5)
H5 H 0.5750 0.2155 -0.2394
C9 C 0.7253(5) 0.23860(17) -0.1647(5)
H6 H 0.7324 0.2561 -0.2314
C10 C 0.8092(4) 0.23752(15) -0.0615(5)
C11 C 0.7983(4) 0.21049(18) 0.0341(5)
H7 H 0.8547 0.2090 0.1035
C12 C 0.7050(4) 0.18553(18) 0.0283(5)
H8 H 0.6996 0.1674 0.0939
C13 C 1.0073(4) 0.25179(15) 0.0216(5)
C14 C 1.0580(5) 0.27714(16) 0.1167(5)
H9 H 1.0273 0.3028 0.1284
C15 C 1.1543(4) 0.26450(16) 0.1945(5)
H10 H 1.1877 0.2820 0.2576
C16 C 1.2021(4) 0.22628(16) 0.1806(5)
C17 C 1.1499(4) 0.20121(15) 0.0841(5)
H11 H 1.1802 0.1754 0.0724
C18 C 1.0536(4) 0.21383(15) 0.0052(5)
H12 H 1.0203 0.1966 -0.0589
C19 C 1.3219(5) 0.2234(2) 0.3917(6)
H13 H 1.2683 0.2388 0.4254
C20 C 1.3043(4) 0.21276(17) 0.2664(5)
C21 C 1.3871(5) 0.1897(2) 0.2233(7)
H14 H 1.3799 0.1820 0.1391
C22 C 1.4817(6) 0.1779(2) 0.3072(8)
H15 H 1.5356 0.1618 0.2766
C23 C 0.8910(4) 0.30447(15) -0.1013(5)
C24 C 0.7959(4) 0.32756(15) -0.0879(5)
H16 H 0.7404 0.3164 -0.0461
C25 C 0.7833(4) 0.36675(15) -0.1361(5)
H17 H 0.7193 0.3818 -0.1261
C26 C 0.8644(4) 0.38424(15) -0.1993(5)
C27 C 0.9603(4) 0.36110(16) -0.2122(5)
H18 H 1.0156 0.3721 -0.2546
C28 C 0.9733(4) 0.32190(16) -0.1624(5)
H19 H 1.0382 0.3070 -0.1701
C29 C 0.8507(4) 0.42631(14) -0.2536(5)
C30 C 0.7483(5) 0.44655(18) -0.2707(6)
H20 H 0.6841 0.4336 -0.2508
C31 C 0.9402(5) 0.44709(17) -0.2900(6)
H21 H 1.0107 0.4346 -0.2824
C32 C 0.9260(5) 0.48662(17) -0.3381(6)
H22 H 0.9881 0.4999 -0.3618
C33 C 0.2694(5) 0.0696(2) 0.1881(6)
C34 C 0.3307(5) 0.0732(3) 0.3190(6)
C35 C 0.2877(6) 0.0982(3) 0.4055(7)
H23 H 0.2210 0.1127 0.3809
C36 C 0.3423(6) 0.1019(3) 0.5261(7)
H24 H 0.3147 0.1192 0.5833
C37 C 0.4891(7) 0.0570(3) 0.4762(7)
H25 H 0.5594 0.0448 0.4987
C38 C 0.4319(6) 0.0532(3) 0.3549(7)
H26 H 0.4621 0.0369 0.2971
C39 C 0.7415(5) 0.48642(19) -0.3178(7)
H27 H 0.6723 0.4998 -0.3259
C40 C 1.4197(6) 0.2111(2) 0.4671(7)
H28 H 1.4303 0.2194 0.5508
C41 C 0.4416(7) 0.0789(3) 0.5611(8)
C42 C 0.6560(7) 0.1155(3) 0.6777(7)
H29 H 0.6161 0.1332 0.6194
C43 C 0.7728(7) 0.1226(3) 0.7202(7)
H30 H 0.8097 0.1448 0.6904
C44 C 0.8298(6) 0.0960(2) 0.8058(6)
C45 C 0.7697(6) 0.0626(3) 0.8470(7)
H31 H 0.8075 0.0440 0.9040
C46 C 0.6582(6) 0.0571(3) 0.8054(7)
H32 H 0.6187 0.0353 0.8338
C47 C 0.6056(7) 0.0849(4) 0.7197(8)
Cd1 Cd 0.17761(3) 0.070659(13) -0.05717(4)
N1 N 0.3318(4) 0.10776(14) -0.0875(4)
N2 N 0.9044(4) 0.26357(13) -0.0539(4)
N3 N 1.4997(5) 0.1881(2) 0.4282(6)
N4 N 0.8283(4) 0.50628(13) -0.3517(4)
O2 O 0.1929(3) 0.09546(16) 0.1506(4)
O3 O 0.2981(4) 0.04214(14) 0.1191(4)
O4 O 0.4875(5) 0.0770(2) 0.6891(6)
O5 O 1.0112(7) 0.1274(3) 0.8166(6)
O1_2 O -0.0055(4) 0.07170(17) -0.0779(5)
Cd1_2 Cd 1.17761(3) 0.070659(13) 0.94283(4)
Cd1A Cd 0.82239(3) 0.570659(13) -0.44283(4)
N4A N 0.1717(4) 0.00628(13) -0.1483(4)
loop_
_geom_bond_atom_site_label_1
_geom_bond_atom_site_label_2
_geom_bond_site_symmetry_1
_geom_bond_site_symmetry_2
O1 C1 1_555 1_555
C1 C44 1_555 1_555
C2 H1 1_555 1_555
C3 H2 1_555 1_555
C4 C3 1_555 1_555
H3 C4 1_555 1_555
C5 C4 1_555 1_555
C6 C2 1_555 1_555
H4 C6 1_555 1_555
C7 C5 1_555 1_555
C8 C7 1_555 1_555
H5 C8 1_555 1_555
C9 C8 1_555 1_555
H6 C9 1_555 1_555
C10 C9 1_555 1_555
C11 C10 1_555 1_555
H7 C11 1_555 1_555
C12 C7 1_555 1_555
H8 C12 1_555 1_555
C13 C14 1_555 1_555
C14 H9 1_555 1_555
C15 C14 1_555 1_555
H10 C15 1_555 1_555
C16 C15 1_555 1_555
C17 C16 1_555 1_555
H11 C17 1_555 1_555
C18 C13 1_555 1_555
H12 C18 1_555 1_555
C19 H13 1_555 1_555
C20 C16 1_555 1_555
C21 C20 1_555 1_555
H14 C21 1_555 1_555
C22 C21 1_555 1_555
H15 C22 1_555 1_555
C23 C24 1_555 1_555
C24 H16 1_555 1_555
C25 C24 1_555 1_555
H17 C25 1_555 1_555
C26 C25 1_555 1_555
C27 C26 1_555 1_555
H18 C27 1_555 1_555
C28 C23 1_555 1_555
H19 C28 1_555 1_555
C29 C26 1_555 1_555
C30 C29 1_555 1_555
H20 C30 1_555 1_555
C31 C29 1_555 1_555
H21 C31 1_555 1_555
C32 C31 1_555 1_555
H22 C32 1_555 1_555
C33 C34 1_555 1_555
C34 C35 1_555 1_555
C35 H23 1_555 1_555
C36 C35 1_555 1_555
H24 C36 1_555 1_555
C37 H25 1_555 1_555
C38 C34 1_555 1_555
H26 C38 1_555 1_555
C39 C30 1_555 1_555
H27 C39 1_555 1_555
C40 C19 1_555 1_555
H28 C40 1_555 1_555
C41 C36 1_555 1_555
C42 H29 1_555 1_555
C43 C42 1_555 1_555
H30 C43 1_555 1_555
C44 C43 1_555 1_555
C45 C44 1_555 1_555
H31 C45 1_555 1_555
C46 C45 1_555 1_555
H32 C46 1_555 1_555
C47 C42 1_555 1_555
Cd1 N1 1_555 1_555
N1 C2 1_555 1_555
N2 C10 1_555 1_555
N3 C22 1_555 1_555
N4 C32 1_555 1_555
O2 C33 1_555 1_555
O3 C33 1_555 1_555
O4 C41 1_555 1_555
O5 C1 1_555 1_555
O1_2 Cd1 1_555 1_555
Cd1_2 O1 1_555 1_555
Cd1A N4 1_555 1_555
N4A Cd1 1_555 1_555
C3 N1 1_555 1_555
C5 C6 1_555 1_555
C11 C12 1_555 1_555
C13 N2 1_555 1_555
C17 C18 1_555 1_555
C19 C20 1_555 1_555
C23 N2 1_555 1_555
C27 C28 1_555 1_555
C37 C38 1_555 1_555
C37 C41 1_555 1_555
C39 N4 1_555 1_555
C40 N3 1_555 1_555
C46 C47 1_555 1_555
C47 O4 1_555 1_555
Cd1 O2 1_555 1_555
Cd1 O3 1_555 1_555

#END
