
#######################################################################
#
#                 Cambridge Crystallographic Data Centre
#                                CCDC 
#
#######################################################################
#
# If this CIF has been generated from an entry in the Cambridge 
# Structural Database, then it will include bibliographic, chemical, 
# crystal, experimental, refinement or atomic coordinate data resulting 
# from the CCDC's data processing and validation procedures.
#
#######################################################################

data_RISBIG
_symmetry_cell_setting           orthorhombic
_symmetry_space_group_name_H-M   'P b c a'
_symmetry_Int_Tables_number      61
_space_group_name_Hall           '-P 2ac 2ab'
loop_
_symmetry_equiv_pos_site_id
_symmetry_equiv_pos_as_xyz
1 x,y,z
2 1/2-x,-y,1/2+z
3 -x,1/2+y,1/2-z
4 1/2+x,1/2-y,-z
5 -x,-y,-z
6 1/2+x,y,1/2-z
7 x,1/2-y,1/2+z
8 1/2-x,1/2+y,z
_cell_length_a                   12.0822(8)
_cell_length_b                   23.6760(16)
_cell_length_c                   29.4806(19)
_cell_angle_alpha                90
_cell_angle_beta                 90
_cell_angle_gamma                90
_cell_volume                     8433.17
loop_
_atom_site_label
_atom_site_type_symbol
_atom_site_fract_x
_atom_site_fract_y
_atom_site_fract_z
O1 O -0.5933(4) 0.23691(19) -0.01922(18)
O2 O -0.3003(4) 0.18787(19) -0.01563(16)
C1 C -0.5404(6) 0.2195(3) 0.0129(3)
N1 N 0.5867(4) -0.12845(19) 0.44100(15)
C2 C 0.6507(6) -0.1388(3) 0.4063(2)
H1 H 0.6988 -0.1694 0.4081
C3 C 0.5172(6) -0.0863(3) 0.4365(2)
H2 H 0.4697 -0.0783 0.4605
Zn1 Zn -0.09673(6) 0.17757(3) -0.00116(2)
N2 N 0.0401(4) 0.1535(2) 0.03721(15)
O3 O -0.2133(4) 0.1409(2) 0.03776(14)
C4 C 0.5794(4) -0.0262(2) 0.32104(18)
N3 N 0.5908(4) 0.0856(2) 0.20976(17)
C5 C -0.3022(5) 0.1581(3) 0.0193(2)
C6 C 0.5802(4) -0.0627(2) 0.36193(18)
C7 C 0.3865(5) 0.1630(3) 0.13963(18)
H3 H 0.3756 0.1996 0.1291
C8 C 0.5855(4) 0.0472(3) 0.24664(19)
C9 C 0.8739(5) 0.1837(3) 0.1829(2)
C10 C 0.2168(4) 0.1324(2) 0.09716(18)
C11 C 0.3120(4) 0.1211(3) 0.12781(18)
C12 C 0.6896(5) 0.1169(3) 0.20156(19)
C13 C 0.4959(4) 0.0976(3) 0.18271(19)
C14 C 0.2181(5) 0.1769(3) 0.06670(19)
H4 H 0.2786 0.2012 0.0657
C15 C 0.1302(5) 0.1854(3) 0.0379(2)
H5 H 0.1342 0.2155 0.0176
C16 C 0.6695(5) -0.0249(3) 0.2919(2)
H6 H 0.7289 -0.0489 0.2972
C17 C 0.4940(5) 0.0454(3) 0.2746(2)
H7 H 0.4338 0.0687 0.2687
C18 C 0.4217(5) 0.0558(3) 0.1717(2)
H8 H 0.4324 0.0194 0.1827
C19 C 0.4913(5) 0.0092(2) 0.3112(2)
H9 H 0.4290 0.0085 0.3297
C20 C 0.4764(5) 0.1514(3) 0.16669(18)
H10 H 0.5250 0.1804 0.1743
C21 C 0.1226(5) 0.0992(3) 0.0967(2)
H11 H 0.1164 0.0691 0.1167
C22 C 0.8369(5) 0.1757(3) 0.2270(2)
H12 H 0.8748 0.1929 0.2507
C23 C 0.6729(5) 0.0113(3) 0.2553(2)
H13 H 0.7345 0.0115 0.2364
C24 C 0.3314(5) 0.0675(3) 0.1446(2)
H14 H 0.2823 0.0386 0.1375
C25 C -0.4102(5) 0.1417(3) 0.0410(2)
H15 H -0.4095 0.1013 0.0465
H16 H -0.4156 0.1603 0.0702
C26 C 0.9722(5) 0.2188(3) 0.1725(2)
C27 C 0.8184(5) 0.1561(3) 0.1489(2)
H17 H 0.8425 0.1602 0.1191
C28 C 0.7453(5) 0.1430(3) 0.2365(2)
H18 H 0.7215 0.1386 0.2663
C29 C -0.5112(5) 0.1561(3) 0.0137(3)
H19 H -0.5738 0.1353 0.0259
H20 H -0.4999 0.1434 -0.0173
C30 C 0.5105(6) -0.0534(3) 0.3984(2)
H21 H 0.4586 -0.0244 0.3971
C31 C 0.0381(5) 0.1104(3) 0.0669(2)
H22 H -0.0237 0.0870 0.0672
C32 C 0.6510(6) -0.1070(3) 0.3672(2)
H23 H 0.7002 -0.1160 0.3440
C33 C 0.7287(5) 0.1229(3) 0.1576(2)
H24 H 0.6935 0.1042 0.1339
N4 N 1.1575(7) 0.2863(4) 0.1525(3)
C34 C 1.0743(8) 0.2800(4) 0.1239(3)
H25 H 1.0779 0.2990 0.0963
C35 C 0.9829(6) 0.2472(3) 0.1322(3)
H26 H 0.9277 0.2442 0.1103
C36 C 1.1481(7) 0.2577(4) 0.1909(3)
H27 H 1.2057 0.2604 0.2117
C37 C 1.0590(6) 0.2241(4) 0.2021(3)
H28 H 1.0577 0.2052 0.2297
O4 O -0.5109(4) 0.24903(19) 0.04231(17)
O1C O -0.0933(4) 0.26309(19) 0.01922(18)
N1A N -0.0867(4) 0.12845(19) -0.05900(15)
Zn1A Zn 0.59673(6) -0.17757(3) 0.49884(2)
Zn1C Zn -0.59673(6) 0.32243(3) 0.00116(2)
O4C O -0.0109(4) 0.25097(19) -0.04231(17)
loop_
_geom_bond_atom_site_label_1
_geom_bond_atom_site_label_2
_geom_bond_site_symmetry_1
_geom_bond_site_symmetry_2
O1 C1 1_555 1_555
O2 Zn1 1_555 1_555
C1 C29 1_555 1_555
N1 C2 1_555 1_555
C2 H1 1_555 1_555
C3 N1 1_555 1_555
H2 C3 1_555 1_555
Zn1 N2 1_555 1_555
N2 C15 1_555 1_555
O3 Zn1 1_555 1_555
C4 C6 1_555 1_555
N3 C8 1_555 1_555
C5 O2 1_555 1_555
C6 C30 1_555 1_555
C7 H3 1_555 1_555
C8 C17 1_555 1_555
C9 C22 1_555 1_555
C10 C11 1_555 1_555
C11 C7 1_555 1_555
C12 N3 1_555 1_555
C13 N3 1_555 1_555
C14 C10 1_555 1_555
H4 C14 1_555 1_555
C15 C14 1_555 1_555
H5 C15 1_555 1_555
C16 C4 1_555 1_555
H6 C16 1_555 1_555
C17 H7 1_555 1_555
C18 C13 1_555 1_555
H8 C18 1_555 1_555
C19 C4 1_555 1_555
H9 C19 1_555 1_555
C20 C7 1_555 1_555
H10 C20 1_555 1_555
C21 C10 1_555 1_555
H11 C21 1_555 1_555
C22 H12 1_555 1_555
C23 C8 1_555 1_555
H13 C23 1_555 1_555
C24 C11 1_555 1_555
H14 C24 1_555 1_555
C25 C5 1_555 1_555
H15 C25 1_555 1_555
H16 C25 1_555 1_555
C26 C9 1_555 1_555
C27 C9 1_555 1_555
H17 C27 1_555 1_555
C28 C12 1_555 1_555
H18 C28 1_555 1_555
C29 C25 1_555 1_555
H19 C29 1_555 1_555
H20 C29 1_555 1_555
C30 C3 1_555 1_555
H21 C30 1_555 1_555
C31 N2 1_555 1_555
H22 C31 1_555 1_555
C32 C2 1_555 1_555
H23 C32 1_555 1_555
C33 C12 1_555 1_555
H24 C33 1_555 1_555
N4 C34 1_555 1_555
C34 H25 1_555 1_555
C35 C26 1_555 1_555
H26 C35 1_555 1_555
C36 N4 1_555 1_555
H27 C36 1_555 1_555
C37 C26 1_555 1_555
H28 C37 1_555 1_555
O4 C1 1_555 1_555
O1C Zn1 1_555 1_555
N1A Zn1 1_555 1_555
Zn1A N1 1_555 1_555
Zn1C O1 1_555 1_555
O4C Zn1 1_555 1_555
O3 C5 1_555 1_555
C6 C32 1_555 1_555
C13 C20 1_555 1_555
C16 C23 1_555 1_555
C17 C19 1_555 1_555
C18 C24 1_555 1_555
C21 C31 1_555 1_555
C22 C28 1_555 1_555
C27 C33 1_555 1_555
C34 C35 1_555 1_555
C36 C37 1_555 1_555
O4 Zn1C 1_555 1_555

#END
