
#######################################################################
#
#                 Cambridge Crystallographic Data Centre
#                                CCDC 
#
#######################################################################
#
# If this CIF has been generated from an entry in the Cambridge 
# Structural Database, then it will include bibliographic, chemical, 
# crystal, experimental, refinement or atomic coordinate data resulting 
# from the CCDC's data processing and validation procedures.
#
#######################################################################

data_RISBOM
_symmetry_cell_setting           monoclinic
_symmetry_space_group_name_H-M   'C 2/c'
_symmetry_Int_Tables_number      15
_space_group_name_Hall           '-C 2yn'
loop_
_symmetry_equiv_pos_site_id
_symmetry_equiv_pos_as_xyz
1 x,y,z
2 -x,y,1/2-z
3 1/2+x,1/2+y,z
4 1/2-x,1/2+y,1/2-z
5 -x,-y,-z
6 x,-y,1/2+z
7 1/2-x,1/2-y,-z
8 1/2+x,1/2-y,1/2+z
_cell_length_a                   13.7490(12)
_cell_length_b                   17.0006(15)
_cell_length_c                   13.1650(11)
_cell_angle_alpha                90
_cell_angle_beta                 93.1090(10)
_cell_angle_gamma                90
_cell_volume                     3072.67
loop_
_atom_site_label
_atom_site_type_symbol
_atom_site_fract_x
_atom_site_fract_y
_atom_site_fract_z
C1 C 0.2947(2) 1.19771(16) 0.3661(3)
H1 H 0.2718 1.2313 0.3144
C2 C 0.2279(2) 1.16228(18) 0.4254(2)
H2 H 0.1617 1.1718 0.4125
C3 C 0.2582(2) 1.11303(17) 0.5033(2)
C4 C 0.3576(2) 1.1039(2) 0.5190(3)
H3 H 0.3825 1.0724 0.5720
C5 C 0.4209(2) 1.1416(2) 0.4559(3)
H4 H 0.4876 1.1350 0.4686
C6 C 0.1909(2) 1.06994(18) 0.5672(2)
C7 C 0.0965(2) 1.09637(18) 0.5805(3)
H5 H 0.0755 1.1432 0.5499
C8 C 0.0335(2) 1.05440(18) 0.6381(3)
H6 H -0.0302 1.0716 0.6429
C9 C 0.0645(2) 0.98716(17) 0.6886(3)
C10 C 0.1590(2) 0.96071(19) 0.6781(3)
H7 H 0.1812 0.9158 0.7124
C11 C 0.2200(2) 1.00137(18) 0.6166(3)
H8 H 0.2823 0.9821 0.6082
C12 C 0.0000 0.8616(2) 0.7500
C13 C -0.0343(2) 0.81934(18) 0.8318(3)
H9 H -0.0556 0.8459 0.8881
C14 C -0.0365(2) 0.73862(19) 0.8291(3)
H10 H -0.0634 0.7115 0.8821
C15 C 0.0000 0.6965(2) 0.7500
C16 C 0.0000 0.6089(2) 0.7500
C17 C -0.0776(2) 0.56659(19) 0.7824(3)
H11 H -0.1311 0.5925 0.8069
C18 C -0.0759(2) 0.48538(19) 0.7785(3)
H12 H -0.1308 0.4581 0.7969
C19 C 0.64902(19) 1.2409(2) 0.3921(2)
C20 C 0.7230(2) 1.27219(18) 0.4692(2)
H13 H 0.7311 1.3264 0.4737
Cd1 Cd 0.5000 1.203021(16) 0.2500
N1 N 0.0000 0.9444(2) 0.7500
N2 N 0.39033(19) 1.18651(15) 0.3786(2)
N3 N 0.0000 0.4443(2) 0.7500
O1 O 0.60104(18) 1.29039(14) 0.3391(2)
O2 O 0.63742(16) 1.16899(15) 0.38143(19)
C1A C -0.2947(2) 1.19771(16) 1.1339(3)
H1A H -0.2718 1.2313 1.1856
C2A C -0.2279(2) 1.16228(18) 1.0746(2)
H2A H -0.1617 1.1718 1.0875
C3A C -0.2582(2) 1.11303(17) 0.9967(2)
C4A C -0.3576(2) 1.1039(2) 0.9810(3)
H3A H -0.3825 1.0724 0.9280
C5A C -0.4209(2) 1.1416(2) 1.0441(3)
H4A H -0.4876 1.1350 1.0314
C6A C -0.1909(2) 1.06994(18) 0.9328(2)
C7A C -0.0965(2) 1.09637(18) 0.9195(3)
H5A H -0.0755 1.1432 0.9501
C8A C -0.0335(2) 1.05440(18) 0.8619(3)
H6A H 0.0302 1.0716 0.8571
C9A C -0.0645(2) 0.98716(17) 0.8114(3)
C10A C -0.1590(2) 0.96071(19) 0.8219(3)
H7A H -0.1812 0.9158 0.7876
C11A C -0.2200(2) 1.00137(18) 0.8834(3)
H8A H -0.2823 0.9821 0.8918
C13A C 0.0343(2) 0.81934(18) 0.6682(3)
H9A H 0.0556 0.8459 0.6119
C14A C 0.0365(2) 0.73862(19) 0.6709(3)
H10A H 0.0634 0.7115 0.6179
C17A C 0.0776(2) 0.56659(19) 0.7176(3)
H11A H 0.1311 0.5925 0.6931
C18A C 0.0759(2) 0.48538(19) 0.7215(3)
H12A H 0.1308 0.4581 0.7031
N2A N -0.39033(19) 1.18651(15) 1.1214(2)
C19F C 0.85098(19) 1.2591(2) 0.6079(2)
C20F C 0.7770(2) 1.22781(18) 0.5308(2)
H13F H 0.7689 1.1736 0.5263
O1F O 0.89896(18) 1.20961(14) 0.6609(2)
O2F O 0.86258(16) 1.33101(15) 0.61857(19)
Cd1_2 Cd -0.5000 1.203021(16) 1.2500
Cd1F Cd 0.0000 0.296979(16) 0.7500
Cd1F_2 Cd 1.0000 1.296979(16) 0.7500
N2A_2 N 0.60967(19) 1.18651(15) 0.1214(2)
N3F N 0.5000 1.0557(2) 0.2500
O1A O 0.39896(18) 1.29039(14) 0.1609(2)
O2A O 0.36258(16) 1.16899(15) 0.11857(19)
loop_
_geom_bond_atom_site_label_1
_geom_bond_atom_site_label_2
_geom_bond_site_symmetry_1
_geom_bond_site_symmetry_2
C1 H1 1_555 1_555
C2 C1 1_555 1_555
H2 C2 1_555 1_555
C3 C2 1_555 1_555
C4 C3 1_555 1_555
H3 C4 1_555 1_555
C5 C4 1_555 1_555
H4 C5 1_555 1_555
C6 C3 1_555 1_555
C7 C6 1_555 1_555
H5 C7 1_555 1_555
C8 C7 1_555 1_555
H6 C8 1_555 1_555
C9 C8 1_555 1_555
C10 C9 1_555 1_555
H7 C10 1_555 1_555
C11 C6 1_555 1_555
H8 C11 1_555 1_555
C12 C13 1_555 1_555
C13 H9 1_555 1_555
C14 C13 1_555 1_555
H10 C14 1_555 1_555
C15 C14 1_555 1_555
C16 C15 1_555 1_555
C17 C16 1_555 1_555
H11 C17 1_555 1_555
C18 C17 1_555 1_555
H12 C18 1_555 1_555
C19 C20 1_555 1_555
C20 H13 1_555 1_555
Cd1 N2 1_555 1_555
N1 C9 1_555 1_555
N2 C1 1_555 1_555
N3 C18 1_555 1_555
O1 C19 1_555 1_555
O2 C19 1_555 1_555
C1A H1A 1_555 1_555
C2A C1A 1_555 1_555
H2A C2A 1_555 1_555
C3A C2A 1_555 1_555
C4A C3A 1_555 1_555
H3A C4A 1_555 1_555
C5A C4A 1_555 1_555
H4A C5A 1_555 1_555
C6A C3A 1_555 1_555
C7A C6A 1_555 1_555
H5A C7A 1_555 1_555
C8A C7A 1_555 1_555
H6A C8A 1_555 1_555
C9A N1 1_555 1_555
C10A C9A 1_555 1_555
H7A C10A 1_555 1_555
C11A C6A 1_555 1_555
H8A C11A 1_555 1_555
C13A C12 1_555 1_555
H9A C13A 1_555 1_555
C14A C15 1_555 1_555
H10A C14A 1_555 1_555
C17A C16 1_555 1_555
H11A C17A 1_555 1_555
C18A N3 1_555 1_555
H12A C18A 1_555 1_555
N2A C1A 1_555 1_555
C19F C20F 1_555 1_555
C20F C20 1_555 1_555
H13F C20F 1_555 1_555
O1F C19F 1_555 1_555
O2F C19F 1_555 1_555
Cd1_2 N2A 1_555 1_555
Cd1F N3 1_555 1_555
Cd1F_2 O1F 1_555 1_555
N2A_2 Cd1 1_555 1_555
N3F Cd1 1_555 1_555
O1A Cd1 1_555 1_555
O2A Cd1 1_555 1_555
C5 N2 1_555 1_555
C10 C11 1_555 1_555
C12 N1 1_555 1_555
Cd1 O1 1_555 1_555
Cd1 O2 1_555 1_555
C5A N2A 1_555 1_555
C8A C9A 1_555 1_555
C10A C11A 1_555 1_555
C13A C14A 1_555 1_555
C17A C18A 1_555 1_555
O2F Cd1F_2 1_555 1_555

#END
