
#######################################################################
#
#                 Cambridge Crystallographic Data Centre
#                                CCDC 
#
#######################################################################
#
# If this CIF has been generated from an entry in the Cambridge 
# Structural Database, then it will include bibliographic, chemical, 
# crystal, experimental, refinement or atomic coordinate data resulting 
# from the CCDC's data processing and validation procedures.
#
#######################################################################

data_RISCED
_symmetry_cell_setting           orthorhombic
_symmetry_space_group_name_H-M   'P c c a'
_symmetry_Int_Tables_number      54
_space_group_name_Hall           '-P 2a 2ac'
loop_
_symmetry_equiv_pos_site_id
_symmetry_equiv_pos_as_xyz
1 x,y,z
2 1/2-x,-y,z
3 1/2+x,-y,1/2-z
4 -x,y,1/2-z
5 -x,-y,-z
6 1/2+x,y,-z
7 1/2-x,y,1/2+z
8 x,-y,1/2+z
_cell_length_a                   19.407(7)
_cell_length_b                   13.628(5)
_cell_length_c                   16.307(6)
_cell_angle_alpha                90
_cell_angle_beta                 90
_cell_angle_gamma                90
_cell_volume                     4312.85
loop_
_atom_site_label
_atom_site_type_symbol
_atom_site_fract_x
_atom_site_fract_y
_atom_site_fract_z
Zn1 Zn 0.2500 0.0000 0.26236(4)
F1 F 0.3177(2) -0.5489(2) 0.6760(2)
F2 F 0.3711(2) -0.4850(2) 0.5749(3)
F3 F 0.3105(2) -0.3956(2) 0.6532(2)
O1 O 0.27688(17) -0.1352(2) 0.3013(2)
O2 O 0.19039(18) -0.0823(2) 0.3746(2)
N1 N 0.5000 0.2926(3) -0.2500
N2 N 0.32347(17) 0.0426(2) 0.1751(2)
N3 N 0.5000 0.9193(4) -0.2500
C1 C 0.3519(3) -0.0171(3) 0.1212(3)
H1 H 0.3462 -0.0842 0.1290
C2 C 0.3894(3) 0.0130(3) 0.0544(3)
H2 H 0.4082 -0.0329 0.0186
C3 C 0.3344(2) 0.1386(3) 0.1636(3)
H3 H 0.3160 0.1825 0.2013
C4 C 0.3715(2) 0.1753(3) 0.0987(3)
H4 H 0.3781 0.2426 0.0939
C5 C 0.3991(2) 0.1132(3) 0.0406(2)
C6 C 0.4335(2) 0.1525(3) -0.0330(2)
C7 C 0.42136(19) 0.1107(3) -0.1095(2)
H5 H 0.3970 0.0521 -0.1129
C8 C 0.4449(2) 0.1549(3) -0.1804(2)
H6 H 0.4364 0.1255 -0.2308
C9 C 0.4807(2) 0.2416(3) -0.1773(2)
C10 C 0.4970(2) 0.2813(3) -0.1005(3)
H7 H 0.5246 0.3370 -0.0970
C11 C 0.4724(2) 0.2381(3) -0.0303(2)
H8 H 0.4819 0.2667 0.0202
C12 C 0.4474(2) 0.4486(3) -0.2131(3)
H9 H 0.4114 0.4150 -0.1881
C13 C 0.5000 0.3972(4) -0.2500
C14 C 0.4479(2) 0.5506(3) -0.2132(3)
H10 H 0.4122 0.5844 -0.1877
C15 C 0.5000 0.6025(4) -0.2500
C16 C 0.5374(2) 0.7658(3) -0.3058(3)
H11 H 0.5638 0.7332 -0.3448
C17 C 0.5365(3) 0.8669(3) -0.3049(4)
H12 H 0.5623 0.9004 -0.3439
C18 C 0.2347(2) -0.1443(3) 0.3599(3)
C19 C 0.5000 0.7123(4) -0.2500
C20 C 0.2380(2) -0.2369(3) 0.4103(3)
C21 C 0.1942(3) -0.2484(3) 0.4763(3)
H13 H 0.1625 -0.1995 0.4888
C22 C 0.1973(3) -0.3327(3) 0.5243(3)
H14 H 0.1679 -0.3388 0.5691
C23 C 0.2425(2) -0.4066(3) 0.5071(3)
C24 C 0.2857(2) -0.3947(3) 0.4400(3)
H15 H 0.3163 -0.4446 0.4264
C25 C 0.2500 -0.5000 0.5606(4)
C26 C 0.3123(4) -0.4837(3) 0.6160(4)
C27 C 0.2843(2) -0.3100(3) 0.3926(3)
H16 H 0.3147 -0.3028 0.3490
F1A F 0.1823(2) -0.4511(2) 0.6760(2)
F2A F 0.1289(2) -0.5150(2) 0.5749(3)
F3A F 0.1895(2) -0.6044(2) 0.6532(2)
O1A O 0.22312(17) -0.8648(2) 0.3013(2)
O2A O 0.30961(18) -0.9177(2) 0.3746(2)
C18A C 0.2653(2) -0.8557(3) 0.3599(3)
C20A C 0.2620(2) -0.7631(3) 0.4103(3)
C21A C 0.3058(3) -0.7516(3) 0.4763(3)
H13A H 0.3375 -0.8005 0.4888
C22A C 0.3027(3) -0.6673(3) 0.5243(3)
H14A H 0.3321 -0.6612 0.5691
C23A C 0.2575(2) -0.5934(3) 0.5071(3)
C24A C 0.2143(2) -0.6053(3) 0.4400(3)
H15A H 0.1837 -0.5554 0.4264
C26A C 0.1877(4) -0.5163(3) 0.6160(4)
C27A C 0.2157(2) -0.6900(3) 0.3926(3)
H16A H 0.1853 -0.6972 0.3490
N2C N 0.67653(17) 0.0426(2) -0.6751(2)
C1C C 0.6481(3) -0.0171(3) -0.6212(3)
H1C H 0.6538 -0.0842 -0.6290
C2C C 0.6106(3) 0.0130(3) -0.5544(3)
H2C H 0.5918 -0.0329 -0.5186
C3C C 0.6656(2) 0.1386(3) -0.6636(3)
H3C H 0.6840 0.1825 -0.7013
C4C C 0.6285(2) 0.1753(3) -0.5987(3)
H4C H 0.6219 0.2426 -0.5939
C5C C 0.6009(2) 0.1132(3) -0.5406(2)
C6C C 0.5665(2) 0.1525(3) -0.4670(2)
C7C C 0.57864(19) 0.1107(3) -0.3905(2)
H5C H 0.6030 0.0521 -0.3871
C8C C 0.5551(2) 0.1549(3) -0.3196(2)
H6C H 0.5636 0.1255 -0.2692
C9C C 0.5193(2) 0.2416(3) -0.3227(2)
C10C C 0.5030(2) 0.2813(3) -0.3995(3)
H7C H 0.4754 0.3370 -0.4030
C11C C 0.5276(2) 0.2381(3) -0.4697(2)
H8C H 0.5181 0.2667 -0.5202
C12C C 0.5526(2) 0.4486(3) -0.2869(3)
H9C H 0.5886 0.4150 -0.3119
C14C C 0.5521(2) 0.5506(3) -0.2868(3)
H10C H 0.5878 0.5844 -0.3123
C16C C 0.4626(2) 0.7658(3) -0.1942(3)
H11C H 0.4362 0.7332 -0.1552
C17C C 0.4635(3) 0.8669(3) -0.1951(4)
H12C H 0.4377 0.9004 -0.1561
Zn1_2 Zn 0.2500 -1.0000 0.26236(4)
Zn1B Zn 0.7500 0.0000 -0.76236(4)
O1A_2 O 0.22312(17) 0.1352(2) 0.3013(2)
O2A_2 O 0.30961(18) 0.0823(2) 0.3746(2)
N2A N 0.17653(17) -0.0426(2) 0.1751(2)
loop_
_geom_bond_atom_site_label_1
_geom_bond_atom_site_label_2
_geom_bond_site_symmetry_1
_geom_bond_site_symmetry_2
Zn1 O1 1_555 1_555
F1 C26 1_555 1_555
F2 C26 1_555 1_555
F3 C26 1_555 1_555
O1 C18 1_555 1_555
O2 Zn1 1_555 1_555
N1 C9 1_555 1_555
N2 Zn1 1_555 1_555
N3 C17 1_555 1_555
C1 N2 1_555 1_555
H1 C1 1_555 1_555
C2 C1 1_555 1_555
H2 C2 1_555 1_555
C3 N2 1_555 1_555
H3 C3 1_555 1_555
C4 C3 1_555 1_555
H4 C4 1_555 1_555
C5 C2 1_555 1_555
C6 C5 1_555 1_555
C7 C6 1_555 1_555
H5 C7 1_555 1_555
C8 C7 1_555 1_555
H6 C8 1_555 1_555
C9 C8 1_555 1_555
C10 C9 1_555 1_555
H7 C10 1_555 1_555
C11 C6 1_555 1_555
H8 C11 1_555 1_555
C12 H9 1_555 1_555
C13 N1 1_555 1_555
C14 C12 1_555 1_555
H10 C14 1_555 1_555
C15 C14 1_555 1_555
C16 H11 1_555 1_555
C17 C16 1_555 1_555
H12 C17 1_555 1_555
C18 O2 1_555 1_555
C19 C15 1_555 1_555
C20 C18 1_555 1_555
C21 C20 1_555 1_555
H13 C21 1_555 1_555
C22 C21 1_555 1_555
H14 C22 1_555 1_555
C23 C22 1_555 1_555
C24 C23 1_555 1_555
H15 C24 1_555 1_555
C25 C23 1_555 1_555
C26 C25 1_555 1_555
C27 C20 1_555 1_555
H16 C27 1_555 1_555
F1A C26A 1_555 1_555
F2A C26A 1_555 1_555
F3A C26A 1_555 1_555
O1A C18A 1_555 1_555
O2A C18A 1_555 1_555
C18A C20A 1_555 1_555
C20A C21A 1_555 1_555
C21A H13A 1_555 1_555
C22A C21A 1_555 1_555
H14A C22A 1_555 1_555
C23A C25 1_555 1_555
C24A C23A 1_555 1_555
H15A C24A 1_555 1_555
C26A C25 1_555 1_555
C27A C20A 1_555 1_555
H16A C27A 1_555 1_555
N2C C1C 1_555 1_555
C1C H1C 1_555 1_555
C2C C1C 1_555 1_555
H2C C2C 1_555 1_555
C3C N2C 1_555 1_555
H3C C3C 1_555 1_555
C4C C3C 1_555 1_555
H4C C4C 1_555 1_555
C5C C2C 1_555 1_555
C6C C5C 1_555 1_555
C7C C6C 1_555 1_555
H5C C7C 1_555 1_555
C8C C7C 1_555 1_555
H6C C8C 1_555 1_555
C9C N1 1_555 1_555
C10C C9C 1_555 1_555
H7C C10C 1_555 1_555
C11C C6C 1_555 1_555
H8C C11C 1_555 1_555
C12C C13 1_555 1_555
H9C C12C 1_555 1_555
C14C C15 1_555 1_555
H10C C14C 1_555 1_555
C16C C19 1_555 1_555
H11C C16C 1_555 1_555
C17C N3 1_555 1_555
H12C C17C 1_555 1_555
Zn1_2 O1A 1_555 1_555
Zn1B N2C 1_555 1_555
O1A_2 Zn1 1_555 1_555
O2A_2 Zn1 1_555 1_555
N2A Zn1 1_555 1_555
C4 C5 1_555 1_555
C10 C11 1_555 1_555
C12 C13 1_555 1_555
C16 C19 1_555 1_555
C24 C27 1_555 1_555
O2A Zn1_2 1_555 1_555
C22A C23A 1_555 1_555
C24A C27A 1_555 1_555
C4C C5C 1_555 1_555
C8C C9C 1_555 1_555
C10C C11C 1_555 1_555
C12C C14C 1_555 1_555
C16C C17C 1_555 1_555

#END
