
#######################################################################
#
#                 Cambridge Crystallographic Data Centre
#                                CCDC 
#
#######################################################################
#
# If this CIF has been generated from an entry in the Cambridge 
# Structural Database, then it will include bibliographic, chemical, 
# crystal, experimental, refinement or atomic coordinate data resulting 
# from the CCDC's data processing and validation procedures.
#
#######################################################################

data_RISHUY
_symmetry_cell_setting           monoclinic
_symmetry_space_group_name_H-M   'P 21/n'
_symmetry_Int_Tables_number      14
_space_group_name_Hall           '-P 2yn'
loop_
_symmetry_equiv_pos_site_id
_symmetry_equiv_pos_as_xyz
1 x,y,z
2 1/2-x,1/2+y,1/2-z
3 -x,-y,-z
4 1/2+x,1/2-y,1/2+z
_cell_length_a                   8.57285(25)
_cell_length_b                   32.7643(13)
_cell_length_c                   5.30405(13)
_cell_angle_alpha                90
_cell_angle_beta                 105.6930(29)
_cell_angle_gamma                90
_cell_volume                     1434.29
loop_
_atom_site_label
_atom_site_type_symbol
_atom_site_fract_x
_atom_site_fract_y
_atom_site_fract_z
Zr1 Zr 0.82312(33) 0.05732(10) 0.6739(6)
F1 F 0.6131(11) 0.07726(35) 0.5826(22)
O1 O 0.5032(16) -0.1963(4) 0.8758(29)
O2 O 0.7504(15) -0.1699(4) 1.1029(28)
C1 C 0.6094(15) -0.1637(4) 0.980(4)
C2 C 0.5410(17) -0.1223(5) 0.984(4)
N1 N 0.6680(17) -0.0933(4) 1.1277(29)
C3 C 0.6110(16) -0.0482(5) 1.0484(29)
P1 P 0.7782(6) -0.00932(19) 1.1726(13)
O3 O 0.7705(14) 0.0233(4) 0.9534(21)
O4 O 0.9419(13) -0.0346(4) 1.2248(26)
O5 O 0.7587(14) 0.01234(32) 1.4038(22)
O6 O 0.8771(16) 0.2502(4) 0.8356(27)
O7 O 0.7611(16) 0.1974(4) 0.6855(26)
C4 C 0.8082(20) 0.2273(4) 0.6409(25)
C5 C 0.8404(20) 0.2323(4) 0.3760(34)
N2 N 0.8185(13) 0.1969(5) 0.2490(30)
C6 C 0.9863(15) 0.1792(4) 0.264(4)
P2 P 0.9970(7) 0.11628(20) 0.2384(14)
O8 O 0.8969(14) 0.0964(4) 0.4169(22)
O9 O 0.9169(13) 0.10384(35) -0.0342(23)
O10 O 1.1903(15) 0.1009(4) 0.3342(31)
Zr1_2 Zr 0.82312(33) 0.05732(10) -0.3261(6)
Zr1_3 Zr 0.82312(33) 0.05732(10) 1.6739(6)
Zr1B Zr 1.17688(33) -0.05732(10) 1.3261(6)
O4B O 1.0581(13) 0.0346(4) 0.7752(26)
O5_2 O 0.7587(14) 0.01234(32) 0.4038(22)
O9_2 O 0.9169(13) 0.10384(35) 0.9658(23)
loop_
_geom_bond_atom_site_label_1
_geom_bond_atom_site_label_2
_geom_bond_site_symmetry_1
_geom_bond_site_symmetry_2
Zr1 F1 1_555 1_555
O1 C1 1_555 1_555
O2 C1 1_555 1_555
C1 C2 1_555 1_555
C2 N1 1_555 1_555
N1 C3 1_555 1_555
C3 P1 1_555 1_555
P1 O3 1_555 1_555
O3 Zr1 1_555 1_555
O4 P1 1_555 1_555
O5 P1 1_555 1_555
O6 C4 1_555 1_555
O7 C4 1_555 1_555
C4 C5 1_555 1_555
C5 N2 1_555 1_555
N2 C6 1_555 1_555
C6 P2 1_555 1_555
P2 O8 1_555 1_555
O8 Zr1 1_555 1_555
O9 P2 1_555 1_555
O10 P2 1_555 1_555
Zr1_2 O9 1_555 1_555
Zr1_3 O5 1_555 1_555
Zr1B O4 1_555 1_555
O4B Zr1 1_555 1_555
O5_2 Zr1 1_555 1_555
O9_2 Zr1 1_555 1_555

#END
