
#######################################################################
#
#                 Cambridge Crystallographic Data Centre
#                                CCDC 
#
#######################################################################
#
# If this CIF has been generated from an entry in the Cambridge 
# Structural Database, then it will include bibliographic, chemical, 
# crystal, experimental, refinement or atomic coordinate data resulting 
# from the CCDC's data processing and validation procedures.
#
#######################################################################

data_RISJUZ01
_symmetry_cell_setting           monoclinic
_symmetry_space_group_name_H-M   'P 21/c'
_symmetry_Int_Tables_number      14
_space_group_name_Hall           '-P 2ybc'
loop_
_symmetry_equiv_pos_site_id
_symmetry_equiv_pos_as_xyz
1 x,y,z
2 -x,1/2+y,1/2-z
3 -x,-y,-z
4 x,1/2-y,1/2+z
_cell_length_a                   12.3925(4)
_cell_length_b                   11.0668(4)
_cell_length_c                   15.1449(5)
_cell_angle_alpha                90
_cell_angle_beta                 103.680(2)
_cell_angle_gamma                90
_cell_volume                     2018.13
loop_
_atom_site_label
_atom_site_type_symbol
_atom_site_fract_x
_atom_site_fract_y
_atom_site_fract_z
Sn1 Sn 0.004495(17) 0.224686(19) 0.211349(14)
S1 S 0.21752(8) 0.05958(9) 0.01458(7)
O1 O 0.04407(18) 0.07100(18) 0.13250(14)
O2 O 0.01902(19) -0.0846(2) 0.21801(15)
C1 C -0.1681(3) 0.1815(3) 0.1874(3)
H1 H -0.1834 0.1125 0.1446
H2 H -0.1835 0.1541 0.2455
C2 C -0.2485(3) 0.2817(4) 0.1497(3)
H3 H -0.2301 0.3141 0.0942
H4 H -0.2390 0.3479 0.1948
C3 C -0.3689(3) 0.2420(4) 0.1268(3)
H5 H -0.3798 0.1816 0.0773
H6 H -0.3849 0.2017 0.1807
C4 C -0.4513(4) 0.3436(5) 0.0979(4)
H7 H -0.5267 0.3103 0.0809
H8 H -0.4349 0.3859 0.0458
H9 H -0.4458 0.4004 0.1484
C5 C 0.0490(3) 0.3423(3) 0.1146(2)
H10 H 0.0450 0.2961 0.0580
H11 H -0.0073 0.4074 0.1003
C6 C 0.1632(3) 0.4009(3) 0.1422(2)
H12 H 0.1730 0.4351 0.2040
H13 H 0.2204 0.3377 0.1451
C7 C 0.1824(3) 0.5001(3) 0.0786(2)
H14 H 0.1689 0.4672 0.0162
H15 H 0.1281 0.5657 0.0784
C8 C 0.2979(4) 0.5521(4) 0.1044(3)
H16 H 0.3030 0.6210 0.0649
H17 H 0.3517 0.4902 0.0972
H18 H 0.3142 0.5790 0.1678
C9 C 0.1131(3) 0.1733(3) 0.3380(2)
H19 H 0.0840 0.2083 0.3878
H20 H 0.1104 0.0842 0.3435
C10 C 0.2344(3) 0.2111(3) 0.3518(2)
H21 H 0.2375 0.2994 0.3424
H22 H 0.2736 0.1939 0.4155
C11 C 0.2954(3) 0.1480(3) 0.2887(3)
H23 H 0.2972 0.0601 0.3010
H24 H 0.2539 0.1607 0.2251
C12 C 0.4131(4) 0.1931(5) 0.2997(3)
H25 H 0.4493 0.1474 0.2593
H26 H 0.4544 0.1820 0.3628
H27 H 0.4117 0.2790 0.2839
C13 C 0.0536(2) -0.0401(3) 0.1545(2)
C14 C 0.1099(3) -0.1180(3) 0.0961(2)
H28 H 0.1256 -0.1984 0.1248
H29 H 0.0582 -0.1296 0.0359
C15 C 0.2166(3) -0.0648(3) 0.0826(2)
C16 C 0.3235(3) -0.1038(3) 0.1205(3)
H30 H 0.3411 -0.1709 0.1604
C17 C 0.4048(3) -0.0302(4) 0.0922(3)
H31 H 0.4826 -0.0431 0.1116
C18 C 0.3584(3) 0.0594(4) 0.0350(3)
H32 H 0.3999 0.1158 0.0092
Sn1A Sn -0.004495(17) -0.275314(19) 0.288651(14)
O2A O -0.01902(19) 0.4154(2) 0.28199(15)
loop_
_geom_bond_atom_site_label_1
_geom_bond_atom_site_label_2
_geom_bond_site_symmetry_1
_geom_bond_site_symmetry_2
Sn1 O1 1_555 1_555
S1 C15 1_555 1_555
O1 C13 1_555 1_555
O2 C13 1_555 1_555
C1 Sn1 1_555 1_555
H1 C1 1_555 1_555
H2 C1 1_555 1_555
C2 C1 1_555 1_555
H3 C2 1_555 1_555
H4 C2 1_555 1_555
C3 C2 1_555 1_555
H5 C3 1_555 1_555
H6 C3 1_555 1_555
C4 C3 1_555 1_555
H7 C4 1_555 1_555
H8 C4 1_555 1_555
H9 C4 1_555 1_555
C5 Sn1 1_555 1_555
H10 C5 1_555 1_555
H11 C5 1_555 1_555
C6 C5 1_555 1_555
H12 C6 1_555 1_555
H13 C6 1_555 1_555
C7 C6 1_555 1_555
H14 C7 1_555 1_555
H15 C7 1_555 1_555
C8 C7 1_555 1_555
H16 C8 1_555 1_555
H17 C8 1_555 1_555
H18 C8 1_555 1_555
C9 Sn1 1_555 1_555
H19 C9 1_555 1_555
H20 C9 1_555 1_555
C10 C9 1_555 1_555
H21 C10 1_555 1_555
H22 C10 1_555 1_555
C11 C10 1_555 1_555
H23 C11 1_555 1_555
H24 C11 1_555 1_555
C12 C11 1_555 1_555
H25 C12 1_555 1_555
H26 C12 1_555 1_555
H27 C12 1_555 1_555
C13 C14 1_555 1_555
C14 H28 1_555 1_555
H29 C14 1_555 1_555
C15 C14 1_555 1_555
C16 C15 1_555 1_555
H30 C16 1_555 1_555
C17 C16 1_555 1_555
H31 C17 1_555 1_555
C18 S1 1_555 1_555
H32 C18 1_555 1_555
Sn1A O2 1_555 1_555
O2A Sn1 1_555 1_555
C17 C18 1_555 1_555

#END
