
#######################################################################
#
#                 Cambridge Crystallographic Data Centre
#                                CCDC 
#
#######################################################################
#
# If this CIF has been generated from an entry in the Cambridge 
# Structural Database, then it will include bibliographic, chemical, 
# crystal, experimental, refinement or atomic coordinate data resulting 
# from the CCDC's data processing and validation procedures.
#
#######################################################################

data_RISJOT
_symmetry_cell_setting           orthorhombic
_symmetry_space_group_name_H-M   'P 21 21 21'
_symmetry_Int_Tables_number      19
_space_group_name_Hall           'P 2ac 2ab'
loop_
_symmetry_equiv_pos_site_id
_symmetry_equiv_pos_as_xyz
1 x,y,z
2 1/2-x,-y,1/2+z
3 1/2+x,1/2-y,-z
4 -x,1/2+y,1/2-z
_cell_length_a                   7.2340(4)
_cell_length_b                   11.7610(5)
_cell_length_c                   18.9130(10)
_cell_angle_alpha                90
_cell_angle_beta                 90
_cell_angle_gamma                90
_cell_volume                     1609.1
loop_
_atom_site_label
_atom_site_type_symbol
_atom_site_fract_x
_atom_site_fract_y
_atom_site_fract_z
Ag1 Ag 0.57509(5) 0.32306(3) 0.368222(17)
C1 C 0.1920(5) 0.5165(3) 0.4190(2)
C2 C 0.1248(6) 0.6189(4) 0.3919(2)
H1 H 0.0045 0.6211 0.3746
C3 C 0.2286(7) 0.7160(4) 0.3898(2)
C4 C 0.4079(8) 0.7131(4) 0.4174(2)
C5 C 0.4746(6) 0.6123(4) 0.4454(2)
H2 H 0.5927 0.6113 0.4647
C6 C 0.3719(5) 0.5128(3) 0.4457(2)
C7 C 0.5321(8) 0.8154(5) 0.4164(3)
H3 H 0.4744 0.8765 0.4418
H4 H 0.5535 0.8383 0.3684
H5 H 0.6478 0.7967 0.4384
C8 C 0.1486(9) 0.8237(4) 0.3565(3)
H6 H 0.1767 0.8879 0.3859
H7 H 0.0169 0.8160 0.3521
H8 H 0.2018 0.8347 0.3105
C9 C 0.3884(6) 0.1510(4) 0.2665(2)
H9 H 0.2963 0.2058 0.2704
C10 C 0.3556(7) 0.0582(4) 0.2262(3)
H10 H 0.2415 0.0505 0.2040
C11 C 0.6419(6) -0.0062(4) 0.2511(2)
H11 H 0.7349 -0.0602 0.2459
C12 C 0.6755(6) 0.0873(4) 0.2934(2)
C13 C 0.8545(8) 0.1001(6) 0.3321(4)
H12 H 0.8528 0.1694 0.3590
H13 H 0.9545 0.1024 0.2988
H14 H 0.8712 0.0368 0.3635
N1 N 0.4536(5) 0.4089(3) 0.46717(18)
N2 N 0.5462(5) 0.1673(3) 0.30075(16)
N3 N 0.4829(5) -0.0226(3) 0.21749(19)
O1 O 0.1454(4) 0.3189(3) 0.36351(17)
O2 O 0.0582(5) 0.3433(3) 0.48525(17)
O3 O -0.1281(4) 0.4287(3) 0.3932(2)
S1 S 0.05493(14) 0.39276(9) 0.41453(6)
H15 H 0.539(7) 0.421(4) 0.495(2)
H16 H 0.383(6) 0.362(3) 0.485(2)
Ag1C Ag 0.42491(5) -0.17694(3) 0.131778(17)
Ag1_2 Ag -0.42491(5) 0.32306(3) 0.368222(17)
N3C N 0.5171(5) 0.4774(3) 0.28251(19)
O3_2 O 0.8719(4) 0.4287(3) 0.3932(2)
O4 O -0.2470(5) 0.4027(3) 0.57266(16)
loop_
_geom_bond_atom_site_label_1
_geom_bond_atom_site_label_2
_geom_bond_site_symmetry_1
_geom_bond_site_symmetry_2
Ag1 N1 1_555 1_555
C1 C2 1_555 1_555
C2 H1 1_555 1_555
C3 C2 1_555 1_555
C4 C3 1_555 1_555
C5 C4 1_555 1_555
H2 C5 1_555 1_555
C6 C1 1_555 1_555
C7 C4 1_555 1_555
H3 C7 1_555 1_555
H4 C7 1_555 1_555
H5 C7 1_555 1_555
C8 C3 1_555 1_555
H6 C8 1_555 1_555
H7 C8 1_555 1_555
H8 C8 1_555 1_555
C9 H9 1_555 1_555
C10 C9 1_555 1_555
H10 C10 1_555 1_555
C11 H11 1_555 1_555
C12 C11 1_555 1_555
C13 C12 1_555 1_555
H12 C13 1_555 1_555
H13 C13 1_555 1_555
H14 C13 1_555 1_555
N1 C6 1_555 1_555
N2 Ag1 1_555 1_555
N3 C10 1_555 1_555
O1 S1 1_555 1_555
O2 S1 1_555 1_555
O3 S1 1_555 1_555
S1 C1 1_555 1_555
H15 N1 1_555 1_555
H16 N1 1_555 1_555
Ag1C N3 1_555 1_555
Ag1_2 O3 1_555 1_555
N3C Ag1 1_555 1_555
O3_2 Ag1 1_555 1_555
C5 C6 1_555 1_555
C9 N2 1_555 1_555
C11 N3 1_555 1_555
C12 N2 1_555 1_555

#END
