
#######################################################################
#
#                 Cambridge Crystallographic Data Centre
#                                CCDC 
#
#######################################################################
#
# If this CIF has been generated from an entry in the Cambridge 
# Structural Database, then it will include bibliographic, chemical, 
# crystal, experimental, refinement or atomic coordinate data resulting 
# from the CCDC's data processing and validation procedures.
#
#######################################################################

data_RISKOT
_symmetry_cell_setting           orthorhombic
_symmetry_space_group_name_H-M   'P 21 21 21'
_symmetry_Int_Tables_number      19
_space_group_name_Hall           'P 2ac 2ab'
loop_
_symmetry_equiv_pos_site_id
_symmetry_equiv_pos_as_xyz
1 x,y,z
2 1/2-x,-y,1/2+z
3 1/2+x,1/2-y,-z
4 -x,1/2+y,1/2-z
_cell_length_a                   10.9671(4)
_cell_length_b                   11.8140(5)
_cell_length_c                   13.7591(5)
_cell_angle_alpha                90
_cell_angle_beta                 90
_cell_angle_gamma                90
_cell_volume                     1782.7
loop_
_atom_site_label
_atom_site_type_symbol
_atom_site_fract_x
_atom_site_fract_y
_atom_site_fract_z
Sn1 Sn 0.156856(16) 0.132045(15) -0.101220(14)
Cl1 Cl 0.11220(9) -0.02712(8) -0.22035(7)
P1 P 0.22371(6) 0.36652(7) 0.08312(5)
O1 O 0.1916(2) 0.2714(2) 0.01629(18)
C1 C 0.2946(3) 0.0401(3) -0.0273(3)
H1 H 0.3568 0.0913 -0.0054
H2 H 0.3299 -0.0145 -0.0707
H3 H 0.2596 0.0018 0.0276
C2 C 0.1991(4) 0.2534(3) -0.2095(3)
H4 H 0.2638 0.3013 -0.1869
H5 H 0.1283 0.2984 -0.2229
H6 H 0.2245 0.2153 -0.2677
C3 C 0.4736(2) 0.3654(3) 0.0480(2)
H7 H 0.4590 0.4338 0.0108
H8 H 0.4641 0.3015 0.0044
C4 C 0.3781(2) 0.3570(3) 0.1283(2)
H9 H 0.3916 0.4173 0.1749
H10 H 0.3881 0.2855 0.1620
C5 C 0.1272(2) 0.3670(3) 0.1894(2)
C6 C 0.1083(4) 0.2674(4) 0.2398(3)
H11 H 0.1449 0.2007 0.2190
C7 C 0.0339(5) 0.2675(5) 0.3225(3)
H12 H 0.0214 0.2004 0.3565
C8 C -0.0195(4) 0.3629(5) 0.3534(3)
H13 H -0.0711 0.3611 0.4070
C9 C 0.0007(5) 0.4594(5) 0.3079(3)
H14 H -0.0335 0.5260 0.3314
C10 C 0.0733(5) 0.4619(4) 0.2246(3)
H15 H 0.0849 0.5303 0.1924
C11 C 0.2053(2) 0.5019(3) 0.0260(2)
C12 C 0.2714(3) 0.5967(3) 0.0529(2)
H16 H 0.3293 0.5909 0.1020
C13 C 0.2528(4) 0.6984(3) 0.0084(3)
H17 H 0.2992 0.7607 0.0267
C14 C 0.1662(5) 0.7098(3) -0.0630(3)
H18 H 0.1535 0.7795 -0.0927
C15 C 0.0987(4) 0.6171(4) -0.0902(2)
H19 H 0.0397 0.6246 -0.1383
C16 C 0.1174(3) 0.5123(3) -0.0468(2)
H20 H 0.0719 0.4498 -0.0661
C3B C -0.0264(2) 0.1346(3) -0.0480(2)
Sn1B Sn 0.656856(16) 0.367955(15) 0.101220(14)
H7B H -0.0410 0.0662 -0.0108
H8B H -0.0359 0.1985 -0.0044
loop_
_geom_bond_atom_site_label_1
_geom_bond_atom_site_label_2
_geom_bond_site_symmetry_1
_geom_bond_site_symmetry_2
Sn1 Cl1 1_555 1_555
P1 O1 1_555 1_555
O1 Sn1 1_555 1_555
C1 Sn1 1_555 1_555
H1 C1 1_555 1_555
H2 C1 1_555 1_555
H3 C1 1_555 1_555
C2 Sn1 1_555 1_555
H4 C2 1_555 1_555
H5 C2 1_555 1_555
H6 C2 1_555 1_555
C3 H7 1_555 1_555
H8 C3 1_555 1_555
C4 P1 1_555 1_555
H9 C4 1_555 1_555
H10 C4 1_555 1_555
C5 P1 1_555 1_555
C6 C5 1_555 1_555
H11 C6 1_555 1_555
C7 C6 1_555 1_555
H12 C7 1_555 1_555
C8 C7 1_555 1_555
H13 C8 1_555 1_555
C9 C8 1_555 1_555
H14 C9 1_555 1_555
C10 C5 1_555 1_555
H15 C10 1_555 1_555
C11 P1 1_555 1_555
C12 C11 1_555 1_555
H16 C12 1_555 1_555
C13 C12 1_555 1_555
H17 C13 1_555 1_555
C14 C13 1_555 1_555
H18 C14 1_555 1_555
C15 C14 1_555 1_555
H19 C15 1_555 1_555
C16 C11 1_555 1_555
H20 C16 1_555 1_555
C3B Sn1 1_555 1_555
Sn1B C3 1_555 1_555
H7B C3B 1_555 1_555
H8B C3B 1_555 1_555
C3 C4 1_555 1_555
C9 C10 1_555 1_555
C15 C16 1_555 1_555

#END
