
#######################################################################
#
#                 Cambridge Crystallographic Data Centre
#                                CCDC 
#
#######################################################################
#
# If this CIF has been generated from an entry in the Cambridge 
# Structural Database, then it will include bibliographic, chemical, 
# crystal, experimental, refinement or atomic coordinate data resulting 
# from the CCDC's data processing and validation procedures.
#
#######################################################################

data_RISKUA
_symmetry_cell_setting           orthorhombic
_symmetry_space_group_name_H-M   'P 21 21 21'
_symmetry_Int_Tables_number      19
_space_group_name_Hall           'P 2ac 2ab'
loop_
_symmetry_equiv_pos_site_id
_symmetry_equiv_pos_as_xyz
1 x,y,z
2 1/2-x,-y,1/2+z
3 -x,1/2+y,1/2-z
4 1/2+x,1/2-y,-z
_cell_length_a                   5.6238(6)
_cell_length_b                   15.3174(16)
_cell_length_c                   17.4404(16)
_cell_angle_alpha                90
_cell_angle_beta                 90
_cell_angle_gamma                90
_cell_volume                     1502.35
loop_
_atom_site_label
_atom_site_type_symbol
_atom_site_fract_x
_atom_site_fract_y
_atom_site_fract_z
Cu1 Cu 0.25711(11) 0.97944(3) 0.87637(2)
O1 O 0.2678(6) 0.9836(2) 0.76609(13)
O2 O -0.1160(6) 0.9684(3) 0.74117(16)
O3 O 0.6212(6) 0.9782(3) 0.50624(16)
O4 O 0.2510(6) 1.02406(18) 0.48704(12)
O5 O 0.6495(5) 0.9721(2) 0.87740(15)
H1 H 0.7218 0.9792 0.8313
H2 H 0.7522 0.9928 0.9109
N1 N 0.2274(7) 0.8475(2) 0.87281(18)
N2 N 0.2434(7) 1.1119(2) 0.87979(17)
C1 C 0.0911(8) 0.9761(3) 0.7220(2)
C2 C 0.1466(8) 0.9824(3) 0.6380(2)
H3 H 0.0221 0.9820 0.6030
C3 C 0.3656(9) 0.9883(3) 0.6126(2)
H4 H 0.4903 0.9872 0.6476
C4 C 0.4217(9) 0.9968(2) 0.5281(2)
C5 C 0.0718(10) 0.8032(4) 0.9141(3)
H5 H -0.0377 0.8337 0.9438
C6 C 0.0664(13) 0.7118(4) 0.9146(4)
H6 H -0.0454 0.6822 0.9440
C7 C 0.2251(13) 0.6674(4) 0.8719(4)
H7 H 0.2249 0.6067 0.8716
C8 C 0.3846(13) 0.7123(4) 0.8294(4)
H8 H 0.4958 0.6827 0.7998
C9 C 0.3818(11) 0.8019(4) 0.8303(3)
H9 H 0.4911 0.8320 0.8003
C10 C 0.0860(10) 1.1570(3) 0.8377(3)
H10 H -0.0264 1.1269 0.8088
C11 C 0.0874(12) 1.2476(4) 0.8363(4)
H11 H -0.0234 1.2776 0.8067
C12 C 0.2507(12) 1.2924(3) 0.8781(3)
H12 H 0.2544 1.3530 0.8771
C13 C 0.4077(11) 1.2468(4) 0.9211(4)
H13 H 0.5201 1.2761 0.9505
C14 C 0.4004(9) 1.1567(3) 0.9211(3)
H14 H 0.5091 1.1262 0.9511
Cu1A Cu 0.24289(11) 1.02056(3) 0.37637(2)
O4A O 0.2490(6) 0.97594(18) 0.98704(12)
loop_
_geom_bond_atom_site_label_1
_geom_bond_atom_site_label_2
_geom_bond_site_symmetry_1
_geom_bond_site_symmetry_2
Cu1 O1 1_555 1_555
O1 C1 1_555 1_555
O2 C1 1_555 1_555
O3 C4 1_555 1_555
O4 C4 1_555 1_555
O5 Cu1 1_555 1_555
H1 O5 1_555 1_555
H2 O5 1_555 1_555
N1 Cu1 1_555 1_555
N2 Cu1 1_555 1_555
C1 C2 1_555 1_555
C2 H3 1_555 1_555
C3 C2 1_555 1_555
H4 C3 1_555 1_555
C4 C3 1_555 1_555
C5 N1 1_555 1_555
H5 C5 1_555 1_555
C6 C5 1_555 1_555
H6 C6 1_555 1_555
C7 C6 1_555 1_555
H7 C7 1_555 1_555
C8 C7 1_555 1_555
H8 C8 1_555 1_555
C9 N1 1_555 1_555
H9 C9 1_555 1_555
C10 N2 1_555 1_555
H10 C10 1_555 1_555
C11 C10 1_555 1_555
H11 C11 1_555 1_555
C12 C11 1_555 1_555
H12 C12 1_555 1_555
C13 C12 1_555 1_555
H13 C13 1_555 1_555
C14 N2 1_555 1_555
H14 C14 1_555 1_555
Cu1A O4 1_555 1_555
O4A Cu1 1_555 1_555
C8 C9 1_555 1_555
C13 C14 1_555 1_555

#END
