
#######################################################################
#
#                 Cambridge Crystallographic Data Centre
#                                CCDC 
#
#######################################################################
#
# If this CIF has been generated from an entry in the Cambridge 
# Structural Database, then it will include bibliographic, chemical, 
# crystal, experimental, refinement or atomic coordinate data resulting 
# from the CCDC's data processing and validation procedures.
#
#######################################################################

data_RISLAG
_symmetry_cell_setting           orthorhombic
_symmetry_space_group_name_H-M   'P 21 21 21'
_symmetry_Int_Tables_number      19
_space_group_name_Hall           'P 2ac 2ab'
loop_
_symmetry_equiv_pos_site_id
_symmetry_equiv_pos_as_xyz
1 x,y,z
2 1/2-x,-y,1/2+z
3 1/2+x,1/2-y,-z
4 -x,1/2+y,1/2-z
_cell_length_a                   10.8817(5)
_cell_length_b                   11.8135(5)
_cell_length_c                   13.9015(5)
_cell_angle_alpha                90
_cell_angle_beta                 90
_cell_angle_gamma                90
_cell_volume                     1787.05
loop_
_atom_site_label
_atom_site_type_symbol
_atom_site_fract_x
_atom_site_fract_y
_atom_site_fract_z
Sn1 Sn 0.15889(2) 0.13960(2) -0.098418(18)
Br1 Br 0.11668(5) -0.02805(4) -0.22852(3)
P1 P 0.22210(9) 0.36925(8) 0.08524(7)
O1 O 0.1855(3) 0.2764(2) 0.0184(2)
C1 C 0.2973(5) 0.0466(4) -0.0257(4)
H1 H 0.3567 0.0979 0.0007
H2 H 0.3370 -0.0037 -0.0702
H3 H 0.2607 0.0033 0.0252
C2 C 0.2038(6) 0.2611(4) -0.2049(3)
H4 H 0.2742 0.3037 -0.1845
H5 H 0.1355 0.3114 -0.2140
H6 H 0.2220 0.2233 -0.2643
C3 C 0.4721(3) 0.3639(4) 0.0487(3)
H7 H 0.4585 0.4341 0.0140
H8 H 0.4600 0.3021 0.0038
C4 C 0.3774(3) 0.3545(4) 0.1283(3)
H9 H 0.3933 0.4127 0.1760
H10 H 0.3861 0.2816 0.1595
C5 C 0.1255(3) 0.3701(4) 0.1908(3)
C6 C 0.1073(6) 0.2708(4) 0.2401(4)
H11 H 0.1420 0.2035 0.2184
C7 C 0.0357(6) 0.2726(5) 0.3236(4)
H12 H 0.0262 0.2064 0.3590
C8 C -0.0195(5) 0.3675(6) 0.3535(4)
H13 H -0.0710 0.3655 0.4068
C9 C -0.0013(7) 0.4640(6) 0.3078(4)
H14 H -0.0371 0.5306 0.3298
C10 C 0.0720(6) 0.4641(5) 0.2264(4)
H15 H 0.0850 0.5324 0.1948
C11 C 0.2078(4) 0.5055(3) 0.0299(3)
C12 C 0.2762(4) 0.5982(3) 0.0593(3)
H16 H 0.3340 0.5906 0.1082
C13 C 0.2584(5) 0.7017(4) 0.0158(4)
H17 H 0.3036 0.7638 0.0368
C14 C 0.1777(6) 0.7149(4) -0.0558(3)
H18 H 0.1691 0.7849 -0.0857
C15 C 0.1077(5) 0.6249(5) -0.0850(3)
H19 H 0.0493 0.6348 -0.1331
C16 C 0.1232(4) 0.5202(4) -0.0438(3)
H20 H 0.0768 0.4591 -0.0653
C3B C -0.0279(3) 0.1361(4) -0.0487(3)
Sn1B Sn 0.65889(2) 0.36040(2) 0.098418(18)
H7B H -0.0415 0.0659 -0.0140
H8B H -0.0400 0.1979 -0.0038
loop_
_geom_bond_atom_site_label_1
_geom_bond_atom_site_label_2
_geom_bond_site_symmetry_1
_geom_bond_site_symmetry_2
Sn1 Br1 1_555 1_555
P1 O1 1_555 1_555
O1 Sn1 1_555 1_555
C1 Sn1 1_555 1_555
H1 C1 1_555 1_555
H2 C1 1_555 1_555
H3 C1 1_555 1_555
C2 Sn1 1_555 1_555
H4 C2 1_555 1_555
H5 C2 1_555 1_555
H6 C2 1_555 1_555
C3 H7 1_555 1_555
H8 C3 1_555 1_555
C4 P1 1_555 1_555
H9 C4 1_555 1_555
H10 C4 1_555 1_555
C5 P1 1_555 1_555
C6 C5 1_555 1_555
H11 C6 1_555 1_555
C7 C6 1_555 1_555
H12 C7 1_555 1_555
C8 C7 1_555 1_555
H13 C8 1_555 1_555
C9 C8 1_555 1_555
H14 C9 1_555 1_555
C10 C5 1_555 1_555
H15 C10 1_555 1_555
C11 P1 1_555 1_555
C12 C11 1_555 1_555
H16 C12 1_555 1_555
C13 C12 1_555 1_555
H17 C13 1_555 1_555
C14 C13 1_555 1_555
H18 C14 1_555 1_555
C15 C14 1_555 1_555
H19 C15 1_555 1_555
C16 C11 1_555 1_555
H20 C16 1_555 1_555
C3B Sn1 1_555 1_555
Sn1B C3 1_555 1_555
H7B C3B 1_555 1_555
H8B C3B 1_555 1_555
C3 C4 1_555 1_555
C9 C10 1_555 1_555
C15 C16 1_555 1_555

#END
