
#######################################################################
#
#                 Cambridge Crystallographic Data Centre
#                                CCDC 
#
#######################################################################
#
# If this CIF has been generated from an entry in the Cambridge 
# Structural Database, then it will include bibliographic, chemical, 
# crystal, experimental, refinement or atomic coordinate data resulting 
# from the CCDC's data processing and validation procedures.
#
#######################################################################

data_RISMOW
_symmetry_cell_setting           monoclinic
_symmetry_space_group_name_H-M   'P 2/c'
_symmetry_Int_Tables_number      13
_space_group_name_Hall           '-P 2yc'
loop_
_symmetry_equiv_pos_site_id
_symmetry_equiv_pos_as_xyz
1 x,y,z
2 -x,y,1/2-z
3 -x,-y,-z
4 x,-y,1/2+z
_cell_length_a                   6.9516(16)
_cell_length_b                   11.309(3)
_cell_length_c                   12.047(3)
_cell_angle_alpha                90
_cell_angle_beta                 113.439(11)
_cell_angle_gamma                90
_cell_volume                     868.933
loop_
_atom_site_label
_atom_site_type_symbol
_atom_site_fract_x
_atom_site_fract_y
_atom_site_fract_z
Co1 Co 1.0000 0.10367(3) 0.7500
O1 O 0.8160(2) 0.09545(12) 0.84965(13)
H1 H 0.7383 0.1504 0.8486
H2 H 0.7478 0.0347 0.8427
O2 O 1.2845(2) 0.11337(13) 0.90757(14)
H3 H 1.3146 0.1108 0.9806
H4 H 1.3833 0.1421 0.8961
N1 N 1.0000 0.2930(2) 0.7500
N2 N 1.0000 0.9178(2) 0.7500
C1 C 0.9666(3) 0.3547(2) 0.64971(18)
H5 H 0.9431 0.3135 0.5787
C2 C 0.9650(3) 0.47594(19) 0.64631(18)
H6 H 0.9404 0.5149 0.5739
C3 C 1.0000 0.5404(3) 0.7500
C4 C 1.0000 0.6709(2) 0.7500
C5 C 0.9079(3) 0.73486(19) 0.64383(18)
H7 H 0.8440 0.6959 0.5702
C6 C 0.9115(4) 0.8560(2) 0.64790(18)
H8 H 0.8488 0.8973 0.5756
Co1_2 Co 1.0000 1.10367(3) 0.7500
O1A O 1.1840(2) 0.09545(12) 0.65035(13)
H1A H 1.2617 0.1504 0.6514
H2A H 1.2522 0.0347 0.6573
O2A O 0.7155(2) 0.11337(13) 0.59243(14)
H3A H 0.6854 0.1108 0.5194
H4A H 0.6167 0.1421 0.6039
N2_2 N 1.0000 -0.0822(2) 0.7500
C1A C 1.0334(3) 0.3547(2) 0.85029(18)
H5A H 1.0569 0.3135 0.9213
C2A C 1.0350(3) 0.47594(19) 0.85369(18)
H6A H 1.0596 0.5149 0.9261
C5A C 1.0921(3) 0.73486(19) 0.85617(18)
H7A H 1.1560 0.6959 0.9298
C6A C 1.0885(4) 0.8560(2) 0.85210(18)
H8A H 1.1512 0.8973 0.9244
O3 O 0.3954(3) 0.10827(13) 0.15243(14)
O4 O 0.4395(3) 0.72447(14) 0.14960(13)
C7 C 0.5000 0.1599(3) 0.2500
C8 C 0.5000 0.2937(3) 0.2500
C9 C 0.4552(3) 0.3556(2) 0.14378(18)
H9 H 0.4237 0.3149 0.0716
C10 C 0.4569(3) 0.4778(2) 0.14440(18)
H10 H 0.4286 0.5186 0.0725
C11 C 0.5000 0.5404(3) 0.2500
C12 C 0.5000 0.6732(3) 0.2500
O3A O 0.6046(3) 0.10827(13) 0.34757(14)
O4A O 0.5605(3) 0.72447(14) 0.35040(13)
C9A C 0.5448(3) 0.3556(2) 0.35622(18)
H9A H 0.5763 0.3149 0.4284
C10A C 0.5431(3) 0.4778(2) 0.35560(18)
H10A H 0.5714 0.5186 0.4275
loop_
_geom_bond_atom_site_label_1
_geom_bond_atom_site_label_2
_geom_bond_site_symmetry_1
_geom_bond_site_symmetry_2
Co1 O1 1_555 1_555
O1 H1 1_555 1_555
H2 O1 1_555 1_555
O2 Co1 1_555 1_555
H3 O2 1_555 1_555
H4 O2 1_555 1_555
O3 C7 1_555 1_555
O4 C12 1_555 1_555
N1 Co1 1_555 1_555
N2 C6 1_555 1_555
C1 N1 1_555 1_555
H5 C1 1_555 1_555
C2 C1 1_555 1_555
H6 C2 1_555 1_555
C3 C2 1_555 1_555
C4 C3 1_555 1_555
C5 C4 1_555 1_555
H7 C5 1_555 1_555
C6 C5 1_555 1_555
H8 C6 1_555 1_555
C7 C8 1_555 1_555
C8 C9 1_555 1_555
C9 H9 1_555 1_555
C10 C9 1_555 1_555
H10 C10 1_555 1_555
C11 C10 1_555 1_555
C12 C11 1_555 1_555
Co1_2 N2 1_555 1_555
O1A Co1 1_555 1_555
H1A O1A 1_555 1_555
H2A O1A 1_555 1_555
O2A Co1 1_555 1_555
H3A O2A 1_555 1_555
H4A O2A 1_555 1_555
O3A C7 1_555 1_555
O4A C12 1_555 1_555
N2_2 Co1 1_555 1_555
C1A N1 1_555 1_555
H5A C1A 1_555 1_555
C2A C3 1_555 1_555
H6A C2A 1_555 1_555
C5A C4 1_555 1_555
H7A C5A 1_555 1_555
C6A N2 1_555 1_555
H8A C6A 1_555 1_555
C9A C8 1_555 1_555
H9A C9A 1_555 1_555
C10A C11 1_555 1_555
H10A C10A 1_555 1_555
C1A C2A 1_555 1_555
C5A C6A 1_555 1_555
C9A C10A 1_555 1_555

#END
