
#######################################################################
#
#                 Cambridge Crystallographic Data Centre
#                                CCDC 
#
#######################################################################
#
# If this CIF has been generated from an entry in the Cambridge 
# Structural Database, then it will include bibliographic, chemical, 
# crystal, experimental, refinement or atomic coordinate data resulting 
# from the CCDC's data processing and validation procedures.
#
#######################################################################

data_RISNOX
_symmetry_cell_setting           monoclinic
_symmetry_space_group_name_H-M   'P 21/c'
_symmetry_Int_Tables_number      14
_space_group_name_Hall           '-P 2ybc'
loop_
_symmetry_equiv_pos_site_id
_symmetry_equiv_pos_as_xyz
1 x,y,z
2 -x,1/2+y,1/2-z
3 -x,-y,-z
4 x,1/2-y,1/2+z
_cell_length_a                   12.177(2)
_cell_length_b                   13.022(3)
_cell_length_c                   8.9109(18)
_cell_angle_alpha                90
_cell_angle_beta                 94.21(3)
_cell_angle_gamma                90
_cell_volume                     1409.18
loop_
_atom_site_label
_atom_site_type_symbol
_atom_site_fract_x
_atom_site_fract_y
_atom_site_fract_z
Ag1 Ag -0.01568(2) 0.32484(2) 0.11987(4)
N1 N 0.1306(2) 0.3030(2) 0.0011(3)
C1 C 0.1867(3) 0.3832(3) -0.0444(4)
H1 H 0.1644 0.4486 -0.0176
C2 C 0.2524(3) 0.1954(3) -0.1219(4)
H2 H 0.2731 0.1291 -0.1467
C3 C 0.1637(3) 0.2107(3) -0.0387(4)
H3 H 0.1249 0.1537 -0.0087
C4 C 0.3109(3) 0.2785(3) -0.1690(4)
C5 C 0.2755(3) 0.3746(3) -0.1283(4)
H4 H 0.3120 0.4331 -0.1580
C6 C 0.4107(3) 0.2716(3) -0.2571(4)
N2 N 0.4370(2) 0.1789(2) -0.3061(3)
H5 H 0.3962 0.1273 -0.2872
C7 C 0.5327(3) 0.1630(3) -0.3904(4)
H6 H 0.5431 0.2231 -0.4520
H7 H 0.5188 0.1051 -0.4576
C8 C 0.6375(3) 0.1431(3) -0.2938(4)
C9 C 0.7368(3) 0.1578(3) -0.3533(4)
H8 H 0.7365 0.1849 -0.4499
N3 N 0.8337(2) 0.1358(2) -0.2817(3)
C10 C 0.8340(3) 0.0972(3) -0.1428(4)
H9 H 0.9007 0.0798 -0.0917
C11 C 0.7385(3) 0.0825(3) -0.0737(4)
H10 H 0.7410 0.0577 0.0243
C12 C 0.6391(3) 0.1044(3) -0.1492(4)
H11 H 0.5738 0.0933 -0.1038
O1 O 0.4653(2) 0.3480(2) -0.2803(3)
Ag1C Ag 0.98432(2) 0.17516(2) -0.38013(4)
N3C N -0.1663(2) 0.3642(2) 0.2183(3)
O2 O -0.0055(2) 0.1263(3) 0.1929(4)
N4 N -0.0802(3) 0.0813(3) 0.2490(3)
O3 O -0.1439(3) 0.1264(3) 0.3279(4)
O5 O -0.0959(3) -0.0117(2) 0.2228(4)
O4 O 0.6452(2) 0.4755(2) -0.2057(4)
H12 H 0.5932 0.4332 -0.2267
H13 H 0.7033 0.4393 -0.1928
loop_
_geom_bond_atom_site_label_1
_geom_bond_atom_site_label_2
_geom_bond_site_symmetry_1
_geom_bond_site_symmetry_2
Ag1 N1 1_555 1_555
N1 C1 1_555 1_555
C1 H1 1_555 1_555
C2 H2 1_555 1_555
C3 N1 1_555 1_555
H3 C3 1_555 1_555
C4 C2 1_555 1_555
C5 C1 1_555 1_555
H4 C5 1_555 1_555
C6 C4 1_555 1_555
N2 C6 1_555 1_555
H5 N2 1_555 1_555
C7 N2 1_555 1_555
H6 C7 1_555 1_555
H7 C7 1_555 1_555
C8 C7 1_555 1_555
C9 C8 1_555 1_555
H8 C9 1_555 1_555
N3 C9 1_555 1_555
C10 N3 1_555 1_555
H9 C10 1_555 1_555
C11 C10 1_555 1_555
H10 C11 1_555 1_555
C12 C8 1_555 1_555
H11 C12 1_555 1_555
O1 C6 1_555 1_555
O2 N4 1_555 1_555
N4 O3 1_555 1_555
O4 H12 1_555 1_555
H13 O4 1_555 1_555
O5 N4 1_555 1_555
Ag1C N3 1_555 1_555
N3C Ag1 1_555 1_555
C2 C3 1_555 1_555
C4 C5 1_555 1_555
C11 C12 1_555 1_555

#END
