
#######################################################################
#
#                 Cambridge Crystallographic Data Centre
#                                CCDC 
#
#######################################################################
#
# If this CIF has been generated from an entry in the Cambridge 
# Structural Database, then it will include bibliographic, chemical, 
# crystal, experimental, refinement or atomic coordinate data resulting 
# from the CCDC's data processing and validation procedures.
#
#######################################################################

data_RISPOZ
_symmetry_cell_setting           triclinic
_symmetry_space_group_name_H-M   'P -1'
_symmetry_Int_Tables_number      2
_space_group_name_Hall           '-P 1'
loop_
_symmetry_equiv_pos_site_id
_symmetry_equiv_pos_as_xyz
1 x,y,z
2 -x,-y,-z
_cell_length_a                   7.183(5)
_cell_length_b                   7.802(5)
_cell_length_c                   10.038(5)
_cell_angle_alpha                80.434(5)
_cell_angle_beta                 87.791(5)
_cell_angle_gamma                73.288(5)
_cell_volume                     531.269
loop_
_atom_site_label
_atom_site_type_symbol
_atom_site_fract_x
_atom_site_fract_y
_atom_site_fract_z
Cd1 Cd 0.0000 0.0000 1.0000
O1 O -0.1754(3) -0.1628(3) 0.9055(2)
O2 O 0.2890(3) -0.1665(3) 0.9317(2)
N1 N -0.0243(3) 0.1980(2) 0.80060(18)
C3 C 0.0421(4) 0.1372(3) 0.6866(2)
H2 H 0.0823 0.0126 0.6873
C4 C 0.0540(4) 0.2496(3) 0.5679(2)
H3 H 0.1014 0.2005 0.4907
C5 C -0.0050(3) 0.4372(3) 0.56279(19)
C6 C -0.0735(4) 0.4991(3) 0.6825(2)
H4 H -0.1135 0.6229 0.6852
C7 C -0.0823(4) 0.3778(3) 0.7969(2)
H5 H -0.1307 0.4227 0.8754
H6 H -0.248(6) -0.192(6) 0.955(5)
H7 H -0.233(5) -0.117(5) 0.847(4)
H8 H 0.366(4) -0.196(4) 0.983(3)
H9 H 0.300(5) -0.218(5) 0.877(4)
Cd1_2 Cd 0.0000 1.0000 0.0000
O1A O 0.1754(3) 0.1628(3) 1.0945(2)
O2A O -0.2890(3) 0.1665(3) 1.0683(2)
N1A N 0.0243(3) 0.8020(2) 0.19940(18)
N1A_2 N 0.0243(3) -0.1980(2) 1.19940(18)
C3A C -0.0421(4) 0.8628(3) 0.3134(2)
H2A H -0.0823 0.9874 0.3127
C4A C -0.0540(4) 0.7504(3) 0.4321(2)
H3A H -0.1014 0.7995 0.5093
C5A C 0.0050(3) 0.5628(3) 0.43721(19)
C6A C 0.0735(4) 0.5009(3) 0.3175(2)
H4A H 0.1135 0.3771 0.3148
C7A C 0.0823(4) 0.6222(3) 0.2031(2)
H5A H 0.1307 0.5773 0.1246
H6A H 0.248(6) 0.192(6) 1.045(5)
H7A H 0.233(5) 0.117(5) 1.153(4)
H8A H -0.366(4) 0.196(4) 1.017(3)
H9A H -0.300(5) 0.218(5) 1.123(4)
O3 O 0.4251(4) 0.9783(3) 0.3137(2)
H10 H 0.406(5) 0.923(5) 0.392(4)
H11 H 0.493(6) 1.030(6) 0.324(4)
O4 O 0.5895(3) 0.7407(3) 0.1154(2)
H12 H 0.615(5) 0.651(5) 0.147(4)
H13 H 0.555(6) 0.805(6) 0.167(5)
O5 O 0.6065(3) 0.1946(3) 0.4185(2)
O6 O 0.6400(4) 0.3942(3) 0.2406(2)
C1 C 0.5988(3) 0.3514(3) 0.3622(2)
C2 C 0.5375(4) 0.5053(3) 0.4404(2)
H1 H 0.5545 0.6162 0.4007
O5A O 0.3935(3) 0.8054(3) 0.5815(2)
O6A O 0.3600(4) 0.6058(3) 0.7594(2)
C1A C 0.4012(3) 0.6486(3) 0.6378(2)
C2A C 0.4625(4) 0.4947(3) 0.5596(2)
H1A H 0.4455 0.3838 0.5993
loop_
_geom_bond_atom_site_label_1
_geom_bond_atom_site_label_2
_geom_bond_site_symmetry_1
_geom_bond_site_symmetry_2
Cd1 O1 1_555 1_555
O1 H6 1_555 1_555
O2 Cd1 1_555 1_555
O3 H10 1_555 1_555
O4 H12 1_555 1_555
O5 C1 1_555 1_555
O6 C1 1_555 1_555
N1 Cd1 1_555 1_555
C1 C2 1_555 1_555
C2 H1 1_555 1_555
C3 N1 1_555 1_555
H2 C3 1_555 1_555
C4 C3 1_555 1_555
H3 C4 1_555 1_555
C5 C4 1_555 1_555
C6 C5 1_555 1_555
H4 C6 1_555 1_555
C7 N1 1_555 1_555
H5 C7 1_555 1_555
H7 O1 1_555 1_555
H8 O2 1_555 1_555
H9 O2 1_555 1_555
H11 O3 1_555 1_555
H13 O4 1_555 1_555
Cd1_2 N1A 1_555 1_555
O1A Cd1 1_555 1_555
O2A Cd1 1_555 1_555
O5A C1A 1_555 1_555
O6A C1A 1_555 1_555
N1A C3A 1_555 1_555
N1A_2 Cd1 1_555 1_555
C1A C2A 1_555 1_555
C2A C2 1_555 1_555
H1A C2A 1_555 1_555
C3A H2A 1_555 1_555
C4A C3A 1_555 1_555
H3A C4A 1_555 1_555
C5A C5 1_555 1_555
C6A C5A 1_555 1_555
H4A C6A 1_555 1_555
C7A N1A 1_555 1_555
H5A C7A 1_555 1_555
H6A O1A 1_555 1_555
H7A O1A 1_555 1_555
H8A O2A 1_555 1_555
H9A O2A 1_555 1_555
C6 C7 1_555 1_555
C4A C5A 1_555 1_555
C6A C7A 1_555 1_555

#END
