
#######################################################################
#
#                 Cambridge Crystallographic Data Centre
#                                CCDC 
#
#######################################################################
#
# If this CIF has been generated from an entry in the Cambridge 
# Structural Database, then it will include bibliographic, chemical, 
# crystal, experimental, refinement or atomic coordinate data resulting 
# from the CCDC's data processing and validation procedures.
#
#######################################################################

data_RISQOA
_symmetry_cell_setting           monoclinic
_symmetry_space_group_name_H-M   'P 21/c'
_symmetry_Int_Tables_number      14
_space_group_name_Hall           '-P 2ybc'
loop_
_symmetry_equiv_pos_site_id
_symmetry_equiv_pos_as_xyz
1 x,y,z
2 -x,1/2+y,1/2-z
3 -x,-y,-z
4 x,1/2-y,1/2+z
_cell_length_a                   17.469(4)
_cell_length_b                   12.913(3)
_cell_length_c                   16.814(3)
_cell_angle_alpha                90
_cell_angle_beta                 117.56(3)
_cell_angle_gamma                90
_cell_volume                     3362.47
loop_
_atom_site_label
_atom_site_type_symbol
_atom_site_fract_x
_atom_site_fract_y
_atom_site_fract_z
Cd1 Cd 0.185504(19) 0.46826(2) 0.868473(19)
I1 I 0.356936(18) 0.51615(2) 0.948024(19)
I2 I 0.109810(19) 0.27969(2) 0.825044(19)
N1 N 0.1207(2) 0.5680(2) 0.7429(2)
N2 N 0.0638(2) 0.8382(2) 0.4991(2)
N3 N 0.1338(2) 0.9484(3) 0.4526(2)
C1 C 0.1638(2) 0.6488(3) 0.7339(3)
H1 H 0.2159 0.6671 0.7826
C2 C 0.1355(2) 0.7062(3) 0.6570(3)
H2 H 0.1694 0.7594 0.6531
C3 C 0.0561(3) 0.6843(3) 0.5853(3)
C4 C 0.0106(3) 0.5992(3) 0.5937(3)
H3 H -0.0423 0.5802 0.5464
C5 C 0.0448(3) 0.5442(3) 0.6721(3)
H4 H 0.0141 0.4877 0.6767
C6 C 0.0143(3) 0.7484(3) 0.5008(3)
H5 H 0.0044 0.7044 0.4501
H6 H -0.0415 0.7718 0.4928
C7 C 0.0926(2) 0.8603(3) 0.4385(3)
H7 H 0.0837 0.8165 0.3911
C8 C 0.1326(2) 0.9898(3) 0.5286(3)
C9 C 0.0877(2) 0.9230(3) 0.5583(3)
C10 C 0.0736(3) 0.9453(3) 0.6317(3)
H8 H 0.0428 0.9009 0.6499
C11 C 0.1082(3) 1.0372(3) 0.6757(3)
H9 H 0.0999 1.0559 0.7246
C12 C 0.1551(3) 1.1025(3) 0.6488(3)
H10 H 0.1790 1.1624 0.6816
C13 C 0.1674(3) 1.0815(3) 0.5751(3)
H11 H 0.1978 1.1269 0.5571
Cd1C Cd 0.185504(19) 1.03174(2) 0.368473(19)
N3C N 0.1338(2) 0.5516(3) 0.9526(2)
Cd2 Cd 0.272027(19) 0.52226(2) 0.547057(19)
I3 I 0.2197(2) 0.3922(2) 0.6382(2)
I4 I 0.178051(18) 0.61285(2) 0.385404(17)
N4 N 0.32450(19) 0.6665(2) 0.6382(2)
N5 N 0.4629(2) 0.9308(2) 0.8829(2)
N6 N 0.6033(2) 0.9608(3) 0.9407(2)
C14 C 0.3534(2) 0.6536(3) 0.7270(3)
H12 H 0.3621 0.5867 0.7500
C15 C 0.3706(2) 0.7354(3) 0.7848(3)
H13 H 0.3915 0.7236 0.8459
C16 C 0.3568(2) 0.8352(3) 0.7520(3)
C17 C 0.3283(2) 0.8485(3) 0.6601(3)
H14 H 0.3200 0.9147 0.6356
C18 C 0.3127(2) 0.7629(3) 0.6064(3)
H15 H 0.2931 0.7726 0.5452
C19 C 0.3725(2) 0.9284(3) 0.8137(3)
H16 H 0.3589 0.9917 0.7788
H17 H 0.3351 0.9241 0.8419
C20 C 0.5281(3) 0.9789(3) 0.8737(3)
H18 H 0.5194 1.0200 0.8248
C21 C 0.5015(3) 0.8769(3) 0.9641(3)
C22 C 0.4677(3) 0.8140(3) 1.0078(3)
H19 H 0.4086 0.8028 0.9843
C23 C 0.5263(3) 0.7690(3) 1.0875(3)
H20 H 0.5064 0.7264 1.1186
C24 C 0.6145(3) 0.7866(3) 1.1220(3)
H21 H 0.6522 0.7539 1.1751
C25 C 0.6478(3) 0.8505(3) 1.0806(3)
H22 H 0.7068 0.8631 1.1054
C26 C 0.5893(3) 0.8961(3) 0.9996(3)
Cd2A Cd 0.727973(19) 1.02226(2) 0.952943(19)
N6A N 0.3967(2) 0.4608(3) 0.5593(2)
C27 C 0.4068(3) 0.1849(4) 0.6542(3)
H23 H 0.4159 0.2210 0.7078
H24 H 0.3462 0.1835 0.6132
H25 H 0.4370 0.2200 0.6268
O1 O 0.4380(2) 0.0826(2) 0.6760(2)
H26 H 0.4366 0.0545 0.6316
loop_
_geom_bond_atom_site_label_1
_geom_bond_atom_site_label_2
_geom_bond_site_symmetry_1
_geom_bond_site_symmetry_2
Cd1 I1 1_555 1_555
Cd2 I3 1_555 1_555
I2 Cd1 1_555 1_555
I4 Cd2 1_555 1_555
N1 Cd1 1_555 1_555
N2 C6 1_555 1_555
N3 C7 1_555 1_555
N4 Cd2 1_555 1_555
N5 C19 1_555 1_555
N6 C20 1_555 1_555
C1 N1 1_555 1_555
H1 C1 1_555 1_555
C2 C1 1_555 1_555
H2 C2 1_555 1_555
C3 C2 1_555 1_555
C4 C3 1_555 1_555
H3 C4 1_555 1_555
C5 N1 1_555 1_555
H4 C5 1_555 1_555
C6 C3 1_555 1_555
H5 C6 1_555 1_555
H6 C6 1_555 1_555
C7 N2 1_555 1_555
H7 C7 1_555 1_555
C8 N3 1_555 1_555
C9 N2 1_555 1_555
C10 C9 1_555 1_555
H8 C10 1_555 1_555
C11 C10 1_555 1_555
H9 C11 1_555 1_555
C12 C11 1_555 1_555
H10 C12 1_555 1_555
C13 C8 1_555 1_555
H11 C13 1_555 1_555
C14 N4 1_555 1_555
H12 C14 1_555 1_555
C15 C14 1_555 1_555
H13 C15 1_555 1_555
C16 C15 1_555 1_555
C17 C16 1_555 1_555
H14 C17 1_555 1_555
C18 N4 1_555 1_555
H15 C18 1_555 1_555
C19 C16 1_555 1_555
H16 C19 1_555 1_555
H17 C19 1_555 1_555
C20 N5 1_555 1_555
H18 C20 1_555 1_555
C21 N5 1_555 1_555
C22 C21 1_555 1_555
H19 C22 1_555 1_555
C23 C22 1_555 1_555
H20 C23 1_555 1_555
C24 C23 1_555 1_555
H21 C24 1_555 1_555
C25 C24 1_555 1_555
H22 C25 1_555 1_555
C26 N6 1_555 1_555
C27 H23 1_555 1_555
H24 C27 1_555 1_555
H25 C27 1_555 1_555
O1 C27 1_555 1_555
H26 O1 1_555 1_555
Cd1C N3 1_555 1_555
Cd2A N6 1_555 1_555
N3C Cd1 1_555 1_555
N6A Cd2 1_555 1_555
C4 C5 1_555 1_555
C8 C9 1_555 1_555
C12 C13 1_555 1_555
C17 C18 1_555 1_555
C21 C26 1_555 1_555
C25 C26 1_555 1_555

#END
