
#######################################################################
#
#                 Cambridge Crystallographic Data Centre
#                                CCDC 
#
#######################################################################
#
# If this CIF has been generated from an entry in the Cambridge 
# Structural Database, then it will include bibliographic, chemical, 
# crystal, experimental, refinement or atomic coordinate data resulting 
# from the CCDC's data processing and validation procedures.
#
#######################################################################

data_RISRIW
_symmetry_cell_setting           rhombohedral
_symmetry_space_group_name_H-M   'R -3 c'
_symmetry_Int_Tables_number      167
_space_group_name_Hall           '-R 3 2"c'
loop_
_symmetry_equiv_pos_site_id
_symmetry_equiv_pos_as_xyz
1 x,y,z
2 -y,x-y,z
3 -x+y,-x,z
4 y,x,1/2-z
5 -x,-x+y,1/2-z
6 x-y,-y,1/2-z
7 2/3+x,1/3+y,1/3+z
8 2/3-y,1/3+x-y,1/3+z
9 2/3-x+y,1/3-x,1/3+z
10 2/3+y,1/3+x,5/6-z
11 2/3-x,1/3-x+y,5/6-z
12 2/3+x-y,1/3-y,5/6-z
13 1/3+x,2/3+y,2/3+z
14 1/3-y,2/3+x-y,2/3+z
15 1/3-x+y,2/3-x,2/3+z
16 1/3+y,2/3+x,1/6-z
17 1/3-x,2/3-x+y,1/6-z
18 1/3+x-y,2/3-y,1/6-z
19 -x,-y,-z
20 y,-x+y,-z
21 x-y,x,-z
22 -y,-x,1/2+z
23 x,x-y,1/2+z
24 -x+y,y,1/2+z
25 1/3-x,2/3-y,2/3-z
26 1/3+y,2/3-x+y,2/3-z
27 1/3+x-y,2/3+x,2/3-z
28 1/3-y,2/3-x,1/6+z
29 1/3+x,2/3+x-y,1/6+z
30 1/3-x+y,2/3+y,1/6+z
31 2/3-x,1/3-y,1/3-z
32 2/3+y,1/3-x+y,1/3-z
33 2/3+x-y,1/3+x,1/3-z
34 2/3-y,1/3-x,5/6+z
35 2/3+x,1/3+x-y,5/6+z
36 2/3-x+y,1/3+y,5/6+z
_cell_length_a                   16.4650(17)
_cell_length_b                   16.4650(17)
_cell_length_c                   54.965(15)
_cell_angle_alpha                90
_cell_angle_beta                 90
_cell_angle_gamma                120
_cell_volume                     12904.5
loop_
_atom_site_label
_atom_site_type_symbol
_atom_site_fract_x
_atom_site_fract_y
_atom_site_fract_z
Mn1 Mn 0.6667 0.3333 1.0833
Mn2 Mn 0.6667 0.3333 1.011638(18)
C1 C 0.0995(2) 0.0510(2) 1.04226(8)
C2 C 0.1468(3) 0.1260(3) 1.05774(9)
H1 H 0.1134 0.1441 1.0679
C3 C 0.2437(3) 0.1747(3) 1.05834(9)
H2 H 0.2745 0.2259 1.0687
C4 C 0.2952(3) 0.1495(2) 1.04410(7)
C5 C 0.2475(3) 0.0753(3) 1.02839(8)
H3 H 0.2813 0.0580 1.0182
C6 C 0.1505(3) 0.0258(3) 1.02736(8)
H4 H 0.1199 -0.0243 1.0167
C7 C 0.3986(2) 0.1994(2) 1.04547(8)
C8 C 0.5344(7) 0.3690(9) 0.98000(15)
H5 H 0.4864 0.3083 0.9832
C9 C 0.4179(11) 0.3847(16) 0.9545(5)
H6 H 0.3685 0.3549 0.9666
H7 H 0.4101 0.4306 0.9454
C10 C 0.426(2) 0.314(3) 0.9383(5)
H8 H 0.4862 0.3203 0.9405
H9 H 0.4169 0.3235 0.9215
H10 H 0.3779 0.2527 0.9433
C11 C 0.5841(16) 0.5291(14) 0.9579(2)
H11 H 0.6479 0.5407 0.9571
H12 H 0.5671 0.5418 0.9420
C12 C 0.577(3) 0.5823(18) 0.9746(5)
H13 H 0.6110 0.6467 0.9695
H14 H 0.6019 0.5754 0.9897
H15 H 0.5119 0.5638 0.9767
N1 N 0.0000 0.0000 1.04147(14)
N2 N 0.4475(2) 0.2313(2) 1.06598(6)
N3 N 0.53672(19) 0.27059(19) 1.05888(6)
N4 N 0.5404(2) 0.2622(2) 1.03524(6)
N5 N 0.4529(2) 0.2165(2) 1.02608(6)
N6 N 0.5154(2) 0.4256(2) 0.96559(6)
O1 O 0.6067(4) 0.3936(4) 0.98825(8)
C1A C -0.0510(2) 0.0485(3) 1.04226(8)
C2A C -0.1260(3) 0.0208(4) 1.05774(9)
H1A H -0.1441 -0.0307 1.0679
C3A C -0.1747(3) 0.0690(4) 1.05834(9)
H2A H -0.2259 0.0486 1.0687
C4A C -0.1495(2) 0.1457(4) 1.04410(7)
C5A C -0.0753(3) 0.1722(4) 1.02839(8)
H3A H -0.0580 0.2233 1.0182
C6A C -0.0258(3) 0.1247(4) 1.02736(8)
H4A H 0.0243 0.1442 1.0167
C7A C -0.1994(2) 0.1992(3) 1.04547(8)
N2A N -0.2313(2) 0.2162(3) 1.06598(6)
N3A N -0.27059(19) 0.26613(27) 1.05888(6)
N4A N -0.2622(2) 0.2782(3) 1.03524(6)
N5A N -0.2165(2) 0.2364(3) 1.02608(6)
C1B C -0.0485(3) -0.0995(2) 1.04226(8)
C2B C -0.0208(4) -0.1468(3) 1.05774(9)
H1B H 0.0307 -0.1134 1.0679
C3B C -0.0690(4) -0.2437(3) 1.05834(9)
H2B H -0.0486 -0.2745 1.0687
C4B C -0.1457(4) -0.2952(3) 1.04410(7)
C5B C -0.1722(4) -0.2475(3) 1.02839(8)
H3B H -0.2233 -0.2813 1.0182
C6B C -0.1247(4) -0.1505(3) 1.02736(8)
H4B H -0.1442 -0.1199 1.0167
C7B C -0.1992(3) -0.3986(2) 1.04547(8)
N2B N -0.2162(3) -0.4475(2) 1.06598(6)
N3B N -0.26613(27) -0.53672(19) 1.05888(6)
N4B N -0.2782(3) -0.5404(2) 1.03524(6)
N5B N -0.2364(3) -0.4529(2) 1.02608(6)
C8A C 0.6310(9) 0.1654(11) 0.98000(15)
H5A H 0.6917 0.1781 0.9832
C9A C 0.6153(16) 0.0332(19) 0.9545(5)
H6A H 0.6451 0.0136 0.9666
H7A H 0.5694 -0.0205 0.9454
C10A C 0.686(3) 0.112(4) 0.9383(5)
H8A H 0.6797 0.1659 0.9405
H9A H 0.6765 0.0934 0.9215
H10A H 0.7473 0.1252 0.9433
C11A C 0.4709(14) 0.0550(21) 0.9579(2)
H11A H 0.4593 0.1072 0.9571
H12A H 0.4582 0.0253 0.9420
C12A C 0.4177(18) -0.0053(35) 0.9746(5)
H13A H 0.3533 -0.0357 0.9695
H14A H 0.4246 0.0265 0.9897
H15A H 0.4362 -0.0519 0.9767
N6A N 0.5744(2) 0.0898(3) 0.96559(6)
O1A O 0.6064(4) 0.2131(6) 0.98825(8)
C1A_2 C 0.9490(2) 0.0485(3) 1.04226(8)
C2A_2 C 0.8740(3) 0.0208(4) 1.05774(9)
H1A_2 H 0.8559 -0.0307 1.0679
C3A_2 C 0.8253(3) 0.0690(4) 1.05834(9)
H2A_2 H 0.7741 0.0486 1.0687
C4A_2 C 0.8505(2) 0.1457(4) 1.04410(7)
C5A_2 C 0.9247(3) 0.1722(4) 1.02839(8)
H3A_2 H 0.9420 0.2233 1.0182
C6A_2 C 0.9742(3) 0.1247(4) 1.02736(8)
H4A_2 H 1.0243 0.1442 1.0167
C7A_2 C 0.8006(2) 0.1992(3) 1.04547(8)
N1_2 N 1.0000 0.0000 1.04147(14)
N2A_2 N 0.7687(2) 0.2162(3) 1.06598(6)
N3A_2 N 0.72941(19) 0.26613(27) 1.05888(6)
N4A_2 N 0.7378(2) 0.2782(3) 1.03524(6)
N5A_2 N 0.7835(2) 0.2364(3) 1.02608(6)
C1B_2 C 0.9515(3) -0.0995(2) 1.04226(8)
C2B_2 C 0.9792(4) -0.1468(3) 1.05774(9)
H1B_2 H 1.0307 -0.1134 1.0679
C3B_2 C 0.9310(4) -0.2437(3) 1.05834(9)
H2B_2 H 0.9514 -0.2745 1.0687
C4B_2 C 0.8543(4) -0.2952(3) 1.04410(7)
C5B_2 C 0.8278(4) -0.2475(3) 1.02839(8)
H3B_2 H 0.7767 -0.2813 1.0182
C6B_2 C 0.8753(4) -0.1505(3) 1.02736(8)
H4B_2 H 0.8558 -0.1199 1.0167
C7B_2 C 0.8008(3) -0.3986(2) 1.04547(8)
N2B_2 N 0.7838(3) -0.4475(2) 1.06598(6)
N3B_2 N 0.73387(27) -0.53672(19) 1.05888(6)
N4B_2 N 0.7218(3) -0.5404(2) 1.03524(6)
N5B_2 N 0.7636(3) -0.4529(2) 1.02608(6)
C1_2 C 1.0995(2) 0.0510(2) 1.04226(8)
C2_2 C 1.1468(3) 0.1260(3) 1.05774(9)
H1_2 H 1.1134 0.1441 1.0679
C3_2 C 1.2437(3) 0.1747(3) 1.05834(9)
H2_2 H 1.2745 0.2259 1.0687
C4_2 C 1.2952(3) 0.1495(2) 1.04410(7)
C5_2 C 1.2475(3) 0.0753(3) 1.02839(8)
H3_2 H 1.2813 0.0580 1.0182
C6_2 C 1.1505(3) 0.0258(3) 1.02736(8)
H4_2 H 1.1199 -0.0243 1.0167
C7_2 C 1.3986(2) 0.1994(2) 1.04547(8)
N2_2 N 1.4475(2) 0.2313(2) 1.06598(6)
N3_2 N 1.53672(19) 0.27059(19) 1.05888(6)
N4_2 N 1.5404(2) 0.2622(2) 1.03524(6)
N5_2 N 1.4529(2) 0.2165(2) 1.02608(6)
C8B C 0.8346(11) 0.4656(7) 0.98000(15)
H5B H 0.8219 0.5136 0.9832
C9B C 0.9668(19) 0.5821(11) 0.9545(5)
H6B H 0.9864 0.6315 0.9666
H7B H 1.0205 0.5899 0.9454
C10B C 0.888(4) 0.574(2) 0.9383(5)
H8B H 0.8341 0.5138 0.9405
H9B H 0.9066 0.5831 0.9215
H10B H 0.8748 0.6221 0.9433
C11B C 0.9450(21) 0.4159(16) 0.9579(2)
H11B H 0.8928 0.3521 0.9571
H12B H 0.9747 0.4329 0.9420
C12B C 1.0053(35) 0.423(3) 0.9746(5)
H13B H 1.0357 0.3890 0.9695
H14B H 0.9735 0.3981 0.9897
H15B H 1.0519 0.4881 0.9767
N6B N 0.9102(3) 0.4846(2) 0.96559(6)
O1B O 0.7869(6) 0.3933(4) 0.98825(8)
Mn2_2 Mn -0.3333 0.3333 1.011638(18)
C8A_2 C -0.3690(9) 0.1654(11) 0.98000(15)
H5A_2 H -0.3083 0.1781 0.9832
C9A_2 C -0.3847(16) 0.0332(19) 0.9545(5)
H6A_2 H -0.3549 0.0136 0.9666
H7A_2 H -0.4306 -0.0205 0.9454
C10A_2 C -0.314(3) 0.112(4) 0.9383(5)
H8A_2 H -0.3203 0.1659 0.9405
H9A_2 H -0.3235 0.0934 0.9215
H10A_2 H -0.2527 0.1252 0.9433
C11A_2 C -0.5291(14) 0.0550(21) 0.9579(2)
H11A_2 H -0.5407 0.1072 0.9571
H12A_2 H -0.5418 0.0253 0.9420
C12A_2 C -0.5823(18) -0.0053(35) 0.9746(5)
H13A_2 H -0.6467 -0.0357 0.9695
H14A_2 H -0.5754 0.0265 0.9897
H15A_2 H -0.5638 -0.0519 0.9767
N6A_2 N -0.4256(2) 0.0898(3) 0.96559(6)
O1A_2 O -0.3936(4) 0.2131(6) 0.98825(8)
C8B_2 C -0.1654(11) 0.4656(7) 0.98000(15)
H5B_2 H -0.1781 0.5136 0.9832
C9B_2 C -0.0332(19) 0.5821(11) 0.9545(5)
H6B_2 H -0.0136 0.6315 0.9666
H7B_2 H 0.0205 0.5899 0.9454
C10B_2 C -0.112(4) 0.574(2) 0.9383(5)
H8B_2 H -0.1659 0.5138 0.9405
H9B_2 H -0.0934 0.5831 0.9215
H10B_2 H -0.1252 0.6221 0.9433
C11B_2 C -0.0550(21) 0.4159(16) 0.9579(2)
H11B_2 H -0.1072 0.3521 0.9571
H12B_2 H -0.0253 0.4329 0.9420
C12B_2 C 0.0053(35) 0.423(3) 0.9746(5)
H13B_2 H 0.0357 0.3890 0.9695
H14B_2 H -0.0265 0.3981 0.9897
H15B_2 H 0.0519 0.4881 0.9767
N6B_2 N -0.0898(3) 0.4846(2) 0.96559(6)
O1B_2 O -0.2131(6) 0.3933(4) 0.98825(8)
C8_2 C -0.4656(7) 0.3690(9) 0.98000(15)
H5_2 H -0.5136 0.3083 0.9832
C9_2 C -0.5821(11) 0.3847(16) 0.9545(5)
H6_2 H -0.6315 0.3549 0.9666
H7_2 H -0.5899 0.4306 0.9454
C10_2 C -0.574(2) 0.314(3) 0.9383(5)
H8_2 H -0.5138 0.3203 0.9405
H9_2 H -0.5831 0.3235 0.9215
H10_2 H -0.6221 0.2527 0.9433
C11_2 C -0.4159(16) 0.5291(14) 0.9579(2)
H11_2 H -0.3521 0.5407 0.9571
H12_2 H -0.4329 0.5418 0.9420
C12_2 C -0.423(3) 0.5823(18) 0.9746(5)
H13_2 H -0.3890 0.6467 0.9695
H14_2 H -0.3981 0.5754 0.9897
H15_2 H -0.4881 0.5638 0.9767
N6_2 N -0.4846(2) 0.4256(2) 0.96559(6)
O1_2 O -0.3933(4) 0.3936(4) 0.98825(8)
Mn1_2 Mn -0.3333 -0.6667 1.0833
Mn1_3 Mn -0.3333 0.3333 1.0833
Mn1_4 Mn 0.6667 -0.6667 1.0833
Mn1_5 Mn 1.6667 0.3333 1.0833
Mn2_3 Mn -0.3333 -0.6667 1.011638(18)
Mn2_4 Mn 0.6667 -0.6667 1.011638(18)
Mn2_5 Mn 1.6667 0.3333 1.011638(18)
N3B_3 N 0.73387(27) 0.46328(19) 1.05888(6)
N3O N 0.60392(19) 0.20339(19) 1.10779(6)
N3P N 0.79661(19) 0.40054(27) 1.10779(6)
N3Q N 0.59946(27) 0.39608(19) 1.10779(6)
N4_3 N -0.4596(2) 0.2622(2) 1.03524(6)
N4B_3 N -0.2782(3) 0.4596(2) 1.03524(6)
N4B_4 N 0.7218(3) 0.4596(2) 1.03524(6)
loop_
_geom_bond_atom_site_label_1
_geom_bond_atom_site_label_2
_geom_bond_site_symmetry_1
_geom_bond_site_symmetry_2
Mn1 N3 1_555 1_555
Mn2 N4 1_555 1_555
C1 C2 1_555 1_555
C2 H1 1_555 1_555
C3 C2 1_555 1_555
H2 C3 1_555 1_555
C4 C3 1_555 1_555
C5 C4 1_555 1_555
H3 C5 1_555 1_555
C6 C1 1_555 1_555
H4 C6 1_555 1_555
C7 C4 1_555 1_555
C8 H5 1_555 1_555
C9 H6 1_555 1_555
H7 C9 1_555 1_555
C10 C9 1_555 1_555
H8 C10 1_555 1_555
H9 C10 1_555 1_555
H10 C10 1_555 1_555
C11 H11 1_555 1_555
H12 C11 1_555 1_555
C12 C11 1_555 1_555
H13 C12 1_555 1_555
H14 C12 1_555 1_555
H15 C12 1_555 1_555
N1 C1 1_555 1_555
N2 C7 1_555 1_555
N3 N2 1_555 1_555
N4 N3 1_555 1_555
N5 C7 1_555 1_555
N6 C8 1_555 1_555
O1 Mn2 1_555 1_555
C1A N1 1_555 1_555
C2A C1A 1_555 1_555
H1A C2A 1_555 1_555
C3A C2A 1_555 1_555
H2A C3A 1_555 1_555
C4A C3A 1_555 1_555
C5A C4A 1_555 1_555
H3A C5A 1_555 1_555
C6A C1A 1_555 1_555
H4A C6A 1_555 1_555
C7A C4A 1_555 1_555
N2A C7A 1_555 1_555
N3A N2A 1_555 1_555
N4A N3A 1_555 1_555
N5A C7A 1_555 1_555
C1B N1 1_555 1_555
C2B C1B 1_555 1_555
H1B C2B 1_555 1_555
C3B C2B 1_555 1_555
H2B C3B 1_555 1_555
C4B C3B 1_555 1_555
C5B C4B 1_555 1_555
H3B C5B 1_555 1_555
C6B C1B 1_555 1_555
H4B C6B 1_555 1_555
C7B C4B 1_555 1_555
N2B C7B 1_555 1_555
N3B N2B 1_555 1_555
N4B N3B 1_555 1_555
N5B C7B 1_555 1_555
C8A H5A 1_555 1_555
C9A H6A 1_555 1_555
H7A C9A 1_555 1_555
C10A C9A 1_555 1_555
H8A C10A 1_555 1_555
H9A C10A 1_555 1_555
H10A C10A 1_555 1_555
C11A H11A 1_555 1_555
H12A C11A 1_555 1_555
C12A C11A 1_555 1_555
H13A C12A 1_555 1_555
H14A C12A 1_555 1_555
H15A C12A 1_555 1_555
N6A C8A 1_555 1_555
O1A Mn2 1_555 1_555
C1A_2 C2A_2 1_555 1_555
C2A_2 H1A_2 1_555 1_555
C3A_2 C2A_2 1_555 1_555
H2A_2 C3A_2 1_555 1_555
C4A_2 C3A_2 1_555 1_555
C5A_2 C4A_2 1_555 1_555
H3A_2 C5A_2 1_555 1_555
C6A_2 C1A_2 1_555 1_555
H4A_2 C6A_2 1_555 1_555
C7A_2 C4A_2 1_555 1_555
N1_2 C1A_2 1_555 1_555
N2A_2 C7A_2 1_555 1_555
N3A_2 Mn1 1_555 1_555
N4A_2 Mn2 1_555 1_555
N5A_2 C7A_2 1_555 1_555
C1B_2 N1_2 1_555 1_555
C2B_2 C1B_2 1_555 1_555
H1B_2 C2B_2 1_555 1_555
C3B_2 C2B_2 1_555 1_555
H2B_2 C3B_2 1_555 1_555
C4B_2 C3B_2 1_555 1_555
C5B_2 C4B_2 1_555 1_555
H3B_2 C5B_2 1_555 1_555
C6B_2 C1B_2 1_555 1_555
H4B_2 C6B_2 1_555 1_555
C7B_2 C4B_2 1_555 1_555
N2B_2 C7B_2 1_555 1_555
N3B_2 N2B_2 1_555 1_555
N4B_2 N3B_2 1_555 1_555
N5B_2 C7B_2 1_555 1_555
C1_2 N1_2 1_555 1_555
C2_2 C1_2 1_555 1_555
H1_2 C2_2 1_555 1_555
C3_2 C2_2 1_555 1_555
H2_2 C3_2 1_555 1_555
C4_2 C3_2 1_555 1_555
C5_2 C4_2 1_555 1_555
H3_2 C5_2 1_555 1_555
C6_2 C1_2 1_555 1_555
H4_2 C6_2 1_555 1_555
C7_2 C4_2 1_555 1_555
N2_2 C7_2 1_555 1_555
N3_2 N2_2 1_555 1_555
N4_2 N3_2 1_555 1_555
N5_2 C7_2 1_555 1_555
C8B H5B 1_555 1_555
C9B H6B 1_555 1_555
H7B C9B 1_555 1_555
C10B C9B 1_555 1_555
H8B C10B 1_555 1_555
H9B C10B 1_555 1_555
H10B C10B 1_555 1_555
C11B H11B 1_555 1_555
H12B C11B 1_555 1_555
C12B C11B 1_555 1_555
H13B C12B 1_555 1_555
H14B C12B 1_555 1_555
H15B C12B 1_555 1_555
N6B C8B 1_555 1_555
O1B Mn2 1_555 1_555
Mn2_2 N4A 1_555 1_555
C8A_2 H5A_2 1_555 1_555
C9A_2 H6A_2 1_555 1_555
H7A_2 C9A_2 1_555 1_555
C10A_2 C9A_2 1_555 1_555
H8A_2 C10A_2 1_555 1_555
H9A_2 C10A_2 1_555 1_555
H10A_2 C10A_2 1_555 1_555
C11A_2 H11A_2 1_555 1_555
H12A_2 C11A_2 1_555 1_555
C12A_2 C11A_2 1_555 1_555
H13A_2 C12A_2 1_555 1_555
H14A_2 C12A_2 1_555 1_555
H15A_2 C12A_2 1_555 1_555
N6A_2 C8A_2 1_555 1_555
O1A_2 Mn2_2 1_555 1_555
C8B_2 H5B_2 1_555 1_555
C9B_2 H6B_2 1_555 1_555
H7B_2 C9B_2 1_555 1_555
C10B_2 C9B_2 1_555 1_555
H8B_2 C10B_2 1_555 1_555
H9B_2 C10B_2 1_555 1_555
H10B_2 C10B_2 1_555 1_555
C11B_2 H11B_2 1_555 1_555
H12B_2 C11B_2 1_555 1_555
C12B_2 C11B_2 1_555 1_555
H13B_2 C12B_2 1_555 1_555
H14B_2 C12B_2 1_555 1_555
H15B_2 C12B_2 1_555 1_555
N6B_2 C8B_2 1_555 1_555
O1B_2 Mn2_2 1_555 1_555
C8_2 H5_2 1_555 1_555
C9_2 H6_2 1_555 1_555
H7_2 C9_2 1_555 1_555
C10_2 C9_2 1_555 1_555
H8_2 C10_2 1_555 1_555
H9_2 C10_2 1_555 1_555
H10_2 C10_2 1_555 1_555
C11_2 H11_2 1_555 1_555
H12_2 C11_2 1_555 1_555
C12_2 C11_2 1_555 1_555
H13_2 C12_2 1_555 1_555
H14_2 C12_2 1_555 1_555
H15_2 C12_2 1_555 1_555
N6_2 C8_2 1_555 1_555
O1_2 Mn2_2 1_555 1_555
Mn1_2 N3B 1_555 1_555
Mn1_3 N3A 1_555 1_555
Mn1_4 N3B_2 1_555 1_555
Mn1_5 N3_2 1_555 1_555
Mn2_3 N4B 1_555 1_555
Mn2_4 N4B_2 1_555 1_555
Mn2_5 N4_2 1_555 1_555
N3B_3 Mn1 1_555 1_555
N3O Mn1 1_555 1_555
N3P Mn1 1_555 1_555
N3Q Mn1 1_555 1_555
N4_3 Mn2_2 1_555 1_555
N4B_3 Mn2_2 1_555 1_555
N4B_4 Mn2 1_555 1_555
C5 C6 1_555 1_555
C8 O1 1_555 1_555
C9 N6 1_555 1_555
C11 N6 1_555 1_555
N4 N5 1_555 1_555
C5A C6A 1_555 1_555
N4A N5A 1_555 1_555
C5B C6B 1_555 1_555
N4B N5B 1_555 1_555
C8A O1A 1_555 1_555
C9A N6A 1_555 1_555
C11A N6A 1_555 1_555
C5A_2 C6A_2 1_555 1_555
N2A_2 N3A_2 1_555 1_555
N3A_2 N4A_2 1_555 1_555
N4A_2 N5A_2 1_555 1_555
C5B_2 C6B_2 1_555 1_555
N4B_2 N5B_2 1_555 1_555
C5_2 C6_2 1_555 1_555
N4_2 N5_2 1_555 1_555
C8B O1B 1_555 1_555
C9B N6B 1_555 1_555
C11B N6B 1_555 1_555
C8A_2 O1A_2 1_555 1_555
C9A_2 N6A_2 1_555 1_555
C11A_2 N6A_2 1_555 1_555
C8B_2 O1B_2 1_555 1_555
C9B_2 N6B_2 1_555 1_555
C11B_2 N6B_2 1_555 1_555
C8_2 O1_2 1_555 1_555
C9_2 N6_2 1_555 1_555
C11_2 N6_2 1_555 1_555
N3B_3 N4B_4 1_555 1_555

#END
