
#######################################################################
#
#                 Cambridge Crystallographic Data Centre
#                                CCDC 
#
#######################################################################
#
# If this CIF has been generated from an entry in the Cambridge 
# Structural Database, then it will include bibliographic, chemical, 
# crystal, experimental, refinement or atomic coordinate data resulting 
# from the CCDC's data processing and validation procedures.
#
#######################################################################

data_RISTEU
_symmetry_cell_setting           tetragonal
_symmetry_space_group_name_H-M   'I 41/a'
_symmetry_Int_Tables_number      88
_space_group_name_Hall           '-I 4ad'
loop_
_symmetry_equiv_pos_site_id
_symmetry_equiv_pos_as_xyz
1 x,y,z
2 1/2-x,-y,1/2+z
3 3/4-y,1/4+x,1/4+z
4 3/4+y,3/4-x,3/4+z
5 1/2+x,1/2+y,1/2+z
6 -x,1/2-y,z
7 1/4-y,3/4+x,3/4+z
8 1/4+y,1/4-x,1/4+z
9 -x,-y,-z
10 1/2+x,y,1/2-z
11 1/4+y,3/4-x,3/4-z
12 1/4-y,1/4+x,1/4-z
13 1/2-x,1/2-y,1/2-z
14 x,1/2+y,-z
15 3/4+y,1/4-x,1/4-z
16 3/4-y,3/4+x,3/4-z
_cell_length_a                   19.7648(3)
_cell_length_b                   19.7648(3)
_cell_length_c                   11.0481(4)
_cell_angle_alpha                90
_cell_angle_beta                 90
_cell_angle_gamma                90
_cell_volume                     4315.91
loop_
_atom_site_label
_atom_site_type_symbol
_atom_site_fract_x
_atom_site_fract_y
_atom_site_fract_z
C10 C 0.5000 0.7500 -0.3750
O5 O 0.5315(17) 0.6912(8) -0.411(2)
O5E O 0.4685(17) 0.8088(8) -0.411(2)
O5K O 0.5588(8) 0.7815(17) -0.339(2)
O5N O 0.4412(8) 0.7185(17) -0.339(2)
Zn1 Zn 0.213089(14) 0.422574(14) 0.03410(2)
O1 O 0.39380(9) 0.53308(9) 0.20397(15)
O2 O 0.27968(9) 0.48647(9) 0.12083(15)
N1 N 0.32620(11) 0.51732(11) 0.04474(17)
H1 H 0.3178 0.5224 -0.0311
O3 O 0.13275(11) 0.48377(12) 0.0775(2)
C1 C 0.10167(12) 0.53183(13) 0.0299(2)
C2 C 0.38336(12) 0.53850(12) 0.0916(2)
C3 C 0.43568(12) 0.56732(12) 0.0099(2)
N2 N 0.60514(15) 0.62486(14) -0.1977(3)
H2 H 0.6413 0.6386 -0.1620
H3 H 0.6045 0.6203 -0.2751
C4 C 0.54655(14) 0.60969(14) -0.1290(3)
C5 C 0.49251(13) 0.59578(14) 0.0637(3)
H4 H 0.4938 0.6008 0.1474
C6 C 0.43326(14) 0.56290(14) -0.1163(2)
H5 H 0.3951 0.5452 -0.1542
C7 C 0.48783(15) 0.58491(15) -0.1851(3)
H6 H 0.4854 0.5832 -0.2692
C8 C 0.54734(15) 0.61685(16) -0.0050(3)
H7 H 0.5848 0.6359 0.0329
C9 C 0.04789(16) 0.56606(17) 0.1053(3)
H8 H 0.0662 0.6063 0.1412
H9 H 0.0331 0.5358 0.1680
H10 H 0.0102 0.5778 0.0547
O4 O 0.11071(11) 0.55471(12) -0.07353(18)
Zn1B Zn 0.327426(14) 0.463089(14) 0.28410(2)
Zn1C Zn 0.172574(14) 0.536911(14) -0.21590(2)
Zn1J Zn 0.672574(14) 0.536911(14) -0.28410(2)
O1C O 0.28308(9) 0.35620(9) -0.04603(15)
O2C O 0.23647(9) 0.47032(9) -0.12917(15)
N2O N 0.12514(14) 0.35514(15) -0.0523(3)
O4B O 0.19529(12) 0.36071(11) 0.17647(18)
loop_
_geom_bond_atom_site_label_1
_geom_bond_atom_site_label_2
_geom_bond_site_symmetry_1
_geom_bond_site_symmetry_2
Zn1 O2 1_555 1_555
O1 C2 1_555 1_555
O2 N1 1_555 1_555
N1 H1 1_555 1_555
O3 Zn1 1_555 1_555
C1 O3 1_555 1_555
C2 N1 1_555 1_555
C3 C2 1_555 1_555
N2 H2 1_555 1_555
H3 N2 1_555 1_555
C4 N2 1_555 1_555
C5 C3 1_555 1_555
H4 C5 1_555 1_555
C6 C3 1_555 1_555
H5 C6 1_555 1_555
C7 C4 1_555 1_555
H6 C7 1_555 1_555
C8 C4 1_555 1_555
H7 C8 1_555 1_555
C9 C1 1_555 1_555
H8 C9 1_555 1_555
H9 C9 1_555 1_555
H10 C9 1_555 1_555
O4 C1 1_555 1_555
C10 O5 1_555 1_555
Zn1B O1 1_555 1_555
Zn1C O4 1_555 1_555
Zn1J N2 1_555 1_555
O1C Zn1 1_555 1_555
O2C Zn1 1_555 1_555
N2O Zn1 1_555 1_555
O4B Zn1 1_555 1_555
O5E C10 1_555 1_555
O5K C10 1_555 1_555
O5N C10 1_555 1_555
O2 Zn1B 1_555 1_555
C5 C8 1_555 1_555
C6 C7 1_555 1_555
Zn1C O2C 1_555 1_555

#END
