
#######################################################################
#
#                 Cambridge Crystallographic Data Centre
#                                CCDC 
#
#######################################################################
#
# If this CIF has been generated from an entry in the Cambridge 
# Structural Database, then it will include bibliographic, chemical, 
# crystal, experimental, refinement or atomic coordinate data resulting 
# from the CCDC's data processing and validation procedures.
#
#######################################################################

data_RISTAQ
_symmetry_cell_setting           tetragonal
_symmetry_space_group_name_H-M   'I 41/a'
_symmetry_Int_Tables_number      88
_space_group_name_Hall           '-I 4ad'
loop_
_symmetry_equiv_pos_site_id
_symmetry_equiv_pos_as_xyz
1 x,y,z
2 1/2-x,-y,1/2+z
3 3/4-y,1/4+x,1/4+z
4 3/4+y,3/4-x,3/4+z
5 1/2+x,1/2+y,1/2+z
6 -x,1/2-y,z
7 1/4-y,3/4+x,3/4+z
8 1/4+y,1/4-x,1/4+z
9 -x,-y,-z
10 1/2+x,y,1/2-z
11 1/4+y,3/4-x,3/4-z
12 1/4-y,1/4+x,1/4-z
13 1/2-x,1/2-y,1/2-z
14 x,1/2+y,-z
15 3/4+y,1/4-x,1/4-z
16 3/4-y,3/4+x,3/4-z
_cell_length_a                   19.7107(9)
_cell_length_b                   19.7107(9)
_cell_length_c                   11.0593(10)
_cell_angle_alpha                90
_cell_angle_beta                 90
_cell_angle_gamma                90
_cell_volume                     4296.67
loop_
_atom_site_label
_atom_site_type_symbol
_atom_site_fract_x
_atom_site_fract_y
_atom_site_fract_z
Zn1 Zn 0.213310(17) 0.422169(17) 0.03531(3)
O1 O 0.28263(12) 0.35502(11) -0.04724(18)
O2 O 0.19650(14) 0.36025(13) 0.1773(2)
C1 C 0.21820(16) 0.35181(15) 0.2817(3)
C2 C 0.28816(15) 0.36634(15) -0.1589(3)
C3 C 0.31745(15) 0.31432(15) -0.2414(3)
C4 C 0.34658(19) 0.25693(17) -0.1893(3)
H1 H 0.3514 0.2548 -0.1057
C5 C 0.31253(17) 0.31728(17) -0.3672(3)
H2 H 0.2940 0.3554 -0.4042
C6 C 0.33515(19) 0.2636(2) -0.4370(3)
H3 H 0.3331 0.2665 -0.5208
C7 C 0.36111(19) 0.20507(19) -0.3823(4)
C8 C 0.3682(2) 0.20357(19) -0.2584(4)
H4 H 0.3879 0.1660 -0.2215
N1 N 0.26700(14) 0.42393(13) -0.2047(2)
H5 H 0.2726 0.4329 -0.2802
O3 O 0.23559(12) 0.46983(11) -0.12898(18)
O4 O 0.26582(14) 0.38279(14) 0.3292(2)
C9 C 0.1844(2) 0.29804(19) 0.3571(4)
H6 H 0.1434 0.2835 0.3180
H7 H 0.1738 0.3162 0.4353
H8 H 0.2145 0.2601 0.3661
N2 N 0.37559(18) 0.14584(19) -0.4519(4)
H9 H 0.4046 0.1737 -0.4866
H10 H 0.4047 0.1185 -0.4176
Zn1B Zn 0.327831(17) 0.463310(17) 0.28531(3)
Zn1C Zn 0.172169(17) 0.536690(17) -0.21469(3)
Zn1L Zn 0.286690(17) 0.077831(17) -0.53531(3)
O3B O 0.28017(11) 0.48559(12) 0.12102(18)
O4C O 0.13279(14) 0.48418(14) 0.0792(2)
N2L N 0.12441(18) 0.35416(19) -0.0481(4)
loop_
_geom_bond_atom_site_label_1
_geom_bond_atom_site_label_2
_geom_bond_site_symmetry_1
_geom_bond_site_symmetry_2
Zn1 O1 1_555 1_555
O1 C2 1_555 1_555
O2 Zn1 1_555 1_555
C1 O2 1_555 1_555
C2 C3 1_555 1_555
C3 C4 1_555 1_555
C4 H1 1_555 1_555
C5 C3 1_555 1_555
H2 C5 1_555 1_555
C6 C5 1_555 1_555
H3 C6 1_555 1_555
C7 C6 1_555 1_555
C8 C4 1_555 1_555
H4 C8 1_555 1_555
N1 C2 1_555 1_555
H5 N1 1_555 1_555
O3 Zn1 1_555 1_555
O4 C1 1_555 1_555
C9 C1 1_555 1_555
H6 C9 1_555 1_555
H7 C9 1_555 1_555
H8 C9 1_555 1_555
N2 C7 1_555 1_555
H9 N2 1_555 1_555
H10 N2 1_555 1_555
Zn1B O4 1_555 1_555
Zn1C O3 1_555 1_555
Zn1L N2 1_555 1_555
O3B Zn1 1_555 1_555
O4C Zn1 1_555 1_555
N2L Zn1 1_555 1_555
C7 C8 1_555 1_555
N1 O3 1_555 1_555
Zn1B O3B 1_555 1_555

#END
