
#######################################################################
#
#                 Cambridge Crystallographic Data Centre
#                                CCDC 
#
#######################################################################
#
# If this CIF has been generated from an entry in the Cambridge 
# Structural Database, then it will include bibliographic, chemical, 
# crystal, experimental, refinement or atomic coordinate data resulting 
# from the CCDC's data processing and validation procedures.
#
#######################################################################

data_RISVUL
_symmetry_cell_setting           monoclinic
_symmetry_space_group_name_H-M   'P 21/c'
_symmetry_Int_Tables_number      14
_space_group_name_Hall           '-P 2ybc'
loop_
_symmetry_equiv_pos_site_id
_symmetry_equiv_pos_as_xyz
1 x,y,z
2 -x,1/2+y,1/2-z
3 -x,-y,-z
4 x,1/2-y,1/2+z
_cell_length_a                   5.8519(18)
_cell_length_b                   20.846(7)
_cell_length_c                   7.412(2)
_cell_angle_alpha                90
_cell_angle_beta                 93.148(5)
_cell_angle_gamma                90
_cell_volume                     902.816
loop_
_atom_site_label
_atom_site_type_symbol
_atom_site_fract_x
_atom_site_fract_y
_atom_site_fract_z
Rb1 Rb 0.18947(8) 1.00955(2) 0.24241(6)
O1 O -0.0671(5) 0.91314(15) 0.4428(4)
O2 O 0.3775(6) 0.93503(16) 0.5483(5)
O3 O 0.5150(5) 0.86504(16) 0.7365(4)
O4 O 0.3512(6) 0.64498(16) 0.6287(5)
O5 O 0.0559(6) 0.61696(16) 0.4603(5)
O6 O 0.3268(7) 1.03788(18) -0.1415(5)
H1 H 0.382(10) 1.0686(17) -0.086(6)
H2 H 0.281(10) 1.053(2) -0.239(4)
N1 N 0.3753(6) 0.88137(18) 0.6150(5)
N2 N 0.1790(7) 0.65827(18) 0.5345(5)
C1 C -0.0063(7) 0.8557(2) 0.4619(5)
C2 C 0.2080(7) 0.8349(2) 0.5482(5)
C3 C 0.2641(7) 0.7709(2) 0.5735(5)
H3 H 0.4019 0.7594 0.6333
C4 C 0.1145(7) 0.7246(2) 0.5096(5)
C5 C -0.0968(7) 0.7407(2) 0.4243(6)
H4 H -0.1973 0.7088 0.3830
C6 C -0.1537(7) 0.8033(2) 0.4023(6)
H5 H -0.2952 0.8131 0.3458
Rb1B Rb -0.18947(8) 0.99045(2) -0.24241(6)
Rb1B_2 Rb -0.18947(8) 0.99045(2) 0.75759(6)
Rb1B_3 Rb 0.81053(8) 0.99045(2) 0.75759(6)
Rb1C Rb 0.18947(8) 0.49045(2) 0.74241(6)
Rb1A Rb -0.18947(8) 0.50955(2) 0.25759(6)
Rb1B_4 Rb 0.81053(8) 0.99045(2) -0.24241(6)
O1B O 0.0671(5) 1.08686(15) 0.5572(4)
O2B O 0.6225(6) 1.06497(16) 0.4517(5)
O3B O 0.4850(5) 1.13496(16) 0.2635(4)
O4C O 0.3512(6) 0.85502(16) 0.1287(5)
O5C O 0.0559(6) 0.88304(16) -0.0397(5)
O5A O -0.0559(6) 1.11696(16) 0.0397(5)
O6B O -0.3268(7) 0.96212(18) 0.1415(5)
O6B_2 O 0.6732(7) 0.96212(18) 0.1415(5)
H1B H -0.382(10) 0.9314(17) 0.086(6)
H1B_2 H 0.618(10) 0.9314(17) 0.086(6)
H2B H -0.281(10) 0.947(2) 0.239(4)
H2B_2 H 0.719(10) 0.947(2) 0.239(4)
loop_
_geom_bond_atom_site_label_1
_geom_bond_atom_site_label_2
_geom_bond_site_symmetry_1
_geom_bond_site_symmetry_2
Rb1 O1 1_555 1_555
O1 C1 1_555 1_555
O2 Rb1 1_555 1_555
O3 N1 1_555 1_555
O4 N2 1_555 1_555
O5 N2 1_555 1_555
O6 Rb1 1_555 1_555
H1 O6 1_555 1_555
H2 O6 1_555 1_555
N1 O2 1_555 1_555
N2 C4 1_555 1_555
C1 C2 1_555 1_555
C2 N1 1_555 1_555
C3 C2 1_555 1_555
H3 C3 1_555 1_555
C4 C3 1_555 1_555
C5 C4 1_555 1_555
H4 C5 1_555 1_555
C6 C1 1_555 1_555
H5 C6 1_555 1_555
Rb1B O6 1_555 1_555
Rb1B_2 O1 1_555 1_555
Rb1B_3 O2 1_555 1_555
Rb1C O4 1_555 1_555
Rb1A O5 1_555 1_555
Rb1B_4 O6 1_555 1_555
O1B Rb1 1_555 1_555
O2B Rb1 1_555 1_555
O3B Rb1 1_555 1_555
O4C Rb1 1_555 1_555
O5C Rb1 1_555 1_555
O5A Rb1 1_555 1_555
O6B Rb1 1_555 1_555
O6B_2 Rb1 1_555 1_555
H1B O6B 1_555 1_555
H1B_2 O6B_2 1_555 1_555
H2B O6B 1_555 1_555
H2B_2 O6B_2 1_555 1_555
O3 Rb1B_3 1_555 1_555
O5 Rb1C 1_555 1_555
C5 C6 1_555 1_555
Rb1B O5C 1_555 1_555
Rb1B O5A 1_555 1_555
Rb1B O6B 1_555 1_555
Rb1B_2 O1B 1_555 1_555
Rb1B_3 O2B 1_555 1_555
Rb1B_4 O6B_2 1_555 1_555

#END
