
#######################################################################
#
#                 Cambridge Crystallographic Data Centre
#                                CCDC 
#
#######################################################################
#
# If this CIF has been generated from an entry in the Cambridge 
# Structural Database, then it will include bibliographic, chemical, 
# crystal, experimental, refinement or atomic coordinate data resulting 
# from the CCDC's data processing and validation procedures.
#
#######################################################################

data_RISWUL
_symmetry_cell_setting           triclinic
_symmetry_space_group_name_H-M   'P -1'
_symmetry_Int_Tables_number      2
_space_group_name_Hall           '-P 1'
loop_
_symmetry_equiv_pos_site_id
_symmetry_equiv_pos_as_xyz
1 x,y,z
2 -x,-y,-z
_cell_length_a                   14.952(5)
_cell_length_b                   15.408(3)
_cell_length_c                   16.109(4)
_cell_angle_alpha                65.43(2)
_cell_angle_beta                 83.73(2)
_cell_angle_gamma                82.23(2)
_cell_volume                     3338.39
loop_
_atom_site_label
_atom_site_type_symbol
_atom_site_fract_x
_atom_site_fract_y
_atom_site_fract_z
Ca1 Ca -0.4233(1) 0.0114(1) 0.3851(1)
Ca2 Ca -0.1539(1) 0.0266(1) 0.2449(1)
Ca3 Ca 0.0000 0.0000 0.0000
O1 O -0.4829(3) -0.1364(3) 0.4082(3)
C1 C -0.5408(4) -0.1436(4) 0.4727(4)
O2 O -0.5488(3) -0.0892(3) 0.5140(3)
O3 O -0.3634(4) 0.1599(4) 0.3006(3)
C2 C -0.3250(4) 0.1946(4) 0.2218(4)
O4 O -0.2470(3) 0.1696(3) 0.2003(3)
O5 O -0.0800(4) 0.1324(4) 0.1172(4)
C3 C -0.0212(4) 0.1745(4) 0.0552(4)
O6 O 0.0010(3) 0.1543(3) -0.0128(3)
O7 O -0.0540(3) -0.1155(3) 0.3022(3)
C4 C -0.0139(4) -0.1355(4) 0.2394(4)
O8 O -0.0073(3) -0.0746(3) 0.1579(3)
O9 O -0.2457(3) -0.0395(4) 0.1835(3)
C5 C -0.3267(4) -0.0553(5) 0.2144(4)
O10 O -0.3792(3) -0.0070(3) 0.2477(3)
O11 O -0.2291(3) -0.0580(3) 0.3878(3)
C6 C -0.2527(4) -0.1105(4) 0.4684(4)
O12 O -0.3299(3) -0.0998(3) 0.5033(3)
O13 O -0.5707(3) 0.0830(4) 0.3397(3)
O14 O -0.0857(4) 0.0924(5) 0.3278(4)
O15 O 0.1605(3) -0.0196(4) 0.0018(3)
N1 N -0.6824(3) -0.1996(4) 0.5580(3)
C7 C -0.6012(4) -0.2267(4) 0.5043(4)
C8 C -0.6355(4) -0.2379(5) 0.4247(4)
C9 C -0.6893(5) -0.3260(5) 0.4563(5)
C10 C -0.6330(6) -0.4145(6) 0.5135(6)
C11 C -0.6001(6) -0.4052(5) 0.5953(6)
C12 C -0.5482(5) -0.3183(5) 0.5680(5)
N2 N -0.3399(4) 0.2737(5) 0.0588(4)
C13 C -0.3760(4) 0.2767(5) 0.1488(5)
C14 C -0.4782(5) 0.2716(7) 0.1603(7)
C15 C -0.5327(7) 0.3525(10) 0.1224(13)
C16 C -0.5091(7) 0.4389(8) 0.1379(8)
C17 C -0.4110(8) 0.4536(8) 0.1162(11)
C18 C -0.3528(7) 0.3696(6) 0.1551(8)
N3 N -0.0474(4) 0.2992(5) 0.1096(4)
C19 C 0.0253(4) 0.2491(5) 0.0654(4)
C20 C 0.0632(5) 0.3203(5) -0.0263(5)
C21 C 0.1197(6) 0.3882(6) -0.0146(6)
C22 C 0.1965(6) 0.3322(7) 0.0498(7)
C23 C 0.1579(6) 0.2670(7) 0.1408(6)
C24 C 0.1002(5) 0.1978(6) 0.1311(5)
N4 N 0.0926(3) -0.2387(4) 0.1853(3)
C25 C 0.0245(3) -0.2391(4) 0.2609(3)
C26 C -0.0562(4) -0.2921(5) 0.2595(4)
C27 C -0.0315(5) -0.3973(5) 0.2862(6)
C28 C 0.0107(6) -0.4452(5) 0.3786(6)
C29 C 0.0921(5) -0.3959(5) 0.3790(5)
C30 C 0.0684(4) -0.2891(5) 0.3518(4)
N5 N -0.4595(3) -0.1392(4) 0.2338(3)
C31 C -0.3586(3) -0.1447(4) 0.2131(4)
C32 C -0.3390(4) -0.1491(5) 0.1182(4)
C33 C -0.3604(5) -0.2428(6) 0.1193(5)
C34 C -0.3128(7) -0.3279(7) 0.1945(9)
C35 C -0.3323(6) -0.3264(6) 0.2871(7)
C36 C -0.3141(5) -0.2323(5) 0.2877(5)
N6 N -0.0917(3) -0.1539(4) 0.4955(3)
C37 C -0.1857(4) -0.1930(5) 0.5235(4)
C38 C -0.1806(4) -0.2760(5) 0.4942(4)
C39 C -0.2625(5) -0.3338(5) 0.5331(5)
C40 C -0.2695(6) -0.3736(6) 0.6372(5)
C41 C -0.2779(5) -0.2914(6) 0.6679(5)
C42 C -0.2012(4) -0.2273(5) 0.6288(4)
H1 H -0.5784 -0.2470 0.3807
H2 H -0.6784 -0.1743 0.3870
H3 H -0.7501 -0.3149 0.4955
H4 H -0.7092 -0.3324 0.3961
H5 H -0.6720 -0.4763 0.5382
H6 H -0.5744 -0.4284 0.4719
H7 H -0.6571 -0.3990 0.6393
H8 H -0.5555 -0.4692 0.6323
H9 H -0.4837 -0.3300 0.5325
H10 H -0.5337 -0.3107 0.6285
H11 H -0.4978 0.2429 0.2331
H12 H -0.4931 0.2194 0.1344
H13 H -0.5244 0.3744 0.0452
H14 H -0.6025 0.3409 0.1408
H15 H -0.5530 0.5016 0.1000
H16 H -0.5243 0.4202 0.2109
H17 H -0.3934 0.5106 0.1355
H18 H -0.3964 0.4848 0.0390
H19 H -0.2826 0.3820 0.1240
H20 H -0.3498 0.3549 0.2270
H21 H 0.0094 0.3606 -0.0682
H22 H 0.1075 0.2802 -0.0588
H23 H 0.1476 0.4345 -0.0806
H24 H 0.0759 0.4325 0.0145
H25 H 0.2348 0.3820 0.0589
H26 H 0.2404 0.2900 0.0198
H27 H 0.2132 0.2270 0.1837
H28 H 0.1168 0.3100 0.1719
H29 H 0.0683 0.1546 0.1987
H30 H 0.1420 0.1475 0.1080
H31 H -0.0801 -0.2590 0.1908
H32 H -0.1098 -0.2817 0.3065
H33 H -0.0918 -0.4309 0.2887
H34 H 0.0166 -0.4075 0.2342
H35 H 0.0318 -0.5200 0.3939
H36 H -0.0396 -0.4410 0.4314
H37 H 0.1160 -0.4275 0.4483
H38 H 0.1448 -0.4075 0.3331
H39 H 0.1311 -0.2566 0.3457
H40 H 0.0241 -0.2773 0.4044
H41 H -0.2680 -0.1408 0.0983
H42 H -0.3791 -0.0899 0.0694
H43 H -0.4331 -0.2469 0.1298
H44 H -0.3388 -0.2450 0.0533
H45 H -0.2393 -0.3291 0.1810
H46 H -0.3322 -0.3956 0.1994
H47 H -0.4028 -0.3367 0.3058
H48 H -0.2911 -0.3840 0.3357
H49 H -0.2422 -0.2271 0.2807
H50 H -0.3402 -0.2312 0.3534
H51 H -0.1786 -0.2471 0.4198
H52 H -0.1195 -0.3229 0.5173
H53 H -0.2549 -0.3925 0.5115
H54 H -0.3227 -0.2878 0.5064
H55 H -0.3291 -0.4130 0.6619
H56 H -0.2104 -0.4220 0.6636
H57 H -0.2788 -0.3208 0.7410
H58 H -0.3415 -0.2478 0.6454
H59 H -0.2189 -0.1628 0.6427
H60 H -0.1403 -0.2642 0.6608
O2A O -0.4512(3) 0.0892(3) 0.4860(3)
Ca1A Ca -0.5767(1) -0.0114(1) 0.6149(1)
O1A O -0.5171(3) 0.1364(3) 0.5918(3)
C1A C -0.4592(4) 0.1436(4) 0.5273(4)
C7A C -0.3988(4) 0.2267(4) 0.4957(4)
N1A N -0.3176(3) 0.1996(4) 0.4420(3)
C8A C -0.3645(4) 0.2379(5) 0.5753(4)
C9A C -0.3107(5) 0.3260(5) 0.5437(5)
C10A C -0.3670(6) 0.4145(6) 0.4865(6)
C11A C -0.3999(6) 0.4052(5) 0.4047(6)
C12A C -0.4518(5) 0.3183(5) 0.4320(5)
H9A H -0.5163 0.3300 0.4675
H10A H -0.4663 0.3107 0.3715
H7A H -0.3429 0.3990 0.3607
H8A H -0.4445 0.4692 0.3677
H5A H -0.3280 0.4763 0.4618
H6A H -0.4256 0.4284 0.5281
H3A H -0.2499 0.3149 0.5045
H4A H -0.2908 0.3324 0.6039
H1A H -0.4216 0.2470 0.6193
H2A H -0.3216 0.1743 0.6130
O3A O -0.6366(4) -0.1599(4) 0.6994(3)
C2A C -0.6750(4) -0.1946(4) 0.7782(4)
O4A O -0.7530(3) -0.1696(3) 0.7997(3)
Ca2A Ca -0.8461(1) -0.0266(1) 0.7551(1)
O5A O -0.9200(4) -0.1324(4) 0.8828(4)
C3A C -0.9788(4) -0.1745(4) 0.9448(4)
O6A O -1.0010(3) -0.1543(3) 1.0128(3)
Ca3A Ca -1.0000 0.0000 1.0000
O8A O -0.9927(3) 0.0746(3) 0.8421(3)
C4A C -0.9861(4) 0.1355(4) 0.7606(4)
O7A O -0.9460(3) 0.1155(3) 0.6978(3)
O9A O -0.7543(3) 0.0395(4) 0.8165(3)
C5A C -0.6733(4) 0.0553(5) 0.7856(4)
O10A O -0.6208(3) 0.0070(3) 0.7523(3)
O12A O -0.6701(3) 0.0998(3) 0.4967(3)
C6A C -0.7473(4) 0.1105(4) 0.5316(4)
O11A O -0.7709(3) 0.0580(3) 0.6122(3)
O14A O -0.9143(4) -0.0924(5) 0.6722(4)
C37A C -0.8143(4) 0.1930(5) 0.4765(4)
N6A N -0.9083(3) 0.1539(4) 0.5045(3)
C38A C -0.8194(4) 0.2760(5) 0.5058(4)
C39A C -0.7375(5) 0.3338(5) 0.4669(5)
C40A C -0.7305(6) 0.3736(6) 0.3628(5)
C41A C -0.7221(5) 0.2914(6) 0.3321(5)
C42A C -0.7988(4) 0.2273(5) 0.3712(4)
H59A H -0.7811 0.1628 0.3573
H60A H -0.8597 0.2642 0.3392
H57A H -0.7212 0.3208 0.2590
H58A H -0.6585 0.2478 0.3546
H55A H -0.6709 0.4130 0.3381
H56A H -0.7896 0.4220 0.3364
H53A H -0.7451 0.3925 0.4885
H54A H -0.6773 0.2878 0.4936
H51A H -0.8214 0.2471 0.5802
H52A H -0.8805 0.3229 0.4827
O13A O -0.4293(3) -0.0830(4) 0.6603(3)
C31A C -0.6414(3) 0.1447(4) 0.7869(4)
N5A N -0.5405(3) 0.1392(4) 0.7662(3)
C32A C -0.6610(4) 0.1491(5) 0.8818(4)
C33A C -0.6396(5) 0.2428(6) 0.8807(5)
C34A C -0.6872(7) 0.3279(7) 0.8055(9)
C35A C -0.6677(6) 0.3264(6) 0.7129(7)
C36A C -0.6859(5) 0.2323(5) 0.7123(5)
H49A H -0.7578 0.2271 0.7193
H50A H -0.6598 0.2312 0.6466
H47A H -0.5972 0.3367 0.6942
H48A H -0.7089 0.3840 0.6643
H45A H -0.7607 0.3291 0.8190
H46A H -0.6678 0.3956 0.8006
H43A H -0.5669 0.2469 0.8702
H44A H -0.6612 0.2450 0.9467
H41A H -0.7320 0.1408 0.9017
H42A H -0.6209 0.0899 0.9306
C25A C -1.0245(3) 0.2391(4) 0.7391(3)
N4A N -1.0926(3) 0.2387(4) 0.8147(3)
C26A C -0.9438(4) 0.2921(5) 0.7405(4)
C27A C -0.9685(5) 0.3973(5) 0.7138(6)
C28A C -1.0107(6) 0.4452(5) 0.6214(6)
C29A C -1.0921(5) 0.3959(5) 0.6210(5)
C30A C -1.0684(4) 0.2891(5) 0.6482(4)
H39A H -1.1311 0.2566 0.6543
H40A H -1.0241 0.2773 0.5956
H37A H -1.1160 0.4275 0.5517
H38A H -1.1448 0.4075 0.6669
H35A H -1.0318 0.5200 0.6061
H36A H -0.9604 0.4410 0.5686
H33A H -0.9082 0.4309 0.7113
H34A H -1.0166 0.4075 0.7658
H31A H -0.9199 0.2590 0.8092
H32A H -0.8902 0.2817 0.6935
C19A C -1.0253(4) -0.2491(5) 0.9346(4)
N3A N -0.9526(4) -0.2992(5) 0.8904(4)
C20A C -1.0632(5) -0.3203(5) 1.0263(5)
C21A C -1.1197(6) -0.3882(6) 1.0146(6)
C22A C -1.1965(6) -0.3322(7) 0.9502(7)
C23A C -1.1579(6) -0.2670(7) 0.8592(6)
C24A C -1.1002(5) -0.1978(6) 0.8689(5)
H29A H -1.0683 -0.1546 0.8013
H30A H -1.1420 -0.1475 0.8920
H27A H -1.2132 -0.2270 0.8163
H28A H -1.1168 -0.3100 0.8281
H25A H -1.2348 -0.3820 0.9411
H26A H -1.2404 -0.2900 0.9802
H23A H -1.1476 -0.4345 1.0806
H24A H -1.0759 -0.4325 0.9855
H21A H -1.0094 -0.3606 1.0682
H22A H -1.1075 -0.2802 1.0588
C13A C -0.6240(4) -0.2767(5) 0.8512(5)
N2A N -0.6601(4) -0.2737(5) 0.9412(4)
C14A C -0.5218(5) -0.2716(7) 0.8397(7)
C15A C -0.4673(7) -0.3525(10) 0.8776(13)
C16A C -0.4909(7) -0.4389(8) 0.8621(8)
C17A C -0.5890(8) -0.4536(8) 0.8838(11)
C18A C -0.6472(7) -0.3696(6) 0.8449(8)
H19A H -0.7174 -0.3820 0.8760
H20A H -0.6502 -0.3549 0.7730
H17A H -0.6066 -0.5106 0.8645
H18A H -0.6036 -0.4848 0.9610
H15A H -0.4470 -0.5016 0.9000
H16A H -0.4757 -0.4202 0.7891
H13A H -0.4756 -0.3744 0.9548
H14A H -0.3975 -0.3409 0.8592
H11A H -0.5022 -0.2429 0.7669
H12A H -0.5069 -0.2194 0.8656
O6A_2 O -0.0010(3) -0.1543(3) 0.0128(3)
O8A_2 O 0.0073(3) 0.0746(3) -0.1579(3)
O15A O -0.1605(3) 0.0196(4) -0.0018(3)
Cl1 Cl -0.0995(1) -0.6593(1) 0.3231(1)
O16 O -0.1600(5) -0.7223(5) 0.3277(6)
O17 O -0.0379(7) -0.6945(9) 0.3791(9)
O18 O -0.0680(6) -0.6030(6) 0.2363(5)
O19 O -0.1496(10) -0.5964(10) 0.3542(10)
Cl2 Cl 0.3675(1) 0.0535(1) 0.1393(1)
O20 O 0.3624(4) -0.0201(5) 0.2302(4)
O21 O 0.4467(4) 0.0276(5) 0.0908(4)
O22 O 0.3766(6) 0.1402(5) 0.1454(7)
O23 O 0.2895(3) 0.0631(4) 0.0932(4)
Cl3 Cl 0.1408(1) 0.9604(1) 0.4035(1)
O24 O 0.2237(4) 0.9748(5) 0.4297(6)
O25 O 0.1432(6) 0.9804(7) 0.3113(5)
O26 O 0.0728(5) 1.0265(7) 0.4184(7)
O27 O 0.1205(6) 0.8673(5) 0.4532(6)
Cl4 Cl 0.3878(1) 0.6770(1) 0.2076(1)
O28 O 0.4183(5) 0.6637(5) 0.1284(4)
O29 O 0.2966(4) 0.6591(6) 0.2358(5)
O30 O 0.3961(4) 0.7745(5) 0.1898(5)
O31 O 0.4453(6) 0.6207(9) 0.2763(5)
Cl5 Cl 0.1865(1) 0.5702(1) 0.0924(1)
O32 O 0.1738(4) 0.6682(5) 0.0623(6)
O33 O 0.2791(4) 0.5331(5) 0.0978(5)
O34 O 0.1451(10) 0.5514(9) 0.0348(12)
O35 O 0.1426(6) 0.5317(10) 0.1683(8)
O36 O 0.3908(4) 0.8755(5) 0.9767(4)
O37 O 0.2169(4) 0.8750(5) 0.1926(5)
loop_
_geom_bond_atom_site_label_1
_geom_bond_atom_site_label_2
_geom_bond_site_symmetry_1
_geom_bond_site_symmetry_2
Ca1 O1 1_555 1_555
Ca2 O4 1_555 1_555
Ca3 O6 1_555 1_555
O1 C1 1_555 1_555
C1 O2 1_555 1_555
O2 Ca1 1_555 1_555
O3 Ca1 1_555 1_555
C2 O3 1_555 1_555
O4 C2 1_555 1_555
O5 Ca2 1_555 1_555
C3 O5 1_555 1_555
O6 C3 1_555 1_555
O7 Ca2 1_555 1_555
C4 O7 1_555 1_555
O8 Ca3 1_555 1_555
O9 Ca2 1_555 1_555
C5 O9 1_555 1_555
O10 Ca1 1_555 1_555
O11 Ca2 1_555 1_555
C6 O11 1_555 1_555
O12 Ca1 1_555 1_555
O13 Ca1 1_555 1_555
O14 Ca2 1_555 1_555
O15 Ca3 1_555 1_555
N1 C7 1_555 1_555
C7 C1 1_555 1_555
C8 C7 1_555 1_555
C9 C8 1_555 1_555
C10 C9 1_555 1_555
C11 C10 1_555 1_555
C12 C7 1_555 1_555
N2 C13 1_555 1_555
C13 C2 1_555 1_555
C14 C13 1_555 1_555
C15 C14 1_555 1_555
C16 C15 1_555 1_555
C17 C16 1_555 1_555
C18 C13 1_555 1_555
N3 C19 1_555 1_555
C19 C3 1_555 1_555
C20 C19 1_555 1_555
C21 C20 1_555 1_555
C22 C21 1_555 1_555
C23 C22 1_555 1_555
C24 C19 1_555 1_555
N4 C25 1_555 1_555
C25 C4 1_555 1_555
C26 C25 1_555 1_555
C27 C26 1_555 1_555
C28 C27 1_555 1_555
C29 C28 1_555 1_555
C30 C25 1_555 1_555
N5 C31 1_555 1_555
C31 C5 1_555 1_555
C32 C31 1_555 1_555
C33 C32 1_555 1_555
C34 C33 1_555 1_555
C35 C34 1_555 1_555
C36 C31 1_555 1_555
N6 C37 1_555 1_555
C37 C6 1_555 1_555
C38 C37 1_555 1_555
C39 C38 1_555 1_555
C40 C39 1_555 1_555
C41 C40 1_555 1_555
C42 C37 1_555 1_555
Cl1 O16 1_555 1_555
O17 Cl1 1_555 1_555
O18 Cl1 1_555 1_555
O19 Cl1 1_555 1_555
Cl2 O20 1_555 1_555
O21 Cl2 1_555 1_555
O22 Cl2 1_555 1_555
O23 Cl2 1_555 1_555
Cl3 O24 1_555 1_555
O25 Cl3 1_555 1_555
O26 Cl3 1_555 1_555
O27 Cl3 1_555 1_555
Cl4 O28 1_555 1_555
O29 Cl4 1_555 1_555
O30 Cl4 1_555 1_555
O31 Cl4 1_555 1_555
Cl5 O32 1_555 1_555
O33 Cl5 1_555 1_555
O34 Cl5 1_555 1_555
O35 Cl5 1_555 1_555
H1 C8 1_555 1_555
H2 C8 1_555 1_555
H3 C9 1_555 1_555
H4 C9 1_555 1_555
H5 C10 1_555 1_555
H6 C10 1_555 1_555
H7 C11 1_555 1_555
H8 C11 1_555 1_555
H9 C12 1_555 1_555
H10 C12 1_555 1_555
H11 C14 1_555 1_555
H12 C14 1_555 1_555
H13 C15 1_555 1_555
H14 C15 1_555 1_555
H15 C16 1_555 1_555
H16 C16 1_555 1_555
H17 C17 1_555 1_555
H18 C17 1_555 1_555
H19 C18 1_555 1_555
H20 C18 1_555 1_555
H21 C20 1_555 1_555
H22 C20 1_555 1_555
H23 C21 1_555 1_555
H24 C21 1_555 1_555
H25 C22 1_555 1_555
H26 C22 1_555 1_555
H27 C23 1_555 1_555
H28 C23 1_555 1_555
H29 C24 1_555 1_555
H30 C24 1_555 1_555
H31 C26 1_555 1_555
H32 C26 1_555 1_555
H33 C27 1_555 1_555
H34 C27 1_555 1_555
H35 C28 1_555 1_555
H36 C28 1_555 1_555
H37 C29 1_555 1_555
H38 C29 1_555 1_555
H39 C30 1_555 1_555
H40 C30 1_555 1_555
H41 C32 1_555 1_555
H42 C32 1_555 1_555
H43 C33 1_555 1_555
H44 C33 1_555 1_555
H45 C34 1_555 1_555
H46 C34 1_555 1_555
H47 C35 1_555 1_555
H48 C35 1_555 1_555
H49 C36 1_555 1_555
H50 C36 1_555 1_555
H51 C38 1_555 1_555
H52 C38 1_555 1_555
H53 C39 1_555 1_555
H54 C39 1_555 1_555
H55 C40 1_555 1_555
H56 C40 1_555 1_555
H57 C41 1_555 1_555
H58 C41 1_555 1_555
H59 C42 1_555 1_555
H60 C42 1_555 1_555
O2A Ca1 1_555 1_555
Ca1A O2 1_555 1_555
O1A Ca1A 1_555 1_555
C1A O2A 1_555 1_555
C7A C1A 1_555 1_555
N1A C7A 1_555 1_555
C8A C7A 1_555 1_555
C9A C8A 1_555 1_555
C10A C9A 1_555 1_555
C11A C10A 1_555 1_555
C12A C7A 1_555 1_555
H9A C12A 1_555 1_555
H10A C12A 1_555 1_555
H7A C11A 1_555 1_555
H8A C11A 1_555 1_555
H5A C10A 1_555 1_555
H6A C10A 1_555 1_555
H3A C9A 1_555 1_555
H4A C9A 1_555 1_555
H1A C8A 1_555 1_555
H2A C8A 1_555 1_555
O3A Ca1A 1_555 1_555
C2A O3A 1_555 1_555
O4A C2A 1_555 1_555
Ca2A O4A 1_555 1_555
O5A Ca2A 1_555 1_555
C3A O5A 1_555 1_555
O6A C3A 1_555 1_555
Ca3A O6A 1_555 1_555
O8A Ca3A 1_555 1_555
C4A O8A 1_555 1_555
O7A Ca2A 1_555 1_555
O9A Ca2A 1_555 1_555
C5A O9A 1_555 1_555
O10A Ca1A 1_555 1_555
O12A Ca1A 1_555 1_555
C6A O12A 1_555 1_555
O11A Ca2A 1_555 1_555
O14A Ca2A 1_555 1_555
C37A C6A 1_555 1_555
N6A C37A 1_555 1_555
C38A C37A 1_555 1_555
C39A C38A 1_555 1_555
C40A C39A 1_555 1_555
C41A C40A 1_555 1_555
C42A C37A 1_555 1_555
H59A C42A 1_555 1_555
H60A C42A 1_555 1_555
H57A C41A 1_555 1_555
H58A C41A 1_555 1_555
H55A C40A 1_555 1_555
H56A C40A 1_555 1_555
H53A C39A 1_555 1_555
H54A C39A 1_555 1_555
H51A C38A 1_555 1_555
H52A C38A 1_555 1_555
O13A Ca1A 1_555 1_555
C31A C5A 1_555 1_555
N5A C31A 1_555 1_555
C32A C31A 1_555 1_555
C33A C32A 1_555 1_555
C34A C33A 1_555 1_555
C35A C34A 1_555 1_555
C36A C31A 1_555 1_555
H49A C36A 1_555 1_555
H50A C36A 1_555 1_555
H47A C35A 1_555 1_555
H48A C35A 1_555 1_555
H45A C34A 1_555 1_555
H46A C34A 1_555 1_555
H43A C33A 1_555 1_555
H44A C33A 1_555 1_555
H41A C32A 1_555 1_555
H42A C32A 1_555 1_555
C25A C4A 1_555 1_555
N4A C25A 1_555 1_555
C26A C25A 1_555 1_555
C27A C26A 1_555 1_555
C28A C27A 1_555 1_555
C29A C28A 1_555 1_555
C30A C25A 1_555 1_555
H39A C30A 1_555 1_555
H40A C30A 1_555 1_555
H37A C29A 1_555 1_555
H38A C29A 1_555 1_555
H35A C28A 1_555 1_555
H36A C28A 1_555 1_555
H33A C27A 1_555 1_555
H34A C27A 1_555 1_555
H31A C26A 1_555 1_555
H32A C26A 1_555 1_555
C19A C3A 1_555 1_555
N3A C19A 1_555 1_555
C20A C19A 1_555 1_555
C21A C20A 1_555 1_555
C22A C21A 1_555 1_555
C23A C22A 1_555 1_555
C24A C19A 1_555 1_555
H29A C24A 1_555 1_555
H30A C24A 1_555 1_555
H27A C23A 1_555 1_555
H28A C23A 1_555 1_555
H25A C22A 1_555 1_555
H26A C22A 1_555 1_555
H23A C21A 1_555 1_555
H24A C21A 1_555 1_555
H21A C20A 1_555 1_555
H22A C20A 1_555 1_555
C13A C2A 1_555 1_555
N2A C13A 1_555 1_555
C14A C13A 1_555 1_555
C15A C14A 1_555 1_555
C16A C15A 1_555 1_555
C17A C16A 1_555 1_555
C18A C13A 1_555 1_555
H19A C18A 1_555 1_555
H20A C18A 1_555 1_555
H17A C17A 1_555 1_555
H18A C17A 1_555 1_555
H15A C16A 1_555 1_555
H16A C16A 1_555 1_555
H13A C15A 1_555 1_555
H14A C15A 1_555 1_555
H11A C14A 1_555 1_555
H12A C14A 1_555 1_555
O6A_2 Ca3 1_555 1_555
O8A_2 Ca3 1_555 1_555
O15A Ca3 1_555 1_555
C4 O8 1_555 1_555
C5 O10 1_555 1_555
C6 O12 1_555 1_555
C11 C12 1_555 1_555
C17 C18 1_555 1_555
C23 C24 1_555 1_555
C29 C30 1_555 1_555
C35 C36 1_555 1_555
C41 C42 1_555 1_555
O2A Ca1A 1_555 1_555
O1A C1A 1_555 1_555
C11A C12A 1_555 1_555
C4A O7A 1_555 1_555
C5A O10A 1_555 1_555
C6A O11A 1_555 1_555
C41A C42A 1_555 1_555
C35A C36A 1_555 1_555
C29A C30A 1_555 1_555
C23A C24A 1_555 1_555
C17A C18A 1_555 1_555

#END
