
#######################################################################
#
#                 Cambridge Crystallographic Data Centre
#                                CCDC 
#
#######################################################################
#
# If this CIF has been generated from an entry in the Cambridge 
# Structural Database, then it will include bibliographic, chemical, 
# crystal, experimental, refinement or atomic coordinate data resulting 
# from the CCDC's data processing and validation procedures.
#
#######################################################################

data_RISWAR
_symmetry_cell_setting           monoclinic
_symmetry_space_group_name_H-M   'P 21/n'
_symmetry_Int_Tables_number      14
_space_group_name_Hall           '-P 2yn'
loop_
_symmetry_equiv_pos_site_id
_symmetry_equiv_pos_as_xyz
1 x,y,z
2 1/2-x,1/2+y,1/2-z
3 -x,-y,-z
4 1/2+x,1/2-y,1/2+z
_cell_length_a                   8.684(1)
_cell_length_b                   14.692(3)
_cell_length_c                   12.419(2)
_cell_angle_alpha                90
_cell_angle_beta                 91.98(1)
_cell_angle_gamma                90
_cell_volume                     1583.54
loop_
_atom_site_label
_atom_site_type_symbol
_atom_site_fract_x
_atom_site_fract_y
_atom_site_fract_z
Mn1 Mn 0.20910(5) 0.25925(3) 0.75026(3)
Na1 Na 0.5076(2) 0.01294(8) 0.6516(1)
O1 O 0.3765(2) 0.1491(1) 0.7498(2)
O2 O 0.4460(3) 0.0252(2) 0.8425(2)
O3 O 0.0056(3) 0.6074(2) 1.0017(2)
O4 O 0.0524(2) 0.3465(1) 0.8339(1)
O5 O 0.0492(2) 0.1791(1) 0.6901(1)
O6 O 0.3658(2) 0.3556(1) 0.7562(2)
O7 O -0.0527(3) 0.1235(2) 0.5355(2)
O8 O 0.4759(3) 0.4653(2) 0.6603(2)
O9 O -0.2783(3) 0.5145(2) 0.8200(2)
O10 O 0.2685(6) 0.5048(3) 0.9040(5)
N1 N 0.2213(2) 0.2141(1) 0.9053(2)
N2 N 0.2172(2) 0.2914(2) 0.5987(2)
C1 C 0.3836(3) 0.0997(2) 0.8343(2)
C2 C 0.3078(3) 0.1419(2) 0.9305(2)
C3 C 0.3283(3) 0.1133(2) 1.0367(2)
C4 C 0.2567(4) 0.1633(2) 1.1156(2)
C5 C 0.1663(4) 0.2372(2) 1.0883(2)
C6 C 0.1493(3) 0.2613(2) 0.9812(2)
C7 C 0.0568(3) 0.3404(2) 0.9360(2)
C8 C 0.0360(3) 0.1733(2) 0.5851(2)
C9 C 0.1374(3) 0.2394(2) 0.5279(2)
C10 C 0.1545(4) 0.2519(2) 0.4190(2)
C11 C 0.2525(4) 0.3202(2) 0.3869(2)
C12 C 0.3317(4) 0.3751(2) 0.4618(2)
C13 C 0.3120(3) 0.3572(2) 0.5694(2)
C14 C 0.3925(3) 0.3996(2) 0.6676(2)
H1 H 0.3890 0.0613 1.0546
H2 H 0.2704 0.1464 1.1892
H3 H 0.1164 0.2710 1.1422
H4 H 0.1007 0.2148 0.3676
H5 H 0.2661 0.3299 0.3122
H6 H 0.3968 0.4230 0.4395
H7 H -0.3275 0.5455 0.8697
H8 H -0.3496 0.4916 0.7698
Na1A Na -0.0076(2) 0.51294(8) 0.8484(1)
O1A O 0.1235(2) 0.6491(1) 0.7502(2)
Na1C Na 0.0076(2) 0.48706(8) 1.1516(1)
O3B O -0.0056(3) 0.3926(2) 0.9983(2)
O2A O 0.0540(3) 0.5252(2) 0.6575(2)
loop_
_geom_bond_atom_site_label_1
_geom_bond_atom_site_label_2
_geom_bond_site_symmetry_1
_geom_bond_site_symmetry_2
Mn1 O1 1_555 1_555
Na1 O1 1_555 1_555
O1 C1 1_555 1_555
O2 Na1 1_555 1_555
O3 Na1A 1_555 1_555
O4 Mn1 1_555 1_555
O5 Mn1 1_555 1_555
O6 Mn1 1_555 1_555
O7 C8 1_555 1_555
O8 C14 1_555 1_555
O9 H7 1_555 1_555
O10 Na1A 1_555 1_555
N1 Mn1 1_555 1_555
N2 Mn1 1_555 1_555
C1 O2 1_555 1_555
C2 N1 1_555 1_555
C3 C2 1_555 1_555
C4 C3 1_555 1_555
C5 C4 1_555 1_555
C6 N1 1_555 1_555
C7 O4 1_555 1_555
C8 O5 1_555 1_555
C9 N2 1_555 1_555
C10 C9 1_555 1_555
C11 C10 1_555 1_555
C12 C11 1_555 1_555
C13 N2 1_555 1_555
C14 O6 1_555 1_555
H1 C3 1_555 1_555
H2 C4 1_555 1_555
H3 C5 1_555 1_555
H4 C10 1_555 1_555
H5 C11 1_555 1_555
H6 C12 1_555 1_555
H8 O9 1_555 1_555
Na1A O4 1_555 1_555
O1A Na1A 1_555 1_555
Na1C O3 1_555 1_555
O3B C7 1_555 1_555
O2A Na1A 1_555 1_555
O9 Na1A 1_555 1_555
C1 C2 1_555 1_555
C5 C6 1_555 1_555
C6 C7 1_555 1_555
C8 C9 1_555 1_555
C12 C13 1_555 1_555
C13 C14 1_555 1_555
Na1A O3B 1_555 1_555
Na1C O3B 1_555 1_555

#END
