
#######################################################################
#
#                 Cambridge Crystallographic Data Centre
#                                CCDC 
#
#######################################################################
#
# If this CIF has been generated from an entry in the Cambridge 
# Structural Database, then it will include bibliographic, chemical, 
# crystal, experimental, refinement or atomic coordinate data resulting 
# from the CCDC's data processing and validation procedures.
#
#######################################################################

data_RISXAT
_symmetry_cell_setting           orthorhombic
_symmetry_space_group_name_H-M   'P b c a'
_symmetry_Int_Tables_number      61
_space_group_name_Hall           '-P 2ac 2ab'
loop_
_symmetry_equiv_pos_site_id
_symmetry_equiv_pos_as_xyz
1 x,y,z
2 1/2-x,-y,1/2+z
3 -x,1/2+y,1/2-z
4 1/2+x,1/2-y,-z
5 -x,-y,-z
6 1/2+x,y,1/2-z
7 x,1/2-y,1/2+z
8 1/2-x,1/2+y,z
_cell_length_a                   13.8147(3)
_cell_length_b                   6.7850(2)
_cell_length_c                   21.7103(5)
_cell_angle_alpha                90
_cell_angle_beta                 90
_cell_angle_gamma                90
_cell_volume                     2034.97
loop_
_atom_site_label
_atom_site_type_symbol
_atom_site_fract_x
_atom_site_fract_y
_atom_site_fract_z
Ho1 Ho 0.830676(8) 1.016049(15) 0.554834(5)
O1 O 0.86282(15) 1.0368(2) 0.45156(8)
O2 O 1.01131(12) 0.9282(3) 0.43269(7)
C1 C 0.92600(17) 0.9674(3) 0.41630(11)
C2 C 0.89870(17) 0.9259(3) 0.35070(10)
C3 C 0.96527(18) 0.8440(4) 0.31009(11)
H1 H 1.0274 0.8143 0.3237
C4 C 0.93977(19) 0.8064(4) 0.24966(11)
H2 H 0.9846 0.7510 0.2228
C5 C 0.84715(17) 0.8514(3) 0.22885(11)
C6 C 0.81879(18) 0.8035(3) 0.16377(11)
C7 C 0.78017(19) 0.9332(4) 0.26926(11)
H3 H 0.7181 0.9634 0.2555
C8 C 0.8056(2) 0.9698(4) 0.32984(13)
H4 H 0.7605 1.0240 0.3568
O3 O 0.87624(13) 0.6998(3) 0.13253(8)
O4 O 0.73920(13) 0.8685(3) 0.14403(7)
O5 O 0.66712(11) 0.8691(3) 0.54719(8)
O6 O 0.67647(11) 1.1742(2) 0.51694(8)
C9 C 0.6257(2) 1.0274(3) 0.53160(14)
C10 C 0.5157(2) 1.0403(4) 0.53093(15)
H5 H 0.4883 0.9627 0.5641
H6 H 0.4948 1.1760 0.5356
Ho1D Ho 1.169324(8) 0.983951(15) 0.445166(5)
Ho1F Ho 0.830676(8) 0.483951(15) 0.054834(5)
Ho1A Ho 0.669324(8) 0.983951(15) 0.054834(5)
Ho1G Ho 0.669324(8) 0.516049(15) 0.554834(5)
Ho1G_2 Ho 0.669324(8) 1.516049(15) 0.554834(5)
Ho1D_2 Ho 0.169324(8) 0.983951(15) 0.445166(5)
Ho1C Ho 0.330676(8) 1.483951(15) 0.445166(5)
Ho1C_2 Ho 0.330676(8) 0.483951(15) 0.445166(5)
Ho1B Ho 1.169324(8) 1.516049(15) 0.945166(5)
Ho1E Ho 1.330676(8) 1.016049(15) 0.945166(5)
O1D O 1.13718(15) 0.9632(2) 0.54844(8)
O2D O 0.98869(12) 1.0718(3) 0.56731(7)
C1D C 1.07400(17) 1.0326(3) 0.58370(11)
C2D C 1.10130(17) 1.0741(3) 0.64930(10)
C3D C 1.03473(18) 1.1560(4) 0.68991(11)
H1D H 0.9726 1.1857 0.6763
C4D C 1.06023(19) 1.1936(4) 0.75034(11)
H2D H 1.0154 1.2490 0.7772
C5D C 1.15285(17) 1.1486(3) 0.77115(11)
C6D C 1.18121(18) 1.1965(3) 0.83623(11)
C7D C 1.21983(19) 1.0668(4) 0.73074(11)
H3D H 1.2819 1.0366 0.7445
C8D C 1.1944(2) 1.0302(4) 0.67016(13)
H4D H 1.2395 0.9760 0.6432
O3D O 1.12376(13) 1.3002(3) 0.86747(8)
O3F O 0.87624(13) 0.8002(3) 0.63253(8)
O3B O 1.12376(13) 1.1998(3) 0.36747(8)
O4D O 1.26080(13) 1.1315(3) 0.85597(7)
O4A O 0.76080(13) 1.1315(3) 0.64403(7)
O4E O 1.23920(13) 0.8685(3) 0.35597(7)
O5D O 0.33288(11) 1.1309(3) 0.45281(8)
O5G O 0.83288(11) 1.3691(3) 0.54719(8)
O5D_2 O 1.33288(11) 1.1309(3) 0.45281(8)
O5C O 1.16712(11) 0.6309(3) 0.45281(8)
O6D O 0.32353(11) 0.8258(2) 0.48306(8)
O6G O 0.82353(11) 0.6742(2) 0.51694(8)
O6D_2 O 1.32353(11) 0.8258(2) 0.48306(8)
O6C O 1.17647(11) 1.3258(2) 0.48306(8)
C9D C 0.3743(2) 0.9726(3) 0.46840(14)
C10D C 0.4843(2) 0.9597(4) 0.46907(15)
H5D H 0.5117 1.0373 0.4359
H6D H 0.5052 0.8240 0.4644
loop_
_geom_bond_atom_site_label_1
_geom_bond_atom_site_label_2
_geom_bond_site_symmetry_1
_geom_bond_site_symmetry_2
Ho1 O1 1_555 1_555
O1 C1 1_555 1_555
O2 C1 1_555 1_555
C1 C2 1_555 1_555
C2 C3 1_555 1_555
C3 H1 1_555 1_555
C4 C3 1_555 1_555
H2 C4 1_555 1_555
C5 C4 1_555 1_555
C6 C5 1_555 1_555
C7 C5 1_555 1_555
H3 C7 1_555 1_555
C8 C2 1_555 1_555
H4 C8 1_555 1_555
O3 C6 1_555 1_555
O4 C6 1_555 1_555
O5 Ho1 1_555 1_555
O6 Ho1 1_555 1_555
C9 O5 1_555 1_555
C10 C9 1_555 1_555
H5 C10 1_555 1_555
H6 C10 1_555 1_555
Ho1D O2 1_555 1_555
Ho1F O3 1_555 1_555
Ho1A O4 1_555 1_555
Ho1G O5 1_555 1_555
Ho1G_2 O6 1_555 1_555
Ho1D_2 O5D 1_555 1_555
Ho1C O5D 1_555 1_555
Ho1C_2 O6D 1_555 1_555
Ho1B O3D 1_555 1_555
Ho1E O4D 1_555 1_555
O1D Ho1D 1_555 1_555
O2D Ho1 1_555 1_555
C1D O1D 1_555 1_555
C2D C1D 1_555 1_555
C3D C2D 1_555 1_555
H1D C3D 1_555 1_555
C4D C3D 1_555 1_555
H2D C4D 1_555 1_555
C5D C4D 1_555 1_555
C6D C5D 1_555 1_555
C7D C5D 1_555 1_555
H3D C7D 1_555 1_555
C8D C2D 1_555 1_555
H4D C8D 1_555 1_555
O3D C6D 1_555 1_555
O3F Ho1 1_555 1_555
O3B Ho1D 1_555 1_555
O4D C6D 1_555 1_555
O4A Ho1 1_555 1_555
O4E Ho1D 1_555 1_555
O5D C9D 1_555 1_555
O5G Ho1 1_555 1_555
O5D_2 Ho1D 1_555 1_555
O5C Ho1D 1_555 1_555
O6D Ho1D_2 1_555 1_555
O6G Ho1 1_555 1_555
O6D_2 Ho1D 1_555 1_555
O6C Ho1D 1_555 1_555
C9D O6D 1_555 1_555
C10D C10 1_555 1_555
H5D C10D 1_555 1_555
H6D C10D 1_555 1_555
C7 C8 1_555 1_555
O6 C9 1_555 1_555
Ho1G O6G 1_555 1_555
Ho1G_2 O5G 1_555 1_555
O2D C1D 1_555 1_555
C7D C8D 1_555 1_555
C9D C10D 1_555 1_555

#END
