
#######################################################################
#
#                 Cambridge Crystallographic Data Centre
#                                CCDC 
#
#######################################################################
#
# If this CIF has been generated from an entry in the Cambridge 
# Structural Database, then it will include bibliographic, chemical, 
# crystal, experimental, refinement or atomic coordinate data resulting 
# from the CCDC's data processing and validation procedures.
#
#######################################################################

data_RISXAT01
_symmetry_cell_setting           orthorhombic
_symmetry_space_group_name_H-M   'P b c a'
_symmetry_Int_Tables_number      61
_space_group_name_Hall           '-P 2ac 2ab'
loop_
_symmetry_equiv_pos_site_id
_symmetry_equiv_pos_as_xyz
1 x,y,z
2 1/2-x,-y,1/2+z
3 -x,1/2+y,1/2-z
4 1/2+x,1/2-y,-z
5 -x,-y,-z
6 1/2+x,y,1/2-z
7 x,1/2-y,1/2+z
8 1/2-x,1/2+y,z
_cell_length_a                   13.807(3)
_cell_length_b                   6.7801(14)
_cell_length_c                   21.691(4)
_cell_angle_alpha                90
_cell_angle_beta                 90
_cell_angle_gamma                90
_cell_volume                     2030.56
loop_
_atom_site_label
_atom_site_type_symbol
_atom_site_fract_x
_atom_site_fract_y
_atom_site_fract_z
H1 H -0.527(3) 0.316(5) 0.3216(17)
H2 H -0.264(4) 0.524(6) 0.359(2)
H3 H -0.483(3) 0.251(6) 0.2195(19)
H4 H 0.044(2) 0.537(4) 0.5231(16)
H5 H -0.219(3) 0.456(5) 0.2584(19)
H6 H 0.016(2) 0.464(5) 0.5645(16)
Ho1 Ho -0.330640(9) 0.51542(2) 0.554720(6)
C1 C -0.3986(2) 0.4264(5) 0.35077(14)
C2 C -0.3052(3) 0.4689(5) 0.32961(18)
C3 C -0.2804(3) 0.4331(6) 0.26937(15)
C4 C -0.3471(2) 0.3518(5) 0.22873(15)
C5 C -0.4398(3) 0.3072(6) 0.24935(16)
C6 C -0.4654(2) 0.3451(5) 0.30996(16)
C7 C -0.4260(2) 0.4673(4) 0.41621(14)
C8 C -0.1259(3) 0.5253(5) 0.53111(19)
C9 C -0.0167(3) 0.5429(6) 0.5310(2)
C10 C -0.3185(2) 0.3047(5) 0.16367(15)
O1 O -0.36238(18) 0.5361(3) 0.45153(10)
O2 O -0.17650(15) 0.6732(3) 0.51657(11)
O3 O -0.16721(15) 0.3686(4) 0.54685(11)
O4 O -0.23898(17) 0.3688(4) 0.14394(10)
O5 O -0.48870(15) 0.5716(4) 0.56714(10)
O6 O -0.62399(18) 0.7990(4) 0.86770(11)
H1D H -0.473(3) 0.684(5) 0.6784(17)
H2D H -0.736(4) 0.476(6) 0.641(2)
H3D H -0.517(3) 0.749(6) 0.7805(19)
H4D H -0.044(2) 0.463(4) 0.4769(16)
H5D H -0.781(3) 0.544(5) 0.7416(19)
H6D H -0.016(2) 0.536(5) 0.4355(16)
Ho1G Ho -0.169360(9) 1.01542(2) 0.554720(6)
Ho1C Ho 0.169360(9) 0.98458(2) 0.445280(6)
Ho1A Ho -0.169360(9) 0.48458(2) 0.054720(6)
Ho1D Ho -0.669360(9) 0.48458(2) 0.445280(6)
Ho1B Ho -0.669360(9) 1.01542(2) 0.945280(6)
Ho1G_2 Ho -0.169360(9) 0.01542(2) 0.554720(6)
Ho1D_2 Ho 0.330640(9) 0.48458(2) 0.445280(6)
Ho1F Ho -0.330640(9) -0.01542(2) 0.054720(6)
Ho1E Ho -0.830640(9) 0.51542(2) 0.945280(6)
Ho1C_2 Ho 0.169360(9) -0.01542(2) 0.445280(6)
C1D C -0.6014(2) 0.5736(5) 0.64923(14)
C2D C -0.6948(3) 0.5311(5) 0.67039(18)
C3D C -0.7196(3) 0.5669(6) 0.73063(15)
C4D C -0.6529(2) 0.6482(5) 0.77127(15)
C5D C -0.5602(3) 0.6928(6) 0.75065(16)
C6D C -0.5346(2) 0.6549(5) 0.69004(16)
C7D C -0.5740(2) 0.5327(4) 0.58379(14)
C8D C 0.1259(3) 0.4747(5) 0.46889(19)
C9D C 0.0167(3) 0.4571(6) 0.4690(2)
C10D C -0.6815(2) 0.6953(5) 0.83633(15)
O1D O -0.63762(18) 0.4639(3) 0.54847(10)
O2C O -0.67650(15) 0.8268(3) 0.48343(11)
O2G O -0.32350(15) 0.1732(3) 0.51657(11)
O2D O -0.82350(15) 0.3268(3) 0.48343(11)
O2D_2 O 0.17650(15) 0.3268(3) 0.48343(11)
O3G O -0.33279(15) 0.8686(4) 0.54685(11)
O3D O 0.16721(15) 0.6314(4) 0.45315(11)
O3D_2 O -0.83279(15) 0.6314(4) 0.45315(11)
O3C O -0.66721(15) 0.1314(4) 0.45315(11)
O4A O -0.26102(17) 0.6312(4) 0.64394(10)
O4E O -0.73898(17) 0.3688(4) 0.35606(10)
O4D O -0.76102(17) 0.6312(4) 0.85606(10)
O5D O -0.51130(15) 0.4284(4) 0.43286(10)
O6B O -0.37601(18) 0.2990(4) 0.63230(11)
O6F O -0.62399(18) 0.7010(4) 0.36770(11)
O6D O -0.37601(18) 0.2010(4) 0.13230(11)
loop_
_geom_bond_atom_site_label_1
_geom_bond_atom_site_label_2
_geom_bond_site_symmetry_1
_geom_bond_site_symmetry_2
H1 C6 1_555 1_555
H2 C2 1_555 1_555
H3 C5 1_555 1_555
H4 C9 1_555 1_555
H5 C3 1_555 1_555
H6 C9 1_555 1_555
Ho1 O1 1_555 1_555
C1 C2 1_555 1_555
C2 C3 1_555 1_555
C3 C4 1_555 1_555
C4 C5 1_555 1_555
C5 C6 1_555 1_555
C6 C1 1_555 1_555
C7 C1 1_555 1_555
C8 C9 1_555 1_555
C9 C9D 1_555 1_555
C10 C4 1_555 1_555
O1 C7 1_555 1_555
O2 Ho1 1_555 1_555
O3 Ho1 1_555 1_555
O4 C10 1_555 1_555
O5 Ho1 1_555 1_555
O6 Ho1B 1_555 1_555
H1D C6D 1_555 1_555
H2D C2D 1_555 1_555
H3D C5D 1_555 1_555
H4D C9D 1_555 1_555
H5D C3D 1_555 1_555
H6D C9D 1_555 1_555
Ho1G O2 1_555 1_555
Ho1C O3D 1_555 1_555
Ho1A O4 1_555 1_555
Ho1D O1D 1_555 1_555
Ho1G_2 O3 1_555 1_555
Ho1D_2 O2D_2 1_555 1_555
Ho1F O6D 1_555 1_555
Ho1E O4D 1_555 1_555
Ho1C_2 O2D_2 1_555 1_555
C1D C2D 1_555 1_555
C2D C3D 1_555 1_555
C3D C4D 1_555 1_555
C4D C5D 1_555 1_555
C5D C6D 1_555 1_555
C6D C1D 1_555 1_555
C7D O5 1_555 1_555
C8D C9D 1_555 1_555
C10D O6 1_555 1_555
O1D C7D 1_555 1_555
O2C Ho1D 1_555 1_555
O2G Ho1 1_555 1_555
O2D Ho1D 1_555 1_555
O2D_2 C8D 1_555 1_555
O3G Ho1 1_555 1_555
O3D Ho1D_2 1_555 1_555
O3D_2 Ho1D 1_555 1_555
O3C Ho1D 1_555 1_555
O4A Ho1 1_555 1_555
O4E Ho1D 1_555 1_555
O4D C10D 1_555 1_555
O5D C7 1_555 1_555
O6B Ho1 1_555 1_555
O6F Ho1D 1_555 1_555
O6D C10 1_555 1_555
C8 O2 1_555 1_555
C8 O3 1_555 1_555
Ho1G O3G 1_555 1_555
Ho1D O5D 1_555 1_555
Ho1G_2 O2G 1_555 1_555
C1D C7D 1_555 1_555
C4D C10D 1_555 1_555
C8D O3D 1_555 1_555

#END
