
#######################################################################
#
#                 Cambridge Crystallographic Data Centre
#                                CCDC 
#
#######################################################################
#
# If this CIF has been generated from an entry in the Cambridge 
# Structural Database, then it will include bibliographic, chemical, 
# crystal, experimental, refinement or atomic coordinate data resulting 
# from the CCDC's data processing and validation procedures.
#
#######################################################################

data_RISYOI
_symmetry_cell_setting           monoclinic
_symmetry_space_group_name_H-M   'P 21/n'
_symmetry_Int_Tables_number      14
_space_group_name_Hall           '-P 2yn'
loop_
_symmetry_equiv_pos_site_id
_symmetry_equiv_pos_as_xyz
1 x,y,z
2 1/2-x,1/2+y,1/2-z
3 -x,-y,-z
4 1/2+x,1/2-y,1/2+z
_cell_length_a                   7.4071(15)
_cell_length_b                   15.017(3)
_cell_length_c                   12.174(2)
_cell_angle_alpha                90
_cell_angle_beta                 98.52(3)
_cell_angle_gamma                90
_cell_volume                     1339.2
loop_
_atom_site_label
_atom_site_type_symbol
_atom_site_fract_x
_atom_site_fract_y
_atom_site_fract_z
Zn1 Zn 0.18024(5) 0.76280(2) 0.56995(3)
Br1 Br 0.43934(6) 0.68154(3) 0.53737(4)
Br2 Br 0.05935(5) 0.71851(2) 0.73359(3)
C1 C 0.2625(4) 1.0321(2) 0.4904(3)
C2 C 0.2551(5) 1.0978(2) 0.4096(3)
H1 H 0.2762 1.1574 0.4277
C3 C 0.2151(5) 1.0700(3) 0.3022(3)
H2 H 0.2073 1.1119 0.2455
C4 C 0.1855(5) 0.9800(3) 0.2749(3)
H3 H 0.1610 0.9638 0.2004
C5 C 0.1914(5) 0.9149(2) 0.3545(3)
H4 H 0.1712 0.8554 0.3357
C6 C 0.2292(4) 0.9425(2) 0.4644(3)
C7 C 0.2883(4) 0.9521(2) 0.6446(3)
C8 C 0.4011(4) 0.8528(2) 0.8000(3)
D1 D 0.4465 0.8148 0.7503
C9 C 0.3176(4) 0.9318(2) 0.7629(3)
C10 C 0.2589(4) 0.9895(2) 0.8391(3)
H5 H 0.2069 1.0440 0.8160
C11 C 0.2781(5) 0.9656(2) 0.9485(3)
H6 H 0.2391 1.0038 1.0003
C12 C 0.3550(4) 0.8850(2) 0.9822(3)
D2 D 0.3645 0.8679 1.0562
N1 N 0.2441(3) 0.89347(17) 0.5628(2)
N2 N 0.2984(4) 1.03547(18) 0.6041(2)
H7 H 0.3232 1.0828 0.6431
N3 N 0.4165(4) 0.83101(18) 0.9080(2)
O1 O 0.4873(3) 0.75130(15) 0.9391(2)
Zn1C Zn 0.68024(5) 0.73720(2) 1.06995(3)
O1C O -0.0127(3) 0.74870(15) 0.4391(2)
loop_
_geom_bond_atom_site_label_1
_geom_bond_atom_site_label_2
_geom_bond_site_symmetry_1
_geom_bond_site_symmetry_2
Zn1 Br1 1_555 1_555
Br2 Zn1 1_555 1_555
C1 C2 1_555 1_555
C2 H1 1_555 1_555
C3 C2 1_555 1_555
H2 C3 1_555 1_555
C4 C3 1_555 1_555
H3 C4 1_555 1_555
C5 C4 1_555 1_555
H4 C5 1_555 1_555
C6 C1 1_555 1_555
C7 C9 1_555 1_555
C8 D1 1_555 1_555
C9 C8 1_555 1_555
C10 C9 1_555 1_555
H5 C10 1_555 1_555
C11 C10 1_555 1_555
H6 C11 1_555 1_555
C12 C11 1_555 1_555
D2 C12 1_555 1_555
N1 Zn1 1_555 1_555
N2 C1 1_555 1_555
H7 N2 1_555 1_555
N3 C8 1_555 1_555
O1 N3 1_555 1_555
Zn1C O1 1_555 1_555
O1C Zn1 1_555 1_555
C5 C6 1_555 1_555
C6 N1 1_555 1_555
C7 N1 1_555 1_555
C7 N2 1_555 1_555
C12 N3 1_555 1_555

#END
