
#######################################################################
#
#                 Cambridge Crystallographic Data Centre
#                                CCDC 
#
#######################################################################
#
# If this CIF has been generated from an entry in the Cambridge 
# Structural Database, then it will include bibliographic, chemical, 
# crystal, experimental, refinement or atomic coordinate data resulting 
# from the CCDC's data processing and validation procedures.
#
#######################################################################

data_RISYUO
_symmetry_cell_setting           triclinic
_symmetry_space_group_name_H-M   'P -1'
_symmetry_Int_Tables_number      2
_space_group_name_Hall           '-P 1'
loop_
_symmetry_equiv_pos_site_id
_symmetry_equiv_pos_as_xyz
1 x,y,z
2 -x,-y,-z
_cell_length_a                   7.579(4)
_cell_length_b                   8.212(5)
_cell_length_c                   14.894(8)
_cell_angle_alpha                74.962(7)
_cell_angle_beta                 77.733(8)
_cell_angle_gamma                88.642(8)
_cell_volume                     874.313
loop_
_atom_site_label
_atom_site_type_symbol
_atom_site_fract_x
_atom_site_fract_y
_atom_site_fract_z
Sn1 Sn 0.27918(6) 0.22587(5) 0.41226(3)
N1 N 0.3215(9) 0.5427(7) 0.2957(5)
N2 N 0.1125(16) 0.0212(13) 0.8575(6)
O1 O 0.2868(8) 0.9658(6) 0.4001(4)
O2 O 0.3393(9) 1.1381(6) 0.2569(4)
O3 O 0.2327(8) 0.3727(6) 0.5412(4)
O4 O 0.2194(7) 0.0988(6) 0.5634(4)
C1 C 0.3192(11) 0.9926(9) 0.3115(6)
C2 C 0.3315(10) 0.8429(9) 0.2713(5)
C3 C 0.3136(10) 0.6775(9) 0.3298(6)
H1 H 0.2955 0.6616 0.3953
C4 C 0.3463(12) 0.5635(10) 0.2031(6)
H2 H 0.3519 0.4686 0.1795
C5 C 0.3641(12) 0.7212(10) 0.1398(6)
C6 C 0.3554(13) 0.8622(10) 0.1752(6)
H3 H 0.3657 0.9697 0.1339
C7 C 0.2118(11) 0.2291(10) 0.5950(6)
C8 C 0.1759(11) 0.2050(10) 0.7006(5)
C9 C 0.1421(14) 0.0468(12) 0.7643(7)
H4 H 0.1402 -0.0464 0.7399
C10 C 0.1141(17) 0.1545(19) 0.8910(7)
H5 H 0.0920 0.1389 0.9566
C11 C 0.1475(13) 0.3180(14) 0.8323(7)
C12 C 0.1766(12) 0.3431(11) 0.7366(6)
H6 H 0.1966 0.4514 0.6963
C13 C 0.0130(11) 0.2696(11) 0.3972(6)
H7 H -0.0314 0.3620 0.4230
H8 H -0.0611 0.1702 0.4307
H9 H 0.0091 0.2966 0.3310
C14 C 0.5570(10) 0.2598(11) 0.3969(7)
H10 H 0.6137 0.2901 0.3305
H11 H 0.6055 0.1568 0.4282
H12 H 0.5794 0.3480 0.4249
Br1 Br 0.3949(2) 0.74092(15) 0.00921(7)
Br2 Br 0.1448(2) 0.5021(2) 0.88551(10)
Sn1_2 Sn 0.27918(6) 1.22587(5) 0.41226(3)
O1_2 O 0.2868(8) -0.0342(6) 0.4001(4)
O2_2 O 0.3393(9) 0.1381(6) 0.2569(4)
loop_
_geom_bond_atom_site_label_1
_geom_bond_atom_site_label_2
_geom_bond_site_symmetry_1
_geom_bond_site_symmetry_2
Sn1 N1 1_555 1_555
N1 C3 1_555 1_555
N2 C9 1_555 1_555
O1 C1 1_555 1_555
O2 C1 1_555 1_555
O3 Sn1 1_555 1_555
O4 Sn1 1_555 1_555
C1 C2 1_555 1_555
C2 C3 1_555 1_555
C3 H1 1_555 1_555
C4 N1 1_555 1_555
H2 C4 1_555 1_555
C5 C4 1_555 1_555
C6 C2 1_555 1_555
H3 C6 1_555 1_555
C7 O3 1_555 1_555
C8 C7 1_555 1_555
C9 C8 1_555 1_555
H4 C9 1_555 1_555
C10 N2 1_555 1_555
H5 C10 1_555 1_555
C11 C10 1_555 1_555
C12 C8 1_555 1_555
H6 C12 1_555 1_555
C13 Sn1 1_555 1_555
H7 C13 1_555 1_555
H8 C13 1_555 1_555
H9 C13 1_555 1_555
C14 Sn1 1_555 1_555
H10 C14 1_555 1_555
H11 C14 1_555 1_555
H12 C14 1_555 1_555
Br1 C5 1_555 1_555
Br2 C11 1_555 1_555
Sn1_2 O1 1_555 1_555
O1_2 Sn1 1_555 1_555
O2_2 Sn1 1_555 1_555
O2 Sn1_2 1_555 1_555
O4 C7 1_555 1_555
C5 C6 1_555 1_555
C11 C12 1_555 1_555

#END
