
#######################################################################
#
#                 Cambridge Crystallographic Data Centre
#                                CCDC 
#
#######################################################################
#
# If this CIF has been generated from an entry in the Cambridge 
# Structural Database, then it will include bibliographic, chemical, 
# crystal, experimental, refinement or atomic coordinate data resulting 
# from the CCDC's data processing and validation procedures.
#
#######################################################################

data_RITDEF
_symmetry_cell_setting           orthorhombic
_symmetry_space_group_name_H-M   'F d d d'
_symmetry_Int_Tables_number      70
_space_group_name_Hall           '-F 2uv 2vw'
loop_
_symmetry_equiv_pos_site_id
_symmetry_equiv_pos_as_xyz
1 x,y,z
2 3/4-x,3/4-y,z
3 3/4-x,y,3/4-z
4 x,3/4-y,3/4-z
5 x,1/2+y,1/2+z
6 3/4-x,1/4-y,1/2+z
7 3/4-x,1/2+y,1/4-z
8 x,1/4-y,1/4-z
9 1/2+x,y,1/2+z
10 1/4-x,3/4-y,1/2+z
11 1/4-x,y,1/4-z
12 1/2+x,3/4-y,1/4-z
13 1/2+x,1/2+y,z
14 1/4-x,1/4-y,z
15 1/4-x,1/2+y,3/4-z
16 1/2+x,1/4-y,3/4-z
17 -x,-y,-z
18 1/4+x,1/4+y,-z
19 1/4+x,-y,1/4+z
20 -x,1/4+y,1/4+z
21 -x,1/2-y,1/2-z
22 1/4+x,3/4+y,1/2-z
23 1/4+x,1/2-y,3/4+z
24 -x,3/4+y,3/4+z
25 1/2-x,-y,1/2-z
26 3/4+x,1/4+y,1/2-z
27 3/4+x,-y,3/4+z
28 1/2-x,1/4+y,3/4+z
29 1/2-x,1/2-y,-z
30 3/4+x,3/4+y,-z
31 3/4+x,1/2-y,1/4+z
32 1/2-x,3/4+y,1/4+z
_cell_length_a                   12.0412(8)
_cell_length_b                   23.6221(17)
_cell_length_c                   25.381(2)
_cell_angle_alpha                90
_cell_angle_beta                 90
_cell_angle_gamma                90
_cell_volume                     7219.33
loop_
_atom_site_label
_atom_site_type_symbol
_atom_site_fract_x
_atom_site_fract_y
_atom_site_fract_z
N1 N -0.0470(5) -0.0600(3) 0.3184(3)
Ag1 Ag -0.1250 -0.1250 0.3750
In1 In 0.1250 0.1250 0.1250
O1 O 0.1557(4) 0.0563(2) 0.1862(2)
O2 O -0.0153(4) 0.08147(19) 0.17050(19)
C1 C -0.0855(7) 0.0150(4) 0.2585(3)
H1 H -0.1364 0.0409 0.2452
C2 C 0.0907(7) -0.0273(3) 0.2593(4)
H2 H 0.1631 -0.0300 0.2469
C3 C -0.1160(6) -0.0211(5) 0.2987(4)
H3 H -0.1873 -0.0182 0.3125
C4 C 0.0550(6) -0.0631(3) 0.2984(3)
H4 H 0.1036 -0.0904 0.3113
C5 C 0.0563(7) 0.0518(3) 0.1953(3)
C6 C 0.0193(5) 0.0127(3) 0.2383(3)
N1A N -0.2030(5) -0.1900(3) 0.3184(3)
O1A O -0.4057(4) -0.3063(2) 0.1862(2)
O2A O -0.2347(4) -0.33147(19) 0.17050(19)
C1A C -0.1645(7) -0.2650(4) 0.2585(3)
H1A H -0.1136 -0.2909 0.2452
C2A C -0.3407(7) -0.2227(3) 0.2593(4)
H2A H -0.4131 -0.2200 0.2469
C3A C -0.1340(6) -0.2289(5) 0.2987(4)
H3A H -0.0627 -0.2318 0.3125
C4A C -0.3050(6) -0.1869(3) 0.2984(3)
H4A H -0.3536 -0.1596 0.3113
C5A C -0.3063(7) -0.3018(3) 0.1953(3)
C6A C -0.2693(5) -0.2627(3) 0.2383(3)
N1B N -0.2030(5) -0.0600(3) 0.4316(3)
O1B O -0.4057(4) 0.0563(2) 0.5638(2)
O2B O -0.2347(4) 0.08147(19) 0.57950(19)
C1B C -0.1645(7) 0.0150(4) 0.4915(3)
H1B H -0.1136 0.0409 0.5048
C2B C -0.3407(7) -0.0273(3) 0.4907(4)
H2B H -0.4131 -0.0300 0.5031
C3B C -0.1340(6) -0.0211(5) 0.4513(4)
H3B H -0.0627 -0.0182 0.4375
C4B C -0.3050(6) -0.0631(3) 0.4516(3)
H4B H -0.3536 -0.0904 0.4387
C5B C -0.3063(7) 0.0518(3) 0.5547(3)
C6B C -0.2693(5) 0.0127(3) 0.5117(3)
N1C N -0.0470(5) -0.1900(3) 0.4316(3)
O1C O 0.1557(4) -0.3063(2) 0.5638(2)
O2C O -0.0153(4) -0.33147(19) 0.57950(19)
C1C C -0.0855(7) -0.2650(4) 0.4915(3)
H1C H -0.1364 -0.2909 0.5048
C2C C 0.0907(7) -0.2227(3) 0.4907(4)
H2C H 0.1631 -0.2200 0.5031
C3C C -0.1160(6) -0.2289(5) 0.4513(4)
H3C H -0.1873 -0.2318 0.4375
C4C C 0.0550(6) -0.1869(3) 0.4516(3)
H4C H 0.1036 -0.1596 0.4387
C5C C 0.0563(7) -0.3018(3) 0.5547(3)
C6C C 0.0193(5) -0.2627(3) 0.5117(3)
In1A In -0.3750 -0.3750 0.1250
In1B In -0.3750 0.1250 0.6250
In1C In 0.1250 -0.3750 0.6250
O1G O 0.1557(4) 0.1937(2) 0.0638(2)
O1J O 0.0943(4) 0.0563(2) 0.0638(2)
O1M O 0.0943(4) 0.1937(2) 0.1862(2)
O2G O -0.0153(4) 0.16853(19) 0.07950(19)
O2J O 0.2653(4) 0.08147(19) 0.07950(19)
O2M O 0.2653(4) 0.16853(19) 0.17050(19)
loop_
_geom_bond_atom_site_label_1
_geom_bond_atom_site_label_2
_geom_bond_site_symmetry_1
_geom_bond_site_symmetry_2
N1 Ag1 1_555 1_555
Ag1 N1A 1_555 1_555
In1 O1 1_555 1_555
O1 C5 1_555 1_555
O2 In1 1_555 1_555
C1 H1 1_555 1_555
C2 H2 1_555 1_555
C3 N1 1_555 1_555
H3 C3 1_555 1_555
C4 N1 1_555 1_555
H4 C4 1_555 1_555
C5 O2 1_555 1_555
C6 C1 1_555 1_555
N1A C3A 1_555 1_555
O1A C5A 1_555 1_555
O2A C5A 1_555 1_555
C1A H1A 1_555 1_555
C2A H2A 1_555 1_555
C3A C1A 1_555 1_555
H3A C3A 1_555 1_555
C4A N1A 1_555 1_555
H4A C4A 1_555 1_555
C5A C6A 1_555 1_555
C6A C1A 1_555 1_555
N1B Ag1 1_555 1_555
O1B C5B 1_555 1_555
O2B C5B 1_555 1_555
C1B H1B 1_555 1_555
C2B H2B 1_555 1_555
C3B N1B 1_555 1_555
H3B C3B 1_555 1_555
C4B N1B 1_555 1_555
H4B C4B 1_555 1_555
C5B C6B 1_555 1_555
C6B C1B 1_555 1_555
N1C Ag1 1_555 1_555
O1C C5C 1_555 1_555
O2C C5C 1_555 1_555
C1C H1C 1_555 1_555
C2C H2C 1_555 1_555
C3C N1C 1_555 1_555
H3C C3C 1_555 1_555
C4C N1C 1_555 1_555
H4C C4C 1_555 1_555
C5C C6C 1_555 1_555
C6C C1C 1_555 1_555
In1A O1A 1_555 1_555
In1B O1B 1_555 1_555
In1C O1C 1_555 1_555
O1G In1 1_555 1_555
O1J In1 1_555 1_555
O1M In1 1_555 1_555
O2G In1 1_555 1_555
O2J In1 1_555 1_555
O2M In1 1_555 1_555
C1 C3 1_555 1_555
C2 C4 1_555 1_555
C2 C6 1_555 1_555
C5 C6 1_555 1_555
O2A In1A 1_555 1_555
C2A C4A 1_555 1_555
C2A C6A 1_555 1_555
O2B In1B 1_555 1_555
C1B C3B 1_555 1_555
C2B C4B 1_555 1_555
C2B C6B 1_555 1_555
O2C In1C 1_555 1_555
C1C C3C 1_555 1_555
C2C C4C 1_555 1_555
C2C C6C 1_555 1_555

#END
