
#######################################################################
#
#                 Cambridge Crystallographic Data Centre
#                                CCDC 
#
#######################################################################
#
# If this CIF has been generated from an entry in the Cambridge 
# Structural Database, then it will include bibliographic, chemical, 
# crystal, experimental, refinement or atomic coordinate data resulting 
# from the CCDC's data processing and validation procedures.
#
#######################################################################

data_RITDOP
_symmetry_cell_setting           triclinic
_symmetry_space_group_name_H-M   'P -1'
_symmetry_Int_Tables_number      2
_space_group_name_Hall           '-P 1'
loop_
_symmetry_equiv_pos_site_id
_symmetry_equiv_pos_as_xyz
1 x,y,z
2 -x,-y,-z
_cell_length_a                   9.6417(6)
_cell_length_b                   10.2640(6)
_cell_length_c                   11.8286(6)
_cell_angle_alpha                66.695(6)
_cell_angle_beta                 67.466(5)
_cell_angle_gamma                64.424(6)
_cell_volume                     937.31
loop_
_atom_site_label
_atom_site_type_symbol
_atom_site_fract_x
_atom_site_fract_y
_atom_site_fract_z
Ni1 Ni 0.5000 1.0000 0.5000
N1 N 0.56089(19) 0.80217(18) 0.44798(15)
N2 N 0.5888(2) 0.66988(19) 0.53117(16)
N3 N 0.6458(2) 0.56883(18) 0.46743(16)
O1 O 0.66980(17) 0.42051(16) 0.53256(15)
C1 C 0.8386(3) 0.3363(3) 0.5218(2)
C2 C 0.8483(3) 0.1738(3) 0.5799(3)
C3 C 0.8032(3) 0.1276(3) 0.7222(3)
O2 O 0.90628(18) 0.1447(2) 0.77495(17)
N4 N 1.0554(2) 0.0416(2) 0.75349(18)
N5 N 1.1648(2) 0.0756(2) 0.64764(17)
N6 N 1.29726(19) -0.03804(19) 0.65410(16)
C4 C 1.2709(2) -0.1453(2) 0.76833(19)
C5 C 1.1132(3) -0.0942(2) 0.8339(2)
C6 C 1.3725(3) -0.2844(2) 0.8245(2)
C7 C 1.3062(3) -0.3622(3) 0.9428(2)
C8 C 1.1454(4) -0.3077(3) 1.0065(2)
C9 C 0.6546(2) 0.6307(2) 0.34115(19)
C10 C 0.5996(2) 0.7834(2) 0.32882(18)
C11 C 0.5918(2) 0.8876(3) 0.20808(19)
C12 C 0.6396(3) 0.8285(3) 0.1084(2)
C13 C 0.6945(3) 0.6729(3) 0.1239(2)
N7 N 0.6443(2) 0.8844(2) 0.61978(16)
C14 C 0.7302(2) 0.8123(2) 0.68412(18)
S1 S 0.84948(9) 0.71393(10) 0.77799(6)
C15 C 1.0452(3) -0.1736(3) 0.9543(2)
C16 C 0.7035(3) 0.5707(3) 0.2393(2)
H1 H 0.8786 0.3693 0.5681
H2 H 0.8951 0.3571 0.4323
H3 H 0.9565 0.1139 0.5486
H4 H 0.7774 0.1531 0.5514
H5 H 0.6958 0.1936 0.7553
H6 H 0.8070 0.0228 0.7534
H7 H 1.4801 -0.3214 0.7812
H8 H 1.3699 -0.4552 0.9829
H9 H 1.1049 -0.3655 1.0846
H10 H 0.5573 0.9917 0.1968
H11 H 0.6366 0.8944 0.0272
H12 H 0.7260 0.6383 0.0517
H13 H 0.9384 -0.1350 0.9960
H14 H 0.7406 0.4658 0.2507
N1A N 0.43911(19) 1.19783(18) 0.55202(15)
N2A N 0.4112(2) 1.33012(19) 0.46883(16)
N3A N 0.3542(2) 1.43117(18) 0.53257(16)
O1A O 0.33020(17) 1.57949(16) 0.46744(15)
C1A C 0.1614(3) 1.6637(3) 0.4782(2)
C2A C 0.1517(3) 1.8262(3) 0.4201(3)
C3A C 0.1968(3) 1.8724(3) 0.2778(3)
O2A O 0.09372(18) 1.8553(2) 0.22505(17)
N4A N -0.0554(2) 1.9584(2) 0.24651(18)
N5A N -0.1648(2) 1.9244(2) 0.35236(17)
N6A N -0.29726(19) 2.03804(19) 0.34590(16)
C4A C -0.2709(2) 2.1453(2) 0.23167(19)
C5A C -0.1132(3) 2.0942(2) 0.1661(2)
C6A C -0.3725(3) 2.2844(2) 0.1755(2)
C7A C -0.3062(3) 2.3622(3) 0.0572(2)
C8A C -0.1454(4) 2.3077(3) -0.0065(2)
C9A C 0.3454(2) 1.3693(2) 0.65885(19)
C10A C 0.4004(2) 1.2166(2) 0.67118(18)
C11A C 0.4082(2) 1.1124(3) 0.79192(19)
C12A C 0.3604(3) 1.1715(3) 0.8916(2)
C13A C 0.3055(3) 1.3271(3) 0.8761(2)
N7A N 0.3557(2) 1.1156(2) 0.38022(16)
C14A C 0.2698(2) 1.1877(2) 0.31588(18)
S1A S 0.15052(9) 1.28607(10) 0.22201(6)
C15A C -0.0452(3) 2.1736(3) 0.0457(2)
C16A C 0.2965(3) 1.4293(3) 0.7607(2)
H1A H 0.1214 1.6307 0.4319
H2A H 0.1049 1.6429 0.5677
H3A H 0.0435 1.8861 0.4514
H4A H 0.2226 1.8469 0.4486
H5A H 0.3042 1.8064 0.2447
H6A H 0.1930 1.9772 0.2466
H7A H -0.4801 2.3214 0.2188
H8A H -0.3699 2.4552 0.0171
H9A H -0.1049 2.3655 -0.0846
H10A H 0.4427 1.0083 0.8032
H11A H 0.3634 1.1056 0.9728
H12A H 0.2740 1.3617 0.9483
H13A H 0.0616 2.1350 0.0040
H14A H 0.2594 1.5342 0.7493
Ni1_2 Ni -0.5000 2.0000 0.5000
Ni1_3 Ni 1.5000 0.0000 0.5000
N6_2 N 0.29726(19) 0.96196(19) 0.65410(16)
N6A_2 N 0.70274(19) 1.03804(19) 0.34590(16)
loop_
_geom_bond_atom_site_label_1
_geom_bond_atom_site_label_2
_geom_bond_site_symmetry_1
_geom_bond_site_symmetry_2
Ni1 N1 1_555 1_555
N1 N2 1_555 1_555
N2 N3 1_555 1_555
N3 O1 1_555 1_555
O1 C1 1_555 1_555
C1 C2 1_555 1_555
C2 C3 1_555 1_555
C3 O2 1_555 1_555
O2 N4 1_555 1_555
N4 N5 1_555 1_555
N5 N6 1_555 1_555
N6 C4 1_555 1_555
C4 C5 1_555 1_555
C5 N4 1_555 1_555
C6 C4 1_555 1_555
C7 C6 1_555 1_555
C8 C7 1_555 1_555
C9 N3 1_555 1_555
C10 N1 1_555 1_555
C11 C10 1_555 1_555
C12 C11 1_555 1_555
C13 C12 1_555 1_555
N7 Ni1 1_555 1_555
C14 N7 1_555 1_555
S1 C14 1_555 1_555
C15 C5 1_555 1_555
C16 C9 1_555 1_555
H1 C1 1_555 1_555
H2 C1 1_555 1_555
H3 C2 1_555 1_555
H4 C2 1_555 1_555
H5 C3 1_555 1_555
H6 C3 1_555 1_555
H7 C6 1_555 1_555
H8 C7 1_555 1_555
H9 C8 1_555 1_555
H10 C11 1_555 1_555
H11 C12 1_555 1_555
H12 C13 1_555 1_555
H13 C15 1_555 1_555
H14 C16 1_555 1_555
N1A Ni1 1_555 1_555
N2A N1A 1_555 1_555
N3A N2A 1_555 1_555
O1A N3A 1_555 1_555
C1A O1A 1_555 1_555
C2A C1A 1_555 1_555
C3A C2A 1_555 1_555
O2A C3A 1_555 1_555
N4A O2A 1_555 1_555
N5A N4A 1_555 1_555
N6A N5A 1_555 1_555
C4A N6A 1_555 1_555
C5A N4A 1_555 1_555
C6A C4A 1_555 1_555
C7A C6A 1_555 1_555
C8A C7A 1_555 1_555
C9A N3A 1_555 1_555
C10A N1A 1_555 1_555
C11A C10A 1_555 1_555
C12A C11A 1_555 1_555
C13A C12A 1_555 1_555
N7A Ni1 1_555 1_555
C14A N7A 1_555 1_555
S1A C14A 1_555 1_555
C15A C5A 1_555 1_555
C16A C9A 1_555 1_555
H1A C1A 1_555 1_555
H2A C1A 1_555 1_555
H3A C2A 1_555 1_555
H4A C2A 1_555 1_555
H5A C3A 1_555 1_555
H6A C3A 1_555 1_555
H7A C6A 1_555 1_555
H8A C7A 1_555 1_555
H9A C8A 1_555 1_555
H10A C11A 1_555 1_555
H11A C12A 1_555 1_555
H12A C13A 1_555 1_555
H13A C15A 1_555 1_555
H14A C16A 1_555 1_555
Ni1_2 N6A 1_555 1_555
Ni1_3 N6 1_555 1_555
N6_2 Ni1 1_555 1_555
N6A_2 Ni1 1_555 1_555
C8 C15 1_555 1_555
C9 C10 1_555 1_555
C13 C16 1_555 1_555
C4A C5A 1_555 1_555
C8A C15A 1_555 1_555
C9A C10A 1_555 1_555
C13A C16A 1_555 1_555

#END
