
#######################################################################
#
#                 Cambridge Crystallographic Data Centre
#                                CCDC 
#
#######################################################################
#
# If this CIF has been generated from an entry in the Cambridge 
# Structural Database, then it will include bibliographic, chemical, 
# crystal, experimental, refinement or atomic coordinate data resulting 
# from the CCDC's data processing and validation procedures.
#
#######################################################################

data_RITDUV
_symmetry_cell_setting           monoclinic
_symmetry_space_group_name_H-M   'C 2/c'
_symmetry_Int_Tables_number      15
_space_group_name_Hall           '-C 2yn'
loop_
_symmetry_equiv_pos_site_id
_symmetry_equiv_pos_as_xyz
1 x,y,z
2 1/2+x,1/2+y,z
3 -x,y,1/2-z
4 1/2-x,1/2+y,1/2-z
5 -x,-y,-z
6 1/2-x,1/2-y,-z
7 x,-y,1/2+z
8 1/2+x,1/2-y,1/2+z
_cell_length_a                   10.9405(3)
_cell_length_b                   25.4462(6)
_cell_length_c                   13.6306(4)
_cell_angle_alpha                90
_cell_angle_beta                 95.718(2)
_cell_angle_gamma                90
_cell_volume                     3775.8
loop_
_atom_site_label
_atom_site_type_symbol
_atom_site_fract_x
_atom_site_fract_y
_atom_site_fract_z
N1 N 0.42089(17) 0.59094(7) 0.34057(12)
C1 C 0.43152(18) 0.57992(8) 0.44069(14)
C2 C 0.5048(2) 0.60207(8) 0.52053(14)
C3 C 0.4937(2) 0.58067(9) 0.61170(15)
C4 C 0.4140(2) 0.53849(9) 0.62555(15)
C5 C 0.3418(2) 0.51609(9) 0.54918(16)
C6 C 0.35317(18) 0.53841(8) 0.45639(14)
N2 N 0.30101(16) 0.52750(7) 0.36416(12)
N3 N 0.34084(17) 0.55850(7) 0.29548(13)
O1 O 0.21633(14) 0.48943(6) 0.33640(12)
C7 C 0.0930(2) 0.50814(11) 0.3517(2)
C8 C 0.0056(2) 0.46696(11) 0.30598(19)
N4 N 0.41644(18) 0.71376(7) 0.33079(13)
C9 C 0.3691(2) 0.76151(9) 0.29835(17)
C10 C 0.3408(2) 0.78178(10) 0.2028(2)
C11 C 0.2987(3) 0.83265(12) 0.1961(3)
C12 C 0.2820(3) 0.86270(12) 0.2796(3)
C13 C 0.3062(3) 0.84387(11) 0.3730(3)
C14 C 0.3516(2) 0.79211(9) 0.37980(19)
N5 N 0.3901(2) 0.76010(8) 0.45608(15)
N6 N 0.4268(2) 0.71310(8) 0.42742(14)
O2 O 0.3764(2) 0.76911(9) 0.55268(15)
C15 C 0.4886(5) 0.76755(17) 0.6112(2)
C16 C 0.4517(5) 0.7769(3) 0.7139(3)
N7 N 0.34075(18) 0.64920(8) 0.15341(14)
C17 C 0.2520(2) 0.63080(9) 0.11528(16)
S1 S 0.12833(7) 0.60425(4) 0.05982(7)
Co1 Co 0.5000 0.651174(16) 0.2500
H1 H 0.5605 0.6306 0.5111
H2 H 0.5435 0.5949 0.6687
H3 H 0.4114 0.5249 0.6916
H4 H 0.2870 0.4868 0.5576
H5 H 0.0776 0.5429 0.3180
H6 H 0.0860 0.5126 0.4225
H7 H -0.0763 0.4734 0.3286
H8 H 0.0353 0.4317 0.3307
H9 H 0.3503 0.7607 0.1440
H10 H 0.2800 0.8484 0.1311
H11 H 0.2524 0.8978 0.2709
H12 H 0.2949 0.8639 0.4323
H13 H 0.5483 0.7944 0.5915
H14 H 0.5319 0.7330 0.6079
H15 H 0.4065 0.8101 0.7163
H16 H 0.3927 0.7499 0.7297
N1B N -0.42089(17) 0.59094(7) 0.15943(12)
C1B C -0.43152(18) 0.57992(8) 0.05931(14)
C2B C -0.5048(2) 0.60207(8) -0.02053(14)
C3B C -0.4937(2) 0.58067(9) -0.11170(15)
C4B C -0.4140(2) 0.53849(9) -0.12555(15)
C5B C -0.3418(2) 0.51609(9) -0.04918(16)
C6B C -0.35317(18) 0.53841(8) 0.04361(14)
N2B N -0.30101(16) 0.52750(7) 0.13584(12)
N3B N -0.34084(17) 0.55850(7) 0.20452(13)
O1B O -0.21633(14) 0.48943(6) 0.16360(12)
C7B C -0.0930(2) 0.50814(11) 0.1483(2)
C8B C -0.0056(2) 0.46696(11) 0.19402(19)
H1B H -0.5605 0.6306 -0.0111
H2B H -0.5435 0.5949 -0.1687
H3B H -0.4114 0.5249 -0.1916
H4B H -0.2870 0.4868 -0.0576
H5B H -0.0776 0.5429 0.1820
H6B H -0.0860 0.5126 0.0775
H7B H 0.0763 0.4734 0.1714
H8B H -0.0353 0.4317 0.1693
N4B N 0.58356(18) 0.71376(7) 1.16921(13)
C9B C 0.6309(2) 0.76151(9) 1.20165(17)
C10B C 0.6592(2) 0.78178(10) 1.2972(2)
C11B C 0.7013(3) 0.83265(12) 1.3039(3)
C12B C 0.7180(3) 0.86270(12) 1.2204(3)
C13B C 0.6938(3) 0.84387(11) 1.1270(3)
C14B C 0.6484(2) 0.79211(9) 1.12020(19)
N5B N 0.6099(2) 0.76010(8) 1.04392(15)
N6B N 0.5732(2) 0.71310(8) 1.07258(14)
O2B O 0.6236(2) 0.76911(9) 0.94732(15)
C15B C 0.5114(5) 0.76755(17) 0.8888(2)
C16B C 0.5483(5) 0.7769(3) 0.7861(3)
H9B H 0.6497 0.7607 1.3560
H10B H 0.7200 0.8484 1.3689
H11B H 0.7476 0.8978 1.2291
H12B H 0.7051 0.8639 1.0677
H13B H 0.4517 0.7944 0.9085
H14B H 0.4681 0.7330 0.8921
H15B H 0.5935 0.8101 0.7837
H16B H 0.6073 0.7499 0.7703
N7B N 0.65925(18) 0.64920(8) 0.34659(14)
C17B C 0.7480(2) 0.63080(9) 0.38472(16)
S1B S 0.87167(7) 0.60425(4) 0.44018(7)
N1B_2 N 0.57911(17) 0.59094(7) 0.15943(12)
N4B_2 N 0.58356(18) 0.71376(7) 0.16921(13)
Co1_2 Co -0.5000 0.651174(16) 0.2500
Co1_3 Co 0.5000 0.651174(16) 1.2500
loop_
_geom_bond_atom_site_label_1
_geom_bond_atom_site_label_2
_geom_bond_site_symmetry_1
_geom_bond_site_symmetry_2
N1 C1 1_555 1_555
C1 C2 1_555 1_555
C2 C3 1_555 1_555
C3 C4 1_555 1_555
C4 C5 1_555 1_555
C5 C6 1_555 1_555
C6 C1 1_555 1_555
N2 C6 1_555 1_555
N3 N1 1_555 1_555
O1 N2 1_555 1_555
C7 O1 1_555 1_555
C8 C7 1_555 1_555
N4 C9 1_555 1_555
C9 C10 1_555 1_555
C10 C11 1_555 1_555
C11 C12 1_555 1_555
C12 C13 1_555 1_555
C13 C14 1_555 1_555
C14 C9 1_555 1_555
N5 C14 1_555 1_555
N6 N4 1_555 1_555
O2 N5 1_555 1_555
C15 O2 1_555 1_555
C16 C15 1_555 1_555
N7 C17 1_555 1_555
C17 S1 1_555 1_555
Co1 N1 1_555 1_555
H1 C2 1_555 1_555
H2 C3 1_555 1_555
H3 C4 1_555 1_555
H4 C5 1_555 1_555
H5 C7 1_555 1_555
H6 C7 1_555 1_555
H7 C8 1_555 1_555
H8 C8 1_555 1_555
H9 C10 1_555 1_555
H10 C11 1_555 1_555
H11 C12 1_555 1_555
H12 C13 1_555 1_555
H13 C15 1_555 1_555
H14 C15 1_555 1_555
H15 C16 1_555 1_555
H16 C16 1_555 1_555
N1B C1B 1_555 1_555
C1B C2B 1_555 1_555
C2B C3B 1_555 1_555
C3B C4B 1_555 1_555
C4B C5B 1_555 1_555
C5B C6B 1_555 1_555
C6B C1B 1_555 1_555
N2B C6B 1_555 1_555
N3B N1B 1_555 1_555
O1B N2B 1_555 1_555
C7B O1B 1_555 1_555
C8B C8 1_555 1_555
H1B C2B 1_555 1_555
H2B C3B 1_555 1_555
H3B C4B 1_555 1_555
H4B C5B 1_555 1_555
H5B C7B 1_555 1_555
H6B C7B 1_555 1_555
H7B C8B 1_555 1_555
H8B C8B 1_555 1_555
N4B C9B 1_555 1_555
C9B C10B 1_555 1_555
C10B C11B 1_555 1_555
C11B C12B 1_555 1_555
C12B C13B 1_555 1_555
C13B C14B 1_555 1_555
C14B C9B 1_555 1_555
N5B C14B 1_555 1_555
N6B N4B 1_555 1_555
O2B N5B 1_555 1_555
C15B O2B 1_555 1_555
C16B C16 1_555 1_555
H9B C10B 1_555 1_555
H10B C11B 1_555 1_555
H11B C12B 1_555 1_555
H12B C13B 1_555 1_555
H13B C15B 1_555 1_555
H14B C15B 1_555 1_555
H15B C16B 1_555 1_555
H16B C16B 1_555 1_555
N7B Co1 1_555 1_555
C17B N7B 1_555 1_555
S1B C17B 1_555 1_555
N1B_2 Co1 1_555 1_555
N4B_2 Co1 1_555 1_555
Co1_2 N1B 1_555 1_555
Co1_3 N4B 1_555 1_555
N2 N3 1_555 1_555
N4 Co1 1_555 1_555
N5 N6 1_555 1_555
N7 Co1 1_555 1_555
N2B N3B 1_555 1_555
C7B C8B 1_555 1_555
N5B N6B 1_555 1_555
C15B C16B 1_555 1_555

#END
