
#######################################################################
#
#                 Cambridge Crystallographic Data Centre
#                                CCDC 
#
#######################################################################
#
# If this CIF has been generated from an entry in the Cambridge 
# Structural Database, then it will include bibliographic, chemical, 
# crystal, experimental, refinement or atomic coordinate data resulting 
# from the CCDC's data processing and validation procedures.
#
#######################################################################

data_RITDAB
_symmetry_cell_setting           orthorhombic
_symmetry_space_group_name_H-M   'F d d d'
_symmetry_Int_Tables_number      70
_space_group_name_Hall           '-F 2uv 2vw'
loop_
_symmetry_equiv_pos_site_id
_symmetry_equiv_pos_as_xyz
1 x,y,z
2 3/4-x,3/4-y,z
3 3/4-x,y,3/4-z
4 x,3/4-y,3/4-z
5 x,1/2+y,1/2+z
6 3/4-x,1/4-y,1/2+z
7 3/4-x,1/2+y,1/4-z
8 x,1/4-y,1/4-z
9 1/2+x,y,1/2+z
10 1/4-x,3/4-y,1/2+z
11 1/4-x,y,1/4-z
12 1/2+x,3/4-y,1/4-z
13 1/2+x,1/2+y,z
14 1/4-x,1/4-y,z
15 1/4-x,1/2+y,3/4-z
16 1/2+x,1/4-y,3/4-z
17 -x,-y,-z
18 1/4+x,1/4+y,-z
19 1/4+x,-y,1/4+z
20 -x,1/4+y,1/4+z
21 -x,1/2-y,1/2-z
22 1/4+x,3/4+y,1/2-z
23 1/4+x,1/2-y,3/4+z
24 -x,3/4+y,3/4+z
25 1/2-x,-y,1/2-z
26 3/4+x,1/4+y,1/2-z
27 3/4+x,-y,3/4+z
28 1/2-x,1/4+y,3/4+z
29 1/2-x,1/2-y,-z
30 3/4+x,3/4+y,-z
31 3/4+x,1/2-y,1/4+z
32 1/2-x,3/4+y,1/4+z
_cell_length_a                   12.4623(7)
_cell_length_b                   22.5494(9)
_cell_length_c                   24.692(2)
_cell_angle_alpha                90
_cell_angle_beta                 90
_cell_angle_gamma                90
_cell_volume                     6938.88
loop_
_atom_site_label
_atom_site_type_symbol
_atom_site_fract_x
_atom_site_fract_y
_atom_site_fract_z
In1 In 0.1250 0.1250 0.1250
Cu1 Cu -0.1250 -0.1250 0.3750
O1 O 0.1562(5) 0.0536(3) 0.1883(2)
O2 O -0.0107(4) 0.0786(2) 0.1708(2)
N1 N -0.0502(5) -0.0659(3) 0.3219(2)
C1 C -0.0846(7) 0.0109(4) 0.2591(3)
H1 H -0.1334 0.0374 0.2440
C2 C 0.0887(6) -0.0311(4) 0.2646(3)
H2 H 0.1600 -0.0333 0.2537
C3 C -0.1161(6) -0.0267(5) 0.2996(4)
H3 H -0.1865 -0.0247 0.3120
C4 C 0.0497(6) -0.0681(4) 0.3051(4)
H4 H 0.0960 -0.0955 0.3208
C5 C 0.0588(6) 0.0497(3) 0.1972(3)
C6 C 0.0192(6) 0.0092(3) 0.2408(3)
O1A O -0.4062(5) -0.3036(3) 0.1883(2)
O2A O -0.2393(4) -0.3286(2) 0.1708(2)
N1A N -0.1998(5) -0.1841(3) 0.3219(2)
C1A C -0.1654(7) -0.2609(4) 0.2591(3)
H1A H -0.1166 -0.2874 0.2440
C2A C -0.3387(6) -0.2189(4) 0.2646(3)
H2A H -0.4100 -0.2167 0.2537
C3A C -0.1339(6) -0.2233(5) 0.2996(4)
H3A H -0.0635 -0.2253 0.3120
C4A C -0.2997(6) -0.1819(4) 0.3051(4)
H4A H -0.3460 -0.1545 0.3208
C5A C -0.3088(6) -0.2997(3) 0.1972(3)
C6A C -0.2692(6) -0.2592(3) 0.2408(3)
O1B O -0.4062(5) 0.0536(3) 0.5617(2)
O2B O -0.2393(4) 0.0786(2) 0.5792(2)
N1B N -0.1998(5) -0.0659(3) 0.4281(2)
C1B C -0.1654(7) 0.0109(4) 0.4909(3)
H1B H -0.1166 0.0374 0.5060
C2B C -0.3387(6) -0.0311(4) 0.4854(3)
H2B H -0.4100 -0.0333 0.4963
C3B C -0.1339(6) -0.0267(5) 0.4504(4)
H3B H -0.0635 -0.0247 0.4380
C4B C -0.2997(6) -0.0681(4) 0.4449(4)
H4B H -0.3460 -0.0955 0.4292
C5B C -0.3088(6) 0.0497(3) 0.5528(3)
C6B C -0.2692(6) 0.0092(3) 0.5092(3)
O1C O 0.1562(5) -0.3036(3) 0.5617(2)
O2C O -0.0107(4) -0.3286(2) 0.5792(2)
N1C N -0.0502(5) -0.1841(3) 0.4281(2)
C1C C -0.0846(7) -0.2609(4) 0.4909(3)
H1C H -0.1334 -0.2874 0.5060
C2C C 0.0887(6) -0.2189(4) 0.4854(3)
H2C H 0.1600 -0.2167 0.4963
C3C C -0.1161(6) -0.2233(5) 0.4504(4)
H3C H -0.1865 -0.2253 0.4380
C4C C 0.0497(6) -0.1819(4) 0.4449(4)
H4C H 0.0960 -0.1545 0.4292
C5C C 0.0588(6) -0.2997(3) 0.5528(3)
C6C C 0.0192(6) -0.2592(3) 0.5092(3)
In1A In -0.3750 -0.3750 0.1250
In1B In -0.3750 0.1250 0.6250
In1C In 0.1250 -0.3750 0.6250
O1G O 0.1562(5) 0.1964(3) 0.0617(2)
O1J O 0.0938(5) 0.0536(3) 0.0617(2)
O1M O 0.0938(5) 0.1964(3) 0.1883(2)
O2G O -0.0107(4) 0.1714(2) 0.0792(2)
O2J O 0.2607(4) 0.0786(2) 0.0792(2)
O2M O 0.2607(4) 0.1714(2) 0.1708(2)
loop_
_geom_bond_atom_site_label_1
_geom_bond_atom_site_label_2
_geom_bond_site_symmetry_1
_geom_bond_site_symmetry_2
In1 O1 1_555 1_555
Cu1 N1 1_555 1_555
O1 C5 1_555 1_555
O2 In1 1_555 1_555
N1 C3 1_555 1_555
C1 H1 1_555 1_555
C2 H2 1_555 1_555
C3 C1 1_555 1_555
H3 C3 1_555 1_555
C4 N1 1_555 1_555
H4 C4 1_555 1_555
C5 O2 1_555 1_555
C6 C1 1_555 1_555
O1A C5A 1_555 1_555
O2A C5A 1_555 1_555
N1A Cu1 1_555 1_555
C1A H1A 1_555 1_555
C2A H2A 1_555 1_555
C3A N1A 1_555 1_555
H3A C3A 1_555 1_555
C4A N1A 1_555 1_555
H4A C4A 1_555 1_555
C5A C6A 1_555 1_555
C6A C1A 1_555 1_555
O1B C5B 1_555 1_555
O2B C5B 1_555 1_555
N1B Cu1 1_555 1_555
C1B H1B 1_555 1_555
C2B H2B 1_555 1_555
C3B N1B 1_555 1_555
H3B C3B 1_555 1_555
C4B N1B 1_555 1_555
H4B C4B 1_555 1_555
C5B C6B 1_555 1_555
C6B C1B 1_555 1_555
O1C C5C 1_555 1_555
O2C C5C 1_555 1_555
N1C Cu1 1_555 1_555
C1C H1C 1_555 1_555
C2C H2C 1_555 1_555
C3C N1C 1_555 1_555
H3C C3C 1_555 1_555
C4C N1C 1_555 1_555
H4C C4C 1_555 1_555
C5C C6C 1_555 1_555
C6C C1C 1_555 1_555
In1A O1A 1_555 1_555
In1B O1B 1_555 1_555
In1C O1C 1_555 1_555
O1G In1 1_555 1_555
O1J In1 1_555 1_555
O1M In1 1_555 1_555
O2G In1 1_555 1_555
O2J In1 1_555 1_555
O2M In1 1_555 1_555
C2 C4 1_555 1_555
C2 C6 1_555 1_555
C5 C6 1_555 1_555
O2A In1A 1_555 1_555
C1A C3A 1_555 1_555
C2A C4A 1_555 1_555
C2A C6A 1_555 1_555
O2B In1B 1_555 1_555
C1B C3B 1_555 1_555
C2B C4B 1_555 1_555
C2B C6B 1_555 1_555
O2C In1C 1_555 1_555
C1C C3C 1_555 1_555
C2C C4C 1_555 1_555
C2C C6C 1_555 1_555

#END
