
#######################################################################
#
#                 Cambridge Crystallographic Data Centre
#                                CCDC 
#
#######################################################################
#
# If this CIF has been generated from an entry in the Cambridge 
# Structural Database, then it will include bibliographic, chemical, 
# crystal, experimental, refinement or atomic coordinate data resulting 
# from the CCDC's data processing and validation procedures.
#
#######################################################################

data_RITDIJ
_symmetry_cell_setting           orthorhombic
_symmetry_space_group_name_H-M   'I b a 2'
_symmetry_Int_Tables_number      45
_space_group_name_Hall           'I 2 -2c'
loop_
_symmetry_equiv_pos_site_id
_symmetry_equiv_pos_as_xyz
1 x,y,z
2 -x,-y,z
3 -x,y,1/2+z
4 x,-y,1/2+z
5 1/2+x,1/2+y,1/2+z
6 1/2-x,1/2-y,1/2+z
7 1/2-x,1/2+y,z
8 1/2+x,1/2-y,z
_cell_length_a                   12.121(2)
_cell_length_b                   17.543(4)
_cell_length_c                   6.9785(14)
_cell_angle_alpha                90
_cell_angle_beta                 90
_cell_angle_gamma                90
_cell_volume                     1483.9
loop_
_atom_site_label
_atom_site_type_symbol
_atom_site_fract_x
_atom_site_fract_y
_atom_site_fract_z
Cd1 Cd -0.5000 0.5000 -0.0899(2)
O1 O -0.37945(16) 0.52849(11) -0.3378(5)
O2 O -0.4759(2) 0.62552(13) -0.5824(10)
N1 N -0.35142(19) 0.60492(14) -0.3494(6)
H1 H -0.2980 0.6226 -0.2791
N2 N -0.3321(3) 0.96917(19) -0.4647(6)
H2 H -0.2748 0.9887 -0.4078
H3 H -0.3806 0.9989 -0.5180
C1 C -0.4049(3) 0.65092(19) -0.4662(5)
C2 C -0.3794(3) 0.73298(18) -0.4642(5)
C3 C -0.4546(3) 0.7819(2) -0.5521(6)
H4 H -0.5180 0.7613 -0.6100
C4 C -0.4384(3) 0.8590(2) -0.5562(6)
H5 H -0.4903 0.8905 -0.6175
C5 C -0.3459(3) 0.8912(2) -0.4705(6)
C6 C -0.2692(3) 0.8428(2) -0.3861(5)
H6 H -0.2051 0.8633 -0.3304
C7 C -0.2856(3) 0.7650(2) -0.3829(5)
H7 H -0.2327 0.7333 -0.3251
O1A O -0.62055(16) 0.47151(11) -0.3378(5)
O2A O -0.5241(2) 0.37448(13) -0.5824(10)
N1A N -0.64858(19) 0.39508(14) -0.3494(6)
H1A H -0.7020 0.3774 -0.2791
N2A N -0.6679(3) 0.03083(19) -0.4647(6)
H2A H -0.7252 0.0113 -0.4078
H3A H -0.6194 0.0011 -0.5180
C1A C -0.5951(3) 0.34908(19) -0.4662(5)
C2A C -0.6206(3) 0.26702(18) -0.4642(5)
C3A C -0.5454(3) 0.2181(2) -0.5521(6)
H4A H -0.4820 0.2387 -0.6100
C4A C -0.5616(3) 0.1410(2) -0.5562(6)
H5A H -0.5097 0.1095 -0.6175
C5A C -0.6541(3) 0.1088(2) -0.4705(6)
C6A C -0.7308(3) 0.1572(2) -0.3861(5)
H6A H -0.7949 0.1367 -0.3304
C7A C -0.7144(3) 0.2350(2) -0.3829(5)
H7A H -0.7673 0.2667 -0.3251
Cd1B Cd -0.5000 0.5000 -0.5899(2)
O1B O -0.62055(16) 0.52849(11) 0.1622(5)
O1C O -0.37945(16) 0.47151(11) 0.1622(5)
O2B O -0.5241(2) 0.62552(13) -0.0824(10)
O2C O -0.4759(2) 0.37448(13) -0.0824(10)
loop_
_geom_bond_atom_site_label_1
_geom_bond_atom_site_label_2
_geom_bond_site_symmetry_1
_geom_bond_site_symmetry_2
Cd1 O1 1_555 1_555
O1 N1 1_555 1_555
O2 C1 1_555 1_555
N1 H1 1_555 1_555
N2 H2 1_555 1_555
H3 N2 1_555 1_555
C1 N1 1_555 1_555
C2 C1 1_555 1_555
C3 C2 1_555 1_555
H4 C3 1_555 1_555
C4 C3 1_555 1_555
H5 C4 1_555 1_555
C5 N2 1_555 1_555
C6 C5 1_555 1_555
H6 C6 1_555 1_555
C7 C2 1_555 1_555
H7 C7 1_555 1_555
O1A Cd1 1_555 1_555
O2A C1A 1_555 1_555
N1A O1A 1_555 1_555
H1A N1A 1_555 1_555
N2A H2A 1_555 1_555
H3A N2A 1_555 1_555
C1A N1A 1_555 1_555
C2A C1A 1_555 1_555
C3A C2A 1_555 1_555
H4A C3A 1_555 1_555
C4A C3A 1_555 1_555
H5A C4A 1_555 1_555
C5A N2A 1_555 1_555
C6A C5A 1_555 1_555
H6A C6A 1_555 1_555
C7A C2A 1_555 1_555
H7A C7A 1_555 1_555
Cd1B O1 1_555 1_555
O1B Cd1 1_555 1_555
O1C Cd1 1_555 1_555
O2B Cd1 1_555 1_555
O2C Cd1 1_555 1_555
O2 Cd1B 1_555 1_555
C4 C5 1_555 1_555
C6 C7 1_555 1_555
O1A Cd1B 1_555 1_555
O2A Cd1B 1_555 1_555
C4A C5A 1_555 1_555
C6A C7A 1_555 1_555

#END
