
#######################################################################
#
#                 Cambridge Crystallographic Data Centre
#                                CCDC 
#
#######################################################################
#
# If this CIF has been generated from an entry in the Cambridge 
# Structural Database, then it will include bibliographic, chemical, 
# crystal, experimental, refinement or atomic coordinate data resulting 
# from the CCDC's data processing and validation procedures.
#
#######################################################################

data_RITHEI01
_symmetry_cell_setting           orthorhombic
_symmetry_space_group_name_H-M   'P b c n'
_symmetry_Int_Tables_number      60
_space_group_name_Hall           '-P 2n 2ab'
loop_
_symmetry_equiv_pos_site_id
_symmetry_equiv_pos_as_xyz
1 x,y,z
2 1/2-x,1/2-y,1/2+z
3 -x,y,1/2-z
4 1/2+x,1/2-y,-z
5 -x,-y,-z
6 1/2+x,1/2+y,1/2-z
7 x,-y,1/2+z
8 1/2-x,1/2+y,z
_cell_length_a                   8.892(2)
_cell_length_b                   19.643(5)
_cell_length_c                   10.076(2)
_cell_angle_alpha                90
_cell_angle_beta                 90
_cell_angle_gamma                90
_cell_volume                     1759.93
loop_
_atom_site_label
_atom_site_type_symbol
_atom_site_fract_x
_atom_site_fract_y
_atom_site_fract_z
Sm1 Sm 0.0000 0.011375(11) 0.7500
O1 O 0.1991(3) -0.04062(12) 0.8866(2)
H1 H 0.1807 -0.0342 0.9653
O2 O 0.2513(3) 0.05017(11) 0.6644(2)
H2 H 0.2507 0.0497 0.5830
O3 O 0.1052(3) -0.06849(11) 0.6033(2)
O4 O 0.0438(3) -0.10274(11) 0.3995(2)
N1 N 0.1447(3) -0.32212(14) 0.6325(3)
C1 C 0.0817(4) -0.11332(16) 0.5180(3)
C2 C 0.1023(4) -0.18665(15) 0.5593(3)
C3 C 0.1762(4) -0.20292(17) 0.6765(3)
H3 H 0.2120 -0.1690 0.7326
C4 C 0.1952(4) -0.27114(18) 0.7077(4)
H4 H 0.2460 -0.2820 0.7856
C5 C 0.0705(4) -0.30588(17) 0.5214(4)
H5 H 0.0329 -0.3409 0.4688
C6 C 0.0473(4) -0.23925(17) 0.4812(3)
H6 H -0.0044 -0.2299 0.4031
Sm1D Sm 0.0000 -0.011375(11) 0.2500
Sm1D_2 Sm 0.0000 -0.011375(11) 1.2500
O1B O -0.1991(3) -0.04062(12) 0.6134(2)
H1B H -0.1807 -0.0342 0.5347
O2B O -0.2513(3) 0.05017(11) 0.8356(2)
H2B H -0.2507 0.0497 0.9170
O3B O -0.1052(3) -0.06849(11) 0.8967(2)
O4B O -0.0438(3) -0.10274(11) 1.1005(2)
O4D O -0.0438(3) 0.10274(11) 0.6005(2)
O4F O 0.0438(3) 0.10274(11) 0.8995(2)
N1B N -0.1447(3) -0.32212(14) 0.8675(3)
C1B C -0.0817(4) -0.11332(16) 0.9820(3)
C2B C -0.1023(4) -0.18665(15) 0.9407(3)
C3B C -0.1762(4) -0.20292(17) 0.8235(3)
H3B H -0.2120 -0.1690 0.7674
C4B C -0.1952(4) -0.27114(18) 0.7923(4)
H4B H -0.2460 -0.2820 0.7144
C5B C -0.0705(4) -0.30588(17) 0.9786(4)
H5B H -0.0329 -0.3409 1.0312
C6B C -0.0473(4) -0.23925(17) 1.0188(3)
H6B H 0.0044 -0.2299 1.0969
Cl1 Cl 0.5000 -0.05882(6) 0.7500
loop_
_geom_bond_atom_site_label_1
_geom_bond_atom_site_label_2
_geom_bond_site_symmetry_1
_geom_bond_site_symmetry_2
Sm1 O1 1_555 1_555
O1 H1 1_555 1_555
O2 Sm1 1_555 1_555
H2 O2 1_555 1_555
O3 Sm1 1_555 1_555
O4 C1 1_555 1_555
N1 C4 1_555 1_555
C1 O3 1_555 1_555
C2 C1 1_555 1_555
C3 C2 1_555 1_555
H3 C3 1_555 1_555
C4 C3 1_555 1_555
H4 C4 1_555 1_555
C5 N1 1_555 1_555
H5 C5 1_555 1_555
C6 C2 1_555 1_555
H6 C6 1_555 1_555
Sm1D O4 1_555 1_555
Sm1D_2 O4B 1_555 1_555
O1B Sm1 1_555 1_555
H1B O1B 1_555 1_555
O2B Sm1 1_555 1_555
H2B O2B 1_555 1_555
O3B Sm1 1_555 1_555
O4B C1B 1_555 1_555
O4D Sm1 1_555 1_555
O4F Sm1 1_555 1_555
N1B C4B 1_555 1_555
C1B O3B 1_555 1_555
C2B C1B 1_555 1_555
C3B C2B 1_555 1_555
H3B C3B 1_555 1_555
C4B C3B 1_555 1_555
H4B C4B 1_555 1_555
C5B N1B 1_555 1_555
H5B C5B 1_555 1_555
C6B C2B 1_555 1_555
H6B C6B 1_555 1_555
C5 C6 1_555 1_555
C5B C6B 1_555 1_555

#END
