
#######################################################################
#
#                 Cambridge Crystallographic Data Centre
#                                CCDC 
#
#######################################################################
#
# If this CIF has been generated from an entry in the Cambridge 
# Structural Database, then it will include bibliographic, chemical, 
# crystal, experimental, refinement or atomic coordinate data resulting 
# from the CCDC's data processing and validation procedures.
#
#######################################################################

data_RITKAH
_symmetry_cell_setting           orthorhombic
_symmetry_space_group_name_H-M   'P c c n'
_symmetry_Int_Tables_number      56
_space_group_name_Hall           '-P 2ab 2ac'
loop_
_symmetry_equiv_pos_site_id
_symmetry_equiv_pos_as_xyz
1 x,y,z
2 1/2-x,1/2-y,z
3 -x,1/2+y,1/2-z
4 1/2+x,-y,1/2-z
5 -x,-y,-z
6 1/2+x,1/2+y,-z
7 x,1/2-y,1/2+z
8 1/2-x,y,1/2+z
_cell_length_a                   13.5109(14)
_cell_length_b                   15.964(2)
_cell_length_c                   9.2157(16)
_cell_angle_alpha                90
_cell_angle_beta                 90
_cell_angle_gamma                90
_cell_volume                     1987.72
loop_
_atom_site_label
_atom_site_type_symbol
_atom_site_fract_x
_atom_site_fract_y
_atom_site_fract_z
Co1 Co 0.7500 0.7500 0.25905(6)
Cl1 Cl 0.77826(7) 0.45967(6) -0.08682(10)
Cl2 Cl 1.11100(8) 0.71113(7) 0.54570(14)
N1 N 0.89374(19) 0.68581(16) 0.2651(3)
O1 O 0.70392(16) 0.66997(13) 0.0924(2)
O2 O 0.80139(16) 0.65857(13) -0.1029(2)
C1 C 0.7764(2) 0.64027(19) 0.0240(3)
C2 C 0.8430(2) 0.57762(19) 0.0989(3)
C3 C 0.8519(2) 0.4963(2) 0.0541(4)
C4 C 0.9198(3) 0.4403(2) 0.1170(4)
H1 H 0.9214 0.3846 0.0871
C5 C 0.9831(3) 0.4674(2) 0.2212(4)
H2 H 1.0300 0.4309 0.2594
C6 C 0.9783(2) 0.5510(2) 0.2723(4)
C7 C 0.9051(2) 0.60506(19) 0.2140(3)
C8 C 0.9570(2) 0.7133(2) 0.3621(4)
H3 H 0.9503 0.7681 0.3949
C9 C 1.0338(2) 0.6646(2) 0.4188(4)
C10 C 1.0438(3) 0.5835(2) 0.3773(4)
H4 H 1.0929 0.5499 0.4175
Co1F Co 0.7500 0.7500 -0.24095(6)
Cl1A Cl 0.72174(7) 1.04033(6) -0.08682(10)
Cl2A Cl 0.38900(8) 0.78887(7) 0.54570(14)
N1A N 0.60626(19) 0.81419(16) 0.2651(3)
O1A O 0.79608(16) 0.83003(13) 0.0924(2)
O2A O 0.69861(16) 0.84143(13) -0.1029(2)
O2F O 0.80139(16) 0.84143(13) 0.3971(2)
O2G O 0.69861(16) 0.65857(13) 0.3971(2)
C1A C 0.7236(2) 0.85973(19) 0.0240(3)
C2A C 0.6570(2) 0.92238(19) 0.0989(3)
C3A C 0.6481(2) 1.0037(2) 0.0541(4)
C4A C 0.5802(3) 1.0597(2) 0.1170(4)
H1A H 0.5786 1.1154 0.0871
C5A C 0.5169(3) 1.0326(2) 0.2212(4)
H2A H 0.4700 1.0691 0.2594
C6A C 0.5217(2) 0.9490(2) 0.2723(4)
C7A C 0.5949(2) 0.89494(19) 0.2140(3)
C8A C 0.5430(2) 0.7867(2) 0.3621(4)
H3A H 0.5497 0.7319 0.3949
C9A C 0.4662(2) 0.8354(2) 0.4188(4)
C10A C 0.4562(3) 0.9165(2) 0.3773(4)
H4A H 0.4071 0.9501 0.4175
loop_
_geom_bond_atom_site_label_1
_geom_bond_atom_site_label_2
_geom_bond_site_symmetry_1
_geom_bond_site_symmetry_2
Co1 N1 1_555 1_555
Cl1 C3 1_555 1_555
Cl2 C9 1_555 1_555
N1 C7 1_555 1_555
O1 Co1 1_555 1_555
O2 C1 1_555 1_555
C1 O1 1_555 1_555
C2 C1 1_555 1_555
C3 C2 1_555 1_555
C4 C3 1_555 1_555
H1 C4 1_555 1_555
C5 C4 1_555 1_555
H2 C5 1_555 1_555
C6 C5 1_555 1_555
C7 C2 1_555 1_555
C8 N1 1_555 1_555
H3 C8 1_555 1_555
C9 C8 1_555 1_555
C10 C6 1_555 1_555
H4 C10 1_555 1_555
Co1F O2 1_555 1_555
Cl1A C3A 1_555 1_555
Cl2A C9A 1_555 1_555
N1A Co1 1_555 1_555
O1A Co1 1_555 1_555
O2A Co1F 1_555 1_555
O2F Co1 1_555 1_555
O2G Co1 1_555 1_555
C1A O1A 1_555 1_555
C2A C1A 1_555 1_555
C3A C2A 1_555 1_555
C4A C3A 1_555 1_555
H1A C4A 1_555 1_555
C5A C4A 1_555 1_555
H2A C5A 1_555 1_555
C6A C5A 1_555 1_555
C7A N1A 1_555 1_555
C8A N1A 1_555 1_555
H3A C8A 1_555 1_555
C9A C8A 1_555 1_555
C10A C6A 1_555 1_555
H4A C10A 1_555 1_555
C6 C7 1_555 1_555
C9 C10 1_555 1_555
O2A C1A 1_555 1_555
C2A C7A 1_555 1_555
C6A C7A 1_555 1_555
C9A C10A 1_555 1_555

#END
