
#######################################################################
#
#                 Cambridge Crystallographic Data Centre
#                                CCDC 
#
#######################################################################
#
# If this CIF has been generated from an entry in the Cambridge 
# Structural Database, then it will include bibliographic, chemical, 
# crystal, experimental, refinement or atomic coordinate data resulting 
# from the CCDC's data processing and validation procedures.
#
#######################################################################

data_RITKAI
_symmetry_cell_setting           monoclinic
_symmetry_space_group_name_H-M   'C 2/c'
_symmetry_Int_Tables_number      15
_space_group_name_Hall           '-C 2yn'
loop_
_symmetry_equiv_pos_site_id
_symmetry_equiv_pos_as_xyz
1 x,y,z
2 -x,y,1/2-z
3 1/2+x,1/2+y,z
4 1/2-x,1/2+y,1/2-z
5 -x,-y,-z
6 x,-y,1/2+z
7 1/2-x,1/2-y,-z
8 1/2+x,1/2-y,1/2+z
_cell_length_a                   21.7514(4)
_cell_length_b                   6.8794(2)
_cell_length_c                   12.9048(3)
_cell_angle_alpha                90
_cell_angle_beta                 93.621(3)
_cell_angle_gamma                90
_cell_volume                     1927.18
loop_
_atom_site_label
_atom_site_type_symbol
_atom_site_fract_x
_atom_site_fract_y
_atom_site_fract_z
Cu1 Cu 0.50000 0.56167(4) 0.25000
O1 O 0.58159(6) 0.55545(17) 0.19469(11)
O2 O 0.63771(7) 0.6755(3) 0.33131(11)
O3 O 0.90018(8) 0.6186(4) 0.03875(15)
O4 O 0.54054(7) 0.5818(3) 0.43338(12)
N1 N 0.50000 0.8590(3) 0.25000
N2 N 0.50000 1.2632(3) 0.25000
C1 C 0.63185(7) 0.6123(2) 0.24173(13)
C2 C 0.68848(7) 0.5984(2) 0.18010(13)
C3 C 0.68624(8) 0.5098(3) 0.08295(13)
C4 C 0.73941(8) 0.4934(3) 0.02948(13)
C5 C 0.79501(8) 0.5656(3) 0.07299(15)
C6 C 0.79729(8) 0.6554(3) 0.16972(14)
C7 C 0.74435(8) 0.6718(3) 0.22284(13)
C8 C 0.85122(10) 0.5472(3) 0.01458(19)
C9 C 0.52244(8) 0.9602(2) 0.17228(13)
C10 C 0.52268(8) 1.1618(2) 0.17257(13)
H1 H 0.64910 0.46150 0.05390
H2 H 0.73790 0.43420 -0.03540
H3 H 0.83440 0.70420 0.19860
H4 H 0.74590 0.73200 0.28750
H5 H 0.84820 0.47380 -0.04600
H6 H 0.53820 0.89410 0.11700
H7 H 0.53900 1.22800 0.11770
H8 H 0.5464(15) 0.485(3) 0.465(2)
H9 H 0.5738(10) 0.609(5) 0.414(2)
C9A C 0.47756(8) 0.9602(2) 0.32772(13)
C10A C 0.47732(8) 1.1618(2) 0.32743(13)
H6A H 0.46180 0.89410 0.38300
H7A H 0.46100 1.22800 0.38230
O1A O 0.41841(6) 0.55545(17) 0.30531(11)
O2A O 0.36229(7) 0.6755(3) 0.16869(11)
O3A O 0.09982(8) 0.6186(4) 0.46125(15)
O4A O 0.45946(7) 0.5818(3) 0.06662(12)
C1A C 0.36815(7) 0.6123(2) 0.25827(13)
C2A C 0.31152(7) 0.5984(2) 0.31990(13)
C3A C 0.31376(8) 0.5098(3) 0.41705(13)
C4A C 0.26059(8) 0.4934(3) 0.47052(13)
C5A C 0.20499(8) 0.5656(3) 0.42701(15)
C6A C 0.20271(8) 0.6554(3) 0.33028(14)
C7A C 0.25565(8) 0.6718(3) 0.27716(13)
C8A C 0.14878(10) 0.5472(3) 0.48542(19)
H1A H 0.35090 0.46150 0.44610
H2A H 0.26210 0.43420 0.53540
H3A H 0.16560 0.70420 0.30140
H4A H 0.25410 0.73200 0.21250
H5A H 0.15180 0.47380 0.54600
H8A H 0.4536(15) 0.485(3) 0.035(2)
H9A H 0.4262(10) 0.609(5) 0.086(2)
Cu1_2 Cu 0.50000 1.56167(4) 0.25000
N2_2 N 0.50000 0.2632(3) 0.25000
loop_
_geom_bond_atom_site_label_1
_geom_bond_atom_site_label_2
_geom_bond_site_symmetry_1
_geom_bond_site_symmetry_2
Cu1 O1 1_555 1_555
O1 C1 1_555 1_555
O2 C1 1_555 1_555
O3 C8 1_555 1_555
O4 Cu1 1_555 1_555
N1 Cu1 1_555 1_555
N2 C10 1_555 1_555
C1 C2 1_555 1_555
C2 C3 1_555 1_555
C3 C4 1_555 1_555
C4 C5 1_555 1_555
C5 C6 1_555 1_555
C6 C7 1_555 1_555
C7 C2 1_555 1_555
C8 C5 1_555 1_555
C9 N1 1_555 1_555
C10 C9 1_555 1_555
H1 C3 1_555 1_555
H2 C4 1_555 1_555
H3 C6 1_555 1_555
H4 C7 1_555 1_555
H5 C8 1_555 1_555
H6 C9 1_555 1_555
H7 C10 1_555 1_555
H8 O4 1_555 1_555
H9 O4 1_555 1_555
C9A N1 1_555 1_555
C10A N2 1_555 1_555
H6A C9A 1_555 1_555
H7A C10A 1_555 1_555
O1A Cu1 1_555 1_555
O2A C1A 1_555 1_555
O3A C8A 1_555 1_555
O4A Cu1 1_555 1_555
C1A O1A 1_555 1_555
C2A C1A 1_555 1_555
C3A C2A 1_555 1_555
C4A C3A 1_555 1_555
C5A C4A 1_555 1_555
C6A C5A 1_555 1_555
C7A C2A 1_555 1_555
C8A C5A 1_555 1_555
H1A C3A 1_555 1_555
H2A C4A 1_555 1_555
H3A C6A 1_555 1_555
H4A C7A 1_555 1_555
H5A C8A 1_555 1_555
H8A O4A 1_555 1_555
H9A O4A 1_555 1_555
Cu1_2 N2 1_555 1_555
N2_2 Cu1 1_555 1_555
C9A C10A 1_555 1_555
C6A C7A 1_555 1_555

#END
