
#######################################################################
#
#                 Cambridge Crystallographic Data Centre
#                                CCDC 
#
#######################################################################
#
# If this CIF has been generated from an entry in the Cambridge 
# Structural Database, then it will include bibliographic, chemical, 
# crystal, experimental, refinement or atomic coordinate data resulting 
# from the CCDC's data processing and validation procedures.
#
#######################################################################

data_RITLUC
_symmetry_cell_setting           orthorhombic
_symmetry_space_group_name_H-M   'P 21 21 21'
_symmetry_Int_Tables_number      19
_space_group_name_Hall           'P 2ac 2ab'
loop_
_symmetry_equiv_pos_site_id
_symmetry_equiv_pos_as_xyz
1 x,y,z
2 1/2-x,-y,1/2+z
3 1/2+x,1/2-y,-z
4 -x,1/2+y,1/2-z
_cell_length_a                   8.5212(2)
_cell_length_b                   12.8596(3)
_cell_length_c                   24.1208(5)
_cell_angle_alpha                90
_cell_angle_beta                 90
_cell_angle_gamma                90
_cell_volume                     2643.14
loop_
_atom_site_label
_atom_site_type_symbol
_atom_site_fract_x
_atom_site_fract_y
_atom_site_fract_z
Cu1 Cu 0.38978(5) 0.09580(3) 0.200935(19)
Cu2 Cu 0.36883(5) 0.07872(4) 0.37926(2)
Cl1 Cl 0.51981(10) 0.10513(8) 0.30059(4)
Cl2 Cl 0.18521(12) 0.19869(8) 0.36842(5)
C1 C 0.3259(4) -0.0952(3) 0.13957(15)
N1 N 0.6021(3) 0.0941(3) 0.16576(12)
N2 N 0.4087(3) -0.0639(2) 0.19051(12)
N3 N 0.1870(4) 0.0546(2) 0.23601(13)
N4 N -0.0505(3) -0.0543(3) -0.07028(13)
C2 C 0.0655(4) 0.1167(3) 0.24541(18)
H1 H 0.0709 0.1877 0.2347
C3 C 0.6806(5) 0.1777(3) 0.14584(17)
H2 H 0.6320 0.2442 0.1473
C4 C 0.3317(4) -0.1049(3) 0.24147(15)
H3 H 0.4025 -0.0965 0.2737
H4 H 0.3084 -0.1798 0.2369
C5 C 0.0495(4) -0.0859(3) 0.27597(17)
H5 H 0.0467 -0.1572 0.2864
C6 C 0.8212(5) -0.0136(3) 0.14235(17)
H6 H 0.8690 -0.0804 0.1417
C7 C -0.0709(4) 0.0787(4) 0.27095(18)
H7 H -0.1571 0.1237 0.2778
C8 C 0.6700(4) -0.0001(3) 0.16405(16)
C9 C 0.5798(4) -0.0888(3) 0.18907(16)
H8 H 0.5971 -0.1526 0.1669
H9 H 0.6179 -0.1020 0.2272
C10 C 0.2626(5) -0.1929(3) 0.13432(16)
H10 H 0.2784 -0.2425 0.1630
C11 C -0.1635(5) 0.0144(3) -0.08506(18)
H11 H -0.1500 0.0531 -0.1183
C12 C -0.3146(5) -0.0248(4) -0.00584(19)
H12 H -0.4062 -0.0159 0.0161
C13 C 0.8283(5) 0.1694(3) 0.12356(19)
H13 H 0.8809 0.2289 0.1095
C14 C -0.0667(4) -0.1074(3) -0.02265(16)
C15 C -0.1973(5) -0.0938(3) 0.01081(17)
H14 H -0.2070 -0.1311 0.0446
C16 C -0.0783(5) -0.0229(4) 0.28572(18)
H15 H -0.1703 -0.0503 0.3025
C17 C 0.1813(4) -0.0452(3) 0.25110(15)
C18 C 0.8990(5) 0.0725(3) 0.12199(17)
H16 H 1.0014 0.0653 0.1069
C19 C 0.3103(5) -0.0257(3) 0.09615(17)
H17 H 0.3567 0.0413 0.0986
Cl3 Cl 0.23483(12) -0.06110(8) 0.40611(5)
Cl4 Cl 0.32422(12) 0.25986(7) 0.17852(5)
C20 C 0.1552(4) -0.1518(3) 0.04453(16)
C21 C -0.2962(5) 0.0304(4) -0.05435(19)
H18 H -0.3739 0.0785 -0.0662
C22 C 0.2257(5) -0.0540(3) 0.04833(18)
H19 H 0.2164 -0.0062 0.0185
C23 C 0.1760(5) -0.2206(3) 0.08784(16)
H20 H 0.1305 -0.2880 0.0858
C24 C 0.0583(5) -0.1841(3) -0.00664(18)
H21 H 0.1304 -0.1936 -0.0384
H22 H 0.0081 -0.2521 0.0010
Cu2A Cu 0.13117(5) -0.07872(4) -0.12074(2)
N4A N 0.5505(3) 0.0543(3) 0.42972(13)
O1 O 0.0603(18) 0.1835(13) 0.0025(6)
C25 C -0.036(2) 0.2607(16) -0.0191(9)
loop_
_geom_bond_atom_site_label_1
_geom_bond_atom_site_label_2
_geom_bond_site_symmetry_1
_geom_bond_site_symmetry_2
Cu1 Cl1 1_555 1_555
Cu2 Cl1 1_555 1_555
Cl2 Cu2 1_555 1_555
C1 N2 1_555 1_555
N1 Cu1 1_555 1_555
N2 Cu1 1_555 1_555
N3 Cu1 1_555 1_555
N4 C11 1_555 1_555
C2 N3 1_555 1_555
H1 C2 1_555 1_555
C3 N1 1_555 1_555
H2 C3 1_555 1_555
C4 N2 1_555 1_555
H3 C4 1_555 1_555
H4 C4 1_555 1_555
C5 H5 1_555 1_555
C6 H6 1_555 1_555
C7 C2 1_555 1_555
H7 C7 1_555 1_555
C8 N1 1_555 1_555
C9 N2 1_555 1_555
H8 C9 1_555 1_555
H9 C9 1_555 1_555
C10 C1 1_555 1_555
H10 C10 1_555 1_555
C11 H11 1_555 1_555
C12 H12 1_555 1_555
C13 C3 1_555 1_555
H13 C13 1_555 1_555
C14 N4 1_555 1_555
C15 C12 1_555 1_555
H14 C15 1_555 1_555
C16 C5 1_555 1_555
H15 C16 1_555 1_555
C17 N3 1_555 1_555
C18 C6 1_555 1_555
H16 C18 1_555 1_555
C19 C1 1_555 1_555
H17 C19 1_555 1_555
Cl3 Cu2 1_555 1_555
Cl4 Cu1 1_555 1_555
C20 C22 1_555 1_555
C21 C11 1_555 1_555
H18 C21 1_555 1_555
C22 C19 1_555 1_555
H19 C22 1_555 1_555
C23 C10 1_555 1_555
H20 C23 1_555 1_555
C24 C14 1_555 1_555
H21 C24 1_555 1_555
H22 C24 1_555 1_555
O1 C25 1_555 1_555
Cu2A N4 1_555 1_555
N4A Cu2 1_555 1_555
C4 C17 1_555 1_555
C5 C17 1_555 1_555
C6 C8 1_555 1_555
C7 C16 1_555 1_555
C8 C9 1_555 1_555
C12 C21 1_555 1_555
C13 C18 1_555 1_555
C14 C15 1_555 1_555
C20 C23 1_555 1_555
C20 C24 1_555 1_555

#END
