
#######################################################################
#
#                 Cambridge Crystallographic Data Centre
#                                CCDC 
#
#######################################################################
#
# If this CIF has been generated from an entry in the Cambridge 
# Structural Database, then it will include bibliographic, chemical, 
# crystal, experimental, refinement or atomic coordinate data resulting 
# from the CCDC's data processing and validation procedures.
#
#######################################################################

data_RITTUK
_symmetry_cell_setting           monoclinic
_symmetry_space_group_name_H-M   'P 21/a'
_symmetry_Int_Tables_number      14
_space_group_name_Hall           '-P 2yab'
loop_
_symmetry_equiv_pos_site_id
_symmetry_equiv_pos_as_xyz
1 x,y,z
2 1/2-x,1/2+y,-z
3 -x,-y,-z
4 1/2+x,1/2-y,z
_cell_length_a                   9.549(3)
_cell_length_b                   9.998(2)
_cell_length_c                   23.201(6)
_cell_angle_alpha                90
_cell_angle_beta                 96.01(2)
_cell_angle_gamma                90
_cell_volume                     2202.85
loop_
_atom_site_label
_atom_site_type_symbol
_atom_site_fract_x
_atom_site_fract_y
_atom_site_fract_z
Cd1 Cd 0.18044(6) 0.03848(7) 0.48012(3)
O1 O 0.3620(7) -0.0710(6) 0.4361(3)
H1 H 0.4514 -0.0758 0.4395
H2 H 0.3300 -0.1504 0.4353
O2 O 0.0752(6) -0.0355(8) 0.3934(3)
H3 H 0.0101 -0.0713 0.3708
H4 H 0.1334 -0.0001 0.3726
O3 O 0.0582(6) -0.1225(7) 0.5238(3)
O4 O 0.2420(6) -0.2539(7) 0.5439(3)
O5 O 0.3101(7) -0.3062(7) 0.7256(3)
O6 O 0.2145(8) -0.1219(7) 0.6812(3)
N1 N 0.1503(8) -0.3276(8) 0.6485(3)
H5 H 0.1598 -0.4127 0.6528
C1 C 0.1216(8) -0.2146(9) 0.5525(4)
C2 C 0.0527(9) -0.2734(10) 0.6020(4)
H6 H -0.0037 -0.2047 0.6179
H7 H -0.0105 -0.3441 0.5871
C3 C 0.2243(11) -0.2442(11) 0.6842(4)
C4 C 0.3917(12) -0.2220(11) 0.7637(5)
H8 H 0.3309 -0.1610 0.7820
H9 H 0.4541 -0.1694 0.7423
C5 C 0.4767(11) -0.3028(11) 0.8091(4)
C6 C 0.5312(12) -0.4280(12) 0.7979(5)
H10 H 0.5125 -0.4652 0.7611
C7 C 0.6111(13) -0.4968(13) 0.8396(5)
H11 H 0.6482 -0.5794 0.8308
C8 C 0.6376(15) -0.4474(16) 0.8936(5)
H12 H 0.6908 -0.4965 0.9221
C9 C 0.5857(18) -0.3250(16) 0.9063(5)
H13 H 0.6032 -0.2906 0.9436
C10 C 0.5074(16) -0.2520(16) 0.8641(5)
H14 H 0.4750 -0.1674 0.8729
O7 O 0.3536(6) 0.0543(7) 0.5566(3)
O8 O 0.1706(7) 0.1544(7) 0.5871(3)
O9 O 0.1780(8) 0.2735(7) 0.7604(3)
O10 O 0.2999(9) 0.3774(8) 0.6965(3)
N2 N 0.2908(9) 0.1520(8) 0.7011(3)
H15 H 0.2587 0.0857 0.7194
C11 C 0.2897(9) 0.1098(9) 0.5956(4)
C12 C 0.3761(9) 0.1241(11) 0.6546(4)
H16 H 0.4282 0.0420 0.6633
H17 H 0.4438 0.1958 0.6525
C13 C 0.2601(11) 0.2742(10) 0.7167(4)
C14 C 0.1377(14) 0.4047(12) 0.7807(4)
H18 H 0.0484 0.4321 0.7603
H19 H 0.2084 0.4706 0.7735
C15 C 0.1253(11) 0.3944(12) 0.8445(4)
C16 C 0.0057(14) 0.3394(14) 0.8651(5)
H20 H -0.0681 0.3060 0.8399
C17 C 0.0013(18) 0.3366(17) 0.9253(6)
H21 H -0.0769 0.3000 0.9401
C18 C 0.1079(19) 0.3860(19) 0.9624(5)
H22 H 0.1024 0.3839 1.0022
C19 C 0.2171(16) 0.4360(18) 0.9419(5)
H23 H 0.2911 0.4675 0.9676
C20 C 0.2277(13) 0.4442(15) 0.8832(5)
H24 H 0.3063 0.4844 0.8701
Cd1B Cd -0.18044(6) -0.03848(7) 0.51988(3)
Cd1A Cd 0.31956(6) -0.46152(7) 0.51988(3)
O3B O -0.0582(6) 0.1225(7) 0.4762(3)
O4A O 0.2580(6) 0.2461(7) 0.4561(3)
loop_
_geom_bond_atom_site_label_1
_geom_bond_atom_site_label_2
_geom_bond_site_symmetry_1
_geom_bond_site_symmetry_2
Cd1 O1 1_555 1_555
O1 H1 1_555 1_555
H2 O1 1_555 1_555
O2 Cd1 1_555 1_555
H3 O2 1_555 1_555
H4 O2 1_555 1_555
O3 Cd1 1_555 1_555
O4 C1 1_555 1_555
O5 C3 1_555 1_555
O6 C3 1_555 1_555
N1 H5 1_555 1_555
C1 O3 1_555 1_555
C2 N1 1_555 1_555
H6 C2 1_555 1_555
H7 C2 1_555 1_555
C3 N1 1_555 1_555
C4 O5 1_555 1_555
H8 C4 1_555 1_555
H9 C4 1_555 1_555
C5 C4 1_555 1_555
C6 C5 1_555 1_555
H10 C6 1_555 1_555
C7 C6 1_555 1_555
H11 C7 1_555 1_555
C8 C7 1_555 1_555
H12 C8 1_555 1_555
C9 C8 1_555 1_555
H13 C9 1_555 1_555
C10 C5 1_555 1_555
H14 C10 1_555 1_555
O7 Cd1 1_555 1_555
O8 Cd1 1_555 1_555
O9 C13 1_555 1_555
O10 C13 1_555 1_555
N2 H15 1_555 1_555
C11 O7 1_555 1_555
C12 N2 1_555 1_555
H16 C12 1_555 1_555
H17 C12 1_555 1_555
C13 N2 1_555 1_555
C14 O9 1_555 1_555
H18 C14 1_555 1_555
H19 C14 1_555 1_555
C15 C14 1_555 1_555
C16 C15 1_555 1_555
H20 C16 1_555 1_555
C17 C16 1_555 1_555
H21 C17 1_555 1_555
C18 C17 1_555 1_555
H22 C18 1_555 1_555
C19 C18 1_555 1_555
H23 C19 1_555 1_555
C20 C15 1_555 1_555
H24 C20 1_555 1_555
Cd1B O3 1_555 1_555
Cd1A O4 1_555 1_555
O3B Cd1 1_555 1_555
O4A Cd1 1_555 1_555
C1 C2 1_555 1_555
C9 C10 1_555 1_555
O8 C11 1_555 1_555
C11 C12 1_555 1_555
C19 C20 1_555 1_555
Cd1B O3B 1_555 1_555

#END
