
#######################################################################
#
#                 Cambridge Crystallographic Data Centre
#                                CCDC 
#
#######################################################################
#
# If this CIF has been generated from an entry in the Cambridge 
# Structural Database, then it will include bibliographic, chemical, 
# crystal, experimental, refinement or atomic coordinate data resulting 
# from the CCDC's data processing and validation procedures.
#
#######################################################################

data_RITTIY
_symmetry_cell_setting           tetragonal
_symmetry_space_group_name_H-M   'I 41/a'
_symmetry_Int_Tables_number      88
_space_group_name_Hall           '-I 4ad'
loop_
_symmetry_equiv_pos_site_id
_symmetry_equiv_pos_as_xyz
1 x,y,z
2 3/4-y,1/4+x,1/4+z
3 1/4+y,1/4-x,1/4+z
4 1/2+x,1/2+y,1/2+z
5 1/4-y,3/4+x,3/4+z
6 -x,1/2-y,z
7 1/2-x,-y,1/2+z
8 3/4+y,3/4-x,3/4+z
9 -x,-y,-z
10 1/4+y,3/4-x,3/4-z
11 3/4-y,3/4+x,3/4-z
12 1/2-x,1/2-y,1/2-z
13 3/4+y,1/4-x,1/4-z
14 x,1/2+y,-z
15 1/2+x,y,1/2-z
16 1/4-y,1/4+x,1/4-z
_cell_length_a                   42.260(10)
_cell_length_b                   42.260(10)
_cell_length_c                   9.636(9)
_cell_angle_alpha                90
_cell_angle_beta                 90
_cell_angle_gamma                90
_cell_volume                     17209
loop_
_atom_site_label
_atom_site_type_symbol
_atom_site_fract_x
_atom_site_fract_y
_atom_site_fract_z
Cu1 Cu 0.84979(3) 0.16993(3) -0.30593(12)
Cu2 Cu 0.86574(3) 0.14007(3) 0.19129(12)
P1 P 0.81878(6) 0.12433(6) -0.0685(3)
P2 P 0.83025(6) 0.19090(6) -0.0044(2)
P3 P 0.81224(6) 0.13977(6) -0.5672(3)
P4 P 0.87514(6) 0.11419(6) -0.5034(3)
O1 O 0.83634(13) 0.13235(12) -0.2034(6)
O2 O 0.83832(13) 0.11037(12) 0.0468(6)
O3 O 0.83827(15) 0.19877(13) -0.1518(6)
O4 O 0.85783(14) 0.18039(13) 0.0814(7)
O5 O 0.82752(12) 0.14980(14) -0.7007(6)
O6 O 0.81135(13) 0.16369(13) -0.4528(6)
O7 O 0.88595(15) 0.11820(16) -0.6519(7)
O8 O 0.88054(14) 0.14236(13) -0.4101(6)
N1 N 0.86513(16) 0.20803(18) -0.4106(8)
N2 N 0.88525(18) 0.34412(17) -0.8363(8)
C1 C 0.80027(19) 0.16038(19) -0.0070(9)
H1 H 0.7831 0.1664 -0.0683
H2 H 0.7918 0.1572 0.0854
C2 C 0.83431(18) 0.10578(19) -0.5075(9)
H3 H 0.8272 0.0999 -0.4153
H4 H 0.8305 0.088 -0.569
C3 C 0.8619(3) 0.2367(4) -0.3708(17)
H5 H 0.8563 0.2399 -0.2785
C4 C 0.8658(3) 0.2632(4) -0.4509(16)
H6 H 0.8614 0.283 -0.4132
C5 C 0.8761(2) 0.2612(2) -0.5844(9)
C6 C 0.8813(3) 0.2314(3) -0.6283(14)
H7 H 0.888 0.2276 -0.7188
C7 C 0.8768(3) 0.2070(3) -0.5387(13)
H8 H 0.8825 0.1871 -0.571
C8 C 0.8853(3) 0.3163(3) -0.8943(14)
H9 H 0.8864 0.3148 -0.9905
C9 C 0.8837(3) 0.2878(3) -0.8135(13)
H10 H 0.8852 0.2683 -0.8571
C10 C 0.8798(2) 0.2893(2) -0.6703(10)
C11 C 0.8793(3) 0.3186(3) -0.6148(13)
H11 H 0.8775 0.3209 -0.5192
C12 C 0.8815(3) 0.3452(3) -0.6973(13)
H12 H 0.8803 0.3649 -0.6548
C13 C 0.7867(2) 0.0979(2) -0.1107(9)
C14 C 0.7675(2) 0.1038(2) -0.2258(10)
H13 H 0.7713 0.1216 -0.2804
C15 C 0.7429(3) 0.0835(3) -0.2594(12)
H14 H 0.7303 0.0876 -0.3366
C16 C 0.7371(3) 0.0576(3) -0.1792(13)
H15 H 0.7195 0.045 -0.1975
C17 C 0.7571(3) 0.0497(3) -0.0709(13)
H16 H 0.7543 0.0308 -0.0232
C18 C 0.7818(2) 0.0704(2) -0.0332(11)
H17 H 0.7946 0.0658 0.0425
C19 C 0.8137(2) 0.2255(2) 0.0710(10)
C20 C 0.8047(3) 0.2499(3) -0.0045(14)
H18 H 0.8074 0.2495 -0.1003
C21 C 0.7907(3) 0.2773(3) 0.0622(15)
H19 H 0.7844 0.2947 0.0101
C22 C 0.7870(3) 0.2770(3) 0.1974(13)
H20 H 0.7792 0.295 0.2406
C23 C 0.7939(3) 0.2525(3) 0.2734(13)
H21 H 0.7898 0.2528 0.3682
C24 C 0.8072(2) 0.2263(3) 0.2130(11)
H22 H 0.8119 0.2088 0.2675
C25 C 0.7718(2) 0.1279(2) -0.6033(10)
C26 C 0.7671(3) 0.1063(3) -0.7093(12)
H23 H 0.7839 0.0988 -0.7621
C27 C 0.7358(3) 0.0959(3) -0.7345(14)
H24 H 0.7321 0.0794 -0.7961
C28 C 0.7114(3) 0.1100(2) -0.6689(11)
H25 H 0.6909 0.1037 -0.6889
C29 C 0.7161(2) 0.1326(2) -0.5773(10)
H26 H 0.6989 0.1422 -0.5339
C30 C 0.7471(2) 0.1425(2) -0.5447(11)
H27 H 0.7504 0.159 -0.4828
C31 C 0.8963(2) 0.0814(2) -0.4328(10)
C32 C 0.8883(3) 0.0672(3) -0.3122(14)
H28 H 0.8697 0.0737 -0.2684
C33 C 0.9059(3) 0.0438(3) -0.2507(14)
H29 H 0.8995 0.035 -0.1669
C34 C 0.9325(2) 0.0339(2) -0.3128(11)
H30 H 0.945 0.0187 -0.2698
C35 C 0.9412(3) 0.0455(3) -0.4353(13)
H31 H 0.9592 0.0378 -0.4792
C36 C 0.9229(3) 0.0695(3) -0.4984(13)
H32 H 0.9289 0.0773 -0.5848
Cu2_2 Cu 0.86574(3) 0.14007(3) -0.80871(12)
Cu2L Cu 0.89007(3) 0.38426(3) -0.94129(12)
O5_2 O 0.82752(12) 0.14980(14) 0.2993(6)
O7_2 O 0.88595(15) 0.11820(16) 0.3481(7)
N2O N 0.90588(17) 0.13525(18) 0.0863(8)
O9 O 0.9124(3) 0.2159(3) 0.0088(14)
O10 O 0.9572(6) 0.2240(6) 0.198(3)
O11 O 0.9434(6) 0.1730(6) 0.537(3)
O12 O 0.9574(6) 0.2148(6) 0.745(3)
O13 O 0.7800(4) 0.2177(4) 0.6417(18)
loop_
_geom_bond_atom_site_label_1
_geom_bond_atom_site_label_2
_geom_bond_site_symmetry_1
_geom_bond_site_symmetry_2
Cu1 O1 1_555 1_555
Cu2 O2 1_555 1_555
P1 O1 1_555 1_555
P2 O3 1_555 1_555
P3 O5 1_555 1_555
P4 O7 1_555 1_555
O2 P1 1_555 1_555
O3 Cu1 1_555 1_555
O4 Cu2 1_555 1_555
O5 Cu2_2 1_555 1_555
O6 Cu1 1_555 1_555
O7 Cu2_2 1_555 1_555
O8 Cu1 1_555 1_555
N1 Cu1 1_555 1_555
N2 C8 1_555 1_555
C1 P1 1_555 1_555
H1 C1 1_555 1_555
H2 C1 1_555 1_555
C2 P3 1_555 1_555
H3 C2 1_555 1_555
H4 C2 1_555 1_555
C3 N1 1_555 1_555
H5 C3 1_555 1_555
C4 C3 1_555 1_555
H6 C4 1_555 1_555
C5 C4 1_555 1_555
C6 C5 1_555 1_555
H7 C6 1_555 1_555
C7 N1 1_555 1_555
H8 C7 1_555 1_555
C8 H9 1_555 1_555
C9 C8 1_555 1_555
H10 C9 1_555 1_555
C10 C5 1_555 1_555
C11 C10 1_555 1_555
H11 C11 1_555 1_555
C12 N2 1_555 1_555
H12 C12 1_555 1_555
C13 P1 1_555 1_555
C14 C13 1_555 1_555
H13 C14 1_555 1_555
C15 C14 1_555 1_555
H14 C15 1_555 1_555
C16 C15 1_555 1_555
H15 C16 1_555 1_555
C17 C16 1_555 1_555
H16 C17 1_555 1_555
C18 C13 1_555 1_555
H17 C18 1_555 1_555
C19 P2 1_555 1_555
C20 C19 1_555 1_555
H18 C20 1_555 1_555
C21 C20 1_555 1_555
H19 C21 1_555 1_555
C22 C21 1_555 1_555
H20 C22 1_555 1_555
C23 C22 1_555 1_555
H21 C23 1_555 1_555
C24 C19 1_555 1_555
H22 C24 1_555 1_555
C25 P3 1_555 1_555
C26 C25 1_555 1_555
H23 C26 1_555 1_555
C27 C26 1_555 1_555
H24 C27 1_555 1_555
C28 C27 1_555 1_555
H25 C28 1_555 1_555
C29 C28 1_555 1_555
H26 C29 1_555 1_555
C30 C25 1_555 1_555
H27 C30 1_555 1_555
C31 P4 1_555 1_555
C32 C31 1_555 1_555
H28 C32 1_555 1_555
C33 C32 1_555 1_555
H29 C33 1_555 1_555
C34 C33 1_555 1_555
H30 C34 1_555 1_555
C35 C34 1_555 1_555
H31 C35 1_555 1_555
C36 C31 1_555 1_555
H32 C36 1_555 1_555
Cu2L N2 1_555 1_555
O5_2 Cu2 1_555 1_555
O7_2 Cu2 1_555 1_555
N2O Cu2 1_555 1_555
P2 O4 1_555 1_555
P2 C1 1_555 1_555
P3 O6 1_555 1_555
P4 O8 1_555 1_555
P4 C2 1_555 1_555
C6 C7 1_555 1_555
C9 C10 1_555 1_555
C11 C12 1_555 1_555
C17 C18 1_555 1_555
C23 C24 1_555 1_555
C29 C30 1_555 1_555
C35 C36 1_555 1_555

#END
