
#######################################################################
#
#                 Cambridge Crystallographic Data Centre
#                                CCDC 
#
#######################################################################
#
# If this CIF has been generated from an entry in the Cambridge 
# Structural Database, then it will include bibliographic, chemical, 
# crystal, experimental, refinement or atomic coordinate data resulting 
# from the CCDC's data processing and validation procedures.
#
#######################################################################

data_RITWIB
_symmetry_cell_setting           monoclinic
_symmetry_space_group_name_H-M   'P 21/c'
_symmetry_Int_Tables_number      14
_space_group_name_Hall           '-P 2ybc'
loop_
_symmetry_equiv_pos_site_id
_symmetry_equiv_pos_as_xyz
1 x,y,z
2 -x,1/2+y,1/2-z
3 -x,-y,-z
4 x,1/2-y,1/2+z
_cell_length_a                   12.391(5)
_cell_length_b                   12.770(5)
_cell_length_c                   7.135(5)
_cell_angle_alpha                90.000(5)
_cell_angle_beta                 95.155(5)
_cell_angle_gamma                90.000(5)
_cell_volume                     1124.43
loop_
_atom_site_label
_atom_site_type_symbol
_atom_site_fract_x
_atom_site_fract_y
_atom_site_fract_z
Cu1 Cu 0.68330(4) 0.08657(4) -0.05882(7)
O1 O 0.7291(2) -0.0653(2) -0.0538(4)
O2 O 0.8661(3) -0.1689(2) 0.0596(5)
O3 O 0.6730(2) 0.2390(2) 0.0181(4)
O4 O 0.7695(2) 0.3645(2) 0.1795(4)
O5 O 1.1024(3) 0.1258(3) 0.4105(5)
N1 N 0.8128(3) 0.0975(3) 0.1034(5)
N2 N 0.5398(3) 0.0757(3) -0.1934(5)
C1 C 0.8197(3) -0.0831(4) 0.0409(6)
C2 C 0.8733(3) 0.0121(3) 0.1349(6)
C3 C 0.9730(3) 0.0195(3) 0.2427(6)
H1 H 1.0161 -0.0394 0.2681
C4 C 1.0060(3) 0.1185(3) 0.3114(6)
C5 C 0.9385(3) 0.2058(3) 0.2792(6)
H2 H 0.9583 0.2711 0.3283
C6 C 0.8416(3) 0.1912(3) 0.1723(6)
C7 C 0.7554(3) 0.2730(3) 0.1218(6)
C8 C 0.4823(3) 0.1607(3) -0.2466(6)
H3 H 0.5100 0.2261 -0.2110
C9 C 0.3829(4) 0.1553(4) -0.3530(6)
H4 H 0.3446 0.2160 -0.3874
C10 C 0.3420(4) 0.0581(4) -0.4070(7)
H5 H 0.2765 0.0524 -0.4807
C11 C 0.4004(4) -0.0311(4) -0.3491(6)
H6 H 0.3737 -0.0975 -0.3798
C12 C 0.4989(4) -0.0187(3) -0.2451(6)
H7 H 0.5388 -0.0782 -0.2092
H8 H 1.122(5) 0.183(5) 0.427(9)
Cu1C Cu 0.68330(4) 0.41343(4) 0.44118(7)
O4C O 0.7695(2) 0.1355(2) -0.3205(4)
loop_
_geom_bond_atom_site_label_1
_geom_bond_atom_site_label_2
_geom_bond_site_symmetry_1
_geom_bond_site_symmetry_2
Cu1 O1 1_555 1_555
O1 C1 1_555 1_555
O2 C1 1_555 1_555
O3 Cu1 1_555 1_555
O4 C7 1_555 1_555
O5 C4 1_555 1_555
N1 Cu1 1_555 1_555
N2 Cu1 1_555 1_555
C1 C2 1_555 1_555
C2 N1 1_555 1_555
C3 C2 1_555 1_555
H1 C3 1_555 1_555
C4 C3 1_555 1_555
C5 C4 1_555 1_555
H2 C5 1_555 1_555
C6 N1 1_555 1_555
C7 O3 1_555 1_555
C8 N2 1_555 1_555
H3 C8 1_555 1_555
C9 C8 1_555 1_555
H4 C9 1_555 1_555
C10 C9 1_555 1_555
H5 C10 1_555 1_555
C11 C10 1_555 1_555
H6 C11 1_555 1_555
C12 N2 1_555 1_555
H7 C12 1_555 1_555
H8 O5 1_555 1_555
Cu1C O4 1_555 1_555
O4C Cu1 1_555 1_555
C5 C6 1_555 1_555
C6 C7 1_555 1_555
C11 C12 1_555 1_555

#END
