
#######################################################################
#
#                 Cambridge Crystallographic Data Centre
#                                CCDC 
#
#######################################################################
#
# If this CIF has been generated from an entry in the Cambridge 
# Structural Database, then it will include bibliographic, chemical, 
# crystal, experimental, refinement or atomic coordinate data resulting 
# from the CCDC's data processing and validation procedures.
#
#######################################################################

data_RIVCOP
_symmetry_cell_setting           triclinic
_symmetry_space_group_name_H-M   'P -1'
_symmetry_Int_Tables_number      2
_space_group_name_Hall           '-P 1'
loop_
_symmetry_equiv_pos_site_id
_symmetry_equiv_pos_as_xyz
1 x,y,z
2 -x,-y,-z
_cell_length_a                   7.8634(1)
_cell_length_b                   10.1313(1)
_cell_length_c                   10.5644(1)
_cell_angle_alpha                80.293(5)
_cell_angle_beta                 77.927(4)
_cell_angle_gamma                72.582(4)
_cell_volume                     780.191
loop_
_atom_site_label
_atom_site_type_symbol
_atom_site_fract_x
_atom_site_fract_y
_atom_site_fract_z
Pd1 Pd 1.0000 0.0000 1.0000
Na1 Na 0.6870(1) -0.11048(9) 1.04845(8)
O1 O 0.9271(2) -0.3095(2) 1.0992(2)
O2 O 1.4156(2) -0.1396(1) 1.0435(1)
O3 O 0.6794(2) -0.0234(2) 1.2542(2)
O4 O 1.1764(2) 0.1394(2) 1.1764(1)
N1 N 1.1467(2) -0.1914(2) 1.0566(2)
N2 N 0.9410(2) 0.0458(2) 1.1841(2)
C1 C 1.0825(3) -0.3076(2) 1.0966(2)
C2 C 1.2348(3) -0.4252(2) 1.1383(2)
C3 C 1.2439(3) -0.5623(2) 1.1838(2)
C4 C 1.4090(3) -0.6466(2) 1.2168(2)
C5 C 1.5545(3) -0.5936(2) 1.2042(2)
C6 C 1.5456(3) -0.4548(2) 1.1560(2)
C7 C 1.3826(3) -0.3730(2) 1.1233(2)
C8 C 1.3239(3) -0.2231(2) 1.0700(2)
C9 C 0.7906(3) 0.0313(2) 1.2717(2)
C10 C 0.7868(3) 0.0966(2) 1.3909(2)
C11 C 0.6640(4) 0.1145(3) 1.5048(2)
C12 C 0.6990(4) 0.1847(3) 1.5951(2)
C13 C 0.8513(4) 0.2326(3) 1.5708(2)
C14 C 0.9756(4) 0.2138(3) 1.4554(2)
C15 C 0.9398(3) 0.1442(2) 1.3667(2)
C16 C 1.0377(3) 0.1114(2) 1.2337(2)
H1 H 1.1423 -0.5985 1.1918
H2 H 1.4210 -0.7429 1.2483
H3 H 1.6654 -0.6540 1.2289
H4 H 1.6473 -0.4178 1.1469
H5 H 0.5598 0.0788 1.5221
H6 H 0.6156 0.2016 1.6756
H7 H 0.8725 0.2795 1.6352
H8 H 1.0816 0.2478 1.4387
Na1A Na 1.3130(1) 0.11048(9) 0.95155(8)
Na1_2 Na 1.6870(1) -0.11048(9) 1.04845(8)
Na1A_2 Na 0.3130(1) 0.11048(9) 0.95155(8)
O1A O 1.0729(2) 0.3095(2) 0.9008(2)
O2A O 0.5844(2) 0.1396(1) 0.9565(1)
O2_2 O 0.4156(2) -0.1396(1) 1.0435(1)
O2A_2 O 1.5844(2) 0.1396(1) 0.9565(1)
O3A O 1.3206(2) 0.0234(2) 0.7458(2)
O4A O 0.8236(2) -0.1394(2) 0.8236(1)
N1A N 0.8533(2) 0.1914(2) 0.9434(2)
N2A N 1.0590(2) -0.0458(2) 0.8159(2)
C1A C 0.9175(3) 0.3076(2) 0.9034(2)
C2A C 0.7652(3) 0.4252(2) 0.8617(2)
C3A C 0.7561(3) 0.5623(2) 0.8162(2)
C4A C 0.5910(3) 0.6466(2) 0.7832(2)
C5A C 0.4455(3) 0.5936(2) 0.7958(2)
C6A C 0.4544(3) 0.4548(2) 0.8440(2)
C7A C 0.6174(3) 0.3730(2) 0.8767(2)
C8A C 0.6761(3) 0.2231(2) 0.9300(2)
C9A C 1.2094(3) -0.0313(2) 0.7283(2)
C10A C 1.2132(3) -0.0966(2) 0.6091(2)
C11A C 1.3360(4) -0.1145(3) 0.4952(2)
C12A C 1.3010(4) -0.1847(3) 0.4049(2)
C13A C 1.1487(4) -0.2326(3) 0.4292(2)
C14A C 1.0244(4) -0.2138(3) 0.5446(2)
C15A C 1.0602(3) -0.1442(2) 0.6333(2)
C16A C 0.9623(3) -0.1114(2) 0.7663(2)
H1A H 0.8577 0.5985 0.8082
H2A H 0.5790 0.7429 0.7517
H3A H 0.3346 0.6540 0.7711
H4A H 0.3527 0.4178 0.8531
H5A H 1.4402 -0.0788 0.4779
H6A H 1.3844 -0.2016 0.3244
H7A H 1.1275 -0.2795 0.3648
H8A H 0.9184 -0.2478 0.5613
loop_
_geom_bond_atom_site_label_1
_geom_bond_atom_site_label_2
_geom_bond_site_symmetry_1
_geom_bond_site_symmetry_2
Pd1 N1 1_555 1_555
Na1 O1 1_555 1_555
O1 C1 1_555 1_555
O2 C8 1_555 1_555
O3 Na1 1_555 1_555
O4 C16 1_555 1_555
N1 C1 1_555 1_555
N2 Pd1 1_555 1_555
C1 C2 1_555 1_555
C2 C3 1_555 1_555
C3 C4 1_555 1_555
C4 C5 1_555 1_555
C5 C6 1_555 1_555
C6 C7 1_555 1_555
C7 C2 1_555 1_555
C8 N1 1_555 1_555
C9 O3 1_555 1_555
C10 C9 1_555 1_555
C11 C10 1_555 1_555
C12 C11 1_555 1_555
C13 C12 1_555 1_555
C14 C13 1_555 1_555
C15 C10 1_555 1_555
C16 N2 1_555 1_555
H1 C3 1_555 1_555
H2 C4 1_555 1_555
H3 C5 1_555 1_555
H4 C6 1_555 1_555
H5 C11 1_555 1_555
H6 C12 1_555 1_555
H7 C13 1_555 1_555
H8 C14 1_555 1_555
Na1A O2 1_555 1_555
Na1_2 O2 1_555 1_555
Na1A_2 O2A 1_555 1_555
O1A Na1A 1_555 1_555
O2A Na1 1_555 1_555
O2_2 Na1 1_555 1_555
O2A_2 Na1A 1_555 1_555
O3A Na1A 1_555 1_555
O4A Na1 1_555 1_555
N1A Pd1 1_555 1_555
N2A Pd1 1_555 1_555
C1A O1A 1_555 1_555
C2A C1A 1_555 1_555
C3A C2A 1_555 1_555
C4A C3A 1_555 1_555
C5A C4A 1_555 1_555
C6A C5A 1_555 1_555
C7A C2A 1_555 1_555
C8A O2A 1_555 1_555
C9A O3A 1_555 1_555
C10A C9A 1_555 1_555
C11A C10A 1_555 1_555
C12A C11A 1_555 1_555
C13A C12A 1_555 1_555
C14A C13A 1_555 1_555
C15A C10A 1_555 1_555
C16A O4A 1_555 1_555
H1A C3A 1_555 1_555
H2A C4A 1_555 1_555
H3A C5A 1_555 1_555
H4A C6A 1_555 1_555
H5A C11A 1_555 1_555
H6A C12A 1_555 1_555
H7A C13A 1_555 1_555
H8A C14A 1_555 1_555
O4 Na1A 1_555 1_555
N2 C9 1_555 1_555
C7 C8 1_555 1_555
C14 C15 1_555 1_555
C15 C16 1_555 1_555
Na1_2 O2A_2 1_555 1_555
Na1A_2 O2_2 1_555 1_555
N1A C1A 1_555 1_555
N1A C8A 1_555 1_555
N2A C9A 1_555 1_555
N2A C16A 1_555 1_555
C6A C7A 1_555 1_555
C7A C8A 1_555 1_555
C14A C15A 1_555 1_555
C15A C16A 1_555 1_555

#END
