
#######################################################################
#
#                 Cambridge Crystallographic Data Centre
#                                CCDC 
#
#######################################################################
#
# If this CIF has been generated from an entry in the Cambridge 
# Structural Database, then it will include bibliographic, chemical, 
# crystal, experimental, refinement or atomic coordinate data resulting 
# from the CCDC's data processing and validation procedures.
#
#######################################################################

data_RIVCUV
_symmetry_cell_setting           triclinic
_symmetry_space_group_name_H-M   'P -1'
_symmetry_Int_Tables_number      2
_space_group_name_Hall           '-P 1'
loop_
_symmetry_equiv_pos_site_id
_symmetry_equiv_pos_as_xyz
1 x,y,z
2 -x,-y,-z
_cell_length_a                   10.756(7)
_cell_length_b                   10.899(7)
_cell_length_c                   15.461(9)
_cell_angle_alpha                71.17(2)
_cell_angle_beta                 77.98(2)
_cell_angle_gamma                89.05(2)
_cell_volume                     1675.36
loop_
_atom_site_label
_atom_site_type_symbol
_atom_site_fract_x
_atom_site_fract_y
_atom_site_fract_z
Pd1 Pd 1.0000 0.0000 -1.0000
Pd2 Pd 0.5000 0.0000 -0.5000
K1 K 1.0357(2) 0.0992(3) -1.2455(2)
K2 K 0.6295(2) 0.0398(2) -0.7266(2)
O1 O 0.8190(8) -0.0371(9) -1.1339(5)
O2 O 0.7470(8) -0.1202(8) -0.8192(5)
O3 O 0.990(1) 0.2835(9) -1.1583(6)
O4 O 0.8733(8) 0.1382(7) -0.8385(5)
O5 O 0.4697(8) -0.1763(8) -0.6351(5)
O6 O 0.3738(9) -0.2580(8) -0.3178(5)
O7 O 1.3858(7) 0.0946(9) -1.6978(5)
O8 O 1.2233(7) 0.0750(7) -1.3950(5)
O9 O 0.778(1) 0.157(1) -1.2990(8)
O10 O 0.932(4) 0.376(5) -1.348(2)
N1 N 0.8182(8) -0.0634(8) -0.9790(6)
N2 N 0.9422(8) 0.1765(8) -0.9989(6)
N3 N 0.4381(8) -0.1826(8) -0.4805(6)
N4 N 1.3363(8) 0.0690(8) -1.5401(6)
C1 C 0.764(1) -0.071(1) -1.0516(7)
C2 C 0.628(1) -0.128(1) -1.0114(6)
C3 C 0.541(1) -0.162(1) -1.0544(9)
C4 C 0.425(1) -0.215(2) -0.997(1)
C5 C 0.404(1) -0.241(2) -0.8971(10)
C6 C 0.494(1) -0.210(1) -0.8570(8)
C7 C 0.6103(10) -0.154(1) -0.9161(8)
C8 C 0.7319(10) -0.113(1) -0.8956(7)
C9 C 0.950(1) 0.2832(10) -1.0784(7)
C10 C 0.890(1) 0.3937(10) -1.0493(8)
C11 C 0.870(1) 0.517(1) -1.1009(8)
C12 C 0.804(2) 0.596(1) -1.050(1)
C13 C 0.768(1) 0.550(1) -0.9555(10)
C14 C 0.791(1) 0.425(1) -0.9032(8)
C15 C 0.8548(9) 0.3480(10) -0.9524(8)
C16 C 0.8911(10) 0.2109(10) -0.9207(7)
C17 C 0.433(1) -0.233(1) -0.5494(8)
C18 C 0.3783(9) -0.3718(10) -0.5062(7)
C19 C 0.355(1) -0.461(1) -0.5479(9)
C20 C 0.309(1) -0.585(1) -0.4863(10)
C21 C 0.285(1) -0.614(1) -0.391(1)
C22 C 0.307(1) -0.521(1) -0.3509(9)
C23 C 0.3538(10) -0.398(1) -0.4109(8)
C24 C 0.3890(9) -0.2751(10) -0.3949(7)
C25 C 1.3121(10) 0.099(1) -1.6281(7)
C26 C 1.1761(9) 0.1379(10) -1.6229(7)
C27 C 1.103(1) 0.172(1) -1.6884(7)
C28 C 0.976(1) 0.202(1) -1.6623(9)
C29 C 0.931(1) 0.206(1) -1.5701(9)
C30 C 1.006(1) 0.169(1) -1.5023(8)
C31 C 1.1293(10) 0.136(1) -1.5314(7)
C32 C 1.2328(10) 0.0899(10) -1.4772(7)
H1 H 0.5597 -0.1497 -1.1195
H2 H 0.3584 -0.2335 -1.0234
H3 H 0.3252 -0.2820 -0.8586
H4 H 0.4786 -0.2256 -0.7915
H5 H 0.8985 0.5490 -1.1670
H6 H 0.7844 0.6813 -1.0830
H7 H 0.7258 0.6053 -0.9237
H8 H 0.7641 0.3931 -0.8370
H9 H 0.3692 -0.4404 -0.6139
H10 H 0.2949 -0.6513 -0.5113
H11 H 0.2518 -0.6982 -0.3511
H12 H 0.2906 -0.5412 -0.2850
H13 H 1.1372 0.1754 -1.7510
H14 H 0.9213 0.2183 -1.7052
H15 H 0.8487 0.2351 -1.5540
H16 H 0.9739 0.1660 -1.4396
Pd2_2 Pd 1.5000 0.0000 -1.5000
K1A K 0.9643(2) -0.0992(3) -0.7545(2)
K1_2 K 0.0357(2) 0.0992(3) -0.2455(2)
K2A K 1.3705(2) -0.0398(2) -1.2734(2)
K2A_2 K 0.3705(2) -0.0398(2) -0.2734(2)
K2_2 K 1.6295(2) 0.0398(2) -1.7266(2)
O1A O 1.1810(8) 0.0371(9) -0.8661(5)
O2A O 1.2530(8) 0.1202(8) -1.1808(5)
O3A O 1.010(1) -0.2835(9) -0.8417(6)
O4A O 1.1267(8) -0.1382(7) -1.1615(5)
O5A O 0.5303(8) 0.1763(8) -0.3649(5)
O5A_2 O 1.5303(8) 0.1763(8) -1.3649(5)
O6A O 0.6262(9) 0.2580(8) -0.6822(5)
O6_2 O 1.3738(9) -0.2580(8) -1.3178(5)
O7_2 O 0.3858(7) 0.0946(9) -0.6978(5)
O7A O 1.6142(7) -0.0946(9) -1.3022(5)
O8_2 O 0.2233(7) 0.0750(7) -0.3950(5)
O8A O 0.7767(7) -0.0750(7) -0.6050(5)
O9A O 1.222(1) -0.157(1) -0.7010(8)
O10A O 1.068(4) -0.376(5) -0.652(2)
N1A N 1.1818(8) 0.0634(8) -1.0210(6)
N2A N 1.0578(8) -0.1765(8) -1.0011(6)
N3A N 0.5619(8) 0.1826(8) -0.5195(6)
N4_2 N 0.3363(8) 0.0690(8) -0.5401(6)
N4A N 0.6637(8) -0.0690(8) -0.4599(6)
C1A C 1.236(1) 0.071(1) -0.9484(7)
C2A C 1.372(1) 0.128(1) -0.9886(6)
C3A C 1.459(1) 0.162(1) -0.9456(9)
C4A C 1.575(1) 0.215(2) -1.003(1)
C5A C 1.596(1) 0.241(2) -1.1029(10)
C6A C 1.506(1) 0.210(1) -1.1430(8)
C7A C 1.3897(10) 0.154(1) -1.0839(8)
C8A C 1.2681(10) 0.113(1) -1.1044(7)
C9A C 1.050(1) -0.2832(10) -0.9216(7)
C10A C 1.110(1) -0.3937(10) -0.9507(8)
C11A C 1.130(1) -0.517(1) -0.8991(8)
C12A C 1.196(2) -0.596(1) -0.950(1)
C13A C 1.232(1) -0.550(1) -1.0445(10)
C14A C 1.209(1) -0.425(1) -1.0968(8)
C15A C 1.1452(9) -0.3480(10) -1.0476(8)
C16A C 1.1089(10) -0.2109(10) -1.0793(7)
C17A C 0.567(1) 0.233(1) -0.4506(8)
C18A C 0.6217(9) 0.3718(10) -0.4938(7)
C19A C 0.645(1) 0.461(1) -0.4521(9)
C20A C 0.691(1) 0.585(1) -0.5137(10)
C21A C 0.715(1) 0.614(1) -0.609(1)
C22A C 0.693(1) 0.521(1) -0.6491(9)
C23A C 0.6462(10) 0.398(1) -0.5891(8)
C24A C 0.6110(9) 0.2751(10) -0.6051(7)
C25_2 C 0.3121(10) 0.099(1) -0.6281(7)
C26_2 C 0.1761(9) 0.1379(10) -0.6229(7)
C27_2 C 0.103(1) 0.172(1) -0.6884(7)
C28_2 C -0.024(1) 0.202(1) -0.6623(9)
C29_2 C -0.069(1) 0.206(1) -0.5701(9)
C30_2 C 0.006(1) 0.169(1) -0.5023(8)
C31_2 C 0.1293(10) 0.136(1) -0.5314(7)
C32_2 C 0.2328(10) 0.0899(10) -0.4772(7)
H1A H 1.4403 0.1497 -0.8805
H2A H 1.6416 0.2335 -0.9766
H3A H 1.6748 0.2820 -1.1414
H4A H 1.5214 0.2256 -1.2085
H5A H 1.1015 -0.5490 -0.8330
H6A H 1.2156 -0.6813 -0.9170
H7A H 1.2742 -0.6053 -1.0763
H8A H 1.2359 -0.3931 -1.1630
H9A H 0.6308 0.4404 -0.3861
H10A H 0.7051 0.6513 -0.4887
H11A H 0.7482 0.6982 -0.6489
H12A H 0.7094 0.5412 -0.7150
H13_2 H 0.1372 0.1754 -0.7510
H14_2 H -0.0787 0.2183 -0.7052
H15_2 H -0.1513 0.2351 -0.5540
H16_2 H -0.0261 0.1660 -0.4396
loop_
_geom_bond_atom_site_label_1
_geom_bond_atom_site_label_2
_geom_bond_site_symmetry_1
_geom_bond_site_symmetry_2
Pd1 N1 1_555 1_555
Pd2 N3 1_555 1_555
K1 O1 1_555 1_555
K2 O2 1_555 1_555
O1 C1 1_555 1_555
O2 C8 1_555 1_555
O3 K1 1_555 1_555
O4 K2 1_555 1_555
O5 K2 1_555 1_555
O6 C24 1_555 1_555
O7 C25 1_555 1_555
O8 K1 1_555 1_555
O9 K1 1_555 1_555
O10 K1 1_555 1_555
N1 C1 1_555 1_555
N2 Pd1 1_555 1_555
N3 C17 1_555 1_555
N4 C25 1_555 1_555
C1 C2 1_555 1_555
C2 C3 1_555 1_555
C3 C4 1_555 1_555
C4 C5 1_555 1_555
C5 C6 1_555 1_555
C6 C7 1_555 1_555
C7 C2 1_555 1_555
C8 N1 1_555 1_555
C9 O3 1_555 1_555
C10 C9 1_555 1_555
C11 C10 1_555 1_555
C12 C11 1_555 1_555
C13 C12 1_555 1_555
C14 C13 1_555 1_555
C15 C10 1_555 1_555
C16 O4 1_555 1_555
C17 O5 1_555 1_555
C18 C17 1_555 1_555
C19 C18 1_555 1_555
C20 C19 1_555 1_555
C21 C20 1_555 1_555
C22 C21 1_555 1_555
C23 C18 1_555 1_555
C24 N3 1_555 1_555
C25 C26 1_555 1_555
C26 C27 1_555 1_555
C27 C28 1_555 1_555
C28 C29 1_555 1_555
C29 C30 1_555 1_555
C30 C31 1_555 1_555
C31 C26 1_555 1_555
C32 O8 1_555 1_555
H1 C3 1_555 1_555
H2 C4 1_555 1_555
H3 C5 1_555 1_555
H4 C6 1_555 1_555
H5 C11 1_555 1_555
H6 C12 1_555 1_555
H7 C13 1_555 1_555
H8 C14 1_555 1_555
H9 C19 1_555 1_555
H10 C20 1_555 1_555
H11 C21 1_555 1_555
H12 C22 1_555 1_555
H13 C27 1_555 1_555
H14 C28 1_555 1_555
H15 C29 1_555 1_555
H16 C30 1_555 1_555
Pd2_2 N4 1_555 1_555
K1A O2 1_555 1_555
K1_2 O8_2 1_555 1_555
K2A O8 1_555 1_555
K2A_2 O6 1_555 1_555
K2_2 O7 1_555 1_555
O1A K1A 1_555 1_555
O2A K1 1_555 1_555
O3A K1A 1_555 1_555
O4A K1 1_555 1_555
O5A K2A_2 1_555 1_555
O5A_2 K2A 1_555 1_555
O6A K2 1_555 1_555
O6_2 K2A 1_555 1_555
O7_2 K2 1_555 1_555
O7A K2A 1_555 1_555
O8_2 K2A_2 1_555 1_555
O8A K2 1_555 1_555
O9A K1A 1_555 1_555
O10A K1A 1_555 1_555
N1A Pd1 1_555 1_555
N2A Pd1 1_555 1_555
N3A Pd2 1_555 1_555
N4_2 Pd2 1_555 1_555
N4A Pd2 1_555 1_555
C1A O1A 1_555 1_555
C2A C1A 1_555 1_555
C3A C2A 1_555 1_555
C4A C3A 1_555 1_555
C5A C4A 1_555 1_555
C6A C5A 1_555 1_555
C7A C2A 1_555 1_555
C8A O2A 1_555 1_555
C9A O3A 1_555 1_555
C10A C9A 1_555 1_555
C11A C10A 1_555 1_555
C12A C11A 1_555 1_555
C13A C12A 1_555 1_555
C14A C13A 1_555 1_555
C15A C10A 1_555 1_555
C16A O4A 1_555 1_555
C17A O5A 1_555 1_555
C18A C17A 1_555 1_555
C19A C18A 1_555 1_555
C20A C19A 1_555 1_555
C21A C20A 1_555 1_555
C22A C21A 1_555 1_555
C23A C18A 1_555 1_555
C24A O6A 1_555 1_555
C25_2 O7_2 1_555 1_555
C26_2 C25_2 1_555 1_555
C27_2 C26_2 1_555 1_555
C28_2 C27_2 1_555 1_555
C29_2 C28_2 1_555 1_555
C30_2 C29_2 1_555 1_555
C31_2 C26_2 1_555 1_555
C32_2 O8_2 1_555 1_555
H1A C3A 1_555 1_555
H2A C4A 1_555 1_555
H3A C5A 1_555 1_555
H4A C6A 1_555 1_555
H5A C11A 1_555 1_555
H6A C12A 1_555 1_555
H7A C13A 1_555 1_555
H8A C14A 1_555 1_555
H9A C19A 1_555 1_555
H10A C20A 1_555 1_555
H11A C21A 1_555 1_555
H12A C22A 1_555 1_555
H13_2 C27_2 1_555 1_555
H14_2 C28_2 1_555 1_555
H15_2 C29_2 1_555 1_555
H16_2 C30_2 1_555 1_555
O4 K1A 1_555 1_555
N2 C9 1_555 1_555
N2 C16 1_555 1_555
N4 C32 1_555 1_555
C7 C8 1_555 1_555
C14 C15 1_555 1_555
C15 C16 1_555 1_555
C22 C23 1_555 1_555
C23 C24 1_555 1_555
C31 C32 1_555 1_555
K1A O8A 1_555 1_555
K2A O2A 1_555 1_555
K2A O4A 1_555 1_555
N1A C1A 1_555 1_555
N1A C8A 1_555 1_555
N2A C9A 1_555 1_555
N2A C16A 1_555 1_555
N3A C17A 1_555 1_555
N3A C24A 1_555 1_555
N4_2 C25_2 1_555 1_555
N4_2 C32_2 1_555 1_555
C6A C7A 1_555 1_555
C7A C8A 1_555 1_555
C14A C15A 1_555 1_555
C15A C16A 1_555 1_555
C22A C23A 1_555 1_555
C23A C24A 1_555 1_555
C30_2 C31_2 1_555 1_555
C31_2 C32_2 1_555 1_555

#END
