
#######################################################################
#
#                 Cambridge Crystallographic Data Centre
#                                CCDC 
#
#######################################################################
#
# If this CIF has been generated from an entry in the Cambridge 
# Structural Database, then it will include bibliographic, chemical, 
# crystal, experimental, refinement or atomic coordinate data resulting 
# from the CCDC's data processing and validation procedures.
#
#######################################################################

data_RIVDUW
_symmetry_cell_setting           monoclinic
_symmetry_space_group_name_H-M   'C 2/c'
_symmetry_Int_Tables_number      15
_space_group_name_Hall           '-C 2yn'
loop_
_symmetry_equiv_pos_site_id
_symmetry_equiv_pos_as_xyz
1 x,y,z
2 1/2+x,1/2+y,z
3 -x,y,1/2-z
4 1/2-x,1/2+y,1/2-z
5 -x,-y,-z
6 1/2-x,1/2-y,-z
7 x,-y,1/2+z
8 1/2+x,1/2-y,1/2+z
_cell_length_a                   23.820(4)
_cell_length_b                   9.5331(14)
_cell_length_c                   11.1086(19)
_cell_angle_alpha                90
_cell_angle_beta                 111.519(4)
_cell_angle_gamma                90
_cell_volume                     2346.69
loop_
_atom_site_label
_atom_site_type_symbol
_atom_site_fract_x
_atom_site_fract_y
_atom_site_fract_z
Cd1 Cd 0.5000 0.5000 0.0000
O1 O 0.57800(6) 0.61847(16) 0.16117(14)
O2 O 0.63513(7) 0.65025(17) 0.04363(14)
O3 O 0.77204(8) 1.0524(2) 0.51334(16)
H1 H 0.7973 1.0898 0.4869
O4 O 0.56237(9) 0.4629(2) -0.1140(2)
N1 N 0.53080(8) 0.28929(18) 0.09813(17)
N2 N 0.52557(8) 0.06836(18) 0.15175(17)
C1 C 0.49469(10) 0.1866(2) 0.10322(19)
H2 H 0.4521 0.1951 0.0760
C2 C 0.58544(11) 0.0986(2) 0.1824(2)
H3 H 0.6185 0.0368 0.2202
C3 C 0.58815(11) 0.2342(2) 0.1482(2)
H4 H 0.6241 0.2837 0.1574
C4 C 0.49911(11) -0.0594(2) 0.1806(2)
H5 H 0.5215 -0.1418 0.1676
H6 H 0.4567 -0.0675 0.1200
C5 C 0.66447(9) 0.7660(2) 0.2450(2)
C6 C 0.70907(10) 0.8409(2) 0.2190(2)
H7 H 0.7148 0.8253 0.1398
C7 C 0.74500(10) 0.9374(2) 0.3061(2)
H8 H 0.7745 0.9890 0.2858
C8 C 0.73803(10) 0.9592(2) 0.4238(2)
C9 C 0.69470(10) 0.8833(2) 0.4525(2)
H9 H 0.6902 0.8967 0.5332
C10 C 0.65812(9) 0.7882(2) 0.3641(2)
H10 H 0.6284 0.7375 0.3844
C11 C 0.62366(9) 0.6706(2) 0.1445(2)
H11 H 0.586(2) 0.520(4) -0.086(4)
H12 H 0.5638(14) 0.447(4) -0.185(3)
Cd1F Cd 0.5000 0.5000 0.5000
O1D O 0.42200(6) 0.38153(16) -0.16117(14)
O2D O 0.36487(7) 0.34975(17) -0.04363(14)
O3D O 0.22796(8) -0.0524(2) -0.51334(16)
H1D H 0.2027 -0.0898 -0.4869
O4D O 0.43763(9) 0.5371(2) 0.1140(2)
N1B N 0.46920(8) 0.28929(18) 0.40187(17)
N1D N 0.46920(8) 0.71071(18) -0.09813(17)
N2B N 0.47443(8) 0.06836(18) 0.34825(17)
C1B C 0.50531(10) 0.1866(2) 0.39678(19)
H2B H 0.5479 0.1951 0.4240
C2B C 0.41456(11) 0.0986(2) 0.3176(2)
H3B H 0.3815 0.0368 0.2798
C3B C 0.41185(11) 0.2342(2) 0.3518(2)
H4B H 0.3759 0.2837 0.3426
C4B C 0.50089(11) -0.0594(2) 0.3194(2)
H5B H 0.4785 -0.1418 0.3324
H6B H 0.5433 -0.0675 0.3800
C5D C 0.33553(9) 0.2340(2) -0.2450(2)
C6D C 0.29093(10) 0.1591(2) -0.2190(2)
H7D H 0.2852 0.1747 -0.1398
C7D C 0.25500(10) 0.0626(2) -0.3061(2)
H8D H 0.2255 0.0110 -0.2858
C8D C 0.26197(10) 0.0408(2) -0.4238(2)
C9D C 0.30530(10) 0.1167(2) -0.4525(2)
H9D H 0.3098 0.1033 -0.5332
C10D C 0.34188(9) 0.2118(2) -0.3641(2)
H10D H 0.3716 0.2625 -0.3844
C11D C 0.37634(9) 0.3294(2) -0.1445(2)
H11D H 0.414(2) 0.480(4) 0.086(4)
H12D H 0.4362(14) 0.553(4) 0.185(3)
loop_
_geom_bond_atom_site_label_1
_geom_bond_atom_site_label_2
_geom_bond_site_symmetry_1
_geom_bond_site_symmetry_2
Cd1 O1 1_555 1_555
O1 C11 1_555 1_555
O2 C11 1_555 1_555
O3 H1 1_555 1_555
O4 Cd1 1_555 1_555
N1 Cd1 1_555 1_555
N2 C1 1_555 1_555
C1 N1 1_555 1_555
H2 C1 1_555 1_555
C2 N2 1_555 1_555
H3 C2 1_555 1_555
C3 N1 1_555 1_555
H4 C3 1_555 1_555
C4 N2 1_555 1_555
H5 C4 1_555 1_555
H6 C4 1_555 1_555
C5 C6 1_555 1_555
C6 H7 1_555 1_555
C7 C6 1_555 1_555
H8 C7 1_555 1_555
C8 O3 1_555 1_555
C9 C8 1_555 1_555
H9 C9 1_555 1_555
C10 C5 1_555 1_555
H10 C10 1_555 1_555
C11 C5 1_555 1_555
H11 O4 1_555 1_555
H12 O4 1_555 1_555
Cd1F N1B 1_555 1_555
O1D Cd1 1_555 1_555
O2D C11D 1_555 1_555
O3D H1D 1_555 1_555
O4D Cd1 1_555 1_555
N1B C1B 1_555 1_555
N1D Cd1 1_555 1_555
N2B C1B 1_555 1_555
C1B H2B 1_555 1_555
C2B N2B 1_555 1_555
H3B C2B 1_555 1_555
C3B N1B 1_555 1_555
H4B C3B 1_555 1_555
C4B C4 1_555 1_555
H5B C4B 1_555 1_555
H6B C4B 1_555 1_555
C5D C6D 1_555 1_555
C6D H7D 1_555 1_555
C7D C6D 1_555 1_555
H8D C7D 1_555 1_555
C8D O3D 1_555 1_555
C9D C8D 1_555 1_555
H9D C9D 1_555 1_555
C10D C5D 1_555 1_555
H10D C10D 1_555 1_555
C11D O1D 1_555 1_555
H11D O4D 1_555 1_555
H12D O4D 1_555 1_555
C2 C3 1_555 1_555
C7 C8 1_555 1_555
C9 C10 1_555 1_555
N2B C4B 1_555 1_555
C2B C3B 1_555 1_555
C5D C11D 1_555 1_555
C7D C8D 1_555 1_555
C9D C10D 1_555 1_555

#END
