
#######################################################################
#
#                 Cambridge Crystallographic Data Centre
#                                CCDC 
#
#######################################################################
#
# If this CIF has been generated from an entry in the Cambridge 
# Structural Database, then it will include bibliographic, chemical, 
# crystal, experimental, refinement or atomic coordinate data resulting 
# from the CCDC's data processing and validation procedures.
#
#######################################################################

data_RIVDEH
_symmetry_cell_setting           cubic
_symmetry_space_group_name_H-M   'F d -3 c'
_symmetry_Int_Tables_number      228
_space_group_name_Hall           '-F 4ud 2vw 3'
loop_
_symmetry_equiv_pos_site_id
_symmetry_equiv_pos_as_xyz
1 x,y,z
2 1/4-x,3/4-y,1/2+z
3 3/4-x,1/2+y,1/4-z
4 1/2+x,1/4-y,3/4-z
5 z,x,y
6 1/2+z,1/4-x,3/4-y
7 1/4-z,3/4-x,1/2+y
8 3/4-z,1/2+x,1/4-y
9 y,z,x
10 3/4-y,1/2+z,1/4-x
11 1/2+y,1/4-z,3/4-x
12 1/4-y,3/4-z,1/2+x
13 3/4+y,1/4+x,-z
14 1/2-y,1/2-x,1/2-z
15 1/4+y,-x,3/4+z
16 -y,3/4+x,1/4+z
17 3/4+x,1/4+z,-y
18 -x,3/4+z,1/4+y
19 1/2-x,1/2-z,1/2-y
20 1/4+x,-z,3/4+y
21 3/4+z,1/4+y,-x
22 1/4+z,-y,3/4+x
23 -z,3/4+y,1/4+x
24 1/2-z,1/2-y,1/2-x
25 x,1/2+y,1/2+z
26 1/4-x,1/4-y,z
27 3/4-x,y,3/4-z
28 1/2+x,3/4-y,1/4-z
29 z,1/2+x,1/2+y
30 1/2+z,3/4-x,1/4-y
31 1/4-z,1/4-x,y
32 3/4-z,x,3/4-y
33 y,1/2+z,1/2+x
34 3/4-y,z,3/4-x
35 1/2+y,3/4-z,1/4-x
36 1/4-y,1/4-z,x
37 3/4+y,3/4+x,1/2-z
38 1/2-y,-x,-z
39 1/4+y,1/2-x,1/4+z
40 -y,1/4+x,3/4+z
41 3/4+x,3/4+z,1/2-y
42 -x,1/4+z,3/4+y
43 1/2-x,-z,-y
44 1/4+x,1/2-z,1/4+y
45 3/4+z,3/4+y,1/2-x
46 1/4+z,1/2-y,1/4+x
47 -z,1/4+y,3/4+x
48 1/2-z,-y,-x
49 1/2+x,y,1/2+z
50 3/4-x,3/4-y,z
51 1/4-x,1/2+y,3/4-z
52 x,1/4-y,1/4-z
53 1/2+z,x,1/2+y
54 z,1/4-x,1/4-y
55 3/4-z,3/4-x,y
56 1/4-z,1/2+x,3/4-y
57 1/2+y,z,1/2+x
58 1/4-y,1/2+z,3/4-x
59 y,1/4-z,1/4-x
60 3/4-y,3/4-z,x
61 1/4+y,1/4+x,1/2-z
62 -y,1/2-x,-z
63 3/4+y,-x,1/4+z
64 1/2-y,3/4+x,3/4+z
65 1/4+x,1/4+z,1/2-y
66 1/2-x,3/4+z,3/4+y
67 -x,1/2-z,-y
68 3/4+x,-z,1/4+y
69 1/4+z,1/4+y,1/2-x
70 3/4+z,-y,1/4+x
71 1/2-z,3/4+y,3/4+x
72 -z,1/2-y,-x
73 1/2+x,1/2+y,z
74 3/4-x,1/4-y,1/2+z
75 1/4-x,y,1/4-z
76 x,3/4-y,3/4-z
77 1/2+z,1/2+x,y
78 z,3/4-x,3/4-y
79 3/4-z,1/4-x,1/2+y
80 1/4-z,x,1/4-y
81 1/2+y,1/2+z,x
82 1/4-y,z,1/4-x
83 y,3/4-z,3/4-x
84 3/4-y,1/4-z,1/2+x
85 1/4+y,3/4+x,-z
86 -y,-x,1/2-z
87 3/4+y,1/2-x,3/4+z
88 1/2-y,1/4+x,1/4+z
89 1/4+x,3/4+z,-y
90 1/2-x,1/4+z,1/4+y
91 -x,-z,1/2-y
92 3/4+x,1/2-z,3/4+y
93 1/4+z,3/4+y,-x
94 3/4+z,1/2-y,3/4+x
95 1/2-z,1/4+y,1/4+x
96 -z,-y,1/2-x
97 -x,-y,-z
98 3/4+x,1/4+y,1/2-z
99 1/4+x,1/2-y,3/4+z
100 1/2-x,3/4+y,1/4+z
101 -z,-x,-y
102 1/2-z,3/4+x,1/4+y
103 3/4+z,1/4+x,1/2-y
104 1/4+z,1/2-x,3/4+y
105 -y,-z,-x
106 1/4+y,1/2-z,3/4+x
107 1/2-y,3/4+z,1/4+x
108 3/4+y,1/4+z,1/2-x
109 1/4-y,3/4-x,z
110 1/2+y,1/2+x,1/2+z
111 3/4-y,x,1/4-z
112 y,1/4-x,3/4-z
113 1/4-x,3/4-z,y
114 x,1/4-z,3/4-y
115 1/2+x,1/2+z,1/2+y
116 3/4-x,z,1/4-y
117 1/4-z,3/4-y,x
118 3/4-z,y,1/4-x
119 z,1/4-y,3/4-x
120 1/2+z,1/2+y,1/2+x
121 -x,1/2-y,1/2-z
122 3/4+x,3/4+y,-z
123 1/4+x,-y,1/4+z
124 1/2-x,1/4+y,3/4+z
125 -z,1/2-x,1/2-y
126 1/2-z,1/4+x,3/4+y
127 3/4+z,3/4+x,-y
128 1/4+z,-x,1/4+y
129 -y,1/2-z,1/2-x
130 1/4+y,-z,1/4+x
131 1/2-y,1/4+z,3/4+x
132 3/4+y,3/4+z,-x
133 1/4-y,1/4-x,1/2+z
134 1/2+y,x,z
135 3/4-y,1/2+x,3/4-z
136 y,3/4-x,1/4-z
137 1/4-x,1/4-z,1/2+y
138 x,3/4-z,1/4-y
139 1/2+x,z,y
140 3/4-x,1/2+z,3/4-y
141 1/4-z,1/4-y,1/2+x
142 3/4-z,1/2+y,3/4-x
143 z,3/4-y,1/4-x
144 1/2+z,y,x
145 1/2-x,-y,1/2-z
146 1/4+x,1/4+y,-z
147 3/4+x,1/2-y,1/4+z
148 -x,3/4+y,3/4+z
149 1/2-z,-x,1/2-y
150 -z,3/4+x,3/4+y
151 1/4+z,1/4+x,-y
152 3/4+z,1/2-x,1/4+y
153 1/2-y,-z,1/2-x
154 3/4+y,1/2-z,1/4+x
155 -y,3/4+z,3/4+x
156 1/4+y,1/4+z,-x
157 3/4-y,3/4-x,1/2+z
158 y,1/2+x,z
159 1/4-y,x,3/4-z
160 1/2+y,1/4-x,1/4-z
161 3/4-x,3/4-z,1/2+y
162 1/2+x,1/4-z,1/4-y
163 x,1/2+z,y
164 1/4-x,z,3/4-y
165 3/4-z,3/4-y,1/2+x
166 1/4-z,y,3/4-x
167 1/2+z,1/4-y,1/4-x
168 z,1/2+y,x
169 1/2-x,1/2-y,-z
170 1/4+x,3/4+y,1/2-z
171 3/4+x,-y,3/4+z
172 -x,1/4+y,1/4+z
173 1/2-z,1/2-x,-y
174 -z,1/4+x,1/4+y
175 1/4+z,3/4+x,1/2-y
176 3/4+z,-x,3/4+y
177 1/2-y,1/2-z,-x
178 3/4+y,-z,3/4+x
179 -y,1/4+z,1/4+x
180 1/4+y,3/4+z,1/2-x
181 3/4-y,1/4-x,z
182 y,x,1/2+z
183 1/4-y,1/2+x,1/4-z
184 1/2+y,3/4-x,3/4-z
185 3/4-x,1/4-z,y
186 1/2+x,3/4-z,3/4-y
187 x,z,1/2+y
188 1/4-x,1/2+z,1/4-y
189 3/4-z,1/4-y,x
190 1/4-z,1/2+y,1/4-x
191 1/2+z,3/4-y,3/4-x
192 z,y,1/2+x
_cell_length_a                   63.897(19)
_cell_length_b                   63.897(19)
_cell_length_c                   63.897(19)
_cell_angle_alpha                90
_cell_angle_beta                 90
_cell_angle_gamma                90
_cell_volume                     260880
loop_
_atom_site_label
_atom_site_type_symbol
_atom_site_fract_x
_atom_site_fract_y
_atom_site_fract_z
C1 C 0.37258(14) 0.12906(13) 0.07397(12)
H1 H 0.3765 0.1403 0.0650
O1 O 0.34624(11) 0.11373(13) 0.09225(14)
C2 C 0.35213(16) 0.12687(16) 0.08042(18)
C3 C 0.38693(15) 0.11521(16) 0.08048(17)
H2 H 0.3829 0.1040 0.0894
H3 H 0.4011 0.1166 0.0761
O2 O 0.33870(15) 0.14243(14) 0.07173(16)
C4 C 0.31896(18) 0.1425(3) 0.0744(3)
H4 H 0.3129 0.1546 0.0672
H5 H 0.3159 0.1434 0.0894
H6 H 0.3130 0.1296 0.0687
C5 C 0.41105(8) 0.21878(7) 0.10084(8)
H7 H 0.3983 0.2154 0.0940
C6 C 0.42845(8) 0.20684(8) 0.09633(9)
C7 C 0.44733(9) 0.21194(10) 0.10600(11)
H8 H 0.4596 0.2040 0.1034
C8 C 0.44760(9) 0.22884(10) 0.11944(12)
H9 H 0.4602 0.2329 0.1261
C9 C 0.42924(9) 0.23985(10) 0.12310(10)
H10 H 0.4296 0.2515 0.1323
C10 C 0.34302(8) 0.14828(8) -0.03121(8)
C11 C 0.35863(9) 0.16482(9) 0.01534(9)
H11 H 0.3477 0.1636 0.0053
C12 C 0.35944(11) 0.18264(10) 0.02795(10)
H12 H 0.3489 0.1930 0.0269
C13 C 0.37551(9) 0.18501(10) 0.04177(10)
H13 H 0.3765 0.1972 0.0502
C14 C 0.39057(8) 0.16906(8) 0.04333(8)
C15 C 0.38826(7) 0.15169(8) 0.03065(8)
H14 H 0.3983 0.1408 0.0318
C16 C 0.40791(8) 0.17038(8) 0.05847(8)
C17 C 0.42619(8) 0.18823(8) 0.08270(9)
C18 C 0.43553(8) 0.15570(8) 0.07422(9)
C19 C 0.46242(7) 0.13725(9) 0.09565(8)
H15 H 0.4628 0.1493 0.1044
C20 C 0.44878(8) 0.13729(9) 0.07836(9)
C21 C 0.44790(9) 0.11928(9) 0.06601(10)
H16 H 0.4388 0.1185 0.0543
C22 C 0.46063(11) 0.10256(10) 0.07141(11)
H17 H 0.4603 0.0900 0.0634
C23 C 0.47377(9) 0.10415(9) 0.08842(10)
H18 H 0.4825 0.0926 0.0918
C24 C 0.50126(9) 0.07496(12) 0.13009(12)
C25 C 0.51760(10) 0.11136(12) 0.16707(11)
H19 H 0.5073 0.1007 0.1659
C26 C 0.52925(12) 0.11214(13) 0.18473(12)
H20 H 0.5266 0.1027 0.1959
C27 C 0.54519(13) 0.12702(12) 0.18645(12)
H21 H 0.5537 0.1278 0.1986
C28 C 0.54822(9) 0.14067(10) 0.16989(10)
C29 C 0.53496(8) 0.13923(9) 0.15259(8)
H22 H 0.5367 0.1489 0.1414
C30 C 0.56433(9) 0.15696(10) 0.17061(9)
Co1 Co 0.369519(11) 0.119519(11) 0.0000
Co2 Co 0.497806(14) 0.1250 0.1250
N1 N 0.41093(7) 0.23473(6) 0.11413(7)
N2 N 0.35431(7) 0.13623(7) -0.02354(6)
N3 N 0.37273(7) 0.14933(7) 0.01681(7)
N4 N 0.42030(6) 0.15364(7) 0.06052(7)
N5 N 0.40990(7) 0.18807(7) 0.06961(7)
N6 N 0.43970(7) 0.17285(7) 0.08523(8)
N7 N 0.47466(7) 0.12139(7) 0.10040(7)
N8 N 0.49874(7) 0.09250(8) 0.12722(7)
N9 N 0.52001(7) 0.12494(7) 0.15114(7)
N10 N 0.56397(7) 0.17137(8) 0.15560(8)
S1 S 0.32689(3) 0.16525(3) -0.04112(3)
S2 S 0.50491(4) 0.05016(4) 0.13430(7)
C25GA C 0.63864(12) 0.16707(11) 0.23240(10)
H19GA H 0.6493 0.1659 0.2427
C26GA C 0.63786(13) 0.18473(12) 0.22075(12)
H20GA H 0.6473 0.1959 0.2234
C27GA C 0.62298(12) 0.18645(12) 0.20481(13)
H21GA H 0.6222 0.1986 0.1963
C28GA C 0.60933(10) 0.16989(10) 0.20178(9)
C29GA C 0.61077(9) 0.15259(8) 0.21504(8)
H22GA H 0.6011 0.1414 0.2133
C30GA C 0.59304(10) 0.17061(9) 0.18567(9)
N9GA N 0.62506(7) 0.15114(7) 0.22999(7)
N10GA N 0.57863(8) 0.15560(8) 0.18603(7)
C25BB C 0.58293(11) 0.23240(10) 0.11136(12)
H19BB H 0.5841 0.2427 0.1007
C26BB C 0.56527(12) 0.22075(12) 0.11214(13)
H20BB H 0.5541 0.2234 0.1027
C27BB C 0.56355(12) 0.20481(13) 0.12702(12)
H21BB H 0.5514 0.1963 0.1278
C28BB C 0.58011(10) 0.20178(9) 0.14067(10)
C29BB C 0.59741(8) 0.21504(8) 0.13923(9)
H22BB H 0.6086 0.2133 0.1489
C30BB C 0.57939(9) 0.18567(9) 0.15696(10)
N9BB N 0.59886(7) 0.22999(7) 0.12494(7)
N10BB N 0.59440(8) 0.18603(7) 0.17137(8)
C5G C 0.64916(8) -0.08895(8) 0.03122(7)
H7G H 0.6560 -0.1017 0.0346
C6G C 0.65367(9) -0.07155(8) 0.04316(8)
C7G C 0.64400(11) -0.05267(9) 0.03806(10)
H8G H 0.6466 -0.0404 0.0460
C8G C 0.63056(12) -0.05240(9) 0.02116(10)
H9G H 0.6239 -0.0398 0.0171
C9G C 0.62690(10) -0.07076(9) 0.01015(10)
H10G H 0.6177 -0.0704 -0.0015
C11G C 0.73466(9) -0.14137(9) 0.08518(9)
H11G H 0.7447 -0.1523 0.0864
C12G C 0.72205(10) -0.14056(11) 0.06736(10)
H12G H 0.7231 -0.1511 0.0570
C13G C 0.70823(10) -0.12449(9) 0.06499(10)
H13G H 0.6998 -0.1235 0.0528
C14G C 0.70667(8) -0.10943(8) 0.08094(8)
C15G C 0.71935(8) -0.11174(7) 0.09831(8)
H14G H 0.7182 -0.1017 0.1092
C16G C 0.69153(8) -0.09209(8) 0.07962(8)
C17G C 0.66730(9) -0.07381(8) 0.06177(8)
C18G C 0.67578(9) -0.06447(8) 0.09430(8)
C19G C 0.65435(8) -0.03758(7) 0.11275(9)
H15G H 0.6456 -0.0372 0.1007
C20G C 0.67164(9) -0.05122(8) 0.11271(9)
C21G C 0.68399(10) -0.05210(9) 0.13072(9)
H16G H 0.6957 -0.0612 0.1315
C22G C 0.67859(11) -0.03937(11) 0.14744(10)
H17G H 0.6866 -0.0397 0.1600
C23G C 0.66158(10) -0.02623(9) 0.14585(9)
H18G H 0.6582 -0.0175 0.1574
C24G C 0.61991(12) 0.00126(9) 0.17504(12)
C25G C 0.58293(11) 0.01760(10) 0.13864(12)
H19G H 0.5841 0.0073 0.1493
C26G C 0.56527(12) 0.02925(12) 0.13786(13)
H20G H 0.5541 0.0266 0.1473
C27G C 0.56355(12) 0.04519(13) 0.12298(12)
H21G H 0.5514 0.0537 0.1222
C28G C 0.58011(10) 0.04822(9) 0.10933(10)
C29G C 0.59741(8) 0.03496(8) 0.11077(9)
H22G H 0.6086 0.0367 0.1011
C30G C 0.57939(9) 0.06433(9) 0.09304(10)
Co2G Co 0.6250 -0.002194(14) 0.1250
N1G N 0.63587(7) -0.08907(7) 0.01527(6)
N3G N 0.73319(7) -0.12727(7) 0.10067(7)
N4G N 0.68948(7) -0.07970(6) 0.09636(7)
N5G N 0.68039(7) -0.09010(7) 0.06193(7)
N6G N 0.66477(8) -0.06030(7) 0.07715(7)
N7G N 0.64960(7) -0.02534(7) 0.12861(7)
N8G N 0.62278(7) -0.00126(7) 0.15750(8)
N9G N 0.59886(7) 0.02001(7) 0.12506(7)
N10G N 0.59440(8) 0.06397(7) 0.07863(8)
S2G S 0.61570(7) 0.00491(4) 0.19984(4)
C25YA C 0.51760(10) 0.13864(12) 0.08293(11)
H19YA H 0.5073 0.1493 0.0841
C26YA C 0.52925(12) 0.13786(13) 0.06527(12)
H20YA H 0.5266 0.1473 0.0541
C27YA C 0.54519(13) 0.12298(12) 0.06355(12)
H21YA H 0.5537 0.1222 0.0514
C28YA C 0.54822(9) 0.10933(10) 0.08011(10)
C29YA C 0.53496(8) 0.11077(9) 0.09741(8)
H22YA H 0.5367 0.1011 0.1086
C30YA C 0.56433(9) 0.09304(10) 0.07939(9)
N9YA N 0.52001(7) 0.12506(7) 0.09886(7)
N10YA N 0.56397(7) 0.07863(8) 0.09440(8)
C25EC C 0.63864(12) 0.08293(11) 0.01760(10)
H19EC H 0.6493 0.0841 0.0073
C26EC C 0.63786(13) 0.06527(12) 0.02925(12)
H20EC H 0.6473 0.0541 0.0266
C27EC C 0.62298(12) 0.06355(12) 0.04519(13)
H21EC H 0.6222 0.0514 0.0537
C28EC C 0.60933(10) 0.08011(10) 0.04822(9)
C29EC C 0.61077(9) 0.09741(8) 0.03496(8)
H22EC H 0.6011 0.1086 0.0367
C30EC C 0.59304(10) 0.07939(9) 0.06433(9)
N9EC N 0.62506(7) 0.09886(7) 0.02001(7)
N10EC N 0.57863(8) 0.09440(8) 0.06397(7)
C5J C 0.71878(7) 0.14916(8) 0.33895(8)
H7J H 0.7154 0.1560 0.3517
C6J C 0.70684(8) 0.15367(9) 0.32155(8)
C7J C 0.71194(10) 0.14400(11) 0.30267(9)
H8J H 0.7040 0.1466 0.2904
C8J C 0.72884(10) 0.13056(12) 0.30240(9)
H9J H 0.7329 0.1239 0.2898
C9J C 0.73985(10) 0.12690(10) 0.32076(9)
H10J H 0.7515 0.1177 0.3204
C11J C 0.66482(9) 0.23466(9) 0.39137(9)
H11J H 0.6636 0.2447 0.4023
C12J C 0.68264(10) 0.22205(10) 0.39056(11)
H12J H 0.6930 0.2231 0.4011
C13J C 0.68501(10) 0.20823(10) 0.37449(9)
H13J H 0.6972 0.1998 0.3735
C14J C 0.66906(8) 0.20667(8) 0.35943(8)
C15J C 0.65169(8) 0.21935(8) 0.36174(7)
H14J H 0.6408 0.2182 0.3517
C16J C 0.67038(8) 0.19153(8) 0.34209(8)
C17J C 0.68823(8) 0.16730(9) 0.32381(8)
C18J C 0.65570(8) 0.17578(9) 0.31447(8)
C19J C 0.63725(9) 0.15435(8) 0.28758(7)
H15J H 0.6493 0.1456 0.2872
C20J C 0.63729(9) 0.17164(9) 0.30122(8)
C21J C 0.61928(9) 0.18399(10) 0.30210(9)
H16J H 0.6185 0.1957 0.3112
C22J C 0.60256(10) 0.17859(11) 0.28937(11)
H17J H 0.5900 0.1866 0.2897
C23J C 0.60415(9) 0.16158(10) 0.27623(9)
H18J H 0.5926 0.1582 0.2675
C24J C 0.57496(12) 0.11991(12) 0.24874(9)
Co2J Co 0.6250 0.1250 0.252194(14)
N1J N 0.73473(6) 0.13587(7) 0.33907(7)
N3J N 0.64933(7) 0.23319(7) 0.37727(7)
N4J N 0.65364(7) 0.18948(7) 0.32970(6)
N5J N 0.68807(7) 0.18039(7) 0.34010(7)
N6J N 0.67285(7) 0.16477(8) 0.31030(7)
N7J N 0.62139(7) 0.14960(7) 0.27534(7)
N8J N 0.59250(8) 0.12278(7) 0.25126(7)
S2J S 0.55016(4) 0.11570(7) 0.24509(4)
C5GA C 0.53122(7) 0.10084(8) 0.33895(8)
H7GA H 0.5346 0.0940 0.3517
C6GA C 0.54316(8) 0.09633(9) 0.32155(8)
C7GA C 0.53806(10) 0.10600(11) 0.30267(9)
H8GA H 0.5460 0.1034 0.2904
C8GA C 0.52116(10) 0.11944(12) 0.30240(9)
H9GA H 0.5171 0.1261 0.2898
C9GA C 0.51015(10) 0.12310(10) 0.32076(9)
H10GA H 0.4985 0.1323 0.3204
C11GA C 0.58518(9) 0.01534(9) 0.39137(9)
H11GA H 0.5864 0.0053 0.4023
C12GA C 0.56736(10) 0.02795(10) 0.39056(11)
H12GA H 0.5570 0.0269 0.4011
C13GA C 0.56499(10) 0.04177(10) 0.37449(9)
H13GA H 0.5528 0.0502 0.3735
C14GA C 0.58094(8) 0.04333(8) 0.35943(8)
C15GA C 0.59831(8) 0.03065(8) 0.36174(7)
H14GA H 0.6092 0.0318 0.3517
C16GA C 0.57962(8) 0.05847(8) 0.34209(8)
C17GA C 0.56177(8) 0.08270(9) 0.32381(8)
C18GA C 0.59430(8) 0.07422(9) 0.31447(8)
C19GA C 0.61275(9) 0.09565(8) 0.28758(7)
H15GA H 0.6007 0.1044 0.2872
C20GA C 0.61271(9) 0.07836(9) 0.30122(8)
C21GA C 0.63072(9) 0.06601(10) 0.30210(9)
H16GA H 0.6315 0.0543 0.3112
C22GA C 0.64744(10) 0.07141(11) 0.28937(11)
H17GA H 0.6600 0.0634 0.2897
C23GA C 0.64585(9) 0.08842(10) 0.27623(9)
H18GA H 0.6574 0.0918 0.2675
C24GA C 0.67504(12) 0.13009(12) 0.24874(9)
N1GA N 0.51527(6) 0.11413(7) 0.33907(7)
N3GA N 0.60067(7) 0.01681(7) 0.37727(7)
N4GA N 0.59636(7) 0.06052(7) 0.32970(6)
N5GA N 0.56193(7) 0.06961(7) 0.34010(7)
N6GA N 0.57715(7) 0.08523(8) 0.31030(7)
N7GA N 0.62861(7) 0.10040(7) 0.27534(7)
N8GA N 0.65750(8) 0.12722(7) 0.25126(7)
S2GA S 0.69984(4) 0.13430(7) 0.24509(4)
C5YC C 0.35084(8) 0.08895(8) -0.03122(7)
H7YC H 0.3440 0.1017 -0.0346
C6YC C 0.34633(9) 0.07155(8) -0.04316(8)
C7YC C 0.35600(11) 0.05267(9) -0.03806(10)
H8YC H 0.3534 0.0404 -0.0460
C8YC C 0.36944(12) 0.05240(9) -0.02116(10)
H9YC H 0.3761 0.0398 -0.0171
C9YC C 0.37310(10) 0.07076(9) -0.01015(10)
H10YC H 0.3823 0.0704 0.0015
C10YC C 0.21879(8) 0.15698(8) -0.10172(8)
C11YC C 0.26534(9) 0.14137(9) -0.08518(9)
H11YC H 0.2553 0.1523 -0.0864
C12YC C 0.27795(10) 0.14056(11) -0.06736(10)
H12YC H 0.2769 0.1511 -0.0570
C13YC C 0.29177(10) 0.12449(9) -0.06499(10)
H13YC H 0.3002 0.1235 -0.0528
C14YC C 0.29333(8) 0.10943(8) -0.08094(8)
C15YC C 0.28065(8) 0.11174(7) -0.09831(8)
H14YC H 0.2818 0.1017 -0.1092
C16YC C 0.30847(8) 0.09209(8) -0.07962(8)
C17YC C 0.33270(9) 0.07381(8) -0.06177(8)
C18YC C 0.32422(9) 0.06447(8) -0.09430(8)
C19YC C 0.34565(8) 0.03758(7) -0.11275(9)
H15YC H 0.3544 0.0372 -0.1007
C20YC C 0.32836(9) 0.05122(8) -0.11271(9)
C21YC C 0.31601(10) 0.05210(9) -0.13072(9)
H16YC H 0.3043 0.0612 -0.1315
C22YC C 0.32141(11) 0.03937(11) -0.14744(10)
H17YC H 0.3134 0.0397 -0.1600
C23YC C 0.33842(10) 0.02623(9) -0.14585(9)
H18YC H 0.3418 0.0175 -0.1574
Co1YC Co 0.2500 0.130481(11) -0.130481(11)
N1YC N 0.36413(7) 0.08907(7) -0.01527(6)
N2YC N 0.22646(6) 0.14569(7) -0.11377(7)
N3YC N 0.26681(7) 0.12727(7) -0.10067(7)
N4YC N 0.31052(7) 0.07970(6) -0.09636(7)
N5YC N 0.31961(7) 0.09010(7) -0.06193(7)
N6YC N 0.33523(8) 0.06030(7) -0.07715(7)
N7YC N 0.35040(7) 0.02534(7) -0.12861(7)
S1YC S 0.20888(3) 0.17311(3) -0.08475(3)
C5KD C 0.33895(8) 0.10084(8) 0.03122(7)
H7KD H 0.3517 0.0940 0.0346
C6KD C 0.32155(8) 0.09633(9) 0.04316(8)
C7KD C 0.30267(9) 0.10600(11) 0.03806(10)
H8KD H 0.2904 0.1034 0.0460
C8KD C 0.30240(9) 0.11944(12) 0.02116(10)
H9KD H 0.2898 0.1261 0.0171
C9KD C 0.32076(9) 0.12310(10) 0.01015(10)
H10KD H 0.3204 0.1323 -0.0015
C11KD C 0.39137(9) 0.01534(9) 0.08518(9)
H11KD H 0.4023 0.0053 0.0864
C12KD C 0.39056(11) 0.02795(10) 0.06736(10)
H12KD H 0.4011 0.0269 0.0570
C13KD C 0.37449(9) 0.04177(10) 0.06499(10)
H13KD H 0.3735 0.0502 0.0528
C14KD C 0.35943(8) 0.04333(8) 0.08094(8)
C15KD C 0.36174(7) 0.03065(8) 0.09831(8)
H14KD H 0.3517 0.0318 0.1092
C16KD C 0.34209(8) 0.05847(8) 0.07962(8)
C17KD C 0.32381(8) 0.08270(9) 0.06177(8)
C18KD C 0.31447(8) 0.07422(9) 0.09430(8)
C19KD C 0.28758(7) 0.09565(8) 0.11275(9)
H15KD H 0.2872 0.1044 0.1007
C20KD C 0.30122(8) 0.07836(9) 0.11271(9)
C21KD C 0.30210(9) 0.06601(10) 0.13072(9)
H16KD H 0.3112 0.0543 0.1315
C22KD C 0.28937(11) 0.07141(11) 0.14744(10)
H17KD H 0.2897 0.0634 0.1600
C23KD C 0.27623(9) 0.08842(10) 0.14585(9)
H18KD H 0.2675 0.0918 0.1574
N1KD N 0.33907(7) 0.11413(7) 0.01527(6)
N3KD N 0.37727(7) 0.01681(7) 0.10067(7)
N4KD N 0.32970(6) 0.06052(7) 0.09636(7)
N5KD N 0.34010(7) 0.06961(7) 0.06193(7)
N6KD N 0.31030(7) 0.08523(8) 0.07715(7)
N7KD N 0.27534(7) 0.10040(7) 0.12861(7)
C10FC C 0.39828(8) 0.09302(8) 0.03121(8)
N2FC N 0.38623(7) 0.10431(7) 0.02354(6)
S1FC S 0.41525(3) 0.07689(3) 0.04112(3)
C24YA C 0.50126(9) 0.17504(12) 0.11991(12)
N8YA N 0.49874(7) 0.15750(8) 0.12278(7)
S2YA S 0.50491(4) 0.19984(4) 0.11570(7)
C24XB C 0.63009(12) 0.00126(9) 0.07496(12)
N8XB N 0.62722(7) -0.00126(7) 0.09250(8)
S2XB S 0.63430(7) 0.00491(4) 0.05016(4)
Co1ZD Co 0.380481(11) 0.2500 0.119519(11)
C10JE C 0.28121(8) 0.10172(8) -0.15698(8)
N2JE N 0.27354(6) 0.11377(7) -0.14569(7)
S1JE S 0.29112(3) 0.08475(3) -0.17311(3)
C10ZD C 0.35172(8) 0.21879(8) 0.09302(8)
N2ZD N 0.36377(7) 0.22646(6) 0.10431(7)
S1ZD S 0.33475(3) 0.20888(3) 0.07689(3)
C10BG C 0.40698(8) 0.28121(8) 0.14828(8)
N2BG N 0.39569(7) 0.27354(6) 0.13623(7)
S1BG S 0.42311(3) 0.29112(3) 0.16525(3)
Co1G Co 0.7500 -0.130481(11) 0.130481(11)
Co1J Co 0.619519(11) 0.2500 0.380481(11)
Co1GA Co 0.630481(11) 0.0000 0.380481(11)
Co1RC Co 0.630481(11) -0.119519(11) 0.0000
Co1WC Co 0.5000 0.119519(11) 0.369519(11)
Co1KD Co 0.380481(11) 0.0000 0.130481(11)
Co1UE Co 0.7500 0.130481(11) 0.369519(11)
Co2CA Co 0.6250 0.252194(14) 0.1250
Co2DB Co 0.6250 0.1250 -0.002194(14)
Co2YC Co 0.3750 0.002194(14) -0.1250
Co2KD Co 0.252194(14) 0.1250 0.1250
N1W N 0.38587(7) 0.26527(6) 0.08907(7)
N1FB N 0.23473(6) 0.13587(7) -0.16093(7)
N1KB N 0.26527(6) 0.16093(7) -0.13587(7)
N3FC N 0.39933(7) 0.12273(7) -0.01681(7)
N3ZD N 0.35067(7) 0.26681(7) 0.12273(7)
N3JE N 0.23319(7) 0.10067(7) -0.12727(7)
N3BG N 0.37727(7) 0.23319(7) 0.14933(7)
N7YA N 0.47466(7) 0.12861(7) 0.14960(7)
N7XB N 0.60040(7) -0.02534(7) 0.12139(7)
N9J N 0.62494(7) 0.09886(7) 0.22999(7)
N9XB N 0.65114(7) 0.02001(7) 0.12494(7)
loop_
_geom_bond_atom_site_label_1
_geom_bond_atom_site_label_2
_geom_bond_site_symmetry_1
_geom_bond_site_symmetry_2
C1 H1 1_555 1_555
O1 C2 1_555 1_555
C2 C1 1_555 1_555
C3 C1 1_555 1_555
H2 C3 1_555 1_555
H3 C3 1_555 1_555
O2 C2 1_555 1_555
C4 O2 1_555 1_555
H4 C4 1_555 1_555
H5 C4 1_555 1_555
H6 C4 1_555 1_555
C5 H7 1_555 1_555
C6 C5 1_555 1_555
C7 C6 1_555 1_555
H8 C7 1_555 1_555
C8 C7 1_555 1_555
H9 C8 1_555 1_555
C9 C8 1_555 1_555
H10 C9 1_555 1_555
C10 N2 1_555 1_555
C11 H11 1_555 1_555
C12 C11 1_555 1_555
H12 C12 1_555 1_555
C13 C12 1_555 1_555
H13 C13 1_555 1_555
C14 C13 1_555 1_555
C15 C14 1_555 1_555
H14 C15 1_555 1_555
C16 C14 1_555 1_555
C17 C6 1_555 1_555
C18 C20 1_555 1_555
C19 H15 1_555 1_555
C20 C19 1_555 1_555
C21 C20 1_555 1_555
H16 C21 1_555 1_555
C22 C21 1_555 1_555
H17 C22 1_555 1_555
C23 C22 1_555 1_555
H18 C23 1_555 1_555
C24 N8 1_555 1_555
C25 H19 1_555 1_555
C26 C25 1_555 1_555
H20 C26 1_555 1_555
C27 C26 1_555 1_555
H21 C27 1_555 1_555
C28 C27 1_555 1_555
C29 C28 1_555 1_555
H22 C29 1_555 1_555
C30 C28 1_555 1_555
Co1 N2 1_555 1_555
Co2 N7 1_555 1_555
N1 C5 1_555 1_555
N3 C11 1_555 1_555
N4 C16 1_555 1_555
N5 C16 1_555 1_555
N6 C17 1_555 1_555
N7 C19 1_555 1_555
N8 Co2 1_555 1_555
N9 C25 1_555 1_555
N10 C30 1_555 1_555
S1 C10 1_555 1_555
S2 C24 1_555 1_555
C25GA H19GA 1_555 1_555
C26GA C25GA 1_555 1_555
H20GA C26GA 1_555 1_555
C27GA C26GA 1_555 1_555
H21GA C27GA 1_555 1_555
C28GA C27GA 1_555 1_555
C29GA C28GA 1_555 1_555
H22GA C29GA 1_555 1_555
C30GA C28GA 1_555 1_555
N9GA C25GA 1_555 1_555
N10GA C30 1_555 1_555
C25BB H19BB 1_555 1_555
C26BB C25BB 1_555 1_555
H20BB C26BB 1_555 1_555
C27BB C26BB 1_555 1_555
H21BB C27BB 1_555 1_555
C28BB C27BB 1_555 1_555
C29BB C28BB 1_555 1_555
H22BB C29BB 1_555 1_555
C30BB N10 1_555 1_555
N9BB C25BB 1_555 1_555
N10BB C30GA 1_555 1_555
C5G H7G 1_555 1_555
C6G C5G 1_555 1_555
C7G C6G 1_555 1_555
H8G C7G 1_555 1_555
C8G C7G 1_555 1_555
H9G C8G 1_555 1_555
C9G C8G 1_555 1_555
H10G C9G 1_555 1_555
C11G H11G 1_555 1_555
C12G C11G 1_555 1_555
H12G C12G 1_555 1_555
C13G C12G 1_555 1_555
H13G C13G 1_555 1_555
C14G C13G 1_555 1_555
C15G C14G 1_555 1_555
H14G C15G 1_555 1_555
C16G C14G 1_555 1_555
C17G C6G 1_555 1_555
C18G C20G 1_555 1_555
C19G H15G 1_555 1_555
C20G C19G 1_555 1_555
C21G C20G 1_555 1_555
H16G C21G 1_555 1_555
C22G C21G 1_555 1_555
H17G C22G 1_555 1_555
C23G C22G 1_555 1_555
H18G C23G 1_555 1_555
C24G N8G 1_555 1_555
C25G H19G 1_555 1_555
C26G C25G 1_555 1_555
H20G C26G 1_555 1_555
C27G C26G 1_555 1_555
H21G C27G 1_555 1_555
C28G C27G 1_555 1_555
C29G C28G 1_555 1_555
H22G C29G 1_555 1_555
C30G C28G 1_555 1_555
Co2G N7G 1_555 1_555
N1G C5G 1_555 1_555
N3G C11G 1_555 1_555
N4G C16G 1_555 1_555
N5G C16G 1_555 1_555
N6G C17G 1_555 1_555
N7G C19G 1_555 1_555
N8G Co2G 1_555 1_555
N9G C25G 1_555 1_555
N10G C30G 1_555 1_555
S2G C24G 1_555 1_555
C25YA H19YA 1_555 1_555
C26YA C25YA 1_555 1_555
H20YA C26YA 1_555 1_555
C27YA C26YA 1_555 1_555
H21YA C27YA 1_555 1_555
C28YA C27YA 1_555 1_555
C29YA C28YA 1_555 1_555
H22YA C29YA 1_555 1_555
C30YA C28YA 1_555 1_555
N9YA Co2 1_555 1_555
N10YA C30G 1_555 1_555
C25EC H19EC 1_555 1_555
C26EC C25EC 1_555 1_555
H20EC C26EC 1_555 1_555
C27EC C26EC 1_555 1_555
H21EC C27EC 1_555 1_555
C28EC C27EC 1_555 1_555
C29EC C28EC 1_555 1_555
H22EC C29EC 1_555 1_555
C30EC N10G 1_555 1_555
N9EC C25EC 1_555 1_555
N10EC C30YA 1_555 1_555
C5J H7J 1_555 1_555
C6J C5J 1_555 1_555
C7J C6J 1_555 1_555
H8J C7J 1_555 1_555
C8J C7J 1_555 1_555
H9J C8J 1_555 1_555
C9J C8J 1_555 1_555
H10J C9J 1_555 1_555
C11J H11J 1_555 1_555
C12J C11J 1_555 1_555
H12J C12J 1_555 1_555
C13J C12J 1_555 1_555
H13J C13J 1_555 1_555
C14J C13J 1_555 1_555
C15J C14J 1_555 1_555
H14J C15J 1_555 1_555
C16J C14J 1_555 1_555
C17J C6J 1_555 1_555
C18J C20J 1_555 1_555
C19J H15J 1_555 1_555
C20J C19J 1_555 1_555
C21J C20J 1_555 1_555
H16J C21J 1_555 1_555
C22J C21J 1_555 1_555
H17J C22J 1_555 1_555
C23J C22J 1_555 1_555
H18J C23J 1_555 1_555
C24J N8J 1_555 1_555
Co2J N9GA 1_555 1_555
N1J C5J 1_555 1_555
N3J C11J 1_555 1_555
N4J C16J 1_555 1_555
N5J C16J 1_555 1_555
N6J C17J 1_555 1_555
N7J C19J 1_555 1_555
N8J Co2J 1_555 1_555
S2J C24J 1_555 1_555
C5GA H7GA 1_555 1_555
C6GA C5GA 1_555 1_555
C7GA C6GA 1_555 1_555
H8GA C7GA 1_555 1_555
C8GA C7GA 1_555 1_555
H9GA C8GA 1_555 1_555
C9GA C8GA 1_555 1_555
H10GA C9GA 1_555 1_555
C11GA H11GA 1_555 1_555
C12GA C11GA 1_555 1_555
H12GA C12GA 1_555 1_555
C13GA C12GA 1_555 1_555
H13GA C13GA 1_555 1_555
C14GA C13GA 1_555 1_555
C15GA C14GA 1_555 1_555
H14GA C15GA 1_555 1_555
C16GA C14GA 1_555 1_555
C17GA C6GA 1_555 1_555
C18GA C20GA 1_555 1_555
C19GA H15GA 1_555 1_555
C20GA C19GA 1_555 1_555
C21GA C20GA 1_555 1_555
H16GA C21GA 1_555 1_555
C22GA C21GA 1_555 1_555
H17GA C22GA 1_555 1_555
C23GA C22GA 1_555 1_555
H18GA C23GA 1_555 1_555
C24GA N8GA 1_555 1_555
N1GA C5GA 1_555 1_555
N3GA C11GA 1_555 1_555
N4GA C16GA 1_555 1_555
N5GA C16GA 1_555 1_555
N6GA C17GA 1_555 1_555
N7GA Co2J 1_555 1_555
N8GA Co2J 1_555 1_555
S2GA C24GA 1_555 1_555
C5YC H7YC 1_555 1_555
C6YC C5YC 1_555 1_555
C7YC C6YC 1_555 1_555
H8YC C7YC 1_555 1_555
C8YC C7YC 1_555 1_555
H9YC C8YC 1_555 1_555
C9YC C8YC 1_555 1_555
H10YC C9YC 1_555 1_555
C10YC N2YC 1_555 1_555
C11YC H11YC 1_555 1_555
C12YC C11YC 1_555 1_555
H12YC C12YC 1_555 1_555
C13YC C12YC 1_555 1_555
H13YC C13YC 1_555 1_555
C14YC C13YC 1_555 1_555
C15YC C14YC 1_555 1_555
H14YC C15YC 1_555 1_555
C16YC C14YC 1_555 1_555
C17YC C6YC 1_555 1_555
C18YC C20YC 1_555 1_555
C19YC H15YC 1_555 1_555
C20YC C19YC 1_555 1_555
C21YC C20YC 1_555 1_555
H16YC C21YC 1_555 1_555
C22YC C21YC 1_555 1_555
H17YC C22YC 1_555 1_555
C23YC C22YC 1_555 1_555
H18YC C23YC 1_555 1_555
Co1YC N2YC 1_555 1_555
N1YC Co1 1_555 1_555
N3YC C11YC 1_555 1_555
N4YC C16YC 1_555 1_555
N5YC C16YC 1_555 1_555
N6YC C17YC 1_555 1_555
N7YC C19YC 1_555 1_555
S1YC C10YC 1_555 1_555
C5KD H7KD 1_555 1_555
C6KD C5KD 1_555 1_555
C7KD C6KD 1_555 1_555
H8KD C7KD 1_555 1_555
C8KD C7KD 1_555 1_555
H9KD C8KD 1_555 1_555
C9KD C8KD 1_555 1_555
H10KD C9KD 1_555 1_555
C11KD H11KD 1_555 1_555
C12KD C11KD 1_555 1_555
H12KD C12KD 1_555 1_555
C13KD C12KD 1_555 1_555
H13KD C13KD 1_555 1_555
C14KD C13KD 1_555 1_555
C15KD C14KD 1_555 1_555
H14KD C15KD 1_555 1_555
C16KD C14KD 1_555 1_555
C17KD C6KD 1_555 1_555
C18KD C20KD 1_555 1_555
C19KD H15KD 1_555 1_555
C20KD C19KD 1_555 1_555
C21KD C20KD 1_555 1_555
H16KD C21KD 1_555 1_555
C22KD C21KD 1_555 1_555
H17KD C22KD 1_555 1_555
C23KD C22KD 1_555 1_555
H18KD C23KD 1_555 1_555
N1KD Co1 1_555 1_555
N3KD C11KD 1_555 1_555
N4KD C16KD 1_555 1_555
N5KD C16KD 1_555 1_555
N6KD C17KD 1_555 1_555
N7KD C19KD 1_555 1_555
C10FC N2FC 1_555 1_555
N2FC Co1 1_555 1_555
S1FC C10FC 1_555 1_555
C24YA N8YA 1_555 1_555
N8YA Co2 1_555 1_555
S2YA C24YA 1_555 1_555
C24XB N8XB 1_555 1_555
N8XB Co2G 1_555 1_555
S2XB C24XB 1_555 1_555
Co1ZD N1 1_555 1_555
C10JE N2JE 1_555 1_555
N2JE Co1YC 1_555 1_555
S1JE C10JE 1_555 1_555
C10ZD N2ZD 1_555 1_555
N2ZD Co1ZD 1_555 1_555
S1ZD C10ZD 1_555 1_555
C10BG N2BG 1_555 1_555
N2BG Co1ZD 1_555 1_555
S1BG C10BG 1_555 1_555
Co1G N3G 1_555 1_555
Co1J N3J 1_555 1_555
Co1GA N3GA 1_555 1_555
Co1RC N1G 1_555 1_555
Co1WC N1GA 1_555 1_555
Co1KD N3KD 1_555 1_555
Co1UE N1J 1_555 1_555
Co2CA N9BB 1_555 1_555
Co2DB N9EC 1_555 1_555
Co2YC N7YC 1_555 1_555
Co2KD N7KD 1_555 1_555
N1W Co1ZD 1_555 1_555
N1FB Co1YC 1_555 1_555
N1KB Co1YC 1_555 1_555
N3FC Co1 1_555 1_555
N3ZD Co1ZD 1_555 1_555
N3JE Co1YC 1_555 1_555
N3BG Co1ZD 1_555 1_555
N7YA Co2 1_555 1_555
N7XB Co2G 1_555 1_555
N9J Co2J 1_555 1_555
N9XB Co2G 1_555 1_555
C9 N1 1_555 1_555
C15 N3 1_555 1_555
C17 N5 1_555 1_555
C18 N4 1_555 1_555
C18 N6 1_555 1_555
C23 N7 1_555 1_555
C29 N9 1_555 1_555
Co1 N3 1_555 1_555
Co2 N9 1_555 1_555
C29GA N9GA 1_555 1_555
C30GA N10GA 1_555 1_555
C28BB C30BB 1_555 1_555
C29BB N9BB 1_555 1_555
C30BB N10BB 1_555 1_555
C9G N1G 1_555 1_555
C15G N3G 1_555 1_555
C17G N5G 1_555 1_555
C18G N4G 1_555 1_555
C18G N6G 1_555 1_555
C23G N7G 1_555 1_555
C29G N9G 1_555 1_555
Co2G N9G 1_555 1_555
C25YA N9YA 1_555 1_555
C29YA N9YA 1_555 1_555
C30YA N10YA 1_555 1_555
C28EC C30EC 1_555 1_555
C29EC N9EC 1_555 1_555
C30EC N10EC 1_555 1_555
C9J N1J 1_555 1_555
C15J N3J 1_555 1_555
C17J N5J 1_555 1_555
C18J N4J 1_555 1_555
C18J N6J 1_555 1_555
C23J N7J 1_555 1_555
Co2J N7J 1_555 1_555
C9GA N1GA 1_555 1_555
C15GA N3GA 1_555 1_555
C17GA N5GA 1_555 1_555
C18GA N4GA 1_555 1_555
C18GA N6GA 1_555 1_555
C19GA N7GA 1_555 1_555
C23GA N7GA 1_555 1_555
C5YC N1YC 1_555 1_555
C9YC N1YC 1_555 1_555
C15YC N3YC 1_555 1_555
C17YC N5YC 1_555 1_555
C18YC N4YC 1_555 1_555
C18YC N6YC 1_555 1_555
C23YC N7YC 1_555 1_555
Co1YC N3YC 1_555 1_555
C5KD N1KD 1_555 1_555
C9KD N1KD 1_555 1_555
C15KD N3KD 1_555 1_555
C17KD N5KD 1_555 1_555
C18KD N4KD 1_555 1_555
C18KD N6KD 1_555 1_555
C23KD N7KD 1_555 1_555

#END
