
#######################################################################
#
#                 Cambridge Crystallographic Data Centre
#                                CCDC 
#
#######################################################################
#
# If this CIF has been generated from an entry in the Cambridge 
# Structural Database, then it will include bibliographic, chemical, 
# crystal, experimental, refinement or atomic coordinate data resulting 
# from the CCDC's data processing and validation procedures.
#
#######################################################################

data_RIVDEG
_symmetry_cell_setting           triclinic
_symmetry_space_group_name_H-M   'P -1'
_symmetry_Int_Tables_number      2
_space_group_name_Hall           '-P 1'
loop_
_symmetry_equiv_pos_site_id
_symmetry_equiv_pos_as_xyz
1 x,y,z
2 -x,-y,-z
_cell_length_a                   12.274(4)
_cell_length_b                   12.872(4)
_cell_length_c                   13.108(4)
_cell_angle_alpha                93.971(5)
_cell_angle_beta                 104.876(4)
_cell_angle_gamma                110.758(5)
_cell_volume                     1841.95
loop_
_atom_site_label
_atom_site_type_symbol
_atom_site_fract_x
_atom_site_fract_y
_atom_site_fract_z
Cu2 Cu 0.0000 0.5000 0.5000
N4 N 0.0133(11) 0.5061(8) 0.6461(8)
C1 C 0.1171(14) 0.5746(11) 0.7239(10)
H1 H 0.1821 0.6213 0.7033
C2 C -0.0688(13) 0.4476(10) 0.7890(9)
H2 H -0.1332 0.4000 0.8098
C6 C -0.0822(15) 0.4439(11) 0.6783(9)
H6 H -0.1563 0.3989 0.6279
C10 C 0.0329(10) 0.5168(10) 0.8654(10)
C16 C 0.0443(11) 0.5276(10) 0.9785(10)
C20 C 0.1302(13) 0.5780(12) 0.8321(10)
H15 H 0.2050 0.6218 0.8823
Cu2_2 Cu 0.0000 0.5000 1.5000
N4A N -0.0133(11) 0.4939(8) 1.3539(8)
N4A_2 N -0.0133(11) 0.4939(8) 0.3539(8)
C1A C -0.1171(14) 0.4254(11) 1.2761(10)
H1A H -0.1821 0.3787 1.2967
C2A C 0.0688(13) 0.5524(10) 1.2110(9)
H2A H 0.1332 0.6000 1.1902
C6A C 0.0822(15) 0.5561(11) 1.3217(9)
H6A H 0.1563 0.6011 1.3721
C10A C -0.0329(10) 0.4832(10) 1.1346(10)
C16A C -0.0443(11) 0.4724(10) 1.0215(10)
C20A C -0.1302(13) 0.4220(12) 1.1679(10)
H15A H -0.2050 0.3782 1.1177
O24 O 0.270(3) 0.833(2) 0.9847(17)
O25 O 0.496(5) 0.694(3) -0.051(6)
N2 N 0.7632(12) 0.9384(11) 0.2311(10)
C9 C 0.8840(16) 0.9870(12) 0.2645(12)
H8 H 0.9243 1.0127 0.3374
C12 C 0.9516(15) 1.0003(12) 0.1925(16)
H10 H 1.0366 1.0307 0.2152
C14 C 0.8826(18) 0.9645(13) 0.0808(13)
C19 C 0.9501(16) 0.9838(13) -0.0042(17)
H14 H 0.8993 0.9653 -0.0745
C22 C 0.7637(19) 0.9188(19) 0.0519(15)
H17 H 0.7186 0.8986 -0.0203
C23 C 0.707(2) 0.9013(19) 0.1284(17)
H18 H 0.6233 0.8603 0.1070
N2A N 1.2368(12) 1.0616(11) -0.2311(10)
C9A C 1.1160(16) 1.0130(12) -0.2645(12)
H8A H 1.0757 0.9873 -0.3374
C12A C 1.0484(15) 0.9997(12) -0.1925(16)
H10A H 0.9634 0.9693 -0.2152
C14A C 1.1174(18) 1.0355(13) -0.0808(13)
C19A C 1.0499(16) 1.0162(13) 0.0042(17)
H14A H 1.1007 1.0347 0.0745
C22A C 1.2363(19) 1.0812(19) -0.0519(15)
H17A H 1.2814 1.1014 0.0203
C23A C 1.293(2) 1.0987(19) -0.1284(17)
H18A H 1.3767 1.1397 -0.1070
As1 As 0.5000 0.0000 0.5000
Mo1 Mo 0.47893(13) -0.06196(10) 0.75815(8)
Mo2 Mo 0.76772(11) 0.11445(10) 0.72555(8)
Mo3 Mo 0.21497(12) -0.17135(11) 0.53224(11)
Mo4 Mo 0.44194(13) -0.28162(10) 0.54838(11)
Mo5 Mo 0.53477(12) 0.21781(11) 0.70587(9)
Mo6 Mo 0.26554(12) 0.10591(11) 0.48210(10)
V1 V 0.6588(7) -0.1322(5) 0.7196(5)
Cu1 Cu 0.21933(18) 0.37145(15) 0.50604(11)
O1 O 0.4329(12) -0.1006(11) 0.5728(10)
O2 O 0.5525(15) 0.0483(12) 0.6234(11)
O3 O 0.6497(9) -0.0030(8) 0.7772(10)
O4 O 0.4179(9) -0.4120(7) 0.5677(7)
O5 O 0.8904(9) 0.1575(8) 0.8320(8)
O6 O 0.1548(9) 0.1548(8) 0.4708(7)
O7 O 0.0838(8) -0.2502(8) 0.5446(7)
O8 O 0.4210(9) -0.3012(13) 0.3991(9)
O9 O 0.4799(9) 0.0829(8) 0.7702(11)
O10 O 0.6921(11) 0.2118(9) 0.7482(11)
O11 O 0.4951(10) -0.1950(11) 0.6921(10)
O12 O 0.6178(9) -0.2151(12) 0.5675(9)
O13 O 0.8268(15) 0.1867(9) 0.6223(9)
O14 O 0.3477(15) -0.0339(12) 0.4521(11)
O15 O 0.5477(10) 0.3128(8) 0.7992(10)
O16 O 0.4690(11) -0.0934(10) 0.8783(8)
O17 O 0.2877(10) -0.2805(11) 0.5271(11)
O18 O 0.7798(14) -0.0207(8) 0.6581(10)
O19 O 0.3677(9) 0.1694(13) 0.6223(10)
O20 O 0.2029(16) -0.0318(9) 0.5337(10)
O21 O 0.3127(11) -0.1239(12) 0.6799(12)
O22 O 0.5266(13) -0.1192(12) 0.4695(10)
O23 O 0.722(2) -0.177(2) 0.817(2)
N1 N 0.2364(9) 0.3727(8) 0.6528(8)
N3 N 0.2028(10) 0.3680(8) 1.3596(7)
C3 C 0.0955(12) 0.2991(10) 1.2816(8)
H3 H 0.0277 0.2588 1.3023
C4 C 0.1477(11) 0.3060(10) 0.7881(9)
H4 H 0.0810 0.2576 0.8055
C5 C 0.0869(11) 0.2892(10) 1.1765(9)
H5 H 0.0127 0.2436 1.1265
C7 C 0.1402(11) 0.3085(11) 0.6836(9)
H7 H 0.0670 0.2648 0.6314
C8 C 0.1872(11) 0.3459(10) 1.1405(8)
C11 C 0.1733(10) 0.3371(9) 1.0258(8)
H9 H 0.0957 0.2957 0.9786
C13 C 0.2893(11) 0.4139(10) 1.2192(9)
H11 H 0.3572 0.4567 1.1997
C15 C 0.2538(11) 0.3747(10) 0.8714(9)
C17 C 0.2979(14) 0.4230(11) 1.3258(10)
H12 H 0.3718 0.4687 1.3760
C18 C 0.3496(12) 0.4394(16) 0.8383(9)
H13 H 0.4227 0.4852 0.8897
C21 C 0.2625(12) 0.3835(11) 0.9841(9)
H16 H 0.3390 0.4264 1.0323
C24 C 0.3406(13) 0.4385(14) 0.7296(10)
H19 H 0.4073 0.4838 0.7101
Mo1A Mo 0.52107(13) 0.06196(10) 0.24185(8)
Mo2A Mo 0.23228(11) -0.11445(10) 0.27445(8)
Mo3A Mo 0.78503(12) 0.17135(11) 0.46776(11)
Mo4A Mo 0.55806(13) 0.28162(10) 0.45162(11)
Mo5A Mo 0.46523(12) -0.21781(11) 0.29413(9)
Mo6A Mo 0.73446(12) -0.10591(11) 0.51790(10)
V1A V 0.3412(7) 0.1322(5) 0.2804(5)
Cu1A Cu 0.78067(18) -0.37145(15) 0.49396(11)
Cu1_2 Cu 0.21933(18) 0.37145(15) 1.50604(11)
Cu1_3 Cu 0.21933(18) 0.37145(15) -0.49396(11)
O1A O 0.5671(12) 0.1006(11) 0.4272(10)
O2A O 0.4475(15) -0.0483(12) 0.3766(11)
O3A O 0.3503(9) 0.0030(8) 0.2228(10)
O4A O 0.5821(9) 0.4120(7) 0.4323(7)
O5A O 0.1096(9) -0.1575(8) 0.1680(8)
O6A O 0.8452(9) -0.1548(8) 0.5292(7)
O7A O 0.9162(8) 0.2502(8) 0.4554(7)
O8A O 0.5790(9) 0.3012(13) 0.6009(9)
O9A O 0.5201(9) -0.0829(8) 0.2298(11)
O10A O 0.3079(11) -0.2118(9) 0.2518(11)
O11A O 0.5049(10) 0.1950(11) 0.3079(10)
O12A O 0.3822(9) 0.2151(12) 0.4325(9)
O13A O 0.1732(15) -0.1867(9) 0.3777(9)
O14A O 0.6523(15) 0.0339(12) 0.5479(11)
O15A O 0.4523(10) -0.3128(8) 0.2008(10)
O16A O 0.5310(11) 0.0934(10) 0.1217(8)
O17A O 0.7123(10) 0.2805(11) 0.4729(11)
O18A O 0.2202(14) 0.0207(8) 0.3419(10)
O19A O 0.6323(9) -0.1694(13) 0.3777(10)
O20A O 0.7971(16) 0.0318(9) 0.4663(10)
O21A O 0.6873(11) 0.1239(12) 0.3201(12)
O22A O 0.4734(13) 0.1192(12) 0.5305(10)
O23A O 0.278(2) 0.177(2) 0.183(2)
N1_2 N 0.2364(9) 0.3727(8) -0.3472(8)
N1A N 0.7636(9) -0.3727(8) 0.3472(8)
N3_2 N 0.2028(10) 0.3680(8) 0.3596(7)
N3A N 0.7972(10) -0.3680(8) 0.6404(7)
C3_2 C 0.0955(12) 0.2991(10) 0.2816(8)
H3_2 H 0.0277 0.2588 0.3023
C4_2 C 0.1477(11) 0.3060(10) -0.2119(9)
H4_2 H 0.0810 0.2576 -0.1945
C5_2 C 0.0869(11) 0.2892(10) 0.1765(9)
H5_2 H 0.0127 0.2436 0.1265
C7_2 C 0.1402(11) 0.3085(11) -0.3164(9)
H7_2 H 0.0670 0.2648 -0.3686
C8_2 C 0.1872(11) 0.3459(10) 0.1405(8)
C11_2 C 0.1733(10) 0.3371(9) 0.0258(8)
H9_2 H 0.0957 0.2957 -0.0214
C13_2 C 0.2893(11) 0.4139(10) 0.2192(9)
H11_2 H 0.3572 0.4567 0.1997
C15_2 C 0.2538(11) 0.3747(10) -0.1286(9)
C17_2 C 0.2979(14) 0.4230(11) 0.3258(10)
H12_2 H 0.3718 0.4687 0.3760
C18_2 C 0.3496(12) 0.4394(16) -0.1617(9)
H13_2 H 0.4227 0.4852 -0.1103
C21_2 C 0.2625(12) 0.3835(11) -0.0159(9)
H16_2 H 0.3390 0.4264 0.0323
C24_2 C 0.3406(13) 0.4385(14) -0.2704(10)
H19_2 H 0.4073 0.4838 -0.2899
loop_
_geom_bond_atom_site_label_1
_geom_bond_atom_site_label_2
_geom_bond_site_symmetry_1
_geom_bond_site_symmetry_2
As1 O1 1_555 1_555
Mo1 O1 1_555 1_555
Mo2 O2 1_555 1_555
Mo3 O1 1_555 1_555
Mo4 O1 1_555 1_555
Mo5 O2 1_555 1_555
Mo6 O6 1_555 1_555
V1 O3 1_555 1_555
Cu1 O6 1_555 1_555
Cu2 N4 1_555 1_555
O2 As1 1_555 1_555
O3 Mo1 1_555 1_555
O4 Mo4 1_555 1_555
O5 Mo2 1_555 1_555
O7 Mo3 1_555 1_555
O8 Mo4 1_555 1_555
O9 Mo1 1_555 1_555
O10 Mo2 1_555 1_555
O11 Mo1 1_555 1_555
O12 Mo4 1_555 1_555
O13 Mo2 1_555 1_555
O14 As1 1_555 1_555
O15 Mo5 1_555 1_555
O16 Mo1 1_555 1_555
O17 Mo3 1_555 1_555
O18 Mo2 1_555 1_555
O19 Mo5 1_555 1_555
O20 Mo3 1_555 1_555
O21 Mo1 1_555 1_555
O22 As1 1_555 1_555
O23 V1 1_555 1_555
N1 Cu1 1_555 1_555
N2 C9 1_555 1_555
N3 C3 1_555 1_555
N4 C1 1_555 1_555
C1 H1 1_555 1_555
C2 H2 1_555 1_555
C3 H3 1_555 1_555
C4 H4 1_555 1_555
C5 C3 1_555 1_555
H5 C5 1_555 1_555
C6 N4 1_555 1_555
H6 C6 1_555 1_555
C7 N1 1_555 1_555
H7 C7 1_555 1_555
C8 C5 1_555 1_555
C9 H8 1_555 1_555
C10 C2 1_555 1_555
C11 C8 1_555 1_555
H9 C11 1_555 1_555
C12 C9 1_555 1_555
H10 C12 1_555 1_555
C13 C8 1_555 1_555
H11 C13 1_555 1_555
C14 C12 1_555 1_555
C15 C4 1_555 1_555
C16 C10 1_555 1_555
C17 N3 1_555 1_555
H12 C17 1_555 1_555
C18 C15 1_555 1_555
H13 C18 1_555 1_555
C19 C14 1_555 1_555
H14 C19 1_555 1_555
C20 C1 1_555 1_555
H15 C20 1_555 1_555
C21 C11 1_555 1_555
H16 C21 1_555 1_555
C22 C14 1_555 1_555
H17 C22 1_555 1_555
C23 N2 1_555 1_555
H18 C23 1_555 1_555
C24 N1 1_555 1_555
H19 C24 1_555 1_555
Mo1A O1A 1_555 1_555
Mo2A O14 1_555 1_555
Mo3A O13 1_555 1_555
Mo4A O1A 1_555 1_555
Mo5A O8 1_555 1_555
Mo6A O12 1_555 1_555
V1A O3A 1_555 1_555
Cu1A O6A 1_555 1_555
Cu1_2 N3 1_555 1_555
Cu1_3 N1_2 1_555 1_555
Cu2_2 N4A 1_555 1_555
O1A As1 1_555 1_555
O2A As1 1_555 1_555
O3A Mo1A 1_555 1_555
O4A Mo4A 1_555 1_555
O5A Mo2A 1_555 1_555
O6A Mo6A 1_555 1_555
O7A Mo3A 1_555 1_555
O8A Mo5 1_555 1_555
O9A Mo1A 1_555 1_555
O10A Mo2A 1_555 1_555
O11A Mo1A 1_555 1_555
O12A Mo6 1_555 1_555
O13A Mo3 1_555 1_555
O14A As1 1_555 1_555
O15A Mo5A 1_555 1_555
O16A Mo1A 1_555 1_555
O17A Mo3A 1_555 1_555
O18A Mo6 1_555 1_555
O19A Mo5A 1_555 1_555
O20A Mo3A 1_555 1_555
O21A Mo1A 1_555 1_555
O22A As1 1_555 1_555
O23A V1A 1_555 1_555
N1_2 C7_2 1_555 1_555
N1A Cu1A 1_555 1_555
N2A C9A 1_555 1_555
N3_2 Cu1 1_555 1_555
N3A Cu1A 1_555 1_555
N4A C1A 1_555 1_555
N4A_2 Cu2 1_555 1_555
C1A H1A 1_555 1_555
C2A H2A 1_555 1_555
C3_2 N3_2 1_555 1_555
H3_2 C3_2 1_555 1_555
C4_2 H4_2 1_555 1_555
C5_2 C3_2 1_555 1_555
H5_2 C5_2 1_555 1_555
C6A N4A 1_555 1_555
H6A C6A 1_555 1_555
C7_2 C4_2 1_555 1_555
H7_2 C7_2 1_555 1_555
C8_2 C5_2 1_555 1_555
C9A H8A 1_555 1_555
C10A C2A 1_555 1_555
C11_2 C8_2 1_555 1_555
H9_2 C11_2 1_555 1_555
C12A C9A 1_555 1_555
H10A C12A 1_555 1_555
C13_2 C8_2 1_555 1_555
H11_2 C13_2 1_555 1_555
C14A C12A 1_555 1_555
C15_2 C4_2 1_555 1_555
C16A C16 1_555 1_555
C17_2 N3_2 1_555 1_555
H12_2 C17_2 1_555 1_555
C18_2 C15_2 1_555 1_555
H13_2 C18_2 1_555 1_555
C19A C19 1_555 1_555
H14A C19A 1_555 1_555
C20A C1A 1_555 1_555
H15A C20A 1_555 1_555
C21_2 C11_2 1_555 1_555
H16_2 C21_2 1_555 1_555
C22A C14A 1_555 1_555
H17A C22A 1_555 1_555
C23A N2A 1_555 1_555
H18A C23A 1_555 1_555
C24_2 N1_2 1_555 1_555
H19_2 C24_2 1_555 1_555
Mo1 O2 1_555 1_555
Mo2 O3 1_555 1_555
Mo2 O14A 1_555 1_555
Mo3 O14 1_555 1_555
Mo3 O21 1_555 1_555
Mo4 O11 1_555 1_555
Mo4 O17 1_555 1_555
Mo4 O22 1_555 1_555
Mo5 O9 1_555 1_555
Mo5 O10 1_555 1_555
Mo5 O22A 1_555 1_555
Mo6 O14 1_555 1_555
Mo6 O19 1_555 1_555
Mo6 O20 1_555 1_555
Mo6 O22A 1_555 1_555
V1 O11 1_555 1_555
V1 O12 1_555 1_555
V1 O18 1_555 1_555
O2 O14A 1_555 1_555
O2 O22A 1_555 1_555
O14 O2A 1_555 1_555
O18 Mo6A 1_555 1_555
O22 Mo5A 1_555 1_555
O22 Mo6A 1_555 1_555
O22 O2A 1_555 1_555
C2 C6 1_555 1_555
C4 C7 1_555 1_555
C10 C20 1_555 1_555
C13 C17 1_555 1_555
C15 C21 1_555 1_555
C18 C24 1_555 1_555
C22 C23 1_555 1_555
Mo1A O2A 1_555 1_555
Mo2A O2A 1_555 1_555
Mo2A O3A 1_555 1_555
Mo2A O13A 1_555 1_555
Mo2A O18A 1_555 1_555
Mo3A O1A 1_555 1_555
Mo3A O14A 1_555 1_555
Mo3A O21A 1_555 1_555
Mo4A O8A 1_555 1_555
Mo4A O11A 1_555 1_555
Mo4A O12A 1_555 1_555
Mo4A O17A 1_555 1_555
Mo4A O22A 1_555 1_555
Mo5A O2A 1_555 1_555
Mo5A O9A 1_555 1_555
Mo5A O10A 1_555 1_555
Mo6A O14A 1_555 1_555
Mo6A O19A 1_555 1_555
Mo6A O20A 1_555 1_555
V1A O11A 1_555 1_555
V1A O12A 1_555 1_555
V1A O18A 1_555 1_555
C2A C6A 1_555 1_555
C10A C16A 1_555 1_555
C10A C20A 1_555 1_555
C13_2 C17_2 1_555 1_555
C14A C19A 1_555 1_555
C15_2 C21_2 1_555 1_555
C18_2 C24_2 1_555 1_555
C22A C23A 1_555 1_555

#END
