
#######################################################################
#
#                 Cambridge Crystallographic Data Centre
#                                CCDC 
#
#######################################################################
#
# If this CIF has been generated from an entry in the Cambridge 
# Structural Database, then it will include bibliographic, chemical, 
# crystal, experimental, refinement or atomic coordinate data resulting 
# from the CCDC's data processing and validation procedures.
#
#######################################################################

data_RIVDAC
_symmetry_cell_setting           monoclinic
_symmetry_space_group_name_H-M   'P 21/n'
_symmetry_Int_Tables_number      14
_space_group_name_Hall           '-P 2yn'
loop_
_symmetry_equiv_pos_site_id
_symmetry_equiv_pos_as_xyz
1 x,y,z
2 1/2-x,1/2+y,1/2-z
3 -x,-y,-z
4 1/2+x,1/2-y,1/2+z
_cell_length_a                   13.8849(6)
_cell_length_b                   21.6767(9)
_cell_length_c                   25.4158(11)
_cell_angle_alpha                90
_cell_angle_beta                 99.2810(10)
_cell_angle_gamma                90
_cell_volume                     7549.48
loop_
_atom_site_label
_atom_site_type_symbol
_atom_site_fract_x
_atom_site_fract_y
_atom_site_fract_z
As1 As 0.01138(7) 0.74860(4) 0.00816(4)
Mo1 Mo -0.03118(6) 0.63185(4) 0.10446(3)
Mo2 Mo 0.04731(7) 0.87152(4) -0.08272(4)
Mo3 Mo -0.22307(7) 0.71492(5) -0.06852(4)
Mo4 Mo 0.22880(5) 0.74746(4) -0.04798(3)
Mo5 Mo 0.25341(7) 0.77485(4) 0.08233(4)
Mo6 Mo -0.19689(6) 0.74594(4) 0.07445(3)
Mo7 Mo 0.18903(5) 0.62997(3) 0.04223(3)
Mo8 Mo -0.15619(6) 0.87377(3) -0.02676(3)
Mo9 Mo 0.08010(6) 0.90331(4) 0.04816(3)
Mo10 Mo -0.06457(5) 0.59809(3) -0.03864(3)
Mo11 Mo -0.02767(5) 0.71508(3) -0.12936(3)
Mo12 Mo 0.03722(6) 0.77485(4) 0.14897(3)
V1 V -0.10638(12) 0.87616(7) 0.09809(6)
V2 V 0.13352(11) 0.61968(7) -0.08544(6)
O1 O -0.0107(4) 0.7982(3) -0.1198(2)
O2 O 0.1297(4) 0.7311(3) 0.0176(2)
O3 O 0.3040(4) 0.7717(3) 0.0149(3)
O4 O -0.2528(5) 0.9218(3) -0.0372(3)
O5 O -0.1546(6) 0.9228(3) 0.1346(3)
O6 O 0.3148(4) 0.7457(3) -0.0887(3)
O7 O -0.3084(5) 0.7563(3) 0.0943(3)
O8 O 0.1213(5) 0.9671(3) 0.0823(3)
O9 O 0.0723(5) 0.9124(3) -0.1336(3)
O10 O -0.0678(5) 0.9175(3) 0.0354(2)
O11 O 0.0612(5) 0.7997(3) 0.2134(2)
O12 O -0.0742(5) 0.5213(3) -0.0499(2)
O13 O 0.3522(5) 0.7979(3) 0.1238(3)
O14 O -0.0004(4) 0.8221(3) -0.0058(2)
O15 O -0.0308(4) 0.7326(3) 0.0646(2)
O16 O -0.0830(4) 0.9005(3) -0.0763(2)
O17 O 0.2522(5) 0.5624(3) 0.0531(3)
O18 O 0.1813(5) 0.6032(3) -0.1380(3)
O19 O -0.1840(5) 0.8293(3) 0.0413(2)
O20 O -0.0178(5) 0.7057(3) -0.1949(2)
O21 O -0.2283(4) 0.7166(3) 0.0064(2)
O22 O -0.1880(4) 0.6268(3) -0.0646(2)
O23 O 0.0146(4) 0.6913(3) 0.1602(2)
O24 O -0.3381(5) 0.7089(3) -0.0929(3)
O25 O -0.0438(5) 0.5680(3) 0.1397(2)
O26 O -0.1586(4) 0.6703(3) 0.1061(2)
O27 O -0.1098(4) 0.7933(3) 0.1329(2)
O28 O 0.0927(4) 0.9236(3) -0.0208(2)
O29 O 0.1123(4) 0.7075(3) -0.0945(2)
O30 O 0.1648(4) 0.8203(3) -0.0645(2)
O31 O -0.0764(4) 0.6050(3) 0.0327(2)
O32 O 0.0788(4) 0.6084(3) -0.0151(2)
O33 O -0.2022(4) 0.8023(3) -0.0625(2)
O34 O -0.0531(4) 0.7089(3) -0.0410(2)
O35 O -0.0128(4) 0.6239(3) -0.1069(2)
O36 O -0.1620(4) 0.7150(3) -0.1337(2)
O37 O 0.0999(4) 0.6267(3) 0.0888(2)
O38 O 0.1579(4) 0.7650(3) 0.1302(2)
O39 O 0.1865(4) 0.8513(3) 0.0605(2)
O40 O 0.0292(5) 0.8565(3) 0.1087(2)
O41 O 0.2724(4) 0.6856(3) 0.0826(2)
O42 O 0.2373(4) 0.6546(3) -0.0282(2)
O43 O 0.1522(5) 0.5199(3) -0.0667(2)
Cu1 Cu 0.48683(10) 0.79341(5) 0.21130(6)
Cu2 Cu 0.45037(10) 1.29332(5) 0.16748(5)
N4 N 0.4588(6) 1.2065(3) 0.1728(3)
N8 N 0.4906(6) 0.8810(4) 0.2065(3)
N9 N 0.4896(6) 0.7058(3) 0.2038(3)
N10 N 0.4617(6) 0.3806(3) 0.1739(3)
C3 C 0.4819(7) 1.0103(4) 0.1940(4)
C9 C 0.4753(9) 0.9711(5) 0.1509(4)
H6 H 0.4676 0.9874 0.1166
C11 C 0.4279(8) 1.1678(5) 0.1331(4)
H8 H 0.4007 1.1839 0.1001
C14 C 0.4798(10) 0.9089(5) 0.1579(5)
H11 H 0.4751 0.8841 0.1278
C15 C 0.4920(7) 0.6686(4) 0.2452(4)
H12 H 0.4955 0.6858 0.2790
C16 C 0.5112(7) 0.4694(4) 0.2269(4)
H13 H 0.5395 0.4853 0.2598
C20 C 0.4348(8) 1.1041(5) 0.1393(4)
H17 H 0.4128 1.0788 0.1103
C25 C 0.4753(6) 0.5098(4) 0.1850(4)
C31 C 0.4755(7) 0.6173(4) 0.1467(4)
H24 H 0.4685 0.6011 0.1124
C32 C 0.4988(7) 0.9189(4) 0.2473(4)
H25 H 0.5094 0.9016 0.2812
C33 C 0.4929(7) 0.9826(4) 0.2435(4)
H26 H 0.4963 1.0065 0.2741
C34 C 0.4920(7) 1.1799(4) 0.2208(4)
H27 H 0.5105 1.2059 0.2498
C36 C 0.4800(8) 0.6792(5) 0.1538(4)
H29 H 0.4765 0.7047 0.1241
C38 C 0.4256(7) 0.4184(4) 0.1341(4)
H30 H 0.3953 0.4010 0.1023
C39 C 0.4731(6) 1.0777(4) 0.1869(4)
C40 C 0.4307(7) 0.4819(4) 0.1376(4)
H31 H 0.4046 0.5060 0.1085
C41 C 0.4813(6) 0.5779(4) 0.1902(4)
C44 C 0.4895(7) 0.6052(4) 0.2402(4)
H34 H 0.4933 0.5806 0.2704
C45 C 0.5001(7) 1.1183(4) 0.2294(4)
H35 H 0.5234 1.1032 0.2633
C48 C 0.5049(7) 0.4079(4) 0.2199(4)
H38 H 0.5317 0.3826 0.2480
Cu2_2 Cu 0.45037(10) 0.29332(5) 0.16748(5)
N10_2 N 0.4617(6) 1.3806(3) 0.1739(3)
Cu3 Cu 0.23347(9) 0.60616(5) -0.21992(5)
N6 N 0.2433(6) 0.5185(4) -0.2310(3)
N7 N 0.2617(6) 0.1931(4) -0.2680(3)
C17 C 0.2508(7) 0.4314(4) -0.2878(4)
H14 H 0.2542 0.4169 -0.3219
C18 C 0.2478(7) 0.4148(4) -0.1967(4)
H15 H 0.2491 0.3891 -0.1674
C21 C 0.2505(6) 0.3898(4) -0.2465(4)
C24 C 0.2234(8) 0.2189(5) -0.2274(4)
H19 H 0.1995 0.1930 -0.2034
C26 C 0.2431(7) 0.4789(4) -0.1903(4)
H20 H 0.2397 0.4946 -0.1566
C27 C 0.2886(7) 0.2968(4) -0.2973(4)
H21 H 0.3090 0.3223 -0.3228
C28 C 0.2182(7) 0.2815(5) -0.2201(4)
H22 H 0.1909 0.2968 -0.1916
C30 C 0.2533(6) 0.3221(4) -0.2547(4)
C49 C 0.2937(7) 0.2325(4) -0.3024(4)
H39 H 0.3204 0.2164 -0.3307
C50 C 0.2461(7) 0.4947(5) -0.2790(4)
H40 H 0.2447 0.5214 -0.3078
Cu3A Cu 0.26653(9) 1.10616(5) -0.28008(5)
Cu3A_2 Cu 0.26653(9) 0.10616(5) -0.28008(5)
N6A N 0.2567(6) 1.0185(4) -0.2690(3)
N7A N 0.2383(6) 0.6931(4) -0.2320(3)
N7_2 N 0.2617(6) 1.1931(4) -0.2680(3)
C17A C 0.2492(7) 0.9314(4) -0.2122(4)
H14A H 0.2458 0.9169 -0.1781
C18A C 0.2522(7) 0.9148(4) -0.3033(4)
H15A H 0.2509 0.8891 -0.3326
C21A C 0.2495(6) 0.8898(4) -0.2535(4)
C24A C 0.2766(8) 0.7189(5) -0.2726(4)
H19A H 0.3005 0.6930 -0.2966
C26A C 0.2569(7) 0.9789(4) -0.3097(4)
H20A H 0.2603 0.9946 -0.3434
C27A C 0.2114(7) 0.7968(4) -0.2027(4)
H21A H 0.1910 0.8223 -0.1772
C28A C 0.2818(7) 0.7815(5) -0.2799(4)
H22A H 0.3091 0.7968 -0.3084
C30A C 0.2467(6) 0.8221(4) -0.2453(4)
C49A C 0.2063(7) 0.7325(4) -0.1976(4)
H39A H 0.1796 0.7164 -0.1693
C50A C 0.2539(7) 0.9947(5) -0.2210(4)
H40A H 0.2553 1.0214 -0.1922
Cu4 Cu 0.26523(9) 0.77928(5) 0.27031(5)
N3 N 0.2608(5) 0.8667(4) 0.2621(3)
N5 N 0.2369(5) 1.1922(3) 0.2341(3)
C1 C 0.2319(7) 0.9560(4) 0.2062(4)
H1 H 0.2151 0.9722 0.1720
C2 C 0.2495(6) 0.9953(4) 0.2496(4)
C23 C 0.2743(7) 0.9672(4) 0.2997(4)
H18 H 0.2878 0.9917 0.3301
C29 C 0.2390(7) 0.8933(4) 0.2133(4)
H23 H 0.2285 0.8680 0.1834
C35 C 0.2789(7) 0.9043(4) 0.3046(4)
H28 H 0.2950 0.8871 0.3384
C37 C 0.2458(6) 1.0629(4) 0.2444(3)
C42 C 0.2183(7) 1.0919(4) 0.1948(4)
H32 H 0.2027 1.0681 0.1642
C43 C 0.2619(7) 1.1642(4) 0.2821(4)
H33 H 0.2763 1.1892 0.3122
C46 C 0.2671(7) 1.1022(4) 0.2891(4)
H36 H 0.2846 1.0857 0.3231
C47 C 0.2144(7) 1.1548(4) 0.1911(4)
H37 H 0.1955 1.1727 0.1578
Cu4A Cu 0.23477(9) 0.27928(5) 0.22969(5)
Cu4A_2 Cu 0.23477(9) 1.27928(5) 0.22969(5)
N3A N 0.2392(5) 0.3667(4) 0.2379(3)
N5A N 0.2631(5) 0.6922(3) 0.2659(3)
N5_2 N 0.2369(5) 0.1922(3) 0.2341(3)
C1A C 0.2681(7) 0.4560(4) 0.2938(4)
H1A H 0.2849 0.4722 0.3280
C2A C 0.2505(6) 0.4953(4) 0.2504(4)
C23A C 0.2257(7) 0.4672(4) 0.2003(4)
H18A H 0.2122 0.4917 0.1699
C29A C 0.2610(7) 0.3933(4) 0.2867(4)
H23A H 0.2715 0.3680 0.3166
C35A C 0.2211(7) 0.4043(4) 0.1954(4)
H28A H 0.2050 0.3871 0.1616
C37A C 0.2542(6) 0.5629(4) 0.2556(3)
C42A C 0.2817(7) 0.5919(4) 0.3052(4)
H32A H 0.2973 0.5681 0.3358
C43A C 0.2381(7) 0.6642(4) 0.2179(4)
H33A H 0.2237 0.6892 0.1878
C46A C 0.2329(7) 0.6022(4) 0.2109(4)
H36A H 0.2154 0.5857 0.1769
C47A C 0.2856(7) 0.6548(4) 0.3089(4)
H37A H 0.3045 0.6727 0.3422
Cu5 Cu -0.44483(13) 0.74910(7) 0.01605(7)
N1 N -0.4621(7) 0.8365(4) 0.0120(4)
N2 N -0.4541(6) 0.6606(4) 0.0119(4)
C4 C -0.4146(9) 0.9393(5) 0.0348(6)
H2 H -0.3697 0.9653 0.0549
C5 C -0.5382(12) 0.8624(7) -0.0205(6)
H3 H -0.5817 0.8362 -0.0414
C6 C -0.5549(12) 0.9227(6) -0.0248(6)
H4 H -0.6109 0.9366 -0.0467
C7 C -0.4923(9) 0.9647(5) 0.0020(5)
C8 C -0.3860(9) 0.6207(5) 0.0269(6)
H5 H -0.3239 0.6348 0.0410
C10 C -0.5599(8) 0.5770(5) -0.0148(6)
H7 H -0.6213 0.5644 -0.0315
C12 C -0.5411(9) 0.6383(6) -0.0084(6)
H9 H -0.5918 0.6660 -0.0186
C13 C -0.4021(9) 0.5591(6) 0.0229(5)
H10 H -0.3503 0.5327 0.0347
C19 C -0.4011(9) 0.8768(6) 0.0389(5)
H16 H -0.3467 0.8620 0.0615
C22 C -0.4914(7) 0.5335(5) 0.0023(4)
Cu5B Cu -0.55517(13) 1.25090(7) -0.01605(7)
Cu5B_2 Cu -0.55517(13) 0.25090(7) -0.01605(7)
N1B N -0.5379(7) 1.1635(4) -0.0120(4)
N2B N -0.5459(6) 0.3394(4) -0.0119(4)
N2B_2 N -0.5459(6) 1.3394(4) -0.0119(4)
C4B C -0.5854(9) 1.0607(5) -0.0348(6)
H2B H -0.6303 1.0347 -0.0549
C5B C -0.4618(12) 1.1376(7) 0.0205(6)
H3B H -0.4183 1.1638 0.0414
C6B C -0.4451(12) 1.0773(6) 0.0248(6)
H4B H -0.3891 1.0634 0.0467
C7B C -0.5077(9) 1.0353(5) -0.0020(5)
C8B C -0.6140(9) 0.3793(5) -0.0269(6)
H5B H -0.6761 0.3652 -0.0410
C10B C -0.4401(8) 0.4230(5) 0.0148(6)
H7B H -0.3787 0.4356 0.0315
C12B C -0.4589(9) 0.3617(6) 0.0084(6)
H9B H -0.4082 0.3340 0.0186
C13B C -0.5979(9) 0.4409(6) -0.0229(5)
H10B H -0.6497 0.4673 -0.0347
C19B C -0.5989(9) 1.1232(6) -0.0389(5)
H16B H -0.6533 1.1380 -0.0615
C22B C -0.5086(7) 0.4665(5) -0.0023(4)
O44 O -0.2441(9) 1.0270(6) 0.0817(5)
loop_
_geom_bond_atom_site_label_1
_geom_bond_atom_site_label_2
_geom_bond_site_symmetry_1
_geom_bond_site_symmetry_2
As1 O2 1_555 1_555
Cu1 N8 1_555 1_555
Cu2 N4 1_555 1_555
Cu3 N6 1_555 1_555
Cu4 N3 1_555 1_555
Cu5 N1 1_555 1_555
Mo1 O15 1_555 1_555
Mo2 O1 1_555 1_555
Mo3 O21 1_555 1_555
Mo4 O2 1_555 1_555
Mo5 O2 1_555 1_555
Mo6 O7 1_555 1_555
Mo7 O2 1_555 1_555
Mo8 O4 1_555 1_555
Mo9 O8 1_555 1_555
Mo10 O12 1_555 1_555
Mo11 O1 1_555 1_555
Mo12 O11 1_555 1_555
V1 O5 1_555 1_555
V2 O18 1_555 1_555
O3 Mo4 1_555 1_555
O6 Mo4 1_555 1_555
O9 Mo2 1_555 1_555
O10 Mo8 1_555 1_555
O13 Mo5 1_555 1_555
O14 As1 1_555 1_555
O15 As1 1_555 1_555
O16 Mo2 1_555 1_555
O17 Mo7 1_555 1_555
O19 Mo6 1_555 1_555
O20 Mo11 1_555 1_555
O21 Mo6 1_555 1_555
O22 Mo3 1_555 1_555
O23 Mo1 1_555 1_555
O24 Mo3 1_555 1_555
O25 Mo1 1_555 1_555
O26 Mo1 1_555 1_555
O27 Mo6 1_555 1_555
O28 Mo2 1_555 1_555
O29 Mo4 1_555 1_555
O30 Mo2 1_555 1_555
O31 Mo1 1_555 1_555
O32 Mo7 1_555 1_555
O33 Mo3 1_555 1_555
O34 As1 1_555 1_555
O35 Mo10 1_555 1_555
O36 Mo3 1_555 1_555
O37 Mo1 1_555 1_555
O38 Mo5 1_555 1_555
O39 Mo5 1_555 1_555
O40 Mo9 1_555 1_555
O41 Mo5 1_555 1_555
O42 Mo4 1_555 1_555
O43 V2 1_555 1_555
N1 C5 1_555 1_555
N2 Cu5 1_555 1_555
N3 C29 1_555 1_555
N4 C11 1_555 1_555
N5 C43 1_555 1_555
N6 C26 1_555 1_555
N7 C24 1_555 1_555
N8 C14 1_555 1_555
N9 Cu1 1_555 1_555
N10 C38 1_555 1_555
C1 H1 1_555 1_555
C2 C1 1_555 1_555
C3 C9 1_555 1_555
C4 H2 1_555 1_555
C5 H3 1_555 1_555
C6 C5 1_555 1_555
H4 C6 1_555 1_555
C7 C4 1_555 1_555
C8 N2 1_555 1_555
H5 C8 1_555 1_555
C9 H6 1_555 1_555
C10 H7 1_555 1_555
C11 H8 1_555 1_555
C12 N2 1_555 1_555
H9 C12 1_555 1_555
C13 C8 1_555 1_555
H10 C13 1_555 1_555
C14 C9 1_555 1_555
H11 C14 1_555 1_555
C15 N9 1_555 1_555
H12 C15 1_555 1_555
C16 H13 1_555 1_555
C17 H14 1_555 1_555
C18 H15 1_555 1_555
C19 N1 1_555 1_555
H16 C19 1_555 1_555
C20 C11 1_555 1_555
H17 C20 1_555 1_555
C21 C17 1_555 1_555
C22 C10 1_555 1_555
C23 C2 1_555 1_555
H18 C23 1_555 1_555
C24 H19 1_555 1_555
C25 C16 1_555 1_555
C26 C18 1_555 1_555
H20 C26 1_555 1_555
C27 H21 1_555 1_555
C28 C24 1_555 1_555
H22 C28 1_555 1_555
C29 C1 1_555 1_555
H23 C29 1_555 1_555
C30 C21 1_555 1_555
C31 H24 1_555 1_555
C32 N8 1_555 1_555
H25 C32 1_555 1_555
C33 C3 1_555 1_555
H26 C33 1_555 1_555
C34 N4 1_555 1_555
H27 C34 1_555 1_555
C35 N3 1_555 1_555
H28 C35 1_555 1_555
C36 N9 1_555 1_555
H29 C36 1_555 1_555
C37 C2 1_555 1_555
C38 H30 1_555 1_555
C39 C3 1_555 1_555
C40 C25 1_555 1_555
H31 C40 1_555 1_555
C41 C25 1_555 1_555
C42 C37 1_555 1_555
H32 C42 1_555 1_555
C43 H33 1_555 1_555
C44 C15 1_555 1_555
H34 C44 1_555 1_555
C45 C34 1_555 1_555
H35 C45 1_555 1_555
C46 C37 1_555 1_555
H36 C46 1_555 1_555
C47 N5 1_555 1_555
H37 C47 1_555 1_555
C48 N10 1_555 1_555
H38 C48 1_555 1_555
C49 N7 1_555 1_555
H39 C49 1_555 1_555
C50 N6 1_555 1_555
H40 C50 1_555 1_555
Cu2_2 N10 1_555 1_555
Cu3A N6A 1_555 1_555
Cu3A_2 N7 1_555 1_555
Cu4A N3A 1_555 1_555
Cu4A_2 N5 1_555 1_555
Cu5B N1B 1_555 1_555
Cu5B_2 N2B 1_555 1_555
N1B C5B 1_555 1_555
N2B C8B 1_555 1_555
N2B_2 Cu5B 1_555 1_555
N3A C29A 1_555 1_555
N5A Cu4 1_555 1_555
N5_2 Cu4A 1_555 1_555
N6A C26A 1_555 1_555
N7A Cu3 1_555 1_555
N7_2 Cu3A 1_555 1_555
N10_2 Cu2 1_555 1_555
C1A H1A 1_555 1_555
C2A C1A 1_555 1_555
C4B H2B 1_555 1_555
C5B H3B 1_555 1_555
C6B C5B 1_555 1_555
H4B C6B 1_555 1_555
C7B C7 1_555 1_555
C8B H5B 1_555 1_555
C10B H7B 1_555 1_555
C12B N2B 1_555 1_555
H9B C12B 1_555 1_555
C13B C8B 1_555 1_555
H10B C13B 1_555 1_555
C17A H14A 1_555 1_555
C18A H15A 1_555 1_555
C19B N1B 1_555 1_555
H16B C19B 1_555 1_555
C21A C17A 1_555 1_555
C22B C22 1_555 1_555
C23A C2A 1_555 1_555
H18A C23A 1_555 1_555
C24A N7A 1_555 1_555
H19A C24A 1_555 1_555
C26A C18A 1_555 1_555
H20A C26A 1_555 1_555
C27A H21A 1_555 1_555
C28A C24A 1_555 1_555
H22A C28A 1_555 1_555
C29A C1A 1_555 1_555
H23A C29A 1_555 1_555
C30A C21A 1_555 1_555
C35A N3A 1_555 1_555
H28A C35A 1_555 1_555
C37A C2A 1_555 1_555
C42A C37A 1_555 1_555
H32A C42A 1_555 1_555
C43A N5A 1_555 1_555
H33A C43A 1_555 1_555
C46A C37A 1_555 1_555
H36A C46A 1_555 1_555
C47A N5A 1_555 1_555
H37A C47A 1_555 1_555
C49A N7A 1_555 1_555
H39A C49A 1_555 1_555
C50A N6A 1_555 1_555
H40A C50A 1_555 1_555
Mo2 O14 1_555 1_555
Mo3 O34 1_555 1_555
Mo4 O30 1_555 1_555
Mo5 O3 1_555 1_555
Mo6 O15 1_555 1_555
Mo6 O26 1_555 1_555
Mo7 O37 1_555 1_555
Mo7 O41 1_555 1_555
Mo7 O42 1_555 1_555
Mo8 O14 1_555 1_555
Mo8 O16 1_555 1_555
Mo8 O19 1_555 1_555
Mo8 O33 1_555 1_555
Mo9 O10 1_555 1_555
Mo9 O14 1_555 1_555
Mo9 O28 1_555 1_555
Mo9 O39 1_555 1_555
Mo10 O22 1_555 1_555
Mo10 O31 1_555 1_555
Mo10 O32 1_555 1_555
Mo10 O34 1_555 1_555
Mo11 O29 1_555 1_555
Mo11 O34 1_555 1_555
Mo11 O35 1_555 1_555
Mo11 O36 1_555 1_555
Mo12 O15 1_555 1_555
Mo12 O23 1_555 1_555
Mo12 O27 1_555 1_555
Mo12 O38 1_555 1_555
Mo12 O40 1_555 1_555
V1 O10 1_555 1_555
V1 O19 1_555 1_555
V1 O27 1_555 1_555
V1 O40 1_555 1_555
V2 O29 1_555 1_555
V2 O32 1_555 1_555
V2 O35 1_555 1_555
V2 O42 1_555 1_555
C4 C19 1_555 1_555
C6 C7 1_555 1_555
C10 C12 1_555 1_555
C13 C22 1_555 1_555
C16 C48 1_555 1_555
C17 C50 1_555 1_555
C18 C21 1_555 1_555
C20 C39 1_555 1_555
C23 C35 1_555 1_555
C27 C30 1_555 1_555
C27 C49 1_555 1_555
C28 C30 1_555 1_555
C31 C36 1_555 1_555
C31 C41 1_555 1_555
C32 C33 1_555 1_555
C38 C40 1_555 1_555
C39 C45 1_555 1_555
C41 C44 1_555 1_555
C42 C47 1_555 1_555
C43 C46 1_555 1_555
C4B C7B 1_555 1_555
C4B C19B 1_555 1_555
C6B C7B 1_555 1_555
C10B C12B 1_555 1_555
C10B C22B 1_555 1_555
C13B C22B 1_555 1_555
C17A C50A 1_555 1_555
C18A C21A 1_555 1_555
C23A C35A 1_555 1_555
C27A C30A 1_555 1_555
C27A C49A 1_555 1_555
C28A C30A 1_555 1_555
C42A C47A 1_555 1_555
C43A C46A 1_555 1_555

#END
