
#######################################################################
#
#                 Cambridge Crystallographic Data Centre
#                                CCDC 
#
#######################################################################
#
# If this CIF has been generated from an entry in the Cambridge 
# Structural Database, then it will include bibliographic, chemical, 
# crystal, experimental, refinement or atomic coordinate data resulting 
# from the CCDC's data processing and validation procedures.
#
#######################################################################

data_RIVFEJ
_symmetry_cell_setting           monoclinic
_symmetry_space_group_name_H-M   'I 2/a'
_symmetry_Int_Tables_number      15
_space_group_name_Hall           '-I 2ya'
loop_
_symmetry_equiv_pos_site_id
_symmetry_equiv_pos_as_xyz
1 x,y,z
2 1/2-x,y,-z
3 1/2+x,1/2+y,1/2+z
4 -x,1/2+y,1/2-z
5 -x,-y,-z
6 1/2+x,-y,z
7 1/2-x,1/2-y,1/2-z
8 x,1/2-y,1/2+z
_cell_length_a                   25.592(18)
_cell_length_b                   7.825(3)
_cell_length_c                   26.830(2)
_cell_angle_alpha                90
_cell_angle_beta                 92.66(2)
_cell_angle_gamma                90
_cell_volume                     5367.12
loop_
_atom_site_label
_atom_site_type_symbol
_atom_site_fract_x
_atom_site_fract_y
_atom_site_fract_z
Ag1 Ag 0.60202(3) -0.03624(13) 0.18553(3)
N1 N 0.6926(3) -0.0002(12) 0.2129(4)
C1 C 0.7270(4) 0.0754(16) 0.1839(4)
C2 C 0.7079(5) 0.1236(18) 0.1325(5)
H1 H 0.7042 0.0226 0.1123
H2 H 0.7326 0.1995 0.1182
H3 H 0.6747 0.1797 0.1339
C3 C 0.7783(5) 0.1042(18) 0.2017(5)
H4 H 0.8028 0.1508 0.1811
C4 C 0.7920(5) 0.0623(17) 0.2507(5)
H5 H 0.8254 0.0859 0.2641
C5 C 0.7559(4) -0.0140(17) 0.2789(5)
H6 H 0.7658 -0.0477 0.3112
C6 C 0.7047(4) -0.0434(16) 0.2612(5)
C7 C 0.6663(4) -0.1315(15) 0.2897(4)
N2 N 0.6150(3) -0.1241(12) 0.2709(3)
C8 C 0.5795(4) -0.2084(14) 0.2941(4)
C9 C 0.5890(5) -0.3037(14) 0.3387(4)
H7 H 0.5627 -0.3616 0.3545
C10 C 0.6414(5) -0.3031(16) 0.3570(4)
H8 H 0.6507 -0.3627 0.3860
C11 C 0.6779(5) -0.2179(16) 0.3331(5)
H9 H 0.7121 -0.2173 0.3463
C12 C 0.5243(4) -0.2000(15) 0.2703(4)
N3 N 0.5241(3) -0.1875(12) 0.2197(3)
C13 C 0.4767(5) -0.1879(15) 0.1967(4)
H10 H 0.4743 -0.1749 0.1622
C14 C 0.4314(4) -0.2065(16) 0.2213(4)
H11 H 0.3999 -0.2127 0.2026
N4 N 0.4302(3) -0.2161(13) 0.2697(3)
C15 C 0.4789(5) -0.2052(14) 0.2938(4)
C16 C 0.4725(4) -0.2156(17) 0.3497(5)
N5 N 0.4503(3) -0.3524(12) 0.3672(3)
C17 C 0.4468(4) -0.3716(16) 0.4160(4)
C18 C 0.4636(5) -0.2400(18) 0.4492(4)
H12 H 0.4583 -0.2481 0.4831
C19 C 0.4879(4) -0.0995(16) 0.4298(4)
H13 H 0.5002 -0.0133 0.4511
C20 C 0.4940(5) -0.0852(17) 0.3804(5)
H14 H 0.5117 0.0068 0.3671
C21 C 0.4245(4) -0.5331(18) 0.4336(4)
N6 N 0.4043(4) -0.6355(14) 0.3969(3)
C22 C 0.3831(5) -0.7871(19) 0.4118(5)
C23 C 0.3597(5) -0.8953(17) 0.3698(5)
H15 H 0.3334 -0.8307 0.3513
H16 H 0.3442 -0.9958 0.3833
H17 H 0.3867 -0.9281 0.3480
C24 C 0.3823(5) -0.8372(19) 0.4618(5)
H18 H 0.3674 -0.9405 0.4709
C25 C 0.4038(6) -0.731(2) 0.4963(5)
H19 H 0.4040 -0.7622 0.5297
C26 C 0.4256(5) -0.5756(19) 0.4838(5)
H20 H 0.4403 -0.5030 0.5080
Ag1C Ag 0.39798(3) -0.53624(13) 0.31447(3)
N5C N 0.5497(3) 0.1476(12) 0.1328(3)
N6C N 0.5957(4) -0.1355(14) 0.1031(3)
S1 S 0.62028(14) 0.2865(5) -0.08250(12)
O1 O 0.5854(4) 0.1458(14) -0.0813(4)
O2 O 0.6445(3) 0.3101(12) -0.1277(3)
O3 O 0.5980(5) 0.4308(15) -0.0603(4)
C27 C 0.6736(5) 0.238(2) -0.0380(5)
F1 F 0.6933(3) 0.0863(13) -0.0480(4)
F2 F 0.6576(3) 0.2244(11) 0.0092(3)
F3 F 0.7097(3) 0.3581(14) -0.0383(3)
loop_
_geom_bond_atom_site_label_1
_geom_bond_atom_site_label_2
_geom_bond_site_symmetry_1
_geom_bond_site_symmetry_2
Ag1 N1 1_555 1_555
N1 C1 1_555 1_555
C1 C2 1_555 1_555
C2 H1 1_555 1_555
H2 C2 1_555 1_555
H3 C2 1_555 1_555
C3 C1 1_555 1_555
H4 C3 1_555 1_555
C4 C3 1_555 1_555
H5 C4 1_555 1_555
C5 C4 1_555 1_555
H6 C5 1_555 1_555
C6 N1 1_555 1_555
C7 C6 1_555 1_555
N2 Ag1 1_555 1_555
C8 N2 1_555 1_555
C9 C8 1_555 1_555
H7 C9 1_555 1_555
C10 C9 1_555 1_555
H8 C10 1_555 1_555
C11 C7 1_555 1_555
H9 C11 1_555 1_555
C12 C8 1_555 1_555
N3 Ag1 1_555 1_555
C13 N3 1_555 1_555
H10 C13 1_555 1_555
C14 C13 1_555 1_555
H11 C14 1_555 1_555
N4 C14 1_555 1_555
C15 C12 1_555 1_555
C16 C15 1_555 1_555
N5 C16 1_555 1_555
C17 N5 1_555 1_555
C18 C17 1_555 1_555
H12 C18 1_555 1_555
C19 C18 1_555 1_555
H13 C19 1_555 1_555
C20 C16 1_555 1_555
H14 C20 1_555 1_555
C21 C17 1_555 1_555
N6 C21 1_555 1_555
C22 N6 1_555 1_555
C23 C22 1_555 1_555
H15 C23 1_555 1_555
H16 C23 1_555 1_555
H17 C23 1_555 1_555
C24 C22 1_555 1_555
H18 C24 1_555 1_555
C25 C24 1_555 1_555
H19 C25 1_555 1_555
C26 C21 1_555 1_555
H20 C26 1_555 1_555
S1 O1 1_555 1_555
O2 S1 1_555 1_555
O3 S1 1_555 1_555
C27 S1 1_555 1_555
F1 C27 1_555 1_555
F2 C27 1_555 1_555
F3 C27 1_555 1_555
Ag1C N5 1_555 1_555
N5C Ag1 1_555 1_555
N6C Ag1 1_555 1_555
C5 C6 1_555 1_555
C7 N2 1_555 1_555
C10 C11 1_555 1_555
C12 N3 1_555 1_555
N4 C15 1_555 1_555
C19 C20 1_555 1_555
N6 Ag1C 1_555 1_555
C25 C26 1_555 1_555

#END
