
#######################################################################
#
#                 Cambridge Crystallographic Data Centre
#                                CCDC 
#
#######################################################################
#
# If this CIF has been generated from an entry in the Cambridge 
# Structural Database, then it will include bibliographic, chemical, 
# crystal, experimental, refinement or atomic coordinate data resulting 
# from the CCDC's data processing and validation procedures.
#
#######################################################################

data_RIVKIR
_symmetry_cell_setting           orthorhombic
_symmetry_space_group_name_H-M   'P c a b'
_symmetry_Int_Tables_number      61
_space_group_name_Hall           '-P 2bc 2ac'
loop_
_symmetry_equiv_pos_site_id
_symmetry_equiv_pos_as_xyz
1 x,y,z
2 -x,1/2-y,1/2+z
3 1/2+x,-y,1/2-z
4 1/2-x,1/2+y,-z
5 -x,-y,-z
6 x,1/2+y,1/2-z
7 1/2-x,y,1/2+z
8 1/2+x,1/2-y,z
_cell_length_a                   10.67100(10)
_cell_length_b                   19.1088(3)
_cell_length_c                   25.0140(4)
_cell_angle_alpha                90
_cell_angle_beta                 90
_cell_angle_gamma                90
_cell_volume                     5100.6
loop_
_atom_site_label
_atom_site_type_symbol
_atom_site_fract_x
_atom_site_fract_y
_atom_site_fract_z
O1 O 0.6157(3) 0.15401(14) 0.35976(12)
Zn1 Zn 0.90081(4) 0.15091(3) 0.36843(2)
Mn1 Mn 0.66597(5) 0.25934(3) 0.37297(2)
C1 C 0.9143(3) 0.24971(19) 0.45076(15)
O2 O 0.7773(2) 0.09010(16) 0.33357(13)
O3 O 0.9969(2) 0.21361(14) 0.31841(10)
O4 O 0.8266(2) 0.21901(13) 0.42385(10)
O5 O 1.0196(3) 0.08377(16) 0.39585(13)
O6 O 1.2030(3) 0.13845(15) 0.39878(13)
O7 O 1.0256(2) 0.24688(16) 0.43727(11)
C2 C 0.9219(3) 0.2576(2) 0.29549(14)
C3 C 0.5770(3) 0.0426(2) 0.32156(15)
C4 C 0.8800(4) 0.2857(2) 0.50162(16)
C5 C 0.9704(4) 0.2978(2) 0.24907(14)
C6 C 0.6617(4) 0.1000(2) 0.33963(15)
C7 C 0.9051(4) 0.3549(2) 0.22963(19)
H1 H 0.8289 0.3679 0.2447
C8 C 0.4532(4) 0.0411(2) 0.33798(18)
H2 H 0.4219 0.0765 0.3597
C9 C 1.1029(4) -0.0269(2) 0.45526(18)
H3 H 1.0243 -0.0297 0.4394
C10 C 1.1321(4) 0.0886(2) 0.41082(16)
C11 C 1.1794(4) 0.0316(2) 0.44593(16)
C12 C 0.8216(6) 0.3516(4) 0.5968(2)
H4 H 0.8020 0.3732 0.6290
C13 C 0.9718(4) 0.3216(3) 0.53046(19)
H5 H 1.0536 0.3237 0.5177
C14 C 0.6196(4) -0.0092(2) 0.28754(19)
H6 H 0.7024 -0.0090 0.2759
C15 C 1.1444(5) -0.0798(2) 0.48780(19)
H7 H 1.0952 -0.1195 0.4925
C16 C 1.0834(4) 0.2781(3) 0.22547(18)
H8 H 1.1280 0.2398 0.2384
C17 C 0.4180(5) -0.0629(3) 0.2883(2)
H9 H 0.3646 -0.0985 0.2769
C18 C 0.7295(5) 0.3176(4) 0.5688(2)
H10 H 0.6479 0.3165 0.5818
C19 C 0.7591(4) 0.2848(3) 0.52106(18)
H11 H 0.6968 0.2619 0.5019
C20 C 0.5396(6) -0.0611(3) 0.2709(2)
H12 H 0.5683 -0.0953 0.2475
C21 C 1.2566(5) -0.0748(3) 0.5133(2)
H13 H 1.2833 -0.1106 0.5358
C22 C 0.9410(6) 0.3541(3) 0.5782(2)
H14 H 1.0022 0.3778 0.5975
C23 C 0.3760(5) -0.0133(3) 0.3218(2)
H15 H 0.2940 -0.0154 0.3344
C24 C 0.9549(6) 0.3922(3) 0.1875(2)
H16 H 0.9129 0.4314 0.1747
C25 C 1.3308(5) -0.0166(3) 0.5057(3)
H17 H 1.4062 -0.0123 0.5240
C26 C 1.0656(7) 0.3723(4) 0.1644(2)
H18 H 1.0977 0.3978 0.1358
C27 C 1.2931(4) 0.0355(3) 0.4708(2)
H19 H 1.3455 0.0734 0.4642
C28 C 1.1281(6) 0.3161(4) 0.1829(2)
H20 H 1.2026 0.3028 0.1666
O8 O 0.8108(2) 0.26546(16) 0.30995(11)
Mn1G Mn 1.16597(5) 0.24066(3) 0.37297(2)
O3G O 0.4969(2) 0.28639(14) 0.31841(10)
O6G O 0.7030(3) 0.36155(15) 0.39878(13)
O7G O 0.5256(2) 0.25312(16) 0.43727(11)
loop_
_geom_bond_atom_site_label_1
_geom_bond_atom_site_label_2
_geom_bond_site_symmetry_1
_geom_bond_site_symmetry_2
O1 Mn1 1_555 1_555
Zn1 O2 1_555 1_555
Mn1 O4 1_555 1_555
C1 O4 1_555 1_555
O2 C6 1_555 1_555
O3 Zn1 1_555 1_555
O4 Zn1 1_555 1_555
O5 Zn1 1_555 1_555
O6 C10 1_555 1_555
O7 C1 1_555 1_555
C2 O3 1_555 1_555
C3 C6 1_555 1_555
C4 C1 1_555 1_555
C5 C2 1_555 1_555
C6 O1 1_555 1_555
C7 C5 1_555 1_555
H1 C7 1_555 1_555
C8 C3 1_555 1_555
H2 C8 1_555 1_555
C9 H3 1_555 1_555
C10 O5 1_555 1_555
C11 C9 1_555 1_555
C12 H4 1_555 1_555
C13 C4 1_555 1_555
H5 C13 1_555 1_555
C14 C3 1_555 1_555
H6 C14 1_555 1_555
C15 C9 1_555 1_555
H7 C15 1_555 1_555
C16 C5 1_555 1_555
H8 C16 1_555 1_555
C17 H9 1_555 1_555
C18 C12 1_555 1_555
H10 C18 1_555 1_555
C19 C4 1_555 1_555
H11 C19 1_555 1_555
C20 C14 1_555 1_555
H12 C20 1_555 1_555
C21 C15 1_555 1_555
H13 C21 1_555 1_555
C22 C12 1_555 1_555
H14 C22 1_555 1_555
C23 C8 1_555 1_555
H15 C23 1_555 1_555
C24 C7 1_555 1_555
H16 C24 1_555 1_555
C25 C21 1_555 1_555
H17 C25 1_555 1_555
C26 C24 1_555 1_555
H18 C26 1_555 1_555
C27 C11 1_555 1_555
H19 C27 1_555 1_555
C28 C16 1_555 1_555
H20 C28 1_555 1_555
O8 Mn1 1_555 1_555
Mn1G O3 1_555 1_555
O3G Mn1 1_555 1_555
O6G Mn1 1_555 1_555
O7G Mn1 1_555 1_555
O6 Mn1G 1_555 1_555
O7 Mn1G 1_555 1_555
C2 O8 1_555 1_555
C10 C11 1_555 1_555
C13 C22 1_555 1_555
C17 C20 1_555 1_555
C17 C23 1_555 1_555
C18 C19 1_555 1_555
C25 C27 1_555 1_555
C26 C28 1_555 1_555

#END
