
#######################################################################
#
#                 Cambridge Crystallographic Data Centre
#                                CCDC 
#
#######################################################################
#
# If this CIF has been generated from an entry in the Cambridge 
# Structural Database, then it will include bibliographic, chemical, 
# crystal, experimental, refinement or atomic coordinate data resulting 
# from the CCDC's data processing and validation procedures.
#
#######################################################################

data_RIVRIY
_symmetry_cell_setting           triclinic
_symmetry_space_group_name_H-M   'P -1'
_symmetry_Int_Tables_number      2
_space_group_name_Hall           '-P 1'
loop_
_symmetry_equiv_pos_site_id
_symmetry_equiv_pos_as_xyz
1 x,y,z
2 -x,-y,-z
_cell_length_a                   5.3624(3)
_cell_length_b                   8.7691(4)
_cell_length_c                   16.3026(8)
_cell_angle_alpha                81.5330(10)
_cell_angle_beta                 83.9510(10)
_cell_angle_gamma                87.1530(10)
_cell_volume                     753.572
loop_
_atom_site_label
_atom_site_type_symbol
_atom_site_fract_x
_atom_site_fract_y
_atom_site_fract_z
Pb1 Pb 0.78589(7) 0.80345(5) 0.04945(3)
Pb2 Pb 0.69323(7) 1.27002(4) 0.12699(2)
P1 P 1.2644(5) 0.5383(3) 0.09757(18)
P2 P 1.1746(5) 1.0192(3) 0.15723(17)
N1 N 0.9762(13) 0.7239(8) 0.1971(5)
O1 O 1.0484(12) 1.1142(8) 0.2217(4)
H1 H 1.1360 1.1105 0.2603
O2 O 1.1775(12) 0.6709(7) 0.0309(4)
O3 O 1.0120(11) 1.0363(8) 0.0839(4)
O4 O 1.5357(11) 0.5600(7) 0.1137(4)
O5 O 1.2333(13) 0.3781(7) 0.0792(4)
O6 O 1.4486(12) 1.0533(8) 0.1281(5)
O7 O 0.7541(17) 0.8610(11) 0.6493(5)
O8 O 0.4845(15) 0.6931(10) 0.7166(5)
C1 C 1.0673(18) 0.5610(10) 0.1940(6)
H2 H 0.9240 0.4958 0.1989
H3 H 1.1625 0.5267 0.2411
C2 C 0.7742(17) 0.7389(12) 0.2659(6)
H4 H 0.6427 0.6696 0.2612
H5 H 0.7027 0.8431 0.2575
C3 C 1.1918(17) 0.8170(12) 0.2007(6)
H6 H 1.3371 0.7698 0.1723
H7 H 1.2224 0.8107 0.2587
C4 C 0.849(2) 0.7062(14) 0.3528(6)
H8 H 0.9803 0.7745 0.3590
H9 H 0.9141 0.6008 0.3634
C5 C 0.621(2) 0.7300(14) 0.4162(7)
H10 H 0.5363 0.8280 0.3990
H11 H 0.5035 0.6490 0.4172
C6 C 0.700(2) 0.7279(16) 0.5032(7)
H12 H 0.8228 0.8067 0.5009
H13 H 0.7828 0.6289 0.5200
C7 C 0.487(2) 0.7549(15) 0.5696(7)
H14 H 0.3952 0.8493 0.5505
H15 H 0.3727 0.6708 0.5756
C8 C 0.569(2) 0.7668(14) 0.6532(8)
Pb1A Pb 1.21411(7) 1.19655(5) -0.04945(3)
Pb1_2 Pb 1.78589(7) 0.80345(5) 0.04945(3)
Pb2A Pb 1.30677(7) 0.72998(4) -0.12699(2)
Pb2_2 Pb 1.69323(7) 0.27002(4) 0.12699(2)
Pb2_3 Pb 1.69323(7) 1.27002(4) 0.12699(2)
Pb2A_2 Pb 0.30677(7) 0.72998(4) 0.87301(2)
O2A O 0.8225(12) 1.3291(7) -0.0309(4)
O3A O 0.9880(11) 0.9637(8) -0.0839(4)
O4_2 O 0.5357(11) 0.5600(7) 0.1137(4)
O4_3 O 0.5357(11) 1.5600(7) 0.1137(4)
O5_2 O 0.2333(13) 1.3781(7) 0.0792(4)
O6_2 O 0.4486(12) 1.0533(8) 0.1281(5)
O8A O 0.5155(15) 1.3069(10) 0.2834(5)
loop_
_geom_bond_atom_site_label_1
_geom_bond_atom_site_label_2
_geom_bond_site_symmetry_1
_geom_bond_site_symmetry_2
Pb1 N1 1_555 1_555
Pb2 O1 1_555 1_555
P1 O2 1_555 1_555
P2 O1 1_555 1_555
N1 C1 1_555 1_555
O1 H1 1_555 1_555
O2 Pb1 1_555 1_555
O3 Pb1 1_555 1_555
O4 P1 1_555 1_555
O5 P1 1_555 1_555
O6 P2 1_555 1_555
O7 C8 1_555 1_555
O8 C8 1_555 1_555
C1 P1 1_555 1_555
H2 C1 1_555 1_555
H3 C1 1_555 1_555
C2 N1 1_555 1_555
H4 C2 1_555 1_555
H5 C2 1_555 1_555
C3 P2 1_555 1_555
H6 C3 1_555 1_555
H7 C3 1_555 1_555
C4 C2 1_555 1_555
H8 C4 1_555 1_555
H9 C4 1_555 1_555
C5 C4 1_555 1_555
H10 C5 1_555 1_555
H11 C5 1_555 1_555
C6 C5 1_555 1_555
H12 C6 1_555 1_555
H13 C6 1_555 1_555
C7 C6 1_555 1_555
H14 C7 1_555 1_555
H15 C7 1_555 1_555
C8 C7 1_555 1_555
Pb1A O3 1_555 1_555
Pb1_2 O4 1_555 1_555
Pb2A O2 1_555 1_555
Pb2_2 O4 1_555 1_555
Pb2_3 O6 1_555 1_555
Pb2A_2 O8 1_555 1_555
O2A Pb2 1_555 1_555
O3A Pb1 1_555 1_555
O4_2 Pb1 1_555 1_555
O4_3 Pb2 1_555 1_555
O5_2 Pb2 1_555 1_555
O6_2 Pb2 1_555 1_555
O8A Pb2 1_555 1_555
Pb2 O3 1_555 1_555
P2 O3 1_555 1_555
N1 C3 1_555 1_555
O5 Pb2_2 1_555 1_555
Pb1A O2A 1_555 1_555
Pb1A O3A 1_555 1_555
Pb2A O3A 1_555 1_555

#END
