
#######################################################################
#
#                 Cambridge Crystallographic Data Centre
#                                CCDC 
#
#######################################################################
#
# If this CIF has been generated from an entry in the Cambridge 
# Structural Database, then it will include bibliographic, chemical, 
# crystal, experimental, refinement or atomic coordinate data resulting 
# from the CCDC's data processing and validation procedures.
#
#######################################################################

data_RIVREU
_symmetry_cell_setting           triclinic
_symmetry_space_group_name_H-M   'P -1'
_symmetry_Int_Tables_number      2
_space_group_name_Hall           '-P 1'
loop_
_symmetry_equiv_pos_site_id
_symmetry_equiv_pos_as_xyz
1 x,y,z
2 -x,-y,-z
_cell_length_a                   6.9520(6)
_cell_length_b                   7.1068(6)
_cell_length_c                   14.7706(13)
_cell_angle_alpha                84.732(2)
_cell_angle_beta                 80.9190(10)
_cell_angle_gamma                89.480(2)
_cell_volume                     717.562
loop_
_atom_site_label
_atom_site_type_symbol
_atom_site_fract_x
_atom_site_fract_y
_atom_site_fract_z
Pb1 Pb 0.42310(6) 0.62822(6) 0.11645(3)
Pb2 Pb 0.85516(6) -0.14277(6) -0.06994(3)
P1 P 0.6169(4) 0.1552(4) 0.1014(2)
P2 P 0.9189(4) 0.6324(4) 0.1482(2)
N1 N 0.6045(15) 0.4065(13) 0.2420(7)
C1 C 0.4600(17) 0.3746(17) 0.3285(9)
H1 H 0.4196 0.4996 0.3471
C2 C 0.5418(19) 0.268(2) 0.4105(9)
H2 H 0.5801 0.1418 0.3956
H3 H 0.6561 0.3340 0.4218
C3 C 0.386(2) 0.257(2) 0.4976(11)
H4 H 0.4366 0.1883 0.5483
H5 H 0.3527 0.3836 0.5144
C4 C 0.205(2) 0.159(3) 0.4803(12)
H6 H 0.1067 0.1560 0.5349
H7 H 0.2362 0.0293 0.4680
C5 C 0.124(2) 0.259(2) 0.3989(12)
H8 H 0.0811 0.3847 0.4136
H9 H 0.0125 0.1899 0.3874
C6 C 0.279(2) 0.276(2) 0.3117(11)
H10 H 0.3125 0.1507 0.2933
H11 H 0.2258 0.3464 0.2619
C7 C 0.6885(17) 0.2312(16) 0.2064(9)
H12 H 0.6567 0.1293 0.2548
H13 H 0.8291 0.2455 0.1958
C8 C 0.7546(16) 0.5447(16) 0.2523(8)
H14 H 0.8330 0.4875 0.2962
H15 H 0.6893 0.6524 0.2791
O1 O 0.8063(12) 0.1123(11) 0.0361(6)
O2 O 0.4796(12) -0.0121(11) 0.1258(7)
O3 O 0.5075(12) 0.3225(10) 0.0561(6)
O4 O 1.0121(13) 0.8117(12) 0.1697(6)
O5 O 1.0679(12) 0.4790(12) 0.1230(6)
O6 O 0.7825(11) 0.6709(12) 0.0751(6)
Pb1_2 Pb 0.42310(6) -0.37178(6) 0.11645(3)
Pb1A Pb 0.57690(6) 0.37178(6) -0.11645(3)
Pb1_3 Pb 1.42310(6) 0.62822(6) 0.11645(3)
Pb2A Pb 1.14484(6) 0.14277(6) 0.06994(3)
Pb2A_2 Pb 1.14484(6) 1.14277(6) 0.06994(3)
Pb2_2 Pb 0.85516(6) 0.85723(6) -0.06994(3)
O1A O 1.1937(12) -0.1123(11) -0.0361(6)
O2_2 O 0.4796(12) 0.9879(11) 0.1258(7)
O3A O 0.4925(12) 0.6775(10) -0.0561(6)
O4A O 0.9879(13) 0.1883(12) -0.1697(6)
O5_2 O 0.0679(12) 0.4790(12) 0.1230(6)
O5A O 0.9321(12) -0.4790(12) -0.1230(6)
O6_2 O 0.7825(11) -0.3291(12) 0.0751(6)
O7 O 0.235(3) 0.786(3) 0.3058(13)
loop_
_geom_bond_atom_site_label_1
_geom_bond_atom_site_label_2
_geom_bond_site_symmetry_1
_geom_bond_site_symmetry_2
Pb1 N1 1_555 1_555
Pb2 O1 1_555 1_555
P1 C7 1_555 1_555
P2 C8 1_555 1_555
N1 C1 1_555 1_555
C1 H1 1_555 1_555
C2 C1 1_555 1_555
H2 C2 1_555 1_555
H3 C2 1_555 1_555
C3 C2 1_555 1_555
H4 C3 1_555 1_555
H5 C3 1_555 1_555
C4 C3 1_555 1_555
H6 C4 1_555 1_555
H7 C4 1_555 1_555
C5 C4 1_555 1_555
H8 C5 1_555 1_555
H9 C5 1_555 1_555
C6 C1 1_555 1_555
H10 C6 1_555 1_555
H11 C6 1_555 1_555
C7 N1 1_555 1_555
H12 C7 1_555 1_555
H13 C7 1_555 1_555
C8 N1 1_555 1_555
H14 C8 1_555 1_555
H15 C8 1_555 1_555
O1 P1 1_555 1_555
O2 P1 1_555 1_555
O3 Pb1 1_555 1_555
O4 P2 1_555 1_555
O5 P2 1_555 1_555
O6 Pb1 1_555 1_555
Pb1_2 O2 1_555 1_555
Pb1A O3 1_555 1_555
Pb1_3 O5 1_555 1_555
Pb2A O1 1_555 1_555
Pb2A_2 O4 1_555 1_555
Pb2_2 O6 1_555 1_555
O1A Pb2 1_555 1_555
O2_2 Pb1 1_555 1_555
O3A Pb1 1_555 1_555
O4A Pb2 1_555 1_555
O5_2 Pb1 1_555 1_555
O5A Pb2 1_555 1_555
O6_2 Pb2 1_555 1_555
P1 O3 1_555 1_555
P2 O6 1_555 1_555
C5 C6 1_555 1_555
O5 Pb2A 1_555 1_555
Pb1_2 O6_2 1_555 1_555
Pb1A O3A 1_555 1_555
Pb2A O1A 1_555 1_555

#END
