
#######################################################################
#
#                 Cambridge Crystallographic Data Centre
#                                CCDC 
#
#######################################################################
#
# If this CIF has been generated from an entry in the Cambridge 
# Structural Database, then it will include bibliographic, chemical, 
# crystal, experimental, refinement or atomic coordinate data resulting 
# from the CCDC's data processing and validation procedures.
#
#######################################################################

data_RIVSUL
_symmetry_cell_setting           triclinic
_symmetry_space_group_name_H-M   'P -1'
_symmetry_Int_Tables_number      2
_space_group_name_Hall           '-P 1'
loop_
_symmetry_equiv_pos_site_id
_symmetry_equiv_pos_as_xyz
1 x,y,z
2 -x,-y,-z
_cell_length_a                   8.0134(9)
_cell_length_b                   9.4793(10)
_cell_length_c                   12.6667(14)
_cell_angle_alpha                76.637(2)
_cell_angle_beta                 85.157(2)
_cell_angle_gamma                83.073(2)
_cell_volume                     927.702
loop_
_atom_site_label
_atom_site_type_symbol
_atom_site_fract_x
_atom_site_fract_y
_atom_site_fract_z
Eu1 Eu 0.14520(3) 0.30269(3) 0.02179(2)
Eu2 Eu 0.64453(3) 0.38062(3) -0.09173(2)
O1 O 0.1976(5) 0.4107(5) -0.1673(4)
O2 O 0.4357(6) 0.5137(5) -0.2182(4)
O3 O -0.0538(5) 0.6602(4) -0.1948(3)
O4 O -0.1883(5) 0.4981(5) -0.2464(4)
O5 O -0.3083(5) 0.1818(4) 0.0643(4)
O6 O -0.0344(5) 0.1052(4) 0.0851(4)
O7 O -0.2972(5) -0.1270(4) 0.0637(4)
O8 O -0.5340(6) -0.1959(5) 0.1566(4)
O9 O 0.2865(6) 0.1088(5) 0.1659(4)
H1 H 0.3352 0.1393 0.2121
H2 H 0.3181 0.0219 0.1596
O10 O 0.4119(4) 0.3783(4) 0.0451(3)
H3 H 0.4536 0.3113 0.1109
O11 O -0.1352(5) 0.4287(4) 0.0007(3)
H4 H -0.1821 0.4020 0.0758
O12 O 0.9014(7) 0.2132(5) -0.1448(5)
H5 H 0.9081 0.1237 -0.1131
H6 H 0.9229 0.2336 -0.2131
N1 N 0.2768(9) 0.6478(7) -0.5355(5)
N2 N -0.3504(8) -0.1159(6) 0.4335(5)
C1 C 0.2903(7) 0.4903(6) -0.2352(5)
C2 C 0.2206(7) 0.5593(6) -0.3431(5)
C3 C 0.3293(8) 0.5883(7) -0.4357(6)
H7 H 0.4443 0.5652 -0.4278
C4 C 0.1081(10) 0.6809(8) -0.5453(6)
H8 H 0.0691 0.7235 -0.6137
C5 C -0.0055(9) 0.6543(7) -0.4595(5)
H9 H -0.1200 0.6768 -0.4699
C6 C 0.0498(7) 0.5928(6) -0.3549(5)
C7 C -0.0749(7) 0.5806(6) -0.2564(5)
C8 C -0.1879(7) 0.1075(6) 0.1152(5)
C9 C -0.2358(7) 0.0183(6) 0.2262(5)
C10 C -0.1793(9) 0.0534(7) 0.3160(6)
H10 H -0.1022 0.1216 0.3082
C11 C -0.2402(10) -0.0152(8) 0.4173(6)
H11 H -0.2033 0.0092 0.4778
C12 C -0.4010(8) -0.1503(7) 0.3464(6)
H12 H -0.4762 -0.2204 0.3568
C13 C -0.3470(7) -0.0868(6) 0.2395(5)
C14 C -0.3961(7) -0.1399(6) 0.1467(5)
Eu1A Eu -0.14520(3) 0.69731(3) -0.02179(2)
Eu1A_2 Eu -0.14520(3) -0.30269(3) -0.02179(2)
Eu2_2 Eu -0.35547(3) 0.38062(3) -0.09173(2)
Eu2A Eu -0.64453(3) -0.38062(3) 0.09173(2)
Eu2A_2 Eu 0.35547(3) 0.61938(3) 0.09173(2)
O3A O 0.0538(5) 0.3398(4) 0.1948(3)
O4_2 O 0.8117(5) 0.4981(5) -0.2464(4)
O5_2 O 0.6917(5) 0.1818(4) 0.0643(4)
O7A O 0.2972(5) 0.1270(4) -0.0637(4)
O8A O 0.5340(6) 0.1959(5) -0.1566(4)
O10A O 0.5881(4) 0.6217(4) -0.0451(3)
H3A H 0.5464 0.6887 -0.1109
O11A O 0.1352(5) 0.5713(4) -0.0007(3)
O11_2 O 0.8648(5) 0.4287(4) 0.0007(3)
H4A H 0.1821 0.5980 -0.0758
H4_2 H 0.8179 0.4020 0.0758
O13 O 0.5968(7) 0.7964(6) -0.3324(5)
H13 H 0.6146 0.7901 -0.3982
H14 H 0.5565 0.7258 -0.2877
loop_
_geom_bond_atom_site_label_1
_geom_bond_atom_site_label_2
_geom_bond_site_symmetry_1
_geom_bond_site_symmetry_2
Eu1 O1 1_555 1_555
Eu2 O2 1_555 1_555
O1 C1 1_555 1_555
O2 C1 1_555 1_555
O3 C7 1_555 1_555
O4 C7 1_555 1_555
O5 C8 1_555 1_555
O6 Eu1 1_555 1_555
O7 C14 1_555 1_555
O8 C14 1_555 1_555
O9 Eu1 1_555 1_555
H1 O9 1_555 1_555
H2 O9 1_555 1_555
O10 Eu1 1_555 1_555
H3 O10 1_555 1_555
O11 Eu1 1_555 1_555
H4 O11 1_555 1_555
O12 Eu2 1_555 1_555
H5 O12 1_555 1_555
H6 O12 1_555 1_555
N1 C3 1_555 1_555
N2 C11 1_555 1_555
C1 C2 1_555 1_555
C2 C3 1_555 1_555
C3 H7 1_555 1_555
C4 N1 1_555 1_555
H8 C4 1_555 1_555
C5 C4 1_555 1_555
H9 C5 1_555 1_555
C6 C2 1_555 1_555
C7 C6 1_555 1_555
C8 O6 1_555 1_555
C9 C8 1_555 1_555
C10 C9 1_555 1_555
H10 C10 1_555 1_555
C11 C10 1_555 1_555
H11 C11 1_555 1_555
C12 N2 1_555 1_555
H12 C12 1_555 1_555
C13 C9 1_555 1_555
C14 C13 1_555 1_555
O13 H13 1_555 1_555
H14 O13 1_555 1_555
Eu1A O3 1_555 1_555
Eu1A_2 O7 1_555 1_555
Eu2_2 O4 1_555 1_555
Eu2A O8 1_555 1_555
Eu2A_2 O10 1_555 1_555
O3A Eu1 1_555 1_555
O4_2 Eu2 1_555 1_555
O5_2 Eu2 1_555 1_555
O7A Eu1 1_555 1_555
O8A Eu2 1_555 1_555
O10A Eu2 1_555 1_555
H3A O10A 1_555 1_555
O11A Eu1 1_555 1_555
O11_2 Eu2 1_555 1_555
H4A O11A 1_555 1_555
H4_2 O11_2 1_555 1_555
Eu2 O10 1_555 1_555
O5 Eu2_2 1_555 1_555
O11 Eu1A 1_555 1_555
O11 Eu2_2 1_555 1_555
C5 C6 1_555 1_555
C12 C13 1_555 1_555
Eu1A O11A 1_555 1_555
Eu2A_2 O10A 1_555 1_555
Eu2A_2 O11A 1_555 1_555

#END
