
#######################################################################
#
#                 Cambridge Crystallographic Data Centre
#                                CCDC 
#
#######################################################################
#
# If this CIF has been generated from an entry in the Cambridge 
# Structural Database, then it will include bibliographic, chemical, 
# crystal, experimental, refinement or atomic coordinate data resulting 
# from the CCDC's data processing and validation procedures.
#
#######################################################################

data_RIVTIA
_symmetry_cell_setting           monoclinic
_symmetry_space_group_name_H-M   'C 2/c'
_symmetry_Int_Tables_number      15
_space_group_name_Hall           '-C 2yn'
loop_
_symmetry_equiv_pos_site_id
_symmetry_equiv_pos_as_xyz
1 x,y,z
2 1/2+x,1/2+y,z
3 -x,y,1/2-z
4 1/2-x,1/2+y,1/2-z
5 -x,-y,-z
6 1/2-x,1/2-y,-z
7 x,-y,1/2+z
8 1/2+x,1/2-y,1/2+z
_cell_length_a                   21.992(3)
_cell_length_b                   10.3805(14)
_cell_length_c                   14.990(2)
_cell_angle_alpha                90
_cell_angle_beta                 131.230(2)
_cell_angle_gamma                90
_cell_volume                     2573.61
loop_
_atom_site_label
_atom_site_type_symbol
_atom_site_fract_x
_atom_site_fract_y
_atom_site_fract_z
Ag1 Ag 0.086649(17) 0.43187(3) 0.13219(2)
N1 N 0.17250(19) 0.2484(3) 0.2037(3)
N2 N 0.3058(2) 0.1107(3) 0.2724(3)
C1 C 0.2460(2) 0.2632(4) 0.3098(3)
H1 H 0.2526 0.3214 0.3628
C2 C 0.3127(2) 0.1960(3) 0.3445(3)
C3 C 0.2319(3) 0.0945(4) 0.1665(4)
H2 H 0.2251 0.0357 0.1137
C4 C 0.1655(2) 0.1616(4) 0.1326(3)
H3 H 0.1150 0.1458 0.0588
N3 N 0.4005(2) 0.0459(3) 0.6964(3)
N4 N 0.41222(19) -0.0098(3) 0.5268(3)
C5 C 0.4045(2) 0.1120(3) 0.5481(3)
C6 C 0.4115(3) -0.1023(4) 0.5872(4)
H4 H 0.4157 -0.1877 0.5731
C7 C 0.4046(3) -0.0751(4) 0.6706(4)
H5 H 0.4028 -0.1427 0.7096
C8 C 0.4003(2) 0.1392(4) 0.6342(3)
H6 H 0.3973 0.2247 0.6495
C9 C 0.3957(2) 0.2153(3) 0.4674(3)
O1 O 0.45809(14) 0.1948(2) 0.4657(2)
H7 H 0.4572 0.2521 0.4272
O2 O 0.39600(15) 0.3383(2) 0.5031(2)
H8 H 0.4422 0.3580 0.5620
Ag1C Ag 0.413351(17) -0.06813(3) 0.36781(2)
Ag1E Ag 0.413351(17) 0.06813(3) 0.86781(2)
Ag1G Ag 0.586649(17) 0.06813(3) 0.63219(2)
N2C N 0.1942(2) 0.6107(3) 0.2276(3)
N3E N 0.0995(2) 0.4541(3) 0.3036(3)
N4C N 0.08778(19) 0.4902(3) -0.0268(3)
O1G O -0.04191(14) 0.3052(2) -0.0343(2)
H7G H -0.0428 0.2479 -0.0728
C10 C 0.0660(2) -0.0287(4) 0.2132(4)
C11 C 0.1525(3) -0.0499(4) 0.3316(4)
O3 O 0.0327(2) -0.1291(3) 0.1547(3)
O4 O 0.04248(19) 0.0837(3) 0.1941(3)
F1 F 0.1569(2) -0.1358(4) 0.3995(3)
F2 F 0.2018(2) -0.0886(4) 0.3150(3)
F3 F 0.18899(17) 0.0538(3) 0.3993(3)
loop_
_geom_bond_atom_site_label_1
_geom_bond_atom_site_label_2
_geom_bond_site_symmetry_1
_geom_bond_site_symmetry_2
Ag1 N1 1_555 1_555
N1 C1 1_555 1_555
N2 C2 1_555 1_555
C1 H1 1_555 1_555
C2 C1 1_555 1_555
C3 N2 1_555 1_555
H2 C3 1_555 1_555
C4 N1 1_555 1_555
H3 C4 1_555 1_555
N3 C7 1_555 1_555
N4 C5 1_555 1_555
C5 C8 1_555 1_555
C6 N4 1_555 1_555
H4 C6 1_555 1_555
C7 C6 1_555 1_555
H5 C7 1_555 1_555
C8 N3 1_555 1_555
H6 C8 1_555 1_555
C9 C2 1_555 1_555
O1 C9 1_555 1_555
H7 O1 1_555 1_555
O2 C9 1_555 1_555
H8 O2 1_555 1_555
C10 C11 1_555 1_555
C11 F1 1_555 1_555
O3 C10 1_555 1_555
O4 C10 1_555 1_555
F2 C11 1_555 1_555
F3 C11 1_555 1_555
Ag1C N2 1_555 1_555
Ag1E N3 1_555 1_555
Ag1G O1 1_555 1_555
N2C Ag1 1_555 1_555
N3E Ag1 1_555 1_555
N4C Ag1 1_555 1_555
O1G Ag1 1_555 1_555
H7G O1G 1_555 1_555
C3 C4 1_555 1_555
N4 Ag1C 1_555 1_555
C5 C9 1_555 1_555

#END
