
#######################################################################
#
#                 Cambridge Crystallographic Data Centre
#                                CCDC 
#
#######################################################################
#
# If this CIF has been generated from an entry in the Cambridge 
# Structural Database, then it will include bibliographic, chemical, 
# crystal, experimental, refinement or atomic coordinate data resulting 
# from the CCDC's data processing and validation procedures.
#
#######################################################################

data_RIVTOG
_symmetry_cell_setting           monoclinic
_symmetry_space_group_name_H-M   'P 21/c'
_symmetry_Int_Tables_number      14
_space_group_name_Hall           '-P 2ybc'
loop_
_symmetry_equiv_pos_site_id
_symmetry_equiv_pos_as_xyz
1 x,y,z
2 -x,1/2+y,1/2-z
3 -x,-y,-z
4 x,1/2-y,1/2+z
_cell_length_a                   18.9878(3)
_cell_length_b                   8.10050(10)
_cell_length_c                   36.1155(7)
_cell_angle_alpha                90
_cell_angle_beta                 98.9130(10)
_cell_angle_gamma                90
_cell_volume                     5487.87
loop_
_atom_site_label
_atom_site_type_symbol
_atom_site_fract_x
_atom_site_fract_y
_atom_site_fract_z
Ag1 Ag 0.41693(3) -0.05083(8) 0.01174(2)
Cl9 Cl 0.17515(13) -0.3128(3) 0.01574(8)
Cl10 Cl 0.02040(12) -0.2584(3) 0.03256(9)
Cl11 Cl -0.02216(13) 0.0766(3) 0.06374(9)
Cl12 Cl 0.08645(15) 0.3643(3) 0.07430(9)
O12 O 0.2500(5) 0.3531(12) 0.0868(3)
O13 O 0.2533(5) 0.3515(9) 0.0278(3)
O14 O 0.3195(4) -0.0503(11) 0.0603(2)
O15 O 0.2937(3) -0.0146(8) 0.0014(2)
N5 N 0.5024(3) -0.2357(8) 0.02747(18)
N6 N 0.5676(3) -0.2037(7) 0.01638(19)
C33 C 0.2337(5) 0.2896(12) 0.0547(4)
C34 C 0.1805(4) 0.1532(9) 0.0509(2)
C35 C 0.1111(4) 0.1745(9) 0.0580(2)
C36 C 0.0623(4) 0.0505(10) 0.0528(3)
C37 C 0.0807(4) -0.1007(10) 0.0390(2)
C38 C 0.1495(4) -0.1243(9) 0.0310(2)
C39 C 0.1999(4) 0.0026(9) 0.0373(2)
C40 C 0.2770(4) -0.0245(9) 0.0320(3)
C41 C 0.4934(4) -0.3751(9) 0.0433(2)
H13 H 0.4496 -0.3937 0.0510
C42 C 0.5451(4) -0.5019(8) 0.0498(2)
C43 C 0.5328(5) -0.6550(10) 0.0667(2)
H14 H 0.4898 -0.6771 0.0749
C44 C 0.5853(7) -0.7665(12) 0.0703(3)
H15 H 0.5778 -0.8676 0.0813
C45 C 0.6172(4) -0.3124(9) 0.0214(2)
H16 H 0.6606 -0.2867 0.0139
C46 C 0.6098(4) -0.4684(9) 0.0375(2)
C47 C 0.6632(5) -0.5921(11) 0.0420(2)
H17 H 0.7067 -0.5743 0.0338
C48 C 0.6496(6) -0.7390(12) 0.0586(3)
H18 H 0.6844 -0.8206 0.0619
Ag1B Ag 0.58307(3) 0.05083(8) -0.01174(2)
N6B N 0.4324(3) 0.2037(7) -0.01638(19)
Ag2 Ag 0.84738(4) 1.03072(8) 0.27998(2)
Ag3 Ag 0.69083(4) 0.99330(8) 0.30430(2)
Cl1 Cl 0.35357(13) 1.3308(3) 0.37955(7)
Cl2 Cl 0.25635(12) 1.0286(3) 0.36292(7)
Cl3 Cl 0.30930(12) 0.7183(2) 0.32650(7)
Cl4 Cl 0.46222(12) 0.7075(3) 0.30597(8)
Cl5 Cl 0.82468(13) 1.0961(2) 0.12626(7)
Cl6 Cl 0.80817(13) 0.8528(3) 0.05978(6)
Cl7 Cl 0.87913(17) 0.5066(3) 0.06969(9)
Cl8 Cl 0.96177(17) 0.4037(3) 0.14623(12)
O1 O 0.5083(5) 1.3850(13) 0.3851(3)
O2 O 0.5354(6) 1.3463(12) 0.3290(3)
O5 O 0.6012(4) 0.9580(9) 0.3488(2)
O6 O 0.5608(4) 1.0335(8) 0.2922(2)
O7 O 0.8586(4) 1.0051(9) 0.21524(19)
O8 O 0.9717(4) 1.0358(8) 0.20844(17)
O9 O 0.9473(5) 0.6426(10) 0.2344(2)
O10 O 1.0426(9) 0.674(2) 0.2114(5)
N1 N 0.8338(3) 0.8015(8) 0.31501(18)
N2 N 0.7649(3) 0.7900(8) 0.32325(19)
N3 N 0.7080(3) 1.2382(7) 0.27758(18)
N4 N 0.7753(3) 1.2603(8) 0.26865(18)
C1 C 0.5061(5) 1.2974(10) 0.3580(3)
C2 C 0.4558(4) 1.1565(8) 0.3515(2)
C3 C 0.3868(4) 1.1588(8) 0.3604(2)
C4 C 0.3421(4) 1.0238(9) 0.3530(2)
C5 C 0.3657(4) 0.8840(8) 0.3362(2)
C6 C 0.4335(4) 0.8800(8) 0.3275(2)
C7 C 0.4797(4) 1.0125(9) 0.3354(2)
C8 C 0.5537(5) 1.0007(10) 0.3247(3)
C9 C 0.9095(6) 0.9775(11) 0.1997(3)
C10 C 0.9003(4) 0.8600(8) 0.1664(2)
C11 C 0.8631(4) 0.9017(8) 0.1322(2)
C12 C 0.8565(4) 0.7948(9) 0.1019(2)
C13 C 0.8885(4) 0.6419(10) 0.1072(3)
C14 C 0.9250(5) 0.5973(10) 0.1403(3)
C15 C 0.9313(4) 0.7054(10) 0.1702(2)
C16 C 0.9767(7) 0.6566(13) 0.2080(4)
C17 C 0.8776(4) 0.6776(10) 0.3243(2)
H1 H 0.9237 0.6882 0.3187
C18 C 0.8616(4) 0.5333(9) 0.3414(2)
C19 C 0.9089(5) 0.4017(13) 0.3494(3)
H2 H 0.9550 0.4092 0.3439
C20 C 0.8870(6) 0.2617(13) 0.3653(3)
H3 H 0.9185 0.1742 0.3711
C21 C 0.8170(6) 0.2498(11) 0.3731(2)
H4 H 0.8025 0.1529 0.3835
C22 C 0.7702(5) 0.3755(11) 0.3658(2)
H5 H 0.7242 0.3661 0.3715
C23 C 0.7920(4) 0.5207(9) 0.3497(2)
C24 C 0.7454(4) 0.6555(10) 0.3397(2)
H6 H 0.6991 0.6491 0.3450
C25 C 0.6617(5) 1.3531(11) 0.2722(2)
H7 H 0.6176 1.3340 0.2795
C26 C 0.6729(5) 1.5086(9) 0.2557(2)
C27 C 0.6234(5) 1.6363(11) 0.2490(3)
H8 H 0.5778 1.6226 0.2549
C28 C 0.6417(6) 1.7826(11) 0.2336(3)
H9 H 0.6086 1.8677 0.2293
C29 C 0.7092(7) 1.8033(12) 0.2245(3)
H10 H 0.7206 1.9030 0.2141
C30 C 0.7594(5) 1.6829(11) 0.2303(3)
H11 H 0.8044 1.6990 0.2238
C31 C 0.7419(4) 1.5335(9) 0.2463(2)
C32 C 0.7906(5) 1.3995(11) 0.2540(2)
H12 H 0.8363 1.4126 0.2481
Ag2A Ag 1.15262(4) 0.53072(8) 0.22002(2)
O10A O 0.9574(9) 1.174(2) 0.2886(5)
O16 O 0.3413(4) 0.6019(9) 0.0805(2)
O17 O 0.5888(4) 0.6491(8) 0.3881(2)
O3? O 0.5665(19) 1.279(3) 0.3714(8)
O4? O 0.4864(13) 1.438(3) 0.3578(8)
O11? O 1.0380(11) 0.569(3) 0.1973(7)
loop_
_geom_bond_atom_site_label_1
_geom_bond_atom_site_label_2
_geom_bond_site_symmetry_1
_geom_bond_site_symmetry_2
Ag1 O15 1_555 1_555
Ag2 O7 1_555 1_555
Ag3 O5 1_555 1_555
Cl1 C3 1_555 1_555
Cl2 C4 1_555 1_555
Cl3 C5 1_555 1_555
Cl4 C6 1_555 1_555
Cl5 C11 1_555 1_555
Cl6 C12 1_555 1_555
Cl7 C13 1_555 1_555
Cl8 C14 1_555 1_555
Cl9 C38 1_555 1_555
Cl10 C37 1_555 1_555
Cl11 C36 1_555 1_555
Cl12 C35 1_555 1_555
O1 C1 1_555 1_555
O2 C1 1_555 1_555
O5 C8 1_555 1_555
O6 Ag3 1_555 1_555
O7 C9 1_555 1_555
O8 C9 1_555 1_555
O9 C16 1_555 1_555
O10 C16 1_555 1_555
O12 C33 1_555 1_555
O13 C33 1_555 1_555
O14 C40 1_555 1_555
O15 C40 1_555 1_555
N1 Ag2 1_555 1_555
N2 Ag3 1_555 1_555
N3 Ag3 1_555 1_555
N4 Ag2 1_555 1_555
N5 Ag1 1_555 1_555
N6 N5 1_555 1_555
C1 C2 1_555 1_555
C2 C3 1_555 1_555
C3 C4 1_555 1_555
C4 C5 1_555 1_555
C5 C6 1_555 1_555
C6 C7 1_555 1_555
C7 C2 1_555 1_555
C8 O6 1_555 1_555
C9 C10 1_555 1_555
C10 C11 1_555 1_555
C11 C12 1_555 1_555
C12 C13 1_555 1_555
C13 C14 1_555 1_555
C14 C15 1_555 1_555
C15 C10 1_555 1_555
C16 C15 1_555 1_555
C17 N1 1_555 1_555
H1 C17 1_555 1_555
C18 C17 1_555 1_555
C19 C18 1_555 1_555
H2 C19 1_555 1_555
C20 C19 1_555 1_555
H3 C20 1_555 1_555
C21 C20 1_555 1_555
H4 C21 1_555 1_555
C22 C21 1_555 1_555
H5 C22 1_555 1_555
C23 C18 1_555 1_555
C24 N2 1_555 1_555
H6 C24 1_555 1_555
C25 N3 1_555 1_555
H7 C25 1_555 1_555
C26 C25 1_555 1_555
C27 C26 1_555 1_555
H8 C27 1_555 1_555
C28 C27 1_555 1_555
H9 C28 1_555 1_555
C29 C28 1_555 1_555
H10 C29 1_555 1_555
C30 C29 1_555 1_555
H11 C30 1_555 1_555
C31 C26 1_555 1_555
C32 N4 1_555 1_555
H12 C32 1_555 1_555
C33 C34 1_555 1_555
C34 C35 1_555 1_555
C35 C36 1_555 1_555
C36 C37 1_555 1_555
C37 C38 1_555 1_555
C38 C39 1_555 1_555
C39 C34 1_555 1_555
C40 C39 1_555 1_555
C41 N5 1_555 1_555
H13 C41 1_555 1_555
C42 C41 1_555 1_555
C43 C42 1_555 1_555
H14 C43 1_555 1_555
C44 C43 1_555 1_555
H15 C44 1_555 1_555
C45 N6 1_555 1_555
H16 C45 1_555 1_555
C46 C42 1_555 1_555
C47 C46 1_555 1_555
H17 C47 1_555 1_555
C48 C44 1_555 1_555
H18 C48 1_555 1_555
Ag1B N6 1_555 1_555
Ag2A O10 1_555 1_555
O10A Ag2 1_555 1_555
N6B Ag1 1_555 1_555
N1 N2 1_555 1_555
N3 N4 1_555 1_555
C7 C8 1_555 1_555
C22 C23 1_555 1_555
C23 C24 1_555 1_555
C30 C31 1_555 1_555
C31 C32 1_555 1_555
C45 C46 1_555 1_555
C47 C48 1_555 1_555

#END
