
#######################################################################
#
#                 Cambridge Crystallographic Data Centre
#                                CCDC 
#
#######################################################################
#
# If this CIF has been generated from an entry in the Cambridge 
# Structural Database, then it will include bibliographic, chemical, 
# crystal, experimental, refinement or atomic coordinate data resulting 
# from the CCDC's data processing and validation procedures.
#
#######################################################################

data_RIVTEW
_symmetry_cell_setting           orthorhombic
_symmetry_space_group_name_H-M   'P b c a'
_symmetry_Int_Tables_number      61
_space_group_name_Hall           '-P 2ac 2ab'
loop_
_symmetry_equiv_pos_site_id
_symmetry_equiv_pos_as_xyz
1 x,y,z
2 1/2-x,-y,1/2+z
3 -x,1/2+y,1/2-z
4 1/2+x,1/2-y,-z
5 -x,-y,-z
6 1/2+x,y,1/2-z
7 x,1/2-y,1/2+z
8 1/2-x,1/2+y,z
_cell_length_a                   11.6087(13)
_cell_length_b                   14.5970(16)
_cell_length_c                   16.9412(19)
_cell_angle_alpha                90
_cell_angle_beta                 90
_cell_angle_gamma                90
_cell_volume                     2870.72
loop_
_atom_site_label
_atom_site_type_symbol
_atom_site_fract_x
_atom_site_fract_y
_atom_site_fract_z
Ag1 Ag 0.72279(2) 0.152515(15) 0.610708(14)
O2 O 0.42992(17) 0.47193(14) 0.61110(12)
H1 H 0.4227 0.4470 0.5680
N1 N 0.7191(2) 0.31009(16) 0.59471(15)
N2 N 0.7344(2) 0.49845(16) 0.57333(16)
O3 O 0.53558(18) 0.58996(13) 0.55325(12)
H2 H 0.4911 0.6315 0.5648
C1 C 0.5322(2) 0.52189(17) 0.61236(16)
C2 C 0.5375(2) 0.56801(17) 0.69357(16)
C3 C 0.6294(2) 0.36596(18) 0.60943(16)
H3 H 0.5608 0.3410 0.6279
C4 C 0.6365(2) 0.45983(17) 0.59776(15)
C5 C 0.5465(3) 0.6553(2) 0.83192(19)
H4 H 0.5529 0.6860 0.8798
N3 N 0.4485(2) 0.61320(19) 0.81452(15)
N4 N 0.6344(2) 0.61238(17) 0.71157(15)
C6 C 0.6388(3) 0.6549(2) 0.7815(2)
H5 H 0.7061 0.6850 0.7962
C7 C 0.8147(3) 0.3493(2) 0.5679(2)
H6 H 0.8776 0.3126 0.5554
C8 C 0.4447(2) 0.5683(2) 0.74531(17)
H7 H 0.3781 0.5366 0.7317
C9 C 0.8230(3) 0.4429(2) 0.5582(2)
H8 H 0.8920 0.4679 0.5406
Ag1G Ag 0.77721(2) 0.652515(15) 0.610708(14)
Ag1B Ag 0.27721(2) 0.652515(15) 0.889292(14)
N2G N 0.7656(2) -0.00155(16) 0.57333(16)
N3B N 0.5515(2) 0.11320(19) 0.68548(15)
N4G N 0.8656(2) 0.11238(17) 0.71157(15)
S1 S 0.65904(7) 0.19636(5) 0.42151(4)
O1 O 0.7791(2) 0.19157(18) 0.43798(15)
O4 O 0.5847(2) 0.15603(19) 0.47959(14)
O5 O 0.6204(3) 0.28322(18) 0.39249(16)
F1 F 0.7157(3) 0.1416(2) 0.28036(16)
F2 F 0.5363(3) 0.1268(2) 0.30702(18)
F3 F 0.6620(3) 0.03509(17) 0.3559(2)
C10 C 0.6422(4) 0.1215(3) 0.3362(2)
loop_
_geom_bond_atom_site_label_1
_geom_bond_atom_site_label_2
_geom_bond_site_symmetry_1
_geom_bond_site_symmetry_2
Ag1 N1 1_555 1_555
S1 O1 1_555 1_555
O2 H1 1_555 1_555
N1 C3 1_555 1_555
N2 C4 1_555 1_555
O3 H2 1_555 1_555
C1 O2 1_555 1_555
C2 C1 1_555 1_555
O4 S1 1_555 1_555
C3 H3 1_555 1_555
C4 C1 1_555 1_555
O5 S1 1_555 1_555
C5 H4 1_555 1_555
N3 C5 1_555 1_555
N4 C2 1_555 1_555
C6 C5 1_555 1_555
H5 C6 1_555 1_555
C7 N1 1_555 1_555
H6 C7 1_555 1_555
C8 C2 1_555 1_555
H7 C8 1_555 1_555
C9 N2 1_555 1_555
H8 C9 1_555 1_555
F1 C10 1_555 1_555
F2 C10 1_555 1_555
F3 C10 1_555 1_555
C10 S1 1_555 1_555
Ag1G N2 1_555 1_555
Ag1B N3 1_555 1_555
N2G Ag1 1_555 1_555
N3B Ag1 1_555 1_555
N4G Ag1 1_555 1_555
O3 C1 1_555 1_555
C3 C4 1_555 1_555
N3 C8 1_555 1_555
N4 C6 1_555 1_555
N4 Ag1G 1_555 1_555
C7 C9 1_555 1_555

#END
