
#######################################################################
#
#                 Cambridge Crystallographic Data Centre
#                                CCDC 
#
#######################################################################
#
# If this CIF has been generated from an entry in the Cambridge 
# Structural Database, then it will include bibliographic, chemical, 
# crystal, experimental, refinement or atomic coordinate data resulting 
# from the CCDC's data processing and validation procedures.
#
#######################################################################

data_RIVYAW
_symmetry_cell_setting           monoclinic
_symmetry_space_group_name_H-M   'P 21/n'
_symmetry_Int_Tables_number      14
_space_group_name_Hall           '-P 2yn'
loop_
_symmetry_equiv_pos_site_id
_symmetry_equiv_pos_as_xyz
1 x,y,z
2 1/2-x,1/2+y,1/2-z
3 -x,-y,-z
4 1/2+x,1/2-y,1/2+z
_cell_length_a                   13.5225(8)
_cell_length_b                   6.9078(3)
_cell_length_c                   17.6194(10)
_cell_angle_alpha                90
_cell_angle_beta                 102.327(5)
_cell_angle_gamma                90
_cell_volume                     1607.9
loop_
_atom_site_label
_atom_site_type_symbol
_atom_site_fract_x
_atom_site_fract_y
_atom_site_fract_z
Cu1 Cu 0.73927(3) 0.13044(6) 0.87508(2)
O1 O 0.75717(15) 0.2368(3) 0.97857(11)
N1 N 0.88107(17) 0.1564(3) 0.87261(13)
C1 C 0.8438(2) 0.2800(4) 1.02550(16)
O2 O 0.73765(14) -0.0326(3) 0.78087(11)
N2 N 0.60190(17) 0.0276(4) 0.88512(13)
C2 C 0.8423(3) 0.3556(5) 1.10022(19)
H1 H 0.7803 0.3764 1.1136
C3 C 0.9303(3) 0.3990(5) 1.15361(19)
H2 H 0.9264 0.4473 1.2021
O3 O 0.66858(16) 0.3895(3) 0.80480(12)
C4 C 1.0243(3) 0.3715(5) 1.1357(2)
H3 H 1.0834 0.3994 1.1719
C5 C 1.0282(2) 0.3022(5) 1.06353(19)
H4 H 1.0912 0.2841 1.0513
C6 C 0.9399(2) 0.2569(4) 1.00675(16)
C7 C 0.9530(2) 0.1971(4) 0.93127(17)
H5 H 1.0190 0.1870 0.9242
C8 C 0.9026(2) 0.1027(4) 0.79792(17)
H6 H 0.9663 0.0334 0.8059
H7 H 0.9082 0.2182 0.7678
C9 C 0.8173(2) -0.0254(4) 0.75400(16)
C10 C 0.5934(2) -0.1484(4) 0.91478(18)
C11 C 0.4997(3) -0.2110(6) 0.9261(2)
H8 H 0.4935 -0.3334 0.9466
C12 C 0.4167(3) -0.0933(6) 0.9073(2)
H9 H 0.3546 -0.1352 0.9159
C13 C 0.4247(2) 0.0879(5) 0.87573(19)
C14 C 0.5199(2) 0.1403(5) 0.86589(17)
H10 H 0.5273 0.2612 0.8446
C15 C 0.6876(3) -0.2676(5) 0.9366(2)
H11 H 0.7435 -0.1976 0.9243
H12 H 0.6786 -0.3871 0.9082
H13 H 0.7011 -0.2945 0.9913
C16 C 0.3372(3) 0.2280(7) 0.8533(3)
H14 H 0.3296 0.2979 0.8994
H15 H 0.3544 0.3219 0.8172
C17 C 0.2378(4) 0.1389(9) 0.8171(4)
H16 H 0.1873 0.2383 0.8051
H17 H 0.2188 0.0481 0.8527
H18 H 0.2434 0.0729 0.7703
O3A O 0.83142(16) -0.1105(3) 0.69520(12)
Cu1A Cu 0.76073(3) -0.36956(6) 0.62492(2)
loop_
_geom_bond_atom_site_label_1
_geom_bond_atom_site_label_2
_geom_bond_site_symmetry_1
_geom_bond_site_symmetry_2
Cu1 O1 1_555 1_555
O1 C1 1_555 1_555
N1 Cu1 1_555 1_555
C1 C2 1_555 1_555
O2 Cu1 1_555 1_555
N2 Cu1 1_555 1_555
C2 H1 1_555 1_555
C3 C2 1_555 1_555
H2 C3 1_555 1_555
O3 Cu1 1_555 1_555
C4 C3 1_555 1_555
H3 C4 1_555 1_555
C5 C4 1_555 1_555
H4 C5 1_555 1_555
C6 C1 1_555 1_555
C7 N1 1_555 1_555
H5 C7 1_555 1_555
C8 N1 1_555 1_555
H6 C8 1_555 1_555
H7 C8 1_555 1_555
C9 O2 1_555 1_555
C10 N2 1_555 1_555
C11 C10 1_555 1_555
H8 C11 1_555 1_555
C12 C11 1_555 1_555
H9 C12 1_555 1_555
C13 C12 1_555 1_555
C14 N2 1_555 1_555
H10 C14 1_555 1_555
C15 C10 1_555 1_555
H11 C15 1_555 1_555
H12 C15 1_555 1_555
H13 C15 1_555 1_555
C16 C13 1_555 1_555
H14 C16 1_555 1_555
H15 C16 1_555 1_555
C17 C16 1_555 1_555
H16 C17 1_555 1_555
H17 C17 1_555 1_555
H18 C17 1_555 1_555
O3A C9 1_555 1_555
Cu1A O3A 1_555 1_555
C5 C6 1_555 1_555
C6 C7 1_555 1_555
C8 C9 1_555 1_555
C13 C14 1_555 1_555

#END
