
#######################################################################
#
#                 Cambridge Crystallographic Data Centre
#                                CCDC 
#
#######################################################################
#
# If this CIF has been generated from an entry in the Cambridge 
# Structural Database, then it will include bibliographic, chemical, 
# crystal, experimental, refinement or atomic coordinate data resulting 
# from the CCDC's data processing and validation procedures.
#
#######################################################################

data_RIVZUS
_symmetry_cell_setting           orthorhombic
_symmetry_space_group_name_H-M   'P c a 21'
_symmetry_Int_Tables_number      29
_space_group_name_Hall           'P 2c -2ac'
loop_
_symmetry_equiv_pos_site_id
_symmetry_equiv_pos_as_xyz
1 x,y,z
2 -x,-y,1/2+z
3 1/2+x,-y,z
4 1/2-x,y,1/2+z
_cell_length_a                   10.804(2)
_cell_length_b                   13.453(3)
_cell_length_c                   11.166(2)
_cell_angle_alpha                90
_cell_angle_beta                 90
_cell_angle_gamma                90
_cell_volume                     1622.94
loop_
_atom_site_label
_atom_site_type_symbol
_atom_site_fract_x
_atom_site_fract_y
_atom_site_fract_z
Mn1 Mn 0.25206(4) 0.67297(2) 0.67220(6)
F1 F 0.20846(18) 0.19000(12) 0.87011(18)
F2 F 0.3573(2) 1.17342(11) 0.6413(2)
O1 O 0.32929(17) 0.57535(12) 0.76593(17)
O2 O 0.37365(17) 0.77019(13) 0.70200(19)
N1 N 0.1102(2) 0.58364(14) 0.63726(19)
N2 N 0.1589(2) 0.76381(17) 0.5663(2)
N3 N 0.1402(2) 0.73060(19) 0.8362(2)
N4 N 0.14145(18) 0.67715(18) 0.9206(3)
N5 N 0.1424(2) 0.6236(2) 1.0049(2)
C1 C 0.2942(3) 0.4830(2) 0.7891(3)
C2 C 0.3684(3) 0.42589(19) 0.8653(3)
H1 H 0.4392 0.4543 0.8983
C3 C 0.3397(3) 0.3288(2) 0.8930(3)
H2 H 0.3898 0.2923 0.9445
C4 C 0.2358(3) 0.2868(2) 0.8434(3)
C5 C 0.1587(3) 0.3384(2) 0.7695(3)
H3 H 0.0882 0.3084 0.7382
C6 C 0.1872(3) 0.4380(2) 0.7413(3)
C7 C 0.0993(2) 0.49174(17) 0.6688(3)
H4 H 0.0295 0.4576 0.6428
C8 C 0.0070(3) 0.6328(2) 0.5743(3)
H5 H -0.0498 0.6621 0.6315
H6 H -0.0381 0.5850 0.5260
C9 C 0.0629(3) 0.7126(2) 0.4954(3)
H7 H 0.0992 0.6830 0.4244
H8 H -0.0004 0.7594 0.4705
C10 C 0.1800(3) 0.8566(2) 0.5524(3)
H9 H 0.1300 0.8907 0.4984
C11 C 0.2742(3) 0.9128(2) 0.6130(3)
C12 C 0.2740(3) 1.0170(2) 0.5977(3)
H10 H 0.2153 1.0471 0.5487
C13 C 0.3596(4) 1.0722(2) 0.6545(3)
C14 C 0.4501(3) 1.0310(2) 0.7262(3)
H11 H 0.5081 1.0712 0.7641
C15 C 0.4531(3) 0.9296(2) 0.7408(3)
H12 H 0.5144 0.9013 0.7884
C16 C 0.3656(3) 0.86777(19) 0.6852(3)
Mn1C Mn 0.24794(4) 0.67297(2) 1.17220(6)
N5C N 0.3576(2) 0.6236(2) 0.5049(2)
loop_
_geom_bond_atom_site_label_1
_geom_bond_atom_site_label_2
_geom_bond_site_symmetry_1
_geom_bond_site_symmetry_2
Mn1 O1 1_555 1_555
F1 C4 1_555 1_555
F2 C13 1_555 1_555
O1 C1 1_555 1_555
O2 Mn1 1_555 1_555
N1 Mn1 1_555 1_555
N2 Mn1 1_555 1_555
N3 Mn1 1_555 1_555
N4 N3 1_555 1_555
N5 N4 1_555 1_555
C1 C2 1_555 1_555
C2 H1 1_555 1_555
C3 C2 1_555 1_555
H2 C3 1_555 1_555
C4 C3 1_555 1_555
C5 C4 1_555 1_555
H3 C5 1_555 1_555
C6 C1 1_555 1_555
C7 N1 1_555 1_555
H4 C7 1_555 1_555
C8 N1 1_555 1_555
H5 C8 1_555 1_555
H6 C8 1_555 1_555
C9 N2 1_555 1_555
H7 C9 1_555 1_555
H8 C9 1_555 1_555
C10 N2 1_555 1_555
H9 C10 1_555 1_555
C11 C10 1_555 1_555
C12 C11 1_555 1_555
H10 C12 1_555 1_555
C13 C12 1_555 1_555
C14 C13 1_555 1_555
H11 C14 1_555 1_555
C15 C14 1_555 1_555
H12 C15 1_555 1_555
C16 O2 1_555 1_555
Mn1C N5 1_555 1_555
N5C Mn1 1_555 1_555
C5 C6 1_555 1_555
C6 C7 1_555 1_555
C8 C9 1_555 1_555
C11 C16 1_555 1_555
C15 C16 1_555 1_555

#END
