
#######################################################################
#
#                 Cambridge Crystallographic Data Centre
#                                CCDC 
#
#######################################################################
#
# If this CIF has been generated from an entry in the Cambridge 
# Structural Database, then it will include bibliographic, chemical, 
# crystal, experimental, refinement or atomic coordinate data resulting 
# from the CCDC's data processing and validation procedures.
#
#######################################################################

data_RIVZAX
_symmetry_cell_setting           monoclinic
_symmetry_space_group_name_H-M   'P 21/c'
_symmetry_Int_Tables_number      14
_space_group_name_Hall           '-P 2ybc'
loop_
_symmetry_equiv_pos_site_id
_symmetry_equiv_pos_as_xyz
1 x,y,z
2 -x,1/2+y,1/2-z
3 -x,-y,-z
4 x,1/2-y,1/2+z
_cell_length_a                   6.0389(4)
_cell_length_b                   32.772(3)
_cell_length_c                   7.3695(8)
_cell_angle_alpha                90
_cell_angle_beta                 97.750(8)
_cell_angle_gamma                90
_cell_volume                     1445.15
loop_
_atom_site_label
_atom_site_type_symbol
_atom_site_fract_x
_atom_site_fract_y
_atom_site_fract_z
Ag1 Ag 0.20375(4) 0.751086(7) 0.51278(3)
S1 S 0.54682(10) 0.679717(19) 0.38773(9)
S2 S 0.45679(11) 0.671784(19) 0.75065(9)
N1 N 0.4166(4) 0.69357(6) 0.5533(3)
O1 O 0.7684(3) 0.66471(6) 0.4467(3)
O2 O 0.5258(3) 0.71383(6) 0.2616(3)
O3 O 0.2855(3) 0.81203(6) 0.3488(3)
O4 O 0.6853(3) 0.67492(6) 0.8365(3)
O5 O -0.0695(3) 0.74576(6) 0.7256(3)
H1 H -0.1943(57) 0.7592(12) 0.7183(57)
H2 H -0.1183(69) 0.7209(10) 0.7323(58)
C1 C 0.3888(4) 0.63931(8) 0.2778(4)
C2 C 0.4845(5) 0.60134(8) 0.2627(4)
H3 H 0.6365 0.5967 0.3107
C3 C 0.3553(6) 0.56987(9) 0.1760(4)
H4 H 0.4177 0.5436 0.1625
C4 C 0.1360(6) 0.57778(9) 0.1109(4)
C5 C 0.0377(5) 0.61518(9) 0.1248(4)
H5 H -0.1151 0.6194 0.0782
C6 C 0.1656(5) 0.64654(9) 0.2081(4)
H6 H 0.1024 0.6729 0.2179
F1 F 0.0087(4) 0.54683(6) 0.0301(3)
C7 C 0.3983(4) 0.61937(7) 0.7143(3)
C8 C 0.5697(5) 0.59110(8) 0.7445(4)
H7 H 0.7183 0.5997 0.7853
C9 C 0.5221(5) 0.54981(9) 0.7147(4)
H8 H 0.6360 0.5297 0.7374
C10 C 0.3061(5) 0.53904(8) 0.6515(4)
C11 C 0.1326(5) 0.56675(9) 0.6182(4)
H9 H -0.0148 0.5580 0.5742
C12 C 0.1802(4) 0.60768(8) 0.6508(4)
H10 H 0.0650 0.6275 0.6300
F2 F 0.2593(3) 0.49886(5) 0.6201(3)
O3C O 0.2855(3) 0.68797(6) 0.8488(3)
Ag1C Ag 0.20375(4) 0.748914(7) 1.01278(3)
O5C O -0.0695(3) 0.75424(6) 0.2256(3)
loop_
_geom_bond_atom_site_label_1
_geom_bond_atom_site_label_2
_geom_bond_site_symmetry_1
_geom_bond_site_symmetry_2
Ag1 N1 1_555 1_555
S1 N1 1_555 1_555
S2 N1 1_555 1_555
O1 S1 1_555 1_555
O2 S1 1_555 1_555
O3 Ag1 1_555 1_555
O4 S2 1_555 1_555
O5 Ag1 1_555 1_555
H1 O5 1_555 1_555
H2 O5 1_555 1_555
C1 S1 1_555 1_555
C2 C1 1_555 1_555
H3 C2 1_555 1_555
C3 C2 1_555 1_555
H4 C3 1_555 1_555
C4 C3 1_555 1_555
C5 C4 1_555 1_555
H5 C5 1_555 1_555
C6 C1 1_555 1_555
H6 C6 1_555 1_555
F1 C4 1_555 1_555
C7 S2 1_555 1_555
C8 C7 1_555 1_555
H7 C8 1_555 1_555
C9 C8 1_555 1_555
H8 C9 1_555 1_555
C10 C9 1_555 1_555
C11 C10 1_555 1_555
H9 C11 1_555 1_555
C12 C7 1_555 1_555
H10 C12 1_555 1_555
F2 C10 1_555 1_555
O3C S2 1_555 1_555
Ag1C O5 1_555 1_555
O5C Ag1 1_555 1_555
C5 C6 1_555 1_555
C11 C12 1_555 1_555
O3C Ag1C 1_555 1_555

#END
