
#######################################################################
#
#                 Cambridge Crystallographic Data Centre
#                                CCDC 
#
#######################################################################
#
# If this CIF has been generated from an entry in the Cambridge 
# Structural Database, then it will include bibliographic, chemical, 
# crystal, experimental, refinement or atomic coordinate data resulting 
# from the CCDC's data processing and validation procedures.
#
#######################################################################

data_RIWBAB
_symmetry_cell_setting           orthorhombic
_symmetry_space_group_name_H-M   'P b c a'
_symmetry_Int_Tables_number      61
_space_group_name_Hall           '-P 2ac 2ab'
loop_
_symmetry_equiv_pos_site_id
_symmetry_equiv_pos_as_xyz
1 x,y,z
2 1/2-x,-y,1/2+z
3 -x,1/2+y,1/2-z
4 1/2+x,1/2-y,-z
5 -x,-y,-z
6 1/2+x,y,1/2-z
7 x,1/2-y,1/2+z
8 1/2-x,1/2+y,z
_cell_length_a                   10.862(2)
_cell_length_b                   11.184(2)
_cell_length_c                   29.688(6)
_cell_angle_alpha                90
_cell_angle_beta                 90
_cell_angle_gamma                90
_cell_volume                     3606.52
loop_
_atom_site_label
_atom_site_type_symbol
_atom_site_fract_x
_atom_site_fract_y
_atom_site_fract_z
Mn1 Mn 0.25014(4) 0.87263(4) 0.169897(14)
O1 O 0.36793(16) 0.90794(17) 0.12538(7)
O2 O 0.32848(15) 0.96533(16) 0.21368(7)
O3 O 0.4892(2) 0.6903(3) -0.03492(9)
O4 O 0.20527(16) 1.0684(2) 0.38969(8)
N1 N 0.1650(2) 0.7577(2) 0.13019(9)
N2 N 0.11173(19) 0.8355(2) 0.21093(9)
N3 N 0.3624(2) 0.7068(2) 0.19303(10)
N4 N 0.36535(19) 0.6199(3) 0.17056(11)
N5 N 0.3668(2) 0.5327(2) 0.14673(10)
C1 C 0.3871(3) 0.8531(3) 0.08699(12)
C2 C 0.4851(3) 0.8924(3) 0.05992(12)
H1 H 0.5315 0.9578 0.0692
C3 C 0.5140(3) 0.8374(3) 0.02044(12)
H2 H 0.5792 0.8664 0.0033
C4 C 0.4482(3) 0.7385(4) 0.00506(12)
C5 C 0.3495(3) 0.6993(3) 0.03007(12)
H3 H 0.3043 0.6338 0.0202
C6 C 0.3163(3) 0.7570(3) 0.07028(11)
C7 C 0.2084(3) 0.7146(3) 0.09383(12)
H4 H 0.1669 0.6499 0.0813
C8 C 0.0590(3) 0.6982(3) 0.15241(12)
H5 H -0.0042 0.6811 0.1303
H6 H 0.0855 0.6232 0.1656
C9 C 0.0094(2) 0.7753(3) 0.18722(12)
H7 H -0.0383 0.7283 0.2084
H8 H -0.0446 0.8345 0.1738
C10 C 0.1013(2) 0.8678(3) 0.25189(12)
H9 H 0.0316 0.8421 0.2673
C11 C 0.1885(3) 0.9410(3) 0.27662(11)
C12 C 0.1624(2) 0.9706(3) 0.32167(11)
H10 H 0.0929 0.9386 0.3354
C13 C 0.2374(3) 1.0457(3) 0.34558(12)
C14 C 0.3412(3) 1.0933(3) 0.32478(12)
H11 H 0.3921 1.1455 0.3406
C15 C 0.3688(3) 1.0640(3) 0.28131(12)
H12 H 0.4394 1.0958 0.2683
C16 C 0.2951(3) 0.9881(3) 0.25580(12)
C17 C 0.4307(3) 0.5871(3) -0.05102(13)
H13 H 0.4687 0.5625 -0.0787
H14 H 0.3452 0.6038 -0.0562
H15 H 0.4382 0.5243 -0.0291
C18 C 0.2694(3) 1.1614(3) 0.41222(12)
H16 H 0.2385 1.1691 0.4424
H17 H 0.2575 1.2353 0.3964
H18 H 0.3557 1.1427 0.4131
Mn1G Mn 0.24986(4) 0.37263(4) 0.169897(14)
N5G N 0.1332(2) 1.0327(2) 0.14673(10)
loop_
_geom_bond_atom_site_label_1
_geom_bond_atom_site_label_2
_geom_bond_site_symmetry_1
_geom_bond_site_symmetry_2
Mn1 O1 1_555 1_555
O1 C1 1_555 1_555
O2 Mn1 1_555 1_555
O3 C4 1_555 1_555
O4 C13 1_555 1_555
N1 Mn1 1_555 1_555
N2 Mn1 1_555 1_555
N3 Mn1 1_555 1_555
N4 N3 1_555 1_555
N5 N4 1_555 1_555
C1 C2 1_555 1_555
C2 H1 1_555 1_555
C3 C2 1_555 1_555
H2 C3 1_555 1_555
C4 C3 1_555 1_555
C5 C4 1_555 1_555
H3 C5 1_555 1_555
C6 C1 1_555 1_555
C7 N1 1_555 1_555
H4 C7 1_555 1_555
C8 N1 1_555 1_555
H5 C8 1_555 1_555
H6 C8 1_555 1_555
C9 N2 1_555 1_555
H7 C9 1_555 1_555
H8 C9 1_555 1_555
C10 N2 1_555 1_555
H9 C10 1_555 1_555
C11 C10 1_555 1_555
C12 C11 1_555 1_555
H10 C12 1_555 1_555
C13 C12 1_555 1_555
C14 C13 1_555 1_555
H11 C14 1_555 1_555
C15 C14 1_555 1_555
H12 C15 1_555 1_555
C16 O2 1_555 1_555
C17 O3 1_555 1_555
H13 C17 1_555 1_555
H14 C17 1_555 1_555
H15 C17 1_555 1_555
C18 O4 1_555 1_555
H16 C18 1_555 1_555
H17 C18 1_555 1_555
H18 C18 1_555 1_555
Mn1G N5 1_555 1_555
N5G Mn1 1_555 1_555
C5 C6 1_555 1_555
C6 C7 1_555 1_555
C8 C9 1_555 1_555
C11 C16 1_555 1_555
C15 C16 1_555 1_555

#END
