
#######################################################################
#
#                 Cambridge Crystallographic Data Centre
#                                CCDC 
#
#######################################################################
#
# If this CIF has been generated from an entry in the Cambridge 
# Structural Database, then it will include bibliographic, chemical, 
# crystal, experimental, refinement or atomic coordinate data resulting 
# from the CCDC's data processing and validation procedures.
#
#######################################################################

data_RIWFOU
_symmetry_cell_setting           monoclinic
_symmetry_space_group_name_H-M   'C 2/c'
_symmetry_Int_Tables_number      15
_space_group_name_Hall           '-C 2yn'
loop_
_symmetry_equiv_pos_site_id
_symmetry_equiv_pos_as_xyz
1 x,y,z
2 -x,y,1/2-z
3 1/2+x,1/2+y,z
4 1/2-x,1/2+y,1/2-z
5 -x,-y,-z
6 x,-y,1/2+z
7 1/2-x,1/2-y,-z
8 1/2+x,1/2-y,1/2+z
_cell_length_a                   16.1492(9)
_cell_length_b                   14.8618(9)
_cell_length_c                   13.1617(11)
_cell_angle_alpha                90
_cell_angle_beta                 125.860(2)
_cell_angle_gamma                90
_cell_volume                     2560.12
loop_
_atom_site_label
_atom_site_type_symbol
_atom_site_fract_x
_atom_site_fract_y
_atom_site_fract_z
O1 O 0.48117(12) -0.10115(11) 0.50331(15)
C1 C 0.13466(16) -0.15904(15) 0.3975(2)
C2 C 0.35158(17) -0.03829(15) 0.2989(2)
C3 C 0.15060(18) 0.18038(16) 0.2854(2)
C4 C 0.05519(17) 0.12413(16) 0.1862(2)
C5 C 0.17175(17) -0.19486(16) 0.2562(2)
H1 H 0.1918 -0.1763 0.2046
C6 C 0.12408(18) -0.08675(16) 0.4695(2)
H2 H 0.0509 -0.0783 0.4332
H3 H 0.1594 -0.1061 0.5577
C7 C 0.11430(17) -0.24836(16) 0.4050(2)
H4 H 0.095 -0.2658 0.4578
C8 C 0.12253(18) -0.31226(16) 0.3342(2)
H5 H 0.1085 -0.3739 0.3375
C9 C 0.40096(16) -0.05966(15) 0.4397(2)
C10 C 0.15143(18) -0.28453(16) 0.2589(2)
H6 H 0.1572 -0.327 0.2094
K1 K 0.58006(4) -0.15237(4) 0.40836(5)
Cr1 Cr 0.20602(3) 0.00055(2) 0.34171(3)
O2 O 0.34714(12) -0.03049(11) 0.47715(14)
O3 O 0.06949(12) 0.03859(11) 0.19965(15)
O4 O 0.25793(12) -0.01071(11) 0.23925(15)
O5 O 0.23003(12) 0.13133(11) 0.36386(15)
O6 O 0.39886(13) -0.04729(11) 0.25436(15)
O7 O 0.14698(14) 0.26204(11) 0.28554(18)
N1 N 0.16395(14) -0.13233(13) 0.32521(18)
O8 O -0.02507(13) 0.16134(12) 0.10562(16)
N2 N 0.16758(15) -0.00044(13) 0.46620(18)
H7 H 0.2279(15) 0.0120(18) 0.5462(18)
H8 H 0.1230(17) 0.0471(15) 0.447(2)
K1A K 0.41994(4) -0.15237(4) 0.09164(5)
K1B K 0.08006(4) 0.34763(4) 0.40836(5)
K1C K -0.08006(4) 0.34763(4) 0.09164(5)
K1D K 0.41994(4) 0.15237(4) 0.59164(5)
O2D O 0.65286(12) 0.03049(11) 0.52285(14)
O5D O 0.76997(12) -0.13133(11) 0.63614(15)
O6A O 0.60114(13) -0.04729(11) 0.24564(15)
O7B O 0.64698(14) -0.23796(11) 0.28554(18)
O7C O 0.35302(14) -0.23796(11) 0.21446(18)
O8C O 0.52507(13) -0.33866(12) 0.39438(16)
loop_
_geom_bond_atom_site_label_1
_geom_bond_atom_site_label_2
_geom_bond_site_symmetry_1
_geom_bond_site_symmetry_2
O1 C9 1_555 1_555
C1 C6 1_555 1_555
C2 C9 1_555 1_555
C3 C4 1_555 1_555
C4 O3 1_555 1_555
C5 H1 1_555 1_555
C6 H2 1_555 1_555
H3 C6 1_555 1_555
C7 C1 1_555 1_555
H4 C7 1_555 1_555
C8 C7 1_555 1_555
H5 C8 1_555 1_555
C9 O2 1_555 1_555
C10 C5 1_555 1_555
H6 C10 1_555 1_555
K1 O1 1_555 1_555
Cr1 O2 1_555 1_555
O2 K1D 1_555 1_555
O3 Cr1 1_555 1_555
O4 C2 1_555 1_555
O5 C3 1_555 1_555
O6 C2 1_555 1_555
O7 C3 1_555 1_555
N1 C1 1_555 1_555
O8 C4 1_555 1_555
N2 C6 1_555 1_555
H7 N2 1_555 1_555
H8 N2 1_555 1_555
K1A O6 1_555 1_555
K1B O7 1_555 1_555
K1C O7 1_555 1_555
K1D O5 1_555 1_555
O2D K1 1_555 1_555
O5D K1 1_555 1_555
O6A K1 1_555 1_555
O7B K1 1_555 1_555
O7C K1 1_555 1_555
O8C K1 1_555 1_555
C5 N1 1_555 1_555
C8 C10 1_555 1_555
K1 O6 1_555 1_555
Cr1 O4 1_555 1_555
Cr1 O5 1_555 1_555
Cr1 N1 1_555 1_555
Cr1 N2 1_555 1_555
O8 K1C 1_555 1_555
K1A O6A 1_555 1_555
K1A O7B 1_555 1_555
K1A O7C 1_555 1_555

#END
