
#######################################################################
#
#                 Cambridge Crystallographic Data Centre
#                                CCDC 
#
#######################################################################
#
# If this CIF has been generated from an entry in the Cambridge 
# Structural Database, then it will include bibliographic, chemical, 
# crystal, experimental, refinement or atomic coordinate data resulting 
# from the CCDC's data processing and validation procedures.
#
#######################################################################

data_RIWFUA
_symmetry_cell_setting           monoclinic
_symmetry_space_group_name_H-M   'P 21'
_symmetry_Int_Tables_number      4
_space_group_name_Hall           'P 2yb'
loop_
_symmetry_equiv_pos_site_id
_symmetry_equiv_pos_as_xyz
1 x,y,z
2 -x,1/2+y,-z
_cell_length_a                   10.014(2)
_cell_length_b                   9.758(2)
_cell_length_c                   13.667(3)
_cell_angle_alpha                90
_cell_angle_beta                 98.668(8)
_cell_angle_gamma                90
_cell_volume                     1320.24
loop_
_atom_site_label
_atom_site_type_symbol
_atom_site_fract_x
_atom_site_fract_y
_atom_site_fract_z
C1 C 0.8888(4) 1.2027(4) 0.1018(3)
H1 H 0.9092 1.1100 0.1092
C2 C 0.9884(4) 1.2944(5) 0.0864(3)
H2 H 1.0757 1.2629 0.0846
C3 C 0.9608(4) 1.4302(5) 0.0737(3)
H3 H 1.0287 1.4913 0.0638
C4 C 0.8312(4) 1.4764(4) 0.0757(3)
H4 H 0.8110 1.5688 0.0655
C5 C 0.7311(3) 1.3859(3) 0.0927(2)
H5 H 0.6443 1.4183 0.0949
C6 C 0.7586(3) 1.2477(3) 0.1064(2)
C7 C 0.6508(3) 1.1524(3) 0.1296(2)
C8 C 0.6513(3) 1.0157(3) 0.1034(2)
H6 H 0.7187 0.9854 0.0686
C9 C 0.5554(3) 0.9189(3) 0.1262(2)
C10 C 0.5695(4) 0.7738(3) 0.0927(3)
H7 H 0.6286 0.7245 0.1423
H8 H 0.6066 0.7735 0.0318
H9 H 0.4824 0.7306 0.0824
C11 C 0.3570(3) 0.8693(3) 0.2154(2)
H10 H 0.3432 0.7842 0.1771
C12 C 0.2248(3) 0.9485(4) 0.2039(2)
H11 H 0.1928 0.9627 0.1341
H12 H 0.2408 1.0378 0.2347
C13 C 0.1163(3) 0.8742(4) 0.2505(2)
H13 H 0.0356 0.9305 0.2447
H14 H 0.0931 0.7890 0.2155
C14 C 0.1655(3) 0.8440(5) 0.3590(2)
H15 H 0.0964 0.7942 0.3870
H16 H 0.1824 0.9294 0.3951
C15 C 0.2953(3) 0.7590(3) 0.3697(2)
H17 H 0.3266 0.7415 0.4392
H18 H 0.2768 0.6715 0.3368
C16 C 0.4051(3) 0.8337(4) 0.32469(19)
H19 H 0.4278 0.9188 0.3616
C17 C 0.7555(3) 0.6792(3) 0.3695(2)
H20 H 0.8440 0.7085 0.3884
C18 C 0.6532(3) 0.7782(3) 0.3664(2)
C19 C 0.6890(4) 0.9213(3) 0.4002(3)
H21 H 0.6739 0.9824 0.3445
H22 H 0.7823 0.9248 0.4293
H23 H 0.6336 0.9486 0.4483
N1 N 0.4593(3) 0.9523(3) 0.17681(19)
N2 N 0.5258(2) 0.7472(3) 0.33332(18)
O1 O 0.5573(2) 1.2033(2) 0.17388(16)
Mn1 Mn 0.48719(4) 1.34711(5) 0.26078(3)
Cl1 Cl 0.32663(8) 1.47949(9) 0.16176(6)
Cl2 Cl 0.43128(8) 1.21293(9) 0.38966(6)
C20 C 0.8511(3) 0.4439(3) 0.3574(2)
C21 C 0.7362(3) 0.5426(3) 0.3471(2)
O2 O 0.61624(19) 0.4957(2) 0.31783(17)
C22 C 1.0636(3) 0.2581(4) 0.3785(3)
H24 H 1.1347 0.1958 0.3868
C23 C 0.9374(3) 0.2175(4) 0.3932(3)
H25 H 0.9233 0.1273 0.4112
C24 C 1.0850(3) 0.3901(4) 0.3517(3)
H26 H 1.1702 0.4171 0.3398
C25 C 0.9800(3) 0.4836(3) 0.3422(2)
H27 H 0.9957 0.5740 0.3255
C26 C 0.8308(3) 0.3084(3) 0.3817(2)
H28 H 0.7450 0.2788 0.3902
H29 H 0.458(3) 1.035(3) 0.1906(19)
H30 H 0.503(3) 0.654(4) 0.316(2)
Mn1_2 Mn 0.48719(4) 0.34711(5) 0.26078(3)
O2_2 O 0.61624(19) 1.4957(2) 0.31783(17)
loop_
_geom_bond_atom_site_label_1
_geom_bond_atom_site_label_2
_geom_bond_site_symmetry_1
_geom_bond_site_symmetry_2
C1 H1 1_555 1_555
C2 C1 1_555 1_555
H2 C2 1_555 1_555
C3 C2 1_555 1_555
H3 C3 1_555 1_555
C4 C3 1_555 1_555
H4 C4 1_555 1_555
C5 C4 1_555 1_555
H5 C5 1_555 1_555
C6 C1 1_555 1_555
C7 C6 1_555 1_555
C8 C7 1_555 1_555
H6 C8 1_555 1_555
C9 C8 1_555 1_555
C10 C9 1_555 1_555
H7 C10 1_555 1_555
H8 C10 1_555 1_555
H9 C10 1_555 1_555
C11 H10 1_555 1_555
C12 C11 1_555 1_555
H11 C12 1_555 1_555
H12 C12 1_555 1_555
C13 C12 1_555 1_555
H13 C13 1_555 1_555
H14 C13 1_555 1_555
C14 C13 1_555 1_555
H15 C14 1_555 1_555
H16 C14 1_555 1_555
C15 C14 1_555 1_555
H17 C15 1_555 1_555
H18 C15 1_555 1_555
C16 C11 1_555 1_555
H19 C16 1_555 1_555
C17 H20 1_555 1_555
C18 C17 1_555 1_555
C19 C18 1_555 1_555
H21 C19 1_555 1_555
H22 C19 1_555 1_555
H23 C19 1_555 1_555
N1 C9 1_555 1_555
N2 C16 1_555 1_555
O1 C7 1_555 1_555
Mn1 O1 1_555 1_555
Cl1 Mn1 1_555 1_555
Cl2 Mn1 1_555 1_555
C20 C21 1_555 1_555
C21 C17 1_555 1_555
O2 C21 1_555 1_555
C22 H24 1_555 1_555
C23 C22 1_555 1_555
H25 C23 1_555 1_555
C24 C22 1_555 1_555
H26 C24 1_555 1_555
C25 C20 1_555 1_555
H27 C25 1_555 1_555
C26 C20 1_555 1_555
H28 C26 1_555 1_555
H29 N1 1_555 1_555
H30 N2 1_555 1_555
Mn1_2 O2 1_555 1_555
O2_2 Mn1 1_555 1_555
C5 C6 1_555 1_555
C11 N1 1_555 1_555
C15 C16 1_555 1_555
C18 N2 1_555 1_555
C23 C26 1_555 1_555
C24 C25 1_555 1_555

#END
