
#######################################################################
#
#                 Cambridge Crystallographic Data Centre
#                                CCDC 
#
#######################################################################
#
# If this CIF has been generated from an entry in the Cambridge 
# Structural Database, then it will include bibliographic, chemical, 
# crystal, experimental, refinement or atomic coordinate data resulting 
# from the CCDC's data processing and validation procedures.
#
#######################################################################

data_RIWGEL
_symmetry_cell_setting           monoclinic
_symmetry_space_group_name_H-M   'C 2/c'
_symmetry_Int_Tables_number      15
_space_group_name_Hall           '-C 2yn'
loop_
_symmetry_equiv_pos_site_id
_symmetry_equiv_pos_as_xyz
1 x,y,z
2 -x,y,1/2-z
3 1/2+x,1/2+y,z
4 1/2-x,1/2+y,1/2-z
5 -x,-y,-z
6 x,-y,1/2+z
7 1/2-x,1/2-y,-z
8 1/2+x,1/2-y,1/2+z
_cell_length_a                   25.0976(9)
_cell_length_b                   11.7435(4)
_cell_length_c                   20.7722(8)
_cell_angle_alpha                90
_cell_angle_beta                 123.5640(10)
_cell_angle_gamma                90
_cell_volume                     5101.49
loop_
_atom_site_label
_atom_site_type_symbol
_atom_site_fract_x
_atom_site_fract_y
_atom_site_fract_z
U1 U 0.215480(6) 0.960859(10) 0.270698(8)
O1 O 0.15151(13) 0.9509(2) 0.17177(15)
O2 O 0.28042(14) 0.9730(2) 0.36776(16)
O3 O 0.14755(13) 0.9609(2) 0.30687(16)
O4 O 0.12141(14) 1.0936(2) 0.36048(16)
O5 O 0.27377(12) 1.0804(2) 0.23291(15)
O6 O 0.19424(11) 1.1625(2) 0.26783(14)
O7 O 0.21921(12) 1.3396(2) 0.25444(16)
O8 O 0.29712(12) 1.2583(2) 0.21724(15)
C1 C 0.26867(17) 1.1862(3) 0.2322(2)
C2 C 0.22316(17) 1.2345(3) 0.2528(2)
C3 C 0.13576(17) 0.9961(3) 0.3574(2)
C4 C 0.14000(16) 0.9067(3) 0.4124(2)
C5 C 0.1567(2) 0.7958(3) 0.4117(2)
H1 H 0.1669 0.7730 0.3769
C6 C 0.1584(2) 0.7171(4) 0.4630(3)
H2 H 0.1685 0.6415 0.4614
C7 C 0.1450(2) 0.7511(4) 0.5161(3)
H3 H 0.1464 0.6987 0.5506
C8 C 0.1296(2) 0.8628(4) 0.5180(2)
H4 H 0.1214 0.8866 0.5545
C9 C 0.1263(2) 0.9392(3) 0.4658(2)
H5 H 0.1146 1.0141 0.4663
U1C U 0.284520(6) 1.460859(10) 0.229302(8)
O7C O 0.28079(12) 0.8396(2) 0.24556(16)
O8C O 0.20288(12) 0.7583(2) 0.28276(15)
Zn1 Zn 1.0000 0.41740(5) 0.2500
C10 C 0.85017(18) 0.4588(3) 0.1572(2)
H6 H 0.8576 0.4966 0.2008
C11 C 0.78778(19) 0.4565(3) 0.0914(2)
H7 H 0.7546 0.4913 0.0916
C12 C 0.77640(18) 0.4021(3) 0.0267(2)
H8 H 0.7353 0.4004 -0.0178
C13 C 0.82708(17) 0.3486(3) 0.0276(2)
C14 C 0.81918(19) 0.2874(3) -0.0361(2)
H9 H 0.7793 0.2864 -0.0825
C15 C 0.86821(19) 0.2307(3) -0.0308(2)
H10 H 0.8617 0.1913 -0.0734
C16 C 0.93045(18) 0.2306(3) 0.0401(2)
C17 C 0.94067(17) 0.2938(3) 0.1029(2)
C18 C 0.88782(16) 0.3535(3) 0.09712(19)
C19 C 0.9828(2) 0.1669(3) 0.0521(2)
H11 H 0.9789 0.1245 0.0118
C20 C 1.0389(2) 0.1673(3) 0.1223(2)
H12 H 1.0728 0.1225 0.1310
C21 C 1.04547(18) 0.2352(3) 0.1816(2)
H13 H 1.0844 0.2362 0.2292
C22 C 0.9670(2) 0.5626(4) 0.3527(2)
H14 H 0.9623 0.4931 0.3705
C23 C 0.9558(2) 0.6619(5) 0.3798(3)
H15 H 0.9432 0.6582 0.4143
C24 C 0.9633(2) 0.7648(5) 0.3553(3)
H16 H 0.9561 0.8317 0.3733
C25 C 0.98183(19) 0.7693(4) 0.3034(3)
C26 C 0.99102(17) 0.6651(3) 0.2775(2)
C27 C 0.9918(2) 0.8731(4) 0.2751(3)
H17 H 0.9864 0.9422 0.2927
N1 N 0.99793(14) 0.2980(2) 0.17173(17)
N2 N 0.89904(14) 0.4100(3) 0.16069(16)
N3 N 0.98409(15) 0.5624(3) 0.30282(19)
C22A C 1.0330(2) 0.5626(4) 0.1473(2)
H14A H 1.0377 0.4931 0.1295
C23A C 1.0442(2) 0.6619(5) 0.1202(3)
H15A H 1.0568 0.6582 0.0857
C24A C 1.0367(2) 0.7648(5) 0.1447(3)
H16A H 1.0439 0.8317 0.1267
C25A C 1.01817(19) 0.7693(4) 0.1966(3)
C26A C 1.00898(17) 0.6651(3) 0.2225(2)
C27A C 1.0082(2) 0.8731(4) 0.2249(3)
H17A H 1.0136 0.9422 0.2073
N3A N 1.01591(15) 0.5624(3) 0.19718(19)
C10A C 1.14983(18) 0.4588(3) 0.3428(2)
H6A H 1.1424 0.4966 0.2992
C11A C 1.21222(19) 0.4565(3) 0.4086(2)
H7A H 1.2454 0.4913 0.4084
C12A C 1.22360(18) 0.4021(3) 0.4733(2)
H8A H 1.2647 0.4004 0.5178
C13A C 1.17292(17) 0.3486(3) 0.4724(2)
C14A C 1.18082(19) 0.2874(3) 0.5361(2)
H9A H 1.2207 0.2864 0.5825
C15A C 1.13179(19) 0.2307(3) 0.5308(2)
H10A H 1.1383 0.1913 0.5734
C16A C 1.06955(18) 0.2306(3) 0.4599(2)
C17A C 1.05933(17) 0.2938(3) 0.3971(2)
C18A C 1.11218(16) 0.3535(3) 0.40288(19)
C19A C 1.0172(2) 0.1669(3) 0.4479(2)
H11A H 1.0211 0.1245 0.4882
C20A C 0.9611(2) 0.1673(3) 0.3777(2)
H12A H 0.9272 0.1225 0.3690
C21A C 0.95453(18) 0.2352(3) 0.3184(2)
H13A H 0.9156 0.2362 0.2708
N1A N 1.00207(14) 0.2980(2) 0.32827(17)
N2A N 1.10096(14) 0.4100(3) 0.33931(16)
loop_
_geom_bond_atom_site_label_1
_geom_bond_atom_site_label_2
_geom_bond_site_symmetry_1
_geom_bond_site_symmetry_2
U1 O1 1_555 1_555
O2 U1 1_555 1_555
O3 U1 1_555 1_555
O4 C3 1_555 1_555
O5 U1 1_555 1_555
O6 U1 1_555 1_555
O7 C2 1_555 1_555
O8 C1 1_555 1_555
C1 O5 1_555 1_555
C2 O6 1_555 1_555
C3 O3 1_555 1_555
C4 C3 1_555 1_555
C5 C4 1_555 1_555
H1 C5 1_555 1_555
C6 C5 1_555 1_555
H2 C6 1_555 1_555
C7 C6 1_555 1_555
H3 C7 1_555 1_555
C8 C7 1_555 1_555
H4 C8 1_555 1_555
C9 C4 1_555 1_555
H5 C9 1_555 1_555
Zn1 N1 1_555 1_555
C10 H6 1_555 1_555
C11 C10 1_555 1_555
H7 C11 1_555 1_555
C12 C11 1_555 1_555
H8 C12 1_555 1_555
C13 C12 1_555 1_555
C14 C13 1_555 1_555
H9 C14 1_555 1_555
C15 C14 1_555 1_555
H10 C15 1_555 1_555
C16 C15 1_555 1_555
C17 C16 1_555 1_555
C18 C13 1_555 1_555
C19 C16 1_555 1_555
H11 C19 1_555 1_555
C20 C19 1_555 1_555
H12 C20 1_555 1_555
C21 C20 1_555 1_555
H13 C21 1_555 1_555
C22 H14 1_555 1_555
C23 C22 1_555 1_555
H15 C23 1_555 1_555
C24 C23 1_555 1_555
H16 C24 1_555 1_555
C25 C24 1_555 1_555
C26 C25 1_555 1_555
C27 C25 1_555 1_555
H17 C27 1_555 1_555
N1 C17 1_555 1_555
N2 Zn1 1_555 1_555
N3 Zn1 1_555 1_555
U1C O7 1_555 1_555
O7C U1 1_555 1_555
O8C U1 1_555 1_555
C22A H14A 1_555 1_555
C23A C22A 1_555 1_555
H15A C23A 1_555 1_555
C24A C23A 1_555 1_555
H16A C24A 1_555 1_555
C25A C24A 1_555 1_555
C26A C26 1_555 1_555
C27A C27 1_555 1_555
H17A C27A 1_555 1_555
N3A Zn1 1_555 1_555
C10A H6A 1_555 1_555
C11A C10A 1_555 1_555
H7A C11A 1_555 1_555
C12A C11A 1_555 1_555
H8A C12A 1_555 1_555
C13A C12A 1_555 1_555
C14A C13A 1_555 1_555
H9A C14A 1_555 1_555
C15A C14A 1_555 1_555
H10A C15A 1_555 1_555
C16A C15A 1_555 1_555
C17A C16A 1_555 1_555
C18A C13A 1_555 1_555
C19A C16A 1_555 1_555
H11A C19A 1_555 1_555
C20A C19A 1_555 1_555
H12A C20A 1_555 1_555
C21A C20A 1_555 1_555
H13A C21A 1_555 1_555
N1A Zn1 1_555 1_555
N2A Zn1 1_555 1_555
O8 U1C 1_555 1_555
C1 C2 1_555 1_555
C8 C9 1_555 1_555
C10 N2 1_555 1_555
C17 C18 1_555 1_555
C18 N2 1_555 1_555
C21 N1 1_555 1_555
C22 N3 1_555 1_555
C26 N3 1_555 1_555
C22A N3A 1_555 1_555
C25A C26A 1_555 1_555
C25A C27A 1_555 1_555
C26A N3A 1_555 1_555
C10A N2A 1_555 1_555
C17A C18A 1_555 1_555
C17A N1A 1_555 1_555
C18A N2A 1_555 1_555
C21A N1A 1_555 1_555

#END
