
#######################################################################
#
#                 Cambridge Crystallographic Data Centre
#                                CCDC 
#
#######################################################################
#
# If this CIF has been generated from an entry in the Cambridge 
# Structural Database, then it will include bibliographic, chemical, 
# crystal, experimental, refinement or atomic coordinate data resulting 
# from the CCDC's data processing and validation procedures.
#
#######################################################################

data_RIWSOG
_symmetry_cell_setting           triclinic
_symmetry_space_group_name_H-M   'P 1'
_symmetry_Int_Tables_number      1
_space_group_name_Hall           'P 1'
loop_
_symmetry_equiv_pos_site_id
_symmetry_equiv_pos_as_xyz
1 x,y,z
_cell_length_a                   8.8575(10)
_cell_length_b                   9.0761(11)
_cell_length_c                   9.9599(12)
_cell_angle_alpha                85.761(2)
_cell_angle_beta                 81.076(2)
_cell_angle_gamma                71.338(2)
_cell_volume                     749.159
loop_
_atom_site_label
_atom_site_type_symbol
_atom_site_fract_x
_atom_site_fract_y
_atom_site_fract_z
Zn1 Zn 0.14938(6) 0.61428(6) -0.31183(6)
Zn2 Zn -1.17017(6) 1.35645(6) 0.41608(5)
O1 O -0.0329(5) 0.7869(4) -0.1954(4)
O2 O -0.1255(5) 0.9518(4) -0.3643(4)
O3 O -0.5699(5) 1.3163(5) 0.2725(4)
O4 O -0.9883(4) 1.3527(4) 0.2465(4)
O5 O -1.0247(6) 1.5250(6) 0.4024(5)
O6 O -0.0160(6) 0.4644(5) -0.2865(4)
O7 O 0.1639(4) 0.4451(4) -0.1510(4)
O8 O 0.2209(5) 0.0004(4) -0.1572(4)
O9 O 0.5425(5) -0.3005(4) 0.4849(4)
O10 O 0.6580(5) -0.4746(4) 0.3209(4)
O11 O 0.0913(5) 0.7158(5) -0.4927(4)
H1 H 0.035(7) 0.798(5) -0.460(7)
H2 H 0.037(7) 0.672(8) -0.525(6)
O12 O 0.3181(5) 0.7138(5) -0.2835(5)
H3 H 0.277(8) 0.800(4) -0.249(7)
H4 H 0.359(8) 0.728(8) -0.362(3)
O13 O 0.3319(5) 0.4344(5) -0.4286(4)
H5 H 0.308(8) 0.353(5) -0.418(7)
H6 H 0.335(9) 0.448(9) -0.512(2)
O14 O -1.0000(5) 1.1694(5) 0.5000(5)
H7 H -0.911(4) 1.167(8) 0.516(7)
H8 H -1.011(9) 1.092(5) 0.543(6)
O15 O -1.2804(6) 1.2089(5) 0.3636(5)
H9 H -1.362(5) 1.263(7) 0.336(7)
H10 H -1.275(9) 1.121(4) 0.392(7)
O16 O -1.2701(5) 1.4352(5) 0.6071(4)
H11 H -1.196(6) 1.449(8) 0.641(6)
H12 H -1.322(8) 1.526(4) 0.587(7)
N1 N -0.7237(5) 1.4276(5) 0.1090(4)
H13 H -0.7384 1.4296 0.0234
N2 N 0.0975(5) 0.1894(5) -0.0067(4)
H14 H 0.0953 0.2258 0.0733
C1 C -0.1269(7) 0.9087(7) -0.2386(6)
C2 C -0.2533(7) 1.0134(7) -0.1383(6)
C3 C -0.2663(7) 0.9744(7) 0.0004(6)
H15 H -0.1970 0.8790 0.0317
C4 C -0.3784(7) 1.0727(7) 0.0917(6)
H16 H -0.3864 1.0447 0.1857
C5 C -0.4816(7) 1.2144(7) 0.0472(6)
C6 C -0.4720(7) 1.2533(7) -0.0901(6)
H17 H -0.5430 1.3477 -0.1214
C7 C -0.3566(7) 1.1522(7) -0.1830(6)
H18 H -0.3491 1.1791 -0.2773
C8 C -0.5939(6) 1.3224(6) 0.1527(6)
C9 C -0.8391(7) 1.5376(6) 0.2026(6)
H19 H -0.781(7) 1.570(7) 0.262(6)
C10 C -0.9373(7) 1.6763(7) 0.1246(6)
H20 H -0.8647 1.7207 0.0630
H21 H -1.0065 1.7551 0.1887
H22 H -1.0042 1.6424 0.0716
C11 C -0.9547(6) 1.4644(6) 0.2896(6)
C12 C 0.0526(6) 0.4030(6) -0.1839(5)
C13 C -0.0120(7) 0.2840(6) -0.0975(6)
H23 H -0.0352 0.2141 -0.1590
C14 C -0.1692(6) 0.3754(7) -0.0135(6)
H24 H -0.2150 0.3032 0.0434
H25 H -0.2454 0.4346 -0.0745
H26 H -0.1482 0.4473 0.0445
C15 C 0.2008(6) 0.0499(7) -0.0398(5)
C16 C 0.2907(7) -0.0487(7) 0.0680(6)
C17 C 0.4170(8) -0.1811(8) 0.0282(6)
H27 H 0.4444 -0.2073 -0.0649
C18 C 0.5034(8) -0.2757(7) 0.1250(7)
H28 H 0.5909 -0.3650 0.0966
C19 C 0.4645(7) -0.2423(7) 0.2614(6)
C20 C 0.3383(7) -0.1101(7) 0.3018(6)
H29 H 0.3117 -0.0841 0.3950
C21 C 0.2503(8) -0.0154(8) 0.2054(6)
H30 H 0.1617 0.0730 0.2341
C22 C 0.5604(6) -0.3471(6) 0.3635(6)
Zn2_2 Zn 0.82983(6) -0.64355(6) 0.41608(5)
O10_2 O -1.3420(5) 1.5254(4) 0.3209(4)
O17 O 0.6106(5) 0.9727(5) 0.5084(5)
H31 H 0.585(9) 0.897(6) 0.493(7)
H32 H 0.689(6) 0.947(9) 0.551(6)
O18 O 0.2916(5) 0.1446(5) 0.5989(4)
H33 H 0.382(4) 0.108(8) 0.560(7)
H34 H 0.283(9) 0.106(8) 0.676(3)
loop_
_geom_bond_atom_site_label_1
_geom_bond_atom_site_label_2
_geom_bond_site_symmetry_1
_geom_bond_site_symmetry_2
Zn1 O1 1_555 1_555
Zn2 O4 1_555 1_555
O1 C1 1_555 1_555
O2 C1 1_555 1_555
O3 C8 1_555 1_555
O4 C11 1_555 1_555
O5 Zn2 1_555 1_555
O6 Zn1 1_555 1_555
O7 Zn1 1_555 1_555
O8 C15 1_555 1_555
O9 C22 1_555 1_555
O10 C22 1_555 1_555
O11 Zn1 1_555 1_555
H1 O11 1_555 1_555
H2 O11 1_555 1_555
O12 Zn1 1_555 1_555
H3 O12 1_555 1_555
H4 O12 1_555 1_555
O13 Zn1 1_555 1_555
H5 O13 1_555 1_555
H6 O13 1_555 1_555
O14 Zn2 1_555 1_555
H7 O14 1_555 1_555
H8 O14 1_555 1_555
O15 Zn2 1_555 1_555
H9 O15 1_555 1_555
H10 O15 1_555 1_555
O16 Zn2 1_555 1_555
H11 O16 1_555 1_555
H12 O16 1_555 1_555
N1 H13 1_555 1_555
N2 H14 1_555 1_555
C1 C2 1_555 1_555
C2 C3 1_555 1_555
C3 H15 1_555 1_555
C4 C3 1_555 1_555
H16 C4 1_555 1_555
C5 C4 1_555 1_555
C6 C5 1_555 1_555
H17 C6 1_555 1_555
C7 C2 1_555 1_555
H18 C7 1_555 1_555
C8 N1 1_555 1_555
C9 N1 1_555 1_555
H19 C9 1_555 1_555
C10 C9 1_555 1_555
H20 C10 1_555 1_555
H21 C10 1_555 1_555
H22 C10 1_555 1_555
C11 O5 1_555 1_555
C12 O6 1_555 1_555
C13 N2 1_555 1_555
H23 C13 1_555 1_555
C14 C13 1_555 1_555
H24 C14 1_555 1_555
H25 C14 1_555 1_555
H26 C14 1_555 1_555
C15 N2 1_555 1_555
C16 C15 1_555 1_555
C17 C16 1_555 1_555
H27 C17 1_555 1_555
C18 C17 1_555 1_555
H28 C18 1_555 1_555
C19 C18 1_555 1_555
C20 C19 1_555 1_555
H29 C20 1_555 1_555
C21 C16 1_555 1_555
H30 C21 1_555 1_555
C22 C19 1_555 1_555
O17 H31 1_555 1_555
H32 O17 1_555 1_555
O18 H33 1_555 1_555
H34 O18 1_555 1_555
Zn2_2 O10 1_555 1_555
O10_2 Zn2 1_555 1_555
O7 C12 1_555 1_555
C5 C8 1_555 1_555
C6 C7 1_555 1_555
C9 C11 1_555 1_555
C12 C13 1_555 1_555
C20 C21 1_555 1_555

#END
