
#######################################################################
#
#                 Cambridge Crystallographic Data Centre
#                                CCDC 
#
#######################################################################
#
# If this CIF has been generated from an entry in the Cambridge 
# Structural Database, then it will include bibliographic, chemical, 
# crystal, experimental, refinement or atomic coordinate data resulting 
# from the CCDC's data processing and validation procedures.
#
#######################################################################

data_RIWTUO
_symmetry_cell_setting           monoclinic
_symmetry_space_group_name_H-M   'P 21/n'
_symmetry_Int_Tables_number      14
_space_group_name_Hall           '-P 2yn'
loop_
_symmetry_equiv_pos_site_id
_symmetry_equiv_pos_as_xyz
1 x,y,z
2 1/2-x,1/2+y,1/2-z
3 -x,-y,-z
4 1/2+x,1/2-y,1/2+z
_cell_length_a                   9.2754(9)
_cell_length_b                   12.4668(12)
_cell_length_c                   12.7002(12)
_cell_angle_alpha                90
_cell_angle_beta                 91.790(2)
_cell_angle_gamma                90
_cell_volume                     1467.87
loop_
_atom_site_label
_atom_site_type_symbol
_atom_site_fract_x
_atom_site_fract_y
_atom_site_fract_z
U1 U 0.21611(4) -0.09566(3) 0.77548(2)
O1 O 0.3699(7) -0.0348(5) 0.7235(5)
O2 O 0.0643(7) -0.1578(5) 0.8297(5)
O3 O 0.1979(7) 0.2297(5) 0.7876(4)
O4 O 0.2297(7) 0.4849(4) 0.5569(4)
O5 O 0.1293(7) 0.4872(5) 0.3950(4)
O6 O 0.0958(7) 0.0709(4) 0.7619(4)
O7 O -0.1168(7) 0.1152(4) 0.3913(4)
C1 C 0.0889(9) 0.1963(7) 0.6201(6)
C2 C 0.0095(9) 0.1330(6) 0.5539(6)
H1 H -0.0158 0.0641 0.5745
C3 C -0.0353(10) 0.1723(7) 0.4523(7)
C4 C 0.0134(9) 0.2764(7) 0.4292(6)
H2 H -0.0116 0.3078 0.3648
C5 C 0.0975(9) 0.3316(6) 0.5015(6)
C6 C 0.1554(9) 0.4447(6) 0.4808(7)
C7 C 0.1329(10) 0.1613(7) 0.7320(7)
N1 N 0.1343(7) 0.2960(5) 0.5965(5)
U1A U 0.28389(4) 0.40434(3) 0.72452(2)
U1B U -0.21611(4) 0.09566(3) 0.22452(2)
O3A O 0.3021(7) -0.2703(5) 0.7124(4)
O4A O 0.2703(7) -0.0151(4) 0.9431(4)
O7B O 0.1168(7) -0.1152(4) 0.6087(4)
N1A N 0.3657(7) -0.2040(5) 0.9035(5)
C8 C 1.0571(10) 0.6036(7) 1.0014(7)
H3 H 1.0928 0.6733 1.0016
C9 C 0.7253(11) 0.7615(7) 0.7821(8)
H4 H 0.6796 0.7841 0.7197
C10 C 0.8094(10) 0.7622(6) 0.9466(7)
H5 H 0.8313 0.7833 1.0155
C11 C 0.8641(11) 0.4781(7) 0.9511(7)
H6 H 0.7744 0.4657 0.9187
C12 C 0.7902(11) 0.6673(7) 0.7997(7)
H7 H 0.7979 0.6115 0.7515
C13 C 0.9261(10) 0.5811(7) 0.9539(7)
N2 N 0.7398(8) 0.8192(5) 0.8759(6)
H8 H 0.7074 0.8829 0.8856
N3 N 0.8444(8) 0.6675(5) 0.9032(6)
C8B C 0.9429(10) 0.3964(7) 0.9986(7)
H3B H 0.9072 0.3267 0.9984
C9B C 1.2747(11) 0.2385(7) 1.2179(8)
H4B H 1.3204 0.2159 1.2803
C10B C 1.1906(10) 0.2378(6) 1.0534(7)
H5B H 1.1687 0.2167 0.9845
C11B C 1.1359(11) 0.5219(7) 1.0489(7)
H6B H 1.2256 0.5343 1.0813
C12B C 1.2098(11) 0.3327(7) 1.2003(7)
H7B H 1.2021 0.3885 1.2485
C13B C 1.0739(10) 0.4189(7) 1.0461(7)
N2B N 1.2602(8) 0.1808(5) 1.1241(6)
H8B H 1.2926 0.1171 1.1144
N3B N 1.1556(8) 0.3325(5) 1.0968(6)
loop_
_geom_bond_atom_site_label_1
_geom_bond_atom_site_label_2
_geom_bond_site_symmetry_1
_geom_bond_site_symmetry_2
U1 O1 1_555 1_555
O2 U1 1_555 1_555
O3 C7 1_555 1_555
O4 C6 1_555 1_555
O5 C6 1_555 1_555
O6 U1 1_555 1_555
O7 C3 1_555 1_555
C1 C2 1_555 1_555
C2 H1 1_555 1_555
C3 C2 1_555 1_555
C4 C3 1_555 1_555
H2 C4 1_555 1_555
C5 C4 1_555 1_555
C6 C5 1_555 1_555
C7 O6 1_555 1_555
N1 C1 1_555 1_555
C8 H3 1_555 1_555
C9 H4 1_555 1_555
C10 H5 1_555 1_555
C11 H6 1_555 1_555
C12 C9 1_555 1_555
H7 C12 1_555 1_555
C13 C8 1_555 1_555
N2 C9 1_555 1_555
H8 N2 1_555 1_555
N3 C10 1_555 1_555
U1A O3 1_555 1_555
U1B O7 1_555 1_555
O3A U1 1_555 1_555
O4A U1 1_555 1_555
O7B U1 1_555 1_555
N1A U1 1_555 1_555
C8B C11 1_555 1_555
H3B C8B 1_555 1_555
C9B H4B 1_555 1_555
C10B H5B 1_555 1_555
C11B C8 1_555 1_555
H6B C11B 1_555 1_555
C12B C9B 1_555 1_555
H7B C12B 1_555 1_555
C13B C8B 1_555 1_555
N2B C9B 1_555 1_555
H8B N2B 1_555 1_555
N3B C10B 1_555 1_555
O4 U1A 1_555 1_555
C1 C7 1_555 1_555
C5 N1 1_555 1_555
N1 U1A 1_555 1_555
C10 N2 1_555 1_555
C11 C13 1_555 1_555
C12 N3 1_555 1_555
C13 N3 1_555 1_555
C10B N2B 1_555 1_555
C11B C13B 1_555 1_555
C12B N3B 1_555 1_555
C13B N3B 1_555 1_555

#END
