
#######################################################################
#
#                 Cambridge Crystallographic Data Centre
#                                CCDC 
#
#######################################################################
#
# If this CIF has been generated from an entry in the Cambridge 
# Structural Database, then it will include bibliographic, chemical, 
# crystal, experimental, refinement or atomic coordinate data resulting 
# from the CCDC's data processing and validation procedures.
#
#######################################################################

data_RIWTIC
_symmetry_cell_setting           triclinic
_symmetry_space_group_name_H-M   'P -1'
_symmetry_Int_Tables_number      2
_space_group_name_Hall           '-P 1'
loop_
_symmetry_equiv_pos_site_id
_symmetry_equiv_pos_as_xyz
1 x,y,z
2 -x,-y,-z
_cell_length_a                   10.6455(5)
_cell_length_b                   11.1830(6)
_cell_length_c                   11.4638(6)
_cell_angle_alpha                79.0370(10)
_cell_angle_beta                 84.6470(10)
_cell_angle_gamma                71.8160(10)
_cell_volume                     1272.09
loop_
_atom_site_label
_atom_site_type_symbol
_atom_site_fract_x
_atom_site_fract_y
_atom_site_fract_z
U1 U 0.822704(18) -0.097959(17) 0.600860(16)
O1 O 0.8840(4) -0.2183(3) 0.7223(3)
O2 O 0.7573(4) 0.0216(3) 0.4801(3)
O3 O 0.6438(4) 0.0086(4) 0.7302(3)
O4 O 0.9807(3) 0.1563(3) 0.5066(3)
O5 O 0.9124(4) 0.0438(3) 0.6669(3)
O6 O 0.8031(4) 0.7441(4) 1.4907(4)
O7 O 0.6263(4) 0.8289(4) 1.5932(4)
O8 O 0.4458(4) -0.0025(4) 0.6953(4)
H1 H 0.4903 -0.0577 0.6577
O9 O 0.5386(5) 0.2751(6) 1.0615(6)
O10 O 0.9110(7) 0.2823(5) 0.9933(4)
O11 O 0.6782(5) 0.4780(5) 1.2505(4)
C1 C 0.7214(7) 0.3151(6) 1.1311(6)
C2 C 0.6641(9) 0.2665(10) 1.0423(10)
H2 H 0.6754 0.3138 0.9640
H3 H 0.7139 0.1777 1.0421
C3 C 0.8218(10) 0.3730(8) 1.0601(7)
H4 H 0.7765 0.4493 1.0061
H5 H 0.8714 0.3973 1.1135
C4 C 0.6152(7) 0.4173(6) 1.1873(6)
H6 H 0.5621 0.4796 1.1259
H7 H 0.5573 0.3784 1.2409
C5 C 0.7905(8) 0.2092(8) 1.2260(7)
H8 H 0.7321 0.1605 1.2600
H9 H 0.8159 0.2445 1.2868
H10 H 0.8680 0.1546 1.1919
C6 C 0.4725(6) 0.2250(6) 0.9951(6)
C7 C 0.3415(6) 0.2406(6) 1.0267(6)
H11 H 0.3023 0.2845 1.0885
C8 C 0.2686(6) 0.1916(6) 0.9675(6)
H12 H 0.1802 0.2017 0.9900
C9 C 0.3250(6) 0.1270(6) 0.8742(6)
H13 H 0.2746 0.0955 0.8329
C10 C 0.4578(5) 0.1104(5) 0.8439(4)
C11 C 0.5315(5) 0.1601(5) 0.9030(5)
H14 H 0.6200 0.1502 0.8812
C12 C 0.5239(5) 0.0349(5) 0.7516(5)
C13 C 0.9122(8) 0.3154(6) 0.8709(5)
C14 C 0.9218(6) 0.2198(5) 0.8066(5)
H15 H 0.9218 0.1391 0.8460
C15 C 0.9315(5) 0.2444(5) 0.6839(4)
C16 C 0.9291(5) 0.3654(5) 0.6263(5)
H16 H 0.9353 0.3827 0.5437
C17 C 0.9176(7) 0.4600(6) 0.6911(6)
H17 H 0.9155 0.5414 0.6517
C18 C 0.9093(8) 0.4359(6) 0.8133(6)
H18 H 0.9019 0.5004 0.8566
C19 C 0.9430(5) 0.1411(5) 0.6153(5)
C20 C 0.6028(6) 0.5590(5) 1.3236(5)
C21 C 0.4687(6) 0.5847(5) 1.3436(5)
H19 H 0.4215 0.5486 1.3039
C22 C 0.4044(6) 0.6641(5) 1.4228(6)
H20 H 0.3136 0.6806 1.4367
C23 C 0.4729(5) 0.7199(5) 1.4819(5)
H21 H 0.4289 0.7731 1.5356
C24 C 0.6071(5) 0.6954(5) 1.4599(5)
C25 C 0.6732(5) 0.6156(5) 1.3802(4)
H22 H 0.7637 0.6002 1.3648
C26 C 0.6828(5) 0.7587(5) 1.5162(5)
U1_2 U 0.822704(18) 0.902041(17) 1.600860(16)
U1A U 1.177296(18) 0.097959(17) 0.399140(16)
O4A O 1.0193(3) -0.1563(3) 0.4934(3)
O6_2 O 0.8031(4) -0.2559(4) 0.4907(4)
O7_2 O 0.6263(4) -0.1711(4) 0.5932(4)
loop_
_geom_bond_atom_site_label_1
_geom_bond_atom_site_label_2
_geom_bond_site_symmetry_1
_geom_bond_site_symmetry_2
U1 O1 1_555 1_555
O2 U1 1_555 1_555
O3 U1 1_555 1_555
O4 C19 1_555 1_555
O5 U1 1_555 1_555
O6 C26 1_555 1_555
O7 C26 1_555 1_555
O8 H1 1_555 1_555
O9 C2 1_555 1_555
O10 C3 1_555 1_555
O11 C4 1_555 1_555
C1 C2 1_555 1_555
C2 H2 1_555 1_555
H3 C2 1_555 1_555
C3 C1 1_555 1_555
H4 C3 1_555 1_555
H5 C3 1_555 1_555
C4 C1 1_555 1_555
H6 C4 1_555 1_555
H7 C4 1_555 1_555
C5 C1 1_555 1_555
H8 C5 1_555 1_555
H9 C5 1_555 1_555
H10 C5 1_555 1_555
C6 O9 1_555 1_555
C7 C6 1_555 1_555
H11 C7 1_555 1_555
C8 C7 1_555 1_555
H12 C8 1_555 1_555
C9 C8 1_555 1_555
H13 C9 1_555 1_555
C10 C9 1_555 1_555
C11 C6 1_555 1_555
H14 C11 1_555 1_555
C12 O3 1_555 1_555
C13 O10 1_555 1_555
C14 C13 1_555 1_555
H15 C14 1_555 1_555
C15 C14 1_555 1_555
C16 C15 1_555 1_555
H16 C16 1_555 1_555
C17 C16 1_555 1_555
H17 C17 1_555 1_555
C18 C13 1_555 1_555
H18 C18 1_555 1_555
C19 O5 1_555 1_555
C20 O11 1_555 1_555
C21 C20 1_555 1_555
H19 C21 1_555 1_555
C22 C21 1_555 1_555
H20 C22 1_555 1_555
C23 C22 1_555 1_555
H21 C23 1_555 1_555
C24 C23 1_555 1_555
C25 C20 1_555 1_555
H22 C25 1_555 1_555
C26 C24 1_555 1_555
U1_2 O6 1_555 1_555
U1A O4 1_555 1_555
O4A U1 1_555 1_555
O6_2 U1 1_555 1_555
O7_2 U1 1_555 1_555
O7 U1_2 1_555 1_555
O8 C12 1_555 1_555
C10 C11 1_555 1_555
C10 C12 1_555 1_555
C15 C19 1_555 1_555
C17 C18 1_555 1_555
C24 C25 1_555 1_555

#END
