
#######################################################################
#
#                 Cambridge Crystallographic Data Centre
#                                CCDC 
#
#######################################################################
#
# If this CIF has been generated from an entry in the Cambridge 
# Structural Database, then it will include bibliographic, chemical, 
# crystal, experimental, refinement or atomic coordinate data resulting 
# from the CCDC's data processing and validation procedures.
#
#######################################################################

data_RIWVEZ
_symmetry_cell_setting           monoclinic
_symmetry_space_group_name_H-M   'C 2/c'
_symmetry_Int_Tables_number      15
_space_group_name_Hall           '-C 2yn'
loop_
_symmetry_equiv_pos_site_id
_symmetry_equiv_pos_as_xyz
1 x,y,z
2 1/2+x,1/2+y,z
3 -x,y,1/2-z
4 1/2-x,1/2+y,1/2-z
5 -x,-y,-z
6 1/2-x,1/2-y,-z
7 x,-y,1/2+z
8 1/2+x,1/2-y,1/2+z
_cell_length_a                   15.389(3)
_cell_length_b                   9.4636(19)
_cell_length_c                   12.728(3)
_cell_angle_alpha                90
_cell_angle_beta                 104.98(3)
_cell_angle_gamma                90
_cell_volume                     1790.65
loop_
_atom_site_label
_atom_site_type_symbol
_atom_site_fract_x
_atom_site_fract_y
_atom_site_fract_z
C1 C 0.49433(10) 0.19775(16) -0.12761(11)
C2 C 0.49391(10) 0.32605(15) -0.19735(11)
C3 C 0.48634(13) 0.45537(19) -0.14799(14)
H1 H 0.4766 0.4562 -0.0789
C4 C 0.49292(14) 0.58252(19) -0.19912(17)
H2 H 0.4877 0.6675 -0.1645
C5 C 0.67409(12) 0.1799(2) 0.08845(13)
H3 H 0.6767 0.2139 0.0208
C6 C 0.62981(11) 0.07276(18) 0.21289(12)
H4 H 0.5960 0.0190 0.2491
C7 C 0.73596(14) 0.2061(3) 0.18330(15)
H5 H 0.7876 0.2608 0.1930
C8 C 0.75016(12) 0.1307(2) 0.37933(13)
H6 H 0.8149 0.1255 0.3906
H7 H 0.7309 0.0455 0.4092
C9 C 0.72783(13) 0.2561(2) 0.43911(12)
H8 H 0.6631 0.2626 0.4273
H9 H 0.7485 0.3415 0.4110
N1 N 0.60713(9) 0.09579(15) 0.10688(9)
N2 N 0.70723(9) 0.13614(17) 0.26165(10)
Ni1 Ni 0.5000 0.0000 0.0000
O1 O 0.44675(7) 0.19958(12) -0.06045(8)
O2 O 0.54474(7) 0.09385(11) -0.13130(7)
C1B C 0.50567(10) 0.19775(16) -0.37239(11)
C2B C 0.50609(10) 0.32605(15) -0.30265(11)
C3B C 0.51366(13) 0.45537(19) -0.35201(14)
H1B H 0.5234 0.4562 -0.4211
C4B C 0.50708(14) 0.58252(19) -0.30088(17)
H2B H 0.5123 0.6675 -0.3355
C5E C 0.82591(12) 0.3201(2) 0.91155(13)
H3E H 0.8233 0.2861 0.9792
C6E C 0.87019(11) 0.42724(18) 0.78711(12)
H4E H 0.9040 0.4810 0.7509
C7E C 0.76404(14) 0.2939(3) 0.81670(15)
H5E H 0.7124 0.2392 0.8070
C8E C 0.74984(12) 0.3693(2) 0.62067(13)
H6E H 0.6851 0.3745 0.6094
H7E H 0.7691 0.4545 0.5908
C9E C 0.77217(13) 0.2439(2) 0.56089(12)
H8E H 0.8369 0.2374 0.5727
H9E H 0.7515 0.1585 0.5890
N1E N 0.89287(9) 0.40421(15) 0.89312(9)
N1D N 0.39287(9) -0.09579(15) -0.10688(9)
N2E N 0.79277(9) 0.36386(17) 0.73835(10)
Ni1B Ni 0.5000 0.0000 -0.5000
Ni1A Ni 1.0000 0.5000 1.0000
O1B O 0.55325(7) 0.19958(12) -0.43955(8)
O1D O 0.55325(7) -0.19958(12) 0.06045(8)
O2B O 0.45526(7) 0.09385(11) -0.36870(7)
O2D O 0.45526(7) -0.09385(11) 0.13130(7)
loop_
_geom_bond_atom_site_label_1
_geom_bond_atom_site_label_2
_geom_bond_site_symmetry_1
_geom_bond_site_symmetry_2
C1 C2 1_555 1_555
C2 C3 1_555 1_555
C3 H1 1_555 1_555
C4 C3 1_555 1_555
H2 C4 1_555 1_555
C5 H3 1_555 1_555
C6 H4 1_555 1_555
C7 C5 1_555 1_555
H5 C7 1_555 1_555
C8 H6 1_555 1_555
H7 C8 1_555 1_555
C9 C8 1_555 1_555
H8 C9 1_555 1_555
H9 C9 1_555 1_555
N1 C5 1_555 1_555
N2 C6 1_555 1_555
Ni1 N1 1_555 1_555
O1 C1 1_555 1_555
O2 C1 1_555 1_555
C1B C2B 1_555 1_555
C2B C2 1_555 1_555
C3B C2B 1_555 1_555
H1B C3B 1_555 1_555
C4B C4 1_555 1_555
H2B C4B 1_555 1_555
C5E H3E 1_555 1_555
C6E H4E 1_555 1_555
C7E C5E 1_555 1_555
H5E C7E 1_555 1_555
C8E H6E 1_555 1_555
H7E C8E 1_555 1_555
C9E C9 1_555 1_555
H8E C9E 1_555 1_555
H9E C9E 1_555 1_555
N1E C5E 1_555 1_555
N1D Ni1 1_555 1_555
N2E C6E 1_555 1_555
Ni1B O1B 1_555 1_555
Ni1A N1E 1_555 1_555
O1B C1B 1_555 1_555
O1D Ni1 1_555 1_555
O2B C1B 1_555 1_555
O2D Ni1 1_555 1_555
C6 N1 1_555 1_555
C7 N2 1_555 1_555
C8 N2 1_555 1_555
Ni1 O1 1_555 1_555
Ni1 O2 1_555 1_555
C3B C4B 1_555 1_555
C6E N1E 1_555 1_555
C7E N2E 1_555 1_555
C8E C9E 1_555 1_555
C8E N2E 1_555 1_555
Ni1B O2B 1_555 1_555

#END
