
#######################################################################
#
#                 Cambridge Crystallographic Data Centre
#                                CCDC 
#
#######################################################################
#
# If this CIF has been generated from an entry in the Cambridge 
# Structural Database, then it will include bibliographic, chemical, 
# crystal, experimental, refinement or atomic coordinate data resulting 
# from the CCDC's data processing and validation procedures.
#
#######################################################################

data_RIWVAV
_symmetry_cell_setting           monoclinic
_symmetry_space_group_name_H-M   'C c'
_symmetry_Int_Tables_number      9
_space_group_name_Hall           'C -2yc'
loop_
_symmetry_equiv_pos_site_id
_symmetry_equiv_pos_as_xyz
1 x,y,z
2 x,-y,1/2+z
3 1/2+x,1/2+y,z
4 1/2+x,1/2-y,1/2+z
_cell_length_a                   10.452(2)
_cell_length_b                   18.951(4)
_cell_length_c                   10.550(2)
_cell_angle_alpha                90
_cell_angle_beta                 103.78(3)
_cell_angle_gamma                90
_cell_volume                     2029.55
loop_
_atom_site_label
_atom_site_type_symbol
_atom_site_fract_x
_atom_site_fract_y
_atom_site_fract_z
Co1 Co 0.59644(2) 0.202594(12) 0.91127(2)
C1 C 0.2986(2) 0.20672(11) 0.8781(2)
H1 H 0.2793 0.1871 0.7949
C2 C 0.4010(2) 0.25348(14) 1.0578(2)
H2 H 0.4682 0.2725 1.1229
C3 C 0.2743(2) 0.24790(13) 1.0643(2)
H3 H 0.2384 0.2617 1.1331
C4 C 0.0682(2) 0.20108(11) 0.9122(3)
H4 H 0.0284 0.2254 0.8316
H5 H 0.0269 0.2185 0.9792
C5 C 0.0412(2) 0.12294(12) 0.8937(2)
C6 C -0.0648(4) 0.10078(16) 0.8015(4)
H6 H -0.1200 0.1340 0.7512
C7 C -0.0929(4) 0.02929(18) 0.7805(4)
H7 H -0.1637 0.0155 0.7136
C8 C -0.0170(3) -0.02152(13) 0.8580(3)
C9 C 0.0858(3) 0.00178(15) 0.9530(3)
H8 H 0.1372 -0.0309 1.0084
C10 C 0.1164(3) 0.07245(15) 0.9697(3)
H9 H 0.1896 0.0861 1.0340
C11 C -0.0426(3) -0.09953(15) 0.8387(4)
H10 H 0.0251 -0.1199 0.8011
H11 H -0.0357 -0.1214 0.9231
C12 C -0.1966(3) -0.14384(12) 0.6351(3)
H12 H -0.1316 -0.1567 0.5928
C13 C -0.2904(3) -0.10597(16) 0.7832(3)
H13 H -0.3052 -0.0878 0.8604
C14 C -0.3823(3) -0.12736(14) 0.6783(3)
H14 H -0.4728 -0.1264 0.6706
C15 C 0.4582(2) 0.11288(11) 0.5542(2)
C16 C 0.3544(2) 0.13315(10) 0.45189(19)
C17 C 0.3246(3) 0.09258(13) 0.3383(2)
H15 H 0.2568 0.1065 0.2686
C18 C 0.3949(3) 0.03173(14) 0.3286(3)
H16 H 0.3748 0.0053 0.2521
C19 C 0.4938(3) 0.01042(14) 0.4310(3)
H17 H 0.5391 -0.0312 0.4252
C20 C 0.5264(3) 0.05081(11) 0.5432(2)
H18 H 0.5947 0.0364 0.6121
C21 C 0.50279(19) 0.15723(10) 0.67383(19)
C22 C 0.2606(2) 0.19184(11) 0.4627(2)
N1 N 0.41669(19) 0.22721(10) 0.94198(18)
N2 N 0.20929(19) 0.21792(9) 0.94931(19)
N3 N -0.1713(2) -0.11616(10) 0.7546(2)
N4 N -0.3215(2) -0.15093(10) 0.58422(19)
O1 O 0.56220(17) 0.12614(8) 0.77811(15)
O2 O 0.48482(16) 0.22211(7) 0.66954(15)
O3 O 0.19370(18) 0.18723(9) 0.54473(19)
O4 O 0.24656(19) 0.24077(10) 0.37775(16)
Co1A Co -0.40356(2) -0.202594(12) 0.41127(2)
Co1C Co 0.09644(2) 0.297406(12) 0.41127(2)
N4A N 0.6785(2) 0.15093(10) 1.08422(19)
O4C O 0.74656(19) 0.25923(10) 0.87775(16)
loop_
_geom_bond_atom_site_label_1
_geom_bond_atom_site_label_2
_geom_bond_site_symmetry_1
_geom_bond_site_symmetry_2
Co1 N1 1_555 1_555
C1 H1 1_555 1_555
C2 H2 1_555 1_555
C3 C2 1_555 1_555
H3 C3 1_555 1_555
C4 H4 1_555 1_555
H5 C4 1_555 1_555
C5 C4 1_555 1_555
C6 C5 1_555 1_555
H6 C6 1_555 1_555
C7 C6 1_555 1_555
H7 C7 1_555 1_555
C8 C7 1_555 1_555
C9 C8 1_555 1_555
H8 C9 1_555 1_555
C10 C5 1_555 1_555
H9 C10 1_555 1_555
C11 C8 1_555 1_555
H10 C11 1_555 1_555
H11 C11 1_555 1_555
C12 H12 1_555 1_555
C13 H13 1_555 1_555
C14 C13 1_555 1_555
H14 C14 1_555 1_555
C15 C16 1_555 1_555
C16 C17 1_555 1_555
C17 H15 1_555 1_555
C18 C17 1_555 1_555
H16 C18 1_555 1_555
C19 C18 1_555 1_555
H17 C19 1_555 1_555
C20 C15 1_555 1_555
H18 C20 1_555 1_555
C21 C15 1_555 1_555
C22 C16 1_555 1_555
N1 C1 1_555 1_555
N2 C1 1_555 1_555
N3 C11 1_555 1_555
N4 C12 1_555 1_555
O1 Co1 1_555 1_555
O2 C21 1_555 1_555
O3 C22 1_555 1_555
O4 C22 1_555 1_555
Co1A N4 1_555 1_555
Co1C O4 1_555 1_555
N4A Co1 1_555 1_555
O4C Co1 1_555 1_555
C2 N1 1_555 1_555
C3 N2 1_555 1_555
C4 N2 1_555 1_555
C9 C10 1_555 1_555
C12 N3 1_555 1_555
C13 N3 1_555 1_555
C14 N4 1_555 1_555
C19 C20 1_555 1_555
C21 O1 1_555 1_555

#END
