
#######################################################################
#
#                 Cambridge Crystallographic Data Centre
#                                CCDC 
#
#######################################################################
#
# If this CIF has been generated from an entry in the Cambridge 
# Structural Database, then it will include bibliographic, chemical, 
# crystal, experimental, refinement or atomic coordinate data resulting 
# from the CCDC's data processing and validation procedures.
#
#######################################################################

data_RIWVEZ01
_symmetry_cell_setting           monoclinic
_symmetry_space_group_name_H-M   'C 2/c'
_symmetry_Int_Tables_number      15
_space_group_name_Hall           '-C 2yn'
loop_
_symmetry_equiv_pos_site_id
_symmetry_equiv_pos_as_xyz
1 x,y,z
2 -x,y,1/2-z
3 1/2+x,1/2+y,z
4 1/2-x,1/2+y,1/2-z
5 -x,-y,-z
6 x,-y,1/2+z
7 1/2-x,1/2-y,-z
8 1/2+x,1/2-y,1/2+z
_cell_length_a                   15.4079(4)
_cell_length_b                   9.4774(2)
_cell_length_c                   12.7437(3)
_cell_angle_alpha                90
_cell_angle_beta                 104.961(3)
_cell_angle_gamma                90
_cell_volume                     1797.84
loop_
_atom_site_label
_atom_site_type_symbol
_atom_site_fract_x
_atom_site_fract_y
_atom_site_fract_z
Ni1 Ni 1.0000 0.0000 0.5000
O1 O 0.95524(7) -0.09390(11) 0.63126(8)
O2 O 1.05321(8) -0.19958(12) 0.56046(9)
N1 N 1.20728(10) 0.13594(17) 0.76187(11)
N2 N 1.10710(9) 0.09584(15) 0.60701(10)
C1 C 1.00573(10) -0.19792(17) 0.62759(12)
C2 C 1.00610(10) -0.32601(16) 0.69729(12)
C3 C 1.12975(11) 0.07312(19) 0.71271(13)
H1 H 1.0958 0.0197 0.7488
C4 C 1.25019(13) 0.1307(2) 0.87908(14)
H2 H 1.3148 0.1257 0.8902
H3 H 1.2311 0.0455 0.9090
C5 C 1.22788(13) 0.2560(2) 0.93904(14)
H4 H 1.1632 0.2626 0.9272
H5 H 1.2485 0.3413 0.9110
C6 C 1.01374(13) -0.4552(2) 0.64818(16)
H6 H 1.0237 -0.4562 0.5792
C7 C 1.17398(13) 0.1800(2) 0.58853(14)
H7 H 1.1764 0.2144 0.5210
C8 C 1.00697(15) -0.5824(2) 0.69929(18)
H8 H 1.0119 -0.6672 0.6646
C9 C 1.23592(14) 0.2056(3) 0.68314(16)
H9 H 1.2877 0.2599 0.6927
O1A O 1.04476(7) -0.09390(11) 0.86874(8)
O2A O 0.94679(8) -0.19958(12) 0.93954(9)
C1A C 0.99427(10) -0.19792(17) 0.87241(12)
C2A C 0.99390(10) -0.32601(16) 0.80271(12)
C6A C 0.98626(13) -0.4552(2) 0.85182(16)
H6A H 0.9763 -0.4562 0.9208
C8A C 0.99303(15) -0.5824(2) 0.80071(18)
H8A H 0.9881 -0.6672 0.8354
N1F N 1.29272(10) 0.36406(17) 1.23813(11)
N2F N 1.39290(9) 0.40416(15) 1.39299(10)
C3F C 1.37025(11) 0.42688(19) 1.28729(13)
H1F H 1.4042 0.4803 1.2512
C4F C 1.24981(13) 0.3693(2) 1.12092(14)
H2F H 1.1852 0.3743 1.1098
H3F H 1.2689 0.4545 1.0910
C5F C 1.27212(13) 0.2440(2) 1.06096(14)
H4F H 1.3368 0.2374 1.0728
H5F H 1.2515 0.1587 1.0890
C7F C 1.32602(13) 0.3200(2) 1.41147(14)
H7F H 1.3236 0.2856 1.4790
C9F C 1.26408(14) 0.2944(3) 1.31686(16)
H9F H 1.2123 0.2401 1.3073
Ni1A Ni 1.0000 0.0000 1.0000
Ni1B Ni 1.5000 0.5000 1.5000
O1D O 1.04476(7) 0.09390(11) 0.36874(8)
O2D O 0.94679(8) 0.19958(12) 0.43954(9)
N2D N 0.89290(9) -0.09584(15) 0.39299(10)
loop_
_geom_bond_atom_site_label_1
_geom_bond_atom_site_label_2
_geom_bond_site_symmetry_1
_geom_bond_site_symmetry_2
Ni1 O1 1_555 1_555
O1 C1 1_555 1_555
O2 Ni1 1_555 1_555
N1 C3 1_555 1_555
N2 Ni1 1_555 1_555
C1 O2 1_555 1_555
C2 C1 1_555 1_555
C3 N2 1_555 1_555
H1 C3 1_555 1_555
C4 N1 1_555 1_555
H2 C4 1_555 1_555
H3 C4 1_555 1_555
C5 C4 1_555 1_555
H4 C5 1_555 1_555
H5 C5 1_555 1_555
C6 C2 1_555 1_555
H6 C6 1_555 1_555
C7 N2 1_555 1_555
H7 C7 1_555 1_555
C8 C6 1_555 1_555
H8 C8 1_555 1_555
C9 N1 1_555 1_555
H9 C9 1_555 1_555
O1A C1A 1_555 1_555
O2A C1A 1_555 1_555
C1A C2A 1_555 1_555
C2A C2 1_555 1_555
C6A C2A 1_555 1_555
H6A C6A 1_555 1_555
C8A C8 1_555 1_555
H8A C8A 1_555 1_555
N1F C3F 1_555 1_555
N2F C3F 1_555 1_555
C3F H1F 1_555 1_555
C4F N1F 1_555 1_555
H2F C4F 1_555 1_555
H3F C4F 1_555 1_555
C5F C5 1_555 1_555
H4F C5F 1_555 1_555
H5F C5F 1_555 1_555
C7F N2F 1_555 1_555
H7F C7F 1_555 1_555
C9F N1F 1_555 1_555
H9F C9F 1_555 1_555
Ni1A O1A 1_555 1_555
Ni1B N2F 1_555 1_555
O1D Ni1 1_555 1_555
O2D Ni1 1_555 1_555
N2D Ni1 1_555 1_555
C7 C9 1_555 1_555
O2A Ni1A 1_555 1_555
C6A C8A 1_555 1_555
C4F C5F 1_555 1_555
C7F C9F 1_555 1_555

#END
