
#######################################################################
#
#                 Cambridge Crystallographic Data Centre
#                                CCDC 
#
#######################################################################
#
# If this CIF has been generated from an entry in the Cambridge 
# Structural Database, then it will include bibliographic, chemical, 
# crystal, experimental, refinement or atomic coordinate data resulting 
# from the CCDC's data processing and validation procedures.
#
#######################################################################

data_RIWXAX
_symmetry_cell_setting           monoclinic
_symmetry_space_group_name_H-M   'P 2/c'
_symmetry_Int_Tables_number      13
_space_group_name_Hall           '-P 2yc'
loop_
_symmetry_equiv_pos_site_id
_symmetry_equiv_pos_as_xyz
1 x,y,z
2 -x,y,1/2-z
3 -x,-y,-z
4 x,-y,1/2+z
_cell_length_a                   15.161(3)
_cell_length_b                   6.4431(13)
_cell_length_c                   7.1366(14)
_cell_angle_alpha                90
_cell_angle_beta                 91.87(3)
_cell_angle_gamma                90
_cell_volume                     696.759
loop_
_atom_site_label
_atom_site_type_symbol
_atom_site_fract_x
_atom_site_fract_y
_atom_site_fract_z
Cd1 Cd 0.0000 0.33558(6) 0.7500
O1 O 0.0000 -0.0091(7) 0.7500
H1 H -0.025(4) -0.084(3) 0.830(6)
O2 O 0.1339(2) 0.3893(5) 0.6541(5)
O3 O 0.06860(18) 0.6761(5) 0.5551(5)
C1 C 0.1378(2) 0.5719(7) 0.5923(5)
C2 C 0.2269(2) 0.6640(6) 0.5665(6)
C3 C 0.3018(2) 0.5495(8) 0.6148(6)
H2 H 0.2961 0.4158 0.6619
C4 C 0.3849(3) 0.6328(9) 0.5933(7)
H3 H 0.4344 0.5534 0.6244
C5 C 0.3954(3) 0.8313(9) 0.5265(7)
C6 C 0.3200(3) 0.9460(8) 0.4766(7)
H4 H 0.3263 1.0796 0.4294
C7 C 0.2359(3) 0.8644(7) 0.4963(6)
H5 H 0.1862 0.9426 0.4629
C8 C 0.4875(4) 0.9076(9) 0.5150(8)
H6 H 0.5318 0.8089 0.5318
Cd1C Cd 0.0000 0.66442(6) 0.2500
Cd1C_2 Cd 1.0000 1.66442(6) 0.2500
Cd1_2 Cd 1.0000 1.33558(6) 0.7500
H1A H 0.025(4) -0.084(3) 0.670(6)
O2B O 0.8661(2) 1.6107(5) 0.3459(5)
O2A O -0.1339(2) 0.3893(5) 0.8459(5)
O3B O 0.93140(18) 1.3239(5) 0.4449(5)
O3C O 0.06860(18) 0.3239(5) 1.0551(5)
O3B_2 O -0.06860(18) 0.3239(5) 0.4449(5)
C1B C 0.8622(2) 1.4281(7) 0.4077(5)
C2B C 0.7731(2) 1.3360(6) 0.4335(6)
C3B C 0.6982(2) 1.4505(8) 0.3852(6)
H2B H 0.7039 1.5842 0.3381
C4B C 0.6151(3) 1.3672(9) 0.4067(7)
H3B H 0.5656 1.4466 0.3756
C5B C 0.6046(3) 1.1687(9) 0.4735(7)
C6B C 0.6800(3) 1.0540(8) 0.5234(7)
H4B H 0.6737 0.9204 0.5706
C7B C 0.7641(3) 1.1356(7) 0.5037(6)
H5B H 0.8138 1.0574 0.5371
C8B C 0.5125(4) 1.0924(9) 0.4850(8)
H6B H 0.4682 1.1911 0.4682
loop_
_geom_bond_atom_site_label_1
_geom_bond_atom_site_label_2
_geom_bond_site_symmetry_1
_geom_bond_site_symmetry_2
Cd1 O1 1_555 1_555
O1 H1 1_555 1_555
O2 Cd1 1_555 1_555
O3 C1 1_555 1_555
C1 O2 1_555 1_555
C2 C1 1_555 1_555
C3 C2 1_555 1_555
H2 C3 1_555 1_555
C4 C3 1_555 1_555
H3 C4 1_555 1_555
C5 C4 1_555 1_555
C6 C5 1_555 1_555
H4 C6 1_555 1_555
C7 C2 1_555 1_555
H5 C7 1_555 1_555
C8 C5 1_555 1_555
H6 C8 1_555 1_555
Cd1C O3 1_555 1_555
Cd1C_2 O2B 1_555 1_555
Cd1_2 O3B 1_555 1_555
H1A O1 1_555 1_555
O2B C1B 1_555 1_555
O2A Cd1 1_555 1_555
O3B C1B 1_555 1_555
O3C Cd1 1_555 1_555
O3B_2 Cd1 1_555 1_555
C1B C2B 1_555 1_555
C2B C3B 1_555 1_555
C3B H2B 1_555 1_555
C4B C3B 1_555 1_555
H3B C4B 1_555 1_555
C5B C4B 1_555 1_555
C6B C5B 1_555 1_555
H4B C6B 1_555 1_555
C7B C2B 1_555 1_555
H5B C7B 1_555 1_555
C8B C8 1_555 1_555
H6B C8B 1_555 1_555
C6 C7 1_555 1_555
C5B C8B 1_555 1_555
C6B C7B 1_555 1_555

#END
