
#######################################################################
#
#                 Cambridge Crystallographic Data Centre
#                                CCDC 
#
#######################################################################
#
# If this CIF has been generated from an entry in the Cambridge 
# Structural Database, then it will include bibliographic, chemical, 
# crystal, experimental, refinement or atomic coordinate data resulting 
# from the CCDC's data processing and validation procedures.
#
#######################################################################

data_RIWXOL
_symmetry_cell_setting           monoclinic
_symmetry_space_group_name_H-M   'P 21/c'
_symmetry_Int_Tables_number      14
_space_group_name_Hall           '-P 2ybc'
loop_
_symmetry_equiv_pos_site_id
_symmetry_equiv_pos_as_xyz
1 x,y,z
2 -x,1/2+y,1/2-z
3 -x,-y,-z
4 x,1/2-y,1/2+z
_cell_length_a                   10.6931(10)
_cell_length_b                   14.4122(15)
_cell_length_c                   17.5869(17)
_cell_angle_alpha                90
_cell_angle_beta                 102.795(2)
_cell_angle_gamma                90
_cell_volume                     2643.04
loop_
_atom_site_label
_atom_site_type_symbol
_atom_site_fract_x
_atom_site_fract_y
_atom_site_fract_z
C1 C 0.392(2) 0.545(2) 0.3439(16)
H1 H 0.3943 0.5305 0.2903
H2 H 0.3039 0.5544 0.3479
N7 N 0.5521(17) 0.7301(13) 0.4422(10)
N8 N 0.4724(17) 0.6231(15) 0.3732(13)
N9 N 0.4703(18) 0.6603(16) 0.4413(12)
C6 C 0.578(3) 0.788(2) 0.5107(14)
H7 H 0.6095 0.8471 0.4958
H8 H 0.6483 0.7597 0.5479
C7 C 0.553(2) 0.6628(15) 0.3373(14)
H9 H 0.5695 0.6456 0.2894
C8 C 0.609(2) 0.7343(15) 0.3837(13)
H10 H 0.6717 0.7756 0.3756
C9 C 0.474(2) 0.809(2) 0.5535(18)
H11 H 0.4002 0.8337 0.5175
H12 H 0.5042 0.8541 0.5937
H13 H 0.4500 0.7533 0.5764
C10 C 0.456(4) 0.472(2) 0.399(2)
H14 H 0.5382 0.4574 0.3876
H15 H 0.4040 0.4168 0.3921
H16 H 0.4680 0.4936 0.4512
I1 I 0.85806(9) 0.25419(5) 0.10501(5)
I2 I 1.02753(8) 0.49875(5) 0.25368(4)
I3 I 0.84987(10) 0.25360(5) 0.35634(5)
I4 I 1.21598(10) 0.25419(6) 0.28131(6)
I5 I 0.60765(10) 0.45035(8) 0.19456(6)
Cu1 Cu 0.96737(18) 0.30448(12) 0.24745(10)
Cu2 Cu 1.0602(2) 0.15157(12) 0.18310(10)
Cu3 Cu 0.81751(18) 0.42923(11) 0.14666(10)
Cu4 Cu 0.81189(19) 0.42912(12) 0.30341(10)
Cu5 Cu 0.9431(2) 0.65237(14) 0.16567(11)
Cu6 Cu 1.0387(3) 0.24925(12) 0.00549(13)
C2 C 0.8554(14) 0.5622(9) -0.0595(7)
H3 H 0.8540 0.5678 -0.1124
N1 N 0.8347(10) 0.5054(7) 0.0535(6)
N2 N 0.8841(10) 0.5898(6) 0.0642(5)
N3 N 0.8950(10) 0.6275(7) -0.0036(6)
N4 N 1.1711(10) 0.0050(7) 0.0986(6)
N5 N 1.1053(11) 0.1256(7) 0.0266(6)
N6 N 1.1228(10) 0.0921(7) 0.0972(6)
C3 C 1.1876(13) -0.0138(9) 0.0280(7)
H4 H 1.2206 -0.0686 0.0125
C4 C 1.1481(13) 0.0605(9) -0.0177(8)
H5 H 1.1497 0.0662 -0.0702
C5 C 0.8177(15) 0.4863(10) -0.0231(8)
H6 H 0.7858 0.4311 -0.0471
I2A I 0.97247(8) -0.00125(5) 0.24632(4)
I3A I 1.15013(10) 0.75360(5) 0.14366(5)
I3C I 0.84987(10) 0.24640(5) -0.14366(5)
I4A I 0.78402(10) 0.75419(6) 0.21869(6)
Cu2A Cu 0.9398(2) 0.65157(12) 0.31690(10)
Cu4A Cu 1.18811(19) -0.07088(12) 0.19659(10)
Cu5A Cu 1.0569(2) 0.15237(14) 0.33433(11)
Cu6C Cu 1.0387(3) 0.25075(12) 0.50549(13)
Cu6B Cu 0.9613(3) 0.75075(12) -0.00549(13)
N3B N 1.1050(10) 0.3725(7) 0.0036(6)
N4A N 0.8289(10) 0.5050(7) 0.4014(6)
loop_
_geom_bond_atom_site_label_1
_geom_bond_atom_site_label_2
_geom_bond_site_symmetry_1
_geom_bond_site_symmetry_2
C1 H1 1_555 1_555
H2 C1 1_555 1_555
I1 Cu1 1_555 1_555
I2 Cu1 1_555 1_555
I3 Cu1 1_555 1_555
I4 Cu1 1_555 1_555
I5 Cu3 1_555 1_555
Cu2 I1 1_555 1_555
Cu3 I1 1_555 1_555
Cu4 I2 1_555 1_555
Cu5 I2 1_555 1_555
Cu6 I1 1_555 1_555
C2 H3 1_555 1_555
N1 Cu3 1_555 1_555
N2 Cu5 1_555 1_555
N3 C2 1_555 1_555
N4 N6 1_555 1_555
N5 Cu6 1_555 1_555
N6 Cu2 1_555 1_555
C3 N4 1_555 1_555
H4 C3 1_555 1_555
C4 N5 1_555 1_555
H5 C4 1_555 1_555
C5 C2 1_555 1_555
H6 C5 1_555 1_555
N7 N9 1_555 1_555
N8 C1 1_555 1_555
N9 N8 1_555 1_555
C6 N7 1_555 1_555
H7 C6 1_555 1_555
H8 C6 1_555 1_555
C7 N8 1_555 1_555
H9 C7 1_555 1_555
C8 N7 1_555 1_555
H10 C8 1_555 1_555
C9 C6 1_555 1_555
H11 C9 1_555 1_555
H12 C9 1_555 1_555
H13 C9 1_555 1_555
C10 C1 1_555 1_555
H14 C10 1_555 1_555
H15 C10 1_555 1_555
H16 C10 1_555 1_555
I2A Cu2 1_555 1_555
I3A Cu5 1_555 1_555
I3C Cu6 1_555 1_555
I4A Cu5 1_555 1_555
Cu2A I2 1_555 1_555
Cu4A N4 1_555 1_555
Cu5A I3 1_555 1_555
Cu6C I3 1_555 1_555
Cu6B N3 1_555 1_555
N3B Cu6 1_555 1_555
N4A Cu4 1_555 1_555
I2 Cu3 1_555 1_555
I3 Cu4 1_555 1_555
I4 Cu2 1_555 1_555
I4 Cu5A 1_555 1_555
I5 Cu4 1_555 1_555
N1 N2 1_555 1_555
N1 C5 1_555 1_555
N2 N3 1_555 1_555
N5 N6 1_555 1_555
C3 C4 1_555 1_555
C7 C8 1_555 1_555
I2A Cu4A 1_555 1_555
I2A Cu5A 1_555 1_555
I3A Cu6B 1_555 1_555
I4A Cu2A 1_555 1_555

#END
