
#######################################################################
#
#                 Cambridge Crystallographic Data Centre
#                                CCDC 
#
#######################################################################
#
# If this CIF has been generated from an entry in the Cambridge 
# Structural Database, then it will include bibliographic, chemical, 
# crystal, experimental, refinement or atomic coordinate data resulting 
# from the CCDC's data processing and validation procedures.
#
#######################################################################

data_RIWXAX01
_symmetry_cell_setting           monoclinic
_symmetry_space_group_name_H-M   'P 2/c'
_symmetry_Int_Tables_number      13
_space_group_name_Hall           '-P 2yc'
loop_
_symmetry_equiv_pos_site_id
_symmetry_equiv_pos_as_xyz
1 x,y,z
2 -x,y,1/2-z
3 -x,-y,-z
4 x,-y,1/2+z
_cell_length_a                   15.158(2)
_cell_length_b                   6.4390(15)
_cell_length_c                   7.1330(19)
_cell_angle_alpha                90
_cell_angle_beta                 91.937(2)
_cell_angle_gamma                90
_cell_volume                     695.8
loop_
_atom_site_label
_atom_site_type_symbol
_atom_site_fract_x
_atom_site_fract_y
_atom_site_fract_z
Cd1 Cd 0.0000 1.16441(12) 0.2500
O1 O 0.1341(3) 1.1099(8) 0.1545(7)
O2 O 0.0686(3) 0.8224(8) 0.0546(7)
O3 O 0.0000 1.5107(13) 0.2500
H1 H -0.0186 1.5897 0.3355
C1 C 0.1373(4) 0.9268(11) 0.0923(9)
C2 C 0.2265(4) 0.8353(12) 0.0664(8)
C3 C 0.2354(4) 0.6351(12) -0.0038(9)
H2 H 0.1858 0.5571 -0.0380
C4 C 0.3204(5) 0.5524(13) -0.0222(10)
H3 H 0.3266 0.4181 -0.0679
C5 C 0.3956(5) 0.6667(16) 0.0263(10)
C6 C 0.3841(4) 0.8671(14) 0.0928(10)
H4 H 0.4335 0.9475 0.1233
C7 C 0.3018(4) 0.9489(13) 0.1147(9)
H5 H 0.2962 1.0825 0.1626
C8 C 0.4875(6) 0.5883(14) 0.0147(12)
H6 H 0.5318 0.6870 0.0322
Cd1C Cd 0.0000 0.83559(12) -0.2500
Cd1C_2 Cd 1.0000 -0.16441(12) -0.2500
Cd1_2 Cd 1.0000 0.16441(12) 0.2500
O1B O 0.8659(3) -0.1099(8) -0.1545(7)
O1A O -0.1341(3) 1.1099(8) 0.3455(7)
O2B O 0.9314(3) 0.1776(8) -0.0546(7)
O2C O 0.0686(3) 1.1776(8) 0.5546(7)
O2B_2 O -0.0686(3) 1.1776(8) -0.0546(7)
H1A H 0.0186 1.5897 0.1645
C1B C 0.8627(4) 0.0732(11) -0.0923(9)
C2B C 0.7735(4) 0.1647(12) -0.0664(8)
C3B C 0.7646(4) 0.3649(12) 0.0038(9)
H2B H 0.8142 0.4429 0.0380
C4B C 0.6796(5) 0.4476(13) 0.0222(10)
H3B H 0.6734 0.5819 0.0679
C5B C 0.6044(5) 0.3333(16) -0.0263(10)
C6B C 0.6159(4) 0.1329(14) -0.0928(10)
H4B H 0.5665 0.0525 -0.1233
C7B C 0.6982(4) 0.0511(13) -0.1147(9)
H5B H 0.7038 -0.0825 -0.1626
C8B C 0.5125(6) 0.4117(14) -0.0147(12)
H6B H 0.4682 0.3130 -0.0322
loop_
_geom_bond_atom_site_label_1
_geom_bond_atom_site_label_2
_geom_bond_site_symmetry_1
_geom_bond_site_symmetry_2
Cd1 O1 1_555 1_555
O1 C1 1_555 1_555
O2 C1 1_555 1_555
O3 Cd1 1_555 1_555
H1 O3 1_555 1_555
C1 C2 1_555 1_555
C2 C3 1_555 1_555
C3 H2 1_555 1_555
C4 C3 1_555 1_555
H3 C4 1_555 1_555
C5 C4 1_555 1_555
C6 C5 1_555 1_555
H4 C6 1_555 1_555
C7 C2 1_555 1_555
H5 C7 1_555 1_555
C8 C5 1_555 1_555
H6 C8 1_555 1_555
Cd1C O2 1_555 1_555
Cd1C_2 O1B 1_555 1_555
Cd1_2 O2B 1_555 1_555
O1B C1B 1_555 1_555
O1A Cd1 1_555 1_555
O2B C1B 1_555 1_555
O2C Cd1 1_555 1_555
O2B_2 Cd1 1_555 1_555
H1A O3 1_555 1_555
C1B C2B 1_555 1_555
C2B C3B 1_555 1_555
C3B H2B 1_555 1_555
C4B C3B 1_555 1_555
H3B C4B 1_555 1_555
C5B C4B 1_555 1_555
C6B C5B 1_555 1_555
H4B C6B 1_555 1_555
C7B C2B 1_555 1_555
H5B C7B 1_555 1_555
C8B C8 1_555 1_555
H6B C8B 1_555 1_555
C6 C7 1_555 1_555
C5B C8B 1_555 1_555
C6B C7B 1_555 1_555

#END
