
#######################################################################
#
#                 Cambridge Crystallographic Data Centre
#                                CCDC 
#
#######################################################################
#
# If this CIF has been generated from an entry in the Cambridge 
# Structural Database, then it will include bibliographic, chemical, 
# crystal, experimental, refinement or atomic coordinate data resulting 
# from the CCDC's data processing and validation procedures.
#
#######################################################################

data_RIWXUR
_symmetry_cell_setting           orthorhombic
_symmetry_space_group_name_H-M   'P n m a'
_symmetry_Int_Tables_number      62
_space_group_name_Hall           '-P 2ac 2n'
loop_
_symmetry_equiv_pos_site_id
_symmetry_equiv_pos_as_xyz
1 x,y,z
2 1/2-x,-y,1/2+z
3 -x,1/2+y,-z
4 1/2+x,1/2-y,1/2-z
5 -x,-y,-z
6 1/2+x,y,1/2-z
7 x,1/2-y,z
8 1/2-x,1/2+y,1/2+z
_cell_length_a                   11.6390(7)
_cell_length_b                   29.7697(19)
_cell_length_c                   4.1222(3)
_cell_angle_alpha                90
_cell_angle_beta                 90
_cell_angle_gamma                90
_cell_volume                     1428.3
loop_
_atom_site_label
_atom_site_type_symbol
_atom_site_fract_x
_atom_site_fract_y
_atom_site_fract_z
I1 I 0.57726(5) 0.2500 -0.73992(10)
Cu1 Cu 0.33225(7) 0.2500 -0.3775(3)
Cu2 Cu 0.57819(5) 0.31280(3) -0.23311(16)
C1 C 0.3860(3) 0.37671(13) -0.1050(11)
C2 C 0.2667(3) 0.37648(14) -0.1144(11)
N1 N 0.3279(3) 0.31299(13) -0.2950(10)
C3 C 0.3813(6) 0.45017(18) 0.1217(14)
H1 H 0.4186 0.4754 0.2026
N2 N 0.4230(3) 0.33677(14) -0.2195(9)
C4 C 0.2015(4) 0.41317(16) -0.0065(13)
H2 H 0.1217 0.4128 -0.0155
C5 C 0.2598(5) 0.44928(18) 0.1121(14)
H3 H 0.2188 0.4739 0.1884
C6 C 0.4449(4) 0.41445(17) 0.0139(13)
H4 H 0.5247 0.4152 0.0193
N3 N 0.2338(3) 0.33610(13) -0.2349(9)
I1_2 I 0.57726(5) 0.2500 0.26008(10)
Cu2F Cu 0.57819(5) 0.18720(3) -0.23311(16)
Cu2_2 Cu 0.57819(5) 0.31280(3) -1.23311(16)
Cu2F_2 Cu 0.57819(5) 0.18720(3) -1.23311(16)
Cu2E Cu 0.07819(5) 0.31280(3) -0.26689(16)
Cu2C Cu 0.07819(5) 0.18720(3) -0.26689(16)
C1F C 0.3860(3) 0.12329(13) -0.1050(11)
C2F C 0.2667(3) 0.12352(14) -0.1144(11)
N1F N 0.3279(3) 0.18701(13) -0.2950(10)
C3F C 0.3813(6) 0.04983(18) 0.1217(14)
H1F H 0.4186 0.0246 0.2026
N2F N 0.4230(3) 0.16323(14) -0.2195(9)
C4F C 0.2015(4) 0.08683(16) -0.0065(13)
H2F H 0.1217 0.0872 -0.0155
C5F C 0.2598(5) 0.05072(18) 0.1121(14)
H3F H 0.2188 0.0261 0.1884
C6F C 0.4449(4) 0.08555(17) 0.0139(13)
H4F H 0.5247 0.0848 0.0193
N3F N 0.2338(3) 0.16390(13) -0.2349(9)
N3E N 0.7338(3) 0.33610(13) -0.2651(9)
N3C N 0.7338(3) 0.16390(13) -0.2651(9)
loop_
_geom_bond_atom_site_label_1
_geom_bond_atom_site_label_2
_geom_bond_site_symmetry_1
_geom_bond_site_symmetry_2
I1 Cu2 1_555 1_555
Cu1 N1 1_555 1_555
Cu2 N2 1_555 1_555
C1 C2 1_555 1_555
C2 C4 1_555 1_555
N1 N2 1_555 1_555
C3 H1 1_555 1_555
N2 C1 1_555 1_555
C4 H2 1_555 1_555
C5 C3 1_555 1_555
H3 C5 1_555 1_555
C6 C1 1_555 1_555
H4 C6 1_555 1_555
N3 C2 1_555 1_555
I1_2 Cu2 1_555 1_555
Cu2F I1 1_555 1_555
Cu2_2 I1 1_555 1_555
Cu2F_2 I1 1_555 1_555
Cu2E N3 1_555 1_555
Cu2C N3F 1_555 1_555
C1F C2F 1_555 1_555
C2F C4F 1_555 1_555
N1F Cu1 1_555 1_555
C3F H1F 1_555 1_555
N2F Cu2F 1_555 1_555
C4F H2F 1_555 1_555
C5F C3F 1_555 1_555
H3F C5F 1_555 1_555
C6F C1F 1_555 1_555
H4F C6F 1_555 1_555
N3F C2F 1_555 1_555
N3E Cu2 1_555 1_555
N3C Cu2F 1_555 1_555
N1 N3 1_555 1_555
C3 C6 1_555 1_555
C4 C5 1_555 1_555
I1_2 Cu2F 1_555 1_555
C1F N2F 1_555 1_555
N1F N2F 1_555 1_555
N1F N3F 1_555 1_555
C3F C6F 1_555 1_555
C4F C5F 1_555 1_555

#END
