
#######################################################################
#
#                 Cambridge Crystallographic Data Centre
#                                CCDC 
#
#######################################################################
#
# If this CIF has been generated from an entry in the Cambridge 
# Structural Database, then it will include bibliographic, chemical, 
# crystal, experimental, refinement or atomic coordinate data resulting 
# from the CCDC's data processing and validation procedures.
#
#######################################################################

data_RIWXEB
_symmetry_cell_setting           tetragonal
_symmetry_space_group_name_H-M   'P 42/n c m'
_symmetry_Int_Tables_number      138
_space_group_name_Hall           '-P 4ac 2ac'
loop_
_symmetry_equiv_pos_site_id
_symmetry_equiv_pos_as_xyz
1 x,y,z
2 1/2-y,x,1/2+z
3 y,1/2-x,1/2+z
4 1/2+y,1/2+x,-z
5 1/2-x,1/2-y,z
6 -x,1/2+y,1/2-z
7 1/2+x,-y,1/2-z
8 -y,-x,-z
9 -x,-y,-z
10 1/2+y,-x,1/2-z
11 -y,1/2+x,1/2-z
12 1/2-y,1/2-x,z
13 1/2+x,1/2+y,-z
14 x,1/2-y,1/2+z
15 1/2-x,y,1/2+z
16 y,x,z
_cell_length_a                   28.4132(7)
_cell_length_b                   28.4132(7)
_cell_length_c                   14.0586(7)
_cell_angle_alpha                90
_cell_angle_beta                 90
_cell_angle_gamma                90
_cell_volume                     11349.6
loop_
_atom_site_label
_atom_site_type_symbol
_atom_site_fract_x
_atom_site_fract_y
_atom_site_fract_z
N2 N 0.4663(3) 0.7812(3) 0.4498(7)
N3 N 0.5357(3) 0.7998(3) 0.4224(6)
N4 N 0.4933(3) 0.8173(3) 0.4342(7)
C6 C 0.4906(3) 0.7390(4) 0.4483(6)
C7 C 0.5730(4) 0.7204(4) 0.4249(9)
H4 H 0.6042 0.7291 0.4147
C8 C 0.5586(5) 0.6733(4) 0.4360(10)
H5 H 0.5813 0.6498 0.4317
C9 C 0.5367(3) 0.7521(3) 0.4307(7)
C10 C 0.4768(4) 0.6927(4) 0.4596(9)
H6 H 0.4458 0.6839 0.4709
C13 C 0.5136(5) 0.6605(4) 0.4526(10)
H8 H 0.5068 0.6286 0.4596
C16 C 0.5743(4) 0.8315(4) 0.4011(8)
H11 H 0.5626 0.8585 0.3676
H12 H 0.5971 0.8155 0.3622
H13 H 0.5890 0.8414 0.4593
C17 C 0.4154(4) 0.7863(5) 0.4629(12)
H14 H 0.4067 0.7751 0.5249
H15 H 0.3992 0.7683 0.4153
H16 H 0.4068 0.8189 0.4571
I10 I 0.28645(5) 0.79446(5) 0.38567(11)
I1 I 0.550105(19) 0.550105(19) 0.31442(6)
I2 I 0.55299(2) 0.55299(2) 0.01757(6)
I3 I 0.69487(2) 0.69487(2) 0.31298(6)
I4 I 0.83020(2) 0.66980(2) 0.16159(9)
I5 I 0.69547(2) 0.69547(2) 0.01407(7)
I6 I 0.57672(2) 0.41944(2) 0.14991(4)
I7 I 0.44096(2) 0.44096(2) 0.30638(8)
Cu1 Cu 0.73931(5) 0.65315(4) 0.16236(10)
Cu2 Cu 0.59552(4) 0.50749(5) 0.17242(11)
Cu3 Cu 0.62446(4) 0.62446(4) 0.16378(13)
Cu4 Cu 0.53908(6) 0.46092(6) 0.0000
Cu5 Cu 0.45193(5) 0.53191(5) 0.29757(9)
Cu6 Cu 0.5000 0.5000 0.5000
N1 N 0.7171(2) 0.5867(2) 0.1674(5)
N5 N 0.6707(2) 0.5773(2) 0.1665(5)
N6 N 0.6618(2) 0.5316(2) 0.1760(5)
N7 N 0.4531(2) 0.5469(2) 0.5000
N8 N 0.4315(2) 0.5618(2) 0.4213(5)
C1 C 0.7044(3) 0.5096(3) 0.1852(6)
C2 C 0.7390(3) 0.5442(3) 0.1785(6)
C3 C 0.7870(3) 0.5325(3) 0.1842(7)
H1 H 0.8103 0.5554 0.1788
C4 C 0.7631(4) 0.4518(3) 0.2045(8)
H2 H 0.7720 0.4206 0.2131
C5 C 0.7156(3) 0.4625(3) 0.1988(7)
H3 H 0.6925 0.4395 0.2039
C11 C 0.7983(3) 0.4862(4) 0.1978(8)
H7 H 0.8297 0.4775 0.2027
C12 C 0.4003(3) 0.5953(3) 0.4501(6)
C14 C 0.3687(3) 0.6229(3) 0.3986(8)
H9 H 0.3660 0.6205 0.3328
C15 C 0.3422(4) 0.6536(4) 0.4496(9)
H10 H 0.3207 0.6726 0.4178
Cu7 Cu 0.72551(12) 0.77449(12) 0.2616(4)
Cu8 Cu 0.77522(14) 0.72478(14) 0.0623(6)
I1H I 0.449895(19) 0.449895(19) -0.31442(6)
I2H I 0.44701(2) 0.44701(2) -0.01757(6)
I3K I 0.80513(2) 0.80513(2) 0.31298(6)
I4O I 0.66980(2) 0.83020(2) 0.16159(9)
I5K I 0.80453(2) 0.80453(2) 0.01407(7)
I6G I 0.58056(2) 0.42328(2) -0.14991(4)
I6O I 0.41944(2) 0.57672(2) 0.14991(4)
I6H I 0.42328(2) 0.58056(2) -0.14991(4)
I7H I 0.55904(2) 0.55904(2) -0.30638(8)
Cu1O Cu 0.65315(4) 0.73931(5) 0.16236(10)
Cu1K Cu 0.84685(4) 0.76069(5) 0.16236(10)
Cu1D Cu 0.76069(5) 0.84685(4) 0.16236(10)
Cu2O Cu 0.50749(5) 0.59552(4) 0.17242(11)
Cu2H Cu 0.40448(4) 0.49251(5) -0.17242(11)
Cu2G Cu 0.49251(5) 0.40448(4) -0.17242(11)
Cu2K Cu 0.99251(5) 0.90448(4) 0.17242(11)
Cu2D Cu 0.90448(4) 0.99251(5) 0.17242(11)
Cu3K Cu 0.87554(4) 0.87554(4) 0.16378(13)
Cu4O Cu 0.46092(6) 0.53908(6) 0.0000
Cu5O Cu 0.53191(5) 0.45193(5) 0.29757(9)
Cu5H Cu 0.54807(5) 0.46809(5) -0.29757(9)
Cu5G Cu 0.46809(5) 0.54807(5) -0.29757(9)
Cu5H_2 Cu 0.54807(5) 0.46809(5) 0.70243(9)
Cu5G_2 Cu 0.46809(5) 0.54807(5) 0.70243(9)
N1O N 0.5867(2) 0.7171(2) 0.1674(5)
N1K N 0.9133(2) 0.7829(2) 0.1674(5)
N1D N 0.7829(2) 0.9133(2) 0.1674(5)
N5O N 0.5773(2) 0.6707(2) 0.1665(5)
N5K N 0.9227(2) 0.8293(2) 0.1665(5)
N5D N 0.8293(2) 0.9227(2) 0.1665(5)
N6O N 0.5316(2) 0.6618(2) 0.1760(5)
N6H N 0.3382(2) 0.4684(2) -0.1760(5)
N6G N 0.4684(2) 0.3382(2) -0.1760(5)
N6K N 0.9684(2) 0.8382(2) 0.1760(5)
N6D N 0.8382(2) 0.9684(2) 0.1760(5)
N7O N 0.5469(2) 0.4531(2) 0.5000
N8G N 0.4382(2) 0.5685(2) 0.5787(5)
N8O N 0.5618(2) 0.4315(2) 0.4213(5)
N8H N 0.5685(2) 0.4382(2) -0.4213(5)
N8G_2 N 0.4382(2) 0.5685(2) -0.4213(5)
N8H_2 N 0.5685(2) 0.4382(2) 0.5787(5)
C1O C 0.5096(3) 0.7044(3) 0.1852(6)
C1K C 0.9904(3) 0.7956(3) 0.1852(6)
C1D C 0.7956(3) 0.9904(3) 0.1852(6)
C2O C 0.5442(3) 0.7390(3) 0.1785(6)
C2K C 0.9558(3) 0.7610(3) 0.1785(6)
C2D C 0.7610(3) 0.9558(3) 0.1785(6)
C3O C 0.5325(3) 0.7870(3) 0.1842(7)
C3K C 0.9675(3) 0.7130(3) 0.1842(7)
C3D C 0.7130(3) 0.9675(3) 0.1842(7)
H1O H 0.5554 0.8103 0.1788
H1K H 0.9446 0.6897 0.1788
H1D H 0.6897 0.9446 0.1788
C4O C 0.4518(3) 0.7631(4) 0.2045(8)
C4K C 1.0482(3) 0.7369(4) 0.2045(8)
C4D C 0.7369(4) 1.0482(3) 0.2045(8)
H2O H 0.4206 0.7720 0.2131
H2K H 1.0794 0.7280 0.2131
H2D H 0.7280 1.0794 0.2131
C5O C 0.4625(3) 0.7156(3) 0.1988(7)
C5K C 1.0375(3) 0.7844(3) 0.1988(7)
C5D C 0.7844(3) 1.0375(3) 0.1988(7)
H3O H 0.4395 0.6925 0.2039
H3K H 1.0605 0.8075 0.2039
H3D H 0.8075 1.0605 0.2039
C11O C 0.4862(4) 0.7983(3) 0.1978(8)
C11K C 1.0138(4) 0.7017(3) 0.1978(8)
C11D C 0.7017(3) 1.0138(4) 0.1978(8)
H7O H 0.4775 0.8297 0.2027
H7K H 1.0225 0.6703 0.2027
H7D H 0.6703 1.0225 0.2027
C12G C 0.4047(3) 0.5997(3) 0.5499(6)
C12O C 0.5953(3) 0.4003(3) 0.4501(6)
C12H C 0.5997(3) 0.4047(3) 0.5499(6)
C14G C 0.3771(3) 0.6313(3) 0.6014(8)
C14O C 0.6229(3) 0.3687(3) 0.3986(8)
C14H C 0.6313(3) 0.3771(3) 0.6014(8)
H9O H 0.6205 0.3660 0.3328
H9H H 0.6340 0.3795 0.6672
H9G H 0.3795 0.6340 0.6672
C15G C 0.3464(4) 0.6578(4) 0.5504(9)
C15O C 0.6536(4) 0.3422(4) 0.4496(9)
C15H C 0.6578(4) 0.3464(4) 0.5504(9)
H10G H 0.3274 0.6793 0.5822
H10O H 0.6726 0.3207 0.4178
H10H H 0.6793 0.3274 0.5822
Cu7O Cu 0.77449(12) 0.72551(12) 0.2616(4)
Cu8O Cu 0.72478(14) 0.77522(14) 0.0623(6)
I8? I 0.2500 0.7500 0.2500
I9? I 0.30677(5) 0.82666(5) 0.31631(10)
I11? I 0.27203(10) 0.77343(10) 0.4357(2)
loop_
_geom_bond_atom_site_label_1
_geom_bond_atom_site_label_2
_geom_bond_site_symmetry_1
_geom_bond_site_symmetry_2
I1 Cu2 1_555 1_555
I2 Cu2 1_555 1_555
I3 Cu1 1_555 1_555
I4 Cu1 1_555 1_555
I5 Cu1 1_555 1_555
I6 Cu2 1_555 1_555
I7 Cu5 1_555 1_555
Cu1 N1 1_555 1_555
Cu2 N6 1_555 1_555
Cu3 N5 1_555 1_555
Cu4 I2 1_555 1_555
Cu5 I1 1_555 1_555
Cu6 N7 1_555 1_555
N1 N5 1_555 1_555
N2 N4 1_555 1_555
N3 N4 1_555 1_555
N5 N6 1_555 1_555
N6 C1 1_555 1_555
N7 N8 1_555 1_555
N8 Cu5 1_555 1_555
C1 C2 1_555 1_555
C2 N1 1_555 1_555
C3 C2 1_555 1_555
H1 C3 1_555 1_555
C4 H2 1_555 1_555
C5 C1 1_555 1_555
H3 C5 1_555 1_555
C6 N2 1_555 1_555
C7 H4 1_555 1_555
C8 C7 1_555 1_555
H5 C8 1_555 1_555
C9 N3 1_555 1_555
C10 C6 1_555 1_555
H6 C10 1_555 1_555
C11 C3 1_555 1_555
H7 C11 1_555 1_555
C12 N8 1_555 1_555
C13 C8 1_555 1_555
H8 C13 1_555 1_555
C14 C12 1_555 1_555
H9 C14 1_555 1_555
C15 C14 1_555 1_555
H10 C15 1_555 1_555
C16 N3 1_555 1_555
H11 C16 1_555 1_555
H12 C16 1_555 1_555
H13 C16 1_555 1_555
C17 N2 1_555 1_555
H14 C17 1_555 1_555
H15 C17 1_555 1_555
H16 C17 1_555 1_555
Cu7 I3 1_555 1_555
Cu8 I4 1_555 1_555
I1H Cu2H 1_555 1_555
I2H Cu4 1_555 1_555
I3K Cu7 1_555 1_555
I4O Cu7 1_555 1_555
I5K Cu8 1_555 1_555
I6G Cu4 1_555 1_555
I6O Cu5 1_555 1_555
I6H Cu2H 1_555 1_555
I7H Cu5H 1_555 1_555
Cu1O I3 1_555 1_555
Cu1K I4 1_555 1_555
Cu1D I3K 1_555 1_555
Cu2O I1 1_555 1_555
Cu2H I2H 1_555 1_555
Cu2G I1H 1_555 1_555
Cu2K N6K 1_555 1_555
Cu2D N6D 1_555 1_555
Cu3K N5K 1_555 1_555
Cu4O I2 1_555 1_555
Cu5O I1 1_555 1_555
Cu5H I1H 1_555 1_555
Cu5G I1H 1_555 1_555
Cu5H_2 N8H_2 1_555 1_555
Cu5G_2 N8G 1_555 1_555
N1O Cu1O 1_555 1_555
N1K Cu1K 1_555 1_555
N1D Cu1D 1_555 1_555
N5O Cu3 1_555 1_555
N5K N1K 1_555 1_555
N5D Cu3K 1_555 1_555
N6O Cu2O 1_555 1_555
N6H Cu2H 1_555 1_555
N6G Cu2G 1_555 1_555
N6K N5K 1_555 1_555
N6D N5D 1_555 1_555
N7O Cu6 1_555 1_555
N8G N7 1_555 1_555
N8O Cu5O 1_555 1_555
N8H Cu5H 1_555 1_555
N8G_2 Cu5G 1_555 1_555
N8H_2 N7O 1_555 1_555
C1O N6O 1_555 1_555
C1K N6K 1_555 1_555
C1D N6D 1_555 1_555
C2O N1O 1_555 1_555
C2K N1K 1_555 1_555
C2D N1D 1_555 1_555
C3O C2O 1_555 1_555
C3K C2K 1_555 1_555
C3D C2D 1_555 1_555
H1O C3O 1_555 1_555
H1K C3K 1_555 1_555
H1D C3D 1_555 1_555
C4O H2O 1_555 1_555
C4K H2K 1_555 1_555
C4D H2D 1_555 1_555
C5O C1O 1_555 1_555
C5K C1K 1_555 1_555
C5D C1D 1_555 1_555
H3O C5O 1_555 1_555
H3K C5K 1_555 1_555
H3D C5D 1_555 1_555
C11O C3O 1_555 1_555
C11K C3K 1_555 1_555
C11D C3D 1_555 1_555
H7O C11O 1_555 1_555
H7K C11K 1_555 1_555
H7D C11D 1_555 1_555
C12G C12 1_555 1_555
C12O N8O 1_555 1_555
C12H N8H_2 1_555 1_555
C14G C12G 1_555 1_555
C14O C12O 1_555 1_555
C14H C12H 1_555 1_555
H9O C14O 1_555 1_555
H9H C14H 1_555 1_555
H9G C14G 1_555 1_555
C15G C15 1_555 1_555
C15O C14O 1_555 1_555
C15H C14H 1_555 1_555
H10G C15G 1_555 1_555
H10O C15O 1_555 1_555
H10H C15H 1_555 1_555
Cu7O I3 1_555 1_555
Cu8O I5 1_555 1_555
I2 Cu2O 1_555 1_555
I4 Cu7O 1_555 1_555
I5 Cu8 1_555 1_555
I5 Cu1O 1_555 1_555
I6 Cu4 1_555 1_555
I6 Cu5O 1_555 1_555
I7 Cu5O 1_555 1_555
C4 C5 1_555 1_555
C4 C11 1_555 1_555
C6 C9 1_555 1_555
C7 C9 1_555 1_555
C10 C13 1_555 1_555
Cu7 Cu7O 1_555 1_555
Cu8 Cu8O 1_555 1_555
I2H Cu2G 1_555 1_555
I2H Cu4O 1_555 1_555
I3K Cu1K 1_555 1_555
I3K Cu7O 1_555 1_555
I4O Cu1O 1_555 1_555
I4O Cu1D 1_555 1_555
I4O Cu8O 1_555 1_555
I5K Cu1K 1_555 1_555
I5K Cu1D 1_555 1_555
I5K Cu8O 1_555 1_555
I6G Cu2G 1_555 1_555
I6G Cu5H 1_555 1_555
I6O Cu2O 1_555 1_555
I6O Cu4O 1_555 1_555
I6H Cu4O 1_555 1_555
I6H Cu5G 1_555 1_555
I7H Cu5G 1_555 1_555
N1O N5O 1_555 1_555
N1D N5D 1_555 1_555
N5O N6O 1_555 1_555
N7O N8O 1_555 1_555
N8G C12G 1_555 1_555
C1O C2O 1_555 1_555
C1K C2K 1_555 1_555
C1D C2D 1_555 1_555
C4O C5O 1_555 1_555
C4O C11O 1_555 1_555
C4K C5K 1_555 1_555
C4K C11K 1_555 1_555
C4D C5D 1_555 1_555
C4D C11D 1_555 1_555
C12O C12H 1_555 1_555
C14G C15G 1_555 1_555
C15O C15H 1_555 1_555

#END
