
#######################################################################
#
#                 Cambridge Crystallographic Data Centre
#                                CCDC 
#
#######################################################################
#
# If this CIF has been generated from an entry in the Cambridge 
# Structural Database, then it will include bibliographic, chemical, 
# crystal, experimental, refinement or atomic coordinate data resulting 
# from the CCDC's data processing and validation procedures.
#
#######################################################################

data_RIWZUT
_symmetry_cell_setting           orthorhombic
_symmetry_space_group_name_H-M   'P 21 21 21'
_symmetry_Int_Tables_number      19
_space_group_name_Hall           'P 2ac 2ab'
loop_
_symmetry_equiv_pos_site_id
_symmetry_equiv_pos_as_xyz
1 x,y,z
2 1/2-x,-y,1/2+z
3 1/2+x,1/2-y,-z
4 -x,1/2+y,1/2-z
_cell_length_a                   10.912(2)
_cell_length_b                   11.683(3)
_cell_length_c                   17.184(4)
_cell_angle_alpha                90
_cell_angle_beta                 90
_cell_angle_gamma                90
_cell_volume                     2190.7
loop_
_atom_site_label
_atom_site_type_symbol
_atom_site_fract_x
_atom_site_fract_y
_atom_site_fract_z
Mn1 Mn 0.5718 0.264 0.0288
S1 S 0.8594(1) 0.2403(1) 0.3022
O1 O 0.7325(2) 0.2644(2) 0.1014(1)
O2 O 0.8991(2) 0.2283(2) 0.0316(1)
O3 O 0.7872(2) 0.2930(2) 0.3620(1)
O4 O 0.9847(2) 0.2127(2) 0.3174(2)
O5 O 0.4123(2) -0.0910(2) 0.2649(2)
O6 O 0.4033(2) 0.0931(2) 0.2327(2)
O7 O 0.4681(2) 0.2662(2) 0.1369(1)
O8 O 0.6898(2) 0.2623(2) -0.0740(1)
N1 N 0.8559(3) 0.3288(2) 0.2300(2)
H1 H 0.8145 0.3913 0.2331
N2 N 0.5734(3) 0.4625(2) 0.0277(2)
N3 N 0.5622(3) 1.0693(2) 0.0234(2)
C1 C 0.8456(2) 0.2611(2) 0.0923(2)
C2 C 0.9235(3) 0.3013(3) 0.1598(2)
H2 H 0.9827 0.2420 0.1719
H3 H 0.9688 0.3686 0.1436
C3 C 0.7857(3) 0.1120(3) 0.2730(2)
C4 C 0.6580(3) 0.1098(3) 0.2704(2)
H4 H 0.6126 0.1746 0.2829
C5 C 0.5997(3) 0.0088(3) 0.2487(2)
C6 C 0.6688(4) -0.0863(3) 0.2280(2)
H5 H 0.6295 -0.1537 0.2136
C7 C 0.7964(4) -0.0817(3) 0.2286(2)
H6 H 0.8421 -0.1452 0.2138
C8 C 0.8548(3) 0.0184(3) 0.2513(2)
H7 H 0.9399 0.0223 0.2520
C9 C 0.4607(3) 0.0033(3) 0.2486(2)
C10 C 0.6514(4) 0.5240(3) 0.0690(2)
H8 H 0.7093 0.4856 0.0990
C11 C 0.6518(4) 0.6434(3) 0.0702(2)
H9 H 0.7094 0.6825 0.1000
C12 C 0.5677(3) 0.7024(2) 0.0279(2)
C13 C 0.4894(4) 0.6400(3) -0.0194(2)
H10 H 0.4340 0.6772 -0.0518
C14 C 0.4949(4) 0.5207(3) -0.0177(2)
H11 H 0.4418 0.4796 -0.0495
C15 C 0.5646(3) 0.8298(2) 0.0261(2)
C16 C 0.4601(3) 0.8903(3) 0.0443(2)
H12 H 0.3882 0.8522 0.0575
C17 C 0.4639(3) 1.0089(3) 0.0428(2)
H13 H 0.3931 1.0486 0.0563
C18 C 0.6618(4) 1.0101(3) 0.0041(2)
H14 H 0.7319 1.0503 -0.0101
C19 C 0.6661(4) 0.8916(3) 0.0042(2)
H15 H 0.7375 0.8540 -0.0106
H16 H 0.507(4) 0.319(3) 0.164(2)
H17 H 0.447(4) 0.208(2) 0.167(2)
H18 H 0.766(2) 0.242(5) -0.071(3)
H19 H 0.670(5) 0.308(4) -0.113(2)
Mn1B Mn 1.0718 0.236 -0.0288
Mn1_2 Mn 0.5718 1.264 0.0288
O2B O 0.3991(2) 0.2717(2) -0.0316(1)
N3_2 N 0.5622(3) 0.0693(2) 0.0234(2)
O9 O 0.6760(4) 0.4319(4) 0.8246(3)
H20 H 0.682(4) 0.381(3) 0.7856(18)
H21 H 0.743(6) 0.473(8) 0.829(6)
loop_
_geom_bond_atom_site_label_1
_geom_bond_atom_site_label_2
_geom_bond_site_symmetry_1
_geom_bond_site_symmetry_2
Mn1 O1 1_555 1_555
S1 O3 1_555 1_555
O1 C1 1_555 1_555
O2 C1 1_555 1_555
O4 S1 1_555 1_555
O5 C9 1_555 1_555
O6 C9 1_555 1_555
O7 Mn1 1_555 1_555
O8 Mn1 1_555 1_555
O9 H20 1_555 1_555
N1 S1 1_555 1_555
H1 N1 1_555 1_555
N2 Mn1 1_555 1_555
N3 C17 1_555 1_555
C1 C2 1_555 1_555
C2 N1 1_555 1_555
H2 C2 1_555 1_555
H3 C2 1_555 1_555
C3 S1 1_555 1_555
C4 C3 1_555 1_555
H4 C4 1_555 1_555
C5 C4 1_555 1_555
C6 C5 1_555 1_555
H5 C6 1_555 1_555
C7 C6 1_555 1_555
H6 C7 1_555 1_555
C8 C3 1_555 1_555
H7 C8 1_555 1_555
C9 C5 1_555 1_555
C10 N2 1_555 1_555
H8 C10 1_555 1_555
C11 C10 1_555 1_555
H9 C11 1_555 1_555
C12 C11 1_555 1_555
C13 C12 1_555 1_555
H10 C13 1_555 1_555
C14 N2 1_555 1_555
H11 C14 1_555 1_555
C15 C12 1_555 1_555
C16 C15 1_555 1_555
H12 C16 1_555 1_555
C17 C16 1_555 1_555
H13 C17 1_555 1_555
C18 N3 1_555 1_555
H14 C18 1_555 1_555
C19 C15 1_555 1_555
H15 C19 1_555 1_555
H16 O7 1_555 1_555
H17 O7 1_555 1_555
H18 O8 1_555 1_555
H19 O8 1_555 1_555
H21 O9 1_555 1_555
Mn1B O2 1_555 1_555
Mn1_2 N3 1_555 1_555
O2B Mn1 1_555 1_555
N3_2 Mn1 1_555 1_555
C7 C8 1_555 1_555
C13 C14 1_555 1_555
C18 C19 1_555 1_555

#END
