
#######################################################################
#
#                 Cambridge Crystallographic Data Centre
#                                CCDC 
#
#######################################################################
#
# If this CIF has been generated from an entry in the Cambridge 
# Structural Database, then it will include bibliographic, chemical, 
# crystal, experimental, refinement or atomic coordinate data resulting 
# from the CCDC's data processing and validation procedures.
#
#######################################################################

data_RIWZAZ
_symmetry_cell_setting           monoclinic
_symmetry_space_group_name_H-M   'P 21/c'
_symmetry_Int_Tables_number      14
_space_group_name_Hall           '-P 2ybc'
loop_
_symmetry_equiv_pos_site_id
_symmetry_equiv_pos_as_xyz
1 x,y,z
2 -x,1/2+y,1/2-z
3 -x,-y,-z
4 x,1/2-y,1/2+z
_cell_length_a                   8.7895(2)
_cell_length_b                   19.1727(4)
_cell_length_c                   7.1261(2)
_cell_angle_alpha                90
_cell_angle_beta                 108.8320(10)
_cell_angle_gamma                90
_cell_volume                     1136.6
loop_
_atom_site_label
_atom_site_type_symbol
_atom_site_fract_x
_atom_site_fract_y
_atom_site_fract_z
Cu1 Cu 0.32917(4) 0.30044(2) 0.72881(5)
Cl1 Cl 0.18629(10) 0.40195(5) 0.64564(16)
N1 N 0.5348(3) 0.35117(14) 0.8726(4)
C1 C 0.6645(3) 0.30960(17) 0.9570(4)
Cl2 Cl 0.16126(8) 0.25816(5) 0.95966(11)
N2 N 0.4738(3) 0.21949(16) 0.8260(4)
C2 C 0.8157(4) 0.33576(18) 1.0542(4)
H1 H 0.892(5) 0.308(2) 1.119(6)
N3 N 0.9889(3) 0.43549(19) 1.1562(5)
C3 C 0.8403(4) 0.40820(18) 1.0652(5)
N4 N 0.8071(4) 0.06137(18) 1.0418(4)
C4 C 0.7067(4) 0.45062(18) 0.9764(5)
H2 H 0.717(5) 0.499(2) 0.988(6)
C5 C 0.5600(4) 0.42038(17) 0.8851(5)
H3 H 0.467(5) 0.450(3) 0.819(7)
C6 C 0.6285(3) 0.23414(16) 0.9330(4)
C7 C 0.7417(4) 0.18274(19) 1.0078(4)
H4 H 0.8491 0.1949 1.0815
C8 C 0.6976(4) 0.11258(18) 0.9747(5)
C9 C 0.5348(4) 0.09774(19) 0.8716(5)
H5 H 0.497(3) 0.0530(19) 0.851(5)
C10 C 0.4309(4) 0.15218(19) 0.8001(5)
H6 H 0.324(4) 0.141(2) 0.717(5)
H7 H 0.997(6) 0.479(3) 1.190(8)
H8 H 0.924(8) 0.072(3) 1.068(9)
H9 H 1.058(5) 0.412(2) 1.243(6)
H10 H 0.786(4) 0.022(2) 0.999(5)
Cu1C Cu 0.32917(4) 0.19956(2) 1.22881(5)
Cl2C Cl 0.16126(8) 0.24184(5) 0.45966(11)
loop_
_geom_bond_atom_site_label_1
_geom_bond_atom_site_label_2
_geom_bond_site_symmetry_1
_geom_bond_site_symmetry_2
Cu1 Cl1 1_555 1_555
N1 Cu1 1_555 1_555
C1 N1 1_555 1_555
Cl2 Cu1 1_555 1_555
N2 Cu1 1_555 1_555
C2 C1 1_555 1_555
H1 C2 1_555 1_555
N3 C3 1_555 1_555
C3 C2 1_555 1_555
N4 C8 1_555 1_555
C4 C3 1_555 1_555
H2 C4 1_555 1_555
C5 N1 1_555 1_555
H3 C5 1_555 1_555
C6 C1 1_555 1_555
C7 C6 1_555 1_555
H4 C7 1_555 1_555
C8 C7 1_555 1_555
C9 C8 1_555 1_555
H5 C9 1_555 1_555
C10 N2 1_555 1_555
H6 C10 1_555 1_555
H7 N3 1_555 1_555
H8 N4 1_555 1_555
H9 N3 1_555 1_555
H10 N4 1_555 1_555
Cu1C Cl2 1_555 1_555
Cl2C Cu1 1_555 1_555
N2 C6 1_555 1_555
C4 C5 1_555 1_555
C9 C10 1_555 1_555

#END
