
#######################################################################
#
#                 Cambridge Crystallographic Data Centre
#                                CCDC 
#
#######################################################################
#
# If this CIF has been generated from an entry in the Cambridge 
# Structural Database, then it will include bibliographic, chemical, 
# crystal, experimental, refinement or atomic coordinate data resulting 
# from the CCDC's data processing and validation procedures.
#
#######################################################################

data_RIXBAC
_symmetry_cell_setting           triclinic
_symmetry_space_group_name_H-M   'P -1'
_symmetry_Int_Tables_number      2
_space_group_name_Hall           '-P 1'
loop_
_symmetry_equiv_pos_site_id
_symmetry_equiv_pos_as_xyz
1 x,y,z
2 -x,-y,-z
_cell_length_a                   9.5288(15)
_cell_length_b                   11.3655(19)
_cell_length_c                   13.732(2)
_cell_angle_alpha                69.107(2)
_cell_angle_beta                 76.724(5)
_cell_angle_gamma                81.010(4)
_cell_volume                     1347.72
loop_
_atom_site_label
_atom_site_type_symbol
_atom_site_fract_x
_atom_site_fract_y
_atom_site_fract_z
Co1 Co 1.0000 0.0000 0.5000
Co2 Co 0.60655(3) 0.79659(3) 0.84117(2)
S1 S 0.27835(7) 0.70888(5) 0.94790(5)
O1 O 0.57280(18) 0.92778(16) 0.69378(13)
O2 O 0.3997(2) 1.0453(2) 0.60727(16)
O3 O 0.1669(2) 0.67569(18) 0.90673(16)
O4 O 0.3561(2) 0.60322(17) 1.01360(17)
O5 O 0.39776(18) 1.04457(17) 1.10196(15)
O6 O 0.19306(18) 1.12745(15) 1.16987(13)
O7 O 0.9872(2) 0.12116(18) 0.34749(14)
H1 H 1.0448 0.1254 0.2925
H2 H 0.9318 0.1809 0.3486
O8 O 1.21788(18) 0.03064(16) 0.48244(13)
H3 H 1.2840 0.0441 0.4278
H4 H 1.2579 0.0328 0.5299
O9 O 0.6298(2) 0.6682(2) 0.99917(15)
H5 H 0.5628 0.6233 1.0095
H6 H 0.7021 0.6247 1.0151
N1 N 0.9337(2) 0.15629(17) 0.56351(16)
N2 N 0.6978(2) 0.65507(19) 0.77526(17)
N3 N 0.3897(2) 0.79234(18) 0.85703(16)
C1 C 1.0251(3) 0.2410(2) 0.5523(2)
H16 H 1.1189 0.2332 0.5151
C2 C 0.9874(3) 0.3390(2) 0.5930(2)
H17 H 1.0555 0.3940 0.5844
C3 C 0.8484(3) 0.3548(2) 0.64640(19)
C4 C 0.7534(3) 0.2681(2) 0.6581(2)
H18 H 0.6584 0.2753 0.6934
C5 C 0.8002(3) 0.1709(2) 0.6172(2)
H19 H 0.7351 0.1125 0.6277
C6 C 0.7984(3) 0.4606(2) 0.6900(2)
C7 C 0.8887(3) 0.5099(2) 0.7298(2)
H20 H 0.9853 0.4790 0.7278
C8 C 0.8344(3) 0.6047(2) 0.7722(2)
H21 H 0.8958 0.6350 0.8000
C9 C 0.6109(3) 0.6076(3) 0.7366(3)
H22 H 0.5151 0.6409 0.7387
C10 C 0.6564(3) 0.5126(3) 0.6940(3)
H23 H 0.5922 0.4832 0.6679
C11 C 0.4413(3) 0.9625(2) 0.6855(2)
C12 C 0.3265(3) 0.8998(3) 0.7791(2)
H24 H 0.2776 0.9610 0.8125
H25 H 0.2553 0.8713 0.7540
C13 C 0.1820(2) 0.8007(2) 1.02731(18)
C14 C 0.2569(2) 0.8837(2) 1.04658(18)
H26 H 0.3550 0.8906 1.0183
C15 C 0.1834(2) 0.9562(2) 1.10866(17)
C16 C 0.0375(3) 0.9435(2) 1.1519(2)
H27 H -0.0118 0.9917 1.1934
C17 C -0.0353(3) 0.8588(2) 1.1334(2)
H28 H -0.1325 0.8496 1.1635
C18 C 0.0363(3) 0.7886(2) 1.0704(2)
H29 H -0.0130 0.7334 1.0569
C19 C 0.2615(3) 1.0469(2) 1.12800(19)
Co2A Co 1.39345(3) -0.79659(3) 0.15883(2)
Co2A_2 Co 0.39345(3) 1.20341(3) 1.15883(2)
S1A S 0.72165(7) 1.29112(5) 1.05210(5)
O1A O 0.42720(18) 1.07222(16) 1.30622(13)
O1A_2 O 1.42720(18) -0.92778(16) 0.30622(13)
O2A O 0.6003(2) 0.9547(2) 1.39273(16)
O3A O 0.8331(2) 1.32431(18) 1.09327(16)
O4A O 0.6439(2) 1.39678(17) 0.98640(17)
O5A O 0.60224(18) 0.95543(17) 0.89804(15)
O5_2 O 1.39776(18) -0.95543(17) 0.10196(15)
O6A O 0.80694(18) 0.87255(15) 0.83013(13)
O6_2 O 1.19306(18) -0.87255(15) 0.16987(13)
O7A O 1.0128(2) -0.12116(18) 0.65251(14)
H1A H 0.9552 -0.1254 0.7075
H2A H 1.0682 -0.1809 0.6514
O8A O 0.78212(18) -0.03064(16) 0.51756(13)
H3A H 0.7160 -0.0441 0.5722
H4A H 0.7421 -0.0328 0.4701
O9A O 1.3702(2) -0.6682(2) 0.00083(15)
H5A H 1.4372 -0.6233 -0.0095
H6A H 1.2979 -0.6247 -0.0151
N1A N 1.0663(2) -0.15629(17) 0.43649(16)
N2A N 1.3022(2) -0.65507(19) 0.22474(17)
N3A N 0.6103(2) 1.20766(18) 1.14297(16)
N3A_2 N 1.6103(2) -0.79234(18) 0.14297(16)
C1A C 0.9749(3) -0.2410(2) 0.4477(2)
H16A H 0.8811 -0.2332 0.4849
C2A C 1.0126(3) -0.3390(2) 0.4070(2)
H17A H 0.9445 -0.3940 0.4156
C3A C 1.1516(3) -0.3548(2) 0.35360(19)
C4A C 1.2466(3) -0.2681(2) 0.3419(2)
H18A H 1.3416 -0.2753 0.3066
C5A C 1.1998(3) -0.1709(2) 0.3828(2)
H19A H 1.2649 -0.1125 0.3723
C6A C 1.2016(3) -0.4606(2) 0.3100(2)
C7A C 1.1113(3) -0.5099(2) 0.2702(2)
H20A H 1.0147 -0.4790 0.2722
C8A C 1.1656(3) -0.6047(2) 0.2278(2)
H21A H 1.1042 -0.6350 0.2000
C9A C 1.3891(3) -0.6076(3) 0.2634(3)
H22A H 1.4849 -0.6409 0.2613
C10A C 1.3436(3) -0.5126(3) 0.3060(3)
H23A H 1.4078 -0.4832 0.3321
C11A C 0.5587(3) 1.0375(2) 1.3145(2)
C12A C 0.6735(3) 1.1002(3) 1.2209(2)
H24A H 0.7224 1.0390 1.1875
H25A H 0.7447 1.1287 1.2460
C13A C 0.8180(2) 1.1993(2) 0.97269(18)
C14A C 0.7431(2) 1.1163(2) 0.95342(18)
H26A H 0.6450 1.1094 0.9817
C15A C 0.8166(2) 1.0438(2) 0.89134(17)
C16A C 0.9625(3) 1.0565(2) 0.8481(2)
H27A H 1.0118 1.0083 0.8066
C17A C 1.0353(3) 1.1412(2) 0.8666(2)
H28A H 1.1325 1.1504 0.8365
C18A C 0.9637(3) 1.2114(2) 0.9296(2)
H29A H 1.0130 1.2666 0.9431
C19A C 0.7385(3) 0.9531(2) 0.87200(19)
O10 O 0.5893(3) 0.8063(3) 0.1552(2)
H7 H 0.5991 0.7657 0.1116
H8 H 0.5453 0.8745 0.1452
O11 O 0.7977(3) 0.3351(3) 0.3036(2)
H9 H 0.7558 0.2763 0.3522
H10 H 0.7674 0.3414 0.2408
O12 O 0.9026(5) 0.5626(4) 0.0222(4)
H11 H 0.8821 0.4954 0.0169
H12 H 0.9814 0.5958 -0.0102
O13 O 0.4594(6) 0.7470(5) 0.5314(5)
H13 H 0.4404 0.6834 0.5218
H14 H 0.5066 0.7934 0.4760
O14 O 0.6334(11) 0.6946(7) 0.3644(7)
H15 H 0.5892 0.6646 0.4253
C20 C 0.7026(8) 0.5908(6) 0.3235(5)
H30 H 0.8019 0.6055 0.2919
H31 H 0.6527 0.5878 0.2712
H32 H 0.6979 0.5118 0.3810
loop_
_geom_bond_atom_site_label_1
_geom_bond_atom_site_label_2
_geom_bond_site_symmetry_1
_geom_bond_site_symmetry_2
Co1 O7 1_555 1_555
Co2 O1 1_555 1_555
S1 O3 1_555 1_555
O1 C11 1_555 1_555
O2 C11 1_555 1_555
O4 S1 1_555 1_555
O5 C19 1_555 1_555
O6 C19 1_555 1_555
O7 H1 1_555 1_555
H2 O7 1_555 1_555
O8 Co1 1_555 1_555
H3 O8 1_555 1_555
H4 O8 1_555 1_555
O9 Co2 1_555 1_555
H5 O9 1_555 1_555
H6 O9 1_555 1_555
O10 H7 1_555 1_555
H8 O10 1_555 1_555
O11 H9 1_555 1_555
H10 O11 1_555 1_555
O12 H11 1_555 1_555
H12 O12 1_555 1_555
O13 H13 1_555 1_555
H14 O13 1_555 1_555
O14 H15 1_555 1_555
N1 Co1 1_555 1_555
N2 Co2 1_555 1_555
N3 Co2 1_555 1_555
C1 N1 1_555 1_555
H16 C1 1_555 1_555
C2 C1 1_555 1_555
H17 C2 1_555 1_555
C3 C2 1_555 1_555
C4 C3 1_555 1_555
H18 C4 1_555 1_555
C5 N1 1_555 1_555
H19 C5 1_555 1_555
C6 C3 1_555 1_555
C7 C6 1_555 1_555
H20 C7 1_555 1_555
C8 N2 1_555 1_555
H21 C8 1_555 1_555
C9 N2 1_555 1_555
H22 C9 1_555 1_555
C10 C6 1_555 1_555
H23 C10 1_555 1_555
C11 C12 1_555 1_555
C12 N3 1_555 1_555
H24 C12 1_555 1_555
H25 C12 1_555 1_555
C13 S1 1_555 1_555
C14 C13 1_555 1_555
H26 C14 1_555 1_555
C15 C14 1_555 1_555
C16 C15 1_555 1_555
H27 C16 1_555 1_555
C17 C16 1_555 1_555
H28 C17 1_555 1_555
C18 C13 1_555 1_555
H29 C18 1_555 1_555
C19 C15 1_555 1_555
C20 O14 1_555 1_555
H30 C20 1_555 1_555
H31 C20 1_555 1_555
H32 C20 1_555 1_555
Co2A O1A_2 1_555 1_555
Co2A_2 O5 1_555 1_555
S1A O3A 1_555 1_555
O1A Co2A_2 1_555 1_555
O2A C11A 1_555 1_555
O4A S1A 1_555 1_555
O5A Co2 1_555 1_555
O5_2 Co2A 1_555 1_555
O6A Co2 1_555 1_555
O6_2 Co2A 1_555 1_555
O7A Co1 1_555 1_555
H1A O7A 1_555 1_555
H2A O7A 1_555 1_555
O8A Co1 1_555 1_555
H3A O8A 1_555 1_555
H4A O8A 1_555 1_555
O9A Co2A 1_555 1_555
H5A O9A 1_555 1_555
H6A O9A 1_555 1_555
N1A Co1 1_555 1_555
N2A Co2A 1_555 1_555
N3A Co2A_2 1_555 1_555
N3A_2 Co2A 1_555 1_555
C1A N1A 1_555 1_555
H16A C1A 1_555 1_555
C2A C1A 1_555 1_555
H17A C2A 1_555 1_555
C3A C2A 1_555 1_555
C4A C3A 1_555 1_555
H18A C4A 1_555 1_555
C5A N1A 1_555 1_555
H19A C5A 1_555 1_555
C6A C3A 1_555 1_555
C7A C6A 1_555 1_555
H20A C7A 1_555 1_555
C8A N2A 1_555 1_555
H21A C8A 1_555 1_555
C9A N2A 1_555 1_555
H22A C9A 1_555 1_555
C10A C6A 1_555 1_555
H23A C10A 1_555 1_555
C11A O1A 1_555 1_555
C12A N3A 1_555 1_555
H24A C12A 1_555 1_555
H25A C12A 1_555 1_555
C13A S1A 1_555 1_555
C14A C13A 1_555 1_555
H26A C14A 1_555 1_555
C15A C14A 1_555 1_555
C16A C15A 1_555 1_555
H27A C16A 1_555 1_555
C17A C16A 1_555 1_555
H28A C17A 1_555 1_555
C18A C13A 1_555 1_555
H29A C18A 1_555 1_555
C19A O5A 1_555 1_555
S1 N3 1_555 1_555
O6 Co2A_2 1_555 1_555
C4 C5 1_555 1_555
C7 C8 1_555 1_555
C9 C10 1_555 1_555
C17 C18 1_555 1_555
S1A N3A 1_555 1_555
O6A C19A 1_555 1_555
C4A C5A 1_555 1_555
C7A C8A 1_555 1_555
C9A C10A 1_555 1_555
C11A C12A 1_555 1_555
C15A C19A 1_555 1_555
C17A C18A 1_555 1_555

#END
