
#######################################################################
#
#                 Cambridge Crystallographic Data Centre
#                                CCDC 
#
#######################################################################
#
# If this CIF has been generated from an entry in the Cambridge 
# Structural Database, then it will include bibliographic, chemical, 
# crystal, experimental, refinement or atomic coordinate data resulting 
# from the CCDC's data processing and validation procedures.
#
#######################################################################

data_RIXBOQ
_symmetry_cell_setting           monoclinic
_symmetry_space_group_name_H-M   'P 21/n'
_symmetry_Int_Tables_number      14
_space_group_name_Hall           '-P 2yn'
loop_
_symmetry_equiv_pos_site_id
_symmetry_equiv_pos_as_xyz
1 x,y,z
2 1/2-x,1/2+y,1/2-z
3 -x,-y,-z
4 1/2+x,1/2-y,1/2+z
_cell_length_a                   10.855(4)
_cell_length_b                   15.576(6)
_cell_length_c                   13.577(5)
_cell_angle_alpha                90
_cell_angle_beta                 96.017(5)
_cell_angle_gamma                90
_cell_volume                     2282.92
loop_
_atom_site_label
_atom_site_type_symbol
_atom_site_fract_x
_atom_site_fract_y
_atom_site_fract_z
Cu1 Cu -0.14359(6) 0.99660(4) 1.26504(4)
Ca1 Ca 0.5000 1.0000 0.5000
S1 S 0.17507(13) 1.16236(8) 0.88408(10)
O1 O 0.1408(4) 0.9576(3) 1.2850(3)
O2 O -0.0124(3) 1.0090(2) 1.1797(3)
O3 O 0.0436(3) 1.1690(2) 0.8853(3)
O4 O 0.2452(4) 1.2415(2) 0.8960(3)
O5 O 0.2772(4) 1.0170(2) 0.6486(3)
O6 O 0.4483(4) 1.0871(3) 0.6295(3)
O7 O 0.3315(4) 1.0526(3) 0.3998(3)
H1 H 0.2774 1.0188 0.3746
H2 H 0.3352 1.0962 0.3647
O8 O 0.6186(5) 1.1164(4) 0.4699(4)
H3 H 0.6793 1.1046 0.4393
H4 H 0.6413 1.1378 0.5250
N1 N -0.2547(4) 1.1015(3) 1.1695(3)
N2 N -0.5673(4) 1.4131(3) 0.8589(3)
N3 N 0.2072(4) 1.1146(3) 0.7888(3)
C1 C 0.0988(5) 0.9919(3) 1.2061(4)
C2 C 0.1874(5) 1.0192(3) 1.1327(4)
C3 C 0.3129(5) 1.0014(4) 1.1515(5)
H9 H 0.3421 0.9683 1.2060
C4 C 0.3937(5) 1.0330(4) 1.0893(4)
H10 H 0.4777 1.0206 1.1015
C5 C 0.3523(5) 1.0822(4) 1.0103(4)
H11 H 0.4085 1.1052 0.9703
C6 C 0.2285(5) 1.0981(3) 0.9889(4)
C7 C 0.1448(5) 1.0663(3) 1.0508(4)
H12 H 0.0605 1.0770 1.0368
C8 C 0.3238(5) 1.1377(4) 0.7506(4)
H13 H 0.3906 1.1357 0.8040
H14 H 0.3183 1.1958 0.7249
C9 C 0.3510(5) 1.0779(4) 0.6711(4)
C10 C -0.5712(5) 1.4157(3) 0.9574(4)
H15 H -0.6173 1.4591 0.9831
C11 C -0.5111(5) 1.3581(4) 1.0226(4)
H16 H -0.5160 1.3631 1.0903
C12 C -0.4435(5) 1.2928(3) 0.9859(4)
C13 C -0.4414(5) 1.2867(3) 0.8835(4)
H17 H -0.4001 1.2420 0.8557
C14 C -0.5026(5) 1.3491(3) 0.8246(4)
H18 H -0.4983 1.3461 0.7566
C15 C -0.3748(5) 1.2288(3) 1.0511(4)
C16 C -0.4148(5) 1.2053(3) 1.1421(4)
H19 H -0.4839 1.2313 1.1643
C17 C -0.3518(5) 1.1446(4) 1.1967(4)
H20 H -0.3779 1.1317 1.2581
C18 C -0.2174(5) 1.1241(4) 1.0845(4)
H21 H -0.1478 1.0967 1.0650
C19 C -0.2730(5) 1.1849(3) 1.0224(4)
H22 H -0.2433 1.1966 0.9621
Cu1B Cu 1.14359(6) 1.00340(4) -0.26504(4)
Cu1B_2 Cu 0.14359(6) 1.00340(4) 0.73496(4)
Cu1C Cu -0.64359(6) 1.50340(4) 0.76504(4)
Cu1_2 Cu 0.85641(6) 0.99660(4) 0.26504(4)
Cu1C_2 Cu 0.35641(6) 1.50340(4) 1.76504(4)
S1B S 0.82493(13) 0.83764(8) 0.11592(10)
O1B O 0.8592(4) 1.0424(3) -0.2850(3)
O2B O 1.0124(3) 0.9910(2) -0.1797(3)
O3B O 0.9564(3) 0.8310(2) 0.1147(3)
O4B O 0.7548(4) 0.7585(2) 0.1040(3)
O5B O 0.7228(4) 0.9830(2) 0.3514(3)
O5B_2 O -0.2772(4) 0.9830(2) 1.3514(3)
O5_2 O 1.2772(4) 1.0170(2) -0.3514(3)
O6B O 0.5517(4) 0.9129(3) 0.3705(3)
O7B O 0.6685(4) 0.9474(3) 0.6002(3)
H1B H 0.7226 0.9812 0.6254
H2B H 0.6648 0.9038 0.6353
O8B O 0.3814(5) 0.8836(4) 0.5301(4)
H3B H 0.3207 0.8954 0.5607
H4B H 0.3587 0.8622 0.4750
N1C N 0.2453(4) 1.3985(3) 1.6695(3)
N1B N 1.2547(4) 0.8985(3) -0.1695(3)
N2C N -0.0673(4) 1.0869(3) 1.3589(3)
N2A N 1.0673(4) 0.9131(3) -0.3589(3)
N3B N 0.7928(4) 0.8854(3) 0.2112(3)
N3B_2 N -0.2072(4) 0.8854(3) 1.2112(3)
N3_2 N 1.2072(4) 1.1146(3) -0.2112(3)
C1B C 0.9012(5) 1.0081(3) -0.2061(4)
C2B C 0.8126(5) 0.9808(3) -0.1327(4)
C3B C 0.6871(5) 0.9986(4) -0.1515(5)
H9B H 0.6579 1.0317 -0.2060
C4B C 0.6063(5) 0.9670(4) -0.0893(4)
H10B H 0.5223 0.9794 -0.1015
C5B C 0.6477(5) 0.9178(4) -0.0103(4)
H11B H 0.5915 0.8948 0.0297
C6B C 0.7715(5) 0.9019(3) 0.0111(4)
C7B C 0.8552(5) 0.9337(3) -0.0508(4)
H12B H 0.9395 0.9230 -0.0368
C8B C 0.6762(5) 0.8623(4) 0.2494(4)
H13B H 0.6094 0.8643 0.1960
H14B H 0.6817 0.8042 0.2751
C9B C 0.6490(5) 0.9221(4) 0.3289(4)
C10C C -0.0712(5) 1.0843(3) 1.4574(4)
H15C H -0.1173 1.0409 1.4831
C11C C -0.0111(5) 1.1419(4) 1.5226(4)
H16C H -0.0160 1.1369 1.5903
C12C C 0.0565(5) 1.2072(3) 1.4859(4)
C13C C 0.0586(5) 1.2133(3) 1.3835(4)
H17C H 0.0999 1.2580 1.3557
C14C C -0.0026(5) 1.1509(3) 1.3246(4)
H18C H 0.0017 1.1539 1.2566
C15C C 0.1252(5) 1.2712(3) 1.5511(4)
C16C C 0.0852(5) 1.2947(3) 1.6421(4)
H19C H 0.0161 1.2687 1.6643
C17C C 0.1482(5) 1.3554(4) 1.6967(4)
H20C H 0.1221 1.3683 1.7581
C18C C 0.2826(5) 1.3759(4) 1.5845(4)
H21C H 0.3522 1.4033 1.5650
C19C C 0.2270(5) 1.3151(3) 1.5224(4)
H22C H 0.2567 1.3034 1.4621
O9 O 0.1385(5) 0.7070(3) 0.1850(4)
H5 H 0.0834 0.7433 0.1639
H6 H 0.1876 0.7389 0.2217
O10 O 0.3026(7) 0.8153(5) 0.3088(5)
H7 H 0.2239 0.8202 0.3204
H8 H 0.3703 0.8414 0.3259
loop_
_geom_bond_atom_site_label_1
_geom_bond_atom_site_label_2
_geom_bond_site_symmetry_1
_geom_bond_site_symmetry_2
Cu1 O2 1_555 1_555
Ca1 O6 1_555 1_555
S1 O3 1_555 1_555
O1 C1 1_555 1_555
O2 C1 1_555 1_555
O4 S1 1_555 1_555
O5 C9 1_555 1_555
O6 C9 1_555 1_555
O7 Ca1 1_555 1_555
H1 O7 1_555 1_555
H2 O7 1_555 1_555
O8 Ca1 1_555 1_555
H3 O8 1_555 1_555
H4 O8 1_555 1_555
O9 H5 1_555 1_555
H6 O9 1_555 1_555
O10 H7 1_555 1_555
H8 O10 1_555 1_555
N1 Cu1 1_555 1_555
N2 C10 1_555 1_555
N3 S1 1_555 1_555
C1 C2 1_555 1_555
C2 C3 1_555 1_555
C3 H9 1_555 1_555
C4 C3 1_555 1_555
H10 C4 1_555 1_555
C5 C4 1_555 1_555
H11 C5 1_555 1_555
C6 S1 1_555 1_555
C7 C2 1_555 1_555
H12 C7 1_555 1_555
C8 N3 1_555 1_555
H13 C8 1_555 1_555
H14 C8 1_555 1_555
C9 C8 1_555 1_555
C10 H15 1_555 1_555
C11 C10 1_555 1_555
H16 C11 1_555 1_555
C12 C11 1_555 1_555
C13 C12 1_555 1_555
H17 C13 1_555 1_555
C14 N2 1_555 1_555
H18 C14 1_555 1_555
C15 C12 1_555 1_555
C16 C15 1_555 1_555
H19 C16 1_555 1_555
C17 N1 1_555 1_555
H20 C17 1_555 1_555
C18 N1 1_555 1_555
H21 C18 1_555 1_555
C19 C15 1_555 1_555
H22 C19 1_555 1_555
Cu1B O2B 1_555 1_555
Cu1B_2 O5 1_555 1_555
Cu1C N2 1_555 1_555
Cu1_2 O5B 1_555 1_555
Cu1C_2 N1C 1_555 1_555
S1B O3B 1_555 1_555
O1B C1B 1_555 1_555
O2B C1B 1_555 1_555
O4B S1B 1_555 1_555
O5B C9B 1_555 1_555
O5B_2 Cu1 1_555 1_555
O5_2 Cu1B 1_555 1_555
O6B Ca1 1_555 1_555
O7B Ca1 1_555 1_555
H1B O7B 1_555 1_555
H2B O7B 1_555 1_555
O8B Ca1 1_555 1_555
H3B O8B 1_555 1_555
H4B O8B 1_555 1_555
N1C C17C 1_555 1_555
N1B Cu1B 1_555 1_555
N2C Cu1 1_555 1_555
N2A Cu1B 1_555 1_555
N3B Cu1_2 1_555 1_555
N3B_2 Cu1 1_555 1_555
N3_2 Cu1B 1_555 1_555
C1B C2B 1_555 1_555
C2B C3B 1_555 1_555
C3B H9B 1_555 1_555
C4B C3B 1_555 1_555
H10B C4B 1_555 1_555
C5B C4B 1_555 1_555
H11B C5B 1_555 1_555
C6B S1B 1_555 1_555
C7B C2B 1_555 1_555
H12B C7B 1_555 1_555
C8B N3B 1_555 1_555
H13B C8B 1_555 1_555
H14B C8B 1_555 1_555
C9B O6B 1_555 1_555
C10C N2C 1_555 1_555
H15C C10C 1_555 1_555
C11C C10C 1_555 1_555
H16C C11C 1_555 1_555
C12C C11C 1_555 1_555
C13C C12C 1_555 1_555
H17C C13C 1_555 1_555
C14C N2C 1_555 1_555
H18C C14C 1_555 1_555
C15C C12C 1_555 1_555
C16C C15C 1_555 1_555
H19C C16C 1_555 1_555
C17C C16C 1_555 1_555
H20C C17C 1_555 1_555
C18C N1C 1_555 1_555
H21C C18C 1_555 1_555
C19C C15C 1_555 1_555
H22C C19C 1_555 1_555
N3 Cu1B_2 1_555 1_555
C5 C6 1_555 1_555
C6 C7 1_555 1_555
C13 C14 1_555 1_555
C16 C17 1_555 1_555
C18 C19 1_555 1_555
S1B N3B 1_555 1_555
C5B C6B 1_555 1_555
C6B C7B 1_555 1_555
C8B C9B 1_555 1_555
C13C C14C 1_555 1_555
C18C C19C 1_555 1_555

#END
