
#######################################################################
#
#                 Cambridge Crystallographic Data Centre
#                                CCDC 
#
#######################################################################
#
# If this CIF has been generated from an entry in the Cambridge 
# Structural Database, then it will include bibliographic, chemical, 
# crystal, experimental, refinement or atomic coordinate data resulting 
# from the CCDC's data processing and validation procedures.
#
#######################################################################

data_RIXDOS
_symmetry_cell_setting           monoclinic
_symmetry_space_group_name_H-M   'P 21/n'
_symmetry_Int_Tables_number      14
_space_group_name_Hall           '-P 2yn'
loop_
_symmetry_equiv_pos_site_id
_symmetry_equiv_pos_as_xyz
1 x,y,z
2 1/2-x,1/2+y,1/2-z
3 -x,-y,-z
4 1/2+x,1/2-y,1/2+z
_cell_length_a                   8.9183(19)
_cell_length_b                   28.700(6)
_cell_length_c                   10.034(2)
_cell_angle_alpha                90
_cell_angle_beta                 110.958(15)
_cell_angle_gamma                90
_cell_volume                     2398.35
loop_
_atom_site_label
_atom_site_type_symbol
_atom_site_fract_x
_atom_site_fract_y
_atom_site_fract_z
Cd1 Cd 0.12926(3) -0.138770(10) -0.24639(4)
Cd2 Cd 0.13103(3) -0.052740(10) 0.05987(4)
Cl1 Cl 0.14101(11) -0.14121(4) -0.50146(13)
Cl2 Cl 0.08035(10) -0.14204(3) 0.02723(13)
Cl3 Cl 0.18954(13) -0.05622(3) -0.18508(14)
Cl4 Cl -0.17527(11) -0.03581(3) -0.07681(13)
N1 N -0.1390(3) -0.16280(10) -0.3241(4)
N2 N 0.1184(3) -0.21872(10) -0.2303(4)
N3 N 0.3875(3) -0.16969(11) -0.1424(4)
N4 N -0.0883(3) -0.43276(11) -0.3106(4)
O1 O 0.1107(4) -0.05687(11) 0.2884(4)
C1 C -0.2623(4) -0.13292(14) -0.3634(5)
H1 H -0.2410 -0.1011 -0.3595
C2 C -0.4195(4) -0.14752(14) -0.4095(5)
H2 H -0.5030 -0.1260 -0.4353
C3 C -0.4503(4) -0.19380(14) -0.4165(5)
H3 H -0.5560 -0.2043 -0.4491
C4 C -0.3253(4) -0.22573(13) -0.3753(4)
H4 H -0.3456 -0.2576 -0.3790
C5 C -0.1688(4) -0.20875(13) -0.3280(4)
C6 C -0.0258(4) -0.24038(12) -0.2790(4)
C7 C -0.0371(4) -0.28797(13) -0.2823(4)
H5 H -0.1374 -0.3022 -0.3162
C8 C 0.1031(4) -0.31557(12) -0.2344(4)
C9 C 0.2500(4) -0.29225(13) -0.1839(4)
H6 H 0.3452 -0.3091 -0.1506
C10 C 0.2544(4) -0.24413(13) -0.1832(4)
C11 C 0.4057(4) -0.21587(13) -0.1346(4)
C12 C 0.5577(4) -0.23628(13) -0.0829(4)
H7 H 0.5690 -0.2685 -0.0766
C13 C 0.6904(4) -0.20784(15) -0.0414(5)
H8 H 0.7927 -0.2208 -0.0073
C14 C 0.6727(4) -0.16088(15) -0.0502(5)
H9 H 0.7620 -0.1414 -0.0236
C15 C 0.5192(4) -0.14258(14) -0.0996(4)
H10 H 0.5065 -0.1104 -0.1034
C16 C 0.0903(4) -0.36687(13) -0.2460(4)
C17 C 0.2155(4) -0.39576(13) -0.2442(5)
H11 H 0.3178 -0.3835 -0.2245
C18 C 0.1889(5) -0.44199(14) -0.2712(5)
H12 H 0.2739 -0.4618 -0.2646
C19 C 0.0350(5) -0.45957(14) -0.3087(5)
H13 H 0.0167 -0.4909 -0.3332
C20 C -0.0561(4) -0.38841(14) -0.2742(5)
H14 H -0.1394 -0.3703 -0.2670
C21 C 0.1781(8) -0.0231(2) 0.4017(7)
H15 H 0.2929 -0.0227 0.4292
H16 H 0.1500 -0.0315 0.4824
H17 H 0.1360 0.0073 0.3684
H18 H 0.114(6) -0.0830(9) 0.328(5)
Cd2C Cd -0.36897(3) -0.447260(10) -0.44013(4)
Cd2B Cd -0.13103(3) 0.052740(10) -0.05987(4)
Cl4B Cl 0.17527(11) 0.03581(3) 0.07681(13)
N4C N 0.4117(3) -0.06724(11) 0.1894(4)
loop_
_geom_bond_atom_site_label_1
_geom_bond_atom_site_label_2
_geom_bond_site_symmetry_1
_geom_bond_site_symmetry_2
Cd1 Cl1 1_555 1_555
Cd2 Cl2 1_555 1_555
Cl2 Cd1 1_555 1_555
Cl3 Cd1 1_555 1_555
Cl4 Cd2 1_555 1_555
N1 Cd1 1_555 1_555
N2 Cd1 1_555 1_555
N3 Cd1 1_555 1_555
N4 C19 1_555 1_555
O1 Cd2 1_555 1_555
C1 N1 1_555 1_555
H1 C1 1_555 1_555
C2 C1 1_555 1_555
H2 C2 1_555 1_555
C3 C2 1_555 1_555
H3 C3 1_555 1_555
C4 C3 1_555 1_555
H4 C4 1_555 1_555
C5 N1 1_555 1_555
C6 N2 1_555 1_555
C7 C6 1_555 1_555
H5 C7 1_555 1_555
C8 C7 1_555 1_555
C9 C8 1_555 1_555
H6 C9 1_555 1_555
C10 N2 1_555 1_555
C11 N3 1_555 1_555
C12 C11 1_555 1_555
H7 C12 1_555 1_555
C13 C12 1_555 1_555
H8 C13 1_555 1_555
C14 C13 1_555 1_555
H9 C14 1_555 1_555
C15 N3 1_555 1_555
H10 C15 1_555 1_555
C16 C8 1_555 1_555
C17 C16 1_555 1_555
H11 C17 1_555 1_555
C18 C17 1_555 1_555
H12 C18 1_555 1_555
C19 C18 1_555 1_555
H13 C19 1_555 1_555
C20 N4 1_555 1_555
H14 C20 1_555 1_555
C21 O1 1_555 1_555
H15 C21 1_555 1_555
H16 C21 1_555 1_555
H17 C21 1_555 1_555
H18 O1 1_555 1_555
Cd2C N4 1_555 1_555
Cd2B Cl4 1_555 1_555
Cl4B Cd2 1_555 1_555
N4C Cd2 1_555 1_555
Cd2 Cl3 1_555 1_555
C4 C5 1_555 1_555
C5 C6 1_555 1_555
C9 C10 1_555 1_555
C10 C11 1_555 1_555
C14 C15 1_555 1_555
C16 C20 1_555 1_555
Cd2B Cl4B 1_555 1_555

#END
