
#######################################################################
#
#                 Cambridge Crystallographic Data Centre
#                                CCDC 
#
#######################################################################
#
# If this CIF has been generated from an entry in the Cambridge 
# Structural Database, then it will include bibliographic, chemical, 
# crystal, experimental, refinement or atomic coordinate data resulting 
# from the CCDC's data processing and validation procedures.
#
#######################################################################

data_RIXGAH
_symmetry_cell_setting           monoclinic
_symmetry_space_group_name_H-M   'P 21/c'
_symmetry_Int_Tables_number      14
_space_group_name_Hall           '-P 2ybc'
loop_
_symmetry_equiv_pos_site_id
_symmetry_equiv_pos_as_xyz
1 x,y,z
2 -x,1/2+y,1/2-z
3 -x,-y,-z
4 x,1/2-y,1/2+z
_cell_length_a                   6.422(3)
_cell_length_b                   17.547(9)
_cell_length_c                   15.140(8)
_cell_angle_alpha                90
_cell_angle_beta                 100.063(7)
_cell_angle_gamma                90
_cell_volume                     1679.83
loop_
_atom_site_label
_atom_site_type_symbol
_atom_site_fract_x
_atom_site_fract_y
_atom_site_fract_z
Cu1 Cu 0.25393(7) 0.64000(3) -0.29638(3)
N1 N 0.1976(4) 0.36494(18) -0.3065(2)
C1 C 0.0831(6) 0.4090(2) -0.2640(2)
C2 C 0.1099(6) 0.4896(2) -0.2596(2)
H1 H 0.0184 0.5191 -0.2302
N2 N 0.2563(5) 0.52429(17) -0.2948(2)
C3 C 0.3865(6) 0.4794(2) -0.3367(2)
C4 C 0.5546(6) 0.5122(2) -0.3725(3)
H2 H 0.5822 0.5653 -0.3666
C5 C 0.6773(6) 0.4666(2) -0.4160(3)
H3 H 0.7895 0.4888 -0.4405
C6 C 0.6410(6) 0.3871(2) -0.4252(3)
H4 H 0.7273 0.3566 -0.4561
C7 C 0.4820(6) 0.3545(2) -0.3895(2)
H5 H 0.4581 0.3012 -0.3952
C8 C 0.3524(6) 0.3995(2) -0.3440(3)
N3 N -0.1976(5) 0.41555(17) -0.1770(2)
C9 C -0.0799(6) 0.3723(2) -0.2203(3)
C10 C -0.1050(6) 0.2922(2) -0.2269(3)
H6 H -0.0127 0.2638 -0.2570
N4 N -0.2510(5) 0.25579(17) -0.1929(2)
C11 C -0.3792(5) 0.2984(2) -0.1477(2)
C12 C -0.5379(6) 0.2639(2) -0.1088(3)
H7 H -0.5596 0.2104 -0.1137
C13 C -0.6622(6) 0.3077(2) -0.0635(3)
H8 H -0.7687 0.2839 -0.0368
C14 C -0.6346(6) 0.3869(2) -0.0561(3)
H9 H -0.7222 0.4160 -0.0244
C15 C -0.4809(6) 0.4227(2) -0.0945(3)
H10 H -0.4640 0.4764 -0.0902
C16 C -0.3490(6) 0.3787(2) -0.1403(3)
Cl1 Cl 0.55076(14) 0.64385(6) -0.18941(6)
Cl2 Cl -0.00519(14) 0.63644(6) -0.41817(6)
O1 O 0.0341(4) 0.64412(16) -0.18434(18)
H11 H -0.093(7) 0.640(2) -0.198(3)
C17 C 0.0919(7) 0.6591(3) -0.0909(3)
H12 H -0.0342 0.6566 -0.0627
H13 H 0.1549 0.7100 -0.0821
H14 H 0.1947 0.6209 -0.0635
Cu1A Cu -0.25393(7) 0.14000(3) -0.20362(3)
N4A N 0.2510(5) 0.75579(17) -0.3071(2)
loop_
_geom_bond_atom_site_label_1
_geom_bond_atom_site_label_2
_geom_bond_site_symmetry_1
_geom_bond_site_symmetry_2
Cu1 N2 1_555 1_555
N1 C1 1_555 1_555
C1 C2 1_555 1_555
C2 H1 1_555 1_555
N2 C2 1_555 1_555
C3 N2 1_555 1_555
C4 C3 1_555 1_555
H2 C4 1_555 1_555
C5 C4 1_555 1_555
H3 C5 1_555 1_555
C6 C5 1_555 1_555
H4 C6 1_555 1_555
C7 C6 1_555 1_555
H5 C7 1_555 1_555
C8 N1 1_555 1_555
N3 C9 1_555 1_555
C9 C1 1_555 1_555
C10 C9 1_555 1_555
H6 C10 1_555 1_555
N4 C10 1_555 1_555
C11 N4 1_555 1_555
C12 C11 1_555 1_555
H7 C12 1_555 1_555
C13 C12 1_555 1_555
H8 C13 1_555 1_555
C14 C13 1_555 1_555
H9 C14 1_555 1_555
C15 C14 1_555 1_555
H10 C15 1_555 1_555
C16 N3 1_555 1_555
Cl1 Cu1 1_555 1_555
Cl2 Cu1 1_555 1_555
O1 Cu1 1_555 1_555
H11 O1 1_555 1_555
C17 O1 1_555 1_555
H12 C17 1_555 1_555
H13 C17 1_555 1_555
H14 C17 1_555 1_555
Cu1A N4 1_555 1_555
N4A Cu1 1_555 1_555
C3 C8 1_555 1_555
C7 C8 1_555 1_555
C11 C16 1_555 1_555
C15 C16 1_555 1_555

#END
