
#######################################################################
#
#                 Cambridge Crystallographic Data Centre
#                                CCDC 
#
#######################################################################
#
# If this CIF has been generated from an entry in the Cambridge 
# Structural Database, then it will include bibliographic, chemical, 
# crystal, experimental, refinement or atomic coordinate data resulting 
# from the CCDC's data processing and validation procedures.
#
#######################################################################

data_RIYBEI
_symmetry_cell_setting           orthorhombic
_symmetry_space_group_name_H-M   'P b c a'
_symmetry_Int_Tables_number      61
_space_group_name_Hall           '-P 2ac 2ab'
loop_
_symmetry_equiv_pos_site_id
_symmetry_equiv_pos_as_xyz
1 x,y,z
2 1/2-x,-y,1/2+z
3 1/2+x,1/2-y,-z
4 -x,1/2+y,1/2-z
5 -x,-y,-z
6 1/2+x,y,1/2-z
7 1/2-x,1/2+y,z
8 x,1/2-y,1/2+z
_cell_length_a                   27.8747(4)
_cell_length_b                   13.78762(17)
_cell_length_c                   45.4150(5)
_cell_angle_alpha                90
_cell_angle_beta                 90
_cell_angle_gamma                90
_cell_volume                     17454.2
loop_
_atom_site_label
_atom_site_type_symbol
_atom_site_fract_x
_atom_site_fract_y
_atom_site_fract_z
I1 I 0.19489(2) 0.68337(4) 0.80567(2)
I2 I 0.49121(3) 0.29084(5) 0.46218(2)
I3 I 0.51477(2) 1.06449(5) 0.60545(2)
I4 I 0.33288(2) 0.82359(5) 0.82545(2)
I5 I 0.44295(3) 1.33266(4) 0.56759(2)
I6 I 0.42705(3) 0.28359(5) 0.37231(2)
Zn1 Zn 0.24327(3) 0.83895(6) 0.81384(2)
Zn2 Zn 0.44887(3) 1.15056(7) 0.57684(2)
Zn3 Zn 0.47500(3) 0.36946(6) 0.41202(2)
N1 N 0.2352(2) 0.9199(4) 0.77650(12)
N2 N 0.2912(2) 1.0827(4) 0.34571(13)
N3 N 0.4388(2) 1.0825(5) 0.53702(12)
N4 N 0.1767(2) 1.0312(4) 0.67653(12)
N5 N 0.2614(2) 1.0343(4) 0.67362(11)
N6 N 0.4441(2) 0.5024(4) 0.41969(14)
N7 N 0.2146(2) 1.0686(4) 0.63134(12)
N8 N 0.3858(2) 1.1093(4) 0.59790(12)
N9 N 0.3688(2) 0.8331(4) 0.41122(14)
N10 N 0.3727(2) 0.9793(4) 0.43876(13)
C1 C 0.1760(3) 1.0544(4) 0.64794(14)
N11 N 0.4085(2) 0.8353(4) 0.45758(13)
C2 C 0.2892(3) 0.9851(5) 0.34700(18)
H1 H 0.2717 0.9514 0.3322
C3 C 0.2248(2) 0.9916(4) 0.71912(14)
C4 C 0.2205(2) 1.0218(4) 0.68809(14)
C5 C 0.3146(3) 1.1283(5) 0.36723(16)
H2 H 0.3165 1.1971 0.3665
C6 C 0.2566(2) 1.0573(4) 0.64516(14)
C7 C 0.3458(3) 1.0654(5) 0.64228(15)
H3 H 0.3476 1.0475 0.6624
C8 C 0.1919(3) 0.9266(5) 0.76354(16)
H4 H 0.1645 0.9063 0.7743
C9 C 0.3014(2) 1.0740(4) 0.62812(13)
C10 C 0.3436(3) 1.1164(5) 0.58433(15)
H5 H 0.3431 1.1339 0.5641
C11 C 0.3866(3) 1.0833(5) 0.62649(15)
H6 H 0.4167 1.0772 0.6361
C12 C 0.2738(3) 0.9530(5) 0.76155(14)
H7 H 0.3045 0.9514 0.7707
C13 C 0.4100(3) 0.6884(5) 0.42847(16)
C14 C 0.4151(3) 1.1277(6) 0.51503(17)
H8 H 0.4076 1.1946 0.5171
C15 C 0.2697(3) 0.9891(5) 0.73327(15)
H9 H 0.2974 1.0123 0.7233
C16 C 0.3599(3) 0.9273(5) 0.41514(15)
C17 C 0.4386(3) 0.9373(6) 0.50792(17)
H10 H 0.4483 0.8717 0.5057
C18 C 0.4271(4) 0.6346(6) 0.45160(18)
H11 H 0.4273 0.6607 0.4710
C19 C 0.3350(3) 0.9803(5) 0.39092(15)
C20 C 0.4507(3) 0.9887(6) 0.53300(16)
H12 H 0.4682 0.9565 0.5481
C21 C 0.1855(3) 0.9612(5) 0.73572(16)
H13 H 0.1541 0.9647 0.7276
C22 C 0.3112(3) 0.9329(5) 0.36855(18)
H14 H 0.3101 0.8640 0.3682
C23 C 0.3966(3) 0.9289(5) 0.45943(15)
C24 C 0.3360(3) 1.0811(5) 0.39025(17)
H15 H 0.3512 1.1167 0.4055
C25 C 0.3944(3) 0.7918(5) 0.43257(15)
C26 C 0.3005(3) 1.0992(5) 0.59866(15)
H16 H 0.2709 1.1047 0.5884
C27 C 0.4123(3) 0.9828(5) 0.48620(14)
C28 C 0.4438(4) 0.5427(6) 0.44639(18)
H17 H 0.4557 0.5061 0.4625
C29 C 0.4011(3) 1.0799(6) 0.48933(16)
H18 H 0.3843 1.1135 0.4743
C30 C 0.4278(3) 0.5564(6) 0.39732(18)
H19 H 0.4283 0.5289 0.3781
C31 C 0.4102(3) 0.6491(6) 0.40042(18)
H20 H 0.3988 0.6848 0.3840
C32 C 0.1285(3) 1.0655(5) 0.63372(14)
C33 C 0.1250(3) 1.0887(5) 0.60417(16)
H21 H 0.1531 1.0957 0.5926
C34 C 0.0867(3) 1.0562(6) 0.64976(17)
H22 H 0.0878 1.0397 0.6701
C35 C 0.0802(3) 1.1014(6) 0.59170(17)
H23 H 0.0782 1.1153 0.5712
C36 C 0.0432(3) 1.0711(6) 0.63576(18)
H24 H 0.0145 1.0640 0.6468
N12 N 0.0399(2) 1.0950(4) 0.60728(14)
Zn1A Zn 0.25673(3) 1.16105(6) 0.31384(2)
Zn3B Zn -0.02500(3) 1.13054(6) 0.58798(2)
N2A N 0.2088(2) 0.9173(4) 0.84571(13)
N12B N 0.5399(2) 0.4050(4) 0.39272(14)
Pd1 Pd 0.65761(4) 0.71444(7) 0.32360(3)
S1 S 0.60994(16) 0.7477(4) 0.28190(12)
S2 S 0.57758(19) 0.6960(3) 0.34029(13)
N13 N 0.6914(4) 0.6835(6) 0.3614(3)
C37 C 0.8084(4) 0.7196(6) 0.3217(2)
C38 C 0.7258(5) 0.7313(6) 0.3080(2)
C39 C 0.7602(4) 0.7134(6) 0.3282(2)
C40 C 0.8267(4) 0.6750(6) 0.3736(3)
C41 C 0.7411(7) 0.7579(7) 0.2803(2)
H25 H 0.7174 0.7723 0.2659
C42 C 0.8441(4) 0.6971(6) 0.3468(3)
C43 C 0.9243(5) 0.6781(9) 0.3635(5)
H26 H 0.9577 0.6802 0.3593
C44 C 0.8231(6) 0.7436(7) 0.2944(3)
H27 H 0.8562 0.7470 0.2893
C45 C 0.7730(4) 0.6708(5) 0.3803(2)
C46 C 0.7439(4) 0.6882(6) 0.3578(2)
C47 C 0.8932(5) 0.6954(8) 0.3434(3)
H28 H 0.9051 0.7084 0.3242
C48 C 0.8605(6) 0.6544(7) 0.3971(3)
H29 H 0.8495 0.6398 0.4164
C49 C 0.7847(7) 0.7643(7) 0.2729(3)
H30 H 0.7928 0.7826 0.2533
C50 C 0.6759(5) 0.6614(7) 0.3872(3)
H31 H 0.6422 0.6576 0.3900
C51 C 0.5646(6) 0.7261(14) 0.3054(4)
C52 C 0.7053(7) 0.6426(9) 0.4110(3)
H32 H 0.6916 0.6268 0.4296
C53 C 0.7530(6) 0.6466(8) 0.4082(3)
H33 H 0.7733 0.6336 0.4245
C54 C 0.9077(7) 0.6563(8) 0.3912(5)
H34 H 0.9300 0.6423 0.4064
O1 O 0.5186(5) 0.7326(12) 0.2953(4)
C55 C 0.4807(8) 0.701(3) 0.3122(9)
H35 H 0.4767 0.6310 0.3097
H36 H 0.4513 0.7344 0.3060
H37 H 0.4871 0.7156 0.3330
C56 C 0.4270(5) 0.9754(9) 0.26503(19)
C57 C 0.4099(5) 0.9115(7) 0.2862(3)
H38 H 0.4010 0.8474 0.2808
C58 C 0.4057(5) 0.9413(9) 0.3154(2)
H39 H 0.3940 0.8977 0.3298
C59 C 0.4188(5) 1.0351(9) 0.32328(17)
H40 H 0.4159 1.0555 0.3432
C60 C 0.4359(4) 1.0990(7) 0.3021(2)
H41 H 0.4448 1.1630 0.3075
C61 C 0.4401(4) 1.0691(8) 0.2730(2)
H42 H 0.4518 1.1128 0.2585
O2 O 0.4512(9) 1.0068(14) 0.2181(4)
O3 O 0.4229(9) 0.8646(14) 0.2291(4)
N14 N 0.4337(9) 0.9454(14) 0.2343(4)
C62 C 0.3204(6) 0.7229(9) 0.5215(4)
H43 H 0.3149 0.7908 0.5208
C63 C 0.2818(4) 0.6592(12) 0.5230(4)
C64 C 0.2898(5) 0.5598(11) 0.5241(4)
H44 H 0.2634 0.5162 0.5252
C65 C 0.3364(6) 0.5240(8) 0.5237(4)
H45 H 0.3419 0.4561 0.5245
C66 C 0.3750(4) 0.5877(11) 0.5223(4)
H46 H 0.4069 0.5633 0.5220
C67 C 0.3670(5) 0.6871(10) 0.5211(4)
H47 H 0.3933 0.7306 0.5201
N15 N 0.2365(8) 0.7204(19) 0.5222(11)
O4 O 0.2023(7) 0.672(2) 0.5212(7)
O5 O 0.2442(13) 0.8062(17) 0.5184(9)
O6 O 0.2277(9) 0.6559(18) 0.4596(5)
C68 C 0.3139(6) 0.4495(12) 0.3981(3)
H48 H 0.3334 0.4389 0.3812
C69 C 0.3017(7) 0.3722(9) 0.4163(4)
H49 H 0.3128 0.3088 0.4118
C70 C 0.2733(7) 0.3878(10) 0.4410(4)
H50 H 0.2649 0.3350 0.4534
C71 C 0.2570(6) 0.4807(12) 0.4475(3)
H51 H 0.2376 0.4913 0.4644
C72 C 0.2693(7) 0.5580(9) 0.4293(4)
C73 C 0.2977(6) 0.5424(10) 0.4046(3)
H52 H 0.3061 0.5952 0.3922
N16 N 0.2559(12) 0.6563(15) 0.4385(6)
O7 O 0.2682(13) 0.7142(16) 0.4193(7)
Pd2? Pd 0.7802(3) 0.6620(6) 0.4244(3)
loop_
_geom_bond_atom_site_label_1
_geom_bond_atom_site_label_2
_geom_bond_site_symmetry_1
_geom_bond_site_symmetry_2
I1 Zn1 1_555 1_555
I2 Zn3 1_555 1_555
I3 Zn2 1_555 1_555
I4 Zn1 1_555 1_555
I5 Zn2 1_555 1_555
I6 Zn3 1_555 1_555
Zn1 N1 1_555 1_555
Zn2 N3 1_555 1_555
Zn3 N6 1_555 1_555
N1 C8 1_555 1_555
N2 C2 1_555 1_555
N3 C14 1_555 1_555
N4 C1 1_555 1_555
N5 C4 1_555 1_555
N6 C28 1_555 1_555
N7 C1 1_555 1_555
N8 Zn2 1_555 1_555
N9 C16 1_555 1_555
N10 C16 1_555 1_555
C1 C32 1_555 1_555
N11 C23 1_555 1_555
C2 H1 1_555 1_555
C3 C4 1_555 1_555
C4 N4 1_555 1_555
C5 N2 1_555 1_555
H2 C5 1_555 1_555
C6 N5 1_555 1_555
C7 H3 1_555 1_555
C8 H4 1_555 1_555
C9 C6 1_555 1_555
C10 N8 1_555 1_555
H5 C10 1_555 1_555
C11 N8 1_555 1_555
H6 C11 1_555 1_555
C12 N1 1_555 1_555
H7 C12 1_555 1_555
C13 C18 1_555 1_555
C14 H8 1_555 1_555
C15 C3 1_555 1_555
H9 C15 1_555 1_555
C16 C19 1_555 1_555
C17 H10 1_555 1_555
C18 H11 1_555 1_555
C19 C22 1_555 1_555
C20 N3 1_555 1_555
H12 C20 1_555 1_555
C21 C3 1_555 1_555
H13 C21 1_555 1_555
C22 C2 1_555 1_555
H14 C22 1_555 1_555
C23 N10 1_555 1_555
C24 C5 1_555 1_555
H15 C24 1_555 1_555
C25 N9 1_555 1_555
C26 C9 1_555 1_555
H16 C26 1_555 1_555
C27 C17 1_555 1_555
C28 C18 1_555 1_555
H17 C28 1_555 1_555
C29 C14 1_555 1_555
H18 C29 1_555 1_555
C30 N6 1_555 1_555
H19 C30 1_555 1_555
C31 C13 1_555 1_555
H20 C31 1_555 1_555
C32 C33 1_555 1_555
C33 H21 1_555 1_555
C34 C32 1_555 1_555
H22 C34 1_555 1_555
C35 C33 1_555 1_555
H23 C35 1_555 1_555
C36 C34 1_555 1_555
H24 C36 1_555 1_555
N12 C35 1_555 1_555
Pd1 S1 1_555 1_555
S1 C51 1_555 1_555
S2 Pd1 1_555 1_555
N13 Pd1 1_555 1_555
C37 C39 1_555 1_555
C38 Pd1 1_555 1_555
C39 C38 1_555 1_555
C40 C42 1_555 1_555
C41 C38 1_555 1_555
H25 C41 1_555 1_555
C42 C37 1_555 1_555
C43 H26 1_555 1_555
C44 C37 1_555 1_555
H27 C44 1_555 1_555
C45 C40 1_555 1_555
C46 N13 1_555 1_555
C47 C42 1_555 1_555
H28 C47 1_555 1_555
C48 C40 1_555 1_555
H29 C48 1_555 1_555
C49 C41 1_555 1_555
H30 C49 1_555 1_555
C50 N13 1_555 1_555
H31 C50 1_555 1_555
C51 S2 1_555 1_555
C52 C50 1_555 1_555
H32 C52 1_555 1_555
C53 C45 1_555 1_555
H33 C53 1_555 1_555
C54 C43 1_555 1_555
H34 C54 1_555 1_555
O1 C51 1_555 1_555
C55 O1 1_555 1_555
H35 C55 1_555 1_555
H36 C55 1_555 1_555
H37 C55 1_555 1_555
C56 C57 1_555 1_555
C57 H38 1_555 1_555
C58 C57 1_555 1_555
H39 C58 1_555 1_555
C59 C58 1_555 1_555
H40 C59 1_555 1_555
C60 C59 1_555 1_555
H41 C60 1_555 1_555
C61 C56 1_555 1_555
H42 C61 1_555 1_555
O2 N14 1_555 1_555
O3 N14 1_555 1_555
N14 C56 1_555 1_555
C62 H43 1_555 1_555
C63 C62 1_555 1_555
C64 C63 1_555 1_555
H44 C64 1_555 1_555
C65 C64 1_555 1_555
H45 C65 1_555 1_555
C66 C65 1_555 1_555
H46 C66 1_555 1_555
C67 C62 1_555 1_555
H47 C67 1_555 1_555
N15 C63 1_555 1_555
O4 N15 1_555 1_555
O5 N15 1_555 1_555
O6 N16 1_555 1_555
C68 H48 1_555 1_555
C69 C68 1_555 1_555
H49 C69 1_555 1_555
C70 C69 1_555 1_555
H50 C70 1_555 1_555
C71 C70 1_555 1_555
H51 C71 1_555 1_555
C72 C71 1_555 1_555
C73 C68 1_555 1_555
H52 C73 1_555 1_555
N16 C72 1_555 1_555
O7 N16 1_555 1_555
Zn1A N2 1_555 1_555
Zn3B N12 1_555 1_555
N2A Zn1 1_555 1_555
N12B Zn3 1_555 1_555
N7 C6 1_555 1_555
N11 C25 1_555 1_555
C7 C9 1_555 1_555
C7 C11 1_555 1_555
C8 C21 1_555 1_555
C10 C26 1_555 1_555
C12 C15 1_555 1_555
C13 C25 1_555 1_555
C17 C20 1_555 1_555
C19 C24 1_555 1_555
C23 C27 1_555 1_555
C27 C29 1_555 1_555
C30 C31 1_555 1_555
C36 N12 1_555 1_555
C39 C46 1_555 1_555
C43 C47 1_555 1_555
C44 C49 1_555 1_555
C45 C46 1_555 1_555
C48 C54 1_555 1_555
C52 C53 1_555 1_555
C60 C61 1_555 1_555
C66 C67 1_555 1_555
C72 C73 1_555 1_555

#END
