
#######################################################################
#
#                 Cambridge Crystallographic Data Centre
#                                CCDC 
#
#######################################################################
#
# If this CIF has been generated from an entry in the Cambridge 
# Structural Database, then it will include bibliographic, chemical, 
# crystal, experimental, refinement or atomic coordinate data resulting 
# from the CCDC's data processing and validation procedures.
#
#######################################################################

data_RIYBOS
_symmetry_cell_setting           orthorhombic
_symmetry_space_group_name_H-M   'P b c a'
_symmetry_Int_Tables_number      61
_space_group_name_Hall           '-P 2ac 2ab'
loop_
_symmetry_equiv_pos_site_id
_symmetry_equiv_pos_as_xyz
1 x,y,z
2 1/2-x,-y,1/2+z
3 1/2+x,1/2-y,-z
4 -x,1/2+y,1/2-z
5 -x,-y,-z
6 1/2+x,y,1/2-z
7 1/2-x,1/2+y,z
8 x,1/2-y,1/2+z
_cell_length_a                   27.5504(3)
_cell_length_b                   13.83530(19)
_cell_length_c                   44.5398(6)
_cell_angle_alpha                90
_cell_angle_beta                 90
_cell_angle_gamma                90
_cell_volume                     16977.1
loop_
_atom_site_label
_atom_site_type_symbol
_atom_site_fract_x
_atom_site_fract_y
_atom_site_fract_z
I1 I 0.05983(3) -0.32864(6) 0.42218(2)
I2 I 0.82513(4) 0.67590(9) 0.33574(2)
I3 I 0.50240(3) -0.20040(6) 0.46291(2)
I4 I 0.69774(4) 0.83015(6) 0.31549(2)
I5 I 0.57231(3) -0.20010(7) 0.37754(3)
I6 I -0.01620(3) -0.08091(14) 0.38706(3)
Zn1 Zn 0.73991(4) 0.67407(7) 0.32121(2)
Zn2 Zn 0.52228(3) -0.12455(6) 0.41523(2)
Zn3 Zn 0.04602(3) -0.15556(8) 0.41566(2)
N1 N 0.2375(2) -0.0202(4) 0.32179(13)
N2 N 0.4581(2) -0.0900(4) 0.39428(16)
N3 N 0.2837(2) -0.0594(4) 0.36541(12)
N4 N 0.3236(2) -0.0201(4) 0.31991(12)
N5 N 0.5528(2) 0.0074(5) 0.42481(16)
N6 N 0.6124(2) 0.4876(4) 0.44343(14)
N7 N 0.6236(2) 0.3399(4) 0.41670(15)
N8 N 0.7005(3) 0.5929(5) 0.35059(14)
N9 N 0.5795(2) 0.3426(4) 0.46259(14)
C1 C 0.4161(3) -0.0917(6) 0.40877(19)
H1 H 0.4164 -0.1032 0.4298
C2 C 0.1955(3) -0.0914(5) 0.39753(15)
H2 H 0.2250 -0.0970 0.4084
C3 C 0.2415(2) -0.0469(4) 0.35078(14)
N10 N 0.1093(2) -0.1046(4) 0.39683(13)
C4 C 0.4141(3) -0.0542(6) 0.34957(19)
H3 H 0.4147 -0.0387 0.3288
C5 C 0.2801(2) -0.0086(4) 0.30786(15)
C6 C 0.1961(3) -0.0627(5) 0.36726(15)
C7 C 0.3702(3) -0.0594(5) 0.36445(17)
C8 C 0.1514(3) -0.0540(5) 0.35314(16)
H4 H 0.1498 -0.0343 0.3327
C9 C 0.2759(3) 0.0241(5) 0.27626(15)
C10 C 0.5972(3) 0.2974(5) 0.43859(17)
C11 C 0.5891(3) 0.4372(5) 0.46433(15)
C12 C 0.7027(3) 0.4976(6) 0.35131(19)
H5 H 0.7208 0.4650 0.3362
C13 C 0.1097(3) -0.0737(5) 0.36841(16)
H6 H 0.0796 -0.0651 0.3584
C14 C 0.5450(3) 0.4923(6) 0.54175(17)
H7 H 0.5328 0.4584 0.5587
C15 C 0.3232(3) -0.0453(5) 0.34881(16)
C16 C 0.5574(3) 0.4405(5) 0.51646(16)
H8 H 0.5550 0.3720 0.5163
C17 C 0.3715(3) -0.0774(5) 0.39453(18)
H9 H 0.3422 -0.0802 0.4058
C18 C 0.5631(3) 0.6357(6) 0.51849(18)
H10 H 0.5641 0.7043 0.5188
C19 C 0.6288(3) 0.4357(5) 0.41999(17)
C20 C 0.5849(3) 0.1936(5) 0.43457(17)
C21 C 0.4563(3) -0.0710(6) 0.3643(2)
H11 H 0.4859 -0.0695 0.3532
C22 C 0.5456(3) 0.0525(6) 0.4510(2)
H12 H 0.5292 0.0185 0.4666
C23 C 0.1532(3) -0.1107(6) 0.41089(17)
H13 H 0.1536 -0.1299 0.4314
C24 C 0.5765(3) 0.0560(6) 0.4033(2)
H14 H 0.5818 0.0255 0.3845
C25 C 0.5605(3) 0.1442(6) 0.4566(2)
H15 H 0.5541 0.1738 0.4754
C26 C 0.6534(3) 0.4894(6) 0.39556(17)
C27 C 0.5935(3) 0.1487(5) 0.40756(19)
H16 H 0.6108 0.1810 0.3921
C28 C 0.6512(4) 0.5879(6) 0.3947(2)
H17 H 0.6344 0.6218 0.4100
C29 C 0.5753(3) 0.5901(6) 0.4928(2)
H18 H 0.5853 0.6266 0.4758
C30 C 0.5735(2) 0.4896(5) 0.49114(17)
C31 C 0.6790(3) 0.4420(6) 0.3739(2)
H19 H 0.6810 0.3735 0.3739
C32 C 0.6728(4) 0.6381(7) 0.3719(2)
H20 H 0.6686 0.7062 0.3709
N11 N 0.5495(2) 0.5899(5) 0.54337(14)
C33 C 0.3170(3) 0.0573(6) 0.26017(17)
H21 H 0.3483 0.0540 0.2690
C34 C 0.2320(3) 0.0262(5) 0.26169(16)
H22 H 0.2037 0.0024 0.2714
C35 C 0.2290(3) 0.0630(5) 0.23272(16)
H23 H 0.1982 0.0638 0.2230
C36 C 0.3115(3) 0.0936(6) 0.23212(18)
H24 H 0.3392 0.1176 0.2218
N12 N 0.2671(2) 0.0968(5) 0.21808(14)
Zn1C Zn 0.26009(4) 0.17407(7) 0.17879(2)
Zn3B Zn 0.54602(3) 0.65556(8) 0.58434(2)
N11B N 0.0495(2) -0.0899(5) 0.45663(14)
N12C N 0.7329(2) 0.5968(5) 0.28192(14)
Br1 Br 0.67000(3) 0.32881(7) 0.56122(2)
N13 N 0.7532(4) 0.3352(5) 0.6060(2)
C37 C 0.7298(4) 0.3105(5) 0.6318(2)
C38 C 0.7560(4) 0.2879(6) 0.6591(3)
C39 C 0.6800(7) 0.2189(8) 0.7392(3)
H25 H 0.6636 0.2032 0.7573
C40 C 0.6531(6) 0.2476(8) 0.7136(3)
H26 H 0.6187 0.2517 0.7142
C41 C 0.6760(4) 0.3093(6) 0.6330(2)
C42 C 0.7288(4) 0.2621(6) 0.6866(2)
C43 C 0.8292(4) 0.3186(7) 0.6315(3)
H27 H 0.8636 0.3216 0.6301
C44 C 0.6478(4) 0.3243(6) 0.6058(3)
C45 C 0.6796(4) 0.2706(6) 0.6864(2)
C46 C 0.5976(4) 0.3303(7) 0.6085(3)
H28 H 0.5786 0.3373 0.5908
C47 C 0.6532(4) 0.2956(6) 0.6593(2)
C48 C 0.7530(5) 0.2333(6) 0.7133(3)
H29 H 0.7874 0.2284 0.7131
C49 C 0.8017(4) 0.3386(6) 0.6074(3)
H30 H 0.8183 0.3569 0.5896
C50 C 0.8084(4) 0.2948(7) 0.6573(3)
H31 H 0.8277 0.2823 0.6745
C51 C 0.7301(8) 0.2136(7) 0.7378(3)
H32 H 0.7479 0.1952 0.7551
C52 C 0.6019(6) 0.3060(8) 0.6604(3)
H33 H 0.5870 0.2974 0.6794
C53 C 0.5729(4) 0.3263(6) 0.6378(3)
H34 H 0.5391 0.3373 0.6401
Br2? Br 0.5556(5) 0.3406(10) 0.6691(3)
loop_
_geom_bond_atom_site_label_1
_geom_bond_atom_site_label_2
_geom_bond_site_symmetry_1
_geom_bond_site_symmetry_2
I1 Zn3 1_555 1_555
I2 Zn1 1_555 1_555
I3 Zn2 1_555 1_555
I4 Zn1 1_555 1_555
I5 Zn2 1_555 1_555
I6 Zn3 1_555 1_555
Zn1 N8 1_555 1_555
Zn2 N2 1_555 1_555
Zn3 N10 1_555 1_555
N1 C3 1_555 1_555
N2 C1 1_555 1_555
N3 C3 1_555 1_555
N4 C5 1_555 1_555
N5 Zn2 1_555 1_555
N6 C11 1_555 1_555
N7 C10 1_555 1_555
N8 C12 1_555 1_555
N9 C10 1_555 1_555
C1 H1 1_555 1_555
C2 H2 1_555 1_555
C3 C6 1_555 1_555
N10 C13 1_555 1_555
C4 H3 1_555 1_555
C5 N1 1_555 1_555
C6 C2 1_555 1_555
C7 C4 1_555 1_555
C8 C6 1_555 1_555
H4 C8 1_555 1_555
C9 C5 1_555 1_555
C10 C20 1_555 1_555
C11 N9 1_555 1_555
C12 H5 1_555 1_555
C13 C8 1_555 1_555
H6 C13 1_555 1_555
C14 H7 1_555 1_555
C15 N3 1_555 1_555
C16 C14 1_555 1_555
H8 C16 1_555 1_555
C17 C1 1_555 1_555
H9 C17 1_555 1_555
C18 H10 1_555 1_555
C19 N6 1_555 1_555
C20 C25 1_555 1_555
C21 N2 1_555 1_555
H11 C21 1_555 1_555
C22 N5 1_555 1_555
H12 C22 1_555 1_555
C23 C2 1_555 1_555
H13 C23 1_555 1_555
C24 N5 1_555 1_555
H14 C24 1_555 1_555
C25 C22 1_555 1_555
H15 C25 1_555 1_555
C26 C19 1_555 1_555
C27 C20 1_555 1_555
H16 C27 1_555 1_555
C28 C26 1_555 1_555
H17 C28 1_555 1_555
C29 C18 1_555 1_555
H18 C29 1_555 1_555
C30 C11 1_555 1_555
C31 C12 1_555 1_555
H19 C31 1_555 1_555
C32 N8 1_555 1_555
H20 C32 1_555 1_555
N11 C14 1_555 1_555
C33 C9 1_555 1_555
H21 C33 1_555 1_555
C34 C9 1_555 1_555
H22 C34 1_555 1_555
C35 C34 1_555 1_555
H23 C35 1_555 1_555
C36 C33 1_555 1_555
H24 C36 1_555 1_555
N12 C35 1_555 1_555
Br1 C44 1_555 1_555
N13 C37 1_555 1_555
C37 C38 1_555 1_555
C38 C42 1_555 1_555
C39 H25 1_555 1_555
C40 C39 1_555 1_555
H26 C40 1_555 1_555
C41 C37 1_555 1_555
C42 C45 1_555 1_555
C43 H27 1_555 1_555
C44 C41 1_555 1_555
C45 C40 1_555 1_555
C46 C44 1_555 1_555
H28 C46 1_555 1_555
C47 C41 1_555 1_555
C48 C42 1_555 1_555
H29 C48 1_555 1_555
C49 N13 1_555 1_555
H30 C49 1_555 1_555
C50 C38 1_555 1_555
H31 C50 1_555 1_555
C51 C39 1_555 1_555
H32 C51 1_555 1_555
C52 C47 1_555 1_555
H33 C52 1_555 1_555
C53 C46 1_555 1_555
H34 C53 1_555 1_555
Zn1C N12 1_555 1_555
Zn3B N11 1_555 1_555
N11B Zn3 1_555 1_555
N12C Zn1 1_555 1_555
N4 C15 1_555 1_555
N7 C19 1_555 1_555
N10 C23 1_555 1_555
C4 C21 1_555 1_555
C7 C15 1_555 1_555
C7 C17 1_555 1_555
C16 C30 1_555 1_555
C18 N11 1_555 1_555
C24 C27 1_555 1_555
C26 C31 1_555 1_555
C28 C32 1_555 1_555
C29 C30 1_555 1_555
C36 N12 1_555 1_555
C43 C49 1_555 1_555
C43 C50 1_555 1_555
C45 C47 1_555 1_555
C48 C51 1_555 1_555
C52 C53 1_555 1_555

#END
