
#######################################################################
#
#                 Cambridge Crystallographic Data Centre
#                                CCDC 
#
#######################################################################
#
# If this CIF has been generated from an entry in the Cambridge 
# Structural Database, then it will include bibliographic, chemical, 
# crystal, experimental, refinement or atomic coordinate data resulting 
# from the CCDC's data processing and validation procedures.
#
#######################################################################

data_RIYBIM
_symmetry_cell_setting           orthorhombic
_symmetry_space_group_name_H-M   'P b c a'
_symmetry_Int_Tables_number      61
_space_group_name_Hall           '-P 2ac 2ab'
loop_
_symmetry_equiv_pos_site_id
_symmetry_equiv_pos_as_xyz
1 x,y,z
2 1/2-x,-y,1/2+z
3 1/2+x,1/2-y,-z
4 -x,1/2+y,1/2-z
5 -x,-y,-z
6 1/2+x,y,1/2-z
7 1/2-x,1/2+y,z
8 x,1/2-y,1/2+z
_cell_length_a                   27.6775(9)
_cell_length_b                   13.7981(3)
_cell_length_c                   44.3415(11)
_cell_angle_alpha                90
_cell_angle_beta                 90
_cell_angle_gamma                90
_cell_volume                     16933.9
loop_
_atom_site_label
_atom_site_type_symbol
_atom_site_fract_x
_atom_site_fract_y
_atom_site_fract_z
Zn1 Zn -0.02085(6) 0.37000(11) 0.41705(4)
I1 I -0.00019(6) 0.30389(11) 0.46460(4)
Zn2 Zn 0.45366(6) 0.34308(12) 0.41672(4)
Zn3 Zn 0.25208(9) 0.34259(15) 0.67914(4)
I2 I 0.44488(7) 0.17534(11) 0.42345(4)
I3 I 0.51433(6) 0.41798(15) 0.38781(4)
I4 I 0.17150(10) 0.3611(2) 0.66325(5)
I5 I -0.06936(8) 0.28995(15) 0.38150(6)
I6 I 0.28399(13) 0.18561(14) 0.68503(4)
N1 N 0.0426(4) 0.4068(8) 0.3951(3)
N2 N 0.1764(4) 0.4725(7) 0.3201(2)
N3 N 0.4480(4) 0.9988(7) 0.5748(2)
N4 N 0.4501(4) 0.4094(7) 0.4582(2)
N5 N 0.2151(4) 0.4333(7) 0.3659(2)
N6 N 0.3881(4) 0.3879(7) 0.3978(2)
N7 N 0.4201(4) 0.6601(8) 0.5387(2)
C1 C 0.4112(4) 0.5658(8) 0.5377(3)
N8 N 0.2635(4) 0.4707(7) 0.3225(2)
N9 N 0.2952(5) 0.4174(9) 0.6496(3)
N10 N 0.3778(4) 0.6638(7) 0.5848(3)
C2 C 0.2579(5) 0.4447(8) 0.3518(3)
C3 C 0.1767(5) 0.4481(8) 0.3495(3)
C4 C 0.2212(5) 0.4803(8) 0.3079(3)
C5 C 0.3477(5) 0.4387(8) 0.3536(3)
H1 H 0.3495 0.4598 0.3333
C6 C 0.3038(5) 0.4014(9) 0.3992(3)
H2 H 0.2751 0.3970 0.4109
C7 C 0.4283(4) 0.5116(10) 0.5097(3)
C8 C 0.4030(4) 0.7022(8) 0.5629(3)
N11 N 0.3877(4) 0.5170(7) 0.5578(2)
C9 C 0.3024(5) 0.4289(9) 0.3683(3)
C10 C 0.4220(5) 0.4090(9) 0.5088(3)
H3 H 0.4096 0.3729 0.5254
C11 C 0.4542(5) 0.9535(9) 0.5489(3)
H4 H 0.4689 0.9890 0.5330
C12 C 0.0863(5) 0.4051(10) 0.4094(3)
H5 H 0.0863 0.3945 0.4305
C13 C 0.1276(5) 0.4167(9) 0.3963(3)
H6 H 0.1565 0.4122 0.4078
C14 C 0.4351(5) 0.3672(9) 0.4823(3)
H7 H 0.4330 0.2986 0.4815
C15 C 0.4569(4) 0.5058(9) 0.4596(3)
H8 H 0.4703 0.5384 0.4426
C16 C 0.3884(5) 0.4175(8) 0.3692(3)
H9 H 0.4187 0.4239 0.3593
C17 C 0.1301(5) 0.4363(9) 0.3645(3)
C18 C 0.3462(5) 0.5165(9) 0.6055(3)
C19 C 0.3487(5) 0.3813(8) 0.4115(3)
H10 H 0.3496 0.3607 0.4319
C20 C 0.4406(5) 0.8550(10) 0.5427(3)
H11 H 0.4464 0.8245 0.5239
C21 C 0.3724(4) 0.5679(9) 0.5815(3)
C22 C 0.3192(7) 0.5655(12) 0.6271(4)
H12 H 0.3164 0.6340 0.6265
C23 C 0.3263(6) 0.3711(12) 0.6308(3)
H13 H 0.3321 0.3037 0.6332
C24 C 0.4180(5) 0.8073(9) 0.5671(3)
C25 C 0.4447(5) 0.5587(9) 0.4853(3)
H14 H 0.4480 0.6272 0.4855
C26 C 0.3483(7) 0.4192(11) 0.6092(3)
H15 H 0.3671 0.3831 0.5952
C27 C 0.4083(4) 0.8557(10) 0.5933(3)
H16 H 0.3905 0.8250 0.6090
C28 C 0.4253(5) 0.9533(9) 0.5969(3)
H17 H 0.4201 0.9858 0.6155
C29 C 0.2959(8) 0.5115(12) 0.6498(5)
H18 H 0.2803 0.5450 0.6658
C30 C 0.2251(6) 0.5149(9) 0.2759(3)
C31 C 0.2707(6) 0.5147(9) 0.2621(3)
H19 H 0.2982 0.4920 0.2728
C32 C 0.0424(6) 0.4255(9) 0.3652(4)
H20 H 0.0125 0.4289 0.3548
C33 C 0.1858(6) 0.5443(9) 0.2596(3)
H21 H 0.1543 0.5415 0.2680
C34 C 0.0853(6) 0.4398(11) 0.3495(4)
H22 H 0.0843 0.4520 0.3284
C35 C 0.1930(6) 0.5783(9) 0.2306(3)
H23 H 0.1662 0.6009 0.2192
C36 C 0.2750(6) 0.5467(9) 0.2339(3)
H24 H 0.3058 0.5459 0.2245
N12 N 0.2367(5) 0.5801(8) 0.2183(2)
Zn1B Zn 0.47915(6) 1.13000(11) 0.58295(4)
Zn3A Zn 0.24792(9) 0.65741(15) 0.17914(4)
N3B N -0.0520(4) 0.5012(7) 0.4252(2)
N12A N 0.2633(5) 0.4199(8) 0.7183(2)
Pd1 Pd 0.15970(9) 0.72835(13) 0.31373(5)
Br1 Br 0.1252(2) 0.7859(4) 0.26707(10)
N13 N 0.1893(8) 0.6896(12) 0.3523(4)
C37 C 0.1977(10) 0.6459(14) 0.4039(6)
H25 H 0.1824 0.6288 0.4223
C38 C 0.3102(6) 0.7198(10) 0.3213(3)
C39 C 0.2602(6) 0.7184(10) 0.3235(3)
C40 C 0.2383(5) 0.6962(10) 0.3509(4)
C41 C 0.2666(7) 0.6754(10) 0.3760(3)
C42 C 0.3166(6) 0.6768(11) 0.3737(3)
C43 C 0.3385(5) 0.6990(11) 0.3464(4)
C44 C 0.2302(10) 0.7415(14) 0.2990(6)
C45 C 0.1694(11) 0.6652(14) 0.3794(6)
H26 H 0.1352 0.6615 0.3812
C46 C 0.2534(11) 0.7666(14) 0.2737(6)
H27 H 0.2339 0.7872 0.2573
C47 C 0.3959(10) 0.6926(14) 0.3446(6)
H28 H 0.4106 0.7064 0.3257
C48 C 0.4227(11) 0.6712(14) 0.3657(6)
H29 H 0.4564 0.6631 0.3624
C49 C 0.2461(10) 0.6499(14) 0.4033(6)
H30 H 0.2651 0.6360 0.4206
C50 C 0.3303(10) 0.7459(14) 0.2894(6)
H31 H 0.3639 0.7469 0.2851
C51 C 0.2983(10) 0.7660(14) 0.2694(6)
H32 H 0.3095 0.7816 0.2498
C52 C 0.3480(10) 0.6590(14) 0.3969(6)
H33 H 0.3349 0.6456 0.4163
N14 N 0.0901(9) 0.7079(12) 0.3308(4)
C53 C 0.4039(10) 0.6593(14) 0.3934(6)
H34 H 0.4243 0.6514 0.4104
C54 C 0.0546(11) 0.6937(15) 0.3385(6)
C55 C -0.0006(9) 0.6818(14) 0.3437(6)
H35 H -0.0182 0.7290 0.3313
H36 H -0.0081 0.6930 0.3650
H37 H -0.0105 0.6161 0.3380
N15 N 0.3172(6) 0.5465(15) 0.4686(4)
C56 C 0.3029(8) 0.4967(17) 0.4857(5)
C57 C 0.2857(7) 0.4368(16) 0.5113(5)
H38 H 0.2637 0.3867 0.5038
H39 H 0.2687 0.4781 0.5258
H40 H 0.3134 0.4061 0.5212
Pd2? Pd 0.3364(3) 0.6766(5) 0.36806(19)
Br2? Br 0.3641(4) 0.6430(6) 0.4189(2)
loop_
_geom_bond_atom_site_label_1
_geom_bond_atom_site_label_2
_geom_bond_site_symmetry_1
_geom_bond_site_symmetry_2
Zn1 I1 1_555 1_555
Zn2 I2 1_555 1_555
Zn3 I4 1_555 1_555
I3 Zn2 1_555 1_555
I5 Zn1 1_555 1_555
I6 Zn3 1_555 1_555
N1 Zn1 1_555 1_555
N2 C3 1_555 1_555
N3 C11 1_555 1_555
N4 Zn2 1_555 1_555
N5 C2 1_555 1_555
N6 Zn2 1_555 1_555
N7 C1 1_555 1_555
C1 C7 1_555 1_555
N8 C2 1_555 1_555
N9 Zn3 1_555 1_555
N10 C8 1_555 1_555
C2 C9 1_555 1_555
C3 N5 1_555 1_555
C4 N2 1_555 1_555
C5 H1 1_555 1_555
C6 H2 1_555 1_555
C7 C10 1_555 1_555
C8 N7 1_555 1_555
N11 C1 1_555 1_555
C9 C5 1_555 1_555
C10 H3 1_555 1_555
C11 H4 1_555 1_555
C12 N1 1_555 1_555
H5 C12 1_555 1_555
C13 C12 1_555 1_555
H6 C13 1_555 1_555
C14 N4 1_555 1_555
H7 C14 1_555 1_555
C15 N4 1_555 1_555
H8 C15 1_555 1_555
C16 N6 1_555 1_555
H9 C16 1_555 1_555
C17 C3 1_555 1_555
C18 C21 1_555 1_555
C19 N6 1_555 1_555
H10 C19 1_555 1_555
C20 C11 1_555 1_555
H11 C20 1_555 1_555
C21 N10 1_555 1_555
C22 C18 1_555 1_555
H12 C22 1_555 1_555
C23 N9 1_555 1_555
H13 C23 1_555 1_555
C24 C8 1_555 1_555
C25 C7 1_555 1_555
H14 C25 1_555 1_555
C26 C18 1_555 1_555
H15 C26 1_555 1_555
C27 C24 1_555 1_555
H16 C27 1_555 1_555
C28 N3 1_555 1_555
H17 C28 1_555 1_555
C29 N9 1_555 1_555
H18 C29 1_555 1_555
C30 C4 1_555 1_555
C31 C30 1_555 1_555
H19 C31 1_555 1_555
C32 N1 1_555 1_555
H20 C32 1_555 1_555
C33 C30 1_555 1_555
H21 C33 1_555 1_555
C34 C17 1_555 1_555
H22 C34 1_555 1_555
C35 C33 1_555 1_555
H23 C35 1_555 1_555
C36 C31 1_555 1_555
H24 C36 1_555 1_555
N12 C35 1_555 1_555
Pd1 Br1 1_555 1_555
N13 Pd1 1_555 1_555
C37 H25 1_555 1_555
C38 C39 1_555 1_555
C39 C40 1_555 1_555
C40 N13 1_555 1_555
C41 C40 1_555 1_555
C42 C41 1_555 1_555
C43 C38 1_555 1_555
C44 Pd1 1_555 1_555
C45 N13 1_555 1_555
H26 C45 1_555 1_555
C46 C44 1_555 1_555
H27 C46 1_555 1_555
C47 C43 1_555 1_555
H28 C47 1_555 1_555
C48 C47 1_555 1_555
H29 C48 1_555 1_555
C49 C37 1_555 1_555
H30 C49 1_555 1_555
C50 C38 1_555 1_555
H31 C50 1_555 1_555
C51 C46 1_555 1_555
H32 C51 1_555 1_555
C52 C42 1_555 1_555
H33 C52 1_555 1_555
N14 Pd1 1_555 1_555
C53 C48 1_555 1_555
H34 C53 1_555 1_555
C54 N14 1_555 1_555
C55 C54 1_555 1_555
H35 C55 1_555 1_555
H36 C55 1_555 1_555
H37 C55 1_555 1_555
N15 C56 1_555 1_555
C56 C57 1_555 1_555
C57 H38 1_555 1_555
H39 C57 1_555 1_555
H40 C57 1_555 1_555
Zn1B N3 1_555 1_555
Zn3A N12 1_555 1_555
N3B Zn1 1_555 1_555
N12A Zn3 1_555 1_555
N8 C4 1_555 1_555
C5 C16 1_555 1_555
C6 C9 1_555 1_555
C6 C19 1_555 1_555
N11 C21 1_555 1_555
C10 C14 1_555 1_555
C13 C17 1_555 1_555
C15 C25 1_555 1_555
C20 C24 1_555 1_555
C22 C29 1_555 1_555
C23 C26 1_555 1_555
C27 C28 1_555 1_555
C32 C34 1_555 1_555
C36 N12 1_555 1_555
C37 C45 1_555 1_555
C39 C44 1_555 1_555
C41 C49 1_555 1_555
C42 C43 1_555 1_555
C50 C51 1_555 1_555
C52 C53 1_555 1_555

#END
