
#######################################################################
#
#                 Cambridge Crystallographic Data Centre
#                                CCDC 
#
#######################################################################
#
# If this CIF has been generated from an entry in the Cambridge 
# Structural Database, then it will include bibliographic, chemical, 
# crystal, experimental, refinement or atomic coordinate data resulting 
# from the CCDC's data processing and validation procedures.
#
#######################################################################

data_RIYBOR
_symmetry_cell_setting           triclinic
_symmetry_space_group_name_H-M   'P -1'
_symmetry_Int_Tables_number      2
_space_group_name_Hall           '-P 1'
loop_
_symmetry_equiv_pos_site_id
_symmetry_equiv_pos_as_xyz
1 x,y,z
2 -x,-y,-z
_cell_length_a                   9.1026(18)
_cell_length_b                   9.1214(18)
_cell_length_c                   13.549(3)
_cell_angle_alpha                101.15(3)
_cell_angle_beta                 98.02(3)
_cell_angle_gamma                104.95(3)
_cell_volume                     1044.85
loop_
_atom_site_label
_atom_site_type_symbol
_atom_site_fract_x
_atom_site_fract_y
_atom_site_fract_z
Zn1 Zn 0.0000 0.0000 0.0000
Zn2 Zn 0.15835(4) 0.00144(4) 0.24916(3)
O1 O 0.2099(2) 0.0201(2) 0.10087(15)
O2 O -0.0579(3) -0.1482(3) 0.22652(17)
O3 O 0.0802(3) -0.8075(2) 0.27485(17)
O4 O 0.3930(3) 0.1534(3) 0.23385(17)
O5 O -0.1189(2) -0.2015(2) 0.05343(16)
O6 O -0.0543(2) -0.8418(2) 0.11415(16)
N1 N 0.2301(3) -0.0056(3) 0.40408(19)
N2 N 0.2365(3) -0.2065(3) 0.23376(19)
C1 C -0.1420(3) -0.2253(3) 0.1404(2)
C2 C -0.2427(3) -0.4607(3) 0.2206(2)
H1 H -0.1867 -0.3938 0.2870
H2 H -0.3382 -0.5280 0.2305
C3 C 0.3456(3) 0.1174(3) 0.1379(2)
C4 C -0.1438(3) -0.5621(3) 0.1780(2)
H3 H -0.0496 -0.4949 0.1664
H4 H -0.2009 -0.6308 0.1124
C5 C -0.0172(3) -0.7791(3) 0.2090(2)
C6 C 0.2803(3) -0.2419(3) 0.3259(2)
C7 C 0.2802(3) -0.1323(4) 0.4180(2)
C8 C 0.4576(3) 0.0552(4) -0.0208(2)
H5 H 0.5143 0.1035 -0.0674
H6 H 0.3547 -0.0059 -0.0592
C9 C -0.2829(3) -0.3570(3) 0.1474(2)
H7 H -0.3286 -0.4234 0.0792
H8 H -0.3601 -0.3107 0.1714
C10 C 0.3298(4) -0.1591(4) 0.5167(3)
C11 C 0.4436(3) 0.1817(4) 0.0651(3)
H9 H 0.5467 0.2415 0.1038
H10 H 0.3980 0.2523 0.0354
C12 C -0.1004(4) -0.6614(4) 0.2509(3)
H11 H -0.0343 -0.5913 0.3136
H12 H -0.1945 -0.7182 0.2689
C13 C 0.3220(4) -0.3793(4) 0.3348(3)
C14 C 0.2309(4) -0.3098(4) 0.1476(2)
H13 H 0.2017 -0.2881 0.0847
C15 C 0.2678(4) -0.4507(4) 0.1490(3)
H14 H 0.2605 -0.5209 0.0875
C16 C 0.2262(5) 0.0950(4) 0.4884(3)
H15 H 0.1899 0.1796 0.4813
C17 C 0.2754(6) 0.0783(5) 0.5897(3)
H16 H 0.2720 0.1522 0.6466
C18 C 0.3282(5) -0.0477(5) 0.6033(3)
H17 H 0.3620 -0.0580 0.6689
C19 C 0.3150(4) -0.4852(4) 0.2418(3)
H18 H 0.3417 -0.5769 0.2426
C20 C 0.3731(5) -0.3005(5) 0.5223(3)
H19 H 0.4053 -0.3180 0.5861
C21 C 0.3672(5) -0.4056(5) 0.4370(3)
H20 H 0.3921 -0.4968 0.4423
Zn1_2 Zn 0.0000 -1.0000 0.0000
Zn1_3 Zn 1.0000 0.0000 0.0000
Zn1_4 Zn 0.0000 1.0000 0.0000
Zn2A Zn 0.84165(4) -0.00144(4) -0.24916(3)
Zn2_2 Zn 0.15835(4) -0.99856(4) 0.24916(3)
Zn2A_2 Zn -0.15835(4) -0.00144(4) -0.24916(3)
Zn2A_3 Zn -0.15835(4) 0.99856(4) -0.24916(3)
O1A O 0.7901(2) -0.0201(2) -0.10087(15)
O1A_2 O -0.2099(2) -0.0201(2) -0.10087(15)
O2A O 0.0579(3) 0.1482(3) -0.22652(17)
O2A_2 O 1.0579(3) 0.1482(3) -0.22652(17)
O3A O -0.0802(3) 0.8075(2) -0.27485(17)
O3_2 O 0.0802(3) 0.1925(2) 0.27485(17)
O3A_2 O 0.9198(3) -0.1925(2) -0.27485(17)
O4A O 0.6070(3) -0.1534(3) -0.23385(17)
O5A O 0.1189(2) 0.2015(2) -0.05343(16)
O6A O 0.0543(2) 0.8418(2) -0.11415(16)
O6_2 O -0.0543(2) 0.1582(2) 0.11415(16)
O6A_2 O 0.0543(2) -0.1582(2) -0.11415(16)
N1A N 0.7699(3) 0.0056(3) -0.40408(19)
N2A N 0.7635(3) 0.2065(3) -0.23376(19)
C1A C 0.1420(3) 0.2253(3) -0.1404(2)
C2A C 0.2427(3) 0.4607(3) -0.2206(2)
H1A H 0.1867 0.3938 -0.2870
H2A H 0.3382 0.5280 -0.2305
C3A C 0.6544(3) -0.1174(3) -0.1379(2)
C4A C 0.1438(3) 0.5621(3) -0.1780(2)
H3A H 0.0496 0.4949 -0.1664
H4A H 0.2009 0.6308 -0.1124
C5A C 0.0172(3) 0.7791(3) -0.2090(2)
C6A C 0.7197(3) 0.2419(3) -0.3259(2)
C7A C 0.7198(3) 0.1323(4) -0.4180(2)
C8A C 0.5424(3) -0.0552(4) 0.0208(2)
H5A H 0.4857 -0.1035 0.0674
H6A H 0.6453 0.0059 0.0592
C9A C 0.2829(3) 0.3570(3) -0.1474(2)
H7A H 0.3286 0.4234 -0.0792
H8A H 0.3601 0.3107 -0.1714
C10A C 0.6702(4) 0.1591(4) -0.5167(3)
C11A C 0.5564(3) -0.1817(4) -0.0651(3)
H9A H 0.4533 -0.2415 -0.1038
H10A H 0.6020 -0.2523 -0.0354
C12A C 0.1004(4) 0.6614(4) -0.2509(3)
H11A H 0.0343 0.5913 -0.3136
H12A H 0.1945 0.7182 -0.2689
C13A C 0.6780(4) 0.3793(4) -0.3348(3)
C14A C 0.7691(4) 0.3098(4) -0.1476(2)
H13A H 0.7983 0.2881 -0.0847
C15A C 0.7322(4) 0.4507(4) -0.1490(3)
H14A H 0.7395 0.5209 -0.0875
C16A C 0.7738(5) -0.0950(4) -0.4884(3)
H15A H 0.8101 -0.1796 -0.4813
C17A C 0.7246(6) -0.0783(5) -0.5897(3)
H16A H 0.7280 -0.1522 -0.6466
C18A C 0.6718(5) 0.0477(5) -0.6033(3)
H17A H 0.6380 0.0580 -0.6689
C19A C 0.6850(4) 0.4852(4) -0.2418(3)
H18A H 0.6583 0.5769 -0.2426
C20A C 0.6269(5) 0.3005(5) -0.5223(3)
H19A H 0.5947 0.3180 -0.5861
C21A C 0.6328(5) 0.4056(5) -0.4370(3)
H20A H 0.6079 0.4968 -0.4423
loop_
_geom_bond_atom_site_label_1
_geom_bond_atom_site_label_2
_geom_bond_site_symmetry_1
_geom_bond_site_symmetry_2
Zn1 O1 1_555 1_555
Zn2 O1 1_555 1_555
O1 C3 1_555 1_555
O2 Zn2 1_555 1_555
O3 C5 1_555 1_555
O4 Zn2 1_555 1_555
O5 Zn1 1_555 1_555
O6 C5 1_555 1_555
N1 Zn2 1_555 1_555
N2 Zn2 1_555 1_555
C1 O2 1_555 1_555
C2 H1 1_555 1_555
H2 C2 1_555 1_555
C3 O4 1_555 1_555
C4 C2 1_555 1_555
H3 C4 1_555 1_555
H4 C4 1_555 1_555
C5 C12 1_555 1_555
C6 N2 1_555 1_555
C7 N1 1_555 1_555
C8 H5 1_555 1_555
H6 C8 1_555 1_555
C9 C1 1_555 1_555
H7 C9 1_555 1_555
H8 C9 1_555 1_555
C10 C7 1_555 1_555
C11 C3 1_555 1_555
H9 C11 1_555 1_555
H10 C11 1_555 1_555
C12 C4 1_555 1_555
H11 C12 1_555 1_555
H12 C12 1_555 1_555
C13 C6 1_555 1_555
C14 N2 1_555 1_555
H13 C14 1_555 1_555
C15 C14 1_555 1_555
H14 C15 1_555 1_555
C16 N1 1_555 1_555
H15 C16 1_555 1_555
C17 C16 1_555 1_555
H16 C17 1_555 1_555
C18 C10 1_555 1_555
H17 C18 1_555 1_555
C19 C13 1_555 1_555
H18 C19 1_555 1_555
C20 C10 1_555 1_555
H19 C20 1_555 1_555
C21 C13 1_555 1_555
H20 C21 1_555 1_555
Zn1_2 O6 1_555 1_555
Zn1_3 O1A 1_555 1_555
Zn1_4 O6A 1_555 1_555
Zn2A O1A 1_555 1_555
Zn2_2 O3 1_555 1_555
Zn2A_2 O1A_2 1_555 1_555
Zn2A_3 O3A 1_555 1_555
O1A C3A 1_555 1_555
O1A_2 Zn1 1_555 1_555
O2A Zn2A_2 1_555 1_555
O2A_2 Zn2A 1_555 1_555
O3A C5A 1_555 1_555
O3_2 Zn2 1_555 1_555
O3A_2 Zn2A 1_555 1_555
O4A Zn2A 1_555 1_555
O5A Zn1 1_555 1_555
O6A C5A 1_555 1_555
O6_2 Zn1 1_555 1_555
O6A_2 Zn1 1_555 1_555
N1A Zn2A 1_555 1_555
N2A Zn2A 1_555 1_555
C1A O2A 1_555 1_555
C2A H1A 1_555 1_555
H2A C2A 1_555 1_555
C3A O4A 1_555 1_555
C4A C2A 1_555 1_555
H3A C4A 1_555 1_555
H4A C4A 1_555 1_555
C5A C12A 1_555 1_555
C6A N2A 1_555 1_555
C7A N1A 1_555 1_555
C8A C8 1_555 1_555
H5A C8A 1_555 1_555
H6A C8A 1_555 1_555
C9A C1A 1_555 1_555
H7A C9A 1_555 1_555
H8A C9A 1_555 1_555
C10A C7A 1_555 1_555
C11A C3A 1_555 1_555
H9A C11A 1_555 1_555
H10A C11A 1_555 1_555
C12A C4A 1_555 1_555
H11A C12A 1_555 1_555
H12A C12A 1_555 1_555
C13A C6A 1_555 1_555
C14A N2A 1_555 1_555
H13A C14A 1_555 1_555
C15A C14A 1_555 1_555
H14A C15A 1_555 1_555
C16A N1A 1_555 1_555
H15A C16A 1_555 1_555
C17A C16A 1_555 1_555
H16A C17A 1_555 1_555
C18A C10A 1_555 1_555
H17A C18A 1_555 1_555
C19A C13A 1_555 1_555
H18A C19A 1_555 1_555
C20A C10A 1_555 1_555
H19A C20A 1_555 1_555
C21A C13A 1_555 1_555
H20A C21A 1_555 1_555
O5 C1 1_555 1_555
C2 C9 1_555 1_555
C6 C7 1_555 1_555
C8 C11 1_555 1_555
C15 C19 1_555 1_555
C17 C18 1_555 1_555
C20 C21 1_555 1_555
O5A C1A 1_555 1_555
C2A C9A 1_555 1_555
C6A C7A 1_555 1_555
C8A C11A 1_555 1_555
C15A C19A 1_555 1_555
C17A C18A 1_555 1_555
C20A C21A 1_555 1_555

#END
