
#######################################################################
#
#                 Cambridge Crystallographic Data Centre
#                                CCDC 
#
#######################################################################
#
# If this CIF has been generated from an entry in the Cambridge 
# Structural Database, then it will include bibliographic, chemical, 
# crystal, experimental, refinement or atomic coordinate data resulting 
# from the CCDC's data processing and validation procedures.
#
#######################################################################

data_RIYCUY
_symmetry_cell_setting           triclinic
_symmetry_space_group_name_H-M   'P -1'
_symmetry_Int_Tables_number      2
_space_group_name_Hall           '-P 1'
loop_
_symmetry_equiv_pos_site_id
_symmetry_equiv_pos_as_xyz
1 x,y,z
2 -x,-y,-z
_cell_length_a                   6.7500(2)
_cell_length_b                   10.4020(3)
_cell_length_c                   13.6360(4)
_cell_angle_alpha                85.8690(10)
_cell_angle_beta                 81.6690(10)
_cell_angle_gamma                83.5550(10)
_cell_volume                     939.825
loop_
_atom_site_label
_atom_site_type_symbol
_atom_site_fract_x
_atom_site_fract_y
_atom_site_fract_z
Tl1 Tl 0.14064(6) 0.50150(4) 0.71528(3)
Tl2 Tl -0.42903(6) 0.70609(4) 0.75681(3)
N1 N 0.0506(16) 0.2795(10) 0.6755(7)
N2 N -0.3513(15) 0.9181(9) 0.8246(7)
O1 O -0.4766(13) 0.3658(9) 0.6955(8)
O2 O -0.2252(13) 0.4885(8) 0.6985(6)
O3 O 0.1752(14) 0.8181(10) 0.8176(7)
O4 O -0.0643(13) 0.7300(8) 0.7561(7)
C1 C 0.188(2) 0.1787(14) 0.6592(10)
H1 H 0.3231 0.1864 0.6684
C2 C 0.141(2) 0.0631(12) 0.6292(10)
H2 H 0.2445 -0.0057 0.6158
C3 C -0.0554(19) 0.0465(12) 0.6186(9)
H3 H -0.0907 -0.0330 0.5996
C4 C -0.200(2) 0.1532(12) 0.6373(9)
H4 H -0.3362 0.1475 0.6304
C5 C -0.1422(17) 0.2653(12) 0.6655(9)
C6 C -0.2942(19) 0.3831(12) 0.6882(8)
C7 C 0.102(2) 0.4497(15) 0.8701(10)
H5 H 0.1478 0.5168 0.9058
H6 H 0.1813 0.3668 0.8825
H7 H -0.0405 0.4416 0.8934
C8 C 0.210(2) 0.5655(14) 0.5654(10)
H8 H 0.1013 0.6293 0.5469
H9 H 0.2237 0.4916 0.5234
H10 H 0.3363 0.6056 0.5563
C9 C -0.4876(19) 1.0145(13) 0.8532(10)
H11 H -0.6224 1.0108 0.8420
C10 C -0.443(2) 1.1227(13) 0.8998(9)
H12 H -0.5438 1.1912 0.9180
C11 C -0.247(2) 1.1261(13) 0.9179(9)
H13 H -0.2124 1.1967 0.9501
C12 C -0.101(2) 1.0245(13) 0.8886(9)
H14 H 0.0338 1.0249 0.9003
C13 C -0.1592(18) 0.9232(12) 0.8418(8)
C14 C -0.006(2) 0.8155(11) 0.8019(9)
C15 C -0.429(2) 0.7857(15) 0.6092(10)
H15 H -0.5519 0.7682 0.5847
H16 H -0.3112 0.7461 0.5668
H17 H -0.4226 0.8795 0.6079
C16 C -0.457(2) 0.6130(14) 0.9006(9)
H18 H -0.5861 0.6447 0.9383
H19 H -0.3467 0.6320 0.9348
H20 H -0.4518 0.5192 0.8952
Tl1_2 Tl -0.85936(6) 0.50150(4) 0.71528(3)
Tl2_2 Tl 0.57097(6) 0.70609(4) 0.75681(3)
O1_2 O 0.5234(13) 0.3658(9) 0.6955(8)
O3_2 O -0.8248(14) 0.8181(10) 0.8176(7)
loop_
_geom_bond_atom_site_label_1
_geom_bond_atom_site_label_2
_geom_bond_site_symmetry_1
_geom_bond_site_symmetry_2
Tl1 N1 1_555 1_555
Tl2 N2 1_555 1_555
N1 C1 1_555 1_555
N2 C9 1_555 1_555
O1 C6 1_555 1_555
O2 Tl1 1_555 1_555
O3 C14 1_555 1_555
O4 Tl1 1_555 1_555
C1 H1 1_555 1_555
C2 C1 1_555 1_555
H2 C2 1_555 1_555
C3 C2 1_555 1_555
H3 C3 1_555 1_555
C4 C3 1_555 1_555
H4 C4 1_555 1_555
C5 N1 1_555 1_555
C6 O2 1_555 1_555
C7 Tl1 1_555 1_555
H5 C7 1_555 1_555
H6 C7 1_555 1_555
H7 C7 1_555 1_555
C8 Tl1 1_555 1_555
H8 C8 1_555 1_555
H9 C8 1_555 1_555
H10 C8 1_555 1_555
C9 H11 1_555 1_555
C10 C9 1_555 1_555
H12 C10 1_555 1_555
C11 C10 1_555 1_555
H13 C11 1_555 1_555
C12 C11 1_555 1_555
H14 C12 1_555 1_555
C13 N2 1_555 1_555
C14 O4 1_555 1_555
C15 Tl2 1_555 1_555
H15 C15 1_555 1_555
H16 C15 1_555 1_555
H17 C15 1_555 1_555
C16 Tl2 1_555 1_555
H18 C16 1_555 1_555
H19 C16 1_555 1_555
H20 C16 1_555 1_555
Tl1_2 O1 1_555 1_555
Tl2_2 O3 1_555 1_555
O1_2 Tl1 1_555 1_555
O3_2 Tl2 1_555 1_555
Tl2 O2 1_555 1_555
Tl2 O4 1_555 1_555
C4 C5 1_555 1_555
C5 C6 1_555 1_555
C12 C13 1_555 1_555
C13 C14 1_555 1_555

#END
