
#######################################################################
#
#                 Cambridge Crystallographic Data Centre
#                                CCDC 
#
#######################################################################
#
# If this CIF has been generated from an entry in the Cambridge 
# Structural Database, then it will include bibliographic, chemical, 
# crystal, experimental, refinement or atomic coordinate data resulting 
# from the CCDC's data processing and validation procedures.
#
#######################################################################

data_RIYHIQ
_symmetry_cell_setting           orthorhombic
_symmetry_space_group_name_H-M   'P 21 21 21'
_symmetry_Int_Tables_number      19
_space_group_name_Hall           'P 2ac 2ab'
loop_
_symmetry_equiv_pos_site_id
_symmetry_equiv_pos_as_xyz
1 x,y,z
2 1/2-x,-y,1/2+z
3 -x,1/2+y,1/2-z
4 1/2+x,1/2-y,-z
_cell_length_a                   9.0066(5)
_cell_length_b                   11.1040(6)
_cell_length_c                   16.0091(15)
_cell_angle_alpha                90
_cell_angle_beta                 90
_cell_angle_gamma                90
_cell_volume                     1601.06
loop_
_atom_site_label
_atom_site_type_symbol
_atom_site_fract_x
_atom_site_fract_y
_atom_site_fract_z
Cu1 Cu -0.05869(6) 0.69304(4) 0.45194(3)
N1 N 0.3730(4) 0.9786(3) 0.5449(2)
N2 N 0.5846(4) 0.8678(4) 0.6326(3)
O1 O 0.2504(3) 0.7701(2) 0.4953(2)
O2 O 0.0263(3) 0.8492(2) 0.4747(2)
O3 O 0.3024(4) 0.8047(4) 0.6741(2)
C1 C 0.2121(4) 0.9812(4) 0.5246(3)
C2 C 0.1616(5) 0.8564(4) 0.4960(3)
C3 C 0.4236(6) 1.0408(4) 0.6223(3)
C4 C 0.4951(5) 0.9534(4) 0.6843(3)
C5 C 0.3784(6) 0.8786(5) 0.7306(3)
C6 C 0.5903(8) 1.0226(6) 0.7470(4)
C7 C 0.1731(5) 1.0766(4) 0.4597(3)
C8 C 0.2036(4) 1.2065(4) 0.4855(3)
C9 C 0.2815(5) 1.2823(4) 0.4343(3)
C10 C 0.3039(5) 1.4024(4) 0.4561(4)
C11 C 0.2473(6) 1.4456(5) 0.5294(4)
C12 C 0.1690(6) 1.3702(5) 0.5824(4)
C13 C 0.1488(5) 1.2508(4) 0.5606(3)
H1 H 0.4179(52) 1.0113(38) 0.5058(28)
H2 H 0.2031(57) 0.7603(44) 0.6932(29)
H3 H 0.1673(47) 0.9979(37) 0.5763(27)
H4 H 0.6235(67) 0.8239(62) 0.6665(38)
H5 H 0.6558(54) 0.9024(43) 0.6093(27)
H6 H 0.4920(48) 1.0982(41) 0.6052(26)
H7 H 0.3451(54) 1.0694(42) 0.6479(29)
H8 H 0.4267(63) 0.8242(47) 0.7663(31)
H9 H 0.3076(66) 0.9398(52) 0.7627(33)
H10 H 0.6864(53) 1.0651(38) 0.7245(25)
H11 H 0.5269(72) 1.0676(58) 0.7769(36)
H12 H 0.6287(72) 0.9824(57) 0.7845(41)
H13 H 0.0747(55) 1.0637(39) 0.4441(27)
H14 H 0.2317(53) 1.0636(42) 0.4149(28)
H15 H 0.3253(60) 1.2576(47) 0.3845(31)
H16 H 0.3543(55) 1.4535(48) 0.4161(31)
H17 H 0.2534(70) 1.5187(56) 0.5433(38)
H18 H 0.1300(53) 1.4010(47) 0.6257(31)
H19 H 0.0889(56) 1.2042(47) 0.5930(28)
Cu1C Cu 0.44131(6) 0.80696(4) 0.54806(3)
O2C O 0.5263(3) 0.6508(2) 0.5253(2)
O4 O 0.5194(6) 0.3865(4) 0.1253(2)
O5 O 0.7184(5) 0.3309(5) 0.2106(3)
O6 O 0.4909(12) 0.2419(10) 0.2305(8)
O8 O 0.5291(13) 0.4399(10) 0.2671(6)
Cl1 Cl 0.5643(2) 0.34608(13) 0.20472(8)
O7? O 0.5468(36) 0.2121(29) 0.1700(17)
O9? O 0.4692(33) 0.3509(40) 0.2574(13)
loop_
_geom_bond_atom_site_label_1
_geom_bond_atom_site_label_2
_geom_bond_site_symmetry_1
_geom_bond_site_symmetry_2
Cu1 O2 1_555 1_555
N1 C1 1_555 1_555
N2 C4 1_555 1_555
O1 C2 1_555 1_555
O2 C2 1_555 1_555
O3 C5 1_555 1_555
C1 C2 1_555 1_555
C3 N1 1_555 1_555
C4 C3 1_555 1_555
C5 C4 1_555 1_555
C6 C4 1_555 1_555
C7 C1 1_555 1_555
C8 C7 1_555 1_555
C9 C8 1_555 1_555
C10 C9 1_555 1_555
C11 C10 1_555 1_555
C12 C11 1_555 1_555
C13 C8 1_555 1_555
O4 Cl1 1_555 1_555
O5 Cl1 1_555 1_555
O6 Cl1 1_555 1_555
O8 Cl1 1_555 1_555
H1 N1 1_555 1_555
H2 O3 1_555 1_555
H3 C1 1_555 1_555
H4 N2 1_555 1_555
H5 N2 1_555 1_555
H6 C3 1_555 1_555
H7 C3 1_555 1_555
H8 C5 1_555 1_555
H9 C5 1_555 1_555
H10 C6 1_555 1_555
H11 C6 1_555 1_555
H12 C6 1_555 1_555
H13 C7 1_555 1_555
H14 C7 1_555 1_555
H15 C9 1_555 1_555
H16 C10 1_555 1_555
H17 C11 1_555 1_555
H18 C12 1_555 1_555
H19 C13 1_555 1_555
Cu1C N1 1_555 1_555
O2C Cu1C 1_555 1_555
N2 Cu1C 1_555 1_555
O1 Cu1C 1_555 1_555
O3 Cu1C 1_555 1_555
C12 C13 1_555 1_555

#END
