
#######################################################################
#
#                 Cambridge Crystallographic Data Centre
#                                CCDC 
#
#######################################################################
#
# If this CIF has been generated from an entry in the Cambridge 
# Structural Database, then it will include bibliographic, chemical, 
# crystal, experimental, refinement or atomic coordinate data resulting 
# from the CCDC's data processing and validation procedures.
#
#######################################################################

data_RIYXEC
_symmetry_cell_setting           orthorhombic
_symmetry_space_group_name_H-M   'P m c n'
_symmetry_Int_Tables_number      62
_space_group_name_Hall           '-P 2n 2a'
loop_
_symmetry_equiv_pos_site_id
_symmetry_equiv_pos_as_xyz
1 x,y,z
2 1/2-x,1/2-y,1/2+z
3 1/2+x,-y,-z
4 -x,1/2+y,1/2-z
5 -x,-y,-z
6 1/2+x,1/2+y,1/2-z
7 1/2-x,y,z
8 x,1/2-y,1/2+z
_cell_length_a                   6.484(2)
_cell_length_b                   10.636(3)
_cell_length_c                   14.651(3)
_cell_angle_alpha                90
_cell_angle_beta                 90
_cell_angle_gamma                90
_cell_volume                     1010.39
loop_
_atom_site_label
_atom_site_type_symbol
_atom_site_fract_x
_atom_site_fract_y
_atom_site_fract_z
Ag1 Ag 0.2500 0.49435(4) 0.23876(3)
N1 N 0.7500 0.6364(5) 0.4338(4)
N2 N 0.5600(6) 0.5856(3) 0.2936(2)
N3 N 0.7500 0.7846(5) 0.3062(4)
C1 C 0.7500 0.5262(6) 0.2570(4)
C2 C 0.7500 0.7699(6) 0.4070(4)
C3 C 0.5649(8) 0.7211(4) 0.2688(3)
C4 C 0.5655(8) 0.5765(4) 0.3948(3)
H1 H 0.7500 0.5330(6) 0.1910(4)
H2 H 0.7500 0.4376(6) 0.2726(4)
H3 H 0.8710 0.8109(6) 0.4321(4)
H4 H 0.5644(8) 0.7292(4) 0.2029(3)
H5 H 0.4420(8) 0.7620(4) 0.2922(3)
H6 H 0.4434(8) 0.6164(4) 0.4198(3)
H7 H 0.530(8) 0.4886(4) 0.4124(3)
N2F N 0.9400(6) 0.5856(3) 0.2936(2)
C3F C 0.9351(8) 0.7211(4) 0.2688(3)
H4F H 0.9356(8) 0.7292(4) 0.2029(3)
H5F H 1.0580(8) 0.7620(4) 0.2922(3)
C4F C 0.9345(8) 0.5765(4) 0.3948(3)
H6F H 1.0566(8) 0.6164(4) 0.4198(3)
H7F H 0.970(8) 0.4886(4) 0.4124(3)
H3F H 0.6290 0.8109(6) 0.4321(4)
N2F_2 N -0.0600(6) 0.5856(3) 0.2936(2)
N3C N 0.2500 0.2846(5) 0.1938(4)
Ag1C Ag 0.7500 0.99435(4) 0.26124(3)
Ag1_2 Ag 1.2500 0.49435(4) 0.23876(3)
Cl1 Cl 0.7500 0.3475(2) -0.04419(11)
O1 O 0.7500 0.3515(6) 0.0535(3)
O2 O 0.5718(8) 0.4108(4) -0.0792(3)
O3 O 0.7500 0.2200(5) -0.0752(4)
O2F O 0.9282(8) 0.4108(4) -0.0792(3)
loop_
_geom_bond_atom_site_label_1
_geom_bond_atom_site_label_2
_geom_bond_site_symmetry_1
_geom_bond_site_symmetry_2
Ag1 N2 1_555 1_555
N1 C2 1_555 1_555
N2 C1 1_555 1_555
N3 C2 1_555 1_555
C1 H1 1_555 1_555
C2 H3 1_555 1_555
C3 N2 1_555 1_555
C4 N1 1_555 1_555
Cl1 O1 1_555 1_555
O2 Cl1 1_555 1_555
O3 Cl1 1_555 1_555
H2 C1 1_555 1_555
H4 C3 1_555 1_555
H5 C3 1_555 1_555
H6 C4 1_555 1_555
H7 C4 1_555 1_555
N2F C1 1_555 1_555
C3F N3 1_555 1_555
H4F C3F 1_555 1_555
H5F C3F 1_555 1_555
C4F N1 1_555 1_555
H6F C4F 1_555 1_555
H7F C4F 1_555 1_555
H3F C2 1_555 1_555
O2F Cl1 1_555 1_555
N2F_2 Ag1 1_555 1_555
N3C Ag1 1_555 1_555
Ag1C N3 1_555 1_555
Ag1_2 N2F 1_555 1_555
N2 C4 1_555 1_555
N3 C3 1_555 1_555
N2F C3F 1_555 1_555
N2F C4F 1_555 1_555

#END
