
#######################################################################
#
#                 Cambridge Crystallographic Data Centre
#                                CCDC 
#
#######################################################################
#
# If this CIF has been generated from an entry in the Cambridge 
# Structural Database, then it will include bibliographic, chemical, 
# crystal, experimental, refinement or atomic coordinate data resulting 
# from the CCDC's data processing and validation procedures.
#
#######################################################################

data_RIZDUZ
_symmetry_cell_setting           monoclinic
_symmetry_space_group_name_H-M   'C 2/c'
_symmetry_Int_Tables_number      15
_space_group_name_Hall           '-C 2yn'
loop_
_symmetry_equiv_pos_site_id
_symmetry_equiv_pos_as_xyz
1 x,y,z
2 -x,y,1/2-z
3 1/2+x,1/2+y,z
4 1/2-x,1/2+y,1/2-z
5 -x,-y,-z
6 x,-y,1/2+z
7 1/2-x,1/2-y,-z
8 1/2+x,1/2-y,1/2+z
_cell_length_a                   16.228(2)
_cell_length_b                   11.078(2)
_cell_length_c                   13.985(2)
_cell_angle_alpha                90
_cell_angle_beta                 114.43(1)
_cell_angle_gamma                90
_cell_volume                     2289.04
loop_
_atom_site_label
_atom_site_type_symbol
_atom_site_fract_x
_atom_site_fract_y
_atom_site_fract_z
Cu1 Cu 1.0000 -1.3982(1) 0.7500
N1 N 1.0000 -1.2193(8) 0.7500
N2 N 1.0000 -0.5782(8) 0.7500
C1 C 1.0756(6) -1.1550(7) 0.7709(7)
C2 C 1.0796(5) -1.0323(7) 0.7751(6)
C3 C 1.0000 -0.964(1) 0.7500
C4 C 1.0000 -0.8276(9) 0.7500
C5 C 0.9240(6) -0.7654(8) 0.7418(7)
C6 C 0.9266(6) -0.6399(7) 0.7413(7)
O1 O 1.0938(4) -0.3955(5) 0.8947(4)
B1 B 1.1504(6) -0.4141(8) 0.6146(7)
F1 F 1.2149(4) -0.3303(7) 0.6248(6)
F2 F 1.1176(4) -0.3911(5) 0.6900(5)
F3 F 1.1879(5) -0.5293(6) 0.6297(5)
F4 F 1.0815(5) -0.4034(7) 0.5169(5)
H1 H 1.1323(6) -1.2005(7) 0.7842(7)
H2 H 1.1390(5) -0.9901(7) 0.7965(6)
H3 H 0.8681(6) -0.8095(8) 0.7350(7)
H4 H 1.1282(6) -0.5935(7) 0.7649(7)
H9 H 1.0723 -0.4524 0.9358
H10 H 1.1554 -0.4167 0.9127
C2A C 0.9204(5) -1.0323(7) 0.7249(6)
C1A C 0.9244(6) -1.1550(7) 0.7291(7)
H1A H 0.8677(6) -1.2005(7) 0.7158(7)
H2A H 0.8610(5) -0.9901(7) 0.7035(6)
Cu1_2 Cu 1.0000 -0.3982(1) 0.7500
N1_2 N 1.0000 -0.2193(8) 0.7500
O1A O 0.9062(4) -0.3955(5) 0.6053(4)
H9A H 0.9277 -0.4524 0.5642
H10A H 0.8446 -0.4167 0.5873
F2A F 0.8824(4) -0.3911(5) 0.8100(5)
B1A B 0.8496(6) -0.4141(8) 0.8854(7)
F1A F 0.7851(4) -0.3303(7) 0.8752(6)
F3A F 0.8121(5) -0.5293(6) 0.8703(5)
F4A F 0.9185(5) -0.4034(7) 0.9831(5)
C6A C 1.0734(6) -0.6399(7) 0.7587(7)
C5A C 1.0760(6) -0.7654(8) 0.7582(7)
H3A H 1.1319(6) -0.8095(8) 0.7650(7)
H4A H 0.8718(6) -0.5935(7) 0.7351(7)
N3 N 1.2686(5) -1.4369(7) 0.9366(6)
C7 C 1.2998(6) -1.5477(9) 0.9528(7)
C8 C 1.3899(6) -1.5774(8) 0.9788(7)
C9 C 1.4502(6) -1.4860(8) 0.9853(6)
C10 C 1.4190(7) -1.3688(9) 0.9727(8)
C11 C 1.3284(6) -1.3466(9) 0.9479(7)
H5 H 1.2563(6) -1.6145(9) 0.9460(7)
H6 H 1.4109(6) -1.6631(8) 0.9922(7)
H7 H 1.4613(7) -1.3004(9) 0.9812(8)
H8 H 1.3065(6) -1.2613(9) 0.9389(7)
C9D C 1.5498(6) -1.5140(8) 1.0147(6)
C8D C 1.6101(6) -1.4226(8) 1.0212(7)
C7D C 1.7002(6) -1.4523(9) 1.0472(7)
N3D N 1.7314(5) -1.5631(7) 1.0634(6)
C11D C 1.6716(6) -1.6534(9) 1.0521(7)
C10D C 1.5810(7) -1.6312(9) 1.0273(8)
H7D H 1.5387(7) -1.6996(9) 1.0188(8)
H8D H 1.6935(6) -1.7387(9) 1.0611(7)
H5D H 1.7437(6) -1.3855(9) 1.0540(7)
H6D H 1.5891(6) -1.3369(8) 1.0078(7)
loop_
_geom_bond_atom_site_label_1
_geom_bond_atom_site_label_2
_geom_bond_site_symmetry_1
_geom_bond_site_symmetry_2
Cu1 N1 1_555 1_555
N1 C1 1_555 1_555
N2 C6 1_555 1_555
C1 C2 1_555 1_555
C2 C3 1_555 1_555
C3 C4 1_555 1_555
C4 C5 1_555 1_555
C5 C6 1_555 1_555
C6 H4A 1_555 1_555
N3 C7 1_555 1_555
C7 C8 1_555 1_555
C8 C9 1_555 1_555
C9 C10 1_555 1_555
C10 C11 1_555 1_555
C11 N3 1_555 1_555
O1 H9 1_555 1_555
B1 F1 1_555 1_555
F2 B1 1_555 1_555
F3 B1 1_555 1_555
F4 B1 1_555 1_555
H1 C1 1_555 1_555
H2 C2 1_555 1_555
H3 C5 1_555 1_555
H4 C6A 1_555 1_555
H5 C7 1_555 1_555
H6 C8 1_555 1_555
H7 C10 1_555 1_555
H8 C11 1_555 1_555
H10 O1 1_555 1_555
C2A C3 1_555 1_555
C1A N1 1_555 1_555
H1A C1A 1_555 1_555
H2A C2A 1_555 1_555
Cu1_2 N2 1_555 1_555
N1_2 Cu1_2 1_555 1_555
O1A Cu1_2 1_555 1_555
H9A O1A 1_555 1_555
H10A O1A 1_555 1_555
F2A Cu1_2 1_555 1_555
B1A F2A 1_555 1_555
F1A B1A 1_555 1_555
F3A B1A 1_555 1_555
F4A B1A 1_555 1_555
C6A N2 1_555 1_555
C5A C4 1_555 1_555
H3A C5A 1_555 1_555
C9D C9 1_555 1_555
C8D C9D 1_555 1_555
C7D C8D 1_555 1_555
N3D C7D 1_555 1_555
C11D N3D 1_555 1_555
C10D C9D 1_555 1_555
H7D C10D 1_555 1_555
H8D C11D 1_555 1_555
H5D C7D 1_555 1_555
H6D C8D 1_555 1_555
O1 Cu1_2 1_555 1_555
F2 Cu1_2 1_555 1_555
C2A C1A 1_555 1_555
C6A C5A 1_555 1_555
C11D C10D 1_555 1_555

#END
