
#######################################################################
#
#                 Cambridge Crystallographic Data Centre
#                                CCDC 
#
#######################################################################
#
# If this CIF has been generated from an entry in the Cambridge 
# Structural Database, then it will include bibliographic, chemical, 
# crystal, experimental, refinement or atomic coordinate data resulting 
# from the CCDC's data processing and validation procedures.
#
#######################################################################

data_RIZNUK
_symmetry_cell_setting           triclinic
_symmetry_space_group_name_H-M   'P -1'
_symmetry_Int_Tables_number      2
_space_group_name_Hall           '-P 1'
loop_
_symmetry_equiv_pos_site_id
_symmetry_equiv_pos_as_xyz
1 x,y,z
2 -x,-y,-z
_cell_length_a                   6.1281(8)
_cell_length_b                   7.5812(9)
_cell_length_c                   22.893(3)
_cell_angle_alpha                91.792(10)
_cell_angle_beta                 96.562(10)
_cell_angle_gamma                90.347(10)
_cell_volume                     1056.04
loop_
_atom_site_label
_atom_site_type_symbol
_atom_site_fract_x
_atom_site_fract_y
_atom_site_fract_z
O1 O 0.1128(3) 0.6283(2) 0.05831(7)
O2 O 0.5920(3) 0.4017(3) 0.05944(9)
O3 O 0.1054(3) 0.1349(2) 0.05121(8)
O4 O -0.1519(3) 0.1358(2) 0.11215(8)
O5 O 0.3905(3) 0.6323(3) 0.12966(8)
C1 C -0.0008(4) 0.7030(3) 0.32511(11)
C2 C 0.3505(4) 0.1345(3) 0.26226(11)
C3 C -0.0362(4) 0.6373(3) 0.26540(11)
C4 C 0.1865(5) 0.6293(3) 0.11229(12)
C5 C 0.3584(4) 0.2009(3) 0.32181(11)
C6 C 0.0490(5) 0.1348(3) 0.10236(12)
C7 C 0.1280(4) 0.6454(3) 0.22120(11)
H1 H 0.2343 0.5524 0.2290
H2 H 0.2064 0.7573 0.2268
C8 C 0.5652(5) 0.1548(3) 0.35136(12)
C9 C -0.1878(4) 0.6562(3) 0.35276(12)
C10 C 0.0279(4) 0.6266(4) 0.15753(11)
H3 H -0.0543 0.5164 0.1525
H4 H -0.0759 0.7215 0.1498
N1 N 0.6763(4) 0.0639(3) 0.31173(10)
H5 H 0.8061 0.0215 0.3190
C11 C -0.2379(4) 0.5559(4) 0.25919(12)
H6 H -0.3036 0.5008 0.2247
C12 C 0.2127(5) 0.2966(3) 0.35310(12)
H7 H 0.0757 0.3279 0.3348
C13 C -0.0365(5) 0.7967(4) 0.44241(13)
H8 H -0.0458 0.8299 0.4815
N2 N -0.3295(4) 0.5675(3) 0.31129(10)
H9 H -0.4558 0.5255 0.3169
C14 C 0.1697(5) 0.7986(3) 0.35849(12)
H10 H 0.2946 0.8309 0.3417
C15 C 0.2254(4) 0.1306(4) 0.15357(11)
H11 H 0.3276 0.2265 0.1496
H12 H 0.3054 0.0214 0.1501
C16 C 0.5476(4) 0.0509(4) 0.25821(12)
H13 H 0.5878 -0.0057 0.2245
C17 C -0.2070(5) 0.7018(4) 0.41111(13)
H14 H -0.3305 0.6696 0.4286
C18 C 0.6275(5) 0.2011(4) 0.41020(13)
H15 H 0.7632 0.1692 0.4292
C19 C 0.1589(4) 0.1440(3) 0.21481(11)
H16 H 0.0563 0.0491 0.2196
H17 H 0.0836 0.2547 0.2196
C20 C 0.1503(5) 0.8438(4) 0.41616(13)
H18 H 0.2632 0.9069 0.4383
C21 C 0.2746(5) 0.3440(4) 0.41137(13)
H19 H 0.1788 0.4084 0.4323
C22 C 0.4786(6) 0.2968(4) 0.43925(13)
H20 H 0.5160 0.3304 0.4785
O6 O 0.4057(3) 0.1428(3) -0.06165(9)
Na1 Na 0.23554(16) 0.37423(12) -0.00275(4)
Na2 Na 0.24237(17) 0.87904(13) 0.00701(5)
H21 H 0.350(6) 0.058(4) -0.0833(14)
H22 H 0.452(4) 0.201(3) -0.0878(11)
H23 H 0.644(6) 0.326(4) 0.0826(14)
H24 H 0.537(6) 0.466(4) 0.0850(13)
O1A O -0.1128(3) 0.3717(2) -0.05831(7)
O2A O 0.4080(3) 0.5983(3) -0.05944(9)
O3_2 O 0.1054(3) 1.1349(2) 0.05121(8)
O3A O -0.1054(3) 0.8651(2) -0.05121(8)
O4A O 0.1519(3) 0.8642(2) -0.11215(8)
O6_2 O 0.4057(3) 1.1428(3) -0.06165(9)
O6A O 0.5943(3) 0.8572(3) 0.06165(9)
Na1A Na -0.23554(16) 0.62577(12) 0.00275(4)
Na1A_2 Na 0.76446(16) 0.62577(12) 0.00275(4)
Na2A Na 0.75763(17) 0.12096(13) -0.00701(5)
Na2_2 Na 0.24237(17) -0.12096(13) 0.00701(5)
Na2A_2 Na -0.24237(17) 0.12096(13) -0.00701(5)
H21_2 H 0.350(6) 1.058(4) -0.0833(14)
H21A H 0.650(6) 0.942(4) 0.0833(14)
H22_2 H 0.452(4) 1.201(3) -0.0878(11)
H22A H 0.548(4) 0.799(3) 0.0878(11)
H23A H 0.356(6) 0.674(4) -0.0826(14)
H24A H 0.463(6) 0.534(4) -0.0850(13)
loop_
_geom_bond_atom_site_label_1
_geom_bond_atom_site_label_2
_geom_bond_site_symmetry_1
_geom_bond_site_symmetry_2
O1 C4 1_555 1_555
O2 Na1 1_555 1_555
O3 C6 1_555 1_555
O4 C6 1_555 1_555
O5 C4 1_555 1_555
C1 C3 1_555 1_555
C2 C5 1_555 1_555
C3 C7 1_555 1_555
C4 C10 1_555 1_555
C5 C8 1_555 1_555
C6 C15 1_555 1_555
C7 H1 1_555 1_555
H2 C7 1_555 1_555
C8 N1 1_555 1_555
C9 C1 1_555 1_555
C10 C7 1_555 1_555
H3 C10 1_555 1_555
H4 C10 1_555 1_555
N1 H5 1_555 1_555
C11 C3 1_555 1_555
H6 C11 1_555 1_555
C12 C5 1_555 1_555
H7 C12 1_555 1_555
C13 H8 1_555 1_555
N2 C9 1_555 1_555
H9 N2 1_555 1_555
C14 C1 1_555 1_555
H10 C14 1_555 1_555
C15 H11 1_555 1_555
H12 C15 1_555 1_555
C16 C2 1_555 1_555
H13 C16 1_555 1_555
C17 C9 1_555 1_555
H14 C17 1_555 1_555
C18 C8 1_555 1_555
H15 C18 1_555 1_555
C19 C2 1_555 1_555
H16 C19 1_555 1_555
H17 C19 1_555 1_555
C20 C13 1_555 1_555
H18 C20 1_555 1_555
C21 C12 1_555 1_555
H19 C21 1_555 1_555
C22 C18 1_555 1_555
H20 C22 1_555 1_555
O6 Na1 1_555 1_555
Na1 O1 1_555 1_555
Na2 O1 1_555 1_555
H21 O6 1_555 1_555
H22 O6 1_555 1_555
H23 O2 1_555 1_555
H24 O2 1_555 1_555
O1A Na1 1_555 1_555
O2A Na1 1_555 1_555
O3_2 Na2 1_555 1_555
O3A Na2 1_555 1_555
O4A Na2 1_555 1_555
O6_2 Na2 1_555 1_555
O6A Na2 1_555 1_555
Na1A O1 1_555 1_555
Na1A_2 O2 1_555 1_555
Na2A O2 1_555 1_555
Na2_2 O3 1_555 1_555
Na2A_2 O3 1_555 1_555
H21_2 O6_2 1_555 1_555
H21A O6A 1_555 1_555
H22_2 O6_2 1_555 1_555
H22A O6A 1_555 1_555
H23A O2A 1_555 1_555
H24A O2A 1_555 1_555
O3 Na1 1_555 1_555
O4 Na2A_2 1_555 1_555
N1 C16 1_555 1_555
C11 N2 1_555 1_555
C13 C17 1_555 1_555
C14 C20 1_555 1_555
C15 C19 1_555 1_555
C21 C22 1_555 1_555
O6 Na2A 1_555 1_555
O6 Na2_2 1_555 1_555
Na2 O2A 1_555 1_555
O1A Na1A 1_555 1_555
O1A Na2A_2 1_555 1_555
O2A Na1A_2 1_555 1_555
O3A Na1A 1_555 1_555
O6A Na1A_2 1_555 1_555

#END
