
#######################################################################
#
#                 Cambridge Crystallographic Data Centre
#                                CCDC 
#
#######################################################################
#
# If this CIF has been generated from an entry in the Cambridge 
# Structural Database, then it will include bibliographic, chemical, 
# crystal, experimental, refinement or atomic coordinate data resulting 
# from the CCDC's data processing and validation procedures.
#
#######################################################################

data_RIZNIY
_symmetry_cell_setting           monoclinic
_symmetry_space_group_name_H-M   'C 2/c'
_symmetry_Int_Tables_number      15
_space_group_name_Hall           '-C 2yn'
loop_
_symmetry_equiv_pos_site_id
_symmetry_equiv_pos_as_xyz
1 x,y,z
2 1/2+x,1/2+y,z
3 -x,y,1/2-z
4 1/2-x,1/2+y,1/2-z
5 -x,-y,-z
6 1/2-x,1/2-y,-z
7 x,-y,1/2+z
8 1/2+x,1/2-y,1/2+z
_cell_length_a                   19.0999(18)
_cell_length_b                   22.8762(18)
_cell_length_c                   13.3876(10)
_cell_angle_alpha                90
_cell_angle_beta                 112.928(2)
_cell_angle_gamma                90
_cell_volume                     5387.35
loop_
_atom_site_label
_atom_site_type_symbol
_atom_site_fract_x
_atom_site_fract_y
_atom_site_fract_z
Cu1 Cu 0.49754(4) 0.76429(3) 0.55779(5)
Cu2 Cu 0.5000 0.86772(4) 0.7500
N1 N 0.4692(3) 0.67879(19) 0.5462(4)
N2 N 0.4075(3) 0.7677(2) 0.4167(4)
N3 N 0.5744(2) 0.93385(18) 0.8026(3)
O1 O 0.5129(2) 0.84840(15) 0.5659(3)
O2 O 0.6216(2) 0.84811(19) 0.5410(4)
O3 O 0.5810(2) 0.74775(16) 0.6939(3)
O4 O 0.5790(2) 0.81081(16) 0.8200(3)
C1 C 0.5029(5) 0.6355(3) 0.6129(6)
H1 H 0.5421 0.6440 0.6791
C2 C 0.4809(6) 0.5771(3) 0.5864(10)
H2 H 0.5061 0.5473 0.6343
C3 C 0.4241(6) 0.5642(4) 0.4927(10)
H3 H 0.4087 0.5256 0.4761
C4 C 0.3872(5) 0.6093(3) 0.4189(8)
C5 C 0.3251(6) 0.6013(5) 0.3147(10)
H4 H 0.3065 0.5639 0.2930
C6 C 0.2942(6) 0.6458(5) 0.2498(8)
H5 H 0.2552 0.6388 0.1829
C7 C 0.3189(4) 0.7044(4) 0.2793(6)
C8 C 0.2889(5) 0.7543(5) 0.2165(6)
H6 H 0.2496 0.7507 0.1485
C9 C 0.3165(4) 0.8068(4) 0.2540(6)
H7 H 0.2958 0.8397 0.2122
C10 C 0.3753(4) 0.8134(3) 0.3542(5)
H8 H 0.3929 0.8507 0.3785
C11 C 0.3783(4) 0.7136(3) 0.3805(5)
C12 C 0.4122(4) 0.6659(3) 0.4505(5)
C13 C 0.6487(3) 0.9320(3) 0.8570(4)
H9 H 0.6729 0.8959 0.8741
C14 C 0.6918(4) 0.9832(3) 0.8895(5)
H10 H 0.7441 0.9808 0.9275
C15 C 0.6579(4) 1.0359(3) 0.8661(5)
H11 H 0.6866 1.0697 0.8890
C16 C 0.5802(4) 1.0396(2) 0.8078(4)
C17 C 0.5379(4) 1.0930(2) 0.7779(5)
H12 H 0.5634 1.1285 0.7975
C18 C 0.5399(3) 0.9873(2) 0.7786(4)
C19 C 0.5680(3) 0.8733(2) 0.5526(4)
C20 C 0.5658(3) 0.9385(2) 0.5460(4)
H13 H 0.6116 0.9587 0.5693
C21 C 0.5019(3) 0.9688(2) 0.5088(4)
H14 H 0.4565 0.9486 0.4930
C22 C 0.6055(3) 0.7684(2) 0.7863(4)
C23 C 0.6744(3) 0.7401(2) 0.8667(4)
H15 H 0.6891 0.7041 0.8493
C24 C 0.7157(3) 0.7633(2) 0.9612(4)
H16 H 0.7001 0.7988 0.9794
O5 O 0.5794(3) 0.7412(2) 0.4626(4)
H17 H 0.614(2) 0.7153(19) 0.485(2)
H18 H 0.563(2) 0.740(2) 0.3939(6)
Cu1D Cu 0.50246(4) 1.23571(3) 0.44221(5)
Cu1E Cu 1.00246(4) 0.73571(3) 1.44221(5)
Cu2F Cu 0.5000 1.13228(4) 0.2500
Cu2G Cu 1.0000 0.63228(4) 1.2500
N1D N 0.5308(3) 1.32121(19) 0.4538(4)
N2D N 0.5925(3) 1.2323(2) 0.5833(4)
N3B N 0.4256(2) 0.93385(18) 0.6974(3)
O1D O 0.4871(2) 1.15160(15) 0.4341(3)
O1B O 0.4871(2) 0.84840(15) 0.9341(3)
O2D O 0.3784(2) 1.15189(19) 0.4590(4)
O3E O 0.9190(2) 0.75225(16) 1.3061(3)
O3D O 0.4190(2) 1.25225(16) 0.3061(3)
O4E O 0.9210(2) 0.68919(16) 1.1800(3)
O4B O 0.4210(2) 0.81081(16) 0.6800(3)
C1D C 0.4971(5) 1.3645(3) 0.3871(6)
H1D H 0.4579 1.3560 0.3209
C2D C 0.5191(6) 1.4229(3) 0.4136(10)
H2D H 0.4939 1.4527 0.3657
C3D C 0.5759(6) 1.4358(4) 0.5073(10)
H3D H 0.5913 1.4744 0.5239
C4D C 0.6128(5) 1.3907(3) 0.5811(8)
C5D C 0.6749(6) 1.3987(5) 0.6853(10)
H4D H 0.6935 1.4361 0.7070
C6D C 0.7058(6) 1.3542(5) 0.7502(8)
H5D H 0.7448 1.3612 0.8171
C7D C 0.6811(4) 1.2956(4) 0.7207(6)
C8D C 0.7111(5) 1.2457(5) 0.7835(6)
H6D H 0.7504 1.2493 0.8515
C9D C 0.6835(4) 1.1932(4) 0.7460(6)
H7D H 0.7042 1.1603 0.7878
C10D C 0.6247(4) 1.1866(3) 0.6458(5)
H8D H 0.6071 1.1493 0.6215
C11D C 0.6217(4) 1.2864(3) 0.6195(5)
C12D C 0.5878(4) 1.3341(3) 0.5495(5)
C13B C 0.3513(3) 0.9320(3) 0.6430(4)
H9B H 0.3271 0.8959 0.6259
C14B C 0.3082(4) 0.9832(3) 0.6105(5)
H10B H 0.2559 0.9808 0.5725
C15B C 0.3421(4) 1.0359(3) 0.6339(5)
H11B H 0.3134 1.0697 0.6110
C16B C 0.4198(4) 1.0396(2) 0.6922(4)
C17B C 0.4621(4) 1.0930(2) 0.7221(5)
H12B H 0.4366 1.1285 0.7025
C18B C 0.4601(3) 0.9873(2) 0.7214(4)
C19D C 0.4320(3) 1.1267(2) 0.4474(4)
C20D C 0.4342(3) 1.0615(2) 0.4540(4)
H13D H 0.3884 1.0413 0.4307
C21D C 0.4981(3) 1.0312(2) 0.4912(4)
H14D H 0.5435 1.0514 0.5070
C22E C 0.8945(3) 0.7316(2) 1.2137(4)
C23E C 0.8256(3) 0.7599(2) 1.1333(4)
H15E H 0.8109 0.7959 1.1507
C24E C 0.7843(3) 0.7367(2) 1.0388(4)
H16E H 0.7999 0.7012 1.0206
O5D O 0.4206(3) 1.2588(2) 0.5374(4)
H17D H 0.386(2) 1.2847(19) 0.515(2)
H18D H 0.437(2) 1.260(2) 0.6061(6)
O6 O 0.5000 0.7045(4) 0.2500
H19 H 0.4673(4) 0.6820(5) 0.2582(9)
H19B H 0.5327(4) 0.6820(5) 0.2418(9)
O7 O 0.5684(7) 0.5648(5) 0.3483(9)
H20 H 0.573(4) 0.5988(11) 0.326(6)
H21 H 0.603(3) 0.544(2) 0.339(6)
O8 O 0.6584(4) 0.6362(3) 0.5253(6)
H22 H 0.6162(19) 0.622(2) 0.483(3)
H23 H 0.672(3) 0.616(2) 0.583(2)
Cl1 Cl 0.71507(13) 0.55798(8) 0.82362(15)
O9 O 0.6728(9) 0.5077(5) 0.8520(11)
O10 O 0.7203(9) 0.5982(5) 0.9096(10)
O11 O 0.6629(7) 0.5785(6) 0.7253(9)
O12 O 0.7812(7) 0.5362(7) 0.8263(11)
H24? H 0.5266(19) 0.552(3) 0.302(5)
O13? O 0.7126(10) 0.5008(5) 0.8606(12)
O14? O 0.6852(9) 0.5995(6) 0.8678(12)
O15? O 0.7984(6) 0.5698(7) 0.8538(12)
O16? O 0.6855(9) 0.5564(7) 0.7062(8)
O17? O 0.7078(16) 0.5783(12) 0.7159(13)
O18? O 0.6408(9) 0.5512(13) 0.820(2)
O19? O 0.7548(14) 0.6025(9) 0.8976(18)
O20? O 0.7551(15) 0.5053(8) 0.846(2)
loop_
_geom_bond_atom_site_label_1
_geom_bond_atom_site_label_2
_geom_bond_site_symmetry_1
_geom_bond_site_symmetry_2
Cu1 N1 1_555 1_555
Cu2 N3 1_555 1_555
N1 C1 1_555 1_555
N2 Cu1 1_555 1_555
N3 C13 1_555 1_555
O1 Cu1 1_555 1_555
O2 C19 1_555 1_555
O3 Cu1 1_555 1_555
O4 Cu2 1_555 1_555
C1 H1 1_555 1_555
C2 C1 1_555 1_555
H2 C2 1_555 1_555
C3 C2 1_555 1_555
H3 C3 1_555 1_555
C4 C3 1_555 1_555
C5 C4 1_555 1_555
H4 C5 1_555 1_555
C6 C5 1_555 1_555
H5 C6 1_555 1_555
C7 C6 1_555 1_555
C8 C7 1_555 1_555
H6 C8 1_555 1_555
C9 C8 1_555 1_555
H7 C9 1_555 1_555
C10 N2 1_555 1_555
H8 C10 1_555 1_555
C11 N2 1_555 1_555
C12 N1 1_555 1_555
C13 H9 1_555 1_555
C14 C13 1_555 1_555
H10 C14 1_555 1_555
C15 C14 1_555 1_555
H11 C15 1_555 1_555
C16 C15 1_555 1_555
C17 C16 1_555 1_555
H12 C17 1_555 1_555
C18 N3 1_555 1_555
C19 O1 1_555 1_555
C20 C19 1_555 1_555
H13 C20 1_555 1_555
C21 C20 1_555 1_555
H14 C21 1_555 1_555
C22 O3 1_555 1_555
C23 C22 1_555 1_555
H15 C23 1_555 1_555
C24 C23 1_555 1_555
H16 C24 1_555 1_555
O5 Cu1 1_555 1_555
H17 O5 1_555 1_555
H18 O5 1_555 1_555
O6 H19 1_555 1_555
O7 H20 1_555 1_555
H21 O7 1_555 1_555
O8 H22 1_555 1_555
H23 O8 1_555 1_555
Cl1 O9 1_555 1_555
O10 Cl1 1_555 1_555
O11 Cl1 1_555 1_555
O12 Cl1 1_555 1_555
Cu1D N1D 1_555 1_555
Cu1E O3E 1_555 1_555
Cu2F O1D 1_555 1_555
Cu2G O4E 1_555 1_555
N1D C1D 1_555 1_555
N2D Cu1D 1_555 1_555
N3B Cu2 1_555 1_555
O1D Cu1D 1_555 1_555
O1B Cu2 1_555 1_555
O2D C19D 1_555 1_555
O3E C22E 1_555 1_555
O3D Cu1D 1_555 1_555
O4E C22E 1_555 1_555
O4B Cu2 1_555 1_555
C1D H1D 1_555 1_555
C2D C1D 1_555 1_555
H2D C2D 1_555 1_555
C3D C2D 1_555 1_555
H3D C3D 1_555 1_555
C4D C3D 1_555 1_555
C5D C4D 1_555 1_555
H4D C5D 1_555 1_555
C6D C5D 1_555 1_555
H5D C6D 1_555 1_555
C7D C6D 1_555 1_555
C8D C7D 1_555 1_555
H6D C8D 1_555 1_555
C9D C8D 1_555 1_555
H7D C9D 1_555 1_555
C10D N2D 1_555 1_555
H8D C10D 1_555 1_555
C11D N2D 1_555 1_555
C12D N1D 1_555 1_555
C13B N3B 1_555 1_555
H9B C13B 1_555 1_555
C14B C13B 1_555 1_555
H10B C14B 1_555 1_555
C15B C14B 1_555 1_555
H11B C15B 1_555 1_555
C16B C15B 1_555 1_555
C17B C17 1_555 1_555
H12B C17B 1_555 1_555
C18B C18 1_555 1_555
C19D O1D 1_555 1_555
C20D C19D 1_555 1_555
H13D C20D 1_555 1_555
C21D C21 1_555 1_555
H14D C21D 1_555 1_555
C22E C23E 1_555 1_555
C23E H15E 1_555 1_555
C24E C24 1_555 1_555
H16E C24E 1_555 1_555
O5D Cu1D 1_555 1_555
H17D O5D 1_555 1_555
H18D O5D 1_555 1_555
H19B O6 1_555 1_555
Cu2 O1 1_555 1_555
O4 C22 1_555 1_555
C4 C12 1_555 1_555
C7 C11 1_555 1_555
C9 C10 1_555 1_555
C11 C12 1_555 1_555
C16 C18 1_555 1_555
N3B C18B 1_555 1_555
C4D C12D 1_555 1_555
C7D C11D 1_555 1_555
C9D C10D 1_555 1_555
C11D C12D 1_555 1_555
C16B C17B 1_555 1_555
C16B C18B 1_555 1_555
C20D C21D 1_555 1_555
C23E C24E 1_555 1_555

#END
