
#######################################################################
#
#                 Cambridge Crystallographic Data Centre
#                                CCDC 
#
#######################################################################
#
# If this CIF has been generated from an entry in the Cambridge 
# Structural Database, then it will include bibliographic, chemical, 
# crystal, experimental, refinement or atomic coordinate data resulting 
# from the CCDC's data processing and validation procedures.
#
#######################################################################

data_RIZQIA
_symmetry_cell_setting           monoclinic
_symmetry_space_group_name_H-M   'P 21/n'
_symmetry_Int_Tables_number      14
_space_group_name_Hall           '-P 2yn'
loop_
_symmetry_equiv_pos_site_id
_symmetry_equiv_pos_as_xyz
1 x,y,z
2 1/2-x,1/2+y,1/2-z
3 -x,-y,-z
4 1/2+x,1/2-y,1/2+z
_cell_length_a                   3.7770(10)
_cell_length_b                   14.819(3)
_cell_length_c                   10.756(2)
_cell_angle_alpha                90
_cell_angle_beta                 93.180(10)
_cell_angle_gamma                90
_cell_volume                     601.101
loop_
_atom_site_label
_atom_site_type_symbol
_atom_site_fract_x
_atom_site_fract_y
_atom_site_fract_z
Cu1 Cu -0.5000 0.5000 0.0000
K1 K -0.21354(17) 0.36682(4) 0.51380(6)
O1 O -0.5024(6) 0.46968(14) 0.17505(17)
O2 O -0.2870(6) 0.52127(14) 0.35835(18)
O3 O -0.1598(6) 0.59098(14) 0.05378(17)
O4 O 0.0618(6) 0.65354(14) 0.22959(19)
O5 O -0.8071(7) 0.32989(16) 0.3166(2)
O6 O -0.6982(7) 0.23305(16) 0.5735(2)
C1 C -0.3177(7) 0.52426(18) 0.2445(3)
C2 C -0.1208(7) 0.59728(18) 0.1725(2)
H1 H -0.745(10) 0.3728(10) 0.267(2)
H2 H -0.734(9) 0.2758(9) 0.293(2)
H3 H -0.685(9) 0.217(2) 0.6495(12)
H4 H -0.606(11) 0.200(3) 0.5189(14)
O1B O -0.4976(6) 0.53032(14) -0.17505(17)
O2B O -0.7130(6) 0.47873(14) -0.35835(18)
O3B O -0.8402(6) 0.40902(14) -0.05378(17)
O4B O -1.0618(6) 0.34646(14) -0.22959(19)
C1B C -0.6823(7) 0.47574(18) -0.2445(3)
C2B C -0.8792(7) 0.40272(18) -0.1725(2)
K1B K -0.78646(17) 0.63318(4) -0.51380(6)
O5_2 O 0.1929(7) 0.32989(16) 0.3166(2)
H1_2 H 0.255(10) 0.3728(10) 0.267(2)
H2_2 H 0.266(9) 0.2758(9) 0.293(2)
O6_2 O 0.3018(7) 0.23305(16) 0.5735(2)
H3_2 H 0.315(9) 0.217(2) 0.6495(12)
H4_2 H 0.394(11) 0.200(3) 0.5189(14)
O2B_2 O -0.7130(6) 0.47873(14) 0.64165(18)
O2B_3 O 0.2870(6) 0.47873(14) 0.64165(18)
O4B_2 O -0.0618(6) 0.34646(14) 0.77041(19)
K1B_2 K -0.78646(17) 0.63318(4) 0.48620(6)
K1B_3 K 0.21354(17) 0.63318(4) 0.48620(6)
K1_2 K -1.21354(17) 0.36682(4) 0.51380(6)
K1_3 K -1.21354(17) 0.36682(4) -0.48620(6)
K1_4 K -0.21354(17) 0.36682(4) -0.48620(6)
K1B_4 K -1.78646(17) 0.63318(4) -0.51380(6)
K1B_5 K 0.21354(17) 0.63318(4) -0.51380(6)
O2_2 O -1.2870(6) 0.52127(14) -0.64165(18)
O2_3 O -0.2870(6) 0.52127(14) -0.64165(18)
O4_2 O -0.9382(6) 0.65354(14) -0.77041(19)
O5B O -1.1929(7) 0.67011(16) -0.3166(2)
O5B_2 O -0.1929(7) 0.67011(16) -0.3166(2)
O6B O -1.3018(7) 0.76695(16) -0.5735(2)
O6B_2 O -0.3018(7) 0.76695(16) -0.5735(2)
K1_5 K 0.78646(17) 0.36682(4) 0.51380(6)
H1B H -1.255(10) 0.6272(10) -0.267(2)
H2B H -1.266(9) 0.7242(9) -0.293(2)
H1B_2 H -0.255(10) 0.6272(10) -0.267(2)
H2B_2 H -0.266(9) 0.7242(9) -0.293(2)
H3B H -1.315(9) 0.783(2) -0.6495(12)
H4B H -1.394(11) 0.800(3) -0.5189(14)
H3B_2 H -0.315(9) 0.783(2) -0.6495(12)
H4B_2 H -0.394(11) 0.800(3) -0.5189(14)
loop_
_geom_bond_atom_site_label_1
_geom_bond_atom_site_label_2
_geom_bond_site_symmetry_1
_geom_bond_site_symmetry_2
Cu1 O1 1_555 1_555
K1 O2 1_555 1_555
O1 C1 1_555 1_555
O2 C1 1_555 1_555
O3 Cu1 1_555 1_555
O4 C2 1_555 1_555
O5 K1 1_555 1_555
O6 K1 1_555 1_555
C1 C2 1_555 1_555
C2 O3 1_555 1_555
H1 O5 1_555 1_555
H2 O5 1_555 1_555
H3 O6 1_555 1_555
H4 O6 1_555 1_555
O1B Cu1 1_555 1_555
O2B C1B 1_555 1_555
O3B Cu1 1_555 1_555
O4B C2B 1_555 1_555
C1B O1B 1_555 1_555
C2B O3B 1_555 1_555
K1B O2B 1_555 1_555
O5_2 K1 1_555 1_555
H1_2 O5_2 1_555 1_555
H2_2 O5_2 1_555 1_555
O6_2 K1 1_555 1_555
H3_2 O6_2 1_555 1_555
H4_2 O6_2 1_555 1_555
O2B_2 K1 1_555 1_555
O2B_3 K1 1_555 1_555
O4B_2 K1 1_555 1_555
K1B_2 O2 1_555 1_555
K1B_3 O2 1_555 1_555
K1_2 O5 1_555 1_555
K1_3 O2B 1_555 1_555
K1_4 O2B 1_555 1_555
K1B_4 O2_2 1_555 1_555
K1B_5 O2_3 1_555 1_555
O2_2 K1B 1_555 1_555
O2_3 K1B 1_555 1_555
O4_2 K1B 1_555 1_555
O5B K1B 1_555 1_555
O5B_2 K1B 1_555 1_555
O6B K1B 1_555 1_555
O6B_2 K1B 1_555 1_555
K1_5 O5_2 1_555 1_555
H1B O5B 1_555 1_555
H2B O5B 1_555 1_555
H1B_2 O5B_2 1_555 1_555
H2B_2 O5B_2 1_555 1_555
H3B O6B 1_555 1_555
H4B O6B 1_555 1_555
H3B_2 O6B_2 1_555 1_555
H4B_2 O6B_2 1_555 1_555
O4 K1B_3 1_555 1_555
O6 K1_2 1_555 1_555
O4B K1_3 1_555 1_555
C1B C2B 1_555 1_555
O6_2 K1_5 1_555 1_555
O2B_2 K1B_2 1_555 1_555
O2B_2 K1_2 1_555 1_555
O2B_3 K1B_3 1_555 1_555
O2B_3 K1_5 1_555 1_555
K1_3 O2_2 1_555 1_555
K1_4 O2_3 1_555 1_555
K1B_4 O5B 1_555 1_555
K1B_4 O6B 1_555 1_555
K1B_5 O5B_2 1_555 1_555
K1B_5 O6B_2 1_555 1_555

#END
