
#######################################################################
#
#                 Cambridge Crystallographic Data Centre
#                                CCDC 
#
#######################################################################
#
# If this CIF has been generated from an entry in the Cambridge 
# Structural Database, then it will include bibliographic, chemical, 
# crystal, experimental, refinement or atomic coordinate data resulting 
# from the CCDC's data processing and validation procedures.
#
#######################################################################

data_RIZWIH
_symmetry_cell_setting           triclinic
_symmetry_space_group_name_H-M   'P -1'
_symmetry_Int_Tables_number      2
_space_group_name_Hall           '-P 1'
loop_
_symmetry_equiv_pos_site_id
_symmetry_equiv_pos_as_xyz
1 x,y,z
2 -x,-y,-z
_cell_length_a                   10.474(2)
_cell_length_b                   15.215(3)
_cell_length_c                   17.051(4)
_cell_angle_alpha                109.691(10)
_cell_angle_beta                 98.453(10)
_cell_angle_gamma                90.388(12)
_cell_volume                     2525.96
loop_
_atom_site_label
_atom_site_type_symbol
_atom_site_fract_x
_atom_site_fract_y
_atom_site_fract_z
Ag1 Ag 0.18190(4) 0.74563(3) 1.22273(2)
Fe1 Fe 0.27047(6) 0.38866(5) 0.62991(4)
O1 O 0.3828(3) 0.4122(2) 0.7398(2)
O2 O 0.1425(3) 0.4626(2) 0.6952(2)
O3 O 0.3595(3) 0.4986(2) 1.6180(2)
O4 O 0.1590(3) 0.3802(2) 1.5219(2)
O5 O 0.3962(3) 1.3029(2) 1.5695(2)
O6 O 0.1788(3) 1.2719(2) 1.6258(2)
O7 O -0.0402(4) 0.6605(3) 1.1711(3)
O8 O -0.2333(4) 0.7012(3) 1.1411(3)
O9 O -0.0825(6) 0.8064(3) 1.2164(3)
N1 N 0.2232(4) 0.6683(3) 1.0926(2)
N2 N 0.2185(4) 0.6577(3) 1.3149(3)
N3 N 0.2132(4) 0.8902(3) 1.3202(3)
N4 N -0.1193(5) 0.7234(4) 1.1765(3)
C1 C 0.4729(5) 0.4581(4) 0.8830(3)
H1 H 0.4487 0.4123 0.9079
H2 H 0.4871 0.5202 0.9266
H3 H 0.5526 0.4406 0.8592
C2 C 0.3666(5) 0.4598(3) 0.8145(3)
C3 C 0.2559(5) 0.5100(4) 0.8352(3)
C4 C 0.1477(5) 0.5044(3) 0.7742(3)
C5 C 0.0267(5) 0.5501(4) 0.8005(3)
H4 H 0.0390 0.6178 0.8142
H5 H 0.0080 0.5369 0.8502
H6 H -0.0458 0.5253 0.7542
C6 C 0.1814(5) 0.5779(4) 1.0573(3)
H7 H 0.1422 0.5493 1.0902
C7 C 0.1925(5) 0.5251(4) 0.9761(3)
H8 H 0.1609 0.4615 0.9540
C8 C 0.2501(4) 0.5640(4) 0.9254(3)
C9 C 0.2954(6) 0.6564(4) 0.9627(3)
H9 H 0.3369 0.6862 0.9317
C10 C 0.2809(6) 0.7056(4) 1.0447(3)
H10 H 0.3132 0.7690 1.0686
C11 C 0.4281(5) 0.6216(4) 1.5767(3)
H11 H 0.4874 0.6344 1.6299
H12 H 0.3761 0.6756 1.5798
H13 H 0.4780 0.6100 1.5303
C12 C 0.3409(5) 0.5373(4) 1.5617(3)
C13 C 0.2458(5) 0.5056(4) 1.4892(3)
C14 C 0.1590(5) 0.4282(4) 1.4733(3)
C15 C 0.0593(5) 0.3959(4) 1.3954(3)
H14 H 0.0069 0.3424 1.3957
H15 H 0.1023 0.3771 1.3454
H16 H 0.0034 0.4469 1.3940
C16 C 0.1293(5) 0.6618(4) 1.3642(3)
H17 H 0.0578 0.6989 1.3597
C17 C 0.1352(5) 0.6148(4) 1.4218(3)
H18 H 0.0709 0.6221 1.4570
C18 C 0.2353(5) 0.5575(4) 1.4273(3)
C19 C 0.3268(5) 0.5515(4) 1.3750(3)
H19 H 0.3972 0.5127 1.3763
C20 C 0.3152(5) 0.6021(4) 1.3207(3)
H20 H 0.3794 0.5971 1.2856
C21 C 0.4737(5) 1.1811(4) 1.4631(3)
H21 H 0.4490 1.1904 1.4089
H22 H 0.4797 1.1141 1.4536
H23 H 0.5577 1.2140 1.4907
C22 C 0.3726(5) 1.2193(4) 1.5189(3)
C23 C 0.2643(5) 1.1611(3) 1.5134(3)
C24 C 0.1751(5) 1.1903(4) 1.5713(3)
C25 C 0.0704(5) 1.1222(4) 1.5721(4)
H24 H 0.0452 1.1412 1.6283
H25 H 0.1028 1.0594 1.5582
H26 H -0.0048 1.1219 1.5304
C26 C 0.1641(6) 0.9653(4) 1.3063(3)
H27 H 0.1173 0.9575 1.2520
C27 C 0.1775(5) 1.0544(4) 1.3668(3)
H28 H 0.1419 1.1060 1.3538
C28 C 0.2446(5) 1.0665(4) 1.4473(3)
C29 C 0.2937(5) 0.9873(4) 1.4615(3)
H29 H 0.3393 0.9922 1.5154
C30 C 0.2761(5) 0.9017(4) 1.3972(3)
H30 H 0.3103 0.8487 1.4083
Fe1_2 Fe 0.27047(6) 0.38866(5) 1.62991(4)
Fe1_3 Fe 0.27047(6) 1.38866(5) 1.62991(4)
O3_2 O 0.3595(3) 0.4986(2) 0.6180(2)
O4_2 O 0.1590(3) 0.3802(2) 0.5219(2)
O5_2 O 0.3962(3) 0.3029(2) 0.5695(2)
O6_2 O 0.1788(3) 0.2719(2) 0.6258(2)
Cl1 Cl 0.75226(17) 0.28431(13) 0.25301(12)
Cl2 Cl 0.82235(17) 0.17473(13) 0.38308(11)
C31 C 0.7820(6) 0.1671(5) 0.2182(4)
C32 C 0.8132(6) 0.1201(5) 0.2752(4)
C33 C 0.8344(7) 0.0244(5) 0.2426(5)
H31 H 0.8538 -0.0091 0.2804
C34 C 0.8281(9) -0.0208(6) 0.1597(5)
H32 H 0.8429 -0.0856 0.1394
C35 C 0.8004(8) 0.0261(6) 0.1044(5)
H33 H 0.7975 -0.0060 0.0457
C36 C 0.7763(7) 0.1203(6) 0.1331(5)
H34 H 0.7560 0.1524 0.0942
Cl3 Cl 0.4081(2) 0.35997(16) 0.18723(13)
Cl4 Cl 0.2704(2) 0.23416(17) 0.26729(14)
C37 C 0.2672(7) 0.2974(6) 0.1357(5)
C38 C 0.2050(6) 0.2398(5) 0.1677(4)
C39 C 0.0947(8) 0.1878(6) 0.1258(5)
H35 H 0.0560 0.1484 0.1498
C40 C 0.0387(8) 0.1913(7) 0.0498(5)
H36 H -0.0385 0.1544 0.0208
C41 C 0.0953(9) 0.2494(8) 0.0146(5)
H37 H 0.0557 0.2543 -0.0375
C42 C 0.2124(8) 0.3007(6) 0.0576(5)
H38 H 0.2542 0.3379 0.0329
N5 N 0.7488(11) 0.0476(7) 0.8962(6)
C43 C 0.6529(12) 0.0023(8) 0.8658(7)
C44 C 0.5338(12) -0.0522(12) 0.8323(16)
N6 N 0.4401(8) 0.0309(6) 0.6725(5)
C45 C 0.4412(6) 0.1137(5) 0.7022(3)
C46 C 0.4583(7) 0.2036(6) 0.7395(5)
H39 H 0.4026 0.2241 0.7830
H40 H 0.4362 0.2348 0.6980
H41 H 0.5489 0.2199 0.7658
loop_
_geom_bond_atom_site_label_1
_geom_bond_atom_site_label_2
_geom_bond_site_symmetry_1
_geom_bond_site_symmetry_2
Ag1 O7 1_555 1_555
Fe1 O1 1_555 1_555
Cl1 C31 1_555 1_555
Cl2 C32 1_555 1_555
Cl3 C37 1_555 1_555
Cl4 C38 1_555 1_555
O1 C2 1_555 1_555
O2 Fe1 1_555 1_555
O3 C12 1_555 1_555
O4 C14 1_555 1_555
O5 C22 1_555 1_555
O6 C24 1_555 1_555
O7 N4 1_555 1_555
O8 N4 1_555 1_555
O9 N4 1_555 1_555
N1 Ag1 1_555 1_555
N2 Ag1 1_555 1_555
N3 Ag1 1_555 1_555
C1 H1 1_555 1_555
H2 C1 1_555 1_555
H3 C1 1_555 1_555
C2 C1 1_555 1_555
C3 C2 1_555 1_555
C4 O2 1_555 1_555
C5 C4 1_555 1_555
H4 C5 1_555 1_555
H5 C5 1_555 1_555
H6 C5 1_555 1_555
C6 N1 1_555 1_555
H7 C6 1_555 1_555
C7 C6 1_555 1_555
H8 C7 1_555 1_555
C8 C3 1_555 1_555
C9 C8 1_555 1_555
H9 C9 1_555 1_555
C10 N1 1_555 1_555
H10 C10 1_555 1_555
C11 H11 1_555 1_555
H12 C11 1_555 1_555
H13 C11 1_555 1_555
C12 C11 1_555 1_555
C13 C12 1_555 1_555
C14 C13 1_555 1_555
C15 C14 1_555 1_555
H14 C15 1_555 1_555
H15 C15 1_555 1_555
H16 C15 1_555 1_555
C16 N2 1_555 1_555
H17 C16 1_555 1_555
C17 C16 1_555 1_555
H18 C17 1_555 1_555
C18 C13 1_555 1_555
C19 C18 1_555 1_555
H19 C19 1_555 1_555
C20 N2 1_555 1_555
H20 C20 1_555 1_555
C21 H21 1_555 1_555
H22 C21 1_555 1_555
H23 C21 1_555 1_555
C22 C21 1_555 1_555
C23 C22 1_555 1_555
C24 C23 1_555 1_555
C25 C24 1_555 1_555
H24 C25 1_555 1_555
H25 C25 1_555 1_555
H26 C25 1_555 1_555
C26 N3 1_555 1_555
H27 C26 1_555 1_555
C27 C26 1_555 1_555
H28 C27 1_555 1_555
C28 C23 1_555 1_555
C29 C28 1_555 1_555
H29 C29 1_555 1_555
C30 N3 1_555 1_555
H30 C30 1_555 1_555
C31 C32 1_555 1_555
C32 C33 1_555 1_555
C33 H31 1_555 1_555
C34 C33 1_555 1_555
H32 C34 1_555 1_555
C35 C34 1_555 1_555
H33 C35 1_555 1_555
C36 C31 1_555 1_555
H34 C36 1_555 1_555
C37 C38 1_555 1_555
C38 C39 1_555 1_555
C39 H35 1_555 1_555
C40 C39 1_555 1_555
H36 C40 1_555 1_555
C41 C40 1_555 1_555
H37 C41 1_555 1_555
C42 C37 1_555 1_555
H38 C42 1_555 1_555
N5 C43 1_555 1_555
C43 C44 1_555 1_555
N6 C45 1_555 1_555
C45 C46 1_555 1_555
C46 H39 1_555 1_555
H40 C46 1_555 1_555
H41 C46 1_555 1_555
Fe1_2 O3 1_555 1_555
Fe1_3 O5 1_555 1_555
O3_2 Fe1 1_555 1_555
O4_2 Fe1 1_555 1_555
O5_2 Fe1 1_555 1_555
O6_2 Fe1 1_555 1_555
O4 Fe1_2 1_555 1_555
O6 Fe1_3 1_555 1_555
C3 C4 1_555 1_555
C7 C8 1_555 1_555
C9 C10 1_555 1_555
C17 C18 1_555 1_555
C19 C20 1_555 1_555
C27 C28 1_555 1_555
C29 C30 1_555 1_555
C35 C36 1_555 1_555
C41 C42 1_555 1_555

#END
