
#######################################################################
#
#                 Cambridge Crystallographic Data Centre
#                                CCDC 
#
#######################################################################
#
# If this CIF has been generated from an entry in the Cambridge 
# Structural Database, then it will include bibliographic, chemical, 
# crystal, experimental, refinement or atomic coordinate data resulting 
# from the CCDC's data processing and validation procedures.
#
#######################################################################

data_RIZXAA
_symmetry_cell_setting           triclinic
_symmetry_space_group_name_H-M   'P -1'
_symmetry_Int_Tables_number      2
_space_group_name_Hall           '-P 1'
loop_
_symmetry_equiv_pos_site_id
_symmetry_equiv_pos_as_xyz
1 x,y,z
2 -x,-y,-z
_cell_length_a                   7.841(2)
_cell_length_b                   15.528(4)
_cell_length_c                   39.510(12)
_cell_angle_alpha                91.840(12)
_cell_angle_beta                 92.850(11)
_cell_angle_gamma                99.92(2)
_cell_volume                     4728.71
loop_
_atom_site_label
_atom_site_type_symbol
_atom_site_fract_x
_atom_site_fract_y
_atom_site_fract_z
Ag1 Ag 0.95321(14) 0.50099(6) 0.24975(2)
Ag2 Ag 0.50246(8) 1.52567(5) 0.038210(18)
Ag3 Ag 0.00369(8) 0.47462(4) 0.462628(17)
Fe1 Fe 0.92151(15) 0.98520(9) 0.09952(3)
Fe2 Fe 0.58114(15) 0.01495(8) 0.40061(3)
O1 O 0.8731(8) 0.9779(4) 0.14866(15)
O2 O 0.8168(7) 0.8581(4) 0.09746(15)
O3 O 0.6988(7) 1.0152(4) 0.08019(15)
O4 O 0.9974(7) 1.1127(4) 0.10450(15)
O5 O 0.9994(7) 0.9672(4) 0.05278(15)
O6 O 1.1607(7) 0.9627(4) 0.11390(15)
O7 O 0.3425(7) 0.0323(4) 0.38525(15)
O8 O 0.4979(7) 0.0294(4) 0.44702(15)
O9 O 0.6711(7) 0.1449(4) 0.40357(14)
O10 O 0.6617(7) 0.0224(4) 0.35367(14)
O11 O 0.7999(7) -0.0129(4) 0.42222(15)
O12 O 0.5111(7) -0.1126(4) 0.39408(15)
N1 N 0.9274(11) 0.6146(5) 0.2205(2)
N2 N 0.5838(9) 1.4051(5) 0.05070(19)
N3 N 1.4057(9) 0.6457(5) 0.03592(18)
N4 N 0.0940(8) 0.3508(5) 0.46221(18)
N5 N 0.8731(11) 0.3873(5) 0.2802(2)
N6 N 0.9234(8) -0.4014(5) 0.45227(18)
C1 C 0.9154(13) 0.9377(7) 0.2049(2)
H1 H 1.0399 0.9440 0.2108
H2 H 0.8519 0.8917 0.2181
H3 H 0.8765 0.9931 0.2099
C2 C 0.8816(11) 0.9135(7) 0.1678(2)
C3 C 0.8692(11) 0.8263(6) 0.1550(2)
C4 C 0.8285(11) 0.8044(6) 0.1208(2)
C5 C 0.7922(13) 0.7090(6) 0.1092(3)
H4 H 0.7765 0.7042 0.0844
H5 H 0.6865 0.6798 0.1191
H6 H 0.8899 0.6811 0.1166
C6 C 0.8872(13) 0.7565(6) 0.1793(2)
C7 C 0.7446(13) 0.6983(7) 0.1895(3)
H7 H 0.6304 0.7056 0.1826
C8 C 0.7696(14) 0.6298(7) 0.2099(3)
H8 H 0.6703 0.5916 0.2168
C9 C 1.0618(13) 0.6703(7) 0.2110(3)
H9 H 1.1747 0.6619 0.2185
C10 C 1.0474(14) 0.7390(7) 0.1912(3)
H10 H 1.1499 0.7761 0.1852
C11 C 0.4880(10) 1.0774(6) 0.0504(2)
H11 H 0.4658 1.0212 0.0375
H12 H 0.4936 1.1251 0.0346
H13 H 0.3942 1.0802 0.0656
C12 C 0.6584(11) 1.0862(7) 0.0709(2)
C13 C 0.7625(11) 1.1690(6) 0.0787(2)
C14 C 0.9293(11) 1.1762(6) 0.0961(2)
C15 C 1.0325(13) 1.2662(6) 0.1056(3)
H14 H 1.0973 1.2644 0.1273
H15 H 0.9532 1.3083 0.1076
H16 H 1.1137 1.2842 0.0880
C16 C 0.6965(11) 1.2481(6) 0.0683(2)
C17 C 0.7912(11) 1.3097(6) 0.0485(2)
H17 H 0.8970 1.2984 0.0401
C18 C 0.7352(11) 1.3872(6) 0.0408(2)
H18 H 0.8064 1.4287 0.0282
C19 C 0.4905(11) 1.3461(6) 0.0692(2)
H19 H 0.3814 1.3571 0.0760
C20 C 0.5416(10) 1.2717(6) 0.0789(2)
H20 H 0.4716 1.2344 0.0933
C21 C 1.0821(12) 0.8887(6) 0.0064(2)
H21 H 0.9807 0.8437 0.0001
H22 H 1.1879 0.8666 0.0012
H23 H 1.0750 0.9411 -0.0064
C22 C 1.0861(11) 0.9113(6) 0.0436(2)
C23 C 1.1982(10) 0.8727(6) 0.0664(2)
C24 C 1.2319(11) 0.9052(6) 0.1000(2)
C25 C 1.3698(11) 0.8715(7) 0.1226(2)
H24 H 1.4855 0.8954 0.1153
H25 H 1.3512 0.8075 0.1205
H26 H 1.3605 0.8902 0.1462
C26 C 1.2733(11) 0.7980(6) 0.0534(2)
C27 C 1.4500(10) 0.7999(7) 0.0481(2)
H27 H 1.5290 0.8538 0.0504
C28 C 1.5085(11) 0.7245(6) 0.0395(2)
H28 H 1.6283 0.7280 0.0359
C29 C 1.2344(12) 0.6428(6) 0.0401(2)
H29 H 1.1585 0.5880 0.0375
C30 C 1.1674(12) 0.7160(6) 0.0477(2)
H30 H 1.0456 0.7113 0.0493
C31 C 0.1266(11) 0.1193(7) 0.3759(2)
H31 H 0.1473 0.1075 0.3521
H32 H 0.1313 0.1822 0.3800
H33 H 0.0121 0.0878 0.3810
C32 C 0.2657(10) 0.0885(6) 0.3986(2)
C33 C 0.2990(10) 0.1233(6) 0.4325(2)
C34 C 0.4098(10) 0.0866(6) 0.4556(2)
C35 C 0.4122(11) 0.1100(6) 0.4923(2)
H34 H 0.4333 0.0601 0.5055
H35 H 0.3003 0.1254 0.4978
H36 H 0.5047 0.1602 0.4980
C36 C 0.2240(10) 0.1991(6) 0.4444(2)
C37 C 0.0494(11) 0.1965(6) 0.4506(2)
H37 H -0.0284 0.1422 0.4489
C38 C -0.0098(11) 0.2706(6) 0.4589(2)
H38 H -0.1295 0.2667 0.4627
C39 C 0.2631(10) 0.3524(6) 0.4570(2)
H39 H 0.3387 0.4074 0.4591
C40 C 0.3323(10) 0.2801(6) 0.4491(2)
H40 H 0.4536 0.2849 0.4468
C41 C 0.7260(11) 0.2949(6) 0.3909(2)
H41 H 0.7167 0.3002 0.4155
H42 H 0.6363 0.3219 0.3794
H43 H 0.8407 0.3245 0.3850
C42 C 0.7014(10) 0.1977(6) 0.3797(2)
C43 C 0.7209(11) 0.1739(6) 0.3461(2)
C44 C 0.7064(11) 0.0870(6) 0.3342(2)
C45 C 0.7439(13) 0.0624(7) 0.2990(2)
H44 H 0.8647 0.0540 0.2985
H45 H 0.7249 0.1092 0.2839
H46 H 0.6667 0.0080 0.2914
C46 C 0.7726(12) 0.2459(6) 0.3217(2)
C47 C 0.9453(12) 0.2782(7) 0.3168(2)
H47 H 1.0336 0.2529 0.3279
C48 C 0.9900(14) 0.3477(8) 0.2957(2)
H48 H 1.1091 0.3675 0.2922
C49 C 0.7068(14) 0.3563(7) 0.2848(3)
H49 H 0.6216 0.3845 0.2740
C50 C 0.6514(13) 0.2861(7) 0.3041(3)
H50 H 0.5309 0.2650 0.3055
C51 C 1.0069(11) -0.0739(6) 0.4538(2)
H51 H 1.1038 -0.0797 0.4397
H52 H 0.9959 -0.1194 0.4706
H53 H 1.0285 -0.0161 0.4655
C52 C 0.8406(10) -0.0840(6) 0.4317(2)
C53 C 0.7439(9) -0.1670(6) 0.4229(2)
C54 C 0.5806(11) -0.1774(6) 0.4032(2)
C55 C 0.4859(12) -0.2658(6) 0.3913(2)
H54 H 0.4137 -0.2913 0.4093
H55 H 0.5697 -0.3036 0.3860
H56 H 0.4123 -0.2605 0.3710
C56 C 0.8069(10) -0.2475(6) 0.4337(2)
C57 C 0.7081(10) -0.3105(5) 0.4529(2)
H57 H 0.5990 -0.3008 0.4601
C58 C 0.7664(10) -0.3850(6) 0.4612(2)
H58 H 0.6951 -0.4271 0.4736
C59 C 1.0245(10) -0.3398(6) 0.4351(2)
H59 H 1.1376 -0.3481 0.4298
C60 C 0.9663(10) -0.2666(6) 0.4254(2)
H60 H 1.0380 -0.2265 0.4122
O13 O 0.8326(8) 1.5681(5) -0.0316(2)
O14 O 0.8292(7) 1.7007(4) -0.01224(17)
O15 O 0.8123(8) 1.5967(5) 0.0234(2)
O16 O -0.3369(7) 0.3003(4) 0.51018(17)
O17 O -0.3122(8) 0.4030(4) 0.47338(17)
O18 O -0.3395(8) 0.4336(4) 0.52727(19)
O19 O 1.2359(11) 0.4325(9) 0.2436(2)
O20 O 1.3585(15) 0.5673(9) 0.2464(2)
O21 O 1.5034(10) 0.4682(5) 0.2349(2)
N7 N 0.8248(9) 1.6211(6) -0.0071(3)
N8 N -0.3274(9) 0.3768(6) 0.5034(2)
N9 N 1.3696(12) 0.4882(9) 0.2413(2)
Ag2_2 Ag 1.50246(8) 0.52567(5) 0.038210(18)
Ag3_2 Ag 1.00369(8) -0.52538(4) 0.462628(17)
N3_2 N 0.4057(9) 1.6457(5) 0.03592(18)
N6_2 N -0.0766(8) 0.5986(5) 0.45227(18)
Br1 Br 0.14602(13) 0.47060(8) 0.38074(3)
C61 C 0.3796(12) 0.4938(7) 0.3665(2)
C62 C 0.5133(12) 0.4971(6) 0.3899(3)
H61 H 0.4920 0.4865 0.4130
C63 C 0.6817(13) 0.5163(7) 0.3796(3)
H62 H 0.7775 0.5189 0.3955
C64 C 0.7080(12) 0.5313(7) 0.3461(3)
H63 H 0.8229 0.5455 0.3389
C65 C 0.5702(13) 0.5260(7) 0.3229(3)
H64 H 0.5915 0.5342 0.2997
C66 C 0.4017(12) 0.5090(7) 0.3325(3)
H65 H 0.3059 0.5077 0.3167
Br2 Br 1.16882(16) 0.66944(9) 0.30707(3)
C67 C 0.9984(15) 0.7394(8) 0.3141(3)
C68 C 1.0348(17) 0.8141(8) 0.3368(3)
H66 H 1.1457 0.8310 0.3483
C69 C 0.905(2) 0.8602(8) 0.3416(3)
H67 H 0.9252 0.9104 0.3566
C70 C 0.7398(18) 0.8339(9) 0.3242(3)
H68 H 0.6532 0.8680 0.3287
C71 C 0.694(2) 0.7624(8) 0.3012(3)
H69 H 0.5832 0.7467 0.2896
C72 C 0.8320(17) 0.7168(9) 0.2976(3)
H70 H 0.8117 0.6662 0.2828
Br3 Br 0.91374(17) 0.21682(16) 0.21147(5)
C73 C 0.6907(12) 0.2050(8) 0.1895(3)
C74 C 0.5797(15) 0.2585(9) 0.1986(3)
H71 H 0.6187 0.3057 0.2145
C75 C 0.4060(15) 0.2452(10) 0.1846(3)
H72 H 0.3268 0.2822 0.1907
C76 C 0.3596(16) 0.1745(10) 0.1617(4)
H73 H 0.2440 0.1622 0.1521
C77 C 0.4728(17) 0.1225(8) 0.1523(3)
H74 H 0.4365 0.0763 0.1358
C78 C 0.6393(15) 0.1358(7) 0.1665(3)
H75 H 0.7173 0.0980 0.1605
Br4 Br 0.3766(2) 0.54900(16) 0.12349(5)
C79 C 0.1533(4) 0.5035(4) 0.13577(14)
C80 C 0.1282(5) 0.4579(5) 0.16532(15)
H76 H 0.2252 0.4493 0.1794
C81 C -0.0389(5) 0.4247(8) 0.1743(2)
H77 H -0.0560 0.3935 0.1945
C82 C -0.1808(4) 0.4372(7) 0.1537(3)
H78 H -0.2950 0.4146 0.1598
C83 C -0.1557(5) 0.4828(8) 0.1242(2)
H79 H -0.2527 0.4914 0.1101
C84 C 0.0114(6) 0.5160(8) 0.1152(2)
H80 H 0.0285 0.5472 0.0950
Br6 Br 0.2242(2) 1.14003(13) 0.27502(5)
C91 C 0.3028(13) 1.0430(5) 0.2634(3)
C92 C 0.3914(15) 1.0384(4) 0.2340(3)
H86 H 0.4141 1.0879 0.2204
C93 C 0.4468(11) 0.9612(4) 0.22449(18)
H87 H 0.5074 0.9580 0.2044
C94 C 0.4136(6) 0.8887(3) 0.24442(11)
H88 H 0.4515 0.8359 0.2379
C95 C 0.3250(12) 0.8933(5) 0.27384(17)
H89 H 0.3023 0.8438 0.2875
C96 C 0.2696(14) 0.9705(6) 0.2833(2)
H90 H 0.2090 0.9737 0.3035
Br5? Br 0.4217(4) 0.5042(3) 0.15191(10)
C85? C 0.180(2) 0.4934(18) 0.1405(6)
C86? C 0.067(3) 0.4609(18) 0.1650(5)
H81? H 0.1120 0.4458 0.1863
C87? C -0.111(2) 0.4504(19) 0.1581(5)
H82? H -0.1879 0.4282 0.1748
C88? C -0.176(2) 0.473(2) 0.1268(6)
H83? H -0.2979 0.4654 0.1222
C89? C -0.063(3) 0.5051(19) 0.1024(5)
H84? H -0.1080 0.5201 0.0810
C90? C 0.115(2) 0.5155(18) 0.1092(5)
H85? H 0.1919 0.5377 0.0925
Br7? Br 0.4796(5) 0.8331(4) 0.22656(11)
C97? C 0.393(3) 0.9301(15) 0.2463(6)
C98? C 0.347(3) 0.9249(14) 0.2799(6)
H91? H 0.3580 0.8741 0.2920
C99? C 0.287(3) 0.9941(17) 0.2957(5)
H92? H 0.2560 0.9905 0.3186
C100? C 0.271(3) 1.0685(15) 0.2780(6)
H93? H 0.2299 1.1158 0.2888
C101? C 0.316(3) 1.0737(14) 0.2444(6)
H94? H 0.3059 1.1245 0.2323
C102? C 0.377(3) 1.0045(17) 0.2286(5)
H95? H 0.4079 1.0081 0.2057
loop_
_geom_bond_atom_site_label_1
_geom_bond_atom_site_label_2
_geom_bond_site_symmetry_1
_geom_bond_site_symmetry_2
Ag1 N1 1_555 1_555
Ag2 N2 1_555 1_555
Ag3 N4 1_555 1_555
Fe1 O1 1_555 1_555
Fe2 O7 1_555 1_555
O1 C2 1_555 1_555
O2 Fe1 1_555 1_555
O3 Fe1 1_555 1_555
O4 Fe1 1_555 1_555
O5 Fe1 1_555 1_555
O6 Fe1 1_555 1_555
O7 C32 1_555 1_555
O8 Fe2 1_555 1_555
O9 Fe2 1_555 1_555
O10 Fe2 1_555 1_555
O11 Fe2 1_555 1_555
O12 Fe2 1_555 1_555
N1 C8 1_555 1_555
N2 C18 1_555 1_555
N3 C28 1_555 1_555
N4 C38 1_555 1_555
N5 Ag1 1_555 1_555
N6 C58 1_555 1_555
C1 H1 1_555 1_555
H2 C1 1_555 1_555
H3 C1 1_555 1_555
C2 C1 1_555 1_555
C3 C2 1_555 1_555
C4 O2 1_555 1_555
C5 C4 1_555 1_555
H4 C5 1_555 1_555
H5 C5 1_555 1_555
H6 C5 1_555 1_555
C6 C3 1_555 1_555
C7 C6 1_555 1_555
H7 C7 1_555 1_555
C8 C7 1_555 1_555
H8 C8 1_555 1_555
C9 N1 1_555 1_555
H9 C9 1_555 1_555
C10 C6 1_555 1_555
H10 C10 1_555 1_555
C11 H11 1_555 1_555
H12 C11 1_555 1_555
H13 C11 1_555 1_555
C12 O3 1_555 1_555
C13 C12 1_555 1_555
C14 O4 1_555 1_555
C15 C14 1_555 1_555
H14 C15 1_555 1_555
H15 C15 1_555 1_555
H16 C15 1_555 1_555
C16 C13 1_555 1_555
C17 C16 1_555 1_555
H17 C17 1_555 1_555
C18 C17 1_555 1_555
H18 C18 1_555 1_555
C19 N2 1_555 1_555
H19 C19 1_555 1_555
C20 C16 1_555 1_555
H20 C20 1_555 1_555
C21 H21 1_555 1_555
H22 C21 1_555 1_555
H23 C21 1_555 1_555
C22 O5 1_555 1_555
C23 C22 1_555 1_555
C24 O6 1_555 1_555
C25 C24 1_555 1_555
H24 C25 1_555 1_555
H25 C25 1_555 1_555
H26 C25 1_555 1_555
C26 C23 1_555 1_555
C27 C26 1_555 1_555
H27 C27 1_555 1_555
C28 C27 1_555 1_555
H28 C28 1_555 1_555
C29 N3 1_555 1_555
H29 C29 1_555 1_555
C30 C26 1_555 1_555
H30 C30 1_555 1_555
C31 H31 1_555 1_555
H32 C31 1_555 1_555
H33 C31 1_555 1_555
C32 C31 1_555 1_555
C33 C32 1_555 1_555
C34 O8 1_555 1_555
C35 C34 1_555 1_555
H34 C35 1_555 1_555
H35 C35 1_555 1_555
H36 C35 1_555 1_555
C36 C33 1_555 1_555
C37 C36 1_555 1_555
H37 C37 1_555 1_555
C38 C37 1_555 1_555
H38 C38 1_555 1_555
C39 N4 1_555 1_555
H39 C39 1_555 1_555
C40 C36 1_555 1_555
H40 C40 1_555 1_555
C41 H41 1_555 1_555
H42 C41 1_555 1_555
H43 C41 1_555 1_555
C42 O9 1_555 1_555
C43 C42 1_555 1_555
C44 O10 1_555 1_555
C45 C44 1_555 1_555
H44 C45 1_555 1_555
H45 C45 1_555 1_555
H46 C45 1_555 1_555
C46 C43 1_555 1_555
C47 C46 1_555 1_555
H47 C47 1_555 1_555
C48 N5 1_555 1_555
H48 C48 1_555 1_555
C49 N5 1_555 1_555
H49 C49 1_555 1_555
C50 C46 1_555 1_555
H50 C50 1_555 1_555
C51 H51 1_555 1_555
H52 C51 1_555 1_555
H53 C51 1_555 1_555
C52 O11 1_555 1_555
C53 C52 1_555 1_555
C54 O12 1_555 1_555
C55 C54 1_555 1_555
H54 C55 1_555 1_555
H55 C55 1_555 1_555
H56 C55 1_555 1_555
C56 C53 1_555 1_555
C57 C56 1_555 1_555
H57 C57 1_555 1_555
C58 C57 1_555 1_555
H58 C58 1_555 1_555
C59 N6 1_555 1_555
H59 C59 1_555 1_555
C60 C56 1_555 1_555
H60 C60 1_555 1_555
O13 N7 1_555 1_555
O14 N7 1_555 1_555
O15 Ag2 1_555 1_555
O16 N8 1_555 1_555
O17 Ag3 1_555 1_555
O18 N8 1_555 1_555
O19 Ag1 1_555 1_555
O20 N9 1_555 1_555
O21 N9 1_555 1_555
N7 O15 1_555 1_555
N8 O17 1_555 1_555
N9 O19 1_555 1_555
Br1 C61 1_555 1_555
C61 C62 1_555 1_555
C62 H61 1_555 1_555
C63 C62 1_555 1_555
H62 C63 1_555 1_555
C64 C63 1_555 1_555
H63 C64 1_555 1_555
C65 C64 1_555 1_555
H64 C65 1_555 1_555
C66 C61 1_555 1_555
H65 C66 1_555 1_555
Br2 C67 1_555 1_555
C67 C68 1_555 1_555
C68 H66 1_555 1_555
C69 C68 1_555 1_555
H67 C69 1_555 1_555
C70 C69 1_555 1_555
H68 C70 1_555 1_555
C71 C70 1_555 1_555
H69 C71 1_555 1_555
C72 C67 1_555 1_555
H70 C72 1_555 1_555
Br3 C73 1_555 1_555
C73 C74 1_555 1_555
C74 H71 1_555 1_555
C75 C74 1_555 1_555
H72 C75 1_555 1_555
C76 C75 1_555 1_555
H73 C76 1_555 1_555
C77 C76 1_555 1_555
H74 C77 1_555 1_555
C78 C73 1_555 1_555
H75 C78 1_555 1_555
Br4 C79 1_555 1_555
C79 C80 1_555 1_555
C80 H76 1_555 1_555
C81 C80 1_555 1_555
H77 C81 1_555 1_555
C82 C81 1_555 1_555
H78 C82 1_555 1_555
C83 C82 1_555 1_555
H79 C83 1_555 1_555
C84 C79 1_555 1_555
H80 C84 1_555 1_555
Br6 C91 1_555 1_555
C91 C92 1_555 1_555
C92 H86 1_555 1_555
C93 C92 1_555 1_555
H87 C93 1_555 1_555
C94 C93 1_555 1_555
H88 C94 1_555 1_555
C95 C94 1_555 1_555
H89 C95 1_555 1_555
C96 C91 1_555 1_555
H90 C96 1_555 1_555
Ag2_2 N3 1_555 1_555
Ag3_2 N6 1_555 1_555
N3_2 Ag2 1_555 1_555
N6_2 Ag3 1_555 1_555
C3 C4 1_555 1_555
C9 C10 1_555 1_555
C11 C12 1_555 1_555
C13 C14 1_555 1_555
C19 C20 1_555 1_555
C21 C22 1_555 1_555
C23 C24 1_555 1_555
C29 C30 1_555 1_555
C33 C34 1_555 1_555
C39 C40 1_555 1_555
C41 C42 1_555 1_555
C43 C44 1_555 1_555
C47 C48 1_555 1_555
C49 C50 1_555 1_555
C51 C52 1_555 1_555
C53 C54 1_555 1_555
C59 C60 1_555 1_555
C65 C66 1_555 1_555
C71 C72 1_555 1_555
C77 C78 1_555 1_555
C83 C84 1_555 1_555
C95 C96 1_555 1_555

#END
