
#######################################################################
#
#                 Cambridge Crystallographic Data Centre
#                                CCDC 
#
#######################################################################
#
# If this CIF has been generated from an entry in the Cambridge 
# Structural Database, then it will include bibliographic, chemical, 
# crystal, experimental, refinement or atomic coordinate data resulting 
# from the CCDC's data processing and validation procedures.
#
#######################################################################

data_RIZXII01
_symmetry_cell_setting           triclinic
_symmetry_space_group_name_H-M   'P -1'
_symmetry_Int_Tables_number      2
_space_group_name_Hall           '-P 1'
loop_
_symmetry_equiv_pos_site_id
_symmetry_equiv_pos_as_xyz
1 x,y,z
2 -x,-y,-z
_cell_length_a                   8.801(2)
_cell_length_b                   9.904(3)
_cell_length_c                   11.257(4)
_cell_angle_alpha                68.91(3)
_cell_angle_beta                 85.37(2)
_cell_angle_gamma                64.12(3)
_cell_volume                     820.264
loop_
_atom_site_label
_atom_site_type_symbol
_atom_site_fract_x
_atom_site_fract_y
_atom_site_fract_z
Fe1 Fe 0.0000 0.0000 0.0000
N1 N 0.0846(2) 0.2321(2) -0.37151(18)
N2 N -0.0253(4) 0.3605(3) -0.3438(2)
N3 N -0.0645(3) 0.3051(3) -0.2289(2)
N4 N 0.0185(2) 0.1423(2) -0.18164(18)
C1 C 0.1098(3) 0.1009(3) -0.2717(2)
H1 H 0.1823 -0.0062 -0.2659
C2 C 0.1602(3) 0.2511(3) -0.4935(2)
H2 H 0.2705 0.1562 -0.4825
H3 H 0.1817 0.3475 -0.5200
C3 C 0.0450(3) 0.2686(3) -0.5979(2)
H4 H -0.0655 0.3619 -0.6107
O1 O 0.0253(3) 0.1262(3) -0.5586(2)
H6 H -0.0798 0.1702 -0.5901
C4 C 0.1348(3) 0.2864(3) -0.7210(2)
H8 H 0.1395 0.3915 -0.7526
H9 H 0.2527 0.2005 -0.7026
N5 N -0.0897(2) 0.3989(2) -0.89488(18)
N6 N 0.0465(2) 0.2762(2) -0.81958(18)
N7 N 0.0921(2) 0.1405(2) -0.83768(18)
N8 N -0.0181(2) 0.1739(2) -0.93017(17)
C5 C -0.1273(3) 0.3305(3) -0.9625(2)
H10 H -0.2201 0.3854 -1.0262
N9 N -0.2581(3) 0.1073(2) -0.02613(18)
C6 C -0.4019(3) 0.1632(3) -0.0266(2)
C7 C -0.5855(3) 0.2341(3) -0.0256(3)
H11 H -0.6176 0.2743 0.0449
H12 H -0.6253 0.1523 -0.0141
H13 H -0.6374 0.3233 -0.1069
Fe1_2 Fe 0.0000 0.0000 -1.0000
Fe1_3 Fe 0.0000 0.0000 1.0000
N1A N -0.0846(2) -0.2321(2) 0.37151(18)
N2A N 0.0253(4) -0.3605(3) 0.3438(2)
N3A N 0.0645(3) -0.3051(3) 0.2289(2)
N4A N -0.0185(2) -0.1423(2) 0.18164(18)
C1A C -0.1098(3) -0.1009(3) 0.2717(2)
H1A H -0.1823 0.0062 0.2659
C2A C -0.1602(3) -0.2511(3) 0.4935(2)
H2A H -0.2705 -0.1562 0.4825
H3A H -0.1817 -0.3475 0.5200
C3A C -0.0450(3) -0.2686(3) 0.5979(2)
H4A H 0.0655 -0.3619 0.6107
O1A O -0.0253(3) -0.1262(3) 0.5586(2)
H6A H 0.0798 -0.1702 0.5901
C4A C -0.1348(3) -0.2864(3) 0.7210(2)
H8A H -0.1395 -0.3915 0.7526
H9A H -0.2527 -0.2005 0.7026
N5A N 0.0897(2) -0.3989(2) 0.89488(18)
N6A N -0.0465(2) -0.2762(2) 0.81958(18)
N7A N -0.0921(2) -0.1405(2) 0.83768(18)
N8A N 0.0181(2) -0.1739(2) 0.93017(17)
N8_2 N -0.0181(2) 0.1739(2) 0.06983(17)
N8A_2 N 0.0181(2) -0.1739(2) -0.06983(17)
C5A C 0.1273(3) -0.3305(3) 0.9625(2)
H10A H 0.2201 -0.3854 1.0262
N9A N 0.2581(3) -0.1073(2) 0.02613(18)
C6A C 0.4019(3) -0.1632(3) 0.0266(2)
C7A C 0.5855(3) -0.2341(3) 0.0256(3)
H11A H 0.6176 -0.2743 -0.0449
H12A H 0.6253 -0.1523 0.0141
H13A H 0.6374 -0.3233 0.1069
N10 N 0.4715(3) 0.0785(3) 0.7324(3)
C8 C 0.5523(3) 0.1436(3) 0.6845(3)
C9 C 0.6573(3) 0.2238(3) 0.6258(2)
H14 H 0.7026 0.2451 0.6902
H15 H 0.5892 0.3257 0.5572
H16 H 0.7512 0.1549 0.5902
Cl1 Cl -0.44297(7) 0.35935(7) 0.27778(6)
O3 O -0.2859(6) 0.2160(9) 0.3058(16)
O4 O -0.5671(9) 0.3358(7) 0.3622(8)
O5 O -0.4092(13) 0.4764(6) 0.3038(7)
O6 O -0.5012(9) 0.4195(6) 0.1447(3)
H5? H 0.0303 0.1719 0.4261
O2? O -0.1193(6) 0.4040(7) 0.3942(5)
H7? H -0.1934 0.3982 0.3563
O7? O -0.2707(15) 0.237(3) 0.310(4)
O8? O -0.541(3) 0.287(2) 0.361(2)
O9? O -0.436(4) 0.5042(18) 0.272(2)
O10? O -0.505(3) 0.364(2) 0.1608(9)
loop_
_geom_bond_atom_site_label_1
_geom_bond_atom_site_label_2
_geom_bond_site_symmetry_1
_geom_bond_site_symmetry_2
Fe1 N4 1_555 1_555
N1 N2 1_555 1_555
N2 N3 1_555 1_555
N3 N4 1_555 1_555
N4 C1 1_555 1_555
C1 N1 1_555 1_555
H1 C1 1_555 1_555
C2 N1 1_555 1_555
H2 C2 1_555 1_555
H3 C2 1_555 1_555
C3 C2 1_555 1_555
H4 C3 1_555 1_555
O1 C3 1_555 1_555
H6 O1 1_555 1_555
C4 C3 1_555 1_555
H8 C4 1_555 1_555
H9 C4 1_555 1_555
N5 N6 1_555 1_555
N6 C4 1_555 1_555
N7 N6 1_555 1_555
N8 N7 1_555 1_555
C5 N5 1_555 1_555
H10 C5 1_555 1_555
N9 Fe1 1_555 1_555
C6 N9 1_555 1_555
C7 C6 1_555 1_555
H11 C7 1_555 1_555
H12 C7 1_555 1_555
H13 C7 1_555 1_555
N10 C8 1_555 1_555
C8 C9 1_555 1_555
C9 H14 1_555 1_555
H15 C9 1_555 1_555
H16 C9 1_555 1_555
Cl1 O3 1_555 1_555
O4 Cl1 1_555 1_555
O5 Cl1 1_555 1_555
O6 Cl1 1_555 1_555
Fe1_2 N8 1_555 1_555
Fe1_3 N8A 1_555 1_555
N1A N2A 1_555 1_555
N2A N3A 1_555 1_555
N3A N4A 1_555 1_555
N4A Fe1 1_555 1_555
C1A N1A 1_555 1_555
H1A C1A 1_555 1_555
C2A N1A 1_555 1_555
H2A C2A 1_555 1_555
H3A C2A 1_555 1_555
C3A C2A 1_555 1_555
H4A C3A 1_555 1_555
O1A C3A 1_555 1_555
H6A O1A 1_555 1_555
C4A C3A 1_555 1_555
H8A C4A 1_555 1_555
H9A C4A 1_555 1_555
N5A N6A 1_555 1_555
N6A C4A 1_555 1_555
N7A N6A 1_555 1_555
N8A N7A 1_555 1_555
N8_2 Fe1 1_555 1_555
N8A_2 Fe1 1_555 1_555
C5A N5A 1_555 1_555
H10A C5A 1_555 1_555
N9A Fe1 1_555 1_555
C6A N9A 1_555 1_555
C7A C6A 1_555 1_555
H11A C7A 1_555 1_555
H12A C7A 1_555 1_555
H13A C7A 1_555 1_555
N8 C5 1_555 1_555
N4A C1A 1_555 1_555
N8A C5A 1_555 1_555

#END
