
#######################################################################
#
#                 Cambridge Crystallographic Data Centre
#                                CCDC 
#
#######################################################################
#
# If this CIF has been generated from an entry in the Cambridge 
# Structural Database, then it will include bibliographic, chemical, 
# crystal, experimental, refinement or atomic coordinate data resulting 
# from the CCDC's data processing and validation procedures.
#
#######################################################################

data_RIZYUU
_symmetry_cell_setting           monoclinic
_symmetry_space_group_name_H-M   'P 21/n'
_symmetry_Int_Tables_number      14
_space_group_name_Hall           '-P 2yn'
loop_
_symmetry_equiv_pos_site_id
_symmetry_equiv_pos_as_xyz
1 x,y,z
2 1/2-x,1/2+y,1/2-z
3 -x,-y,-z
4 1/2+x,1/2-y,1/2+z
_cell_length_a                   11.337(2)
_cell_length_b                   5.225(1)
_cell_length_c                   14.380(3)
_cell_angle_alpha                90
_cell_angle_beta                 103.92(1)
_cell_angle_gamma                90
_cell_volume                     826.796
loop_
_atom_site_label
_atom_site_type_symbol
_atom_site_fract_x
_atom_site_fract_y
_atom_site_fract_z
Tl1 Tl 0.8881(1) 0.2154(1) 0.8648(1)
N1 N 0.7532(7) -0.1761(16) 0.8780(5)
N2 N 0.6756(7) -0.3271(15) 0.8140(5)
N3 N 0.4899(7) -0.6455(17) 0.7169(5)
C1 C 0.7420(9) -0.2426(20) 0.9647(6)
C2 C 0.6617(9) -0.4420(20) 0.9595(6)
C3 C 0.6192(8) -0.4901(17) 0.8619(6)
C4 C 0.5281(7) -0.6673(18) 0.8130(6)
C5 C 0.4817(9) -0.8581(21) 0.8623(7)
C6 C 0.3953(9) -1.0220(21) 0.8132(7)
C7 C 0.3532(9) -1.0008(21) 0.7161(7)
C8 C 0.4061(9) -0.8132(20) 0.6711(7)
H1 H 0.7830(9) -0.1644(20) 1.0214(6)
H2 H 0.6404(9) -0.5263(20) 1.0101(6)
H3 H 0.5097(9) -0.8732(21) 0.9284(7)
H4 H 0.3647(9) -1.1493(21) 0.8461(7)
H5 H 0.2922(9) -1.1070(21) 0.6819(7)
H6 H 0.3818(9) -0.8029(20) 0.6047(7)
N2A N 0.8244(7) 0.1729(15) 0.6860(5)
N3A N 1.0101(7) -0.1455(17) 0.7831(5)
Tl1A Tl 0.6119(1) -0.2846(1) 0.6352(1)
loop_
_geom_bond_atom_site_label_1
_geom_bond_atom_site_label_2
_geom_bond_site_symmetry_1
_geom_bond_site_symmetry_2
Tl1 N1 1_555 1_555
N1 N2 1_555 1_555
N2 C3 1_555 1_555
N3 C4 1_555 1_555
C1 N1 1_555 1_555
C2 C1 1_555 1_555
C3 C2 1_555 1_555
C4 C3 1_555 1_555
C5 C4 1_555 1_555
C6 C5 1_555 1_555
C7 C6 1_555 1_555
C8 N3 1_555 1_555
H1 C1 1_555 1_555
H2 C2 1_555 1_555
H3 C5 1_555 1_555
H4 C6 1_555 1_555
H5 C7 1_555 1_555
H6 C8 1_555 1_555
N2A Tl1 1_555 1_555
N3A Tl1 1_555 1_555
Tl1A N2 1_555 1_555
N3 Tl1A 1_555 1_555
C7 C8 1_555 1_555

#END
