
#######################################################################
#
#                 Cambridge Crystallographic Data Centre
#                                CCDC 
#
#######################################################################
#
# If this CIF has been generated from an entry in the Cambridge 
# Structural Database, then it will include bibliographic, chemical, 
# crystal, experimental, refinement or atomic coordinate data resulting 
# from the CCDC's data processing and validation procedures.
#
#######################################################################

data_ROBNOM
_symmetry_cell_setting           orthorhombic
_symmetry_space_group_name_H-M   'P 21 21 21'
_symmetry_Int_Tables_number      19
_space_group_name_Hall           'P 2ac 2ab'
loop_
_symmetry_equiv_pos_site_id
_symmetry_equiv_pos_as_xyz
1 x,y,z
2 1/2-x,-y,1/2+z
3 -x,1/2+y,1/2-z
4 1/2+x,1/2-y,-z
_cell_length_a                   6.2168(7)
_cell_length_b                   16.4734(18)
_cell_length_c                   21.668(2)
_cell_angle_alpha                90
_cell_angle_beta                 90
_cell_angle_gamma                90
_cell_volume                     2219.06
loop_
_atom_site_label
_atom_site_type_symbol
_atom_site_fract_x
_atom_site_fract_y
_atom_site_fract_z
Cu1 Cu -0.00902(5) 0.731046(15) 0.071821(11)
C1 C 0.1702(4) 0.72271(15) 0.19334(10)
C2 C 0.0521(4) 0.79153(14) 0.21242(10)
C3 C 0.1931(4) 0.78217(15) 0.31708(10)
C4 C 0.3067(4) 0.68331(15) 0.23717(11)
C5 C 0.2127(5) 0.81065(17) 0.38387(11)
C6 C 0.0644(4) 0.81930(15) 0.27461(11)
H1 H -0.0175 0.8639 0.2865
C7 C 0.4421(5) 0.60941(17) 0.21838(13)
C8 C 0.3104(4) 0.71413(15) 0.29668(11)
H2 H 0.3971 0.6878 0.3254
O1 O 0.1623(3) 0.69397(11) 0.13658(7)
C9 C -0.0795(4) 0.83886(15) 0.17182(11)
H3 H -0.1585 0.8808 0.1894
N1 N -0.0986(3) 0.82862(12) 0.11308(9)
O2 O -0.4411(3) 0.86253(9) -0.01609(7)
O3 O -0.2213(3) 0.76497(10) 0.01170(7)
C10 C 0.5984(5) 0.6323(2) 0.16702(16)
H4 H 0.5198 0.6540 0.1327
H5 H 0.6760 0.5849 0.1541
H6 H 0.6979 0.6722 0.1820
C11 C -0.2272(4) 0.88449(13) 0.07522(10)
H7 H -0.3528 0.9020 0.0991
C12 C 0.2927(7) 0.54068(19) 0.19675(18)
H8 H 0.1858 0.5305 0.2278
H9 H 0.3755 0.4923 0.1900
H10 H 0.2233 0.5563 0.1590
C13 C 0.5777(7) 0.5768(2) 0.27232(17)
H11 H 0.6744 0.6183 0.2863
H12 H 0.6589 0.5305 0.2588
H13 H 0.4845 0.5611 0.3056
C14 C 0.1238(10) 0.7466(3) 0.42631(15)
H14 H -0.0227 0.7353 0.4153
H15 H 0.1295 0.7658 0.4681
H16 H 0.2079 0.6980 0.4226
C15 C 0.0024(8) 1.00372(18) 0.10967(15)
H17 H 0.1073 0.9686 0.1282
H18 H -0.1073 1.0164 0.1393
H19 H 0.0708 1.0529 0.0963
C16 C -0.0994(5) 0.96105(16) 0.05402(12)
C17 C -0.2563(6) 1.02071(17) 0.02469(17)
H20 H -0.1841 1.0712 0.0168
H21 H -0.3748 1.0299 0.0523
H22 H -0.3090 0.9987 -0.0134
C18 C 0.0980(8) 0.8915(2) 0.39415(16)
H23 H -0.0516 0.8857 0.3841
H24 H 0.1612 0.9322 0.3682
H25 H 0.1123 0.9073 0.4366
C19 C 0.4505(7) 0.8250(3) 0.39951(19)
H26 H 0.4624 0.8449 0.4410
H27 H 0.5097 0.8643 0.3715
H28 H 0.5282 0.7749 0.3958
C20 C 0.0737(6) 0.9375(2) 0.00837(19)
H29 H 0.0090 0.9114 -0.0266
H30 H 0.1731 0.9009 0.0277
H31 H 0.1489 0.9853 -0.0050
C21 C -0.3041(4) 0.83444(14) 0.01982(11)
Cu1C Cu -0.50902(5) 0.768954(15) -0.071821(11)
O2C O 0.0589(3) 0.63747(9) 0.01609(7)
O3C O 0.2787(3) 0.73503(10) -0.01170(7)
loop_
_geom_bond_atom_site_label_1
_geom_bond_atom_site_label_2
_geom_bond_site_symmetry_1
_geom_bond_site_symmetry_2
Cu1 O1 1_555 1_555
C1 C2 1_555 1_555
C2 C6 1_555 1_555
C3 C5 1_555 1_555
C4 C1 1_555 1_555
C5 C14 1_555 1_555
C6 C3 1_555 1_555
H1 C6 1_555 1_555
C7 C4 1_555 1_555
C8 C3 1_555 1_555
H2 C8 1_555 1_555
O1 C1 1_555 1_555
C9 C2 1_555 1_555
H3 C9 1_555 1_555
N1 Cu1 1_555 1_555
O2 C21 1_555 1_555
O3 Cu1 1_555 1_555
C10 C7 1_555 1_555
H4 C10 1_555 1_555
H5 C10 1_555 1_555
H6 C10 1_555 1_555
C11 N1 1_555 1_555
H7 C11 1_555 1_555
C12 C7 1_555 1_555
H8 C12 1_555 1_555
H9 C12 1_555 1_555
H10 C12 1_555 1_555
C13 C7 1_555 1_555
H11 C13 1_555 1_555
H12 C13 1_555 1_555
H13 C13 1_555 1_555
C14 H14 1_555 1_555
H15 C14 1_555 1_555
H16 C14 1_555 1_555
C15 H17 1_555 1_555
H18 C15 1_555 1_555
H19 C15 1_555 1_555
C16 C11 1_555 1_555
C17 C16 1_555 1_555
H20 C17 1_555 1_555
H21 C17 1_555 1_555
H22 C17 1_555 1_555
C18 C5 1_555 1_555
H23 C18 1_555 1_555
H24 C18 1_555 1_555
H25 C18 1_555 1_555
C19 C5 1_555 1_555
H26 C19 1_555 1_555
H27 C19 1_555 1_555
H28 C19 1_555 1_555
C20 C16 1_555 1_555
H29 C20 1_555 1_555
H30 C20 1_555 1_555
H31 C20 1_555 1_555
C21 O3 1_555 1_555
Cu1C O2 1_555 1_555
O2C Cu1 1_555 1_555
O3C Cu1 1_555 1_555
C4 C8 1_555 1_555
C9 N1 1_555 1_555
O3 Cu1C 1_555 1_555
C11 C21 1_555 1_555
C15 C16 1_555 1_555

#END
