
#######################################################################
#
#                 Cambridge Crystallographic Data Centre
#                                CCDC 
#
#######################################################################
#
# If this CIF has been generated from an entry in the Cambridge 
# Structural Database, then it will include bibliographic, chemical, 
# crystal, experimental, refinement or atomic coordinate data resulting 
# from the CCDC's data processing and validation procedures.
#
#######################################################################

data_ROBNIG
_symmetry_cell_setting           monoclinic
_symmetry_space_group_name_H-M   'P 21'
_symmetry_Int_Tables_number      4
_space_group_name_Hall           'P 2yb'
loop_
_symmetry_equiv_pos_site_id
_symmetry_equiv_pos_as_xyz
1 x,y,z
2 -x,1/2+y,-z
_cell_length_a                   11.6599(8)
_cell_length_b                   7.2927(6)
_cell_length_c                   12.0335(9)
_cell_angle_alpha                90
_cell_angle_beta                 113.928(4)
_cell_angle_gamma                90
_cell_volume                     935.293
loop_
_atom_site_label
_atom_site_type_symbol
_atom_site_fract_x
_atom_site_fract_y
_atom_site_fract_z
O1 O 0.4112(10) 0.9757(17) 1.0817(8)
Cu1 Cu 0.36316(13) 0.8844(2) 0.91660(12)
Br1 Br 1.25906(13) 1.2714(2) 1.56302(15)
C1 C 0.8849(11) 1.482(2) 1.2457(10)
C2 C 0.8847(12) 1.3385(18) 1.3323(11)
C3 C 0.7690(12) 1.251(2) 1.3225(10)
H1 H 0.7737 1.1726 1.3850
C4 C 0.9952(12) 1.287(2) 1.4294(11)
H2 H 0.9922 1.2044 1.4872
C5 C 1.1066(11) 1.356(2) 1.4398(10)
N1 N 0.6632(10) 1.273(2) 1.2371(9)
O2 O 0.7893(9) 1.5160(15) 1.1496(8)
C6 C 1.0077(14) 1.739(2) 1.1952(13)
C7 C 1.1072(12) 1.5098(19) 1.3644(12)
H3 H 1.1811 1.5751 1.3822
C8 C 1.0055(12) 1.5585(19) 1.2716(12)
C9 C 1.1335(17) 1.828(3) 1.245(2)
H4 H 1.1242 1.9570 1.2277
H5 H 1.1844 1.7749 1.2072
H6 H 1.1731 1.8091 1.3310
C10 C 0.910(2) 1.876(3) 1.190(2)
H7 H 0.9061 1.8841 1.2679
H8 H 0.8297 1.8380 1.1301
H9 H 0.9310 1.9939 1.1678
C11 C 0.979(3) 1.669(4) 1.0636(17)
H10 H 0.8997 1.7164 1.0083
H11 H 0.9773 1.5379 1.0624
H12 H 1.0439 1.7116 1.0395
C12 C 0.543(2) 1.336(4) 1.4148(16)
H13 H 0.6252 1.3788 1.4253
H14 H 0.5515 1.2256 1.4604
H15 H 0.5029 1.4284 1.4432
C13 C 0.5505(12) 1.176(2) 1.2355(11)
H16 H 0.5772 1.0662 1.2870
C14 C 0.4653(16) 1.299(3) 1.2808(16)
C15 C 0.437(3) 1.474(5) 1.209(3)
H17 H 0.4198 1.5697 1.2548
H18 H 0.3660 1.4567 1.1336
H19 H 0.5088 1.5082 1.1929
O3 O 0.4999(10) 1.2064(16) 1.0199(8)
C16 C 0.3486(19) 1.186(4) 1.271(2)
H20 H 0.3295 1.2108 1.3397
H21 H 0.3659 1.0575 1.2686
H22 H 0.2782 1.2191 1.1975
C17 C 0.4817(11) 1.116(2) 1.1018(11)
Cu1A Cu 0.63684(13) 1.3844(2) 1.08340(12)
N1A N 0.3368(10) 0.773(2) 0.7629(9)
O2A O 0.2107(9) 1.0160(15) 0.8504(8)
O3A O 0.5001(10) 0.7064(16) 0.9801(8)
loop_
_geom_bond_atom_site_label_1
_geom_bond_atom_site_label_2
_geom_bond_site_symmetry_1
_geom_bond_site_symmetry_2
O1 Cu1 1_555 1_555
Cu1 N1A 1_555 1_555
Br1 C5 1_555 1_555
C1 C2 1_555 1_555
C2 C3 1_555 1_555
C3 H1 1_555 1_555
C4 C2 1_555 1_555
H2 C4 1_555 1_555
C5 C4 1_555 1_555
N1 C3 1_555 1_555
O2 C1 1_555 1_555
C6 C8 1_555 1_555
C7 C5 1_555 1_555
H3 C7 1_555 1_555
C8 C1 1_555 1_555
C9 C6 1_555 1_555
H4 C9 1_555 1_555
H5 C9 1_555 1_555
H6 C9 1_555 1_555
C10 C6 1_555 1_555
H7 C10 1_555 1_555
H8 C10 1_555 1_555
H9 C10 1_555 1_555
C11 C6 1_555 1_555
H10 C11 1_555 1_555
H11 C11 1_555 1_555
H12 C11 1_555 1_555
C12 H13 1_555 1_555
H14 C12 1_555 1_555
H15 C12 1_555 1_555
C13 N1 1_555 1_555
H16 C13 1_555 1_555
C14 C12 1_555 1_555
C15 C14 1_555 1_555
H17 C15 1_555 1_555
H18 C15 1_555 1_555
H19 C15 1_555 1_555
O3 C17 1_555 1_555
C16 C14 1_555 1_555
H20 C16 1_555 1_555
H21 C16 1_555 1_555
H22 C16 1_555 1_555
C17 O1 1_555 1_555
Cu1A N1 1_555 1_555
O2A Cu1 1_555 1_555
O3A Cu1 1_555 1_555
O2 Cu1A 1_555 1_555
C7 C8 1_555 1_555
C13 C14 1_555 1_555
C13 C17 1_555 1_555
O3 Cu1A 1_555 1_555

#END
