
#######################################################################
#
#                 Cambridge Crystallographic Data Centre
#                                CCDC 
#
#######################################################################
#
# If this CIF has been generated from an entry in the Cambridge 
# Structural Database, then it will include bibliographic, chemical, 
# crystal, experimental, refinement or atomic coordinate data resulting 
# from the CCDC's data processing and validation procedures.
#
#######################################################################

data_ROBNEC
_symmetry_cell_setting           monoclinic
_symmetry_space_group_name_H-M   'P 21'
_symmetry_Int_Tables_number      4
_space_group_name_Hall           'P 2yb'
loop_
_symmetry_equiv_pos_site_id
_symmetry_equiv_pos_as_xyz
1 x,y,z
2 -x,1/2+y,-z
_cell_length_a                   10.9225(3)
_cell_length_b                   6.47180(10)
_cell_length_c                   13.8434(3)
_cell_angle_alpha                90
_cell_angle_beta                 100.0060(10)
_cell_angle_gamma                90
_cell_volume                     963.681
loop_
_atom_site_label
_atom_site_type_symbol
_atom_site_fract_x
_atom_site_fract_y
_atom_site_fract_z
Cu1 Cu 0.06353(2) 0.86477(5) 0.10838(2)
O1 O -0.01971(17) 0.6662(3) 0.01421(14)
O2 O -0.17326(15) 0.4426(3) -0.01474(14)
N1 N -0.05629(19) 0.7698(4) 0.18471(16)
O3 O 0.15421(17) 1.0191(3) 0.21190(15)
C1 C 0.2514(4) 1.4266(6) 0.2753(3)
H1 H 0.3050 1.5329 0.2580
H2 H 0.1929 1.4861 0.3116
H3 H 0.2075 1.3631 0.2167
C2 C 0.0662(2) 0.8656(7) 0.34109(17)
C3 C 0.2447(3) 1.1061(5) 0.3737(2)
C4 C 0.1532(3) 0.9951(5) 0.3052(2)
C5 C 0.1728(3) 0.9158(5) 0.5047(2)
C6 C -0.0358(3) 0.7657(5) 0.2790(2)
H4 H -0.0916 0.6922 0.3094
C7 C 0.0777(3) 0.8276(6) 0.4419(2)
H5 H 0.0209 0.7428 0.4656
N2 N 0.1891(3) 0.8672(9) 0.60933(19)
C8 C 0.4109(3) 1.3797(10) 0.4237(3)
H6 H 0.4574 1.4860 0.3979
H7 H 0.4673 1.2842 0.4613
H8 H 0.3588 1.4409 0.4650
O4 O 0.1124(3) 0.7609(7) 0.6381(2)
O5 O 0.2778(2) 0.9382(5) 0.66392(18)
C9 C 0.3293(3) 1.2639(6) 0.3381(3)
C10 C 0.2522(3) 1.0571(5) 0.4720(2)
H9 H 0.3126 1.1212 0.5178
C11 C 0.4175(3) 1.1542(7) 0.2786(3)
H10 H 0.3694 1.0812 0.2246
H11 H 0.4691 1.0583 0.3202
H12 H 0.4688 1.2550 0.2540
C12 C -0.1628(2) 0.6587(4) 0.1277(2)
H13 H -0.1830 0.5394 0.1656
C13 C -0.2813(2) 0.7985(4) 0.1011(2)
C14 C -0.3122(3) 0.8961(9) 0.1929(3)
H14 H -0.3954 0.9499 0.1796
H15 H -0.2549 1.0064 0.2137
H16 H -0.3061 0.7940 0.2438
C15 C -0.3893(3) 0.6623(6) 0.0569(3)
H17 H -0.4642 0.7428 0.0452
H18 H -0.3983 0.5519 0.1015
H19 H -0.3739 0.6057 -0.0040
C16 C -0.2597(3) 0.9642(6) 0.0294(4)
H20 H -0.2397 0.9012 -0.0287
H21 H -0.1920 1.0509 0.0588
H22 H -0.3335 1.0462 0.0124
C17 C -0.1171(2) 0.5829(4) 0.03646(19)
Cu1A Cu -0.06353(2) 0.36477(5) -0.10838(2)
O1A O 0.01971(17) 1.1662(3) -0.01421(14)
O2A O 0.17326(15) 0.9426(3) 0.01474(14)
loop_
_geom_bond_atom_site_label_1
_geom_bond_atom_site_label_2
_geom_bond_site_symmetry_1
_geom_bond_site_symmetry_2
Cu1 O1 1_555 1_555
O1 C17 1_555 1_555
O2 C17 1_555 1_555
N1 Cu1 1_555 1_555
O3 Cu1 1_555 1_555
C1 H1 1_555 1_555
H2 C1 1_555 1_555
H3 C1 1_555 1_555
C2 C4 1_555 1_555
C3 C4 1_555 1_555
C4 O3 1_555 1_555
C5 C7 1_555 1_555
C6 N1 1_555 1_555
H4 C6 1_555 1_555
C7 C2 1_555 1_555
H5 C7 1_555 1_555
N2 C5 1_555 1_555
C8 H6 1_555 1_555
H7 C8 1_555 1_555
H8 C8 1_555 1_555
O4 N2 1_555 1_555
O5 N2 1_555 1_555
C9 C1 1_555 1_555
C10 C3 1_555 1_555
H9 C10 1_555 1_555
C11 C9 1_555 1_555
H10 C11 1_555 1_555
H11 C11 1_555 1_555
H12 C11 1_555 1_555
C12 N1 1_555 1_555
H13 C12 1_555 1_555
C13 C12 1_555 1_555
C14 C13 1_555 1_555
H14 C14 1_555 1_555
H15 C14 1_555 1_555
H16 C14 1_555 1_555
C15 C13 1_555 1_555
H17 C15 1_555 1_555
H18 C15 1_555 1_555
H19 C15 1_555 1_555
C16 C13 1_555 1_555
H20 C16 1_555 1_555
H21 C16 1_555 1_555
H22 C16 1_555 1_555
C17 C12 1_555 1_555
Cu1A O1 1_555 1_555
O1A Cu1 1_555 1_555
O2A Cu1 1_555 1_555
O2 Cu1A 1_555 1_555
C2 C6 1_555 1_555
C3 C9 1_555 1_555
C5 C10 1_555 1_555
C8 C9 1_555 1_555

#END
