
#######################################################################
#
#                 Cambridge Crystallographic Data Centre
#                                CCDC 
#
#######################################################################
#
# If this CIF has been generated from an entry in the Cambridge 
# Structural Database, then it will include bibliographic, chemical, 
# crystal, experimental, refinement or atomic coordinate data resulting 
# from the CCDC's data processing and validation procedures.
#
#######################################################################

data_ROBPON
_symmetry_cell_setting           monoclinic
_symmetry_space_group_name_H-M   'P 21/n'
_symmetry_Int_Tables_number      14
_space_group_name_Hall           '-P 2yn'
loop_
_symmetry_equiv_pos_site_id
_symmetry_equiv_pos_as_xyz
1 x,y,z
2 1/2-x,1/2+y,1/2-z
3 -x,-y,-z
4 1/2+x,1/2-y,1/2+z
_cell_length_a                   17.693(2)
_cell_length_b                   9.848(1)
_cell_length_c                   16.085(2)
_cell_angle_alpha                90
_cell_angle_beta                 111.82(1)
_cell_angle_gamma                90
_cell_volume                     2601.87
loop_
_atom_site_label
_atom_site_type_symbol
_atom_site_fract_x
_atom_site_fract_y
_atom_site_fract_z
Cu1 Cu 0.77549(2) 0.22316(4) 0.04806(3)
S1 S 0.52370(4) 0.04425(7) 0.13237(5)
S2 S 0.77549(4) 0.03228(8) 0.13884(6)
S3 S 0.64481(5) 0.30321(8) -0.03597(6)
N1 N 0.63351(14) -0.1045(2) 0.10184(16)
N2 N 0.50565(14) -0.2052(2) 0.07124(16)
N3 N 0.63142(15) 0.1046(3) 0.15151(17)
N4 N 0.42346(14) -0.0588(3) 0.10006(17)
C1 C 0.55699(17) -0.1012(3) 0.09916(18)
C2 C 0.67740(17) 0.0176(3) 0.13193(19)
C3 C 0.42646(16) -0.1804(3) 0.07022(19)
C4 C 0.66571(19) -0.2277(3) 0.0747(2)
C5 C 0.53124(19) -0.3362(3) 0.0449(2)
C6 C 0.62233(20) -0.3507(3) 0.0912(2)
C7 C 0.65842(21) 0.2374(4) 0.1917(2)
C8 C 0.35308(19) -0.0050(4) 0.1159(2)
S4 S 1.06603(4) 0.48490(8) 0.13788(5)
S5 S 0.81795(5) 0.42664(9) 0.13463(7)
S6 S 0.85864(5) 0.15285(8) -0.02821(6)
N5 N 0.92019(15) 0.5898(3) 0.08956(18)
N6 N 1.01851(14) 0.7168(2) 0.05663(17)
N7 N 0.97683(15) 0.3978(3) 0.15574(18)
N8 N 1.13519(15) 0.6054(3) 0.10701(19)
C9 C 0.99510(17) 0.6084(3) 0.0905(2)
C10 C 0.90898(18) 0.4665(3) 0.1285(2)
C11 C 1.10137(18) 0.7160(3) 0.0665(2)
C12 C 0.85880(20) 0.6983(4) 0.0572(3)
C13 C 0.96185(21) 0.8317(3) 0.0194(3)
C14 C 0.87500(22) 0.7815(4) -0.0128(3)
C15 C 0.98715(22) 0.2656(4) 0.1989(2)
C16 C 1.22193(21) 0.5746(4) 0.1369(3)
H1 H 0.722(2) -0.227(4) 0.107(2)
H2 H 0.658(2) -0.219(4) 0.013(2)
H3 H 0.513(2) -0.334(3) -0.020(2)
H4 H 0.505(3) -0.403(4) 0.061(3)
H5 H 0.636(2) -0.423(3) 0.069(2)
H6 H 0.635(2) -0.367(4) 0.155(2)
H7 H 0.653(3) 0.298(5) 0.145(3)
H8 H 0.619(3) 0.276(5) 0.210(3)
H9 H 0.703(3) 0.230(6) 0.231(4)
H10 H 0.311(2) 0.011(4) 0.061(2)
H11 H 0.340(2) -0.073(4) 0.156(3)
H12 H 0.366(2) 0.082(4) 0.146(2)
H13 H 0.810(2) 0.658(4) 0.035(2)
H14 H 0.865(3) 0.755(5) 0.107(3)
H15 H 0.973(2) 0.868(3) -0.026(2)
H16 H 0.978(2) 0.898(3) 0.066(2)
H17 H 0.839(2) 0.855(4) -0.028(3)
H18 H 0.863(2) 0.727(4) -0.076(3)
H19 H 1.044(3) 0.250(4) 0.230(3)
H20 H 0.962(3) 0.261(5) 0.239(3)
H21 H 0.956(2) 0.196(4) 0.154(3)
H22 H 1.251(3) 0.649(5) 0.165(3)
H23 H 1.234(3) 0.500(6) 0.179(3)
H24 H 1.230(4) 0.546(6) 0.082(4)
S3B S 0.35519(5) -0.30321(8) 0.03597(6)
Cu1B Cu 0.22451(2) -0.22316(4) -0.04806(3)
S6B S 1.14136(5) 0.84715(8) 0.02821(6)
Cu1B_2 Cu 1.22451(2) 0.77684(4) -0.04806(3)
Cl1 Cl 0.56210(7) 0.61774(10) -0.21074(7)
O1 O 0.5224(3) 0.7360(4) -0.2561(2)
O2 O 0.5874(3) 0.5313(4) -0.2634(3)
O3 O 0.6237(3) 0.6467(4) -0.1288(3)
O4 O 0.5012(3) 0.5410(6) -0.1889(4)
loop_
_geom_bond_atom_site_label_1
_geom_bond_atom_site_label_2
_geom_bond_site_symmetry_1
_geom_bond_site_symmetry_2
Cu1 S2 1_555 1_555
S1 N3 1_555 1_555
S2 C2 1_555 1_555
S3 Cu1 1_555 1_555
N1 C1 1_555 1_555
N2 C1 1_555 1_555
N3 C2 1_555 1_555
N4 S1 1_555 1_555
C1 S1 1_555 1_555
C2 N1 1_555 1_555
C3 N2 1_555 1_555
C4 N1 1_555 1_555
C5 N2 1_555 1_555
C6 C4 1_555 1_555
C7 N3 1_555 1_555
C8 N4 1_555 1_555
S4 N7 1_555 1_555
S5 Cu1 1_555 1_555
S6 Cu1 1_555 1_555
N5 C9 1_555 1_555
N6 C9 1_555 1_555
N7 C10 1_555 1_555
N8 S4 1_555 1_555
C9 S4 1_555 1_555
C10 S5 1_555 1_555
C11 N6 1_555 1_555
C12 N5 1_555 1_555
C13 N6 1_555 1_555
C14 C12 1_555 1_555
C15 N7 1_555 1_555
C16 N8 1_555 1_555
H1 C4 1_555 1_555
H2 C4 1_555 1_555
H3 C5 1_555 1_555
H4 C5 1_555 1_555
H5 C6 1_555 1_555
H6 C6 1_555 1_555
H7 C7 1_555 1_555
H8 C7 1_555 1_555
H9 C7 1_555 1_555
H10 C8 1_555 1_555
H11 C8 1_555 1_555
H12 C8 1_555 1_555
H13 C12 1_555 1_555
H14 C12 1_555 1_555
H15 C13 1_555 1_555
H16 C13 1_555 1_555
H17 C14 1_555 1_555
H18 C14 1_555 1_555
H19 C15 1_555 1_555
H20 C15 1_555 1_555
H21 C15 1_555 1_555
H22 C16 1_555 1_555
H23 C16 1_555 1_555
H24 C16 1_555 1_555
Cl1 O1 1_555 1_555
O2 Cl1 1_555 1_555
O3 Cl1 1_555 1_555
O4 Cl1 1_555 1_555
S3B C3 1_555 1_555
Cu1B S3B 1_555 1_555
S6B C11 1_555 1_555
Cu1B_2 S6B 1_555 1_555
N4 C3 1_555 1_555
C5 C6 1_555 1_555
N5 C10 1_555 1_555
N8 C11 1_555 1_555
C13 C14 1_555 1_555

#END
