
#######################################################################
#
#                 Cambridge Crystallographic Data Centre
#                                CCDC 
#
#######################################################################
#
# If this CIF has been generated from an entry in the Cambridge 
# Structural Database, then it will include bibliographic, chemical, 
# crystal, experimental, refinement or atomic coordinate data resulting 
# from the CCDC's data processing and validation procedures.
#
#######################################################################

data_ROBQIJ
_symmetry_cell_setting           triclinic
_symmetry_space_group_name_H-M   'P -1'
_symmetry_Int_Tables_number      2
_space_group_name_Hall           '-P 1'
loop_
_symmetry_equiv_pos_site_id
_symmetry_equiv_pos_as_xyz
1 x,y,z
2 -x,-y,-z
_cell_length_a                   7.3523(15)
_cell_length_b                   13.565(3)
_cell_length_c                   18.490(4)
_cell_angle_alpha                104.140(4)
_cell_angle_beta                 90.958(4)
_cell_angle_gamma                103.544(4)
_cell_volume                     1733.12
loop_
_atom_site_label
_atom_site_type_symbol
_atom_site_fract_x
_atom_site_fract_y
_atom_site_fract_z
C1 C 0.0170(5) 0.5185(3) 0.34268(19)
C2 C -0.0389(5) 0.5617(3) 0.28069(18)
C3 C -0.0330(5) 0.6643(3) 0.29667(19)
H1 H -0.0059 0.7039 0.3460
C4 C -0.0668(5) 0.7141(3) 0.24051(18)
C5 C -0.0492(5) 0.8234(3) 0.2578(2)
H2 H -0.0108 0.8634 0.3065
C6 C -0.0033(6) 1.0421(3) 0.2873(2)
H3 H -0.0017 1.1132 0.2877
H4 H 0.1220 1.0370 0.2979
H5 H -0.0816 1.0211 0.3246
C7 C -0.0873(5) 0.8718(3) 0.2047(2)
C8 C -0.1440(6) 0.8099(3) 0.1305(2)
C9 C -0.2251(7) 0.8113(3) 0.0058(2)
H6 H -0.2474 0.8590 -0.0221
H7 H -0.3359 0.7554 0.0011
H8 H -0.1226 0.7828 -0.0133
C10 C -0.1561(5) 0.7061(3) 0.1126(2)
H9 H -0.1902 0.6677 0.0632
C11 C -0.1184(5) 0.6536(3) 0.16653(18)
C12 C -0.1320(5) 0.5431(3) 0.14934(19)
C13 C -0.1894(5) 0.4758(3) 0.07698(19)
H10 H -0.2208 0.5044 0.0391
C14 C -0.2004(6) 0.3716(3) 0.0607(2)
C15 C -0.3068(7) 0.3419(3) -0.0668(2)
H11 H -0.3418 0.2854 -0.1113
H12 H -0.2028 0.3944 -0.0755
H13 H -0.4112 0.3722 -0.0540
C16 C -0.1521(5) 0.3260(3) 0.1177(2)
C17 C -0.1147(6) 0.1704(3) 0.1476(2)
H14 H -0.1337 0.0968 0.1246
H15 H -0.1893 0.1799 0.1897
H16 H 0.0155 0.2002 0.1642
C18 C -0.0963(5) 0.3879(3) 0.18747(19)
H17 H -0.0647 0.3579 0.2245
C19 C -0.0846(5) 0.4968(3) 0.20581(18)
C20 C 0.6735(5) 0.3150(2) 0.44148(17)
C21 C 0.6257(4) 0.2007(2) 0.40319(17)
C22 C 0.5382(5) 0.1592(2) 0.32847(18)
C23 C 0.4955(5) 0.2261(2) 0.28618(18)
H18 H 0.5145 0.2974 0.3085
C24 C 0.4023(6) 0.3546(3) 0.2004(2)
H19 H 0.3676 0.3866 0.1631
H20 H 0.5303 0.3872 0.2192
H21 H 0.3221 0.3634 0.2407
C25 C 0.4274(5) 0.1879(3) 0.21382(19)
C26 C 0.4002(5) 0.0799(3) 0.17846(19)
C27 C 0.3212(7) -0.0560(3) 0.0661(2)
H22 H 0.2776 -0.0662 0.0150
H23 H 0.2323 -0.1007 0.0890
H24 H 0.4405 -0.0730 0.0679
C28 C 0.4356(5) 0.0141(2) 0.21961(19)
H25 H 0.4146 -0.0572 0.1967
C29 C 0.5027(4) 0.0510(2) 0.29512(18)
C30 C 0.5414(5) -0.0185(2) 0.33864(18)
C31 C 0.4989(5) -0.1280(2) 0.31097(19)
H26 H 0.4344 -0.1588 0.2642
C32 C 0.5503(5) -0.1900(2) 0.3514(2)
C33 C 0.4435(6) -0.3481(3) 0.2545(2)
H27 H 0.4255 -0.4224 0.2471
H28 H 0.5306 -0.3244 0.2206
H29 H 0.3256 -0.3328 0.2452
C34 C 0.6503(5) -0.1448(3) 0.42199(19)
C35 C 0.8204(6) -0.1713(3) 0.5223(2)
H30 H 0.8487 -0.2270 0.5404
H31 H 0.7573 -0.1312 0.5591
H32 H 0.9349 -0.1266 0.5130
C36 C 0.6832(5) -0.0402(2) 0.45164(19)
H33 H 0.7419 -0.0110 0.4996
C37 C 0.6297(5) 0.0254(2) 0.41082(17)
C38 C 0.6720(5) 0.1351(2) 0.44158(18)
H34 H 0.7330 0.1631 0.4892
Ni1 Ni 0.5000 0.5000 0.5000
Ni2 Ni 0.0000 0.5000 0.5000
O1 O -0.0631(3) 0.53540(19) 0.40196(12)
O2 O 0.1468(4) 0.4722(2) 0.33297(13)
O3 O -0.0751(4) 0.9755(2) 0.21588(15)
O4 O -0.1801(4) 0.8656(2) 0.08255(14)
O5 O -0.2545(4) 0.3030(2) -0.00736(14)
O6 O -0.1691(4) 0.2213(2) 0.09462(14)
O7 O 0.2229(3) 0.43988(16) 0.45363(11)
H35 H 0.1477 0.3950 0.4193
H36 H 0.3408 0.4586 0.4516
O8 O 0.5767(3) 0.55098(17) 0.40698(12)
H37 H 0.4983 0.5501 0.3724
H38 H 0.6902 0.5496 0.4002
O9 O 0.5417(3) 0.36000(16) 0.44703(12)
O10 O 0.8392(3) 0.35484(17) 0.46573(14)
O11 O 0.3827(4) 0.24537(18) 0.16796(13)
O12 O 0.3405(4) 0.05061(18) 0.10544(13)
O13 O 0.5158(4) -0.29620(17) 0.32915(14)
O14 O 0.7034(4) -0.21417(18) 0.45515(14)
C1A C -0.0170(5) 0.4815(3) 0.65732(19)
C2A C 0.0389(5) 0.4383(3) 0.71931(18)
C3A C 0.0330(5) 0.3357(3) 0.70333(19)
H1A H 0.0059 0.2961 0.6540
C4A C 0.0668(5) 0.2859(3) 0.75949(18)
C5A C 0.0492(5) 0.1766(3) 0.7422(2)
H2A H 0.0108 0.1366 0.6935
C6A C 0.0033(6) -0.0421(3) 0.7127(2)
H3A H 0.0017 -0.1132 0.7123
H4A H -0.1220 -0.0370 0.7021
H5A H 0.0816 -0.0211 0.6754
C7A C 0.0873(5) 0.1282(3) 0.7953(2)
C8A C 0.1440(6) 0.1901(3) 0.8695(2)
C9A C 0.2251(7) 0.1887(3) 0.9942(2)
H6A H 0.2474 0.1410 1.0221
H7A H 0.3359 0.2446 0.9989
H8A H 0.1226 0.2172 1.0133
C10A C 0.1561(5) 0.2939(3) 0.8874(2)
H9A H 0.1902 0.3323 0.9368
C11A C 0.1184(5) 0.3464(3) 0.83347(18)
C12A C 0.1320(5) 0.4569(3) 0.85066(19)
C13A C 0.1894(5) 0.5242(3) 0.92302(19)
H10A H 0.2208 0.4956 0.9609
C14A C 0.2004(6) 0.6284(3) 0.9393(2)
C15A C 0.3068(7) 0.6581(3) 1.0668(2)
H11A H 0.3418 0.7146 1.1113
H12A H 0.2028 0.6056 1.0755
H13A H 0.4112 0.6278 1.0540
C16A C 0.1521(5) 0.6740(3) 0.8823(2)
C17A C 0.1147(6) 0.8296(3) 0.8524(2)
H14A H 0.1337 0.9032 0.8754
H15A H 0.1893 0.8201 0.8103
H16A H -0.0155 0.7998 0.8358
C18A C 0.0963(5) 0.6121(3) 0.81253(19)
H17A H 0.0647 0.6421 0.7755
C19A C 0.0846(5) 0.5032(3) 0.79419(18)
C20A C 0.3265(5) 0.6850(2) 0.55852(17)
C21A C 0.3743(4) 0.7993(2) 0.59681(17)
C22A C 0.4618(5) 0.8408(2) 0.67153(18)
C23A C 0.5045(5) 0.7739(2) 0.71382(18)
H18A H 0.4855 0.7026 0.6915
C24A C 0.5977(6) 0.6454(3) 0.7996(2)
H19A H 0.6324 0.6134 0.8369
H20A H 0.4697 0.6128 0.7808
H21A H 0.6779 0.6366 0.7593
C25A C 0.5726(5) 0.8121(3) 0.78618(19)
C26A C 0.5998(5) 0.9201(3) 0.82154(19)
C27A C 0.6788(7) 1.0560(3) 0.9339(2)
H22A H 0.7224 1.0662 0.9850
H23A H 0.7677 1.1007 0.9110
H24A H 0.5595 1.0730 0.9321
C28A C 0.5644(5) 0.9859(2) 0.78039(19)
H25A H 0.5854 1.0572 0.8033
C29A C 0.4973(4) 0.9490(2) 0.70488(18)
C30A C 0.4586(5) 1.0185(2) 0.66136(18)
C31A C 0.5011(5) 1.1280(2) 0.68903(19)
H26A H 0.5656 1.1588 0.7358
C32A C 0.4497(5) 1.1900(2) 0.6486(2)
C33A C 0.5565(6) 1.3481(3) 0.7455(2)
H27A H 0.5745 1.4224 0.7529
H28A H 0.4694 1.3244 0.7794
H29A H 0.6744 1.3328 0.7548
C34A C 0.3497(5) 1.1448(3) 0.57801(19)
C35A C 0.1796(6) 1.1713(3) 0.4777(2)
H30A H 0.1513 1.2270 0.4596
H31A H 0.2427 1.1312 0.4409
H32A H 0.0651 1.1266 0.4870
C36A C 0.3168(5) 1.0402(2) 0.54836(19)
H33A H 0.2581 1.0110 0.5004
C37A C 0.3703(5) 0.9746(2) 0.58918(17)
C38A C 0.3280(5) 0.8649(2) 0.55842(18)
H34A H 0.2670 0.8369 0.5108
Ni2_2 Ni 1.0000 0.5000 0.5000
O1A O 0.0631(3) 0.46460(19) 0.59804(12)
O2A O -0.1468(4) 0.5278(2) 0.66703(13)
O3A O 0.0751(4) 0.0245(2) 0.78412(15)
O4A O 0.1801(4) 0.1344(2) 0.91745(14)
O5A O 0.2545(4) 0.6970(2) 1.00736(14)
O6A O 0.1691(4) 0.7787(2) 0.90538(14)
O7A O 0.7771(3) 0.56012(16) 0.54637(11)
O7A_2 O -0.2229(3) 0.56012(16) 0.54637(11)
H35A H 0.8523 0.6050 0.5807
H35A_2 H -0.1477 0.6050 0.5807
H36A H 0.6592 0.5414 0.5484
H36A_2 H -0.3408 0.5414 0.5484
O8A O 0.4233(3) 0.44902(17) 0.59302(12)
H37A H 0.5017 0.4499 0.6276
H38A H 0.3098 0.4504 0.5998
O9A O 0.4583(3) 0.64000(16) 0.55297(12)
O10A O 0.1608(3) 0.64516(17) 0.53427(14)
O10_2 O -0.1608(3) 0.35484(17) 0.46573(14)
O11A O 0.6173(4) 0.75463(18) 0.83204(13)
O12A O 0.6595(4) 0.94939(18) 0.89456(13)
O13A O 0.4842(4) 1.29620(17) 0.67085(14)
O14A O 0.2966(4) 1.21417(18) 0.54485(14)
loop_
_geom_bond_atom_site_label_1
_geom_bond_atom_site_label_2
_geom_bond_site_symmetry_1
_geom_bond_site_symmetry_2
C1 C2 1_555 1_555
C2 C3 1_555 1_555
C3 H1 1_555 1_555
C4 C3 1_555 1_555
C5 C4 1_555 1_555
H2 C5 1_555 1_555
C6 H3 1_555 1_555
H4 C6 1_555 1_555
H5 C6 1_555 1_555
C7 C5 1_555 1_555
C8 C7 1_555 1_555
C9 H6 1_555 1_555
H7 C9 1_555 1_555
H8 C9 1_555 1_555
C10 C8 1_555 1_555
H9 C10 1_555 1_555
C11 C4 1_555 1_555
C12 C11 1_555 1_555
C13 C12 1_555 1_555
H10 C13 1_555 1_555
C14 C13 1_555 1_555
C15 H11 1_555 1_555
H12 C15 1_555 1_555
H13 C15 1_555 1_555
C16 C14 1_555 1_555
C17 H14 1_555 1_555
H15 C17 1_555 1_555
H16 C17 1_555 1_555
C18 C16 1_555 1_555
H17 C18 1_555 1_555
C19 C2 1_555 1_555
C20 C21 1_555 1_555
C21 C22 1_555 1_555
C22 C23 1_555 1_555
C23 H18 1_555 1_555
C24 H19 1_555 1_555
H20 C24 1_555 1_555
H21 C24 1_555 1_555
C25 C23 1_555 1_555
C26 C25 1_555 1_555
C27 H22 1_555 1_555
H23 C27 1_555 1_555
H24 C27 1_555 1_555
C28 C26 1_555 1_555
H25 C28 1_555 1_555
C29 C22 1_555 1_555
C30 C29 1_555 1_555
C31 C30 1_555 1_555
H26 C31 1_555 1_555
C32 C31 1_555 1_555
C33 H27 1_555 1_555
H28 C33 1_555 1_555
H29 C33 1_555 1_555
C34 C32 1_555 1_555
C35 H30 1_555 1_555
H31 C35 1_555 1_555
H32 C35 1_555 1_555
C36 C34 1_555 1_555
H33 C36 1_555 1_555
C37 C30 1_555 1_555
C38 C21 1_555 1_555
H34 C38 1_555 1_555
Ni1 O7 1_555 1_555
Ni2 O1 1_555 1_555
O1 C1 1_555 1_555
O2 C1 1_555 1_555
O3 C6 1_555 1_555
O4 C8 1_555 1_555
O5 C14 1_555 1_555
O6 C16 1_555 1_555
O7 Ni2 1_555 1_555
H35 O7 1_555 1_555
H36 O7 1_555 1_555
O8 Ni1 1_555 1_555
H37 O8 1_555 1_555
H38 O8 1_555 1_555
O9 C20 1_555 1_555
O10 C20 1_555 1_555
O11 C24 1_555 1_555
O12 C26 1_555 1_555
O13 C32 1_555 1_555
O14 C34 1_555 1_555
C1A C2A 1_555 1_555
C2A C3A 1_555 1_555
C3A H1A 1_555 1_555
C4A C3A 1_555 1_555
C5A C4A 1_555 1_555
H2A C5A 1_555 1_555
C6A H3A 1_555 1_555
H4A C6A 1_555 1_555
H5A C6A 1_555 1_555
C7A C5A 1_555 1_555
C8A C7A 1_555 1_555
C9A H6A 1_555 1_555
H7A C9A 1_555 1_555
H8A C9A 1_555 1_555
C10A C8A 1_555 1_555
H9A C10A 1_555 1_555
C11A C4A 1_555 1_555
C12A C11A 1_555 1_555
C13A C12A 1_555 1_555
H10A C13A 1_555 1_555
C14A C13A 1_555 1_555
C15A H11A 1_555 1_555
H12A C15A 1_555 1_555
H13A C15A 1_555 1_555
C16A C14A 1_555 1_555
C17A H14A 1_555 1_555
H15A C17A 1_555 1_555
H16A C17A 1_555 1_555
C18A C16A 1_555 1_555
H17A C18A 1_555 1_555
C19A C2A 1_555 1_555
C20A C21A 1_555 1_555
C21A C22A 1_555 1_555
C22A C23A 1_555 1_555
C23A H18A 1_555 1_555
C24A H19A 1_555 1_555
H20A C24A 1_555 1_555
H21A C24A 1_555 1_555
C25A C23A 1_555 1_555
C26A C25A 1_555 1_555
C27A H22A 1_555 1_555
H23A C27A 1_555 1_555
H24A C27A 1_555 1_555
C28A C26A 1_555 1_555
H25A C28A 1_555 1_555
C29A C22A 1_555 1_555
C30A C29A 1_555 1_555
C31A C30A 1_555 1_555
H26A C31A 1_555 1_555
C32A C31A 1_555 1_555
C33A H27A 1_555 1_555
H28A C33A 1_555 1_555
H29A C33A 1_555 1_555
C34A C32A 1_555 1_555
C35A H30A 1_555 1_555
H31A C35A 1_555 1_555
H32A C35A 1_555 1_555
C36A C34A 1_555 1_555
H33A C36A 1_555 1_555
C37A C30A 1_555 1_555
C38A C21A 1_555 1_555
H34A C38A 1_555 1_555
Ni2_2 O10 1_555 1_555
O1A Ni2 1_555 1_555
O2A C1A 1_555 1_555
O3A C6A 1_555 1_555
O4A C8A 1_555 1_555
O5A C14A 1_555 1_555
O6A C16A 1_555 1_555
O7A Ni1 1_555 1_555
O7A_2 Ni2 1_555 1_555
H35A O7A 1_555 1_555
H35A_2 O7A_2 1_555 1_555
H36A O7A 1_555 1_555
H36A_2 O7A_2 1_555 1_555
O8A Ni1 1_555 1_555
H37A O8A 1_555 1_555
H38A O8A 1_555 1_555
O9A Ni1 1_555 1_555
O10A Ni2 1_555 1_555
O10_2 Ni2 1_555 1_555
O11A C24A 1_555 1_555
O12A C26A 1_555 1_555
O13A C32A 1_555 1_555
O14A C34A 1_555 1_555
C7 O3 1_555 1_555
C9 O4 1_555 1_555
C10 C11 1_555 1_555
C12 C19 1_555 1_555
C15 O5 1_555 1_555
C17 O6 1_555 1_555
C18 C19 1_555 1_555
C25 O11 1_555 1_555
C27 O12 1_555 1_555
C28 C29 1_555 1_555
C33 O13 1_555 1_555
C35 O14 1_555 1_555
C36 C37 1_555 1_555
C37 C38 1_555 1_555
Ni1 O9 1_555 1_555
C1A O1A 1_555 1_555
C7A O3A 1_555 1_555
C9A O4A 1_555 1_555
C10A C11A 1_555 1_555
C12A C19A 1_555 1_555
C15A O5A 1_555 1_555
C17A O6A 1_555 1_555
C18A C19A 1_555 1_555
C20A O9A 1_555 1_555
C20A O10A 1_555 1_555
C25A O11A 1_555 1_555
C27A O12A 1_555 1_555
C28A C29A 1_555 1_555
C33A O13A 1_555 1_555
C35A O14A 1_555 1_555
C36A C37A 1_555 1_555
C37A C38A 1_555 1_555
Ni2_2 O7A 1_555 1_555

#END
