
#######################################################################
#
#                 Cambridge Crystallographic Data Centre
#                                CCDC 
#
#######################################################################
#
# If this CIF has been generated from an entry in the Cambridge 
# Structural Database, then it will include bibliographic, chemical, 
# crystal, experimental, refinement or atomic coordinate data resulting 
# from the CCDC's data processing and validation procedures.
#
#######################################################################

data_ROBQOP
_symmetry_cell_setting           triclinic
_symmetry_space_group_name_H-M   'P -1'
_symmetry_Int_Tables_number      2
_space_group_name_Hall           '-P 1'
loop_
_symmetry_equiv_pos_site_id
_symmetry_equiv_pos_as_xyz
1 x,y,z
2 -x,-y,-z
_cell_length_a                   7.4524(12)
_cell_length_b                   13.623(2)
_cell_length_c                   18.469(3)
_cell_angle_alpha                104.144(3)
_cell_angle_beta                 90.345(3)
_cell_angle_gamma                104.269(3)
_cell_volume                     1757.73
loop_
_atom_site_label
_atom_site_type_symbol
_atom_site_fract_x
_atom_site_fract_y
_atom_site_fract_z
C1 C -0.5194(5) 0.4792(3) 0.1586(2)
C2 C -0.4657(5) 0.4364(3) 0.2215(2)
C3 C -0.4707(5) 0.3331(3) 0.2046(2)
H1 H -0.4973 0.2935 0.1553
C4 C -0.4357(5) 0.2842(3) 0.2615(2)
C5 C -0.4532(5) 0.1746(3) 0.2429(2)
H2 H -0.4915 0.1349 0.1943
C6 C -0.4138(5) 0.1269(3) 0.2963(2)
C7 C -0.4956(6) -0.0432(3) 0.2133(2)
H3 H -0.6230 -0.0436 0.2048
H4 H -0.4872 -0.1130 0.2110
H5 H -0.4241 -0.0176 0.1756
C8 C -0.3573(6) 0.1883(3) 0.3701(2)
C9 C -0.2761(6) 0.1877(3) 0.4951(2)
H6 H -0.1653 0.2433 0.4998
H7 H -0.2569 0.1401 0.5233
H8 H -0.3771 0.2164 0.5139
C10 C -0.3439(5) 0.2932(3) 0.3886(2)
H9 H -0.3083 0.3320 0.4376
C11 C -0.3832(5) 0.3442(3) 0.3343(2)
C12 C -0.3685(5) 0.4561(3) 0.3523(2)
C13 C -0.3099(5) 0.5228(3) 0.4240(2)
H10 H -0.2774 0.4946 0.4617
C14 C -0.2992(6) 0.6276(3) 0.4403(2)
C15 C -0.1913(6) 0.6572(3) 0.5677(2)
H11 H -0.2921 0.6021 0.5753
H12 H -0.1619 0.7129 0.6127
H13 H -0.0845 0.6304 0.5555
C16 C -0.3482(5) 0.6717(3) 0.3837(2)
C17 C -0.3838(6) 0.8262(3) 0.3530(2)
H14 H -0.3146 0.8134 0.3095
H15 H -0.3579 0.9002 0.3750
H16 H -0.5141 0.7987 0.3388
C18 C -0.4052(5) 0.6093(3) 0.3140(2)
H17 H -0.4378 0.6389 0.2771
C19 C -0.4166(5) 0.5003(3) 0.2956(2)
C20 C -0.1713(5) 0.6862(3) 0.0585(2)
C21 C -0.1245(5) 0.8016(2) 0.0971(2)
C22 C -0.1714(5) 0.8656(3) 0.0587(2)
H18 H -0.2319 0.8371 0.0112
C23 C -0.1295(5) 0.9762(3) 0.0899(2)
C24 C -0.1844(5) 1.0402(3) 0.0490(2)
H19 H -0.2430 1.0105 0.0013
C25 C -0.1518(5) 1.1454(3) 0.0791(2)
C26 C -0.3220(6) 1.1719(3) -0.0204(2)
H20 H -0.2487 1.1515 -0.0613
H21 H -0.3795 1.2238 -0.0298
H22 H -0.4162 1.1118 -0.0158
C27 C -0.0538(5) 1.1904(3) 0.1496(2)
C28 C 0.0481(5) 1.3477(3) 0.2466(2)
H23 H -0.0341 1.3179 0.2800
H24 H 0.0550 1.4210 0.2560
H25 H 0.1695 1.3384 0.2549
C29 C -0.0014(5) 1.1300(3) 0.1901(2)
H26 H 0.0614 1.1613 0.2370
C30 C -0.0418(5) 1.0191(3) 0.1615(2)
C31 C -0.0025(5) 0.9506(3) 0.2049(2)
C32 C -0.0382(5) 0.8415(3) 0.1707(2)
C33 C 0.0057(5) 0.7761(3) 0.2135(2)
H27 H -0.0119 0.7051 0.1911
C34 C 0.0725(5) 0.8138(3) 0.2859(2)
C35 C 0.0974(5) 0.6479(3) 0.2987(2)
H28 H -0.0311 0.6134 0.2845
H29 H 0.1429 0.6174 0.3344
H30 H 0.1677 0.6399 0.2553
C36 C 0.1003(5) 0.9222(3) 0.3207(2)
C37 C 0.1773(6) 1.0569(3) 0.4335(2)
H31 H 0.2671 1.1018 0.4110
H32 H 0.2177 1.0671 0.4849
H33 H 0.0597 1.0734 0.4310
C38 C 0.0639(5) 0.9873(3) 0.2806(2)
H34 H 0.0834 1.0582 0.3038
Co1 Co 0.0000 0.5000 0.0000
Co2 Co -0.5000 0.5000 0.0000
O1 O -0.4387(3) 0.46430(19) 0.09990(13)
O2 O -0.6484(4) 0.5248(2) 0.16909(14)
O3 O -0.3312(4) 0.7759(2) 0.40622(16)
O4 O -0.2437(4) 0.6959(2) 0.50794(16)
O5 O -0.3193(4) 0.1330(2) 0.41826(16)
O6 O -0.4257(4) 0.0228(2) 0.28488(16)
O7 O -0.0434(3) 0.64109(16) 0.05276(14)
O8 O 0.1162(4) 0.75644(18) 0.33148(14)
O9 O 0.1586(4) 0.95071(18) 0.39436(15)
O10 O -0.0199(4) 1.29695(17) 0.17169(15)
O11 O -0.2067(4) 1.21391(18) 0.04662(15)
O12 O -0.3377(3) 0.64609(17) 0.03440(15)
O13 O 0.2755(3) 0.56357(16) 0.04943(12)
H35 H 0.4055 0.5951 0.0543
H36 H 0.2542 0.5629 0.1004
O14 O -0.0827(3) 0.44919(16) 0.09463(12)
H37 H -0.2079 0.4520 0.1037
H38 H -0.0636 0.3849 0.0995
C1A C -0.4806(5) 0.5208(3) -0.1586(2)
C2A C -0.5343(5) 0.5636(3) -0.2215(2)
C3A C -0.5293(5) 0.6669(3) -0.2046(2)
H1A H -0.5027 0.7065 -0.1553
C4A C -0.5643(5) 0.7158(3) -0.2615(2)
C5A C -0.5468(5) 0.8254(3) -0.2429(2)
H2A H -0.5085 0.8651 -0.1943
C6A C -0.5862(5) 0.8731(3) -0.2963(2)
C7A C -0.5044(6) 1.0432(3) -0.2133(2)
H3A H -0.3770 1.0436 -0.2048
H4A H -0.5128 1.1130 -0.2110
H5A H -0.5759 1.0176 -0.1756
C8A C -0.6427(6) 0.8117(3) -0.3701(2)
C9A C -0.7239(6) 0.8123(3) -0.4951(2)
H6A H -0.8347 0.7567 -0.4998
H7A H -0.7431 0.8599 -0.5233
H8A H -0.6229 0.7836 -0.5139
C10A C -0.6561(5) 0.7068(3) -0.3886(2)
H9A H -0.6917 0.6680 -0.4376
C11A C -0.6168(5) 0.6558(3) -0.3343(2)
C12A C -0.6315(5) 0.5439(3) -0.3523(2)
C13A C -0.6901(5) 0.4772(3) -0.4240(2)
H10A H -0.7226 0.5054 -0.4617
C14A C -0.7008(6) 0.3724(3) -0.4403(2)
C15A C -0.8087(6) 0.3428(3) -0.5677(2)
H11A H -0.7079 0.3979 -0.5753
H12A H -0.8381 0.2871 -0.6127
H13A H -0.9155 0.3696 -0.5555
C16A C -0.6518(5) 0.3283(3) -0.3837(2)
C17A C -0.6162(6) 0.1738(3) -0.3530(2)
H14A H -0.6854 0.1866 -0.3095
H15A H -0.6421 0.0998 -0.3750
H16A H -0.4859 0.2013 -0.3388
C18A C -0.5948(5) 0.3907(3) -0.3140(2)
H17A H -0.5622 0.3611 -0.2771
C19A C -0.5834(5) 0.4997(3) -0.2956(2)
C20A C 0.1713(5) 0.3138(3) -0.0585(2)
C21A C 0.1245(5) 0.1984(2) -0.0971(2)
C22A C 0.1714(5) 0.1344(3) -0.0587(2)
H18A H 0.2319 0.1629 -0.0112
C23A C 0.1295(5) 0.0238(3) -0.0899(2)
C24A C 0.1844(5) -0.0402(3) -0.0490(2)
H19A H 0.2430 -0.0105 -0.0013
C25A C 0.1518(5) -0.1454(3) -0.0791(2)
C26A C 0.3220(6) -0.1719(3) 0.0204(2)
H20A H 0.2487 -0.1515 0.0613
H21A H 0.3795 -0.2238 0.0298
H22A H 0.4162 -0.1118 0.0158
C27A C 0.0538(5) -0.1904(3) -0.1496(2)
C28A C -0.0481(5) -0.3477(3) -0.2466(2)
H23A H 0.0341 -0.3179 -0.2800
H24A H -0.0550 -0.4210 -0.2560
H25A H -0.1695 -0.3384 -0.2549
C29A C 0.0014(5) -0.1300(3) -0.1901(2)
H26A H -0.0614 -0.1613 -0.2370
C30A C 0.0418(5) -0.0191(3) -0.1615(2)
C31A C 0.0025(5) 0.0494(3) -0.2049(2)
C32A C 0.0382(5) 0.1585(3) -0.1707(2)
C33A C -0.0057(5) 0.2239(3) -0.2135(2)
H27A H 0.0119 0.2949 -0.1911
C34A C -0.0725(5) 0.1862(3) -0.2859(2)
C35A C -0.0974(5) 0.3521(3) -0.2987(2)
H28A H 0.0311 0.3866 -0.2845
H29A H -0.1429 0.3826 -0.3344
H30A H -0.1677 0.3601 -0.2553
C36A C -0.1003(5) 0.0778(3) -0.3207(2)
C37A C -0.1773(6) -0.0569(3) -0.4335(2)
H31A H -0.2671 -0.1018 -0.4110
H32A H -0.2177 -0.0671 -0.4849
H33A H -0.0597 -0.0734 -0.4310
C38A C -0.0639(5) 0.0127(3) -0.2806(2)
H34A H -0.0834 -0.0582 -0.3038
Co2_2 Co 0.5000 0.5000 0.0000
O1A O -0.5613(3) 0.53570(19) -0.09990(13)
O2A O -0.3516(4) 0.4752(2) -0.16909(14)
O3A O -0.6688(4) 0.2241(2) -0.40622(16)
O4A O -0.7563(4) 0.3041(2) -0.50794(16)
O5A O -0.6807(4) 0.8670(2) -0.41826(16)
O6A O -0.5743(4) 0.9772(2) -0.28488(16)
O7A O 0.0434(3) 0.35891(16) -0.05276(14)
O8A O -0.1162(4) 0.24356(18) -0.33148(14)
O9A O -0.1586(4) 0.04929(18) -0.39436(15)
O10A O 0.0199(4) -0.29695(17) -0.17169(15)
O11A O 0.2067(4) -0.21391(18) -0.04662(15)
O12A O 0.3377(3) 0.35391(17) -0.03440(15)
O12A_2 O -0.6623(3) 0.35391(17) -0.03440(15)
O13A O -0.2755(3) 0.43643(16) -0.04943(12)
O13_2 O -0.7245(3) 0.56357(16) 0.04943(12)
H35A H -0.4055 0.4049 -0.0543
H35_2 H -0.5945 0.5951 0.0543
H36A H -0.2542 0.4371 -0.1004
H36_2 H -0.7458 0.5629 0.1004
O14A O 0.0827(3) 0.55081(16) -0.09463(12)
H37A H 0.2079 0.5480 -0.1037
H38A H 0.0636 0.6151 -0.0995
loop_
_geom_bond_atom_site_label_1
_geom_bond_atom_site_label_2
_geom_bond_site_symmetry_1
_geom_bond_site_symmetry_2
C1 C2 1_555 1_555
C2 C3 1_555 1_555
C3 H1 1_555 1_555
C4 C3 1_555 1_555
C5 C4 1_555 1_555
H2 C5 1_555 1_555
C6 C5 1_555 1_555
C7 H3 1_555 1_555
H4 C7 1_555 1_555
H5 C7 1_555 1_555
C8 C6 1_555 1_555
C9 H6 1_555 1_555
H7 C9 1_555 1_555
H8 C9 1_555 1_555
C10 C8 1_555 1_555
H9 C10 1_555 1_555
C11 C4 1_555 1_555
C12 C11 1_555 1_555
C13 C12 1_555 1_555
H10 C13 1_555 1_555
C14 C13 1_555 1_555
C15 H11 1_555 1_555
H12 C15 1_555 1_555
H13 C15 1_555 1_555
C16 C14 1_555 1_555
C17 H14 1_555 1_555
H15 C17 1_555 1_555
H16 C17 1_555 1_555
C18 C16 1_555 1_555
H17 C18 1_555 1_555
C19 C2 1_555 1_555
C20 C21 1_555 1_555
C21 C22 1_555 1_555
C22 H18 1_555 1_555
C23 C22 1_555 1_555
C24 C23 1_555 1_555
H19 C24 1_555 1_555
C25 C24 1_555 1_555
C26 H20 1_555 1_555
H21 C26 1_555 1_555
H22 C26 1_555 1_555
C27 C25 1_555 1_555
C28 H23 1_555 1_555
H24 C28 1_555 1_555
H25 C28 1_555 1_555
C29 C27 1_555 1_555
H26 C29 1_555 1_555
C30 C23 1_555 1_555
C31 C30 1_555 1_555
C32 C21 1_555 1_555
C33 C32 1_555 1_555
H27 C33 1_555 1_555
C34 C33 1_555 1_555
C35 H28 1_555 1_555
H29 C35 1_555 1_555
H30 C35 1_555 1_555
C36 C34 1_555 1_555
C37 H31 1_555 1_555
H32 C37 1_555 1_555
H33 C37 1_555 1_555
C38 C31 1_555 1_555
H34 C38 1_555 1_555
Co1 O7 1_555 1_555
Co2 O1 1_555 1_555
O1 C1 1_555 1_555
O2 C1 1_555 1_555
O3 C16 1_555 1_555
O4 C14 1_555 1_555
O5 C8 1_555 1_555
O6 C6 1_555 1_555
O7 C20 1_555 1_555
O8 C34 1_555 1_555
O9 C36 1_555 1_555
O10 C27 1_555 1_555
O11 C25 1_555 1_555
O12 C20 1_555 1_555
O13 Co1 1_555 1_555
H35 O13 1_555 1_555
H36 O13 1_555 1_555
O14 Co1 1_555 1_555
H37 O14 1_555 1_555
H38 O14 1_555 1_555
C1A C2A 1_555 1_555
C2A C3A 1_555 1_555
C3A H1A 1_555 1_555
C4A C3A 1_555 1_555
C5A C4A 1_555 1_555
H2A C5A 1_555 1_555
C6A C5A 1_555 1_555
C7A H3A 1_555 1_555
H4A C7A 1_555 1_555
H5A C7A 1_555 1_555
C8A C6A 1_555 1_555
C9A H6A 1_555 1_555
H7A C9A 1_555 1_555
H8A C9A 1_555 1_555
C10A C8A 1_555 1_555
H9A C10A 1_555 1_555
C11A C4A 1_555 1_555
C12A C11A 1_555 1_555
C13A C12A 1_555 1_555
H10A C13A 1_555 1_555
C14A C13A 1_555 1_555
C15A H11A 1_555 1_555
H12A C15A 1_555 1_555
H13A C15A 1_555 1_555
C16A C14A 1_555 1_555
C17A H14A 1_555 1_555
H15A C17A 1_555 1_555
H16A C17A 1_555 1_555
C18A C16A 1_555 1_555
H17A C18A 1_555 1_555
C19A C2A 1_555 1_555
C20A C21A 1_555 1_555
C21A C22A 1_555 1_555
C22A H18A 1_555 1_555
C23A C22A 1_555 1_555
C24A C23A 1_555 1_555
H19A C24A 1_555 1_555
C25A C24A 1_555 1_555
C26A H20A 1_555 1_555
H21A C26A 1_555 1_555
H22A C26A 1_555 1_555
C27A C25A 1_555 1_555
C28A H23A 1_555 1_555
H24A C28A 1_555 1_555
H25A C28A 1_555 1_555
C29A C27A 1_555 1_555
H26A C29A 1_555 1_555
C30A C23A 1_555 1_555
C31A C30A 1_555 1_555
C32A C21A 1_555 1_555
C33A C32A 1_555 1_555
H27A C33A 1_555 1_555
C34A C33A 1_555 1_555
C35A H28A 1_555 1_555
H29A C35A 1_555 1_555
H30A C35A 1_555 1_555
C36A C34A 1_555 1_555
C37A H31A 1_555 1_555
H32A C37A 1_555 1_555
H33A C37A 1_555 1_555
C38A C31A 1_555 1_555
H34A C38A 1_555 1_555
Co2_2 O13 1_555 1_555
O1A Co2 1_555 1_555
O2A C1A 1_555 1_555
O3A C16A 1_555 1_555
O4A C14A 1_555 1_555
O5A C8A 1_555 1_555
O6A C6A 1_555 1_555
O7A Co1 1_555 1_555
O8A C34A 1_555 1_555
O9A C36A 1_555 1_555
O10A C27A 1_555 1_555
O11A C25A 1_555 1_555
O12A C20A 1_555 1_555
O12A_2 Co2 1_555 1_555
O13A Co1 1_555 1_555
O13_2 Co2 1_555 1_555
H35A O13A 1_555 1_555
H35_2 O13_2 1_555 1_555
H36A O13A 1_555 1_555
H36_2 O13_2 1_555 1_555
O14A Co1 1_555 1_555
H37A O14A 1_555 1_555
H38A O14A 1_555 1_555
C7 O6 1_555 1_555
C9 O5 1_555 1_555
C10 C11 1_555 1_555
C12 C19 1_555 1_555
C15 O4 1_555 1_555
C17 O3 1_555 1_555
C18 C19 1_555 1_555
C26 O11 1_555 1_555
C28 O10 1_555 1_555
C29 C30 1_555 1_555
C31 C32 1_555 1_555
C35 O8 1_555 1_555
C36 C38 1_555 1_555
C37 O9 1_555 1_555
Co2 O12 1_555 1_555
Co2 O13A 1_555 1_555
C1A O1A 1_555 1_555
C7A O6A 1_555 1_555
C9A O5A 1_555 1_555
C10A C11A 1_555 1_555
C12A C19A 1_555 1_555
C15A O4A 1_555 1_555
C17A O3A 1_555 1_555
C18A C19A 1_555 1_555
C20A O7A 1_555 1_555
C26A O11A 1_555 1_555
C28A O10A 1_555 1_555
C29A C30A 1_555 1_555
C31A C32A 1_555 1_555
C35A O8A 1_555 1_555
C36A C38A 1_555 1_555
C37A O9A 1_555 1_555
Co2_2 O12A 1_555 1_555

#END
