
#######################################################################
#
#                 Cambridge Crystallographic Data Centre
#                                CCDC 
#
#######################################################################
#
# If this CIF has been generated from an entry in the Cambridge 
# Structural Database, then it will include bibliographic, chemical, 
# crystal, experimental, refinement or atomic coordinate data resulting 
# from the CCDC's data processing and validation procedures.
#
#######################################################################

data_ROBSAD
_symmetry_cell_setting           monoclinic
_symmetry_space_group_name_H-M   'P 21/c'
_symmetry_Int_Tables_number      14
_space_group_name_Hall           '-P 2ybc'
loop_
_symmetry_equiv_pos_site_id
_symmetry_equiv_pos_as_xyz
1 x,y,z
2 -x,1/2+y,1/2-z
3 -x,-y,-z
4 x,1/2-y,1/2+z
_cell_length_a                   13.581(3)
_cell_length_b                   8.3193(18)
_cell_length_c                   7.8176(17)
_cell_angle_alpha                90
_cell_angle_beta                 97.341(3)
_cell_angle_gamma                90
_cell_volume                     876.027
loop_
_atom_site_label
_atom_site_type_symbol
_atom_site_fract_x
_atom_site_fract_y
_atom_site_fract_z
Zn1 Zn 0.067815(16) 0.53233(3) 0.24368(3)
P1 P 0.12350(4) 0.61090(6) 0.63808(6)
H1 H 0.1874 0.6369 0.7055
O1 O 0.14686(12) 0.5440(2) 0.4681(2)
O2 O 0.06521(12) 0.76657(18) 0.6172(2)
O3 O 0.07426(11) 0.4860(2) 0.74159(19)
N1 N 0.12972(12) 0.3536(2) 0.1184(2)
C1 C 0.23909(15) 0.3349(3) 0.1655(3)
H2 H 0.2621 0.2425 0.1062
H3 H 0.2540 0.3166 0.2887
C2 C 0.29211(17) 0.4839(3) 0.1164(3)
H4 H 0.2679 0.5751 0.1761
H5 H 0.2750 0.5020 -0.0064
C3 C 0.40516(17) 0.4781(3) 0.1571(3)
H6 H 0.4300 0.3933 0.0889
H7 H 0.4321 0.5789 0.1215
N2 N 0.44242(13) 0.4504(2) 0.3392(2)
C4 C 0.55108(16) 0.4627(3) 0.3606(3)
H8 H 0.5700 0.5690 0.3256
H9 H 0.5776 0.3848 0.2862
C5 C 0.40451(16) 0.5670(3) 0.4546(3)
H10 H 0.3328 0.5585 0.4453
H11 H 0.4209 0.6749 0.4208
Zn1C Zn 0.067815(16) 0.96767(3) -0.25632(3)
Zn1C_2 Zn 0.067815(16) 0.96767(3) 0.74368(3)
Zn1B Zn -0.067815(16) 0.46767(3) 0.75632(3)
Zn1B_2 Zn 0.932185(16) 0.46767(3) 0.75632(3)
Zn1A Zn -0.067815(16) 1.03233(3) 0.25632(3)
P1C P 0.12350(4) 0.88910(6) 0.13808(6)
H1C H 0.1874 0.8631 0.2055
O1C O 0.14686(12) 0.9560(2) -0.0319(2)
O2C O 0.06521(12) 0.73343(18) 0.1172(2)
O2_2 O 0.06521(12) 0.76657(18) -0.3828(2)
O3C O 0.07426(11) 1.0140(2) 0.24159(19)
O3B O -0.07426(11) 0.5140(2) 0.25841(19)
O3A O -0.07426(11) 0.9860(2) -0.24159(19)
N1B N 0.87028(12) 0.6464(2) 0.8816(2)
N1C N 0.12972(12) 1.1464(2) -0.3816(2)
C1B C 0.76091(15) 0.6651(3) 0.8345(3)
H2B H 0.7379 0.7575 0.8938
H3B H 0.7460 0.6834 0.7113
C2B C 0.70789(17) 0.5161(3) 0.8836(3)
H4B H 0.7321 0.4249 0.8239
H5B H 0.7250 0.4980 1.0064
C3B C 0.59484(17) 0.5219(3) 0.8429(3)
H6B H 0.5700 0.6067 0.9111
H7B H 0.5679 0.4211 0.8785
N2B N 0.55758(13) 0.5496(2) 0.6608(2)
C4B C 0.44892(16) 0.5373(3) 0.6394(3)
H8B H 0.4300 0.4310 0.6744
H9B H 0.4224 0.6152 0.7138
C5B C 0.59549(16) 0.4330(3) 0.5454(3)
H10B H 0.6672 0.4415 0.5547
H11B H 0.5791 0.3251 0.5792
loop_
_geom_bond_atom_site_label_1
_geom_bond_atom_site_label_2
_geom_bond_site_symmetry_1
_geom_bond_site_symmetry_2
Zn1 O1 1_555 1_555
P1 H1 1_555 1_555
O1 P1 1_555 1_555
O2 P1 1_555 1_555
O3 P1 1_555 1_555
N1 Zn1 1_555 1_555
C1 N1 1_555 1_555
H2 C1 1_555 1_555
H3 C1 1_555 1_555
C2 C1 1_555 1_555
H4 C2 1_555 1_555
H5 C2 1_555 1_555
C3 C2 1_555 1_555
H6 C3 1_555 1_555
H7 C3 1_555 1_555
N2 C3 1_555 1_555
C4 N2 1_555 1_555
H8 C4 1_555 1_555
H9 C4 1_555 1_555
C5 N2 1_555 1_555
H10 C5 1_555 1_555
H11 C5 1_555 1_555
Zn1C O1C 1_555 1_555
Zn1C_2 O2 1_555 1_555
Zn1B O3 1_555 1_555
Zn1B_2 N1B 1_555 1_555
Zn1A O3C 1_555 1_555
P1C H1C 1_555 1_555
O1C P1C 1_555 1_555
O2C Zn1 1_555 1_555
O2_2 Zn1C 1_555 1_555
O3C P1C 1_555 1_555
O3B Zn1 1_555 1_555
O3A Zn1C 1_555 1_555
N1B C1B 1_555 1_555
N1C Zn1C 1_555 1_555
C1B H2B 1_555 1_555
H3B C1B 1_555 1_555
C2B C1B 1_555 1_555
H4B C2B 1_555 1_555
H5B C2B 1_555 1_555
C3B C2B 1_555 1_555
H6B C3B 1_555 1_555
H7B C3B 1_555 1_555
N2B C3B 1_555 1_555
C4B C5 1_555 1_555
H8B C4B 1_555 1_555
H9B C4B 1_555 1_555
C5B C4 1_555 1_555
H10B C5B 1_555 1_555
H11B C5B 1_555 1_555
P1C O2C 1_555 1_555
N2B C4B 1_555 1_555
N2B C5B 1_555 1_555

#END
