
#######################################################################
#
#                 Cambridge Crystallographic Data Centre
#                                CCDC 
#
#######################################################################
#
# If this CIF has been generated from an entry in the Cambridge 
# Structural Database, then it will include bibliographic, chemical, 
# crystal, experimental, refinement or atomic coordinate data resulting 
# from the CCDC's data processing and validation procedures.
#
#######################################################################

data_ROBVOU
_symmetry_cell_setting           monoclinic
_symmetry_space_group_name_H-M   'C 2/c'
_symmetry_Int_Tables_number      15
_space_group_name_Hall           '-C 2yn'
loop_
_symmetry_equiv_pos_site_id
_symmetry_equiv_pos_as_xyz
1 x,y,z
2 1/2+x,1/2+y,z
3 -x,y,1/2-z
4 1/2-x,1/2+y,1/2-z
5 -x,-y,-z
6 1/2-x,1/2-y,-z
7 x,-y,1/2+z
8 1/2+x,1/2-y,1/2+z
_cell_length_a                   26.622(3)
_cell_length_b                   7.4956(8)
_cell_length_c                   20.561(2)
_cell_angle_alpha                90
_cell_angle_beta                 118.530(2)
_cell_angle_gamma                90
_cell_volume                     3604.68
loop_
_atom_site_label
_atom_site_type_symbol
_atom_site_fract_x
_atom_site_fract_y
_atom_site_fract_z
C1 C 0.3925(3) 0.1775(12) 0.3619(4)
H1 H 0.4064 0.0696 0.3900
H2 H 0.3986 0.2757 0.3949
H3 H 0.4126 0.1990 0.3344
C2 C 0.3305(3) 0.1595(13) 0.3100(4)
C3 C 0.1219(4) 0.1738(9) 0.0849(4)
C4 C 0.0757(4) 0.1830(13) 0.0079(5)
H4 H 0.0579 0.0682 -0.0071
H5 H 0.0913 0.2177 -0.0238
H6 H 0.0479 0.2693 0.0042
C5 C 0.3961(3) 0.1018(8) 0.5915(4)
C6 C 0.3535(3) 0.0157(11) 0.6583(4)
H7 H 0.3544 -0.0080 0.7032
C7 C 0.3032(3) -0.0001(11) 0.5942(4)
H8 H 0.2702 -0.0350 0.5955
C8 C 0.3015(3) 0.0364(9) 0.5270(4)
C9 C 0.2497(3) 0.0311(10) 0.4554(4)
C10 C 0.1965(3) -0.0250(12) 0.4457(5)
H9 H 0.1929 -0.0620 0.4864
C11 C 0.1505(3) -0.0259(10) 0.3779(4)
H10 H 0.1150 -0.0605 0.3717
C12 C 0.1568(3) 0.0247(11) 0.3182(4)
H11 H 0.1248 0.0229 0.2715
C13 C 0.2511(3) 0.0731(10) 0.3921(4)
H12 H 0.2866 0.1026 0.3968
C14 C 0.5112(3) 0.1971(9) 0.6795(4)
H13 H 0.5117 0.0909 0.7067
H14 H 0.5480 0.2049 0.6806
C15 C 0.5042(3) 0.3604(11) 0.7193(4)
C16 C 0.5091(3) 0.5277(10) 0.6902(4)
H15 H 0.5160 0.5309 0.6499
C17 C 0.5039(3) 0.6837(10) 0.7208(5)
H16 H 0.5059 0.7917 0.6999
Hg1 Hg 0.212926(14) 0.15592(5) 0.222302(16)
N1 N 0.4022(3) 0.0652(9) 0.6576(3)
N2 N 0.3497(2) 0.0917(8) 0.5277(3)
N3 N 0.2069(3) 0.0766(9) 0.3242(4)
O1 O 0.3102(2) 0.0168(8) 0.2754(3)
O2 O 0.2998(2) 0.2946(7) 0.2985(3)
O3 O 0.1732(2) 0.1753(8) 0.0990(3)
O4 O 0.1081(2) 0.1566(8) 0.1349(3)
S1 S 0.45703(8) 0.1719(3) 0.58570(10)
C1C C 0.1075(3) 0.6775(12) 0.1381(4)
H1C H 0.0936 0.5696 0.1100
H2C H 0.1014 0.7757 0.1051
H3C H 0.0874 0.6990 0.1656
C2C C 0.1695(3) 0.6595(13) 0.1900(4)
C3B C 0.8781(4) 0.1738(9) 1.4151(4)
C4B C 0.9243(4) 0.1830(13) 1.4921(5)
H4B H 0.9421 0.0682 1.5071
H5B H 0.9087 0.2177 1.5238
H6B H 0.9521 0.2693 1.4958
C5B C 0.6039(3) 0.1018(8) 0.9085(4)
C6B C 0.6465(3) 0.0157(11) 0.8417(4)
H7B H 0.6456 -0.0080 0.7968
C7B C 0.6968(3) -0.0001(11) 0.9058(4)
H8B H 0.7298 -0.0350 0.9045
C8B C 0.6985(3) 0.0364(9) 0.9730(4)
C9B C 0.7503(3) 0.0311(10) 1.0446(4)
C10B C 0.8035(3) -0.0250(12) 1.0543(5)
H9B H 0.8071 -0.0620 1.0136
C11B C 0.8495(3) -0.0259(10) 1.1221(4)
H10B H 0.8850 -0.0605 1.1283
C12B C 0.8432(3) 0.0247(11) 1.1818(4)
H11B H 0.8752 0.0229 1.2285
C13B C 0.7489(3) 0.0731(10) 1.1079(4)
H12B H 0.7134 0.1026 1.1032
C14B C 0.4888(3) 0.1971(9) 0.8205(4)
H13B H 0.4883 0.0909 0.7933
H14B H 0.4520 0.2049 0.8194
C15B C 0.4958(3) 0.3604(11) 0.7807(4)
C16B C 0.4909(3) 0.5277(10) 0.8098(4)
H15B H 0.4840 0.5309 0.8501
C17B C 0.4961(3) 0.6837(10) 0.7792(5)
H16B H 0.4941 0.7917 0.8001
Hg1B Hg 0.787074(14) 0.15592(5) 1.277698(16)
Hg1C Hg 0.287074(14) -0.34408(5) 0.277698(16)
Hg1C_2 Hg 0.287074(14) 0.65592(5) 0.277698(16)
Hg1_2 Hg 0.212926(14) 1.15592(5) 0.222302(16)
N1B N 0.5978(3) 0.0652(9) 0.8424(3)
N2B N 0.6503(2) 0.0917(8) 0.9723(3)
N3B N 0.7931(3) 0.0766(9) 1.1758(4)
O1C O 0.1898(2) 0.5168(8) 0.2246(3)
O1A O 0.8102(2) 0.5168(8) 1.2754(3)
O1B O 0.6898(2) 0.0168(8) 1.2246(3)
O2C O 0.2002(2) 0.7946(7) 0.2015(3)
O2C_2 O 0.2002(2) -0.2054(7) 0.2015(3)
O2A O 0.7998(2) -0.2054(7) 1.2985(3)
O2B O 0.7002(2) 0.2946(7) 1.2015(3)
O3B O 0.8268(2) 0.1753(8) 1.4010(3)
O4B O 0.8919(2) 0.1566(8) 1.3651(3)
S1B S 0.54297(8) 0.1719(3) 0.91430(10)
loop_
_geom_bond_atom_site_label_1
_geom_bond_atom_site_label_2
_geom_bond_site_symmetry_1
_geom_bond_site_symmetry_2
C1 H1 1_555 1_555
H2 C1 1_555 1_555
H3 C1 1_555 1_555
C2 C1 1_555 1_555
C3 C4 1_555 1_555
C4 H4 1_555 1_555
H5 C4 1_555 1_555
H6 C4 1_555 1_555
C5 N1 1_555 1_555
C6 H7 1_555 1_555
C7 C6 1_555 1_555
H8 C7 1_555 1_555
C8 C7 1_555 1_555
C9 C8 1_555 1_555
C10 C9 1_555 1_555
H9 C10 1_555 1_555
C11 C10 1_555 1_555
H10 C11 1_555 1_555
C12 C11 1_555 1_555
H11 C12 1_555 1_555
C13 C9 1_555 1_555
H12 C13 1_555 1_555
C14 H13 1_555 1_555
H14 C14 1_555 1_555
C15 C14 1_555 1_555
C16 C15 1_555 1_555
H15 C16 1_555 1_555
C17 C16 1_555 1_555
H16 C17 1_555 1_555
Hg1 N3 1_555 1_555
N1 C6 1_555 1_555
N2 C5 1_555 1_555
N3 C12 1_555 1_555
O1 C2 1_555 1_555
O2 C2 1_555 1_555
O3 C3 1_555 1_555
O4 C3 1_555 1_555
S1 C5 1_555 1_555
C1C H1C 1_555 1_555
H2C C1C 1_555 1_555
H3C C1C 1_555 1_555
C2C C1C 1_555 1_555
C3B C4B 1_555 1_555
C4B H4B 1_555 1_555
H5B C4B 1_555 1_555
H6B C4B 1_555 1_555
C5B N1B 1_555 1_555
C6B H7B 1_555 1_555
C7B C6B 1_555 1_555
H8B C7B 1_555 1_555
C8B C7B 1_555 1_555
C9B C8B 1_555 1_555
C10B C9B 1_555 1_555
H9B C10B 1_555 1_555
C11B C10B 1_555 1_555
H10B C11B 1_555 1_555
C12B C11B 1_555 1_555
H11B C12B 1_555 1_555
C13B C9B 1_555 1_555
H12B C13B 1_555 1_555
C14B H13B 1_555 1_555
H14B C14B 1_555 1_555
C15B C15 1_555 1_555
C16B C15B 1_555 1_555
H15B C16B 1_555 1_555
C17B C17 1_555 1_555
H16B C17B 1_555 1_555
Hg1B N3B 1_555 1_555
Hg1C O1 1_555 1_555
Hg1C_2 O2 1_555 1_555
Hg1_2 O2C 1_555 1_555
N1B C6B 1_555 1_555
N2B C5B 1_555 1_555
N3B C12B 1_555 1_555
O1C Hg1 1_555 1_555
O1A Hg1B 1_555 1_555
O1B Hg1B 1_555 1_555
O2C C2C 1_555 1_555
O2C_2 Hg1 1_555 1_555
O2A Hg1B 1_555 1_555
O2B Hg1B 1_555 1_555
O3B C3B 1_555 1_555
O4B C3B 1_555 1_555
S1B C5B 1_555 1_555
C8 N2 1_555 1_555
C13 N3 1_555 1_555
C14 S1 1_555 1_555
Hg1 O1 1_555 1_555
Hg1 O2 1_555 1_555
Hg1 O3 1_555 1_555
Hg1 O4 1_555 1_555
C2C O1C 1_555 1_555
C8B N2B 1_555 1_555
C13B N3B 1_555 1_555
C14B C15B 1_555 1_555
C14B S1B 1_555 1_555
C16B C17B 1_555 1_555
Hg1B O3B 1_555 1_555
Hg1B O4B 1_555 1_555
Hg1C O2C_2 1_555 1_555
Hg1C_2 O1C 1_555 1_555
Hg1C_2 O2C 1_555 1_555

#END
