
#######################################################################
#
#                 Cambridge Crystallographic Data Centre
#                                CCDC 
#
#######################################################################
#
# If this CIF has been generated from an entry in the Cambridge 
# Structural Database, then it will include bibliographic, chemical, 
# crystal, experimental, refinement or atomic coordinate data resulting 
# from the CCDC's data processing and validation procedures.
#
#######################################################################

data_ROBWEL
_symmetry_cell_setting           triclinic
_symmetry_space_group_name_H-M   'P -1'
_symmetry_Int_Tables_number      2
_space_group_name_Hall           '-P 1'
loop_
_symmetry_equiv_pos_site_id
_symmetry_equiv_pos_as_xyz
1 x,y,z
2 -x,-y,-z
_cell_length_a                   8.5040(9)
_cell_length_b                   12.4424(14)
_cell_length_c                   14.0037(15)
_cell_angle_alpha                111.023(2)
_cell_angle_beta                 92.892(2)
_cell_angle_gamma                96.700(2)
_cell_volume                     1366.83
loop_
_atom_site_label
_atom_site_type_symbol
_atom_site_fract_x
_atom_site_fract_y
_atom_site_fract_z
Hg1 Hg 0.04473(7) 1.23146(5) 0.35353(5)
I1 I 0.1946(2) 1.43155(16) 0.40677(16)
I2 I 0.05222(19) 1.02681(14) 0.24346(11)
S1 S -0.3468(6) 0.6586(4) 0.2361(4)
S2 S 0.3398(4) 0.7641(4) 0.0650(3)
N1 N -0.0755(17) 1.1926(12) 0.4920(9)
C1 C -0.403(2) 0.8741(18) 0.5582(13)
H1 H -0.4153 0.9161 0.6266
N2 N -0.3068(16) 0.8614(13) 0.3998(10)
N3 N 0.2099(14) 0.9116(14) -0.0068(9)
N4 N 0.4271(13) 0.9885(11) 0.1299(9)
N5 N 0.7871(13) 1.2608(10) 0.2993(9)
C2 C -0.147(2) 1.0835(14) 0.4727(12)
H2 H -0.1312 1.0265 0.4109
C3 C -0.084(3) 1.272(2) 0.5885(15)
H3 H -0.0279 1.3466 0.6100
C4 C -0.183(3) 1.236(2) 0.6566(15)
H4 H -0.1949 1.2904 0.7210
C5 C -0.256(2) 1.1296(16) 0.6291(13)
H5 H -0.3312 1.1295 0.6750
C6 C -0.2400(19) 1.0499(15) 0.5342(11)
C7 C -0.3223(19) 0.9253(16) 0.4970(13)
C8 C -0.462(2) 0.757(2) 0.5111(18)
H6 H -0.5132 0.7212 0.5510
N6 N -0.453(2) 0.6941(14) 0.4152(13)
C9 C -0.3678(18) 0.7494(14) 0.3637(13)
C10 C -0.254(2) 0.7581(14) 0.1837(14)
H7 H -0.3308 0.8050 0.1716
H8 H -0.1673 0.8096 0.2317
C11 C -0.1916(17) 0.6896(12) 0.0824(10)
C12 C -0.2927(19) 0.6123(13) 0.0018(13)
H9 H -0.4009 0.6003 0.0088
C13 C -0.238(2) 0.5538(15) -0.0871(13)
H10 H -0.3073 0.4982 -0.1395
C14 C -0.0800(19) 0.5736(14) -0.1032(11)
H11 H -0.0457 0.5345 -0.1669
C15 C 0.0289(18) 0.6534(13) -0.0227(12)
C16 C -0.0274(17) 0.7101(13) 0.0686(10)
H12 H 0.0423 0.7629 0.1228
C17 C 0.200(2) 0.6692(16) -0.0432(12)
H13 H 0.2058 0.6998 -0.0978
H14 H 0.2343 0.5932 -0.0684
C18 C 0.3223(14) 0.9004(13) 0.0619(11)
C19 C 0.2046(18) 1.0186(15) -0.0041(11)
H15 H 0.1303 1.0298 -0.0494
C20 C 0.3058(18) 1.1151(15) 0.0639(13)
H16 H 0.2994 1.1888 0.0631
C21 C 0.4150(16) 1.1003(15) 0.1320(10)
C22 C 0.5288(16) 1.1930(13) 0.2003(10)
C23 C 0.4959(19) 1.3069(15) 0.2351(13)
H17 H 0.4003 1.3234 0.2123
C24 C 0.607(2) 1.3975(13) 0.3048(12)
H18 H 0.5851 1.4736 0.3306
C25 C 0.750(2) 1.3697(14) 0.3335(13)
H19 H 0.8250 1.4292 0.3787
C26 C 0.6740(15) 1.1750(13) 0.2378(12)
H20 H 0.6945 1.0987 0.2193
Hg1_2 Hg 1.04473(7) 1.23146(5) 0.35353(5)
N5_2 N -0.2129(13) 1.2608(10) 0.2993(9)
loop_
_geom_bond_atom_site_label_1
_geom_bond_atom_site_label_2
_geom_bond_site_symmetry_1
_geom_bond_site_symmetry_2
Hg1 I1 1_555 1_555
I2 Hg1 1_555 1_555
S1 C9 1_555 1_555
S2 C17 1_555 1_555
N1 Hg1 1_555 1_555
C1 H1 1_555 1_555
N2 C7 1_555 1_555
N3 C18 1_555 1_555
N4 C18 1_555 1_555
N5 C25 1_555 1_555
C2 N1 1_555 1_555
H2 C2 1_555 1_555
C3 N1 1_555 1_555
H3 C3 1_555 1_555
C4 C3 1_555 1_555
H4 C4 1_555 1_555
C5 C4 1_555 1_555
H5 C5 1_555 1_555
C6 C2 1_555 1_555
C7 C1 1_555 1_555
C8 C1 1_555 1_555
H6 C8 1_555 1_555
N6 C8 1_555 1_555
C9 N2 1_555 1_555
C10 S1 1_555 1_555
H7 C10 1_555 1_555
H8 C10 1_555 1_555
C11 C10 1_555 1_555
C12 C11 1_555 1_555
H9 C12 1_555 1_555
C13 C12 1_555 1_555
H10 C13 1_555 1_555
C14 C13 1_555 1_555
H11 C14 1_555 1_555
C15 C14 1_555 1_555
C16 C11 1_555 1_555
H12 C16 1_555 1_555
C17 C15 1_555 1_555
H13 C17 1_555 1_555
H14 C17 1_555 1_555
C18 S2 1_555 1_555
C19 N3 1_555 1_555
H15 C19 1_555 1_555
C20 C19 1_555 1_555
H16 C20 1_555 1_555
C21 N4 1_555 1_555
C22 C21 1_555 1_555
C23 C22 1_555 1_555
H17 C23 1_555 1_555
C24 C23 1_555 1_555
H18 C24 1_555 1_555
C25 C24 1_555 1_555
H19 C25 1_555 1_555
C26 N5 1_555 1_555
H20 C26 1_555 1_555
Hg1_2 N5 1_555 1_555
N5_2 Hg1 1_555 1_555
C5 C6 1_555 1_555
C6 C7 1_555 1_555
N6 C9 1_555 1_555
C15 C16 1_555 1_555
C20 C21 1_555 1_555
C22 C26 1_555 1_555

#END
