
#######################################################################
#
#                 Cambridge Crystallographic Data Centre
#                                CCDC 
#
#######################################################################
#
# If this CIF has been generated from an entry in the Cambridge 
# Structural Database, then it will include bibliographic, chemical, 
# crystal, experimental, refinement or atomic coordinate data resulting 
# from the CCDC's data processing and validation procedures.
#
#######################################################################

data_ROBYUE
_symmetry_cell_setting           monoclinic
_symmetry_space_group_name_H-M   'C 2'
_symmetry_Int_Tables_number      5
_space_group_name_Hall           'C 2y'
loop_
_symmetry_equiv_pos_site_id
_symmetry_equiv_pos_as_xyz
1 x,y,z
2 -x,y,-z
3 1/2+x,1/2+y,z
4 1/2-x,1/2+y,-z
_cell_length_a                   17.0963(3)
_cell_length_b                   19.9054(3)
_cell_length_c                   14.0678(2)
_cell_angle_alpha                90
_cell_angle_beta                 95.9780(10)
_cell_angle_gamma                90
_cell_volume                     4761.36
loop_
_atom_site_label
_atom_site_type_symbol
_atom_site_fract_x
_atom_site_fract_y
_atom_site_fract_z
Zn3 Zn 0.49648(3) 0.63775(2) 0.60404(3)
O9 O 0.4166(3) 0.7104(2) 0.5681(4)
N3 N 0.49804(19) 0.6360(3) 0.7493(2)
O10 O 0.4166(3) 0.7056(2) 0.4083(3)
O11 O 0.0755(3) 1.0618(2) 0.5913(3)
O12 O 0.0899(3) 1.06789(19) 0.4360(3)
C35 C 0.3399(4) 0.7885(3) 0.4752(5)
C36 C 0.2517(4) 0.8678(3) 0.5440(5)
C37 C 0.1027(3) 1.0416(3) 0.5165(5)
C38 C 0.1557(3) 0.9808(3) 0.5265(5)
C39 C 0.3955(3) 0.7305(3) 0.4839(5)
C40 C 0.2422(4) 0.9039(3) 0.4570(5)
C41 C 0.3007(4) 0.8083(3) 0.5501(5)
H21 H 0.3057 0.7827 0.6074
C42 C 0.1651(4) 0.9431(3) 0.6133(5)
H22 H 0.1388 0.9570 0.6662
C43 C 0.4994(3) 0.6356(4) 0.9471(3)
C44 C 0.4385(3) 0.6625(3) 0.7918(3)
H23 H 0.3957 0.6822 0.7531
C45 C 0.4371(3) 0.6622(3) 0.8898(3)
H24 H 0.3932 0.6803 0.9175
C46 C 0.5571(3) 0.6092(3) 0.8050(3)
H25 H 0.5987 0.5889 0.7755
C47 C 0.3294(4) 0.8254(3) 0.3877(5)
H26 H 0.3559 0.8113 0.3350
C48 C 0.2816(4) 0.8813(3) 0.3787(4)
H27 H 0.2748 0.9048 0.3197
C49 C 0.5616(3) 0.6091(3) 0.9034(3)
H28 H 0.6063 0.5911 0.9405
C50 C 0.2102(4) 0.8888(3) 0.6205(5)
H29 H 0.2148 0.8636 0.6782
C51 C 0.1945(4) 0.9606(3) 0.4515(5)
H30 H 0.1887 0.9859 0.3939
N3A N 0.50196(19) 0.6360(3) 1.2507(2)
C43A C 0.5006(3) 0.6356(4) 1.0529(3)
C44A C 0.5615(3) 0.6625(3) 1.2082(3)
H23A H 0.6043 0.6822 1.2469
C45A C 0.5629(3) 0.6622(3) 1.1102(3)
H24A H 0.6068 0.6803 1.0825
C46A C 0.4429(3) 0.6092(3) 1.1950(3)
H25A H 0.4013 0.5889 1.2245
C49A C 0.4384(3) 0.6091(3) 1.0966(3)
H28A H 0.3937 0.5911 1.0595
Zn3A Zn 0.50352(3) 0.63775(2) 0.39596(3)
O9A O 0.5834(3) 0.7104(2) 0.4319(4)
O10A O 0.5834(3) 0.7056(2) 0.5917(3)
O11A O 0.9245(3) 1.0618(2) 0.4087(3)
O12A O 0.9101(3) 1.06789(19) 0.5640(3)
C35A C 0.6601(4) 0.7885(3) 0.5248(5)
C36A C 0.7483(4) 0.8678(3) 0.4560(5)
C37A C 0.8973(3) 1.0416(3) 0.4835(5)
C38A C 0.8443(3) 0.9808(3) 0.4735(5)
C39A C 0.6045(3) 0.7305(3) 0.5161(5)
C40A C 0.7578(4) 0.9039(3) 0.5430(5)
C41A C 0.6993(4) 0.8083(3) 0.4499(5)
H21A H 0.6943 0.7827 0.3926
C42A C 0.8349(4) 0.9431(3) 0.3867(5)
H22A H 0.8612 0.9570 0.3338
C47A C 0.6706(4) 0.8254(3) 0.6123(5)
H26A H 0.6441 0.8113 0.6650
C48A C 0.7184(4) 0.8813(3) 0.6213(4)
H27A H 0.7252 0.9048 0.6803
C50A C 0.7898(4) 0.8888(3) 0.3795(5)
H29A H 0.7852 0.8636 0.3218
C51A C 0.8055(4) 0.9606(3) 0.5485(5)
H30A H 0.8113 0.9859 0.6061
Zn3A_2 Zn 0.50352(3) 0.63775(2) 1.39596(3)
Zn3B Zn -0.00352(3) 1.13775(2) 0.60404(3)
Zn3B_2 Zn 0.99648(3) 1.13775(2) 0.60404(3)
Zn3C Zn 0.00352(3) 1.13775(2) 0.39596(3)
Zn3C_2 Zn 1.00352(3) 1.13775(2) 0.39596(3)
N3A_2 N 0.50196(19) 0.6360(3) 0.2507(2)
O11B O 0.5755(3) 0.5618(2) 0.5913(3)
O11C O 0.4245(3) 0.5618(2) 0.4087(3)
O12B O 0.5899(3) 0.56789(19) 0.4360(3)
O12C O 0.4101(3) 0.56789(19) 0.5640(3)
Zn1 Zn 0.33402(2) 0.17228(3) 0.05678(3)
Zn2 Zn 0.32541(2) 0.17199(3) 0.26505(3)
N1 N 0.33225(19) 0.1747(3) -0.0876(2)
N2 N 0.32544(18) 0.1748(4) -0.5902(2)
O1 O 0.2425(3) 0.1010(2) 0.2292(3)
O2 O 0.2517(3) 0.0990(2) 0.0723(4)
O3 O -0.0819(3) -0.2578(2) 0.0967(3)
O4 O -0.0826(3) 0.6013(2) 0.0917(3)
O5 O -0.0916(3) -0.2562(2) 0.2536(3)
O6 O -0.0935(3) 0.5983(2) 0.2476(3)
O7 O 0.2421(3) 0.2427(2) 0.2251(4)
O8 O 0.2519(3) 0.2455(2) 0.0678(4)
C1 C -0.0654(3) -0.2348(3) 0.1796(5)
C2 C 0.0809(4) -0.0562(3) 0.2021(5)
C3 C 0.1230(4) 0.3400(3) 0.2013(5)
H1 H 0.1203 0.3093 0.2525
C4 C 0.0815(4) 0.4459(3) 0.1225(5)
C5 C 0.2276(4) 0.0763(3) 0.1473(5)
C6 C -0.0174(4) 0.5141(3) 0.1833(5)
C7 C 0.1759(3) 0.0146(3) 0.1374(5)
C8 C 0.1276(4) 0.0005(3) 0.2074(5)
H2 H 0.1265 0.0302 0.2601
C9 C -0.0680(4) 0.5759(3) 0.1726(5)
C10 C 0.2266(4) 0.2670(3) 0.1420(5)
C11 C -0.0107(4) -0.1756(3) 0.1885(5)
C12 C 0.0375(4) -0.1616(3) 0.1197(5)
H3 H 0.0401 -0.1922 0.0683
C13 C 0.1727(4) 0.3267(3) 0.1345(5)
C14 C -0.0121(4) -0.1315(3) 0.2680(5)
H4 H -0.0434 -0.1424 0.3178
C15 C 0.0318(4) -0.0728(3) 0.2738(5)
H5 H 0.0289 -0.0433 0.3265
C16 C 0.0745(4) 0.3990(3) 0.1970(5)
C17 C 0.3984(2) 0.1715(4) -0.1309(3)
H6 H 0.4471 0.1679 -0.0921
C18 C 0.2720(3) 0.1417(4) -0.5467(3)
H7 H 0.2327 0.1169 -0.5846
C19 C 0.2708(3) 0.1418(4) -0.4489(3)
H8 H 0.2313 0.1174 -0.4208
C20 C 0.3285(2) 0.1774(4) -0.2864(3)
C21 C 0.3269(2) 0.1772(4) -0.3917(3)
C22 C 0.3993(2) 0.1732(4) -0.2285(3)
H9 H 0.4478 0.1716 -0.2560
C23 C 0.2595(3) 0.1832(3) -0.2423(3)
H10 H 0.2102 0.1879 -0.2795
C24 C 0.2637(2) 0.1819(3) -0.1433(3)
H11 H 0.2165 0.1863 -0.1136
C25 C 0.3813(3) 0.2142(3) -0.4373(3)
H12 H 0.4204 0.2402 -0.4009
C26 C 0.3777(3) 0.2128(3) -0.5361(3)
H13 H 0.4135 0.2397 -0.5667
C27 C 0.0351(5) 0.5020(3) 0.1173(5)
H14 H 0.0392 0.5334 0.0672
C28 C 0.0196(4) 0.4123(4) 0.2624(5)
H15 H 0.0142 0.3810 0.3123
C29 C -0.0251(4) 0.4675(3) 0.2566(5)
H16 H -0.0618 0.4751 0.3017
C30 C 0.1339(4) -0.0851(3) 0.0531(5)
H17 H 0.1363 -0.1147 0.0004
C31 C 0.0845(4) -0.1011(3) 0.1232(5)
C32 C 0.1777(4) -0.0294(3) 0.0580(5)
H18 H 0.2100 -0.0193 0.0088
C33 C 0.1332(5) 0.4306(4) 0.0517(6)
H19 H 0.1383 0.4611 0.0007
C34 C 0.1762(5) 0.3708(4) 0.0577(6)
H20 H 0.2084 0.3598 0.0088
Zn1B Zn -0.16598(2) -0.32772(3) 0.05678(3)
Zn1B_2 Zn -0.16598(2) 0.67228(3) 0.05678(3)
Zn2_2 Zn 0.32541(2) 0.17199(3) -0.73495(3)
Zn2B Zn -0.17459(2) -0.32801(3) 0.26505(3)
Zn2B_2 Zn -0.17459(2) 0.67199(3) 0.26505(3)
N2_2 N 0.32544(18) 0.1748(4) 0.4098(2)
O3B O 0.4181(3) 0.2422(2) 0.0967(3)
O4B O 0.4174(3) 0.1013(2) 0.0917(3)
O5B O 0.4084(3) 0.2438(2) 0.2536(3)
O6B O 0.4065(3) 0.0983(2) 0.2476(3)
N4? N 0.0000 0.4898(5) 0.5000
O13? O 0.0000 0.3742(4) 0.5000
C52? C 0.0441(11) 0.5487(8) 0.4764(16)
H31? H 0.0887 0.5349 0.4425
H32? H 0.0635 0.5723 0.5353
H33? H 0.0098 0.5787 0.4356
C53? C 0.0301(8) 0.4287(5) 0.4934(10)
H34? H 0.0838 0.4276 0.4816
C54? C -0.0818(6) 0.5020(10) 0.5154(15)
H35? H -0.1063 0.5311 0.4646
H36? H -0.0840 0.5239 0.5775
H37? H -0.1101 0.4591 0.5145
loop_
_geom_bond_atom_site_label_1
_geom_bond_atom_site_label_2
_geom_bond_site_symmetry_1
_geom_bond_site_symmetry_2
Zn1 N1 1_555 1_555
Zn2 O1 1_555 1_555
N1 C17 1_555 1_555
N2 C18 1_555 1_555
O1 C5 1_555 1_555
O2 Zn1 1_555 1_555
O3 C1 1_555 1_555
O4 C9 1_555 1_555
O5 C1 1_555 1_555
O6 C9 1_555 1_555
O7 Zn2 1_555 1_555
O8 Zn1 1_555 1_555
C1 C11 1_555 1_555
C2 C8 1_555 1_555
C3 H1 1_555 1_555
C4 C16 1_555 1_555
C5 O2 1_555 1_555
C6 C9 1_555 1_555
C7 C5 1_555 1_555
C8 C7 1_555 1_555
H2 C8 1_555 1_555
C10 O7 1_555 1_555
C11 C12 1_555 1_555
C12 H3 1_555 1_555
C13 C3 1_555 1_555
C14 C11 1_555 1_555
H4 C14 1_555 1_555
C15 C2 1_555 1_555
H5 C15 1_555 1_555
C16 C3 1_555 1_555
C17 H6 1_555 1_555
C18 H7 1_555 1_555
C19 C18 1_555 1_555
H8 C19 1_555 1_555
C20 C21 1_555 1_555
C21 C19 1_555 1_555
C22 C17 1_555 1_555
H9 C22 1_555 1_555
C23 C20 1_555 1_555
H10 C23 1_555 1_555
C24 N1 1_555 1_555
H11 C24 1_555 1_555
C25 C21 1_555 1_555
H12 C25 1_555 1_555
C26 N2 1_555 1_555
H13 C26 1_555 1_555
C27 C4 1_555 1_555
H14 C27 1_555 1_555
C28 C16 1_555 1_555
H15 C28 1_555 1_555
C29 C6 1_555 1_555
H16 C29 1_555 1_555
C30 H17 1_555 1_555
C31 C2 1_555 1_555
C32 C7 1_555 1_555
H18 C32 1_555 1_555
C33 C4 1_555 1_555
H19 C33 1_555 1_555
C34 C13 1_555 1_555
H20 C34 1_555 1_555
Zn3 O9 1_555 1_555
O9 C39 1_555 1_555
N3 Zn3 1_555 1_555
O10 C39 1_555 1_555
O11 C37 1_555 1_555
O12 C37 1_555 1_555
C35 C39 1_555 1_555
C36 C40 1_555 1_555
C37 C38 1_555 1_555
C38 C42 1_555 1_555
C40 C48 1_555 1_555
C41 C35 1_555 1_555
H21 C41 1_555 1_555
C42 H22 1_555 1_555
C43 C45 1_555 1_555
C44 N3 1_555 1_555
H23 C44 1_555 1_555
C45 C44 1_555 1_555
H24 C45 1_555 1_555
C46 N3 1_555 1_555
H25 C46 1_555 1_555
C47 C35 1_555 1_555
H26 C47 1_555 1_555
C48 C47 1_555 1_555
H27 C48 1_555 1_555
C49 C43 1_555 1_555
H28 C49 1_555 1_555
C50 C36 1_555 1_555
H29 C50 1_555 1_555
C51 C38 1_555 1_555
H30 C51 1_555 1_555
Zn1B O3 1_555 1_555
Zn1B_2 O4 1_555 1_555
Zn2_2 N2 1_555 1_555
Zn2B O5 1_555 1_555
Zn2B_2 O6 1_555 1_555
N2_2 Zn2 1_555 1_555
O3B Zn1 1_555 1_555
O4B Zn1 1_555 1_555
O5B Zn2 1_555 1_555
O6B Zn2 1_555 1_555
N3A C44A 1_555 1_555
C43A C43 1_555 1_555
C44A H23A 1_555 1_555
C45A C43A 1_555 1_555
H24A C45A 1_555 1_555
C46A N3A 1_555 1_555
H25A C46A 1_555 1_555
C49A C43A 1_555 1_555
H28A C49A 1_555 1_555
Zn3A O10 1_555 1_555
O9A Zn3A 1_555 1_555
O10A Zn3 1_555 1_555
O11A C37A 1_555 1_555
O12A C37A 1_555 1_555
C35A C39A 1_555 1_555
C36A C40A 1_555 1_555
C37A C38A 1_555 1_555
C38A C42A 1_555 1_555
C39A O9A 1_555 1_555
C40A C48A 1_555 1_555
C41A C35A 1_555 1_555
H21A C41A 1_555 1_555
C42A H22A 1_555 1_555
C47A C35A 1_555 1_555
H26A C47A 1_555 1_555
C48A C47A 1_555 1_555
H27A C48A 1_555 1_555
C50A C36A 1_555 1_555
H29A C50A 1_555 1_555
C51A C38A 1_555 1_555
H30A C51A 1_555 1_555
Zn3A_2 N3A 1_555 1_555
Zn3B O11 1_555 1_555
Zn3B_2 O12A 1_555 1_555
Zn3C O12 1_555 1_555
Zn3C_2 O11A 1_555 1_555
N3A_2 Zn3A 1_555 1_555
O11B Zn3 1_555 1_555
O11C Zn3A 1_555 1_555
O12B Zn3A 1_555 1_555
O12C Zn3 1_555 1_555
O8 C10 1_555 1_555
C6 C27 1_555 1_555
C10 C13 1_555 1_555
C12 C31 1_555 1_555
C14 C15 1_555 1_555
C20 C22 1_555 1_555
C23 C24 1_555 1_555
C25 C26 1_555 1_555
C28 C29 1_555 1_555
C30 C31 1_555 1_555
C30 C32 1_555 1_555
C33 C34 1_555 1_555
C36 C41 1_555 1_555
C40 C51 1_555 1_555
C42 C50 1_555 1_555
C46 C49 1_555 1_555
C44A C45A 1_555 1_555
C46A C49A 1_555 1_555
O10A C39A 1_555 1_555
C36A C41A 1_555 1_555
C40A C51A 1_555 1_555
C42A C50A 1_555 1_555

#END
