
#######################################################################
#
#                 Cambridge Crystallographic Data Centre
#                                CCDC 
#
#######################################################################
#
# If this CIF has been generated from an entry in the Cambridge 
# Structural Database, then it will include bibliographic, chemical, 
# crystal, experimental, refinement or atomic coordinate data resulting 
# from the CCDC's data processing and validation procedures.
#
#######################################################################

data_ROBZAL
_symmetry_cell_setting           monoclinic
_symmetry_space_group_name_H-M   'C 2'
_symmetry_Int_Tables_number      5
_space_group_name_Hall           'C 2y'
loop_
_symmetry_equiv_pos_site_id
_symmetry_equiv_pos_as_xyz
1 x,y,z
2 -x,y,-z
3 1/2+x,1/2+y,z
4 1/2-x,1/2+y,-z
_cell_length_a                   17.1323(14)
_cell_length_b                   19.8444(16)
_cell_length_c                   14.0625(12)
_cell_angle_alpha                90
_cell_angle_beta                 96.1590(10)
_cell_angle_gamma                90
_cell_volume                     4753.38
loop_
_atom_site_label
_atom_site_type_symbol
_atom_site_fract_x
_atom_site_fract_y
_atom_site_fract_z
Zn3 Zn 0.49698(5) 0.62701(4) 0.60413(5)
O9 O 0.4175(5) 0.6992(4) 0.5690(6)
O10 O 0.4189(5) 0.6953(4) 0.4095(6)
O11 O 0.0774(5) 1.0511(4) 0.5925(5)
O12 O 0.0893(4) 1.0559(3) 0.4359(6)
N3 N 0.4984(3) 0.6258(6) 0.7501(4)
C35 C 0.2998(6) 0.7987(5) 0.5484(8)
H21 H 0.3042 0.7715 0.6043
C36 C 0.3403(6) 0.7800(5) 0.4739(8)
C37 C 0.3267(5) 0.8144(5) 0.3861(6)
H22 H 0.3508 0.7993 0.3322
C38 C 0.2794(6) 0.8686(5) 0.3789(7)
H23 H 0.2700 0.8915 0.3195
C39 C 0.2432(6) 0.8923(5) 0.4591(8)
C40 C 0.2528(6) 0.8556(5) 0.5460(8)
C41 C 0.2100(6) 0.8760(5) 0.6218(8)
H24 H 0.2135 0.8506 0.6795
C42 C 0.1642(6) 0.9313(5) 0.6121(8)
H25 H 0.1363 0.9442 0.6642
C43 C 0.1553(6) 0.9722(5) 0.5259(8)
C44 C 0.1939(6) 0.9513(5) 0.4501(7)
H26 H 0.1881 0.9759 0.3917
C45 C 0.3959(6) 0.7215(5) 0.4830(8)
C46 C 0.1023(6) 1.0322(4) 0.5164(8)
C47 C 0.4386(5) 0.6521(5) 0.7908(5)
H27 H 0.3959 0.6712 0.7512
C48 C 0.4368(5) 0.6527(6) 0.8894(5)
H28 H 0.3935 0.6715 0.9170
C49 C 0.4994(4) 0.6253(7) 0.9463(4)
C50 C 0.5610(5) 0.5967(5) 0.9039(6)
H29 H 0.6042 0.5767 0.9415
C51 C 0.5577(5) 0.5983(5) 0.8051(5)
H30 H 0.5997 0.5789 0.7756
N3A N 0.5016(3) 0.6258(6) 1.2499(4)
C47A C 0.5614(5) 0.6521(5) 1.2092(5)
H27A H 0.6041 0.6712 1.2488
C48A C 0.5632(5) 0.6527(6) 1.1106(5)
H28A H 0.6065 0.6715 1.0830
C49A C 0.5006(4) 0.6253(7) 1.0537(4)
C50A C 0.4390(5) 0.5967(5) 1.0961(6)
H29A H 0.3958 0.5767 1.0585
C51A C 0.4423(5) 0.5983(5) 1.1949(5)
H30A H 0.4003 0.5789 1.2244
Zn3A Zn 0.50302(5) 0.62701(4) 0.39587(5)
O9A O 0.5825(5) 0.6992(4) 0.4310(6)
O10A O 0.5811(5) 0.6953(4) 0.5905(6)
O11A O 0.9226(5) 1.0511(4) 0.4075(5)
O12A O 0.9107(4) 1.0559(3) 0.5641(6)
C35A C 0.7002(6) 0.7987(5) 0.4516(8)
H21A H 0.6958 0.7715 0.3957
C36A C 0.6597(6) 0.7800(5) 0.5261(8)
C37A C 0.6733(5) 0.8144(5) 0.6139(6)
H22A H 0.6492 0.7993 0.6678
C38A C 0.7206(6) 0.8686(5) 0.6211(7)
H23A H 0.7300 0.8915 0.6805
C39A C 0.7568(6) 0.8923(5) 0.5409(8)
C40A C 0.7472(6) 0.8556(5) 0.4540(8)
C41A C 0.7900(6) 0.8760(5) 0.3782(8)
H24A H 0.7865 0.8506 0.3205
C42A C 0.8358(6) 0.9313(5) 0.3879(8)
H25A H 0.8637 0.9442 0.3358
C43A C 0.8447(6) 0.9722(5) 0.4741(8)
C44A C 0.8061(6) 0.9513(5) 0.5499(7)
H26A H 0.8119 0.9759 0.6083
C45A C 0.6041(6) 0.7215(5) 0.5170(8)
C46A C 0.8977(6) 1.0322(4) 0.4836(8)
Zn3A_2 Zn 0.50302(5) 0.62701(4) 1.39587(5)
Zn3B Zn -0.00302(5) 1.12701(4) 0.60413(5)
Zn3B_2 Zn 0.99698(5) 1.12701(4) 0.60413(5)
Zn3C Zn 0.00302(5) 1.12701(4) 0.39587(5)
Zn3C_2 Zn 1.00302(5) 1.12701(4) 0.39587(5)
O11B O 0.5774(5) 0.5511(4) 0.5925(5)
O11C O 0.4226(5) 0.5511(4) 0.4075(5)
O12B O 0.5893(4) 0.5559(3) 0.4359(6)
O12C O 0.4107(4) 0.5559(3) 0.5641(6)
N3A_2 N 0.5016(3) 0.6258(6) 0.2499(4)
Zn1 Zn 0.33368(4) 0.16032(5) 0.05636(5)
Zn2 Zn 0.32594(4) 0.16049(5) 0.26488(5)
O1 O 0.2528(5) 0.2334(4) 0.0677(6)
O2 O 0.2428(5) 0.2304(4) 0.2250(6)
O3 O -0.0829(5) 0.5884(4) 0.0910(6)
O4 O -0.0924(5) 0.5868(4) 0.2467(6)
O5 O 0.2499(5) 0.0869(4) 0.0700(5)
O6 O 0.2430(5) 0.0888(3) 0.2277(6)
O7 O -0.0831(5) -0.2702(4) 0.0968(6)
O8 O -0.0923(5) -0.2676(4) 0.2537(6)
N1 N 0.3321(3) 0.1623(6) -0.0879(4)
N2 N 0.3253(3) 0.1632(6) -0.5906(3)
C1 C 0.1246(7) 0.3311(7) 0.1995(8)
H1 H 0.1227 0.2997 0.2502
C2 C 0.1731(6) 0.3177(5) 0.1340(8)
C3 C 0.1716(8) 0.3572(7) 0.0528(10)
H2 H 0.1992 0.3441 0.0007
C4 C 0.1299(8) 0.4147(7) 0.0499(9)
H3 H 0.1325 0.4445 -0.0026
C5 C 0.0818(7) 0.4325(6) 0.1233(9)
C6 C 0.0769(7) 0.3873(7) 0.1993(9)
C7 C 0.0227(6) 0.4000(6) 0.2655(8)
H4 H 0.0175 0.3690 0.3159
C8 C -0.0231(6) 0.4577(6) 0.2573(7)
H5 H -0.0595 0.4660 0.3025
C9 C -0.0162(6) 0.5050(5) 0.1814(8)
C10 C 0.0314(7) 0.4907(6) 0.1146(9)
H6 H 0.0320 0.5195 0.0607
C11 C 0.2265(6) 0.2575(5) 0.1414(8)
C12 C -0.0674(6) 0.5660(5) 0.1730(8)
C13 C 0.1288(6) -0.0099(5) 0.2083(7)
H7 H 0.1281 0.0191 0.2619
C14 C 0.1767(6) 0.0048(4) 0.1372(7)
C15 C 0.1790(6) -0.0404(5) 0.0595(7)
H8 H 0.2124 -0.0307 0.0115
C16 C 0.1335(6) -0.0983(5) 0.0518(7)
H9 H 0.1364 -0.1279 -0.0007
C17 C 0.0830(6) -0.1133(5) 0.1218(8)
C18 C 0.0811(6) -0.0686(5) 0.2004(8)
C19 C 0.0330(6) -0.0865(5) 0.2737(7)
H10 H 0.0316 -0.0573 0.3271
C20 C -0.0105(6) -0.1434(5) 0.2696(7)
H11 H -0.0405 -0.1548 0.3203
C21 C -0.0109(6) -0.1853(5) 0.1902(8)
C22 C 0.0380(6) -0.1714(5) 0.1203(7)
H12 H 0.0409 -0.2027 0.0698
C23 C 0.2271(6) 0.0661(4) 0.1476(7)
C24 C -0.0649(6) -0.2444(5) 0.1798(8)
C25 C 0.2649(4) 0.1696(6) -0.1432(5)
H13 H 0.2178 0.1739 -0.1136
C26 C 0.2604(4) 0.1713(5) -0.2424(5)
H14 H 0.2110 0.1761 -0.2794
C27 C 0.3287(4) 0.1659(7) -0.2870(4)
C28 C 0.3989(4) 0.1623(7) -0.2296(5)
H15 H 0.4472 0.1612 -0.2570
C29 C 0.3981(4) 0.1604(6) -0.1320(5)
H16 H 0.4469 0.1575 -0.0933
C30 C 0.3786(5) 0.1992(5) -0.5350(5)
H17 H 0.4159 0.2247 -0.5653
C31 C 0.3825(5) 0.2013(4) -0.4370(5)
H18 H 0.4217 0.2273 -0.4007
C32 C 0.3276(4) 0.1645(7) -0.3921(4)
C33 C 0.2723(5) 0.1316(6) -0.4499(5)
H19 H 0.2322 0.1079 -0.4221
C34 C 0.2720(5) 0.1312(6) -0.5474(5)
H20 H 0.2319 0.1071 -0.5850
Zn1B Zn -0.16632(4) -0.33968(5) 0.05636(5)
Zn1B_2 Zn -0.16632(4) 0.66032(5) 0.05636(5)
Zn2_2 Zn 0.32594(4) 0.16049(5) -0.73512(5)
Zn2B Zn -0.17406(4) -0.33951(5) 0.26488(5)
Zn2B_2 Zn -0.17406(4) 0.66049(5) 0.26488(5)
O3B O 0.4171(5) 0.0884(4) 0.0910(6)
O4B O 0.4076(5) 0.0868(4) 0.2467(6)
O7B O 0.4169(5) 0.2298(4) 0.0968(6)
O8B O 0.4077(5) 0.2324(4) 0.2537(6)
N2_2 N 0.3253(3) 0.1632(6) 0.4094(3)
C52? C 0.0813(8) 0.4881(17) 0.483(2)
C53? C -0.0289(15) 0.4160(9) 0.506(2)
O13? O 0.009(2) 0.3650(10) 0.494(3)
N4? N 0.0000 0.4782(9) 0.5000
H31? H -0.1091 0.5129 0.4638
H32? H -0.0832 0.5139 0.5766
C54? C -0.0473(18) 0.5351(13) 0.524(2)
H33? H -0.0727 0.5553 0.4647
H34? H -0.0137 0.5687 0.5590
H35? H -0.0875 0.5197 0.5633
H36? H -0.0813 0.4110 0.5213
H37? H 0.1065 0.4443 0.4763
loop_
_geom_bond_atom_site_label_1
_geom_bond_atom_site_label_2
_geom_bond_site_symmetry_1
_geom_bond_site_symmetry_2
Zn1 O1 1_555 1_555
Zn2 O2 1_555 1_555
O1 C11 1_555 1_555
O2 C11 1_555 1_555
O3 C12 1_555 1_555
O4 C12 1_555 1_555
O5 Zn1 1_555 1_555
O6 Zn2 1_555 1_555
O7 C24 1_555 1_555
O8 C24 1_555 1_555
N1 Zn1 1_555 1_555
N2 C30 1_555 1_555
C1 H1 1_555 1_555
C2 C1 1_555 1_555
C3 C2 1_555 1_555
H2 C3 1_555 1_555
C4 C3 1_555 1_555
H3 C4 1_555 1_555
C5 C4 1_555 1_555
C6 C1 1_555 1_555
C7 C6 1_555 1_555
H4 C7 1_555 1_555
C8 C7 1_555 1_555
H5 C8 1_555 1_555
C9 C8 1_555 1_555
C10 C5 1_555 1_555
H6 C10 1_555 1_555
C11 C2 1_555 1_555
C12 C9 1_555 1_555
C13 H7 1_555 1_555
C14 C13 1_555 1_555
C15 C14 1_555 1_555
H8 C15 1_555 1_555
C16 C15 1_555 1_555
H9 C16 1_555 1_555
C17 C16 1_555 1_555
C18 C13 1_555 1_555
C19 C18 1_555 1_555
H10 C19 1_555 1_555
C20 C19 1_555 1_555
H11 C20 1_555 1_555
C21 C20 1_555 1_555
C22 C17 1_555 1_555
H12 C22 1_555 1_555
C23 O5 1_555 1_555
C24 C21 1_555 1_555
C25 N1 1_555 1_555
H13 C25 1_555 1_555
C26 C25 1_555 1_555
H14 C26 1_555 1_555
C27 C26 1_555 1_555
C28 C27 1_555 1_555
H15 C28 1_555 1_555
C29 N1 1_555 1_555
H16 C29 1_555 1_555
C30 H17 1_555 1_555
C31 C30 1_555 1_555
H18 C31 1_555 1_555
C32 C27 1_555 1_555
C33 C32 1_555 1_555
H19 C33 1_555 1_555
C34 N2 1_555 1_555
H20 C34 1_555 1_555
Zn3 O9 1_555 1_555
O9 C45 1_555 1_555
O10 C45 1_555 1_555
O11 C46 1_555 1_555
O12 C46 1_555 1_555
N3 Zn3 1_555 1_555
C35 H21 1_555 1_555
C36 C35 1_555 1_555
C37 C36 1_555 1_555
H22 C37 1_555 1_555
C38 C37 1_555 1_555
H23 C38 1_555 1_555
C39 C38 1_555 1_555
C40 C35 1_555 1_555
C41 C40 1_555 1_555
H24 C41 1_555 1_555
C42 C41 1_555 1_555
H25 C42 1_555 1_555
C43 C42 1_555 1_555
C44 C39 1_555 1_555
H26 C44 1_555 1_555
C45 C36 1_555 1_555
C46 C43 1_555 1_555
C47 N3 1_555 1_555
H27 C47 1_555 1_555
C48 C47 1_555 1_555
H28 C48 1_555 1_555
C49 C48 1_555 1_555
C50 C49 1_555 1_555
H29 C50 1_555 1_555
C51 N3 1_555 1_555
H30 C51 1_555 1_555
Zn1B O7 1_555 1_555
Zn1B_2 O3 1_555 1_555
Zn2_2 N2 1_555 1_555
Zn2B O8 1_555 1_555
Zn2B_2 O4 1_555 1_555
O3B Zn1 1_555 1_555
O4B Zn2 1_555 1_555
O7B Zn1 1_555 1_555
O8B Zn2 1_555 1_555
N2_2 Zn2 1_555 1_555
N3A C47A 1_555 1_555
C47A H27A 1_555 1_555
C48A C47A 1_555 1_555
H28A C48A 1_555 1_555
C49A C49 1_555 1_555
C50A C49A 1_555 1_555
H29A C50A 1_555 1_555
C51A N3A 1_555 1_555
H30A C51A 1_555 1_555
Zn3A O10 1_555 1_555
O9A Zn3A 1_555 1_555
O10A Zn3 1_555 1_555
O11A C46A 1_555 1_555
O12A C46A 1_555 1_555
C35A H21A 1_555 1_555
C36A C35A 1_555 1_555
C37A C36A 1_555 1_555
H22A C37A 1_555 1_555
C38A C37A 1_555 1_555
H23A C38A 1_555 1_555
C39A C38A 1_555 1_555
C40A C35A 1_555 1_555
C41A C40A 1_555 1_555
H24A C41A 1_555 1_555
C42A C41A 1_555 1_555
H25A C42A 1_555 1_555
C43A C42A 1_555 1_555
C44A C39A 1_555 1_555
H26A C44A 1_555 1_555
C45A O9A 1_555 1_555
C46A C43A 1_555 1_555
Zn3A_2 N3A 1_555 1_555
Zn3B O11 1_555 1_555
Zn3B_2 O12A 1_555 1_555
Zn3C O12 1_555 1_555
Zn3C_2 O11A 1_555 1_555
O11B Zn3 1_555 1_555
O11C Zn3A 1_555 1_555
O12B Zn3A 1_555 1_555
O12C Zn3 1_555 1_555
N3A_2 Zn3A 1_555 1_555
O6 C23 1_555 1_555
C5 C6 1_555 1_555
C9 C10 1_555 1_555
C14 C23 1_555 1_555
C17 C18 1_555 1_555
C21 C22 1_555 1_555
C28 C29 1_555 1_555
C31 C32 1_555 1_555
C33 C34 1_555 1_555
C39 C40 1_555 1_555
C43 C44 1_555 1_555
C50 C51 1_555 1_555
C48A C49A 1_555 1_555
C50A C51A 1_555 1_555
O10A C45A 1_555 1_555
C36A C45A 1_555 1_555
C39A C40A 1_555 1_555
C43A C44A 1_555 1_555

#END
