
#######################################################################
#
#                 Cambridge Crystallographic Data Centre
#                                CCDC 
#
#######################################################################
#
# If this CIF has been generated from an entry in the Cambridge 
# Structural Database, then it will include bibliographic, chemical, 
# crystal, experimental, refinement or atomic coordinate data resulting 
# from the CCDC's data processing and validation procedures.
#
#######################################################################

data_ROCHIA
_symmetry_cell_setting           tetragonal
_symmetry_space_group_name_H-M   'P 43 21 2'
_symmetry_Int_Tables_number      96
_space_group_name_Hall           'P 4nw 2abw'
loop_
_symmetry_equiv_pos_site_id
_symmetry_equiv_pos_as_xyz
1 x,y,z
2 1/2-y,1/2+x,3/4+z
3 1/2+x,1/2-y,1/4-z
4 -x,-y,1/2+z
5 y,x,-z
6 1/2+y,1/2-x,1/4+z
7 1/2-x,1/2+y,3/4-z
8 -y,-x,1/2-z
_cell_length_a                   14.341(3)
_cell_length_b                   14.341(3)
_cell_length_c                   24.282(5)
_cell_angle_alpha                90
_cell_angle_beta                 90
_cell_angle_gamma                90
_cell_volume                     4993.94
loop_
_atom_site_label
_atom_site_type_symbol
_atom_site_fract_x
_atom_site_fract_y
_atom_site_fract_z
Cu1 Cu 0.4225(1) 0.0291(1) 0.02782(6)
O1 O 0.3658(6) -0.0193(6) 0.0939(3)
O2 O 0.5271(6) 0.0789(6) 0.0673(3)
N1 N 0.3216(6) -0.0300(6) -0.0196(3)
N2 N 0.2757(7) -0.0381(7) 0.0954(3)
N3 N 0.1331(7) -0.0893(7) 0.0745(4)
N4 N 0.4720(7) 0.0682(6) -0.0443(3)
N5 N 0.4664(7) 0.0455(6) -0.1340(4)
C1 C 0.3424(8) -0.0275(8) -0.0740(4)
C2 C 0.2887(8) -0.0715(9) -0.1133(4)
C3 C 0.2066(9) -0.1196(9) -0.0949(5)
C4 C 0.1841(9) -0.1210(9) -0.0389(5)
C5 C 0.2455(8) -0.0723(8) -0.0032(4)
C6 C 0.2212(9) -0.0661(9) 0.0564(4)
C7 C 0.2299(9) -0.0512(8) 0.1511(5)
C8 C 0.1234(9) -0.0484(9) 0.1323(5)
C9 C 0.2611(10) -0.1452(10) 0.1730(5)
C10 C 0.258(1) 0.030(1) 0.1879(5)
C11 C 0.0606(9) -0.1110(9) 0.1656(5)
C12 C 0.081(1) 0.051(1) 0.1269(5)
C13 C 0.4257(8) 0.0263(8) -0.0850(4)
C14 C 0.5573(8) 0.1145(9) -0.0652(4)
C15 C 0.5247(9) 0.1300(8) -0.1292(4)
C16 C 0.6383(9) 0.0505(8) -0.0586(4)
C17 C 0.5712(10) 0.2095(10) -0.0372(5)
C18 C 0.6086(9) 0.1205(9) -0.1697(5)
C19 C 0.4676(9) 0.2151(8) -0.1390(4)
O2A O 0.4211(6) 0.0271(6) -0.1827(3)
Cu1A Cu 0.4709(1) -0.0775(1) -0.22218(6)
P1 P 0.2263(3) 0.2263 0.0000
F1 F 0.3029(7) 0.3029 0.0000
F2 F 0.1482(6) 0.1482 0.0000
F3 F 0.1598(6) 0.2912(6) -0.0363(3)
F4 F 0.2682(6) 0.1827(7) -0.0545(3)
F3D F 0.2912(6) 0.1598(6) 0.0363(3)
F4D F 0.1827(7) 0.2682(6) 0.0545(3)
P2 P 0.1092(2) 0.1092 -0.5000
F5 F 0.0306(6) 0.0306 -0.5000
F6 F 0.1836(6) 0.1836 -0.5000
F7 F 0.1842(5) 0.0290(5) -0.5033(3)
F8 F 0.1115(7) 0.1115(9) -0.4352(3)
F7D F 0.0290(5) 0.1842(5) -0.4967(3)
F8D F 0.1115(9) 0.1115(7) -0.5648(3)
loop_
_geom_bond_atom_site_label_1
_geom_bond_atom_site_label_2
_geom_bond_site_symmetry_1
_geom_bond_site_symmetry_2
Cu1 O1 1_555 1_555
P1 F1 1_555 1_555
P2 F5 1_555 1_555
F2 P1 1_555 1_555
F3 P1 1_555 1_555
F4 P1 1_555 1_555
F6 P2 1_555 1_555
F7 P2 1_555 1_555
F8 P2 1_555 1_555
O1 N2 1_555 1_555
O2 Cu1 1_555 1_555
N1 Cu1 1_555 1_555
N2 C6 1_555 1_555
N3 C6 1_555 1_555
N4 Cu1 1_555 1_555
N5 C13 1_555 1_555
C1 N1 1_555 1_555
C2 C1 1_555 1_555
C3 C2 1_555 1_555
C4 C3 1_555 1_555
C5 N1 1_555 1_555
C6 C5 1_555 1_555
C7 N2 1_555 1_555
C8 N3 1_555 1_555
C9 C7 1_555 1_555
C10 C7 1_555 1_555
C11 C8 1_555 1_555
C12 C8 1_555 1_555
C13 N4 1_555 1_555
C14 N4 1_555 1_555
C15 N5 1_555 1_555
C16 C14 1_555 1_555
C17 C14 1_555 1_555
C18 C15 1_555 1_555
C19 C15 1_555 1_555
F3D P1 1_555 1_555
F4D P1 1_555 1_555
F7D P2 1_555 1_555
F8D P2 1_555 1_555
O2A N5 1_555 1_555
Cu1A O2A 1_555 1_555
C1 C13 1_555 1_555
C4 C5 1_555 1_555
C7 C8 1_555 1_555
C14 C15 1_555 1_555

#END
