
#######################################################################
#
#                 Cambridge Crystallographic Data Centre
#                                CCDC 
#
#######################################################################
#
# If this CIF has been generated from an entry in the Cambridge 
# Structural Database, then it will include bibliographic, chemical, 
# crystal, experimental, refinement or atomic coordinate data resulting 
# from the CCDC's data processing and validation procedures.
#
#######################################################################

data_ROCROR
_symmetry_cell_setting           monoclinic
_symmetry_space_group_name_H-M   'P 21/c'
_symmetry_Int_Tables_number      14
_space_group_name_Hall           '-P 2ybc'
loop_
_symmetry_equiv_pos_site_id
_symmetry_equiv_pos_as_xyz
1 x,y,z
2 -x,1/2+y,1/2-z
3 -x,-y,-z
4 x,1/2-y,1/2+z
_cell_length_a                   13.3059(5)
_cell_length_b                   15.0993(8)
_cell_length_c                   13.0454(4)
_cell_angle_alpha                90
_cell_angle_beta                 116.971(2)
_cell_angle_gamma                90
_cell_volume                     2335.88
loop_
_atom_site_label
_atom_site_type_symbol
_atom_site_fract_x
_atom_site_fract_y
_atom_site_fract_z
I1 I 0.38324(2) 0.71686(2) 0.78954(2)
V1 V 0.41335(6) 0.74580(5) 0.55172(6)
O1 O 0.4371(3) 0.7856(2) 0.7080(2)
O2 O 0.3295(3) 0.6639(2) 0.5458(2)
O3 O 0.3280(3) 0.8240(2) 0.4713(2)
O4 O 0.4813(3) 0.6290(2) 0.8340(3)
O5 O 0.4441(3) 0.7891(2) 0.9166(2)
N1 N 0.5736(3) 0.8247(3) 0.6152(3)
N2 N 0.5616(3) 0.6526(3) 0.6310(3)
C1 C 0.5753(4) 0.9135(3) 0.6132(4)
H1 H 0.5069 0.9437 0.5797
C2 C 0.6734(5) 0.9621(3) 0.6583(4)
H2 H 0.6710 1.0235 0.6536
C3 C 0.7749(4) 0.9187(4) 0.7103(4)
H3 H 0.8421 0.9503 0.7443
C4 C 0.7753(4) 0.8275(4) 0.7111(4)
H4 H 0.8433 0.7967 0.7436
C5 C 0.6737(4) 0.7815(3) 0.6630(3)
C6 C 0.6663(4) 0.6840(3) 0.6644(3)
C7 C 0.7588(4) 0.6286(4) 0.6955(4)
H5 H 0.8308 0.6519 0.7200
C8 C 0.7413(5) 0.5379(4) 0.6892(4)
H6 H 0.8012 0.4991 0.7064
C9 C 0.6338(5) 0.5056(4) 0.6570(4)
H7 H 0.6207 0.4449 0.6540
C10 C 0.5465(5) 0.5648(3) 0.6295(4)
H8 H 0.4745 0.5430 0.6093
V1C V 0.41335(6) 0.75420(5) 1.05172(6)
O5C O 0.4441(3) 0.7109(2) 0.4166(2)
I2 I 0.11867(2) 0.71504(2) 0.38458(2)
V2 V 0.07797(6) 0.74073(5) 0.62707(6)
O6 O 0.0626(3) 0.7735(2) 0.4714(2)
O7 O 0.1788(3) 0.8110(2) 0.7087(2)
O8 O 0.0497(3) 0.6112(2) 0.3598(3)
O9 O 0.0297(2) 0.7774(2) 0.2521(2)
O10 O 0.1435(3) 0.6475(2) 0.6400(3)
N3 N -0.0942(3) 0.6795(3) 0.5276(3)
N4 N -0.0556(3) 0.8505(3) 0.5678(3)
C11 C -0.2140(5) 0.5529(4) 0.4603(4)
H9 H -0.2217 0.4917 0.4534
C12 C -0.3067(5) 0.6071(4) 0.4145(4)
H10 H -0.3785 0.5827 0.3764
C13 C -0.2933(4) 0.6979(3) 0.4253(4)
H11 H -0.3556 0.7352 0.3950
C14 C -0.1854(4) 0.7323(3) 0.4818(3)
C15 C -0.1637(4) 0.8288(3) 0.4978(4)
C16 C -0.2469(4) 0.8929(4) 0.4486(4)
H12 H -0.3211 0.8768 0.4005
C17 C -0.2173(5) 0.9815(4) 0.4726(4)
H13 H -0.2712 1.0256 0.4391
C18 C -0.1084(5) 1.0029(4) 0.5460(4)
H14 H -0.0874 1.0618 0.5649
C19 C -0.0299(4) 0.9360(4) 0.5915(4)
H15 H 0.0443 0.9511 0.6410
C20 C -0.1090(4) 0.5914(3) 0.5167(4)
H16 H -0.0459 0.5550 0.5485
V2C V 0.07797(6) 0.75927(5) 0.12707(6)
O9C O 0.0297(2) 0.7226(2) 0.7521(2)
loop_
_geom_bond_atom_site_label_1
_geom_bond_atom_site_label_2
_geom_bond_site_symmetry_1
_geom_bond_site_symmetry_2
I1 O1 1_555 1_555
V1 O1 1_555 1_555
O2 V1 1_555 1_555
O3 V1 1_555 1_555
O4 I1 1_555 1_555
O5 I1 1_555 1_555
N1 V1 1_555 1_555
N2 V1 1_555 1_555
C1 N1 1_555 1_555
H1 C1 1_555 1_555
C2 C1 1_555 1_555
H2 C2 1_555 1_555
C3 C2 1_555 1_555
H3 C3 1_555 1_555
C4 C3 1_555 1_555
H4 C4 1_555 1_555
C5 N1 1_555 1_555
C6 N2 1_555 1_555
C7 C6 1_555 1_555
H5 C7 1_555 1_555
C8 C7 1_555 1_555
H6 C8 1_555 1_555
C9 C8 1_555 1_555
H7 C9 1_555 1_555
C10 N2 1_555 1_555
H8 C10 1_555 1_555
I2 O6 1_555 1_555
V2 O6 1_555 1_555
O7 V2 1_555 1_555
O8 I2 1_555 1_555
O9 I2 1_555 1_555
O10 V2 1_555 1_555
N3 V2 1_555 1_555
N4 V2 1_555 1_555
C11 H9 1_555 1_555
C12 C11 1_555 1_555
H10 C12 1_555 1_555
C13 C12 1_555 1_555
H11 C13 1_555 1_555
C14 N3 1_555 1_555
C15 N4 1_555 1_555
C16 C15 1_555 1_555
H12 C16 1_555 1_555
C17 C16 1_555 1_555
H13 C17 1_555 1_555
C18 C17 1_555 1_555
H14 C18 1_555 1_555
C19 N4 1_555 1_555
H15 C19 1_555 1_555
C20 N3 1_555 1_555
H16 C20 1_555 1_555
V1C O5 1_555 1_555
O5C V1 1_555 1_555
V2C O9 1_555 1_555
O9C V2 1_555 1_555
C4 C5 1_555 1_555
C5 C6 1_555 1_555
C9 C10 1_555 1_555
C11 C20 1_555 1_555
C13 C14 1_555 1_555
C14 C15 1_555 1_555
C18 C19 1_555 1_555

#END
