
#######################################################################
#
#                 Cambridge Crystallographic Data Centre
#                                CCDC 
#
#######################################################################
#
# If this CIF has been generated from an entry in the Cambridge 
# Structural Database, then it will include bibliographic, chemical, 
# crystal, experimental, refinement or atomic coordinate data resulting 
# from the CCDC's data processing and validation procedures.
#
#######################################################################

data_ROCREH
_symmetry_cell_setting           monoclinic
_symmetry_space_group_name_H-M   'P 21/c'
_symmetry_Int_Tables_number      14
_space_group_name_Hall           '-P 2ybc'
loop_
_symmetry_equiv_pos_site_id
_symmetry_equiv_pos_as_xyz
1 x,y,z
2 -x,1/2+y,1/2-z
3 -x,-y,-z
4 x,1/2-y,1/2+z
_cell_length_a                   7.6795(5)
_cell_length_b                   23.3161(14)
_cell_length_c                   14.8377(9)
_cell_angle_alpha                90
_cell_angle_beta                 91.996(1)
_cell_angle_gamma                90
_cell_volume                     2655.17
loop_
_atom_site_label
_atom_site_type_symbol
_atom_site_fract_x
_atom_site_fract_y
_atom_site_fract_z
Co1 Co 0.40070(3) 0.376228(9) 0.447652(15)
O1 O 0.54272(15) 0.32414(5) 0.36135(8)
O2 O 0.82019(15) 0.35318(5) 0.36719(8)
O3 O 0.7232(3) -0.07769(7) 0.25791(10)
O4 O 0.57889(18) -0.05123(5) 0.13159(8)
O5 O 0.18084(15) 0.34935(5) 0.36630(9)
H1 H 0.0758 0.3504 0.3826
H2 H 0.2078 0.3713 0.3232
O6 O 0.64948(16) 0.39809(5) 0.51064(8)
H3 H 0.6688 0.3752 0.5545
H4 H 0.7241 0.3882 0.4726
N1 N 0.36485(19) 0.30724(6) 0.54081(10)
N2 N 0.26618(19) 0.41701(6) 0.55363(10)
N3 N 0.75306(18) 0.17420(6) 0.16381(9)
N4 N 0.51808(19) 0.11560(6) 0.34602(10)
C1 C 0.2864(2) 0.32309(8) 0.61742(12)
C2 C 0.4181(2) 0.25306(8) 0.53419(14)
H5 H 0.4692 0.2415 0.4813
C3 C 0.4006(3) 0.21304(9) 0.60298(16)
H6 H 0.4413 0.1758 0.5961
C4 C 0.3235(3) 0.22877(9) 0.68032(15)
H7 H 0.3123 0.2024 0.7268
C5 C 0.2610(2) 0.28503(9) 0.68956(13)
C6 C 0.1744(3) 0.30530(12) 0.76695(14)
H8 H 0.1561 0.2803 0.8146
C7 C 0.1189(3) 0.35979(12) 0.77227(14)
H9 H 0.0611 0.3715 0.8232
C8 C 0.1466(2) 0.40049(10) 0.70109(13)
C9 C 0.0996(3) 0.45860(11) 0.70401(16)
H10 H 0.0424 0.4729 0.7534
C10 C 0.1378(3) 0.49394(10) 0.63437(17)
H11 H 0.1080 0.5326 0.6363
C11 C 0.2223(3) 0.47178(9) 0.55972(15)
H12 H 0.2484 0.4964 0.5128
C12 C 0.2308(2) 0.38175(8) 0.62379(12)
C13 C 0.7360(2) 0.27026(7) 0.27934(11)
C14 C 0.6753(2) 0.21776(7) 0.30332(12)
H13 H 0.6254 0.2131 0.3591
C15 C 0.6868(2) 0.17021(7) 0.24489(11)
C16 C 0.8199(2) 0.22627(7) 0.13877(11)
C17 C 0.8930(2) 0.23058(8) 0.05287(12)
H14 H 0.8950 0.1985 0.0156
C18 C 0.9605(3) 0.28113(9) 0.02398(13)
H15 H 1.0068 0.2834 -0.0330
C19 C 0.9608(3) 0.32978(9) 0.07967(14)
H16 H 1.0091 0.3639 0.0597
C20 C 0.8906(2) 0.32754(8) 0.16319(13)
H17 H 0.8907 0.3602 0.1992
C21 C 0.8180(2) 0.27593(7) 0.19501(11)
C22 C 0.6143(2) 0.11388(7) 0.27383(12)
C23 C 0.6487(2) 0.06257(7) 0.22667(12)
H18 H 0.7163 0.0634 0.1759
C24 C 0.5817(2) 0.01168(7) 0.25621(11)
C25 C 0.4711(2) 0.01215(7) 0.33095(12)
C26 C 0.3860(3) -0.03706(8) 0.36415(14)
H19 H 0.4023 -0.0725 0.3368
C27 C 0.2807(3) -0.03286(10) 0.43579(16)
H20 H 0.2257 -0.0655 0.4568
C28 C 0.2537(3) 0.01997(10) 0.47842(15)
H21 H 0.1819 0.0220 0.5275
C29 C 0.3327(3) 0.06831(9) 0.44791(13)
H22 H 0.3138 0.1033 0.4761
C30 C 0.4433(2) 0.06562(8) 0.37361(12)
C31 C 0.6991(2) 0.32055(7) 0.34047(11)
C32 C 0.6320(2) -0.04411(7) 0.21139(12)
Co1A Co 0.59930(3) -0.123772(9) 0.052348(15)
O4A O 0.42111(18) 0.44877(5) 0.36841(8)
loop_
_geom_bond_atom_site_label_1
_geom_bond_atom_site_label_2
_geom_bond_site_symmetry_1
_geom_bond_site_symmetry_2
Co1 O1 1_555 1_555
O1 C31 1_555 1_555
O2 C31 1_555 1_555
O3 C32 1_555 1_555
O4 C32 1_555 1_555
O5 Co1 1_555 1_555
H1 O5 1_555 1_555
H2 O5 1_555 1_555
O6 Co1 1_555 1_555
H3 O6 1_555 1_555
H4 O6 1_555 1_555
N1 Co1 1_555 1_555
N2 Co1 1_555 1_555
N3 C15 1_555 1_555
N4 C22 1_555 1_555
C1 N1 1_555 1_555
C2 N1 1_555 1_555
H5 C2 1_555 1_555
C3 C2 1_555 1_555
H6 C3 1_555 1_555
C4 C3 1_555 1_555
H7 C4 1_555 1_555
C5 C1 1_555 1_555
C6 C5 1_555 1_555
H8 C6 1_555 1_555
C7 C6 1_555 1_555
H9 C7 1_555 1_555
C8 C7 1_555 1_555
C9 C8 1_555 1_555
H10 C9 1_555 1_555
C10 C9 1_555 1_555
H11 C10 1_555 1_555
C11 N2 1_555 1_555
H12 C11 1_555 1_555
C12 N2 1_555 1_555
C13 C14 1_555 1_555
C14 H13 1_555 1_555
C15 C14 1_555 1_555
C16 N3 1_555 1_555
C17 C16 1_555 1_555
H14 C17 1_555 1_555
C18 C17 1_555 1_555
H15 C18 1_555 1_555
C19 C18 1_555 1_555
H16 C19 1_555 1_555
C20 C19 1_555 1_555
H17 C20 1_555 1_555
C21 C13 1_555 1_555
C22 C15 1_555 1_555
C23 C22 1_555 1_555
H18 C23 1_555 1_555
C24 C23 1_555 1_555
C25 C24 1_555 1_555
C26 C25 1_555 1_555
H19 C26 1_555 1_555
C27 C26 1_555 1_555
H20 C27 1_555 1_555
C28 C27 1_555 1_555
H21 C28 1_555 1_555
C29 C28 1_555 1_555
H22 C29 1_555 1_555
C30 N4 1_555 1_555
C31 C13 1_555 1_555
C32 C24 1_555 1_555
Co1A O4 1_555 1_555
O4A Co1 1_555 1_555
C1 C12 1_555 1_555
C4 C5 1_555 1_555
C8 C12 1_555 1_555
C10 C11 1_555 1_555
C16 C21 1_555 1_555
C20 C21 1_555 1_555
C25 C30 1_555 1_555
C29 C30 1_555 1_555

#END
