
#######################################################################
#
#                 Cambridge Crystallographic Data Centre
#                                CCDC 
#
#######################################################################
#
# If this CIF has been generated from an entry in the Cambridge 
# Structural Database, then it will include bibliographic, chemical, 
# crystal, experimental, refinement or atomic coordinate data resulting 
# from the CCDC's data processing and validation procedures.
#
#######################################################################

data_ROCVOV
_symmetry_cell_setting           triclinic
_symmetry_space_group_name_H-M   'P -1'
_symmetry_Int_Tables_number      2
_space_group_name_Hall           '-P 1'
loop_
_symmetry_equiv_pos_site_id
_symmetry_equiv_pos_as_xyz
1 x,y,z
2 -x,-y,-z
_cell_length_a                   8.7003(2)
_cell_length_b                   11.2630(3)
_cell_length_c                   22.2419(6)
_cell_angle_alpha                77.611(2)
_cell_angle_beta                 80.489(2)
_cell_angle_gamma                82.805(2)
_cell_volume                     2090.36
loop_
_atom_site_label
_atom_site_type_symbol
_atom_site_fract_x
_atom_site_fract_y
_atom_site_fract_z
Pr1 Pr 0.77440(2) 0.693824(17) 0.334567(9)
C1 C 0.9952(5) 1.2170(4) 0.42935(18)
H1 H 0.9563 1.2967 0.4322
C2 C 1.1352(5) 1.1689(4) 0.4515(2)
H2 H 1.1890 1.2154 0.4694
C3 C 1.1929(5) 1.0513(4) 0.44647(18)
H3 H 1.2880 1.0187 0.4598
C4 C 1.1095(4) 0.9821(4) 0.42163(18)
H4 H 1.1456 0.9017 0.4192
C5 C 0.9702(4) 1.0348(3) 0.40017(16)
C6 C 0.8700(4) 0.9677(3) 0.37337(16)
C7 C 0.6258(4) 1.0046(3) 0.33144(17)
C8 C 0.5006(4) 1.1064(3) 0.31828(16)
C9 C 0.3699(4) 1.0930(4) 0.29377(17)
H5 H 0.3573 1.0192 0.2837
C10 C 0.2586(5) 1.1902(4) 0.28451(19)
H6 H 0.1696 1.1834 0.2678
C11 C 0.2807(5) 1.2983(4) 0.30036(19)
H7 H 0.2057 1.3647 0.2948
C12 C 0.4135(5) 1.3075(3) 0.3243(2)
H8 H 0.4279 1.3808 0.3345
C13 C 0.8308(4) 0.2664(3) 0.28661(19)
C14 C 0.5902(5) 0.1754(3) 0.4510(2)
C15 C 0.7044(4) 0.3731(3) 0.37579(17)
Fe1 Fe 0.71685(6) 0.20428(4) 0.36914(2)
N1 N 0.9151(3) 1.1502(3) 0.40398(13)
N2 N 0.7389(3) 1.0405(2) 0.35782(14)
N3 N 0.5233(3) 1.2123(3) 0.33330(14)
N4 N 0.8947(5) 0.3076(4) 0.23922(18)
N5 N 0.5116(5) 0.1589(4) 0.49790(19)
N6 N 0.7063(5) 0.4753(3) 0.37473(17)
O1 O 0.6212(3) 0.9050(2) 0.31900(14)
O2 O 0.9051(3) 0.8618(2) 0.36702(13)
O3 O 0.9121(4) 0.8183(3) 0.24006(14)
H17 H 0.8738 0.8923 0.2366
H18 H 1.0089 0.8136 0.2431
O4 O 0.5537(4) 0.7017(3) 0.27595(16)
H19 H 0.5399 0.6297 0.2733
H20 H 0.5750 0.7443 0.2397
O5 O 0.8495(4) 0.5781(3) 0.24383(14)
H21 H 0.7823 0.5281 0.2461
H22 H 0.8510 0.6291 0.2095
O6 O 1.0494(4) 0.5991(4) 0.32797(17)
H23 H 1.0543 0.5310 0.3168
H24 H 1.0793 0.5878 0.3635
O7 O 0.8497(4) 0.6327(3) 0.44259(14)
H25 H 0.8250 0.5609 0.4587
H26 H 0.9479 0.6344 0.4405
O8 O 0.5374(4) 0.6981(3) 0.41226(16)
H27 H 0.4783 0.6465 0.4083
H28 H 0.4892 0.7692 0.4064
Fe1_2 Fe 0.71685(6) 1.20428(4) 0.36914(2)
N1_2 N 0.9151(3) 0.1502(3) 0.40398(13)
N2_2 N 0.7389(3) 0.0405(2) 0.35782(14)
N3_2 N 0.5233(3) 0.2123(3) 0.33330(14)
C16 C 0.5281(5) 0.0186(5) 0.1066(2)
H9 H 0.4945 -0.0368 0.0871
C17 C 0.6684(6) -0.0096(6) 0.1307(3)
H10 H 0.7259 -0.0845 0.1291
C18 C 0.7200(6) 0.0727(6) 0.1562(3)
H11 H 0.8159 0.0551 0.1710
C19 C 0.6337(5) 0.1835(5) 0.1611(2)
H12 H 0.6682 0.2396 0.1798
C20 C 0.4920(5) 0.2067(4) 0.13644(18)
C21 C 0.3896(5) 0.3219(4) 0.13818(19)
C22 C 0.1308(5) 0.4080(4) 0.11265(18)
C23 C 0.0064(5) 0.3758(3) 0.08191(17)
C24 C -0.1262(5) 0.4551(4) 0.0700(2)
H13 H -0.1435 0.5292 0.0832
C25 C -0.2302(5) 0.4220(4) 0.0384(2)
H14 H -0.3196 0.4733 0.0297
C26 C -0.2014(5) 0.3119(4) 0.0194(2)
H15 H -0.2709 0.2887 -0.0025
C27 C -0.0693(5) 0.2360(4) 0.03301(18)
H16 H -0.0513 0.1615 0.0203
C28 C 0.2095(5) 0.0306(4) 0.0543(2)
C29 C 0.1389(4) 0.0827(3) 0.16406(19)
C30 C 0.3343(5) 0.2389(4) -0.0004(2)
Fe2 Fe 0.23347(6) 0.17606(5) 0.08436(2)
N7 N 0.4403(4) 0.1229(3) 0.11079(16)
N8 N 0.2521(4) 0.3174(3) 0.11583(15)
N9 N 0.0342(4) 0.2673(3) 0.06424(14)
N10 N 0.3904(6) 0.2738(4) -0.0497(2)
N11 N 0.1914(6) -0.0580(4) 0.0404(2)
N12 N 0.0909(5) 0.0220(3) 0.20936(18)
O13 O 0.4274(4) 0.4066(3) 0.15703(17)
O14 O 0.1218(4) 0.5039(3) 0.13029(17)
Cl1 Cl 0.2132(2) 0.5858(2) 0.44184(8)
O9 O -0.0019(7) 0.7615(4) 0.12646(19)
H29 H 0.0681 0.7232 0.1477
H30 H 0.0054 0.8378 0.1206
O10 O 0.2623(6) 0.8117(5) 0.3030(4)
H31 H 0.2464 0.7519 0.3332
H32 H 0.3601 0.8138 0.2912
O11 O 0.5998(5) 0.5940(3) 0.17289(16)
H33 H 0.6642 0.6194 0.1409
H34 H 0.6090 0.5164 0.1810
H35 H 0.3391 0.5980 0.2102
H36 H 0.1952 0.5702 0.2007
O12 O 0.2391(5) 0.6030(5) 0.2236(2)
loop_
_geom_bond_atom_site_label_1
_geom_bond_atom_site_label_2
_geom_bond_site_symmetry_1
_geom_bond_site_symmetry_2
Pr1 N6 1_555 1_555
C1 H1 1_555 1_555
C2 C1 1_555 1_555
H2 C2 1_555 1_555
C3 C2 1_555 1_555
H3 C3 1_555 1_555
C4 C3 1_555 1_555
H4 C4 1_555 1_555
C5 C4 1_555 1_555
C6 C5 1_555 1_555
C7 C8 1_555 1_555
C8 C9 1_555 1_555
C9 H5 1_555 1_555
C10 C9 1_555 1_555
H6 C10 1_555 1_555
C11 C10 1_555 1_555
H7 C11 1_555 1_555
C12 C11 1_555 1_555
H8 C12 1_555 1_555
C13 Fe1 1_555 1_555
C14 Fe1 1_555 1_555
C15 Fe1 1_555 1_555
C16 H9 1_555 1_555
C17 C16 1_555 1_555
H10 C17 1_555 1_555
C18 C17 1_555 1_555
H11 C18 1_555 1_555
C19 C18 1_555 1_555
H12 C19 1_555 1_555
C20 C19 1_555 1_555
C21 C20 1_555 1_555
C22 C23 1_555 1_555
C23 C24 1_555 1_555
C24 H13 1_555 1_555
C25 C24 1_555 1_555
H14 C25 1_555 1_555
C26 C25 1_555 1_555
H15 C26 1_555 1_555
C27 C26 1_555 1_555
H16 C27 1_555 1_555
C28 Fe2 1_555 1_555
C29 Fe2 1_555 1_555
C30 Fe2 1_555 1_555
Fe1 N1_2 1_555 1_555
Fe2 N7 1_555 1_555
N1 C1 1_555 1_555
N2 C6 1_555 1_555
N3 C8 1_555 1_555
N4 C13 1_555 1_555
N5 C14 1_555 1_555
N6 C15 1_555 1_555
N7 C16 1_555 1_555
N8 C21 1_555 1_555
N9 C23 1_555 1_555
N10 C30 1_555 1_555
N11 C28 1_555 1_555
N12 C29 1_555 1_555
O1 Pr1 1_555 1_555
O2 Pr1 1_555 1_555
O3 Pr1 1_555 1_555
H17 O3 1_555 1_555
H18 O3 1_555 1_555
O4 Pr1 1_555 1_555
H19 O4 1_555 1_555
H20 O4 1_555 1_555
O5 Pr1 1_555 1_555
H21 O5 1_555 1_555
H22 O5 1_555 1_555
O6 Pr1 1_555 1_555
H23 O6 1_555 1_555
H24 O6 1_555 1_555
O7 Pr1 1_555 1_555
H25 O7 1_555 1_555
H26 O7 1_555 1_555
O8 Pr1 1_555 1_555
H27 O8 1_555 1_555
H28 O8 1_555 1_555
O9 H29 1_555 1_555
H30 O9 1_555 1_555
O10 H31 1_555 1_555
H32 O10 1_555 1_555
O11 H33 1_555 1_555
H34 O11 1_555 1_555
H35 O12 1_555 1_555
H36 O12 1_555 1_555
O13 C21 1_555 1_555
O14 C22 1_555 1_555
Fe1_2 N1 1_555 1_555
N2_2 Fe1 1_555 1_555
N3_2 Fe1 1_555 1_555
C5 N1 1_555 1_555
C6 O2 1_555 1_555
C7 N2 1_555 1_555
C7 O1 1_555 1_555
C12 N3 1_555 1_555
C20 N7 1_555 1_555
C22 N8 1_555 1_555
C27 N9 1_555 1_555
Fe2 N8 1_555 1_555
Fe2 N9 1_555 1_555
N2 Fe1_2 1_555 1_555
N3 Fe1_2 1_555 1_555

#END
