
#######################################################################
#
#                 Cambridge Crystallographic Data Centre
#                                CCDC 
#
#######################################################################
#
# If this CIF has been generated from an entry in the Cambridge 
# Structural Database, then it will include bibliographic, chemical, 
# crystal, experimental, refinement or atomic coordinate data resulting 
# from the CCDC's data processing and validation procedures.
#
#######################################################################

data_ROCVIP
_symmetry_cell_setting           orthorhombic
_symmetry_space_group_name_H-M   'P n m a'
_symmetry_Int_Tables_number      62
_space_group_name_Hall           '-P 2ac 2n'
loop_
_symmetry_equiv_pos_site_id
_symmetry_equiv_pos_as_xyz
1 x,y,z
2 1/2-x,-y,1/2+z
3 1/2+x,1/2-y,1/2-z
4 -x,1/2+y,-z
5 -x,-y,-z
6 1/2+x,y,1/2-z
7 1/2-x,1/2+y,1/2+z
8 x,1/2-y,z
_cell_length_a                   21.018(4)
_cell_length_b                   15.051(3)
_cell_length_c                   7.7240(15)
_cell_angle_alpha                90
_cell_angle_beta                 90
_cell_angle_gamma                90
_cell_volume                     2443.42
loop_
_atom_site_label
_atom_site_type_symbol
_atom_site_fract_x
_atom_site_fract_y
_atom_site_fract_z
Fe1 Fe 0.97621(4) 0.7500 0.74107(11)
Pr1 Pr 0.732271(15) 0.7500 0.47687(4)
N1 N 0.98661(12) 0.87175(12) 0.7580(3)
C1 C 0.94103(11) 0.93175(17) 0.7002(4)
H1 H 0.9027 0.9112 0.6556
C2 C 0.95278(13) 1.02251(15) 0.7093(4)
H2 H 0.9223 1.0627 0.6706
C3 C 1.01011(15) 1.05328(13) 0.7760(4)
H3 H 1.0180 1.1140 0.7820
C4 C 1.05569(12) 0.99328(17) 0.8337(4)
H4 H 1.0940 1.0139 0.8784
C5 C 1.04394(11) 0.90251(16) 0.8247(4)
C6 C 1.0830(2) 0.8296(3) 0.8932(6)
C7 C 1.0169(3) 0.7500 0.5128(8)
C8 C 0.9227(4) 0.7500 0.9455(9)
C9 C 0.8985(3) 0.7500 0.6139(9)
N2 N 1.0560(2) 0.7500 0.8584(6)
N3 N 1.0425(3) 0.7500 0.3848(9)
N4 N 0.8888(4) 0.7500 1.0630(8)
N5 N 0.8508(3) 0.7500 0.5406(8)
O1 O 1.13299(16) 0.8431(2) 0.9678(5)
O2 O 0.7095(3) 0.7500 0.7977(6)
H5 H 0.6876 0.8038 0.8283
O3 O 0.7585(2) 0.6006(2) 0.6063(5)
H6 H 0.7455 0.5995 0.7254
H7 H 0.7365 0.5549 0.5436
O4 O 0.78626(19) 0.6488(2) 0.2453(4)
H8 H 0.7543 0.6256 0.1688
H9 H 0.8165 0.6830 0.1800
Pr1E Pr 1.232271(15) 0.7500 1.02313(4)
N1G N 0.98661(12) 0.62825(12) 0.7580(3)
C1G C 0.94103(11) 0.56825(17) 0.7002(4)
H1G H 0.9027 0.5888 0.6556
C2G C 0.95278(13) 0.47749(15) 0.7093(4)
H2G H 0.9223 0.4373 0.6706
C3G C 1.01011(15) 0.44672(13) 0.7760(4)
H3G H 1.0180 0.3860 0.7820
C4G C 1.05569(12) 0.50672(17) 0.8337(4)
H4G H 1.0940 0.4861 0.8784
C5G C 1.04394(11) 0.59749(16) 0.8247(4)
C6G C 1.0830(2) 0.6704(3) 0.8932(6)
O1G O 1.13299(16) 0.6569(2) 0.9678(5)
O1E O 0.63299(16) 0.8431(2) 0.5322(5)
O1B O 0.63299(16) 0.6569(2) 0.5322(5)
H5G H 0.6876 0.6962 0.8283
O3G O 0.7585(2) 0.8994(2) 0.6063(5)
H6G H 0.7455 0.9005 0.7254
H7G H 0.7365 0.9451 0.5436
O4G O 0.78626(19) 0.8512(2) 0.2453(4)
H8G H 0.7543 0.8744 0.1688
H9G H 0.8165 0.8170 0.1800
Cl1 Cl 0.17413(8) 0.55718(9) 0.54040(19)
loop_
_geom_bond_atom_site_label_1
_geom_bond_atom_site_label_2
_geom_bond_site_symmetry_1
_geom_bond_site_symmetry_2
Fe1 N1 1_555 1_555
Pr1 N5 1_555 1_555
N1 C1 1_555 1_555
C1 H1 1_555 1_555
C2 C1 1_555 1_555
H2 C2 1_555 1_555
C3 C2 1_555 1_555
H3 C3 1_555 1_555
C4 C3 1_555 1_555
H4 C4 1_555 1_555
C5 N1 1_555 1_555
C6 C5 1_555 1_555
C7 Fe1 1_555 1_555
C8 Fe1 1_555 1_555
C9 Fe1 1_555 1_555
N2 Fe1 1_555 1_555
N3 C7 1_555 1_555
N4 C8 1_555 1_555
N5 C9 1_555 1_555
O1 C6 1_555 1_555
O2 Pr1 1_555 1_555
H5 O2 1_555 1_555
O3 Pr1 1_555 1_555
H6 O3 1_555 1_555
H7 O3 1_555 1_555
O4 Pr1 1_555 1_555
H8 O4 1_555 1_555
H9 O4 1_555 1_555
Pr1E O1 1_555 1_555
N1G Fe1 1_555 1_555
C1G N1G 1_555 1_555
H1G C1G 1_555 1_555
C2G C1G 1_555 1_555
H2G C2G 1_555 1_555
C3G C2G 1_555 1_555
H3G C3G 1_555 1_555
C4G C3G 1_555 1_555
H4G C4G 1_555 1_555
C5G N1G 1_555 1_555
C6G N2 1_555 1_555
O1G Pr1E 1_555 1_555
O1E Pr1 1_555 1_555
O1B Pr1 1_555 1_555
H5G O2 1_555 1_555
O3G Pr1 1_555 1_555
H6G O3G 1_555 1_555
H7G O3G 1_555 1_555
O4G Pr1 1_555 1_555
H8G O4G 1_555 1_555
H9G O4G 1_555 1_555
C4 C5 1_555 1_555
C6 N2 1_555 1_555
C4G C5G 1_555 1_555
C5G C6G 1_555 1_555
C6G O1G 1_555 1_555

#END
