
#######################################################################
#
#                 Cambridge Crystallographic Data Centre
#                                CCDC 
#
#######################################################################
#
# If this CIF has been generated from an entry in the Cambridge 
# Structural Database, then it will include bibliographic, chemical, 
# crystal, experimental, refinement or atomic coordinate data resulting 
# from the CCDC's data processing and validation procedures.
#
#######################################################################

data_ROCYOZ
_symmetry_cell_setting           tetragonal
_symmetry_space_group_name_H-M   'P 43 21 2'
_symmetry_Int_Tables_number      96
_space_group_name_Hall           'P 4nw 2abw'
loop_
_symmetry_equiv_pos_site_id
_symmetry_equiv_pos_as_xyz
1 x,y,z
2 1/2-y,1/2+x,3/4+z
3 -x,-y,1/2+z
4 1/2+y,1/2-x,1/4+z
5 1/2+x,1/2-y,1/4-z
6 1/2-x,1/2+y,3/4-z
7 y,x,-z
8 -y,-x,1/2-z
_cell_length_a                   11.5806(3)
_cell_length_b                   11.5806(3)
_cell_length_c                   34.904(2)
_cell_angle_alpha                90
_cell_angle_beta                 90
_cell_angle_gamma                90
_cell_volume                     4680.99
loop_
_atom_site_label
_atom_site_type_symbol
_atom_site_fract_x
_atom_site_fract_y
_atom_site_fract_z
Zn1 Zn 0.63108(3) 0.76189(3) 0.083711(9)
O1 O 0.6162(3) 0.96762(19) 0.08490(6)
O2 O 0.54334(17) 0.7520(2) 0.03345(6)
O3 O 0.42671(18) 0.7598(2) 0.08302(6)
N1 N 0.6435(2) 1.5940(2) 0.10419(7)
C1 C 0.1355(2) 0.7807(3) 0.01157(8)
O4 O 0.6473(2) 0.84995(17) 0.13318(6)
C2 C 0.3419(3) 0.7737(3) 0.02084(9)
C3 C 0.4430(2) 0.7610(3) 0.04764(8)
C4 C 0.2311(2) 0.7730(3) 0.03560(8)
H1 H 0.2200 0.7672 0.0625
C5 C 0.6370(3) 0.9505(3) 0.11962(9)
C6 C 0.0184(2) 0.7763(3) 0.02865(8)
C7 C 0.6693(6) 1.2578(3) 0.15400(12)
C8 C 0.6444(4) 1.1619(3) 0.13152(10)
H2 H 0.6193 1.1729 0.1059
C9 C -0.0676(3) 0.7026(3) 0.01462(9)
H3 H -0.0533 0.6550 -0.0070
C10 C 0.6582(4) 1.3749(3) 0.13769(10)
C11 C -0.0102(3) 0.8446(3) 0.06030(8)
H4 H 0.0457 0.8954 0.0710
C12 C 0.3594(3) 0.7861(5) -0.01873(10)
H5 H 0.4352 0.7896 -0.0291
C13 C 0.6554(4) 1.0518(3) 0.14553(10)
C14 C 0.1529(3) 0.7899(5) -0.02795(10)
H6 H 0.0884 0.7937 -0.0447
C15 C 0.7340(3) 1.5650(3) 0.12619(9)
H7 H 0.7937 1.6201 0.1302
C16 C 0.5608(3) 1.5148(3) 0.09880(10)
H8 H 0.4959 1.5342 0.0834
C17 C 0.2623(4) 0.7934(6) -0.04261(11)
H9 H 0.2728 0.8009 -0.0695
C18 C 0.6880(7) 1.0346(4) 0.18350(13)
H10 H 0.6920 0.9589 0.1939
C19 C 0.7147(9) 1.1306(5) 0.20616(15)
H11 H 0.7401 1.1200 0.2318
C20 C 0.7044(8) 1.2390(4) 0.19155(14)
H12 H 0.7216 1.3034 0.2074
N2 N -0.1999(2) 0.7673(2) 0.06280(7)
C21 C -0.1183(3) 0.8385(3) 0.07596(8)
H13 H -0.1361 0.8869 0.0971
C22 C -0.17271(19) 0.70017(16) 0.03262(6)
H14 H -0.2296 0.6482 0.0233
C23 C 0.74341(19) 1.45701(16) 0.14334(6)
H15 H 0.8083 1.4397 0.1590
C24 C 0.56661(19) 1.40761(16) 0.11454(6)
H16 H 0.5065 1.3539 0.1096
Zn1_2 Zn -0.36892(3) 0.76189(3) 0.083711(9)
Zn1_3 Zn 0.63108(3) 1.76189(3) 0.083711(9)
N1_2 N 0.6435(2) 0.5940(2) 0.10419(7)
N2_2 N 0.8001(2) 0.7673(2) 0.06280(7)
loop_
_geom_bond_atom_site_label_1
_geom_bond_atom_site_label_2
_geom_bond_site_symmetry_1
_geom_bond_site_symmetry_2
Zn1 O1 1_555 1_555
O1 C5 1_555 1_555
O2 Zn1 1_555 1_555
O3 Zn1 1_555 1_555
N1 C15 1_555 1_555
C1 C4 1_555 1_555
O4 Zn1 1_555 1_555
C2 C3 1_555 1_555
C3 O2 1_555 1_555
C4 C2 1_555 1_555
H1 C4 1_555 1_555
C5 O4 1_555 1_555
C6 C1 1_555 1_555
C7 C8 1_555 1_555
C8 H2 1_555 1_555
C9 C6 1_555 1_555
H3 C9 1_555 1_555
C10 C7 1_555 1_555
C11 C6 1_555 1_555
H4 C11 1_555 1_555
C12 C2 1_555 1_555
H5 C12 1_555 1_555
C13 C5 1_555 1_555
C14 C1 1_555 1_555
H6 C14 1_555 1_555
C15 H7 1_555 1_555
C16 N1 1_555 1_555
H8 C16 1_555 1_555
C17 C12 1_555 1_555
H9 C17 1_555 1_555
C18 C13 1_555 1_555
H10 C18 1_555 1_555
C19 C18 1_555 1_555
H11 C19 1_555 1_555
C20 C7 1_555 1_555
H12 C20 1_555 1_555
N2 C21 1_555 1_555
C21 C11 1_555 1_555
H13 C21 1_555 1_555
C22 C9 1_555 1_555
H14 C22 1_555 1_555
C23 C10 1_555 1_555
H15 C23 1_555 1_555
C24 C10 1_555 1_555
H16 C24 1_555 1_555
Zn1_2 N2 1_555 1_555
Zn1_3 N1 1_555 1_555
N1_2 Zn1 1_555 1_555
N2_2 Zn1 1_555 1_555
O3 C3 1_555 1_555
C8 C13 1_555 1_555
C14 C17 1_555 1_555
C15 C23 1_555 1_555
C16 C24 1_555 1_555
C19 C20 1_555 1_555
N2 C22 1_555 1_555

#END
