
#######################################################################
#
#                 Cambridge Crystallographic Data Centre
#                                CCDC 
#
#######################################################################
#
# If this CIF has been generated from an entry in the Cambridge 
# Structural Database, then it will include bibliographic, chemical, 
# crystal, experimental, refinement or atomic coordinate data resulting 
# from the CCDC's data processing and validation procedures.
#
#######################################################################

data_ROCYAJ
_symmetry_cell_setting           orthorhombic
_symmetry_space_group_name_H-M   'C c c a'
_symmetry_Int_Tables_number      68
_space_group_name_Hall           '-C 2a 2bc'
loop_
_symmetry_equiv_pos_site_id
_symmetry_equiv_pos_as_xyz
1 x,y,z
2 -x,1/2-y,z
3 1/2+x,-y,1/2-z
4 1/2-x,1/2+y,1/2-z
5 1/2+x,1/2+y,z
6 1/2-x,-y,z
7 x,1/2-y,1/2-z
8 -x,y,1/2-z
9 -x,-y,-z
10 x,1/2+y,-z
11 1/2-x,y,1/2+z
12 1/2+x,1/2-y,1/2+z
13 1/2-x,1/2-y,-z
14 1/2+x,y,-z
15 -x,1/2+y,1/2+z
16 x,-y,1/2+z
_cell_length_a                   12.267(7)
_cell_length_b                   19.025(7)
_cell_length_c                   17.412(4)
_cell_angle_alpha                90
_cell_angle_beta                 90
_cell_angle_gamma                90
_cell_volume                     4063.61
loop_
_atom_site_label
_atom_site_type_symbol
_atom_site_fract_x
_atom_site_fract_y
_atom_site_fract_z
Co1 Co 1.0000 0.2500 0.5752(2)
O1 O 1.590(1) -0.2042(7) 0.6743(8)
O2 O 1.655(1) -0.1804(7) 0.5661(9)
O3 O 1.728(1) -0.1331(8) 0.6615(9)
N1 N 1.088(1) 0.1538(6) 0.5771(8)
N2 N 1.5000 -0.2500 0.4526(9)
N3 N 1.659(2) -0.1737(10) 0.637(1)
C1 C 1.096(2) 0.1125(9) 0.5204(9)
C2 C 1.161(2) 0.0515(8) 0.5190(9)
C3 C 1.219(1) 0.0329(7) 0.5844(9)
C4 C 1.211(1) 0.0761(8) 0.6466(9)
C5 C 1.144(1) 0.1350(8) 0.6418(9)
C6 C 1.413(1) -0.2658(7) 0.4116(8)
C7 C 1.414(2) -0.2654(8) 0.3329(8)
C8 C 1.5000 -0.2500 0.2897(9)
H1 H 1.0533 0.1235 0.4769
H2 H 1.1667 0.0240 0.4736
H3 H 1.2506 0.0665 0.6926
H4 H 1.1366 0.1637 0.6862
H5 H 1.6526 -0.2214 0.4374
H6 H 1.6519 -0.2232 0.3073
C3E C 1.281(1) -0.0329(7) 0.5844(9)
C2E C 1.339(2) -0.0515(8) 0.5190(9)
C1E C 1.404(2) -0.1125(9) 0.5204(9)
N1E N 1.412(1) -0.1538(6) 0.5771(8)
Co1E Co 1.5000 -0.2500 0.5752(2)
O1A O 1.410(1) -0.2958(7) 0.6743(8)
N3A N 1.341(2) -0.3263(10) 0.637(1)
O2A O 1.345(1) -0.3196(7) 0.5661(9)
O3A O 1.272(1) -0.3669(8) 0.6615(9)
N1D N 1.588(1) -0.3462(6) 0.5771(8)
C7A C 1.586(2) -0.2346(8) 0.3329(8)
C6A C 1.587(1) -0.2342(7) 0.4116(8)
C8F C 1.5000 -0.2500 0.2103(9)
C7F C 1.414(2) -0.2346(8) 0.1671(8)
C6F C 1.413(1) -0.2342(7) 0.0884(8)
N2F N 1.5000 -0.2500 0.0474(9)
Co1C Co 1.5000 -0.2500 -0.0752(2)
O1F O 1.590(1) -0.2958(7) -0.1743(8)
N3F N 1.659(2) -0.3263(10) -0.137(1)
O2F O 1.655(1) -0.3196(7) -0.0661(9)
O1G O 1.410(1) -0.2042(7) -0.1743(8)
N3G N 1.341(2) -0.1737(10) -0.137(1)
O2G O 1.345(1) -0.1804(7) -0.0661(9)
N1C N 1.412(1) -0.3462(6) -0.0771(8)
C1C C 1.404(2) -0.3875(9) -0.0204(9)
C2C C 1.339(2) -0.4485(8) -0.0190(9)
C3C C 1.281(1) -0.4671(7) -0.0844(9)
C3F C 1.219(1) -0.5329(7) -0.0844(9)
C2F C 1.161(2) -0.5515(8) -0.0190(9)
C1F C 1.096(2) -0.6125(9) -0.0204(9)
N1F N 1.088(1) -0.6538(6) -0.0771(8)
Co1F Co 1.0000 -0.7500 -0.0752(2)
C5F C 1.144(1) -0.6350(8) -0.1418(9)
C4F C 1.211(1) -0.5761(8) -0.1466(9)
H3F H 1.2506 -0.5665 -0.1926
H4F H 1.1366 -0.6637 -0.1862
H1F H 1.0533 -0.6235 0.0231
H2F H 1.1667 -0.5240 0.0264
C4C C 1.289(1) -0.4239(8) -0.1466(9)
C5C C 1.356(1) -0.3650(8) -0.1418(9)
H4C H 1.3634 -0.3363 -0.1862
H3C H 1.2494 -0.4335 -0.1926
H2C H 1.3333 -0.4760 0.0264
H1C H 1.4467 -0.3765 0.0231
N1B N 1.588(1) -0.1538(6) -0.0771(8)
O3G O 1.272(1) -0.1331(8) -0.1615(9)
O3F O 1.728(1) -0.3669(8) -0.1615(9)
C6G C 1.587(1) -0.2658(7) 0.0884(8)
C7G C 1.586(2) -0.2654(8) 0.1671(8)
H6F H 1.6519 -0.2768 0.1927
H5F H 1.6526 -0.2786 0.0626
H5G H 1.3474 -0.2214 0.0626
H6G H 1.3481 -0.2232 0.1927
H6A H 1.3481 -0.2768 0.3073
H5A H 1.3474 -0.2786 0.4374
C5E C 1.356(1) -0.1350(8) 0.6418(9)
C4E C 1.289(1) -0.0761(8) 0.6466(9)
H3E H 1.2494 -0.0665 0.6926
H4E H 1.3634 -0.1637 0.6862
H1E H 1.4467 -0.1235 0.4769
H2E H 1.3333 -0.0240 0.4736
O4 O 0.972(2) 0.036(1) 0.204(1)
loop_
_geom_bond_atom_site_label_1
_geom_bond_atom_site_label_2
_geom_bond_site_symmetry_1
_geom_bond_site_symmetry_2
Co1 N1 1_555 1_555
O1 N3 1_555 1_555
O2 N3 1_555 1_555
O3 N3 1_555 1_555
N1 C1 1_555 1_555
N2 C6 1_555 1_555
C1 C2 1_555 1_555
C2 C3 1_555 1_555
C3 C4 1_555 1_555
C4 C5 1_555 1_555
C5 N1 1_555 1_555
C6 C7 1_555 1_555
C7 C8 1_555 1_555
C8 C7A 1_555 1_555
H1 C1 1_555 1_555
H2 C2 1_555 1_555
H3 C4 1_555 1_555
H4 C5 1_555 1_555
H5 C6A 1_555 1_555
H6 C7A 1_555 1_555
C3E C3 1_555 1_555
C2E C3E 1_555 1_555
C1E C2E 1_555 1_555
N1E C1E 1_555 1_555
Co1E O1 1_555 1_555
O1A Co1E 1_555 1_555
N3A O1A 1_555 1_555
O2A Co1E 1_555 1_555
O3A N3A 1_555 1_555
N1D Co1E 1_555 1_555
C7A C6A 1_555 1_555
C6A N2 1_555 1_555
C8F C8 1_555 1_555
C7F C8F 1_555 1_555
C6F C7F 1_555 1_555
N2F C6F 1_555 1_555
Co1C N2F 1_555 1_555
O1F Co1C 1_555 1_555
N3F O1F 1_555 1_555
O2F Co1C 1_555 1_555
O1G Co1C 1_555 1_555
N3G O1G 1_555 1_555
O2G Co1C 1_555 1_555
N1C Co1C 1_555 1_555
C1C N1C 1_555 1_555
C2C C1C 1_555 1_555
C3C C2C 1_555 1_555
C3F C3C 1_555 1_555
C2F C3F 1_555 1_555
C1F C2F 1_555 1_555
N1F C1F 1_555 1_555
Co1F N1F 1_555 1_555
C5F N1F 1_555 1_555
C4F C3F 1_555 1_555
H3F C4F 1_555 1_555
H4F C5F 1_555 1_555
H1F C1F 1_555 1_555
H2F C2F 1_555 1_555
C4C C3C 1_555 1_555
C5C N1C 1_555 1_555
H4C C5C 1_555 1_555
H3C C4C 1_555 1_555
H2C C2C 1_555 1_555
H1C C1C 1_555 1_555
N1B Co1C 1_555 1_555
O3G N3G 1_555 1_555
O3F N3F 1_555 1_555
C6G N2F 1_555 1_555
C7G C8F 1_555 1_555
H6F C7G 1_555 1_555
H5F C6G 1_555 1_555
H5G C6F 1_555 1_555
H6G C7F 1_555 1_555
H6A C7 1_555 1_555
H5A C6 1_555 1_555
C5E N1E 1_555 1_555
C4E C3E 1_555 1_555
H3E C4E 1_555 1_555
H4E C5E 1_555 1_555
H1E C1E 1_555 1_555
H2E C2E 1_555 1_555
O2 Co1E 1_555 1_555
N2 Co1E 1_555 1_555
N1E Co1E 1_555 1_555
N3A O2A 1_555 1_555
N3F O2F 1_555 1_555
N3G O2G 1_555 1_555
C5F C4F 1_555 1_555
C4C C5C 1_555 1_555
C6G C7G 1_555 1_555
C5E C4E 1_555 1_555

#END
