
#######################################################################
#
#                 Cambridge Crystallographic Data Centre
#                                CCDC 
#
#######################################################################
#
# If this CIF has been generated from an entry in the Cambridge 
# Structural Database, then it will include bibliographic, chemical, 
# crystal, experimental, refinement or atomic coordinate data resulting 
# from the CCDC's data processing and validation procedures.
#
#######################################################################

data_ROCYEN
_symmetry_cell_setting           orthorhombic
_symmetry_space_group_name_H-M   'P c a 21'
_symmetry_Int_Tables_number      29
_space_group_name_Hall           'P 2c -2ac'
loop_
_symmetry_equiv_pos_site_id
_symmetry_equiv_pos_as_xyz
1 x,y,z
2 -x,-y,1/2+z
3 1/2-x,y,1/2+z
4 1/2+x,-y,z
_cell_length_a                   12.036(8)
_cell_length_b                   9.196(4)
_cell_length_c                   16.76(1)
_cell_angle_alpha                90
_cell_angle_beta                 90
_cell_angle_gamma                90
_cell_volume                     1855.05
loop_
_atom_site_label
_atom_site_type_symbol
_atom_site_fract_x
_atom_site_fract_y
_atom_site_fract_z
Ti1 Ti 0.14965(8) 0.8025(1) 0.6859
Ca1 Ca 0.2424(1) 1.3220(1) 0.9326(1)
O1 O 0.2595(4) 0.7143(5) 0.6033(3)
O2 O 0.4248(4) 0.7306(6) 0.5438(4)
O3 O 0.2022(4) 0.9883(5) 0.6405(3)
O4 O 0.1753(4) 1.1140(5) 0.8640(3)
O5 O 0.1204(3) 0.9333(5) 0.7854(3)
O6 O 0.0424(3) 0.8327(5) 0.5902(3)
O7 O -0.1105(4) 0.7654(6) 0.5289(3)
O8 O 0.0216(3) 0.7112(5) 0.7356(3)
O9 O 0.2568(4) 0.4316(5) 0.8019(3)
O10 O 0.2383(4) 0.6577(5) 0.7578(3)
O11 O 0.0865(4) 1.4891(6) 0.9242(3)
O12 O 0.4232(4) 1.2619(5) 0.8856(3)
O13 O 0.3436(4) 1.2277(5) 1.0466(3)
O14 O 0.3199(4) 1.5387(5) 0.9833(3)
N1 N 0.2859(4) 0.9393(5) 0.6937(4)
N2 N 0.0591(4) 0.6105(5) 0.6789(4)
C1 C 0.3564(6) 0.7717(7) 0.5923(5)
C2 C 0.3855(5) 0.8972(8) 0.6477(5)
C3 C 0.2963(6) 1.0380(8) 0.7600(5)
C4 C 0.1890(6) 1.0293(7) 0.8077(4)
C5 C -0.0332(5) 0.7384(7) 0.5744(4)
C6 C -0.0219(5) 0.5954(7) 0.6154(4)
C7 C 0.1075(6) 0.4801(7) 0.7145(4)
C8 C 0.2092(6) 0.5251(8) 0.7626(4)
H1 H 0.4103 0.9779 0.6170
H2 H 0.4426 0.8679 0.6833
H3 H 0.3575 1.0105 0.7925
H4 H 0.3072 1.1343 0.7410
H5 H 0.0024 0.5238 0.5785
H6 H -0.0915 0.5671 0.6372
H7 H 0.0547 0.4348 0.7485
H8 H 0.1288 0.4141 0.6736
H9 H 0.0212 1.4578 0.8957
H10 H 0.1170 1.5681 0.8854
H11 H 0.4645 1.1691 0.9081
H12 H 0.4450 1.2922 0.8353
H13 H 0.3627 1.1277 1.0390
H14 H 0.4202 1.2972 1.0230
H15 H 0.3338 1.6051 0.9284
H16 H 0.2859 1.5709 1.0186
O7A O 0.1105(4) 1.2346(6) 1.0289(3)
O9_2 O 0.2568(4) 1.4316(5) 0.8019(3)
Ca1A Ca -0.2424(1) 0.6780(1) 0.4326(1)
Ca1_2 Ca 0.2424(1) 0.3220(1) 0.9326(1)
O15 O 0.4657(4) 0.9719(5) 0.9293(3)
H17 H 0.4314 0.9051 0.9593
H18 H 0.5290 0.9563 0.9037
O16 O 0.4148(4) 0.6954(6) 0.8613(4)
H19 H 0.4157 0.8054 0.8716
H20 H 0.3544 0.7089 0.8108
loop_
_geom_bond_atom_site_label_1
_geom_bond_atom_site_label_2
_geom_bond_site_symmetry_1
_geom_bond_site_symmetry_2
Ti1 O1 1_555 1_555
Ca1 O4 1_555 1_555
O1 C1 1_555 1_555
O2 C1 1_555 1_555
O3 Ti1 1_555 1_555
O4 C4 1_555 1_555
O5 Ti1 1_555 1_555
O6 Ti1 1_555 1_555
O7 C5 1_555 1_555
O8 Ti1 1_555 1_555
O9 C8 1_555 1_555
O10 Ti1 1_555 1_555
O11 Ca1 1_555 1_555
O12 Ca1 1_555 1_555
O13 Ca1 1_555 1_555
O14 Ca1 1_555 1_555
O15 H17 1_555 1_555
O16 H19 1_555 1_555
N1 Ti1 1_555 1_555
N2 Ti1 1_555 1_555
C1 C2 1_555 1_555
C2 N1 1_555 1_555
C3 N1 1_555 1_555
C4 O5 1_555 1_555
C5 O6 1_555 1_555
C6 N2 1_555 1_555
C7 N2 1_555 1_555
C8 O10 1_555 1_555
H1 C2 1_555 1_555
H2 C2 1_555 1_555
H3 C3 1_555 1_555
H4 C3 1_555 1_555
H5 C6 1_555 1_555
H6 C6 1_555 1_555
H7 C7 1_555 1_555
H8 C7 1_555 1_555
H9 O11 1_555 1_555
H10 O11 1_555 1_555
H11 O12 1_555 1_555
H12 O12 1_555 1_555
H13 O13 1_555 1_555
H14 O13 1_555 1_555
H15 O14 1_555 1_555
H16 O14 1_555 1_555
H18 O15 1_555 1_555
H20 O16 1_555 1_555
O7A Ca1 1_555 1_555
O9_2 Ca1 1_555 1_555
Ca1A O7 1_555 1_555
Ca1_2 O9 1_555 1_555
O3 N1 1_555 1_555
O8 N2 1_555 1_555
C3 C4 1_555 1_555
C5 C6 1_555 1_555
C7 C8 1_555 1_555

#END
