
#######################################################################
#
#                 Cambridge Crystallographic Data Centre
#                                CCDC 
#
#######################################################################
#
# If this CIF has been generated from an entry in the Cambridge 
# Structural Database, then it will include bibliographic, chemical, 
# crystal, experimental, refinement or atomic coordinate data resulting 
# from the CCDC's data processing and validation procedures.
#
#######################################################################

data_ROCYUF
_symmetry_cell_setting           tetragonal
_symmetry_space_group_name_H-M   'P 43 21 2'
_symmetry_Int_Tables_number      96
_space_group_name_Hall           'P 4nw 2abw'
loop_
_symmetry_equiv_pos_site_id
_symmetry_equiv_pos_as_xyz
1 x,y,z
2 1/2-y,1/2+x,3/4+z
3 -x,-y,1/2+z
4 1/2+y,1/2-x,1/4+z
5 1/2+x,1/2-y,1/4-z
6 1/2-x,1/2+y,3/4-z
7 y,x,-z
8 -y,-x,1/2-z
_cell_length_a                   11.6638(4)
_cell_length_b                   11.6638(4)
_cell_length_c                   36.790(3)
_cell_angle_alpha                90
_cell_angle_beta                 90
_cell_angle_gamma                90
_cell_volume                     5005.07
loop_
_atom_site_label
_atom_site_type_symbol
_atom_site_fract_x
_atom_site_fract_y
_atom_site_fract_z
Zn1 Zn 0.31586(12) 0.24203(9) 0.08289(3)
N1 N 1.1531(9) 0.2442(10) 0.0590(2)
C1 C 1.0603(15) 0.2010(18) 0.0754(4)
H1 H 1.0695 0.1633 0.0981
C2 C 0.9520(14) 0.209(2) 0.0608(5)
H2 H 0.8905 0.1702 0.0725
C3 C 0.9303(12) 0.2697(14) 0.0303(3)
C4 C 1.0238(12) 0.3197(16) 0.0137(3)
H3 H 1.0150 0.3667 -0.0072
C5 C 1.1322(12) 0.2985(16) 0.0287(4)
H4 H 1.1966 0.3263 0.0156
C6 C 0.8128(11) 0.2916(12) 0.0165(3)
C7 C 0.7160(10) 0.2663(12) 0.0381(3)
H5 H 0.7272 0.2351 0.0617
C8 C 0.6056(11) 0.2855(11) 0.0259(3)
C9 C 0.5895(14) 0.3314(19) -0.0090(3)
H6 H 0.5150 0.3510 -0.0173
C10 C 0.6828(17) 0.347(3) -0.0305(4)
H7 H 0.6716 0.3727 -0.0548
C11 C 0.7948(15) 0.327(3) -0.0184(4)
H8 H 0.8579 0.3376 -0.0344
C12 C 0.5087(13) 0.2629(12) 0.0509(3)
O1 O 0.4102(8) 0.2715(9) 0.0388(2)
O2 O 0.5266(8) 0.2475(8) 0.0840(2)
N2 N 0.3014(9) -0.6014(7) 0.1090(3)
C13 C 0.3813(11) -0.5233(10) 0.1083(4)
H9 H 0.4535 -0.5419 0.0979
C14 C 0.3642(14) -0.4106(11) 0.1226(5)
H10 H 0.4253 -0.3568 0.1220
C15 C 0.2653(14) -0.3808(11) 0.1365(4)
C16 C 0.1821(13) -0.4641(10) 0.1402(4)
H11 H 0.1122 -0.4480 0.1523
C17 C 0.2028(12) -0.5723(10) 0.1256(4)
H12 H 0.1442 -0.6285 0.1275
C18 C 0.2443(17) -0.2614(12) 0.1483(5)
C19 C 0.178(2) -0.2347(13) 0.1796(5)
H13 H 0.1472 -0.2947 0.1940
C20 C 0.1592(16) -0.1254(14) 0.1887(5)
H14 H 0.1165 -0.1086 0.2100
C21 C 0.2008(18) -0.0354(11) 0.1675(4)
H15 H 0.1844 0.0417 0.1740
C22 C 0.2663(15) -0.0590(10) 0.1368(4)
C23 C 0.2887(15) -0.1698(10) 0.1273(4)
H16 H 0.3342 -0.1856 0.1064
C24 C 0.3079(14) 0.0377(9) 0.1122(3)
O3 O 0.2938(9) 0.1379(6) 0.1237(2)
O4 O 0.3467(14) 0.0150(8) 0.0823(3)
Zn1_2 Zn 0.31586(12) -0.75797(9) 0.08289(3)
Zn1_3 Zn 1.31586(12) 0.24203(9) 0.08289(3)
N1_2 N 0.1531(9) 0.2442(10) 0.0590(2)
N2_2 N 0.3014(9) 0.3986(7) 0.1090(3)
O5 O 0.986(7) 0.624(6) 0.000(2)
C25 C 1.029(7) 0.603(7) 0.041(2)
C26 C 1.015(9) 0.710(9) 0.066(3)
C27 C 1.024(8) 0.812(8) 0.035(3)
loop_
_geom_bond_atom_site_label_1
_geom_bond_atom_site_label_2
_geom_bond_site_symmetry_1
_geom_bond_site_symmetry_2
Zn1 O1 1_555 1_555
N1 C1 1_555 1_555
C1 H1 1_555 1_555
C2 C1 1_555 1_555
H2 C2 1_555 1_555
C3 C2 1_555 1_555
C4 C3 1_555 1_555
H3 C4 1_555 1_555
C5 N1 1_555 1_555
H4 C5 1_555 1_555
C6 C3 1_555 1_555
C7 C6 1_555 1_555
H5 C7 1_555 1_555
C8 C7 1_555 1_555
C9 C8 1_555 1_555
H6 C9 1_555 1_555
C10 C9 1_555 1_555
H7 C10 1_555 1_555
C11 C6 1_555 1_555
H8 C11 1_555 1_555
C12 C8 1_555 1_555
O1 C12 1_555 1_555
O2 Zn1 1_555 1_555
N2 C13 1_555 1_555
C13 H9 1_555 1_555
C14 C13 1_555 1_555
H10 C14 1_555 1_555
C15 C14 1_555 1_555
C16 C15 1_555 1_555
H11 C16 1_555 1_555
C17 N2 1_555 1_555
H12 C17 1_555 1_555
C18 C15 1_555 1_555
C19 C18 1_555 1_555
H13 C19 1_555 1_555
C20 C19 1_555 1_555
H14 C20 1_555 1_555
C21 C20 1_555 1_555
H15 C21 1_555 1_555
C22 C21 1_555 1_555
C23 C18 1_555 1_555
H16 C23 1_555 1_555
C24 C22 1_555 1_555
O3 Zn1 1_555 1_555
O4 C24 1_555 1_555
O5 C25 1_555 1_555
C25 C26 1_555 1_555
C26 C27 1_555 1_555
Zn1_2 N2 1_555 1_555
Zn1_3 N1 1_555 1_555
N1_2 Zn1 1_555 1_555
N2_2 Zn1 1_555 1_555
C4 C5 1_555 1_555
C10 C11 1_555 1_555
C12 O2 1_555 1_555
C16 C17 1_555 1_555
C22 C23 1_555 1_555
C24 O3 1_555 1_555

#END
