
#######################################################################
#
#                 Cambridge Crystallographic Data Centre
#                                CCDC 
#
#######################################################################
#
# If this CIF has been generated from an entry in the Cambridge 
# Structural Database, then it will include bibliographic, chemical, 
# crystal, experimental, refinement or atomic coordinate data resulting 
# from the CCDC's data processing and validation procedures.
#
#######################################################################

data_ROCZIT
_symmetry_cell_setting           triclinic
_symmetry_space_group_name_H-M   'P -1'
_symmetry_Int_Tables_number      2
_space_group_name_Hall           '-P 1'
loop_
_symmetry_equiv_pos_site_id
_symmetry_equiv_pos_as_xyz
1 x,y,z
2 -x,-y,-z
_cell_length_a                   8.501(6)
_cell_length_b                   10.324(6)
_cell_length_c                   11.544(5)
_cell_angle_alpha                82.720(19)
_cell_angle_beta                 71.95(2)
_cell_angle_gamma                78.96(2)
_cell_volume                     942.996
loop_
_atom_site_label
_atom_site_type_symbol
_atom_site_fract_x
_atom_site_fract_y
_atom_site_fract_z
Cd1 Cd 0.47585(2) 0.805517(14) 0.615866(13)
C1 C 0.7882(3) 0.6199(3) 0.4387(2)
H1 H 0.7253 0.5519 0.4532
C2 C 0.8632(4) 0.8068(3) 0.4401(3)
H2 H 0.8603 0.8930 0.4572
C3 C 0.9959(4) 0.7316(4) 0.3683(4)
H3 H 1.0998 0.7560 0.3266
C4 C 1.0480(4) 0.5033(3) 0.2959(3)
H4 H 1.0233 0.4203 0.3414
H5 H 1.1659 0.5057 0.2826
C5 C 1.0163(5) 0.5078(4) 0.1749(3)
H6 H 1.0912 0.4364 0.1289
H7 H 0.9022 0.4940 0.1880
C6 C 0.8863(4) 0.7101(4) 0.1059(3)
H8 H 0.8141 0.7183 0.1891
H9 H 0.8300 0.6705 0.0614
C7 C 0.9187(5) 0.8434(4) 0.0471(4)
H10 H 0.8129 0.9034 0.0617
H11 H 0.9883 0.8763 0.0855
C8 C 0.9287(4) 0.8580(4) -0.1782(4)
H12 H 0.8149 0.8670 -0.1702
C9 C 1.0557(4) 0.8556(3) -0.2831(3)
H13 H 1.0430 0.8645 -0.3611
C10 C 1.1674(4) 0.8314(3) -0.1389(3)
H14 H 1.2462 0.8190 -0.0962
C11 C 0.4190(3) 0.9314(2) 0.3529(2)
C12 C 0.4435(3) 0.8234(2) 0.2688(2)
C13 C 0.4619(3) 0.8584(2) 0.1456(2)
H15 H 0.4557 0.9470 0.1166
C14 C 0.4896(3) 0.7606(2) 0.0659(2)
C15 C 0.4997(3) 0.6284(2) 0.1097(2)
H16 H 0.533(4) 0.571(3) 0.053(2)
C16 C 0.4851(3) 0.5938(2) 0.2320(2)
C17 C 0.4549(3) 0.6913(2) 0.31288(19)
H17 H 0.4425 0.6683 0.3954
C18 C 0.5046(3) 0.4503(2) 0.2776(2)
N1 N 0.7325(3) 0.7363(2) 0.4841(2)
N2 N 0.9479(3) 0.6124(2) 0.3688(2)
N3 N 1.0015(3) 0.8445(3) -0.0855(3)
N4 N 1.2057(3) 0.8382(2) -0.2580(2)
O1 O 0.3675(3) 0.90610(18) 0.46552(16)
O2 O 0.4509(3) 1.04185(18) 0.30128(18)
O3 O 0.4707(2) 0.36767(17) 0.22079(17)
O4 O 0.5521(2) 0.41949(16) 0.37137(16)
O5 O 0.5123(3) 0.8007(2) -0.05412(17)
H18 H 0.5265 0.7362 -0.0931
O6 O 1.0401(3) 0.6289(3) 0.1062(2)
Cd1_2 Cd 1.47585(2) 0.805517(14) -0.384134(13)
Cd1A Cd 0.52415(2) 1.194483(14) 0.384134(13)
Cd1A_2 Cd 0.52415(2) 0.194483(14) 0.384134(13)
N4_2 N 0.2057(3) 0.8382(2) 0.7420(2)
O2A O 0.5491(3) 0.95815(18) 0.69872(18)
O3A O 0.5293(2) 0.63233(17) 0.77921(17)
O4A O 0.4479(2) 0.58051(16) 0.62863(16)
loop_
_geom_bond_atom_site_label_1
_geom_bond_atom_site_label_2
_geom_bond_site_symmetry_1
_geom_bond_site_symmetry_2
Cd1 N1 1_555 1_555
C1 H1 1_555 1_555
C2 H2 1_555 1_555
C3 C2 1_555 1_555
H3 C3 1_555 1_555
C4 H4 1_555 1_555
H5 C4 1_555 1_555
C5 C4 1_555 1_555
H6 C5 1_555 1_555
H7 C5 1_555 1_555
C6 H8 1_555 1_555
H9 C6 1_555 1_555
C7 C6 1_555 1_555
H10 C7 1_555 1_555
H11 C7 1_555 1_555
C8 H12 1_555 1_555
C9 C8 1_555 1_555
H13 C9 1_555 1_555
C10 H14 1_555 1_555
C11 C12 1_555 1_555
C12 C13 1_555 1_555
C13 H15 1_555 1_555
C14 C13 1_555 1_555
C15 C14 1_555 1_555
H16 C15 1_555 1_555
C16 C15 1_555 1_555
C17 C12 1_555 1_555
H17 C17 1_555 1_555
C18 C16 1_555 1_555
N1 C1 1_555 1_555
N2 C1 1_555 1_555
N3 C7 1_555 1_555
N4 C9 1_555 1_555
O1 Cd1 1_555 1_555
O2 C11 1_555 1_555
O3 C18 1_555 1_555
O4 C18 1_555 1_555
O5 C14 1_555 1_555
H18 O5 1_555 1_555
O6 C5 1_555 1_555
Cd1_2 N4 1_555 1_555
Cd1A O2 1_555 1_555
Cd1A_2 O3 1_555 1_555
N4_2 Cd1 1_555 1_555
O2A Cd1 1_555 1_555
O3A Cd1 1_555 1_555
O4A Cd1 1_555 1_555
C2 N1 1_555 1_555
C3 N2 1_555 1_555
C4 N2 1_555 1_555
C6 O6 1_555 1_555
C8 N3 1_555 1_555
C10 N3 1_555 1_555
C10 N4 1_555 1_555
C11 O1 1_555 1_555
C16 C17 1_555 1_555
O4 Cd1A_2 1_555 1_555

#END
