
#######################################################################
#
#                 Cambridge Crystallographic Data Centre
#                                CCDC 
#
#######################################################################
#
# If this CIF has been generated from an entry in the Cambridge 
# Structural Database, then it will include bibliographic, chemical, 
# crystal, experimental, refinement or atomic coordinate data resulting 
# from the CCDC's data processing and validation procedures.
#
#######################################################################

data_ROCZAL
_symmetry_cell_setting           monoclinic
_symmetry_space_group_name_H-M   'P 2/n'
_symmetry_Int_Tables_number      13
_space_group_name_Hall           '-P 2yac'
loop_
_symmetry_equiv_pos_site_id
_symmetry_equiv_pos_as_xyz
1 x,y,z
2 1/2-x,y,1/2-z
3 -x,-y,-z
4 1/2+x,-y,1/2+z
_cell_length_a                   11.876(4)
_cell_length_b                   10.864(5)
_cell_length_c                   11.960(3)
_cell_angle_alpha                90
_cell_angle_beta                 90.869(13)
_cell_angle_gamma                90
_cell_volume                     1542.91
loop_
_atom_site_label
_atom_site_type_symbol
_atom_site_fract_x
_atom_site_fract_y
_atom_site_fract_z
Zn1 Zn -0.02567(5) 0.35614(5) 0.68879(4)
C1 C 0.0951(5) 0.1652(5) 0.5403(5)
H1 H 0.0841 0.2120 0.4759
C2 C 0.1426(6) 0.0142(6) 0.6481(5)
H2 H 0.1694 -0.0608 0.6749
C3 C 0.0994(6) 0.1074(6) 0.7086(5)
H3 H 0.0914 0.1065 0.7859
C4 C 0.1779(5) -0.0179(7) 0.4429(6)
H4 H 0.1367 0.0100 0.3769
H5 H 0.1606 -0.1043 0.4537
C5 C 0.3004(6) -0.0047(6) 0.4233(6)
H6 H 0.3429 -0.0275 0.4900
H7 H 0.3231 -0.0578 0.3625
C6 C 0.4159(9) 0.1532(8) 0.3583(7)
H8 H 0.4194 0.1258 0.2813
H9 H 0.4737 0.1086 0.3997
C7 C 0.4466(5) 0.2819(6) 0.3603(4)
H10 H 0.4017 0.3260 0.3050
H11 H 0.5252 0.2903 0.3407
C8 C 0.3371(5) 0.3936(6) 0.5086(5)
H12 H 0.2734 0.4151 0.4667
C9 C 0.3543(5) 0.4140(6) 0.6188(5)
H13 H 0.3038 0.4528 0.6660
C10 C 0.4996(4) 0.3234(5) 0.5591(4)
H14 H 0.5701 0.2864 0.5557
C11 C -0.2500 0.4332(6) 0.7500
C12 C -0.2500 0.2902(6) 0.7500
C13 C -0.0454(4) 0.4625(4) 0.4673(4)
N1 N 0.0693(3) 0.2026(4) 0.6409(3)
N2 N 0.1390(4) 0.0524(4) 0.5410(4)
N3 N 0.4290(4) 0.3364(4) 0.4709(3)
N4 N 0.4569(4) 0.3692(4) 0.6502(3)
O1 O -0.0845(3) 0.3691(3) 0.5147(3)
O2 O -0.0720(3) 0.4993(3) 0.3713(3)
O3 O -0.1602(3) 0.4846(3) 0.7224(3)
O4 O -0.1587(3) 0.2380(3) 0.7309(3)
O5 O 0.3210(6) 0.1194(5) 0.3960(5)
Zn1A Zn 0.52567(5) 0.35614(5) 0.81121(4)
Zn1B Zn 0.02567(5) 0.64386(5) 0.31121(4)
Zn1A_2 Zn -0.47433(5) 0.35614(5) 0.81121(4)
C1A C 0.4049(5) 0.1652(5) 0.9597(5)
H1A H 0.4159 0.2120 1.0241
C2A C 0.3574(6) 0.0142(6) 0.8519(5)
H2A H 0.3306 -0.0608 0.8251
C3A C 0.4006(6) 0.1074(6) 0.7914(5)
H3A H 0.4086 0.1065 0.7141
C4A C 0.3221(5) -0.0179(7) 1.0571(6)
H4A H 0.3633 0.0100 1.1231
H5A H 0.3394 -0.1043 1.0463
C5A C 0.1996(6) -0.0047(6) 1.0767(6)
H6A H 0.1571 -0.0275 1.0100
H7A H 0.1769 -0.0578 1.1375
C6A C 0.0841(9) 0.1532(8) 1.1417(7)
H8A H 0.0806 0.1258 1.2187
H9A H 0.0263 0.1086 1.1003
C7A C 0.0534(5) 0.2819(6) 1.1397(4)
H10A H 0.0983 0.3260 1.1950
H11A H -0.0252 0.2903 1.1593
C8A C 0.1629(5) 0.3936(6) 0.9914(5)
H12A H 0.2266 0.4151 1.0333
C9A C 0.1457(5) 0.4140(6) 0.8812(5)
H13A H 0.1962 0.4528 0.8340
C10A C 0.0004(4) 0.3234(5) 0.9409(4)
H14A H -0.0701 0.2864 0.9443
C13B C 0.0454(4) 0.5375(4) 0.5327(4)
N1A N 0.4307(3) 0.2026(4) 0.8591(3)
N2A N 0.3610(4) 0.0524(4) 0.9590(4)
N3A N 0.0710(4) 0.3364(4) 1.0291(3)
N4A N 0.0431(4) 0.3692(4) 0.8498(3)
O1B O 0.0845(3) 0.6309(3) 0.4853(3)
O1A O 0.5845(3) 0.3691(3) 0.9853(3)
O2B O 0.0720(3) 0.5007(3) 0.6287(3)
O2C O 0.4280(3) 0.5007(3) 0.8713(3)
O3A O -0.3398(3) 0.4846(3) 0.7776(3)
O3A_2 O 0.6602(3) 0.4846(3) 0.7776(3)
O4A O -0.3413(3) 0.2380(3) 0.7691(3)
O4A_2 O 0.6587(3) 0.2380(3) 0.7691(3)
O5A O 0.1790(6) 0.1194(5) 1.1040(5)
O6 O 0.7389(5) 0.2738(7) 0.3760(7)
loop_
_geom_bond_atom_site_label_1
_geom_bond_atom_site_label_2
_geom_bond_site_symmetry_1
_geom_bond_site_symmetry_2
Zn1 N1 1_555 1_555
C1 H1 1_555 1_555
C2 H2 1_555 1_555
C3 C2 1_555 1_555
H3 C3 1_555 1_555
C4 H4 1_555 1_555
H5 C4 1_555 1_555
C5 C4 1_555 1_555
H6 C5 1_555 1_555
H7 C5 1_555 1_555
C6 H8 1_555 1_555
H9 C6 1_555 1_555
C7 C6 1_555 1_555
H10 C7 1_555 1_555
H11 C7 1_555 1_555
C8 H12 1_555 1_555
C9 C8 1_555 1_555
H13 C9 1_555 1_555
C10 H14 1_555 1_555
C11 C12 1_555 1_555
C12 O4 1_555 1_555
C13 O1 1_555 1_555
N1 C1 1_555 1_555
N2 C1 1_555 1_555
N3 C7 1_555 1_555
N4 C9 1_555 1_555
O1 Zn1 1_555 1_555
O2 C13 1_555 1_555
O3 Zn1 1_555 1_555
O4 Zn1 1_555 1_555
O5 C5 1_555 1_555
Zn1A N4 1_555 1_555
Zn1B O2 1_555 1_555
Zn1A_2 O3A 1_555 1_555
C1A H1A 1_555 1_555
C2A H2A 1_555 1_555
C3A C2A 1_555 1_555
H3A C3A 1_555 1_555
C4A H4A 1_555 1_555
H5A C4A 1_555 1_555
C5A C4A 1_555 1_555
H6A C5A 1_555 1_555
H7A C5A 1_555 1_555
C6A H8A 1_555 1_555
H9A C6A 1_555 1_555
C7A C6A 1_555 1_555
H10A C7A 1_555 1_555
H11A C7A 1_555 1_555
C8A H12A 1_555 1_555
C9A C8A 1_555 1_555
H13A C9A 1_555 1_555
C10A H14A 1_555 1_555
C13B C13 1_555 1_555
N1A Zn1A 1_555 1_555
N2A C1A 1_555 1_555
N3A C7A 1_555 1_555
N4A Zn1 1_555 1_555
O1B Zn1B 1_555 1_555
O1A Zn1A 1_555 1_555
O2B Zn1 1_555 1_555
O2C Zn1A 1_555 1_555
O3A C11 1_555 1_555
O3A_2 Zn1A 1_555 1_555
O4A C12 1_555 1_555
O4A_2 Zn1A 1_555 1_555
O5A C5A 1_555 1_555
C2 N2 1_555 1_555
C3 N1 1_555 1_555
C4 N2 1_555 1_555
C6 O5 1_555 1_555
C8 N3 1_555 1_555
C10 N3 1_555 1_555
C10 N4 1_555 1_555
C11 O3 1_555 1_555
Zn1A_2 O4A 1_555 1_555
C1A N1A 1_555 1_555
C2A N2A 1_555 1_555
C3A N1A 1_555 1_555
C4A N2A 1_555 1_555
C6A O5A 1_555 1_555
C8A N3A 1_555 1_555
C9A N4A 1_555 1_555
C10A N3A 1_555 1_555
C10A N4A 1_555 1_555
C13B O1B 1_555 1_555
C13B O2B 1_555 1_555

#END
