
#######################################################################
#
#                 Cambridge Crystallographic Data Centre
#                                CCDC 
#
#######################################################################
#
# If this CIF has been generated from an entry in the Cambridge 
# Structural Database, then it will include bibliographic, chemical, 
# crystal, experimental, refinement or atomic coordinate data resulting 
# from the CCDC's data processing and validation procedures.
#
#######################################################################

data_RODBAO
_symmetry_cell_setting           monoclinic
_symmetry_space_group_name_H-M   'P 21/c'
_symmetry_Int_Tables_number      14
_space_group_name_Hall           '-P 2ybc'
loop_
_symmetry_equiv_pos_site_id
_symmetry_equiv_pos_as_xyz
1 x,y,z
2 -x,1/2+y,1/2-z
3 -x,-y,-z
4 x,1/2-y,1/2+z
_cell_length_a                   17.474(6)
_cell_length_b                   13.589(3)
_cell_length_c                   19.478(5)
_cell_angle_alpha                90
_cell_angle_beta                 115.823(9)
_cell_angle_gamma                90
_cell_volume                     4163.29
loop_
_atom_site_label
_atom_site_type_symbol
_atom_site_fract_x
_atom_site_fract_y
_atom_site_fract_z
Cd1 Cd 0.20631(2) 0.39970(3) 0.466410(18)
Cd2 Cd -0.34792(2) 0.78736(3) 0.35583(2)
Cd3 Cd 0.21441(2) 0.48906(3) 0.284204(19)
C1 C 0.1124(3) 0.4156(4) 0.1071(3)
H1 H 0.1625 0.4162 0.1013
C2 C 0.0232(4) 0.4320(5) 0.1538(3)
H2 H -0.0002 0.4462 0.1874
C3 C -0.0206(4) 0.3946(6) 0.0826(4)
H3 H -0.0783 0.3795 0.0585
C4 C 0.0208(4) 0.3470(5) -0.0223(3)
H4 H 0.0735 0.3479 -0.0275
H5 H -0.0187 0.3911 -0.0604
C5 C -0.0151(4) 0.2446(5) -0.0378(4)
H6 H -0.0170 0.2206 -0.0854
H7 H 0.0207 0.2007 0.0028
C6 C -0.1442(6) 0.1574(6) -0.0628(5)
H8 H -0.1896 0.1599 -0.0470
H9 H -0.1066 0.1038 -0.0355
C7 C -0.1799(7) 0.1370(7) -0.1426(5)
H10 H -0.2162 0.0794 -0.1539
H11 H -0.1348 0.1232 -0.1576
C8 C -0.3160(7) 0.2485(7) -0.2109(5)
H12 H -0.3565 0.2118 -0.2032
C9 C -0.3284(5) 0.3355(6) -0.2473(4)
H13 H -0.3800 0.3686 -0.2710
C10 C -0.1967(5) 0.2984(5) -0.2088(4)
H14 H -0.1399 0.3008 -0.2000
C11 C -0.4174(5) 0.6383(5) 0.2048(4)
H15 H -0.4238 0.6878 0.1698
C12 C -0.3845(5) 0.5613(5) 0.3078(4)
H16 H -0.3627 0.5467 0.3595
C13 C -0.4239(4) 0.4971(5) 0.2517(4)
H17 H -0.4350 0.4314 0.2572
C14 C -0.4839(5) 0.5022(6) 0.1093(4)
H18 H -0.5389 0.4750 0.1000
H19 H -0.4929 0.5531 0.0717
C15 C -0.4294(6) 0.4229(6) 0.1009(4)
H20 H -0.4595 0.3892 0.0525
H21 H -0.4147 0.3752 0.1417
C16 C -0.2912(7) 0.4000(8) 0.1193(5)
H22 H -0.2720 0.3741 0.1705
H23 H -0.3113 0.3457 0.0834
C17 C -0.2187(5) 0.4542(7) 0.1113(4)
H24 H -0.1696 0.4114 0.1266
H25 H -0.2024 0.5117 0.1440
C18 C -0.2645(5) 0.4242(6) -0.0288(5)
H26 H -0.2556 0.3566 -0.0273
C19 C -0.2970(5) 0.4816(5) -0.0913(4)
H27 H -0.3152 0.4595 -0.1411
C20 C -0.2679(4) 0.5756(5) 0.0045(3)
H28 H -0.2610 0.6309 0.0347
C21 C 0.0642(3) 0.5420(4) 0.3402(3)
C22 C -0.1750(3) 0.6594(4) 0.3961(3)
C23 C -0.1522(3) 0.7753(4) 0.1589(3)
C24 C -0.0188(3) 0.5969(4) 0.3153(2)
C25 C -0.0631(3) 0.5949(4) 0.3599(3)
H29 H -0.0446 0.5540 0.4024
C26 C -0.1343(3) 0.6528(4) 0.3417(3)
C27 C -0.1632(3) 0.7136(4) 0.2770(3)
H30 H -0.2098 0.7545 0.2658
C28 C -0.1219(3) 0.7127(4) 0.2293(3)
C29 C -0.0495(3) 0.6544(4) 0.2495(3)
H31 H -0.0213 0.6539 0.2185
C30 C 0.4094(3) 0.2932(4) 0.5468(3)
C31 C 0.3921(3) 0.3845(4) 0.2910(3)
C32 C 0.6612(3) 0.4487(4) 0.5297(3)
C33 C 0.4503(3) 0.3348(4) 0.4996(3)
C34 C 0.4032(3) 0.3460(4) 0.4211(3)
H32 H 0.3459 0.3292 0.3981
C35 C 0.4417(3) 0.3821(4) 0.3770(3)
C36 C 0.5270(3) 0.4109(4) 0.4117(3)
H33 H 0.5530 0.4337 0.3821
C37 C 0.5729(3) 0.4055(4) 0.4906(3)
C38 C 0.5351(3) 0.3651(4) 0.5334(3)
H34 H 0.5668 0.3580 0.5858
N1 N 0.1062(3) 0.4460(3) 0.1690(2)
N2 N 0.0373(3) 0.3837(4) 0.0538(2)
N3 N -0.2313(6) 0.2241(5) -0.1871(4)
N4 N -0.2520(3) 0.3674(4) -0.2438(3)
N5 N -0.3808(3) 0.6508(4) 0.2789(3)
N6 N -0.4446(3) 0.5452(4) 0.1854(3)
N7 N -0.2474(3) 0.4842(5) 0.0311(3)
N8 N -0.2991(3) 0.5771(4) -0.0704(3)
O1 O 0.1068(2) 0.5599(3) 0.3037(2)
O2 O 0.0855(2) 0.4866(3) 0.3969(2)
O3 O -0.1668(2) 0.5861(3) 0.43846(19)
O4 O -0.2114(2) 0.7378(3) 0.3979(2)
O5 O -0.2002(2) 0.8487(3) 0.15302(18)
O6 O -0.1304(2) 0.7556(3) 0.1074(2)
O7 O 0.3294(2) 0.2956(3) 0.5219(2)
O8 O 0.4566(2) 0.2552(3) 0.6101(2)
O9 O 0.3128(2) 0.3975(3) 0.26076(18)
O10 O 0.4333(2) 0.3683(3) 0.25304(19)
O11 O 0.6935(2) 0.4513(3) 0.6005(2)
O12 O 0.6941(2) 0.4820(3) 0.4888(2)
O13 O -0.0981(3) 0.2468(3) -0.0422(2)
O14 O -0.3556(4) 0.4681(4) 0.1039(4)
Cd1B Cd -0.20631(2) 0.60030(3) 0.533590(18)
Cd1A Cd -0.20631(2) 0.89970(3) 0.033590(18)
Cd1B_2 Cd 0.79369(2) 0.60030(3) 0.533590(18)
Cd2C Cd -0.34792(2) 0.71264(3) -0.14417(2)
Cd2B Cd 0.34792(2) 0.21264(3) 0.64417(2)
Cd2A Cd 0.34792(2) 0.28736(3) 0.14417(2)
Cd3B Cd -0.21441(2) 0.51094(3) -0.284204(19)
Cd3A Cd -0.21441(2) 0.98906(3) 0.215796(19)
Cd3B_2 Cd 0.78559(2) 0.51094(3) 0.715796(19)
N4B N 0.2520(3) 0.6326(4) 0.2438(3)
N8C N -0.2991(3) 0.9229(4) 0.4296(3)
O3B O 0.1668(2) 0.4139(3) 0.56154(19)
O5A O 0.2002(2) 0.3487(3) 0.34698(18)
O6A O 0.1304(2) 0.2556(3) 0.3926(2)
O7B O -0.3294(2) 0.7044(3) 0.4781(2)
O8B O -0.4566(2) 0.7448(3) 0.3899(2)
O10A O -0.4333(2) 0.8683(3) 0.24696(19)
O11B O 0.3065(2) 0.5487(3) 0.3995(2)
O12B O 0.3059(2) 0.5180(3) 0.5112(2)
O15 O 0.1830(10) 0.7703(10) 0.9070(9)
H35 H 0.210(11) 0.772(19) 0.879(10)
H36 H 0.131(4) 0.758(19) 0.878(10)
loop_
_geom_bond_atom_site_label_1
_geom_bond_atom_site_label_2
_geom_bond_site_symmetry_1
_geom_bond_site_symmetry_2
Cd1 O2 1_555 1_555
Cd2 N5 1_555 1_555
Cd3 N1 1_555 1_555
C1 H1 1_555 1_555
C2 H2 1_555 1_555
C3 C2 1_555 1_555
H3 C3 1_555 1_555
C4 H4 1_555 1_555
H5 C4 1_555 1_555
C5 C4 1_555 1_555
H6 C5 1_555 1_555
H7 C5 1_555 1_555
C6 H8 1_555 1_555
H9 C6 1_555 1_555
C7 C6 1_555 1_555
H10 C7 1_555 1_555
H11 C7 1_555 1_555
C8 H12 1_555 1_555
C9 C8 1_555 1_555
H13 C9 1_555 1_555
C10 H14 1_555 1_555
C11 H15 1_555 1_555
C12 H16 1_555 1_555
C13 C12 1_555 1_555
H17 C13 1_555 1_555
C14 H18 1_555 1_555
H19 C14 1_555 1_555
C15 C14 1_555 1_555
H20 C15 1_555 1_555
H21 C15 1_555 1_555
C16 H22 1_555 1_555
H23 C16 1_555 1_555
C17 C16 1_555 1_555
H24 C17 1_555 1_555
H25 C17 1_555 1_555
C18 H26 1_555 1_555
C19 C18 1_555 1_555
H27 C19 1_555 1_555
C20 H28 1_555 1_555
C21 C24 1_555 1_555
C22 C26 1_555 1_555
C23 C28 1_555 1_555
C24 C25 1_555 1_555
C25 H29 1_555 1_555
C26 C25 1_555 1_555
C27 C26 1_555 1_555
H30 C27 1_555 1_555
C28 C27 1_555 1_555
C29 C24 1_555 1_555
H31 C29 1_555 1_555
C30 C33 1_555 1_555
C31 C35 1_555 1_555
C32 C37 1_555 1_555
C33 C34 1_555 1_555
C34 H32 1_555 1_555
C35 C34 1_555 1_555
C36 C35 1_555 1_555
H33 C36 1_555 1_555
C37 C36 1_555 1_555
C38 C33 1_555 1_555
H34 C38 1_555 1_555
N1 C1 1_555 1_555
N2 C1 1_555 1_555
N3 C7 1_555 1_555
N4 C9 1_555 1_555
N5 C11 1_555 1_555
N6 C11 1_555 1_555
N7 C17 1_555 1_555
N8 C19 1_555 1_555
O1 Cd3 1_555 1_555
O2 C21 1_555 1_555
O3 C22 1_555 1_555
O4 Cd2 1_555 1_555
O5 C23 1_555 1_555
O6 C23 1_555 1_555
O7 Cd1 1_555 1_555
O8 C30 1_555 1_555
O9 Cd3 1_555 1_555
O10 C31 1_555 1_555
O11 C32 1_555 1_555
O12 C32 1_555 1_555
O13 C5 1_555 1_555
O14 C15 1_555 1_555
O15 H35 1_555 1_555
H36 O15 1_555 1_555
Cd1B O3 1_555 1_555
Cd1A O5 1_555 1_555
Cd1B_2 O12 1_555 1_555
Cd2C N8 1_555 1_555
Cd2B O7 1_555 1_555
Cd2A O10 1_555 1_555
Cd3B N4 1_555 1_555
Cd3A O5 1_555 1_555
Cd3B_2 O11 1_555 1_555
N4B Cd3 1_555 1_555
N8C Cd2 1_555 1_555
O3B Cd1 1_555 1_555
O5A Cd1 1_555 1_555
O6A Cd1 1_555 1_555
O7B Cd2 1_555 1_555
O8B Cd2 1_555 1_555
O10A Cd2 1_555 1_555
O11B Cd3 1_555 1_555
O12B Cd1 1_555 1_555
Cd3 O5A 1_555 1_555
C2 N1 1_555 1_555
C3 N2 1_555 1_555
C4 N2 1_555 1_555
C6 O13 1_555 1_555
C8 N3 1_555 1_555
C10 N3 1_555 1_555
C10 N4 1_555 1_555
C12 N5 1_555 1_555
C13 N6 1_555 1_555
C14 N6 1_555 1_555
C16 O14 1_555 1_555
C18 N7 1_555 1_555
C20 N7 1_555 1_555
C20 N8 1_555 1_555
C21 O1 1_555 1_555
C22 O4 1_555 1_555
C28 C29 1_555 1_555
C30 O7 1_555 1_555
C31 O9 1_555 1_555
C37 C38 1_555 1_555
O6 Cd1A 1_555 1_555
O8 Cd2B 1_555 1_555
Cd1B O7B 1_555 1_555

#END
