
#######################################################################
#
#                 Cambridge Crystallographic Data Centre
#                                CCDC 
#
#######################################################################
#
# If this CIF has been generated from an entry in the Cambridge 
# Structural Database, then it will include bibliographic, chemical, 
# crystal, experimental, refinement or atomic coordinate data resulting 
# from the CCDC's data processing and validation procedures.
#
#######################################################################

data_RODKOL01
_symmetry_cell_setting           monoclinic
_symmetry_space_group_name_H-M   'C 2/c'
_symmetry_Int_Tables_number      15
_space_group_name_Hall           '-C 2yn'
loop_
_symmetry_equiv_pos_site_id
_symmetry_equiv_pos_as_xyz
1 x,y,z
2 1/2+x,1/2+y,z
3 -x,y,1/2-z
4 1/2-x,1/2+y,1/2-z
5 -x,-y,-z
6 1/2-x,1/2-y,-z
7 x,-y,1/2+z
8 1/2+x,1/2-y,1/2+z
_cell_length_a                   25.369(6)
_cell_length_b                   15.975(3)
_cell_length_c                   37.872(8)
_cell_angle_alpha                90
_cell_angle_beta                 101.898(5)
_cell_angle_gamma                90
_cell_volume                     15018.6
loop_
_atom_site_label
_atom_site_type_symbol
_atom_site_fract_x
_atom_site_fract_y
_atom_site_fract_z
Cu1 Cu -0.5000 -0.5000 0.5000
O1 O -0.5409(2) -0.3996(3) 0.48196(15)
C1 C -0.5933(9) -0.3060(11) 0.4423(5)
F1 F -0.5674(5) -0.2428(5) 0.4591(3)
F2 F -0.6326(4) -0.3118(7) 0.4599(4)
F3 F -0.6123(5) -0.2896(6) 0.4120(2)
C2 C -0.5588(4) -0.3848(5) 0.4496(3)
C3 C -0.5508(5) -0.4313(6) 0.4200(3)
H1 H -0.5666 -0.4130 0.3970
C4 C -0.5213(4) -0.5009(6) 0.4234(2)
C5 C -0.5180(10) -0.5470(10) 0.3873(4)
F4 F -0.5321(5) -0.6223(6) 0.3881(2)
F5 F -0.4639(5) -0.5582(7) 0.3881(2)
F6 F -0.5350(6) -0.5102(7) 0.3599(2)
O2 O -0.4947(2) -0.5348(3) 0.45167(15)
Cu2 Cu -0.5000 -1.0000 0.5000
O3 O -0.5754(2) -1.0337(3) 0.49932(17)
C6 C -0.6657(5) -1.0598(9) 0.4792(5)
F7 F -0.6761(3) -1.1352(7) 0.4829(4)
F8 F -0.7054(3) -1.0370(5) 0.4531(2)
F9 F -0.6751(3) -1.0166(9) 0.5047(3)
C7 C -0.6100(4) -1.0453(5) 0.4716(3)
C8 C -0.6023(4) -1.0497(5) 0.4370(3)
H2 H -0.6322 -1.0598 0.4187
C9 C -0.5537(5) -1.0402(5) 0.4276(3)
C10 C -0.5506(6) -1.0504(11) 0.3879(4)
F10 F -0.5963(4) -1.0611(8) 0.3658(2)
F11 F -0.5290(5) -0.9874(6) 0.37587(19)
F12 F -0.5199(5) -1.1135(7) 0.3834(2)
O4 O -0.5093(3) -1.0255(3) 0.44667(16)
Cu3 Cu -0.22708(4) -0.79630(6) 0.21538(2)
O5 O -0.2694(3) -0.8081(3) 0.16642(14)
C11 C -0.3370(7) -0.8038(11) 0.1162(4)
F13 F -0.3222(4) -0.8723(8) 0.1068(3)
F14 F -0.3279(6) -0.7522(8) 0.0945(2)
F15 F -0.3884(4) -0.8107(9) 0.1098(2)
C12 C -0.3155(5) -0.7803(7) 0.1560(3)
C13 C -0.3449(5) -0.7320(8) 0.1744(3)
H3 H -0.3790 -0.7148 0.1626
C14 C -0.3264(5) -0.7076(7) 0.2094(3)
C15 C -0.3620(10) -0.646(2) 0.2254(8)
F16 F -0.4090(4) -0.6424(8) 0.2111(3)
F17 F -0.3412(6) -0.5752(9) 0.2313(8)
F18 F -0.3612(6) -0.6709(12) 0.2580(4)
O6 O -0.2818(3) -0.7252(3) 0.22924(16)
O7 O -0.1842(3) -0.7810(4) 0.26349(14)
C16 C -0.1062(14) -0.784(2) 0.3122(4)
F19 F -0.1413(8) -0.8276(17) 0.3315(3)
F20 F -0.1198(9) -0.7270(10) 0.3237(5)
F21 F -0.0679(5) -0.8233(12) 0.3259(3)
C17 C -0.1386(6) -0.8126(7) 0.2739(3)
C18 C -0.1080(5) -0.8578(7) 0.2545(3)
H4 H -0.0740 -0.8762 0.2660
C19 C -0.1269(5) -0.8768(6) 0.2178(3)
C20 C -0.0902(6) -0.9377(19) 0.2026(5)
F22 F -0.1116(4) -0.9737(8) 0.1772(4)
F23 F -0.0473(6) -0.9539(12) 0.2184(3)
F24 F -0.0703(6) -0.8804(7) 0.1803(5)
O8 O -0.1705(3) -0.8571(3) 0.19881(16)
O9 O -0.1747(3) -0.6675(4) 0.20581(16)
N1 N -0.1752(3) -0.6050(5) 0.1845(2)
C21 C -0.1597(6) -0.6125(7) 0.1488(3)
C22 C -0.1068(13) -0.6581(19) 0.1567(8)
H5 H -0.0801 -0.6239 0.1717
H6 H -0.0956 -0.6701 0.1345
H7 H -0.1108 -0.7096 0.1690
C23 C -0.1963(13) -0.6754(14) 0.1268(4)
H8 H -0.2321 -0.6530 0.1206
H9 H -0.1965 -0.7257 0.1406
H10 H -0.1836 -0.6878 0.1052
C24 C -0.1613(7) -0.5278(8) 0.1370(3)
C25 C -0.1979(12) -0.5170(15) 0.1042(5)
H11 H -0.2317 -0.5420 0.1058
H12 H -0.1841 -0.5432 0.0852
H13 H -0.2030 -0.4583 0.0993
C26 C -0.1236(12) -0.4925(12) 0.1269(8)
H14 H -0.1122 -0.5259 0.1088
H15 H -0.0941 -0.4855 0.1471
H16 H -0.1353 -0.4387 0.1170
N2 N -0.1833(4) -0.4804(5) 0.1633(2)
O10 O -0.1924(5) -0.4033(5) 0.1601(2)
C27 C -0.1888(4) -0.5273(6) 0.1914(2)
C28 C -0.2053(4) -0.4989(5) 0.2225(2)
C29 C -0.2213(4) -0.4197(6) 0.2307(3)
H17 H -0.2231 -0.3739 0.2153
N3 N -0.2337(3) -0.4168(4) 0.2629(2)
N4 N -0.2262(3) -0.4955(5) 0.27564(18)
C30 C -0.2085(4) -0.5467(6) 0.2523(3)
H18 H -0.2001 -0.6032 0.2556
C31 C -0.2402(8) -0.5166(7) 0.3104(3)
H19 H -0.2197 -0.4802 0.3287
H20 H -0.2780 -0.5036 0.3087
C32 C -0.2319(7) -0.5971(9) 0.3221(3)
H21 H -0.1936 -0.6089 0.3266
H22 H -0.2496 -0.6344 0.3031
C33 C -0.2530(7) -0.6157(10) 0.3568(3)
H23 H -0.2559 -0.5713 0.3721
C34 C -0.2660(12) -0.6853(14) 0.3652(6)
H24 H -0.2388 -0.7242 0.3607
H25 H -0.2993 -0.6999 0.3486
C35 C -0.2744(13) -0.702(2) 0.4032(7)
H26 H -0.2498 -0.7435 0.4157
H27 H -0.2718 -0.6508 0.4175
C36 C -0.3287(12) -0.7318(15) 0.3932(7)
H28 H -0.3295 -0.7859 0.3814
H29 H -0.3507 -0.6930 0.3768
C37 C -0.3505(8) -0.7398(10) 0.4297(5)
H30 H -0.3268 -0.7748 0.4470
H31 H -0.3531 -0.6851 0.4403
C38 C -0.4045(8) -0.7787(9) 0.4187(6)
H32 H -0.4007 -0.8373 0.4129
H33 H -0.4247 -0.7508 0.3975
C39 C -0.4349(6) -0.7711(7) 0.4503(4)
H34 H -0.4121 -0.7910 0.4725
H35 H -0.4435 -0.7128 0.4537
C40 C -0.4845(4) -0.8204(6) 0.4423(3)
H36 H -0.4753 -0.8794 0.4428
H37 H -0.5040 -0.8071 0.4181
C41 C -0.5435(3) -0.7344(5) 0.4739(2)
H38 H -0.5400 -0.6831 0.4630
N5 N -0.5192(2) -0.8049(4) 0.46774(17)
N6 N -0.5326(3) -0.8675(4) 0.48809(19)
C42 C -0.5653(3) -0.8341(5) 0.5070(2)
H39 H -0.5805 -0.8630 0.5238
C43 C -0.5742(3) -0.7491(5) 0.4985(2)
C44 C -0.6088(3) -0.6920(5) 0.5117(2)
O11 O -0.6514(3) -0.7845(4) 0.54421(18)
N7 N -0.6447(3) -0.7116(4) 0.53236(19)
C45 C -0.7278(6) -0.6565(8) 0.5451(7)
H40 H -0.7477 -0.6690 0.5213
H41 H -0.7439 -0.6096 0.5547
H42 H -0.7282 -0.7043 0.5604
C46 C -0.6368(10) -0.6146(9) 0.5813(4)
H43 H -0.6444 -0.6541 0.5987
H44 H -0.6454 -0.5592 0.5882
H45 H -0.5993 -0.6174 0.5805
C47 C -0.6714(5) -0.6359(5) 0.5435(3)
C48 C -0.6503(7) -0.4852(6) 0.5261(5)
H46 H -0.6226 -0.4827 0.5476
H47 H -0.6827 -0.4602 0.5306
H48 H -0.6387 -0.4553 0.5070
C49 C -0.7059(5) -0.5743(13) 0.4818(4)
H49 H -0.6978 -0.5351 0.4644
H50 H -0.7393 -0.5591 0.4882
H51 H -0.7090 -0.6295 0.4715
C50 C -0.6608(4) -0.5731(5) 0.5153(3)
N8 N -0.6126(3) -0.6110(4) 0.50475(18)
O12 O -0.5850(2) -0.5713(3) 0.48504(15)
O1D O -0.4591(2) -0.6004(3) 0.51804(15)
C1D C -0.4067(9) -0.6940(11) 0.5577(5)
F1D F -0.4326(5) -0.7572(5) 0.5409(3)
F2D F -0.3674(4) -0.6882(7) 0.5401(4)
F3D F -0.3877(5) -0.7104(6) 0.5880(2)
C2D C -0.4412(4) -0.6152(5) 0.5504(3)
C3D C -0.4492(5) -0.5687(6) 0.5800(3)
H1D H -0.4334 -0.5870 0.6030
C4D C -0.4787(4) -0.4991(6) 0.5766(2)
C5D C -0.4820(10) -0.4530(10) 0.6127(4)
F4D F -0.4679(5) -0.3777(6) 0.6119(2)
F5D F -0.5361(5) -0.4418(7) 0.6119(2)
F6D F -0.4650(6) -0.4898(7) 0.6401(2)
O2D O -0.5053(2) -0.4652(3) 0.54833(15)
Cu2_2 Cu -0.5000 0.0000 0.5000
O3D O -0.4246(2) -0.9663(3) 0.50068(17)
C6D C -0.3343(5) -0.9402(9) 0.5208(5)
F7D F -0.3239(3) -0.8648(7) 0.5171(4)
F8D F -0.2946(3) -0.9630(5) 0.5469(2)
F9D F -0.3249(3) -0.9834(9) 0.4953(3)
C7D C -0.3900(4) -0.9547(5) 0.5284(3)
C8D C -0.3977(4) -0.9503(5) 0.5630(3)
H2D H -0.3678 -0.9402 0.5813
C9D C -0.4463(5) -0.9598(5) 0.5724(3)
C10D C -0.4494(6) -0.9496(11) 0.6121(4)
F10D F -0.4037(4) -0.9389(8) 0.6342(2)
F11D F -0.4710(5) -1.0126(6) 0.62413(19)
F12D F -0.4801(5) -0.8865(7) 0.6166(2)
O4D O -0.4907(3) -0.9745(3) 0.55333(16)
Cu3D Cu -0.77292(4) -0.20370(6) 0.78462(2)
Cu3C Cu -0.27292(4) -0.29630(6) 0.28462(2)
Cu3G Cu -0.72708(4) -0.70370(6) 0.71538(2)
O5D O -0.7306(3) -0.1919(3) 0.83358(14)
C11D C -0.6630(7) -0.1962(11) 0.8838(4)
F13D F -0.6778(4) -0.1277(8) 0.8932(3)
F14D F -0.6721(6) -0.2478(8) 0.9055(2)
F15D F -0.6116(4) -0.1893(9) 0.8902(2)
C12D C -0.6845(5) -0.2197(7) 0.8440(3)
C13D C -0.6551(5) -0.2680(8) 0.8256(3)
H3D H -0.6210 -0.2852 0.8374
C14D C -0.6736(5) -0.2924(7) 0.7906(3)
C15D C -0.6380(10) -0.354(2) 0.7746(8)
F16D F -0.5910(4) -0.3576(8) 0.7889(3)
F17D F -0.6588(6) -0.4248(9) 0.7687(8)
F18D F -0.6388(6) -0.3291(12) 0.7420(4)
O6D O -0.7182(3) -0.2748(3) 0.77076(16)
O7D O -0.8158(3) -0.2190(4) 0.73651(14)
C16D C -0.8938(14) -0.216(2) 0.6878(4)
F19D F -0.8587(8) -0.1724(17) 0.6685(3)
F20D F -0.8802(9) -0.2730(10) 0.6763(5)
F21D F -0.9321(5) -0.1767(12) 0.6741(3)
C17D C -0.8614(6) -0.1874(7) 0.7261(3)
C18D C -0.8920(5) -0.1422(7) 0.7455(3)
H4D H -0.9260 -0.1238 0.7340
C19D C -0.8731(5) -0.1232(6) 0.7822(3)
C20D C -0.9098(6) -0.0623(19) 0.7974(5)
F22D F -0.8884(4) -0.0263(8) 0.8228(4)
F23D F -0.9527(6) -0.0461(12) 0.7816(3)
F24D F -0.9297(6) -0.1196(7) 0.8197(5)
O8D O -0.8295(3) -0.1429(3) 0.80119(16)
O9D O -0.8253(3) -0.3325(4) 0.79419(16)
N1D N -0.8248(3) -0.3950(5) 0.8155(2)
C21D C -0.8403(6) -0.3875(7) 0.8512(3)
C22D C -0.8932(13) -0.3419(19) 0.8433(8)
H5D H -0.9199 -0.3761 0.8283
H6D H -0.9044 -0.3299 0.8655
H7D H -0.8892 -0.2904 0.8310
C23D C -0.8037(13) -0.3246(14) 0.8732(4)
H8D H -0.7679 -0.3470 0.8794
H9D H -0.8035 -0.2743 0.8594
H10D H -0.8164 -0.3122 0.8948
C24D C -0.8387(7) -0.4722(8) 0.8630(3)
C25D C -0.8021(12) -0.4830(15) 0.8958(5)
H11D H -0.7683 -0.4580 0.8942
H12D H -0.8159 -0.4568 0.9148
H13D H -0.7970 -0.5417 0.9007
C26D C -0.8764(12) -0.5075(12) 0.8731(8)
H14D H -0.8878 -0.4741 0.8912
H15D H -0.9059 -0.5145 0.8529
H16D H -0.8647 -0.5613 0.8830
N2D N -0.8167(4) -0.5196(5) 0.8367(2)
O10D O -0.8076(5) -0.5967(5) 0.8399(2)
C27D C -0.8112(4) -0.4727(6) 0.8086(2)
C28D C -0.7947(4) -0.5011(5) 0.7775(2)
C29D C -0.7787(4) -0.5803(6) 0.7693(3)
H17D H -0.7769 -0.6261 0.7847
N3D N -0.7663(3) -0.5832(4) 0.7371(2)
N3C N -0.2663(3) -0.9168(4) 0.2371(2)
N3G N -0.7337(3) -0.0832(4) 0.7629(2)
N4D N -0.7738(3) -0.5045(5) 0.72436(18)
C30D C -0.7915(4) -0.4533(6) 0.7477(3)
H18D H -0.7999 -0.3968 0.7444
C31D C -0.7598(8) -0.4834(7) 0.6896(3)
H19D H -0.7803 -0.5198 0.6713
H20D H -0.7220 -0.4964 0.6913
C32D C -0.7681(7) -0.4029(9) 0.6779(3)
H21D H -0.8064 -0.3911 0.6734
H22D H -0.7504 -0.3656 0.6969
C33D C -0.7470(7) -0.3843(10) 0.6432(3)
H23D H -0.7441 -0.4287 0.6279
C34D C -0.7340(12) -0.3147(14) 0.6348(6)
H24D H -0.7612 -0.2758 0.6393
H25D H -0.7007 -0.3001 0.6514
C35D C -0.7256(13) -0.298(2) 0.5968(7)
H26D H -0.7502 -0.2565 0.5843
H27D H -0.7282 -0.3492 0.5825
C36D C -0.6713(12) -0.2682(15) 0.6068(7)
H28D H -0.6705 -0.2141 0.6186
H29D H -0.6493 -0.3070 0.6232
C37D C -0.6495(8) -0.2602(10) 0.5703(5)
H30D H -0.6732 -0.2252 0.5530
H31D H -0.6469 -0.3149 0.5597
C38D C -0.5955(8) -0.2213(9) 0.5813(6)
H32D H -0.5993 -0.1627 0.5871
H33D H -0.5753 -0.2492 0.6025
C39D C -0.5651(6) -0.2289(7) 0.5497(4)
H34D H -0.5879 -0.2090 0.5275
H35D H -0.5565 -0.2872 0.5463
C40D C -0.5155(4) -0.1796(6) 0.5577(3)
H36D H -0.5247 -0.1206 0.5572
H37D H -0.4960 -0.1929 0.5819
C41D C -0.4565(3) -0.2656(5) 0.5261(2)
H38D H -0.4600 -0.3169 0.5370
N5D N -0.4808(2) -0.1951(4) 0.53226(17)
N6D N -0.4674(3) -0.1325(4) 0.51191(19)
N6D_2 N -0.4674(3) -1.1325(4) 0.51191(19)
C42D C -0.4347(3) -0.1659(5) 0.4930(2)
H39D H -0.4195 -0.1370 0.4762
C43D C -0.4258(3) -0.2509(5) 0.5015(2)
C44D C -0.3912(3) -0.3080(5) 0.4883(2)
O11D O -0.3486(3) -0.2155(4) 0.45579(18)
N7D N -0.3553(3) -0.2884(4) 0.46764(19)
C45D C -0.2722(6) -0.3435(8) 0.4549(7)
H40D H -0.2523 -0.3310 0.4787
H41D H -0.2561 -0.3904 0.4453
H42D H -0.2718 -0.2957 0.4396
C46D C -0.3632(10) -0.3854(9) 0.4187(4)
H43D H -0.3556 -0.3459 0.4013
H44D H -0.3546 -0.4408 0.4118
H45D H -0.4007 -0.3826 0.4195
C47D C -0.3286(5) -0.3641(5) 0.4565(3)
C48D C -0.3497(7) -0.5148(6) 0.4739(5)
H46D H -0.3774 -0.5173 0.4524
H47D H -0.3173 -0.5398 0.4694
H48D H -0.3613 -0.5447 0.4930
C49D C -0.2941(5) -0.4257(13) 0.5182(4)
H49D H -0.3022 -0.4649 0.5356
H50D H -0.2607 -0.4409 0.5118
H51D H -0.2910 -0.3705 0.5285
C50D C -0.3392(4) -0.4269(5) 0.4847(3)
N8D N -0.3874(3) -0.3890(4) 0.49525(18)
O12D O -0.4150(2) -0.4287(3) 0.51496(15)
loop_
_geom_bond_atom_site_label_1
_geom_bond_atom_site_label_2
_geom_bond_site_symmetry_1
_geom_bond_site_symmetry_2
Cu1 O1 1_555 1_555
O1 C2 1_555 1_555
C1 F1 1_555 1_555
F2 C1 1_555 1_555
F3 C1 1_555 1_555
C2 C1 1_555 1_555
C3 C2 1_555 1_555
H1 C3 1_555 1_555
C4 C3 1_555 1_555
C5 C4 1_555 1_555
F4 C5 1_555 1_555
F5 C5 1_555 1_555
F6 C5 1_555 1_555
O2 Cu1 1_555 1_555
Cu2 O3 1_555 1_555
O3 C7 1_555 1_555
C6 F7 1_555 1_555
F8 C6 1_555 1_555
F9 C6 1_555 1_555
C7 C6 1_555 1_555
C8 C7 1_555 1_555
H2 C8 1_555 1_555
C9 C8 1_555 1_555
C10 C9 1_555 1_555
F10 C10 1_555 1_555
F11 C10 1_555 1_555
F12 C10 1_555 1_555
O4 Cu2 1_555 1_555
Cu3 O5 1_555 1_555
O5 C12 1_555 1_555
C11 F13 1_555 1_555
F14 C11 1_555 1_555
F15 C11 1_555 1_555
C12 C11 1_555 1_555
C13 C12 1_555 1_555
H3 C13 1_555 1_555
C14 C13 1_555 1_555
C15 C14 1_555 1_555
F16 C15 1_555 1_555
F17 C15 1_555 1_555
F18 C15 1_555 1_555
O6 Cu3 1_555 1_555
O7 Cu3 1_555 1_555
C16 F19 1_555 1_555
F20 C16 1_555 1_555
F21 C16 1_555 1_555
C17 O7 1_555 1_555
C18 C17 1_555 1_555
H4 C18 1_555 1_555
C19 C18 1_555 1_555
C20 C19 1_555 1_555
F22 C20 1_555 1_555
F23 C20 1_555 1_555
F24 C20 1_555 1_555
O8 Cu3 1_555 1_555
O9 Cu3 1_555 1_555
N1 O9 1_555 1_555
C21 N1 1_555 1_555
C22 C21 1_555 1_555
H5 C22 1_555 1_555
H6 C22 1_555 1_555
H7 C22 1_555 1_555
C23 C21 1_555 1_555
H8 C23 1_555 1_555
H9 C23 1_555 1_555
H10 C23 1_555 1_555
C24 C21 1_555 1_555
C25 C24 1_555 1_555
H11 C25 1_555 1_555
H12 C25 1_555 1_555
H13 C25 1_555 1_555
C26 C24 1_555 1_555
H14 C26 1_555 1_555
H15 C26 1_555 1_555
H16 C26 1_555 1_555
N2 C24 1_555 1_555
O10 N2 1_555 1_555
C27 N1 1_555 1_555
C28 C27 1_555 1_555
C29 C28 1_555 1_555
H17 C29 1_555 1_555
N3 C29 1_555 1_555
N4 N3 1_555 1_555
C30 C28 1_555 1_555
H18 C30 1_555 1_555
C31 N4 1_555 1_555
H19 C31 1_555 1_555
H20 C31 1_555 1_555
C32 C31 1_555 1_555
H21 C32 1_555 1_555
H22 C32 1_555 1_555
C33 C32 1_555 1_555
H23 C33 1_555 1_555
C34 C33 1_555 1_555
H24 C34 1_555 1_555
H25 C34 1_555 1_555
C35 C34 1_555 1_555
H26 C35 1_555 1_555
H27 C35 1_555 1_555
C36 C35 1_555 1_555
H28 C36 1_555 1_555
H29 C36 1_555 1_555
C37 C36 1_555 1_555
H30 C37 1_555 1_555
H31 C37 1_555 1_555
C38 C37 1_555 1_555
H32 C38 1_555 1_555
H33 C38 1_555 1_555
C39 C38 1_555 1_555
H34 C39 1_555 1_555
H35 C39 1_555 1_555
C40 C39 1_555 1_555
H36 C40 1_555 1_555
H37 C40 1_555 1_555
C41 H38 1_555 1_555
N5 C40 1_555 1_555
N6 Cu2 1_555 1_555
C42 N6 1_555 1_555
H39 C42 1_555 1_555
C43 C41 1_555 1_555
C44 C43 1_555 1_555
O11 N7 1_555 1_555
N7 C44 1_555 1_555
C45 H40 1_555 1_555
H41 C45 1_555 1_555
H42 C45 1_555 1_555
C46 H43 1_555 1_555
H44 C46 1_555 1_555
H45 C46 1_555 1_555
C47 N7 1_555 1_555
C48 H46 1_555 1_555
H47 C48 1_555 1_555
H48 C48 1_555 1_555
C49 H49 1_555 1_555
H50 C49 1_555 1_555
H51 C49 1_555 1_555
C50 C47 1_555 1_555
N8 C44 1_555 1_555
O12 Cu1 1_555 1_555
O1D Cu1 1_555 1_555
C1D F1D 1_555 1_555
F2D C1D 1_555 1_555
F3D C1D 1_555 1_555
C2D O1D 1_555 1_555
C3D C2D 1_555 1_555
H1D C3D 1_555 1_555
C4D C3D 1_555 1_555
C5D C4D 1_555 1_555
F4D C5D 1_555 1_555
F5D C5D 1_555 1_555
F6D C5D 1_555 1_555
O2D Cu1 1_555 1_555
Cu2_2 N6D 1_555 1_555
O3D Cu2 1_555 1_555
C6D F7D 1_555 1_555
F8D C6D 1_555 1_555
F9D C6D 1_555 1_555
C7D O3D 1_555 1_555
C8D C7D 1_555 1_555
H2D C8D 1_555 1_555
C9D C8D 1_555 1_555
C10D C9D 1_555 1_555
F10D C10D 1_555 1_555
F11D C10D 1_555 1_555
F12D C10D 1_555 1_555
O4D Cu2 1_555 1_555
Cu3D O5D 1_555 1_555
Cu3C N3 1_555 1_555
Cu3G N3D 1_555 1_555
O5D C12D 1_555 1_555
C11D F13D 1_555 1_555
F14D C11D 1_555 1_555
F15D C11D 1_555 1_555
C12D C11D 1_555 1_555
C13D C12D 1_555 1_555
H3D C13D 1_555 1_555
C14D C13D 1_555 1_555
C15D C14D 1_555 1_555
F16D C15D 1_555 1_555
F17D C15D 1_555 1_555
F18D C15D 1_555 1_555
O6D Cu3D 1_555 1_555
O7D Cu3D 1_555 1_555
C16D F19D 1_555 1_555
F20D C16D 1_555 1_555
F21D C16D 1_555 1_555
C17D O7D 1_555 1_555
C18D C17D 1_555 1_555
H4D C18D 1_555 1_555
C19D C18D 1_555 1_555
C20D C19D 1_555 1_555
F22D C20D 1_555 1_555
F23D C20D 1_555 1_555
F24D C20D 1_555 1_555
O8D Cu3D 1_555 1_555
O9D Cu3D 1_555 1_555
N1D O9D 1_555 1_555
C21D N1D 1_555 1_555
C22D C21D 1_555 1_555
H5D C22D 1_555 1_555
H6D C22D 1_555 1_555
H7D C22D 1_555 1_555
C23D C21D 1_555 1_555
H8D C23D 1_555 1_555
H9D C23D 1_555 1_555
H10D C23D 1_555 1_555
C24D C21D 1_555 1_555
C25D C24D 1_555 1_555
H11D C25D 1_555 1_555
H12D C25D 1_555 1_555
H13D C25D 1_555 1_555
C26D C24D 1_555 1_555
H14D C26D 1_555 1_555
H15D C26D 1_555 1_555
H16D C26D 1_555 1_555
N2D C24D 1_555 1_555
O10D N2D 1_555 1_555
C27D N1D 1_555 1_555
C28D C27D 1_555 1_555
C29D C28D 1_555 1_555
H17D C29D 1_555 1_555
N3D C29D 1_555 1_555
N3C Cu3 1_555 1_555
N3G Cu3D 1_555 1_555
N4D N3D 1_555 1_555
C30D C28D 1_555 1_555
H18D C30D 1_555 1_555
C31D N4D 1_555 1_555
H19D C31D 1_555 1_555
H20D C31D 1_555 1_555
C32D C31D 1_555 1_555
H21D C32D 1_555 1_555
H22D C32D 1_555 1_555
C33D C32D 1_555 1_555
H23D C33D 1_555 1_555
C34D C33D 1_555 1_555
H24D C34D 1_555 1_555
H25D C34D 1_555 1_555
C35D C34D 1_555 1_555
H26D C35D 1_555 1_555
H27D C35D 1_555 1_555
C36D C35D 1_555 1_555
H28D C36D 1_555 1_555
H29D C36D 1_555 1_555
C37D C36D 1_555 1_555
H30D C37D 1_555 1_555
H31D C37D 1_555 1_555
C38D C37D 1_555 1_555
H32D C38D 1_555 1_555
H33D C38D 1_555 1_555
C39D C38D 1_555 1_555
H34D C39D 1_555 1_555
H35D C39D 1_555 1_555
C40D C39D 1_555 1_555
H36D C40D 1_555 1_555
H37D C40D 1_555 1_555
C41D H38D 1_555 1_555
N5D C40D 1_555 1_555
N6D N5D 1_555 1_555
N6D_2 Cu2 1_555 1_555
C42D N6D 1_555 1_555
H39D C42D 1_555 1_555
C43D C41D 1_555 1_555
C44D C43D 1_555 1_555
O11D N7D 1_555 1_555
N7D C44D 1_555 1_555
C45D H40D 1_555 1_555
H41D C45D 1_555 1_555
H42D C45D 1_555 1_555
C46D H43D 1_555 1_555
H44D C46D 1_555 1_555
H45D C46D 1_555 1_555
C47D N7D 1_555 1_555
C48D H46D 1_555 1_555
H47D C48D 1_555 1_555
H48D C48D 1_555 1_555
C49D H49D 1_555 1_555
H50D C49D 1_555 1_555
H51D C49D 1_555 1_555
C50D C47D 1_555 1_555
N8D C44D 1_555 1_555
O12D Cu1 1_555 1_555
C4 O2 1_555 1_555
C9 O4 1_555 1_555
C14 O6 1_555 1_555
C16 C17 1_555 1_555
C19 O8 1_555 1_555
N2 C27 1_555 1_555
N4 C30 1_555 1_555
C41 N5 1_555 1_555
N5 N6 1_555 1_555
C42 C43 1_555 1_555
C45 C47 1_555 1_555
C46 C47 1_555 1_555
C48 C50 1_555 1_555
C49 C50 1_555 1_555
C50 N8 1_555 1_555
N8 O12 1_555 1_555
C1D C2D 1_555 1_555
C4D O2D 1_555 1_555
C6D C7D 1_555 1_555
C9D O4D 1_555 1_555
C14D O6D 1_555 1_555
C16D C17D 1_555 1_555
C19D O8D 1_555 1_555
N2D C27D 1_555 1_555
N4D C30D 1_555 1_555
C41D N5D 1_555 1_555
C42D C43D 1_555 1_555
C45D C47D 1_555 1_555
C46D C47D 1_555 1_555
C48D C50D 1_555 1_555
C49D C50D 1_555 1_555
C50D N8D 1_555 1_555
N8D O12D 1_555 1_555

#END
