
#######################################################################
#
#                 Cambridge Crystallographic Data Centre
#                                CCDC 
#
#######################################################################
#
# If this CIF has been generated from an entry in the Cambridge 
# Structural Database, then it will include bibliographic, chemical, 
# crystal, experimental, refinement or atomic coordinate data resulting 
# from the CCDC's data processing and validation procedures.
#
#######################################################################

data_RODMED
_symmetry_cell_setting           monoclinic
_symmetry_space_group_name_H-M   'P 21/c'
_symmetry_Int_Tables_number      14
_space_group_name_Hall           '-P 2ybc'
loop_
_symmetry_equiv_pos_site_id
_symmetry_equiv_pos_as_xyz
1 x,y,z
2 -x,1/2+y,1/2-z
3 -x,-y,-z
4 x,1/2-y,1/2+z
_cell_length_a                   12.6176(6)
_cell_length_b                   11.3501(5)
_cell_length_c                   20.5011(10)
_cell_angle_alpha                90
_cell_angle_beta                 90.345(1)
_cell_angle_gamma                90
_cell_volume                     2935.93
loop_
_atom_site_label
_atom_site_type_symbol
_atom_site_fract_x
_atom_site_fract_y
_atom_site_fract_z
Ag1 Ag 0.62754(2) 0.28202(3) 0.651411(16)
N1 N 0.7838(3) 0.4919(3) 0.64663(18)
O1 O 0.7364(2) 0.4494(2) 0.69515(15)
O2 O 0.7719(2) 0.4441(2) 0.59174(15)
O3 O 0.8419(2) 0.5791(3) 0.65352(15)
O4 O 0.6046(2) 0.8540(2) 0.45683(15)
N2 N 0.4895(3) 0.4217(3) 0.62510(16)
N3 N 0.5476(3) 1.2491(3) 0.25098(17)
N4 N 0.2925(2) 0.8404(3) 0.42223(15)
C1 C 0.5088(3) 0.8613(3) 0.45516(18)
C2 C 0.5148(3) 0.5118(3) 0.58644(19)
H1 H 0.5836 0.5119 0.5678
C3 C 0.4482(3) 0.6055(3) 0.57143(19)
C4 C 0.3494(3) 0.6066(4) 0.6012(2)
H2 H 0.3018 0.6701 0.5939
C5 C 0.3215(4) 0.5146(4) 0.6411(2)
H3 H 0.2541 0.5136 0.6615
C6 C 0.3926(4) 0.4233(4) 0.6514(2)
H4 H 0.3718 0.3592 0.6782
C7 C 0.4893(3) 0.6968(3) 0.52794(19)
H5 H 0.5643 0.6974 0.5242
C8 C 0.4400(3) 0.7792(3) 0.49269(18)
C9 C 0.3215(3) 0.7931(3) 0.48722(18)
H6 H 0.2963 0.8474 0.5216
H7 H 0.2869 0.7158 0.4937
C10 C 0.5624(3) 1.1618(3) 0.29349(19)
H8 H 0.6270 1.1188 0.2914
C11 C 0.4891(3) 1.1295(3) 0.34084(19)
C12 C 0.3961(3) 1.1952(3) 0.34410(19)
H9 H 0.3436 1.1766 0.3754
C13 C 0.3811(3) 1.2878(3) 0.30129(19)
H10 H 0.3185 1.3342 0.3032
C14 C 0.4575(3) 1.3118(3) 0.2560(2)
H11 H 0.4464 1.3757 0.2268
C15 C 0.5168(3) 1.0300(3) 0.38328(19)
H12 H 0.5908 1.0162 0.3880
C16 C 0.4558(3) 0.9560(3) 0.41618(18)
C17 C 0.3363(3) 0.9600(3) 0.4156(2)
H13 H 0.3111 0.9955 0.3742
H14 H 0.3113 1.0098 0.4520
C18 C 0.1363(3) 0.8903(4) 0.3520(2)
C19 C 0.1038(3) 1.0070(4) 0.3458(2)
H15 H 0.1066 1.0581 0.3825
C20 C 0.0676(4) 1.0490(4) 0.2865(3)
H16 H 0.0461 1.1289 0.2824
C21 C 0.0626(4) 0.9750(5) 0.2331(3)
H17 H 0.0367 1.0037 0.1926
C22 C 0.0949(4) 0.8607(5) 0.2385(2)
H18 H 0.0928 0.8105 0.2015
C23 C 0.1309(3) 0.8174(4) 0.2981(2)
H19 H 0.1519 0.7373 0.3018
C24 C 0.1750(3) 0.8445(4) 0.4170(2)
H20 H 0.1464 0.7642 0.4237
H21 H 0.1470 0.8955 0.4521
Ag1C Ag 0.62754(2) 1.21798(3) 0.151411(16)
Ag1B Ag 0.37246(2) 0.71798(3) 0.348589(16)
N3C N 0.5476(3) 0.2509(3) 0.75098(17)
N4B N 0.7075(2) 0.1596(3) 0.57777(15)
C25 C 0.9115(3) 0.6558(4) 0.5148(2)
H22 H 0.8917 0.5863 0.5421
Cl1 Cl 1.01320(9) 0.73369(10) 0.55460(6)
Cl2 Cl 0.95563(9) 0.60514(10) 0.43791(6)
Cl3 Cl 0.79834(9) 0.74475(11) 0.50314(6)
C26 C 0.1798(4) -0.0107(5) 0.6450(2)
C27 C 0.1673(4) 0.1101(4) 0.6693(3)
H23 H 0.1023 0.1444 0.6511
H24 H 0.2283 0.1576 0.6561
H25 H 0.1628 0.1090 0.7170
N5 N 0.1904(3) -0.1048(4) 0.6272(2)
loop_
_geom_bond_atom_site_label_1
_geom_bond_atom_site_label_2
_geom_bond_site_symmetry_1
_geom_bond_site_symmetry_2
Ag1 O1 1_555 1_555
N1 O1 1_555 1_555
O2 Ag1 1_555 1_555
O3 N1 1_555 1_555
O4 C1 1_555 1_555
N2 Ag1 1_555 1_555
N3 C10 1_555 1_555
N4 C9 1_555 1_555
C1 C8 1_555 1_555
C2 N2 1_555 1_555
H1 C2 1_555 1_555
C3 C2 1_555 1_555
C4 C3 1_555 1_555
H2 C4 1_555 1_555
C5 C4 1_555 1_555
H3 C5 1_555 1_555
C6 N2 1_555 1_555
H4 C6 1_555 1_555
C7 C3 1_555 1_555
H5 C7 1_555 1_555
C8 C7 1_555 1_555
C9 C8 1_555 1_555
H6 C9 1_555 1_555
H7 C9 1_555 1_555
C10 H8 1_555 1_555
C11 C10 1_555 1_555
C12 C11 1_555 1_555
H9 C12 1_555 1_555
C13 C12 1_555 1_555
H10 C13 1_555 1_555
C14 N3 1_555 1_555
H11 C14 1_555 1_555
C15 C11 1_555 1_555
H12 C15 1_555 1_555
C16 C1 1_555 1_555
C17 N4 1_555 1_555
H13 C17 1_555 1_555
H14 C17 1_555 1_555
C18 C19 1_555 1_555
C19 H15 1_555 1_555
C20 C19 1_555 1_555
H16 C20 1_555 1_555
C21 C20 1_555 1_555
H17 C21 1_555 1_555
C22 C21 1_555 1_555
H18 C22 1_555 1_555
C23 C18 1_555 1_555
H19 C23 1_555 1_555
C24 N4 1_555 1_555
H20 C24 1_555 1_555
H21 C24 1_555 1_555
C25 H22 1_555 1_555
Cl1 C25 1_555 1_555
Cl2 C25 1_555 1_555
Cl3 C25 1_555 1_555
C26 C27 1_555 1_555
C27 H23 1_555 1_555
H24 C27 1_555 1_555
H25 C27 1_555 1_555
N5 C26 1_555 1_555
Ag1C N3 1_555 1_555
Ag1B N4 1_555 1_555
N3C Ag1 1_555 1_555
N4B Ag1 1_555 1_555
N1 O2 1_555 1_555
C5 C6 1_555 1_555
C13 C14 1_555 1_555
C15 C16 1_555 1_555
C16 C17 1_555 1_555
C18 C24 1_555 1_555
C22 C23 1_555 1_555

#END
