
#######################################################################
#
#                 Cambridge Crystallographic Data Centre
#                                CCDC 
#
#######################################################################
#
# If this CIF has been generated from an entry in the Cambridge 
# Structural Database, then it will include bibliographic, chemical, 
# crystal, experimental, refinement or atomic coordinate data resulting 
# from the CCDC's data processing and validation procedures.
#
#######################################################################

data_RODNUU
_symmetry_cell_setting           monoclinic
_symmetry_space_group_name_H-M   'C 2/c'
_symmetry_Int_Tables_number      15
_space_group_name_Hall           '-C 2yn'
loop_
_symmetry_equiv_pos_site_id
_symmetry_equiv_pos_as_xyz
1 x,y,z
2 1/2+x,1/2+y,z
3 -x,y,1/2-z
4 1/2-x,1/2+y,1/2-z
5 -x,-y,-z
6 1/2-x,1/2-y,-z
7 x,-y,1/2+z
8 1/2+x,1/2-y,1/2+z
_cell_length_a                   12.9530(6)
_cell_length_b                   9.8756(4)
_cell_length_c                   24.0728(10)
_cell_angle_alpha                90
_cell_angle_beta                 101.301(2)
_cell_angle_gamma                90
_cell_volume                     3019.66
loop_
_atom_site_label
_atom_site_type_symbol
_atom_site_fract_x
_atom_site_fract_y
_atom_site_fract_z
Sn1 Sn 0.284290(10) -0.16993(2) 0.228160(10)
O1 O 0.32929(16) -0.03474(18) 0.16907(8)
O2 O 0.26730(17) 0.1483(2) 0.20361(9)
C1 C 0.3143(2) 0.0940(3) 0.17022(10)
C2 C 0.3576(2) 0.1747(2) 0.12708(11)
C3 C 0.3324(3) 0.3224(3) 0.12430(15)
C4 C 0.4185(2) 0.1119(3) 0.09665(11)
C5 C 0.4713(2) 0.1667(3) 0.05244(12)
C6 C 0.5691(3) 0.1139(4) 0.04886(14)
C7 C 0.6223(3) 0.1596(5) 0.00784(19)
C8 C 0.5750(3) 0.2546(5) -0.03080(15)
C9 C 0.4775(3) 0.3064(4) -0.02935(13)
C10 C 0.4254(3) 0.2612(3) 0.01229(12)
C11 C 0.42742(14) 0.40923(17) -0.07152(7)
C12 C 0.35163(14) -0.33276(17) 0.19080(7)
C13 C 0.38060(14) -0.08820(17) 0.30121(7)
C14 C 0.12000(14) -0.14855(17) 0.20410(7)
H1 H 0.33496 0.35644 0.16190
H2 H 0.26305 0.33584 0.10207
H3 H 0.38277 0.36974 0.10716
H4 H 0.42933 0.02018 0.10434
H5 H 0.59915 0.04728 0.07422
H6 H 0.68900 0.12660 0.00642
H7 H 0.61025 0.28430 -0.05866
H8 H 0.35872 0.29454 0.01336
H9 H 0.37070 0.45259 -0.05805
H10 H 0.40055 0.36550 -0.10702
H11 H 0.47878 0.47577 -0.07662
H12 H 0.30201 -0.40592 0.18350
H13 H 0.41411 -0.36295 0.21610
H14 H 0.36936 -0.30341 0.15582
H15 H 0.34336 -0.01717 0.31612
H16 H 0.44368 -0.05221 0.29160
H17 H 0.39864 -0.15800 0.32919
H18 H 0.09961 -0.06049 0.21497
H19 H 0.08599 -0.21672 0.22256
H20 H 0.09943 -0.15869 0.16378
Sn1C Sn 0.215710(10) 0.33007(2) 0.271840(10)
O2C O 0.23270(17) -0.3517(2) 0.29639(9)
loop_
_geom_bond_atom_site_label_1
_geom_bond_atom_site_label_2
_geom_bond_site_symmetry_1
_geom_bond_site_symmetry_2
Sn1 O1 1_555 1_555
O1 C1 1_555 1_555
O2 C1 1_555 1_555
C1 C2 1_555 1_555
C2 C3 1_555 1_555
C3 H1 1_555 1_555
C4 C2 1_555 1_555
C5 C4 1_555 1_555
C6 C5 1_555 1_555
C7 C6 1_555 1_555
C8 C7 1_555 1_555
C9 C8 1_555 1_555
C10 C5 1_555 1_555
C11 C9 1_555 1_555
C12 Sn1 1_555 1_555
C13 Sn1 1_555 1_555
C14 Sn1 1_555 1_555
H2 C3 1_555 1_555
H3 C3 1_555 1_555
H4 C4 1_555 1_555
H5 C6 1_555 1_555
H6 C7 1_555 1_555
H7 C8 1_555 1_555
H8 C10 1_555 1_555
H9 C11 1_555 1_555
H10 C11 1_555 1_555
H11 C11 1_555 1_555
H12 C12 1_555 1_555
H13 C12 1_555 1_555
H14 C12 1_555 1_555
H15 C13 1_555 1_555
H16 C13 1_555 1_555
H17 C13 1_555 1_555
H18 C14 1_555 1_555
H19 C14 1_555 1_555
H20 C14 1_555 1_555
Sn1C O2 1_555 1_555
O2C Sn1 1_555 1_555
C9 C10 1_555 1_555

#END
