
#######################################################################
#
#                 Cambridge Crystallographic Data Centre
#                                CCDC 
#
#######################################################################
#
# If this CIF has been generated from an entry in the Cambridge 
# Structural Database, then it will include bibliographic, chemical, 
# crystal, experimental, refinement or atomic coordinate data resulting 
# from the CCDC's data processing and validation procedures.
#
#######################################################################

data_RODPIK
_symmetry_cell_setting           monoclinic
_symmetry_space_group_name_H-M   'P 21/c'
_symmetry_Int_Tables_number      14
_space_group_name_Hall           '-P 2ybc'
loop_
_symmetry_equiv_pos_site_id
_symmetry_equiv_pos_as_xyz
1 x,y,z
2 -x,1/2+y,1/2-z
3 -x,-y,-z
4 x,1/2-y,1/2+z
_cell_length_a                   5.8460(12)
_cell_length_b                   15.726(3)
_cell_length_c                   7.0190(14)
_cell_angle_alpha                90
_cell_angle_beta                 101.11(3)
_cell_angle_gamma                90
_cell_volume                     633.193
loop_
_atom_site_label
_atom_site_type_symbol
_atom_site_fract_x
_atom_site_fract_y
_atom_site_fract_z
Na1 Na 0.46789(7) 0.81852(3) 0.30526(7)
Mg1 Mg 0.72692(6) 1.10144(2) 0.28420(5)
C1 C 0.50416(17) 0.96394(6) 0.07477(14)
O1 O 0.61404(15) 0.97765(5) 0.24366(11)
O2 O 0.39857(15) 0.89673(5) 0.01429(11)
C2 C 0.79984(15) 0.64930(6) 0.21459(13)
O3 O 0.58217(13) 0.65770(5) 0.17720(13)
O4 O 0.91349(13) 0.58130(5) 0.22737(12)
C3 C 0.94672(16) 0.73184(6) 0.24642(14)
O5 O 1.15751(12) 0.72335(5) 0.23254(12)
O6 O 0.85117(14) 0.79871(5) 0.28409(15)
O7 O 0.18307(14) 0.91446(5) 0.41864(12)
H1 H 0.174(4) 0.9612(16) 0.376(4)
H2 H 0.065(5) 0.8880(18) 0.359(4)
Na1B Na 0.53211(7) 1.18148(3) -0.30526(7)
Na1C Na 0.46789(7) 0.68148(3) -0.19474(7)
Na1_2 Na 1.46789(7) 0.81852(3) 0.30526(7)
Na1C_2 Na 0.46789(7) 0.68148(3) 0.80526(7)
Na1C_3 Na 1.46789(7) 0.68148(3) 0.80526(7)
Na1B_2 Na 0.53211(7) 1.18148(3) 0.69474(7)
Mg1B Mg 0.27308(6) 0.89856(2) -0.28420(5)
Mg1A Mg 0.27308(6) 0.60144(2) 0.21580(5)
Mg1A_2 Mg 1.27308(6) 0.60144(2) 0.21580(5)
Mg1B_2 Mg 0.27308(6) 0.89856(2) 0.71580(5)
Mg1B_3 Mg 1.27308(6) 0.89856(2) 0.71580(5)
C1B C 0.49584(17) 1.03606(6) -0.07477(14)
O1B O 0.38596(15) 1.02235(5) -0.24366(11)
O2B O 0.60143(15) 1.10327(5) -0.01429(11)
C2C C 0.79984(15) 0.85070(6) 0.71459(13)
O3C O 0.58217(13) 0.84230(5) 0.67720(13)
O3A O 0.41783(13) 1.15770(5) 0.32280(13)
O3B O 0.41783(13) 1.34230(5) -0.17720(13)
O3A_2 O 0.41783(13) 1.15770(5) -0.67720(13)
O3C_2 O 0.58217(13) 0.84230(5) -0.32280(13)
O4C O 0.91349(13) 0.91870(5) 0.72737(12)
O4A O 1.08651(13) 1.08130(5) 0.27263(12)
O4C_2 O -0.08651(13) 0.91870(5) -0.27263(12)
C3C C 0.94672(16) 0.76816(6) 0.74642(14)
O5C O 1.15751(12) 0.77665(5) 0.73254(12)
O5_2 O 0.15751(12) 0.72335(5) 0.23254(12)
O5A O 0.84249(12) 1.22335(5) 0.26746(12)
O5B O 0.84249(12) 1.27665(5) -0.23254(12)
O5C_2 O 0.15751(12) 0.77665(5) -0.26746(12)
O6C O 0.85117(14) 0.70129(5) 0.78409(15)
O6B O 0.14883(14) 1.20129(5) -0.28409(15)
O7B O 0.81693(14) 1.08554(5) 0.58136(12)
O7B_2 O 0.81693(14) 1.08554(5) -0.41864(12)
O7_2 O 0.18307(14) 0.91446(5) -0.58136(12)
H1B H 0.826(4) 1.0388(16) 0.624(4)
H1B_2 H 0.826(4) 1.0388(16) -0.376(4)
H1_2 H 0.174(4) 0.9612(16) -0.624(4)
H2B H 0.935(5) 1.1120(18) 0.641(4)
H2B_2 H 0.935(5) 1.1120(18) -0.359(4)
H2_2 H 0.065(5) 0.8880(18) -0.641(4)
loop_
_geom_bond_atom_site_label_1
_geom_bond_atom_site_label_2
_geom_bond_site_symmetry_1
_geom_bond_site_symmetry_2
Na1 O1 1_555 1_555
Mg1 O1 1_555 1_555
C1 O1 1_555 1_555
O2 Na1 1_555 1_555
C2 O3 1_555 1_555
O3 Na1 1_555 1_555
O4 C2 1_555 1_555
C3 C2 1_555 1_555
O5 C3 1_555 1_555
O6 Na1 1_555 1_555
O7 Na1 1_555 1_555
H1 O7 1_555 1_555
H2 O7 1_555 1_555
Na1B O1B 1_555 1_555
Na1C O3 1_555 1_555
Na1_2 O5 1_555 1_555
Na1C_2 O3C 1_555 1_555
Na1C_3 O5C 1_555 1_555
Na1B_2 O3A 1_555 1_555
Mg1B O2 1_555 1_555
Mg1A O3 1_555 1_555
Mg1A_2 O4 1_555 1_555
Mg1B_2 O7 1_555 1_555
Mg1B_3 O4C 1_555 1_555
C1B C1 1_555 1_555
O1B Mg1B 1_555 1_555
O2B Mg1 1_555 1_555
C2C O3C 1_555 1_555
O3C Na1 1_555 1_555
O3A Mg1 1_555 1_555
O3B Na1B 1_555 1_555
O3A_2 Na1B 1_555 1_555
O3C_2 Na1C 1_555 1_555
O4C C2C 1_555 1_555
O4A Mg1 1_555 1_555
O4C_2 Mg1B 1_555 1_555
C3C C2C 1_555 1_555
O5C Mg1B_3 1_555 1_555
O5_2 Na1 1_555 1_555
O5A Mg1 1_555 1_555
O5B Na1B 1_555 1_555
O5C_2 Na1C 1_555 1_555
O6C Na1C_2 1_555 1_555
O6B Na1B 1_555 1_555
O7B Mg1 1_555 1_555
O7B_2 Na1B 1_555 1_555
O7_2 Mg1B 1_555 1_555
H1B O7B 1_555 1_555
H1B_2 O7B_2 1_555 1_555
H1_2 O7_2 1_555 1_555
H2B O7B 1_555 1_555
H2B_2 O7B_2 1_555 1_555
H2_2 O7_2 1_555 1_555
C1 O2 1_555 1_555
C3 O6 1_555 1_555
O5 Mg1A_2 1_555 1_555
Na1B O2B 1_555 1_555
Na1B_2 O7B 1_555 1_555
Mg1B O3C_2 1_555 1_555
Mg1B O5C_2 1_555 1_555
Mg1A O5_2 1_555 1_555
Mg1B_2 O3C 1_555 1_555
C1B O1B 1_555 1_555
C1B O2B 1_555 1_555
C3C O5C 1_555 1_555
C3C O6C 1_555 1_555

#END
