
#######################################################################
#
#                 Cambridge Crystallographic Data Centre
#                                CCDC 
#
#######################################################################
#
# If this CIF has been generated from an entry in the Cambridge 
# Structural Database, then it will include bibliographic, chemical, 
# crystal, experimental, refinement or atomic coordinate data resulting 
# from the CCDC's data processing and validation procedures.
#
#######################################################################

data_RODPAC
_symmetry_cell_setting           monoclinic
_symmetry_space_group_name_H-M   'C 2/c'
_symmetry_Int_Tables_number      15
_space_group_name_Hall           '-C 2yn'
loop_
_symmetry_equiv_pos_site_id
_symmetry_equiv_pos_as_xyz
1 x,y,z
2 1/2+x,1/2+y,z
3 -x,y,1/2-z
4 1/2-x,1/2+y,1/2-z
5 -x,-y,-z
6 1/2-x,1/2-y,-z
7 x,-y,1/2+z
8 1/2+x,1/2-y,1/2+z
_cell_length_a                   17.123(3)
_cell_length_b                   14.064(3)
_cell_length_c                   11.120(2)
_cell_angle_alpha                90
_cell_angle_beta                 108.33(3)
_cell_angle_gamma                90
_cell_volume                     2542.02
loop_
_atom_site_label
_atom_site_type_symbol
_atom_site_fract_x
_atom_site_fract_y
_atom_site_fract_z
Ag1 Ag 0.0000 0.33644(2) 0.2500
P1 P 0.08413(5) 0.39847(5) 0.13087(7)
O1 O 0.06120(15) 0.17517(16) 0.3151(2)
O2 O 0.0000 0.0421(3) 0.2500
N1 N 0.0000 0.1292(3) 0.2500
C1 C 0.18506(17) 0.4287(2) 0.2384(3)
C2 C 0.2341(2) 0.5014(3) 0.2188(3)
H1 H 0.2160 0.5381 0.1457
C3 C 0.3100(2) 0.5200(3) 0.3075(4)
H2 H 0.3426 0.5693 0.2943
C4 C 0.3370(2) 0.4648(3) 0.4153(4)
H3 H 0.3878 0.4771 0.4750
C5 C 0.2902(2) 0.3933(3) 0.4345(4)
H4 H 0.3094 0.3560 0.5069
C6 C 0.2142(2) 0.3747(3) 0.3484(3)
H5 H 0.1822 0.3257 0.3639
C7 C 0.10284(19) 0.3224(2) 0.0110(3)
C8 C 0.1568(2) 0.3472(3) -0.0540(4)
H6 H 0.1849 0.4048 -0.0367
C9 C 0.1693(3) 0.2867(3) -0.1445(4)
H7 H 0.2050 0.3040 -0.1888
C10 C 0.1292(3) 0.2022(3) -0.1684(4)
H8 H 0.1385 0.1613 -0.2282
C11 C 0.0753(3) 0.1761(3) -0.1058(4)
H9 H 0.0477 0.1183 -0.1237
C12 C 0.0620(2) 0.2364(2) -0.0154(3)
H10 H 0.0255 0.2189 0.0274
C13 C 0.04348(17) 0.5080(2) 0.0442(3)
H11 H 0.0432 0.5582 0.1039
H12 H 0.0787 0.5278 -0.0046
Ag1F Ag 0.0000 0.66356(2) -0.2500
P1D P -0.08413(5) 0.60153(5) -0.13087(7)
P1B P -0.08413(5) 0.39847(5) 0.36913(7)
O1B O -0.06120(15) 0.17517(16) 0.1849(2)
C1D C -0.18506(17) 0.5713(2) -0.2384(3)
C2D C -0.2341(2) 0.4986(3) -0.2188(3)
H1D H -0.2160 0.4619 -0.1457
C3D C -0.3100(2) 0.4800(3) -0.3075(4)
H2D H -0.3426 0.4307 -0.2943
C4D C -0.3370(2) 0.5352(3) -0.4153(4)
H3D H -0.3878 0.5229 -0.4750
C5D C -0.2902(2) 0.6067(3) -0.4345(4)
H4D H -0.3094 0.6440 -0.5069
C6D C -0.2142(2) 0.6253(3) -0.3484(3)
H5D H -0.1822 0.6743 -0.3639
C7D C -0.10284(19) 0.6776(2) -0.0110(3)
C8D C -0.1568(2) 0.6528(3) 0.0540(4)
H6D H -0.1849 0.5952 0.0367
C9D C -0.1693(3) 0.7133(3) 0.1445(4)
H7D H -0.2050 0.6960 0.1888
C10D C -0.1292(3) 0.7978(3) 0.1684(4)
H8D H -0.1385 0.8387 0.2282
C11D C -0.0753(3) 0.8239(3) 0.1058(4)
H9D H -0.0477 0.8817 0.1237
C12D C -0.0620(2) 0.7636(2) 0.0154(3)
H10D H -0.0255 0.7811 -0.0274
C13D C -0.04348(17) 0.4920(2) -0.0442(3)
H11D H -0.0432 0.4418 -0.1039
H12D H -0.0787 0.4722 0.0046
loop_
_geom_bond_atom_site_label_1
_geom_bond_atom_site_label_2
_geom_bond_site_symmetry_1
_geom_bond_site_symmetry_2
Ag1 P1 1_555 1_555
P1 C1 1_555 1_555
O1 Ag1 1_555 1_555
O2 N1 1_555 1_555
N1 O1 1_555 1_555
C1 C2 1_555 1_555
C2 H1 1_555 1_555
C3 C2 1_555 1_555
H2 C3 1_555 1_555
C4 C3 1_555 1_555
H3 C4 1_555 1_555
C5 C4 1_555 1_555
H4 C5 1_555 1_555
C6 C1 1_555 1_555
H5 C6 1_555 1_555
C7 P1 1_555 1_555
C8 C7 1_555 1_555
H6 C8 1_555 1_555
C9 C8 1_555 1_555
H7 C9 1_555 1_555
C10 C9 1_555 1_555
H8 C10 1_555 1_555
C11 C10 1_555 1_555
H9 C11 1_555 1_555
C12 C7 1_555 1_555
H10 C12 1_555 1_555
C13 P1 1_555 1_555
H11 C13 1_555 1_555
H12 C13 1_555 1_555
Ag1F P1D 1_555 1_555
P1D C1D 1_555 1_555
P1B Ag1 1_555 1_555
O1B Ag1 1_555 1_555
C1D C2D 1_555 1_555
C2D H1D 1_555 1_555
C3D C2D 1_555 1_555
H2D C3D 1_555 1_555
C4D C3D 1_555 1_555
H3D C4D 1_555 1_555
C5D C4D 1_555 1_555
H4D C5D 1_555 1_555
C6D C1D 1_555 1_555
H5D C6D 1_555 1_555
C7D P1D 1_555 1_555
C8D C7D 1_555 1_555
H6D C8D 1_555 1_555
C9D C8D 1_555 1_555
H7D C9D 1_555 1_555
C10D C9D 1_555 1_555
H8D C10D 1_555 1_555
C11D C10D 1_555 1_555
H9D C11D 1_555 1_555
C12D C7D 1_555 1_555
H10D C12D 1_555 1_555
C13D C13 1_555 1_555
H11D C13D 1_555 1_555
H12D C13D 1_555 1_555
N1 O1B 1_555 1_555
C5 C6 1_555 1_555
C11 C12 1_555 1_555
P1D C13D 1_555 1_555
C5D C6D 1_555 1_555
C11D C12D 1_555 1_555

#END
