
#######################################################################
#
#                 Cambridge Crystallographic Data Centre
#                                CCDC 
#
#######################################################################
#
# If this CIF has been generated from an entry in the Cambridge 
# Structural Database, then it will include bibliographic, chemical, 
# crystal, experimental, refinement or atomic coordinate data resulting 
# from the CCDC's data processing and validation procedures.
#
#######################################################################

data_RODQEG
_symmetry_cell_setting           monoclinic
_symmetry_space_group_name_H-M   'P 21'
_symmetry_Int_Tables_number      4
_space_group_name_Hall           'P 2yb'
loop_
_symmetry_equiv_pos_site_id
_symmetry_equiv_pos_as_xyz
1 x,y,z
2 -x,1/2+y,-z
_cell_length_a                   9.873(1)
_cell_length_b                   14.238(1)
_cell_length_c                   10.422(1)
_cell_angle_alpha                90
_cell_angle_beta                 94.302(6)
_cell_angle_gamma                90
_cell_volume                     1460.91
loop_
_atom_site_label
_atom_site_type_symbol
_atom_site_fract_x
_atom_site_fract_y
_atom_site_fract_z
Cu1 Cu 0.12620(6) 0.38110 0.87017(5)
O1 O -0.29689(43) -0.19138(34) 1.09999(38)
C1 C -0.35109(62) -0.24605(46) 1.17532(56)
C2 C -0.29449(58) -0.27621(44) 1.29558(53)
C3 C -0.16690(58) -0.24175(44) 1.34584(49)
O2 O -0.12365(50) -0.27557(37) 1.46202(41)
C4 C -0.00200(73) -0.22307(65) 1.50279(64)
H1 H -0.01941(73) -0.17817(65) 1.56829(64)
H2 H 0.06800(73) -0.26555(65) 1.53503(64)
C5 C 0.03861(62) -0.17344(48) 1.38081(57)
H3 H 0.06743(62) -0.10983(48) 1.39666(57)
N1 N -0.08687(46) -0.18384(37) 1.29347(43)
O3 O 0.01802(43) -0.02672(30) 1.18044(40)
C6 C 0.02836(60) 0.05803(40) 1.14535(53)
C7 C -0.05250(58) 0.10157(41) 1.04370(53)
C8 C -0.15380(57) 0.04906(41) 0.97360(49)
O4 O -0.22478(44) 0.09826(29) 0.87823(40)
C9 C -0.32032(82) 0.03511(55) 0.81658(81)
H4 H -0.41143(82) 0.05698(55) 0.82366(81)
H5 H -0.30357(82) 0.02919(55) 0.72739(81)
C10 C -0.29620(59) -0.05999(44) 0.88383(56)
H6 H -0.37761(59) -0.08371(44) 0.91702(56)
N2 N -0.18658(48) -0.03745(33) 0.98503(44)
O5 O -0.47359(49) -0.27998(42) 1.14453(44)
C11 C -0.54091(89) -0.24604(96) 1.02526(90)
H7 H -0.62897(89) -0.27458(96) 1.01236(90)
H8 H -0.48728(89) -0.26291(96) 0.95568(90)
H9 H -0.55067(89) -0.17900(96) 1.02797(90)
C12 C -0.36808(65) -0.33982(61) 1.36781(59)
N3 N -0.42568(70) -0.39058(60) 1.42876(61)
C13 C 0.16119(74) -0.21347(70) 1.32269(72)
H10 H 0.14729(74) -0.27994(70) 1.31360(72)
H11 H 0.16966(74) -0.18605(70) 1.23952(72)
C14 C 0.29226(72) -0.19816(84) 1.40729(83)
H12 H 0.36700(72) -0.22617(84) 1.36748(83)
H13 H 0.28496(72) -0.22571(84) 1.49056(83)
H14 H 0.30734(72) -0.13182(84) 1.41648(83)
O6 O 0.12152(51) 0.11335(33) 1.20527(45)
C15 C 0.21050(85) 0.07326(60) 1.30498(76)
H15 H 0.27253(85) 0.12019(60) 1.34005(76)
H16 H 0.26067(85) 0.02258(60) 1.27054(76)
H17 H 0.15752(85) 0.04982(60) 1.37160(76)
C16 C -0.02740(65) 0.19579(44) 1.01377(58)
N4 N -0.00451(64) 0.27290(40) 0.98878(55)
C17 C -0.25299(78) -0.13657(55) 0.79304(64)
H18 H -0.17662(78) -0.11494(55) 0.74941(64)
H19 H -0.22726(78) -0.19102(55) 0.84346(64)
C18 C -0.36616(89) -0.16399(64) 0.69468(70)
H20 H -0.33591(89) -0.21273(64) 0.63995(70)
H21 H -0.39210(89) -0.10986(64) 0.64368(70)
H22 H -0.44275(89) -0.18594(64) 0.73773(70)
Cu1A Cu -0.12620(6) -0.11890 1.12983(5)
N4A N 0.00451(64) -0.22710(40) 1.01122(55)
C19 C 0.34925(99) 0.55369(76) 0.62048(86)
H23 H 0.41116(99) 0.58397(76) 0.56697(86)
Cl1 Cl 0.42103(45) 0.44990(31) 0.67152(61)
Cl2 Cl 0.19246(43) 0.52731(41) 0.53916(42)
Cl3 Cl 0.32391(69) 0.62969(41) 0.73536(44)
C20 C 0.15950(91) -0.04964(74) 0.84472(86)
H24 H 0.09308(91) -0.07528(74) 0.89764(86)
Cl4 Cl 0.07350(26) 0.02173(22) 0.73238(28)
Cl5 Cl 0.27985(29) 0.01410(28) 0.94069(27)
Cl6 Cl 0.23937(41) -0.14321(30) 0.76939(34)
loop_
_geom_bond_atom_site_label_1
_geom_bond_atom_site_label_2
_geom_bond_site_symmetry_1
_geom_bond_site_symmetry_2
Cu1 N4 1_555 1_555
O1 C1 1_555 1_555
C1 C2 1_555 1_555
C2 C3 1_555 1_555
C3 O2 1_555 1_555
O2 C4 1_555 1_555
C4 H1 1_555 1_555
H2 C4 1_555 1_555
C5 C4 1_555 1_555
H3 C5 1_555 1_555
N1 C3 1_555 1_555
O3 C6 1_555 1_555
C6 C7 1_555 1_555
C7 C8 1_555 1_555
C8 O4 1_555 1_555
O4 C9 1_555 1_555
C9 H4 1_555 1_555
H5 C9 1_555 1_555
C10 C9 1_555 1_555
H6 C10 1_555 1_555
N2 C8 1_555 1_555
O5 C1 1_555 1_555
C11 O5 1_555 1_555
H7 C11 1_555 1_555
H8 C11 1_555 1_555
H9 C11 1_555 1_555
C12 C2 1_555 1_555
N3 C12 1_555 1_555
C13 C5 1_555 1_555
H10 C13 1_555 1_555
H11 C13 1_555 1_555
C14 C13 1_555 1_555
H12 C14 1_555 1_555
H13 C14 1_555 1_555
H14 C14 1_555 1_555
O6 C6 1_555 1_555
C15 O6 1_555 1_555
H15 C15 1_555 1_555
H16 C15 1_555 1_555
H17 C15 1_555 1_555
C16 C7 1_555 1_555
N4 C16 1_555 1_555
C17 C10 1_555 1_555
H18 C17 1_555 1_555
H19 C17 1_555 1_555
C18 C17 1_555 1_555
H20 C18 1_555 1_555
H21 C18 1_555 1_555
H22 C18 1_555 1_555
C19 H23 1_555 1_555
Cl1 C19 1_555 1_555
Cl2 C19 1_555 1_555
Cl3 C19 1_555 1_555
C20 H24 1_555 1_555
Cl4 C20 1_555 1_555
Cl5 C20 1_555 1_555
Cl6 C20 1_555 1_555
Cu1A O1 1_555 1_555
N4A Cu1A 1_555 1_555
C5 N1 1_555 1_555
N1 Cu1A 1_555 1_555
O3 Cu1A 1_555 1_555
C10 N2 1_555 1_555
N2 Cu1A 1_555 1_555

#END
