
#######################################################################
#
#                 Cambridge Crystallographic Data Centre
#                                CCDC 
#
#######################################################################
#
# If this CIF has been generated from an entry in the Cambridge 
# Structural Database, then it will include bibliographic, chemical, 
# crystal, experimental, refinement or atomic coordinate data resulting 
# from the CCDC's data processing and validation procedures.
#
#######################################################################

data_RODRAE
_symmetry_cell_setting           monoclinic
_symmetry_space_group_name_H-M   'P 21/c'
_symmetry_Int_Tables_number      14
_space_group_name_Hall           '-P 2ybc'
loop_
_symmetry_equiv_pos_site_id
_symmetry_equiv_pos_as_xyz
1 x,y,z
2 -x,1/2+y,1/2-z
3 -x,-y,-z
4 x,1/2-y,1/2+z
_cell_length_a                   13.323(3)
_cell_length_b                   10.949(2)
_cell_length_c                   16.315(3)
_cell_angle_alpha                90
_cell_angle_beta                 90.04(3)
_cell_angle_gamma                90
_cell_volume                     2379.93
loop_
_atom_site_label
_atom_site_type_symbol
_atom_site_fract_x
_atom_site_fract_y
_atom_site_fract_z
C1 C 0.0322(2) 0.6320(3) 0.4463(2)
H1 H 0.0486 0.5660 0.4130
C2 C -0.0586(3) 0.6896(3) 0.4341(2)
H2 H -0.1025 0.6616 0.3939
C3 C -0.0840(3) 0.7882(3) 0.4815(2)
H3 H -0.1446 0.8286 0.4733
C4 C -0.0176(2) 0.8268(3) 0.54190(19)
C5 C 0.0715(2) 0.7628(3) 0.55150(18)
C6 C 0.1417(2) 0.7963(3) 0.61634(18)
C7 C 0.2902(3) 0.7568(3) 0.6832(2)
H4 H 0.3489 0.7113 0.6878
C8 C 0.2726(3) 0.8488(3) 0.7401(2)
H5 H 0.3187 0.8648 0.7815
C9 C 0.1856(3) 0.9157(3) 0.7339(2)
H6 H 0.1719 0.9771 0.7717
C10 C 0.1185(2) 0.8913(3) 0.67094(19)
C11 C -0.0389(2) 0.9296(3) 0.5959(2)
C12 C 0.0252(2) 0.9581(3) 0.6599(2)
C13 C -0.0781(3) 1.1090(4) 0.6994(3)
H7 H -0.0953 1.1723 0.7348
C14 C -0.1422(3) 1.0841(3) 0.6341(3)
H8 H -0.1990 1.1323 0.6267
C15 C 0.4005(2) 0.7660(3) 0.49542(19)
C16 C 0.4529(2) 0.8864(2) 0.4964(2)
C17 C 0.5458(3) 0.8984(3) 0.5301(3)
H9 H 0.5784 0.8299 0.5508
C18 C 0.4074(3) 0.9891(3) 0.4661(3)
H10 H 0.3441 0.9830 0.4425
C19 C 0.3513(2) 0.4088(3) 0.63506(18)
C20 C 0.3366(2) 0.3233(3) 0.70612(18)
C21 C 0.4127(2) 0.2443(3) 0.7294(2)
H11 H 0.4735 0.2450 0.7015
C22 C 0.3987(2) 0.1647(3) 0.7938(2)
H12 H 0.4505 0.1130 0.8099
C23 C 0.3081(2) 0.1615(2) 0.83462(17)
C24 C 0.2313(2) 0.2385(3) 0.8108(2)
H13 H 0.1696 0.2349 0.8372
C25 C 0.2460(2) 0.3212(3) 0.74757(19)
H14 H 0.1951 0.3751 0.7330
C26 C 0.2900(2) 0.0716(2) 0.90190(17)
N1 N 0.09707(18) 0.6666(2) 0.50352(15)
N2 N 0.22697(19) 0.7308(2) 0.62252(16)
N3 N -0.1245(2) 0.9939(3) 0.58228(19)
N4 N 0.0048(2) 1.0488(3) 0.7141(2)
O1 O 0.43683(17) 0.4150(2) 0.60481(14)
O2 O 0.27522(16) 0.46763(19) 0.61136(13)
O3 O 0.31820(17) 0.75629(19) 0.45763(15)
O4 O 0.43671(16) 0.67877(17) 0.53665(13)
O5 O 0.36377(16) 0.01648(19) 0.93248(13)
O6 O 0.20305(16) 0.0478(2) 0.92461(13)
Mn1 Mn 0.5000 0.5000 0.5000
Mn2 Mn 0.25609(3) 0.59443(4) 0.51712(3)
C1B C 0.9678(2) 0.3680(3) 0.5537(2)
H1B H 0.9514 0.4340 0.5870
C2B C 1.0586(3) 0.3104(3) 0.5659(2)
H2B H 1.1025 0.3384 0.6061
C3B C 1.0840(3) 0.2118(3) 0.5185(2)
H3B H 1.1446 0.1714 0.5267
C4B C 1.0176(2) 0.1732(3) 0.45810(19)
C5B C 0.9285(2) 0.2372(3) 0.44850(18)
C6B C 0.8583(2) 0.2037(3) 0.38366(18)
C7B C 0.7098(3) 0.2432(3) 0.3168(2)
H4B H 0.6511 0.2887 0.3122
C8B C 0.7274(3) 0.1512(3) 0.2599(2)
H5B H 0.6813 0.1352 0.2185
C9B C 0.8144(3) 0.0843(3) 0.2661(2)
H6B H 0.8281 0.0229 0.2283
C10B C 0.8815(2) 0.1087(3) 0.32906(19)
C11B C 1.0389(2) 0.0704(3) 0.4041(2)
C12B C 0.9748(2) 0.0419(3) 0.3401(2)
C13B C 1.0781(3) -0.1090(4) 0.3006(3)
H7B H 1.0953 -0.1723 0.2652
C14B C 1.1422(3) -0.0841(3) 0.3659(3)
H8B H 1.1990 -0.1323 0.3733
C15B C 0.5995(2) 1.2340(3) 0.50458(19)
C16B C 0.5471(2) 1.1136(2) 0.5036(2)
C17B C 0.4542(3) 1.1016(3) 0.4699(3)
H9B H 0.4216 1.1701 0.4492
C18B C 0.5926(3) 1.0109(3) 0.5339(3)
H10B H 0.6559 1.0170 0.5575
C19B C 0.6487(2) 0.5912(3) 0.36494(18)
C20B C 0.6634(2) 0.6767(3) 0.29388(18)
C21B C 0.5873(2) 0.7557(3) 0.2706(2)
H11B H 0.5265 0.7550 0.2985
C22B C 0.6013(2) 0.8353(3) 0.2062(2)
H12B H 0.5495 0.8870 0.1901
C23B C 0.6919(2) 0.8385(2) 0.16538(17)
C24B C 0.7687(2) 0.7615(3) 0.1892(2)
H13B H 0.8304 0.7651 0.1628
C25B C 0.7540(2) 0.6788(3) 0.25243(19)
H14B H 0.8049 0.6249 0.2670
C26B C 0.7100(2) 0.9284(2) 0.09810(17)
N1B N 0.90293(18) 0.3334(2) 0.49648(15)
N2B N 0.77303(19) 0.2692(2) 0.37748(16)
N3B N 1.1245(2) 0.0061(3) 0.41772(19)
N4B N 0.9952(2) -0.0488(3) 0.2859(2)
O1B O 0.56317(17) 0.5850(2) 0.39519(14)
O2B O 0.72478(16) 0.53237(19) 0.38864(13)
O3B O 0.68180(17) 1.24371(19) 0.54237(15)
O3B_2 O 0.68180(17) 0.24371(19) 0.54237(15)
O4B O 0.56329(16) 1.32123(17) 0.46335(13)
O4B_2 O 0.56329(16) 0.32123(17) 0.46335(13)
O5B O 0.63623(16) 0.98352(19) 0.06752(13)
O5C O 0.36377(16) 0.48352(19) 0.43248(13)
O5A O 0.63623(16) 0.51648(19) 0.56752(13)
O6B O 0.79695(16) 0.9522(2) 0.07539(13)
O6C O 0.20305(16) 0.4522(2) 0.42461(13)
O6A O 0.79695(16) 0.5478(2) 0.57539(13)
Mn1C Mn 0.5000 0.0000 1.0000
Mn1_2 Mn 0.5000 1.5000 0.5000
Mn1C_2 Mn 0.5000 1.0000 0.0000
Mn2B Mn 0.74391(3) 0.40557(4) 0.48288(3)
Mn2C Mn 0.25609(3) -0.09443(4) 1.01712(3)
Mn2B_2 Mn 0.74391(3) 1.40557(4) 0.48288(3)
Mn2A Mn 0.74391(3) 1.09443(4) -0.01712(3)
loop_
_geom_bond_atom_site_label_1
_geom_bond_atom_site_label_2
_geom_bond_site_symmetry_1
_geom_bond_site_symmetry_2
C1 H1 1_555 1_555
C2 C1 1_555 1_555
H2 C2 1_555 1_555
C3 C2 1_555 1_555
H3 C3 1_555 1_555
C4 C3 1_555 1_555
C5 C4 1_555 1_555
C6 C5 1_555 1_555
C7 H4 1_555 1_555
C8 C7 1_555 1_555
H5 C8 1_555 1_555
C9 C8 1_555 1_555
H6 C9 1_555 1_555
C10 C6 1_555 1_555
C11 C4 1_555 1_555
C12 C10 1_555 1_555
C13 H7 1_555 1_555
C14 C13 1_555 1_555
H8 C14 1_555 1_555
C15 C16 1_555 1_555
C16 C17 1_555 1_555
C17 H9 1_555 1_555
C18 C16 1_555 1_555
H10 C18 1_555 1_555
C19 C20 1_555 1_555
C20 C21 1_555 1_555
C21 H11 1_555 1_555
C22 C21 1_555 1_555
H12 C22 1_555 1_555
C23 C22 1_555 1_555
C24 C23 1_555 1_555
H13 C24 1_555 1_555
C25 C20 1_555 1_555
H14 C25 1_555 1_555
C26 C23 1_555 1_555
N1 C1 1_555 1_555
N2 C6 1_555 1_555
N3 C11 1_555 1_555
N4 C12 1_555 1_555
O1 C19 1_555 1_555
O2 C19 1_555 1_555
O3 C15 1_555 1_555
O4 C15 1_555 1_555
O5 C26 1_555 1_555
O6 C26 1_555 1_555
Mn1 O1 1_555 1_555
Mn2 N1 1_555 1_555
C1B H1B 1_555 1_555
C2B C1B 1_555 1_555
H2B C2B 1_555 1_555
C3B C2B 1_555 1_555
H3B C3B 1_555 1_555
C4B C3B 1_555 1_555
C5B C4B 1_555 1_555
C6B C5B 1_555 1_555
C7B H4B 1_555 1_555
C8B C7B 1_555 1_555
H5B C8B 1_555 1_555
C9B C8B 1_555 1_555
H6B C9B 1_555 1_555
C10B C6B 1_555 1_555
C11B C4B 1_555 1_555
C12B C10B 1_555 1_555
C13B H7B 1_555 1_555
C14B C13B 1_555 1_555
H8B C14B 1_555 1_555
C15B C16B 1_555 1_555
C16B C17B 1_555 1_555
C17B C18 1_555 1_555
H9B C17B 1_555 1_555
C18B C17 1_555 1_555
H10B C18B 1_555 1_555
C19B C20B 1_555 1_555
C20B C21B 1_555 1_555
C21B H11B 1_555 1_555
C22B C21B 1_555 1_555
H12B C22B 1_555 1_555
C23B C22B 1_555 1_555
C24B C23B 1_555 1_555
H13B C24B 1_555 1_555
C25B C20B 1_555 1_555
H14B C25B 1_555 1_555
C26B C23B 1_555 1_555
N1B C1B 1_555 1_555
N2B C6B 1_555 1_555
N3B C11B 1_555 1_555
N4B C12B 1_555 1_555
O1B Mn1 1_555 1_555
O2B C19B 1_555 1_555
O3B C15B 1_555 1_555
O3B_2 Mn2B 1_555 1_555
O4B C15B 1_555 1_555
O4B_2 Mn1 1_555 1_555
O5B C26B 1_555 1_555
O5C Mn1 1_555 1_555
O5A Mn1 1_555 1_555
O6B C26B 1_555 1_555
O6C Mn2 1_555 1_555
O6A Mn2B 1_555 1_555
Mn1C O5 1_555 1_555
Mn1_2 O4B 1_555 1_555
Mn1C_2 O5B 1_555 1_555
Mn2B N1B 1_555 1_555
Mn2C O5 1_555 1_555
Mn2B_2 O3B 1_555 1_555
Mn2A O5B 1_555 1_555
C5 N1 1_555 1_555
C7 N2 1_555 1_555
C9 C10 1_555 1_555
C11 C12 1_555 1_555
C13 N4 1_555 1_555
C14 N3 1_555 1_555
C24 C25 1_555 1_555
N2 Mn2 1_555 1_555
O2 Mn2 1_555 1_555
O3 Mn2 1_555 1_555
O4 Mn1 1_555 1_555
O6 Mn2C 1_555 1_555
Mn2 O5C 1_555 1_555
C5B N1B 1_555 1_555
C7B N2B 1_555 1_555
C9B C10B 1_555 1_555
C11B C12B 1_555 1_555
C13B N4B 1_555 1_555
C14B N3B 1_555 1_555
C16B C18B 1_555 1_555
C19B O1B 1_555 1_555
C24B C25B 1_555 1_555
N2B Mn2B 1_555 1_555
O2B Mn2B 1_555 1_555
O5A Mn2B 1_555 1_555
O6B Mn2A 1_555 1_555

#END
