
#######################################################################
#
#                 Cambridge Crystallographic Data Centre
#                                CCDC 
#
#######################################################################
#
# If this CIF has been generated from an entry in the Cambridge 
# Structural Database, then it will include bibliographic, chemical, 
# crystal, experimental, refinement or atomic coordinate data resulting 
# from the CCDC's data processing and validation procedures.
#
#######################################################################

data_RODSUZ
_symmetry_cell_setting           orthorhombic
_symmetry_space_group_name_H-M   'P c a 21'
_symmetry_Int_Tables_number      29
_space_group_name_Hall           'P 2c -2ac'
loop_
_symmetry_equiv_pos_site_id
_symmetry_equiv_pos_as_xyz
1 x,y,z
2 -x,-y,1/2+z
3 1/2-x,y,1/2+z
4 1/2+x,-y,z
_cell_length_a                   19.330(4)
_cell_length_b                   11.440(2)
_cell_length_c                   16.390(3)
_cell_angle_alpha                90
_cell_angle_beta                 90
_cell_angle_gamma                90
_cell_volume                     3624.41
loop_
_atom_site_label
_atom_site_type_symbol
_atom_site_fract_x
_atom_site_fract_y
_atom_site_fract_z
Sn1 Sn 0.116980(19) -0.14033(4) -0.14385(3)
Sn2 Sn 0.069248(18) 0.19052(3) 0.10089(3)
Cl1 Cl 0.31159(9) -0.0258(3) 0.04475(13)
Cl2 Cl -0.0078(3) -0.5469(3) -0.2302(3)
O1 O 0.1911(2) -0.0768(5) -0.0541(3)
O2 O 0.1179(2) 0.0422(4) 0.0078(3)
O3 O -0.0358(3) -0.3316(5) -0.3179(3)
O4 O 0.0384(3) -0.2223(5) -0.2488(3)
C1 C 0.1739(3) -0.0072(6) 0.0016(4)
C2 C 0.2274(4) 0.0195(8) 0.0668(5)
H1 H 0.2129 -0.0175 0.1172
H2 H 0.2279 0.1032 0.076
C3 C 0.0926(6) 0.0203(9) -0.1995(7)
H3 H 0.0675 0.0052 -0.2497
H4 H 0.0622 0.064 -0.1636
C4 C 0.1574(7) 0.0968(12) -0.2194(9)
H5 H 0.1797 0.1187 -0.1686
H6 H 0.19 0.0501 -0.2504
C5 C 0.1422(12) 0.1986(18) -0.2636(13)
H7 H 0.1529 0.1863 -0.3202
H8 H 0.1694 0.2623 -0.243
H9 H 0.094 0.2167 -0.258
C6 C 0.1961(3) -0.2438(6) -0.1993(4)
C7 C 0.2427(5) -0.3094(6) -0.1541(8)
H10 H 0.2404 -0.3074 -0.0975
C8 C 0.2919(5) -0.3771(8) -0.1913(7)
H11 H 0.3219 -0.4216 -0.1597
C9 C 0.2973(6) -0.3797(9) -0.2740(8)
H12 H 0.3301 -0.4271 -0.2991
C10 C 0.2531(7) -0.3105(12) -0.3208(7)
H13 H 0.2583 -0.3079 -0.3772
C11 C 0.2017(5) -0.2460(9) -0.2835(5)
H14 H 0.1706 -0.2036 -0.3152
C12 C 0.0543(4) -0.2221(7) -0.0539(4)
C13 C 0.0797(4) -0.3076(9) -0.0027(6)
H15 H 0.1259 -0.3297 -0.0065
C14 C 0.0377(6) -0.3603(10) 0.0536(6)
H16 H 0.0558 -0.4189 0.0867
C15 C -0.0302(7) -0.3290(12) 0.0625(8)
H17 H -0.0578 -0.3652 0.1015
C16 C -0.0567(5) -0.2440(12) 0.0135(9)
H18 H -0.1027 -0.2215 0.0196
C17 C -0.0146(4) -0.1885(8) -0.0475(6)
H19 H -0.033 -0.1317 -0.0819
C18 C 0.0086(4) -0.3153(7) -0.2625(5)
C19 C 0.0275(7) -0.4147(9) -0.2078(7)
H20 H 0.0141 -0.3942 -0.1526
H21 H 0.0774 -0.4229 -0.2084
C20 C -0.0249(4) 0.1638(9) 0.0359(7)
H22 H -0.0138 0.1239 -0.0146
H23 H -0.0535 0.1114 0.0679
C21 C -0.0660(8) 0.2664(17) 0.0160(15)
H24 H -0.1011 0.2378 -0.0213
H25 H -0.0902 0.2852 0.0661
C22 C -0.0485(13) 0.3780(15) -0.0125(16)
H26 H -0.0898 0.4246 -0.0170
H27 H -0.0184 0.4163 0.0262
H28 H -0.0252 0.3725 -0.0641
C23 C 0.1495(4) 0.2993(6) 0.0543(5)
C24 C 0.1565(7) 0.3199(12) -0.0289(6)
H29 H 0.1239 0.29 -0.0651
C25 C 0.2113(8) 0.3843(15) -0.0583(9)
H30 H 0.2139 0.4012 -0.1137
C26 C 0.2619(6) 0.4234(12) -0.0071(9)
H31 H 0.3002 0.4624 -0.0279
C27 C 0.2559(5) 0.4052(9) 0.0734(7)
H32 H 0.29 0.433 0.1085
C28 C 0.1991(4) 0.3451(6) 0.1053(7)
H33 H 0.1948 0.336 0.1615
C29 C 0.0973(4) 0.0755(8) 0.1974(5)
C30 C 0.0815(6) -0.0416(9) 0.1932(7)
H34 H 0.0583 -0.0716 0.1482
C31 C 0.1009(9) -0.1152(15) 0.2576(11)
H35 H 0.0892 -0.194 0.2555
C32 C 0.1358(9) -0.0744(19) 0.3219(9)
H36 H 0.1488 -0.1251 0.3635
C33 C 0.1525(7) 0.0414(16) 0.3269(6)
H37 H 0.1775 0.0691 0.3714
C34 C 0.1322(5) 0.1175(11) 0.2659(5)
H38 H 0.1418 0.1969 0.2705
Sn2A Sn -0.069248(18) -0.19052(3) -0.39911(3)
O3A O 0.0358(3) 0.3316(5) 0.1821(3)
loop_
_geom_bond_atom_site_label_1
_geom_bond_atom_site_label_2
_geom_bond_site_symmetry_1
_geom_bond_site_symmetry_2
Sn1 O1 1_555 1_555
Sn2 O2 1_555 1_555
Cl1 C2 1_555 1_555
Cl2 C19 1_555 1_555
O1 C1 1_555 1_555
O2 C1 1_555 1_555
O3 C18 1_555 1_555
O4 Sn1 1_555 1_555
C1 C2 1_555 1_555
C2 H1 1_555 1_555
H2 C2 1_555 1_555
C3 Sn1 1_555 1_555
H3 C3 1_555 1_555
H4 C3 1_555 1_555
C4 C3 1_555 1_555
H5 C4 1_555 1_555
H6 C4 1_555 1_555
C5 C4 1_555 1_555
H7 C5 1_555 1_555
H8 C5 1_555 1_555
H9 C5 1_555 1_555
C6 Sn1 1_555 1_555
C7 C6 1_555 1_555
H10 C7 1_555 1_555
C8 C7 1_555 1_555
H11 C8 1_555 1_555
C9 C8 1_555 1_555
H12 C9 1_555 1_555
C10 C9 1_555 1_555
H13 C10 1_555 1_555
C11 C6 1_555 1_555
H14 C11 1_555 1_555
C12 Sn1 1_555 1_555
C13 C12 1_555 1_555
H15 C13 1_555 1_555
C14 C13 1_555 1_555
H16 C14 1_555 1_555
C15 C14 1_555 1_555
H17 C15 1_555 1_555
C16 C15 1_555 1_555
H18 C16 1_555 1_555
C17 C12 1_555 1_555
H19 C17 1_555 1_555
C18 O4 1_555 1_555
C19 C18 1_555 1_555
H20 C19 1_555 1_555
H21 C19 1_555 1_555
C20 Sn2 1_555 1_555
H22 C20 1_555 1_555
H23 C20 1_555 1_555
C21 C20 1_555 1_555
H24 C21 1_555 1_555
H25 C21 1_555 1_555
C22 C21 1_555 1_555
H26 C22 1_555 1_555
H27 C22 1_555 1_555
H28 C22 1_555 1_555
C23 Sn2 1_555 1_555
C24 C23 1_555 1_555
H29 C24 1_555 1_555
C25 C24 1_555 1_555
H30 C25 1_555 1_555
C26 C25 1_555 1_555
H31 C26 1_555 1_555
C27 C26 1_555 1_555
H32 C27 1_555 1_555
C28 C23 1_555 1_555
H33 C28 1_555 1_555
C29 Sn2 1_555 1_555
C30 C29 1_555 1_555
H34 C30 1_555 1_555
C31 C30 1_555 1_555
H35 C31 1_555 1_555
C32 C31 1_555 1_555
H36 C32 1_555 1_555
C33 C32 1_555 1_555
H37 C33 1_555 1_555
C34 C29 1_555 1_555
H38 C34 1_555 1_555
Sn2A O3 1_555 1_555
O3A Sn2 1_555 1_555
C10 C11 1_555 1_555
C16 C17 1_555 1_555
C27 C28 1_555 1_555
C33 C34 1_555 1_555

#END
