
#######################################################################
#
#                 Cambridge Crystallographic Data Centre
#                                CCDC 
#
#######################################################################
#
# If this CIF has been generated from an entry in the Cambridge 
# Structural Database, then it will include bibliographic, chemical, 
# crystal, experimental, refinement or atomic coordinate data resulting 
# from the CCDC's data processing and validation procedures.
#
#######################################################################

data_RODTOV
_symmetry_cell_setting           triclinic
_symmetry_space_group_name_H-M   'P 1'
_symmetry_Int_Tables_number      1
_space_group_name_Hall           'P 1'
loop_
_symmetry_equiv_pos_site_id
_symmetry_equiv_pos_as_xyz
1 x,y,z
_cell_length_a                   8.0673(10)
_cell_length_b                   10.1468(12)
_cell_length_c                   15.3410(18)
_cell_angle_alpha                84.2850(10)
_cell_angle_beta                 78.0170(10)
_cell_angle_gamma                76.6440(10)
_cell_volume                     1193.43
loop_
_atom_site_label
_atom_site_type_symbol
_atom_site_fract_x
_atom_site_fract_y
_atom_site_fract_z
C1 C 0.4405(11) 0.8532(8) 0.3447(5)
C2 C 0.6035(7) 0.7446(6) 0.3399(4)
H1 H 0.5797 0.6581 0.3285
H2 H 0.6440 0.7359 0.3966
H3 H 0.6933 0.7690 0.2915
C3 C 0.6125(8) 1.0226(7) 0.3497(4)
H4 H 0.7048 0.9427 0.3567
H5 H 0.5905 1.0791 0.4008
H6 H 0.6483 1.0751 0.2947
C4 C 0.2971(8) 1.0862(6) 0.3423(4)
H7 H 0.2641 1.0907 0.2839
H8 H 0.3211 1.1734 0.3521
H9 H 0.2018 1.0664 0.3891
N1 N 0.4529(7) 0.9787(5) 0.3450(3)
O1 O 0.2953(7) 0.8230(5) 0.3488(3)
C5 C 0.4310(11) 0.5590(8) 0.1732(5)
C6 C 0.4591(11) 0.6984(7) 0.1236(5)
H10 H 0.4408 0.7665 0.1677
H11 H 0.3763 0.7286 0.0834
H12 H 0.5777 0.6866 0.0890
C7 C 0.5066(13) 0.4667(9) 0.0223(5)
H13 H 0.4624 0.5604 0.0018
H14 H 0.4545 0.4053 -0.0035
H15 H 0.6331 0.4432 0.0033
C8 C 0.4551(12) 0.3234(8) 0.1678(5)
H16 H 0.5731 0.2751 0.1727
H17 H 0.4057 0.2713 0.1332
H18 H 0.3831 0.3345 0.2276
N2 N 0.4597(7) 0.4529(4) 0.1241(3)
O2 O 0.3892(7) 0.5438(5) 0.2581(3)
C9 C -0.0688(12) 0.7963(13) 0.5096(6)
C10 C -0.0995(13) 0.6024(8) 0.5738(7)
H19 H -0.0611 0.5770 0.5117
H20 H -0.2204 0.5947 0.5945
H21 H -0.0261 0.5416 0.6111
C11 C -0.1354(13) 0.8147(10) 0.6711(5)
H22 H -0.0500 0.8654 0.6785
H23 H -0.1393 0.7409 0.7174
H24 H -0.2501 0.8757 0.6764
C12 C -0.0839(12) 0.9725(7) 0.5170(6)
H25 H -0.1976 1.0130 0.5517
H26 H -0.0700 1.0166 0.4569
H27 H 0.0076 0.9852 0.5465
N3 N -0.0844(8) 0.7562(10) 0.5804(4)
O3 O -0.0373(7) 0.7595(5) 0.4354(3)
Zn1 Zn 0.18125(15) 0.65806(11) 0.34534(8)
C13 C 0.0241(9) 0.6926(7) 0.1772(5)
H28 H 0.0452 0.5963 0.1818
C14 C -0.0438(9) 0.7560(7) 0.1066(5)
H29 H -0.0689 0.7061 0.0636
C15 C -0.0755(10) 0.8976(8) 0.0993(5)
C16 C -0.0406(10) 0.9677(7) 0.1625(5)
H30 H -0.0644 1.0641 0.1592
C17 C 0.0300(10) 0.8940(7) 0.2306(5)
H31 H 0.0573 0.9430 0.2735
C18 C -0.3339(10) 1.0134(7) 0.0357(5)
C19 C -0.0340(11) 1.0000(8) -0.0513(5)
C20 C -0.4064(10) 1.0842(7) -0.0379(5)
C21 C -0.1118(10) 1.0723(7) -0.1265(5)
C22 C -0.5821(10) 1.1253(7) -0.0324(5)
H32 H -0.6587 1.1063 0.0210
C23 C -0.2917(10) 1.1132(7) -0.1185(5)
C24 C 0.0018(11) 1.0988(8) -0.2050(5)
H33 H 0.1241 1.0699 -0.2107
C25 C -0.6495(11) 1.1955(8) -0.1056(5)
H34 H -0.7717 1.2239 -0.1006
C26 C -0.3603(10) 1.1817(7) -0.1911(4)
C27 C -0.0742(11) 1.1703(8) -0.2748(5)
H35 H -0.0007 1.1913 -0.3288
C28 C -0.5464(10) 1.2234(7) -0.1819(5)
C29 C -0.6180(11) 1.3007(7) -0.2566(5)
C30 C -0.3178(11) 1.2877(7) -0.3489(5)
C31 C -0.2480(10) 1.2108(7) -0.2684(5)
C32 C -0.5671(11) 1.4056(8) -0.4077(5)
N4 N 0.0650(8) 0.7546(6) 0.2424(4)
N5 N -0.1515(9) 0.9704(6) 0.0234(4)
N6 N -0.4967(8) 1.3283(5) -0.3363(4)
N7 N -0.7069(9) 1.5500(6) -0.5475(4)
O4 O -0.4226(7) 0.9873(5) 0.1106(3)
O5 O 0.1196(8) 0.9606(6) -0.0522(3)
O6 O -0.7731(7) 1.3375(5) -0.2560(3)
O7 O -0.2286(7) 1.3143(5) -0.4190(3)
C33 C -0.0712(11) 0.4316(8) 0.3506(5)
C34 C -0.1972(10) 0.3463(7) 0.3589(4)
H36 H -0.1472 0.2684 0.3217
H37 H -0.3022 0.3992 0.3393
H38 H -0.2267 0.3141 0.4214
N8 N 0.0303(9) 0.4912(6) 0.3485(4)
C35 C -0.5949(10) 1.5424(7) -0.4147(5)
H39 H -0.5651 1.5900 -0.3720
C36 C -0.6132(11) 1.3376(8) -0.4724(5)
H40 H -0.5993 1.2417 -0.4684
C37 C -0.6681(10) 1.6133(7) -0.4856(5)
H41 H -0.6905 1.7096 -0.4894
C38 C -0.6791(10) 1.4157(7) -0.5412(5)
H42 H -0.7059 1.3711 -0.5864
Zn1_2 Zn -0.81875(15) 1.65806(11) -0.65466(8)
N7_2 N 0.2931(9) 0.5500(6) 0.4525(4)
Cl1 Cl 0.9756(3) 0.3538(2) 0.09976(14)
O8 O 0.9234(9) 0.2734(5) 0.0401(4)
O9 O 1.0526(9) 0.2645(6) 0.1684(4)
O10 O 0.8305(7) 0.4506(6) 0.1412(4)
O11 O 1.1062(8) 0.4218(6) 0.0485(4)
Cl2 Cl 0.3938(3) 0.9432(2) 0.60517(14)
O12 O 0.5385(8) 0.8495(6) 0.5548(4)
O13 O 0.4596(9) 1.0175(6) 0.6597(4)
O14 O 0.2793(10) 0.8651(6) 0.6611(5)
O15 O 0.3027(9) 1.0350(6) 0.5443(4)
loop_
_geom_bond_atom_site_label_1
_geom_bond_atom_site_label_2
_geom_bond_site_symmetry_1
_geom_bond_site_symmetry_2
C1 C2 1_555 1_555
C2 H1 1_555 1_555
H2 C2 1_555 1_555
H3 C2 1_555 1_555
C3 H4 1_555 1_555
H5 C3 1_555 1_555
H6 C3 1_555 1_555
C4 H7 1_555 1_555
H8 C4 1_555 1_555
H9 C4 1_555 1_555
N1 C1 1_555 1_555
O1 C1 1_555 1_555
C5 C6 1_555 1_555
C6 H10 1_555 1_555
H11 C6 1_555 1_555
H12 C6 1_555 1_555
C7 H13 1_555 1_555
H14 C7 1_555 1_555
H15 C7 1_555 1_555
C8 H16 1_555 1_555
H17 C8 1_555 1_555
H18 C8 1_555 1_555
N2 C5 1_555 1_555
O2 C5 1_555 1_555
C9 C12 1_555 1_555
C10 H19 1_555 1_555
H20 C10 1_555 1_555
H21 C10 1_555 1_555
C11 H22 1_555 1_555
H23 C11 1_555 1_555
H24 C11 1_555 1_555
C12 H25 1_555 1_555
H26 C12 1_555 1_555
H27 C12 1_555 1_555
N3 C9 1_555 1_555
O3 C9 1_555 1_555
Zn1 O1 1_555 1_555
C13 H28 1_555 1_555
C14 C13 1_555 1_555
H29 C14 1_555 1_555
C15 C14 1_555 1_555
C16 C15 1_555 1_555
H30 C16 1_555 1_555
C17 C16 1_555 1_555
H31 C17 1_555 1_555
C18 C20 1_555 1_555
C19 C21 1_555 1_555
C20 C22 1_555 1_555
C21 C23 1_555 1_555
C22 H32 1_555 1_555
C23 C20 1_555 1_555
C24 C21 1_555 1_555
H33 C24 1_555 1_555
C25 C22 1_555 1_555
H34 C25 1_555 1_555
C26 C23 1_555 1_555
C27 C24 1_555 1_555
H35 C27 1_555 1_555
C28 C25 1_555 1_555
C29 C28 1_555 1_555
C30 C31 1_555 1_555
C31 C26 1_555 1_555
C32 N6 1_555 1_555
N4 Zn1 1_555 1_555
N5 C15 1_555 1_555
N6 C29 1_555 1_555
N7 C37 1_555 1_555
O4 C18 1_555 1_555
O5 C19 1_555 1_555
O6 C29 1_555 1_555
O7 C30 1_555 1_555
C33 C34 1_555 1_555
C34 H36 1_555 1_555
H37 C34 1_555 1_555
H38 C34 1_555 1_555
N8 Zn1 1_555 1_555
C35 C32 1_555 1_555
H39 C35 1_555 1_555
C36 C32 1_555 1_555
H40 C36 1_555 1_555
C37 C35 1_555 1_555
H41 C37 1_555 1_555
C38 N7 1_555 1_555
H42 C38 1_555 1_555
Cl1 O8 1_555 1_555
O9 Cl1 1_555 1_555
O10 Cl1 1_555 1_555
O11 Cl1 1_555 1_555
Cl2 O12 1_555 1_555
O13 Cl2 1_555 1_555
O14 Cl2 1_555 1_555
O15 Cl2 1_555 1_555
Zn1_2 N7 1_555 1_555
N7_2 Zn1 1_555 1_555
C3 N1 1_555 1_555
C4 N1 1_555 1_555
C7 N2 1_555 1_555
C8 N2 1_555 1_555
O2 Zn1 1_555 1_555
C10 N3 1_555 1_555
C11 N3 1_555 1_555
O3 Zn1 1_555 1_555
C13 N4 1_555 1_555
C17 N4 1_555 1_555
C18 N5 1_555 1_555
C19 N5 1_555 1_555
C26 C28 1_555 1_555
C27 C31 1_555 1_555
C30 N6 1_555 1_555
C33 N8 1_555 1_555
C36 C38 1_555 1_555

#END
