
#######################################################################
#
#                 Cambridge Crystallographic Data Centre
#                                CCDC 
#
#######################################################################
#
# If this CIF has been generated from an entry in the Cambridge 
# Structural Database, then it will include bibliographic, chemical, 
# crystal, experimental, refinement or atomic coordinate data resulting 
# from the CCDC's data processing and validation procedures.
#
#######################################################################

data_RODWEO
_symmetry_cell_setting           monoclinic
_symmetry_space_group_name_H-M   'P 21/n'
_symmetry_Int_Tables_number      14
_space_group_name_Hall           '-P 2yn'
loop_
_symmetry_equiv_pos_site_id
_symmetry_equiv_pos_as_xyz
1 x,y,z
2 1/2-x,1/2+y,1/2-z
3 -x,-y,-z
4 1/2+x,1/2-y,1/2+z
_cell_length_a                   12.4781(9)
_cell_length_b                   13.7414(9)
_cell_length_c                   14.3434(10)
_cell_angle_alpha                90
_cell_angle_beta                 107.816(5)
_cell_angle_gamma                90
_cell_volume                     2341.47
loop_
_atom_site_label
_atom_site_type_symbol
_atom_site_fract_x
_atom_site_fract_y
_atom_site_fract_z
Ag1 Ag 0.11470(5) 0.20382(5) 0.44232(4)
O1 O 0.0884(5) 0.1006(4) 0.5794(4)
C1 C 0.1540(7) 0.0136(6) 0.5890(7)
C2 C 0.2698(8) 0.0338(7) 0.5839(7)
O2 O 0.2597(5) 0.0728(5) 0.4898(4)
C3 C 0.3634(7) 0.1011(7) 0.4756(8)
C4 C 0.3402(8) 0.1316(7) 0.3713(8)
O3 O 0.2662(4) 0.2134(4) 0.3484(4)
C5 C 0.3129(6) 0.3043(6) 0.3485(5)
C6 C 0.3207(6) 0.3686(6) 0.4264(5)
O4 O 0.2854(5) 0.3318(4) 0.5015(4)
C7 C 0.2684(7) 0.4002(6) 0.5713(5)
C8 C 0.2219(6) 0.3424(6) 0.6397(5)
O5 O 0.1150(4) 0.3060(4) 0.5871(3)
C9 C 0.0601(8) 0.2533(7) 0.6463(7)
C10 C 0.1096(7) 0.1532(7) 0.6705(5)
C11 C 0.3581(6) 0.4614(5) 0.4240(5)
C12 C 0.3890(6) 0.4945(5) 0.3426(5)
N1 N 0.4222(6) 0.5930(5) 0.3468(5)
C13 C 0.4558(6) 0.6448(6) 0.2802(5)
O6 O 0.4749(5) 0.6095(4) 0.2078(4)
N2 N 0.4706(6) 0.7418(5) 0.3046(5)
C14 C 0.4859(6) 0.8161(5) 0.2434(5)
C15 C 0.5472(6) 0.8048(6) 0.1767(5)
C16 C 0.5613(6) 0.8832(7) 0.1209(6)
C17 C 0.5148(7) 0.9737(6) 0.1306(6)
C18 C 0.4536(7) 0.9849(6) 0.1955(7)
C19 C 0.4394(7) 0.9079(6) 0.2517(6)
C20 C 0.3800(6) 0.4317(6) 0.2648(5)
C21 C 0.3427(6) 0.3379(6) 0.2683(5)
H1 H 0.5794 0.7435 0.1702
H2 H 0.0726 0.1189 0.7118
H3 H 0.1900 0.1571 0.7032
H4 H 0.0682 0.2882 0.7073
H5 H -0.0196 0.2470 0.6089
H6 H 0.2730 0.2892 0.6703
H7 H 0.2148 0.3860 0.6906
H8 H 0.2153 0.4493 0.5377
H9 H 0.3380 0.4312 0.6084
H10 H 0.4009 0.9171 0.2985
H11 H 0.4219 1.0457 0.2025
H12 H 0.5234 1.0262 0.0917
H13 H 0.6024 0.8757 0.0759
H14 H 0.4410 0.7601 0.3479
H15 H 0.4061 0.6266 0.3909
H16 H 0.3349 0.2961 0.2147
H17 H 0.3979 0.4538 0.2099
H18 H 0.3654 0.5033 0.4774
H19 H 0.4104 0.1490 0.3596
H20 H 0.3038 0.0768 0.3286
H21 H 0.4167 0.0478 0.4903
H22 H 0.3957 0.1559 0.5197
H23 H 0.3152 -0.0254 0.5935
H24 H 0.3065 0.0812 0.6339
H25 H 0.1172 -0.0287 0.5342
H26 H 0.1574 -0.0190 0.6500
Ag1A Ag 0.38530(5) 0.70382(5) 0.05768(4)
O6A O 0.0251(5) 0.1095(4) 0.2922(4)
C15A C -0.0472(6) 0.3048(6) 0.3233(5)
P1 P 0.6712(3) 0.2492(2) 0.4652(3)
F1 F 0.6668(13) 0.3500(8) 0.4139(11)
F2 F 0.6879(13) 0.1590(9) 0.5323(10)
F3 F 0.6113(13) 0.1890(11) 0.3735(9)
F4 F 0.5929(12) 0.2575(12) 0.5277(11)
F5 F 0.7364(13) 0.3182(10) 0.5494(9)
F6 F 0.7931(9) 0.2150(12) 0.4838(12)
loop_
_geom_bond_atom_site_label_1
_geom_bond_atom_site_label_2
_geom_bond_site_symmetry_1
_geom_bond_site_symmetry_2
Ag1 O1 1_555 1_555
O1 C1 1_555 1_555
C1 C2 1_555 1_555
C2 O2 1_555 1_555
O2 Ag1 1_555 1_555
C3 O2 1_555 1_555
C4 C3 1_555 1_555
O3 Ag1 1_555 1_555
C5 O3 1_555 1_555
C6 C5 1_555 1_555
O4 Ag1 1_555 1_555
C7 O4 1_555 1_555
C8 C7 1_555 1_555
O5 Ag1 1_555 1_555
C9 O5 1_555 1_555
C10 O1 1_555 1_555
C11 C6 1_555 1_555
C12 C11 1_555 1_555
N1 C12 1_555 1_555
C13 N1 1_555 1_555
O6 C13 1_555 1_555
N2 C13 1_555 1_555
C14 N2 1_555 1_555
C15 C14 1_555 1_555
C16 C15 1_555 1_555
C17 C16 1_555 1_555
C18 C17 1_555 1_555
C19 C14 1_555 1_555
C20 C12 1_555 1_555
C21 C5 1_555 1_555
H1 C15 1_555 1_555
H2 C10 1_555 1_555
H3 C10 1_555 1_555
H4 C9 1_555 1_555
H5 C9 1_555 1_555
H6 C8 1_555 1_555
H7 C8 1_555 1_555
H8 C7 1_555 1_555
H9 C7 1_555 1_555
H10 C19 1_555 1_555
H11 C18 1_555 1_555
H12 C17 1_555 1_555
H13 C16 1_555 1_555
H14 N2 1_555 1_555
H15 N1 1_555 1_555
H16 C21 1_555 1_555
H17 C20 1_555 1_555
H18 C11 1_555 1_555
H19 C4 1_555 1_555
H20 C4 1_555 1_555
H21 C3 1_555 1_555
H22 C3 1_555 1_555
H23 C2 1_555 1_555
H24 C2 1_555 1_555
H25 C1 1_555 1_555
H26 C1 1_555 1_555
P1 F1 1_555 1_555
F2 P1 1_555 1_555
F3 P1 1_555 1_555
F4 P1 1_555 1_555
F5 P1 1_555 1_555
F6 P1 1_555 1_555
Ag1A O6 1_555 1_555
O6A Ag1 1_555 1_555
C15A Ag1 1_555 1_555
C4 O3 1_555 1_555
C6 O4 1_555 1_555
C8 O5 1_555 1_555
C9 C10 1_555 1_555
C15 Ag1A 1_555 1_555
C18 C19 1_555 1_555
C20 C21 1_555 1_555

#END
