
#######################################################################
#
#                 Cambridge Crystallographic Data Centre
#                                CCDC 
#
#######################################################################
#
# If this CIF has been generated from an entry in the Cambridge 
# Structural Database, then it will include bibliographic, chemical, 
# crystal, experimental, refinement or atomic coordinate data resulting 
# from the CCDC's data processing and validation procedures.
#
#######################################################################

data_RODXUE
_symmetry_cell_setting           triclinic
_symmetry_space_group_name_H-M   'P -1'
_symmetry_Int_Tables_number      2
_space_group_name_Hall           '-P 1'
loop_
_symmetry_equiv_pos_site_id
_symmetry_equiv_pos_as_xyz
1 x,y,z
2 -x,-y,-z
_cell_length_a                   8.410(3)
_cell_length_b                   15.581(5)
_cell_length_c                   16.816(5)
_cell_angle_alpha                93.762(4)
_cell_angle_beta                 90.110(4)
_cell_angle_gamma                97.572(5)
_cell_volume                     2179.46
loop_
_atom_site_label
_atom_site_type_symbol
_atom_site_fract_x
_atom_site_fract_y
_atom_site_fract_z
Ni1 Ni 0.22374(5) 0.63410(2) 0.27013(2)
Ni2 Ni -0.29783(5) 0.13422(3) 0.23620(2)
N1 N 0.4308(3) 0.58137(18) 0.23108(17)
N2 N 0.2387(3) 0.66731(17) 0.15730(15)
N3 N 0.0177(3) 0.69351(17) 0.25830(16)
N4 N 0.0978(4) 0.51428(19) 0.22881(18)
N5 N -0.1568(4) 0.24281(18) 0.19521(17)
N6 N 0.2572(6) 0.3427(3) 0.0496(3)
N7 N 0.2082(4) 0.59875(18) 0.38324(17)
N8 N 0.3241(7) 0.4149(3) 0.5555(2)
N9 N 0.0357(5) 0.6229(2) 0.6311(2)
N10 N 0.3504(3) 0.75359(18) 0.31275(16)
N11 N 0.6264(5) 0.9131(3) 0.5073(2)
N12 N 0.5724(4) 1.02474(18) 0.28128(17)
N13 N -0.0999(3) 0.06682(18) 0.22472(16)
N14 N -0.2013(3) 0.15562(17) 0.34463(16)
N15 N -0.4563(4) 0.21064(18) 0.29291(17)
N16 N -0.4106(4) 0.11062(19) 0.12874(17)
N17 N -0.8793(5) 0.1214(3) 0.0126(2)
N18 N -0.4516(5) 0.1226(3) -0.1334(2)
C1 C 0.5173(5) 0.5330(3) 0.2712(2)
H1 H 0.4905 0.5231 0.3238
C2 C 0.6450(6) 0.4966(4) 0.2383(3)
H2 H 0.7041 0.4636 0.2682
C3 C 0.6826(6) 0.5102(4) 0.1607(3)
H3 H 0.7675 0.4861 0.1367
C4 C 0.5941(5) 0.5597(3) 0.1187(3)
H4 H 0.6191 0.5700 0.0660
C5 C 0.4680(4) 0.5940(2) 0.1547(2)
C6 C 0.3607(4) 0.6445(2) 0.11328(19)
C7 C 0.3729(5) 0.6668(3) 0.0341(2)
H5 H 0.4571 0.6521 0.0024
C8 C 0.2584(5) 0.7108(3) 0.0042(2)
H6 H 0.2651 0.7259 -0.0484
C9 C 0.1326(4) 0.7333(2) 0.0506(2)
H7 H 0.0552 0.7637 0.0303
C10 C 0.1261(4) 0.7091(2) 0.1281(2)
C11 C -0.0013(4) 0.7247(2) 0.1860(2)
C12 C -0.1317(5) 0.7642(3) 0.1692(2)
H8 H -0.1433 0.7854 0.1194
C13 C -0.2460(5) 0.7723(3) 0.2268(3)
H9 H -0.3348 0.7997 0.2163
C14 C -0.2284(5) 0.7398(3) 0.2996(3)
H10 H -0.3050 0.7441 0.3389
C15 C -0.0952(5) 0.7010(2) 0.3127(2)
H11 H -0.0828 0.6788 0.3620
C16 C 0.0740(4) 0.4459(2) 0.1991(2)
C17 C 0.0544(4) 0.3643(2) 0.1586(2)
C18 C -0.0617(4) 0.2975(2) 0.17997(19)
C19 C 0.1645(6) 0.3509(3) 0.0985(3)
C20 C 0.2002(4) 0.5758(2) 0.4466(2)
C21 C 0.1934(5) 0.5477(2) 0.5238(2)
C22 C 0.2664(6) 0.4744(3) 0.5412(2)
C23 C 0.1061(5) 0.5892(2) 0.5829(2)
C24 C 0.4178(4) 0.8188(2) 0.33652(19)
C25 C 0.5722(5) 0.9050(2) 0.4446(2)
C26 C 0.5053(4) 0.8968(2) 0.3671(2)
C27 C 0.5407(4) 0.9663(2) 0.3185(2)
C28 C -0.0543(5) 0.0230(2) 0.1600(2)
H12 H -0.1154 0.0212 0.1136
C29 C 0.0777(5) -0.0195(3) 0.1583(3)
H13 H 0.1036 -0.0509 0.1123
C30 C 0.1719(5) -0.0152(3) 0.2259(3)
H14 H 0.2636 -0.0427 0.2260
C31 C 0.1276(5) 0.0309(3) 0.2938(3)
H15 H 0.1894 0.0351 0.3401
C32 C -0.0089(4) 0.0703(2) 0.2916(2)
C33 C -0.0706(4) 0.1198(2) 0.3613(2)
C34 C -0.0060(5) 0.1274(3) 0.4385(2)
H16 H 0.0863 0.1035 0.4501
C35 C -0.0845(6) 0.1716(3) 0.4966(2)
H17 H -0.0453 0.1773 0.5487
C36 C -0.2197(6) 0.2073(3) 0.4785(2)
H18 H -0.2723 0.2367 0.5182
C37 C -0.2783(4) 0.1993(2) 0.4000(2)
C38 C -0.4205(4) 0.2319(2) 0.3709(2)
C39 C -0.5167(5) 0.2792(3) 0.4179(3)
H19 H -0.4903 0.2950 0.4710
C40 C -0.6544(6) 0.3029(3) 0.3838(3)
H20 H -0.7222 0.3335 0.4148
C41 C -0.6899(6) 0.2817(3) 0.3061(3)
H21 H -0.7811 0.2976 0.2828
C42 C -0.5868(5) 0.2357(3) 0.2622(3)
H22 H -0.6100 0.2216 0.2084
C43 C -0.4866(4) 0.1105(2) 0.0723(2)
C44 C -0.5805(5) 0.1110(2) 0.0033(2)
C45 C -0.7439(5) 0.1160(3) 0.0093(2)
C46 C -0.5078(5) 0.1164(2) -0.0719(2)
Ni2_2 Ni 0.70217(5) 1.13422(3) 0.23620(2)
N12_2 N -0.4276(4) 0.02474(18) 0.28128(17)
loop_
_geom_bond_atom_site_label_1
_geom_bond_atom_site_label_2
_geom_bond_site_symmetry_1
_geom_bond_site_symmetry_2
Ni1 N1 1_555 1_555
Ni2 N5 1_555 1_555
N1 C1 1_555 1_555
N2 Ni1 1_555 1_555
N3 Ni1 1_555 1_555
N4 Ni1 1_555 1_555
N5 C18 1_555 1_555
N6 C19 1_555 1_555
N7 Ni1 1_555 1_555
N8 C22 1_555 1_555
N9 C23 1_555 1_555
N10 Ni1 1_555 1_555
N11 C25 1_555 1_555
N12 C27 1_555 1_555
N13 Ni2 1_555 1_555
N14 Ni2 1_555 1_555
N15 Ni2 1_555 1_555
N16 Ni2 1_555 1_555
N17 C45 1_555 1_555
N18 C46 1_555 1_555
C1 H1 1_555 1_555
C2 C1 1_555 1_555
H2 C2 1_555 1_555
C3 C2 1_555 1_555
H3 C3 1_555 1_555
C4 C3 1_555 1_555
H4 C4 1_555 1_555
C5 N1 1_555 1_555
C6 N2 1_555 1_555
C7 C6 1_555 1_555
H5 C7 1_555 1_555
C8 C7 1_555 1_555
H6 C8 1_555 1_555
C9 C8 1_555 1_555
H7 C9 1_555 1_555
C10 N2 1_555 1_555
C11 N3 1_555 1_555
C12 C11 1_555 1_555
H8 C12 1_555 1_555
C13 C12 1_555 1_555
H9 C13 1_555 1_555
C14 C13 1_555 1_555
H10 C14 1_555 1_555
C15 N3 1_555 1_555
H11 C15 1_555 1_555
C16 N4 1_555 1_555
C17 C16 1_555 1_555
C18 C17 1_555 1_555
C19 C17 1_555 1_555
C20 N7 1_555 1_555
C21 C20 1_555 1_555
C22 C21 1_555 1_555
C23 C21 1_555 1_555
C24 N10 1_555 1_555
C25 C26 1_555 1_555
C26 C24 1_555 1_555
C27 C26 1_555 1_555
C28 N13 1_555 1_555
H12 C28 1_555 1_555
C29 C28 1_555 1_555
H13 C29 1_555 1_555
C30 C29 1_555 1_555
H14 C30 1_555 1_555
C31 C30 1_555 1_555
H15 C31 1_555 1_555
C32 N13 1_555 1_555
C33 N14 1_555 1_555
C34 C33 1_555 1_555
H16 C34 1_555 1_555
C35 C34 1_555 1_555
H17 C35 1_555 1_555
C36 C35 1_555 1_555
H18 C36 1_555 1_555
C37 N14 1_555 1_555
C38 N15 1_555 1_555
C39 C38 1_555 1_555
H19 C39 1_555 1_555
C40 C39 1_555 1_555
H20 C40 1_555 1_555
C41 C40 1_555 1_555
H21 C41 1_555 1_555
C42 N15 1_555 1_555
H22 C42 1_555 1_555
C43 N16 1_555 1_555
C44 C43 1_555 1_555
C45 C44 1_555 1_555
C46 C44 1_555 1_555
Ni2_2 N12 1_555 1_555
N12_2 Ni2 1_555 1_555
C4 C5 1_555 1_555
C5 C6 1_555 1_555
C9 C10 1_555 1_555
C10 C11 1_555 1_555
C14 C15 1_555 1_555
C31 C32 1_555 1_555
C32 C33 1_555 1_555
C36 C37 1_555 1_555
C37 C38 1_555 1_555
C41 C42 1_555 1_555

#END
