
#######################################################################
#
#                 Cambridge Crystallographic Data Centre
#                                CCDC 
#
#######################################################################
#
# If this CIF has been generated from an entry in the Cambridge 
# Structural Database, then it will include bibliographic, chemical, 
# crystal, experimental, refinement or atomic coordinate data resulting 
# from the CCDC's data processing and validation procedures.
#
#######################################################################

data_RODYEP
_symmetry_cell_setting           triclinic
_symmetry_space_group_name_H-M   'P -1'
_symmetry_Int_Tables_number      2
_space_group_name_Hall           '-P 1'
loop_
_symmetry_equiv_pos_site_id
_symmetry_equiv_pos_as_xyz
1 x,y,z
2 -x,-y,-z
_cell_length_a                   5.7525(11)
_cell_length_b                   8.0180(15)
_cell_length_c                   12.212(2)
_cell_angle_alpha                107.609(3)
_cell_angle_beta                 90.095(2)
_cell_angle_gamma                91.950(3)
_cell_volume                     536.515
loop_
_atom_site_label
_atom_site_type_symbol
_atom_site_fract_x
_atom_site_fract_y
_atom_site_fract_z
C1 C -0.0042(5) 0.8697(4) 0.7162(2)
H1 H -0.1436 0.8065 0.7139
C2 C 0.1609(7) 0.7193(5) 0.3111(3)
H2 H 0.2549 0.7310 0.2518
C3 C 0.2948(5) 1.0298(4) 0.7697(2)
H3 H 0.4058 1.1035 0.8178
C4 C 0.5043(5) 1.2276(4) 1.0409(2)
C5 C 0.2157(6) 0.8143(4) 0.4239(2)
H4 H 0.3444 0.8913 0.4426
C6 C 0.0695(5) 0.7883(3) 0.5063(2)
C7 C -0.1629(6) 0.5969(4) 0.3779(2)
C8 C -0.0303(7) 0.6092(4) 0.2872(2)
H5 H -0.0696 0.5446 0.2121
Cd1 Cd 0.0000 1.0000 1.0000
Cl1 Cl -0.40595(17) 0.45711(12) 0.35184(8)
N1 N 0.1037(4) 0.9656(3) 0.81047(18)
N2 N 0.1161(4) 0.8768(3) 0.62460(17)
N3 N 0.3112(4) 0.9806(3) 0.65819(19)
N4 N -0.1181(4) 0.6839(3) 0.48723(18)
N5 N 0.3274(4) 1.1798(4) 1.0652(2)
S1 S 0.75769(13) 1.29435(10) 1.00393(6)
C1A C 0.0042(5) 1.1303(4) 1.2838(2)
H1A H 0.1436 1.1935 1.2861
C2A C -0.1609(7) 1.2807(5) 1.6889(3)
H2A H -0.2549 1.2690 1.7482
C3A C -0.2948(5) 0.9702(4) 1.2303(2)
H3A H -0.4058 0.8965 1.1822
C4A C -0.5043(5) 0.7724(4) 0.9591(2)
C5A C -0.2157(6) 1.1857(4) 1.5761(2)
H4A H -0.3444 1.1087 1.5574
C6A C -0.0695(5) 1.2117(3) 1.4937(2)
C7A C 0.1629(6) 1.4031(4) 1.6221(2)
C8A C 0.0303(7) 1.3908(4) 1.7128(2)
H5A H 0.0696 1.4554 1.7879
Cd1_2 Cd 1.0000 1.0000 1.0000
Cd1_3 Cd -1.0000 1.0000 1.0000
Cl1A Cl 0.40595(17) 1.54289(12) 1.64816(8)
N1A N -0.1037(4) 1.0344(3) 1.18953(18)
N2A N -0.1161(4) 1.1232(3) 1.37540(17)
N3A N -0.3112(4) 1.0194(3) 1.34181(19)
N4A N 0.1181(4) 1.3161(3) 1.51277(18)
N5A N -0.3274(4) 0.8202(4) 0.9348(2)
S1A S -0.75769(13) 0.70565(10) 0.99607(6)
S1_2 S -0.24231(13) 1.29435(10) 1.00393(6)
S1A_2 S 0.24231(13) 0.70565(10) 0.99607(6)
loop_
_geom_bond_atom_site_label_1
_geom_bond_atom_site_label_2
_geom_bond_site_symmetry_1
_geom_bond_site_symmetry_2
C1 H1 1_555 1_555
C2 H2 1_555 1_555
C3 H3 1_555 1_555
C4 N5 1_555 1_555
C5 C2 1_555 1_555
H4 C5 1_555 1_555
C6 C5 1_555 1_555
C7 C8 1_555 1_555
C8 C2 1_555 1_555
H5 C8 1_555 1_555
Cd1 N1 1_555 1_555
Cl1 C7 1_555 1_555
N1 C1 1_555 1_555
N2 C1 1_555 1_555
N3 C3 1_555 1_555
N4 C6 1_555 1_555
N5 Cd1 1_555 1_555
S1 C4 1_555 1_555
C1A H1A 1_555 1_555
C2A H2A 1_555 1_555
C3A H3A 1_555 1_555
C4A N5A 1_555 1_555
C5A C2A 1_555 1_555
H4A C5A 1_555 1_555
C6A C5A 1_555 1_555
C7A C8A 1_555 1_555
C8A C2A 1_555 1_555
H5A C8A 1_555 1_555
Cd1_2 S1 1_555 1_555
Cd1_3 S1A 1_555 1_555
Cl1A C7A 1_555 1_555
N1A Cd1 1_555 1_555
N2A C1A 1_555 1_555
N3A C3A 1_555 1_555
N4A C6A 1_555 1_555
N5A Cd1 1_555 1_555
S1A C4A 1_555 1_555
S1_2 Cd1 1_555 1_555
S1A_2 Cd1 1_555 1_555
C3 N1 1_555 1_555
C6 N2 1_555 1_555
C7 N4 1_555 1_555
N2 N3 1_555 1_555
C1A N1A 1_555 1_555
C3A N1A 1_555 1_555
C6A N2A 1_555 1_555
C7A N4A 1_555 1_555
N2A N3A 1_555 1_555

#END
