
#######################################################################
#
#                 Cambridge Crystallographic Data Centre
#                                CCDC 
#
#######################################################################
#
# If this CIF has been generated from an entry in the Cambridge 
# Structural Database, then it will include bibliographic, chemical, 
# crystal, experimental, refinement or atomic coordinate data resulting 
# from the CCDC's data processing and validation procedures.
#
#######################################################################

data_RODYAL
_symmetry_cell_setting           tetragonal
_symmetry_space_group_name_H-M   'P 41 21 2'
_symmetry_Int_Tables_number      92
_space_group_name_Hall           'P 4abw 2nw'
loop_
_symmetry_equiv_pos_site_id
_symmetry_equiv_pos_as_xyz
1 x,y,z
2 1/2-y,1/2+x,1/4+z
3 -x,-y,1/2+z
4 1/2+y,1/2-x,3/4+z
5 1/2+x,1/2-y,3/4-z
6 y,x,-z
7 1/2-x,1/2+y,1/4-z
8 -y,-x,1/2-z
_cell_length_a                   11.9338(3)
_cell_length_b                   11.9338(3)
_cell_length_c                   16.0532(10)
_cell_angle_alpha                90
_cell_angle_beta                 90
_cell_angle_gamma                90
_cell_volume                     2286.23
loop_
_atom_site_label
_atom_site_type_symbol
_atom_site_fract_x
_atom_site_fract_y
_atom_site_fract_z
C1 C 0.6137(6) 0.3863(6) 0.7500
C2 C 0.6218(7) 0.3118(6) 0.6838(5)
C3 C 0.7046(7) 0.2319(7) 0.6843(5)
C4 C 0.7809(7) 0.2191(7) 0.7500
C5 C 0.5357(7) 0.3173(8) 0.6152(6)
C6 C 0.4694(10) 0.1635(9) 0.4089(8)
H1 H 0.5308 0.1844 0.4410
C7 C 0.4795(12) 0.0725(11) 0.3565(8)
H2 H 0.5451 0.0305 0.3549
C8 C 0.3905(11) 0.0459(11) 0.3071(9)
H3 H 0.3965 -0.0087 0.2660
C9 C 0.2919(11) 0.1019(10) 0.3198(8)
H4 H 0.2264 0.0787 0.2937
C10 C 0.2919(10) 0.1900(10) 0.3703(8)
H5 H 0.2266 0.2322 0.3738
Hg1 Hg 0.37049(3) 0.37049(3) 0.5000
I1 I 0.72004(6) 0.12434(7) 0.58073(4)
I2 I 0.48846(5) 0.51154(5) 0.7500
N1 N 0.8605(6) 0.1395(6) 0.7500
H6 H 0.9060 0.1340 0.7914
H7 H 0.8660 0.0940 0.7086
N2 N 0.3772(8) 0.2212(7) 0.4151(5)
O1 O 0.4543(5) 0.2528(6) 0.6227(4)
O2 O 0.5496(5) 0.3874(6) 0.5577(4)
C2G C 0.6882(6) 0.3782(7) 0.8162(5)
C3G C 0.7681(7) 0.2954(7) 0.8157(5)
C5G C 0.6827(8) 0.4643(7) 0.8848(6)
C6E C 0.1635(9) 0.4694(10) 0.5911(8)
H1E H 0.1844 0.5308 0.5590
C7E C 0.0725(11) 0.4795(12) 0.6435(8)
H2E H 0.0305 0.5451 0.6451
C8E C 0.0459(11) 0.3905(11) 0.6929(9)
H3E H -0.0087 0.3965 0.7340
C9E C 0.1019(10) 0.2919(11) 0.6802(8)
H4E H 0.0787 0.2264 0.7063
C10E C 0.1900(10) 0.2919(10) 0.6297(8)
H5E H 0.2322 0.2266 0.6262
Hg1B Hg 0.62951(3) 0.62951(3) 1.0000
I1G I 0.87566(7) 0.27996(6) 0.91927(4)
N2E N 0.2212(7) 0.3772(8) 0.5849(5)
O1G O 0.7472(6) 0.5457(5) 0.8773(4)
O1E O 0.2528(6) 0.4543(5) 0.3773(4)
O2G O 0.6126(6) 0.4504(5) 0.9423(4)
O2E O 0.3874(6) 0.5496(5) 0.4423(4)
loop_
_geom_bond_atom_site_label_1
_geom_bond_atom_site_label_2
_geom_bond_site_symmetry_1
_geom_bond_site_symmetry_2
C1 C2 1_555 1_555
C2 C3 1_555 1_555
C3 C4 1_555 1_555
C4 N1 1_555 1_555
C5 C2 1_555 1_555
C6 H1 1_555 1_555
C7 C6 1_555 1_555
H2 C7 1_555 1_555
C8 C7 1_555 1_555
H3 C8 1_555 1_555
C9 C8 1_555 1_555
H4 C9 1_555 1_555
C10 C9 1_555 1_555
H5 C10 1_555 1_555
Hg1 N2 1_555 1_555
I1 C3 1_555 1_555
I2 C1 1_555 1_555
N1 H6 1_555 1_555
H7 N1 1_555 1_555
N2 C6 1_555 1_555
O1 C5 1_555 1_555
O2 C5 1_555 1_555
C2G C1 1_555 1_555
C3G C4 1_555 1_555
C5G C2G 1_555 1_555
C6E H1E 1_555 1_555
C7E C6E 1_555 1_555
H2E C7E 1_555 1_555
C8E C7E 1_555 1_555
H3E C8E 1_555 1_555
C9E C8E 1_555 1_555
H4E C9E 1_555 1_555
C10E C9E 1_555 1_555
H5E C10E 1_555 1_555
Hg1B O1G 1_555 1_555
I1G C3G 1_555 1_555
N2E Hg1 1_555 1_555
O1G C5G 1_555 1_555
O1E Hg1 1_555 1_555
O2G C5G 1_555 1_555
O2E Hg1 1_555 1_555
C10 N2 1_555 1_555
Hg1 O1 1_555 1_555
Hg1 O2 1_555 1_555
C2G C3G 1_555 1_555
C6E N2E 1_555 1_555
C10E N2E 1_555 1_555
Hg1B O2G 1_555 1_555

#END
