
#######################################################################
#
#                 Cambridge Crystallographic Data Centre
#                                CCDC 
#
#######################################################################
#
# If this CIF has been generated from an entry in the Cambridge 
# Structural Database, then it will include bibliographic, chemical, 
# crystal, experimental, refinement or atomic coordinate data resulting 
# from the CCDC's data processing and validation procedures.
#
#######################################################################

data_RODZAM01
_symmetry_cell_setting           monoclinic
_symmetry_space_group_name_H-M   'P 21/c'
_symmetry_Int_Tables_number      14
_space_group_name_Hall           '-P 2ybc'
loop_
_symmetry_equiv_pos_site_id
_symmetry_equiv_pos_as_xyz
1 x,y,z
2 -x,1/2+y,1/2-z
3 -x,-y,-z
4 x,1/2-y,1/2+z
_cell_length_a                   15.174(3)
_cell_length_b                   9.6650(19)
_cell_length_c                   13.183(3)
_cell_angle_alpha                90
_cell_angle_beta                 104.63(3)
_cell_angle_gamma                90
_cell_volume                     1870.69
loop_
_atom_site_label
_atom_site_type_symbol
_atom_site_fract_x
_atom_site_fract_y
_atom_site_fract_z
Co1 Co 0.26136(4) 0.30808(5) 0.53367(4)
O1 O 0.2699(2) 0.1668(3) 0.6419(2)
N1 N 0.0386(3) 0.3053(5) 0.2750(4)
C1 C -0.0178(5) 0.3839(7) 0.0953(5)
H1 H -0.0469 0.3539 0.0254
H2 H 0.0404 0.4237 0.0963
H3 H -0.0552 0.4518 0.1174
N2 N 0.1440(2) 0.3249(3) 0.4223(3)
O2 O 0.2455(2) 0.0313(3) 0.5018(2)
C2 C -0.0054(5) 0.2678(8) 0.1649(6)
H4 H 0.0318 0.1991 0.1415
H5 H -0.0642 0.2263 0.1617
N3 N 0.4528(2) 0.2000(4) 0.3686(3)
C3 C 0.1228(3) 0.2707(5) 0.3287(4)
H6 H 0.1616 0.2145 0.3024
O3 O 0.1949(2) -0.5482(3) 0.6821(3)
N4 N 0.3661(2) 0.2814(3) 0.4648(3)
C4 C 0.0695(4) 0.4016(6) 0.4269(5)
H7 H 0.0651 0.4550 0.4841
O4 O 0.2898(2) -0.4975(3) 0.5853(2)
C5 C 0.0032(4) 0.3894(7) 0.3373(5)
H8 H -0.0542 0.4298 0.3216
C6 C 0.5078(4) -0.0300(6) 0.3365(6)
H9 H 0.5275 -0.0854 0.2859
H10 H 0.4559 -0.0727 0.3529
H11 H 0.5563 -0.0226 0.3991
C7 C 0.4823(3) 0.1117(5) 0.2922(4)
H12 H 0.5342 0.1537 0.2738
H13 H 0.4333 0.1042 0.2289
C8 C 0.5036(3) 0.2923(5) 0.4353(4)
H14 H 0.5639 0.3162 0.4400
C9 C 0.4501(3) 0.3430(5) 0.4934(4)
H15 H 0.4674 0.4100 0.5452
C10 C 0.3710(3) 0.1963(4) 0.3889(3)
H16 H 0.3232 0.1402 0.3536
C11 C 0.2681(4) -0.1647(4) 0.8394(3)
H17 H 0.2741 -0.1501 0.9105
C12 C 0.2682(3) -0.0546(4) 0.7746(3)
H18 H 0.2733 0.0347 0.8018
C13 C 0.2608(3) -0.0744(4) 0.6689(3)
C14 C 0.2555(3) -0.2084(4) 0.6290(3)
H19 H 0.2528 -0.2226 0.5585
C15 C 0.2541(3) -0.3208(4) 0.6941(3)
C16 C 0.2593(3) -0.2984(4) 0.7997(3)
H20 H 0.2568 -0.3728 0.8436
C17 C 0.2589(3) 0.0479(4) 0.5977(3)
C18 C 0.2449(3) -0.4664(4) 0.6524(3)
Co1_2 Co 0.26136(4) -0.69192(5) 0.53367(4)
O4_2 O 0.2898(2) 0.5025(3) 0.5853(2)
loop_
_geom_bond_atom_site_label_1
_geom_bond_atom_site_label_2
_geom_bond_site_symmetry_1
_geom_bond_site_symmetry_2
Co1 O1 1_555 1_555
O1 C17 1_555 1_555
N1 C2 1_555 1_555
C1 H1 1_555 1_555
H2 C1 1_555 1_555
H3 C1 1_555 1_555
N2 Co1 1_555 1_555
O2 C17 1_555 1_555
C2 C1 1_555 1_555
H4 C2 1_555 1_555
H5 C2 1_555 1_555
N3 C7 1_555 1_555
C3 N1 1_555 1_555
H6 C3 1_555 1_555
O3 C18 1_555 1_555
N4 Co1 1_555 1_555
C4 N2 1_555 1_555
H7 C4 1_555 1_555
O4 C18 1_555 1_555
C5 N1 1_555 1_555
H8 C5 1_555 1_555
C6 H9 1_555 1_555
H10 C6 1_555 1_555
H11 C6 1_555 1_555
C7 C6 1_555 1_555
H12 C7 1_555 1_555
H13 C7 1_555 1_555
C8 N3 1_555 1_555
H14 C8 1_555 1_555
C9 N4 1_555 1_555
H15 C9 1_555 1_555
C10 N3 1_555 1_555
H16 C10 1_555 1_555
C11 H17 1_555 1_555
C12 C11 1_555 1_555
H18 C12 1_555 1_555
C13 C12 1_555 1_555
C14 C13 1_555 1_555
H19 C14 1_555 1_555
C15 C14 1_555 1_555
C16 C11 1_555 1_555
H20 C16 1_555 1_555
C17 C13 1_555 1_555
C18 C15 1_555 1_555
Co1_2 O4 1_555 1_555
O4_2 Co1 1_555 1_555
N2 C3 1_555 1_555
N4 C10 1_555 1_555
C4 C5 1_555 1_555
C8 C9 1_555 1_555
C15 C16 1_555 1_555

#END
