
#######################################################################
#
#                 Cambridge Crystallographic Data Centre
#                                CCDC 
#
#######################################################################
#
# If this CIF has been generated from an entry in the Cambridge 
# Structural Database, then it will include bibliographic, chemical, 
# crystal, experimental, refinement or atomic coordinate data resulting 
# from the CCDC's data processing and validation procedures.
#
#######################################################################

data_ROFFUP
_symmetry_cell_setting           monoclinic
_symmetry_space_group_name_H-M   'C 2/c'
_symmetry_Int_Tables_number      15
_space_group_name_Hall           '-C 2yn'
loop_
_symmetry_equiv_pos_site_id
_symmetry_equiv_pos_as_xyz
1 x,y,z
2 -x,y,1/2-z
3 1/2+x,1/2+y,z
4 1/2-x,1/2+y,1/2-z
5 -x,-y,-z
6 x,-y,1/2+z
7 1/2-x,1/2-y,-z
8 1/2+x,1/2-y,1/2+z
_cell_length_a                   24.705(3)
_cell_length_b                   10.3568(11)
_cell_length_c                   19.835(3)
_cell_angle_alpha                90
_cell_angle_beta                 127.393(5)
_cell_angle_gamma                90
_cell_volume                     4032.09
loop_
_atom_site_label
_atom_site_type_symbol
_atom_site_fract_x
_atom_site_fract_y
_atom_site_fract_z
O1 O 0.10997(13) 0.3788(2) 0.33994(16)
O2 O 0.11909(14) 0.3247(2) 0.23034(13)
C1 C 0.20056(16) 0.2143(4) 0.3750(2)
H1 H 0.2348 0.2822 0.3947
H2 H 0.2094 0.1438 0.3499
H3 H 0.2030 0.1813 0.4230
O3 O 0.07409(9) 0.16735(18) 0.27384(12)
Ag1 Ag 0.041199(10) 0.115176(19) 0.365300(12)
S1 S 0.11951(3) 0.27788(6) 0.29879(4)
C2 C 0.02719(12) -0.3181(2) 0.34838(15)
H4 H 0.0585 -0.3865 0.3645
O4 O -0.19284(8) -0.36645(16) 0.08264(10)
O5 O -0.35988(8) -0.40636(16) 0.13936(10)
C3 C -0.24147(11) -0.3759(2) 0.22661(13)
H5 H -0.2423 -0.4545 0.2553
C4 C -0.19579(11) -0.3907(2) 0.19773(13)
H6 H -0.1618 -0.4608 0.2321
C5 C -0.19164(10) -0.2688(2) 0.28979(13)
H7 H -0.2165 -0.1882 0.2841
N1 N -0.07931(10) -0.25319(18) 0.52819(11)
C6 C -0.14291(10) -0.3117(2) 0.38070(13)
C7 C -0.05999(11) -0.1183(2) 0.30236(14)
H8 H -0.0905 -0.0481 0.2856
N2 N 0.00624(10) -0.09152(18) 0.34230(12)
C8 C -0.31116(11) -0.3246(2) 0.15722(13)
C9 C -0.08637(10) -0.2426(2) 0.28415(12)
O6 O -0.32142(8) -0.22406(17) 0.12116(11)
O7 O -0.28067(9) -0.4762(2) 0.05936(11)
C10 C -0.04145(12) -0.3432(2) 0.30771(15)
H9 H -0.0575 -0.4297 0.2961
C11 C -0.22919(11) -0.4159(2) 0.10559(14)
C12 C -0.16170(10) -0.2596(2) 0.23845(12)
H10 H -0.1866 -0.1905 0.1945
C13 C -0.05510(12) -0.3738(2) 0.54948(15)
H11 H -0.0246 -0.3960 0.6079
C14 C -0.07270(13) -0.4666(2) 0.48987(15)
H12 H -0.0545 -0.5514 0.5072
C15 C -0.12233(11) -0.2238(2) 0.44518(13)
H13 H -0.1396 -0.1382 0.4297
C16 C -0.11693(12) -0.4361(2) 0.40467(14)
H14 H -0.1295 -0.4996 0.3629
C17 C -0.42832(12) -0.3651(3) 0.07184(17)
H15 H -0.4609 -0.4296 0.0636
H16 H -0.4331 -0.3557 0.0193
H17 H -0.4374 -0.2820 0.0868
C18 C -0.21284(15) -0.4064(3) 0.00061(16)
H18 H -0.1836 -0.3642 -0.0106
H19 H -0.2604 -0.3819 -0.0434
H20 H -0.2082 -0.5003 0.0002
C19 C 0.04865(11) -0.1914(2) 0.36477(14)
H21 H 0.0956 -0.1740 0.3933
O3A O -0.07409(9) 0.16735(18) 0.22616(12)
Ag1A Ag -0.041199(10) 0.115176(19) 0.134700(12)
Ag1D Ag -0.041199(10) -0.115176(19) 0.634700(12)
N1D N 0.07931(10) 0.25319(18) 0.47181(11)
loop_
_geom_bond_atom_site_label_1
_geom_bond_atom_site_label_2
_geom_bond_site_symmetry_1
_geom_bond_site_symmetry_2
O1 S1 1_555 1_555
O2 S1 1_555 1_555
C1 H1 1_555 1_555
H2 C1 1_555 1_555
H3 C1 1_555 1_555
O3 Ag1 1_555 1_555
Ag1 N2 1_555 1_555
S1 C1 1_555 1_555
C2 H4 1_555 1_555
O4 C11 1_555 1_555
O5 C8 1_555 1_555
C3 H5 1_555 1_555
C4 C3 1_555 1_555
H6 C4 1_555 1_555
C5 C3 1_555 1_555
H7 C5 1_555 1_555
N1 C13 1_555 1_555
C6 C5 1_555 1_555
C7 H8 1_555 1_555
N2 C7 1_555 1_555
C8 C3 1_555 1_555
C9 C7 1_555 1_555
O6 C8 1_555 1_555
O7 C11 1_555 1_555
C10 C2 1_555 1_555
H9 C10 1_555 1_555
C11 C4 1_555 1_555
C12 C4 1_555 1_555
H10 C12 1_555 1_555
C13 H11 1_555 1_555
C14 C13 1_555 1_555
H12 C14 1_555 1_555
C15 N1 1_555 1_555
H13 C15 1_555 1_555
C16 C6 1_555 1_555
H14 C16 1_555 1_555
C17 O5 1_555 1_555
H15 C17 1_555 1_555
H16 C17 1_555 1_555
H17 C17 1_555 1_555
C18 O4 1_555 1_555
H18 C18 1_555 1_555
H19 C18 1_555 1_555
H20 C18 1_555 1_555
C19 C2 1_555 1_555
H21 C19 1_555 1_555
O3A Ag1 1_555 1_555
Ag1A O3 1_555 1_555
Ag1D N1 1_555 1_555
N1D Ag1 1_555 1_555
O3 S1 1_555 1_555
C5 C12 1_555 1_555
C6 C15 1_555 1_555
N2 C19 1_555 1_555
C9 C10 1_555 1_555
C9 C12 1_555 1_555
C14 C16 1_555 1_555
O3A Ag1A 1_555 1_555

#END
