
#######################################################################
#
#                 Cambridge Crystallographic Data Centre
#                                CCDC 
#
#######################################################################
#
# If this CIF has been generated from an entry in the Cambridge 
# Structural Database, then it will include bibliographic, chemical, 
# crystal, experimental, refinement or atomic coordinate data resulting 
# from the CCDC's data processing and validation procedures.
#
#######################################################################

data_ROFGOK
_symmetry_cell_setting           triclinic
_symmetry_space_group_name_H-M   'P -1'
_symmetry_Int_Tables_number      2
_space_group_name_Hall           '-P 1'
loop_
_symmetry_equiv_pos_site_id
_symmetry_equiv_pos_as_xyz
1 x,y,z
2 -x,-y,-z
_cell_length_a                   7.3880(17)
_cell_length_b                   15.153(4)
_cell_length_c                   15.551(3)
_cell_angle_alpha                91.805(14)
_cell_angle_beta                 95.361(14)
_cell_angle_gamma                90.380(15)
_cell_volume                     1732.38
loop_
_atom_site_label
_atom_site_type_symbol
_atom_site_fract_x
_atom_site_fract_y
_atom_site_fract_z
Cd1 Cd 0.67089(8) 0.85319(4) 0.60839(3)
S1 S 0.5337(3) 1.28330(16) 0.98149(14)
O1 O 0.6661(8) 1.0097(4) 0.6447(3)
O2 O 0.5814(8) 0.9119(4) 0.7361(4)
O3 O 1.2305(8) 1.2718(5) 1.2860(4)
O4 O 1.0554(8) 1.1747(4) 1.3359(3)
O5 O 0.3550(8) 1.2722(5) 1.0094(4)
O6 O 0.5814(9) 1.3651(4) 0.9435(4)
N1 N 0.4296(9) 0.7699(5) 0.5613(4)
N2 N 0.7305(8) 0.8903(5) 0.4729(4)
C1 C 0.3789(10) 0.7014(5) 0.6056(5)
H1 H 0.4568 0.6839 0.6540
C2 C 0.2245(11) 0.6561(6) 0.5853(5)
H2 H 0.1918 0.6097 0.6207
C3 C 0.1117(10) 0.6769(6) 0.5124(5)
C4 C 0.1679(10) 0.7448(6) 0.4628(5)
H3 H 0.0995 0.7589 0.4103
C5 C 0.3225(10) 0.7911(6) 0.4906(5)
H4 H 0.3556 0.8402 0.4588
C6 C -0.0607(11) 0.6328(6) 0.4863(6)
H5 H -0.1077 0.6351 0.4275
C7 C -0.1577(12) 0.5889(6) 0.5404(6)
H6 H -0.1082 0.5866 0.5989
C8 C -0.3350(12) 0.5437(6) 0.5173(6)
C9 C -0.4352(11) 0.5563(6) 0.4410(6)
H7 H -0.3930 0.5948 0.4000
C10 C -0.4015(11) 0.4875(7) 0.5761(6)
H8 H -0.3318 0.4791 0.6296
C11 C 0.7310(11) 0.8322(7) 0.4056(5)
H9 H 0.6925 0.7731 0.4122
C12 C 0.7875(11) 0.8571(7) 0.3253(5)
H10 H 0.7858 0.8155 0.2782
C13 C 0.8448(11) 0.9427(7) 0.3164(6)
C14 C 0.8429(11) 1.0016(7) 0.3850(6)
H11 H 0.8802 1.0612 0.3799
C15 C 0.7861(11) 0.9731(6) 0.4615(5)
H12 H 0.7864 1.0144 0.5088
C16 C 0.9010(12) 0.9783(7) 0.2351(6)
H13 H 0.9399 1.0382 0.2379
C17 C 0.9034(11) 0.9390(7) 0.1633(6)
H14 H 0.8655 0.8789 0.1617
C18 C 0.9557(10) 0.9713(6) 0.0806(5)
C19 C 0.9288(12) 0.9166(6) 0.0077(5)
H15 H 0.8818 0.8586 0.0123
C20 C 1.0304(12) 1.0548(6) 0.0715(5)
H16 H 1.0538 1.0928 0.1211
C21 C 0.6190(10) 0.9908(6) 0.7173(5)
C22 C 0.6062(10) 1.0644(6) 0.7846(5)
C23 C 0.6405(12) 1.1489(6) 0.7655(5)
H17 H 0.6780 1.1622 0.7106
C24 C 0.6210(13) 1.2160(6) 0.8259(6)
H18 H 0.6411 1.2756 0.8118
C25 C 0.5723(10) 1.1967(6) 0.9067(5)
C26 C 0.5428(12) 1.1085(6) 0.9264(5)
H19 H 0.5111 1.0943 0.9822
C27 C 0.5591(11) 1.0442(6) 0.8668(5)
H20 H 0.5386 0.9845 0.8803
C28 C 1.0901(11) 1.2331(6) 1.2845(5)
C29 C 0.9454(10) 1.2466(6) 1.2093(5)
C30 C 0.7714(11) 1.2134(5) 1.2097(5)
H21 H 0.7404 1.1816 1.2580
C31 C 0.6423(11) 1.2251(6) 1.1423(5)
H22 H 0.5205 1.2057 1.1450
C32 C 0.6944(11) 1.2662(6) 1.0694(5)
C33 C 0.8695(11) 1.2987(6) 1.0655(5)
H23 H 0.9024 1.3267 1.0154
C34 C 0.9944(11) 1.2891(6) 1.1362(5)
H24 H 1.1145 1.3116 1.1353
N1A N -1.4296(9) 0.2301(5) 0.4387(4)
C1A C -1.3789(10) 0.2986(5) 0.3944(5)
H1A H -1.4568 0.3161 0.3460
C2A C -1.2245(11) 0.3439(6) 0.4147(5)
H2A H -1.1918 0.3903 0.3793
C3A C -1.1117(10) 0.3231(6) 0.4876(5)
C4A C -1.1679(10) 0.2552(6) 0.5372(5)
H3A H -1.0995 0.2411 0.5897
C5A C -1.3225(10) 0.2089(6) 0.5094(5)
H4A H -1.3556 0.1598 0.5412
C6A C -0.9393(11) 0.3672(6) 0.5137(6)
H5A H -0.8923 0.3649 0.5725
C7A C -0.8423(12) 0.4111(6) 0.4596(6)
H6A H -0.8918 0.4134 0.4011
C8A C -0.6650(12) 0.4563(6) 0.4827(6)
C9A C -0.5648(11) 0.4437(6) 0.5590(6)
H7A H -0.6070 0.4052 0.6000
C10A C -0.5985(11) 0.5125(7) 0.4239(6)
H8A H -0.6682 0.5209 0.3704
N2A N 1.2695(8) 1.1097(5) -0.4729(4)
C11A C 1.2690(11) 1.1678(7) -0.4056(5)
H9A H 1.3075 1.2269 -0.4122
C12A C 1.2125(11) 1.1429(7) -0.3253(5)
H10A H 1.2142 1.1845 -0.2782
C13A C 1.1552(11) 1.0573(7) -0.3164(6)
C14A C 1.1571(11) 0.9984(7) -0.3850(6)
H11A H 1.1198 0.9388 -0.3799
C15A C 1.2139(11) 1.0269(6) -0.4615(5)
H12A H 1.2136 0.9856 -0.5088
C16A C 1.0990(12) 1.0217(7) -0.2351(6)
H13A H 1.0601 0.9618 -0.2379
C17A C 1.0966(11) 1.0610(7) -0.1633(6)
H14A H 1.1345 1.1211 -0.1617
C18A C 1.0443(10) 1.0287(6) -0.0806(5)
C19A C 1.0712(12) 1.0834(6) -0.0077(5)
H15A H 1.1182 1.1414 -0.0123
C20A C 0.9696(12) 0.9452(6) -0.0715(5)
H16A H 0.9462 0.9072 -0.1211
Cd1A Cd -1.67089(8) 0.14681(4) 0.39161(3)
S1A S -1.5337(3) -0.28330(16) 0.01851(14)
O1A O -1.6661(8) -0.0097(4) 0.3553(3)
O2A O -1.5814(8) 0.0881(4) 0.2639(4)
O3A O -2.2305(8) -0.2718(5) -0.2860(4)
O4A O -2.0554(8) -0.1747(4) -0.3359(3)
O5A O -1.3550(8) -0.2722(5) -0.0094(4)
O6A O -1.5814(9) -0.3651(4) 0.0565(4)
C21A C -1.6190(10) 0.0092(6) 0.2827(5)
C22A C -1.6062(10) -0.0644(6) 0.2154(5)
C23A C -1.6405(12) -0.1489(6) 0.2345(5)
H17A H -1.6780 -0.1622 0.2894
C24A C -1.6210(13) -0.2160(6) 0.1741(6)
H18A H -1.6411 -0.2756 0.1882
C25A C -1.5723(10) -0.1967(6) 0.0933(5)
C26A C -1.5428(12) -0.1085(6) 0.0736(5)
H19A H -1.5111 -0.0943 0.0178
C27A C -1.5591(11) -0.0442(6) 0.1332(5)
H20A H -1.5386 0.0155 0.1197
C28A C -2.0901(11) -0.2331(6) -0.2845(5)
C29A C -1.9454(10) -0.2466(6) -0.2093(5)
C30A C -1.7714(11) -0.2134(5) -0.2097(5)
H21A H -1.7404 -0.1816 -0.2580
C31A C -1.6423(11) -0.2251(6) -0.1423(5)
H22A H -1.5205 -0.2057 -0.1450
C32A C -1.6944(11) -0.2662(6) -0.0694(5)
C33A C -1.8695(11) -0.2987(6) -0.0655(5)
H23A H -1.9024 -0.3267 -0.0154
C34A C -1.9944(11) -0.2891(6) -0.1362(5)
H24A H -2.1145 -0.3116 -0.1353
Cd1_2 Cd -2.32911(8) -0.14681(4) -0.39161(3)
Cd1A_2 Cd 1.32911(8) 1.14681(4) -0.60839(3)
Cd1A_3 Cd 1.32911(8) 1.14681(4) 1.39161(3)
O3_2 O -1.7695(8) 0.2718(5) 0.2860(4)
O3A_2 O 0.7695(8) 0.7282(5) 0.7140(4)
O4_2 O -1.9446(8) 0.1747(4) 0.3359(3)
O4A_2 O 0.9446(8) 0.8253(4) 0.6641(3)
N2A_2 N -1.7305(8) 0.1097(5) 0.5271(4)
O7 O 1.2559(14) 1.3583(7) 0.7249(6)
N3 N 1.2317(16) 1.4603(7) 0.8343(7)
C35 C 1.3942(16) 1.5095(8) 0.8075(8)
H25 H 1.4562 1.4724 0.7669
H26 H 1.4781 1.5241 0.8587
H27 H 1.3539 1.5640 0.7797
C36 C 1.1729(17) 1.4753(9) 0.9246(7)
H28 H 1.0410 1.4836 0.9210
H29 H 1.2342 1.5281 0.9516
H30 H 1.2056 1.4240 0.9594
C37 C 1.1679(19) 1.3764(8) 0.7841(8)
C38 C 1.0219(19) 1.3219(9) 0.8235(9)
H31 H 0.9569 1.2841 0.7782
H32 H 0.9358 1.3618 0.8487
H33 H 1.0800 1.2850 0.8686
loop_
_geom_bond_atom_site_label_1
_geom_bond_atom_site_label_2
_geom_bond_site_symmetry_1
_geom_bond_site_symmetry_2
Cd1 O1 1_555 1_555
S1 O5 1_555 1_555
O1 C21 1_555 1_555
O2 Cd1 1_555 1_555
O3 C28 1_555 1_555
O4 C28 1_555 1_555
O6 S1 1_555 1_555
N1 Cd1 1_555 1_555
N2 Cd1 1_555 1_555
C1 N1 1_555 1_555
H1 C1 1_555 1_555
C2 C1 1_555 1_555
H2 C2 1_555 1_555
C3 C2 1_555 1_555
C4 C3 1_555 1_555
H3 C4 1_555 1_555
C5 N1 1_555 1_555
H4 C5 1_555 1_555
C6 C3 1_555 1_555
H5 C6 1_555 1_555
C7 C6 1_555 1_555
H6 C7 1_555 1_555
C8 C7 1_555 1_555
C9 C8 1_555 1_555
H7 C9 1_555 1_555
C10 C8 1_555 1_555
H8 C10 1_555 1_555
C11 N2 1_555 1_555
H9 C11 1_555 1_555
C12 C11 1_555 1_555
H10 C12 1_555 1_555
C13 C12 1_555 1_555
C14 C13 1_555 1_555
H11 C14 1_555 1_555
C15 N2 1_555 1_555
H12 C15 1_555 1_555
C16 C13 1_555 1_555
H13 C16 1_555 1_555
C17 C16 1_555 1_555
H14 C17 1_555 1_555
C18 C17 1_555 1_555
C19 C18 1_555 1_555
H15 C19 1_555 1_555
C20 C18 1_555 1_555
H16 C20 1_555 1_555
C21 O2 1_555 1_555
C22 C21 1_555 1_555
C23 C22 1_555 1_555
H17 C23 1_555 1_555
C24 C23 1_555 1_555
H18 C24 1_555 1_555
C25 S1 1_555 1_555
C26 C25 1_555 1_555
H19 C26 1_555 1_555
C27 C22 1_555 1_555
H20 C27 1_555 1_555
C28 C29 1_555 1_555
C29 C30 1_555 1_555
C30 H21 1_555 1_555
C31 C30 1_555 1_555
H22 C31 1_555 1_555
C32 S1 1_555 1_555
C33 C32 1_555 1_555
H23 C33 1_555 1_555
C34 C29 1_555 1_555
H24 C34 1_555 1_555
O7 C37 1_555 1_555
N3 C35 1_555 1_555
C35 H25 1_555 1_555
H26 C35 1_555 1_555
H27 C35 1_555 1_555
C36 N3 1_555 1_555
H28 C36 1_555 1_555
H29 C36 1_555 1_555
H30 C36 1_555 1_555
C37 N3 1_555 1_555
C38 C37 1_555 1_555
H31 C38 1_555 1_555
H32 C38 1_555 1_555
H33 C38 1_555 1_555
N1A C1A 1_555 1_555
C1A H1A 1_555 1_555
C2A C1A 1_555 1_555
H2A C2A 1_555 1_555
C3A C2A 1_555 1_555
C4A C3A 1_555 1_555
H3A C4A 1_555 1_555
C5A N1A 1_555 1_555
H4A C5A 1_555 1_555
C6A C3A 1_555 1_555
H5A C6A 1_555 1_555
C7A C6A 1_555 1_555
H6A C7A 1_555 1_555
C8A C7A 1_555 1_555
C9A C10 1_555 1_555
H7A C9A 1_555 1_555
C10A C9 1_555 1_555
H8A C10A 1_555 1_555
N2A C11A 1_555 1_555
C11A H9A 1_555 1_555
C12A C11A 1_555 1_555
H10A C12A 1_555 1_555
C13A C12A 1_555 1_555
C14A C13A 1_555 1_555
H11A C14A 1_555 1_555
C15A N2A 1_555 1_555
H12A C15A 1_555 1_555
C16A C13A 1_555 1_555
H13A C16A 1_555 1_555
C17A C16A 1_555 1_555
H14A C17A 1_555 1_555
C18A C17A 1_555 1_555
C19A C20 1_555 1_555
H15A C19A 1_555 1_555
C20A C19 1_555 1_555
H16A C20A 1_555 1_555
Cd1A N1A 1_555 1_555
S1A O5A 1_555 1_555
O1A Cd1A 1_555 1_555
O2A Cd1A 1_555 1_555
O3A C28A 1_555 1_555
O4A C28A 1_555 1_555
O6A S1A 1_555 1_555
C21A O1A 1_555 1_555
C22A C21A 1_555 1_555
C23A C22A 1_555 1_555
H17A C23A 1_555 1_555
C24A C23A 1_555 1_555
H18A C24A 1_555 1_555
C25A S1A 1_555 1_555
C26A C25A 1_555 1_555
H19A C26A 1_555 1_555
C27A C22A 1_555 1_555
H20A C27A 1_555 1_555
C28A C29A 1_555 1_555
C29A C30A 1_555 1_555
C30A H21A 1_555 1_555
C31A C30A 1_555 1_555
H22A C31A 1_555 1_555
C32A S1A 1_555 1_555
C33A C32A 1_555 1_555
H23A C33A 1_555 1_555
C34A C29A 1_555 1_555
H24A C34A 1_555 1_555
Cd1_2 O3A 1_555 1_555
Cd1A_2 N2A 1_555 1_555
Cd1A_3 O3 1_555 1_555
O3_2 Cd1A 1_555 1_555
O3A_2 Cd1 1_555 1_555
O4_2 Cd1A 1_555 1_555
O4A_2 Cd1 1_555 1_555
N2A_2 Cd1A 1_555 1_555
O4 Cd1A_3 1_555 1_555
C4 C5 1_555 1_555
C14 C15 1_555 1_555
C24 C25 1_555 1_555
C26 C27 1_555 1_555
C31 C32 1_555 1_555
C33 C34 1_555 1_555
C4A C5A 1_555 1_555
C8A C9A 1_555 1_555
C8A C10A 1_555 1_555
C14A C15A 1_555 1_555
C18A C19A 1_555 1_555
C18A C20A 1_555 1_555
O2A C21A 1_555 1_555
O4A Cd1_2 1_555 1_555
C24A C25A 1_555 1_555
C26A C27A 1_555 1_555
C31A C32A 1_555 1_555
C33A C34A 1_555 1_555

#END
