
#######################################################################
#
#                 Cambridge Crystallographic Data Centre
#                                CCDC 
#
#######################################################################
#
# If this CIF has been generated from an entry in the Cambridge 
# Structural Database, then it will include bibliographic, chemical, 
# crystal, experimental, refinement or atomic coordinate data resulting 
# from the CCDC's data processing and validation procedures.
#
#######################################################################

data_ROFJED
_symmetry_cell_setting           monoclinic
_symmetry_space_group_name_H-M   'P 21/c'
_symmetry_Int_Tables_number      14
_space_group_name_Hall           '-P 2ybc'
loop_
_symmetry_equiv_pos_site_id
_symmetry_equiv_pos_as_xyz
1 x,y,z
2 -x,1/2+y,1/2-z
3 -x,-y,-z
4 x,1/2-y,1/2+z
_cell_length_a                   13.5730(8)
_cell_length_b                   7.6598(5)
_cell_length_c                   16.0683(10)
_cell_angle_alpha                90
_cell_angle_beta                 98.4500(10)
_cell_angle_gamma                90
_cell_volume                     1652.43
loop_
_atom_site_label
_atom_site_type_symbol
_atom_site_fract_x
_atom_site_fract_y
_atom_site_fract_z
Cd1 Cd -0.00682(2) 0.13960(4) 0.26034(2)
Cd2 Cd 0.50568(2) -0.10650(4) 0.249600(18)
Cl1 Cl -0.11017(8) 0.16167(14) 0.38084(7)
Cl2 Cl -0.11196(8) -0.10741(13) 0.17477(7)
Cl3 Cl 0.10452(8) -0.11760(13) 0.33403(7)
Cl4 Cl 0.56135(9) 0.14420(14) 0.35953(7)
N1 N 0.1002(2) 0.1029(5) 0.1508(2)
H1 H 0.0877 -0.0031 0.1274
H2 H 0.0816 0.1826 0.1103
N2 N 0.2047(2) 0.1179(4) 0.1752(2)
N3 N 0.3511(2) 0.2297(4) 0.2130(2)
N4 N 0.3584(2) 0.0499(4) 0.2170(2)
N5 N 0.4248(3) -0.2649(5) 0.3456(2)
N6 N 0.4225(3) -0.4447(5) 0.3481(2)
N7 N 0.3295(3) -0.3437(5) 0.4355(2)
N8 N 0.2613(4) -0.3428(7) 0.4941(3)
H3 H 0.280(4) -0.289(7) 0.535(4)
H4 H 0.200(4) -0.289(7) 0.474(3)
C1 C 0.2574(3) 0.2665(5) 0.1877(3)
H5 H 0.2312 0.3785 0.1797
C2 C 0.2691(3) -0.0127(6) 0.1949(3)
H6 H 0.2528 -0.1307 0.1931
C3 C 0.3687(3) -0.2077(6) 0.3985(3)
H7 H 0.3573 -0.0907 0.4092
C4 C 0.3645(3) -0.4892(6) 0.4028(3)
H8 H 0.3497 -0.6030 0.4169
Cd1A Cd 0.00682(2) -0.36040(4) 0.23966(2)
Cd2A Cd 0.49432(2) -0.60650(4) 0.250400(18)
Cd2A_2 Cd 0.49432(2) 0.39350(4) 0.250400(18)
Cl2A Cl 0.11196(8) 0.39259(13) 0.32523(7)
Cl3A Cl -0.10452(8) 0.38240(13) 0.16597(7)
Cl4A Cl 0.43865(9) -0.35580(14) 0.14047(7)
N3A N 0.6489(2) -0.2703(4) 0.2870(2)
N6A N 0.5775(3) 0.0553(5) 0.1519(2)
O1 O -0.1164(4) -0.1828(7) 0.4918(3)
H9 H -0.116(4) -0.073(8) 0.480(3)
H10 H -0.061(4) -0.277(7) 0.513(3)
O2 O 0.3223(6) 0.1475(7) 0.4868(5)
H11 H 0.295(4) 0.162(7) 0.424(4)
H12 H 0.266(4) 0.162(8) 0.502(4)
loop_
_geom_bond_atom_site_label_1
_geom_bond_atom_site_label_2
_geom_bond_site_symmetry_1
_geom_bond_site_symmetry_2
Cd1 Cl1 1_555 1_555
Cd2 Cl4 1_555 1_555
Cl2 Cd1 1_555 1_555
Cl3 Cd1 1_555 1_555
Cl4 Cd2A_2 1_555 1_555
N1 Cd1 1_555 1_555
H1 N1 1_555 1_555
H2 N1 1_555 1_555
N2 N1 1_555 1_555
N3 N4 1_555 1_555
N4 Cd2 1_555 1_555
N5 Cd2 1_555 1_555
N6 N5 1_555 1_555
N7 N8 1_555 1_555
N8 H3 1_555 1_555
H4 N8 1_555 1_555
C1 N2 1_555 1_555
H5 C1 1_555 1_555
C2 N2 1_555 1_555
H6 C2 1_555 1_555
C3 N5 1_555 1_555
H7 C3 1_555 1_555
C4 N6 1_555 1_555
H8 C4 1_555 1_555
O1 H9 1_555 1_555
H10 O1 1_555 1_555
O2 H11 1_555 1_555
H12 O2 1_555 1_555
Cd1A Cl2 1_555 1_555
Cd2A N6 1_555 1_555
Cd2A_2 N3 1_555 1_555
Cl2A Cd1 1_555 1_555
Cl3A Cd1 1_555 1_555
Cl4A Cd2 1_555 1_555
N3A Cd2 1_555 1_555
N6A Cd2 1_555 1_555
Cl3 Cd1A 1_555 1_555
N3 C1 1_555 1_555
N4 C2 1_555 1_555
N7 C3 1_555 1_555
N7 C4 1_555 1_555
Cd2A Cl4A 1_555 1_555

#END
