
#######################################################################
#
#                 Cambridge Crystallographic Data Centre
#                                CCDC 
#
#######################################################################
#
# If this CIF has been generated from an entry in the Cambridge 
# Structural Database, then it will include bibliographic, chemical, 
# crystal, experimental, refinement or atomic coordinate data resulting 
# from the CCDC's data processing and validation procedures.
#
#######################################################################

data_ROFNUX
_symmetry_cell_setting           monoclinic
_symmetry_space_group_name_H-M   'P 21/c'
_symmetry_Int_Tables_number      14
_space_group_name_Hall           '-P 2ybc'
loop_
_symmetry_equiv_pos_site_id
_symmetry_equiv_pos_as_xyz
1 x,y,z
2 -x,1/2+y,1/2-z
3 -x,-y,-z
4 x,1/2-y,1/2+z
_cell_length_a                   11.1141(7)
_cell_length_b                   13.9546(9)
_cell_length_c                   7.3129(5)
_cell_angle_alpha                90
_cell_angle_beta                 101.3850(10)
_cell_angle_gamma                90
_cell_volume                     1111.86
loop_
_atom_site_label
_atom_site_type_symbol
_atom_site_fract_x
_atom_site_fract_y
_atom_site_fract_z
Cu1 Cu 0.830886(19) 0.746138(15) 0.13535(3)
Cl1 Cl 0.82786(4) 0.60292(4) -0.11509(6)
N1 N 0.96072(14) 0.68615(11) 0.3323(2)
N2 N 0.95849(14) 0.68587(11) 0.5195(2)
N3 N 1.10297(14) 0.59073(11) 0.4722(2)
N4 N 1.19724(17) 0.52165(14) 0.5099(3)
H1 H 1.264(3) 0.555(2) 0.547(4)
H2 H 1.197(3) 0.495(2) 0.408(4)
N5 N 0.69741(14) 0.80599(11) -0.0579(2)
N6 N 0.70385(14) 0.81606(11) -0.2427(2)
N7 N 0.54295(14) 0.89111(12) -0.1942(2)
N8 N 0.43451(18) 0.94613(17) -0.2162(3)
H3 H 0.386(3) 0.918(2) -0.287(4)
H4 H 0.452(3) 1.002(2) -0.267(4)
C1 C 1.04929(17) 0.62871(14) 0.3072(3)
H5 H 1.0715 0.6162 0.1934
C2 C 1.04415(17) 0.62717(13) 0.6004(2)
H6 H 1.0617 0.6128 0.7271
C3 C 0.59920(17) 0.85127(13) -0.0323(3)
H7 H 0.5724 0.8553 0.0802
C4 C 0.61079(18) 0.86758(14) -0.3223(3)
H8 H 0.5935 0.8854 -0.4473
Cu1C Cu 0.830886(19) 0.753862(15) -0.36465(3)
Cu1C_2 Cu 0.830886(19) 0.753862(15) 0.63535(3)
Cl1C Cl 0.82786(4) 0.89708(4) 0.38491(6)
N2C N 0.95849(14) 0.81413(11) 0.0195(2)
N6C N 0.70385(14) 0.68394(11) 0.2573(2)
Cl2 Cl 0.40765(5) 0.64695(5) -0.22218(8)
O1 O 0.2321(2) 0.81003(18) -0.4480(3)
H9 H 0.284(4) 0.758(2) -0.384(6)
H10 H 0.266(4) 0.828(3) -0.555(5)
loop_
_geom_bond_atom_site_label_1
_geom_bond_atom_site_label_2
_geom_bond_site_symmetry_1
_geom_bond_site_symmetry_2
Cu1 Cl1 1_555 1_555
Cl1 Cu1C 1_555 1_555
N1 Cu1 1_555 1_555
N2 N1 1_555 1_555
N3 N4 1_555 1_555
N4 H1 1_555 1_555
H2 N4 1_555 1_555
N5 Cu1 1_555 1_555
N6 N5 1_555 1_555
N7 N8 1_555 1_555
N8 H3 1_555 1_555
H4 N8 1_555 1_555
C1 N1 1_555 1_555
H5 C1 1_555 1_555
C2 N2 1_555 1_555
H6 C2 1_555 1_555
C3 N5 1_555 1_555
H7 C3 1_555 1_555
C4 N6 1_555 1_555
H8 C4 1_555 1_555
O1 H9 1_555 1_555
H10 O1 1_555 1_555
Cu1C N6 1_555 1_555
Cu1C_2 N2 1_555 1_555
Cl1C Cu1 1_555 1_555
N2C Cu1 1_555 1_555
N6C Cu1 1_555 1_555
N3 C1 1_555 1_555
N3 C2 1_555 1_555
N7 C3 1_555 1_555
N7 C4 1_555 1_555
Cu1C_2 Cl1C 1_555 1_555

#END
