
#######################################################################
#
#                 Cambridge Crystallographic Data Centre
#                                CCDC 
#
#######################################################################
#
# If this CIF has been generated from an entry in the Cambridge 
# Structural Database, then it will include bibliographic, chemical, 
# crystal, experimental, refinement or atomic coordinate data resulting 
# from the CCDC's data processing and validation procedures.
#
#######################################################################

data_ROFNAB
_symmetry_cell_setting           triclinic
_symmetry_space_group_name_H-M   'P 1'
_symmetry_Int_Tables_number      1
_space_group_name_Hall           'P 1'
loop_
_symmetry_equiv_pos_site_id
_symmetry_equiv_pos_as_xyz
1 x,y,z
_cell_length_a                   13.300(3)
_cell_length_b                   13.667(4)
_cell_length_c                   7.551(1)
_cell_angle_alpha                90.44(2)
_cell_angle_beta                 94.51(2)
_cell_angle_gamma                97.36(2)
_cell_volume                     1356.81
loop_
_atom_site_label
_atom_site_type_symbol
_atom_site_fract_x
_atom_site_fract_y
_atom_site_fract_z
V1 V 0.8407 0.8855 0.7115
V2 V 0.8510(1) 0.8637(1) 1.2127(3)
O1 O 0.8290(5) 0.8667(5) 0.9216(6)
O2 O 0.8641(4) 0.8824(5) 0.4280(7)
O3 O 0.7190(5) 0.9440(5) 0.6370(8)
O4 O 0.9731(5) 0.8062(5) 1.1712(8)
O5 O 0.9266(5) 1.0122(5) 0.7120(1)
O6 O 0.7640(5) 0.7366(5) 1.1866(9)
N1 N 0.7712(5) 0.7477(5) 0.6299(9)
N2 N 0.9209(5) 1.0013(5) 1.1536(8)
N3 N 0.9659(6) 0.8135(6) 0.711(1)
N4 N 0.7248(7) 0.9379(6) 1.175(1)
C1 C 0.6267(7) 0.8983(7) 0.606(1)
C2 C 1.06530(7) 0.84908(8) 1.166(1)
C3 C 0.5459(8) 0.9559(8) 0.588(1)
C4 C 1.1450(8) 0.7943(8) 1.162(1)
C5 C 0.4459(8) 0.913(1) 0.559(2)
C6 C 1.243(1) 0.832(1) 1.154(2)
C7 C 0.4199(8) 0.810(1) 0.534(2)
C8 C 1.2665(9) 0.932(1) 1.146(2)
C9 C 0.4964(8) 0.7525(9) 0.546(2)
C10 C 1.191(1) 0.9920(9) 1.142(1)
C11 C 0.6003(7) 0.7939(7) 0.584(1)
C12 C 1.0892(7) 0.9535(8) 1.154(1)
C13 C 0.6740(8) 0.7273(7) 0.586(1)
C14 C 1.0164(8) 1.0217(7) 1.138(1)
C15 C 1.0257(7) 1.0303(7) 0.696(1)
C16 C 0.6672(8) 0.7208(7) 1.143(1)
C17 C 1.0688(9) 1.1287(8) 0.699(1)
C18 C 0.6210(8) 0.6209(8) 1.128(1)
C19 C 1.1730(1) 1.1542(8) 0.686(2)
C20 C 0.5176(9) 0.5977(9) 1.073(2)
C21 C 1.235(1) 1.085(1) 0.678(2)
C22 C 0.4593(9) 0.667(1) 1.029(2)
C23 C 1.1937(8) 0.987(1) 0.674(2)
C24 C 0.5009(8) 0.7662(9) 1.045(2)
C25 C 1.0884(8) 0.9587(7) 0.688(1)
C26 C 0.6018(7) 0.7942(7) 1.103(1)
C27 C 1.0561(8) 0.8521(8) 0.699(1)
C28 C 0.6310(8) 0.8982(8) 1.129(1)
C29 C 0.8416(6) 0.6739(6) 0.603(1)
C30 C 0.8507(6) 1.0740(6) 1.112(1)
C31 C 0.7981(7) 0.5681(7) 0.633(1)
C32 C 0.8955(8) 1.1815(8) 1.152(1)
C33 C 0.765(1) 0.5389(8) 0.797(2)
C34 C 0.9008(9) 1.2497(9) 1.018(2)
C35 C 0.726(1) 0.439(1) 0.818(2)
C36 C 0.937(1) 1.346(1) 1.058(3)
C37 C 0.724(1) 0.371(1) 0.682(3)
C38 C 0.974(1) 1.372(1) 1.231(3)
C39 C 0.759(1) 0.400(1) 0.523(2)
C40 C 0.968(1) 1.307(1) 1.364(2)
C41 C 0.7930(9) 0.4994(9) 0.498(2)
C42 C 0.929(1) 1.2139(9) 1.323(2)
C43 C 0.9397(8) 0.7045(8) 0.731(1)
C44 C 0.7535(8) 1.0447(8) 1.207(1)
C45 C 1.0229(8) 0.6407(8) 0.692(1)
C46 C 0.6693(8) 1.1079(8) 1.154(1)
C47 C 1.0614(8) 0.6395(8) 0.532(1)
C48 C 0.6338(8) 1.1153(9) 0.975(1)
C49 C 1.137(1) 0.583(1) 0.501(2)
C50 C 0.556(1) 1.173(1) 0.930(2)
C51 C 1.170(1) 0.528(1) 0.637(3)
C52 C 0.518(1) 1.2210(1) 1.070(3)
C53 C 1.134(1) 0.530(1) 0.802(3)
C54 C 0.555(2) 1.218(1) 1.240(3)
C55 C 1.0605(9) 0.5870(9) 0.830(2)
C56 C 0.630(1) 1.1592(8) 1.282(2)
H1 H 0.5626 1.0280 0.6057
H2 H 1.1268 0.7199 1.1616
H3 H 0.3898 0.9581 0.5424
H4 H 1.2959 0.7890 1.1501
H5 H 0.3478 0.7847 0.5091
H6 H 1.3384 0.9638 1.1405
H7 H 0.4798 0.6801 0.5383
H8 H 1.2088 1.0635 1.1370
H9 H 0.6492 0.6580 0.5481
H10 H 1.0429 1.0914 1.1133
H11 H 1.0255 1.1835 0.7052
H12 H 0.6623 0.5666 1.1616
H13 H 1.2019 1.2234 0.6833
H14 H 0.4851 0.5273 1.0661
H15 H 1.3092 1.1049 0.6772
H16 H 0.3873 0.6488 0.9827
H17 H 1.2385 0.9350 0.6543
H18 H 0.4551 0.8160 1.0108
H19 H 1.1083 0.8076 0.6975
H20 H 0.5779 0.9416 1.1145
H21 H 0.8646 0.6794 0.4841
H22 H 0.8286 1.0686 0.9849
H23 H 0.7657 0.5876 0.8968
H24 H 0.8775 1.2277 0.8949
H25 H 0.6993 0.4158 0.9320
H26 H 0.9368 1.3964 0.9645
H27 H 0.6999 0.3032 0.6967
H28 H 1.0039 1.4425 1.2474
H29 H 0.7516 0.3500 0.4242
H30 H 0.9940 1.3302 1.4844
H31 H 0.8211 0.5219 0.3810
H32 H 0.9229 1.1643 1.4190
H33 H 0.9201 0.6919 0.8563
H34 H 0.7731 1.0554 1.3378
H35 H 1.0348 0.6777 0.4346
H36 H 0.6683 1.0856 0.8823
H37 H 1.1697 0.5837 0.3896
H38 H 0.5305 1.1781 0.8071
H39 H 1.2266 0.4822 0.6117
H40 H 0.4582 1.2569 1.0377
H41 H 1.1643 0.4870 0.8938
H42 H 0.5280 1.2538 1.3385
H43 H 1.0366 0.5907 0.9513
H44 H 0.6563 1.1530 1.4070
O2_2 O 0.8641(4) 0.8824(5) 1.4280(7)
V2_2 V 0.8510(1) 0.8637(1) 0.2127(3)
N5 N 0.407(2) 0.326(2) 0.640(3)
C57 C 0.440(2) 0.399(2) 0.632(3)
C58 C 0.486(1) 0.483(1) 0.576(2)
N6 N 0.291(1) 0.443(1) 0.217(2)
C59 C 0.273(1) 0.359(2) 0.179(2)
C60 C 0.226(1) 0.266(1) 0.188(2)
loop_
_geom_bond_atom_site_label_1
_geom_bond_atom_site_label_2
_geom_bond_site_symmetry_1
_geom_bond_site_symmetry_2
V1 O1 1_555 1_555
V2 O1 1_555 1_555
O2 V1 1_555 1_555
O3 V1 1_555 1_555
O4 V2 1_555 1_555
O5 V1 1_555 1_555
O6 V2 1_555 1_555
N1 V1 1_555 1_555
N2 V2 1_555 1_555
N3 V1 1_555 1_555
N4 V2 1_555 1_555
C1 O3 1_555 1_555
C2 O4 1_555 1_555
C3 C1 1_555 1_555
C4 C2 1_555 1_555
C5 C3 1_555 1_555
C6 C4 1_555 1_555
C7 C5 1_555 1_555
C8 C6 1_555 1_555
C9 C7 1_555 1_555
C10 C8 1_555 1_555
C11 C1 1_555 1_555
C12 C2 1_555 1_555
C13 N1 1_555 1_555
C14 N2 1_555 1_555
C15 O5 1_555 1_555
C16 O6 1_555 1_555
C17 C15 1_555 1_555
C18 C16 1_555 1_555
C19 C17 1_555 1_555
C20 C18 1_555 1_555
C21 C19 1_555 1_555
C22 C20 1_555 1_555
C23 C21 1_555 1_555
C24 C22 1_555 1_555
C25 C15 1_555 1_555
C26 C16 1_555 1_555
C27 N3 1_555 1_555
C28 N4 1_555 1_555
C29 N1 1_555 1_555
C30 N2 1_555 1_555
C31 C29 1_555 1_555
C32 C30 1_555 1_555
C33 C31 1_555 1_555
C34 C32 1_555 1_555
C35 C33 1_555 1_555
C36 C34 1_555 1_555
C37 C35 1_555 1_555
C38 C36 1_555 1_555
C39 C37 1_555 1_555
C40 C38 1_555 1_555
C41 C31 1_555 1_555
C42 C32 1_555 1_555
C43 N3 1_555 1_555
C44 N4 1_555 1_555
C45 C43 1_555 1_555
C46 C44 1_555 1_555
C47 C45 1_555 1_555
C48 C46 1_555 1_555
C49 C47 1_555 1_555
C50 C48 1_555 1_555
C51 C49 1_555 1_555
C52 C50 1_555 1_555
C53 C51 1_555 1_555
C54 C52 1_555 1_555
C55 C45 1_555 1_555
C56 C46 1_555 1_555
H1 C3 1_555 1_555
H2 C4 1_555 1_555
H3 C5 1_555 1_555
H4 C6 1_555 1_555
H5 C7 1_555 1_555
H6 C8 1_555 1_555
H7 C9 1_555 1_555
H8 C10 1_555 1_555
H9 C13 1_555 1_555
H10 C14 1_555 1_555
H11 C17 1_555 1_555
H12 C18 1_555 1_555
H13 C19 1_555 1_555
H14 C20 1_555 1_555
H15 C21 1_555 1_555
H16 C22 1_555 1_555
H17 C23 1_555 1_555
H18 C24 1_555 1_555
H19 C27 1_555 1_555
H20 C28 1_555 1_555
H21 C29 1_555 1_555
H22 C30 1_555 1_555
H23 C33 1_555 1_555
H24 C34 1_555 1_555
H25 C35 1_555 1_555
H26 C36 1_555 1_555
H27 C37 1_555 1_555
H28 C38 1_555 1_555
H29 C39 1_555 1_555
H30 C40 1_555 1_555
H31 C41 1_555 1_555
H32 C42 1_555 1_555
H33 C43 1_555 1_555
H34 C44 1_555 1_555
H35 C47 1_555 1_555
H36 C48 1_555 1_555
H37 C49 1_555 1_555
H38 C50 1_555 1_555
H39 C51 1_555 1_555
H40 C52 1_555 1_555
H41 C53 1_555 1_555
H42 C54 1_555 1_555
H43 C55 1_555 1_555
H44 C56 1_555 1_555
N5 C57 1_555 1_555
C57 C58 1_555 1_555
N6 C59 1_555 1_555
C59 C60 1_555 1_555
O2_2 V2 1_555 1_555
V2_2 O2 1_555 1_555
C9 C11 1_555 1_555
C10 C12 1_555 1_555
C11 C13 1_555 1_555
C12 C14 1_555 1_555
C23 C25 1_555 1_555
C24 C26 1_555 1_555
C25 C27 1_555 1_555
C26 C28 1_555 1_555
C29 C43 1_555 1_555
C30 C44 1_555 1_555
C39 C41 1_555 1_555
C40 C42 1_555 1_555
C53 C55 1_555 1_555
C54 C56 1_555 1_555

#END
