
#######################################################################
#
#                 Cambridge Crystallographic Data Centre
#                                CCDC 
#
#######################################################################
#
# If this CIF has been generated from an entry in the Cambridge 
# Structural Database, then it will include bibliographic, chemical, 
# crystal, experimental, refinement or atomic coordinate data resulting 
# from the CCDC's data processing and validation procedures.
#
#######################################################################

data_ROFPEH
_symmetry_cell_setting           monoclinic
_symmetry_space_group_name_H-M   'C 2/c'
_symmetry_Int_Tables_number      15
_space_group_name_Hall           '-C 2yn'
loop_
_symmetry_equiv_pos_site_id
_symmetry_equiv_pos_as_xyz
1 x,y,z
2 -x,y,1/2-z
3 1/2+x,1/2+y,z
4 1/2-x,1/2+y,1/2-z
5 -x,-y,-z
6 x,-y,1/2+z
7 1/2-x,1/2-y,-z
8 1/2+x,1/2-y,1/2+z
_cell_length_a                   9.137(3)
_cell_length_b                   20.768(2)
_cell_length_c                   20.207(6)
_cell_angle_alpha                90
_cell_angle_beta                 96.38(1)
_cell_angle_gamma                90
_cell_volume                     3810.68
loop_
_atom_site_label
_atom_site_type_symbol
_atom_site_fract_x
_atom_site_fract_y
_atom_site_fract_z
F1 F 0.0226(9) 0.5134(5) 0.5739(6)
F2 F 0.0836(9) 0.6018(4) 0.5753(6)
F3 F 0.156(1) 0.5456(8) 0.6474(4)
F4 F 0.8275(9) 0.5584(5) 0.6899(4)
F5 F 0.782(1) 0.4707(5) 0.7101(4)
F6 F 0.640(1) 0.5385(8) 0.7250(4)
O1 O 0.2922(6) 0.4708(2) 0.5509(3)
O2 O 0.3331(6) 0.5761(2) 0.5306(3)
O3 O 0.5946(6) 0.4561(2) 0.6022(3)
O4 O 0.3651(6) 0.4385(2) 0.4186(3)
O5 O 0.4515(6) 0.3393(2) 0.5349(3)
C1 C 0.2643(9) 0.5297(4) 0.5525(4)
C2 C 0.134(1) 0.5487(4) 0.5879(5)
C3 C 0.6424(9) 0.5111(4) 0.6164(5)
C4 C 0.720(1) 0.5192(5) 0.6868(5)
C5 C 0.3567(8) 0.2983(3) 0.5179(4)
C6 C 0.384(1) 0.2307(4) 0.5359(5)
C7 C 0.215(1) 0.3145(4) 0.4815(5)
Rh1 Rh 0.47833(6) 0.44404(2) 0.51099(3)
H1 H 0.478 0.219 0.560
H2 H 0.195 0.359 0.469
Rh1D Rh 0.52167(6) 0.55596(2) 0.48901(3)
C3D C 0.3576(9) 0.4889(4) 0.3836(5)
O4D O 0.6349(6) 0.5615(2) 0.5814(3)
C7F C 0.285(1) 0.1855(4) 0.5185(5)
C6F C 0.116(1) 0.2693(4) 0.4641(5)
O2D O 0.6669(6) 0.4239(2) 0.4694(3)
O3D O 0.4054(6) 0.5439(2) 0.3978(3)
C4D C 0.280(1) 0.4808(5) 0.3132(5)
C5F C 0.1433(8) 0.2017(3) 0.4821(4)
H2F H 0.305 0.141 0.531
H1F H 0.022 0.281 0.440
C1D C 0.7357(9) 0.4703(4) 0.4475(4)
F4D F 0.1725(9) 0.4416(5) 0.3101(4)
F5D F 0.218(1) 0.5293(5) 0.2899(4)
F6D F 0.360(1) 0.4615(8) 0.2750(4)
O5F O 0.0485(6) 0.1607(2) 0.4651(3)
O1D O 0.7078(6) 0.5292(2) 0.4491(3)
C2D C 0.866(1) 0.4513(4) 0.4121(5)
Rh1F Rh 0.02167(6) 0.05596(2) 0.48901(3)
F1D F 0.9774(9) 0.4866(5) 0.4261(6)
F2D F 0.9164(9) 0.3982(4) 0.4247(6)
F3D F 0.844(1) 0.4544(8) 0.3526(4)
O5D O 0.5485(6) 0.6607(2) 0.4651(3)
C8 C 0.50000 0.337(1) 0.75000
C9 C 0.580(2) 0.3052(8) 0.7095(7)
C10 C 0.585(2) 0.2403(8) 0.7095(7)
C11 C 0.50000 0.2076(9) 0.75000
H3 H 0.500 0.379 0.750
H4 H 0.635 0.329 0.679
H5 H 0.646 0.217 0.681
H6 H 0.500 0.168 0.750
C9A C 0.420(2) 0.3052(8) 0.7905(7)
C10A C 0.415(2) 0.2403(8) 0.7905(7)
H4A H 0.365 0.329 0.821
H5A H 0.354 0.217 0.819
C12 C 0.049(2) 0.6536(7) 0.3883(9)
C13 C 0.140(2) 0.6970(8) 0.4163(8)
C14 C 0.108(2) 0.7606(7) 0.4062(7)
C15 C -0.005(2) 0.7778(8) 0.3664(8)
C16 C -0.099(2) 0.735(1) 0.337(1)
C17 C -0.071(2) 0.6703(9) 0.350(1)
H7 H 0.076 0.608 0.396
H8 H 0.229 0.684 0.444
H9 H 0.172 0.793 0.429
H10 H -0.023 0.823 0.357
H11 H -0.183 0.747 0.306
H12 H -0.139 0.635 0.335
loop_
_geom_bond_atom_site_label_1
_geom_bond_atom_site_label_2
_geom_bond_site_symmetry_1
_geom_bond_site_symmetry_2
F1 C2 1_555 1_555
F2 C2 1_555 1_555
F3 C2 1_555 1_555
F4 C4 1_555 1_555
F5 C4 1_555 1_555
F6 C4 1_555 1_555
O1 C1 1_555 1_555
O2 C1 1_555 1_555
O3 C3 1_555 1_555
O4 Rh1 1_555 1_555
O5 C5 1_555 1_555
C1 C2 1_555 1_555
C3 C4 1_555 1_555
C5 C6 1_555 1_555
C6 H1 1_555 1_555
C7 C5 1_555 1_555
Rh1 O1 1_555 1_555
H2 C7 1_555 1_555
C8 C9 1_555 1_555
C9 C10 1_555 1_555
C10 C11 1_555 1_555
C11 H6 1_555 1_555
H3 C8 1_555 1_555
H4 C9 1_555 1_555
H5 C10 1_555 1_555
C12 C13 1_555 1_555
C13 C14 1_555 1_555
C14 C15 1_555 1_555
C15 C16 1_555 1_555
C16 C17 1_555 1_555
C17 C12 1_555 1_555
H7 C12 1_555 1_555
H8 C13 1_555 1_555
H9 C14 1_555 1_555
H10 C15 1_555 1_555
H11 C16 1_555 1_555
H12 C17 1_555 1_555
Rh1D O2 1_555 1_555
C3D O4 1_555 1_555
O4D C3 1_555 1_555
C7F C6 1_555 1_555
C6F C7 1_555 1_555
O2D Rh1 1_555 1_555
O3D Rh1D 1_555 1_555
C4D C3D 1_555 1_555
C5F C7F 1_555 1_555
H2F C7F 1_555 1_555
H1F C6F 1_555 1_555
C1D O2D 1_555 1_555
F4D C4D 1_555 1_555
F5D C4D 1_555 1_555
F6D C4D 1_555 1_555
O5F C5F 1_555 1_555
O1D Rh1D 1_555 1_555
C2D C1D 1_555 1_555
Rh1F O5F 1_555 1_555
F1D C2D 1_555 1_555
F2D C2D 1_555 1_555
F3D C2D 1_555 1_555
O5D Rh1D 1_555 1_555
C9A C8 1_555 1_555
C10A C11 1_555 1_555
H4A C9A 1_555 1_555
H5A C10A 1_555 1_555
O3 Rh1 1_555 1_555
O5 Rh1 1_555 1_555
Rh1 Rh1D 1_555 1_555
Rh1D O4D 1_555 1_555
C3D O3D 1_555 1_555
C6F C5F 1_555 1_555
C1D O1D 1_555 1_555
C9A C10A 1_555 1_555

#END
