
#######################################################################
#
#                 Cambridge Crystallographic Data Centre
#                                CCDC 
#
#######################################################################
#
# If this CIF has been generated from an entry in the Cambridge 
# Structural Database, then it will include bibliographic, chemical, 
# crystal, experimental, refinement or atomic coordinate data resulting 
# from the CCDC's data processing and validation procedures.
#
#######################################################################

data_ROFREL
_symmetry_cell_setting           monoclinic
_symmetry_space_group_name_H-M   'P 2/c'
_symmetry_Int_Tables_number      13
_space_group_name_Hall           '-P 2yc'
loop_
_symmetry_equiv_pos_site_id
_symmetry_equiv_pos_as_xyz
1 x,y,z
2 -x,y,1/2-z
3 -x,-y,-z
4 x,-y,1/2+z
_cell_length_a                   19.567(6)
_cell_length_b                   9.869(3)
_cell_length_c                   22.135(6)
_cell_angle_alpha                90
_cell_angle_beta                 104.807(7)
_cell_angle_gamma                90
_cell_volume                     4132.47
loop_
_atom_site_label
_atom_site_type_symbol
_atom_site_fract_x
_atom_site_fract_y
_atom_site_fract_z
Bi1 Bi 0.83226(3) 0.04809(7) 0.43248(3)
Bi2 Bi 0.34396(3) 1.04892(7) 0.20743(3)
O1 O 0.4221(5) 0.9081(10) 0.2746(6)
O2 O 0.3224(5) 0.7983(10) 0.2300(6)
O3 O 0.3245(5) 0.2937(10) 0.2307(6)
O4 O 0.4223(5) 0.1873(10) 0.2783(6)
O5 O 0.7252(5) 0.1932(10) 0.4054(6)
O6 O 0.8235(6) 0.2937(10) 0.4547(6)
O7 O 0.7213(5) 0.9103(10) 0.4055(6)
O8 O 0.8170(5) 0.8019(10) 0.4536(7)
O9 O 0.8008(5) 0.0531(12) 0.5248(6)
O10 O 0.9161(5) 0.0457(13) 0.5340(6)
O11 O 0.7141(5) -0.0449(11) 0.7142(5)
O12 O 0.7909(5) -0.0505(12) 0.8068(5)
O13 O 0.9325(7) -0.1054(13) 0.4153(7)
H1 H 0.9244 -0.1436 0.3723
H2 H 0.9434 -0.1889 0.4426
O14 O 0.4456(7) 1.0628(19) 0.1573(8)
H3 H 0.4308 1.0856 0.1159
H4 H 0.4685 0.9816 0.1595
C1 C 0.3849(8) 0.7959(15) 0.2665(9)
C2 C 0.4199(8) 0.6674(15) 0.2904(9)
C3 C 0.3851(7) 0.5470(16) 0.2751(8)
H5 H 0.3369 0.5463 0.2522
C4 C 0.4213(8) 0.4231(14) 0.2934(9)
C5 C 0.3852(8) 0.2990(15) 0.2664(9)
C6 C 0.4893(8) 0.4275(15) 0.3298(9)
H6 H 0.5122 0.3442 0.3438
C7 C 0.5262(8) 0.5450(16) 0.3473(8)
C8 C 0.6055(7) 0.5458(16) 0.3804(9)
C9 C 0.6451(8) 0.4274(15) 0.3896(9)
H7 H 0.6227 0.3435 0.3756
C10 C 0.7146(8) 0.4295(15) 0.4180(9)
C11 C 0.7568(8) 0.2986(16) 0.4279(10)
C12 C 0.7514(7) 0.5536(16) 0.4327(8)
H8 H 0.8009 0.5541 0.4510
C13 C 0.7151(8) 0.6716(16) 0.4202(9)
C14 C 0.7506(8) 0.8017(15) 0.4239(10)
C15 C 0.6398(8) 0.6735(15) 0.3948(9)
H9 H 0.6140 0.7561 0.3879
C16 C 0.4879(8) 0.6699(15) 0.3273(9)
H10 H 0.5102 0.7545 0.3399
C17 C 0.8638(7) 0.044(2) 0.5589(9)
C18 C 0.8777(8) 0.0225(19) 0.6270(9)
C19 C 0.8231(8) 0.0051(17) 0.6575(9)
H11 H 0.7754 0.0055 0.6333
C20 C 0.8367(8) -0.0121(18) 0.7204(9)
C21 C 0.7770(7) -0.0385(19) 0.7492(8)
C22 C 0.9050(7) -0.0180(18) 0.7557(9)
H12 H 0.9142 -0.0360 0.7992
C23 C 0.9614(8) 0.0020(19) 0.7292(8)
C24 C 0.9471(8) 0.0235(18) 0.6657(8)
H13 H 0.9853 0.0394 0.6474
O9A O 1.1992(5) 0.0531(12) 0.9752(6)
O10A O 1.0839(5) 0.0457(13) 0.9660(6)
O11A O 1.2859(5) -0.0449(11) 0.7858(5)
O12A O 1.2091(5) -0.0505(12) 0.6932(5)
C17A C 1.1362(7) 0.044(2) 0.9411(9)
C18A C 1.1223(8) 0.0225(19) 0.8730(9)
C19A C 1.1769(8) 0.0051(17) 0.8425(9)
H11A H 1.2246 0.0055 0.8667
C20A C 1.1633(8) -0.0121(18) 0.7796(9)
C21A C 1.2230(7) -0.0385(19) 0.7508(8)
C22A C 1.0950(7) -0.0180(18) 0.7443(9)
H12A H 1.0858 -0.0360 0.7008
C23A C 1.0386(8) 0.0020(19) 0.7708(8)
C24A C 1.0529(8) 0.0235(18) 0.8343(8)
H13A H 1.0147 0.0394 0.8526
Bi1A Bi 0.16774(3) 0.04809(7) 0.06752(3)
Bi2A Bi 0.65604(3) 1.04892(7) 0.29257(3)
O1A O 0.5779(5) 0.9081(10) 0.2254(6)
O2A O 0.6776(5) 0.7983(10) 0.2700(6)
O3A O 0.6755(5) 0.2937(10) 0.2693(6)
O4A O 0.5777(5) 0.1873(10) 0.2217(6)
O5A O 0.2748(5) 0.1932(10) 0.0946(6)
O6A O 0.1765(6) 0.2937(10) 0.0453(6)
O7A O 0.2787(5) 0.9103(10) 0.0945(6)
O8A O 0.1830(5) 0.8019(10) 0.0464(7)
O13A O 0.0675(7) -0.1054(13) 0.0847(7)
H1A H 0.0756 -0.1436 0.1277
H2A H 0.0566 -0.1889 0.0574
O14A O 0.5544(7) 1.0628(19) 0.3427(8)
H3A H 0.5692 1.0856 0.3841
H4A H 0.5315 0.9816 0.3405
C1A C 0.6151(8) 0.7959(15) 0.2335(9)
C2A C 0.5801(8) 0.6674(15) 0.2096(9)
C3A C 0.6149(7) 0.5470(16) 0.2249(8)
H5A H 0.6631 0.5463 0.2478
C4A C 0.5787(8) 0.4231(14) 0.2066(9)
C5A C 0.6148(8) 0.2990(15) 0.2336(9)
C6A C 0.5107(8) 0.4275(15) 0.1702(9)
H6A H 0.4878 0.3442 0.1562
C7A C 0.4738(8) 0.5450(16) 0.1527(8)
C8A C 0.3945(7) 0.5458(16) 0.1196(9)
C9A C 0.3549(8) 0.4274(15) 0.1104(9)
H7A H 0.3773 0.3435 0.1244
C10A C 0.2854(8) 0.4295(15) 0.0820(9)
C11A C 0.2432(8) 0.2986(16) 0.0721(10)
C12A C 0.2486(7) 0.5536(16) 0.0673(8)
H8A H 0.1991 0.5541 0.0490
C13A C 0.2849(8) 0.6716(16) 0.0798(9)
C14A C 0.2494(8) 0.8017(15) 0.0761(10)
C15A C 0.3602(8) 0.6735(15) 0.1052(9)
H9A H 0.3860 0.7561 0.1121
C16A C 0.5121(8) 0.6699(15) 0.1727(9)
H10A H 0.4898 0.7545 0.1601
Bi1_2 Bi 0.83226(3) 1.04809(7) 0.43248(3)
Bi1A_2 Bi 0.16774(3) 1.04809(7) 0.06752(3)
Bi1A_3 Bi 1.16774(3) 0.04809(7) 1.06752(3)
Bi1B Bi 1.16774(3) -0.04809(7) 0.56752(3)
Bi1C Bi 0.83226(3) -0.04809(7) 0.93248(3)
Bi2_2 Bi 0.34396(3) 0.04892(7) 0.20743(3)
Bi2A_2 Bi 0.65604(3) 0.04892(7) 0.29257(3)
Bi2B Bi 0.65604(3) -0.04892(7) 0.79257(3)
Bi2C Bi 1.34396(3) -0.04892(7) 0.70743(3)
O3_2 O 0.3245(5) 1.2937(10) 0.2307(6)
O3A_2 O 0.6755(5) 1.2937(10) 0.2693(6)
O4_2 O 0.4223(5) 1.1873(10) 0.2783(6)
O4A_2 O 0.5777(5) 1.1873(10) 0.2217(6)
O5_2 O 0.7252(5) 1.1932(10) 0.4054(6)
O5A_2 O 0.2748(5) 1.1932(10) 0.0946(6)
O7_2 O 0.7213(5) -0.0897(10) 0.4055(6)
O7A_2 O 0.2787(5) -0.0897(10) 0.0945(6)
O8_2 O 0.8170(5) -0.1981(10) 0.4536(7)
O8A_2 O 0.1830(5) -0.1981(10) 0.0464(7)
O9A_2 O 0.1992(5) 0.0531(12) -0.0248(6)
O10A_2 O 0.0839(5) 0.0457(13) -0.0340(6)
O11B O 0.2859(5) 1.0449(11) 0.2858(5)
O11C O 0.7141(5) 1.0449(11) 0.2142(5)
O12B O 0.2091(5) 0.0505(12) 0.1932(5)
O12B_2 O 0.2091(5) 1.0505(12) 0.1932(5)
O12C O 0.7909(5) 0.0505(12) 0.3068(5)
O12C_2 O 0.7909(5) 1.0505(12) 0.3068(5)
loop_
_geom_bond_atom_site_label_1
_geom_bond_atom_site_label_2
_geom_bond_site_symmetry_1
_geom_bond_site_symmetry_2
Bi1 O5 1_555 1_555
Bi2 O1 1_555 1_555
O1 C1 1_555 1_555
O2 Bi2 1_555 1_555
O3 C5 1_555 1_555
O4 C5 1_555 1_555
O5 C11 1_555 1_555
O6 Bi1 1_555 1_555
O7 C14 1_555 1_555
O8 C14 1_555 1_555
O9 Bi1 1_555 1_555
O10 Bi1 1_555 1_555
O11 C21 1_555 1_555
O12 C21 1_555 1_555
O13 Bi1 1_555 1_555
H1 O13 1_555 1_555
H2 O13 1_555 1_555
O14 Bi2 1_555 1_555
H3 O14 1_555 1_555
H4 O14 1_555 1_555
C1 O2 1_555 1_555
C2 C1 1_555 1_555
C3 C2 1_555 1_555
H5 C3 1_555 1_555
C4 C3 1_555 1_555
C5 C4 1_555 1_555
C6 C4 1_555 1_555
H6 C6 1_555 1_555
C7 C6 1_555 1_555
C8 C7 1_555 1_555
C9 C8 1_555 1_555
H7 C9 1_555 1_555
C10 C9 1_555 1_555
C11 O6 1_555 1_555
C12 C10 1_555 1_555
H8 C12 1_555 1_555
C13 C12 1_555 1_555
C14 C13 1_555 1_555
C15 C8 1_555 1_555
H9 C15 1_555 1_555
C16 C2 1_555 1_555
H10 C16 1_555 1_555
C17 O9 1_555 1_555
C18 C17 1_555 1_555
C19 C18 1_555 1_555
H11 C19 1_555 1_555
C20 C19 1_555 1_555
C21 C20 1_555 1_555
C22 C20 1_555 1_555
H12 C22 1_555 1_555
C23 C22 1_555 1_555
C24 C18 1_555 1_555
H13 C24 1_555 1_555
O9A C17A 1_555 1_555
O10A C17A 1_555 1_555
O11A C21A 1_555 1_555
O12A C21A 1_555 1_555
C17A C18A 1_555 1_555
C18A C19A 1_555 1_555
C19A H11A 1_555 1_555
C20A C19A 1_555 1_555
C21A C20A 1_555 1_555
C22A C20A 1_555 1_555
H12A C22A 1_555 1_555
C23A C23 1_555 1_555
C24A C18A 1_555 1_555
H13A C24A 1_555 1_555
Bi1A O5A 1_555 1_555
Bi2A O7 1_555 1_555
O1A Bi2A 1_555 1_555
O2A Bi2A 1_555 1_555
O3A C5A 1_555 1_555
O4A C5A 1_555 1_555
O5A C11A 1_555 1_555
O6A Bi1A 1_555 1_555
O7A Bi2 1_555 1_555
O8A C14A 1_555 1_555
O13A Bi1A 1_555 1_555
H1A O13A 1_555 1_555
H2A O13A 1_555 1_555
O14A Bi2A 1_555 1_555
H3A O14A 1_555 1_555
H4A O14A 1_555 1_555
C1A O1A 1_555 1_555
C2A C1A 1_555 1_555
C3A C2A 1_555 1_555
H5A C3A 1_555 1_555
C4A C3A 1_555 1_555
C5A C4A 1_555 1_555
C6A C4A 1_555 1_555
H6A C6A 1_555 1_555
C7A C6A 1_555 1_555
C8A C7A 1_555 1_555
C9A C8A 1_555 1_555
H7A C9A 1_555 1_555
C10A C9A 1_555 1_555
C11A O6A 1_555 1_555
C12A C10A 1_555 1_555
H8A C12A 1_555 1_555
C13A C12A 1_555 1_555
C14A O7A 1_555 1_555
C15A C8A 1_555 1_555
H9A C15A 1_555 1_555
C16A C2A 1_555 1_555
H10A C16A 1_555 1_555
Bi1_2 O7 1_555 1_555
Bi1A_2 O7A 1_555 1_555
Bi1A_3 O9A 1_555 1_555
Bi1B O12A 1_555 1_555
Bi1C O12 1_555 1_555
Bi2_2 O3 1_555 1_555
Bi2A_2 O5 1_555 1_555
Bi2B O11 1_555 1_555
Bi2C O11A 1_555 1_555
O3_2 Bi2 1_555 1_555
O3A_2 Bi2A 1_555 1_555
O4_2 Bi2 1_555 1_555
O4A_2 Bi2A 1_555 1_555
O5_2 Bi2A 1_555 1_555
O5A_2 Bi2 1_555 1_555
O7_2 Bi1 1_555 1_555
O7A_2 Bi1A 1_555 1_555
O8_2 Bi1 1_555 1_555
O8A_2 Bi1A 1_555 1_555
O9A_2 Bi1A 1_555 1_555
O10A_2 Bi1A 1_555 1_555
O11B Bi2 1_555 1_555
O11C Bi2A 1_555 1_555
O12B Bi1A 1_555 1_555
O12B_2 Bi2 1_555 1_555
O12C Bi1 1_555 1_555
O12C_2 Bi2A 1_555 1_555
O4 Bi2_2 1_555 1_555
O8 Bi1_2 1_555 1_555
O10 C17 1_555 1_555
O12 Bi2B 1_555 1_555
C7 C16 1_555 1_555
C10 C11 1_555 1_555
C13 C15 1_555 1_555
C23 C24 1_555 1_555
O10A Bi1A_3 1_555 1_555
O12A Bi2C 1_555 1_555
C22A C23A 1_555 1_555
C23A C24A 1_555 1_555
O2A C1A 1_555 1_555
O3A Bi2A_2 1_555 1_555
O4A Bi2A_2 1_555 1_555
O5A Bi2_2 1_555 1_555
O8A Bi1A_2 1_555 1_555
C7A C16A 1_555 1_555
C10A C11A 1_555 1_555
C13A C14A 1_555 1_555
C13A C15A 1_555 1_555
Bi1_2 O5_2 1_555 1_555
Bi1_2 O12C_2 1_555 1_555
Bi1A_2 O5A_2 1_555 1_555
Bi1A_2 O12B_2 1_555 1_555
Bi2_2 O7A_2 1_555 1_555
Bi2_2 O12B 1_555 1_555
Bi2A_2 O7_2 1_555 1_555
Bi2A_2 O12C 1_555 1_555

#END
