
#######################################################################
#
#                 Cambridge Crystallographic Data Centre
#                                CCDC 
#
#######################################################################
#
# If this CIF has been generated from an entry in the Cambridge 
# Structural Database, then it will include bibliographic, chemical, 
# crystal, experimental, refinement or atomic coordinate data resulting 
# from the CCDC's data processing and validation procedures.
#
#######################################################################

data_ROFREL01
_symmetry_cell_setting           monoclinic
_symmetry_space_group_name_H-M   'P 2/c'
_symmetry_Int_Tables_number      13
_space_group_name_Hall           '-P 2yc'
loop_
_symmetry_equiv_pos_site_id
_symmetry_equiv_pos_as_xyz
1 x,y,z
2 -x,y,1/2-z
3 -x,-y,-z
4 x,-y,1/2+z
_cell_length_a                   19.721(10)
_cell_length_b                   9.862(5)
_cell_length_c                   22.179(11)
_cell_angle_alpha                90
_cell_angle_beta                 105.345(6)
_cell_angle_gamma                90
_cell_volume                     4159.78
loop_
_atom_site_label
_atom_site_type_symbol
_atom_site_fract_x
_atom_site_fract_y
_atom_site_fract_z
Bi1 Bi 0.16702(3) -0.05316(5) 0.06879(3)
Bi2 Bi 0.34278(3) -0.05102(5) 0.21018(3)
O1 O 0.2121(6) -0.0522(10) 0.1945(6)
O2 O 0.4210(6) 0.8108(10) 0.2781(5)
O3 O 0.7220(6) 0.0835(10) 0.4022(6)
O4 O 0.1965(6) 0.0516(10) 0.4740(6)
O5 O 0.0831(6) 0.0592(11) 0.4641(6)
O6 O 0.3247(6) 0.2005(10) 0.2306(5)
O7 O 0.3244(6) 0.7010(10) 0.2343(5)
O8 O 0.8226(6) 0.6981(10) 0.4540(5)
O9 O 0.7261(5) 0.8071(9) 0.4045(5)
O10 O 0.8177(6) 0.1901(10) 0.4534(6)
O11 O 0.4201(5) 0.0875(10) 0.2750(6)
O12 O 0.2824(5) -0.0443(9) 0.2860(5)
O13 O 0.0629(6) 0.1042(13) 0.0831(6)
O14 O 0.0618(6) -0.1889(12) 0.0987(6)
C1 C 0.3853(8) 0.1985(15) 0.2650(8)
C2 C 0.4214(8) 0.3288(14) 0.2920(8)
C3 C 0.3853(9) 0.4529(13) 0.2743(8)
H1 H 0.3374 0.4538 0.2507
C4 C 0.4218(8) 0.5732(14) 0.2925(8)
C5 C 0.3865(8) 0.7025(15) 0.2672(7)
C6 C 0.4915(8) 0.5692(13) 0.3280(8)
H2 H 0.5155 0.6525 0.3397
C7 C 0.5272(8) 0.4505(12) 0.3470(8)
C8 C 0.6037(9) 0.4455(12) 0.3762(8)
C9 C 0.6435(8) 0.5699(13) 0.3898(8)
H3 H 0.6203 0.6547 0.3805
C10 C 0.7155(9) 0.5658(13) 0.4164(8)
C11 C 0.7571(8) 0.7000(14) 0.4239(8)
C12 C 0.7556(9) 0.4435(13) 0.4290(8)
H4 H 0.8053 0.4424 0.4453
C13 C 0.7144(8) 0.3235(14) 0.4150(8)
C14 C 0.7529(8) 0.1937(15) 0.4254(8)
C15 C 0.6416(8) 0.3234(14) 0.3928(7)
H5 H 0.6168 0.2399 0.3886
C16 C 0.4903(8) 0.3301(14) 0.3259(7)
H6 H 0.5143 0.2461 0.3355
C17 C 0.2182(8) -0.0455(15) 0.2525(8)
C18 C 0.1639(8) -0.0117(17) 0.2866(8)
C19 C 0.1730(8) 0.0034(17) 0.3452(8)
H7 H 0.2192 -0.0032 0.3722
C20 C 0.1174(8) 0.0290(16) 0.3709(8)
C21 C 0.1338(8) 0.0490(15) 0.4426(8)
C22 C 0.0517(8) 0.0376(15) 0.3338(8)
H8 H 0.0147 0.0616 0.3517
C23 C 0.0360(7) 0.0125(17) 0.2699(7)
C24 C 0.0917(8) -0.0222(16) 0.2445(8)
H9 H 0.0836 -0.0510 0.2023
O1A O -0.2121(6) -0.0522(10) 0.3055(6)
O4A O -0.1965(6) 0.0516(10) 0.0260(6)
O5A O -0.0831(6) 0.0592(11) 0.0359(6)
O12A O -0.2824(5) -0.0443(9) 0.2140(5)
C17A C -0.2182(8) -0.0455(15) 0.2475(8)
C18A C -0.1639(8) -0.0117(17) 0.2134(8)
C19A C -0.1730(8) 0.0034(17) 0.1548(8)
H7A H -0.2192 -0.0032 0.1278
C20A C -0.1174(8) 0.0290(16) 0.1291(8)
C21A C -0.1338(8) 0.0490(15) 0.0574(8)
C22A C -0.0517(8) 0.0376(15) 0.1662(8)
H8A H -0.0147 0.0616 0.1483
C23A C -0.0360(7) 0.0125(17) 0.2301(7)
C24A C -0.0917(8) -0.0222(16) 0.2555(8)
H9A H -0.0836 -0.0510 0.2977
Bi1A Bi -0.16702(3) -0.05316(5) 0.43121(3)
Bi2A Bi -0.34278(3) -0.05102(5) 0.28982(3)
O2A O -0.4210(6) 0.8108(10) 0.2219(5)
O3A O -0.7220(6) 0.0835(10) 0.0978(6)
O6A O -0.3247(6) 0.2005(10) 0.2694(5)
O7A O -0.3244(6) 0.7010(10) 0.2657(5)
O8A O -0.8226(6) 0.6981(10) 0.0460(5)
O9A O -0.7261(5) 0.8071(9) 0.0955(5)
O10A O -0.8177(6) 0.1901(10) 0.0466(6)
O11A O -0.4201(5) 0.0875(10) 0.2250(6)
O13A O -0.0629(6) 0.1042(13) 0.4169(6)
O14A O -0.0618(6) -0.1889(12) 0.4013(6)
C1A C -0.3853(8) 0.1985(15) 0.2350(8)
C2A C -0.4214(8) 0.3288(14) 0.2080(8)
C3A C -0.3853(9) 0.4529(13) 0.2257(8)
H1A H -0.3374 0.4538 0.2493
C4A C -0.4218(8) 0.5732(14) 0.2075(8)
C5A C -0.3865(8) 0.7025(15) 0.2328(7)
C6A C -0.4915(8) 0.5692(13) 0.1720(8)
H2A H -0.5155 0.6525 0.1603
C7A C -0.5272(8) 0.4505(12) 0.1530(8)
C8A C -0.6037(9) 0.4455(12) 0.1238(8)
C9A C -0.6435(8) 0.5699(13) 0.1102(8)
H3A H -0.6203 0.6547 0.1195
C10A C -0.7155(9) 0.5658(13) 0.0836(8)
C11A C -0.7571(8) 0.7000(14) 0.0761(8)
C12A C -0.7556(9) 0.4435(13) 0.0710(8)
H4A H -0.8053 0.4424 0.0547
C13A C -0.7144(8) 0.3235(14) 0.0850(8)
C14A C -0.7529(8) 0.1937(15) 0.0746(8)
C15A C -0.6416(8) 0.3234(14) 0.1072(7)
H5A H -0.6168 0.2399 0.1114
C16A C -0.4903(8) 0.3301(14) 0.1741(7)
H6A H -0.5143 0.2461 0.1645
Bi1_2 Bi -0.83298(3) -0.05316(5) 0.06879(3)
Bi1_3 Bi -0.83298(3) 0.94684(5) 0.06879(3)
Bi1A_2 Bi 0.83298(3) -0.05316(5) 0.43121(3)
Bi1A_3 Bi 0.83298(3) 0.94684(5) 0.43121(3)
Bi1B Bi -0.16702(3) 0.05316(5) -0.06879(3)
Bi1C Bi 0.16702(3) 0.05316(5) 0.56879(3)
Bi2_2 Bi -0.65722(3) -0.05102(5) 0.21018(3)
Bi2_3 Bi -0.65722(3) 0.94898(5) 0.21018(3)
Bi2_4 Bi 0.34278(3) 0.94898(5) 0.21018(3)
Bi2A_2 Bi -0.34278(3) 0.94898(5) 0.28982(3)
Bi2A_3 Bi 0.65722(3) -0.05102(5) 0.28982(3)
Bi2A_4 Bi 0.65722(3) 0.94898(5) 0.28982(3)
O2_2 O 0.4210(6) -0.1892(10) 0.2781(5)
O2A_2 O -0.4210(6) -0.1892(10) 0.2219(5)
O3_2 O -0.2780(6) 0.0835(10) 0.4022(6)
O3A_2 O 0.2780(6) 0.0835(10) 0.0978(6)
O4B O -0.1965(6) -0.0516(10) 0.5260(6)
O4C O 0.1965(6) -0.0516(10) -0.0260(6)
O5B O -0.0831(6) -0.0592(11) 0.5359(6)
O5C O 0.0831(6) -0.0592(11) -0.0359(6)
O7_2 O 0.3244(6) -0.2990(10) 0.2343(5)
O7A_2 O -0.3244(6) -0.2990(10) 0.2657(5)
O8_2 O -0.1774(6) -0.3019(10) 0.4540(5)
O8A_2 O 0.1774(6) -0.3019(10) 0.0460(5)
O9_2 O -0.2739(5) -0.1929(9) 0.4045(5)
O9A_2 O 0.2739(5) -0.1929(9) 0.0955(5)
O10_2 O -0.1823(6) 0.1901(10) 0.4534(6)
O10A_2 O 0.1823(6) 0.1901(10) 0.0466(6)
loop_
_geom_bond_atom_site_label_1
_geom_bond_atom_site_label_2
_geom_bond_site_symmetry_1
_geom_bond_site_symmetry_2
Bi1 O1 1_555 1_555
Bi2 O1 1_555 1_555
O1 C17 1_555 1_555
O2 C5 1_555 1_555
O3 C14 1_555 1_555
O4 C21 1_555 1_555
O5 C21 1_555 1_555
O6 Bi2 1_555 1_555
O7 C5 1_555 1_555
O8 C11 1_555 1_555
O9 C11 1_555 1_555
O10 C14 1_555 1_555
O11 Bi2 1_555 1_555
O12 Bi2 1_555 1_555
O13 Bi1 1_555 1_555
O14 Bi1 1_555 1_555
C1 O6 1_555 1_555
C2 C1 1_555 1_555
C3 C2 1_555 1_555
H1 C3 1_555 1_555
C4 C3 1_555 1_555
C5 C4 1_555 1_555
C6 C4 1_555 1_555
H2 C6 1_555 1_555
C7 C6 1_555 1_555
C8 C7 1_555 1_555
C9 C8 1_555 1_555
H3 C9 1_555 1_555
C10 C9 1_555 1_555
C11 C10 1_555 1_555
C12 C10 1_555 1_555
H4 C12 1_555 1_555
C13 C12 1_555 1_555
C14 C13 1_555 1_555
C15 C8 1_555 1_555
H5 C15 1_555 1_555
C16 C2 1_555 1_555
H6 C16 1_555 1_555
C17 O12 1_555 1_555
C18 C17 1_555 1_555
C19 C18 1_555 1_555
H7 C19 1_555 1_555
C20 C19 1_555 1_555
C21 C20 1_555 1_555
C22 C20 1_555 1_555
H8 C22 1_555 1_555
C23 C22 1_555 1_555
C24 C18 1_555 1_555
H9 C24 1_555 1_555
O1A C17A 1_555 1_555
O4A C21A 1_555 1_555
O5A C21A 1_555 1_555
O12A C17A 1_555 1_555
C17A C18A 1_555 1_555
C18A C19A 1_555 1_555
C19A H7A 1_555 1_555
C20A C19A 1_555 1_555
C21A C20A 1_555 1_555
C22A C20A 1_555 1_555
H8A C22A 1_555 1_555
C23A C23 1_555 1_555
C24A C18A 1_555 1_555
H9A C24A 1_555 1_555
Bi1A O1A 1_555 1_555
Bi2A O1A 1_555 1_555
O2A C5A 1_555 1_555
O3A C14A 1_555 1_555
O6A Bi2A 1_555 1_555
O7A C5A 1_555 1_555
O8A C11A 1_555 1_555
O9A C11A 1_555 1_555
O10A C14A 1_555 1_555
O11A Bi2A 1_555 1_555
O13A Bi1A 1_555 1_555
O14A Bi1A 1_555 1_555
C1A O6A 1_555 1_555
C2A C1A 1_555 1_555
C3A C2A 1_555 1_555
H1A C3A 1_555 1_555
C4A C3A 1_555 1_555
C5A C4A 1_555 1_555
C6A C4A 1_555 1_555
H2A C6A 1_555 1_555
C7A C6A 1_555 1_555
C8A C7A 1_555 1_555
C9A C8A 1_555 1_555
H3A C9A 1_555 1_555
C10A C9A 1_555 1_555
C11A C10A 1_555 1_555
C12A C10A 1_555 1_555
H4A C12A 1_555 1_555
C13A C12A 1_555 1_555
C14A C13A 1_555 1_555
C15A C8A 1_555 1_555
H5A C15A 1_555 1_555
C16A C2A 1_555 1_555
H6A C16A 1_555 1_555
Bi1_2 O3A 1_555 1_555
Bi1_3 O8A 1_555 1_555
Bi1A_2 O3 1_555 1_555
Bi1A_3 O8 1_555 1_555
Bi1B O4A 1_555 1_555
Bi1C O4 1_555 1_555
Bi2_2 O3A 1_555 1_555
Bi2_3 O9A 1_555 1_555
Bi2_4 O2 1_555 1_555
Bi2A_2 O2A 1_555 1_555
Bi2A_3 O3 1_555 1_555
Bi2A_4 O9 1_555 1_555
O2_2 Bi2 1_555 1_555
O2A_2 Bi2A 1_555 1_555
O3_2 Bi1A 1_555 1_555
O3A_2 Bi1 1_555 1_555
O4B Bi1A 1_555 1_555
O4C Bi1 1_555 1_555
O5B Bi1A 1_555 1_555
O5C Bi1 1_555 1_555
O7_2 Bi2 1_555 1_555
O7A_2 Bi2A 1_555 1_555
O8_2 Bi1A 1_555 1_555
O8A_2 Bi1 1_555 1_555
O9_2 Bi1A 1_555 1_555
O9A_2 Bi1 1_555 1_555
O10_2 Bi1A 1_555 1_555
O10A_2 Bi1 1_555 1_555
Bi2 O3A_2 1_555 1_555
Bi2 O9A_2 1_555 1_555
O5 Bi1C 1_555 1_555
O7 Bi2_4 1_555 1_555
O9 Bi1A_3 1_555 1_555
O10 Bi1A_2 1_555 1_555
O11 C1 1_555 1_555
C7 C16 1_555 1_555
C13 C15 1_555 1_555
C23 C24 1_555 1_555
O5A Bi1B 1_555 1_555
O12A Bi2A 1_555 1_555
C22A C23A 1_555 1_555
C23A C24A 1_555 1_555
Bi2A O3_2 1_555 1_555
Bi2A O9_2 1_555 1_555
O7A Bi2A_2 1_555 1_555
O9A Bi1_3 1_555 1_555
O10A Bi1_2 1_555 1_555
O11A C1A 1_555 1_555
C7A C16A 1_555 1_555
C13A C15A 1_555 1_555

#END
