
#######################################################################
#
#                 Cambridge Crystallographic Data Centre
#                                CCDC 
#
#######################################################################
#
# If this CIF has been generated from an entry in the Cambridge 
# Structural Database, then it will include bibliographic, chemical, 
# crystal, experimental, refinement or atomic coordinate data resulting 
# from the CCDC's data processing and validation procedures.
#
#######################################################################

data_ROFXUH
_symmetry_cell_setting           monoclinic
_symmetry_space_group_name_H-M   'P 2/c'
_symmetry_Int_Tables_number      13
_space_group_name_Hall           '-P 2yc'
loop_
_symmetry_equiv_pos_site_id
_symmetry_equiv_pos_as_xyz
1 x,y,z
2 -x,y,1/2-z
3 -x,-y,-z
4 x,-y,1/2+z
_cell_length_a                   28.1719(10)
_cell_length_b                   11.6968(3)
_cell_length_c                   25.7645(10)
_cell_angle_alpha                90
_cell_angle_beta                 114.212(5)
_cell_angle_gamma                90
_cell_volume                     7743.12
loop_
_atom_site_label
_atom_site_type_symbol
_atom_site_fract_x
_atom_site_fract_y
_atom_site_fract_z
Co2 Co 0.0000 0.06037(5) 0.7500
N7 N -0.01853(11) 0.0605(2) 0.66740(12)
N8 N -0.07486(10) 0.0607(2) 0.73462(11)
N9 N 0.08239(16) -0.1155(3) 0.60777(17)
H35 H 0.0706 -0.1176 0.6337
N10 N -0.16367(15) 0.2186(3) 0.55183(18)
H36 H -0.1373 0.2230 0.5842
N11 N 0.0000 0.2581(3) 0.7500
N12 N 0.0000 0.8630(4) 0.7500
O3 O 0.09387(19) -0.2277(3) 0.54320(18)
O4 O -0.21031(15) 0.3239(4) 0.47472(17)
C39 C 0.01460(14) 0.0685(3) 0.64070(15)
C40 C -0.01422(17) 0.0651(4) 0.58029(17)
H37 H -0.0006 0.0718 0.5531
C41 C -0.06427(16) 0.0502(4) 0.57024(17)
H38 H -0.0918 0.0420 0.5348
C42 C -0.06764(15) 0.0493(3) 0.62375(16)
C43 C -0.11407(14) 0.0430(3) 0.63030(16)
C44 C -0.11726(13) 0.0516(3) 0.68275(15)
C45 C -0.16480(14) 0.0546(3) 0.69019(17)
H39 H -0.1983 0.0501 0.6616
C46 C -0.15218(14) 0.0651(3) 0.74611(17)
H40 H -0.1752 0.0694 0.7636
C47 C -0.09653(13) 0.0682(3) 0.77374(15)
C48 C 0.06863(15) 0.0741(3) 0.66768(15)
C49 C 0.09933(14) 0.0839(4) 0.63245(16)
C50 C 0.12002(19) 0.1864(5) 0.6268(2)
H41 H 0.1132 0.2517 0.6433
C51 C 0.1512(2) 0.1942(6) 0.5966(3)
H42 H 0.1645 0.2644 0.5919
C52 C 0.1620(2) 0.0967(6) 0.5738(2)
H43 H 0.1839 0.1015 0.5549
C53 C 0.14155(19) -0.0074(5) 0.57802(19)
H44 H 0.1496 -0.0725 0.5625
C54 C 0.10860(17) -0.0139(4) 0.60592(18)
C55 C 0.0731(2) -0.2095(5) 0.5751(2)
C56 C 0.0330(3) -0.2963(7) 0.5789(4)
C57 C -0.0136(3) -0.2914(7) 0.5213(3)
H45 H -0.0015 -0.2908 0.4915
H46 H -0.0333 -0.2233 0.5192
H47 H -0.0353 -0.3572 0.5171
C58 C 0.0106(3) -0.2701(6) 0.6213(4)
H48 H -0.0129 -0.3301 0.6207
H49 H -0.0079 -0.1989 0.6115
H50 H 0.0382 -0.2646 0.6586
C59 C 0.0528(4) -0.4136(7) 0.5830(4)
H51 H 0.0841 -0.4213 0.6171
H52 H 0.0602 -0.4297 0.5505
H53 H 0.0271 -0.4663 0.5841
C60 C -0.16366(15) 0.0238(4) 0.57927(17)
C61 C -0.18793(18) -0.0827(4) 0.57005(19)
H54 H -0.1723 -0.1418 0.5955
C62 C -0.23381(19) -0.1024(5) 0.5248(2)
H55 H -0.2497 -0.1737 0.5198
C63 C -0.25662(18) -0.0151(5) 0.4863(2)
H56 H -0.2878 -0.0284 0.4550
C64 C -0.23384(18) 0.0908(5) 0.4938(2)
H57 H -0.2496 0.1486 0.4675
C65 C -0.18733(15) 0.1118(4) 0.54039(17)
C66 C -0.1743(2) 0.3166(5) 0.5217(2)
C67 C -0.1395(2) 0.4171(5) 0.5499(2)
C68 C -0.1580(3) 0.4680(7) 0.5927(3)
H58 H -0.1377 0.5345 0.6099
H59 H -0.1541 0.4125 0.6217
H60 H -0.1940 0.4891 0.5736
C69 C -0.0817(2) 0.3831(6) 0.5819(3)
H61 H -0.0718 0.3339 0.5583
H62 H -0.0770 0.3438 0.6164
H63 H -0.0605 0.4507 0.5910
C70 C -0.1419(3) 0.5017(7) 0.5075(3)
H64 H -0.1319 0.4669 0.4797
H65 H -0.1187 0.5636 0.5257
H66 H -0.1768 0.5304 0.4890
C71 C -0.03663(17) 0.3175(3) 0.7566(2)
H67 H -0.0629 0.2772 0.7616
C72 C -0.03915(18) 0.4354(3) 0.7569(2)
H68 H -0.0664 0.4724 0.7615
C73 C 0.0000 0.4978(4) 0.7500
C74 C 0.0000 0.6228(4) 0.7500
C75 C -0.04573(16) 0.6858(3) 0.7248(2)
C76 C -0.04414(16) 0.8031(3) 0.7253(2)
N7A N 0.01853(11) 0.0605(2) 0.83260(12)
N8A N 0.07486(10) 0.0607(2) 0.76538(11)
N9A N -0.08239(16) -0.1155(3) 0.89223(17)
H35A H -0.0706 -0.1176 0.8663
N10A N 0.16367(15) 0.2186(3) 0.94817(18)
H36A H 0.1373 0.2230 0.9158
O3A O -0.09387(19) -0.2277(3) 0.95680(18)
O4A O 0.21031(15) 0.3239(4) 1.02528(17)
C39A C -0.01460(14) 0.0685(3) 0.85930(15)
C40A C 0.01422(17) 0.0651(4) 0.91971(17)
H37A H 0.0006 0.0718 0.9469
C41A C 0.06427(16) 0.0502(4) 0.92976(17)
H38A H 0.0918 0.0420 0.9652
C42A C 0.06764(15) 0.0493(3) 0.87625(16)
C43A C 0.11407(14) 0.0430(3) 0.86970(16)
C44A C 0.11726(13) 0.0516(3) 0.81725(15)
C45A C 0.16480(14) 0.0546(3) 0.80981(17)
H39A H 0.1983 0.0501 0.8384
C46A C 0.15218(14) 0.0651(3) 0.75389(17)
H40A H 0.1752 0.0694 0.7364
C47A C 0.09653(13) 0.0682(3) 0.72626(15)
C48A C -0.06863(15) 0.0741(3) 0.83232(15)
C49A C -0.09933(14) 0.0839(4) 0.86755(16)
C50A C -0.12002(19) 0.1864(5) 0.8732(2)
H41A H -0.1132 0.2517 0.8567
C51A C -0.1512(2) 0.1942(6) 0.9034(3)
H42A H -0.1645 0.2644 0.9081
C52A C -0.1620(2) 0.0967(6) 0.9262(2)
H43A H -0.1839 0.1015 0.9451
C53A C -0.14155(19) -0.0074(5) 0.92198(19)
H44A H -0.1496 -0.0725 0.9375
C54A C -0.10860(17) -0.0139(4) 0.89408(18)
C55A C -0.0731(2) -0.2095(5) 0.9249(2)
C56A C -0.0330(3) -0.2963(7) 0.9211(4)
C57A C 0.0136(3) -0.2914(7) 0.9787(3)
H45A H 0.0015 -0.2908 1.0085
H46A H 0.0333 -0.2233 0.9808
H47A H 0.0353 -0.3572 0.9829
C58A C -0.0106(3) -0.2701(6) 0.8787(4)
H48A H 0.0129 -0.3301 0.8793
H49A H 0.0079 -0.1989 0.8885
H50A H -0.0382 -0.2646 0.8414
C59A C -0.0528(4) -0.4136(7) 0.9170(4)
H51A H -0.0841 -0.4213 0.8829
H52A H -0.0602 -0.4297 0.9495
H53A H -0.0271 -0.4663 0.9159
C60A C 0.16366(15) 0.0238(4) 0.92073(17)
C61A C 0.18793(18) -0.0827(4) 0.92995(19)
H54A H 0.1723 -0.1418 0.9045
C62A C 0.23381(19) -0.1024(5) 0.9752(2)
H55A H 0.2497 -0.1737 0.9802
C63A C 0.25662(18) -0.0151(5) 1.0137(2)
H56A H 0.2878 -0.0284 1.0450
C64A C 0.23384(18) 0.0908(5) 1.0062(2)
H57A H 0.2496 0.1486 1.0325
C65A C 0.18733(15) 0.1118(4) 0.95961(17)
C66A C 0.1743(2) 0.3166(5) 0.9783(2)
C67A C 0.1395(2) 0.4171(5) 0.9501(2)
C68A C 0.1580(3) 0.4680(7) 0.9073(3)
H58A H 0.1377 0.5345 0.8901
H59A H 0.1541 0.4125 0.8783
H60A H 0.1940 0.4891 0.9264
C69A C 0.0817(2) 0.3831(6) 0.9181(3)
H61A H 0.0718 0.3339 0.9417
H62A H 0.0770 0.3438 0.8836
H63A H 0.0605 0.4507 0.9090
C70A C 0.1419(3) 0.5017(7) 0.9925(3)
H64A H 0.1319 0.4669 1.0203
H65A H 0.1187 0.5636 0.9743
H66A H 0.1768 0.5304 1.0110
C71A C 0.03663(17) 0.3175(3) 0.7434(2)
H67A H 0.0629 0.2772 0.7384
C72A C 0.03915(18) 0.4354(3) 0.7431(2)
H68A H 0.0664 0.4724 0.7385
C75A C 0.04573(16) 0.6858(3) 0.7752(2)
C76A C 0.04414(16) 0.8031(3) 0.7747(2)
Co2_2 Co 0.0000 1.06037(5) 0.7500
N12_2 N 0.0000 -0.1370(4) 0.7500
Co1 Co 0.5000 0.25961(5) 0.2500
N1 N 0.49954(11) 0.2611(2) 0.32653(12)
N2 N 0.57754(11) 0.2589(2) 0.28560(12)
N3 N 0.34385(16) 0.0907(4) 0.31150(17)
H1 H 0.3687 0.0879 0.3003
N4 N 0.65871(15) 0.4474(3) 0.43446(16)
H2 H 0.6379 0.4351 0.3996
N5 N 0.5000 0.0642(3) 0.2500
N6 N 0.5000 -0.5407(3) 0.2500
O1 O 0.28753(19) -0.0229(4) 0.3267(2)
O2 O 0.70603(18) 0.5879(3) 0.49297(17)
C1 C 0.45678(15) 0.2690(3) 0.33944(15)
C2 C 0.47327(17) 0.2745(4) 0.40017(17)
H3 H 0.4517 0.2803 0.4194
C3 C 0.52465(17) 0.2698(3) 0.42363(17)
H4 H 0.5458 0.2712 0.4624
C4 C 0.54176(14) 0.2621(3) 0.37847(15)
C5 C 0.59363(14) 0.2545(3) 0.38700(15)
C6 C 0.60974(15) 0.2523(3) 0.34243(16)
C7 C 0.66318(16) 0.2509(4) 0.34997(17)
H5 H 0.6922 0.2446 0.3844
C8 C 0.66370(16) 0.2602(4) 0.29836(19)
H6 H 0.6929 0.2636 0.2902
C9 C 0.61018(15) 0.2641(3) 0.25797(17)
C10 C 0.40544(15) 0.2724(3) 0.30050(17)
C11 C 0.36529(17) 0.2883(4) 0.32468(18)
C12 C 0.3587(2) 0.3956(5) 0.3437(2)
H7 H 0.3764 0.4582 0.3381
C13 C 0.3257(3) 0.4097(6) 0.3711(3)
H8 H 0.3205 0.4822 0.3826
C14 C 0.3013(3) 0.3187(7) 0.3811(3)
H9 H 0.2809 0.3284 0.4014
C15 C 0.3059(2) 0.2137(6) 0.3619(3)
H10 H 0.2875 0.1526 0.3677
C16 C 0.33799(18) 0.1965(5) 0.33366(19)
C17 C 0.3167(2) -0.0079(5) 0.3048(2)
C18 C 0.3252(3) -0.0981(6) 0.2680(3)
C19 C 0.3774(3) -0.0964(6) 0.2665(3)
H11 H 0.4035 -0.0809 0.3039
H12 H 0.3783 -0.0378 0.2408
H13 H 0.3842 -0.1693 0.2538
C20 C 0.3058(3) -0.2085(6) 0.2780(3)
H14 H 0.2981 -0.2570 0.2455
H15 H 0.2747 -0.1967 0.2841
H16 H 0.3318 -0.2441 0.3110
C21 C 0.2867(3) -0.0667(7) 0.2077(3)
H17 H 0.2562 -0.1136 0.1970
H18 H 0.3026 -0.0790 0.1816
H19 H 0.2771 0.0123 0.2068
C22 C 0.63367(16) 0.2561(4) 0.44784(17)
C23 C 0.63787(18) 0.1623(4) 0.48242(19)
H20 H 0.6181 0.0973 0.4669
C24 C 0.6711(3) 0.1640(6) 0.5398(2)
H21 H 0.6742 0.1011 0.5630
C25 C 0.7000(2) 0.2643(6) 0.5616(2)
H22 H 0.7221 0.2673 0.6001
C26 C 0.69698(19) 0.3565(5) 0.5288(2)
H23 H 0.7169 0.4212 0.5445
C27 C 0.66367(17) 0.3539(4) 0.47110(17)
C28 C 0.6807(2) 0.5527(4) 0.4441(2)
C29 C 0.6734(2) 0.6212(5) 0.3935(2)
C30 C 0.7272(3) 0.6473(6) 0.3965(3)
H24 H 0.7496 0.6700 0.4345
H25 H 0.7249 0.7082 0.3706
H26 H 0.7411 0.5803 0.3862
C31 C 0.6470(3) 0.7343(6) 0.3982(4)
H27 H 0.6133 0.7182 0.3975
H28 H 0.6432 0.7832 0.3668
H29 H 0.6680 0.7718 0.4333
C32 C 0.6409(3) 0.5700(6) 0.3355(3)
H30 H 0.6559 0.4987 0.3315
H31 H 0.6401 0.6218 0.3062
H32 H 0.6061 0.5571 0.3320
C33 C 0.51690(17) 0.0044(3) 0.29807(16)
H33 H 0.5288 0.0443 0.3323
C34 C 0.51779(17) -0.1122(3) 0.30006(16)
H34 H 0.5303 -0.1497 0.3350
C35 C 0.5000 -0.1745(4) 0.2500
C36 C 0.5000 -0.3015(4) 0.2500
C37 C 0.49042(17) -0.3631(3) 0.29089(17)
C38 C 0.49019(16) -0.4806(3) 0.28887(16)
N1A N 0.50046(11) 0.2611(2) 0.17347(12)
N2A N 0.42246(11) 0.2589(2) 0.21440(12)
N3A N 0.65615(16) 0.0907(4) 0.18850(17)
H1A H 0.6313 0.0879 0.1997
N4A N 0.34129(15) 0.4474(3) 0.06554(16)
H2A H 0.3621 0.4351 0.1004
O1A O 0.71247(19) -0.0229(4) 0.1733(2)
O2A O 0.29397(18) 0.5879(3) 0.00703(17)
C1A C 0.54322(15) 0.2690(3) 0.16056(15)
C2A C 0.52673(17) 0.2745(4) 0.09983(17)
H3A H 0.5483 0.2803 0.0806
C3A C 0.47535(17) 0.2698(3) 0.07637(17)
H4A H 0.4542 0.2712 0.0376
C4A C 0.45824(14) 0.2621(3) 0.12153(15)
C5A C 0.40637(14) 0.2545(3) 0.11300(15)
C6A C 0.39026(15) 0.2523(3) 0.15757(16)
C7A C 0.33682(16) 0.2509(4) 0.15003(17)
H5A H 0.3078 0.2446 0.1156
C8A C 0.33630(16) 0.2602(4) 0.20164(19)
H6A H 0.3071 0.2636 0.2098
C9A C 0.38982(15) 0.2641(3) 0.24203(17)
C10A C 0.59456(15) 0.2724(3) 0.19950(17)
C11A C 0.63471(17) 0.2883(4) 0.17532(18)
C12A C 0.6413(2) 0.3956(5) 0.1563(2)
H7A H 0.6236 0.4582 0.1619
C13A C 0.6743(3) 0.4097(6) 0.1289(3)
H8A H 0.6795 0.4822 0.1174
C14A C 0.6987(3) 0.3187(7) 0.1189(3)
H9A H 0.7191 0.3284 0.0986
C15A C 0.6941(2) 0.2137(6) 0.1381(3)
H10A H 0.7125 0.1526 0.1323
C16A C 0.66201(18) 0.1965(5) 0.16634(19)
C17A C 0.6833(2) -0.0079(5) 0.1952(2)
C18A C 0.6748(3) -0.0981(6) 0.2320(3)
C19A C 0.6226(3) -0.0964(6) 0.2335(3)
H11A H 0.5965 -0.0809 0.1961
H12A H 0.6217 -0.0378 0.2592
H13A H 0.6158 -0.1693 0.2462
C20A C 0.6942(3) -0.2085(6) 0.2220(3)
H14A H 0.7019 -0.2570 0.2545
H15A H 0.7253 -0.1967 0.2159
H16A H 0.6682 -0.2441 0.1890
C21A C 0.7133(3) -0.0667(7) 0.2923(3)
H17A H 0.7438 -0.1136 0.3030
H18A H 0.6974 -0.0790 0.3184
H19A H 0.7229 0.0123 0.2932
C22A C 0.36633(16) 0.2561(4) 0.05216(17)
C23A C 0.36213(18) 0.1623(4) 0.01758(19)
H20A H 0.3819 0.0973 0.0331
C24A C 0.3289(3) 0.1640(6) -0.0398(2)
H21A H 0.3258 0.1011 -0.0630
C25A C 0.3000(2) 0.2643(6) -0.0616(2)
H22A H 0.2779 0.2673 -0.1001
C26A C 0.30302(19) 0.3565(5) -0.0288(2)
H23A H 0.2831 0.4212 -0.0445
C27A C 0.33633(17) 0.3539(4) 0.02890(17)
C28A C 0.3193(2) 0.5527(4) 0.0559(2)
C29A C 0.3266(2) 0.6212(5) 0.1065(2)
C30A C 0.2728(3) 0.6473(6) 0.1035(3)
H24A H 0.2504 0.6700 0.0655
H25A H 0.2751 0.7082 0.1294
H26A H 0.2589 0.5803 0.1138
C31A C 0.3530(3) 0.7343(6) 0.1018(4)
H27A H 0.3867 0.7182 0.1025
H28A H 0.3568 0.7832 0.1332
H29A H 0.3320 0.7718 0.0667
C32A C 0.3591(3) 0.5700(6) 0.1645(3)
H30A H 0.3441 0.4987 0.1685
H31A H 0.3599 0.6218 0.1938
H32A H 0.3939 0.5571 0.1680
C33A C 0.48310(17) 0.0044(3) 0.20193(16)
H33A H 0.4712 0.0443 0.1677
C34A C 0.48221(17) -0.1122(3) 0.19994(16)
H34A H 0.4697 -0.1497 0.1650
C37A C 0.50958(17) -0.3631(3) 0.20911(17)
C38A C 0.50981(16) -0.4806(3) 0.21113(16)
Co1_2 Co 0.5000 -0.74039(5) 0.2500
N6_2 N 0.5000 0.4593(3) 0.2500
loop_
_geom_bond_atom_site_label_1
_geom_bond_atom_site_label_2
_geom_bond_site_symmetry_1
_geom_bond_site_symmetry_2
Co1 N1 1_555 1_555
N1 C1 1_555 1_555
N2 Co1 1_555 1_555
N3 H1 1_555 1_555
N4 H2 1_555 1_555
N5 Co1 1_555 1_555
N6 C38 1_555 1_555
O1 C17 1_555 1_555
O2 C28 1_555 1_555
C1 C2 1_555 1_555
C2 H3 1_555 1_555
C3 C2 1_555 1_555
H4 C3 1_555 1_555
C4 N1 1_555 1_555
C5 C4 1_555 1_555
C6 N2 1_555 1_555
C7 C6 1_555 1_555
H5 C7 1_555 1_555
C8 C7 1_555 1_555
H6 C8 1_555 1_555
C9 N2 1_555 1_555
C10 C1 1_555 1_555
C11 C10 1_555 1_555
C12 C11 1_555 1_555
H7 C12 1_555 1_555
C13 C12 1_555 1_555
H8 C13 1_555 1_555
C14 C13 1_555 1_555
H9 C14 1_555 1_555
C15 C14 1_555 1_555
H10 C15 1_555 1_555
C16 N3 1_555 1_555
C17 N3 1_555 1_555
C18 C17 1_555 1_555
C19 C18 1_555 1_555
H11 C19 1_555 1_555
H12 C19 1_555 1_555
H13 C19 1_555 1_555
C20 C18 1_555 1_555
H14 C20 1_555 1_555
H15 C20 1_555 1_555
H16 C20 1_555 1_555
C21 C18 1_555 1_555
H17 C21 1_555 1_555
H18 C21 1_555 1_555
H19 C21 1_555 1_555
C22 C5 1_555 1_555
C23 C22 1_555 1_555
H20 C23 1_555 1_555
C24 C23 1_555 1_555
H21 C24 1_555 1_555
C25 C24 1_555 1_555
H22 C25 1_555 1_555
C26 C25 1_555 1_555
H23 C26 1_555 1_555
C27 N4 1_555 1_555
C28 N4 1_555 1_555
C29 C28 1_555 1_555
C30 C29 1_555 1_555
H24 C30 1_555 1_555
H25 C30 1_555 1_555
H26 C30 1_555 1_555
C31 C29 1_555 1_555
H27 C31 1_555 1_555
H28 C31 1_555 1_555
H29 C31 1_555 1_555
C32 C29 1_555 1_555
H30 C32 1_555 1_555
H31 C32 1_555 1_555
H32 C32 1_555 1_555
C33 N5 1_555 1_555
H33 C33 1_555 1_555
C34 C33 1_555 1_555
H34 C34 1_555 1_555
C35 C34 1_555 1_555
C36 C35 1_555 1_555
C37 C36 1_555 1_555
C38 C37 1_555 1_555
Co2 N7 1_555 1_555
N7 C39 1_555 1_555
N8 Co2 1_555 1_555
N9 H35 1_555 1_555
N10 H36 1_555 1_555
N11 Co2 1_555 1_555
N12 C76 1_555 1_555
O3 C55 1_555 1_555
O4 C66 1_555 1_555
C39 C40 1_555 1_555
C40 H37 1_555 1_555
C41 C40 1_555 1_555
H38 C41 1_555 1_555
C42 N7 1_555 1_555
C43 C42 1_555 1_555
C44 N8 1_555 1_555
C45 C44 1_555 1_555
H39 C45 1_555 1_555
C46 C45 1_555 1_555
H40 C46 1_555 1_555
C47 N8 1_555 1_555
C48 C39 1_555 1_555
C49 C48 1_555 1_555
C50 C49 1_555 1_555
H41 C50 1_555 1_555
C51 C50 1_555 1_555
H42 C51 1_555 1_555
C52 C51 1_555 1_555
H43 C52 1_555 1_555
C53 C52 1_555 1_555
H44 C53 1_555 1_555
C54 N9 1_555 1_555
C55 N9 1_555 1_555
C56 C55 1_555 1_555
C57 C56 1_555 1_555
H45 C57 1_555 1_555
H46 C57 1_555 1_555
H47 C57 1_555 1_555
C58 C56 1_555 1_555
H48 C58 1_555 1_555
H49 C58 1_555 1_555
H50 C58 1_555 1_555
C59 C56 1_555 1_555
H51 C59 1_555 1_555
H52 C59 1_555 1_555
H53 C59 1_555 1_555
C60 C43 1_555 1_555
C61 C60 1_555 1_555
H54 C61 1_555 1_555
C62 C61 1_555 1_555
H55 C62 1_555 1_555
C63 C62 1_555 1_555
H56 C63 1_555 1_555
C64 C63 1_555 1_555
H57 C64 1_555 1_555
C65 N10 1_555 1_555
C66 N10 1_555 1_555
C67 C66 1_555 1_555
C68 C67 1_555 1_555
H58 C68 1_555 1_555
H59 C68 1_555 1_555
H60 C68 1_555 1_555
C69 C67 1_555 1_555
H61 C69 1_555 1_555
H62 C69 1_555 1_555
H63 C69 1_555 1_555
C70 C67 1_555 1_555
H64 C70 1_555 1_555
H65 C70 1_555 1_555
H66 C70 1_555 1_555
C71 N11 1_555 1_555
H67 C71 1_555 1_555
C72 C71 1_555 1_555
H68 C72 1_555 1_555
C73 C72 1_555 1_555
C74 C73 1_555 1_555
C75 C74 1_555 1_555
C76 C75 1_555 1_555
N1A Co1 1_555 1_555
N2A Co1 1_555 1_555
N3A H1A 1_555 1_555
N4A H2A 1_555 1_555
O1A C17A 1_555 1_555
O2A C28A 1_555 1_555
C1A N1A 1_555 1_555
C2A C1A 1_555 1_555
H3A C2A 1_555 1_555
C3A C2A 1_555 1_555
H4A C3A 1_555 1_555
C4A N1A 1_555 1_555
C5A C4A 1_555 1_555
C6A N2A 1_555 1_555
C7A C6A 1_555 1_555
H5A C7A 1_555 1_555
C8A C7A 1_555 1_555
H6A C8A 1_555 1_555
C9A C10 1_555 1_555
C10A C9 1_555 1_555
C11A C10A 1_555 1_555
C12A C11A 1_555 1_555
H7A C12A 1_555 1_555
C13A C12A 1_555 1_555
H8A C13A 1_555 1_555
C14A C13A 1_555 1_555
H9A C14A 1_555 1_555
C15A C14A 1_555 1_555
H10A C15A 1_555 1_555
C16A N3A 1_555 1_555
C17A N3A 1_555 1_555
C18A C17A 1_555 1_555
C19A C18A 1_555 1_555
H11A C19A 1_555 1_555
H12A C19A 1_555 1_555
H13A C19A 1_555 1_555
C20A C18A 1_555 1_555
H14A C20A 1_555 1_555
H15A C20A 1_555 1_555
H16A C20A 1_555 1_555
C21A C18A 1_555 1_555
H17A C21A 1_555 1_555
H18A C21A 1_555 1_555
H19A C21A 1_555 1_555
C22A C5A 1_555 1_555
C23A C22A 1_555 1_555
H20A C23A 1_555 1_555
C24A C23A 1_555 1_555
H21A C24A 1_555 1_555
C25A C24A 1_555 1_555
H22A C25A 1_555 1_555
C26A C25A 1_555 1_555
H23A C26A 1_555 1_555
C27A N4A 1_555 1_555
C28A N4A 1_555 1_555
C29A C28A 1_555 1_555
C30A C29A 1_555 1_555
H24A C30A 1_555 1_555
H25A C30A 1_555 1_555
H26A C30A 1_555 1_555
C31A C29A 1_555 1_555
H27A C31A 1_555 1_555
H28A C31A 1_555 1_555
H29A C31A 1_555 1_555
C32A C29A 1_555 1_555
H30A C32A 1_555 1_555
H31A C32A 1_555 1_555
H32A C32A 1_555 1_555
C33A N5 1_555 1_555
H33A C33A 1_555 1_555
C34A C35 1_555 1_555
H34A C34A 1_555 1_555
C37A C36 1_555 1_555
C38A N6 1_555 1_555
Co1_2 N6 1_555 1_555
N6_2 Co1 1_555 1_555
N7A Co2 1_555 1_555
N8A Co2 1_555 1_555
N9A H35A 1_555 1_555
N10A H36A 1_555 1_555
O3A C55A 1_555 1_555
O4A C66A 1_555 1_555
C39A N7A 1_555 1_555
C40A C39A 1_555 1_555
H37A C40A 1_555 1_555
C41A C40A 1_555 1_555
H38A C41A 1_555 1_555
C42A N7A 1_555 1_555
C43A C42A 1_555 1_555
C44A N8A 1_555 1_555
C45A C44A 1_555 1_555
H39A C45A 1_555 1_555
C46A C45A 1_555 1_555
H40A C46A 1_555 1_555
C47A C48 1_555 1_555
C48A C47 1_555 1_555
C49A C48A 1_555 1_555
C50A C49A 1_555 1_555
H41A C50A 1_555 1_555
C51A C50A 1_555 1_555
H42A C51A 1_555 1_555
C52A C51A 1_555 1_555
H43A C52A 1_555 1_555
C53A C52A 1_555 1_555
H44A C53A 1_555 1_555
C54A N9A 1_555 1_555
C55A N9A 1_555 1_555
C56A C55A 1_555 1_555
C57A C56A 1_555 1_555
H45A C57A 1_555 1_555
H46A C57A 1_555 1_555
H47A C57A 1_555 1_555
C58A C56A 1_555 1_555
H48A C58A 1_555 1_555
H49A C58A 1_555 1_555
H50A C58A 1_555 1_555
C59A C56A 1_555 1_555
H51A C59A 1_555 1_555
H52A C59A 1_555 1_555
H53A C59A 1_555 1_555
C60A C43A 1_555 1_555
C61A C60A 1_555 1_555
H54A C61A 1_555 1_555
C62A C61A 1_555 1_555
H55A C62A 1_555 1_555
C63A C62A 1_555 1_555
H56A C63A 1_555 1_555
C64A C63A 1_555 1_555
H57A C64A 1_555 1_555
C65A N10A 1_555 1_555
C66A N10A 1_555 1_555
C67A C66A 1_555 1_555
C68A C67A 1_555 1_555
H58A C68A 1_555 1_555
H59A C68A 1_555 1_555
H60A C68A 1_555 1_555
C69A C67A 1_555 1_555
H61A C69A 1_555 1_555
H62A C69A 1_555 1_555
H63A C69A 1_555 1_555
C70A C67A 1_555 1_555
H64A C70A 1_555 1_555
H65A C70A 1_555 1_555
H66A C70A 1_555 1_555
C71A N11 1_555 1_555
H67A C71A 1_555 1_555
C72A C73 1_555 1_555
H68A C72A 1_555 1_555
C75A C74 1_555 1_555
C76A N12 1_555 1_555
Co2_2 N12 1_555 1_555
N12_2 Co2 1_555 1_555
C3 C4 1_555 1_555
C5 C6 1_555 1_555
C8 C9 1_555 1_555
C11 C16 1_555 1_555
C15 C16 1_555 1_555
C22 C27 1_555 1_555
C26 C27 1_555 1_555
C41 C42 1_555 1_555
C43 C44 1_555 1_555
C46 C47 1_555 1_555
C49 C54 1_555 1_555
C53 C54 1_555 1_555
C60 C65 1_555 1_555
C64 C65 1_555 1_555
N2A C9A 1_555 1_555
C1A C10A 1_555 1_555
C3A C4A 1_555 1_555
C5A C6A 1_555 1_555
C8A C9A 1_555 1_555
C11A C16A 1_555 1_555
C15A C16A 1_555 1_555
C22A C27A 1_555 1_555
C26A C27A 1_555 1_555
C33A C34A 1_555 1_555
C37A C38A 1_555 1_555
N8A C47A 1_555 1_555
C39A C48A 1_555 1_555
C41A C42A 1_555 1_555
C43A C44A 1_555 1_555
C46A C47A 1_555 1_555
C49A C54A 1_555 1_555
C53A C54A 1_555 1_555
C60A C65A 1_555 1_555
C64A C65A 1_555 1_555
C71A C72A 1_555 1_555
C75A C76A 1_555 1_555

#END
