
#######################################################################
#
#                 Cambridge Crystallographic Data Centre
#                                CCDC 
#
#######################################################################
#
# If this CIF has been generated from an entry in the Cambridge 
# Structural Database, then it will include bibliographic, chemical, 
# crystal, experimental, refinement or atomic coordinate data resulting 
# from the CCDC's data processing and validation procedures.
#
#######################################################################

data_ROFZAP
_symmetry_cell_setting           orthorhombic
_symmetry_space_group_name_H-M   'P b c a'
_symmetry_Int_Tables_number      61
_space_group_name_Hall           '-P 2ac 2ab'
loop_
_symmetry_equiv_pos_site_id
_symmetry_equiv_pos_as_xyz
1 x,y,z
2 1/2-x,-y,1/2+z
3 -x,1/2+y,1/2-z
4 1/2+x,1/2-y,-z
5 -x,-y,-z
6 1/2+x,y,1/2-z
7 x,1/2-y,1/2+z
8 1/2-x,1/2+y,z
_cell_length_a                   7.2425(7)
_cell_length_b                   16.6599(16)
_cell_length_c                   21.341(2)
_cell_angle_alpha                90
_cell_angle_beta                 90
_cell_angle_gamma                90
_cell_volume                     2574.99
loop_
_atom_site_label
_atom_site_type_symbol
_atom_site_fract_x
_atom_site_fract_y
_atom_site_fract_z
Cu1 Cu 0.32444(5) 0.22330(2) 0.711486(18)
Cl1 Cl 0.51772(11) 0.13969(5) 0.76832(4)
O1 O 0.1413(3) 0.50050(14) 0.59767(11)
O2 O 0.2267(3) 0.23555(14) 0.55427(10)
O3 O 0.3879(3) 0.15282(14) 0.64007(10)
H1 H 0.3842 0.1044 0.6467
H2 H 0.3310 0.1742 0.6114
N1 N 0.2745(3) 0.30031(16) 0.78408(13)
N2 N 0.2519(4) 0.30541(16) 0.64897(12)
N3 N 0.1760(4) 0.37169(16) 0.55966(12)
C1 C 0.2431(5) 0.3808(2) 0.78009(15)
C2 C 0.2183(5) 0.4272(2) 0.83411(16)
H3 H 0.1993 0.4834 0.8305
C3 C 0.2214(5) 0.3918(2) 0.89240(16)
H4 H 0.2057 0.4232 0.9292
C4 C 0.2478(5) 0.3095(2) 0.89644(15)
H5 H 0.2480 0.2834 0.9360
C5 C 0.2738(4) 0.2666(2) 0.84218(15)
H6 H 0.2923 0.2103 0.8454
C6 C 0.2264(4) 0.4202(2) 0.72035(15)
H7 H 0.2152 0.4770 0.7211
C7 C 0.2251(4) 0.3851(2) 0.66354(15)
C8 C 0.1777(5) 0.4296(2) 0.60506(15)
C9 C 0.2200(4) 0.2973(2) 0.58621(15)
C10 C 0.1061(5) 0.3819(2) 0.49605(15)
H8 H 0.0128 0.4254 0.4961
H9 H 0.0431 0.3319 0.4831
C11 C 0.2519(5) 0.4017(2) 0.44850(16)
H10 H 0.2098 0.4134 0.4073
C12 C 0.4289(5) 0.4047(2) 0.45737(18)
H11 H 0.4787 0.3936 0.4976
H12 H 0.5088 0.4180 0.4236
Cu1E Cu 0.82444(5) 0.22330(2) 0.788514(18)
Cl1E Cl 0.01772(11) 0.13969(5) 0.73168(4)
loop_
_geom_bond_atom_site_label_1
_geom_bond_atom_site_label_2
_geom_bond_site_symmetry_1
_geom_bond_site_symmetry_2
Cu1 Cl1 1_555 1_555
Cl1 Cu1E 1_555 1_555
O1 C8 1_555 1_555
O2 C9 1_555 1_555
O3 Cu1 1_555 1_555
H1 O3 1_555 1_555
H2 O3 1_555 1_555
N1 Cu1 1_555 1_555
N2 Cu1 1_555 1_555
N3 C8 1_555 1_555
C1 N1 1_555 1_555
C2 C1 1_555 1_555
H3 C2 1_555 1_555
C3 C2 1_555 1_555
H4 C3 1_555 1_555
C4 C3 1_555 1_555
H5 C4 1_555 1_555
C5 N1 1_555 1_555
H6 C5 1_555 1_555
C6 C1 1_555 1_555
H7 C6 1_555 1_555
C7 N2 1_555 1_555
C8 C7 1_555 1_555
C9 N2 1_555 1_555
C10 N3 1_555 1_555
H8 C10 1_555 1_555
H9 C10 1_555 1_555
C11 C10 1_555 1_555
H10 C11 1_555 1_555
C12 C11 1_555 1_555
H11 C12 1_555 1_555
H12 C12 1_555 1_555
Cl1E Cu1 1_555 1_555
N3 C9 1_555 1_555
C4 C5 1_555 1_555
C6 C7 1_555 1_555

#END
