
#######################################################################
#
#                 Cambridge Crystallographic Data Centre
#                                CCDC 
#
#######################################################################
#
# If this CIF has been generated from an entry in the Cambridge 
# Structural Database, then it will include bibliographic, chemical, 
# crystal, experimental, refinement or atomic coordinate data resulting 
# from the CCDC's data processing and validation procedures.
#
#######################################################################

data_ROGHEA
_symmetry_cell_setting           orthorhombic
_symmetry_space_group_name_H-M   'P b a 2'
_symmetry_Int_Tables_number      32
_space_group_name_Hall           'P 2 -2ab'
loop_
_symmetry_equiv_pos_site_id
_symmetry_equiv_pos_as_xyz
1 x,y,z
2 -x,-y,z
3 1/2-x,1/2+y,z
4 1/2+x,1/2-y,z
_cell_length_a                   17.297(8)
_cell_length_b                   13.410(6)
_cell_length_c                   6.341(2)
_cell_angle_alpha                90
_cell_angle_beta                 90
_cell_angle_gamma                90
_cell_volume                     1470.81
loop_
_atom_site_label
_atom_site_type_symbol
_atom_site_fract_x
_atom_site_fract_y
_atom_site_fract_z
Cu1 Cu 0.93413(4) 1.07977(5) 1.0000
N1 N 0.8282(3) 1.0726(5) 1.1171(9)
N2 N 0.7748(3) 1.0705(4) 0.993(1)
N3 N 0.7242(4) 1.0683(6) 0.877(1)
N4 N 0.9386(3) 1.2240(4) 0.979(1)
N5 N 0.8794(4) 1.2695(5) 0.9431(9)
N6 N 0.8259(5) 1.3161(7) 0.907(1)
N7 N 0.9504(3) 0.9328(4) 0.975(1)
N8 N 0.9065(3) 0.8693(4) 1.0301(8)
N9 N 0.8645(5) 0.8068(6) 1.080(1)
Cu2 Cu 0.72118(4) 0.56815(5) 1.4769(2)
N10 N 0.7417(3) 0.7166(3) 1.480(1)
N11 N 0.7731(3) 0.9188(3) 1.4985(8)
C1 C 0.7056(3) 0.8831(4) 1.4271(9)
C2 C 0.8254(4) 0.8533(5) 1.563(1)
C3 C 0.8089(4) 0.7508(5) 1.560(1)
C4 C 0.6895(4) 0.7825(5) 1.415(1)
O1 O 0.6734(3) 1.0508(3) 1.3727(7)
O2 O 0.5837(3) 0.9377(4) 1.303(1)
C5 C 0.6492(4) 0.9623(5) 1.361(1)
N12 N 0.8798(3) 1.0773(5) 1.6096(9)
N13 N 0.9351(3) 1.1052(5) 1.516(1)
N14 N 0.9893(5) 1.134(1) 1.435(1)
H1 H 0.8810(4) 0.8789(5) 1.619(1)
H2 H 0.8507(4) 0.6986(5) 1.622(1)
H3 H 0.6348(4) 0.7574(5) 1.352(1)
Cu2B Cu 0.77882(4) 1.06815(5) 1.4769(2)
Cu1A Cu 1.06587(4) 0.92023(5) 1.0000
N7A N 1.0496(3) 1.0672(4) 0.975(1)
N10B N 0.7583(3) 1.2166(3) 1.480(1)
K1 K 0.0437(2) 0.3510(3) 0.2252(6)
K2? K 0.0518(2) 0.3805(3) 0.1116(7)
K3? K 0.0204(5) 0.3430(8) 0.640(2)
loop_
_geom_bond_atom_site_label_1
_geom_bond_atom_site_label_2
_geom_bond_site_symmetry_1
_geom_bond_site_symmetry_2
Cu1 N1 1_555 1_555
N1 N2 1_555 1_555
N2 N3 1_555 1_555
N4 Cu1 1_555 1_555
N5 N4 1_555 1_555
N6 N5 1_555 1_555
N7 Cu1 1_555 1_555
N8 N7 1_555 1_555
N9 N8 1_555 1_555
Cu2 N10 1_555 1_555
N10 C3 1_555 1_555
N11 C1 1_555 1_555
C1 C4 1_555 1_555
C2 N11 1_555 1_555
C3 C2 1_555 1_555
C4 N10 1_555 1_555
O1 C5 1_555 1_555
O2 C5 1_555 1_555
C5 C1 1_555 1_555
N12 N13 1_555 1_555
N13 N14 1_555 1_555
H1 C2 1_555 1_555
H2 C3 1_555 1_555
H3 C4 1_555 1_555
Cu2B N1 1_555 1_555
Cu1A N7 1_555 1_555
N7A Cu1 1_555 1_555
N10B Cu2B 1_555 1_555
N11 Cu2B 1_555 1_555
O1 Cu2B 1_555 1_555
N12 Cu2B 1_555 1_555
Cu1A N7A 1_555 1_555

#END
