
#######################################################################
#
#                 Cambridge Crystallographic Data Centre
#                                CCDC 
#
#######################################################################
#
# If this CIF has been generated from an entry in the Cambridge 
# Structural Database, then it will include bibliographic, chemical, 
# crystal, experimental, refinement or atomic coordinate data resulting 
# from the CCDC's data processing and validation procedures.
#
#######################################################################

data_ROGLAA01
_symmetry_cell_setting           orthorhombic
_symmetry_space_group_name_H-M   'P n m a'
_symmetry_Int_Tables_number      62
_space_group_name_Hall           '-P 2ac 2n'
loop_
_symmetry_equiv_pos_site_id
_symmetry_equiv_pos_as_xyz
1 x,y,z
2 1/2-x,-y,1/2+z
3 1/2+x,1/2-y,1/2-z
4 -x,1/2+y,-z
5 -x,-y,-z
6 1/2+x,y,1/2-z
7 1/2-x,1/2+y,1/2+z
8 x,1/2-y,z
_cell_length_a                   11.853(3)
_cell_length_b                   6.3870(10)
_cell_length_c                   11.0300(10)
_cell_angle_alpha                90
_cell_angle_beta                 90
_cell_angle_gamma                90
_cell_volume                     835.027
loop_
_atom_site_label
_atom_site_type_symbol
_atom_site_fract_x
_atom_site_fract_y
_atom_site_fract_z
Ag1 Ag 0.45022(2) 0.25000 0.26835(3)
N1 N 0.5249(2) 0.25000 0.4492(3)
C1 C 0.6361(3) 0.25000 0.4733(3)
C2 C 0.7121(3) 0.25000 0.3636(3)
N2 N 0.8337(3) 0.25000 0.3866(3)
C3 C 0.6763(3) 0.25000 0.5911(3)
C4 C 0.6015(4) 0.25000 0.6871(4)
C5 C 0.4880(4) 0.25000 0.6619(4)
C6 C 0.4517(3) 0.25000 0.5436(4)
N3 N 0.6233(3) 0.25000 0.0549(3)
O1 O 0.59239(19) 0.4185(4) 0.1010(2)
O2 O 0.6842(3) 0.25000 -0.0366(3)
H1 H 0.691(2) 0.141(5) 0.310(3)
H2 H 0.849(3) 0.134(5) 0.433(3)
H3 H 0.745(4) 0.25000 0.614(4)
H4 H 0.630(3) 0.25000 0.770(3)
H5 H 0.448(3) 0.25000 0.724(3)
H6 H 0.371(4) 0.25000 0.517(4)
Ag1E Ag 0.95022(2) 0.25000 0.23165(3)
N2E N 0.3337(3) 0.25000 0.1134(3)
O1G O 0.59239(19) 0.0815(4) 0.1010(2)
H1G H 0.691(2) 0.359(5) 0.310(3)
H2G H 0.849(3) 0.366(5) 0.433(3)
H2E H 0.349(3) 0.134(5) 0.067(3)
H2B H 0.349(3) 0.366(5) 0.067(3)
loop_
_geom_bond_atom_site_label_1
_geom_bond_atom_site_label_2
_geom_bond_site_symmetry_1
_geom_bond_site_symmetry_2
Ag1 N1 1_555 1_555
N1 C1 1_555 1_555
C1 C2 1_555 1_555
C2 N2 1_555 1_555
N2 H2 1_555 1_555
C3 C1 1_555 1_555
C4 C3 1_555 1_555
C5 C4 1_555 1_555
C6 N1 1_555 1_555
N3 O1 1_555 1_555
O1 Ag1 1_555 1_555
O2 N3 1_555 1_555
H1 C2 1_555 1_555
H3 C3 1_555 1_555
H4 C4 1_555 1_555
H5 C5 1_555 1_555
H6 C6 1_555 1_555
Ag1E N2 1_555 1_555
N2E Ag1 1_555 1_555
O1G Ag1 1_555 1_555
H1G C2 1_555 1_555
H2G N2 1_555 1_555
H2E N2E 1_555 1_555
H2B N2E 1_555 1_555
C5 C6 1_555 1_555
N3 O1G 1_555 1_555

#END
