
#######################################################################
#
#                 Cambridge Crystallographic Data Centre
#                                CCDC 
#
#######################################################################
#
# If this CIF has been generated from an entry in the Cambridge 
# Structural Database, then it will include bibliographic, chemical, 
# crystal, experimental, refinement or atomic coordinate data resulting 
# from the CCDC's data processing and validation procedures.
#
#######################################################################

data_ROGLAA
_symmetry_cell_setting           orthorhombic
_symmetry_space_group_name_H-M   'P n a 21'
_symmetry_Int_Tables_number      33
_space_group_name_Hall           'P 2c -2n'
loop_
_symmetry_equiv_pos_site_id
_symmetry_equiv_pos_as_xyz
1 x,y,z
2 -x,-y,1/2+z
3 1/2-x,1/2+y,1/2+z
4 1/2+x,1/2-y,z
_cell_length_a                   11.850(3)
_cell_length_b                   11.038(4)
_cell_length_c                   6.402(1)
_cell_angle_alpha                90
_cell_angle_beta                 90
_cell_angle_gamma                90
_cell_volume                     837.384
loop_
_atom_site_label
_atom_site_type_symbol
_atom_site_fract_x
_atom_site_fract_y
_atom_site_fract_z
Ag1 Ag 0.04986(3) 0.23153(4) 0.0052
N1 N -0.0243(4) 0.0509(4) 0.002(3)
N2 N -0.3337(4) 0.1137(4) 0.003(3)
C1 C -0.1371(4) 0.0265(5) 0.002(4)
C2 C -0.1763(5) -0.0914(5) 0.006(4)
C3 C -0.1019(6) -0.1859(5) 0.012(4)
C4 C 0.0130(5) -0.1625(5) 0.008(4)
C5 C 0.0471(4) -0.0444(7) 0.005(4)
C6 C -0.2118(4) 0.1368(6) 0.007(3)
H1 H -0.354(9) 0.090(7) 0.145(6)
H2 H -0.362(8) 0.051(6) -0.092(9)
H3 H -0.2535(5) -0.1065(5) 0.006(4)
H4 H -0.1281(6) -0.2653(5) 0.017(4)
H5 H 0.0653(5) -0.2253(5) 0.008(4)
H6 H 0.1242(4) -0.0286(7) 0.005(4)
H7 H -0.1943(4) 0.1827(6) 0.132(3)
H8 H -0.1930(4) 0.1874(6) -0.112(3)
Ag1C Ag -0.45014(3) 0.26847(4) 0.0052
N1C N -0.5243(4) 0.4491(4) 0.002(3)
N3 N -0.1232(4) 0.4441(4) 0.006(4)
O1 O -0.0888(13) 0.4024(12) 0.176(2)
O2 O -0.1839(4) 0.5361(4) 0.002(6)
O3 O -0.096(2) 0.394(2) -0.161(2)
loop_
_geom_bond_atom_site_label_1
_geom_bond_atom_site_label_2
_geom_bond_site_symmetry_1
_geom_bond_site_symmetry_2
Ag1 N1 1_555 1_555
N1 C1 1_555 1_555
N2 C6 1_555 1_555
C1 C2 1_555 1_555
C2 C3 1_555 1_555
C3 C4 1_555 1_555
C4 C5 1_555 1_555
C5 N1 1_555 1_555
C6 C1 1_555 1_555
N3 O1 1_555 1_555
O2 N3 1_555 1_555
O3 N3 1_555 1_555
H1 N2 1_555 1_555
H2 N2 1_555 1_555
H3 C2 1_555 1_555
H4 C3 1_555 1_555
H5 C4 1_555 1_555
H6 C5 1_555 1_555
H7 C6 1_555 1_555
H8 C6 1_555 1_555
Ag1C N2 1_555 1_555
N1C Ag1C 1_555 1_555

#END
