
#######################################################################
#
#                 Cambridge Crystallographic Data Centre
#                                CCDC 
#
#######################################################################
#
# If this CIF has been generated from an entry in the Cambridge 
# Structural Database, then it will include bibliographic, chemical, 
# crystal, experimental, refinement or atomic coordinate data resulting 
# from the CCDC's data processing and validation procedures.
#
#######################################################################

data_ROGMEG
_symmetry_cell_setting           tetragonal
_symmetry_space_group_name_H-M   'I 41/a'
_symmetry_Int_Tables_number      88
_space_group_name_Hall           '-I 4ad'
loop_
_symmetry_equiv_pos_site_id
_symmetry_equiv_pos_as_xyz
1 x,y,z
2 3/4-y,1/4+x,1/4+z
3 1/2+x,1/2+y,1/2+z
4 1/4-y,3/4+x,3/4+z
5 1/4+y,1/4-x,1/4+z
6 1/2-x,-y,1/2+z
7 3/4+y,3/4-x,3/4+z
8 -x,1/2-y,z
9 -x,-y,-z
10 1/4+y,3/4-x,3/4-z
11 1/2-x,1/2-y,1/2-z
12 3/4+y,1/4-x,1/4-z
13 3/4-y,3/4+x,3/4-z
14 1/2+x,y,1/2-z
15 1/4-y,1/4+x,1/4-z
16 x,1/2+y,-z
_cell_length_a                   19.4506(7)
_cell_length_b                   19.4506(7)
_cell_length_c                   50.9176(12)
_cell_angle_alpha                90
_cell_angle_beta                 90
_cell_angle_gamma                90
_cell_volume                     19263.4
loop_
_atom_site_label
_atom_site_type_symbol
_atom_site_fract_x
_atom_site_fract_y
_atom_site_fract_z
C1 C 0.6866(4) -0.0577(4) 0.93890(13)
H1 H 0.6758 -0.0996 0.9467
C2 C 0.7390(5) -0.0534(5) 0.91875(14)
H2 H 0.7658 -0.0918 0.9149
C3 C 0.7492(4) 0.0061(5) 0.90552(13)
C4 C 0.7077(4) 0.0609(5) 0.91147(13)
H3 H 0.7107 0.1 0.901
C5 C 0.6636(3) 0.0613(3) 0.93122(11)
H4 H 0.6393 0.1011 0.9352
C6 C 0.7653(3) 0.1261(3) 0.81390(10)
C7 C 0.8320(4) 0.1120(4) 0.82370(11)
H5 H 0.8701 0.1274 0.8144
C8 C 0.8413(4) 0.0778(5) 0.84567(14)
H6 H 0.8858 0.0734 0.8522
C9 C 0.7903(4) 0.0493(4) 0.85901(14)
C10 C 0.7238(6) 0.0573(5) 0.84927(15)
H7 H 0.6868 0.0347 0.8569
C11 C 0.7146(3) 0.1011(4) 0.82718(12)
H8 H 0.67 0.1123 0.8221
C12 C 0.8039(6) 0.0129(5) 0.88548(19)
O1 O 0.8522(4) -0.0262(5) 0.88562(12)
C13 C 0.5030(9) 0.2092(5) 0.97287(19)
H9 H 0.4669 0.1901 0.9619
H10 H 0.5468 0.196 0.9653
C14 C 0.5580(10) 0.2087(7) 1.0102(4)
H11 H 0.5597 0.191 1.028
H12 H 0.5994 0.1944 1.0011
C15 C 0.4468(9) 0.2209(11) 1.0105(4)
H13 H 0.4029 0.2037 1.0043
H14 H 0.4505 0.2076 1.0288
C16 C 0.5998(3) -0.0007(4) 0.96729(11)
C17 C 0.6534(3) 0.0013(3) 0.94621(10)
C18 C 0.7539(3) 0.1712(3) 0.79022(9)
N1 N 0.49804(18) 0.18290(15) 0.99682(6)
O2 O 0.5735(2) 0.0549(2) 0.97270(6)
O3 O 0.5840(2) -0.0594(2) 0.97714(6)
O4 O 0.69515(19) 0.1791(2) 0.78238(6)
O5 O 0.8089(2) 0.1910(2) 0.77937(6)
Zn1 Zn 0.49520(3) 0.07564(3) 0.997816(8)
C1H C 0.3134(4) 0.0577(4) 1.06110(13)
H1H H 0.3242 0.0996 1.0533
C2H C 0.2610(5) 0.0534(5) 1.08125(14)
H2H H 0.2342 0.0918 1.0851
C3H C 0.2508(4) -0.0061(5) 1.09448(13)
C4H C 0.2923(4) -0.0609(5) 1.08853(13)
H3H H 0.2893 -0.1 1.099
C5H C 0.3364(3) -0.0613(3) 1.06878(11)
H4H H 0.3607 -0.1011 1.0648
C6H C 0.2347(3) -0.1261(3) 1.18610(10)
C7H C 0.1680(4) -0.1120(4) 1.17630(11)
H5H H 0.1299 -0.1274 1.1856
C8H C 0.1587(4) -0.0778(5) 1.15433(14)
H6H H 0.1142 -0.0734 1.1478
C9H C 0.2097(4) -0.0493(4) 1.14099(14)
C10H C 0.2762(6) -0.0573(5) 1.15073(15)
H7H H 0.3132 -0.0347 1.1431
C11H C 0.2854(3) -0.1011(4) 1.17282(12)
H8H H 0.33 -0.1123 1.1779
C12H C 0.1961(6) -0.0129(5) 1.11452(19)
O1H O 0.1478(4) 0.0262(5) 1.11438(12)
C13G C 0.4970(9) 0.2908(5) 0.97287(19)
H9G H 0.5331 0.3099 0.9619
H10G H 0.4532 0.304 0.9653
C14G C 0.4420(10) 0.2913(7) 1.0102(4)
H11G H 0.4403 0.309 1.028
H12G H 0.4006 0.3056 1.0011
C15G C 0.5532(9) 0.2791(11) 1.0105(4)
H13G H 0.5971 0.2963 1.0043
H14G H 0.5495 0.2924 1.0288
C16H C 0.4002(3) 0.0007(4) 1.03271(11)
C17H C 0.3466(3) -0.0013(3) 1.05379(10)
C18H C 0.2461(3) -0.1712(3) 1.20978(9)
N1G N 0.50196(18) 0.31710(15) 0.99682(6)
O2H O 0.4265(2) -0.0549(2) 1.02730(6)
O2G O 0.4265(2) 0.4451(2) 0.97270(6)
O3H O 0.4160(2) 0.0594(2) 1.02286(6)
O3O O 0.5840(2) 0.4406(2) 1.02286(6)
O4H O 0.30485(19) -0.1791(2) 1.21762(6)
O4I O 0.4291(2) 0.05485(19) 0.96762(6)
O4L O 0.5709(2) 0.44515(19) 0.96762(6)
O5H O 0.1911(2) -0.1910(2) 1.22063(6)
O5A O 0.5590(2) 0.0589(2) 1.02937(6)
O5D O 0.4410(2) 0.4411(2) 1.02937(6)
Zn1G Zn 0.50480(3) 0.42436(3) 0.997816(8)
Zn1H Zn 0.50480(3) -0.07564(3) 1.002184(8)
Zn1L Zn 0.67436(3) 0.24520(3) 0.752184(8)
Zn1F Zn 0.82564(3) 0.25480(3) 0.747816(8)
Zn1D Zn 0.32564(3) -0.24520(3) 1.247816(8)
Zn1N Zn 0.17436(3) -0.25480(3) 1.252184(8)
loop_
_geom_bond_atom_site_label_1
_geom_bond_atom_site_label_2
_geom_bond_site_symmetry_1
_geom_bond_site_symmetry_2
C1 H1 1_555 1_555
C2 C1 1_555 1_555
H2 C2 1_555 1_555
C3 C2 1_555 1_555
C4 C3 1_555 1_555
H3 C4 1_555 1_555
C5 C4 1_555 1_555
H4 C5 1_555 1_555
C6 C7 1_555 1_555
C7 H5 1_555 1_555
C8 C7 1_555 1_555
H6 C8 1_555 1_555
C9 C8 1_555 1_555
C10 C9 1_555 1_555
H7 C10 1_555 1_555
C11 C6 1_555 1_555
H8 C11 1_555 1_555
C12 C3 1_555 1_555
O1 C12 1_555 1_555
C13 H9 1_555 1_555
H10 C13 1_555 1_555
C14 H11 1_555 1_555
H12 C14 1_555 1_555
C15 H13 1_555 1_555
H14 C15 1_555 1_555
C16 C17 1_555 1_555
C17 C1 1_555 1_555
C18 C6 1_555 1_555
N1 C13 1_555 1_555
O2 C16 1_555 1_555
O3 C16 1_555 1_555
O4 C18 1_555 1_555
O5 C18 1_555 1_555
Zn1 N1 1_555 1_555
C1H H1H 1_555 1_555
C2H C1H 1_555 1_555
H2H C2H 1_555 1_555
C3H C2H 1_555 1_555
C4H C3H 1_555 1_555
H3H C4H 1_555 1_555
C5H C4H 1_555 1_555
H4H C5H 1_555 1_555
C6H C7H 1_555 1_555
C7H H5H 1_555 1_555
C8H C7H 1_555 1_555
H6H C8H 1_555 1_555
C9H C8H 1_555 1_555
C10H C9H 1_555 1_555
H7H C10H 1_555 1_555
C11H C6H 1_555 1_555
H8H C11H 1_555 1_555
C12H C3H 1_555 1_555
O1H C12H 1_555 1_555
C13G C13 1_555 1_555
H9G C13G 1_555 1_555
H10G C13G 1_555 1_555
C14G C15 1_555 1_555
H11G C14G 1_555 1_555
H12G C14G 1_555 1_555
C15G C14 1_555 1_555
H13G C15G 1_555 1_555
H14G C15G 1_555 1_555
C16H C17H 1_555 1_555
C17H C1H 1_555 1_555
C18H C6H 1_555 1_555
N1G C13G 1_555 1_555
O2H C16H 1_555 1_555
O2G Zn1G 1_555 1_555
O3H Zn1 1_555 1_555
O3O Zn1G 1_555 1_555
O4H C18H 1_555 1_555
O4I Zn1 1_555 1_555
O4L Zn1G 1_555 1_555
O5H C18H 1_555 1_555
O5A Zn1 1_555 1_555
O5D Zn1G 1_555 1_555
Zn1G N1G 1_555 1_555
Zn1H O3 1_555 1_555
Zn1L O4 1_555 1_555
Zn1F O5 1_555 1_555
Zn1D O4H 1_555 1_555
Zn1N O5H 1_555 1_555
C5 C17 1_555 1_555
C9 C12 1_555 1_555
C10 C11 1_555 1_555
C14 N1 1_555 1_555
C15 N1 1_555 1_555
O2 Zn1 1_555 1_555
C5H C17H 1_555 1_555
C9H C12H 1_555 1_555
C10H C11H 1_555 1_555
C14G N1G 1_555 1_555
C15G N1G 1_555 1_555
C16H O3H 1_555 1_555
O2H Zn1H 1_555 1_555

#END
