
#######################################################################
#
#                 Cambridge Crystallographic Data Centre
#                                CCDC 
#
#######################################################################
#
# If this CIF has been generated from an entry in the Cambridge 
# Structural Database, then it will include bibliographic, chemical, 
# crystal, experimental, refinement or atomic coordinate data resulting 
# from the CCDC's data processing and validation procedures.
#
#######################################################################

data_ROGRAH
_symmetry_cell_setting           triclinic
_symmetry_space_group_name_H-M   'P -1'
_symmetry_Int_Tables_number      2
_space_group_name_Hall           '-P 1'
loop_
_symmetry_equiv_pos_site_id
_symmetry_equiv_pos_as_xyz
1 x,y,z
2 -x,-y,-z
_cell_length_a                   9.4682(8)
_cell_length_b                   9.4906(8)
_cell_length_c                   10.2626(9)
_cell_angle_alpha                111.8660(10)
_cell_angle_beta                 105.2640(10)
_cell_angle_gamma                107.5330(10)
_cell_volume                     738.987
loop_
_atom_site_label
_atom_site_type_symbol
_atom_site_fract_x
_atom_site_fract_y
_atom_site_fract_z
Cd1 Cd 0.61482(6) -0.26353(6) -0.07748(5)
Cd2 Cd 0.81902(6) 0.16467(6) 0.23843(5)
Cd3 Cd 1.21946(6) 0.25223(6) 0.45042(5)
O1 O 0.8542(6) -0.2390(6) 0.0615(5)
O2 O 0.9750(6) 0.0226(6) 0.2635(6)
O3 O 0.8539(7) -0.2810(10) 0.3506(7)
O4 O 1.0429(7) -0.3051(7) 0.5017(6)
O5 O 1.0148(6) -0.6330(6) 0.2347(5)
O6 O 1.2555(6) -0.5180(6) 0.4353(6)
O7 O 1.4858(6) -0.4811(6) 0.2747(5)
O8 O 1.5723(6) -0.2169(6) 0.4432(5)
O9 O 1.4627(8) -0.2785(8) 0.0491(7)
O10 O 1.6055(7) -0.0072(8) 0.2352(8)
O11 O 1.2972(6) -0.0153(6) 0.0232(5)
O12 O 1.2814(6) 0.1414(6) 0.2316(5)
C1 C 1.1141(7) -0.1507(7) 0.2567(7)
H1 H 1.1855 -0.0541 0.3612
C2 C 1.0604(7) -0.3139(8) 0.2690(7)
H2 H 0.9812 -0.4109 0.1669
C3 C 1.2091(8) -0.3446(8) 0.3307(8)
H3 H 1.2793 -0.2532 0.4378
C4 C 1.3120(7) -0.3432(8) 0.2367(7)
H4 H 1.2499 -0.4396 0.1310
C5 C 1.3632(7) -0.1737(8) 0.2350(7)
H5 H 1.4187 -0.0832 0.3435
C6 C 1.2108(7) -0.1566(8) 0.1575(7)
H6 H 1.1423 -0.2570 0.0547
C7 C 0.9668(7) -0.1231(8) 0.1879(7)
C8 C 0.9822(8) -0.2958(8) 0.3838(8)
C9 C 1.1520(8) -0.5129(8) 0.3325(7)
C10 C 1.4664(7) -0.3498(8) 0.3214(7)
C11 C 1.4870(9) -0.1514(10) 0.1665(9)
C12 C 1.2632(7) 0.0008(8) 0.1379(7)
O13 O 0.3316(7) -0.3230(7) -0.2558(6)
H7 H 0.3475 -0.3380 -0.3365
H8 H 0.2665 -0.4202 -0.2758
Cd1A Cd 1.38518(6) -0.73647(6) 0.07748(5)
Cd1_2 Cd 1.61482(6) -0.26353(6) -0.07748(5)
Cd1A_2 Cd 1.38518(6) 0.26353(6) 0.07748(5)
Cd2A Cd 1.18098(6) -0.16467(6) 0.76157(5)
Cd2_2 Cd 0.81902(6) -0.83533(6) 0.23843(5)
Cd2_3 Cd 1.81902(6) 0.16467(6) 0.23843(5)
Cd2A_2 Cd 1.18098(6) -0.16467(6) -0.23843(5)
Cd2A_3 Cd 0.18098(6) -0.16467(6) -0.23843(5)
Cd3A Cd 0.78054(6) -0.25223(6) 0.54958(5)
Cd3_2 Cd 1.21946(6) -0.74777(6) 0.45042(5)
Cd3A_2 Cd 1.78054(6) -0.25223(6) 0.54958(5)
O3A O 1.1461(7) 0.2810(10) 0.6494(7)
O4A O 0.9571(7) 0.3051(7) 0.4983(6)
O5_2 O 1.0148(6) 0.3670(6) 0.2347(5)
O6_2 O 1.2555(6) 0.4820(6) 0.4353(6)
O7A O 0.5142(6) -0.5189(6) -0.2747(5)
O8A O 1.4277(6) 0.2169(6) 0.5568(5)
O9_2 O 0.4627(8) -0.2785(8) 0.0491(7)
O10_2 O 0.6055(7) -0.0072(8) 0.2352(8)
O11A O 0.7028(6) 0.0153(6) -0.0232(5)
O12A O 0.7186(6) -0.1414(6) -0.2316(5)
O13A O 0.6684(7) 0.3230(7) 0.2558(6)
H7A H 0.6525 0.3380 0.3365
H8A H 0.7335 0.4202 0.2758
loop_
_geom_bond_atom_site_label_1
_geom_bond_atom_site_label_2
_geom_bond_site_symmetry_1
_geom_bond_site_symmetry_2
Cd1 O1 1_555 1_555
Cd2 O2 1_555 1_555
Cd3 O2 1_555 1_555
O1 C7 1_555 1_555
O2 C7 1_555 1_555
O3 C8 1_555 1_555
O4 C8 1_555 1_555
O5 C9 1_555 1_555
O6 C9 1_555 1_555
O7 C10 1_555 1_555
O8 C10 1_555 1_555
O9 C11 1_555 1_555
O10 C11 1_555 1_555
O11 C12 1_555 1_555
O12 Cd3 1_555 1_555
C1 H1 1_555 1_555
C2 C1 1_555 1_555
H2 C2 1_555 1_555
C3 C2 1_555 1_555
H3 C3 1_555 1_555
C4 C3 1_555 1_555
H4 C4 1_555 1_555
C5 C4 1_555 1_555
H5 C5 1_555 1_555
C6 C1 1_555 1_555
H6 C6 1_555 1_555
C7 C1 1_555 1_555
C8 C2 1_555 1_555
C9 C3 1_555 1_555
C10 C4 1_555 1_555
C11 C5 1_555 1_555
C12 O12 1_555 1_555
O13 Cd1 1_555 1_555
H7 O13 1_555 1_555
H8 O13 1_555 1_555
Cd1A O7 1_555 1_555
Cd1_2 O9 1_555 1_555
Cd1A_2 O11 1_555 1_555
Cd2A O4 1_555 1_555
Cd2_2 O5 1_555 1_555
Cd2_3 O10 1_555 1_555
Cd2A_2 O11 1_555 1_555
Cd2A_3 O13 1_555 1_555
Cd3A O3 1_555 1_555
Cd3_2 O6 1_555 1_555
Cd3A_2 O8 1_555 1_555
O3A Cd3 1_555 1_555
O4A Cd2 1_555 1_555
O5_2 Cd2 1_555 1_555
O6_2 Cd3 1_555 1_555
O7A Cd1 1_555 1_555
O8A Cd3 1_555 1_555
O9_2 Cd1 1_555 1_555
O10_2 Cd2 1_555 1_555
O11A Cd1 1_555 1_555
O12A Cd1 1_555 1_555
O13A Cd2 1_555 1_555
H7A O13A 1_555 1_555
H8A O13A 1_555 1_555
Cd2 O11A 1_555 1_555
O12 Cd1A_2 1_555 1_555
C5 C6 1_555 1_555
C6 C12 1_555 1_555

#END
