
#######################################################################
#
#                 Cambridge Crystallographic Data Centre
#                                CCDC 
#
#######################################################################
#
# If this CIF has been generated from an entry in the Cambridge 
# Structural Database, then it will include bibliographic, chemical, 
# crystal, experimental, refinement or atomic coordinate data resulting 
# from the CCDC's data processing and validation procedures.
#
#######################################################################

data_ROGREL
_symmetry_cell_setting           triclinic
_symmetry_space_group_name_H-M   'P -1'
_symmetry_Int_Tables_number      2
_space_group_name_Hall           '-P 1'
loop_
_symmetry_equiv_pos_site_id
_symmetry_equiv_pos_as_xyz
1 x,y,z
2 -x,-y,-z
_cell_length_a                   11.6554(13)
_cell_length_b                   13.7508(15)
_cell_length_c                   16.8522(19)
_cell_angle_alpha                73.634(2)
_cell_angle_beta                 76.216(3)
_cell_angle_gamma                85.141(3)
_cell_volume                     2516.4
loop_
_atom_site_label
_atom_site_type_symbol
_atom_site_fract_x
_atom_site_fract_y
_atom_site_fract_z
Cd1 Cd 1.20984(9) 0.01991(8) -0.05468(6)
Cd2 Cd 0.78107(10) 0.46181(9) -0.44910(7)
Cd3 Cd 1.18829(9) 0.57441(8) -0.08899(6)
O1 O 1.1071(10) 0.1297(8) 0.0252(7)
H1 H 1.0362 0.1359 0.0193
H2 H 1.1060 0.1053 0.0777
O2 O 0.8780(2) 0.60319(17) -0.44145(13)
H3 H 0.8383 0.6579 -0.4463
H4 H 0.9117 0.5919 -0.4004
O3 O 1.1745(2) 0.41885(17) 0.01409(13)
H5 H 1.1509 0.3680 0.0032
H6 H 1.1448 0.4177 0.0655
O4 O 1.0837(2) 0.08644(17) -0.13264(13)
O5 O 1.1836(2) 0.14607(17) -0.26365(13)
O6 O 0.8286(2) 0.38578(17) -0.30884(13)
O7 O 0.9344(2) 0.35263(17) -0.42333(13)
O8 O 1.1851(2) 0.45186(17) -0.41868(13)
O9 O 1.0642(2) 0.55545(17) -0.35570(13)
O10 O 1.0206(2) 0.55446(17) -0.15040(13)
O11 O 1.1797(2) 0.46396(17) -0.17330(13)
O12 O 0.9594(2) 0.35403(17) 0.00663(13)
O13 O 0.7982(2) 0.36629(17) -0.04073(13)
O14 O 0.8842(2) 0.13516(17) -0.00358(13)
O15 O 0.8089(2) 0.08190(17) -0.09169(13)
N1 N 1.3916(2) -0.06626(17) -0.07670(13)
N2 N 1.3613(2) 0.13515(17) -0.11087(13)
N3 N 0.6334(2) 0.34430(17) -0.40699(13)
N4 N 0.5995(2) 0.54268(17) -0.42370(13)
N5 N 1.2582(2) 0.72676(17) -0.18270(13)
N6 N 1.3974(2) 0.57176(17) -0.12431(13)
C1 C 0.9845(2) 0.20857(17) -0.22658(13)
H7 H 0.9346 0.1662 -0.2420
C2 C 1.0190(12) 0.3002(10) -0.3040(7)
H8 H 1.0793 0.2764 -0.3462
C3 C 1.0783(12) 0.3830(9) -0.2784(8)
H9 H 1.1525 0.3528 -0.2643
C4 C 1.0055(12) 0.4110(9) -0.1999(8)
H10 H 0.9326 0.4461 -0.2127
C5 C 0.9739(11) 0.3164(9) -0.1257(7)
H11 H 1.0483 0.2842 -0.1133
C6 C 0.9103(11) 0.2397(9) -0.1500(7)
H12 H 0.8396 0.2746 -0.1671
C7 C 1.0932(12) 0.1415(12) -0.2042(9)
C8 C 0.9220(13) 0.3483(10) -0.3462(8)
C9 C 1.1119(13) 0.4711(11) -0.3584(8)
C10 C 1.0752(13) 0.4805(10) -0.1746(8)
C11 C 0.9058(11) 0.3459(9) -0.0474(8)
C12 C 0.8677(11) 0.1458(10) -0.0778(8)
C13 C 1.4020(13) -0.1663(12) -0.0526(8)
H13 H 1.3343 -0.2051 -0.0323
C14 C 1.5111(14) -0.2138(11) -0.0569(9)
H14 H 1.5160 -0.2842 -0.0391
C15 C 1.6099(15) -0.1603(15) -0.0862(10)
H15 H 1.6840 -0.1921 -0.0916
C16 C 1.5978(13) -0.0558(11) -0.1082(9)
H16 H 1.6648 -0.0161 -0.1268
C17 C 1.4891(12) -0.0106(10) -0.1028(8)
C18 C 1.4734(12) 0.1005(10) -0.1256(8)
C19 C 1.5646(13) 0.1679(11) -0.1602(9)
H17 H 1.6420 0.1432 -0.1698
C20 C 1.5434(14) 0.2709(12) -0.1810(9)
H18 H 1.6054 0.3161 -0.2022
C21 C 1.4310(15) 0.3042(11) -0.1697(9)
H19 H 1.4136 0.3731 -0.1869
C22 C 1.3412(13) 0.2355(11) -0.1323(9)
H20 H 1.2638 0.2598 -0.1216
C23 C 0.6539(17) 0.2471(12) -0.3999(11)
H21 H 0.7318 0.2244 -0.4132
C24 C 0.565(2) 0.1771(15) -0.3735(12)
H22 H 0.5836 0.1089 -0.3690
C25 C 0.450(2) 0.2088(17) -0.3540(12)
H23 H 0.3884 0.1632 -0.3360
C26 C 0.4288(15) 0.3100(14) -0.3620(10)
H24 H 0.3516 0.3348 -0.3513
C27 C 0.5241(14) 0.3767(15) -0.3865(9)
C28 C 0.5051(16) 0.4829(13) -0.3909(9)
C29 C 0.3971(17) 0.5257(14) -0.3636(11)
H25 H 0.3318 0.4849 -0.3367
C30 C 0.3864(19) 0.6250(16) -0.3757(12)
H26 H 0.3124 0.6538 -0.3594
C31 C 0.477(2) 0.6828(16) -0.4096(11)
H27 H 0.4680 0.7526 -0.4185
C32 C 0.5859(19) 0.6401(15) -0.4325(11)
H28 H 0.6516 0.6813 -0.4548
C33 C 1.1866(19) 0.8046(12) -0.1958(11)
H29 H 1.1064 0.7956 -0.1717
C34 C 1.225(2) 0.9017(18) -0.2447(14)
H30 H 1.1732 0.9567 -0.2537
C35 C 1.342(2) 0.9108(17) -0.2777(14)
H31 H 1.3699 0.9727 -0.3140
C36 C 1.4248(18) 0.8295(13) -0.2596(11)
H32 H 1.5059 0.8380 -0.2789
C37 C 1.3754(15) 0.7364(12) -0.2108(10)
C38 C 1.4513(13) 0.6511(12) -0.1839(9)
C39 C 1.5691(17) 0.6471(14) -0.2132(11)
H33 H 1.6057 0.6998 -0.2578
C40 C 1.6371(17) 0.5660(16) -0.1780(12)
H34 H 1.7190 0.5657 -0.1960
C41 C 1.5810(17) 0.4875(15) -0.1170(12)
H35 H 1.6229 0.4311 -0.0922
C42 C 1.4607(16) 0.4939(12) -0.0929(10)
H36 H 1.4215 0.4394 -0.0517
Cd1A Cd 0.79016(9) -0.01991(8) 0.05468(6)
Cd2A Cd 1.21893(10) 0.53819(9) -0.55090(7)
Cd3A Cd 0.81171(9) 0.42559(8) 0.08899(6)
O8A O 0.8149(2) 0.54814(17) -0.58132(13)
O12A O 1.0406(2) 0.64597(17) -0.00663(13)
O13A O 1.2018(2) 0.63371(17) 0.04073(13)
O14A O 1.1158(2) -0.13516(17) 0.00358(13)
O15A O 1.1911(2) -0.08190(17) 0.09169(13)
O16 O 1.097(2) 0.0741(16) 0.2013(13)
O17 O 0.922(3) 0.725(2) -0.2464(17)
O18 O 1.211(2) 0.1329(18) -0.4303(15)
O19 O 1.113(3) 0.761(2) -0.4070(17)
O20 O 0.782(3) 0.782(3) -0.361(2)
O21 O 0.208(5) 0.997(4) 0.326(3)
O22 O 0.014(5) 0.868(4) 0.451(3)
O23 O 1.410(5) 0.034(4) -0.513(3)
O24? O 0.293(7) 1.068(6) 0.365(5)
loop_
_geom_bond_atom_site_label_1
_geom_bond_atom_site_label_2
_geom_bond_site_symmetry_1
_geom_bond_site_symmetry_2
Cd1 O1 1_555 1_555
Cd2 O2 1_555 1_555
Cd3 O3 1_555 1_555
O1 H1 1_555 1_555
H2 O1 1_555 1_555
O2 H3 1_555 1_555
H4 O2 1_555 1_555
O3 H5 1_555 1_555
H6 O3 1_555 1_555
O4 Cd1 1_555 1_555
O5 C7 1_555 1_555
O6 Cd2 1_555 1_555
O7 Cd2 1_555 1_555
O8 C9 1_555 1_555
O9 C9 1_555 1_555
O10 Cd3 1_555 1_555
O11 Cd3 1_555 1_555
O12 C11 1_555 1_555
O13 C11 1_555 1_555
O14 C12 1_555 1_555
O15 C12 1_555 1_555
N1 Cd1 1_555 1_555
N2 Cd1 1_555 1_555
N3 Cd2 1_555 1_555
N4 Cd2 1_555 1_555
N5 Cd3 1_555 1_555
N6 Cd3 1_555 1_555
C1 H7 1_555 1_555
C2 C1 1_555 1_555
H8 C2 1_555 1_555
C3 C2 1_555 1_555
H9 C3 1_555 1_555
C4 C3 1_555 1_555
H10 C4 1_555 1_555
C5 C4 1_555 1_555
H11 C5 1_555 1_555
C6 C1 1_555 1_555
H12 C6 1_555 1_555
C7 O4 1_555 1_555
C8 O6 1_555 1_555
C9 C3 1_555 1_555
C10 O10 1_555 1_555
C11 C5 1_555 1_555
C12 C6 1_555 1_555
C13 N1 1_555 1_555
H13 C13 1_555 1_555
C14 C13 1_555 1_555
H14 C14 1_555 1_555
C15 C14 1_555 1_555
H15 C15 1_555 1_555
C16 C15 1_555 1_555
H16 C16 1_555 1_555
C17 N1 1_555 1_555
C18 N2 1_555 1_555
C19 C18 1_555 1_555
H17 C19 1_555 1_555
C20 C19 1_555 1_555
H18 C20 1_555 1_555
C21 C20 1_555 1_555
H19 C21 1_555 1_555
C22 N2 1_555 1_555
H20 C22 1_555 1_555
C23 N3 1_555 1_555
H21 C23 1_555 1_555
C24 C23 1_555 1_555
H22 C24 1_555 1_555
C25 C24 1_555 1_555
H23 C25 1_555 1_555
C26 C25 1_555 1_555
H24 C26 1_555 1_555
C27 N3 1_555 1_555
C28 N4 1_555 1_555
C29 C28 1_555 1_555
H25 C29 1_555 1_555
C30 C29 1_555 1_555
H26 C30 1_555 1_555
C31 C30 1_555 1_555
H27 C31 1_555 1_555
C32 N4 1_555 1_555
H28 C32 1_555 1_555
C33 N5 1_555 1_555
H29 C33 1_555 1_555
C34 C33 1_555 1_555
H30 C34 1_555 1_555
C35 C34 1_555 1_555
H31 C35 1_555 1_555
C36 C35 1_555 1_555
H32 C36 1_555 1_555
C37 N5 1_555 1_555
C38 N6 1_555 1_555
C39 C38 1_555 1_555
H33 C39 1_555 1_555
C40 C39 1_555 1_555
H34 C40 1_555 1_555
C41 C40 1_555 1_555
H35 C41 1_555 1_555
C42 N6 1_555 1_555
H36 C42 1_555 1_555
Cd1A O14 1_555 1_555
Cd2A O8 1_555 1_555
Cd3A O12 1_555 1_555
O8A Cd2 1_555 1_555
O12A Cd3 1_555 1_555
O13A Cd3 1_555 1_555
O14A Cd1 1_555 1_555
O15A Cd1 1_555 1_555
O7 C8 1_555 1_555
O11 C10 1_555 1_555
O13 Cd3A 1_555 1_555
O15 Cd1A 1_555 1_555
C1 C7 1_555 1_555
C2 C8 1_555 1_555
C4 C10 1_555 1_555
C5 C6 1_555 1_555
C16 C17 1_555 1_555
C17 C18 1_555 1_555
C21 C22 1_555 1_555
C26 C27 1_555 1_555
C27 C28 1_555 1_555
C31 C32 1_555 1_555
C36 C37 1_555 1_555
C37 C38 1_555 1_555
C41 C42 1_555 1_555

#END
