
#######################################################################
#
#                 Cambridge Crystallographic Data Centre
#                                CCDC 
#
#######################################################################
#
# If this CIF has been generated from an entry in the Cambridge 
# Structural Database, then it will include bibliographic, chemical, 
# crystal, experimental, refinement or atomic coordinate data resulting 
# from the CCDC's data processing and validation procedures.
#
#######################################################################

data_ROGSEM
_symmetry_cell_setting           triclinic
_symmetry_space_group_name_H-M   'P -1'
_symmetry_Int_Tables_number      2
_space_group_name_Hall           '-P 1'
loop_
_symmetry_equiv_pos_site_id
_symmetry_equiv_pos_as_xyz
1 x,y,z
2 -x,-y,-z
_cell_length_a                   7.8519(9)
_cell_length_b                   10.0583(12)
_cell_length_c                   11.5646(13)
_cell_angle_alpha                78.173(2)
_cell_angle_beta                 71.787(2)
_cell_angle_gamma                73.741(2)
_cell_volume                     825.943
loop_
_atom_site_label
_atom_site_type_symbol
_atom_site_fract_x
_atom_site_fract_y
_atom_site_fract_z
Cu1 Cu 0.20305(5) 0.24463(4) 0.96300(3)
O1 O 0.4676(3) 0.1710(2) 0.9427(2)
O2 O 0.7657(3) 0.1491(2) 0.8888(2)
O3 O 0.8131(3) 0.1849(2) 1.1457(2)
O4 O 0.9409(3) 0.3399(2) 0.9996(2)
O5 O 0.4429(3) 0.5115(2) 0.7105(2)
O6 O 0.2535(3) 0.3761(2) 0.8154(2)
O7 O 0.1671(3) 0.1227(2) 1.1197(2)
O8 O 0.1437(4) 0.1024(3) 0.8592(2)
C1 C 0.5846(4) 0.3725(3) 0.9381(3)
H1 H 0.6803 0.4088 0.8722
C2 C 0.6152(4) 0.3812(3) 1.0614(3)
H2 H 0.5201 0.3464 1.1290
C3 C 0.3967(4) 0.4664(3) 0.9281(3)
H3 H 0.3009 0.4335 0.9964
C4 C 0.6059(4) 0.2202(3) 0.9227(3)
C5 C 0.8048(4) 0.2936(3) 1.0702(3)
C6 C 0.3629(4) 0.4526(3) 0.8077(3)
H12 H 0.218(4) 0.0372(14) 1.114(3)
H13 H 0.041(6) 0.124(4) 0.872(4)
H14 H 0.0506(14) 0.133(3) 1.142(4)
H15 H 0.175(7) 0.000(6) 0.873(5)
Cu1A Cu 0.79695(5) 0.75537(4) 1.03700(3)
Cu1_2 Cu 1.20305(5) 0.24463(4) 0.96300(3)
Cu1A_2 Cu -0.20305(5) 0.75537(4) 1.03700(3)
O1A O 0.5324(3) 0.8290(2) 1.0573(2)
O2A O 0.2343(3) 0.8509(2) 1.1112(2)
O3A O 0.1869(3) 0.8151(2) 0.8543(2)
O4A O 0.0591(3) 0.6601(2) 1.0004(2)
O4_2 O -0.0591(3) 0.3399(2) 0.9996(2)
O4A_2 O 1.0591(3) 0.6601(2) 1.0004(2)
O5A O 0.5571(3) 0.4885(2) 1.2895(2)
O6A O 0.7465(3) 0.6239(2) 1.1846(2)
O7A O 0.8329(3) 0.8773(2) 0.8803(2)
O8A O 0.8563(4) 0.8976(3) 1.1408(2)
C1A C 0.4154(4) 0.6275(3) 1.0619(3)
H1A H 0.3197 0.5912 1.1278
C2A C 0.3848(4) 0.6188(3) 0.9386(3)
H2A H 0.4799 0.6536 0.8710
C3A C 0.6033(4) 0.5336(3) 1.0719(3)
H3A H 0.6991 0.5665 1.0036
C4A C 0.3941(4) 0.7798(3) 1.0773(3)
C5A C 0.1952(4) 0.7064(3) 0.9298(3)
C6A C 0.6371(4) 0.5474(3) 1.1923(3)
H12A H 0.782(4) 0.9628(14) 0.886(3)
H13A H 0.959(6) 0.876(4) 1.128(4)
H14A H 0.9494(14) 0.867(3) 0.858(4)
H15A H 0.825(7) 1.000(6) 1.127(5)
Cu2 Cu 0.65268(6) 0.59645(5) 1.44741(5)
N1 N 0.4853(4) 0.7751(3) 1.4568(3)
N2 N -0.1510(4) 1.4354(3) 1.4572(3)
C7 C 0.4769(5) 0.8636(4) 1.3538(3)
H4 H 0.5532 0.8346 1.2795
C8 C 0.3624(5) 0.9941(4) 1.3518(3)
H5 H 0.3618 1.0506 1.2774
C9 C 0.2465(4) 1.0430(3) 1.4608(3)
C10 C 0.2574(5) 0.9518(4) 1.5675(3)
H6 H 0.1849 0.9793 1.6431
C11 C 0.3742(5) 0.8215(4) 1.5625(3)
H7 H 0.3766 0.7625 1.6356
C12 C 0.1157(4) 1.1821(3) 1.4616(3)
C13 C 0.1132(5) 1.2752(4) 1.3550(3)
H8 H 0.2024 1.2541 1.2822
C14 C -0.0192(5) 1.3980(4) 1.3557(3)
H9 H -0.0173 1.4577 1.2826
C15 C -0.0166(5) 1.2241(4) 1.5672(3)
H10 H -0.0189 1.1677 1.6420
C16 C -0.1442(5) 1.3489(4) 1.5616(3)
H11 H -0.2306 1.3748 1.6340
Cu2_2 Cu -0.34732(6) 1.59645(5) 1.44741(5)
N2_2 N 0.8490(4) 0.4354(3) 1.4572(3)
loop_
_geom_bond_atom_site_label_1
_geom_bond_atom_site_label_2
_geom_bond_site_symmetry_1
_geom_bond_site_symmetry_2
Cu1 O1 1_555 1_555
Cu2 N1 1_555 1_555
O1 C4 1_555 1_555
O2 C4 1_555 1_555
O3 C5 1_555 1_555
O4 C5 1_555 1_555
O5 C6 1_555 1_555
O6 Cu1 1_555 1_555
O7 Cu1 1_555 1_555
O8 Cu1 1_555 1_555
N1 C7 1_555 1_555
N2 C14 1_555 1_555
C1 H1 1_555 1_555
C2 C1 1_555 1_555
H2 C2 1_555 1_555
C3 C1 1_555 1_555
H3 C3 1_555 1_555
C4 C1 1_555 1_555
C5 C2 1_555 1_555
C6 O6 1_555 1_555
C7 H4 1_555 1_555
C8 C7 1_555 1_555
H5 C8 1_555 1_555
C9 C8 1_555 1_555
C10 C9 1_555 1_555
H6 C10 1_555 1_555
C11 N1 1_555 1_555
H7 C11 1_555 1_555
C12 C9 1_555 1_555
C13 C12 1_555 1_555
H8 C13 1_555 1_555
C14 C13 1_555 1_555
H9 C14 1_555 1_555
C15 C12 1_555 1_555
H10 C15 1_555 1_555
C16 N2 1_555 1_555
H11 C16 1_555 1_555
H12 O7 1_555 1_555
H13 O8 1_555 1_555
H14 O7 1_555 1_555
H15 O8 1_555 1_555
Cu1A O1A 1_555 1_555
Cu1_2 O4 1_555 1_555
Cu1A_2 O4A 1_555 1_555
Cu2_2 N2 1_555 1_555
O1A C4A 1_555 1_555
O2A C4A 1_555 1_555
O3A C5A 1_555 1_555
O4A C5A 1_555 1_555
O4_2 Cu1 1_555 1_555
O4A_2 Cu1A 1_555 1_555
O5A C6A 1_555 1_555
O6A Cu1A 1_555 1_555
O7A Cu1A 1_555 1_555
O8A Cu1A 1_555 1_555
N2_2 Cu2 1_555 1_555
C1A H1A 1_555 1_555
C2A C3 1_555 1_555
H2A C2A 1_555 1_555
C3A C2 1_555 1_555
H3A C3A 1_555 1_555
C4A C1A 1_555 1_555
C5A C2A 1_555 1_555
C6A O6A 1_555 1_555
H12A O7A 1_555 1_555
H13A O8A 1_555 1_555
H14A O7A 1_555 1_555
H15A O8A 1_555 1_555
C3 C6 1_555 1_555
C10 C11 1_555 1_555
C15 C16 1_555 1_555
C1A C2A 1_555 1_555
C1A C3A 1_555 1_555
C3A C6A 1_555 1_555

#END
