
#######################################################################
#
#                 Cambridge Crystallographic Data Centre
#                                CCDC 
#
#######################################################################
#
# If this CIF has been generated from an entry in the Cambridge 
# Structural Database, then it will include bibliographic, chemical, 
# crystal, experimental, refinement or atomic coordinate data resulting 
# from the CCDC's data processing and validation procedures.
#
#######################################################################

data_ROGSIP
_symmetry_cell_setting           monoclinic
_symmetry_space_group_name_H-M   'P 21/n'
_symmetry_Int_Tables_number      14
_space_group_name_Hall           '-P 2yn'
loop_
_symmetry_equiv_pos_site_id
_symmetry_equiv_pos_as_xyz
1 x,y,z
2 1/2-x,1/2+y,1/2-z
3 -x,-y,-z
4 1/2+x,1/2-y,1/2+z
_cell_length_a                   7.726(2)
_cell_length_b                   10.220(2)
_cell_length_c                   15.169(3)
_cell_angle_alpha                90
_cell_angle_beta                 99.67(2)
_cell_angle_gamma                90
_cell_volume                     1180.72
loop_
_atom_site_label
_atom_site_type_symbol
_atom_site_fract_x
_atom_site_fract_y
_atom_site_fract_z
Li1 Li 0.4700(8) 0.1100(6) 0.2341(4)
I1 I 0.21907(3) 0.12498(3) 0.09294(2)
O1 O 0.3740(3) 0.1117(2) 0.3431(2)
O2 O 0.1374(4) 0.1226(3) 0.4661(2)
O3 O 0.6142(4) -0.0455(3) 0.2320(2)
O4 O 0.6437(4) 0.2485(3) 0.2566(2)
C1 C 0.2948(6) 0.2331(4) 0.3629(3)
H1 H 0.1863(6) 0.2484(4) 0.3192(3)
H2 H 0.3767(6) 0.3063(4) 0.3584(3)
C2 C 0.2515(6) 0.2275(4) 0.4561(3)
H3 H 0.3614(6) 0.2174(4) 0.4997(3)
H4 H 0.1957(6) 0.3108(4) 0.4693(3)
C3 C 0.2144(5) 0.0019(4) 0.4458(3)
H5 H 0.1320(5) -0.0707(4) 0.4511(3)
H6 H 0.3231(5) -0.0137(4) 0.4893(3)
C4 C 0.2570(5) 0.0047(4) 0.3523(3)
H7 H 0.3129(5) -0.0789(4) 0.3398(3)
H8 H 0.1474(5) 0.0146(4) 0.3085(3)
C5 C 0.7285(6) -0.0751(4) 0.3145(3)
H9 H 0.6702(6) -0.0516(4) 0.3657(3)
H10 H 0.8377(6) -0.0229(4) 0.3189(3)
C6 C 0.7724(6) -0.2175(5) 0.3183(3)
H11 H 0.8518(6) -0.2375(5) 0.3749(3)
H12 H 0.6638(6) -0.2696(5) 0.3164(3)
C7 C 0.7409(6) -0.2219(4) 0.1605(3)
H13 H 0.6321(6) -0.2744(4) 0.1561(3)
H14 H 0.7992(6) -0.2449(4) 0.1093(3)
C8 C 0.6962(6) -0.0801(4) 0.1570(3)
H15 H 0.8042(6) -0.0276(4) 0.1580(3)
H16 H 0.6154(6) -0.0605(4) 0.1006(3)
O4A O 0.8563(4) -0.2515(3) 0.2434(2)
Li1A Li 1.0300(8) -0.3900(6) 0.2659(4)
loop_
_geom_bond_atom_site_label_1
_geom_bond_atom_site_label_2
_geom_bond_site_symmetry_1
_geom_bond_site_symmetry_2
Li1 I1 1_555 1_555
O1 Li1 1_555 1_555
O2 C2 1_555 1_555
O3 Li1 1_555 1_555
O4 Li1 1_555 1_555
C1 O1 1_555 1_555
H1 C1 1_555 1_555
H2 C1 1_555 1_555
C2 C1 1_555 1_555
H3 C2 1_555 1_555
H4 C2 1_555 1_555
C3 O2 1_555 1_555
H5 C3 1_555 1_555
H6 C3 1_555 1_555
C4 O1 1_555 1_555
H7 C4 1_555 1_555
H8 C4 1_555 1_555
C5 O3 1_555 1_555
H9 C5 1_555 1_555
H10 C5 1_555 1_555
C6 C5 1_555 1_555
H11 C6 1_555 1_555
H12 C6 1_555 1_555
C7 H13 1_555 1_555
H14 C7 1_555 1_555
C8 O3 1_555 1_555
H15 C8 1_555 1_555
H16 C8 1_555 1_555
O4A C6 1_555 1_555
Li1A O4A 1_555 1_555
C3 C4 1_555 1_555
C7 C8 1_555 1_555
C7 O4A 1_555 1_555

#END
