
#######################################################################
#
#                 Cambridge Crystallographic Data Centre
#                                CCDC 
#
#######################################################################
#
# If this CIF has been generated from an entry in the Cambridge 
# Structural Database, then it will include bibliographic, chemical, 
# crystal, experimental, refinement or atomic coordinate data resulting 
# from the CCDC's data processing and validation procedures.
#
#######################################################################

data_ROGSIQ
_symmetry_cell_setting           monoclinic
_symmetry_space_group_name_H-M   'P 21/n'
_symmetry_Int_Tables_number      14
_space_group_name_Hall           '-P 2yn'
loop_
_symmetry_equiv_pos_site_id
_symmetry_equiv_pos_as_xyz
1 x,y,z
2 1/2-x,1/2+y,1/2-z
3 -x,-y,-z
4 1/2+x,1/2-y,1/2+z
_cell_length_a                   10.6030(5)
_cell_length_b                   20.0687(8)
_cell_length_c                   11.1036(4)
_cell_angle_alpha                90
_cell_angle_beta                 91.032(3)
_cell_angle_gamma                90
_cell_volume                     2362.33
loop_
_atom_site_label
_atom_site_type_symbol
_atom_site_fract_x
_atom_site_fract_y
_atom_site_fract_z
Cu1 Cu 0.62563(10) 0.27334(5) 0.80342(8)
O1 O 0.7440(5) 0.3494(3) 0.8041(5)
O2 O 0.5974(6) 0.4247(3) 0.7659(6)
O3 O 0.7383(6) 0.6663(3) 0.7375(5)
O4 O 0.9448(5) 0.6828(3) 0.7058(4)
O5 O 1.2341(7) 0.5165(4) 0.9036(7)
O6 O 1.1653(6) 0.4121(4) 0.9225(6)
H1 H 1.2324 0.4079 0.9596
O7 O 0.4312(5) 0.3247(3) 0.8063(5)
H2 H 0.4011 0.3178 0.8756
H3 H 0.4437 0.3665 0.8009
N1 N 0.6331(7) 0.2693(4) 0.9866(6)
N2 N 0.6215(7) 0.2751(4) 1.6213(6)
C1 C 0.8104(8) 0.4616(5) 0.7930(8)
C2 C 0.7882(8) 0.5248(4) 0.7613(7)
H4 H 0.7075 0.5364 0.7344
C3 C 0.8821(8) 0.5748(4) 0.7667(7)
C4 C 0.9997(9) 0.5554(5) 0.8081(8)
H5 H 1.0634 0.5872 0.8125
C5 C 1.0272(9) 0.4920(5) 0.8428(7)
C6 C 0.9302(9) 0.4434(4) 0.8378(7)
H6 H 0.9457 0.4001 0.8637
C7 C 0.7091(10) 0.4077(5) 0.7872(7)
C8 C 0.8525(10) 0.6438(5) 0.7330(7)
C9 C 1.1519(9) 0.4724(6) 0.8899(9)
C10 C 0.5791(13) 0.2235(6) 1.0455(8)
H7 H 0.5426 0.1884 1.0025
C11 C 0.5709(12) 0.2224(7) 1.1726(9)
H8 H 0.5269 0.1884 1.2102
C12 C 0.6259(8) 0.2699(5) 1.2385(7)
C13 C 0.6841(10) 0.3187(6) 1.1767(8)
H9 H 0.7230 0.3532 1.2191
C14 C 0.6876(10) 0.3189(5) 1.0521(8)
H10 H 0.7279 0.3536 1.0128
C15 C 0.6259(9) 0.2673(5) 1.3729(7)
C16 C 0.5128(10) 0.2562(5) 1.4331(8)
H11 H 0.4383 0.2468 1.3909
C17 C 0.5157(9) 0.2597(5) 1.5582(8)
H12 H 0.4422 0.2510 1.5998
C18 C 0.7243(9) 0.2864(6) 1.5611(8)
H13 H 0.7971 0.2984 1.6038
C19 C 0.7299(8) 0.2814(5) 1.4374(7)
H14 H 0.8062 0.2878 1.3989
Cu1A Cu 0.87437(10) 0.77334(5) 0.69658(8)
Cu1_2 Cu 0.62563(10) 0.27334(5) 1.80342(8)
O4A O 0.5552(5) 0.1828(3) 0.7942(4)
N2_2 N 0.6215(7) 0.2751(4) 0.6213(6)
O8 O 0.3649(6) 0.3727(3) 1.0437(5)
H15 H 0.4223 0.4011 1.0599
H16 H 0.3559 0.3437 1.0987
O9 O 0.5191(8) 0.4643(5) 1.1356(9)
H17 H 0.5886 0.4697 1.1000
H18 H 0.4813 0.5013 1.1445
O10 O 0.851(2) 0.4487(14) 1.487(2)
O11 O 0.915(2) 0.5378(15) 1.466(2)
loop_
_geom_bond_atom_site_label_1
_geom_bond_atom_site_label_2
_geom_bond_site_symmetry_1
_geom_bond_site_symmetry_2
Cu1 O1 1_555 1_555
O1 C7 1_555 1_555
O2 C7 1_555 1_555
O3 C8 1_555 1_555
O4 C8 1_555 1_555
O5 C9 1_555 1_555
O6 H1 1_555 1_555
O7 Cu1 1_555 1_555
H2 O7 1_555 1_555
H3 O7 1_555 1_555
N1 Cu1 1_555 1_555
N2 C17 1_555 1_555
C1 C2 1_555 1_555
C2 H4 1_555 1_555
C3 C2 1_555 1_555
C4 C3 1_555 1_555
H5 C4 1_555 1_555
C5 C4 1_555 1_555
C6 C1 1_555 1_555
H6 C6 1_555 1_555
C7 C1 1_555 1_555
C8 C3 1_555 1_555
C9 O6 1_555 1_555
C10 N1 1_555 1_555
H7 C10 1_555 1_555
C11 C10 1_555 1_555
H8 C11 1_555 1_555
C12 C11 1_555 1_555
C13 C12 1_555 1_555
H9 C13 1_555 1_555
C14 N1 1_555 1_555
H10 C14 1_555 1_555
C15 C12 1_555 1_555
C16 C15 1_555 1_555
H11 C16 1_555 1_555
C17 C16 1_555 1_555
H12 C17 1_555 1_555
C18 N2 1_555 1_555
H13 C18 1_555 1_555
C19 C15 1_555 1_555
H14 C19 1_555 1_555
O8 H15 1_555 1_555
H16 O8 1_555 1_555
O9 H17 1_555 1_555
H18 O9 1_555 1_555
Cu1A O4 1_555 1_555
Cu1_2 N2 1_555 1_555
O4A Cu1 1_555 1_555
N2_2 Cu1 1_555 1_555
C5 C6 1_555 1_555
C5 C9 1_555 1_555
C13 C14 1_555 1_555
C18 C19 1_555 1_555

#END
