
#######################################################################
#
#                 Cambridge Crystallographic Data Centre
#                                CCDC 
#
#######################################################################
#
# If this CIF has been generated from an entry in the Cambridge 
# Structural Database, then it will include bibliographic, chemical, 
# crystal, experimental, refinement or atomic coordinate data resulting 
# from the CCDC's data processing and validation procedures.
#
#######################################################################

data_ROGTIR
_symmetry_cell_setting           hexagonal
_symmetry_space_group_name_H-M   'P 63/m'
_symmetry_Int_Tables_number      176
_space_group_name_Hall           '-P 6c'
loop_
_symmetry_equiv_pos_site_id
_symmetry_equiv_pos_as_xyz
1 x,y,z
2 x-y,x,1/2+z
3 -y,x-y,z
4 -x+y,-x,z
5 y,-x+y,1/2+z
6 -x,-y,1/2+z
7 -x,-y,-z
8 -x+y,-x,1/2-z
9 y,-x+y,-z
10 x-y,x,-z
11 -y,x-y,1/2-z
12 x,y,1/2-z
_cell_length_a                   10.543(2)
_cell_length_b                   10.543(2)
_cell_length_c                   22.409(6)
_cell_angle_alpha                90
_cell_angle_beta                 90
_cell_angle_gamma                120
_cell_volume                     2157.16
loop_
_atom_site_label
_atom_site_type_symbol
_atom_site_fract_x
_atom_site_fract_y
_atom_site_fract_z
P1 P 0.3333 0.6667 0.01791(6)
F1 F 0.2019(2) 0.5494(2) -0.02185(10)
F2 F 0.3178(2) 0.5355(2) 0.05831(10)
F1B F 0.4506(2) 0.6525(3) -0.02185(10)
F1C F 0.3475(3) 0.7981(2) -0.02185(10)
F2B F 0.4645(2) 0.7823(3) 0.05831(10)
F2C F 0.2177(3) 0.6822(2) 0.05831(10)
Fe1 Fe 0.0000 0.0000 0.0000
N1 N 0.3548(2) 0.0952(3) 0.10521(10)
N2 N 0.2220(3) 0.1908(3) 0.09041(11)
N3 N 0.3278(3) 0.2019(3) 0.12321(11)
N4 N 0.1786(3) 0.0771(2) 0.05144(10)
C1 C 0.2632(3) 0.0202(3) 0.06152(12)
H1 H 0.2591 -0.0607 0.0410
C2 C 0.4605(3) 0.0678(3) 0.13711(13)
H2 H 0.5517 0.1618 0.1443
H3 H 0.4850 0.0052 0.1124
C3 C 0.3971(3) -0.0074(3) 0.19627(12)
C4 C 0.4562(5) 0.0617(4) 0.2500
H4 H 0.5386 0.1579 0.2500
C5 C 0.2138(6) -0.2159(5) 0.2500
H5 H 0.1295 -0.3109 0.2500
C6 C 0.2750(4) -0.1468(3) 0.19654(13)
H6 H 0.2335 -0.1950 0.1599
C3K C 0.3971(3) -0.0074(3) 0.30373(12)
C2K C 0.4605(3) 0.0678(3) 0.36289(13)
N1K N 0.3548(2) 0.0952(3) 0.39479(10)
N3K N 0.3278(3) 0.2019(3) 0.37679(11)
N2K N 0.2220(3) 0.1908(3) 0.40959(11)
N4K N 0.1786(3) 0.0771(2) 0.44856(10)
C1K C 0.2632(3) 0.0202(3) 0.43848(12)
H1K H 0.2591 -0.0607 0.4590
H2K H 0.5517 0.1618 0.3557
H3K H 0.4850 0.0052 0.3876
C6K C 0.2750(4) -0.1468(3) 0.30346(13)
H6K H 0.2335 -0.1950 0.3401
N1B N -0.0952(3) 0.2596(4) 0.10521(10)
N2B N -0.1908(3) 0.0312(4) 0.09041(11)
N3B N -0.2019(3) 0.1259(4) 0.12321(11)
N4B N -0.0771(2) 0.1015(4) 0.05144(10)
C1B C -0.0202(3) 0.2430(4) 0.06152(12)
H1B H 0.0607 0.3198 0.0410
C2B C -0.0678(3) 0.3927(4) 0.13711(13)
H2B H -0.1618 0.3899 0.1443
H3B H -0.0052 0.4798 0.1124
C3B C 0.0074(3) 0.4045(4) 0.19627(12)
C4B C -0.0617(4) 0.3945(6) 0.2500
H4B H -0.1579 0.3807 0.2500
C5B C 0.2159(5) 0.4297(8) 0.2500
H5B H 0.3109 0.4404 0.2500
C6B C 0.1468(3) 0.4218(5) 0.19654(13)
H6B H 0.1950 0.4285 0.1599
C3J C 0.0074(3) 0.4045(4) 0.30373(12)
C2J C -0.0678(3) 0.3927(4) 0.36289(13)
N1J N -0.0952(3) 0.2596(4) 0.39479(10)
N3J N -0.2019(3) 0.1259(4) 0.37679(11)
N2J N -0.1908(3) 0.0312(4) 0.40959(11)
N4J N -0.0771(2) 0.1015(4) 0.44856(10)
C1J C -0.0202(3) 0.2430(4) 0.43848(12)
H1J H 0.0607 0.3198 0.4590
H2J H -0.1618 0.3899 0.3557
H3J H -0.0052 0.4798 0.3876
C6J C 0.1468(3) 0.4218(5) 0.30346(13)
H6J H 0.1950 0.4285 0.3401
N1C N -0.2596(4) -0.3548(2) 0.10521(10)
N2C N -0.0312(4) -0.2220(3) 0.09041(11)
N3C N -0.1259(4) -0.3278(3) 0.12321(11)
N4C N -0.1015(4) -0.1786(3) 0.05144(10)
C1C C -0.2430(4) -0.2632(3) 0.06152(12)
H1C H -0.3198 -0.2591 0.0410
C2C C -0.3927(4) -0.4605(3) 0.13711(13)
H2C H -0.3899 -0.5517 0.1443
H3C H -0.4798 -0.4850 0.1124
C3C C -0.4045(4) -0.3971(3) 0.19627(12)
C4C C -0.3945(6) -0.4562(5) 0.2500
H4C H -0.3807 -0.5386 0.2500
C5C C -0.4297(8) -0.2138(6) 0.2500
H5C H -0.4404 -0.1295 0.2500
C6C C -0.4218(5) -0.2750(4) 0.19654(13)
H6C H -0.4285 -0.2335 0.1599
C3G C -0.4045(4) -0.3971(3) 0.30373(12)
C2G C -0.3927(4) -0.4605(3) 0.36289(13)
N1G N -0.2596(4) -0.3548(2) 0.39479(10)
N3G N -0.1259(4) -0.3278(3) 0.37679(11)
N2G N -0.0312(4) -0.2220(3) 0.40959(11)
N4G N -0.1015(4) -0.1786(3) 0.44856(10)
C1G C -0.2430(4) -0.2632(3) 0.43848(12)
H1G H -0.3198 -0.2591 0.4590
H2G H -0.3899 -0.5517 0.3557
H3G H -0.4798 -0.4850 0.3876
C6G C -0.4218(5) -0.2750(4) 0.30346(13)
H6G H -0.4285 -0.2335 0.3401
N4F N -0.1786(3) -0.0771(2) -0.05144(10)
N4H N 0.0771(2) -0.1015(4) -0.05144(10)
N4I N 0.1015(4) 0.1786(3) -0.05144(10)
Fe1K Fe 0.0000 0.0000 0.5000
O1? O 0.0000 0.0000 0.1925(9)
H7? H -0.0467 0.0531 0.1782
C7? C 0.0000 0.0000 0.2587(10)
H8? H -0.0282 0.0689 0.2731
loop_
_geom_bond_atom_site_label_1
_geom_bond_atom_site_label_2
_geom_bond_site_symmetry_1
_geom_bond_site_symmetry_2
Fe1 N4 1_555 1_555
N1 N3 1_555 1_555
N2 N3 1_555 1_555
N4 N2 1_555 1_555
C1 N1 1_555 1_555
H1 C1 1_555 1_555
C2 N1 1_555 1_555
H2 C2 1_555 1_555
H3 C2 1_555 1_555
C3 C2 1_555 1_555
C4 C3 1_555 1_555
H4 C4 1_555 1_555
C5 H5 1_555 1_555
C6 C3 1_555 1_555
H6 C6 1_555 1_555
P1 F1 1_555 1_555
F2 P1 1_555 1_555
C3K C4 1_555 1_555
C2K C3K 1_555 1_555
N1K C2K 1_555 1_555
N3K N1K 1_555 1_555
N2K N3K 1_555 1_555
N4K N2K 1_555 1_555
C1K N1K 1_555 1_555
H1K C1K 1_555 1_555
H2K C2K 1_555 1_555
H3K C2K 1_555 1_555
C6K C5 1_555 1_555
H6K C6K 1_555 1_555
F1B P1 1_555 1_555
F1C P1 1_555 1_555
F2B P1 1_555 1_555
F2C P1 1_555 1_555
N1B N3B 1_555 1_555
N2B N3B 1_555 1_555
N4B Fe1 1_555 1_555
C1B N1B 1_555 1_555
H1B C1B 1_555 1_555
C2B N1B 1_555 1_555
H2B C2B 1_555 1_555
H3B C2B 1_555 1_555
C3B C2B 1_555 1_555
C4B C3B 1_555 1_555
H4B C4B 1_555 1_555
C5B H5B 1_555 1_555
C6B C3B 1_555 1_555
H6B C6B 1_555 1_555
C3J C4B 1_555 1_555
C2J C3J 1_555 1_555
N1J C2J 1_555 1_555
N3J N1J 1_555 1_555
N2J N3J 1_555 1_555
N4J N2J 1_555 1_555
C1J N1J 1_555 1_555
H1J C1J 1_555 1_555
H2J C2J 1_555 1_555
H3J C2J 1_555 1_555
C6J C5B 1_555 1_555
H6J C6J 1_555 1_555
N1C N3C 1_555 1_555
N2C N3C 1_555 1_555
N4C Fe1 1_555 1_555
C1C N1C 1_555 1_555
H1C C1C 1_555 1_555
C2C N1C 1_555 1_555
H2C C2C 1_555 1_555
H3C C2C 1_555 1_555
C3C C2C 1_555 1_555
C4C C3C 1_555 1_555
H4C C4C 1_555 1_555
C5C H5C 1_555 1_555
C6C C3C 1_555 1_555
H6C C6C 1_555 1_555
C3G C4C 1_555 1_555
C2G C3G 1_555 1_555
N1G C2G 1_555 1_555
N3G N1G 1_555 1_555
N2G N3G 1_555 1_555
N4G N2G 1_555 1_555
C1G N1G 1_555 1_555
H1G C1G 1_555 1_555
H2G C2G 1_555 1_555
H3G C2G 1_555 1_555
C6G C5C 1_555 1_555
H6G C6G 1_555 1_555
N4F Fe1 1_555 1_555
N4H Fe1 1_555 1_555
N4I Fe1 1_555 1_555
Fe1K N4K 1_555 1_555
N4 C1 1_555 1_555
C5 C6 1_555 1_555
C3K C6K 1_555 1_555
N4K C1K 1_555 1_555
N2B N4B 1_555 1_555
N4B C1B 1_555 1_555
C5B C6B 1_555 1_555
C3J C6J 1_555 1_555
N4J C1J 1_555 1_555
N4J Fe1K 1_555 1_555
N2C N4C 1_555 1_555
N4C C1C 1_555 1_555
C5C C6C 1_555 1_555
C3G C6G 1_555 1_555
N4G C1G 1_555 1_555
N4G Fe1K 1_555 1_555

#END
