
#######################################################################
#
#                 Cambridge Crystallographic Data Centre
#                                CCDC 
#
#######################################################################
#
# If this CIF has been generated from an entry in the Cambridge 
# Structural Database, then it will include bibliographic, chemical, 
# crystal, experimental, refinement or atomic coordinate data resulting 
# from the CCDC's data processing and validation procedures.
#
#######################################################################

data_ROGTIR01
_symmetry_cell_setting           hexagonal
_symmetry_space_group_name_H-M   'P 63/m'
_symmetry_Int_Tables_number      176
_space_group_name_Hall           '-P 6c'
loop_
_symmetry_equiv_pos_site_id
_symmetry_equiv_pos_as_xyz
1 x,y,z
2 x-y,x,1/2+z
3 -y,x-y,z
4 -x+y,-x,z
5 y,-x+y,1/2+z
6 -x,-y,1/2+z
7 -x,-y,-z
8 -x+y,-x,1/2-z
9 y,-x+y,-z
10 x-y,x,-z
11 -y,x-y,1/2-z
12 x,y,1/2-z
_cell_length_a                   10.679(2)
_cell_length_b                   10.679(2)
_cell_length_c                   22.793(6)
_cell_angle_alpha                90
_cell_angle_beta                 90
_cell_angle_gamma                120
_cell_volume                     2251.09
loop_
_atom_site_label
_atom_site_type_symbol
_atom_site_fract_x
_atom_site_fract_y
_atom_site_fract_z
P1 P 0.3333 0.6667 0.01534(11)
F1 F 0.2030(7) 0.5502(7) -0.0198(3)
F2 F 0.3146(7) 0.5385(7) 0.0527(3)
F1B F 0.4498(7) 0.6528(10) -0.0198(3)
F1C F 0.3472(10) 0.7970(7) -0.0198(3)
F2B F 0.4615(7) 0.7761(10) 0.0527(3)
F2C F 0.2239(10) 0.6854(7) 0.0527(3)
Fe1 Fe 0.0000 0.0000 0.0000
N1 N 0.3598(4) 0.0935(4) 0.10813(18)
N2 N 0.2334(5) 0.1921(5) 0.0933(2)
N3 N 0.3343(5) 0.1982(5) 0.1264(2)
N4 N 0.1909(4) 0.0824(4) 0.05425(17)
C1 C 0.2713(5) 0.0233(6) 0.0645(2)
H1 H 0.2663 -0.0564 0.0439
C2 C 0.4615(6) 0.0628(6) 0.1393(2)
H2 H 0.5529 0.1542 0.1466
H3 H 0.4838 -0.0001 0.1148
C3 C 0.3976(6) -0.0115(6) 0.1972(2)
C4 C 0.4573(8) 0.0567(8) 0.2500
H4 H 0.5398 0.1509 0.2500
C5 C 0.2154(12) -0.2144(9) 0.2500
H5 H 0.1312 -0.3074 0.2500
C6 C 0.2765(7) -0.1469(6) 0.1977(2)
H6 H 0.2347 -0.1941 0.1616
C3K C 0.3976(6) -0.0115(6) 0.3028(2)
C2K C 0.4615(6) 0.0628(6) 0.3607(2)
N1K N 0.3598(4) 0.0935(4) 0.39187(18)
N3K N 0.3343(5) 0.1982(5) 0.3736(2)
N2K N 0.2334(5) 0.1921(5) 0.4067(2)
N4K N 0.1909(4) 0.0824(4) 0.44575(17)
C1K C 0.2713(5) 0.0233(6) 0.4355(2)
H1K H 0.2663 -0.0564 0.4561
H2K H 0.5529 0.1542 0.3534
H3K H 0.4838 -0.0001 0.3852
C6K C 0.2765(7) -0.1469(6) 0.3023(2)
H6K H 0.2347 -0.1941 0.3384
N1B N -0.0935(4) 0.2663(6) 0.10813(18)
N2B N -0.1921(5) 0.0413(7) 0.0933(2)
N3B N -0.1982(5) 0.1361(7) 0.1264(2)
N4B N -0.0824(4) 0.1085(6) 0.05425(17)
C1B C -0.0233(6) 0.2480(8) 0.0645(2)
H1B H 0.0564 0.3227 0.0439
C2B C -0.0628(6) 0.3987(8) 0.1393(2)
H2B H -0.1542 0.3987 0.1466
H3B H 0.0001 0.4839 0.1148
C3B C 0.0115(6) 0.4091(8) 0.1972(2)
C4B C -0.0567(8) 0.4006(11) 0.2500
H4B H -0.1509 0.3889 0.2500
C5B C 0.2144(9) 0.4298(15) 0.2500
H5B H 0.3074 0.4386 0.2500
C6B C 0.1469(6) 0.4234(9) 0.1977(2)
H6B H 0.1941 0.4288 0.1616
C3J C 0.0115(6) 0.4091(8) 0.3028(2)
C2J C -0.0628(6) 0.3987(8) 0.3607(2)
N1J N -0.0935(4) 0.2663(6) 0.39187(18)
N3J N -0.1982(5) 0.1361(7) 0.3736(2)
N2J N -0.1921(5) 0.0413(7) 0.4067(2)
N4J N -0.0824(4) 0.1085(6) 0.44575(17)
C1J C -0.0233(6) 0.2480(8) 0.4355(2)
H1J H 0.0564 0.3227 0.4561
H2J H -0.1542 0.3987 0.3534
H3J H 0.0001 0.4839 0.3852
C6J C 0.1469(6) 0.4234(9) 0.3023(2)
H6J H 0.1941 0.4288 0.3384
N1C N -0.2663(6) -0.3598(4) 0.10813(18)
N2C N -0.0413(7) -0.2334(5) 0.0933(2)
N3C N -0.1361(7) -0.3343(5) 0.1264(2)
N4C N -0.1085(6) -0.1909(4) 0.05425(17)
C1C C -0.2480(8) -0.2713(5) 0.0645(2)
H1C H -0.3227 -0.2663 0.0439
C2C C -0.3987(8) -0.4615(6) 0.1393(2)
H2C H -0.3987 -0.5529 0.1466
H3C H -0.4839 -0.4838 0.1148
C3C C -0.4091(8) -0.3976(6) 0.1972(2)
C4C C -0.4006(11) -0.4573(8) 0.2500
H4C H -0.3889 -0.5398 0.2500
C5C C -0.4298(15) -0.2154(12) 0.2500
H5C H -0.4386 -0.1312 0.2500
C6C C -0.4234(9) -0.2765(7) 0.1977(2)
H6C H -0.4288 -0.2347 0.1616
C3G C -0.4091(8) -0.3976(6) 0.3028(2)
C2G C -0.3987(8) -0.4615(6) 0.3607(2)
N1G N -0.2663(6) -0.3598(4) 0.39187(18)
N3G N -0.1361(7) -0.3343(5) 0.3736(2)
N2G N -0.0413(7) -0.2334(5) 0.4067(2)
N4G N -0.1085(6) -0.1909(4) 0.44575(17)
C1G C -0.2480(8) -0.2713(5) 0.4355(2)
H1G H -0.3227 -0.2663 0.4561
H2G H -0.3987 -0.5529 0.3534
H3G H -0.4839 -0.4838 0.3852
C6G C -0.4234(9) -0.2765(7) 0.3023(2)
H6G H -0.4288 -0.2347 0.3384
N4F N -0.1909(4) -0.0824(4) -0.05425(17)
N4H N 0.0824(4) -0.1085(6) -0.05425(17)
N4I N 0.1085(6) 0.1909(4) -0.05425(17)
Fe1K Fe 0.0000 0.0000 0.5000
O1? O 0.0000 0.0000 0.199(3)
H7? H -0.0467 0.0531 0.1842
C7? C 0.0000 0.0000 0.265(3)
H8? H -0.0282 0.0689 0.2798
loop_
_geom_bond_atom_site_label_1
_geom_bond_atom_site_label_2
_geom_bond_site_symmetry_1
_geom_bond_site_symmetry_2
Fe1 N4 1_555 1_555
N1 N3 1_555 1_555
N2 N3 1_555 1_555
N4 N2 1_555 1_555
C1 N1 1_555 1_555
H1 C1 1_555 1_555
C2 N1 1_555 1_555
H2 C2 1_555 1_555
H3 C2 1_555 1_555
C3 C2 1_555 1_555
C4 C3 1_555 1_555
H4 C4 1_555 1_555
C5 H5 1_555 1_555
C6 C3 1_555 1_555
H6 C6 1_555 1_555
P1 F1 1_555 1_555
F2 P1 1_555 1_555
C3K C4 1_555 1_555
C2K C3K 1_555 1_555
N1K C2K 1_555 1_555
N3K N1K 1_555 1_555
N2K N3K 1_555 1_555
N4K N2K 1_555 1_555
C1K N1K 1_555 1_555
H1K C1K 1_555 1_555
H2K C2K 1_555 1_555
H3K C2K 1_555 1_555
C6K C5 1_555 1_555
H6K C6K 1_555 1_555
F1B P1 1_555 1_555
F1C P1 1_555 1_555
F2B P1 1_555 1_555
F2C P1 1_555 1_555
N1B N3B 1_555 1_555
N2B N3B 1_555 1_555
N4B Fe1 1_555 1_555
C1B N1B 1_555 1_555
H1B C1B 1_555 1_555
C2B N1B 1_555 1_555
H2B C2B 1_555 1_555
H3B C2B 1_555 1_555
C3B C2B 1_555 1_555
C4B C3B 1_555 1_555
H4B C4B 1_555 1_555
C5B H5B 1_555 1_555
C6B C3B 1_555 1_555
H6B C6B 1_555 1_555
C3J C4B 1_555 1_555
C2J C3J 1_555 1_555
N1J C2J 1_555 1_555
N3J N1J 1_555 1_555
N2J N3J 1_555 1_555
N4J N2J 1_555 1_555
C1J N1J 1_555 1_555
H1J C1J 1_555 1_555
H2J C2J 1_555 1_555
H3J C2J 1_555 1_555
C6J C5B 1_555 1_555
H6J C6J 1_555 1_555
N1C N3C 1_555 1_555
N2C N3C 1_555 1_555
N4C Fe1 1_555 1_555
C1C N1C 1_555 1_555
H1C C1C 1_555 1_555
C2C N1C 1_555 1_555
H2C C2C 1_555 1_555
H3C C2C 1_555 1_555
C3C C2C 1_555 1_555
C4C C3C 1_555 1_555
H4C C4C 1_555 1_555
C5C H5C 1_555 1_555
C6C C3C 1_555 1_555
H6C C6C 1_555 1_555
C3G C4C 1_555 1_555
C2G C3G 1_555 1_555
N1G C2G 1_555 1_555
N3G N1G 1_555 1_555
N2G N3G 1_555 1_555
N4G N2G 1_555 1_555
C1G N1G 1_555 1_555
H1G C1G 1_555 1_555
H2G C2G 1_555 1_555
H3G C2G 1_555 1_555
C6G C5C 1_555 1_555
H6G C6G 1_555 1_555
N4F Fe1 1_555 1_555
N4H Fe1 1_555 1_555
N4I Fe1 1_555 1_555
Fe1K N4K 1_555 1_555
N4 C1 1_555 1_555
C5 C6 1_555 1_555
C3K C6K 1_555 1_555
N4K C1K 1_555 1_555
N2B N4B 1_555 1_555
N4B C1B 1_555 1_555
C5B C6B 1_555 1_555
C3J C6J 1_555 1_555
N4J C1J 1_555 1_555
N4J Fe1K 1_555 1_555
N2C N4C 1_555 1_555
N4C C1C 1_555 1_555
C5C C6C 1_555 1_555
C3G C6G 1_555 1_555
N4G C1G 1_555 1_555
N4G Fe1K 1_555 1_555

#END
