
#######################################################################
#
#                 Cambridge Crystallographic Data Centre
#                                CCDC 
#
#######################################################################
#
# If this CIF has been generated from an entry in the Cambridge 
# Structural Database, then it will include bibliographic, chemical, 
# crystal, experimental, refinement or atomic coordinate data resulting 
# from the CCDC's data processing and validation procedures.
#
#######################################################################

data_ROGTOX
_symmetry_cell_setting           hexagonal
_symmetry_space_group_name_H-M   'P 63/m'
_symmetry_Int_Tables_number      176
_space_group_name_Hall           '-P 6c'
loop_
_symmetry_equiv_pos_site_id
_symmetry_equiv_pos_as_xyz
1 x,y,z
2 -y,x-y,z
3 -x+y,-x,z
4 x-y,x,1/2+z
5 y,-x+y,1/2+z
6 -x,-y,1/2+z
7 -x,-y,-z
8 y,-x+y,-z
9 x-y,x,-z
10 -x+y,-x,1/2-z
11 -y,x-y,1/2-z
12 x,y,1/2-z
_cell_length_a                   10.9539(18)
_cell_length_b                   10.9539(18)
_cell_length_c                   23.227(4)
_cell_angle_alpha                90
_cell_angle_beta                 90
_cell_angle_gamma                120
_cell_volume                     2413.58
loop_
_atom_site_label
_atom_site_type_symbol
_atom_site_fract_x
_atom_site_fract_y
_atom_site_fract_z
C7 C 1.0000 0.0000 0.7244(15)
N5 N 1.0000 0.0000 0.6763(15)
C7J C 1.0000 0.0000 0.7756(15)
N5J N 1.0000 0.0000 0.8237(15)
S1 S 1.6667 0.3333 0.5506(9)
O1 O 1.686(3) 0.217(2) 0.5652(10)
C8 C 1.6667 0.3333 0.4736(10)
F1 F 1.566(2) 0.2111(17) 0.4525(10)
F1A F 1.7889(17) 0.3549(26) 0.4525(10)
F1B F 1.6451(26) 0.434(2) 0.4525(10)
O1A O 1.783(2) 0.469(4) 0.5652(10)
O1B O 1.531(4) 0.314(3) 0.5652(10)
Fe1 Fe 1.0000 0.0000 0.5000
N1 N 1.1855(12) 0.1053(14) 0.4462(4)
N2 N 1.2346(15) 0.0414(15) 0.4102(6)
N3 N 1.3342(14) 0.1380(16) 0.3764(6)
N4 N 1.3484(12) 0.2576(13) 0.3901(5)
C1 C 1.2624(14) 0.2421(16) 0.4315(7)
H1 H 1.2550 0.3149 0.4485
C2 C 1.4482(16) 0.3841(16) 0.3565(7)
H2 H 1.4740 0.4680 0.3791
H3 H 1.5333 0.3803 0.3489
C3 C 1.3876(13) 0.3938(13) 0.3021(5)
C4 C 1.269(2) 0.410(2) 0.3016(8)
H4 H 1.2297 0.4166 0.3361
C5 C 1.210(3) 0.416(3) 0.2500
H5 H 1.1299 0.4249 0.2500
C6 C 1.4410(18) 0.3886(18) 0.2500
H6 H 1.5217 0.3808 0.2500
C4K C 1.269(2) 0.410(2) 0.1984(8)
C3K C 1.3876(13) 0.3938(13) 0.1979(5)
C2K C 1.4482(16) 0.3841(16) 0.1435(7)
N4K N 1.3484(12) 0.2576(13) 0.1099(5)
N3K N 1.3342(14) 0.1380(16) 0.1236(6)
N2K N 1.2346(15) 0.0414(15) 0.0898(6)
N1K N 1.1855(12) 0.1053(14) 0.0538(4)
C1K C 1.2624(14) 0.2421(16) 0.0685(7)
H1K H 1.2550 0.3149 0.0515
H2K H 1.4740 0.4680 0.1209
H3K H 1.5333 0.3803 0.1511
H4K H 1.2297 0.4166 0.1639
N1A N 0.8947(14) 0.0802(18) 0.4462(4)
N2A N 0.9586(15) 0.1932(21) 0.4102(6)
N3A N 0.8620(16) 0.1962(21) 0.3764(6)
N4A N 0.7424(13) 0.0908(18) 0.3901(5)
C1A C 0.7579(16) 0.0203(21) 0.4315(7)
H1A H 0.6851 -0.0599 0.4485
C2A C 0.6159(16) 0.0641(23) 0.3565(7)
H2A H 0.5320 0.0060 0.3791
H3A H 0.6197 0.1530 0.3489
C3A C 0.6062(13) -0.0062(18) 0.3021(5)
C4A C 0.590(2) -0.141(3) 0.3016(8)
H4A H 0.5834 -0.1869 0.3361
C5A C 0.584(3) -0.206(4) 0.2500
H5A H 0.5751 -0.2950 0.2500
C6A C 0.6114(18) 0.0524(25) 0.2500
H6A H 0.6192 0.1409 0.2500
C4J C 0.590(2) -0.141(3) 0.1984(8)
C3J C 0.6062(13) -0.0062(18) 0.1979(5)
C2J C 0.6159(16) 0.0641(23) 0.1435(7)
N4J N 0.7424(13) 0.0908(18) 0.1099(5)
N3J N 0.8620(16) 0.1962(21) 0.1236(6)
N2J N 0.9586(15) 0.1932(21) 0.0898(6)
N1J N 0.8947(14) 0.0802(18) 0.0538(4)
C1J C 0.7579(16) 0.0203(21) 0.0685(7)
H1J H 0.6851 -0.0599 0.0515
H2J H 0.5320 0.0060 0.1209
H3J H 0.6197 0.1530 0.1511
H4J H 0.5834 -0.1869 0.1639
N1B N 0.9198(18) -0.1855(12) 0.4462(4)
N2B N 0.8068(21) -0.2346(15) 0.4102(6)
N3B N 0.8038(21) -0.3342(14) 0.3764(6)
N4B N 0.9092(18) -0.3484(12) 0.3901(5)
C1B C 0.9797(21) -0.2624(14) 0.4315(7)
H1B H 1.0599 -0.2550 0.4485
C2B C 0.9359(23) -0.4482(16) 0.3565(7)
H2B H 0.9940 -0.4740 0.3791
H3B H 0.8470 -0.5333 0.3489
C3B C 1.0062(18) -0.3876(13) 0.3021(5)
C4B C 1.141(3) -0.269(2) 0.3016(8)
H4B H 1.1869 -0.2297 0.3361
C5B C 1.206(4) -0.210(3) 0.2500
H5B H 1.2950 -0.1299 0.2500
C6B C 0.9476(25) -0.4410(18) 0.2500
H6B H 0.8591 -0.5217 0.2500
C4I C 1.141(3) -0.269(2) 0.1984(8)
C3I C 1.0062(18) -0.3876(13) 0.1979(5)
C2I C 0.9359(23) -0.4482(16) 0.1435(7)
N4I N 0.9092(18) -0.3484(12) 0.1099(5)
N3I N 0.8038(21) -0.3342(14) 0.1236(6)
N2I N 0.8068(21) -0.2346(15) 0.0898(6)
N1I N 0.9198(18) -0.1855(12) 0.0538(4)
C1I C 0.9797(21) -0.2624(14) 0.0685(7)
H1I H 1.0599 -0.2550 0.0515
H2I H 0.9940 -0.4740 0.1209
H3I H 0.8470 -0.5333 0.1511
H4I H 1.1869 -0.2297 0.1639
N1F N 0.8145(12) -0.1053(14) 0.5538(4)
N1G N 1.1053(14) -0.0802(18) 0.5538(4)
N1H N 1.0802(18) 0.1855(12) 0.5538(4)
Fe1K Fe 1.0000 0.0000 0.0000
loop_
_geom_bond_atom_site_label_1
_geom_bond_atom_site_label_2
_geom_bond_site_symmetry_1
_geom_bond_site_symmetry_2
Fe1 N1 1_555 1_555
N1 N2 1_555 1_555
N2 N3 1_555 1_555
N3 N4 1_555 1_555
N4 C1 1_555 1_555
C1 N1 1_555 1_555
H1 C1 1_555 1_555
C2 N4 1_555 1_555
H2 C2 1_555 1_555
H3 C2 1_555 1_555
C3 C2 1_555 1_555
C4 C3 1_555 1_555
H4 C4 1_555 1_555
C5 C4 1_555 1_555
H5 C5 1_555 1_555
C6 C3 1_555 1_555
H6 C6 1_555 1_555
C7 N5 1_555 1_555
S1 O1 1_555 1_555
C8 S1 1_555 1_555
F1 C8 1_555 1_555
C4K C5 1_555 1_555
C3K C6 1_555 1_555
C2K C3K 1_555 1_555
N4K C2K 1_555 1_555
N3K N4K 1_555 1_555
N2K N3K 1_555 1_555
N1K N2K 1_555 1_555
C1K N4K 1_555 1_555
H1K C1K 1_555 1_555
H2K C2K 1_555 1_555
H3K C2K 1_555 1_555
H4K C4K 1_555 1_555
C7J C7 1_555 1_555
N5J C7J 1_555 1_555
F1A C8 1_555 1_555
F1B C8 1_555 1_555
O1A S1 1_555 1_555
O1B S1 1_555 1_555
N1A Fe1 1_555 1_555
N2A N1A 1_555 1_555
N3A N2A 1_555 1_555
N4A N3A 1_555 1_555
C1A N1A 1_555 1_555
H1A C1A 1_555 1_555
C2A N4A 1_555 1_555
H2A C2A 1_555 1_555
H3A C2A 1_555 1_555
C3A C2A 1_555 1_555
C4A C3A 1_555 1_555
H4A C4A 1_555 1_555
C5A C4A 1_555 1_555
H5A C5A 1_555 1_555
C6A C3A 1_555 1_555
H6A C6A 1_555 1_555
C4J C5A 1_555 1_555
C3J C6A 1_555 1_555
C2J C3J 1_555 1_555
N4J C2J 1_555 1_555
N3J N4J 1_555 1_555
N2J N3J 1_555 1_555
N1J N2J 1_555 1_555
C1J N4J 1_555 1_555
H1J C1J 1_555 1_555
H2J C2J 1_555 1_555
H3J C2J 1_555 1_555
H4J C4J 1_555 1_555
N1B Fe1 1_555 1_555
N2B N1B 1_555 1_555
N3B N2B 1_555 1_555
N4B N3B 1_555 1_555
C1B N1B 1_555 1_555
H1B C1B 1_555 1_555
C2B N4B 1_555 1_555
H2B C2B 1_555 1_555
H3B C2B 1_555 1_555
C3B C2B 1_555 1_555
C4B C3B 1_555 1_555
H4B C4B 1_555 1_555
C5B C4B 1_555 1_555
H5B C5B 1_555 1_555
C6B C3B 1_555 1_555
H6B C6B 1_555 1_555
C4I C5B 1_555 1_555
C3I C6B 1_555 1_555
C2I C3I 1_555 1_555
N4I C2I 1_555 1_555
N3I N4I 1_555 1_555
N2I N3I 1_555 1_555
N1I N2I 1_555 1_555
C1I N4I 1_555 1_555
H1I C1I 1_555 1_555
H2I C2I 1_555 1_555
H3I C2I 1_555 1_555
H4I C4I 1_555 1_555
N1F Fe1 1_555 1_555
N1G Fe1 1_555 1_555
N1H Fe1 1_555 1_555
Fe1K N1K 1_555 1_555
C4K C3K 1_555 1_555
N1K C1K 1_555 1_555
N4A C1A 1_555 1_555
C4J C3J 1_555 1_555
N1J C1J 1_555 1_555
N1J Fe1K 1_555 1_555
N4B C1B 1_555 1_555
C4I C3I 1_555 1_555
N1I C1I 1_555 1_555
N1I Fe1K 1_555 1_555

#END
