
#######################################################################
#
#                 Cambridge Crystallographic Data Centre
#                                CCDC 
#
#######################################################################
#
# If this CIF has been generated from an entry in the Cambridge 
# Structural Database, then it will include bibliographic, chemical, 
# crystal, experimental, refinement or atomic coordinate data resulting 
# from the CCDC's data processing and validation procedures.
#
#######################################################################

data_ROGTOX02
_symmetry_cell_setting           trigonal
_symmetry_space_group_name_H-M   'P -3'
_symmetry_Int_Tables_number      147
_space_group_name_Hall           '-P 3'
loop_
_symmetry_equiv_pos_site_id
_symmetry_equiv_pos_as_xyz
1 x,y,z
2 -y,x-y,z
3 -x+y,-x,z
4 -x,-y,-z
5 y,-x+y,-z
6 x-y,x,-z
_cell_length_a                   18.6954(10)
_cell_length_b                   18.6954(10)
_cell_length_c                   23.293(2)
_cell_angle_alpha                90
_cell_angle_beta                 90
_cell_angle_gamma                120
_cell_volume                     7050.59
loop_
_atom_site_label
_atom_site_type_symbol
_atom_site_fract_x
_atom_site_fract_y
_atom_site_fract_z
Fe3 Fe 0.0000 0.0000 0.0000
Fe4 Fe 0.0000 0.0000 0.5000
N17 N 0.0975(2) 0.0928(2) 0.05383(18)
N18 N 0.0819(3) 0.1336(3) 0.09649(19)
N19 N 0.1445(3) 0.1690(3) 0.13093(18)
N20 N 0.2019(2) 0.1522(2) 0.11070(17)
N21 N 0.2101(2) 0.1420(2) 0.39155(18)
N22 N 0.1696(3) 0.1844(3) 0.3843(2)
N23 N 0.1059(3) 0.1502(3) 0.4174(2)
N24 N 0.1038(2) 0.0863(2) 0.44676(18)
C21 C 0.1724(3) 0.1057(3) 0.0638(2)
H21 H 0.2007 0.0853 0.0413
C22 C 0.2790(3) 0.1785(3) 0.1425(2)
H22 H 0.3047 0.2379 0.1521
H23 H 0.3181 0.1710 0.1180
C23 C 0.2628(3) 0.1289(3) 0.1970(2)
C24 C 0.2290(3) 0.0437(3) 0.1954(3)
H24 H 0.2165 0.0166 0.1592
C25 C 0.2131(4) -0.0022(4) 0.2440(3)
H25 H 0.1893 -0.0605 0.2416
C26 C 0.2317(3) 0.0364(3) 0.2970(3)
H26 H 0.2217 0.0047 0.3310
C27 C 0.2651(3) 0.1215(3) 0.3007(2)
C28 C 0.2797(3) 0.1668(3) 0.2506(2)
H27 H 0.3017 0.2248 0.2529
C29 C 0.2845(3) 0.1639(3) 0.3587(2)
H28 H 0.3198 0.1482 0.3808
H29 H 0.3159 0.2245 0.3530
C30 C 0.1692(3) 0.0828(3) 0.4298(2)
H30 H 0.1846 0.0442 0.4429
N17A N -0.0928(2) 0.0047(3) 0.05383(18)
N17B N -0.0047(3) -0.0975(2) 0.05383(18)
N17C N -0.0975(2) -0.0928(2) -0.05383(18)
N17D N 0.0928(2) -0.0047(3) -0.05383(18)
N17E N 0.0047(3) 0.0975(2) -0.05383(18)
N24A N -0.0863(2) 0.0175(3) 0.44676(18)
N24B N -0.0175(3) -0.1038(2) 0.44676(18)
N24C N -0.1038(2) -0.0863(2) 0.55324(18)
N24D N 0.0863(2) -0.0175(3) 0.55324(18)
N24E N 0.0175(3) 0.1038(2) 0.55324(18)
S1 S -0.05084(8) 0.30087(9) 0.00199(6)
F1 F 0.0597(2) 0.2761(2) 0.05095(18)
F2 F 0.0618(2) 0.3862(3) 0.0778(2)
F3 F 0.1097(2) 0.3807(2) -0.0035(2)
O1 O -0.0534(3) 0.3734(3) -0.0109(2)
O2 O -0.0496(4) 0.2565(5) -0.0450(3)
O3 O -0.1042(3) 0.2540(3) 0.0476(3)
C31 C 0.0477(4) 0.3363(3) 0.0333(3)
S2 S 0.34007(9) 0.02454(9) 0.45311(7)
F4 F 0.3695(3) -0.0848(2) 0.4961(2)
F5 F 0.3247(4) -0.0297(4) 0.55765(19)
F6 F 0.4476(3) 0.0345(2) 0.52803(18)
O4 O 0.3487(3) 0.1008(3) 0.4780(2)
O5 O 0.3968(3) 0.0389(4) 0.4100(2)
O6 O 0.2578(2) -0.0360(2) 0.4408(2)
C32 C 0.3690(4) -0.0141(3) 0.5137(4)
N25 N 0.0000 0.0000 0.3287(6)
C33 C 0.0000 0.0000 0.2840(5)
C34 C 0.0000 0.0000 0.2258(6)
H31 H -0.0478 0.0036 0.2117
H31A H -0.0036 -0.0514 0.2117
H31B H 0.0514 0.0478 0.2117
N26 N 0.6667 0.3333 0.3084(6)
C35 C 0.6667 0.3333 0.2597(6)
C36 C 0.6667 0.3333 0.2002(6)
H32 H 0.6980 0.3906 0.1860
H32A H 0.6094 0.3074 0.1860
H32B H 0.6926 0.3020 0.1860
N27 N 0.3333 0.6667 0.1882(6)
C37 C 0.3333 0.6667 0.2339(5)
C38 C 0.3333 0.6667 0.2932(5)
H33 H 0.3612 0.6371 0.3074
H33A H 0.3629 0.7241 0.3074
H33B H 0.2759 0.6388 0.3074
Fe1 Fe 0.6667 0.3333 0.47971(5)
Fe2 Fe 0.6667 0.3333 -0.01859(5)
N1 N 0.6546(2) 0.2329(2) 0.42555(17)
N2 N 0.7170(3) 0.2327(3) 0.3959(2)
N3 N 0.6868(3) 0.1680(3) 0.3620(2)
N4 N 0.6048(3) 0.1267(2) 0.36956(18)
N5 N 0.6152(3) 0.1305(2) 0.09036(18)
N6 N 0.6917(3) 0.1857(3) 0.11057(19)
N7 N 0.7196(3) 0.2491(3) 0.07762(19)
N8 N 0.6632(2) 0.2363(2) 0.03618(18)
N9 N 0.6644(2) 0.4286(2) -0.07245(17)
N10 N 0.5998(3) 0.4209(3) -0.1041(2)
N11 N 0.6245(3) 0.4825(3) -0.1382(2)
N12 N 0.7059(3) 0.5319(2) -0.12828(18)
N13 N 0.7249(2) 0.5375(2) 0.59199(17)
N14 N 0.6509(3) 0.4794(3) 0.61394(18)
N15 N 0.6219(2) 0.4163(3) 0.58067(19)
N16 N 0.6751(2) 0.4324(2) 0.53590(17)
C1 C 0.5862(3) 0.1673(3) 0.4085(2)
H1 H 0.5322 0.1513 0.4218
C2 C 0.5508(3) 0.0516(3) 0.3373(2)
H2 H 0.5003 0.0167 0.3600
H3 H 0.5795 0.0200 0.3309
C3 C 0.5266(3) 0.0714(3) 0.2798(2)
C4 C 0.4759(3) 0.1059(3) 0.2767(3)
H4 H 0.4569 0.1182 0.3111
C5 C 0.4529(3) 0.1223(4) 0.2248(3)
H5 H 0.4190 0.1468 0.2235
C6 C 0.4792(3) 0.1031(4) 0.1734(2)
H6 H 0.4624 0.1136 0.1374
C7 C 0.5296(3) 0.0689(3) 0.1758(2)
C8 C 0.5538(3) 0.0544(3) 0.2286(2)
H7 H 0.5898 0.0324 0.2300
C9 C 0.5615(3) 0.0519(3) 0.1206(2)
H8 H 0.5933 0.0239 0.1294
H9 H 0.5145 0.0151 0.0957
C10 C 0.5992(3) 0.1630(3) 0.0452(2)
H10 H 0.5499 0.1375 0.0231
C11 C 0.7294(3) 0.4980(3) -0.0878(2)
H11 H 0.7836 0.5202 -0.0726
C12 C 0.7563(3) 0.6084(3) -0.1620(2)
H12 H 0.8026 0.6489 -0.1380
H13 H 0.7218 0.6329 -0.1723
C13 C 0.7904(3) 0.5919(3) -0.2162(2)
C14 C 0.8428(3) 0.5600(3) -0.2134(2)
H14 H 0.8567 0.5465 -0.1773
C15 C 0.8748(4) 0.5480(4) -0.2631(3)
H15 H 0.9107 0.5259 -0.2610
C16 C 0.8560(3) 0.5674(4) -0.3158(3)
H16 H 0.8800 0.5601 -0.3496
C17 C 0.8021(3) 0.5975(3) -0.3192(2)
C18 C 0.7709(3) 0.6106(3) -0.2690(2)
H17 H 0.7352 0.6330 -0.2710
C19 C 0.7788(3) 0.6156(3) 0.6229(2)
H18 H 0.7495 0.6470 0.6279
H19 H 0.8294 0.6499 0.6002
C20 C 0.7370(3) 0.5069(3) 0.5446(2)
H20 H 0.7838 0.5348 0.5202
N1A N 0.7671(2) 0.4217(3) 0.42555(17)
N1B N 0.5783(3) 0.3454(2) 0.42555(17)
N16A N 0.5676(2) 0.2427(3) 0.53590(17)
N16B N 0.7573(3) 0.3249(2) 0.53590(17)
N8A N 0.7637(2) 0.4269(3) 0.03618(18)
N8B N 0.5731(3) 0.3368(2) 0.03618(18)
N9A N 0.5714(2) 0.2358(3) -0.07245(17)
N9B N 0.7642(3) 0.3356(2) -0.07245(17)
C19_2 C 0.7788(3) 0.6156(3) -0.3771(2)
C17_2 C 0.8021(3) 0.5975(3) 0.6808(2)
loop_
_geom_bond_atom_site_label_1
_geom_bond_atom_site_label_2
_geom_bond_site_symmetry_1
_geom_bond_site_symmetry_2
Fe1 N1 1_555 1_555
Fe2 N8 1_555 1_555
N1 N2 1_555 1_555
N2 N3 1_555 1_555
N3 N4 1_555 1_555
N4 C1 1_555 1_555
N5 N6 1_555 1_555
N6 N7 1_555 1_555
N7 N8 1_555 1_555
N8 C10 1_555 1_555
N9 Fe2 1_555 1_555
N10 N9 1_555 1_555
N11 N10 1_555 1_555
N12 N11 1_555 1_555
N13 N14 1_555 1_555
N14 N15 1_555 1_555
N15 N16 1_555 1_555
N16 Fe1 1_555 1_555
C1 N1 1_555 1_555
H1 C1 1_555 1_555
C2 N4 1_555 1_555
H2 C2 1_555 1_555
H3 C2 1_555 1_555
C3 C2 1_555 1_555
C4 C3 1_555 1_555
H4 C4 1_555 1_555
C5 C4 1_555 1_555
H5 C5 1_555 1_555
C6 C5 1_555 1_555
H6 C6 1_555 1_555
C7 C6 1_555 1_555
C8 C3 1_555 1_555
H7 C8 1_555 1_555
C9 N5 1_555 1_555
H8 C9 1_555 1_555
H9 C9 1_555 1_555
C10 N5 1_555 1_555
H10 C10 1_555 1_555
C11 N9 1_555 1_555
H11 C11 1_555 1_555
C12 N12 1_555 1_555
H12 C12 1_555 1_555
H13 C12 1_555 1_555
C13 C12 1_555 1_555
C14 C13 1_555 1_555
H14 C14 1_555 1_555
C15 C14 1_555 1_555
H15 C15 1_555 1_555
C16 C15 1_555 1_555
H16 C16 1_555 1_555
C17 C16 1_555 1_555
C18 C13 1_555 1_555
H17 C18 1_555 1_555
C19 N13 1_555 1_555
H18 C19 1_555 1_555
H19 C19 1_555 1_555
C20 N13 1_555 1_555
H20 C20 1_555 1_555
Fe3 N17 1_555 1_555
Fe4 N24 1_555 1_555
N17 N18 1_555 1_555
N18 N19 1_555 1_555
N19 N20 1_555 1_555
N20 C21 1_555 1_555
N21 N22 1_555 1_555
N22 N23 1_555 1_555
N23 N24 1_555 1_555
N24 C30 1_555 1_555
C21 N17 1_555 1_555
H21 C21 1_555 1_555
C22 N20 1_555 1_555
H22 C22 1_555 1_555
H23 C22 1_555 1_555
C23 C22 1_555 1_555
C24 C23 1_555 1_555
H24 C24 1_555 1_555
C25 C24 1_555 1_555
H25 C25 1_555 1_555
C26 C25 1_555 1_555
H26 C26 1_555 1_555
C27 C26 1_555 1_555
C28 C23 1_555 1_555
H27 C28 1_555 1_555
C29 N21 1_555 1_555
H28 C29 1_555 1_555
H29 C29 1_555 1_555
C30 N21 1_555 1_555
H30 C30 1_555 1_555
S1 O1 1_555 1_555
F1 C31 1_555 1_555
F2 C31 1_555 1_555
F3 C31 1_555 1_555
O2 S1 1_555 1_555
O3 S1 1_555 1_555
C31 S1 1_555 1_555
S2 O4 1_555 1_555
F4 C32 1_555 1_555
F5 C32 1_555 1_555
F6 C32 1_555 1_555
O5 S2 1_555 1_555
O6 S2 1_555 1_555
C32 S2 1_555 1_555
N25 C33 1_555 1_555
C33 C34 1_555 1_555
C34 H31 1_555 1_555
N26 C35 1_555 1_555
C35 C36 1_555 1_555
C36 H32 1_555 1_555
N27 C37 1_555 1_555
C37 C38 1_555 1_555
C38 H33 1_555 1_555
N1A Fe1 1_555 1_555
N1B Fe1 1_555 1_555
N16A Fe1 1_555 1_555
N16B Fe1 1_555 1_555
N8A Fe2 1_555 1_555
N8B Fe2 1_555 1_555
N9A Fe2 1_555 1_555
N9B Fe2 1_555 1_555
C19_2 C17 1_555 1_555
C17_2 C19 1_555 1_555
N17A Fe3 1_555 1_555
N17B Fe3 1_555 1_555
N17C Fe3 1_555 1_555
N17D Fe3 1_555 1_555
N17E Fe3 1_555 1_555
N24A Fe4 1_555 1_555
N24B Fe4 1_555 1_555
N24C Fe4 1_555 1_555
N24D Fe4 1_555 1_555
N24E Fe4 1_555 1_555
H31A C34 1_555 1_555
H31B C34 1_555 1_555
H32A C36 1_555 1_555
H32B C36 1_555 1_555
H33A C38 1_555 1_555
H33B C38 1_555 1_555
N12 C11 1_555 1_555
N16 C20 1_555 1_555
C7 C8 1_555 1_555
C7 C9 1_555 1_555
C17 C18 1_555 1_555
C27 C28 1_555 1_555
C27 C29 1_555 1_555

#END
