
#######################################################################
#
#                 Cambridge Crystallographic Data Centre
#                                CCDC 
#
#######################################################################
#
# If this CIF has been generated from an entry in the Cambridge 
# Structural Database, then it will include bibliographic, chemical, 
# crystal, experimental, refinement or atomic coordinate data resulting 
# from the CCDC's data processing and validation procedures.
#
#######################################################################

data_ROGTOX01
_symmetry_cell_setting           trigonal
_symmetry_space_group_name_H-M   'P -3'
_symmetry_Int_Tables_number      147
_space_group_name_Hall           '-P 3'
loop_
_symmetry_equiv_pos_site_id
_symmetry_equiv_pos_as_xyz
1 x,y,z
2 -y,x-y,z
3 -x+y,-x,z
4 -x,-y,-z
5 y,-x+y,-z
6 x-y,x,-z
_cell_length_a                   18.5942(12)
_cell_length_b                   18.5942(12)
_cell_length_c                   23.1106(15)
_cell_angle_alpha                90
_cell_angle_beta                 90
_cell_angle_gamma                120
_cell_volume                     6919.85
loop_
_atom_site_label
_atom_site_type_symbol
_atom_site_fract_x
_atom_site_fract_y
_atom_site_fract_z
Fe1 Fe 0.6667 0.3333 0.47908(4)
Fe2 Fe 0.6667 0.3333 -0.01940(4)
N1 N 0.65590(17) 0.23287(17) 0.42436(13)
N2 N 0.71930(18) 0.23222(19) 0.39494(14)
N3 N 0.69003(19) 0.16882(19) 0.36061(15)
N4 N 0.60658(18) 0.12691(17) 0.36757(13)
N5 N 0.61742(18) 0.13342(18) 0.08543(13)
N6 N 0.69452(18) 0.18871(19) 0.10521(15)
N7 N 0.72150(19) 0.25396(19) 0.07281(14)
N8 N 0.66272(18) 0.24140(17) 0.03263(13)
N9 N 0.66716(17) 0.42443(18) 0.92970(13)
N10 N 0.60090(19) 0.41798(19) 0.90022(14)
N11 N 0.62447(19) 0.48135(19) 0.86624(14)
N12 N 0.70687(18) 0.53036(17) 0.87469(14)
N13 N 0.72252(17) 0.53781(17) 0.59244(13)
N14 N 0.64851(19) 0.47865(19) 0.61527(14)
N15 N 0.61994(18) 0.41544(19) 0.58104(14)
N16 N 0.67381(17) 0.43233(18) 0.53521(13)
C1 C 0.5872(2) 0.1673(2) 0.40697(16)
H1 H 0.5328 0.1512 0.4201
C2 C 0.5528(2) 0.0515(2) 0.33436(17)
H2 H 0.5020 0.0158 0.3570
H3 H 0.5821 0.0201 0.3279
C3 C 0.5286(2) 0.0713(2) 0.27669(17)
C4 C 0.4770(2) 0.1053(2) 0.2744(2)
H4 H 0.4581 0.1173 0.3093
C5 C 0.4531(2) 0.1220(2) 0.22170(19)
H5 H 0.4179 0.1455 0.2206
C6 C 0.4804(2) 0.1045(2) 0.17041(18)
H6 H 0.4636 0.1157 0.1343
C7 C 0.5324(2) 0.0705(2) 0.17189(16)
C8 C 0.5563(2) 0.0553(2) 0.22522(17)
H7 H 0.5927 0.0333 0.2265
C9 C 0.5639(2) 0.0541(2) 0.11623(15)
H8 H 0.5961 0.0261 0.1247
H9 H 0.5163 0.0170 0.0913
C10 C 0.5988(2) 0.1668(2) 0.04158(16)
H10 H 0.5484 0.1414 0.0203
C11 C 0.7319(2) 0.4950(2) 0.91360(17)
H11 H 0.7871 0.5169 0.9274
C12 C 0.7561(2) 0.6069(2) 0.84077(16)
H12 H 0.8032 0.6476 0.8646
H13 H 0.7210 0.6313 0.8313
C13 C 0.7896(2) 0.5917(2) 0.78539(17)
C14 C 0.8437(2) 0.5602(2) 0.78742(18)
H14 H 0.8584 0.5467 0.8235
C15 C 0.8757(3) 0.5491(3) 0.73683(19)
H15 H 0.9121 0.5271 0.7383
C16 C 0.8560(2) 0.5693(3) 0.68352(18)
H16 H 0.8800 0.5627 0.6491
C17 C 0.8012(2) 0.5991(2) 0.68099(17)
C18 C 0.7690(2) 0.6106(2) 0.73183(16)
H17 H 0.7320 0.6318 0.7301
C19 C 0.7752(2) 0.6165(2) 0.62316(16)
H18 H 0.7441 0.6463 0.6291
H19 H 0.8251 0.6523 0.5997
C20 C 0.7359(2) 0.5080(2) 0.54400(16)
H20 H 0.7830 0.5367 0.5195
N1A N 0.76713(17) 0.42303(24) 0.42436(13)
N2A N 0.76778(19) 0.48708(26) 0.39494(14)
N3A N 0.83118(19) 0.52121(27) 0.36061(15)
N4A N 0.87309(17) 0.47967(25) 0.36757(13)
N5A N 0.86658(18) 0.48400(25) 0.08543(13)
N6A N 0.81129(19) 0.50581(26) 0.10521(15)
N7A N 0.74604(19) 0.46754(27) 0.07281(14)
N8A N 0.75860(17) 0.42132(25) 0.03263(13)
C1A C 0.8327(2) 0.4199(3) 0.40697(16)
H1A H 0.8488 0.3816 0.4201
C2A C 0.9485(2) 0.5013(3) 0.33436(17)
H2A H 0.9842 0.4862 0.3570
H3A H 0.9799 0.5620 0.3279
C3A C 0.9287(2) 0.4573(3) 0.27669(17)
C4A C 0.8947(2) 0.3717(3) 0.2744(2)
H4A H 0.8827 0.3408 0.3093
C5A C 0.8780(2) 0.3311(3) 0.22170(19)
H5A H 0.8545 0.2724 0.2206
C6A C 0.8955(2) 0.3759(3) 0.17041(18)
H6A H 0.8843 0.3479 0.1343
C7A C 0.9295(2) 0.4619(3) 0.17189(16)
C8A C 0.9447(2) 0.5010(3) 0.22522(17)
H7A H 0.9667 0.5594 0.2265
C9A C 0.9459(2) 0.5098(3) 0.11623(15)
H8A H 0.9739 0.5700 0.1247
H9A H 0.9830 0.4993 0.0913
C10A C 0.8332(2) 0.4320(3) 0.04158(16)
H10A H 0.8586 0.4070 0.0203
N1B N 0.57697(24) 0.34410(17) 0.42436(13)
N2B N 0.51292(26) 0.28070(18) 0.39494(14)
N3B N 0.47879(27) 0.30997(19) 0.36061(15)
N4B N 0.52033(25) 0.39342(18) 0.36757(13)
N5B N 0.51600(25) 0.38258(18) 0.08543(13)
N6B N 0.49419(26) 0.30548(18) 0.10521(15)
N7B N 0.53246(27) 0.27850(19) 0.07281(14)
N8B N 0.57868(25) 0.33728(18) 0.03263(13)
C1B C 0.5801(3) 0.4128(2) 0.40697(16)
H1B H 0.6184 0.4672 0.4201
C2B C 0.4987(3) 0.4472(2) 0.33436(17)
H2B H 0.5138 0.4980 0.3570
H3B H 0.4380 0.4179 0.3279
C3B C 0.5427(3) 0.4714(2) 0.27669(17)
C4B C 0.6283(3) 0.5230(2) 0.2744(2)
H4B H 0.6592 0.5419 0.3093
C5B C 0.6689(3) 0.5469(2) 0.22170(19)
H5B H 0.7276 0.5821 0.2206
C6B C 0.6241(3) 0.5196(2) 0.17041(18)
H6B H 0.6521 0.5364 0.1343
C7B C 0.5381(3) 0.4676(2) 0.17189(16)
C8B C 0.4990(3) 0.4437(2) 0.22522(17)
H7B H 0.4406 0.4073 0.2265
C9B C 0.4902(3) 0.4361(2) 0.11623(15)
H8B H 0.4300 0.4039 0.1247
H9B H 0.5007 0.4837 0.0913
C10B C 0.5680(3) 0.4012(2) 0.04158(16)
H10B H 0.5930 0.4516 0.0203
N9A N 0.57557(18) 0.24273(25) 0.92970(13)
N10A N 0.58202(19) 0.18292(27) 0.90022(14)
N11A N 0.51865(19) 0.14312(27) 0.86624(14)
N12A N 0.46964(17) 0.17651(25) 0.87469(14)
N13A N 0.46219(17) 0.18471(24) 0.59244(13)
N14A N 0.52135(19) 0.16986(27) 0.61527(14)
N15A N 0.58456(19) 0.20450(26) 0.58104(14)
N16A N 0.56767(18) 0.24148(25) 0.53521(13)
C11A C 0.5050(2) 0.2369(3) 0.91360(17)
H11A H 0.4831 0.2702 0.9274
C12A C 0.3931(2) 0.1492(3) 0.84077(16)
H12A H 0.3524 0.1556 0.8646
H13A H 0.3687 0.0897 0.8313
C13A C 0.4083(2) 0.1979(3) 0.78539(17)
C14A C 0.4398(2) 0.2835(3) 0.78742(18)
H14A H 0.4533 0.3117 0.8235
C15A C 0.4509(3) 0.3266(4) 0.73683(19)
H15A H 0.4729 0.3850 0.7383
C16A C 0.4307(3) 0.2867(4) 0.68352(18)
H16A H 0.4373 0.3173 0.6491
C17A C 0.4009(2) 0.2021(3) 0.68099(17)
C18A C 0.3894(2) 0.1584(3) 0.73183(16)
H17A H 0.3682 0.1002 0.7301
C19A C 0.3835(2) 0.1587(3) 0.62316(16)
H18A H 0.3537 0.0978 0.6291
H19A H 0.3477 0.1728 0.5997
C20A C 0.4920(2) 0.2279(3) 0.54400(16)
H20A H 0.4633 0.2463 0.5195
N9B N 0.75727(25) 0.33284(17) 0.92970(13)
N10B N 0.81708(27) 0.39910(19) 0.90022(14)
N11B N 0.85688(27) 0.37553(19) 0.86624(14)
N12B N 0.82349(25) 0.29313(18) 0.87469(14)
N13B N 0.81529(24) 0.27748(17) 0.59244(13)
N14B N 0.83014(27) 0.35149(19) 0.61527(14)
N15B N 0.79550(26) 0.38006(18) 0.58104(14)
N16B N 0.75852(25) 0.32619(17) 0.53521(13)
C11B C 0.7631(3) 0.2681(2) 0.91360(17)
H11B H 0.7298 0.2129 0.9274
C12B C 0.8508(3) 0.2439(2) 0.84077(16)
H12B H 0.8444 0.1968 0.8646
H13B H 0.9103 0.2790 0.8313
C13B C 0.8021(3) 0.2104(2) 0.78539(17)
C14B C 0.7165(3) 0.1563(2) 0.78742(18)
H14B H 0.6883 0.1416 0.8235
C15B C 0.6734(4) 0.1243(3) 0.73683(19)
H15B H 0.6150 0.0879 0.7383
C16B C 0.7133(4) 0.1440(2) 0.68352(18)
H16B H 0.6827 0.1200 0.6491
C17B C 0.7979(3) 0.1988(2) 0.68099(17)
C18B C 0.8416(3) 0.2310(2) 0.73183(16)
H17B H 0.8998 0.2680 0.7301
C19B C 0.8413(3) 0.2248(2) 0.62316(16)
H18B H 0.9022 0.2559 0.6291
H19B H 0.8272 0.1749 0.5997
C20B C 0.7721(3) 0.2641(2) 0.54400(16)
H20B H 0.7537 0.2170 0.5195
Fe2_2 Fe 0.6667 0.3333 0.98060(4)
N9_2 N 0.66716(17) 0.42443(18) -0.07030(13)
N9A_2 N 0.57557(18) 0.24273(25) -0.07030(13)
N9B_2 N 0.75727(25) 0.33284(17) -0.07030(13)
Fe3 Fe 0.0000 0.0000 0.0000
Fe4 Fe 0.0000 0.0000 0.5000
N17 N 0.09756(17) 0.09442(16) 0.05425(13)
N18 N 0.08055(18) 0.13371(19) 0.09780(13)
N19 N 0.14317(19) 0.16941(19) 0.13286(13)
N20 N 0.20193(17) 0.15351(18) 0.11240(13)
N21 N 0.20647(18) 0.14010(18) 0.39631(13)
N22 N 0.1660(2) 0.18364(19) 0.39012(15)
N23 N 0.10102(19) 0.14764(19) 0.42294(15)
N24 N 0.09768(17) 0.08045(17) 0.44998(13)
C21 C 0.1731(2) 0.1077(2) 0.06448(16)
H21 H 0.2021 0.0880 0.0416
C22 C 0.2789(2) 0.1802(2) 0.14500(16)
H22 H 0.3041 0.2398 0.1550
H23 H 0.3190 0.1735 0.1207
C23 C 0.2619(2) 0.1297(2) 0.19989(16)
C24 C 0.2288(2) 0.0444(2) 0.19680(18)
H24 H 0.2169 0.0178 0.1601
C25 C 0.2128(3) -0.0024(2) 0.24668(19)
H25 H 0.1900 -0.0609 0.2440
C26 C 0.2300(2) 0.0355(2) 0.30053(18)
H26 H 0.2192 0.0032 0.3347
C27 C 0.2631(2) 0.1212(2) 0.30435(16)
C28 C 0.2780(2) 0.1674(2) 0.25399(16)
H27 H 0.2995 0.2256 0.2566
C29 C 0.2817(2) 0.1634(2) 0.36280(16)
H28 H 0.3179 0.1483 0.3849
H29 H 0.3124 0.2243 0.3572
C30 C 0.1643(2) 0.0780(2) 0.43258(15)
H30 H 0.1792 0.0382 0.4442
N17A N -0.09442(16) 0.00314(23) 0.05425(13)
N18A N -0.13371(19) -0.05316(26) 0.09780(13)
N19A N -0.16941(19) -0.02624(27) 0.13286(13)
N20A N -0.15351(18) 0.04842(25) 0.11240(13)
N21A N -0.14010(18) 0.06637(25) 0.39631(13)
N22A N -0.18364(19) -0.01764(28) 0.39012(15)
N23A N -0.14764(19) -0.04662(27) 0.42294(15)
N24A N -0.08045(17) 0.01723(24) 0.44998(13)
C21A C -0.1077(2) 0.0654(3) 0.06448(16)
H21A H -0.0880 0.1141 0.0416
C22A C -0.1802(2) 0.0987(3) 0.14500(16)
H22A H -0.2398 0.0643 0.1550
H23A H -0.1735 0.1455 0.1207
C23A C -0.1297(2) 0.1322(3) 0.19989(16)
C24A C -0.0444(2) 0.1844(3) 0.19680(18)
H24A H -0.0178 0.1991 0.1601
C25A C 0.0024(2) 0.2152(4) 0.24668(19)
H25A H 0.0609 0.2509 0.2440
C26A C -0.0355(2) 0.1945(3) 0.30053(18)
H26A H -0.0032 0.2160 0.3347
C27A C -0.1212(2) 0.1419(3) 0.30435(16)
C28A C -0.1674(2) 0.1106(3) 0.25399(16)
H27A H -0.2256 0.0739 0.2566
C29A C -0.1634(2) 0.1183(3) 0.36280(16)
H28A H -0.1483 0.1696 0.3849
H29A H -0.2243 0.0881 0.3572
C30A C -0.0780(2) 0.0863(3) 0.43258(15)
H30A H -0.0382 0.1410 0.4442
N17B N -0.00314(23) -0.09756(17) 0.05425(13)
N18B N 0.05316(26) -0.08055(18) 0.09780(13)
N19B N 0.02624(27) -0.14317(19) 0.13286(13)
N20B N -0.04842(25) -0.20193(17) 0.11240(13)
N21B N -0.06637(25) -0.20647(18) 0.39631(13)
N22B N 0.01764(28) -0.1660(2) 0.39012(15)
N23B N 0.04662(27) -0.10102(19) 0.42294(15)
N24B N -0.01723(24) -0.09768(17) 0.44998(13)
C21B C -0.0654(3) -0.1731(2) 0.06448(16)
H21B H -0.1141 -0.2021 0.0416
C22B C -0.0987(3) -0.2789(2) 0.14500(16)
H22B H -0.0643 -0.3041 0.1550
H23B H -0.1455 -0.3190 0.1207
C23B C -0.1322(3) -0.2619(2) 0.19989(16)
C24B C -0.1844(3) -0.2288(2) 0.19680(18)
H24B H -0.1991 -0.2169 0.1601
C25B C -0.2152(4) -0.2128(3) 0.24668(19)
H25B H -0.2509 -0.1900 0.2440
C26B C -0.1945(3) -0.2300(2) 0.30053(18)
H26B H -0.2160 -0.2192 0.3347
C27B C -0.1419(3) -0.2631(2) 0.30435(16)
C28B C -0.1106(3) -0.2780(2) 0.25399(16)
H27B H -0.0739 -0.2995 0.2566
C29B C -0.1183(3) -0.2817(2) 0.36280(16)
H28B H -0.1696 -0.3179 0.3849
H29B H -0.0881 -0.3124 0.3572
C30B C -0.0863(3) -0.1643(2) 0.43258(15)
H30B H -0.1410 -0.1792 0.4442
N17C N -0.09756(17) -0.09442(16) -0.05425(13)
N18C N -0.08055(18) -0.13371(19) -0.09780(13)
N19C N -0.14317(19) -0.16941(19) -0.13286(13)
N20C N -0.20193(17) -0.15351(18) -0.11240(13)
N21C N -0.20647(18) -0.14010(18) -0.39631(13)
N22C N -0.1660(2) -0.18364(19) -0.39012(15)
N23C N -0.10102(19) -0.14764(19) -0.42294(15)
N24C N -0.09768(17) -0.08045(17) -0.44998(13)
C21C C -0.1731(2) -0.1077(2) -0.06448(16)
H21C H -0.2021 -0.0880 -0.0416
C22C C -0.2789(2) -0.1802(2) -0.14500(16)
H22C H -0.3041 -0.2398 -0.1550
H23C H -0.3190 -0.1735 -0.1207
C23C C -0.2619(2) -0.1297(2) -0.19989(16)
C24C C -0.2288(2) -0.0444(2) -0.19680(18)
H24C H -0.2169 -0.0178 -0.1601
C25C C -0.2128(3) 0.0024(2) -0.24668(19)
H25C H -0.1900 0.0609 -0.2440
C26C C -0.2300(2) -0.0355(2) -0.30053(18)
H26C H -0.2192 -0.0032 -0.3347
C27C C -0.2631(2) -0.1212(2) -0.30435(16)
C28C C -0.2780(2) -0.1674(2) -0.25399(16)
H27C H -0.2995 -0.2256 -0.2566
C29C C -0.2817(2) -0.1634(2) -0.36280(16)
H28C H -0.3179 -0.1483 -0.3849
H29C H -0.3124 -0.2243 -0.3572
C30C C -0.1643(2) -0.0780(2) -0.43258(15)
H30C H -0.1792 -0.0382 -0.4442
N17D N 0.09442(16) -0.00314(23) -0.05425(13)
N18D N 0.13371(19) 0.05316(26) -0.09780(13)
N19D N 0.16941(19) 0.02624(27) -0.13286(13)
N20D N 0.15351(18) -0.04842(25) -0.11240(13)
N21D N 0.14010(18) -0.06637(25) -0.39631(13)
N22D N 0.18364(19) 0.01764(28) -0.39012(15)
N23D N 0.14764(19) 0.04662(27) -0.42294(15)
N24D N 0.08045(17) -0.01723(24) -0.44998(13)
C21D C 0.1077(2) -0.0654(3) -0.06448(16)
H21D H 0.0880 -0.1141 -0.0416
C22D C 0.1802(2) -0.0987(3) -0.14500(16)
H22D H 0.2398 -0.0643 -0.1550
H23D H 0.1735 -0.1455 -0.1207
C23D C 0.1297(2) -0.1322(3) -0.19989(16)
C24D C 0.0444(2) -0.1844(3) -0.19680(18)
H24D H 0.0178 -0.1991 -0.1601
C25D C -0.0024(2) -0.2152(4) -0.24668(19)
H25D H -0.0609 -0.2509 -0.2440
C26D C 0.0355(2) -0.1945(3) -0.30053(18)
H26D H 0.0032 -0.2160 -0.3347
C27D C 0.1212(2) -0.1419(3) -0.30435(16)
C28D C 0.1674(2) -0.1106(3) -0.25399(16)
H27D H 0.2256 -0.0739 -0.2566
C29D C 0.1634(2) -0.1183(3) -0.36280(16)
H28D H 0.1483 -0.1696 -0.3849
H29D H 0.2243 -0.0881 -0.3572
C30D C 0.0780(2) -0.0863(3) -0.43258(15)
H30D H 0.0382 -0.1410 -0.4442
N17E N 0.00314(23) 0.09756(17) -0.05425(13)
N18E N -0.05316(26) 0.08055(18) -0.09780(13)
N19E N -0.02624(27) 0.14317(19) -0.13286(13)
N20E N 0.04842(25) 0.20193(17) -0.11240(13)
N21E N 0.06637(25) 0.20647(18) -0.39631(13)
N22E N -0.01764(28) 0.1660(2) -0.39012(15)
N23E N -0.04662(27) 0.10102(19) -0.42294(15)
N24E N 0.01723(24) 0.09768(17) -0.44998(13)
C21E C 0.0654(3) 0.1731(2) -0.06448(16)
H21E H 0.1141 0.2021 -0.0416
C22E C 0.0987(3) 0.2789(2) -0.14500(16)
H22E H 0.0643 0.3041 -0.1550
H23E H 0.1455 0.3190 -0.1207
C23E C 0.1322(3) 0.2619(2) -0.19989(16)
C24E C 0.1844(3) 0.2288(2) -0.19680(18)
H24E H 0.1991 0.2169 -0.1601
C25E C 0.2152(4) 0.2128(3) -0.24668(19)
H25E H 0.2509 0.1900 -0.2440
C26E C 0.1945(3) 0.2300(2) -0.30053(18)
H26E H 0.2160 0.2192 -0.3347
C27E C 0.1419(3) 0.2631(2) -0.30435(16)
C28E C 0.1106(3) 0.2780(2) -0.25399(16)
H27E H 0.0739 0.2995 -0.2566
C29E C 0.1183(3) 0.2817(2) -0.36280(16)
H28E H 0.1696 0.3179 -0.3849
H29E H 0.0881 0.3124 -0.3572
C30E C 0.0863(3) 0.1643(2) -0.43258(15)
H30E H 0.1410 0.1792 -0.4442
N24C_2 N -0.09768(17) -0.08045(17) 0.55002(13)
N24D_2 N 0.08045(17) -0.01723(24) 0.55002(13)
N24E_2 N 0.01723(24) 0.09768(17) 0.55002(13)
Fe4C Fe 0.0000 0.0000 -0.5000
S1 S -0.05316(6) 0.29711(6) 0.00433(4)
F1 F 0.06057(13) 0.27508(15) 0.05319(12)
F2 F 0.06183(15) 0.3860(2) 0.07874(14)
F3 F 0.10923(14) 0.37883(15) -0.00355(13)
O1 O -0.05517(17) 0.37070(18) -0.01020(15)
O2 O -0.0537(2) 0.2486(3) -0.04323(17)
O3 O -0.10571(17) 0.25087(18) 0.05128(16)
C31 C 0.0487(2) 0.3351(2) 0.03387(18)
S2 S 0.33976(6) 0.02486(6) 0.45294(5)
F4 F 0.36953(14) -0.08713(13) 0.49622(12)
F5 F 0.32779(17) -0.02943(18) 0.55904(11)
F6 F 0.45195(14) 0.03611(14) 0.52683(11)
O4 O 0.34776(18) 0.10001(16) 0.47766(14)
O5 O 0.39800(18) 0.03831(19) 0.40807(13)
O6 O 0.25648(15) -0.03890(16) 0.44149(13)
C32 C 0.3733(2) -0.0153(2) 0.51164(19)
N25 N 0.0000 0.0000 0.3301(4)
C33 C 0.0000 0.0000 0.2842(3)
C34 C 0.0000 0.0000 0.2248(4)
H31 H -0.0478 0.0036 0.2107
H31A H -0.0036 -0.0514 0.2107
H31B H 0.0514 0.0478 0.2107
N26 N 0.6667 0.3333 0.3079(4)
C35 C 0.6667 0.3333 0.2584(3)
C36 C 0.6667 0.3333 0.1968(4)
H32 H 0.6980 0.3906 0.1826
H32A H 0.6094 0.3074 0.1826
H32B H 0.6926 0.3020 0.1826
N27 N 0.3333 0.6667 0.1863(4)
C37 C 0.3333 0.6667 0.2338(3)
C38 C 0.3333 0.6667 0.2949(4)
H33 H 0.3612 0.6371 0.3090
H33A H 0.3629 0.7241 0.3090
H33B H 0.2759 0.6388 0.3090
loop_
_geom_bond_atom_site_label_1
_geom_bond_atom_site_label_2
_geom_bond_site_symmetry_1
_geom_bond_site_symmetry_2
Fe1 N1 1_555 1_555
Fe2 N8 1_555 1_555
N1 N2 1_555 1_555
N2 N3 1_555 1_555
N3 N4 1_555 1_555
N4 C1 1_555 1_555
N5 N6 1_555 1_555
N6 N7 1_555 1_555
N7 N8 1_555 1_555
N8 C10 1_555 1_555
N9 N10 1_555 1_555
N10 N11 1_555 1_555
N11 N12 1_555 1_555
N12 C11 1_555 1_555
N13 N14 1_555 1_555
N14 N15 1_555 1_555
N15 N16 1_555 1_555
N16 Fe1 1_555 1_555
C1 N1 1_555 1_555
H1 C1 1_555 1_555
C2 N4 1_555 1_555
H2 C2 1_555 1_555
H3 C2 1_555 1_555
C3 C2 1_555 1_555
C4 C3 1_555 1_555
H4 C4 1_555 1_555
C5 C4 1_555 1_555
H5 C5 1_555 1_555
C6 C5 1_555 1_555
H6 C6 1_555 1_555
C7 C6 1_555 1_555
C8 C3 1_555 1_555
H7 C8 1_555 1_555
C9 N5 1_555 1_555
H8 C9 1_555 1_555
H9 C9 1_555 1_555
C10 N5 1_555 1_555
H10 C10 1_555 1_555
C11 N9 1_555 1_555
H11 C11 1_555 1_555
C12 N12 1_555 1_555
H12 C12 1_555 1_555
H13 C12 1_555 1_555
C13 C12 1_555 1_555
C14 C13 1_555 1_555
H14 C14 1_555 1_555
C15 C14 1_555 1_555
H15 C15 1_555 1_555
C16 C15 1_555 1_555
H16 C16 1_555 1_555
C17 C16 1_555 1_555
C18 C13 1_555 1_555
H17 C18 1_555 1_555
C19 N13 1_555 1_555
H18 C19 1_555 1_555
H19 C19 1_555 1_555
C20 N13 1_555 1_555
H20 C20 1_555 1_555
Fe3 N17 1_555 1_555
Fe4 N24 1_555 1_555
N17 N18 1_555 1_555
N18 N19 1_555 1_555
N19 N20 1_555 1_555
N20 C21 1_555 1_555
N21 N22 1_555 1_555
N22 N23 1_555 1_555
N23 N24 1_555 1_555
N24 C30 1_555 1_555
C21 N17 1_555 1_555
H21 C21 1_555 1_555
C22 N20 1_555 1_555
H22 C22 1_555 1_555
H23 C22 1_555 1_555
C23 C22 1_555 1_555
C24 C23 1_555 1_555
H24 C24 1_555 1_555
C25 C24 1_555 1_555
H25 C25 1_555 1_555
C26 C25 1_555 1_555
H26 C26 1_555 1_555
C27 C26 1_555 1_555
C28 C23 1_555 1_555
H27 C28 1_555 1_555
C29 N21 1_555 1_555
H28 C29 1_555 1_555
H29 C29 1_555 1_555
C30 N21 1_555 1_555
H30 C30 1_555 1_555
S1 O1 1_555 1_555
F1 C31 1_555 1_555
F2 C31 1_555 1_555
F3 C31 1_555 1_555
O2 S1 1_555 1_555
O3 S1 1_555 1_555
C31 S1 1_555 1_555
S2 O4 1_555 1_555
F4 C32 1_555 1_555
F5 C32 1_555 1_555
F6 C32 1_555 1_555
O5 S2 1_555 1_555
O6 S2 1_555 1_555
C32 S2 1_555 1_555
N25 C33 1_555 1_555
C33 C34 1_555 1_555
C34 H31 1_555 1_555
N26 C35 1_555 1_555
C35 C36 1_555 1_555
C36 H32 1_555 1_555
N27 C37 1_555 1_555
C37 C38 1_555 1_555
C38 H33 1_555 1_555
H31A C34 1_555 1_555
H31B C34 1_555 1_555
H32A C36 1_555 1_555
H32B C36 1_555 1_555
H33A C38 1_555 1_555
H33B C38 1_555 1_555
N17A Fe3 1_555 1_555
N18A N17A 1_555 1_555
N19A N18A 1_555 1_555
N20A N19A 1_555 1_555
N21A N22A 1_555 1_555
N22A N23A 1_555 1_555
N23A N24A 1_555 1_555
N24A Fe4 1_555 1_555
C21A N17A 1_555 1_555
H21A C21A 1_555 1_555
C22A N20A 1_555 1_555
H22A C22A 1_555 1_555
H23A C22A 1_555 1_555
C23A C22A 1_555 1_555
C24A C23A 1_555 1_555
H24A C24A 1_555 1_555
C25A C24A 1_555 1_555
H25A C25A 1_555 1_555
C26A C25A 1_555 1_555
H26A C26A 1_555 1_555
C27A C26A 1_555 1_555
C28A C23A 1_555 1_555
H27A C28A 1_555 1_555
C29A N21A 1_555 1_555
H28A C29A 1_555 1_555
H29A C29A 1_555 1_555
C30A N21A 1_555 1_555
H30A C30A 1_555 1_555
N17B Fe3 1_555 1_555
N18B N17B 1_555 1_555
N19B N18B 1_555 1_555
N20B N19B 1_555 1_555
N21B N22B 1_555 1_555
N22B N23B 1_555 1_555
N23B N24B 1_555 1_555
N24B Fe4 1_555 1_555
C21B N17B 1_555 1_555
H21B C21B 1_555 1_555
C22B N20B 1_555 1_555
H22B C22B 1_555 1_555
H23B C22B 1_555 1_555
C23B C22B 1_555 1_555
C24B C23B 1_555 1_555
H24B C24B 1_555 1_555
C25B C24B 1_555 1_555
H25B C25B 1_555 1_555
C26B C25B 1_555 1_555
H26B C26B 1_555 1_555
C27B C26B 1_555 1_555
C28B C23B 1_555 1_555
H27B C28B 1_555 1_555
C29B N21B 1_555 1_555
H28B C29B 1_555 1_555
H29B C29B 1_555 1_555
C30B N21B 1_555 1_555
H30B C30B 1_555 1_555
N17C Fe3 1_555 1_555
N18C N17C 1_555 1_555
N19C N18C 1_555 1_555
N20C N19C 1_555 1_555
N21C N22C 1_555 1_555
N22C N23C 1_555 1_555
N23C N24C 1_555 1_555
N24C C30C 1_555 1_555
C21C N17C 1_555 1_555
H21C C21C 1_555 1_555
C22C N20C 1_555 1_555
H22C C22C 1_555 1_555
H23C C22C 1_555 1_555
C23C C22C 1_555 1_555
C24C C23C 1_555 1_555
H24C C24C 1_555 1_555
C25C C24C 1_555 1_555
H25C C25C 1_555 1_555
C26C C25C 1_555 1_555
H26C C26C 1_555 1_555
C27C C26C 1_555 1_555
C28C C23C 1_555 1_555
H27C C28C 1_555 1_555
C29C N21C 1_555 1_555
H28C C29C 1_555 1_555
H29C C29C 1_555 1_555
C30C N21C 1_555 1_555
H30C C30C 1_555 1_555
N17D Fe3 1_555 1_555
N18D N17D 1_555 1_555
N19D N18D 1_555 1_555
N20D N19D 1_555 1_555
N21D N22D 1_555 1_555
N22D N23D 1_555 1_555
N23D N24D 1_555 1_555
N24D C30D 1_555 1_555
C21D N17D 1_555 1_555
H21D C21D 1_555 1_555
C22D N20D 1_555 1_555
H22D C22D 1_555 1_555
H23D C22D 1_555 1_555
C23D C22D 1_555 1_555
C24D C23D 1_555 1_555
H24D C24D 1_555 1_555
C25D C24D 1_555 1_555
H25D C25D 1_555 1_555
C26D C25D 1_555 1_555
H26D C26D 1_555 1_555
C27D C26D 1_555 1_555
C28D C23D 1_555 1_555
H27D C28D 1_555 1_555
C29D N21D 1_555 1_555
H28D C29D 1_555 1_555
H29D C29D 1_555 1_555
C30D N21D 1_555 1_555
H30D C30D 1_555 1_555
N17E Fe3 1_555 1_555
N18E N17E 1_555 1_555
N19E N18E 1_555 1_555
N20E N19E 1_555 1_555
N21E N22E 1_555 1_555
N22E N23E 1_555 1_555
N23E N24E 1_555 1_555
N24E C30E 1_555 1_555
C21E N17E 1_555 1_555
H21E C21E 1_555 1_555
C22E N20E 1_555 1_555
H22E C22E 1_555 1_555
H23E C22E 1_555 1_555
C23E C22E 1_555 1_555
C24E C23E 1_555 1_555
H24E C24E 1_555 1_555
C25E C24E 1_555 1_555
H25E C25E 1_555 1_555
C26E C25E 1_555 1_555
H26E C26E 1_555 1_555
C27E C26E 1_555 1_555
C28E C23E 1_555 1_555
H27E C28E 1_555 1_555
C29E N21E 1_555 1_555
H28E C29E 1_555 1_555
H29E C29E 1_555 1_555
C30E N21E 1_555 1_555
H30E C30E 1_555 1_555
N1A Fe1 1_555 1_555
N2A N1A 1_555 1_555
N3A N2A 1_555 1_555
N4A N3A 1_555 1_555
N5A N6A 1_555 1_555
N6A N7A 1_555 1_555
N7A N8A 1_555 1_555
N8A Fe2 1_555 1_555
C1A N1A 1_555 1_555
H1A C1A 1_555 1_555
C2A N4A 1_555 1_555
H2A C2A 1_555 1_555
H3A C2A 1_555 1_555
C3A C2A 1_555 1_555
C4A C3A 1_555 1_555
H4A C4A 1_555 1_555
C5A C4A 1_555 1_555
H5A C5A 1_555 1_555
C6A C5A 1_555 1_555
H6A C6A 1_555 1_555
C7A C6A 1_555 1_555
C8A C3A 1_555 1_555
H7A C8A 1_555 1_555
C9A N5A 1_555 1_555
H8A C9A 1_555 1_555
H9A C9A 1_555 1_555
C10A N5A 1_555 1_555
H10A C10A 1_555 1_555
N1B Fe1 1_555 1_555
N2B N1B 1_555 1_555
N3B N2B 1_555 1_555
N4B N3B 1_555 1_555
N5B N6B 1_555 1_555
N6B N7B 1_555 1_555
N7B N8B 1_555 1_555
N8B Fe2 1_555 1_555
C1B N1B 1_555 1_555
H1B C1B 1_555 1_555
C2B N4B 1_555 1_555
H2B C2B 1_555 1_555
H3B C2B 1_555 1_555
C3B C2B 1_555 1_555
C4B C3B 1_555 1_555
H4B C4B 1_555 1_555
C5B C4B 1_555 1_555
H5B C5B 1_555 1_555
C6B C5B 1_555 1_555
H6B C6B 1_555 1_555
C7B C6B 1_555 1_555
C8B C3B 1_555 1_555
H7B C8B 1_555 1_555
C9B N5B 1_555 1_555
H8B C9B 1_555 1_555
H9B C9B 1_555 1_555
C10B N5B 1_555 1_555
H10B C10B 1_555 1_555
N9A N10A 1_555 1_555
N10A N11A 1_555 1_555
N11A N12A 1_555 1_555
N12A C11A 1_555 1_555
N13A N14A 1_555 1_555
N14A N15A 1_555 1_555
N15A N16A 1_555 1_555
N16A Fe1 1_555 1_555
C11A N9A 1_555 1_555
H11A C11A 1_555 1_555
C12A N12A 1_555 1_555
H12A C12A 1_555 1_555
H13A C12A 1_555 1_555
C13A C12A 1_555 1_555
C14A C13A 1_555 1_555
H14A C14A 1_555 1_555
C15A C14A 1_555 1_555
H15A C15A 1_555 1_555
C16A C15A 1_555 1_555
H16A C16A 1_555 1_555
C17A C16A 1_555 1_555
C18A C13A 1_555 1_555
H17A C18A 1_555 1_555
C19A N13A 1_555 1_555
H18A C19A 1_555 1_555
H19A C19A 1_555 1_555
C20A N13A 1_555 1_555
H20A C20A 1_555 1_555
N9B N10B 1_555 1_555
N10B N11B 1_555 1_555
N11B N12B 1_555 1_555
N12B C11B 1_555 1_555
N13B N14B 1_555 1_555
N14B N15B 1_555 1_555
N15B N16B 1_555 1_555
N16B Fe1 1_555 1_555
C11B N9B 1_555 1_555
H11B C11B 1_555 1_555
C12B N12B 1_555 1_555
H12B C12B 1_555 1_555
H13B C12B 1_555 1_555
C13B C12B 1_555 1_555
C14B C13B 1_555 1_555
H14B C14B 1_555 1_555
C15B C14B 1_555 1_555
H15B C15B 1_555 1_555
C16B C15B 1_555 1_555
H16B C16B 1_555 1_555
C17B C16B 1_555 1_555
C18B C13B 1_555 1_555
H17B C18B 1_555 1_555
C19B N13B 1_555 1_555
H18B C19B 1_555 1_555
H19B C19B 1_555 1_555
C20B N13B 1_555 1_555
H20B C20B 1_555 1_555
Fe2_2 N9 1_555 1_555
N9_2 Fe2 1_555 1_555
N9A_2 Fe2 1_555 1_555
N9B_2 Fe2 1_555 1_555
N24C_2 Fe4 1_555 1_555
N24D_2 Fe4 1_555 1_555
N24E_2 Fe4 1_555 1_555
Fe4C N24C 1_555 1_555
N16 C20 1_555 1_555
C7 C8 1_555 1_555
C7 C9 1_555 1_555
C17 C18 1_555 1_555
C17 C19 1_555 1_555
C27 C28 1_555 1_555
C27 C29 1_555 1_555
N20A C21A 1_555 1_555
N24A C30A 1_555 1_555
C27A C28A 1_555 1_555
C27A C29A 1_555 1_555
N20B C21B 1_555 1_555
N24B C30B 1_555 1_555
C27B C28B 1_555 1_555
C27B C29B 1_555 1_555
N20C C21C 1_555 1_555
C27C C28C 1_555 1_555
C27C C29C 1_555 1_555
N20D C21D 1_555 1_555
N24D Fe4C 1_555 1_555
C27D C28D 1_555 1_555
C27D C29D 1_555 1_555
N20E C21E 1_555 1_555
N24E Fe4C 1_555 1_555
C27E C28E 1_555 1_555
C27E C29E 1_555 1_555
N4A C1A 1_555 1_555
N8A C10A 1_555 1_555
C7A C8A 1_555 1_555
C7A C9A 1_555 1_555
N4B C1B 1_555 1_555
N8B C10B 1_555 1_555
C7B C8B 1_555 1_555
C7B C9B 1_555 1_555
N9A Fe2_2 1_555 1_555
N16A C20A 1_555 1_555
C17A C18A 1_555 1_555
C17A C19A 1_555 1_555
N9B Fe2_2 1_555 1_555
N16B C20B 1_555 1_555
C17B C18B 1_555 1_555
C17B C19B 1_555 1_555

#END
