
#######################################################################
#
#                 Cambridge Crystallographic Data Centre
#                                CCDC 
#
#######################################################################
#
# If this CIF has been generated from an entry in the Cambridge 
# Structural Database, then it will include bibliographic, chemical, 
# crystal, experimental, refinement or atomic coordinate data resulting 
# from the CCDC's data processing and validation procedures.
#
#######################################################################

data_ROHCUN
_symmetry_cell_setting           triclinic
_symmetry_space_group_name_H-M   'P -1'
_symmetry_Int_Tables_number      2
_space_group_name_Hall           '-P 1'
loop_
_symmetry_equiv_pos_site_id
_symmetry_equiv_pos_as_xyz
1 x,y,z
2 -x,-y,-z
_cell_length_a                   8.0470(17)
_cell_length_b                   8.8361(16)
_cell_length_c                   9.3999(14)
_cell_angle_alpha                65.53(2)
_cell_angle_beta                 73.97(3)
_cell_angle_gamma                78.14(3)
_cell_volume                     581.501
loop_
_atom_site_label
_atom_site_type_symbol
_atom_site_fract_x
_atom_site_fract_y
_atom_site_fract_z
Cu1 Cu 0.44901(10) 0.03014(9) -0.34663(9)
V1 V 0.88034(14) -0.17600(13) -0.40578(13)
F1 F 0.4158(5) -0.1207(5) -0.4360(4)
O1 O 1.0130(6) -0.3546(6) -0.3188(5)
O2 O 1.0000 0.0000 -0.5000
O3 O 0.7143(6) -0.1502(6) -0.2652(5)
O4 O 0.8027(6) -0.2024(6) -0.5431(5)
N1 N 0.2914(7) -0.0761(6) -0.1392(6)
N2 N 0.5009(7) 0.2018(6) -0.2859(6)
N3 N 0.3160(7) 0.1145(6) -0.0299(6)
H1 H 0.2203 0.1793 -0.0041
H2 H 0.3693 0.0768 0.0528
C1 C 0.2176(8) -0.2105(8) -0.1208(7)
H3 H 0.2419 -0.2449 -0.2061
C2 C 0.1086(9) -0.2974(9) 0.0191(8)
H4 H 0.0638 -0.3912 0.0291
C3 C 0.0660(9) -0.2430(9) 0.1465(8)
H5 H -0.0101 -0.2976 0.2412
C4 C 0.1385(8) -0.1087(8) 0.1281(8)
H6 H 0.1135 -0.0711 0.2113
C5 C 0.2510(8) -0.0264(7) -0.0164(7)
C6 C 0.6155(8) 0.3119(8) -0.3955(7)
H7 H 0.6731 0.2939 -0.4884
C7 C 0.6502(9) 0.4460(8) -0.3768(8)
H8 H 0.7332 0.5148 -0.4521
C8 C 0.5574(9) 0.4767(8) -0.2413(8)
H9 H 0.5697 0.5726 -0.2287
C9 C 0.4476(9) 0.3643(8) -0.1262(8)
H10 H 0.3903 0.3797 -0.0319
C10 C 0.4228(9) 0.2271(8) -0.1518(8)
Cu1A Cu 0.55099(10) -0.03014(9) -0.65337(9)
Cu1A_2 Cu 1.55099(10) -0.03014(9) -0.65337(9)
Cu1_2 Cu 1.44901(10) 0.03014(9) -0.34663(9)
V1A V 1.11966(14) 0.17600(13) -0.59422(13)
F1A F 0.5842(5) 0.1207(5) -0.5640(4)
O1A O 0.9870(6) 0.3546(6) -0.6812(5)
O3A O 0.2857(6) 0.1502(6) -0.7348(5)
O3A_2 O 1.2857(6) 0.1502(6) -0.7348(5)
O4A O 0.1973(6) 0.2024(6) -0.4569(5)
O4A_2 O 1.1973(6) 0.2024(6) -0.4569(5)
N1A N 0.7086(7) 0.0761(6) -0.8608(6)
N2A N 0.4991(7) -0.2018(6) -0.7141(6)
N3A N 0.6840(7) -0.1145(6) -0.9701(6)
H1A H 0.7797 -0.1793 -0.9959
H2A H 0.6307 -0.0768 -1.0528
C1A C 0.7824(8) 0.2105(8) -0.8792(7)
H3A H 0.7581 0.2449 -0.7939
C2A C 0.8914(9) 0.2974(9) -1.0191(8)
H4A H 0.9362 0.3912 -1.0291
C3A C 0.9340(9) 0.2430(9) -1.1465(8)
H5A H 1.0101 0.2976 -1.2412
C4A C 0.8615(8) 0.1087(8) -1.1281(8)
H6A H 0.8865 0.0711 -1.2113
C5A C 0.7490(8) 0.0264(7) -0.9836(7)
C6A C 0.3845(8) -0.3119(8) -0.6045(7)
H7A H 0.3269 -0.2939 -0.5116
C7A C 0.3498(9) -0.4460(8) -0.6232(8)
H8A H 0.2668 -0.5148 -0.5479
C8A C 0.4426(9) -0.4767(8) -0.7587(8)
H9A H 0.4303 -0.5726 -0.7713
C9A C 0.5524(9) -0.3643(8) -0.8738(8)
H10A H 0.6097 -0.3797 -0.9681
C10A C 0.5772(9) -0.2271(8) -0.8482(8)
loop_
_geom_bond_atom_site_label_1
_geom_bond_atom_site_label_2
_geom_bond_site_symmetry_1
_geom_bond_site_symmetry_2
Cu1 F1 1_555 1_555
V1 O1 1_555 1_555
F1 Cu1A 1_555 1_555
O2 V1 1_555 1_555
O3 Cu1 1_555 1_555
O4 V1 1_555 1_555
N1 Cu1 1_555 1_555
N2 Cu1 1_555 1_555
N3 H1 1_555 1_555
H2 N3 1_555 1_555
C1 N1 1_555 1_555
H3 C1 1_555 1_555
C2 C1 1_555 1_555
H4 C2 1_555 1_555
C3 C2 1_555 1_555
H5 C3 1_555 1_555
C4 C3 1_555 1_555
H6 C4 1_555 1_555
C5 N1 1_555 1_555
C6 N2 1_555 1_555
H7 C6 1_555 1_555
C7 C6 1_555 1_555
H8 C7 1_555 1_555
C8 C7 1_555 1_555
H9 C8 1_555 1_555
C9 C8 1_555 1_555
H10 C9 1_555 1_555
C10 N2 1_555 1_555
Cu1A O4 1_555 1_555
Cu1A_2 O3A_2 1_555 1_555
Cu1_2 O4A_2 1_555 1_555
V1A O2 1_555 1_555
F1A Cu1 1_555 1_555
O1A V1A 1_555 1_555
O3A Cu1A 1_555 1_555
O3A_2 V1A 1_555 1_555
O4A Cu1 1_555 1_555
O4A_2 V1A 1_555 1_555
N1A Cu1A 1_555 1_555
N2A Cu1A 1_555 1_555
N3A H1A 1_555 1_555
H2A N3A 1_555 1_555
C1A N1A 1_555 1_555
H3A C1A 1_555 1_555
C2A C1A 1_555 1_555
H4A C2A 1_555 1_555
C3A C2A 1_555 1_555
H5A C3A 1_555 1_555
C4A C3A 1_555 1_555
H6A C4A 1_555 1_555
C5A N1A 1_555 1_555
C6A N2A 1_555 1_555
H7A C6A 1_555 1_555
C7A C6A 1_555 1_555
H8A C7A 1_555 1_555
C8A C7A 1_555 1_555
H9A C8A 1_555 1_555
C9A C8A 1_555 1_555
H10A C9A 1_555 1_555
C10A N2A 1_555 1_555
V1 O3 1_555 1_555
N3 C5 1_555 1_555
N3 C10 1_555 1_555
C4 C5 1_555 1_555
C9 C10 1_555 1_555
Cu1A F1A 1_555 1_555
N3A C5A 1_555 1_555
N3A C10A 1_555 1_555
C4A C5A 1_555 1_555
C9A C10A 1_555 1_555

#END
