
#######################################################################
#
#                 Cambridge Crystallographic Data Centre
#                                CCDC 
#
#######################################################################
#
# If this CIF has been generated from an entry in the Cambridge 
# Structural Database, then it will include bibliographic, chemical, 
# crystal, experimental, refinement or atomic coordinate data resulting 
# from the CCDC's data processing and validation procedures.
#
#######################################################################

data_ROHCOH
_symmetry_cell_setting           monoclinic
_symmetry_space_group_name_H-M   'P 21/n'
_symmetry_Int_Tables_number      14
_space_group_name_Hall           '-P 2yn'
loop_
_symmetry_equiv_pos_site_id
_symmetry_equiv_pos_as_xyz
1 x,y,z
2 1/2-x,1/2+y,1/2-z
3 -x,-y,-z
4 1/2+x,1/2-y,1/2+z
_cell_length_a                   11.024(2)
_cell_length_b                   10.0946(18)
_cell_length_c                   12.635(3)
_cell_angle_alpha                90
_cell_angle_beta                 103.155(6)
_cell_angle_gamma                90
_cell_volume                     1369.16
loop_
_atom_site_label
_atom_site_type_symbol
_atom_site_fract_x
_atom_site_fract_y
_atom_site_fract_z
Cu1 Cu 1.0000 0.0000 0.0000
V1 V 0.65205(4) 0.03209(5) 0.04208(4)
F1 F 0.65486(16) -0.10273(18) 0.14962(14)
F2 F 0.69915(17) 0.15673(17) 0.16088(14)
F3 F 0.61228(17) 0.18309(17) -0.05456(14)
F4 F 0.46427(16) 0.07247(17) 0.06707(13)
O1 O 0.7812(2) -0.0066(2) 0.01166(19)
N1 N 1.0190(2) 0.1686(3) 0.0900(2)
N2 N 1.0065(3) 0.3082(3) 0.2206(2)
H1 H 0.9948 0.3377 0.2814
N3 N 0.9614(2) 0.1146(3) -0.1342(2)
N4 N 0.9831(3) 0.2558(3) -0.2604(2)
H2 H 1.0174 0.3015 -0.3031
C1 C 0.9940(3) 0.1827(4) 0.1865(3)
H5 H 0.9705 0.1136 0.2261
C2 C 1.0410(4) 0.3808(4) 0.1420(3)
H6 H 1.0560 0.4715 0.1431
C3 C 1.0491(4) 0.2950(4) 0.0620(3)
H7 H 1.0715 0.3175 -0.0023
C4 C 1.0409(3) 0.1663(3) -0.1875(2)
H8 H 1.1247 0.1437 -0.1760
C5 C 0.8596(3) 0.2622(3) -0.2551(3)
H9 H 0.7978 0.3154 -0.2967
C6 C 0.8467(3) 0.1743(3) -0.1765(3)
H10 H 0.7732 0.1571 -0.1546
Cu1_2 Cu 0.0000 0.0000 0.0000
V1B V 0.34795(4) -0.03209(5) -0.04208(4)
F1B F 0.34514(16) 0.10273(18) -0.14962(14)
F2B F 0.30085(17) -0.15673(17) -0.16088(14)
F3B F 0.38772(17) -0.18309(17) 0.05456(14)
F4B F 0.53573(16) -0.07247(17) -0.06707(13)
O1B O 1.2188(2) 0.0066(2) -0.01166(19)
O1B_2 O 0.2188(2) 0.0066(2) -0.01166(19)
N1B N 0.9810(2) -0.1686(3) -0.0900(2)
N2B N 0.9935(3) -0.3082(3) -0.2206(2)
H1B H 1.0052 -0.3377 -0.2814
N3B N 1.0386(2) -0.1146(3) 0.1342(2)
N4B N 1.0169(3) -0.2558(3) 0.2604(2)
H2B H 0.9826 -0.3015 0.3031
C1B C 1.0060(3) -0.1827(4) -0.1865(3)
H5B H 1.0295 -0.1136 -0.2261
C2B C 0.9590(4) -0.3808(4) -0.1420(3)
H6B H 0.9440 -0.4715 -0.1431
C3B C 0.9509(4) -0.2950(4) -0.0620(3)
H7B H 0.9285 -0.3175 0.0023
C4B C 0.9591(3) -0.1663(3) 0.1875(2)
H8B H 0.8753 -0.1437 0.1760
C5B C 1.1404(3) -0.2622(3) 0.2551(3)
H9B H 1.2022 -0.3154 0.2967
C6B C 1.1533(3) -0.1743(3) 0.1765(3)
H10B H 1.2268 -0.1571 0.1546
N5 N 0.7124(3) 0.5760(3) 0.1335(2)
H3 H 0.7366 0.6180 0.1938
N6 N 0.6730(3) 0.4172(3) 0.0174(2)
H4 H 0.6668 0.3392 -0.0108
C7 C 0.7177(3) 0.4457(4) 0.1208(3)
H11 H 0.7479 0.3848 0.1756
C8 C 0.6618(4) 0.6329(4) 0.0344(3)
H12 H 0.6470 0.7226 0.0201
C9 C 0.6380(4) 0.5332(4) -0.0376(3)
H13 H 0.6039 0.5413 -0.1118
loop_
_geom_bond_atom_site_label_1
_geom_bond_atom_site_label_2
_geom_bond_site_symmetry_1
_geom_bond_site_symmetry_2
Cu1 O1 1_555 1_555
V1 F1 1_555 1_555
F2 V1 1_555 1_555
F3 V1 1_555 1_555
F4 V1 1_555 1_555
O1 V1 1_555 1_555
N1 Cu1 1_555 1_555
N2 H1 1_555 1_555
N3 Cu1 1_555 1_555
N4 H2 1_555 1_555
N5 H3 1_555 1_555
N6 H4 1_555 1_555
C1 N1 1_555 1_555
H5 C1 1_555 1_555
C2 N2 1_555 1_555
H6 C2 1_555 1_555
C3 N1 1_555 1_555
H7 C3 1_555 1_555
C4 N3 1_555 1_555
H8 C4 1_555 1_555
C5 N4 1_555 1_555
H9 C5 1_555 1_555
C6 N3 1_555 1_555
H10 C6 1_555 1_555
C7 N5 1_555 1_555
H11 C7 1_555 1_555
C8 N5 1_555 1_555
H12 C8 1_555 1_555
C9 N6 1_555 1_555
H13 C9 1_555 1_555
Cu1_2 O1B_2 1_555 1_555
V1B F4 1_555 1_555
F1B V1B 1_555 1_555
F2B V1B 1_555 1_555
F3B V1B 1_555 1_555
F4B V1 1_555 1_555
O1B Cu1 1_555 1_555
O1B_2 V1B 1_555 1_555
N1B Cu1 1_555 1_555
N2B H1B 1_555 1_555
N3B Cu1 1_555 1_555
N4B H2B 1_555 1_555
C1B N1B 1_555 1_555
H5B C1B 1_555 1_555
C2B N2B 1_555 1_555
H6B C2B 1_555 1_555
C3B N1B 1_555 1_555
H7B C3B 1_555 1_555
C4B N3B 1_555 1_555
H8B C4B 1_555 1_555
C5B N4B 1_555 1_555
H9B C5B 1_555 1_555
C6B N3B 1_555 1_555
H10B C6B 1_555 1_555
N2 C1 1_555 1_555
N4 C4 1_555 1_555
N6 C7 1_555 1_555
C2 C3 1_555 1_555
C5 C6 1_555 1_555
C8 C9 1_555 1_555
V1B F4B 1_555 1_555
N2B C1B 1_555 1_555
N4B C4B 1_555 1_555
C2B C3B 1_555 1_555
C5B C6B 1_555 1_555

#END
