
#######################################################################
#
#                 Cambridge Crystallographic Data Centre
#                                CCDC 
#
#######################################################################
#
# If this CIF has been generated from an entry in the Cambridge 
# Structural Database, then it will include bibliographic, chemical, 
# crystal, experimental, refinement or atomic coordinate data resulting 
# from the CCDC's data processing and validation procedures.
#
#######################################################################

data_ROHCEX
_symmetry_cell_setting           orthorhombic
_symmetry_space_group_name_H-M   'P b c n'
_symmetry_Int_Tables_number      60
_space_group_name_Hall           '-P 2n 2ab'
loop_
_symmetry_equiv_pos_site_id
_symmetry_equiv_pos_as_xyz
1 x,y,z
2 1/2-x,1/2-y,1/2+z
3 1/2+x,1/2-y,-z
4 -x,y,1/2-z
5 -x,-y,-z
6 1/2+x,1/2+y,1/2-z
7 1/2-x,1/2+y,z
8 x,-y,1/2+z
_cell_length_a                   15.291(4)
_cell_length_b                   9.806(3)
_cell_length_c                   18.028(5)
_cell_angle_alpha                90
_cell_angle_beta                 90
_cell_angle_gamma                90
_cell_volume                     2703.18
loop_
_atom_site_label
_atom_site_type_symbol
_atom_site_fract_x
_atom_site_fract_y
_atom_site_fract_z
V1 V 0.92360(7) 0.17556(11) -0.69919(5)
Cu1 Cu 1.0000 0.0000 -0.5000
F1 F 0.9003(2) 0.3489(4) -0.65739(19)
F2 F 0.9607(2) 0.1091(3) -0.60505(16)
F3 F 1.0000 0.0394(5) -0.7500
F4 F 0.9377(2) 0.2598(3) -0.79611(17)
O1 O 0.8291(3) 0.1064(5) -0.7068(2)
N1 N 0.8941(3) 0.0895(5) -0.4485(3)
N2 N 1.0744(3) 0.1654(5) -0.4718(3)
C1 C 0.8533(4) 0.2001(7) -0.4762(3)
H3 H 0.8714 0.2345 -0.5218
C2 C 0.7862(4) 0.2639(7) -0.4397(3)
H4 H 0.7600 0.3408 -0.4601
C3 C 0.7575(4) 0.2133(7) -0.3721(3)
H5 H 0.7121 0.2551 -0.3464
C4 C 0.7985(4) 0.0987(7) -0.3443(3)
H6 H 0.7804 0.0615 -0.2994
C5 C 0.8666(4) 0.0392(7) -0.3833(3)
H7 H 0.8940 -0.0375 -0.3638
C6 C 1.0640(4) 0.2895(6) -0.5035(4)
H8 H 1.0274 0.2984 -0.5444
C7 C 1.1063(4) 0.4026(7) -0.4765(4)
H9 H 1.0965 0.4872 -0.4982
C8 C 1.1636(4) 0.3918(8) -0.4171(4)
H10 H 1.1928 0.4676 -0.3984
C9 C 1.1756(4) 0.2632(7) -0.3867(4)
H11 H 1.2142 0.2511 -0.3473
C10 C 1.1305(4) 0.1540(6) -0.4147(4)
H12 H 1.1389 0.0687 -0.3934
V1C V 1.07640(7) 0.17556(11) -0.80081(5)
Cu1G Cu 1.0000 0.0000 -1.0000
F1C F 1.0997(2) 0.3489(4) -0.84261(19)
F2D F 1.0393(2) -0.1091(3) -0.39495(16)
F2C F 1.0393(2) 0.1091(3) -0.89495(16)
F4C F 1.0623(2) 0.2598(3) -0.70389(17)
O1C O 1.1709(3) 0.1064(5) -0.7932(2)
N1D N 1.1059(3) -0.0895(5) -0.5515(3)
N2D N 0.9256(3) -0.1654(5) -0.5282(3)
C1D C 1.1467(4) -0.2001(7) -0.5238(3)
H3D H 1.1286 -0.2345 -0.4782
C2D C 1.2138(4) -0.2639(7) -0.5603(3)
H4D H 1.2400 -0.3408 -0.5399
C3D C 1.2425(4) -0.2133(7) -0.6279(3)
H5D H 1.2879 -0.2551 -0.6536
C4D C 1.2015(4) -0.0987(7) -0.6557(3)
H6D H 1.2196 -0.0615 -0.7006
C5D C 1.1334(4) -0.0392(7) -0.6167(3)
H7D H 1.1060 0.0375 -0.6362
C6D C 0.9360(4) -0.2895(6) -0.4965(4)
H8D H 0.9726 -0.2984 -0.4556
C7D C 0.8937(4) -0.4026(7) -0.5235(4)
H9D H 0.9035 -0.4872 -0.5018
C8D C 0.8364(4) -0.3918(8) -0.5829(4)
H10D H 0.8072 -0.4676 -0.6016
C9D C 0.8244(4) -0.2632(7) -0.6133(4)
H11D H 0.7858 -0.2511 -0.6527
C10D C 0.8695(4) -0.1540(6) -0.5853(4)
H12D H 0.8611 -0.0687 -0.6066
N3 N 1.0000 0.5166(8) -0.7500
H1 H 0.9682 0.4625 -0.7200
H2 H 1.0318 0.4625 -0.7800
C11 C 0.9399(5) 0.6001(9) -0.7958(4)
H13 H 0.9028 0.5412 -0.8244
H14 H 0.9733 0.6569 -0.8286
H15 H 0.9046 0.6563 -0.7640
C11C C 1.0601(5) 0.6001(9) -0.7042(4)
H13C H 1.0972 0.5412 -0.6756
H14C H 1.0267 0.6569 -0.6714
H15C H 1.0954 0.6563 -0.7360
loop_
_geom_bond_atom_site_label_1
_geom_bond_atom_site_label_2
_geom_bond_site_symmetry_1
_geom_bond_site_symmetry_2
V1 F1 1_555 1_555
Cu1 F2 1_555 1_555
F2 V1 1_555 1_555
F3 V1 1_555 1_555
F4 V1 1_555 1_555
O1 V1 1_555 1_555
N1 Cu1 1_555 1_555
N2 Cu1 1_555 1_555
N3 H1 1_555 1_555
H2 N3 1_555 1_555
C1 N1 1_555 1_555
H3 C1 1_555 1_555
C2 C1 1_555 1_555
H4 C2 1_555 1_555
C3 C2 1_555 1_555
H5 C3 1_555 1_555
C4 C3 1_555 1_555
H6 C4 1_555 1_555
C5 N1 1_555 1_555
H7 C5 1_555 1_555
C6 N2 1_555 1_555
H8 C6 1_555 1_555
C7 C6 1_555 1_555
H9 C7 1_555 1_555
C8 C7 1_555 1_555
H10 C8 1_555 1_555
C9 C8 1_555 1_555
H11 C9 1_555 1_555
C10 N2 1_555 1_555
H12 C10 1_555 1_555
C11 N3 1_555 1_555
H13 C11 1_555 1_555
H14 C11 1_555 1_555
H15 C11 1_555 1_555
V1C F3 1_555 1_555
Cu1G F2C 1_555 1_555
F1C V1C 1_555 1_555
F2D Cu1 1_555 1_555
F2C V1C 1_555 1_555
F4C V1 1_555 1_555
O1C V1C 1_555 1_555
N1D Cu1 1_555 1_555
N2D Cu1 1_555 1_555
C1D N1D 1_555 1_555
H3D C1D 1_555 1_555
C2D C1D 1_555 1_555
H4D C2D 1_555 1_555
C3D C2D 1_555 1_555
H5D C3D 1_555 1_555
C4D C3D 1_555 1_555
H6D C4D 1_555 1_555
C5D N1D 1_555 1_555
H7D C5D 1_555 1_555
C6D N2D 1_555 1_555
H8D C6D 1_555 1_555
C7D C6D 1_555 1_555
H9D C7D 1_555 1_555
C8D C7D 1_555 1_555
H10D C8D 1_555 1_555
C9D C8D 1_555 1_555
H11D C9D 1_555 1_555
C10D N2D 1_555 1_555
H12D C10D 1_555 1_555
C11C N3 1_555 1_555
H13C C11C 1_555 1_555
H14C C11C 1_555 1_555
H15C C11C 1_555 1_555
F4 V1C 1_555 1_555
C4 C5 1_555 1_555
C9 C10 1_555 1_555
V1C F4C 1_555 1_555
C4D C5D 1_555 1_555
C9D C10D 1_555 1_555

#END
