
#######################################################################
#
#                 Cambridge Crystallographic Data Centre
#                                CCDC 
#
#######################################################################
#
# If this CIF has been generated from an entry in the Cambridge 
# Structural Database, then it will include bibliographic, chemical, 
# crystal, experimental, refinement or atomic coordinate data resulting 
# from the CCDC's data processing and validation procedures.
#
#######################################################################

data_ROHDAU
_symmetry_cell_setting           orthorhombic
_symmetry_space_group_name_H-M   'P 21 21 21'
_symmetry_Int_Tables_number      19
_space_group_name_Hall           'P 2ac 2ab'
loop_
_symmetry_equiv_pos_site_id
_symmetry_equiv_pos_as_xyz
1 x,y,z
2 1/2-x,-y,1/2+z
3 -x,1/2+y,1/2-z
4 1/2+x,1/2-y,-z
_cell_length_a                   10.972(3)
_cell_length_b                   11.466(3)
_cell_length_c                   13.842(4)
_cell_angle_alpha                90
_cell_angle_beta                 90
_cell_angle_gamma                90
_cell_volume                     1741.39
loop_
_atom_site_label
_atom_site_type_symbol
_atom_site_fract_x
_atom_site_fract_y
_atom_site_fract_z
Cu1 Cu 0.32139(7) 0.08936(7) 0.25265(6)
V1 V 0.64649(10) 0.29285(9) 0.06752(9)
V2 V 0.34877(10) 0.32921(9) 0.07222(9)
O1 O 0.6976(4) 0.4151(4) 0.0207(4)
O2 O 0.6564(5) 0.3005(4) 0.1866(4)
O3 O 0.4901(4) 0.2678(4) 0.0304(4)
O4 O 0.2379(4) 0.3274(4) -0.0252(4)
O5 O 0.2985(4) 0.2554(4) 0.1678(3)
O6 O 0.3709(4) 0.4663(4) 0.1022(3)
N1 N 0.3280(6) -0.0255(5) 0.1434(4)
H1 H 0.2699 -0.0718 0.1272
N2 N 0.5061(5) 0.0837(4) 0.2439(4)
H2 H 0.5548 0.1273 0.2764
N3 N 0.1371(5) 0.0601(4) 0.2630(4)
N4 N 0.3218(5) 0.1794(4) 0.3797(4)
C1 C 0.4485(7) -0.0185(7) 0.0948(5)
H3 H 0.4510 0.0480 0.0515
H4 H 0.4634 -0.0886 0.0574
C2 C 0.5444(7) -0.0055(6) 0.1741(5)
H5 H 0.5553 -0.0795 0.2069
H6 H 0.6218 0.0166 0.1455
C3 C 0.0940(6) -0.0167(6) 0.3279(6)
H7 H 0.1476 -0.0492 0.3725
C4 C -0.0295(7) -0.0496(6) 0.3305(6)
H8 H -0.0569 -0.1033 0.3759
C5 C -0.1080(7) -0.0018(7) 0.2661(5)
H9 H -0.1903 -0.0211 0.2673
C6 C -0.0632(7) 0.0769(8) 0.1980(6)
H10 H -0.1152 0.1095 0.1523
C7 C 0.0588(7) 0.1060(7) 0.1988(6)
H11 H 0.0878 0.1591 0.1535
C8 C 0.3920(7) 0.1515(6) 0.4564(6)
H12 H 0.4476 0.0906 0.4507
C9 C 0.3837(8) 0.2114(7) 0.5443(6)
H13 H 0.4333 0.1912 0.5962
C10 C 0.3002(8) 0.3011(7) 0.5524(7)
H14 H 0.2917 0.3411 0.6105
C11 C 0.2310(8) 0.3303(7) 0.4753(7)
H15 H 0.1765 0.3923 0.4792
C12 C 0.2420(7) 0.2667(6) 0.3898(6)
H16 H 0.1920 0.2857 0.3379
V1C V 0.14649(10) 0.20715(9) -0.06752(9)
O4C O 0.7379(4) 0.1726(4) 0.0252(4)
loop_
_geom_bond_atom_site_label_1
_geom_bond_atom_site_label_2
_geom_bond_site_symmetry_1
_geom_bond_site_symmetry_2
Cu1 O5 1_555 1_555
V1 O1 1_555 1_555
V2 O3 1_555 1_555
O2 V1 1_555 1_555
O3 V1 1_555 1_555
O4 V2 1_555 1_555
O5 V2 1_555 1_555
O6 V2 1_555 1_555
N1 Cu1 1_555 1_555
H1 N1 1_555 1_555
N2 Cu1 1_555 1_555
H2 N2 1_555 1_555
N3 Cu1 1_555 1_555
N4 Cu1 1_555 1_555
C1 N1 1_555 1_555
H3 C1 1_555 1_555
H4 C1 1_555 1_555
C2 N2 1_555 1_555
H5 C2 1_555 1_555
H6 C2 1_555 1_555
C3 N3 1_555 1_555
H7 C3 1_555 1_555
C4 C3 1_555 1_555
H8 C4 1_555 1_555
C5 C4 1_555 1_555
H9 C5 1_555 1_555
C6 C5 1_555 1_555
H10 C6 1_555 1_555
C7 N3 1_555 1_555
H11 C7 1_555 1_555
C8 N4 1_555 1_555
H12 C8 1_555 1_555
C9 C8 1_555 1_555
H13 C9 1_555 1_555
C10 C9 1_555 1_555
H14 C10 1_555 1_555
C11 C10 1_555 1_555
H15 C11 1_555 1_555
C12 N4 1_555 1_555
H16 C12 1_555 1_555
V1C O4 1_555 1_555
O4C V1 1_555 1_555
C1 C2 1_555 1_555
C6 C7 1_555 1_555
C11 C12 1_555 1_555

#END
