
#######################################################################
#
#                 Cambridge Crystallographic Data Centre
#                                CCDC 
#
#######################################################################
#
# If this CIF has been generated from an entry in the Cambridge 
# Structural Database, then it will include bibliographic, chemical, 
# crystal, experimental, refinement or atomic coordinate data resulting 
# from the CCDC's data processing and validation procedures.
#
#######################################################################

data_ROHJEF
_symmetry_cell_setting           monoclinic
_symmetry_space_group_name_H-M   'P 21/c'
_symmetry_Int_Tables_number      14
_space_group_name_Hall           '-P 2ybc'
loop_
_symmetry_equiv_pos_site_id
_symmetry_equiv_pos_as_xyz
1 x,y,z
2 -x,1/2+y,1/2-z
3 -x,-y,-z
4 x,1/2-y,1/2+z
_cell_length_a                   10.118(2)
_cell_length_b                   11.626(2)
_cell_length_c                   20.055(4)
_cell_angle_alpha                90
_cell_angle_beta                 97.10(3)
_cell_angle_gamma                90
_cell_volume                     2341.02
loop_
_atom_site_label
_atom_site_type_symbol
_atom_site_fract_x
_atom_site_fract_y
_atom_site_fract_z
Cd1 Cd -0.01653(2) 0.148770(17) 0.095137(10)
N1 N 0.0006(3) 0.6720(2) 0.29098(13)
N2 N 0.0452(3) 0.6654(2) 0.18701(12)
N3 N 0.0126(2) 0.5290(2) 0.09754(11)
N4 N 0.0507(3) 0.4193(2) 0.11380(12)
N5 N -0.0405(3) 0.3502(2) 0.08505(12)
O1 O 0.1430(2) 0.0162(2) 0.09674(12)
O2 O 0.2563(3) 0.1758(2) 0.09499(18)
O3 O 0.8432(2) -0.0320(2) 0.08932(13)
O4 O 0.7516(2) 0.1392(2) 0.08313(14)
O5 O -0.0215(2) 0.15031(16) -0.02249(10)
H1 H 0.0536 0.1282 -0.0325
H2 H -0.0782 0.1035 -0.0420
C1 C 0.2516(3) 0.0703(3) 0.09640(16)
C2 C 0.3745(3) -0.0022(2) 0.09839(15)
C3 C 0.3675(3) -0.1195(3) 0.1101(2)
H3 H 0.2862 -0.1526 0.1165
C4 C 0.4794(4) -0.1877(3) 0.1125(2)
H4 H 0.4731 -0.2664 0.1199
C5 C 0.6005(3) -0.1393(3) 0.1040(2)
H5 H 0.6759 -0.1855 0.1056
C6 C 0.6103(3) -0.0218(3) 0.09317(15)
C7 C 0.4967(3) 0.0461(3) 0.09019(14)
H6 H 0.5027 0.1247 0.0826
C8 C 0.7433(3) 0.0323(3) 0.08754(15)
C9 C 0.0701(3) 0.6209(3) 0.24896(15)
H7 H 0.1294 0.5610 0.2605
C10 C -0.0720(4) 0.7551(3) 0.25394(17)
H8 H -0.1307 0.8060 0.2707
C11 C -0.0457(4) 0.7520(3) 0.18996(17)
H9 H -0.0818 0.7990 0.1548
C12 C 0.0952(3) 0.6221(3) 0.12691(14)
H10 H 0.0963 0.6838 0.0945
H11 H 0.1858 0.5949 0.1383
C13 C -0.1421(3) 0.4143(2) 0.05014(14)
C14 C -0.2604(3) 0.3807(3) 0.01198(16)
H12 H -0.2851 0.3038 0.0070
C15 C -0.3385(3) 0.4678(3) -0.01783(18)
H13 H -0.4180 0.4492 -0.0440
C16 C -0.3021(3) 0.5843(3) -0.01005(18)
H14 H -0.3582 0.6401 -0.0313
C17 C -0.1870(3) 0.6181(3) 0.02765(16)
H15 H -0.1632 0.6951 0.0329
C18 C -0.1070(3) 0.5295(2) 0.05790(14)
Cd1_2 Cd 0.98347(2) 0.148770(17) 0.095137(10)
Cd1A Cd 0.01653(2) 0.648770(17) 0.404863(10)
N1A N -0.0006(3) 0.1720(2) 0.20902(13)
O3_2 O -0.1568(2) -0.0320(2) 0.08932(13)
O4_2 O -0.2484(2) 0.1392(2) 0.08313(14)
N6 N 0.5613(5) 0.4276(4) 0.2036(2)
O6 O 0.3798(5) 0.5411(5) 0.2044(2)
C19 C 0.4322(8) 0.4476(8) 0.2007(3)
H16 H 0.3761 0.3841 0.1953
C20 C 0.6110(10) 0.3148(7) 0.1978(4)
H17 H 0.5392 0.2606 0.1971
H18 H 0.6766 0.2988 0.2355
H19 H 0.6510 0.3083 0.1570
C21 C 0.6535(8) 0.5192(7) 0.2113(4)
H20 H 0.6163 0.5821 0.2337
H21 H 0.6730 0.5439 0.1679
H22 H 0.7341 0.4938 0.2375
loop_
_geom_bond_atom_site_label_1
_geom_bond_atom_site_label_2
_geom_bond_site_symmetry_1
_geom_bond_site_symmetry_2
Cd1 N5 1_555 1_555
N1 C9 1_555 1_555
N2 C9 1_555 1_555
N3 N4 1_555 1_555
N4 N5 1_555 1_555
N5 C13 1_555 1_555
O1 Cd1 1_555 1_555
O2 Cd1 1_555 1_555
O3 C8 1_555 1_555
O4 C8 1_555 1_555
O5 Cd1 1_555 1_555
H1 O5 1_555 1_555
H2 O5 1_555 1_555
C1 O1 1_555 1_555
C2 C1 1_555 1_555
C3 C2 1_555 1_555
H3 C3 1_555 1_555
C4 C3 1_555 1_555
H4 C4 1_555 1_555
C5 C4 1_555 1_555
H5 C5 1_555 1_555
C6 C5 1_555 1_555
C7 C2 1_555 1_555
H6 C7 1_555 1_555
C8 C6 1_555 1_555
C9 H7 1_555 1_555
C10 N1 1_555 1_555
H8 C10 1_555 1_555
C11 N2 1_555 1_555
H9 C11 1_555 1_555
C12 N2 1_555 1_555
H10 C12 1_555 1_555
H11 C12 1_555 1_555
C13 C14 1_555 1_555
C14 H12 1_555 1_555
C15 C14 1_555 1_555
H13 C15 1_555 1_555
C16 C15 1_555 1_555
H14 C16 1_555 1_555
C17 C16 1_555 1_555
H15 C17 1_555 1_555
C18 N3 1_555 1_555
N6 C19 1_555 1_555
O6 C19 1_555 1_555
C19 H16 1_555 1_555
C20 N6 1_555 1_555
H17 C20 1_555 1_555
H18 C20 1_555 1_555
H19 C20 1_555 1_555
C21 N6 1_555 1_555
H20 C21 1_555 1_555
H21 C21 1_555 1_555
H22 C21 1_555 1_555
Cd1_2 O3 1_555 1_555
Cd1A N1 1_555 1_555
N1A Cd1 1_555 1_555
O3_2 Cd1 1_555 1_555
O4_2 Cd1 1_555 1_555
N3 C12 1_555 1_555
O2 C1 1_555 1_555
O4 Cd1_2 1_555 1_555
C6 C7 1_555 1_555
C10 C11 1_555 1_555
C13 C18 1_555 1_555
C17 C18 1_555 1_555

#END
