
#######################################################################
#
#                 Cambridge Crystallographic Data Centre
#                                CCDC 
#
#######################################################################
#
# If this CIF has been generated from an entry in the Cambridge 
# Structural Database, then it will include bibliographic, chemical, 
# crystal, experimental, refinement or atomic coordinate data resulting 
# from the CCDC's data processing and validation procedures.
#
#######################################################################

data_ROHJUV
_symmetry_cell_setting           monoclinic
_symmetry_space_group_name_H-M   'P 2/n'
_symmetry_Int_Tables_number      13
_space_group_name_Hall           '-P 2yac'
loop_
_symmetry_equiv_pos_site_id
_symmetry_equiv_pos_as_xyz
1 x,y,z
2 1/2-x,y,1/2-z
3 -x,-y,-z
4 1/2+x,-y,1/2+z
_cell_length_a                   18.085(6)
_cell_length_b                   9.034(3)
_cell_length_c                   22.337(8)
_cell_angle_alpha                90
_cell_angle_beta                 100.725(4)
_cell_angle_gamma                90
_cell_volume                     3585.67
loop_
_atom_site_label
_atom_site_type_symbol
_atom_site_fract_x
_atom_site_fract_y
_atom_site_fract_z
Zn1 Zn 0.490288(16) 0.49184(3) 0.636905(11)
O1 O 0.52263(11) 0.31636(19) 0.40511(8)
O2 O 0.41387(11) 0.3490(2) 0.43589(8)
O3 O 0.48042(12) 0.3530(2) 0.56988(8)
O4 O 0.38303(15) 0.2218(3) 0.58590(12)
O5 O 0.45140(18) 0.7335(4) 1.29590(13)
O6 O 0.41679(16) 0.5020(3) 1.29810(12)
N1 N 0.41443(15) 0.5147(2) 0.69424(10)
N2 N 0.17730(12) 0.7246(3) 1.02105(8)
C1 C 0.47264(14) 0.2794(3) 0.43545(9)
C2 C 0.48796(13) 0.1377(2) 0.47068(9)
C3 C 0.46681(13) 0.1148(3) 0.52732(9)
C4 C 0.43892(15) 0.2392(3) 0.56304(10)
C5 C 0.47826(14) -0.0204(2) 0.55526(11)
H1 H 0.4629 -0.0351 0.5932
C6 C 0.40263(19) 0.6492(4) 0.71498(13)
H2 H 0.4207 0.7328 0.6963
C7 C 0.3648(2) 0.6716(4) 0.76295(15)
H3 H 0.3566 0.7689 0.7765
C8 C 0.3387(2) 0.5476(5) 0.79114(13)
C9 C 0.3499(2) 0.4125(4) 0.76836(15)
H4 H 0.3319 0.3266 0.7856
C10 C 0.38723(19) 0.3990(4) 0.72055(14)
H5 H 0.3941 0.3027 0.7054
C11 C 0.2984(2) 0.5556(5) 0.84334(15)
H6 H 0.2868 0.4654 0.8614
C12 C 0.2779(2) 0.6798(4) 0.86577(15)
H7 H 0.2887 0.7695 0.8470
C13 C 0.23921(18) 0.6896(4) 0.91848(13)
C14 C 0.2370(2) 0.8246(4) 0.94588(14)
H8 H 0.2561 0.9093 0.9287
C15 C 0.20786(19) 0.8388(3) 0.99722(13)
H9 H 0.2093 0.9327 1.0166
C16 C 0.17300(16) 0.5918(4) 0.99364(12)
H10 H 0.1483 0.5118 1.0093
C17 C 0.20437(19) 0.5722(4) 0.94304(13)
H11 H 0.2025 0.4774 0.9243
C18 C 0.15419(16) 0.7407(4) 1.08106(10)
H12 H 0.1121 0.6722 1.0836
H13 H 0.1367 0.8431 1.0859
C19 C 0.22047(15) 0.7057(4) 1.13123(11)
C20 C 0.2633(2) 0.8234(5) 1.16072(14)
H14 H 0.2506 0.9225 1.1489
C21 C 0.3241(2) 0.7946(5) 1.20706(16)
H15 H 0.3528 0.8746 1.2271
C22 C 0.34287(18) 0.6554(4) 1.22384(12)
C23 C 0.3007(2) 0.5366(5) 1.19482(17)
H16 H 0.3135 0.4376 1.2068
C24 C 0.2395(2) 0.5657(5) 1.14792(14)
H17 H 0.2112 0.4858 1.1277
C25 C 0.4082(2) 0.6283(6) 1.27686(16)
O1B O 0.47737(11) -0.31636(19) 0.59489(8)
O2B O 0.58613(11) -0.3490(2) 0.56411(8)
O3B O 0.51958(12) -0.3530(2) 0.43012(8)
O4B O 0.61697(15) -0.2218(3) 0.41410(12)
C1B C 0.52736(14) -0.2794(3) 0.56455(9)
C2B C 0.51204(13) -0.1377(2) 0.52932(9)
C3B C 0.53319(13) -0.1148(3) 0.47268(9)
C4B C 0.56108(15) -0.2392(3) 0.43696(10)
C5B C 0.52174(14) 0.0204(2) 0.44474(11)
H1B H 0.5371 0.0351 0.4068
Zn1B Zn 0.509712(16) -0.49184(3) 0.363095(11)
O5B O 0.54860(18) -0.7335(4) -0.29590(13)
O6B O 0.58321(16) -0.5020(3) -0.29810(12)
N1B N 0.58557(15) -0.5147(2) 0.30576(10)
N2B N 0.82270(12) -0.7246(3) -0.02105(8)
C6B C 0.59737(19) -0.6492(4) 0.28502(13)
H2B H 0.5793 -0.7328 0.3037
C7B C 0.6352(2) -0.6716(4) 0.23705(15)
H3B H 0.6434 -0.7689 0.2235
C8B C 0.6613(2) -0.5476(5) 0.20886(13)
C9B C 0.6501(2) -0.4125(4) 0.23164(15)
H4B H 0.6681 -0.3266 0.2144
C10B C 0.61277(19) -0.3990(4) 0.27945(14)
H5B H 0.6059 -0.3027 0.2946
C11B C 0.7016(2) -0.5556(5) 0.15666(15)
H6B H 0.7132 -0.4654 0.1386
C12B C 0.7221(2) -0.6798(4) 0.13423(15)
H7B H 0.7113 -0.7695 0.1530
C13B C 0.76079(18) -0.6896(4) 0.08152(13)
C14B C 0.7630(2) -0.8246(4) 0.05412(14)
H8B H 0.7439 -0.9093 0.0713
C15B C 0.79214(19) -0.8388(3) 0.00278(13)
H9B H 0.7907 -0.9327 -0.0166
C16B C 0.82700(16) -0.5918(4) 0.00636(12)
H10B H 0.8517 -0.5118 -0.0093
C17B C 0.79563(19) -0.5722(4) 0.05696(13)
H11B H 0.7975 -0.4774 0.0757
C18B C 0.84581(16) -0.7407(4) -0.08106(10)
H12B H 0.8879 -0.6722 -0.0836
H13B H 0.8633 -0.8431 -0.0859
C19B C 0.77953(15) -0.7057(4) -0.13123(11)
C20B C 0.7367(2) -0.8234(5) -0.16072(14)
H14B H 0.7494 -0.9225 -0.1489
C21B C 0.6759(2) -0.7946(5) -0.20706(16)
H15B H 0.6472 -0.8746 -0.2271
C22B C 0.65713(18) -0.6554(4) -0.22384(12)
C23B C 0.6993(2) -0.5366(5) -0.19482(17)
H16B H 0.6865 -0.4376 -0.2068
C24B C 0.7605(2) -0.5657(5) -0.14792(14)
H17B H 0.7888 -0.4858 -0.1277
C25B C 0.5918(2) -0.6283(6) -0.27686(16)
Zn1_2 Zn 0.490288(16) -0.50816(3) -0.363095(11)
Zn1_3 Zn 0.490288(16) -0.50816(3) 0.636905(11)
Zn1B_2 Zn 0.509712(16) 0.50816(3) 0.363095(11)
Zn1B_3 Zn 0.509712(16) 0.50816(3) 1.363095(11)
O1_2 O 0.52263(11) -0.68364(19) 0.40511(8)
O1B_2 O 0.47737(11) 0.68364(19) 0.59489(8)
O6_2 O 0.41679(16) -0.4980(3) 0.29810(12)
O6B_2 O 0.58321(16) 0.4980(3) 0.70190(12)
loop_
_geom_bond_atom_site_label_1
_geom_bond_atom_site_label_2
_geom_bond_site_symmetry_1
_geom_bond_site_symmetry_2
Zn1 O3 1_555 1_555
O1 C1 1_555 1_555
O2 C1 1_555 1_555
O3 C4 1_555 1_555
O4 C4 1_555 1_555
O5 C25 1_555 1_555
O6 C25 1_555 1_555
N1 Zn1 1_555 1_555
N2 C15 1_555 1_555
C1 C2 1_555 1_555
C2 C3 1_555 1_555
C3 C4 1_555 1_555
C5 C3 1_555 1_555
H1 C5 1_555 1_555
C6 N1 1_555 1_555
H2 C6 1_555 1_555
C7 C6 1_555 1_555
H3 C7 1_555 1_555
C8 C7 1_555 1_555
C9 C8 1_555 1_555
H4 C9 1_555 1_555
C10 N1 1_555 1_555
H5 C10 1_555 1_555
C11 C8 1_555 1_555
H6 C11 1_555 1_555
C12 C11 1_555 1_555
H7 C12 1_555 1_555
C13 C12 1_555 1_555
C14 C13 1_555 1_555
H8 C14 1_555 1_555
C15 C14 1_555 1_555
H9 C15 1_555 1_555
C16 N2 1_555 1_555
H10 C16 1_555 1_555
C17 C13 1_555 1_555
H11 C17 1_555 1_555
C18 N2 1_555 1_555
H12 C18 1_555 1_555
H13 C18 1_555 1_555
C19 C18 1_555 1_555
C20 C19 1_555 1_555
H14 C20 1_555 1_555
C21 C20 1_555 1_555
H15 C21 1_555 1_555
C22 C21 1_555 1_555
C23 C22 1_555 1_555
H16 C23 1_555 1_555
C24 C19 1_555 1_555
H17 C24 1_555 1_555
C25 C22 1_555 1_555
O1B C1B 1_555 1_555
O2B C1B 1_555 1_555
O3B C4B 1_555 1_555
O4B C4B 1_555 1_555
C1B C2B 1_555 1_555
C2B C5 1_555 1_555
C3B C2B 1_555 1_555
C4B C3B 1_555 1_555
C5B C2 1_555 1_555
H1B C5B 1_555 1_555
Zn1B O3B 1_555 1_555
O5B C25B 1_555 1_555
O6B C25B 1_555 1_555
N1B Zn1B 1_555 1_555
N2B C15B 1_555 1_555
C6B N1B 1_555 1_555
H2B C6B 1_555 1_555
C7B C6B 1_555 1_555
H3B C7B 1_555 1_555
C8B C7B 1_555 1_555
C9B C8B 1_555 1_555
H4B C9B 1_555 1_555
C10B N1B 1_555 1_555
H5B C10B 1_555 1_555
C11B C8B 1_555 1_555
H6B C11B 1_555 1_555
C12B C11B 1_555 1_555
H7B C12B 1_555 1_555
C13B C12B 1_555 1_555
C14B C13B 1_555 1_555
H8B C14B 1_555 1_555
C15B C14B 1_555 1_555
H9B C15B 1_555 1_555
C16B N2B 1_555 1_555
H10B C16B 1_555 1_555
C17B C13B 1_555 1_555
H11B C17B 1_555 1_555
C18B N2B 1_555 1_555
H12B C18B 1_555 1_555
H13B C18B 1_555 1_555
C19B C18B 1_555 1_555
C20B C19B 1_555 1_555
H14B C20B 1_555 1_555
C21B C20B 1_555 1_555
H15B C21B 1_555 1_555
C22B C21B 1_555 1_555
C23B C22B 1_555 1_555
H16B C23B 1_555 1_555
C24B C19B 1_555 1_555
H17B C24B 1_555 1_555
C25B C22B 1_555 1_555
Zn1_2 O6B 1_555 1_555
Zn1_3 O1B 1_555 1_555
Zn1B_2 O1 1_555 1_555
Zn1B_3 O6 1_555 1_555
O1_2 Zn1B 1_555 1_555
O1B_2 Zn1 1_555 1_555
O6_2 Zn1B 1_555 1_555
O6B_2 Zn1 1_555 1_555
C9 C10 1_555 1_555
C16 C17 1_555 1_555
C23 C24 1_555 1_555
C3B C5B 1_555 1_555
C9B C10B 1_555 1_555
C16B C17B 1_555 1_555
C23B C24B 1_555 1_555

#END
