
#######################################################################
#
#                 Cambridge Crystallographic Data Centre
#                                CCDC 
#
#######################################################################
#
# If this CIF has been generated from an entry in the Cambridge 
# Structural Database, then it will include bibliographic, chemical, 
# crystal, experimental, refinement or atomic coordinate data resulting 
# from the CCDC's data processing and validation procedures.
#
#######################################################################

data_ROHKIK
_symmetry_cell_setting           triclinic
_symmetry_space_group_name_H-M   'P -1'
_symmetry_Int_Tables_number      2
_space_group_name_Hall           '-P 1'
loop_
_symmetry_equiv_pos_site_id
_symmetry_equiv_pos_as_xyz
1 x,y,z
2 -x,-y,-z
_cell_length_a                   9.635(4)
_cell_length_b                   12.973(5)
_cell_length_c                   16.652(7)
_cell_angle_alpha                74.235(7)
_cell_angle_beta                 74.130(6)
_cell_angle_gamma                77.905(7)
_cell_volume                     1906.1
loop_
_atom_site_label
_atom_site_type_symbol
_atom_site_fract_x
_atom_site_fract_y
_atom_site_fract_z
Ag1 Ag 0.34582(3) -0.018976(18) 0.613787(15)
Ag2 Ag -0.07379(3) 1.028599(18) 0.149109(14)
N1 N 0.4024(3) -0.10891(18) 0.73095(15)
N2 N 0.4358(3) -0.23327(17) 0.84546(14)
N3 N 0.8295(3) -0.79688(17) 0.90986(14)
N4 N 0.8529(3) -0.90117(17) 1.03467(15)
N5 N 0.2877(3) 0.07949(18) 0.49917(15)
N6 N 0.2698(3) 0.21592(17) 0.38972(14)
N7 N 0.0411(3) 0.80827(16) 0.37020(13)
N8 N 0.0032(3) 0.93744(17) 0.25850(15)
C1 C 0.3619(3) -0.1992(2) 0.78345(18)
H1 H 0.2914 -0.2345 0.7781
C2 C 0.5073(4) -0.0846(2) 0.7606(2)
H2 H 0.5561 -0.0249 0.7360
C3 C 0.5296(4) -0.1606(2) 0.8313(2)
H3 H 0.5954 -0.1632 0.8638
C4 C 0.4213(4) -0.3318(2) 0.91428(17)
H4 H 0.3242 -0.3502 0.9252
H5 H 0.4319 -0.3176 0.9664
C5 C 0.5331(3) -0.4276(2) 0.89277(16)
C6 C 0.6749(3) -0.4403(2) 0.90137(18)
H6 H 0.7032 -0.3888 0.9206
C7 C 0.7757(3) -0.5286(2) 0.88179(19)
H7 H 0.8704 -0.5357 0.8882
C8 C 0.7361(3) -0.6059(2) 0.85281(15)
C9 C 0.5941(3) -0.5925(2) 0.84364(19)
H8 H 0.5658 -0.6434 0.8236
C10 C 0.4940(3) -0.5047(2) 0.86373(19)
H9 H 0.3992 -0.4976 0.8576
C11 C 0.8444(3) -0.7054(2) 0.83461(17)
H10 H 0.8278 -0.7259 0.7865
H11 H 0.9428 -0.6882 0.8191
C12 C 0.7346(4) -0.8708(2) 0.9315(2)
H12 H 0.6717 -0.8760 0.8997
C13 C 0.7510(4) -0.9343(2) 1.0082(2)
H13 H 0.7004 -0.9920 1.0385
C14 C 0.8974(3) -0.8178(2) 0.97391(18)
H14 H 0.9669 -0.7786 0.9754
C15 C -0.0480(3) 0.8540(2) 0.31645(17)
H15 H -0.1342 0.8301 0.3197
C16 C 0.1306(4) 0.9450(2) 0.2767(2)
H16 H 0.1911 0.9969 0.2467
C17 C 0.1545(3) 0.8651(2) 0.3451(2)
H17 H 0.2336 0.8517 0.3702
C18 C 0.0225(4) 0.7116(2) 0.43985(17)
H18 H -0.0808 0.7084 0.4633
H19 H 0.0641 0.7169 0.4852
C19 C 0.0942(3) 0.60830(19) 0.41070(15)
C20 C 0.2366(3) 0.5662(2) 0.4140(2)
H20 H 0.2897 0.6016 0.4343
C21 C 0.3015(3) 0.4714(2) 0.3875(2)
H21 H 0.3976 0.4439 0.3904
C22 C 0.2259(3) 0.4176(2) 0.35684(16)
C23 C 0.0823(3) 0.4600(2) 0.35387(18)
H22 H 0.0289 0.4245 0.3337
C24 C 0.0177(3) 0.5544(2) 0.38051(19)
H23 H -0.0787 0.5819 0.3780
C25 C 0.2982(4) 0.3162(2) 0.32520(18)
H24 H 0.2638 0.3167 0.2755
H25 H 0.4026 0.3169 0.3071
C26 C 0.3370(3) 0.1701(2) 0.45355(17)
H26 H 0.4093 0.1983 0.4645
C27 C 0.1723(4) 0.1507(2) 0.3945(2)
H27 H 0.1096 0.1619 0.3582
C28 C 0.1844(4) 0.0669(2) 0.4620(2)
H28 H 0.1309 0.0095 0.4803
Ag2_2 Ag 0.92621(3) -0.971401(18) 1.149109(14)
N4_2 N -0.1471(3) 1.09883(17) 0.03467(15)
O1 O 0.2529(3) 0.1544(2) 0.82477(19)
O2 O 0.4797(3) 0.16504(18) 0.80336(18)
O3 O 0.5579(3) 0.28186(17) 0.52996(14)
O4 O 0.4489(4) 0.15653(18) 0.63365(15)
O5 O 0.1134(3) 0.67442(15) 0.74607(13)
O6 O 0.1158(2) 0.55283(17) 0.86918(12)
N9 N 0.3582(3) 0.20011(18) 0.79206(15)
C29 C 0.3349(3) 0.31109(19) 0.73874(16)
C30 C 0.2546(3) 0.3876(2) 0.78370(16)
H29 H 0.2161 0.3673 0.8424
C31 C 0.2320(3) 0.49547(19) 0.74013(16)
C32 C 0.2907(3) 0.5217(2) 0.65261(17)
H30 H 0.2763 0.5933 0.6224
C33 C 0.3706(3) 0.4430(2) 0.60929(17)
H31 H 0.4090 0.4630 0.5506
C34 C 0.3946(3) 0.33493(19) 0.65145(16)
C35 C 0.4763(3) 0.2493(2) 0.60046(18)
C36 C 0.1462(3) 0.5814(2) 0.78885(18)
O7 O 0.0772(3) 0.36258(17) 1.00086(15)
H32 H 0.108(4) 0.412(2) 0.9616(16)
H33 H 0.013(3) 0.382(3) 1.0400(16)
O8 O 0.0922(4) 1.1873(2) 0.1546(2)
H34 H 0.115(6) 1.223(3) 0.1051(12)
H35 H 0.034(5) 1.221(3) 0.188(2)
O9 O 0.2125(4) -0.1818(2) 0.57978(19)
H36 H 0.198(5) -0.224(3) 0.6271(14)
H37 H 0.280(4) -0.205(3) 0.543(2)
O10 O 0.310(2) 0.2075(18) 0.0052(13)
loop_
_geom_bond_atom_site_label_1
_geom_bond_atom_site_label_2
_geom_bond_site_symmetry_1
_geom_bond_site_symmetry_2
Ag1 N1 1_555 1_555
Ag2 N8 1_555 1_555
N1 C1 1_555 1_555
N2 C1 1_555 1_555
N3 C11 1_555 1_555
N4 C13 1_555 1_555
N5 Ag1 1_555 1_555
N6 C25 1_555 1_555
N7 C15 1_555 1_555
N8 C15 1_555 1_555
C1 H1 1_555 1_555
C2 N1 1_555 1_555
H2 C2 1_555 1_555
C3 N2 1_555 1_555
H3 C3 1_555 1_555
C4 N2 1_555 1_555
H4 C4 1_555 1_555
H5 C4 1_555 1_555
C5 C4 1_555 1_555
C6 C5 1_555 1_555
H6 C6 1_555 1_555
C7 C6 1_555 1_555
H7 C7 1_555 1_555
C8 C7 1_555 1_555
C9 C8 1_555 1_555
H8 C9 1_555 1_555
C10 C5 1_555 1_555
H9 C10 1_555 1_555
C11 C8 1_555 1_555
H10 C11 1_555 1_555
H11 C11 1_555 1_555
C12 N3 1_555 1_555
H12 C12 1_555 1_555
C13 C12 1_555 1_555
H13 C13 1_555 1_555
C14 N3 1_555 1_555
H14 C14 1_555 1_555
C15 H15 1_555 1_555
C16 N8 1_555 1_555
H16 C16 1_555 1_555
C17 N7 1_555 1_555
H17 C17 1_555 1_555
C18 N7 1_555 1_555
H18 C18 1_555 1_555
H19 C18 1_555 1_555
C19 C18 1_555 1_555
C20 C19 1_555 1_555
H20 C20 1_555 1_555
C21 C20 1_555 1_555
H21 C21 1_555 1_555
C22 C21 1_555 1_555
C23 C22 1_555 1_555
H22 C23 1_555 1_555
C24 C19 1_555 1_555
H23 C24 1_555 1_555
C25 C22 1_555 1_555
H24 C25 1_555 1_555
H25 C25 1_555 1_555
C26 N5 1_555 1_555
H26 C26 1_555 1_555
C27 N6 1_555 1_555
H27 C27 1_555 1_555
C28 N5 1_555 1_555
H28 C28 1_555 1_555
O1 N9 1_555 1_555
O2 N9 1_555 1_555
O3 C35 1_555 1_555
O4 C35 1_555 1_555
O5 C36 1_555 1_555
O6 C36 1_555 1_555
N9 C29 1_555 1_555
C29 C30 1_555 1_555
C30 H29 1_555 1_555
C31 C30 1_555 1_555
C32 C31 1_555 1_555
H30 C32 1_555 1_555
C33 C32 1_555 1_555
H31 C33 1_555 1_555
C34 C29 1_555 1_555
C35 C34 1_555 1_555
C36 C31 1_555 1_555
O7 H32 1_555 1_555
H33 O7 1_555 1_555
O8 H34 1_555 1_555
H35 O8 1_555 1_555
O9 H36 1_555 1_555
H37 O9 1_555 1_555
Ag2_2 N4 1_555 1_555
N4_2 Ag2 1_555 1_555
N4 C14 1_555 1_555
N6 C26 1_555 1_555
C2 C3 1_555 1_555
C9 C10 1_555 1_555
C16 C17 1_555 1_555
C23 C24 1_555 1_555
C27 C28 1_555 1_555
C33 C34 1_555 1_555

#END
