
#######################################################################
#
#                 Cambridge Crystallographic Data Centre
#                                CCDC 
#
#######################################################################
#
# If this CIF has been generated from an entry in the Cambridge 
# Structural Database, then it will include bibliographic, chemical, 
# crystal, experimental, refinement or atomic coordinate data resulting 
# from the CCDC's data processing and validation procedures.
#
#######################################################################

data_ROHKAC
_symmetry_cell_setting           monoclinic
_symmetry_space_group_name_H-M   'P 2/n'
_symmetry_Int_Tables_number      13
_space_group_name_Hall           '-P 2yac'
loop_
_symmetry_equiv_pos_site_id
_symmetry_equiv_pos_as_xyz
1 x,y,z
2 1/2-x,y,1/2-z
3 -x,-y,-z
4 1/2+x,-y,1/2+z
_cell_length_a                   16.2561(6)
_cell_length_b                   9.0343(2)
_cell_length_c                   20.6184(6)
_cell_angle_alpha                90
_cell_angle_beta                 90.954(3)
_cell_angle_gamma                90
_cell_volume                     3027.65
loop_
_atom_site_label
_atom_site_type_symbol
_atom_site_fract_x
_atom_site_fract_y
_atom_site_fract_z
Zn1 Zn 0.48395(2) 0.50961(3) 0.648467(15)
O1 O 0.52759(12) 0.68176(19) 0.39588(9)
O2 O 0.40429(12) 0.6562(2) 0.43997(9)
O3 O 0.47706(12) 0.64461(19) 0.57536(9)
O4 O 0.37055(14) 0.7749(2) 0.60925(11)
O5 O 0.46172(19) 0.2738(4) 1.28838(14)
O6 O 0.41977(17) 0.5023(3) 1.28844(13)
N1 N 0.39693(15) 0.4707(2) 0.71840(10)
N2 N 0.19791(14) 0.2746(3) 1.00533(10)
C1 C 0.46969(16) 0.7221(2) 0.43333(11)
C2 C 0.48698(14) 0.8631(2) 0.46972(11)
C3 C 0.46267(14) 0.8840(2) 0.53345(11)
C4 C 0.47511(15) 1.0207(2) 0.56303(12)
H1 H 0.4575 1.0353 0.6063
C5 C 0.43195(17) 0.7587(3) 0.57576(11)
C6 C 0.3826(2) 0.3299(3) 0.73384(14)
H2 H 0.4014 0.2548 0.7054
C7 C 0.3422(2) 0.2878(3) 0.78874(14)
H3 H 0.3333 0.1858 0.7975
C8 C 0.31438(18) 0.3952(3) 0.83140(13)
C9 C 0.3283(2) 0.5404(3) 0.81450(15)
H4 H 0.3094 0.6179 0.8417
C10 C 0.3691(2) 0.5740(3) 0.75862(14)
H5 H 0.3779 0.6752 0.7482
C11 C 0.27228(17) 0.3527(3) 0.89168(12)
C12 C 0.2846(2) 0.2145(4) 0.91907(15)
H6 H 0.3194 0.1451 0.8984
C13 C 0.2471(2) 0.1770(4) 0.97593(15)
H7 H 0.2560 0.0819 0.9945
C14 C 0.18227(18) 0.4061(4) 0.97930(13)
H8 H 0.1452 0.4717 0.9999
C15 C 0.21948(19) 0.4486(3) 0.92247(13)
H9 H 0.2088 0.5437 0.9046
C16 C 0.16738(18) 0.2369(4) 1.07110(12)
H10 H 0.1542 0.1300 1.0732
H11 H 0.1166 0.2934 1.0798
C17 C 0.23238(18) 0.2742(4) 1.12104(12)
C18 C 0.2761(2) 0.1645(4) 1.15125(17)
H12 H 0.2651 0.0643 1.1403
C19 C 0.3362(3) 0.1961(5) 1.19761(19)
H13 H 0.3659 0.1179 1.2180
C20 C 0.3529(2) 0.3404(5) 1.21405(14)
C21 C 0.3089(2) 0.4543(4) 1.18352(17)
H14 H 0.3200 0.5544 1.1946
C22 C 0.2486(2) 0.4213(4) 1.13671(15)
H15 H 0.2189 0.4987 1.1157
C23 C 0.4157(2) 0.3717(5) 1.26723(17)
O1B O 0.47241(12) 1.31824(19) 0.60412(9)
O2B O 0.59571(12) 1.3438(2) 0.56003(9)
O3B O 0.52294(12) 1.35539(19) 0.42464(9)
O4B O 0.62945(14) 1.2251(2) 0.39075(11)
C1B C 0.53031(16) 1.2779(2) 0.56667(11)
C2B C 0.51302(14) 1.1369(2) 0.53028(11)
C3B C 0.53733(14) 1.1160(2) 0.46655(11)
C4B C 0.52489(15) 0.9793(2) 0.43697(12)
H1B H 0.5425 0.9647 0.3937
C5B C 0.56805(17) 1.2413(3) 0.42424(11)
Zn1B Zn 0.51605(2) 0.49039(3) 0.351533(15)
O5B O 0.53828(19) 0.7262(4) -0.28838(14)
O6B O 0.58023(17) 0.4977(3) -0.28844(13)
N1B N 0.60307(15) 0.5293(2) 0.28160(10)
N2B N 0.80209(14) 0.7254(3) -0.00533(10)
C6B C 0.6174(2) 0.6701(3) 0.26616(14)
H2B H 0.5986 0.7452 0.2946
C7B C 0.6578(2) 0.7122(3) 0.21126(14)
H3B H 0.6667 0.8142 0.2025
C8B C 0.68562(18) 0.6048(3) 0.16860(13)
C9B C 0.6717(2) 0.4596(3) 0.18550(15)
H4B H 0.6906 0.3821 0.1583
C10B C 0.6309(2) 0.4260(3) 0.24138(14)
H5B H 0.6221 0.3248 0.2518
C11B C 0.72772(17) 0.6473(3) 0.10832(12)
C12B C 0.7154(2) 0.7855(4) 0.08093(15)
H6B H 0.6806 0.8549 0.1016
C13B C 0.7529(2) 0.8230(4) 0.02407(15)
H7B H 0.7440 0.9181 0.0055
C14B C 0.81773(18) 0.5939(4) 0.02070(13)
H8B H 0.8548 0.5283 0.0001
C15B C 0.78052(19) 0.5514(3) 0.07753(13)
H9B H 0.7912 0.4563 0.0954
C16B C 0.83262(18) 0.7631(4) -0.07110(12)
H10B H 0.8458 0.8700 -0.0732
H11B H 0.8834 0.7066 -0.0798
C17B C 0.76762(18) 0.7258(4) -0.12104(12)
C18B C 0.7239(2) 0.8355(4) -0.15125(17)
H12B H 0.7349 0.9357 -0.1403
C19B C 0.6638(3) 0.8039(5) -0.19761(19)
H13B H 0.6341 0.8821 -0.2180
C20B C 0.6471(2) 0.6596(5) -0.21405(14)
C21B C 0.6911(2) 0.5457(4) -0.18352(17)
H14B H 0.6800 0.4456 -0.1946
C22B C 0.7514(2) 0.5787(4) -0.13671(15)
H15B H 0.7811 0.5013 -0.1157
C23B C 0.5843(2) 0.6283(5) -0.26723(17)
Zn1_2 Zn 0.48395(2) 0.50961(3) -0.351533(15)
Zn1_3 Zn 0.48395(2) 1.50961(3) 0.648467(15)
Zn1B_2 Zn 0.51605(2) 0.49039(3) 1.351533(15)
Zn1B_3 Zn 0.51605(2) 1.49039(3) 0.351533(15)
O1B_2 O 0.47241(12) 0.31824(19) 0.60412(9)
O3B_2 O 0.52294(12) 0.35539(19) 0.42464(9)
O5_2 O 0.46172(19) 0.2738(4) 0.28838(14)
O5B_2 O 0.53828(19) 0.7262(4) 0.71162(14)
O6_2 O 0.41977(17) 0.5023(3) 0.28844(13)
O6B_2 O 0.58023(17) 0.4977(3) 0.71156(13)
loop_
_geom_bond_atom_site_label_1
_geom_bond_atom_site_label_2
_geom_bond_site_symmetry_1
_geom_bond_site_symmetry_2
Zn1 O3 1_555 1_555
O1 C1 1_555 1_555
O2 C1 1_555 1_555
O3 C5 1_555 1_555
O4 C5 1_555 1_555
O5 C23 1_555 1_555
O6 C23 1_555 1_555
N1 Zn1 1_555 1_555
N2 C13 1_555 1_555
C1 C2 1_555 1_555
C2 C3 1_555 1_555
C3 C4 1_555 1_555
C4 H1 1_555 1_555
C5 C3 1_555 1_555
C6 N1 1_555 1_555
H2 C6 1_555 1_555
C7 C6 1_555 1_555
H3 C7 1_555 1_555
C8 C7 1_555 1_555
C9 C8 1_555 1_555
H4 C9 1_555 1_555
C10 N1 1_555 1_555
H5 C10 1_555 1_555
C11 C8 1_555 1_555
C12 C11 1_555 1_555
H6 C12 1_555 1_555
C13 C12 1_555 1_555
H7 C13 1_555 1_555
C14 N2 1_555 1_555
H8 C14 1_555 1_555
C15 C11 1_555 1_555
H9 C15 1_555 1_555
C16 N2 1_555 1_555
H10 C16 1_555 1_555
H11 C16 1_555 1_555
C17 C16 1_555 1_555
C18 C17 1_555 1_555
H12 C18 1_555 1_555
C19 C18 1_555 1_555
H13 C19 1_555 1_555
C20 C19 1_555 1_555
C21 C20 1_555 1_555
H14 C21 1_555 1_555
C22 C17 1_555 1_555
H15 C22 1_555 1_555
C23 C20 1_555 1_555
O1B C1B 1_555 1_555
O2B C1B 1_555 1_555
O3B C5B 1_555 1_555
O4B C5B 1_555 1_555
C1B C2B 1_555 1_555
C2B C4 1_555 1_555
C3B C2B 1_555 1_555
C4B C2 1_555 1_555
H1B C4B 1_555 1_555
C5B C3B 1_555 1_555
Zn1B O1 1_555 1_555
O5B C23B 1_555 1_555
O6B C23B 1_555 1_555
N1B Zn1B 1_555 1_555
N2B C13B 1_555 1_555
C6B N1B 1_555 1_555
H2B C6B 1_555 1_555
C7B C6B 1_555 1_555
H3B C7B 1_555 1_555
C8B C7B 1_555 1_555
C9B C8B 1_555 1_555
H4B C9B 1_555 1_555
C10B N1B 1_555 1_555
H5B C10B 1_555 1_555
C11B C8B 1_555 1_555
C12B C11B 1_555 1_555
H6B C12B 1_555 1_555
C13B C12B 1_555 1_555
H7B C13B 1_555 1_555
C14B N2B 1_555 1_555
H8B C14B 1_555 1_555
C15B C11B 1_555 1_555
H9B C15B 1_555 1_555
C16B N2B 1_555 1_555
H10B C16B 1_555 1_555
H11B C16B 1_555 1_555
C17B C16B 1_555 1_555
C18B C17B 1_555 1_555
H12B C18B 1_555 1_555
C19B C18B 1_555 1_555
H13B C19B 1_555 1_555
C20B C19B 1_555 1_555
C21B C20B 1_555 1_555
H14B C21B 1_555 1_555
C22B C17B 1_555 1_555
H15B C22B 1_555 1_555
C23B C20B 1_555 1_555
Zn1_2 O5B 1_555 1_555
Zn1_3 O1B 1_555 1_555
Zn1B_2 O5 1_555 1_555
Zn1B_3 O3B 1_555 1_555
O1B_2 Zn1 1_555 1_555
O3B_2 Zn1B 1_555 1_555
O5_2 Zn1B 1_555 1_555
O5B_2 Zn1 1_555 1_555
O6_2 Zn1B 1_555 1_555
O6B_2 Zn1 1_555 1_555
O6 Zn1B_2 1_555 1_555
C9 C10 1_555 1_555
C14 C15 1_555 1_555
C21 C22 1_555 1_555
C3B C4B 1_555 1_555
O6B Zn1_2 1_555 1_555
C9B C10B 1_555 1_555
C14B C15B 1_555 1_555
C21B C22B 1_555 1_555

#END
