
#######################################################################
#
#                 Cambridge Crystallographic Data Centre
#                                CCDC 
#
#######################################################################
#
# If this CIF has been generated from an entry in the Cambridge 
# Structural Database, then it will include bibliographic, chemical, 
# crystal, experimental, refinement or atomic coordinate data resulting 
# from the CCDC's data processing and validation procedures.
#
#######################################################################

data_ROHKOQ
_symmetry_cell_setting           triclinic
_symmetry_space_group_name_H-M   'P -1'
_symmetry_Int_Tables_number      2
_space_group_name_Hall           '-P 1'
loop_
_symmetry_equiv_pos_site_id
_symmetry_equiv_pos_as_xyz
1 x,y,z
2 -x,-y,-z
_cell_length_a                   9.890(12)
_cell_length_b                   13.104(15)
_cell_length_c                   13.187(15)
_cell_angle_alpha                66.53(2)
_cell_angle_beta                 78.79(2)
_cell_angle_gamma                89.02(2)
_cell_volume                     1534.26
loop_
_atom_site_label
_atom_site_type_symbol
_atom_site_fract_x
_atom_site_fract_y
_atom_site_fract_z
Ag2 Ag -0.10740(4) 0.72045(3) 0.51477(3)
N3 N 0.0466(4) 0.6494(3) 0.4290(3)
C8 C 0.7101(5) 0.7800(4) -0.2968(4)
H8 H 0.7863 0.7858 -0.2673
N4 N 0.1348(3) 0.5650(3) 0.3197(3)
C9 C 0.0303(4) 0.6203(4) 0.3469(3)
H9 H -0.0454 0.6366 0.3122
C10 C 0.3000(5) 0.7739(4) -0.0404(3)
H10 H 0.2692 0.8399 -0.0878
C11 C 0.2104(4) 0.7002(4) 0.0527(3)
H11 H 0.1191 0.7173 0.0682
N5 N 0.5817(4) 0.7983(3) -0.2567(3)
C12 C 0.1695(4) 0.6097(4) 0.4554(4)
H12 H 0.2087 0.6173 0.5108
C13 C 0.2536(4) 0.6007(3) 0.1242(3)
C14 C 0.2251(4) 0.5577(4) 0.3887(4)
H13 H 0.3084 0.5236 0.3893
C15 C 0.3888(4) 0.5759(4) 0.0997(4)
H14 H 0.4188 0.5090 0.1460
C16 C 0.4378(5) 0.7493(4) -0.0637(4)
C17 C 0.5818(5) 0.7526(5) -0.3993(4)
H15 H 0.5528 0.7362 -0.4545
C18 C 0.4793(4) 0.6493(4) 0.0075(4)
H16 H 0.5704 0.6316 -0.0076
C19 C 0.4998(5) 0.7804(5) -0.3216(4)
H17 H 0.4048 0.7864 -0.3134
C20 C 0.1546(5) 0.5249(4) 0.2285(4)
H18 H 0.0661 0.5189 0.2094
H19 H 0.1891 0.4511 0.2553
C21 C 0.5389(6) 0.8333(5) -0.1608(4)
H20 H 0.4971 0.9042 -0.1877
H21 H 0.6202 0.8440 -0.1343
N6 N 0.7154(4) 0.7524(3) -0.3841(3)
Ag2_2 Ag 0.89260(4) 0.72045(3) -0.48523(3)
N6_2 N -0.2846(4) 0.7524(3) 0.6159(3)
O1 O 0.4357(3) 0.5009(3) 0.5902(3)
H22 H 0.4761 0.4917 0.5342
O2 O 0.0573(3) 0.1341(2) 1.0314(3)
O3 O 0.0463(4) 0.2150(3) 1.1529(3)
C22 C 0.2220(4) 0.3183(3) 0.8577(3)
H23 H 0.2221 0.2520 0.8476
C23 C 0.0795(4) 0.2147(4) 1.0560(3)
O4 O 0.3747(4) 0.3213(3) 0.6488(3)
C24 C 0.1524(4) 0.3197(3) 0.9604(3)
C25 C 0.2908(4) 0.4139(3) 0.7707(3)
C26 C 0.2857(4) 0.5133(4) 0.7851(4)
H24 H 0.3300 0.5783 0.7272
C27 C 0.1500(4) 0.4210(4) 0.9730(4)
H25 H 0.1047 0.4238 1.0405
C28 C 0.2145(5) 0.5162(4) 0.8856(4)
H26 H 0.2106 0.5835 0.8938
C29 C 0.3713(4) 0.4098(4) 0.6621(4)
O5 O 0.9820(4) 0.9118(3) 0.1443(3)
H27 H 0.9932 0.9791 0.1226
H28 H 0.9781 0.9023 0.0884
O6 O 0.0618(5) 0.7163(4) 0.6661(4)
H29 H 0.1406 0.7406 0.6572
H30 H 0.0565 0.7162 0.7287
O7 O 0.7725(6) 0.8621(5) 0.3230(4)
H31 H 0.729(6) 0.803(4) 0.336(5)
H32 H 0.832(5) 0.879(5) 0.264(3)
O8 O 0.1787(5) 0.9217(4) 0.6841(4)
H33 H 0.1920 0.9840 0.6820
H34 H 0.1145 0.8827 0.7308
Ag1 Ag 0.0000 1.0000 0.5000
C1 C 0.1684(5) 0.9196(4) 0.3234(4)
H1 H 0.0940 0.9279 0.2877
C2 C 0.5538(5) 0.9188(4) 0.0826(4)
H2 H 0.5914 0.8642 0.1380
N1 N 0.1683(4) 0.9462(3) 0.4108(3)
N2 N 0.2847(4) 0.8805(3) 0.2934(3)
C3 C 0.6393(4) 0.9938(4) -0.0131(4)
H3 H 0.7345 0.9890 -0.0215
C4 C 0.4130(4) 0.9245(3) 0.0962(3)
C5 C 0.2955(5) 0.9206(5) 0.4365(4)
H4 H 0.3274 0.9305 0.4940
C6 C 0.3183(6) 0.8415(4) 0.2012(4)
H5 H 0.2332 0.8273 0.1814
H6 H 0.3622 0.7716 0.2280
C7 C 0.3680(5) 0.8785(5) 0.3650(4)
H7 H 0.4565 0.8533 0.3651
C1A C 0.8316(5) 1.0804(4) -0.3234(4)
H1A H 0.9060 1.0721 -0.2877
C2A C 0.4462(5) 1.0812(4) -0.0826(4)
H2A H 0.4086 1.1358 -0.1380
N1A N 0.8317(4) 1.0538(3) -0.4108(3)
N2A N 0.7153(4) 1.1195(3) -0.2934(3)
C3A C 0.3607(4) 1.0062(4) 0.0131(4)
H3A H 0.2655 1.0110 0.0215
C4A C 0.5870(4) 1.0755(3) -0.0962(3)
C5A C 0.7045(5) 1.0794(5) -0.4365(4)
H4A H 0.6726 1.0695 -0.4940
C6A C 0.6817(6) 1.1585(4) -0.2012(4)
H5A H 0.7668 1.1727 -0.1814
H6A H 0.6378 1.2284 -0.2280
C7A C 0.6320(5) 1.1215(5) -0.3650(4)
H7A H 0.5435 1.1467 -0.3651
Ag1_2 Ag 1.0000 1.0000 -0.5000
N1A_2 N -0.1683(4) 1.0538(3) 0.5892(3)
loop_
_geom_bond_atom_site_label_1
_geom_bond_atom_site_label_2
_geom_bond_site_symmetry_1
_geom_bond_site_symmetry_2
Ag1 N1 1_555 1_555
C1 H1 1_555 1_555
C2 H2 1_555 1_555
N1 C1 1_555 1_555
N2 C1 1_555 1_555
C3 C2 1_555 1_555
H3 C3 1_555 1_555
C4 C2 1_555 1_555
C5 N1 1_555 1_555
H4 C5 1_555 1_555
C6 N2 1_555 1_555
H5 C6 1_555 1_555
H6 C6 1_555 1_555
C7 N2 1_555 1_555
H7 C7 1_555 1_555
Ag2 N3 1_555 1_555
N3 C9 1_555 1_555
C8 H8 1_555 1_555
N4 C9 1_555 1_555
C9 H9 1_555 1_555
C10 H10 1_555 1_555
C11 C10 1_555 1_555
H11 C11 1_555 1_555
N5 C8 1_555 1_555
C12 N3 1_555 1_555
H12 C12 1_555 1_555
C13 C11 1_555 1_555
C14 N4 1_555 1_555
H13 C14 1_555 1_555
C15 C13 1_555 1_555
H14 C15 1_555 1_555
C16 C10 1_555 1_555
C17 H15 1_555 1_555
C18 C15 1_555 1_555
H16 C18 1_555 1_555
C19 N5 1_555 1_555
H17 C19 1_555 1_555
C20 N4 1_555 1_555
H18 C20 1_555 1_555
H19 C20 1_555 1_555
C21 N5 1_555 1_555
H20 C21 1_555 1_555
H21 C21 1_555 1_555
N6 C8 1_555 1_555
O1 H22 1_555 1_555
O2 C23 1_555 1_555
O3 C23 1_555 1_555
C22 H23 1_555 1_555
C23 C24 1_555 1_555
O4 C29 1_555 1_555
C24 C22 1_555 1_555
C25 C22 1_555 1_555
C26 C25 1_555 1_555
H24 C26 1_555 1_555
C27 C24 1_555 1_555
H25 C27 1_555 1_555
C28 C26 1_555 1_555
H26 C28 1_555 1_555
C29 O1 1_555 1_555
O5 H27 1_555 1_555
H28 O5 1_555 1_555
O6 H29 1_555 1_555
H30 O6 1_555 1_555
O7 H31 1_555 1_555
H32 O7 1_555 1_555
O8 H33 1_555 1_555
H34 O8 1_555 1_555
C1A H1A 1_555 1_555
C2A H2A 1_555 1_555
N1A C1A 1_555 1_555
N2A C1A 1_555 1_555
C3A C4 1_555 1_555
H3A C3A 1_555 1_555
C4A C3 1_555 1_555
C5A N1A 1_555 1_555
H4A C5A 1_555 1_555
C6A N2A 1_555 1_555
H5A C6A 1_555 1_555
H6A C6A 1_555 1_555
C7A N2A 1_555 1_555
H7A C7A 1_555 1_555
Ag1_2 N1A 1_555 1_555
N1A_2 Ag1 1_555 1_555
Ag2_2 N6 1_555 1_555
N6_2 Ag2 1_555 1_555
C4 C6 1_555 1_555
C5 C7 1_555 1_555
C12 C14 1_555 1_555
C13 C20 1_555 1_555
C16 C18 1_555 1_555
C16 C21 1_555 1_555
C17 C19 1_555 1_555
C17 N6 1_555 1_555
C25 C29 1_555 1_555
C27 C28 1_555 1_555
C2A C3A 1_555 1_555
C2A C4A 1_555 1_555
C4A C6A 1_555 1_555
C5A C7A 1_555 1_555

#END
