
#######################################################################
#
#                 Cambridge Crystallographic Data Centre
#                                CCDC 
#
#######################################################################
#
# If this CIF has been generated from an entry in the Cambridge 
# Structural Database, then it will include bibliographic, chemical, 
# crystal, experimental, refinement or atomic coordinate data resulting 
# from the CCDC's data processing and validation procedures.
#
#######################################################################

data_ROHSUE
_symmetry_cell_setting           triclinic
_symmetry_space_group_name_H-M   'P -1'
_symmetry_Int_Tables_number      2
_space_group_name_Hall           '-P 1'
loop_
_symmetry_equiv_pos_site_id
_symmetry_equiv_pos_as_xyz
1 x,y,z
2 -x,-y,-z
_cell_length_a                   7.6203(15)
_cell_length_b                   9.5842(19)
_cell_length_c                   29.273(6)
_cell_angle_alpha                94.51(3)
_cell_angle_beta                 95.76(3)
_cell_angle_gamma                98.84(3)
_cell_volume                     2092.24
loop_
_atom_site_label
_atom_site_type_symbol
_atom_site_fract_x
_atom_site_fract_y
_atom_site_fract_z
Co1 Co 0.24665(19) 0.97974(17) 0.21385(5)
Cu1 Cu 0.6827(2) 0.9722(2) 0.09977(5)
Cu2 Cu 0.76235(17) 0.97872(15) 0.32526(4)
Cu3 Cu 0.37490(19) 1.42890(16) 0.31092(5)
O1 O 0.6653(14) 1.1460(11) 0.0734(3)
O2 O 0.7535(9) 0.8044(8) 0.3543(2)
O3 O 0.4738(13) 1.2980(10) 0.3479(3)
O4 O 0.6394(11) 1.5570(10) 0.2941(3)
H1 H 0.6599 1.6396 0.3084
H2 H 0.6396 1.5634 0.2653
N1 N 0.5306(14) 1.0172(14) 0.1480(4)
N2 N -0.0446(13) 0.9406(12) 0.2783(3)
N3 N 0.3480(14) 1.2866(11) 0.2585(3)
N4 N 0.164(2) 0.6659(15) 0.1773(4)
N5 N 0.5296(13) 0.9103(11) 0.2853(3)
N6 N -0.0349(14) 1.0468(13) 0.1412(3)
N7 N 0.6893(19) 0.7775(15) 0.1213(5)
H3 H 0.7353 0.7858 0.1537
H4 H 0.5699 0.7225 0.1175
N8 N 0.7446(14) 0.8805(13) 0.0432(3)
N9 N 0.9081(13) 1.0886(11) 0.3792(3)
N10 N 0.7559(14) 1.1730(11) 0.3039(3)
H5 H 0.7588 1.1697 0.2708
H6 H 0.6473 1.2065 0.3113
N11 N 0.3448(13) 1.5485(10) 0.3667(3)
N12 N 0.2288(17) 1.5584(13) 0.2773(4)
H7 H 0.3029 1.6173 0.2589
H8 H 0.1302 1.5024 0.2570
C1 C 0.4266(16) 1.0070(15) 0.1735(4)
C2 C 0.0636(15) 0.9545(11) 0.2537(4)
C3 C 0.3102(15) 1.1720(17) 0.2400(4)
C4 C 0.1943(18) 0.7867(19) 0.1911(4)
C5 C 0.4162(15) 0.9329(12) 0.2587(4)
C6 C 0.0762(15) 1.0228(13) 0.1685(4)
C7 C 0.806(3) 0.7077(18) 0.0935(6)
H9 H 0.7868 0.6067 0.0967
H10 H 0.9301 0.7455 0.1041
C8 C 0.766(2) 0.7320(17) 0.0442(5)
H11 H 0.8637 0.7125 0.0270
H12 H 0.6577 0.6704 0.0305
C9 C 0.7584(17) 0.9390(19) 0.0056(4)
H13 H 0.7785 0.8814 -0.0198
C10 C 0.7460(18) 1.0847(18) -0.0017(4)
C11 C 0.768(2) 1.134(2) -0.0458(5)
H14 H 0.7903 1.0691 -0.0690
C12 C 0.759(2) 1.267(3) -0.0563(5)
H15 H 0.7734 1.2953 -0.0855
C13 C 0.726(3) 1.360(2) -0.0207(6)
H16 H 0.7249 1.4541 -0.0258
C14 C 0.695(2) 1.3175(19) 0.0213(5)
H17 H 0.6682 1.3836 0.0434
C15 C 0.7016(16) 1.1806(16) 0.0329(4)
C16 C 0.8482(14) 0.7785(14) 0.3931(3)
C17 C 0.8329(15) 0.6389(12) 0.4051(4)
H18 H 0.7565 0.5659 0.3870
C18 C 0.9353(17) 0.6113(15) 0.4450(4)
H19 H 0.9257 0.5185 0.4530
C19 C 1.0500(17) 0.7173(17) 0.4730(4)
H20 H 1.1173 0.6967 0.4992
C20 C 1.0613(17) 0.8552(14) 0.4609(4)
H21 H 1.1356 0.9271 0.4801
C21 C 0.9679(13) 0.8911(12) 0.4219(3)
C22 C 0.9833(16) 1.0343(13) 0.4136(4)
H22 H 1.0568 1.0983 0.4357
C23 C 0.9291(17) 1.2441(15) 0.3773(5)
H23 H 0.8362 1.2822 0.3922
H24 H 1.0444 1.2896 0.3929
C24 C 0.9155(17) 1.2694(16) 0.3282(5)
H25 H 1.0224 1.2506 0.3151
H26 H 0.9032 1.3675 0.3248
C25 C 0.4507(15) 1.2822(14) 0.3914(4)
C26 C 0.4833(19) 1.1519(15) 0.4082(5)
H27 H 0.5151 1.0821 0.3882
C27 C 0.4688(19) 1.1274(19) 0.4529(5)
H28 H 0.4948 1.0429 0.4634
C28 C 0.416(2) 1.2269(19) 0.4829(5)
H29 H 0.4034 1.2084 0.5132
C29 C 0.3835(19) 1.3475(18) 0.4687(4)
H30 H 0.3485 1.4135 0.4894
C30 C 0.3999(15) 1.3823(15) 0.4217(4)
C31 C 0.3531(15) 1.5103(14) 0.4075(4)
H31 H 0.3254 1.5736 0.4304
C32 C 0.2867(19) 1.6801(15) 0.3547(5)
H32 H 0.2316 1.7208 0.3799
H33 H 0.3887 1.7479 0.3491
C33 C 0.1588(19) 1.6497(15) 0.3135(5)
H34 H 0.1380 1.7378 0.3014
H35 H 0.0460 1.6009 0.3212
Cu1_2 Cu -0.3173(2) 0.9722(2) 0.09977(5)
Cu2_2 Cu -0.23765(17) 0.97872(15) 0.32526(4)
N2_2 N 0.9554(13) 0.9406(12) 0.2783(3)
N6_2 N 0.9651(14) 1.0468(13) 0.1412(3)
O5 O 0.353(6) 1.446(6) 0.1238(10)
C34 C 0.166(9) 1.360(5) 0.115(2)
O6 O 0.646(5) 1.370(2) 0.1409(7)
O7 O 0.741(5) 1.586(4) 0.2173(15)
O8 O -0.102(3) 1.301(2) 0.2188(5)
loop_
_geom_bond_atom_site_label_1
_geom_bond_atom_site_label_2
_geom_bond_site_symmetry_1
_geom_bond_site_symmetry_2
Co1 C1 1_555 1_555
Cu1 O1 1_555 1_555
Cu2 O2 1_555 1_555
Cu3 O3 1_555 1_555
O1 C15 1_555 1_555
O2 C16 1_555 1_555
O3 C25 1_555 1_555
O4 Cu3 1_555 1_555
H1 O4 1_555 1_555
H2 O4 1_555 1_555
N1 Cu1 1_555 1_555
N2 C2 1_555 1_555
N3 Cu3 1_555 1_555
N4 C4 1_555 1_555
N5 Cu2 1_555 1_555
N6 C6 1_555 1_555
N7 Cu1 1_555 1_555
H3 N7 1_555 1_555
H4 N7 1_555 1_555
N8 Cu1 1_555 1_555
N9 Cu2 1_555 1_555
N10 Cu2 1_555 1_555
H5 N10 1_555 1_555
H6 N10 1_555 1_555
N11 Cu3 1_555 1_555
N12 Cu3 1_555 1_555
H7 N12 1_555 1_555
H8 N12 1_555 1_555
C1 N1 1_555 1_555
C2 Co1 1_555 1_555
C3 Co1 1_555 1_555
C4 Co1 1_555 1_555
C5 Co1 1_555 1_555
C6 Co1 1_555 1_555
C7 N7 1_555 1_555
H9 C7 1_555 1_555
H10 C7 1_555 1_555
C8 N8 1_555 1_555
H11 C8 1_555 1_555
H12 C8 1_555 1_555
C9 N8 1_555 1_555
H13 C9 1_555 1_555
C10 C9 1_555 1_555
C11 C10 1_555 1_555
H14 C11 1_555 1_555
C12 C11 1_555 1_555
H15 C12 1_555 1_555
C13 C12 1_555 1_555
H16 C13 1_555 1_555
C14 C13 1_555 1_555
H17 C14 1_555 1_555
C15 C10 1_555 1_555
C16 C17 1_555 1_555
C17 H18 1_555 1_555
C18 C17 1_555 1_555
H19 C18 1_555 1_555
C19 C18 1_555 1_555
H20 C19 1_555 1_555
C20 C19 1_555 1_555
H21 C20 1_555 1_555
C21 C16 1_555 1_555
C22 N9 1_555 1_555
H22 C22 1_555 1_555
C23 N9 1_555 1_555
H23 C23 1_555 1_555
H24 C23 1_555 1_555
C24 N10 1_555 1_555
H25 C24 1_555 1_555
H26 C24 1_555 1_555
C25 C26 1_555 1_555
C26 H27 1_555 1_555
C27 C26 1_555 1_555
H28 C27 1_555 1_555
C28 C27 1_555 1_555
H29 C28 1_555 1_555
C29 C28 1_555 1_555
H30 C29 1_555 1_555
C30 C25 1_555 1_555
C31 N11 1_555 1_555
H31 C31 1_555 1_555
C32 N11 1_555 1_555
H32 C32 1_555 1_555
H33 C32 1_555 1_555
C33 N12 1_555 1_555
H34 C33 1_555 1_555
H35 C33 1_555 1_555
O5 C34 1_555 1_555
Cu1_2 N6 1_555 1_555
Cu2_2 N2 1_555 1_555
N2_2 Cu2 1_555 1_555
N6_2 Cu1 1_555 1_555
N3 C3 1_555 1_555
N5 C5 1_555 1_555
C7 C8 1_555 1_555
C14 C15 1_555 1_555
C20 C21 1_555 1_555
C21 C22 1_555 1_555
C23 C24 1_555 1_555
C29 C30 1_555 1_555
C30 C31 1_555 1_555
C32 C33 1_555 1_555

#END
