
#######################################################################
#
#                 Cambridge Crystallographic Data Centre
#                                CCDC 
#
#######################################################################
#
# If this CIF has been generated from an entry in the Cambridge 
# Structural Database, then it will include bibliographic, chemical, 
# crystal, experimental, refinement or atomic coordinate data resulting 
# from the CCDC's data processing and validation procedures.
#
#######################################################################

data_ROHSIS
_symmetry_cell_setting           triclinic
_symmetry_space_group_name_H-M   'P -1'
_symmetry_Int_Tables_number      2
_space_group_name_Hall           '-P 1'
loop_
_symmetry_equiv_pos_site_id
_symmetry_equiv_pos_as_xyz
1 x,y,z
2 -x,-y,-z
_cell_length_a                   10.242(2)
_cell_length_b                   12.286(2)
_cell_length_c                   13.419(2)
_cell_angle_alpha                63.31(3)
_cell_angle_beta                 88.35(3)
_cell_angle_gamma                74.48(3)
_cell_volume                     1445.42
loop_
_atom_site_label
_atom_site_type_symbol
_atom_site_fract_x
_atom_site_fract_y
_atom_site_fract_z
Co1 Co 0.88258(4) 0.22848(4) 0.25198(4)
N1 N 0.9235(3) 0.0311(3) 0.2984(2)
N2 N 1.0003(3) -0.1772(3) 0.3850(2)
N3 N 1.1674(3) -0.3684(3) 0.4085(3)
N4 N 1.1156(3) -0.4232(3) 0.3563(3)
N5 N 1.2115(4) -0.4667(3) 0.3065(3)
N6 N 0.8380(3) 0.4279(3) 0.2020(2)
N7 N 0.7493(3) 0.6337(3) 0.1027(2)
N8 N 0.5696(3) 0.8172(3) 0.0827(3)
N9 N 0.6241(4) 0.8678(3) 0.1376(3)
N10 N 0.5249(4) 0.9247(3) 0.1761(3)
O1 O 0.7604(2) 0.1946(2) 0.39583(19)
O2 O 0.6696(2) 0.2487(2) 0.22822(19)
O3 O 0.0712(2) 0.1947(2) 0.3245(2)
O4 O 0.1794(2) 0.2705(2) 0.17275(19)
O5 O 0.9465(2) 0.2631(2) 0.09042(19)
H1 H 1.0153 0.2800 0.1075
H2 H 0.9023 0.3356 0.0392
C1 C 1.0137(3) -0.0667(3) 0.3757(3)
H3 H 1.0786 -0.0608 0.4187
C2 C 0.8480(3) -0.0198(3) 0.2565(3)
H4 H 0.7757 0.0274 0.2002
C3 C 0.8941(3) -0.1475(3) 0.3088(3)
H5 H 0.8607 -0.2039 0.2960
C4 C 1.0793(4) -0.3051(3) 0.4643(3)
H6 H 1.1340 -0.3004 0.5193
H7 H 1.0176 -0.3543 0.5037
C5 C 1.3280(4) -0.4397(3) 0.3252(3)
C6 C 1.4583(4) -0.4689(4) 0.2931(3)
H8 H 1.4790 -0.5128 0.2508
C7 C 1.5538(4) -0.4300(4) 0.3266(3)
H9 H 1.6420 -0.4487 0.3073
C8 C 1.5229(4) -0.3628(4) 0.3892(3)
H10 H 1.5906 -0.3360 0.4085
C9 C 1.3967(4) -0.3353(3) 0.4228(3)
H11 H 1.3770 -0.2919 0.4657
C10 C 1.2994(4) -0.3754(3) 0.3897(3)
C11 C 0.7378(4) 0.5176(3) 0.1278(3)
H12 H 0.6627 0.5182 0.0899
C12 C 0.9164(4) 0.4898(4) 0.2252(3)
H13 H 0.9951 0.4503 0.2753
C13 C 0.8630(4) 0.6160(4) 0.1650(4)
H14 H 0.8969 0.6788 0.1656
C14 C 0.6555(5) 0.7550(4) 0.0251(3)
H15 H 0.7074 0.8102 -0.0232
H16 H 0.5987 0.7408 -0.0219
C15 C 0.4324(4) 0.8434(3) 0.0851(3)
C16 C 0.4053(5) 0.9112(4) 0.1460(3)
C17 C 0.2684(6) 0.9565(4) 0.1657(4)
H17 H 0.2475 1.0016 0.2069
C18 C 0.1707(6) 0.9306(6) 0.1215(5)
H18 H 0.0802 0.9610 0.1311
C19 C 0.1998(6) 0.8608(6) 0.0626(5)
H19 H 0.1289 0.8437 0.0358
C20 C 0.3305(5) 0.8157(4) 0.0425(4)
H20 H 0.3498 0.7691 0.0025
C21 C 0.6606(3) 0.2130(3) 0.3320(3)
C22 C 0.1738(3) 0.2230(3) 0.2763(3)
C23 C 0.5298(3) 0.1910(3) 0.3783(3)
C24 C 0.4162(3) 0.2185(3) 0.3080(3)
H21 H 0.4205 0.2518 0.2310
C25 C 0.2962(3) 0.1965(3) 0.3522(3)
C26 C 0.2906(3) 0.1481(3) 0.4667(3)
H22 H 0.2100 0.1342 0.4963
C27 C 0.4033(3) 0.1199(3) 0.5379(3)
H23 H 0.3982 0.0880 0.6147
C28 C 0.5235(3) 0.1397(3) 0.4936(3)
H24 H 0.6004 0.1187 0.5412
Co1_2 Co -0.11742(4) 0.22848(4) 0.25198(4)
O3_2 O 1.0712(2) 0.1947(2) 0.3245(2)
O6 O 1.2121(3) -0.4801(3) 0.0912(2)
H25 H 1.1915 -0.5492 0.1121
H26 H 1.2008 -0.4786 0.1537
O7 O 0.5148(13) 0.4250(10) 0.0354(8)
H27 H 0.4449 0.4367 0.0691
H28 H 0.5653 0.3735 0.0964
loop_
_geom_bond_atom_site_label_1
_geom_bond_atom_site_label_2
_geom_bond_site_symmetry_1
_geom_bond_site_symmetry_2
Co1 N1 1_555 1_555
N1 C1 1_555 1_555
N2 C1 1_555 1_555
N3 N4 1_555 1_555
N4 N5 1_555 1_555
N5 C5 1_555 1_555
N6 Co1 1_555 1_555
N7 C11 1_555 1_555
N8 N9 1_555 1_555
N9 N10 1_555 1_555
N10 C16 1_555 1_555
O1 Co1 1_555 1_555
O2 Co1 1_555 1_555
O3 C22 1_555 1_555
O4 C22 1_555 1_555
O5 Co1 1_555 1_555
H1 O5 1_555 1_555
H2 O5 1_555 1_555
C1 H3 1_555 1_555
C2 N1 1_555 1_555
H4 C2 1_555 1_555
C3 N2 1_555 1_555
H5 C3 1_555 1_555
C4 N2 1_555 1_555
H6 C4 1_555 1_555
H7 C4 1_555 1_555
C5 C6 1_555 1_555
C6 H8 1_555 1_555
C7 C6 1_555 1_555
H9 C7 1_555 1_555
C8 C7 1_555 1_555
H10 C8 1_555 1_555
C9 C8 1_555 1_555
H11 C9 1_555 1_555
C10 N3 1_555 1_555
C11 N6 1_555 1_555
H12 C11 1_555 1_555
C12 N6 1_555 1_555
H13 C12 1_555 1_555
C13 N7 1_555 1_555
H14 C13 1_555 1_555
C14 N7 1_555 1_555
H15 C14 1_555 1_555
H16 C14 1_555 1_555
C15 N8 1_555 1_555
C16 C15 1_555 1_555
C17 C16 1_555 1_555
H17 C17 1_555 1_555
C18 C17 1_555 1_555
H18 C18 1_555 1_555
C19 C18 1_555 1_555
H19 C19 1_555 1_555
C20 C15 1_555 1_555
H20 C20 1_555 1_555
C21 O1 1_555 1_555
C22 C25 1_555 1_555
C23 C21 1_555 1_555
C24 C23 1_555 1_555
H21 C24 1_555 1_555
C25 C24 1_555 1_555
C26 C25 1_555 1_555
H22 C26 1_555 1_555
C27 C26 1_555 1_555
H23 C27 1_555 1_555
C28 C23 1_555 1_555
H24 C28 1_555 1_555
O6 H25 1_555 1_555
H26 O6 1_555 1_555
O7 H27 1_555 1_555
H28 O7 1_555 1_555
Co1_2 O3 1_555 1_555
O3_2 Co1 1_555 1_555
N3 C4 1_555 1_555
N8 C14 1_555 1_555
O2 C21 1_555 1_555
C2 C3 1_555 1_555
C5 C10 1_555 1_555
C9 C10 1_555 1_555
C12 C13 1_555 1_555
C19 C20 1_555 1_555
C27 C28 1_555 1_555

#END
