
#######################################################################
#
#                 Cambridge Crystallographic Data Centre
#                                CCDC 
#
#######################################################################
#
# If this CIF has been generated from an entry in the Cambridge 
# Structural Database, then it will include bibliographic, chemical, 
# crystal, experimental, refinement or atomic coordinate data resulting 
# from the CCDC's data processing and validation procedures.
#
#######################################################################

data_ROHSOY
_symmetry_cell_setting           triclinic
_symmetry_space_group_name_H-M   'P -1'
_symmetry_Int_Tables_number      2
_space_group_name_Hall           '-P 1'
loop_
_symmetry_equiv_pos_site_id
_symmetry_equiv_pos_as_xyz
1 x,y,z
2 -x,-y,-z
_cell_length_a                   7.7160(15)
_cell_length_b                   9.5730(19)
_cell_length_c                   17.093(3)
_cell_angle_alpha                84.68(3)
_cell_angle_beta                 83.10(3)
_cell_angle_gamma                82.12(3)
_cell_volume                     1237.86
loop_
_atom_site_label
_atom_site_type_symbol
_atom_site_fract_x
_atom_site_fract_y
_atom_site_fract_z
Cu1 Cu 0.41809(5) 0.00691(4) 0.20342(2)
Cu2 Cu 0.04444(5) -0.45023(4) 0.18027(2)
Cr1 Cr 0.0000 0.0000 0.0000
O1 O 0.3877(3) 0.1847(2) 0.25290(13)
N1 N -0.0335(4) -0.5618(3) 0.27665(18)
N2 N 0.4283(4) -0.1910(3) 0.16805(17)
H1 H 0.3154 -0.2256 0.1819
H2 H 0.4572 -0.1904 0.1112
O2 O 0.1072(4) -0.3104(3) 0.24269(16)
N3 N 0.2268(4) 0.0730(3) 0.13260(18)
C1 C 0.0386(4) -0.2036(4) 0.05113(19)
C2 C 0.1406(4) 0.0585(3) 0.08457(18)
N4 N 0.5181(4) -0.0968(3) 0.29577(18)
C3 C 0.5383(4) 0.1048(4) 0.36856(19)
C4 C -0.2309(4) 0.0304(4) 0.0746(2)
N5 N -0.3547(4) 0.0433(4) 0.1185(2)
C5 C 0.4481(4) 0.2111(4) 0.31820(18)
N6 N 0.0561(4) -0.3092(3) 0.08792(19)
C6 C -0.0326(5) -0.3860(4) 0.3696(2)
C7 C 0.4233(5) 0.3498(4) 0.3410(2)
H3 H 0.3625 0.4211 0.3103
N7 N -0.0615(5) -0.5904(4) 0.1254(2)
H4 H -0.1384 -0.5408 0.0881
H5 H 0.0309 -0.6508 0.0965
C8 C 0.5781(5) 0.2790(5) 0.4568(2)
H6 H 0.6222 0.3023 0.5015
C9 C -0.0742(5) -0.6999(4) 0.2593(3)
H7 H -0.1497 -0.7392 0.3029
H8 H 0.0332 -0.7650 0.2512
C10 C 0.4878(5) 0.3828(4) 0.4083(2)
H9 H 0.4707 0.4761 0.4215
C11 C -0.0625(5) -0.5215(4) 0.3465(2)
H10 H -0.1066 -0.5847 0.3861
C12 C 0.0483(5) -0.2872(4) 0.3154(2)
C13 C 0.5654(5) -0.0429(4) 0.3548(2)
H11 H 0.6220 -0.1047 0.3917
C14 C 0.5995(5) 0.1435(4) 0.4367(2)
H12 H 0.6569 0.0734 0.4693
C15 C -0.0904(5) -0.3504(5) 0.4469(2)
H13 H -0.1455 -0.4153 0.4818
C16 C 0.5405(6) -0.2522(4) 0.2931(3)
H14 H 0.4374 -0.2908 0.3198
H15 H 0.6423 -0.2947 0.3190
C17 C 0.5652(6) -0.2819(4) 0.2086(3)
H16 H 0.6810 -0.2625 0.1850
H17 H 0.5557 -0.3807 0.2038
C18 C -0.0689(6) -0.2241(6) 0.4728(3)
H18 H -0.1063 -0.2040 0.5248
C19 C 0.0651(6) -0.1554(5) 0.3427(3)
H19 H 0.1140 -0.0868 0.3082
C20 C -0.1644(6) -0.6780(5) 0.1869(3)
H20 H -0.2826 -0.6300 0.1984
H21 H -0.1729 -0.7686 0.1674
C21 C 0.0090(6) -0.1270(6) 0.4209(3)
H22 H 0.0247 -0.0408 0.4382
O3 O 0.3200(2) -0.5677(2) 0.15448(11)
H23 H 0.3528 -0.6596 0.1804
H24 H 0.3795 -0.5717 0.1104
Cu1A Cu -0.41809(5) -0.00691(4) -0.20342(2)
Cu2A Cu -0.04444(5) 0.45023(4) -0.18027(2)
O1A O -0.3877(3) -0.1847(2) -0.25290(13)
N1A N 0.0335(4) 0.5618(3) -0.27665(18)
N2A N -0.4283(4) 0.1910(3) -0.16805(17)
H1A H -0.3154 0.2256 -0.1819
H2A H -0.4572 0.1904 -0.1112
O2A O -0.1072(4) 0.3104(3) -0.24269(16)
N3A N -0.2268(4) -0.0730(3) -0.13260(18)
C1A C -0.0386(4) 0.2036(4) -0.05113(19)
C2A C -0.1406(4) -0.0585(3) -0.08457(18)
N4A N -0.5181(4) 0.0968(3) -0.29577(18)
C3A C -0.5383(4) -0.1048(4) -0.36856(19)
C4A C 0.2309(4) -0.0304(4) -0.0746(2)
N5A N 0.3547(4) -0.0433(4) -0.1185(2)
C5A C -0.4481(4) -0.2111(4) -0.31820(18)
N6A N -0.0561(4) 0.3092(3) -0.08792(19)
C6A C 0.0326(5) 0.3860(4) -0.3696(2)
C7A C -0.4233(5) -0.3498(4) -0.3410(2)
H3A H -0.3625 -0.4211 -0.3103
N7A N 0.0615(5) 0.5904(4) -0.1254(2)
H4A H 0.1384 0.5408 -0.0881
H5A H -0.0309 0.6508 -0.0965
C8A C -0.5781(5) -0.2790(5) -0.4568(2)
H6A H -0.6222 -0.3023 -0.5015
C9A C 0.0742(5) 0.6999(4) -0.2593(3)
H7A H 0.1497 0.7392 -0.3029
H8A H -0.0332 0.7650 -0.2512
C10A C -0.4878(5) -0.3828(4) -0.4083(2)
H9A H -0.4707 -0.4761 -0.4215
C11A C 0.0625(5) 0.5215(4) -0.3465(2)
H10A H 0.1066 0.5847 -0.3861
C12A C -0.0483(5) 0.2872(4) -0.3154(2)
C13A C -0.5654(5) 0.0429(4) -0.3548(2)
H11A H -0.6220 0.1047 -0.3917
C14A C -0.5995(5) -0.1435(4) -0.4367(2)
H12A H -0.6569 -0.0734 -0.4693
C15A C 0.0904(5) 0.3504(5) -0.4469(2)
H13A H 0.1455 0.4153 -0.4818
C16A C -0.5405(6) 0.2522(4) -0.2931(3)
H14A H -0.4374 0.2908 -0.3198
H15A H -0.6423 0.2947 -0.3190
C17A C -0.5652(6) 0.2819(4) -0.2086(3)
H16A H -0.6810 0.2625 -0.1850
H17A H -0.5557 0.3807 -0.2038
C18A C 0.0689(6) 0.2241(6) -0.4728(3)
H18A H 0.1063 0.2040 -0.5248
C19A C -0.0651(6) 0.1554(5) -0.3427(3)
H19A H -0.1140 0.0868 -0.3082
C20A C 0.1644(6) 0.6780(5) -0.1869(3)
H20A H 0.2826 0.6300 -0.1984
H21A H 0.1729 0.7686 -0.1674
C21A C -0.0090(6) 0.1270(6) -0.4209(3)
H22A H -0.0247 0.0408 -0.4382
O3A O -0.3200(2) 0.5677(2) -0.15448(11)
H23A H -0.3528 0.6596 -0.1804
H24A H -0.3795 0.5717 -0.1104
Cu1_2 Cu -0.58191(5) 0.00691(4) 0.20342(2)
Cu1A_2 Cu 0.58191(5) -0.00691(4) -0.20342(2)
N5_2 N 0.6453(4) 0.0433(4) 0.1185(2)
N5A_2 N -0.6453(4) -0.0433(4) -0.1185(2)
Cl1 Cl 0.3993(2) 0.4418(2) -0.03127(11)
Cl2? Cl 0.3538(2) 0.3658(2) -0.02902(11)
loop_
_geom_bond_atom_site_label_1
_geom_bond_atom_site_label_2
_geom_bond_site_symmetry_1
_geom_bond_site_symmetry_2
Cu1 O1 1_555 1_555
Cu2 N1 1_555 1_555
Cr1 C1 1_555 1_555
O1 C5 1_555 1_555
N1 C9 1_555 1_555
N2 Cu1 1_555 1_555
H1 N2 1_555 1_555
H2 N2 1_555 1_555
O2 Cu2 1_555 1_555
N3 Cu1 1_555 1_555
C1 N6 1_555 1_555
C2 Cr1 1_555 1_555
N4 Cu1 1_555 1_555
C3 C5 1_555 1_555
C4 Cr1 1_555 1_555
N5 C4 1_555 1_555
C5 C7 1_555 1_555
N6 Cu2 1_555 1_555
C6 C11 1_555 1_555
C7 H3 1_555 1_555
N7 Cu2 1_555 1_555
H4 N7 1_555 1_555
H5 N7 1_555 1_555
C8 H6 1_555 1_555
C9 H7 1_555 1_555
H8 C9 1_555 1_555
C10 C7 1_555 1_555
H9 C10 1_555 1_555
C11 N1 1_555 1_555
H10 C11 1_555 1_555
C12 O2 1_555 1_555
C13 N4 1_555 1_555
H11 C13 1_555 1_555
C14 C3 1_555 1_555
H12 C14 1_555 1_555
C15 C6 1_555 1_555
H13 C15 1_555 1_555
C16 N4 1_555 1_555
H14 C16 1_555 1_555
H15 C16 1_555 1_555
C17 N2 1_555 1_555
H16 C17 1_555 1_555
H17 C17 1_555 1_555
C18 C15 1_555 1_555
H18 C18 1_555 1_555
C19 C12 1_555 1_555
H19 C19 1_555 1_555
C20 N7 1_555 1_555
H20 C20 1_555 1_555
H21 C20 1_555 1_555
C21 C18 1_555 1_555
H22 C21 1_555 1_555
O3 Cu2 1_555 1_555
H23 O3 1_555 1_555
H24 O3 1_555 1_555
Cu1A O1A 1_555 1_555
Cu2A N1A 1_555 1_555
O1A C5A 1_555 1_555
N1A C9A 1_555 1_555
N2A Cu1A 1_555 1_555
H1A N2A 1_555 1_555
H2A N2A 1_555 1_555
O2A Cu2A 1_555 1_555
N3A Cu1A 1_555 1_555
C1A Cr1 1_555 1_555
C2A Cr1 1_555 1_555
N4A Cu1A 1_555 1_555
C3A C5A 1_555 1_555
C4A Cr1 1_555 1_555
N5A C4A 1_555 1_555
C5A C7A 1_555 1_555
N6A Cu2A 1_555 1_555
C6A C11A 1_555 1_555
C7A H3A 1_555 1_555
N7A Cu2A 1_555 1_555
H4A N7A 1_555 1_555
H5A N7A 1_555 1_555
C8A H6A 1_555 1_555
C9A H7A 1_555 1_555
H8A C9A 1_555 1_555
C10A C7A 1_555 1_555
H9A C10A 1_555 1_555
C11A N1A 1_555 1_555
H10A C11A 1_555 1_555
C12A O2A 1_555 1_555
C13A N4A 1_555 1_555
H11A C13A 1_555 1_555
C14A C3A 1_555 1_555
H12A C14A 1_555 1_555
C15A C6A 1_555 1_555
H13A C15A 1_555 1_555
C16A N4A 1_555 1_555
H14A C16A 1_555 1_555
H15A C16A 1_555 1_555
C17A N2A 1_555 1_555
H16A C17A 1_555 1_555
H17A C17A 1_555 1_555
C18A C15A 1_555 1_555
H18A C18A 1_555 1_555
C19A C12A 1_555 1_555
H19A C19A 1_555 1_555
C20A N7A 1_555 1_555
H20A C20A 1_555 1_555
H21A C20A 1_555 1_555
C21A C18A 1_555 1_555
H22A C21A 1_555 1_555
O3A Cu2A 1_555 1_555
H23A O3A 1_555 1_555
H24A O3A 1_555 1_555
Cu1_2 N5 1_555 1_555
Cu1A_2 N5A 1_555 1_555
N5_2 Cu1 1_555 1_555
N5A_2 Cu1A 1_555 1_555
N3 C2 1_555 1_555
C3 C13 1_555 1_555
C6 C12 1_555 1_555
C8 C10 1_555 1_555
C8 C14 1_555 1_555
C9 C20 1_555 1_555
C16 C17 1_555 1_555
C19 C21 1_555 1_555
N3A C2A 1_555 1_555
C1A N6A 1_555 1_555
C3A C13A 1_555 1_555
C6A C12A 1_555 1_555
C8A C10A 1_555 1_555
C8A C14A 1_555 1_555
C9A C20A 1_555 1_555
C16A C17A 1_555 1_555
C19A C21A 1_555 1_555

#END
