
#######################################################################
#
#                 Cambridge Crystallographic Data Centre
#                                CCDC 
#
#######################################################################
#
# If this CIF has been generated from an entry in the Cambridge 
# Structural Database, then it will include bibliographic, chemical, 
# crystal, experimental, refinement or atomic coordinate data resulting 
# from the CCDC's data processing and validation procedures.
#
#######################################################################

data_ROHVOB
_symmetry_cell_setting           monoclinic
_symmetry_space_group_name_H-M   'P 21/c'
_symmetry_Int_Tables_number      14
_space_group_name_Hall           '-P 2ybc'
loop_
_symmetry_equiv_pos_site_id
_symmetry_equiv_pos_as_xyz
1 x,y,z
2 -x,1/2+y,1/2-z
3 -x,-y,-z
4 x,1/2-y,1/2+z
_cell_length_a                   12.020(3)
_cell_length_b                   9.571(3)
_cell_length_c                   21.090(6)
_cell_angle_alpha                90
_cell_angle_beta                 92.244(4)
_cell_angle_gamma                90
_cell_volume                     2424.41
loop_
_atom_site_label
_atom_site_type_symbol
_atom_site_fract_x
_atom_site_fract_y
_atom_site_fract_z
Co1 Co 0.65382(5) 1.00584(6) 0.10138(3)
O1 O 0.5768(3) 0.8439(3) 0.06563(15)
N1 N 0.6481(3) 1.0349(4) 0.19759(18)
O2 O 0.5633(3) 0.1621(3) 0.06989(15)
O3 O 0.7081(3) 0.6903(3) 0.09593(16)
N2 N 1.0324(3) 1.3698(4) 0.44080(18)
O4 O 0.6665(3) 0.1763(4) -0.01562(18)
C1 C 0.6187(4) 0.7214(4) 0.0675(2)
N3 N 0.6641(4) 1.0069(4) 0.30280(19)
N4 N 1.1786(3) 1.4920(4) 0.41166(18)
C2 C 0.6305(4) 1.1643(5) 0.2270(2)
C3 C 0.5933(4) 0.4741(4) 0.0374(2)
H1 H 0.6570 0.4564 0.0626
C4 C 0.5392(4) 0.3622(4) 0.0066(2)
C5 C 0.9006(5) 0.8977(5) 0.3662(2)
H2 H 0.8869 0.8178 0.3420
C6 C 0.5555(4) 0.6101(4) 0.0316(2)
C7 C 0.9429(4) 1.1373(5) 0.4371(2)
C8 C 0.5938(4) 0.2198(5) 0.0190(2)
C9 C 0.9630(5) 1.2697(5) 0.4745(2)
H3 H 0.8920 1.3130 0.4828
H4 H 0.9994 1.2468 0.5151
C10 C 1.1388(4) 1.4098(5) 0.4556(2)
C11 C 0.6262(4) 1.2587(5) 0.3343(2)
H5 H 0.6311 1.2462 0.3780
C12 C 0.6089(4) 1.2953(5) 0.2009(2)
H6 H 0.6022 1.3078 0.1572
C13 C 0.5978(4) 1.4067(5) 0.2421(3)
H7 H 0.5857 1.4958 0.2258
C14 C 1.0321(5) 1.0570(6) 0.4162(2)
H8 H 1.1052 1.0845 0.4253
C15 C 1.0880(4) 1.5881(5) 0.3103(2)
H9 H 1.1471 1.6444 0.2990
C16 C 0.6937(4) 0.9442(5) 0.3647(2)
H10 H 0.6839 0.8437 0.3620
H11 H 0.6439 0.9795 0.3961
C17 C 0.6700(4) 0.9459(5) 0.2451(2)
C18 C 0.6404(4) 1.1470(5) 0.2927(2)
C19 C 0.8356(4) 1.0945(5) 0.4224(2)
H12 H 0.7765 1.1461 0.4373
C20 C 0.8131(4) 0.9765(5) 0.3859(2)
C21 C 1.0015(4) 1.4289(5) 0.3818(2)
C22 C 0.6047(4) 1.3871(5) 0.3081(3)
H13 H 0.5944 1.4633 0.3346
C23 C 1.0098(5) 0.9367(6) 0.3821(3)
H14 H 1.0683 0.8809 0.3695
C24 C 1.0945(4) 1.5080(4) 0.3652(2)
C25 C 0.9053(4) 1.4226(6) 0.3444(2)
H15 H 0.8451 1.3687 0.3561
C26 C 1.1961(5) 1.3702(5) 0.5164(2)
H16 H 1.2678 1.4145 0.5195
H17 H 1.2054 1.2706 0.5179
H18 H 1.1524 1.3999 0.5510
C27 C 0.6946(6) 0.7959(5) 0.2357(2)
H19 H 0.6355 0.7405 0.2519
H20 H 0.7634 0.7725 0.2578
H21 H 0.7009 0.7774 0.1912
C28 C 0.9915(5) 1.5818(6) 0.2730(3)
H22 H 0.9863 1.6342 0.2359
C29 C 0.9016(5) 1.4994(6) 0.2892(3)
H23 H 0.8384 1.4961 0.2624
O1B O 0.4232(3) 0.1561(3) -0.06563(15)
O3B O 0.2919(3) 0.3097(3) -0.09593(16)
C1B C 0.3813(4) 0.2786(4) -0.0675(2)
C3B C 0.4067(4) 0.5259(4) -0.0374(2)
H1B H 0.3430 0.5436 -0.0626
C4B C 0.4608(4) 0.6378(4) -0.0066(2)
C6B C 0.4445(4) 0.3899(4) -0.0316(2)
O2B O 0.4367(3) 0.8379(3) -0.06989(15)
O4B O 0.3335(3) 0.8237(4) 0.01562(18)
C8B C 0.4062(4) 0.7802(5) -0.0190(2)
Co1B Co 0.34618(5) -0.00584(6) -0.10138(3)
N1B N 0.3519(3) -0.0349(4) -0.19759(18)
N2B N -0.0324(3) -0.3698(4) -0.44080(18)
N3B N 0.3359(4) -0.0069(4) -0.30280(19)
N4B N -0.1786(3) -0.4920(4) -0.41166(18)
C2B C 0.3695(4) -0.1643(5) -0.2270(2)
C5B C 0.0994(5) 0.1023(5) -0.3662(2)
H2B H 0.1131 0.1822 -0.3420
C7B C 0.0571(4) -0.1373(5) -0.4371(2)
C9B C 0.0370(5) -0.2697(5) -0.4745(2)
H3B H 0.1080 -0.3130 -0.4828
H4B H 0.0006 -0.2468 -0.5151
C10B C -0.1388(4) -0.4098(5) -0.4556(2)
C11B C 0.3738(4) -0.2587(5) -0.3343(2)
H5B H 0.3689 -0.2462 -0.3780
C12B C 0.3911(4) -0.2953(5) -0.2009(2)
H6B H 0.3978 -0.3078 -0.1572
C13B C 0.4022(4) -0.4067(5) -0.2421(3)
H7B H 0.4143 -0.4958 -0.2258
C14B C -0.0321(5) -0.0570(6) -0.4162(2)
H8B H -0.1052 -0.0845 -0.4253
C15B C -0.0880(4) -0.5881(5) -0.3103(2)
H9B H -0.1471 -0.6444 -0.2990
C16B C 0.3063(4) 0.0558(5) -0.3647(2)
H10B H 0.3161 0.1563 -0.3620
H11B H 0.3561 0.0205 -0.3961
C17B C 0.3300(4) 0.0541(5) -0.2451(2)
C18B C 0.3596(4) -0.1470(5) -0.2927(2)
C19B C 0.1644(4) -0.0945(5) -0.4224(2)
H12B H 0.2235 -0.1461 -0.4373
C20B C 0.1869(4) 0.0235(5) -0.3859(2)
C21B C -0.0015(4) -0.4289(5) -0.3818(2)
C22B C 0.3953(4) -0.3871(5) -0.3081(3)
H13B H 0.4056 -0.4633 -0.3346
C23B C -0.0098(5) 0.0633(6) -0.3821(3)
H14B H -0.0683 0.1191 -0.3695
C24B C -0.0945(4) -0.5080(4) -0.3652(2)
C25B C 0.0947(4) -0.4226(6) -0.3444(2)
H15B H 0.1549 -0.3687 -0.3561
C26B C -0.1961(5) -0.3702(5) -0.5164(2)
H16B H -0.2678 -0.4145 -0.5195
H17B H -0.2054 -0.2706 -0.5179
H18B H -0.1524 -0.3999 -0.5510
C27B C 0.3054(6) 0.2041(5) -0.2357(2)
H19B H 0.3645 0.2595 -0.2519
H20B H 0.2366 0.2275 -0.2578
H21B H 0.2991 0.2226 -0.1912
C28B C 0.0085(5) -0.5818(6) -0.2730(3)
H22B H 0.0137 -0.6342 -0.2359
C29B C 0.0984(5) -0.4994(6) -0.2892(3)
H23B H 0.1616 -0.4961 -0.2624
Co1_2 Co 0.65382(5) 0.00584(6) 0.10138(3)
Co1A Co 1.34618(5) 1.50584(6) 0.39862(3)
Co1B_2 Co 0.34618(5) 0.99416(6) -0.10138(3)
Co1C Co -0.34618(5) -0.50584(6) -0.39862(3)
O2_2 O 0.5633(3) 1.1621(3) 0.06989(15)
O2B_2 O 0.4367(3) -0.1621(3) -0.06989(15)
N4A N 0.8214(3) 0.9920(4) 0.08834(18)
N4C N 0.1786(3) 0.0080(4) -0.08834(18)
loop_
_geom_bond_atom_site_label_1
_geom_bond_atom_site_label_2
_geom_bond_site_symmetry_1
_geom_bond_site_symmetry_2
Co1 O1 1_555 1_555
O1 C1 1_555 1_555
N1 Co1 1_555 1_555
O2 C8 1_555 1_555
O3 C1 1_555 1_555
N2 C9 1_555 1_555
O4 C8 1_555 1_555
C1 C6 1_555 1_555
N3 C16 1_555 1_555
N4 C10 1_555 1_555
C2 N1 1_555 1_555
C3 H1 1_555 1_555
C4 C3 1_555 1_555
C5 H2 1_555 1_555
C6 C3 1_555 1_555
C7 C9 1_555 1_555
C8 C4 1_555 1_555
C9 H3 1_555 1_555
H4 C9 1_555 1_555
C10 N2 1_555 1_555
C11 H5 1_555 1_555
C12 C2 1_555 1_555
H6 C12 1_555 1_555
C13 C12 1_555 1_555
H7 C13 1_555 1_555
C14 C7 1_555 1_555
H8 C14 1_555 1_555
C15 H9 1_555 1_555
C16 H10 1_555 1_555
H11 C16 1_555 1_555
C17 N1 1_555 1_555
C18 N3 1_555 1_555
C19 C7 1_555 1_555
H12 C19 1_555 1_555
C20 C5 1_555 1_555
C21 N2 1_555 1_555
C22 C11 1_555 1_555
H13 C22 1_555 1_555
C23 C5 1_555 1_555
H14 C23 1_555 1_555
C24 N4 1_555 1_555
C25 C21 1_555 1_555
H15 C25 1_555 1_555
C26 C10 1_555 1_555
H16 C26 1_555 1_555
H17 C26 1_555 1_555
H18 C26 1_555 1_555
C27 C17 1_555 1_555
H19 C27 1_555 1_555
H20 C27 1_555 1_555
H21 C27 1_555 1_555
C28 C15 1_555 1_555
H22 C28 1_555 1_555
C29 C25 1_555 1_555
H23 C29 1_555 1_555
O1B C1B 1_555 1_555
O3B C1B 1_555 1_555
C1B C6B 1_555 1_555
C3B H1B 1_555 1_555
C4B C6 1_555 1_555
C6B C4 1_555 1_555
O2B C8B 1_555 1_555
O4B C8B 1_555 1_555
C8B C4B 1_555 1_555
Co1B O1B 1_555 1_555
N1B Co1B 1_555 1_555
N2B C9B 1_555 1_555
N3B C16B 1_555 1_555
N4B C10B 1_555 1_555
C2B N1B 1_555 1_555
C5B H2B 1_555 1_555
C7B C9B 1_555 1_555
C9B H3B 1_555 1_555
H4B C9B 1_555 1_555
C10B N2B 1_555 1_555
C11B H5B 1_555 1_555
C12B C2B 1_555 1_555
H6B C12B 1_555 1_555
C13B C12B 1_555 1_555
H7B C13B 1_555 1_555
C14B C7B 1_555 1_555
H8B C14B 1_555 1_555
C15B H9B 1_555 1_555
C16B H10B 1_555 1_555
H11B C16B 1_555 1_555
C17B N1B 1_555 1_555
C18B N3B 1_555 1_555
C19B C7B 1_555 1_555
H12B C19B 1_555 1_555
C20B C5B 1_555 1_555
C21B N2B 1_555 1_555
C22B C11B 1_555 1_555
H13B C22B 1_555 1_555
C23B C5B 1_555 1_555
H14B C23B 1_555 1_555
C24B N4B 1_555 1_555
C25B C21B 1_555 1_555
H15B C25B 1_555 1_555
C26B C10B 1_555 1_555
H16B C26B 1_555 1_555
H17B C26B 1_555 1_555
H18B C26B 1_555 1_555
C27B C17B 1_555 1_555
H19B C27B 1_555 1_555
H20B C27B 1_555 1_555
H21B C27B 1_555 1_555
C28B C15B 1_555 1_555
H22B C28B 1_555 1_555
C29B C25B 1_555 1_555
H23B C29B 1_555 1_555
Co1_2 O2 1_555 1_555
Co1A N4 1_555 1_555
Co1B_2 O2B 1_555 1_555
Co1C N4B 1_555 1_555
O2_2 Co1 1_555 1_555
O2B_2 Co1B 1_555 1_555
N4A Co1 1_555 1_555
N4C Co1B 1_555 1_555
N3 C17 1_555 1_555
C2 C18 1_555 1_555
C11 C18 1_555 1_555
C13 C22 1_555 1_555
C14 C23 1_555 1_555
C15 C24 1_555 1_555
C16 C20 1_555 1_555
C19 C20 1_555 1_555
C21 C24 1_555 1_555
C28 C29 1_555 1_555
C3B C4B 1_555 1_555
C3B C6B 1_555 1_555
N3B C17B 1_555 1_555
C2B C18B 1_555 1_555
C11B C18B 1_555 1_555
C13B C22B 1_555 1_555
C14B C23B 1_555 1_555
C15B C24B 1_555 1_555
C16B C20B 1_555 1_555
C19B C20B 1_555 1_555
C21B C24B 1_555 1_555
C28B C29B 1_555 1_555

#END
