
#######################################################################
#
#                 Cambridge Crystallographic Data Centre
#                                CCDC 
#
#######################################################################
#
# If this CIF has been generated from an entry in the Cambridge 
# Structural Database, then it will include bibliographic, chemical, 
# crystal, experimental, refinement or atomic coordinate data resulting 
# from the CCDC's data processing and validation procedures.
#
#######################################################################

data_ROHVIV
_symmetry_cell_setting           orthorhombic
_symmetry_space_group_name_H-M   'P n n a'
_symmetry_Int_Tables_number      52
_space_group_name_Hall           '-P 2a 2bc'
loop_
_symmetry_equiv_pos_site_id
_symmetry_equiv_pos_as_xyz
1 x,y,z
2 1/2-x,-y,z
3 1/2-x,1/2+y,1/2-z
4 x,1/2-y,1/2-z
5 -x,-y,-z
6 1/2+x,y,-z
7 1/2+x,1/2-y,1/2+z
8 -x,1/2+y,1/2+z
_cell_length_a                   17.2366(18)
_cell_length_b                   12.5117(13)
_cell_length_c                   11.8458(13)
_cell_angle_alpha                90
_cell_angle_beta                 90
_cell_angle_gamma                90
_cell_volume                     2554.66
loop_
_atom_site_label
_atom_site_type_symbol
_atom_site_fract_x
_atom_site_fract_y
_atom_site_fract_z
Co1 Co 1.04680(3) 0.2500 0.2500
O1 O 1.08059(11) 0.16813(15) 0.39906(17)
C1 C 1.2500 0.0000 0.3538(3)
H1 H 1.2500 0.0000 0.2752
N1 N 0.96964(12) 0.14107(16) 0.17879(19)
C2 C 1.19369(14) 0.05751(18) 0.4123(2)
O2 O 1.14232(12) 0.13176(16) 0.24291(16)
C3 C 1.13552(14) 0.12184(19) 0.3472(2)
C4 C 0.89428(15) 0.0676(2) 0.0413(2)
N2 N 0.92906(13) -0.01261(17) 0.10388(19)
C5 C 0.91973(14) 0.1633(2) 0.0898(2)
C6 C 1.19361(16) 0.0565(2) 0.5290(3)
H2 H 1.1557 0.0938 0.5686
C7 C 0.87971(15) -0.18973(19) 0.1702(2)
C8 C 0.97318(17) 0.0352(2) 0.1830(2)
H3 H 1.0030 -0.0021 0.2352
C9 C 0.79962(16) -0.1902(2) 0.1708(2)
H4 H 0.7723 -0.1502 0.1178
C10 C 0.9250(2) -0.1287(2) 0.0822(3)
H5 H 0.9773 -0.1570 0.0789
H6 H 0.9011 -0.1402 0.0090
C11 C 0.9195(2) -0.2500 0.2500
H7 H 0.9734 -0.2500 0.2500
C12 C 0.84711(17) 0.0651(2) -0.0540(3)
H8 H 0.8304 0.0011 -0.0857
C13 C 1.2500 0.0000 0.5869(4)
H9 H 1.2500 0.0000 0.6654
C14 C 0.89806(16) 0.2607(2) 0.0424(3)
H10 H 0.9146 0.3251 0.0731
C15 C 0.85161(19) 0.2580(2) -0.0510(3)
H11 H 0.8363 0.3222 -0.0836
C16 C 0.82640(18) 0.1626(3) -0.0990(3)
H12 H 0.7949 0.1646 -0.1627
C17 C 0.7601(2) -0.2500 0.2500
H13 H 0.7061 -0.2500 0.2500
O1A O 1.41941(11) -0.16813(15) 0.39906(17)
C2A C 1.30631(14) -0.05751(18) 0.4123(2)
O2A O 1.35768(12) -0.13176(16) 0.24291(16)
C3A C 1.36448(14) -0.12184(19) 0.3472(2)
C6A C 1.30639(16) -0.0565(2) 0.5290(3)
H2A H 1.3443 -0.0938 0.5686
N1C N 0.96964(12) -0.64107(16) 0.32121(19)
C4C C 0.89428(15) -0.5676(2) 0.4587(2)
N2C N 0.92906(13) -0.48739(17) 0.39612(19)
C5C C 0.91973(14) -0.6633(2) 0.4102(2)
C7C C 0.87971(15) -0.31027(19) 0.3298(2)
C8C C 0.97318(17) -0.5352(2) 0.3170(2)
H3C H 1.0030 -0.4979 0.2648
C9C C 0.79962(16) -0.3098(2) 0.3292(2)
H4C H 0.7723 -0.3498 0.3822
C10C C 0.9250(2) -0.3713(2) 0.4178(3)
H5C H 0.9773 -0.3430 0.4211
H6C H 0.9011 -0.3598 0.4910
C12C C 0.84711(17) -0.5651(2) 0.5540(3)
H8C H 0.8304 -0.5011 0.5857
C14C C 0.89806(16) -0.7607(2) 0.4576(3)
H10C H 0.9146 -0.8251 0.4269
C15C C 0.85161(19) -0.7580(2) 0.5510(3)
H11C H 0.8363 -0.8222 0.5836
C16C C 0.82640(18) -0.6626(3) 0.5990(3)
H12C H 0.7949 -0.6646 0.6627
Co1_2 Co 1.04680(3) -0.7500 0.2500
Co1A Co 1.45320(3) -0.2500 0.2500
O1C O 1.08059(11) 0.33187(15) 0.10094(17)
N1C_2 N 0.96964(12) 0.35893(16) 0.32121(19)
O2C O 1.14232(12) 0.36824(16) 0.25709(16)
O3 O 0.9983(6) 0.0362(6) 0.5659(7)
O3D O 1.0017(6) -0.0362(6) 0.4341(7)
loop_
_geom_bond_atom_site_label_1
_geom_bond_atom_site_label_2
_geom_bond_site_symmetry_1
_geom_bond_site_symmetry_2
Co1 O1 1_555 1_555
O1 C3 1_555 1_555
C1 H1 1_555 1_555
N1 Co1 1_555 1_555
C2 C1 1_555 1_555
O2 Co1 1_555 1_555
C3 C2 1_555 1_555
C4 N2 1_555 1_555
N2 C8 1_555 1_555
C5 N1 1_555 1_555
C6 C2 1_555 1_555
H2 C6 1_555 1_555
C7 C9 1_555 1_555
C8 N1 1_555 1_555
H3 C8 1_555 1_555
C9 H4 1_555 1_555
C10 N2 1_555 1_555
H5 C10 1_555 1_555
H6 C10 1_555 1_555
C11 C7 1_555 1_555
H7 C11 1_555 1_555
C12 C4 1_555 1_555
H8 C12 1_555 1_555
C13 C6 1_555 1_555
H9 C13 1_555 1_555
C14 C5 1_555 1_555
H10 C14 1_555 1_555
C15 C14 1_555 1_555
H11 C15 1_555 1_555
C16 C12 1_555 1_555
H12 C16 1_555 1_555
C17 C9 1_555 1_555
H13 C17 1_555 1_555
O1A C3A 1_555 1_555
C2A C1 1_555 1_555
O2A C3A 1_555 1_555
C3A C2A 1_555 1_555
C6A C13 1_555 1_555
H2A C6A 1_555 1_555
N1C C5C 1_555 1_555
C4C N2C 1_555 1_555
N2C C8C 1_555 1_555
C5C C4C 1_555 1_555
C7C C11 1_555 1_555
C8C N1C 1_555 1_555
H3C C8C 1_555 1_555
C9C C17 1_555 1_555
H4C C9C 1_555 1_555
C10C N2C 1_555 1_555
H5C C10C 1_555 1_555
H6C C10C 1_555 1_555
C12C C4C 1_555 1_555
H8C C12C 1_555 1_555
C14C C5C 1_555 1_555
H10C C14C 1_555 1_555
C15C C14C 1_555 1_555
H11C C15C 1_555 1_555
C16C C12C 1_555 1_555
H12C C16C 1_555 1_555
Co1_2 N1C 1_555 1_555
Co1A O1A 1_555 1_555
O1C Co1 1_555 1_555
N1C_2 Co1 1_555 1_555
O2C Co1 1_555 1_555
O2 C3 1_555 1_555
C4 C5 1_555 1_555
C7 C10 1_555 1_555
C15 C16 1_555 1_555
C2A C6A 1_555 1_555
O2A Co1A 1_555 1_555
C7C C9C 1_555 1_555
C7C C10C 1_555 1_555
C15C C16C 1_555 1_555

#END
