
#######################################################################
#
#                 Cambridge Crystallographic Data Centre
#                                CCDC 
#
#######################################################################
#
# If this CIF has been generated from an entry in the Cambridge 
# Structural Database, then it will include bibliographic, chemical, 
# crystal, experimental, refinement or atomic coordinate data resulting 
# from the CCDC's data processing and validation procedures.
#
#######################################################################

data_ROHWOC
_symmetry_cell_setting           orthorhombic
_symmetry_space_group_name_H-M   'P 21 21 2'
_symmetry_Int_Tables_number      18
_space_group_name_Hall           'P 2 2ab'
loop_
_symmetry_equiv_pos_site_id
_symmetry_equiv_pos_as_xyz
1 x,y,z
2 -x,-y,z
3 1/2-x,1/2+y,-z
4 1/2+x,1/2-y,-z
_cell_length_a                   14.845(2)
_cell_length_b                   18.355(3)
_cell_length_c                   11.1608(19)
_cell_angle_alpha                90
_cell_angle_beta                 90
_cell_angle_gamma                90
_cell_volume                     3041.09
loop_
_atom_site_label
_atom_site_type_symbol
_atom_site_fract_x
_atom_site_fract_y
_atom_site_fract_z
C1 C -0.0738(5) 0.1083(5) 0.5112(7)
H1 H -0.0731 0.0587 0.4943
C2 C -0.0590(5) 0.1579(6) 0.4217(7)
H2 H -0.0479 0.1414 0.3443
C3 C -0.0602(4) 0.2321(6) 0.4436(8)
C4 C -0.0737(5) 0.2542(4) 0.5583(7)
H3 H -0.0716 0.3037 0.5763
C5 C -0.0899(5) 0.2056(4) 0.6470(6)
H4 H -0.1016 0.2221 0.7242
C6 C -0.0893(4) 0.1316(4) 0.6237(6)
C7 C -0.0501(6) 0.2853(6) 0.3431(9)
H5 H -0.1082 0.3042 0.3216
H6 H -0.0239 0.2612 0.2752
H7 H -0.0118 0.3246 0.3679
C8 C -0.0466(4) 0.1383(3) 0.9307(5)
H8 H -0.0997 0.1683 0.9136
C9 C 0.0387(4) 0.1853(3) 0.9149(5)
C10 C -0.0517(4) 0.1122(3) 1.0592(5)
H9 H -0.0401 0.1528 1.1125
H10 H -0.0054 0.0759 1.0727
C11 C -0.1441(4) 0.0791(3) 1.0893(6)
H11 H -0.1580 0.0422 1.0299
H12 H -0.1398 0.0549 1.1664
C12 C -0.2221(4) 0.1328(3) 1.0941(5)
C13 C 0.3088(4) 0.0589(3) 0.8712(6)
H13 H 0.2509 0.0443 0.8500
C14 C 0.3754(4) 0.0085(3) 0.8706(6)
H14 H 0.3624 -0.0391 0.8478
C15 C 0.4629(4) 0.0267(3) 0.9035(6)
C16 C 0.4760(4) 0.0978(3) 0.9350(5)
H15 H 0.5332 0.1131 0.9578
C17 C 0.4060(4) 0.1474(3) 0.9337(5)
H16 H 0.4175 0.1952 0.9564
C18 C 0.2037(5) 0.2862(3) 0.6513(5)
H17 H 0.2117 0.3304 0.6908
C19 C 0.1987(5) 0.2869(4) 0.5299(5)
H18 H 0.2018 0.3310 0.4891
C20 C 0.1891(4) 0.2235(4) 0.4667(5)
C21 C 0.1798(5) 0.1613(4) 0.5339(6)
H19 H 0.1705 0.1168 0.4962
C22 C 0.1841(5) 0.1649(3) 0.6563(5)
H20 H 0.1770 0.1218 0.6993
C23 C 0.1903(4) 0.2226(3) 0.3347(5)
C24 C 0.1765(4) 0.2834(4) 0.2660(5)
H21 H 0.1620 0.3272 0.3031
C25 C 0.1839(4) 0.2808(4) 0.1436(5)
H22 H 0.1746 0.3236 0.1006
C26 C 0.2159(5) 0.1598(4) 0.1478(5)
H23 H 0.2285 0.1164 0.1080
C27 C 0.2106(5) 0.1592(3) 0.2704(5)
H24 H 0.2207 0.1160 0.3116
Cu1 Cu 0.21103(4) 0.22080(3) 0.89953(6)
N1 N 0.1977(3) 0.2257(3) 0.7172(4)
N2 N 0.2036(3) 0.2205(3) 0.0832(4)
N3 N 0.3220(3) 0.1289(2) 0.9009(5)
N4 N -0.0447(3) 0.0774(3) 0.8470(4)
O1 O 0.0339(3) 0.2517(2) 0.9172(5)
O2 O 0.1113(2) 0.14889(18) 0.9022(4)
O3 O -0.2977(3) 0.1100(2) 1.0974(5)
O4 O -0.1995(2) 0.20089(18) 1.0960(4)
H25 H 0.0074 0.0588 0.8263
O5 O -0.2011(3) 0.0900(2) 0.7865(4)
O6 O -0.1048(3) -0.0027(2) 0.6922(4)
S1 S -0.11610(10) 0.06944(8) 0.73841(15)
C13A C 0.6912(4) -0.0589(3) 0.8712(6)
H13A H 0.7491 -0.0443 0.8500
C14A C 0.6246(4) -0.0085(3) 0.8706(6)
H14A H 0.6376 0.0391 0.8478
C15A C 0.5371(4) -0.0267(3) 0.9035(6)
C16A C 0.5240(4) -0.0978(3) 0.9350(5)
H15A H 0.4668 -0.1131 0.9578
C17A C 0.5940(4) -0.1474(3) 0.9337(5)
H16A H 0.5825 -0.1952 0.9564
N3A N 0.6780(3) -0.1289(2) 0.9009(5)
C1A C 1.0738(5) -0.1083(5) 0.5112(7)
H1A H 1.0731 -0.0587 0.4943
C2A C 1.0590(5) -0.1579(6) 0.4217(7)
H2A H 1.0479 -0.1414 0.3443
C3A C 1.0602(4) -0.2321(6) 0.4436(8)
C4A C 1.0737(5) -0.2542(4) 0.5583(7)
H3A H 1.0716 -0.3037 0.5763
C5A C 1.0899(5) -0.2056(4) 0.6470(6)
H4A H 1.1016 -0.2221 0.7242
C6A C 1.0893(4) -0.1316(4) 0.6237(6)
C7A C 1.0501(6) -0.2853(6) 0.3431(9)
H5A H 1.1082 -0.3042 0.3216
H6A H 1.0239 -0.2612 0.2752
H7A H 1.0118 -0.3246 0.3679
C8A C 1.0466(4) -0.1383(3) 0.9307(5)
H8A H 1.0997 -0.1683 0.9136
C9A C 0.9613(4) -0.1853(3) 0.9149(5)
C10A C 1.0517(4) -0.1122(3) 1.0592(5)
H9A H 1.0401 -0.1528 1.1125
H10A H 1.0054 -0.0759 1.0727
C11A C 1.1441(4) -0.0791(3) 1.0893(6)
H11A H 1.1580 -0.0422 1.0299
H12A H 1.1398 -0.0549 1.1664
C12A C 1.2221(4) -0.1328(3) 1.0941(5)
C18A C 0.7963(5) -0.2862(3) 0.6513(5)
H17A H 0.7883 -0.3304 0.6908
C19A C 0.8013(5) -0.2869(4) 0.5299(5)
H18A H 0.7982 -0.3310 0.4891
C20A C 0.8109(4) -0.2235(4) 0.4667(5)
C21A C 0.8202(5) -0.1613(4) 0.5339(6)
H19A H 0.8295 -0.1168 0.4962
C22A C 0.8159(5) -0.1649(3) 0.6563(5)
H20A H 0.8230 -0.1218 0.6993
C23A C 0.8097(4) -0.2226(3) 0.3347(5)
C24A C 0.8235(4) -0.2834(4) 0.2660(5)
H21A H 0.8380 -0.3272 0.3031
C25A C 0.8161(4) -0.2808(4) 0.1436(5)
H22A H 0.8254 -0.3236 0.1006
C26A C 0.7841(5) -0.1598(4) 0.1478(5)
H23A H 0.7715 -0.1164 0.1080
C27A C 0.7894(5) -0.1592(3) 0.2704(5)
H24A H 0.7793 -0.1160 0.3116
Cu1A Cu 0.78897(4) -0.22080(3) 0.89953(6)
N1A N 0.8023(3) -0.2257(3) 0.7172(4)
N2A N 0.7964(3) -0.2205(3) 0.0832(4)
N4A N 1.0447(3) -0.0774(3) 0.8470(4)
O1A O 0.9661(3) -0.2517(2) 0.9172(5)
O2A O 0.8887(2) -0.14889(18) 0.9022(4)
O3A O 1.2977(3) -0.1100(2) 1.0974(5)
O4A O 1.1995(2) -0.20089(18) 1.0960(4)
H25A H 0.9926 -0.0588 0.8263
O5A O 1.2011(3) -0.0900(2) 0.7865(4)
O6A O 1.1048(3) 0.0027(2) 0.6922(4)
S1A S 1.11610(10) -0.06944(8) 0.73841(15)
Cu1_2 Cu 0.21103(4) 0.22080(3) -0.10047(6)
Cu1A_2 Cu 0.78897(4) -0.22080(3) -0.10047(6)
Cu1B Cu 1.28897(4) -0.27920(3) 1.10047(6)
Cu1C Cu -0.28897(4) 0.27920(3) 1.10047(6)
N2_2 N 0.2036(3) 0.2205(3) 1.0832(4)
N2A_2 N 0.7964(3) -0.2205(3) 1.0832(4)
O4B O 0.6995(2) -0.29911(18) 0.9040(4)
O4C O 0.3005(2) 0.29911(18) 0.9040(4)
O7 O 1.0044(6) 0.3818(4) 0.7687(8)
H26 H 0.9548 0.3678 0.7397
H27 H 0.9810 0.4195 0.8004
O8 O 0.3530(7) 1.0121(4) 0.2177(9)
H28 H 0.3219 1.0058 0.2807
H29 H 0.3935 0.9795 0.2217
O9 O 0.2664(13) 0.9842(10) 0.4186(19)
H30 H 0.2782 0.9831 0.4931
H31 H 0.2125 0.9840 0.3931
O10 O 0.348(3) 0.962(2) 0.543(4)
H32 H 0.3358 0.9755 0.4718
H33 H 0.3975 0.9604 0.5805
loop_
_geom_bond_atom_site_label_1
_geom_bond_atom_site_label_2
_geom_bond_site_symmetry_1
_geom_bond_site_symmetry_2
C1 H1 1_555 1_555
C2 C1 1_555 1_555
H2 C2 1_555 1_555
C3 C2 1_555 1_555
C4 C3 1_555 1_555
H3 C4 1_555 1_555
C5 C4 1_555 1_555
H4 C5 1_555 1_555
C6 C1 1_555 1_555
C7 C3 1_555 1_555
H5 C7 1_555 1_555
H6 C7 1_555 1_555
H7 C7 1_555 1_555
C8 H8 1_555 1_555
C9 C8 1_555 1_555
C10 C8 1_555 1_555
H9 C10 1_555 1_555
H10 C10 1_555 1_555
C11 C10 1_555 1_555
H11 C11 1_555 1_555
H12 C11 1_555 1_555
C12 C11 1_555 1_555
C13 H13 1_555 1_555
C14 C13 1_555 1_555
H14 C14 1_555 1_555
C15 C14 1_555 1_555
C16 C15 1_555 1_555
H15 C16 1_555 1_555
C17 C16 1_555 1_555
H16 C17 1_555 1_555
C18 H17 1_555 1_555
C19 C18 1_555 1_555
H18 C19 1_555 1_555
C20 C19 1_555 1_555
C21 C20 1_555 1_555
H19 C21 1_555 1_555
C22 C21 1_555 1_555
H20 C22 1_555 1_555
C23 C20 1_555 1_555
C24 C23 1_555 1_555
H21 C24 1_555 1_555
C25 C24 1_555 1_555
H22 C25 1_555 1_555
C26 H23 1_555 1_555
C27 C23 1_555 1_555
H24 C27 1_555 1_555
Cu1 N1 1_555 1_555
N1 C18 1_555 1_555
N2 C25 1_555 1_555
N3 C13 1_555 1_555
N4 C8 1_555 1_555
O1 C9 1_555 1_555
O2 C9 1_555 1_555
O3 C12 1_555 1_555
O4 C12 1_555 1_555
H25 N4 1_555 1_555
O5 S1 1_555 1_555
O6 S1 1_555 1_555
S1 C6 1_555 1_555
O7 H26 1_555 1_555
H27 O7 1_555 1_555
O8 H28 1_555 1_555
H29 O8 1_555 1_555
O9 H30 1_555 1_555
H31 O9 1_555 1_555
O10 H32 1_555 1_555
H33 O10 1_555 1_555
C13A H13A 1_555 1_555
C14A C13A 1_555 1_555
H14A C14A 1_555 1_555
C15A C15 1_555 1_555
C16A C15A 1_555 1_555
H15A C16A 1_555 1_555
C17A C16A 1_555 1_555
H16A C17A 1_555 1_555
N3A C13A 1_555 1_555
C1A H1A 1_555 1_555
C2A C1A 1_555 1_555
H2A C2A 1_555 1_555
C3A C2A 1_555 1_555
C4A C3A 1_555 1_555
H3A C4A 1_555 1_555
C5A C4A 1_555 1_555
H4A C5A 1_555 1_555
C6A C1A 1_555 1_555
C7A C3A 1_555 1_555
H5A C7A 1_555 1_555
H6A C7A 1_555 1_555
H7A C7A 1_555 1_555
C8A H8A 1_555 1_555
C9A C8A 1_555 1_555
C10A C8A 1_555 1_555
H9A C10A 1_555 1_555
H10A C10A 1_555 1_555
C11A C10A 1_555 1_555
H11A C11A 1_555 1_555
H12A C11A 1_555 1_555
C12A C11A 1_555 1_555
C18A H17A 1_555 1_555
C19A C18A 1_555 1_555
H18A C19A 1_555 1_555
C20A C19A 1_555 1_555
C21A C20A 1_555 1_555
H19A C21A 1_555 1_555
C22A C21A 1_555 1_555
H20A C22A 1_555 1_555
C23A C20A 1_555 1_555
C24A C23A 1_555 1_555
H21A C24A 1_555 1_555
C25A C24A 1_555 1_555
H22A C25A 1_555 1_555
C26A H23A 1_555 1_555
C27A C23A 1_555 1_555
H24A C27A 1_555 1_555
Cu1A N3A 1_555 1_555
N1A C18A 1_555 1_555
N2A C25A 1_555 1_555
N4A C8A 1_555 1_555
O1A C9A 1_555 1_555
O2A C9A 1_555 1_555
O3A C12A 1_555 1_555
O4A C12A 1_555 1_555
H25A N4A 1_555 1_555
O5A S1A 1_555 1_555
O6A S1A 1_555 1_555
S1A C6A 1_555 1_555
Cu1_2 N2 1_555 1_555
Cu1A_2 N2A 1_555 1_555
Cu1B O4A 1_555 1_555
Cu1C O4 1_555 1_555
N2_2 Cu1 1_555 1_555
N2A_2 Cu1A 1_555 1_555
O4B Cu1A 1_555 1_555
O4C Cu1 1_555 1_555
C5 C6 1_555 1_555
C17 N3 1_555 1_555
C22 N1 1_555 1_555
C26 C27 1_555 1_555
C26 N2 1_555 1_555
Cu1 N3 1_555 1_555
Cu1 O1 1_555 1_555
Cu1 O2 1_555 1_555
N4 S1 1_555 1_555
C14A C15A 1_555 1_555
C17A N3A 1_555 1_555
C5A C6A 1_555 1_555
C22A N1A 1_555 1_555
C26A C27A 1_555 1_555
C26A N2A 1_555 1_555
Cu1A N1A 1_555 1_555
Cu1A O1A 1_555 1_555
Cu1A O2A 1_555 1_555
N4A S1A 1_555 1_555

#END
