
#######################################################################
#
#                 Cambridge Crystallographic Data Centre
#                                CCDC 
#
#######################################################################
#
# If this CIF has been generated from an entry in the Cambridge 
# Structural Database, then it will include bibliographic, chemical, 
# crystal, experimental, refinement or atomic coordinate data resulting 
# from the CCDC's data processing and validation procedures.
#
#######################################################################

data_ROJBAV
_symmetry_cell_setting           orthorhombic
_symmetry_space_group_name_H-M   'P 21 21 21'
_symmetry_Int_Tables_number      19
_space_group_name_Hall           'P 2ac 2ab'
loop_
_symmetry_equiv_pos_site_id
_symmetry_equiv_pos_as_xyz
1 x,y,z
2 1/2-x,-y,1/2+z
3 1/2+x,1/2-y,-z
4 -x,1/2+y,1/2-z
_cell_length_a                   5.9825(11)
_cell_length_b                   9.0582(17)
_cell_length_c                   34.096(6)
_cell_angle_alpha                90
_cell_angle_beta                 90
_cell_angle_gamma                90
_cell_volume                     1847.69
loop_
_atom_site_label
_atom_site_type_symbol
_atom_site_fract_x
_atom_site_fract_y
_atom_site_fract_z
C1 C 0.1968(4) 0.9967(3) 0.16910(7)
C2 C -0.0128(5) 0.9913(3) 0.14309(7)
H1 H -0.1406 1.0072 0.1606
C3 C -0.0557(5) 0.8437(3) 0.12202(9)
H2 H 0.0681 0.8231 0.1045
H3 H -0.0621 0.7651 0.1413
C4 C -0.2733(6) 0.8450(4) 0.09847(11)
H4 H -0.3962 0.8669 0.1156
H5 H -0.2958 0.7501 0.0866
H6 H -0.2645 0.919 0.0784
C5 C -0.1567(4) 1.2276(3) 0.11739(8)
C6 C -0.0957(5) 1.3403(3) 0.08671(8)
H7 H -0.0397 1.4298 0.0989
H8 H -0.2248 1.365 0.0708
C7 C 0.0855(5) 1.2678(3) 0.06175(8)
H9 H 0.0152 1.2269 0.0382
C8 C 0.1688(5) 1.1386(3) 0.08726(8)
H10 H 0.1911 1.0506 0.0715
H11 H 0.3083 1.1637 0.1001
C9 C 0.2702(6) 1.3714(4) 0.04910(9)
H12 H 0.384 1.3144 0.0356
H13 H 0.3383 1.4134 0.0724
C10 C 0.1973(7) 1.4972(5) 0.02238(11)
H14 H 0.0765 1.5511 0.0348
H15 H 0.1409 1.4565 -0.002
C11 C 0.3882(10) 1.6035(5) 0.01339(13)
H16 H 0.4372 1.6497 0.0372
H17 H 0.3374 1.6777 -0.0046
H18 H 0.5103 1.55 0.0019
Ca1 Ca 0.49346(8) 1.31451(5) 0.195707(14)
Cl1 Cl 0.25038(11) 1.33902(7) 0.264459(18)
Cl2 Cl 0.22938(13) 1.51621(7) 0.16040(2)
N1 N 0.2899(5) 0.8710(3) 0.17945(8)
N2 N -0.0098(4) 1.1161(2) 0.11606(6)
O1 O 0.2689(4) 1.11763(19) 0.18003(5)
O2 O -0.3162(3) 1.2358(2) 0.14046(6)
O3 O 0.7614(5) 1.5013(3) 0.20558(10)
O4 O 0.7710(4) 1.1902(2) 0.23282(7)
H19 H 0.776(6) 1.107(4) 0.2379(9)
H20 H 0.734(6) 1.569(4) 0.2128(10)
H21 H 0.873(9) 1.499(7) 0.1935(17)
H22 H 0.874(6) 1.233(4) 0.2401(9)
H23 H 0.250(5) 0.786(3) 0.1743(8)
H24 H 0.391(7) 0.870(4) 0.1947(11)
Ca1_2 Ca -0.50654(8) 1.31451(5) 0.195707(14)
O2_2 O 0.6838(3) 1.2358(2) 0.14046(6)
loop_
_geom_bond_atom_site_label_1
_geom_bond_atom_site_label_2
_geom_bond_site_symmetry_1
_geom_bond_site_symmetry_2
C1 C2 1_555 1_555
C2 H1 1_555 1_555
C3 C2 1_555 1_555
H2 C3 1_555 1_555
H3 C3 1_555 1_555
C4 C3 1_555 1_555
H4 C4 1_555 1_555
H5 C4 1_555 1_555
H6 C4 1_555 1_555
C5 C6 1_555 1_555
C6 H7 1_555 1_555
H8 C6 1_555 1_555
C7 C6 1_555 1_555
H9 C7 1_555 1_555
C8 C7 1_555 1_555
H10 C8 1_555 1_555
H11 C8 1_555 1_555
C9 C7 1_555 1_555
H12 C9 1_555 1_555
H13 C9 1_555 1_555
C10 C9 1_555 1_555
H14 C10 1_555 1_555
H15 C10 1_555 1_555
C11 C10 1_555 1_555
H16 C11 1_555 1_555
H17 C11 1_555 1_555
H18 C11 1_555 1_555
Ca1 Cl1 1_555 1_555
Cl2 Ca1 1_555 1_555
N1 C1 1_555 1_555
N2 C2 1_555 1_555
O1 C1 1_555 1_555
O2 C5 1_555 1_555
O3 Ca1 1_555 1_555
O4 Ca1 1_555 1_555
H19 O4 1_555 1_555
H20 O3 1_555 1_555
H21 O3 1_555 1_555
H22 O4 1_555 1_555
H23 N1 1_555 1_555
H24 N1 1_555 1_555
Ca1_2 O2 1_555 1_555
O2_2 Ca1 1_555 1_555
C5 N2 1_555 1_555
C8 N2 1_555 1_555
Ca1 O1 1_555 1_555

#END
