
#######################################################################
#
#                 Cambridge Crystallographic Data Centre
#                                CCDC 
#
#######################################################################
#
# If this CIF has been generated from an entry in the Cambridge 
# Structural Database, then it will include bibliographic, chemical, 
# crystal, experimental, refinement or atomic coordinate data resulting 
# from the CCDC's data processing and validation procedures.
#
#######################################################################

data_ROJBID
_symmetry_cell_setting           monoclinic
_symmetry_space_group_name_H-M   'P 21'
_symmetry_Int_Tables_number      4
_space_group_name_Hall           'P 2yb'
loop_
_symmetry_equiv_pos_site_id
_symmetry_equiv_pos_as_xyz
1 x,y,z
2 -x,1/2+y,-z
_cell_length_a                   5.9482(8)
_cell_length_b                   9.0116(8)
_cell_length_c                   17.114(2)
_cell_angle_alpha                90
_cell_angle_beta                 99.350(12)
_cell_angle_gamma                90
_cell_volume                     905.171
loop_
_atom_site_label
_atom_site_type_symbol
_atom_site_fract_x
_atom_site_fract_y
_atom_site_fract_z
C1 C 0.2292(9) 0.8988(6) 0.8359(3)
C2 C 0.5412(11) 0.6648(6) 0.7352(3)
C3 C 0.4106(10) 0.9034(6) 0.7819(3)
H1 H 0.5576 0.8928 0.8168
C4 C 0.4262(12) 1.0473(7) 0.7351(4)
H2 H 0.2811 1.0653 0.7014
H3 H 0.4556 1.1297 0.7718
C5 C 0.1774(11) 0.7441(7) 0.6761(3)
H4 H 0.1300 0.8306 0.6439
H5 H 0.0555 0.7157 0.7045
C6 C 0.4514(11) 0.5449(7) 0.6741(4)
H6 H 0.5647 0.5206 0.6412
H7 H 0.4114 0.4553 0.7001
C7 C 0.2408(12) 0.6146(7) 0.6247(3)
H8 H 0.2825 0.6548 0.5758
C8 C 0.6140(15) 1.0410(10) 0.6839(5)
H9 H 0.7584 1.0251 0.7170
H10 H 0.6178 1.1329 0.6558
H11 H 0.5839 0.9609 0.6466
C9 C -0.066(2) 0.4878(15) 0.5370(6)
C10 C 0.0515(14) 0.5060(10) 0.6040(5)
H12 H 0.0171 0.4461 0.6447
N1 N 0.3872(8) 0.7735(5) 0.7308(2)
N2 N 0.1408(9) 1.0248(5) 0.8550(3)
H13 H 0.0394 1.0249 0.8855
H14 H 0.1844 1.1071 0.8369
F1 F -0.0299(16) 0.5498(15) 0.4709(4)
F2 F -0.2401(15) 0.3946(12) 0.5166(5)
Cl1 Cl 0.2653(2) 0.55607(13) 1.03085(7)
Cl2 Cl 0.1873(3) 0.38025(15) 0.82026(10)
Ca1 Ca -0.04150(17) 0.58257(9) 0.89264(6)
O1 O 0.7187(7) 0.6595(5) 0.7803(2)
O2 O 0.1706(8) 0.7795(4) 0.8607(2)
O3 O -0.2877(8) 0.7059(4) 0.9665(3)
H15 H -0.2701 0.6703 1.0136
H16 H -0.2569 0.7990 0.9690
O4 O -0.3048(8) 0.3947(5) 0.9096(3)
H17 H -0.2326 0.3175 0.9282
H18 H -0.3901 0.4245 0.9419
Ca1_2 Ca 0.95850(17) 0.58257(9) 0.89264(6)
O1_2 O -0.2813(7) 0.6595(5) 0.7803(2)
loop_
_geom_bond_atom_site_label_1
_geom_bond_atom_site_label_2
_geom_bond_site_symmetry_1
_geom_bond_site_symmetry_2
C1 C3 1_555 1_555
C2 C6 1_555 1_555
C3 H1 1_555 1_555
C4 C3 1_555 1_555
H2 C4 1_555 1_555
H3 C4 1_555 1_555
C5 H4 1_555 1_555
H5 C5 1_555 1_555
C6 H6 1_555 1_555
H7 C6 1_555 1_555
C7 C5 1_555 1_555
H8 C7 1_555 1_555
C8 C4 1_555 1_555
H9 C8 1_555 1_555
H10 C8 1_555 1_555
H11 C8 1_555 1_555
C9 C10 1_555 1_555
C10 C7 1_555 1_555
H12 C10 1_555 1_555
N1 C2 1_555 1_555
N2 C1 1_555 1_555
H13 N2 1_555 1_555
H14 N2 1_555 1_555
F1 C9 1_555 1_555
F2 C9 1_555 1_555
Cl1 Ca1 1_555 1_555
Cl2 Ca1 1_555 1_555
Ca1 O2 1_555 1_555
O1 C2 1_555 1_555
O2 C1 1_555 1_555
O3 Ca1 1_555 1_555
H15 O3 1_555 1_555
H16 O3 1_555 1_555
O4 Ca1 1_555 1_555
H17 O4 1_555 1_555
H18 O4 1_555 1_555
Ca1_2 O1 1_555 1_555
O1_2 Ca1 1_555 1_555
C3 N1 1_555 1_555
C5 N1 1_555 1_555
C6 C7 1_555 1_555

#END
