
#######################################################################
#
#                 Cambridge Crystallographic Data Centre
#                                CCDC 
#
#######################################################################
#
# If this CIF has been generated from an entry in the Cambridge 
# Structural Database, then it will include bibliographic, chemical, 
# crystal, experimental, refinement or atomic coordinate data resulting 
# from the CCDC's data processing and validation procedures.
#
#######################################################################

data_ROJDIF
_symmetry_cell_setting           monoclinic
_symmetry_space_group_name_H-M   'P 21/c'
_symmetry_Int_Tables_number      14
_space_group_name_Hall           '-P 2ybc'
loop_
_symmetry_equiv_pos_site_id
_symmetry_equiv_pos_as_xyz
1 x,y,z
2 -x,1/2+y,1/2-z
3 -x,-y,-z
4 x,1/2-y,1/2+z
_cell_length_a                   11.5168(11)
_cell_length_b                   10.1374(8)
_cell_length_c                   9.6121(9)
_cell_angle_alpha                90
_cell_angle_beta                 103.266(3)
_cell_angle_gamma                90
_cell_volume                     1092.27
loop_
_atom_site_label
_atom_site_type_symbol
_atom_site_fract_x
_atom_site_fract_y
_atom_site_fract_z
Fe1 Fe 1.0000 1.0000 0.5000
Ni1 Ni 1.0000 1.0000 0.0000
N1 N 1.1616(2) 0.9497(2) 0.4224(3)
N2 N 1.4838(2) 0.9592(3) 0.1381(3)
N3 N 0.9127(2) 1.0171(2) 0.2725(3)
N4 N 1.0430(2) 1.2942(2) 0.0021(3)
C1 C 1.1613(3) 0.8435(3) 0.3388(4)
H1 H 1.0933 0.7875 0.3211
C2 C 1.2545(3) 0.8115(3) 0.2772(4)
H2 H 1.2499 0.7348 0.2194
C3 C 1.3549(3) 0.8909(3) 0.2994(4)
C4 C 1.3546(3) 1.0028(3) 0.3823(5)
H3 H 1.4203 1.0619 0.3979
C5 C 1.2587(3) 1.0284(3) 0.4424(4)
H4 H 1.2612 1.1048 0.5003
C6 C 1.4588(3) 0.8562(3) 0.2350(4)
H5 H 1.5307 0.8425 0.3129
H6 H 1.4414 0.7723 0.1816
C7 C 1.5909(3) 0.9237(3) 0.0886(4)
H7 H 1.5789 0.8371 0.0398
H8 H 1.6597 0.9160 0.1716
C8 C 1.3825(3) 0.9728(3) 0.0137(4)
H9 H 1.3101 0.9983 0.0463
H10 H 1.3669 0.8870 -0.0364
C9 C 0.9387(3) 1.0147(2) 0.1646(4)
C10 C 1.0320(3) 1.1810(3) 0.0031(3)
N1B N 1.8384(2) 1.0503(2) -0.4224(3)
N2B N 1.5162(2) 1.0408(3) -0.1381(3)
C1B C 1.8387(3) 1.1565(3) -0.3388(4)
H1B H 1.9067 1.2125 -0.3211
C2B C 1.7455(3) 1.1885(3) -0.2772(4)
H2B H 1.7501 1.2652 -0.2194
C3B C 1.6451(3) 1.1091(3) -0.2994(4)
C4B C 1.6454(3) 0.9972(3) -0.3823(5)
H3B H 1.5797 0.9381 -0.3979
C5B C 1.7413(3) 0.9716(3) -0.4424(4)
H4B H 1.7388 0.8952 -0.5003
C6B C 1.5412(3) 1.1438(3) -0.2350(4)
H5B H 1.4693 1.1575 -0.3129
H6B H 1.5586 1.2277 -0.1816
C7B C 1.4091(3) 1.0763(3) -0.0886(4)
H7B H 1.4211 1.1629 -0.0398
H8B H 1.3403 1.0840 -0.1716
C8B C 1.6175(3) 1.0272(3) -0.0137(4)
H9B H 1.6899 1.0017 -0.0463
H10B H 1.6331 1.1130 0.0364
N3B N 1.0873(2) 0.9829(2) -0.2725(3)
N4B N 0.9570(2) 0.7058(2) -0.0021(3)
C9B C 1.0613(3) 0.9853(2) -0.1646(4)
C10B C 0.9680(3) 0.8190(3) -0.0031(3)
Fe1_2 Fe 1.0000 1.0000 -0.5000
Fe1_3 Fe 2.0000 1.0000 -0.5000
Fe1A Fe 1.0000 0.5000 0.0000
Fe1A_2 Fe 1.0000 1.5000 0.0000
N1B_2 N 0.8384(2) 1.0503(2) 0.5776(3)
N3B_2 N 1.0873(2) 0.9829(2) 0.7275(3)
N4A N 0.9570(2) 0.7942(2) 0.4979(3)
N4C N 1.0430(2) 1.2058(2) 0.5021(3)
loop_
_geom_bond_atom_site_label_1
_geom_bond_atom_site_label_2
_geom_bond_site_symmetry_1
_geom_bond_site_symmetry_2
Fe1 N1 1_555 1_555
Ni1 C9 1_555 1_555
N1 C1 1_555 1_555
N2 C6 1_555 1_555
N3 Fe1 1_555 1_555
N4 C10 1_555 1_555
C1 H1 1_555 1_555
C2 C1 1_555 1_555
H2 C2 1_555 1_555
C3 C2 1_555 1_555
C4 C3 1_555 1_555
H3 C4 1_555 1_555
C5 N1 1_555 1_555
H4 C5 1_555 1_555
C6 C3 1_555 1_555
H5 C6 1_555 1_555
H6 C6 1_555 1_555
C7 N2 1_555 1_555
H7 C7 1_555 1_555
H8 C7 1_555 1_555
C8 N2 1_555 1_555
H9 C8 1_555 1_555
H10 C8 1_555 1_555
C9 N3 1_555 1_555
C10 Ni1 1_555 1_555
N1B C1B 1_555 1_555
N2B C6B 1_555 1_555
C1B H1B 1_555 1_555
C2B C1B 1_555 1_555
H2B C2B 1_555 1_555
C3B C2B 1_555 1_555
C4B C3B 1_555 1_555
H3B C4B 1_555 1_555
C5B N1B 1_555 1_555
H4B C5B 1_555 1_555
C6B C3B 1_555 1_555
H5B C6B 1_555 1_555
H6B C6B 1_555 1_555
C7B C8 1_555 1_555
H7B C7B 1_555 1_555
H8B C7B 1_555 1_555
C8B C7 1_555 1_555
H9B C8B 1_555 1_555
H10B C8B 1_555 1_555
N3B C9B 1_555 1_555
N4B C10B 1_555 1_555
C9B Ni1 1_555 1_555
C10B Ni1 1_555 1_555
Fe1_2 N3B 1_555 1_555
Fe1_3 N1B 1_555 1_555
Fe1A N4B 1_555 1_555
Fe1A_2 N4 1_555 1_555
N1B_2 Fe1 1_555 1_555
N3B_2 Fe1 1_555 1_555
N4A Fe1 1_555 1_555
N4C Fe1 1_555 1_555
C4 C5 1_555 1_555
N2B C7B 1_555 1_555
N2B C8B 1_555 1_555
C4B C5B 1_555 1_555

#END
