
#######################################################################
#
#                 Cambridge Crystallographic Data Centre
#                                CCDC 
#
#######################################################################
#
# If this CIF has been generated from an entry in the Cambridge 
# Structural Database, then it will include bibliographic, chemical, 
# crystal, experimental, refinement or atomic coordinate data resulting 
# from the CCDC's data processing and validation procedures.
#
#######################################################################

data_ROJGUT
_symmetry_cell_setting           triclinic
_symmetry_space_group_name_H-M   'P -1'
_symmetry_Int_Tables_number      2
_space_group_name_Hall           '-P 1'
loop_
_symmetry_equiv_pos_site_id
_symmetry_equiv_pos_as_xyz
1 x,y,z
2 -x,-y,-z
_cell_length_a                   7.853(2)
_cell_length_b                   8.646(3)
_cell_length_c                   11.091(4)
_cell_angle_alpha                88.168(5)
_cell_angle_beta                 74.960(5)
_cell_angle_gamma                88.108(5)
_cell_volume                     726.64
loop_
_atom_site_label
_atom_site_type_symbol
_atom_site_fract_x
_atom_site_fract_y
_atom_site_fract_z
Cu1 Cu 0.60675(10) 0.93153(8) 0.33669(7)
Cl1 Cl 0.6666(2) 0.83565(17) 0.51410(14)
O1 O 0.6110(6) 0.9578(5) 0.1570(4)
O2 O 0.7850(7) 0.7524(6) 0.1603(5)
N1 N 0.3982(7) 0.7991(6) 0.3486(5)
N2 N -0.0217(7) 0.5556(6) 0.2848(5)
H1 H -0.083(8) 0.615(7) 0.244(6)
N3 N 0.7568(7) 1.1186(6) 0.3183(5)
C1 C 0.2698(8) 0.8646(7) 0.3016(6)
H2 H 0.2756 0.9697 0.2807
C2 C 0.1332(8) 0.7853(7) 0.2832(6)
H3 H 0.0483 0.8368 0.2509
C3 C 0.1183(8) 0.6254(7) 0.3123(5)
C4 C 0.2487(8) 0.5581(7) 0.3649(5)
H4 H 0.2446 0.4540 0.3889
C5 C 0.3830(8) 0.6486(7) 0.3807(5)
H5 H 0.4680 0.6020 0.4156
C6 C 0.8875(8) 1.1419(7) 0.3706(6)
H6 H 0.9240 1.0602 0.4153
C7 C 0.9733(8) 1.2822(7) 0.3622(6)
H7 H 1.0661 1.2924 0.3989
C8 C -0.0824(7) 0.4063(7) 0.2980(5)
C9 C -0.2205(9) 0.3809(7) 0.2414(6)
H8 H -0.2606 0.4604 0.1965
C10 C 0.7053(8) 1.2387(7) 0.2532(6)
H9 H 0.6153 1.2235 0.2148
C11 C 0.7031(8) 0.8428(7) 0.1035(6)
C12 C 0.7090(10) 0.8198(8) -0.0321(6)
H10 H 0.8208 0.8550 -0.0842
H11 H 0.6157 0.8821 -0.0537
C13 C 0.6871(9) 0.6498(8) -0.0587(6)
H12 H 0.6989 0.6399 -0.1473
H13 H 0.7813 0.5883 -0.0376
C14 C 0.5111(9) 0.5854(8) 0.0134(6)
H14 H 0.4169 0.6470 -0.0076
H15 H 0.4993 0.5952 0.1021
Cu1A Cu 0.39325(10) 0.06847(8) -0.33669(7)
Cu1_2 Cu -0.39325(10) -0.06847(8) 0.33669(7)
Cu1_3 Cu 1.60675(10) 1.93153(8) 0.33669(7)
Cl1A Cl 0.3334(2) 0.16435(17) -0.51410(14)
O1A O 0.3890(6) 0.0422(5) -0.1570(4)
O2A O 0.2150(7) 0.2476(6) -0.1603(5)
N1A N 0.6018(7) 0.2009(6) -0.3486(5)
N1_2 N 1.3982(7) 1.7991(6) 0.3486(5)
N2_2 N 0.9783(7) 1.5556(6) 0.2848(5)
H1_2 H 0.917(8) 1.615(7) 0.244(6)
N3A N 0.2432(7) -0.1186(6) -0.3183(5)
N3_2 N -0.2432(7) 0.1186(6) 0.3183(5)
C1_2 C 1.2698(8) 1.8646(7) 0.3016(6)
H2_2 H 1.2756 1.9697 0.2807
C2_2 C 1.1332(8) 1.7853(7) 0.2832(6)
H3_2 H 1.0483 1.8368 0.2509
C3_2 C 1.1183(8) 1.6254(7) 0.3123(5)
C4_2 C 1.2487(8) 1.5581(7) 0.3649(5)
H4_2 H 1.2446 1.4540 0.3889
C5_2 C 1.3830(8) 1.6486(7) 0.3807(5)
H5_2 H 1.4680 1.6020 0.4156
C6_2 C -0.1125(8) 0.1419(7) 0.3706(6)
H6_2 H -0.0760 0.0602 0.4153
C7_2 C -0.0267(8) 0.2822(7) 0.3622(6)
H7_2 H 0.0661 0.2924 0.3989
C8_2 C 0.9176(7) 1.4063(7) 0.2980(5)
C9_2 C 0.7795(9) 1.3809(7) 0.2414(6)
H8_2 H 0.7394 1.4604 0.1965
C10_2 C -0.2947(8) 0.2387(7) 0.2532(6)
H9_2 H -0.3847 0.2235 0.2148
C11A C 0.2969(8) 0.1572(7) -0.1035(6)
C12A C 0.2910(10) 0.1802(8) 0.0321(6)
H10A H 0.1792 0.1450 0.0842
H11A H 0.3843 0.1179 0.0537
C13A C 0.3129(9) 0.3502(8) 0.0587(6)
H12A H 0.3011 0.3601 0.1473
H13A H 0.2187 0.4117 0.0376
C14A C 0.4889(9) 0.4146(8) -0.0134(6)
H14A H 0.5831 0.3530 0.0076
H15A H 0.5007 0.4048 -0.1021
loop_
_geom_bond_atom_site_label_1
_geom_bond_atom_site_label_2
_geom_bond_site_symmetry_1
_geom_bond_site_symmetry_2
Cu1 Cl1 1_555 1_555
O1 Cu1 1_555 1_555
O2 C11 1_555 1_555
N1 Cu1 1_555 1_555
N2 H1 1_555 1_555
N3 Cu1 1_555 1_555
C1 N1 1_555 1_555
H2 C1 1_555 1_555
C2 C1 1_555 1_555
H3 C2 1_555 1_555
C3 N2 1_555 1_555
C4 C3 1_555 1_555
H4 C4 1_555 1_555
C5 N1 1_555 1_555
H5 C5 1_555 1_555
C6 N3 1_555 1_555
H6 C6 1_555 1_555
C7 C6 1_555 1_555
H7 C7 1_555 1_555
C8 N2 1_555 1_555
C9 C8 1_555 1_555
H8 C9 1_555 1_555
C10 N3 1_555 1_555
H9 C10 1_555 1_555
C11 O1 1_555 1_555
C12 C11 1_555 1_555
H10 C12 1_555 1_555
H11 C12 1_555 1_555
C13 C12 1_555 1_555
H12 C13 1_555 1_555
H13 C13 1_555 1_555
C14 C13 1_555 1_555
H14 C14 1_555 1_555
H15 C14 1_555 1_555
Cu1A Cl1A 1_555 1_555
Cu1_2 N3_2 1_555 1_555
Cu1_3 N1_2 1_555 1_555
O1A Cu1A 1_555 1_555
O2A C11A 1_555 1_555
N1A Cu1A 1_555 1_555
N1_2 C1_2 1_555 1_555
N2_2 H1_2 1_555 1_555
N3A Cu1A 1_555 1_555
N3_2 C6_2 1_555 1_555
C1_2 H2_2 1_555 1_555
C2_2 C1_2 1_555 1_555
H3_2 C2_2 1_555 1_555
C3_2 N2_2 1_555 1_555
C4_2 C3_2 1_555 1_555
H4_2 C4_2 1_555 1_555
C5_2 N1_2 1_555 1_555
H5_2 C5_2 1_555 1_555
C6_2 H6_2 1_555 1_555
C7_2 C8 1_555 1_555
H7_2 C7_2 1_555 1_555
C8_2 C7 1_555 1_555
C9_2 C10 1_555 1_555
H8_2 C9_2 1_555 1_555
C10_2 C9 1_555 1_555
H9_2 C10_2 1_555 1_555
C11A O1A 1_555 1_555
C12A C11A 1_555 1_555
H10A C12A 1_555 1_555
H11A C12A 1_555 1_555
C13A C12A 1_555 1_555
H12A C13A 1_555 1_555
H13A C13A 1_555 1_555
C14A C14 1_555 1_555
H14A C14A 1_555 1_555
H15A C14A 1_555 1_555
C2 C3 1_555 1_555
C4 C5 1_555 1_555
N2_2 C8_2 1_555 1_555
N3_2 C10_2 1_555 1_555
C2_2 C3_2 1_555 1_555
C4_2 C5_2 1_555 1_555
C6_2 C7_2 1_555 1_555
C8_2 C9_2 1_555 1_555
C13A C14A 1_555 1_555

#END
