
#######################################################################
#
#                 Cambridge Crystallographic Data Centre
#                                CCDC 
#
#######################################################################
#
# If this CIF has been generated from an entry in the Cambridge 
# Structural Database, then it will include bibliographic, chemical, 
# crystal, experimental, refinement or atomic coordinate data resulting 
# from the CCDC's data processing and validation procedures.
#
#######################################################################

data_ROJHUU
_symmetry_cell_setting           triclinic
_symmetry_space_group_name_H-M   'P -1'
_symmetry_Int_Tables_number      2
_space_group_name_Hall           '-P 1'
loop_
_symmetry_equiv_pos_site_id
_symmetry_equiv_pos_as_xyz
1 x,y,z
2 -x,-y,-z
_cell_length_a                   9.2188(18)
_cell_length_b                   9.5869(19)
_cell_length_c                   11.612(2)
_cell_angle_alpha                89.65(3)
_cell_angle_beta                 67.52(3)
_cell_angle_gamma                77.37(3)
_cell_volume                     921.912
loop_
_atom_site_label
_atom_site_type_symbol
_atom_site_fract_x
_atom_site_fract_y
_atom_site_fract_z
Co1 Co 0.0000 0.0000 0.0000
N1 N -0.0953(5) -0.1893(4) 0.0063(4)
N2 N -0.2012(5) -0.2166(4) 0.1113(4)
N3 N -0.2409(5) -0.3390(5) 0.0902(5)
N4 N -0.9365(5) -0.0509(4) 0.1635(4)
N5 N -0.7827(5) -0.0738(5) 0.1403(4)
N6 N -0.7601(5) -0.1218(4) 0.2436(4)
N7 N -0.2253(5) 0.1173(5) 0.1158(4)
S1 S -0.5454(2) 0.2741(3) 0.2036(3)
C1 C -0.1584(6) -0.3920(5) -0.0316(5)
C2 C -0.1541(8) -0.5146(6) -0.0998(8)
H1 H -0.2156 -0.5803 -0.0636
C3 C -0.0523(9) -0.5301(7) -0.2242(8)
H2 H -0.0459 -0.6089 -0.2737
C4 C 0.0412(8) -0.4341(6) -0.2790(6)
H3 H 0.1081 -0.4511 -0.3635
C5 C 0.0388(7) -0.3145(6) -0.2131(5)
H4 H 0.1013 -0.2501 -0.2508
C6 C -0.0625(6) -0.2949(5) -0.0868(5)
C7 C -0.3634(7) -0.3920(7) 0.1905(7)
H5 H -0.319(9) -0.519(8) 0.170(7)
H6 H -0.360(7) -0.382(6) 0.272(6)
C8 C -1.0178(6) -0.0835(5) 0.2843(5)
C9 C -1.1814(6) -0.0763(6) 0.3542(5)
H7 H -1.2594 -0.0419 0.3221
C10 C -1.2219(7) -0.1224(6) 0.4728(6)
H8 H -1.3294 -0.1202 0.5214
C11 C -1.1034(8) -0.1729(7) 0.5220(5)
H9 H -1.1354 -0.2029 0.6024
C12 C -0.9432(8) -0.1791(6) 0.4555(5)
H10 H -0.8655 -0.2128 0.4881
C13 C -0.9032(6) -0.1316(5) 0.3357(5)
C14 C -0.5954(7) -0.1702(6) 0.2364(6)
H11 H -0.5931 -0.1531 0.3179
H12 H -0.5264 -0.1164 0.1779
C15 C -0.5329(7) -0.3295(6) 0.1937(7)
H13 H -0.605(7) -0.383(6) 0.263(5)
H14 H -0.553(8) -0.332(7) 0.103(6)
C16 C -0.3586(7) 0.1821(6) 0.1531(5)
Co1_2 Co -1.0000 0.0000 0.0000
Co1_3 Co 1.0000 0.0000 0.0000
N1A N 0.0953(5) 0.1893(4) -0.0063(4)
N2A N 0.2012(5) 0.2166(4) -0.1113(4)
N3A N 0.2409(5) 0.3390(5) -0.0902(5)
N4A N -0.0635(5) 0.0509(4) -0.1635(4)
N4_2 N 0.0635(5) -0.0509(4) 0.1635(4)
N4A_2 N 0.9365(5) 0.0509(4) -0.1635(4)
N5A N 0.7827(5) 0.0738(5) -0.1403(4)
N6A N 0.7601(5) 0.1218(4) -0.2436(4)
N7A N 0.2253(5) -0.1173(5) -0.1158(4)
S1A S 0.5454(2) -0.2741(3) -0.2036(3)
C1A C 0.1584(6) 0.3920(5) 0.0316(5)
C2A C 0.1541(8) 0.5146(6) 0.0998(8)
H1A H 0.2156 0.5803 0.0636
C3A C 0.0523(9) 0.5301(7) 0.2242(8)
H2A H 0.0459 0.6089 0.2737
C4A C -0.0412(8) 0.4341(6) 0.2790(6)
H3A H -0.1081 0.4511 0.3635
C5A C -0.0388(7) 0.3145(6) 0.2131(5)
H4A H -0.1013 0.2501 0.2508
C6A C 0.0625(6) 0.2949(5) 0.0868(5)
C7A C 0.3634(7) 0.3920(7) -0.1905(7)
H5A H 0.319(9) 0.519(8) -0.170(7)
H6A H 0.360(7) 0.382(6) -0.272(6)
C8A C 1.0178(6) 0.0835(5) -0.2843(5)
C9A C 1.1814(6) 0.0763(6) -0.3542(5)
H7A H 1.2594 0.0419 -0.3221
C10A C 1.2219(7) 0.1224(6) -0.4728(6)
H8A H 1.3294 0.1202 -0.5214
C11A C 1.1034(8) 0.1729(7) -0.5220(5)
H9A H 1.1354 0.2029 -0.6024
C12A C 0.9432(8) 0.1791(6) -0.4555(5)
H10A H 0.8655 0.2128 -0.4881
C13A C 0.9032(6) 0.1316(5) -0.3357(5)
C14A C 0.5954(7) 0.1702(6) -0.2364(6)
H11A H 0.5931 0.1531 -0.3179
H12A H 0.5264 0.1164 -0.1779
C15A C 0.5329(7) 0.3295(6) -0.1937(7)
H13A H 0.605(7) 0.383(6) -0.263(5)
H14A H 0.553(8) 0.332(7) -0.103(6)
C16A C 0.3586(7) -0.1821(6) -0.1531(5)
O1 O -0.476(4) 0.370(3) 0.4646(19)
H15 H -0.433(10) 0.298(8) 0.470(8)
H16? H -0.475(8) 0.469(7) 0.509(7)
loop_
_geom_bond_atom_site_label_1
_geom_bond_atom_site_label_2
_geom_bond_site_symmetry_1
_geom_bond_site_symmetry_2
Co1 N1 1_555 1_555
N1 N2 1_555 1_555
N2 N3 1_555 1_555
N3 C1 1_555 1_555
N4 N5 1_555 1_555
N5 N6 1_555 1_555
N6 C13 1_555 1_555
N7 Co1 1_555 1_555
S1 C16 1_555 1_555
C1 C2 1_555 1_555
C2 H1 1_555 1_555
C3 C2 1_555 1_555
H2 C3 1_555 1_555
C4 C3 1_555 1_555
H3 C4 1_555 1_555
C5 C4 1_555 1_555
H4 C5 1_555 1_555
C6 N1 1_555 1_555
C7 N3 1_555 1_555
H5 C7 1_555 1_555
H6 C7 1_555 1_555
C8 N4 1_555 1_555
C9 C8 1_555 1_555
H7 C9 1_555 1_555
C10 C9 1_555 1_555
H8 C10 1_555 1_555
C11 C10 1_555 1_555
H9 C11 1_555 1_555
C12 C11 1_555 1_555
H10 C12 1_555 1_555
C13 C8 1_555 1_555
C14 N6 1_555 1_555
H11 C14 1_555 1_555
H12 C14 1_555 1_555
C15 C7 1_555 1_555
H13 C15 1_555 1_555
H14 C15 1_555 1_555
C16 N7 1_555 1_555
O1 H15 1_555 1_555
Co1_2 N4 1_555 1_555
Co1_3 N4A_2 1_555 1_555
N1A Co1 1_555 1_555
N2A N1A 1_555 1_555
N3A N2A 1_555 1_555
N4A Co1 1_555 1_555
N4_2 Co1 1_555 1_555
N4A_2 N5A 1_555 1_555
N5A N6A 1_555 1_555
N6A C13A 1_555 1_555
N7A Co1 1_555 1_555
S1A C16A 1_555 1_555
C1A N3A 1_555 1_555
C2A C1A 1_555 1_555
H1A C2A 1_555 1_555
C3A C2A 1_555 1_555
H2A C3A 1_555 1_555
C4A C3A 1_555 1_555
H3A C4A 1_555 1_555
C5A C4A 1_555 1_555
H4A C5A 1_555 1_555
C6A N1A 1_555 1_555
C7A N3A 1_555 1_555
H5A C7A 1_555 1_555
H6A C7A 1_555 1_555
C8A N4A_2 1_555 1_555
C9A C8A 1_555 1_555
H7A C9A 1_555 1_555
C10A C9A 1_555 1_555
H8A C10A 1_555 1_555
C11A C10A 1_555 1_555
H9A C11A 1_555 1_555
C12A C11A 1_555 1_555
H10A C12A 1_555 1_555
C13A C8A 1_555 1_555
C14A N6A 1_555 1_555
H11A C14A 1_555 1_555
H12A C14A 1_555 1_555
C15A C7A 1_555 1_555
H13A C15A 1_555 1_555
H14A C15A 1_555 1_555
C16A N7A 1_555 1_555
C1 C6 1_555 1_555
C5 C6 1_555 1_555
C12 C13 1_555 1_555
C14 C15 1_555 1_555
C1A C6A 1_555 1_555
C5A C6A 1_555 1_555
C12A C13A 1_555 1_555
C14A C15A 1_555 1_555

#END
