
#######################################################################
#
#                 Cambridge Crystallographic Data Centre
#                                CCDC 
#
#######################################################################
#
# If this CIF has been generated from an entry in the Cambridge 
# Structural Database, then it will include bibliographic, chemical, 
# crystal, experimental, refinement or atomic coordinate data resulting 
# from the CCDC's data processing and validation procedures.
#
#######################################################################

data_ROJHAA
_symmetry_cell_setting           monoclinic
_symmetry_space_group_name_H-M   'P 21/n'
_symmetry_Int_Tables_number      14
_space_group_name_Hall           '-P 2yn'
loop_
_symmetry_equiv_pos_site_id
_symmetry_equiv_pos_as_xyz
1 x,y,z
2 1/2-x,1/2+y,1/2-z
3 -x,-y,-z
4 1/2+x,1/2-y,1/2+z
_cell_length_a                   11.550(4)
_cell_length_b                   12.651(4)
_cell_length_c                   16.445(5)
_cell_angle_alpha                90
_cell_angle_beta                 107.607(6)
_cell_angle_gamma                90
_cell_volume                     2290.36
loop_
_atom_site_label
_atom_site_type_symbol
_atom_site_fract_x
_atom_site_fract_y
_atom_site_fract_z
Cu1 Cu 0.51288(5) 0.30184(4) -0.13090(3)
O1 O -0.3295(2) 0.3026(2) -0.03761(17)
O2 O -0.3327(2) 0.1459(2) -0.09731(18)
O3 O 0.3702(2) 0.2636(2) -0.22745(18)
O4 O 0.2912(3) 0.4245(2) -0.2598(2)
O5 O 0.4579(3) 0.4740(2) -0.1100(2)
H1 H 0.416(3) 0.485(4) -0.077(2)
H2 H 0.420(4) 0.482(4) -0.1616(13)
N1 N 0.4316(3) 0.2351(3) -0.0527(2)
N2 N 0.2891(3) 0.0704(3) 0.1163(2)
H3 H 0.305(4) 0.0034(17) 0.117(3)
N3 N 0.1010(3) 0.1540(3) 0.2876(2)
C1 C 0.4031(4) 0.2858(3) 0.0109(3)
H4 H 0.4186 0.3579 0.0174
C2 C 0.3526(4) 0.2372(3) 0.0661(3)
H5 H 0.3326 0.2767 0.1076
C3 C 0.3310(3) 0.1289(3) 0.0607(3)
C4 C 0.3600(4) 0.0762(3) -0.0058(3)
H6 H 0.3467 0.0039 -0.0133
C5 C 0.4075(4) 0.1312(3) -0.0594(3)
H7 H 0.4243 0.0944 -0.1035
C6 C 0.1630(4) 0.0623(3) 0.2938(3)
H8 H 0.1618 0.0156 0.3371
C7 C 0.2274(4) 0.0347(3) 0.2396(3)
H9 H 0.2691 -0.0292 0.2467
C8 C 0.2302(4) 0.1031(3) 0.1733(3)
C9 C 0.1669(3) 0.1980(3) 0.1673(3)
H10 H 0.1668 0.2464 0.1247
C10 C 0.1049(4) 0.2198(3) 0.2243(3)
H11 H 0.0633 0.2836 0.2190
C11 C -0.2795(4) 0.2128(3) -0.0436(3)
C12 C -0.1541(4) 0.1909(4) 0.0171(3)
H12 H -0.1606 0.1405 0.0599
H13 H -0.1205 0.2559 0.0460
C13 C -0.0683(4) 0.1471(4) -0.0297(3)
H14 H 0.0071 0.1254 0.0119
H15 H -0.1049 0.0851 -0.0620
C14 C -0.0404(4) 0.2275(4) -0.0900(3)
H16 H 0.0076 0.2845 -0.0569
H17 H -0.1159 0.2574 -0.1259
C15 C 0.0287(4) 0.1784(4) -0.1462(3)
H18 H 0.0996 0.1421 -0.1099
H19 H -0.0229 0.1258 -0.1827
C16 C 0.0698(4) 0.2568(4) -0.2019(3)
H20 H 0.0022 0.3020 -0.2310
H21 H 0.1336 0.3011 -0.1661
C17 C 0.1167(4) 0.2010(4) -0.2674(3)
H22 H 0.0505 0.1612 -0.3056
H23 H 0.1790 0.1510 -0.2382
C18 C 0.1693(4) 0.2752(3) -0.3205(3)
H24 H 0.1869 0.2354 -0.3658
H25 H 0.1098 0.3289 -0.3466
C19 C 0.2834(4) 0.3273(3) -0.2664(3)
Cu1_2 Cu -0.48712(5) 0.30184(4) -0.13090(3)
Cu1C Cu 0.01288(5) 0.19816(4) 0.36910(3)
O1_2 O 0.6705(2) 0.3026(2) -0.03761(17)
N3C N 0.6010(3) 0.3460(3) -0.2124(2)
O6 O -0.6132(3) 0.0522(3) -0.2820(2)
H26 H -0.658(4) 0.008(3) -0.269(3)
H27 H -0.624(4) 0.1157(17) -0.271(3)
O7 O -0.2508(4) 0.4865(3) 0.0491(3)
H28 H -0.172(2) 0.472(4) 0.055(4)
H29 H -0.283(4) 0.426(3) 0.028(3)
O8 O -0.8787(5) 0.4283(4) 0.0592(3)
H30 H -0.939(5) 0.430(6) 0.082(4)
H31 H -0.890(6) 0.479(4) 0.021(4)
loop_
_geom_bond_atom_site_label_1
_geom_bond_atom_site_label_2
_geom_bond_site_symmetry_1
_geom_bond_site_symmetry_2
Cu1 O3 1_555 1_555
O1 C11 1_555 1_555
O2 C11 1_555 1_555
O3 C19 1_555 1_555
O4 C19 1_555 1_555
O5 Cu1 1_555 1_555
H1 O5 1_555 1_555
H2 O5 1_555 1_555
N1 Cu1 1_555 1_555
N2 H3 1_555 1_555
N3 C6 1_555 1_555
C1 N1 1_555 1_555
H4 C1 1_555 1_555
C2 C1 1_555 1_555
H5 C2 1_555 1_555
C3 N2 1_555 1_555
C4 C3 1_555 1_555
H6 C4 1_555 1_555
C5 N1 1_555 1_555
H7 C5 1_555 1_555
C6 H8 1_555 1_555
C7 C6 1_555 1_555
H9 C7 1_555 1_555
C8 N2 1_555 1_555
C9 C8 1_555 1_555
H10 C9 1_555 1_555
C10 N3 1_555 1_555
H11 C10 1_555 1_555
C11 C12 1_555 1_555
C12 H12 1_555 1_555
H13 C12 1_555 1_555
C13 C12 1_555 1_555
H14 C13 1_555 1_555
H15 C13 1_555 1_555
C14 C13 1_555 1_555
H16 C14 1_555 1_555
H17 C14 1_555 1_555
C15 C14 1_555 1_555
H18 C15 1_555 1_555
H19 C15 1_555 1_555
C16 C15 1_555 1_555
H20 C16 1_555 1_555
H21 C16 1_555 1_555
C17 C16 1_555 1_555
H22 C17 1_555 1_555
H23 C17 1_555 1_555
C18 C17 1_555 1_555
H24 C18 1_555 1_555
H25 C18 1_555 1_555
C19 C18 1_555 1_555
O6 H26 1_555 1_555
H27 O6 1_555 1_555
O7 H28 1_555 1_555
H29 O7 1_555 1_555
O8 H30 1_555 1_555
H31 O8 1_555 1_555
Cu1_2 O1 1_555 1_555
Cu1C N3 1_555 1_555
O1_2 Cu1 1_555 1_555
N3C Cu1 1_555 1_555
C2 C3 1_555 1_555
C4 C5 1_555 1_555
C7 C8 1_555 1_555
C9 C10 1_555 1_555

#END
