
#######################################################################
#
#                 Cambridge Crystallographic Data Centre
#                                CCDC 
#
#######################################################################
#
# If this CIF has been generated from an entry in the Cambridge 
# Structural Database, then it will include bibliographic, chemical, 
# crystal, experimental, refinement or atomic coordinate data resulting 
# from the CCDC's data processing and validation procedures.
#
#######################################################################

data_ROJHOO
_symmetry_cell_setting           triclinic
_symmetry_space_group_name_H-M   'P -1'
_symmetry_Int_Tables_number      2
_space_group_name_Hall           '-P 1'
loop_
_symmetry_equiv_pos_site_id
_symmetry_equiv_pos_as_xyz
1 x,y,z
2 -x,-y,-z
_cell_length_a                   9.1434(18)
_cell_length_b                   9.5702(19)
_cell_length_c                   11.415(2)
_cell_angle_alpha                88.66(3)
_cell_angle_beta                 67.79(3)
_cell_angle_gamma                78.38(3)
_cell_volume                     904.263
loop_
_atom_site_label
_atom_site_type_symbol
_atom_site_fract_x
_atom_site_fract_y
_atom_site_fract_z
S1 S 0.53665(12) -0.27478(13) -0.19722(14)
Ni1 Ni 0.0000 0.0000 0.0000
C1 C 0.0202(3) 0.0840(3) -0.2858(3)
C2 C 0.1853(3) 0.0747(3) -0.3576(3)
H1 H 0.2632 0.0390 -0.3245
C3 C 0.2270(4) 0.1203(4) -0.4786(4)
H2 H 0.3354 0.1163 -0.5280
C4 C 0.1096(4) 0.1733(4) -0.5304(3)
H3 H 0.1428 0.2044 -0.6123
C5 C -0.0507(4) 0.1800(4) -0.4633(3)
H4 H -0.1276 0.2140 -0.4977
C6 C -0.0940(3) 0.1329(3) -0.3394(3)
C7 C -0.4036(3) 0.1713(3) -0.2412(3)
H5 H -0.4754 0.1182 -0.1807
H6 H -0.4057 0.1541 -0.3239
C8 C -0.4605(3) 0.3284(4) -0.2029(4)
H7 H -0.396(3) 0.374(3) -0.255(3)
H8 H -0.461(3) 0.351(3) -0.104(3)
C9 C -0.6279(4) 0.3876(4) -0.2025(4)
H9 H -0.651(3) 0.482(3) -0.188(2)
H10 H -0.643(4) 0.362(4) -0.276(4)
C10 C -0.8353(3) 0.3902(3) 0.0230(3)
C11 C -0.8365(4) 0.5120(4) 0.0877(4)
H11 H -0.7721 0.5768 0.0488
C12 C -0.9402(4) 0.5302(4) 0.2142(4)
H12 H -0.9443 0.6097 0.2616
C13 C -1.0393(4) 0.4338(4) 0.2738(4)
H13 H -1.1070 0.4514 0.3588
C14 C -1.0380(4) 0.3140(3) 0.2090(3)
H14 H -1.1029 0.2498 0.2485
C15 C -0.9349(3) 0.2928(3) 0.0811(3)
C16 C 0.3516(4) -0.1787(3) -0.1490(3)
N1 N -0.0621(3) 0.0510(2) -0.1619(2)
N2 N -0.2178(3) 0.0739(3) -0.1404(3)
N3 N -0.2383(3) 0.1221(3) -0.2456(3)
N4 N -0.9054(3) 0.1857(2) -0.0090(2)
N5 N -0.7951(3) 0.2131(3) -0.1172(2)
N6 N -0.7529(3) 0.3361(3) -0.0994(3)
N7 N 0.2213(3) -0.1128(3) -0.1138(3)
S1A S -0.53665(12) 0.27478(13) 0.19722(14)
Ni1_2 Ni -1.0000 0.0000 0.0000
Ni1_3 Ni 1.0000 0.0000 0.0000
C1_2 C 1.0202(3) 0.0840(3) -0.2858(3)
C2_2 C 1.1853(3) 0.0747(3) -0.3576(3)
H1_2 H 1.2632 0.0390 -0.3245
C3_2 C 1.2270(4) 0.1203(4) -0.4786(4)
H2_2 H 1.3354 0.1163 -0.5280
C4_2 C 1.1096(4) 0.1733(4) -0.5304(3)
H3_2 H 1.1428 0.2044 -0.6123
C5_2 C 0.9493(4) 0.1800(4) -0.4633(3)
H4_2 H 0.8724 0.2140 -0.4977
C6_2 C 0.9060(3) 0.1329(3) -0.3394(3)
C7_2 C 0.5964(3) 0.1713(3) -0.2412(3)
H5_2 H 0.5246 0.1182 -0.1807
H6_2 H 0.5943 0.1541 -0.3239
C8_2 C 0.5395(3) 0.3284(4) -0.2029(4)
H7_2 H 0.604(3) 0.374(3) -0.255(3)
H8_2 H 0.539(3) 0.351(3) -0.104(3)
C9_2 C 0.3721(4) 0.3876(4) -0.2025(4)
H9_2 H 0.349(3) 0.482(3) -0.188(2)
H10_2 H 0.357(4) 0.362(4) -0.276(4)
C10_2 C 0.1647(3) 0.3902(3) 0.0230(3)
C11_2 C 0.1635(4) 0.5120(4) 0.0877(4)
H11_2 H 0.2279 0.5768 0.0488
C12_2 C 0.0598(4) 0.5302(4) 0.2142(4)
H12_2 H 0.0557 0.6097 0.2616
C13_2 C -0.0393(4) 0.4338(4) 0.2738(4)
H13_2 H -0.1070 0.4514 0.3588
C14_2 C -0.0380(4) 0.3140(3) 0.2090(3)
H14_2 H -0.1029 0.2498 0.2485
C15_2 C 0.0651(3) 0.2928(3) 0.0811(3)
C16A C -0.3516(4) 0.1787(3) 0.1490(3)
N1_2 N 0.9379(3) 0.0510(2) -0.1619(2)
N1A N 0.0621(3) -0.0510(2) 0.1619(2)
N2_2 N 0.7822(3) 0.0739(3) -0.1404(3)
N3_2 N 0.7617(3) 0.1221(3) -0.2456(3)
N4_2 N 0.0946(3) 0.1857(2) -0.0090(2)
N4A N -0.0946(3) -0.1857(2) 0.0090(2)
N5_2 N 0.2049(3) 0.2131(3) -0.1172(2)
N6_2 N 0.2471(3) 0.3361(3) -0.0994(3)
N7A N -0.2213(3) 0.1128(3) 0.1138(3)
O1 O 0.4403(9) -0.3327(8) -0.4650(6)
loop_
_geom_bond_atom_site_label_1
_geom_bond_atom_site_label_2
_geom_bond_site_symmetry_1
_geom_bond_site_symmetry_2
S1 C16 1_555 1_555
Ni1 N1 1_555 1_555
C1 C2 1_555 1_555
C2 H1 1_555 1_555
C3 C2 1_555 1_555
H2 C3 1_555 1_555
C4 C3 1_555 1_555
H3 C4 1_555 1_555
C5 C4 1_555 1_555
H4 C5 1_555 1_555
C6 C1 1_555 1_555
C7 H5 1_555 1_555
H6 C7 1_555 1_555
C8 C7 1_555 1_555
H7 C8 1_555 1_555
H8 C8 1_555 1_555
C9 C8 1_555 1_555
H9 C9 1_555 1_555
H10 C9 1_555 1_555
C10 C11 1_555 1_555
C11 H11 1_555 1_555
C12 C11 1_555 1_555
H12 C12 1_555 1_555
C13 C12 1_555 1_555
H13 C13 1_555 1_555
C14 C13 1_555 1_555
H14 C14 1_555 1_555
C15 C10 1_555 1_555
C16 N7 1_555 1_555
N1 C1 1_555 1_555
N2 N1 1_555 1_555
N3 C6 1_555 1_555
N4 C15 1_555 1_555
N5 N4 1_555 1_555
N6 C9 1_555 1_555
N7 Ni1 1_555 1_555
S1A C16A 1_555 1_555
Ni1_2 N4 1_555 1_555
Ni1_3 N1_2 1_555 1_555
C1_2 C2_2 1_555 1_555
C2_2 H1_2 1_555 1_555
C3_2 C2_2 1_555 1_555
H2_2 C3_2 1_555 1_555
C4_2 C3_2 1_555 1_555
H3_2 C4_2 1_555 1_555
C5_2 C4_2 1_555 1_555
H4_2 C5_2 1_555 1_555
C6_2 C1_2 1_555 1_555
C7_2 H5_2 1_555 1_555
H6_2 C7_2 1_555 1_555
C8_2 C7_2 1_555 1_555
H7_2 C8_2 1_555 1_555
H8_2 C8_2 1_555 1_555
C9_2 C8_2 1_555 1_555
H9_2 C9_2 1_555 1_555
H10_2 C9_2 1_555 1_555
C10_2 C11_2 1_555 1_555
C11_2 H11_2 1_555 1_555
C12_2 C11_2 1_555 1_555
H12_2 C12_2 1_555 1_555
C13_2 C12_2 1_555 1_555
H13_2 C13_2 1_555 1_555
C14_2 C13_2 1_555 1_555
H14_2 C14_2 1_555 1_555
C15_2 C10_2 1_555 1_555
C16A N7A 1_555 1_555
N1_2 C1_2 1_555 1_555
N1A Ni1 1_555 1_555
N2_2 N1_2 1_555 1_555
N3_2 C6_2 1_555 1_555
N4_2 Ni1 1_555 1_555
N4A Ni1 1_555 1_555
N5_2 N4_2 1_555 1_555
N6_2 C9_2 1_555 1_555
N7A Ni1 1_555 1_555
C5 C6 1_555 1_555
C7 N3 1_555 1_555
C10 N6 1_555 1_555
C14 C15 1_555 1_555
N2 N3 1_555 1_555
N5 N6 1_555 1_555
C5_2 C6_2 1_555 1_555
C7_2 N3_2 1_555 1_555
C10_2 N6_2 1_555 1_555
C14_2 C15_2 1_555 1_555
C15_2 N4_2 1_555 1_555
N2_2 N3_2 1_555 1_555
N5_2 N6_2 1_555 1_555

#END
