
#######################################################################
#
#                 Cambridge Crystallographic Data Centre
#                                CCDC 
#
#######################################################################
#
# If this CIF has been generated from an entry in the Cambridge 
# Structural Database, then it will include bibliographic, chemical, 
# crystal, experimental, refinement or atomic coordinate data resulting 
# from the CCDC's data processing and validation procedures.
#
#######################################################################

data_ROJJAC
_symmetry_cell_setting           tetragonal
_symmetry_space_group_name_H-M   'P 43 21 2'
_symmetry_Int_Tables_number      96
_space_group_name_Hall           'P 4nw 2abw'
loop_
_symmetry_equiv_pos_site_id
_symmetry_equiv_pos_as_xyz
1 x,y,z
2 -x,-y,1/2+z
3 1/2-y,1/2+x,3/4+z
4 1/2+y,1/2-x,1/4+z
5 1/2-x,1/2+y,3/4-z
6 1/2+x,1/2-y,1/4-z
7 y,x,-z
8 -y,-x,1/2-z
_cell_length_a                   22.9892(8)
_cell_length_b                   22.9892(8)
_cell_length_c                   12.0722(8)
_cell_angle_alpha                90
_cell_angle_beta                 90
_cell_angle_gamma                90
_cell_volume                     6380.2
loop_
_atom_site_label
_atom_site_type_symbol
_atom_site_fract_x
_atom_site_fract_y
_atom_site_fract_z
Co1 Co 0.01711(3) -0.26874(4) 0.10434(6)
P1 P 0.02502(6) -0.37909(7) -0.09149(11)
P2 P -0.00446(17) -0.14899(14) -0.0631(3)
N1 N 0.02489(19) -0.3275(2) 0.2430(4)
N2 N 0.0250(2) -0.2102(2) 0.2462(4)
N3 N -0.0784(2) -0.2669(2) 0.1253(5)
N4 N -0.38704(18) -0.2393(2) 0.1588(4)
O1 O 0.0393(2) -0.4403(2) -0.0588(4)
O2 O 0.01175(19) -0.3370(2) 0.0000(3)
O3 O -0.0288(2) -0.37682(18) -0.1720(4)
H1 H -0.0306 -0.4073 -0.2073
O4 O 0.0111(2) -0.2028(3) -0.0036(5)
O5 O 0.0249(9) -0.0973(6) -0.0758(14)
O6 O -0.0528(14) -0.1164(6) 0.0173(14)
H2 H -0.0443 -0.0819 0.0236
C1 C 0.0241(3) -0.1526(3) 0.2487(6)
H3 H 0.0199 -0.1329 0.1819
C2 C 0.0292(3) -0.1197(4) 0.3445(7)
H4 H 0.0277 -0.0793 0.3416
C3 C 0.0362(4) -0.1466(4) 0.4394(7)
H5 H 0.0418 -0.1250 0.5036
C4 C 0.0353(3) -0.2081(3) 0.4455(5)
C5 C 0.0415(4) -0.2414(4) 0.5471(6)
H6 H 0.0457 -0.2221 0.6144
C6 C 0.0413(4) -0.3007(4) 0.5447(6)
H7 H 0.0465 -0.3211 0.6105
C7 C 0.0333(3) -0.3319(3) 0.4456(5)
C8 C 0.0319(4) -0.3935(3) 0.4372(6)
H8 H 0.0346 -0.4159 0.5010
C9 C 0.0268(3) -0.4195(3) 0.3392(7)
H9 H 0.0252 -0.4598 0.3347
C10 C 0.0238(3) -0.3849(3) 0.2408(6)
H10 H 0.0210 -0.4035 0.1726
C11 C 0.0296(2) -0.3008(3) 0.3433(5)
C12 C 0.0304(2) -0.2381(3) 0.3456(5)
C13 C -0.3611(2) -0.2910(3) 0.1685(6)
H11 H -0.8843 -0.1761 0.0738
C14 C -0.8523(2) -0.3082(3) 0.1016(6)
H12 H -0.8692 -0.3448 0.1076
C15 C -0.3019(3) -0.2982(3) 0.1678(7)
H13 H -0.7862 -0.1648 0.0736
C16 C -0.7927(2) -0.3031(2) 0.1033(6)
H14 H -0.7700 -0.3365 0.1098
C17 C -0.2653(2) -0.2512(2) 0.1545(5)
C18 C -0.2015(2) -0.2566(2) 0.1480(5)
C19 C -0.1724(2) -0.3083(3) 0.1341(8)
H15 H -0.6939 -0.1575 0.1184
C20 C -0.6646(3) -0.2888(3) 0.0988(14)
H16 H -0.6799 -0.3256 0.0858
C21 C -0.1135(2) -0.3119(3) 0.1237(7)
H17 H -0.0971 -0.3485 0.1149
C22 C -0.1062(3) -0.2162(3) 0.1364(17)
H18 H -0.0842 -0.1822 0.1338
C23 C -0.0442(5) -0.1675(4) -0.1849(8)
C24 C -0.0551(3) -0.2266(4) -0.2144(8)
H19 H -0.0423 -0.2565 -0.1686
C25 C -0.0851(4) -0.2396(4) -0.3131(7)
H20 H -0.0917 -0.2782 -0.3322
C26 C -0.1049(5) -0.1955(5) -0.3820(9)
H21 H -0.1263 -0.2038 -0.4456
C27 C -0.0916(6) -0.1391(7) -0.3525(10)
H22 H -0.1021 -0.1093 -0.4006
C28 C -0.0643(6) -0.1251(5) -0.2579(10)
H23 H -0.0587 -0.0861 -0.2406
C29 C 0.0867(2) -0.3503(3) -0.1713(5)
C30 C 0.1211(4) -0.3875(4) -0.2320(7)
H24 H 0.1129 -0.4272 -0.2323
C31 C 0.1674(5) -0.3666(5) -0.2925(8)
H25 H 0.1908 -0.3921 -0.3322
C32 C 0.1788(4) -0.3089(6) -0.2941(8)
H26 H 0.2098 -0.2951 -0.3361
C33 C 0.1463(4) -0.2709(5) -0.2364(7)
H27 H 0.1555 -0.2315 -0.2365
C34 C 0.0980(3) -0.2912(4) -0.1757(6)
H28 H 0.0739 -0.2651 -0.1389
Co1E Co -0.48289(3) -0.23126(4) 0.14566(6)
Co1_2 Co -0.98289(3) -0.26874(4) 0.10434(6)
P1E P -0.47498(6) -0.12091(7) 0.34149(11)
P2E P -0.50446(17) -0.35101(14) 0.3131(3)
N1E N -0.47511(19) -0.1725(2) 0.0070(4)
N2E N -0.4750(2) -0.2898(2) 0.0038(4)
N3E N -0.5784(2) -0.2331(2) 0.1247(5)
N4E N 0.11296(18) -0.2607(2) 0.0912(4)
N4E_2 N -0.88704(18) -0.2607(2) 0.0912(4)
O1E O -0.4607(2) -0.0597(2) 0.3088(4)
O2E O -0.48825(19) -0.1630(2) 0.2500(3)
O3E O -0.5288(2) -0.12318(18) 0.4220(4)
H1E H -0.5306 -0.0927 0.4573
O4E O -0.4889(2) -0.2972(3) 0.2536(5)
O5E O -0.4751(9) -0.4027(6) 0.3258(14)
O6E O -0.5528(14) -0.3836(6) 0.2327(14)
H2E H -0.5443 -0.4181 0.2264
C1E C -0.4759(3) -0.3474(3) 0.0013(6)
H3E H -0.4801 -0.3671 0.0681
C2E C -0.4708(3) -0.3803(4) -0.0945(7)
H4E H -0.4723 -0.4207 -0.0916
C3E C -0.4638(4) -0.3534(4) -0.1894(7)
H5E H -0.4582 -0.3750 -0.2536
C4E C -0.4647(3) -0.2919(3) -0.1955(5)
C5E C -0.4585(4) -0.2586(4) -0.2971(6)
H6E H -0.4543 -0.2779 -0.3644
C6E C -0.4587(4) -0.1993(4) -0.2947(6)
H7E H -0.4535 -0.1789 -0.3605
C7E C -0.4667(3) -0.1681(3) -0.1956(5)
C8E C -0.4681(4) -0.1065(3) -0.1872(6)
H8E H -0.4654 -0.0841 -0.2510
C9E C -0.4732(3) -0.0805(3) -0.0892(7)
H9E H -0.4748 -0.0402 -0.0847
C10E C -0.4762(3) -0.1151(3) 0.0092(6)
H10E H -0.4790 -0.0965 0.0774
C11E C -0.4704(2) -0.1992(3) -0.0933(5)
C12E C -0.4696(2) -0.2619(3) -0.0956(5)
C13E C -0.8611(2) -0.2090(3) 0.0815(6)
H11E H -0.3843 -0.3239 0.1762
C14E C -0.3523(2) -0.1918(3) 0.1484(6)
H12E H -0.3692 -0.1552 0.1424
C15E C -0.8019(3) -0.2018(3) 0.0822(7)
H13E H -0.2862 -0.3352 0.1764
C16E C -0.2927(2) -0.1969(2) 0.1467(6)
H14E H -0.2700 -0.1635 0.1402
C17E C -0.7653(2) -0.2488(2) 0.0955(5)
C18E C -0.7015(2) -0.2434(2) 0.1020(5)
C19E C -0.6724(2) -0.1917(3) 0.1159(8)
H15E H -0.1939 -0.3425 0.1316
C20E C -0.1646(3) -0.2112(3) 0.1512(14)
H16E H -0.1799 -0.1744 0.1642
C21E C -0.6135(2) -0.1881(3) 0.1263(7)
H17E H -0.5971 -0.1515 0.1351
C22E C -0.6062(3) -0.2838(3) 0.1136(17)
H18E H -0.5842 -0.3178 0.1162
C23E C -0.5442(5) -0.3325(4) 0.4349(8)
C24E C -0.5551(3) -0.2734(4) 0.4644(8)
H19E H -0.5423 -0.2435 0.4186
C25E C -0.5851(4) -0.2604(4) 0.5631(7)
H20E H -0.5917 -0.2218 0.5822
C26E C -0.6049(5) -0.3045(5) 0.6320(9)
H21E H -0.6263 -0.2962 0.6956
C27E C -0.5916(6) -0.3609(7) 0.6025(10)
H22E H -0.6021 -0.3907 0.6506
C28E C -0.5643(6) -0.3749(5) 0.5079(10)
H23E H -0.5587 -0.4139 0.4906
C29E C -0.4133(2) -0.1497(3) 0.4213(5)
C30E C -0.3789(4) -0.1125(4) 0.4820(7)
H24E H -0.3871 -0.0728 0.4823
C31E C -0.3326(5) -0.1334(5) 0.5425(8)
H25E H -0.3092 -0.1079 0.5822
C32E C -0.3212(4) -0.1911(6) 0.5441(8)
H26E H -0.2902 -0.2049 0.5861
C33E C -0.3537(4) -0.2291(5) 0.4864(7)
H27E H -0.3445 -0.2685 0.4865
C34E C -0.4020(3) -0.2088(4) 0.4257(6)
H28E H -0.4261 -0.2349 0.3889
O7 O 0.0096(4) 0.0096(4) 0.0000
loop_
_geom_bond_atom_site_label_1
_geom_bond_atom_site_label_2
_geom_bond_site_symmetry_1
_geom_bond_site_symmetry_2
Co1 N1 1_555 1_555
P1 O1 1_555 1_555
P2 O4 1_555 1_555
N1 C10 1_555 1_555
N2 Co1 1_555 1_555
N3 Co1 1_555 1_555
N4 C13 1_555 1_555
O2 Co1 1_555 1_555
O3 P1 1_555 1_555
H1 O3 1_555 1_555
O4 Co1 1_555 1_555
O5 P2 1_555 1_555
O6 P2 1_555 1_555
H2 O6 1_555 1_555
C1 N2 1_555 1_555
H3 C1 1_555 1_555
C2 C1 1_555 1_555
H4 C2 1_555 1_555
C3 C2 1_555 1_555
H5 C3 1_555 1_555
C4 C3 1_555 1_555
C5 C4 1_555 1_555
H6 C5 1_555 1_555
C6 C5 1_555 1_555
H7 C6 1_555 1_555
C7 C6 1_555 1_555
C8 C7 1_555 1_555
H8 C8 1_555 1_555
C9 C8 1_555 1_555
H9 C9 1_555 1_555
C10 C9 1_555 1_555
H10 C10 1_555 1_555
C11 N1 1_555 1_555
C12 N2 1_555 1_555
C13 C15 1_555 1_555
H11 C13E 1_555 1_555
C14 H12 1_555 1_555
C15 C17 1_555 1_555
H13 C15E 1_555 1_555
C16 C14 1_555 1_555
H14 C16 1_555 1_555
C17 C18 1_555 1_555
C18 C19 1_555 1_555
C19 C21 1_555 1_555
H15 C19E 1_555 1_555
C20 H16 1_555 1_555
C21 N3 1_555 1_555
H17 C21 1_555 1_555
C22 N3 1_555 1_555
H18 C22 1_555 1_555
C23 P2 1_555 1_555
C24 C23 1_555 1_555
H19 C24 1_555 1_555
C25 C24 1_555 1_555
H20 C25 1_555 1_555
C26 C25 1_555 1_555
H21 C26 1_555 1_555
C27 C26 1_555 1_555
H22 C27 1_555 1_555
C28 C23 1_555 1_555
H23 C28 1_555 1_555
C29 P1 1_555 1_555
C30 C29 1_555 1_555
H24 C30 1_555 1_555
C31 C30 1_555 1_555
H25 C31 1_555 1_555
C32 C31 1_555 1_555
H26 C32 1_555 1_555
C33 C32 1_555 1_555
H27 C33 1_555 1_555
C34 C29 1_555 1_555
H28 C34 1_555 1_555
Co1E N4 1_555 1_555
Co1_2 N4E_2 1_555 1_555
P1E O1E 1_555 1_555
P2E O4E 1_555 1_555
N1E Co1E 1_555 1_555
N2E Co1E 1_555 1_555
N3E Co1E 1_555 1_555
N4E Co1 1_555 1_555
N4E_2 C14 1_555 1_555
O2E Co1E 1_555 1_555
O3E P1E 1_555 1_555
H1E O3E 1_555 1_555
O4E Co1E 1_555 1_555
O5E P2E 1_555 1_555
O6E P2E 1_555 1_555
H2E O6E 1_555 1_555
C1E N2E 1_555 1_555
H3E C1E 1_555 1_555
C2E C1E 1_555 1_555
H4E C2E 1_555 1_555
C3E C2E 1_555 1_555
H5E C3E 1_555 1_555
C4E C3E 1_555 1_555
C5E C4E 1_555 1_555
H6E C5E 1_555 1_555
C6E C5E 1_555 1_555
H7E C6E 1_555 1_555
C7E C6E 1_555 1_555
C8E C7E 1_555 1_555
H8E C8E 1_555 1_555
C9E C8E 1_555 1_555
H9E C9E 1_555 1_555
C10E N1E 1_555 1_555
H10E C10E 1_555 1_555
C11E N1E 1_555 1_555
C12E N2E 1_555 1_555
C13E N4E_2 1_555 1_555
H11E C13 1_555 1_555
C14E N4 1_555 1_555
H12E C14E 1_555 1_555
C15E C13E 1_555 1_555
H13E C15 1_555 1_555
C16E C17 1_555 1_555
H14E C16E 1_555 1_555
C17E C16 1_555 1_555
C18E C20 1_555 1_555
C19E C18E 1_555 1_555
H15E C19 1_555 1_555
C20E C18 1_555 1_555
H16E C20E 1_555 1_555
C21E N3E 1_555 1_555
H17E C21E 1_555 1_555
C22E C20 1_555 1_555
H18E C22E 1_555 1_555
C23E P2E 1_555 1_555
C24E C23E 1_555 1_555
H19E C24E 1_555 1_555
C25E C24E 1_555 1_555
H20E C25E 1_555 1_555
C26E C25E 1_555 1_555
H21E C26E 1_555 1_555
C27E C26E 1_555 1_555
H22E C27E 1_555 1_555
C28E C23E 1_555 1_555
H23E C28E 1_555 1_555
C29E P1E 1_555 1_555
C30E C29E 1_555 1_555
H24E C30E 1_555 1_555
C31E C30E 1_555 1_555
H25E C31E 1_555 1_555
C32E C31E 1_555 1_555
H26E C32E 1_555 1_555
C33E C32E 1_555 1_555
H27E C33E 1_555 1_555
C34E C29E 1_555 1_555
H28E C34E 1_555 1_555
P1 O2 1_555 1_555
C4 C12 1_555 1_555
C7 C11 1_555 1_555
C11 C12 1_555 1_555
C22 C20E 1_555 1_555
C27 C28 1_555 1_555
C33 C34 1_555 1_555
P1E O2E 1_555 1_555
N3E C22E 1_555 1_555
C4E C12E 1_555 1_555
C7E C11E 1_555 1_555
C9E C10E 1_555 1_555
C11E C12E 1_555 1_555
C14E C16E 1_555 1_555
C15E C17E 1_555 1_555
C17E C18E 1_555 1_555
C19E C21E 1_555 1_555
C27E C28E 1_555 1_555
C33E C34E 1_555 1_555

#END
