
#######################################################################
#
#                 Cambridge Crystallographic Data Centre
#                                CCDC 
#
#######################################################################
#
# If this CIF has been generated from an entry in the Cambridge 
# Structural Database, then it will include bibliographic, chemical, 
# crystal, experimental, refinement or atomic coordinate data resulting 
# from the CCDC's data processing and validation procedures.
#
#######################################################################

data_ROJJUW
_symmetry_cell_setting           monoclinic
_symmetry_space_group_name_H-M   'C 2/c'
_symmetry_Int_Tables_number      15
_space_group_name_Hall           '-C 2yn'
loop_
_symmetry_equiv_pos_site_id
_symmetry_equiv_pos_as_xyz
1 x,y,z
2 1/2+x,1/2+y,z
3 -x,y,1/2-z
4 1/2-x,1/2+y,1/2-z
5 -x,-y,-z
6 1/2-x,1/2-y,-z
7 x,-y,1/2+z
8 1/2+x,1/2-y,1/2+z
_cell_length_a                   31.003(3)
_cell_length_b                   6.0678(6)
_cell_length_c                   8.6899(10)
_cell_angle_alpha                90
_cell_angle_beta                 93.716(9)
_cell_angle_gamma                90
_cell_volume                     1631.31
loop_
_atom_site_label
_atom_site_type_symbol
_atom_site_fract_x
_atom_site_fract_y
_atom_site_fract_z
Ag1 Ag 0.229415(6) 0.88935(3) 0.29437(2)
S1 S 0.192718(17) 0.60764(9) -0.05541(6)
C1 C 0.14768(7) 0.4317(4) -0.0983(2)
C2 C 0.11427(7) 0.4990(4) -0.2011(2)
H1 H 0.1141 0.6401 -0.2428
C3 C 0.08112(8) 0.3528(4) -0.2406(3)
C4 C 0.08103(9) 0.1421(4) -0.1760(3)
H2 H 0.0590 0.0433 -0.2048
C5 C 0.11373(9) 0.0814(4) -0.0692(3)
H3 H 0.1130 -0.0565 -0.0226
C6 C 0.14753(8) 0.2236(4) -0.0308(3)
H4 H 0.1699 0.1808 0.0392
C7 C 0.04560(8) 0.4178(5) -0.3541(3)
O1 O 0.18586(6) 0.7168(3) 0.08928(19)
O2 O 0.19453(6) 0.7569(3) -0.1859(2)
O3 O 0.23055(6) 0.4620(3) -0.0439(2)
O4 O 0.03984(7) 0.6234(4) -0.3748(3)
H5 H 0.0200(15) 0.665(7) -0.436(5)
O5 O 0.02360(8) 0.2708(4) -0.4225(3)
Ag1F Ag 0.229415(6) 1.11065(3) -0.20563(2)
Ag1F_2 Ag 0.229415(6) 0.11065(3) -0.20563(2)
Ag1C Ag 0.270585(6) 0.38935(3) 0.20563(2)
O2F O 0.19453(6) 1.2431(3) 0.3141(2)
O3C O 0.26945(6) 0.9620(3) 0.5439(2)
O3F O 0.23055(6) 0.5380(3) 0.4561(2)
loop_
_geom_bond_atom_site_label_1
_geom_bond_atom_site_label_2
_geom_bond_site_symmetry_1
_geom_bond_site_symmetry_2
Ag1 O1 1_555 1_555
S1 C1 1_555 1_555
C1 C2 1_555 1_555
C2 H1 1_555 1_555
C3 C2 1_555 1_555
C4 C3 1_555 1_555
H2 C4 1_555 1_555
C5 C4 1_555 1_555
H3 C5 1_555 1_555
C6 C1 1_555 1_555
H4 C6 1_555 1_555
C7 C3 1_555 1_555
O1 S1 1_555 1_555
O2 S1 1_555 1_555
O3 S1 1_555 1_555
O4 C7 1_555 1_555
H5 O4 1_555 1_555
O5 C7 1_555 1_555
Ag1F O2 1_555 1_555
Ag1F_2 O3 1_555 1_555
Ag1C O3 1_555 1_555
O2F Ag1 1_555 1_555
O3C Ag1 1_555 1_555
O3F Ag1 1_555 1_555
C5 C6 1_555 1_555

#END
