
#######################################################################
#
#                 Cambridge Crystallographic Data Centre
#                                CCDC 
#
#######################################################################
#
# If this CIF has been generated from an entry in the Cambridge 
# Structural Database, then it will include bibliographic, chemical, 
# crystal, experimental, refinement or atomic coordinate data resulting 
# from the CCDC's data processing and validation procedures.
#
#######################################################################

data_ROJNAF
_symmetry_cell_setting           monoclinic
_symmetry_space_group_name_H-M   'P 21/c'
_symmetry_Int_Tables_number      14
_space_group_name_Hall           '-P 2ybc'
loop_
_symmetry_equiv_pos_site_id
_symmetry_equiv_pos_as_xyz
1 x,y,z
2 -x,1/2+y,1/2-z
3 -x,-y,-z
4 x,1/2-y,1/2+z
_cell_length_a                   7.637(3)
_cell_length_b                   8.410(3)
_cell_length_c                   9.082(3)
_cell_angle_alpha                90
_cell_angle_beta                 97.25(4)
_cell_angle_gamma                90
_cell_volume                     578.648
loop_
_atom_site_label
_atom_site_type_symbol
_atom_site_fract_x
_atom_site_fract_y
_atom_site_fract_z
V1 V 0.6421(1) 0.9416(1) 0.1208(1)
O1 O 0.4639(4) 1.2271(4) 0.3707(3)
O2 O 0.2425(4) 1.6581(4) 0.3479(3)
O3 O 0.9144(4) 0.9865(4) 0.6624(3)
O4 O 0.6834(4) 0.9145(3) 0.3434(3)
O5 O 0.4025(4) 1.4609(4) 0.5959(3)
O6 O 0.8890(5) 1.6546(4) 0.6191(4)
C1 C 0.6014(6) 1.1724(5) 0.4458(4)
C2 C 0.2764(6) 1.7797(5) 0.4259(4)
C3 C 0.8043(5) 1.0592(6) 0.5765(4)
C4 C 0.6938(5) 1.0259(5) 0.4362(5)
H1 H 0.6155(82) 1.5926(79) 0.3528(63)
H2 H 0.9000(60) 1.7479(63) 0.6327(47)
H3 H 0.9598(78) 1.6257(72) 0.6804(61)
V1A V 0.3579(1) 1.4416(1) 0.3792(1)
C1B C 0.3986(6) 1.8276(5) 0.5542(4)
O1B O 0.5361(4) 1.7729(4) 0.6293(3)
V1C V 0.6421(1) 1.5584(1) 0.6208(1)
O2B O 0.7575(4) 1.3419(4) 0.6521(3)
C2B C 0.7236(6) 1.2203(5) 0.5741(4)
O4C O 0.6834(4) 1.5855(3) 0.8434(3)
O4A O 0.3166(4) 1.4145(3) 0.1566(3)
O5B O 0.5975(4) 1.5391(4) 0.4041(3)
O6B O 0.1110(5) 1.3454(4) 0.3809(4)
H2B H 0.1000(60) 1.2521(63) 0.3673(47)
H3B H 0.0402(78) 1.3743(72) 0.3196(61)
H1B H 0.3845(82) 1.4074(79) 0.6472(63)
C4B C 0.3062(5) 1.9741(5) 0.5638(5)
O4B O 0.3166(4) 2.0855(3) 0.6566(3)
V1B V 0.3579(1) 2.0584(1) 0.8792(1)
C3B C 0.1957(5) 1.9408(6) 0.4235(4)
O3B O 0.0856(4) 2.0135(4) 0.3376(3)
loop_
_geom_bond_atom_site_label_1
_geom_bond_atom_site_label_2
_geom_bond_site_symmetry_1
_geom_bond_site_symmetry_2
V1 O4 1_555 1_555
O1 C1 1_555 1_555
O2 C2 1_555 1_555
O3 C3 1_555 1_555
O4 C4 1_555 1_555
O5 V1A 1_555 1_555
O6 H2 1_555 1_555
C1 C4 1_555 1_555
C2 C1B 1_555 1_555
C3 C4 1_555 1_555
H1 O5B 1_555 1_555
H3 O6 1_555 1_555
V1A O1 1_555 1_555
C1B O1B 1_555 1_555
O1B V1C 1_555 1_555
V1C O5 1_555 1_555
O2B V1C 1_555 1_555
C2B C1 1_555 1_555
O4C V1C 1_555 1_555
O4A V1A 1_555 1_555
O5B V1A 1_555 1_555
O6B V1A 1_555 1_555
H2B O6B 1_555 1_555
H3B O6B 1_555 1_555
H1B O5 1_555 1_555
C4B C1B 1_555 1_555
O4B C4B 1_555 1_555
V1B O4B 1_555 1_555
C3B C2 1_555 1_555
O3B C3B 1_555 1_555
O2 V1A 1_555 1_555
O6 V1C 1_555 1_555
C3 C2B 1_555 1_555
V1C O5B 1_555 1_555
O2B C2B 1_555 1_555
C4B C3B 1_555 1_555

#END
