
#######################################################################
#
#                 Cambridge Crystallographic Data Centre
#                                CCDC 
#
#######################################################################
#
# If this CIF has been generated from an entry in the Cambridge 
# Structural Database, then it will include bibliographic, chemical, 
# crystal, experimental, refinement or atomic coordinate data resulting 
# from the CCDC's data processing and validation procedures.
#
#######################################################################

data_ROJPUD
_symmetry_cell_setting           monoclinic
_symmetry_space_group_name_H-M   'C 2/c'
_symmetry_Int_Tables_number      15
_space_group_name_Hall           '-C 2yn'
loop_
_symmetry_equiv_pos_site_id
_symmetry_equiv_pos_as_xyz
1 x,y,z
2 -x,y,1/2-z
3 1/2+x,1/2+y,z
4 1/2-x,1/2+y,1/2-z
5 -x,-y,-z
6 x,-y,1/2+z
7 1/2-x,1/2-y,-z
8 1/2+x,1/2-y,1/2+z
_cell_length_a                   26.271(14)
_cell_length_b                   16.149(8)
_cell_length_c                   7.966(4)
_cell_angle_alpha                90
_cell_angle_beta                 92.850(9)
_cell_angle_gamma                90
_cell_volume                     3375.4
loop_
_atom_site_label
_atom_site_type_symbol
_atom_site_fract_x
_atom_site_fract_y
_atom_site_fract_z
La1 La 0.178195(11) 1.038866(17) 0.52637(3)
O1 O 0.22686(15) 0.5783(3) 0.8983(4)
O2 O 0.26658(15) 0.5160(2) 0.6982(4)
O3 O 0.18510(18) 0.8512(2) 0.8236(4)
O4 O 0.17976(15) 0.8810(2) 0.5506(4)
O5 O 0.12396(14) 0.9856(2) 0.2844(4)
O6 O 0.08448(16) 0.9186(3) 0.0760(4)
O7 O 0.18092(19) 1.1688(2) 0.7111(4)
H1 H 0.1831 1.1642 0.8175
H2 H 0.1797 1.2164 0.6659
C1 C 0.1372(2) 0.6057(4) 0.7084(7)
C2 C 0.1372(2) 0.6925(3) 0.7108(6)
C3 C 0.0974(2) 0.7324(4) 0.7867(7)
H3 H 0.0967 0.7899 0.7899
C4 C 0.0591(3) 0.6880(6) 0.8573(10)
H4 H 0.0324 0.7159 0.9051
C5 C 0.0600(3) 0.6017(6) 0.8578(10)
H5 H 0.0349 0.5716 0.9094
C6 C 0.0983(3) 0.5627(4) 0.7811(9)
H6 H 0.0984 0.5051 0.7772
C7 C 0.1809(2) 0.5587(3) 0.6339(7)
H7 H 0.1693 0.5035 0.6030
H8 H 0.1903 0.5865 0.5321
C8 C 0.2274(2) 0.5516(3) 0.7514(6)
C9 C 0.1803(2) 0.7393(3) 0.6347(6)
H9 H 0.2123 0.7146 0.6749
H10 H 0.1775 0.7320 0.5137
C10 C 0.1822(2) 0.8303(3) 0.6723(6)
C11 C 0.0236(2) 0.8283(4) 0.2975(6)
C12 C 0.0457(3) 0.7522(5) 0.3381(9)
H11 H 0.0773 0.7515 0.3957
C13 C 0.0232(4) 0.6793(4) 0.2975(12)
H12 H 0.0382 0.6296 0.3323
C14 C 0.0499(2) 0.9066(4) 0.3499(7)
H13 H 0.0680 0.8976 0.4575
H14 H 0.0244 0.9490 0.3656
C15 C 0.0872(2) 0.9382(3) 0.2268(6)
O5A O -0.12396(14) 0.9856(2) 0.2156(4)
O6A O -0.08448(16) 0.9186(3) 0.4240(4)
C11A C -0.0236(2) 0.8283(4) 0.2025(6)
C12A C -0.0457(3) 0.7522(5) 0.1619(9)
H11A H -0.0773 0.7515 0.1043
C13A C -0.0232(4) 0.6793(4) 0.2025(12)
H12A H -0.0382 0.6296 0.1677
C14A C -0.0499(2) 0.9066(4) 0.1501(7)
H13A H -0.0680 0.8976 0.0425
H14A H -0.0244 0.9490 0.1344
C15A C -0.0872(2) 0.9382(3) 0.2732(6)
La1A La -0.178195(11) 1.038866(17) -0.02637(3)
O1A O -0.22686(15) 0.5783(3) -0.3983(4)
O2A O -0.26658(15) 0.5160(2) -0.1982(4)
O3A O -0.18510(18) 0.8512(2) -0.3236(4)
O4A O -0.17976(15) 0.8810(2) -0.0506(4)
O7A O -0.18092(19) 1.1688(2) -0.2111(4)
H1A H -0.1831 1.1642 -0.3175
H2A H -0.1797 1.2164 -0.1659
C1A C -0.1372(2) 0.6057(4) -0.2084(7)
C2A C -0.1372(2) 0.6925(3) -0.2108(6)
C3A C -0.0974(2) 0.7324(4) -0.2867(7)
H3A H -0.0967 0.7899 -0.2899
C4A C -0.0591(3) 0.6880(6) -0.3573(10)
H4A H -0.0324 0.7159 -0.4051
C5A C -0.0600(3) 0.6017(6) -0.3578(10)
H5A H -0.0349 0.5716 -0.4094
C6A C -0.0983(3) 0.5627(4) -0.2811(9)
H6A H -0.0984 0.5051 -0.2772
C7A C -0.1809(2) 0.5587(3) -0.1339(7)
H7A H -0.1693 0.5035 -0.1030
H8A H -0.1903 0.5865 -0.0321
C8A C -0.2274(2) 0.5516(3) -0.2514(6)
C9A C -0.1803(2) 0.7393(3) -0.1347(6)
H9A H -0.2123 0.7146 -0.1749
H10A H -0.1775 0.7320 -0.0137
C10A C -0.1822(2) 0.8303(3) -0.1723(6)
La1B La -0.321805(11) 0.538866(17) -0.47363(3)
La1C La 0.321805(11) 0.538866(17) 0.97363(3)
La1D La -0.178195(11) 0.961134(17) -0.52637(3)
La1D_2 La -0.178195(11) 0.961134(17) 0.47363(3)
La1E La 0.178195(11) 0.961134(17) 0.02637(3)
La1E_2 La 0.178195(11) 0.961134(17) 1.02637(3)
La1F La 0.321805(11) 0.461134(17) 0.47363(3)
La1G La -0.321805(11) 0.461134(17) 0.02637(3)
O1B O -0.27314(15) 1.0783(3) -0.1017(4)
O1C O 0.27314(15) 1.0783(3) 0.6017(4)
O2B O -0.23342(15) 1.0160(2) -0.3018(4)
O2C O 0.23342(15) 1.0160(2) 0.8018(4)
O2F O 0.23342(15) 0.9840(2) 0.3018(4)
O2G O -0.23342(15) 0.9840(2) 0.1982(4)
O3D O -0.18510(18) 1.1488(2) 0.1764(4)
O3E O 0.18510(18) 1.1488(2) 0.3236(4)
O5D O -0.12396(14) 1.0144(2) -0.2844(4)
O5E O 0.12396(14) 1.0144(2) 0.7844(4)
O6D O -0.08448(16) 1.0814(3) -0.0760(4)
O6E O 0.08448(16) 1.0814(3) 0.5760(4)
O8 O 0.1684(2) 1.3332(3) 0.6392(6)
H15 H 0.1538 1.3624 0.5640
H16 H 0.1935 1.3581 0.6849
loop_
_geom_bond_atom_site_label_1
_geom_bond_atom_site_label_2
_geom_bond_site_symmetry_1
_geom_bond_site_symmetry_2
La1 O4 1_555 1_555
O1 C8 1_555 1_555
O2 C8 1_555 1_555
O3 C10 1_555 1_555
O4 C10 1_555 1_555
O5 La1 1_555 1_555
O6 C15 1_555 1_555
O7 La1 1_555 1_555
H1 O7 1_555 1_555
H2 O7 1_555 1_555
C1 C2 1_555 1_555
C2 C3 1_555 1_555
C3 H3 1_555 1_555
C4 C3 1_555 1_555
H4 C4 1_555 1_555
C5 C4 1_555 1_555
H5 C5 1_555 1_555
C6 C1 1_555 1_555
H6 C6 1_555 1_555
C7 C1 1_555 1_555
H7 C7 1_555 1_555
H8 C7 1_555 1_555
C8 C7 1_555 1_555
C9 C2 1_555 1_555
H9 C9 1_555 1_555
H10 C9 1_555 1_555
C10 C9 1_555 1_555
C11 C12 1_555 1_555
C12 H11 1_555 1_555
C13 C12 1_555 1_555
H12 C13 1_555 1_555
C14 C11 1_555 1_555
H13 C14 1_555 1_555
H14 C14 1_555 1_555
C15 O5 1_555 1_555
O8 H15 1_555 1_555
H16 O8 1_555 1_555
O5A C15A 1_555 1_555
O6A C15A 1_555 1_555
C11A C11 1_555 1_555
C12A C11A 1_555 1_555
H11A C12A 1_555 1_555
C13A C13 1_555 1_555
H12A C13A 1_555 1_555
C14A C11A 1_555 1_555
H13A C14A 1_555 1_555
H14A C14A 1_555 1_555
C15A C14A 1_555 1_555
La1A O5A 1_555 1_555
O1A C8A 1_555 1_555
O2A C8A 1_555 1_555
O3A C10A 1_555 1_555
O4A La1A 1_555 1_555
O7A La1A 1_555 1_555
H1A O7A 1_555 1_555
H2A O7A 1_555 1_555
C1A C2A 1_555 1_555
C2A C3A 1_555 1_555
C3A H3A 1_555 1_555
C4A C3A 1_555 1_555
H4A C4A 1_555 1_555
C5A C4A 1_555 1_555
H5A C5A 1_555 1_555
C6A C1A 1_555 1_555
H6A C6A 1_555 1_555
C7A C1A 1_555 1_555
H7A C7A 1_555 1_555
H8A C7A 1_555 1_555
C8A C7A 1_555 1_555
C9A C2A 1_555 1_555
H9A C9A 1_555 1_555
H10A C9A 1_555 1_555
C10A O4A 1_555 1_555
La1B O1A 1_555 1_555
La1C O1 1_555 1_555
La1D O3A 1_555 1_555
La1D_2 O5A 1_555 1_555
La1E O5 1_555 1_555
La1E_2 O3 1_555 1_555
La1F O2 1_555 1_555
La1G O2A 1_555 1_555
O1B La1A 1_555 1_555
O1C La1 1_555 1_555
O2B La1A 1_555 1_555
O2C La1 1_555 1_555
O2F La1 1_555 1_555
O2G La1A 1_555 1_555
O3D La1A 1_555 1_555
O3E La1 1_555 1_555
O5D La1A 1_555 1_555
O5E La1 1_555 1_555
O6D La1A 1_555 1_555
O6E La1 1_555 1_555
O2 La1C 1_555 1_555
O6 La1E 1_555 1_555
C5 C6 1_555 1_555
C14 C15 1_555 1_555
O6A La1D_2 1_555 1_555
C12A C13A 1_555 1_555
O2A La1B 1_555 1_555
C5A C6A 1_555 1_555
C9A C10A 1_555 1_555
La1D O2B 1_555 1_555
La1D O5D 1_555 1_555
La1D_2 O2G 1_555 1_555
La1E O2F 1_555 1_555
La1E_2 O2C 1_555 1_555
La1E_2 O5E 1_555 1_555

#END
