
#######################################################################
#
#                 Cambridge Crystallographic Data Centre
#                                CCDC 
#
#######################################################################
#
# If this CIF has been generated from an entry in the Cambridge 
# Structural Database, then it will include bibliographic, chemical, 
# crystal, experimental, refinement or atomic coordinate data resulting 
# from the CCDC's data processing and validation procedures.
#
#######################################################################

data_ROJQEM
_symmetry_cell_setting           orthorhombic
_symmetry_space_group_name_H-M   'P 21 21 21'
_symmetry_Int_Tables_number      19
_space_group_name_Hall           'P 2ac 2ab'
loop_
_symmetry_equiv_pos_site_id
_symmetry_equiv_pos_as_xyz
1 x,y,z
2 1/2-x,-y,1/2+z
3 -x,1/2+y,1/2-z
4 1/2+x,1/2-y,-z
_cell_length_a                   7.1120(10)
_cell_length_b                   10.196(2)
_cell_length_c                   13.249(3)
_cell_angle_alpha                90
_cell_angle_beta                 90
_cell_angle_gamma                90
_cell_volume                     960.737
loop_
_atom_site_label
_atom_site_type_symbol
_atom_site_fract_x
_atom_site_fract_y
_atom_site_fract_z
Mn1 Mn 0.32258(5) 0.25261(5) 0.49946(3)
Cl1 Cl 0.07328(10) 0.07374(6) 0.46633(5)
Cl2 Cl 0.07293(10) 0.36276(7) 0.60650(5)
O1 O 0.2315(3) 0.3597(3) 0.3682(2)
O2 O 0.4188(3) 0.1411(2) 0.6257(2)
N1 N -0.1286(4) 0.5786(3) 0.2758(2)
H1 H -0.1356(4) 0.6165(3) 0.2146(2)
H2 H -0.2036(4) 0.5074(3) 0.2759(2)
C1 C 0.0720(4) 0.4072(3) 0.3518(2)
C2 C 0.0701(5) 0.5392(3) 0.2978(2)
H3 H 0.1436(5) 0.5348(3) 0.2353(2)
C3 C -0.1906(7) 0.6731(4) 0.3556(4)
H4 H -0.2265(7) 0.7563(4) 0.3258(4)
H5 H -0.2969(7) 0.6383(4) 0.3928(4)
C4 C -0.0254(9) 0.6894(5) 0.4227(5)
H6 H -0.0129(9) 0.7805(5) 0.4428(5)
H7 H -0.0401(9) 0.6364(5) 0.4829(5)
C5 C 0.1430(7) 0.6470(4) 0.3655(5)
H8 H 0.2396(7) 0.6143(4) 0.4106(5)
H9 H 0.1941(7) 0.7188(4) 0.3260(5)
Mn1C Mn -0.17742(5) 0.24739(5) 0.50054(3)
O2C O -0.0812(3) 0.3589(2) 0.3743(2)
Cl1C Cl 0.57328(10) 0.42626(6) 0.53367(5)
Cl2C Cl 0.57293(10) 0.13724(7) 0.39350(5)
O3 O -0.4169(4) 0.3997(3) 0.2352(3)
H10 H -0.4905 0.3635 0.2966
H11 H -0.5113 0.4583 0.2146
loop_
_geom_bond_atom_site_label_1
_geom_bond_atom_site_label_2
_geom_bond_site_symmetry_1
_geom_bond_site_symmetry_2
Mn1 Cl1 1_555 1_555
Cl1 Mn1C 1_555 1_555
Cl2 Mn1 1_555 1_555
O1 Mn1 1_555 1_555
O2 Mn1 1_555 1_555
N1 H1 1_555 1_555
H2 N1 1_555 1_555
C1 O1 1_555 1_555
C2 N1 1_555 1_555
H3 C2 1_555 1_555
C3 N1 1_555 1_555
H4 C3 1_555 1_555
H5 C3 1_555 1_555
C4 C3 1_555 1_555
H6 C4 1_555 1_555
H7 C4 1_555 1_555
C5 C2 1_555 1_555
H8 C5 1_555 1_555
H9 C5 1_555 1_555
O3 H10 1_555 1_555
H11 O3 1_555 1_555
Mn1C Cl2 1_555 1_555
O2C C1 1_555 1_555
Cl1C Mn1 1_555 1_555
Cl2C Mn1 1_555 1_555
C1 C2 1_555 1_555
C4 C5 1_555 1_555
Mn1C O2C 1_555 1_555

#END
