
#######################################################################
#
#                 Cambridge Crystallographic Data Centre
#                                CCDC 
#
#######################################################################
#
# If this CIF has been generated from an entry in the Cambridge 
# Structural Database, then it will include bibliographic, chemical, 
# crystal, experimental, refinement or atomic coordinate data resulting 
# from the CCDC's data processing and validation procedures.
#
#######################################################################

data_ROJQEM01
_symmetry_cell_setting           orthorhombic
_symmetry_space_group_name_H-M   'P 21 21 21'
_symmetry_Int_Tables_number      19
_space_group_name_Hall           'P 2ac 2ab'
loop_
_symmetry_equiv_pos_site_id
_symmetry_equiv_pos_as_xyz
1 x,y,z
2 1/2-x,-y,1/2+z
3 1/2+x,1/2-y,-z
4 -x,1/2+y,1/2-z
_cell_length_a                   7.1250(10)
_cell_length_b                   10.214(2)
_cell_length_c                   13.269(2)
_cell_angle_alpha                90
_cell_angle_beta                 90
_cell_angle_gamma                90
_cell_volume                     965.648
loop_
_atom_site_label
_atom_site_type_symbol
_atom_site_fract_x
_atom_site_fract_y
_atom_site_fract_z
C1 C 0.5715(3) 1.0390(2) -0.20227(17)
H1 H 0.6453 1.0346 -0.2645
C2 C 0.6425(4) 1.1475(3) -0.1347(3)
H2 H 0.7391 1.1154 -0.0895
H3 H 0.6935 1.2190 -0.1742
C3 C 0.4754(5) 1.1904(3) -0.0777(3)
H4 H 0.4884 1.2813 -0.0578
H5 H 0.4605 1.1377 -0.0174
C4 C 0.3109(4) 1.1741(3) -0.1446(2)
H6 H 0.2757 1.2572 -0.1747
H7 H 0.2046 1.1399 -0.1074
C5 C 0.5723(3) 0.90732(18) -0.14849(13)
N1 N 0.3727(3) 1.0787(2) -0.22444(15)
O1 O 0.41907(19) 0.85897(13) -0.12582(10)
O2 O 0.73239(18) 0.85983(15) -0.13142(11)
Cl1 Cl 0.07348(7) 0.63718(5) -0.10626(4)
Cl2 Cl 0.57343(7) 0.57361(4) -0.03362(4)
Mn1 Mn 0.32292(3) 0.74763(3) 0.00064(2)
H10 H 0.371(4) 1.113(3) -0.291(2)
H11 H 0.295(4) 1.009(3) -0.218(2)
O2B O 0.23239(18) 0.64017(15) 0.13142(11)
Cl1B Cl 0.57348(7) 0.86282(5) 0.10626(4)
Cl2B Cl 0.07343(7) 0.92639(4) 0.03362(4)
Mn1B Mn 0.82292(3) 0.75237(3) -0.00064(2)
Mn1B_2 Mn -0.17708(3) 0.75237(3) -0.00064(2)
O3 O 1.0835(3) 0.9007(2) -0.26452(18)
H8 H 1.028(5) 0.871(3) -0.209(3)
H9 H 0.998(4) 0.960(4) -0.294(2)
loop_
_geom_bond_atom_site_label_1
_geom_bond_atom_site_label_2
_geom_bond_site_symmetry_1
_geom_bond_site_symmetry_2
C1 H1 1_555 1_555
C2 C1 1_555 1_555
H2 C2 1_555 1_555
H3 C2 1_555 1_555
C3 C2 1_555 1_555
H4 C3 1_555 1_555
H5 C3 1_555 1_555
C4 C3 1_555 1_555
H6 C4 1_555 1_555
H7 C4 1_555 1_555
C5 C1 1_555 1_555
N1 C1 1_555 1_555
O1 C5 1_555 1_555
O2 C5 1_555 1_555
Cl1 Mn1 1_555 1_555
Cl2 Mn1 1_555 1_555
Mn1 O1 1_555 1_555
O3 H8 1_555 1_555
H9 O3 1_555 1_555
H10 N1 1_555 1_555
H11 N1 1_555 1_555
O2B Mn1 1_555 1_555
Cl1B Mn1 1_555 1_555
Cl2B Mn1 1_555 1_555
Mn1B O2 1_555 1_555
Mn1B_2 Cl1 1_555 1_555
C4 N1 1_555 1_555
Cl2 Mn1B 1_555 1_555
Cl1B Mn1B 1_555 1_555
Cl2B Mn1B_2 1_555 1_555

#END
