
#######################################################################
#
#                 Cambridge Crystallographic Data Centre
#                                CCDC 
#
#######################################################################
#
# If this CIF has been generated from an entry in the Cambridge 
# Structural Database, then it will include bibliographic, chemical, 
# crystal, experimental, refinement or atomic coordinate data resulting 
# from the CCDC's data processing and validation procedures.
#
#######################################################################

data_ROJQEM02
_symmetry_cell_setting           orthorhombic
_symmetry_space_group_name_H-M   'P 21 21 21'
_symmetry_Int_Tables_number      19
_space_group_name_Hall           'P 2ac 2ab'
loop_
_symmetry_equiv_pos_site_id
_symmetry_equiv_pos_as_xyz
1 x,y,z
2 1/2-x,-y,1/2+z
3 -x,1/2+y,1/2-z
4 1/2+x,1/2-y,-z
_cell_length_a                   7.0862(6)
_cell_length_b                   10.0235(8)
_cell_length_c                   13.2437(11)
_cell_angle_alpha                90
_cell_angle_beta                 90
_cell_angle_gamma                90
_cell_volume                     940.68
loop_
_atom_site_label
_atom_site_type_symbol
_atom_site_fract_x
_atom_site_fract_y
_atom_site_fract_z
Mn1 Mn 0.32439(6) 0.24773(5) 0.50034(4)
Cl1 Cl 0.57461(12) 0.36706(8) 0.60399(6)
Cl2 Cl 0.57519(12) 0.06994(7) 0.46770(5)
O1 O 0.4195(3) 0.3579(2) 0.37232(15)
O2 O 0.7347(3) 0.3581(2) 0.36705(16)
C1 C 0.5733(5) 0.4069(3) 0.3492(2)
C2 C 0.5742(5) 0.5406(3) 0.2945(2)
H1 H 0.6477 0.5351 0.2302
C3 C 0.6488(6) 0.6513(4) 0.3617(4)
H2 H 0.7552 0.6194 0.4037
H3 H 0.6914 0.7285 0.3211
C4 C 0.4804(6) 0.6881(4) 0.4268(3)
H4 H 0.4938 0.7796 0.4539
H5 H 0.4667 0.6250 0.4839
C5 C 0.3123(6) 0.6788(4) 0.3561(3)
H6 H 0.1997 0.6452 0.3922
H7 H 0.2826 0.7672 0.3267
N1 N 0.3728(4) 0.5818(3) 0.2746(2)
H8 H 0.285(4) 0.516(3) 0.281(3)
H9 H 0.363(5) 0.619(3) 0.2126(17)
Mn1C Mn 0.82439(6) 0.25227(5) 0.49966(4)
Cl1C Cl 0.07461(12) 0.13294(8) 0.39601(6)
Cl2C Cl 0.07519(12) 0.43006(7) 0.53230(5)
O2C O 0.2347(3) 0.1419(2) 0.63295(16)
O3 O 0.0825(4) 0.4035(3) 0.2380(2)
H10 H 0.015(5) 0.377(4) 0.290(2)
H11 H 0.006(5) 0.452(4) 0.199(3)
loop_
_geom_bond_atom_site_label_1
_geom_bond_atom_site_label_2
_geom_bond_site_symmetry_1
_geom_bond_site_symmetry_2
Mn1 Cl1 1_555 1_555
Cl1 Mn1C 1_555 1_555
Cl2 Mn1 1_555 1_555
O1 Mn1 1_555 1_555
O2 C1 1_555 1_555
C1 O1 1_555 1_555
C2 C1 1_555 1_555
H1 C2 1_555 1_555
C3 C2 1_555 1_555
H2 C3 1_555 1_555
H3 C3 1_555 1_555
C4 C3 1_555 1_555
H4 C4 1_555 1_555
H5 C4 1_555 1_555
C5 C4 1_555 1_555
H6 C5 1_555 1_555
H7 C5 1_555 1_555
N1 C2 1_555 1_555
H8 N1 1_555 1_555
H9 N1 1_555 1_555
O3 H10 1_555 1_555
H11 O3 1_555 1_555
Mn1C Cl2 1_555 1_555
Cl1C Mn1 1_555 1_555
Cl2C Mn1 1_555 1_555
O2C Mn1 1_555 1_555
O2 Mn1C 1_555 1_555
C5 N1 1_555 1_555

#END
