
#######################################################################
#
#                 Cambridge Crystallographic Data Centre
#                                CCDC 
#
#######################################################################
#
# If this CIF has been generated from an entry in the Cambridge 
# Structural Database, then it will include bibliographic, chemical, 
# crystal, experimental, refinement or atomic coordinate data resulting 
# from the CCDC's data processing and validation procedures.
#
#######################################################################

data_ROJSEQ
_symmetry_cell_setting           monoclinic
_symmetry_space_group_name_H-M   'P 21/c'
_symmetry_Int_Tables_number      14
_space_group_name_Hall           '-P 2ybc'
loop_
_symmetry_equiv_pos_site_id
_symmetry_equiv_pos_as_xyz
1 x,y,z
2 -x,1/2+y,1/2-z
3 -x,-y,-z
4 x,1/2-y,1/2+z
_cell_length_a                   15.526(7)
_cell_length_b                   14.252(6)
_cell_length_c                   18.659(6)
_cell_angle_alpha                90
_cell_angle_beta                 117.36(3)
_cell_angle_gamma                90
_cell_volume                     3666.94
loop_
_atom_site_label
_atom_site_type_symbol
_atom_site_fract_x
_atom_site_fract_y
_atom_site_fract_z
Ag1 Ag 0.32353(2) 0.40007(3) 0.429628(18)
O1 O 0.50728(18) 0.4102(2) 0.59377(16)
N1 N 1.3186(2) 0.3238(2) 1.02707(17)
C1 C 0.5401(2) 0.3923(3) 0.5456(2)
Ag2 Ag 0.48713(2) 0.42716(3) 0.347889(18)
O2 O 0.48756(17) 0.3754(2) 0.47173(14)
N2 N 1.2391(2) 0.4036(2) 0.49650(17)
C2 C 0.6484(2) 0.3887(3) 0.57726(19)
Ag3 Ag 0.40988(2) 0.22798(3) -0.353322(19)
O3 O 1.32772(17) 0.3728(2) 0.30891(14)
N3 N 1.15942(19) 0.3816(2) 0.72831(16)
C3 C 0.6896(2) 0.3619(3) 0.5282(2)
H1 H 0.6495 0.3463 0.4746
O4 O 1.30853(19) 0.4022(3) 0.18656(17)
N4 N 0.5736(2) 0.4234(2) 0.27960(17)
C4 C 0.7891(2) 0.3581(3) 0.5578(2)
H2 H 0.8150 0.3387 0.5242
N5 N 0.6558(2) 0.3880(2) 0.05006(17)
C5 C 0.8510(2) 0.3832(2) 0.63743(19)
N6 N 0.5002(2) 0.2993(2) -0.24216(17)
C6 C 0.8100(2) 0.4088(3) 0.6868(2)
H3 H 0.8498 0.4238 0.7406
C7 C 0.7097(2) 0.4122(3) 0.6564(2)
H4 H 0.6834 0.4307 0.6900
C8 C 0.9580(2) 0.3829(2) 0.66924(19)
C9 C 1.0199(2) 0.3770(3) 0.75143(19)
H5 H 0.9948 0.3741 0.7880
C10 C 1.1192(2) 0.3754(3) 0.77856(18)
C11 C 1.0997(2) 0.3877(3) 0.6488(2)
C12 C 0.9998(2) 0.3880(3) 0.6177(2)
H6 H 0.9606 0.3915 0.5622
C13 C 1.1463(2) 0.3928(3) 0.5950(2)
C14 C 1.0948(2) 0.3892(3) 0.5114(2)
H7 H 1.0276 0.3833 0.4866
C15 C 1.1429(3) 0.3943(3) 0.4652(2)
H8 H 1.1066 0.3910 0.4093
C16 C 1.2893(3) 0.4086(3) 0.5773(2)
H9 H 1.3561 0.4165 0.6004
C17 C 1.2468(2) 0.4027(3) 0.6275(2)
H10 H 1.2849 0.4053 0.6831
C18 C 1.1879(2) 0.3614(3) 0.86539(19)
C19 C 1.1576(3) 0.3548(3) 0.9246(2)
H11 H 1.0926 0.3632 0.9113
C20 C 1.2243(3) 0.3359(3) 1.0030(2)
H12 H 1.2022 0.3314 1.0415
C21 C 1.3476(3) 0.3312(4) 0.9705(2)
H13 H 1.4131 0.3231 0.9856
C22 C 1.2858(3) 0.3502(4) 0.8906(2)
H14 H 1.3103 0.3554 0.8537
C23 C 0.5296(2) 0.4485(3) 0.2019(2)
H15 H 0.4667 0.4719 0.1806
C24 C 0.5724(2) 0.4415(3) 0.1517(2)
H16 H 0.5387 0.4597 0.0979
C25 C 0.6671(2) 0.4069(3) 0.1822(2)
C26 C 0.7123(3) 0.3814(3) 0.2627(2)
H17 H 0.7753 0.3582 0.2858
C27 C 0.6643(3) 0.3903(3) 0.3088(2)
H18 H 0.6964 0.3725 0.3627
C28 C 0.7148(2) 0.3975(3) 0.1295(2)
C29 C 0.8149(2) 0.3978(3) 0.1617(2)
H19 H 0.8534 0.4029 0.2172
C30 C 0.8579(2) 0.3904(2) 0.11080(19)
C31 C 0.7965(2) 0.3801(3) 0.02840(19)
H20 H 0.8222 0.3750 -0.0077
C32 C 0.6967(2) 0.3776(3) 0.00056(19)
C33 C 0.6294(2) 0.3554(3) -0.08492(19)
C34 C 0.5369(3) 0.3220(3) -0.1044(2)
H21 H 0.5164 0.3184 -0.0648
C35 C 0.4757(3) 0.2944(3) -0.1823(2)
H22 H 0.4147 0.2714 -0.1937
C36 C 0.5881(3) 0.3327(3) -0.2243(2)
H23 H 0.6062 0.3368 -0.2653
C37 C 0.6540(3) 0.3616(3) -0.1471(2)
H24 H 0.7142 0.3851 -0.1375
C38 C 0.9644(2) 0.3907(3) 0.14252(19)
C39 C 1.0071(3) 0.4233(3) 0.0964(2)
H25 H 0.9682 0.4462 0.0447
C40 C 1.1071(2) 0.4221(3) 0.1263(2)
H26 H 1.1344 0.4448 0.0946
C41 C 1.1667(2) 0.3878(3) 0.2024(2)
C42 C 1.2753(2) 0.3869(3) 0.2343(2)
C43 C 1.1238(2) 0.3549(3) 0.2489(2)
H27 H 1.1629 0.3312 0.3002
C44 C 1.0248(2) 0.3567(3) 0.2202(2)
H28 H 0.9978 0.3353 0.2526
Ag1_2 Ag 1.32353(2) 0.40007(3) 0.429628(18)
O1B O 0.49272(18) 0.5898(2) 0.40623(16)
N1C N 0.3186(2) 0.1762(2) -0.47293(17)
Ag2_2 Ag 1.48713(2) 0.42716(3) 0.347889(18)
Ag2B Ag 0.51287(2) 0.57284(3) 0.652111(18)
N2_2 N 0.2391(2) 0.4036(2) 0.49650(17)
Ag3C Ag 1.40988(2) 0.27202(3) 1.146678(19)
O3_2 O 0.32772(17) 0.3728(2) 0.30891(14)
O5 O 0.0630(2) 0.7770(3) 0.15054(19)
O6 O 0.0895(3) 0.6470(3) 0.1060(2)
O7 O 0.1290(2) 0.7778(3) 0.07186(19)
N7 N 0.0938(2) 0.7333(3) 0.10943(18)
loop_
_geom_bond_atom_site_label_1
_geom_bond_atom_site_label_2
_geom_bond_site_symmetry_1
_geom_bond_site_symmetry_2
Ag1 O2 1_555 1_555
O1 C1 1_555 1_555
N1 C20 1_555 1_555
C1 O2 1_555 1_555
Ag2 O2 1_555 1_555
N2 C15 1_555 1_555
C2 C1 1_555 1_555
Ag3 N6 1_555 1_555
O3 C42 1_555 1_555
N3 C10 1_555 1_555
C3 C2 1_555 1_555
H1 C3 1_555 1_555
O4 C42 1_555 1_555
N4 Ag2 1_555 1_555
C4 C3 1_555 1_555
H2 C4 1_555 1_555
N5 C28 1_555 1_555
C5 C4 1_555 1_555
N6 C35 1_555 1_555
C6 C5 1_555 1_555
H3 C6 1_555 1_555
C7 C2 1_555 1_555
H4 C7 1_555 1_555
C8 C5 1_555 1_555
C9 C8 1_555 1_555
H5 C9 1_555 1_555
C10 C9 1_555 1_555
C11 N3 1_555 1_555
C12 C8 1_555 1_555
H6 C12 1_555 1_555
C13 C11 1_555 1_555
C14 C13 1_555 1_555
H7 C14 1_555 1_555
C15 C14 1_555 1_555
H8 C15 1_555 1_555
C16 N2 1_555 1_555
H9 C16 1_555 1_555
C17 C13 1_555 1_555
H10 C17 1_555 1_555
C18 C10 1_555 1_555
C19 C18 1_555 1_555
H11 C19 1_555 1_555
C20 C19 1_555 1_555
H12 C20 1_555 1_555
C21 N1 1_555 1_555
H13 C21 1_555 1_555
C22 C18 1_555 1_555
H14 C22 1_555 1_555
C23 N4 1_555 1_555
H15 C23 1_555 1_555
C24 C23 1_555 1_555
H16 C24 1_555 1_555
C25 C24 1_555 1_555
C26 C25 1_555 1_555
H17 C26 1_555 1_555
C27 N4 1_555 1_555
H18 C27 1_555 1_555
C28 C25 1_555 1_555
C29 C28 1_555 1_555
H19 C29 1_555 1_555
C30 C29 1_555 1_555
C31 C30 1_555 1_555
H20 C31 1_555 1_555
C32 N5 1_555 1_555
C33 C32 1_555 1_555
C34 C33 1_555 1_555
H21 C34 1_555 1_555
C35 C34 1_555 1_555
H22 C35 1_555 1_555
C36 N6 1_555 1_555
H23 C36 1_555 1_555
C37 C33 1_555 1_555
H24 C37 1_555 1_555
C38 C30 1_555 1_555
C39 C38 1_555 1_555
H25 C39 1_555 1_555
C40 C39 1_555 1_555
H26 C40 1_555 1_555
C41 C40 1_555 1_555
C42 C41 1_555 1_555
C43 C41 1_555 1_555
H27 C43 1_555 1_555
C44 C38 1_555 1_555
H28 C44 1_555 1_555
O5 N7 1_555 1_555
O6 N7 1_555 1_555
O7 N7 1_555 1_555
Ag1_2 N2 1_555 1_555
O1B Ag2 1_555 1_555
N1C Ag3 1_555 1_555
Ag2_2 O3 1_555 1_555
Ag2B O1 1_555 1_555
N2_2 Ag1 1_555 1_555
Ag3C N1 1_555 1_555
O3_2 Ag1 1_555 1_555
Ag2 O3_2 1_555 1_555
O3 Ag1_2 1_555 1_555
C6 C7 1_555 1_555
C11 C12 1_555 1_555
C16 C17 1_555 1_555
C21 C22 1_555 1_555
C26 C27 1_555 1_555
C31 C32 1_555 1_555
C36 C37 1_555 1_555
C43 C44 1_555 1_555

#END
