
#######################################################################
#
#                 Cambridge Crystallographic Data Centre
#                                CCDC 
#
#######################################################################
#
# If this CIF has been generated from an entry in the Cambridge 
# Structural Database, then it will include bibliographic, chemical, 
# crystal, experimental, refinement or atomic coordinate data resulting 
# from the CCDC's data processing and validation procedures.
#
#######################################################################

data_ROJSUF
_symmetry_cell_setting           monoclinic
_symmetry_space_group_name_H-M   'C c'
_symmetry_Int_Tables_number      9
_space_group_name_Hall           'C -2yc'
loop_
_symmetry_equiv_pos_site_id
_symmetry_equiv_pos_as_xyz
1 x,y,z
2 x,-y,1/2+z
3 1/2+x,1/2+y,z
4 1/2+x,1/2-y,1/2+z
_cell_length_a                   5.354
_cell_length_b                   16.5044(6)
_cell_length_c                   8.2617(5)
_cell_angle_alpha                90
_cell_angle_beta                 105.329(15)
_cell_angle_gamma                90
_cell_volume                     704.069
loop_
_atom_site_label
_atom_site_type_symbol
_atom_site_fract_x
_atom_site_fract_y
_atom_site_fract_z
Sr1 Sr 0.0968(6) 0.27319(2) 0.1716(3)
S1 S -0.5253(3) 0.6269(3) 0.4154(2)
P1 P -0.2900(4) 0.3711(3) 0.4190(3)
O1 O -0.093(2) 0.3805(7) 0.3223(16)
O2 O -0.466(2) 0.3015(8) 0.3767(13)
O3 O -0.1553(18) 0.3634(7) 0.6165(11)
H1 H -0.2671 0.3629 0.6679
O4 O -0.721(2) 0.6205(7) 0.5098(16)
O5 O -0.6487(18) 0.6343(9) 0.2352(12)
O6 O -0.347(2) 0.6976(8) 0.4660(15)
C1 C -0.484(3) 0.4634(10) 0.3990(18)
H2 H -0.6040 0.4579 0.4678
H3 H -0.5847 0.4685 0.2833
C2 C -0.329(4) 0.5410(12) 0.449(2)
H4 H -0.2366 0.5381 0.5671
H5 H -0.2018 0.5457 0.3852
Sr1_2 Sr -0.9032(6) 0.27319(2) 0.1716(3)
Sr1C Sr -0.4032(6) 0.22681(2) 0.6716(3)
Sr1A Sr -0.9032(6) 0.72681(2) 0.6716(3)
Sr1B Sr -0.4032(6) 0.77319(2) 0.1716(3)
Sr1A_2 Sr 0.0968(6) 0.72681(2) 0.6716(3)
O2_2 O 0.534(2) 0.3015(8) 0.3767(13)
O2C O 0.034(2) 0.1985(8) -0.1233(13)
O3C O 0.3447(18) 0.1366(7) 0.1165(11)
H1C H 0.2329 0.1371 0.1679
O4A O 0.279(2) 0.3795(7) 0.0098(16)
O5B O -0.1487(18) 0.1343(9) 0.2352(12)
O6A O -0.347(2) 0.3024(8) -0.0340(15)
O6B O 0.153(2) 0.1976(8) 0.4660(15)
loop_
_geom_bond_atom_site_label_1
_geom_bond_atom_site_label_2
_geom_bond_site_symmetry_1
_geom_bond_site_symmetry_2
Sr1 O1 1_555 1_555
S1 O4 1_555 1_555
P1 O1 1_555 1_555
O2 P1 1_555 1_555
O3 P1 1_555 1_555
H1 O3 1_555 1_555
O4 Sr1A 1_555 1_555
O5 S1 1_555 1_555
O6 S1 1_555 1_555
C1 P1 1_555 1_555
H2 C1 1_555 1_555
H3 C1 1_555 1_555
C2 S1 1_555 1_555
H4 C2 1_555 1_555
H5 C2 1_555 1_555
Sr1_2 O2 1_555 1_555
Sr1C O2 1_555 1_555
Sr1B O5 1_555 1_555
Sr1A_2 O6 1_555 1_555
O2_2 Sr1 1_555 1_555
O2C Sr1 1_555 1_555
O3C Sr1 1_555 1_555
H1C O3C 1_555 1_555
O4A Sr1 1_555 1_555
O5B Sr1 1_555 1_555
O6A Sr1 1_555 1_555
O6B Sr1 1_555 1_555
O3 Sr1C 1_555 1_555
O6 Sr1B 1_555 1_555
C1 C2 1_555 1_555

#END
