
#######################################################################
#
#                 Cambridge Crystallographic Data Centre
#                                CCDC 
#
#######################################################################
#
# If this CIF has been generated from an entry in the Cambridge 
# Structural Database, then it will include bibliographic, chemical, 
# crystal, experimental, refinement or atomic coordinate data resulting 
# from the CCDC's data processing and validation procedures.
#
#######################################################################

data_ROJSOZ
_symmetry_cell_setting           monoclinic
_symmetry_space_group_name_H-M   'P 21/c'
_symmetry_Int_Tables_number      14
_space_group_name_Hall           '-P 2ybc'
loop_
_symmetry_equiv_pos_site_id
_symmetry_equiv_pos_as_xyz
1 x,y,z
2 -x,1/2+y,1/2-z
3 -x,-y,-z
4 x,1/2-y,1/2+z
_cell_length_a                   6.9866(8)
_cell_length_b                   8.5636(10)
_cell_length_c                   15.3849(17)
_cell_angle_alpha                90
_cell_angle_beta                 96.740(2)
_cell_angle_gamma                90
_cell_volume                     914.124
loop_
_atom_site_label
_atom_site_type_symbol
_atom_site_fract_x
_atom_site_fract_y
_atom_site_fract_z
Ca1 Ca 0.23507(19) 0.06544(16) 0.94962(9)
P1 P 0.2845(2) -0.0959(2) 1.13132(11)
S1 S 0.2698(3) -0.6019(2) 1.09638(12)
C1 C 0.2883(10) -0.3015(8) 1.1549(5)
H1 H 0.4085 -0.3276 1.1900
H2 H 0.1837 -0.3264 1.1888
C2 C 0.2681(11) -0.3999(8) 1.0710(5)
H3 H 0.3736 -0.3764 1.0374
H4 H 0.1484 -0.3736 1.0355
O1 O 0.3011(8) -0.0150(6) 1.2241(3)
H5 H 0.3800 -0.0621 1.2581
O2 O 0.4489(7) -0.0526(6) 1.0810(3)
O3 O 0.0969(7) -0.0450(6) 1.0806(3)
O4 O 0.4548(8) -0.6349(6) 1.1476(4)
O5 O 0.2497(8) -0.6825(6) 1.0130(3)
O6 O 0.1073(8) -0.6281(7) 1.1456(4)
O7 O 0.1928(8) 0.2280(7) 0.8198(4)
O8 O 0.2208(7) -0.1790(6) 0.8795(4)
Ca1B Ca 0.76493(19) -0.06544(16) 1.05038(9)
Ca1B_2 Ca -0.23507(19) -0.06544(16) 1.05038(9)
Ca1_2 Ca 0.23507(19) -0.93456(16) 0.94962(9)
O2B O 0.5511(7) 0.0526(6) 0.9190(3)
O3B O -0.0969(7) 0.0450(6) 0.9194(3)
O5_2 O 0.2497(8) 0.3175(6) 1.0130(3)
loop_
_geom_bond_atom_site_label_1
_geom_bond_atom_site_label_2
_geom_bond_site_symmetry_1
_geom_bond_site_symmetry_2
Ca1 O2 1_555 1_555
P1 C1 1_555 1_555
S1 C2 1_555 1_555
C1 H1 1_555 1_555
H2 C1 1_555 1_555
C2 C1 1_555 1_555
H3 C2 1_555 1_555
H4 C2 1_555 1_555
O1 P1 1_555 1_555
H5 O1 1_555 1_555
O2 P1 1_555 1_555
O3 Ca1 1_555 1_555
O4 S1 1_555 1_555
O5 S1 1_555 1_555
O6 S1 1_555 1_555
O7 Ca1 1_555 1_555
O8 Ca1 1_555 1_555
Ca1B O2 1_555 1_555
Ca1B_2 O3 1_555 1_555
Ca1_2 O5 1_555 1_555
O2B Ca1 1_555 1_555
O3B Ca1 1_555 1_555
O5_2 Ca1 1_555 1_555
P1 O3 1_555 1_555
Ca1B O2B 1_555 1_555
Ca1B_2 O3B 1_555 1_555

#END
