
#######################################################################
#
#                 Cambridge Crystallographic Data Centre
#                                CCDC 
#
#######################################################################
#
# If this CIF has been generated from an entry in the Cambridge 
# Structural Database, then it will include bibliographic, chemical, 
# crystal, experimental, refinement or atomic coordinate data resulting 
# from the CCDC's data processing and validation procedures.
#
#######################################################################

data_ROJTAM
_symmetry_cell_setting           orthorhombic
_symmetry_space_group_name_H-M   'P c a 21'
_symmetry_Int_Tables_number      29
_space_group_name_Hall           'P 2c -2ac'
loop_
_symmetry_equiv_pos_site_id
_symmetry_equiv_pos_as_xyz
1 x,y,z
2 -x,-y,1/2+z
3 1/2+x,-y,z
4 1/2-x,y,1/2+z
_cell_length_a                   10.3746(4)
_cell_length_b                   8.9275(4)
_cell_length_c                   16.1176(7)
_cell_angle_alpha                90
_cell_angle_beta                 90
_cell_angle_gamma                90
_cell_volume                     1492.8
loop_
_atom_site_label
_atom_site_type_symbol
_atom_site_fract_x
_atom_site_fract_y
_atom_site_fract_z
Ba1 Ba 0.336334(17) 0.313195(17) 0.288628(10)
Ba2 Ba -0.075907(17) 0.192892(17) 0.243251(10)
S1 S -0.04319(8) 0.54186(10) -0.07405(5)
S2 S 0.28265(8) 0.05057(10) 0.60611(5)
P1 P 0.14559(8) 0.54498(10) 0.16983(5)
P2 P 0.11233(8) -0.03254(9) 0.36196(5)
O1 O 0.0853(3) 0.4162(3) 0.21411(17)
O2 O 0.0659(2) 0.6903(3) 0.19529(18)
H1 H 0.1050 0.7654 0.1802
O3 O 0.2860(2) 0.5659(2) 0.18995(15)
O4 O 0.0524(3) 0.6342(4) -0.11503(18)
O5 O -0.1753(2) 0.5901(3) -0.08753(16)
O6 O -0.0246(3) 0.3835(3) -0.09547(17)
O7 O 0.1682(2) 0.0953(3) 0.31491(15)
O8 O 0.2020(3) -0.1731(3) 0.34797(17)
H2 H 0.1636 -0.2492 0.3622
O9 O -0.0251(2) -0.0656(2) 0.33900(14)
O10 O 0.2680(3) -0.1057(3) 0.63317(17)
O11 O 0.4134(2) 0.1055(3) 0.61854(16)
O12 O 0.1837(3) 0.1453(4) 0.64308(19)
C1 C 0.1236(3) 0.5317(5) 0.0595(2)
H3 H 0.1508 0.4334 0.0408
H4 H 0.1776 0.6056 0.0323
C2 C -0.0168(3) 0.5572(4) 0.0342(2)
H5 H -0.0706 0.4846 0.0626
H6 H -0.0431 0.6562 0.0523
C3 C 0.2576(4) 0.0513(4) 0.4974(2)
H7 H 0.2724 0.1518 0.4767
H8 H 0.3205 -0.0142 0.4717
C4 C 0.1243(4) 0.0016(4) 0.4715(2)
H9 H 0.0625 0.0783 0.4870
H10 H 0.1021 -0.0893 0.5013
Ba1B Ba -0.163666(17) 0.686805(17) 0.288628(10)
Ba1A Ba -0.336334(17) 0.686805(17) -0.211372(10)
Ba1C Ba 0.163666(17) 0.313195(17) -0.211372(10)
Ba1B_2 Ba -0.163666(17) -0.313195(17) 0.288628(10)
Ba1C_2 Ba 0.163666(17) 0.313195(17) 0.788628(10)
Ba2B Ba 0.424093(17) 0.807108(17) 0.243251(10)
Ba2A Ba 0.075907(17) 0.807108(17) -0.256749(10)
Ba2B_2 Ba 0.424093(17) -0.192892(17) 0.243251(10)
Ba2A_2 Ba 0.075907(17) -0.192892(17) 0.743251(10)
Ba2C Ba 0.575907(17) 0.192892(17) 0.743251(10)
O2B O 0.5659(2) 0.3097(3) 0.19529(18)
H1B H 0.6050 0.2346 0.1802
O3B O -0.2140(2) 0.4341(2) 0.18995(15)
O4A O -0.0524(3) 0.3658(4) 0.38497(18)
O5A O 0.1753(2) 0.4099(3) 0.41247(16)
O6C O 0.5246(3) 0.3835(3) 0.40453(17)
O8B O -0.2980(3) 0.1731(3) 0.34797(17)
H2B H -0.3364 0.2492 0.3622
O9B O 0.4749(2) 0.0656(2) 0.33900(14)
O10A O -0.2680(3) 0.1057(3) 0.13317(17)
O11C O 0.0866(2) 0.1055(3) 0.11854(16)
O12C O 0.3163(3) 0.1453(4) 0.14308(19)
loop_
_geom_bond_atom_site_label_1
_geom_bond_atom_site_label_2
_geom_bond_site_symmetry_1
_geom_bond_site_symmetry_2
Ba1 O1 1_555 1_555
Ba2 O1 1_555 1_555
S1 O4 1_555 1_555
S2 O10 1_555 1_555
P1 O1 1_555 1_555
P2 O7 1_555 1_555
O2 P1 1_555 1_555
H1 O2 1_555 1_555
O3 Ba1 1_555 1_555
O4 Ba2A 1_555 1_555
O5 S1 1_555 1_555
O6 S1 1_555 1_555
O7 Ba1 1_555 1_555
O8 P2 1_555 1_555
H2 O8 1_555 1_555
O9 Ba2 1_555 1_555
O10 Ba2A_2 1_555 1_555
O11 S2 1_555 1_555
O12 S2 1_555 1_555
C1 P1 1_555 1_555
H3 C1 1_555 1_555
H4 C1 1_555 1_555
C2 S1 1_555 1_555
H5 C2 1_555 1_555
H6 C2 1_555 1_555
C3 S2 1_555 1_555
H7 C3 1_555 1_555
H8 C3 1_555 1_555
C4 P2 1_555 1_555
H9 C4 1_555 1_555
H10 C4 1_555 1_555
Ba1B O2 1_555 1_555
Ba1A O5 1_555 1_555
Ba1C O6 1_555 1_555
Ba1B_2 O9 1_555 1_555
Ba1C_2 O12 1_555 1_555
Ba2B O3 1_555 1_555
Ba2B_2 O8 1_555 1_555
Ba2C O11 1_555 1_555
O2B Ba1 1_555 1_555
H1B O2B 1_555 1_555
O3B Ba2 1_555 1_555
O4A Ba2 1_555 1_555
O5A Ba1 1_555 1_555
O6C Ba1 1_555 1_555
O8B Ba2 1_555 1_555
H2B O8B 1_555 1_555
O9B Ba1 1_555 1_555
O10A Ba2 1_555 1_555
O11C Ba2 1_555 1_555
O12C Ba1 1_555 1_555
Ba2 O7 1_555 1_555
P1 O3 1_555 1_555
P2 O9 1_555 1_555
C1 C2 1_555 1_555
C3 C4 1_555 1_555
Ba1B O3B 1_555 1_555
Ba2B_2 O9B 1_555 1_555

#END
