
#######################################################################
#
#                 Cambridge Crystallographic Data Centre
#                                CCDC 
#
#######################################################################
#
# If this CIF has been generated from an entry in the Cambridge 
# Structural Database, then it will include bibliographic, chemical, 
# crystal, experimental, refinement or atomic coordinate data resulting 
# from the CCDC's data processing and validation procedures.
#
#######################################################################

data_ROJTIU
_symmetry_cell_setting           triclinic
_symmetry_space_group_name_H-M   'P 1'
_symmetry_Int_Tables_number      1
_space_group_name_Hall           'P 1'
loop_
_symmetry_equiv_pos_site_id
_symmetry_equiv_pos_as_xyz
1 x,y,z
_cell_length_a                   7.8480(16)
_cell_length_b                   13.019(3)
_cell_length_c                   13.636(3)
_cell_angle_alpha                97.41(3)
_cell_angle_beta                 97.25(3)
_cell_angle_gamma                103.77(3)
_cell_volume                     1323.96
loop_
_atom_site_label
_atom_site_type_symbol
_atom_site_fract_x
_atom_site_fract_y
_atom_site_fract_z
Eu1 Eu 1.0050(9) 0.5769(6) 0.7419(7)
O1 O 1.589(3) 0.8218(15) 0.8987(15)
C1 C 0.599(3) 0.547(2) 0.595(2)
O2 O 1.490(3) 0.6713(15) 0.9549(18)
Eu2 Eu 1.5414(9) 0.6521(6) 0.7816(7)
O4 O 1.262(2) 0.5183(15) 0.7857(15)
C2 C 1.337(3) 0.444(2) 0.814(2)
C3 C 1.262(5) 1.142(2) 0.609(3)
H1 H 1.1391 1.1251 0.5930
O6 O 1.044(3) 0.7601(17) 0.703(2)
O7 O 1.288(3) 0.7152(15) 0.7347(17)
O8 O 0.713(2) 0.5608(13) 0.6663(15)
C4 C 0.841(5) 0.756(3) 1.353(3)
H2 H 0.7399 0.7714 1.3743
C5 C 0.959(3) 0.6804(18) 0.9335(16)
C6 C 1.017(3) 0.4522(18) 0.554(2)
O9 O 1.096(2) 0.6612(18) 0.9129(17)
O10 O 0.968(3) 0.4085(12) 0.6227(16)
O11 O 0.445(3) 0.5664(16) 0.6039(14)
O12 O 1.060(3) 0.5571(16) 0.5678(17)
C7 C 1.205(3) 0.7815(18) 0.714(2)
O13 O 0.833(2) 0.6718(15) 0.8587(13)
O14 O 1.507(2) 0.4689(14) 0.8222(17)
C8 C 0.709(5) 0.471(3) 0.179(3)
H3 H 0.8079 0.4494 0.1609
O15 O 1.7042(12) 0.7918(10) 0.6957(13)
H4 H 1.6432 0.7924 0.6424
O16 O 0.8457(6) 0.4401(10) 0.8209(12)
H5 H 0.9001 0.4430 0.8771
H6 H 0.7408(10) 0.428(6) 0.8278(17)
C9 C 1.526(3) 0.7689(19) 0.9672(14)
O17 O 0.741(3) 0.0204(18) 0.859(2)
C10 C 1.232(3) 0.344(2) 0.826(2)
H7 H 1.1093 0.3318 0.8109
O18 O 0.318(3) 0.544(2) 0.067(2)
H8 H 0.2240 0.4975 0.0578
C11 C 1.107(3) 0.709(2) 1.388(2)
C12 C 0.624(3) 0.517(2) 0.491(2)
H9 H 0.7263 0.4944 0.4833
O19 O 1.808(3) 1.2142(19) 0.650(2)
H10 H 1.8453 1.2740 0.6360
C13 C 1.508(4) 0.831(2) 1.064(2)
H11 H 1.4662 0.7938 1.1135
O20 O 1.230(3) 0.681(2) 1.4511(17)
H12 H 1.1797 0.6432 1.4876
C14 C 0.535(3) 0.498(2) 0.305(2)
C15 C 1.010(4) 0.133(2) 0.859(2)
H13 H 0.9463 0.1803 0.8380
C16 C 1.284(4) 0.093(2) 0.900(3)
H14 H 1.4071 0.1095 0.9063
C17 C 0.510(3) 0.517(2) 0.403(2)
H15 H 0.4022 0.5321 0.4119
C18 C 1.010(4) 0.729(3) 1.220(3)
C19 C 1.196(4) 0.165(2) 0.870(2)
C20 C 1.315(4) 0.8867(19) 0.695(2)
H16 H 1.4386 0.8999 0.7068
C21 C 1.530(4) 1.0912(17) 0.661(2)
H17 H 1.5878 1.0421 0.6837
C22 C 1.013(5) 0.221(3) 0.342(3)
C23 C 1.630(4) 1.191(2) 0.643(2)
C24 C 1.349(4) 1.068(2) 0.644(2)
C25 C 1.037(4) 0.395(2) 0.458(2)
H18 H 1.0814 0.4356 0.4111
C26 C 1.036(3) 0.716(2) 1.1096(18)
H19 H 1.1483 0.7122 1.0974
C27 C 0.416(4) 0.521(2) 0.235(2)
H20 H 0.3145 0.5369 0.2543
C28 C 1.294(3) 0.265(2) 0.856(2)
H21 H 1.4171 0.2775 0.8690
C29 C 1.550(4) 0.937(2) 1.083(2)
H22 H 1.5979 0.9727 1.0339
C30 C 1.137(4) 0.710(3) 1.292(3)
H23 H 1.2420 0.6985 1.2747
C31 C 0.861(4) 0.756(3) 1.245(2)
H24 H 0.7790 0.7731 1.1986
C32 C 0.926(4) 0.711(3) 1.036(2)
H25 H 0.8182 0.7267 1.0444
C33 C 0.995(4) 0.290(2) 0.436(2)
H26 H 0.9489 0.2525 0.4843
C34 C 1.003(4) -0.031(2) 0.907(3)
H27 H 0.9373 -0.0965 0.9178
C35 C 0.441(4) 0.519(2) 0.134(2)
C36 C 0.685(3) 0.477(2) 0.270(2)
H28 H 0.7743 0.4670 0.3167
C37 C 0.589(4) 0.495(3) 0.105(3)
H29 H 0.6096 0.4944 0.0390
C38 C 1.537(4) 1.2669(19) 0.611(2)
H30 H 1.5983 1.3336 0.5998
C39 C 1.364(4) 1.240(2) 0.599(2)
H31 H 1.3047 1.2907 0.5829
C40 C 0.960(5) 0.736(2) 1.418(3)
H32 H 0.9462 0.7392 1.4846
C41 C 0.920(4) 0.038(2) 0.877(2)
C42 C 1.193(3) -0.007(2) 0.923(2)
H33 H 1.2529 -0.0539 0.9479
C43 C 1.243(4) 0.9608(18) 0.664(2)
H34 H 1.1198 0.9465 0.6527
C44 C 1.064(5) 0.265(2) 0.263(3)
H35 H 1.0924 0.3393 0.2660
C45 C 1.500(5) 0.965(3) 1.260(2)
H36 H 1.4971 0.8937 1.2646
C46 C 0.983(6) 0.114(3) 0.350(3)
C47 C 1.550(5) 1.114(3) 1.176(3)
H37 H 1.5732 1.1448 1.1202
O21 O 1.111(4) 0.249(2) 0.0955(16)
H38 H 1.0302 0.2761 0.0781
C48 C 1.508(6) 1.139(3) 1.340(3)
H39 H 1.5098 1.1847 1.3986
C49 C 1.073(5) 0.197(3) 0.178(2)
O22 O 1.426(6) 0.994(3) 1.427(3)
C50 C 1.474(5) 1.028(3) 1.341(3)
C51 C 1.068(6) 0.092(4) 0.180(4)
H40 H 1.0952 0.0502 0.1272
C52 C 1.535(5) 1.180(2) 1.261(3)
H41 H 1.5458 1.2524 1.2603
C53 C 1.018(6) 0.050(3) 0.266(3)
H42 H 1.0081 -0.0225 0.2679
C54 C 1.531(4) 1.0023(19) 1.169(2)
Eu2_2 Eu 0.5414(9) 0.6521(6) 0.7816(7)
O8_2 O 1.713(2) 0.5608(13) 0.6663(15)
O11_2 O 1.445(3) 0.5664(16) 0.6039(14)
O13_2 O 1.833(2) 0.6718(15) 0.8587(13)
O3 O 0.5656(6) 0.8145(4) 0.5132(6)
H44 H 0.4636(10) 0.816(9) 0.492(11)
H45 H 0.626(10) 0.876(5) 0.512(19)
O5 O -0.0295(6) 0.4040(4) 0.0023(6)
H43 H 0.059(3) 0.453(3) 0.026(7)
H46 H -0.024(15) 0.358(7) 0.037(8)
loop_
_geom_bond_atom_site_label_1
_geom_bond_atom_site_label_2
_geom_bond_site_symmetry_1
_geom_bond_site_symmetry_2
Eu1 O4 1_555 1_555
O1 Eu2 1_555 1_555
C1 O8 1_555 1_555
O2 Eu2 1_555 1_555
O3 H44 1_555 1_555
Eu2 O4 1_555 1_555
O4 C2 1_555 1_555
C2 O14 1_555 1_555
O5 H43 1_555 1_555
C3 H1 1_555 1_555
O6 Eu1 1_555 1_555
O7 Eu1 1_555 1_555
O8 Eu1 1_555 1_555
C4 H2 1_555 1_555
C5 O9 1_555 1_555
C6 O10 1_555 1_555
O9 Eu1 1_555 1_555
O10 Eu1 1_555 1_555
O11 C1 1_555 1_555
O12 Eu1 1_555 1_555
C7 O6 1_555 1_555
O13 Eu1 1_555 1_555
O14 Eu2 1_555 1_555
C8 H3 1_555 1_555
O15 Eu2 1_555 1_555
H4 O15 1_555 1_555
O16 Eu1 1_555 1_555
H5 O16 1_555 1_555
H6 O16 1_555 1_555
C9 O1 1_555 1_555
O17 C41 1_555 1_555
C10 C2 1_555 1_555
H7 C10 1_555 1_555
O18 H8 1_555 1_555
C11 O20 1_555 1_555
C12 C1 1_555 1_555
H9 C12 1_555 1_555
O19 H10 1_555 1_555
C13 C9 1_555 1_555
H11 C13 1_555 1_555
O20 H12 1_555 1_555
C14 C17 1_555 1_555
C15 H13 1_555 1_555
C16 H14 1_555 1_555
C17 C12 1_555 1_555
H15 C17 1_555 1_555
C18 C26 1_555 1_555
C19 C15 1_555 1_555
C20 C7 1_555 1_555
H16 C20 1_555 1_555
C21 H17 1_555 1_555
C22 C33 1_555 1_555
C23 O19 1_555 1_555
C24 C3 1_555 1_555
C25 C6 1_555 1_555
H18 C25 1_555 1_555
C26 H19 1_555 1_555
C27 C14 1_555 1_555
H20 C27 1_555 1_555
C28 C10 1_555 1_555
H21 C28 1_555 1_555
C29 C13 1_555 1_555
H22 C29 1_555 1_555
C30 C11 1_555 1_555
H23 C30 1_555 1_555
C31 C4 1_555 1_555
H24 C31 1_555 1_555
C32 C5 1_555 1_555
H25 C32 1_555 1_555
C33 C25 1_555 1_555
H26 C33 1_555 1_555
C34 H27 1_555 1_555
C35 O18 1_555 1_555
C36 C8 1_555 1_555
H28 C36 1_555 1_555
C37 C8 1_555 1_555
H29 C37 1_555 1_555
C38 C23 1_555 1_555
H30 C38 1_555 1_555
C39 C3 1_555 1_555
H31 C39 1_555 1_555
C40 C4 1_555 1_555
H32 C40 1_555 1_555
C41 C15 1_555 1_555
C42 C16 1_555 1_555
H33 C42 1_555 1_555
C43 C20 1_555 1_555
H34 C43 1_555 1_555
C44 C22 1_555 1_555
H35 C44 1_555 1_555
C45 H36 1_555 1_555
C46 C22 1_555 1_555
C47 H37 1_555 1_555
O21 H38 1_555 1_555
C48 H39 1_555 1_555
C49 C44 1_555 1_555
O22 C50 1_555 1_555
C50 C45 1_555 1_555
C51 C49 1_555 1_555
H40 C51 1_555 1_555
C52 C47 1_555 1_555
H41 C52 1_555 1_555
C53 C46 1_555 1_555
H42 C53 1_555 1_555
C54 C29 1_555 1_555
H45 O3 1_555 1_555
H46 O5 1_555 1_555
Eu2_2 O8 1_555 1_555
O8_2 Eu2 1_555 1_555
O11_2 Eu2 1_555 1_555
O13_2 Eu2 1_555 1_555
O2 C9 1_555 1_555
Eu2 O7 1_555 1_555
O7 C7 1_555 1_555
C5 O13 1_555 1_555
C6 O12 1_555 1_555
O11 Eu2_2 1_555 1_555
O13 Eu2_2 1_555 1_555
C11 C40 1_555 1_555
C14 C36 1_555 1_555
C16 C19 1_555 1_555
C18 C30 1_555 1_555
C18 C31 1_555 1_555
C19 C28 1_555 1_555
C21 C23 1_555 1_555
C21 C24 1_555 1_555
C24 C43 1_555 1_555
C26 C32 1_555 1_555
C27 C35 1_555 1_555
C34 C41 1_555 1_555
C34 C42 1_555 1_555
C35 C37 1_555 1_555
C38 C39 1_555 1_555
C45 C54 1_555 1_555
C47 C54 1_555 1_555
O21 C49 1_555 1_555
C48 C50 1_555 1_555
C48 C52 1_555 1_555
C51 C53 1_555 1_555

#END
