
#######################################################################
#
#                 Cambridge Crystallographic Data Centre
#                                CCDC 
#
#######################################################################
#
# If this CIF has been generated from an entry in the Cambridge 
# Structural Database, then it will include bibliographic, chemical, 
# crystal, experimental, refinement or atomic coordinate data resulting 
# from the CCDC's data processing and validation procedures.
#
#######################################################################

data_ROJVAO
_symmetry_cell_setting           triclinic
_symmetry_space_group_name_H-M   'P -1'
_symmetry_Int_Tables_number      2
_space_group_name_Hall           '-P 1'
loop_
_symmetry_equiv_pos_site_id
_symmetry_equiv_pos_as_xyz
1 x,y,z
2 -x,-y,-z
_cell_length_a                   8.1810(16)
_cell_length_b                   8.7740(18)
_cell_length_c                   11.614(2)
_cell_angle_alpha                76.83(3)
_cell_angle_beta                 88.90(3)
_cell_angle_gamma                71.29(3)
_cell_volume                     767.518
loop_
_atom_site_label
_atom_site_type_symbol
_atom_site_fract_x
_atom_site_fract_y
_atom_site_fract_z
Cu1 Cu 0.0000 0.0000 0.5000
Cl1 Cl 0.19269(10) -0.24176(10) 0.48568(7)
S1 S 0.47100(12) -0.69582(11) 0.89025(8)
S2 S 0.14531(12) -0.59723(10) 1.26820(7)
N1 N 0.1747(3) 0.0292(3) 0.6065(2)
C1 C 0.2927(4) 0.0978(4) 0.5574(3)
C2 C 0.4344(5) 0.0944(4) 0.6202(3)
H1 H 0.5125 0.1480 0.5835
C3 C 0.4612(4) 0.0109(4) 0.7385(3)
C4 C 0.3378(4) -0.0548(4) 0.7917(3)
C5 C 0.1942(4) -0.0393(3) 0.7243(3)
C6 C 0.0485(4) -0.1016(4) 0.7716(2)
C7 C -0.0568(4) -0.0311(4) 0.9661(3)
C8 C 0.1290(4) -0.3095(4) 0.9580(2)
C9 C 0.3163(4) -0.5591(4) 0.9574(3)
C10 C 0.1801(4) -0.5150(4) 1.1208(3)
C11 C 0.4806(5) -0.5659(5) 0.7468(3)
H2 H 0.3753 -0.5438 0.6981
H3 H 0.5816 -0.6225 0.7076
H4 H 0.4903 -0.4612 0.7568
C12 C -0.0203(5) -0.4264(4) 1.3054(3)
H5 H 0.0307 -0.3442 1.3181
H6 H -0.0721 -0.4666 1.3779
H7 H -0.1096 -0.3755 1.2405
N2 N 0.0470(3) -0.1502(3) 0.9006(2)
N3 N 0.2371(3) -0.4064(3) 0.8949(2)
N4 N 0.2935(4) -0.6240(3) 1.0700(2)
N5 N 0.0971(3) -0.3562(3) 1.0725(2)
H8 H 0.273(5) 0.137(5) 0.477(4)
H9 H 0.555(5) -0.009(5) 0.781(3)
H10 H 0.358(5) -0.110(5) 0.858(3)
H11 H -0.060(5) -0.021(4) 0.744(3)
H12 H 0.052(5) -0.191(5) 0.743(3)
H13 H -0.131(4) 0.063(4) 0.909(3)
H14 H -0.128(5) -0.076(5) 1.011(3)
Cu1_2 Cu 0.0000 0.0000 1.5000
Cl1A Cl -0.19269(10) 0.24176(10) 0.51432(7)
S1A S -0.47100(12) 0.69582(11) 1.10975(8)
S2A S -0.14531(12) 0.59723(10) 0.73180(7)
N1A N -0.1747(3) -0.0292(3) 1.3935(2)
N1A_2 N -0.1747(3) -0.0292(3) 0.3935(2)
C1A C -0.2927(4) -0.0978(4) 1.4426(3)
C2A C -0.4344(5) -0.0944(4) 1.3798(3)
H1A H -0.5125 -0.1480 1.4165
C3A C -0.4612(4) -0.0109(4) 1.2615(3)
C4A C -0.3378(4) 0.0548(4) 1.2083(3)
C5A C -0.1942(4) 0.0393(3) 1.2757(3)
C6A C -0.0485(4) 0.1016(4) 1.2284(2)
C7A C 0.0568(4) 0.0311(4) 1.0339(3)
C8A C -0.1290(4) 0.3095(4) 1.0420(2)
C9A C -0.3163(4) 0.5591(4) 1.0426(3)
C10A C -0.1801(4) 0.5150(4) 0.8792(3)
C11A C -0.4806(5) 0.5659(5) 1.2532(3)
H2A H -0.3753 0.5438 1.3019
H3A H -0.5816 0.6225 1.2924
H4A H -0.4903 0.4612 1.2432
C12A C 0.0203(5) 0.4264(4) 0.6946(3)
H5A H -0.0307 0.3442 0.6819
H6A H 0.0721 0.4666 0.6221
H7A H 0.1096 0.3755 0.7595
N2A N -0.0470(3) 0.1502(3) 1.0994(2)
N3A N -0.2371(3) 0.4064(3) 1.1051(2)
N4A N -0.2935(4) 0.6240(3) 0.9300(2)
N5A N -0.0971(3) 0.3562(3) 0.9275(2)
H8A H -0.273(5) -0.137(5) 1.523(4)
H9A H -0.555(5) 0.009(5) 1.219(3)
H10A H -0.358(5) 0.110(5) 1.142(3)
H11A H 0.060(5) 0.021(4) 1.256(3)
H12A H -0.052(5) 0.191(5) 1.257(3)
H13A H 0.131(4) -0.063(4) 1.091(3)
H14A H 0.128(5) 0.076(5) 0.989(3)
loop_
_geom_bond_atom_site_label_1
_geom_bond_atom_site_label_2
_geom_bond_site_symmetry_1
_geom_bond_site_symmetry_2
Cu1 Cl1 1_555 1_555
S1 C9 1_555 1_555
S2 C10 1_555 1_555
N1 Cu1 1_555 1_555
C1 N1 1_555 1_555
C2 C1 1_555 1_555
H1 C2 1_555 1_555
C3 C2 1_555 1_555
C4 C3 1_555 1_555
C5 N1 1_555 1_555
C6 C5 1_555 1_555
C7 N2 1_555 1_555
C8 N2 1_555 1_555
C9 N3 1_555 1_555
C10 N4 1_555 1_555
C11 S1 1_555 1_555
H2 C11 1_555 1_555
H3 C11 1_555 1_555
H4 C11 1_555 1_555
C12 S2 1_555 1_555
H5 C12 1_555 1_555
H6 C12 1_555 1_555
H7 C12 1_555 1_555
N2 C6 1_555 1_555
N3 C8 1_555 1_555
N4 C9 1_555 1_555
N5 C8 1_555 1_555
H8 C1 1_555 1_555
H9 C3 1_555 1_555
H10 C4 1_555 1_555
H11 C6 1_555 1_555
H12 C6 1_555 1_555
H13 C7 1_555 1_555
H14 C7 1_555 1_555
Cu1_2 N1A 1_555 1_555
Cl1A Cu1 1_555 1_555
S1A C9A 1_555 1_555
S2A C10A 1_555 1_555
N1A C1A 1_555 1_555
N1A_2 Cu1 1_555 1_555
C1A C2A 1_555 1_555
C2A H1A 1_555 1_555
C3A C2A 1_555 1_555
C4A C3A 1_555 1_555
C5A N1A 1_555 1_555
C6A C5A 1_555 1_555
C7A C7 1_555 1_555
C8A N2A 1_555 1_555
C9A N3A 1_555 1_555
C10A N4A 1_555 1_555
C11A S1A 1_555 1_555
H2A C11A 1_555 1_555
H3A C11A 1_555 1_555
H4A C11A 1_555 1_555
C12A S2A 1_555 1_555
H5A C12A 1_555 1_555
H6A C12A 1_555 1_555
H7A C12A 1_555 1_555
N2A C6A 1_555 1_555
N3A C8A 1_555 1_555
N4A C9A 1_555 1_555
N5A C8A 1_555 1_555
H8A C1A 1_555 1_555
H9A C3A 1_555 1_555
H10A C4A 1_555 1_555
H11A C6A 1_555 1_555
H12A C6A 1_555 1_555
H13A C7A 1_555 1_555
H14A C7A 1_555 1_555
C4 C5 1_555 1_555
C10 N5 1_555 1_555
C4A C5A 1_555 1_555
C7A N2A 1_555 1_555
C10A N5A 1_555 1_555

#END
