
#######################################################################
#
#                 Cambridge Crystallographic Data Centre
#                                CCDC 
#
#######################################################################
#
# If this CIF has been generated from an entry in the Cambridge 
# Structural Database, then it will include bibliographic, chemical, 
# crystal, experimental, refinement or atomic coordinate data resulting 
# from the CCDC's data processing and validation procedures.
#
#######################################################################

data_ROJXUL
_symmetry_cell_setting           triclinic
_symmetry_space_group_name_H-M   'P -1'
_symmetry_Int_Tables_number      2
_space_group_name_Hall           '-P 1'
loop_
_symmetry_equiv_pos_site_id
_symmetry_equiv_pos_as_xyz
1 x,y,z
2 -x,-y,-z
_cell_length_a                   7.2622(6)
_cell_length_b                   9.9997(9)
_cell_length_c                   12.9650(11)
_cell_angle_alpha                84.078(2)
_cell_angle_beta                 84.7420(10)
_cell_angle_gamma                72.2380(10)
_cell_volume                     890.05
loop_
_atom_site_label
_atom_site_type_symbol
_atom_site_fract_x
_atom_site_fract_y
_atom_site_fract_z
C1 C -0.1939(12) 1.0213(8) -0.2075(6)
C2 C -0.3712(15) 1.0768(9) -0.1552(6)
H1 H -0.3745 1.0903 -0.0851
C3 C -0.5424(14) 1.1127(9) -0.2027(6)
H2 H -0.6605 1.1484 -0.1659
C4 C -0.5334(11) 1.0938(7) -0.3082(6)
C5 C -0.3622(12) 1.0398(8) -0.3628(6)
H3 H -0.3596 1.0269 -0.4330
C6 C -0.1924(14) 1.0044(9) -0.3126(7)
H4 H -0.0747 0.9687 -0.3498
C7 C -0.0060(15) 0.9774(10) -0.1551(8)
H5 H -0.0268 1.0225 -0.0905
H6 H 0.0875 1.0123 -0.1991
C8 C 0.0810(12) 0.8204(9) -0.1313(6)
C9 C 0.3551(9) 0.4800(7) 0.3018(5)
C10 C 0.4445(13) 0.3355(8) 0.3176(6)
H7 H 0.3879 0.2733 0.2943
C11 C 0.6127(13) 0.2836(8) 0.3664(7)
H8 H 0.6670 0.1868 0.3788
C12 C 0.7017(11) 0.3734(8) 0.3970(5)
C13 C 0.6229(12) 0.5140(8) 0.3816(6)
H9 H 0.6851 0.5747 0.4021
C14 C 0.4461(10) 0.5676(7) 0.3345(5)
H10 H 0.3899 0.6646 0.3253
C15 C 0.1696(12) 0.5392(10) 0.2465(6)
H11 H 0.0881 0.4786 0.2657
H12 H 0.1012 0.6312 0.2703
C16 C 0.1988(8) 0.5535(7) 0.1295(5)
Cl1 Cl -0.7500(4) 1.1425(2) -0.3719(2)
Cl2 Cl 0.9208(4) 0.3079(3) 0.4571(2)
O1 O 0.2466(8) 0.7768(7) -0.0971(5)
O2 O -0.0177(8) 0.7396(6) -0.1441(5)
O3 O 0.3608(6) 0.5484(6) 0.0870(4)
O4 O 0.0549(6) 0.5712(5) 0.0756(4)
O5 O 0.3591(9) 0.2654(7) 0.0270(5)
Pb1 Pb 0.25421(3) 0.52246(3) -0.087279(17)
H13 H 0.283(5) 0.241(8) 0.070(4)
H14 H 0.474(2) 0.234(8) 0.038(5)
O3A O 0.6392(6) 0.4516(6) -0.0870(4)
O4A O -0.0549(6) 0.4288(5) -0.0756(4)
Pb1A Pb -0.25421(3) 0.47754(3) 0.087279(17)
Pb1A_2 Pb 0.74579(3) 0.47754(3) 0.087279(17)
loop_
_geom_bond_atom_site_label_1
_geom_bond_atom_site_label_2
_geom_bond_site_symmetry_1
_geom_bond_site_symmetry_2
C1 C2 1_555 1_555
C2 H1 1_555 1_555
C3 C2 1_555 1_555
H2 C3 1_555 1_555
C4 C3 1_555 1_555
C5 C4 1_555 1_555
H3 C5 1_555 1_555
C6 C1 1_555 1_555
H4 C6 1_555 1_555
C7 C1 1_555 1_555
H5 C7 1_555 1_555
H6 C7 1_555 1_555
C8 C7 1_555 1_555
C9 C10 1_555 1_555
C10 H7 1_555 1_555
C11 C10 1_555 1_555
H8 C11 1_555 1_555
C12 C11 1_555 1_555
C13 C12 1_555 1_555
H9 C13 1_555 1_555
C14 C9 1_555 1_555
H10 C14 1_555 1_555
C15 C9 1_555 1_555
H11 C15 1_555 1_555
H12 C15 1_555 1_555
C16 C15 1_555 1_555
Cl1 C4 1_555 1_555
Cl2 C12 1_555 1_555
O1 C8 1_555 1_555
O2 C8 1_555 1_555
O3 C16 1_555 1_555
O4 C16 1_555 1_555
O5 Pb1 1_555 1_555
Pb1 O1 1_555 1_555
H13 O5 1_555 1_555
H14 O5 1_555 1_555
O3A Pb1 1_555 1_555
O4A Pb1 1_555 1_555
Pb1A O4 1_555 1_555
Pb1A_2 O3 1_555 1_555
C5 C6 1_555 1_555
C13 C14 1_555 1_555
O2 Pb1 1_555 1_555
O3 Pb1 1_555 1_555
O4 Pb1 1_555 1_555
O3A Pb1A_2 1_555 1_555
O4A Pb1A 1_555 1_555

#END
