
#######################################################################
#
#                 Cambridge Crystallographic Data Centre
#                                CCDC 
#
#######################################################################
#
# If this CIF has been generated from an entry in the Cambridge 
# Structural Database, then it will include bibliographic, chemical, 
# crystal, experimental, refinement or atomic coordinate data resulting 
# from the CCDC's data processing and validation procedures.
#
#######################################################################

data_ROJYUM
_symmetry_cell_setting           monoclinic
_symmetry_space_group_name_H-M   'C 2/c'
_symmetry_Int_Tables_number      15
_space_group_name_Hall           '-C 2yn'
loop_
_symmetry_equiv_pos_site_id
_symmetry_equiv_pos_as_xyz
1 x,y,z
2 -x,y,1/2-z
3 1/2+x,1/2+y,z
4 1/2-x,1/2+y,1/2-z
5 -x,-y,-z
6 x,-y,1/2+z
7 1/2-x,1/2-y,-z
8 1/2+x,1/2-y,1/2+z
_cell_length_a                   15.660(3)
_cell_length_b                   8.6131(17)
_cell_length_c                   13.637(3)
_cell_angle_alpha                90
_cell_angle_beta                 95.95(3)
_cell_angle_gamma                90
_cell_volume                     1829.46
loop_
_atom_site_label
_atom_site_type_symbol
_atom_site_fract_x
_atom_site_fract_y
_atom_site_fract_z
Cd1 Cd 0.0000 -0.19791(3) 0.7500
O1 O 0.06883(16) -0.1620(2) 0.60731(16)
O2 O 0.03520(13) -0.4051(2) 0.63344(14)
N1 N 0.15139(16) 0.2570(3) 0.32269(17)
N2 N 0.28234(16) 0.1502(3) 0.3997(2)
N3 N 0.17908(13) -0.1185(3) 0.43886(17)
N4 N 0.11189(15) -0.2140(2) 0.42588(16)
N5 N 0.04826(16) -0.1613(3) 0.36357(18)
N6 N 0.07474(15) -0.0264(3) 0.33296(17)
C1 C 0.1911(2) 0.3926(4) 0.3131(2)
H1 H 0.1602 0.4753 0.2834
C2 C 0.2764(2) 0.4133(4) 0.3460(2)
H2 H 0.3034 0.5085 0.3401
C3 C 0.3199(2) 0.2883(4) 0.3878(3)
H3 H 0.3780 0.2992 0.4089
C4 C 0.19982(18) 0.1434(3) 0.3669(2)
C5 C 0.15324(17) -0.0025(3) 0.37969(19)
C6 C 0.10052(18) -0.3492(3) 0.4875(2)
H4 H 0.1552 -0.4013 0.5025
H5 H 0.0612 -0.4216 0.4518
C7 C 0.06510(18) -0.3015(3) 0.5834(2)
O1A O -0.06883(16) -0.1620(2) 0.89269(16)
O2A O -0.03520(13) -0.4051(2) 0.86656(14)
N1A N -0.15139(16) 0.2570(3) 1.17731(17)
N2A N -0.28234(16) 0.1502(3) 1.1003(2)
N3A N -0.17908(13) -0.1185(3) 1.06114(17)
N4A N -0.11189(15) -0.2140(2) 1.07412(16)
N5A N -0.04826(16) -0.1613(3) 1.13643(18)
N6A N -0.07474(15) -0.0264(3) 1.16704(17)
C1A C -0.1911(2) 0.3926(4) 1.1869(2)
H1A H -0.1602 0.4753 1.2166
C2A C -0.2764(2) 0.4133(4) 1.1540(2)
H2A H -0.3034 0.5085 1.1599
C3A C -0.3199(2) 0.2883(4) 1.1122(3)
H3A H -0.3780 0.2992 1.0911
C4A C -0.19982(18) 0.1434(3) 1.1331(2)
C5A C -0.15324(17) -0.0025(3) 1.12031(19)
C6A C -0.10052(18) -0.3492(3) 1.0125(2)
H4A H -0.1552 -0.4013 0.9975
H5A H -0.0612 -0.4216 1.0482
C7A C -0.06510(18) -0.3015(3) 0.9166(2)
Cd1D Cd 0.0000 0.19791(3) 0.2500
Cd1D_2 Cd 0.0000 0.19791(3) 1.2500
N1D N -0.15139(16) -0.2570(3) 0.67731(17)
N1E N 0.15139(16) -0.2570(3) 0.82269(17)
N6D N -0.07474(15) 0.0264(3) 0.66704(17)
N6E N 0.07474(15) 0.0264(3) 0.83296(17)
loop_
_geom_bond_atom_site_label_1
_geom_bond_atom_site_label_2
_geom_bond_site_symmetry_1
_geom_bond_site_symmetry_2
Cd1 O1 1_555 1_555
O1 C7 1_555 1_555
O2 Cd1 1_555 1_555
N1 C1 1_555 1_555
N2 C3 1_555 1_555
N3 N4 1_555 1_555
N4 N5 1_555 1_555
N5 N6 1_555 1_555
N6 C5 1_555 1_555
C1 H1 1_555 1_555
C2 C1 1_555 1_555
H2 C2 1_555 1_555
C3 C2 1_555 1_555
H3 C3 1_555 1_555
C4 N1 1_555 1_555
C5 N3 1_555 1_555
C6 N4 1_555 1_555
H4 C6 1_555 1_555
H5 C6 1_555 1_555
C7 O2 1_555 1_555
O1A Cd1 1_555 1_555
O2A Cd1 1_555 1_555
N1A C1A 1_555 1_555
N2A C3A 1_555 1_555
N3A N4A 1_555 1_555
N4A N5A 1_555 1_555
N5A N6A 1_555 1_555
N6A C5A 1_555 1_555
C1A H1A 1_555 1_555
C2A C1A 1_555 1_555
H2A C2A 1_555 1_555
C3A C2A 1_555 1_555
H3A C3A 1_555 1_555
C4A N1A 1_555 1_555
C5A N3A 1_555 1_555
C6A N4A 1_555 1_555
H4A C6A 1_555 1_555
H5A C6A 1_555 1_555
C7A O1A 1_555 1_555
Cd1D N1 1_555 1_555
Cd1D_2 N1A 1_555 1_555
N1D Cd1 1_555 1_555
N1E Cd1 1_555 1_555
N6D Cd1 1_555 1_555
N6E Cd1 1_555 1_555
N2 C4 1_555 1_555
N6 Cd1D 1_555 1_555
C4 C5 1_555 1_555
C6 C7 1_555 1_555
O2A C7A 1_555 1_555
N2A C4A 1_555 1_555
N6A Cd1D_2 1_555 1_555
C4A C5A 1_555 1_555
C6A C7A 1_555 1_555

#END
