
#######################################################################
#
#                 Cambridge Crystallographic Data Centre
#                                CCDC 
#
#######################################################################
#
# If this CIF has been generated from an entry in the Cambridge 
# Structural Database, then it will include bibliographic, chemical, 
# crystal, experimental, refinement or atomic coordinate data resulting 
# from the CCDC's data processing and validation procedures.
#
#######################################################################

data_ROJYEW
_symmetry_cell_setting           monoclinic
_symmetry_space_group_name_H-M   'P 21/c'
_symmetry_Int_Tables_number      14
_space_group_name_Hall           '-P 2ybc'
loop_
_symmetry_equiv_pos_site_id
_symmetry_equiv_pos_as_xyz
1 x,y,z
2 -x,1/2+y,1/2-z
3 -x,-y,-z
4 x,1/2-y,1/2+z
_cell_length_a                   22.929(8)
_cell_length_b                   9.229(2)
_cell_length_c                   19.646(5)
_cell_angle_alpha                90
_cell_angle_beta                 115.332(3)
_cell_angle_gamma                90
_cell_volume                     3757.57
loop_
_atom_site_label
_atom_site_type_symbol
_atom_site_fract_x
_atom_site_fract_y
_atom_site_fract_z
Zn1 Zn 0.50549(3) 0.30249(8) 0.83557(3)
O1 O 0.4295(2) 0.2135(5) 0.7249(2)
O2 O 0.4201(2) 0.4278(5) 0.7648(2)
O3 O 0.5531(2) 0.4232(5) 0.7862(2)
H1 H 0.5636 0.5111 0.7846
H2 H 0.5868 0.3710 0.7998
O4 O 0.3517(2) 0.7311(5) 0.6729(3)
O5 O 0.43155(18) 0.6333(4) 0.6503(2)
O6 O 0.3102(3) 0.7277(7) 0.4963(4)
O7 O 0.2134(3) 0.7076(6) 0.4818(4)
N1 N 0.4609(2) 0.1952(6) 0.8989(2)
N2 N 0.5551(2) 0.3994(6) 0.9470(3)
N3 N 0.2674(3) 0.6754(7) 0.5056(3)
C1 C 0.4140(3) 0.1041(7) 0.8746(3)
H3 H 0.3948 0.0834 0.8233
C2 C 0.3902(3) 0.0347(9) 0.9204(4)
H4 H 0.3552 -0.0279 0.8992
C3 C 0.4178(3) 0.0578(8) 0.9953(4)
H5 H 0.4035 0.0092 1.0268
C4 C 0.4706(3) 0.1612(7) 1.0254(3)
C5 C 0.5027(3) 0.1977(7) 1.1033(3)
H6 H 0.4906 0.1543 1.1381
C6 C 0.5506(3) 0.2956(8) 1.1259(3)
H7 H 0.5719 0.3167 1.1770
C7 C 0.5700(3) 0.3670(8) 1.0767(4)
C8 C 0.6195(3) 0.4765(8) 1.0973(3)
H8 H 0.6426 0.5022 1.1476
C9 C 0.6326(4) 0.5422(9) 1.0433(4)
H9 H 0.6639 0.6142 1.0570
C10 C 0.5998(3) 0.5033(8) 0.9683(4)
H10 H 0.6091 0.5504 0.9323
C11 C 0.5386(3) 0.3324(7) 0.9983(3)
C12 C 0.4882(3) 0.2248(7) 0.9740(3)
C13 C 0.4007(3) 0.3340(7) 0.7144(3)
C14 C 0.3464(3) 0.3655(7) 0.6395(3)
C15 C 0.3090(3) 0.2479(8) 0.5976(3)
H11 H 0.3184 0.1542 0.6166
C16 C 0.2583(3) 0.2726(9) 0.5279(4)
H12 H 0.2328 0.1952 0.5011
C17 C 0.2450(3) 0.4093(9) 0.4977(4)
H13 H 0.2115 0.4254 0.4504
C18 C 0.2823(3) 0.5207(8) 0.5388(3)
C19 C 0.3340(3) 0.5045(6) 0.6098(3)
C20 C 0.3758(3) 0.6356(6) 0.6479(3)
Zn1A Zn 0.49451(3) 0.80249(8) 0.66443(3)
O5A O 0.56845(18) 0.1333(4) 0.8497(2)
Zn2 Zn -0.00388(3) 0.78828(8) 0.82722(3)
O8 O -0.0513(2) 0.9100(5) 0.7307(2)
H14 H -0.0623 0.9982 0.7207
H15 H -0.0849 0.8576 0.7118
O9 O 0.08185(19) 0.9191(5) 0.8438(2)
O10 O 0.0717(2) 0.7072(5) 0.7927(2)
O11 O 0.06857(18) 1.1234(4) 0.7185(2)
O12 O 0.1471(2) 1.2191(5) 0.8216(3)
O13 O 0.1872(3) 1.2272(8) 0.6865(4)
O14 O 0.2863(3) 1.2074(10) 0.7577(4)
N4 N 0.0435(2) 0.6841(5) 0.9349(2)
N5 N -0.0498(2) 0.8865(5) 0.8890(2)
N6 N 0.2306(3) 1.1644(10) 0.7328(4)
C21 C 0.0910(3) 0.5916(8) 0.9568(3)
H16 H 0.1088 0.5701 0.9235
C22 C 0.1170(3) 0.5224(8) 1.0270(4)
H17 H 0.1524 0.4612 1.0409
C23 C 0.0875(4) 0.5485(8) 1.0756(4)
H18 H 0.1005 0.4988 1.1209
C24 C 0.0370(3) 0.6541(7) 1.0531(3)
C25 C 0.0061(4) 0.6912(8) 1.1005(3)
H19 H 0.0183 0.6454 1.1467
C26 C -0.0413(3) 0.7937(7) 1.0777(3)
H20 H -0.0608 0.8186 1.1089
C27 C -0.0611(3) 0.8628(7) 1.0068(3)
C28 C -0.1073(3) 0.9741(7) 0.9821(3)
H21 H -0.1262 1.0054 1.0129
C29 C -0.1245(3) 1.0363(9) 0.9137(4)
H22 H -0.1553 1.1095 0.8975
C30 C -0.0954(3) 0.9893(8) 0.8675(4)
H23 H -0.1082 1.0313 0.8203
C31 C -0.0319(3) 0.8209(6) 0.9604(3)
C32 C 0.0175(2) 0.7154(6) 0.9829(3)
C33 C 0.1004(3) 0.8277(7) 0.8114(3)
C34 C 0.1552(3) 0.8595(7) 0.7918(3)
C35 C 0.1942(3) 0.7448(8) 0.7889(4)
H24 H 0.1865 0.6509 0.8002
C36 C 0.2445(3) 0.7726(9) 0.7688(4)
H25 H 0.2712 0.6967 0.7687
C37 C 0.2557(3) 0.9076(10) 0.7493(4)
H26 H 0.2874 0.9238 0.7325
C38 C 0.2187(3) 1.0193(9) 0.7553(4)
C39 C 0.1672(3) 0.9980(7) 0.7749(3)
C40 C 0.1236(3) 1.1270(6) 0.7718(3)
Zn2A Zn 0.00388(3) 1.28828(8) 0.67278(3)
O11A O -0.06857(18) 0.6234(4) 0.7815(2)
loop_
_geom_bond_atom_site_label_1
_geom_bond_atom_site_label_2
_geom_bond_site_symmetry_1
_geom_bond_site_symmetry_2
Zn1 O1 1_555 1_555
O1 C13 1_555 1_555
O2 Zn1 1_555 1_555
O3 Zn1 1_555 1_555
H1 O3 1_555 1_555
H2 O3 1_555 1_555
O4 C20 1_555 1_555
O5 C20 1_555 1_555
O6 N3 1_555 1_555
O7 N3 1_555 1_555
N1 Zn1 1_555 1_555
N2 Zn1 1_555 1_555
N3 C18 1_555 1_555
C1 N1 1_555 1_555
H3 C1 1_555 1_555
C2 C1 1_555 1_555
H4 C2 1_555 1_555
C3 C2 1_555 1_555
H5 C3 1_555 1_555
C4 C3 1_555 1_555
C5 C4 1_555 1_555
H6 C5 1_555 1_555
C6 C5 1_555 1_555
H7 C6 1_555 1_555
C7 C6 1_555 1_555
C8 C7 1_555 1_555
H8 C8 1_555 1_555
C9 C8 1_555 1_555
H9 C9 1_555 1_555
C10 N2 1_555 1_555
H10 C10 1_555 1_555
C11 N2 1_555 1_555
C12 N1 1_555 1_555
C13 O2 1_555 1_555
C14 C13 1_555 1_555
C15 C14 1_555 1_555
H11 C15 1_555 1_555
C16 C15 1_555 1_555
H12 C16 1_555 1_555
C17 C16 1_555 1_555
H13 C17 1_555 1_555
C18 C17 1_555 1_555
C19 C14 1_555 1_555
C20 C19 1_555 1_555
Zn2 O8 1_555 1_555
O8 H14 1_555 1_555
H15 O8 1_555 1_555
O9 Zn2 1_555 1_555
O10 Zn2 1_555 1_555
O11 C40 1_555 1_555
O12 C40 1_555 1_555
O13 N6 1_555 1_555
O14 N6 1_555 1_555
N4 Zn2 1_555 1_555
N5 Zn2 1_555 1_555
N6 C38 1_555 1_555
C21 N4 1_555 1_555
H16 C21 1_555 1_555
C22 C21 1_555 1_555
H17 C22 1_555 1_555
C23 C22 1_555 1_555
H18 C23 1_555 1_555
C24 C23 1_555 1_555
C25 C24 1_555 1_555
H19 C25 1_555 1_555
C26 C25 1_555 1_555
H20 C26 1_555 1_555
C27 C26 1_555 1_555
C28 C27 1_555 1_555
H21 C28 1_555 1_555
C29 C28 1_555 1_555
H22 C29 1_555 1_555
C30 N5 1_555 1_555
H23 C30 1_555 1_555
C31 N5 1_555 1_555
C32 N4 1_555 1_555
C33 O9 1_555 1_555
C34 C33 1_555 1_555
C35 C34 1_555 1_555
H24 C35 1_555 1_555
C36 C35 1_555 1_555
H25 C36 1_555 1_555
C37 C36 1_555 1_555
H26 C37 1_555 1_555
C38 C37 1_555 1_555
C39 C34 1_555 1_555
C40 C39 1_555 1_555
Zn1A O5 1_555 1_555
O5A Zn1 1_555 1_555
Zn2A O11 1_555 1_555
O11A Zn2 1_555 1_555
C4 C12 1_555 1_555
C7 C11 1_555 1_555
C9 C10 1_555 1_555
C11 C12 1_555 1_555
C18 C19 1_555 1_555
O10 C33 1_555 1_555
C24 C32 1_555 1_555
C27 C31 1_555 1_555
C29 C30 1_555 1_555
C31 C32 1_555 1_555
C38 C39 1_555 1_555

#END
