
#######################################################################
#
#                 Cambridge Crystallographic Data Centre
#                                CCDC 
#
#######################################################################
#
# If this CIF has been generated from an entry in the Cambridge 
# Structural Database, then it will include bibliographic, chemical, 
# crystal, experimental, refinement or atomic coordinate data resulting 
# from the CCDC's data processing and validation procedures.
#
#######################################################################

data_ROKCAW
_symmetry_cell_setting           monoclinic
_symmetry_space_group_name_H-M   'P 21/c'
_symmetry_Int_Tables_number      14
_space_group_name_Hall           '-P 2ybc'
loop_
_symmetry_equiv_pos_site_id
_symmetry_equiv_pos_as_xyz
1 x,y,z
2 -x,1/2+y,1/2-z
3 -x,-y,-z
4 x,1/2-y,1/2+z
_cell_length_a                   9.651(6)
_cell_length_b                   17.524(10)
_cell_length_c                   11.489(7)
_cell_angle_alpha                90.00
_cell_angle_beta                 97.132(9)
_cell_angle_gamma                90.00
_cell_volume                     1928.03
loop_
_atom_site_label
_atom_site_type_symbol
_atom_site_fract_x
_atom_site_fract_y
_atom_site_fract_z
Ni1 Ni 0.19944(8) 0.22025(5) 0.74087(7)
N1 N 0.0879(5) 0.3298(3) 0.7417(5)
N2 N -0.2990(6) 0.5360(3) 0.4456(5)
N3 N -0.1865(5) 0.5290(3) 0.5313(5)
N4 N -0.2772(5) 0.4167(3) 0.4990(5)
N5 N -0.2939(6) 0.3383(3) 0.5088(6)
H1 H -0.2372 0.3126 0.5574
H2 H -0.3610 0.3155 0.4662
N6 N -0.6691(5) 0.3796(3) 0.2512(5)
C1 C 0.4749(7) 0.2996(4) 0.7902(6)
C2 C 0.5891(6) 0.3207(4) 0.8853(5)
C3 C 0.7270(6) 0.3240(4) 0.8652(6)
H3 H 0.7500 0.3207 0.7891
C4 C 0.8311(6) 0.3322(4) 0.9591(6)
H4 H 0.9242 0.3323 0.9457
C5 C 0.7987(6) 0.3403(4) 1.0715(6)
C6 C 0.6599(7) 0.3410(4) 1.0904(6)
H5 H 0.6360 0.3479 1.1657
C7 C 0.5574(6) 0.3313(3) 0.9970(6)
H6 H 0.4642 0.3319 1.0102
C8 C 0.9113(7) 0.3373(4) 1.1728(7)
C9 C -0.6857(7) 0.4283(4) 0.1616(6)
H7 H -0.7586 0.4203 0.1019
C10 C -0.5996(7) 0.4894(4) 0.1541(6)
H8 H -0.6156 0.5229 0.0911
C11 C -0.4888(7) 0.5014(4) 0.2402(6)
H9 H -0.4284 0.5423 0.2352
C12 C -0.4693(6) 0.4514(4) 0.3347(6)
C13 C -0.5623(6) 0.3913(4) 0.3368(6)
H10 H -0.5505 0.3576 0.3998
C14 C -0.3519(7) 0.4673(4) 0.4257(6)
C15 C -0.1740(6) 0.4567(4) 0.5631(6)
C16 C -0.0649(6) 0.4283(4) 0.6553(6)
C17 C -0.0110(6) 0.3539(4) 0.6575(6)
H11 H -0.0451 0.3201 0.5984
C18 C 0.1333(7) 0.3791(4) 0.8236(6)
H12 H 0.2006 0.3625 0.8832
C19 C 0.0889(8) 0.4534(5) 0.8279(7)
H13 H 0.1266 0.4861 0.8872
C20 C -0.0130(7) 0.4777(4) 0.7418(6)
H14 H -0.0464 0.5274 0.7425
O1 O 0.4948(5) 0.3076(3) 0.6856(4)
O2 O 0.3649(4) 0.2741(3) 0.8255(4)
O3 O 0.8777(5) 0.3360(3) 1.2755(4)
O4 O 1.0361(4) 0.3325(3) 1.1476(4)
O5 O 0.2643(4) 0.2437(3) 0.5848(4)
H15 H 0.3465 0.2709 0.5816
H16 H 0.2122 0.2272 0.5158
O6 O 0.1209(5) 0.1840(3) 0.8966(4)
H17 H 0.153(6) 0.1416(19) 0.926(5)
H18 H 0.036(3) 0.179(4) 0.863(5)
Ni1C Ni -0.80056(8) 0.27975(5) 0.24087(7)
Ni1C_2 Ni 1.19944(8) 0.27975(5) 1.24087(7)
N6C N 0.3309(5) 0.1204(3) 0.7512(5)
O4C O 0.0361(4) 0.1675(3) 0.6476(4)
loop_
_geom_bond_atom_site_label_1
_geom_bond_atom_site_label_2
_geom_bond_site_symmetry_1
_geom_bond_site_symmetry_2
Ni1 N1 1_555 1_555
N1 C17 1_555 1_555
N2 N3 1_555 1_555
N3 C15 1_555 1_555
N4 N5 1_555 1_555
N5 H1 1_555 1_555
H2 N5 1_555 1_555
N6 C9 1_555 1_555
C1 C2 1_555 1_555
C2 C3 1_555 1_555
C3 H3 1_555 1_555
C4 C3 1_555 1_555
H4 C4 1_555 1_555
C5 C4 1_555 1_555
C6 C5 1_555 1_555
H5 C6 1_555 1_555
C7 C2 1_555 1_555
H6 C7 1_555 1_555
C8 C5 1_555 1_555
C9 H7 1_555 1_555
C10 C9 1_555 1_555
H8 C10 1_555 1_555
C11 C10 1_555 1_555
H9 C11 1_555 1_555
C12 C11 1_555 1_555
C13 N6 1_555 1_555
H10 C13 1_555 1_555
C14 N2 1_555 1_555
C15 N4 1_555 1_555
C16 C15 1_555 1_555
C17 C16 1_555 1_555
H11 C17 1_555 1_555
C18 N1 1_555 1_555
H12 C18 1_555 1_555
C19 C18 1_555 1_555
H13 C19 1_555 1_555
C20 C16 1_555 1_555
H14 C20 1_555 1_555
O1 C1 1_555 1_555
O2 Ni1 1_555 1_555
O3 C8 1_555 1_555
O4 C8 1_555 1_555
O5 Ni1 1_555 1_555
H15 O5 1_555 1_555
H16 O5 1_555 1_555
O6 Ni1 1_555 1_555
H17 O6 1_555 1_555
H18 O6 1_555 1_555
Ni1C N6 1_555 1_555
Ni1C_2 O4 1_555 1_555
N6C Ni1 1_555 1_555
O4C Ni1 1_555 1_555
N4 C14 1_555 1_555
C1 O2 1_555 1_555
C6 C7 1_555 1_555
C12 C13 1_555 1_555
C12 C14 1_555 1_555
C19 C20 1_555 1_555

#END
