
#######################################################################
#
#                 Cambridge Crystallographic Data Centre
#                                CCDC 
#
#######################################################################
#
# If this CIF has been generated from an entry in the Cambridge 
# Structural Database, then it will include bibliographic, chemical, 
# crystal, experimental, refinement or atomic coordinate data resulting 
# from the CCDC's data processing and validation procedures.
#
#######################################################################

data_ROKHUU
_symmetry_cell_setting           monoclinic
_symmetry_space_group_name_H-M   'C 2/c'
_symmetry_Int_Tables_number      15
_space_group_name_Hall           '-C 2yn'
loop_
_symmetry_equiv_pos_site_id
_symmetry_equiv_pos_as_xyz
1 x,y,z
2 1/2+x,1/2+y,z
3 -x,y,1/2-z
4 1/2-x,1/2+y,1/2-z
5 -x,-y,-z
6 1/2-x,1/2-y,-z
7 x,-y,1/2+z
8 1/2+x,1/2-y,1/2+z
_cell_length_a                   12.4924(2)
_cell_length_b                   9.8064(2)
_cell_length_c                   30.4234(3)
_cell_angle_alpha                90
_cell_angle_beta                 98.944(5)
_cell_angle_gamma                90
_cell_volume                     3681.72
loop_
_atom_site_label
_atom_site_type_symbol
_atom_site_fract_x
_atom_site_fract_y
_atom_site_fract_z
Sn1 Sn 0.28595(2) 0.13936(3) 0.23108(1)
O1 O 0.3201(3) 0.2915(3) 0.1827(1)
O2 O 0.2477(3) -0.0477(4) 0.2788(1)
O3 O -0.0315(4) 0.3205(4) 0.0744(2)
C1 C 0.2973(4) 0.4161(5) 0.1890(2)
C2 C 0.3278(4) 0.5202(5) 0.1566(2)
C3 C 0.4100(4) 0.4692(6) 0.1287(2)
C4 C 0.2258(4) 0.5720(5) 0.1268(2)
C5 C 0.2226(4) 0.7052(5) 0.1111(2)
C6 C 0.1318(4) 0.7551(5) 0.0846(2)
C7 C 0.0429(4) 0.6734(5) 0.0726(2)
C8 C 0.0447(4) 0.5390(5) 0.0867(2)
C9 C 0.1364(4) 0.4901(5) 0.1141(2)
C10 C -0.0461(4) 0.4434(5) 0.0720(2)
C11 C -0.1552(4) 0.4973(5) 0.0519(2)
C12 C -0.2040(4) 0.6016(6) 0.0721(2)
C13 C -0.3073(5) 0.6423(6) 0.0537(3)
C14 C -0.3591(5) 0.5815(7) 0.0156(3)
C15 C -0.3101(6) 0.4794(8) -0.0042(2)
C16 C -0.2090(5) 0.4357(7) 0.0145(2)
C17 C 0.1162(4) 0.1607(7) 0.2154(2)
C18 C 0.3587(5) -0.0130(5) 0.1969(2)
C19 C 0.3829(4) 0.2302(5) 0.2866(2)
H1 H 0.356 0.596 0.173
H2 H 0.284 0.762 0.119
H3 H 0.130 0.847 0.075
H4 H -0.020 0.708 0.054
H5 H 0.138 0.398 0.124
H6 H -0.167 0.642 0.099
H7 H -0.341 0.714 0.067
H8 H -0.429 0.613 0.003
H9 H -0.348 0.437 -0.030
H10 H -0.175 0.362 0.002
H11 H 0.432 0.544 0.108
H12 H 0.475 0.419 0.151
H13 H 0.372 0.404 0.103
H14 H 0.084 0.072 0.217
H15 H 0.103 0.197 0.190
H16 H 0.085 0.231 0.231
H17 H 0.381 -0.065 0.215
H18 H 0.306 -0.058 0.174
H19 H 0.411 0.020 0.184
H20 H 0.415 0.163 0.306
H21 H 0.428 0.271 0.275
H22 H 0.341 0.295 0.304
O2C O 0.2523(3) 0.4523(4) 0.2212(1)
Sn1C Sn 0.21405(2) 0.63936(3) 0.26892(1)
loop_
_geom_bond_atom_site_label_1
_geom_bond_atom_site_label_2
_geom_bond_site_symmetry_1
_geom_bond_site_symmetry_2
Sn1 O1 1_555 1_555
O1 C1 1_555 1_555
O2 Sn1 1_555 1_555
O3 C10 1_555 1_555
C1 C2 1_555 1_555
C2 C3 1_555 1_555
C3 H11 1_555 1_555
C4 C2 1_555 1_555
C5 C4 1_555 1_555
C6 C5 1_555 1_555
C7 C6 1_555 1_555
C8 C7 1_555 1_555
C9 C4 1_555 1_555
C10 C8 1_555 1_555
C11 C10 1_555 1_555
C12 C11 1_555 1_555
C13 C12 1_555 1_555
C14 C13 1_555 1_555
C15 C14 1_555 1_555
C16 C11 1_555 1_555
C17 Sn1 1_555 1_555
C18 Sn1 1_555 1_555
C19 Sn1 1_555 1_555
H1 C2 1_555 1_555
H2 C5 1_555 1_555
H3 C6 1_555 1_555
H4 C7 1_555 1_555
H5 C9 1_555 1_555
H6 C12 1_555 1_555
H7 C13 1_555 1_555
H8 C14 1_555 1_555
H9 C15 1_555 1_555
H10 C16 1_555 1_555
H12 C3 1_555 1_555
H13 C3 1_555 1_555
H14 C17 1_555 1_555
H15 C17 1_555 1_555
H16 C17 1_555 1_555
H17 C18 1_555 1_555
H18 C18 1_555 1_555
H19 C18 1_555 1_555
H20 C19 1_555 1_555
H21 C19 1_555 1_555
H22 C19 1_555 1_555
O2C C1 1_555 1_555
Sn1C O2C 1_555 1_555
C8 C9 1_555 1_555
C15 C16 1_555 1_555

#END
