
#######################################################################
#
#                 Cambridge Crystallographic Data Centre
#                                CCDC 
#
#######################################################################
#
# If this CIF has been generated from an entry in the Cambridge 
# Structural Database, then it will include bibliographic, chemical, 
# crystal, experimental, refinement or atomic coordinate data resulting 
# from the CCDC's data processing and validation procedures.
#
#######################################################################

data_ROKJAC
_symmetry_cell_setting           monoclinic
_symmetry_space_group_name_H-M   'P 21/n'
_symmetry_Int_Tables_number      14
_space_group_name_Hall           '-P 2yn'
loop_
_symmetry_equiv_pos_site_id
_symmetry_equiv_pos_as_xyz
1 x,y,z
2 1/2-x,1/2+y,1/2-z
3 -x,-y,-z
4 1/2+x,1/2-y,1/2+z
_cell_length_a                   10.923(4)
_cell_length_b                   11.114(1)
_cell_length_c                   13.548(4)
_cell_angle_alpha                90
_cell_angle_beta                 99.52(1)
_cell_angle_gamma                90
_cell_volume                     1622.05
loop_
_atom_site_label
_atom_site_type_symbol
_atom_site_fract_x
_atom_site_fract_y
_atom_site_fract_z
Cr1 Cr -0.09514(4) 0.59296(4) 0.17664(3)
O1 O -0.1623(2) 0.4559(2) 0.09279(15)
C1 C -0.0925(2) 0.3624(2) 0.1063(2)
O2 O -0.1230(2) 0.2598(2) 0.08184(15)
C2 C 0.0413(2) 0.3878(2) 0.1582(2)
O3 O 0.0583(2) 0.4955(2) 0.19161(15)
O4 O 0.1185(2) 0.3085(2) 0.1631(2)
O5 O -0.0132(2) 0.7234(2) 0.25975(14)
C3 C 0.0123(3) 0.8150(2) 0.2094(2)
O6 O 0.0562(2) 0.9091(2) 0.2448(2)
C4 C -0.0166(2) 0.7992(2) 0.0955(2)
O7 O -0.0556(2) 0.6949(2) 0.06654(14)
O8 O -0.0014(2) 0.8849(2) 0.04190(15)
O9 O -0.2593(2) 0.6688(2) 0.15700(14)
C5 C -0.3293(3) 0.6334(2) 0.2188(2)
O10 O -0.4378(2) 0.6606(2) 0.21707(15)
C6 C -0.2646(2) 0.5482(2) 0.3015(2)
O11 O -0.1543(2) 0.5181(2) 0.29245(14)
O12 O -0.3211(2) 0.5151(2) 0.36762(14)
Ca1 Ca 0.03839(5) 0.09453(5) 0.14297(4)
K1 K 0.33691(8) 0.27571(8) 0.06447(7)
O13 O 0.2042(2) 0.1121(2) 0.2900(2)
H1 H 0.2853 0.0769 0.3000
H2 H 0.2134 0.1573 0.3400
O14 O 0.2304(2) 0.0510(2) 0.0792(2)
H3 H 0.2718 -0.0217 0.1000
H4 H 0.2189 0.0371 0.0000
O16 O 0.4696(3) 0.1195(3) -0.0377(2)
H7 H 0.4289 0.0945 -0.1000
H8 H 0.5374 0.0856 -0.0600
O17 O 0.3868(3) 0.5094(3) 0.0355(2)
H9 H 0.3193 0.5347 -0.0200
H10 H 0.4372 0.5586 0.0000
K1A K 0.16309(8) 0.77571(8) 0.43553(7)
Ca1_2 Ca 0.03839(5) 1.09453(5) 0.14297(4)
K1B K -0.33691(8) 0.72429(8) -0.06447(7)
Ca1B Ca -0.03839(5) 0.90547(5) -0.14297(4)
Ca1A Ca -0.53839(5) 0.59453(5) 0.35703(4)
O6_2 O 0.0562(2) -0.0909(2) 0.2448(2)
O8_2 O -0.0014(2) -0.1151(2) 0.04190(15)
O8B O 0.0014(2) 0.1151(2) -0.04190(15)
O10A O -0.0622(2) 0.1606(2) 0.28293(15)
O12A O -0.1789(2) 0.0151(2) 0.13238(14)
O5A O 0.5132(2) 0.2234(2) 0.24025(14)
O6A O 0.4438(2) 0.4091(2) 0.2552(2)
O7B O 0.0556(2) 0.3051(2) -0.06654(14)
O9B O 0.2593(2) 0.3312(2) -0.15700(14)
O15 O 0.1990(2) 0.3104(2) 0.4158(2)
H5 H 0.2492 0.2853 0.4800
H6 H 0.1152 0.3165 0.4400
loop_
_geom_bond_atom_site_label_1
_geom_bond_atom_site_label_2
_geom_bond_site_symmetry_1
_geom_bond_site_symmetry_2
Cr1 O1 1_555 1_555
O1 C1 1_555 1_555
C1 O2 1_555 1_555
O2 Ca1 1_555 1_555
C2 C1 1_555 1_555
O3 Cr1 1_555 1_555
O4 C2 1_555 1_555
O5 Cr1 1_555 1_555
C3 O5 1_555 1_555
O6 C3 1_555 1_555
C4 C3 1_555 1_555
O7 Cr1 1_555 1_555
O8 C4 1_555 1_555
O9 Cr1 1_555 1_555
C5 O9 1_555 1_555
O10 C5 1_555 1_555
C6 C5 1_555 1_555
O11 Cr1 1_555 1_555
O12 C6 1_555 1_555
Ca1 O4 1_555 1_555
K1 O4 1_555 1_555
O13 Ca1 1_555 1_555
H1 O13 1_555 1_555
H2 O13 1_555 1_555
O14 Ca1 1_555 1_555
H3 O14 1_555 1_555
H4 O14 1_555 1_555
O15 H5 1_555 1_555
H6 O15 1_555 1_555
O16 K1 1_555 1_555
H7 O16 1_555 1_555
H8 O16 1_555 1_555
O17 K1 1_555 1_555
H9 O17 1_555 1_555
H10 O17 1_555 1_555
K1A O5 1_555 1_555
Ca1_2 O6 1_555 1_555
K1B O7 1_555 1_555
Ca1B O8 1_555 1_555
Ca1A O10 1_555 1_555
O6_2 Ca1 1_555 1_555
O8_2 Ca1 1_555 1_555
O8B Ca1 1_555 1_555
O10A Ca1 1_555 1_555
O12A Ca1 1_555 1_555
O5A K1 1_555 1_555
O6A K1 1_555 1_555
O7B K1 1_555 1_555
O9B K1 1_555 1_555
C2 O3 1_555 1_555
O6 K1A 1_555 1_555
C4 O7 1_555 1_555
O8 Ca1_2 1_555 1_555
O9 K1B 1_555 1_555
C6 O11 1_555 1_555
O12 Ca1A 1_555 1_555
K1 O14 1_555 1_555

#END
