
#######################################################################
#
#                 Cambridge Crystallographic Data Centre
#                                CCDC 
#
#######################################################################
#
# If this CIF has been generated from an entry in the Cambridge 
# Structural Database, then it will include bibliographic, chemical, 
# crystal, experimental, refinement or atomic coordinate data resulting 
# from the CCDC's data processing and validation procedures.
#
#######################################################################

data_ROKKIL03
_symmetry_cell_setting           monoclinic
_symmetry_space_group_name_H-M   'P 21/c'
_symmetry_Int_Tables_number      14
_space_group_name_Hall           '-P 2ybc'
loop_
_symmetry_equiv_pos_site_id
_symmetry_equiv_pos_as_xyz
1 x,y,z
2 -x,1/2+y,1/2-z
3 -x,-y,-z
4 x,1/2-y,1/2+z
_cell_length_a                   11.058(5)
_cell_length_b                   11.580(5)
_cell_length_c                   9.677(5)
_cell_angle_alpha                90
_cell_angle_beta                 102.785(5)
_cell_angle_gamma                90
_cell_volume                     1208.43
loop_
_atom_site_label
_atom_site_type_symbol
_atom_site_fract_x
_atom_site_fract_y
_atom_site_fract_z
Cu1 Cu 0.28697(2) 0.08156(2) 0.37057(3)
O1 O 0.39882(14) 0.00871(14) 0.27110(17)
O2 O 0.18680(14) 0.14639(15) 0.49942(17)
O3 O 0.19944(16) 0.26358(16) 0.68490(18)
N1 N 0.41656(17) 0.17814(16) 0.48123(18)
N2 N 0.15368(18) -0.02522(17) 0.2815(2)
N3 N -0.00538(19) -0.14270(19) 0.2482(2)
H1 H -0.0672 -0.1813 0.2645
C1 C 0.5311(2) 0.18210(19) 0.4739(2)
H2 H 0.5843 0.2279 0.5394
C2 C 0.5825(2) 0.1209(2) 0.3717(2)
C3 C 0.5139(2) 0.03758(19) 0.2767(2)
C4 C 0.5763(2) -0.0152(2) 0.1811(3)
H3 H 0.5354 -0.0712 0.1192
C5 C 0.6950(3) 0.0137(3) 0.1768(3)
H4 H 0.7331 -0.0229 0.1121
C6 C 0.7604(3) 0.0969(3) 0.2674(3)
H5 H 0.8406 0.1172 0.2620
C7 C 0.7050(2) 0.1479(2) 0.3639(3)
H6 H 0.7491 0.2020 0.4262
C8 C 0.3760(2) 0.2468(2) 0.5883(2)
H7 H 0.3814 0.3283 0.5668
H8 H 0.4297 0.2322 0.6803
C9 C 0.2442(2) 0.21678(19) 0.5921(2)
C10 C 0.1337(3) -0.0710(3) 0.1485(3)
H9 H 0.1809 -0.0548 0.0823
C11 C 0.0355(3) -0.1433(3) 0.1268(3)
H10 H 0.0027 -0.1849 0.0449
C12 C 0.0674(2) -0.0715(2) 0.3382(3)
H11 H 0.0583 -0.0563 0.4298
Cu1C Cu 0.28697(2) 0.41844(2) 0.87057(3)
O3C O 0.19944(16) 0.23642(16) 0.18490(18)
loop_
_geom_bond_atom_site_label_1
_geom_bond_atom_site_label_2
_geom_bond_site_symmetry_1
_geom_bond_site_symmetry_2
Cu1 O1 1_555 1_555
O1 C3 1_555 1_555
O2 Cu1 1_555 1_555
O3 C9 1_555 1_555
N1 Cu1 1_555 1_555
N2 Cu1 1_555 1_555
N3 H1 1_555 1_555
C1 N1 1_555 1_555
H2 C1 1_555 1_555
C2 C1 1_555 1_555
C3 C2 1_555 1_555
C4 C3 1_555 1_555
H3 C4 1_555 1_555
C5 C4 1_555 1_555
H4 C5 1_555 1_555
C6 C5 1_555 1_555
H5 C6 1_555 1_555
C7 C2 1_555 1_555
H6 C7 1_555 1_555
C8 N1 1_555 1_555
H7 C8 1_555 1_555
H8 C8 1_555 1_555
C9 O2 1_555 1_555
C10 N2 1_555 1_555
H9 C10 1_555 1_555
C11 N3 1_555 1_555
H10 C11 1_555 1_555
C12 N2 1_555 1_555
H11 C12 1_555 1_555
Cu1C O3 1_555 1_555
O3C Cu1 1_555 1_555
N3 C12 1_555 1_555
C6 C7 1_555 1_555
C8 C9 1_555 1_555
C10 C11 1_555 1_555

#END
