
#######################################################################
#
#                 Cambridge Crystallographic Data Centre
#                                CCDC 
#
#######################################################################
#
# If this CIF has been generated from an entry in the Cambridge 
# Structural Database, then it will include bibliographic, chemical, 
# crystal, experimental, refinement or atomic coordinate data resulting 
# from the CCDC's data processing and validation procedures.
#
#######################################################################

data_ROKKIL02
_symmetry_cell_setting           monoclinic
_symmetry_space_group_name_H-M   'P 21/c'
_symmetry_Int_Tables_number      14
_space_group_name_Hall           '-P 2ybc'
loop_
_symmetry_equiv_pos_site_id
_symmetry_equiv_pos_as_xyz
1 x,y,z
2 -x,1/2+y,1/2-z
3 -x,-y,-z
4 x,1/2-y,1/2+z
_cell_length_a                   11.057(4)
_cell_length_b                   11.509(5)
_cell_length_c                   9.676(4)
_cell_angle_alpha                90
_cell_angle_beta                 103.141(4)
_cell_angle_gamma                90
_cell_volume                     1199.08
loop_
_atom_site_label
_atom_site_type_symbol
_atom_site_fract_x
_atom_site_fract_y
_atom_site_fract_z
Cu1 Cu 0.21325(3) 0.91857(3) 0.12914(4)
N1 N 0.0841(2) 0.8221(2) 0.0191(2)
N2 N 0.3460(2) 1.0255(2) 0.2179(2)
N3 N 0.5051(2) 1.1422(2) 0.2516(3)
H1 H 0.5668 1.1810 0.2351
O1 O 0.31323(18) 0.85361(19) 0.0004(2)
O2 O 0.30086(18) 0.7362(2) -0.1847(2)
O3 O 0.10178(17) 0.99122(18) 0.2284(2)
C1 C 0.2564(3) 0.7829(3) -0.0924(3)
C2 C 0.1243(2) 0.7529(3) -0.0881(3)
H2 H 0.0700 0.7676 -0.1803
H3 H 0.1189 0.6710 -0.0667
C3 C -0.0307(3) 0.8175(3) 0.0262(3)
H4 H -0.0840 0.7710 -0.0393
C4 C -0.0819(2) 0.8792(3) 0.1281(3)
C5 C -0.2046(3) 0.8517(3) 0.1357(3)
H5 H -0.2490 0.7971 0.0734
C6 C -0.2594(3) 0.9035(3) 0.2325(4)
H6 H -0.3398 0.8834 0.2374
C7 C -0.1944(3) 0.9860(3) 0.3231(4)
H7 H -0.2320 1.0223 0.3884
C8 C -0.0753(3) 1.0154(3) 0.3185(3)
H8 H -0.0340 1.0719 0.3804
C9 C -0.0138(3) 0.9624(3) 0.2229(3)
C10 C 0.3666(3) 1.0705(3) 0.3513(4)
H9 H 0.3200 1.0536 0.4176
C11 C 0.4647(3) 1.1434(3) 0.3732(4)
H10 H 0.4976 1.1857 0.4550
C12 C 0.4326(3) 1.0707(3) 0.1622(3)
H11 H 0.4421 1.0546 0.0711
Cu1C Cu 0.21325(3) 0.58143(3) -0.37086(4)
O2C O 0.30086(18) 0.7638(2) 0.3153(2)
loop_
_geom_bond_atom_site_label_1
_geom_bond_atom_site_label_2
_geom_bond_site_symmetry_1
_geom_bond_site_symmetry_2
Cu1 N1 1_555 1_555
N1 C2 1_555 1_555
N2 Cu1 1_555 1_555
N3 H1 1_555 1_555
O1 Cu1 1_555 1_555
O2 C1 1_555 1_555
O3 Cu1 1_555 1_555
C1 O1 1_555 1_555
C2 C1 1_555 1_555
H2 C2 1_555 1_555
H3 C2 1_555 1_555
C3 N1 1_555 1_555
H4 C3 1_555 1_555
C4 C3 1_555 1_555
C5 C4 1_555 1_555
H5 C5 1_555 1_555
C6 C5 1_555 1_555
H6 C6 1_555 1_555
C7 C6 1_555 1_555
H7 C7 1_555 1_555
C8 C7 1_555 1_555
H8 C8 1_555 1_555
C9 O3 1_555 1_555
C10 N2 1_555 1_555
H9 C10 1_555 1_555
C11 N3 1_555 1_555
H10 C11 1_555 1_555
C12 N2 1_555 1_555
H11 C12 1_555 1_555
Cu1C O2 1_555 1_555
O2C Cu1 1_555 1_555
N3 C12 1_555 1_555
C4 C9 1_555 1_555
C8 C9 1_555 1_555
C10 C11 1_555 1_555

#END
