
#######################################################################
#
#                 Cambridge Crystallographic Data Centre
#                                CCDC 
#
#######################################################################
#
# If this CIF has been generated from an entry in the Cambridge 
# Structural Database, then it will include bibliographic, chemical, 
# crystal, experimental, refinement or atomic coordinate data resulting 
# from the CCDC's data processing and validation procedures.
#
#######################################################################

data_ROKKOT
_symmetry_cell_setting           orthorhombic
_symmetry_space_group_name_H-M   'C m m m'
_symmetry_Int_Tables_number      65
_space_group_name_Hall           '-C 2 2'
loop_
_symmetry_equiv_pos_site_id
_symmetry_equiv_pos_as_xyz
1 x,y,z
2 -x,-y,z
3 x,-y,-z
4 -x,y,-z
5 1/2+x,1/2+y,z
6 1/2-x,1/2-y,z
7 1/2+x,1/2-y,-z
8 1/2-x,1/2+y,-z
9 -x,-y,-z
10 x,y,-z
11 -x,y,z
12 x,-y,z
13 1/2-x,1/2-y,-z
14 1/2+x,1/2+y,-z
15 1/2-x,1/2+y,z
16 1/2+x,1/2-y,z
_cell_length_a                   12.0014(7)
_cell_length_b                   7.1040(4)
_cell_length_c                   3.5380(2)
_cell_angle_alpha                90
_cell_angle_beta                 90
_cell_angle_gamma                90
_cell_volume                     301.643
loop_
_atom_site_label
_atom_site_type_symbol
_atom_site_fract_x
_atom_site_fract_y
_atom_site_fract_z
Co1 Co 0.0000 1.0000 -0.5000
Cl1 Cl 0.14183(7) 1.0000 0.0000
N1 N 0.0000 0.6967(4) -0.5000
C1 C -0.0945(2) 0.5975(4) -0.5000
H1 H -0.1637 0.6625 -0.5000
N1A N 0.0000 0.3033(4) -0.5000
C1B C -0.0945(2) 0.4025(4) -0.5000
H1B H -0.1637 0.3375 -0.5000
C1C C 0.0945(2) 0.5975(4) -0.5000
H1C H 0.1637 0.6625 -0.5000
C1A C 0.0945(2) 0.4025(4) -0.5000
H1A H 0.1637 0.3375 -0.5000
Cl1A Cl -0.14183(7) 1.0000 0.0000
Co1_2 Co 0.0000 0.0000 -0.5000
Co1_3 Co 0.0000 1.0000 0.5000
Cl1_2 Cl 0.14183(7) 1.0000 -1.0000
Cl1A_2 Cl -0.14183(7) 1.0000 -1.0000
N1A_2 N 0.0000 1.3033(4) -0.5000
loop_
_geom_bond_atom_site_label_1
_geom_bond_atom_site_label_2
_geom_bond_site_symmetry_1
_geom_bond_site_symmetry_2
Co1 Cl1 1_555 1_555
Cl1 Co1_3 1_555 1_555
N1 Co1 1_555 1_555
C1 N1 1_555 1_555
H1 C1 1_555 1_555
N1A C1B 1_555 1_555
C1B C1 1_555 1_555
H1B C1B 1_555 1_555
C1C N1 1_555 1_555
H1C C1C 1_555 1_555
C1A N1A 1_555 1_555
H1A C1A 1_555 1_555
Cl1A Co1 1_555 1_555
Co1_2 N1A 1_555 1_555
Co1_3 Cl1A 1_555 1_555
Cl1_2 Co1 1_555 1_555
Cl1A_2 Co1 1_555 1_555
N1A_2 Co1 1_555 1_555
C1C C1A 1_555 1_555

#END
