
#######################################################################
#
#                 Cambridge Crystallographic Data Centre
#                                CCDC 
#
#######################################################################
#
# If this CIF has been generated from an entry in the Cambridge 
# Structural Database, then it will include bibliographic, chemical, 
# crystal, experimental, refinement or atomic coordinate data resulting 
# from the CCDC's data processing and validation procedures.
#
#######################################################################

data_ROKKEJ
_symmetry_cell_setting           monoclinic
_symmetry_space_group_name_H-M   'P 21/c'
_symmetry_Int_Tables_number      14
_space_group_name_Hall           '-P 2ybc'
loop_
_symmetry_equiv_pos_site_id
_symmetry_equiv_pos_as_xyz
1 x,y,z
2 -x,1/2+y,1/2-z
3 -x,-y,-z
4 x,1/2-y,1/2+z
_cell_length_a                   12.4567(16)
_cell_length_b                   11.7829(15)
_cell_length_c                   12.1147(16)
_cell_angle_alpha                90
_cell_angle_beta                 91.889(2)
_cell_angle_gamma                90
_cell_volume                     1777.18
loop_
_atom_site_label
_atom_site_type_symbol
_atom_site_fract_x
_atom_site_fract_y
_atom_site_fract_z
Cd1 Cd 0.5000 1.0000 0.5000
P1 P 0.36450(4) 1.23660(5) 0.15006(4)
N1 N 0.35915(13) 1.00172(12) 0.39398(13)
N2 N 0.57004(12) 1.12530(13) 0.39508(13)
O1 O 0.44135(12) 1.31440(13) 0.10163(13)
O2 O 0.31934(12) 1.14617(14) 0.06443(12)
O3 O 0.25834(12) 1.29542(13) 0.18666(12)
C1 C 0.27125(14) 0.93545(15) 0.40956(15)
C2 C 0.18811(16) 0.96956(17) 0.33018(16)
H1 H 0.1181 0.9379 0.3222
C3 C 0.22851(16) 1.05502(17) 0.26927(17)
H2 H 0.1920 1.0946 0.2109
C4 C 0.33825(14) 1.07501(15) 0.30976(15)
C5 C 0.41154(15) 1.15801(15) 0.27029(16)
C6 C 0.3902(3) 1.0847(3) 0.0017(3)
H3 H 0.4308 1.0307 0.0497
H4 H 0.4423 1.1370 -0.0316
C7 C 0.3296(3) 1.0203(3) -0.0885(3)
H5 H 0.3789 0.9687 -0.1251
H6 H 0.2991 1.0741 -0.1427
H7 H 0.2717 0.9765 -0.0563
C8 C 0.21325(19) 1.3830(2) 0.1134(2)
H8 H 0.2050 1.3532 0.0372
H9 H 0.2619 1.4494 0.1125
C9 C 0.1079(2) 1.4168(2) 0.1541(2)
H10 H 0.0763 1.4751 0.1054
H11 H 0.1170 1.4473 0.2292
H12 H 0.0604 1.3506 0.1550
C10 C 0.51594(15) 1.18527(16) 0.31497(16)
C11 C 0.58010(16) 1.28485(17) 0.28920(17)
H13 H 0.5628 1.3410 0.2352
C12 C 0.66840(17) 1.28229(17) 0.35616(17)
H14 H 0.7247 1.3367 0.3583
C13 C 0.66230(15) 1.18163(15) 0.42434(15)
C14 C 0.73728(15) 1.15127(15) 0.50984(16)
C15 C 0.83852(15) 1.22070(16) 0.51575(16)
C16 C 0.90775(17) 1.22149(19) 0.42798(18)
H15 H 0.8908 1.1771 0.3643
C17 C 1.00057(18) 1.2854(2) 0.4315(2)
H16 H 1.0476 1.2836 0.3714
C18 C 1.02506(19) 1.3525(2) 0.5230(2)
H17 H 1.0880 1.3980 0.5253
C19 C 0.95734(18) 1.35251(18) 0.6108(2)
H18 H 0.9743 1.3977 0.6739
C20 C 0.86443(16) 1.28709(17) 0.60774(18)
H19 H 0.8184 1.2877 0.6687
P1B P 0.63550(4) 0.76340(5) 0.84994(4)
N1B N 0.64085(13) 0.99828(12) 0.60602(13)
N2B N 0.42996(12) 0.87470(13) 0.60492(13)
O1B O 0.55865(12) 0.68560(13) 0.89837(13)
O2B O 0.68066(12) 0.85383(14) 0.93557(12)
O3B O 0.74166(12) 0.70458(13) 0.81334(12)
C1B C 0.72875(14) 1.06455(15) 0.59044(15)
C2B C 0.81189(16) 1.03044(17) 0.66982(16)
H1B H 0.8819 1.0621 0.6778
C3B C 0.77149(16) 0.94498(17) 0.73073(17)
H2B H 0.8080 0.9054 0.7891
C4B C 0.66175(14) 0.92499(15) 0.69024(15)
C5B C 0.58846(15) 0.84199(15) 0.72971(16)
C6B C 0.6098(3) 0.9153(3) 0.9983(3)
H3B H 0.5692 0.9693 0.9503
H4B H 0.5577 0.8630 1.0316
C7B C 0.6704(3) 0.9797(3) 1.0885(3)
H5B H 0.6211 1.0313 1.1251
H6B H 0.7009 0.9259 1.1427
H7B H 0.7283 1.0235 1.0563
C8B C 0.78675(19) 0.6170(2) 0.8866(2)
H8B H 0.7950 0.6468 0.9628
H9B H 0.7381 0.5506 0.8875
C9B C 0.8921(2) 0.5832(2) 0.8459(2)
H10B H 0.9237 0.5249 0.8946
H11B H 0.8830 0.5527 0.7708
H12B H 0.9396 0.6494 0.8450
C10B C 0.48406(15) 0.81473(16) 0.68503(16)
C11B C 0.41990(16) 0.71515(17) 0.71080(17)
H13B H 0.4372 0.6590 0.7648
C12B C 0.33160(17) 0.71771(17) 0.64384(17)
H14B H 0.2753 0.6633 0.6417
C13B C 0.33770(15) 0.81837(15) 0.57566(15)
C14B C 0.26272(15) 0.84873(15) 0.49016(16)
C15B C 0.16148(15) 0.77930(16) 0.48425(16)
C16B C 0.09225(17) 0.77851(19) 0.57202(18)
H15B H 0.1092 0.8229 0.6357
C17B C -0.00057(18) 0.7146(2) 0.5685(2)
H16B H -0.0476 0.7164 0.6286
C18B C -0.02506(19) 0.6475(2) 0.4770(2)
H17B H -0.0880 0.6020 0.4747
C19B C 0.04266(18) 0.64749(18) 0.3892(2)
H18B H 0.0257 0.6023 0.3261
C20B C 0.13557(16) 0.71291(17) 0.39226(18)
H19B H 0.1816 0.7123 0.3313
Cd1A Cd 0.5000 0.5000 1.0000
Cd1A_2 Cd 0.5000 1.5000 0.0000
O1A O 0.55865(12) 0.81440(13) 0.39837(13)
O1C O 0.44135(12) 1.18560(13) 0.60163(13)
loop_
_geom_bond_atom_site_label_1
_geom_bond_atom_site_label_2
_geom_bond_site_symmetry_1
_geom_bond_site_symmetry_2
Cd1 N1 1_555 1_555
P1 O1 1_555 1_555
N1 C1 1_555 1_555
N2 Cd1 1_555 1_555
O1 Cd1A_2 1_555 1_555
O2 P1 1_555 1_555
O3 P1 1_555 1_555
C1 C2 1_555 1_555
C2 H1 1_555 1_555
C3 C2 1_555 1_555
H2 C3 1_555 1_555
C4 N1 1_555 1_555
C5 P1 1_555 1_555
C6 O2 1_555 1_555
H3 C6 1_555 1_555
H4 C6 1_555 1_555
C7 C6 1_555 1_555
H5 C7 1_555 1_555
H6 C7 1_555 1_555
H7 C7 1_555 1_555
C8 O3 1_555 1_555
H8 C8 1_555 1_555
H9 C8 1_555 1_555
C9 C8 1_555 1_555
H10 C9 1_555 1_555
H11 C9 1_555 1_555
H12 C9 1_555 1_555
C10 N2 1_555 1_555
C11 C10 1_555 1_555
H13 C11 1_555 1_555
C12 C11 1_555 1_555
H14 C12 1_555 1_555
C13 N2 1_555 1_555
C14 C13 1_555 1_555
C15 C14 1_555 1_555
C16 C15 1_555 1_555
H15 C16 1_555 1_555
C17 C16 1_555 1_555
H16 C17 1_555 1_555
C18 C17 1_555 1_555
H17 C18 1_555 1_555
C19 C18 1_555 1_555
H18 C19 1_555 1_555
C20 C15 1_555 1_555
H19 C20 1_555 1_555
P1B O1B 1_555 1_555
N1B Cd1 1_555 1_555
N2B Cd1 1_555 1_555
O1B Cd1A 1_555 1_555
O2B P1B 1_555 1_555
O3B P1B 1_555 1_555
C1B C14 1_555 1_555
C2B C1B 1_555 1_555
H1B C2B 1_555 1_555
C3B C2B 1_555 1_555
H2B C3B 1_555 1_555
C4B N1B 1_555 1_555
C5B P1B 1_555 1_555
C6B O2B 1_555 1_555
H3B C6B 1_555 1_555
H4B C6B 1_555 1_555
C7B C6B 1_555 1_555
H5B C7B 1_555 1_555
H6B C7B 1_555 1_555
H7B C7B 1_555 1_555
C8B O3B 1_555 1_555
H8B C8B 1_555 1_555
H9B C8B 1_555 1_555
C9B C8B 1_555 1_555
H10B C9B 1_555 1_555
H11B C9B 1_555 1_555
H12B C9B 1_555 1_555
C10B N2B 1_555 1_555
C11B C10B 1_555 1_555
H13B C11B 1_555 1_555
C12B C11B 1_555 1_555
H14B C12B 1_555 1_555
C13B N2B 1_555 1_555
C14B C1 1_555 1_555
C15B C14B 1_555 1_555
C16B C15B 1_555 1_555
H15B C16B 1_555 1_555
C17B C16B 1_555 1_555
H16B C17B 1_555 1_555
C18B C17B 1_555 1_555
H17B C18B 1_555 1_555
C19B C18B 1_555 1_555
H18B C19B 1_555 1_555
C20B C15B 1_555 1_555
H19B C20B 1_555 1_555
O1A Cd1 1_555 1_555
O1C Cd1 1_555 1_555
C3 C4 1_555 1_555
C4 C5 1_555 1_555
C5 C10 1_555 1_555
C12 C13 1_555 1_555
C19 C20 1_555 1_555
N1B C1B 1_555 1_555
C3B C4B 1_555 1_555
C4B C5B 1_555 1_555
C5B C10B 1_555 1_555
C12B C13B 1_555 1_555
C13B C14B 1_555 1_555
C19B C20B 1_555 1_555

#END
