
#######################################################################
#
#                 Cambridge Crystallographic Data Centre
#                                CCDC 
#
#######################################################################
#
# If this CIF has been generated from an entry in the Cambridge 
# Structural Database, then it will include bibliographic, chemical, 
# crystal, experimental, refinement or atomic coordinate data resulting 
# from the CCDC's data processing and validation procedures.
#
#######################################################################

data_ROKKOR
_symmetry_cell_setting           orthorhombic
_symmetry_space_group_name_H-M   'P b c a'
_symmetry_Int_Tables_number      61
_space_group_name_Hall           '-P 2ac 2ab'
loop_
_symmetry_equiv_pos_site_id
_symmetry_equiv_pos_as_xyz
1 x,y,z
2 1/2-x,-y,1/2+z
3 -x,1/2+y,1/2-z
4 1/2+x,1/2-y,-z
5 -x,-y,-z
6 1/2+x,y,1/2-z
7 x,1/2-y,1/2+z
8 1/2-x,1/2+y,z
_cell_length_a                   11.2152(5)
_cell_length_b                   9.3864(5)
_cell_length_c                   26.2788(9)
_cell_angle_alpha                90
_cell_angle_beta                 90
_cell_angle_gamma                90
_cell_volume                     2766.38
loop_
_atom_site_label
_atom_site_type_symbol
_atom_site_fract_x
_atom_site_fract_y
_atom_site_fract_z
Cu1 Cu 0.56886(4) 0.04499(5) 0.622214(16)
N1 N 0.6791(2) -0.0306(2) 0.57187(9)
O1 O 0.50752(19) 0.1807(2) 0.57430(8)
C1 C 0.5348(3) 0.1970(3) 0.52632(11)
O2 O 0.6276(2) -0.1170(2) 0.66314(8)
N2 N 0.4433(2) 0.1043(3) 0.67132(10)
C2 C 0.4794(3) 0.3076(3) 0.49866(13)
H1 H 0.4249 0.3664 0.5150
O3 O 0.7419(2) 0.2046(2) 0.66371(8)
N3 N 0.3355(3) 0.1576(4) 0.73791(11)
H2 H 0.3119 0.1629 0.7690
C3 C 0.5042(3) 0.3301(4) 0.44843(14)
H3 H 0.4660 0.4039 0.4313
C4 C 0.5842(3) 0.2463(4) 0.42257(14)
H4 H 0.6001 0.2630 0.3883
C5 C 0.6405(3) 0.1374(4) 0.44808(12)
H5 H 0.6940 0.0795 0.4307
C6 C 0.6187(3) 0.1118(3) 0.49997(11)
C7 C 0.6843(3) -0.0003(3) 0.52435(11)
H6 H 0.7344 -0.0552 0.5041
C8 C 0.7527(3) -0.1468(3) 0.59142(11)
H7 H 0.8352 -0.1162 0.5934
H8 H 0.7483 -0.2275 0.5684
C9 C 0.7100(3) -0.1907(3) 0.64350(11)
C10 C 0.4331(3) 0.0903(4) 0.72160(13)
C11 C 0.2803(4) 0.2160(6) 0.69744(16)
H9 H 0.2104 0.2692 0.6978
C12 C 0.3459(3) 0.1824(5) 0.65639(15)
H10 H 0.3281 0.2080 0.6231
C13 C 0.5153(5) 0.0132(7) 0.75568(18)
H11 H 0.5247 -0.0827 0.7425
H12 H 0.5927 0.0592 0.7536
C14 C 0.4835(6) 0.0026(8) 0.8088(2)
H13 H 0.5438 -0.0501 0.8266
H14 H 0.4084 -0.0457 0.8119
H15 H 0.4770 0.0964 0.8231
O3G O 0.7581(2) -0.2954(2) 0.66371(8)
Cu1G Cu 0.93114(4) -0.45501(5) 0.622214(16)
loop_
_geom_bond_atom_site_label_1
_geom_bond_atom_site_label_2
_geom_bond_site_symmetry_1
_geom_bond_site_symmetry_2
Cu1 N1 1_555 1_555
N1 C7 1_555 1_555
O1 Cu1 1_555 1_555
C1 O1 1_555 1_555
O2 Cu1 1_555 1_555
N2 Cu1 1_555 1_555
C2 C1 1_555 1_555
H1 C2 1_555 1_555
O3 Cu1 1_555 1_555
N3 H2 1_555 1_555
C3 C2 1_555 1_555
H3 C3 1_555 1_555
C4 C3 1_555 1_555
H4 C4 1_555 1_555
C5 C4 1_555 1_555
H5 C5 1_555 1_555
C6 C1 1_555 1_555
C7 C6 1_555 1_555
H6 C7 1_555 1_555
C8 N1 1_555 1_555
H7 C8 1_555 1_555
H8 C8 1_555 1_555
C9 O2 1_555 1_555
C10 N2 1_555 1_555
C11 N3 1_555 1_555
H9 C11 1_555 1_555
C12 N2 1_555 1_555
H10 C12 1_555 1_555
C13 C10 1_555 1_555
H11 C13 1_555 1_555
H12 C13 1_555 1_555
C14 C13 1_555 1_555
H13 C14 1_555 1_555
H14 C14 1_555 1_555
H15 C14 1_555 1_555
O3G C9 1_555 1_555
Cu1G O3G 1_555 1_555
N3 C10 1_555 1_555
C5 C6 1_555 1_555
C8 C9 1_555 1_555
C11 C12 1_555 1_555

#END
