
#######################################################################
#
#                 Cambridge Crystallographic Data Centre
#                                CCDC 
#
#######################################################################
#
# If this CIF has been generated from an entry in the Cambridge 
# Structural Database, then it will include bibliographic, chemical, 
# crystal, experimental, refinement or atomic coordinate data resulting 
# from the CCDC's data processing and validation procedures.
#
#######################################################################

data_ROKVES
_symmetry_cell_setting           orthorhombic
_symmetry_space_group_name_H-M   'P n n a'
_symmetry_Int_Tables_number      52
_space_group_name_Hall           '-P 2a 2bc'
loop_
_symmetry_equiv_pos_site_id
_symmetry_equiv_pos_as_xyz
1 x,y,z
2 1/2+x,y,-z
3 1/2+x,1/2-y,1/2+z
4 -x,1/2+y,1/2+z
5 -x,-y,-z
6 1/2-x,-y,z
7 1/2-x,1/2+y,1/2-z
8 x,1/2-y,1/2-z
_cell_length_a                   34.451(3)
_cell_length_b                   13.802(1)
_cell_length_c                   14.462(1)
_cell_angle_alpha                90
_cell_angle_beta                 90
_cell_angle_gamma                90
_cell_volume                     6876.58
loop_
_atom_site_label
_atom_site_type_symbol
_atom_site_fract_x
_atom_site_fract_y
_atom_site_fract_z
Cs1 Cs 0.08177(2) 0.2500 0.2500
Cs2 Cs 0.15487(2) 0.2500 -0.2500
Al1 Al 0.12155(7) 0.2694(2) 0.00404(19)
O1 O 0.16770(13) 0.2449(7) -0.0403(3)
C1 C 0.2040(2) 0.2428(11) 0.0049(6)
H1 H 0.2083 0.3085 0.0323
C2 C 0.2363(2) 0.2249(9) -0.0647(7)
H2 H 0.2360 0.2766 -0.1121
H3 H 0.2318 0.1622 -0.0963
C3 C 0.2760(3) 0.2230(11) -0.0173(8)
H4 H 0.2962 0.2060 -0.0633
H5 H 0.2820 0.2884 0.0070
C4 C 0.2770(3) 0.1520(11) 0.0597(9)
H6 H 0.3027 0.1551 0.0905
H7 H 0.2738 0.0858 0.0345
C5 C 0.2450(3) 0.1717(11) 0.1312(8)
H8 H 0.2495 0.2352 0.1614
H9 H 0.2453 0.1209 0.1795
C6 C 0.2055(3) 0.1720(10) 0.0811(9)
H10 H 0.2003 0.1065 0.0561
H11 H 0.1848 0.1873 0.1262
O2 O 0.09846(17) 0.3074(5) -0.0963(4)
C7 C 0.0612(3) 0.3486(11) -0.1104(10)
H12 H 0.0644 0.4034 -0.0658
C8 C 0.0606(3) 0.4092(9) -0.1953(10)
H13 H 0.0687 0.3687 -0.2484
H14 H 0.0799 0.4618 -0.1884
C9 C 0.0214(4) 0.4541(11) -0.2174(11)
H15 H 0.0227 0.5237 -0.2013
H16 H 0.0174 0.4499 -0.2851
C10 C -0.0093(4) 0.4173(18) -0.1770(16)
H17 H -0.0220 0.3752 -0.2236
H18 H -0.0273 0.4721 -0.1662
C11 C -0.0085(3) 0.3620(13) -0.0915(11)
H19 H -0.0291 0.3119 -0.0938
H20 H -0.0145 0.4059 -0.0393
C12 C 0.0302(3) 0.3129(14) -0.0732(13)
H21 H 0.0342 0.3118 -0.0054
H22 H 0.0280 0.2447 -0.0937
O3 O 0.12151(19) 0.3525(5) 0.0935(4)
C13 C 0.1427(3) 0.4410(7) 0.0988(7)
H23 H 0.1601 0.4462 0.0437
C14 C 0.1149(3) 0.5253(9) 0.0987(11)
H24 H 0.0957 0.5170 0.1490
H25 H 0.1007 0.5271 0.0392
C15 C 0.1376(4) 0.6233(9) 0.1128(13)
H26 H 0.1535 0.6367 0.0572
H27 H 0.1187 0.6769 0.1198
C16 C 0.1630(4) 0.6202(10) 0.1947(10)
H28 H 0.1468 0.6136 0.2509
H29 H 0.1774 0.6820 0.1994
C17 C 0.1917(5) 0.5368(11) 0.1908(12)
H30 H 0.2083 0.5364 0.2468
H31 H 0.2086 0.5428 0.1357
C18 C 0.1672(4) 0.4427(9) 0.1855(9)
H32 H 0.1846 0.3857 0.1860
H33 H 0.1501 0.4385 0.2404
O4 O 0.0992(2) 0.1725(5) 0.0584(5)
C19 C 0.0883(3) 0.0811(8) 0.0203(9)
H34 H 0.0773 0.0907 -0.0430
C20 C 0.1221(4) 0.0114(11) 0.0155(15)
H35 H 0.1418 0.0371 -0.0279
H36 H 0.1343 0.0063 0.0773
C21 C 0.1097(5) -0.0870(11) -0.0159(16)
H37 H 0.0997 -0.0833 -0.0800
H38 H 0.1322 -0.1316 -0.0151
C22 C 0.0791(5) -0.1240(11) 0.0457(14)
H39 H 0.0718 -0.1904 0.0266
H40 H 0.0890 -0.1270 0.1099
C23 C 0.0452(5) -0.0608(13) 0.0419(13)
H41 H 0.0236 -0.0888 0.0785
H42 H 0.0363 -0.0529 -0.0229
C24 C 0.0577(4) 0.0385(10) 0.0828(12)
H43 H 0.0351 0.0825 0.0865
H44 H 0.0682 0.0295 0.1459
O5 O -0.0071(3) 0.2500 0.2500
C25 C -0.0302(4) 0.2537(18) 0.1682(9)
H45 H -0.0288 0.1917 0.1339
H46 H -0.0215 0.3068 0.1270
C26 C -0.0701(4) 0.272(2) 0.2024(11)
H47 H -0.0895 0.2394 0.1624
H48 H -0.0758 0.3418 0.2047
O6 O 0.1977(3) 0.4502(7) -0.2341(8)
C27 C 0.1897(6) 0.4878(13) -0.1443(11)
H49 H 0.2140 0.5032 -0.1111
H50 H 0.1746 0.4405 -0.1073
C28 C 0.1673(6) 0.5745(16) -0.1604(16)
H51 H 0.1391 0.5608 -0.1564
H52 H 0.1740 0.6254 -0.1149
C29 C 0.1777(7) 0.6037(12) -0.251(2)
H53 H 0.1967 0.6573 -0.2478
H54 H 0.1543 0.6280 -0.2839
C30 C 0.1942(6) 0.5247(13) -0.3028(12)
H55 H 0.1768 0.5042 -0.3538
H56 H 0.2198 0.5423 -0.3287
C26G C -0.0701(4) 0.228(2) 0.2976(11)
C25G C -0.0302(4) 0.2463(18) 0.3318(9)
H45G H -0.0288 0.3083 0.3661
H46G H -0.0215 0.1932 0.3730
H47G H -0.0895 0.2606 0.3376
H48G H -0.0758 0.1582 0.2953
O3G O 0.12151(19) 0.1475(5) 0.4065(4)
C13G C 0.1427(3) 0.0590(7) 0.4012(7)
H23G H 0.1601 0.0538 0.4563
C14G C 0.1149(3) -0.0253(9) 0.4013(11)
H24G H 0.0957 -0.0170 0.3510
H25G H 0.1007 -0.0271 0.4608
C15G C 0.1376(4) -0.1233(9) 0.3872(13)
H26G H 0.1535 -0.1367 0.4428
H27G H 0.1187 -0.1769 0.3802
C16G C 0.1630(4) -0.1202(10) 0.3053(10)
H28G H 0.1468 -0.1136 0.2491
H29G H 0.1774 -0.1820 0.3006
C17G C 0.1917(5) -0.0368(11) 0.3092(12)
H30G H 0.2083 -0.0364 0.2532
H31G H 0.2086 -0.0428 0.3643
C18G C 0.1672(4) 0.0573(9) 0.3145(9)
H32G H 0.1846 0.1143 0.3140
H33G H 0.1501 0.0615 0.2596
O4G O 0.0992(2) 0.3275(5) 0.4416(5)
C19G C 0.0883(3) 0.4189(8) 0.4797(9)
H34G H 0.0773 0.4093 0.5430
C20G C 0.1221(4) 0.4886(11) 0.4845(15)
H35G H 0.1418 0.4629 0.5279
H36G H 0.1343 0.4937 0.4227
C21G C 0.1097(5) 0.5870(11) 0.5159(16)
H37G H 0.0997 0.5833 0.5800
H38G H 0.1322 0.6316 0.5151
C22G C 0.0791(5) 0.6240(11) 0.4543(14)
H39G H 0.0718 0.6904 0.4734
H40G H 0.0890 0.6270 0.3901
C23G C 0.0452(5) 0.5608(13) 0.4581(13)
H41G H 0.0236 0.5888 0.4215
H42G H 0.0363 0.5529 0.5229
C24G C 0.0577(4) 0.4615(10) 0.4172(12)
H43G H 0.0351 0.4175 0.4135
H44G H 0.0682 0.4705 0.3541
Al1G Al 0.12155(7) 0.2306(2) 0.49596(19)
O1G O 0.16770(13) 0.2551(7) 0.5403(3)
C1G C 0.2040(2) 0.2572(11) 0.4951(6)
H1G H 0.2083 0.1915 0.4677
C2G C 0.2363(2) 0.2751(9) 0.5647(7)
H2G H 0.2360 0.2234 0.6121
H3G H 0.2318 0.3378 0.5963
C3G C 0.2760(3) 0.2770(11) 0.5173(8)
H4G H 0.2962 0.2940 0.5633
H5G H 0.2820 0.2116 0.4930
C4G C 0.2770(3) 0.3480(11) 0.4403(9)
H6G H 0.3027 0.3449 0.4095
H7G H 0.2738 0.4142 0.4655
C5G C 0.2450(3) 0.3283(11) 0.3688(8)
H8G H 0.2495 0.2648 0.3386
H9G H 0.2453 0.3791 0.3205
C6G C 0.2055(3) 0.3280(10) 0.4189(9)
H10G H 0.2003 0.3935 0.4439
H11G H 0.1848 0.3127 0.3738
O2G O 0.09846(17) 0.1926(5) 0.5963(4)
C7G C 0.0612(3) 0.1514(11) 0.6104(10)
H12G H 0.0644 0.0966 0.5658
C8G C 0.0606(3) 0.0908(9) 0.6953(10)
H13G H 0.0687 0.1313 0.7484
H14G H 0.0799 0.0382 0.6884
C9G C 0.0214(4) 0.0459(11) 0.7174(11)
H15G H 0.0227 -0.0237 0.7013
H16G H 0.0174 0.0501 0.7851
C10G C -0.0093(4) 0.0827(18) 0.6770(16)
H17G H -0.0220 0.1248 0.7236
H18G H -0.0273 0.0279 0.6662
C11G C -0.0085(3) 0.1380(13) 0.5915(11)
H19G H -0.0291 0.1881 0.5938
H20G H -0.0145 0.0941 0.5393
C12G C 0.0302(3) 0.1871(14) 0.5732(13)
H21G H 0.0342 0.1882 0.5054
H22G H 0.0280 0.2553 0.5937
O6G O 0.1977(3) 0.0498(7) -0.2659(8)
C27G C 0.1897(6) 0.0122(13) -0.3557(11)
H49G H 0.2140 -0.0032 -0.3889
H50G H 0.1746 0.0595 -0.3927
C28G C 0.1673(6) -0.0745(16) -0.3396(16)
H51G H 0.1391 -0.0608 -0.3436
H52G H 0.1740 -0.1254 -0.3851
C29G C 0.1777(7) -0.1037(12) -0.249(2)
H53G H 0.1967 -0.1573 -0.2522
H54G H 0.1543 -0.1280 -0.2161
C30G C 0.1942(6) -0.0247(13) -0.1972(12)
H55G H 0.1768 -0.0042 -0.1462
H56G H 0.2198 -0.0423 -0.1713
O1G_2 O 0.16770(13) 0.2551(7) -0.4597(3)
O2G_2 O 0.09846(17) 0.1926(5) -0.4037(4)
Cs2_2 Cs 0.15487(2) 0.2500 0.7500
loop_
_geom_bond_atom_site_label_1
_geom_bond_atom_site_label_2
_geom_bond_site_symmetry_1
_geom_bond_site_symmetry_2
Cs1 O3 1_555 1_555
Cs2 O1 1_555 1_555
Al1 O1 1_555 1_555
O1 C1 1_555 1_555
C1 H1 1_555 1_555
C2 C1 1_555 1_555
H2 C2 1_555 1_555
H3 C2 1_555 1_555
C3 C2 1_555 1_555
H4 C3 1_555 1_555
H5 C3 1_555 1_555
C4 C3 1_555 1_555
H6 C4 1_555 1_555
H7 C4 1_555 1_555
C5 C4 1_555 1_555
H8 C5 1_555 1_555
H9 C5 1_555 1_555
C6 C1 1_555 1_555
H10 C6 1_555 1_555
H11 C6 1_555 1_555
O2 Cs2 1_555 1_555
C7 O2 1_555 1_555
H12 C7 1_555 1_555
C8 C7 1_555 1_555
H13 C8 1_555 1_555
H14 C8 1_555 1_555
C9 C8 1_555 1_555
H15 C9 1_555 1_555
H16 C9 1_555 1_555
C10 C9 1_555 1_555
H17 C10 1_555 1_555
H18 C10 1_555 1_555
C11 C10 1_555 1_555
H19 C11 1_555 1_555
H20 C11 1_555 1_555
C12 C7 1_555 1_555
H21 C12 1_555 1_555
H22 C12 1_555 1_555
O3 Al1 1_555 1_555
C13 O3 1_555 1_555
H23 C13 1_555 1_555
C14 C13 1_555 1_555
H24 C14 1_555 1_555
H25 C14 1_555 1_555
C15 C14 1_555 1_555
H26 C15 1_555 1_555
H27 C15 1_555 1_555
C16 C15 1_555 1_555
H28 C16 1_555 1_555
H29 C16 1_555 1_555
C17 C16 1_555 1_555
H30 C17 1_555 1_555
H31 C17 1_555 1_555
C18 C13 1_555 1_555
H32 C18 1_555 1_555
H33 C18 1_555 1_555
O4 Cs1 1_555 1_555
C19 O4 1_555 1_555
H34 C19 1_555 1_555
C20 C19 1_555 1_555
H35 C20 1_555 1_555
H36 C20 1_555 1_555
C21 C20 1_555 1_555
H37 C21 1_555 1_555
H38 C21 1_555 1_555
C22 C21 1_555 1_555
H39 C22 1_555 1_555
H40 C22 1_555 1_555
C23 C22 1_555 1_555
H41 C23 1_555 1_555
H42 C23 1_555 1_555
C24 C19 1_555 1_555
H43 C24 1_555 1_555
H44 C24 1_555 1_555
O5 Cs1 1_555 1_555
C25 O5 1_555 1_555
H45 C25 1_555 1_555
H46 C25 1_555 1_555
C26 C25 1_555 1_555
H47 C26 1_555 1_555
H48 C26 1_555 1_555
O6 Cs2 1_555 1_555
C27 O6 1_555 1_555
H49 C27 1_555 1_555
H50 C27 1_555 1_555
C28 C27 1_555 1_555
H51 C28 1_555 1_555
H52 C28 1_555 1_555
C29 C28 1_555 1_555
H53 C29 1_555 1_555
H54 C29 1_555 1_555
C30 O6 1_555 1_555
H55 C30 1_555 1_555
H56 C30 1_555 1_555
C26G C26 1_555 1_555
C25G O5 1_555 1_555
H45G C25G 1_555 1_555
H46G C25G 1_555 1_555
H47G C26G 1_555 1_555
H48G C26G 1_555 1_555
O3G Cs1 1_555 1_555
C13G O3G 1_555 1_555
H23G C13G 1_555 1_555
C14G C13G 1_555 1_555
H24G C14G 1_555 1_555
H25G C14G 1_555 1_555
C15G C14G 1_555 1_555
H26G C15G 1_555 1_555
H27G C15G 1_555 1_555
C16G C15G 1_555 1_555
H28G C16G 1_555 1_555
H29G C16G 1_555 1_555
C17G C16G 1_555 1_555
H30G C17G 1_555 1_555
H31G C17G 1_555 1_555
C18G C13G 1_555 1_555
H32G C18G 1_555 1_555
H33G C18G 1_555 1_555
O4G Cs1 1_555 1_555
C19G O4G 1_555 1_555
H34G C19G 1_555 1_555
C20G C19G 1_555 1_555
H35G C20G 1_555 1_555
H36G C20G 1_555 1_555
C21G C20G 1_555 1_555
H37G C21G 1_555 1_555
H38G C21G 1_555 1_555
C22G C21G 1_555 1_555
H39G C22G 1_555 1_555
H40G C22G 1_555 1_555
C23G C22G 1_555 1_555
H41G C23G 1_555 1_555
H42G C23G 1_555 1_555
C24G C19G 1_555 1_555
H43G C24G 1_555 1_555
H44G C24G 1_555 1_555
Al1G O3G 1_555 1_555
O1G Al1G 1_555 1_555
C1G O1G 1_555 1_555
H1G C1G 1_555 1_555
C2G C1G 1_555 1_555
H2G C2G 1_555 1_555
H3G C2G 1_555 1_555
C3G C2G 1_555 1_555
H4G C3G 1_555 1_555
H5G C3G 1_555 1_555
C4G C3G 1_555 1_555
H6G C4G 1_555 1_555
H7G C4G 1_555 1_555
C5G C4G 1_555 1_555
H8G C5G 1_555 1_555
H9G C5G 1_555 1_555
C6G C1G 1_555 1_555
H10G C6G 1_555 1_555
H11G C6G 1_555 1_555
O2G Al1G 1_555 1_555
C7G O2G 1_555 1_555
H12G C7G 1_555 1_555
C8G C7G 1_555 1_555
H13G C8G 1_555 1_555
H14G C8G 1_555 1_555
C9G C8G 1_555 1_555
H15G C9G 1_555 1_555
H16G C9G 1_555 1_555
C10G C9G 1_555 1_555
H17G C10G 1_555 1_555
H18G C10G 1_555 1_555
C11G C10G 1_555 1_555
H19G C11G 1_555 1_555
H20G C11G 1_555 1_555
C12G C7G 1_555 1_555
H21G C12G 1_555 1_555
H22G C12G 1_555 1_555
O6G Cs2 1_555 1_555
C27G O6G 1_555 1_555
H49G C27G 1_555 1_555
H50G C27G 1_555 1_555
C28G C27G 1_555 1_555
H51G C28G 1_555 1_555
H52G C28G 1_555 1_555
C29G C28G 1_555 1_555
H53G C29G 1_555 1_555
H54G C29G 1_555 1_555
C30G O6G 1_555 1_555
H55G C30G 1_555 1_555
H56G C30G 1_555 1_555
O1G_2 Cs2 1_555 1_555
O2G_2 Cs2 1_555 1_555
Cs2_2 O1G 1_555 1_555
Al1 O4 1_555 1_555
Al1 O2 1_555 1_555
C5 C6 1_555 1_555
C11 C12 1_555 1_555
C17 C18 1_555 1_555
C23 C24 1_555 1_555
C29 C30 1_555 1_555
C26G C25G 1_555 1_555
C17G C18G 1_555 1_555
O4G Al1G 1_555 1_555
C23G C24G 1_555 1_555
C5G C6G 1_555 1_555
O2G Cs2_2 1_555 1_555
C11G C12G 1_555 1_555
C29G C30G 1_555 1_555

#END
