
#######################################################################
#
#                 Cambridge Crystallographic Data Centre
#                                CCDC 
#
#######################################################################
#
# If this CIF has been generated from an entry in the Cambridge 
# Structural Database, then it will include bibliographic, chemical, 
# crystal, experimental, refinement or atomic coordinate data resulting 
# from the CCDC's data processing and validation procedures.
#
#######################################################################

data_ROKZIC
_symmetry_cell_setting           triclinic
_symmetry_space_group_name_H-M   'P -1'
_symmetry_Int_Tables_number      2
_space_group_name_Hall           '-P 1'
loop_
_symmetry_equiv_pos_site_id
_symmetry_equiv_pos_as_xyz
1 x,y,z
2 -x,-y,-z
_cell_length_a                   4.7440(9)
_cell_length_b                   7.2110(14)
_cell_length_c                   17.982(4)
_cell_angle_alpha                91.74(3)
_cell_angle_beta                 96.27(3)
_cell_angle_gamma                90.85(3)
_cell_volume                     611.082
loop_
_atom_site_label
_atom_site_type_symbol
_atom_site_fract_x
_atom_site_fract_y
_atom_site_fract_z
C1 C 0.564(5) 0.226(2) 0.8298(11)
C2 C 0.692(4) 0.186(3) 0.7577(11)
H1 H 0.7363 0.0519 0.7548
H2 H 0.8732 0.2563 0.7589
C3 C 0.500(4) 0.234(3) 0.6866(11)
H3 H 0.3203 0.1615 0.6848
H4 H 0.4527 0.3672 0.6899
C4 C 0.632(4) 0.196(3) 0.6146(10)
H5 H 0.8035 0.2759 0.6150
H6 H 0.6925 0.0655 0.6135
C5 C 0.441(4) 0.229(2) 0.5444(9)
H7 H 0.5426 0.2004 0.5009
H8 H 0.3850 0.3590 0.5438
H9 H 0.2721 0.1486 0.5426
C6 C 0.232(4) 0.733(3) 0.9132(10)
C7 C 0.025(4) 0.708(3) 0.8461(10)
H10 H -0.1322 0.7961 0.8497
H11 H -0.0563 0.5809 0.8442
C8 C 0.157(4) 0.741(3) 0.7748(10)
H12 H 0.3302 0.6661 0.7751
H13 H 0.2153 0.8732 0.7742
C9 C -0.037(5) 0.693(3) 0.7035(10)
H14 H -0.2051 0.7728 0.7013
H15 H -0.1035 0.5623 0.7048
C10 C 0.113(5) 0.718(3) 0.6322(11)
H16 H -0.0192 0.6858 0.5878
H17 H 0.2778 0.6374 0.6335
H18 H 0.1761 0.8479 0.6300
O1 O 0.705(3) 0.2124(16) 0.8913(7)
O2 O 0.311(3) 0.2755(16) 0.8266(6)
O3 O 0.321(3) 0.8923(17) 0.9345(7)
O4 O 0.305(3) 0.5968(17) 0.9526(6)
Pb1 Pb 0.28588(14) 0.24568(8) 0.95831(3)
O1_2 O -0.295(3) 0.2124(16) 0.8913(7)
O3_2 O 0.321(3) -0.1077(17) 0.9345(7)
O3A O 0.679(3) 0.1077(17) 1.0655(7)
O4A O 0.695(3) 0.4032(17) 1.0474(6)
Pb1_2 Pb 0.28588(14) 1.24568(8) 0.95831(3)
Pb1_3 Pb 1.28588(14) 0.24568(8) 0.95831(3)
Pb1A Pb 0.71412(14) 0.75432(8) 1.04169(3)
loop_
_geom_bond_atom_site_label_1
_geom_bond_atom_site_label_2
_geom_bond_site_symmetry_1
_geom_bond_site_symmetry_2
C1 C2 1_555 1_555
C2 H1 1_555 1_555
H2 C2 1_555 1_555
C3 C2 1_555 1_555
H3 C3 1_555 1_555
H4 C3 1_555 1_555
C4 C3 1_555 1_555
H5 C4 1_555 1_555
H6 C4 1_555 1_555
C5 C4 1_555 1_555
H7 C5 1_555 1_555
H8 C5 1_555 1_555
H9 C5 1_555 1_555
C6 C7 1_555 1_555
C7 H10 1_555 1_555
H11 C7 1_555 1_555
C8 C7 1_555 1_555
H12 C8 1_555 1_555
H13 C8 1_555 1_555
C9 C8 1_555 1_555
H14 C9 1_555 1_555
H15 C9 1_555 1_555
C10 C9 1_555 1_555
H16 C10 1_555 1_555
H17 C10 1_555 1_555
H18 C10 1_555 1_555
O1 C1 1_555 1_555
O2 C1 1_555 1_555
O3 C6 1_555 1_555
O4 C6 1_555 1_555
Pb1 O1 1_555 1_555
O1_2 Pb1 1_555 1_555
O3_2 Pb1 1_555 1_555
O3A Pb1 1_555 1_555
O4A Pb1 1_555 1_555
Pb1_2 O3 1_555 1_555
Pb1_3 O1 1_555 1_555
Pb1A O3 1_555 1_555
O2 Pb1 1_555 1_555
O4 Pb1 1_555 1_555
O4 Pb1A 1_555 1_555
O4A Pb1A 1_555 1_555

#END
