
#######################################################################
#
#                 Cambridge Crystallographic Data Centre
#                                CCDC 
#
#######################################################################
#
# If this CIF has been generated from an entry in the Cambridge 
# Structural Database, then it will include bibliographic, chemical, 
# crystal, experimental, refinement or atomic coordinate data resulting 
# from the CCDC's data processing and validation procedures.
#
#######################################################################

data_ROKZOI
_symmetry_cell_setting           triclinic
_symmetry_space_group_name_H-M   'P -1'
_symmetry_Int_Tables_number      2
_space_group_name_Hall           '-P 1'
loop_
_symmetry_equiv_pos_site_id
_symmetry_equiv_pos_as_xyz
1 x,y,z
2 -x,-y,-z
_cell_length_a                   4.7400(9)
_cell_length_b                   7.1920(14)
_cell_length_c                   20.573(4)
_cell_angle_alpha                86.98(3)
_cell_angle_beta                 84.79(3)
_cell_angle_gamma                89.18(3)
_cell_volume                     697.436
loop_
_atom_site_label
_atom_site_type_symbol
_atom_site_fract_x
_atom_site_fract_y
_atom_site_fract_z
C1 C 1.0771(17) 0.7365(9) 0.1475(4)
C2 C 1.2098(16) 0.7654(11) 0.2125(4)
H1 H 1.3899 0.6940 0.2126
H2 H 1.2547 0.8988 0.2147
C3 C 1.0197(16) 0.7054(11) 0.2727(4)
H3 H 0.9820 0.5705 0.2720
H4 H 0.8363 0.7728 0.2721
C4 C 1.153(2) 0.7442(12) 0.3349(4)
H5 H 1.1977 0.8785 0.3341
H6 H 1.3343 0.6741 0.3354
C5 C 0.9685(13) 0.6927(8) 0.3981(3)
H7 H 0.7871 0.7625 0.3976
H8 H 0.9246 0.5584 0.3990
C6 C 1.102(3) 0.7323(16) 0.4601(6)
H9 H 0.9725 0.6943 0.4981
H10 H 1.1394 0.8658 0.4606
H11 H 1.2805 0.6624 0.4615
C7 C 0.7358(12) 1.2480(7) 0.0755(3)
C8 C 0.5277(15) 1.2641(10) 0.1370(4)
H12 H 0.4494 1.3923 0.1386
H13 H 0.3685 1.1772 0.1356
C9 C 0.6848(17) 1.2167(10) 0.1978(4)
H14 H 0.7406 1.0835 0.1983
H15 H 0.8604 1.2908 0.1949
C10 C 0.5110(18) 1.2541(12) 0.2615(4)
H16 H 0.4722 1.3895 0.2626
H17 H 0.3266 1.1910 0.2619
C11 C 0.6448(18) 1.1918(11) 0.3228(4)
H18 H 0.8307 1.2532 0.3223
H19 H 0.6802 1.0558 0.3223
C12 C 0.470(2) 1.2334(14) 0.3859(5)
H20 H 0.5724 1.1901 0.4232
H21 H 0.2881 1.1691 0.3879
H22 H 0.4359 1.3680 0.3873
O1 O 0.8233(11) 0.6857(7) 0.1516(3)
O2 O 1.2195(10) 0.7681(6) 0.0944(2)
O3 O 0.8047(11) 1.3938(6) 0.0410(2)
O4 O 0.8288(11) 1.0929(6) 0.0603(2)
Pb1 Pb 0.78935(4) 0.74572(2) 0.036044(9)
O2_2 O 0.2195(10) 0.7681(6) 0.0944(2)
O3_2 O 0.8047(11) 0.3938(6) 0.0410(2)
O3A O 1.1953(11) 0.6062(6) -0.0410(2)
O4A O 1.1712(11) 0.9071(6) -0.0603(2)
Pb1_2 Pb 0.78935(4) 1.74572(2) 0.036044(9)
Pb1_3 Pb 1.78935(4) 0.74572(2) 0.036044(9)
Pb1A Pb 1.21065(4) 1.25428(2) -0.036044(9)
loop_
_geom_bond_atom_site_label_1
_geom_bond_atom_site_label_2
_geom_bond_site_symmetry_1
_geom_bond_site_symmetry_2
C1 C2 1_555 1_555
C2 H1 1_555 1_555
H2 C2 1_555 1_555
C3 C2 1_555 1_555
H3 C3 1_555 1_555
H4 C3 1_555 1_555
C4 C3 1_555 1_555
H5 C4 1_555 1_555
H6 C4 1_555 1_555
C5 C4 1_555 1_555
H7 C5 1_555 1_555
H8 C5 1_555 1_555
C6 C5 1_555 1_555
H9 C6 1_555 1_555
H10 C6 1_555 1_555
H11 C6 1_555 1_555
C7 C8 1_555 1_555
C8 H12 1_555 1_555
H13 C8 1_555 1_555
C9 C8 1_555 1_555
H14 C9 1_555 1_555
H15 C9 1_555 1_555
C10 C9 1_555 1_555
H16 C10 1_555 1_555
H17 C10 1_555 1_555
C11 C10 1_555 1_555
H18 C11 1_555 1_555
H19 C11 1_555 1_555
C12 C11 1_555 1_555
H20 C12 1_555 1_555
H21 C12 1_555 1_555
H22 C12 1_555 1_555
O1 C1 1_555 1_555
O2 C1 1_555 1_555
O3 C7 1_555 1_555
O4 C7 1_555 1_555
Pb1 O1 1_555 1_555
O2_2 Pb1 1_555 1_555
O3_2 Pb1 1_555 1_555
O3A Pb1 1_555 1_555
O4A Pb1 1_555 1_555
Pb1_2 O3 1_555 1_555
Pb1_3 O2 1_555 1_555
Pb1A O3 1_555 1_555
O2 Pb1 1_555 1_555
O4 Pb1 1_555 1_555
O4 Pb1A 1_555 1_555
O4A Pb1A 1_555 1_555

#END
