
#######################################################################
#
#                 Cambridge Crystallographic Data Centre
#                                CCDC 
#
#######################################################################
#
# If this CIF has been generated from an entry in the Cambridge 
# Structural Database, then it will include bibliographic, chemical, 
# crystal, experimental, refinement or atomic coordinate data resulting 
# from the CCDC's data processing and validation procedures.
#
#######################################################################

data_ROKZOI01
_symmetry_cell_setting           triclinic
_symmetry_space_group_name_H-M   'P -1'
_symmetry_Int_Tables_number      2
_space_group_name_Hall           '-P 1'
loop_
_symmetry_equiv_pos_site_id
_symmetry_equiv_pos_as_xyz
1 x,y,z
2 -x,-y,-z
_cell_length_a                   4.83942(9)
_cell_length_b                   7.30791(13)
_cell_length_c                   20.6726(5)
_cell_angle_alpha                91.969(2)
_cell_angle_beta                 95.6808(17)
_cell_angle_gamma                88.8359(17)
_cell_volume                     726.983
loop_
_atom_site_label
_atom_site_type_symbol
_atom_site_fract_x
_atom_site_fract_y
_atom_site_fract_z
Pb1 Pb 0.20355 0.25180 0.03697
O1 O 0.17782 -0.09611 0.04284
O2 O 0.17252 -0.39110 0.05624
O3 O -0.20922 0.28361 0.09584
O4 O 0.17442 0.23091 0.15234
C1 C 0.25900 -0.23541 0.07434
C2 C 0.46100 -0.21002 0.13504
H1 H 0.54020 -0.08690 0.13727
H2 H 0.61040 -0.29600 0.13357
C3 C 0.30700 -0.24252 0.19524
H3 H 0.14240 -0.16880 0.19299
H4 H 0.24940 -0.37020 0.19546
C4 C 0.48900 -0.19352 0.25804
H5 H 0.53460 -0.06370 0.25905
H6 H 0.65990 -0.25990 0.25837
C5 C 0.35030 -0.23802 0.31955
H7 H 0.17520 -0.17560 0.31836
H8 H 0.31120 -0.36870 0.31948
C6 C 0.52940 -0.18130 0.38246
H9 H 0.56340 -0.03428 0.38330
H10 H 0.72867 -0.25413 0.38432
H11 H 0.42269 -0.21542 0.42440
C7 C -0.06920 0.27051 0.14864
C8 C -0.20420 0.31052 0.21124
H12 H -0.24510 0.43980 0.21366
H13 H -0.37780 0.24230 0.20928
C9 C -0.02520 0.26132 0.27284
H14 H 0.15320 0.32400 0.27376
H15 H 0.00700 0.13050 0.27185
C10 C -0.16020 0.31372 0.33434
H16 H -0.33820 0.25140 0.33308
H17 H -0.19080 0.44450 0.33521
C11 C 0.01930 0.26352 0.39625
H18 H 0.19600 0.32780 0.39767
H19 H 0.05340 0.13310 0.39464
C12 C -0.11740 0.31230 0.45826
H20 H -0.31209 0.23927 0.45747
H21 H -0.15927 0.45940 0.46102
H22 H 0.02121 0.27304 0.50046
Pb1_2 Pb -0.79645 0.25180 0.03697
Pb1_3 Pb 0.20355 -0.74820 0.03697
Pb1A Pb -0.20355 -0.25180 -0.03697
O1A O -0.17782 0.09611 -0.04284
O2_2 O 0.17252 0.60890 0.05624
O2A O -0.17252 0.39110 -0.05624
O3_2 O 0.79078 0.28361 0.09584
loop_
_geom_bond_atom_site_label_1
_geom_bond_atom_site_label_2
_geom_bond_site_symmetry_1
_geom_bond_site_symmetry_2
Pb1 O1 1_555 1_555
O1 C1 1_555 1_555
O2 C1 1_555 1_555
O3 Pb1 1_555 1_555
O4 Pb1 1_555 1_555
C1 C2 1_555 1_555
C2 H1 1_555 1_555
H2 C2 1_555 1_555
C3 C2 1_555 1_555
H3 C3 1_555 1_555
H4 C3 1_555 1_555
C4 C3 1_555 1_555
H5 C4 1_555 1_555
H6 C4 1_555 1_555
C5 C4 1_555 1_555
H7 C5 1_555 1_555
H8 C5 1_555 1_555
C6 C5 1_555 1_555
H9 C6 1_555 1_555
H10 C6 1_555 1_555
H11 C6 1_555 1_555
C7 O3 1_555 1_555
C8 C7 1_555 1_555
H12 C8 1_555 1_555
H13 C8 1_555 1_555
C9 C8 1_555 1_555
H14 C9 1_555 1_555
H15 C9 1_555 1_555
C10 C9 1_555 1_555
H16 C10 1_555 1_555
H17 C10 1_555 1_555
C11 C10 1_555 1_555
H18 C11 1_555 1_555
H19 C11 1_555 1_555
C12 C11 1_555 1_555
H20 C12 1_555 1_555
H21 C12 1_555 1_555
H22 C12 1_555 1_555
Pb1_2 O3 1_555 1_555
Pb1_3 O2 1_555 1_555
Pb1A O1 1_555 1_555
O1A Pb1 1_555 1_555
O2_2 Pb1 1_555 1_555
O2A Pb1 1_555 1_555
O3_2 Pb1 1_555 1_555
O2 Pb1A 1_555 1_555
O4 C7 1_555 1_555
Pb1A O1A 1_555 1_555

#END
