
#######################################################################
#
#                 Cambridge Crystallographic Data Centre
#                                CCDC 
#
#######################################################################
#
# If this CIF has been generated from an entry in the Cambridge 
# Structural Database, then it will include bibliographic, chemical, 
# crystal, experimental, refinement or atomic coordinate data resulting 
# from the CCDC's data processing and validation procedures.
#
#######################################################################

data_ROLBUP
_symmetry_cell_setting           triclinic
_symmetry_space_group_name_H-M   'P -1'
_symmetry_Int_Tables_number      2
_space_group_name_Hall           '-P 1'
loop_
_symmetry_equiv_pos_site_id
_symmetry_equiv_pos_as_xyz
1 x,y,z
2 -x,-y,-z
_cell_length_a                   7.446(6)
_cell_length_b                   11.410(7)
_cell_length_c                   6.44(1)
_cell_angle_alpha                103.83(8)
_cell_angle_beta                 92.3(1)
_cell_angle_gamma                82.07(6)
_cell_volume                     526.178
loop_
_atom_site_label
_atom_site_type_symbol
_atom_site_fract_x
_atom_site_fract_y
_atom_site_fract_z
Rb1 Rb 0.25846(6) 0.54980(5) 0.24956(7)
Cl1 Cl 0.1256(2) 0.2563(1) 0.9324(2)
Cl2 Cl 0.1392(2) 0.1739(1) 0.4715(2)
Cl3 Cl 0.6776(2) 0.1196(1) 0.3970(2)
Cl4 Cl 0.6939(3) 0.0715(1) -0.0648(3)
O1 O 0.1476(4) 0.4674(3) -0.2406(5)
O2 O 0.3857(4) 0.3868(3) 0.5490(5)
O3 O 0.4486(4) 0.6473(3) -0.0504(5)
O4 O 0.2199(4) 0.6683(4) 0.7209(6)
C1 C 0.2465(6) 0.2539(4) 0.7003(7)
C2 C 0.2631(5) 0.3803(4) 0.6667(7)
C3 C 0.6026(7) 0.1712(5) 0.1699(8)
C4 C 0.6439(6) 0.2970(4) 0.1644(7)
H1 H 0.353(6) 0.212(4) 0.720(7)
H2 H 0.495(5) 0.171(4) 0.162(6)
H3 H 0.212(6) 0.605(5) 0.726(8)
Rb1A Rb -0.25846(6) 0.45020(5) -0.24956(7)
O1A O -0.1476(4) 0.5326(3) 0.2406(5)
Rb1A_2 Rb 0.74154(6) 0.45020(5) 0.75044(7)
O2A O 0.6143(4) 0.6132(3) 0.4510(5)
Rb1A_3 Rb 0.74154(6) 0.45020(5) -0.24956(7)
O3A O 0.5514(4) 0.3527(3) 0.0504(5)
Rb1_2 Rb 0.25846(6) 0.54980(5) 1.24956(7)
O4A O 0.7801(4) 0.3317(4) 0.2791(6)
H3A H 0.788(6) 0.395(5) 0.274(8)
O1_2 O 0.1476(4) 0.4674(3) 0.7594(5)
Rb1A_4 Rb -0.25846(6) 0.45020(5) 0.75044(7)
loop_
_geom_bond_atom_site_label_1
_geom_bond_atom_site_label_2
_geom_bond_site_symmetry_1
_geom_bond_site_symmetry_2
Rb1 O1 1_555 1_555
Cl1 C1 1_555 1_555
Cl2 C1 1_555 1_555
Cl3 C3 1_555 1_555
Cl4 C3 1_555 1_555
O1 Rb1A 1_555 1_555
O2 Rb1 1_555 1_555
O3 Rb1 1_555 1_555
O4 Rb1 1_555 1_555
C1 C2 1_555 1_555
C2 O2 1_555 1_555
C3 C4 1_555 1_555
C4 O3A 1_555 1_555
H1 C1 1_555 1_555
H2 C3 1_555 1_555
H3 O4 1_555 1_555
Rb1A O1A 1_555 1_555
O1A Rb1 1_555 1_555
Rb1A_2 O2 1_555 1_555
O2A Rb1 1_555 1_555
Rb1A_3 O3 1_555 1_555
O3A Rb1 1_555 1_555
Rb1_2 O1_2 1_555 1_555
O4A C4 1_555 1_555
H3A O4A 1_555 1_555
O1_2 C2 1_555 1_555
Rb1A_4 O1_2 1_555 1_555
Rb1A_2 O2A 1_555 1_555
Rb1A_2 O4A 1_555 1_555
Rb1A_3 O3A 1_555 1_555

#END
