
#######################################################################
#
#                 Cambridge Crystallographic Data Centre
#                                CCDC 
#
#######################################################################
#
# If this CIF has been generated from an entry in the Cambridge 
# Structural Database, then it will include bibliographic, chemical, 
# crystal, experimental, refinement or atomic coordinate data resulting 
# from the CCDC's data processing and validation procedures.
#
#######################################################################

data_ROLJEI
_symmetry_cell_setting           triclinic
_symmetry_space_group_name_H-M   'P -1'
_symmetry_Int_Tables_number      2
_space_group_name_Hall           '-P 1'
loop_
_symmetry_equiv_pos_site_id
_symmetry_equiv_pos_as_xyz
1 x,y,z
2 -x,-y,-z
_cell_length_a                   7.3668(8)
_cell_length_b                   9.8897(11)
_cell_length_c                   12.0087(13)
_cell_angle_alpha                78.997(9)
_cell_angle_beta                 80.858(9)
_cell_angle_gamma                87.796(9)
_cell_volume                     847.877
loop_
_atom_site_label
_atom_site_type_symbol
_atom_site_fract_x
_atom_site_fract_y
_atom_site_fract_z
N1 N -0.0832(4) 0.2951(3) 0.7432(3)
C1 C -0.1126(6) 0.1749(4) 0.8149(3)
H1 H -0.0873 0.0934 0.7873
C2 C -0.1802(6) 0.1695(4) 0.9294(4)
H2 H -0.2048 0.0846 0.9775
C3 C -0.2123(6) 0.2911(4) 0.9743(4)
C4 C -0.1723(6) 0.4133(4) 0.8962(4)
H3 H -0.1878 0.4964 0.9220
C5 C -0.1106(6) 0.4145(4) 0.7822(4)
H4 H -0.0877 0.4979 0.7316
C6 C -0.5388(6) 0.2464(4) 0.7661(3)
C7 C 0.0437(6) 0.2426(4) 0.3187(4)
C8 C -0.3332(7) 0.4114(4) 1.1367(4)
H5 H -0.3213 0.4952 1.0856
O2 O -0.4658(4) 0.2912(3) 1.4398(2)
C9 C -0.3965(7) 0.4094(4) 1.2513(4)
H6 H -0.4274 0.4916 1.2769
C10 C -0.3737(6) 0.1700(4) 1.2907(3)
H7 H -0.3888 0.0875 1.3433
C11 C -0.3107(6) 0.1685(4) 1.1769(3)
H8 H -0.2835 0.0847 1.1535
O3 O -0.0301(4) 0.2989(3) 0.6290(2)
N2 N -0.4466(5) 0.2799(3) 0.6772(3)
N3 N -0.0504(5) 0.2785(4) 0.3956(3)
N4 N -0.4136(5) 0.2893(3) 1.3262(3)
C12 C -0.2867(6) 0.2897(4) 1.0963(3)
O4 O -0.2390(5) 0.0738(3) 0.5732(3)
O5 O -0.2518(4) 0.5108(3) 0.4972(3)
Se1 Se -0.68274(7) 0.20419(5) 0.90361(4)
Se2 Se 0.19351(6) 0.19515(4) 0.19829(4)
Co1 Co -0.24830(8) 0.28909(6) 0.53545(5)
H11 H -0.262(6) 0.027(4) 0.6408(17)
H12 H -0.224(6) 0.026(4) 0.520(2)
H13 H -0.154(3) 0.554(4) 0.464(3)
H14 H -0.342(3) 0.560(4) 0.519(3)
O2_2 O -0.4658(4) 0.2912(3) 0.4398(2)
Co1_2 Co -0.24830(8) 0.28909(6) 1.53545(5)
O1 O 0.2487(5) 0.1072(3) 0.5655(3)
H9 H 0.341(4) 0.165(3) 0.530(3)
H10 H 0.155(4) 0.171(3) 0.574(3)
loop_
_geom_bond_atom_site_label_1
_geom_bond_atom_site_label_2
_geom_bond_site_symmetry_1
_geom_bond_site_symmetry_2
N1 C1 1_555 1_555
C1 H1 1_555 1_555
C2 C1 1_555 1_555
H2 C2 1_555 1_555
C3 C2 1_555 1_555
O1 H9 1_555 1_555
C4 C3 1_555 1_555
H3 C4 1_555 1_555
C5 N1 1_555 1_555
H4 C5 1_555 1_555
C6 N2 1_555 1_555
C7 N3 1_555 1_555
C8 H5 1_555 1_555
O2 N4 1_555 1_555
C9 C8 1_555 1_555
H6 C9 1_555 1_555
C10 H7 1_555 1_555
C11 C10 1_555 1_555
H8 C11 1_555 1_555
O3 N1 1_555 1_555
N2 Co1 1_555 1_555
N3 Co1 1_555 1_555
N4 C9 1_555 1_555
C12 C3 1_555 1_555
O4 Co1 1_555 1_555
O5 Co1 1_555 1_555
Se1 C6 1_555 1_555
Se2 C7 1_555 1_555
Co1 O3 1_555 1_555
H10 O1 1_555 1_555
H11 O4 1_555 1_555
H12 O4 1_555 1_555
H13 O5 1_555 1_555
H14 O5 1_555 1_555
O2_2 Co1 1_555 1_555
Co1_2 O2 1_555 1_555
C4 C5 1_555 1_555
C8 C12 1_555 1_555
C10 N4 1_555 1_555
C11 C12 1_555 1_555

#END
