
#######################################################################
#
#                 Cambridge Crystallographic Data Centre
#                                CCDC 
#
#######################################################################
#
# If this CIF has been generated from an entry in the Cambridge 
# Structural Database, then it will include bibliographic, chemical, 
# crystal, experimental, refinement or atomic coordinate data resulting 
# from the CCDC's data processing and validation procedures.
#
#######################################################################

data_ROLJAE
_symmetry_cell_setting           triclinic
_symmetry_space_group_name_H-M   'P -1'
_symmetry_Int_Tables_number      2
_space_group_name_Hall           '-P 1'
loop_
_symmetry_equiv_pos_site_id
_symmetry_equiv_pos_as_xyz
1 x,y,z
2 -x,-y,-z
_cell_length_a                   7.2846(9)
_cell_length_b                   9.820(2)
_cell_length_c                   12.0205(16)
_cell_angle_alpha                77.731(15)
_cell_angle_beta                 80.242(10)
_cell_angle_gamma                88.515(14)
_cell_volume                     828.043
loop_
_atom_site_label
_atom_site_type_symbol
_atom_site_fract_x
_atom_site_fract_y
_atom_site_fract_z
O1 O 0.2488(6) -0.0099(5) 0.5008(4)
H1 H 0.332(8) -0.069(7) 0.487(7)
H2 H 0.157(8) -0.061(7) 0.538(6)
O2 O 0.2492(8) 0.4322(5) 0.4237(4)
H3 H 0.236(12) 0.476(8) 0.479(5)
H4 H 0.255(13) 0.498(7) 0.364(5)
N1 N 0.0520(8) 0.2224(6) 0.6050(5)
N2 N 0.4534(7) 0.2250(6) 0.3185(5)
C1 C -0.0406(8) 0.2581(7) 0.6821(5)
C2 C 0.5485(9) 0.2571(7) 0.2282(6)
Co1 Co 0.25236(11) 0.21330(9) 0.46276(7)
S1 S -0.1730(2) 0.30350(19) 0.79351(15)
S2 S 0.6793(3) 0.2975(2) 0.10069(16)
O4 O 0.4719(6) 0.2060(5) 0.5581(4)
O5 O 0.0330(6) 0.2073(5) 1.3689(4)
N3 N 0.0854(7) 0.2093(6) 1.2547(5)
N4 N 0.4206(7) 0.2086(6) 0.6719(4)
C3 C 0.3289(11) 0.0834(8) 0.8659(6)
H7 H 0.3116 -0.0012 0.9189
C4 C 0.3283(9) 0.3324(7) 0.8184(6)
H8 H 0.3085 0.4177 0.8401
C5 C 0.1135(9) 0.3293(7) 1.1796(6)
H9 H 0.0874 0.4123 1.2044
C6 C 0.1808(10) 0.3326(7) 1.0656(6)
H10 H 0.2025 0.4178 1.0137
C7 C 0.1809(11) 0.0841(8) 1.1069(6)
H11 H 0.1997 -0.0007 1.0841
C8 C 0.1162(11) 0.0868(7) 1.2220(6)
H12 H 0.0941 0.0037 1.2765
C9 C 0.3917(11) 0.0862(7) 0.7488(6)
H13 H 0.4137 0.0030 0.7238
C10 C 0.2172(8) 0.2080(7) 1.0264(6)
C11 C 0.3918(9) 0.3292(7) 0.7051(6)
H14 H 0.4152 0.4124 0.6508
C12 C 0.2924(8) 0.2083(7) 0.9025(6)
Co1_2 Co 0.25236(11) 0.21330(9) 1.46276(7)
O5_2 O 0.0330(6) 0.2073(5) 0.3689(4)
O3 O 0.2400(7) -0.3985(5) 0.5701(5)
H5 H 0.147(8) -0.344(7) 0.569(8)
H6 H 0.331(8) -0.341(7) 0.554(8)
loop_
_geom_bond_atom_site_label_1
_geom_bond_atom_site_label_2
_geom_bond_site_symmetry_1
_geom_bond_site_symmetry_2
O1 H1 1_555 1_555
H2 O1 1_555 1_555
O2 H3 1_555 1_555
H4 O2 1_555 1_555
N1 C1 1_555 1_555
N2 C2 1_555 1_555
C1 S1 1_555 1_555
C2 S2 1_555 1_555
O3 H5 1_555 1_555
H6 O3 1_555 1_555
Co1 O1 1_555 1_555
O4 Co1 1_555 1_555
O5 N3 1_555 1_555
N3 C5 1_555 1_555
N4 O4 1_555 1_555
C3 H7 1_555 1_555
C4 H8 1_555 1_555
C5 H9 1_555 1_555
C6 C5 1_555 1_555
H10 C6 1_555 1_555
C7 H11 1_555 1_555
C8 N3 1_555 1_555
H12 C8 1_555 1_555
C9 N4 1_555 1_555
H13 C9 1_555 1_555
C10 C6 1_555 1_555
C11 N4 1_555 1_555
H14 C11 1_555 1_555
C12 C3 1_555 1_555
Co1_2 O5 1_555 1_555
O5_2 Co1 1_555 1_555
O2 Co1 1_555 1_555
N1 Co1 1_555 1_555
N2 Co1 1_555 1_555
C3 C9 1_555 1_555
C4 C11 1_555 1_555
C4 C12 1_555 1_555
C7 C8 1_555 1_555
C7 C10 1_555 1_555
C10 C12 1_555 1_555

#END
