
#######################################################################
#
#                 Cambridge Crystallographic Data Centre
#                                CCDC 
#
#######################################################################
#
# If this CIF has been generated from an entry in the Cambridge 
# Structural Database, then it will include bibliographic, chemical, 
# crystal, experimental, refinement or atomic coordinate data resulting 
# from the CCDC's data processing and validation procedures.
#
#######################################################################

data_ROLMIP
_symmetry_cell_setting           monoclinic
_symmetry_space_group_name_H-M   'P 21'
_symmetry_Int_Tables_number      4
_space_group_name_Hall           'P 2yb'
loop_
_symmetry_equiv_pos_site_id
_symmetry_equiv_pos_as_xyz
1 x,y,z
2 -x,1/2+y,-z
_cell_length_a                   7.2761(16)
_cell_length_b                   10.467(2)
_cell_length_c                   12.894(3)
_cell_angle_alpha                90
_cell_angle_beta                 102.768(2)
_cell_angle_gamma                90
_cell_volume                     957.712
loop_
_atom_site_label
_atom_site_type_symbol
_atom_site_fract_x
_atom_site_fract_y
_atom_site_fract_z
Sn1 Sn 0.40954(6) 0.66275(4) 0.52089(3)
Sn2 Sn 0.29616(5) -0.21300(4) 0.94966(3)
O1 O 0.2935(8) 0.5249(5) 0.6105(4)
O2 O 0.4490(8) 0.3555(5) 0.5684(4)
O3 O 0.2928(6) -0.0330(4) 0.8646(3)
O4 O 0.0302(6) 0.0281(5) 0.9120(3)
O5 O 0.3171(8) -0.4236(5) 1.0422(5)
S1 S 0.3024(2) 0.17295(16) 0.71215(11)
C1 C 0.3378(10) 0.4063(7) 0.6153(5)
C2 C 0.2486(8) 0.3306(5) 0.6871(4)
C3 C 0.1297(10) 0.3741(7) 0.7489(6)
H1 H 0.0850 0.4575 0.7468
C4 C 0.0833(9) 0.2787(8) 0.8154(5)
H2 H 0.0038 0.2919 0.8618
C5 C 0.1680(8) 0.1643(7) 0.8045(4)
C6 C 0.1558(8) 0.0462(6) 0.8644(4)
C7 C 0.2903(11) 0.5827(9) 0.3703(5)
H3 H 0.3624 0.5094 0.3586
H4 H 0.2918 0.6451 0.3159
H5 H 0.1627 0.5574 0.3681
C8 C 0.2492(14) 0.8103(8) 0.5708(8)
H6 H 0.1767 0.7757 0.6181
H7 H 0.1657 0.8470 0.5099
H8 H 0.3324 0.8752 0.6072
C9 C 0.6959(10) 0.6383(9) 0.5970(6)
H9 H 0.7046 0.5871 0.6597
H10 H 0.7523 0.7202 0.6166
H11 H 0.7610 0.5964 0.5495
C10 C 0.0317(9) -0.2808(8) 0.8666(6)
H12 H -0.0630 -0.2177 0.8689
H13 H 0.0016 -0.3582 0.8991
H14 H 0.0361 -0.2974 0.7940
C11 C 0.5359(11) -0.2714(8) 0.8945(7)
H15 H 0.4987 -0.3313 0.8374
H16 H 0.6248 -0.3110 0.9516
H17 H 0.5931 -0.1982 0.8696
C12 C 0.3463(10) -0.1258(7) 1.1007(5)
H18 H 0.2520 -0.0619 1.1015
H19 H 0.4686 -0.0867 1.1156
H20 H 0.3411 -0.1892 1.1538
H21 H 0.405(12) -0.434(8) 1.097(6)
H22 H 0.233(11) -0.442(8) 1.076(6)
Sn1A Sn 0.59046(6) 0.16275(4) 0.47911(3)
O2A O 0.5510(8) 0.8555(5) 0.4316(4)
loop_
_geom_bond_atom_site_label_1
_geom_bond_atom_site_label_2
_geom_bond_site_symmetry_1
_geom_bond_site_symmetry_2
Sn1 O1 1_555 1_555
Sn2 O3 1_555 1_555
O1 C1 1_555 1_555
O2 C1 1_555 1_555
O3 C6 1_555 1_555
O4 C6 1_555 1_555
O5 Sn2 1_555 1_555
S1 C2 1_555 1_555
C1 C2 1_555 1_555
C2 C3 1_555 1_555
C3 H1 1_555 1_555
C4 C3 1_555 1_555
H2 C4 1_555 1_555
C5 S1 1_555 1_555
C6 C5 1_555 1_555
C7 Sn1 1_555 1_555
H3 C7 1_555 1_555
H4 C7 1_555 1_555
H5 C7 1_555 1_555
C8 Sn1 1_555 1_555
H6 C8 1_555 1_555
H7 C8 1_555 1_555
H8 C8 1_555 1_555
C9 Sn1 1_555 1_555
H9 C9 1_555 1_555
H10 C9 1_555 1_555
H11 C9 1_555 1_555
C10 Sn2 1_555 1_555
H12 C10 1_555 1_555
H13 C10 1_555 1_555
H14 C10 1_555 1_555
C11 Sn2 1_555 1_555
H15 C11 1_555 1_555
H16 C11 1_555 1_555
H17 C11 1_555 1_555
C12 Sn2 1_555 1_555
H18 C12 1_555 1_555
H19 C12 1_555 1_555
H20 C12 1_555 1_555
H21 O5 1_555 1_555
H22 O5 1_555 1_555
Sn1A O2 1_555 1_555
O2A Sn1 1_555 1_555
C4 C5 1_555 1_555

#END
