
#######################################################################
#
#                 Cambridge Crystallographic Data Centre
#                                CCDC 
#
#######################################################################
#
# If this CIF has been generated from an entry in the Cambridge 
# Structural Database, then it will include bibliographic, chemical, 
# crystal, experimental, refinement or atomic coordinate data resulting 
# from the CCDC's data processing and validation procedures.
#
#######################################################################

data_ROLMEL
_symmetry_cell_setting           orthorhombic
_symmetry_space_group_name_H-M   'P b c a'
_symmetry_Int_Tables_number      61
_space_group_name_Hall           '-P 2ac 2ab'
loop_
_symmetry_equiv_pos_site_id
_symmetry_equiv_pos_as_xyz
1 x,y,z
2 1/2-x,-y,1/2+z
3 -x,1/2+y,1/2-z
4 1/2+x,1/2-y,-z
5 -x,-y,-z
6 1/2+x,y,1/2-z
7 x,1/2-y,1/2+z
8 1/2-x,1/2+y,z
_cell_length_a                   9.2419(18)
_cell_length_b                   10.377(2)
_cell_length_c                   22.597(5)
_cell_angle_alpha                90
_cell_angle_beta                 90
_cell_angle_gamma                90
_cell_volume                     2167.12
loop_
_atom_site_label
_atom_site_type_symbol
_atom_site_fract_x
_atom_site_fract_y
_atom_site_fract_z
C1 C 0.0918(2) 0.62096(17) 0.17212(8)
C2 C -0.0058(2) 0.7078(2) 0.14920(8)
H1 H -0.0198 0.7141 0.1085
C3 C -0.0823(3) 0.7853(2) 0.18746(9)
H2 H -0.1473 0.8457 0.1728
C4 C -0.0620(2) 0.77306(18) 0.24798(8)
H3 H -0.1157 0.8240 0.2738
C5 C 0.1165(2) 0.60861(16) 0.23241(7)
H4 H 0.1843 0.5503 0.2468
C6 C 0.03721(19) 0.68583(16) 0.27043(7)
C7 C 0.05354(18) 0.67429(16) 0.33614(7)
C8 C 0.32376(16) 0.75394(14) 0.51070(7)
H5 H 0.3425 0.6826 0.5344
C9 C 0.22994(17) 0.87843(13) 0.44808(6)
H6 H 0.1693 0.9118 0.4190
Co1 Co 0.08538(2) 0.615646(17) 0.442261(8)
N1 N 0.21652(13) 0.75890(11) 0.47077(5)
N2 N 0.39953(13) 0.86141(12) 0.51260(5)
N3 N 0.33828(13) 0.94272(11) 0.47154(5)
N4 N 0.1706(2) 0.53740(17) 0.13114(7)
O1 O -0.00457(13) 0.75383(12) 0.36970(5)
O2 O 0.12664(15) 0.58069(12) 0.35684(5)
O3 O 0.2746(2) 0.47839(18) 0.14938(7)
O4 O 0.1257(2) 0.53020(16) 0.08006(6)
Co1C Co 0.58538(2) 0.884354(17) 0.557739(8)
Co1G Co 0.41462(2) 1.115646(17) 0.442261(8)
N2C N -0.10047(13) 0.63859(12) 0.48740(5)
N3G N 0.16172(13) 0.44272(11) 0.47154(5)
loop_
_geom_bond_atom_site_label_1
_geom_bond_atom_site_label_2
_geom_bond_site_symmetry_1
_geom_bond_site_symmetry_2
C1 C2 1_555 1_555
C2 H1 1_555 1_555
C3 C2 1_555 1_555
H2 C3 1_555 1_555
C4 C3 1_555 1_555
H3 C4 1_555 1_555
C5 C1 1_555 1_555
H4 C5 1_555 1_555
C6 C4 1_555 1_555
C7 C6 1_555 1_555
C8 H5 1_555 1_555
C9 H6 1_555 1_555
Co1 N1 1_555 1_555
N1 C8 1_555 1_555
N2 C8 1_555 1_555
N3 C9 1_555 1_555
N4 C1 1_555 1_555
O1 C7 1_555 1_555
O2 C7 1_555 1_555
O3 N4 1_555 1_555
O4 N4 1_555 1_555
Co1C N2 1_555 1_555
Co1G N3 1_555 1_555
N2C Co1 1_555 1_555
N3G Co1 1_555 1_555
C5 C6 1_555 1_555
C9 N1 1_555 1_555
Co1 O1 1_555 1_555
Co1 O2 1_555 1_555
N2 N3 1_555 1_555

#END
