
#######################################################################
#
#                 Cambridge Crystallographic Data Centre
#                                CCDC 
#
#######################################################################
#
# If this CIF has been generated from an entry in the Cambridge 
# Structural Database, then it will include bibliographic, chemical, 
# crystal, experimental, refinement or atomic coordinate data resulting 
# from the CCDC's data processing and validation procedures.
#
#######################################################################

data_ROLNOW
_symmetry_cell_setting           triclinic
_symmetry_space_group_name_H-M   'P -1'
_symmetry_Int_Tables_number      2
_space_group_name_Hall           '-P 1'
loop_
_symmetry_equiv_pos_site_id
_symmetry_equiv_pos_as_xyz
1 x,y,z
2 -x,-y,-z
_cell_length_a                   8.3962(7)
_cell_length_b                   10.1119(8)
_cell_length_c                   14.7229(12)
_cell_angle_alpha                81.6630(10)
_cell_angle_beta                 79.6010(10)
_cell_angle_gamma                71.3340(10)
_cell_volume                     1159.68
loop_
_atom_site_label
_atom_site_type_symbol
_atom_site_fract_x
_atom_site_fract_y
_atom_site_fract_z
C1 C 0.3296(5) 0.6208(4) 0.2806(3)
N1 N 0.2205(6) 0.7323(4) 0.1159(3)
H1 H 0.1879 0.7654 0.0628
Nd1 Nd 0.61497(2) 0.219206(19) 0.462773(12)
O1 O 0.4362(4) 0.4217(3) 0.3801(2)
C2 C 0.2041(6) 0.5822(5) 0.2522(3)
H2 H 0.1574 0.5168 0.2886
N2 N 0.7879(5) -0.2315(4) 0.8926(2)
H3 H 0.8157 -0.2643 0.9467
O2 O 0.4255(4) 0.6291(3) 0.4190(2)
C3 C 0.1495(7) 0.6428(6) 0.1687(4)
H4 H 0.0624 0.6207 0.1494
O3 O 0.6604(4) 0.0616(3) 0.6047(2)
C4 C 0.3394(7) 0.7728(5) 0.1414(3)
H5 H 0.3859 0.8362 0.1025
N3 N 0.9277(5) 0.3174(4) 0.4383(3)
O4 O 0.9213(4) 0.1992(3) 0.4802(3)
C5 C 0.3937(6) 0.7207(5) 0.2256(3)
H6 H 0.4729 0.7523 0.2456
O5 O 0.7969(4) 0.3949(3) 0.4069(2)
C6 C 0.4021(5) 0.5516(4) 0.3681(3)
O6 O 1.0567(5) 0.3518(5) 0.4292(3)
C7 C 0.6913(5) -0.1202(4) 0.7252(3)
O7 O 0.5371(4) -0.1017(3) 0.6025(2)
C8 C 0.8138(6) -0.0818(5) 0.7579(3)
H7 H 0.8628 -0.0169 0.7227
C9 C 0.8617(6) -0.1400(5) 0.8421(3)
H8 H 0.9450 -0.1164 0.8643
C10 C 0.6734(6) -0.2736(5) 0.8629(3)
H9 H 0.6267 -0.3387 0.8995
C11 C 0.6248(6) -0.2203(4) 0.7777(3)
H10 H 0.5475 -0.2513 0.7553
C12 C 0.6247(5) -0.0482(4) 0.6362(3)
O16 O 0.3147(4) 0.2628(4) 0.5492(2)
H11 H 0.2375 0.2900 0.5154
H12 H 0.2927 0.3121 0.5938
O17 O 0.8124(4) -0.0227(3) 0.4206(2)
H13 H 0.8961 -0.0633 0.4488
H14 H 0.7594 -0.0782 0.4151
O18 O 0.7472(4) 0.2088(3) 0.2962(2)
H15 H 0.7505 0.2762 0.2560
H16 H 0.7699 0.1337 0.2717
Nd1A Nd 0.38503(2) 0.780794(19) 0.537227(12)
Nd1A_2 Nd 0.38503(2) -0.219206(19) 0.537227(12)
O2A O 0.5745(4) 0.3709(3) 0.5810(2)
O7A O 0.4629(4) 0.1017(3) 0.3975(2)
Cl1 Cl 0.75800(16) 0.47280(12) 0.09482(8)
O8 O 0.8174(13) 0.4411(6) 0.1813(4)
O9 O 0.8797(5) 0.3853(5) 0.0322(3)
O10 O 0.7386(6) 0.6160(4) 0.0700(3)
O11 O 0.6059(8) 0.4456(7) 0.1061(8)
Cl2 Cl 0.24041(16) 0.02494(12) 0.89509(8)
O12 O 0.1848(15) 0.0322(7) 0.8114(4)
O13 O 0.1153(5) 0.1236(5) 0.9500(3)
O14 O 0.2627(8) -0.1133(5) 0.9314(4)
O15 O 0.3841(9) 0.0555(9) 0.8782(10)
O19 O 0.2124(9) 0.3371(7) 0.7164(4)
H17 H 0.2054 0.4183 0.7270
H18 H 0.2016 0.2855 0.7659
loop_
_geom_bond_atom_site_label_1
_geom_bond_atom_site_label_2
_geom_bond_site_symmetry_1
_geom_bond_site_symmetry_2
C1 C2 1_555 1_555
Cl1 O8 1_555 1_555
N1 H1 1_555 1_555
Nd1 O1 1_555 1_555
O1 C6 1_555 1_555
C2 H2 1_555 1_555
Cl2 O12 1_555 1_555
N2 H3 1_555 1_555
O2 C6 1_555 1_555
C3 N1 1_555 1_555
H4 C3 1_555 1_555
O3 Nd1 1_555 1_555
C4 N1 1_555 1_555
H5 C4 1_555 1_555
N3 O4 1_555 1_555
O4 Nd1 1_555 1_555
C5 C1 1_555 1_555
H6 C5 1_555 1_555
O5 Nd1 1_555 1_555
C6 C1 1_555 1_555
O6 N3 1_555 1_555
C7 C8 1_555 1_555
O7 C12 1_555 1_555
C8 H7 1_555 1_555
C9 N2 1_555 1_555
H8 C9 1_555 1_555
O9 Cl1 1_555 1_555
C10 N2 1_555 1_555
H9 C10 1_555 1_555
O10 Cl1 1_555 1_555
C11 C7 1_555 1_555
H10 C11 1_555 1_555
O11 Cl1 1_555 1_555
C12 O3 1_555 1_555
O13 Cl2 1_555 1_555
O14 Cl2 1_555 1_555
O15 Cl2 1_555 1_555
O16 Nd1 1_555 1_555
H11 O16 1_555 1_555
H12 O16 1_555 1_555
O17 Nd1 1_555 1_555
H13 O17 1_555 1_555
H14 O17 1_555 1_555
O18 Nd1 1_555 1_555
H15 O18 1_555 1_555
H16 O18 1_555 1_555
O19 H17 1_555 1_555
H18 O19 1_555 1_555
Nd1A O2 1_555 1_555
Nd1A_2 O7 1_555 1_555
O2A Nd1 1_555 1_555
O7A Nd1 1_555 1_555
C2 C3 1_555 1_555
C4 C5 1_555 1_555
N3 O5 1_555 1_555
C7 C12 1_555 1_555
C8 C9 1_555 1_555
C10 C11 1_555 1_555

#END
