
#######################################################################
#
#                 Cambridge Crystallographic Data Centre
#                                CCDC 
#
#######################################################################
#
# If this CIF has been generated from an entry in the Cambridge 
# Structural Database, then it will include bibliographic, chemical, 
# crystal, experimental, refinement or atomic coordinate data resulting 
# from the CCDC's data processing and validation procedures.
#
#######################################################################

data_ROLQOA
_symmetry_cell_setting           monoclinic
_symmetry_space_group_name_H-M   'P 21/n'
_symmetry_Int_Tables_number      14
_space_group_name_Hall           '-P 2yn'
loop_
_symmetry_equiv_pos_site_id
_symmetry_equiv_pos_as_xyz
1 x,y,z
2 1/2-x,1/2+y,1/2-z
3 -x,-y,-z
4 1/2+x,1/2-y,1/2+z
_cell_length_a                   9.3588(16)
_cell_length_b                   8.9467(14)
_cell_length_c                   12.481(2)
_cell_angle_alpha                90
_cell_angle_beta                 93.213(4)
_cell_angle_gamma                90
_cell_volume                     1043.4
loop_
_atom_site_label
_atom_site_type_symbol
_atom_site_fract_x
_atom_site_fract_y
_atom_site_fract_z
Mn1 Mn 0.5000 0.5000 0.5000
S1 S 0.54792(6) 0.42458(6) 0.87779(4)
N1 N 0.47191(15) 0.74045(15) 0.54611(12)
N2 N 0.34300(15) 0.81550(16) 0.53102(12)
N3 N 0.48997(15) 0.95015(15) 0.63527(12)
N4 N 0.21711(14) 0.94736(16) 0.92900(12)
N5 N 0.25331(17) 0.80308(17) 0.90011(14)
N6 N 0.42790(14) 0.95463(16) 0.86237(12)
N7 N 0.59665(16) 0.46353(18) 0.66111(13)
C1 C 0.55686(18) 0.82337(19) 0.60713(15)
H1 H 0.6517 0.7985 0.6287
C2 C 0.35801(19) 0.93917(19) 0.58579(15)
H2 H 0.2860 1.0118 0.5903
C3 C 0.32274(18) 1.0340(2) 0.90519(14)
H3 H 0.3252 1.1379 0.9164
C4 C 0.3788(2) 0.8121(2) 0.86145(17)
H4 H 0.4295 0.7299 0.8359
C5 C 0.54482(19) 1.06681(18) 0.70844(15)
H5 H 0.4788 1.1520 0.7052
H6 H 0.6377 1.1015 0.6856
C6 C 0.56191(18) 1.01055(19) 0.82261(15)
H7 H 0.6331 0.9302 0.8264
H8 H 0.5980 1.0920 0.8692
C7 C 0.57585(17) 0.44707(19) 0.75114(15)
S1B S 0.45208(6) 0.57542(6) 0.12221(4)
N1B N 0.52809(15) 0.25955(15) 0.45389(12)
N2B N 0.65700(15) 0.18450(16) 0.46898(12)
N3B N 0.51003(15) 0.04985(15) 0.36473(12)
N4B N 0.78289(14) 0.05264(16) 0.07100(12)
N5B N 0.74669(17) 0.19692(17) 0.09989(14)
N6B N 0.57210(14) 0.04537(16) 0.13763(12)
N7B N 0.40335(16) 0.53647(18) 0.33889(13)
C1B C 0.44314(18) 0.17663(19) 0.39287(15)
H1B H 0.3483 0.2015 0.3713
C2B C 0.64199(19) 0.06083(19) 0.41421(15)
H2B H 0.7140 -0.0118 0.4097
C3B C 0.67726(18) -0.0340(2) 0.09481(14)
H3B H 0.6748 -0.1379 0.0836
C4B C 0.6212(2) 0.1879(2) 0.13855(17)
H4B H 0.5705 0.2701 0.1641
C5B C 0.45518(19) -0.06681(18) 0.29156(15)
H5B H 0.5212 -0.1520 0.2948
H6B H 0.3623 -0.1015 0.3144
C6B C 0.43809(18) -0.01055(19) 0.17739(15)
H7B H 0.3669 0.0698 0.1736
H8B H 0.4020 -0.0920 0.1308
C7B C 0.42415(17) 0.55293(19) 0.24886(15)
Mn1A Mn 0.0000 1.0000 1.0000
Mn1A_2 Mn 1.0000 0.0000 0.0000
N4A N 0.28289(14) 0.44736(16) 0.57100(12)
N4C N 0.71711(14) 0.55264(16) 0.42900(12)
loop_
_geom_bond_atom_site_label_1
_geom_bond_atom_site_label_2
_geom_bond_site_symmetry_1
_geom_bond_site_symmetry_2
Mn1 N1 1_555 1_555
S1 C7 1_555 1_555
N1 N2 1_555 1_555
N2 C2 1_555 1_555
N3 C1 1_555 1_555
N4 N5 1_555 1_555
N5 C4 1_555 1_555
N6 C3 1_555 1_555
N7 Mn1 1_555 1_555
C1 N1 1_555 1_555
H1 C1 1_555 1_555
C2 N3 1_555 1_555
H2 C2 1_555 1_555
C3 N4 1_555 1_555
H3 C3 1_555 1_555
C4 N6 1_555 1_555
H4 C4 1_555 1_555
C5 N3 1_555 1_555
H5 C5 1_555 1_555
H6 C5 1_555 1_555
C6 N6 1_555 1_555
H7 C6 1_555 1_555
H8 C6 1_555 1_555
C7 N7 1_555 1_555
S1B C7B 1_555 1_555
N1B Mn1 1_555 1_555
N2B N1B 1_555 1_555
N3B C1B 1_555 1_555
N4B N5B 1_555 1_555
N5B C4B 1_555 1_555
N6B C3B 1_555 1_555
N7B Mn1 1_555 1_555
C1B N1B 1_555 1_555
H1B C1B 1_555 1_555
C2B N2B 1_555 1_555
H2B C2B 1_555 1_555
C3B N4B 1_555 1_555
H3B C3B 1_555 1_555
C4B N6B 1_555 1_555
H4B C4B 1_555 1_555
C5B N3B 1_555 1_555
H5B C5B 1_555 1_555
H6B C5B 1_555 1_555
C6B N6B 1_555 1_555
H7B C6B 1_555 1_555
H8B C6B 1_555 1_555
C7B N7B 1_555 1_555
Mn1A N4 1_555 1_555
Mn1A_2 N4B 1_555 1_555
N4A Mn1 1_555 1_555
N4C Mn1 1_555 1_555
C5 C6 1_555 1_555
N3B C2B 1_555 1_555
C5B C6B 1_555 1_555

#END
