
#######################################################################
#
#                 Cambridge Crystallographic Data Centre
#                                CCDC 
#
#######################################################################
#
# If this CIF has been generated from an entry in the Cambridge 
# Structural Database, then it will include bibliographic, chemical, 
# crystal, experimental, refinement or atomic coordinate data resulting 
# from the CCDC's data processing and validation procedures.
#
#######################################################################

data_ROLQEP
_symmetry_cell_setting           triclinic
_symmetry_space_group_name_H-M   'P -1'
_symmetry_Int_Tables_number      2
_space_group_name_Hall           '-P 1'
loop_
_symmetry_equiv_pos_site_id
_symmetry_equiv_pos_as_xyz
1 x,y,z
2 -x,-y,-z
_cell_length_a                   7.8363(10)
_cell_length_b                   10.8421(16)
_cell_length_c                   10.8834(16)
_cell_angle_alpha                98.455(2)
_cell_angle_beta                 97.6100(10)
_cell_angle_gamma                97.2890(10)
_cell_volume                     896.413
loop_
_atom_site_label
_atom_site_type_symbol
_atom_site_fract_x
_atom_site_fract_y
_atom_site_fract_z
Ca1 Ca 0.75350(8) -0.02117(7) 0.54151(6)
Cl1 Cl 1.31442(17) -0.08155(14) 0.89399(12)
Cl2 Cl 0.85580(16) 0.45842(12) 0.62037(12)
N1 N 1.2104(5) 0.0770(5) 1.0606(3)
N2 N 0.7024(5) 0.5552(3) 0.4414(4)
O1 O 1.0474(3) 0.0510(2) 0.6352(2)
O2 O 1.3309(3) 0.1026(3) 0.6846(2)
O3 O 0.8087(3) 0.1815(3) 0.4807(3)
O4 O 0.5271(3) 0.1368(3) 0.4706(3)
O5 O 0.8604(3) -0.2084(2) 0.5835(2)
H1 H 0.9605 -0.2092 0.5617
H2 H 0.7926 -0.2722 0.5410
O6 O 0.6803(4) 0.0628(3) 0.7404(3)
H3 H 0.7060 0.0164 0.7946
H4 H 0.5721 0.0672 0.7340
C1 C 1.1815(5) 0.0877(4) 0.7134(3)
C2 C 1.2213(5) 0.0517(4) 0.9394(4)
C3 C 1.1612(5) 0.1197(4) 0.8500(3)
C4 C 1.0797(6) 0.2201(5) 0.8907(4)
H5 H 1.0330 0.2677 0.8339
C5 C 1.0684(7) 0.2488(6) 1.0167(5)
H6 H 1.0168 0.3176 1.0462
C6 C 1.1333(6) 0.1758(6) 1.0973(4)
H7 H 1.1235 0.1957 1.1819
C7 C 0.6592(5) 0.2077(3) 0.4592(4)
C8 C 0.7209(5) 0.4468(4) 0.4786(4)
C9 C 0.6374(4) 0.3299(3) 0.4140(4)
C10 C 0.5307(5) 0.3306(4) 0.3029(4)
H8 H 0.4696 0.2553 0.2566
C11 C 0.5145(6) 0.4422(5) 0.2605(5)
H9 H 0.4454 0.4430 0.1844
C12 C 0.6014(6) 0.5528(5) 0.3319(5)
H10 H 0.5896 0.6283 0.3031
Ca1A Ca 1.24650(8) 0.02117(7) 0.45849(6)
Ca1A_2 Ca 0.24650(8) 0.02117(7) 0.45849(6)
O1A O 0.9526(3) -0.0510(2) 0.3648(2)
O2A O 0.6691(3) -0.1026(3) 0.3154(2)
O4A O 0.4729(3) -0.1368(3) 0.5294(3)
loop_
_geom_bond_atom_site_label_1
_geom_bond_atom_site_label_2
_geom_bond_site_symmetry_1
_geom_bond_site_symmetry_2
Ca1 O1 1_555 1_555
Cl1 C2 1_555 1_555
Cl2 C8 1_555 1_555
N1 C2 1_555 1_555
N2 C8 1_555 1_555
O1 C1 1_555 1_555
O2 C1 1_555 1_555
O3 Ca1 1_555 1_555
O4 Ca1 1_555 1_555
O5 Ca1 1_555 1_555
H1 O5 1_555 1_555
H2 O5 1_555 1_555
O6 Ca1 1_555 1_555
H3 O6 1_555 1_555
H4 O6 1_555 1_555
C1 C3 1_555 1_555
C2 C3 1_555 1_555
C3 C4 1_555 1_555
C4 H5 1_555 1_555
C5 C4 1_555 1_555
H6 C5 1_555 1_555
C6 N1 1_555 1_555
H7 C6 1_555 1_555
C7 O3 1_555 1_555
C8 C9 1_555 1_555
C9 C7 1_555 1_555
C10 C9 1_555 1_555
H8 C10 1_555 1_555
C11 C10 1_555 1_555
H9 C11 1_555 1_555
C12 N2 1_555 1_555
H10 C12 1_555 1_555
Ca1A O1 1_555 1_555
Ca1A_2 O4 1_555 1_555
O1A Ca1 1_555 1_555
O2A Ca1 1_555 1_555
O4A Ca1 1_555 1_555
O2 Ca1A 1_555 1_555
O4 C7 1_555 1_555
C5 C6 1_555 1_555
C11 C12 1_555 1_555
Ca1A O1A 1_555 1_555
Ca1A_2 O4A 1_555 1_555

#END
