
#######################################################################
#
#                 Cambridge Crystallographic Data Centre
#                                CCDC 
#
#######################################################################
#
# If this CIF has been generated from an entry in the Cambridge 
# Structural Database, then it will include bibliographic, chemical, 
# crystal, experimental, refinement or atomic coordinate data resulting 
# from the CCDC's data processing and validation procedures.
#
#######################################################################

data_ROLQEQ
_symmetry_cell_setting           monoclinic
_symmetry_space_group_name_H-M   'P 21/c'
_symmetry_Int_Tables_number      14
_space_group_name_Hall           '-P 2ybc'
loop_
_symmetry_equiv_pos_site_id
_symmetry_equiv_pos_as_xyz
1 x,y,z
2 -x,1/2+y,1/2-z
3 -x,-y,-z
4 x,1/2-y,1/2+z
_cell_length_a                   21.926(3)
_cell_length_b                   10.8140(14)
_cell_length_c                   7.3212(9)
_cell_angle_alpha                90
_cell_angle_beta                 91.395(2)
_cell_angle_gamma                90
_cell_volume                     1735.4
loop_
_atom_site_label
_atom_site_type_symbol
_atom_site_fract_x
_atom_site_fract_y
_atom_site_fract_z
Cd1 Cd 0.303679(10) 0.347803(18) 0.98718(3)
S1 S 0.12084(4) 0.00293(7) 0.67057(13)
Cl1 Cl 0.36032(4) 0.17779(7) 1.16820(11)
O1 O 0.24348(9) 0.1043(2) 0.7514(3)
O2 O 0.21223(10) 0.2756(2) 0.8959(3)
O3 O -0.06738(11) 0.0752(3) 0.8369(4)
O4 O -0.03271(12) 0.2405(3) 0.9684(4)
N1 N 0.37878(11) 0.4965(2) 1.0785(4)
N2 N 0.26985(11) 0.5485(2) 0.9023(3)
N3 N -0.02573(13) 0.1456(3) 0.8789(4)
C1 C 0.20377(14) 0.1739(3) 0.8150(4)
C2 C 0.13854(14) 0.1334(3) 0.7966(4)
C3 C 0.08777(14) 0.1851(3) 0.8680(4)
H1 H 0.0877 0.2565 0.9389
C4 C 0.03513(13) 0.1156(3) 0.8199(4)
C5 C 0.04571(15) 0.0152(3) 0.7148(5)
H2 H 0.0158 -0.0395 0.6728
C6 C 0.21677(14) 0.5753(3) 0.8215(4)
H3 H 0.1914 0.5105 0.7850
C7 C 0.19722(15) 0.6959(3) 0.7886(5)
H4 H 0.1593 0.7106 0.7331
C8 C 0.23375(16) 0.7916(3) 0.8379(5)
H5 H 0.2211 0.8724 0.8160
C9 C 0.29046(14) 0.7689(3) 0.9215(4)
C10 C 0.33140(17) 0.8657(3) 0.9787(4)
H6 H 0.3200 0.9478 0.9617
C11 C 0.38594(18) 0.8392(3) 1.0564(5)
H7 H 0.4119 0.9036 1.0906
C12 C 0.40514(14) 0.7139(3) 1.0881(4)
C13 C 0.46164(16) 0.6825(4) 1.1673(5)
H8 H 0.4900 0.7440 1.1956
C14 C 0.47528(16) 0.5628(4) 1.2028(6)
H9 H 0.5128 0.5412 1.2557
C15 C 0.43180(15) 0.4717(3) 1.1585(5)
H10 H 0.4409 0.3898 1.1869
C16 C 0.36466(13) 0.6162(3) 1.0403(4)
C17 C 0.30691(13) 0.6440(2) 0.9528(4)
Cd1C Cd 0.303679(10) 0.152197(18) 0.48718(3)
Cd1C_2 Cd 0.303679(10) 0.152197(18) 1.48718(3)
Cl1C Cl 0.36032(4) 0.32221(7) 0.66820(11)
O1C O 0.24348(9) 0.3957(2) 1.2514(3)
loop_
_geom_bond_atom_site_label_1
_geom_bond_atom_site_label_2
_geom_bond_site_symmetry_1
_geom_bond_site_symmetry_2
Cd1 Cl1 1_555 1_555
S1 C2 1_555 1_555
Cl1 Cd1C_2 1_555 1_555
O1 C1 1_555 1_555
O2 Cd1 1_555 1_555
O3 N3 1_555 1_555
O4 N3 1_555 1_555
N1 Cd1 1_555 1_555
N2 Cd1 1_555 1_555
N3 C4 1_555 1_555
C1 O2 1_555 1_555
C2 C1 1_555 1_555
C3 C2 1_555 1_555
H1 C3 1_555 1_555
C4 C3 1_555 1_555
C5 S1 1_555 1_555
H2 C5 1_555 1_555
C6 N2 1_555 1_555
H3 C6 1_555 1_555
C7 C6 1_555 1_555
H4 C7 1_555 1_555
C8 C7 1_555 1_555
H5 C8 1_555 1_555
C9 C8 1_555 1_555
C10 C9 1_555 1_555
H6 C10 1_555 1_555
C11 C10 1_555 1_555
H7 C11 1_555 1_555
C12 C11 1_555 1_555
C13 C12 1_555 1_555
H8 C13 1_555 1_555
C14 C13 1_555 1_555
H9 C14 1_555 1_555
C15 N1 1_555 1_555
H10 C15 1_555 1_555
C16 N1 1_555 1_555
C17 N2 1_555 1_555
Cd1C O1 1_555 1_555
Cl1C Cd1 1_555 1_555
O1C Cd1 1_555 1_555
C4 C5 1_555 1_555
C9 C17 1_555 1_555
C12 C16 1_555 1_555
C14 C15 1_555 1_555
C16 C17 1_555 1_555
Cd1C Cl1C 1_555 1_555

#END
