
#######################################################################
#
#                 Cambridge Crystallographic Data Centre
#                                CCDC 
#
#######################################################################
#
# If this CIF has been generated from an entry in the Cambridge 
# Structural Database, then it will include bibliographic, chemical, 
# crystal, experimental, refinement or atomic coordinate data resulting 
# from the CCDC's data processing and validation procedures.
#
#######################################################################

data_ROLREQ
_symmetry_cell_setting           triclinic
_symmetry_space_group_name_H-M   'P -1'
_symmetry_Int_Tables_number      2
_space_group_name_Hall           '-P 1'
loop_
_symmetry_equiv_pos_site_id
_symmetry_equiv_pos_as_xyz
1 x,y,z
2 -x,-y,-z
_cell_length_a                   6.5359(15)
_cell_length_b                   9.561(2)
_cell_length_c                   9.734(2)
_cell_angle_alpha                71.906(2)
_cell_angle_beta                 78.800(3)
_cell_angle_gamma                80.305(2)
_cell_volume                     563.36
loop_
_atom_site_label
_atom_site_type_symbol
_atom_site_fract_x
_atom_site_fract_y
_atom_site_fract_z
Dy1 Dy 0.59123(5) 0.79001(3) 0.80042(3)
O1 O 0.3353(7) 0.8866(5) 0.6354(5)
O2 O 0.7142(8) 0.5573(5) 0.9516(5)
O3 O 0.4286(9) 1.0238(6) 0.8316(5)
C1 C 0.7318(12) 0.4932(8) 0.6786(8)
O4 O 0.6553(9) 0.6282(5) 0.6621(5)
C2 C 0.4405(11) 1.0584(7) 0.9421(7)
O5 O 0.3667(8) 1.1772(5) 0.9722(5)
C3 C 0.3857(10) 0.9806(7) 0.5168(7)
O6 O 0.2701(8) 1.0470(5) 0.4234(5)
C4 C 0.7310(10) 0.4252(8) 0.9513(7)
N1 N 0.7737(11) 0.4446(7) 0.5575(7)
H1 H 0.7413 0.5052 0.4768
C5 C 0.7787(11) 0.3863(7) 0.8109(7)
C6 C 0.8671(14) 0.2456(9) 0.8087(9)
H2 H 0.8970 0.1760 0.8954
C7 C 0.8633(15) 0.3065(10) 0.5567(10)
H3 H 0.8909 0.2816 0.4693
C8 C 0.9127(16) 0.2052(10) 0.6788(10)
H4 H 0.9756 0.1107 0.6775
O7 O 0.7138(8) 0.3183(5) 1.0690(5)
O8 O 0.9535(9) 0.7979(7) 0.7825(6)
H5 H 1.0327 0.7410 0.8417
H6 H 1.0234 0.8615 0.7177
Dy1A Dy 0.40877(5) 1.20999(3) 0.19958(3)
Dy1A_2 Dy 0.40877(5) 1.20999(3) 1.19958(3)
Dy1A_3 Dy 0.40877(5) 0.20999(3) 1.19958(3)
O1A O 0.6647(7) 1.1134(5) 0.3646(5)
O2A O 0.2858(8) 0.4427(5) 1.0484(5)
O2A_2 O 0.2858(8) 1.4427(5) 0.0484(5)
O3A O 0.5714(9) 0.9762(6) 1.1684(5)
O3A_2 O 0.5714(9) 0.9762(6) 0.1684(5)
C1A C 0.2682(12) 0.5068(8) 1.3214(8)
O4A O 0.3447(9) 0.3718(5) 1.3379(5)
O4A_2 O 0.3447(9) 1.3718(5) 0.3379(5)
C2A C 0.5595(11) 0.9416(7) 1.0579(7)
O5A O 0.6333(8) 0.8228(5) 1.0278(5)
O5_2 O 0.3667(8) 1.1772(5) -0.0278(5)
C3A C 0.6143(10) 1.0194(7) 0.4832(7)
O6A O 0.7299(8) 0.9530(5) 0.5766(5)
C4A C 0.2690(10) 0.5748(8) 1.0487(7)
N1A N 0.2263(11) 0.5554(7) 1.4425(7)
H1A H 0.2587 0.4948 1.5232
C5A C 0.2213(11) 0.6137(7) 1.1891(7)
C6A C 0.1329(14) 0.7544(9) 1.1913(9)
H2A H 0.1030 0.8240 1.1046
C7A C 0.1367(15) 0.6935(10) 1.4433(10)
H3A H 0.1091 0.7184 1.5307
C8A C 0.0873(16) 0.7948(10) 1.3212(10)
H4A H 0.0244 0.8893 1.3225
O7A O 0.2862(8) 0.6817(5) 0.9310(5)
O7_2 O 0.7138(8) 1.3183(5) 0.0690(5)
O8A O 0.0465(9) 1.2021(7) 0.2175(6)
H5A H -0.0327 1.2590 0.1583
H6A H -0.0234 1.1385 0.2823
O9 O 0.7275(12) 0.5642(8) 0.2640(7)
H7 H 0.6854 0.6442 0.2877
H8 H 0.7313 0.5812 0.1725
loop_
_geom_bond_atom_site_label_1
_geom_bond_atom_site_label_2
_geom_bond_site_symmetry_1
_geom_bond_site_symmetry_2
Dy1 O1 1_555 1_555
O1 C3 1_555 1_555
O2 Dy1 1_555 1_555
O3 Dy1 1_555 1_555
C1 O4 1_555 1_555
O4 Dy1 1_555 1_555
C2 O3 1_555 1_555
O5 C2 1_555 1_555
C3 O6 1_555 1_555
O6 Dy1A 1_555 1_555
C4 O2 1_555 1_555
N1 C1 1_555 1_555
H1 N1 1_555 1_555
C5 C1 1_555 1_555
C6 C5 1_555 1_555
H2 C6 1_555 1_555
C7 N1 1_555 1_555
H3 C7 1_555 1_555
C8 C6 1_555 1_555
H4 C8 1_555 1_555
O7 C4 1_555 1_555
O8 Dy1 1_555 1_555
H5 O8 1_555 1_555
H6 O8 1_555 1_555
O9 H7 1_555 1_555
H8 O9 1_555 1_555
Dy1A O1A 1_555 1_555
Dy1A_2 O5 1_555 1_555
Dy1A_3 O7 1_555 1_555
O1A C3A 1_555 1_555
O2A Dy1A_3 1_555 1_555
O2A_2 Dy1A 1_555 1_555
O3A Dy1A_2 1_555 1_555
O3A_2 Dy1A 1_555 1_555
C1A O4A 1_555 1_555
O4A Dy1A_3 1_555 1_555
O4A_2 Dy1A 1_555 1_555
C2A C2 1_555 1_555
O5A Dy1 1_555 1_555
O5_2 Dy1A 1_555 1_555
C3A C3 1_555 1_555
O6A Dy1 1_555 1_555
C4A O2A 1_555 1_555
N1A C1A 1_555 1_555
H1A N1A 1_555 1_555
C5A C1A 1_555 1_555
C6A C5A 1_555 1_555
H2A C6A 1_555 1_555
C7A N1A 1_555 1_555
H3A C7A 1_555 1_555
C8A C6A 1_555 1_555
H4A C8A 1_555 1_555
O7A Dy1 1_555 1_555
O7_2 Dy1A 1_555 1_555
O8A Dy1A 1_555 1_555
H5A O8A 1_555 1_555
H6A O8A 1_555 1_555
C4 C5 1_555 1_555
C7 C8 1_555 1_555
O3A C2A 1_555 1_555
C2A O5A 1_555 1_555
C3A O6A 1_555 1_555
C4A C5A 1_555 1_555
C4A O7A 1_555 1_555
C7A C8A 1_555 1_555

#END
