
#######################################################################
#
#                 Cambridge Crystallographic Data Centre
#                                CCDC 
#
#######################################################################
#
# If this CIF has been generated from an entry in the Cambridge 
# Structural Database, then it will include bibliographic, chemical, 
# crystal, experimental, refinement or atomic coordinate data resulting 
# from the CCDC's data processing and validation procedures.
#
#######################################################################

data_ROLVEU
_symmetry_cell_setting           orthorhombic
_symmetry_space_group_name_H-M   'C m c a'
_symmetry_Int_Tables_number      64
_space_group_name_Hall           '-C 2ac 2'
loop_
_symmetry_equiv_pos_site_id
_symmetry_equiv_pos_as_xyz
1 x,y,z
2 1/2+x,1/2+y,z
3 -x,1/2-y,1/2+z
4 -x,1/2+y,1/2-z
5 x,-y,-z
6 1/2-x,-y,1/2+z
7 1/2-x,y,1/2-z
8 1/2+x,1/2-y,-z
9 -x,-y,-z
10 1/2-x,1/2-y,-z
11 x,1/2+y,1/2-z
12 x,1/2-y,1/2+z
13 -x,y,z
14 1/2+x,y,1/2-z
15 1/2+x,-y,1/2+z
16 1/2-x,1/2+y,z
_cell_length_a                   35.396(3)
_cell_length_b                   12.3733(10)
_cell_length_c                   15.2324(13)
_cell_angle_alpha                90
_cell_angle_beta                 90
_cell_angle_gamma                90
_cell_volume                     6671.26
loop_
_atom_site_label
_atom_site_type_symbol
_atom_site_fract_x
_atom_site_fract_y
_atom_site_fract_z
Pr1 Pr 0.2500 0.08315(12) 0.2500
Ag1 Ag 0.11088(6) -0.39012(15) 0.56463(12)
C1 C 0.1570(6) -0.1124(17) 0.4208(13)
C2 C 0.1963(6) -0.0770(16) 0.3979(13)
C3 C 0.1260(7) -0.057(2) 0.3901(17)
H1 H 0.1292 0.0038 0.3555
C4 C 0.1508(6) -0.2024(18) 0.4725(13)
H2 H 0.1716 -0.2393 0.4945
C5 C 0.0904(8) -0.092(2) 0.411(2)
H3 H 0.0692 -0.0561 0.3899
C6 C 0.0867(7) -0.184(2) 0.4631(18)
H4 H 0.0625 -0.2073 0.4782
N1 N 0.1163(5) -0.2392(15) 0.4925(12)
O1 O 0.2002(4) -0.0024(12) 0.3439(9)
O2 O 0.2235(4) -0.1275(12) 0.4344(9)
N2 N 0.3975(5) 0.0319(15) 0.3544(12)
C7 C 0.3677(6) 0.0856(16) 0.3230(14)
H5 H 0.3437 0.0615 0.3390
C8 C 0.4315(8) 0.066(2) 0.331(2)
H6 H 0.4526 0.0282 0.3511
C9 C 0.3700(6) 0.1745(16) 0.2684(13)
C10 C 0.4055(7) 0.208(2) 0.2442(19)
H7 H 0.4086 0.2656 0.2059
C11 C 0.4369(8) 0.154(3) 0.277(3)
H8 H 0.4612 0.1768 0.2638
C12 C 0.3348(6) 0.2324(16) 0.2381(13)
O5 O 0.1962(4) 0.1981(12) 0.2341(9)
O6 O 0.3389(4) 0.3122(13) 0.1896(11)
O7 O 0.2180(4) -0.0565(12) 0.1603(9)
H9 H 0.2373 -0.0805 0.1295
H10 H 0.1996 -0.1082 0.1807
O8 O 0.2515(5) 0.1653(13) 0.3996(10)
H11 H 0.2615 0.2394 0.4110
H12 H 0.2454 0.1409 0.4486
Ag1I Ag 0.38912(6) -0.10988(15) 0.43537(12)
Ag1K Ag 0.11088(6) -0.10988(15) 0.06463(12)
Ag1F Ag 0.38912(6) -0.39012(15) -0.06463(12)
C1F C 0.3430(6) -0.1124(17) 0.0792(13)
C2F C 0.3037(6) -0.0770(16) 0.1021(13)
C3F C 0.3740(7) -0.057(2) 0.1099(17)
H1F H 0.3708 0.0038 0.1445
C4F C 0.3492(6) -0.2024(18) 0.0275(13)
H2F H 0.3284 -0.2393 0.0055
C5F C 0.4096(8) -0.092(2) 0.089(2)
H3F H 0.4308 -0.0561 0.1101
C6F C 0.4133(7) -0.184(2) 0.0369(18)
H4F H 0.4375 -0.2073 0.0218
N1I N 0.3837(5) -0.2608(15) 0.5075(12)
N1F N 0.3837(5) -0.2392(15) 0.0075(12)
O1F O 0.2998(4) -0.0024(12) 0.1561(9)
O2F O 0.2765(4) -0.1275(12) 0.0656(9)
N2I N 0.1025(5) -0.5319(15) 0.6456(12)
N2F N 0.1025(5) 0.0319(15) 0.1456(12)
C7F C 0.1323(6) 0.0856(16) 0.1770(14)
H5F H 0.1563 0.0615 0.1610
C8F C 0.0685(8) 0.066(2) 0.169(2)
H6F H 0.0474 0.0282 0.1489
C9F C 0.1300(6) 0.1745(16) 0.2316(13)
C10F C 0.0945(7) 0.208(2) 0.2558(19)
H7F H 0.0914 0.2656 0.2941
C11F C 0.0631(8) 0.154(3) 0.223(3)
H8F H 0.0388 0.1768 0.2362
C12F C 0.1652(6) 0.2324(16) 0.2619(13)
O5F O 0.3038(4) 0.1981(12) 0.2659(9)
O6F O 0.1611(4) 0.3122(13) 0.3104(11)
O7F O 0.2820(4) -0.0565(12) 0.3397(9)
H9F H 0.2627 -0.0805 0.3705
H10F H 0.3004 -0.1082 0.3193
O8F O 0.2485(5) 0.1653(13) 0.1004(10)
H11F H 0.2385 0.2394 0.0890
H12F H 0.2546 0.1409 0.0514
Cl1 Cl 0.0000 -0.3151(10) 0.5898(10)
O3 O 0.0000 -0.197(3) 0.588(4)
O4 O 0.0000 -0.353(5) 0.685(4)
O10 O 0.0324(9) -0.357(3) 0.565(3)
O10L O -0.0324(9) -0.357(3) 0.565(3)
O9 O 0.1776(8) -0.5000 0.5000
H13 H 0.1920 -0.4990 0.4583
H13D H 0.1920 -0.5010 0.5417
loop_
_geom_bond_atom_site_label_1
_geom_bond_atom_site_label_2
_geom_bond_site_symmetry_1
_geom_bond_site_symmetry_2
Pr1 O1 1_555 1_555
Ag1 N1 1_555 1_555
C1 C2 1_555 1_555
C2 O1 1_555 1_555
C3 C1 1_555 1_555
H1 C3 1_555 1_555
C4 C1 1_555 1_555
H2 C4 1_555 1_555
C5 C3 1_555 1_555
H3 C5 1_555 1_555
C6 C5 1_555 1_555
H4 C6 1_555 1_555
N1 C4 1_555 1_555
O2 C2 1_555 1_555
N2 C7 1_555 1_555
C7 H5 1_555 1_555
C8 N2 1_555 1_555
H6 C8 1_555 1_555
Cl1 O3 1_555 1_555
O4 Cl1 1_555 1_555
C9 C7 1_555 1_555
C10 C9 1_555 1_555
H7 C10 1_555 1_555
C11 C8 1_555 1_555
H8 C11 1_555 1_555
C12 C9 1_555 1_555
O5 Pr1 1_555 1_555
O6 C12 1_555 1_555
O7 Pr1 1_555 1_555
H9 O7 1_555 1_555
H10 O7 1_555 1_555
O8 Pr1 1_555 1_555
H11 O8 1_555 1_555
H12 O8 1_555 1_555
O9 H13 1_555 1_555
O10 Cl1 1_555 1_555
Ag1I N2 1_555 1_555
Ag1K N2F 1_555 1_555
Ag1F N1F 1_555 1_555
C1F C2F 1_555 1_555
C2F O1F 1_555 1_555
C3F C1F 1_555 1_555
H1F C3F 1_555 1_555
C4F C1F 1_555 1_555
H2F C4F 1_555 1_555
C5F C3F 1_555 1_555
H3F C5F 1_555 1_555
C6F C5F 1_555 1_555
H4F C6F 1_555 1_555
N1I Ag1I 1_555 1_555
N1F C4F 1_555 1_555
O1F Pr1 1_555 1_555
O2F C2F 1_555 1_555
N2I Ag1 1_555 1_555
N2F C7F 1_555 1_555
C7F H5F 1_555 1_555
C8F N2F 1_555 1_555
H6F C8F 1_555 1_555
C9F C7F 1_555 1_555
C10F C9F 1_555 1_555
H7F C10F 1_555 1_555
C11F C8F 1_555 1_555
H8F C11F 1_555 1_555
C12F O5 1_555 1_555
O5F Pr1 1_555 1_555
O6F C12F 1_555 1_555
O7F Pr1 1_555 1_555
H9F O7F 1_555 1_555
H10F O7F 1_555 1_555
O8F Pr1 1_555 1_555
H11F O8F 1_555 1_555
H12F O8F 1_555 1_555
H13D O9 1_555 1_555
O10L Cl1 1_555 1_555
C6 N1 1_555 1_555
C10 C11 1_555 1_555
C12 O5F 1_555 1_555
C6F N1F 1_555 1_555
C9F C12F 1_555 1_555
C10F C11F 1_555 1_555

#END
