
#######################################################################
#
#                 Cambridge Crystallographic Data Centre
#                                CCDC 
#
#######################################################################
#
# If this CIF has been generated from an entry in the Cambridge 
# Structural Database, then it will include bibliographic, chemical, 
# crystal, experimental, refinement or atomic coordinate data resulting 
# from the CCDC's data processing and validation procedures.
#
#######################################################################

data_ROLVET
_symmetry_cell_setting           triclinic
_symmetry_space_group_name_H-M   'P -1'
_symmetry_Int_Tables_number      2
_space_group_name_Hall           '-P 1'
loop_
_symmetry_equiv_pos_site_id
_symmetry_equiv_pos_as_xyz
1 x,y,z
2 -x,-y,-z
_cell_length_a                   14.651(6)
_cell_length_b                   16.679(7)
_cell_length_c                   13.561(4)
_cell_angle_alpha                101.46(3)
_cell_angle_beta                 113.91(2)
_cell_angle_gamma                65.52(3)
_cell_volume                     2755.23
loop_
_atom_site_label
_atom_site_type_symbol
_atom_site_fract_x
_atom_site_fract_y
_atom_site_fract_z
Mn1 Mn 0.0590(1) 0.1178(1) 0.1038(1)
Mn2 Mn 0.4439(1) -0.4630(1) 0.1466(1)
O1 O 0.1511(6) -0.0165(5) 0.0907(7)
O2 O 0.3500(6) -0.4192(5) -0.0115(6)
O3 O 0.4354(7) -0.4253(5) -0.1161(7)
O4 O -0.0743(6) 0.1157(5) -0.0380(6)
N1 N -0.0191(8) 0.2549(7) 0.1664(10)
N2 N -0.0017(8) 0.1009(7) 0.2219(8)
N3 N 0.2197(8) 0.1255(6) 0.2232(8)
N4 N 0.1365(9) 0.1494(6) 0.0075(9)
N5 N 0.3373(9) -0.5335(6) 0.1358(9)
N6 N 0.5130(9) -0.5251(7) 0.3113(8)
N7 N 0.3508(8) -0.3355(6) 0.2195(7)
N8 N 0.5368(8) -0.3742(6) 0.1892(8)
C1 C 0.3757(9) -0.3833(8) -0.0647(9)
C2 C 0.3330(9) -0.2849(7) -0.0341(9)
C3 C 0.2583(8) -0.2343(8) -0.0151(8)
C4 C 0.2254(9) -0.1438(8) -0.0082(9)
C5 C 0.1438(10) -0.0851(8) 0.0444(9)
C6 C 0.262(1) -0.1027(8) -0.052(1)
C7 C 0.334(1) -0.1542(10) -0.108(1)
C8 C 0.366(1) -0.2421(9) -0.113(1)
C9 C -0.022(1) 0.330(1) 0.145(1)
C10 C -0.061(2) 0.408(1) 0.196(2)
C11 C -0.098(2) 0.411(1) 0.274(2)
C12 C -0.098(1) 0.334(1) 0.301(1)
C13 C -0.136(2) 0.330(2) 0.382(2)
C14 C -0.133(2) 0.255(2) 0.404(1)
C15 C -0.092(1) 0.176(1) 0.350(1)
C16 C -0.082(1) 0.094(2) 0.374(1)
C17 C -0.037(1) 0.019(1) 0.319(1)
C18 C 0.003(1) 0.0239(10) 0.244(1)
C19 C -0.047(1) 0.174(1) 0.274(1)
C20 C -0.0552(10) 0.2574(10) 0.245(1)
C21 C 0.260(1) 0.1168(9) 0.329(1)
C22 C 0.366(1) 0.1054(9) 0.391(1)
C23 C 0.433(1) 0.099(1) 0.345(1)
C24 C 0.397(1) 0.1052(9) 0.234(1)
C25 C 0.460(1) 0.105(1) 0.176(2)
C26 C 0.420(2) 0.111(1) 0.071(2)
C27 C 0.309(1) 0.129(1) 0.008(1)
C28 C 0.263(2) 0.140(1) -0.100(2)
C29 C 0.157(2) 0.158(1) -0.153(1)
C30 C 0.094(1) 0.1623(10) -0.096(1)
C31 C 0.243(1) 0.1341(8) 0.063(1)
C32 C 0.287(1) 0.1211(8) 0.175(1)
C33 C 0.253(1) -0.5360(10) 0.053(1)
C34 C 0.193(1) -0.585(1) 0.048(2)
C35 C 0.224(2) -0.629(1) 0.135(2)
C36 C 0.311(2) -0.630(1) 0.223(2)
C37 C 0.343(2) -0.674(2) 0.317(3)
C38 C 0.430(3) -0.674(1) 0.397(2)
C39 C 0.497(2) -0.626(1) 0.408(1)
C40 C 0.584(2) -0.619(1) 0.489(2)
C41 C 0.638(1) -0.570(1) 0.487(2)
C42 C 0.597(1) -0.52121(10) 0.391(1)
C43 C 0.458(1) -0.5751(9) 0.313(1)
C44 C 0.367(1) -0.5801(9) 0.222(1)
C45 C 0.2577(10) -0.3154(8) 0.2368(10)
C46 C 0.210(1) -0.2357(10) 0.287(1)
C47 C 0.257(1) -0.1759(9) 0.316(1)
C48 C 0.350(1) -0.1923(9) 0.2980(10)
C49 C 0.398(1) -0.1307(10) 0.324(1)
C50 C 0.490(1) -0.1480(10) 0.306(1)
C51 C 0.539(1) -0.2288(10) 0.261(1)
C52 C 0.636(1) -0.254(1) 0.243(1)
C53 C 0.677(1) -0.334(1) 0.196(1)
C54 C 0.626(1) -0.3925(10) 0.173(1)
C55 C 0.4939(10) -0.2941(9) 0.2322(9)
C56 C 0.396(1) -0.2728(8) 0.2515(9)
O4A O 0.0743(6) -0.1157(5) 0.0380(6)
Mn1A Mn -0.0590(1) -0.1178(1) -0.1038(1)
O3A O 0.5646(7) -0.5747(5) 0.1161(7)
Mn2A Mn 0.5561(1) -0.5370(1) -0.1466(1)
Cl1 Cl 0.9546(4) 0.3920(4) 0.7384(6)
O5 O 0.872(2) 0.467(1) 0.697(2)
O6 O 1.052(1) 0.386(1) 0.756(1)
O7 O 0.959(2) 0.386(1) 0.847(2)
O8 O 0.933(1) 0.319(1) 0.675(1)
Cl2 Cl 0.2424(4) 0.0371(4) 0.5833(4)
O9 O 0.314(2) 0.073(1) 0.636(2)
O10 O 0.272(3) -0.016(2) 0.664(3)
O11 O 0.137(2) 0.087(1) 0.569(2)
O12 O 0.255(2) -0.010(1) 0.499(2)
O13 O 0.201(2) 0.427(1) 0.515(2)
O14 O 0.129(2) 0.293(1) 0.48(2)
loop_
_geom_bond_atom_site_label_1
_geom_bond_atom_site_label_2
_geom_bond_site_symmetry_1
_geom_bond_site_symmetry_2
Mn1 O1 1_555 1_555
Mn2 O2 1_555 1_555
Cl1 O5 1_555 1_555
Cl2 O9 1_555 1_555
O1 C5 1_555 1_555
O2 C1 1_555 1_555
O3 C1 1_555 1_555
O4 Mn1 1_555 1_555
O6 Cl1 1_555 1_555
O7 Cl1 1_555 1_555
O8 Cl1 1_555 1_555
O10 Cl2 1_555 1_555
O11 Cl2 1_555 1_555
O12 Cl2 1_555 1_555
N1 Mn1 1_555 1_555
N2 Mn1 1_555 1_555
N3 Mn1 1_555 1_555
N4 Mn1 1_555 1_555
N5 Mn2 1_555 1_555
N6 Mn2 1_555 1_555
N7 Mn2 1_555 1_555
N8 Mn2 1_555 1_555
C1 C2 1_555 1_555
C2 C3 1_555 1_555
C3 C4 1_555 1_555
C4 C5 1_555 1_555
C5 O4A 1_555 1_555
C6 C4 1_555 1_555
C7 C6 1_555 1_555
C8 C2 1_555 1_555
C9 N1 1_555 1_555
C10 C9 1_555 1_555
C11 C10 1_555 1_555
C12 C11 1_555 1_555
C13 C12 1_555 1_555
C14 C13 1_555 1_555
C15 C14 1_555 1_555
C16 C15 1_555 1_555
C17 C16 1_555 1_555
C18 N2 1_555 1_555
C19 N2 1_555 1_555
C20 N1 1_555 1_555
C21 N3 1_555 1_555
C22 C21 1_555 1_555
C23 C22 1_555 1_555
C24 C23 1_555 1_555
C25 C24 1_555 1_555
C26 C25 1_555 1_555
C27 C26 1_555 1_555
C28 C27 1_555 1_555
C29 C28 1_555 1_555
C30 N4 1_555 1_555
C31 N4 1_555 1_555
C32 N3 1_555 1_555
C33 N5 1_555 1_555
C34 C33 1_555 1_555
C35 C34 1_555 1_555
C36 C35 1_555 1_555
C37 C36 1_555 1_555
C38 C37 1_555 1_555
C39 C38 1_555 1_555
C40 C39 1_555 1_555
C41 C40 1_555 1_555
C42 N6 1_555 1_555
C43 N6 1_555 1_555
C44 N5 1_555 1_555
C45 N7 1_555 1_555
C46 C45 1_555 1_555
C47 C46 1_555 1_555
C48 C47 1_555 1_555
C49 C48 1_555 1_555
C50 C49 1_555 1_555
C51 C50 1_555 1_555
C52 C51 1_555 1_555
C53 C52 1_555 1_555
C54 N8 1_555 1_555
C55 N8 1_555 1_555
C56 N7 1_555 1_555
O4A Mn1A 1_555 1_555
O3A Mn2 1_555 1_555
Mn2A O3 1_555 1_555
C7 C8 1_555 1_555
C12 C20 1_555 1_555
C15 C19 1_555 1_555
C17 C18 1_555 1_555
C19 C20 1_555 1_555
C24 C32 1_555 1_555
C27 C31 1_555 1_555
C29 C30 1_555 1_555
C31 C32 1_555 1_555
C36 C44 1_555 1_555
C39 C43 1_555 1_555
C41 C42 1_555 1_555
C43 C44 1_555 1_555
C48 C56 1_555 1_555
C51 C55 1_555 1_555
C53 C54 1_555 1_555
C55 C56 1_555 1_555

#END
