
#######################################################################
#
#                 Cambridge Crystallographic Data Centre
#                                CCDC 
#
#######################################################################
#
# If this CIF has been generated from an entry in the Cambridge 
# Structural Database, then it will include bibliographic, chemical, 
# crystal, experimental, refinement or atomic coordinate data resulting 
# from the CCDC's data processing and validation procedures.
#
#######################################################################

data_ROMFEG
_symmetry_cell_setting           triclinic
_symmetry_space_group_name_H-M   'P -1'
_symmetry_Int_Tables_number      2
_space_group_name_Hall           '-P 1'
loop_
_symmetry_equiv_pos_site_id
_symmetry_equiv_pos_as_xyz
1 x,y,z
2 -x,-y,-z
_cell_length_a                   11.423(5)
_cell_length_b                   13.051(6)
_cell_length_c                   17.776(8)
_cell_angle_alpha                74.185(5)
_cell_angle_beta                 86.110(6)
_cell_angle_gamma                70.758(6)
_cell_volume                     2406.61
loop_
_atom_site_label
_atom_site_type_symbol
_atom_site_fract_x
_atom_site_fract_y
_atom_site_fract_z
Co1 Co 0.30790(10) 0.97686(9) 0.09688(6)
Co2 Co 0.44781(10) 0.77660(9) 0.38772(6)
O1 O 0.4287(5) 1.0943(5) 0.0745(3)
O2 O 0.4210(5) 0.9752(5) 0.1863(3)
O3 O 0.3811(5) 1.0535(4) 0.3339(3)
O4 O 0.5356(5) 0.8899(4) 0.3410(3)
O5 O 0.6193(6) 1.0161(5) 0.4228(3)
O6 O 0.7300(6) 1.1225(6) 0.3994(3)
O7 O 0.3369(5) 0.6562(5) 0.4069(3)
O8 O 0.3284(5) 0.7880(5) 0.2987(3)
O9 O 0.3699(5) 0.6983(5) 0.1480(3)
O10 O 0.2196(5) 0.8633(4) 0.1428(3)
O11 O 0.1306(8) 0.7345(7) 0.0632(4)
O12 O 0.0072(8) 0.6382(7) 0.0915(4)
O13 O 0.4629(5) 0.8524(4) 0.0672(3)
H1 H 0.4487 0.7811 0.0827
H2 H 0.4736 0.8726 0.0116
O14 O 0.2930(5) 0.9046(4) 0.4232(3)
H3 H 0.3082 0.9754 0.4081
H4 H 0.2857 0.8824 0.4790
N1 N 0.6683(7) 1.0793(6) 0.3785(4)
N2 N 0.0816(8) 0.6778(7) 0.1110(5)
N3 N 0.2304(6) 1.0323(6) -0.0170(4)
N4 N 0.0112(9) 1.2276(10) -0.5475(5)
N5 N 0.5120(6) 0.7164(5) 0.5029(4)
N6 N 0.7287(10) 0.5266(9) 1.0371(5)
N7 N 0.1592(6) 1.0938(5) 0.1414(4)
N8 N -0.4050(6) 1.6597(5) 0.3430(4)
C1 C 0.5423(7) 1.0948(7) 0.1823(4)
C2 C 0.5623(7) 1.0624(6) 0.2653(4)
C3 C 0.6413(7) 1.1057(7) 0.2932(4)
C4 C 0.7008(8) 1.1751(7) 0.2462(5)
H5 H 0.7536 1.2016 0.2674
C5 C 0.6788(8) 1.2046(8) 0.1651(5)
H6 H 0.7185 1.2505 0.1317
C6 C 0.5966(8) 1.1649(7) 0.1340(5)
H7 H 0.5799 1.1869 0.0804
C7 C 0.4563(7) 1.0527(7) 0.1455(5)
C8 C 0.4848(8) 0.9958(7) 0.3179(4)
C9 C 0.2107(7) 0.6660(7) 0.3000(5)
C10 C 0.1933(7) 0.6932(7) 0.2204(5)
C11 C 0.1083(8) 0.6523(7) 0.1948(5)
C12 C 0.0472(9) 0.5874(8) 0.2459(6)
H8 H -0.0067 0.5607 0.2261
C13 C 0.0647(9) 0.5623(8) 0.3239(6)
H9 H 0.0230 0.5194 0.3583
C14 C 0.1450(9) 0.6019(8) 0.3504(5)
H10 H 0.1573 0.5860 0.4041
C15 C 0.2965(7) 0.7053(7) 0.3383(5)
C16 C 0.2673(8) 0.7565(7) 0.1648(5)
C17 C 0.1471(8) 0.9895(8) -0.0352(5)
H11 H 0.1226 0.9377 0.0041
C18 C 0.0975(8) 1.0181(8) -0.1077(5)
H12 H 0.0348 0.9908 -0.1153
C19 C 0.1362(7) 1.0858(7) -0.1703(4)
C20 C 0.2208(8) 1.1325(7) -0.1526(5)
H13 H 0.2472 1.1832 -0.1917
C21 C 0.2662(8) 1.1026(7) -0.0753(5)
H14 H 0.3238 1.1336 -0.0646
C22 C 0.0860(8) 1.1108(8) -0.2490(5)
H15 H 0.0140 1.0942 -0.2537
C23 C 0.1338(9) 1.1543(9) -0.3131(6)
H16 H 0.2054 1.1711 -0.3079
C24 C -0.0423(11) 1.1711(12) -0.4893(6)
H17 H -0.1066 1.1495 -0.5020
C25 C -0.0086(10) 1.1432(10) -0.4126(5)
H18 H -0.0467 1.1014 -0.3742
C26 C 0.0854(9) 1.1796(8) -0.3931(5)
C27 C 0.1372(11) 1.2392(10) -0.4538(6)
H19 H 0.2007 1.2640 -0.4440
C28 C 0.0952(11) 1.2626(11) -0.5296(6)
H20 H 0.1295 1.3058 -0.5695
C29 C 0.4880(8) 0.6270(7) 0.5516(5)
H21 H 0.4487 0.5884 0.5308
C30 C 0.5185(8) 0.5887(8) 0.6313(5)
H22 H 0.5004 0.5263 0.6627
C31 C 0.5771(9) 0.6468(8) 0.6623(5)
C32 C 0.6036(8) 0.7332(8) 0.6143(5)
H23 H 0.6445 0.7714 0.6343
C33 C 0.5717(8) 0.7691(8) 0.5339(5)
H24 H 0.5922 0.8298 0.5020
C34 C 0.6050(9) 0.5987(8) 0.7483(6)
H25 H 0.5844 0.5348 0.7738
C35 C 0.6547(9) 0.6404(9) 0.7877(6)
H26 H 0.6797 0.7013 0.7608
C36 C 0.6676(14) 0.4832(10) 1.0005(7)
H27 H 0.6394 0.4266 1.0316
C37 C 0.6419(12) 0.5115(9) 0.9242(6)
H28 H 0.6014 0.4737 0.9035
C38 C 0.6776(9) 0.5990(9) 0.8765(5)
C39 C 0.7380(11) 0.6454(10) 0.9098(6)
H29 H 0.7643 0.7039 0.8798
C40 C 0.7620(12) 0.6084(12) 0.9874(7)
H30 H 0.8060 0.6432 1.0083
C41 C 0.0760(7) 1.1867(6) 0.0998(5)
H31 H 0.0728 1.1999 0.0457
C42 C -0.0068(8) 1.2653(7) 0.1346(5)
H32 H -0.0625 1.3301 0.1034
C43 C -0.0068(8) 1.2480(8) 0.2137(6)
C44 C 0.0764(8) 1.1498(8) 0.2566(5)
H33 H 0.0771 1.1340 0.3108
C45 C 0.1594(8) 1.0736(7) 0.2212(5)
H34 H 0.2155 1.0084 0.2517
C46 C -0.0889(9) 1.3288(9) 0.2591(6)
H35 H -0.0830 1.3072 0.3135
C47 C -0.1621(9) 1.4209(9) 0.2264(6)
H36 H -0.1679 1.4415 0.1721
C48 C -0.4022(8) 1.6729(8) 0.2653(5)
H37 H -0.4575 1.7388 0.2349
C49 C -0.3269(9) 1.6000(8) 0.2261(6)
H38 H -0.3322 1.6159 0.1719
C50 C -0.2430(8) 1.5023(8) 0.2693(6)
C51 C -0.2385(7) 1.4861(7) 0.3515(5)
H39 H -0.1806 1.4227 0.3824
C52 C -0.3197(8) 1.5641(7) 0.3854(5)
H40 H -0.3163 1.5510 0.4395
Co2_2 Co -0.55219(10) 1.77660(9) 0.38772(6)
N8_2 N 0.5950(6) 0.6597(5) 0.3430(4)
loop_
_geom_bond_atom_site_label_1
_geom_bond_atom_site_label_2
_geom_bond_site_symmetry_1
_geom_bond_site_symmetry_2
Co1 O1 1_555 1_555
Co2 O4 1_555 1_555
O1 C7 1_555 1_555
O2 Co1 1_555 1_555
O3 C8 1_555 1_555
O4 C8 1_555 1_555
O5 N1 1_555 1_555
O6 N1 1_555 1_555
O7 Co2 1_555 1_555
O8 Co2 1_555 1_555
O9 C16 1_555 1_555
O10 Co1 1_555 1_555
O11 N2 1_555 1_555
O12 N2 1_555 1_555
O13 Co1 1_555 1_555
H1 O13 1_555 1_555
H2 O13 1_555 1_555
O14 Co2 1_555 1_555
H3 O14 1_555 1_555
H4 O14 1_555 1_555
N1 C3 1_555 1_555
N2 C11 1_555 1_555
N3 Co1 1_555 1_555
N4 C24 1_555 1_555
N5 Co2 1_555 1_555
N6 C36 1_555 1_555
N7 Co1 1_555 1_555
N8 C48 1_555 1_555
C1 C2 1_555 1_555
C2 C3 1_555 1_555
C3 C4 1_555 1_555
C4 H5 1_555 1_555
C5 C4 1_555 1_555
H6 C5 1_555 1_555
C6 C1 1_555 1_555
H7 C6 1_555 1_555
C7 O2 1_555 1_555
C8 C2 1_555 1_555
C9 C10 1_555 1_555
C10 C11 1_555 1_555
C11 C12 1_555 1_555
C12 H8 1_555 1_555
C13 C12 1_555 1_555
H9 C13 1_555 1_555
C14 C9 1_555 1_555
H10 C14 1_555 1_555
C15 O7 1_555 1_555
C16 O10 1_555 1_555
C17 N3 1_555 1_555
H11 C17 1_555 1_555
C18 C17 1_555 1_555
H12 C18 1_555 1_555
C19 C18 1_555 1_555
C20 C19 1_555 1_555
H13 C20 1_555 1_555
C21 N3 1_555 1_555
H14 C21 1_555 1_555
C22 C19 1_555 1_555
H15 C22 1_555 1_555
C23 C22 1_555 1_555
H16 C23 1_555 1_555
C24 H17 1_555 1_555
C25 C24 1_555 1_555
H18 C25 1_555 1_555
C26 C23 1_555 1_555
C27 C26 1_555 1_555
H19 C27 1_555 1_555
C28 N4 1_555 1_555
H20 C28 1_555 1_555
C29 N5 1_555 1_555
H21 C29 1_555 1_555
C30 C29 1_555 1_555
H22 C30 1_555 1_555
C31 C30 1_555 1_555
C32 C31 1_555 1_555
H23 C32 1_555 1_555
C33 N5 1_555 1_555
H24 C33 1_555 1_555
C34 C31 1_555 1_555
H25 C34 1_555 1_555
C35 C34 1_555 1_555
H26 C35 1_555 1_555
C36 H27 1_555 1_555
C37 C36 1_555 1_555
H28 C37 1_555 1_555
C38 C35 1_555 1_555
C39 C38 1_555 1_555
H29 C39 1_555 1_555
C40 N6 1_555 1_555
H30 C40 1_555 1_555
C41 N7 1_555 1_555
H31 C41 1_555 1_555
C42 C41 1_555 1_555
H32 C42 1_555 1_555
C43 C42 1_555 1_555
C44 C43 1_555 1_555
H33 C44 1_555 1_555
C45 N7 1_555 1_555
H34 C45 1_555 1_555
C46 C43 1_555 1_555
H35 C46 1_555 1_555
C47 C46 1_555 1_555
H36 C47 1_555 1_555
C48 H37 1_555 1_555
C49 C48 1_555 1_555
H38 C49 1_555 1_555
C50 C47 1_555 1_555
C51 C50 1_555 1_555
H39 C51 1_555 1_555
C52 N8 1_555 1_555
H40 C52 1_555 1_555
Co2_2 N8 1_555 1_555
N8_2 Co2 1_555 1_555
O8 C15 1_555 1_555
C1 C7 1_555 1_555
C5 C6 1_555 1_555
C9 C15 1_555 1_555
C10 C16 1_555 1_555
C13 C14 1_555 1_555
C20 C21 1_555 1_555
C25 C26 1_555 1_555
C27 C28 1_555 1_555
C32 C33 1_555 1_555
C37 C38 1_555 1_555
C39 C40 1_555 1_555
C44 C45 1_555 1_555
C49 C50 1_555 1_555
C51 C52 1_555 1_555

#END
