
#######################################################################
#
#                 Cambridge Crystallographic Data Centre
#                                CCDC 
#
#######################################################################
#
# If this CIF has been generated from an entry in the Cambridge 
# Structural Database, then it will include bibliographic, chemical, 
# crystal, experimental, refinement or atomic coordinate data resulting 
# from the CCDC's data processing and validation procedures.
#
#######################################################################

data_ROMMIR
_symmetry_cell_setting           triclinic
_symmetry_space_group_name_H-M   'P -1'
_symmetry_Int_Tables_number      2
_space_group_name_Hall           '-P 1'
loop_
_symmetry_equiv_pos_site_id
_symmetry_equiv_pos_as_xyz
1 x,y,z
2 -x,-y,-z
_cell_length_a                   9.3790(4)
_cell_length_b                   10.0130(3)
_cell_length_c                   10.3180(4)
_cell_angle_alpha                100.148(3)
_cell_angle_beta                 91.407(3)
_cell_angle_gamma                107.941(3)
_cell_volume                     904.224
loop_
_atom_site_label
_atom_site_type_symbol
_atom_site_fract_x
_atom_site_fract_y
_atom_site_fract_z
Pb1 Pb 0.77693(5) 0.39552(4) 0.04164(4)
O1 O 0.9238(9) 0.5489(7) -0.1004(8)
C1 C 0.8629(12) 0.6462(10) -0.0650(11)
Pb2 Pb 0.44295(5) 1.03023(4) -0.18227(4)
O2 O 0.7682(10) 0.6380(8) 0.0187(8)
C2 C 0.9027(12) 0.7736(10) -0.1319(11)
O3 O 0.8673(9) 1.2387(7) -0.1242(7)
C3 C 0.8376(12) 0.8810(10) -0.0952(10)
H1 H 0.7671 0.8717 -0.0301
O4 O 0.6786(9) 1.0791(7) -0.0559(7)
C4 C 0.8741(13) 1.0004(10) -0.1520(11)
O5 O 0.5519(9) 0.8910(8) -0.3267(8)
C5 C 0.9790(12) 1.0169(10) -0.2469(11)
H2 H 1.0040 1.0994 -0.2860
O6 O 0.4482(10) 0.7693(9) -0.1769(9)
C6 C 1.0471(12) 0.9104(10) -0.2841(11)
O7 O 0.5717(9) 0.3251(7) -0.1280(8)
C7 C 1.0080(12) 0.7894(10) -0.2264(10)
H3 H 1.0534 0.7171 -0.2515
O8 O 0.5730(10) 0.1891(8) -0.3224(8)
C8 C 1.1496(14) 0.9262(11) -0.3834(11)
C9 C 1.2460(6) 0.9411(5) -0.4603(5)
H4 H 1.3218 0.9528 -0.5207
C10 C 0.8021(6) 1.1148(5) -0.1102(5)
C11 C 0.5871(6) 0.3094(5) -0.2524(5)
C12 C 0.6177(6) 0.4347(5) -0.3145(5)
C13 C 0.5655(6) 0.5464(5) -0.2657(5)
H5 H 0.5144 0.5442 -0.1873
C14 C 0.5855(12) 0.6619(10) -0.3279(11)
C15 C 0.6780(12) 0.6753(9) -0.4324(10)
H6 H 0.6976 0.7572 -0.4720
C16 C 0.7409(14) 0.5699(11) -0.4781(11)
C17 C 0.7071(14) 0.4461(11) -0.4248(10)
H7 H 0.7433 0.3700 -0.4614
C18 C 0.8418(14) 0.5870(11) -0.5857(11)
C19 C 0.9258(10) 0.6094(8) -0.6666(8)
H8 H 0.9943 0.6276 -0.7326
C20 C 0.5244(10) 0.7809(8) -0.2746(8)
Pb1_2 Pb 0.77693(5) 1.39552(4) 0.04164(4)
Pb1A Pb 0.22307(5) 0.60448(4) -0.04164(4)
Pb1A_2 Pb 1.22307(5) 0.60448(4) -0.04164(4)
O1A O 1.0762(9) 0.4511(7) 0.1004(8)
Pb2_2 Pb 0.44295(5) 0.03023(4) -0.18227(4)
O3_2 O 0.8673(9) 0.2387(7) -0.1242(7)
O6A O 0.5518(10) 0.2307(9) 0.1769(9)
O7_2 O 0.5717(9) 1.3251(7) -0.1280(8)
O8_2 O 0.5730(10) 1.1891(8) -0.3224(8)
loop_
_geom_bond_atom_site_label_1
_geom_bond_atom_site_label_2
_geom_bond_site_symmetry_1
_geom_bond_site_symmetry_2
Pb1 O1 1_555 1_555
O1 C1 1_555 1_555
C1 O2 1_555 1_555
Pb2 O4 1_555 1_555
O2 Pb1 1_555 1_555
C2 C1 1_555 1_555
O3 C10 1_555 1_555
C3 C2 1_555 1_555
H1 C3 1_555 1_555
O4 C10 1_555 1_555
C4 C3 1_555 1_555
O5 Pb2 1_555 1_555
C5 C4 1_555 1_555
H2 C5 1_555 1_555
O6 Pb2 1_555 1_555
C6 C5 1_555 1_555
O7 Pb1 1_555 1_555
C7 C2 1_555 1_555
H3 C7 1_555 1_555
O8 C11 1_555 1_555
C8 C6 1_555 1_555
C9 C8 1_555 1_555
H4 C9 1_555 1_555
C10 C4 1_555 1_555
C11 O7 1_555 1_555
C12 C11 1_555 1_555
C13 C12 1_555 1_555
H5 C13 1_555 1_555
C14 C13 1_555 1_555
C15 C14 1_555 1_555
H6 C15 1_555 1_555
C16 C15 1_555 1_555
C17 C12 1_555 1_555
H7 C17 1_555 1_555
C18 C16 1_555 1_555
C19 C18 1_555 1_555
H8 C19 1_555 1_555
C20 O5 1_555 1_555
Pb1_2 O3 1_555 1_555
Pb1A O6 1_555 1_555
Pb1A_2 O1 1_555 1_555
O1A Pb1 1_555 1_555
Pb2_2 O7 1_555 1_555
O3_2 Pb1 1_555 1_555
O6A Pb1 1_555 1_555
O7_2 Pb2 1_555 1_555
O8_2 Pb2 1_555 1_555
O6 C20 1_555 1_555
C6 C7 1_555 1_555
O8 Pb2_2 1_555 1_555
C14 C20 1_555 1_555
C16 C17 1_555 1_555
Pb1_2 O7_2 1_555 1_555
Pb1A_2 O1A 1_555 1_555

#END
