
#######################################################################
#
#                 Cambridge Crystallographic Data Centre
#                                CCDC 
#
#######################################################################
#
# If this CIF has been generated from an entry in the Cambridge 
# Structural Database, then it will include bibliographic, chemical, 
# crystal, experimental, refinement or atomic coordinate data resulting 
# from the CCDC's data processing and validation procedures.
#
#######################################################################

data_ROMNEO
_symmetry_cell_setting           triclinic
_symmetry_space_group_name_H-M   'P -1'
_symmetry_Int_Tables_number      2
_space_group_name_Hall           '-P 1'
loop_
_symmetry_equiv_pos_site_id
_symmetry_equiv_pos_as_xyz
1 x,y,z
2 -x,-y,-z
_cell_length_a                   7.9987(6)
_cell_length_b                   9.8130(6)
_cell_length_c                   10.4856(6)
_cell_angle_alpha                116.667(4)
_cell_angle_beta                 107.471(4)
_cell_angle_gamma                95.656(4)
_cell_volume                     674.767
loop_
_atom_site_label
_atom_site_type_symbol
_atom_site_fract_x
_atom_site_fract_y
_atom_site_fract_z
H1 H -0.024(6) 0.144(10) 0.961(10)
H2 H 0.140(9) 0.118(10) 1.030(6)
H3 H 0.554(3) 0.117(7) 0.936(7)
H4 H 0.596(4) 0.274(7) 0.813(5)
H5 H -0.179(8) 0.113(8) 0.586(4)
H6 H 0.426(10) -0.017(3) 0.846(7)
H7 H -0.189(9) 0.052(8) 0.668(7)
H8 H 0.471(10) 0.354(8) 1.151(8)
H9 H 0.425(9) 0.473(4) 1.120(7)
H10 H 0.486(6) 0.243(6) 0.664(6)
Nd1 Nd 0.20940(2) 0.20478(2) 0.805453(19)
O1 O 0.1322(4) 0.2131(3) 0.5739(3)
O2 O -0.1270(4) 0.0838(3) 0.3656(3)
O3 O -0.1584(4) 0.5382(3) 0.0926(3)
O4 O 0.4386(4) 0.3815(4) 1.0749(3)
O5 O 0.4908(4) 0.2747(4) 0.7605(4)
O6 O 0.4405(4) 0.0802(4) 0.9034(4)
O7 O -0.1277(4) 0.1246(4) 0.6746(3)
O8 O 0.0757(4) 0.1279(4) 0.9547(4)
N1 N 0.5231(5) 0.7243(4) 0.7157(4)
N2 N 0.6641(5) 0.8514(4) 0.7725(4)
N3 N 0.6516(5) 0.8890(4) 0.6663(4)
N4 N 0.5035(5) 0.7883(4) 0.5357(4)
C1 C 0.4287(5) 0.6888(4) 0.5712(4)
C2 C 0.2633(5) 0.5555(4) 0.4649(4)
C3 C 0.1471(5) 0.5456(4) 0.3302(4)
H11 H 0.1738 0.6231 0.3058
C4 C -0.0100(5) 0.4187(4) 0.2319(4)
C5 C -0.0505(5) 0.3020(5) 0.2676(4)
H12 H -0.1530 0.2159 0.1999
C6 C 0.0617(5) 0.3139(4) 0.4040(4)
C7 C 0.2183(5) 0.4418(4) 0.5030(4)
H13 H 0.2931 0.4509 0.5951
C8 C 0.0200(5) 0.1956(4) 0.4508(4)
C9 C -0.1395(5) 0.4098(5) 0.0877(4)
O9 O -0.2205(4) 0.2740(3) -0.0289(3)
Nd1A Nd -0.20940(2) -0.20478(2) 0.194547(19)
Nd1A_2 Nd -0.20940(2) 0.79522(2) 0.194547(19)
O2A O 0.1270(4) -0.0838(3) 0.6344(3)
O3A O 0.1584(4) 0.4618(3) 0.9074(3)
loop_
_geom_bond_atom_site_label_1
_geom_bond_atom_site_label_2
_geom_bond_site_symmetry_1
_geom_bond_site_symmetry_2
H1 O8 1_555 1_555
H2 O8 1_555 1_555
H3 O6 1_555 1_555
H4 O5 1_555 1_555
H5 O7 1_555 1_555
H6 O6 1_555 1_555
H7 O7 1_555 1_555
H8 O4 1_555 1_555
H9 O4 1_555 1_555
H10 O5 1_555 1_555
Nd1 O1 1_555 1_555
O1 C8 1_555 1_555
O2 C8 1_555 1_555
O3 C9 1_555 1_555
O4 Nd1 1_555 1_555
O5 Nd1 1_555 1_555
O6 Nd1 1_555 1_555
O7 Nd1 1_555 1_555
O8 Nd1 1_555 1_555
N1 N2 1_555 1_555
N2 N3 1_555 1_555
N3 N4 1_555 1_555
N4 C1 1_555 1_555
C1 N1 1_555 1_555
C2 C1 1_555 1_555
C3 C2 1_555 1_555
H11 C3 1_555 1_555
C4 C3 1_555 1_555
C5 C4 1_555 1_555
H12 C5 1_555 1_555
C6 C5 1_555 1_555
C7 C2 1_555 1_555
H13 C7 1_555 1_555
C8 C6 1_555 1_555
C9 C4 1_555 1_555
O9 C9 1_555 1_555
Nd1A O2 1_555 1_555
Nd1A_2 O3 1_555 1_555
O2A Nd1 1_555 1_555
O3A Nd1 1_555 1_555
C6 C7 1_555 1_555

#END
