
#######################################################################
#
#                 Cambridge Crystallographic Data Centre
#                                CCDC 
#
#######################################################################
#
# If this CIF has been generated from an entry in the Cambridge 
# Structural Database, then it will include bibliographic, chemical, 
# crystal, experimental, refinement or atomic coordinate data resulting 
# from the CCDC's data processing and validation procedures.
#
#######################################################################

data_ROMNAK
_symmetry_cell_setting           triclinic
_symmetry_space_group_name_H-M   'P -1'
_symmetry_Int_Tables_number      2
_space_group_name_Hall           '-P 1'
loop_
_symmetry_equiv_pos_site_id
_symmetry_equiv_pos_as_xyz
1 x,y,z
2 -x,-y,-z
_cell_length_a                   7.9698(4)
_cell_length_b                   9.7137(5)
_cell_length_c                   10.3770(5)
_cell_angle_alpha                116.8630(10)
_cell_angle_beta                 107.2860(10)
_cell_angle_gamma                95.6960(10)
_cell_volume                     658.073
loop_
_atom_site_label
_atom_site_type_symbol
_atom_site_fract_x
_atom_site_fract_y
_atom_site_fract_z
C1 C 0.1479(4) 0.5469(4) -0.1701(4)
Tb1 Tb 0.207600(19) 0.203611(17) 0.303901(16)
O1 O 0.1352(3) 0.2122(3) 0.0762(3)
O2 O -0.1261(3) 0.0810(3) -0.1321(3)
O3 O -0.2236(3) 0.2754(3) -0.5291(3)
O4 O -0.1620(4) 0.5432(3) -0.4029(3)
O5 O 0.4825(4) 0.2747(4) 0.2631(4)
O6 O -0.1196(4) 0.1279(3) 0.1785(3)
O7 O 0.4271(4) 0.0752(4) 0.3967(4)
O8 O 0.4325(4) 0.3762(4) 0.5671(3)
N1 N 0.5260(4) 0.7273(4) 0.2195(3)
N2 N 0.6674(4) 0.8545(4) 0.2770(4)
N3 N 0.6551(4) 0.8933(4) 0.1698(4)
N4 N 0.5074(4) 0.7914(4) 0.0379(3)
O9 O 0.0772(5) 0.1305(4) 0.4505(4)
C2 C 0.0217(4) 0.1938(4) -0.0468(4)
C3 C 0.0647(4) 0.3143(4) -0.0942(4)
C4 C 0.2205(4) 0.4417(4) 0.0041(4)
C5 C -0.0102(4) 0.4199(4) -0.2679(4)
C6 C -0.1406(4) 0.4133(4) -0.4103(4)
C7 C 0.4316(4) 0.6911(4) 0.0735(4)
C8 C 0.2666(4) 0.5569(4) -0.0336(4)
C9 C -0.0501(5) 0.3009(4) -0.2324(4)
H1 H -0.176(6) 0.061(6) 0.183(5)
H2 H -0.149(6) 0.117(6) 0.107(6)
H3 H 0.571(8) 0.273(6) 0.313(7)
H4 H 0.482(6) 0.244(6) 0.185(6)
H5 H 0.433(9) 0.458(8) 0.607(8)
H6 H -0.011(8) 0.152(7) 0.466(6)
H7 H 0.458(8) 0.358(8) 0.647(8)
H8 H 0.135(8) 0.126(7) 0.504(7)
H9 H -0.159(5) 0.218(5) -0.298(4)
H10 H 0.175(5) 0.629(5) -0.195(4)
H11 H 0.297(6) 0.443(5) 0.089(5)
H12 H 0.527(11) 0.115(10) 0.437(9)
H13 H 0.407(8) -0.025(9) 0.323(8)
Tb1A Tb -0.207600(19) -0.203611(17) -0.303901(16)
Tb1A_2 Tb -0.207600(19) 0.796389(17) -0.303901(16)
O2A O 0.1261(3) -0.0810(3) 0.1321(3)
O4A O 0.1620(4) 0.4568(3) 0.4029(3)
loop_
_geom_bond_atom_site_label_1
_geom_bond_atom_site_label_2
_geom_bond_site_symmetry_1
_geom_bond_site_symmetry_2
C1 C5 1_555 1_555
Tb1 O1 1_555 1_555
O1 C2 1_555 1_555
O2 C2 1_555 1_555
O3 C6 1_555 1_555
O4 C6 1_555 1_555
O5 Tb1 1_555 1_555
O6 Tb1 1_555 1_555
O7 Tb1 1_555 1_555
O8 Tb1 1_555 1_555
N1 N2 1_555 1_555
N2 N3 1_555 1_555
N3 N4 1_555 1_555
N4 C7 1_555 1_555
O9 Tb1 1_555 1_555
C2 C3 1_555 1_555
C3 C4 1_555 1_555
C4 C8 1_555 1_555
C5 C6 1_555 1_555
C7 N1 1_555 1_555
C8 C1 1_555 1_555
C9 C3 1_555 1_555
H1 O6 1_555 1_555
H2 O6 1_555 1_555
H3 O5 1_555 1_555
H4 O5 1_555 1_555
H5 O8 1_555 1_555
H6 O9 1_555 1_555
H7 O8 1_555 1_555
H8 O9 1_555 1_555
H9 C9 1_555 1_555
H10 C1 1_555 1_555
H11 C4 1_555 1_555
H12 O7 1_555 1_555
H13 O7 1_555 1_555
Tb1A O2 1_555 1_555
Tb1A_2 O4 1_555 1_555
O2A Tb1 1_555 1_555
O4A Tb1 1_555 1_555
C5 C9 1_555 1_555
C7 C8 1_555 1_555

#END
