
#######################################################################
#
#                 Cambridge Crystallographic Data Centre
#                                CCDC 
#
#######################################################################
#
# If this CIF has been generated from an entry in the Cambridge 
# Structural Database, then it will include bibliographic, chemical, 
# crystal, experimental, refinement or atomic coordinate data resulting 
# from the CCDC's data processing and validation procedures.
#
#######################################################################

data_ROMRUH01
_symmetry_cell_setting           monoclinic
_symmetry_space_group_name_H-M   'P 21/c'
_symmetry_Int_Tables_number      14
_space_group_name_Hall           '-P 2ybc'
loop_
_symmetry_equiv_pos_site_id
_symmetry_equiv_pos_as_xyz
1 x,y,z
2 -x,1/2+y,1/2-z
3 -x,-y,-z
4 x,1/2-y,1/2+z
_cell_length_a                   8.795(5)
_cell_length_b                   9.031(5)
_cell_length_c                   12.909(7)
_cell_angle_alpha                90
_cell_angle_beta                 97.180(10)
_cell_angle_gamma                90
_cell_volume                     1017.29
loop_
_atom_site_label
_atom_site_type_symbol
_atom_site_fract_x
_atom_site_fract_y
_atom_site_fract_z
Co1 Co 0.59208(3) 0.64162(3) 0.03720(2)
O1 O 0.6144(3) 0.7361(2) 0.18151(15)
H1 H 0.649(5) 0.813(5) 0.190(3)
H2 H 0.529(5) 0.733(5) 0.217(3)
O2 O 1.2883(2) 0.99449(19) -0.24818(16)
O3 O 0.5244(2) 0.5381(2) -0.11602(14)
H3 H 0.470(4) 0.586(4) -0.142(3)
H4 H 0.585(4) 0.516(3) -0.161(3)
O4 O 1.3364(2) 0.75453(18) -0.22751(14)
N1 N 0.7088(2) 0.8113(2) -0.03461(17)
N2 N 0.7341(2) 1.0042(2) -0.13879(18)
H5 H 0.714(4) 1.083(4) -0.173(3)
C1 C 0.6422(3) 0.9283(3) -0.0821(2)
H6 H 0.541(3) 0.951(3) -0.079(2)
C2 C 0.8571(3) 0.8115(3) -0.06242(19)
C3 C 0.8726(3) 0.9311(3) -0.12990(19)
C4 C 1.0050(3) 0.9548(3) -0.1767(2)
H7 H 1.002(4) 1.020(4) -0.230(3)
C5 C 1.1260(3) 0.8582(2) -0.1514(2)
C6 C 1.1153(3) 0.7435(2) -0.07708(19)
C7 C 0.9810(3) 0.7178(3) -0.0339(2)
H8 H 0.980(4) 0.641(3) 0.019(2)
C8 C 1.2612(3) 0.8693(2) -0.2118(2)
C9 C 1.2538(3) 0.6521(2) -0.03954(19)
O5 O 1.23968(19) 0.51365(19) -0.04920(15)
O6 O 1.37162(18) 0.72068(18) 0.00000(14)
Co1B Co 0.40792(3) 0.35838(3) -0.03720(2)
Co1B_2 Co 1.40792(3) 0.35838(3) -0.03720(2)
Co1_2 Co 1.59208(3) 0.64162(3) 0.03720(2)
O3B O 0.4756(2) 0.4619(2) 0.11602(14)
H3B H 0.530(4) 0.414(4) 0.142(3)
H4B H 0.415(4) 0.484(3) 0.161(3)
O5B O 0.76032(19) 0.48635(19) 0.04920(15)
O6_2 O 0.37162(18) 0.72068(18) 0.00000(14)
loop_
_geom_bond_atom_site_label_1
_geom_bond_atom_site_label_2
_geom_bond_site_symmetry_1
_geom_bond_site_symmetry_2
Co1 O1 1_555 1_555
O1 H1 1_555 1_555
H2 O1 1_555 1_555
O2 C8 1_555 1_555
O3 Co1 1_555 1_555
H3 O3 1_555 1_555
H4 O3 1_555 1_555
O4 C8 1_555 1_555
N1 Co1 1_555 1_555
N2 H5 1_555 1_555
C1 N1 1_555 1_555
H6 C1 1_555 1_555
C2 N1 1_555 1_555
C3 N2 1_555 1_555
C4 C3 1_555 1_555
H7 C4 1_555 1_555
C5 C4 1_555 1_555
C6 C5 1_555 1_555
C7 C2 1_555 1_555
H8 C7 1_555 1_555
C8 C5 1_555 1_555
C9 C6 1_555 1_555
O5 C9 1_555 1_555
O6 C9 1_555 1_555
Co1B O3 1_555 1_555
Co1B_2 O5 1_555 1_555
Co1_2 O6 1_555 1_555
O3B Co1 1_555 1_555
H3B O3B 1_555 1_555
H4B O3B 1_555 1_555
O5B Co1 1_555 1_555
O6_2 Co1 1_555 1_555
N2 C1 1_555 1_555
C2 C3 1_555 1_555
C6 C7 1_555 1_555
Co1B O3B 1_555 1_555

#END
