
#######################################################################
#
#                 Cambridge Crystallographic Data Centre
#                                CCDC 
#
#######################################################################
#
# If this CIF has been generated from an entry in the Cambridge 
# Structural Database, then it will include bibliographic, chemical, 
# crystal, experimental, refinement or atomic coordinate data resulting 
# from the CCDC's data processing and validation procedures.
#
#######################################################################

data_ROMRUH
_symmetry_cell_setting           monoclinic
_symmetry_space_group_name_H-M   'P 21/c'
_symmetry_Int_Tables_number      14
_space_group_name_Hall           '-P 2ybc'
loop_
_symmetry_equiv_pos_site_id
_symmetry_equiv_pos_as_xyz
1 x,y,z
2 -x,1/2+y,1/2-z
3 -x,-y,-z
4 x,1/2-y,1/2+z
_cell_length_a                   8.8161(8)
_cell_length_b                   9.1092(6)
_cell_length_c                   13.0236(13)
_cell_angle_alpha                90
_cell_angle_beta                 97.693(7)
_cell_angle_gamma                90
_cell_volume                     1036.48
loop_
_atom_site_label
_atom_site_type_symbol
_atom_site_fract_x
_atom_site_fract_y
_atom_site_fract_z
Co1 Co -0.59190(3) 0.14143(3) -0.03697(2)
O1 O -0.37137(17) 0.22091(18) 0.00054(13)
O2 O -0.23959(18) 0.01355(18) 0.04928(13)
O3 O -0.33680(18) 0.25466(18) 0.22762(12)
O4 O -0.2887(2) 0.49433(19) 0.24802(15)
O5 O -0.47578(18) -0.03826(19) -0.11583(12)
H1 H -0.537(3) -0.098(3) -0.143(2)
H2 H -0.414(3) -0.017(3) -0.1548(19)
O6 O -0.6142(2) 0.2363(2) -0.18070(14)
H3 H -0.539(3) 0.228(3) -0.213(2)
H4 H -0.655(3) 0.315(3) -0.193(3)
N1 N 0.2913(2) 0.3115(2) 0.03501(15)
N2 N 0.2660(2) 0.5038(2) 0.13927(16)
H5 H 0.286(3) 0.584(2) 0.170(2)
C1 C 0.3576(2) 0.4279(3) 0.08205(18)
H6 H 0.4578 0.4553 0.0765
C2 C 0.1427(2) 0.3117(3) 0.06301(18)
C3 C 0.0189(2) 0.2181(3) 0.03410(18)
H7 H 0.0255 0.1415 -0.0122
C4 C -0.1153(2) 0.2441(3) 0.07752(17)
C5 C -0.1259(3) 0.3586(2) 0.15138(18)
C6 C -0.0048(3) 0.4545(3) 0.17708(18)
H8 H -0.0106 0.5312 0.2235
C7 C 0.1273(2) 0.4306(3) 0.12990(18)
C8 C -0.2535(3) 0.1518(3) 0.03986(17)
C9 C -0.2611(3) 0.3696(3) 0.21238(18)
Co1B Co -0.40810(3) -0.14143(3) 0.03697(2)
Co1_2 Co 0.40810(3) 0.14143(3) -0.03697(2)
O2B O -0.76041(18) -0.01355(18) -0.04928(13)
O5B O -0.52422(18) 0.03826(19) 0.11583(12)
H1B H -0.463(3) 0.098(3) 0.143(2)
H2B H -0.586(3) 0.017(3) 0.1548(19)
N1_2 N -0.7087(2) 0.3115(2) 0.03501(15)
loop_
_geom_bond_atom_site_label_1
_geom_bond_atom_site_label_2
_geom_bond_site_symmetry_1
_geom_bond_site_symmetry_2
Co1 O1 1_555 1_555
O1 C8 1_555 1_555
O2 C8 1_555 1_555
O3 C9 1_555 1_555
O4 C9 1_555 1_555
O5 Co1 1_555 1_555
H1 O5 1_555 1_555
H2 O5 1_555 1_555
O6 Co1 1_555 1_555
H3 O6 1_555 1_555
H4 O6 1_555 1_555
N1 C1 1_555 1_555
N2 H5 1_555 1_555
C1 N2 1_555 1_555
H6 C1 1_555 1_555
C2 N1 1_555 1_555
C3 C2 1_555 1_555
H7 C3 1_555 1_555
C4 C3 1_555 1_555
C5 C4 1_555 1_555
C6 C5 1_555 1_555
H8 C6 1_555 1_555
C7 N2 1_555 1_555
C8 C4 1_555 1_555
C9 C5 1_555 1_555
Co1B O2 1_555 1_555
Co1_2 N1 1_555 1_555
O2B Co1 1_555 1_555
O5B Co1 1_555 1_555
H1B O5B 1_555 1_555
H2B O5B 1_555 1_555
N1_2 Co1 1_555 1_555
O5 Co1B 1_555 1_555
C2 C7 1_555 1_555
C6 C7 1_555 1_555
Co1B O5B 1_555 1_555

#END
