
#######################################################################
#
#                 Cambridge Crystallographic Data Centre
#                                CCDC 
#
#######################################################################
#
# If this CIF has been generated from an entry in the Cambridge 
# Structural Database, then it will include bibliographic, chemical, 
# crystal, experimental, refinement or atomic coordinate data resulting 
# from the CCDC's data processing and validation procedures.
#
#######################################################################

data_ROMRAN
_symmetry_cell_setting           monoclinic
_symmetry_space_group_name_H-M   'P 21/c'
_symmetry_Int_Tables_number      14
_space_group_name_Hall           '-P 2ybc'
loop_
_symmetry_equiv_pos_site_id
_symmetry_equiv_pos_as_xyz
1 x,y,z
2 -x,1/2+y,1/2-z
3 -x,-y,-z
4 x,1/2-y,1/2+z
_cell_length_a                   12.561(4)
_cell_length_b                   20.660(6)
_cell_length_c                   10.571(3)
_cell_angle_alpha                90
_cell_angle_beta                 112.992(5)
_cell_angle_gamma                90
_cell_volume                     2525.35
loop_
_atom_site_label
_atom_site_type_symbol
_atom_site_fract_x
_atom_site_fract_y
_atom_site_fract_z
Co1 Co 0.5000 0.5000 0.5000
C1 C 0.5771(3) 0.63200(14) 0.0064(3)
C2 C 0.6792(3) 0.59663(13) 0.0400(3)
C3 C 0.7690(3) 0.62161(14) 0.0126(3)
H1 H 0.8360 0.5971 0.0346
C4 C 0.7636(3) 0.68276(14) -0.0472(3)
C5 C 0.6623(3) 0.71650(14) -0.0770(3)
H2 H 0.6563 0.7574 -0.1159
C6 C 0.5691(3) 0.69320(13) -0.0527(3)
C7 C 0.8633(3) 0.70619(16) -0.0836(4)
C8 C 0.9756(3) 0.7049(2) 0.0444(5)
H3 H 1.0379 0.7204 0.0216
H4 H 0.9678 0.7322 0.1138
H5 H 0.9916 0.6614 0.0783
C9 C 0.8743(5) 0.6615(2) -0.1925(5)
H6 H 0.8033 0.6619 -0.2725
H7 H 0.9363 0.6761 -0.2168
H8 H 0.8902 0.6182 -0.1568
C10 C 0.8440(4) 0.77511(18) -0.1395(5)
H9 H 0.7729 0.7771 -0.2194
H10 H 0.8397 0.8040 -0.0705
H11 H 0.9070 0.7877 -0.1640
C11 C 0.6889(3) 0.52956(14) 0.1015(3)
H12 H 0.7630 0.5111 0.1125
H13 H 0.6290 0.5023 0.0379
C12 C 0.5946(3) 0.50576(14) 0.2654(3)
H14 H 0.5296 0.4849 0.2034
C13 C 0.7154(3) 0.54694(17) 0.4391(4)
H15 H 0.7526 0.5609 0.5294
C14 C 0.4596(3) 0.73245(13) -0.0998(3)
H16 H 0.4007 0.7087 -0.0811
H17 H 0.4318 0.7393 -0.1982
C15 C 0.4614(3) 0.85400(13) -0.0827(3)
H18 H 0.4319 0.8634 -0.1761
C16 C 0.5281(3) 0.86076(14) 0.1298(3)
H19 H 0.5557 0.8783 0.2178
C17 C 0.2724(3) 0.51848(14) 0.2245(4)
N1 N 0.6785(2) 0.52866(11) 0.2339(3)
N2 N 0.7593(3) 0.55634(14) 0.3470(3)
N3 N 0.6134(2) 0.51584(11) 0.3952(3)
N4 N 0.4785(2) 0.79507(10) -0.0301(2)
N5 N 0.5213(3) 0.79818(11) 0.1081(3)
N6 N 0.4925(2) 0.89769(11) 0.0167(3)
N7 N 0.3582(3) 0.50307(12) 0.3096(3)
O1 O 0.4893(2) 0.60247(10) 0.0304(3)
H27 H 0.4390 0.6291 0.0237
S1 S 0.14960(9) 0.54051(5) 0.10273(12)
Co1C Co 0.5000 1.0000 0.0000
Co1C_2 Co 0.5000 1.0000 1.0000
C1C C 0.5771(3) 0.86800(14) 0.5064(3)
C2C C 0.6792(3) 0.90337(13) 0.5400(3)
C3C C 0.7690(3) 0.87839(14) 0.5126(3)
H1C H 0.8360 0.9029 0.5346
C4C C 0.7636(3) 0.81724(14) 0.4528(3)
C5C C 0.6623(3) 0.78350(14) 0.4230(3)
H2C H 0.6563 0.7426 0.3841
C6C C 0.5691(3) 0.80680(13) 0.4473(3)
C7C C 0.8633(3) 0.79381(16) 0.4164(4)
C8C C 0.9756(3) 0.7951(2) 0.5444(5)
H3C H 1.0379 0.7796 0.5216
H4C H 0.9678 0.7678 0.6138
H5C H 0.9916 0.8386 0.5783
C9C C 0.8743(5) 0.8385(2) 0.3075(5)
H6C H 0.8033 0.8381 0.2275
H7C H 0.9363 0.8239 0.2832
H8C H 0.8902 0.8818 0.3432
C10C C 0.8440(4) 0.72489(18) 0.3605(5)
H9C H 0.7729 0.7229 0.2806
H10C H 0.8397 0.6960 0.4295
H11C H 0.9070 0.7123 0.3360
C11C C 0.6889(3) 0.97044(14) 0.6015(3)
H12C H 0.7630 0.9889 0.6125
H13C H 0.6290 0.9977 0.5379
C12C C 0.5946(3) 0.99424(14) 0.7654(3)
H14C H 0.5296 1.0151 0.7034
C13C C 0.7154(3) 0.95306(17) 0.9391(4)
H15C H 0.7526 0.9391 1.0294
C14C C 0.4596(3) 0.76755(13) 0.4002(3)
H16C H 0.4007 0.7913 0.4189
H17C H 0.4318 0.7607 0.3018
C15C C 0.4614(3) 0.64600(13) 0.4173(3)
H18C H 0.4319 0.6366 0.3239
C16C C 0.5281(3) 0.63924(14) 0.6298(3)
H19C H 0.5557 0.6217 0.7178
C17B C 0.7276(3) 0.48152(14) 0.7755(4)
N1C N 0.6785(2) 0.97134(11) 0.7339(3)
N2C N 0.7593(3) 0.94366(14) 0.8470(3)
N3C N 0.6134(2) 0.98416(11) 0.8952(3)
N3B N 0.3866(2) 0.48416(11) 0.6048(3)
N4C N 0.4785(2) 0.70493(10) 0.4699(2)
N5C N 0.5213(3) 0.70182(11) 0.6081(3)
N6C N 0.4925(2) 0.60231(11) 0.5167(3)
N6A N 0.5075(2) 0.39769(11) 0.4833(3)
N7B N 0.6418(3) 0.49693(12) 0.6904(3)
O1C O 0.4893(2) 0.89753(10) 0.5304(3)
H27C H 0.4390 0.8709 0.5237
S1B S 0.85040(9) 0.45949(5) 0.89727(12)
C18 C 0.1450(9) 0.6297(5) 0.6463(9)
H20 H 0.2127 0.6063 0.7034
H21 H 0.0774 0.6090 0.6486
H22 H 0.1493 0.6733 0.6795
C19 C 0.0711(6) 0.5834(3) 0.4258(8)
H23 H -0.0069 0.5866 0.4200
H24 H 0.1015 0.5414 0.4597
H25 H 0.0720 0.5897 0.3362
C20 C 0.1849(6) 0.6730(4) 0.4695(12)
H26 H 0.1732 0.6685 0.3775
N8 N 0.1387(4) 0.6307(2) 0.5147(7)
O3 O 0.2404(4) 0.7173(2) 0.5249(8)
O2 O 0.3105(2) 0.83963(13) 0.5642(3)
H28 H 0.2885 0.8004 0.5513
H29 H 0.2559 0.8631 0.5668
loop_
_geom_bond_atom_site_label_1
_geom_bond_atom_site_label_2
_geom_bond_site_symmetry_1
_geom_bond_site_symmetry_2
Co1 N3 1_555 1_555
C1 C2 1_555 1_555
C2 C3 1_555 1_555
C3 H1 1_555 1_555
C4 C3 1_555 1_555
C5 C4 1_555 1_555
H2 C5 1_555 1_555
C6 C1 1_555 1_555
C7 C4 1_555 1_555
C8 C7 1_555 1_555
H3 C8 1_555 1_555
H4 C8 1_555 1_555
H5 C8 1_555 1_555
C9 C7 1_555 1_555
H6 C9 1_555 1_555
H7 C9 1_555 1_555
H8 C9 1_555 1_555
C10 C7 1_555 1_555
H9 C10 1_555 1_555
H10 C10 1_555 1_555
H11 C10 1_555 1_555
C11 C2 1_555 1_555
H12 C11 1_555 1_555
H13 C11 1_555 1_555
C12 H14 1_555 1_555
C13 H15 1_555 1_555
C14 C6 1_555 1_555
H16 C14 1_555 1_555
H17 C14 1_555 1_555
C15 H18 1_555 1_555
C16 H19 1_555 1_555
C17 N7 1_555 1_555
C18 H20 1_555 1_555
H21 C18 1_555 1_555
H22 C18 1_555 1_555
C19 H23 1_555 1_555
H24 C19 1_555 1_555
H25 C19 1_555 1_555
C20 H26 1_555 1_555
N1 C11 1_555 1_555
N2 C13 1_555 1_555
N3 C12 1_555 1_555
N4 C14 1_555 1_555
N5 C16 1_555 1_555
N6 C15 1_555 1_555
N7 Co1 1_555 1_555
N8 C18 1_555 1_555
O1 C1 1_555 1_555
H27 O1 1_555 1_555
O2 H28 1_555 1_555
H29 O2 1_555 1_555
O3 C20 1_555 1_555
S1 C17 1_555 1_555
Co1C N6 1_555 1_555
Co1C_2 N3C 1_555 1_555
C1C C2C 1_555 1_555
C2C C3C 1_555 1_555
C3C H1C 1_555 1_555
C4C C3C 1_555 1_555
C5C C4C 1_555 1_555
H2C C5C 1_555 1_555
C6C C1C 1_555 1_555
C7C C4C 1_555 1_555
C8C C7C 1_555 1_555
H3C C8C 1_555 1_555
H4C C8C 1_555 1_555
H5C C8C 1_555 1_555
C9C C7C 1_555 1_555
H6C C9C 1_555 1_555
H7C C9C 1_555 1_555
H8C C9C 1_555 1_555
C10C C7C 1_555 1_555
H9C C10C 1_555 1_555
H10C C10C 1_555 1_555
H11C C10C 1_555 1_555
C11C C2C 1_555 1_555
H12C C11C 1_555 1_555
H13C C11C 1_555 1_555
C12C H14C 1_555 1_555
C13C H15C 1_555 1_555
C14C C6C 1_555 1_555
H16C C14C 1_555 1_555
H17C C14C 1_555 1_555
C15C H18C 1_555 1_555
C16C H19C 1_555 1_555
C17B N7B 1_555 1_555
N1C C11C 1_555 1_555
N2C C13C 1_555 1_555
N3C C12C 1_555 1_555
N3B Co1 1_555 1_555
N4C C14C 1_555 1_555
N5C C16C 1_555 1_555
N6C Co1 1_555 1_555
N6A Co1 1_555 1_555
N7B Co1 1_555 1_555
O1C C1C 1_555 1_555
H27C O1C 1_555 1_555
S1B C17B 1_555 1_555
C5 C6 1_555 1_555
C12 N1 1_555 1_555
C13 N3 1_555 1_555
C15 N4 1_555 1_555
C16 N6 1_555 1_555
C19 N8 1_555 1_555
C20 N8 1_555 1_555
N1 N2 1_555 1_555
N4 N5 1_555 1_555
C5C C6C 1_555 1_555
C12C N1C 1_555 1_555
C13C N3C 1_555 1_555
C15C N4C 1_555 1_555
C15C N6C 1_555 1_555
C16C N6C 1_555 1_555
N1C N2C 1_555 1_555
N4C N5C 1_555 1_555

#END
