
#######################################################################
#
#                 Cambridge Crystallographic Data Centre
#                                CCDC 
#
#######################################################################
#
# If this CIF has been generated from an entry in the Cambridge 
# Structural Database, then it will include bibliographic, chemical, 
# crystal, experimental, refinement or atomic coordinate data resulting 
# from the CCDC's data processing and validation procedures.
#
#######################################################################

data_ROMRUH02
_symmetry_cell_setting           monoclinic
_symmetry_space_group_name_H-M   'P 21/c'
_symmetry_Int_Tables_number      14
_space_group_name_Hall           '-P 2ybc'
loop_
_symmetry_equiv_pos_site_id
_symmetry_equiv_pos_as_xyz
1 x,y,z
2 -x,1/2+y,1/2-z
3 -x,-y,-z
4 x,1/2-y,1/2+z
_cell_length_a                   8.791(2)
_cell_length_b                   9.031(2)
_cell_length_c                   12.908(3)
_cell_angle_alpha                90
_cell_angle_beta                 97.195(3)
_cell_angle_gamma                90
_cell_volume                     1016.72
loop_
_atom_site_label
_atom_site_type_symbol
_atom_site_fract_x
_atom_site_fract_y
_atom_site_fract_z
Co1 Co 0.59205(4) 0.14172(4) 1.03724(3)
N1 N 0.7087(3) 0.3114(3) 0.96536(19)
N2 N 0.7343(3) 0.5039(3) 0.8613(2)
H1 H 0.7108 0.5832 0.8260
O1 O 0.6142(3) 0.2373(2) 1.18105(16)
H2 H 0.5350 0.2553 1.2105
H3 H 0.7027 0.2592 1.2116
O2 O 0.5243(2) 0.0392(2) 0.88380(15)
H4 H 0.5517 0.0781 0.8291
H5 H 0.4707 -0.0394 0.8792
O3 O 1.2394(2) 0.0134(2) 0.95069(16)
O4 O 1.3717(2) 0.2207(2) 1.00000(15)
O5 O 1.3368(2) 0.2542(2) 0.77253(15)
O6 O 1.2878(3) 0.4944(2) 0.75187(18)
C1 C 0.6428(3) 0.4280(3) 0.9182(2)
H6 H 0.5421 0.4555 0.9237
C2 C 0.8572(3) 0.3114(3) 0.9376(2)
C3 C 0.9818(3) 0.2179(3) 0.9660(2)
H7 H 0.9750 0.1407 1.0129
C4 C 1.1153(3) 0.2429(3) 0.9229(2)
C5 C 1.1259(3) 0.3582(3) 0.8489(2)
C6 C 1.0049(3) 0.4545(3) 0.8235(2)
H8 H 1.0116 0.5322 0.7769
C7 C 0.8726(3) 0.4307(3) 0.8703(2)
C8 C 1.2536(3) 0.1517(3) 0.9604(2)
C9 C 1.2616(3) 0.3694(3) 0.7881(2)
Co1B Co 0.40795(4) -0.14172(4) 0.96276(3)
Co1B_2 Co 1.40795(4) -0.14172(4) 0.96276(3)
Co1_2 Co 1.59205(4) 0.14172(4) 1.03724(3)
O2B O 0.4757(2) -0.0392(2) 1.11620(15)
H4B H 0.4483 -0.0781 1.1709
H5B H 0.5293 0.0394 1.1208
O3B O 0.7606(2) -0.0134(2) 1.04931(16)
O4_2 O 0.3717(2) 0.2207(2) 1.00000(15)
loop_
_geom_bond_atom_site_label_1
_geom_bond_atom_site_label_2
_geom_bond_site_symmetry_1
_geom_bond_site_symmetry_2
Co1 N1 1_555 1_555
N1 C1 1_555 1_555
N2 H1 1_555 1_555
O1 Co1 1_555 1_555
H2 O1 1_555 1_555
H3 O1 1_555 1_555
O2 Co1 1_555 1_555
H4 O2 1_555 1_555
H5 O2 1_555 1_555
O3 C8 1_555 1_555
O4 C8 1_555 1_555
O5 C9 1_555 1_555
O6 C9 1_555 1_555
C1 N2 1_555 1_555
H6 C1 1_555 1_555
C2 N1 1_555 1_555
C3 C2 1_555 1_555
H7 C3 1_555 1_555
C4 C3 1_555 1_555
C5 C4 1_555 1_555
C6 C5 1_555 1_555
H8 C6 1_555 1_555
C7 N2 1_555 1_555
C8 C4 1_555 1_555
C9 C5 1_555 1_555
Co1B O2 1_555 1_555
Co1B_2 O3 1_555 1_555
Co1_2 O4 1_555 1_555
O2B Co1 1_555 1_555
H4B O2B 1_555 1_555
H5B O2B 1_555 1_555
O3B Co1 1_555 1_555
O4_2 Co1 1_555 1_555
C2 C7 1_555 1_555
C6 C7 1_555 1_555
Co1B O2B 1_555 1_555

#END
