
#######################################################################
#
#                 Cambridge Crystallographic Data Centre
#                                CCDC 
#
#######################################################################
#
# If this CIF has been generated from an entry in the Cambridge 
# Structural Database, then it will include bibliographic, chemical, 
# crystal, experimental, refinement or atomic coordinate data resulting 
# from the CCDC's data processing and validation procedures.
#
#######################################################################

data_ROMSAO
_symmetry_cell_setting           monoclinic
_symmetry_space_group_name_H-M   'P 21/c'
_symmetry_Int_Tables_number      14
_space_group_name_Hall           '-P 2ybc'
loop_
_symmetry_equiv_pos_site_id
_symmetry_equiv_pos_as_xyz
1 x,y,z
2 -x,1/2+y,1/2-z
3 -x,-y,-z
4 x,1/2-y,1/2+z
_cell_length_a                   18.2560(10)
_cell_length_b                   16.2855(9)
_cell_length_c                   8.2765(4)
_cell_angle_alpha                90
_cell_angle_beta                 100.042(7)
_cell_angle_gamma                90
_cell_volume                     2422.97
loop_
_atom_site_label
_atom_site_type_symbol
_atom_site_fract_x
_atom_site_fract_y
_atom_site_fract_z
Fe1 Fe 0.26416(3) 0.48712(3) 0.61108(6)
Fe2 Fe 0.0000 0.5000 1.0000
N1 N 0.26059(19) 0.5829(2) 0.7749(4)
C1 C 0.2859(2) 0.6276(2) 0.8790(5)
S1 S 0.32547(8) 0.68848(8) 1.02316(17)
N2 N 0.26521(18) 0.3912(2) 0.4439(4)
C2 C 0.26229(19) 0.3726(2) 0.3063(5)
S2 S 0.25824(6) 0.35068(7) 0.11413(12)
N3 N 0.00127(18) 0.5933(2) 0.8299(4)
C3 C 0.0140(2) 0.6208(2) 0.7072(5)
S3 S 0.03129(7) 0.65765(7) 0.53635(14)
N4 N 0.17147(16) 0.42202(19) 0.7062(4)
N5 N 0.07898(17) 0.42630(19) 0.8767(4)
C4 C 0.12769(19) 0.4614(2) 0.7952(4)
H1 H 0.1317 0.5195 0.8008
C5 C 0.0754(2) 0.3440(2) 0.8720(5)
H2 H 0.0432 0.3166 0.9330
C6 C 0.1170(2) 0.2978(2) 0.7813(5)
H3 H 0.1133 0.2397 0.7768
C7 C 0.1643(2) 0.3399(2) 0.6977(5)
H4 H 0.1927 0.3099 0.6320
N6 N 0.36347(17) 0.5483(2) 0.5208(4)
N7 N 0.4695(2) 0.6360(2) 0.5800(5)
C8 C 0.4082(2) 0.6011(3) 0.6157(5)
H5 H 0.3949 0.6149 0.7183
C9 C 0.4872(2) 0.6144(3) 0.4348(6)
H6 H 0.5309 0.6369 0.4048
C10 C 0.4452(3) 0.5618(3) 0.3286(6)
H7 H 0.4584 0.5482 0.2258
C11 C 0.3827(2) 0.5293(3) 0.3769(5)
H8 H 0.3525 0.4923 0.3056
N8 N 0.34829(17) 0.4171(2) 0.7928(4)
N9 N 0.4465(2) 0.4159(2) 1.0257(5)
C12 C 0.3925(2) 0.4525(3) 0.9200(5)
H9 H 0.3847 0.5093 0.9370
C13 C 0.4557(2) 0.3357(3) 1.0026(5)
H10 H 0.4936 0.3074 1.0746
C14 C 0.4125(2) 0.2927(3) 0.8790(5)
H11 H 0.4191 0.2354 0.8658
C15 C 0.3587(2) 0.3362(2) 0.7736(5)
H12 H 0.3284 0.3080 0.6859
N10 N 0.19048(17) 0.5567(2) 1.4101(4)
N11 N 0.09789(17) 0.56059(19) 1.1687(4)
C16 C 0.1369(2) 0.5230(2) 1.2998(5)
H13 H 0.1253 0.4670 1.3159
C17 C 0.1156(2) 0.6395(2) 1.1491(5)
H14 H 0.0906 0.6684 1.0558
C18 C 0.1689(2) 0.6805(3) 1.2591(6)
H15 H 0.1799 0.7368 1.2448
C19 C 0.2051(2) 0.6362(2) 1.3899(5)
H16 H 0.2417 0.6627 1.4684
Fe1B Fe -0.26416(3) 0.51288(3) 1.38892(6)
Fe1_2 Fe 0.26416(3) 0.48712(3) 1.61108(6)
Fe1B_2 Fe -0.26416(3) 0.51288(3) 0.38892(6)
N1B N -0.26059(19) 0.4171(2) 1.2251(4)
C1B C -0.2859(2) 0.3724(2) 1.1210(5)
S1B S -0.32547(8) 0.31152(8) 0.97684(17)
N2B N -0.26521(18) 0.6088(2) 1.5561(4)
C2B C -0.26229(19) 0.6274(2) 1.6937(5)
S2B S -0.25824(6) 0.64932(7) 1.88587(12)
N3B N -0.00127(18) 0.4067(2) 1.1701(4)
C3B C -0.0140(2) 0.3792(2) 1.2928(5)
S3B S -0.03129(7) 0.34235(7) 1.46365(14)
N4B N -0.17147(16) 0.57798(19) 1.2938(4)
N5B N -0.07898(17) 0.57370(19) 1.1233(4)
C4B C -0.12769(19) 0.5386(2) 1.2048(4)
H1B H -0.1317 0.4805 1.1992
C5B C -0.0754(2) 0.6560(2) 1.1280(5)
H2B H -0.0432 0.6834 1.0670
C6B C -0.1170(2) 0.7022(2) 1.2187(5)
H3B H -0.1133 0.7603 1.2232
C7B C -0.1643(2) 0.6601(2) 1.3023(5)
H4B H -0.1927 0.6901 1.3680
N6B N -0.36347(17) 0.4517(2) 1.4792(4)
N7B N -0.4695(2) 0.3640(2) 1.4200(5)
C8B C -0.4082(2) 0.3989(3) 1.3843(5)
H5B H -0.3949 0.3851 1.2817
C9B C -0.4872(2) 0.3856(3) 1.5652(6)
H6B H -0.5309 0.3631 1.5952
C10B C -0.4452(3) 0.4382(3) 1.6714(6)
H7B H -0.4584 0.4518 1.7742
C11B C -0.3827(2) 0.4707(3) 1.6231(5)
H8B H -0.3525 0.5077 1.6944
N8B N -0.34829(17) 0.5829(2) 1.2072(4)
N9B N -0.4465(2) 0.5841(2) 0.9743(5)
C12B C -0.3925(2) 0.5475(3) 1.0800(5)
H9B H -0.3847 0.4907 1.0630
C13B C -0.4557(2) 0.6643(3) 0.9974(5)
H10B H -0.4936 0.6926 0.9254
C14B C -0.4125(2) 0.7073(3) 1.1210(5)
H11B H -0.4191 0.7646 1.1342
C15B C -0.3587(2) 0.6638(2) 1.2264(5)
H12B H -0.3284 0.6920 1.3141
N10B N -0.19048(17) 0.4433(2) 0.5899(4)
N10_2 N 0.19048(17) 0.5567(2) 0.4101(4)
N10B_2 N -0.19048(17) 0.4433(2) 1.5899(4)
N11B N -0.09789(17) 0.43941(19) 0.8313(4)
C16B C -0.1369(2) 0.4770(2) 0.7002(5)
H13B H -0.1253 0.5330 0.6841
C17B C -0.1156(2) 0.3605(2) 0.8509(5)
H14B H -0.0906 0.3316 0.9442
C18B C -0.1689(2) 0.3195(3) 0.7409(6)
H15B H -0.1799 0.2632 0.7552
C19B C -0.2051(2) 0.3638(2) 0.6101(5)
H16B H -0.2417 0.3373 0.5316
loop_
_geom_bond_atom_site_label_1
_geom_bond_atom_site_label_2
_geom_bond_site_symmetry_1
_geom_bond_site_symmetry_2
Fe1 N1 1_555 1_555
Fe2 N3 1_555 1_555
N1 C1 1_555 1_555
C1 S1 1_555 1_555
N2 Fe1 1_555 1_555
C2 N2 1_555 1_555
S2 C2 1_555 1_555
N3 C3 1_555 1_555
C3 S3 1_555 1_555
N4 Fe1 1_555 1_555
N5 Fe2 1_555 1_555
C4 N4 1_555 1_555
H1 C4 1_555 1_555
C5 N5 1_555 1_555
H2 C5 1_555 1_555
C6 C5 1_555 1_555
H3 C6 1_555 1_555
C7 N4 1_555 1_555
H4 C7 1_555 1_555
N6 Fe1 1_555 1_555
N7 C8 1_555 1_555
C8 N6 1_555 1_555
H5 C8 1_555 1_555
C9 N7 1_555 1_555
H6 C9 1_555 1_555
C10 C9 1_555 1_555
H7 C10 1_555 1_555
C11 N6 1_555 1_555
H8 C11 1_555 1_555
N8 Fe1 1_555 1_555
N9 C12 1_555 1_555
C12 N8 1_555 1_555
H9 C12 1_555 1_555
C13 N9 1_555 1_555
H10 C13 1_555 1_555
C14 C13 1_555 1_555
H11 C14 1_555 1_555
C15 N8 1_555 1_555
H12 C15 1_555 1_555
N10 C16 1_555 1_555
N11 Fe2 1_555 1_555
C16 N11 1_555 1_555
H13 C16 1_555 1_555
C17 N11 1_555 1_555
H14 C17 1_555 1_555
C18 C17 1_555 1_555
H15 C18 1_555 1_555
C19 N10 1_555 1_555
H16 C19 1_555 1_555
Fe1B N1B 1_555 1_555
Fe1_2 N10 1_555 1_555
Fe1B_2 N10B 1_555 1_555
N1B C1B 1_555 1_555
C1B S1B 1_555 1_555
N2B Fe1B 1_555 1_555
C2B N2B 1_555 1_555
S2B C2B 1_555 1_555
N3B Fe2 1_555 1_555
C3B N3B 1_555 1_555
S3B C3B 1_555 1_555
N4B Fe1B 1_555 1_555
N5B Fe2 1_555 1_555
C4B N4B 1_555 1_555
H1B C4B 1_555 1_555
C5B N5B 1_555 1_555
H2B C5B 1_555 1_555
C6B C5B 1_555 1_555
H3B C6B 1_555 1_555
C7B N4B 1_555 1_555
H4B C7B 1_555 1_555
N6B Fe1B 1_555 1_555
N7B C8B 1_555 1_555
C8B N6B 1_555 1_555
H5B C8B 1_555 1_555
C9B N7B 1_555 1_555
H6B C9B 1_555 1_555
C10B C9B 1_555 1_555
H7B C10B 1_555 1_555
C11B N6B 1_555 1_555
H8B C11B 1_555 1_555
N8B Fe1B 1_555 1_555
N9B C12B 1_555 1_555
C12B N8B 1_555 1_555
H9B C12B 1_555 1_555
C13B N9B 1_555 1_555
H10B C13B 1_555 1_555
C14B C13B 1_555 1_555
H11B C14B 1_555 1_555
C15B N8B 1_555 1_555
H12B C15B 1_555 1_555
N10B C16B 1_555 1_555
N10_2 Fe1 1_555 1_555
N10B_2 Fe1B 1_555 1_555
N11B Fe2 1_555 1_555
C16B N11B 1_555 1_555
H13B C16B 1_555 1_555
C17B N11B 1_555 1_555
H14B C17B 1_555 1_555
C18B C17B 1_555 1_555
H15B C18B 1_555 1_555
C19B N10B 1_555 1_555
H16B C19B 1_555 1_555
N5 C4 1_555 1_555
C6 C7 1_555 1_555
C10 C11 1_555 1_555
C14 C15 1_555 1_555
C18 C19 1_555 1_555
N5B C4B 1_555 1_555
C6B C7B 1_555 1_555
C10B C11B 1_555 1_555
C14B C15B 1_555 1_555
C18B C19B 1_555 1_555

#END
