
#######################################################################
#
#                 Cambridge Crystallographic Data Centre
#                                CCDC 
#
#######################################################################
#
# If this CIF has been generated from an entry in the Cambridge 
# Structural Database, then it will include bibliographic, chemical, 
# crystal, experimental, refinement or atomic coordinate data resulting 
# from the CCDC's data processing and validation procedures.
#
#######################################################################

data_ROMTET
_symmetry_cell_setting           orthorhombic
_symmetry_space_group_name_H-M   'P n n m'
_symmetry_Int_Tables_number      58
_space_group_name_Hall           '-P 2 2n'
loop_
_symmetry_equiv_pos_site_id
_symmetry_equiv_pos_as_xyz
1 x,y,z
2 -x,-y,z
3 1/2-x,1/2+y,1/2-z
4 1/2+x,1/2-y,1/2-z
5 -x,-y,-z
6 x,y,-z
7 1/2+x,1/2-y,1/2+z
8 1/2-x,1/2+y,1/2+z
_cell_length_a                   7.7313(17)
_cell_length_b                   12.799(3)
_cell_length_c                   6.9313(16)
_cell_angle_alpha                90
_cell_angle_beta                 90
_cell_angle_gamma                90
_cell_volume                     685.872
loop_
_atom_site_label
_atom_site_type_symbol
_atom_site_fract_x
_atom_site_fract_y
_atom_site_fract_z
K1 K 1.0000 0.5000 0.24337(6)
O1 O 0.89541(18) 0.34475(10) 0.0000
O2 O 0.90620(19) 0.17010(11) 0.0000
O3 O 0.55768(18) 0.16337(10) 0.0000
O4 O 0.30509(18) 0.44721(10) 0.0000
N1 N 0.5439(2) 0.34235(12) 0.0000
H1 H 0.6069 0.3977 0.0000
N2 N 0.2646(2) 0.27328(14) 0.0000
H2 H 0.1538 0.2794 0.0000
H3 H 0.3111 0.2122 0.0000
C1 C 0.8300(3) 0.25554(15) 0.0000
C2 C 0.6290(2) 0.24914(14) 0.0000
C3 C 0.3632(2) 0.35754(14) 0.0000
O5 O 0.7184(2) 0.46547(13) 0.5000
H4 H 0.6919 0.5284 0.5000
H5 H 0.6298 0.4287 0.5000
K1E K 1.0000 0.5000 -0.24337(6)
K1F K 0.5000 0.0000 -0.25663(6)
K1B K 0.5000 0.0000 0.25663(6)
K1_2 K 0.0000 0.5000 0.24337(6)
K1E_2 K 0.0000 0.5000 -0.24337(6)
K1E_3 K 1.0000 0.5000 0.75663(6)
O1D O 1.10459(18) 0.65525(10) 0.0000
O3F O 1.05768(18) 0.33663(10) 0.5000
O3G O 0.94232(18) 0.66337(10) 0.5000
O4_2 O 1.30509(18) 0.44721(10) 0.0000
O4D O 0.69491(18) 0.55279(10) 0.0000
O5D O 1.2816(2) 0.53453(13) 0.5000
H4D H 1.3081 0.4716 0.5000
H5D H 1.3702 0.5713 0.5000
loop_
_geom_bond_atom_site_label_1
_geom_bond_atom_site_label_2
_geom_bond_site_symmetry_1
_geom_bond_site_symmetry_2
K1 O1 1_555 1_555
O1 C1 1_555 1_555
O2 C1 1_555 1_555
O3 C2 1_555 1_555
O4 C3 1_555 1_555
N1 H1 1_555 1_555
N2 H2 1_555 1_555
H3 N2 1_555 1_555
C1 C2 1_555 1_555
C2 N1 1_555 1_555
C3 N1 1_555 1_555
O5 K1 1_555 1_555
H4 O5 1_555 1_555
H5 O5 1_555 1_555
K1E O1 1_555 1_555
K1F O3 1_555 1_555
K1B O3 1_555 1_555
K1_2 O4 1_555 1_555
K1E_2 O4 1_555 1_555
K1E_3 O5 1_555 1_555
O1D K1 1_555 1_555
O3F K1 1_555 1_555
O3G K1 1_555 1_555
O4_2 K1 1_555 1_555
O4D K1 1_555 1_555
O5D K1 1_555 1_555
H4D O5D 1_555 1_555
H5D O5D 1_555 1_555
N2 C3 1_555 1_555
K1E O1D 1_555 1_555
K1E O4_2 1_555 1_555
K1E O4D 1_555 1_555
K1E_3 O3F 1_555 1_555
K1E_3 O3G 1_555 1_555
K1E_3 O5D 1_555 1_555

#END
