
#######################################################################
#
#                 Cambridge Crystallographic Data Centre
#                                CCDC 
#
#######################################################################
#
# If this CIF has been generated from an entry in the Cambridge 
# Structural Database, then it will include bibliographic, chemical, 
# crystal, experimental, refinement or atomic coordinate data resulting 
# from the CCDC's data processing and validation procedures.
#
#######################################################################

data_ROMTOD
_symmetry_cell_setting           triclinic
_symmetry_space_group_name_H-M   'P -1'
_symmetry_Int_Tables_number      2
_space_group_name_Hall           '-P 1'
loop_
_symmetry_equiv_pos_site_id
_symmetry_equiv_pos_as_xyz
1 x,y,z
2 -x,-y,-z
_cell_length_a                   8.574(7)
_cell_length_b                   8.692(6)
_cell_length_c                   9.666(5)
_cell_angle_alpha                104.71(2)
_cell_angle_beta                 97.14(3)
_cell_angle_gamma                98.89(3)
_cell_volume                     678.225
loop_
_atom_site_label
_atom_site_type_symbol
_atom_site_fract_x
_atom_site_fract_y
_atom_site_fract_z
C1 C 0.1755(2) 0.2246(2) 0.53022(19)
H1 H 0.2106 0.2822 0.6272
C2 C 0.0680(2) 0.1572(2) 0.30656(19)
H2 H 0.0131 0.1605 0.2184
C3 C 0.1346(2) 0.0324(2) 0.3277(2)
H3 H 0.1343 -0.0642 0.2586
C4 C 0.2858(2) -0.0192(3) 0.5505(2)
H4 H 0.2518 -0.1333 0.4989
H5 H 0.2548 -0.0033 0.6455
C5 C 0.4672(2) 0.0257(2) 0.5695(2)
H6 H 0.4997 0.1423 0.6092
H7 H 0.5142 -0.0241 0.6393
C6 C -0.2528(2) 0.3431(2) 0.22168(18)
H8 H -0.1736 0.3350 0.1641
C7 C -0.3724(2) 0.3880(2) 0.40625(19)
H9 H -0.3904 0.4175 0.5015
C8 C -0.4887(2) 0.3304(2) 0.2865(2)
H10 H -0.5989 0.3134 0.2841
C9 C -0.4832(3) 0.2316(3) 0.0161(2)
H11 H -0.5643 0.2909 -0.0092
H12 H -0.4018 0.2416 -0.0441
C10 C -0.5592(2) 0.0535(3) -0.0135(2)
H13 H -0.6130 0.0132 -0.1137
H14 H -0.6398 0.0450 0.0477
Co1 Co 0.0000 0.5000 0.5000
N1 N 0.09324(17) 0.27910(17) 0.43482(15)
N2 N 0.20264(17) 0.07610(18) 0.47097(17)
N3 N -0.22398(16) 0.39619(16) 0.36501(15)
N4 N -0.41025(18) 0.30233(19) 0.16974(16)
O1 O 0.08701(16) 0.57801(16) 0.32103(13)
H15 H 0.1299 0.5143 0.2619
H16 H 0.0215 0.6177 0.2734
C1A C 0.8245(2) -0.2246(2) 0.46978(19)
H1A H 0.7894 -0.2822 0.3728
C2A C 0.9320(2) -0.1572(2) 0.69344(19)
H2A H 0.9869 -0.1605 0.7816
C3A C 0.8654(2) -0.0324(2) 0.6723(2)
H3A H 0.8657 0.0642 0.7414
C4A C 0.7142(2) 0.0192(3) 0.4495(2)
H4A H 0.7482 0.1333 0.5011
H5A H 0.7452 0.0033 0.3545
C5A C 0.5328(2) -0.0257(2) 0.4305(2)
H6A H 0.5003 -0.1423 0.3908
H7A H 0.4858 0.0241 0.3607
C6A C -0.7472(2) -0.3431(2) -0.22168(18)
H8A H -0.8264 -0.3350 -0.1641
C7A C -0.6276(2) -0.3880(2) -0.40625(19)
H9A H -0.6096 -0.4175 -0.5015
C8A C -0.5113(2) -0.3304(2) -0.2865(2)
H10A H -0.4011 -0.3134 -0.2841
C9A C -0.5168(3) -0.2316(3) -0.0161(2)
H11A H -0.4357 -0.2909 0.0092
H12A H -0.5982 -0.2416 0.0441
C10A C -0.4408(2) -0.0535(3) 0.0135(2)
H13A H -0.3870 -0.0132 0.1137
H14A H -0.3602 -0.0450 -0.0477
Co1_2 Co 1.0000 -0.5000 0.5000
Co1_3 Co -1.0000 -0.5000 -0.5000
N1A N 0.90676(17) -0.27910(17) 0.56518(15)
N1A_2 N -0.09324(17) 0.72090(17) 0.56518(15)
N2A N 0.79736(17) -0.07610(18) 0.52903(17)
N3A N -0.77602(16) -0.39619(16) -0.36501(15)
N3A_2 N 0.22398(16) 0.60381(16) 0.63499(15)
N4A N -0.58975(18) -0.30233(19) -0.16974(16)
O1A O -0.08701(16) 0.42199(16) 0.67897(13)
H15A H -0.1299 0.4857 0.7381
H16A H -0.0215 0.3823 0.7266
N5 N 0.8937(2) 0.6642(2) 0.02300(18)
O2 O 0.8432(2) 0.6759(3) 0.13902(17)
O3 O 1.0374(3) 0.7011(3) 0.0241(2)
O4 O 0.7986(3) 0.6117(3) -0.09384(18)
loop_
_geom_bond_atom_site_label_1
_geom_bond_atom_site_label_2
_geom_bond_site_symmetry_1
_geom_bond_site_symmetry_2
C1 H1 1_555 1_555
C2 H2 1_555 1_555
C3 C2 1_555 1_555
H3 C3 1_555 1_555
C4 H4 1_555 1_555
H5 C4 1_555 1_555
C5 C4 1_555 1_555
H6 C5 1_555 1_555
H7 C5 1_555 1_555
C6 H8 1_555 1_555
C7 H9 1_555 1_555
C8 C7 1_555 1_555
H10 C8 1_555 1_555
C9 H11 1_555 1_555
H12 C9 1_555 1_555
C10 C9 1_555 1_555
H13 C10 1_555 1_555
H14 C10 1_555 1_555
Co1 N1 1_555 1_555
N1 C1 1_555 1_555
N2 C1 1_555 1_555
N3 C6 1_555 1_555
N4 C6 1_555 1_555
N5 O2 1_555 1_555
O1 Co1 1_555 1_555
H15 O1 1_555 1_555
H16 O1 1_555 1_555
O3 N5 1_555 1_555
O4 N5 1_555 1_555
C1A H1A 1_555 1_555
C2A H2A 1_555 1_555
C3A C2A 1_555 1_555
H3A C3A 1_555 1_555
C4A H4A 1_555 1_555
H5A C4A 1_555 1_555
C5A C5 1_555 1_555
H6A C5A 1_555 1_555
H7A C5A 1_555 1_555
C6A H8A 1_555 1_555
C7A H9A 1_555 1_555
C8A C7A 1_555 1_555
H10A C8A 1_555 1_555
C9A H11A 1_555 1_555
H12A C9A 1_555 1_555
C10A C10 1_555 1_555
H13A C10A 1_555 1_555
H14A C10A 1_555 1_555
Co1_2 N1A 1_555 1_555
Co1_3 N3A 1_555 1_555
N1A C1A 1_555 1_555
N1A_2 Co1 1_555 1_555
N2A C1A 1_555 1_555
N3A C6A 1_555 1_555
N3A_2 Co1 1_555 1_555
N4A C6A 1_555 1_555
O1A Co1 1_555 1_555
H15A O1A 1_555 1_555
H16A O1A 1_555 1_555
C2 N1 1_555 1_555
C3 N2 1_555 1_555
C4 N2 1_555 1_555
C7 N3 1_555 1_555
C8 N4 1_555 1_555
C9 N4 1_555 1_555
Co1 N3 1_555 1_555
C2A N1A 1_555 1_555
C3A N2A 1_555 1_555
C4A C5A 1_555 1_555
C4A N2A 1_555 1_555
C7A N3A 1_555 1_555
C8A N4A 1_555 1_555
C9A C10A 1_555 1_555
C9A N4A 1_555 1_555

#END
