
#######################################################################
#
#                 Cambridge Crystallographic Data Centre
#                                CCDC 
#
#######################################################################
#
# If this CIF has been generated from an entry in the Cambridge 
# Structural Database, then it will include bibliographic, chemical, 
# crystal, experimental, refinement or atomic coordinate data resulting 
# from the CCDC's data processing and validation procedures.
#
#######################################################################

data_ROMTAP
_symmetry_cell_setting           rhombohedral
_symmetry_space_group_name_H-M   'R -3'
_symmetry_Int_Tables_number      148
_space_group_name_Hall           '-R 3'
loop_
_symmetry_equiv_pos_site_id
_symmetry_equiv_pos_as_xyz
1 x,y,z
2 -y,x-y,z
3 -x+y,-x,z
4 2/3+x,1/3+y,1/3+z
5 2/3-y,1/3+x-y,1/3+z
6 2/3-x+y,1/3-x,1/3+z
7 1/3+x,2/3+y,2/3+z
8 1/3-y,2/3+x-y,2/3+z
9 1/3-x+y,2/3-x,2/3+z
10 -x,-y,-z
11 y,-x+y,-z
12 x-y,x,-z
13 1/3-x,2/3-y,2/3-z
14 1/3+y,2/3-x+y,2/3-z
15 1/3+x-y,2/3+x,2/3-z
16 2/3-x,1/3-y,1/3-z
17 2/3+y,1/3-x+y,1/3-z
18 2/3+x-y,1/3+x,1/3-z
_cell_length_a                   10.5455(6)
_cell_length_b                   10.5455(6)
_cell_length_c                   33.728(4)
_cell_angle_alpha                90
_cell_angle_beta                 90
_cell_angle_gamma                120.00
_cell_volume                     3248.3
loop_
_atom_site_label
_atom_site_type_symbol
_atom_site_fract_x
_atom_site_fract_y
_atom_site_fract_z
Cu1 Cu 1.0000 1.0000 0.5000
S1 S 0.94592(14) 0.59055(13) 0.43361(3)
S2 S 0.71904(11) 0.56831(12) 0.37580(3)
N1 N 0.8519(3) 0.7722(3) 0.43379(8)
N2 N 0.9537(3) 0.8133(3) 0.46412(8)
C1 C 1.0099(4) 0.7300(4) 0.46704(11)
H1 H 1.0802 0.7448 0.4860
C2 C 0.8366(4) 0.6570(4) 0.41560(10)
C3 C 0.6329(4) 0.6782(5) 0.36973(12)
H2 H 0.5323 0.6158 0.3613
H3 H 0.6313 0.7208 0.3951
C4 C 0.7119(5) 0.8003(5) 0.33947(13)
H4 H 0.8032 0.8758 0.3508
H5 H 0.7351 0.7613 0.3163
Cu1F Cu 0.3333 0.6667 0.1667
Cu1F_2 Cu 1.3333 0.6667 0.1667
Cu1F_3 Cu 1.3333 1.6667 0.1667
S1L S 0.38741(14) 1.07612(13) 0.23306(3)
S1A S 1.40945(13) 1.35537(19) 0.43361(3)
S1M S 0.92388(13) 0.31130(19) 0.23306(3)
S1B S 0.64463(19) 1.05408(14) 0.43361(3)
S1N S 1.68870(19) 1.61259(14) 0.23306(3)
S2L S 0.61429(11) 1.09836(12) 0.29087(3)
S2A S 1.43169(12) 1.15073(16) 0.37580(3)
S2M S 0.90164(12) 0.51594(16) 0.29087(3)
S2B S 0.84927(16) 1.28096(11) 0.37580(3)
S2N S 1.48406(16) 1.38571(11) 0.29087(3)
N1L N 0.4814(3) 0.8945(3) 0.23288(8)
N1A N 1.2278(3) 1.0797(4) 0.43379(8)
N1M N 1.1055(3) 0.5870(4) 0.23288(8)
N1B N 0.9203(4) 1.1481(3) 0.43379(8)
N1N N 1.4130(4) 1.5186(3) 0.23288(8)
N2L N 0.3796(3) 0.8534(3) 0.20255(8)
N2A N 1.1867(3) 1.1404(4) 0.46412(8)
N2M N 1.1466(3) 0.5263(4) 0.20255(8)
N2B N 0.8596(4) 1.0463(3) 0.46412(8)
N2N N 1.4737(4) 1.6204(3) 0.20255(8)
N2I N 1.0463(3) 1.1867(3) 0.53588(8)
N2J N 0.8133(3) 0.8596(4) 0.53588(8)
N2K N 1.1404(4) 0.9537(3) 0.53588(8)
C1L C 0.3234(4) 0.9367(4) 0.19963(11)
C1A C 1.2700(4) 1.2799(6) 0.46704(11)
C1M C 1.0633(4) 0.3868(6) 0.19963(11)
C1B C 0.7201(6) 0.9901(4) 0.46704(11)
C1N C 1.6132(6) 1.6766(4) 0.19963(11)
H1L H 0.2531 0.9219 0.1807
H1A H 1.2552 1.3354 0.4860
H1M H 1.0781 0.3313 0.1807
H1B H 0.6646 0.9198 0.4860
H1N H 1.6687 1.7469 0.1807
C2L C 0.4967(4) 1.0097(4) 0.25107(10)
C2A C 1.3430(4) 1.1796(6) 0.41560(10)
C2M C 0.9903(4) 0.4871(6) 0.25107(10)
C2B C 0.8204(6) 1.1634(4) 0.41560(10)
C2N C 1.5129(6) 1.5033(4) 0.25107(10)
C3L C 0.7004(4) 0.9885(5) 0.29694(12)
C3A C 1.3218(5) 0.9547(6) 0.36973(12)
C3M C 1.0115(5) 0.7120(6) 0.29694(12)
C3B C 1.0453(6) 1.3671(4) 0.36973(12)
C3N C 1.2880(6) 1.2996(4) 0.29694(12)
H2L H 0.8010 1.0509 0.3054
H2A H 1.3842 0.9165 0.3613
H2M H 0.9491 0.7502 0.3054
H2B H 1.0835 1.4677 0.3613
H2N H 1.2498 1.1990 0.3054
H3L H 0.7020 0.9459 0.2716
H3A H 1.2792 0.9105 0.3951
H3M H 1.0541 0.7562 0.2716
H3B H 1.0895 1.3687 0.3951
H3N H 1.2438 1.2980 0.2716
C4L C 0.6214(5) 0.8664(5) 0.32720(13)
C4A C 1.1997(5) 0.9116(7) 0.33947(13)
C4M C 1.1336(5) 0.7551(7) 0.32720(13)
C4B C 1.0884(7) 1.2881(5) 0.33947(13)
C4N C 1.2449(7) 1.3786(5) 0.32720(13)
H4L H 0.5301 0.7909 0.3159
H4A H 1.1242 0.9274 0.3508
H4M H 1.2091 0.7393 0.3159
H4B H 1.0726 1.1968 0.3508
H4N H 1.2607 1.4699 0.3159
H5L H 0.5982 0.9054 0.3504
H5A H 1.2387 0.9738 0.3163
H5M H 1.0946 0.6929 0.3504
H5B H 1.0262 1.2649 0.3163
H5N H 1.3071 1.4018 0.3504
Cl1 Cl 0.3333 0.6667 0.45984(7)
O1 O 0.3599(4) 0.8063(4) 0.47130(14)
O2 O 0.3333 0.6667 0.4165(2)
O1A O 0.1937(4) 0.5536(6) 0.47130(14)
O1B O 0.4464(6) 0.6401(4) 0.47130(14)
loop_
_geom_bond_atom_site_label_1
_geom_bond_atom_site_label_2
_geom_bond_site_symmetry_1
_geom_bond_site_symmetry_2
Cu1 N2 1_555 1_555
Cl1 O1 1_555 1_555
S1 C1 1_555 1_555
S2 C2 1_555 1_555
O2 Cl1 1_555 1_555
N1 N2 1_555 1_555
N2 C1 1_555 1_555
C1 H1 1_555 1_555
C2 S1 1_555 1_555
C3 S2 1_555 1_555
H2 C3 1_555 1_555
H3 C3 1_555 1_555
C4 C3 1_555 1_555
H4 C4 1_555 1_555
H5 C4 1_555 1_555
Cu1F N2L 1_555 1_555
Cu1F_2 N2M 1_555 1_555
Cu1F_3 N2N 1_555 1_555
S1L C1L 1_555 1_555
S1A C1A 1_555 1_555
S1M C1M 1_555 1_555
S1B C1B 1_555 1_555
S1N C1N 1_555 1_555
S2L C2L 1_555 1_555
S2A C2A 1_555 1_555
S2M C2M 1_555 1_555
S2B C2B 1_555 1_555
S2N C2N 1_555 1_555
O1A Cl1 1_555 1_555
O1B Cl1 1_555 1_555
N1L N2L 1_555 1_555
N1A N2A 1_555 1_555
N1M N2M 1_555 1_555
N1B N2B 1_555 1_555
N1N N2N 1_555 1_555
N2L C1L 1_555 1_555
N2A Cu1 1_555 1_555
N2M C1M 1_555 1_555
N2B Cu1 1_555 1_555
N2N C1N 1_555 1_555
N2I Cu1 1_555 1_555
N2J Cu1 1_555 1_555
N2K Cu1 1_555 1_555
C1L H1L 1_555 1_555
C1A N2A 1_555 1_555
C1M H1M 1_555 1_555
C1B N2B 1_555 1_555
C1N H1N 1_555 1_555
H1A C1A 1_555 1_555
H1B C1B 1_555 1_555
C2L S1L 1_555 1_555
C2A S1A 1_555 1_555
C2M S1M 1_555 1_555
C2B S1B 1_555 1_555
C2N S1N 1_555 1_555
C3L S2L 1_555 1_555
C3A S2A 1_555 1_555
C3M S2M 1_555 1_555
C3B S2B 1_555 1_555
C3N S2N 1_555 1_555
H2L C3L 1_555 1_555
H2A C3A 1_555 1_555
H2M C3M 1_555 1_555
H2B C3B 1_555 1_555
H2N C3N 1_555 1_555
H3L C3L 1_555 1_555
H3A C3A 1_555 1_555
H3M C3M 1_555 1_555
H3B C3B 1_555 1_555
H3N C3N 1_555 1_555
C4L C4 1_555 1_555
C4A C3A 1_555 1_555
C4M C3M 1_555 1_555
C4B C3B 1_555 1_555
C4N C3N 1_555 1_555
H4L C4L 1_555 1_555
H4A C4A 1_555 1_555
H4M C4M 1_555 1_555
H4B C4B 1_555 1_555
H4N C4N 1_555 1_555
H5L C4L 1_555 1_555
H5A C4A 1_555 1_555
H5M C4M 1_555 1_555
H5B C4B 1_555 1_555
H5N C4N 1_555 1_555
N1 C2 1_555 1_555
N1L C2L 1_555 1_555
N1A C2A 1_555 1_555
N1M C2M 1_555 1_555
N1B C2B 1_555 1_555
N1N C2N 1_555 1_555
C3L C4L 1_555 1_555
C4A C4M 1_555 1_555
C4B C4N 1_555 1_555

#END
