
#######################################################################
#
#                 Cambridge Crystallographic Data Centre
#                                CCDC 
#
#######################################################################
#
# If this CIF has been generated from an entry in the Cambridge 
# Structural Database, then it will include bibliographic, chemical, 
# crystal, experimental, refinement or atomic coordinate data resulting 
# from the CCDC's data processing and validation procedures.
#
#######################################################################

data_ROMTIX
_symmetry_cell_setting           triclinic
_symmetry_space_group_name_H-M   'P -1'
_symmetry_Int_Tables_number      2
_space_group_name_Hall           '-P 1'
loop_
_symmetry_equiv_pos_site_id
_symmetry_equiv_pos_as_xyz
1 x,y,z
2 -x,-y,-z
_cell_length_a                   7.5820(19)
_cell_length_b                   8.643(2)
_cell_length_c                   9.375(4)
_cell_angle_alpha                108.992(4)
_cell_angle_beta                 103.925(4)
_cell_angle_gamma                102.043(3)
_cell_volume                     535.57
loop_
_atom_site_label
_atom_site_type_symbol
_atom_site_fract_x
_atom_site_fract_y
_atom_site_fract_z
Pr1 Pr 0.13688(4) 0.65736(3) 0.88899(3)
O1 O 0.1360(5) 0.5899(6) 1.1378(4)
O2 O 0.2431(6) 0.4573(6) 1.2882(5)
O3 O 0.4163(6) 0.8435(6) 1.1280(4)
O4 O 0.0792(6) 0.7141(5) 0.6359(4)
O5 O -0.0653(6) 0.5985(5) 0.3701(5)
O6 O 0.1917(5) 0.9740(5) 0.9339(5)
O7 O 0.0683(6) 1.1925(5) 0.9755(5)
N1 N 0.6714(7) 0.9795(7) 1.3550(6)
H1 H 0.709(9) 1.056(6) 1.320(7)
C1 C 0.2690(8) 0.5814(8) 1.2460(6)
C2 C 0.4526(7) 0.7259(7) 1.3291(6)
C3 C 0.5671(8) 0.7451(8) 1.4747(7)
H2 H 0.5331 0.6633 1.5160
C4 C 0.7339(8) 0.8845(9) 1.5629(7)
H3 H 0.8106 0.8963 1.6620
C5 C 0.7816(8) 1.0019(8) 1.5011(7)
H4 H 0.8900 1.0978 1.5591
C6 C 0.5042(8) 0.8480(8) 1.2612(6)
C7 C 0.0043(7) 0.5910(7) 0.5025(6)
C8 C 0.0756(7) 1.0482(7) 0.9731(6)
O8 O 0.4579(6) 0.7364(7) 0.8300(6)
H5 H 0.526(8) 0.825(6) 0.912(6)
H6 H 0.532(7) 0.703(9) 0.781(7)
O9 O 0.3042(6) 0.4283(6) 0.9073(5)
H7 H 0.253(9) 0.355(5) 0.938(6)
H8 H 0.362(3) 0.520(3) 0.987(4)
Pr1A Pr -0.13688(4) 0.34264(3) 1.11101(3)
Pr1A_2 Pr -0.13688(4) 0.34264(3) 0.11101(3)
Pr1A_3 Pr -0.13688(4) 1.34264(3) 1.11101(3)
O1A O -0.1360(5) 0.4101(6) 0.8622(4)
O2A O -0.2431(6) 0.5427(6) 0.7118(5)
O3A O -0.4163(6) 0.1565(6) 0.8720(4)
O4A O -0.0792(6) 0.2859(5) 0.3641(4)
O4A_2 O -0.0792(6) 0.2859(5) 1.3641(4)
O5A O 0.0653(6) 0.4015(5) 0.6299(5)
O5_2 O -0.0653(6) 0.5985(5) 1.3701(5)
O6A O -0.1917(5) 1.0260(5) 1.0661(5)
O6A_2 O -0.1917(5) 0.0260(5) 1.0661(5)
O7A O -0.0683(6) 0.8075(5) 1.0245(5)
O7_2 O 0.0683(6) 0.1925(5) 0.9755(5)
N1A N -0.6714(7) 0.0205(7) 0.6450(6)
H1A H -0.709(9) -0.056(6) 0.680(7)
C1A C -0.2690(8) 0.4186(8) 0.7540(6)
C2A C -0.4526(7) 0.2741(7) 0.6709(6)
C3A C -0.5671(8) 0.2549(8) 0.5253(7)
H2A H -0.5331 0.3367 0.4840
C4A C -0.7339(8) 0.1155(9) 0.4371(7)
H3A H -0.8106 0.1037 0.3380
C5A C -0.7816(8) -0.0019(8) 0.4989(7)
H4A H -0.8900 -0.0978 0.4409
C6A C -0.5042(8) 0.1520(8) 0.7388(6)
C7A C -0.0043(7) 0.4090(7) 0.4975(6)
C8A C -0.0756(7) 0.9518(7) 1.0269(6)
O8A O -0.4579(6) 0.2636(7) 1.1700(6)
H5A H -0.526(8) 0.175(6) 1.088(6)
H6A H -0.532(7) 0.297(9) 1.219(7)
O9A O -0.3042(6) 0.5717(6) 1.0927(5)
H7A H -0.253(9) 0.645(5) 1.062(6)
H8A H -0.362(3) 0.480(3) 1.013(4)
loop_
_geom_bond_atom_site_label_1
_geom_bond_atom_site_label_2
_geom_bond_site_symmetry_1
_geom_bond_site_symmetry_2
Pr1 O1 1_555 1_555
O1 C1 1_555 1_555
O2 C1 1_555 1_555
O3 Pr1 1_555 1_555
O4 Pr1 1_555 1_555
O5 C7 1_555 1_555
O6 Pr1 1_555 1_555
O7 C8 1_555 1_555
N1 H1 1_555 1_555
C1 C2 1_555 1_555
C2 C3 1_555 1_555
C3 H2 1_555 1_555
C4 C3 1_555 1_555
H3 C4 1_555 1_555
C5 N1 1_555 1_555
H4 C5 1_555 1_555
C6 O3 1_555 1_555
C7 O4 1_555 1_555
C8 O6 1_555 1_555
O8 Pr1 1_555 1_555
H5 O8 1_555 1_555
H6 O8 1_555 1_555
O9 Pr1 1_555 1_555
H7 O9 1_555 1_555
H8 O9 1_555 1_555
Pr1A O1 1_555 1_555
Pr1A_2 O5 1_555 1_555
Pr1A_3 O7 1_555 1_555
O1A Pr1 1_555 1_555
O2A Pr1 1_555 1_555
O3A Pr1A 1_555 1_555
O4A Pr1A_2 1_555 1_555
O4A_2 Pr1A 1_555 1_555
O5A Pr1 1_555 1_555
O5_2 Pr1A 1_555 1_555
O6A Pr1A_3 1_555 1_555
O6A_2 Pr1A 1_555 1_555
O7A Pr1 1_555 1_555
O7_2 Pr1A 1_555 1_555
N1A H1A 1_555 1_555
C1A O1A 1_555 1_555
C2A C1A 1_555 1_555
C3A C2A 1_555 1_555
H2A C3A 1_555 1_555
C4A C3A 1_555 1_555
H3A C4A 1_555 1_555
C5A N1A 1_555 1_555
H4A C5A 1_555 1_555
C6A O3A 1_555 1_555
C7A C7 1_555 1_555
C8A C8 1_555 1_555
O8A Pr1A 1_555 1_555
H5A O8A 1_555 1_555
H6A O8A 1_555 1_555
O9A Pr1A 1_555 1_555
H7A O9A 1_555 1_555
H8A O9A 1_555 1_555
O2 Pr1A 1_555 1_555
N1 C6 1_555 1_555
C2 C6 1_555 1_555
C4 C5 1_555 1_555
Pr1A O1A 1_555 1_555
O2A C1A 1_555 1_555
O4A C7A 1_555 1_555
O5A C7A 1_555 1_555
O6A C8A 1_555 1_555
O7A C8A 1_555 1_555
N1A C6A 1_555 1_555
C2A C6A 1_555 1_555
C4A C5A 1_555 1_555

#END
