
#######################################################################
#
#                 Cambridge Crystallographic Data Centre
#                                CCDC 
#
#######################################################################
#
# If this CIF has been generated from an entry in the Cambridge 
# Structural Database, then it will include bibliographic, chemical, 
# crystal, experimental, refinement or atomic coordinate data resulting 
# from the CCDC's data processing and validation procedures.
#
#######################################################################

data_ROMWEX
_symmetry_cell_setting           triclinic
_symmetry_space_group_name_H-M   'P -1'
_symmetry_Int_Tables_number      2
_space_group_name_Hall           '-P 1'
loop_
_symmetry_equiv_pos_site_id
_symmetry_equiv_pos_as_xyz
1 x,y,z
2 -x,-y,-z
_cell_length_a                   8.929(2)
_cell_length_b                   8.982(2)
_cell_length_c                   11.777(3)
_cell_angle_alpha                99.926(3)
_cell_angle_beta                 106.081(3)
_cell_angle_gamma                91.596(3)
_cell_volume                     891.119
loop_
_atom_site_label
_atom_site_type_symbol
_atom_site_fract_x
_atom_site_fract_y
_atom_site_fract_z
C1 C -0.2374(6) 0.5944(6) 0.3110(4)
C2 C -0.4102(6) 0.5860(7) 0.2984(5)
H1 H -0.4626 0.5137 0.2258
H2 H -0.4476 0.6843 0.2874
C3 C -0.4589(5) 0.5414(6) 0.4015(4)
C4 C -0.4537(6) 0.3945(7) 0.4219(5)
H3 H -0.4211 0.3211 0.3699
C5 C -0.5047(6) 0.6465(7) 0.4831(5)
H4 H -0.5074 0.7471 0.4737
C6 C 0.1268(6) 0.8000(7) 0.5381(5)
H5 H 0.0848 0.7160 0.5586
C7 C 0.2013(7) 0.9472(7) 0.4441(5)
H6 H 0.2197 0.9866 0.3808
C8 C 0.2018(6) 0.9695(7) 0.7426(4)
H7 H 0.1005 0.9496 0.7545
H8 H 0.2304 1.0776 0.7678
C9 C 0.3211(6) 0.8857(6) 0.8210(4)
C10 C 0.2761(6) 0.7881(6) 0.8851(5)
H9 H 0.1704 0.7698 0.8774
C11 C 0.3840(7) 0.7167(7) 0.9604(5)
H10 H 0.3513 0.6494 1.0022
C12 C 0.5412(7) 0.7452(6) 0.9740(5)
H11 H 0.6145 0.7000 1.0275
C13 C 0.5910(6) 0.8407(6) 0.9085(4)
C14 C 0.4808(6) 0.9127(6) 0.8343(4)
H12 H 0.5131 0.9801 0.7924
C15 C 0.7609(6) 0.8649(6) 0.9190(5)
H13 H 0.7816 0.9645 0.9027
H14 H 0.8216 0.8624 1.0008
C16 C 0.8511(6) 0.6126(6) 0.8487(5)
H15 H 0.8590 0.5712 0.9170
C17 C 0.8508(6) 0.6439(6) 0.6754(5)
H16 H 0.8592 0.6254 0.5973
Cl1 Cl 0.10373(18) 0.76885(18) 0.13296(13)
N1 N 0.1318(5) 0.8090(5) 0.4287(4)
N2 N 0.2422(6) 1.0240(6) 0.5551(4)
N3 N 0.1894(5) 0.9260(5) 0.6146(4)
N4 N 0.8117(5) 0.7506(5) 0.8362(4)
N5 N 0.8109(5) 0.7728(5) 0.7253(4)
N6 N 0.8781(5) 0.5413(5) 0.7471(4)
O1 O -0.1968(4) 0.6496(4) 0.2292(3)
O2 O -0.1405(4) 0.5509(4) 0.3936(3)
Zn1 Zn 0.03445(7) 0.66230(7) 0.27292(5)
C1A C -0.7626(6) 0.4056(6) 0.6890(4)
C2A C -0.5898(6) 0.4140(7) 0.7016(5)
H1A H -0.5374 0.4863 0.7742
H2A H -0.5524 0.3157 0.7126
C3A C -0.5411(5) 0.4586(6) 0.5985(4)
C4A C -0.5463(6) 0.6055(7) 0.5781(5)
H3A H -0.5789 0.6789 0.6301
C5A C -0.4953(6) 0.3535(7) 0.5169(5)
H4A H -0.4926 0.2529 0.5263
O1A O -0.8032(4) 0.3504(4) 0.7708(3)
O2A O -0.8595(4) 0.4491(4) 0.6064(3)
C6A C -1.1268(6) 0.2000(7) 0.4619(5)
H5A H -1.0848 0.2840 0.4414
C7A C -1.2013(7) 0.0528(7) 0.5559(5)
H6A H -1.2197 0.0134 0.6192
C8A C -1.2018(6) 0.0305(7) 0.2574(4)
H7A H -1.1005 0.0504 0.2455
H8A H -1.2304 -0.0776 0.2322
C9A C -1.3211(6) 0.1143(6) 0.1790(4)
C10A C -1.2761(6) 0.2119(6) 0.1149(5)
H9A H -1.1704 0.2302 0.1226
C11A C -1.3840(7) 0.2833(7) 0.0396(5)
H10A H -1.3513 0.3506 -0.0022
C12A C -1.5412(7) 0.2548(6) 0.0260(5)
H11A H -1.6145 0.3000 -0.0275
C13A C -1.5910(6) 0.1593(6) 0.0915(4)
C14A C -1.4808(6) 0.0873(6) 0.1657(4)
H12A H -1.5131 0.0199 0.2076
C15A C -1.7609(6) 0.1351(6) 0.0810(5)
H13A H -1.7816 0.0355 0.0973
H14A H -1.8216 0.1376 -0.0008
C16A C -1.8511(6) 0.3874(6) 0.1513(5)
H15A H -1.8590 0.4288 0.0830
C17A C -1.8508(6) 0.3561(6) 0.3246(5)
H16A H -1.8592 0.3746 0.4027
Cl1A Cl -1.10373(18) 0.23115(18) 0.86704(13)
N1A N -1.1318(5) 0.1910(5) 0.5713(4)
N2A N -1.2422(6) -0.0240(6) 0.4449(4)
N3A N -1.1894(5) 0.0740(5) 0.3854(4)
N4A N -1.8117(5) 0.2494(5) 0.1638(4)
N5A N -1.8109(5) 0.2272(5) 0.2747(4)
N6A N -1.8781(5) 0.4587(5) 0.2529(4)
Zn1A Zn -1.03445(7) 0.33770(7) 0.72708(5)
N6_2 N -1.1219(5) 0.5413(5) 0.7471(4)
N6A_2 N 0.1219(5) 0.4587(5) 0.2529(4)
Zn1_2 Zn -1.96555(7) 0.66230(7) 0.27292(5)
Zn1A_2 Zn 0.96555(7) 0.33770(7) 0.72708(5)
loop_
_geom_bond_atom_site_label_1
_geom_bond_atom_site_label_2
_geom_bond_site_symmetry_1
_geom_bond_site_symmetry_2
C1 C2 1_555 1_555
C2 H1 1_555 1_555
H2 C2 1_555 1_555
C3 C2 1_555 1_555
C4 C3 1_555 1_555
H3 C4 1_555 1_555
C5 C3 1_555 1_555
H4 C5 1_555 1_555
C6 H5 1_555 1_555
C7 H6 1_555 1_555
C8 H7 1_555 1_555
H8 C8 1_555 1_555
C9 C8 1_555 1_555
C10 C9 1_555 1_555
H9 C10 1_555 1_555
C11 C10 1_555 1_555
H10 C11 1_555 1_555
C12 C11 1_555 1_555
H11 C12 1_555 1_555
C13 C12 1_555 1_555
C14 C9 1_555 1_555
H12 C14 1_555 1_555
C15 C13 1_555 1_555
H13 C15 1_555 1_555
H14 C15 1_555 1_555
C16 H15 1_555 1_555
C17 H16 1_555 1_555
Cl1 Zn1 1_555 1_555
N1 C6 1_555 1_555
N2 C7 1_555 1_555
N3 C6 1_555 1_555
N4 C15 1_555 1_555
N5 C17 1_555 1_555
N6 C16 1_555 1_555
O1 C1 1_555 1_555
O2 C1 1_555 1_555
Zn1 N1 1_555 1_555
C1A C2A 1_555 1_555
C2A H1A 1_555 1_555
H2A C2A 1_555 1_555
C3A C2A 1_555 1_555
C4A C5 1_555 1_555
H3A C4A 1_555 1_555
C5A C4 1_555 1_555
H4A C5A 1_555 1_555
O1A C1A 1_555 1_555
O2A C1A 1_555 1_555
C6A H5A 1_555 1_555
C7A H6A 1_555 1_555
C8A H7A 1_555 1_555
H8A C8A 1_555 1_555
C9A C8A 1_555 1_555
C10A C9A 1_555 1_555
H9A C10A 1_555 1_555
C11A C10A 1_555 1_555
H10A C11A 1_555 1_555
C12A C11A 1_555 1_555
H11A C12A 1_555 1_555
C13A C12A 1_555 1_555
C14A C9A 1_555 1_555
H12A C14A 1_555 1_555
C15A C13A 1_555 1_555
H13A C15A 1_555 1_555
H14A C15A 1_555 1_555
C16A H15A 1_555 1_555
C17A H16A 1_555 1_555
Cl1A Zn1A 1_555 1_555
N1A C6A 1_555 1_555
N2A C7A 1_555 1_555
N3A C6A 1_555 1_555
N4A C15A 1_555 1_555
N5A C17A 1_555 1_555
N6A C16A 1_555 1_555
Zn1A O1A 1_555 1_555
N6_2 Zn1A 1_555 1_555
N6A_2 Zn1 1_555 1_555
Zn1_2 N6A 1_555 1_555
Zn1A_2 N6 1_555 1_555
C7 N1 1_555 1_555
C8 N3 1_555 1_555
C13 C14 1_555 1_555
C16 N4 1_555 1_555
C17 N6 1_555 1_555
N2 N3 1_555 1_555
N4 N5 1_555 1_555
O1 Zn1 1_555 1_555
C3A C4A 1_555 1_555
C3A C5A 1_555 1_555
C7A N1A 1_555 1_555
C8A N3A 1_555 1_555
C13A C14A 1_555 1_555
C16A N4A 1_555 1_555
C17A N6A 1_555 1_555
N1A Zn1A 1_555 1_555
N2A N3A 1_555 1_555
N4A N5A 1_555 1_555

#END
