
#######################################################################
#
#                 Cambridge Crystallographic Data Centre
#                                CCDC 
#
#######################################################################
#
# If this CIF has been generated from an entry in the Cambridge 
# Structural Database, then it will include bibliographic, chemical, 
# crystal, experimental, refinement or atomic coordinate data resulting 
# from the CCDC's data processing and validation procedures.
#
#######################################################################

data_ROMYIC
_symmetry_cell_setting           triclinic
_symmetry_space_group_name_H-M   'P -1'
_symmetry_Int_Tables_number      2
_space_group_name_Hall           '-P 1'
loop_
_symmetry_equiv_pos_site_id
_symmetry_equiv_pos_as_xyz
1 x,y,z
2 -x,-y,-z
_cell_length_a                   10.2800(5)
_cell_length_b                   10.9960(5)
_cell_length_c                   17.1772(8)
_cell_angle_alpha                73.7610(10)
_cell_angle_beta                 77.5970(9)
_cell_angle_gamma                72.8990(10)
_cell_volume                     1763.12
loop_
_atom_site_label
_atom_site_type_symbol
_atom_site_fract_x
_atom_site_fract_y
_atom_site_fract_z
Nd1 Nd 0.986316(9) -0.251904(8) 0.750864(5)
Na1 Na 1.0000 -0.5000 0.5000
Na2 Na 1.0000 0.0000 1.0000
Na3 Na 1.00054(7) 0.25290(7) 0.75418(4)
Na4 Na 1.64267(8) -0.70045(8) 0.74091(5)
O1 O 0.97079(13) -0.28801(13) 0.61849(8)
O2 O 1.06148(15) -0.29523(14) 0.48886(8)
O3 O 1.10447(13) -0.09532(13) 0.76969(8)
O4 O 1.19557(13) 0.07781(13) 0.72036(8)
O5 O 1.20747(13) -0.41795(13) 0.71629(8)
O6 O 1.39331(13) -0.57975(13) 0.75088(9)
O7 O 0.89337(13) -0.21338(13) 0.88815(8)
O8 O 0.93475(14) -0.19439(13) 1.00615(8)
O9 O 0.92447(13) -0.46282(12) 0.78708(8)
O10 O 0.78714(14) -0.58720(13) 0.78570(9)
O11 O 0.81765(13) -0.03443(12) 0.72676(8)
O12 O 0.60270(14) 0.09197(13) 0.74415(9)
N1 N 1.10905(15) -0.12309(14) 0.62160(9)
N2 N 1.13421(15) -0.38076(14) 0.86572(9)
N3 N 0.73015(15) -0.24708(14) 0.76092(9)
C1 C 1.11988(18) -0.15112(17) 0.54891(11)
C2 C 1.1968(2) -0.09343(19) 0.47907(12)
H1 H 1.2061 -0.1170 0.4286
C3 C 1.2598(2) -0.0009(2) 0.48408(12)
H2 H 1.3117 0.0407 0.4368
C4 C 1.2463(2) 0.03034(19) 0.55884(12)
H3 H 1.2872 0.0945 0.5636
C5 C 1.17129(18) -0.03479(17) 0.62652(11)
C6 C 1.04562(18) -0.25230(17) 0.55066(11)
C7 C 1.15647(17) -0.01351(17) 0.71145(11)
C8 C 1.25120(18) -0.47189(17) 0.85290(11)
C9 C 1.33332(19) -0.53836(19) 0.91389(12)
H4 H 1.4137 -0.6051 0.9042
C10 C 1.2955(2) -0.5052(2) 0.98920(13)
H5 H 1.3504 -0.5482 1.0317
C11 C 1.1762(2) -0.4081(2) 1.00189(12)
H6 H 1.1496 -0.3823 1.0525
C12 C 1.09698(18) -0.34982(17) 0.93880(11)
C13 C 1.28828(17) -0.49384(17) 0.76695(11)
C14 C 0.96482(18) -0.24491(17) 0.94619(11)
C15 C 0.69355(17) -0.35801(17) 0.76969(11)
C16 C 0.56032(19) -0.35959(19) 0.76719(13)
H7 H 0.5375 -0.4395 0.7726
C17 C 0.4608(2) -0.2416(2) 0.75659(15)
H8 H 0.3685 -0.2397 0.7546
C18 C 0.49769(19) -0.12603(19) 0.74889(13)
H9 H 0.4313 -0.0442 0.7423
C19 C 0.63410(17) -0.13392(17) 0.75113(11)
C20 C 0.80911(18) -0.48062(17) 0.78177(11)
C21 C 0.68618(18) -0.01425(17) 0.74032(11)
O13 O 1.21398(15) -0.60777(15) 0.43061(10)
H10 H 1.2796 -0.6664 0.4519
H11 H 1.1684 -0.6459 0.4136
O14 O 0.93110(15) -0.41916(14) 0.36602(9)
H12 H 0.8457 -0.3843 0.3652
H13 H 0.9498 -0.4898 0.3502
O15 O 1.63336(15) -0.57969(14) 0.60053(9)
H14 H 1.6852 -0.5295 0.5956
H15 H 1.5528 -0.5316 0.5951
O16 O 1.64141(14) -0.81254(15) 0.88155(9)
H16 H 1.6177 -0.7869 0.9260
H17 H 1.6257 -0.8875 0.8914
O17 O 0.78960(14) 0.07252(14) 1.09068(8)
H18 H 0.7468 0.0125 1.1059
H19 H 0.8151 0.0791 1.1329
O18 O 0.87328(14) 0.20465(13) 0.67976(8)
H20 H 0.8877 0.2283 0.6278
H21 H 0.8587 0.1289 0.6920
O19 O 0.92162(14) 0.09137(13) 0.86811(8)
H22 H 0.8344 0.1175 0.8743
H23 H 0.9437 0.0251 0.8474
O20 O 1.12070(13) 0.31110(13) 0.83376(8)
H24 H 1.0950 0.2788 0.8838
H25 H 1.0674 0.3867 0.8208
Nd1A Nd 1.013684(9) -0.748096(8) 0.249136(5)
Nd1_2 Nd 0.986316(9) 0.748096(8) 0.750864(5)
Na2_2 Na 1.0000 -1.0000 0.0000
Na3A Na 0.99946(7) -1.25290(7) 0.24582(4)
Na3_2 Na 1.00054(7) -0.74710(7) 0.75418(4)
Na3A_2 Na 0.99946(7) -0.25290(7) 0.24582(4)
Na4A Na 0.35733(8) -0.29955(8) 0.25909(5)
Na4_2 Na 0.64267(8) -0.70045(8) 0.74091(5)
Na4_3 Na 0.64267(8) 0.29955(8) 0.74091(5)
Na4_4 Na 0.64267(8) 1.29955(8) 0.74091(5)
Na4A_2 Na 1.35733(8) -1.29955(8) 0.25909(5)
O1A O 1.02921(13) -0.71199(13) 0.38151(8)
O2A O 0.93852(15) -0.70477(14) 0.51114(8)
O3A O 0.89553(13) -0.90468(13) 0.23031(8)
O4A O 0.80443(13) -1.07781(13) 0.27964(8)
O5A O 0.79253(13) -0.58205(13) 0.28371(8)
O6A O 0.60669(13) -0.42025(13) 0.24912(9)
O7A O 1.10663(13) -0.78662(13) 0.11185(8)
O8A O 1.06525(14) -0.80561(13) -0.00615(8)
O8A_2 O 1.06525(14) 0.19439(13) 0.99385(8)
O9_2 O 0.92447(13) 0.53718(12) 0.78708(8)
O9A O 1.07553(13) -0.53718(12) 0.21292(8)
O10_2 O 0.78714(14) 0.41280(13) 0.78570(9)
O10_3 O 1.78714(14) -0.58720(13) 0.78570(9)
O10A O 1.21286(14) -1.41280(13) 0.21430(9)
O10A_2 O 0.21286(14) -0.41280(13) 0.21430(9)
O11_2 O 0.81765(13) 0.96557(12) 0.72676(8)
O11A O 1.18235(13) -0.96557(12) 0.27324(8)
O12_2 O 0.60270(14) 1.09197(13) 0.74415(9)
O12_3 O 1.60270(14) -0.90803(13) 0.74415(9)
O12A O 0.39730(14) -0.09197(13) 0.25585(9)
N1A N 0.89095(15) -0.87691(14) 0.37840(9)
N2A N 0.86579(15) -0.61924(14) 0.13428(9)
N3_2 N 0.73015(15) 0.75292(14) 0.76092(9)
N3A N 1.26985(15) -0.75292(14) 0.23908(9)
C1A C 0.88012(18) -0.84888(17) 0.45109(11)
C2A C 0.8032(2) -0.90657(19) 0.52093(12)
H1A H 0.7939 -0.8830 0.5714
C3A C 0.7402(2) -0.9991(2) 0.51592(12)
H2A H 0.6883 -1.0407 0.5632
C4A C 0.7537(2) -1.03034(19) 0.44116(12)
H3A H 0.7128 -1.0945 0.4364
C5A C 0.82871(18) -0.96521(17) 0.37348(11)
C6A C 0.95438(18) -0.74770(17) 0.44934(11)
C7A C 0.84353(17) -0.98649(17) 0.28855(11)
C8A C 0.74880(18) -0.52811(17) 0.14710(11)
C9A C 0.66668(19) -0.46164(19) 0.08611(12)
H4A H 0.5863 -0.3949 0.0958
C10A C 0.7045(2) -0.4948(2) 0.01080(13)
H5A H 0.6496 -0.4518 -0.0317
C11A C 0.8238(2) -0.5919(2) -0.00189(12)
H6A H 0.8504 -0.6177 -0.0525
C12A C 0.90302(18) -0.65018(17) 0.06120(11)
C13A C 0.71172(17) -0.50616(17) 0.23305(11)
C14A C 1.03518(18) -0.75509(17) 0.05381(11)
C15_2 C 0.69355(17) 0.64199(17) 0.76969(11)
C16_2 C 0.56032(19) 0.64041(19) 0.76719(13)
H7_2 H 0.5375 0.5605 0.7726
C17_2 C 0.4608(2) 0.7584(2) 0.75659(15)
H8_2 H 0.3685 0.7603 0.7546
C18_2 C 0.49769(19) 0.87397(19) 0.74889(13)
H9_2 H 0.4313 0.9558 0.7423
C19_2 C 0.63410(17) 0.86608(17) 0.75113(11)
C20_2 C 0.80911(18) 0.51938(17) 0.78177(11)
C21_2 C 0.68618(18) 0.98575(17) 0.74032(11)
O13A O 0.78602(15) -0.39223(15) 0.56939(10)
H10A H 0.7204 -0.3336 0.5481
H11A H 0.8316 -0.3541 0.5864
O14A O 1.06890(15) -0.58084(14) 0.63398(9)
O14A_2 O 1.06890(15) 0.41916(14) 0.63398(9)
O14_2 O 0.93110(15) -1.41916(14) 0.36602(9)
H12A H 1.1543 -0.6157 0.6348
H12A_2 H 1.1543 0.3843 0.6348
H12_2 H 0.8457 -1.3843 0.3652
H13A H 1.0502 -0.5102 0.6498
H13A_2 H 1.0502 0.4898 0.6498
H13_2 H 0.9498 -1.4898 0.3502
O15A O 0.36664(15) -0.42031(14) 0.39947(9)
H14A H 0.3148 -0.4705 0.4044
H15A H 0.4472 -0.4684 0.4049
O16A O 0.35859(14) -0.18746(15) 0.11845(9)
H16A H 0.3823 -0.2131 0.0740
H17A H 0.3743 -0.1125 0.1086
O17A O 1.21040(14) -0.07252(14) 0.90932(8)
H18A H 1.2532 -0.0125 0.8941
H19A H 1.1849 -0.0791 0.8671
O18A O 1.12672(14) -1.20465(13) 0.32024(8)
O18_2 O 1.87328(14) -0.79535(13) 0.67976(8)
O18A_2 O 0.12672(14) -0.20465(13) 0.32024(8)
H20A H 1.1123 -1.2283 0.3722
H20_2 H 1.8877 -0.7717 0.6278
H20A_2 H 0.1123 -0.2283 0.3722
H21A H 1.1413 -1.1289 0.3080
H21_2 H 1.8587 -0.8711 0.6920
H21A_2 H 0.1413 -0.1289 0.3080
O19A O 1.07838(14) -1.09137(13) 0.13189(8)
O19A_2 O 1.07838(14) -0.09137(13) 1.13189(8)
H22A H 1.1656 -1.1175 0.1257
H22A_2 H 1.1656 -0.1175 1.1257
H23A H 1.0563 -1.0251 0.1526
H23A_2 H 1.0563 -0.0251 1.1526
O20A O 0.87930(13) -1.31110(13) 0.16624(8)
H24A H 0.9050 -1.2788 0.1162
H25A H 0.9326 -1.3867 0.1792
O21 O 0.55580(17) 0.76378(17) 1.50385(11)
H26 H 0.5824 0.7508 1.4558
H27 H 0.4897 0.7278 1.5251
O22 O 0.45042(16) 0.75362(15) 0.96746(10)
H28 H 0.5051 0.8026 0.9579
H29 H 0.3764 0.8005 0.9494
O23 O 0.66353(16) 0.71944(15) 1.34876(10)
H30 H 0.6350 0.6872 1.3180
H31 H 0.6831 0.7900 1.3198
O24 O 1.37034(14) 0.08384(15) 1.04819(9)
H32 H 1.3711 0.0891 0.9978
H33 H 1.2894 0.1208 1.0672
O25 O 1.63840(15) -0.11773(15) 1.12833(9)
H34 H 1.5663 -0.1075 1.1634
H35 H 1.6934 -0.1891 1.1480
O26 O 0.62116(15) 0.40505(15) 1.43528(9)
H36 H 0.6845 0.4086 1.3944
H37 H 0.6518 0.4126 1.4754
loop_
_geom_bond_atom_site_label_1
_geom_bond_atom_site_label_2
_geom_bond_site_symmetry_1
_geom_bond_site_symmetry_2
Nd1 O1 1_555 1_555
Na1 O2 1_555 1_555
Na2 O8 1_555 1_555
Na3 O4 1_555 1_555
Na4 O6 1_555 1_555
O1 C6 1_555 1_555
O2 C6 1_555 1_555
O3 Nd1 1_555 1_555
O4 C7 1_555 1_555
O5 Nd1 1_555 1_555
O6 C13 1_555 1_555
O7 Nd1 1_555 1_555
O8 C14 1_555 1_555
O9 Nd1 1_555 1_555
O10 C20 1_555 1_555
O11 Nd1 1_555 1_555
O12 C21 1_555 1_555
N1 Nd1 1_555 1_555
N2 Nd1 1_555 1_555
N3 Nd1 1_555 1_555
C1 N1 1_555 1_555
C2 C1 1_555 1_555
H1 C2 1_555 1_555
C3 C2 1_555 1_555
H2 C3 1_555 1_555
C4 C3 1_555 1_555
H3 C4 1_555 1_555
C5 N1 1_555 1_555
C6 C1 1_555 1_555
C7 O3 1_555 1_555
C8 N2 1_555 1_555
C9 C8 1_555 1_555
H4 C9 1_555 1_555
C10 C9 1_555 1_555
H5 C10 1_555 1_555
C11 C10 1_555 1_555
H6 C11 1_555 1_555
C12 N2 1_555 1_555
C13 O5 1_555 1_555
C14 O7 1_555 1_555
C15 N3 1_555 1_555
C16 C15 1_555 1_555
H7 C16 1_555 1_555
C17 C16 1_555 1_555
H8 C17 1_555 1_555
C18 C17 1_555 1_555
H9 C18 1_555 1_555
C19 N3 1_555 1_555
C20 O9 1_555 1_555
C21 O11 1_555 1_555
O13 Na1 1_555 1_555
H10 O13 1_555 1_555
H11 O13 1_555 1_555
O14 Na1 1_555 1_555
H12 O14 1_555 1_555
H13 O14 1_555 1_555
O15 Na4 1_555 1_555
H14 O15 1_555 1_555
H15 O15 1_555 1_555
O16 Na4 1_555 1_555
H16 O16 1_555 1_555
H17 O16 1_555 1_555
O17 Na2 1_555 1_555
H18 O17 1_555 1_555
H19 O17 1_555 1_555
O18 Na3 1_555 1_555
H20 O18 1_555 1_555
H21 O18 1_555 1_555
O19 Na2 1_555 1_555
H22 O19 1_555 1_555
H23 O19 1_555 1_555
O20 Na3 1_555 1_555
H24 O20 1_555 1_555
H25 O20 1_555 1_555
O21 H26 1_555 1_555
H27 O21 1_555 1_555
O22 H28 1_555 1_555
H29 O22 1_555 1_555
O23 H30 1_555 1_555
H31 O23 1_555 1_555
O24 H32 1_555 1_555
H33 O24 1_555 1_555
O25 H34 1_555 1_555
H35 O25 1_555 1_555
O26 H36 1_555 1_555
H37 O26 1_555 1_555
Nd1A O1A 1_555 1_555
Nd1_2 O9_2 1_555 1_555
Na2_2 O8A 1_555 1_555
Na3A O4A 1_555 1_555
Na3_2 O10 1_555 1_555
Na3A_2 O14 1_555 1_555
Na4A O6A 1_555 1_555
Na4_2 O10 1_555 1_555
Na4_3 O12 1_555 1_555
Na4_4 O12_2 1_555 1_555
Na4A_2 O10A 1_555 1_555
O1A C6A 1_555 1_555
O2A Na1 1_555 1_555
O3A Nd1A 1_555 1_555
O4A C7A 1_555 1_555
O5A Nd1A 1_555 1_555
O6A C13A 1_555 1_555
O7A Nd1A 1_555 1_555
O8A C14A 1_555 1_555
O8A_2 Na2 1_555 1_555
O9_2 C20_2 1_555 1_555
O9A Nd1A 1_555 1_555
O10_2 Na3 1_555 1_555
O10_3 Na4 1_555 1_555
O10A Na3A 1_555 1_555
O10A_2 Na4A 1_555 1_555
O11_2 Nd1_2 1_555 1_555
O11A Nd1A 1_555 1_555
O12_2 C21_2 1_555 1_555
O12_3 Na4 1_555 1_555
O12A Na4A 1_555 1_555
N1A Nd1A 1_555 1_555
N2A Nd1A 1_555 1_555
N3_2 Nd1_2 1_555 1_555
N3A Nd1A 1_555 1_555
C1A N1A 1_555 1_555
C2A C1A 1_555 1_555
H1A C2A 1_555 1_555
C3A C2A 1_555 1_555
H2A C3A 1_555 1_555
C4A C3A 1_555 1_555
H3A C4A 1_555 1_555
C5A N1A 1_555 1_555
C6A O2A 1_555 1_555
C7A O3A 1_555 1_555
C8A N2A 1_555 1_555
C9A C8A 1_555 1_555
H4A C9A 1_555 1_555
C10A C9A 1_555 1_555
H5A C10A 1_555 1_555
C11A C10A 1_555 1_555
H6A C11A 1_555 1_555
C12A N2A 1_555 1_555
C13A O5A 1_555 1_555
C14A O7A 1_555 1_555
C15_2 N3_2 1_555 1_555
C16_2 C15_2 1_555 1_555
H7_2 C16_2 1_555 1_555
C17_2 C16_2 1_555 1_555
H8_2 C17_2 1_555 1_555
C18_2 C17_2 1_555 1_555
H9_2 C18_2 1_555 1_555
C19_2 N3_2 1_555 1_555
C20_2 O10_2 1_555 1_555
C21_2 O11_2 1_555 1_555
O13A Na1 1_555 1_555
H10A O13A 1_555 1_555
H11A O13A 1_555 1_555
O14A Na1 1_555 1_555
O14A_2 Na3 1_555 1_555
O14_2 Na3A 1_555 1_555
H12A O14A 1_555 1_555
H12A_2 O14A_2 1_555 1_555
H12_2 O14_2 1_555 1_555
H13A O14A 1_555 1_555
H13A_2 O14A_2 1_555 1_555
H13_2 O14_2 1_555 1_555
O15A Na4A 1_555 1_555
H14A O15A 1_555 1_555
H15A O15A 1_555 1_555
O16A Na4A 1_555 1_555
H16A O16A 1_555 1_555
H17A O16A 1_555 1_555
O17A Na2 1_555 1_555
H18A O17A 1_555 1_555
H19A O17A 1_555 1_555
O18A Na3A 1_555 1_555
O18_2 Na4 1_555 1_555
O18A_2 Na4A 1_555 1_555
H20A O18A 1_555 1_555
H20_2 O18_2 1_555 1_555
H20A_2 O18A_2 1_555 1_555
H21A O18A 1_555 1_555
H21_2 O18_2 1_555 1_555
H21A_2 O18A_2 1_555 1_555
O19A Na2_2 1_555 1_555
O19A_2 Na2 1_555 1_555
H22A O19A 1_555 1_555
H22A_2 O19A_2 1_555 1_555
H23A O19A 1_555 1_555
H23A_2 O19A_2 1_555 1_555
O20A Na3A 1_555 1_555
H24A O20A 1_555 1_555
H25A O20A 1_555 1_555
Na3 O19 1_555 1_555
C4 C5 1_555 1_555
C5 C7 1_555 1_555
C8 C13 1_555 1_555
C11 C12 1_555 1_555
C12 C14 1_555 1_555
C15 C20 1_555 1_555
C18 C19 1_555 1_555
C19 C21 1_555 1_555
O18 Na4_3 1_555 1_555
Na3A O19A 1_555 1_555
Na3_2 O14A 1_555 1_555
Na4_3 O10_2 1_555 1_555
Na4A_2 O18A 1_555 1_555
C1A C6A 1_555 1_555
C4A C5A 1_555 1_555
C5A C7A 1_555 1_555
C8A C13A 1_555 1_555
C11A C12A 1_555 1_555
C12A C14A 1_555 1_555
C15_2 C20_2 1_555 1_555
C18_2 C19_2 1_555 1_555
C19_2 C21_2 1_555 1_555

#END
