
#######################################################################
#
#                 Cambridge Crystallographic Data Centre
#                                CCDC 
#
#######################################################################
#
# If this CIF has been generated from an entry in the Cambridge 
# Structural Database, then it will include bibliographic, chemical, 
# crystal, experimental, refinement or atomic coordinate data resulting 
# from the CCDC's data processing and validation procedures.
#
#######################################################################

data_RONBAY
_symmetry_cell_setting           triclinic
_symmetry_space_group_name_H-M   'P -1'
_symmetry_Int_Tables_number      2
_space_group_name_Hall           '-P 1'
loop_
_symmetry_equiv_pos_site_id
_symmetry_equiv_pos_as_xyz
1 x,y,z
2 -x,-y,-z
_cell_length_a                   8.981(3)
_cell_length_b                   13.533(6)
_cell_length_c                   13.545(6)
_cell_angle_alpha                89.15(3)
_cell_angle_beta                 70.64(2)
_cell_angle_gamma                74.19(3)
_cell_volume                     1489.24
loop_
_atom_site_label
_atom_site_type_symbol
_atom_site_fract_x
_atom_site_fract_y
_atom_site_fract_z
Cu1 Cu 0.5000 1.0000 0.5000
Cu2 Cu 0.5000 0.5000 1.0000
V1 V 0.69474(18) 0.72889(11) 0.62544(11)
V2 V 0.42514(18) 0.63141(11) 0.72743(11)
F1 F 0.8264(7) 0.6754(4) 0.4858(4)
F2 F 0.5975(6) 0.8548(4) 0.5757(4)
F3 F 0.4946(6) 0.7556(4) 0.7556(4)
F4 F 0.7064(7) 0.5886(4) 0.6657(4)
F5 F 0.4955(6) 0.6752(4) 0.5860(4)
F6 F 0.4447(7) 0.4980(4) 0.6713(4)
F7 F 0.4606(7) 0.5732(5) 0.8509(4)
O1 O 0.8171(9) 0.7610(6) 0.6731(6)
O2 O 0.2305(8) 0.6835(5) 0.7680(5)
N1 N 0.5194(9) 0.9112(6) 0.3722(6)
N2 N 0.7360(9) 1.0090(6) 0.4290(6)
N3 N 0.6840(10) 0.3803(6) 0.9084(6)
N4 N 0.6717(10) 0.5758(6) 0.9920(6)
C1 C 0.5256(12) 0.8107(7) 0.3773(8)
H3 H 0.5356 0.7787 0.4370
C2 C 0.5176(16) 0.7540(9) 0.2962(10)
H4 H 0.5175 0.6855 0.3027
C3 C 0.5099(16) 0.7986(10) 0.2074(11)
H5 H 0.5058 0.7607 0.1520
C4 C 0.5081(17) 0.9016(9) 0.1992(9)
H6 H 0.5017 0.9341 0.1392
C5 C 0.5161(14) 0.9541(8) 0.2836(8)
H7 H 0.5194 1.0221 0.2780
C6 C 0.8656(11) 0.9310(8) 0.4308(7)
H8 H 0.8478 0.8710 0.4604
C7 C 1.0270(12) 0.9388(8) 0.3888(8)
H9 H 1.1145 0.8856 0.3936
C8 C 1.0556(13) 1.0258(8) 0.3404(8)
H10 H 1.1622 1.0304 0.3088
C9 C 0.9221(14) 1.1054(9) 0.3402(10)
H11 H 0.9363 1.1663 0.3111
C10 C 0.7678(11) 1.0929(8) 0.3838(9)
H12 H 0.6789 1.1466 0.3817
C11 C 0.7383(16) 0.2925(9) 0.9500(10)
H13 H 0.6795 0.2827 1.0184
C12 C 0.8774(19) 0.2176(11) 0.8946(12)
H14 H 0.9132 0.1573 0.9244
C13 C 0.9673(19) 0.2338(15) 0.7892(13)
H15 H 1.0670 0.1866 0.7516
C14 C 0.9084(16) 0.3148(10) 0.7471(11)
H16 H 0.9607 0.3229 0.6769
C15 C 0.7687(13) 0.3887(9) 0.8058(8)
H17 H 0.7300 0.4471 0.7743
C16 C 0.7453(11) 0.5671(7) 1.0632(8)
H18 H 0.7147 0.5282 1.1197
C17 C 0.8676(13) 0.6149(9) 1.0552(8)
H19 H 0.9182 0.6066 1.1058
C18 C 0.9140(14) 0.6737(9) 0.9740(9)
H20 H 0.9941 0.7069 0.9687
C19 C 0.8379(14) 0.6814(10) 0.9017(9)
H21 H 0.8674 0.7202 0.8449
C20 C 0.7194(16) 0.6337(10) 0.9104(8)
H22 H 0.6696 0.6408 0.8595
Cu2_2 Cu 0.5000 1.5000 0.0000
V1A V 0.30526(18) 1.27111(11) 0.37456(11)
V2A V 0.57486(18) 1.36859(11) 0.27257(11)
F1A F 0.1736(7) 1.3246(4) 0.5142(4)
F2A F 0.4025(6) 1.1452(4) 0.4243(4)
F3A F 0.5054(6) 1.2444(4) 0.2444(4)
F4A F 0.2936(7) 1.4114(4) 0.3343(4)
F5A F 0.5045(6) 1.3248(4) 0.4140(4)
F6A F 0.5553(7) 1.5020(4) 0.3287(4)
F7A F 0.5394(7) 1.4268(5) 0.1491(4)
F7A_2 F 0.5394(7) 0.4268(5) 1.1491(4)
O1A O 0.1829(9) 1.2390(6) 0.3269(6)
O2A O 0.7695(8) 1.3165(5) 0.2320(5)
N1A N 0.4806(9) 1.0888(6) 0.6278(6)
N2A N 0.2640(9) 0.9910(6) 0.5710(6)
N3A N 0.3160(10) 0.6197(6) 1.0916(6)
N4A N 0.3283(10) 0.4242(6) 1.0080(6)
C1A C 0.4744(12) 1.1893(7) 0.6227(8)
H3A H 0.4644 1.2213 0.5630
C2A C 0.4824(16) 1.2460(9) 0.7038(10)
H4A H 0.4825 1.3145 0.6973
C3A C 0.4901(16) 1.2014(10) 0.7926(11)
H5A H 0.4942 1.2393 0.8480
C4A C 0.4919(17) 1.0984(9) 0.8008(9)
H6A H 0.4983 1.0659 0.8608
C5A C 0.4839(14) 1.0459(8) 0.7164(8)
H7A H 0.4806 0.9779 0.7220
C6A C 0.1344(11) 1.0690(8) 0.5692(7)
H8A H 0.1522 1.1290 0.5396
C7A C -0.0270(12) 1.0612(8) 0.6112(8)
H9A H -0.1145 1.1144 0.6064
C8A C -0.0556(13) 0.9742(8) 0.6596(8)
H10A H -0.1622 0.9696 0.6912
C9A C 0.0779(14) 0.8946(9) 0.6598(10)
H11A H 0.0637 0.8337 0.6889
C10A C 0.2322(11) 0.9071(8) 0.6162(9)
H12A H 0.3211 0.8534 0.6183
C11A C 0.2617(16) 0.7075(9) 1.0500(10)
H13A H 0.3205 0.7173 0.9816
C12A C 0.1226(19) 0.7824(11) 1.1054(12)
H14A H 0.0868 0.8427 1.0756
C13A C 0.0327(19) 0.7662(15) 1.2108(13)
H15A H -0.0670 0.8134 1.2484
C14A C 0.0916(16) 0.6852(10) 1.2529(11)
H16A H 0.0393 0.6771 1.3231
C15A C 0.2313(13) 0.6113(9) 1.1942(8)
H17A H 0.2700 0.5529 1.2257
C16A C 0.2547(11) 0.4329(7) 0.9368(8)
H18A H 0.2853 0.4718 0.8803
C17A C 0.1324(13) 0.3851(9) 0.9448(8)
H19A H 0.0818 0.3934 0.8942
C18A C 0.0860(14) 0.3263(9) 1.0260(9)
H20A H 0.0059 0.2931 1.0313
C19A C 0.1621(14) 0.3186(10) 1.0983(9)
H21A H 0.1326 0.2798 1.1551
C20A C 0.2806(16) 0.3663(10) 1.0896(8)
H22A H 0.3304 0.3592 1.1405
N5 N 0.7651(11) 0.4896(7) 0.4390(8)
H1 H 0.6720 0.4994 0.4240
H2 H 0.7523 0.5441 0.4815
C21 C 0.9014(15) 0.4840(11) 0.3428(11)
H23 H 1.0021 0.4450 0.3518
H24 H 0.9074 0.5523 0.3262
H25 H 0.8850 0.4508 0.2867
C22 C 0.7914(14) 0.3948(11) 0.4947(10)
H26 H 0.7751 0.3403 0.4586
H27 H 0.7144 0.4075 0.5652
H28 H 0.9016 0.3752 0.4964
loop_
_geom_bond_atom_site_label_1
_geom_bond_atom_site_label_2
_geom_bond_site_symmetry_1
_geom_bond_site_symmetry_2
Cu1 F2 1_555 1_555
Cu2 F7 1_555 1_555
V1 F1 1_555 1_555
V2 F3 1_555 1_555
F2 V1 1_555 1_555
F3 V1 1_555 1_555
F4 V1 1_555 1_555
F5 V1 1_555 1_555
F6 V2 1_555 1_555
F7 V2 1_555 1_555
O1 V1 1_555 1_555
O2 V2 1_555 1_555
N1 Cu1 1_555 1_555
N2 Cu1 1_555 1_555
N3 Cu2 1_555 1_555
N4 Cu2 1_555 1_555
N5 H1 1_555 1_555
H2 N5 1_555 1_555
C1 N1 1_555 1_555
H3 C1 1_555 1_555
C2 C1 1_555 1_555
H4 C2 1_555 1_555
C3 C2 1_555 1_555
H5 C3 1_555 1_555
C4 C3 1_555 1_555
H6 C4 1_555 1_555
C5 N1 1_555 1_555
H7 C5 1_555 1_555
C6 N2 1_555 1_555
H8 C6 1_555 1_555
C7 C6 1_555 1_555
H9 C7 1_555 1_555
C8 C7 1_555 1_555
H10 C8 1_555 1_555
C9 C8 1_555 1_555
H11 C9 1_555 1_555
C10 N2 1_555 1_555
H12 C10 1_555 1_555
C11 N3 1_555 1_555
H13 C11 1_555 1_555
C12 C11 1_555 1_555
H14 C12 1_555 1_555
C13 C12 1_555 1_555
H15 C13 1_555 1_555
C14 C13 1_555 1_555
H16 C14 1_555 1_555
C15 N3 1_555 1_555
H17 C15 1_555 1_555
C16 N4 1_555 1_555
H18 C16 1_555 1_555
C17 C16 1_555 1_555
H19 C17 1_555 1_555
C18 C17 1_555 1_555
H20 C18 1_555 1_555
C19 C18 1_555 1_555
H21 C19 1_555 1_555
C20 N4 1_555 1_555
H22 C20 1_555 1_555
C21 N5 1_555 1_555
H23 C21 1_555 1_555
H24 C21 1_555 1_555
H25 C21 1_555 1_555
C22 N5 1_555 1_555
H26 C22 1_555 1_555
H27 C22 1_555 1_555
H28 C22 1_555 1_555
Cu2_2 F7A 1_555 1_555
V1A F1A 1_555 1_555
V2A F3A 1_555 1_555
F2A Cu1 1_555 1_555
F3A V1A 1_555 1_555
F4A V1A 1_555 1_555
F5A V1A 1_555 1_555
F6A V2A 1_555 1_555
F7A V2A 1_555 1_555
F7A_2 Cu2 1_555 1_555
O1A V1A 1_555 1_555
O2A V2A 1_555 1_555
N1A Cu1 1_555 1_555
N2A Cu1 1_555 1_555
N3A Cu2 1_555 1_555
N4A Cu2 1_555 1_555
C1A N1A 1_555 1_555
H3A C1A 1_555 1_555
C2A C1A 1_555 1_555
H4A C2A 1_555 1_555
C3A C2A 1_555 1_555
H5A C3A 1_555 1_555
C4A C3A 1_555 1_555
H6A C4A 1_555 1_555
C5A N1A 1_555 1_555
H7A C5A 1_555 1_555
C6A N2A 1_555 1_555
H8A C6A 1_555 1_555
C7A C6A 1_555 1_555
H9A C7A 1_555 1_555
C8A C7A 1_555 1_555
H10A C8A 1_555 1_555
C9A C8A 1_555 1_555
H11A C9A 1_555 1_555
C10A N2A 1_555 1_555
H12A C10A 1_555 1_555
C11A N3A 1_555 1_555
H13A C11A 1_555 1_555
C12A C11A 1_555 1_555
H14A C12A 1_555 1_555
C13A C12A 1_555 1_555
H15A C13A 1_555 1_555
C14A C13A 1_555 1_555
H16A C14A 1_555 1_555
C15A N3A 1_555 1_555
H17A C15A 1_555 1_555
C16A N4A 1_555 1_555
H18A C16A 1_555 1_555
C17A C16A 1_555 1_555
H19A C17A 1_555 1_555
C18A C17A 1_555 1_555
H20A C18A 1_555 1_555
C19A C18A 1_555 1_555
H21A C19A 1_555 1_555
C20A N4A 1_555 1_555
H22A C20A 1_555 1_555
V2 F4 1_555 1_555
V2 F5 1_555 1_555
C4 C5 1_555 1_555
C9 C10 1_555 1_555
C14 C15 1_555 1_555
C19 C20 1_555 1_555
V1A F2A 1_555 1_555
V2A F4A 1_555 1_555
V2A F5A 1_555 1_555
C4A C5A 1_555 1_555
C9A C10A 1_555 1_555
C14A C15A 1_555 1_555
C19A C20A 1_555 1_555

#END
