
#######################################################################
#
#                 Cambridge Crystallographic Data Centre
#                                CCDC 
#
#######################################################################
#
# If this CIF has been generated from an entry in the Cambridge 
# Structural Database, then it will include bibliographic, chemical, 
# crystal, experimental, refinement or atomic coordinate data resulting 
# from the CCDC's data processing and validation procedures.
#
#######################################################################

data_RONCAZ
_symmetry_cell_setting           monoclinic
_symmetry_space_group_name_H-M   'P 2/n'
_symmetry_Int_Tables_number      13
_space_group_name_Hall           '-P 2yac'
loop_
_symmetry_equiv_pos_site_id
_symmetry_equiv_pos_as_xyz
1 x,y,z
2 1/2-x,y,1/2-z
3 -x,-y,-z
4 1/2+x,-y,1/2+z
_cell_length_a                   11.6092(7)
_cell_length_b                   15.6578(10)
_cell_length_c                   18.8917(14)
_cell_angle_alpha                90
_cell_angle_beta                 107.8080(10)
_cell_angle_gamma                90
_cell_volume                     3269.49
loop_
_atom_site_label
_atom_site_type_symbol
_atom_site_fract_x
_atom_site_fract_y
_atom_site_fract_z
Cd1 Cd 0.740497(8) 0.722452(6) 0.646010(5)
N1 N 0.59990(10) 0.60979(7) 0.61683(6)
N2 N 0.84208(10) 0.59434(8) 0.68175(6)
O1 O 0.62974(9) 0.78458(6) 0.53366(5)
O2 O 0.78185(9) 0.70417(7) 0.52743(5)
O3 O 0.80962(8) 0.66710(7) 0.40460(5)
H1 H 0.8220 0.6688 0.4497
O4 O 0.61890(9) 0.76719(6) 0.71255(6)
O5 O 0.61642(9) 0.82405(7) 0.81771(5)
O6 O 0.43871(8) 0.92322(6) 0.81886(4)
H2 H 0.5024 0.8972 0.8363
C1 C 0.69100(12) 0.75086(9) 0.49642(7)
C2 C 0.65476(12) 0.76383(9) 0.41444(7)
C3 C 0.56184(11) 0.81742(9) 0.38087(7)
H3 H 0.5234 0.8474 0.4097
C4 C 0.52300(11) 0.82814(9) 0.30333(7)
C5 C 0.42380(13) 0.88102(11) 0.26816(9)
H4 H 0.3863 0.9110 0.2975
C6 C 0.38111(14) 0.89000(12) 0.19385(9)
H5 H 0.3153 0.9253 0.1722
C7 C 0.43829(13) 0.84483(11) 0.14964(9)
H6 H 0.4096 0.8507 0.0982
C8 C 0.53599(12) 0.79189(9) 0.18062(7)
H7 H 0.5715 0.7622 0.1500
C9 C 0.58280(11) 0.78256(8) 0.25985(7)
C10 C 0.68345(11) 0.73006(8) 0.29455(7)
C11 C 0.71608(12) 0.72005(8) 0.37053(7)
C12 C 0.7500 0.67928(12) 0.2500
H8 H 0.6916 0.6425 0.2157
H9 H 0.8084 0.6425 0.2843
C13 C 0.57938(12) 0.82160(9) 0.74750(7)
C14 C 0.48240(11) 0.88114(9) 0.70684(7)
C15 C 0.45709(12) 0.89337(9) 0.63085(7)
H10 H 0.5037 0.8647 0.6062
C16 C 0.36433(12) 0.94706(9) 0.58973(7)
C17 C 0.34520(15) 0.96276(11) 0.51332(8)
H11 H 0.3960 0.9379 0.4895
C18 C 0.25311(16) 1.01393(11) 0.47445(8)
H12 H 0.2421 1.0250 0.4244
C19 C 0.17592(15) 1.04956(10) 0.50913(8)
H13 H 0.1116 1.0830 0.4816
C20 C 0.19177(13) 1.03687(9) 0.58228(8)
H14 H 0.1373 1.0612 0.6037
C21 C 0.28853(12) 0.98771(9) 0.62707(7)
C22 C 0.31544(11) 0.97840(8) 0.70595(6)
C23 C 0.41225(11) 0.92772(9) 0.74384(6)
C24 C 0.2500 1.02880(11) 0.7500
H15 H 0.1915 1.0655 0.7158
H16 H 0.3085 1.0655 0.7842
C25 C 0.48028(14) 0.61733(11) 0.58715(10)
H17 H 0.4485 0.6723 0.5792
C26 C 0.40066(17) 0.55060(13) 0.56741(12)
H18 H 0.3179 0.5594 0.5466
C27 C 0.45009(18) 0.46837(13) 0.58012(13)
H19 H 0.3990 0.4213 0.5680
C28 C 0.57626(16) 0.45552(11) 0.61110(11)
C29 C 0.62755(19) 0.37522(12) 0.62351(15)
H20 H 0.5796 0.3267 0.6101
C30 C 0.74735(19) 0.36820(12) 0.65509(14)
H21 H 0.7813 0.3139 0.6628
C31 C 0.82449(16) 0.43971(11) 0.67726(12)
C32 C 0.94883(19) 0.43538(14) 0.71100(14)
H22 H 0.9857 0.3821 0.7211
C33 C 1.01952(17) 0.50820(14) 0.73008(12)
H23 H 1.1026 0.5051 0.7531
C34 C 0.95980(14) 0.58626(11) 0.71304(9)
H24 H 1.0059 0.6358 0.7245
C35 C 0.77418(13) 0.52310(9) 0.66325(8)
C36 C 0.64645(13) 0.53103(10) 0.62973(8)
Cd1A Cd 0.759503(8) 0.722452(6) -0.146010(5)
Cd1A_2 Cd 0.759503(8) 0.722452(6) 0.853990(5)
Cd1A_3 Cd -0.240497(8) 0.722452(6) 0.853990(5)
Cd1_2 Cd -0.259503(8) 0.722452(6) 0.646010(5)
N1A N 0.90010(10) 0.60979(7) -0.11683(6)
N2A N 0.65792(10) 0.59434(8) -0.18175(6)
O1A O 0.87026(9) 0.78458(6) -0.03366(5)
O2A O 0.71815(9) 0.70417(7) -0.02743(5)
O3A O 0.69038(8) 0.66710(7) 0.09540(5)
H1A H 0.6780 0.6688 0.0503
O4A O -0.11890(9) 0.76719(6) 0.78745(6)
O4A_2 O 0.88110(9) 0.76719(6) 0.78745(6)
O4A_3 O 0.88110(9) 0.76719(6) -0.21255(6)
O4_2 O 0.61890(9) 0.76719(6) -0.28745(6)
O5A O -0.11642(9) 0.82405(7) 0.68229(5)
O5A_2 O 0.88358(9) 0.82405(7) 0.68229(5)
O5_2 O 0.61642(9) 0.82405(7) -0.18229(5)
O6A O 0.06129(8) 0.92322(6) 0.68114(4)
H2A H -0.0024 0.8972 0.6637
C1A C 0.80900(12) 0.75086(9) 0.00358(7)
C2A C 0.84524(12) 0.76383(9) 0.08556(7)
C3A C 0.93816(11) 0.81742(9) 0.11913(7)
H3A H 0.9766 0.8474 0.0903
C4A C 0.97700(11) 0.82814(9) 0.19667(7)
C5A C 1.07620(13) 0.88102(11) 0.23184(9)
H4A H 1.1137 0.9110 0.2025
C6A C 1.11889(14) 0.89000(12) 0.30615(9)
H5A H 1.1847 0.9253 0.3278
C7A C 1.06171(13) 0.84483(11) 0.35036(9)
H6A H 1.0904 0.8507 0.4018
C8A C 0.96401(12) 0.79189(9) 0.31938(7)
H7A H 0.9285 0.7622 0.3500
C9A C 0.91720(11) 0.78256(8) 0.24015(7)
C10A C 0.81655(11) 0.73006(8) 0.20545(7)
C11A C 0.78392(12) 0.72005(8) 0.12947(7)
C13A C -0.07938(12) 0.82160(9) 0.75250(7)
C14A C 0.01760(11) 0.88114(9) 0.79316(7)
C15A C 0.04291(12) 0.89337(9) 0.86915(7)
H10A H -0.0037 0.8647 0.8938
C16A C 0.13567(12) 0.94706(9) 0.91027(7)
C17A C 0.15480(15) 0.96276(11) 0.98668(8)
H11A H 0.1040 0.9379 1.0105
C18A C 0.24689(16) 1.01393(11) 1.02555(8)
H12A H 0.2579 1.0250 1.0756
C19A C 0.32408(15) 1.04956(10) 0.99087(8)
H13A H 0.3884 1.0830 1.0184
C20A C 0.30823(13) 1.03687(9) 0.91772(8)
H14A H 0.3627 1.0612 0.8963
C21A C 0.21147(12) 0.98771(9) 0.87293(7)
C22A C 0.18456(11) 0.97840(8) 0.79405(6)
C23A C 0.08775(11) 0.92772(9) 0.75616(6)
C25A C 1.01972(14) 0.61733(11) -0.08715(10)
H17A H 1.0515 0.6723 -0.0792
C26A C 1.09934(17) 0.55060(13) -0.06741(12)
H18A H 1.1821 0.5594 -0.0466
C27A C 1.04991(18) 0.46837(13) -0.08012(13)
H19A H 1.1010 0.4213 -0.0680
C28A C 0.92374(16) 0.45552(11) -0.11110(11)
C29A C 0.87245(19) 0.37522(12) -0.12351(15)
H20A H 0.9204 0.3267 -0.1101
C30A C 0.75265(19) 0.36820(12) -0.15509(14)
H21A H 0.7187 0.3139 -0.1628
C31A C 0.67551(16) 0.43971(11) -0.17726(12)
C32A C 0.55117(19) 0.43538(14) -0.21100(14)
H22A H 0.5143 0.3821 -0.2211
C33A C 0.48048(17) 0.50820(14) -0.23008(12)
H23A H 0.3974 0.5051 -0.2531
C34A C 0.54020(14) 0.58626(11) -0.21304(9)
H24A H 0.4941 0.6358 -0.2245
C35A C 0.72582(13) 0.52310(9) -0.16325(8)
C36A C 0.85355(13) 0.53103(10) -0.12973(8)
C37 C 0.3229(5) 0.7393(2) 0.86335(14)
H25 H 0.3852 0.7598 0.8431
H26 H 0.2572 0.7803 0.8479
O7 O 0.3682(4) 0.7488(3) 0.93595(15)
H27 H 0.4159 0.7099 0.9531
C38 C 0.2757(4) 0.6602(2) 0.8217(2)
H28 H 0.3320 0.6144 0.8399
H29 H 0.2654 0.6690 0.7698
H30 H 0.1993 0.6458 0.8282
O8 O 0.4338(6) 0.5121(5) 0.9510(3)
loop_
_geom_bond_atom_site_label_1
_geom_bond_atom_site_label_2
_geom_bond_site_symmetry_1
_geom_bond_site_symmetry_2
Cd1 N1 1_555 1_555
N1 C25 1_555 1_555
N2 Cd1 1_555 1_555
O1 Cd1 1_555 1_555
O2 Cd1 1_555 1_555
O3 H1 1_555 1_555
O4 Cd1 1_555 1_555
O5 C13 1_555 1_555
O6 H2 1_555 1_555
C1 O1 1_555 1_555
C2 C1 1_555 1_555
C3 C2 1_555 1_555
H3 C3 1_555 1_555
C4 C3 1_555 1_555
C5 C4 1_555 1_555
H4 C5 1_555 1_555
C6 C5 1_555 1_555
H5 C6 1_555 1_555
C7 C6 1_555 1_555
H6 C7 1_555 1_555
C8 C7 1_555 1_555
H7 C8 1_555 1_555
C9 C4 1_555 1_555
C10 C9 1_555 1_555
C11 O3 1_555 1_555
C12 C10 1_555 1_555
H8 C12 1_555 1_555
H9 C12 1_555 1_555
C13 O4 1_555 1_555
C14 C13 1_555 1_555
C15 C14 1_555 1_555
H10 C15 1_555 1_555
C16 C15 1_555 1_555
C17 C16 1_555 1_555
H11 C17 1_555 1_555
C18 C17 1_555 1_555
H12 C18 1_555 1_555
C19 C18 1_555 1_555
H13 C19 1_555 1_555
C20 C19 1_555 1_555
H14 C20 1_555 1_555
C21 C16 1_555 1_555
C22 C21 1_555 1_555
C23 O6 1_555 1_555
C24 C22 1_555 1_555
H15 C24 1_555 1_555
H16 C24 1_555 1_555
C25 H17 1_555 1_555
C26 C25 1_555 1_555
H18 C26 1_555 1_555
C27 C26 1_555 1_555
H19 C27 1_555 1_555
C28 C27 1_555 1_555
C29 C28 1_555 1_555
H20 C29 1_555 1_555
C30 C29 1_555 1_555
H21 C30 1_555 1_555
C31 C30 1_555 1_555
C32 C31 1_555 1_555
H22 C32 1_555 1_555
C33 C32 1_555 1_555
H23 C33 1_555 1_555
C34 N2 1_555 1_555
H24 C34 1_555 1_555
C35 N2 1_555 1_555
C36 N1 1_555 1_555
C37 H25 1_555 1_555
H26 C37 1_555 1_555
O7 C37 1_555 1_555
H27 O7 1_555 1_555
C38 C37 1_555 1_555
H28 C38 1_555 1_555
H29 C38 1_555 1_555
H30 C38 1_555 1_555
Cd1A N1A 1_555 1_555
Cd1A_2 O4 1_555 1_555
Cd1A_3 O4A 1_555 1_555
Cd1_2 O4A 1_555 1_555
N1A C25A 1_555 1_555
N2A Cd1A 1_555 1_555
O1A Cd1A 1_555 1_555
O2A Cd1A 1_555 1_555
O3A H1A 1_555 1_555
O4A C13A 1_555 1_555
O4A_2 Cd1 1_555 1_555
O4A_3 Cd1A 1_555 1_555
O4_2 Cd1A 1_555 1_555
O5A Cd1_2 1_555 1_555
O5A_2 Cd1 1_555 1_555
O5_2 Cd1A 1_555 1_555
O6A H2A 1_555 1_555
C1A O1A 1_555 1_555
C2A C1A 1_555 1_555
C3A C2A 1_555 1_555
H3A C3A 1_555 1_555
C4A C3A 1_555 1_555
C5A C4A 1_555 1_555
H4A C5A 1_555 1_555
C6A C5A 1_555 1_555
H5A C6A 1_555 1_555
C7A C6A 1_555 1_555
H6A C7A 1_555 1_555
C8A C7A 1_555 1_555
H7A C8A 1_555 1_555
C9A C4A 1_555 1_555
C10A C12 1_555 1_555
C11A O3A 1_555 1_555
C13A O5A 1_555 1_555
C14A C13A 1_555 1_555
C15A C14A 1_555 1_555
H10A C15A 1_555 1_555
C16A C15A 1_555 1_555
C17A C16A 1_555 1_555
H11A C17A 1_555 1_555
C18A C17A 1_555 1_555
H12A C18A 1_555 1_555
C19A C18A 1_555 1_555
H13A C19A 1_555 1_555
C20A C19A 1_555 1_555
H14A C20A 1_555 1_555
C21A C16A 1_555 1_555
C22A C24 1_555 1_555
C23A O6A 1_555 1_555
C25A H17A 1_555 1_555
C26A C25A 1_555 1_555
H18A C26A 1_555 1_555
C27A C26A 1_555 1_555
H19A C27A 1_555 1_555
C28A C27A 1_555 1_555
C29A C28A 1_555 1_555
H20A C29A 1_555 1_555
C30A C29A 1_555 1_555
H21A C30A 1_555 1_555
C31A C30A 1_555 1_555
C32A C31A 1_555 1_555
H22A C32A 1_555 1_555
C33A C32A 1_555 1_555
H23A C33A 1_555 1_555
C34A N2A 1_555 1_555
H24A C34A 1_555 1_555
C35A N2A 1_555 1_555
C36A N1A 1_555 1_555
O2 C1 1_555 1_555
O5 Cd1A_2 1_555 1_555
C2 C11 1_555 1_555
C8 C9 1_555 1_555
C10 C11 1_555 1_555
C14 C23 1_555 1_555
C20 C21 1_555 1_555
C22 C23 1_555 1_555
C28 C36 1_555 1_555
C31 C35 1_555 1_555
C33 C34 1_555 1_555
C35 C36 1_555 1_555
Cd1A_2 O4A_2 1_555 1_555
O2A C1A 1_555 1_555
C2A C11A 1_555 1_555
C8A C9A 1_555 1_555
C9A C10A 1_555 1_555
C10A C11A 1_555 1_555
C14A C23A 1_555 1_555
C20A C21A 1_555 1_555
C21A C22A 1_555 1_555
C22A C23A 1_555 1_555
C28A C36A 1_555 1_555
C31A C35A 1_555 1_555
C33A C34A 1_555 1_555
C35A C36A 1_555 1_555

#END
