
#######################################################################
#
#                 Cambridge Crystallographic Data Centre
#                                CCDC 
#
#######################################################################
#
# If this CIF has been generated from an entry in the Cambridge 
# Structural Database, then it will include bibliographic, chemical, 
# crystal, experimental, refinement or atomic coordinate data resulting 
# from the CCDC's data processing and validation procedures.
#
#######################################################################

data_RONGEI
_symmetry_cell_setting           monoclinic
_symmetry_space_group_name_H-M   'P 21/n'
_symmetry_Int_Tables_number      14
_space_group_name_Hall           '-P 2yn'
loop_
_symmetry_equiv_pos_site_id
_symmetry_equiv_pos_as_xyz
1 x,y,z
2 1/2-x,1/2+y,1/2-z
3 -x,-y,-z
4 1/2+x,1/2-y,1/2+z
_cell_length_a                   6.6614(6)
_cell_length_b                   10.2647(10)
_cell_length_c                   13.9371(6)
_cell_angle_alpha                90
_cell_angle_beta                 102.962(6)
_cell_angle_gamma                90
_cell_volume                     928.698
loop_
_atom_site_label
_atom_site_type_symbol
_atom_site_fract_x
_atom_site_fract_y
_atom_site_fract_z
Zn1 Zn -0.00838(6) 0.85931(4) 0.74133(3)
O1 O 0.2408(4) 0.8593(2) 0.85601(15)
N1 N 0.1595(5) 0.8783(3) 0.63945(19)
O2 O 0.0041(4) 0.8394(3) 0.93892(18)
N2 N -0.1309(5) 0.6849(3) 0.74352(18)
C1 C -0.2838(5) 0.6311(3) 0.7795(2)
N3 N 0.3872(5) 0.8749(3) 0.55296(19)
H1 H 0.4780 0.8472 0.5205
N4 N -0.2958(4) 0.5036(3) 0.75864(18)
N5 N 0.2043(5) 1.0028(3) 0.61545(19)
N6 N -0.0469(4) 0.5842(3) 0.70072(19)
N7 N 0.1882(5) 0.8275(3) 0.9369(2)
C2 C 0.2762(5) 0.7974(4) 0.5986(2)
N8 N -0.1425(4) 0.4783(3) 0.70962(19)
N9 N 0.3404(5) 1.0016(3) 0.56361(19)
N10 N 0.2845(5) 0.6692(3) 0.6032(2)
H2 H 0.3693 0.6265 0.5744
H3 H 0.2053 0.6264 0.6350
O3 O 0.3165(5) 0.7839(3) 1.00545(17)
N11 N -0.4023(5) 0.6953(3) 0.82983(19)
H4 H -0.4975 0.6532 0.8522
H5 H -0.3848 0.7794 0.8405
Zn1A Zn -0.49162(6) 0.35931(4) 0.75867(3)
N4A N -0.2042(4) 1.0036(3) 0.74136(18)
loop_
_geom_bond_atom_site_label_1
_geom_bond_atom_site_label_2
_geom_bond_site_symmetry_1
_geom_bond_site_symmetry_2
Zn1 O1 1_555 1_555
O1 N7 1_555 1_555
N1 Zn1 1_555 1_555
O2 N7 1_555 1_555
N2 Zn1 1_555 1_555
C1 N2 1_555 1_555
N3 H1 1_555 1_555
N4 C1 1_555 1_555
N5 N1 1_555 1_555
N6 N2 1_555 1_555
N7 O3 1_555 1_555
C2 N1 1_555 1_555
N8 N4 1_555 1_555
N9 N3 1_555 1_555
N10 C2 1_555 1_555
H2 N10 1_555 1_555
H3 N10 1_555 1_555
N11 C1 1_555 1_555
H4 N11 1_555 1_555
H5 N11 1_555 1_555
Zn1A N4 1_555 1_555
N4A Zn1 1_555 1_555
N3 C2 1_555 1_555
N5 N9 1_555 1_555
N6 N8 1_555 1_555

#END
