
#######################################################################
#
#                 Cambridge Crystallographic Data Centre
#                                CCDC 
#
#######################################################################
#
# If this CIF has been generated from an entry in the Cambridge 
# Structural Database, then it will include bibliographic, chemical, 
# crystal, experimental, refinement or atomic coordinate data resulting 
# from the CCDC's data processing and validation procedures.
#
#######################################################################

data_RONRER
_symmetry_cell_setting           orthorhombic
_symmetry_space_group_name_H-M   'P b a m'
_symmetry_Int_Tables_number      55
_space_group_name_Hall           '-P 2 2ab'
loop_
_symmetry_equiv_pos_site_id
_symmetry_equiv_pos_as_xyz
1 x,y,z
2 -x,-y,z
3 1/2+x,1/2-y,-z
4 1/2-x,1/2+y,-z
5 -x,-y,-z
6 x,y,-z
7 1/2-x,1/2+y,z
8 1/2+x,1/2-y,z
_cell_length_a                   10.562(2)
_cell_length_b                   13.406(4)
_cell_length_c                   9.827(4)
_cell_angle_alpha                90
_cell_angle_beta                 90
_cell_angle_gamma                90
_cell_volume                     1391.45
loop_
_atom_site_label
_atom_site_type_symbol
_atom_site_fract_x
_atom_site_fract_y
_atom_site_fract_z
In1 In 0.0536(1) 0.3517(1) -0.5000
In2 In 0.1743 0.2518 0.0000
In3 In 0.0000 0.5000 0.0000
P1 P -0.0800(1) 0.3079(1) -0.2045(2)
F1 F 0.0000 0.5000 -0.5000
F2 F 0.1676(4) 0.4110(3) 0.0000
O1 O 0.1457(9) 0.2067(7) -0.4249(12)
O2 O -0.0853(4) 0.3088(4) -0.3607(5)
O3 O -0.1931(4) 0.2459(3) -0.1583(5)
O4 O 0.0431(4) 0.2596(3) -0.1622(5)
O5 O -0.0902(4) 0.4141(3) -0.1516(7)
N1 N 0.2019(6) 0.4087(7) -0.6448(7)
C1 C 0.3062(9) 0.4495(11) -0.5681(10)
N2 N 0.1443(6) 0.0858(5) 0.0000
C2 C 0.0112(9) 0.0542(6) 0.0000
H1 H 0.1685 0.4571 -0.6970
H2 H 0.2283 0.3590 -0.6995
H3 H 0.3181 0.5173 -0.5967
H4 H 0.3799 0.4132 -0.5967
H5 H 0.2263 0.2128 -0.4347
H6 H 0.1273 0.1968 -0.3410
H7 H 0.1823 0.0599 0.0739
H8 H -0.0293 0.0820 -0.0788
C1E C 0.3062(9) 0.4495(11) -0.4319(10)
N1E N 0.2019(6) 0.4087(7) -0.3552(7)
H1E H 0.1685 0.4571 -0.3030
H2E H 0.2283 0.3590 -0.3005
H3E H 0.3181 0.5173 -0.4033
H4E H 0.3799 0.4132 -0.4033
C2A C -0.0112(9) -0.0542(6) 0.0000
N2A N -0.1443(6) -0.0858(5) 0.0000
H7A H -0.1823 -0.0599 0.0739
H7D H -0.1823 -0.0599 -0.0739
H8A H 0.0293 -0.0820 -0.0788
H8D H 0.0293 -0.0820 0.0788
H8E H -0.0293 0.0820 0.0788
H7E H 0.1823 0.0599 -0.0739
F2A F -0.1676(4) 0.5890(3) 0.0000
P1A P 0.0800(1) 0.6921(1) -0.2045(2)
O2A O 0.0853(4) 0.6912(4) -0.3607(5)
O3A O 0.1931(4) 0.7541(3) -0.1583(5)
O4A O -0.0431(4) 0.7404(3) -0.1622(5)
O5A O 0.0902(4) 0.5859(3) -0.1516(7)
P1D P 0.0800(1) 0.6921(1) 0.2045(2)
O2D O 0.0853(4) 0.6912(4) 0.3607(5)
O3D O 0.1931(4) 0.7541(3) 0.1583(5)
O4D O -0.0431(4) 0.7404(3) 0.1622(5)
O5D O 0.0902(4) 0.5859(3) 0.1516(7)
P1E P -0.0800(1) 0.3079(1) 0.2045(2)
O2E O -0.0853(4) 0.3088(4) 0.3607(5)
O3E O -0.1931(4) 0.2459(3) 0.1583(5)
O4E O 0.0431(4) 0.2596(3) 0.1622(5)
O5E O -0.0902(4) 0.4141(3) 0.1516(7)
In1A In -0.0536(1) 0.6483(1) -0.5000
In2A In -0.1743 0.7482 0.0000
O1E O 0.1457(9) 0.2067(7) -0.5751(12)
H5E H 0.2263 0.2128 -0.5653
H6E H 0.1273 0.1968 -0.6590
O1A O -0.1457(9) 0.7933(7) -0.4249(12)
H5A H -0.2263 0.7872 -0.4347
H6A H -0.1273 0.8032 -0.3410
O1D O -0.1457(9) 0.7933(7) -0.5751(12)
H5D H -0.2263 0.7872 -0.5653
H6D H -0.1273 0.8032 -0.6590
N1A N -0.2019(6) 0.5913(7) -0.6448(7)
C1A C -0.3062(9) 0.5505(11) -0.5681(10)
H1A H -0.1685 0.5429 -0.6970
H2A H -0.2283 0.6410 -0.6995
H3A H -0.3181 0.4827 -0.5967
H4A H -0.3799 0.5868 -0.5967
C1D C -0.3062(9) 0.5505(11) -0.4319(10)
N1D N -0.2019(6) 0.5913(7) -0.3552(7)
H1D H -0.1685 0.5429 -0.3030
H2D H -0.2283 0.6410 -0.3005
H3D H -0.3181 0.4827 -0.4033
H4D H -0.3799 0.5868 -0.4033
O2E_2 O -0.0853(4) 0.3088(4) -0.6393(5)
O3B O 0.3069(4) 0.2541(3) 0.1583(5)
O3G O 0.3069(4) 0.2541(3) -0.1583(5)
In2B In -0.3257 0.2482 0.0000
In2A_2 In -0.1743 -0.2518 0.0000
In2C In 0.3257 0.7518 0.0000
In1A_2 In -0.0536(1) 0.6483(1) 0.5000
In1_2 In 0.0536(1) 0.3517(1) 0.5000
O2D_2 O 0.0853(4) 0.6912(4) -0.6393(5)
O3C O -0.3069(4) 0.7459(3) 0.1583(5)
O3F O -0.3069(4) 0.7459(3) -0.1583(5)
N2A_2 N -0.1443(6) 0.9142(5) 0.0000
H7A_2 H -0.1823 0.9401 0.0739
H7D_2 H -0.1823 0.9401 -0.0739
loop_
_geom_bond_atom_site_label_1
_geom_bond_atom_site_label_2
_geom_bond_site_symmetry_1
_geom_bond_site_symmetry_2
In1 F1 1_555 1_555
In2 F2 1_555 1_555
In3 F2 1_555 1_555
P1 O2 1_555 1_555
F1 In1A 1_555 1_555
O1 In1 1_555 1_555
O2 In1 1_555 1_555
O3 P1 1_555 1_555
O4 In2 1_555 1_555
O5 In3 1_555 1_555
N1 In1 1_555 1_555
C1 N1 1_555 1_555
N2 In2 1_555 1_555
C2 N2 1_555 1_555
H1 N1 1_555 1_555
H2 N1 1_555 1_555
H3 C1 1_555 1_555
H4 C1 1_555 1_555
H5 O1 1_555 1_555
H6 O1 1_555 1_555
H7 N2 1_555 1_555
H8 C2 1_555 1_555
C1E C1 1_555 1_555
N1E In1 1_555 1_555
H1E N1E 1_555 1_555
H2E N1E 1_555 1_555
H3E C1E 1_555 1_555
H4E C1E 1_555 1_555
C2A C2 1_555 1_555
N2A C2A 1_555 1_555
H7A N2A 1_555 1_555
H7D N2A 1_555 1_555
H8A C2A 1_555 1_555
H8D C2A 1_555 1_555
H8E C2 1_555 1_555
H7E N2 1_555 1_555
F2A In3 1_555 1_555
P1A O2A 1_555 1_555
O2A In1A 1_555 1_555
O3A P1A 1_555 1_555
O4A P1A 1_555 1_555
O5A In3 1_555 1_555
P1D O2D 1_555 1_555
O2D In1A_2 1_555 1_555
O3D P1D 1_555 1_555
O4D P1D 1_555 1_555
O5D In3 1_555 1_555
P1E O2E 1_555 1_555
O2E In1_2 1_555 1_555
O3E P1E 1_555 1_555
O4E In2 1_555 1_555
O5E In3 1_555 1_555
In1A O1A 1_555 1_555
In2A F2A 1_555 1_555
O1E In1 1_555 1_555
H5E O1E 1_555 1_555
H6E O1E 1_555 1_555
O1A H5A 1_555 1_555
H6A O1A 1_555 1_555
O1D In1A 1_555 1_555
H5D O1D 1_555 1_555
H6D O1D 1_555 1_555
N1A In1A 1_555 1_555
C1A N1A 1_555 1_555
H1A N1A 1_555 1_555
H2A N1A 1_555 1_555
H3A C1A 1_555 1_555
H4A C1A 1_555 1_555
C1D C1A 1_555 1_555
N1D In1A 1_555 1_555
H1D N1D 1_555 1_555
H2D N1D 1_555 1_555
H3D C1D 1_555 1_555
H4D C1D 1_555 1_555
O2E_2 In1 1_555 1_555
O3B In2 1_555 1_555
O3G In2 1_555 1_555
In2B O3 1_555 1_555
In2A_2 N2A 1_555 1_555
In2C O3A 1_555 1_555
O2D_2 In1A 1_555 1_555
O3C In2A 1_555 1_555
O3F In2A 1_555 1_555
N2A_2 In2A 1_555 1_555
H7A_2 N2A_2 1_555 1_555
H7D_2 N2A_2 1_555 1_555
P1 O4 1_555 1_555
P1 O5 1_555 1_555
C1E N1E 1_555 1_555
P1A O5A 1_555 1_555
O4A In2A 1_555 1_555
P1D O5D 1_555 1_555
O3D In2C 1_555 1_555
O4D In2A 1_555 1_555
P1E O4E 1_555 1_555
P1E O5E 1_555 1_555
O3E In2B 1_555 1_555
C1D N1D 1_555 1_555

#END
