
#######################################################################
#
#                 Cambridge Crystallographic Data Centre
#                                CCDC 
#
#######################################################################
#
# If this CIF has been generated from an entry in the Cambridge 
# Structural Database, then it will include bibliographic, chemical, 
# crystal, experimental, refinement or atomic coordinate data resulting 
# from the CCDC's data processing and validation procedures.
#
#######################################################################

data_RONRAN
_symmetry_cell_setting           monoclinic
_symmetry_space_group_name_H-M   'P 21/c'
_symmetry_Int_Tables_number      14
_space_group_name_Hall           '-P 2ybc'
loop_
_symmetry_equiv_pos_site_id
_symmetry_equiv_pos_as_xyz
1 x,y,z
2 -x,1/2+y,1/2-z
3 -x,-y,-z
4 x,1/2-y,1/2+z
_cell_length_a                   9.214(2)
_cell_length_b                   7.781(2)
_cell_length_c                   10.049(2)
_cell_angle_alpha                90
_cell_angle_beta                 101.68(2)
_cell_angle_gamma                90
_cell_volume                     705.536
loop_
_atom_site_label
_atom_site_type_symbol
_atom_site_fract_x
_atom_site_fract_y
_atom_site_fract_z
In1 In 0.5088(1) 0.6170(1) 0.2628(1)
P1 P 0.7136(2) 0.6347(3) 0.5840(1)
F1 F 0.5749(5) 0.3678(6) 0.2134(4)
O1 O 0.6816(7) 0.6448(10) 0.4287(5)
O2 O 0.6520(9) 0.7048(8) 0.1408(7)
O3 O 0.3531(7) 0.5301(7) 0.3719(6)
O4 O 0.8818(6) 0.6328(9) 0.6269(5)
N1 N 0.3397(9) 0.5941(11) 0.0690(6)
C1 C 0.2006(8) 0.6912(11) 0.0494(7)
C2 C 0.1068(8) 0.6690(11) -0.0911(7)
N2 N -0.0064(7) 0.8028(9) -0.1245(6)
H1 H 0.3864 0.6464 0.0097
H2 H 0.3294 0.4869 0.0347
H3 H 0.2204 0.8110 0.0674
H4 H 0.1454 0.6484 0.1138
H5 H 0.0584 0.5592 -0.0970
H6 H 0.1701 0.6705 -0.1561
H7 H -0.0748 0.7923 -0.0725
H8 H -0.0496 0.7953 -0.2130
H9 H 0.0385 0.9058 -0.1108
In1A In 0.4912(1) 0.1170(1) 0.2372(1)
In1B In 0.4912(1) 0.3830(1) 0.7372(1)
In1C In 0.5088(1) 0.8830(1) 0.7628(1)
O2C O 0.6520(9) 0.7952(8) 0.6408(7)
O3B O 0.6469(7) 0.4699(7) 0.6281(6)
F1A F 0.4251(5) 0.8678(6) 0.2866(4)
loop_
_geom_bond_atom_site_label_1
_geom_bond_atom_site_label_2
_geom_bond_site_symmetry_1
_geom_bond_site_symmetry_2
In1 F1 1_555 1_555
P1 O1 1_555 1_555
F1 In1A 1_555 1_555
O1 In1 1_555 1_555
O2 In1 1_555 1_555
O3 In1 1_555 1_555
O4 P1 1_555 1_555
N1 In1 1_555 1_555
C1 N1 1_555 1_555
C2 C1 1_555 1_555
N2 C2 1_555 1_555
H1 N1 1_555 1_555
H2 N1 1_555 1_555
H3 C1 1_555 1_555
H4 C1 1_555 1_555
H5 C2 1_555 1_555
H6 C2 1_555 1_555
H7 N2 1_555 1_555
H8 N2 1_555 1_555
H9 N2 1_555 1_555
In1B O3B 1_555 1_555
In1C O2C 1_555 1_555
O2C P1 1_555 1_555
O3B P1 1_555 1_555
F1A In1 1_555 1_555

#END
