
#######################################################################
#
#                 Cambridge Crystallographic Data Centre
#                                CCDC 
#
#######################################################################
#
# If this CIF has been generated from an entry in the Cambridge 
# Structural Database, then it will include bibliographic, chemical, 
# crystal, experimental, refinement or atomic coordinate data resulting 
# from the CCDC's data processing and validation procedures.
#
#######################################################################

data_RONZUP
_symmetry_cell_setting           orthorhombic
_symmetry_space_group_name_H-M   'I 21 21 21'
_symmetry_Int_Tables_number      24
_space_group_name_Hall           'I 2b 2c'
loop_
_symmetry_equiv_pos_site_id
_symmetry_equiv_pos_as_xyz
1 x,y,z
2 1/2-x,-y,1/2+z
3 1/2+x,1/2-y,-z
4 -x,1/2+y,1/2-z
5 1/2+x,1/2+y,1/2+z
6 -x,1/2-y,z
7 x,-y,1/2-z
8 1/2-x,y,-z
_cell_length_a                   12.861(2)
_cell_length_b                   12.438(3)
_cell_length_c                   13.105(2)
_cell_angle_alpha                90
_cell_angle_beta                 90
_cell_angle_gamma                90
_cell_volume                     2096.34
loop_
_atom_site_label
_atom_site_type_symbol
_atom_site_fract_x
_atom_site_fract_y
_atom_site_fract_z
Cd1 Cd 0.50000 0.25000 0.37772(7)
Ag1 Ag 0.23792(6) 0.48183(5) 0.1234(1)
C1 C 0.3396(7) 0.3791(7) 0.1993(6)
N1 N 0.3980(5) 0.3333(6) 0.2502(6)
C2 C 0.1336(6) 0.5872(7) 0.0556(6)
N2 N 0.0868(6) 0.6460(6) 0.0094(6)
N3 N 0.1240(5) 0.8832(4) -0.1206(5)
C3 C 0.2253(6) 0.8621(7) -0.1205(7)
C4 C 0.2998(8) 0.943(1) -0.1248(9)
C5 C 0.266(1) 1.051(1) -0.127(1)
C6 C 0.159(1) 1.0722(8) -0.125(1)
C7 C 0.0923(7) 0.9870(6) -0.1241(7)
Cd1A Cd 0.00000 0.75000 -0.12228(7)
N1A N 0.1020(5) 0.6667(6) -0.2498(6)
C1A C 0.1604(7) 0.6209(7) -0.3007(6)
Ag1A Ag 0.26208(6) 0.51817(5) -0.3766(1)
C2A C 0.3664(6) 0.4128(7) -0.4444(6)
N2A N 0.4132(6) 0.3540(6) -0.4906(6)
Cd1_2 Cd 0.50000 0.25000 -0.62228(7)
N1D N -0.1020(5) 0.8333(6) -0.2498(6)
N2E N -0.0868(6) 0.8540(6) 0.0094(6)
N3E N -0.1240(5) 0.6168(4) -0.1206(5)
C3E C -0.2253(6) 0.6379(7) -0.1205(7)
C4E C -0.2998(8) 0.557(1) -0.1248(9)
C5E C -0.266(1) 0.449(1) -0.127(1)
C6E C -0.159(1) 0.4278(8) -0.125(1)
C7E C -0.0923(7) 0.5130(6) -0.1241(7)
N4 N 0.00000 0.25000 0.256(1)
C8 C 0.033(1) 0.331(1) 0.196(1)
C9 C 0.024(1) 0.302(1) 0.0876(9)
C9E C -0.024(1) 0.198(1) 0.0876(9)
C8E C -0.033(1) 0.169(1) 0.196(1)
loop_
_geom_bond_atom_site_label_1
_geom_bond_atom_site_label_2
_geom_bond_site_symmetry_1
_geom_bond_site_symmetry_2
Cd1 N1 1_555 1_555
Ag1 C1 1_555 1_555
C1 N1 1_555 1_555
C2 Ag1 1_555 1_555
N2 C2 1_555 1_555
N3 C3 1_555 1_555
C3 C4 1_555 1_555
C4 C5 1_555 1_555
C5 C6 1_555 1_555
C6 C7 1_555 1_555
C7 N3 1_555 1_555
N4 C8 1_555 1_555
C8 C9 1_555 1_555
C9 C9E 1_555 1_555
Cd1A N2 1_555 1_555
N1A Cd1A 1_555 1_555
C1A N1A 1_555 1_555
Ag1A C1A 1_555 1_555
C2A Ag1A 1_555 1_555
N2A C2A 1_555 1_555
Cd1_2 N2A 1_555 1_555
N1D Cd1A 1_555 1_555
N2E Cd1A 1_555 1_555
N3E Cd1A 1_555 1_555
C3E N3E 1_555 1_555
C4E C3E 1_555 1_555
C5E C4E 1_555 1_555
C6E C5E 1_555 1_555
C7E N3E 1_555 1_555
C9E C8E 1_555 1_555
C8E N4 1_555 1_555
N3 Cd1A 1_555 1_555
C6E C7E 1_555 1_555

#END
