
#######################################################################
#
#                 Cambridge Crystallographic Data Centre
#                                CCDC 
#
#######################################################################
#
# If this CIF has been generated from an entry in the Cambridge 
# Structural Database, then it will include bibliographic, chemical, 
# crystal, experimental, refinement or atomic coordinate data resulting 
# from the CCDC's data processing and validation procedures.
#
#######################################################################

data_ROPBAZ
_symmetry_cell_setting           monoclinic
_symmetry_space_group_name_H-M   'C 2/m'
_symmetry_Int_Tables_number      12
_space_group_name_Hall           '-C 2y'
loop_
_symmetry_equiv_pos_site_id
_symmetry_equiv_pos_as_xyz
1 x,y,z
2 -x,y,-z
3 1/2+x,1/2+y,z
4 1/2-x,1/2+y,-z
5 -x,-y,-z
6 x,-y,z
7 1/2-x,1/2-y,-z
8 1/2+x,1/2-y,z
_cell_length_a                   8.665(2)
_cell_length_b                   14.139(1)
_cell_length_c                   7.549(1)
_cell_angle_alpha                90
_cell_angle_beta                 93.15(2)
_cell_angle_gamma                90
_cell_volume                     923.464
loop_
_atom_site_label
_atom_site_type_symbol
_atom_site_fract_x
_atom_site_fract_y
_atom_site_fract_z
N1 N 0.0918(6) 0.6194(4) 0.1987(7)
C1 C 0.1463(8) 0.6654(5) 0.3059(8)
N2 N 0.2357(8) 0.5000 -0.1334(9)
C2 C 0.3059(8) 0.4174(5) -0.165(1)
C3 C 0.4555(8) 0.4151(6) -0.231(1)
C4 C 0.528(1) 0.5000 -0.266(1)
Cd1 Cd 0.0000 0.5000 0.0000
Ag1 Ag 0.2500 0.7500 0.5000
C3E C 0.4555(8) 0.5849(6) -0.231(1)
C2E C 0.3059(8) 0.5826(5) -0.165(1)
N1A N -0.0918(6) 0.6194(4) -0.1987(7)
C1A C -0.1463(8) 0.6654(5) -0.3059(8)
N1D N -0.0918(6) 0.3806(4) -0.1987(7)
C1D C -0.1463(8) 0.3346(5) -0.3059(8)
N1E N 0.0918(6) 0.3806(4) 0.1987(7)
C1E C 0.1463(8) 0.3346(5) 0.3059(8)
N2A N -0.2357(8) 0.5000 0.1334(9)
C2A C -0.3059(8) 0.4174(5) 0.165(1)
C3A C -0.4555(8) 0.4151(6) 0.231(1)
C4A C -0.528(1) 0.5000 0.266(1)
C3D C -0.4555(8) 0.5849(6) 0.231(1)
C2D C -0.3059(8) 0.5826(5) 0.165(1)
Ag1A Ag -0.2500 0.7500 -0.5000
C1F C 0.3537(8) 0.8346(5) 0.6941(8)
Ag1B Ag -0.2500 0.2500 -0.5000
Ag1C Ag 0.2500 0.2500 0.5000
C1G C -0.3537(8) 0.8346(5) -0.6941(8)
loop_
_geom_bond_atom_site_label_1
_geom_bond_atom_site_label_2
_geom_bond_site_symmetry_1
_geom_bond_site_symmetry_2
N1 C1 1_555 1_555
C1 Ag1 1_555 1_555
N2 C2 1_555 1_555
C2 C3 1_555 1_555
C3 C4 1_555 1_555
C4 C3E 1_555 1_555
Cd1 N1 1_555 1_555
Ag1 C1F 1_555 1_555
C3E C2E 1_555 1_555
C2E N2 1_555 1_555
N1A Cd1 1_555 1_555
C1A N1A 1_555 1_555
N1D Cd1 1_555 1_555
C1D N1D 1_555 1_555
N1E Cd1 1_555 1_555
C1E N1E 1_555 1_555
N2A Cd1 1_555 1_555
C2A N2A 1_555 1_555
C3A C2A 1_555 1_555
C4A C3A 1_555 1_555
C3D C4A 1_555 1_555
C2D N2A 1_555 1_555
Ag1A C1A 1_555 1_555
Ag1B C1D 1_555 1_555
Ag1C C1E 1_555 1_555
C1G Ag1A 1_555 1_555
N2 Cd1 1_555 1_555
C3D C2D 1_555 1_555

#END
