
#######################################################################
#
#                 Cambridge Crystallographic Data Centre
#                                CCDC 
#
#######################################################################
#
# If this CIF has been generated from an entry in the Cambridge 
# Structural Database, then it will include bibliographic, chemical, 
# crystal, experimental, refinement or atomic coordinate data resulting 
# from the CCDC's data processing and validation procedures.
#
#######################################################################

data_ROPVAT
_symmetry_cell_setting           monoclinic
_symmetry_space_group_name_H-M   'P 21/n'
_symmetry_Int_Tables_number      14
_space_group_name_Hall           '-P 2yn'
loop_
_symmetry_equiv_pos_site_id
_symmetry_equiv_pos_as_xyz
1 x,y,z
2 1/2+x,1/2-y,1/2+z
3 -x,-y,-z
4 1/2-x,1/2+y,1/2-z
_cell_length_a                   14.252(4)
_cell_length_b                   11.061(8)
_cell_length_c                   16.450(8)
_cell_angle_alpha                90
_cell_angle_beta                 90.17(3)
_cell_angle_gamma                90
_cell_volume                     2593.19
loop_
_atom_site_label
_atom_site_type_symbol
_atom_site_fract_x
_atom_site_fract_y
_atom_site_fract_z
N1 N 0.6929(4) 0.4242(6) 0.2737(4)
N2 N 0.7012(4) 0.2329(5) 0.3483(4)
N3 N 0.7093(4) 0.4257(5) 0.4223(4)
N4 N 0.5621(5) 0.3614(6) 0.3596(4)
C1 C 0.7258(6) 0.2980(7) 0.2732(5)
H1 H 0.7934(6) 0.2971(7) 0.2666(5)
H2 H 0.6984(6) 0.2563(7) 0.2270(5)
C2 C 0.7355(5) 0.4863(7) 0.3450(5)
H3 H 0.7145(5) 0.5697(7) 0.3463(5)
H4 H 0.8032(5) 0.4863(7) 0.3395(5)
C3 C 0.5886(5) 0.4230(7) 0.2846(5)
H5 H 0.5655(5) 0.5054(7) 0.2860(5)
H6 H 0.5596(5) 0.3824(7) 0.2387(5)
C4 C 0.6054(5) 0.4236(7) 0.4285(5)
H7 H 0.5876(5) 0.3833(7) 0.4785(5)
H8 H 0.5822(5) 0.5060(7) 0.4308(5)
C5 C 0.5968(5) 0.2365(6) 0.3582(5)
H9 H 0.5674(5) 0.1932(6) 0.3136(5)
H10 H 0.5798(5) 0.1962(6) 0.4084(5)
C6 C 0.7429(6) 0.2991(7) 0.4181(5)
H11 H 0.7268(6) 0.2577(7) 0.4681(5)
H12 H 0.8107(6) 0.2987(7) 0.4131(5)
N5 N 0.7192(5) 0.4382(6) 0.0277(4)
N6 N 0.7263(5) 0.2446(5) -0.0460(4)
N7 N 0.6218(5) 0.4051(6) -0.0928(4)
N8 N 0.7908(5) 0.4270(6) -0.1074(4)
C7 C 0.7304(6) 0.3055(7) 0.0351(5)
H13 H 0.6812(6) 0.2736(7) 0.0695(5)
H14 H 0.7902(6) 0.2878(7) 0.0608(5)
C8 C 0.7949(6) 0.4830(7) -0.0249(5)
H15 H 0.8550(6) 0.4649(7) 0.0000(5)
H16 H 0.7897(6) 0.5701(7) -0.0300(5)
C9 C 0.6288(6) 0.4622(7) -0.0118(5)
H17 H 0.6205(6) 0.5489(7) -0.0175(5)
H18 H 0.5787(6) 0.4320(7) 0.0224(5)
C10 C 0.8019(6) 0.2962(7) -0.0967(5)
H19 H 0.8621(6) 0.2799(7) -0.0713(5)
H20 H 0.8014(6) 0.2572(7) -0.1495(5)
C11 C 0.6348(6) 0.2732(6) -0.0831(5)
H21 H 0.5851(6) 0.2412(6) -0.0491(5)
H22 H 0.6304(6) 0.2344(6) -0.1358(5)
C12 C 0.6982(6) 0.4511(7) -0.1444(5)
H23 H 0.6949(6) 0.4127(7) -0.1973(5)
H24 H 0.6905(6) 0.5375(7) -0.1521(5)
O1 O 0.5690(5) 0.6210(7) 0.1390(4)
O2 O 0.6256(5) 0.5236(7) 0.6273(5)
H25 H 0.5590 0.6780 0.1811
H26 H 0.5086 0.5976 0.1198
H27 H 0.6351 0.4565 0.6636
H28 H 0.5701 0.5619 0.6463
Sb1 Sb 0.93021(4) 0.32887(5) 0.62471(3)
F1 F 0.9129(5) 0.2866(6) 0.7339(4)
F2 F 1.0526(4) 0.3835(7) 0.6507(5)
F3 F 0.9484(5) 0.3584(6) 0.5128(3)
F4 F 0.9864(5) 0.1758(6) 0.6106(4)
F5 F 0.8147(4) 0.2561(6) 0.5976(4)
F6 F 0.8730(5) 0.4835(6) 0.6364(4)
Ag1 Ag 0.73060(5) 0.53389(5) 0.15522(4)
Ag2 Ag 0.76086(5) 0.53677(5) 0.53090(4)
Ag1C Ag 0.76940(5) 0.03389(5) 0.34478(4)
Ag2C Ag 0.73914(5) 0.03677(5) -0.03090(4)
N2C N 0.7988(4) 0.7329(5) 0.1517(4)
N6C N 0.7737(5) 0.7446(5) 0.5460(4)
Sb2 Sb 0.48704(4) -0.16808(5) 0.32791(3)
F7 F 0.5450(5) -0.1609(6) 0.2235(4)
F8 F 0.4372(6) -0.1883(8) 0.4316(4)
F9 F 0.4203(5) -0.3048(6) 0.2912(4)
F10 F 0.3930(5) -0.0615(6) 0.2902(4)
F11 F 0.5817(4) -0.2802(5) 0.3587(4)
F12 F 0.5694(6) -0.0459(6) 0.3645(5)
loop_
_geom_bond_atom_site_label_1
_geom_bond_atom_site_label_2
_geom_bond_site_symmetry_1
_geom_bond_site_symmetry_2
N1 C1 1_555 1_555
N2 C1 1_555 1_555
N3 C2 1_555 1_555
N4 C3 1_555 1_555
C1 H1 1_555 1_555
H2 C1 1_555 1_555
C2 N1 1_555 1_555
H3 C2 1_555 1_555
H4 C2 1_555 1_555
C3 N1 1_555 1_555
H5 C3 1_555 1_555
H6 C3 1_555 1_555
C4 N3 1_555 1_555
H7 C4 1_555 1_555
H8 C4 1_555 1_555
C5 N2 1_555 1_555
H9 C5 1_555 1_555
H10 C5 1_555 1_555
C6 N2 1_555 1_555
H11 C6 1_555 1_555
H12 C6 1_555 1_555
N5 C7 1_555 1_555
N6 C7 1_555 1_555
N7 C9 1_555 1_555
N8 C8 1_555 1_555
C7 H13 1_555 1_555
H14 C7 1_555 1_555
C8 N5 1_555 1_555
H15 C8 1_555 1_555
H16 C8 1_555 1_555
C9 N5 1_555 1_555
H17 C9 1_555 1_555
H18 C9 1_555 1_555
C10 N6 1_555 1_555
H19 C10 1_555 1_555
H20 C10 1_555 1_555
C11 N6 1_555 1_555
H21 C11 1_555 1_555
H22 C11 1_555 1_555
C12 N7 1_555 1_555
H23 C12 1_555 1_555
H24 C12 1_555 1_555
O1 H25 1_555 1_555
O2 H27 1_555 1_555
H26 O1 1_555 1_555
H28 O2 1_555 1_555
Sb1 F1 1_555 1_555
F2 Sb1 1_555 1_555
F3 Sb1 1_555 1_555
F4 Sb1 1_555 1_555
F5 Sb1 1_555 1_555
F6 Sb1 1_555 1_555
Sb2 F7 1_555 1_555
F8 Sb2 1_555 1_555
F9 Sb2 1_555 1_555
F10 Sb2 1_555 1_555
F11 Sb2 1_555 1_555
F12 Sb2 1_555 1_555
Ag1 N1 1_555 1_555
Ag2 N3 1_555 1_555
Ag1C N2 1_555 1_555
Ag2C N6 1_555 1_555
N2C Ag1 1_555 1_555
N6C Ag2 1_555 1_555
N3 C6 1_555 1_555
N4 C4 1_555 1_555
N4 C5 1_555 1_555
N5 Ag1 1_555 1_555
N7 C11 1_555 1_555
N8 C10 1_555 1_555
N8 C12 1_555 1_555
O1 Ag1 1_555 1_555
O2 Ag2 1_555 1_555
F6 Ag2 1_555 1_555

#END
