
#######################################################################
#
#                 Cambridge Crystallographic Data Centre
#                                CCDC 
#
#######################################################################
#
# If this CIF has been generated from an entry in the Cambridge 
# Structural Database, then it will include bibliographic, chemical, 
# crystal, experimental, refinement or atomic coordinate data resulting 
# from the CCDC's data processing and validation procedures.
#
#######################################################################

data_ROPVEX
_symmetry_cell_setting           monoclinic
_symmetry_space_group_name_H-M   'I 2'
_symmetry_Int_Tables_number      5
_space_group_name_Hall           'I 2y'
loop_
_symmetry_equiv_pos_site_id
_symmetry_equiv_pos_as_xyz
1 x,y,z
2 -x,y,-z
3 1/2+x,1/2+y,1/2+z
4 1/2-x,1/2+y,1/2-z
_cell_length_a                   19.552(6)
_cell_length_b                   10.856(6)
_cell_length_c                   25.749(11)
_cell_angle_alpha                90
_cell_angle_beta                 92.83(3)
_cell_angle_gamma                90
_cell_volume                     5458.73
loop_
_atom_site_label
_atom_site_type_symbol
_atom_site_fract_x
_atom_site_fract_y
_atom_site_fract_z
P1 P 0.9361(4) 0.3322(10) -0.1732(3)
F1 F 0.9688(12) 0.3856(24) -0.2238(8)
F2 F 0.9795(27) 0.4148(49) -0.1360(19)
F3 F 0.8776(18) 0.4291(36) -0.1806(17)
F4 F 0.8979(17) 0.2788(33) -0.1271(11)
F5 F 0.8876(21) 0.2608(42) -0.2128(16)
F6 F 0.9891(28) 0.2272(47) -0.1769(26)
P2 P 1.0813(5) 0.7320(12) -0.1612(4)
F7 F 1.1251(16) 0.7821(33) -0.2068(11)
F8 F 1.0397(20) 0.6792(43) -0.1169(13)
F9 F 1.1379(29) 0.6434(61) -0.1389(26)
F10 F 1.0146(22) 0.7973(61) -0.1807(25)
F11 F 1.1111(36) 0.8395(54) -0.1278(25)
F12 F 1.0628(29) 0.6232(41) -0.1980(19)
P3 P 0.8457(7) 0.1358(10) 0.0167(5)
F13 F 0.9172(19) 0.1802(66) 0.0015(25)
F14 F 0.8323(35) 0.2737(25) 0.0095(25)
F15 F 0.8630(38) -0.0020(27) 0.0200(27)
F16 F 0.7770(23) 0.0750(71) 0.0290(28)
F17 F 0.8224(28) 0.1404(60) -0.0411(10)
F18 F 0.8590(44) 0.1500(98) 0.0761(12)
P4 P 0.9212(6) 0.1284(16) -0.3453(5)
F19 F 0.8600(15) 0.1845(35) -0.3175(13)
F20 F 0.9826(18) 0.0841(47) -0.3750(17)
F21 F 0.8911(19) 0.1804(38) -0.3966(11)
F22 F 0.8748(23) 0.0171(38) -0.3632(18)
F23 F 0.9651(21) 0.2492(31) -0.3365(18)
F24 F 0.9483(25) 0.0664(50) -0.2946(14)
P5 P 0.6702(7) 0.4378(14) 0.1140(5)
F25 F 0.6055(19) 0.3598(46) 0.1018(18)
F26 F 0.7318(17) 0.5218(36) 0.1289(16)
F27 F 0.7002(23) 0.3376(40) 0.1518(16)
F28 F 0.6448(34) 0.5487(49) 0.0807(24)
F29 F 0.7141(24) 0.3924(56) 0.0703(16)
F30 F 0.6252(27) 0.5064(54) 0.1525(18)
Ag1 Ag 1.0000 -0.3628(4) 0.0000
Ag2 Ag 0.69866(15) -0.3122(3) 0.28171(15)
Ag3 Ag 0.49838(12) 0.0610(3) 0.18134(12)
Ag4 Ag 0.7162(2) -0.1823(3) 0.04941(12)
Ag5 Ag 0.74151(14) -0.6519(3) -0.08145(10)
Ag6 Ag 0.79550(12) -0.1641(3) -0.18227(9)
N1 N 0.8856(11) -0.3420(21) -0.0330(9)
N2 N 0.7751(11) -0.2727(21) -0.0134(8)
N3 N 0.7849(11) -0.4686(22) -0.0626(9)
N4 N 0.8101(11) -0.2617(21) -0.1026(8)
C1 C 0.8475(15) -0.2888(31) 0.0062(12)
H1 H 0.8669(15) -0.2095(31) 0.0161(12)
H2 H 0.8492(15) -0.3415(31) 0.0367(12)
C2 C 0.8581(14) -0.4718(27) -0.0405(11)
H3 H 0.8864(14) -0.5165(27) -0.0641(11)
H4 H 0.8600(14) -0.5147(27) -0.0074(11)
C3 C 0.8811(14) -0.2808(29) -0.0827(11)
H5 H 0.9052(14) -0.3295(29) -0.1076(11)
H6 H 0.9039(14) -0.2015(29) -0.0794(11)
C4 C 0.7453(14) -0.3987(26) -0.0235(11)
H7 H 0.7458(14) -0.4446(26) 0.0089(11)
H8 H 0.6980(14) -0.3907(26) -0.0363(11)
C5 C 0.7717(17) -0.2034(34) -0.0609(12)
H9 H 0.7899(17) -0.1216(34) -0.0542(12)
H10 H 0.7241(17) -0.1946(34) -0.0729(12)
C6 C 0.7808(15) -0.3926(29) -0.1101(11)
H11 H 0.7333(15) -0.3865(29) -0.1224(11)
H12 H 0.8056(15) -0.4340(29) -0.1368(11)
N5 N 0.6019(11) -0.0121(23) 0.1798(9)
N6 N 0.6835(12) -0.1615(28) 0.2205(9)
N7 N 0.6894(12) -0.1083(24) 0.1276(10)
N8 N 0.7735(12) -0.4571(24) 0.3066(9)
C7 C 0.6168(14) -0.1157(26) 0.2190(10)
H13 H 0.6072(14) -0.0858(26) 0.2534(10)
H14 H 0.5855(14) -0.1832(26) 0.2109(10)
C8 C 0.6164(19) -0.0630(39) 0.1305(14)
H15 H 0.6078(19) -0.0008(39) 0.1039(14)
H16 H 0.5854(19) -0.1311(39) 0.1230(14)
C9 C 0.6518(14) 0.0908(28) 0.1949(12)
H17 H 0.6433(14) 0.1200(28) 0.2296(12)
H18 H 0.6452(14) 0.1592(28) 0.1709(12)
C10 C 0.6942(17) -0.2122(31) 0.1670(12)
H19 H 0.6596(17) -0.2739(31) 0.1582(12)
H20 H 0.7388(17) -0.2511(31) 0.1664(12)
C11 C 0.7318(13) -0.0632(26) 0.2339(10)
H21 H 0.7779(13) -0.0961(26) 0.2354(10)
H22 H 0.7226(13) -0.0311(26) 0.2680(10)
C12 C 0.7380(15) -0.0088(29) 0.1419(11)
H23 H 0.7843(15) -0.0406(29) 0.1416(11)
H24 H 0.7336(15) 0.0562(29) 0.1161(11)
N9 N 0.8046(11) -0.2967(23) -0.2581(9)
N10 N 0.7089(11) -0.7820(22) -0.1490(9)
N11 N 0.7292(12) 0.0204(23) -0.1901(9)
N12 N 0.3881(11) 0.1070(21) 0.1871(8)
C13 C 0.7859(15) -0.2163(30) -0.3012(11)
H25 H 0.8159(15) -0.1451(30) -0.3004(11)
H26 H 0.7393(15) -0.1874(30) -0.2980(11)
C14 C 0.7664(13) -0.4085(25) -0.2612(10)
H27 H 0.7187(13) -0.3891(25) -0.2566(10)
H28 H 0.7819(13) -0.4608(25) -0.2324(10)
C15 C 0.8759(14) -0.3298(28) -0.2617(11)
H29 H 0.8894(14) -0.3845(28) -0.2332(11)
H30 H 0.9039(14) -0.2562(28) -0.2585(11)
C16 C 0.7464(13) -0.8966(25) -0.1480(10)
H31 H 0.7386(13) -0.9384(25) -0.1155(10)
H32 H 0.7949(13) -0.8780(25) -0.1483(10)
C17 C 0.6348(12) -0.8147(27) -0.1452(10)
H33 H 0.6284(12) -0.8560(27) -0.1124(10)
H34 H 0.6076(12) -0.7399(27) -0.1460(10)
C18 C 0.6531(13) -0.0058(25) -0.1873(10)
H35 H 0.6380(13) -0.0560(25) -0.2168(10)
H36 H 0.6455(13) -0.0525(25) -0.1560(10)
O2 O 1.0000 -0.1290(64) 0.0000
O3 O 0.6465(18) -0.1738(41) 0.3456(14)
O4 O 0.5876(26) -0.4110(51) 0.2623(19)
O5 O 0.6552(23) -0.7337(41) -0.0231(17)
O6 O 0.8996(15) -0.0398(29) -0.1978(12)
O7 O 0.5162(21) 0.2967(42) 0.1939(15)
P6 P 0.5668(12) -0.0470(37) -0.0260(9)
F31 F 0.6437(19) -0.0218(77) -0.0348(30)
F32 F 0.6023(41) -0.1546(65) 0.0054(30)
F33 F 0.5235(30) 0.0381(56) -0.0627(22)
N1A N 1.1144(11) -0.3420(21) 0.0330(9)
C9C C 0.8482(14) -0.4092(28) 0.3051(12)
C11C C 0.7682(13) -0.5632(26) 0.2661(10)
C12C C 0.7620(15) -0.5088(29) 0.3581(11)
N8C N 0.7265(12) 0.0429(24) 0.1934(9)
C13C C 0.7141(15) -0.7163(30) -0.1988(11)
C14C C 0.7336(13) 0.0915(25) -0.2388(10)
C16_2 C 0.7464(13) 0.1034(25) -0.1480(10)
C15B C 0.3759(14) 0.1702(28) 0.2383(11)
C17A C 0.3652(12) 0.1853(27) 0.1452(10)
C18A C 0.3469(13) -0.0058(25) 0.1873(10)
N10C N 0.7911(11) -0.2820(22) -0.3510(9)
N11C N 0.7708(12) -0.4796(23) -0.3099(9)
N12B N 0.8881(11) -0.3930(21) -0.3129(8)
N11_2 N 0.7292(12) -0.9796(23) -0.1901(9)
N12A N 0.6119(11) -0.8930(21) -0.1871(8)
N12A_2 N 0.6119(11) 0.1070(21) -0.1871(8)
O1? O 0.9905(34) -0.5806(68) 0.0272(24)
O8? O 0.4718(24) 0.5031(48) 0.3995(17)
F34? F 0.5000 -0.072(10) 0.0000
F35? F 0.5998(40) 0.0370(68) 0.0167(26)
F36? F 0.5504(83) -0.141(13) -0.0702(51)
loop_
_geom_bond_atom_site_label_1
_geom_bond_atom_site_label_2
_geom_bond_site_symmetry_1
_geom_bond_site_symmetry_2
Ag1 N1 1_555 1_555
Ag2 N6 1_555 1_555
Ag3 N5 1_555 1_555
Ag4 N2 1_555 1_555
Ag5 N3 1_555 1_555
Ag6 N4 1_555 1_555
N1 C1 1_555 1_555
N2 C1 1_555 1_555
N3 C2 1_555 1_555
N4 C3 1_555 1_555
C1 H1 1_555 1_555
H2 C1 1_555 1_555
C2 N1 1_555 1_555
H3 C2 1_555 1_555
H4 C2 1_555 1_555
C3 N1 1_555 1_555
H5 C3 1_555 1_555
H6 C3 1_555 1_555
C4 N2 1_555 1_555
H7 C4 1_555 1_555
H8 C4 1_555 1_555
C5 N2 1_555 1_555
H9 C5 1_555 1_555
H10 C5 1_555 1_555
C6 N3 1_555 1_555
H11 C6 1_555 1_555
H12 C6 1_555 1_555
N5 C7 1_555 1_555
N6 C7 1_555 1_555
N7 Ag4 1_555 1_555
N8 Ag2 1_555 1_555
C7 H13 1_555 1_555
H14 C7 1_555 1_555
C8 N5 1_555 1_555
H15 C8 1_555 1_555
H16 C8 1_555 1_555
C9 N5 1_555 1_555
H17 C9 1_555 1_555
H18 C9 1_555 1_555
C10 N6 1_555 1_555
H19 C10 1_555 1_555
H20 C10 1_555 1_555
C11 N6 1_555 1_555
H21 C11 1_555 1_555
H22 C11 1_555 1_555
C12 N7 1_555 1_555
H23 C12 1_555 1_555
H24 C12 1_555 1_555
N9 Ag6 1_555 1_555
N10 Ag5 1_555 1_555
N11 Ag6 1_555 1_555
N12 Ag3 1_555 1_555
C13 N9 1_555 1_555
H25 C13 1_555 1_555
H26 C13 1_555 1_555
C14 N9 1_555 1_555
H27 C14 1_555 1_555
H28 C14 1_555 1_555
C15 N9 1_555 1_555
H29 C15 1_555 1_555
H30 C15 1_555 1_555
C16 N10 1_555 1_555
H31 C16 1_555 1_555
H32 C16 1_555 1_555
C17 N10 1_555 1_555
H33 C17 1_555 1_555
H34 C17 1_555 1_555
C18 N11 1_555 1_555
H35 C18 1_555 1_555
H36 C18 1_555 1_555
O2 Ag1 1_555 1_555
O3 Ag2 1_555 1_555
O4 Ag2 1_555 1_555
O5 Ag5 1_555 1_555
O6 Ag6 1_555 1_555
O7 Ag3 1_555 1_555
P1 F1 1_555 1_555
F2 P1 1_555 1_555
F3 P1 1_555 1_555
F4 P1 1_555 1_555
F5 P1 1_555 1_555
F6 P1 1_555 1_555
P2 F7 1_555 1_555
F8 P2 1_555 1_555
F9 P2 1_555 1_555
F10 P2 1_555 1_555
F11 P2 1_555 1_555
F12 P2 1_555 1_555
P3 F13 1_555 1_555
F14 P3 1_555 1_555
F15 P3 1_555 1_555
F16 P3 1_555 1_555
F17 P3 1_555 1_555
F18 P3 1_555 1_555
P4 F19 1_555 1_555
F20 P4 1_555 1_555
F21 P4 1_555 1_555
F22 P4 1_555 1_555
F23 P4 1_555 1_555
F24 P4 1_555 1_555
P5 F25 1_555 1_555
F26 P5 1_555 1_555
F27 P5 1_555 1_555
F28 P5 1_555 1_555
F29 P5 1_555 1_555
F30 P5 1_555 1_555
P6 F31 1_555 1_555
F32 Ag4 1_555 1_555
F33 P6 1_555 1_555
N1A Ag1 1_555 1_555
C9C N8 1_555 1_555
C11C N8 1_555 1_555
C12C N8 1_555 1_555
N8C C9 1_555 1_555
C13C N10 1_555 1_555
C14C N11 1_555 1_555
C16_2 N11 1_555 1_555
C15B N12 1_555 1_555
C17A N12 1_555 1_555
C18A N12 1_555 1_555
N10C C13 1_555 1_555
N11C C14 1_555 1_555
N12B C15 1_555 1_555
N11_2 C16 1_555 1_555
N12A C17 1_555 1_555
N12A_2 C18 1_555 1_555
N3 C4 1_555 1_555
N4 C5 1_555 1_555
N4 C6 1_555 1_555
N7 C8 1_555 1_555
N7 C10 1_555 1_555
C11 N8C 1_555 1_555
C12 N8C 1_555 1_555
P6 F32 1_555 1_555

#END
