
#######################################################################
#
#                 Cambridge Crystallographic Data Centre
#                                CCDC 
#
#######################################################################
#
# If this CIF has been generated from an entry in the Cambridge 
# Structural Database, then it will include bibliographic, chemical, 
# crystal, experimental, refinement or atomic coordinate data resulting 
# from the CCDC's data processing and validation procedures.
#
#######################################################################

data_ROPWEA
_symmetry_cell_setting           monoclinic
_symmetry_space_group_name_H-M   'P 21'
_symmetry_Int_Tables_number      4
_space_group_name_Hall           'P 2yb'
loop_
_symmetry_equiv_pos_site_id
_symmetry_equiv_pos_as_xyz
1 x,y,z
2 -x,1/2+y,-z
_cell_length_a                   3.97920(10)
_cell_length_b                   10.3039(3)
_cell_length_c                   21.3511(9)
_cell_angle_alpha                90
_cell_angle_beta                 95.342(4)
_cell_angle_gamma                90
_cell_volume                     871.62
loop_
_atom_site_label
_atom_site_type_symbol
_atom_site_fract_x
_atom_site_fract_y
_atom_site_fract_z
C1 C 0.852(2) 0.2951(6) 0.7221(3)
C2 C 0.8727(19) 0.1726(7) 0.6920(3)
C3 C 0.916(2) 0.1652(7) 0.6276(3)
C4 C 0.942(3) 0.2787(9) 0.5941(4)
H1 H 0.9764 0.2745 0.5507
C5 C 0.920(4) 0.3997(9) 0.6229(4)
H2 H 0.9395 0.4769 0.5992
C6 C 0.870(3) 0.4068(8) 0.6861(4)
H3 H 0.8488 0.4893 0.7052
C7 C 0.8045(18) 0.3050(6) 0.7876(3)
H4 H 0.7418 0.3869 0.8034
C8 C 0.8227(14) 0.1302(6) 0.9225(3)
C9 C 0.7578(15) 0.1302(6) 0.9882(3)
C10 C 0.8337(14) 0.0210(7) 1.0266(3)
H5 H 0.9432 -0.0517 1.0102
C11 C 0.7512(15) 0.0187(8) 1.0874(3)
H6 H 0.8005 -0.0559 1.1128
C12 C 0.5959(17) 0.1252(6) 1.1119(3)
C13 C 0.5275(15) 0.2350(6) 1.0759(3)
H7 H 0.4256 0.3084 1.0934
C14 C 0.6083(17) 0.2376(6) 1.0145(3)
H8 H 0.5617 0.3132 0.9898
C15 C 1.006(2) 0.0324(9) 0.5402(3)
H9 H 1.0066 -0.0595 0.5284
H10 H 0.8361 0.0787 0.5124
H11 H 1.2291 0.0699 0.5360
N1 N 0.8424(15) 0.2091(5) 0.8265(3)
N2 N 0.7796(14) 0.2355(5) 0.8880(2)
O1 O 0.3873(9) 0.0149(8) 0.80870(18)
O2 O 0.8431(12) 0.0602(4) 0.72273(19)
O3 O 0.9121(11) 0.0185(6) 0.89684(17)
O4 O 0.9270(16) 0.0444(5) 0.6038(2)
O5 O 0.5100(13) 0.1155(4) 1.1731(2)
H12 H 0.4145 0.1842 1.1829
O6 O 0.8749(11) -0.1614(4) 0.7995(2)
Mo1 Mo 0.95627(10) 0.00136(5) 0.80672(2)
O1_2 O 1.3873(9) 0.0149(8) 0.80870(18)
Mo1_2 Mo -0.04373(10) 0.00136(5) 0.80672(2)
C16 C 0.476(3) 0.7493(8) 0.6118(4)
C17 C 0.339(3) 0.7866(11) 0.6698(4)
H13 H 0.1834 0.8596 0.6617
H14 H 0.5238 0.8124 0.7009
H15 H 0.2181 0.7129 0.6861
N3 N 0.587(2) 0.7187(9) 0.5675(4)
loop_
_geom_bond_atom_site_label_1
_geom_bond_atom_site_label_2
_geom_bond_site_symmetry_1
_geom_bond_site_symmetry_2
C1 C2 1_555 1_555
C2 C3 1_555 1_555
C3 C4 1_555 1_555
C4 H1 1_555 1_555
C5 C4 1_555 1_555
H2 C5 1_555 1_555
C6 C1 1_555 1_555
H3 C6 1_555 1_555
C7 C1 1_555 1_555
H4 C7 1_555 1_555
C8 C9 1_555 1_555
C9 C10 1_555 1_555
C10 H5 1_555 1_555
C11 C10 1_555 1_555
H6 C11 1_555 1_555
C12 C11 1_555 1_555
C13 C12 1_555 1_555
H7 C13 1_555 1_555
C14 C9 1_555 1_555
H8 C14 1_555 1_555
C15 H9 1_555 1_555
H10 C15 1_555 1_555
H11 C15 1_555 1_555
N1 C7 1_555 1_555
N2 C8 1_555 1_555
O1 Mo1 1_555 1_555
O2 C2 1_555 1_555
O3 C8 1_555 1_555
O4 C3 1_555 1_555
O5 C12 1_555 1_555
H12 O5 1_555 1_555
O6 Mo1 1_555 1_555
Mo1 N1 1_555 1_555
C16 C17 1_555 1_555
C17 H13 1_555 1_555
H14 C17 1_555 1_555
H15 C17 1_555 1_555
N3 C16 1_555 1_555
O1_2 Mo1 1_555 1_555
Mo1_2 O1 1_555 1_555
C5 C6 1_555 1_555
C13 C14 1_555 1_555
C15 O4 1_555 1_555
N1 N2 1_555 1_555
O2 Mo1 1_555 1_555
O3 Mo1 1_555 1_555

#END
