
#######################################################################
#
#                 Cambridge Crystallographic Data Centre
#                                CCDC 
#
#######################################################################
#
# If this CIF has been generated from an entry in the Cambridge 
# Structural Database, then it will include bibliographic, chemical, 
# crystal, experimental, refinement or atomic coordinate data resulting 
# from the CCDC's data processing and validation procedures.
#
#######################################################################

data_ROPWIE
_symmetry_cell_setting           triclinic
_symmetry_space_group_name_H-M   'P -1'
_symmetry_Int_Tables_number      2
_space_group_name_Hall           '-P 1'
loop_
_symmetry_equiv_pos_site_id
_symmetry_equiv_pos_as_xyz
1 x,y,z
2 -x,-y,-z
_cell_length_a                   7.9812(3)
_cell_length_b                   9.7491(4)
_cell_length_c                   10.4153(4)
_cell_angle_alpha                116.8030(10)
_cell_angle_beta                 107.3700(10)
_cell_angle_gamma                95.6700(10)
_cell_volume                     663.932
loop_
_atom_site_label
_atom_site_type_symbol
_atom_site_fract_x
_atom_site_fract_y
_atom_site_fract_z
H1 H -0.030(7) -0.112(6) 0.065(6)
H2 H 0.096(7) 0.020(6) 0.167(6)
Eu1 Eu 0.291781(17) -0.203997(15) 0.195535(15)
O1 O 0.3731(3) 0.0819(2) 0.3666(2)
O2 O 0.6228(3) -0.1269(3) 0.3234(3)
O3 O 0.6341(3) 0.2126(2) 0.5754(2)
O4 O 0.0143(3) -0.2748(3) 0.2380(3)
O5 O 0.3393(3) 0.5408(2) 0.0955(3)
O6 O 0.0656(3) -0.3777(3) -0.0694(3)
O7 O 0.4235(4) -0.1289(3) 0.0486(3)
O8 O 0.0681(4) -0.0772(3) 0.1009(3)
O9 O 0.2773(3) 0.2750(2) -0.0288(2)
N1 N 1.0063(3) 0.7905(3) 0.5372(3)
N2 N 1.1537(3) 0.8913(3) 0.6679(3)
N3 N 1.1661(3) 0.8532(3) 0.7751(3)
N4 N 1.0246(3) 0.7263(3) 0.7180(3)
C1 C 0.5208(4) 0.1939(3) 0.4517(3)
C2 C 0.5635(4) 0.3143(3) 0.4056(3)
C3 C 0.4487(4) 0.3016(3) 0.2670(3)
C4 C 0.4895(4) 0.4192(3) 0.2317(3)
C5 C 0.6475(4) 0.5461(3) 0.3299(3)
C6 C 0.7642(4) 0.5565(3) 0.4650(3)
C7 C 0.7196(4) 0.4413(3) 0.5033(3)
C8 C 0.9301(4) 0.6900(3) 0.5722(3)
C9 C 0.3594(4) 0.4115(3) 0.0892(3)
H3 H 0.340(4) 0.218(4) 0.204(4)
H4 H -0.085(7) -0.280(6) 0.184(6)
H5 H 0.795(5) 0.447(4) 0.592(4)
H6 H 0.679(6) -0.064(5) 0.326(5)
H7 H 0.670(5) 0.619(4) 0.303(4)
H8 H 0.059(6) -0.463(5) -0.113(5)
H9 H 0.041(5) -0.351(5) -0.138(5)
H10 H 0.657(7) -0.101(6) 0.410(7)
H11 H 0.361(6) -0.123(5) -0.024(6)
H12 H 0.512(7) -0.146(6) 0.042(6)
H13 H 0.020(6) -0.240(5) 0.323(6)
Eu1_2 Eu 0.291781(17) 0.796003(15) 0.195535(15)
Eu1A Eu 0.708219(17) 0.203997(15) 0.804465(15)
O3A O 0.3659(3) -0.2126(2) 0.4246(2)
O5_2 O 0.3393(3) -0.4592(2) 0.0955(3)
loop_
_geom_bond_atom_site_label_1
_geom_bond_atom_site_label_2
_geom_bond_site_symmetry_1
_geom_bond_site_symmetry_2
H1 O8 1_555 1_555
H2 O8 1_555 1_555
Eu1 O1 1_555 1_555
O1 C1 1_555 1_555
O2 Eu1 1_555 1_555
O3 C1 1_555 1_555
O4 Eu1 1_555 1_555
O5 C9 1_555 1_555
O6 Eu1 1_555 1_555
O7 Eu1 1_555 1_555
O8 Eu1 1_555 1_555
O9 C9 1_555 1_555
N1 N2 1_555 1_555
N2 N3 1_555 1_555
N3 N4 1_555 1_555
N4 C8 1_555 1_555
C1 C2 1_555 1_555
C2 C3 1_555 1_555
C3 C4 1_555 1_555
C4 C5 1_555 1_555
C5 C6 1_555 1_555
C6 C7 1_555 1_555
C7 C2 1_555 1_555
C8 N1 1_555 1_555
C9 C4 1_555 1_555
H3 C3 1_555 1_555
H4 O4 1_555 1_555
H5 C7 1_555 1_555
H6 O2 1_555 1_555
H7 C5 1_555 1_555
H8 O6 1_555 1_555
H9 O6 1_555 1_555
H10 O2 1_555 1_555
H11 O7 1_555 1_555
H12 O7 1_555 1_555
H13 O4 1_555 1_555
Eu1_2 O5 1_555 1_555
Eu1A O3 1_555 1_555
O3A Eu1 1_555 1_555
O5_2 Eu1 1_555 1_555
C6 C8 1_555 1_555

#END
