
#######################################################################
#
#                 Cambridge Crystallographic Data Centre
#                                CCDC 
#
#######################################################################
#
# If this CIF has been generated from an entry in the Cambridge 
# Structural Database, then it will include bibliographic, chemical, 
# crystal, experimental, refinement or atomic coordinate data resulting 
# from the CCDC's data processing and validation procedures.
#
#######################################################################

data_ROPXOL
_symmetry_cell_setting           triclinic
_symmetry_space_group_name_H-M   'P -1'
_symmetry_Int_Tables_number      2
_space_group_name_Hall           '-P 1'
loop_
_symmetry_equiv_pos_site_id
_symmetry_equiv_pos_as_xyz
1 x,y,z
2 -x,-y,-z
_cell_length_a                   7.9849(16)
_cell_length_b                   9.783(2)
_cell_length_c                   10.443(2)
_cell_angle_alpha                116.75(3)
_cell_angle_beta                 107.36(3)
_cell_angle_gamma                95.71(3)
_cell_volume                     668.612
loop_
_atom_site_label
_atom_site_type_symbol
_atom_site_fract_x
_atom_site_fract_y
_atom_site_fract_z
Sm1 Sm 0.20849(4) 0.20413(3) 0.30467(3)
O1 O 0.2222(5) 0.7247(5) 0.5285(5)
O2 O 0.4346(7) 0.0785(6) 0.4007(6)
O3 O 0.0758(7) 0.1288(6) 0.4528(5)
O4 O 0.1268(5) 0.9177(5) 0.1334(5)
O5 O -0.1236(7) 0.1265(6) 0.1769(7)
O6 O -0.1330(6) 0.7873(5) -0.0746(5)
O7 O 0.4868(6) 0.2753(6) 0.2620(6)
O8 O 0.4349(6) 0.3784(6) 0.5713(5)
O9 O 0.1598(6) 0.4595(5) 0.4045(5)
C1 C 0.0100(8) 0.5806(7) 0.2679(6)
N1 N -0.5054(7) 0.2097(6) -0.0375(6)
N2 N -0.6533(7) 0.1088(6) -0.1672(6)
N3 N -0.6654(7) 0.1481(6) -0.2738(6)
N4 N -0.5243(7) 0.2742(6) -0.2177(6)
C2 C -0.4291(7) 0.3102(7) -0.0717(6)
C3 C -0.0203(7) 0.8053(6) 0.0484(6)
C4 C -0.0635(7) 0.6850(6) 0.0940(6)
C5 C -0.2198(8) 0.5591(7) -0.0029(6)
H1 H -0.2967 0.5512 -0.0941
C6 C -0.1471(7) 0.4545(7) 0.1703(6)
H2 H -0.1748 0.3774 0.1953
C7 C -0.2631(8) 0.4441(7) 0.0346(6)
C8 C 0.1402(8) 0.5893(7) 0.4109(7)
C9 C 0.0507(8) 0.6983(7) 0.2327(6)
H3 H 0.1530 0.7851 0.3008
H4 H 0.439(9) 0.471(9) 0.618(8)
H5 H 0.456(11) 0.346(10) 0.648(10)
H6 H 0.574(13) 0.265(11) 0.307(11)
H7 H 0.488(11) 0.247(10) 0.164(11)
H8 H -0.185(12) 0.061(11) 0.179(10)
H9 H -0.150(12) 0.113(10) 0.113(10)
H10 H 0.128(13) 0.121(11) 0.530(12)
H11 H 0.546(16) 0.120(13) 0.440(13)
H12 H 0.418(15) -0.011(14) 0.343(14)
H13 H -0.020(18) 0.144(15) 0.467(15)
Sm1_2 Sm 0.20849(4) 1.20413(3) 0.30467(3)
Sm1A Sm -0.20849(4) 0.79587(3) -0.30467(3)
O4_2 O 0.1268(5) -0.0823(5) 0.1334(5)
O6A O 0.1330(6) 0.2127(5) 0.0746(5)
loop_
_geom_bond_atom_site_label_1
_geom_bond_atom_site_label_2
_geom_bond_site_symmetry_1
_geom_bond_site_symmetry_2
Sm1 O2 1_555 1_555
O1 C8 1_555 1_555
O2 H11 1_555 1_555
O3 Sm1 1_555 1_555
O4 C3 1_555 1_555
O5 Sm1 1_555 1_555
O6 C3 1_555 1_555
O7 Sm1 1_555 1_555
O8 Sm1 1_555 1_555
O9 Sm1 1_555 1_555
C1 C6 1_555 1_555
N1 N2 1_555 1_555
N2 N3 1_555 1_555
N3 N4 1_555 1_555
N4 C2 1_555 1_555
C2 N1 1_555 1_555
C3 C4 1_555 1_555
C4 C5 1_555 1_555
C5 H1 1_555 1_555
C6 H2 1_555 1_555
C7 C2 1_555 1_555
C8 O9 1_555 1_555
C9 C1 1_555 1_555
H3 C9 1_555 1_555
H4 O8 1_555 1_555
H5 O8 1_555 1_555
H6 O7 1_555 1_555
H7 O7 1_555 1_555
H8 O5 1_555 1_555
H9 O5 1_555 1_555
H10 O3 1_555 1_555
H12 O2 1_555 1_555
H13 O3 1_555 1_555
Sm1_2 O4 1_555 1_555
Sm1A O6 1_555 1_555
O4_2 Sm1 1_555 1_555
O6A Sm1 1_555 1_555
C1 C8 1_555 1_555
C4 C9 1_555 1_555
C5 C7 1_555 1_555
C6 C7 1_555 1_555

#END
