
#######################################################################
#
#                 Cambridge Crystallographic Data Centre
#                                CCDC 
#
#######################################################################
#
# If this CIF has been generated from an entry in the Cambridge 
# Structural Database, then it will include bibliographic, chemical, 
# crystal, experimental, refinement or atomic coordinate data resulting 
# from the CCDC's data processing and validation procedures.
#
#######################################################################

data_ROQDIK
_symmetry_cell_setting           triclinic
_symmetry_space_group_name_H-M   'P -1'
_symmetry_Int_Tables_number      2
_space_group_name_Hall           '-P 1'
loop_
_symmetry_equiv_pos_site_id
_symmetry_equiv_pos_as_xyz
1 x,y,z
2 -x,-y,-z
_cell_length_a                   9.080(2)
_cell_length_b                   9.295(2)
_cell_length_c                   13.086(2)
_cell_angle_alpha                105.640(10)
_cell_angle_beta                 105.300(10)
_cell_angle_gamma                94.91(2)
_cell_volume                     1011.14
loop_
_atom_site_label
_atom_site_type_symbol
_atom_site_fract_x
_atom_site_fract_y
_atom_site_fract_z
C1 C 0.3676(5) 0.6816(5) 0.4957(5)
C2 C 0.4802(6) 0.8073(5) 0.5202(5)
C3 C 0.4421(4) 0.9311(4) 0.4857(3)
C4 C 0.2893(5) 0.9180(5) 0.4242(4)
C5 C 0.1843(5) 0.7880(5) 0.4008(4)
C6 C -0.0742(4) 0.3292(4) 0.1199(3)
C7 C -0.0294(6) 0.2871(5) 0.0230(3)
C8 C -0.1145(7) 0.3156(6) -0.0724(4)
C9 C -0.2423(7) 0.3829(7) -0.0735(5)
C10 C -0.2854(7) 0.4274(7) 0.0221(6)
C11 C -0.2007(5) 0.4045(5) 0.1212(4)
C12 C -0.0899(4) 0.1119(4) 0.2356(3)
C13 C -0.1759(5) 0.0095(4) 0.1323(3)
C14 C -0.2603(6) -0.1262(5) 0.1273(4)
C15 C -0.2586(6) -0.1603(5) 0.2240(5)
C16 C -0.1742(6) -0.0613(5) 0.3266(4)
C17 C -0.0907(5) 0.0783(5) 0.3333(4)
C18 C 0.2039(4) 0.2389(4) 0.2257(3)
C19 C 0.2254(5) 0.0895(5) 0.1850(4)
C20 C 0.3668(5) 0.0605(6) 0.1695(4)
C21 C 0.4869(5) 0.1801(7) 0.1936(5)
C22 C 0.4669(5) 0.3285(6) 0.2354(5)
C23 C 0.3253(5) 0.3589(5) 0.2511(4)
Cu1 Cu 0.06005(5) 0.47999(5) 0.40171(4)
P1 P 0.02302(10) 0.29184(10) 0.24866(7)
Cl1 Cl 0.15916(11) 0.40723(10) 0.56902(8)
N1 N 0.2208(4) 0.6699(3) 0.4363(3)
C3A C 0.5579(4) 1.0689(4) 0.5143(3)
C2A C 0.5198(6) 1.1927(5) 0.4798(5)
C1A C 0.6324(5) 1.3184(5) 0.5043(5)
N1A N 0.7792(4) 1.3301(3) 0.5637(3)
C5A C 0.8157(5) 1.2120(5) 0.5992(4)
C4A C 0.7107(5) 1.0820(5) 0.5758(4)
Cu1A Cu 0.93995(5) 1.52001(5) 0.59829(4)
Cl1A Cl -0.15916(11) 0.59277(10) 0.43098(8)
Cu1A_2 Cu -0.06005(5) 0.52001(5) 0.59829(4)
P1A P -0.02302(10) 0.70816(10) 0.75134(7)
C6A C 0.0742(4) 0.6708(4) 0.8801(3)
C7A C 0.0294(6) 0.7129(5) 0.9770(3)
C8A C 0.1145(7) 0.6844(6) 1.0724(4)
C9A C 0.2423(7) 0.6171(7) 1.0735(5)
C10A C 0.2854(7) 0.5726(7) 0.9779(6)
C11A C 0.2007(5) 0.5955(5) 0.8788(4)
C12A C 0.0899(4) 0.8881(4) 0.7644(3)
C13A C 0.1759(5) 0.9905(4) 0.8677(3)
C14A C 0.2603(6) 1.1262(5) 0.8727(4)
C15A C 0.2586(6) 1.1603(5) 0.7760(5)
C16A C 0.1742(6) 1.0613(5) 0.6734(4)
C17A C 0.0907(5) 0.9217(5) 0.6667(4)
C18A C -0.2039(4) 0.7611(4) 0.7743(3)
C19A C -0.2254(5) 0.9105(5) 0.8150(4)
C20A C -0.3668(5) 0.9395(6) 0.8305(4)
C21A C -0.4869(5) 0.8199(7) 0.8064(5)
C22A C -0.4669(5) 0.6715(6) 0.7646(5)
C23A C -0.3253(5) 0.6411(5) 0.7489(4)
N1A_2 N -0.2208(4) 0.3301(3) 0.5637(3)
loop_
_geom_bond_atom_site_label_1
_geom_bond_atom_site_label_2
_geom_bond_site_symmetry_1
_geom_bond_site_symmetry_2
C1 C2 1_555 1_555
C2 C3 1_555 1_555
C3 C4 1_555 1_555
C4 C5 1_555 1_555
C5 N1 1_555 1_555
C6 C7 1_555 1_555
C7 C8 1_555 1_555
C8 C9 1_555 1_555
C9 C10 1_555 1_555
C10 C11 1_555 1_555
C11 C6 1_555 1_555
C12 C13 1_555 1_555
C13 C14 1_555 1_555
C14 C15 1_555 1_555
C15 C16 1_555 1_555
C16 C17 1_555 1_555
C17 C12 1_555 1_555
C18 C19 1_555 1_555
C19 C20 1_555 1_555
C20 C21 1_555 1_555
C21 C22 1_555 1_555
C22 C23 1_555 1_555
C23 C18 1_555 1_555
Cu1 P1 1_555 1_555
P1 C6 1_555 1_555
Cl1 Cu1 1_555 1_555
N1 C1 1_555 1_555
C3A C3 1_555 1_555
C2A C3A 1_555 1_555
C1A C2A 1_555 1_555
N1A C1A 1_555 1_555
C5A N1A 1_555 1_555
C4A C3A 1_555 1_555
Cu1A N1A 1_555 1_555
Cl1A Cu1 1_555 1_555
Cu1A_2 Cl1 1_555 1_555
P1A Cu1A_2 1_555 1_555
C6A P1A 1_555 1_555
C7A C6A 1_555 1_555
C8A C7A 1_555 1_555
C9A C8A 1_555 1_555
C10A C9A 1_555 1_555
C11A C6A 1_555 1_555
C12A P1A 1_555 1_555
C13A C12A 1_555 1_555
C14A C13A 1_555 1_555
C15A C14A 1_555 1_555
C16A C15A 1_555 1_555
C17A C12A 1_555 1_555
C18A P1A 1_555 1_555
C19A C18A 1_555 1_555
C20A C19A 1_555 1_555
C21A C20A 1_555 1_555
C22A C21A 1_555 1_555
C23A C18A 1_555 1_555
N1A_2 Cu1A_2 1_555 1_555
C12 P1 1_555 1_555
C18 P1 1_555 1_555
Cu1 N1 1_555 1_555
C5A C4A 1_555 1_555
Cl1A Cu1A_2 1_555 1_555
C10A C11A 1_555 1_555
C16A C17A 1_555 1_555
C22A C23A 1_555 1_555

#END
