
#######################################################################
#
#                 Cambridge Crystallographic Data Centre
#                                CCDC 
#
#######################################################################
#
# If this CIF has been generated from an entry in the Cambridge 
# Structural Database, then it will include bibliographic, chemical, 
# crystal, experimental, refinement or atomic coordinate data resulting 
# from the CCDC's data processing and validation procedures.
#
#######################################################################

data_ROQDIK01
_symmetry_cell_setting           triclinic
_symmetry_space_group_name_H-M   'P -1'
_symmetry_Int_Tables_number      2
_space_group_name_Hall           '-P 1'
loop_
_symmetry_equiv_pos_site_id
_symmetry_equiv_pos_as_xyz
1 x,y,z
2 -x,-y,-z
_cell_length_a                   9.02780(10)
_cell_length_b                   9.22040(10)
_cell_length_c                   23.9200(3)
_cell_angle_alpha                93.8650(10)
_cell_angle_beta                 93.1840(10)
_cell_angle_gamma                94.5590(10)
_cell_volume                     1976.57
loop_
_atom_site_label
_atom_site_type_symbol
_atom_site_fract_x
_atom_site_fract_y
_atom_site_fract_z
Cu1 Cu 0.87087(3) 0.78263(2) 0.298524(9)
Cu2 Cu 0.65549(3) 0.72549(2) 0.200548(9)
Cl1 Cl 0.63684(4) 0.88482(4) 0.284514(14)
Cl2 Cl 0.88814(4) 0.62445(4) 0.214626(14)
P1 P 0.90620(4) 0.66856(4) 0.375087(15)
P2 P 0.60968(4) 0.83604(4) 0.123928(15)
N1 N 1.01515(15) 0.95575(14) 0.28194(5)
N2 N 1.51295(14) 1.55286(14) 0.21900(5)
C1 C 1.14251(19) 0.93531(18) 0.25762(7)
H1 H 1.1650 0.8381 0.2482
C2 C 1.2434(2) 1.04837(18) 0.24538(7)
H2 H 1.3332 1.0278 0.2287
C3 C 1.21262(18) 1.19194(17) 0.25762(6)
C4 C 1.08006(18) 1.21327(18) 0.28332(7)
H3 H 1.0542 1.3093 0.2929
C5 C 0.98680(19) 1.09440(18) 0.29477(7)
H4 H 0.8979 1.1116 0.3127
C6 C 1.52587(18) 1.41687(18) 0.19739(7)
H5 H 1.6042 1.4011 0.1733
C7 C 1.43118(19) 1.29846(18) 0.20832(7)
H6 H 1.4449 1.2043 0.1918
C8 C 1.31526(17) 1.31724(17) 0.24367(6)
C9 C 1.30244(19) 1.45833(18) 0.26589(7)
H7 H 1.2254 1.4774 0.2902
C10 C 1.4018(2) 1.57123(18) 0.25271(7)
H8 H 1.3903 1.6668 0.2684
C11 C 1.09866(17) 0.62461(17) 0.38766(6)
C12 C 1.20995(18) 0.73151(18) 0.37654(7)
H9 H 1.1831 0.8194 0.3617
C13 C 1.35871(19) 0.7105(2) 0.38696(7)
H10 H 1.4332 0.7847 0.3800
C14 C 1.3994(2) 0.5811(2) 0.40763(8)
H11 H 1.5016 0.5665 0.4147
C15 C 1.2899(2) 0.4732(2) 0.41795(7)
H12 H 1.3174 0.3841 0.4316
C16 C 1.14043(18) 0.49510(18) 0.40831(7)
H13 H 1.0662 0.4213 0.4158
C17 C 0.87173(17) 0.77229(16) 0.44030(6)
C18 C 0.96227(19) 0.77553(17) 0.48954(7)
H14 H 1.0499 0.7248 0.4899
C19 C 0.9254(2) 0.85246(19) 0.53811(7)
H15 H 0.9881 0.8553 0.5714
C20 C 0.7971(2) 0.9247(2) 0.53771(8)
H16 H 0.7699 0.9743 0.5712
C21 C 0.7076(2) 0.9251(2) 0.48848(9)
H17 H 0.6203 0.9764 0.4883
C22 C 0.74583(19) 0.85063(19) 0.43968(8)
H18 H 0.6861 0.8530 0.4058
C23 C 0.79690(17) 0.49500(16) 0.38115(6)
C24 C 0.76529(18) 0.44199(17) 0.43294(7)
H19 H 0.8013 0.4968 0.4667
C25 C 0.68145(19) 0.30958(18) 0.43537(7)
H20 H 0.6589 0.2750 0.4707
C26 C 0.63082(19) 0.22799(18) 0.38625(8)
H21 H 0.5751 0.1367 0.3879
C27 C 0.66174(19) 0.27988(18) 0.33451(7)
H22 H 0.6266 0.2241 0.3009
C28 C 0.74392(18) 0.41309(17) 0.33182(7)
H23 H 0.7640 0.4484 0.2964
C29 C 0.41625(17) 0.88000(17) 0.11526(6)
C30 C 0.30629(18) 0.77618(18) 0.12998(6)
H24 H 0.3343 0.6888 0.1449
C31 C 0.15705(19) 0.7998(2) 0.12295(7)
H25 H 0.0832 0.7279 0.1324
C32 C 0.11519(19) 0.9285(2) 0.10204(7)
H26 H 0.0128 0.9449 0.0975
C33 C 0.22332(19) 1.03306(19) 0.08774(7)
H27 H 0.1949 1.1214 0.0737
C34 C 0.37290(18) 1.00836(18) 0.09392(6)
H28 H 0.4464 1.0795 0.0835
C35 C 0.63518(17) 0.73087(16) 0.05808(6)
C36 C 0.53595(19) 0.72506(17) 0.01109(7)
H29 H 0.4483 0.7753 0.0128
C37 C 0.5640(2) 0.64654(18) -0.03820(7)
H30 H 0.4951 0.6423 -0.0699
C38 C 0.6919(2) 0.5746(2) -0.04121(8)
H31 H 0.7126 0.5233 -0.0753
C39 C 0.7907(2) 0.5774(2) 0.00576(9)
H32 H 0.8782 0.5268 0.0038
C40 C 0.76169(19) 0.65372(19) 0.05546(8)
H33 H 0.8280 0.6534 0.0877
C41 C 0.71645(16) 1.00959(16) 0.11534(6)
C42 C 0.74897(18) 1.05694(17) 0.06274(7)
H34 H 0.7148 0.9983 0.0297
C43 C 0.83111(19) 1.18950(19) 0.05857(7)
H35 H 0.8544 1.2202 0.0227
C44 C 0.87900(19) 1.27696(18) 0.10660(8)
H36 H 0.9335 1.3683 0.1037
C45 C 0.8472(2) 1.23084(18) 0.15898(7)
H37 H 0.8805 1.2905 0.1919
C46 C 0.76653(18) 1.09738(18) 0.16345(7)
H38 H 0.7456 1.0661 0.1994
Cu2_2 Cu 1.65549(3) 1.72549(2) 0.200548(9)
N2_2 N 0.51295(14) 0.55286(14) 0.21900(5)
loop_
_geom_bond_atom_site_label_1
_geom_bond_atom_site_label_2
_geom_bond_site_symmetry_1
_geom_bond_site_symmetry_2
Cu1 Cl1 1_555 1_555
Cu2 Cl1 1_555 1_555
Cl2 Cu1 1_555 1_555
P1 Cu1 1_555 1_555
P2 Cu2 1_555 1_555
N1 Cu1 1_555 1_555
N2 C6 1_555 1_555
C1 N1 1_555 1_555
H1 C1 1_555 1_555
C2 C1 1_555 1_555
H2 C2 1_555 1_555
C3 C2 1_555 1_555
C4 C3 1_555 1_555
H3 C4 1_555 1_555
C5 N1 1_555 1_555
H4 C5 1_555 1_555
C6 H5 1_555 1_555
C7 C6 1_555 1_555
H6 C7 1_555 1_555
C8 C3 1_555 1_555
C9 C8 1_555 1_555
H7 C9 1_555 1_555
C10 N2 1_555 1_555
H8 C10 1_555 1_555
C11 P1 1_555 1_555
C12 C11 1_555 1_555
H9 C12 1_555 1_555
C13 C12 1_555 1_555
H10 C13 1_555 1_555
C14 C13 1_555 1_555
H11 C14 1_555 1_555
C15 C14 1_555 1_555
H12 C15 1_555 1_555
C16 C11 1_555 1_555
H13 C16 1_555 1_555
C17 P1 1_555 1_555
C18 C17 1_555 1_555
H14 C18 1_555 1_555
C19 C18 1_555 1_555
H15 C19 1_555 1_555
C20 C19 1_555 1_555
H16 C20 1_555 1_555
C21 C20 1_555 1_555
H17 C21 1_555 1_555
C22 C17 1_555 1_555
H18 C22 1_555 1_555
C23 P1 1_555 1_555
C24 C23 1_555 1_555
H19 C24 1_555 1_555
C25 C24 1_555 1_555
H20 C25 1_555 1_555
C26 C25 1_555 1_555
H21 C26 1_555 1_555
C27 C26 1_555 1_555
H22 C27 1_555 1_555
C28 C23 1_555 1_555
H23 C28 1_555 1_555
C29 P2 1_555 1_555
C30 C29 1_555 1_555
H24 C30 1_555 1_555
C31 C30 1_555 1_555
H25 C31 1_555 1_555
C32 C31 1_555 1_555
H26 C32 1_555 1_555
C33 C32 1_555 1_555
H27 C33 1_555 1_555
C34 C29 1_555 1_555
H28 C34 1_555 1_555
C35 P2 1_555 1_555
C36 C35 1_555 1_555
H29 C36 1_555 1_555
C37 C36 1_555 1_555
H30 C37 1_555 1_555
C38 C37 1_555 1_555
H31 C38 1_555 1_555
C39 C38 1_555 1_555
H32 C39 1_555 1_555
C40 C35 1_555 1_555
H33 C40 1_555 1_555
C41 P2 1_555 1_555
C42 C41 1_555 1_555
H34 C42 1_555 1_555
C43 C42 1_555 1_555
H35 C43 1_555 1_555
C44 C43 1_555 1_555
H36 C44 1_555 1_555
C45 C44 1_555 1_555
H37 C45 1_555 1_555
C46 C41 1_555 1_555
H38 C46 1_555 1_555
Cu2_2 N2 1_555 1_555
N2_2 Cu2 1_555 1_555
Cu2 Cl2 1_555 1_555
C4 C5 1_555 1_555
C7 C8 1_555 1_555
C9 C10 1_555 1_555
C15 C16 1_555 1_555
C21 C22 1_555 1_555
C27 C28 1_555 1_555
C33 C34 1_555 1_555
C39 C40 1_555 1_555
C45 C46 1_555 1_555

#END
