
#######################################################################
#
#                 Cambridge Crystallographic Data Centre
#                                CCDC 
#
#######################################################################
#
# If this CIF has been generated from an entry in the Cambridge 
# Structural Database, then it will include bibliographic, chemical, 
# crystal, experimental, refinement or atomic coordinate data resulting 
# from the CCDC's data processing and validation procedures.
#
#######################################################################

data_ROQFEI
_symmetry_cell_setting           orthorhombic
_symmetry_space_group_name_H-M   'I b a 2'
_symmetry_Int_Tables_number      45
_space_group_name_Hall           'I 2 -2c'
loop_
_symmetry_equiv_pos_site_id
_symmetry_equiv_pos_as_xyz
1 x,y,z
2 -x,-y,z
3 1/2+x,1/2-y,z
4 1/2-x,1/2+y,z
5 1/2+x,1/2+y,1/2+z
6 1/2-x,1/2-y,1/2+z
7 x,-y,1/2+z
8 -x,y,1/2+z
_cell_length_a                   10.375(2)
_cell_length_b                   19.404(9)
_cell_length_c                   5.698(2)
_cell_angle_alpha                90
_cell_angle_beta                 90
_cell_angle_gamma                90
_cell_volume                     1147.1
loop_
_atom_site_label
_atom_site_type_symbol
_atom_site_fract_x
_atom_site_fract_y
_atom_site_fract_z
Na1 Na 0.1110(5) 0.0588(2) 0.0000
O1 O 0.1068(8) 0.0573(4) 0.3972
C1 C 0.1816(11) 0.0940(5) 0.5392(22)
C2 C 0.1394(10) 0.1560(5) 0.6421(24)
H1 H 0.0458(10) 0.1764(5) 0.5971(24)
C3 C 0.2171(12) 0.1913(6) 0.8012(24)
H2 H 0.1817(12) 0.2380(6) 0.8817(24)
C4 C 0.3381(12) 0.1676(7) 0.8573(27)
H3 H 0.3973(12) 0.1953(7) 0.9814(27)
C5 C 0.3832(12) 0.1079(7) 0.7531(24)
H4 H 0.4778(12) 0.0890(7) 0.7992(24)
C6 C 0.3091(10) 0.0712(6) 0.5888(19)
H5 H 0.3482(10) 0.0264(6) 0.5017(19)
O1F O 0.1068(8) -0.0573(4) -0.1028
O1G O -0.1068(8) 0.0573(4) -0.1028
Na1F Na 0.1110(5) -0.0588(2) 0.5000
Na1G Na -0.1110(5) 0.0588(2) 0.5000
loop_
_geom_bond_atom_site_label_1
_geom_bond_atom_site_label_2
_geom_bond_site_symmetry_1
_geom_bond_site_symmetry_2
Na1 O1 1_555 1_555
O1 C1 1_555 1_555
C1 C2 1_555 1_555
C2 H1 1_555 1_555
C3 C2 1_555 1_555
H2 C3 1_555 1_555
C4 C3 1_555 1_555
H3 C4 1_555 1_555
C5 C4 1_555 1_555
H4 C5 1_555 1_555
C6 C1 1_555 1_555
H5 C6 1_555 1_555
O1F Na1 1_555 1_555
O1G Na1 1_555 1_555
Na1F O1 1_555 1_555
Na1G O1 1_555 1_555
C5 C6 1_555 1_555

#END
