
#######################################################################
#
#                 Cambridge Crystallographic Data Centre
#                                CCDC 
#
#######################################################################
#
# If this CIF has been generated from an entry in the Cambridge 
# Structural Database, then it will include bibliographic, chemical, 
# crystal, experimental, refinement or atomic coordinate data resulting 
# from the CCDC's data processing and validation procedures.
#
#######################################################################

data_ROQFEI01
_symmetry_cell_setting           orthorhombic
_symmetry_space_group_name_H-M   'I b a 2'
_symmetry_Int_Tables_number      45
_space_group_name_Hall           'I 2 -2c'
loop_
_symmetry_equiv_pos_site_id
_symmetry_equiv_pos_as_xyz
1 x,y,z
2 -x,-y,z
3 -x,y,1/2+z
4 x,-y,1/2+z
5 1/2+x,1/2+y,1/2+z
6 1/2-x,1/2-y,1/2+z
7 1/2-x,1/2+y,z
8 1/2+x,1/2-y,z
_cell_length_a                   10.3756(1)
_cell_length_b                   19.4354(1)
_cell_length_c                   5.70595(3)
_cell_angle_alpha                90
_cell_angle_beta                 90
_cell_angle_gamma                90
_cell_volume                     1150.63
loop_
_atom_site_label
_atom_site_type_symbol
_atom_site_fract_x
_atom_site_fract_y
_atom_site_fract_z
Na1 Na 0.109(1) 0.0567(6) 0.0000
O1 O 0.111(2) 0.0612(6) 0.396(2)
C1 C 0.1830(6) 0.0950(4) 0.538(2)
C2 C 0.1390(6) 0.1559(5) 0.636(3)
C3 C 0.217(1) 0.1924(5) 0.790(4)
C4 C 0.339(1) 0.1681(5) 0.845(4)
C5 C 0.383(1) 0.1071(5) 0.746(4)
C6 C 0.3052(6) 0.0706(4) 0.593(3)
H1 H 0.046(1) 0.1745(6) 0.595(4)
H2 H 0.184(2) 0.2390(5) 0.865(4)
H3 H 0.399(1) 0.1959(6) 0.962(4)
H4 H 0.477(1) 0.0885(6) 0.788(4)
H5 H 0.339(1) 0.0240(5) 0.517(3)
Na1B Na -0.109(1) 0.0567(6) 0.5000
Na1C Na 0.109(1) -0.0567(6) 0.5000
O1C O 0.111(2) -0.0612(6) -0.104(2)
O1B O -0.111(2) 0.0612(6) -0.104(2)
loop_
_geom_bond_atom_site_label_1
_geom_bond_atom_site_label_2
_geom_bond_site_symmetry_1
_geom_bond_site_symmetry_2
Na1 O1 1_555 1_555
O1 C1 1_555 1_555
C1 C2 1_555 1_555
C2 C3 1_555 1_555
C3 C4 1_555 1_555
C4 C5 1_555 1_555
C5 C6 1_555 1_555
C6 C1 1_555 1_555
H1 C2 1_555 1_555
H2 C3 1_555 1_555
H3 C4 1_555 1_555
H4 C5 1_555 1_555
H5 C6 1_555 1_555
Na1B O1 1_555 1_555
Na1C O1 1_555 1_555
O1C Na1 1_555 1_555
O1B Na1 1_555 1_555

#END
