
#######################################################################
#
#                 Cambridge Crystallographic Data Centre
#                                CCDC 
#
#######################################################################
#
# If this CIF has been generated from an entry in the Cambridge 
# Structural Database, then it will include bibliographic, chemical, 
# crystal, experimental, refinement or atomic coordinate data resulting 
# from the CCDC's data processing and validation procedures.
#
#######################################################################

data_ROQJOY
_symmetry_cell_setting           monoclinic
_symmetry_space_group_name_H-M   'P 21/c'
_symmetry_Int_Tables_number      14
_space_group_name_Hall           '-P 2ybc'
loop_
_symmetry_equiv_pos_site_id
_symmetry_equiv_pos_as_xyz
1 x,y,z
2 -x,1/2+y,1/2-z
3 -x,-y,-z
4 x,1/2-y,1/2+z
_cell_length_a                   14.6217(3)
_cell_length_b                   8.5579(2)
_cell_length_c                   9.3563(2)
_cell_angle_alpha                90
_cell_angle_beta                 93.319(2)
_cell_angle_gamma                90
_cell_volume                     1168.8
loop_
_atom_site_label
_atom_site_type_symbol
_atom_site_fract_x
_atom_site_fract_y
_atom_site_fract_z
Zn1 Zn 0.64359(2) 0.14121(5) 0.14587(4)
O1 O 1.1965(2) 0.3572(3) 0.1228(4)
H1 H 1.2351 0.2943 0.0990
O2 O 0.61428(17) -0.0766(3) 0.1561(3)
O3 O 0.70060(18) -0.1324(3) -0.0238(3)
O4 O 0.45294(15) -0.2492(3) -0.0339(2)
O5 O 0.37796(14) -0.2771(3) 0.1605(2)
N1 N 0.77358(18) 0.2178(3) 0.1364(3)
N2 N 1.11091(19) 0.2903(4) 0.1069(3)
C1 C 0.8381(3) 0.1404(4) 0.0708(4)
H2 H 0.8219 0.0472 0.0248
C2 C 0.9268(2) 0.1903(5) 0.0675(4)
H3 H 0.9690 0.1321 0.0193
C3 C 0.9536(2) 0.3283(4) 0.1364(4)
C4 C 0.8855(2) 0.4126(4) 0.2007(4)
H4 H 0.8994 0.5085 0.2436
C5 C 0.7984(3) 0.3543(4) 0.2008(4)
H5 H 0.7544 0.4107 0.2470
C6 C 1.0491(3) 0.3826(5) 0.1421(4)
H6 H 1.0637 0.4839 0.1714
C7 C 0.6471(2) -0.1713(4) 0.0679(4)
C8 C 0.6199(2) -0.3404(4) 0.0823(4)
H7 H 0.6703 -0.3965 0.1310
H8 H 0.6102 -0.3850 -0.0126
C9 C 0.5343(2) -0.3658(4) 0.1634(4)
H9 H 0.5445 -0.3240 0.2593
H10 H 0.5237 -0.4773 0.1719
C10 C 0.4496(2) -0.2910(4) 0.0936(3)
Zn1A Zn 0.35641(2) -0.35879(5) 0.35413(4)
Zn1B Zn 0.35641(2) -0.14121(5) -0.14587(4)
O4B O 0.54706(15) 0.2492(3) 0.0339(2)
O5A O 0.62204(14) 0.2229(3) 0.3395(2)
loop_
_geom_bond_atom_site_label_1
_geom_bond_atom_site_label_2
_geom_bond_site_symmetry_1
_geom_bond_site_symmetry_2
Zn1 O2 1_555 1_555
O1 H1 1_555 1_555
O2 C7 1_555 1_555
O3 C7 1_555 1_555
O4 C10 1_555 1_555
O5 C10 1_555 1_555
N1 Zn1 1_555 1_555
N2 O1 1_555 1_555
C1 N1 1_555 1_555
H2 C1 1_555 1_555
C2 C1 1_555 1_555
H3 C2 1_555 1_555
C3 C2 1_555 1_555
C4 C3 1_555 1_555
H4 C4 1_555 1_555
C5 N1 1_555 1_555
H5 C5 1_555 1_555
C6 N2 1_555 1_555
H6 C6 1_555 1_555
C7 C8 1_555 1_555
C8 H7 1_555 1_555
H8 C8 1_555 1_555
C9 C8 1_555 1_555
H9 C9 1_555 1_555
H10 C9 1_555 1_555
C10 C9 1_555 1_555
Zn1A O5 1_555 1_555
Zn1B O4 1_555 1_555
O4B Zn1 1_555 1_555
O5A Zn1 1_555 1_555
C3 C6 1_555 1_555
C4 C5 1_555 1_555

#END
