
#######################################################################
#
#                 Cambridge Crystallographic Data Centre
#                                CCDC 
#
#######################################################################
#
# If this CIF has been generated from an entry in the Cambridge 
# Structural Database, then it will include bibliographic, chemical, 
# crystal, experimental, refinement or atomic coordinate data resulting 
# from the CCDC's data processing and validation procedures.
#
#######################################################################

data_ROQJEO
_symmetry_cell_setting           orthorhombic
_symmetry_space_group_name_H-M   'P n m a'
_symmetry_Int_Tables_number      62
_space_group_name_Hall           '-P 2ac 2n'
loop_
_symmetry_equiv_pos_site_id
_symmetry_equiv_pos_as_xyz
1 x,y,z
2 1/2-x,-y,1/2+z
3 1/2+x,1/2-y,1/2-z
4 -x,1/2+y,-z
5 -x,-y,-z
6 1/2+x,y,1/2-z
7 1/2-x,1/2+y,1/2+z
8 x,1/2-y,z
_cell_length_a                   22.3659(10)
_cell_length_b                   7.2649(5)
_cell_length_c                   7.2828(3)
_cell_angle_alpha                90
_cell_angle_beta                 90
_cell_angle_gamma                90
_cell_volume                     1183.35
loop_
_atom_site_label
_atom_site_type_symbol
_atom_site_fract_x
_atom_site_fract_y
_atom_site_fract_z
Zn1 Zn 0.215534(17) 0.7500 0.92755(5)
O1 O -0.09249(13) 0.7500 0.2519(5)
H1 H -0.1276 0.7500 0.2846
O2 O 0.28815(10) 0.7500 1.1400(4)
H2 H 0.2763 0.6496 1.1991
O3 O 0.17221(8) 0.5387(3) 1.0664(2)
O4 O 0.23793(8) 0.4464(2) 1.2753(2)
N1 N 0.14286(14) 0.7500 0.7399(4)
N2 N -0.05589(15) 0.7500 0.4040(4)
C1 C 0.08584(19) 0.7500 0.7972(5)
H3 H 0.0787 0.7500 0.9231
C2 C 0.03754(18) 0.7500 0.6819(6)
H4 H -0.0011 0.7500 0.7291
C3 C 0.04711(17) 0.7500 0.4922(6)
C4 C 0.10585(18) 0.7500 0.4332(5)
H5 H 0.1143 0.7500 0.3082
C5 C 0.15157(18) 0.7500 0.5581(5)
H6 H 0.1907 0.7500 0.5144
C6 C -0.00133(19) 0.7500 0.3581(6)
H7 H 0.0083 0.7500 0.2338
C7 C 0.19082(10) 0.4240(3) 1.1810(3)
C8 C 0.15434(16) 0.2500 1.2048(5)
H8 H 0.1366 0.2500 1.3264
H9 H 0.1220 0.2500 1.1160
H2G H 0.2763 0.8504 1.1991
O3G O 0.17221(8) -0.0387(3) 1.0664(2)
C7G C 0.19082(10) 0.0760(3) 1.1810(3)
O4G O 0.23793(8) 0.0536(2) 1.2753(2)
Zn1_2 Zn 0.215534(17) -0.2500 0.92755(5)
Zn1A Zn 0.284466(17) 0.2500 1.42755(5)
O3G_2 O 0.17221(8) 0.9613(3) 1.0664(2)
O4A O 0.26207(8) 0.5536(2) 0.7753(2)
O4F O 0.26207(8) 0.9464(2) 0.7753(2)
loop_
_geom_bond_atom_site_label_1
_geom_bond_atom_site_label_2
_geom_bond_site_symmetry_1
_geom_bond_site_symmetry_2
Zn1 O2 1_555 1_555
O1 H1 1_555 1_555
O2 H2 1_555 1_555
O3 Zn1 1_555 1_555
O4 C7 1_555 1_555
N1 Zn1 1_555 1_555
N2 O1 1_555 1_555
C1 N1 1_555 1_555
H3 C1 1_555 1_555
C2 C1 1_555 1_555
H4 C2 1_555 1_555
C3 C2 1_555 1_555
C4 C3 1_555 1_555
H5 C4 1_555 1_555
C5 N1 1_555 1_555
H6 C5 1_555 1_555
C6 N2 1_555 1_555
H7 C6 1_555 1_555
C7 O3 1_555 1_555
C8 C7 1_555 1_555
H8 C8 1_555 1_555
H9 C8 1_555 1_555
H2G O2 1_555 1_555
O3G C7G 1_555 1_555
C7G C8 1_555 1_555
O4G C7G 1_555 1_555
Zn1_2 O3G 1_555 1_555
Zn1A O4 1_555 1_555
O3G_2 Zn1 1_555 1_555
O4A Zn1 1_555 1_555
O4F Zn1 1_555 1_555
C3 C6 1_555 1_555
C4 C5 1_555 1_555
O4G Zn1A 1_555 1_555

#END
