
#######################################################################
#
#                 Cambridge Crystallographic Data Centre
#                                CCDC 
#
#######################################################################
#
# If this CIF has been generated from an entry in the Cambridge 
# Structural Database, then it will include bibliographic, chemical, 
# crystal, experimental, refinement or atomic coordinate data resulting 
# from the CCDC's data processing and validation procedures.
#
#######################################################################

data_ROQKOZ
_symmetry_cell_setting           monoclinic
_symmetry_space_group_name_H-M   'C 2/c'
_symmetry_Int_Tables_number      15
_space_group_name_Hall           '-C 2yn'
loop_
_symmetry_equiv_pos_site_id
_symmetry_equiv_pos_as_xyz
1 x,y,z
2 -x,y,1/2-z
3 1/2+x,1/2+y,z
4 1/2-x,1/2+y,1/2-z
5 -x,-y,-z
6 x,-y,1/2+z
7 1/2-x,1/2-y,-z
8 1/2+x,1/2-y,1/2+z
_cell_length_a                   11.444(6)
_cell_length_b                   13.901(2)
_cell_length_c                   9.682(3)
_cell_angle_alpha                90
_cell_angle_beta                 114.80(5)
_cell_angle_gamma                90
_cell_volume                     1398.2
loop_
_atom_site_label
_atom_site_type_symbol
_atom_site_fract_x
_atom_site_fract_y
_atom_site_fract_z
Cd1 Cd 0.0000 0.03268(5) 0.7500
O1 O -0.1195(4) 0.1773(3) 0.4448(4)
H1 H -0.1333 0.1223 0.4108
O2 O 0.1398(4) 0.0072(3) 0.6290(4)
O3 O 0.1476(4) 0.0600(3) 0.4165(4)
N1 N -0.0583(4) 0.1739(4) 0.6021(5)
C1 C -0.0345(5) 0.2568(4) 0.6637(6)
C2 C -0.0668(5) 0.3492(4) 0.5795(6)
H2 H -0.1589 0.3596 0.5413
H3 H -0.0460 0.3442 0.4924
C3 C 0.0030(6) 0.4365(5) 0.6741(6)
H4 H 0.0922 0.4356 0.6889
H5 H -0.0363 0.4949 0.6195
C4 C 0.1770(5) 0.0654(5) 0.5568(6)
C5 C 0.2633(6) 0.1483(5) 0.6429(6)
H6 H 0.3406 0.1219 0.7226
H7 H 0.2191 0.1851 0.6917
C6 C 0.3031(6) 0.2169(6) 0.5473(8)
H8 H 0.3761 0.2548 0.6142
H9 H 0.3302 0.1797 0.4811
O1A O 0.1195(4) 0.1773(3) 1.0552(4)
H1A H 0.1333 0.1223 1.0892
N1A N 0.0583(4) 0.1739(4) 0.8979(5)
C1A C 0.0345(5) 0.2568(4) 0.8363(6)
C2A C 0.0668(5) 0.3492(4) 0.9205(6)
H2A H 0.1589 0.3596 0.9587
H3A H 0.0460 0.3442 1.0076
C3A C -0.0030(6) 0.4365(5) 0.8259(6)
H4A H -0.0922 0.4356 0.8111
H5A H 0.0363 0.4949 0.8805
O2F O 0.3602(4) 0.4928(3) 0.3710(4)
C4F C 0.3230(5) 0.4346(5) 0.4432(6)
C5F C 0.2367(6) 0.3517(5) 0.3571(6)
H6F H 0.1594 0.3781 0.2774
H7F H 0.2809 0.3149 0.3083
C6F C 0.1969(6) 0.2831(6) 0.4527(8)
H8F H 0.1239 0.2452 0.3858
H9F H 0.1698 0.3203 0.5189
O3F O 0.3524(4) 0.4400(3) 0.5835(4)
Cd1B Cd 0.5000 0.53268(5) 0.7500
Cd1D Cd 0.0000 -0.03268(5) 0.2500
Cd1F Cd 0.5000 0.46732(5) 0.2500
O2A O -0.1398(4) 0.0072(3) 0.8710(4)
O3D O -0.1476(4) -0.0600(3) 0.5835(4)
O3E O 0.1476(4) -0.0600(3) 0.9165(4)
loop_
_geom_bond_atom_site_label_1
_geom_bond_atom_site_label_2
_geom_bond_site_symmetry_1
_geom_bond_site_symmetry_2
Cd1 O2 1_555 1_555
O1 H1 1_555 1_555
O2 C4 1_555 1_555
O3 C4 1_555 1_555
N1 Cd1 1_555 1_555
C1 N1 1_555 1_555
C2 C1 1_555 1_555
H2 C2 1_555 1_555
H3 C2 1_555 1_555
C3 C2 1_555 1_555
H4 C3 1_555 1_555
H5 C3 1_555 1_555
C4 C5 1_555 1_555
C5 H6 1_555 1_555
H7 C5 1_555 1_555
C6 C5 1_555 1_555
H8 C6 1_555 1_555
H9 C6 1_555 1_555
O1A H1A 1_555 1_555
N1A Cd1 1_555 1_555
C1A C1 1_555 1_555
C2A C1A 1_555 1_555
H2A C2A 1_555 1_555
H3A C2A 1_555 1_555
C3A C3 1_555 1_555
H4A C3A 1_555 1_555
H5A C3A 1_555 1_555
O2F C4F 1_555 1_555
C4F C5F 1_555 1_555
C5F H6F 1_555 1_555
H7F C5F 1_555 1_555
C6F C6 1_555 1_555
H8F C6F 1_555 1_555
H9F C6F 1_555 1_555
O3F C4F 1_555 1_555
Cd1B O3F 1_555 1_555
Cd1D O3 1_555 1_555
Cd1F O2F 1_555 1_555
O2A Cd1 1_555 1_555
O3D Cd1 1_555 1_555
O3E Cd1 1_555 1_555
O1 N1 1_555 1_555
O1A N1A 1_555 1_555
N1A C1A 1_555 1_555
C2A C3A 1_555 1_555
C5F C6F 1_555 1_555

#END
