
#######################################################################
#
#                 Cambridge Crystallographic Data Centre
#                                CCDC 
#
#######################################################################
#
# If this CIF has been generated from an entry in the Cambridge 
# Structural Database, then it will include bibliographic, chemical, 
# crystal, experimental, refinement or atomic coordinate data resulting 
# from the CCDC's data processing and validation procedures.
#
#######################################################################

data_ROQKAL
_symmetry_cell_setting           triclinic
_symmetry_space_group_name_H-M   'P -1'
_symmetry_Int_Tables_number      2
_space_group_name_Hall           '-P 1'
loop_
_symmetry_equiv_pos_site_id
_symmetry_equiv_pos_as_xyz
1 x,y,z
2 -x,-y,-z
_cell_length_a                   8.2196(6)
_cell_length_b                   9.2915(5)
_cell_length_c                   14.0247(8)
_cell_angle_alpha                77.376(5)
_cell_angle_beta                 84.259(5)
_cell_angle_gamma                75.489(5)
_cell_volume                     1010.7
loop_
_atom_site_label
_atom_site_type_symbol
_atom_site_fract_x
_atom_site_fract_y
_atom_site_fract_z
Zn1 Zn 0.61121(4) 0.33134(3) 0.27228(2)
O1 O -0.3646(2) 0.8150(2) 0.39170(19)
H1 H -0.3937 0.9079 0.3826
O2 O 0.8245(3) -0.1149(3) -0.19878(16)
H2 H 0.9025 -0.1893 -0.2005
O3 O 0.8973(3) 0.3393(3) 0.20025(15)
O4 O 0.6730(3) 0.5242(2) 0.19646(14)
O5 O 0.7236(2) 0.2876(2) 0.40710(15)
O6 O 0.6186(3) 0.1107(2) 0.37813(15)
N1 N 0.3654(3) 0.4304(2) 0.30546(16)
N2 N -0.1953(3) 0.7713(3) 0.36576(19)
N3 N 0.6121(3) 0.2249(2) 0.15587(17)
N4 N 0.8171(3) -0.0725(3) -0.10954(19)
C1 C 0.2526(4) 0.3468(3) 0.3362(2)
H3 H 0.2871 0.2426 0.3397
C2 C 0.0883(3) 0.4067(3) 0.3629(2)
H4 H 0.0153 0.3434 0.3857
C3 C 0.0323(3) 0.5612(3) 0.35567(19)
C4 C 0.1498(4) 0.6481(3) 0.3241(2)
H5 H 0.1176 0.7528 0.3188
C5 C 0.3116(4) 0.5809(3) 0.3008(2)
H6 H 0.3882 0.6414 0.2809
C6 C -0.1442(4) 0.6278(3) 0.3791(2)
H7 H -0.2182 0.5659 0.4034
C7 C 0.7258(4) 0.0943(3) 0.1512(2)
H8 H 0.7854 0.0432 0.2065
C8 C 0.7582(4) 0.0327(3) 0.0691(2)
H9 H 0.8400 -0.0569 0.0690
C9 C 0.6693(4) 0.1036(3) -0.0138(2)
C10 C 0.5508(4) 0.2374(3) -0.0088(2)
H10 H 0.4872 0.2895 -0.0624
C11 C 0.5280(4) 0.2926(3) 0.0760(2)
H11 H 0.4484 0.3831 0.0775
C12 C 0.6992(4) 0.0423(4) -0.1031(2)
H12 H 0.6308 0.0882 -0.1556
C13 C 0.8239(4) 0.4758(4) 0.1731(2)
C14 C 0.9170(5) 0.5879(4) 0.1113(2)
H13 H 0.8354 0.6740 0.0777
H14 H 0.9754 0.6248 0.1542
C15 C 1.0408(5) 0.5251(5) 0.0376(2)
H15 H 1.1231 0.4392 0.0706
H16 H 1.0998 0.6017 0.0044
C16 C 0.6956(3) 0.1583(3) 0.4328(2)
C17 C 0.7585(3) 0.0586(3) 0.5285(2)
H17 H 0.7352 -0.0403 0.5341
H18 H 0.6971 0.1027 0.5820
C18 C 0.9458(3) 0.0386(3) 0.53820(19)
H19 H 0.9687 0.1375 0.5331
H20 H 0.9764 -0.0208 0.6026
O3A O 1.1027(3) 0.6607(3) -0.20025(15)
O4A O 1.3270(3) 0.4758(2) -0.19646(14)
C13A C 1.1761(4) 0.5242(4) -0.1731(2)
C14A C 1.0830(5) 0.4121(4) -0.1113(2)
H13A H 1.1646 0.3260 -0.0777
H14A H 1.0246 0.3752 -0.1542
C15A C 0.9592(5) 0.4749(5) -0.0376(2)
H15A H 0.8769 0.5608 -0.0706
H16A H 0.9002 0.3983 -0.0044
O5A O 1.2764(2) -0.2876(2) 0.59290(15)
O6A O 1.3814(3) -0.1107(2) 0.62187(15)
C16A C 1.3044(3) -0.1583(3) 0.5672(2)
C17A C 1.2415(3) -0.0586(3) 0.4715(2)
H17A H 1.2648 0.0403 0.4659
H18A H 1.3029 -0.1027 0.4180
C18A C 1.0542(3) -0.0386(3) 0.46180(19)
H19A H 1.0313 -0.1375 0.4669
H20A H 1.0236 0.0208 0.3974
Zn1A Zn 1.38879(4) -0.33134(3) 0.72772(2)
O1A O 2.3646(2) -0.8150(2) 0.60830(19)
H1A H 2.3937 -0.9079 0.6174
O2A O 1.1755(3) 0.1149(3) 1.19878(16)
H2A H 1.0975 0.1893 1.2005
N1A N 1.6346(3) -0.4304(2) 0.69454(16)
N2A N 2.1953(3) -0.7713(3) 0.63424(19)
N3A N 1.3879(3) -0.2249(2) 0.84413(17)
N4A N 1.1829(3) 0.0725(3) 1.10954(19)
C1A C 1.7474(4) -0.3468(3) 0.6638(2)
H3A H 1.7129 -0.2426 0.6603
C2A C 1.9117(3) -0.4067(3) 0.6371(2)
H4A H 1.9847 -0.3434 0.6143
C3A C 1.9677(3) -0.5612(3) 0.64433(19)
C4A C 1.8502(4) -0.6481(3) 0.6759(2)
H5A H 1.8824 -0.7528 0.6812
C5A C 1.6884(4) -0.5809(3) 0.6992(2)
H6A H 1.6118 -0.6414 0.7191
C6A C 2.1442(4) -0.6278(3) 0.6209(2)
H7A H 2.2182 -0.5659 0.5966
C7A C 1.2742(4) -0.0943(3) 0.8488(2)
H8A H 1.2146 -0.0432 0.7935
C8A C 1.2418(4) -0.0327(3) 0.9309(2)
H9A H 1.1600 0.0569 0.9310
C9A C 1.3307(4) -0.1036(3) 1.0138(2)
C10A C 1.4492(4) -0.2374(3) 1.0088(2)
H10A H 1.5128 -0.2895 1.0624
C11A C 1.4720(4) -0.2926(3) 0.9240(2)
H11A H 1.5516 -0.3831 0.9225
C12A C 1.3008(4) -0.0423(4) 1.1031(2)
H12A H 1.3692 -0.0882 1.1556
Zn1A_2 Zn 1.38879(4) 0.66866(3) -0.27228(2)
O3A_2 O 1.1027(3) -0.3393(3) 0.79975(15)
O4A_2 O 1.3270(3) -0.5242(2) 0.80354(14)
loop_
_geom_bond_atom_site_label_1
_geom_bond_atom_site_label_2
_geom_bond_site_symmetry_1
_geom_bond_site_symmetry_2
Zn1 O3 1_555 1_555
O1 H1 1_555 1_555
O2 H2 1_555 1_555
O3 C13 1_555 1_555
O4 Zn1 1_555 1_555
O5 Zn1 1_555 1_555
O6 Zn1 1_555 1_555
N1 Zn1 1_555 1_555
N2 O1 1_555 1_555
N3 Zn1 1_555 1_555
N4 O2 1_555 1_555
C1 N1 1_555 1_555
H3 C1 1_555 1_555
C2 C1 1_555 1_555
H4 C2 1_555 1_555
C3 C2 1_555 1_555
C4 C3 1_555 1_555
H5 C4 1_555 1_555
C5 N1 1_555 1_555
H6 C5 1_555 1_555
C6 N2 1_555 1_555
H7 C6 1_555 1_555
C7 N3 1_555 1_555
H8 C7 1_555 1_555
C8 C7 1_555 1_555
H9 C8 1_555 1_555
C9 C8 1_555 1_555
C10 C9 1_555 1_555
H10 C10 1_555 1_555
C11 N3 1_555 1_555
H11 C11 1_555 1_555
C12 N4 1_555 1_555
H12 C12 1_555 1_555
C13 O4 1_555 1_555
C14 C13 1_555 1_555
H13 C14 1_555 1_555
H14 C14 1_555 1_555
C15 C14 1_555 1_555
H15 C15 1_555 1_555
H16 C15 1_555 1_555
C16 O5 1_555 1_555
C17 C16 1_555 1_555
H17 C17 1_555 1_555
H18 C17 1_555 1_555
C18 C17 1_555 1_555
H19 C18 1_555 1_555
H20 C18 1_555 1_555
O3A C13A 1_555 1_555
O4A C13A 1_555 1_555
C13A C14A 1_555 1_555
C14A H13A 1_555 1_555
H14A C14A 1_555 1_555
C15A C15 1_555 1_555
H15A C15A 1_555 1_555
H16A C15A 1_555 1_555
O5A C16A 1_555 1_555
O6A C16A 1_555 1_555
C16A C17A 1_555 1_555
C17A H17A 1_555 1_555
H18A C17A 1_555 1_555
C18A C18 1_555 1_555
H19A C18A 1_555 1_555
H20A C18A 1_555 1_555
Zn1A O5A 1_555 1_555
O1A H1A 1_555 1_555
O2A H2A 1_555 1_555
N1A Zn1A 1_555 1_555
N2A O1A 1_555 1_555
N3A Zn1A 1_555 1_555
N4A O2A 1_555 1_555
C1A N1A 1_555 1_555
H3A C1A 1_555 1_555
C2A C1A 1_555 1_555
H4A C2A 1_555 1_555
C3A C2A 1_555 1_555
C4A C3A 1_555 1_555
H5A C4A 1_555 1_555
C5A N1A 1_555 1_555
H6A C5A 1_555 1_555
C6A N2A 1_555 1_555
H7A C6A 1_555 1_555
C7A N3A 1_555 1_555
H8A C7A 1_555 1_555
C8A C7A 1_555 1_555
H9A C8A 1_555 1_555
C9A C8A 1_555 1_555
C10A C9A 1_555 1_555
H10A C10A 1_555 1_555
C11A N3A 1_555 1_555
H11A C11A 1_555 1_555
C12A N4A 1_555 1_555
H12A C12A 1_555 1_555
Zn1A_2 O3A 1_555 1_555
O3A_2 Zn1A 1_555 1_555
O4A_2 Zn1A 1_555 1_555
O6 C16 1_555 1_555
C3 C6 1_555 1_555
C4 C5 1_555 1_555
C9 C12 1_555 1_555
C10 C11 1_555 1_555
O4A Zn1A_2 1_555 1_555
C14A C15A 1_555 1_555
O6A Zn1A 1_555 1_555
C17A C18A 1_555 1_555
C3A C6A 1_555 1_555
C4A C5A 1_555 1_555
C9A C12A 1_555 1_555
C10A C11A 1_555 1_555

#END
