
#######################################################################
#
#                 Cambridge Crystallographic Data Centre
#                                CCDC 
#
#######################################################################
#
# If this CIF has been generated from an entry in the Cambridge 
# Structural Database, then it will include bibliographic, chemical, 
# crystal, experimental, refinement or atomic coordinate data resulting 
# from the CCDC's data processing and validation procedures.
#
#######################################################################

data_ROQQUL
_symmetry_cell_setting           triclinic
_symmetry_space_group_name_H-M   'P -1'
_symmetry_Int_Tables_number      2
_space_group_name_Hall           '-P 1'
loop_
_symmetry_equiv_pos_site_id
_symmetry_equiv_pos_as_xyz
1 x,y,z
2 -x,-y,-z
_cell_length_a                   5.3553(10)
_cell_length_b                   7.6850(15)
_cell_length_c                   10.951(2)
_cell_angle_alpha                104.448(3)
_cell_angle_beta                 90.485(3)
_cell_angle_gamma                100.058(3)
_cell_volume                     429.092
loop_
_atom_site_label
_atom_site_type_symbol
_atom_site_fract_x
_atom_site_fract_y
_atom_site_fract_z
C1 C 0.6918(7) 0.1811(5) 0.3456(3)
C2 C 0.5137(7) 0.0213(5) 0.2634(3)
C3 C 0.5820(7) -0.0672(5) 0.1440(3)
H1 H 0.7356 -0.0260 0.1124
C4 C 0.4138(7) -0.2183(5) 0.0739(3)
C5 C 0.1204(7) -0.1913(5) 0.2301(3)
H2 H -0.0372 -0.2326 0.2579
C6 C 0.2802(7) -0.0419(5) 0.3069(3)
H3 H 0.2324 0.0152 0.3861
C7 C 0.4701(7) -0.3340(5) -0.0530(3)
N1 N 0.1883(6) -0.2776(4) 0.1166(3)
O1 O 1.1751(5) 0.3656(4) 0.5665(2)
O2 O 0.6385(5) 0.2441(4) 0.4576(2)
O3 O 0.8899(5) 0.2516(4) 0.3014(2)
O4 O 0.6774(5) -0.2954(4) -0.0976(2)
O5 O 0.2928(5) -0.4698(3) -0.1030(2)
O6 O 1.3024(5) 0.5005(4) 0.3339(3)
Cu1 Cu 0.0000 -0.5000 0.0000
U1 U 1.0000 0.5000 0.5000
H4 H 1.433(11) 0.567(7) 0.353(5)
H5 H 1.303(10) 0.433(8) 0.263(6)
C1A C -0.6918(7) -1.1811(5) -0.3456(3)
C2A C -0.5137(7) -1.0213(5) -0.2634(3)
C3A C -0.5820(7) -0.9328(5) -0.1440(3)
H1A H -0.7356 -0.9740 -0.1124
C4A C -0.4138(7) -0.7817(5) -0.0739(3)
C5A C -0.1204(7) -0.8087(5) -0.2301(3)
H2A H 0.0372 -0.7674 -0.2579
C6A C -0.2802(7) -0.9581(5) -0.3069(3)
H3A H -0.2324 -1.0152 -0.3861
C7A C -0.4701(7) -0.6660(5) 0.0530(3)
N1A N -0.1883(6) -0.7224(4) -0.1166(3)
O2A O -0.6385(5) -1.2441(4) -0.4576(2)
O3A O -0.8899(5) -1.2516(4) -0.3014(2)
O4A O -0.6774(5) -0.7046(4) 0.0976(2)
O5A O -0.2928(5) -0.5302(3) 0.1030(2)
O6A O 0.6976(5) 0.4995(4) 0.6661(3)
H4A H 0.567(11) 0.433(7) 0.647(5)
H5A H 0.697(10) 0.567(8) 0.737(6)
O1A O 0.8249(5) 0.6344(4) 0.4335(2)
O2A_2 O 1.3615(5) 0.7559(4) 0.5424(2)
O3A_2 O 1.1101(5) 0.7484(4) 0.6986(2)
U1_2 U -1.0000 -1.5000 -0.5000
loop_
_geom_bond_atom_site_label_1
_geom_bond_atom_site_label_2
_geom_bond_site_symmetry_1
_geom_bond_site_symmetry_2
C1 C2 1_555 1_555
C2 C3 1_555 1_555
C3 H1 1_555 1_555
C4 C3 1_555 1_555
C5 H2 1_555 1_555
C6 C2 1_555 1_555
H3 C6 1_555 1_555
C7 C4 1_555 1_555
N1 C4 1_555 1_555
O1 U1 1_555 1_555
O2 C1 1_555 1_555
O3 C1 1_555 1_555
O4 C7 1_555 1_555
O5 C7 1_555 1_555
O6 U1 1_555 1_555
Cu1 N1 1_555 1_555
U1 O2 1_555 1_555
H4 O6 1_555 1_555
H5 O6 1_555 1_555
C1A C2A 1_555 1_555
C2A C3A 1_555 1_555
C3A H1A 1_555 1_555
C4A C3A 1_555 1_555
C5A H2A 1_555 1_555
C6A C2A 1_555 1_555
H3A C6A 1_555 1_555
C7A C4A 1_555 1_555
N1A Cu1 1_555 1_555
O2A C1A 1_555 1_555
O3A C1A 1_555 1_555
O4A C7A 1_555 1_555
O5A Cu1 1_555 1_555
O6A U1 1_555 1_555
H4A O6A 1_555 1_555
H5A O6A 1_555 1_555
O1A U1 1_555 1_555
O2A_2 U1 1_555 1_555
O3A_2 U1 1_555 1_555
U1_2 O2A 1_555 1_555
C5 C6 1_555 1_555
C5 N1 1_555 1_555
O3 U1 1_555 1_555
O5 Cu1 1_555 1_555
C4A N1A 1_555 1_555
C5A C6A 1_555 1_555
C5A N1A 1_555 1_555
C7A O5A 1_555 1_555
O3A U1_2 1_555 1_555

#END
