
#######################################################################
#
#                 Cambridge Crystallographic Data Centre
#                                CCDC 
#
#######################################################################
#
# If this CIF has been generated from an entry in the Cambridge 
# Structural Database, then it will include bibliographic, chemical, 
# crystal, experimental, refinement or atomic coordinate data resulting 
# from the CCDC's data processing and validation procedures.
#
#######################################################################

data_ROQREW
_symmetry_cell_setting           triclinic
_symmetry_space_group_name_H-M   'P -1'
_symmetry_Int_Tables_number      2
_space_group_name_Hall           '-P 1'
loop_
_symmetry_equiv_pos_site_id
_symmetry_equiv_pos_as_xyz
1 x,y,z
2 -x,-y,-z
_cell_length_a                   9.344(4)
_cell_length_b                   10.249(4)
_cell_length_c                   11.295(5)
_cell_angle_alpha                90.275(6)
_cell_angle_beta                 113.058(6)
_cell_angle_gamma                110.556(6)
_cell_volume                     919.094
loop_
_atom_site_label
_atom_site_type_symbol
_atom_site_fract_x
_atom_site_fract_y
_atom_site_fract_z
C1 C 1.0631(4) 0.3990(4) -0.3653(3)
C2 C 0.9952(4) 0.2540(4) -0.3313(3)
C3 C 0.9837(4) 0.2336(4) -0.2134(3)
C4 C 0.8335(5) -0.0078(4) -0.2862(4)
H1 H 0.7735 -0.0958 -0.2726
C5 C 0.8516(6) 0.0040(4) -0.4018(4)
H2 H 0.8103 -0.0760 -0.4633
C6 C 0.9317(5) 0.1357(4) -0.4248(4)
H3 H 0.9432 0.1455 -0.5028
C7 C 1.0711(4) 0.3464(4) -0.0937(3)
C8 C 0.4821(5) 0.1636(4) -0.2260(4)
C9 C 0.3878(4) 0.0218(4) -0.1997(3)
C10 C 0.3770(5) -0.1000(4) -0.2653(4)
H4 H 0.4304 -0.0923 -0.3207
C11 C 0.2099(5) -0.2412(4) -0.1637(4)
H5 H 0.1488 -0.3300 -0.1522
C12 C 0.2879(5) -0.2302(4) -0.2476(4)
H6 H 0.2794 -0.3113 -0.2917
C13 C 0.3107(4) 0.0034(4) -0.1150(3)
C14 C 0.3210(5) 0.1225(4) -0.0274(4)
N1 N 0.9002(4) 0.1045(3) -0.1936(3)
N2 N 0.2218(4) -0.1258(3) -0.0995(3)
O1 O 1.3652(3) 0.6814(3) -0.4983(3)
O2 O 1.1826(3) 0.3201(3) -0.6389(3)
O3 O 1.4868(3) 0.4587(3) -0.3934(2)
O4 O 1.1846(3) 0.4252(3) -0.3952(3)
O5 O 0.9896(3) 0.4807(3) -0.3684(2)
O6 O 1.1875(3) 0.4546(3) -0.0867(2)
O7 O 1.0189(3) 0.3152(3) -0.0035(2)
O8 O 0.6408(3) 0.2108(3) -0.1681(3)
O9 O 0.3951(3) 0.2161(3) -0.3072(3)
O10 O 0.2510(4) 0.0834(3) 0.0499(3)
O11 O 0.3977(4) 0.2461(3) -0.0321(3)
O12 O 1.1995(4) 0.5427(3) -0.7901(3)
Cu1 Cu 0.85044(6) 0.11988(5) -0.04099(4)
U1 U 1.27649(2) 0.50039(2) -0.56635(2)
H7 H 1.457(5) 0.393(4) -0.381(4)
H8 H 1.246(7) 0.621(6) -0.802(6)
H9 H 1.145(6) 0.480(5) -0.849(5)
N2A N 0.7782(4) 0.1258(3) 0.0995(3)
O3A O 1.5132(3) 0.5413(3) -0.6066(2)
O5A O 1.0104(3) 0.5193(3) -0.6316(2)
O10A O 0.7490(4) -0.0834(3) -0.0499(3)
Cu1A Cu 0.14956(6) -0.11988(5) 0.04099(4)
U1A U 0.72351(2) 0.49961(2) -0.43365(2)
U1A_2 U 1.72351(2) 0.49961(2) -0.43365(2)
O13 O 1.5055(5) 0.5110(4) -0.1424(4)
H10 H 1.606(10) 0.485(8) -0.089(8)
H11 H 1.521(7) 0.526(6) -0.234(6)
loop_
_geom_bond_atom_site_label_1
_geom_bond_atom_site_label_2
_geom_bond_site_symmetry_1
_geom_bond_site_symmetry_2
C1 C2 1_555 1_555
C2 C3 1_555 1_555
C3 C7 1_555 1_555
C4 H1 1_555 1_555
C5 C4 1_555 1_555
H2 C5 1_555 1_555
C6 C2 1_555 1_555
H3 C6 1_555 1_555
C7 O6 1_555 1_555
C8 C9 1_555 1_555
C9 C10 1_555 1_555
C10 H4 1_555 1_555
C11 H5 1_555 1_555
C12 C10 1_555 1_555
H6 C12 1_555 1_555
C13 C9 1_555 1_555
C14 C13 1_555 1_555
N1 C3 1_555 1_555
N2 C11 1_555 1_555
O1 U1 1_555 1_555
O2 U1 1_555 1_555
O3 U1 1_555 1_555
O4 C1 1_555 1_555
O5 C1 1_555 1_555
O7 C7 1_555 1_555
O8 C8 1_555 1_555
O9 C8 1_555 1_555
O10 C14 1_555 1_555
O11 C14 1_555 1_555
O12 U1 1_555 1_555
Cu1 N1 1_555 1_555
U1 O4 1_555 1_555
H7 O3 1_555 1_555
H8 O12 1_555 1_555
H9 O12 1_555 1_555
O13 H10 1_555 1_555
H11 O13 1_555 1_555
N2A Cu1 1_555 1_555
O3A U1 1_555 1_555
O5A U1 1_555 1_555
O10A Cu1 1_555 1_555
Cu1A N2 1_555 1_555
U1A O5 1_555 1_555
U1A_2 O3 1_555 1_555
C4 N1 1_555 1_555
C5 C6 1_555 1_555
C11 C12 1_555 1_555
C13 N2 1_555 1_555
O7 Cu1 1_555 1_555
O8 Cu1 1_555 1_555
O10 Cu1A 1_555 1_555
O3A U1A_2 1_555 1_555

#END
