
#######################################################################
#
#                 Cambridge Crystallographic Data Centre
#                                CCDC 
#
#######################################################################
#
# If this CIF has been generated from an entry in the Cambridge 
# Structural Database, then it will include bibliographic, chemical, 
# crystal, experimental, refinement or atomic coordinate data resulting 
# from the CCDC's data processing and validation procedures.
#
#######################################################################

data_ROQRAS
_symmetry_cell_setting           orthorhombic
_symmetry_space_group_name_H-M   'P c a 21'
_symmetry_Int_Tables_number      29
_space_group_name_Hall           'P 2c -2ac'
loop_
_symmetry_equiv_pos_site_id
_symmetry_equiv_pos_as_xyz
1 x,y,z
2 -x,-y,1/2+z
3 1/2-x,y,1/2+z
4 1/2+x,-y,z
_cell_length_a                   8.4363(11)
_cell_length_b                   13.1485(17)
_cell_length_c                   17.833(2)
_cell_angle_alpha                90
_cell_angle_beta                 90
_cell_angle_gamma                90
_cell_volume                     1978.12
loop_
_atom_site_label
_atom_site_type_symbol
_atom_site_fract_x
_atom_site_fract_y
_atom_site_fract_z
C1 C 0.6193(14) 1.0601(9) 0.3699(7)
C2 C 0.6820(14) 0.9949(10) 0.4331(8)
C3 C 0.765(2) 1.0392(10) 0.4912(9)
H1 H 0.7744 1.1097 0.4925
C4 C 0.8343(18) 0.9814(13) 0.5481(9)
H2 H 0.9003 1.0112 0.5836
C5 C 0.8024(17) 0.8805(13) 0.5498(9)
H3 H 0.8444 0.8413 0.5884
C6 C 0.6555(14) 0.8910(9) 0.4393(7)
C7 C 0.5558(15) 0.8300(8) 0.3865(7)
C8 C 0.7796(16) 0.3139(9) 0.5731(8)
C9 C 0.6954(14) 0.3834(10) 0.5182(7)
C10 C 0.614(2) 0.3391(10) 0.4584(9)
H4 H 0.6118 0.2687 0.4536
C11 C 0.537(2) 0.3978(11) 0.4071(8)
H5 H 0.4810 0.3682 0.3679
C12 C 0.5446(16) 0.5023(9) 0.4145(7)
H6 H 0.4935 0.5432 0.3795
C13 C 0.6984(13) 0.4888(10) 0.5220(7)
C14 C 0.7845(17) 0.5491(11) 0.5821(8)
N1 N 0.7120(11) 0.8352(7) 0.4976(6)
N2 N 0.6239(12) 0.5458(8) 0.4711(6)
O1 O 0.8972(11) 1.0798(8) 0.1775(5)
O2 O 0.7370(12) 1.2756(7) 0.2882(6)
O3 O 0.6879(9) 1.0536(7) 0.3061(5)
O4 O 0.5109(11) 1.1197(6) 0.3859(5)
O5 O 0.4896(10) 0.8740(6) 0.3331(4)
O6 O 0.5444(12) 0.7358(6) 0.4005(5)
O7 O 0.7730(13) 0.6449(8) 0.5770(5)
O8 O 0.8561(16) 0.5056(9) 0.6323(6)
O9 O 0.9154(11) 0.2852(8) 0.5608(6)
O10 O 0.6912(11) 0.2832(9) 0.6259(6)
O11 O 0.5603(12) 1.1519(8) 0.1728(5)
O12 O 1.0703(11) 1.2711(9) 0.2186(6)
Cu1 Cu 0.6465(2) 0.69147(11) 0.49257(9)
U1 U 0.81798(4) 1.17818(3) 0.23286(3)
H7 H 0.54(3) 1.202(9) 0.148(12)
H8 H 0.51(2) 1.106(10) 0.155(11)
H9 H 1.141(11) 1.296(9) 0.244(5)
H10 H 1.094(14) 1.283(10) 0.175(2)
O5C O 0.9896(10) 1.1260(6) 0.3331(4)
O9C O 0.4154(11) 0.7148(8) 0.5608(6)
O10B O 0.8088(11) 1.2832(9) 0.1259(6)
Cu1C Cu 1.1465(2) 0.30853(11) 0.49257(9)
U1B U 0.68202(4) 0.17818(3) 0.73286(3)
U1C U 0.31798(4) 0.82182(3) 0.23286(3)
O14 O 0.3168(11) 1.1449(10) 0.2679(7)
H11 H 0.235(11) 1.162(9) 0.291(8)
H12 H 0.291(13) 1.086(5) 0.255(8)
O13? O 0.335(13) 1.229(10) 0.184(7)
loop_
_geom_bond_atom_site_label_1
_geom_bond_atom_site_label_2
_geom_bond_site_symmetry_1
_geom_bond_site_symmetry_2
C1 C2 1_555 1_555
C2 C3 1_555 1_555
C3 H1 1_555 1_555
C4 C3 1_555 1_555
H2 C4 1_555 1_555
C5 C4 1_555 1_555
H3 C5 1_555 1_555
C6 C2 1_555 1_555
C7 C6 1_555 1_555
C8 C9 1_555 1_555
C9 C10 1_555 1_555
C10 H4 1_555 1_555
C11 C10 1_555 1_555
H5 C11 1_555 1_555
C12 C11 1_555 1_555
H6 C12 1_555 1_555
C13 C9 1_555 1_555
C14 C13 1_555 1_555
N1 C5 1_555 1_555
N2 C12 1_555 1_555
O1 U1 1_555 1_555
O2 U1 1_555 1_555
O3 C1 1_555 1_555
O4 C1 1_555 1_555
O5 C7 1_555 1_555
O6 C7 1_555 1_555
O7 C14 1_555 1_555
O8 C14 1_555 1_555
O9 C8 1_555 1_555
O10 C8 1_555 1_555
O11 U1 1_555 1_555
O12 U1 1_555 1_555
Cu1 N1 1_555 1_555
U1 O3 1_555 1_555
H7 O11 1_555 1_555
H8 O11 1_555 1_555
H9 O12 1_555 1_555
H10 O12 1_555 1_555
O14 H11 1_555 1_555
H12 O14 1_555 1_555
O5C U1 1_555 1_555
O9C Cu1 1_555 1_555
O10B U1 1_555 1_555
Cu1C O9 1_555 1_555
U1B O10 1_555 1_555
U1C O5 1_555 1_555
C6 N1 1_555 1_555
C13 N2 1_555 1_555
N2 Cu1 1_555 1_555
O6 Cu1 1_555 1_555
O7 Cu1 1_555 1_555

#END
