
#######################################################################
#
#                 Cambridge Crystallographic Data Centre
#                                CCDC 
#
#######################################################################
#
# If this CIF has been generated from an entry in the Cambridge 
# Structural Database, then it will include bibliographic, chemical, 
# crystal, experimental, refinement or atomic coordinate data resulting 
# from the CCDC's data processing and validation procedures.
#
#######################################################################

data_ROQRUM
_symmetry_cell_setting           orthorhombic
_symmetry_space_group_name_H-M   'P b c a'
_symmetry_Int_Tables_number      61
_space_group_name_Hall           '-P 2ac 2ab'
loop_
_symmetry_equiv_pos_site_id
_symmetry_equiv_pos_as_xyz
1 x,y,z
2 1/2+x,1/2-y,-z
3 -x,1/2+y,1/2-z
4 1/2-x,-y,1/2+z
5 -x,-y,-z
6 1/2-x,1/2+y,z
7 x,1/2-y,1/2+z
8 1/2+x,y,1/2-z
_cell_length_a                   12.9802(3)
_cell_length_b                   8.14490(18)
_cell_length_c                   14.5848(3)
_cell_angle_alpha                90
_cell_angle_beta                 90
_cell_angle_gamma                90
_cell_volume                     1541.94
loop_
_atom_site_label
_atom_site_type_symbol
_atom_site_fract_x
_atom_site_fract_y
_atom_site_fract_z
Cu1 Cu 0.588127(13) 0.44049(2) 0.628675(12)
C1 C 0.69527(9) 0.32962(15) 0.81154(8)
C2 C 0.86036(9) 0.32301(15) 0.88643(8)
C3 C 0.70950(9) 0.20812(15) 0.96428(8)
C4 C 0.75490(9) 0.28398(16) 0.88784(8)
C5 C 0.59224(10) 0.82529(18) 0.64049(9)
C6 C 0.59681(13) 1.00325(18) 0.65007(12)
N1 N 0.64984(8) 0.36967(15) 0.74738(7)
N2 N 0.94616(8) 0.35831(15) 0.88161(7)
N3 N 0.67102(8) 0.14601(14) 1.02642(7)
N4 N 0.58913(9) 0.68611(16) 0.63311(8)
H1 H 0.5567 1.0371 0.7002
H2 H 0.6655 1.0361 0.6569
H3 H 0.5733 1.0534 0.5950
Cu1F Cu 0.588127(13) 0.05951(2) 1.128675(12)
Cu1G Cu 1.088127(13) 0.44049(2) 0.871325(12)
N2G N 0.44616(8) 0.35831(15) 0.61839(7)
N3F N 0.67102(8) 0.35399(14) 0.52642(7)
loop_
_geom_bond_atom_site_label_1
_geom_bond_atom_site_label_2
_geom_bond_site_symmetry_1
_geom_bond_site_symmetry_2
Cu1 N1 1_555 1_555
C1 C4 1_555 1_555
C2 C4 1_555 1_555
C3 C4 1_555 1_555
C5 C6 1_555 1_555
C6 H1 1_555 1_555
N1 C1 1_555 1_555
N2 C2 1_555 1_555
N3 C3 1_555 1_555
N4 Cu1 1_555 1_555
H2 C6 1_555 1_555
H3 C6 1_555 1_555
Cu1F N3 1_555 1_555
Cu1G N2 1_555 1_555
N2G Cu1 1_555 1_555
N3F Cu1 1_555 1_555
C5 N4 1_555 1_555

#END
