
#######################################################################
#
#                 Cambridge Crystallographic Data Centre
#                                CCDC 
#
#######################################################################
#
# If this CIF has been generated from an entry in the Cambridge 
# Structural Database, then it will include bibliographic, chemical, 
# crystal, experimental, refinement or atomic coordinate data resulting 
# from the CCDC's data processing and validation procedures.
#
#######################################################################

data_ROQVEA
_symmetry_cell_setting           monoclinic
_symmetry_space_group_name_H-M   'P 21/c'
_symmetry_Int_Tables_number      14
_space_group_name_Hall           '-P 2ybc'
loop_
_symmetry_equiv_pos_site_id
_symmetry_equiv_pos_as_xyz
1 x,y,z
2 -x,1/2+y,1/2-z
3 -x,-y,-z
4 x,1/2-y,1/2+z
_cell_length_a                   11.7747(5)
_cell_length_b                   15.2659(5)
_cell_length_c                   14.3648(6)
_cell_angle_alpha                90
_cell_angle_beta                 108.979(4)
_cell_angle_gamma                90
_cell_volume                     2441.72
loop_
_atom_site_label
_atom_site_type_symbol
_atom_site_fract_x
_atom_site_fract_y
_atom_site_fract_z
Zn1 Zn 0.57440(3) 0.23213(2) 0.62099(2)
Zn2 Zn 0.42966(3) 0.19860(2) 0.36866(2)
S1 S 0.48097(6) 0.13290(4) 0.76018(5)
N1 N 0.4420(2) 0.30663(14) 0.54368(15)
N2 N 1.29124(19) -0.20781(14) 0.77632(15)
N3 N 0.3707(2) 0.27665(15) 0.45335(16)
N4 N 0.64389(19) 0.17000(15) 0.52943(15)
O1 O 0.48698(18) 0.22892(12) 0.78031(14)
N5 N 0.57073(19) 0.13136(14) 0.44516(14)
O2 O 0.53360(17) 0.12315(12) 0.67933(14)
N6 N 0.9309(2) -0.02002(14) 0.58770(15)
C1 C -0.1479(2) 0.52682(17) 0.29551(19)
H1 H -0.1304 0.4674 0.2963
N7 N -0.28639(19) 0.64318(15) 0.23096(15)
C2 C 1.2586(2) -0.12503(18) 0.78614(19)
H2 H 1.3051 -0.0926 0.8398
C3 C 0.3927(2) 0.38021(18) 0.56337(19)
H3 H 0.4237 0.4137 0.6200
C4 C 1.2237(2) -0.25352(19) 0.69767(19)
H4 H 1.2465 -0.3105 0.6894
C5 C 0.7449(2) 0.12357(18) 0.56052(18)
H5 H 0.8093 0.1359 0.6168
C6 C -0.2076(2) 0.69878(18) 0.29342(19)
H6 H -0.2291 0.7573 0.2940
C7 C 0.2049(2) 0.47173(17) 0.47187(18)
C8 C -0.2559(2) 0.55840(18) 0.23376(18)
H7 H -0.3097 0.5193 0.1924
N8 N 0.09415(19) 0.47185(14) 0.40744(15)
N9 N 0.2278(2) 0.54928(15) 0.51773(16)
C9 C 0.8302(2) -0.01406(17) 0.51174(19)
N10 N 0.9130(2) -0.14012(15) 0.49108(15)
N11 N 0.8188(2) -0.08470(15) 0.45338(17)
C10 C 0.6292(2) 0.06262(18) 0.42515(19)
H8 H 0.5996 0.0259 0.3710
N12 N 0.13126(19) 0.60367(15) 0.48403(15)
C11 C 0.2884(2) 0.39919(18) 0.48680(18)
C12 C 0.0533(2) 0.55398(17) 0.41721(18)
C13 C 1.1592(2) -0.08595(19) 0.72009(18)
H9 H 1.1404 -0.0279 0.7282
C14 C 0.7405(2) 0.05438(18) 0.49731(18)
C15 C 1.0874(2) -0.13514(18) 0.64075(18)
C16 C -0.0654(2) 0.58452(18) 0.35662(18)
C17 C -0.0980(2) 0.67253(18) 0.35554(19)
H10 H -0.0460 0.7128 0.3965
C18 C 1.1234(2) -0.22033(18) 0.62953(19)
H11 H 1.0795 -0.2542 0.5761
C19 C 0.9774(2) -0.09824(18) 0.57198(18)
C20 C 0.2792(2) 0.33190(18) 0.42014(19)
H12 H 0.2176 0.3262 0.3604
O3 O 0.55231(18) 0.08503(14) 0.84587(15)
O4 O 0.35661(16) 0.10330(13) 0.72774(13)
H13 H 0.296(3) 0.568(2) 0.564(2)
H14 H 0.762(3) -0.100(2) 0.392(2)
Zn1A Zn 1.42560(3) -0.26787(2) 0.87901(2)
Zn2A Zn -0.42966(3) 0.69860(2) 0.13134(2)
Zn2C Zn 0.42966(3) 0.30140(2) 0.86866(2)
N2A N 0.70876(19) 0.29219(14) 0.72368(15)
O1C O 0.48698(18) 0.27108(12) 0.28031(14)
N7A N 0.28639(19) 0.14318(15) 0.26904(15)
O5 O 0.02318(19) 0.36649(14) 0.22623(17)
H15 H 0.039(3) 0.395(3) 0.286(3)
H16 H 0.011(4) 0.408(3) 0.176(3)
loop_
_geom_bond_atom_site_label_1
_geom_bond_atom_site_label_2
_geom_bond_site_symmetry_1
_geom_bond_site_symmetry_2
Zn1 N1 1_555 1_555
Zn2 N3 1_555 1_555
S1 O1 1_555 1_555
N1 N3 1_555 1_555
N2 C2 1_555 1_555
N3 C20 1_555 1_555
N4 Zn1 1_555 1_555
O1 Zn2C 1_555 1_555
N5 Zn2 1_555 1_555
O2 Zn1 1_555 1_555
N6 C9 1_555 1_555
C1 H1 1_555 1_555
N7 C6 1_555 1_555
C2 H2 1_555 1_555
C3 N1 1_555 1_555
H3 C3 1_555 1_555
C4 N2 1_555 1_555
H4 C4 1_555 1_555
C5 N4 1_555 1_555
H5 C5 1_555 1_555
C6 H6 1_555 1_555
C7 N8 1_555 1_555
C8 C1 1_555 1_555
H7 C8 1_555 1_555
N8 C12 1_555 1_555
N9 C7 1_555 1_555
C9 N11 1_555 1_555
N10 N11 1_555 1_555
N11 H14 1_555 1_555
C10 N5 1_555 1_555
H8 C10 1_555 1_555
N12 N9 1_555 1_555
C11 C3 1_555 1_555
C12 N12 1_555 1_555
C13 C2 1_555 1_555
H9 C13 1_555 1_555
C14 C5 1_555 1_555
C15 C13 1_555 1_555
C16 C1 1_555 1_555
C17 C6 1_555 1_555
H10 C17 1_555 1_555
C18 C4 1_555 1_555
H11 C18 1_555 1_555
C19 N6 1_555 1_555
C20 C11 1_555 1_555
H12 C20 1_555 1_555
O3 S1 1_555 1_555
O4 S1 1_555 1_555
H13 N9 1_555 1_555
O5 H15 1_555 1_555
H16 O5 1_555 1_555
Zn1A N2 1_555 1_555
Zn2A N7 1_555 1_555
N2A Zn1 1_555 1_555
O1C Zn2 1_555 1_555
N7A Zn2 1_555 1_555
S1 O2 1_555 1_555
N4 N5 1_555 1_555
N7 C8 1_555 1_555
C7 C11 1_555 1_555
C9 C14 1_555 1_555
N10 C19 1_555 1_555
C10 C14 1_555 1_555
C12 C16 1_555 1_555
C15 C18 1_555 1_555
C15 C19 1_555 1_555
C16 C17 1_555 1_555

#END
