
#######################################################################
#
#                 Cambridge Crystallographic Data Centre
#                                CCDC 
#
#######################################################################
#
# If this CIF has been generated from an entry in the Cambridge 
# Structural Database, then it will include bibliographic, chemical, 
# crystal, experimental, refinement or atomic coordinate data resulting 
# from the CCDC's data processing and validation procedures.
#
#######################################################################

data_ROQXOM
_symmetry_cell_setting           orthorhombic
_symmetry_space_group_name_H-M   'P n a 21'
_symmetry_Int_Tables_number      33
_space_group_name_Hall           'P 2c -2n'
loop_
_symmetry_equiv_pos_site_id
_symmetry_equiv_pos_as_xyz
1 x,y,z
2 -x,-y,1/2+z
3 1/2+x,1/2-y,z
4 1/2-x,1/2+y,1/2+z
_cell_length_a                   20.4932(8)
_cell_length_b                   13.7177(6)
_cell_length_c                   27.2481(11)
_cell_angle_alpha                90
_cell_angle_beta                 90
_cell_angle_gamma                90
_cell_volume                     7659.97
loop_
_atom_site_label
_atom_site_type_symbol
_atom_site_fract_x
_atom_site_fract_y
_atom_site_fract_z
Co1 Co 0.72980(3) 1.24729(5) 0.68399(3)
O1 O 0.83326(16) 1.2627(2) 0.69573(12)
O2 O 0.79307(16) 1.2514(2) 0.62102(13)
N1 N 0.74323(19) 1.0893(3) 0.68791(17)
O3 O 0.69221(16) 1.2561(3) 0.75470(13)
O4 O 0.63952(16) 1.2369(2) 0.65248(13)
N2 N 0.7223(2) 1.4047(3) 0.67671(17)
C1 C 0.8415(2) 1.2587(3) 0.64954(18)
C2 C 0.7968(3) 1.0449(4) 0.7031(2)
C3 C 0.6945(3) 1.0307(4) 0.6737(2)
H1 H 0.7194 1.2629 0.7780
H2 H 0.6532 1.2474 0.7591
C4 C 0.9092(2) 1.2601(3) 0.62916(18)
H3 H 0.8317 1.0843 0.7146
C5 C 0.8055(3) 0.9446(4) 0.7033(2)
C6 C 0.6981(3) 0.9305(4) 0.6727(2)
H4 H 0.6548 1.0603 0.6636
C7 C 0.9177(3) 1.2557(3) 0.57825(19)
C8 C 0.9630(2) 1.2663(3) 0.65932(19)
H5 H 0.8455 0.9172 0.7144
C9 C 0.7555(2) 0.8845(3) 0.6872(2)
H6 H 0.6617 0.8930 0.6622
H7 H 0.8805 1.2554 0.5574
C10 C 0.9798(2) 1.2517(3) 0.55761(19)
C11 C 1.0260(2) 1.2637(3) 0.63988(19)
H8 H 0.9572 1.2724 0.6938
C12 C 0.7632(3) 0.7744(4) 0.6895(2)
C13 C 0.9878(3) 1.2425(4) 0.5028(2)
C14 C 1.0339(2) 1.2548(3) 0.58912(19)
C15 C 1.0845(2) 1.2701(3) 0.67300(19)
H9 H 0.8078 0.7574 0.6784
H10 H 0.7591 0.7535 0.7241
C16 C 0.7149(3) 0.7177(4) 0.6592(3)
O5 O 0.93782(19) 1.2526(3) 0.47739(14)
O6 O 1.04496(18) 1.2239(3) 0.48816(14)
H11 H 1.0766 1.2507 0.5757
O7 O 1.07589(17) 1.2832(3) 0.71795(14)
H12 H 0.7219 0.7335 0.6241
H13 H 0.6703 0.7390 0.6680
C17 C 0.7197(3) 0.6091(4) 0.6658(2)
C18 C 0.7170(3) 0.5458(4) 0.6255(2)
C19 C 0.7241(4) 0.5650(5) 0.7109(3)
C20 C 0.7181(3) 0.4467(4) 0.6324(2)
H14 H 0.7144 0.5717 0.5932
H15 H 0.7267 0.6039 0.7397
C21 C 0.7248(3) 0.4648(4) 0.7150(2)
H16 H 0.7157 0.4058 0.6043
H17 H 0.7272 0.4372 0.7469
O4B O 1.13952(16) 1.2631(2) 0.65248(13)
Co1B Co 1.22980(3) 1.25271(5) 0.68399(3)
N2_2 N 0.7223(2) 0.4047(3) 0.67671(17)
Co1_2 Co 0.72980(3) 0.24729(5) 0.68399(3)
Co2 Co 0.47158(3) 0.97861(5) 0.78297(2)
O8 O 0.57071(16) 0.9613(3) 0.78322(14)
O9 O 0.5795(9) 0.8099(13) 0.7983(7)
O10 O 0.74533(18) 1.1841(3) 0.83833(15)
O11 O 0.84699(17) 1.1270(3) 0.84271(15)
O12 O 0.88601(17) 0.7736(3) 0.83391(14)
O13 O 0.80452(17) 0.6724(3) 0.81482(15)
N3 N 0.4723(2) 0.9791(3) 0.86197(16)
N4 N 0.5340(2) 1.0099(3) 1.20394(16)
C22 C 0.4281(3) 0.9315(4) 0.88941(19)
H18 H 0.3950 0.8957 0.8730
C23 C 0.4283(3) 0.9319(4) 0.9390(2)
H19 H 0.3970 0.8937 0.9562
C24 C 0.4727(3) 0.9863(4) 0.9653(2)
C25 C 0.5179(3) 1.0354(4) 0.9369(2)
H20 H 0.5510 1.0728 0.9524
C26 C 0.5157(3) 1.0310(4) 0.8866(2)
H21 H 0.5470 1.0672 0.8685
C27 C 0.4696(3) 0.9901(4) 1.0200(2)
H22 H 0.4498 0.9288 1.0321
H23 H 0.4406 1.0443 1.0298
C28 C 0.5352(3) 1.0037(4) 1.04491(19)
H24 H 0.5542 1.0661 1.0337
H25 H 0.5647 0.9508 1.0341
C29 C 0.4789(3) 1.0048(4) 1.1779(2)
H26 H 0.4389 1.0036 1.1955
C30 C 0.4762(3) 1.0011(4) 1.1282(2)
H27 H 0.4351 0.9965 1.1122
C31 C 0.5328(3) 1.0040(4) 1.1006(2)
C32 C 0.5907(3) 1.0080(4) 1.12749(19)
H28 H 0.6314 1.0088 1.1108
C33 C 0.5894(2) 1.0108(4) 1.17756(19)
H29 H 0.6297 1.0134 1.1947
C34 C 0.6017(3) 0.8892(4) 0.7989(2)
C35 C 0.6726(2) 0.9063(4) 0.8110(2)
C36 C 0.6960(2) 0.9972(4) 0.8179(2)
H30 H 0.6673 1.0513 0.8145
C37 C 0.7622(2) 1.0140(4) 0.82996(19)
C38 C 0.7871(3) 1.1153(4) 0.83728(19)
C39 C 0.8033(2) 0.9340(4) 0.83230(19)
H31 H 0.8482 0.9439 0.8392
C40 C 0.7804(2) 0.8394(4) 0.82476(18)
C41 C 0.8268(3) 0.7545(4) 0.82504(19)
C42 C 0.7139(2) 0.8257(4) 0.8159(2)
H32 H 0.6967 0.7616 0.8132
O14 O 0.36905(16) 0.9914(3) 0.78576(13)
H33 H 0.3502 0.9930 0.8140
H34 H 0.3472 0.9928 0.7602
O15 O 0.46221(17) 0.8244(3) 0.77726(13)
H35 H 0.4604 0.7884 0.8035
H36 H 0.4602 0.7959 0.7498
O16 O 0.49083(17) 1.1301(2) 0.78600(13)
H37 H 0.4951 1.1588 0.8127
H38 H 0.4948 1.1618 0.7588
Co2A Co 0.52842(3) 1.02139(5) 1.28297(2)
N4A N 0.4660(2) 0.9901(3) 0.70394(16)
Co3 Co 0.74088(3) 0.78594(5) 0.48325(3)
O17 O 0.84599(16) 0.7981(2) 0.47176(12)
O18 O 0.80501(16) 0.7796(2) 0.54563(13)
O19 O 1.08747(17) 0.7422(3) 0.44917(13)
O20 O 1.15031(16) 0.7243(3) 0.51551(13)
O21 O 0.94709(17) 0.7447(3) 0.68925(14)
H39 H 0.9167 0.7129 0.6761
O22 O 1.05432(18) 0.7196(3) 0.68045(14)
N5 N 0.7483(2) 0.6270(3) 0.47678(18)
N6 N 0.73664(19) -0.0577(3) 0.48990(17)
C43 C 0.7561(3) 0.4223(4) 0.4677(2)
C44 C 0.7955(6) 0.5840(9) 0.4516(6)
H40 H 0.8263 0.6233 0.4347
C45 C 0.8012(7) 0.4842(10) 0.4489(5)
H41 H 0.8386 0.4574 0.4333
C46 C 0.7041(6) 0.4692(8) 0.4927(5)
H42 H 0.6714 0.4311 0.5083
C47 C 0.7007(5) 0.5694(7) 0.4948(4)
H43 H 0.6634 0.5989 0.5093
C48 C 0.7613(3) 0.3141(4) 0.4619(2)
H44 H 0.8080 0.2960 0.4608
H45 H 0.7415 0.2954 0.4301
C49 C 0.7285(3) 0.2563(4) 0.5024(2)
H46 H 0.7068 0.2869 0.5291
C50 C 0.7482(3) -0.0008(4) 0.4511(2)
H47 H 0.7574 -0.0310 0.4205
C51 C 0.7475(3) 0.1005(4) 0.4531(2)
H48 H 0.7571 0.1379 0.4246
C52 C 0.7327(2) 0.1465(4) 0.4974(2)
C53 C 0.7225(3) 0.0870(4) 0.5376(2)
H49 H 0.7140 0.1148 0.5689
C54 C 0.7249(3) -0.0122(4) 0.5323(2)
H50 H 0.7176 -0.0511 0.5606
C55 C 0.8538(2) 0.7848(3) 0.51805(18)
C56 C 0.9210(2) 0.7725(3) 0.53821(18)
C57 C 0.9757(2) 0.7643(3) 0.50817(19)
H51 H 0.9705 0.7701 0.4736
C58 C 1.0373(2) 0.7480(4) 0.52713(19)
C59 C 1.0956(2) 0.7372(3) 0.49464(19)
C60 C 1.0444(3) 0.7402(4) 0.57761(19)
H52 H 1.0865 0.7295 0.5912
C61 C 0.9901(2) 0.7479(4) 0.60871(19)
C62 C 1.0009(3) 0.7357(4) 0.66248(19)
C63 C 0.9290(2) 0.7634(4) 0.5892(2)
H53 H 0.8922 0.7678 0.6103
O23 O 0.70621(16) 0.7997(3) 0.41170(13)
H54 H 0.7326 0.8004 0.3884
H55 H 0.6652 0.7948 0.4063
Co3_2 Co 0.74088(3) -0.21406(5) 0.48325(3)
Co3B Co 1.24088(3) 0.71406(5) 0.48325(3)
O20B O 0.65031(16) 0.7757(3) 0.51551(13)
N6_2 N 0.73664(19) 0.9423(3) 0.48990(17)
Co4 Co 0.98015(3) 1.01924(5) 0.40269(3)
N7 N 0.9744(2) 1.0121(3) 0.48087(19)
N8 N 1.0192(2) 0.9833(3) 0.82438(18)
C64 C 1.0285(3) 0.9996(4) 0.5075(2)
H56 H 1.0687 0.9931 0.4904
C65 C 1.0303(3) 0.9956(4) 0.5581(2)
H57 H 1.0709 0.9882 0.5745
C66 C 0.9729(3) 1.0023(4) 0.5850(2)
C67 C 0.9165(3) 1.0154(4) 0.5571(2)
H58 H 0.8758 1.0215 0.5735
C68 C 0.9182(3) 1.0200(4) 0.5068(2)
H59 H 0.8784 1.0290 0.4895
C69 C 0.9699(3) 0.9991(4) 0.6397(2)
H60 H 0.9438 0.9416 0.6496
H61 H 0.9465 1.0578 0.6514
C70 C 1.0370(3) 0.9939(4) 0.6660(2)
H62 H 1.0609 0.9355 0.6545
H63 H 1.0630 1.0521 0.6573
C71 C 1.0296(3) 0.9891(4) 0.7208(2)
C72 C 1.0043(5) 1.0683(7) 0.7990(3)
H64 H 0.9888 1.1238 0.8164
C73 C 1.0118(7) 1.0727(10) 0.7484(5)
H65 H 1.0050 1.1329 0.7320
C74 C 1.0439(6) 0.9070(8) 0.7491(5)
H66 H 1.0583 0.8489 0.7335
C75 C 1.0371(5) 0.9097(8) 0.7999(4)
H67 H 1.0468 0.8518 0.8175
O24 O 1.05433(17) 1.1205(3) 0.40796(13)
H68 H 1.0668 1.1412 0.4353
H69 H 1.0708 1.1453 0.3816
O25 O 0.9133(2) 1.1324(4) 0.40535(16)
H70 H 0.8982 1.1555 0.4314
H71 H 0.9015 1.1631 0.3777
O26 O 1.05228(18) 0.9103(3) 0.40324(13)
H72 H 1.0642 0.8853 0.4291
H73 H 1.0684 0.8913 0.3755
O27 O 0.9060(2) 0.9128(3) 0.40060(15)
H74 H 0.8897 0.8982 0.4285
C76 C 0.8738(6) 0.8604(10) 0.3610(4)
H75 H 0.8799 0.8952 0.3295
H76 H 0.8265 0.8547 0.3676
C77 C 0.9060(6) 0.7567(11) 0.3586(5)
H77 H 0.8860 0.7191 0.3319
H78 H 0.8992 0.7229 0.3898
H79 H 0.9529 0.7635 0.3524
Co4A Co 1.01985(3) 0.98076(5) 0.90269(3)
N8A N 0.9808(2) 1.0167(3) 0.32438(18)
O28 O 0.8701(2) 0.3014(3) 0.79158(16)
H80 H 0.8968 0.2316 0.7833
H81 H 0.8289 0.2848 0.7962
O29 O 0.6902(4) 0.5894(6) 0.8426(3)
H82 H 0.7345 0.5729 0.8419
H83 H 0.6750 0.6161 0.8167
O30? O 0.5774(12) 0.8004(18) 0.8174(8)
C78? C 0.8086(7) 0.5746(9) 0.4830(7)
H84? H 0.8473 0.6082 0.4921
C79? C 0.8098(8) 0.4767(11) 0.4756(5)
H85? H 0.8509 0.4447 0.4761
C80? C 0.7004(6) 0.4744(9) 0.4568(5)
H86? H 0.6625 0.4420 0.4450
C81? C 0.7003(6) 0.5739(8) 0.4633(5)
H87? H 0.6603 0.6066 0.4570
C82? C 0.9785(12) 1.0276(15) 0.7977(7)
H88? H 0.9403 1.0521 0.8130
C83? C 0.9856(16) 1.044(2) 0.7456(13)
H89? H 0.9601 1.0918 0.7293
C84? C 1.0689(14) 0.9331(18) 0.7449(11)
H90? H 1.1007 0.8957 0.7278
C85? C 1.0646(12) 0.9272(19) 0.7971(10)
H91? H 1.0930 0.8842 0.8141
H92? H 0.8903 0.8905 0.4272
H93? H 0.8919 0.8921 0.3732
loop_
_geom_bond_atom_site_label_1
_geom_bond_atom_site_label_2
_geom_bond_site_symmetry_1
_geom_bond_site_symmetry_2
Co1 O1 1_555 1_555
O1 C1 1_555 1_555
O2 Co1 1_555 1_555
N1 Co1 1_555 1_555
O3 Co1 1_555 1_555
O4 Co1 1_555 1_555
N2 Co1 1_555 1_555
C1 O2 1_555 1_555
C2 N1 1_555 1_555
C3 N1 1_555 1_555
H1 O3 1_555 1_555
H2 O3 1_555 1_555
C4 C1 1_555 1_555
H3 C2 1_555 1_555
C5 C2 1_555 1_555
C6 C3 1_555 1_555
H4 C3 1_555 1_555
C7 C4 1_555 1_555
C8 C4 1_555 1_555
H5 C5 1_555 1_555
C9 C5 1_555 1_555
H6 C6 1_555 1_555
H7 C7 1_555 1_555
C10 C7 1_555 1_555
C11 C8 1_555 1_555
H8 C8 1_555 1_555
C12 C9 1_555 1_555
C13 C10 1_555 1_555
C14 C10 1_555 1_555
C15 C11 1_555 1_555
H9 C12 1_555 1_555
H10 C12 1_555 1_555
C16 C12 1_555 1_555
O5 C13 1_555 1_555
O6 C13 1_555 1_555
H11 C14 1_555 1_555
O7 C15 1_555 1_555
H12 C16 1_555 1_555
H13 C16 1_555 1_555
C17 C16 1_555 1_555
C18 C17 1_555 1_555
C19 C17 1_555 1_555
C20 C18 1_555 1_555
H14 C18 1_555 1_555
H15 C19 1_555 1_555
C21 C19 1_555 1_555
H16 C20 1_555 1_555
H17 C21 1_555 1_555
Co2 O8 1_555 1_555
O8 C34 1_555 1_555
O9 C34 1_555 1_555
O10 C38 1_555 1_555
O11 C38 1_555 1_555
O12 C41 1_555 1_555
O13 C41 1_555 1_555
N3 Co2 1_555 1_555
N4 C29 1_555 1_555
C22 N3 1_555 1_555
H18 C22 1_555 1_555
C23 C22 1_555 1_555
H19 C23 1_555 1_555
C24 C23 1_555 1_555
C25 C24 1_555 1_555
H20 C25 1_555 1_555
C26 N3 1_555 1_555
H21 C26 1_555 1_555
C27 C24 1_555 1_555
H22 C27 1_555 1_555
H23 C27 1_555 1_555
C28 C27 1_555 1_555
H24 C28 1_555 1_555
H25 C28 1_555 1_555
C29 H26 1_555 1_555
C30 C29 1_555 1_555
H27 C30 1_555 1_555
C31 C28 1_555 1_555
C32 C31 1_555 1_555
H28 C32 1_555 1_555
C33 N4 1_555 1_555
H29 C33 1_555 1_555
C34 C35 1_555 1_555
C35 C36 1_555 1_555
C36 H30 1_555 1_555
C37 C36 1_555 1_555
C38 C37 1_555 1_555
C39 C37 1_555 1_555
H31 C39 1_555 1_555
C40 C39 1_555 1_555
C41 C40 1_555 1_555
C42 C35 1_555 1_555
H32 C42 1_555 1_555
O14 Co2 1_555 1_555
H33 O14 1_555 1_555
H34 O14 1_555 1_555
O15 Co2 1_555 1_555
H35 O15 1_555 1_555
H36 O15 1_555 1_555
O16 Co2 1_555 1_555
H37 O16 1_555 1_555
H38 O16 1_555 1_555
Co3 O17 1_555 1_555
O17 C55 1_555 1_555
O18 Co3 1_555 1_555
O19 C59 1_555 1_555
O20 C59 1_555 1_555
O21 H39 1_555 1_555
O22 C62 1_555 1_555
N5 Co3 1_555 1_555
N6 C50 1_555 1_555
C43 C45 1_555 1_555
C44 N5 1_555 1_555
H40 C44 1_555 1_555
C45 C44 1_555 1_555
H41 C45 1_555 1_555
C46 C43 1_555 1_555
H42 C46 1_555 1_555
C47 N5 1_555 1_555
H43 C47 1_555 1_555
C48 C43 1_555 1_555
H44 C48 1_555 1_555
H45 C48 1_555 1_555
C49 C48 1_555 1_555
H46 C49 1_555 1_555
C50 H47 1_555 1_555
C51 C50 1_555 1_555
H48 C51 1_555 1_555
C52 C49 1_555 1_555
C53 C52 1_555 1_555
H49 C53 1_555 1_555
C54 N6 1_555 1_555
H50 C54 1_555 1_555
C55 O18 1_555 1_555
C56 C55 1_555 1_555
C57 C56 1_555 1_555
H51 C57 1_555 1_555
C58 C57 1_555 1_555
C59 C58 1_555 1_555
C60 C58 1_555 1_555
H52 C60 1_555 1_555
C61 C60 1_555 1_555
C62 O21 1_555 1_555
C63 C56 1_555 1_555
H53 C63 1_555 1_555
O23 Co3 1_555 1_555
H54 O23 1_555 1_555
H55 O23 1_555 1_555
Co4 N7 1_555 1_555
N7 C64 1_555 1_555
N8 C72 1_555 1_555
C64 H56 1_555 1_555
C65 C64 1_555 1_555
H57 C65 1_555 1_555
C66 C65 1_555 1_555
C67 C66 1_555 1_555
H58 C67 1_555 1_555
C68 N7 1_555 1_555
H59 C68 1_555 1_555
C69 C66 1_555 1_555
H60 C69 1_555 1_555
H61 C69 1_555 1_555
C70 C69 1_555 1_555
H62 C70 1_555 1_555
H63 C70 1_555 1_555
C71 C70 1_555 1_555
C72 H64 1_555 1_555
C73 C71 1_555 1_555
H65 C73 1_555 1_555
C74 C71 1_555 1_555
H66 C74 1_555 1_555
C75 N8 1_555 1_555
H67 C75 1_555 1_555
O24 Co4 1_555 1_555
H68 O24 1_555 1_555
H69 O24 1_555 1_555
O25 Co4 1_555 1_555
H70 O25 1_555 1_555
H71 O25 1_555 1_555
O26 Co4 1_555 1_555
H72 O26 1_555 1_555
H73 O26 1_555 1_555
O27 Co4 1_555 1_555
H74 O27 1_555 1_555
C76 O27 1_555 1_555
H75 C76 1_555 1_555
H76 C76 1_555 1_555
C77 C76 1_555 1_555
H77 C77 1_555 1_555
H78 C77 1_555 1_555
H79 C77 1_555 1_555
O28 H80 1_555 1_555
H81 O28 1_555 1_555
O29 H82 1_555 1_555
H83 O29 1_555 1_555
O4B C15 1_555 1_555
Co1B O4B 1_555 1_555
N2_2 C20 1_555 1_555
Co1_2 N2_2 1_555 1_555
Co2A N4 1_555 1_555
N4A Co2 1_555 1_555
Co3_2 N6 1_555 1_555
Co3B O20 1_555 1_555
O20B Co3 1_555 1_555
N6_2 Co3 1_555 1_555
Co4A N8 1_555 1_555
N8A Co4 1_555 1_555
C6 C9 1_555 1_555
C11 C14 1_555 1_555
C21 N2_2 1_555 1_555
C25 C26 1_555 1_555
C30 C31 1_555 1_555
C32 C33 1_555 1_555
C40 C42 1_555 1_555
C46 C47 1_555 1_555
C51 C52 1_555 1_555
C53 C54 1_555 1_555
C61 C62 1_555 1_555
C61 C63 1_555 1_555
C67 C68 1_555 1_555
C72 C73 1_555 1_555
C74 C75 1_555 1_555

#END
