
#######################################################################
#
#                 Cambridge Crystallographic Data Centre
#                                CCDC 
#
#######################################################################
#
# If this CIF has been generated from an entry in the Cambridge 
# Structural Database, then it will include bibliographic, chemical, 
# crystal, experimental, refinement or atomic coordinate data resulting 
# from the CCDC's data processing and validation procedures.
#
#######################################################################

data_RORCUW
_symmetry_cell_setting           monoclinic
_symmetry_space_group_name_H-M   'P 21/c'
_symmetry_Int_Tables_number      14
_space_group_name_Hall           '-P 2ybc'
loop_
_symmetry_equiv_pos_site_id
_symmetry_equiv_pos_as_xyz
1 x,y,z
2 x,1/2-y,1/2+z
3 -x,-y,-z
4 -x,1/2+y,1/2-z
_cell_length_a                   10.5845(3)
_cell_length_b                   14.50150(10)
_cell_length_c                   11.9019(3)
_cell_angle_alpha                90
_cell_angle_beta                 107.4000(10)
_cell_angle_gamma                90
_cell_volume                     1743.24
loop_
_atom_site_label
_atom_site_type_symbol
_atom_site_fract_x
_atom_site_fract_y
_atom_site_fract_z
Ag1 Ag -0.90747(3) 0.38838(2) 1.14911(3)
S1 S -0.78201(9) 0.59555(7) 1.08721(8)
O1 O -0.7711(3) 0.5297(2) 1.1790(2)
O2 O -0.7691(4) 0.6892(2) 1.1263(3)
O3 O -0.8846(3) 0.5744(3) 0.9819(3)
C1 C -1.3662(4) 0.4248(3) 0.9549(4)
F1 F -1.4737(3) 0.4058(2) 0.8689(3)
F2 F -1.3694(4) 0.3757(3) 1.0452(3)
F3 F -1.3727(3) 0.5132(2) 0.9841(3)
N1 N -0.9361(3) 0.3919(2) 1.3274(3)
C2 C -0.9386(3) 0.3909(2) 1.4229(3)
C3 C -0.9423(3) 0.3850(2) 1.5419(3)
C4 C -0.8465(3) 0.4310(3) 1.6318(3)
C5 C -0.8505(4) 0.4198(3) 1.7473(3)
H1 H -0.7925(44) 0.4521(31) 1.8040(40)
C6 C -0.9462(4) 0.3659(3) 1.7714(4)
H2 H -0.9435(47) 0.3580(32) 1.8463(45)
C7 C -1.0403(4) 0.3215(3) 1.6824(4)
H3 H -1.1021(44) 0.2857(32) 1.6949(39)
C8 C -1.0392(4) 0.3308(3) 1.5675(4)
H4 H -1.0978(41) 0.3039(29) 1.5081(37)
C9 C -0.7503(4) 0.4894(3) 1.6054(3)
C10 C -0.6718(4) 0.5395(3) 1.5826(3)
C11 C -0.5799(3) 0.5990(2) 1.5513(3)
C12 C -0.4725(4) 0.6360(3) 1.6370(3)
H5 H -0.4608(43) 0.6236(28) 1.7212(40)
C13 C -0.3843(4) 0.6924(3) 1.6055(3)
H6 H -0.3155(42) 0.7187(29) 1.6628(37)
C14 C -0.4025(3) 0.7135(2) 1.4874(3)
C15 C -0.5109(4) 0.6771(3) 1.4012(3)
H7 H -0.5252(40) 0.6935(30) 1.3211(39)
C16 C -0.5984(4) 0.6202(3) 1.4335(4)
H8 H -0.6633(47) 0.5989(29) 1.3783(41)
C17 C -0.3083(4) 0.7696(3) 1.4533(3)
N2 N -0.7670(3) 0.3104(2) 1.0763(3)
Ag1B Ag -1.09253(3) 0.61162(2) 0.85089(3)
O1B O -1.2289(3) 0.4703(2) 0.8210(2)
S1B S -1.21799(9) 0.40445(7) 0.91279(8)
O2B O -1.2309(4) 0.3108(2) 0.8737(3)
O3B O -1.1154(3) 0.4256(3) 1.0181(3)
N2C N -0.2330(3) 0.8104(2) 1.4237(3)
Ag1C Ag -0.09253(3) 0.88838(2) 1.35089(3)
N1B N -1.0639(3) 0.6081(2) 0.6726(3)
C2B C -1.0614(3) 0.6091(2) 0.5771(3)
C3B C -1.0577(3) 0.6150(2) 0.4581(3)
C4B C -1.1535(3) 0.5690(3) 0.3682(3)
C5B C -1.1495(4) 0.5802(3) 0.2527(3)
H1B H -1.2075(44) 0.5479(31) 0.1960(40)
C6B C -1.0538(4) 0.6341(3) 0.2286(4)
H2B H -1.0565(47) 0.6420(32) 0.1537(45)
C7B C -0.9597(4) 0.6785(3) 0.3176(4)
H3B H -0.8979(44) 0.7143(32) 0.3051(39)
C8B C -0.9608(4) 0.6692(3) 0.4325(4)
H4B H -0.9022(41) 0.6961(29) 0.4919(37)
C9B C -1.2497(4) 0.5106(3) 0.3946(3)
C10B C -1.3282(4) 0.4605(3) 0.4174(3)
C11B C -1.4201(3) 0.4010(2) 0.4487(3)
C12B C -1.5275(4) 0.3640(3) 0.3630(3)
H5B H -1.5392(43) 0.3764(28) 0.2788(40)
C13B C -1.6157(4) 0.3076(3) 0.3945(3)
H6B H -1.6845(42) 0.2813(29) 0.3372(37)
C14B C -1.5975(3) 0.2865(2) 0.5126(3)
C15B C -1.4891(4) 0.3229(3) 0.5988(3)
H7B H -1.4748(40) 0.3065(30) 0.6789(39)
C16B C -1.4016(4) 0.3798(3) 0.5665(4)
H8B H -1.3367(47) 0.4011(29) 0.6217(41)
C17B C -1.6917(4) 0.2304(3) 0.5467(3)
N2A N -1.7670(3) 0.1896(2) 0.5763(3)
Ag1A Ag -1.90747(3) 0.11162(2) 0.64911(3)
N2B N -1.2330(3) 0.6896(2) 0.9237(3)
C1B C -0.6338(4) 0.5752(3) 1.0451(4)
F1B F -0.5263(3) 0.5942(2) 1.1311(3)
F2B F -0.6306(4) 0.6243(3) 0.9548(3)
F3B F -0.6273(3) 0.4868(2) 1.0159(3)
loop_
_geom_bond_atom_site_label_1
_geom_bond_atom_site_label_2
_geom_bond_site_symmetry_1
_geom_bond_site_symmetry_2
Ag1 O1 1_555 1_555
S1 O1 1_555 1_555
O2 S1 1_555 1_555
O3 S1 1_555 1_555
C1 F1 1_555 1_555
F2 C1 1_555 1_555
F3 C1 1_555 1_555
N1 Ag1 1_555 1_555
C2 N1 1_555 1_555
C3 C2 1_555 1_555
C4 C3 1_555 1_555
C5 C4 1_555 1_555
H1 C5 1_555 1_555
C6 C5 1_555 1_555
H2 C6 1_555 1_555
C7 C6 1_555 1_555
H3 C7 1_555 1_555
C8 C3 1_555 1_555
H4 C8 1_555 1_555
C9 C4 1_555 1_555
C10 C9 1_555 1_555
C11 C10 1_555 1_555
C12 C11 1_555 1_555
H5 C12 1_555 1_555
C13 C12 1_555 1_555
H6 C13 1_555 1_555
C14 C13 1_555 1_555
C15 C14 1_555 1_555
H7 C15 1_555 1_555
C16 C11 1_555 1_555
H8 C16 1_555 1_555
C17 C14 1_555 1_555
N2 Ag1 1_555 1_555
Ag1B O3 1_555 1_555
O1B Ag1B 1_555 1_555
S1B C1 1_555 1_555
O2B S1B 1_555 1_555
O3B Ag1 1_555 1_555
N2C C17 1_555 1_555
Ag1C N2C 1_555 1_555
N1B Ag1B 1_555 1_555
C2B N1B 1_555 1_555
C3B C2B 1_555 1_555
C4B C3B 1_555 1_555
C5B C4B 1_555 1_555
H1B C5B 1_555 1_555
C6B C5B 1_555 1_555
H2B C6B 1_555 1_555
C7B C6B 1_555 1_555
H3B C7B 1_555 1_555
C8B C3B 1_555 1_555
H4B C8B 1_555 1_555
C9B C4B 1_555 1_555
C10B C9B 1_555 1_555
C11B C10B 1_555 1_555
C12B C11B 1_555 1_555
H5B C12B 1_555 1_555
C13B C12B 1_555 1_555
H6B C13B 1_555 1_555
C14B C13B 1_555 1_555
C15B C14B 1_555 1_555
H7B C15B 1_555 1_555
C16B C11B 1_555 1_555
H8B C16B 1_555 1_555
C17B C14B 1_555 1_555
N2A C17B 1_555 1_555
Ag1A N2A 1_555 1_555
N2B Ag1B 1_555 1_555
C1B S1 1_555 1_555
F1B C1B 1_555 1_555
F2B C1B 1_555 1_555
F3B C1B 1_555 1_555
C7 C8 1_555 1_555
C15 C16 1_555 1_555
O1B S1B 1_555 1_555
S1B O3B 1_555 1_555
C7B C8B 1_555 1_555
C15B C16B 1_555 1_555

#END
