
#######################################################################
#
#                 Cambridge Crystallographic Data Centre
#                                CCDC 
#
#######################################################################
#
# If this CIF has been generated from an entry in the Cambridge 
# Structural Database, then it will include bibliographic, chemical, 
# crystal, experimental, refinement or atomic coordinate data resulting 
# from the CCDC's data processing and validation procedures.
#
#######################################################################

data_RORDEJ
_symmetry_cell_setting           monoclinic
_symmetry_space_group_name_H-M   'P 21/c'
_symmetry_Int_Tables_number      14
_space_group_name_Hall           '-P 2ybc'
loop_
_symmetry_equiv_pos_site_id
_symmetry_equiv_pos_as_xyz
1 x,y,z
2 -x,1/2+y,1/2-z
3 -x,-y,-z
4 x,1/2-y,1/2+z
_cell_length_a                   6.5278(3)
_cell_length_b                   15.3457(6)
_cell_length_c                   11.3396(4)
_cell_angle_alpha                90
_cell_angle_beta                 105.729(4)
_cell_angle_gamma                90
_cell_volume                     1093.39
loop_
_atom_site_label
_atom_site_type_symbol
_atom_site_fract_x
_atom_site_fract_y
_atom_site_fract_z
Cd1 Cd 0.22019(4) 0.458928(17) 0.93680(2)
Cl1 Cl 0.41151(14) 0.61457(6) 0.97273(8)
Cl2 Cl 0.14602(14) 0.45877(6) 1.14871(8)
O1 O -0.0183(4) 0.33427(18) 0.9079(3)
N1 N 0.2481(5) 0.4402(2) 0.7378(3)
C1 C 0.2592(7) 0.5138(3) 0.6773(4)
H1 H 0.2603 0.5677 0.7186
C2 C 0.2690(7) 0.5149(5) 0.5570(4)
H2 H 0.2780 0.5684 0.5165
C3 C 0.2655(8) 0.4373(5) 0.4981(5)
H3 H 0.2693 0.4359 0.4150
C4 C 0.2564(8) 0.3614(5) 0.5599(4)
H4 H 0.2573 0.3070 0.5199
C5 C 0.2458(6) 0.3633(3) 0.6804(4)
C6 C 0.2302(7) 0.2809(3) 0.7477(4)
H5 H 0.3007 0.2897 0.8358
H6 H 0.3080 0.2343 0.7176
C7 C 0.0022(7) 0.2510(3) 0.7332(4)
H7 H -0.0674 0.2414 0.6451
H8 H 0.0053 0.1944 0.7756
C8 C -0.1300(6) 0.3141(3) 0.7830(4)
H9 H -0.1541 0.3679 0.7331
H10 H -0.2700 0.2878 0.7796
H11 H -0.117(7) 0.354(3) 0.941(5)
Cd1B Cd -0.22019(4) 0.541072(17) 1.06320(2)
Cd1B_2 Cd 0.77981(4) 0.541072(17) 1.06320(2)
Cl1B Cl 0.58849(14) 0.38543(6) 1.02727(8)
Cl2B Cl -0.14602(14) 0.54123(6) 0.85129(8)
loop_
_geom_bond_atom_site_label_1
_geom_bond_atom_site_label_2
_geom_bond_site_symmetry_1
_geom_bond_site_symmetry_2
Cd1 Cl1 1_555 1_555
Cl1 Cd1B_2 1_555 1_555
Cl2 Cd1 1_555 1_555
O1 Cd1 1_555 1_555
N1 Cd1 1_555 1_555
C1 N1 1_555 1_555
H1 C1 1_555 1_555
C2 C1 1_555 1_555
H2 C2 1_555 1_555
C3 C2 1_555 1_555
H3 C3 1_555 1_555
C4 C3 1_555 1_555
H4 C4 1_555 1_555
C5 N1 1_555 1_555
C6 C5 1_555 1_555
H5 C6 1_555 1_555
H6 C6 1_555 1_555
C7 C6 1_555 1_555
H7 C7 1_555 1_555
H8 C7 1_555 1_555
C8 O1 1_555 1_555
H9 C8 1_555 1_555
H10 C8 1_555 1_555
H11 O1 1_555 1_555
Cd1B Cl2 1_555 1_555
Cd1B_2 Cl1B 1_555 1_555
Cl1B Cd1 1_555 1_555
Cl2B Cd1 1_555 1_555
C4 C5 1_555 1_555
C7 C8 1_555 1_555
Cd1B Cl2B 1_555 1_555

#END
