
#######################################################################
#
#                 Cambridge Crystallographic Data Centre
#                                CCDC 
#
#######################################################################
#
# If this CIF has been generated from an entry in the Cambridge 
# Structural Database, then it will include bibliographic, chemical, 
# crystal, experimental, refinement or atomic coordinate data resulting 
# from the CCDC's data processing and validation procedures.
#
#######################################################################

data_RORFOV
_symmetry_cell_setting           monoclinic
_symmetry_space_group_name_H-M   'C 2/c'
_symmetry_Int_Tables_number      15
_space_group_name_Hall           '-C 2yn'
loop_
_symmetry_equiv_pos_site_id
_symmetry_equiv_pos_as_xyz
1 x,y,z
2 -x,y,1/2-z
3 1/2+x,1/2+y,z
4 1/2-x,1/2+y,1/2-z
5 -x,-y,-z
6 x,-y,1/2+z
7 1/2-x,1/2-y,-z
8 1/2+x,1/2-y,1/2+z
_cell_length_a                   32.042(6)
_cell_length_b                   13.981(3)
_cell_length_c                   8.5282(17)
_cell_angle_alpha                90
_cell_angle_beta                 100.45(3)
_cell_angle_gamma                90
_cell_volume                     3757.09
loop_
_atom_site_label
_atom_site_type_symbol
_atom_site_fract_x
_atom_site_fract_y
_atom_site_fract_z
Ho1 Ho 0.277466(5) 0.627658(11) -0.012757(18)
O1 O 0.31256(9) 0.5648(2) 0.2139(3)
O2 O 0.33140(8) 0.4511(2) 0.3927(4)
O3 O 0.21881(10) 0.61434(19) 0.1248(4)
O4 O 0.18310(9) 0.75337(19) 0.0990(4)
O5 O 0.24532(11) 0.62691(18) -0.2980(4)
O6 O 0.22204(8) 0.73605(19) -0.1550(3)
O7 O 0.24874(10) 0.4749(2) -0.0645(3)
H1 H 0.2433(19) 0.448(4) -0.155(3)
H2 H 0.2469(17) 0.438(3) 0.013(4)
C1 C 0.38254(13) 0.5685(3) 0.3639(5)
C2 C 0.39294(17) 0.6513(4) 0.2908(6)
H3 H 0.3751(15) 0.678(4) 0.217(6)
C3 C 0.43301(18) 0.6923(4) 0.3391(8)
H4 H 0.4399 0.7476 0.2888
C4 C 0.46272(18) 0.6529(5) 0.4594(8)
C5 C 0.45198(19) 0.5705(6) 0.5298(9)
H5 H 0.4709(19) 0.540(4) 0.592(8)
C6 C 0.41221(15) 0.5268(4) 0.4834(7)
H6 H 0.4039(16) 0.475(4) 0.529(6)
C7 C 0.33943(12) 0.5242(3) 0.3191(5)
C8 C 0.5057(2) 0.6997(6) 0.5083(10)
H7 H 0.5224 0.6633 0.5923
H8 H 0.5021 0.7635 0.5451
H9 H 0.5199 0.7020 0.4183
C9 C 0.15069(14) 0.6195(3) 0.1960(5)
C10 C 0.15026(15) 0.5223(4) 0.2235(6)
H10 H 0.1715(17) 0.491(4) 0.202(6)
C11 C 0.11836(17) 0.4812(5) 0.2903(7)
H11 H 0.1184(18) 0.413(5) 0.311(7)
C12 C 0.08599(16) 0.5349(5) 0.3294(6)
C13 C 0.08570(18) 0.6315(5) 0.3006(7)
H12 H 0.0668(16) 0.676(4) 0.334(6)
C14 C 0.11794(14) 0.6755(4) 0.2332(6)
H13 H 0.1200(16) 0.745(4) 0.210(6)
C15 C 0.18620(12) 0.6653(3) 0.1324(5)
C16 C 0.0508(2) 0.4895(6) 0.4019(8)
H14 H 0.0312 0.5380 0.4217
H15 H 0.0629 0.4588 0.5005
H16 H 0.0362 0.4429 0.3294
C17 C 0.22205(12) 0.6986(3) -0.2886(4)
C18 C 0.1942(2) 0.7367(4) -0.4351(6)
H17 H 0.203(2) 0.722(5) -0.530(8)
H18 H 0.176(3) 0.677(8) -0.477(11)
H19 H 0.181(2) 0.775(5) -0.421(8)
Ho1E Ho 0.277466(5) 0.372342(11) 0.487243(18)
Ho1F Ho 0.222534(5) 0.872342(11) 0.012757(18)
O2E O 0.33140(8) 0.5489(2) -0.1073(4)
O4F O 0.31690(9) 0.74663(19) -0.0990(4)
O6F O 0.27796(8) 0.76395(19) 0.1550(3)
loop_
_geom_bond_atom_site_label_1
_geom_bond_atom_site_label_2
_geom_bond_site_symmetry_1
_geom_bond_site_symmetry_2
Ho1 O1 1_555 1_555
O1 C7 1_555 1_555
O2 C7 1_555 1_555
O3 Ho1 1_555 1_555
O4 C15 1_555 1_555
O5 Ho1 1_555 1_555
O6 Ho1 1_555 1_555
O7 Ho1 1_555 1_555
H1 O7 1_555 1_555
H2 O7 1_555 1_555
C1 C2 1_555 1_555
C2 H3 1_555 1_555
C3 C2 1_555 1_555
H4 C3 1_555 1_555
C4 C3 1_555 1_555
C5 C4 1_555 1_555
H5 C5 1_555 1_555
C6 C1 1_555 1_555
H6 C6 1_555 1_555
C7 C1 1_555 1_555
C8 C4 1_555 1_555
H7 C8 1_555 1_555
H8 C8 1_555 1_555
H9 C8 1_555 1_555
C9 C10 1_555 1_555
C10 H10 1_555 1_555
C11 C10 1_555 1_555
H11 C11 1_555 1_555
C12 C11 1_555 1_555
C13 C12 1_555 1_555
H12 C13 1_555 1_555
C14 C9 1_555 1_555
H13 C14 1_555 1_555
C15 O3 1_555 1_555
C16 C12 1_555 1_555
H14 C16 1_555 1_555
H15 C16 1_555 1_555
H16 C16 1_555 1_555
C17 O5 1_555 1_555
C18 C17 1_555 1_555
H17 C18 1_555 1_555
H18 C18 1_555 1_555
H19 C18 1_555 1_555
Ho1E O2 1_555 1_555
Ho1F O4 1_555 1_555
O2E Ho1 1_555 1_555
O4F Ho1 1_555 1_555
O6F Ho1 1_555 1_555
O6 C17 1_555 1_555
O6 Ho1F 1_555 1_555
C5 C6 1_555 1_555
C9 C15 1_555 1_555
C13 C14 1_555 1_555
Ho1F O6F 1_555 1_555

#END
