
#######################################################################
#
#                 Cambridge Crystallographic Data Centre
#                                CCDC 
#
#######################################################################
#
# If this CIF has been generated from an entry in the Cambridge 
# Structural Database, then it will include bibliographic, chemical, 
# crystal, experimental, refinement or atomic coordinate data resulting 
# from the CCDC's data processing and validation procedures.
#
#######################################################################

data_RORFUB
_symmetry_cell_setting           monoclinic
_symmetry_space_group_name_H-M   'C 2/c'
_symmetry_Int_Tables_number      15
_space_group_name_Hall           '-C 2yn'
loop_
_symmetry_equiv_pos_site_id
_symmetry_equiv_pos_as_xyz
1 x,y,z
2 -x,y,1/2-z
3 1/2+x,1/2+y,z
4 1/2-x,1/2+y,1/2-z
5 -x,-y,-z
6 x,-y,1/2+z
7 1/2-x,1/2-y,-z
8 1/2+x,1/2-y,1/2+z
_cell_length_a                   33.362(5)
_cell_length_b                   13.977(2)
_cell_length_c                   8.3265(13)
_cell_angle_alpha                90
_cell_angle_beta                 101.828(2)
_cell_angle_gamma                90
_cell_volume                     3800.21
loop_
_atom_site_label
_atom_site_type_symbol
_atom_site_fract_x
_atom_site_fract_y
_atom_site_fract_z
Yb1 Yb 0.224884(4) 0.628221(9) -0.060661(15)
O1 O 0.17197(7) 0.55016(16) -0.2322(3)
O2 O 0.18621(7) 0.74485(15) -0.2029(3)
O3 O 0.22281(7) 0.76025(15) 0.1146(2)
O4 O 0.25247(8) 0.47859(15) -0.0717(3)
O5 O 0.19406(8) 0.56206(16) 0.1203(3)
O6 O 0.28060(8) 0.61540(15) 0.1571(3)
O7 O 0.25592(8) 0.63105(14) -0.2985(3)
C1 C 0.16608(11) 0.4795(2) -0.3255(4)
C2 C 0.18835(11) 0.8349(2) -0.2173(4)
H1 H 0.2678 0.4534 0.0117
H2 H 0.2467 0.4479 -0.1616
C3 C 0.27809(10) 0.7021(2) -0.2518(4)
C4 C 0.12382(12) 0.4388(3) -0.3716(4)
C5 C 0.15223(11) 0.8842(2) -0.3159(4)
C6 C 0.30617(13) 0.7408(3) -0.3558(4)
C7 C 0.09154(15) 0.4819(4) -0.3211(7)
C8 C 0.11563(15) 0.3569(3) -0.4661(5)
C9 C 0.11939(14) 0.8334(4) -0.4032(6)
C10 C 0.15083(13) 0.9838(3) -0.3262(5)
H3 H 0.3340 0.7364 -0.2964
H4 H 0.3030 0.7039 -0.4549
H5 H 0.2995 0.8064 -0.3826
H6 H 0.0972(12) 0.539(3) -0.265(5)
C11 C 0.05246(16) 0.4437(5) -0.3619(8)
C12 C 0.07658(16) 0.3190(4) -0.5068(6)
H7 H 0.1345(14) 0.328(3) -0.500(5)
H8 H 0.1211(13) 0.779(3) -0.395(5)
C13 C 0.08618(15) 0.8808(4) -0.4987(7)
C14 C 0.11792(14) 1.0297(3) -0.4191(6)
H9 H 0.1735 1.0204 -0.2674
H10 H 0.0308 0.4727 -0.3189
C15 C 0.04443(16) 0.3599(4) -0.4543(8)
H11 H 0.0729(15) 0.272(3) -0.587(6)
H12 H 0.0627(14) 0.844(3) -0.551(5)
C16 C 0.08547(14) 0.9791(4) -0.5071(6)
H13 H 0.1170 1.0983 -0.4203
C17 C 0.00202(18) 0.3162(5) -0.4964(10)
C18 C 0.04848(16) 1.0289(4) -0.6123(8)
H14 H 0.0029 0.2609 -0.5641
H15 H -0.0062 0.2973 -0.3971
H16 H -0.0173 0.3616 -0.5543
H17 H 0.0523 1.0969 -0.6065
H18 H 0.0457 1.0081 -0.7240
H19 H 0.0242 1.0125 -0.5736
O3F O 0.27719(7) 0.73975(15) -0.1146(2)
Yb1F Yb 0.275116(4) 0.871779(9) 0.060661(15)
O5E O 0.19406(8) 0.43794(16) -0.3797(3)
O6F O 0.21940(8) 0.88460(15) -0.1571(3)
Yb1E Yb 0.224884(4) 0.371779(9) -0.560661(15)
loop_
_geom_bond_atom_site_label_1
_geom_bond_atom_site_label_2
_geom_bond_site_symmetry_1
_geom_bond_site_symmetry_2
Yb1 O1 1_555 1_555
O1 C1 1_555 1_555
O2 Yb1 1_555 1_555
O3 Yb1 1_555 1_555
O4 Yb1 1_555 1_555
O5 Yb1 1_555 1_555
O6 Yb1 1_555 1_555
O7 Yb1 1_555 1_555
C1 C4 1_555 1_555
C2 O2 1_555 1_555
H1 O4 1_555 1_555
H2 O4 1_555 1_555
C3 O7 1_555 1_555
C4 C7 1_555 1_555
C5 C2 1_555 1_555
C6 C3 1_555 1_555
C7 H6 1_555 1_555
C8 C4 1_555 1_555
C9 C5 1_555 1_555
C10 C5 1_555 1_555
H3 C6 1_555 1_555
H4 C6 1_555 1_555
H5 C6 1_555 1_555
C11 C7 1_555 1_555
C12 C8 1_555 1_555
H7 C8 1_555 1_555
H8 C9 1_555 1_555
C13 C9 1_555 1_555
C14 C10 1_555 1_555
H9 C10 1_555 1_555
H10 C11 1_555 1_555
C15 C11 1_555 1_555
H11 C12 1_555 1_555
H12 C13 1_555 1_555
C16 C13 1_555 1_555
H13 C14 1_555 1_555
C17 C15 1_555 1_555
C18 C16 1_555 1_555
H14 C17 1_555 1_555
H15 C17 1_555 1_555
H16 C17 1_555 1_555
H17 C18 1_555 1_555
H18 C18 1_555 1_555
H19 C18 1_555 1_555
O3F Yb1 1_555 1_555
Yb1F O3 1_555 1_555
O5E C1 1_555 1_555
O6F C2 1_555 1_555
Yb1E O5E 1_555 1_555
C3 O3F 1_555 1_555
C12 C15 1_555 1_555
C14 C16 1_555 1_555
O3F Yb1F 1_555 1_555
Yb1F O6F 1_555 1_555

#END
