
#######################################################################
#
#                 Cambridge Crystallographic Data Centre
#                                CCDC 
#
#######################################################################
#
# If this CIF has been generated from an entry in the Cambridge 
# Structural Database, then it will include bibliographic, chemical, 
# crystal, experimental, refinement or atomic coordinate data resulting 
# from the CCDC's data processing and validation procedures.
#
#######################################################################

data_RORJAJ
_symmetry_cell_setting           monoclinic
_symmetry_space_group_name_H-M   'P 21/n'
_symmetry_Int_Tables_number      14
_space_group_name_Hall           '-P 2yn'
loop_
_symmetry_equiv_pos_site_id
_symmetry_equiv_pos_as_xyz
1 x,y,z
2 1/2+x,1/2-y,1/2+z
3 -x,-y,-z
4 1/2-x,1/2+y,1/2-z
_cell_length_a                   10.263(3)
_cell_length_b                   9.303(2)
_cell_length_c                   21.346(4)
_cell_angle_alpha                90
_cell_angle_beta                 95.81(2)
_cell_angle_gamma                90
_cell_volume                     2027.58
loop_
_atom_site_label
_atom_site_type_symbol
_atom_site_fract_x
_atom_site_fract_y
_atom_site_fract_z
N1 N 0.5549(6) 0.4081(5) 0.4370(2)
C1 C 0.6792(7) 0.4547(7) 0.4425(3)
H1 H 0.7364(7) 0.4201(7) 0.4756(3)
C2 C 0.7257(6) 0.5503(7) 0.4019(3)
H2 H 0.8126(6) 0.5799(7) 0.4083(3)
C3 C 0.6467(6) 0.6037(6) 0.3518(3)
C4 C 0.5194(6) 0.5583(8) 0.3472(3)
H3 H 0.4598(6) 0.5934(8) 0.3151(3)
C5 C 0.4793(7) 0.4612(8) 0.3896(4)
H4 H 0.3925(7) 0.4310(8) 0.3842(4)
C6 C 0.6988(6) 0.6984(6) 0.3032(3)
H5 H 0.7721(6) 0.7539(6) 0.3226(3)
H6 H 0.6311(6) 0.7652(6) 0.2868(3)
C7 C 0.7430(5) 0.6102(6) 0.2494(2)
H7 H 0.6719(5) 0.5472(6) 0.2336(2)
H8 H 0.8158(5) 0.5500(6) 0.2658(2)
C8 C 0.7853(6) 0.6978(6) 0.1943(3)
H9 H 0.7121(6) 0.7549(6) 0.1760(3)
H10 H 0.8553(6) 0.7629(6) 0.2095(3)
C9 C 0.8317(6) 0.6007(6) 0.1451(3)
C10 C 0.9602(6) 0.5674(7) 0.1435(3)
H11 H 1.0230(6) 0.6097(7) 0.1721(3)
C11 C 0.9980(6) 0.4707(8) 0.0995(4)
H12 H 1.0866(6) 0.4495(8) 0.0997(4)
N2 N 0.9141(6) 0.4069(5) 0.0572(2)
C12 C 0.7878(7) 0.4434(7) 0.0587(3)
H13 H 0.7260(7) 0.4013(7) 0.0294(3)
C13 C 0.7450(6) 0.5383(7) 0.1006(3)
H14 H 0.6564(6) 0.5607(7) 0.0988(3)
Ag1 Ag 0.48289(5) 0.24986(5) 0.49622(2)
Ag1A Ag 0.98289(5) 0.25014(5) -0.00378(2)
N2A N 0.4141(6) 0.0931(5) 0.5572(2)
C14 C 0.0889(11) 0.3190(14) 0.3478(6)
H15 H 0.1131(11) 0.4082(14) 0.3295(6)
H16 H -0.0023(11) 0.3006(14) 0.3360(6)
H17 H 0.1402(11) 0.2424(14) 0.3329(6)
C15 C 0.1127(10) 0.3282(13) 0.4162(5)
H18 H 0.0434(10) 0.2855(13) 0.4377(5)
H19 H 0.1309(10) 0.4252(13) 0.4312(5)
O1 O 0.2346(6) 0.2346(6) 0.4181(3)
H20 H 0.2452(6) 0.2080(6) 0.3824(3)
C16 C 0.8515(12) 0.2043(13) 0.6805(6)
F1 F 0.8480(11) 0.3361(9) 0.6991(4)
F2 F 0.7506(8) 0.1346(9) 0.6958(3)
F3 F 0.9548(8) 0.1477(9) 0.7120(3)
S1 S 0.8683(2) 0.1921(3) 0.59786(12)
O2 O 0.8735(7) 0.0426(7) 0.5894(3)
O3 O 0.7487(5) 0.2549(6) 0.5715(3)
O4 O 0.9821(6) 0.2703(7) 0.5901(4)
loop_
_geom_bond_atom_site_label_1
_geom_bond_atom_site_label_2
_geom_bond_site_symmetry_1
_geom_bond_site_symmetry_2
N1 C1 1_555 1_555
C1 H1 1_555 1_555
C2 C1 1_555 1_555
H2 C2 1_555 1_555
C3 C2 1_555 1_555
C4 C3 1_555 1_555
H3 C4 1_555 1_555
C5 N1 1_555 1_555
H4 C5 1_555 1_555
C6 C3 1_555 1_555
H5 C6 1_555 1_555
H6 C6 1_555 1_555
C7 C6 1_555 1_555
H7 C7 1_555 1_555
H8 C7 1_555 1_555
C8 C7 1_555 1_555
H9 C8 1_555 1_555
H10 C8 1_555 1_555
C9 C8 1_555 1_555
C10 C9 1_555 1_555
H11 C10 1_555 1_555
C11 C10 1_555 1_555
H12 C11 1_555 1_555
N2 C11 1_555 1_555
C12 N2 1_555 1_555
H13 C12 1_555 1_555
C13 C9 1_555 1_555
H14 C13 1_555 1_555
C14 H15 1_555 1_555
H16 C14 1_555 1_555
H17 C14 1_555 1_555
C15 C14 1_555 1_555
H18 C15 1_555 1_555
H19 C15 1_555 1_555
O1 C15 1_555 1_555
H20 O1 1_555 1_555
Ag1 N1 1_555 1_555
C16 F1 1_555 1_555
F2 C16 1_555 1_555
F3 C16 1_555 1_555
S1 C16 1_555 1_555
O2 S1 1_555 1_555
O3 S1 1_555 1_555
O4 S1 1_555 1_555
Ag1A N2 1_555 1_555
N2A Ag1 1_555 1_555
C4 C5 1_555 1_555
C12 C13 1_555 1_555

#END
