
#######################################################################
#
#                 Cambridge Crystallographic Data Centre
#                                CCDC 
#
#######################################################################
#
# If this CIF has been generated from an entry in the Cambridge 
# Structural Database, then it will include bibliographic, chemical, 
# crystal, experimental, refinement or atomic coordinate data resulting 
# from the CCDC's data processing and validation procedures.
#
#######################################################################

data_RORJEN
_symmetry_cell_setting           orthorhombic
_symmetry_space_group_name_H-M   'P b n a'
_symmetry_Int_Tables_number      60
_space_group_name_Hall           '-P 2ac 2b'
loop_
_symmetry_equiv_pos_site_id
_symmetry_equiv_pos_as_xyz
1 x,y,z
2 1/2+x,y,1/2-z
3 -x,1/2+y,z
4 1/2+x,1/2-y,1/2+z
5 -x,-y,-z
6 1/2-x,-y,1/2+z
7 x,1/2-y,-z
8 1/2-x,1/2+y,1/2-z
_cell_length_a                   10.573(2)
_cell_length_b                   13.533(2)
_cell_length_c                   23.196(6)
_cell_angle_alpha                90
_cell_angle_beta                 90
_cell_angle_gamma                90
_cell_volume                     3318.99
loop_
_atom_site_label
_atom_site_type_symbol
_atom_site_fract_x
_atom_site_fract_y
_atom_site_fract_z
N1 N -0.1508(6) 0.1508(5) -0.0533(3)
C1 C -0.1408(7) 0.1740(6) -0.1086(4)
H1 H -0.0611(7) 0.1885(6) -0.1233(4)
C2 C -0.2435(7) 0.1777(6) -0.1457(3)
H2 H -0.2311(7) 0.1936(6) -0.1843(3)
C3 C -0.3634(7) 0.1582(5) -0.1259(3)
C4 C -0.3709(7) 0.1331(6) -0.0689(3)
H3 H -0.4492(7) 0.1174(6) -0.0530(3)
C5 C -0.2644(8) 0.1307(6) -0.0342(3)
H4 H -0.2741(8) 0.1141(6) 0.0044(3)
C6 C -0.4780(8) 0.1584(6) -0.1647(4)
H5 H -0.4757(65) 0.0992(54) -0.1883(32)
H6 H -0.5530(65) 0.1546(53) -0.1407(29)
C7 C -0.4904(7) 0.2464(7) -0.2038(3)
H7 H -0.5644(61) 0.2372(54) -0.2280(29)
H8 H -0.4171(61) 0.2485(55) -0.2290(28)
C8 C -0.5019(8) 0.3460(7) -0.1732(4)
H9 H -0.4247(69) 0.3579(54) -0.1516(31)
H10 H -0.5091(69) 0.3975(55) -0.2020(33)
C9 C -0.6124(6) 0.3540(5) -0.1326(3)
C10 C -0.5998(8) 0.3527(6) -0.0740(4)
H11 H -0.5196(8) 0.3484(6) -0.0577(4)
C11 C -0.7039(8) 0.3576(6) -0.0387(3)
H12 H -0.6908(8) 0.3559(6) 0.0009(3)
N2 N -0.8221(6) 0.3648(4) -0.0576(3)
C12 C -0.8343(7) 0.3694(6) -0.1146(4)
H13 H -0.9151(7) 0.3776(6) -0.1296(4)
C13 C -0.7351(7) 0.3628(6) -0.1526(3)
H14 H -0.7506(7) 0.3642(6) -0.1920(3)
Ag1 Ag 0.01520(5) 0.13591(4) 0.00134(3)
S1 S -0.1958(2) -0.0247(2) 0.10774(9)
O1 O -0.3212(5) 0.0043(4) 0.0960(2)
O2 O -0.1814(7) -0.1325(5) 0.1029(3)
O3 O -0.0963(6) 0.0246(5) 0.0812(3)
C14 C -0.1736(11) -0.0121(8) 0.1843(4)
F1 F -0.2549(7) -0.0497(6) 0.2162(3)
F2 F -0.0587(6) -0.0339(5) 0.2008(2)
F3 F -0.1784(8) 0.0867(6) 0.1955(3)
N2F N 0.1779(6) 0.1352(4) 0.0576(3)
N2_2 N 0.1779(6) 0.3648(4) -0.0576(3)
Ag1F Ag 0.01520(5) 0.36409(4) -0.00134(3)
N1F N -0.1508(6) 0.3492(5) 0.0533(3)
C1F C -0.1408(7) 0.3260(6) 0.1086(4)
H1F H -0.0611(7) 0.3115(6) 0.1233(4)
C2F C -0.2435(7) 0.3223(6) 0.1457(3)
H2F H -0.2311(7) 0.3064(6) 0.1843(3)
C3F C -0.3634(7) 0.3418(5) 0.1259(3)
C4F C -0.3709(7) 0.3669(6) 0.0689(3)
H3F H -0.4492(7) 0.3826(6) 0.0530(3)
C5F C -0.2644(8) 0.3693(6) 0.0342(3)
H4F H -0.2741(8) 0.3859(6) -0.0044(3)
C6F C -0.4780(8) 0.3416(6) 0.1647(4)
H5F H -0.4757(65) 0.4008(54) 0.1883(32)
H6F H -0.5530(65) 0.3454(53) 0.1407(29)
C7F C -0.4904(7) 0.2536(7) 0.2038(3)
H7F H -0.5644(61) 0.2628(54) 0.2280(29)
H8F H -0.4171(61) 0.2515(55) 0.2290(28)
C8F C -0.5019(8) 0.1540(7) 0.1732(4)
H9F H -0.4247(69) 0.1421(54) 0.1516(31)
H10F H -0.5091(69) 0.1025(55) 0.2020(33)
C9F C -0.6124(6) 0.1460(5) 0.1326(3)
C10F C -0.5998(8) 0.1473(6) 0.0740(4)
H11F H -0.5196(8) 0.1516(6) 0.0577(4)
C11F C -0.7039(8) 0.1424(6) 0.0387(3)
H12F H -0.6908(8) 0.1441(6) -0.0009(3)
N2F_2 N -0.8221(6) 0.1352(4) 0.0576(3)
C13F C -0.7351(7) 0.1372(6) 0.1526(3)
C12F C -0.8343(7) 0.1306(6) 0.1146(4)
H13F H -0.9151(7) 0.1224(6) 0.1296(4)
H14F H -0.7506(7) 0.1358(6) 0.1920(3)
O3F O -0.0963(6) 0.4754(5) -0.0812(3)
S1F S -0.1958(2) 0.5247(2) -0.10774(9)
O1F O -0.3212(5) 0.4957(4) -0.0960(2)
O2F O -0.1814(7) 0.6325(5) -0.1029(3)
C14F C -0.1736(11) 0.5121(8) -0.1843(4)
F1F F -0.2549(7) 0.5497(6) -0.2162(3)
F2F F -0.0587(6) 0.5339(5) -0.2008(2)
F3F F -0.1784(8) 0.4133(6) -0.1955(3)
Ag1F_2 Ag -0.98480(5) 0.36409(4) -0.00134(3)
Ag1_2 Ag -0.98480(5) 0.13591(4) 0.00134(3)
loop_
_geom_bond_atom_site_label_1
_geom_bond_atom_site_label_2
_geom_bond_site_symmetry_1
_geom_bond_site_symmetry_2
N1 C1 1_555 1_555
C1 H1 1_555 1_555
C2 C1 1_555 1_555
H2 C2 1_555 1_555
C3 C2 1_555 1_555
C4 C3 1_555 1_555
H3 C4 1_555 1_555
C5 N1 1_555 1_555
H4 C5 1_555 1_555
C6 C3 1_555 1_555
H5 C6 1_555 1_555
H6 C6 1_555 1_555
C7 C6 1_555 1_555
H7 C7 1_555 1_555
H8 C7 1_555 1_555
C8 C7 1_555 1_555
H9 C8 1_555 1_555
H10 C8 1_555 1_555
C9 C8 1_555 1_555
C10 C9 1_555 1_555
H11 C10 1_555 1_555
C11 C10 1_555 1_555
H12 C11 1_555 1_555
N2 C11 1_555 1_555
C12 N2 1_555 1_555
H13 C12 1_555 1_555
C13 C9 1_555 1_555
H14 C13 1_555 1_555
Ag1 N1 1_555 1_555
S1 O1 1_555 1_555
O2 S1 1_555 1_555
O3 Ag1 1_555 1_555
C14 S1 1_555 1_555
F1 C14 1_555 1_555
F2 C14 1_555 1_555
F3 C14 1_555 1_555
N2F Ag1 1_555 1_555
N2_2 Ag1F 1_555 1_555
Ag1F Ag1 1_555 1_555
N1F Ag1F 1_555 1_555
C1F N1F 1_555 1_555
H1F C1F 1_555 1_555
C2F C1F 1_555 1_555
H2F C2F 1_555 1_555
C3F C2F 1_555 1_555
C4F C3F 1_555 1_555
H3F C4F 1_555 1_555
C5F N1F 1_555 1_555
H4F C5F 1_555 1_555
C6F C3F 1_555 1_555
H5F C6F 1_555 1_555
H6F C6F 1_555 1_555
C7F C6F 1_555 1_555
H7F C7F 1_555 1_555
H8F C7F 1_555 1_555
C8F C7F 1_555 1_555
H9F C8F 1_555 1_555
H10F C8F 1_555 1_555
C9F C8F 1_555 1_555
C10F C9F 1_555 1_555
H11F C10F 1_555 1_555
C11F C10F 1_555 1_555
H12F C11F 1_555 1_555
N2F_2 C11F 1_555 1_555
C13F C9F 1_555 1_555
C12F N2F_2 1_555 1_555
H13F C12F 1_555 1_555
H14F C13F 1_555 1_555
O3F Ag1F 1_555 1_555
S1F O3F 1_555 1_555
O1F S1F 1_555 1_555
O2F S1F 1_555 1_555
C14F S1F 1_555 1_555
F1F C14F 1_555 1_555
F2F C14F 1_555 1_555
F3F C14F 1_555 1_555
Ag1F_2 N2 1_555 1_555
Ag1_2 N2F_2 1_555 1_555
C4 C5 1_555 1_555
C12 C13 1_555 1_555
S1 O3 1_555 1_555
C4F C5F 1_555 1_555
C13F C12F 1_555 1_555
Ag1F_2 Ag1_2 1_555 1_555

#END
