
#######################################################################
#
#                 Cambridge Crystallographic Data Centre
#                                CCDC 
#
#######################################################################
#
# If this CIF has been generated from an entry in the Cambridge 
# Structural Database, then it will include bibliographic, chemical, 
# crystal, experimental, refinement or atomic coordinate data resulting 
# from the CCDC's data processing and validation procedures.
#
#######################################################################

data_RORQEW
_symmetry_cell_setting           orthorhombic
_symmetry_space_group_name_H-M   'P b c n'
_symmetry_Int_Tables_number      60
_space_group_name_Hall           '-P 2n 2ab'
loop_
_symmetry_equiv_pos_site_id
_symmetry_equiv_pos_as_xyz
1 x,y,z
2 1/2-x,1/2-y,1/2+z
3 -x,y,1/2-z
4 1/2+x,1/2-y,-z
5 -x,-y,-z
6 1/2+x,1/2+y,1/2-z
7 x,-y,1/2+z
8 1/2-x,1/2+y,z
_cell_length_a                   14.1670(5)
_cell_length_b                   18.6643(7)
_cell_length_c                   16.8236(3)
_cell_angle_alpha                90
_cell_angle_beta                 90
_cell_angle_gamma                90
_cell_volume                     4448.45
loop_
_atom_site_label
_atom_site_type_symbol
_atom_site_fract_x
_atom_site_fract_y
_atom_site_fract_z
U1 U 0.286221(10) 0.382754(7) 0.095854(8)
O1 O 0.39159(19) 0.33895(15) 0.06617(16)
O2 O 0.1812(2) 0.42692(16) 0.12541(16)
O3 O 0.28897(19) 0.31688(15) 0.22443(15)
O4 O 0.3675(2) 0.41715(14) 0.21722(15)
O5 O 0.3608(2) 0.49601(14) 0.58952(14)
O6 O 0.3019(2) 0.53865(15) 0.47896(15)
O7 O 0.29331(19) 0.16959(15) 0.47683(15)
O8 O 0.3007(2) 0.22949(16) 0.58848(15)
C1 C 0.3763(3) 0.3556(2) 0.3421(2)
H1 H 0.4467 0.3518 0.3416
C2 C 0.3486(3) 0.4249(2) 0.3854(2)
H2 H 0.3798 0.4662 0.3595
H3 H 0.2795 0.4319 0.3814
C3 C 0.3771(3) 0.4223(2) 0.4729(2)
H4 H 0.4474 0.4192 0.4763
C4 C 0.3346(3) 0.3570(2) 0.5141(2)
H5 H 0.3570 0.3550 0.5698
H6 H 0.2649 0.3614 0.5149
C5 C 0.3623(3) 0.28807(19) 0.4714(2)
H7 H 0.4323 0.2825 0.4755
C6 C 0.3363(3) 0.2893(2) 0.3834(2)
H8 H 0.2667 0.2890 0.3779
H9 H 0.3612 0.2457 0.3573
C7 C 0.3424(3) 0.36206(19) 0.2582(2)
C8 C 0.3450(3) 0.48929(19) 0.5163(2)
C9 C 0.3165(3) 0.2254(2) 0.5145(2)
U1A U 0.213779(10) 0.117246(7) 0.595854(8)
U1F U 0.286221(10) 0.617246(7) 0.595854(8)
O5F O 0.3608(2) 0.50399(14) 0.08952(14)
O6F O 0.3019(2) 0.46135(15) -0.02104(15)
O7A O 0.20669(19) 0.33041(15) -0.02317(15)
O8A O 0.1993(2) 0.27051(16) 0.08848(15)
U2 U 0.5000 0.357711(10) 0.7500
O9 O 0.5279(2) 0.35692(14) 0.64775(16)
O10 O 0.5000 0.48696(19) 0.7500
H10 H 0.4970 0.5146 0.7864
O11 O 0.34678(19) 0.40135(13) 0.71566(15)
H11 H 0.3439 0.4194 0.6724
H12 H 0.2925 0.3958 0.7327
O12 O 0.4016(2) 0.25266(14) 0.73275(17)
H13 H 0.3541 0.2422 0.6958
H14 H 0.4036 0.2346 0.7781
H10B H 0.5030 0.5146 0.7136
O9B O 0.4721(2) 0.35692(14) 0.85225(16)
O11B O 0.65322(19) 0.40135(13) 0.78434(15)
H11B H 0.6561 0.4194 0.8276
H12B H 0.7075 0.3958 0.7673
O12B O 0.5984(2) 0.25266(14) 0.76725(17)
H13B H 0.6459 0.2422 0.8042
H14B H 0.5964 0.2346 0.7219
O13 O 0.1049(2) 0.34289(16) 0.35389(18)
C10 C 0.0687(4) 0.4136(3) 0.3424(3)
H15 H 0.0058 0.4120 0.3168
H16 H 0.1118 0.4421 0.3085
C11 C 0.0618(4) 0.4461(2) 0.4252(3)
H17 H 0.0088 0.4805 0.4286
H18 H 0.1211 0.4708 0.4399
C12 C 0.0445(4) 0.3811(3) 0.4784(3)
H19 H 0.0897 0.3804 0.5233
H20 H -0.0205 0.3817 0.5000
C13 C 0.0593(4) 0.3163(3) 0.4247(3)
H21 H 0.0995 0.2802 0.4514
H22 H -0.0020 0.2938 0.4114
O14 O 0.0000 0.7277(3) 0.2500
C14 C 0.0564(4) 0.6825(3) 0.1990(3)
H23 H 0.1236 0.6842 0.2151
H24 H 0.0513 0.6982 0.1430
C15 C 0.0183(4) 0.6086(3) 0.2085(3)
H25 H -0.0328 0.5991 0.1698
H26 H 0.0686 0.5722 0.2016
C14B C -0.0564(4) 0.6825(3) 0.3010(3)
H23B H -0.1236 0.6842 0.2849
H24B H -0.0513 0.6982 0.3570
C15B C -0.0183(4) 0.6086(3) 0.2915(3)
H25B H 0.0328 0.5991 0.3302
H26B H -0.0686 0.5722 0.2984
O15 O 0.2302(2) 0.41318(16) 0.83507(15)
H27 H 0.2635 0.4368 0.8672
H28 H 0.2045 0.3669 0.8539
loop_
_geom_bond_atom_site_label_1
_geom_bond_atom_site_label_2
_geom_bond_site_symmetry_1
_geom_bond_site_symmetry_2
U1 O1 1_555 1_555
O2 U1 1_555 1_555
O3 U1 1_555 1_555
O4 U1 1_555 1_555
O5 C8 1_555 1_555
O6 C8 1_555 1_555
O7 C9 1_555 1_555
O8 C9 1_555 1_555
C1 H1 1_555 1_555
C2 C1 1_555 1_555
H2 C2 1_555 1_555
H3 C2 1_555 1_555
C3 C2 1_555 1_555
H4 C3 1_555 1_555
C4 C3 1_555 1_555
H5 C4 1_555 1_555
H6 C4 1_555 1_555
C5 C4 1_555 1_555
H7 C5 1_555 1_555
C6 C1 1_555 1_555
H8 C6 1_555 1_555
H9 C6 1_555 1_555
C7 O3 1_555 1_555
C8 C3 1_555 1_555
C9 C5 1_555 1_555
U2 O9 1_555 1_555
O10 U2 1_555 1_555
H10 O10 1_555 1_555
O11 U2 1_555 1_555
H11 O11 1_555 1_555
H12 O11 1_555 1_555
O12 U2 1_555 1_555
H13 O12 1_555 1_555
H14 O12 1_555 1_555
O13 C10 1_555 1_555
C10 H15 1_555 1_555
H16 C10 1_555 1_555
C11 C10 1_555 1_555
H17 C11 1_555 1_555
H18 C11 1_555 1_555
C12 C11 1_555 1_555
H19 C12 1_555 1_555
H20 C12 1_555 1_555
C13 O13 1_555 1_555
H21 C13 1_555 1_555
H22 C13 1_555 1_555
O14 C14 1_555 1_555
C14 H23 1_555 1_555
H24 C14 1_555 1_555
C15 C14 1_555 1_555
H25 C15 1_555 1_555
H26 C15 1_555 1_555
O15 H27 1_555 1_555
H28 O15 1_555 1_555
U1A O7 1_555 1_555
U1F O5 1_555 1_555
O5F U1 1_555 1_555
O6F U1 1_555 1_555
O7A U1 1_555 1_555
O8A U1 1_555 1_555
H10B O10 1_555 1_555
O9B U2 1_555 1_555
O11B U2 1_555 1_555
H11B O11B 1_555 1_555
H12B O11B 1_555 1_555
O12B U2 1_555 1_555
H13B O12B 1_555 1_555
H14B O12B 1_555 1_555
C14B O14 1_555 1_555
H23B C14B 1_555 1_555
H24B C14B 1_555 1_555
C15B C15 1_555 1_555
H25B C15B 1_555 1_555
H26B C15B 1_555 1_555
O4 C7 1_555 1_555
O6 U1F 1_555 1_555
O8 U1A 1_555 1_555
C1 C7 1_555 1_555
C5 C6 1_555 1_555
C12 C13 1_555 1_555
C14B C15B 1_555 1_555

#END
