
#######################################################################
#
#                 Cambridge Crystallographic Data Centre
#                                CCDC 
#
#######################################################################
#
# If this CIF has been generated from an entry in the Cambridge 
# Structural Database, then it will include bibliographic, chemical, 
# crystal, experimental, refinement or atomic coordinate data resulting 
# from the CCDC's data processing and validation procedures.
#
#######################################################################

data_RORQOE
_symmetry_cell_setting           monoclinic
_symmetry_space_group_name_H-M   'P 21/c'
_symmetry_Int_Tables_number      14
_space_group_name_Hall           '-P 2ybc'
loop_
_symmetry_equiv_pos_site_id
_symmetry_equiv_pos_as_xyz
1 x,y,z
2 -x,1/2+y,1/2-z
3 -x,-y,-z
4 x,1/2-y,1/2+z
_cell_length_a                   5.2898(4)
_cell_length_b                   6.3365(4)
_cell_length_c                   11.4008(8)
_cell_angle_alpha                90
_cell_angle_beta                 90.90(1)
_cell_angle_gamma                90
_cell_volume                     382.094
loop_
_atom_site_label
_atom_site_type_symbol
_atom_site_fract_x
_atom_site_fract_y
_atom_site_fract_z
Cl1 Cl 0.89160(30) -0.14690(20) 0.30920(10)
O1 O 0.60020(70) -0.54210(50) 0.35060(30)
O2 O 0.68700(70) -0.66600(50) 0.01510(30)
C1 C -0.0542(10) -0.16140(70) -0.08360(40)
C2 C -0.2168(10) 0.01210(70) -0.08120(40)
C3 C 0.1612(10) -0.18520(70) -0.01210(40)
Ag1 Ag 0.60210(10) -0.39180(10) 0.15090(10)
O1A O 0.39980(70) -0.04210(50) 0.14940(30)
O2B O 0.31300(70) -0.33400(50) -0.01510(30)
Cl1C Cl -0.10840(30) -0.35310(20) -0.19080(10)
Ag1C Ag -0.39790(10) -0.10820(10) -0.34910(10)
O1B O -0.60020(70) -0.45790(50) -0.35060(30)
Ag1B Ag 0.39790(10) -0.60820(10) -0.15090(10)
O2A O -0.68700(70) -0.16600(50) -0.51510(30)
O1C O -0.39980(70) 0.04210(50) -0.14940(30)
O2C O -0.31300(70) 0.16600(50) -0.48490(30)
C2B C 0.2168(10) -0.01210(70) 0.08120(40)
C1B C 0.0542(10) 0.16140(70) 0.08360(40)
Cl1A Cl 0.10840(30) 0.35310(20) 0.19080(10)
Ag1A Ag 0.39790(10) 0.10820(10) 0.34910(10)
C3B C -0.1612(10) 0.18520(70) 0.01210(40)
Ag1B_2 Ag -0.60210(10) 0.39180(10) -0.15090(10)
O2_2 O -0.31300(70) 0.33400(50) 0.01510(30)
Ag1_2 Ag -0.39790(10) 0.60820(10) 0.15090(10)
loop_
_geom_bond_atom_site_label_1
_geom_bond_atom_site_label_2
_geom_bond_site_symmetry_1
_geom_bond_site_symmetry_2
Cl1 Ag1 1_555 1_555
O1 Ag1 1_555 1_555
O2 Ag1 1_555 1_555
C1 C2 1_555 1_555
C2 O1C 1_555 1_555
C3 C1 1_555 1_555
Ag1 O1A 1_555 1_555
O1A C2B 1_555 1_555
O2B C3 1_555 1_555
Cl1C C1 1_555 1_555
Ag1C Cl1C 1_555 1_555
O1B Ag1C 1_555 1_555
Ag1B O2 1_555 1_555
O2A Ag1C 1_555 1_555
O1C Ag1C 1_555 1_555
O2C Ag1C 1_555 1_555
C2B C3 1_555 1_555
C1B C2B 1_555 1_555
Cl1A C1B 1_555 1_555
Ag1A O1A 1_555 1_555
C3B C2 1_555 1_555
Ag1B_2 O1C 1_555 1_555
O2_2 C3B 1_555 1_555
Ag1_2 O2_2 1_555 1_555
Ag1 O2B 1_555 1_555
O2B Ag1B 1_555 1_555
C1B C3B 1_555 1_555
Cl1A Ag1A 1_555 1_555
Ag1B_2 O2_2 1_555 1_555

#END
