
#######################################################################
#
#                 Cambridge Crystallographic Data Centre
#                                CCDC 
#
#######################################################################
#
# If this CIF has been generated from an entry in the Cambridge 
# Structural Database, then it will include bibliographic, chemical, 
# crystal, experimental, refinement or atomic coordinate data resulting 
# from the CCDC's data processing and validation procedures.
#
#######################################################################

data_RORQUM
_symmetry_cell_setting           orthorhombic
_symmetry_space_group_name_H-M   'P n n m'
_symmetry_Int_Tables_number      58
_space_group_name_Hall           '-P 2 2n'
loop_
_symmetry_equiv_pos_site_id
_symmetry_equiv_pos_as_xyz
1 x,y,z
2 -x,-y,z
3 1/2-x,1/2+y,1/2-z
4 1/2+x,1/2-y,1/2-z
5 -x,-y,-z
6 x,y,-z
7 1/2+x,1/2-y,1/2+z
8 1/2-x,1/2+y,1/2+z
_cell_length_a                   10.0413(2)
_cell_length_b                   15.5554(3)
_cell_length_c                   10.0309(2)
_cell_angle_alpha                90
_cell_angle_beta                 90
_cell_angle_gamma                90
_cell_volume                     1566.79
loop_
_atom_site_label
_atom_site_type_symbol
_atom_site_fract_x
_atom_site_fract_y
_atom_site_fract_z
U1 U 0.62714(3) 0.151755(18) 0.0000
O1 O 0.7719(6) 0.2168(4) 0.0000
O2 O 0.4772(6) 0.0930(4) 0.0000
O3 O 0.6322(5) 0.1615(3) 0.2442(4)
O4 O 0.5266(4) 0.2647(3) 0.1406(4)
O5 O 0.7516(5) 0.5320(3) 0.3916(5)
C1 C 0.5818(9) 0.2292(5) 0.5000
H1 H 0.6722 0.2038 0.5000
H2 H 0.5163 0.1816 0.5000
C2 C 0.5631(6) 0.2839(3) 0.3753(6)
H3 H 0.4713 0.3087 0.3789
C3 C 0.6617(6) 0.3597(4) 0.3742(6)
H4 H 0.7541 0.3377 0.3708
H5 H 0.6463 0.3957 0.2943
C4 C 0.6419(8) 0.4135(5) 0.5000
H6 H 0.5459 0.4306 0.5000
C5 C 0.5743(6) 0.2341(4) 0.2479(6)
C6 C 0.7201(9) 0.4970(6) 0.5000
O3E O 0.6322(5) 0.1615(3) 0.7558(4)
O4E O 0.5266(4) 0.2647(3) 0.8594(4)
O5E O 0.7516(5) 0.5320(3) 0.6084(5)
C2E C 0.5631(6) 0.2839(3) 0.6247(6)
H3E H 0.4713 0.3087 0.6211
C3E C 0.6617(6) 0.3597(4) 0.6258(6)
H4E H 0.7541 0.3377 0.6292
H5E H 0.6463 0.3957 0.7057
C5E C 0.5743(6) 0.2341(4) 0.7521(6)
U1_2 U 0.62714(3) 0.151755(18) 1.0000
U1B U 0.87286(3) 0.651755(18) 0.5000
O3E_2 O 0.6322(5) 0.1615(3) -0.2442(4)
O4E_2 O 0.5266(4) 0.2647(3) -0.1406(4)
O5B O 0.7484(5) 0.0320(3) 0.1084(5)
O5G O 0.7484(5) 0.0320(3) -0.1084(5)
Ni1 Ni 0.5000 0.5000 0.0000
O6 O 0.6633(7) 0.4214(4) 0.0000
H7 H 0.6304 0.3674 0.0000
H8 H 0.7521 0.4461 0.0000
O7 O 0.5887(5) 0.5742(3) -0.1433(6)
H9 H 0.5269 0.6240 -0.1435
H10 H 0.6792 0.5751 -0.1254
O6A O 0.3367(7) 0.5786(4) 0.0000
H7A H 0.3696 0.6326 0.0000
H8A H 0.2479 0.5539 0.0000
O7A O 0.4113(5) 0.4258(3) -0.1433(6)
H9A H 0.4731 0.3760 -0.1435
H10A H 0.3208 0.4249 -0.1254
O7D O 0.4113(5) 0.4258(3) 0.1433(6)
H9D H 0.4731 0.3760 0.1435
H10D H 0.3208 0.4249 0.1254
O7E O 0.5887(5) 0.5742(3) 0.1433(6)
H9E H 0.5269 0.6240 0.1435
H10E H 0.6792 0.5751 0.1254
O8 O 0.130(3) 0.5133(17) 0.885(3)
H11? H 0.6363 0.5512 -0.2018
H12? H 0.6163 0.6182 -0.0818
O9? O 0.0000 0.5000 0.836(2)
loop_
_geom_bond_atom_site_label_1
_geom_bond_atom_site_label_2
_geom_bond_site_symmetry_1
_geom_bond_site_symmetry_2
U1 O1 1_555 1_555
O2 U1 1_555 1_555
O3 U1 1_555 1_555
O4 U1 1_555 1_555
O5 C6 1_555 1_555
C1 H1 1_555 1_555
H2 C1 1_555 1_555
C2 C1 1_555 1_555
H3 C2 1_555 1_555
C3 C2 1_555 1_555
H4 C3 1_555 1_555
H5 C3 1_555 1_555
C4 C3 1_555 1_555
H6 C4 1_555 1_555
C5 O3 1_555 1_555
C6 C4 1_555 1_555
Ni1 O6 1_555 1_555
O6 H7 1_555 1_555
H8 O6 1_555 1_555
O7 Ni1 1_555 1_555
H9 O7 1_555 1_555
H10 O7 1_555 1_555
O3E C5E 1_555 1_555
O4E C5E 1_555 1_555
O5E C6 1_555 1_555
C2E C1 1_555 1_555
H3E C2E 1_555 1_555
C3E C4 1_555 1_555
H4E C3E 1_555 1_555
H5E C3E 1_555 1_555
C5E C2E 1_555 1_555
U1_2 O3E 1_555 1_555
U1B O5 1_555 1_555
O3E_2 U1 1_555 1_555
O4E_2 U1 1_555 1_555
O5B U1 1_555 1_555
O5G U1 1_555 1_555
O6A Ni1 1_555 1_555
H7A O6A 1_555 1_555
H8A O6A 1_555 1_555
O7A Ni1 1_555 1_555
H9A O7A 1_555 1_555
H10A O7A 1_555 1_555
O7D Ni1 1_555 1_555
H9D O7D 1_555 1_555
H10D O7D 1_555 1_555
O7E Ni1 1_555 1_555
H9E O7E 1_555 1_555
H10E O7E 1_555 1_555
O4 C5 1_555 1_555
C2 C5 1_555 1_555
O4E U1_2 1_555 1_555
O5E U1B 1_555 1_555
C2E C3E 1_555 1_555

#END
