
#######################################################################
#
#                 Cambridge Crystallographic Data Centre
#                                CCDC 
#
#######################################################################
#
# If this CIF has been generated from an entry in the Cambridge 
# Structural Database, then it will include bibliographic, chemical, 
# crystal, experimental, refinement or atomic coordinate data resulting 
# from the CCDC's data processing and validation procedures.
#
#######################################################################

data_RORQOG
_symmetry_cell_setting           monoclinic
_symmetry_space_group_name_H-M   'P 2/c'
_symmetry_Int_Tables_number      13
_space_group_name_Hall           '-P 2yc'
loop_
_symmetry_equiv_pos_site_id
_symmetry_equiv_pos_as_xyz
1 x,y,z
2 -x,y,1/2-z
3 -x,-y,-z
4 x,-y,1/2+z
_cell_length_a                   15.2580(4)
_cell_length_b                   18.0513(10)
_cell_length_c                   16.9899(8)
_cell_angle_alpha                90
_cell_angle_beta                 95.344(3)
_cell_angle_gamma                90
_cell_volume                     4659.13
loop_
_atom_site_label
_atom_site_type_symbol
_atom_site_fract_x
_atom_site_fract_y
_atom_site_fract_z
U1 U 0.67578(2) 0.633244(19) 0.90294(2)
U2 U 0.84032(2) 0.142432(19) 0.911898(19)
O1 O 0.5793(5) 0.6894(4) 0.8996(5)
O2 O 0.7732(4) 0.5798(4) 0.9089(4)
O3 O 0.7375(4) 0.1046(4) 0.8772(4)
O4 O 0.9441(4) 0.1801(4) 0.9461(4)
O5 O 0.6392(5) 0.5673(4) 1.0214(4)
O6 O 0.5929(5) 0.5170(4) 0.9083(4)
O7 O 0.7643(5) 0.2657(4) 0.9111(4)
O8 O 0.7737(5) 0.2013(4) 1.0201(4)
O9 O 0.6214(5) 0.4150(4) 1.2732(4)
O10 O 0.7156(5) 0.3224(4) 1.2717(4)
O11 O 0.7631(5) 0.7472(4) 0.9115(4)
O12 O 0.7360(5) 0.6968(4) 1.0241(4)
O13 O 0.8379(5) 1.0636(4) 1.0318(4)
O14 O 0.9016(5) 1.0179(4) 0.9324(4)
O15 O 0.8916(5) 0.9145(4) 1.2919(4)
O16 O 0.8524(5) 0.7969(4) 1.2834(4)
C1 C 0.6101(6) 0.4342(5) 1.0201(5)
H1 H 0.5495 0.4132 1.0092
C2 C 0.6749(6) 0.3845(5) 0.9811(6)
H2 H 0.6555 0.3792 0.9241
H3 H 0.7339 0.4079 0.9859
C3 C 0.6809(7) 0.3093(6) 1.0189(6)
H4 H 0.6209 0.2865 1.0111
C4 C 0.7069(6) 0.3129(5) 1.1080(5)
H5 H 0.7671 0.3334 1.1181
H6 H 0.7067 0.2624 1.1308
C5 C 0.6414(6) 0.3623(5) 1.1472(5)
H7 H 0.5825 0.3378 1.1384
C6 C 0.6320(6) 0.4395(5) 1.1094(5)
H8 H 0.5848 0.4672 1.1329
H9 H 0.6877 0.4673 1.1209
C7 C 0.6123(6) 0.5104(5) 0.9817(5)
C8 C 0.7444(6) 0.2570(6) 0.9809(5)
C9 C 0.6631(6) 0.3679(4) 1.2349(4)
C10 C 0.8287(6) 0.8045(5) 1.0304(5)
H10 H 0.8911 0.7909 1.0235
C11 C 0.8150(6) 0.8813(5) 0.9966(5)
H11 H 0.7544 0.8983 1.0034
H12 H 0.8224 0.8806 0.9393
C12 C 0.8820(6) 0.9348(5) 1.0392(5)
H13 H 0.9422 0.9156 1.0318
C13 C 0.8727(6) 0.9363(5) 1.1279(5)
H14 H 0.8138 0.9556 1.1373
H15 H 0.9175 0.9699 1.1544
C14 C 0.8845(7) 0.8578(5) 1.1634(6)
H16 H 0.9457 0.8409 1.1568
C15 C 0.8203(6) 0.8034(5) 1.1202(5)
H17 H 0.7594 0.8166 1.1302
H18 H 0.8325 0.7528 1.1409
C16 C 0.7720(6) 0.7462(5) 0.9867(5)
C17 C 0.8737(6) 1.0100(5) 1.0013(6)
C18 C 0.8719(7) 0.8570(5) 1.2509(5)
U1C U 0.67578(2) 0.366756(19) 1.40294(2)
U2_2 U 0.84032(2) 1.142432(19) 0.911898(19)
U2C U 0.84032(2) 0.857568(19) 1.411898(19)
O9C O 0.6214(5) 0.5850(4) 0.7732(4)
O10C O 0.7156(5) 0.6776(4) 0.7717(4)
O13_2 O 0.8379(5) 0.0636(4) 1.0318(4)
O14_2 O 0.9016(5) 0.0179(4) 0.9324(4)
O15C O 0.8916(5) 0.0855(4) 0.7919(4)
O16C O 0.8524(5) 0.2031(4) 0.7834(4)
Ni1 Ni 0.5000 0.92537(11) 0.2500
N1 N 0.5336(6) 0.9216(5) 0.3734(6)
N2 N 0.4242(7) 0.8344(6) 0.2858(6)
N3 N 0.4159(6) 1.0136(5) 0.2608(5)
C19 C 0.5851(8) 0.9697(8) 0.4198(7)
H19 H 0.6064 1.0121 0.3945
C20 C 0.6091(9) 0.9622(8) 0.5011(7)
H20 H 0.6478 0.9962 0.5294
C21 C 0.5721(10) 0.9005(8) 0.5388(8)
H21 H 0.5847 0.8929 0.5940
C22 C 0.5179(9) 0.8520(7) 0.4944(8)
H22 H 0.4910 0.8118 0.5190
C23 C 0.5031(8) 0.8629(7) 0.4132(8)
C24 C 0.4509(8) 0.8098(7) 0.3635(7)
C25 C 0.4349(8) 0.7378(7) 0.3857(7)
H23 H 0.4518 0.7223 0.4383
C26 C 0.3937(8) 0.6875(7) 0.3311(8)
H24 H 0.3842 0.6373 0.3449
C27 C 0.3664(8) 0.7157(7) 0.2530(7)
H25 H 0.3368 0.6847 0.2140
C28 C 0.3836(8) 0.7864(7) 0.2368(7)
H26 H 0.3648 0.8036 0.1852
C29 C 0.4494(7) 1.0822(6) 0.2501(6)
C30 C 0.4000(8) 1.1438(7) 0.2389(7)
H27 H 0.4262 1.1904 0.2301
C31 C 0.3080(9) 1.1367(8) 0.2407(7)
H28 H 0.2708 1.1789 0.2337
C32 C 0.2729(8) 1.0676(8) 0.2528(7)
H29 H 0.2112 1.0616 0.2544
C33 C 0.3282(7) 1.0076(7) 0.2625(6)
H30 H 0.3037 0.9601 0.2707
N3A N 0.5841(6) 1.0136(5) 0.2392(5)
C29A C 0.5506(7) 1.0822(6) 0.2499(6)
C30A C 0.6000(8) 1.1438(7) 0.2611(7)
H27A H 0.5738 1.1904 0.2699
C31A C 0.6920(9) 1.1367(8) 0.2593(7)
H28A H 0.7292 1.1789 0.2663
C32A C 0.7271(8) 1.0676(8) 0.2472(7)
H29A H 0.7888 1.0616 0.2456
C33A C 0.6718(7) 1.0076(7) 0.2375(6)
H30A H 0.6963 0.9601 0.2293
N1A N 0.4664(6) 0.9216(5) 0.1266(6)
N2A N 0.5758(7) 0.8344(6) 0.2142(6)
C19A C 0.4149(8) 0.9697(8) 0.0802(7)
H19A H 0.3936 1.0121 0.1055
C20A C 0.3909(9) 0.9622(8) -0.0011(7)
H20A H 0.3522 0.9962 -0.0294
C21A C 0.4279(10) 0.9005(8) -0.0388(8)
H21A H 0.4153 0.8929 -0.0940
C22A C 0.4821(9) 0.8520(7) 0.0056(8)
H22A H 0.5090 0.8118 -0.0190
C23A C 0.4969(8) 0.8629(7) 0.0868(8)
C24A C 0.5491(8) 0.8098(7) 0.1365(7)
C25A C 0.5651(8) 0.7378(7) 0.1143(7)
H23A H 0.5482 0.7223 0.0617
C26A C 0.6063(8) 0.6875(7) 0.1689(8)
H24A H 0.6158 0.6373 0.1551
C27A C 0.6336(8) 0.7157(7) 0.2470(7)
H25A H 0.6632 0.6847 0.2860
C28A C 0.6164(8) 0.7864(7) 0.2632(7)
H26A H 0.6352 0.8036 0.3148
Ni2 Ni 0.0000 0.38354(10) 0.2500
O17 O -0.0960(4) 0.3016(4) 0.2506(4)
H31 H -0.1522 0.3139 0.2628
H32 H -0.0929 0.2668 0.2191
N4 N 0.0946(5) 0.4674(5) 0.2721(5)
N5 N 0.0115(6) 0.3876(5) 0.3731(5)
C34 C 0.1311(6) 0.5063(6) 0.2176(6)
H33 H 0.1226 0.4901 0.1642
C35 C 0.1802(7) 0.5684(6) 0.2343(7)
H34 H 0.2054 0.5950 0.1936
C36 C 0.1925(7) 0.5918(6) 0.3127(7)
H35 H 0.2253 0.6354 0.3262
C37 C 0.1570(7) 0.5517(6) 0.3699(7)
H36 H 0.1658 0.5662 0.4238
C38 C 0.1069(6) 0.4883(5) 0.3473(6)
C39 C 0.0688(7) 0.4409(6) 0.4058(7)
C40 C 0.0872(7) 0.4469(6) 0.4862(6)
H37 H 0.1253 0.4848 0.5079
C41 C 0.0496(7) 0.3970(6) 0.5359(7)
H38 H 0.0634 0.3992 0.5915
C42 C -0.0086(8) 0.3437(7) 0.5022(7)
H39 H -0.0364 0.3096 0.5344
C43 C -0.0241(7) 0.3420(6) 0.4234(7)
H40 H -0.0638 0.3053 0.4013
O17A O 0.0960(4) 0.3016(4) 0.2494(4)
H31A H 0.1522 0.3139 0.2372
H32A H 0.0929 0.2668 0.2809
N4A N -0.0946(5) 0.4674(5) 0.2279(5)
N5A N -0.0115(6) 0.3876(5) 0.1269(5)
C34A C -0.1311(6) 0.5063(6) 0.2824(6)
H33A H -0.1226 0.4901 0.3358
C35A C -0.1802(7) 0.5684(6) 0.2657(7)
H34A H -0.2054 0.5950 0.3064
C36A C -0.1925(7) 0.5918(6) 0.1873(7)
H35A H -0.2253 0.6354 0.1738
C37A C -0.1570(7) 0.5517(6) 0.1301(7)
H36A H -0.1658 0.5662 0.0762
C38A C -0.1069(6) 0.4883(5) 0.1527(6)
C39A C -0.0688(7) 0.4409(6) 0.0942(7)
C40A C -0.0872(7) 0.4469(6) 0.0138(6)
H37A H -0.1253 0.4848 -0.0079
C41A C -0.0496(7) 0.3970(6) -0.0359(7)
H38A H -0.0634 0.3992 -0.0915
C42A C 0.0086(8) 0.3437(7) -0.0022(7)
H39A H 0.0364 0.3096 -0.0344
C43A C 0.0241(7) 0.3420(6) 0.0766(7)
H40A H 0.0638 0.3053 0.0987
O18 O 0.9596(6) 0.9122(5) 0.8272(5)
O19 O -0.1073(6) 0.1767(5) 0.1670(5)
O20 O 0.5000 0.4487(8) 0.7500
loop_
_geom_bond_atom_site_label_1
_geom_bond_atom_site_label_2
_geom_bond_site_symmetry_1
_geom_bond_site_symmetry_2
U1 O1 1_555 1_555
U2 O3 1_555 1_555
O2 U1 1_555 1_555
O4 U2 1_555 1_555
O5 U1 1_555 1_555
O6 U1 1_555 1_555
O7 U2 1_555 1_555
O8 U2 1_555 1_555
O9 C9 1_555 1_555
O10 C9 1_555 1_555
O11 U1 1_555 1_555
O12 U1 1_555 1_555
O13 C17 1_555 1_555
O14 C17 1_555 1_555
O15 C18 1_555 1_555
O16 C18 1_555 1_555
C1 H1 1_555 1_555
C2 C1 1_555 1_555
H2 C2 1_555 1_555
H3 C2 1_555 1_555
C3 C2 1_555 1_555
H4 C3 1_555 1_555
C4 C3 1_555 1_555
H5 C4 1_555 1_555
H6 C4 1_555 1_555
C5 C4 1_555 1_555
H7 C5 1_555 1_555
C6 C1 1_555 1_555
H8 C6 1_555 1_555
H9 C6 1_555 1_555
C7 O5 1_555 1_555
C8 O7 1_555 1_555
C9 C5 1_555 1_555
C10 H10 1_555 1_555
C11 C10 1_555 1_555
H11 C11 1_555 1_555
H12 C11 1_555 1_555
C12 C11 1_555 1_555
H13 C12 1_555 1_555
C13 C12 1_555 1_555
H14 C13 1_555 1_555
H15 C13 1_555 1_555
C14 C13 1_555 1_555
H16 C14 1_555 1_555
C15 C10 1_555 1_555
H17 C15 1_555 1_555
H18 C15 1_555 1_555
C16 O11 1_555 1_555
C17 C12 1_555 1_555
C18 C14 1_555 1_555
Ni1 N1 1_555 1_555
N1 C19 1_555 1_555
N2 Ni1 1_555 1_555
N3 Ni1 1_555 1_555
C19 H19 1_555 1_555
C20 C19 1_555 1_555
H20 C20 1_555 1_555
C21 C20 1_555 1_555
H21 C21 1_555 1_555
C22 C21 1_555 1_555
H22 C22 1_555 1_555
C23 N1 1_555 1_555
C24 N2 1_555 1_555
C25 C24 1_555 1_555
H23 C25 1_555 1_555
C26 C25 1_555 1_555
H24 C26 1_555 1_555
C27 C26 1_555 1_555
H25 C27 1_555 1_555
C28 N2 1_555 1_555
H26 C28 1_555 1_555
C29 N3 1_555 1_555
C30 C29 1_555 1_555
H27 C30 1_555 1_555
C31 C30 1_555 1_555
H28 C31 1_555 1_555
C32 C31 1_555 1_555
H29 C32 1_555 1_555
C33 N3 1_555 1_555
H30 C33 1_555 1_555
Ni2 O17 1_555 1_555
O17 H31 1_555 1_555
H32 O17 1_555 1_555
N4 Ni2 1_555 1_555
N5 Ni2 1_555 1_555
C34 N4 1_555 1_555
H33 C34 1_555 1_555
C35 C34 1_555 1_555
H34 C35 1_555 1_555
C36 C35 1_555 1_555
H35 C36 1_555 1_555
C37 C36 1_555 1_555
H36 C37 1_555 1_555
C38 N4 1_555 1_555
C39 N5 1_555 1_555
C40 C39 1_555 1_555
H37 C40 1_555 1_555
C41 C40 1_555 1_555
H38 C41 1_555 1_555
C42 C41 1_555 1_555
H39 C42 1_555 1_555
C43 N5 1_555 1_555
H40 C43 1_555 1_555
U1C O9 1_555 1_555
U2_2 O13 1_555 1_555
U2C O15 1_555 1_555
O9C U1 1_555 1_555
O10C U1 1_555 1_555
O13_2 U2 1_555 1_555
O14_2 U2 1_555 1_555
O15C U2 1_555 1_555
O16C U2 1_555 1_555
N3A Ni1 1_555 1_555
C29A C29 1_555 1_555
C30A C29A 1_555 1_555
H27A C30A 1_555 1_555
C31A C30A 1_555 1_555
H28A C31A 1_555 1_555
C32A C31A 1_555 1_555
H29A C32A 1_555 1_555
C33A N3A 1_555 1_555
H30A C33A 1_555 1_555
N1A Ni1 1_555 1_555
N2A Ni1 1_555 1_555
C19A N1A 1_555 1_555
H19A C19A 1_555 1_555
C20A C19A 1_555 1_555
H20A C20A 1_555 1_555
C21A C20A 1_555 1_555
H21A C21A 1_555 1_555
C22A C21A 1_555 1_555
H22A C22A 1_555 1_555
C23A N1A 1_555 1_555
C24A N2A 1_555 1_555
C25A C24A 1_555 1_555
H23A C25A 1_555 1_555
C26A C25A 1_555 1_555
H24A C26A 1_555 1_555
C27A C26A 1_555 1_555
H25A C27A 1_555 1_555
C28A N2A 1_555 1_555
H26A C28A 1_555 1_555
O17A Ni2 1_555 1_555
H31A O17A 1_555 1_555
H32A O17A 1_555 1_555
N4A Ni2 1_555 1_555
N5A Ni2 1_555 1_555
C34A N4A 1_555 1_555
H33A C34A 1_555 1_555
C35A C34A 1_555 1_555
H34A C35A 1_555 1_555
C36A C35A 1_555 1_555
H35A C36A 1_555 1_555
C37A C36A 1_555 1_555
H36A C37A 1_555 1_555
C38A N4A 1_555 1_555
C39A N5A 1_555 1_555
C40A C39A 1_555 1_555
H37A C40A 1_555 1_555
C41A C40A 1_555 1_555
H38A C41A 1_555 1_555
C42A C41A 1_555 1_555
H39A C42A 1_555 1_555
C43A N5A 1_555 1_555
H40A C43A 1_555 1_555
O6 C7 1_555 1_555
O8 C8 1_555 1_555
O10 U1C 1_555 1_555
O12 C16 1_555 1_555
O14 U2_2 1_555 1_555
O16 U2C 1_555 1_555
C1 C7 1_555 1_555
C3 C8 1_555 1_555
C5 C6 1_555 1_555
C10 C16 1_555 1_555
C14 C15 1_555 1_555
C22 C23 1_555 1_555
C23 C24 1_555 1_555
C27 C28 1_555 1_555
C32 C33 1_555 1_555
C37 C38 1_555 1_555
C38 C39 1_555 1_555
C42 C43 1_555 1_555
N3A C29A 1_555 1_555
C32A C33A 1_555 1_555
C22A C23A 1_555 1_555
C23A C24A 1_555 1_555
C27A C28A 1_555 1_555
C37A C38A 1_555 1_555
C38A C39A 1_555 1_555
C42A C43A 1_555 1_555

#END
