
#######################################################################
#
#                 Cambridge Crystallographic Data Centre
#                                CCDC 
#
#######################################################################
#
# If this CIF has been generated from an entry in the Cambridge 
# Structural Database, then it will include bibliographic, chemical, 
# crystal, experimental, refinement or atomic coordinate data resulting 
# from the CCDC's data processing and validation procedures.
#
#######################################################################

data_RORQIA
_symmetry_cell_setting           orthorhombic
_symmetry_space_group_name_H-M   'P b c n'
_symmetry_Int_Tables_number      60
_space_group_name_Hall           '-P 2n 2ab'
loop_
_symmetry_equiv_pos_site_id
_symmetry_equiv_pos_as_xyz
1 x,y,z
2 1/2-x,1/2-y,1/2+z
3 -x,y,1/2-z
4 1/2+x,1/2-y,-z
5 -x,-y,-z
6 1/2+x,1/2+y,1/2-z
7 x,-y,1/2+z
8 1/2-x,1/2+y,z
_cell_length_a                   14.8810(13)
_cell_length_b                   18.0065(15)
_cell_length_c                   17.2267(8)
_cell_angle_alpha                90
_cell_angle_beta                 90
_cell_angle_gamma                90
_cell_volume                     4615.98
loop_
_atom_site_label
_atom_site_type_symbol
_atom_site_fract_x
_atom_site_fract_y
_atom_site_fract_z
U1 U 0.31952(3) 0.868025(18) 0.566891(16)
O1 O 0.4229(4) 0.8193(3) 0.5641(4)
O2 O 0.2157(5) 0.9155(4) 0.5670(3)
O3 O 0.2385(6) 0.7495(4) 0.5599(3)
O4 O 0.2690(5) 0.8025(3) 0.4499(3)
O5 O 0.2149(6) 0.6766(4) 0.1995(3)
O6 O 0.1306(5) 0.5772(4) 0.1905(3)
O7 O 0.1071(4) 0.4889(3) 0.5531(3)
O8 O 0.1486(4) 0.4358(3) 0.4455(3)
C1 C 0.1765(9) 0.6934(6) 0.4450(5)
H1 H 0.1138 0.7134 0.4452
C2 C 0.2030(7) 0.6877(5) 0.3595(5)
H2 H 0.1988 0.7372 0.3349
H3 H 0.2659 0.6703 0.3553
C3 C 0.1413(10) 0.6339(5) 0.3181(5)
H4 H 0.0800 0.6566 0.3205
C4 C 0.1333(8) 0.5616(5) 0.3545(5)
H5 H 0.1906 0.5344 0.3480
H6 H 0.0858 0.5330 0.3277
C5 C 0.1110(6) 0.5660(4) 0.4399(4)
H7 H 0.0470 0.5820 0.4453
C6 C 0.1715(7) 0.6224(5) 0.4851(5)
H8 H 0.1466 0.6300 0.5378
H9 H 0.2327 0.6015 0.4907
C7 C 0.2324(8) 0.7504(5) 0.4875(5)
C8 C 0.1647(8) 0.6281(5) 0.2313(5)
C9 C 0.1221(6) 0.4937(5) 0.4803(4)
U1A U 0.18048(3) 0.631975(18) 0.066891(16)
U1G U 0.18048(3) 0.368025(18) 0.566891(16)
O5A O 0.2851(6) 0.8234(4) 0.6995(3)
O6A O 0.3694(5) 0.9228(4) 0.6905(3)
O7G O 0.3929(4) 0.9889(3) 0.5531(3)
O8G O 0.3514(4) 0.9358(3) 0.4455(3)
Ni1 Ni 0.5000 0.38583(11) 0.7500
O9 O 0.5962(5) 0.3017(4) 0.7586(4)
H10 H 0.6288 0.2878 0.7944
H11 H 0.5686 0.2673 0.7273
N1 N 0.4855(6) 0.3901(5) 0.8709(5)
N2 N 0.4044(6) 0.4698(4) 0.7607(5)
C10 C 0.5151(9) 0.3408(8) 0.9201(8)
H12 H 0.5520 0.3020 0.9007
C11 C 0.4969(9) 0.3413(7) 0.9973(7)
H13 H 0.5206 0.3045 1.0311
C12 C 0.4432(8) 0.3966(7) 1.0242(7)
H14 H 0.4281 0.3981 1.0777
C13 C 0.4103(7) 0.4503(6) 0.9754(6)
H15 H 0.3751 0.4904 0.9945
C14 C 0.4310(7) 0.4437(6) 0.8951(6)
C15 C 0.3928(7) 0.4939(6) 0.8358(6)
C16 C 0.3441(7) 0.5577(6) 0.8524(6)
H16 H 0.3379 0.5745 0.9044
C17 C 0.3048(7) 0.5961(6) 0.7924(7)
H17 H 0.2715 0.6399 0.8031
C18 C 0.3132(8) 0.5716(7) 0.7163(7)
H18 H 0.2847 0.5967 0.6746
C19 C 0.3654(8) 0.5085(6) 0.7039(6)
H19 H 0.3737 0.4921 0.6520
O9B O 0.4038(5) 0.3017(4) 0.7414(4)
H10B H 0.3712 0.2878 0.7056
H11B H 0.4314 0.2673 0.7727
N1B N 0.5145(6) 0.3901(5) 0.6291(5)
N2B N 0.5956(6) 0.4698(4) 0.7393(5)
C10B C 0.4849(9) 0.3408(8) 0.5799(8)
H12B H 0.4480 0.3020 0.5993
C11B C 0.5031(9) 0.3413(7) 0.5027(7)
H13B H 0.4794 0.3045 0.4689
C12B C 0.5568(8) 0.3966(7) 0.4758(7)
H14B H 0.5719 0.3981 0.4223
C13B C 0.5897(7) 0.4503(6) 0.5246(6)
H15B H 0.6249 0.4904 0.5055
C14B C 0.5690(7) 0.4437(6) 0.6049(6)
C15B C 0.6072(7) 0.4939(6) 0.6642(6)
C16B C 0.6559(7) 0.5577(6) 0.6476(6)
H16B H 0.6621 0.5745 0.5956
C17B C 0.6952(7) 0.5961(6) 0.7076(7)
H17B H 0.7285 0.6399 0.6969
C18B C 0.6868(8) 0.5716(7) 0.7837(7)
H18B H 0.7153 0.5967 0.8254
C19B C 0.6346(8) 0.5085(6) 0.7961(6)
H19B H 0.6263 0.4921 0.8480
O10 O 0.5862(6) 0.1838(5) 0.6689(5)
H20 H 0.5396 0.1481 0.6679
H21 H 0.6106 0.1641 0.6304
O11 O 0.0559(6) 0.5882(4) 0.6741(4)
H22 H 0.0840 0.5468 0.6493
H23 H 0.0991 0.5970 0.7123
loop_
_geom_bond_atom_site_label_1
_geom_bond_atom_site_label_2
_geom_bond_site_symmetry_1
_geom_bond_site_symmetry_2
U1 O1 1_555 1_555
O2 U1 1_555 1_555
O3 U1 1_555 1_555
O4 U1 1_555 1_555
O5 C8 1_555 1_555
O6 C8 1_555 1_555
O7 C9 1_555 1_555
O8 C9 1_555 1_555
C1 H1 1_555 1_555
C2 C1 1_555 1_555
H2 C2 1_555 1_555
H3 C2 1_555 1_555
C3 C2 1_555 1_555
H4 C3 1_555 1_555
C4 C3 1_555 1_555
H5 C4 1_555 1_555
H6 C4 1_555 1_555
C5 C4 1_555 1_555
H7 C5 1_555 1_555
C6 C1 1_555 1_555
H8 C6 1_555 1_555
H9 C6 1_555 1_555
C7 O3 1_555 1_555
C8 C3 1_555 1_555
C9 C5 1_555 1_555
Ni1 O9 1_555 1_555
O9 H10 1_555 1_555
H11 O9 1_555 1_555
N1 Ni1 1_555 1_555
N2 Ni1 1_555 1_555
C10 N1 1_555 1_555
H12 C10 1_555 1_555
C11 C10 1_555 1_555
H13 C11 1_555 1_555
C12 C11 1_555 1_555
H14 C12 1_555 1_555
C13 C12 1_555 1_555
H15 C13 1_555 1_555
C14 N1 1_555 1_555
C15 N2 1_555 1_555
C16 C15 1_555 1_555
H16 C16 1_555 1_555
C17 C16 1_555 1_555
H17 C17 1_555 1_555
C18 C17 1_555 1_555
H18 C18 1_555 1_555
C19 N2 1_555 1_555
H19 C19 1_555 1_555
O10 H20 1_555 1_555
H21 O10 1_555 1_555
O11 H22 1_555 1_555
H23 O11 1_555 1_555
U1A O5 1_555 1_555
U1G O7 1_555 1_555
O5A U1 1_555 1_555
O6A U1 1_555 1_555
O7G U1 1_555 1_555
O8G U1 1_555 1_555
O9B Ni1 1_555 1_555
H10B O9B 1_555 1_555
H11B O9B 1_555 1_555
N1B Ni1 1_555 1_555
N2B Ni1 1_555 1_555
C10B N1B 1_555 1_555
H12B C10B 1_555 1_555
C11B C10B 1_555 1_555
H13B C11B 1_555 1_555
C12B C11B 1_555 1_555
H14B C12B 1_555 1_555
C13B C12B 1_555 1_555
H15B C13B 1_555 1_555
C14B N1B 1_555 1_555
C15B N2B 1_555 1_555
C16B C15B 1_555 1_555
H16B C16B 1_555 1_555
C17B C16B 1_555 1_555
H17B C17B 1_555 1_555
C18B C17B 1_555 1_555
H18B C18B 1_555 1_555
C19B N2B 1_555 1_555
H19B C19B 1_555 1_555
O4 C7 1_555 1_555
O6 U1A 1_555 1_555
O8 U1G 1_555 1_555
C1 C7 1_555 1_555
C5 C6 1_555 1_555
C13 C14 1_555 1_555
C14 C15 1_555 1_555
C18 C19 1_555 1_555
C13B C14B 1_555 1_555
C14B C15B 1_555 1_555
C18B C19B 1_555 1_555

#END
