
#######################################################################
#
#                 Cambridge Crystallographic Data Centre
#                                CCDC 
#
#######################################################################
#
# If this CIF has been generated from an entry in the Cambridge 
# Structural Database, then it will include bibliographic, chemical, 
# crystal, experimental, refinement or atomic coordinate data resulting 
# from the CCDC's data processing and validation procedures.
#
#######################################################################

data_RORROH
_symmetry_cell_setting           hexagonal
_symmetry_space_group_name_H-M   'P 63/m'
_symmetry_Int_Tables_number      176
_space_group_name_Hall           '-P 6c'
loop_
_symmetry_equiv_pos_site_id
_symmetry_equiv_pos_as_xyz
1 x,y,z
2 -y,x-y,z
3 -x+y,-x,z
4 -x,-y,1/2+z
5 y,-x+y,1/2+z
6 x-y,x,1/2+z
7 -x,-y,-z
8 y,-x+y,-z
9 x-y,x,-z
10 x,y,1/2-z
11 -y,x-y,1/2-z
12 -x+y,-x,1/2-z
_cell_length_a                   20.7493(7)
_cell_length_b                   20.7493(7)
_cell_length_c                   10.0311(2)
_cell_angle_alpha                90
_cell_angle_beta                 90
_cell_angle_gamma                120
_cell_volume                     3740.12
loop_
_atom_site_label
_atom_site_type_symbol
_atom_site_fract_x
_atom_site_fract_y
_atom_site_fract_z
U1 U 0.925352(13) 0.341758(14) 0.2500
O1 O 0.8752(3) 0.3901(3) 0.2500
O2 O 0.9752(3) 0.2942(3) 0.2500
O3 O 0.93079(18) 0.3483(2) 0.4955(4)
O4 O 1.02306(17) 0.4391(2) 0.3891(3)
O5 O 1.2369(2) 0.4181(2) 0.6420(3)
C1 C 0.9902(3) 0.4072(4) 0.7500
H1 H 0.9611 0.3522 0.7500
H2 H 0.9549 0.4261 0.7500
C2 C 1.0385(2) 0.4343(3) 0.6259(4)
H3 H 1.0649 0.4899 0.6251
C3 C 1.0976(2) 0.4099(3) 0.6239(4)
H4 H 1.0729 0.3549 0.6211
H5 H 1.1293 0.4300 0.5437
C4 C 1.1455(4) 0.4393(4) 0.7500
H6 H 1.1674 0.4946 0.7500
C5 C 0.9943(2) 0.4064(3) 0.4977(4)
C6 C 1.2101(4) 0.4248(4) 0.7500
O3I O 0.93079(18) 0.3483(2) 1.0045(4)
O4I O 1.02306(17) 0.4391(2) 1.1109(3)
O5I O 1.2369(2) 0.4181(2) 0.8580(3)
C2I C 1.0385(2) 0.4343(3) 0.8741(4)
H3I H 1.0649 0.4899 0.8749
C3I C 1.0976(2) 0.4099(3) 0.8761(4)
H4I H 1.0729 0.3549 0.8789
H5I H 1.1293 0.4300 0.9563
C5I C 0.9943(2) 0.4064(3) 1.0023(4)
U1_2 U 0.925352(13) 0.341758(14) 1.2500
U1D U 1.341758(14) 0.416406(19) 0.7500
O3I_2 O 0.93079(18) 0.3483(2) 0.0045(4)
O4I_2 O 1.02306(17) 0.4391(2) 0.1109(3)
O5E O 0.8188(3) 0.2369(2) 0.1420(3)
O5H O 0.8188(3) 0.2369(2) 0.3580(3)
loop_
_geom_bond_atom_site_label_1
_geom_bond_atom_site_label_2
_geom_bond_site_symmetry_1
_geom_bond_site_symmetry_2
U1 O1 1_555 1_555
O2 U1 1_555 1_555
O3 U1 1_555 1_555
O4 U1 1_555 1_555
O5 C6 1_555 1_555
C1 H1 1_555 1_555
H2 C1 1_555 1_555
C2 C1 1_555 1_555
H3 C2 1_555 1_555
C3 C2 1_555 1_555
H4 C3 1_555 1_555
H5 C3 1_555 1_555
C4 C3 1_555 1_555
H6 C4 1_555 1_555
C5 O3 1_555 1_555
C6 C4 1_555 1_555
O3I C5I 1_555 1_555
O4I C5I 1_555 1_555
O5I C6 1_555 1_555
C2I C1 1_555 1_555
H3I C2I 1_555 1_555
C3I C4 1_555 1_555
H4I C3I 1_555 1_555
H5I C3I 1_555 1_555
C5I C2I 1_555 1_555
U1_2 O3I 1_555 1_555
U1D O5 1_555 1_555
O3I_2 U1 1_555 1_555
O4I_2 U1 1_555 1_555
O5E U1 1_555 1_555
O5H U1 1_555 1_555
O4 C5 1_555 1_555
C2 C5 1_555 1_555
O4I U1_2 1_555 1_555
O5I U1D 1_555 1_555
C2I C3I 1_555 1_555

#END
