
#######################################################################
#
#                 Cambridge Crystallographic Data Centre
#                                CCDC 
#
#######################################################################
#
# If this CIF has been generated from an entry in the Cambridge 
# Structural Database, then it will include bibliographic, chemical, 
# crystal, experimental, refinement or atomic coordinate data resulting 
# from the CCDC's data processing and validation procedures.
#
#######################################################################

data_RORRAT
_symmetry_cell_setting           orthorhombic
_symmetry_space_group_name_H-M   'P n n m'
_symmetry_Int_Tables_number      58
_space_group_name_Hall           '-P 2 2n'
loop_
_symmetry_equiv_pos_site_id
_symmetry_equiv_pos_as_xyz
1 x,y,z
2 -x,-y,z
3 1/2-x,1/2+y,1/2-z
4 1/2+x,1/2-y,1/2-z
5 -x,-y,-z
6 x,y,-z
7 1/2+x,1/2-y,1/2+z
8 1/2-x,1/2+y,1/2+z
_cell_length_a                   10.1436(5)
_cell_length_b                   15.6398(7)
_cell_length_c                   10.0394(4)
_cell_angle_alpha                90
_cell_angle_beta                 90
_cell_angle_gamma                90
_cell_volume                     1592.69
loop_
_atom_site_label
_atom_site_type_symbol
_atom_site_fract_x
_atom_site_fract_y
_atom_site_fract_z
U1 U 0.63037(2) 0.150791(15) 0.0000
O1 O 0.7775(5) 0.2094(4) 0.0000
O2 O 0.4797(5) 0.0971(3) 0.0000
O3 O 0.6338(4) 0.1606(2) 0.2446(4)
O4 O 0.5375(4) 0.2656(2) 0.1400(3)
O5 O 0.7572(5) 0.5292(2) 0.3923(4)
C1 C 0.5882(7) 0.2290(5) 0.5000
H1 H 0.6785 0.2049 0.5000
H2 H 0.5248 0.1809 0.5000
C2 C 0.5682(5) 0.2828(3) 0.3764(5)
H3 H 0.4769 0.3066 0.3803
C3 C 0.6648(6) 0.3593(3) 0.3740(5)
H4 H 0.7567 0.3382 0.3686
H5 H 0.6475 0.3953 0.2948
C4 C 0.6468(7) 0.4119(5) 0.5000
H6 H 0.5523 0.4301 0.5000
C5 C 0.5801(5) 0.2335(3) 0.2480(5)
C6 C 0.7267(9) 0.4945(5) 0.5000
O3E O 0.6338(4) 0.1606(2) 0.7554(4)
O4E O 0.5375(4) 0.2656(2) 0.8600(3)
O5E O 0.7572(5) 0.5292(2) 0.6077(4)
C2E C 0.5682(5) 0.2828(3) 0.6236(5)
H3E H 0.4769 0.3066 0.6197
C3E C 0.6648(6) 0.3593(3) 0.6260(5)
H4E H 0.7567 0.3382 0.6314
H5E H 0.6475 0.3953 0.7052
C5E C 0.5801(5) 0.2335(3) 0.7520(5)
U1_2 U 0.63037(2) 0.150791(15) 1.0000
U1B U 0.86963(2) 0.650791(15) 0.5000
O3E_2 O 0.6338(4) 0.1606(2) -0.2446(4)
O4E_2 O 0.5375(4) 0.2656(2) -0.1400(3)
O5B O 0.7428(5) 0.0292(2) 0.1077(4)
O5G O 0.7428(5) 0.0292(2) -0.1077(4)
Cu1 Cu 0.5000 0.5000 0.0000
O6 O 0.6494(6) 0.4206(4) 0.0000
H7 H 0.6165 0.3667 0.0000
H8 H 0.7382 0.4453 0.0000
O7 O 0.5944(6) 0.5758(3) -0.1489(7)
H9 H 0.5346 0.6242 -0.1491
H10 H 0.6850 0.5768 -0.1310
O6A O 0.3506(6) 0.5794(4) 0.0000
H7A H 0.3835 0.6333 0.0000
H8A H 0.2618 0.5547 0.0000
O7A O 0.4056(6) 0.4242(3) -0.1489(7)
H9A H 0.4654 0.3758 -0.1491
H10A H 0.3150 0.4232 -0.1310
O7D O 0.4056(6) 0.4242(3) 0.1489(7)
H9D H 0.4654 0.3758 0.1491
H10D H 0.3150 0.4232 0.1310
O7E O 0.5944(6) 0.5758(3) 0.1489(7)
H9E H 0.5346 0.6242 0.1491
H10E H 0.6850 0.5768 0.1310
O8 O 0.140(2) 0.5109(17) 0.890(3)
H11? H 0.6421 0.5529 -0.2074
H12? H 0.6221 0.6199 -0.0874
O9? O 0.0000 0.5000 0.841(2)
loop_
_geom_bond_atom_site_label_1
_geom_bond_atom_site_label_2
_geom_bond_site_symmetry_1
_geom_bond_site_symmetry_2
U1 O1 1_555 1_555
O2 U1 1_555 1_555
O3 U1 1_555 1_555
O4 U1 1_555 1_555
O5 C6 1_555 1_555
C1 H1 1_555 1_555
H2 C1 1_555 1_555
C2 C1 1_555 1_555
H3 C2 1_555 1_555
C3 C2 1_555 1_555
H4 C3 1_555 1_555
H5 C3 1_555 1_555
C4 C3 1_555 1_555
H6 C4 1_555 1_555
C5 O3 1_555 1_555
C6 C4 1_555 1_555
Cu1 O6 1_555 1_555
O6 H7 1_555 1_555
H8 O6 1_555 1_555
O7 Cu1 1_555 1_555
H9 O7 1_555 1_555
H10 O7 1_555 1_555
O3E C5E 1_555 1_555
O4E C5E 1_555 1_555
O5E C6 1_555 1_555
C2E C1 1_555 1_555
H3E C2E 1_555 1_555
C3E C4 1_555 1_555
H4E C3E 1_555 1_555
H5E C3E 1_555 1_555
C5E C2E 1_555 1_555
U1_2 O3E 1_555 1_555
U1B O5 1_555 1_555
O3E_2 U1 1_555 1_555
O4E_2 U1 1_555 1_555
O5B U1 1_555 1_555
O5G U1 1_555 1_555
O6A Cu1 1_555 1_555
H7A O6A 1_555 1_555
H8A O6A 1_555 1_555
O7A Cu1 1_555 1_555
H9A O7A 1_555 1_555
H10A O7A 1_555 1_555
O7D Cu1 1_555 1_555
H9D O7D 1_555 1_555
H10D O7D 1_555 1_555
O7E Cu1 1_555 1_555
H9E O7E 1_555 1_555
H10E O7E 1_555 1_555
O4 C5 1_555 1_555
C2 C5 1_555 1_555
O4E U1_2 1_555 1_555
O5E U1B 1_555 1_555
C2E C3E 1_555 1_555

#END
