
#######################################################################
#
#                 Cambridge Crystallographic Data Centre
#                                CCDC 
#
#######################################################################
#
# If this CIF has been generated from an entry in the Cambridge 
# Structural Database, then it will include bibliographic, chemical, 
# crystal, experimental, refinement or atomic coordinate data resulting 
# from the CCDC's data processing and validation procedures.
#
#######################################################################

data_RORREX
_symmetry_cell_setting           orthorhombic
_symmetry_space_group_name_H-M   'P n m a'
_symmetry_Int_Tables_number      62
_space_group_name_Hall           '-P 2ac 2n'
loop_
_symmetry_equiv_pos_site_id
_symmetry_equiv_pos_as_xyz
1 x,y,z
2 1/2-x,-y,1/2+z
3 -x,1/2+y,-z
4 1/2+x,1/2-y,1/2-z
5 -x,-y,-z
6 1/2+x,y,1/2-z
7 x,1/2-y,z
8 1/2-x,1/2+y,1/2+z
_cell_length_a                   31.0331(13)
_cell_length_b                   10.0992(3)
_cell_length_c                   16.5477(7)
_cell_angle_alpha                90
_cell_angle_beta                 90
_cell_angle_gamma                90
_cell_volume                     5186.21
loop_
_atom_site_label
_atom_site_type_symbol
_atom_site_fract_x
_atom_site_fract_y
_atom_site_fract_z
U1 U 0.389552(12) -0.2500 0.312428(19)
O1 O 0.4433(2) -0.2500 0.3501(4)
O2 O 0.3355(2) -0.2500 0.2780(4)
O3 O 0.36700(18) -0.1098(4) 0.4264(3)
O4 O 0.39078(18) -0.0042(5) 0.3214(3)
O5 O 0.41314(17) -0.1418(4) 0.1868(2)
C1 C 0.3766(2) -0.0013(6) 0.3922(4)
C2 C 0.4212(3) -0.2500 0.1510(5)
C3 C 0.3683(3) 0.1274(7) 0.4356(4)
C4 C 0.4419(3) -0.2500 0.0666(5)
C5 C 0.3812(4) 0.2500 0.3889(5)
H1 H 0.3364 0.1331 0.4431
C6 C 0.3878(3) 0.1242(7) 0.5204(4)
H2 H 0.4738 -0.2500 0.0752
C7 C 0.4315(2) -0.1244(6) 0.0206(4)
H3 H 0.4128 0.2500 0.3801
H4 H 0.3669 0.2500 0.3355
H5 H 0.3759 0.0475 0.5503
H6 H 0.4194 0.1122 0.5162
C8 C 0.3784(5) 0.2500 0.5672(6)
H7 H 0.4406 -0.0464 0.0525
H8 H 0.4001 -0.1183 0.0113
C9 C 0.4557(2) -0.1259(6) -0.0619(3)
H9 H 0.3464 0.2500 0.5749
C10 C 0.3967(3) 0.2500 0.6517(6)
H10 H 0.4873 -0.1286 -0.0501
C11 C 0.4447(3) -0.2500 -0.1102(5)
C12 C 0.4466(2) 0.0024(6) -0.1056(3)
O6 O 0.40370(19) 0.1430(5) 0.6894(3)
H11 H 0.4611 -0.2500 -0.1615
H12 H 0.4136 -0.2500 -0.1235
O7 O 0.45776(16) 0.1120(4) -0.0739(3)
O8 O 0.42793(15) 0.0052(5) -0.1737(3)
U2 U 0.431819(10) 0.2500 0.813849(18)
O9 O 0.4844(2) 0.2500 0.7720(4)
O10 O 0.3792(2) 0.2500 0.8552(4)
O5F O 0.41314(17) -0.3582(4) 0.1868(2)
O3F O 0.36700(18) -0.3902(4) 0.4264(3)
O4F O 0.39078(18) -0.4958(5) 0.3214(3)
C7F C 0.4315(2) -0.3756(6) 0.0206(4)
C3F C 0.3683(3) 0.3726(7) 0.4356(4)
H7F H 0.4406 -0.4536 0.0525
H8F H 0.4001 -0.3817 0.0113
C9F C 0.4557(2) -0.3741(6) -0.0619(3)
H1F H 0.3364 0.3669 0.4431
C6F C 0.3878(3) 0.3758(7) 0.5204(4)
C1F C 0.3766(2) 0.5013(6) 0.3922(4)
H10F H 0.4873 -0.3714 -0.0501
C12F C 0.4466(2) -0.5024(6) -0.1056(3)
H5F H 0.3759 0.4525 0.5503
H6F H 0.4194 0.3878 0.5162
O3F_2 O 0.36700(18) 0.6098(4) 0.4264(3)
O4F_2 O 0.39078(18) 0.5042(5) 0.3214(3)
O6F O 0.40370(19) 0.3570(5) 0.6894(3)
O7F O 0.45776(16) -0.6120(4) -0.0739(3)
O8F O 0.42793(15) -0.5052(5) -0.1737(3)
U1_2 U 0.389552(12) 0.7500 0.312428(19)
U2_2 U 0.431819(10) 0.2500 -0.186151(18)
U2_3 U 0.431819(10) -0.7500 -0.186151(18)
O7_2 O 0.45776(16) 0.1120(4) 0.9261(3)
O7F_2 O 0.45776(16) 0.3880(4) 0.9261(3)
O8_2 O 0.42793(15) 0.0052(5) 0.8263(3)
O8F_2 O 0.42793(15) 0.4948(5) 0.8263(3)
U3 U 0.223458(10) 0.2500 0.554617(18)
O11 O 0.1694(2) 0.2500 0.5850(4)
O12 O 0.2772(2) 0.2500 0.5208(4)
O13 O 0.23029(19) 0.4931(5) 0.5418(3)
O14 O 0.20207(16) 0.3907(4) 0.4383(2)
O15 O 0.25362(16) 0.6424(4) 0.1810(2)
C13 C 0.2178(3) 0.7500 0.4778(5)
H13 H 0.2480 0.7500 0.4967
H14 H 0.1987 0.7500 0.5259
C14 C 0.2091(2) 0.6264(6) 0.4266(4)
H15 H 0.1781 0.6309 0.4104
C15 C 0.2352(2) 0.6251(7) 0.3476(4)
H16 H 0.2663 0.6196 0.3602
H17 H 0.2273 0.5461 0.3154
C16 C 0.2263(3) 0.7500 0.2985(6)
H18 H 0.1946 0.7500 0.2881
C17 C 0.2144(2) 0.4993(6) 0.4719(4)
C18 C 0.2468(3) 0.7500 0.2181(5)
O13F O 0.23029(19) 1.0069(5) 0.5418(3)
O14F O 0.20207(16) 1.1093(4) 0.4383(2)
O15F O 0.25362(16) 0.8576(4) 0.1810(2)
C14F C 0.2091(2) 0.8736(6) 0.4266(4)
H15F H 0.1781 0.8691 0.4104
C15F C 0.2352(2) 0.8749(7) 0.3476(4)
H16F H 0.2663 0.8804 0.3602
H17F H 0.2273 0.9539 0.3154
C17F C 0.2144(2) 1.0007(6) 0.4719(4)
U3_2 U 0.223458(10) 1.2500 0.554617(18)
U3A U 0.276542(10) 0.7500 0.054617(18)
O13F_2 O 0.23029(19) 0.0069(5) 0.5418(3)
O14F_2 O 0.20207(16) 0.1093(4) 0.4383(2)
O15A O 0.24638(16) 0.3576(4) 0.6810(2)
O15G O 0.24638(16) 0.1424(4) 0.6810(2)
O14_2 O 0.20207(16) 1.3907(4) 0.4383(2)
C13_2 C 0.2178(3) 1.7500 0.4778(5)
H13_2 H 0.2480 1.7500 0.4967
C15F_2 C 0.2352(2) 1.8749(7) 0.3476(4)
H17F_2 H 0.2273 1.9539 0.3154
O15F_2 O 0.25362(16) 1.8576(4) 0.1810(2)
U3A_2 U 0.276542(10) 1.7500 0.054617(18)
O13_2 O 0.23029(19) 1.4931(5) 0.5418(3)
O15G_2 O 0.24638(16) 1.1424(4) 0.6810(2)
C15_2 C 0.2352(2) 1.6251(7) 0.3476(4)
H17_2 H 0.2273 1.5461 0.3154
C14_2 C 0.2091(2) 1.6264(6) 0.4266(4)
C17_2 C 0.2144(2) 1.4993(6) 0.4719(4)
O12_2 O 0.2772(2) 1.2500 0.5208(4)
O14F_3 O 0.20207(16) 2.1093(4) 0.4383(2)
C17F_2 C 0.2144(2) 2.0007(6) 0.4719(4)
C14F_2 C 0.2091(2) 1.8736(6) 0.4266(4)
H16_2 H 0.2663 1.6196 0.3602
O15A_2 O 0.24638(16) 1.3576(4) 0.6810(2)
O15_2 O 0.25362(16) 1.6424(4) 0.1810(2)
C18_2 C 0.2468(3) 1.7500 0.2181(5)
C16_2 C 0.2263(3) 1.7500 0.2985(6)
U3_3 U 0.223458(10) 2.2500 0.554617(18)
H16F_2 H 0.2663 1.8804 0.3602
H15_2 H 0.1781 1.6309 0.4104
O13F_3 O 0.23029(19) 2.0069(5) 0.5418(3)
H14_2 H 0.1987 1.7500 0.5259
O11_2 O 0.1694(2) 1.2500 0.5850(4)
H15F_2 H 0.1781 1.8691 0.4104
H18_2 H 0.1946 1.7500 0.2881
Tb1 Tb 0.337072(14) 0.7500 0.69208(2)
O16 O 0.2734(2) 0.7500 0.7773(5)
H19 H 0.2710 0.7500 0.8366
H20 H 0.2467 0.7500 0.7690
O17 O 0.3334(2) 0.7500 0.5466(4)
O18 O 0.29598(18) 0.9304(5) 0.6443(3)
H21 H 0.2780 0.9193 0.5983
H22 H 0.2900 1.0051 0.6722
O19 O 0.34813(16) 0.9008(5) 0.8011(3)
O20 O 0.39665(15) 0.8853(5) 0.6616(3)
O18F O 0.29598(18) 0.5696(5) 0.6443(3)
H21F H 0.2780 0.5807 0.5983
H22F H 0.2900 0.4949 0.6722
O19F O 0.34813(16) 0.5992(5) 0.8011(3)
O20F O 0.39665(15) 0.6147(5) 0.6616(3)
O21 O 0.1959(4) 0.7500 0.7137(7)
O22 O 0.4809(3) 0.8722(14) 0.6393(10)
O23 O 0.4186(4) 0.2500 1.0827(6)
O24 O 0.1454(2) -0.0651(8) 0.6328(6)
O25 O 0.4995(6) 1.0818(19) 0.5595(11)
O26 O 0.5336(5) 0.8957(19) 0.7943(10)
O27? O 0.5202(5) 0.957(2) 0.7333(12)
loop_
_geom_bond_atom_site_label_1
_geom_bond_atom_site_label_2
_geom_bond_site_symmetry_1
_geom_bond_site_symmetry_2
U1 O1 1_555 1_555
O2 U1 1_555 1_555
O3 U1 1_555 1_555
O4 U1 1_555 1_555
O5 U1 1_555 1_555
C1 O3 1_555 1_555
C2 O5 1_555 1_555
C3 C1 1_555 1_555
C4 C2 1_555 1_555
C5 C3 1_555 1_555
H1 C3 1_555 1_555
C6 C3 1_555 1_555
H2 C4 1_555 1_555
C7 C4 1_555 1_555
H3 C5 1_555 1_555
H4 C5 1_555 1_555
H5 C6 1_555 1_555
H6 C6 1_555 1_555
C8 C6 1_555 1_555
H7 C7 1_555 1_555
H8 C7 1_555 1_555
C9 C7 1_555 1_555
H9 C8 1_555 1_555
C10 C8 1_555 1_555
H10 C9 1_555 1_555
C11 C9 1_555 1_555
C12 C9 1_555 1_555
O6 C10 1_555 1_555
H11 C11 1_555 1_555
H12 C11 1_555 1_555
O7 C12 1_555 1_555
O8 C12 1_555 1_555
U2 O6 1_555 1_555
O9 U2 1_555 1_555
O10 U2 1_555 1_555
U3 O11 1_555 1_555
O12 U3 1_555 1_555
O13 U3 1_555 1_555
O14 U3 1_555 1_555
O15 C18 1_555 1_555
C13 H13 1_555 1_555
H14 C13 1_555 1_555
C14 C13 1_555 1_555
H15 C14 1_555 1_555
C15 C14 1_555 1_555
H16 C15 1_555 1_555
H17 C15 1_555 1_555
C16 C15 1_555 1_555
H18 C16 1_555 1_555
C17 O13 1_555 1_555
C18 C16 1_555 1_555
Tb1 O16 1_555 1_555
O16 H19 1_555 1_555
H20 O16 1_555 1_555
O17 Tb1 1_555 1_555
O18 Tb1 1_555 1_555
H21 O18 1_555 1_555
H22 O18 1_555 1_555
O19 Tb1 1_555 1_555
O20 Tb1 1_555 1_555
O5F U1 1_555 1_555
O3F U1 1_555 1_555
O4F U1 1_555 1_555
C7F C4 1_555 1_555
C3F C5 1_555 1_555
H7F C7F 1_555 1_555
H8F C7F 1_555 1_555
C9F C11 1_555 1_555
H1F C3F 1_555 1_555
C6F C8 1_555 1_555
C1F C3F 1_555 1_555
H10F C9F 1_555 1_555
C12F C9F 1_555 1_555
H5F C6F 1_555 1_555
H6F C6F 1_555 1_555
O3F_2 C1F 1_555 1_555
O4F_2 C1F 1_555 1_555
O6F C10 1_555 1_555
O7F C12F 1_555 1_555
O8F C12F 1_555 1_555
U1_2 O3F_2 1_555 1_555
U2_2 O7 1_555 1_555
U2_3 O7F 1_555 1_555
O7_2 U2 1_555 1_555
O7F_2 U2 1_555 1_555
O8_2 U2 1_555 1_555
O8F_2 U2 1_555 1_555
O13F C17F 1_555 1_555
O14F C17F 1_555 1_555
O15F C18 1_555 1_555
C14F C13 1_555 1_555
H15F C14F 1_555 1_555
C15F C16 1_555 1_555
H16F C15F 1_555 1_555
H17F C15F 1_555 1_555
C17F C14F 1_555 1_555
U3_2 O13F 1_555 1_555
U3A O15 1_555 1_555
O13F_2 U3 1_555 1_555
O14F_2 U3 1_555 1_555
O15A U3 1_555 1_555
O15G U3 1_555 1_555
O14_2 U3_2 1_555 1_555
C13_2 H13_2 1_555 1_555
C15F_2 H17F_2 1_555 1_555
O15F_2 U3A_2 1_555 1_555
U3A_2 O15_2 1_555 1_555
O13_2 U3_2 1_555 1_555
O15G_2 U3_2 1_555 1_555
C15_2 H17_2 1_555 1_555
C14_2 C13_2 1_555 1_555
C17_2 O14_2 1_555 1_555
O12_2 U3_2 1_555 1_555
O14F_3 C17F_2 1_555 1_555
C17F_2 C14F_2 1_555 1_555
C14F_2 C13_2 1_555 1_555
H16_2 C15_2 1_555 1_555
O15A_2 U3_2 1_555 1_555
O15_2 C18_2 1_555 1_555
C18_2 O15F_2 1_555 1_555
C16_2 C15F_2 1_555 1_555
U3_3 O14F_3 1_555 1_555
H16F_2 C15F_2 1_555 1_555
H15_2 C14_2 1_555 1_555
O13F_3 C17F_2 1_555 1_555
H14_2 C13_2 1_555 1_555
O11_2 U3_2 1_555 1_555
H15F_2 C14F_2 1_555 1_555
H18_2 C16_2 1_555 1_555
O18F Tb1 1_555 1_555
H21F O18F 1_555 1_555
H22F O18F 1_555 1_555
O19F Tb1 1_555 1_555
O20F Tb1 1_555 1_555
O4 C1 1_555 1_555
C2 O5F 1_555 1_555
O8 U2_2 1_555 1_555
U2 O6F 1_555 1_555
O14 C17 1_555 1_555
C14 C17 1_555 1_555
C7F C9F 1_555 1_555
C3F C6F 1_555 1_555
O4F_2 U1_2 1_555 1_555
O8F U2_3 1_555 1_555
O14F U3_2 1_555 1_555
O15F U3A 1_555 1_555
C14F C15F 1_555 1_555
C15F_2 C14F_2 1_555 1_555
O13_2 C17_2 1_555 1_555
C15_2 C14_2 1_555 1_555
C15_2 C16_2 1_555 1_555
C14_2 C17_2 1_555 1_555
C18_2 C16_2 1_555 1_555
U3_3 O13F_3 1_555 1_555

#END
