
#######################################################################
#
#                 Cambridge Crystallographic Data Centre
#                                CCDC 
#
#######################################################################
#
# If this CIF has been generated from an entry in the Cambridge 
# Structural Database, then it will include bibliographic, chemical, 
# crystal, experimental, refinement or atomic coordinate data resulting 
# from the CCDC's data processing and validation procedures.
#
#######################################################################

data_RORSIC
_symmetry_cell_setting           monoclinic
_symmetry_space_group_name_H-M   'P 21/c'
_symmetry_Int_Tables_number      14
_space_group_name_Hall           '-P 2ybc'
loop_
_symmetry_equiv_pos_site_id
_symmetry_equiv_pos_as_xyz
1 x,y,z
2 -x,1/2+y,1/2-z
3 -x,-y,-z
4 x,1/2-y,1/2+z
_cell_length_a                   16.9993(6)
_cell_length_b                   7.5278(3)
_cell_length_c                   13.5447(5)
_cell_angle_alpha                90
_cell_angle_beta                 100.0370(10)
_cell_angle_gamma                90
_cell_volume                     1706.75
loop_
_atom_site_label
_atom_site_type_symbol
_atom_site_fract_x
_atom_site_fract_y
_atom_site_fract_z
Zn1 Zn 0.266584(15) 0.26520(3) 0.328336(17)
Cl1 Cl 0.69101(4) 0.33366(12) 0.52408(7)
O1 O 0.36938(10) 0.3126(3) 0.28492(12)
O2 O 0.00985(10) 0.4515(3) 0.36543(13)
N1 N 0.31891(10) 0.1913(2) 0.46609(12)
N2 N 0.14856(10) 0.2288(2) 0.42256(12)
N3 N 0.21345(11) 0.4776(2) 0.25775(13)
N4 N 0.22549(12) 1.0535(2) 0.24439(13)
N5 N 0.18286(16) 0.7631(2) 0.17772(17)
C1 C 0.43925(14) 0.3165(3) 0.34108(16)
C2 C 0.50486(16) 0.3880(4) 0.3022(2)
H1 H 0.4960 0.4346 0.2376
C3 C 0.58066(16) 0.3909(4) 0.3564(2)
H2 H 0.6226 0.4368 0.3284
C4 C 0.59452(13) 0.3246(3) 0.4539(2)
C5 C 0.53391(14) 0.2609(3) 0.4967(2)
H3 H 0.5442 0.2201 0.5625
C6 C 0.45500(12) 0.2559(3) 0.44199(17)
C7 C 0.39463(12) 0.1966(3) 0.49649(16)
H4 H 0.4126 0.1574 0.5616
C8 C 0.26958(12) 0.1326(4) 0.53900(15)
H5 H 0.2657 0.2274 0.5865
H6 H 0.2944 0.0309 0.5759
C9 C 0.18695(12) 0.0830(3) 0.48531(16)
H7 H 0.1907 -0.0203 0.4435
H8 H 0.1541 0.0513 0.5344
C10 C 0.07342(12) 0.1639(3) 0.36288(17)
H9 H 0.0403 0.1129 0.4072
H10 H 0.0850 0.0714 0.3177
C11 C 0.02875(14) 0.3124(4) 0.30319(19)
H11 H 0.0610 0.3593 0.2568
H12 H -0.0202 0.2658 0.2642
C12 C 0.08117(14) 0.5191(4) 0.42382(19)
H13 H 0.0676 0.6114 0.4679
H14 H 0.1137 0.5723 0.3796
C13 C 0.12860(13) 0.3775(3) 0.48553(16)
H15 H 0.1776 0.4288 0.5218
H16 H 0.0981 0.3322 0.5343
C14 C 0.20238(11) 0.6151(3) 0.22399(14)
C15 C 0.20762(12) 0.9134(3) 0.21713(14)
Zn1_2 Zn 0.266584(15) 1.26520(3) 0.328336(17)
N4_2 N 0.22549(12) 0.0535(2) 0.24439(13)
loop_
_geom_bond_atom_site_label_1
_geom_bond_atom_site_label_2
_geom_bond_site_symmetry_1
_geom_bond_site_symmetry_2
Zn1 O1 1_555 1_555
Cl1 C4 1_555 1_555
O1 C1 1_555 1_555
O2 C11 1_555 1_555
N1 Zn1 1_555 1_555
N2 Zn1 1_555 1_555
N3 Zn1 1_555 1_555
N4 C15 1_555 1_555
N5 C14 1_555 1_555
C1 C2 1_555 1_555
C2 H1 1_555 1_555
C3 C2 1_555 1_555
H2 C3 1_555 1_555
C4 C3 1_555 1_555
C5 C4 1_555 1_555
H3 C5 1_555 1_555
C6 C1 1_555 1_555
C7 N1 1_555 1_555
H4 C7 1_555 1_555
C8 N1 1_555 1_555
H5 C8 1_555 1_555
H6 C8 1_555 1_555
C9 N2 1_555 1_555
H7 C9 1_555 1_555
H8 C9 1_555 1_555
C10 N2 1_555 1_555
H9 C10 1_555 1_555
H10 C10 1_555 1_555
C11 C10 1_555 1_555
H11 C11 1_555 1_555
H12 C11 1_555 1_555
C12 O2 1_555 1_555
H13 C12 1_555 1_555
H14 C12 1_555 1_555
C13 N2 1_555 1_555
H15 C13 1_555 1_555
H16 C13 1_555 1_555
C14 N3 1_555 1_555
C15 N5 1_555 1_555
Zn1_2 N4 1_555 1_555
N4_2 Zn1 1_555 1_555
C5 C6 1_555 1_555
C6 C7 1_555 1_555
C8 C9 1_555 1_555
C12 C13 1_555 1_555

#END
