
#######################################################################
#
#                 Cambridge Crystallographic Data Centre
#                                CCDC 
#
#######################################################################
#
# If this CIF has been generated from an entry in the Cambridge 
# Structural Database, then it will include bibliographic, chemical, 
# crystal, experimental, refinement or atomic coordinate data resulting 
# from the CCDC's data processing and validation procedures.
#
#######################################################################

data_RORTUN
_symmetry_cell_setting           triclinic
_symmetry_space_group_name_H-M   'P -1'
_symmetry_Int_Tables_number      2
_space_group_name_Hall           '-P 1'
loop_
_symmetry_equiv_pos_site_id
_symmetry_equiv_pos_as_xyz
1 x,y,z
2 -x,-y,-z
_cell_length_a                   11.499(3)
_cell_length_b                   12.958(2)
_cell_length_c                   14.572(4)
_cell_angle_alpha                71.39(2)
_cell_angle_beta                 84.31(3)
_cell_angle_gamma                76.89(2)
_cell_volume                     2003.28
loop_
_atom_site_label
_atom_site_type_symbol
_atom_site_fract_x
_atom_site_fract_y
_atom_site_fract_z
Br1 Br 0.2928(8) 0.5882(7) 0.7441(5)
Br2 Br 0.6312(8) 0.4838(7) 0.7409(5)
Cu1 Cu 0.4732(9) 0.5446(8) 0.8456(6)
Cu2 Cu 0.4604(9) 0.5437(8) 0.6344(5)
S1 S 0.419(2) 0.382(2) 0.966(1)
S2 S 0.439(2) 0.191(2) 1.176(1)
S3 S 0.683(2) 0.229(2) 1.063(2)
S4 S 0.416(2) 0.380(2) 0.616(1)
S5 S 0.491(2) 0.177(2) 0.527(1)
S6 S 0.701(2) 0.295(2) 0.573(1)
P1 P 0.517(2) 0.321(2) 1.095(1)
P2 P 0.539(2) 0.330(2) 0.510(1)
C1 C 0.461(6) 0.264(6) 0.911(5)
C2 C 0.3556 0.2209 0.9090
C3 C 0.3620 0.1253 0.8660
C4 C 0.2659 0.0847 0.8619
C5 C 0.293(7) 0.270(6) 1.207(5)
C6 C 0.199(9) 0.224(8) 1.291(7)
C7 C 0.098(9) 0.269(8) 1.339(7)
C8 C 0.0185 0.2277 1.3851
C9 C 0.782(8) 0.340(8) 0.996(7)
C10 C 0.894(7) 0.314(7) 0.974(6)
C11 C 0.9489 0.4201 0.9235
C12 C 1.0749 0.3528 0.9365
C13 C 0.273(6) 0.421(6) 0.538(5)
C14 C 0.2066 0.3455 0.6070
C15 C 0.0942 0.3748 0.6559
C16 C 0.0071 0.3175 0.6917
C17 C 0.565(6) 0.140(6) 0.423(5)
C18 C 0.6979 0.0637 0.4444
C19 C 0.8023 0.0118 0.3765
C20 C 0.9131 0.0456 0.3420
C21 C 0.682(6) 0.194(6) 0.695(5)
C22 C 0.801(5) 0.139(5) 0.730(4)
C23 C 0.812(6) 0.055(6) 0.835(5)
C24 C 0.9072 -0.0021 0.8696
P1A P 0.483(2) 0.679(2) 0.905(1)
P2A P 0.461(2) 0.670(2) 0.490(1)
Cu1A Cu 0.5268(9) 0.4554(8) 1.1544(6)
Cu2A Cu 0.5396(9) 0.4563(8) 0.3656(5)
loop_
_geom_bond_atom_site_label_1
_geom_bond_atom_site_label_2
_geom_bond_site_symmetry_1
_geom_bond_site_symmetry_2
Br1 Cu1 1_555 1_555
Br2 Cu1 1_555 1_555
Cu1 S1 1_555 1_555
Cu2 Br1 1_555 1_555
S1 P1 1_555 1_555
S2 P1 1_555 1_555
S3 P1 1_555 1_555
S4 Cu2 1_555 1_555
S5 P2 1_555 1_555
S6 P2 1_555 1_555
P1 Cu1A 1_555 1_555
P2 S4 1_555 1_555
C1 S1 1_555 1_555
C2 C1 1_555 1_555
C3 C2 1_555 1_555
C4 C3 1_555 1_555
C5 S2 1_555 1_555
C6 C5 1_555 1_555
C7 C6 1_555 1_555
C8 C7 1_555 1_555
C9 S3 1_555 1_555
C10 C9 1_555 1_555
C11 C10 1_555 1_555
C12 C11 1_555 1_555
C13 S4 1_555 1_555
C14 C13 1_555 1_555
C15 C14 1_555 1_555
C16 C15 1_555 1_555
C17 S5 1_555 1_555
C18 C17 1_555 1_555
C19 C18 1_555 1_555
C20 C19 1_555 1_555
C21 S6 1_555 1_555
C22 C21 1_555 1_555
C23 C22 1_555 1_555
C24 C23 1_555 1_555
P1A Cu1 1_555 1_555
P2A Cu2 1_555 1_555
Cu2A P2 1_555 1_555
Br2 Cu2 1_555 1_555

#END
