
#######################################################################
#
#                 Cambridge Crystallographic Data Centre
#                                CCDC 
#
#######################################################################
#
# If this CIF has been generated from an entry in the Cambridge 
# Structural Database, then it will include bibliographic, chemical, 
# crystal, experimental, refinement or atomic coordinate data resulting 
# from the CCDC's data processing and validation procedures.
#
#######################################################################

data_RORVAX
_symmetry_cell_setting           trigonal
_symmetry_space_group_name_H-M   'P 32 2 1'
_symmetry_Int_Tables_number      154
_space_group_name_Hall           'P 32 2"'
loop_
_symmetry_equiv_pos_site_id
_symmetry_equiv_pos_as_xyz
1 x,y,z
2 -y,x-y,2/3+z
3 -x+y,-x,1/3+z
4 x-y,-y,1/3-z
5 -x,-x+y,2/3-z
6 y,x,-z
_cell_length_a                   17.3720(4)
_cell_length_b                   17.3720(4)
_cell_length_c                   8.6547(6)
_cell_angle_alpha                90
_cell_angle_beta                 90
_cell_angle_gamma                120
_cell_volume                     2261.95
loop_
_atom_site_label
_atom_site_type_symbol
_atom_site_fract_x
_atom_site_fract_y
_atom_site_fract_z
Co1 Co 0.46969(3) 0.46969(3) 0.0000
O1 O 0.57181(13) 0.91800(13) -0.2409(3)
O2 O 0.51970(12) 0.59706(12) 0.1026(2)
O3 O 0.44321(13) 0.81329(12) -0.1381(3)
H1 H 0.4249 0.8465 -0.1724
C1 C 0.57093(19) 0.79672(18) -0.1187(4)
C2 C 0.65440(19) 0.70142(19) -0.0256(4)
O4 O 0.43408(15) 0.51589(16) -0.2008(3)
C3 C 0.52474(18) 0.71945(18) -0.0314(4)
H2 H 0.4647 0.6990 -0.0036
C4 C 0.56511(19) 0.67215(16) 0.0154(4)
C5 C 0.65925(19) 0.82721(19) -0.1576(5)
H3 H 0.6919 0.8804 -0.2154
C6 C 0.52634(18) 0.84698(18) -0.1711(4)
N1 N 0.4669(2) 0.6167(2) -0.3948(4)
C7 C 0.4879(3) 0.5721(3) -0.2968(5)
H4 H 0.5471 0.5829 -0.2981
C8 C 0.6987(2) 0.7793(2) -0.1112(5)
H5 H 0.7589 0.8004 -0.1391
C9 C 0.3807(3) 0.6085(3) -0.3927(6)
H6 H 0.3466 0.5712 -0.3052
H7 H 0.3496 0.5811 -0.4893
H8 H 0.3870 0.6675 -0.3821
C10 C 0.5327(3) 0.6825(3) -0.4958(5)
H9 H 0.5904 0.6869 -0.4766
H10 H 0.5374 0.7402 -0.4761
H11 H 0.5153 0.6652 -0.6035
O1E O 0.91800(13) 0.57181(13) 0.2409(3)
O2E O 0.59706(12) 0.51970(12) -0.1026(2)
O3E O 0.81329(12) 0.44321(13) 0.1381(3)
H1E H 0.8465 0.4249 0.1724
C1E C 0.79672(18) 0.57093(19) 0.1187(4)
C2E C 0.70142(19) 0.65440(19) 0.0256(4)
C3E C 0.71945(18) 0.52474(18) 0.0314(4)
H2E H 0.6990 0.4647 0.0036
C4E C 0.67215(16) 0.56511(19) -0.0154(4)
C5E C 0.82721(19) 0.65925(19) 0.1576(5)
H3E H 0.8804 0.6919 0.2154
C6E C 0.84698(18) 0.52634(18) 0.1711(4)
C8E C 0.7793(2) 0.6987(2) 0.1112(5)
H5E H 0.8004 0.7589 0.1391
O4E O 0.51589(16) 0.43408(15) 0.2008(3)
N1E N 0.6167(2) 0.4669(2) 0.3948(4)
C7E C 0.5721(3) 0.4879(3) 0.2968(5)
H4E H 0.5829 0.5471 0.2981
C9E C 0.6085(3) 0.3807(3) 0.3927(6)
H6E H 0.5712 0.3466 0.3052
H7E H 0.5811 0.3496 0.4893
H8E H 0.6675 0.3870 0.3821
C10E C 0.6825(3) 0.5327(3) 0.4958(5)
H9E H 0.6869 0.5904 0.4766
H10E H 0.7402 0.5374 0.4761
H11E H 0.6652 0.5153 0.6035
Co1A Co 0.53031(3) 1.00000(4) -0.3333
Co1B Co 1.00000(4) 0.53031(3) 0.3333
O1B O 0.34619(18) 0.42819(13) 0.0924(3)
O1D O 0.42819(13) 0.34619(18) -0.0924(3)
loop_
_geom_bond_atom_site_label_1
_geom_bond_atom_site_label_2
_geom_bond_site_symmetry_1
_geom_bond_site_symmetry_2
Co1 O2 1_555 1_555
O1 C6 1_555 1_555
O2 C4 1_555 1_555
O3 H1 1_555 1_555
C1 C3 1_555 1_555
C2 C4 1_555 1_555
O4 Co1 1_555 1_555
C3 H2 1_555 1_555
C4 C3 1_555 1_555
C5 C1 1_555 1_555
H3 C5 1_555 1_555
C6 O3 1_555 1_555
N1 C7 1_555 1_555
C7 O4 1_555 1_555
H4 C7 1_555 1_555
C8 C2 1_555 1_555
H5 C8 1_555 1_555
C9 N1 1_555 1_555
H6 C9 1_555 1_555
H7 C9 1_555 1_555
H8 C9 1_555 1_555
C10 N1 1_555 1_555
H9 C10 1_555 1_555
H10 C10 1_555 1_555
H11 C10 1_555 1_555
O1E C6E 1_555 1_555
O2E Co1 1_555 1_555
O3E H1E 1_555 1_555
C1E C3E 1_555 1_555
C2E C2 1_555 1_555
C3E H2E 1_555 1_555
C4E O2E 1_555 1_555
C5E C1E 1_555 1_555
H3E C5E 1_555 1_555
C6E O3E 1_555 1_555
C8E C2E 1_555 1_555
H5E C8E 1_555 1_555
O4E Co1 1_555 1_555
N1E C7E 1_555 1_555
C7E O4E 1_555 1_555
H4E C7E 1_555 1_555
C9E N1E 1_555 1_555
H6E C9E 1_555 1_555
H7E C9E 1_555 1_555
H8E C9E 1_555 1_555
C10E N1E 1_555 1_555
H9E C10E 1_555 1_555
H10E C10E 1_555 1_555
H11E C10E 1_555 1_555
Co1A O1 1_555 1_555
Co1B O1E 1_555 1_555
O1B Co1 1_555 1_555
O1D Co1 1_555 1_555
C1 C6 1_555 1_555
C5 C8 1_555 1_555
C1E C6E 1_555 1_555
C2E C4E 1_555 1_555
C3E C4E 1_555 1_555
C5E C8E 1_555 1_555

#END
