
#######################################################################
#
#                 Cambridge Crystallographic Data Centre
#                                CCDC 
#
#######################################################################
#
# If this CIF has been generated from an entry in the Cambridge 
# Structural Database, then it will include bibliographic, chemical, 
# crystal, experimental, refinement or atomic coordinate data resulting 
# from the CCDC's data processing and validation procedures.
#
#######################################################################

data_RORYIG
_symmetry_cell_setting           monoclinic
_symmetry_space_group_name_H-M   'P 21/a'
_symmetry_Int_Tables_number      14
_space_group_name_Hall           '-P 2yab'
loop_
_symmetry_equiv_pos_site_id
_symmetry_equiv_pos_as_xyz
1 x,y,z
2 1/2+x,1/2-y,z
3 -x,-y,-z
4 1/2-x,1/2+y,-z
_cell_length_a                   7.5211(7)
_cell_length_b                   18.4930(18)
_cell_length_c                   9.5673(9)
_cell_angle_alpha                90
_cell_angle_beta                 108.002(3)
_cell_angle_gamma                90
_cell_volume                     1265.55
loop_
_atom_site_label
_atom_site_type_symbol
_atom_site_fract_x
_atom_site_fract_y
_atom_site_fract_z
Mn1 Mn 0.30683(6) 0.534046(18) 0.19465(4)
O1 O 0.2438(3) 0.41568(9) 0.0862(2)
O2 O 0.3039(3) 0.43072(9) 0.3233(2)
C1 C 0.2734(4) 0.38978(12) 0.2115(3)
C2 C 0.2770(4) 0.30944(11) 0.2346(3)
C3 C 0.3089(4) 0.28220(12) 0.3749(3)
H1 H 0.3236 0.3137 0.4535
C4 C 0.3189(4) 0.20798(13) 0.3989(3)
O3 O 0.3540(4) 0.17871(10) 0.5349(2)
H2 H 0.3499 0.2105 0.5936
C5 C 0.2931(4) 0.16118(12) 0.2809(3)
H3 H 0.2984 0.1115 0.2966
C6 C 0.2596(3) 0.18810(11) 0.1399(3)
C7 C 0.2343(4) 0.13657(12) 0.0144(3)
O4 O 0.2528(3) 0.06948(9) 0.0409(2)
O5 O 0.1974(3) 0.15993(9) -0.1147(2)
C8 C 0.2518(4) 0.26243(12) 0.1163(3)
H4 H 0.2299 0.2807 0.0219
O6 O 0.3965(4) 0.58232(12) 0.4129(3)
H5 H 0.322(5) 0.616(2) 0.440(4)
H6 H 0.463(4) 0.5704(15) 0.477(3)
O7 O 0.5911(4) 0.51996(14) 0.2072(3)
H7 H 0.625(5) 0.499(2) 0.150(4)
H8 H 0.685(5) 0.5335(16) 0.284(4)
O8 O 0.0172(3) 0.55246(15) 0.1799(3)
H9 H -0.0650 0.5786 0.0992
H10 H -0.0096 0.5581 0.2593
O4C O 0.2472(3) 0.56948(9) -0.0409(2)
O5C O 0.3026(3) 0.65993(9) 0.1147(2)
Mn1C Mn 0.19317(6) 0.034046(18) -0.19465(4)
O9 O 0.1270(4) 0.44409(18) 0.5480(3)
H11 H 0.1680 0.4128 0.4844
H12 H 0.1276 0.3969 0.5892
O10 O 0.6497(6) 0.73141(17) 0.2557(3)
H13 H 0.682(7) 0.757(2) 0.203(6)
H14 H 0.557(7) 0.718(3) 0.222(6)
loop_
_geom_bond_atom_site_label_1
_geom_bond_atom_site_label_2
_geom_bond_site_symmetry_1
_geom_bond_site_symmetry_2
Mn1 O1 1_555 1_555
O1 C1 1_555 1_555
O2 Mn1 1_555 1_555
C1 O2 1_555 1_555
C2 C1 1_555 1_555
C3 C2 1_555 1_555
H1 C3 1_555 1_555
C4 C3 1_555 1_555
O3 C4 1_555 1_555
H2 O3 1_555 1_555
C5 C4 1_555 1_555
H3 C5 1_555 1_555
C6 C5 1_555 1_555
C7 C6 1_555 1_555
O4 C7 1_555 1_555
O5 C7 1_555 1_555
C8 C2 1_555 1_555
H4 C8 1_555 1_555
O6 Mn1 1_555 1_555
H5 O6 1_555 1_555
H6 O6 1_555 1_555
O7 Mn1 1_555 1_555
H7 O7 1_555 1_555
H8 O7 1_555 1_555
O8 Mn1 1_555 1_555
H9 O8 1_555 1_555
H10 O8 1_555 1_555
O9 H11 1_555 1_555
H12 O9 1_555 1_555
O10 H13 1_555 1_555
H14 O10 1_555 1_555
O4C Mn1 1_555 1_555
O5C Mn1 1_555 1_555
Mn1C O4 1_555 1_555
C6 C8 1_555 1_555
O5 Mn1C 1_555 1_555

#END
