
#######################################################################
#
#                 Cambridge Crystallographic Data Centre
#                                CCDC 
#
#######################################################################
#
# If this CIF has been generated from an entry in the Cambridge 
# Structural Database, then it will include bibliographic, chemical, 
# crystal, experimental, refinement or atomic coordinate data resulting 
# from the CCDC's data processing and validation procedures.
#
#######################################################################

data_RORYEE
_symmetry_cell_setting           monoclinic
_symmetry_space_group_name_H-M   'P 21/c'
_symmetry_Int_Tables_number      14
_space_group_name_Hall           '-P 2ybc'
loop_
_symmetry_equiv_pos_site_id
_symmetry_equiv_pos_as_xyz
1 x,y,z
2 -x,1/2+y,1/2-z
3 -x,-y,-z
4 x,1/2-y,1/2+z
_cell_length_a                   12.3349(4)
_cell_length_b                   14.6190(5)
_cell_length_c                   13.7257(5)
_cell_angle_alpha                90
_cell_angle_beta                 94.045(3)
_cell_angle_gamma                90
_cell_volume                     2468.91
loop_
_atom_site_label
_atom_site_type_symbol
_atom_site_fract_x
_atom_site_fract_y
_atom_site_fract_z
Ag1 Ag 0.79559(5) 0.47177(4) 0.59703(5)
Ag2 Ag 0.70025(5) 0.38129(4) 0.37726(5)
S1 S 0.91439(16) 0.53934(13) 0.36994(15)
N1 N 0.6018(5) 0.4476(5) 0.6247(4)
O1 O 0.8255(5) 0.5313(4) 0.4325(4)
N2 N 0.8923(5) 0.3591(4) 0.3577(4)
N3 N 0.7500(5) 0.3140(4) 0.6054(4)
N4 N 0.7424(6) 0.2256(4) 0.3673(5)
C1 C 0.6261(8) 0.1968(6) 0.6443(6)
H1 H 0.5568 0.1806 0.6607
C2 C 0.8701(8) 0.1089(6) 0.3305(6)
H2 H 0.9406 0.0934 0.3172
C3 C 0.6504(6) 0.2873(5) 0.6280(5)
C4 C 0.5309(6) 0.5133(5) 0.6323(5)
C5 C 0.8416(6) 0.1990(5) 0.3454(5)
C6 C 0.5689(6) 0.3617(5) 0.6378(5)
C7 C 0.9650(6) 0.4248(5) 0.3580(5)
C8 C 0.9254(7) 0.2736(5) 0.3413(5)
C9 C 0.8242(7) 0.2487(6) 0.5981(6)
H3 H 0.8932 0.2655 0.5815
C10 C 0.8034(8) 0.1567(6) 0.6141(6)
H4 H 0.8582 0.1134 0.6094
C11 C 0.6685(8) 0.1594(6) 0.3728(6)
H5 H 0.5988 0.1767 0.3873
C12 C 0.6871(9) 0.0671(7) 0.3585(7)
H6 H 0.6324 0.0239 0.3640
C13 C 0.4648(6) 0.3450(6) 0.6662(7)
H7 H 0.4427 0.2865 0.6825
C14 C 0.7035(9) 0.1307(6) 0.6363(7)
H8 H 0.6874 0.0694 0.6460
C15 C 0.7900(9) 0.0418(6) 0.3359(6)
H9 H 0.8060 -0.0193 0.3244
N5 N 1.0712(5) 0.4172(5) 0.3438(5)
N6 N 0.4256(5) 0.5041(5) 0.6528(5)
C16 C 1.1020(7) 0.3319(6) 0.3248(6)
H10 H 1.1743 0.3216 0.3131
C17 C 1.0320(7) 0.2578(6) 0.3219(6)
H11 H 1.0561 0.1995 0.3073
C18 C 0.3959(8) 0.4186(7) 0.6693(7)
H12 H 0.3245 0.4079 0.6837
S2 S 0.58051(17) 0.62848(13) 0.62770(16)
O2 O 0.8777(5) 0.5645(5) 0.2712(4)
O3 O 1.0045(5) 0.5932(4) 0.4137(6)
O4 O 0.6704(6) 0.6245(4) 0.5686(6)
O5 O 0.4908(5) 0.6828(5) 0.5855(6)
O6 O 0.6109(6) 0.6474(5) 0.7287(5)
Ag1B Ag 1.20441(5) 0.52823(4) 0.40297(5)
Ag2B Ag 0.29975(5) 0.61871(4) 0.62274(5)
N5B N 0.9288(5) 0.5828(5) 0.6562(5)
N6B N 0.5744(5) 0.4959(5) 0.3472(5)
O3B O 0.9955(5) 0.4068(4) 0.5863(6)
O5B O 0.5092(5) 0.3172(5) 0.4145(6)
loop_
_geom_bond_atom_site_label_1
_geom_bond_atom_site_label_2
_geom_bond_site_symmetry_1
_geom_bond_site_symmetry_2
Ag1 N1 1_555 1_555
Ag2 N2 1_555 1_555
S1 O1 1_555 1_555
N1 C4 1_555 1_555
O1 Ag1 1_555 1_555
N2 C7 1_555 1_555
N3 Ag1 1_555 1_555
N4 Ag2 1_555 1_555
C1 H1 1_555 1_555
C2 H2 1_555 1_555
C3 N3 1_555 1_555
C4 N6 1_555 1_555
C5 N4 1_555 1_555
C6 N1 1_555 1_555
C7 S1 1_555 1_555
C8 N2 1_555 1_555
C9 N3 1_555 1_555
H3 C9 1_555 1_555
C10 C9 1_555 1_555
H4 C10 1_555 1_555
C11 N4 1_555 1_555
H5 C11 1_555 1_555
C12 C11 1_555 1_555
H6 C12 1_555 1_555
C13 C6 1_555 1_555
H7 C13 1_555 1_555
C14 C1 1_555 1_555
H8 C14 1_555 1_555
C15 C2 1_555 1_555
H9 C15 1_555 1_555
N5 C7 1_555 1_555
N6 C18 1_555 1_555
C16 N5 1_555 1_555
H10 C16 1_555 1_555
C17 C8 1_555 1_555
H11 C17 1_555 1_555
C18 C13 1_555 1_555
H12 C18 1_555 1_555
S2 C4 1_555 1_555
O2 S1 1_555 1_555
O3 S1 1_555 1_555
O4 S2 1_555 1_555
O5 S2 1_555 1_555
O6 S2 1_555 1_555
Ag1B N5 1_555 1_555
Ag2B N6 1_555 1_555
N5B Ag1 1_555 1_555
N6B Ag2 1_555 1_555
O3B Ag1 1_555 1_555
O5B Ag2 1_555 1_555
C1 C3 1_555 1_555
C2 C5 1_555 1_555
C3 C6 1_555 1_555
C5 C8 1_555 1_555
C10 C14 1_555 1_555
C12 C15 1_555 1_555
C16 C17 1_555 1_555
O3 Ag1B 1_555 1_555
O5 Ag2B 1_555 1_555

#END
