
#######################################################################
#
#                 Cambridge Crystallographic Data Centre
#                                CCDC 
#
#######################################################################
#
# If this CIF has been generated from an entry in the Cambridge 
# Structural Database, then it will include bibliographic, chemical, 
# crystal, experimental, refinement or atomic coordinate data resulting 
# from the CCDC's data processing and validation procedures.
#
#######################################################################

data_RORYUS
_symmetry_cell_setting           monoclinic
_symmetry_space_group_name_H-M   'P 2/n'
_symmetry_Int_Tables_number      13
_space_group_name_Hall           '-P 2yac'
loop_
_symmetry_equiv_pos_site_id
_symmetry_equiv_pos_as_xyz
1 x,y,z
2 1/2+x,-y,1/2+z
3 -x,-y,-z
4 1/2-x,y,1/2-z
_cell_length_a                   8.2886(3)
_cell_length_b                   10.9165(4)
_cell_length_c                   17.9845(6)
_cell_angle_alpha                90
_cell_angle_beta                 100.382(2)
_cell_angle_gamma                90
_cell_volume                     1600.64
loop_
_atom_site_label
_atom_site_type_symbol
_atom_site_fract_x
_atom_site_fract_y
_atom_site_fract_z
Mn1 Mn 0.53916(7) 0.20340(5) 0.17501(3)
N1 N 0.6128(4) 0.3716(3) 0.1174(2)
C1 C 0.6747(5) 0.3762(5) 0.0543(3)
H1 H 0.6920 0.3021 0.0292
C2 C 0.7115(6) 0.4783(8) 0.0266(3)
H2 H 0.7558 0.4780 -0.0186
C3 C 0.6906(7) 0.5805(7) 0.0579(5)
H3 H 0.7200 0.6541 0.0356
C4 C 0.6324(7) 0.5859(5) 0.1172(4)
H4 H 0.6156 0.6628 0.1394
C5 C 0.5934(5) 0.4800(4) 0.1495(3)
C6 C 0.5262(5) 0.4756(4) 0.2191(2)
N2 N 0.4926(4) 0.3647(3) 0.24516(19)
N3 N 0.4270(5) 0.3817(4) 0.3085(2)
H5 H 0.3950 0.3210 0.3346
C7 C 0.4159(6) 0.4986(6) 0.3271(3)
H6 H 0.3749 0.5295 0.3694
C8 C 0.4797(7) 0.5717(5) 0.2692(4)
H7 H 0.4885 0.6582 0.2654
O1 O 0.0086(3) -0.0671(2) -0.24360(14)
O2 O 0.2230(3) -0.1409(2) -0.16419(14)
C9 C 0.1068(5) -0.0672(3) -0.1798(2)
C10 C 0.0773(4) 0.0239(3) -0.12212(19)
C11 C 0.1948(4) 0.0402(3) -0.05684(19)
H8 H 0.2928 -0.0069 -0.0490
C12 C 0.1672(4) 0.1261(3) -0.00342(18)
C13 C 0.2954(5) 0.1496(4) 0.06564(19)
O3 O 0.4319(3) 0.0940(3) 0.07306(14)
O4 O 0.2684(3) 0.2264(3) 0.11385(14)
C14 C 0.0232(4) 0.1940(4) -0.01426(19)
H9 H 0.0049 0.2521 0.0226
C15 C -0.0940(4) 0.1768(3) -0.0789(2)
O5 O -0.2320(3) 0.2484(3) -0.08723(15)
H10 H -0.3104 0.2114 -0.1141
C16 C -0.0672(4) 0.0924(3) -0.13299(19)
H11 H -0.1473 0.0811 -0.1774
O1A O 0.5086(3) 0.0671(2) 0.25640(14)
Mn1A Mn 0.03916(7) -0.20340(5) -0.32499(3)
Mn1B Mn 0.46084(7) -0.20340(5) -0.17501(3)
O2B O 0.7770(3) 0.1409(2) 0.16419(14)
O6 O 0.4933(4) -0.1291(3) 0.1567(2)
H12 H 0.498(6) -0.092(5) 0.194(3)
H13 H 0.500(9) -0.070(7) 0.120(4)
loop_
_geom_bond_atom_site_label_1
_geom_bond_atom_site_label_2
_geom_bond_site_symmetry_1
_geom_bond_site_symmetry_2
Mn1 N1 1_555 1_555
N1 C1 1_555 1_555
C1 H1 1_555 1_555
C2 C1 1_555 1_555
H2 C2 1_555 1_555
C3 C2 1_555 1_555
H3 C3 1_555 1_555
C4 C3 1_555 1_555
H4 C4 1_555 1_555
C5 N1 1_555 1_555
C6 C5 1_555 1_555
N2 Mn1 1_555 1_555
N3 N2 1_555 1_555
H5 N3 1_555 1_555
C7 N3 1_555 1_555
H6 C7 1_555 1_555
C8 C6 1_555 1_555
H7 C8 1_555 1_555
O1 C9 1_555 1_555
O2 C9 1_555 1_555
C9 C10 1_555 1_555
C10 C11 1_555 1_555
C11 H8 1_555 1_555
C12 C11 1_555 1_555
C13 C12 1_555 1_555
O3 Mn1 1_555 1_555
O4 Mn1 1_555 1_555
C14 C12 1_555 1_555
H9 C14 1_555 1_555
C15 C14 1_555 1_555
O5 C15 1_555 1_555
H10 O5 1_555 1_555
C16 C10 1_555 1_555
H11 C16 1_555 1_555
O6 H12 1_555 1_555
H13 O6 1_555 1_555
O1A Mn1 1_555 1_555
Mn1A O1 1_555 1_555
Mn1B O2 1_555 1_555
O2B Mn1 1_555 1_555
C4 C5 1_555 1_555
C6 N2 1_555 1_555
C7 C8 1_555 1_555
C13 O3 1_555 1_555
C13 O4 1_555 1_555
C15 C16 1_555 1_555

#END
