
#######################################################################
#
#                 Cambridge Crystallographic Data Centre
#                                CCDC 
#
#######################################################################
#
# If this CIF has been generated from an entry in the Cambridge 
# Structural Database, then it will include bibliographic, chemical, 
# crystal, experimental, refinement or atomic coordinate data resulting 
# from the CCDC's data processing and validation procedures.
#
#######################################################################

data_RORYOM
_symmetry_cell_setting           monoclinic
_symmetry_space_group_name_H-M   'P 2/n'
_symmetry_Int_Tables_number      13
_space_group_name_Hall           '-P 2yac'
loop_
_symmetry_equiv_pos_site_id
_symmetry_equiv_pos_as_xyz
1 x,y,z
2 1/2+x,-y,1/2+z
3 -x,-y,-z
4 1/2-x,y,1/2-z
_cell_length_a                   8.5040(2)
_cell_length_b                   11.0319(4)
_cell_length_c                   18.4365(5)
_cell_angle_alpha                90
_cell_angle_beta                 102.8136(17)
_cell_angle_gamma                90
_cell_volume                     1686.55
loop_
_atom_site_label
_atom_site_type_symbol
_atom_site_fract_x
_atom_site_fract_y
_atom_site_fract_z
Mn1 Mn 0.53956(4) 0.20034(3) 0.172301(17)
N1 N 0.5057(2) 0.36534(17) 0.23763(9)
C1 C 0.4436(3) 0.3602(2) 0.29841(12)
H1 H 0.4227 0.2831 0.3172
C2 C 0.4088(3) 0.4633(2) 0.33467(13)
H2 H 0.3653 0.4571 0.3777
C3 C 0.4383(3) 0.5744(3) 0.30734(15)
H3 H 0.4160 0.6463 0.3315
C4 C 0.5004(3) 0.5811(2) 0.24449(14)
H4 H 0.5203 0.6577 0.2248
C5 C 0.5338(3) 0.4753(2) 0.21021(12)
C6 C 0.5993(2) 0.4735(2) 0.14205(12)
C7 C 0.6429(3) 0.5768(2) 0.10844(13)
H5 H 0.6313 0.6546 0.1287
C8 C 0.7033(3) 0.5655(2) 0.04525(14)
H6 H 0.7336 0.6355 0.0216
C9 C 0.7192(3) 0.4523(2) 0.01676(13)
H7 H 0.7612 0.4427 -0.0265
C10 C 0.6731(3) 0.3526(2) 0.05225(12)
H8 H 0.6839 0.2743 0.0326
N2 N 0.6134(2) 0.36234(16) 0.11349(10)
O1 O 0.27861(17) 0.22088(14) 0.10742(8)
O2 O 0.43618(16) 0.08515(14) 0.07230(8)
C11 C 0.3023(2) 0.1420(2) 0.06249(12)
C12 C 0.1741(2) 0.1165(2) -0.00611(11)
C13 C 0.0285(2) 0.1791(2) -0.01629(12)
H9 H 0.0112 0.2348 0.0204
C14 C -0.0914(2) 0.1603(2) -0.08006(12)
C15 C -0.0657(2) 0.0797(2) -0.13401(11)
H10 H -0.1472 0.0674 -0.1778
C16 C 0.0799(2) 0.01677(19) -0.12404(11)
C17 C 0.1998(3) 0.0346(2) -0.05956(11)
H11 H 0.2983 -0.0091 -0.0523
O3 O -0.22870(17) 0.22722(14) -0.08723(8)
H12 H -0.3052 0.1914 -0.1158
C18 C 0.1083(2) -0.0698(2) -0.18254(11)
O4 O 0.22685(17) -0.13953(13) -0.16738(8)
O5 O 0.00833(17) -0.06955(14) -0.24541(8)
Mn1B Mn 0.46044(4) -0.20034(3) -0.172301(17)
O4B O 0.77315(17) 0.13953(13) 0.16738(8)
O5A O 0.50833(17) 0.06955(14) 0.25459(8)
Mn1A Mn 0.03956(4) -0.20034(3) -0.327699(17)
O6 O -0.5028(2) 0.13000(16) -0.16065(10)
H13 H -0.504(3) 0.087(3) -0.1973(16)
H14 H -0.506(3) 0.082(3) -0.1265(16)
loop_
_geom_bond_atom_site_label_1
_geom_bond_atom_site_label_2
_geom_bond_site_symmetry_1
_geom_bond_site_symmetry_2
Mn1 N1 1_555 1_555
N1 C1 1_555 1_555
C1 H1 1_555 1_555
C2 C1 1_555 1_555
H2 C2 1_555 1_555
C3 C2 1_555 1_555
H3 C3 1_555 1_555
C4 C3 1_555 1_555
H4 C4 1_555 1_555
C5 N1 1_555 1_555
C6 C5 1_555 1_555
C7 C6 1_555 1_555
H5 C7 1_555 1_555
C8 C7 1_555 1_555
H6 C8 1_555 1_555
C9 C8 1_555 1_555
H7 C9 1_555 1_555
C10 C9 1_555 1_555
H8 C10 1_555 1_555
N2 Mn1 1_555 1_555
O1 Mn1 1_555 1_555
O2 Mn1 1_555 1_555
C11 O1 1_555 1_555
C12 C11 1_555 1_555
C13 C12 1_555 1_555
H9 C13 1_555 1_555
C14 C13 1_555 1_555
C15 C14 1_555 1_555
H10 C15 1_555 1_555
C16 C15 1_555 1_555
C17 C12 1_555 1_555
H11 C17 1_555 1_555
O3 C14 1_555 1_555
H12 O3 1_555 1_555
C18 C16 1_555 1_555
O4 C18 1_555 1_555
O5 C18 1_555 1_555
O6 H13 1_555 1_555
H14 O6 1_555 1_555
Mn1B O4 1_555 1_555
O4B Mn1 1_555 1_555
O5A Mn1 1_555 1_555
Mn1A O5 1_555 1_555
C4 C5 1_555 1_555
C6 N2 1_555 1_555
C10 N2 1_555 1_555
O2 C11 1_555 1_555
C16 C17 1_555 1_555

#END
