
#######################################################################
#
#                 Cambridge Crystallographic Data Centre
#                                CCDC 
#
#######################################################################
#
# If this CIF has been generated from an entry in the Cambridge 
# Structural Database, then it will include bibliographic, chemical, 
# crystal, experimental, refinement or atomic coordinate data resulting 
# from the CCDC's data processing and validation procedures.
#
#######################################################################

data_RORZAZ
_symmetry_cell_setting           triclinic
_symmetry_space_group_name_H-M   'P -1'
_symmetry_Int_Tables_number      2
_space_group_name_Hall           '-P 1'
loop_
_symmetry_equiv_pos_site_id
_symmetry_equiv_pos_as_xyz
1 x,y,z
2 -x,-y,-z
_cell_length_a                   8.5027(4)
_cell_length_b                   10.1489(5)
_cell_length_c                   10.7619(5)
_cell_angle_alpha                85.3720(10)
_cell_angle_beta                 67.2540(10)
_cell_angle_gamma                69.2670(10)
_cell_volume                     799.287
loop_
_atom_site_label
_atom_site_type_symbol
_atom_site_fract_x
_atom_site_fract_y
_atom_site_fract_z
Zn1 Zn 0.13534(3) -0.00658(2) -0.202109(19)
N1 N 0.2273(3) 0.05512(18) -0.40759(16)
C1 C 0.2667(4) 0.1720(3) -0.4466(3)
H1 H 0.2694 0.2275 -0.3833
C2 C 0.3033(5) 0.2132(3) -0.5765(3)
H2 H 0.3363 0.2924 -0.6017
C3 C 0.2904(4) 0.1353(3) -0.6686(2)
H3 H 0.3086 0.1640 -0.7558
C4 C 0.2502(3) 0.0149(3) -0.6305(2)
H4 H 0.2392 -0.0386 -0.6908
C5 C 0.2264(3) -0.0252(2) -0.50024(18)
C6 C 0.2010(3) -0.1603(2) -0.45441(19)
C7 C 0.2119(4) -0.2601(3) -0.5413(2)
H5 H 0.2345 -0.2438 -0.6318
C8 C 0.1886(5) -0.3840(3) -0.4902(3)
H6 H 0.1927 -0.4517 -0.5458
C9 C 0.1592(5) -0.4069(3) -0.3565(3)
H7 H 0.1454 -0.4906 -0.3210
C10 C 0.1507(4) -0.3027(2) -0.2757(2)
H8 H 0.1305 -0.3176 -0.1853
N2 N 0.1704(2) -0.18143(17) -0.32369(16)
O1 O 0.16685(18) -0.15206(13) -0.06131(13)
C11 C 0.2288(2) -0.14888(17) 0.02655(18)
O2 O 0.13264(17) -0.08591(14) 0.14307(13)
C12 C 0.4254(2) -0.22828(17) -0.00266(17)
C13 C 0.5161(2) -0.35179(18) -0.08651(17)
H9 H 0.4571 -0.3803 -0.1304
C14 C 0.6948(2) -0.43251(18) -0.10464(17)
O3 O 0.77929(19) -0.55307(14) -0.18755(15)
H10 H 0.8766 -0.5980 -0.1808
C15 C 0.7830(2) -0.38951(18) -0.03834(18)
H11 H 0.9007 -0.4454 -0.0473
C16 C 0.6947(2) -0.26330(17) 0.04086(17)
C17 C 0.5169(2) -0.18199(18) 0.05743(17)
H12 H 0.4589 -0.0965 0.1087
C18 C 0.7902(2) -0.21768(18) 0.11282(18)
O4 O 0.9138(2) -0.30951(15) 0.13802(16)
O5 O 0.73058(18) -0.08609(13) 0.14560(14)
O2A O -0.13264(17) 0.08591(14) -0.14307(13)
O5A O 0.26942(18) 0.08609(13) -0.14560(14)
Zn1A Zn -0.13534(3) 0.00658(2) 0.202109(19)
Zn1A_2 Zn 0.86466(3) 0.00658(2) 0.202109(19)
loop_
_geom_bond_atom_site_label_1
_geom_bond_atom_site_label_2
_geom_bond_site_symmetry_1
_geom_bond_site_symmetry_2
Zn1 N1 1_555 1_555
N1 C1 1_555 1_555
C1 H1 1_555 1_555
C2 C1 1_555 1_555
H2 C2 1_555 1_555
C3 C2 1_555 1_555
H3 C3 1_555 1_555
C4 C3 1_555 1_555
H4 C4 1_555 1_555
C5 N1 1_555 1_555
C6 C5 1_555 1_555
C7 C6 1_555 1_555
H5 C7 1_555 1_555
C8 C7 1_555 1_555
H6 C8 1_555 1_555
C9 C8 1_555 1_555
H7 C9 1_555 1_555
C10 C9 1_555 1_555
H8 C10 1_555 1_555
N2 Zn1 1_555 1_555
O1 Zn1 1_555 1_555
C11 O1 1_555 1_555
O2 C11 1_555 1_555
C12 C11 1_555 1_555
C13 C12 1_555 1_555
H9 C13 1_555 1_555
C14 C13 1_555 1_555
O3 C14 1_555 1_555
H10 O3 1_555 1_555
C15 C14 1_555 1_555
H11 C15 1_555 1_555
C16 C15 1_555 1_555
C17 C12 1_555 1_555
H12 C17 1_555 1_555
C18 C16 1_555 1_555
O4 C18 1_555 1_555
O5 C18 1_555 1_555
O2A Zn1 1_555 1_555
O5A Zn1 1_555 1_555
Zn1A O2 1_555 1_555
Zn1A_2 O5 1_555 1_555
C4 C5 1_555 1_555
C6 N2 1_555 1_555
C10 N2 1_555 1_555
C16 C17 1_555 1_555

#END
