
#######################################################################
#
#                 Cambridge Crystallographic Data Centre
#                                CCDC 
#
#######################################################################
#
# If this CIF has been generated from an entry in the Cambridge 
# Structural Database, then it will include bibliographic, chemical, 
# crystal, experimental, refinement or atomic coordinate data resulting 
# from the CCDC's data processing and validation procedures.
#
#######################################################################

data_ROSCAD
_symmetry_cell_setting           monoclinic
_symmetry_space_group_name_H-M   'P 21/c'
_symmetry_Int_Tables_number      14
_space_group_name_Hall           '-P 2ybc'
loop_
_symmetry_equiv_pos_site_id
_symmetry_equiv_pos_as_xyz
1 x,y,z
2 x,1/2-y,1/2+z
3 -x,-y,-z
4 -x,1/2+y,1/2-z
_cell_length_a                   7.7729(16)
_cell_length_b                   19.049(4)
_cell_length_c                   17.865(4)
_cell_angle_alpha                90
_cell_angle_beta                 93.13(3)
_cell_angle_gamma                90
_cell_volume                     2641.25
loop_
_atom_site_label
_atom_site_type_symbol
_atom_site_fract_x
_atom_site_fract_y
_atom_site_fract_z
Cd1 Cd 0.22395(4) 0.721871(14) 0.242806(15)
C1 C 0.1741(5) 0.5546(2) 0.2154(2)
H1 H 0.1144 0.5709 0.1723
C2 C 0.2012(6) 0.4839(3) 0.2231(3)
H2 H 0.1661 0.4535 0.1845
C3 C 0.2813(6) 0.4578(2) 0.2887(3)
H3 H 0.2997 0.4099 0.2949
C4 C 0.3331(5) 0.5047(2) 0.3445(2)
C5 C 0.3091(5) 0.5768(2) 0.3314(2)
H4 H 0.3489 0.6085 0.3680
C6 C 0.4114(5) 0.4792(2) 0.4157(2)
H5 H 0.4227 0.4309 0.4222
C7 C 0.0362(6) 0.7166(2) 0.4023(3)
H6 H 0.0323 0.6688 0.3916
C8 C -0.0358(6) 0.7403(3) 0.4669(3)
H7 H -0.0865 0.7088 0.4988
C9 C -0.0319(6) 0.8106(2) 0.4836(2)
H8 H -0.0810 0.8273 0.5264
C10 C 0.0467(5) 0.8566(2) 0.4354(2)
C11 C 0.1162(5) 0.8286(2) 0.3723(2)
H9 H 0.1693 0.8590 0.3400
C12 C 0.0585(5) 0.9327(2) 0.4473(2)
H10 H 0.1209 0.9596 0.4148
C13 C 0.3699(6) 0.7768(2) 0.0875(3)
H11 H 0.3350 0.8186 0.1090
C14 C 0.4423(7) 0.7799(2) 0.0196(3)
H12 H 0.4562 0.8226 -0.0045
C15 C 0.4945(6) 0.7175(2) -0.0125(3)
H13 H 0.5453 0.7182 -0.0585
C16 C 0.4709(5) 0.6543(2) 0.0238(2)
C17 C 0.5134(6) 0.5869(3) -0.0092(2)
H14 H 0.5701 0.5862 -0.0537
C18 C 0.3966(5) 0.6574(2) 0.0932(2)
H15 H 0.3810 0.6156 0.1188
N1 N 0.2303(4) 0.60159(18) 0.26771(19)
N2 N 0.1111(4) 0.75970(17) 0.35485(18)
N3 N 0.3466(5) 0.71686(17) 0.12494(19)
N4 N 0.4645(5) 0.51862(19) 0.4686(2)
N5 N -0.0137(5) 0.96287(19) 0.5004(2)
N6 N 0.4754(5) 0.5295(2) 0.0210(2)
N7 N 0.5384(5) 0.7890(2) 0.2942(2)
N8 N -0.0916(5) 0.7611(2) 0.1657(2)
O1 O 0.5030(4) 0.72645(16) 0.3107(2)
O2 O 0.6755(5) 0.8160(2) 0.31621(19)
O3 O 0.4277(4) 0.82261(16) 0.25427(17)
O4 O 0.0229(4) 0.80542(17) 0.18350(19)
O5 O -0.2289(5) 0.7793(2) 0.1346(2)
O6 O -0.0578(4) 0.69832(18) 0.1808(2)
N4B N 0.5355(5) 0.48138(19) 0.5314(2)
C6B C 0.5886(5) 0.5208(2) 0.5843(2)
C4B C 0.6669(5) 0.4953(2) 0.6555(2)
C3B C 0.7187(6) 0.5422(2) 0.7113(3)
C2B C 0.7988(6) 0.5161(3) 0.7769(3)
C1B C 0.8259(5) 0.4454(2) 0.7846(2)
H1B H 0.8856 0.4291 0.8277
N1B N 0.7697(4) 0.39841(18) 0.73229(19)
C5B C 0.6909(5) 0.4232(2) 0.6686(2)
H4B H 0.6511 0.3915 0.6320
H2B H 0.8339 0.5465 0.8155
H3B H 0.7003 0.5901 0.7051
H5B H 0.5773 0.5691 0.5778
N5B N 0.0137(5) 1.03713(19) 0.4996(2)
C12B C -0.0585(5) 1.0673(2) 0.5527(2)
C10B C -0.0467(5) 1.1434(2) 0.5646(2)
C9B C 0.0319(6) 1.1894(2) 0.5164(2)
C8B C 0.0358(6) 1.2597(3) 0.5331(3)
C7B C -0.0362(6) 1.2834(2) 0.5977(3)
H6B H -0.0323 1.3312 0.6084
N2B N -0.1111(4) 1.24030(17) 0.64515(18)
C11B C -0.1162(5) 1.1714(2) 0.6277(2)
H9B H -0.1693 1.1410 0.6600
H7B H 0.0865 1.2912 0.5012
H8B H 0.0810 1.1727 0.4736
H10B H -0.1209 1.0404 0.5852
N6B N 0.5246(5) 0.4705(2) -0.0210(2)
C17B C 0.4866(6) 0.4131(3) 0.0092(2)
C16B C 0.5291(5) 0.3457(2) -0.0238(2)
C15B C 0.5055(6) 0.2825(2) 0.0125(3)
C14B C 0.5577(7) 0.2201(2) -0.0196(3)
C13B C 0.6301(6) 0.2232(2) -0.0875(3)
H11B H 0.6650 0.1814 -0.1090
N3B N 0.6534(5) 0.28314(17) -0.12494(19)
C18B C 0.6034(5) 0.3426(2) -0.0932(2)
H15B H 0.6190 0.3844 -0.1188
H12B H 0.5438 0.1774 0.0045
H13B H 0.4547 0.2818 0.0585
H14B H 0.4299 0.4138 0.0537
Cd1B Cd 0.77605(4) 0.278129(14) 0.757194(15)
N7B N 0.4616(5) 0.2110(2) 0.7058(2)
O1B O 0.4970(4) 0.27355(16) 0.6893(2)
O2B O 0.3245(5) 0.1840(2) 0.68379(19)
O3B O 0.5723(4) 0.17739(16) 0.74573(17)
N8B N 1.0916(5) 0.2389(2) 0.8343(2)
O4B O 0.9771(4) 0.19458(17) 0.81650(19)
O5B O 1.2289(5) 0.2207(2) 0.8654(2)
O6B O 1.0578(4) 0.30168(18) 0.8192(2)
Cd1B_2 Cd -0.22395(4) 1.278129(14) 0.757194(15)
Cd1B_3 Cd 0.77605(4) 0.278129(14) -0.242806(15)
N2B_2 N 0.8889(4) 0.24030(17) 0.64515(18)
N3B_2 N 0.6534(5) 0.28314(17) 0.87506(19)
C19 C 0.2979(7) 0.0425(3) 0.2920(3)
H16 H 0.3380 0.0565 0.3397
C20 C 0.2294(7) 0.0723(3) 0.1658(3)
H17 H 0.2252 0.1043 0.1264
C21 C 0.1716(6) 0.0033(3) 0.1538(3)
C22 C 0.1896(7) -0.0417(3) 0.2154(3)
H18 H 0.1562 -0.0883 0.2084
C23 C 0.2514(6) -0.0227(2) 0.2835(2)
H19 H 0.2608 -0.0546 0.3230
C24 C 0.0884(6) -0.0229(3) 0.0834(3)
H20 H 0.0700 -0.0708 0.0773
N9 N 0.0416(6) 0.0184(3) 0.0310(2)
N10 N 0.2928(7) 0.0924(3) 0.2365(4)
N9B N -0.0416(6) -0.0184(3) -0.0310(2)
C24B C -0.0884(6) 0.0229(3) -0.0834(3)
C21B C -0.1716(6) -0.0033(3) -0.1538(3)
C20B C -0.2294(7) -0.0723(3) -0.1658(3)
H17B H -0.2252 -0.1043 -0.1264
N10B N -0.2928(7) -0.0924(3) -0.2365(4)
C19B C -0.2979(7) -0.0425(3) -0.2920(3)
H16B H -0.3380 -0.0565 -0.3397
C23B C -0.2514(6) 0.0227(2) -0.2835(2)
C22B C -0.1896(7) 0.0417(3) -0.2154(3)
H18B H -0.1562 0.0883 -0.2084
H19B H -0.2608 0.0546 -0.3230
H20B H -0.0700 0.0708 -0.0773
loop_
_geom_bond_atom_site_label_1
_geom_bond_atom_site_label_2
_geom_bond_site_symmetry_1
_geom_bond_site_symmetry_2
Cd1 N1 1_555 1_555
C1 H1 1_555 1_555
C2 C1 1_555 1_555
H2 C2 1_555 1_555
C3 C2 1_555 1_555
H3 C3 1_555 1_555
C4 C3 1_555 1_555
C5 C4 1_555 1_555
H4 C5 1_555 1_555
C6 C4 1_555 1_555
H5 C6 1_555 1_555
C7 H6 1_555 1_555
C8 C7 1_555 1_555
H7 C8 1_555 1_555
C9 C8 1_555 1_555
H8 C9 1_555 1_555
C10 C9 1_555 1_555
C11 C10 1_555 1_555
H9 C11 1_555 1_555
C12 C10 1_555 1_555
H10 C12 1_555 1_555
C13 H11 1_555 1_555
C14 C13 1_555 1_555
H12 C14 1_555 1_555
C15 C14 1_555 1_555
H13 C15 1_555 1_555
C16 C15 1_555 1_555
C17 C16 1_555 1_555
H14 C17 1_555 1_555
C18 C16 1_555 1_555
H15 C18 1_555 1_555
C19 H16 1_555 1_555
C20 H17 1_555 1_555
C21 C20 1_555 1_555
C22 C21 1_555 1_555
H18 C22 1_555 1_555
C23 C19 1_555 1_555
H19 C23 1_555 1_555
C24 C21 1_555 1_555
H20 C24 1_555 1_555
N1 C1 1_555 1_555
N2 Cd1 1_555 1_555
N3 Cd1 1_555 1_555
N4 C6 1_555 1_555
N5 C12 1_555 1_555
N6 C17 1_555 1_555
N7 O1 1_555 1_555
N8 O4 1_555 1_555
N9 C24 1_555 1_555
N10 C19 1_555 1_555
O1 Cd1 1_555 1_555
O2 N7 1_555 1_555
O3 Cd1 1_555 1_555
O4 Cd1 1_555 1_555
O5 N8 1_555 1_555
O6 Cd1 1_555 1_555
N4B N4 1_555 1_555
C6B N4B 1_555 1_555
C4B C6B 1_555 1_555
C3B C4B 1_555 1_555
C2B C3B 1_555 1_555
C1B C2B 1_555 1_555
H1B C1B 1_555 1_555
N1B C1B 1_555 1_555
C5B C4B 1_555 1_555
H4B C5B 1_555 1_555
H2B C2B 1_555 1_555
H3B C3B 1_555 1_555
H5B C6B 1_555 1_555
N5B N5 1_555 1_555
C12B N5B 1_555 1_555
C10B C12B 1_555 1_555
C9B C10B 1_555 1_555
C8B C9B 1_555 1_555
C7B C8B 1_555 1_555
H6B C7B 1_555 1_555
N2B C7B 1_555 1_555
C11B C10B 1_555 1_555
H9B C11B 1_555 1_555
H7B C8B 1_555 1_555
H8B C9B 1_555 1_555
H10B C12B 1_555 1_555
N6B N6 1_555 1_555
C17B N6B 1_555 1_555
C16B C17B 1_555 1_555
C15B C16B 1_555 1_555
C14B C15B 1_555 1_555
C13B C14B 1_555 1_555
H11B C13B 1_555 1_555
N3B C13B 1_555 1_555
C18B C16B 1_555 1_555
H15B C18B 1_555 1_555
H12B C14B 1_555 1_555
H13B C15B 1_555 1_555
H14B C17B 1_555 1_555
N9B N9 1_555 1_555
C24B N9B 1_555 1_555
C21B C24B 1_555 1_555
C20B C21B 1_555 1_555
H17B C20B 1_555 1_555
N10B C20B 1_555 1_555
C19B N10B 1_555 1_555
H16B C19B 1_555 1_555
C23B C19B 1_555 1_555
C22B C21B 1_555 1_555
H18B C22B 1_555 1_555
H19B C23B 1_555 1_555
H20B C24B 1_555 1_555
Cd1B N1B 1_555 1_555
N7B O1B 1_555 1_555
O1B Cd1B 1_555 1_555
O2B N7B 1_555 1_555
O3B Cd1B 1_555 1_555
N8B O4B 1_555 1_555
O4B Cd1B 1_555 1_555
O5B N8B 1_555 1_555
O6B Cd1B 1_555 1_555
Cd1B_2 N2B 1_555 1_555
Cd1B_3 N3B 1_555 1_555
N2B_2 Cd1B 1_555 1_555
N3B_2 Cd1B 1_555 1_555
C5 N1 1_555 1_555
C7 N2 1_555 1_555
C11 N2 1_555 1_555
C13 N3 1_555 1_555
C18 N3 1_555 1_555
C20 N10 1_555 1_555
C22 C23 1_555 1_555
N7 O3 1_555 1_555
N8 O6 1_555 1_555
N1B C5B 1_555 1_555
N2B C11B 1_555 1_555
N3B C18B 1_555 1_555
C23B C22B 1_555 1_555
N7B O3B 1_555 1_555
N8B O6B 1_555 1_555

#END
