
#######################################################################
#
#                 Cambridge Crystallographic Data Centre
#                                CCDC 
#
#######################################################################
#
# If this CIF has been generated from an entry in the Cambridge 
# Structural Database, then it will include bibliographic, chemical, 
# crystal, experimental, refinement or atomic coordinate data resulting 
# from the CCDC's data processing and validation procedures.
#
#######################################################################

data_ROSCIL
_symmetry_cell_setting           monoclinic
_symmetry_space_group_name_H-M   'P 21/n'
_symmetry_Int_Tables_number      14
_space_group_name_Hall           '-P 2yn'
loop_
_symmetry_equiv_pos_site_id
_symmetry_equiv_pos_as_xyz
1 x,y,z
2 1/2+x,1/2-y,1/2+z
3 -x,-y,-z
4 1/2-x,1/2+y,1/2-z
_cell_length_a                   8.5802(17)
_cell_length_b                   17.506(4)
_cell_length_c                   10.443(2)
_cell_angle_alpha                90
_cell_angle_beta                 96.59(3)
_cell_angle_gamma                90
_cell_volume                     1558.23
loop_
_atom_site_label
_atom_site_type_symbol
_atom_site_fract_x
_atom_site_fract_y
_atom_site_fract_z
Cd1 Cd 1.0000 0.5000 1.0000
C1 C 1.1873(4) 0.4034(2) 0.8048(4)
H1 H 1.2713 0.4191 0.8632
C2 C 1.2170(4) 0.3608(2) 0.7003(4)
H2 H 1.3195 0.3480 0.6882
C3 C 1.0932(4) 0.3370(2) 0.6129(4)
H3 H 1.1116 0.3077 0.5419
C4 C 0.9414(4) 0.35731(19) 0.6323(3)
C5 C 0.9223(4) 0.4004(2) 0.7412(3)
H4 H 0.8211 0.4140 0.7558
C6 C 0.8018(4) 0.3358(2) 0.5412(3)
C7 C 0.8119(5) 0.2718(3) 0.4479(4)
H5 H 0.7148 0.2441 0.4383
H6 H 0.8959 0.2382 0.4796
H7 H 0.8316 0.2922 0.3659
C8 C 0.5834(5) 0.4668(3) 0.3402(5)
H8 H 0.6680 0.4773 0.4063
H9 H 0.5121 0.5093 0.3325
H10 H 0.6246 0.4590 0.2596
C9 C 0.4985(4) 0.3967(2) 0.3747(3)
C10 C 0.2733(4) 0.4236(2) 0.2057(3)
H11 H 0.3213 0.4699 0.1911
C11 C 0.3488(4) 0.3741(2) 0.2967(3)
C12 C 0.2794(4) 0.3035(2) 0.3128(3)
H12 H 0.3271 0.2684 0.3716
C13 C 0.1388(4) 0.2861(2) 0.2404(4)
H13 H 0.0917 0.2388 0.2487
C14 C 0.0692(4) 0.3398(2) 0.1558(4)
H14 H -0.0270 0.3282 0.1095
N1 N 1.0417(3) 0.42328(16) 0.8261(3)
N2 N 0.6780(3) 0.37556(17) 0.5487(3)
N3 N 0.5439(4) 0.35297(18) 0.4698(3)
N4 N 0.1341(3) 0.40772(17) 0.1377(3)
N5 N 1.3334(4) 0.60595(19) 1.0098(4)
O1 O 1.2440(3) 0.55345(19) 0.9743(4)
O2 O 1.4179(5) 0.6027(3) 1.1113(5)
O3 O 1.3289(9) 0.6632(3) 0.9550(7)
C1B C 0.8127(4) 0.5966(2) 1.1952(4)
H1B H 0.7287 0.5809 1.1368
C2B C 0.7830(4) 0.6392(2) 1.2997(4)
H2B H 0.6805 0.6520 1.3118
C3B C 0.9068(4) 0.6630(2) 1.3871(4)
H3B H 0.8884 0.6923 1.4581
C4B C 1.0586(4) 0.64269(19) 1.3677(3)
C5B C 1.0777(4) 0.5996(2) 1.2588(3)
H4B H 1.1789 0.5860 1.2442
C6B C 1.1982(4) 0.6642(2) 1.4588(3)
C7B C 1.1881(5) 0.7282(3) 1.5521(4)
H5B H 1.2852 0.7559 1.5617
H6B H 1.1041 0.7618 1.5204
H7B H 1.1684 0.7078 1.6341
C8B C 1.4166(5) 0.5332(3) 1.6598(5)
H8B H 1.3320 0.5227 1.5937
H9B H 1.4879 0.4907 1.6675
H10B H 1.3754 0.5410 1.7404
C9B C 1.5015(4) 0.6033(2) 1.6253(3)
C10B C 1.7267(4) 0.5764(2) 1.7943(3)
H11B H 1.6787 0.5301 1.8089
C11B C 1.6512(4) 0.6259(2) 1.7033(3)
C12B C 1.7206(4) 0.6965(2) 1.6872(3)
H12B H 1.6729 0.7316 1.6284
C13B C 1.8612(4) 0.7139(2) 1.7596(4)
H13B H 1.9083 0.7612 1.7513
C14B C 1.9308(4) 0.6602(2) 1.8442(4)
H14B H 2.0270 0.6718 1.8905
N1B N 0.9583(3) 0.57672(16) 1.1739(3)
N2B N 1.3220(3) 0.62444(17) 1.4513(3)
N3B N 1.4561(4) 0.64703(18) 1.5302(3)
N4B N 1.8659(3) 0.59228(17) 1.8623(3)
N5B N 0.6666(4) 0.39405(19) 0.9902(4)
O1B O 0.7560(3) 0.44655(19) 1.0257(4)
O2B O 0.5821(5) 0.3973(3) 0.8887(5)
O3B O 0.6711(9) 0.3368(3) 1.0450(7)
N4_2 N 1.1341(3) 0.40772(17) 1.1377(3)
N4B_2 N 0.8659(3) 0.59228(17) 0.8623(3)
Cd1_2 Cd 0.0000 0.5000 0.0000
Cd1_3 Cd 2.0000 0.5000 2.0000
loop_
_geom_bond_atom_site_label_1
_geom_bond_atom_site_label_2
_geom_bond_site_symmetry_1
_geom_bond_site_symmetry_2
Cd1 N1 1_555 1_555
C1 H1 1_555 1_555
C2 C1 1_555 1_555
H2 C2 1_555 1_555
C3 C2 1_555 1_555
H3 C3 1_555 1_555
C4 C3 1_555 1_555
C5 C4 1_555 1_555
H4 C5 1_555 1_555
C6 C4 1_555 1_555
C7 C6 1_555 1_555
H5 C7 1_555 1_555
H6 C7 1_555 1_555
H7 C7 1_555 1_555
C8 H8 1_555 1_555
H9 C8 1_555 1_555
H10 C8 1_555 1_555
C9 C8 1_555 1_555
C10 H11 1_555 1_555
C11 C9 1_555 1_555
C12 C11 1_555 1_555
H12 C12 1_555 1_555
C13 C12 1_555 1_555
H13 C13 1_555 1_555
C14 C13 1_555 1_555
H14 C14 1_555 1_555
N1 C1 1_555 1_555
N2 C6 1_555 1_555
N3 C9 1_555 1_555
N4 C10 1_555 1_555
N5 O1 1_555 1_555
O1 Cd1 1_555 1_555
O2 N5 1_555 1_555
O3 N5 1_555 1_555
C1B H1B 1_555 1_555
C2B C1B 1_555 1_555
H2B C2B 1_555 1_555
C3B C2B 1_555 1_555
H3B C3B 1_555 1_555
C4B C3B 1_555 1_555
C5B C4B 1_555 1_555
H4B C5B 1_555 1_555
C6B C4B 1_555 1_555
C7B C6B 1_555 1_555
H5B C7B 1_555 1_555
H6B C7B 1_555 1_555
H7B C7B 1_555 1_555
C8B H8B 1_555 1_555
H9B C8B 1_555 1_555
H10B C8B 1_555 1_555
C9B C8B 1_555 1_555
C10B H11B 1_555 1_555
C11B C9B 1_555 1_555
C12B C11B 1_555 1_555
H12B C12B 1_555 1_555
C13B C12B 1_555 1_555
H13B C13B 1_555 1_555
C14B C13B 1_555 1_555
H14B C14B 1_555 1_555
N1B Cd1 1_555 1_555
N2B C6B 1_555 1_555
N3B C9B 1_555 1_555
N4B C10B 1_555 1_555
N5B O1B 1_555 1_555
O1B Cd1 1_555 1_555
O2B N5B 1_555 1_555
O3B N5B 1_555 1_555
N4_2 Cd1 1_555 1_555
N4B_2 Cd1 1_555 1_555
Cd1_2 N4 1_555 1_555
Cd1_3 N4B 1_555 1_555
C5 N1 1_555 1_555
C10 C11 1_555 1_555
C14 N4 1_555 1_555
N2 N3 1_555 1_555
C1B N1B 1_555 1_555
C5B N1B 1_555 1_555
C10B C11B 1_555 1_555
C14B N4B 1_555 1_555
N2B N3B 1_555 1_555

#END
