
#######################################################################
#
#                 Cambridge Crystallographic Data Centre
#                                CCDC 
#
#######################################################################
#
# If this CIF has been generated from an entry in the Cambridge 
# Structural Database, then it will include bibliographic, chemical, 
# crystal, experimental, refinement or atomic coordinate data resulting 
# from the CCDC's data processing and validation procedures.
#
#######################################################################

data_ROSFOW
_symmetry_cell_setting           monoclinic
_symmetry_space_group_name_H-M   'P 21/c'
_symmetry_Int_Tables_number      14
_space_group_name_Hall           '-P 2ybc'
loop_
_symmetry_equiv_pos_site_id
_symmetry_equiv_pos_as_xyz
1 x,y,z
2 -x,1/2+y,1/2-z
3 -x,-y,-z
4 x,1/2-y,1/2+z
_cell_length_a                   4.5401(6)
_cell_length_b                   11.0469(15)
_cell_length_c                   14.585(2)
_cell_angle_alpha                90
_cell_angle_beta                 93.647(2)
_cell_angle_gamma                90
_cell_volume                     730.015
loop_
_atom_site_label
_atom_site_type_symbol
_atom_site_fract_x
_atom_site_fract_y
_atom_site_fract_z
Ag1 Ag 0.49960(5) 0.40949(2) 0.31122(2)
N1 N 0.1715(5) 0.4625(2) 0.19664(16)
N2 N 0.2679(5) 0.7314(2) 0.16463(16)
N3 N 0.7859(5) 0.57565(19) 0.37152(15)
N4 N 0.9747(5) 0.6586(2) 0.34425(16)
N5 N 1.0504(5) 0.7331(2) 0.41391(16)
N6 N 0.9105(5) 0.6989(2) 0.48768(16)
N7 N 0.5750(5) 0.54166(19) 0.51943(14)
C1 C 0.7522(6) 0.6032(2) 0.45928(17)
C2 C 0.2918(7) 0.5157(2) 0.11361(19)
H1 H 0.1279 0.5314 0.0671
H2 H 0.4278 0.4570 0.0872
C3 C 0.4555(6) 0.6328(2) 0.13522(19)
H3 H 0.6116 0.6172 0.1843
H4 H 0.5535 0.6591 0.0799
H5 H 0.068(9) 0.394(3) 0.177(3)
H6 H 0.188(8) 0.709(3) 0.211(3)
H7 H 0.089(10) 0.741(4) 0.127(4)
H8 H 0.054(8) 0.517(3) 0.222(3)
N3B N 0.2141(5) 0.42435(19) 0.62848(15)
N4B N 0.0253(5) 0.3414(2) 0.65575(16)
N5B N -0.0504(5) 0.2669(2) 0.58609(16)
N6B N 0.0895(5) 0.3011(2) 0.51232(16)
N7B N 0.4250(5) 0.45834(19) 0.48057(14)
C1B C 0.2478(6) 0.3968(2) 0.54072(17)
Ag1B Ag 0.50040(5) 0.59051(2) 0.68878(2)
N1B N 0.8285(5) 0.5375(2) 0.80336(16)
N2B N 0.7321(5) 0.2686(2) 0.83537(16)
C2B C 0.7082(7) 0.4843(2) 0.88639(19)
H1B H 0.8721 0.4686 0.9329
H2B H 0.5722 0.5430 0.9128
C3B C 0.5445(6) 0.3672(2) 0.86478(19)
H3B H 0.3884 0.3828 0.8157
H4B H 0.4465 0.3409 0.9201
H5B H 0.932(9) 0.606(3) 0.823(3)
H6B H 0.812(8) 0.291(3) 0.789(3)
H7B H 0.911(10) 0.259(4) 0.873(4)
H8B H 0.946(8) 0.483(3) 0.778(3)
Ag1A Ag 0.50040(5) 0.90949(2) 0.18878(2)
Ag1C Ag 0.49960(5) 0.09051(2) 0.81122(2)
N2A N 0.7321(5) 0.2314(2) 0.33537(16)
N2C N 0.2679(5) 0.7686(2) 0.66463(16)
loop_
_geom_bond_atom_site_label_1
_geom_bond_atom_site_label_2
_geom_bond_site_symmetry_1
_geom_bond_site_symmetry_2
Ag1 N1 1_555 1_555
N1 C2 1_555 1_555
N2 C3 1_555 1_555
N3 Ag1 1_555 1_555
N4 N3 1_555 1_555
N5 N4 1_555 1_555
N6 N5 1_555 1_555
N7 C1 1_555 1_555
C1 N3 1_555 1_555
C2 H1 1_555 1_555
H2 C2 1_555 1_555
C3 C2 1_555 1_555
H3 C3 1_555 1_555
H4 C3 1_555 1_555
H5 N1 1_555 1_555
H6 N2 1_555 1_555
H7 N2 1_555 1_555
H8 N1 1_555 1_555
N3B N4B 1_555 1_555
N4B N5B 1_555 1_555
N5B N6B 1_555 1_555
N6B C1B 1_555 1_555
N7B Ag1 1_555 1_555
C1B N3B 1_555 1_555
Ag1B N7 1_555 1_555
N1B Ag1B 1_555 1_555
N2B C3B 1_555 1_555
C2B N1B 1_555 1_555
H1B C2B 1_555 1_555
H2B C2B 1_555 1_555
C3B C2B 1_555 1_555
H3B C3B 1_555 1_555
H4B C3B 1_555 1_555
H5B N1B 1_555 1_555
H6B N2B 1_555 1_555
H7B N2B 1_555 1_555
H8B N1B 1_555 1_555
Ag1A N2 1_555 1_555
Ag1C N2B 1_555 1_555
N2A Ag1 1_555 1_555
N2C Ag1B 1_555 1_555
N6 C1 1_555 1_555
N7 N7B 1_555 1_555
N3B Ag1B 1_555 1_555
N7B C1B 1_555 1_555

#END
