
#######################################################################
#
#                 Cambridge Crystallographic Data Centre
#                                CCDC 
#
#######################################################################
#
# If this CIF has been generated from an entry in the Cambridge 
# Structural Database, then it will include bibliographic, chemical, 
# crystal, experimental, refinement or atomic coordinate data resulting 
# from the CCDC's data processing and validation procedures.
#
#######################################################################

data_ROSGAJ
_symmetry_cell_setting           monoclinic
_symmetry_space_group_name_H-M   'P 21/c'
_symmetry_Int_Tables_number      14
_space_group_name_Hall           '-P 2ybc'
loop_
_symmetry_equiv_pos_site_id
_symmetry_equiv_pos_as_xyz
1 x,y,z
2 -x,1/2+y,1/2-z
3 -x,-y,-z
4 x,1/2-y,1/2+z
_cell_length_a                   3.4771(8)
_cell_length_b                   10.671(2)
_cell_length_c                   10.220(2)
_cell_angle_alpha                90
_cell_angle_beta                 94.143(4)
_cell_angle_gamma                90
_cell_volume                     378.213
loop_
_atom_site_label
_atom_site_type_symbol
_atom_site_fract_x
_atom_site_fract_y
_atom_site_fract_z
Ag1 Ag 0.71795(15) 0.86844(4) 1.10852(4)
C1 C 0.2342(19) 0.7278(6) 0.8656(6)
N1 N 0.3590(17) 0.8336(5) 0.9250(5)
N2 N 0.2641(18) 0.9250(5) 0.8372(5)
N3 N 0.1013(17) 0.8772(4) 0.7301(5)
N4 N 0.0743(17) 0.7514(4) 0.7451(5)
N5 N 0.2929(18) 0.6108(5) 0.9195(5)
H1 H 0.2232 0.5436 0.8737
H2 H 0.4003 0.6029 0.9997
Ag1B Ag 0.28205(15) 1.13156(4) 0.89148(4)
Ag1C Ag -0.28205(15) 0.63156(4) 0.60852(4)
N2B N 0.7359(18) 1.0750(5) 1.1628(5)
N4C N 1.0743(17) 0.7486(4) 1.2451(5)
loop_
_geom_bond_atom_site_label_1
_geom_bond_atom_site_label_2
_geom_bond_site_symmetry_1
_geom_bond_site_symmetry_2
Ag1 N1 1_555 1_555
C1 N1 1_555 1_555
N1 N2 1_555 1_555
N2 N3 1_555 1_555
N3 N4 1_555 1_555
N4 C1 1_555 1_555
N5 C1 1_555 1_555
H1 N5 1_555 1_555
H2 N5 1_555 1_555
Ag1B N2 1_555 1_555
Ag1C N4 1_555 1_555
N2B Ag1 1_555 1_555
N4C Ag1 1_555 1_555

#END
