
#######################################################################
#
#                 Cambridge Crystallographic Data Centre
#                                CCDC 
#
#######################################################################
#
# If this CIF has been generated from an entry in the Cambridge 
# Structural Database, then it will include bibliographic, chemical, 
# crystal, experimental, refinement or atomic coordinate data resulting 
# from the CCDC's data processing and validation procedures.
#
#######################################################################

data_ROSJUG
_symmetry_cell_setting           orthorhombic
_symmetry_space_group_name_H-M   'F d d 2'
_symmetry_Int_Tables_number      43
_space_group_name_Hall           'F 2 -2d'
loop_
_symmetry_equiv_pos_site_id
_symmetry_equiv_pos_as_xyz
1 x,y,z
2 -x,-y,z
3 1/4-x,1/4+y,1/4+z
4 1/4+x,1/4-y,1/4+z
5 x,1/2+y,1/2+z
6 -x,1/2-y,1/2+z
7 1/4-x,3/4+y,3/4+z
8 1/4+x,3/4-y,3/4+z
9 1/2+x,y,1/2+z
10 1/2-x,-y,1/2+z
11 3/4-x,1/4+y,3/4+z
12 3/4+x,1/4-y,3/4+z
13 1/2+x,1/2+y,z
14 1/2-x,1/2-y,z
15 3/4-x,3/4+y,1/4+z
16 3/4+x,3/4-y,1/4+z
_cell_length_a                   21.57900(10)
_cell_length_b                   25.2880(3)
_cell_length_c                   9.7880(4)
_cell_angle_alpha                90
_cell_angle_beta                 90
_cell_angle_gamma                90
_cell_volume                     5341.21
loop_
_atom_site_label
_atom_site_type_symbol
_atom_site_fract_x
_atom_site_fract_y
_atom_site_fract_z
W1 W 0.75000 0.25000 0.299
C1 C 0.77279(13) 0.30300(12) 0.1329(3)
N1 N 0.78252(11) 0.33058(10) 0.0418(4)
C2 C 0.82583(14) 0.29723(13) 0.3778(4)
N2 N 0.86714(12) 0.32005(12) 0.4236(3)
C3 C 0.78434(14) 0.20457(13) 0.4696(4)
N3 N 0.80014(11) 0.18263(10) 0.5667(3)
C4 C 0.66501(13) 0.28451(13) 0.2199(3)
N4 N 0.61993(12) 0.30153(11) 0.1744(3)
K1 K 0.75000 0.25000 -0.1961(5)
K2 K 0.73827(2) 0.39383(2) -0.20153(17)
N5 N 0.72032(11) 0.44302(10) 0.1570(3)
O1 O 0.70205(9) 0.44487(9) 0.0297(3)
C5 C 0.77832(13) 0.45786(14) 0.1919(3)
H1 H 0.8058 0.4703 0.1233
C6 C 0.79804(12) 0.45522(13) 0.3241(3)
H2 H 0.839 0.4659 0.3464
N6 N 0.75951(12) 0.43735(11) 0.4246(3)
O2 O 0.77891(9) 0.43360(8) 0.5505(3)
C7 C 0.70110(13) 0.42338(12) 0.3893(3)
H3 H 0.6732 0.4116 0.4579
C8 C 0.68175(13) 0.42594(11) 0.2567(3)
H4 H 0.6407 0.4156 0.2341
O3 O 0.67071(10) 0.17478(10) -0.2805(3)
H5 H 0.6303 0.1818 -0.2564
H6 H 0.6682 0.1666 -0.3705
O4 O 0.84502(10) 0.18569(10) -0.1212(3)
H7 H 0.8856 0.1842 -0.1566
H8 H 0.8571 0.1884 -0.0323
C1M C 0.72721(13) 0.19700(12) 0.1329(3)
N1M N 0.71748(11) 0.16942(10) 0.0418(4)
C2M C 0.67417(14) 0.20277(13) 0.3778(4)
N2M N 0.63286(12) 0.17995(12) 0.4236(3)
C3M C 0.71566(14) 0.29543(13) 0.4696(4)
N3M N 0.69986(11) 0.31737(10) 0.5667(3)
C4M C 0.83499(13) 0.21549(13) 0.2199(3)
N4M N 0.88007(12) 0.19847(11) 0.1744(3)
K2M K 0.76173(2) 0.10617(2) -0.20153(17)
N5M N 0.77968(11) 0.05698(10) 0.1570(3)
O1M O 0.79795(9) 0.05513(9) 0.0297(3)
C5M C 0.72168(13) 0.04214(14) 0.1919(3)
H1M H 0.6942 0.0297 0.1233
C6M C 0.70196(12) 0.04478(13) 0.3241(3)
H2M H 0.661 0.0341 0.3464
N6M N 0.74049(12) 0.06265(11) 0.4246(3)
O2M O 0.72109(9) 0.06640(8) 0.5505(3)
C7M C 0.79890(13) 0.07662(12) 0.3893(3)
H3M H 0.8268 0.0884 0.4579
C8M C 0.81825(13) 0.07406(11) 0.2567(3)
H4M H 0.8593 0.0844 0.2341
O3M O 0.82929(10) 0.32522(10) -0.2805(3)
H5M H 0.8697 0.3182 -0.2564
H6M H 0.8318 0.3334 -0.3705
O4M O 0.65498(10) 0.31431(10) -0.1212(3)
H7M H 0.6144 0.3158 -0.1566
H8M H 0.6429 0.3116 -0.0323
N2N N 0.88286(12) 0.07005(12) -0.3264(3)
N2O N 0.61714(12) 0.42995(12) -0.3264(3)
N3_2 N 0.80014(11) 0.18263(10) -0.4333(3)
N3M_2 N 0.69986(11) 0.31737(10) -0.4333(3)
K1_2 K 0.75000 0.25000 0.8039(5)
K2_2 K 0.73827(2) 0.39383(2) 0.79847(17)
K2F K 0.51173(2) 0.14383(2) 0.54847(17)
K2G K 0.98827(2) 0.35617(2) 0.54847(17)
K2M_2 K 0.76173(2) 0.10617(2) 0.79847(17)
O2_2 O 0.77891(9) 0.43360(8) -0.4495(3)
O2M_2 O 0.72109(9) 0.06640(8) -0.4495(3)
loop_
_geom_bond_atom_site_label_1
_geom_bond_atom_site_label_2
_geom_bond_site_symmetry_1
_geom_bond_site_symmetry_2
W1 C1 1_555 1_555
C1 N1 1_555 1_555
N1 K1 1_555 1_555
C2 W1 1_555 1_555
N2 C2 1_555 1_555
C3 W1 1_555 1_555
N3 C3 1_555 1_555
C4 W1 1_555 1_555
N4 C4 1_555 1_555
K1 O3 1_555 1_555
K2 N1 1_555 1_555
N5 O1 1_555 1_555
O1 K2 1_555 1_555
C5 N5 1_555 1_555
H1 C5 1_555 1_555
C6 C5 1_555 1_555
H2 C6 1_555 1_555
N6 C6 1_555 1_555
O2 N6 1_555 1_555
C7 N6 1_555 1_555
H3 C7 1_555 1_555
C8 N5 1_555 1_555
H4 C8 1_555 1_555
O3 H5 1_555 1_555
H6 O3 1_555 1_555
O4 K1 1_555 1_555
H7 O4 1_555 1_555
H8 O4 1_555 1_555
C1M W1 1_555 1_555
N1M K1 1_555 1_555
C2M W1 1_555 1_555
N2M C2M 1_555 1_555
C3M W1 1_555 1_555
N3M C3M 1_555 1_555
C4M W1 1_555 1_555
N4M C4M 1_555 1_555
K2M O3 1_555 1_555
N5M O1M 1_555 1_555
O1M K2M 1_555 1_555
C5M N5M 1_555 1_555
H1M C5M 1_555 1_555
C6M C5M 1_555 1_555
H2M C6M 1_555 1_555
N6M C6M 1_555 1_555
O2M N6M 1_555 1_555
C7M N6M 1_555 1_555
H3M C7M 1_555 1_555
C8M N5M 1_555 1_555
H4M C8M 1_555 1_555
O3M K1 1_555 1_555
H5M O3M 1_555 1_555
H6M O3M 1_555 1_555
O4M K1 1_555 1_555
H7M O4M 1_555 1_555
H8M O4M 1_555 1_555
N2N K2M 1_555 1_555
N2O K2 1_555 1_555
N3_2 K1 1_555 1_555
N3M_2 K1 1_555 1_555
K1_2 N3 1_555 1_555
K2_2 O2 1_555 1_555
K2F N2M 1_555 1_555
K2G N2 1_555 1_555
K2M_2 N3 1_555 1_555
O2_2 K2 1_555 1_555
O2M_2 K2M 1_555 1_555
K2 O3M 1_555 1_555
K2 O4M 1_555 1_555
K2 N3M_2 1_555 1_555
C7 C8 1_555 1_555
O4 K2M 1_555 1_555
C1M N1M 1_555 1_555
N1M K2M 1_555 1_555
N3M K1_2 1_555 1_555
N3M K2_2 1_555 1_555
K2M N3_2 1_555 1_555
O2M K2M_2 1_555 1_555
C7M C8M 1_555 1_555

#END
