
#######################################################################
#
#                 Cambridge Crystallographic Data Centre
#                                CCDC 
#
#######################################################################
#
# If this CIF has been generated from an entry in the Cambridge 
# Structural Database, then it will include bibliographic, chemical, 
# crystal, experimental, refinement or atomic coordinate data resulting 
# from the CCDC's data processing and validation procedures.
#
#######################################################################

data_ROSJOA
_symmetry_cell_setting           triclinic
_symmetry_space_group_name_H-M   'P -1'
_symmetry_Int_Tables_number      2
_space_group_name_Hall           '-P 1'
loop_
_symmetry_equiv_pos_site_id
_symmetry_equiv_pos_as_xyz
1 x,y,z
2 -x,-y,-z
_cell_length_a                   9.550(5)
_cell_length_b                   11.309(5)
_cell_length_c                   16.008(5)
_cell_angle_alpha                85.285(5)
_cell_angle_beta                 88.604(5)
_cell_angle_gamma                65.217(5)
_cell_volume                     1564.24
loop_
_atom_site_label
_atom_site_type_symbol
_atom_site_fract_x
_atom_site_fract_y
_atom_site_fract_z
W1 W 0.871679(11) 0.660967(9) 0.245752(6)
C1 C 0.9182(4) 0.8038(3) 0.3076(2)
N1 N 0.9329(5) 0.8843(3) 0.3406(2)
C2 C 0.6520(4) 0.8276(3) 0.2434(2)
N2 N 0.5380(4) 0.9184(3) 0.2450(2)
C3 C 0.7726(3) 0.6605(3) 0.36879(18)
N3 N 0.7197(3) 0.6648(3) 0.43446(17)
C4 C 0.8971(5) 0.7929(3) 0.1481(2)
N4 N 0.9083(8) 0.8648(4) 0.0962(3)
C5 C 0.7420(4) 0.6437(3) 0.1427(2)
N5 N 0.6766(4) 0.6337(3) 0.0863(2)
C6 C 1.0490(3) 0.5441(3) 0.16338(18)
N6 N 1.1429(3) 0.4842(3) 0.1185(2)
C7 C 0.8605(4) 0.4742(3) 0.26805(18)
N7 N 0.8536(4) 0.3765(3) 0.2820(2)
C8 C 1.0730(3) 0.5459(3) 0.32455(19)
N8 N 1.1775(4) 0.4793(3) 0.36550(19)
Na1 Na 0.60599(14) 0.58400(12) -0.04692(7)
Na2 Na 0.61106(16) 0.73857(14) 0.57160(9)
Na3 Na 0.68046(17) 0.95235(14) 0.67840(9)
N9 N 0.7775(3) 0.2985(2) 0.06634(15)
O1 O 0.6626(3) 0.3612(2) 0.01369(15)
C9 C 0.7696(4) 0.2106(3) 0.1267(2)
H1 H 0.6793 0.1986 0.1331
C10 C 0.8932(4) 0.1394(3) 0.1782(2)
H2 H 0.887 0.0784 0.219
N10 N 1.0245(3) 0.1570(3) 0.17018(17)
O2 O 1.1438(3) 0.0853(3) 0.21726(18)
C11 C 1.0307(4) 0.2479(3) 0.1124(2)
H3 H 1.1194 0.2627 0.1079
C12 C 0.9077(4) 0.3186(3) 0.0605(2)
H4 H 0.9133 0.3812 0.0207
N11 N 0.9408(3) 0.8137(2) 0.55229(16)
O3 O 0.7897(3) 0.8552(2) 0.55711(15)
C13 C 1.0282(4) 0.6975(3) 0.5218(2)
H5 H 0.9813 0.6475 0.5024
C14 C 1.1851(4) 0.6530(3) 0.51916(19)
H6 H 1.2439 0.5733 0.4976
N12 N 1.2559(3) 0.7234(2) 0.54756(15)
O4 O 1.4058(3) 0.6767(2) 0.54896(15)
C15 C 1.1680(4) 0.8413(3) 0.5758(2)
H7 H 1.2149 0.8923 0.5938
C16 C 1.0106(4) 0.8866(3) 0.5782(2)
H8 H 0.9515 0.9679 0.5978
N13 N 0.6688(3) 0.2410(3) -0.31871(17)
O5 O 0.7106(3) 0.1432(3) -0.36542(17)
C17 C 0.5723(4) 0.3630(3) -0.34980(19)
H9 H 0.5373 0.3764 -0.405
C18 C 0.5263(4) 0.4657(3) -0.3015(2)
H10 H 0.4601 0.5485 -0.3241
N14 N 0.5755(3) 0.4493(3) -0.22073(17)
O6 O 0.5315(3) 0.5481(3) -0.17574(18)
C19 C 0.6715(4) 0.3278(3) -0.1892(2)
H11 H 0.7055 0.3143 -0.1338
C20 C 0.7188(4) 0.2245(3) -0.2385(2)
H12 H 0.7862 0.1419 -0.2164
N15 N 0.5322(3) 0.9003(2) -0.05103(16)
O7 O 0.5630(3) 0.8049(2) -0.09910(16)
C21 C 0.5957(4) 0.9863(3) -0.06588(19)
H13 H 0.6619 0.9776 -0.1108
C22 C 0.4367(4) 0.9138(3) 0.0153(2)
H14 H 0.393 0.8546 0.0265
O8 O 0.4305(3) 0.9742(3) 0.58050(19)
H15 H 0.3858 1.0048 0.6248
H16 H 0.3715 1.0241 0.5426
O9 O 0.6262(5) 0.7659(3) 0.7239(2)
H17 H 0.5327 0.781 0.7217
H18 H 0.6429 0.7655 0.7755
N15A N 0.4678(3) 1.0997(2) 0.05103(16)
O7A O 0.4370(3) 1.1951(2) 0.09910(16)
C21A C 0.4043(4) 1.0137(3) 0.06588(19)
H13A H 0.3381 1.0224 0.1108
C22A C 0.5633(4) 1.0862(3) -0.0153(2)
H14A H 0.607 1.1454 -0.0265
W1A W 0.128321(11) 0.339033(9) -0.245752(6)
C1A C 0.0818(4) 0.1962(3) -0.3076(2)
N1A N 0.0671(5) 0.1157(3) -0.3406(2)
C2A C 0.3480(4) 0.1724(3) -0.2434(2)
N2A N 0.4620(4) 0.0816(3) -0.2450(2)
C3A C 0.2274(3) 0.3395(3) -0.36879(18)
N3A N 0.2803(3) 0.3352(3) -0.43446(17)
C4A C 0.1029(5) 0.2071(3) -0.1481(2)
N4A N 0.0917(8) 0.1352(4) -0.0962(3)
C5A C 0.2580(4) 0.3563(3) -0.1427(2)
N5A N 0.3234(4) 0.3663(3) -0.0863(2)
C6A C -0.0490(3) 0.4559(3) -0.16338(18)
N6A N -0.1429(3) 0.5158(3) -0.1185(2)
C7A C 0.1395(4) 0.5258(3) -0.26805(18)
N7A N 0.1464(4) 0.6235(3) -0.2820(2)
C8A C -0.0730(3) 0.4541(3) -0.32455(19)
N8A N -0.1775(4) 0.5207(3) -0.36550(19)
Na1A Na 0.39401(14) 0.41600(12) 0.04692(7)
Na2A Na 0.38894(16) 0.26143(14) -0.57160(9)
Na3A Na 0.31954(17) 0.04765(14) -0.67840(9)
N9A N 0.2225(3) 0.7015(2) -0.06634(15)
O1A O 0.3374(3) 0.6388(2) -0.01369(15)
C9A C 0.2304(4) 0.7894(3) -0.1267(2)
H1A H 0.3207 0.8014 -0.1331
C10A C 0.1068(4) 0.8606(3) -0.1782(2)
H2A H 0.113 0.9216 -0.219
N10A N -0.0245(3) 0.8430(3) -0.17018(17)
O2A O -0.1438(3) 0.9147(3) -0.21726(18)
C11A C -0.0307(4) 0.7521(3) -0.1124(2)
H3A H -0.1194 0.7373 -0.1079
C12A C 0.0923(4) 0.6814(3) -0.0605(2)
H4A H 0.0867 0.6188 -0.0207
N11A N 0.0592(3) 0.1863(2) -0.55229(16)
O3A O 0.2103(3) 0.1448(2) -0.55711(15)
C13A C -0.0282(4) 0.3025(3) -0.5218(2)
H5A H 0.0187 0.3525 -0.5024
C14A C -0.1851(4) 0.3470(3) -0.51916(19)
H6A H -0.2439 0.4267 -0.4976
N12A N -0.2559(3) 0.2766(2) -0.54756(15)
O4A O -0.4058(3) 0.3233(2) -0.54896(15)
C15A C -0.1680(4) 0.1587(3) -0.5758(2)
H7A H -0.2149 0.1077 -0.5938
C16A C -0.0106(4) 0.1134(3) -0.5782(2)
H8A H 0.0485 0.0321 -0.5978
N13A N 0.3312(3) 0.7590(3) 0.31871(17)
O5A O 0.2894(3) 0.8568(3) 0.36542(17)
C17A C 0.4277(4) 0.6370(3) 0.34980(19)
H9A H 0.4627 0.6236 0.405
C18A C 0.4737(4) 0.5343(3) 0.3015(2)
H10A H 0.5399 0.4515 0.3241
N14A N 0.4245(3) 0.5507(3) 0.22073(17)
O6A O 0.4685(3) 0.4519(3) 0.17574(18)
C19A C 0.3285(4) 0.6722(3) 0.1892(2)
H11A H 0.2945 0.6857 0.1338
C20A C 0.2812(4) 0.7755(3) 0.2385(2)
H12A H 0.2138 0.8581 0.2164
O8A O 0.5695(3) 0.0258(3) -0.58050(19)
H15A H 0.6142 -0.0048 -0.6248
H16A H 0.6285 -0.0241 -0.5426
O9A O 0.3738(5) 0.2341(3) -0.7239(2)
H17A H 0.4673 0.219 -0.7217
H18A H 0.3571 0.2345 -0.7755
N2_2 N 0.5380(4) -0.0816(3) -0.7550(2)
N2A_2 N 0.4620(4) 1.0816(3) 0.7550(2)
N6_2 N 0.1429(3) 0.4842(3) 0.1185(2)
N6A_2 N 0.8571(3) 0.5158(3) -0.1185(2)
N8_2 N 0.1775(4) 0.4793(3) -0.63450(19)
N8A_2 N 0.8225(4) 0.5207(3) 0.63450(19)
Na1_2 Na -0.39401(14) 0.58400(12) -0.04692(7)
Na1A_2 Na 0.39401(14) 1.41600(12) 0.04692(7)
Na1A_3 Na 1.39401(14) 0.41600(12) 0.04692(7)
Na2_2 Na -0.38894(16) 0.73857(14) -0.42840(9)
Na2_3 Na 1.61106(16) 0.73857(14) 0.57160(9)
Na2A_2 Na -0.61106(16) 0.26143(14) -0.57160(9)
Na2A_3 Na 1.38894(16) 0.26143(14) 0.42840(9)
Na3_2 Na -0.31954(17) 0.95235(14) -0.32160(9)
Na3_3 Na 0.68046(17) -0.04765(14) -0.32160(9)
Na3A_2 Na 0.31954(17) 1.04765(14) 0.32160(9)
Na3A_3 Na 1.31954(17) 0.04765(14) 0.32160(9)
O2_2 O 0.1438(3) 0.0853(3) -0.78274(18)
O2A_2 O 0.8562(3) 0.9147(3) 0.78274(18)
O4_2 O 0.4058(3) 0.6767(2) 0.54896(15)
O4A_2 O 0.5942(3) 0.3233(2) -0.54896(15)
O5_2 O 0.7106(3) 1.1432(3) 0.63458(17)
O5A_2 O 0.2894(3) -0.1432(3) -0.63458(17)
O7A_2 O 0.4370(3) 0.1951(2) 0.09910(16)
O10 O 0.1156(7) 0.9481(6) 0.0419(4)
loop_
_geom_bond_atom_site_label_1
_geom_bond_atom_site_label_2
_geom_bond_site_symmetry_1
_geom_bond_site_symmetry_2
W1 C1 1_555 1_555
C1 N1 1_555 1_555
C2 W1 1_555 1_555
N2 C2 1_555 1_555
C3 W1 1_555 1_555
N3 C3 1_555 1_555
C4 W1 1_555 1_555
N4 C4 1_555 1_555
C5 W1 1_555 1_555
N5 C5 1_555 1_555
C6 W1 1_555 1_555
N6 C6 1_555 1_555
C7 W1 1_555 1_555
N7 C7 1_555 1_555
C8 W1 1_555 1_555
N8 C8 1_555 1_555
Na1 N5 1_555 1_555
Na2 N3 1_555 1_555
Na3 O3 1_555 1_555
N9 O1 1_555 1_555
O1 Na1 1_555 1_555
C9 N9 1_555 1_555
H1 C9 1_555 1_555
C10 C9 1_555 1_555
H2 C10 1_555 1_555
N10 C10 1_555 1_555
O2 N10 1_555 1_555
C11 N10 1_555 1_555
H3 C11 1_555 1_555
C12 N9 1_555 1_555
H4 C12 1_555 1_555
N11 O3 1_555 1_555
O3 Na2 1_555 1_555
C13 N11 1_555 1_555
H5 C13 1_555 1_555
C14 C13 1_555 1_555
H6 C14 1_555 1_555
N12 C14 1_555 1_555
O4 N12 1_555 1_555
C15 N12 1_555 1_555
H7 C15 1_555 1_555
C16 N11 1_555 1_555
H8 C16 1_555 1_555
N13 O5 1_555 1_555
O5 Na3_3 1_555 1_555
C17 N13 1_555 1_555
H9 C17 1_555 1_555
C18 C17 1_555 1_555
H10 C18 1_555 1_555
N14 C18 1_555 1_555
O6 Na1 1_555 1_555
C19 N14 1_555 1_555
H11 C19 1_555 1_555
C20 N13 1_555 1_555
H12 C20 1_555 1_555
N15 O7 1_555 1_555
O7 Na1 1_555 1_555
C21 N15 1_555 1_555
H13 C21 1_555 1_555
C22 N15 1_555 1_555
H14 C22 1_555 1_555
O8 Na2 1_555 1_555
H15 O8 1_555 1_555
H16 O8 1_555 1_555
O9 Na2 1_555 1_555
H17 O9 1_555 1_555
H18 O9 1_555 1_555
N15A O7A 1_555 1_555
O7A Na1A_2 1_555 1_555
C21A C22 1_555 1_555
H13A C21A 1_555 1_555
C22A C21 1_555 1_555
H14A C22A 1_555 1_555
W1A C1A 1_555 1_555
C1A N1A 1_555 1_555
C2A W1A 1_555 1_555
N2A C2A 1_555 1_555
C3A W1A 1_555 1_555
N3A C3A 1_555 1_555
C4A W1A 1_555 1_555
N4A C4A 1_555 1_555
C5A W1A 1_555 1_555
N5A C5A 1_555 1_555
C6A W1A 1_555 1_555
N6A C6A 1_555 1_555
C7A W1A 1_555 1_555
N7A C7A 1_555 1_555
C8A W1A 1_555 1_555
N8A C8A 1_555 1_555
Na1A O1 1_555 1_555
Na2A N3A 1_555 1_555
Na3A O3A 1_555 1_555
N9A O1A 1_555 1_555
O1A Na1 1_555 1_555
C9A N9A 1_555 1_555
H1A C9A 1_555 1_555
C10A C9A 1_555 1_555
H2A C10A 1_555 1_555
N10A C10A 1_555 1_555
O2A N10A 1_555 1_555
C11A N10A 1_555 1_555
H3A C11A 1_555 1_555
C12A N9A 1_555 1_555
H4A C12A 1_555 1_555
N11A O3A 1_555 1_555
O3A Na2A 1_555 1_555
C13A N11A 1_555 1_555
H5A C13A 1_555 1_555
C14A C13A 1_555 1_555
H6A C14A 1_555 1_555
N12A C14A 1_555 1_555
O4A N12A 1_555 1_555
C15A N12A 1_555 1_555
H7A C15A 1_555 1_555
C16A N11A 1_555 1_555
H8A C16A 1_555 1_555
N13A O5A 1_555 1_555
O5A Na3A_2 1_555 1_555
C17A N13A 1_555 1_555
H9A C17A 1_555 1_555
C18A C17A 1_555 1_555
H10A C18A 1_555 1_555
N14A C18A 1_555 1_555
O6A Na1A 1_555 1_555
C19A N14A 1_555 1_555
H11A C19A 1_555 1_555
C20A N13A 1_555 1_555
H12A C20A 1_555 1_555
O8A Na2A 1_555 1_555
H15A O8A 1_555 1_555
H16A O8A 1_555 1_555
O9A Na2A 1_555 1_555
H17A O9A 1_555 1_555
H18A O9A 1_555 1_555
N2_2 Na3A 1_555 1_555
N2A_2 Na3 1_555 1_555
N6_2 Na1A 1_555 1_555
N6A_2 Na1 1_555 1_555
N8_2 Na2A 1_555 1_555
N8A_2 Na2 1_555 1_555
Na1_2 N6A 1_555 1_555
Na1A_3 N6 1_555 1_555
Na2_2 N8A 1_555 1_555
Na2_3 O4 1_555 1_555
Na2A_2 O4A 1_555 1_555
Na2A_3 N8 1_555 1_555
Na3_2 O2A 1_555 1_555
Na3_3 N2A 1_555 1_555
Na3A_2 N2 1_555 1_555
Na3A_3 O2 1_555 1_555
O2_2 Na3A 1_555 1_555
O2A_2 Na3 1_555 1_555
O4_2 Na2 1_555 1_555
O4A_2 Na2A 1_555 1_555
O5_2 Na3 1_555 1_555
O5A_2 Na3A 1_555 1_555
O7A_2 Na1A 1_555 1_555
Na3 O8 1_555 1_555
Na3 O9 1_555 1_555
C11 C12 1_555 1_555
C15 C16 1_555 1_555
N14 O6 1_555 1_555
C19 C20 1_555 1_555
N15A C21A 1_555 1_555
N15A C22A 1_555 1_555
N5A Na1A 1_555 1_555
Na1A O1A 1_555 1_555
Na3A O8A 1_555 1_555
Na3A O9A 1_555 1_555
C11A C12A 1_555 1_555
C15A C16A 1_555 1_555
N14A O6A 1_555 1_555
C19A C20A 1_555 1_555

#END
