
#######################################################################
#
#                 Cambridge Crystallographic Data Centre
#                                CCDC 
#
#######################################################################
#
# If this CIF has been generated from an entry in the Cambridge 
# Structural Database, then it will include bibliographic, chemical, 
# crystal, experimental, refinement or atomic coordinate data resulting 
# from the CCDC's data processing and validation procedures.
#
#######################################################################

data_ROSKOB
_symmetry_cell_setting           orthorhombic
_symmetry_space_group_name_H-M   'P n a 21'
_symmetry_Int_Tables_number      33
_space_group_name_Hall           'P 2c -2n'
loop_
_symmetry_equiv_pos_site_id
_symmetry_equiv_pos_as_xyz
1 x,y,z
2 -x,-y,1/2+z
3 1/2-x,1/2+y,1/2+z
4 1/2+x,1/2-y,z
_cell_length_a                   10.4858(3)
_cell_length_b                   18.8309(6)
_cell_length_c                   4.8130(2)
_cell_angle_alpha                90
_cell_angle_beta                 90
_cell_angle_gamma                90
_cell_volume                     950.361
loop_
_atom_site_label
_atom_site_type_symbol
_atom_site_fract_x
_atom_site_fract_y
_atom_site_fract_z
C1 C 0.8568(3) 0.41181(16) 0.7901(10)
C2 C 0.7812(4) 0.46730(19) 0.9416(8)
H1 H 0.8285 0.4808 1.1066
H2 H 0.702 0.4458 1.0031
C3 C 0.7491(3) 0.53387(16) 0.7833(8)
C4 C 0.8085(3) 0.59748(17) 0.8508(8)
H3 H 0.8703 0.5982 0.9895
C5 C 0.7772(4) 0.66004(17) 0.7146(7)
C6 C 0.6861(4) 0.66000(18) 0.5065(8)
H4 H 0.666 0.7017 0.4127
C7 C 0.6251(4) 0.5967(2) 0.4396(9)
H5 H 0.5629 0.5962 0.3019
C8 C 0.6563(4) 0.53474(19) 0.5765(9)
H6 H 0.6146 0.4928 0.5299
C9 C 0.8385(3) 0.72618(15) 0.8141(11)
N1 N 0.7820(3) 0.78766(14) 0.8655(7)
N2 N 0.8730(3) 0.83122(16) 0.9735(9)
N3 N 0.9795(3) 0.79717(17) 0.9807(8)
N4 N 0.9626(3) 0.73112(15) 0.8790(6)
O1 O 0.8977(3) 0.35853(15) 0.9191(6)
O2 O 0.8745(2) 0.41882(13) 0.5336(5)
Zn1 Zn 0.60971(3) 0.831415(17) 0.81444(13)
N4C N 0.4626(3) 0.76888(15) 0.8790(6)
O1B O 0.6023(3) 0.85853(15) 0.4191(6)
O2B O 0.6255(2) 0.91882(13) 1.0336(5)
Zn1B Zn 0.89029(3) 0.331415(17) 0.31444(13)
Zn1B_2 Zn 0.89029(3) 0.331415(17) 1.31444(13)
Zn1C Zn 1.10971(3) 0.668585(17) 0.81444(13)
loop_
_geom_bond_atom_site_label_1
_geom_bond_atom_site_label_2
_geom_bond_site_symmetry_1
_geom_bond_site_symmetry_2
C1 C2 1_555 1_555
C2 H1 1_555 1_555
H2 C2 1_555 1_555
C3 C2 1_555 1_555
C4 C3 1_555 1_555
H3 C4 1_555 1_555
C5 C4 1_555 1_555
C6 C5 1_555 1_555
H4 C6 1_555 1_555
C7 C6 1_555 1_555
H5 C7 1_555 1_555
C8 C3 1_555 1_555
H6 C8 1_555 1_555
C9 C5 1_555 1_555
N1 C9 1_555 1_555
N2 N1 1_555 1_555
N3 N2 1_555 1_555
N4 C9 1_555 1_555
O1 C1 1_555 1_555
O2 C1 1_555 1_555
Zn1 N1 1_555 1_555
N4C Zn1 1_555 1_555
O1B Zn1 1_555 1_555
O2B Zn1 1_555 1_555
Zn1B O2 1_555 1_555
Zn1B_2 O1 1_555 1_555
Zn1C N4 1_555 1_555
C7 C8 1_555 1_555
N3 N4 1_555 1_555

#END
