
#######################################################################
#
#                 Cambridge Crystallographic Data Centre
#                                CCDC 
#
#######################################################################
#
# If this CIF has been generated from an entry in the Cambridge 
# Structural Database, then it will include bibliographic, chemical, 
# crystal, experimental, refinement or atomic coordinate data resulting 
# from the CCDC's data processing and validation procedures.
#
#######################################################################

data_ROSKAN
_symmetry_cell_setting           triclinic
_symmetry_space_group_name_H-M   'P -1'
_symmetry_Int_Tables_number      2
_space_group_name_Hall           '-P 1'
loop_
_symmetry_equiv_pos_site_id
_symmetry_equiv_pos_as_xyz
1 x,y,z
2 -x,-y,-z
_cell_length_a                   16.270(5)
_cell_length_b                   16.578(5)
_cell_length_c                   19.748(5)
_cell_angle_alpha                108.690(5)
_cell_angle_beta                 94.850(5)
_cell_angle_gamma                97.985(5)
_cell_volume                     4949.19
loop_
_atom_site_label
_atom_site_type_symbol
_atom_site_fract_x
_atom_site_fract_y
_atom_site_fract_z
W1 W 0.259331(12) 0.948948(12) 0.753802(12)
C1 C 0.3234(3) 0.8462(3) 0.7021(3)
C2 C 0.2067(3) 0.9069(3) 0.6415(3)
C3 C 0.3910(3) 0.9871(3) 0.7954(3)
C4 C 0.2744(3) 1.0694(3) 0.8409(3)
C5 C 0.3082(3) 1.0443(3) 0.7072(3)
C6 C 0.1413(3) 0.9917(3) 0.7579(3)
C7 C 0.2690(3) 0.9120(3) 0.8489(3)
C8 C 0.1677(3) 0.8332(3) 0.7336(3)
N1 N 0.3569(3) 0.7917(3) 0.6737(3)
N2 N 0.1794(4) 0.8861(3) 0.5815(3)
N3 N 0.4607(3) 1.0076(3) 0.8158(3)
N4 N 0.2838(3) 1.1342(3) 0.8865(3)
N5 N 0.3400(3) 1.0940(3) 0.6844(3)
N6 N 0.0773(3) 1.0146(3) 0.7581(3)
N7 N 0.2759(3) 0.8939(3) 0.9000(3)
N8 N 0.1187(3) 0.7729(3) 0.7241(3)
Mn1 Mn 0.41388(5) 0.68123(4) 0.61654(4)
Mn2 Mn 0.58697(5) 1.06930(4) 0.87799(5)
Mn3 Mn 0.39802(5) 1.18022(4) 0.63080(5)
Mn4 Mn -0.02976(5) 1.08531(5) 0.76130(5)
Mn5 Mn 0.03036(5) 0.66748(5) 0.73826(5)
O1 O 0.4485(2) 0.7442(2) 0.5404(2)
O2 O 0.4744(2) 0.5746(2) 0.5666(2)
N9 N 0.3628(3) 0.6079(3) 0.6810(3)
N10 N 0.5375(3) 0.7393(3) 0.6822(3)
O3 O 0.3011(3) 0.6255(3) 0.5351(2)
O4 O 0.5237(3) 1.1749(2) 0.9304(2)
O5 O 0.5621(3) 1.0091(2) 0.9559(2)
N11 N 0.6366(3) 1.1434(3) 0.8149(3)
N12 N 0.6426(3) 0.9592(3) 0.8202(3)
O6 O 0.7021(2) 1.1299(3) 0.9582(2)
O7 O 0.4677(3) 1.0803(2) 0.5768(3)
N13 N 0.5231(3) 1.2422(3) 0.6961(3)
O8 O 0.2921(3) 1.1227(3) 0.5424(2)
O9 O 0.4326(2) 1.2463(2) 0.5571(2)
N14 N 0.3389(3) 1.2889(3) 0.6886(3)
N15 N 0.1235(3) 0.5850(3) 0.7383(3)
O10 O -0.0074(4) 0.5938(4) 0.6255(3)
O11 O 0.0675(6) 0.7293(5) 0.8565(4)
O12 O -0.0534(4) 0.5787(4) 0.7759(5)
N16 N -0.0779(3) 0.7347(3) 0.7376(3)
N17 N 0.4514(3) 0.8276(3) 0.5522(3)
N18 N 0.4609(3) 0.4956(3) 0.5696(3)
C9 C 0.3313(3) 0.5626(3) 0.7062(3)
C10 C 0.6077(3) 0.7596(3) 0.7036(3)
C11 C 0.2163(4) 0.6166(7) 0.5501(5)
N19 N 0.5343(3) 1.2541(2) 0.9292(3)
N20 N 0.5576(3) 0.9262(3) 0.9450(3)
C12 C 0.6690(3) 1.1898(3) 0.7902(3)
C13 C 0.6760(3) 0.9035(3) 0.7925(3)
C14 C 0.7831(4) 1.1282(5) 0.9393(4)
N21 N 0.4602(3) 0.9989(3) 0.5715(3)
C15 C 0.5942(3) 1.2564(3) 0.7119(3)
C16 C 0.2074(5) 1.0947(8) 0.5433(7)
C17 C 0.1742(3) 0.5458(3) 0.7437(3)
C18 C -0.0149(11) 0.5005(7) 0.5962(8)
C19 C 0.0564(14) 0.8242(17) 0.8915(13)
C20 C -0.1172(7) 0.6080(8) 0.8273(9)
C21 C 0.5231(4) 0.8837(4) 0.5827(4)
C22 C 0.3852(4) 0.8571(3) 0.5322(3)
C23 C 0.5213(4) 0.4666(3) 0.6018(4)
C24 C 0.3885(3) 0.4416(3) 0.5374(3)
W2 W 0.272989(12) 0.474537(11) 0.756230(11)
W3 W 0.740209(12) 0.798404(12) 0.743108(12)
H1 H 0.2158 0.6206 0.5996
H2 H 0.1856 0.5614 0.5193
H3 H 0.1908 0.6618 0.5413
C25 C 0.6066(4) 1.3064(3) 0.9567(3)
C26 C 0.4711(4) 1.2840(4) 0.9039(4)
C27 C 0.6212(4) 0.8958(3) 0.9706(3)
C28 C 0.4859(3) 0.8693(3) 0.9091(3)
W4 W 0.728764(12) 1.281875(12) 0.745332(12)
H4 H 0.7982 1.0732 0.9358
H5 H 0.8221 1.1733 0.9755
H6 H 0.7846 1.1369 0.8936
C29 C 0.3889(4) 0.9439(3) 0.5417(3)
C30 C 0.5279(4) 0.9687(4) 0.5932(4)
H7 H 0.1946 1.0327 0.5231
H8 H 0.1739 1.1192 0.5153
H9 H 0.1953 1.1128 0.5922
H10 H 0.5699 0.8635 0.5968
H11 H 0.3354 0.8187 0.5114
H12 H 0.5702 0.5044 0.6267
C31 C 0.5108(4) 0.3827(4) 0.5978(4)
C32 C 0.3801(4) 0.3568(3) 0.5350(3)
H13 H 0.3449 0.4612 0.5172
C33 C 0.3152(3) 0.3517(3) 0.7128(3)
C34 C 0.4096(4) 0.4992(3) 0.7888(3)
C35 C 0.2849(3) 0.4369(3) 0.8524(3)
C36 C 0.2926(3) 0.5947(3) 0.8465(3)
C37 C 0.2233(4) 0.4219(4) 0.6418(4)
C38 C 0.1558(3) 0.3932(3) 0.7548(4)
C39 C 0.6928(3) 0.7099(3) 0.7970(3)
C40 C 0.7237(3) 0.6723(3) 0.6602(3)
C41 C 0.7968(3) 0.8479(3) 0.8555(3)
C42 C 0.8591(3) 0.7553(3) 0.7391(3)
C43 C 0.7306(3) 0.8274(3) 0.6433(3)
C44 C 0.8305(3) 0.9125(3) 0.7552(3)
H14 H 0.6521 1.2854 0.9723
C45 C 0.6143(4) 1.3911(3) 0.9624(3)
C46 C 0.4807(4) 1.3682(3) 0.9077(4)
H15 H 0.4202 1.2473 0.8835
H16 H 0.6704 0.9336 0.9946
C47 C 0.6144(4) 0.8101(3) 0.9617(4)
C48 C 0.4781(4) 0.7837(3) 0.9012(4)
H17 H 0.442 0.8893 0.8898
C49 C 0.7760(4) 1.3294(3) 0.8589(4)
C50 C 0.6864(3) 1.4036(3) 0.7901(3)
C51 C 0.7167(4) 1.3227(3) 0.6520(3)
C52 C 0.8273(3) 1.2111(3) 0.7569(3)
C53 C 0.7117(3) 1.1646(3) 0.6538(3)
C54 C 0.8435(3) 1.3675(3) 0.7512(3)
H18 H 0.3419 0.9637 0.5274
H19 H 0.5775 1.0069 0.6154
N22 N 0.4406(3) 0.3281(3) 0.5646(3)
H20 H 0.5536 0.3629 0.6187
H21 H 0.3306 0.3189 0.512
N23 N 0.4784(3) 0.5140(3) 0.8050(3)
N24 N 0.2905(3) 0.4188(3) 0.9029(3)
N25 N 0.3004(3) 0.6582(3) 0.8935(3)
N26 N 0.1961(4) 0.3950(4) 0.5820(3)
N27 N 0.0936(3) 0.3500(4) 0.7516(4)
N28 N 0.6627(3) 0.6624(3) 0.8221(3)
N29 N 0.7129(4) 0.6055(3) 0.6170(3)
N30 N 0.8226(4) 0.8740(4) 0.9142(3)
N31 N 0.7223(3) 0.8410(3) 0.5897(3)
N32 N 0.8784(3) 0.9729(3) 0.7605(3)
N33 N 0.5527(3) 1.4235(2) 0.9386(3)
H22 H 0.665 1.4278 0.9839
H23 H 0.4365 1.388 0.8886
N34 N 0.5426(3) 0.7552(2) 0.9285(3)
H24 H 0.6595 0.7895 0.9784
H25 H 0.429 0.7456 0.8773
N35 N 0.7997(4) 1.3544(4) 0.9198(3)
N36 N 0.6612(3) 1.4663(3) 0.8168(3)
N37 N 0.7079(3) 1.3424(3) 0.6013(3)
N38 N 0.8788(3) 1.1726(3) 0.7623(3)
N39 N 0.7036(4) 1.1013(3) 0.6069(3)
N40 N 0.9046(3) 1.4133(4) 0.7552(4)
Mn6 Mn 0.60162(5) 0.57358(4) 0.87417(5)
O13 O 0.5577(3) 1.5047(2) 0.9461(2)
O14 O 0.5325(3) 0.6740(2) 0.9261(2)
O15 O 0.7024(3) 0.6286(3) 0.9689(2)
O16 O 1.0663(3) 1.1933(3) 0.7623(3)
O17 O 0.9522(3) 1.0475(3) 0.6438(3)
O18 O 0.9921(3) 1.1312(3) 0.8794(3)
C55 C 0.7865(5) 0.6728(6) 0.9749(5)
C56 C 1.1509(5) 1.2068(7) 0.7909(10)
C57 C 0.9860(12) 0.9807(11) 0.5979(7)
C58 C 1.0008(10) 1.2292(7) 0.9225(10)
H26 H 0.81 0.6468 0.9318
H27 H 0.8198 0.6685 1.0157
H28 H 0.786 0.7326 0.9813
N14_2 N 0.3389(3) 0.2889(3) 0.6886(3)
N16_2 N 0.9221(3) 0.7347(3) 0.7376(3)
O9_2 O 0.4326(2) 0.2463(2) 0.5571(2)
Mn3_2 Mn 0.39802(5) 0.18022(4) 0.63080(5)
Mn5_2 Mn 1.03036(5) 0.66748(5) 0.73826(5)
Mn4_2 Mn 0.97024(5) 1.08531(5) 0.76130(5)
Mn6_2 Mn 0.60162(5) 1.57358(4) 0.87417(5)
O13_2 O 0.5577(3) 0.5047(2) 0.9461(2)
N36_2 N 0.6612(3) 0.4663(3) 0.8168(3)
N6_2 N 1.0773(3) 1.0146(3) 0.7581(3)
O19 O 0.9159(4) 1.1434(4) 0.5604(4)
C59 C 0.9312(8) 1.2347(6) 0.5976(7)
O20 O 0.1083(5) 0.6364(7) 0.9409(4)
C60 C 0.0741(11) 0.5326(10) 0.9031(11)
O21 O -0.0738(6) 0.6611(6) 0.5397(5)
C61 C -0.0591(8) 0.7542(8) 0.5591(7)
O22 O 1.0764(16) 1.0819(13) 0.9547(10)
C62 C 1.072(2) 0.9960(16) 0.9465(18)
loop_
_geom_bond_atom_site_label_1
_geom_bond_atom_site_label_2
_geom_bond_site_symmetry_1
_geom_bond_site_symmetry_2
W1 C1 1_555 1_555
C1 N1 1_555 1_555
C2 W1 1_555 1_555
C3 W1 1_555 1_555
C4 W1 1_555 1_555
C5 W1 1_555 1_555
C6 W1 1_555 1_555
C7 W1 1_555 1_555
C8 W1 1_555 1_555
N1 Mn1 1_555 1_555
N2 C2 1_555 1_555
N3 C3 1_555 1_555
N4 C4 1_555 1_555
N5 C5 1_555 1_555
N6 C6 1_555 1_555
N7 C7 1_555 1_555
N8 C8 1_555 1_555
Mn1 O1 1_555 1_555
Mn2 N3 1_555 1_555
Mn3 N5 1_555 1_555
Mn4 N6 1_555 1_555
Mn5 N8 1_555 1_555
O1 N17 1_555 1_555
O2 Mn1 1_555 1_555
N9 Mn1 1_555 1_555
N10 Mn1 1_555 1_555
O3 Mn1 1_555 1_555
O4 Mn2 1_555 1_555
O5 Mn2 1_555 1_555
N11 Mn2 1_555 1_555
N12 Mn2 1_555 1_555
O6 Mn2 1_555 1_555
O7 Mn3 1_555 1_555
N13 Mn3 1_555 1_555
O8 Mn3 1_555 1_555
O9 Mn3 1_555 1_555
N14 Mn3 1_555 1_555
N15 Mn5 1_555 1_555
O10 Mn5 1_555 1_555
O11 Mn5 1_555 1_555
O12 Mn5 1_555 1_555
N16 Mn5 1_555 1_555
N17 C21 1_555 1_555
N18 O2 1_555 1_555
C9 N9 1_555 1_555
C10 N10 1_555 1_555
C11 O3 1_555 1_555
N19 O4 1_555 1_555
N20 O5 1_555 1_555
C12 N11 1_555 1_555
C13 N12 1_555 1_555
C14 O6 1_555 1_555
N21 O7 1_555 1_555
C15 N13 1_555 1_555
C16 O8 1_555 1_555
C17 N15 1_555 1_555
C18 O10 1_555 1_555
C19 O11 1_555 1_555
C20 O12 1_555 1_555
C21 C30 1_555 1_555
C22 N17 1_555 1_555
C23 N18 1_555 1_555
C24 N18 1_555 1_555
W2 C9 1_555 1_555
W3 C10 1_555 1_555
H1 C11 1_555 1_555
H2 C11 1_555 1_555
H3 C11 1_555 1_555
C25 N19 1_555 1_555
C26 N19 1_555 1_555
C27 N20 1_555 1_555
C28 N20 1_555 1_555
W4 C12 1_555 1_555
H4 C14 1_555 1_555
H5 C14 1_555 1_555
H6 C14 1_555 1_555
C29 N21 1_555 1_555
C30 N21 1_555 1_555
H7 C16 1_555 1_555
H8 C16 1_555 1_555
H9 C16 1_555 1_555
H10 C21 1_555 1_555
H11 C22 1_555 1_555
H12 C23 1_555 1_555
C31 C23 1_555 1_555
C32 C24 1_555 1_555
H13 C24 1_555 1_555
C33 W2 1_555 1_555
C34 W2 1_555 1_555
C35 W2 1_555 1_555
C36 W2 1_555 1_555
C37 W2 1_555 1_555
C38 W2 1_555 1_555
C39 W3 1_555 1_555
C40 W3 1_555 1_555
C41 W3 1_555 1_555
C42 W3 1_555 1_555
C43 W3 1_555 1_555
C44 W3 1_555 1_555
H14 C25 1_555 1_555
C45 C25 1_555 1_555
C46 C26 1_555 1_555
H15 C26 1_555 1_555
H16 C27 1_555 1_555
C47 C27 1_555 1_555
C48 C28 1_555 1_555
H17 C28 1_555 1_555
C49 W4 1_555 1_555
C50 W4 1_555 1_555
C51 W4 1_555 1_555
C52 W4 1_555 1_555
C53 W4 1_555 1_555
C54 W4 1_555 1_555
H18 C29 1_555 1_555
H19 C30 1_555 1_555
N22 C31 1_555 1_555
H20 C31 1_555 1_555
H21 C32 1_555 1_555
N23 C34 1_555 1_555
N24 C35 1_555 1_555
N25 C36 1_555 1_555
N26 C37 1_555 1_555
N27 C38 1_555 1_555
N28 C39 1_555 1_555
N29 C40 1_555 1_555
N30 C41 1_555 1_555
N31 C43 1_555 1_555
N32 C44 1_555 1_555
N33 C45 1_555 1_555
H22 C45 1_555 1_555
H23 C46 1_555 1_555
N34 C47 1_555 1_555
H24 C47 1_555 1_555
H25 C48 1_555 1_555
N35 C49 1_555 1_555
N36 C50 1_555 1_555
N37 C51 1_555 1_555
N38 C52 1_555 1_555
N39 C53 1_555 1_555
N40 C54 1_555 1_555
Mn6 N23 1_555 1_555
O13 N33 1_555 1_555
O14 N34 1_555 1_555
O15 Mn6 1_555 1_555
O16 C56 1_555 1_555
O17 C57 1_555 1_555
O18 C58 1_555 1_555
C55 O15 1_555 1_555
H26 C55 1_555 1_555
H27 C55 1_555 1_555
H28 C55 1_555 1_555
O19 C59 1_555 1_555
O20 C60 1_555 1_555
O21 C61 1_555 1_555
O22 C62 1_555 1_555
N14_2 C33 1_555 1_555
N16_2 C42 1_555 1_555
O9_2 N22 1_555 1_555
Mn3_2 N14_2 1_555 1_555
Mn5_2 N16_2 1_555 1_555
Mn4_2 N32 1_555 1_555
Mn6_2 N36 1_555 1_555
O13_2 Mn6 1_555 1_555
N36_2 Mn6 1_555 1_555
N6_2 Mn4_2 1_555 1_555
C13 W3 1_555 1_555
C15 W4 1_555 1_555
C17 W2 1_555 1_555
C22 C29 1_555 1_555
C32 N22 1_555 1_555
C46 N33 1_555 1_555
C48 N34 1_555 1_555
N28 Mn6 1_555 1_555
N38 Mn4_2 1_555 1_555
Mn6 O14 1_555 1_555
O13 Mn6_2 1_555 1_555
O16 Mn4_2 1_555 1_555
O17 Mn4_2 1_555 1_555
O18 Mn4_2 1_555 1_555
O9_2 Mn3_2 1_555 1_555

#END
