
#######################################################################
#
#                 Cambridge Crystallographic Data Centre
#                                CCDC 
#
#######################################################################
#
# If this CIF has been generated from an entry in the Cambridge 
# Structural Database, then it will include bibliographic, chemical, 
# crystal, experimental, refinement or atomic coordinate data resulting 
# from the CCDC's data processing and validation procedures.
#
#######################################################################

data_ROSKER
_symmetry_cell_setting           orthorhombic
_symmetry_space_group_name_H-M   'P n m a'
_symmetry_Int_Tables_number      62
_space_group_name_Hall           '-P 2ac 2n'
loop_
_symmetry_equiv_pos_site_id
_symmetry_equiv_pos_as_xyz
1 x,y,z
2 1/2-x,-y,1/2+z
3 1/2+x,1/2-y,1/2-z
4 -x,1/2+y,-z
5 -x,-y,-z
6 1/2+x,y,1/2-z
7 1/2-x,1/2+y,1/2+z
8 x,1/2-y,z
_cell_length_a                   11.3416(1)
_cell_length_b                   15.1979(1)
_cell_length_c                   14.7404(1)
_cell_angle_alpha                90
_cell_angle_beta                 90
_cell_angle_gamma                90
_cell_volume                     2540.78
loop_
_atom_site_label
_atom_site_type_symbol
_atom_site_fract_x
_atom_site_fract_y
_atom_site_fract_z
W1 W 0.367282(9) 0.75000 0.952999(6)
C1 C 0.1834(3) 0.75000 0.9941(2)
N1 N 0.0865(3) 0.75000 1.0172(3)
C2 C 0.2853(2) 0.66404(14) 0.85443(14)
N2 N 0.2444(2) 0.61824(14) 0.80034(15)
C3 C 0.5081(3) 0.75000 1.0522(2)
N3 N 0.5825(4) 0.75000 1.1050(3)
C4 C 0.49900(19) 0.66360(14) 0.89594(14)
N4 N 0.5693(2) 0.61669(14) 0.86688(15)
C5 C 0.3436(2) 0.63804(15) 1.04080(14)
N5 N 0.3339(2) 0.57799(15) 1.08818(16)
Mn1 Mn 0.19392(3) 0.52249(2) 0.69358(2)
O1 O 0.3488(2) 0.57490(13) 0.61481(17)
N6 N 0.35884(18) 0.66052(15) 0.60812(17)
C6 C 0.4313(2) 0.70502(18) 0.66517(18)
H1 H 0.4809 0.6744 0.7042
C7 C 0.2952(3) 0.70470(19) 0.54571(17)
H2 H 0.2514 0.674 0.5027
O2 O 0.3226(2) 0.42840(14) 0.75058(17)
O3 O 0.0631(2) 0.46929(19) 0.78736(17)
O1G O 0.3488(2) 0.92510(13) 0.61481(17)
N6G N 0.35884(18) 0.83948(15) 0.60812(17)
C6G C 0.4313(2) 0.79498(18) 0.66517(18)
H1G H 0.4809 0.8256 0.7042
C7G C 0.2952(3) 0.79530(19) 0.54571(17)
H2G H 0.2514 0.826 0.5027
C2G C 0.2853(2) 0.83596(14) 0.85443(14)
N2G N 0.2444(2) 0.88176(14) 0.80034(15)
C4G C 0.49900(19) 0.83640(14) 0.89594(14)
N4G N 0.5693(2) 0.88331(14) 0.86688(15)
C5G C 0.3436(2) 0.86196(15) 1.04080(14)
N5G N 0.3339(2) 0.92201(15) 1.08818(16)
Mn1G Mn 0.19392(3) 0.97751(2) 0.69358(2)
O2G O 0.3226(2) 1.07160(14) 0.75058(17)
O3G O 0.0631(2) 1.03071(19) 0.78736(17)
N4B N 0.0693(2) 0.88331(14) 0.63312(15)
N4E N 0.0693(2) 0.61669(14) 0.63312(15)
N5A N 0.1661(2) 0.42201(15) 0.58818(16)
N5F N 0.1661(2) 1.07799(15) 0.58818(16)
Mn1A Mn 0.30608(3) 0.47751(2) 1.19358(2)
Mn1B Mn 0.69392(3) 0.97751(2) 0.80642(2)
Mn1E Mn 0.69392(3) 0.52249(2) 0.80642(2)
Mn1F Mn 0.30608(3) 1.02249(2) 1.19358(2)
O4 O 0.5987(7) 0.5295(6) 0.5382(3)
O5 O 0.1514(5) 0.5527(3) 0.4293(3)
O6 O 0.2547(6) 0.25000 0.7400(5)
O7 O 0.5312(10) 0.25000 0.6942(7)
loop_
_geom_bond_atom_site_label_1
_geom_bond_atom_site_label_2
_geom_bond_site_symmetry_1
_geom_bond_site_symmetry_2
W1 C1 1_555 1_555
C1 N1 1_555 1_555
C2 W1 1_555 1_555
N2 C2 1_555 1_555
C3 W1 1_555 1_555
N3 C3 1_555 1_555
C4 W1 1_555 1_555
N4 C4 1_555 1_555
C5 W1 1_555 1_555
N5 C5 1_555 1_555
Mn1 N2 1_555 1_555
O1 Mn1 1_555 1_555
N6 O1 1_555 1_555
C6 N6 1_555 1_555
H1 C6 1_555 1_555
C7 N6 1_555 1_555
H2 C7 1_555 1_555
O2 Mn1 1_555 1_555
O3 Mn1 1_555 1_555
O1G N6G 1_555 1_555
N6G C6G 1_555 1_555
C6G C6 1_555 1_555
H1G C6G 1_555 1_555
C7G C7 1_555 1_555
H2G C7G 1_555 1_555
C2G W1 1_555 1_555
N2G C2G 1_555 1_555
C4G W1 1_555 1_555
N4G C4G 1_555 1_555
C5G W1 1_555 1_555
N5G C5G 1_555 1_555
Mn1G O1G 1_555 1_555
O2G Mn1G 1_555 1_555
O3G Mn1G 1_555 1_555
N4B Mn1G 1_555 1_555
N4E Mn1 1_555 1_555
N5A Mn1 1_555 1_555
N5F Mn1G 1_555 1_555
Mn1A N5 1_555 1_555
Mn1B N4G 1_555 1_555
Mn1E N4 1_555 1_555
Mn1F N5G 1_555 1_555
N6G C7G 1_555 1_555
N2G Mn1G 1_555 1_555

#END
