
#######################################################################
#
#                 Cambridge Crystallographic Data Centre
#                                CCDC 
#
#######################################################################
#
# If this CIF has been generated from an entry in the Cambridge 
# Structural Database, then it will include bibliographic, chemical, 
# crystal, experimental, refinement or atomic coordinate data resulting 
# from the CCDC's data processing and validation procedures.
#
#######################################################################

data_ROSKIV
_symmetry_cell_setting           orthorhombic
_symmetry_space_group_name_H-M   'P c a 21'
_symmetry_Int_Tables_number      29
_space_group_name_Hall           'P 2c -2ac'
loop_
_symmetry_equiv_pos_site_id
_symmetry_equiv_pos_as_xyz
1 x,y,z
2 -x,-y,1/2+z
3 1/2-x,y,1/2+z
4 1/2+x,-y,z
_cell_length_a                   18.5081(5)
_cell_length_b                   4.82300(10)
_cell_length_c                   10.9635(4)
_cell_angle_alpha                90
_cell_angle_beta                 90
_cell_angle_gamma                90
_cell_volume                     978.652
loop_
_atom_site_label
_atom_site_type_symbol
_atom_site_fract_x
_atom_site_fract_y
_atom_site_fract_z
C1 C 0.2221(2) 0.0281(8) 0.2726(5)
C2 C 0.1579(2) 0.1768(9) 0.3180(4)
C3 C 0.1621(2) 0.3684(10) 0.4110(5)
H1 H 0.2063 0.4033 0.4483
C4 C 0.1015(2) 0.5081(10) 0.4488(5)
H2 H 0.1052 0.6348 0.5125
C5 C 0.0349(2) 0.4646(10) 0.3944(5)
C6 C 0.0303(2) 0.2699(10) 0.3017(5)
H3 H -0.0138 0.237 0.2638
C7 C 0.0906(2) 0.1253(10) 0.2657(5)
H4 H 0.0864 -0.0093 0.2053
C8 C -0.0302(2) 0.6313(10) 0.4318(5)
H5 H -0.0467 0.7351 0.3613
H6 H -0.015 0.7649 0.4928
N1 N 0.2957(2) -0.1841(10) 0.1528(4)
N2 N 0.3243(2) -0.1837(10) 0.2595(4)
C9 C -0.0937(2) 0.4723(8) 0.4824(6)
N3 N 0.2786(3) -0.0492(11) 0.3395(5)
N4 N 0.2312(3) -0.0527(10) 0.1573(5)
O1 O -0.08810(13) 0.2134(5) 0.4939(5)
O2 O -0.15154(13) 0.5987(5) 0.5044(5)
Zn1 Zn 0.17769(2) 0.00413(10) 0.00374(12)
N3B N 0.2214(3) -0.0492(11) -0.1605(5)
O1A O 0.08810(13) -0.2134(5) -0.0061(5)
O2A O 0.15154(13) 0.4013(5) 0.0044(5)
Zn1A Zn -0.17769(2) -0.00413(10) 0.50374(12)
Zn1A_2 Zn -0.17769(2) 0.99587(10) 0.50374(12)
Zn1B Zn 0.32231(2) 0.00413(10) 0.50374(12)
loop_
_geom_bond_atom_site_label_1
_geom_bond_atom_site_label_2
_geom_bond_site_symmetry_1
_geom_bond_site_symmetry_2
C1 C2 1_555 1_555
C2 C3 1_555 1_555
C3 H1 1_555 1_555
C4 C3 1_555 1_555
H2 C4 1_555 1_555
C5 C4 1_555 1_555
C6 C5 1_555 1_555
H3 C6 1_555 1_555
C7 C2 1_555 1_555
H4 C7 1_555 1_555
C8 C5 1_555 1_555
H5 C8 1_555 1_555
H6 C8 1_555 1_555
N1 N2 1_555 1_555
N2 N3 1_555 1_555
C9 C8 1_555 1_555
N3 C1 1_555 1_555
N4 C1 1_555 1_555
O1 C9 1_555 1_555
O2 C9 1_555 1_555
Zn1 N4 1_555 1_555
N3B Zn1 1_555 1_555
O1A Zn1 1_555 1_555
O2A Zn1 1_555 1_555
Zn1A O1 1_555 1_555
Zn1A_2 O2 1_555 1_555
Zn1B N3 1_555 1_555
C6 C7 1_555 1_555
N1 N4 1_555 1_555

#END
