
#######################################################################
#
#                 Cambridge Crystallographic Data Centre
#                                CCDC 
#
#######################################################################
#
# If this CIF has been generated from an entry in the Cambridge 
# Structural Database, then it will include bibliographic, chemical, 
# crystal, experimental, refinement or atomic coordinate data resulting 
# from the CCDC's data processing and validation procedures.
#
#######################################################################

data_ROSTOK
_symmetry_cell_setting           monoclinic
_symmetry_space_group_name_H-M   'C 2/c'
_symmetry_Int_Tables_number      15
_space_group_name_Hall           '-C 2yn'
loop_
_symmetry_equiv_pos_site_id
_symmetry_equiv_pos_as_xyz
1 x,y,z
2 -x,y,1/2-z
3 1/2+x,1/2+y,z
4 1/2-x,1/2+y,1/2-z
5 -x,-y,-z
6 x,-y,1/2+z
7 1/2-x,1/2-y,-z
8 1/2+x,1/2-y,1/2+z
_cell_length_a                   17.3158(12)
_cell_length_b                   9.8869(7)
_cell_length_c                   21.7619(16)
_cell_angle_alpha                90
_cell_angle_beta                 102.9070(10)
_cell_angle_gamma                90
_cell_volume                     3631.5
loop_
_atom_site_label
_atom_site_type_symbol
_atom_site_fract_x
_atom_site_fract_y
_atom_site_fract_z
Mo1 Mo 0.0000 0.32527(5) 0.2500
Mo2 Mo 0.13230(2) 0.13301(4) 0.347764(17)
Mo3 Mo 0.10212(2) -0.19770(4) 0.300798(18)
Cu1 Cu 0.19716(3) -0.17252(5) 0.17353(3)
P1 P 0.05959(6) 0.04583(11) 0.18123(5)
O1 O 0.07528(16) 0.1426(3) 0.23774(13)
O2 O 0.05551(17) 0.2724(3) 0.33405(13)
O3 O 0.06957(18) 0.4305(3) 0.23208(16)
O4 O 0.16641(16) -0.0448(3) 0.32611(13)
O5 O 0.21222(17) 0.2165(3) 0.32926(15)
O6 O 0.15507(18) 0.1266(3) 0.42677(14)
O7 O -0.02794(16) 0.0040(3) 0.16197(13)
O8 O 0.10795(16) -0.0835(3) 0.19837(13)
O9 O 0.0000 -0.2251(4) 0.2500
O10 O 0.16384(18) -0.2992(3) 0.27006(16)
O11 O 0.0987(2) -0.2748(3) 0.36923(15)
N1 N 0.1274(2) -0.2877(4) 0.10903(17)
C1 C 0.0911(2) 0.1295(4) 0.11862(19)
C2 C 0.1481(3) 0.2294(5) 0.1313(2)
H1 H 0.1676 0.2568 0.1728
C3 C 0.1768(3) 0.2898(5) 0.0833(2)
H2 H 0.2153 0.3569 0.0926
C4 C 0.1485(3) 0.2506(5) 0.0228(2)
H3 H 0.1676 0.2913 -0.0094
C5 C 0.0924(4) 0.1521(7) 0.0088(3)
H4 H 0.0731 0.1251 -0.0328
C6 C 0.0644(3) 0.0926(6) 0.0573(2)
H5 H 0.0261 0.0252 0.0476
C7 C 0.1331(3) -0.2944(6) 0.0494(2)
H6 H 0.1717 -0.2430 0.0366
C8 C 0.0839(4) -0.3748(6) 0.0057(3)
H7 H 0.0891 -0.3748 -0.0359
C9 C 0.0272(3) -0.4551(4) 0.0227(2)
C10 C 0.0244(3) -0.4507(5) 0.0849(2)
H8 H -0.0110 -0.5063 0.0995
C11 C 0.0730(3) -0.3654(5) 0.1264(2)
H9 H 0.0676 -0.3617 0.1680
O12 O 0.26461(19) -0.0599(4) 0.23820(18)
H10 H 0.3144(7) -0.053(5) 0.244(3)
H11 H 0.245(3) -0.035(5) 0.2684(17)
O13 O 0.2562(3) -0.0313(4) 0.0998(3)
N1D N -0.1274(2) -0.7123(4) -0.10903(17)
C7D C -0.1331(3) -0.7056(6) -0.0494(2)
H6D H -0.1717 -0.7570 -0.0366
C8D C -0.0839(4) -0.6252(6) -0.0057(3)
H7D H -0.0891 -0.6252 0.0359
C9D C -0.0272(3) -0.5449(4) -0.0227(2)
C10D C -0.0244(3) -0.5493(5) -0.0849(2)
H8D H 0.0110 -0.4937 -0.0995
C11D C -0.0730(3) -0.6346(5) -0.1264(2)
H9D H -0.0676 -0.6383 -0.1680
Mo2A Mo -0.13230(2) 0.13301(4) 0.152236(17)
Mo3A Mo -0.10212(2) -0.19770(4) 0.199202(18)
Cu1A Cu -0.19716(3) -0.17252(5) 0.32647(3)
P1A P -0.05959(6) 0.04583(11) 0.31877(5)
O1A O -0.07528(16) 0.1426(3) 0.26226(13)
O2A O -0.05551(17) 0.2724(3) 0.16595(13)
O3A O -0.06957(18) 0.4305(3) 0.26792(16)
O4A O -0.16641(16) -0.0448(3) 0.17389(13)
O5A O -0.21222(17) 0.2165(3) 0.17074(15)
O6A O -0.15507(18) 0.1266(3) 0.07323(14)
O7A O 0.02794(16) 0.0040(3) 0.33803(13)
O8A O -0.10795(16) -0.0835(3) 0.30163(13)
O10A O -0.16384(18) -0.2992(3) 0.22994(16)
O11A O -0.0987(2) -0.2748(3) 0.13077(15)
C1A C -0.0911(2) 0.1295(4) 0.38138(19)
C2A C -0.1481(3) 0.2294(5) 0.3687(2)
H1A H -0.1676 0.2568 0.3272
C3A C -0.1768(3) 0.2898(5) 0.4167(2)
H2A H -0.2153 0.3569 0.4074
C4A C -0.1485(3) 0.2506(5) 0.4772(2)
H3A H -0.1676 0.2913 0.5094
C5A C -0.0924(4) 0.1521(7) 0.4912(3)
H4A H -0.0731 0.1251 0.5328
C6A C -0.0644(3) 0.0926(6) 0.4427(2)
H5A H -0.0261 0.0252 0.4524
O12A O -0.26461(19) -0.0599(4) 0.26180(18)
H10A H -0.3144(7) -0.053(5) 0.256(3)
H11A H -0.245(3) -0.035(5) 0.2316(17)
O13A O -0.2562(3) -0.0313(4) 0.4002(3)
Cu1B Cu -0.30284(3) 0.32748(5) 0.17353(3)
Cu1C Cu 0.30284(3) 0.32748(5) 0.32647(3)
Cu1D Cu -0.19716(3) -0.82748(5) -0.17353(3)
O5B O -0.28778(17) -0.2835(3) 0.32926(15)
O5C O 0.28778(17) -0.2835(3) 0.17074(15)
N1A N -0.1274(2) -0.2877(4) 0.39097(17)
loop_
_geom_bond_atom_site_label_1
_geom_bond_atom_site_label_2
_geom_bond_site_symmetry_1
_geom_bond_site_symmetry_2
Mo1 O1 1_555 1_555
Mo2 O1 1_555 1_555
Mo3 O4 1_555 1_555
Cu1 O8 1_555 1_555
P1 O1 1_555 1_555
O2 Mo1 1_555 1_555
O3 Mo1 1_555 1_555
O4 Mo2 1_555 1_555
O5 Mo2 1_555 1_555
O6 Mo2 1_555 1_555
O7 P1 1_555 1_555
O8 Mo3 1_555 1_555
O9 Mo3 1_555 1_555
O10 Mo3 1_555 1_555
O11 Mo3 1_555 1_555
N1 Cu1 1_555 1_555
C1 P1 1_555 1_555
C2 C1 1_555 1_555
H1 C2 1_555 1_555
C3 C2 1_555 1_555
H2 C3 1_555 1_555
C4 C3 1_555 1_555
H3 C4 1_555 1_555
C5 C4 1_555 1_555
H4 C5 1_555 1_555
C6 C1 1_555 1_555
H5 C6 1_555 1_555
C7 N1 1_555 1_555
H6 C7 1_555 1_555
C8 C7 1_555 1_555
H7 C8 1_555 1_555
C9 C8 1_555 1_555
C10 C9 1_555 1_555
H8 C10 1_555 1_555
C11 N1 1_555 1_555
H9 C11 1_555 1_555
O12 Cu1 1_555 1_555
H10 O12 1_555 1_555
H11 O12 1_555 1_555
O13 Cu1 1_555 1_555
N1D C7D 1_555 1_555
C7D H6D 1_555 1_555
C8D C7D 1_555 1_555
H7D C8D 1_555 1_555
C9D C9 1_555 1_555
C10D C9D 1_555 1_555
H8D C10D 1_555 1_555
C11D N1D 1_555 1_555
H9D C11D 1_555 1_555
Mo2A O7 1_555 1_555
Mo3A O7 1_555 1_555
Cu1A O8A 1_555 1_555
P1A O1A 1_555 1_555
O1A Mo1 1_555 1_555
O2A Mo1 1_555 1_555
O3A Mo1 1_555 1_555
O4A Mo2A 1_555 1_555
O5A Mo2A 1_555 1_555
O6A Mo2A 1_555 1_555
O7A Mo2 1_555 1_555
O8A Mo3A 1_555 1_555
O10A Mo3A 1_555 1_555
O11A Mo3A 1_555 1_555
C1A P1A 1_555 1_555
C2A C1A 1_555 1_555
H1A C2A 1_555 1_555
C3A C2A 1_555 1_555
H2A C3A 1_555 1_555
C4A C3A 1_555 1_555
H3A C4A 1_555 1_555
C5A C4A 1_555 1_555
H4A C5A 1_555 1_555
C6A C1A 1_555 1_555
H5A C6A 1_555 1_555
O12A Cu1A 1_555 1_555
H10A O12A 1_555 1_555
H11A O12A 1_555 1_555
O13A Cu1A 1_555 1_555
Cu1B O5A 1_555 1_555
Cu1C O5 1_555 1_555
Cu1D N1D 1_555 1_555
O5B Cu1A 1_555 1_555
O5C Cu1 1_555 1_555
N1A Cu1A 1_555 1_555
Mo2 O2 1_555 1_555
Mo3 O7A 1_555 1_555
Cu1 O10 1_555 1_555
P1 O8 1_555 1_555
O9 Mo3A 1_555 1_555
C5 C6 1_555 1_555
C10 C11 1_555 1_555
C8D C9D 1_555 1_555
C10D C11D 1_555 1_555
Mo2A O1A 1_555 1_555
Mo2A O2A 1_555 1_555
Mo3A O4A 1_555 1_555
Cu1A O10A 1_555 1_555
P1A O7A 1_555 1_555
P1A O8A 1_555 1_555
C5A C6A 1_555 1_555

#END
