
#######################################################################
#
#                 Cambridge Crystallographic Data Centre
#                                CCDC 
#
#######################################################################
#
# If this CIF has been generated from an entry in the Cambridge 
# Structural Database, then it will include bibliographic, chemical, 
# crystal, experimental, refinement or atomic coordinate data resulting 
# from the CCDC's data processing and validation procedures.
#
#######################################################################

data_ROSTIE
_symmetry_cell_setting           orthorhombic
_symmetry_space_group_name_H-M   'F d d 2'
_symmetry_Int_Tables_number      43
_space_group_name_Hall           'F 2 -2d'
loop_
_symmetry_equiv_pos_site_id
_symmetry_equiv_pos_as_xyz
1 x,y,z
2 -x,-y,z
3 1/4-x,1/4+y,1/4+z
4 3/4+x,3/4-y,1/4+z
5 x,1/2+y,1/2+z
6 -x,1/2-y,1/2+z
7 1/4-x,3/4+y,3/4+z
8 3/4+x,1/4-y,3/4+z
9 1/2+x,y,1/2+z
10 1/2-x,-y,1/2+z
11 3/4-x,1/4+y,3/4+z
12 1/4+x,3/4-y,3/4+z
13 1/2+x,1/2+y,z
14 1/2-x,1/2-y,z
15 3/4-x,3/4+y,1/4+z
16 1/4+x,1/4-y,1/4+z
_cell_length_a                   18.8251(9)
_cell_length_b                   42.656(2)
_cell_length_c                   10.6435(5)
_cell_angle_alpha                90
_cell_angle_beta                 90
_cell_angle_gamma                90
_cell_volume                     8546.77
loop_
_atom_site_label
_atom_site_type_symbol
_atom_site_fract_x
_atom_site_fract_y
_atom_site_fract_z
Mo1 Mo 0.0000 0.0000 -0.07129(4)
Mo2 Mo 0.116645(17) 0.038701(8) 0.11148(3)
Mo3 Mo 0.085760(16) 0.020218(7) 0.41674(3)
Cu1 Cu -0.16657(3) 0.006770(11) -0.29705(5)
P1 P 0.05688(5) -0.03513(2) 0.20479(9)
O1 O 0.15022(14) 0.03155(6) 0.2870(2)
O2 O 0.14282(14) 0.00538(6) 0.5309(3)
O3 O 0.09854(13) -0.02585(6) 0.3193(2)
O4 O 0.04664(14) 0.03730(6) -0.0180(2)
O5 O 0.0000 0.0000 0.4634(4)
O6 O -0.06289(14) 0.01453(6) -0.1727(3)
O7 O 0.07247(13) -0.01328(6) 0.0938(3)
O8 O 0.06467(14) 0.05572(6) 0.4755(3)
O9 O 0.19186(15) 0.02375(7) 0.0424(3)
O10 O -0.02392(13) -0.03510(6) 0.2373(2)
O11 O 0.12856(15) 0.07790(7) 0.1055(3)
N1 N -0.16559(18) -0.03917(7) -0.2537(3)
N2 N -0.09833(17) -0.19771(7) -0.0903(3)
C1 C 0.0799(2) -0.07411(9) 0.1588(4)
C2 C 0.0634(3) -0.09866(10) 0.2380(5)
H1 H 0.0389 -0.0949 0.3124
C3 C 0.0834(4) -0.12876(12) 0.2066(6)
H2 H 0.0730 -0.1452 0.2610
C4 C 0.1174(4) -0.13463(12) 0.0989(6)
H3 H 0.1292 -0.1551 0.0774
C5 C 0.1346(4) -0.11070(13) 0.0212(6)
H4 H 0.1597 -0.1147 -0.0524
C6 C 0.1152(3) -0.08013(12) 0.0508(5)
H5 H 0.1263 -0.0638 -0.0038
C7 C -0.1017(2) -0.05313(9) -0.2605(4)
H6 H -0.0636 -0.0415 -0.2907
C8 C -0.0895(2) -0.08340(10) -0.2257(4)
H7 H -0.0438 -0.0916 -0.2301
C9 C -0.1450(2) -0.10208(9) -0.1838(4)
C10 C -0.2120(2) -0.08836(10) -0.1808(4)
H8 H -0.2512 -0.1001 -0.1559
C11 C -0.2203(2) -0.05718(10) -0.2148(4)
H9 H -0.2654 -0.0483 -0.2107
C12 C -0.1590(2) -0.18965(9) -0.1469(4)
H10 H -0.1905 -0.2055 -0.1691
C13 C -0.1773(2) -0.15922(10) -0.1740(4)
H11 H -0.2210 -0.1548 -0.2108
C14 C -0.0532(2) -0.17432(9) -0.0592(4)
H12 H -0.0112 -0.1793 -0.0179
C15 C -0.1306(2) -0.13498(9) -0.1464(4)
C16 C -0.0674(2) -0.14336(9) -0.0867(4)
H13 H -0.0346 -0.1280 -0.0652
O12 O -0.21987(15) 0.01794(7) -0.1471(3)
H14 H -0.2630(9) 0.0220(10) -0.162(4)
H15 H -0.211(2) 0.0029(7) -0.098(3)
Mo2A Mo -0.116645(17) -0.038701(8) 0.11148(3)
Mo3A Mo -0.085760(16) -0.020218(7) 0.41674(3)
Cu1A Cu 0.16657(3) -0.006770(11) -0.29705(5)
P1A P -0.05688(5) 0.03513(2) 0.20479(9)
O1A O -0.15022(14) -0.03155(6) 0.2870(2)
O2A O -0.14282(14) -0.00538(6) 0.5309(3)
O3A O -0.09854(13) 0.02585(6) 0.3193(2)
O4A O -0.04664(14) -0.03730(6) -0.0180(2)
O6A O 0.06289(14) -0.01453(6) -0.1727(3)
O7A O -0.07247(13) 0.01328(6) 0.0938(3)
O8A O -0.06467(14) -0.05572(6) 0.4755(3)
O9A O -0.19186(15) -0.02375(7) 0.0424(3)
O10A O 0.02392(13) 0.03510(6) 0.2373(2)
O11A O -0.12856(15) -0.07790(7) 0.1055(3)
N1A N 0.16559(18) 0.03917(7) -0.2537(3)
N2A N 0.09833(17) 0.19771(7) -0.0903(3)
C1A C -0.0799(2) 0.07411(9) 0.1588(4)
C2A C -0.0634(3) 0.09866(10) 0.2380(5)
H1A H -0.0389 0.0949 0.3124
C3A C -0.0834(4) 0.12876(12) 0.2066(6)
H2A H -0.0730 0.1452 0.2610
C4A C -0.1174(4) 0.13463(12) 0.0989(6)
H3A H -0.1292 0.1551 0.0774
C5A C -0.1346(4) 0.11070(13) 0.0212(6)
H4A H -0.1597 0.1147 -0.0524
C6A C -0.1152(3) 0.08013(12) 0.0508(5)
H5A H -0.1263 0.0638 -0.0038
C7A C 0.1017(2) 0.05313(9) -0.2605(4)
H6A H 0.0636 0.0415 -0.2907
C8A C 0.0895(2) 0.08340(10) -0.2257(4)
H7A H 0.0438 0.0916 -0.2301
C9A C 0.1450(2) 0.10208(9) -0.1838(4)
C10A C 0.2120(2) 0.08836(10) -0.1808(4)
H8A H 0.2512 0.1001 -0.1559
C11A C 0.2203(2) 0.05718(10) -0.2148(4)
H9A H 0.2654 0.0483 -0.2107
C12A C 0.1590(2) 0.18965(9) -0.1469(4)
H10A H 0.1905 0.2055 -0.1691
C13A C 0.1773(2) 0.15922(10) -0.1740(4)
H11A H 0.2210 0.1548 -0.2108
C14A C 0.0532(2) 0.17432(9) -0.0592(4)
H12A H 0.0112 0.1793 -0.0179
C15A C 0.1306(2) 0.13498(9) -0.1464(4)
C16A C 0.0674(2) 0.14336(9) -0.0867(4)
H13A H 0.0346 0.1280 -0.0652
O12A O 0.21987(15) -0.01794(7) -0.1471(3)
H14A H 0.2630(9) -0.0220(10) -0.162(4)
H15A H 0.211(2) -0.0029(7) -0.098(3)
Cu1_2 Cu -0.16657(3) 0.006770(11) 0.70295(5)
Cu1A_2 Cu 0.16657(3) -0.006770(11) 0.70295(5)
Cu1N Cu -0.08343(3) -0.243230(11) -0.04705(5)
Cu1O Cu 0.08343(3) 0.243230(11) -0.04705(5)
O2_2 O 0.14282(14) 0.00538(6) -0.4691(3)
O2A_2 O -0.14282(14) -0.00538(6) -0.4691(3)
N2J N -0.15167(17) 0.05229(7) -0.3403(3)
N2K N 0.15167(17) -0.05229(7) -0.3403(3)
loop_
_geom_bond_atom_site_label_1
_geom_bond_atom_site_label_2
_geom_bond_site_symmetry_1
_geom_bond_site_symmetry_2
Mo1 O4 1_555 1_555
Mo2 O1 1_555 1_555
Mo3 O1 1_555 1_555
Cu1 O6 1_555 1_555
P1 O3 1_555 1_555
O2 Mo3 1_555 1_555
O3 Mo3 1_555 1_555
O4 Mo2 1_555 1_555
O5 Mo3 1_555 1_555
O6 Mo1 1_555 1_555
O7 Mo1 1_555 1_555
O8 Mo3 1_555 1_555
O9 Mo2 1_555 1_555
O10 P1 1_555 1_555
O11 Mo2 1_555 1_555
N1 Cu1 1_555 1_555
N2 C12 1_555 1_555
C1 P1 1_555 1_555
C2 C1 1_555 1_555
H1 C2 1_555 1_555
C3 C2 1_555 1_555
H2 C3 1_555 1_555
C4 C3 1_555 1_555
H3 C4 1_555 1_555
C5 C4 1_555 1_555
H4 C5 1_555 1_555
C6 C1 1_555 1_555
H5 C6 1_555 1_555
C7 N1 1_555 1_555
H6 C7 1_555 1_555
C8 C7 1_555 1_555
H7 C8 1_555 1_555
C9 C8 1_555 1_555
C10 C9 1_555 1_555
H8 C10 1_555 1_555
C11 N1 1_555 1_555
H9 C11 1_555 1_555
C12 H10 1_555 1_555
C13 C12 1_555 1_555
H11 C13 1_555 1_555
C14 N2 1_555 1_555
H12 C14 1_555 1_555
C15 C9 1_555 1_555
C16 C14 1_555 1_555
H13 C16 1_555 1_555
O12 Cu1 1_555 1_555
H14 O12 1_555 1_555
H15 O12 1_555 1_555
Mo2A O10 1_555 1_555
Mo3A O5 1_555 1_555
Cu1A O6A 1_555 1_555
P1A O3A 1_555 1_555
O1A Mo2A 1_555 1_555
O2A Mo3A 1_555 1_555
O3A Mo3A 1_555 1_555
O4A Mo1 1_555 1_555
O6A Mo1 1_555 1_555
O7A Mo1 1_555 1_555
O8A Mo3A 1_555 1_555
O9A Mo2A 1_555 1_555
O10A Mo2 1_555 1_555
O11A Mo2A 1_555 1_555
N1A Cu1A 1_555 1_555
N2A C12A 1_555 1_555
C1A P1A 1_555 1_555
C2A C1A 1_555 1_555
H1A C2A 1_555 1_555
C3A C2A 1_555 1_555
H2A C3A 1_555 1_555
C4A C3A 1_555 1_555
H3A C4A 1_555 1_555
C5A C4A 1_555 1_555
H4A C5A 1_555 1_555
C6A C1A 1_555 1_555
H5A C6A 1_555 1_555
C7A N1A 1_555 1_555
H6A C7A 1_555 1_555
C8A C7A 1_555 1_555
H7A C8A 1_555 1_555
C9A C8A 1_555 1_555
C10A C9A 1_555 1_555
H8A C10A 1_555 1_555
C11A N1A 1_555 1_555
H9A C11A 1_555 1_555
C12A H10A 1_555 1_555
C13A C12A 1_555 1_555
H11A C13A 1_555 1_555
C14A N2A 1_555 1_555
H12A C14A 1_555 1_555
C15A C9A 1_555 1_555
C16A C14A 1_555 1_555
H13A C16A 1_555 1_555
O12A Cu1A 1_555 1_555
H14A O12A 1_555 1_555
H15A O12A 1_555 1_555
Cu1_2 O2A 1_555 1_555
Cu1A_2 O2 1_555 1_555
Cu1N N2 1_555 1_555
Cu1O N2A 1_555 1_555
O2_2 Cu1A 1_555 1_555
O2A_2 Cu1 1_555 1_555
N2J Cu1 1_555 1_555
N2K Cu1A 1_555 1_555
Mo2 O7 1_555 1_555
Mo3 O10A 1_555 1_555
P1 O7 1_555 1_555
O10 Mo3A 1_555 1_555
C5 C6 1_555 1_555
C10 C11 1_555 1_555
C13 C15 1_555 1_555
C15 C16 1_555 1_555
Mo2A O4A 1_555 1_555
Mo2A O7A 1_555 1_555
Mo3A O1A 1_555 1_555
P1A O7A 1_555 1_555
P1A O10A 1_555 1_555
C5A C6A 1_555 1_555
C10A C11A 1_555 1_555
C13A C15A 1_555 1_555
C15A C16A 1_555 1_555

#END
