
#######################################################################
#
#                 Cambridge Crystallographic Data Centre
#                                CCDC 
#
#######################################################################
#
# If this CIF has been generated from an entry in the Cambridge 
# Structural Database, then it will include bibliographic, chemical, 
# crystal, experimental, refinement or atomic coordinate data resulting 
# from the CCDC's data processing and validation procedures.
#
#######################################################################

data_ROTPAT
_symmetry_cell_setting           monoclinic
_symmetry_space_group_name_H-M   'P 21/n'
_symmetry_Int_Tables_number      14
_space_group_name_Hall           '-P 2yn'
loop_
_symmetry_equiv_pos_site_id
_symmetry_equiv_pos_as_xyz
1 x,y,z
2 1/2-x,1/2+y,1/2-z
3 -x,-y,-z
4 1/2+x,1/2-y,1/2+z
_cell_length_a                   9.011(5)
_cell_length_b                   13.147(5)
_cell_length_c                   28.371(5)
_cell_angle_alpha                90
_cell_angle_beta                 89.57(11)
_cell_angle_gamma                90
_cell_volume                     3360.95
loop_
_atom_site_label
_atom_site_type_symbol
_atom_site_fract_x
_atom_site_fract_y
_atom_site_fract_z
Cr1 Cr 0.56352(17) 0.22402(15) 0.74860(5)
Cr2 Cr 0.57478(18) 0.24059(15) 0.50326(5)
Ca1 Ca 1.0688(2) 0.22459(19) 0.62550(7)
O1 O 0.6530(7) 0.1387(6) 0.6996(2)
O2 O 0.7494(7) 0.3023(6) 0.7420(2)
O3 O 0.8605(8) 0.1282(6) 0.6552(2)
O4 O 0.9510(7) 0.3088(6) 0.6953(2)
C1 C 0.7798(12) 0.1716(9) 0.6845(3)
C2 C 0.8359(10) 0.2698(9) 0.7086(3)
O5 O 0.7610(7) 0.1611(6) 0.5064(2)
O6 O 0.6723(8) 0.3257(7) 0.5503(2)
O7 O 0.9533(8) 0.1449(7) 0.5546(2)
O8 O 0.8697(8) 0.3258(7) 0.5959(3)
C3 C 0.8425(10) 0.1888(9) 0.5411(3)
C4 C 0.7937(13) 0.2895(10) 0.5652(3)
N1 N 0.6544(8) 0.1350(7) 0.8011(3)
N2 N 0.4889(8) 0.3026(7) 0.8075(3)
C5 C 0.7377(12) 0.0499(10) 0.7964(4)
H1 H 0.7522 0.0225 0.7665
C6 C 0.8018(12) 0.0022(10) 0.8345(4)
H2 H 0.8612 -0.0548 0.83
C7 C 0.7778(13) 0.0390(10) 0.8781(4)
H3 H 0.8206 0.0072 0.9039
C8 C 0.6866(12) 0.1269(9) 0.8849(3)
C9 C 0.6289(11) 0.1699(8) 0.8447(3)
C10 C 0.5393(10) 0.2611(8) 0.8487(3)
C11 C 0.5055(11) 0.3017(10) 0.8932(3)
C12 C 0.4112(12) 0.3875(10) 0.8941(4)
H4 H 0.3844 0.4171 0.9227
C13 C 0.3599(12) 0.4262(10) 0.8532(4)
H5 H 0.2953 0.4814 0.8535
C14 C 0.4042(12) 0.3833(9) 0.8107(4)
H6 H 0.372 0.4135 0.7829
C15 C 0.6505(13) 0.1714(11) 0.9294(3)
H7 H 0.686 0.1413 0.9568
C16 C 0.5666(15) 0.2554(11) 0.9329(4)
H8 H 0.5487 0.2835 0.9624
N3 N 0.6524(10) 0.3298(7) 0.4485(3)
N4 N 0.4879(9) 0.1629(7) 0.4463(2)
C17 C 0.7333(16) 0.4128(11) 0.4495(4)
H9 H 0.7588 0.4392 0.4788
C18 C 0.7836(17) 0.4642(11) 0.4090(6)
H10 H 0.8473 0.5196 0.4114
C19 C 0.7372(17) 0.4311(12) 0.3670(5)
H11 H 0.7633 0.4665 0.3398
C20 C 0.6508(12) 0.3444(10) 0.3638(3)
C21 C 0.6093(11) 0.2955(9) 0.4060(3)
C22 C 0.5213(10) 0.2050(8) 0.4047(3)
C23 C 0.4732(12) 0.1682(11) 0.3616(4)
C24 C 0.3813(16) 0.0809(12) 0.3640(5)
H12 H 0.3439 0.0526 0.3365
C25 C 0.3486(15) 0.0394(11) 0.4053(5)
H13 H 0.2878 -0.0178 0.4063
C26 C 0.4021(13) 0.0786(9) 0.4467(4)
H14 H 0.3792 0.047 0.4752
C27 C 0.5987(15) 0.3041(14) 0.3204(4)
H15 H 0.6234 0.3364 0.2922
C28 C 0.5155(15) 0.2212(14) 0.3197(3)
H16 H 0.4834 0.1965 0.2908
O9 O 0.3771(7) 0.1492(6) 0.7433(2)
O10 O 0.4673(7) 0.3157(6) 0.7044(2)
O11 O 0.1809(8) 0.1412(6) 0.6962(2)
O12 O 0.2739(8) 0.3230(6) 0.6567(3)
C29 C 0.2948(11) 0.1798(9) 0.7100(3)
C30 C 0.3448(11) 0.2822(9) 0.6872(3)
O13 O 0.4833(8) 0.1486(6) 0.5489(2)
O14 O 0.3897(7) 0.3162(6) 0.5122(2)
O15 O 0.2795(8) 0.1311(6) 0.5939(2)
O16 O 0.1811(8) 0.3115(7) 0.5555(2)
C31 C 0.3563(12) 0.1773(9) 0.5647(3)
C32 C 0.3017(11) 0.2781(9) 0.5430(3)
Ca1_2 Ca 0.0688(2) 0.22459(19) 0.62550(7)
O11_2 O 1.1809(8) 0.1412(6) 0.6962(2)
O12_2 O 1.2739(8) 0.3230(6) 0.6567(3)
O15_2 O 1.2795(8) 0.1311(6) 0.5939(2)
O16_2 O 1.1811(8) 0.3115(7) 0.5555(2)
O17 O 0.146(3) 0.444(2) 0.7384(7)
H17 H 0.1838 0.4322 0.705
H18 H 0.0711 0.392 0.7391
loop_
_geom_bond_atom_site_label_1
_geom_bond_atom_site_label_2
_geom_bond_site_symmetry_1
_geom_bond_site_symmetry_2
Cr1 O1 1_555 1_555
Cr2 O5 1_555 1_555
Ca1 O3 1_555 1_555
O1 C1 1_555 1_555
O2 Cr1 1_555 1_555
O3 C1 1_555 1_555
O4 Ca1 1_555 1_555
C1 C2 1_555 1_555
C2 O2 1_555 1_555
O5 C3 1_555 1_555
O6 Cr2 1_555 1_555
O7 Ca1 1_555 1_555
O8 Ca1 1_555 1_555
C3 O7 1_555 1_555
C4 O6 1_555 1_555
N1 Cr1 1_555 1_555
N2 Cr1 1_555 1_555
C5 N1 1_555 1_555
H1 C5 1_555 1_555
C6 C5 1_555 1_555
H2 C6 1_555 1_555
C7 C6 1_555 1_555
H3 C7 1_555 1_555
C8 C7 1_555 1_555
C9 N1 1_555 1_555
C10 N2 1_555 1_555
C11 C10 1_555 1_555
C12 C11 1_555 1_555
H4 C12 1_555 1_555
C13 C12 1_555 1_555
H5 C13 1_555 1_555
C14 N2 1_555 1_555
H6 C14 1_555 1_555
C15 C8 1_555 1_555
H7 C15 1_555 1_555
C16 C11 1_555 1_555
H8 C16 1_555 1_555
N3 Cr2 1_555 1_555
N4 Cr2 1_555 1_555
C17 N3 1_555 1_555
H9 C17 1_555 1_555
C18 C17 1_555 1_555
H10 C18 1_555 1_555
C19 C18 1_555 1_555
H11 C19 1_555 1_555
C20 C19 1_555 1_555
C21 N3 1_555 1_555
C22 N4 1_555 1_555
C23 C22 1_555 1_555
C24 C23 1_555 1_555
H12 C24 1_555 1_555
C25 C24 1_555 1_555
H13 C25 1_555 1_555
C26 N4 1_555 1_555
H14 C26 1_555 1_555
C27 C20 1_555 1_555
H15 C27 1_555 1_555
C28 C23 1_555 1_555
H16 C28 1_555 1_555
O9 Cr1 1_555 1_555
O10 Cr1 1_555 1_555
O11 C29 1_555 1_555
O12 C30 1_555 1_555
C29 O9 1_555 1_555
C30 O10 1_555 1_555
O13 Cr2 1_555 1_555
O14 Cr2 1_555 1_555
O15 C31 1_555 1_555
O16 C32 1_555 1_555
C31 O13 1_555 1_555
C32 O14 1_555 1_555
O17 H17 1_555 1_555
H18 O17 1_555 1_555
Ca1_2 O11 1_555 1_555
O11_2 Ca1 1_555 1_555
O12_2 Ca1 1_555 1_555
O15_2 Ca1 1_555 1_555
O16_2 Ca1 1_555 1_555
O4 C2 1_555 1_555
O8 C4 1_555 1_555
C3 C4 1_555 1_555
C8 C9 1_555 1_555
C9 C10 1_555 1_555
C13 C14 1_555 1_555
C15 C16 1_555 1_555
C20 C21 1_555 1_555
C21 C22 1_555 1_555
C25 C26 1_555 1_555
C27 C28 1_555 1_555
O12 Ca1_2 1_555 1_555
C29 C30 1_555 1_555
O15 Ca1_2 1_555 1_555
O16 Ca1_2 1_555 1_555
C31 C32 1_555 1_555

#END
