
#######################################################################
#
#                 Cambridge Crystallographic Data Centre
#                                CCDC 
#
#######################################################################
#
# If this CIF has been generated from an entry in the Cambridge 
# Structural Database, then it will include bibliographic, chemical, 
# crystal, experimental, refinement or atomic coordinate data resulting 
# from the CCDC's data processing and validation procedures.
#
#######################################################################

data_ROTPEX
_symmetry_cell_setting           monoclinic
_symmetry_space_group_name_H-M   'P 21/n'
_symmetry_Int_Tables_number      14
_space_group_name_Hall           '-P 2yn'
loop_
_symmetry_equiv_pos_site_id
_symmetry_equiv_pos_as_xyz
1 x,y,z
2 1/2-x,1/2+y,1/2-z
3 -x,-y,-z
4 1/2+x,1/2-y,1/2+z
_cell_length_a                   10.578(2)
_cell_length_b                   7.289(2)
_cell_length_c                   10.799(2)
_cell_angle_alpha                90
_cell_angle_beta                 95.570(10)
_cell_angle_gamma                90
_cell_volume                     828.704
loop_
_atom_site_label
_atom_site_type_symbol
_atom_site_fract_x
_atom_site_fract_y
_atom_site_fract_z
C1 C 0.6703(5) 0.3464(7) 0.2390(4)
C2 C 0.6755(5) 0.3038(6) 0.1008(5)
H1 H 0.7392 0.2082 0.0922
C3 C 0.7137(5) 0.4765(7) 0.0347(4)
H2 H 0.6416 0.5592 0.0245
H3 H 0.7811 0.5378 0.0863
C4 C 0.7590(4) 0.4379(7) -0.0922(4)
O1 O 0.5662(4) 0.3370(6) 0.2867(3)
O2 O 0.5535(3) 0.2372(6) 0.0520(3)
O3 O 0.4777(3) -0.0996(5) 0.1978(3)
O4 O 0.7132(4) 0.5244(6) -0.1855(3)
O5 O 0.2571(3) 0.0962(6) 0.0447(3)
O6 O 0.7714(3) 0.3928(6) 0.2988(3)
O7 O 0.8446(4) 0.3195(5) -0.0984(4)
Ba1 Ba 0.39004(3) 0.19610(5) 0.20135(3)
H4 H 0.256(7) 0.128(12) -0.036(2)
H5 H 0.471(7) -0.178(7) 0.260(4)
H6 H 0.5618(13) -0.101(8) 0.195(6)
H7 H 0.175(2) 0.094(10) 0.059(6)
H8 H 0.570(8) 0.186(10) -0.015(4)
O4B O 0.2868(4) 0.4756(6) 0.1855(3)
O4C O 0.2132(4) -0.0244(6) 0.3145(3)
O7C O 0.3446(4) 0.1805(5) 0.4016(4)
Ba1B Ba 0.60996(3) 0.80390(5) -0.20135(3)
Ba1C Ba 0.89004(3) 0.30390(5) -0.29865(3)
O8 O 1.0127(4) 0.1666(6) 0.0956(4)
H9 H 0.952(10) 0.224(18) 0.046(11)
H10 H 0.984(12) 0.064(11) 0.129(12)
loop_
_geom_bond_atom_site_label_1
_geom_bond_atom_site_label_2
_geom_bond_site_symmetry_1
_geom_bond_site_symmetry_2
C1 C2 1_555 1_555
C2 H1 1_555 1_555
C3 C2 1_555 1_555
H2 C3 1_555 1_555
H3 C3 1_555 1_555
C4 C3 1_555 1_555
O1 C1 1_555 1_555
O2 C2 1_555 1_555
O3 Ba1 1_555 1_555
O4 C4 1_555 1_555
O5 Ba1 1_555 1_555
O6 C1 1_555 1_555
O7 C4 1_555 1_555
Ba1 O1 1_555 1_555
H4 O5 1_555 1_555
H5 O3 1_555 1_555
H6 O3 1_555 1_555
H7 O5 1_555 1_555
H8 O2 1_555 1_555
O8 H9 1_555 1_555
H10 O8 1_555 1_555
O4B Ba1 1_555 1_555
O4C Ba1 1_555 1_555
O7C Ba1 1_555 1_555
Ba1B O4 1_555 1_555
Ba1C O4 1_555 1_555
O2 Ba1 1_555 1_555
O7 Ba1C 1_555 1_555

#END
