
#######################################################################
#
#                 Cambridge Crystallographic Data Centre
#                                CCDC 
#
#######################################################################
#
# If this CIF has been generated from an entry in the Cambridge 
# Structural Database, then it will include bibliographic, chemical, 
# crystal, experimental, refinement or atomic coordinate data resulting 
# from the CCDC's data processing and validation procedures.
#
#######################################################################

data_ROVNEX
_symmetry_cell_setting           monoclinic
_symmetry_space_group_name_H-M   'P 21/n'
_symmetry_Int_Tables_number      14
_space_group_name_Hall           '-P 2yn'
loop_
_symmetry_equiv_pos_site_id
_symmetry_equiv_pos_as_xyz
1 x,y,z
2 1/2-x,1/2+y,1/2-z
3 -x,-y,-z
4 1/2+x,1/2-y,1/2+z
_cell_length_a                   11.2774(6)
_cell_length_b                   16.0343(8)
_cell_length_c                   15.8148(10)
_cell_angle_alpha                90
_cell_angle_beta                 96.240(5)
_cell_angle_gamma                90
_cell_volume                     2842.77
loop_
_atom_site_label
_atom_site_type_symbol
_atom_site_fract_x
_atom_site_fract_y
_atom_site_fract_z
Co1 Co 0.0000 0.5000 0.0000
Co2 Co 0.5000 0.5000 0.0000
N1 N 0.1406(4) 0.5569(3) -0.0522(3)
C1 C 0.2349(4) 0.5834(3) -0.0614(3)
S1 S 0.36727(11) 0.62022(9) -0.07196(9)
N2 N 0.3571(4) 0.4366(3) 0.0388(3)
C2 C 0.2630(4) 0.4123(3) 0.0496(3)
S2 S 0.13071(11) 0.37901(9) 0.06475(9)
N3 N 0.0380(4) 0.5749(3) 0.1133(3)
C3 C 0.1469(5) 0.6009(4) 0.1422(3)
H1 H 0.2109 0.5814 0.1155
C4 C 0.1702(5) 0.6550(4) 0.2095(3)
H2 H 0.2482 0.6717 0.2263
C5 C 0.0783(5) 0.6848(3) 0.2522(3)
C6 C -0.0357(5) 0.6566(4) 0.2237(4)
H3 H -0.1007 0.6740 0.2506
C7 C -0.0519(5) 0.6033(4) 0.1560(3)
H4 H -0.1291 0.5854 0.1382
C8 C 0.0981(7) 0.7441(4) 0.3257(4)
H5 H 0.0339 0.7847 0.3213
H6 H 0.1721 0.7740 0.3220
C9 C 0.1038(6) 0.7015(4) 0.4127(4)
H7 H 0.1051 0.7441 0.4563
H8 H 0.0319 0.6688 0.4149
C10 C 0.2112(6) 0.6450(5) 0.4329(4)
H9 H 0.2061 0.5990 0.3928
H10 H 0.2832 0.6761 0.4257
C11 C 0.2199(6) 0.6107(4) 0.5221(4)
C12 C 0.2791(7) 0.6543(5) 0.5885(5)
H11 H 0.3158 0.7046 0.5782
C13 C 0.2843(8) 0.6239(6) 0.6704(5)
H12 H 0.3263 0.6537 0.7145
C14 C 0.2295(9) 0.5514(6) 0.6881(5)
H13 H 0.2329 0.5317 0.7436
C15 C 0.1697(9) 0.5085(5) 0.6229(5)
H14 H 0.1298 0.4596 0.6338
C16 C 0.1677(7) 0.5369(5) 0.5406(5)
H15 H 0.1298 0.5052 0.4964
N4 N 0.5224(4) 0.5665(3) 0.1202(3)
C17 C 0.5711(7) 0.6422(4) 0.1282(4)
H16 H 0.5953 0.6673 0.0800
C18 C 0.5874(7) 0.6848(4) 0.2028(4)
H17 H 0.6278 0.7355 0.2052
C19 C 0.5453(7) 0.6541(4) 0.2742(4)
C20 C 0.4980(7) 0.5746(5) 0.2668(4)
H18 H 0.4716 0.5488 0.3140
C21 C 0.4896(6) 0.5336(4) 0.1907(4)
H19 H 0.4591 0.4797 0.1883
C22 C 0.5497(8) 0.7022(5) 0.3566(5)
H20 H 0.5812 0.7575 0.3478
H21 H 0.4691 0.7088 0.3715
C23 C 0.6213(11) 0.6635(5) 0.4269(5)
H22 H 0.7026 0.6592 0.4127
H23 H 0.5921 0.6073 0.4337
C24 C 0.6230(7) 0.7089(4) 0.5124(4)
H24 H 0.6453 0.7668 0.5056
H25 H 0.5440 0.7077 0.5312
C25 C 0.7101(6) 0.6681(4) 0.5777(4)
C26 C 0.8300(8) 0.6777(5) 0.5767(5)
H26 H 0.8569 0.7120 0.5354
C27 C 0.9133(8) 0.6392(5) 0.6337(6)
H27 H 0.9945 0.6472 0.6310
C28 C 0.8730(8) 0.5886(5) 0.6947(5)
H28 H 0.9274 0.5614 0.7336
C29 C 0.7560(9) 0.5782(6) 0.6984(5)
H29 H 0.7302 0.5450 0.7410
C30 C 0.6732(7) 0.6158(5) 0.6404(5)
H30 H 0.5923 0.6064 0.6430
N1B N -0.1406(4) 0.4431(3) 0.0522(3)
C1B C -0.2349(4) 0.4166(3) 0.0614(3)
S1B S -0.36727(11) 0.37978(9) 0.07196(9)
N2B N -0.3571(4) 0.5634(3) -0.0388(3)
C2B C -0.2630(4) 0.5877(3) -0.0496(3)
S2B S -0.13071(11) 0.62099(9) -0.06475(9)
N3B N -0.0380(4) 0.4251(3) -0.1133(3)
C3B C -0.1469(5) 0.3991(4) -0.1422(3)
H1B H -0.2109 0.4186 -0.1155
C4B C -0.1702(5) 0.3450(4) -0.2095(3)
H2B H -0.2482 0.3283 -0.2263
C5B C -0.0783(5) 0.3152(3) -0.2522(3)
C6B C 0.0357(5) 0.3434(4) -0.2237(4)
H3B H 0.1007 0.3260 -0.2506
C7B C 0.0519(5) 0.3967(4) -0.1560(3)
H4B H 0.1291 0.4146 -0.1382
C8B C -0.0981(7) 0.2559(4) -0.3257(4)
H5B H -0.0339 0.2153 -0.3213
H6B H -0.1721 0.2260 -0.3220
C9B C -0.1038(6) 0.2985(4) -0.4127(4)
H7B H -0.1051 0.2559 -0.4563
H8B H -0.0319 0.3312 -0.4149
C10B C -0.2112(6) 0.3550(5) -0.4329(4)
H9B H -0.2061 0.4010 -0.3928
H10B H -0.2832 0.3239 -0.4257
C11B C -0.2199(6) 0.3893(4) -0.5221(4)
C12B C -0.2791(7) 0.3457(5) -0.5885(5)
H11B H -0.3158 0.2954 -0.5782
C13B C -0.2843(8) 0.3761(6) -0.6704(5)
H12B H -0.3263 0.3463 -0.7145
C14B C -0.2295(9) 0.4486(6) -0.6881(5)
H13B H -0.2329 0.4683 -0.7436
C15B C -0.1697(9) 0.4915(5) -0.6229(5)
H14B H -0.1298 0.5404 -0.6338
C16B C -0.1677(7) 0.4631(5) -0.5406(5)
H15B H -0.1298 0.4948 -0.4964
N4B N 0.4776(4) 0.4335(3) -0.1202(3)
C17B C 0.4289(7) 0.3578(4) -0.1282(4)
H16B H 0.4047 0.3327 -0.0800
C18B C 0.4126(7) 0.3152(4) -0.2028(4)
H17B H 0.3722 0.2645 -0.2052
C19B C 0.4547(7) 0.3459(4) -0.2742(4)
C20B C 0.5020(7) 0.4254(5) -0.2668(4)
H18B H 0.5284 0.4512 -0.3140
C21B C 0.5104(6) 0.4664(4) -0.1907(4)
H19B H 0.5409 0.5203 -0.1883
C22B C 0.4503(8) 0.2978(5) -0.3566(5)
H20B H 0.4188 0.2425 -0.3478
H21B H 0.5309 0.2912 -0.3715
C23B C 0.3787(11) 0.3365(5) -0.4269(5)
H22B H 0.2974 0.3408 -0.4127
H23B H 0.4079 0.3927 -0.4337
C24B C 0.3770(7) 0.2911(4) -0.5124(4)
H24B H 0.3547 0.2332 -0.5056
H25B H 0.4560 0.2923 -0.5312
C25B C 0.2899(6) 0.3319(4) -0.5777(4)
C26B C 0.1700(8) 0.3223(5) -0.5767(5)
H26B H 0.1431 0.2880 -0.5354
C27B C 0.0867(8) 0.3608(5) -0.6337(6)
H27B H 0.0055 0.3528 -0.6310
C28B C 0.1270(8) 0.4114(5) -0.6947(5)
H28B H 0.0726 0.4386 -0.7336
C29B C 0.2440(9) 0.4218(6) -0.6984(5)
H29B H 0.2698 0.4550 -0.7410
C30B C 0.3268(7) 0.3842(5) -0.6404(5)
H30B H 0.4077 0.3936 -0.6430
Co2_2 Co -0.5000 0.5000 0.0000
S1B_2 S 0.63273(11) 0.37978(9) 0.07196(9)
N2B_2 N 0.6429(4) 0.5634(3) -0.0388(3)
loop_
_geom_bond_atom_site_label_1
_geom_bond_atom_site_label_2
_geom_bond_site_symmetry_1
_geom_bond_site_symmetry_2
Co1 N1 1_555 1_555
Co2 S1 1_555 1_555
N1 C1 1_555 1_555
C1 S1 1_555 1_555
N2 Co2 1_555 1_555
C2 N2 1_555 1_555
S2 Co1 1_555 1_555
N3 Co1 1_555 1_555
C3 N3 1_555 1_555
H1 C3 1_555 1_555
C4 C3 1_555 1_555
H2 C4 1_555 1_555
C5 C4 1_555 1_555
C6 C5 1_555 1_555
H3 C6 1_555 1_555
C7 N3 1_555 1_555
H4 C7 1_555 1_555
C8 C5 1_555 1_555
H5 C8 1_555 1_555
H6 C8 1_555 1_555
C9 C8 1_555 1_555
H7 C9 1_555 1_555
H8 C9 1_555 1_555
C10 C9 1_555 1_555
H9 C10 1_555 1_555
H10 C10 1_555 1_555
C11 C10 1_555 1_555
C12 C11 1_555 1_555
H11 C12 1_555 1_555
C13 C12 1_555 1_555
H12 C13 1_555 1_555
C14 C13 1_555 1_555
H13 C14 1_555 1_555
C15 C14 1_555 1_555
H14 C15 1_555 1_555
C16 C11 1_555 1_555
H15 C16 1_555 1_555
N4 Co2 1_555 1_555
C17 N4 1_555 1_555
H16 C17 1_555 1_555
C18 C17 1_555 1_555
H17 C18 1_555 1_555
C19 C18 1_555 1_555
C20 C19 1_555 1_555
H18 C20 1_555 1_555
C21 N4 1_555 1_555
H19 C21 1_555 1_555
C22 C19 1_555 1_555
H20 C22 1_555 1_555
H21 C22 1_555 1_555
C23 C22 1_555 1_555
H22 C23 1_555 1_555
H23 C23 1_555 1_555
C24 C23 1_555 1_555
H24 C24 1_555 1_555
H25 C24 1_555 1_555
C25 C24 1_555 1_555
C26 C25 1_555 1_555
H26 C26 1_555 1_555
C27 C26 1_555 1_555
H27 C27 1_555 1_555
C28 C27 1_555 1_555
H28 C28 1_555 1_555
C29 C28 1_555 1_555
H29 C29 1_555 1_555
C30 C25 1_555 1_555
H30 C30 1_555 1_555
N1B Co1 1_555 1_555
C1B N1B 1_555 1_555
S1B C1B 1_555 1_555
N2B C2B 1_555 1_555
C2B S2B 1_555 1_555
S2B Co1 1_555 1_555
N3B Co1 1_555 1_555
C3B N3B 1_555 1_555
H1B C3B 1_555 1_555
C4B C3B 1_555 1_555
H2B C4B 1_555 1_555
C5B C4B 1_555 1_555
C6B C5B 1_555 1_555
H3B C6B 1_555 1_555
C7B N3B 1_555 1_555
H4B C7B 1_555 1_555
C8B C5B 1_555 1_555
H5B C8B 1_555 1_555
H6B C8B 1_555 1_555
C9B C8B 1_555 1_555
H7B C9B 1_555 1_555
H8B C9B 1_555 1_555
C10B C9B 1_555 1_555
H9B C10B 1_555 1_555
H10B C10B 1_555 1_555
C11B C10B 1_555 1_555
C12B C11B 1_555 1_555
H11B C12B 1_555 1_555
C13B C12B 1_555 1_555
H12B C13B 1_555 1_555
C14B C13B 1_555 1_555
H13B C14B 1_555 1_555
C15B C14B 1_555 1_555
H14B C15B 1_555 1_555
C16B C11B 1_555 1_555
H15B C16B 1_555 1_555
N4B Co2 1_555 1_555
C17B N4B 1_555 1_555
H16B C17B 1_555 1_555
C18B C17B 1_555 1_555
H17B C18B 1_555 1_555
C19B C18B 1_555 1_555
C20B C19B 1_555 1_555
H18B C20B 1_555 1_555
C21B N4B 1_555 1_555
H19B C21B 1_555 1_555
C22B C19B 1_555 1_555
H20B C22B 1_555 1_555
H21B C22B 1_555 1_555
C23B C22B 1_555 1_555
H22B C23B 1_555 1_555
H23B C23B 1_555 1_555
C24B C23B 1_555 1_555
H24B C24B 1_555 1_555
H25B C24B 1_555 1_555
C25B C24B 1_555 1_555
C26B C25B 1_555 1_555
H26B C26B 1_555 1_555
C27B C26B 1_555 1_555
H27B C27B 1_555 1_555
C28B C27B 1_555 1_555
H28B C28B 1_555 1_555
C29B C28B 1_555 1_555
H29B C29B 1_555 1_555
C30B C25B 1_555 1_555
H30B C30B 1_555 1_555
Co2_2 S1B 1_555 1_555
S1B_2 Co2 1_555 1_555
N2B_2 Co2 1_555 1_555
C2 S2 1_555 1_555
C6 C7 1_555 1_555
C15 C16 1_555 1_555
C20 C21 1_555 1_555
C29 C30 1_555 1_555
N2B Co2_2 1_555 1_555
C6B C7B 1_555 1_555
C15B C16B 1_555 1_555
C20B C21B 1_555 1_555
C29B C30B 1_555 1_555

#END
