
#######################################################################
#
#                 Cambridge Crystallographic Data Centre
#                                CCDC 
#
#######################################################################
#
# If this CIF has been generated from an entry in the Cambridge 
# Structural Database, then it will include bibliographic, chemical, 
# crystal, experimental, refinement or atomic coordinate data resulting 
# from the CCDC's data processing and validation procedures.
#
#######################################################################

data_ROVPUP
_symmetry_cell_setting           orthorhombic
_symmetry_space_group_name_H-M   'P 21 21 21'
_symmetry_Int_Tables_number      19
_space_group_name_Hall           'P 2ac 2ab'
loop_
_symmetry_equiv_pos_site_id
_symmetry_equiv_pos_as_xyz
1 x,y,z
2 1/2-x,-y,1/2+z
3 -x,1/2+y,1/2-z
4 1/2+x,1/2-y,-z
_cell_length_a                   14.493(3)
_cell_length_b                   18.343(4)
_cell_length_c                   22.876(5)
_cell_angle_alpha                90
_cell_angle_beta                 90
_cell_angle_gamma                90
_cell_volume                     6081.47
loop_
_atom_site_label
_atom_site_type_symbol
_atom_site_fract_x
_atom_site_fract_y
_atom_site_fract_z
Co1 Co 0.50938(6) 1.06384(5) 0.13286(4)
Co2 Co 0.49680(6) 1.06708(5) 0.63288(4)
P1 P 0.63712(12) 0.93077(10) 0.60609(8)
P2 P 0.38105(12) 0.91795(10) 0.14952(8)
C1 C 0.5797(6) 0.8169(4) 0.6663(3)
H1 H 0.5715 0.7788 0.6374
H2 H 0.5235 0.8455 0.6679
C2 C 0.4852(6) 1.1305(5) 0.3185(3)
H3 H 0.4695 1.1736 0.3375
C3 C 0.5037(5) 1.0673(4) 0.3509(3)
C4 C 0.5252(5) 1.0037(4) 0.3195(3)
H4 H 0.5356 0.9602 0.3394
C5 C 0.5000(5) 1.0670(4) 0.4159(3)
C6 C 0.4665(5) 1.0084(4) 0.4481(3)
H5 H 0.4463 0.9662 0.4296
C7 C 0.5186(6) 1.1231(4) 0.0065(3)
H6 H 0.5205 1.1673 0.0263
C8 C 0.5109(6) 0.9984(4) 0.0072(3)
H7 H 0.5083 0.9550 0.0282
C9 C 0.5091(6) 0.9944(4) -0.0531(3)
H8 H 0.5046 0.9495 -0.0718
C10 C 0.5141(5) 1.0583(4) -0.0853(3)
C11 C 0.5097(5) 1.0584(4) -0.1504(3)
C12 C 0.4739(6) 1.0013(4) -0.1816(3)
H9 H 0.4514 0.9605 -0.1620
C13 C 0.5416(5) 1.1188(4) -0.1818(3)
H10 H 0.5661 1.1589 -0.1624
C14 C 0.4638(5) 1.0142(4) 0.5086(3)
H11 H 0.4397 0.9754 0.5298
C15 C 0.5291(5) 1.1287(4) 0.5074(3)
H12 H 0.5518 1.1691 0.5274
C16 C 0.7243(5) 0.9482(3) 0.8634(3)
C17 C 0.7173(5) 0.9724(4) 0.7696(3)
H13 H 0.7081 0.9656 0.7297
C18 C 0.7453(5) 0.9588(4) 0.9601(3)
C19 C 0.7451(5) 1.0217(4) 0.8533(3)
C20 C 0.7672(5) 1.0664(4) 0.8998(3)
C21 C 0.2809(6) 0.9554(4) -0.0305(3)
H14 H 0.2932 0.9474 0.0089
C22 C 0.2582(5) 0.9349(4) -0.1230(3)
C23 C 0.2215(5) 1.0554(4) -0.1562(3)
C24 C 0.2483(5) 1.0071(4) -0.1107(4)
C25 C 0.3166(5) 0.7766(4) 0.0305(3)
H15 H 0.3220 0.7234 0.0289
C26 C 0.5322(5) 1.1280(4) 0.4461(3)
H16 H 0.5555 1.1679 0.4257
C27 C 0.5309(5) 1.0056(4) 0.2597(3)
H17 H 0.5468 0.9632 0.2399
C28 C 0.4905(6) 1.1287(5) 0.2584(3)
H18 H 0.4772 1.1709 0.2376
C29 C 0.4709(6) 1.0039(4) -0.2419(3)
H19 H 0.4469 0.9642 -0.2621
H20 H 0.5570 1.1591 -0.2623
C30 C 0.5360(5) 1.1179(4) -0.2419(3)
C31 C 0.6839(5) 0.8414(4) 0.7990(3)
H21 H 0.6785 0.8149 0.8360
C32 C 0.7506(5) 0.8022(4) 0.7591(3)
H22 H 0.7727 0.8356 0.7287
C33 C 0.6881(5) 0.7441(4) 0.7319(3)
H23 H 0.7124 0.7270 0.6943
C34 C 0.5979(5) 0.7837(4) 0.7244(3)
H24 H 0.5479 0.7493 0.7330
C35 C 0.2296(5) 0.9458(4) -0.2182(3)
C36 C 0.2847(5) 0.8211(4) -0.0633(3)
H25 H 0.2983 0.7975 -0.1008
C37 C 0.1968(5) 0.7897(4) -0.0374(4)
H26 H 0.1418 0.8171 -0.0491
C38 C 0.2164(5) 0.7959(4) 0.0281(3)
H27 H 0.2086 0.8468 0.0402
C39 C 0.3706(6) 0.8033(4) 0.0823(3)
H28 H 0.3474 0.7807 0.1177
H29 H 0.4351 0.7901 0.0779
C40 C 0.5186(6) 1.1240(4) -0.0537(3)
H30 H 0.5217 1.1681 -0.0736
N1 N 0.5142(4) 1.0674(3) 0.2283(2)
N2 N 0.5160(4) 1.0615(3) 0.0377(2)
N3 N 0.5017(4) 1.0622(3) -0.2727(2)
N4 N 0.4940(4) 1.0724(3) 0.5381(2)
N5 N 0.7467(5) 0.9329(4) 1.0148(3)
H31 H 0.7328 0.8881 1.0214
H32 H 0.7614 0.9611 1.0433
N6 N 0.7082(4) 0.9176(3) 0.8106(3)
N7 N 0.7403(5) 1.0353(3) 0.7931(3)
N8 N 0.2220(5) 0.9217(4) -0.2732(3)
H33 H 0.2300 0.8762 -0.2809
H34 H 0.2091 0.9517 -0.3010
N9 N 0.2643(4) 1.0193(4) -0.0518(3)
N10 N 0.2788(4) 0.9003(3) -0.0713(3)
N11 N 0.7222(5) 0.9141(3) 0.9163(3)
N12 N 0.7688(4) 1.0297(3) 0.9527(3)
H35 H 0.7859 1.0537 0.9831
N13 N 0.2493(5) 0.9003(4) -0.1757(3)
N14 N 0.2161(4) 1.0197(4) -0.2095(3)
H36 H 0.2033 1.0457 -0.2397
O1 O 0.6234(4) 1.1376(3) 0.1335(2)
H37 H 0.6813 1.1352 0.1390
H38 H 0.6122 1.1725 0.1123
O2 O 0.6055(4) 0.9774(3) 0.1329(3)
H39 H 0.5991 0.9386 0.1528
H40 H 0.6576 0.9934 0.1278
O3 O 0.3572(4) 0.8065(3) -0.0225(2)
O4 O 0.3608(4) 1.0245(3) 0.6311(2)
H41 H 0.3417 0.9807 0.6292
H42 H 0.3260 1.0518 0.6490
O5 O 0.4130(4) 1.1490(3) 0.1246(2)
H43 H 0.3761 1.1241 0.1454
H44 H 0.4294 1.1838 0.1445
O6 O 0.3971(3) 0.9973(2) 0.1352(2)
O7 O 0.7207(3) 0.9787(3) 0.6165(2)
O8 O 0.6352(4) 0.9007(3) 0.5442(2)
O9 O 0.5468(4) 0.9649(3) 0.6250(2)
O10 O 0.4466(4) 1.1746(3) 0.6415(2)
H45 H 0.4969 1.1532 0.6500
H46 H 0.4096 1.1763 0.6685
O11 O 0.7864(5) 1.1328(3) 0.8987(2)
O12 O 0.5963(4) 0.8414(3) 0.7693(2)
O13 O 0.8251(4) 0.7767(3) 0.7921(2)
H47 H 0.8576 0.7504 0.7717
O14 O 0.6735(4) 0.6855(3) 0.7711(2)
H48 H 0.7226 0.6648 0.7774
O15 O 0.2016(4) 1.1215(3) -0.1533(2)
O16 O 0.1592(4) 0.7504(3) 0.0636(2)
H49 H 0.1291 0.7758 0.0861
O17 O 0.3618(4) 0.8819(3) 0.0865(2)
O18 O 0.4638(4) 0.8792(3) 0.1756(2)
O19 O 0.2935(4) 0.9089(3) 0.1857(2)
O20 O 0.6554(4) 0.8626(3) 0.6498(2)
O21 O 0.6346(4) 1.1120(3) 0.6319(2)
H50 H 0.6689 1.1431 0.6150
H51 H 0.6575 1.0702 0.6249
O22 O 0.1887(4) 0.7141(3) -0.0498(2)
H52 H 0.1645 0.7086 -0.0819
Co2_2 Co 0.49680(6) 1.06708(5) -0.36712(4)
N3_2 N 0.5017(4) 1.0622(3) 0.7273(2)
O23 O 0.4742(5) 0.8196(4) 0.5270(3)
H53 H 0.4477 0.8154 0.4940
H54 H 0.5072 0.8558 0.5294
O24 O 0.7019(4) 0.6358(3) 0.4722(3)
H55 H 0.6668 0.6364 0.4424
H56 H 0.7105 0.6796 0.4831
O25 O 0.1389(5) 0.2317(3) 0.9265(3)
H57 H 0.1593 0.1991 0.9034
H58 H 0.1829 0.2460 0.9481
O26 O 0.7493(5) 0.1655(4) 0.7269(3)
H59 H 0.7039 0.1597 0.7038
H60 H 0.7397 0.1965 0.7538
O27 O 0.1108(4) 0.7013(5) 0.8477(3)
H61 H 0.1501 0.6878 0.8223
H62 H 0.0561 0.6917 0.8367
O28 O 0.0641(4) 0.1862(3) 0.7792(2)
H63 H 0.1064 0.1650 0.7985
H64 H 0.0573 0.1642 0.7468
O29 O 0.2773(4) 0.2815(3) -0.0015(3)
H65 H 0.3045 0.3130 -0.0225
H66 H 0.2733 0.2985 0.0330
O30 O 0.6536(4) 0.3745(4) 0.8932(3)
H67 H 0.6095 0.3584 0.9140
H68 H 0.7025 0.3734 0.9137
O31 O 0.7002(14) 0.2631(10) 0.8233(8)
H69 H 0.7203 0.2853 0.8533
O32 O 0.9044(11) 0.2207(7) 0.8301(8)
H70 H 0.8624 0.1912 0.8264
O33? O 0.6558(12) 0.2809(8) 0.7824(10)
O34? O 0.9476(10) 0.2063(8) 0.8716(8)
H71? H 0.6317 0.3198 0.7957
H72? H 0.9168 0.1803 0.8933
H73? H 0.7502 1.0759 0.7754
H74? H 0.2634 1.0603 -0.0335
H75? H 0.7077 0.8691 0.9210
H76? H 0.2559 0.8541 -0.1805
loop_
_geom_bond_atom_site_label_1
_geom_bond_atom_site_label_2
_geom_bond_site_symmetry_1
_geom_bond_site_symmetry_2
Co1 N1 1_555 1_555
Co2 N4 1_555 1_555
P1 O7 1_555 1_555
P2 O6 1_555 1_555
C1 H1 1_555 1_555
H2 C1 1_555 1_555
C2 H3 1_555 1_555
C3 C2 1_555 1_555
C4 C3 1_555 1_555
H4 C4 1_555 1_555
C5 C3 1_555 1_555
C6 C5 1_555 1_555
H5 C6 1_555 1_555
C7 H6 1_555 1_555
C8 H7 1_555 1_555
C9 C8 1_555 1_555
H8 C9 1_555 1_555
C10 C9 1_555 1_555
C11 C10 1_555 1_555
C12 C11 1_555 1_555
H9 C12 1_555 1_555
C13 C11 1_555 1_555
H10 C13 1_555 1_555
C14 C6 1_555 1_555
H11 C14 1_555 1_555
C15 H12 1_555 1_555
C16 C19 1_555 1_555
C17 H13 1_555 1_555
C18 N5 1_555 1_555
C19 C20 1_555 1_555
C20 N12 1_555 1_555
C21 H14 1_555 1_555
C22 C24 1_555 1_555
C23 C24 1_555 1_555
C24 N9 1_555 1_555
C25 H15 1_555 1_555
C26 C5 1_555 1_555
H16 C26 1_555 1_555
C27 C4 1_555 1_555
H17 C27 1_555 1_555
C28 C2 1_555 1_555
H18 C28 1_555 1_555
C29 C12 1_555 1_555
H19 C29 1_555 1_555
H20 C30 1_555 1_555
C30 C13 1_555 1_555
C31 H21 1_555 1_555
C32 C31 1_555 1_555
H22 C32 1_555 1_555
C33 C32 1_555 1_555
H23 C33 1_555 1_555
C34 C1 1_555 1_555
H24 C34 1_555 1_555
C35 N8 1_555 1_555
C36 H25 1_555 1_555
C37 C36 1_555 1_555
H26 C37 1_555 1_555
C38 C25 1_555 1_555
H27 C38 1_555 1_555
C39 C25 1_555 1_555
H28 C39 1_555 1_555
H29 C39 1_555 1_555
C40 C7 1_555 1_555
H30 C40 1_555 1_555
N1 C27 1_555 1_555
N2 Co1 1_555 1_555
N3 C29 1_555 1_555
N4 C14 1_555 1_555
N5 H31 1_555 1_555
H32 N5 1_555 1_555
N6 C16 1_555 1_555
N7 C17 1_555 1_555
N8 H33 1_555 1_555
H34 N8 1_555 1_555
N9 C21 1_555 1_555
N10 C21 1_555 1_555
N11 C16 1_555 1_555
N12 C18 1_555 1_555
H35 N12 1_555 1_555
N13 C22 1_555 1_555
N14 C23 1_555 1_555
H36 N14 1_555 1_555
O1 Co1 1_555 1_555
H37 O1 1_555 1_555
H38 O1 1_555 1_555
O2 Co1 1_555 1_555
H39 O2 1_555 1_555
H40 O2 1_555 1_555
O3 C25 1_555 1_555
O4 Co2 1_555 1_555
H41 O4 1_555 1_555
H42 O4 1_555 1_555
O5 Co1 1_555 1_555
H43 O5 1_555 1_555
H44 O5 1_555 1_555
O6 Co1 1_555 1_555
O8 P1 1_555 1_555
O9 Co2 1_555 1_555
O10 Co2 1_555 1_555
H45 O10 1_555 1_555
H46 O10 1_555 1_555
O11 C20 1_555 1_555
O12 C31 1_555 1_555
O13 C32 1_555 1_555
H47 O13 1_555 1_555
O14 C33 1_555 1_555
H48 O14 1_555 1_555
O15 C23 1_555 1_555
O16 C38 1_555 1_555
H49 O16 1_555 1_555
O17 P2 1_555 1_555
O18 P2 1_555 1_555
O19 P2 1_555 1_555
O20 P1 1_555 1_555
O21 Co2 1_555 1_555
H50 O21 1_555 1_555
H51 O21 1_555 1_555
O22 C37 1_555 1_555
H52 O22 1_555 1_555
O23 H53 1_555 1_555
H54 O23 1_555 1_555
O24 H55 1_555 1_555
H56 O24 1_555 1_555
O25 H57 1_555 1_555
H58 O25 1_555 1_555
O26 H59 1_555 1_555
H60 O26 1_555 1_555
O27 H61 1_555 1_555
H62 O27 1_555 1_555
O28 H63 1_555 1_555
H64 O28 1_555 1_555
O29 H65 1_555 1_555
H66 O29 1_555 1_555
O30 H67 1_555 1_555
H68 O30 1_555 1_555
O31 H69 1_555 1_555
O32 H70 1_555 1_555
Co2_2 N3 1_555 1_555
N3_2 Co2 1_555 1_555
P1 O9 1_555 1_555
C1 O20 1_555 1_555
C7 N2 1_555 1_555
C8 N2 1_555 1_555
C10 C40 1_555 1_555
C15 C26 1_555 1_555
C15 N4 1_555 1_555
C17 N6 1_555 1_555
C18 N11 1_555 1_555
C19 N7 1_555 1_555
C22 N10 1_555 1_555
C28 N1 1_555 1_555
C30 N3 1_555 1_555
C31 N6 1_555 1_555
C33 C34 1_555 1_555
C34 O12 1_555 1_555
C35 N13 1_555 1_555
C35 N14 1_555 1_555
C36 N10 1_555 1_555
C36 O3 1_555 1_555
C37 C38 1_555 1_555
C39 O17 1_555 1_555

#END
