
#######################################################################
#
#                 Cambridge Crystallographic Data Centre
#                                CCDC 
#
#######################################################################
#
# If this CIF has been generated from an entry in the Cambridge 
# Structural Database, then it will include bibliographic, chemical, 
# crystal, experimental, refinement or atomic coordinate data resulting 
# from the CCDC's data processing and validation procedures.
#
#######################################################################

data_ROVVEF
_symmetry_cell_setting           monoclinic
_symmetry_space_group_name_H-M   'P 21/c'
_symmetry_Int_Tables_number      14
_space_group_name_Hall           '-P 2ybc'
loop_
_symmetry_equiv_pos_site_id
_symmetry_equiv_pos_as_xyz
1 x,y,z
2 -x,1/2+y,1/2-z
3 -x,-y,-z
4 x,1/2-y,1/2+z
_cell_length_a                   15.944(9)
_cell_length_b                   7.361(4)
_cell_length_c                   9.693(6)
_cell_angle_alpha                90
_cell_angle_beta                 106.172(12)
_cell_angle_gamma                90
_cell_volume                     1092.59
loop_
_atom_site_label
_atom_site_type_symbol
_atom_site_fract_x
_atom_site_fract_y
_atom_site_fract_z
Cu1 Cu 0.874039(15) 0.50230(3) 0.23367(2)
Cl1 Cl 0.48020(3) 0.62890(8) -0.33689(5)
O1 O 0.91274(8) 0.62971(19) 0.42265(13)
O2 O 0.82085(8) 0.40413(19) 0.04311(13)
N1 N 0.75986(11) 0.5239(2) 0.26721(18)
C1 C 0.64514(13) 0.4984(3) -0.2794(2)
H1 H 0.6344 0.4887 -0.3785
C2 C 0.85567(12) 0.6334(3) 0.4932(2)
C3 C 0.68745(12) 0.5440(3) 0.1710(2)
H2 H 0.6386 0.5738 0.2010
C4 C 0.72572(13) 0.4466(3) -0.1888(2)
H3 H 0.7687 0.4045 -0.2287
C5 C 0.76660(12) 0.5538(3) 0.4189(2)
H4 H 0.7590 0.4397 0.4639
H5 H 0.7211 0.6367 0.4280
C6 C 0.58143(12) 0.5641(3) -0.2217(2)
C7 C 0.59559(12) 0.5761(3) -0.0761(2)
H6 H 0.5516 0.6196 -0.0391
C8 C 0.74388(13) 0.4561(3) -0.0381(2)
C9 C 0.67594(13) 0.5233(3) 0.0179(2)
O3 O 0.98896(10) 0.4724(2) 0.20479(17)
O4 O 0.86900(8) 0.69024(19) 0.61772(13)
O5 O 0.93047(10) 0.2347(2) 0.40070(14)
H7 H 0.9726(14) 0.261(3) 0.460(2)
H8 H 1.0270(16) 0.425(4) 0.249(3)
H9 H 0.8987(14) 0.193(3) 0.445(2)
H10 H 1.0089(15) 0.546(3) 0.168(2)
Cu1C Cu 0.874039(15) 0.99770(3) 0.73367(2)
O4C O 0.86900(8) 0.80976(19) 0.11772(13)
loop_
_geom_bond_atom_site_label_1
_geom_bond_atom_site_label_2
_geom_bond_site_symmetry_1
_geom_bond_site_symmetry_2
Cu1 O1 1_555 1_555
Cl1 C6 1_555 1_555
O1 C2 1_555 1_555
O2 Cu1 1_555 1_555
N1 Cu1 1_555 1_555
C1 H1 1_555 1_555
C2 C5 1_555 1_555
C3 N1 1_555 1_555
H2 C3 1_555 1_555
C4 C1 1_555 1_555
H3 C4 1_555 1_555
C5 N1 1_555 1_555
H4 C5 1_555 1_555
H5 C5 1_555 1_555
C6 C1 1_555 1_555
C7 C6 1_555 1_555
H6 C7 1_555 1_555
C8 O2 1_555 1_555
C9 C3 1_555 1_555
O3 Cu1 1_555 1_555
O4 C2 1_555 1_555
O5 Cu1 1_555 1_555
H7 O5 1_555 1_555
H8 O3 1_555 1_555
H9 O5 1_555 1_555
H10 O3 1_555 1_555
Cu1C O4 1_555 1_555
O4C Cu1 1_555 1_555
C4 C8 1_555 1_555
C7 C9 1_555 1_555
C8 C9 1_555 1_555

#END
