
#######################################################################
#
#                 Cambridge Crystallographic Data Centre
#                                CCDC 
#
#######################################################################
#
# If this CIF has been generated from an entry in the Cambridge 
# Structural Database, then it will include bibliographic, chemical, 
# crystal, experimental, refinement or atomic coordinate data resulting 
# from the CCDC's data processing and validation procedures.
#
#######################################################################

data_ROVWOQ
_symmetry_cell_setting           monoclinic
_symmetry_space_group_name_H-M   'P 21/c'
_symmetry_Int_Tables_number      14
_space_group_name_Hall           '-P 2ybc'
loop_
_symmetry_equiv_pos_site_id
_symmetry_equiv_pos_as_xyz
1 x,y,z
2 -x,1/2+y,1/2-z
3 -x,-y,-z
4 x,1/2-y,1/2+z
_cell_length_a                   12.7294(4)
_cell_length_b                   7.6424(3)
_cell_length_c                   16.3207(8)
_cell_angle_alpha                90
_cell_angle_beta                 94.474(3)
_cell_angle_gamma                90
_cell_volume                     1582.89
loop_
_atom_site_label
_atom_site_type_symbol
_atom_site_fract_x
_atom_site_fract_y
_atom_site_fract_z
Ag1 Ag 0.86504(3) 0.62084(5) 0.22957(2)
S1 S 1.02134(9) 0.83489(13) 0.23843(7)
S2 S 0.78428(11) 0.61242(16) 0.08080(7)
N1 N 1.1602(4) 0.6325(5) 0.1518(3)
N2 N 0.5689(4) 0.6261(5) 0.1055(3)
N3 N 0.7242(3) 0.6140(4) 0.3108(2)
N4 N 0.2091(3) 0.6457(4) 0.43718(18)
C1 C 1.1026(4) 0.7157(6) 0.1859(2)
C2 C 0.6573(4) 0.6214(5) 0.0961(3)
C3 C 0.6570(3) 0.4836(6) 0.2951(2)
H1 H 0.6788 0.3892 0.2647
C4 C 0.5572(3) 0.4800(5) 0.3212(2)
H2 H 0.5132 0.3852 0.3085
C5 C 0.5226(3) 0.6177(5) 0.3664(2)
C6 C 0.5927(3) 0.7535(5) 0.3846(2)
H3 H 0.5734 0.8485 0.4157
C7 C 0.6921(3) 0.7454(6) 0.3556(2)
H4 H 0.7387 0.8369 0.3683
C8 C 0.2285(3) 0.5697(5) 0.3656(2)
H5 H 0.1730 0.5252 0.3314
C9 C 0.3292(3) 0.5572(5) 0.3428(2)
H6 H 0.3413 0.5035 0.2933
C10 C 0.4135(3) 0.6231(4) 0.3922(2)
C11 C 0.3904(3) 0.6980(5) 0.4675(2)
H7 H 0.4444 0.7414 0.5035
C12 C 0.2884(3) 0.7067(5) 0.4874(2)
H8 H 0.2739 0.7564 0.5372
C13 C 0.0985(3) 0.6627(5) 0.4587(3)
H9 H 0.0543 0.6950 0.4100
H10 H 0.0942 0.7554 0.4989
C14 C 0.0579(3) 0.4933(6) 0.4935(2)
H11 H 0.0690 0.3980 0.4559
H12 H 0.0971 0.4675 0.5454
N3B N -0.7242(3) 0.3860(4) 0.6892(2)
N4B N -0.2091(3) 0.3543(4) 0.56282(18)
C3B C -0.6570(3) 0.5164(6) 0.7049(2)
H1B H -0.6788 0.6108 0.7353
C4B C -0.5572(3) 0.5200(5) 0.6788(2)
H2B H -0.5132 0.6148 0.6915
C5B C -0.5226(3) 0.3823(5) 0.6336(2)
C6B C -0.5927(3) 0.2465(5) 0.6154(2)
H3B H -0.5734 0.1515 0.5843
C7B C -0.6921(3) 0.2546(6) 0.6444(2)
H4B H -0.7387 0.1631 0.6317
C8B C -0.2285(3) 0.4303(5) 0.6344(2)
H5B H -0.1730 0.4748 0.6686
C9B C -0.3292(3) 0.4428(5) 0.6572(2)
H6B H -0.3413 0.4965 0.7067
C10B C -0.4135(3) 0.3769(4) 0.6078(2)
C11B C -0.3904(3) 0.3020(5) 0.5325(2)
H7B H -0.4444 0.2586 0.4965
C12B C -0.2884(3) 0.2933(5) 0.5126(2)
H8B H -0.2739 0.2436 0.4628
C13B C -0.0985(3) 0.3373(5) 0.5413(3)
H9B H -0.0543 0.3050 0.5900
H10B H -0.0942 0.2446 0.5011
C14B C -0.0579(3) 0.5067(6) 0.5065(2)
H11B H -0.0690 0.6020 0.5441
H12B H -0.0971 0.5325 0.4546
Ag1B Ag -0.86504(3) 0.37916(5) 0.77043(2)
S1B S -1.02134(9) 0.16511(13) 0.76157(7)
S2B S -0.78428(11) 0.38758(16) 0.91920(7)
N1B N -1.1602(4) 0.3675(5) 0.8482(3)
N2B N -0.5689(4) 0.3739(5) 0.8945(3)
C1B C -1.1026(4) 0.2843(6) 0.8141(2)
C2B C -0.6573(4) 0.3786(5) 0.9039(3)
Ag1A Ag 1.13496(3) 1.12084(5) 0.27043(2)
Ag1C Ag -1.13496(3) -0.12084(5) 0.72957(2)
S1A S 0.97866(9) 0.33489(13) 0.26157(7)
S1C S -0.97866(9) 0.66511(13) 0.73843(7)
loop_
_geom_bond_atom_site_label_1
_geom_bond_atom_site_label_2
_geom_bond_site_symmetry_1
_geom_bond_site_symmetry_2
Ag1 S1 1_555 1_555
S1 C1 1_555 1_555
S2 Ag1 1_555 1_555
N1 C1 1_555 1_555
N2 C2 1_555 1_555
N3 Ag1 1_555 1_555
N4 C8 1_555 1_555
C2 S2 1_555 1_555
C3 N3 1_555 1_555
H1 C3 1_555 1_555
C4 C3 1_555 1_555
H2 C4 1_555 1_555
C5 C4 1_555 1_555
C6 C5 1_555 1_555
H3 C6 1_555 1_555
C7 N3 1_555 1_555
H4 C7 1_555 1_555
C8 H5 1_555 1_555
C9 C8 1_555 1_555
H6 C9 1_555 1_555
C10 C5 1_555 1_555
C11 C10 1_555 1_555
H7 C11 1_555 1_555
C12 N4 1_555 1_555
H8 C12 1_555 1_555
C13 N4 1_555 1_555
H9 C13 1_555 1_555
H10 C13 1_555 1_555
C14 C13 1_555 1_555
H11 C14 1_555 1_555
H12 C14 1_555 1_555
N3B C3B 1_555 1_555
N4B C8B 1_555 1_555
C3B H1B 1_555 1_555
C4B C3B 1_555 1_555
H2B C4B 1_555 1_555
C5B C4B 1_555 1_555
C6B C5B 1_555 1_555
H3B C6B 1_555 1_555
C7B N3B 1_555 1_555
H4B C7B 1_555 1_555
C8B H5B 1_555 1_555
C9B C8B 1_555 1_555
H6B C9B 1_555 1_555
C10B C5B 1_555 1_555
C11B C10B 1_555 1_555
H7B C11B 1_555 1_555
C12B N4B 1_555 1_555
H8B C12B 1_555 1_555
C13B N4B 1_555 1_555
H9B C13B 1_555 1_555
H10B C13B 1_555 1_555
C14B C14 1_555 1_555
H11B C14B 1_555 1_555
H12B C14B 1_555 1_555
Ag1B N3B 1_555 1_555
S1B Ag1B 1_555 1_555
S2B Ag1B 1_555 1_555
N1B C1B 1_555 1_555
N2B C2B 1_555 1_555
C1B S1B 1_555 1_555
C2B S2B 1_555 1_555
Ag1A S1 1_555 1_555
Ag1C S1B 1_555 1_555
S1A Ag1 1_555 1_555
S1C Ag1B 1_555 1_555
C6 C7 1_555 1_555
C9 C10 1_555 1_555
C11 C12 1_555 1_555
C6B C7B 1_555 1_555
C9B C10B 1_555 1_555
C11B C12B 1_555 1_555
C13B C14B 1_555 1_555

#END
