
#######################################################################
#
#                 Cambridge Crystallographic Data Centre
#                                CCDC 
#
#######################################################################
#
# If this CIF has been generated from an entry in the Cambridge 
# Structural Database, then it will include bibliographic, chemical, 
# crystal, experimental, refinement or atomic coordinate data resulting 
# from the CCDC's data processing and validation procedures.
#
#######################################################################

data_ROVWIK
_symmetry_cell_setting           monoclinic
_symmetry_space_group_name_H-M   'P 21/n'
_symmetry_Int_Tables_number      14
_space_group_name_Hall           '-P 2yn'
loop_
_symmetry_equiv_pos_site_id
_symmetry_equiv_pos_as_xyz
1 x,y,z
2 1/2-x,1/2+y,1/2-z
3 -x,-y,-z
4 1/2+x,1/2-y,1/2+z
_cell_length_a                   13.8582(11)
_cell_length_b                   7.7819(6)
_cell_length_c                   14.5371(12)
_cell_angle_alpha                90
_cell_angle_beta                 102.107(5)
_cell_angle_gamma                90
_cell_volume                     1532.86
loop_
_atom_site_label
_atom_site_type_symbol
_atom_site_fract_x
_atom_site_fract_y
_atom_site_fract_z
Cu1 Cu 0.59438(3) 0.91461(5) 0.25047(3)
N1 N 0.3559(3) 1.2576(4) 0.1627(3)
N2 N 0.7959(2) 1.2936(3) 0.2864(2)
N3 N 0.51454(18) 0.7541(3) 0.31994(19)
N4 N 0.19602(17) 0.1959(3) 0.49552(19)
S1 S 0.48530(8) 1.01642(15) 0.11750(7)
S2 S 0.64458(6) 1.13803(11) 0.35720(7)
C1 C 0.7329(2) 1.2285(4) 0.3138(2)
C2 C 0.4110(3) 1.1581(5) 0.1482(2)
C3 C 0.4472(3) 0.8130(4) 0.3655(3)
H1 H 0.4438 0.9311 0.3740
C4 C 0.3826(3) 0.7114(4) 0.4006(3)
H2 H 0.3369 0.7605 0.4314
C5 C 0.3861(2) 0.5360(4) 0.3900(2)
C6 C 0.4568(2) 0.4733(4) 0.3451(2)
H3 H 0.4629 0.3555 0.3372
C7 C 0.5186(2) 0.5854(4) 0.3117(2)
H4 H 0.5658 0.5395 0.2817
C8 C 0.2270(2) 0.1564(4) 0.4173(3)
H5 H 0.2070 0.0534 0.3867
C9 C 0.2875(2) 0.2637(4) 0.3812(2)
H6 H 0.3088 0.2330 0.3269
C10 C 0.3171(2) 0.4184(4) 0.4253(2)
C11 C 0.2811(2) 0.4592(4) 0.5043(2)
H7 H 0.2979 0.5633 0.5349
C12 C 0.2204(2) 0.3465(5) 0.5377(2)
H8 H 0.1960 0.3755 0.5905
C13 C 0.1329(2) 0.0726(5) 0.5341(3)
H9 H 0.1322 0.1046 0.5984
H10 H 0.1616 -0.0413 0.5352
C14 C 0.0294(2) 0.0665(4) 0.4788(2)
H11 H 0.0293 0.0364 0.4140
H12 H -0.0010 0.1786 0.4793
N3B N -0.51454(18) -0.7541(3) 0.68006(19)
N4B N -0.19602(17) -0.1959(3) 0.50448(19)
C3B C -0.4472(3) -0.8130(4) 0.6345(3)
H1B H -0.4438 -0.9311 0.6260
C4B C -0.3826(3) -0.7114(4) 0.5994(3)
H2B H -0.3369 -0.7605 0.5686
C5B C -0.3861(2) -0.5360(4) 0.6100(2)
C6B C -0.4568(2) -0.4733(4) 0.6549(2)
H3B H -0.4629 -0.3555 0.6628
C7B C -0.5186(2) -0.5854(4) 0.6883(2)
H4B H -0.5658 -0.5395 0.7183
C8B C -0.2270(2) -0.1564(4) 0.5827(3)
H5B H -0.2070 -0.0534 0.6133
C9B C -0.2875(2) -0.2637(4) 0.6188(2)
H6B H -0.3088 -0.2330 0.6731
C10B C -0.3171(2) -0.4184(4) 0.5747(2)
C11B C -0.2811(2) -0.4592(4) 0.4957(2)
H7B H -0.2979 -0.5633 0.4651
C12B C -0.2204(2) -0.3465(5) 0.4623(2)
H8B H -0.1960 -0.3755 0.4095
C13B C -0.1329(2) -0.0726(5) 0.4659(3)
H9B H -0.1322 -0.1046 0.4016
H10B H -0.1616 0.0413 0.4648
C14B C -0.0294(2) -0.0665(4) 0.5212(2)
H11B H -0.0293 -0.0364 0.5860
H12B H 0.0010 -0.1786 0.5207
Cu1B Cu -0.59438(3) -0.91461(5) 0.74953(3)
N1B N -0.3559(3) -1.2576(4) 0.8373(3)
N2B N -0.7959(2) -1.2936(3) 0.7136(2)
S1B S -0.48530(8) -1.01642(15) 0.88250(7)
S2B S -0.64458(6) -1.13803(11) 0.64280(7)
C1B C -0.7329(2) -1.2285(4) 0.6862(2)
C2B C -0.4110(3) -1.1581(5) 0.8518(2)
Cu1A Cu 0.90562(3) 1.41461(5) 0.24953(3)
Cu1C Cu -0.90562(3) -1.41461(5) 0.75047(3)
N2A N 0.7041(2) 0.7936(3) 0.2136(2)
N2C N -0.7041(2) -0.7936(3) 0.7864(2)
loop_
_geom_bond_atom_site_label_1
_geom_bond_atom_site_label_2
_geom_bond_site_symmetry_1
_geom_bond_site_symmetry_2
Cu1 N3 1_555 1_555
N1 C2 1_555 1_555
N2 C1 1_555 1_555
N3 C3 1_555 1_555
N4 C8 1_555 1_555
S1 Cu1 1_555 1_555
S2 Cu1 1_555 1_555
C1 S2 1_555 1_555
C2 S1 1_555 1_555
C3 H1 1_555 1_555
C4 C3 1_555 1_555
H2 C4 1_555 1_555
C5 C4 1_555 1_555
C6 C5 1_555 1_555
H3 C6 1_555 1_555
C7 N3 1_555 1_555
H4 C7 1_555 1_555
C8 H5 1_555 1_555
C9 C8 1_555 1_555
H6 C9 1_555 1_555
C10 C5 1_555 1_555
C11 C10 1_555 1_555
H7 C11 1_555 1_555
C12 N4 1_555 1_555
H8 C12 1_555 1_555
C13 N4 1_555 1_555
H9 C13 1_555 1_555
H10 C13 1_555 1_555
C14 C13 1_555 1_555
H11 C14 1_555 1_555
H12 C14 1_555 1_555
N3B C3B 1_555 1_555
N4B C8B 1_555 1_555
C3B H1B 1_555 1_555
C4B C3B 1_555 1_555
H2B C4B 1_555 1_555
C5B C4B 1_555 1_555
C6B C5B 1_555 1_555
H3B C6B 1_555 1_555
C7B N3B 1_555 1_555
H4B C7B 1_555 1_555
C8B H5B 1_555 1_555
C9B C8B 1_555 1_555
H6B C9B 1_555 1_555
C10B C5B 1_555 1_555
C11B C10B 1_555 1_555
H7B C11B 1_555 1_555
C12B N4B 1_555 1_555
H8B C12B 1_555 1_555
C13B N4B 1_555 1_555
H9B C13B 1_555 1_555
H10B C13B 1_555 1_555
C14B C14 1_555 1_555
H11B C14B 1_555 1_555
H12B C14B 1_555 1_555
Cu1B N3B 1_555 1_555
N1B C2B 1_555 1_555
N2B C1B 1_555 1_555
S1B Cu1B 1_555 1_555
S2B Cu1B 1_555 1_555
C1B S2B 1_555 1_555
C2B S1B 1_555 1_555
Cu1A N2 1_555 1_555
Cu1C N2B 1_555 1_555
N2A Cu1 1_555 1_555
N2C Cu1B 1_555 1_555
C6 C7 1_555 1_555
C9 C10 1_555 1_555
C11 C12 1_555 1_555
C6B C7B 1_555 1_555
C9B C10B 1_555 1_555
C11B C12B 1_555 1_555
C13B C14B 1_555 1_555

#END
