
#######################################################################
#
#                 Cambridge Crystallographic Data Centre
#                                CCDC 
#
#######################################################################
#
# If this CIF has been generated from an entry in the Cambridge 
# Structural Database, then it will include bibliographic, chemical, 
# crystal, experimental, refinement or atomic coordinate data resulting 
# from the CCDC's data processing and validation procedures.
#
#######################################################################

data_ROVWEG
_symmetry_cell_setting           triclinic
_symmetry_space_group_name_H-M   'P -1'
_symmetry_Int_Tables_number      2
_space_group_name_Hall           '-P 1'
loop_
_symmetry_equiv_pos_site_id
_symmetry_equiv_pos_as_xyz
1 x,y,z
2 -x,-y,-z
_cell_length_a                   12.1036(6)
_cell_length_b                   13.6041(6)
_cell_length_c                   14.8023(8)
_cell_angle_alpha                95.296(4)
_cell_angle_beta                 110.341(5)
_cell_angle_gamma                111.644(4)
_cell_volume                     2055.09
loop_
_atom_site_label
_atom_site_type_symbol
_atom_site_fract_x
_atom_site_fract_y
_atom_site_fract_z
Cu1 Cu 0.81561(7) 1.82493(6) 0.00692(7)
Cu2 Cu 1.06355(7) 1.81951(5) 0.15802(6)
Cu3 Cu 0.75802(6) 1.37671(5) 0.15888(5)
Cu4 Cu 0.71218(7) 1.53006(5) 0.27939(5)
Cu5 Cu 0.57681(8) 1.16031(6) 0.41447(6)
Cu6 Cu 0.39042(7) 1.20426(5) 0.46864(5)
S1 S 0.98792(11) 1.80109(8) -0.02755(8)
S2 S 0.92297(10) 1.44074(8) 0.10625(9)
S3 S 0.90429(10) 1.85994(8) 0.20116(8)
S4 S 0.86550(9) 1.44930(8) 0.33998(7)
S5 S 0.57223(11) 1.46843(8) 0.35301(10)
S6 S 0.60748(9) 1.45462(8) 0.09732(7)
S7 S 0.59997(12) 1.20767(8) 0.58692(8)
S8 S 0.37056(10) 1.18702(8) 0.30569(8)
N1 N 1.1368(4) 2.0197(3) -0.0168(3)
N2 N 1.0237(4) 1.6687(3) 0.1580(3)
N3 N 0.8030(4) 1.6797(3) 0.2731(3)
N4 N 0.7131(4) 1.2762(3) 0.3969(3)
N5 N 0.6038(4) 1.6593(3) 0.4689(3)
N6 N 0.3538(3) 1.2949(3) 0.0440(3)
N7 N 0.4928(4) 0.9976(3) 0.6155(3)
N8 N 0.2057(3) 0.9638(3) 0.2145(3)
N9 N 0.2581(3) 1.0776(3) 0.4942(3)
N10 N -0.1403(3) 0.6479(3) 0.6304(3)
N11 N -0.3711(3) 0.3441(2) 0.8689(2)
N12 N -0.6709(3) -0.2126(3) 0.8601(3)
C1 C 1.0750(4) 1.9312(3) -0.0216(3)
C2 C 0.9792(4) 1.5756(3) 0.1385(3)
C3 C 0.8449(4) 1.7531(3) 0.2432(3)
C4 C 0.7757(4) 1.3469(3) 0.3744(3)
C5 C 0.5934(4) 1.5835(3) 0.4205(3)
C6 C 0.4578(4) 1.3597(3) 0.0673(3)
C7 C 0.5373(4) 1.0835(3) 0.6045(3)
C8 C 0.2720(4) 1.0550(3) 0.2519(3)
C9 C 0.2163(5) 0.9729(4) 0.4501(3)
H1 H 0.2406 0.9570 0.3995
C10 C 0.1395(4) 0.8874(4) 0.4755(3)
H2 H 0.1127 0.8158 0.4420
C11 C 0.1022(4) 0.9076(3) 0.5505(3)
C12 C 0.1474(5) 1.0159(4) 0.5977(4)
H3 H 0.1264 1.0340 0.6496
C13 C 0.2239(5) 1.0969(4) 0.5675(4)
H4 H 0.2531 1.1692 0.6003
C14 C -0.1088(4) 0.6269(3) 0.5553(3)
H5 H -0.1400 0.5549 0.5207
C15 C -0.0318(4) 0.7091(3) 0.5286(3)
H6 H -0.0118 0.6926 0.4756
C16 C 0.0174(4) 0.8176(3) 0.5793(3)
C17 C -0.0193(5) 0.8364(4) 0.6557(3)
H7 H 0.0092 0.9078 0.6906
C18 C -0.0971(5) 0.7511(4) 0.6805(4)
H8 H -0.1200 0.7651 0.7325
C19 C -0.2260(6) 0.5521(4) 0.6522(4)
H9 H -0.1986 0.4942 0.6457
H10 H -0.3142 0.5263 0.6018
C20 C -0.2293(4) 0.5700(3) 0.7519(3)
H11 H -0.2780 0.6122 0.7544
H12 H -0.1414 0.6092 0.8035
C21 C -0.2952(4) 0.4578(3) 0.7668(3)
H13 H -0.3820 0.4199 0.7136
H14 H -0.2465 0.4164 0.7614
C22 C -0.3066(5) 0.4590(3) 0.8652(3)
H15 H -0.2207 0.4959 0.9197
H16 H -0.3578 0.4978 0.8713
C23 C -0.3058(4) 0.2823(3) 0.8782(3)
H17 H -0.2197 0.3131 0.8854
C24 C -0.3630(4) 0.1747(3) 0.8774(3)
H18 H -0.3154 0.1335 0.8843
C25 C -0.4914(4) 0.1261(3) 0.8665(3)
C26 C -0.5562(4) 0.1927(3) 0.8580(3)
H19 H -0.6419 0.1640 0.8517
C27 C -0.4953(4) 0.3004(3) 0.8589(3)
H20 H -0.5405 0.3436 0.8524
C28 C -0.5621(4) -0.1701(3) 0.8452(3)
H21 H -0.5247 -0.2158 0.8332
C29 C -0.5030(4) -0.0623(3) 0.8468(3)
H22 H -0.4269 -0.0365 0.8364
C30 C -0.5549(4) 0.0087(3) 0.8638(3)
C31 C -0.6683(4) -0.0352(3) 0.8792(4)
H23 H -0.7075 0.0087 0.8914
C32 C -0.7221(4) -0.1451(3) 0.8761(4)
H24 H -0.7986 -0.1734 0.8858
Cu1A Cu 0.18439(7) 1.17507(6) -0.00692(7)
Cu1A_2 Cu 1.18439(7) 2.17507(6) -0.00692(7)
Cu2_2 Cu 0.06355(7) 0.81951(5) 0.15802(6)
Cu3A Cu -0.75802(6) -0.37671(5) 0.84112(5)
Cu5A Cu 0.42319(8) 0.83969(6) 0.58553(6)
Cu6A Cu 0.60958(7) 1.79574(5) 0.53136(5)
N1A N 0.8632(4) 1.9803(3) 0.0168(3)
N5A N 0.3962(4) 1.3407(3) 0.5311(3)
N6A N 0.6462(3) 1.7051(3) -0.0440(3)
N7A N 0.5072(4) 1.0024(3) 0.3845(3)
N8_2 N 1.2057(3) 1.9638(3) 0.2145(3)
N12A N 0.6709(3) 1.2126(3) 0.1399(3)
loop_
_geom_bond_atom_site_label_1
_geom_bond_atom_site_label_2
_geom_bond_site_symmetry_1
_geom_bond_site_symmetry_2
Cu1 S1 1_555 1_555
Cu2 S1 1_555 1_555
Cu3 S2 1_555 1_555
Cu4 S4 1_555 1_555
Cu5 Cu6 1_555 1_555
Cu6 S7 1_555 1_555
S1 C1 1_555 1_555
S2 C2 1_555 1_555
S3 Cu1 1_555 1_555
S4 Cu3 1_555 1_555
S5 Cu4 1_555 1_555
S6 Cu3 1_555 1_555
S7 Cu5 1_555 1_555
S8 Cu5 1_555 1_555
N1 C1 1_555 1_555
N2 Cu2 1_555 1_555
N3 Cu4 1_555 1_555
N4 Cu5 1_555 1_555
N5 C5 1_555 1_555
N6 C6 1_555 1_555
N7 C7 1_555 1_555
N8 C8 1_555 1_555
N9 Cu6 1_555 1_555
N10 C14 1_555 1_555
N11 C22 1_555 1_555
N12 C28 1_555 1_555
C2 N2 1_555 1_555
C3 S3 1_555 1_555
C4 S4 1_555 1_555
C5 S5 1_555 1_555
C6 S6 1_555 1_555
C7 S7 1_555 1_555
C8 S8 1_555 1_555
C9 N9 1_555 1_555
H1 C9 1_555 1_555
C10 C9 1_555 1_555
H2 C10 1_555 1_555
C11 C10 1_555 1_555
C12 C11 1_555 1_555
H3 C12 1_555 1_555
C13 N9 1_555 1_555
H4 C13 1_555 1_555
C14 H5 1_555 1_555
C15 C14 1_555 1_555
H6 C15 1_555 1_555
C16 C11 1_555 1_555
C17 C16 1_555 1_555
H7 C17 1_555 1_555
C18 N10 1_555 1_555
H8 C18 1_555 1_555
C19 N10 1_555 1_555
H9 C19 1_555 1_555
H10 C19 1_555 1_555
C20 C19 1_555 1_555
H11 C20 1_555 1_555
H12 C20 1_555 1_555
C21 C20 1_555 1_555
H13 C21 1_555 1_555
H14 C21 1_555 1_555
C22 C21 1_555 1_555
H15 C22 1_555 1_555
H16 C22 1_555 1_555
C23 N11 1_555 1_555
H17 C23 1_555 1_555
C24 C23 1_555 1_555
H18 C24 1_555 1_555
C25 C24 1_555 1_555
C26 C25 1_555 1_555
H19 C26 1_555 1_555
C27 N11 1_555 1_555
H20 C27 1_555 1_555
C28 H21 1_555 1_555
C29 C28 1_555 1_555
H22 C29 1_555 1_555
C30 C25 1_555 1_555
C31 C30 1_555 1_555
H23 C31 1_555 1_555
C32 N12 1_555 1_555
H24 C32 1_555 1_555
Cu1A N6 1_555 1_555
Cu1A_2 N1 1_555 1_555
Cu2_2 N8 1_555 1_555
Cu3A N12 1_555 1_555
Cu5A N7 1_555 1_555
Cu6A N5 1_555 1_555
N1A Cu1 1_555 1_555
N5A Cu6 1_555 1_555
N6A Cu1 1_555 1_555
N7A Cu5 1_555 1_555
N8_2 Cu2 1_555 1_555
N12A Cu3 1_555 1_555
Cu2 S3 1_555 1_555
Cu4 S6 1_555 1_555
Cu6 S8 1_555 1_555
N3 C3 1_555 1_555
N4 C4 1_555 1_555
C12 C13 1_555 1_555
C15 C16 1_555 1_555
C17 C18 1_555 1_555
C26 C27 1_555 1_555
C29 C30 1_555 1_555
C31 C32 1_555 1_555

#END
