
#######################################################################
#
#                 Cambridge Crystallographic Data Centre
#                                CCDC 
#
#######################################################################
#
# If this CIF has been generated from an entry in the Cambridge 
# Structural Database, then it will include bibliographic, chemical, 
# crystal, experimental, refinement or atomic coordinate data resulting 
# from the CCDC's data processing and validation procedures.
#
#######################################################################

data_ROWBEM
_symmetry_cell_setting           triclinic
_symmetry_space_group_name_H-M   'P -1'
_symmetry_Int_Tables_number      2
_space_group_name_Hall           '-P 1'
loop_
_symmetry_equiv_pos_site_id
_symmetry_equiv_pos_as_xyz
1 x,y,z
2 -x,-y,-z
_cell_length_a                   7.646(5)
_cell_length_b                   10.808(5)
_cell_length_c                   14.140(5)
_cell_angle_alpha                107.141(5)
_cell_angle_beta                 103.244(5)
_cell_angle_gamma                93.554(5)
_cell_volume                     1076.31
loop_
_atom_site_label
_atom_site_type_symbol
_atom_site_fract_x
_atom_site_fract_y
_atom_site_fract_z
Zn1 Zn 0.63424(12) 0.13594(9) 0.36763(7)
C1 C 0.3070(15) 0.2802(9) 0.3951(7)
N1 N 0.5095(9) 0.0226(7) 0.2092(5)
N2 N 0.7254(10) -0.0848(7) 0.4443(5)
H1 H 0.7477 -0.1617 0.4447
N3 N 0.7469(9) 0.1351(6) 0.5237(5)
N4 N 0.4382(11) 0.2453(8) 0.3842(6)
N5 N 0.6356(9) -0.0622(7) 0.3568(6)
N6 N 0.6562(11) -0.3363(7) 0.3274(6)
N7 N 0.8572(9) -0.0095(8) 0.6154(5)
C2 C 0.9072(11) 0.0895(9) 0.7018(6)
N8 N -0.1489(11) 0.2407(7) 0.3562(6)
C3 C 0.8736(12) 0.2160(9) 0.7047(7)
H2 H 0.9022 0.2838 0.7666
C4 C 0.6333(11) -0.2880(9) 0.2491(7)
C5 C 0.3736(12) -0.1858(10) 0.0951(7)
H3 H 0.3546 -0.2755 0.0834
C6 C 0.5877(11) -0.1519(9) 0.2690(7)
C7 C 0.4907(11) -0.1039(9) 0.1864(6)
C8 C 0.2877(13) -0.1340(12) 0.0236(8)
H4 H 0.2159 -0.1875 -0.0396
C9 C 0.9951(13) 0.0564(11) 0.7936(7)
H5 H 0.9127 -0.0050 0.8050
H6 H 1.0275 0.1343 0.8520
H7 H 1.1024 0.0184 0.7837
C10 C 0.7785(11) 0.0225(9) 0.5324(7)
C11 C 0.3103(13) 0.0008(12) 0.0475(8)
H8 H 0.2496 0.0398 0.0015
C12 C 0.7700(15) 0.3703(9) 0.6086(8)
H9 H 0.7932 0.4318 0.6763
H10 H 0.6470 0.3679 0.5717
H11 H 0.8513 0.3964 0.5732
C13 C 0.4238(13) 0.0763(10) 0.1403(8)
H12 H 0.4415 0.1667 0.1556
C14 C 0.7985(11) 0.2381(9) 0.6158(7)
C15 C 0.7086(16) -0.4533(11) 0.3132(9)
H13 H 0.7226 -0.4890 0.3664
C16 C 0.6707(13) -0.3560(9) 0.1580(8)
H14 H 0.6561 -0.3199 0.1050
C17 C 0.7289(15) -0.4760(10) 0.1451(9)
H15 H 0.7572 -0.5214 0.0848
C18 C 0.7433(16) -0.5249(11) 0.2223(10)
H16 H 0.7770 -0.6077 0.2151
N9 N 0.1642(11) 0.3333(7) 0.4155(7)
C19 C -0.0039(15) 0.2735(9) 0.3800(7)
Zn1_2 Zn -0.36576(12) 0.13594(9) 0.36763(7)
N8_2 N 0.8511(11) 0.2407(7) 0.3562(6)
Cl1 Cl 0.8166(4) 0.6278(3) 0.9024(2)
O1 O 0.6849(16) 0.6947(10) 0.9432(8)
O2 O 0.9643(13) 0.6530(10) 0.9919(7)
O3 O 0.7653(17) 0.4909(11) 0.8645(9)
O4 O 0.8745(17) 0.6789(12) 0.8346(8)
loop_
_geom_bond_atom_site_label_1
_geom_bond_atom_site_label_2
_geom_bond_site_symmetry_1
_geom_bond_site_symmetry_2
Zn1 N1 1_555 1_555
C1 N4 1_555 1_555
N1 C7 1_555 1_555
N2 H1 1_555 1_555
N3 Zn1 1_555 1_555
N4 Zn1 1_555 1_555
N5 Zn1 1_555 1_555
N6 C4 1_555 1_555
N7 C2 1_555 1_555
C2 C3 1_555 1_555
N8 C19 1_555 1_555
C3 H2 1_555 1_555
C4 C6 1_555 1_555
C5 H3 1_555 1_555
C6 N5 1_555 1_555
C7 C5 1_555 1_555
C8 C5 1_555 1_555
H4 C8 1_555 1_555
C9 C2 1_555 1_555
H5 C9 1_555 1_555
H6 C9 1_555 1_555
H7 C9 1_555 1_555
C10 N2 1_555 1_555
C11 C8 1_555 1_555
H8 C11 1_555 1_555
C12 H9 1_555 1_555
H10 C12 1_555 1_555
H11 C12 1_555 1_555
C13 N1 1_555 1_555
H12 C13 1_555 1_555
C14 N3 1_555 1_555
C15 N6 1_555 1_555
H13 C15 1_555 1_555
C16 C4 1_555 1_555
H14 C16 1_555 1_555
C17 C16 1_555 1_555
H15 C17 1_555 1_555
C18 C15 1_555 1_555
H16 C18 1_555 1_555
N9 C1 1_555 1_555
C19 N9 1_555 1_555
Cl1 O1 1_555 1_555
O2 Cl1 1_555 1_555
O3 Cl1 1_555 1_555
O4 Cl1 1_555 1_555
Zn1_2 N8 1_555 1_555
N8_2 Zn1 1_555 1_555
N2 N5 1_555 1_555
N3 C10 1_555 1_555
N7 C10 1_555 1_555
C3 C14 1_555 1_555
C6 C7 1_555 1_555
C11 C13 1_555 1_555
C12 C14 1_555 1_555
C17 C18 1_555 1_555

#END
