
#######################################################################
#
#                 Cambridge Crystallographic Data Centre
#                                CCDC 
#
#######################################################################
#
# If this CIF has been generated from an entry in the Cambridge 
# Structural Database, then it will include bibliographic, chemical, 
# crystal, experimental, refinement or atomic coordinate data resulting 
# from the CCDC's data processing and validation procedures.
#
#######################################################################

data_ROWBAI
_symmetry_cell_setting           monoclinic
_symmetry_space_group_name_H-M   'P 21'
_symmetry_Int_Tables_number      4
_space_group_name_Hall           'P 2yb'
loop_
_symmetry_equiv_pos_site_id
_symmetry_equiv_pos_as_xyz
1 x,y,z
2 -x,1/2+y,-z
_cell_length_a                   8.1313(4)
_cell_length_b                   13.8738(6)
_cell_length_c                   8.7554(4)
_cell_angle_alpha                90
_cell_angle_beta                 112.455(2)
_cell_angle_gamma                90
_cell_volume                     912.826
loop_
_atom_site_label
_atom_site_type_symbol
_atom_site_fract_x
_atom_site_fract_y
_atom_site_fract_z
Zn1 Zn 0.13699(5) 0.24941(5) 0.26036(5)
N1 N -0.1963(6) -0.0054(3) 0.0352(6)
O1 O 0.3611(4) 0.2002(3) 0.2422(4)
N2 N -0.0181(6) 0.1371(3) 0.1482(6)
C1 C -0.1526(6) -0.0766(4) -0.0381(6)
N3 N -0.0496(5) 0.3122(3) 0.3579(5)
N4 N 0.1836(6) 0.2854(3) 0.6053(5)
H1 H 0.2355 0.2923 0.7105
N5 N 0.2710(5) 0.2423(4) 0.5147(4)
N6 N -0.0661(6) 0.3487(3) 0.6206(5)
N7 N -0.1288(6) -0.1413(3) -0.1061(6)
C2 C -0.0940(7) 0.0686(4) 0.0926(6)
C3 C 0.0164(7) 0.3160(3) 0.5246(6)
C4 C 0.4193(7) 0.2003(4) 0.5959(6)
H2 H 0.4581 0.2000 0.7105
C5 C 0.5318(6) 0.1529(4) 0.5228(6)
C6 C 0.6809(9) 0.1020(7) 0.6295(8)
H3 H 0.7072 0.1042 0.7426
C7 C 0.7864(9) 0.0507(6) 0.5749(9)
H4 H 0.8793 0.0145 0.6481
C8 C 0.7562(8) 0.0521(5) 0.4093(8)
H5 H 0.8318 0.0184 0.3712
C9 C 0.6152(8) 0.1026(5) 0.2997(8)
H6 H 0.5971 0.1028 0.1882
C10 C 0.4974(6) 0.1543(4) 0.3529(6)
C11 C -0.2315(7) 0.3814(4) 0.5417(7)
C12 C -0.3265(10) 0.4190(6) 0.6456(10)
H7 H -0.3187 0.3726 0.7294
H8 H -0.4492 0.4301 0.5773
H9 H -0.2725 0.4783 0.6968
C13 C -0.3107(7) 0.3795(4) 0.3692(7)
H10 H -0.4256 0.4029 0.3151
C14 C -0.2196(6) 0.3437(3) 0.2816(7)
C15 C -0.2996(8) 0.3359(5) 0.0985(7)
H11 H -0.3043 0.2693 0.0670
H12 H -0.2282 0.3712 0.0520
H13 H -0.4178 0.3620 0.0581
Zn1A Zn -0.13699(5) -0.25059(5) -0.26036(5)
N7A N 0.1288(6) 0.3587(3) 0.1061(6)
O2 O 0.3180(6) 0.1925(3) 0.9215(5)
H14 H 0.3860 0.2163 1.0374
H15 H 0.2666 0.1247 0.8884
loop_
_geom_bond_atom_site_label_1
_geom_bond_atom_site_label_2
_geom_bond_site_symmetry_1
_geom_bond_site_symmetry_2
Zn1 O1 1_555 1_555
N1 C1 1_555 1_555
O1 C10 1_555 1_555
N2 Zn1 1_555 1_555
C1 N7 1_555 1_555
N3 Zn1 1_555 1_555
N4 H1 1_555 1_555
N5 Zn1 1_555 1_555
N6 C3 1_555 1_555
N7 Zn1A 1_555 1_555
C2 N1 1_555 1_555
C3 N3 1_555 1_555
C4 N5 1_555 1_555
H2 C4 1_555 1_555
C5 C4 1_555 1_555
C6 C5 1_555 1_555
H3 C6 1_555 1_555
C7 C6 1_555 1_555
H4 C7 1_555 1_555
C8 C7 1_555 1_555
H5 C8 1_555 1_555
C9 C8 1_555 1_555
H6 C9 1_555 1_555
C10 C5 1_555 1_555
C11 N6 1_555 1_555
C12 C11 1_555 1_555
H7 C12 1_555 1_555
H8 C12 1_555 1_555
H9 C12 1_555 1_555
C13 C11 1_555 1_555
H10 C13 1_555 1_555
C14 N3 1_555 1_555
C15 C14 1_555 1_555
H11 C15 1_555 1_555
H12 C15 1_555 1_555
H13 C15 1_555 1_555
O2 H14 1_555 1_555
H15 O2 1_555 1_555
N7A Zn1 1_555 1_555
N2 C2 1_555 1_555
N4 N5 1_555 1_555
N4 C3 1_555 1_555
C9 C10 1_555 1_555
C13 C14 1_555 1_555

#END
