
#######################################################################
#
#                 Cambridge Crystallographic Data Centre
#                                CCDC 
#
#######################################################################
#
# If this CIF has been generated from an entry in the Cambridge 
# Structural Database, then it will include bibliographic, chemical, 
# crystal, experimental, refinement or atomic coordinate data resulting 
# from the CCDC's data processing and validation procedures.
#
#######################################################################

data_ROWVOQ
_symmetry_cell_setting           orthorhombic
_symmetry_space_group_name_H-M   'P n a 21'
_symmetry_Int_Tables_number      33
_space_group_name_Hall           'P 2c -2n'
loop_
_symmetry_equiv_pos_site_id
_symmetry_equiv_pos_as_xyz
1 x,y,z
2 -x,-y,1/2+z
3 1/2+x,1/2-y,z
4 1/2-x,1/2+y,1/2+z
_cell_length_a                   29.144(6)
_cell_length_b                   10.411(2)
_cell_length_c                   14.792(3)
_cell_angle_alpha                90
_cell_angle_beta                 90
_cell_angle_gamma                90
_cell_volume                     4488.16
loop_
_atom_site_label
_atom_site_type_symbol
_atom_site_fract_x
_atom_site_fract_y
_atom_site_fract_z
Co1 Co 0.90764(5) 0.78629(14) 0.4152(2)
Co2 Co 0.93281(5) 0.78985(14) 0.6850(2)
C1 C 0.9114(4) 0.8004(15) 0.2443(11)
C2 C 0.9145(5) 0.7983(14) 0.1446(11)
C3 C 0.8819(5) 0.7428(15) 0.0926(10)
H1 H 0.8563 0.7051 0.1192
C4 C 0.8870(5) 0.7427(15) -0.0019(11)
H2 H 0.8641 0.7061 -0.0373
C5 C 0.9240(4) 0.7937(13) -0.0426(11)
C6 C 0.9289(4) 0.7929(14) -0.1430(10)
C7 C 0.9556(5) 0.8539(15) 0.0092(10)
H3 H 0.9797 0.8977 -0.0181
C8 C 0.9525(5) 0.8509(14) 0.1032(10)
H4 H 0.9762 0.8844 0.1382
C9 C 0.9291(4) 1.0055(10) 0.5538(10)
C10 C 0.9227(5) 1.1513(10) 0.5530(10)
C11 C 0.9128(4) 1.2163(12) 0.4749(10)
H5 H 0.9084 1.1697 0.4220
C12 C 0.9090(4) 1.3504(12) 0.4718(10)
H6 H 0.9029 1.3926 0.4176
C13 C 0.9143(4) 1.4183(9) 0.5513(10)
C14 C 0.9117(4) 1.5621(9) 0.5474(9)
C15 C 0.9236(4) 1.3547(12) 0.6305(10)
H7 H 0.9264 1.4014 0.6838
C16 C 0.9289(4) 1.2216(12) 0.6327(10)
H8 H 0.9364 1.1802 0.6864
C17 C 0.8061(4) 0.7250(14) 0.4219(14)
H9 H 0.8169 0.6435 0.4364
C18 C 0.7587(4) 0.7420(12) 0.4124(13)
H10 H 0.7392 0.6717 0.4185
C19 C 0.7407(4) 0.8587(14) 0.3946(13)
C20 C 0.7703(5) 0.9552(14) 0.3813(12)
H11 H 0.7599 1.0367 0.3657
C21 C 0.8190(4) 0.9295(13) 0.3917(14)
H12 H 0.8395 0.9971 0.3839
C22 C 0.6925(4) 0.8874(13) 0.3816(11)
C23 C 0.6198(4) 0.8716(13) 0.3854(10)
C24 C 0.5721(4) 0.8267(13) 0.3960(12)
C25 C 0.5598(5) 0.7050(14) 0.4061(14)
H13 H 0.5820 0.6411 0.4092
C26 C 0.5134(4) 0.6729(14) 0.4123(13)
H14 H 0.5054 0.5866 0.4169
C27 C 0.4927(4) 0.8773(13) 0.3960(11)
H15 H 0.4697 0.9390 0.3909
C28 C 0.5378(4) 0.9160(13) 0.3863(10)
H16 H 0.5448 1.0012 0.3734
C29 C 1.0177(4) 0.6185(11) 0.6839(13)
H17 H 0.9957 0.5567 0.6707
C30 C 1.0618(4) 0.5806(12) 0.6936(12)
H18 H 1.0689 0.4936 0.6899
C31 C 1.0969(4) 0.6692(13) 0.7091(12)
C32 C 1.0837(4) 0.7965(12) 0.7158(11)
H19 H 1.1053 0.8612 0.7238
C33 C 1.0367(4) 0.8248(12) 0.7100(11)
H20 H 1.0281 0.9098 0.7196
C34 C 1.1446(4) 0.6260(11) 0.7159(10)
C35 C 1.2168(4) 0.6053(12) 0.7175(11)
C36 C 1.2662(4) 0.6302(12) 0.7066(11)
C37 C 1.2979(4) 0.5332(12) 0.7256(11)
H21 H 1.2884 0.4524 0.7447
C38 C 1.3426(4) 0.5608(12) 0.7155(12)
H22 H 1.3635 0.4974 0.7312
C39 C 1.3285(4) 0.7634(11) 0.6692(12)
H23 H 1.3392 0.8444 0.6530
C40 C 1.2819(4) 0.7482(12) 0.6754(13)
H24 H 1.2617 0.8136 0.6596
N1 N 0.8357(3) 0.8159(9) 0.4117(10)
N2 N 0.6574(4) 0.8003(10) 0.4040(10)
N3 N 0.6308(3) 0.9837(10) 0.3535(6)
N4 N 0.6778(3) 1.0044(13) 0.3605(7)
N5 N 0.4807(3) 0.7588(10) 0.4118(10)
N6 N 1.0040(3) 0.7430(8) 0.6924(9)
N7 N 1.1833(3) 0.6958(10) 0.7003(10)
N8 N 1.1555(3) 0.5057(10) 0.7427(9)
N9 N 1.2016(3) 0.4904(10) 0.7423(8)
N10 N 1.3597(3) 0.6740(9) 0.6841(10)
O1 O 0.8987(3) 0.6969(8) 0.2833(7)
O2 O 0.9209(3) 0.8944(9) 0.2908(7)
O3 O 0.9189(3) 0.6929(8) -0.1876(6)
O4 O 0.9422(3) 0.8919(8) -0.1826(7)
O5 O 0.9151(3) 0.9491(8) 0.4847(8)
O6 O 0.9450(2) 0.9559(7) 0.6230(7)
O7 O 0.8968(3) 1.6122(7) 0.4767(7)
O8 O 0.9233(3) 1.6206(8) 0.6183(7)
H25 H 0.6074 1.0284 0.3307
H26 H 1.1377 0.4386 0.7489
Co1_2 Co 0.90764(5) 1.78629(14) 0.4152(2)
Co1B Co 0.40764(5) 0.71371(14) 0.4152(2)
Co2_2 Co 0.93281(5) 0.78985(14) -0.3150(2)
Co2_3 Co 0.93281(5) 1.78985(14) 0.6850(2)
Co2B Co 1.43281(5) 0.71015(14) 0.6850(2)
N5B N 0.9807(3) 0.7412(10) 0.4118(10)
N10B N 0.8597(3) 0.8260(9) 0.6841(10)
O3_2 O 0.9189(3) 0.6929(8) 0.8124(6)
O4_2 O 0.9422(3) 0.8919(8) 0.8174(7)
O7_2 O 0.8968(3) 0.6122(7) 0.4767(7)
O8_2 O 0.9233(3) 0.6206(8) 0.6183(7)
O9 O 0.6698(7) 0.6127(14) 0.5556(12)
H27 H 0.6686 0.6646 0.6003
H28 H 0.6612 0.6637 0.5159
O11 O 0.2615(7) 0.0204(16) 0.5632(8)
O10? O 0.267(2) 0.172(5) 0.525(5)
loop_
_geom_bond_atom_site_label_1
_geom_bond_atom_site_label_2
_geom_bond_site_symmetry_1
_geom_bond_site_symmetry_2
Co1 N1 1_555 1_555
Co2 N6 1_555 1_555
C1 C2 1_555 1_555
C2 C3 1_555 1_555
C3 H1 1_555 1_555
C4 C3 1_555 1_555
H2 C4 1_555 1_555
C5 C4 1_555 1_555
C6 C5 1_555 1_555
C7 C5 1_555 1_555
H3 C7 1_555 1_555
C8 C2 1_555 1_555
H4 C8 1_555 1_555
C9 C10 1_555 1_555
C10 C11 1_555 1_555
C11 H5 1_555 1_555
C12 C11 1_555 1_555
H6 C12 1_555 1_555
C13 C12 1_555 1_555
C14 C13 1_555 1_555
C15 C13 1_555 1_555
H7 C15 1_555 1_555
C16 C10 1_555 1_555
H8 C16 1_555 1_555
C17 H9 1_555 1_555
C18 C17 1_555 1_555
H10 C18 1_555 1_555
C19 C18 1_555 1_555
C20 C19 1_555 1_555
H11 C20 1_555 1_555
C21 C20 1_555 1_555
H12 C21 1_555 1_555
C22 C19 1_555 1_555
C23 C24 1_555 1_555
C24 C25 1_555 1_555
C25 H13 1_555 1_555
C26 C25 1_555 1_555
H14 C26 1_555 1_555
C27 H15 1_555 1_555
C28 C24 1_555 1_555
H16 C28 1_555 1_555
C29 H17 1_555 1_555
C30 C29 1_555 1_555
H18 C30 1_555 1_555
C31 C30 1_555 1_555
C32 C31 1_555 1_555
H19 C32 1_555 1_555
C33 C32 1_555 1_555
H20 C33 1_555 1_555
C34 C31 1_555 1_555
C35 C36 1_555 1_555
C36 C37 1_555 1_555
C37 H21 1_555 1_555
C38 C37 1_555 1_555
H22 C38 1_555 1_555
C39 H23 1_555 1_555
C40 C36 1_555 1_555
H24 C40 1_555 1_555
N1 C17 1_555 1_555
N2 C22 1_555 1_555
N3 C23 1_555 1_555
N4 C22 1_555 1_555
N5 C26 1_555 1_555
N6 C29 1_555 1_555
N7 C34 1_555 1_555
N8 C34 1_555 1_555
N9 C35 1_555 1_555
N10 C38 1_555 1_555
O1 Co1 1_555 1_555
O2 Co1 1_555 1_555
O3 C6 1_555 1_555
O4 C6 1_555 1_555
O5 Co1 1_555 1_555
O6 Co2 1_555 1_555
O7 C14 1_555 1_555
O8 C14 1_555 1_555
H25 N3 1_555 1_555
H26 N8 1_555 1_555
O9 H27 1_555 1_555
H28 O9 1_555 1_555
Co1_2 O7 1_555 1_555
Co1B N5 1_555 1_555
Co2_2 O3 1_555 1_555
Co2_3 O8 1_555 1_555
Co2B N10 1_555 1_555
N5B Co1 1_555 1_555
N10B Co2 1_555 1_555
O3_2 Co2 1_555 1_555
O4_2 Co2 1_555 1_555
O7_2 Co1 1_555 1_555
O8_2 Co2 1_555 1_555
C1 O1 1_555 1_555
C1 O2 1_555 1_555
C7 C8 1_555 1_555
C9 O5 1_555 1_555
C9 O6 1_555 1_555
C15 C16 1_555 1_555
C21 N1 1_555 1_555
C23 N2 1_555 1_555
C27 C28 1_555 1_555
C27 N5 1_555 1_555
C33 N6 1_555 1_555
C35 N7 1_555 1_555
C39 C40 1_555 1_555
C39 N10 1_555 1_555
N3 N4 1_555 1_555
N8 N9 1_555 1_555
O4 Co2_2 1_555 1_555

#END
