
#######################################################################
#
#                 Cambridge Crystallographic Data Centre
#                                CCDC 
#
#######################################################################
#
# If this CIF has been generated from an entry in the Cambridge 
# Structural Database, then it will include bibliographic, chemical, 
# crystal, experimental, refinement or atomic coordinate data resulting 
# from the CCDC's data processing and validation procedures.
#
#######################################################################

data_ROWVUW
_symmetry_cell_setting           monoclinic
_symmetry_space_group_name_H-M   'P 21/n'
_symmetry_Int_Tables_number      14
_space_group_name_Hall           '-P 2yn'
loop_
_symmetry_equiv_pos_site_id
_symmetry_equiv_pos_as_xyz
1 x,y,z
2 1/2-x,1/2+y,1/2-z
3 -x,-y,-z
4 1/2+x,1/2-y,1/2+z
_cell_length_a                   17.497(4)
_cell_length_b                   10.171(2)
_cell_length_c                   23.344(5)
_cell_angle_alpha                90
_cell_angle_beta                 90.54(3)
_cell_angle_gamma                90
_cell_volume                     4154.16
loop_
_atom_site_label
_atom_site_type_symbol
_atom_site_fract_x
_atom_site_fract_y
_atom_site_fract_z
Co1 Co 0.52251(3) 0.76708(5) 0.13453(2)
Co2 Co 0.38478(3) 0.73637(5) 0.26946(2)
C1 C 0.4262(2) 0.9712(4) 0.20670(17)
C2 C 0.4403(2) 1.1163(4) 0.20632(16)
C3 C 0.4837(2) 1.1723(4) 0.16333(18)
H1 H 0.5038 1.1198 0.1345
C4 C 0.4972(2) 1.3063(4) 0.16333(17)
H2 H 0.5259 1.3439 0.1343
C5 C 0.4679(2) 1.3853(4) 0.20666(16)
C6 C 0.4258(2) 1.3286(4) 0.24969(17)
H3 H 0.4069 1.3805 0.2791
C7 C 0.4115(2) 1.1949(4) 0.24932(17)
H4 H 0.3823 1.1576 0.2782
C8 C 0.4783(2) 1.5314(4) 0.20441(17)
C9 C 0.3179(3) 0.6115(5) 0.36487(19)
C10 C 0.2633(3) 0.6199(4) 0.41428(18)
C11 C 0.1955(3) 0.6870(5) 0.40862(18)
H5 H 0.1816 0.7222 0.3733
C12 C 0.1479(3) 0.7024(5) 0.45482(19)
H6 H 0.1024 0.7492 0.4508
C13 C 0.1680(2) 0.6479(4) 0.50745(17)
C14 C 0.2346(3) 0.5791(5) 0.51297(18)
H7 H 0.2477 0.5406 0.5479
C15 C 0.2825(3) 0.5666(5) 0.4667(2)
H8 H 0.3285 0.5216 0.4710
C16 C 0.1164(2) 0.6694(4) 0.55675(17)
C17 C 0.6229(3) 0.9238(4) 0.2138(2)
H9 H 0.6047 0.9910 0.1904
C18 C 0.6673(3) 0.9568(5) 0.2607(2)
H10 H 0.6773 1.0446 0.2690
C19 C 0.6969(3) 0.8588(4) 0.29507(19)
C20 C 0.6804(3) 0.7311(4) 0.28047(19)
H11 H 0.6998 0.6620 0.3022
C21 C 0.6350(3) 0.7064(4) 0.23352(18)
H12 H 0.6246 0.6193 0.2242
C22 C 0.7440(3) 0.8922(4) 0.34537(18)
C23 C 0.8108(2) 0.8800(4) 0.41960(18)
C24 C 0.8549(2) 0.8400(4) 0.47019(18)
C25 C 0.8787(3) 0.9322(5) 0.5091(2)
H13 H 0.8657 1.0201 0.5041
C26 C 0.9220(3) 0.8946(5) 0.5557(2)
H14 H 0.9386 0.9596 0.5809
C27 C 0.9158(3) 0.6828(4) 0.5300(2)
H15 H 0.9268 0.5949 0.5373
C28 C 0.8737(3) 0.7127(4) 0.4814(2)
H16 H 0.8582 0.6462 0.4564
C29 C 0.2800(3) 0.7740(4) 0.16107(19)
H17 H 0.2914 0.8624 0.1670
C30 C 0.2376(3) 0.7411(4) 0.11374(19)
H18 H 0.2206 0.8059 0.0886
C31 C 0.2202(2) 0.6114(4) 0.10373(18)
C32 C 0.2440(2) 0.5197(4) 0.14377(18)
H19 H 0.2318 0.4312 0.1393
C33 C 0.2859(2) 0.5615(4) 0.19031(18)
H20 H 0.3011 0.4990 0.2171
C34 C 0.1777(3) 0.5703(4) 0.05168(18)
C35 C 0.1100(3) 0.5798(4) -0.02292(19)
C36 C 0.0608(3) 0.6216(4) -0.07093(18)
C37 C 0.0589(3) 0.7512(5) -0.0887(2)
H21 H 0.0891 0.8139 -0.0703
C38 C 0.0121(3) 0.7866(4) -0.1336(2)
H22 H 0.0124 0.8740 -0.1454
C39 C -0.0322(3) 0.5796(4) -0.1433(2)
H23 H -0.0640 0.5192 -0.1616
C40 C 0.0138(3) 0.5356(4) -0.0990(2)
H24 H 0.0128 0.4475 -0.0883
H25 H 0.8286 1.0751 0.4162
H26 H 0.1288 0.3845 -0.0354
N1 N 0.6049(2) 0.8000(3) 0.20053(14)
N2 N 0.7621(2) 1.0165(4) 0.35580(16)
N3 N 0.8048(2) 1.0056(4) 0.40384(15)
N4 N 0.7725(2) 0.8043(4) 0.38326(15)
N5 N 0.94158(19) 0.7717(3) 0.56672(14)
N6 N 0.30632(19) 0.6864(3) 0.19950(14)
N7 N 0.1384(2) 0.6558(4) 0.01765(15)
N8 N 0.1310(2) 0.4556(4) -0.01345(17)
N9 N 0.1752(2) 0.4476(4) 0.03432(17)
N10 N -0.0335(2) 0.7036(3) -0.16127(15)
O1 O 0.45423(17) 0.9028(3) 0.16786(13)
O2 O 0.38661(17) 0.9256(3) 0.24658(12)
O3 O 0.50845(17) 1.5779(3) 0.16050(11)
O4 O 0.45595(16) 1.5972(3) 0.24633(12)
O5 O 0.30596(18) 0.6941(3) 0.32496(13)
O6 O 0.3691(2) 0.5285(4) 0.36536(16)
O7 O 0.10480(17) 0.7874(3) 0.57268(12)
O8 O 0.08317(18) 0.5781(3) 0.58114(12)
Co1_2 Co 0.52251(3) 1.76708(5) 0.13453(2)
Co1C Co 0.02251(3) 0.73292(5) 0.63453(2)
Co1C_2 Co 1.02251(3) 0.73292(5) 0.63453(2)
Co2_2 Co 0.38478(3) 1.73637(5) 0.26946(2)
Co2C Co -0.11522(3) 0.76363(5) -0.23054(2)
N5C N 0.44158(19) 0.7283(3) 0.06672(14)
N10C N 0.4665(2) 0.7964(3) 0.33873(15)
O3_2 O 0.50845(17) 0.5779(3) 0.16050(11)
O4_2 O 0.45595(16) 0.5972(3) 0.24633(12)
O7C O 0.60480(17) 0.7126(3) 0.07268(12)
O8C O 0.58317(18) 0.9219(3) 0.08114(12)
H27 H 0.0775 0.8047 0.0512
H28 H 0.0774 0.9170 0.0869
O9 O 0.0439(4) 0.8670(7) 0.0677(3)
C41 C 0.8758(7) 0.7940(12) 0.1341(5)
H29 H 0.8210 0.7939 0.1329
H30 H 0.8938 0.8788 0.1463
H31 H 0.8935 0.7282 0.1606
O10 O 0.9045(3) 0.7657(4) 0.0783(2)
H32 H 0.9282 0.8295 0.0664
loop_
_geom_bond_atom_site_label_1
_geom_bond_atom_site_label_2
_geom_bond_site_symmetry_1
_geom_bond_site_symmetry_2
Co1 N1 1_555 1_555
Co2 N6 1_555 1_555
C1 C2 1_555 1_555
C2 C3 1_555 1_555
C3 H1 1_555 1_555
C4 C3 1_555 1_555
H2 C4 1_555 1_555
C5 C4 1_555 1_555
C6 C5 1_555 1_555
H3 C6 1_555 1_555
C7 C2 1_555 1_555
H4 C7 1_555 1_555
C8 C5 1_555 1_555
C9 C10 1_555 1_555
C10 C11 1_555 1_555
C11 H5 1_555 1_555
C12 C11 1_555 1_555
H6 C12 1_555 1_555
C13 C12 1_555 1_555
C14 C13 1_555 1_555
H7 C14 1_555 1_555
C15 C10 1_555 1_555
H8 C15 1_555 1_555
C16 C13 1_555 1_555
C17 H9 1_555 1_555
C18 C17 1_555 1_555
H10 C18 1_555 1_555
C19 C18 1_555 1_555
C20 C19 1_555 1_555
H11 C20 1_555 1_555
C21 C20 1_555 1_555
H12 C21 1_555 1_555
C22 C19 1_555 1_555
C23 C24 1_555 1_555
C24 C25 1_555 1_555
C25 H13 1_555 1_555
C26 C25 1_555 1_555
H14 C26 1_555 1_555
C27 H15 1_555 1_555
C28 C24 1_555 1_555
H16 C28 1_555 1_555
C29 H17 1_555 1_555
C30 C29 1_555 1_555
H18 C30 1_555 1_555
C31 C30 1_555 1_555
C32 C31 1_555 1_555
H19 C32 1_555 1_555
C33 C32 1_555 1_555
H20 C33 1_555 1_555
C34 C31 1_555 1_555
C35 C36 1_555 1_555
C36 C37 1_555 1_555
C37 H21 1_555 1_555
C38 C37 1_555 1_555
H22 C38 1_555 1_555
C39 H23 1_555 1_555
C40 C36 1_555 1_555
H24 C40 1_555 1_555
H25 N3 1_555 1_555
H26 N8 1_555 1_555
N1 C17 1_555 1_555
N2 C22 1_555 1_555
N3 C23 1_555 1_555
N4 C22 1_555 1_555
N5 C26 1_555 1_555
N6 C29 1_555 1_555
N7 C34 1_555 1_555
N8 C35 1_555 1_555
N9 C34 1_555 1_555
N10 C38 1_555 1_555
O1 Co1 1_555 1_555
O2 Co2 1_555 1_555
O3 C8 1_555 1_555
O4 C8 1_555 1_555
O5 Co2 1_555 1_555
O6 C9 1_555 1_555
O7 C16 1_555 1_555
O8 C16 1_555 1_555
H27 O9 1_555 1_555
H28 O9 1_555 1_555
C41 H29 1_555 1_555
H30 C41 1_555 1_555
H31 C41 1_555 1_555
O10 C41 1_555 1_555
H32 O10 1_555 1_555
Co1_2 O3 1_555 1_555
Co1C O7 1_555 1_555
Co1C_2 N5 1_555 1_555
Co2_2 O4 1_555 1_555
Co2C N10 1_555 1_555
N5C Co1 1_555 1_555
N10C Co2 1_555 1_555
O3_2 Co1 1_555 1_555
O4_2 Co2 1_555 1_555
O7C Co1 1_555 1_555
O8C Co1 1_555 1_555
C1 O1 1_555 1_555
C1 O2 1_555 1_555
C6 C7 1_555 1_555
C9 O5 1_555 1_555
C14 C15 1_555 1_555
C21 N1 1_555 1_555
C23 N4 1_555 1_555
C27 C28 1_555 1_555
C27 N5 1_555 1_555
C33 N6 1_555 1_555
C35 N7 1_555 1_555
C39 C40 1_555 1_555
C39 N10 1_555 1_555
N2 N3 1_555 1_555
N8 N9 1_555 1_555
O8 Co1C 1_555 1_555

#END
