
#######################################################################
#
#                 Cambridge Crystallographic Data Centre
#                                CCDC 
#
#######################################################################
#
# If this CIF has been generated from an entry in the Cambridge 
# Structural Database, then it will include bibliographic, chemical, 
# crystal, experimental, refinement or atomic coordinate data resulting 
# from the CCDC's data processing and validation procedures.
#
#######################################################################

data_ROYSAB
_symmetry_cell_setting           monoclinic
_symmetry_space_group_name_H-M   'P 21/c'
_symmetry_Int_Tables_number      14
_space_group_name_Hall           '-P 2ybc'
loop_
_symmetry_equiv_pos_site_id
_symmetry_equiv_pos_as_xyz
1 x,y,z
2 -x,1/2+y,1/2-z
3 -x,-y,-z
4 x,1/2-y,1/2+z
_cell_length_a                   14.26463(15)
_cell_length_b                   29.8504(3)
_cell_length_c                   18.2812(2)
_cell_angle_alpha                90
_cell_angle_beta                 107.0122(12)
_cell_angle_gamma                90
_cell_volume                     7443.61
loop_
_atom_site_label
_atom_site_type_symbol
_atom_site_fract_x
_atom_site_fract_y
_atom_site_fract_z
Pr1 Pr 0.312898(8) 0.256892(4) 0.175717(8)
Pr2 Pr 0.173654(9) 0.331119(4) 0.322843(8)
O1 O 0.34919(12) 0.32080(8) 0.37922(13)
O2 O 0.40814(13) 0.27871(8) 0.30236(12)
O3 O 0.59006(13) 0.25972(8) 0.33654(11)
H1 H 0.5320 0.2601 0.3117
O4 O 1.12866(16) 0.19880(7) 0.69310(12)
O5 O 1.13644(13) 0.24942(9) 0.60885(13)
O6 O 0.98259(12) 0.27545(7) 0.50533(11)
H2 H 1.0384 0.2773 0.5344
O7 O 0.17051(15) 0.25125(6) 0.33431(12)
O8 O 0.24389(13) 0.21327(6) 0.26197(11)
O9 O 0.24280(13) 0.12643(6) 0.27311(13)
H3 H 0.2617 0.1510 0.2632
O10 O -0.16040(13) -0.09730(6) 0.11136(11)
O11 O -0.06160(13) -0.10145(6) 0.22869(11)
O12 O 0.05033(14) -0.03532(6) 0.28729(11)
H4 H 0.0205 -0.0590 0.2852
O13 O 0.31990(14) 0.33802(6) 0.17406(12)
O14 O 0.25465(13) 0.37748(7) 0.24964(12)
O15 O 0.27660(14) 0.46285(7) 0.25982(13)
H5 H 0.2594 0.4380 0.2702
O16 O 0.69745(14) 0.68216(6) 0.39072(11)
O17 O 0.58544(13) 0.68559(6) 0.27888(11)
O18 O 0.45881(14) 0.62328(6) 0.23439(11)
H6 H 0.4849 0.6478 0.2349
O19 O 0.47400(14) 0.26581(8) 0.15512(14)
O20 O 0.28275(17) 0.27694(7) 0.03552(12)
O21 O 0.00601(13) 0.31492(8) 0.33834(15)
H7 H 0.0099 0.3106 0.3866
H8 H -0.0335 0.3376 0.3215
O22 O 0.19220(14) 0.30734(7) 0.46003(11)
H9 H 0.2148 0.2791 0.4685
H10 H 0.2347 0.3250 0.4941
N1 N 0.63528(17) 0.27040(10) 0.16673(16)
N2 N 0.3670(4) 0.3181(2) -0.0249(3)
C1 C 0.41916(17) 0.30223(10) 0.36240(16)
C2 C 0.52121(17) 0.30698(10) 0.41563(15)
C3 C 0.53694(18) 0.33284(9) 0.48017(15)
H11 H 0.4836 0.3458 0.4917
C4 C 0.63204(17) 0.34028(9) 0.52943(15)
C5 C 0.6480(2) 0.36856(11) 0.59342(17)
H12 H 0.5946 0.3812 0.6050
C6 C 0.7409(2) 0.37785(12) 0.63908(18)
H13 H 0.7504 0.3964 0.6815
C7 C 0.8213(2) 0.35898(11) 0.62076(18)
H14 H 0.8846 0.3659 0.6505
C8 C 0.80854(18) 0.33073(10) 0.56038(16)
H15 H 0.8633 0.3184 0.5502
C9 C 0.71363(16) 0.31952(9) 0.51227(14)
C10 C 0.69796(16) 0.29050(9) 0.44815(14)
C11 C 0.60347(17) 0.28555(10) 0.40024(15)
C12 C 0.78279(17) 0.26771(10) 0.42851(14)
H16 H 0.8290 0.2905 0.4235
H17 H 0.7578 0.2532 0.3792
C13 C 1.08925(19) 0.22035(10) 0.63303(16)
C14 C 0.98587(17) 0.21095(9) 0.58712(15)
C15 C 0.93953(19) 0.17355(10) 0.60195(16)
H18 H 0.9713 0.1553 0.6429
C16 C 0.8444(2) 0.16207(10) 0.55637(18)
C17 C 0.8024(2) 0.12005(12) 0.5640(2)
H19 H 0.8358 0.1003 0.6021
C18 C 0.7132(3) 0.10844(13) 0.5157(2)
H20 H 0.6869 0.0804 0.5199
C19 C 0.6619(2) 0.13807(13) 0.4608(2)
H21 H 0.6010 0.1297 0.4285
C20 C 0.69838(19) 0.17941(11) 0.45262(19)
H22 H 0.6612 0.1992 0.4162
C21 C 0.79264(17) 0.19254(10) 0.49930(15)
C22 C 0.83764(16) 0.23304(9) 0.48659(14)
C23 C 0.93566(16) 0.23985(9) 0.52609(14)
C24 C 0.18516(19) 0.21614(9) 0.30158(15)
C25 C 0.12952(19) 0.17538(9) 0.31034(15)
C26 C 0.0447(2) 0.17977(10) 0.33100(16)
H23 H 0.0255 0.2081 0.3421
C27 C -0.01344(19) 0.14268(10) 0.33574(17)
C28 C -0.1018(2) 0.14745(12) 0.3564(2)
H24 H -0.1218 0.1758 0.3668
C29 C -0.1573(2) 0.11129(13) 0.3611(2)
H25 H -0.2156 0.1150 0.3734
C30 C -0.1271(2) 0.06874(12) 0.34744(19)
H26 H -0.1647 0.0441 0.3520
C31 C -0.0431(2) 0.06248(11) 0.32748(17)
H27 H -0.0246 0.0336 0.3186
C32 C 0.01657(18) 0.09905(10) 0.31998(15)
C33 C 0.10391(18) 0.09413(9) 0.29713(16)
C34 C 0.15814(18) 0.13144(9) 0.29332(16)
C35 C 0.13558(18) 0.04817(9) 0.27605(16)
H28 H 0.1973 0.0514 0.2643
H29 H 0.1468 0.0286 0.3201
C36 C -0.09403(18) -0.08031(9) 0.16550(16)
C37 C -0.05179(18) -0.03564(9) 0.15619(16)
C38 C -0.08233(19) -0.01405(10) 0.08729(17)
H30 H -0.1300 -0.0274 0.0473
C39 C -0.0437(2) 0.02798(10) 0.07505(16)
C40 C -0.0766(2) 0.05076(12) 0.00397(19)
H31 H -0.1274 0.0386 -0.0352
C41 C -0.0351(3) 0.09001(11) -0.0078(2)
H32 H -0.0590 0.1051 -0.0540
C42 C 0.0427(2) 0.10733(11) 0.04895(19)
H33 H 0.0728 0.1334 0.0394
C43 C 0.0767(2) 0.08718(10) 0.11894(18)
H34 H 0.1293 0.0997 0.1561
C44 C 0.03232(18) 0.04719(9) 0.13545(16)
C45 C 0.06147(17) 0.02611(9) 0.20819(16)
C46 C 0.02113(17) -0.01462(9) 0.21764(15)
C47 C 0.30682(19) 0.37407(9) 0.20459(16)
C48 C 0.35677(18) 0.41567(9) 0.18872(15)
C49 C 0.4339(4) 0.4113(2) 0.1556(3)
H35 H 0.4494 0.3827 0.1426
C50 C 0.4888(4) 0.4474(2) 0.1411(4)
C51 C 0.5634(5) 0.4456(3) 0.1086(4)
H36 H 0.5780 0.4180 0.0910
C52 C 0.6180(5) 0.4816(3) 0.1002(4)
H37 H 0.6694 0.4782 0.0789
C53 C 0.5958(5) 0.5238(2) 0.1240(4)
H38 H 0.6297 0.5492 0.1168
C54 C 0.5230(5) 0.5265(2) 0.1581(4)
H39 H 0.5144 0.5541 0.1787
C55 C 0.46009(19) 0.49225(9) 0.16527(16)
C56 C 0.39402(18) 0.49547(9) 0.20988(16)
C57 C 0.34142(18) 0.45816(9) 0.21857(16)
C58 C 0.38326(18) 0.53898(9) 0.24965(17)
H40 H 0.3341 0.5347 0.2761
H41 H 0.3588 0.5617 0.2109
C59 C 0.62710(18) 0.66417(9) 0.33972(15)
C60 C 0.59312(17) 0.61850(9) 0.35116(15)
C61 C 0.64196(18) 0.59386(9) 0.41409(16)
H42 H 0.6965 0.6063 0.4494
C62 C 0.61201(19) 0.55037(9) 0.42677(16)
C63 C 0.6639(2) 0.52556(11) 0.49171(19)
H43 H 0.7170 0.5386 0.5275
C64 C 0.6376(2) 0.48265(11) 0.5030(2)
H44 H 0.6738 0.4662 0.5450
C65 C 0.5553(2) 0.46412(11) 0.45033(19)
H45 H 0.5368 0.4350 0.4580
C66 C 0.5014(2) 0.48722(10) 0.38821(18)
H46 H 0.4459 0.4740 0.3553
C67 C 0.52853(18) 0.53137(9) 0.37253(16)
C68 C 0.47635(17) 0.55665(9) 0.30693(15)
C69 C 0.50896(17) 0.59942(9) 0.29668(15)
C70 C 0.5567(2) 0.24902(12) 0.1683(2)
H47 H 0.5630 0.2187 0.1802
C71 C 0.6307(3) 0.31766(15) 0.1498(3)
H48 H 0.6125 0.3219 0.0954
H49 H 0.6937 0.3310 0.1728
H50 H 0.5827 0.3315 0.1699
C72 C 0.7312(2) 0.24984(16) 0.1853(3)
H51 H 0.7738 0.2640 0.2298
H52 H 0.7577 0.2534 0.1430
H53 H 0.7257 0.2185 0.1953
C73 C 0.3085(6) 0.3103(3) 0.0115(4)
H54 H 0.2780 0.3359 0.0224
C74 C 0.4203(6) 0.2861(3) -0.0411(4)
H55 H 0.4876 0.2903 -0.0121
H56 H 0.4146 0.2869 -0.0947
H57 H 0.3977 0.2577 -0.0284
C75 C 0.3877(6) 0.3595(3) -0.0528(4)
H58 H 0.3337 0.3795 -0.0574
H59 H 0.3976 0.3554 -0.1021
H60 H 0.4459 0.3719 -0.0181
Pr1A Pr 0.687102(8) 0.756892(4) 0.324283(8)
Pr1C Pr 1.312898(8) 0.243108(4) 0.675717(8)
Pr2A Pr -0.173654(9) -0.168881(4) 0.177157(8)
Pr2C Pr 1.173654(9) 0.168881(4) 0.822843(8)
O4C O 0.12866(16) 0.30120(7) 0.19310(12)
O5C O 0.13644(13) 0.25058(9) 0.10885(13)
O10A O 0.16040(13) 0.40270(6) 0.38864(11)
O11A O 0.06160(13) 0.39855(6) 0.27131(11)
O16A O 0.30255(14) 0.18216(6) 0.10928(11)
O17A O 0.41456(13) 0.18559(6) 0.22112(11)
O23 O 0.83173(18) 0.35699(11) 0.30093(18)
N3 N 0.7338(2) 0.41522(11) 0.30815(19)
C76 C 0.8075(2) 0.39610(16) 0.2907(2)
H61 H 0.8447 0.4142 0.2685
C77 C 0.6712(3) 0.38978(17) 0.3400(3)
H62 H 0.6724 0.4021 0.3888
H63 H 0.6934 0.3593 0.3464
H64 H 0.6055 0.3908 0.3063
C78 C 0.7117(3) 0.46231(15) 0.2982(3)
H65 H 0.6437 0.4662 0.2706
H66 H 0.7516 0.4758 0.2701
H67 H 0.7251 0.4764 0.3474
N4 N 0.1361(3) 0.42245(17) 0.0256(3)
C79 C 0.1909(7) 0.3829(3) 0.0006(6)
C80 C 0.1828(6) 0.4668(3) 0.0083(4)
C81 C 0.0668(5) 0.4391(3) 0.0649(5)
O24 O 0.1477(8) 0.3548(4) 0.0185(7)
C82? C 0.4098(4) 0.4141(2) 0.1381(3)
H68? H 0.4132 0.3879 0.1116
C83? C 0.4599(4) 0.4531(2) 0.1264(4)
C84? C 0.5209(5) 0.4495(3) 0.0746(4)
H69? H 0.5257 0.4225 0.0506
C85? C 0.5697(5) 0.4858(3) 0.0624(4)
H70? H 0.6095 0.4837 0.0303
C86? C 0.5621(5) 0.5272(2) 0.0972(4)
H71? H 0.5980 0.5515 0.0880
C87? C 0.5043(4) 0.5331(2) 0.1437(3)
H72? H 0.4931 0.5613 0.1611
O25? O 0.2338(8) 0.4448(4) -0.0187(6)
loop_
_geom_bond_atom_site_label_1
_geom_bond_atom_site_label_2
_geom_bond_site_symmetry_1
_geom_bond_site_symmetry_2
Pr1 O2 1_555 1_555
Pr2 O1 1_555 1_555
O1 C1 1_555 1_555
O2 C1 1_555 1_555
O3 H1 1_555 1_555
O4 C13 1_555 1_555
O5 C13 1_555 1_555
O6 H2 1_555 1_555
O7 Pr2 1_555 1_555
O8 Pr1 1_555 1_555
O9 H3 1_555 1_555
O10 C36 1_555 1_555
O11 C36 1_555 1_555
O12 H4 1_555 1_555
O13 Pr1 1_555 1_555
O14 Pr2 1_555 1_555
O15 H5 1_555 1_555
O16 C59 1_555 1_555
O17 C59 1_555 1_555
O18 H6 1_555 1_555
O19 Pr1 1_555 1_555
O20 Pr1 1_555 1_555
O21 Pr2 1_555 1_555
H7 O21 1_555 1_555
H8 O21 1_555 1_555
O22 Pr2 1_555 1_555
H9 O22 1_555 1_555
H10 O22 1_555 1_555
N1 C70 1_555 1_555
N2 C73 1_555 1_555
C1 C2 1_555 1_555
C2 C3 1_555 1_555
C3 H11 1_555 1_555
C4 C3 1_555 1_555
C5 C4 1_555 1_555
H12 C5 1_555 1_555
C6 C5 1_555 1_555
H13 C6 1_555 1_555
C7 C6 1_555 1_555
H14 C7 1_555 1_555
C8 C7 1_555 1_555
H15 C8 1_555 1_555
C9 C4 1_555 1_555
C10 C9 1_555 1_555
C11 O3 1_555 1_555
C12 C10 1_555 1_555
H16 C12 1_555 1_555
H17 C12 1_555 1_555
C13 C14 1_555 1_555
C14 C15 1_555 1_555
C15 H18 1_555 1_555
C16 C15 1_555 1_555
C17 C16 1_555 1_555
H19 C17 1_555 1_555
C18 C17 1_555 1_555
H20 C18 1_555 1_555
C19 C18 1_555 1_555
H21 C19 1_555 1_555
C20 C19 1_555 1_555
H22 C20 1_555 1_555
C21 C16 1_555 1_555
C22 C12 1_555 1_555
C23 O6 1_555 1_555
C24 O7 1_555 1_555
C25 C24 1_555 1_555
C26 C25 1_555 1_555
H23 C26 1_555 1_555
C27 C26 1_555 1_555
C28 C27 1_555 1_555
H24 C28 1_555 1_555
C29 C28 1_555 1_555
H25 C29 1_555 1_555
C30 C29 1_555 1_555
H26 C30 1_555 1_555
C31 C30 1_555 1_555
H27 C31 1_555 1_555
C32 C27 1_555 1_555
C33 C32 1_555 1_555
C34 O9 1_555 1_555
C35 C33 1_555 1_555
H28 C35 1_555 1_555
H29 C35 1_555 1_555
C36 C37 1_555 1_555
C37 C38 1_555 1_555
C38 H30 1_555 1_555
C39 C38 1_555 1_555
C40 C39 1_555 1_555
H31 C40 1_555 1_555
C41 C40 1_555 1_555
H32 C41 1_555 1_555
C42 C41 1_555 1_555
H33 C42 1_555 1_555
C43 C42 1_555 1_555
H34 C43 1_555 1_555
C44 C39 1_555 1_555
C45 C35 1_555 1_555
C46 O12 1_555 1_555
C47 O13 1_555 1_555
C48 C47 1_555 1_555
C49 C48 1_555 1_555
H35 C49 1_555 1_555
C50 C49 1_555 1_555
C51 C50 1_555 1_555
H36 C51 1_555 1_555
C52 C51 1_555 1_555
H37 C52 1_555 1_555
C53 C52 1_555 1_555
H38 C53 1_555 1_555
C54 C53 1_555 1_555
H39 C54 1_555 1_555
C55 C50 1_555 1_555
C56 C55 1_555 1_555
C57 O15 1_555 1_555
C58 C56 1_555 1_555
H40 C58 1_555 1_555
H41 C58 1_555 1_555
C59 C60 1_555 1_555
C60 C61 1_555 1_555
C61 H42 1_555 1_555
C62 C61 1_555 1_555
C63 C62 1_555 1_555
H43 C63 1_555 1_555
C64 C63 1_555 1_555
H44 C64 1_555 1_555
C65 C64 1_555 1_555
H45 C65 1_555 1_555
C66 C65 1_555 1_555
H46 C66 1_555 1_555
C67 C62 1_555 1_555
C68 C58 1_555 1_555
C69 O18 1_555 1_555
C70 O19 1_555 1_555
H47 C70 1_555 1_555
C71 N1 1_555 1_555
H48 C71 1_555 1_555
H49 C71 1_555 1_555
H50 C71 1_555 1_555
C72 N1 1_555 1_555
H51 C72 1_555 1_555
H52 C72 1_555 1_555
H53 C72 1_555 1_555
C73 O20 1_555 1_555
H54 C73 1_555 1_555
C74 N2 1_555 1_555
H55 C74 1_555 1_555
H56 C74 1_555 1_555
H57 C74 1_555 1_555
C75 N2 1_555 1_555
H58 C75 1_555 1_555
H59 C75 1_555 1_555
H60 C75 1_555 1_555
O23 C76 1_555 1_555
N3 C76 1_555 1_555
C76 H61 1_555 1_555
C77 N3 1_555 1_555
H62 C77 1_555 1_555
H63 C77 1_555 1_555
H64 C77 1_555 1_555
C78 N3 1_555 1_555
H65 C78 1_555 1_555
H66 C78 1_555 1_555
H67 C78 1_555 1_555
N4 C79 1_555 1_555
C79 O24 1_555 1_555
C80 N4 1_555 1_555
C81 N4 1_555 1_555
Pr1A O16 1_555 1_555
Pr1C O5 1_555 1_555
Pr2A O10 1_555 1_555
Pr2C O4 1_555 1_555
O4C Pr2 1_555 1_555
O5C Pr1 1_555 1_555
O10A Pr2 1_555 1_555
O11A Pr2 1_555 1_555
O16A Pr1 1_555 1_555
O17A Pr1 1_555 1_555
O8 C24 1_555 1_555
O11 Pr2A 1_555 1_555
O14 C47 1_555 1_555
O17 Pr1A 1_555 1_555
C2 C11 1_555 1_555
C8 C9 1_555 1_555
C10 C11 1_555 1_555
C14 C23 1_555 1_555
C20 C21 1_555 1_555
C21 C22 1_555 1_555
C22 C23 1_555 1_555
C25 C34 1_555 1_555
C31 C32 1_555 1_555
C33 C34 1_555 1_555
C37 C46 1_555 1_555
C43 C44 1_555 1_555
C44 C45 1_555 1_555
C45 C46 1_555 1_555
C48 C57 1_555 1_555
C54 C55 1_555 1_555
C56 C57 1_555 1_555
C60 C69 1_555 1_555
C66 C67 1_555 1_555
C67 C68 1_555 1_555
C68 C69 1_555 1_555

#END
