
#######################################################################
#
#                 Cambridge Crystallographic Data Centre
#                                CCDC 
#
#######################################################################
#
# If this CIF has been generated from an entry in the Cambridge 
# Structural Database, then it will include bibliographic, chemical, 
# crystal, experimental, refinement or atomic coordinate data resulting 
# from the CCDC's data processing and validation procedures.
#
#######################################################################

data_ROYTIK
_symmetry_cell_setting           monoclinic
_symmetry_space_group_name_H-M   'P 21/c'
_symmetry_Int_Tables_number      14
_space_group_name_Hall           '-P 2ybc'
loop_
_symmetry_equiv_pos_site_id
_symmetry_equiv_pos_as_xyz
1 x,y,z
2 -x,1/2+y,1/2-z
3 -x,-y,-z
4 x,1/2-y,1/2+z
_cell_length_a                   14.0233(4)
_cell_length_b                   29.3110(8)
_cell_length_c                   18.4183(9)
_cell_angle_alpha                90
_cell_angle_beta                 107.095(4)
_cell_angle_gamma                90
_cell_volume                     7236.12
loop_
_atom_site_label
_atom_site_type_symbol
_atom_site_fract_x
_atom_site_fract_y
_atom_site_fract_z
Er1 Er 0.326798(14) 0.671500(7) 0.672233(12)
Er2 Er 0.186811(14) 0.744310(7) 0.820161(12)
O1 O 0.3363(2) 0.60200(9) 0.60851(17)
O2 O 0.4391(2) 0.60664(9) 0.72339(17)
O3 O 0.5498(2) 0.53959(9) 0.78423(17)
H1 H 0.5252 0.5652 0.7803
O4 O 0.6752(2) 0.24889(9) 0.83708(17)
O5 O 0.7391(2) 0.28563(9) 0.75643(16)
O6 O 0.7477(2) 0.37457(9) 0.7742(2)
H2 H 0.7654 0.3496 0.7629
O7 O 0.15677(19) 0.68291(11) 0.62296(18)
O8 O 0.09400(19) 0.72400(10) 0.69943(16)
O9 O -0.0913(2) 0.74202(13) 0.66462(18)
H3 H -0.0332 0.7404 0.6915
O10 O -0.6123(2) 0.80414(10) 0.29298(17)
O11 O -0.64288(19) 0.76011(10) 0.38118(18)
O12 O -0.48954(19) 0.72907(10) 0.48784(18)
H4 H -0.5469 0.7295 0.4596
O13 O 0.1924(2) 0.66612(9) 0.82076(17)
O14 O 0.2494(2) 0.62565(9) 0.74089(18)
O15 O 0.2279(3) 0.53909(11) 0.7331(3)
H5 H 0.2540 0.5637 0.7296
O16 O -0.2019(2) 0.31569(9) 0.61284(16)
O17 O -0.0878(2) 0.31349(9) 0.72289(16)
O18 O 0.0429(2) 0.37654(9) 0.76429(17)
H6 H 0.0115 0.3536 0.7683
O19 O 0.4863(2) 0.68816(11) 0.6559(2)
H7 H 0.5268 0.6662 0.6737
H8 H 0.4806 0.6915 0.6085
O20 O 0.3044(2) 0.69363(10) 0.54133(16)
H9 H 0.2633 0.6754 0.5112
H10 H 0.2811 0.7209 0.5340
O21 O 0.2130(2) 0.72454(10) 0.95397(17)
H11 H 0.1557 0.7283 0.9706
H12 H 0.2323 0.6938 0.9652
O22 O 0.0325(2) 0.73281(12) 0.8399(2)
N1 N -0.1301(3) 0.72824(15) 0.8343(2)
C1 C 0.4052(3) 0.58479(13) 0.6616(2)
C2 C 0.4477(3) 0.53898(13) 0.6531(2)
C3 C 0.4169(3) 0.51638(14) 0.5859(3)
H13 H 0.3688 0.5298 0.5457
C4 C 0.4550(3) 0.47336(14) 0.5747(3)
C5 C 0.4210(4) 0.44978(17) 0.5050(3)
H14 H 0.3692 0.4619 0.4660
C6 C 0.4632(4) 0.40938(18) 0.4943(3)
H15 H 0.4390 0.3937 0.4487
C7 C 0.5433(4) 0.39161(15) 0.5522(3)
H16 H 0.5733 0.3646 0.5440
C8 C 0.5778(4) 0.41323(14) 0.6202(3)
H17 H 0.6319 0.4011 0.6574
C9 C 0.5324(3) 0.45415(13) 0.6355(3)
C10 C 0.5623(3) 0.47650(12) 0.7073(2)
C11 C 0.5208(3) 0.51825(12) 0.7149(2)
C12 C 0.6386(3) 0.45458(13) 0.7751(3)
H18 H 0.7010 0.4509 0.7631
H19 H 0.6508 0.4750 0.8183
C13 C 0.6064(3) 0.40847(13) 0.7976(2)
C14 C 0.5191(3) 0.40381(14) 0.8212(2)
C15 C 0.4595(3) 0.44156(15) 0.8291(3)
H20 H 0.4785 0.4708 0.8196
C16 C 0.3754(4) 0.43573(17) 0.8503(3)
H21 H 0.3377 0.4611 0.8548
C17 C 0.3439(4) 0.39235(19) 0.8654(3)
H22 H 0.2857 0.3889 0.8793
C18 C 0.3998(4) 0.35537(18) 0.8596(3)
H23 H 0.3795 0.3265 0.8700
C19 C 0.4881(3) 0.35988(15) 0.8381(3)
C20 C 0.5463(3) 0.32168(14) 0.8321(2)
H24 H 0.5263 0.2929 0.8430
C21 C 0.6312(3) 0.32578(13) 0.8107(2)
C22 C 0.6615(3) 0.36989(13) 0.7938(2)
C23 C 0.6861(3) 0.28386(12) 0.8012(2)
C24 C 0.0852(3) 0.70128(13) 0.6394(2)
C25 C -0.0183(3) 0.69594(13) 0.5855(2)
C26 C -0.0324(3) 0.67022(13) 0.5215(2)
H25 H 0.0226 0.6575 0.5107
C27 C -0.1288(3) 0.66243(14) 0.4711(2)
C28 C -0.1438(3) 0.63385(16) 0.4075(2)
H26 H -0.0888 0.6211 0.3966
C29 C -0.2376(4) 0.62430(17) 0.3613(3)
H27 H -0.2463 0.6056 0.3190
C30 C -0.3203(3) 0.64303(16) 0.3785(3)
H28 H -0.3842 0.6362 0.3477
C31 C -0.3092(3) 0.67099(14) 0.4393(2)
H29 H -0.3655 0.6828 0.4494
C32 C -0.2130(3) 0.68248(13) 0.4875(2)
C33 C -0.1986(3) 0.71156(13) 0.5518(2)
C34 C -0.1025(3) 0.71693(14) 0.6008(2)
C35 C -0.2865(3) 0.73460(15) 0.5701(2)
H30 H -0.3344 0.7114 0.5734
H31 H -0.2626 0.7492 0.6194
C36 C -0.3389(3) 0.77012(13) 0.5116(2)
C37 C -0.2896(3) 0.81107(14) 0.5013(2)
C38 C -0.1939(3) 0.82329(17) 0.5501(3)
H32 H -0.1591 0.8028 0.5869
C39 C -0.1530(4) 0.86431(19) 0.5436(3)
H33 H -0.0910 0.8717 0.5770
C40 C -0.2009(4) 0.89551(19) 0.4887(4)
H34 H -0.1720 0.9238 0.4863
C41 C -0.2921(4) 0.88475(18) 0.4371(3)
H35 H -0.3231 0.9052 0.3989
C42 C -0.3376(3) 0.84224(14) 0.4433(3)
C43 C -0.4316(3) 0.83105(14) 0.3946(2)
H36 H -0.4599 0.8494 0.3526
C44 C -0.4829(3) 0.79381(13) 0.4073(2)
C45 C -0.4371(3) 0.76415(13) 0.4698(2)
C46 C -0.5856(3) 0.78551(13) 0.3563(2)
C47 C 0.2010(3) 0.62960(12) 0.7886(2)
C48 C 0.1521(3) 0.58737(13) 0.8067(2)
C49 C 0.102(2) 0.5916(19) 0.855(3)
H37 H 0.0968 0.6198 0.8763
C50 C 0.0531(9) 0.5519(6) 0.8745(9)
C51 C -0.0007(9) 0.5528(4) 0.9299(7)
H38 H -0.0034 0.5799 0.9557
C52 C -0.0481(9) 0.5151(4) 0.9455(7)
H39 H -0.0832 0.5165 0.9811
C53 C -0.0434(9) 0.4740(4) 0.9074(7)
H40 H -0.0755 0.4481 0.9178
C54 C 0.0081(18) 0.4721(14) 0.8552(19)
H41 H 0.0159 0.4439 0.8344
C55 C 0.0484(3) 0.50938(14) 0.8326(3)
C56 C 0.1118(3) 0.50614(13) 0.7860(2)
C57 C 0.1656(3) 0.54409(13) 0.7755(2)
C58 C 0.1207(3) 0.46169(13) 0.7459(3)
H42 H 0.1468 0.4385 0.7842
H43 H 0.1692 0.4660 0.7183
C59 C 0.0247(3) 0.44366(12) 0.6907(2)
C60 C -0.0290(3) 0.46908(13) 0.6255(2)
C61 C -0.0022(4) 0.51379(14) 0.6093(3)
H44 H 0.0542 0.5274 0.6420
C62 C -0.0571(4) 0.53738(15) 0.5469(3)
H45 H -0.0391 0.5671 0.5390
C63 C -0.1402(4) 0.51735(17) 0.4946(3)
H46 H -0.1778 0.5337 0.4526
C64 C -0.1647(3) 0.47371(16) 0.5063(3)
H47 H -0.2170 0.4596 0.4701
C65 C -0.1131(3) 0.44916(14) 0.5718(3)
C66 C -0.1439(3) 0.40527(13) 0.5857(2)
H48 H -0.1992 0.3924 0.5508
C67 C -0.0950(3) 0.38101(12) 0.6489(2)
C68 C -0.0087(3) 0.40052(13) 0.7021(2)
C69 C -0.1303(3) 0.33491(13) 0.6616(2)
C70 C -0.0521(3) 0.74952(17) 0.8283(3)
H49 H -0.0599 0.7801 0.8140
C71 C -0.2278(4) 0.7490(2) 0.8156(4)
H50 H -0.2498 0.7503 0.8602
H51 H -0.2740 0.7312 0.7773
H52 H -0.2245 0.7794 0.7968
C72 C -0.1242(5) 0.6809(3) 0.8557(6)
H53 H -0.0715 0.6664 0.8408
H54 H -0.1864 0.6661 0.8310
H55 H -0.1108 0.6785 0.9098
Er1A Er 0.673202(14) 0.171500(7) 0.827767(12)
Er1C Er -0.673202(14) 0.828500(7) 0.172233(12)
Er2A Er -0.186811(14) 0.244310(7) 0.679839(12)
Er2A_2 Er 0.813189(14) 0.244310(7) 0.679839(12)
Er2C Er -0.813189(14) 0.755690(7) 0.320161(12)
O4A O 0.3248(2) 0.74889(9) 0.66292(17)
O5A O 0.2609(2) 0.78563(9) 0.74357(16)
O10C O 0.3877(2) 0.69586(10) 0.79298(17)
O11C O 0.35712(19) 0.73989(10) 0.88118(18)
O16A O 0.2019(2) 0.81569(9) 0.88716(16)
O17A O 0.0878(2) 0.81349(9) 0.77711(16)
O23 O 0.6671(3) 0.64783(17) 0.6946(3)
N2 N 0.7693(3) 0.58861(17) 0.6926(3)
C79 C 0.6921(4) 0.6080(2) 0.7058(4)
H61 H 0.6521 0.5895 0.7257
C80 C 0.8373(8) 0.6145(3) 0.6637(7)
H62 H 0.8192 0.6113 0.6094
H63 H 0.9039 0.6033 0.6857
H64 H 0.8341 0.6461 0.6766
C81 C 0.7908(6) 0.5405(3) 0.7032(7)
H65 H 0.7605 0.5285 0.7396
H66 H 0.8617 0.5360 0.7213
H67 H 0.7646 0.5249 0.6556
O24 O 0.2863(6) 0.6395(3) 1.0032(5)
N3 N 0.3573(5) 0.5762(2) 0.9763(4)
C82 C 0.3502(9) 0.6253(4) 0.9809(6)
H68 H 0.3944 0.6446 0.9668
C83 C 0.3040(7) 0.5411(3) 0.9986(5)
H69 H 0.2591 0.5540 1.0236
H70 H 0.3498 0.5210 1.0328
H71 H 0.2667 0.5244 0.9546
C84 C 0.4320(9) 0.5642(4) 0.9423(7)
H72 H 0.4024 0.5603 0.8887
H73 H 0.4629 0.5361 0.9641
H74 H 0.4814 0.5878 0.9513
O25 O 0.0775(11) 0.7061(5) 1.0310(9)
C73? C 0.075(2) 0.590(2) 0.845(3)
H56? H 0.0642 0.6176 0.8650
C74? C 0.0181(9) 0.5533(6) 0.8527(9)
C75? C -0.0603(9) 0.5577(4) 0.8865(7)
H57? H -0.0735 0.5861 0.9040
C76? C -0.1159(9) 0.5216(4) 0.8935(7)
H58? H -0.1691 0.5256 0.9133
C77? C -0.0944(9) 0.4777(4) 0.8710(7)
H59? H -0.1320 0.4529 0.8784
C78? C -0.0202(17) 0.4707(14) 0.8389(19)
H60? H -0.0114 0.4420 0.8206
O26? O 0.1190(14) 0.6423(7) 1.0549(11)
loop_
_geom_bond_atom_site_label_1
_geom_bond_atom_site_label_2
_geom_bond_site_symmetry_1
_geom_bond_site_symmetry_2
Er1 O1 1_555 1_555
Er2 O8 1_555 1_555
O1 C1 1_555 1_555
O2 Er1 1_555 1_555
O3 H1 1_555 1_555
O4 C23 1_555 1_555
O5 C23 1_555 1_555
O6 H2 1_555 1_555
O7 Er1 1_555 1_555
O8 C24 1_555 1_555
O9 H3 1_555 1_555
O10 C46 1_555 1_555
O11 C46 1_555 1_555
O12 H4 1_555 1_555
O13 Er2 1_555 1_555
O14 Er1 1_555 1_555
O15 H5 1_555 1_555
O16 C69 1_555 1_555
O17 C69 1_555 1_555
O18 H6 1_555 1_555
O19 Er1 1_555 1_555
H7 O19 1_555 1_555
H8 O19 1_555 1_555
O20 Er1 1_555 1_555
H9 O20 1_555 1_555
H10 O20 1_555 1_555
O21 Er2 1_555 1_555
H11 O21 1_555 1_555
H12 O21 1_555 1_555
O22 Er2 1_555 1_555
N1 C70 1_555 1_555
C1 O2 1_555 1_555
C2 C1 1_555 1_555
C3 C2 1_555 1_555
H13 C3 1_555 1_555
C4 C3 1_555 1_555
C5 C4 1_555 1_555
H14 C5 1_555 1_555
C6 C5 1_555 1_555
H15 C6 1_555 1_555
C7 C6 1_555 1_555
H16 C7 1_555 1_555
C8 C7 1_555 1_555
H17 C8 1_555 1_555
C9 C4 1_555 1_555
C10 C9 1_555 1_555
C11 O3 1_555 1_555
C12 C10 1_555 1_555
H18 C12 1_555 1_555
H19 C12 1_555 1_555
C13 C12 1_555 1_555
C14 C13 1_555 1_555
C15 C14 1_555 1_555
H20 C15 1_555 1_555
C16 C15 1_555 1_555
H21 C16 1_555 1_555
C17 C16 1_555 1_555
H22 C17 1_555 1_555
C18 C17 1_555 1_555
H23 C18 1_555 1_555
C19 C14 1_555 1_555
C20 C19 1_555 1_555
H24 C20 1_555 1_555
C21 C20 1_555 1_555
C22 O6 1_555 1_555
C23 C21 1_555 1_555
C24 O7 1_555 1_555
C25 C24 1_555 1_555
C26 C25 1_555 1_555
H25 C26 1_555 1_555
C27 C26 1_555 1_555
C28 C27 1_555 1_555
H26 C28 1_555 1_555
C29 C28 1_555 1_555
H27 C29 1_555 1_555
C30 C29 1_555 1_555
H28 C30 1_555 1_555
C31 C30 1_555 1_555
H29 C31 1_555 1_555
C32 C27 1_555 1_555
C33 C32 1_555 1_555
C34 O9 1_555 1_555
C35 C33 1_555 1_555
H30 C35 1_555 1_555
H31 C35 1_555 1_555
C36 C35 1_555 1_555
C37 C36 1_555 1_555
C38 C37 1_555 1_555
H32 C38 1_555 1_555
C39 C38 1_555 1_555
H33 C39 1_555 1_555
C40 C39 1_555 1_555
H34 C40 1_555 1_555
C41 C40 1_555 1_555
H35 C41 1_555 1_555
C42 C37 1_555 1_555
C43 C42 1_555 1_555
H36 C43 1_555 1_555
C44 C43 1_555 1_555
C45 O12 1_555 1_555
C46 C44 1_555 1_555
C47 O13 1_555 1_555
C48 C47 1_555 1_555
C49 C48 1_555 1_555
H37 C49 1_555 1_555
C50 C49 1_555 1_555
C51 C50 1_555 1_555
H38 C51 1_555 1_555
C52 C51 1_555 1_555
H39 C52 1_555 1_555
C53 C52 1_555 1_555
H40 C53 1_555 1_555
C54 C53 1_555 1_555
H41 C54 1_555 1_555
C55 C50 1_555 1_555
C56 C55 1_555 1_555
C57 O15 1_555 1_555
C58 C56 1_555 1_555
H42 C58 1_555 1_555
H43 C58 1_555 1_555
C59 C58 1_555 1_555
C60 C59 1_555 1_555
C61 C60 1_555 1_555
H44 C61 1_555 1_555
C62 C61 1_555 1_555
H45 C62 1_555 1_555
C63 C62 1_555 1_555
H46 C63 1_555 1_555
C64 C63 1_555 1_555
H47 C64 1_555 1_555
C65 C60 1_555 1_555
C66 C65 1_555 1_555
H48 C66 1_555 1_555
C67 C66 1_555 1_555
C68 O18 1_555 1_555
C69 C67 1_555 1_555
C70 O22 1_555 1_555
H49 C70 1_555 1_555
C71 N1 1_555 1_555
H50 C71 1_555 1_555
H51 C71 1_555 1_555
H52 C71 1_555 1_555
C72 N1 1_555 1_555
H53 C72 1_555 1_555
H54 C72 1_555 1_555
H55 C72 1_555 1_555
O23 C79 1_555 1_555
N2 C79 1_555 1_555
C79 H61 1_555 1_555
C80 N2 1_555 1_555
H62 C80 1_555 1_555
H63 C80 1_555 1_555
H64 C80 1_555 1_555
C81 N2 1_555 1_555
H65 C81 1_555 1_555
H66 C81 1_555 1_555
H67 C81 1_555 1_555
O24 C82 1_555 1_555
N3 C82 1_555 1_555
C82 H68 1_555 1_555
C83 N3 1_555 1_555
H69 C83 1_555 1_555
H70 C83 1_555 1_555
H71 C83 1_555 1_555
C84 N3 1_555 1_555
H72 C84 1_555 1_555
H73 C84 1_555 1_555
H74 C84 1_555 1_555
Er1A O4 1_555 1_555
Er1C O10 1_555 1_555
Er2A O16 1_555 1_555
Er2A_2 O5 1_555 1_555
Er2C O11 1_555 1_555
O4A Er1 1_555 1_555
O5A Er2 1_555 1_555
O10C Er1 1_555 1_555
O11C Er2 1_555 1_555
O16A Er2 1_555 1_555
O17A Er2 1_555 1_555
O14 C47 1_555 1_555
O17 Er2A 1_555 1_555
C2 C11 1_555 1_555
C8 C9 1_555 1_555
C10 C11 1_555 1_555
C13 C22 1_555 1_555
C18 C19 1_555 1_555
C21 C22 1_555 1_555
C25 C34 1_555 1_555
C31 C32 1_555 1_555
C33 C34 1_555 1_555
C36 C45 1_555 1_555
C41 C42 1_555 1_555
C44 C45 1_555 1_555
C48 C57 1_555 1_555
C54 C55 1_555 1_555
C56 C57 1_555 1_555
C59 C68 1_555 1_555
C64 C65 1_555 1_555
C67 C68 1_555 1_555

#END
