
#######################################################################
#
#                 Cambridge Crystallographic Data Centre
#                                CCDC 
#
#######################################################################
#
# If this CIF has been generated from an entry in the Cambridge 
# Structural Database, then it will include bibliographic, chemical, 
# crystal, experimental, refinement or atomic coordinate data resulting 
# from the CCDC's data processing and validation procedures.
#
#######################################################################

data_ROYTEG
_symmetry_cell_setting           monoclinic
_symmetry_space_group_name_H-M   'P 21/c'
_symmetry_Int_Tables_number      14
_space_group_name_Hall           '-P 2ybc'
loop_
_symmetry_equiv_pos_site_id
_symmetry_equiv_pos_as_xyz
1 x,y,z
2 -x,1/2+y,1/2-z
3 -x,-y,-z
4 x,1/2-y,1/2+z
_cell_length_a                   14.042(3)
_cell_length_b                   29.367(6)
_cell_length_c                   18.456(4)
_cell_angle_alpha                90
_cell_angle_beta                 107.15(3)
_cell_angle_gamma                90
_cell_volume                     7272.32
loop_
_atom_site_label
_atom_site_type_symbol
_atom_site_fract_x
_atom_site_fract_y
_atom_site_fract_z
Ho1 Ho 0.313267(15) 0.755724(7) 0.679560(12)
Ho2 Ho 0.173406(15) 0.828645(7) 0.827627(13)
O1 O 0.2984(3) 0.68397(11) 0.61254(19)
O2 O 0.4123(2) 0.68667(11) 0.72276(18)
O3 O 0.6912(3) 0.33413(11) 0.82134(19)
O4 O 0.7490(3) 0.37457(11) 0.7412(2)
O5 O 0.7281(3) 0.46076(12) 0.7334(2)
H1 H 0.7519 0.4358 0.7287
O6 O 0.1753(3) 0.75084(11) 0.8366(2)
O7 O 0.2402(2) 0.71433(11) 0.75692(19)
O8 O 0.2466(2) 0.62553(11) 0.7734(2)
O9 O -0.1640(3) 0.39829(12) 0.6079(2)
O10 O -0.0613(3) 0.39356(11) 0.7237(2)
O11 O 0.0493(3) 0.46085(12) 0.7841(2)
H2 H 0.0189 0.4368 0.7818
O12 O 0.1134(3) 0.80426(13) 0.7058(2)
O13 O 0.1419(3) 0.75960(13) 0.6179(2)
O14 O -0.6564(2) 0.68280(13) 0.3770(2)
O15 O -0.5941(2) 0.72383(12) 0.30065(19)
O16 O -0.4091(3) 0.74250(14) 0.3359(2)
O17 O 0.4678(3) 0.76721(14) 0.6595(2)
O18 O 0.2869(3) 0.77545(12) 0.54527(19)
H3 H 0.3470 0.7796 0.5309
H4 H 0.2517 0.8035 0.5308
O19 O 0.1951(3) 0.80635(12) 0.95843(19)
H5 H 0.2384 0.8251 0.9934
H6 H 0.2212 0.7773 0.9687
O20 O 0.0137(3) 0.81268(13) 0.8454(2)
H7 H -0.0090 0.7866 0.8255
H8 H -0.0285 0.8336 0.8234
N1 N 0.6306(3) 0.77201(18) 0.6659(3)
C1 C 0.3699(3) 0.66508(16) 0.6620(3)
C2 C 0.4057(3) 0.61845(16) 0.6493(3)
C3 C 0.3562(4) 0.59481(17) 0.5858(3)
H9 H 0.3013 0.6078 0.5508
C4 C 0.3876(4) 0.55080(17) 0.5727(3)
C5 C 0.3355(4) 0.5261(2) 0.5063(3)
H10 H 0.2834 0.5400 0.4698
C6 C 0.3613(5) 0.4823(2) 0.4957(4)
H11 H 0.3239 0.4655 0.4543
C7 C 0.4439(5) 0.46332(19) 0.5474(3)
H12 H 0.4628 0.4339 0.5391
C8 C 0.4979(4) 0.48615(17) 0.6096(3)
H13 H 0.5533 0.4721 0.6425
C9 C 0.4722(4) 0.53093(17) 0.6260(3)
C10 C 0.5250(4) 0.55628(16) 0.6911(3)
C11 C 0.6196(4) 0.53815(15) 0.7454(3)
H14 H 0.6461 0.5613 0.7835
H15 H 0.6677 0.5338 0.7176
C12 C 0.6122(3) 0.49380(15) 0.7863(3)
C13 C 0.5477(4) 0.49053(16) 0.8321(3)
C14 C 0.5883(4) 0.41028(19) 0.8496(3)
H16 H 0.5686 0.3818 0.8618
C15 C 0.6526(4) 0.41288(16) 0.8068(3)
C16 C 0.6650(4) 0.45632(16) 0.7760(3)
C17 C 0.7003(4) 0.37053(16) 0.7879(3)
C18 C 0.1864(4) 0.71649(16) 0.8019(3)
C19 C 0.1311(4) 0.67461(15) 0.8112(3)
C20 C 0.0456(4) 0.67861(17) 0.8321(3)
H17 H 0.0252 0.7073 0.8430
C21 C -0.0125(4) 0.64011(17) 0.8375(3)
C22 C -0.1012(4) 0.6445(2) 0.8591(3)
H18 H -0.1219 0.6732 0.8695
C23 C -0.1556(5) 0.6077(2) 0.8647(4)
H19 H -0.2140 0.6111 0.8783
C24 C -0.1248(4) 0.5644(2) 0.8502(3)
H20 H -0.1624 0.5391 0.8550
C25 C -0.0403(4) 0.55843(18) 0.8292(3)
H21 H -0.0210 0.5292 0.8199
C26 C 0.0190(4) 0.59666(17) 0.8213(3)
C27 C 0.1065(4) 0.59178(16) 0.7976(3)
C28 C 0.1611(3) 0.63026(16) 0.7944(3)
C29 C 0.1384(4) 0.54572(16) 0.7746(3)
H22 H 0.2005 0.5496 0.7623
H23 H 0.1511 0.5253 0.8176
C30 C 0.0625(3) 0.52358(16) 0.7072(3)
C31 C 0.0321(4) 0.54570(17) 0.6355(3)
C32 C 0.0775(4) 0.58677(17) 0.6201(3)
H24 H 0.1314 0.5989 0.6573
C33 C 0.0431(5) 0.60826(19) 0.5525(3)
H25 H 0.0740 0.6350 0.5444
C34 C -0.0369(5) 0.5916(2) 0.4946(3)
H26 H -0.0616 0.6078 0.4497
C35 C -0.0791(4) 0.5503(2) 0.5050(3)
H27 H -0.1303 0.5380 0.4658
C36 C -0.0446(4) 0.52671(18) 0.5751(3)
C37 C -0.0834(4) 0.48453(18) 0.5862(3)
H28 H -0.1325 0.4716 0.5461
C38 C -0.0525(4) 0.46121(16) 0.6533(3)
C39 C 0.0202(3) 0.48184(15) 0.7152(3)
C40 C -0.0948(4) 0.41556(16) 0.6611(3)
C41 C 0.0855(4) 0.78560(16) 0.6432(3)
C42 C -0.0178(4) 0.79354(17) 0.5924(3)
C43 C -0.0672(4) 0.83091(17) 0.6055(3)
H29 H -0.0377 0.8494 0.6471
C44 C -0.1625(4) 0.84227(19) 0.5572(3)
C45 C -0.2075(4) 0.8846(2) 0.5631(4)
H30 H -0.1766 0.9052 0.6010
C46 C -0.2968(4) 0.8945(2) 0.5120(4)
H31 H -0.3254 0.9228 0.5146
C47 C -0.3464(4) 0.8643(2) 0.4567(4)
H32 H -0.4081 0.8721 0.4236
C48 C -0.3053(4) 0.8231(2) 0.4501(3)
H33 H -0.3399 0.8027 0.4131
C49 C -0.2098(3) 0.81089(18) 0.4994(3)
C50 C -0.1607(3) 0.76998(16) 0.4884(3)
C51 C -0.2137(3) 0.73457(18) 0.4303(3)
H34 H -0.1662 0.7113 0.4272
H35 H -0.2371 0.7491 0.3810
C52 C -0.3019(3) 0.71187(16) 0.4478(3)
C53 C -0.2871(3) 0.68259(17) 0.5120(3)
C54 C -0.1917(4) 0.67111(17) 0.5607(3)
H36 H -0.1356 0.6831 0.5507
C55 C -0.1794(4) 0.6430(2) 0.6220(3)
H37 H -0.1156 0.6360 0.6525
C56 C -0.2628(4) 0.6246(2) 0.6388(3)
H38 H -0.2546 0.6062 0.6812
C57 C -0.3567(4) 0.63416(19) 0.5921(3)
H39 H -0.4118 0.6216 0.6028
C58 C -0.3709(4) 0.66251(17) 0.5284(3)
C59 C -0.4662(4) 0.67024(16) 0.4793(3)
H40 H -0.5208 0.6575 0.4907
C60 C -0.4819(3) 0.69624(18) 0.4144(3)
C61 C -0.3968(3) 0.71698(17) 0.3992(3)
C62 C -0.5859(3) 0.70107(17) 0.3601(3)
C63 C 0.5519(4) 0.7509(2) 0.6713(3)
H41 H 0.5597 0.7204 0.6855
C64 C 0.7285(5) 0.7513(3) 0.6853(5)
H42 H 0.7739 0.7687 0.7247
H43 H 0.7518 0.7508 0.6413
H44 H 0.7248 0.7207 0.7026
C65 C 0.6241(6) 0.8188(3) 0.6442(6)
H45 H 0.6087 0.8210 0.5901
H46 H 0.6867 0.8335 0.6676
H47 H 0.5726 0.8333 0.6603
C66 C 0.4546(10) 0.5264(5) 0.9063(8)
H48 H 0.4224 0.5520 0.9175
C67 C 0.4484(10) 0.4854(5) 0.9418(8)
H49 H 0.4094 0.4835 0.9746
C68 C 0.4990(10) 0.4473(5) 0.9294(7)
H50 H 0.4983 0.4206 0.9564
C69 C 0.5513(8) 0.4493(4) 0.8757(6)
C70 C 0.5072(9) 0.5298(4) 0.8552(7)
H51 H 0.5164 0.5581 0.8355
O21 O -0.0108(2) 0.72891(12) 0.5118(2)
H52 H 0.0388 0.7237 0.5475
O22 O 0.5430(3) 0.62318(11) 0.7641(2)
C71 C -0.0628(3) 0.76431(16) 0.5302(3)
C72 C 0.4914(4) 0.59938(16) 0.7017(3)
H53 H 0.5117(12) 0.6468(4) 0.763(3)
H54 H 0.2767(12) 0.6485(5) 0.767(2)
H55 H -0.4684(7) 0.7388(17) 0.313(2)
Ho1A Ho 0.686733(15) 0.255724(7) 0.820440(12)
Ho1C Ho -0.686733(15) 0.744276(7) 0.179560(12)
Ho2A Ho -0.173406(15) 0.328645(7) 0.672373(13)
Ho2A_2 Ho 0.826594(15) 0.328645(7) 0.672373(13)
Ho2C Ho -0.826594(15) 0.671355(7) 0.327627(13)
O3A O 0.3088(3) 0.83413(11) 0.67866(19)
O4A O 0.2510(3) 0.87457(11) 0.7588(2)
O9A O 0.1640(3) 0.89829(12) 0.8921(2)
O10A O 0.0613(3) 0.89356(11) 0.7763(2)
O14C O 0.3436(2) 0.81720(13) 0.8770(2)
O15C O 0.4059(2) 0.77617(12) 0.80065(19)
O23 O 0.8334(3) 0.64733(18) 0.3050(3)
N2 N 0.7303(4) 0.58850(19) 0.3074(3)
C78 C 0.8083(5) 0.6077(3) 0.2939(4)
H61 H 0.8480 0.5891 0.2741
C79 C 0.7084(6) 0.5402(3) 0.2960(6)
H62 H 0.7448 0.5277 0.2640
H63 H 0.6383 0.5361 0.2723
H64 H 0.7277 0.5249 0.3441
C80 C 0.6646(7) 0.6138(3) 0.3375(6)
H65 H 0.6793 0.6077 0.3907
H66 H 0.5970 0.6052 0.3121
H67 H 0.6730 0.6458 0.3300
O24 O 0.2141(8) 0.6369(2) -0.0032(6)
N3 N 0.1409(4) 0.57687(17) 0.0230(3)
C81 C 0.1547(8) 0.6222(2) 0.0153(6)
H68 H 0.1097 0.6421 0.0269
C82 C 0.1963(6) 0.5414(2) 0.0004(5)
H69 H 0.2369 0.5542 -0.0281
H70 H 0.1510 0.5197 -0.0305
H71 H 0.2380 0.5264 0.0447
C83 C 0.0671(6) 0.5656(3) 0.0599(5)
H72 H 0.0996 0.5560 0.1110
H73 H 0.0257 0.5414 0.0328
H74 H 0.0268 0.5919 0.0607
O26 O 0.4241(11) 0.7929(6) 0.4645(9)
C73? C 0.4794(8) 0.5277(4) 0.8376(6)
H56? H 0.4869 0.5561 0.8175
C74? C 0.4061(10) 0.5219(4) 0.8710(7)
H57? H 0.3712 0.5472 0.8800
C75? C 0.3826(10) 0.4799(5) 0.8916(7)
H58? H 0.3271 0.4761 0.9087
C76? C 0.4404(10) 0.4430(5) 0.8872(7)
H59? H 0.4292 0.4153 0.9079
C77? C 0.5173(8) 0.4462(4) 0.8517(6)
H60? H 0.5900 0.3844 0.8789
H75? H 0.2011 0.6288 -0.0102
O25? O 0.1195(13) 0.6551(3) 0.0346(13)
O27? O 0.3827(12) 0.8403(7) 0.4661(10)
loop_
_geom_bond_atom_site_label_1
_geom_bond_atom_site_label_2
_geom_bond_site_symmetry_1
_geom_bond_site_symmetry_2
Ho1 O1 1_555 1_555
Ho2 O6 1_555 1_555
O1 C1 1_555 1_555
O2 Ho1 1_555 1_555
O3 C17 1_555 1_555
O4 C17 1_555 1_555
O5 H1 1_555 1_555
O6 C18 1_555 1_555
O7 Ho1 1_555 1_555
O8 C28 1_555 1_555
O9 C40 1_555 1_555
O10 C40 1_555 1_555
O11 H2 1_555 1_555
O12 Ho2 1_555 1_555
O13 Ho1 1_555 1_555
O14 C62 1_555 1_555
O15 C62 1_555 1_555
O16 C61 1_555 1_555
O17 Ho1 1_555 1_555
O18 Ho1 1_555 1_555
H3 O18 1_555 1_555
H4 O18 1_555 1_555
O19 Ho2 1_555 1_555
H5 O19 1_555 1_555
H6 O19 1_555 1_555
O20 Ho2 1_555 1_555
H7 O20 1_555 1_555
H8 O20 1_555 1_555
N1 C63 1_555 1_555
C1 O2 1_555 1_555
C2 C1 1_555 1_555
C3 C2 1_555 1_555
H9 C3 1_555 1_555
C4 C3 1_555 1_555
C5 C4 1_555 1_555
H10 C5 1_555 1_555
C6 C5 1_555 1_555
H11 C6 1_555 1_555
C7 C6 1_555 1_555
H12 C7 1_555 1_555
C8 C7 1_555 1_555
H13 C8 1_555 1_555
C9 C4 1_555 1_555
C10 C9 1_555 1_555
C11 C10 1_555 1_555
H14 C11 1_555 1_555
H15 C11 1_555 1_555
C12 C11 1_555 1_555
C13 C12 1_555 1_555
C14 H16 1_555 1_555
C15 C14 1_555 1_555
C16 O5 1_555 1_555
C17 C15 1_555 1_555
C18 O7 1_555 1_555
C19 C18 1_555 1_555
C20 C19 1_555 1_555
H17 C20 1_555 1_555
C21 C20 1_555 1_555
C22 C21 1_555 1_555
H18 C22 1_555 1_555
C23 C22 1_555 1_555
H19 C23 1_555 1_555
C24 C23 1_555 1_555
H20 C24 1_555 1_555
C25 C24 1_555 1_555
H21 C25 1_555 1_555
C26 C21 1_555 1_555
C27 C26 1_555 1_555
C28 C19 1_555 1_555
C29 C27 1_555 1_555
H22 C29 1_555 1_555
H23 C29 1_555 1_555
C30 C29 1_555 1_555
C31 C30 1_555 1_555
C32 C31 1_555 1_555
H24 C32 1_555 1_555
C33 C32 1_555 1_555
H25 C33 1_555 1_555
C34 C33 1_555 1_555
H26 C34 1_555 1_555
C35 C34 1_555 1_555
H27 C35 1_555 1_555
C36 C31 1_555 1_555
C37 C36 1_555 1_555
H28 C37 1_555 1_555
C38 C37 1_555 1_555
C39 O11 1_555 1_555
C40 C38 1_555 1_555
C41 O12 1_555 1_555
C42 C41 1_555 1_555
C43 C42 1_555 1_555
H29 C43 1_555 1_555
C44 C43 1_555 1_555
C45 C44 1_555 1_555
H30 C45 1_555 1_555
C46 C45 1_555 1_555
H31 C46 1_555 1_555
C47 C46 1_555 1_555
H32 C47 1_555 1_555
C48 C47 1_555 1_555
H33 C48 1_555 1_555
C49 C44 1_555 1_555
C50 C49 1_555 1_555
C51 C50 1_555 1_555
H34 C51 1_555 1_555
H35 C51 1_555 1_555
C52 C51 1_555 1_555
C53 C52 1_555 1_555
C54 C53 1_555 1_555
H36 C54 1_555 1_555
C55 C54 1_555 1_555
H37 C55 1_555 1_555
C56 C55 1_555 1_555
H38 C56 1_555 1_555
C57 C56 1_555 1_555
H39 C57 1_555 1_555
C58 C53 1_555 1_555
C59 C58 1_555 1_555
H40 C59 1_555 1_555
C60 C59 1_555 1_555
C61 C52 1_555 1_555
C62 C60 1_555 1_555
C63 O17 1_555 1_555
H41 C63 1_555 1_555
C64 N1 1_555 1_555
H42 C64 1_555 1_555
H43 C64 1_555 1_555
H44 C64 1_555 1_555
C65 N1 1_555 1_555
H45 C65 1_555 1_555
H46 C65 1_555 1_555
H47 C65 1_555 1_555
C66 H48 1_555 1_555
C67 C66 1_555 1_555
H49 C67 1_555 1_555
C68 C67 1_555 1_555
H50 C68 1_555 1_555
C69 C13 1_555 1_555
C70 C13 1_555 1_555
H51 C70 1_555 1_555
O21 H52 1_555 1_555
O22 C72 1_555 1_555
C71 C42 1_555 1_555
C72 C2 1_555 1_555
H53 O22 1_555 1_555
H54 O8 1_555 1_555
H55 O16 1_555 1_555
O23 C78 1_555 1_555
N2 C78 1_555 1_555
C78 H61 1_555 1_555
C79 N2 1_555 1_555
H62 C79 1_555 1_555
H63 C79 1_555 1_555
H64 C79 1_555 1_555
C80 N2 1_555 1_555
H65 C80 1_555 1_555
H66 C80 1_555 1_555
H67 C80 1_555 1_555
O24 C81 1_555 1_555
N3 C81 1_555 1_555
C81 H68 1_555 1_555
C82 N3 1_555 1_555
H69 C82 1_555 1_555
H70 C82 1_555 1_555
H71 C82 1_555 1_555
C83 N3 1_555 1_555
H72 C83 1_555 1_555
H73 C83 1_555 1_555
H74 C83 1_555 1_555
Ho1A O3 1_555 1_555
Ho1C O15 1_555 1_555
Ho2A O9 1_555 1_555
Ho2A_2 O4 1_555 1_555
Ho2C O14 1_555 1_555
O3A Ho1 1_555 1_555
O4A Ho2 1_555 1_555
O9A Ho2 1_555 1_555
O10A Ho2 1_555 1_555
O14C Ho2 1_555 1_555
O15C Ho1 1_555 1_555
O10 Ho2A 1_555 1_555
O13 C41 1_555 1_555
C8 C9 1_555 1_555
C10 C72 1_555 1_555
C12 C16 1_555 1_555
C14 C69 1_555 1_555
C15 C16 1_555 1_555
C25 C26 1_555 1_555
C27 C28 1_555 1_555
C30 C39 1_555 1_555
C35 C36 1_555 1_555
C38 C39 1_555 1_555
C48 C49 1_555 1_555
C50 C71 1_555 1_555
C57 C58 1_555 1_555
C60 C61 1_555 1_555
C66 C70 1_555 1_555
C68 C69 1_555 1_555
O21 C71 1_555 1_555

#END
