
#######################################################################
#
#                 Cambridge Crystallographic Data Centre
#                                CCDC 
#
#######################################################################
#
# If this CIF has been generated from an entry in the Cambridge 
# Structural Database, then it will include bibliographic, chemical, 
# crystal, experimental, refinement or atomic coordinate data resulting 
# from the CCDC's data processing and validation procedures.
#
#######################################################################

data_ROZSOP
_symmetry_cell_setting           triclinic
_symmetry_space_group_name_H-M   'P -1'
_symmetry_Int_Tables_number      2
_space_group_name_Hall           '-P 1'
loop_
_symmetry_equiv_pos_site_id
_symmetry_equiv_pos_as_xyz
1 x,y,z
2 -x,-y,-z
_cell_length_a                   10.217(5)
_cell_length_b                   10.530(5)
_cell_length_c                   13.012(5)
_cell_angle_alpha                102.523(5)
_cell_angle_beta                 111.915(5)
_cell_angle_gamma                99.646(5)
_cell_volume                     1219.18
loop_
_atom_site_label
_atom_site_type_symbol
_atom_site_fract_x
_atom_site_fract_y
_atom_site_fract_z
Cu1 Cu 0.40139(4) 0.16541(4) 0.55492(3)
O1 O 0.2138(2) 0.1756(2) 0.56703(19)
O2 O -0.3005(2) 0.0570(2) 0.5426(2)
O3 O 0.3383(2) 0.3924(2) 0.6341(2)
N1 N 0.4921(3) 0.1389(3) 0.7116(2)
C1 C -0.1607(3) 0.2808(3) 0.5841(2)
N2 N 0.3216(3) 0.2101(3) 0.4031(2)
O4 O -0.4035(2) 0.2257(2) 0.5615(2)
C2 C 0.2245(4) 0.3008(4) 0.6025(3)
C3 C -0.0376(3) 0.2426(3) 0.5815(3)
H1 H -0.0407 0.1515 0.5630
C4 C 0.0896(3) 0.3390(3) 0.6061(3)
C5 C -0.1539(4) 0.4171(3) 0.6101(3)
H2 H -0.2361 0.4439 0.6101
C6 C -0.2984(3) 0.1774(3) 0.5609(3)
C7 C 0.6221(4) 0.0994(3) 0.9296(3)
N3 N 0.2498(4) 0.3884(3) 0.0645(3)
C8 C 0.0937(4) 0.4747(3) 0.6336(3)
H3 H 0.1787 0.5398 0.6506
C9 C 0.6055(4) 0.0092(4) 0.8290(3)
H4 H 0.6372 -0.0682 0.8317
C10 C 0.2087(4) 0.2778(3) 0.1967(3)
C11 C 0.1503(4) 0.3130(4) 0.0866(3)
C12 C 0.6894(4) 0.0754(4) 1.0450(3)
C13 C 0.3426(4) 0.3522(3) 0.2872(3)
H5 H 0.3975 0.4271 0.2804
C14 C -0.0278(4) 0.5139(3) 0.6359(3)
H6 H -0.0246 0.6051 0.6547
C15 C 0.5719(4) 0.2122(4) 0.9176(3)
H7 H 0.5809 0.2773 0.9827
C16 C 0.1917(4) 0.1391(4) 0.3173(3)
H8 H 0.1376 0.0661 0.3272
N4 N 0.7333(4) -0.0366(3) 1.0430(3)
C17 C 0.8051(4) 0.0164(5) 1.2473(4)
H9 H 0.8434 -0.0074 1.3152
C18 C 0.1337(4) 0.1688(4) 0.2145(3)
H10 H 0.0431 0.1151 0.1564
C19 C 0.5423(4) 0.0332(4) 0.7249(3)
H11 H 0.5341 -0.0294 0.6587
C20 C 0.3945(4) 0.3161(3) 0.3864(3)
H12 H 0.4852 0.3678 0.4455
C21 C 0.7042(4) 0.1638(4) 1.1454(3)
H13 H 0.6752 0.2428 1.1445
C22 C 0.7889(5) -0.0635(5) 1.1446(4)
H14 H 0.8183 -0.1426 1.1441
C23 C 0.0047(5) 0.2712(5) 0.0131(4)
H15 H -0.0616 0.2182 0.0305
C24 C 0.5087(4) 0.2273(4) 0.8089(3)
H16 H 0.4756 0.3037 0.8030
C25 C 0.2004(5) 0.4222(4) -0.0339(3)
H17 H 0.2680 0.4740 -0.0509
C26 C 0.7634(5) 0.1329(4) 1.2485(3)
H18 H 0.7747 0.1912 1.3180
C27 C -0.0439(5) 0.3084(6) -0.0878(4)
H19 H -0.1429 0.2816 -0.1387
C28 C 0.0557(5) 0.3843(5) -0.1105(4)
H20 H 0.0263 0.4107 -0.1775
Cu1A Cu -0.40139(4) -0.16541(4) 0.44508(3)
Cu1_2 Cu -0.59861(4) 0.16541(4) 0.55492(3)
O2A O 0.3005(2) -0.0570(2) 0.4574(2)
O4_2 O 0.5965(2) 0.2257(2) 0.5615(2)
O5 O 0.4379(4) 0.5675(4) 0.8601(3)
H21 H 0.533(2) 0.590(14) 0.888(8)
H22 H 0.410(8) 0.512(6) 0.789(3)
loop_
_geom_bond_atom_site_label_1
_geom_bond_atom_site_label_2
_geom_bond_site_symmetry_1
_geom_bond_site_symmetry_2
Cu1 O1 1_555 1_555
O1 C2 1_555 1_555
O2 C6 1_555 1_555
O3 Cu1 1_555 1_555
N1 Cu1 1_555 1_555
C1 C3 1_555 1_555
N2 Cu1 1_555 1_555
O4 C6 1_555 1_555
C2 O3 1_555 1_555
C3 H1 1_555 1_555
C4 C2 1_555 1_555
C5 C1 1_555 1_555
H2 C5 1_555 1_555
C6 C1 1_555 1_555
C7 C9 1_555 1_555
O5 H21 1_555 1_555
N3 C11 1_555 1_555
C8 C4 1_555 1_555
H3 C8 1_555 1_555
C9 H4 1_555 1_555
C10 C11 1_555 1_555
C11 C23 1_555 1_555
C12 C7 1_555 1_555
C13 C10 1_555 1_555
H5 C13 1_555 1_555
C14 C5 1_555 1_555
H6 C14 1_555 1_555
C15 C7 1_555 1_555
H7 C15 1_555 1_555
C16 N2 1_555 1_555
H8 C16 1_555 1_555
N4 C12 1_555 1_555
C17 H9 1_555 1_555
C18 C10 1_555 1_555
H10 C18 1_555 1_555
C19 N1 1_555 1_555
H11 C19 1_555 1_555
C20 N2 1_555 1_555
H12 C20 1_555 1_555
C21 C12 1_555 1_555
H13 C21 1_555 1_555
C22 N4 1_555 1_555
H14 C22 1_555 1_555
C23 H15 1_555 1_555
C24 N1 1_555 1_555
H16 C24 1_555 1_555
C25 N3 1_555 1_555
H17 C25 1_555 1_555
C26 C17 1_555 1_555
H18 C26 1_555 1_555
C27 C23 1_555 1_555
H19 C27 1_555 1_555
C28 C25 1_555 1_555
H20 C28 1_555 1_555
H22 O5 1_555 1_555
Cu1A O2 1_555 1_555
Cu1_2 O4 1_555 1_555
O2A Cu1 1_555 1_555
O4_2 Cu1 1_555 1_555
C3 C4 1_555 1_555
C8 C14 1_555 1_555
C9 C19 1_555 1_555
C13 C20 1_555 1_555
C15 C24 1_555 1_555
C16 C18 1_555 1_555
C17 C22 1_555 1_555
C21 C26 1_555 1_555
C27 C28 1_555 1_555

#END
