
#######################################################################
#
#                 Cambridge Crystallographic Data Centre
#                                CCDC 
#
#######################################################################
#
# If this CIF has been generated from an entry in the Cambridge 
# Structural Database, then it will include bibliographic, chemical, 
# crystal, experimental, refinement or atomic coordinate data resulting 
# from the CCDC's data processing and validation procedures.
#
#######################################################################

data_ROZTAC
_symmetry_cell_setting           triclinic
_symmetry_space_group_name_H-M   'P -1'
_symmetry_Int_Tables_number      2
_space_group_name_Hall           '-P 1'
loop_
_symmetry_equiv_pos_site_id
_symmetry_equiv_pos_as_xyz
1 x,y,z
2 -x,-y,-z
_cell_length_a                   10.253(5)
_cell_length_b                   10.768(5)
_cell_length_c                   13.130(5)
_cell_angle_alpha                106.615(5)
_cell_angle_beta                 112.082(5)
_cell_angle_gamma                97.992(5)
_cell_volume                     1236.59
loop_
_atom_site_label
_atom_site_type_symbol
_atom_site_fract_x
_atom_site_fract_y
_atom_site_fract_z
Co1 Co 0.62014(3) 0.35551(3) 0.45231(3)
O1 O 0.83307(18) 0.37447(17) 0.45769(15)
O2 O 0.68560(17) 0.17025(18) 0.37700(15)
O3 O 1.32135(18) 0.44531(17) 0.44640(15)
C1 C 1.0598(2) 0.2813(2) 0.41825(19)
H1 H 1.0672 0.3727 0.4348
O4 O 1.41504(17) 0.27021(17) 0.42602(15)
C2 C 0.8099(2) 0.2495(2) 0.4119(2)
C3 C 0.9330(2) 0.1943(2) 0.40090(19)
C4 C 1.1760(2) 0.2317(2) 0.41079(19)
N1 N 0.5236(2) 0.3760(2) 0.28404(17)
C5 C 1.1629(3) 0.0950(3) 0.3870(2)
H2 H 1.2406 0.0615 0.3834
C6 C 0.9212(3) 0.0580(3) 0.3757(2)
H3 H 0.8361 0.0000 0.3636
N2 N 0.6959(2) 0.3086(2) 0.61143(17)
C7 C 0.3089(3) 0.4130(3) -0.0534(2)
N3 N 0.7479(3) 0.1233(2) 0.93061(19)
N4 N 0.2731(3) 0.5285(2) -0.0486(2)
C8 C 1.3139(2) 0.3239(2) 0.42933(18)
C9 C 0.4121(3) 0.4995(3) 0.1668(2)
H4 H 0.3861 0.5786 0.1655
C10 C 0.6235(3) 0.1985(3) 0.6155(2)
H5 H 0.5373 0.1445 0.5493
C11 C 0.1813(3) 0.4553(3) -0.2598(2)
H6 H 0.1388 0.4731 -0.3284
C12 C 0.7979(3) 0.2374(3) 0.8115(2)
C13 C 0.3817(3) 0.3980(3) 0.0624(2)
C14 C 0.8501(3) 0.1975(3) 0.9165(2)
C15 C 0.4252(3) 0.2844(3) 0.0725(2)
H7 H 0.4085 0.2129 0.0052
C16 C 0.4935(3) 0.2774(3) 0.1828(2)
H8 H 0.5201 0.1992 0.1867
C17 C 0.8742(3) 0.3503(3) 0.8072(2)
H9 H 0.9620 0.4048 0.8714
C18 C 0.6687(3) 0.1603(3) 0.7118(2)
H10 H 0.6130 0.0831 0.7101
C19 C 0.2815(3) 0.3148(3) -0.1592(2)
H11 H 0.3063 0.2347 -0.1604
C20 C 0.8201(3) 0.3826(3) 0.7073(2)
H12 H 0.8731 0.4599 0.7070
C21 C 1.0367(3) 0.0080(3) 0.3685(2)
H13 H 1.0290 -0.0834 0.3513
C22 C 0.2108(3) 0.5465(3) -0.1515(3)
H14 H 0.1860 0.6268 -0.1490
C23 C 0.9968(3) 0.2361(4) 0.9949(3)
H15 H 1.0659 0.2888 0.9834
C24 C 0.4807(3) 0.4843(3) 0.2729(2)
H16 H 0.4982 0.5544 0.3415
C25 C 0.9357(4) 0.1193(3) 1.1050(3)
H17 H 0.9617 0.0902 1.1683
C26 C 0.7914(4) 0.0855(3) 1.0244(3)
H18 H 0.7207 0.0342 1.0355
C27 C 1.0397(4) 0.1959(4) 1.0905(3)
H19 H 1.1379 0.2207 1.1440
C28 C 0.2169(3) 0.3368(3) -0.2629(2)
H20 H 0.1975 0.2714 -0.3347
Co1A Co 1.37986(3) 0.64449(3) 0.54769(3)
Co1_2 Co 1.62014(3) 0.35551(3) 0.45231(3)
O3A O 0.67865(18) 0.55469(17) 0.55360(15)
O4_2 O 0.41504(17) 0.27021(17) 0.42602(15)
O5 O 0.5717(3) 0.9492(3) 0.1583(2)
H21 H 0.473(5) 0.922(4) 0.139(3)
H22 H 0.597(5) 1.012(4) 0.237(4)
loop_
_geom_bond_atom_site_label_1
_geom_bond_atom_site_label_2
_geom_bond_site_symmetry_1
_geom_bond_site_symmetry_2
Co1 O1 1_555 1_555
O1 C2 1_555 1_555
O2 Co1 1_555 1_555
O3 C8 1_555 1_555
C1 H1 1_555 1_555
O4 C8 1_555 1_555
C2 O2 1_555 1_555
C3 C1 1_555 1_555
C4 C1 1_555 1_555
N1 Co1 1_555 1_555
C5 C4 1_555 1_555
H2 C5 1_555 1_555
C6 C3 1_555 1_555
H3 C6 1_555 1_555
N2 Co1 1_555 1_555
C7 N4 1_555 1_555
N3 C14 1_555 1_555
N4 C22 1_555 1_555
C8 C4 1_555 1_555
C9 H4 1_555 1_555
C10 N2 1_555 1_555
H5 C10 1_555 1_555
C11 H6 1_555 1_555
C12 C14 1_555 1_555
C13 C7 1_555 1_555
O5 H21 1_555 1_555
C14 C23 1_555 1_555
C15 C13 1_555 1_555
H7 C15 1_555 1_555
C16 N1 1_555 1_555
H8 C16 1_555 1_555
C17 C12 1_555 1_555
H9 C17 1_555 1_555
C18 C10 1_555 1_555
H10 C18 1_555 1_555
C19 C7 1_555 1_555
H11 C19 1_555 1_555
C20 N2 1_555 1_555
H12 C20 1_555 1_555
C21 C5 1_555 1_555
H13 C21 1_555 1_555
C22 C11 1_555 1_555
H14 C22 1_555 1_555
C23 H15 1_555 1_555
C24 N1 1_555 1_555
H16 C24 1_555 1_555
C25 H17 1_555 1_555
C26 N3 1_555 1_555
H18 C26 1_555 1_555
C27 C23 1_555 1_555
H19 C27 1_555 1_555
C28 C11 1_555 1_555
H20 C28 1_555 1_555
H22 O5 1_555 1_555
Co1A O3 1_555 1_555
Co1_2 O4 1_555 1_555
O3A Co1 1_555 1_555
O4_2 Co1 1_555 1_555
C2 C3 1_555 1_555
C6 C21 1_555 1_555
C9 C13 1_555 1_555
C9 C24 1_555 1_555
C12 C18 1_555 1_555
C15 C16 1_555 1_555
C17 C20 1_555 1_555
C19 C28 1_555 1_555
C25 C26 1_555 1_555
C25 C27 1_555 1_555

#END
