
#######################################################################
#
#                 Cambridge Crystallographic Data Centre
#                                CCDC 
#
#######################################################################
#
# If this CIF has been generated from an entry in the Cambridge 
# Structural Database, then it will include bibliographic, chemical, 
# crystal, experimental, refinement or atomic coordinate data resulting 
# from the CCDC's data processing and validation procedures.
#
#######################################################################

data_ROZVOS
_symmetry_cell_setting           triclinic
_symmetry_space_group_name_H-M   'P -1'
_symmetry_Int_Tables_number      2
_space_group_name_Hall           '-P 1'
loop_
_symmetry_equiv_pos_site_id
_symmetry_equiv_pos_as_xyz
1 x,y,z
2 -x,-y,-z
_cell_length_a                   9.2666(14)
_cell_length_b                   11.8854(18)
_cell_length_c                   12.2421(19)
_cell_angle_alpha                61.645(2)
_cell_angle_beta                 80.135(2)
_cell_angle_gamma                74.336(2)
_cell_volume                     1141
loop_
_atom_site_label
_atom_site_type_symbol
_atom_site_fract_x
_atom_site_fract_y
_atom_site_fract_z
Cd1 Cd 0.5000 0.0000 0.0000
O1 O 0.6923(5) 0.0217(4) -0.1526(4)
H1 H 0.747(8) 0.069(5) -0.171(6)
H2 H 0.746(6) -0.045(4) -0.161(6)
O2 O 0.6575(4) -0.1875(3) 0.1260(4)
H3 H 0.745(4) -0.182(6) 0.130(6)
H4 H 0.643(7) -0.264(3) 0.175(5)
N1 N 0.5919(4) 0.1312(3) 0.0492(3)
N2 N 0.9076(4) 0.4065(3) 0.0776(3)
C1 C 0.7388(5) 0.1125(4) 0.0585(5)
H5 H 0.8038 0.0453 0.0446
C2 C 0.7985(5) 0.1890(5) 0.0879(5)
H6 H 0.9014 0.1716 0.0951
C3 C 0.7053(5) 0.2908(4) 0.1066(4)
C4 C 0.5531(5) 0.3103(4) 0.0978(4)
H7 H 0.4863 0.3775 0.1108
C5 C 0.5005(5) 0.2286(4) 0.0692(4)
H8 H 0.3978 0.2423 0.0639
C6 C 0.7621(5) 0.3784(4) 0.1396(4)
H9 H 0.6887 0.4604 0.1173
H10 H 0.7712 0.3368 0.2288
C7 C 0.9558(5) 0.4863(4) 0.1216(4)
H11 H 0.9653 0.4382 0.2109
H12 H 0.8803 0.5665 0.1041
C8 C 0.8956(5) 0.4804(4) -0.0586(4)
H13 H 0.8191 0.5604 -0.0788
H14 H 0.8659 0.4284 -0.0890
Cd1_2 Cd 1.5000 1.0000 0.0000
O1A O 0.3077(5) -0.0217(4) 0.1526(4)
H1A H 0.253(8) -0.069(5) 0.171(6)
H2A H 0.254(6) 0.045(4) 0.161(6)
O2A O 0.3425(4) 0.1875(3) -0.1260(4)
H3A H 0.255(4) 0.182(6) -0.130(6)
H4A H 0.357(7) 0.264(3) -0.175(5)
N1A N 1.4081(4) 0.8688(3) -0.0492(3)
N1A_2 N 0.4081(4) -0.1312(3) -0.0492(3)
N2A N 1.0924(4) 0.5935(3) -0.0776(3)
C1A C 1.2612(5) 0.8875(4) -0.0585(5)
H5A H 1.1962 0.9547 -0.0446
C2A C 1.2015(5) 0.8110(5) -0.0879(5)
H6A H 1.0986 0.8284 -0.0951
C3A C 1.2947(5) 0.7092(4) -0.1066(4)
C4A C 1.4469(5) 0.6897(4) -0.0978(4)
H7A H 1.5137 0.6225 -0.1108
C5A C 1.4995(5) 0.7714(4) -0.0692(4)
H8A H 1.6022 0.7577 -0.0639
C6A C 1.2379(5) 0.6216(4) -0.1396(4)
H9A H 1.3113 0.5396 -0.1173
H10A H 1.2288 0.6632 -0.2288
C7A C 1.0442(5) 0.5137(4) -0.1216(4)
H11A H 1.0347 0.5618 -0.2109
H12A H 1.1197 0.4335 -0.1041
C8A C 1.1044(5) 0.5196(4) 0.0586(4)
H13A H 1.1809 0.4396 0.0788
H14A H 1.1341 0.5716 0.0890
Cl1 Cl 0.01456(16) 0.74392(19) 0.2718(3)
O3 O 0.1536(7) 0.7713(7) 0.2556(8)
O4 O 0.0392(13) 0.6110(8) 0.2986(9)
O5 O -0.1040(11) 0.7741(15) 0.3246(15)
O6 O -0.0426(12) 0.8004(15) 0.1342(16)
O7 O 0.1366(5) 0.1750(4) 0.1955(4)
H15 H 0.195(6) 0.213(6) 0.206(6)
H16 H 0.067(5) 0.240(4) 0.154(6)
O8 O 0.1925(8) 0.2414(5) 0.3688(7)
H17 H 0.1759 0.2211 0.3150
H18 H 0.261(9) 0.184(7) 0.416(7)
N3 N 0.5837(5) 0.5804(4) 0.2865(4)
N4 N 0.4604(5) 0.1257(3) 0.5023(3)
C9 C 0.4205(6) 0.4302(5) 0.3621(4)
H19 H 0.3325 0.4120 0.3541
C10 C 0.4580(6) 0.5477(4) 0.2802(4)
H20 H 0.3935 0.6077 0.2172
C11 C 0.4735(6) 0.2109(4) 0.5546(4)
H21 H 0.5492 0.1640 0.6162
H22 H 0.3787 0.2307 0.5967
C12 C 0.6038(6) 0.0824(4) 0.4470(4)
H23 H 0.6788 0.0374 0.5092
H24 H 0.6372 0.1580 0.3798
C13 C 0.4112(6) 0.0090(4) 0.6026(4)
H25 H 0.3153 0.0358 0.6395
H26 H 0.4835 -0.0370 0.6669
C14 C 0.6737(6) 0.4925(5) 0.3784(5)
H27 H 0.7604 0.5137 0.3849
C15 C 0.6445(6) 0.3709(4) 0.4648(4)
H28 H 0.7111 0.3123 0.5266
C16 C 0.5150(6) 0.3386(4) 0.4574(4)
N3A N 0.4163(5) -0.5804(4) 0.7135(4)
N4A N 0.5396(5) -0.1257(3) 0.4977(3)
C9A C 0.5795(6) -0.4302(5) 0.6379(4)
H19A H 0.6675 -0.4120 0.6459
C10A C 0.5420(6) -0.5477(4) 0.7198(4)
H20A H 0.6065 -0.6077 0.7828
C11A C 0.5265(6) -0.2109(4) 0.4454(4)
H21A H 0.4508 -0.1640 0.3838
H22A H 0.6213 -0.2307 0.4033
C12A C 0.3962(6) -0.0824(4) 0.5530(4)
H23A H 0.3212 -0.0374 0.4908
H24A H 0.3628 -0.1580 0.6202
C13A C 0.5888(6) -0.0090(4) 0.3974(4)
H25A H 0.6847 -0.0358 0.3605
H26A H 0.5165 0.0370 0.3331
C14A C 0.3263(6) -0.4925(5) 0.6216(5)
H27A H 0.2396 -0.5137 0.6151
C15A C 0.3555(6) -0.3709(4) 0.5352(4)
H28A H 0.2889 -0.3123 0.4734
C16A C 0.4850(6) -0.3386(4) 0.5426(4)
loop_
_geom_bond_atom_site_label_1
_geom_bond_atom_site_label_2
_geom_bond_site_symmetry_1
_geom_bond_site_symmetry_2
Cd1 O1 1_555 1_555
O1 H1 1_555 1_555
H2 O1 1_555 1_555
O2 Cd1 1_555 1_555
H3 O2 1_555 1_555
H4 O2 1_555 1_555
N1 Cd1 1_555 1_555
N2 C6 1_555 1_555
C1 N1 1_555 1_555
H5 C1 1_555 1_555
C2 C1 1_555 1_555
H6 C2 1_555 1_555
C3 C2 1_555 1_555
C4 C3 1_555 1_555
H7 C4 1_555 1_555
C5 N1 1_555 1_555
H8 C5 1_555 1_555
C6 C3 1_555 1_555
H9 C6 1_555 1_555
H10 C6 1_555 1_555
C7 N2 1_555 1_555
H11 C7 1_555 1_555
H12 C7 1_555 1_555
C8 N2 1_555 1_555
H13 C8 1_555 1_555
H14 C8 1_555 1_555
Cl1 O3 1_555 1_555
O4 Cl1 1_555 1_555
O5 Cl1 1_555 1_555
O6 Cl1 1_555 1_555
O7 H15 1_555 1_555
H16 O7 1_555 1_555
O8 H17 1_555 1_555
H18 O8 1_555 1_555
N3 C10 1_555 1_555
N4 C11 1_555 1_555
C9 H19 1_555 1_555
C10 C9 1_555 1_555
H20 C10 1_555 1_555
C11 H21 1_555 1_555
H22 C11 1_555 1_555
C12 N4 1_555 1_555
H23 C12 1_555 1_555
H24 C12 1_555 1_555
C13 N4 1_555 1_555
H25 C13 1_555 1_555
H26 C13 1_555 1_555
C14 N3 1_555 1_555
H27 C14 1_555 1_555
C15 C14 1_555 1_555
H28 C15 1_555 1_555
C16 C9 1_555 1_555
Cd1_2 N1A 1_555 1_555
O1A Cd1 1_555 1_555
H1A O1A 1_555 1_555
H2A O1A 1_555 1_555
O2A Cd1 1_555 1_555
H3A O2A 1_555 1_555
H4A O2A 1_555 1_555
N1A C1A 1_555 1_555
N1A_2 Cd1 1_555 1_555
N2A C6A 1_555 1_555
C1A H5A 1_555 1_555
C2A C1A 1_555 1_555
H6A C2A 1_555 1_555
C3A C2A 1_555 1_555
C4A C3A 1_555 1_555
H7A C4A 1_555 1_555
C5A N1A 1_555 1_555
H8A C5A 1_555 1_555
C6A C3A 1_555 1_555
H9A C6A 1_555 1_555
H10A C6A 1_555 1_555
C7A C8 1_555 1_555
H11A C7A 1_555 1_555
H12A C7A 1_555 1_555
C8A C7 1_555 1_555
H13A C8A 1_555 1_555
H14A C8A 1_555 1_555
N3A C10A 1_555 1_555
N4A C11A 1_555 1_555
C9A H19A 1_555 1_555
C10A C9A 1_555 1_555
H20A C10A 1_555 1_555
C11A H21A 1_555 1_555
H22A C11A 1_555 1_555
C12A C13 1_555 1_555
H23A C12A 1_555 1_555
H24A C12A 1_555 1_555
C13A C12 1_555 1_555
H25A C13A 1_555 1_555
H26A C13A 1_555 1_555
C14A N3A 1_555 1_555
H27A C14A 1_555 1_555
C15A C14A 1_555 1_555
H28A C15A 1_555 1_555
C16A C9A 1_555 1_555
C4 C5 1_555 1_555
C11 C16 1_555 1_555
C15 C16 1_555 1_555
N2A C7A 1_555 1_555
N2A C8A 1_555 1_555
C4A C5A 1_555 1_555
N4A C12A 1_555 1_555
N4A C13A 1_555 1_555
C11A C16A 1_555 1_555
C15A C16A 1_555 1_555

#END
