
#######################################################################
#
#                 Cambridge Crystallographic Data Centre
#                                CCDC 
#
#######################################################################
#
# If this CIF has been generated from an entry in the Cambridge 
# Structural Database, then it will include bibliographic, chemical, 
# crystal, experimental, refinement or atomic coordinate data resulting 
# from the CCDC's data processing and validation procedures.
#
#######################################################################

data_ROZWAF
_symmetry_cell_setting           monoclinic
_symmetry_space_group_name_H-M   'P 21'
_symmetry_Int_Tables_number      4
_space_group_name_Hall           'P 2yb'
loop_
_symmetry_equiv_pos_site_id
_symmetry_equiv_pos_as_xyz
1 x,y,z
2 -x,1/2+y,-z
_cell_length_a                   17.110(3)
_cell_length_b                   16.215(3)
_cell_length_c                   17.317(3)
_cell_angle_alpha                90
_cell_angle_beta                 103.590(2)
_cell_angle_gamma                90
_cell_volume                     4669.89
loop_
_atom_site_label
_atom_site_type_symbol
_atom_site_fract_x
_atom_site_fract_y
_atom_site_fract_z
Cd1 Cd 0.74643(3) 0.71793(3) 0.97575(3)
S1 S 0.78036(12) 0.75946(13) 1.18089(11)
O1 O 0.7729(3) 0.7062(4) 1.1115(3)
O3 O 0.7114(4) 0.7507(4) 1.2153(4)
O5 O 0.7827(3) 0.8472(4) 1.1529(3)
O7 O 0.8549(4) 0.7403(5) 1.2353(3)
O9 O 0.7134(3) 0.7550(3) 0.8453(3)
H9 H 0.716(3) 0.7030(11) 0.820(2)
H10 H 0.7273 0.8068 0.8326
O12 O 0.7691(4) 0.5816(4) 0.9496(3)
H15 H 0.750(4) 0.565(4) 0.900(2)
H16 H 0.751(4) 0.631(2) 0.961(4)
O13 O 0.7204(4) 0.8566(4) 1.0006(4)
H17 H 0.730(5) 0.870(5) 1.0521(15)
H18 H 0.690(4) 0.896(3) 0.977(4)
N1 N 0.8814(4) 0.7402(4) 0.9769(4)
N2 N 1.1730(3) 0.7481(3) 0.9465(3)
N3 N 1.3193(3) 0.6508(4) 0.9743(3)
N4 N 1.6171(4) 0.6746(4) 0.9727(4)
C1 C 0.9090(4) 0.7311(5) 0.9112(4)
H41 H 0.8741 0.7125 0.8649
C2 C 0.9880(4) 0.7484(4) 0.9100(4)
H42 H 1.0057 0.7409 0.8637
C3 C 1.0402(4) 0.7769(4) 0.9780(4)
C4 C 1.0115(5) 0.7843(5) 1.0470(5)
H43 H 1.0454 0.8013 1.0946
C5 C 0.9326(5) 0.7658(5) 1.0429(4)
H44 H 0.9136 0.7715 1.0887
C6 C 1.1251(4) 0.8066(5) 0.9800(5)
H45 H 1.1218 0.8581 0.9510
H46 H 1.1525 0.8177 1.0348
C7 C 1.1831(4) 0.6715(4) 0.9922(4)
H47 H 1.1311 0.6452 0.9865
H48 H 1.2038 0.6842 1.0480
C8 C 1.2393(4) 0.6129(5) 0.9657(5)
H49 H 1.2443 0.5629 0.9973
H50 H 1.2176 0.5980 0.9106
C9 C 1.2538(4) 0.7852(5) 0.9533(5)
H51 H 1.2760 0.8011 1.0081
H52 H 1.2485 0.8347 0.9210
C10 C 1.3108(4) 0.7262(5) 0.9271(4)
H53 H 1.2904 0.7128 0.8714
H54 H 1.3629 0.7522 0.9331
C11 C 1.3725(4) 0.5921(4) 0.9459(4)
H55 H 1.3508 0.5816 0.8898
H56 H 1.3730 0.5402 0.9739
C12 C 1.5738(4) 0.6433(5) 0.9043(4)
H57 H 1.5978 0.6384 0.8616
C13 C 1.4951(4) 0.6180(5) 0.8948(4)
H58 H 1.4670 0.5977 0.8459
C14 C 1.4578(4) 0.6228(4) 0.9576(4)
C15 C 1.5025(4) 0.6522(5) 1.0277(4)
H59 H 1.4802 0.6553 1.0717
C16 C 1.5820(5) 0.6778(5) 1.0341(4)
H60 H 1.6114 0.6978 1.0826
Cd1_2 Cd 1.74643(3) 0.71793(3) 0.97575(3)
N4_2 N 0.6171(4) 0.6746(4) 0.9727(4)
Cd2 Cd 0.50418(3) 0.37834(3) 0.74459(3)
O21 O 0.4985(4) 0.5168(3) 0.7236(3)
H21 H 0.540(2) 0.550(3) 0.726(4)
H22 H 0.459(2) 0.550(3) 0.729(4)
O23 O 0.3675(3) 0.3778(4) 0.7332(3)
H23 H 0.3411 0.4166 0.7058
H24 H 0.339(3) 0.347(3) 0.756(4)
O24 O 0.5094(4) 0.2393(3) 0.7620(4)
H25 H 0.479(3) 0.196(3) 0.745(4)
H26 H 0.551(3) 0.217(4) 0.796(4)
O25 O 0.6421(3) 0.3759(4) 0.7625(3)
H27 H 0.681(3) 0.342(3) 0.756(4)
H28 H 0.660(4) 0.4269(17) 0.760(5)
N5 N 0.4807(4) 0.3585(4) 0.6081(3)
N6 N 0.4941(4) 0.3265(4) 0.3160(4)
N7 N 0.5236(4) 0.4108(4) 0.1779(3)
N8 N 0.5284(4) 0.4008(4) -0.1198(3)
C17 C 0.4161(5) 0.3842(5) 0.5551(4)
H61 H 0.3783 0.4145 0.5739
C18 C 0.4001(4) 0.3696(5) 0.4731(4)
H62 H 0.3550 0.3920 0.4389
C19 C 0.4538(4) 0.3205(4) 0.4442(4)
C20 C 0.5225(5) 0.2961(4) 0.4976(4)
H63 H 0.5613 0.2659 0.4802
C21 C 0.5347(5) 0.3163(5) 0.5776(4)
H64 H 0.5825 0.2998 0.6120
C22 C 0.4375(4) 0.2929(5) 0.3591(4)
H65 H 0.4397 0.2332 0.3577
H66 H 0.3834 0.3095 0.3323
C23 C 0.4782(5) 0.4163(5) 0.3007(4)
H67 H 0.4855 0.4451 0.3510
H68 H 0.4229 0.4239 0.2717
C24 C 0.5330(6) 0.4527(5) 0.2542(4)
H69 H 0.5210 0.5109 0.2452
H70 H 0.5883 0.4478 0.2843
C25 C 0.5411(5) 0.3239(5) 0.1917(5)
H71 H 0.5967 0.3173 0.2204
H72 H 0.5341 0.2957 0.1411
C26 C 0.4862(5) 0.2854(5) 0.2392(4)
H73 H 0.4308 0.2892 0.2090
H74 H 0.4994 0.2274 0.2479
C27 C 0.5772(5) 0.4480(5) 0.1328(4)
H75 H 0.6318 0.4307 0.1564
H76 H 0.5751 0.5074 0.1381
C28 C 0.5961(5) 0.4380(5) -0.0781(4)
H77 H 0.6336 0.4554 -0.1059
C29 C 0.6132(5) 0.4518(5) 0.0017(4)
H78 H 0.6611 0.4775 0.0268
C30 C 0.5582(5) 0.4269(4) 0.0458(4)
C31 C 0.4913(6) 0.3908(5) 0.0045(5)
H79 H 0.4529 0.3742 0.0314
C32 C 0.4766(5) 0.3771(5) -0.0759(4)
H80 H 0.4293 0.3504 -0.1010
Cd2_2 Cd 0.50418(3) 0.37834(3) -0.25541(3)
N8_2 N 0.5284(4) 0.4008(4) 0.8802(3)
Cd3 Cd 1.00451(3) 0.96359(3) 0.25265(3)
O26 O 0.8684(3) 0.9676(4) 0.2427(4)
H29 H 0.842(4) 0.921(2) 0.239(5)
H30 H 0.836(3) 1.010(3) 0.244(5)
O27 O 0.9900(3) 0.8229(3) 0.2286(4)
H31 H 0.990(4) 0.8756(13) 0.223(4)
H32 H 0.944(2) 0.801(4) 0.231(4)
O28 O 1.0141(4) 1.1037(3) 0.2680(4)
H33 H 0.972(2) 1.134(4) 0.262(4)
H34 H 1.057(2) 1.129(4) 0.296(4)
O29 O 1.1362(3) 0.9311(3) 0.2572(3)
H35 H 1.1755 0.9611 0.2802
H36 H 1.149(3) 0.8783(15) 0.254(4)
N9 N 0.9855(4) 0.9847(4) 0.1170(4)
N10 N 1.0022(4) 1.0195(4) -0.1734(3)
N11 N 1.0221(4) 0.9346(4) -0.3143(4)
N12 N 1.0297(4) 0.9457(4) -0.6100(3)
C33 C 1.0416(5) 1.0246(5) 0.0886(5)
H81 H 1.0897 1.0383 0.1239
C34 C 1.0317(4) 1.0461(4) 0.0111(4)
H82 H 1.0722 1.0747 -0.0052
C35 C 0.9608(5) 1.0253(5) -0.0443(4)
C36 C 0.9048(4) 0.9816(4) -0.0162(4)
H83 H 0.8578 0.9641 -0.0512
C37 C 0.9176(5) 0.9635(5) 0.0638(4)
H84 H 0.8778 0.9355 0.0816
C38 C 0.9455(5) 1.0563(5) -0.1288(4)
H85 H 0.8908 1.0431 -0.1562
H86 H 0.9511 1.1159 -0.1283
C39 C 0.9796(5) 0.9329(5) -0.1883(5)
H87 H 0.9239 0.9292 -0.2174
H88 H 0.9852 0.9041 -0.1382
C40 C 1.0334(5) 0.8925(5) -0.2363(4)
H89 H 1.0892 0.8966 -0.2075
H90 H 1.0198 0.8346 -0.2443
C41 C 0.9919(5) 1.0626(5) -0.2512(4)
H91 H 1.0060 1.1203 -0.2423
H92 H 0.9361 1.0594 -0.2803
C42 C 1.0449(5) 1.0232(5) -0.2992(4)
H93 H 1.0389 1.0520 -0.3493
H94 H 1.1008 1.0271 -0.2705
C43 C 1.0747(6) 0.8949(5) -0.3591(4)
H95 H 1.0703 0.8356 -0.3537
H96 H 1.1298 0.9101 -0.3347
C44 C 0.9757(5) 0.9664(5) -0.5702(4)
H97 H 0.9280 0.9900 -0.5983
C45 C 0.9858(5) 0.9549(5) -0.4885(4)
H98 H 0.9471 0.9722 -0.4622
C46 C 1.0582(5) 0.9155(5) -0.4470(5)
C47 C 1.1122(5) 0.8940(4) -0.4895(4)
H99 H 1.1600 0.8685 -0.4640
C48 C 1.0974(5) 0.9096(5) -0.5701(5)
H100 H 1.1358 0.8944 -0.5975
Cd3_2 Cd 1.00451(3) 0.96359(3) -0.74735(3)
N12_2 N 1.0297(4) 0.9457(4) 0.3900(3)
Cd4 Cd 0.24041(3) 0.64228(3) 0.46904(3)
S3 S 0.28339(11) 0.58892(13) 0.67535(11)
S4 S 0.21339(9) 0.71040(11) 0.27099(9)
O30 O 0.2686(3) 0.6482(4) 0.6069(3)
O31 O 0.2825(3) 0.5032(3) 0.6448(3)
O32 O 0.2207(4) 0.6002(4) 0.7186(3)
O33 O 0.3635(4) 0.6053(4) 0.7269(3)
O34 O 0.2602(3) 0.7848(4) 0.4618(4)
H37 H 0.288(4) 0.808(4) 0.505(2)
H38 H 0.272(4) 0.810(4) 0.421(2)
O35 O 0.2144(4) 0.5033(4) 0.4883(3)
H39 H 0.214(4) 0.458(3) 0.463(3)
H40 H 0.239(4) 0.502(4) 0.5381(16)
O36 O 0.2066(2) 0.6473(3) 0.3315(2)
O37 O 0.2773(3) 0.7692(3) 0.3090(3)
O38 O 0.1369(3) 0.7529(4) 0.2446(3)
O39 O 0.2351(3) 0.6683(3) 0.2046(3)
N13 N 0.3719(3) 0.6117(4) 0.4662(3)
N14 N 0.6686(3) 0.5986(4) 0.4453(4)
N15 N 0.8148(3) 0.6947(4) 0.4853(4)
N16 N 1.1103(3) 0.6747(3) 0.4732(3)
C49 C 0.4237(4) 0.5870(5) 0.5334(4)
H101 H 0.4057 0.5848 0.5801
C50 C 0.5020(5) 0.5648(5) 0.5364(4)
H102 H 0.5352 0.5480 0.5844
C51 C 0.5318(4) 0.5671(4) 0.4691(4)
C52 C 0.4795(4) 0.5967(4) 0.3995(4)
H103 H 0.4976 0.6032 0.3533
C53 C 0.4012(4) 0.6161(4) 0.4004(4)
H104 H 0.3668 0.6332 0.3532
C54 C 0.6158(4) 0.5367(5) 0.4706(4)
H105 H 0.6410 0.5189 0.5242
H106 H 0.6118 0.4889 0.4362
C55 C 0.6750(4) 0.6719(4) 0.4965(4)
H107 H 0.6934 0.6559 0.5518
H108 H 0.6227 0.6978 0.4896
C56 C 0.7343(4) 0.7325(5) 0.4744(4)
H109 H 0.7150 0.7493 0.4194
H110 H 0.7381 0.7813 0.5074
C57 C 0.7491(4) 0.5608(5) 0.4552(5)
H111 H 0.7452 0.5122 0.4219
H112 H 0.7690 0.5437 0.5100
C58 C 0.8078(4) 0.6219(4) 0.4329(4)
H113 H 0.8601 0.5962 0.4387
H114 H 0.7886 0.6386 0.3779
C59 C 0.8685(4) 0.7565(5) 0.4629(4)
H115 H 0.8710 0.8041 0.4973
H116 H 0.8454 0.7745 0.4089
C60 C 1.0796(5) 0.6709(5) 0.5380(4)
H117 H 1.1122 0.6504 0.5847
C61 C 1.0036(4) 0.6955(5) 0.5393(4)
H118 H 0.9854 0.6922 0.5858
C62 C 0.9529(4) 0.7263(5) 0.4678(4)
C63 C 0.9835(4) 0.7288(5) 0.4020(4)
H119 H 0.9517 0.7477 0.3542
C64 C 1.0621(4) 0.7033(5) 0.4058(4)
H120 H 1.0818 0.7061 0.3602
Cd4_2 Cd 1.24041(3) 0.64228(3) 0.46904(3)
N16_2 N 0.1103(3) 0.6747(3) 0.4732(3)
S2 S 0.71103(11) 0.57527(12) 0.73147(12)
O16 O 0.7186(3) 0.5230(3) 0.8032(3)
O18 O 0.7631(3) 0.6478(3) 0.7523(3)
O19 O 0.7365(4) 0.5270(4) 0.6690(3)
O22 O 0.6277(3) 0.6012(4) 0.7067(4)
O2 O 0.3795(3) 0.1392(4) 0.7217(3)
H1 H 0.338(3) 0.166(4) 0.732(4)
H2 H 0.366(4) 0.126(4) 0.6709(16)
O4 O 0.6341(3) 1.1461(4) 0.8557(3)
H3 H 0.6752 1.1535 0.8369
H4 H 0.6333 1.0950 0.8663
O6 O 0.8597(3) 0.7057(4) 0.6552(3)
H5 H 0.850(4) 0.681(4) 0.606(2)
H6 H 0.819(3) 0.682(4) 0.672(4)
O8 O 0.1182(4) 0.7033(4) 0.7755(3)
H7 H 0.154(3) 0.680(5) 0.752(3)
H8 H 0.143(4) 0.697(5) 0.8255(15)
O10 O 0.8585(4) 0.8820(4) 0.6245(3)
H11 H 0.908(2) 0.902(4) 0.636(5)
H12 H 0.862(4) 0.8304(19) 0.640(4)
O11 O 0.6318(3) 0.9756(3) 0.8916(3)
H13 H 0.5848(11) 0.957(3) 0.866(2)
H14 H 0.6700 0.9515 0.8734
O14 O 0.3362(4) 0.8127(4) 0.6126(3)
O15 O 1.1747(4) 1.0264(6) -0.1006(4)
H19 H 1.1922 1.0432 -0.0532
H20 H 1.1229(18) 1.017(7) -0.117(4)
O17 O 0.7545(4) 0.9118(4) 0.8286(4)
O20 O 0.7519(4) 0.9792(4) 0.6865(4)
loop_
_geom_bond_atom_site_label_1
_geom_bond_atom_site_label_2
_geom_bond_site_symmetry_1
_geom_bond_site_symmetry_2
Cd1 O1 1_555 1_555
Cd2 O21 1_555 1_555
Cd3 O26 1_555 1_555
Cd4 O30 1_555 1_555
S1 O1 1_555 1_555
S2 O16 1_555 1_555
S3 O30 1_555 1_555
S4 O36 1_555 1_555
O2 H1 1_555 1_555
H2 O2 1_555 1_555
O3 S1 1_555 1_555
O4 H3 1_555 1_555
H4 O4 1_555 1_555
O5 S1 1_555 1_555
O6 H5 1_555 1_555
H6 O6 1_555 1_555
O7 S1 1_555 1_555
O8 H7 1_555 1_555
H8 O8 1_555 1_555
O9 Cd1 1_555 1_555
H9 O9 1_555 1_555
H10 O9 1_555 1_555
O10 H11 1_555 1_555
H12 O10 1_555 1_555
O11 H13 1_555 1_555
H14 O11 1_555 1_555
O12 Cd1 1_555 1_555
H15 O12 1_555 1_555
H16 O12 1_555 1_555
O13 Cd1 1_555 1_555
H17 O13 1_555 1_555
H18 O13 1_555 1_555
O15 H19 1_555 1_555
H20 O15 1_555 1_555
O18 S2 1_555 1_555
O19 S2 1_555 1_555
O21 H21 1_555 1_555
H22 O21 1_555 1_555
O22 S2 1_555 1_555
O23 Cd2 1_555 1_555
H23 O23 1_555 1_555
H24 O23 1_555 1_555
O24 Cd2 1_555 1_555
H25 O24 1_555 1_555
H26 O24 1_555 1_555
O25 Cd2 1_555 1_555
H27 O25 1_555 1_555
H28 O25 1_555 1_555
O26 H29 1_555 1_555
H30 O26 1_555 1_555
O27 Cd3 1_555 1_555
H31 O27 1_555 1_555
H32 O27 1_555 1_555
O28 Cd3 1_555 1_555
H33 O28 1_555 1_555
H34 O28 1_555 1_555
O29 Cd3 1_555 1_555
H35 O29 1_555 1_555
H36 O29 1_555 1_555
O31 S3 1_555 1_555
O32 S3 1_555 1_555
O33 S3 1_555 1_555
O34 Cd4 1_555 1_555
H37 O34 1_555 1_555
H38 O34 1_555 1_555
O35 Cd4 1_555 1_555
H39 O35 1_555 1_555
H40 O35 1_555 1_555
O36 Cd4 1_555 1_555
O37 S4 1_555 1_555
O38 S4 1_555 1_555
O39 S4 1_555 1_555
N1 Cd1 1_555 1_555
N2 C6 1_555 1_555
N3 C8 1_555 1_555
N4 C12 1_555 1_555
N5 Cd2 1_555 1_555
N6 C22 1_555 1_555
N7 C24 1_555 1_555
N8 C28 1_555 1_555
N9 Cd3 1_555 1_555
N10 C38 1_555 1_555
N11 C40 1_555 1_555
N12 C44 1_555 1_555
N13 Cd4 1_555 1_555
N14 C54 1_555 1_555
N15 C56 1_555 1_555
N16 C60 1_555 1_555
C1 N1 1_555 1_555
H41 C1 1_555 1_555
C2 C1 1_555 1_555
H42 C2 1_555 1_555
C3 C2 1_555 1_555
C4 C3 1_555 1_555
H43 C4 1_555 1_555
C5 N1 1_555 1_555
H44 C5 1_555 1_555
C6 C3 1_555 1_555
H45 C6 1_555 1_555
H46 C6 1_555 1_555
C7 N2 1_555 1_555
H47 C7 1_555 1_555
H48 C7 1_555 1_555
C8 C7 1_555 1_555
H49 C8 1_555 1_555
H50 C8 1_555 1_555
C9 N2 1_555 1_555
H51 C9 1_555 1_555
H52 C9 1_555 1_555
C10 N3 1_555 1_555
H53 C10 1_555 1_555
H54 C10 1_555 1_555
C11 N3 1_555 1_555
H55 C11 1_555 1_555
H56 C11 1_555 1_555
C12 H57 1_555 1_555
C13 C12 1_555 1_555
H58 C13 1_555 1_555
C14 C11 1_555 1_555
C15 C14 1_555 1_555
H59 C15 1_555 1_555
C16 N4 1_555 1_555
H60 C16 1_555 1_555
C17 N5 1_555 1_555
H61 C17 1_555 1_555
C18 C17 1_555 1_555
H62 C18 1_555 1_555
C19 C18 1_555 1_555
C20 C19 1_555 1_555
H63 C20 1_555 1_555
C21 N5 1_555 1_555
H64 C21 1_555 1_555
C22 C19 1_555 1_555
H65 C22 1_555 1_555
H66 C22 1_555 1_555
C23 N6 1_555 1_555
H67 C23 1_555 1_555
H68 C23 1_555 1_555
C24 C23 1_555 1_555
H69 C24 1_555 1_555
H70 C24 1_555 1_555
C25 N7 1_555 1_555
H71 C25 1_555 1_555
H72 C25 1_555 1_555
C26 N6 1_555 1_555
H73 C26 1_555 1_555
H74 C26 1_555 1_555
C27 N7 1_555 1_555
H75 C27 1_555 1_555
H76 C27 1_555 1_555
C28 H77 1_555 1_555
C29 C28 1_555 1_555
H78 C29 1_555 1_555
C30 C27 1_555 1_555
C31 C30 1_555 1_555
H79 C31 1_555 1_555
C32 N8 1_555 1_555
H80 C32 1_555 1_555
C33 N9 1_555 1_555
H81 C33 1_555 1_555
C34 C33 1_555 1_555
H82 C34 1_555 1_555
C35 C34 1_555 1_555
C36 C35 1_555 1_555
H83 C36 1_555 1_555
C37 N9 1_555 1_555
H84 C37 1_555 1_555
C38 C35 1_555 1_555
H85 C38 1_555 1_555
H86 C38 1_555 1_555
C39 N10 1_555 1_555
H87 C39 1_555 1_555
H88 C39 1_555 1_555
C40 C39 1_555 1_555
H89 C40 1_555 1_555
H90 C40 1_555 1_555
C41 N10 1_555 1_555
H91 C41 1_555 1_555
H92 C41 1_555 1_555
C42 N11 1_555 1_555
H93 C42 1_555 1_555
H94 C42 1_555 1_555
C43 N11 1_555 1_555
H95 C43 1_555 1_555
H96 C43 1_555 1_555
C44 H97 1_555 1_555
C45 C44 1_555 1_555
H98 C45 1_555 1_555
C46 C43 1_555 1_555
C47 C46 1_555 1_555
H99 C47 1_555 1_555
C48 N12 1_555 1_555
H100 C48 1_555 1_555
C49 N13 1_555 1_555
H101 C49 1_555 1_555
C50 C49 1_555 1_555
H102 C50 1_555 1_555
C51 C50 1_555 1_555
C52 C51 1_555 1_555
H103 C52 1_555 1_555
C53 N13 1_555 1_555
H104 C53 1_555 1_555
C54 C51 1_555 1_555
H105 C54 1_555 1_555
H106 C54 1_555 1_555
C55 N14 1_555 1_555
H107 C55 1_555 1_555
H108 C55 1_555 1_555
C56 C55 1_555 1_555
H109 C56 1_555 1_555
H110 C56 1_555 1_555
C57 N14 1_555 1_555
H111 C57 1_555 1_555
H112 C57 1_555 1_555
C58 N15 1_555 1_555
H113 C58 1_555 1_555
H114 C58 1_555 1_555
C59 N15 1_555 1_555
H115 C59 1_555 1_555
H116 C59 1_555 1_555
C60 H117 1_555 1_555
C61 C60 1_555 1_555
H118 C61 1_555 1_555
C62 C59 1_555 1_555
C63 C62 1_555 1_555
H119 C63 1_555 1_555
C64 N16 1_555 1_555
H120 C64 1_555 1_555
Cd1_2 N4 1_555 1_555
Cd2_2 N8 1_555 1_555
Cd3_2 N12 1_555 1_555
Cd4_2 N16 1_555 1_555
N4_2 Cd1 1_555 1_555
N8_2 Cd2 1_555 1_555
N12_2 Cd3 1_555 1_555
N16_2 Cd4 1_555 1_555
C4 C5 1_555 1_555
C9 C10 1_555 1_555
C13 C14 1_555 1_555
C15 C16 1_555 1_555
C20 C21 1_555 1_555
C25 C26 1_555 1_555
C29 C30 1_555 1_555
C31 C32 1_555 1_555
C36 C37 1_555 1_555
C41 C42 1_555 1_555
C45 C46 1_555 1_555
C47 C48 1_555 1_555
C52 C53 1_555 1_555
C57 C58 1_555 1_555
C61 C62 1_555 1_555
C63 C64 1_555 1_555

#END
