
#######################################################################
#
#                 Cambridge Crystallographic Data Centre
#                                CCDC 
#
#######################################################################
#
# If this CIF has been generated from an entry in the Cambridge 
# Structural Database, then it will include bibliographic, chemical, 
# crystal, experimental, refinement or atomic coordinate data resulting 
# from the CCDC's data processing and validation procedures.
#
#######################################################################

data_ROZXEK
_symmetry_cell_setting           monoclinic
_symmetry_space_group_name_H-M   'C 2/c'
_symmetry_Int_Tables_number      15
_space_group_name_Hall           '-C 2yn'
loop_
_symmetry_equiv_pos_site_id
_symmetry_equiv_pos_as_xyz
1 x,y,z
2 -x,y,1/2-z
3 1/2+x,1/2+y,z
4 1/2-x,1/2+y,1/2-z
5 -x,-y,-z
6 x,-y,1/2+z
7 1/2-x,1/2-y,-z
8 1/2+x,1/2-y,1/2+z
_cell_length_a                   28.025(5)
_cell_length_b                   14.759(3)
_cell_length_c                   28.855(5)
_cell_angle_alpha                90
_cell_angle_beta                 104.58(3)
_cell_angle_gamma                90
_cell_volume                     11550.7
loop_
_atom_site_label
_atom_site_type_symbol
_atom_site_fract_x
_atom_site_fract_y
_atom_site_fract_z
Cu1 Cu 0.02264(2) 0.36754(4) 0.60484(2)
Cu2 Cu 0.31070(2) 0.41192(4) 0.88199(2)
Cu3 Cu 0.36108(2) 0.61628(4) 1.10464(2)
Cl1 Cl -0.06953(4) 0.39257(8) 0.66135(5)
Cl2 Cl 0.38994(4) 0.38398(8) 0.80674(4)
Cl3 Cl 0.26228(4) 0.58735(8) 1.15128(4)
O1 O -0.02127(12) 0.3566(2) 0.66342(12)
O2 O -0.10452(12) 0.3558(2) 0.62089(13)
O3 O -0.06774(14) 0.4889(2) 0.65680(15)
O4 O -0.08306(13) 0.3700(3) 0.70358(12)
O5 O -0.02980(10) 0.4383(2) 0.56001(11)
O6 O -0.06754(11) 0.5911(2) 0.47334(11)
O7 O 0.30967(11) 0.5495(2) 1.05734(11)
O8 O 0.40418(11) 0.6061(2) 1.02449(11)
O9 O 0.36227(11) 0.4913(2) 0.92264(11)
O10 O 0.27004(11) 0.4313(2) 0.95736(12)
O11 O 0.35097(11) 0.4343(2) 0.82057(11)
O12 O 0.42481(12) 0.3517(2) 0.84886(12)
O13 O 0.41400(11) 0.4430(2) 0.77946(12)
O14 O 0.36816(12) 0.3080(2) 0.77764(12)
O15 O 0.31190(11) 0.6216(2) 1.15848(11)
O16 O 0.26150(12) 0.4928(2) 1.14141(12)
O17 O 0.24661(11) 0.6023(2) 1.19441(12)
O18 O 0.22987(12) 0.6344(2) 1.11228(12)
N1 N 0.00056(13) 0.2441(2) 0.58303(13)
N2 N 0.08621(13) 0.3020(2) 0.63899(13)
N3 N 0.06022(13) 0.4750(2) 0.63329(13)
N4 N 0.34046(14) 0.2958(3) 0.90901(14)
N5 N 0.25171(13) 0.3332(2) 0.85177(13)
N6 N 0.26569(14) 0.5121(3) 0.85377(14)
N7 N 0.34263(14) 0.7398(3) 1.08127(14)
N8 N 0.42376(13) 0.6781(3) 1.14132(13)
N9 N 0.39550(13) 0.5064(3) 1.13411(14)
C1 C 0.1337(2) 0.1427(3) 0.7249(2)
H1 H 0.1076 0.1064 0.7090
C2 C 0.1761(2) 0.1028(3) 0.7536(2)
H2 H 0.1781 0.0400 0.7565
C3 C 0.2148(2) 0.1555(3) 0.7776(2)
H3 H 0.2432 0.1282 0.7960
C4 C 0.2118(2) 0.2497(3) 0.7744(2)
C5 C 0.1695(2) 0.2887(3) 0.7452(2)
H4 H 0.1675 0.3514 0.7426
C6 C 0.1302(2) 0.2365(3) 0.7198(2)
C7 C 0.0846(2) 0.2794(3) 0.6892(2)
H5 H 0.0571 0.2388 0.6878
H6 H 0.0781 0.3347 0.7047
C8 C 0.1252(2) 0.3675(3) 0.6370(2)
H7 H 0.1309 0.3678 0.6052
H8 H 0.1557 0.3505 0.6598
C9 C 0.0881(2) 0.2185(3) 0.6101(2)
H9 H 0.1078 0.1725 0.6301
H10 H 0.1034 0.2324 0.5843
C10 C 0.0367(2) 0.1833(3) 0.5897(2)
C11 C 0.1096(2) 0.4603(3) 0.6489(2)
C12 C 0.1412(2) 0.5262(3) 0.6727(2)
H11 H 0.1747 0.5142 0.6839
C13 C 0.1228(2) 0.6093(3) 0.6798(2)
H12 H 0.1438 0.6550 0.6950
C14 C 0.0726(2) 0.6254(3) 0.6640(2)
H13 H 0.0594 0.6813 0.6689
C15 C 0.0426(2) 0.5564(3) 0.6408(2)
H14 H 0.0089 0.5669 0.6301
C16 C -0.0464(2) 0.2192(3) 0.5632(2)
H15 H -0.0716 0.2618 0.5591
C17 C -0.0572(2) 0.1308(3) 0.5488(2)
H16 H -0.0897 0.1141 0.5348
C18 C -0.0204(2) 0.0674(3) 0.5550(2)
H17 H -0.0277 0.0082 0.5444
C19 C 0.0282(2) 0.0921(3) 0.5773(2)
H18 H 0.0536 0.0498 0.5835
C20 C -0.0310(2) 0.5413(3) 0.4889(2)
C21 C -0.0144(2) 0.4735(3) 0.5265(2)
C22 C 0.2541(2) 0.3073(3) 0.8016(2)
H19 H 0.2552 0.3624 0.7835
H20 H 0.2846 0.2748 0.8037
C23 C 0.3054(2) 0.4806(3) 0.9758(2)
C24 C 0.3487(2) 0.5092(3) 0.9604(2)
C25 C 0.3676(2) 0.5598(3) 1.0047(2)
C26 C 0.3240(2) 0.5328(3) 1.0202(2)
C27 C 0.2543(2) 0.2539(3) 0.8840(2)
H21 H 0.2369 0.2031 0.8661
H22 H 0.2385 0.2686 0.9094
C28 C 0.3076(2) 0.2286(3) 0.9054(2)
C29 C 0.3218(2) 0.1426(3) 0.9231(2)
H23 H 0.2985 0.0965 0.9200
C30 C 0.3709(2) 0.1262(4) 0.9455(2)
H24 H 0.3810 0.0693 0.9580
C31 C 0.4041(2) 0.1955(4) 0.9486(2)
H25 H 0.4374 0.1859 0.9628
C32 C 0.3878(2) 0.2795(3) 0.9307(2)
H26 H 0.4104 0.3266 0.9337
C33 C 0.2079(2) 0.3910(3) 0.8505(2)
H27 H 0.2004 0.3900 0.8815
H28 H 0.1796 0.3676 0.8269
C34 C 0.2182(2) 0.4863(3) 0.8379(2)
C35 C 0.1825(2) 0.5469(3) 0.8137(2)
H29 H 0.1500 0.5282 0.8022
C36 C 0.1958(2) 0.6346(3) 0.8069(2)
H30 H 0.1723 0.6757 0.7907
C37 C 0.2445(2) 0.6613(3) 0.8243(2)
H31 H 0.2542 0.7206 0.8209
C38 C 0.2776(2) 0.5971(3) 0.8468(2)
H32 H 0.3105 0.6141 0.8578
C39 C 0.3744(2) 0.4271(3) 1.1401(2)
H33 H 0.3407 0.4200 1.1270
C40 C 0.4009(2) 0.3558(4) 1.1649(2)
H34 H 0.3857 0.3006 1.1676
C41 C 0.4507(2) 0.3685(4) 1.1859(2)
H35 H 0.4692 0.3222 1.2036
C42 C 0.4725(2) 0.4498(4) 1.1804(2)
H36 H 0.5060 0.4585 1.1939
C43 C 0.4440(2) 0.5193(3) 1.1543(2)
C44 C 0.4630(2) 0.6096(3) 1.1438(2)
H37 H 0.4920 0.6256 1.1688
H38 H 0.4722 0.6074 1.1136
C45 C 0.4299(2) 0.7588(3) 1.1126(2)
H39 H 0.4471 0.7417 1.0887
H40 H 0.4495 0.8041 1.1333
C46 C 0.3806(2) 0.7976(3) 1.0885(2)
C47 C 0.3739(2) 0.8874(4) 1.0727(2)
H41 H 0.4003 0.9275 1.0780
C48 C 0.3268(3) 0.9149(4) 1.0491(3)
H42 H 0.3215 0.9740 1.0378
C49 C 0.2880(2) 0.8552(4) 1.0423(3)
H43 H 0.2563 0.8734 1.0265
C50 C 0.2971(2) 0.7680(4) 1.0593(2)
H44 H 0.2709 0.7277 1.0555
C51 C 0.4175(2) 0.7021(3) 1.1896(2)
H45 H 0.4123 0.6467 1.2058
H46 H 0.3881 0.7387 1.1856
C52 C 0.4599(2) 0.7524(3) 1.2214(2)
C53 C 0.4606(2) 0.8464(3) 1.2226(2)
H47 H 0.4337 0.8783 1.2044
C54 C 0.5000 0.8934(4) 1.2500
H48 H 0.5000 0.9564 1.2500
C55 C 0.5000 0.7059(4) 1.2500
H49 H 0.5000 0.6429 1.2500
Cu1D Cu -0.02264(2) 0.63246(4) 0.39516(2)
Cu3A Cu 0.63892(2) 0.61628(4) 1.39536(2)
Cl3A Cl 0.73772(4) 0.58735(8) 1.34872(4)
O5D O 0.02980(10) 0.5617(2) 0.43999(11)
O6D O 0.06754(11) 0.4089(2) 0.52666(11)
O7A O 0.69033(11) 0.5495(2) 1.44266(11)
O15A O 0.68810(11) 0.6216(2) 1.34152(11)
O16A O 0.73850(12) 0.4928(2) 1.35859(12)
O17A O 0.75339(11) 0.6023(2) 1.30559(12)
O18A O 0.77013(12) 0.6344(2) 1.38772(12)
N7A N 0.65737(14) 0.7398(3) 1.41873(14)
N8A N 0.57624(13) 0.6781(3) 1.35868(13)
N9A N 0.60450(13) 0.5064(3) 1.36589(14)
C20D C 0.0310(2) 0.4587(3) 0.5111(2)
C21D C 0.0144(2) 0.5265(3) 0.4735(2)
C39A C 0.6256(2) 0.4271(3) 1.3599(2)
H33A H 0.6593 0.4200 1.3730
C40A C 0.5991(2) 0.3558(4) 1.3351(2)
H34A H 0.6143 0.3006 1.3324
C41A C 0.5493(2) 0.3685(4) 1.3141(2)
H35A H 0.5308 0.3222 1.2964
C42A C 0.5275(2) 0.4498(4) 1.3196(2)
H36A H 0.4940 0.4585 1.3061
C43A C 0.5560(2) 0.5193(3) 1.3457(2)
C44A C 0.5370(2) 0.6096(3) 1.3562(2)
H37A H 0.5080 0.6256 1.3312
H38A H 0.5278 0.6074 1.3864
C45A C 0.5701(2) 0.7588(3) 1.3874(2)
H39A H 0.5529 0.7417 1.4113
H40A H 0.5505 0.8041 1.3667
C46A C 0.6194(2) 0.7976(3) 1.4115(2)
C47A C 0.6261(2) 0.8874(4) 1.4273(2)
H41A H 0.5997 0.9275 1.4220
C48A C 0.6732(3) 0.9149(4) 1.4509(3)
H42A H 0.6785 0.9740 1.4622
C49A C 0.7120(2) 0.8552(4) 1.4577(3)
H43A H 0.7437 0.8734 1.4735
C50A C 0.7029(2) 0.7680(4) 1.4407(2)
H44A H 0.7291 0.7277 1.4445
C51A C 0.5825(2) 0.7021(3) 1.3104(2)
H45A H 0.5877 0.6467 1.2942
H46A H 0.6119 0.7387 1.3144
C52A C 0.5401(2) 0.7524(3) 1.2786(2)
C53A C 0.5394(2) 0.8464(3) 1.2774(2)
H47A H 0.5663 0.8783 1.2956
O19 O 0.02650(13) 0.2404(2) 0.48228(14)
H50 H 0.0389 0.2874 0.4933
H51 H 0.0463 0.1996 0.4881
O20 O 0.1818(5) 0.3622(8) 0.9707(4)
H52 H 0.20715 0.38201 0.96687
H53 H 0.16100 0.36046 0.94600
H54? H 0.25984 0.32929 0.99425
H55? H 0.27359 0.24365 1.01537
H56? H 0.15437 0.24619 0.93701
H57? H 0.19528 0.23299 0.97143
O21? O 0.2556(6) 0.2865(8) 1.0097(5)
O22? O 0.1704(5) 0.2109(10) 0.9556(5)
loop_
_geom_bond_atom_site_label_1
_geom_bond_atom_site_label_2
_geom_bond_site_symmetry_1
_geom_bond_site_symmetry_2
Cu1 O1 1_555 1_555
Cu2 O9 1_555 1_555
Cu3 O7 1_555 1_555
Cl1 O1 1_555 1_555
Cl2 O11 1_555 1_555
Cl3 O15 1_555 1_555
O2 Cl1 1_555 1_555
O3 Cl1 1_555 1_555
O4 Cl1 1_555 1_555
O5 Cu1 1_555 1_555
O6 C20 1_555 1_555
O7 C26 1_555 1_555
O8 C25 1_555 1_555
O9 C24 1_555 1_555
O10 C23 1_555 1_555
O11 Cu2 1_555 1_555
O12 Cl2 1_555 1_555
O13 Cl2 1_555 1_555
O14 Cl2 1_555 1_555
O15 Cu3 1_555 1_555
O16 Cl3 1_555 1_555
O17 Cl3 1_555 1_555
O18 Cl3 1_555 1_555
N1 Cu1 1_555 1_555
N2 Cu1 1_555 1_555
N3 Cu1 1_555 1_555
N4 Cu2 1_555 1_555
N5 Cu2 1_555 1_555
N6 Cu2 1_555 1_555
N7 Cu3 1_555 1_555
N8 Cu3 1_555 1_555
N9 Cu3 1_555 1_555
C1 H1 1_555 1_555
C2 C1 1_555 1_555
H2 C2 1_555 1_555
C3 C2 1_555 1_555
H3 C3 1_555 1_555
C4 C3 1_555 1_555
C5 C4 1_555 1_555
H4 C5 1_555 1_555
C6 C1 1_555 1_555
C7 N2 1_555 1_555
H5 C7 1_555 1_555
H6 C7 1_555 1_555
C8 N2 1_555 1_555
H7 C8 1_555 1_555
H8 C8 1_555 1_555
C9 N2 1_555 1_555
H9 C9 1_555 1_555
H10 C9 1_555 1_555
C10 N1 1_555 1_555
C11 N3 1_555 1_555
C12 C11 1_555 1_555
H11 C12 1_555 1_555
C13 C12 1_555 1_555
H12 C13 1_555 1_555
C14 C13 1_555 1_555
H13 C14 1_555 1_555
C15 N3 1_555 1_555
H14 C15 1_555 1_555
C16 N1 1_555 1_555
H15 C16 1_555 1_555
C17 C16 1_555 1_555
H16 C17 1_555 1_555
C18 C17 1_555 1_555
H17 C18 1_555 1_555
C19 C10 1_555 1_555
H18 C19 1_555 1_555
C20 C21 1_555 1_555
C21 O5 1_555 1_555
C22 N5 1_555 1_555
H19 C22 1_555 1_555
H20 C22 1_555 1_555
C23 C24 1_555 1_555
C24 C25 1_555 1_555
C25 C26 1_555 1_555
C26 C23 1_555 1_555
C27 N5 1_555 1_555
H21 C27 1_555 1_555
H22 C27 1_555 1_555
C28 N4 1_555 1_555
C29 C28 1_555 1_555
H23 C29 1_555 1_555
C30 C29 1_555 1_555
H24 C30 1_555 1_555
C31 C30 1_555 1_555
H25 C31 1_555 1_555
C32 N4 1_555 1_555
H26 C32 1_555 1_555
C33 N5 1_555 1_555
H27 C33 1_555 1_555
H28 C33 1_555 1_555
C34 N6 1_555 1_555
C35 C34 1_555 1_555
H29 C35 1_555 1_555
C36 C35 1_555 1_555
H30 C36 1_555 1_555
C37 C36 1_555 1_555
H31 C37 1_555 1_555
C38 N6 1_555 1_555
H32 C38 1_555 1_555
C39 N9 1_555 1_555
H33 C39 1_555 1_555
C40 C39 1_555 1_555
H34 C40 1_555 1_555
C41 C40 1_555 1_555
H35 C41 1_555 1_555
C42 C41 1_555 1_555
H36 C42 1_555 1_555
C43 N9 1_555 1_555
C44 N8 1_555 1_555
H37 C44 1_555 1_555
H38 C44 1_555 1_555
C45 N8 1_555 1_555
H39 C45 1_555 1_555
H40 C45 1_555 1_555
C46 N7 1_555 1_555
C47 C46 1_555 1_555
H41 C47 1_555 1_555
C48 C47 1_555 1_555
H42 C48 1_555 1_555
C49 C48 1_555 1_555
H43 C49 1_555 1_555
C50 N7 1_555 1_555
H44 C50 1_555 1_555
C51 N8 1_555 1_555
H45 C51 1_555 1_555
H46 C51 1_555 1_555
C52 C51 1_555 1_555
C53 C52 1_555 1_555
H47 C53 1_555 1_555
C54 C53 1_555 1_555
H48 C54 1_555 1_555
C55 C52 1_555 1_555
H49 C55 1_555 1_555
O19 H50 1_555 1_555
H51 O19 1_555 1_555
O20 H52 1_555 1_555
H53 O20 1_555 1_555
Cu1D O5D 1_555 1_555
Cu3A O7A 1_555 1_555
Cl3A O15A 1_555 1_555
O5D C21D 1_555 1_555
O6D C20D 1_555 1_555
O15A Cu3A 1_555 1_555
O16A Cl3A 1_555 1_555
O17A Cl3A 1_555 1_555
O18A Cl3A 1_555 1_555
N7A Cu3A 1_555 1_555
N8A Cu3A 1_555 1_555
N9A Cu3A 1_555 1_555
C20D C21 1_555 1_555
C21D C20 1_555 1_555
C39A N9A 1_555 1_555
H33A C39A 1_555 1_555
C40A C39A 1_555 1_555
H34A C40A 1_555 1_555
C41A C40A 1_555 1_555
H35A C41A 1_555 1_555
C42A C41A 1_555 1_555
H36A C42A 1_555 1_555
C43A N9A 1_555 1_555
C44A N8A 1_555 1_555
H37A C44A 1_555 1_555
H38A C44A 1_555 1_555
C45A N8A 1_555 1_555
H39A C45A 1_555 1_555
H40A C45A 1_555 1_555
C46A N7A 1_555 1_555
C47A C46A 1_555 1_555
H41A C47A 1_555 1_555
C48A C47A 1_555 1_555
H42A C48A 1_555 1_555
C49A C48A 1_555 1_555
H43A C49A 1_555 1_555
C50A N7A 1_555 1_555
H44A C50A 1_555 1_555
C51A N8A 1_555 1_555
H45A C51A 1_555 1_555
H46A C51A 1_555 1_555
C52A C55 1_555 1_555
C53A C54 1_555 1_555
H47A C53A 1_555 1_555
C4 C22 1_555 1_555
C5 C6 1_555 1_555
C6 C7 1_555 1_555
C8 C11 1_555 1_555
C9 C10 1_555 1_555
C14 C15 1_555 1_555
C18 C19 1_555 1_555
C27 C28 1_555 1_555
C31 C32 1_555 1_555
C33 C34 1_555 1_555
C37 C38 1_555 1_555
C42 C43 1_555 1_555
C43 C44 1_555 1_555
C45 C46 1_555 1_555
C49 C50 1_555 1_555
C20D C21D 1_555 1_555
C42A C43A 1_555 1_555
C43A C44A 1_555 1_555
C45A C46A 1_555 1_555
C49A C50A 1_555 1_555
C51A C52A 1_555 1_555
C52A C53A 1_555 1_555

#END
