
#######################################################################
#
#                 Cambridge Crystallographic Data Centre
#                                CCDC 
#
#######################################################################
#
# If this CIF has been generated from an entry in the Cambridge 
# Structural Database, then it will include bibliographic, chemical, 
# crystal, experimental, refinement or atomic coordinate data resulting 
# from the CCDC's data processing and validation procedures.
#
#######################################################################

data_ROZXUA
_symmetry_cell_setting           monoclinic
_symmetry_space_group_name_H-M   'P 21/c'
_symmetry_Int_Tables_number      14
_space_group_name_Hall           '-P 2ybc'
loop_
_symmetry_equiv_pos_site_id
_symmetry_equiv_pos_as_xyz
1 x,y,z
2 -x,1/2+y,1/2-z
3 -x,-y,-z
4 x,1/2-y,1/2+z
_cell_length_a                   6.9346(2)
_cell_length_b                   12.6998(4)
_cell_length_c                   17.9629(5)
_cell_angle_alpha                90
_cell_angle_beta                 95.2800(16)
_cell_angle_gamma                90
_cell_volume                     1575.24
loop_
_atom_site_label
_atom_site_type_symbol
_atom_site_fract_x
_atom_site_fract_y
_atom_site_fract_z
V1 V 0.77567(5) 0.27239(3) 0.441782(18)
K1 K 0.24422(7) 0.40264(3) 0.49869(2)
O1 O 0.5022(2) 0.26141(12) 0.44340(8)
O2 O 0.5612(2) 0.30134(12) 0.37204(8)
O3 O 1.0385(2) 0.23147(12) 0.43302(8)
O4 O 0.9424(2) 0.27802(12) 0.36433(7)
O5 O 0.8174(2) 0.38400(11) 0.48438(8)
N1 N 0.7352(2) 0.09845(13) 0.40818(9)
C1 C 0.7142(3) 0.06195(17) 0.33813(11)
H1 H 0.7099 0.1111 0.2982
C2 C 0.6985(3) -0.04400(17) 0.32113(11)
H2 H 0.6850 -0.0672 0.2706
C3 C 0.7029(3) -0.11571(17) 0.37955(12)
H3 H 0.6911 -0.1890 0.3696
C4 C 0.7246(3) -0.07927(16) 0.45255(12)
H4 H 0.7276 -0.1270 0.4934
C5 C 0.7419(3) 0.02887(16) 0.46481(11)
C6 C 0.7698(3) 0.07639(16) 0.54049(11)
C7 C 0.7780(3) 0.01669(18) 0.60563(11)
H5 H 0.7676 -0.0578 0.6030
C8 C 0.8015(3) 0.06675(18) 0.67399(11)
H6 H 0.8070 0.0269 0.7189
C9 C 0.8169(3) 0.17564(18) 0.67677(11)
H7 H 0.8318 0.2115 0.7233
C10 C 0.8101(3) 0.23086(17) 0.60996(11)
H8 H 0.8216 0.3054 0.6116
N2 N 0.7876(2) 0.18285(13) 0.54286(9)
O6 O 0.0836(2) 0.48083(14) 0.35183(9)
H9 H 0.038(4) 0.4230(15) 0.3490(15)
H10 H -0.010(4) 0.521(2) 0.3516(18)
O7 O 0.5290(2) 0.49315(13) 0.61182(9)
H11 H 0.644(3) 0.494(3) 0.6306(17)
H12 H 0.495(4) 0.5542(16) 0.6231(16)
O8 O 0.2247(2) 0.38211(13) 0.65159(8)
H13 H 0.236(4) 0.351(2) 0.6921(12)
H14 H 0.324(3) 0.417(2) 0.6499(14)
K1_2 K 1.24422(7) 0.40264(3) 0.49869(2)
K1B K 0.75578(7) 0.59736(3) 0.50131(2)
O3_2 O 0.0385(2) 0.23147(12) 0.43302(8)
O5B O 0.1826(2) 0.61600(11) 0.51562(8)
O5_2 O -0.1826(2) 0.38400(11) 0.48438(8)
O7B O 0.4710(2) 0.50685(13) 0.38818(9)
H11B H 0.356(3) 0.506(3) 0.3694(17)
H12B H 0.505(4) 0.4458(16) 0.3769(16)
O9 O 0.2535(3) 0.20936(15) 0.28551(9)
H15 H 0.162(3) 0.224(2) 0.3090(15)
H16 H 0.351(3) 0.229(3) 0.3088(17)
loop_
_geom_bond_atom_site_label_1
_geom_bond_atom_site_label_2
_geom_bond_site_symmetry_1
_geom_bond_site_symmetry_2
V1 O1 1_555 1_555
K1 O1 1_555 1_555
O1 O2 1_555 1_555
O2 V1 1_555 1_555
O3 V1 1_555 1_555
O4 V1 1_555 1_555
O5 V1 1_555 1_555
N1 V1 1_555 1_555
C1 N1 1_555 1_555
H1 C1 1_555 1_555
C2 C1 1_555 1_555
H2 C2 1_555 1_555
C3 C2 1_555 1_555
H3 C3 1_555 1_555
C4 C3 1_555 1_555
H4 C4 1_555 1_555
C5 N1 1_555 1_555
C6 C5 1_555 1_555
C7 C6 1_555 1_555
H5 C7 1_555 1_555
C8 C7 1_555 1_555
H6 C8 1_555 1_555
C9 C8 1_555 1_555
H7 C9 1_555 1_555
C10 C9 1_555 1_555
H8 C10 1_555 1_555
N2 V1 1_555 1_555
O6 K1 1_555 1_555
H9 O6 1_555 1_555
H10 O6 1_555 1_555
O7 K1 1_555 1_555
H11 O7 1_555 1_555
H12 O7 1_555 1_555
O8 K1 1_555 1_555
H13 O8 1_555 1_555
H14 O8 1_555 1_555
O9 H15 1_555 1_555
H16 O9 1_555 1_555
K1_2 O3 1_555 1_555
K1B O5 1_555 1_555
O3_2 K1 1_555 1_555
O5B K1 1_555 1_555
O5_2 K1 1_555 1_555
O7B K1 1_555 1_555
H11B O7B 1_555 1_555
H12B O7B 1_555 1_555
O3 O4 1_555 1_555
O5 K1_2 1_555 1_555
C4 C5 1_555 1_555
C6 N2 1_555 1_555
C10 N2 1_555 1_555
O7 K1B 1_555 1_555
K1B O7B 1_555 1_555

#END
