
#######################################################################
#
#                 Cambridge Crystallographic Data Centre
#                                CCDC 
#
#######################################################################
#
# If this CIF has been generated from an entry in the Cambridge 
# Structural Database, then it will include bibliographic, chemical, 
# crystal, experimental, refinement or atomic coordinate data resulting 
# from the CCDC's data processing and validation procedures.
#
#######################################################################

data_RUBDOI
_symmetry_cell_setting           monoclinic
_symmetry_space_group_name_H-M   'C c'
_symmetry_Int_Tables_number      9
_space_group_name_Hall           'C -2yc'
loop_
_symmetry_equiv_pos_site_id
_symmetry_equiv_pos_as_xyz
1 x,y,z
2 x,-y,1/2+z
3 1/2+x,1/2+y,z
4 1/2+x,1/2-y,1/2+z
_cell_length_a                   13.516(1)
_cell_length_b                   17.857(1)
_cell_length_c                   8.638(1)
_cell_angle_alpha                90
_cell_angle_beta                 96.607(1)
_cell_angle_gamma                90
_cell_volume                     2070.98
loop_
_atom_site_label
_atom_site_type_symbol
_atom_site_fract_x
_atom_site_fract_y
_atom_site_fract_z
Zn1 Zn 0.38645(6) 0.69637(3) 0.40298(7)
O1 O 0.4380(4) 0.8468(3) 0.5200(6)
N1 N -0.0112(4) 0.3028(3) 0.0224(6)
O2 O 0.3131(3) 0.7666(2) 0.5204(5)
C1 C 0.1818(6) 0.9849(4) 0.7882(8)
N2 N 0.0863(4) 1.1036(3) 0.7501(6)
N3 N 0.0022(4) 1.1652(3) 0.5599(6)
C2 C 0.1147(5) 1.0406(4) 0.8570(7)
H1 H 0.0549 1.0151 0.8811
H2 H 0.1486 1.0601 0.9537
N4 N -0.0699(4) 0.2361(3) 0.2035(6)
C3 C 0.1483(5) 0.5382(4) 0.1243(8)
H3 H 0.1355 0.5893 0.1209
C4 C 0.2980(5) 0.8815(3) 0.6481(7)
C5 C 0.1538(6) 0.9106(4) 0.7755(9)
H4 H 0.0957 0.8949 0.8138
C6 C 0.2119(5) 0.8593(3) 0.7060(8)
H5 H 0.1924 0.8093 0.6984
C7 C 0.1348(5) 1.1696(4) 0.7364(8)
H6 H 0.1929 1.1853 0.7955
O3 O 0.2809(4) 0.6291(4) 0.3128(6)
C8 C 0.0842(6) 0.4895(5) 0.0379(9)
H7 H 0.0293 0.5082 -0.0250
C9 C -0.0247(5) 0.2970(3) 0.1729(8)
H8 H -0.0037 0.3329 0.2474
C10 C 0.2308(5) 0.5112(4) 0.2153(7)
C11 C 0.1015(6) 0.4131(4) 0.0448(9)
C12 C -0.0531(6) 0.2406(4) -0.0487(8)
H9 H -0.0556 0.2284 -0.1538
C13 C 0.3277(5) 0.9558(3) 0.6662(7)
H10 H 0.3869 0.9714 0.6313
C14 C 0.1824(5) 0.3867(4) 0.1355(8)
H11 H 0.1938 0.3353 0.1405
C15 C 0.0085(4) 1.1032(3) 0.6421(7)
H12 H -0.0364 1.0637 0.6263
C16 C 0.0821(5) 1.2074(4) 0.6205(8)
H13 H 0.0975 1.2550 0.5865
C17 C 0.3569(5) 0.8287(3) 0.5573(7)
O4 O 0.3910(6) 0.5370(4) 0.3493(8)
C18 C 0.3085(6) 0.5614(5) 0.3013(9)
C19 C 0.2483(5) 0.4340(4) 0.2206(8)
H14 H 0.3039 0.4148 0.2810
C20 C 0.2705(5) 1.0062(4) 0.7352(8)
H15 H 0.2915 1.0557 0.7467
C21 C -0.0898(7) 0.2004(4) 0.0625(9)
H16 H -0.1238 0.1553 0.0466
C22 C 0.0350(7) 0.3618(5) -0.0608(9)
H17 H -0.0169 0.3914 -0.1186
H18 H 0.0741 0.3390 -0.1355
Zn1B Zn -0.11355(6) 0.19637(3) 0.40298(7)
Zn1B_2 Zn -0.11355(6) 1.19637(3) 0.40298(7)
N3B N 0.5022(4) 0.6652(3) 0.5599(6)
N4B N 0.4301(4) 0.7361(3) 0.2035(6)
loop_
_geom_bond_atom_site_label_1
_geom_bond_atom_site_label_2
_geom_bond_site_symmetry_1
_geom_bond_site_symmetry_2
Zn1 O2 1_555 1_555
O1 C17 1_555 1_555
N1 C9 1_555 1_555
O2 C17 1_555 1_555
C1 C2 1_555 1_555
N2 C2 1_555 1_555
N3 C15 1_555 1_555
C2 H1 1_555 1_555
H2 C2 1_555 1_555
N4 C9 1_555 1_555
C3 H3 1_555 1_555
C4 C6 1_555 1_555
C5 C1 1_555 1_555
H4 C5 1_555 1_555
C6 C5 1_555 1_555
H5 C6 1_555 1_555
C7 N2 1_555 1_555
H6 C7 1_555 1_555
O3 Zn1 1_555 1_555
C8 C3 1_555 1_555
H7 C8 1_555 1_555
C9 H8 1_555 1_555
C10 C3 1_555 1_555
C11 C8 1_555 1_555
C12 N1 1_555 1_555
H9 C12 1_555 1_555
C13 C4 1_555 1_555
H10 C13 1_555 1_555
C14 C11 1_555 1_555
H11 C14 1_555 1_555
C15 N2 1_555 1_555
H12 C15 1_555 1_555
C16 N3 1_555 1_555
H13 C16 1_555 1_555
C17 C4 1_555 1_555
O4 C18 1_555 1_555
C18 O3 1_555 1_555
C19 C10 1_555 1_555
H14 C19 1_555 1_555
C20 C1 1_555 1_555
H15 C20 1_555 1_555
C21 N4 1_555 1_555
H16 C21 1_555 1_555
C22 N1 1_555 1_555
H17 C22 1_555 1_555
H18 C22 1_555 1_555
Zn1B N4 1_555 1_555
Zn1B_2 N3 1_555 1_555
N3B Zn1 1_555 1_555
N4B Zn1 1_555 1_555
C7 C16 1_555 1_555
C10 C18 1_555 1_555
C11 C22 1_555 1_555
C12 C21 1_555 1_555
C13 C20 1_555 1_555
C14 C19 1_555 1_555

#END
