
#######################################################################
#
#                 Cambridge Crystallographic Data Centre
#                                CCDC 
#
#######################################################################
#
# If this CIF has been generated from an entry in the Cambridge 
# Structural Database, then it will include bibliographic, chemical, 
# crystal, experimental, refinement or atomic coordinate data resulting 
# from the CCDC's data processing and validation procedures.
#
#######################################################################

data_RUBDIC
_symmetry_cell_setting           orthorhombic
_symmetry_space_group_name_H-M   'P 21 21 21'
_symmetry_Int_Tables_number      19
_space_group_name_Hall           'P 2ac 2ab'
loop_
_symmetry_equiv_pos_site_id
_symmetry_equiv_pos_as_xyz
1 x,y,z
2 1/2-x,-y,1/2+z
3 1/2+x,1/2-y,-z
4 -x,1/2+y,1/2-z
_cell_length_a                   9.1080(14)
_cell_length_b                   14.914(2)
_cell_length_c                   15.565(2)
_cell_angle_alpha                90
_cell_angle_beta                 90
_cell_angle_gamma                90
_cell_volume                     2114.3
loop_
_atom_site_label
_atom_site_type_symbol
_atom_site_fract_x
_atom_site_fract_y
_atom_site_fract_z
Zn1 Zn -0.00174(6) 0.10646(3) 0.24783(3)
O1 O 0.2681(4) 0.0552(3) 0.2782(2)
N1 N 0.8302(4) -0.1974(3) 0.0912(2)
N2 N -0.8124(4) 0.4315(3) 0.0749(2)
O2 O -0.1547(3) 0.1599(2) 0.1730(2)
N3 N 0.9449(4) -0.2832(2) 0.1839(2)
C1 C 0.5969(5) -0.1139(3) 0.0783(3)
O3 O -0.3055(4) 0.1616(3) 0.2847(3)
C2 C -0.5823(5) 0.3433(4) 0.0705(3)
O4 O 0.1332(3) 0.0511(2) 0.1609(2)
N4 N -0.9415(4) 0.5056(2) 0.1712(2)
C3 C 0.3688(5) -0.0176(3) 0.1569(3)
C4 C -0.3832(5) 0.2362(3) 0.1582(3)
C5 C -0.6848(5) 0.4053(3) 0.0233(3)
H1 H -0.6314 0.4587 0.0064
H2 H -0.7186 0.3758 -0.0287
C6 C -0.8124(5) 0.4972(3) 0.1341(3)
H3 H -0.7311 0.5324 0.1471
C7 C -0.2756(6) 0.1808(4) 0.2083(4)
C8 C 0.2507(6) 0.0338(3) 0.2009(4)
C9 C -0.3385(5) 0.2863(3) 0.0887(3)
H4 H -0.2413 0.2836 0.0706
C10 C 0.7137(5) -0.1667(4) 0.0338(3)
H5 H 0.6690 -0.2184 0.0065
H6 H 0.7567 -0.1299 -0.0110
C11 C 0.3531(5) -0.0504(4) 0.0760(3)
H7 H 0.2662 -0.0402 0.0461
C12 C -0.6283(5) 0.2890(4) 0.1367(4)
H8 H -0.7270 0.2875 0.1520
C13 C -0.4366(5) 0.3403(4) 0.0460(3)
H9 H -0.4046 0.3751 0.0001
C14 C -0.5288(5) 0.2373(4) 0.1801(3)
H10 H -0.5608 0.2020 0.2257
C15 C 0.4641(5) -0.0985(4) 0.0378(3)
H11 H 0.4494 -0.1215 -0.0171
C16 C 0.8245(5) -0.2736(3) 0.1368(3)
H12 H 0.7469 -0.3141 0.1356
C17 C 1.0267(6) -0.2081(3) 0.1680(3)
H13 H 1.1168 -0.1956 0.1934
C18 C 0.9588(5) -0.1546(4) 0.1106(3)
H14 H 0.9922 -0.1002 0.0888
C19 C -1.0259(5) 0.4404(4) 0.1347(4)
H15 H -1.1233 0.4293 0.1490
C20 C -0.9508(5) 0.3949(4) 0.0761(4)
H16 H -0.9849 0.3476 0.0426
C21 C 0.4989(6) -0.0314(4) 0.1972(3)
H17 H 0.5123 -0.0086 0.2522
C22 C 0.6124(6) -0.0786(5) 0.1585(4)
H18 H 0.7005 -0.0862 0.1878
Zn1C Zn -0.99826(6) 0.60646(3) 0.25217(3)
Zn1C_2 Zn 1.00174(6) -0.39354(3) 0.25217(3)
N3C N 0.0551(4) 0.2168(2) 0.3161(2)
N4C N -0.0585(4) 0.0056(2) 0.3288(2)
O5 O 0.0199(4) 0.8983(2) 0.9024(2)
loop_
_geom_bond_atom_site_label_1
_geom_bond_atom_site_label_2
_geom_bond_site_symmetry_1
_geom_bond_site_symmetry_2
Zn1 O2 1_555 1_555
O1 C8 1_555 1_555
N1 C10 1_555 1_555
N2 C5 1_555 1_555
O2 C7 1_555 1_555
N3 C16 1_555 1_555
C1 C10 1_555 1_555
O3 C7 1_555 1_555
C2 C5 1_555 1_555
O4 Zn1 1_555 1_555
N4 C6 1_555 1_555
C3 C8 1_555 1_555
C4 C7 1_555 1_555
C5 H1 1_555 1_555
H2 C5 1_555 1_555
C6 N2 1_555 1_555
H3 C6 1_555 1_555
C8 O4 1_555 1_555
C9 C4 1_555 1_555
H4 C9 1_555 1_555
C10 H5 1_555 1_555
H6 C10 1_555 1_555
C11 C3 1_555 1_555
H7 C11 1_555 1_555
C12 C2 1_555 1_555
H8 C12 1_555 1_555
C13 C2 1_555 1_555
H9 C13 1_555 1_555
C14 C4 1_555 1_555
H10 C14 1_555 1_555
C15 C1 1_555 1_555
H11 C15 1_555 1_555
C16 N1 1_555 1_555
H12 C16 1_555 1_555
C17 N3 1_555 1_555
H13 C17 1_555 1_555
C18 N1 1_555 1_555
H14 C18 1_555 1_555
C19 N4 1_555 1_555
H15 C19 1_555 1_555
C20 N2 1_555 1_555
H16 C20 1_555 1_555
C21 C3 1_555 1_555
H17 C21 1_555 1_555
C22 C1 1_555 1_555
H18 C22 1_555 1_555
Zn1C N4 1_555 1_555
Zn1C_2 N3 1_555 1_555
N3C Zn1 1_555 1_555
N4C Zn1 1_555 1_555
C9 C13 1_555 1_555
C11 C15 1_555 1_555
C12 C14 1_555 1_555
C17 C18 1_555 1_555
C19 C20 1_555 1_555
C21 C22 1_555 1_555

#END
