
#######################################################################
#
#                 Cambridge Crystallographic Data Centre
#                                CCDC 
#
#######################################################################
#
# If this CIF has been generated from an entry in the Cambridge 
# Structural Database, then it will include bibliographic, chemical, 
# crystal, experimental, refinement or atomic coordinate data resulting 
# from the CCDC's data processing and validation procedures.
#
#######################################################################

data_RUBDOI01
_symmetry_cell_setting           monoclinic
_symmetry_space_group_name_H-M   'C c'
_symmetry_Int_Tables_number      9
_space_group_name_Hall           'C -2yc'
loop_
_symmetry_equiv_pos_site_id
_symmetry_equiv_pos_as_xyz
1 x,y,z
2 x,-y,1/2+z
3 1/2+x,1/2+y,z
4 1/2+x,1/2-y,1/2+z
_cell_length_a                   13.471(2)
_cell_length_b                   17.738(3)
_cell_length_c                   8.5993(15)
_cell_angle_alpha                90
_cell_angle_beta                 96.635(3)
_cell_angle_gamma                90
_cell_volume                     2041.03
loop_
_atom_site_label
_atom_site_type_symbol
_atom_site_fract_x
_atom_site_fract_y
_atom_site_fract_z
Zn1 Zn -0.15433(5) 0.19646(3) 0.93458(7)
C1 C 0.2250(4) 0.6035(3) 0.6964(6)
H1 H 0.2698 0.5637 0.7126
C2 C 0.1522(4) 0.7076(3) 0.7186(7)
H2 H 0.1369 0.7554 0.7531
C3 C 0.0987(4) 0.6701(3) 0.6026(8)
H3 H 0.0402 0.6860 0.5436
C4 C 0.1184(4) 0.5413(3) 0.4809(6)
H4 H 0.1779 0.5153 0.4558
H5 H 0.0843 0.5615 0.3843
C5 C 0.0503(5) 0.4852(3) 0.5497(7)
C6 C -0.0372(4) 0.5067(3) 0.6026(7)
H6 H -0.0582 0.5566 0.5919
C7 C -0.0943(4) 0.4551(3) 0.6714(6)
H7 H -0.1544 0.4705 0.7048
C8 C -0.0649(4) 0.3815(3) 0.6921(6)
C9 C 0.0204(4) 0.3589(3) 0.6330(7)
H8 H 0.0395 0.3085 0.6392
C10 C 0.0791(5) 0.4113(4) 0.5633(8)
H9 H 0.1379 0.3959 0.5260
C11 C -0.1228(4) 0.3286(3) 0.7795(6)
C12 C 0.2864(5) -0.2595(3) 1.3874(7)
H10 H 0.2893 -0.2717 1.4930
N1 N 0.3031(3) -0.2641(2) 1.1343(6)
C13 C 0.2572(4) -0.2036(3) 1.1647(7)
H11 H 0.2351 -0.1678 1.0896
C14 C 0.1965(5) -0.1387(3) 1.4004(7)
H12 H 0.2479 -0.1088 1.4603
H13 H 0.1565 -0.1621 1.4738
C15 C 0.1311(5) -0.0873(4) 1.2942(8)
C16 C 0.1483(5) -0.0099(4) 1.2976(8)
H14 H 0.2040 0.0092 1.3588
C17 C 0.0850(5) 0.0378(3) 1.2133(7)
H15 H 0.0978 0.0893 1.2168
C18 C 0.0026(4) 0.0112(3) 1.1234(7)
C19 C -0.0138(4) -0.0657(4) 1.1187(8)
H16 H -0.0695 -0.0849 1.0573
C20 C 0.0508(5) -0.1139(3) 1.2031(7)
H17 H 0.0391 -0.1655 1.1976
C21 C -0.0748(5) 0.0621(4) 1.0361(8)
N2 N 0.2320(3) 0.6659(2) 0.7787(5)
N3 N 0.1477(3) 0.6036(2) 0.5888(5)
C22 C 0.3228(5) -0.2994(3) 1.2767(7)
H18 H 0.3568 -0.3448 1.2931
N4 N 0.2443(3) -0.1975(2) 1.3164(5)
O1 O -0.2035(3) 0.3467(2) 0.8182(5)
O2 O -0.0788(3) 0.2664(2) 0.8168(4)
O3 O -0.1567(5) 0.0370(3) 0.9882(6)
O4 O -0.0471(3) 0.1288(3) 1.0257(5)
Zn1B Zn 0.34567(5) -0.30354(3) 0.93458(7)
Zn1B_2 Zn 0.34567(5) 0.69646(3) 0.93458(7)
N1B N -0.1969(3) 0.2359(2) 1.1343(6)
N2B N -0.2680(3) 0.1659(2) 0.7787(5)
loop_
_geom_bond_atom_site_label_1
_geom_bond_atom_site_label_2
_geom_bond_site_symmetry_1
_geom_bond_site_symmetry_2
Zn1 O2 1_555 1_555
C1 H1 1_555 1_555
C2 H2 1_555 1_555
C3 C2 1_555 1_555
H3 C3 1_555 1_555
C4 H4 1_555 1_555
H5 C4 1_555 1_555
C5 C4 1_555 1_555
C6 C5 1_555 1_555
H6 C6 1_555 1_555
C7 C6 1_555 1_555
H7 C7 1_555 1_555
C8 C7 1_555 1_555
C9 C8 1_555 1_555
H8 C9 1_555 1_555
C10 C5 1_555 1_555
H9 C10 1_555 1_555
C11 C8 1_555 1_555
C12 H10 1_555 1_555
N1 C13 1_555 1_555
C13 H11 1_555 1_555
C14 H12 1_555 1_555
H13 C14 1_555 1_555
C15 C14 1_555 1_555
C16 C15 1_555 1_555
H14 C16 1_555 1_555
C17 C16 1_555 1_555
H15 C17 1_555 1_555
C18 C17 1_555 1_555
C19 C18 1_555 1_555
H16 C19 1_555 1_555
C20 C15 1_555 1_555
H17 C20 1_555 1_555
C21 C18 1_555 1_555
N2 C1 1_555 1_555
N3 C1 1_555 1_555
C22 C12 1_555 1_555
H18 C22 1_555 1_555
N4 C12 1_555 1_555
O1 C11 1_555 1_555
O2 C11 1_555 1_555
O3 C21 1_555 1_555
O4 Zn1 1_555 1_555
Zn1B N1 1_555 1_555
Zn1B_2 N2 1_555 1_555
N1B Zn1 1_555 1_555
N2B Zn1 1_555 1_555
C2 N2 1_555 1_555
C3 N3 1_555 1_555
C4 N3 1_555 1_555
C9 C10 1_555 1_555
N1 C22 1_555 1_555
C13 N4 1_555 1_555
C14 N4 1_555 1_555
C19 C20 1_555 1_555
C21 O4 1_555 1_555

#END
