
#######################################################################
#
#                 Cambridge Crystallographic Data Centre
#                                CCDC 
#
#######################################################################
#
# If this CIF has been generated from an entry in the Cambridge 
# Structural Database, then it will include bibliographic, chemical, 
# crystal, experimental, refinement or atomic coordinate data resulting 
# from the CCDC's data processing and validation procedures.
#
#######################################################################

data_RUBFEA
_symmetry_cell_setting           monoclinic
_symmetry_space_group_name_H-M   'C 2/c'
_symmetry_Int_Tables_number      15
_space_group_name_Hall           '-C 2yn'
loop_
_symmetry_equiv_pos_site_id
_symmetry_equiv_pos_as_xyz
1 x,y,z
2 -x,y,1/2-z
3 1/2+x,1/2+y,z
4 1/2-x,1/2+y,1/2-z
5 -x,-y,-z
6 x,-y,1/2+z
7 1/2-x,1/2-y,-z
8 1/2+x,1/2-y,1/2+z
_cell_length_a                   21.514(1)
_cell_length_b                   12.179(1)
_cell_length_c                   18.121(1)
_cell_angle_alpha                90
_cell_angle_beta                 112.951(1)
_cell_angle_gamma                90
_cell_volume                     4372.18
loop_
_atom_site_label
_atom_site_type_symbol
_atom_site_fract_x
_atom_site_fract_y
_atom_site_fract_z
Zn1 Zn 0.0000 0.99916(4) 0.2500
Zn2 Zn 0.0000 1.24895(4) 0.2500
Zn3 Zn -0.381580(17) 0.64511(3) 0.40788(2)
N1 N -0.24242(13) 0.5068(2) 0.61080(15)
O1 O -0.31840(11) 0.69410(19) 0.36288(14)
O2 O 0.02470(12) 1.36331(16) 0.33557(13)
O3 O 0.10051(11) 1.29534(19) 0.44900(14)
C1 C -0.28455(14) 0.7706(2) 0.26599(19)
O4 O 0.02486(9) 1.11644(15) 0.33446(11)
O5 O -0.39957(11) 0.7391(2) 0.24468(14)
C2 C -0.21762(15) 0.7489(3) 0.3125(2)
H1 H -0.2064 0.7044 0.3575
O6 O -0.06919(10) 0.91172(18) 0.26362(14)
C3 C 0.02670(15) 1.4333(2) 0.45714(17)
C4 C -0.14281(16) 0.3946(3) 0.62098(18)
C5 C -0.26292(15) 0.5708(2) 0.54565(18)
H2 H -0.2341 0.6055 0.5258
C6 C -0.33906(15) 0.7306(2) 0.2920(2)
C7 C -0.03320(16) 1.4891(3) 0.41878(19)
H3 H -0.0560 1.4817 0.3636
N2 N -0.32898(12) 0.5782(2) 0.51344(14)
C8 C 0.05973(16) 1.4443(3) 0.53905(19)
H4 H 0.0999 1.4068 0.5659
C9 C -0.12765(16) 0.9161(2) 0.2072(2)
C10 C -0.04080(18) 0.1929(3) 0.5148(2)
C11 C -0.17277(16) 0.4767(3) 0.6601(2)
H5 H -0.1712 0.4463 0.7103
H6 H -0.1452 0.5425 0.6725
C12 C -0.07697(17) 0.3637(3) 0.6638(2)
H7 H -0.0545 0.3896 0.7157
O7 O -0.14153(12) 0.9630(2) 0.14265(16)
C13 C -0.29853(18) 0.4723(3) 0.6208(2)
H8 H -0.3000 0.4267 0.6613
C14 C -0.18253(14) 0.8598(2) 0.22567(18)
C15 C -0.16697(15) 0.7933(3) 0.2922(2)
H9 H -0.1220 0.7781 0.3239
C16 C -0.07647(17) 0.2563(3) 0.5542(2)
N3 N -0.01392(19) 0.1476(3) 0.4815(3)
C17 C -0.35157(17) 0.5168(3) 0.5609(2)
H10 H -0.3966 0.5073 0.5531
C18 C -0.17599(18) 0.3502(3) 0.5462(2)
H11 H -0.2213 0.3667 0.5178
C19 C -0.24979(16) 0.8796(3) 0.17845(19)
H12 H -0.2611 0.9233 0.1330
C20 C -0.30016(16) 0.8350(3) 0.19844(19)
H13 H -0.3451 0.8484 0.1660
C21 C -0.14337(19) 0.2817(3) 0.5126(2)
H14 H -0.1666 0.2526 0.4618
C22 C 0.05321(16) 1.3580(2) 0.41056(19)
C23 C -0.04373(17) 0.2948(3) 0.6308(2)
H15 H 0.0008 0.2745 0.6605
Zn2B Zn -0.5000 0.74895(4) 0.2500
Zn2D Zn 0.0000 1.75105(4) 0.7500
Zn2B_2 Zn 0.5000 0.74895(4) 0.2500
Zn3A Zn 0.381580(17) 0.64511(3) 0.09212(2)
Zn3B Zn 0.118420(17) 1.14511(3) 0.40788(2)
Zn3F Zn -0.118420(17) 1.85489(3) 0.59212(2)
Zn3C Zn -0.118420(17) 1.14511(3) 0.09212(2)
N1A N 0.24242(13) 0.5068(2) -0.11080(15)
O1A O 0.31840(11) 0.69410(19) 0.13712(14)
O2D O -0.02470(12) 1.63669(16) 0.66443(13)
O2A O -0.02470(12) 1.36331(16) 0.16443(13)
O3D O -0.10051(11) 1.70466(19) 0.55100(14)
O3B O -0.39949(11) 0.79534(19) 0.44900(14)
O3C O 0.39949(11) 0.79534(19) 0.05100(14)
C1A C 0.28455(14) 0.7706(2) 0.23401(19)
O4A O -0.02486(9) 1.11644(15) 0.16554(11)
O4B O -0.47514(9) 0.61644(15) 0.33446(11)
O4C O 0.47514(9) 0.61644(15) 0.16554(11)
O5A O 0.39957(11) 0.7391(2) 0.25532(14)
O5B O 0.10043(11) 1.2391(2) 0.24468(14)
O5C O -0.10043(11) 1.2391(2) 0.25532(14)
C2A C 0.21762(15) 0.7489(3) 0.1875(2)
H1A H 0.2064 0.7044 0.1425
O6A O 0.06919(10) 0.91172(18) 0.23638(14)
C3D C -0.02670(15) 1.5667(2) 0.54286(17)
C4A C 0.14281(16) 0.3946(3) -0.12098(18)
C5A C 0.26292(15) 0.5708(2) -0.04565(18)
H2A H 0.2341 0.6055 -0.0258
C6A C 0.33906(15) 0.7306(2) 0.2080(2)
C7D C 0.03320(16) 1.5109(3) 0.58122(19)
H3D H 0.0560 1.5183 0.6364
N2A N 0.32898(12) 0.5782(2) -0.01344(14)
C8D C -0.05973(16) 1.5557(3) 0.46095(19)
H4D H -0.0999 1.5932 0.4341
C9A C 0.12765(16) 0.9161(2) 0.2928(2)
C10A C 0.04080(18) 0.1929(3) -0.0148(2)
C11A C 0.17277(16) 0.4767(3) -0.1601(2)
H5A H 0.1712 0.4463 -0.2103
H6A H 0.1452 0.5425 -0.1725
C12A C 0.07697(17) 0.3637(3) -0.1638(2)
H7A H 0.0545 0.3896 -0.2157
O7A O 0.14153(12) 0.9630(2) 0.35735(16)
C13A C 0.29853(18) 0.4723(3) -0.1208(2)
H8A H 0.3000 0.4267 -0.1613
C14A C 0.18253(14) 0.8598(2) 0.27433(18)
C15A C 0.16697(15) 0.7933(3) 0.2078(2)
H9A H 0.1220 0.7781 0.1761
C16A C 0.07647(17) 0.2563(3) -0.0542(2)
N3A N 0.01392(19) 0.1476(3) 0.0185(3)
C17A C 0.35157(17) 0.5168(3) -0.0609(2)
H10A H 0.3966 0.5073 -0.0531
C18A C 0.17599(18) 0.3502(3) -0.0462(2)
H11A H 0.2213 0.3667 -0.0178
C19A C 0.24979(16) 0.8796(3) 0.32155(19)
H12A H 0.2611 0.9233 0.3670
C20A C 0.30016(16) 0.8350(3) 0.30156(19)
H13A H 0.3451 0.8484 0.3340
C21A C 0.14337(19) 0.2817(3) -0.0126(2)
H14A H 0.1666 0.2526 0.0382
C22D C -0.05321(16) 1.6420(2) 0.58944(19)
C23A C 0.04373(17) 0.2948(3) -0.1308(2)
H15A H -0.0008 0.2745 -0.1605
loop_
_geom_bond_atom_site_label_1
_geom_bond_atom_site_label_2
_geom_bond_site_symmetry_1
_geom_bond_site_symmetry_2
Zn1 O4 1_555 1_555
Zn2 O2 1_555 1_555
Zn3 O1 1_555 1_555
N1 C5 1_555 1_555
O1 C6 1_555 1_555
O2 C22 1_555 1_555
O3 C22 1_555 1_555
C1 C2 1_555 1_555
O4 Zn2 1_555 1_555
O5 C6 1_555 1_555
C2 H1 1_555 1_555
O6 Zn1 1_555 1_555
C3 C7 1_555 1_555
C4 C11 1_555 1_555
C5 H2 1_555 1_555
C6 C1 1_555 1_555
C7 H3 1_555 1_555
N2 Zn3 1_555 1_555
C8 C3 1_555 1_555
H4 C8 1_555 1_555
C9 O6 1_555 1_555
C10 C16 1_555 1_555
C11 N1 1_555 1_555
H5 C11 1_555 1_555
H6 C11 1_555 1_555
C12 C4 1_555 1_555
H7 C12 1_555 1_555
O7 C9 1_555 1_555
C13 N1 1_555 1_555
H8 C13 1_555 1_555
C14 C9 1_555 1_555
C15 C2 1_555 1_555
H9 C15 1_555 1_555
C16 C21 1_555 1_555
N3 C10 1_555 1_555
C17 N2 1_555 1_555
H10 C17 1_555 1_555
C18 C4 1_555 1_555
H11 C18 1_555 1_555
C19 C14 1_555 1_555
H12 C19 1_555 1_555
C20 C1 1_555 1_555
H13 C20 1_555 1_555
C21 C18 1_555 1_555
H14 C21 1_555 1_555
C22 C3 1_555 1_555
C23 C12 1_555 1_555
H15 C23 1_555 1_555
Zn2B O5 1_555 1_555
Zn2D O2D 1_555 1_555
Zn2B_2 O4C 1_555 1_555
Zn3A O1A 1_555 1_555
Zn3B O3 1_555 1_555
Zn3F O3D 1_555 1_555
Zn3C O4A 1_555 1_555
N1A C5A 1_555 1_555
O1A C6A 1_555 1_555
O2D C22D 1_555 1_555
O2A Zn2 1_555 1_555
O3D C22D 1_555 1_555
O3B Zn3 1_555 1_555
O3C Zn3A 1_555 1_555
C1A C2A 1_555 1_555
O4A Zn1 1_555 1_555
O4B Zn3 1_555 1_555
O4C Zn3A 1_555 1_555
O5A Zn2B_2 1_555 1_555
O5B Zn2 1_555 1_555
O5C Zn2 1_555 1_555
C2A H1A 1_555 1_555
O6A Zn1 1_555 1_555
C3D C7D 1_555 1_555
C4A C11A 1_555 1_555
C5A H2A 1_555 1_555
C6A C1A 1_555 1_555
C7D C8 1_555 1_555
H3D C7D 1_555 1_555
N2A Zn3A 1_555 1_555
C8D C7 1_555 1_555
H4D C8D 1_555 1_555
C9A O6A 1_555 1_555
C10A C16A 1_555 1_555
C11A N1A 1_555 1_555
H5A C11A 1_555 1_555
H6A C11A 1_555 1_555
C12A C4A 1_555 1_555
H7A C12A 1_555 1_555
O7A C9A 1_555 1_555
C13A N1A 1_555 1_555
H8A C13A 1_555 1_555
C14A C9A 1_555 1_555
C15A C2A 1_555 1_555
H9A C15A 1_555 1_555
C16A C21A 1_555 1_555
N3A C10A 1_555 1_555
C17A N2A 1_555 1_555
H10A C17A 1_555 1_555
C18A C4A 1_555 1_555
H11A C18A 1_555 1_555
C19A C14A 1_555 1_555
H12A C19A 1_555 1_555
C20A C1A 1_555 1_555
H13A C20A 1_555 1_555
C21A C18A 1_555 1_555
H14A C21A 1_555 1_555
C22D C3D 1_555 1_555
C23A C12A 1_555 1_555
H15A C23A 1_555 1_555
Zn2 O4A 1_555 1_555
O4 Zn3B 1_555 1_555
C5 N2 1_555 1_555
C13 C17 1_555 1_555
C14 C15 1_555 1_555
C16 C23 1_555 1_555
C19 C20 1_555 1_555
Zn2B O4B 1_555 1_555
O5A C6A 1_555 1_555
C3D C8D 1_555 1_555
C5A N2A 1_555 1_555
C13A C17A 1_555 1_555
C14A C15A 1_555 1_555
C16A C23A 1_555 1_555
C19A C20A 1_555 1_555

#END
