
#######################################################################
#
#                 Cambridge Crystallographic Data Centre
#                                CCDC 
#
#######################################################################
#
# If this CIF has been generated from an entry in the Cambridge 
# Structural Database, then it will include bibliographic, chemical, 
# crystal, experimental, refinement or atomic coordinate data resulting 
# from the CCDC's data processing and validation procedures.
#
#######################################################################

data_RUBFIE
_symmetry_cell_setting           monoclinic
_symmetry_space_group_name_H-M   'P 2/c'
_symmetry_Int_Tables_number      13
_space_group_name_Hall           '-P 2yc'
loop_
_symmetry_equiv_pos_site_id
_symmetry_equiv_pos_as_xyz
1 x,y,z
2 -x,y,1/2-z
3 -x,-y,-z
4 x,-y,1/2+z
_cell_length_a                   17.9541(12)
_cell_length_b                   13.9368(10)
_cell_length_c                   18.8195(13)
_cell_angle_alpha                90
_cell_angle_beta                 104.3730(10)
_cell_angle_gamma                90
_cell_volume                     4561.67
loop_
_atom_site_label
_atom_site_type_symbol
_atom_site_fract_x
_atom_site_fract_y
_atom_site_fract_z
Cu1 Cu 0.24408(3) 0.55870(4) 0.48669(3)
C2 C 0.2783(2) 0.3608(3) 0.4987(2)
C5 C 0.3974(2) 0.2764(3) 0.5301(2)
H2 H 0.4258 0.2199 0.5356
C8 C 0.3916(2) 0.4458(3) 0.5343(2)
H4 H 0.4175 0.5040 0.5437
C9 C 0.1952(2) 0.3645(3) 0.4760(2)
C10 C 0.0876(2) 0.4605(3) 0.4513(2)
H5 H 0.0654 0.5212 0.4476
C13 C 0.4194(2) 0.8245(3) 0.4139(2)
H6 H 0.4059 0.7986 0.3669
C14 C 0.2731(2) 0.1852(3) 0.4902(2)
C15 C 0.1603(2) 0.6954(3) 0.5259(3)
C16 C 0.0227(2) 0.9544(3) 0.5038(2)
C17 C 0.1518(2) 0.2811(3) 0.4597(2)
C20 C 0.3166(2) 0.2732(3) 0.5068(2)
C25 C 0.4220(2) 0.8156(3) 0.5399(2)
H9 H 0.4100 0.7843 0.5793
C29 C 0.0712(2) 0.2909(3) 0.4393(2)
H13 H 0.0397 0.2372 0.4288
C32 C 0.1916(2) 0.1893(3) 0.4659(2)
C33 C 0.2681(3) 0.0235(3) 0.4827(3)
H15 H 0.2920 -0.0361 0.4886
C34 C 0.0585(2) 0.8064(3) 0.4535(2)
H16 H 0.0521 0.7648 0.4138
C35 C 0.1113(2) 0.7850(3) 0.5179(2)
C38 C 0.4006(2) 0.7757(3) 0.4708(2)
C40 C 0.4796(2) 0.9531(3) 0.4944(2)
C48 C 0.0402(2) 0.3811(3) 0.4353(2)
H23 H -0.0129 0.3889 0.4218
C49 C 0.4614(3) 0.9019(3) 0.5514(2)
H24 H 0.4762 0.9265 0.5987
C50 C 0.0759(2) 0.9308(3) 0.5688(2)
H25 H 0.0830 0.9724 0.6085
C51 C 0.4335(2) 0.3616(3) 0.5444(2)
H26 H 0.4868 0.3637 0.5611
C52 C 0.0145(2) 0.8895(3) 0.4470(2)
H27 H -0.0215 0.9018 0.4031
C53 C 0.3584(2) 0.6817(3) 0.4560(3)
C54 C 0.4581(2) 0.9108(3) 0.4254(2)
H28 H 0.4701 0.9417 0.3859
C55 C 0.1890(3) 0.0277(3) 0.4565(3)
H29 H 0.1623 -0.0296 0.4444
C56 C 0.1185(2) 0.8474(3) 0.5759(2)
H30 H 0.1526 0.8331 0.6206
N5 N 0.3103(2) 0.1008(2) 0.49944(19)
N6 N 0.1494(2) 0.1086(3) 0.4477(2)
N7 N 0.31535(18) 0.4464(2) 0.51170(18)
N8 N 0.16394(17) 0.4531(2) 0.47188(18)
O4 O 0.2381(2) 0.5239(3) 0.3598(2)
O5 O 0.3557(2) 0.6396(3) 0.39751(19)
O8 O 0.32676(16) 0.6534(2) 0.50525(18)
O9 O 0.16824(16) 0.6594(2) 0.46557(17)
O10 O 0.1900(2) 0.6627(2) 0.58674(18)
Cu1B Cu 0.75592(3) 1.44130(4) 0.51331(3)
Cu1B_2 Cu -0.24408(3) 1.44130(4) 0.51331(3)
C2B C 0.7217(2) 1.6392(3) 0.5013(2)
C5B C 0.6026(2) 1.7236(3) 0.4699(2)
H2B H 0.5742 1.7801 0.4644
C8B C 0.6084(2) 1.5542(3) 0.4657(2)
H4B H 0.5825 1.4960 0.4563
C9B C 0.8048(2) 1.6355(3) 0.5240(2)
C10B C 0.9124(2) 1.5395(3) 0.5487(2)
H5B H 0.9346 1.4788 0.5524
C13B C 0.5806(2) 1.1755(3) 0.5861(2)
H6B H 0.5941 1.2014 0.6331
C14B C 0.7269(2) 1.8148(3) 0.5098(2)
C15B C -0.1603(2) 1.3046(3) 0.4741(3)
C16B C -0.0227(2) 1.0456(3) 0.4962(2)
C17B C 0.8482(2) 1.7189(3) 0.5403(2)
C20B C 0.6834(2) 1.7268(3) 0.4932(2)
C25B C 0.5780(2) 1.1844(3) 0.4601(2)
H9B H 0.5900 1.2157 0.4207
C29B C 0.9288(2) 1.7091(3) 0.5607(2)
H13B H 0.9603 1.7628 0.5712
C32B C 0.8084(2) 1.8107(3) 0.5341(2)
C33B C 0.7319(3) 1.9765(3) 0.5173(3)
H15B H 0.7080 2.0361 0.5114
C34B C -0.0585(2) 1.1936(3) 0.5465(2)
H16B H -0.0521 1.2352 0.5862
C35B C -0.1113(2) 1.2150(3) 0.4821(2)
C38B C 0.5994(2) 1.2243(3) 0.5292(2)
C40B C 0.5204(2) 1.0469(3) 0.5056(2)
C48B C 0.9598(2) 1.6189(3) 0.5647(2)
H23B H 1.0129 1.6111 0.5782
C49B C 0.5386(3) 1.0981(3) 0.4486(2)
H24B H 0.5238 1.0735 0.4013
C50B C -0.0759(2) 1.0692(3) 0.4312(2)
H25B H -0.0830 1.0276 0.3915
C51B C 0.5665(2) 1.6384(3) 0.4556(2)
H26B H 0.5132 1.6363 0.4389
C52B C -0.0145(2) 1.1105(3) 0.5530(2)
H27B H 0.0215 1.0982 0.5969
C53B C 0.6416(2) 1.3183(3) 0.5440(3)
C54B C 0.5419(2) 1.0892(3) 0.5746(2)
H28B H 0.5299 1.0583 0.6141
C55B C 0.8110(3) 1.9723(3) 0.5435(3)
H29B H 0.8377 2.0296 0.5556
C56B C -0.1185(2) 1.1526(3) 0.4241(2)
H30B H -0.1526 1.1669 0.3794
N5B N 0.6897(2) 1.8992(2) 0.50056(19)
N6B N 0.8506(2) 1.8914(3) 0.5523(2)
N7B N 0.68465(18) 1.5536(2) 0.48830(18)
N8B N 0.83606(17) 1.5469(2) 0.52812(18)
O4B O 0.7619(2) 1.4761(3) 0.6402(2)
O5B O 0.6443(2) 1.3604(3) 0.60249(19)
O8B O 0.67324(16) 1.3466(2) 0.49475(18)
O9B O -0.16824(16) 1.3406(2) 0.53443(17)
O9B_2 O 0.83176(16) 1.3406(2) 0.53443(17)
O10B O -0.1900(2) 1.3373(2) 0.41326(18)
Cu2 Cu 0.5000 -0.34603(5) 0.7500
Cu3 Cu 0.0000 0.53154(5) 0.7500
C1 C 0.2144(2) 0.1891(3) 0.7911(2)
H1 H 0.2388 0.1674 0.8378
C3 C 0.2231(2) 0.1373(3) 0.7305(2)
C4 C 0.4589(2) -0.5410(3) 0.7351(2)
C6 C 0.3375(2) -0.6205(3) 0.6972(2)
H3 H 0.3076 -0.6758 0.6906
C7 C 0.2675(2) 0.0462(3) 0.7392(2)
C11 C 0.0412(2) 0.7287(3) 0.7551(2)
C12 C 0.4596(2) -0.7166(3) 0.7362(2)
C18 C 0.3511(2) -0.1275(3) 0.7574(2)
C19 C 0.1343(2) 0.3071(3) 0.7152(2)
C21 C 0.4176(2) -0.6263(3) 0.7224(2)
C22 C 0.2989(2) 0.0075(3) 0.8080(2)
H7 H 0.2920 0.0397 0.8493
C23 C 0.3398(2) -0.0772(3) 0.8173(2)
H8 H 0.3601 -0.1009 0.8643
C24 C 0.0857(2) 0.3969(3) 0.7063(3)
C26 C 0.1864(2) 0.1740(3) 0.6620(2)
H10 H 0.1913 0.1418 0.6202
C27 C 0.3500(2) -0.4506(3) 0.6940(2)
H11 H 0.3266 -0.3912 0.6820
C28 C 0.1507(2) 0.6381(3) 0.7673(3)
H12 H 0.1744 0.5785 0.7681
C30 C 0.0404(2) 0.9040(3) 0.7566(2)
C31 C 0.1707(2) 0.2719(3) 0.7840(2)
H14 H 0.1657 0.3042 0.8258
C36 C 0.3963(2) -0.2192(3) 0.7693(3)
C37 C 0.3208(3) -0.0899(3) 0.6890(2)
H17 H 0.3287 -0.1218 0.6480
C39 C 0.1427(2) 0.2570(3) 0.6542(2)
H18 H 0.1188 0.2793 0.6075
C41 C 0.4602(3) -0.8779(3) 0.7354(3)
C42 C 0.3043(2) -0.5325(3) 0.6827(2)
H19 H 0.2513 -0.5272 0.6654
C43 C 0.0815(2) 0.8141(3) 0.7615(2)
C44 C 0.1621(2) 0.8074(3) 0.7734(2)
H20 H 0.1920 0.8628 0.7792
C45 C 0.2787(3) -0.0055(3) 0.6795(2)
H21 H 0.2576 0.0171 0.6323
C46 C 0.0402(3) 1.0664(3) 0.7567(3)
C47 C 0.1960(2) 0.7200(3) 0.7763(3)
H22 H 0.2491 0.7151 0.7842
N1 N 0.0809(2) 0.9873(2) 0.7634(2)
N2 N 0.4199(2) -0.7996(3) 0.7213(2)
N3 N 0.07490(18) 0.6414(2) 0.75749(19)
N4 N 0.42512(18) -0.4538(2) 0.72087(18)
O1 O 0.0538(2) 0.4269(2) 0.64523(19)
O3 O 0.08052(16) 0.4363(2) 0.76648(18)
O6 O 0.40464(19) -0.2622(2) 0.82807(19)
O7 O 0.42349(16) -0.2474(2) 0.71691(17)
H31 H 0.070(3) 1.125(3) 0.765(3)
H32 H 0.438(3) -0.942(3) 0.726(3)
Cu3_2 Cu 1.0000 0.53154(5) 0.7500
C1A C 0.7856(2) 0.1891(3) 0.7089(2)
H1A H 0.7612 0.1674 0.6622
C3A C 0.7769(2) 0.1373(3) 0.7695(2)
C4A C 0.5411(2) -0.5410(3) 0.7649(2)
C6A C 0.6625(2) -0.6205(3) 0.8028(2)
H3A H 0.6924 -0.6758 0.8094
C7A C 0.7325(2) 0.0462(3) 0.7608(2)
C11A C -0.0412(2) 0.7287(3) 0.7449(2)
C12A C 0.5404(2) -0.7166(3) 0.7638(2)
C18A C 0.6489(2) -0.1275(3) 0.7426(2)
C19A C 0.8657(2) 0.3071(3) 0.7848(2)
C21A C 0.5824(2) -0.6263(3) 0.7776(2)
C22A C 0.7011(2) 0.0075(3) 0.6920(2)
H7A H 0.7080 0.0397 0.6507
C23A C 0.6602(2) -0.0772(3) 0.6827(2)
H8A H 0.6399 -0.1009 0.6357
C24A C 0.9143(2) 0.3969(3) 0.7937(3)
C26A C 0.8136(2) 0.1740(3) 0.8380(2)
H10A H 0.8087 0.1418 0.8798
C27A C 0.6500(2) -0.4506(3) 0.8060(2)
H11A H 0.6734 -0.3912 0.8180
C28A C -0.1507(2) 0.6381(3) 0.7327(3)
H12A H -0.1744 0.5785 0.7319
C30A C -0.0404(2) 0.9040(3) 0.7434(2)
C31A C 0.8293(2) 0.2719(3) 0.7160(2)
H14A H 0.8343 0.3042 0.6742
C36A C 0.6037(2) -0.2192(3) 0.7307(3)
C37A C 0.6792(3) -0.0899(3) 0.8110(2)
H17A H 0.6713 -0.1218 0.8520
C39A C 0.8573(2) 0.2570(3) 0.8458(2)
H18A H 0.8812 0.2793 0.8925
C41A C 0.5398(3) -0.8779(3) 0.7646(3)
C42A C 0.6957(2) -0.5325(3) 0.8173(2)
H19A H 0.7487 -0.5272 0.8346
C43A C -0.0815(2) 0.8141(3) 0.7385(2)
C44A C -0.1621(2) 0.8074(3) 0.7266(2)
H20A H -0.1920 0.8628 0.7208
C45A C 0.7213(3) -0.0055(3) 0.8205(2)
H21A H 0.7424 0.0171 0.8677
C46A C -0.0402(3) 1.0664(3) 0.7433(3)
C47A C -0.1960(2) 0.7200(3) 0.7237(3)
H22A H -0.2491 0.7151 0.7158
N1A N -0.0809(2) 0.9873(2) 0.7366(2)
N2A N 0.5801(2) -0.7996(3) 0.7787(2)
N3A N -0.07490(18) 0.6414(2) 0.74251(19)
N4A N 0.57488(18) -0.4538(2) 0.77913(18)
O1A O 0.9462(2) 0.4269(2) 0.85477(19)
O3A O 0.91948(16) 0.4363(2) 0.73352(18)
O3A_2 O -0.08052(16) 0.4363(2) 0.73352(18)
O6A O 0.59536(19) -0.2622(2) 0.67193(19)
O7A O 0.57651(16) -0.2474(2) 0.78309(17)
H31A H -0.070(3) 1.125(3) 0.735(3)
H32A H 0.562(3) -0.942(3) 0.774(3)
O2 O 0.4508(3) -0.4472(4) 0.8882(2)
loop_
_geom_bond_atom_site_label_1
_geom_bond_atom_site_label_2
_geom_bond_site_symmetry_1
_geom_bond_site_symmetry_2
Cu1 N7 1_555 1_555
Cu2 N4 1_555 1_555
Cu3 N3 1_555 1_555
C1 H1 1_555 1_555
C2 C9 1_555 1_555
C3 C1 1_555 1_555
C4 C21 1_555 1_555
C5 H2 1_555 1_555
C6 H3 1_555 1_555
C7 C3 1_555 1_555
C8 H4 1_555 1_555
C9 C17 1_555 1_555
C10 H5 1_555 1_555
C11 C43 1_555 1_555
C12 C21 1_555 1_555
C13 H6 1_555 1_555
C14 C20 1_555 1_555
C15 C35 1_555 1_555
C16 C50 1_555 1_555
C17 C29 1_555 1_555
C18 C23 1_555 1_555
C19 C24 1_555 1_555
C20 C2 1_555 1_555
C21 C6 1_555 1_555
C22 C7 1_555 1_555
H7 C22 1_555 1_555
C23 C22 1_555 1_555
H8 C23 1_555 1_555
C24 O1 1_555 1_555
C25 H9 1_555 1_555
C26 C3 1_555 1_555
H10 C26 1_555 1_555
C27 H11 1_555 1_555
C28 H12 1_555 1_555
C29 H13 1_555 1_555
C30 C43 1_555 1_555
C31 C1 1_555 1_555
H14 C31 1_555 1_555
C32 C14 1_555 1_555
C33 H15 1_555 1_555
C34 H16 1_555 1_555
C35 C34 1_555 1_555
C36 C18 1_555 1_555
C37 C18 1_555 1_555
H17 C37 1_555 1_555
C38 C13 1_555 1_555
C39 C19 1_555 1_555
H18 C39 1_555 1_555
C40 C49 1_555 1_555
C41 N2 1_555 1_555
C42 C6 1_555 1_555
H19 C42 1_555 1_555
C43 C44 1_555 1_555
C44 H20 1_555 1_555
C45 C7 1_555 1_555
H21 C45 1_555 1_555
C46 N1 1_555 1_555
C47 C28 1_555 1_555
H22 C47 1_555 1_555
C48 C10 1_555 1_555
H23 C48 1_555 1_555
C49 C25 1_555 1_555
H24 C49 1_555 1_555
C50 H25 1_555 1_555
C51 C5 1_555 1_555
H26 C51 1_555 1_555
C52 C16 1_555 1_555
H27 C52 1_555 1_555
C53 C38 1_555 1_555
C54 C13 1_555 1_555
H28 C54 1_555 1_555
C55 C33 1_555 1_555
H29 C55 1_555 1_555
C56 C35 1_555 1_555
H30 C56 1_555 1_555
N1 C30 1_555 1_555
N2 C12 1_555 1_555
N3 C11 1_555 1_555
N4 C4 1_555 1_555
N5 C14 1_555 1_555
N6 C32 1_555 1_555
N7 C2 1_555 1_555
N8 Cu1 1_555 1_555
O3 Cu3 1_555 1_555
O4 Cu1 1_555 1_555
O5 C53 1_555 1_555
O6 C36 1_555 1_555
O7 Cu2 1_555 1_555
O8 Cu1 1_555 1_555
O9 Cu1 1_555 1_555
O10 C15 1_555 1_555
H31 C46 1_555 1_555
H32 C41 1_555 1_555
Cu1B N7B 1_555 1_555
Cu1B_2 O9B 1_555 1_555
Cu3_2 O3A 1_555 1_555
C1A H1A 1_555 1_555
C2B C9B 1_555 1_555
C3A C1A 1_555 1_555
C4A C4 1_555 1_555
C5B H2B 1_555 1_555
C6A H3A 1_555 1_555
C7A C3A 1_555 1_555
C8B H4B 1_555 1_555
C9B C17B 1_555 1_555
C10B H5B 1_555 1_555
C11A C11 1_555 1_555
C12A C12 1_555 1_555
C13B H6B 1_555 1_555
C14B C20B 1_555 1_555
C15B C35B 1_555 1_555
C16B C16 1_555 1_555
C17B C29B 1_555 1_555
C18A C23A 1_555 1_555
C19A C24A 1_555 1_555
C20B C2B 1_555 1_555
C21A C4A 1_555 1_555
C22A C7A 1_555 1_555
H7A C22A 1_555 1_555
C23A C22A 1_555 1_555
H8A C23A 1_555 1_555
C24A O1A 1_555 1_555
C25B H9B 1_555 1_555
C26A C3A 1_555 1_555
H10A C26A 1_555 1_555
C27A H11A 1_555 1_555
C28A H12A 1_555 1_555
C29B H13B 1_555 1_555
C30A C30 1_555 1_555
C31A C1A 1_555 1_555
H14A C31A 1_555 1_555
C32B C14B 1_555 1_555
C33B H15B 1_555 1_555
C34B H16B 1_555 1_555
C35B C34B 1_555 1_555
C36A C18A 1_555 1_555
C37A C18A 1_555 1_555
H17A C37A 1_555 1_555
C38B C13B 1_555 1_555
C39A C19A 1_555 1_555
H18A C39A 1_555 1_555
C40B C40 1_555 1_555
C41A C41 1_555 1_555
C42A C6A 1_555 1_555
H19A C42A 1_555 1_555
C43A C11A 1_555 1_555
C44A C43A 1_555 1_555
H20A C44A 1_555 1_555
C45A C7A 1_555 1_555
H21A C45A 1_555 1_555
C46A C46 1_555 1_555
C47A C28A 1_555 1_555
H22A C47A 1_555 1_555
C48B C10B 1_555 1_555
H23B C48B 1_555 1_555
C49B C25B 1_555 1_555
H24B C49B 1_555 1_555
C50B C16B 1_555 1_555
H25B C50B 1_555 1_555
C51B C5B 1_555 1_555
H26B C51B 1_555 1_555
C52B C16B 1_555 1_555
H27B C52B 1_555 1_555
C53B C38B 1_555 1_555
C54B C13B 1_555 1_555
H28B C54B 1_555 1_555
C55B C33B 1_555 1_555
H29B C55B 1_555 1_555
C56B C35B 1_555 1_555
H30B C56B 1_555 1_555
N1A C30A 1_555 1_555
N2A C12A 1_555 1_555
N3A Cu3 1_555 1_555
N4A Cu2 1_555 1_555
N5B C14B 1_555 1_555
N6B C32B 1_555 1_555
N7B C2B 1_555 1_555
N8B Cu1B 1_555 1_555
O3A C24A 1_555 1_555
O3A_2 Cu3 1_555 1_555
O4B Cu1B 1_555 1_555
O5B C53B 1_555 1_555
O6A C36A 1_555 1_555
O7A Cu2 1_555 1_555
O8B Cu1B 1_555 1_555
O9B C15B 1_555 1_555
O9B_2 Cu1B 1_555 1_555
O10B C15B 1_555 1_555
H31A C46A 1_555 1_555
H32A C41A 1_555 1_555
C5 C20 1_555 1_555
C8 C51 1_555 1_555
C8 N7 1_555 1_555
C9 N8 1_555 1_555
C10 N8 1_555 1_555
C15 O9 1_555 1_555
C17 C32 1_555 1_555
C19 C31 1_555 1_555
C24 O3 1_555 1_555
C25 C38 1_555 1_555
C26 C39 1_555 1_555
C27 C42 1_555 1_555
C27 N4 1_555 1_555
C28 N3 1_555 1_555
C29 C48 1_555 1_555
C33 N5 1_555 1_555
C34 C52 1_555 1_555
C36 O7 1_555 1_555
C37 C45 1_555 1_555
C40 C54 1_555 1_555
C44 C47 1_555 1_555
C50 C56 1_555 1_555
C53 O8 1_555 1_555
C55 N6 1_555 1_555
C4A N4A 1_555 1_555
C5B C20B 1_555 1_555
C6A C21A 1_555 1_555
C8B C51B 1_555 1_555
C8B N7B 1_555 1_555
C9B N8B 1_555 1_555
C10B N8B 1_555 1_555
C11A N3A 1_555 1_555
C12A C21A 1_555 1_555
C17B C32B 1_555 1_555
C19A C31A 1_555 1_555
C25B C38B 1_555 1_555
C26A C39A 1_555 1_555
C27A C42A 1_555 1_555
C27A N4A 1_555 1_555
C28A N3A 1_555 1_555
C29B C48B 1_555 1_555
C30A C43A 1_555 1_555
C33B N5B 1_555 1_555
C34B C52B 1_555 1_555
C36A O7A 1_555 1_555
C37A C45A 1_555 1_555
C40B C49B 1_555 1_555
C40B C54B 1_555 1_555
C41A N2A 1_555 1_555
C44A C47A 1_555 1_555
C46A N1A 1_555 1_555
C50B C56B 1_555 1_555
C53B O8B 1_555 1_555
C55B N6B 1_555 1_555

#END
