
#######################################################################
#
#                 Cambridge Crystallographic Data Centre
#                                CCDC 
#
#######################################################################
#
# If this CIF has been generated from an entry in the Cambridge 
# Structural Database, then it will include bibliographic, chemical, 
# crystal, experimental, refinement or atomic coordinate data resulting 
# from the CCDC's data processing and validation procedures.
#
#######################################################################

data_RUBFUQ
_symmetry_cell_setting           triclinic
_symmetry_space_group_name_H-M   'P -1'
_symmetry_Int_Tables_number      2
_space_group_name_Hall           '-P 1'
loop_
_symmetry_equiv_pos_site_id
_symmetry_equiv_pos_as_xyz
1 x,y,z
2 -x,-y,-z
_cell_length_a                   5.1737(14)
_cell_length_b                   10.211(3)
_cell_length_c                   11.361(3)
_cell_angle_alpha                66.690(4)
_cell_angle_beta                 84.182(4)
_cell_angle_gamma                88.035(5)
_cell_volume                     548.347
loop_
_atom_site_label
_atom_site_type_symbol
_atom_site_fract_x
_atom_site_fract_y
_atom_site_fract_z
Zn1 Zn -0.26077(9) 0.84404(5) -0.02269(4)
S1 S 0.2613(3) 0.60434(14) 0.55151(11)
P1 P 0.2077(2) 0.81146(12) 0.13708(9)
N1 N -0.1199(8) 0.7551(4) 0.8515(3)
O1 O -0.0724(6) 0.7862(4) 0.1257(3)
O2 O 0.2511(8) 0.9576(3) 0.1372(3)
O3 O 0.3859(6) 0.7815(4) 0.0367(3)
C1 C 0.2856(9) 0.6876(5) 0.2931(4)
H1 H 0.2444 0.5916 0.3030
H2 H 0.4708 0.6922 0.2985
C2 C 0.1382(9) 0.7183(5) 0.4022(4)
H3 H -0.0459 0.7004 0.4056
H4 H 0.1613 0.8175 0.3878
C3 C 0.1010(9) 0.6643(5) 0.6641(4)
C4 C 0.1882(10) 0.6123(5) 0.7860(4)
H5 H 0.3212 0.5457 0.8066
C5 C 0.0751(10) 0.6606(5) 0.8750(4)
H6 H 0.1362 0.6263 0.9559
C6 C -0.2057(10) 0.7997(6) 0.7355(5)
H7 H -0.3456 0.8619 0.7187
C7 C -0.1017(10) 0.7600(6) 0.6397(5)
H8 H -0.1659 0.7966 0.5595
Zn1_2 Zn -0.26077(9) 0.84404(5) 0.97731(4)
Zn1A Zn 0.26077(9) 1.15596(5) 0.02269(4)
Zn1_3 Zn 0.73923(9) 0.84404(5) -0.02269(4)
N1_2 N -0.1199(8) 0.7551(4) -0.1485(3)
O2A O -0.2511(8) 1.0424(3) -0.1372(3)
O3_2 O -0.6141(6) 0.7815(4) 0.0367(3)
O4 O 0.6889(11) 0.9705(6) 0.2909(6)
H9 H 0.5658 0.9671 0.2480
H10 H 0.8302 0.9470 0.2595
loop_
_geom_bond_atom_site_label_1
_geom_bond_atom_site_label_2
_geom_bond_site_symmetry_1
_geom_bond_site_symmetry_2
Zn1 O1 1_555 1_555
S1 C2 1_555 1_555
P1 O1 1_555 1_555
N1 C5 1_555 1_555
O2 P1 1_555 1_555
O3 P1 1_555 1_555
C1 P1 1_555 1_555
H1 C1 1_555 1_555
H2 C1 1_555 1_555
C2 C1 1_555 1_555
H3 C2 1_555 1_555
H4 C2 1_555 1_555
C3 S1 1_555 1_555
C4 C3 1_555 1_555
H5 C4 1_555 1_555
C5 C4 1_555 1_555
H6 C5 1_555 1_555
C6 N1 1_555 1_555
H7 C6 1_555 1_555
C7 C3 1_555 1_555
H8 C7 1_555 1_555
O4 H9 1_555 1_555
H10 O4 1_555 1_555
Zn1_2 N1 1_555 1_555
Zn1A O2 1_555 1_555
Zn1_3 O3 1_555 1_555
N1_2 Zn1 1_555 1_555
O2A Zn1 1_555 1_555
O3_2 Zn1 1_555 1_555
C6 C7 1_555 1_555

#END
