
#######################################################################
#
#                 Cambridge Crystallographic Data Centre
#                                CCDC 
#
#######################################################################
#
# If this CIF has been generated from an entry in the Cambridge 
# Structural Database, then it will include bibliographic, chemical, 
# crystal, experimental, refinement or atomic coordinate data resulting 
# from the CCDC's data processing and validation procedures.
#
#######################################################################

data_RUBGOL
_symmetry_cell_setting           rhombohedral
_symmetry_space_group_name_H-M   'R -3'
_symmetry_Int_Tables_number      148
_space_group_name_Hall           '-R 3'
loop_
_symmetry_equiv_pos_site_id
_symmetry_equiv_pos_as_xyz
1 x,y,z
2 -y,x-y,z
3 -x+y,-x,z
4 2/3+x,1/3+y,1/3+z
5 2/3-y,1/3+x-y,1/3+z
6 2/3-x+y,1/3-x,1/3+z
7 1/3+x,2/3+y,2/3+z
8 1/3-y,2/3+x-y,2/3+z
9 1/3-x+y,2/3-x,2/3+z
10 -x,-y,-z
11 y,-x+y,-z
12 x-y,x,-z
13 1/3-x,2/3-y,2/3-z
14 1/3+y,2/3-x+y,2/3-z
15 1/3+x-y,2/3+x,2/3-z
16 2/3-x,1/3-y,1/3-z
17 2/3+y,1/3-x+y,1/3-z
18 2/3+x-y,1/3+x,1/3-z
_cell_length_a                   11.6582(16)
_cell_length_b                   11.6582(16)
_cell_length_c                   26.101(5)
_cell_angle_alpha                90
_cell_angle_beta                 90
_cell_angle_gamma                120
_cell_volume                     3072.21
loop_
_atom_site_label
_atom_site_type_symbol
_atom_site_fract_x
_atom_site_fract_y
_atom_site_fract_z
W1 W 0.16777(3) 0.66068(3) 0.218180(12)
O1 O 0.0718(6) 0.5281(5) 0.1665(2)
O2 O 0.3281(5) 0.7938(6) 0.2497(2)
O3 O 0.0454(6) 0.6566(7) 0.2548(3)
O4 O 0.3333 0.6667 0.1667
W1P W 0.32735(3) 0.82624(4) 0.115153(12)
W1Q W 0.17376(4) 0.50110(3) 0.115153(12)
W1A W 0.33932(3) 0.50709(4) 0.218180(12)
W1B W 0.49291(4) 0.83223(3) 0.218180(12)
W1O W 0.49890(3) 0.67265(3) 0.115153(12)
O1P O 0.1948(5) 0.7896(8) 0.1668(2)
O1B O 0.4563(8) 0.9282(6) 0.1665(2)
O1Q O 0.2104(8) 0.4051(6) 0.1668(2)
O1A O 0.4719(5) 0.5437(8) 0.1665(2)
O1O O 0.5949(6) 0.8052(5) 0.1668(2)
O2A O 0.2062(6) 0.5343(8) 0.2497(2)
O2P O 0.4605(6) 0.7990(8) 0.0836(2)
O2Q O 0.2010(8) 0.6614(5) 0.0836(2)
O2O O 0.3386(5) 0.5395(6) 0.0836(2)
O2B O 0.4657(8) 0.6719(5) 0.2497(2)
O3P O 0.3233(7) 0.9445(9) 0.0785(3)
O3Q O 0.0555(9) 0.3787(6) 0.0785(3)
O3A O 0.3434(7) 0.3888(9) 0.2548(3)
O3B O 0.6112(9) 0.9546(6) 0.2548(3)
O3O O 0.6213(6) 0.6767(7) 0.0785(3)
Cu1 Cu -0.3333 0.3333 0.17109(7)
C1 C -0.3269(7) 0.1536(7) 0.0856(4)
H1 H -0.3766 0.1958 0.0874
C2 C -0.1861(8) 0.0184(8) 0.0796(3)
H2 H -0.1410 -0.0284 0.0773
C3 C -0.3315(8) 0.0861(8) 0.0430(3)
H3 H -0.3808 0.0862 0.0150
C4 C -0.2462(8) 0.1608(8) 0.1281(3)
N1 N -0.2377(6) 0.2349(6) 0.1691(3)
C5 C -0.2618(8) 0.0147(8) 0.0401(3)
H4 H -0.2687 -0.0342 0.0110
C6 C -0.1733(8) 0.0922(7) 0.1251(3)
Cu1O Cu -0.0000 0.0000 0.16224(7)
Cu1P Cu -0.0000 0.9999 0.16224(7)
Cu1Q Cu -0.9999 0.0000 0.16224(7)
C1O C -0.0064(7) 0.1797(7) 0.2477(4)
C1A C -0.1536(7) 0.5195(10) 0.0856(4)
C1P C -0.1797(7) 0.8138(10) 0.2477(4)
C1B C -0.5195(10) 0.3269(7) 0.0856(4)
C1Q C -0.8138(10) 0.0064(7) 0.2477(4)
H1O H 0.0433 0.1375 0.2459
H1A H -0.1958 0.4276 0.0874
H1P H -0.1375 0.9057 0.2459
H1B H -0.4276 0.3766 0.0874
H1Q H -0.9057 -0.0433 0.2459
C2O C -0.1472(8) 0.3149(8) 0.2537(3)
C2A C -0.0184(8) 0.7955(11) 0.0796(3)
C2P C -0.3149(8) 0.5378(11) 0.2537(3)
C2B C -0.7955(11) 0.1861(8) 0.0796(3)
C2Q C -0.5378(11) 0.1472(8) 0.2537(3)
H2O H -0.1923 0.3617 0.2560
H2A H 0.0284 0.8874 0.0773
H2P H -0.3617 0.4459 0.2560
H2B H -0.8874 0.1410 0.0773
H2Q H -0.4459 0.1923 0.2560
C3O C -0.0018(8) 0.2472(8) 0.2903(3)
C3A C -0.0861(8) 0.5824(11) 0.0430(3)
C3P C -0.2472(8) 0.7509(11) 0.2903(3)
C3B C -0.5824(11) 0.3315(8) 0.0430(3)
C3Q C -0.7509(11) 0.0018(8) 0.2903(3)
H3O H 0.0475 0.2471 0.3183
H3A H -0.0862 0.5330 0.0150
H3P H -0.2471 0.8003 0.3183
H3B H -0.5330 0.3808 0.0150
H3Q H -0.8003 -0.0475 0.3183
C4O C -0.0871(8) 0.1725(8) 0.2052(3)
C4A C -0.1608(8) 0.5930(11) 0.1281(3)
C4P C -0.1725(8) 0.7403(11) 0.2052(3)
C4B C -0.5930(11) 0.2462(8) 0.1281(3)
C4Q C -0.7403(11) 0.0871(8) 0.2052(3)
N1O N -0.0956(6) 0.0984(6) 0.1642(3)
N1A N -0.2349(6) 0.5274(8) 0.1691(3)
N1P N -0.0984(6) 0.8059(8) 0.1642(3)
N1B N -0.5274(8) 0.2377(6) 0.1691(3)
N1Q N -0.8059(8) 0.0956(6) 0.1642(3)
N1P_2 N -0.0984(6) -0.1941(8) 0.1642(3)
N1Q_2 N 0.1941(8) 0.0956(6) 0.1642(3)
C5O C -0.0715(8) 0.3186(8) 0.2932(3)
C5A C -0.0147(8) 0.7235(11) 0.0401(3)
C5P C -0.3186(8) 0.6098(11) 0.2932(3)
C5B C -0.7235(11) 0.2618(8) 0.0401(3)
C5Q C -0.6098(11) 0.0715(8) 0.2932(3)
H4O H -0.0646 0.3675 0.3223
H4A H 0.0342 0.7655 0.0110
H4P H -0.3675 0.5678 0.3223
H4B H -0.7655 0.2687 0.0110
H4Q H -0.5678 0.0646 0.3223
C6O C -0.1600(8) 0.2411(7) 0.2082(3)
C6A C -0.0922(7) 0.7345(11) 0.1251(3)
C6P C -0.2411(7) 0.5988(11) 0.2082(3)
C6B C -0.7345(11) 0.1733(8) 0.1251(3)
C6Q C -0.5988(11) 0.1600(8) 0.2082(3)
loop_
_geom_bond_atom_site_label_1
_geom_bond_atom_site_label_2
_geom_bond_site_symmetry_1
_geom_bond_site_symmetry_2
W1 O1 1_555 1_555
Cu1 N1 1_555 1_555
O1 W1Q 1_555 1_555
C1 H1 1_555 1_555
O2 W1 1_555 1_555
O3 W1 1_555 1_555
C2 H2 1_555 1_555
C3 C1 1_555 1_555
H3 C3 1_555 1_555
C4 C1 1_555 1_555
N1 C4 1_555 1_555
C5 C2 1_555 1_555
H4 C5 1_555 1_555
O4 W1 1_555 1_555
C6 C2 1_555 1_555
W1P O4 1_555 1_555
W1Q O4 1_555 1_555
W1A O4 1_555 1_555
W1B O2 1_555 1_555
W1O O4 1_555 1_555
Cu1O N1O 1_555 1_555
Cu1P N1P 1_555 1_555
Cu1Q N1Q 1_555 1_555
O1P W1 1_555 1_555
O1B W1P 1_555 1_555
O1Q W1Q 1_555 1_555
O1A W1A 1_555 1_555
O1O W1B 1_555 1_555
C1O H1O 1_555 1_555
C1A H1A 1_555 1_555
C1P H1P 1_555 1_555
C1B H1B 1_555 1_555
C1Q H1Q 1_555 1_555
O2A W1 1_555 1_555
O2P W1P 1_555 1_555
O2Q W1P 1_555 1_555
O2O W1Q 1_555 1_555
O2B W1A 1_555 1_555
O3P W1P 1_555 1_555
O3Q W1Q 1_555 1_555
O3A W1A 1_555 1_555
O3B W1B 1_555 1_555
O3O W1O 1_555 1_555
C2O H2O 1_555 1_555
C2A H2A 1_555 1_555
C2P H2P 1_555 1_555
C2B H2B 1_555 1_555
C2Q H2Q 1_555 1_555
C3O C1O 1_555 1_555
C3A C1A 1_555 1_555
C3P C1P 1_555 1_555
C3B C1B 1_555 1_555
C3Q C1Q 1_555 1_555
H3O C3O 1_555 1_555
H3A C3A 1_555 1_555
H3P C3P 1_555 1_555
H3B C3B 1_555 1_555
H3Q C3Q 1_555 1_555
C4O C1O 1_555 1_555
C4A C1A 1_555 1_555
C4P C1P 1_555 1_555
C4B C1B 1_555 1_555
C4Q C1Q 1_555 1_555
N1O C6 1_555 1_555
N1A Cu1 1_555 1_555
N1P C4P 1_555 1_555
N1B Cu1 1_555 1_555
N1Q C4Q 1_555 1_555
N1P_2 Cu1O 1_555 1_555
N1Q_2 Cu1O 1_555 1_555
C5O C2O 1_555 1_555
C5A C2A 1_555 1_555
C5P C2P 1_555 1_555
C5B C2B 1_555 1_555
C5Q C2Q 1_555 1_555
H4O C5O 1_555 1_555
H4A C5A 1_555 1_555
H4P C5P 1_555 1_555
H4B C5B 1_555 1_555
H4Q C5Q 1_555 1_555
C6O N1 1_555 1_555
C6A C2A 1_555 1_555
C6P C2P 1_555 1_555
C6B C2B 1_555 1_555
C6Q C2Q 1_555 1_555
C3 C5 1_555 1_555
C4 C6 1_555 1_555
O4 W1B 1_555 1_555
W1P O1P 1_555 1_555
W1Q O2Q 1_555 1_555
W1A O1Q 1_555 1_555
W1A O2A 1_555 1_555
W1B O1B 1_555 1_555
W1B O2B 1_555 1_555
W1O O1A 1_555 1_555
W1O O1O 1_555 1_555
W1O O2P 1_555 1_555
W1O O2O 1_555 1_555
C2O C6O 1_555 1_555
C3O C5O 1_555 1_555
C3A C5A 1_555 1_555
C3P C5P 1_555 1_555
C3B C5B 1_555 1_555
C3Q C5Q 1_555 1_555
C4O N1O 1_555 1_555
C4O C6O 1_555 1_555
C4A N1A 1_555 1_555
C4A C6A 1_555 1_555
C4P C6P 1_555 1_555
C4B N1B 1_555 1_555
C4B C6B 1_555 1_555
C4Q C6Q 1_555 1_555
N1A C6P 1_555 1_555
N1P C6A 1_555 1_555
N1B C6Q 1_555 1_555
N1Q C6B 1_555 1_555

#END
