
#######################################################################
#
#                 Cambridge Crystallographic Data Centre
#                                CCDC 
#
#######################################################################
#
# If this CIF has been generated from an entry in the Cambridge 
# Structural Database, then it will include bibliographic, chemical, 
# crystal, experimental, refinement or atomic coordinate data resulting 
# from the CCDC's data processing and validation procedures.
#
#######################################################################

data_RUBGEB
_symmetry_cell_setting           monoclinic
_symmetry_space_group_name_H-M   'P 21/c'
_symmetry_Int_Tables_number      14
_space_group_name_Hall           '-P 2ybc'
loop_
_symmetry_equiv_pos_site_id
_symmetry_equiv_pos_as_xyz
1 x,y,z
2 -x,1/2+y,1/2-z
3 -x,-y,-z
4 x,1/2-y,1/2+z
_cell_length_a                   14.255(2)
_cell_length_b                   19.247(3)
_cell_length_c                   13.853(2)
_cell_angle_alpha                90
_cell_angle_beta                 113.202(3)
_cell_angle_gamma                90
_cell_volume                     3493.39
loop_
_atom_site_label
_atom_site_type_symbol
_atom_site_fract_x
_atom_site_fract_y
_atom_site_fract_z
Ni1 Ni -0.42616(5) 0.66621(3) 0.03604(5)
Ni2 Ni -0.5000 0.5000 0.0000
S1 S 0.06073(10) 0.39222(7) 0.36040(12)
S2 S -0.82230(10) 0.65302(8) 0.37232(10)
O1 O 0.1062(4) 0.3890(2) 0.2846(4)
O2 O 0.1175(3) 0.4226(2) 0.4612(4)
O3 O -0.3728(2) 0.56368(17) 0.0585(3)
O4 O -0.2856(3) 0.64192(18) 0.1730(3)
O5 O 0.0569(5) 0.0521(2) 0.4427(5)
H1 H 0.0479 0.0140 0.4641
O6 O -0.0466(4) 0.0834(3) 0.5196(5)
O7 O -0.8431(3) 0.7259(2) 0.3565(3)
O8 O -0.9054(3) 0.6045(3) 0.3365(3)
O9 O -0.5031(3) 0.65550(19) 0.1308(3)
O10 O -0.5831(3) 0.55598(19) 0.0638(3)
O11 O -0.5516(3) 0.66308(19) 0.8946(3)
O12 O -0.5522(3) 0.54938(19) 0.8624(3)
N1 N -0.3405(3) 0.6886(2) -0.0487(4)
N2 N -0.4200(3) 0.7724(2) 0.0467(4)
C1 C -0.0548(4) 0.4394(3) 0.3021(4)
C2 C -0.1303(4) 0.4190(3) 0.2065(4)
H2 H -0.1264 0.3763 0.1771
C3 C -0.2110(4) 0.4633(3) 0.1561(4)
H3 H -0.2627 0.4500 0.0930
C4 C -0.2151(4) 0.5279(3) 0.1995(4)
C5 C -0.1411(4) 0.5463(3) 0.2945(4)
H4 H -0.1450 0.5891 0.3238
C6 C -0.0604(4) 0.5020(3) 0.3477(4)
H5 H -0.0111 0.5144 0.4128
C7 C -0.2959(4) 0.5800(3) 0.1424(4)
C8 C 0.0327(4) 0.3061(3) 0.3842(4)
C9 C 0.0694(5) 0.2528(3) 0.3427(5)
H6 H 0.0999 0.2624 0.2959
C10 C 0.0609(5) 0.1849(3) 0.3709(5)
H7 H 0.0870 0.1490 0.3441
C11 C 0.0142(4) 0.1703(3) 0.4383(5)
C12 C -0.0259(6) 0.2236(3) 0.4775(6)
H8 H -0.0602 0.2137 0.5208
C13 C -0.0147(6) 0.2922(3) 0.4519(6)
H9 H -0.0389 0.3284 0.4801
C14 C 0.0085(5) 0.0966(3) 0.4681(5)
C15 C -0.7381(4) 0.6300(3) 0.3111(4)
C16 C -0.6478(4) 0.6676(3) 0.3380(4)
H10 H -0.6272 0.6987 0.3939
C17 C -0.5895(4) 0.6575(3) 0.2790(4)
H11 H -0.5288 0.6820 0.2958
C18 C -0.6209(4) 0.6111(3) 0.1952(4)
C19 C -0.7067(5) 0.5709(3) 0.1772(5)
H12 H -0.7251 0.5370 0.1252
C20 C -0.7655(5) 0.5803(3) 0.2352(5)
H13 H -0.8230 0.5531 0.2224
C21 C -0.5645(4) 0.6070(2) 0.1240(4)
C22 C -0.7528(4) 0.6394(3) 0.5076(4)
C23 C -0.7211(5) 0.6968(3) 0.5733(5)
H14 H -0.7353 0.7415 0.5459
C24 C -0.6681(5) 0.6865(3) 0.6801(5)
H15 H -0.6492 0.7247 0.7249
C25 C -0.6430(4) 0.6203(3) 0.7211(4)
C26 C -0.6777(4) 0.5636(3) 0.6540(4)
H16 H -0.6630 0.5189 0.6811
C27 C -0.7336(4) 0.5729(3) 0.5481(4)
H17 H -0.7581 0.5347 0.5043
C28 C -0.5771(4) 0.6101(3) 0.8362(4)
C29 C -0.3044(5) 0.6422(3) -0.0975(5)
H18 H -0.3156 0.5952 -0.0901
C30 C -0.2515(5) 0.6609(5) -0.1582(5)
H19 H -0.2252 0.6277 -0.1896
C31 C -0.2394(6) 0.7313(5) -0.1704(7)
H20 H -0.2063 0.7461 -0.2127
C32 C -0.2748(6) 0.7788(4) -0.1217(6)
H21 H -0.2651 0.8259 -0.1292
C33 C -0.3259(4) 0.7566(3) -0.0602(4)
C34 C -0.3671(4) 0.8039(3) -0.0025(5)
C35 C -0.3527(5) 0.8748(3) 0.0026(6)
H22 H -0.3144 0.8953 -0.0307
C36 C -0.3947(6) 0.9154(3) 0.0569(8)
H23 H -0.3872 0.9635 0.0589
C37 C -0.4483(5) 0.8832(3) 0.1082(7)
H24 H -0.4773 0.9093 0.1459
C38 C -0.4584(5) 0.8121(3) 0.1028(5)
H25 H -0.4930 0.7906 0.1392
Ni1B Ni -0.57384(5) 0.33379(3) -0.03604(5)
Ni1_2 Ni -0.42616(5) 0.66621(3) 1.03604(5)
Ni1B_2 Ni -0.57384(5) 0.33379(3) -1.03604(5)
Ni2_2 Ni -0.5000 0.5000 1.0000
Ni2_3 Ni -0.5000 0.5000 -1.0000
S1B S -1.06073(10) 0.60778(7) -0.36040(12)
S2B S -0.17770(10) 0.34698(8) -0.37232(10)
O1B O -1.1062(4) 0.6110(2) -0.2846(4)
O2B O -1.1175(3) 0.5774(2) -0.4612(4)
O3B O -0.6272(2) 0.43632(17) -0.0585(3)
O4B O -0.7144(3) 0.35808(18) -0.1730(3)
O5B O -1.0569(5) 0.9479(2) -0.4427(5)
H1B H -1.0479 0.9860 -0.4641
O6B O -0.9534(4) 0.9166(3) -0.5196(5)
O7B O -0.1569(3) 0.2741(2) -0.3565(3)
O8B O -0.0946(3) 0.3955(3) -0.3365(3)
O9B O -0.4969(3) 0.34450(19) -0.1308(3)
O10B O -0.4169(3) 0.44402(19) -0.0638(3)
O11B O -0.4484(3) 0.33692(19) -0.8946(3)
O11_2 O -0.5516(3) 0.66308(19) -0.1054(3)
O11B_2 O -0.4484(3) 0.33692(19) 0.1054(3)
O12B O -0.4478(3) 0.45062(19) -0.8624(3)
O12_2 O -0.5522(3) 0.54938(19) -0.1376(3)
O12B_2 O -0.4478(3) 0.45062(19) 0.1376(3)
N1B N -0.6595(3) 0.3114(2) 0.0487(4)
N2B N -0.5800(3) 0.2276(2) -0.0467(4)
C1B C -0.9452(4) 0.5606(3) -0.3021(4)
C2B C -0.8697(4) 0.5810(3) -0.2065(4)
H2B H -0.8736 0.6237 -0.1771
C3B C -0.7890(4) 0.5367(3) -0.1561(4)
H3B H -0.7373 0.5500 -0.0930
C4B C -0.7849(4) 0.4721(3) -0.1995(4)
C5B C -0.8589(4) 0.4537(3) -0.2945(4)
H4B H -0.8550 0.4109 -0.3238
C6B C -0.9396(4) 0.4980(3) -0.3477(4)
H5B H -0.9889 0.4856 -0.4128
C7B C -0.7041(4) 0.4200(3) -0.1424(4)
C8B C -1.0327(4) 0.6939(3) -0.3842(4)
C9B C -1.0694(5) 0.7472(3) -0.3427(5)
H6B H -1.0999 0.7376 -0.2959
C10B C -1.0609(5) 0.8151(3) -0.3709(5)
H7B H -1.0870 0.8510 -0.3441
C11B C -1.0142(4) 0.8297(3) -0.4383(5)
C12B C -0.9741(6) 0.7764(3) -0.4775(6)
H8B H -0.9398 0.7863 -0.5208
C13B C -0.9853(6) 0.7078(3) -0.4519(6)
H9B H -0.9611 0.6716 -0.4801
C14B C -1.0085(5) 0.9034(3) -0.4681(5)
C15B C -0.2619(4) 0.3700(3) -0.3111(4)
C16B C -0.3522(4) 0.3324(3) -0.3380(4)
H10B H -0.3728 0.3013 -0.3939
C17B C -0.4105(4) 0.3425(3) -0.2790(4)
H11B H -0.4712 0.3180 -0.2958
C18B C -0.3791(4) 0.3889(3) -0.1952(4)
C19B C -0.2933(5) 0.4291(3) -0.1772(5)
H12B H -0.2749 0.4630 -0.1252
C20B C -0.2345(5) 0.4197(3) -0.2352(5)
H13B H -0.1770 0.4469 -0.2224
C21B C -0.4355(4) 0.3930(2) -0.1240(4)
C22B C -0.2472(4) 0.3606(3) -0.5076(4)
C23B C -0.2789(5) 0.3032(3) -0.5733(5)
H14B H -0.2647 0.2585 -0.5459
C24B C -0.3319(5) 0.3135(3) -0.6801(5)
H15B H -0.3508 0.2753 -0.7249
C25B C -0.3570(4) 0.3797(3) -0.7211(4)
C26B C -0.3223(4) 0.4364(3) -0.6540(4)
H16B H -0.3370 0.4811 -0.6811
C27B C -0.2664(4) 0.4271(3) -0.5481(4)
H17B H -0.2419 0.4653 -0.5043
C28B C -0.4229(4) 0.3899(3) -0.8362(4)
C29B C -0.6956(5) 0.3578(3) 0.0975(5)
H18B H -0.6844 0.4048 0.0901
C30B C -0.7485(5) 0.3391(5) 0.1582(5)
H19B H -0.7748 0.3723 0.1896
C31B C -0.7606(6) 0.2687(5) 0.1704(7)
H20B H -0.7937 0.2539 0.2127
C32B C -0.7252(6) 0.2212(4) 0.1217(6)
H21B H -0.7349 0.1741 0.1292
C33B C -0.6741(4) 0.2434(3) 0.0602(4)
C34B C -0.6329(4) 0.1961(3) 0.0025(5)
C35B C -0.6473(5) 0.1252(3) -0.0026(6)
H22B H -0.6856 0.1047 0.0307
C36B C -0.6053(6) 0.0846(3) -0.0569(8)
H23B H -0.6128 0.0365 -0.0589
C37B C -0.5517(5) 0.1168(3) -0.1082(7)
H24B H -0.5227 0.0907 -0.1459
C38B C -0.5416(5) 0.1879(3) -0.1028(5)
H25B H -0.5070 0.2094 -0.1392
loop_
_geom_bond_atom_site_label_1
_geom_bond_atom_site_label_2
_geom_bond_site_symmetry_1
_geom_bond_site_symmetry_2
Ni1 O3 1_555 1_555
Ni2 O3 1_555 1_555
S1 O1 1_555 1_555
S2 O7 1_555 1_555
O2 S1 1_555 1_555
O3 C7 1_555 1_555
O4 Ni1 1_555 1_555
O5 H1 1_555 1_555
O6 C14 1_555 1_555
O8 S2 1_555 1_555
O9 Ni1 1_555 1_555
O10 Ni2 1_555 1_555
O11 C28 1_555 1_555
O12 C28 1_555 1_555
N1 Ni1 1_555 1_555
N2 Ni1 1_555 1_555
C1 S1 1_555 1_555
C2 C1 1_555 1_555
H2 C2 1_555 1_555
C3 C2 1_555 1_555
H3 C3 1_555 1_555
C4 C3 1_555 1_555
C5 C4 1_555 1_555
H4 C5 1_555 1_555
C6 C1 1_555 1_555
H5 C6 1_555 1_555
C7 O4 1_555 1_555
C8 S1 1_555 1_555
C9 C8 1_555 1_555
H6 C9 1_555 1_555
C10 C9 1_555 1_555
H7 C10 1_555 1_555
C11 C10 1_555 1_555
C12 C11 1_555 1_555
H8 C12 1_555 1_555
C13 C8 1_555 1_555
H9 C13 1_555 1_555
C14 O5 1_555 1_555
C15 S2 1_555 1_555
C16 C15 1_555 1_555
H10 C16 1_555 1_555
C17 C16 1_555 1_555
H11 C17 1_555 1_555
C18 C17 1_555 1_555
C19 C18 1_555 1_555
H12 C19 1_555 1_555
C20 C15 1_555 1_555
H13 C20 1_555 1_555
C21 O9 1_555 1_555
C22 S2 1_555 1_555
C23 C22 1_555 1_555
H14 C23 1_555 1_555
C24 C23 1_555 1_555
H15 C24 1_555 1_555
C25 C24 1_555 1_555
C26 C25 1_555 1_555
H16 C26 1_555 1_555
C27 C22 1_555 1_555
H17 C27 1_555 1_555
C28 C25 1_555 1_555
C29 N1 1_555 1_555
H18 C29 1_555 1_555
C30 C29 1_555 1_555
H19 C30 1_555 1_555
C31 C30 1_555 1_555
H20 C31 1_555 1_555
C32 C31 1_555 1_555
H21 C32 1_555 1_555
C33 N1 1_555 1_555
C34 N2 1_555 1_555
C35 C34 1_555 1_555
H22 C35 1_555 1_555
C36 C35 1_555 1_555
H23 C36 1_555 1_555
C37 C36 1_555 1_555
H24 C37 1_555 1_555
C38 N2 1_555 1_555
H25 C38 1_555 1_555
Ni1B O3B 1_555 1_555
Ni1_2 O11 1_555 1_555
Ni1B_2 O11B 1_555 1_555
Ni2_2 O12 1_555 1_555
Ni2_3 O12B 1_555 1_555
S1B O1B 1_555 1_555
S2B O7B 1_555 1_555
O2B S1B 1_555 1_555
O3B Ni2 1_555 1_555
O4B Ni1B 1_555 1_555
O5B H1B 1_555 1_555
O6B C14B 1_555 1_555
O8B S2B 1_555 1_555
O9B Ni1B 1_555 1_555
O10B Ni2 1_555 1_555
O11B C28B 1_555 1_555
O11_2 Ni1 1_555 1_555
O11B_2 Ni1B 1_555 1_555
O12B C28B 1_555 1_555
O12_2 Ni2 1_555 1_555
O12B_2 Ni2 1_555 1_555
N1B Ni1B 1_555 1_555
N2B Ni1B 1_555 1_555
C1B S1B 1_555 1_555
C2B C1B 1_555 1_555
H2B C2B 1_555 1_555
C3B C2B 1_555 1_555
H3B C3B 1_555 1_555
C4B C3B 1_555 1_555
C5B C4B 1_555 1_555
H4B C5B 1_555 1_555
C6B C1B 1_555 1_555
H5B C6B 1_555 1_555
C7B O3B 1_555 1_555
C8B S1B 1_555 1_555
C9B C8B 1_555 1_555
H6B C9B 1_555 1_555
C10B C9B 1_555 1_555
H7B C10B 1_555 1_555
C11B C10B 1_555 1_555
C12B C11B 1_555 1_555
H8B C12B 1_555 1_555
C13B C8B 1_555 1_555
H9B C13B 1_555 1_555
C14B O5B 1_555 1_555
C15B S2B 1_555 1_555
C16B C15B 1_555 1_555
H10B C16B 1_555 1_555
C17B C16B 1_555 1_555
H11B C17B 1_555 1_555
C18B C17B 1_555 1_555
C19B C18B 1_555 1_555
H12B C19B 1_555 1_555
C20B C15B 1_555 1_555
H13B C20B 1_555 1_555
C21B O9B 1_555 1_555
C22B S2B 1_555 1_555
C23B C22B 1_555 1_555
H14B C23B 1_555 1_555
C24B C23B 1_555 1_555
H15B C24B 1_555 1_555
C25B C24B 1_555 1_555
C26B C25B 1_555 1_555
H16B C26B 1_555 1_555
C27B C22B 1_555 1_555
H17B C27B 1_555 1_555
C28B C25B 1_555 1_555
C29B N1B 1_555 1_555
H18B C29B 1_555 1_555
C30B C29B 1_555 1_555
H19B C30B 1_555 1_555
C31B C30B 1_555 1_555
H20B C31B 1_555 1_555
C32B C31B 1_555 1_555
H21B C32B 1_555 1_555
C33B N1B 1_555 1_555
C34B N2B 1_555 1_555
C35B C34B 1_555 1_555
H22B C35B 1_555 1_555
C36B C35B 1_555 1_555
H23B C36B 1_555 1_555
C37B C36B 1_555 1_555
H24B C37B 1_555 1_555
C38B N2B 1_555 1_555
H25B C38B 1_555 1_555
O10 C21 1_555 1_555
C4 C7 1_555 1_555
C5 C6 1_555 1_555
C11 C14 1_555 1_555
C12 C13 1_555 1_555
C18 C21 1_555 1_555
C19 C20 1_555 1_555
C26 C27 1_555 1_555
C32 C33 1_555 1_555
C33 C34 1_555 1_555
C37 C38 1_555 1_555
O4B C7B 1_555 1_555
O10B C21B 1_555 1_555
C4B C7B 1_555 1_555
C5B C6B 1_555 1_555
C11B C14B 1_555 1_555
C12B C13B 1_555 1_555
C18B C21B 1_555 1_555
C19B C20B 1_555 1_555
C26B C27B 1_555 1_555
C32B C33B 1_555 1_555
C33B C34B 1_555 1_555
C37B C38B 1_555 1_555

#END
