
#######################################################################
#
#                 Cambridge Crystallographic Data Centre
#                                CCDC 
#
#######################################################################
#
# If this CIF has been generated from an entry in the Cambridge 
# Structural Database, then it will include bibliographic, chemical, 
# crystal, experimental, refinement or atomic coordinate data resulting 
# from the CCDC's data processing and validation procedures.
#
#######################################################################

data_RUBGUR
_symmetry_cell_setting           rhombohedral
_symmetry_space_group_name_H-M   'R -3'
_symmetry_Int_Tables_number      148
_space_group_name_Hall           '-R 3'
loop_
_symmetry_equiv_pos_site_id
_symmetry_equiv_pos_as_xyz
1 x,y,z
2 -y,x-y,z
3 -x+y,-x,z
4 2/3+x,1/3+y,1/3+z
5 2/3-y,1/3+x-y,1/3+z
6 2/3-x+y,1/3-x,1/3+z
7 1/3+x,2/3+y,2/3+z
8 1/3-y,2/3+x-y,2/3+z
9 1/3-x+y,2/3-x,2/3+z
10 -x,-y,-z
11 y,-x+y,-z
12 x-y,x,-z
13 1/3-x,2/3-y,2/3-z
14 1/3+y,2/3-x+y,2/3-z
15 1/3+x-y,2/3+x,2/3-z
16 2/3-x,1/3-y,1/3-z
17 2/3+y,1/3-x+y,1/3-z
18 2/3+x-y,1/3+x,1/3-z
_cell_length_a                   11.7022(17)
_cell_length_b                   11.7022(17)
_cell_length_c                   26.046(5)
_cell_angle_alpha                90
_cell_angle_beta                 90
_cell_angle_gamma                120
_cell_volume                     3088.92
loop_
_atom_site_label
_atom_site_type_symbol
_atom_site_fract_x
_atom_site_fract_y
_atom_site_fract_z
O1 O 1.0000 1.0000 0.0000
Mo1 Mo 0.83534(3) 0.84100(2) 0.051163(9)
O2 O 0.7389(2) 0.8775(2) 0.00021(9)
O3 O 0.8726(2) 1.0053(2) 0.08300(8)
O4 O 0.7141(3) 0.7240(3) 0.08748(9)
Mo1A Mo 1.15900(2) 0.99434(4) 0.051163(9)
Mo1B Mo 1.00566(4) 1.16466(3) 0.051163(9)
Mo1I Mo 1.16466(3) 1.15900(2) -0.051163(9)
Mo1J Mo 0.84100(2) 1.00566(4) -0.051163(9)
Mo1K Mo 0.99434(4) 0.83534(3) -0.051163(9)
O2K O 0.8614(3) 0.7389(2) -0.00021(9)
O2A O 1.1225(2) 0.8614(3) 0.00021(9)
O2I O 1.2611(2) 1.1225(2) -0.00021(9)
O2B O 1.1386(3) 1.2611(2) 0.00021(9)
O2J O 0.8775(2) 1.1386(3) -0.00021(9)
O3A O 0.9947(2) 0.8673(3) 0.08300(8)
O3B O 1.1327(3) 1.1274(2) 0.08300(8)
O3I O 1.1274(2) 0.9947(2) -0.08300(8)
O3J O 1.0053(2) 1.1327(3) -0.08300(8)
O3K O 0.8673(3) 0.8726(2) -0.08300(8)
O4A O 1.2760(3) 0.9901(4) 0.08748(9)
O4B O 1.0099(4) 1.2859(3) 0.08748(9)
O4I O 1.2859(3) 1.2760(3) -0.08748(9)
O4J O 0.7240(3) 1.0099(4) -0.08748(9)
O4K O 0.9901(4) 0.7141(3) -0.08748(9)
C1 C 0.1462(3) 0.4866(3) -0.08130(12)
H1 H 0.2378 0.5291 -0.0798
C2 C -0.0663(3) 0.4263(3) -0.04157(11)
C3 C 0.0744(3) 0.4949(3) -0.03902(11)
C4 C 0.0832(3) 0.4177(3) -0.12369(13)
H2 H 0.1319 0.4154 -0.1515
C5 C -0.1291(3) 0.3518(3) -0.08648(12)
H3 H -0.2207 0.3048 -0.0884
Cu1 Cu 0.3333 0.6667 0.00440(2)
N1 N 0.1387(2) 0.5680(2) 0.00253(9)
C6 C -0.0566(3) 0.3487(3) -0.12631(13)
H4 H -0.0988 0.3009 -0.1557
C1I C -0.1462(3) 0.5134(3) 0.08130(12)
C1A C 0.5134(3) 0.6596(4) -0.08130(12)
C1J C 0.4866(3) 0.3404(4) 0.08130(12)
C1B C 0.3404(4) 0.8538(3) -0.08130(12)
C1K C 0.6596(4) 1.1462(3) 0.08130(12)
H1I H -0.2378 0.4709 0.0798
H1A H 0.4709 0.7087 -0.0798
H1J H 0.5291 0.2913 0.0798
H1B H 0.2913 0.7622 -0.0798
H1K H 0.7087 1.2378 0.0798
C2I C 0.0663(3) 0.5737(3) 0.04157(11)
C2A C 0.5737(3) 0.5074(4) -0.04157(11)
C2J C 0.4263(3) 0.4926(4) 0.04157(11)
C2B C 0.4926(4) 1.0663(3) -0.04157(11)
C2K C 0.5074(4) 0.9337(3) 0.04157(11)
C3I C -0.0744(3) 0.5051(3) 0.03902(11)
C3A C 0.5051(3) 0.5795(4) -0.03902(11)
C3J C 0.4949(3) 0.4205(4) 0.03902(11)
C3B C 0.4205(4) 0.9256(3) -0.03902(11)
C3K C 0.5795(4) 1.0744(3) 0.03902(11)
C4I C -0.0832(3) 0.5823(3) 0.12369(13)
C4A C 0.5823(3) 0.6655(4) -0.12369(13)
C4J C 0.4177(3) 0.3345(4) 0.12369(13)
C4B C 0.3345(4) 0.9168(3) -0.12369(13)
C4K C 0.6655(4) 1.0832(3) 0.12369(13)
H2I H -0.1319 0.5846 0.1515
H2A H 0.5846 0.7165 -0.1515
H2J H 0.4154 0.2835 0.1515
H2B H 0.2835 0.8681 -0.1515
H2K H 0.7165 1.1319 0.1515
C5I C 0.1291(3) 0.6482(3) 0.08648(12)
C5A C 0.6482(3) 0.5191(4) -0.08648(12)
C5J C 0.3518(3) 0.4809(4) 0.08648(12)
C5B C 0.4809(4) 1.1291(3) -0.08648(12)
C5K C 0.5191(4) 0.8709(3) 0.08648(12)
H3I H 0.2207 0.6952 0.0884
H3A H 0.6952 0.4745 -0.0884
H3J H 0.3048 0.5255 0.0884
H3B H 0.5255 1.2207 -0.0884
H3K H 0.4745 0.7793 0.0884
Cu1I Cu -0.3333 0.3333 -0.00440(2)
Cu1J Cu 0.6667 0.3334 -0.00440(2)
Cu1K Cu 0.6666 1.3333 -0.00440(2)
N1I N -0.1387(2) 0.4320(2) -0.00253(9)
N1A N 0.4320(2) 0.5707(3) 0.00253(9)
N1J N 0.5680(2) 0.4293(3) -0.00253(9)
N1B N 0.4293(3) 0.8613(2) 0.00253(9)
N1K N 0.5707(3) 1.1387(2) -0.00253(9)
N1J_2 N -0.4320(2) 0.4293(3) -0.00253(9)
N1K_2 N -0.4293(3) 0.1387(2) -0.00253(9)
C6I C 0.0566(3) 0.6513(3) 0.12631(13)
C6A C 0.6513(3) 0.5947(4) -0.12631(13)
C6J C 0.3487(3) 0.4053(4) 0.12631(13)
C6B C 0.4053(4) 1.0566(3) -0.12631(13)
C6K C 0.5947(4) 0.9434(3) 0.12631(13)
H4I H 0.0988 0.6991 0.1557
H4A H 0.6991 0.6003 -0.1557
H4J H 0.3009 0.3997 0.1557
H4B H 0.3997 1.0988 -0.1557
H4K H 0.6003 0.9012 0.1557
loop_
_geom_bond_atom_site_label_1
_geom_bond_atom_site_label_2
_geom_bond_site_symmetry_1
_geom_bond_site_symmetry_2
O1 Mo1 1_555 1_555
C1 H1 1_555 1_555
C2 C3 1_555 1_555
C3 C1 1_555 1_555
C4 C1 1_555 1_555
H2 C4 1_555 1_555
C5 C2 1_555 1_555
H3 C5 1_555 1_555
Mo1 O2 1_555 1_555
O2 Mo1J 1_555 1_555
O3 Mo1 1_555 1_555
O4 Mo1 1_555 1_555
Cu1 N1 1_555 1_555
N1 C3 1_555 1_555
C6 C4 1_555 1_555
H4 C6 1_555 1_555
C1I H1I 1_555 1_555
C1A H1A 1_555 1_555
C1J H1J 1_555 1_555
C1B H1B 1_555 1_555
C1K H1K 1_555 1_555
C2I N1 1_555 1_555
C2A C3A 1_555 1_555
C2J C3J 1_555 1_555
C2B C3B 1_555 1_555
C2K C3K 1_555 1_555
C3I C1I 1_555 1_555
C3A C1A 1_555 1_555
C3J C1J 1_555 1_555
C3B C1B 1_555 1_555
C3K C1K 1_555 1_555
C4I C1I 1_555 1_555
C4A C1A 1_555 1_555
C4J C1J 1_555 1_555
C4B C1B 1_555 1_555
C4K C1K 1_555 1_555
H2I C4I 1_555 1_555
H2A C4A 1_555 1_555
H2J C4J 1_555 1_555
H2B C4B 1_555 1_555
H2K C4K 1_555 1_555
C5I C2I 1_555 1_555
C5A C2A 1_555 1_555
C5J C2J 1_555 1_555
C5B C2B 1_555 1_555
C5K C2K 1_555 1_555
H3I C5I 1_555 1_555
H3A C5A 1_555 1_555
H3J C5J 1_555 1_555
H3B C5B 1_555 1_555
H3K C5K 1_555 1_555
Mo1A O1 1_555 1_555
Mo1B O1 1_555 1_555
Mo1I O1 1_555 1_555
Mo1J O1 1_555 1_555
Mo1K O1 1_555 1_555
O2K Mo1 1_555 1_555
O2A Mo1A 1_555 1_555
O2I Mo1A 1_555 1_555
O2B Mo1B 1_555 1_555
O2J Mo1B 1_555 1_555
O3A Mo1 1_555 1_555
O3B Mo1A 1_555 1_555
O3I Mo1I 1_555 1_555
O3J Mo1I 1_555 1_555
O3K Mo1J 1_555 1_555
O4A Mo1A 1_555 1_555
O4B Mo1B 1_555 1_555
O4I Mo1I 1_555 1_555
O4J Mo1J 1_555 1_555
O4K Mo1K 1_555 1_555
Cu1I N1I 1_555 1_555
Cu1J N1J 1_555 1_555
Cu1K N1K 1_555 1_555
N1I C2 1_555 1_555
N1A Cu1 1_555 1_555
N1J C2A 1_555 1_555
N1B Cu1 1_555 1_555
N1K C2B 1_555 1_555
N1J_2 Cu1I 1_555 1_555
N1K_2 Cu1I 1_555 1_555
C6I C4I 1_555 1_555
C6A C4A 1_555 1_555
C6J C4J 1_555 1_555
C6B C4B 1_555 1_555
C6K C4K 1_555 1_555
H4I C6I 1_555 1_555
H4A C6A 1_555 1_555
H4J C6J 1_555 1_555
H4B C6B 1_555 1_555
H4K C6K 1_555 1_555
C5 C6 1_555 1_555
O3 Mo1B 1_555 1_555
C2I C3I 1_555 1_555
C2J N1A 1_555 1_555
C2K N1B 1_555 1_555
C3I N1I 1_555 1_555
C3A N1A 1_555 1_555
C3J N1J 1_555 1_555
C3B N1B 1_555 1_555
C3K N1K 1_555 1_555
C5I C6I 1_555 1_555
C5A C6A 1_555 1_555
C5J C6J 1_555 1_555
C5B C6B 1_555 1_555
C5K C6K 1_555 1_555
Mo1A O3A 1_555 1_555
Mo1B O3B 1_555 1_555
Mo1I O2I 1_555 1_555
Mo1I O2B 1_555 1_555
Mo1J O2J 1_555 1_555
Mo1J O3J 1_555 1_555
Mo1K O2K 1_555 1_555
Mo1K O2A 1_555 1_555
Mo1K O3I 1_555 1_555
Mo1K O3K 1_555 1_555

#END
