
#######################################################################
#
#                 Cambridge Crystallographic Data Centre
#                                CCDC 
#
#######################################################################
#
# If this CIF has been generated from an entry in the Cambridge 
# Structural Database, then it will include bibliographic, chemical, 
# crystal, experimental, refinement or atomic coordinate data resulting 
# from the CCDC's data processing and validation procedures.
#
#######################################################################

data_RUBGAX
_symmetry_cell_setting           triclinic
_symmetry_space_group_name_H-M   'P -1'
_symmetry_Int_Tables_number      2
_space_group_name_Hall           '-P 1'
loop_
_symmetry_equiv_pos_site_id
_symmetry_equiv_pos_as_xyz
1 x,y,z
2 -x,-y,-z
_cell_length_a                   7.0097(14)
_cell_length_b                   10.085(2)
_cell_length_c                   12.748(3)
_cell_angle_alpha                108.59(3)
_cell_angle_beta                 97.63(3)
_cell_angle_gamma                92.03(3)
_cell_volume                     843.704
loop_
_atom_site_label
_atom_site_type_symbol
_atom_site_fract_x
_atom_site_fract_y
_atom_site_fract_z
Sr1 Sr 0.33615(5) 0.65917(4) 0.06848(3)
Sr2 Sr 0.23355(5) 0.01930(4) 0.40929(3)
Sr3 Sr -0.10815(5) 0.66434(4) 0.21870(3)
P1 P 0.15487(14) 0.34884(11) 0.04370(8)
P2 P 0.42269(14) 0.72385(11) 0.33847(8)
S1 S 0.47290(15) 0.05938(11) 0.17693(8)
S2 S 0.01910(15) 0.71107(11) 0.49182(9)
O1 O 0.0903(4) 0.4872(3) 0.1132(3)
O2 O 0.3181(4) 0.3794(3) -0.0181(2)
O3 O -0.0056(4) 0.2521(3) -0.0423(3)
O4 O 0.6609(5) 0.1311(4) 0.1816(3)
O5 O 0.4110(5) 0.1003(4) 0.2864(3)
O6 O 0.4732(5) -0.0923(3) 0.1268(3)
O7 O 0.5261(5) 0.8555(3) 0.4265(3)
O8 O 0.2401(4) 0.7638(3) 0.2775(2)
O9 O 0.5429(4) 0.6454(3) 0.2509(3)
O10 O 0.0227(5) 0.8428(4) 0.4625(3)
O11 O -0.0665(5) 0.7350(4) 0.5933(3)
O12 O -0.0776(5) 0.5959(4) 0.3963(3)
O13 O 0.2985(5) 0.6017(4) -0.1527(3)
H1 H 0.312(9) 0.669(8) -0.172(5)
H2 H 0.369(10) 0.545(8) -0.189(6)
O14 O -0.0545(5) -0.0529(4) 0.2357(3)
H3 H -0.040(10) -0.094(7) 0.170(6)
H4 H -0.17(2) 0.006(15) 0.260(11)
C1 C 0.2431(6) 0.2614(5) 0.1425(3)
H5 H 0.3552 0.3169 0.1919
H6 H 0.1441 0.2571 0.1880
C2 C 0.2984(7) 0.1125(5) 0.0870(4)
H7 H 0.3499 0.1085 0.0192
H8 H 0.1836 0.0477 0.0660
C3 C 0.3550(7) 0.6054(5) 0.4117(4)
H9 H 0.2666 0.5302 0.3592
H10 H 0.4702 0.5635 0.4326
C4 C 0.2609(7) 0.6672(5) 0.5172(4)
H11 H 0.3391 0.7512 0.5655
H12 H 0.2624 0.6000 0.5573
Sr1A Sr 0.66385(5) 0.34083(4) -0.06848(3)
Sr1A_2 Sr -0.33615(5) 0.34083(4) -0.06848(3)
Sr1_2 Sr 0.33615(5) -0.34083(4) 0.06848(3)
Sr2_2 Sr 0.23355(5) 1.01930(4) 0.40929(3)
Sr2A Sr 0.76645(5) 0.98070(4) 0.59071(3)
Sr2A_2 Sr -0.23355(5) 0.98070(4) 0.59071(3)
Sr3A Sr 0.10815(5) 0.33566(4) -0.21870(3)
Sr3_2 Sr 0.89185(5) 0.66434(4) 0.21870(3)
Sr3_3 Sr -0.10815(5) -0.33566(4) 0.21870(3)
O2A O 0.6819(4) 0.6206(3) 0.0181(2)
O2A_2 O -0.3181(4) 0.6206(3) 0.0181(2)
O3A O 0.0056(4) 0.7479(3) 0.0423(3)
O6_2 O 0.4732(5) 0.9077(3) 0.1268(3)
O7_2 O 0.5261(5) -0.1445(3) 0.4265(3)
O7A O 0.4739(5) 0.1445(3) 0.5735(3)
O8_2 O 0.2401(4) -0.2362(3) 0.2775(2)
O9_2 O -0.4571(4) 0.6454(3) 0.2509(3)
O10_2 O 0.0227(5) -0.1572(4) 0.4625(3)
O10A O -0.0227(5) 0.1572(4) 0.5375(3)
O11A O 0.0665(5) 0.2650(4) 0.4067(3)
O13A O -0.2985(5) 0.3983(4) 0.1527(3)
H1A H -0.312(9) 0.331(8) 0.172(5)
H2A H -0.369(10) 0.455(8) 0.189(6)
O14_2 O -0.0545(5) 0.9471(4) 0.2357(3)
H3_2 H -0.040(10) 0.906(7) 0.170(6)
H4_2 H -0.17(2) 1.006(15) 0.260(11)
loop_
_geom_bond_atom_site_label_1
_geom_bond_atom_site_label_2
_geom_bond_site_symmetry_1
_geom_bond_site_symmetry_2
Sr1 O1 1_555 1_555
Sr2 O5 1_555 1_555
Sr3 O1 1_555 1_555
P1 O1 1_555 1_555
P2 O7 1_555 1_555
S1 O4 1_555 1_555
S2 O10 1_555 1_555
O2 Sr1 1_555 1_555
O3 P1 1_555 1_555
O5 S1 1_555 1_555
O6 S1 1_555 1_555
O7 Sr2_2 1_555 1_555
O8 Sr1 1_555 1_555
O9 Sr1 1_555 1_555
O10 Sr2_2 1_555 1_555
O11 S2 1_555 1_555
O12 Sr3 1_555 1_555
O13 Sr1 1_555 1_555
H1 O13 1_555 1_555
H2 O13 1_555 1_555
O14 Sr2 1_555 1_555
H3 O14 1_555 1_555
H4 O14 1_555 1_555
C1 P1 1_555 1_555
H5 C1 1_555 1_555
H6 C1 1_555 1_555
C2 S1 1_555 1_555
H7 C2 1_555 1_555
H8 C2 1_555 1_555
C3 P2 1_555 1_555
H9 C3 1_555 1_555
H10 C3 1_555 1_555
C4 S2 1_555 1_555
H11 C4 1_555 1_555
H12 C4 1_555 1_555
Sr1A O2 1_555 1_555
Sr1A_2 O3 1_555 1_555
Sr1_2 O6 1_555 1_555
Sr2_2 O8 1_555 1_555
Sr2A O7 1_555 1_555
Sr2A_2 O10 1_555 1_555
Sr3A O2 1_555 1_555
Sr3_2 O9 1_555 1_555
Sr3_3 O14 1_555 1_555
O2A Sr1 1_555 1_555
O2A_2 Sr3 1_555 1_555
O3A Sr1 1_555 1_555
O6_2 Sr1 1_555 1_555
O7_2 Sr2 1_555 1_555
O7A Sr2 1_555 1_555
O8_2 Sr2 1_555 1_555
O9_2 Sr3 1_555 1_555
O10_2 Sr2 1_555 1_555
O10A Sr2 1_555 1_555
O11A Sr2 1_555 1_555
O13A Sr3 1_555 1_555
H1A O13A 1_555 1_555
H2A O13A 1_555 1_555
O14_2 Sr3 1_555 1_555
H3_2 O14_2 1_555 1_555
H4_2 O14_2 1_555 1_555
Sr3 O8 1_555 1_555
Sr3 O3A 1_555 1_555
P1 O2 1_555 1_555
P2 O8 1_555 1_555
P2 O9 1_555 1_555
S2 O12 1_555 1_555
O3 Sr3A 1_555 1_555
O11 Sr2A_2 1_555 1_555
O13 Sr3A 1_555 1_555
C1 C2 1_555 1_555
C3 C4 1_555 1_555
Sr1A O2A 1_555 1_555
Sr1A_2 O2A_2 1_555 1_555
Sr1A_2 O13A 1_555 1_555
Sr1_2 O8_2 1_555 1_555
Sr2_2 O14_2 1_555 1_555
Sr3_2 O2A 1_555 1_555
Sr3_3 O8_2 1_555 1_555

#END
