
#######################################################################
#
#                 Cambridge Crystallographic Data Centre
#                                CCDC 
#
#######################################################################
#
# If this CIF has been generated from an entry in the Cambridge 
# Structural Database, then it will include bibliographic, chemical, 
# crystal, experimental, refinement or atomic coordinate data resulting 
# from the CCDC's data processing and validation procedures.
#
#######################################################################

data_RUBHIG
_symmetry_cell_setting           triclinic
_symmetry_space_group_name_H-M   'P -1'
_symmetry_Int_Tables_number      2
_space_group_name_Hall           '-P 1'
loop_
_symmetry_equiv_pos_site_id
_symmetry_equiv_pos_as_xyz
1 x,y,z
2 -x,-y,-z
_cell_length_a                   11.306(2)
_cell_length_b                   11.552(3)
_cell_length_c                   12.607(3)
_cell_angle_alpha                103.500(16)
_cell_angle_beta                 114.671(13)
_cell_angle_gamma                101.789(16)
_cell_volume                     1367.46
loop_
_atom_site_label
_atom_site_type_symbol
_atom_site_fract_x
_atom_site_fract_y
_atom_site_fract_z
Eu1 Eu -0.24989(3) 0.49824(3) -0.11707(3)
Eu2 Eu -0.76800(3) 0.48129(3) -0.39324(2)
Ag1 Ag -0.08948(7) 1.27020(6) 0.16299(11)
C1 C 0.3068(8) 1.0225(8) 0.3939(8)
H1 H 0.3999 1.0586 0.4543
C2 C 0.2588(7) 0.8971(7) 0.3186(7)
H2 H 0.3182 0.8505 0.3284
C3 C 0.1201(7) 0.8415(6) 0.2278(6)
C4 C 0.0371(7) 0.9161(7) 0.2203(7)
H3 H -0.0567 0.8825 0.1617
C5 C 0.0950(9) 1.0404(7) 0.3004(8)
H4 H 0.0377 1.0888 0.2947
C6 C 0.0648(7) 0.7082(6) 0.1343(6)
C7 C -1.4271(7) 0.0174(7) -0.6985(8)
H5 H -1.5206 0.0076 -0.7321
C8 C -1.3318(7) 0.1392(6) -0.6402(7)
H6 H -1.3609 0.2090 -0.6376
C9 C -1.1927(6) 0.1547(6) -0.5859(6)
C10 C -1.1543(7) 0.0480(7) -0.5923(8)
H7 H -1.0613 0.0556 -0.5557
C11 C -1.2573(8) -0.0707(7) -0.6544(9)
H8 H -1.2313 -0.1423 -0.6582
C12 C -1.0832(6) 0.2857(5) -0.5257(6)
C13 C -0.1779(8) 1.0030(8) -0.0258(9)
H9 H -0.1035 1.0440 -0.0333
C14 C -0.2524(8) 0.8773(8) -0.1003(8)
H10 H -0.2275 0.8343 -0.1553
C15 C -0.3638(6) 0.8172(6) -0.0916(6)
C16 C -0.3947(8) 0.8821(7) -0.0068(8)
H11 H -0.4693 0.8426 0.0012
C17 C -0.3134(9) 1.0072(8) 0.0669(9)
H12 H -0.3333 1.0502 0.1259
C18 C -0.4548(7) 0.6824(6) -0.1765(6)
C19 C -0.1837(6) 0.5629(6) -0.3275(6)
C20 C -0.3210(6) 0.4477(6) -0.4091(6)
C21 C -0.1973(6) 0.4706(6) 0.1465(6)
C22 C -0.2821(6) 0.5610(6) 0.1321(6)
N1 N 0.2285(7) 1.0951(6) 0.3855(6)
N2 N -1.3923(7) -0.0861(6) -0.7090(7)
N3 N -0.2071(6) 1.0686(6) 0.0565(7)
O1 O -0.0530(5) 0.6738(5) 0.0446(5)
O2 O 0.1417(6) 0.6442(5) 0.1568(5)
O3 O -0.9596(5) 0.2947(5) -0.4647(5)
O4 O -1.1225(5) 0.3756(4) -0.5433(5)
O5 O -0.5818(5) 0.6581(5) -0.2209(5)
O6 O -0.3983(6) 0.6059(5) -0.2013(5)
O7 O -0.1368(5) 0.6010(5) -0.2120(4)
O8 O -0.1264(5) 0.6097(4) -0.3804(4)
O9 O -0.3694(5) 0.3996(4) -0.3499(4)
O10 O -0.3675(5) 0.4140(4) -0.5238(4)
O11 O -0.1547(5) 0.4473(5) 0.2441(4)
O12 O -0.1779(5) 0.4247(5) 0.0573(4)
O13 O -0.3075(5) 0.5974(4) 0.2194(4)
O14 O -0.3174(5) 0.5894(5) 0.0365(4)
O15 O -0.6533(5) 0.3370(4) -0.4354(4)
H13 H -0.6220 0.3403 -0.4857
H14 H -0.6442 0.2826 -0.4001
O16 O -0.4563(5) 0.3392(4) -0.1676(5)
H15 H -0.5165 0.2965 -0.2436
H16 H -0.4697 0.3251 -0.1096
Eu1A Eu 0.24989(3) 0.50176(3) 0.11707(3)
Eu2A Eu -1.23200(3) 0.51871(3) -0.60676(2)
Eu2A_2 Eu -0.23200(3) 0.51871(3) -0.60676(2)
Eu2A_3 Eu -0.23200(3) 0.51871(3) 0.39324(2)
Ag1A Ag 0.08948(7) 0.72980(6) -0.16299(11)
Ag1_2 Ag -0.08948(7) 0.27020(6) 0.16299(11)
O2A O -0.1417(6) 0.3558(5) -0.1568(5)
O4A O -0.8775(5) 0.6244(4) -0.4567(5)
O7A O 0.1368(5) 1.3990(5) 0.2120(4)
O8A O -0.8736(5) 0.3903(4) -0.6196(4)
O8A_2 O 0.1264(5) 1.3903(4) 0.3804(4)
O10A O -0.6325(5) 0.5860(4) -0.4762(4)
O11A O -0.8453(5) 0.5527(5) -0.2441(4)
O11_2 O -0.1547(5) 1.4473(5) 0.2441(4)
O12_2 O -0.1779(5) 1.4247(5) 0.0573(4)
O13A O -0.6925(5) 0.4026(4) -0.2194(4)
loop_
_geom_bond_atom_site_label_1
_geom_bond_atom_site_label_2
_geom_bond_site_symmetry_1
_geom_bond_site_symmetry_2
Eu1 O1 1_555 1_555
Eu2 O3 1_555 1_555
Ag1 N3 1_555 1_555
C1 H1 1_555 1_555
C2 C1 1_555 1_555
H2 C2 1_555 1_555
C3 C2 1_555 1_555
C4 C3 1_555 1_555
H3 C4 1_555 1_555
C5 C4 1_555 1_555
H4 C5 1_555 1_555
C6 C3 1_555 1_555
C7 H5 1_555 1_555
C8 C7 1_555 1_555
H6 C8 1_555 1_555
C9 C8 1_555 1_555
C10 C9 1_555 1_555
H7 C10 1_555 1_555
C11 C10 1_555 1_555
H8 C11 1_555 1_555
C12 C9 1_555 1_555
C13 H9 1_555 1_555
C14 C13 1_555 1_555
H10 C14 1_555 1_555
C15 C14 1_555 1_555
C16 C15 1_555 1_555
H11 C16 1_555 1_555
C17 C16 1_555 1_555
H12 C17 1_555 1_555
C18 C15 1_555 1_555
C19 C20 1_555 1_555
C20 O9 1_555 1_555
C21 C22 1_555 1_555
C22 O13 1_555 1_555
N1 C1 1_555 1_555
N2 C7 1_555 1_555
N3 C13 1_555 1_555
O1 C6 1_555 1_555
O2 C6 1_555 1_555
O3 C12 1_555 1_555
O4 C12 1_555 1_555
O5 Eu2 1_555 1_555
O6 Eu1 1_555 1_555
O7 Eu1 1_555 1_555
O8 C19 1_555 1_555
O9 Eu1 1_555 1_555
O10 C20 1_555 1_555
O11 C21 1_555 1_555
O12 Eu1 1_555 1_555
O13 Eu2A_3 1_555 1_555
O14 Eu1 1_555 1_555
O15 Eu2 1_555 1_555
H13 O15 1_555 1_555
H14 O15 1_555 1_555
O16 Eu1 1_555 1_555
H15 O16 1_555 1_555
H16 O16 1_555 1_555
Eu1A O2 1_555 1_555
Eu2A O4 1_555 1_555
Eu2A_2 O8 1_555 1_555
Eu2A_3 O11 1_555 1_555
Ag1A O7 1_555 1_555
Ag1_2 O11 1_555 1_555
O2A Eu1 1_555 1_555
O4A Eu2 1_555 1_555
O7A Ag1 1_555 1_555
O8A Eu2 1_555 1_555
O8A_2 Ag1 1_555 1_555
O10A Eu2 1_555 1_555
O11A Eu2 1_555 1_555
O11_2 Ag1 1_555 1_555
O12_2 Ag1 1_555 1_555
O13A Eu2 1_555 1_555
C5 N1 1_555 1_555
C11 N2 1_555 1_555
C17 N3 1_555 1_555
C18 O5 1_555 1_555
C18 O6 1_555 1_555
C19 O7 1_555 1_555
C21 O12 1_555 1_555
C22 O14 1_555 1_555
O8 Ag1A 1_555 1_555
O10 Eu2A_2 1_555 1_555
O12 Ag1_2 1_555 1_555

#END
