
#######################################################################
#
#                 Cambridge Crystallographic Data Centre
#                                CCDC 
#
#######################################################################
#
# If this CIF has been generated from an entry in the Cambridge 
# Structural Database, then it will include bibliographic, chemical, 
# crystal, experimental, refinement or atomic coordinate data resulting 
# from the CCDC's data processing and validation procedures.
#
#######################################################################

data_RUBJAB
_symmetry_cell_setting           triclinic
_symmetry_space_group_name_H-M   'P -1'
_symmetry_Int_Tables_number      2
_space_group_name_Hall           '-P 1'
loop_
_symmetry_equiv_pos_site_id
_symmetry_equiv_pos_as_xyz
1 x,y,z
2 -x,-y,-z
_cell_length_a                   12.1946(7)
_cell_length_b                   12.5819(9)
_cell_length_c                   14.6838(9)
_cell_angle_alpha                72.430(4)
_cell_angle_beta                 69.157(4)
_cell_angle_gamma                62.887(4)
_cell_volume                     1847.52
loop_
_atom_site_label
_atom_site_type_symbol
_atom_site_fract_x
_atom_site_fract_y
_atom_site_fract_z
Mn1 Mn 1.14975(8) -0.00747(8) 0.16060(6)
Mn2 Mn 1.0000 0.0000 0.0000
C1 C 1.0803(5) 0.2013(5) 0.0337(4)
C2 C 1.0315(5) 0.3110(5) -0.0380(4)
C3 C 1.0996(6) 0.3850(6) -0.0848(4)
H1 H 1.1738 0.3666 -0.0655
C4 C 0.9605(5) 0.5047(5) -0.1790(4)
C5 C 0.8823(5) 0.4419(5) -0.1333(4)
H2 H 0.8048 0.4667 -0.1500
C6 C 0.9201(5) 0.3420(5) -0.0625(4)
H3 H 0.8699 0.2950 -0.0308
C7 C 0.6472(5) 0.7147(5) -0.2207(4)
C8 C 0.6538(5) 0.7476(5) -0.1426(4)
H4 H 0.7333 0.7351 -0.1351
C9 C 0.5415(5) 0.7993(5) -0.0756(4)
H5 H 0.5423 0.8219 -0.0197
C10 C 0.4270(5) 0.8185(5) -0.0895(4)
C11 C 0.4320(6) 0.7845(6) -0.1722(4)
H6 H 0.3536 0.7995 -0.1832
C12 C 0.3030(6) 0.8750(6) -0.0174(5)
C13 C 1.0139(7) -0.1598(6) 0.2209(4)
C14 C 0.9406(6) -0.2347(6) 0.2868(4)
C15 C 0.9895(6) -0.3324(6) 0.3566(4)
H7 H 1.0734 -0.3550 0.3608
C16 C 0.7996(6) -0.3606(6) 0.4084(4)
C17 C 0.7491(6) -0.2702(6) 0.3435(5)
H8 H 0.6654 -0.2496 0.3397
C18 C 0.8192(7) -0.2072(6) 0.2823(5)
H9 H 0.7840 -0.1416 0.2343
C19 C 0.5428(6) -0.3997(6) 0.3646(5)
C20 C 0.4185(6) -0.3768(6) 0.2668(5)
H10 H 0.3370 -0.3448 0.2544
C21 C 0.5225(5) -0.4441(6) 0.2016(4)
C22 C 0.6407(6) -0.4889(6) 0.2188(5)
H11 H 0.7141 -0.5345 0.1741
C23 C 0.6527(6) -0.4676(7) 0.3014(5)
H12 H 0.7336 -0.4984 0.3144
C24 C 0.5102(6) -0.4669(6) 0.1159(5)
C25 C 0.8699(6) 0.1421(6) 0.2894(5)
H13 H 0.8414 0.1390 0.2383
C26 C 0.7796(7) 0.1982(6) 0.3670(5)
H14 H 0.6915 0.2318 0.3695
C27 C 0.8198(7) 0.2042(6) 0.4403(5)
H15 H 0.7593 0.2426 0.4945
C28 C 0.9509(8) 0.1536(6) 0.4357(4)
C29 C 1.0353(6) 0.0972(5) 0.3529(4)
C30 C 1.1710(6) 0.0458(5) 0.3425(4)
C31 C 1.2205(8) 0.0530(7) 0.4127(5)
C32 C 1.1300(9) 0.1100(7) 0.4968(5)
H16 H 1.1606 0.1151 0.5458
C33 C 1.0025(9) 0.1563(7) 0.5071(5)
H17 H 0.9461 0.1917 0.5638
C34 C 1.3511(9) 0.0051(8) 0.3979(6)
H18 H 1.3864 0.0091 0.4443
C35 C 1.4283(8) -0.0468(7) 0.3186(6)
H19 H 1.5182 -0.0787 0.3080
C36 C 1.3743(6) -0.0536(6) 0.2508(5)
H20 H 1.4295 -0.0918 0.1952
N1 N 1.0665(4) 0.4794(4) -0.1544(3)
N2 N 0.5394(5) 0.7320(5) -0.2379(3)
N3 N 0.9193(5) -0.3966(5) 0.4192(4)
N4 N 0.4269(5) -0.3539(5) 0.3483(4)
N5 N 0.9946(5) 0.0920(4) 0.2815(3)
N6 N 1.2495(5) -0.0085(5) 0.2621(3)
O1 O 1.1673(4) 0.1843(4) 0.0687(3)
O2 O 1.0307(3) 0.1215(3) 0.0589(3)
O3 O 0.3090(4) 0.9043(4) 0.0553(3)
O4 O 0.2026(4) 0.8890(4) -0.0337(3)
O5 O 1.1102(4) -0.1684(4) 0.2406(3)
O6 O 0.9698(5) -0.0865(4) 0.1507(3)
O7 O 0.6098(4) -0.5252(5) 0.0561(3)
O8 O 0.3997(4) -0.4266(5) 0.1017(3)
S1 S 0.93402(14) 0.63069(14) -0.27686(11)
S2 S 0.78306(14) 0.64128(15) -0.31339(10)
S3 S 0.71737(17) -0.45414(18) 0.49071(12)
S4 S 0.53758(17) -0.36256(19) 0.47373(13)
H21 H 0.401(10) -0.455(9) 0.057(5)
Mn1A Mn -0.14975(8) 1.00747(8) -0.16060(6)
C1A C -0.0803(5) 0.7987(5) -0.0337(4)
C2A C -0.0315(5) 0.6890(5) 0.0380(4)
C3A C -0.0996(6) 0.6150(6) 0.0848(4)
H1A H -0.1738 0.6334 0.0655
C4A C 0.0395(5) 0.4953(5) 0.1790(4)
C5A C 0.1177(5) 0.5581(5) 0.1333(4)
H2A H 0.1952 0.5333 0.1500
C6A C 0.0799(5) 0.6580(5) 0.0625(4)
H3A H 0.1301 0.7050 0.0308
C7A C 0.3528(5) 0.2853(5) 0.2207(4)
C8A C 0.3462(5) 0.2524(5) 0.1426(4)
H4A H 0.2667 0.2649 0.1351
C9A C 0.4585(5) 0.2007(5) 0.0756(4)
H5A H 0.4577 0.1781 0.0197
C10A C 0.5730(5) 0.1815(5) 0.0895(4)
C11A C 0.5680(6) 0.2155(6) 0.1722(4)
H6A H 0.6464 0.2005 0.1832
C12A C 0.6970(6) 0.1250(6) 0.0174(5)
C13A C -0.0139(7) 1.1598(6) -0.2209(4)
C14A C 0.0594(6) 1.2347(6) -0.2868(4)
C15A C 0.0105(6) 1.3324(6) -0.3566(4)
H7A H -0.0734 1.3550 -0.3608
C16A C 0.2004(6) 1.3606(6) -0.4084(4)
C17A C 0.2509(6) 1.2702(6) -0.3435(5)
H8A H 0.3346 1.2496 -0.3397
C18A C 0.1808(7) 1.2072(6) -0.2823(5)
H9A H 0.2160 1.1416 -0.2343
C19A C 0.4572(6) 1.3997(6) -0.3646(5)
C20A C 0.5815(6) 1.3768(6) -0.2668(5)
H10A H 0.6630 1.3448 -0.2544
C21A C 0.4775(5) 1.4441(6) -0.2016(4)
C22A C 0.3593(6) 1.4889(6) -0.2188(5)
H11A H 0.2859 1.5345 -0.1741
C23A C 0.3473(6) 1.4676(7) -0.3014(5)
H12A H 0.2664 1.4984 -0.3144
C24A C 0.4898(6) 1.4669(6) -0.1159(5)
C25A C 0.1301(6) 0.8579(6) -0.2894(5)
H13A H 0.1586 0.8610 -0.2383
C26A C 0.2204(7) 0.8018(6) -0.3670(5)
H14A H 0.3085 0.7682 -0.3695
C27A C 0.1802(7) 0.7958(6) -0.4403(5)
H15A H 0.2407 0.7574 -0.4945
C28A C 0.0491(8) 0.8464(6) -0.4357(4)
C29A C -0.0353(6) 0.9028(5) -0.3529(4)
C30A C -0.1710(6) 0.9542(5) -0.3425(4)
C31A C -0.2205(8) 0.9470(7) -0.4127(5)
C32A C -0.1300(9) 0.8900(7) -0.4968(5)
H16A H -0.1606 0.8849 -0.5458
C33A C -0.0025(9) 0.8437(7) -0.5071(5)
H17A H 0.0539 0.8083 -0.5638
C34A C -0.3511(9) 0.9949(8) -0.3979(6)
H18A H -0.3864 0.9909 -0.4443
C35A C -0.4283(8) 1.0468(7) -0.3186(6)
H19A H -0.5182 1.0787 -0.3080
C36A C -0.3743(6) 1.0536(6) -0.2508(5)
H20A H -0.4295 1.0918 -0.1952
N1A N -0.0665(4) 0.5206(4) 0.1544(3)
N2A N 0.4606(5) 0.2680(5) 0.2379(3)
N3A N 0.0807(5) 1.3966(5) -0.4192(4)
N4A N 0.5731(5) 1.3539(5) -0.3483(4)
N5A N 0.0054(5) 0.9080(4) -0.2815(3)
N6A N -0.2495(5) 1.0085(5) -0.2621(3)
O1A O -0.1673(4) 0.8157(4) -0.0687(3)
O2A O -0.0307(3) 0.8785(3) -0.0589(3)
O3A O 0.6910(4) 0.0957(4) -0.0553(3)
O4A O 0.7974(4) 0.1110(4) 0.0337(3)
O5A O -0.1102(4) 1.1684(4) -0.2406(3)
O6A O 0.0302(5) 1.0865(4) -0.1507(3)
O7A O 0.3902(4) 1.5252(5) -0.0561(3)
O8A O 0.6003(4) 1.4266(5) -0.1017(3)
S1A S 0.06598(14) 0.36931(14) 0.27686(11)
S2A S 0.21694(14) 0.35872(15) 0.31339(10)
S3A S 0.28263(17) 1.45414(18) -0.49071(12)
S4A S 0.46242(17) 1.36256(19) -0.47373(13)
H21A H 0.599(10) 1.455(9) -0.057(5)
Mn1_2 Mn 0.14975(8) 0.99253(8) 0.16060(6)
Mn1A_2 Mn 0.85025(8) 0.00747(8) -0.16060(6)
Mn2_2 Mn 0.0000 1.0000 0.0000
O2A_2 O 0.9693(3) -0.1215(3) -0.0589(3)
O3_2 O 1.3090(4) -0.0957(4) 0.0553(3)
O3A_2 O -0.3090(4) 1.0957(4) -0.0553(3)
O4_2 O 1.2026(4) -0.1110(4) -0.0337(3)
O6A_2 O 1.0302(5) 0.0865(4) -0.1507(3)
O9 O 1.639(3) -0.148(5) 0.106(3)
O10 O 1.487(2) 0.139(2) 0.4418(18)
loop_
_geom_bond_atom_site_label_1
_geom_bond_atom_site_label_2
_geom_bond_site_symmetry_1
_geom_bond_site_symmetry_2
Mn1 N5 1_555 1_555
Mn2 O2 1_555 1_555
C1 C2 1_555 1_555
C2 C3 1_555 1_555
C3 H1 1_555 1_555
C4 C5 1_555 1_555
C5 H2 1_555 1_555
C6 C2 1_555 1_555
H3 C6 1_555 1_555
C7 C8 1_555 1_555
C8 H4 1_555 1_555
C9 C8 1_555 1_555
H5 C9 1_555 1_555
C10 C9 1_555 1_555
C11 C10 1_555 1_555
H6 C11 1_555 1_555
C12 C10 1_555 1_555
C13 C14 1_555 1_555
C14 C15 1_555 1_555
C15 H7 1_555 1_555
C16 C17 1_555 1_555
C17 H8 1_555 1_555
C18 C14 1_555 1_555
H9 C18 1_555 1_555
C19 C23 1_555 1_555
C20 H10 1_555 1_555
C21 C20 1_555 1_555
C22 C21 1_555 1_555
H11 C22 1_555 1_555
C23 C22 1_555 1_555
H12 C23 1_555 1_555
C24 C21 1_555 1_555
C25 H13 1_555 1_555
C26 C25 1_555 1_555
H14 C26 1_555 1_555
C27 C26 1_555 1_555
H15 C27 1_555 1_555
C28 C27 1_555 1_555
C29 C28 1_555 1_555
C30 C29 1_555 1_555
C31 C30 1_555 1_555
C32 C31 1_555 1_555
H16 C32 1_555 1_555
C33 C28 1_555 1_555
H17 C33 1_555 1_555
C34 C31 1_555 1_555
H18 C34 1_555 1_555
C35 C34 1_555 1_555
H19 C35 1_555 1_555
C36 C35 1_555 1_555
H20 C36 1_555 1_555
N1 C3 1_555 1_555
N2 C7 1_555 1_555
N3 C15 1_555 1_555
N4 C19 1_555 1_555
N5 C25 1_555 1_555
N6 Mn1 1_555 1_555
O1 Mn1 1_555 1_555
O2 Mn1 1_555 1_555
O3 C12 1_555 1_555
O4 C12 1_555 1_555
O5 Mn1 1_555 1_555
O6 Mn2 1_555 1_555
O7 C24 1_555 1_555
O8 C24 1_555 1_555
S1 C4 1_555 1_555
S2 C7 1_555 1_555
S3 C16 1_555 1_555
S4 C19 1_555 1_555
H21 O8 1_555 1_555
Mn1A N5A 1_555 1_555
C1A C2A 1_555 1_555
C2A C3A 1_555 1_555
C3A H1A 1_555 1_555
C4A C5A 1_555 1_555
C5A H2A 1_555 1_555
C6A C2A 1_555 1_555
H3A C6A 1_555 1_555
C7A C8A 1_555 1_555
C8A H4A 1_555 1_555
C9A C8A 1_555 1_555
H5A C9A 1_555 1_555
C10A C9A 1_555 1_555
C11A C10A 1_555 1_555
H6A C11A 1_555 1_555
C12A C10A 1_555 1_555
C13A C14A 1_555 1_555
C14A C15A 1_555 1_555
C15A H7A 1_555 1_555
C16A C17A 1_555 1_555
C17A H8A 1_555 1_555
C18A C14A 1_555 1_555
H9A C18A 1_555 1_555
C19A C23A 1_555 1_555
C20A H10A 1_555 1_555
C21A C20A 1_555 1_555
C22A C21A 1_555 1_555
H11A C22A 1_555 1_555
C23A C22A 1_555 1_555
H12A C23A 1_555 1_555
C24A C21A 1_555 1_555
C25A H13A 1_555 1_555
C26A C25A 1_555 1_555
H14A C26A 1_555 1_555
C27A C26A 1_555 1_555
H15A C27A 1_555 1_555
C28A C27A 1_555 1_555
C29A C28A 1_555 1_555
C30A C29A 1_555 1_555
C31A C30A 1_555 1_555
C32A C31A 1_555 1_555
H16A C32A 1_555 1_555
C33A C28A 1_555 1_555
H17A C33A 1_555 1_555
C34A C31A 1_555 1_555
H18A C34A 1_555 1_555
C35A C34A 1_555 1_555
H19A C35A 1_555 1_555
C36A C35A 1_555 1_555
H20A C36A 1_555 1_555
N1A C3A 1_555 1_555
N2A C7A 1_555 1_555
N3A C15A 1_555 1_555
N4A C19A 1_555 1_555
N5A C25A 1_555 1_555
N6A Mn1A 1_555 1_555
O1A Mn1A 1_555 1_555
O2A Mn1A 1_555 1_555
O3A C12A 1_555 1_555
O4A Mn2 1_555 1_555
O5A Mn1A 1_555 1_555
O6A C13A 1_555 1_555
O7A C24A 1_555 1_555
O8A C24A 1_555 1_555
S1A C4A 1_555 1_555
S2A C7A 1_555 1_555
S3A C16A 1_555 1_555
S4A C19A 1_555 1_555
H21A O8A 1_555 1_555
Mn1_2 O3 1_555 1_555
Mn1A_2 O3A 1_555 1_555
Mn2_2 O4 1_555 1_555
O2A_2 Mn2 1_555 1_555
O3_2 Mn1 1_555 1_555
O3A_2 Mn1A 1_555 1_555
O4_2 Mn2 1_555 1_555
O6A_2 Mn2 1_555 1_555
C1 O1 1_555 1_555
C1 O2 1_555 1_555
C4 N1 1_555 1_555
C5 C6 1_555 1_555
C11 N2 1_555 1_555
C13 O5 1_555 1_555
C13 O6 1_555 1_555
C16 N3 1_555 1_555
C17 C18 1_555 1_555
C20 N4 1_555 1_555
C29 N5 1_555 1_555
C30 N6 1_555 1_555
C32 C33 1_555 1_555
C36 N6 1_555 1_555
S1 S2 1_555 1_555
S3 S4 1_555 1_555
C1A O1A 1_555 1_555
C1A O2A 1_555 1_555
C4A N1A 1_555 1_555
C5A C6A 1_555 1_555
C11A N2A 1_555 1_555
C12A O4A 1_555 1_555
C13A O5A 1_555 1_555
C16A N3A 1_555 1_555
C17A C18A 1_555 1_555
C20A N4A 1_555 1_555
C29A N5A 1_555 1_555
C30A N6A 1_555 1_555
C32A C33A 1_555 1_555
C36A N6A 1_555 1_555
O2A Mn2_2 1_555 1_555
O6A Mn2_2 1_555 1_555
S1A S2A 1_555 1_555
S3A S4A 1_555 1_555
Mn1A_2 O2A_2 1_555 1_555

#END
