
#######################################################################
#
#                 Cambridge Crystallographic Data Centre
#                                CCDC 
#
#######################################################################
#
# If this CIF has been generated from an entry in the Cambridge 
# Structural Database, then it will include bibliographic, chemical, 
# crystal, experimental, refinement or atomic coordinate data resulting 
# from the CCDC's data processing and validation procedures.
#
#######################################################################

data_RUBJOO
_symmetry_cell_setting           monoclinic
_symmetry_space_group_name_H-M   'C 2/c'
_symmetry_Int_Tables_number      15
_space_group_name_Hall           '-C 2yn'
loop_
_symmetry_equiv_pos_site_id
_symmetry_equiv_pos_as_xyz
1 x,y,z
2 -x,y,1/2-z
3 1/2+x,1/2+y,z
4 1/2-x,1/2+y,1/2-z
5 -x,-y,-z
6 x,-y,1/2+z
7 1/2-x,1/2-y,-z
8 1/2+x,1/2-y,1/2+z
_cell_length_a                   22.4844(19)
_cell_length_b                   6.4361(5)
_cell_length_c                   8.1194(7)
_cell_angle_alpha                90
_cell_angle_beta                 102.595(2)
_cell_angle_gamma                90
_cell_volume                     1146.7
loop_
_atom_site_label
_atom_site_type_symbol
_atom_site_fract_x
_atom_site_fract_y
_atom_site_fract_z
Zn1 Zn 0.5000 0.05133(7) 0.7500
P1 P 0.42748(3) 0.26277(12) 1.00325(9)
C1 C 0.35705(14) 0.2315(6) 0.8529(4)
C2 C 0.30179(13) 0.2411(5) 0.9282(4)
C3 C 0.27807(15) 0.0629(5) 0.9865(4)
H1 H 0.2967 -0.0644 0.9780
C4 C 0.27275(15) 0.4288(5) 0.9430(4)
H2 H 0.2876 0.5505 0.9050
O1 O 0.42579(12) 0.4890(4) 1.0742(4)
O2 O 0.48085(9) 0.2476(3) 0.9156(3)
O3 O 0.43014(10) 0.1077(4) 1.1434(3)
H3 H 0.3550(19) 0.340(7) 0.778(5)
H4 H 0.3603(18) 0.098(6) 0.805(5)
Zn1D Zn 0.5000 -0.05133(7) 1.2500
Zn1F Zn 0.0000 0.44867(7) 1.2500
Zn1B Zn 0.0000 0.55133(7) 0.7500
P1F P 0.07252(3) 0.23723(12) 0.99675(9)
C1F C 0.14295(14) 0.2685(6) 1.1471(4)
C2F C 0.19821(13) 0.2589(5) 1.0718(4)
C3F C 0.22193(15) 0.4371(5) 1.0135(4)
H1F H 0.2033 0.5644 1.0220
C4F C 0.22725(15) 0.0712(5) 1.0570(4)
H2F H 0.2124 -0.0505 1.0950
O1F O 0.07421(12) 0.0110(4) 0.9258(4)
O2F O 0.01915(9) 0.2524(3) 1.0844(3)
O2A O 0.51915(9) 0.2476(3) 0.5844(3)
O3F O 0.06986(10) 0.3923(4) 0.8566(3)
O3D O 0.56986(10) -0.1077(4) 0.8566(3)
O3E O 0.43014(10) -0.1077(4) 0.6434(3)
H3F H 0.1450(19) 0.160(7) 1.222(5)
H4F H 0.1397(18) 0.402(6) 1.195(5)
loop_
_geom_bond_atom_site_label_1
_geom_bond_atom_site_label_2
_geom_bond_site_symmetry_1
_geom_bond_site_symmetry_2
Zn1 O2 1_555 1_555
P1 C1 1_555 1_555
C1 C2 1_555 1_555
C2 C3 1_555 1_555
C3 H1 1_555 1_555
C4 C2 1_555 1_555
H2 C4 1_555 1_555
O1 P1 1_555 1_555
O2 P1 1_555 1_555
O3 P1 1_555 1_555
H3 C1 1_555 1_555
H4 C1 1_555 1_555
Zn1D O3 1_555 1_555
Zn1F O2F 1_555 1_555
Zn1B O3F 1_555 1_555
P1F C1F 1_555 1_555
C1F C2F 1_555 1_555
C2F C3F 1_555 1_555
C3F C4 1_555 1_555
H1F C3F 1_555 1_555
C4F C3 1_555 1_555
H2F C4F 1_555 1_555
O1F P1F 1_555 1_555
O2F P1F 1_555 1_555
O2A Zn1 1_555 1_555
O3F P1F 1_555 1_555
O3D Zn1 1_555 1_555
O3E Zn1 1_555 1_555
H3F C1F 1_555 1_555
H4F C1F 1_555 1_555
C2F C4F 1_555 1_555

#END
