
#######################################################################
#
#                 Cambridge Crystallographic Data Centre
#                                CCDC 
#
#######################################################################
#
# If this CIF has been generated from an entry in the Cambridge 
# Structural Database, then it will include bibliographic, chemical, 
# crystal, experimental, refinement or atomic coordinate data resulting 
# from the CCDC's data processing and validation procedures.
#
#######################################################################

data_RUBJAA
_symmetry_cell_setting           triclinic
_symmetry_space_group_name_H-M   'P -1'
_symmetry_Int_Tables_number      2
_space_group_name_Hall           '-P 1'
loop_
_symmetry_equiv_pos_site_id
_symmetry_equiv_pos_as_xyz
1 x,y,z
2 -x,-y,-z
_cell_length_a                   11.304(2)
_cell_length_b                   11.532(2)
_cell_length_c                   12.457(3)
_cell_angle_alpha                103.120(14)
_cell_angle_beta                 114.730(14)
_cell_angle_gamma                102.403(14)
_cell_volume                     1345.5
loop_
_atom_site_label
_atom_site_type_symbol
_atom_site_fract_x
_atom_site_fract_y
_atom_site_fract_z
Dy1 Dy -0.25004(3) 0.49634(3) -0.11613(3)
Dy2 Dy -0.76590(3) 0.48064(3) -0.39422(3)
Ag1 Ag -0.09109(9) 1.27031(7) 0.16558(13)
C1 C 0.3078(11) 1.0248(10) 0.3937(10)
H1 H 0.4018 1.0637 0.4533
C2 C 0.2599(10) 0.8975(9) 0.3190(9)
H2 H 0.3202 0.8522 0.3299
C3 C 0.1204(8) 0.8390(7) 0.2280(7)
C4 C 0.0349(10) 0.9101(9) 0.2188(9)
H3 H -0.0595 0.8738 0.1600
C5 C 0.0922(11) 1.0378(10) 0.2994(10)
H4 H 0.0341 1.0851 0.2932
C6 C 0.0656(8) 0.7057(8) 0.1347(8)
C7 C -1.4284(10) 0.0156(8) -0.7017(11)
H5 H -1.5228 0.0032 -0.7382
C8 C -1.3339(9) 0.1394(8) -0.6426(9)
H6 H -1.3649 0.2079 -0.6418
C9 C -1.1922(9) 0.1596(8) -0.5847(8)
C10 C -1.1549(10) 0.0523(9) -0.5910(10)
H7 H -1.0613 0.0613 -0.5536
C11 C -1.2548(12) -0.0672(9) -0.6520(12)
H8 H -1.2265 -0.1373 -0.6536
C12 C -1.0858(8) 0.2903(7) -0.5253(7)
C13 C -0.1742(11) 1.0034(10) -0.0244(11)
H9 H -0.0992 1.0455 -0.0313
C14 C -0.2479(10) 0.8783(10) -0.0977(10)
H10 H -0.2213 0.8361 -0.1518
C15 C -0.3620(9) 0.8140(8) -0.0921(8)
C16 C -0.3950(10) 0.8793(9) -0.0081(10)
H11 H -0.4704 0.8394 -0.0007
C17 C -0.3140(11) 1.0053(9) 0.0652(11)
H12 H -0.3365 1.0482 0.1226
C18 C -0.4509(9) 0.6784(8) -0.1774(7)
C19 C -0.1825(8) 0.5612(8) -0.3255(8)
C20 C -0.3229(8) 0.4473(8) -0.4087(7)
C21 C -0.1996(8) 0.4693(7) 0.1460(7)
C22 C -0.2815(9) 0.5616(8) 0.1342(8)
N1 N 0.2263(9) 1.0934(8) 0.3840(8)
N2 N -1.3898(9) -0.0866(8) -0.7086(9)
N3 N -0.2064(8) 1.0684(7) 0.0584(9)
O1 O -0.0548(7) 0.6680(6) 0.0457(6)
O2 O 0.1447(7) 0.6443(7) 0.1557(6)
O3 O -0.9603(6) 0.3018(6) -0.4645(6)
O4 O -1.1287(7) 0.3795(6) -0.5416(6)
O5 O -0.5782(6) 0.6517(6) -0.2224(6)
O6 O -0.3918(8) 0.6042(6) -0.2008(6)
O7 O -0.1340(6) 0.5986(6) -0.2086(5)
O8 O -0.1264(6) 0.6091(6) -0.3803(5)
O9 O -0.3712(6) 0.3972(6) -0.3488(5)
O10 O -0.3704(6) 0.4144(6) -0.5246(5)
O11 O -0.1604(6) 0.4446(6) 0.2459(6)
O12 O -0.1814(7) 0.4239(6) 0.0568(6)
O13 O -0.3059(6) 0.5999(6) 0.2224(5)
O14 O -0.3182(7) 0.5878(6) 0.0359(6)
O15 O -0.6545(6) 0.3380(6) -0.4357(6)
H13 H -0.6231 0.3414 -0.4860
H14 H -0.6453 0.2836 -0.4003
O16 O -0.4551(6) 0.3412(6) -0.1666(6)
H15 H -0.5152 0.2986 -0.2426
H16 H -0.4685 0.3271 -0.1085
Dy1A Dy 0.25004(3) 0.50366(3) 0.11613(3)
Dy2A Dy -1.23410(3) 0.51936(3) -0.60578(3)
Dy2A_2 Dy -0.23410(3) 0.51936(3) -0.60578(3)
Dy2A_3 Dy -0.23410(3) 0.51936(3) 0.39422(3)
Ag1A Ag 0.09109(9) 0.72969(7) -0.16558(13)
Ag1_2 Ag -0.09109(9) 0.27031(7) 0.16558(13)
O2A O -0.1447(7) 0.3557(7) -0.1557(6)
O4A O -0.8713(7) 0.6205(6) -0.4584(6)
O7A O 0.1340(6) 1.4014(6) 0.2086(5)
O8A O -0.8736(6) 0.3909(6) -0.6197(5)
O8A_2 O 0.1264(6) 1.3909(6) 0.3803(5)
O10A O -0.6296(6) 0.5856(6) -0.4754(5)
O11A O -0.8396(6) 0.5554(6) -0.2459(6)
O11_2 O -0.1604(6) 1.4446(6) 0.2459(6)
O12_2 O -0.1814(7) 1.4239(6) 0.0568(6)
O13A O -0.6941(6) 0.4001(6) -0.2224(5)
loop_
_geom_bond_atom_site_label_1
_geom_bond_atom_site_label_2
_geom_bond_site_symmetry_1
_geom_bond_site_symmetry_2
Dy1 O1 1_555 1_555
Dy2 O3 1_555 1_555
Ag1 N3 1_555 1_555
C1 H1 1_555 1_555
C2 C1 1_555 1_555
H2 C2 1_555 1_555
C3 C2 1_555 1_555
C4 C3 1_555 1_555
H3 C4 1_555 1_555
C5 C4 1_555 1_555
H4 C5 1_555 1_555
C6 C3 1_555 1_555
C7 H5 1_555 1_555
C8 C7 1_555 1_555
H6 C8 1_555 1_555
C9 C8 1_555 1_555
C10 C9 1_555 1_555
H7 C10 1_555 1_555
C11 C10 1_555 1_555
H8 C11 1_555 1_555
C12 C9 1_555 1_555
C13 H9 1_555 1_555
C14 C13 1_555 1_555
H10 C14 1_555 1_555
C15 C14 1_555 1_555
C16 C15 1_555 1_555
H11 C16 1_555 1_555
C17 C16 1_555 1_555
H12 C17 1_555 1_555
C18 C15 1_555 1_555
C19 C20 1_555 1_555
C20 O9 1_555 1_555
C21 C22 1_555 1_555
C22 O13 1_555 1_555
N1 C1 1_555 1_555
N2 C7 1_555 1_555
N3 C13 1_555 1_555
O1 C6 1_555 1_555
O2 C6 1_555 1_555
O3 C12 1_555 1_555
O4 C12 1_555 1_555
O5 Dy2 1_555 1_555
O6 Dy1 1_555 1_555
O7 Dy1 1_555 1_555
O8 C19 1_555 1_555
O9 Dy1 1_555 1_555
O10 C20 1_555 1_555
O11 C21 1_555 1_555
O12 Dy1 1_555 1_555
O13 Dy2A_3 1_555 1_555
O14 Dy1 1_555 1_555
O15 Dy2 1_555 1_555
H13 O15 1_555 1_555
H14 O15 1_555 1_555
O16 Dy1 1_555 1_555
H15 O16 1_555 1_555
H16 O16 1_555 1_555
Dy1A O2 1_555 1_555
Dy2A O4 1_555 1_555
Dy2A_2 O8 1_555 1_555
Dy2A_3 O11 1_555 1_555
Ag1A O7 1_555 1_555
Ag1_2 O11 1_555 1_555
O2A Dy1 1_555 1_555
O4A Dy2 1_555 1_555
O7A Ag1 1_555 1_555
O8A Dy2 1_555 1_555
O8A_2 Ag1 1_555 1_555
O10A Dy2 1_555 1_555
O11A Dy2 1_555 1_555
O11_2 Ag1 1_555 1_555
O12_2 Ag1 1_555 1_555
O13A Dy2 1_555 1_555
C5 N1 1_555 1_555
C11 N2 1_555 1_555
C17 N3 1_555 1_555
C18 O5 1_555 1_555
C18 O6 1_555 1_555
C19 O7 1_555 1_555
C21 O12 1_555 1_555
C22 O14 1_555 1_555
O8 Ag1A 1_555 1_555
O10 Dy2A_2 1_555 1_555
O12 Ag1_2 1_555 1_555

#END
