
#######################################################################
#
#                 Cambridge Crystallographic Data Centre
#                                CCDC 
#
#######################################################################
#
# If this CIF has been generated from an entry in the Cambridge 
# Structural Database, then it will include bibliographic, chemical, 
# crystal, experimental, refinement or atomic coordinate data resulting 
# from the CCDC's data processing and validation procedures.
#
#######################################################################

data_RUBJUU
_symmetry_cell_setting           monoclinic
_symmetry_space_group_name_H-M   'C 2/m'
_symmetry_Int_Tables_number      12
_space_group_name_Hall           '-C 2y'
loop_
_symmetry_equiv_pos_site_id
_symmetry_equiv_pos_as_xyz
1 x,y,z
2 -x,y,-z
3 1/2+x,1/2+y,z
4 1/2-x,1/2+y,-z
5 -x,-y,-z
6 x,-y,z
7 1/2-x,1/2-y,-z
8 1/2+x,1/2-y,z
_cell_length_a                   14.982(2)
_cell_length_b                   7.477(1)
_cell_length_c                   5.492(1)
_cell_angle_alpha                90
_cell_angle_beta                 95.17(1)
_cell_angle_gamma                90
_cell_volume                     612.713
loop_
_atom_site_label
_atom_site_type_symbol
_atom_site_fract_x
_atom_site_fract_y
_atom_site_fract_z
Co1 Co 0.0000 0.0000 0.0000
O1 O 0.00928(7) -0.17908(13) -0.29565(18)
C1 C 0.0000 -0.1029(3) -0.5000
N1 N 0.13967(13) 0.0000 0.0708(3)
N2 N 0.18569(15) 0.0000 0.3000(4)
C2 C 0.2702(2) 0.0000 0.2641(5)
H1 H 0.3166 0.0000 0.3888
N3 N 0.28245(15) 0.0000 0.0258(4)
H2 H 0.336(2) 0.0000 -0.050(5)
C3 C 0.19994(17) 0.0000 -0.0869(5)
H3 H 0.1869 0.0000 -0.2557
Co1_2 Co 0.0000 0.0000 -1.0000
O1A O -0.00928(7) -0.17908(13) -0.70435(18)
O1D O -0.00928(7) 0.17908(13) -0.70435(18)
O1E O 0.00928(7) 0.17908(13) -0.29565(18)
O1A_2 O -0.00928(7) -0.17908(13) 0.29565(18)
O1D_2 O -0.00928(7) 0.17908(13) 0.29565(18)
C1D C 0.0000 0.1029(3) -0.5000
N1A N -0.13967(13) 0.0000 -0.0708(3)
N2A N -0.18569(15) 0.0000 -0.3000(4)
C2A C -0.2702(2) 0.0000 -0.2641(5)
H1A H -0.3166 0.0000 -0.3888
N3A N -0.28245(15) 0.0000 -0.0258(4)
H2A H -0.336(2) 0.0000 0.050(5)
C3A C -0.19994(17) 0.0000 0.0869(5)
H3A H -0.1869 0.0000 0.2557
O2 O 0.42035(13) 0.0000 -0.2539(4)
H4 H 0.4523(13) 0.086(2) -0.264(4)
H4E H 0.4523(13) -0.086(2) -0.264(4)
loop_
_geom_bond_atom_site_label_1
_geom_bond_atom_site_label_2
_geom_bond_site_symmetry_1
_geom_bond_site_symmetry_2
Co1 O1 1_555 1_555
O1 C1 1_555 1_555
C1 O1A 1_555 1_555
N1 Co1 1_555 1_555
N2 N1 1_555 1_555
C2 N2 1_555 1_555
H1 C2 1_555 1_555
N3 C2 1_555 1_555
H2 N3 1_555 1_555
C3 N1 1_555 1_555
H3 C3 1_555 1_555
O2 H4 1_555 1_555
Co1_2 O1A 1_555 1_555
O1D Co1_2 1_555 1_555
O1E Co1 1_555 1_555
O1A_2 Co1 1_555 1_555
O1D_2 Co1 1_555 1_555
C1D C1 1_555 1_555
N1A Co1 1_555 1_555
N2A N1A 1_555 1_555
C2A N2A 1_555 1_555
H1A C2A 1_555 1_555
N3A C2A 1_555 1_555
H2A N3A 1_555 1_555
C3A N1A 1_555 1_555
H3A C3A 1_555 1_555
H4E O2 1_555 1_555
N3 C3 1_555 1_555
O1D C1D 1_555 1_555
O1E C1D 1_555 1_555
N3A C3A 1_555 1_555

#END
