
#######################################################################
#
#                 Cambridge Crystallographic Data Centre
#                                CCDC 
#
#######################################################################
#
# If this CIF has been generated from an entry in the Cambridge 
# Structural Database, then it will include bibliographic, chemical, 
# crystal, experimental, refinement or atomic coordinate data resulting 
# from the CCDC's data processing and validation procedures.
#
#######################################################################

data_RUBKAC
_symmetry_cell_setting           triclinic
_symmetry_space_group_name_H-M   'P -1'
_symmetry_Int_Tables_number      2
_space_group_name_Hall           '-P 1'
loop_
_symmetry_equiv_pos_site_id
_symmetry_equiv_pos_as_xyz
1 x,y,z
2 -x,-y,-z
_cell_length_a                   13.498(14)
_cell_length_b                   15.220(16)
_cell_length_c                   20.51(2)
_cell_angle_alpha                90.775(13)
_cell_angle_beta                 97.172(18)
_cell_angle_gamma                111.158(13)
_cell_volume                     3890.95
loop_
_atom_site_label
_atom_site_type_symbol
_atom_site_fract_x
_atom_site_fract_y
_atom_site_fract_z
Mn1 Mn -0.12538(13) 0.40945(11) -0.16491(7)
Mn2 Mn 0.0000 0.5000 0.0000
Mn3 Mn 0.07359(13) 0.25600(11) 0.51075(7)
Mn4 Mn 0.0000 0.0000 0.5000
C1 C -0.2168(9) 0.2098(7) -0.0100(4)
C2 C -0.1544(9) 0.1868(8) 0.0425(5)
H1 H -0.0797 0.2222 0.0527
C3 C -0.2032(9) 0.1131(8) 0.0780(5)
H2 H -0.1641 0.0962 0.1142
C4 C -0.3073(10) 0.0652(7) 0.0607(5)
C5 C -0.3261(9) 0.1544(8) -0.0275(5)
H3 H -0.3668 0.1675 -0.0647
C6 C -0.1636(9) 0.2944(7) -0.0493(6)
C7 C -0.1007(8) 0.1058(7) 0.3386(4)
C8 C -0.1762(8) 0.1311(7) 0.2980(4)
H4 H -0.1894 0.1859 0.3103
C9 C -0.2313(8) 0.0796(7) 0.2413(4)
H5 H -0.2811 0.0986 0.2139
C10 C -0.2130(8) -0.0020(7) 0.2245(4)
C11 C -0.0843(8) 0.0284(7) 0.3187(5)
H6 H -0.0328 0.0106 0.3455
C12 C -0.0431(9) 0.1576(8) 0.4002(5)
C13 C 0.1783(10) 0.6142(8) -0.1418(6)
C14 C 0.2523(10) 0.6159(7) -0.0880(6)
H7 H 0.2319 0.5710 -0.0558
C15 C 0.3592(10) 0.6846(9) -0.0804(6)
H8 H 0.4090 0.6880 -0.0425
C16 C 0.3879(9) 0.7459(8) -0.1298(6)
C17 C 0.2215(11) 0.6819(9) -0.1903(6)
H9 H 0.1744 0.6811 -0.2290
C18 C 0.0688(10) 0.5454(8) -0.1534(7)
C19 C 0.7551(8) 0.6151(8) -0.0828(6)
C20 C 0.7014(8) 0.6388(7) -0.1358(5)
H10 H 0.6977 0.6099 -0.1779
C21 C 0.6510(8) 0.7043(8) -0.1308(5)
H11 H 0.6163 0.7239 -0.1678
C22 C 0.6569(8) 0.7381(7) -0.0656(7)
C23 C 0.7588(9) 0.6571(8) -0.0176(6)
H12 H 0.7945 0.6395 0.0200
C24 C 0.8083(8) 0.5433(8) -0.0893(6)
C25 C 0.3042(8) 0.1539(7) 0.6307(5)
C26 C 0.3386(8) 0.0808(7) 0.6356(5)
H13 H 0.3057 0.0265 0.6060
C27 C 0.4719(8) 0.1649(8) 0.7260(5)
N1 N 0.4381(7) 0.2367(6) 0.7226(4)
C28 C 0.3579(8) 0.2323(8) 0.6736(5)
H14 H 0.3379 0.2859 0.6688
C29 C 0.2093(9) 0.1527(9) 0.5819(5)
C30 C 0.8302(9) 0.1053(9) 0.6398(5)
C31 C 0.7904(10) 0.0155(9) 0.6676(6)
H15 H 0.8089 -0.0361 0.6546
C32 C 0.7255(11) 0.0089(9) 0.7133(6)
H16 H 0.6994 -0.0485 0.7345
C33 C 0.6946(9) 0.0839(10) 0.7308(5)
C34 C 0.7974(9) 0.1755(8) 0.6579(5)
H17 H 0.8233 0.2336 0.6375
C35 C 0.9036(11) 0.1178(9) 0.5913(6)
N2 N -0.3724(7) 0.0816(6) 0.0098(4)
N3 N -0.1375(7) -0.0276(5) 0.2614(4)
N4 N 0.3219(9) 0.7450(7) -0.1847(5)
N5 N 0.7120(8) 0.7206(7) -0.0103(4)
C36 C 0.4230(7) 0.0855(8) 0.6846(5)
H18 H 0.4462 0.0337 0.6891
N6 N 0.7307(7) 0.1682(6) 0.7028(4)
O1 O -0.0751(6) 0.3505(5) -0.0184(3)
O2 O -0.2102(6) 0.3043(5) -0.1025(3)
O3 O 0.0164(5) 0.1248(4) 0.4401(3)
O4 O -0.0402(6) 0.2414(5) 0.4129(3)
O5 O 0.0129(6) 0.5320(5) -0.2080(4)
O6 O 0.0342(6) 0.4986(5) -0.1030(3)
O7 O 0.8049(5) 0.5108(5) -0.1450(4)
O8 O 0.8534(5) 0.5239(5) -0.0333(3)
O9 O 0.1842(5) 0.2252(5) 0.5796(3)
O10 O 0.1589(6) 0.0749(5) 0.5477(3)
O11 O 0.9320(6) 0.0508(5) 0.5742(3)
O12 O 0.9386(5) 0.1992(5) 0.5640(3)
O13 O -0.2232(5) 0.3639(4) -0.2597(3)
O14 O 0.2103(6) 0.3259(6) 0.4572(3)
S1 S -0.2713(2) -0.0765(2) 0.15396(13)
S2 S -0.3857(2) -0.03123(19) 0.10881(13)
S3 S 0.5146(2) 0.8391(2) -0.12879(17)
S4 S 0.6049(3) 0.8267(2) -0.04294(18)
S5 S 0.5714(2) 0.1841(2) 0.79219(12)
S6 S 0.6091(2) 0.0658(2) 0.79045(13)
O15 O 0.0759(8) 0.3930(6) 0.5430(4)
C37 C -0.0099(13) 0.3977(11) 0.5458(7)
H19 H -0.0652 0.3496 0.5183
N7 N -0.0504(12) 0.4554(10) 0.5788(8)
C38 C 0.0313(17) 0.5158(13) 0.6263(8)
H20 H 0.0034 0.5566 0.6495
H21 H 0.0914 0.5548 0.6045
H22 H 0.0561 0.4779 0.6580
C39 C -0.1577(14) 0.4567(14) 0.5667(11)
H23 H -0.1642 0.5039 0.5972
H24 H -0.2097 0.3942 0.5734
H25 H -0.1721 0.4727 0.5213
O16 O -0.0485(9) 0.3179(9) -0.1906(6)
C40 C 0.0192(14) 0.3166(16) -0.2145(11)
H26 H 0.0173 0.3532 -0.2515
N8 N 0.1065(12) 0.2900(11) -0.2198(8)
C41 C 0.1091(14) 0.2731(15) -0.2859(8)
H27 H 0.1596 0.2413 -0.2905
H28 H 0.1321 0.3331 -0.3071
H29 H 0.0373 0.2328 -0.3069
C42 C 0.2077(15) 0.3037(16) -0.1791(10)
H30 H 0.2010 0.3139 -0.1328
H31 H 0.2643 0.3588 -0.1926
H32 H 0.2261 0.2475 -0.1845
H33 H -0.274(11) 0.314(7) -0.269(4)
H34 H -0.197(5) 0.373(14) -0.2942(16)
H35 H 0.253(9) 0.302(6) 0.449(8)
H36 H 0.212(8) 0.361(12) 0.427(7)
Mn1A Mn 0.12538(13) -0.40945(11) 1.16491(7)
Mn3A Mn -0.07359(13) -0.25600(11) 0.48925(7)
C1A C 0.2168(9) -0.2098(7) 1.0100(4)
C2A C 0.1544(9) -0.1868(8) 0.9575(5)
H1A H 0.0797 -0.2222 0.9473
C3A C 0.2032(9) -0.1131(8) 0.9220(5)
H2A H 0.1641 -0.0962 0.8858
C4A C 0.3073(10) -0.0652(7) 0.9393(5)
C5A C 0.3261(9) -0.1544(8) 1.0275(5)
H3A H 0.3668 -0.1675 1.0647
C6A C 0.1636(9) -0.2944(7) 1.0493(6)
C7A C 0.1007(8) -0.1058(7) 0.6614(4)
C8A C 0.1762(8) -0.1311(7) 0.7020(4)
H4A H 0.1894 -0.1859 0.6897
C9A C 0.2313(8) -0.0796(7) 0.7587(4)
H5A H 0.2811 -0.0986 0.7861
C10A C 0.2130(8) 0.0020(7) 0.7755(4)
C11A C 0.0843(8) -0.0284(7) 0.6813(5)
H6A H 0.0328 -0.0106 0.6545
C12A C 0.0431(9) -0.1576(8) 0.5998(5)
C13A C -0.1783(10) -0.6142(8) 1.1418(6)
C14A C -0.2523(10) -0.6159(7) 1.0880(6)
H7A H -0.2319 -0.5710 1.0558
C15A C -0.3592(10) -0.6846(9) 1.0804(6)
H8A H -0.4090 -0.6880 1.0425
C16A C -0.3879(9) -0.7459(8) 1.1298(6)
C17A C -0.2215(11) -0.6819(9) 1.1903(6)
H9A H -0.1744 -0.6811 1.2290
C18A C -0.0688(10) -0.5454(8) 1.1534(7)
C19A C -0.7551(8) -0.6151(8) 1.0828(6)
C20A C -0.7014(8) -0.6388(7) 1.1358(5)
H10A H -0.6977 -0.6099 1.1779
C21A C -0.6510(8) -0.7043(8) 1.1308(5)
H11A H -0.6163 -0.7239 1.1678
C22A C -0.6569(8) -0.7381(7) 1.0656(7)
C23A C -0.7588(9) -0.6571(8) 1.0176(6)
H12A H -0.7945 -0.6395 0.9800
C24A C -0.8083(8) -0.5433(8) 1.0893(6)
C25A C -0.3042(8) -0.1539(7) 0.3693(5)
C26A C -0.3386(8) -0.0808(7) 0.3644(5)
H13A H -0.3057 -0.0265 0.3940
C27A C -0.4719(8) -0.1649(8) 0.2740(5)
N1A N -0.4381(7) -0.2367(6) 0.2774(4)
C28A C -0.3579(8) -0.2323(8) 0.3264(5)
H14A H -0.3379 -0.2859 0.3312
C29A C -0.2093(9) -0.1527(9) 0.4181(5)
C30A C -0.8302(9) -0.1053(9) 0.3602(5)
C31A C -0.7904(10) -0.0155(9) 0.3324(6)
H15A H -0.8089 0.0361 0.3454
C32A C -0.7255(11) -0.0089(9) 0.2867(6)
H16A H -0.6994 0.0485 0.2655
C33A C -0.6946(9) -0.0839(10) 0.2692(5)
C34A C -0.7974(9) -0.1755(8) 0.3421(5)
H17A H -0.8233 -0.2336 0.3625
C35A C -0.9036(11) -0.1178(9) 0.4087(6)
N2A N 0.3724(7) -0.0816(6) 0.9902(4)
N3A N 0.1375(7) 0.0276(5) 0.7386(4)
N4A N -0.3219(9) -0.7450(7) 1.1847(5)
N5A N -0.7120(8) -0.7206(7) 1.0103(4)
C36A C -0.4230(7) -0.0855(8) 0.3154(5)
H18A H -0.4462 -0.0337 0.3109
N6A N -0.7307(7) -0.1682(6) 0.2972(4)
O1A O 0.0751(6) -0.3505(5) 1.0184(3)
O2A O 0.2102(6) -0.3043(5) 1.1025(3)
O3A O -0.0164(5) -0.1248(4) 0.5599(3)
O4A O 0.0402(6) -0.2414(5) 0.5871(3)
O5A O -0.0129(6) -0.5320(5) 1.2080(4)
O6A O -0.0342(6) -0.4986(5) 1.1030(3)
O7A O -0.8049(5) -0.5108(5) 1.1450(4)
O8A O -0.8534(5) -0.5239(5) 1.0333(3)
O9A O -0.1842(5) -0.2252(5) 0.4204(3)
O10A O -0.1589(6) -0.0749(5) 0.4523(3)
O11A O -0.9320(6) -0.0508(5) 0.4258(3)
O12A O -0.9386(5) -0.1992(5) 0.4360(3)
O13A O 0.2232(5) -0.3639(4) 1.2597(3)
O14A O -0.2103(6) -0.3259(6) 0.5428(3)
S1A S 0.2713(2) 0.0765(2) 0.84604(13)
S2A S 0.3857(2) 0.03123(19) 0.89119(13)
S3A S -0.5146(2) -0.8391(2) 1.12879(17)
S4A S -0.6049(3) -0.8267(2) 1.04294(18)
S5A S -0.5714(2) -0.1841(2) 0.20781(12)
S6A S -0.6091(2) -0.0658(2) 0.20955(13)
O15A O -0.0759(8) -0.3930(6) 0.4570(4)
C37A C 0.0099(13) -0.3977(11) 0.4542(7)
H19A H 0.0652 -0.3496 0.4817
N7A N 0.0504(12) -0.4554(10) 0.4212(8)
C38A C -0.0313(17) -0.5158(13) 0.3737(8)
H20A H -0.0034 -0.5566 0.3505
H21A H -0.0914 -0.5548 0.3955
H22A H -0.0561 -0.4779 0.3420
C39A C 0.1577(14) -0.4567(14) 0.4333(11)
H23A H 0.1642 -0.5039 0.4028
H24A H 0.2097 -0.3942 0.4266
H25A H 0.1721 -0.4727 0.4787
O16A O 0.0485(9) -0.3179(9) 1.1906(6)
C40A C -0.0192(14) -0.3166(16) 1.2145(11)
H26A H -0.0173 -0.3532 1.2515
N8A N -0.1065(12) -0.2900(11) 1.2198(8)
C41A C -0.1091(14) -0.2731(15) 1.2859(8)
H27A H -0.1596 -0.2413 1.2905
H28A H -0.1321 -0.3331 1.3071
H29A H -0.0373 -0.2328 1.3069
C42A C -0.2077(15) -0.3037(16) 1.1791(10)
H30A H -0.2010 -0.3139 1.1328
H31A H -0.2643 -0.3588 1.1926
H32A H -0.2261 -0.2475 1.1845
H33A H 0.274(11) -0.314(7) 1.269(4)
H34A H 0.197(5) -0.373(14) 1.2942(16)
H35A H -0.253(9) -0.302(6) 0.551(8)
H36A H -0.212(8) -0.361(12) 0.573(7)
Mn1_2 Mn 0.87462(13) 0.40945(11) -0.16491(7)
Mn1A_2 Mn -0.87462(13) -0.40945(11) 1.16491(7)
Mn2_2 Mn -1.0000 -0.5000 1.0000
Mn2_3 Mn 0.0000 -0.5000 1.0000
Mn2_4 Mn 1.0000 0.5000 0.0000
Mn3_2 Mn 1.07359(13) 0.25600(11) 0.51075(7)
Mn3A_2 Mn -1.07359(13) -0.25600(11) 0.48925(7)
Mn4_2 Mn -1.0000 0.0000 0.5000
Mn4_3 Mn 1.0000 0.0000 0.5000
O1A_2 O 0.0751(6) 0.6495(5) 0.0184(3)
O6A_2 O -0.0342(6) 0.5014(5) 0.1030(3)
O7_2 O -0.1951(5) 0.5108(5) -0.1450(4)
O7A_2 O 0.1951(5) -0.5108(5) 1.1450(4)
O8_2 O -0.1466(5) 0.5239(5) -0.0333(3)
O8A_2 O 0.1466(5) 0.4761(5) 0.0333(3)
O11_2 O -0.0680(6) 0.0508(5) 0.5742(3)
O11A_2 O 0.0680(6) -0.0508(5) 0.4258(3)
O12_2 O -0.0614(5) 0.1992(5) 0.5640(3)
O12A_2 O 0.0614(5) -0.1992(5) 0.4360(3)
loop_
_geom_bond_atom_site_label_1
_geom_bond_atom_site_label_2
_geom_bond_site_symmetry_1
_geom_bond_site_symmetry_2
Mn1 O2 1_555 1_555
Mn2 O1 1_555 1_555
Mn3 O3 1_555 1_555
Mn4 O3 1_555 1_555
C1 C2 1_555 1_555
C2 H1 1_555 1_555
C3 C2 1_555 1_555
H2 C3 1_555 1_555
C4 C3 1_555 1_555
C5 C1 1_555 1_555
H3 C5 1_555 1_555
C6 C1 1_555 1_555
C7 C8 1_555 1_555
C8 H4 1_555 1_555
C9 C8 1_555 1_555
H5 C9 1_555 1_555
C10 C9 1_555 1_555
C11 C7 1_555 1_555
H6 C11 1_555 1_555
C12 C7 1_555 1_555
C13 C14 1_555 1_555
C14 H7 1_555 1_555
C15 C14 1_555 1_555
H8 C15 1_555 1_555
C16 C15 1_555 1_555
C17 C13 1_555 1_555
H9 C17 1_555 1_555
C18 C13 1_555 1_555
C19 C20 1_555 1_555
C20 H10 1_555 1_555
C21 C20 1_555 1_555
H11 C21 1_555 1_555
C22 C21 1_555 1_555
C23 C19 1_555 1_555
H12 C23 1_555 1_555
C24 C19 1_555 1_555
C25 C26 1_555 1_555
C26 H13 1_555 1_555
C27 N1 1_555 1_555
N1 C28 1_555 1_555
C28 C25 1_555 1_555
H14 C28 1_555 1_555
C29 C25 1_555 1_555
C30 C31 1_555 1_555
C31 H15 1_555 1_555
C32 C31 1_555 1_555
H16 C32 1_555 1_555
C33 C32 1_555 1_555
C34 C30 1_555 1_555
H17 C34 1_555 1_555
C35 C30 1_555 1_555
N2 C4 1_555 1_555
N3 C10 1_555 1_555
N4 C16 1_555 1_555
N5 C22 1_555 1_555
C36 C26 1_555 1_555
H18 C36 1_555 1_555
N6 C33 1_555 1_555
O1 C6 1_555 1_555
O2 C6 1_555 1_555
O3 C12 1_555 1_555
O4 Mn3 1_555 1_555
O5 Mn1 1_555 1_555
O6 Mn1 1_555 1_555
O7 C24 1_555 1_555
O8 C24 1_555 1_555
O9 Mn3 1_555 1_555
O10 Mn4 1_555 1_555
O11 C35 1_555 1_555
O12 C35 1_555 1_555
O13 Mn1 1_555 1_555
O14 Mn3 1_555 1_555
S1 C10 1_555 1_555
S2 C4 1_555 1_555
S3 C16 1_555 1_555
S4 C22 1_555 1_555
S5 C27 1_555 1_555
S6 C33 1_555 1_555
O15 Mn3 1_555 1_555
C37 O15 1_555 1_555
H19 C37 1_555 1_555
N7 C37 1_555 1_555
C38 N7 1_555 1_555
H20 C38 1_555 1_555
H21 C38 1_555 1_555
H22 C38 1_555 1_555
C39 N7 1_555 1_555
H23 C39 1_555 1_555
H24 C39 1_555 1_555
H25 C39 1_555 1_555
O16 Mn1 1_555 1_555
C40 O16 1_555 1_555
H26 C40 1_555 1_555
N8 C40 1_555 1_555
C41 N8 1_555 1_555
H27 C41 1_555 1_555
H28 C41 1_555 1_555
H29 C41 1_555 1_555
C42 N8 1_555 1_555
H30 C42 1_555 1_555
H31 C42 1_555 1_555
H32 C42 1_555 1_555
H33 O13 1_555 1_555
H34 O13 1_555 1_555
H35 O14 1_555 1_555
H36 O14 1_555 1_555
Mn1A O2A 1_555 1_555
Mn3A O3A 1_555 1_555
C1A C2A 1_555 1_555
C2A H1A 1_555 1_555
C3A C2A 1_555 1_555
H2A C3A 1_555 1_555
C4A C3A 1_555 1_555
C5A C1A 1_555 1_555
H3A C5A 1_555 1_555
C6A C1A 1_555 1_555
C7A C8A 1_555 1_555
C8A H4A 1_555 1_555
C9A C8A 1_555 1_555
H5A C9A 1_555 1_555
C10A C9A 1_555 1_555
C11A C7A 1_555 1_555
H6A C11A 1_555 1_555
C12A C7A 1_555 1_555
C13A C14A 1_555 1_555
C14A H7A 1_555 1_555
C15A C14A 1_555 1_555
H8A C15A 1_555 1_555
C16A C15A 1_555 1_555
C17A C13A 1_555 1_555
H9A C17A 1_555 1_555
C18A C13A 1_555 1_555
C19A C20A 1_555 1_555
C20A H10A 1_555 1_555
C21A C20A 1_555 1_555
H11A C21A 1_555 1_555
C22A C21A 1_555 1_555
C23A C19A 1_555 1_555
H12A C23A 1_555 1_555
C24A C19A 1_555 1_555
C25A C26A 1_555 1_555
C26A H13A 1_555 1_555
C27A N1A 1_555 1_555
N1A C28A 1_555 1_555
C28A C25A 1_555 1_555
H14A C28A 1_555 1_555
C29A C25A 1_555 1_555
C30A C31A 1_555 1_555
C31A H15A 1_555 1_555
C32A C31A 1_555 1_555
H16A C32A 1_555 1_555
C33A C32A 1_555 1_555
C34A C30A 1_555 1_555
H17A C34A 1_555 1_555
C35A C30A 1_555 1_555
N2A C4A 1_555 1_555
N3A C10A 1_555 1_555
N4A C16A 1_555 1_555
N5A C22A 1_555 1_555
C36A C26A 1_555 1_555
H18A C36A 1_555 1_555
N6A C33A 1_555 1_555
O1A C6A 1_555 1_555
O2A C6A 1_555 1_555
O3A Mn4 1_555 1_555
O4A Mn3A 1_555 1_555
O5A Mn1A 1_555 1_555
O6A Mn1A 1_555 1_555
O7A C24A 1_555 1_555
O8A C24A 1_555 1_555
O9A Mn3A 1_555 1_555
O10A Mn4 1_555 1_555
O11A C35A 1_555 1_555
O12A C35A 1_555 1_555
O13A Mn1A 1_555 1_555
O14A Mn3A 1_555 1_555
S1A C10A 1_555 1_555
S2A C4A 1_555 1_555
S3A C16A 1_555 1_555
S4A C22A 1_555 1_555
S5A C27A 1_555 1_555
S6A C33A 1_555 1_555
O15A Mn3A 1_555 1_555
C37A O15A 1_555 1_555
H19A C37A 1_555 1_555
N7A C37A 1_555 1_555
C38A N7A 1_555 1_555
H20A C38A 1_555 1_555
H21A C38A 1_555 1_555
H22A C38A 1_555 1_555
C39A N7A 1_555 1_555
H23A C39A 1_555 1_555
H24A C39A 1_555 1_555
H25A C39A 1_555 1_555
O16A Mn1A 1_555 1_555
C40A O16A 1_555 1_555
H26A C40A 1_555 1_555
N8A C40A 1_555 1_555
C41A N8A 1_555 1_555
H27A C41A 1_555 1_555
H28A C41A 1_555 1_555
H29A C41A 1_555 1_555
C42A N8A 1_555 1_555
H30A C42A 1_555 1_555
H31A C42A 1_555 1_555
H32A C42A 1_555 1_555
H33A O13A 1_555 1_555
H34A O13A 1_555 1_555
H35A O14A 1_555 1_555
H36A O14A 1_555 1_555
Mn1_2 O7 1_555 1_555
Mn1A_2 O7A 1_555 1_555
Mn2_2 O8A 1_555 1_555
Mn2_3 O1A 1_555 1_555
Mn2_4 O8 1_555 1_555
Mn3_2 O12 1_555 1_555
Mn3A_2 O12A 1_555 1_555
Mn4_2 O11A 1_555 1_555
Mn4_3 O11 1_555 1_555
O1A_2 Mn2 1_555 1_555
O6A_2 Mn2 1_555 1_555
O7_2 Mn1 1_555 1_555
O7A_2 Mn1A 1_555 1_555
O8_2 Mn2 1_555 1_555
O8A_2 Mn2 1_555 1_555
O11_2 Mn4 1_555 1_555
O11A_2 Mn4 1_555 1_555
O12_2 Mn3 1_555 1_555
O12A_2 Mn3A 1_555 1_555
Mn2 O6 1_555 1_555
C5 N2 1_555 1_555
C11 N3 1_555 1_555
C12 O4 1_555 1_555
C17 N4 1_555 1_555
C18 O5 1_555 1_555
C18 O6 1_555 1_555
C23 N5 1_555 1_555
C27 C36 1_555 1_555
C29 O9 1_555 1_555
C29 O10 1_555 1_555
C34 N6 1_555 1_555
S1 S2 1_555 1_555
S3 S4 1_555 1_555
S5 S6 1_555 1_555
C5A N2A 1_555 1_555
C11A N3A 1_555 1_555
C12A O3A 1_555 1_555
C12A O4A 1_555 1_555
C17A N4A 1_555 1_555
C18A O5A 1_555 1_555
C18A O6A 1_555 1_555
C23A N5A 1_555 1_555
C27A C36A 1_555 1_555
C29A O9A 1_555 1_555
C29A O10A 1_555 1_555
C34A N6A 1_555 1_555
O6A Mn2_3 1_555 1_555
S1A S2A 1_555 1_555
S3A S4A 1_555 1_555
S5A S6A 1_555 1_555

#END
