
#######################################################################
#
#                 Cambridge Crystallographic Data Centre
#                                CCDC 
#
#######################################################################
#
# If this CIF has been generated from an entry in the Cambridge 
# Structural Database, then it will include bibliographic, chemical, 
# crystal, experimental, refinement or atomic coordinate data resulting 
# from the CCDC's data processing and validation procedures.
#
#######################################################################

data_RUBKEG
_symmetry_cell_setting           monoclinic
_symmetry_space_group_name_H-M   'P 21/c'
_symmetry_Int_Tables_number      14
_space_group_name_Hall           '-P 2ybc'
loop_
_symmetry_equiv_pos_site_id
_symmetry_equiv_pos_as_xyz
1 x,y,z
2 -x,1/2+y,1/2-z
3 -x,-y,-z
4 x,1/2-y,1/2+z
_cell_length_a                   10.8607(4)
_cell_length_b                   10.3695(5)
_cell_length_c                   20.7248(9)
_cell_angle_alpha                90
_cell_angle_beta                 96.103(3)
_cell_angle_gamma                90
_cell_volume                     2320.8
loop_
_atom_site_label
_atom_site_type_symbol
_atom_site_fract_x
_atom_site_fract_y
_atom_site_fract_z
Co1 Co 0.12880(3) 0.93878(5) 0.14836(2)
N1 N -0.0087(2) 0.8210(2) 0.09840(12)
N2 N 0.1630(2) 0.9740(2) 0.05296(11)
N3 N 0.2846(2) 1.1605(2) 0.06235(13)
N4 N 0.2673(2) 1.0519(3) 0.20078(13)
C1 C -0.1018(3) 0.7572(3) 0.12276(16)
H1 H -0.1263 0.7835 0.1634
C2 C -0.1623(3) 0.6558(3) 0.09096(17)
H2 H -0.228 0.6132 0.1091
C3 C -0.1260(3) 0.6161(3) 0.03158(18)
H3 H -0.1643 0.544 0.0094
C4 C -0.0335(3) 0.6832(3) 0.00554(15)
H4 H -0.008 0.659 -0.0352
C5 C 0.0220(2) 0.7869(3) 0.03993(14)
C6 C 0.1225(2) 0.8635(3) 0.01189(13)
H5 H 0.1943 0.8066 0.0074
H6 H 0.091 0.8947 -0.0319
C7 C 0.2451(2) 1.0504(3) 0.03093(13)
C8 C 0.3151(2) 1.0409(3) -0.02669(13)
C9 C 0.3110(2) 0.9530(3) -0.07785(14)
H7 H 0.2521 0.885 -0.0815
C10 C 0.3950(3) 0.9675(3) -0.12314(15)
H8 H 0.3929 0.9089 -0.1585
C11 C 0.4822(3) 1.0657(3) -0.11811(16)
H9 H 0.5401 1.0721 -0.1492
C12 C 0.4854(3) 1.1536(3) -0.06853(16)
H10 H 0.5446 1.2214 -0.0652
C13 C 0.4009(2) 1.1416(3) -0.02346(14)
C14 C 0.3856(3) 1.2237(3) 0.03390(16)
H11 H 0.462 1.2249 0.0645
H12 H 0.3634 1.3133 0.0208
C15 C 0.2338(3) 1.2157(3) 0.11811(17)
H13 H 0.1451 1.1924 0.1166
H14 H 0.2395 1.3109 0.1161
C16 C 0.3006(3) 1.1695(4) 0.18094(17)
C17 C 0.3956(3) 1.2397(5) 0.2148(2)
H15 H 0.4173 1.3226 0.2001
C18 C 0.4581(4) 1.1872(6) 0.2702(2)
H16 H 0.5249 1.2325 0.2933
C19 C 0.4227(3) 1.0691(6) 0.29146(19)
H17 H 0.4636 1.0323 0.3299
C20 C 0.3265(3) 1.0039(5) 0.25606(16)
H18 H 0.3015 0.9226 0.2713
O1 O -0.0132(3) 1.0961(4) 0.16298(18)
O2 O 0.0296(3) 0.9517(4) 0.24007(16)
O3 O -0.2432(3) 1.2689(4) 0.34423(18)
O4 O -0.2843(4) 1.0981(5) 0.3996(3)
C21 C -0.0301(4) 1.0488(5) 0.2174(2)
C22 C -0.1218(5) 1.1194(7) 0.2556(2)
H19 H -0.0913 1.2087 0.2627
H20 H -0.2013 1.1248 0.2275
C23 C -0.1486(4) 1.0673(5) 0.3193(2)
H21 H -0.0693 1.0538 0.3467
H22 H -0.1891 0.9821 0.3124
C24 C -0.2315(4) 1.1538(6) 0.3560(3)
Co1A Co -0.12880(3) 1.43878(5) 0.35164(2)
O3A O 0.2432(3) 0.7689(4) 0.15577(18)
O10 O -0.4017(7) 1.0539(7) 0.4592(4)
O11 O -0.3533(4) 1.1238(5) 0.6011(3)
O13 O 0.1114(3) 0.8306(3) 0.36521(13)
H27 H 0.091(4) 0.874(3) 0.3283(14)
H28 H 0.078(3) 0.756(2) 0.3555(15)
O5? O -0.0164(6) 1.0589(7) 0.1729(3)
O6? O 0.0468(6) 0.8951(7) 0.2357(3)
O7? O -0.2475(6) 1.3131(7) 0.3383(3)
O8? O -0.2855(9) 1.0927(9) 0.3559(4)
C25? C -0.0220(9) 0.9953(10) 0.2255(4)
C26? C -0.1154(9) 1.0201(9) 0.2727(5)
H23? H -0.0772 1.0001 0.3171
H24? H -0.1865 0.961 0.2628
C27? C -0.1623(9) 1.1572(9) 0.2712(5)
H25? H -0.2137 1.1717 0.2295
H26? H -0.0905 1.2163 0.2728
C28? C -0.2397(10) 1.1922(13) 0.3272(6)
O9? O -0.3453(5) 1.1066(6) 0.5367(3)
O12? O -0.4326(7) 1.0386(7) 0.4861(4)
loop_
_geom_bond_atom_site_label_1
_geom_bond_atom_site_label_2
_geom_bond_site_symmetry_1
_geom_bond_site_symmetry_2
Co1 N1 1_555 1_555
N1 C1 1_555 1_555
N2 Co1 1_555 1_555
N3 C7 1_555 1_555
N4 Co1 1_555 1_555
C1 H1 1_555 1_555
C2 C1 1_555 1_555
H2 C2 1_555 1_555
C3 C2 1_555 1_555
H3 C3 1_555 1_555
C4 C3 1_555 1_555
H4 C4 1_555 1_555
C5 N1 1_555 1_555
C6 N2 1_555 1_555
H5 C6 1_555 1_555
H6 C6 1_555 1_555
C7 N2 1_555 1_555
C8 C7 1_555 1_555
C9 C8 1_555 1_555
H7 C9 1_555 1_555
C10 C9 1_555 1_555
H8 C10 1_555 1_555
C11 C10 1_555 1_555
H9 C11 1_555 1_555
C12 C11 1_555 1_555
H10 C12 1_555 1_555
C13 C8 1_555 1_555
C14 N3 1_555 1_555
H11 C14 1_555 1_555
H12 C14 1_555 1_555
C15 N3 1_555 1_555
H13 C15 1_555 1_555
H14 C15 1_555 1_555
C16 N4 1_555 1_555
C17 C16 1_555 1_555
H15 C17 1_555 1_555
C18 C17 1_555 1_555
H16 C18 1_555 1_555
C19 C18 1_555 1_555
H17 C19 1_555 1_555
C20 N4 1_555 1_555
H18 C20 1_555 1_555
O1 Co1 1_555 1_555
O2 Co1 1_555 1_555
O3 C24 1_555 1_555
O4 C24 1_555 1_555
C21 O1 1_555 1_555
C22 C21 1_555 1_555
H19 C22 1_555 1_555
H20 C22 1_555 1_555
C23 C22 1_555 1_555
H21 C23 1_555 1_555
H22 C23 1_555 1_555
C24 C23 1_555 1_555
O13 H27 1_555 1_555
H28 O13 1_555 1_555
Co1A O3 1_555 1_555
O3A Co1 1_555 1_555
C4 C5 1_555 1_555
C5 C6 1_555 1_555
C12 C13 1_555 1_555
C13 C14 1_555 1_555
C15 C16 1_555 1_555
C19 C20 1_555 1_555
O2 C21 1_555 1_555

#END
