
#######################################################################
#
#                 Cambridge Crystallographic Data Centre
#                                CCDC 
#
#######################################################################
#
# If this CIF has been generated from an entry in the Cambridge 
# Structural Database, then it will include bibliographic, chemical, 
# crystal, experimental, refinement or atomic coordinate data resulting 
# from the CCDC's data processing and validation procedures.
#
#######################################################################

data_RUBMAD
_symmetry_cell_setting           monoclinic
_symmetry_space_group_name_H-M   'C 2/c'
_symmetry_Int_Tables_number      15
_space_group_name_Hall           '-C 2yn'
loop_
_symmetry_equiv_pos_site_id
_symmetry_equiv_pos_as_xyz
1 x,y,z
2 -x,y,1/2-z
3 1/2+x,1/2+y,z
4 1/2-x,1/2+y,1/2-z
5 -x,-y,-z
6 x,-y,1/2+z
7 1/2-x,1/2-y,-z
8 1/2+x,1/2-y,1/2+z
_cell_length_a                   15.870(3)
_cell_length_b                   7.8843(16)
_cell_length_c                   13.436(3)
_cell_angle_alpha                90
_cell_angle_beta                 111.85(3)
_cell_angle_gamma                90
_cell_volume                     1560.39
loop_
_atom_site_label
_atom_site_type_symbol
_atom_site_fract_x
_atom_site_fract_y
_atom_site_fract_z
Ag1 Ag 0.41739(2) 0.52537(5) 0.02420(3)
Ag2 Ag 0.0000 0.5000 0.0000
C1 C 0.2072(3) 0.4935(5) 0.0192(3)
H1 H 0.1937 0.4145 -0.0360
C2 C 0.1919(2) 0.6615(5) 0.1331(3)
H2 H 0.1680 0.7248 0.1748
C3 C 0.3535(3) 0.7540(5) 0.2189(3)
H3 H 0.3343 0.8675 0.2288
H4 H 0.4011 0.7649 0.1904
C4 C 0.3916(3) 0.6666(5) 0.3263(3)
N1 N 0.27721(19) 0.6651(4) 0.1413(2)
N2 N 0.2888(2) 0.5573(5) 0.0683(3)
N3 N 0.1451(2) 0.5535(4) 0.0562(3)
O5 O 0.4725(2) 0.7073(4) 0.3817(3)
O6 O 0.3416(2) 0.5690(5) 0.3520(2)
Ag1D Ag -0.41739(2) 0.47463(5) -0.02420(3)
Ag1D_2 Ag 0.58261(2) 0.47463(5) -0.02420(3)
Ag1A Ag 0.58261(2) 0.52537(5) 0.47580(3)
Ag1E Ag 0.41739(2) 0.47463(5) 0.52420(3)
Ag1E_2 Ag -0.58261(2) 0.47463(5) -0.47580(3)
Ag1A_2 Ag -0.41739(2) 0.52537(5) -0.52420(3)
Ag1_2 Ag -0.58261(2) 0.52537(5) 0.02420(3)
C1D C -0.2072(3) 0.5065(5) -0.0192(3)
H1D H -0.1937 0.5855 0.0360
C2D C -0.1919(2) 0.3385(5) -0.1331(3)
H2D H -0.1680 0.2752 -0.1748
C3D C -0.3535(3) 0.2460(5) -0.2189(3)
H3D H -0.3343 0.1325 -0.2288
H4D H -0.4011 0.2351 -0.1904
C4D C -0.3916(3) 0.3334(5) -0.3263(3)
N1D N -0.27721(19) 0.3349(4) -0.1413(2)
N2D N -0.2888(2) 0.4427(5) -0.0683(3)
N3D N -0.1451(2) 0.4465(4) -0.0562(3)
O5D O -0.4725(2) 0.2927(4) -0.3817(3)
O5A O 0.5275(2) 0.7073(4) 0.1183(3)
O5E O -0.5275(2) 0.2927(4) -0.1183(3)
O6D O -0.3416(2) 0.4310(5) -0.3520(2)
O6E O 0.3416(2) 0.4310(5) -0.1480(2)
O6A O -0.3416(2) 0.5690(5) 0.1480(2)
Cl1 Cl 0.5000 0.23039(18) 0.2500
O1 O 0.4891(7) 0.2529(11) 0.1355(6)
O2 O 0.5962(6) 0.208(2) 0.3011(8)
O3 O 0.4728(8) 0.3669(15) 0.2898(9)
O4 O 0.4603(13) 0.0828(18) 0.2558(15)
O1A O 0.5109(7) 0.2529(11) 0.3645(6)
O2A O 0.4038(6) 0.208(2) 0.1989(8)
O3A O 0.5272(8) 0.3669(15) 0.2102(9)
O4A O 0.5397(13) 0.0828(18) 0.2442(15)
loop_
_geom_bond_atom_site_label_1
_geom_bond_atom_site_label_2
_geom_bond_site_symmetry_1
_geom_bond_site_symmetry_2
Cl1 O1 1_555 1_555
O1 O3A 1_555 1_555
O2 Cl1 1_555 1_555
O3 Cl1 1_555 1_555
O4 Cl1 1_555 1_555
Ag1 N2 1_555 1_555
Ag2 N3 1_555 1_555
C1 H1 1_555 1_555
C2 H2 1_555 1_555
C3 H3 1_555 1_555
H4 C3 1_555 1_555
C4 C3 1_555 1_555
N1 C2 1_555 1_555
N2 C1 1_555 1_555
N3 C1 1_555 1_555
O5 C4 1_555 1_555
O6 C4 1_555 1_555
O1A Cl1 1_555 1_555
O2A Cl1 1_555 1_555
O3A Cl1 1_555 1_555
O4A Cl1 1_555 1_555
Ag1D Ag1_2 1_555 1_555
Ag1D_2 Ag1 1_555 1_555
Ag1A O5 1_555 1_555
Ag1E O6 1_555 1_555
Ag1E_2 Ag1A_2 1_555 1_555
Ag1A_2 O6D 1_555 1_555
C1D H1D 1_555 1_555
C2D H2D 1_555 1_555
C3D H3D 1_555 1_555
H4D C3D 1_555 1_555
C4D C3D 1_555 1_555
N1D C2D 1_555 1_555
N2D Ag1D 1_555 1_555
N3D Ag2 1_555 1_555
O5D Ag1E_2 1_555 1_555
O5A Ag1 1_555 1_555
O5E Ag1D 1_555 1_555
O6D C4D 1_555 1_555
O6E Ag1 1_555 1_555
O6A Ag1D 1_555 1_555
O2 O4A 1_555 1_555
O3 O1A 1_555 1_555
O3 O3A 1_555 1_555
O4 O2A 1_555 1_555
O4 O4A 1_555 1_555
C2 N3 1_555 1_555
C3 N1 1_555 1_555
N1 N2 1_555 1_555
Ag1A Ag1E 1_555 1_555
C1D N2D 1_555 1_555
C1D N3D 1_555 1_555
C2D N3D 1_555 1_555
C3D N1D 1_555 1_555
C4D O5D 1_555 1_555
N1D N2D 1_555 1_555

#END
