
#######################################################################
#
#                 Cambridge Crystallographic Data Centre
#                                CCDC 
#
#######################################################################
#
# If this CIF has been generated from an entry in the Cambridge 
# Structural Database, then it will include bibliographic, chemical, 
# crystal, experimental, refinement or atomic coordinate data resulting 
# from the CCDC's data processing and validation procedures.
#
#######################################################################

data_RUBMOR
_symmetry_cell_setting           monoclinic
_symmetry_space_group_name_H-M   'P 21/n'
_symmetry_Int_Tables_number      14
_space_group_name_Hall           '-P 2yn'
loop_
_symmetry_equiv_pos_site_id
_symmetry_equiv_pos_as_xyz
1 x,y,z
2 1/2-x,1/2+y,1/2-z
3 -x,-y,-z
4 1/2+x,1/2-y,1/2+z
_cell_length_a                   9.1083(18)
_cell_length_b                   21.884(4)
_cell_length_c                   9.6968(19)
_cell_angle_alpha                90
_cell_angle_beta                 101.58(3)
_cell_angle_gamma                90
_cell_volume                     1893.48
loop_
_atom_site_label
_atom_site_type_symbol
_atom_site_fract_x
_atom_site_fract_y
_atom_site_fract_z
Mn1 Mn 1.0000 0.0000 0.5000
S1 S 0.81031(13) 0.07134(6) 0.01148(10)
N1 N 0.9911(3) 0.10036(14) 0.5826(3)
N2 N 1.0583(3) 0.16983(15) 0.7541(3)
N3 N 1.3911(3) 0.04934(14) 1.3150(3)
N4 N 1.2256(3) 0.02800(13) 1.4502(3)
N5 N 0.8983(3) 0.02539(16) 0.2824(3)
C1 C 1.0462(4) 0.15220(17) 0.5264(4)
C2 C 1.0618(5) 0.16559(19) 0.3888(4)
H1 H 1.0290 0.1384 0.3154
C3 C 1.1267(6) 0.2198(2) 0.3662(5)
H2 H 1.1382 0.2292 0.2755
C4 C 1.1763(5) 0.2617(2) 0.4737(5)
H3 H 1.2214 0.2978 0.4534
C5 C 1.1599(4) 0.25053(19) 0.6093(4)
H4 H 1.1927 0.2782 0.6818
C6 C 1.0922(4) 0.19616(18) 0.6321(4)
C7 C 1.0017(4) 0.11446(19) 0.7176(4)
H5 H 0.9721 0.0879 0.7817
C8 C 1.0830(5) 0.1990(2) 0.8939(4)
H6 H 1.0126 0.1821 0.9467
H7 H 1.0631 0.2424 0.8822
C9 C 1.2416(4) 0.1898(2) 0.9777(4)
H8 H 1.2611 0.2196 1.0533
H9 H 1.3121 0.1973 0.9167
C10 C 1.2685(4) 0.1257(2) 1.0404(4)
H10 H 1.2009 0.1188 1.1044
H11 H 1.2453 0.0958 0.9652
C11 C 1.4280(4) 0.1160(2) 1.1189(4)
H12 H 1.4526 0.1477 1.1898
H13 H 1.4946 0.1209 1.0532
C12 C 1.4576(4) 0.0543(2) 1.1900(4)
H14 H 1.4168 0.0224 1.1237
H15 H 1.5650 0.0479 1.2170
C13 C 1.2611(4) 0.02284(17) 1.3260(4)
H16 H 1.2008 0.0024 1.2515
C14 C 1.3442(4) 0.06189(16) 1.5284(3)
C15 C 1.3686(4) 0.08297(18) 1.6672(4)
H17 H 1.3014 0.0742 1.7251
C16 C 1.4944(4) 0.1168(2) 1.7150(4)
H18 H 1.5126 0.1312 1.8071
C17 C 1.5968(4) 0.1305(2) 1.6294(4)
H19 H 1.6808 0.1540 1.6657
C18 C 1.5758(4) 0.10999(18) 1.4935(4)
H20 H 1.6443 0.1184 1.4367
C19 C 1.4472(4) 0.07610(16) 1.4448(4)
C20 C 0.8629(3) 0.04399(16) 0.1694(4)
Mn1_2 Mn 1.0000 0.0000 1.5000
Mn1_3 Mn 1.0000 0.0000 -0.5000
S1B S 1.18969(13) -0.07134(6) 0.98852(10)
N1_2 N 0.9911(3) 0.10036(14) -0.4174(3)
N1B N 1.0089(3) -0.10036(14) 0.4174(3)
N2_2 N 1.0583(3) 0.16983(15) -0.2459(3)
N3_2 N 1.3911(3) 0.04934(14) 0.3150(3)
N4_2 N 1.2256(3) 0.02800(13) 0.4502(3)
N4B N 0.7744(3) -0.02800(13) 0.5498(3)
N5B N 1.1017(3) -0.02539(16) 0.7176(3)
C1_2 C 1.0462(4) 0.15220(17) -0.4736(4)
C2_2 C 1.0618(5) 0.16559(19) -0.6112(4)
H1_2 H 1.0290 0.1384 -0.6846
C3_2 C 1.1267(6) 0.2198(2) -0.6338(5)
H2_2 H 1.1382 0.2292 -0.7245
C4_2 C 1.1763(5) 0.2617(2) -0.5263(5)
H3_2 H 1.2214 0.2978 -0.5466
C5_2 C 1.1599(4) 0.25053(19) -0.3907(4)
H4_2 H 1.1927 0.2782 -0.3182
C6_2 C 1.0922(4) 0.19616(18) -0.3679(4)
C7_2 C 1.0017(4) 0.11446(19) -0.2824(4)
H5_2 H 0.9721 0.0879 -0.2183
C8_2 C 1.0830(5) 0.1990(2) -0.1061(4)
H6_2 H 1.0126 0.1821 -0.0533
H7_2 H 1.0631 0.2424 -0.1178
C9_2 C 1.2416(4) 0.1898(2) -0.0223(4)
H8_2 H 1.2611 0.2196 0.0533
H9_2 H 1.3121 0.1973 -0.0833
C10_2 C 1.2685(4) 0.1257(2) 0.0404(4)
H10_2 H 1.2009 0.1188 0.1044
H11_2 H 1.2453 0.0958 -0.0348
C11_2 C 1.4280(4) 0.1160(2) 0.1189(4)
H12_2 H 1.4526 0.1477 0.1898
H13_2 H 1.4946 0.1209 0.0532
C12_2 C 1.4576(4) 0.0543(2) 0.1900(4)
H14_2 H 1.4168 0.0224 0.1237
H15_2 H 1.5650 0.0479 0.2170
C13_2 C 1.2611(4) 0.02284(17) 0.3260(4)
H16_2 H 1.2008 0.0024 0.2515
C14_2 C 1.3442(4) 0.06189(16) 0.5284(3)
C15_2 C 1.3686(4) 0.08297(18) 0.6672(4)
H17_2 H 1.3014 0.0742 0.7251
C16_2 C 1.4944(4) 0.1168(2) 0.7150(4)
H18_2 H 1.5126 0.1312 0.8071
C17_2 C 1.5968(4) 0.1305(2) 0.6294(4)
H19_2 H 1.6808 0.1540 0.6657
C18_2 C 1.5758(4) 0.10999(18) 0.4935(4)
H20_2 H 1.6443 0.1184 0.4367
C19_2 C 1.4472(4) 0.07610(16) 0.4448(4)
C20B C 1.1371(3) -0.04399(16) 0.8306(4)
loop_
_geom_bond_atom_site_label_1
_geom_bond_atom_site_label_2
_geom_bond_site_symmetry_1
_geom_bond_site_symmetry_2
Mn1 N1 1_555 1_555
S1 C20 1_555 1_555
N1 C1 1_555 1_555
N2 C6 1_555 1_555
N3 C12 1_555 1_555
N4 C13 1_555 1_555
N5 Mn1 1_555 1_555
C1 C2 1_555 1_555
C2 H1 1_555 1_555
C3 C2 1_555 1_555
H2 C3 1_555 1_555
C4 C3 1_555 1_555
H3 C4 1_555 1_555
C5 C4 1_555 1_555
H4 C5 1_555 1_555
C6 C1 1_555 1_555
C7 N1 1_555 1_555
H5 C7 1_555 1_555
C8 N2 1_555 1_555
H6 C8 1_555 1_555
H7 C8 1_555 1_555
C9 C8 1_555 1_555
H8 C9 1_555 1_555
H9 C9 1_555 1_555
C10 C9 1_555 1_555
H10 C10 1_555 1_555
H11 C10 1_555 1_555
C11 C10 1_555 1_555
H12 C11 1_555 1_555
H13 C11 1_555 1_555
C12 C11 1_555 1_555
H14 C12 1_555 1_555
H15 C12 1_555 1_555
C13 N3 1_555 1_555
H16 C13 1_555 1_555
C14 N4 1_555 1_555
C15 C14 1_555 1_555
H17 C15 1_555 1_555
C16 C15 1_555 1_555
H18 C16 1_555 1_555
C17 C16 1_555 1_555
H19 C17 1_555 1_555
C18 C17 1_555 1_555
H20 C18 1_555 1_555
C19 N3 1_555 1_555
C20 N5 1_555 1_555
Mn1_2 N4 1_555 1_555
Mn1_3 N1_2 1_555 1_555
S1B C20B 1_555 1_555
N1_2 C1_2 1_555 1_555
N1B Mn1 1_555 1_555
N2_2 C6_2 1_555 1_555
N3_2 C12_2 1_555 1_555
N4_2 Mn1 1_555 1_555
N4B Mn1 1_555 1_555
N5B Mn1 1_555 1_555
C1_2 C2_2 1_555 1_555
C2_2 H1_2 1_555 1_555
C3_2 C2_2 1_555 1_555
H2_2 C3_2 1_555 1_555
C4_2 C3_2 1_555 1_555
H3_2 C4_2 1_555 1_555
C5_2 C4_2 1_555 1_555
H4_2 C5_2 1_555 1_555
C6_2 C1_2 1_555 1_555
C7_2 N1_2 1_555 1_555
H5_2 C7_2 1_555 1_555
C8_2 N2_2 1_555 1_555
H6_2 C8_2 1_555 1_555
H7_2 C8_2 1_555 1_555
C9_2 C8_2 1_555 1_555
H8_2 C9_2 1_555 1_555
H9_2 C9_2 1_555 1_555
C10_2 C9_2 1_555 1_555
H10_2 C10_2 1_555 1_555
H11_2 C10_2 1_555 1_555
C11_2 C10_2 1_555 1_555
H12_2 C11_2 1_555 1_555
H13_2 C11_2 1_555 1_555
C12_2 C11_2 1_555 1_555
H14_2 C12_2 1_555 1_555
H15_2 C12_2 1_555 1_555
C13_2 N3_2 1_555 1_555
H16_2 C13_2 1_555 1_555
C14_2 N4_2 1_555 1_555
C15_2 C14_2 1_555 1_555
H17_2 C15_2 1_555 1_555
C16_2 C15_2 1_555 1_555
H18_2 C16_2 1_555 1_555
C17_2 C16_2 1_555 1_555
H19_2 C17_2 1_555 1_555
C18_2 C17_2 1_555 1_555
H20_2 C18_2 1_555 1_555
C19_2 N3_2 1_555 1_555
C20B N5B 1_555 1_555
N2 C7 1_555 1_555
C5 C6 1_555 1_555
C14 C19 1_555 1_555
C18 C19 1_555 1_555
N2_2 C7_2 1_555 1_555
N4_2 C13_2 1_555 1_555
C5_2 C6_2 1_555 1_555
C14_2 C19_2 1_555 1_555
C18_2 C19_2 1_555 1_555

#END
