
#######################################################################
#
#                 Cambridge Crystallographic Data Centre
#                                CCDC 
#
#######################################################################
#
# If this CIF has been generated from an entry in the Cambridge 
# Structural Database, then it will include bibliographic, chemical, 
# crystal, experimental, refinement or atomic coordinate data resulting 
# from the CCDC's data processing and validation procedures.
#
#######################################################################

data_RUBMUX
_symmetry_cell_setting           monoclinic
_symmetry_space_group_name_H-M   'P 21/n'
_symmetry_Int_Tables_number      14
_space_group_name_Hall           '-P 2yn'
loop_
_symmetry_equiv_pos_site_id
_symmetry_equiv_pos_as_xyz
1 x,y,z
2 1/2-x,1/2+y,1/2-z
3 -x,-y,-z
4 1/2+x,1/2-y,1/2+z
_cell_length_a                   11.677(2)
_cell_length_b                   14.266(3)
_cell_length_c                   14.752(3)
_cell_angle_alpha                90
_cell_angle_beta                 95.06(3)
_cell_angle_gamma                90
_cell_volume                     2447.87
loop_
_atom_site_label
_atom_site_type_symbol
_atom_site_fract_x
_atom_site_fract_y
_atom_site_fract_z
Hg1 Hg 0.75143(2) 0.96775(2) 0.206512(17)
N1 N 0.8130(5) 0.9208(4) 0.3501(3)
N2 N 0.8929(4) 0.8295(4) 0.4591(3)
N3 N 0.5949(5) 0.4753(4) 0.6083(3)
N4 N 0.4250(4) 0.4720(4) 0.6681(3)
C1 C 0.8234(5) 0.9725(5) 0.4308(4)
C2 C 0.7971(6) 1.0650(5) 0.4472(4)
H1 H 0.7643 1.1038 0.4014
C3 C 0.8217(6) 1.0964(5) 0.5342(5)
H2 H 0.8052 1.1584 0.5475
C4 C 0.8707(6) 1.0393(6) 0.6037(5)
H3 H 0.8854 1.0641 0.6618
C5 C 0.8979(6) 0.9469(5) 0.5888(4)
H4 H 0.9308 0.9086 0.6350
C6 C 0.8729(5) 0.9144(5) 0.5000(4)
C7 C 0.8560(6) 0.8390(5) 0.3710(4)
H5 H 0.8607 0.7911 0.3287
C8 C 0.9389(5) 0.7421(5) 0.5020(4)
H6 H 0.9976 0.7572 0.5503
H7 H 0.9741 0.7046 0.4571
C9 C 0.8449(6) 0.6863(5) 0.5404(5)
H8 H 0.7813 0.6793 0.4939
H9 H 0.8171 0.7206 0.5908
C10 C 0.8853(5) 0.5892(5) 0.5734(4)
H10 H 0.9554 0.5955 0.6133
H11 H 0.9024 0.5515 0.5216
C11 C 0.7935(5) 0.5388(5) 0.6249(4)
H12 H 0.8262 0.4821 0.6528
H13 H 0.7705 0.5791 0.6730
C12 C 0.6900(6) 0.5142(5) 0.5619(4)
H14 H 0.6635 0.5700 0.5289
H15 H 0.7124 0.4689 0.5177
C13 C 0.4984(6) 0.5238(5) 0.6278(4)
H16 H 0.4863 0.5868 0.6140
C14 C 0.5799(6) 0.3852(5) 0.6404(4)
C15 C 0.6495(6) 0.3070(5) 0.6391(4)
H17 H 0.7194 0.3082 0.6133
C16 C 0.6098(7) 0.2280(5) 0.6777(5)
H18 H 0.6557 0.1746 0.6807
C17 C 0.5031(7) 0.2240(5) 0.7129(5)
H19 H 0.4790 0.1679 0.7370
C18 C 0.4326(6) 0.3012(5) 0.7127(4)
H20 H 0.3612 0.2987 0.7359
C19 C 0.4735(6) 0.3833(5) 0.6759(4)
Cl1 Cl 0.60883(18) 1.08881(16) 0.20102(14)
Cl2 Cl 0.73822(18) 0.82517(14) 0.11561(12)
Hg1C Hg 0.25143(2) 0.53225(2) 0.706512(17)
N4C N 0.9250(4) 1.0280(4) 0.1681(3)
N5 N 0.5738(6) 0.8498(5) 0.6172(4)
C20 C 0.5278(8) 0.8071(8) 0.5368(6)
H21 H 0.5338 0.7402 0.5430
H22 H 0.5696 0.8273 0.4871
H23 H 0.4484 0.8244 0.5251
C21 C 0.5731(8) 0.9509(6) 0.6191(6)
H24 H 0.6070 0.9723 0.6770
H25 H 0.4953 0.9730 0.6097
H26 H 0.6166 0.9745 0.5717
C22 C 0.6050(8) 0.7983(7) 0.6895(7)
H27 H 0.6321 0.8304 0.7419
O1 O 0.6022(6) 0.7137(5) 0.6947(5)
loop_
_geom_bond_atom_site_label_1
_geom_bond_atom_site_label_2
_geom_bond_site_symmetry_1
_geom_bond_site_symmetry_2
Hg1 N1 1_555 1_555
N1 C1 1_555 1_555
N2 C6 1_555 1_555
N3 C12 1_555 1_555
N4 C13 1_555 1_555
N5 C20 1_555 1_555
C1 C2 1_555 1_555
C2 H1 1_555 1_555
C3 C2 1_555 1_555
H2 C3 1_555 1_555
C4 C3 1_555 1_555
H3 C4 1_555 1_555
C5 C4 1_555 1_555
H4 C5 1_555 1_555
C6 C1 1_555 1_555
C7 N1 1_555 1_555
H5 C7 1_555 1_555
C8 N2 1_555 1_555
H6 C8 1_555 1_555
H7 C8 1_555 1_555
C9 C8 1_555 1_555
H8 C9 1_555 1_555
H9 C9 1_555 1_555
C10 C9 1_555 1_555
H10 C10 1_555 1_555
H11 C10 1_555 1_555
C11 C10 1_555 1_555
H12 C11 1_555 1_555
H13 C11 1_555 1_555
C12 C11 1_555 1_555
H14 C12 1_555 1_555
H15 C12 1_555 1_555
C13 N3 1_555 1_555
H16 C13 1_555 1_555
C14 N3 1_555 1_555
C15 C14 1_555 1_555
H17 C15 1_555 1_555
C16 C15 1_555 1_555
H18 C16 1_555 1_555
C17 C16 1_555 1_555
H19 C17 1_555 1_555
C18 C17 1_555 1_555
H20 C18 1_555 1_555
C19 N4 1_555 1_555
C20 H21 1_555 1_555
H22 C20 1_555 1_555
H23 C20 1_555 1_555
C21 N5 1_555 1_555
H24 C21 1_555 1_555
H25 C21 1_555 1_555
H26 C21 1_555 1_555
C22 N5 1_555 1_555
H27 C22 1_555 1_555
Cl1 Hg1 1_555 1_555
Cl2 Hg1 1_555 1_555
O1 C22 1_555 1_555
Hg1C N4 1_555 1_555
N4C Hg1 1_555 1_555
N2 C7 1_555 1_555
C5 C6 1_555 1_555
C14 C19 1_555 1_555
C18 C19 1_555 1_555

#END
