
#######################################################################
#
#                 Cambridge Crystallographic Data Centre
#                                CCDC 
#
#######################################################################
#
# If this CIF has been generated from an entry in the Cambridge 
# Structural Database, then it will include bibliographic, chemical, 
# crystal, experimental, refinement or atomic coordinate data resulting 
# from the CCDC's data processing and validation procedures.
#
#######################################################################

data_RUBNEI
_symmetry_cell_setting           triclinic
_symmetry_space_group_name_H-M   'P -1'
_symmetry_Int_Tables_number      2
_space_group_name_Hall           '-P 1'
loop_
_symmetry_equiv_pos_site_id
_symmetry_equiv_pos_as_xyz
1 x,y,z
2 -x,-y,-z
_cell_length_a                   6.976(2)
_cell_length_b                   9.232(3)
_cell_length_c                   10.371(3)
_cell_angle_alpha                111.72(2)
_cell_angle_beta                 104.30(2)
_cell_angle_gamma                93.45(2)
_cell_volume                     592.687
loop_
_atom_site_label
_atom_site_type_symbol
_atom_site_fract_x
_atom_site_fract_y
_atom_site_fract_z
Cd1 Cd 0.752259(18) -0.083703(13) 0.523980(13)
N1 N 0.7565(2) -0.35716(17) 0.42981(16)
N2 N 0.7268(2) -0.18289(18) 0.70844(16)
Cl1 Cl 0.86003(6) 0.00589(5) 0.33580(5)
Cl2 Cl 0.63373(6) 0.17653(5) 0.64771(5)
S1 S 0.76019(7) -0.64809(5) 0.28884(5)
S2 S 0.74728(7) -0.24499(6) 0.93114(5)
C1 C 0.7660(4) -0.4127(2) 0.1785(2)
H1 H 0.8844 -0.3367 0.2060
H2 H 0.6492 -0.3677 0.1532
H3 H 0.7678 -0.5054 0.0966
C2 C 0.7610(3) -0.4569(2) 0.30262(19)
C3 C 0.7506(3) -0.5923(2) 0.46309(19)
H4 H 0.7468 -0.6597 0.5108
C4 C 0.7492(3) -0.4336(2) 0.52164(19)
C5 C 0.7418(3) -0.3415(2) 0.66902(19)
C6 C 0.7532(3) -0.3959(2) 0.7757(2)
H5 H 0.7628 -0.4994 0.7655
C7 C 0.7267(3) -0.1170(2) 0.84449(19)
C8 C 0.7054(3) 0.0503(2) 0.9221(2)
H6 H 0.5799 0.0700 0.8736
H7 H 0.8137 0.1200 0.9227
H8 H 0.7089 0.0687 1.0201
Cd1A Cd 0.247741(18) 0.083703(13) 0.476020(13)
Cd1A_2 Cd 1.247741(18) 0.083703(13) 0.476020(13)
Cl1A Cl 1.13997(6) -0.00589(5) 0.66420(5)
Cl2A Cl 0.36627(6) -0.17653(5) 0.35229(5)
loop_
_geom_bond_atom_site_label_1
_geom_bond_atom_site_label_2
_geom_bond_site_symmetry_1
_geom_bond_site_symmetry_2
Cd1 N1 1_555 1_555
N1 C2 1_555 1_555
N2 Cd1 1_555 1_555
Cl1 Cd1 1_555 1_555
Cl2 Cd1 1_555 1_555
S1 C2 1_555 1_555
S2 C6 1_555 1_555
C1 H1 1_555 1_555
H2 C1 1_555 1_555
H3 C1 1_555 1_555
C2 C1 1_555 1_555
C3 S1 1_555 1_555
H4 C3 1_555 1_555
C4 N1 1_555 1_555
C5 N2 1_555 1_555
C6 C5 1_555 1_555
H5 C6 1_555 1_555
C7 N2 1_555 1_555
C8 C7 1_555 1_555
H6 C8 1_555 1_555
H7 C8 1_555 1_555
H8 C8 1_555 1_555
Cd1A Cl2 1_555 1_555
Cd1A_2 Cl1 1_555 1_555
Cl1A Cd1 1_555 1_555
Cl2A Cd1 1_555 1_555
S2 C7 1_555 1_555
C3 C4 1_555 1_555
C4 C5 1_555 1_555
Cd1A Cl2A 1_555 1_555
Cd1A_2 Cl1A 1_555 1_555

#END
