
#######################################################################
#
#                 Cambridge Crystallographic Data Centre
#                                CCDC 
#
#######################################################################
#
# If this CIF has been generated from an entry in the Cambridge 
# Structural Database, then it will include bibliographic, chemical, 
# crystal, experimental, refinement or atomic coordinate data resulting 
# from the CCDC's data processing and validation procedures.
#
#######################################################################

data_RUBQAH
_symmetry_cell_setting           triclinic
_symmetry_space_group_name_H-M   'P -1'
_symmetry_Int_Tables_number      2
_space_group_name_Hall           '-P 1'
loop_
_symmetry_equiv_pos_site_id
_symmetry_equiv_pos_as_xyz
1 x,y,z
2 -x,-y,-z
_cell_length_a                   20.563(2)
_cell_length_b                   20.569(2)
_cell_length_c                   25.012(3)
_cell_angle_alpha                110.077(2)
_cell_angle_beta                 93.9170(10)
_cell_angle_gamma                90.0460(10)
_cell_volume                     9909.68
loop_
_atom_site_label
_atom_site_type_symbol
_atom_site_fract_x
_atom_site_fract_y
_atom_site_fract_z
Sn1 Sn 0.27341(4) 0.45995(4) -0.01763(4)
Sn2 Sn 0.72676(4) 1.04016(4) 0.01720(4)
Sn3 Sn 0.22595(4) 0.72487(4) 0.01850(4)
Sn4 Sn 0.77378(4) 0.77520(4) -0.01823(4)
N1 N 0.5371(5) 0.6713(5) -0.0352(5)
N2 N 0.4644(5) 0.8280(6) 0.0366(5)
N3 N 1.0352(5) 1.0431(6) -0.0408(5)
N4 N -0.0351(5) 0.4548(6) 0.0387(5)
O1 O 0.3541(4) 0.5244(4) -0.0226(4)
O2 O 0.3094(5) 0.6276(5) 0.0086(5)
O3 O 0.6466(4) 0.9759(4) 0.0222(4)
O4 O 0.6900(5) 0.8724(5) -0.0085(5)
O5 O 0.8535(4) 1.2044(4) -0.0261(4)
O6 O 0.8089(5) 1.1289(5) 0.0082(5)
O7 O 0.1466(4) 0.2946(4) 0.0246(4)
O8 O 0.1905(5) 0.3712(5) -0.0083(5)
C1 C 0.3533(6) 0.5886(7) -0.0110(6)
C2 C 0.4920(6) 0.7125(7) -0.0101(6)
C3 C 0.4324(6) 0.6859(6) -0.0026(6)
H1 H 0.4009 0.7171 0.0147
C4 C 0.4177(8) 0.6178(8) -0.0188(7)
C5 C 0.4646(6) 0.5752(7) -0.0438(6)
H2 H 0.4589 0.5278 -0.0524
C6 C 0.5234(7) 0.6014(8) -0.0576(7)
H3 H 0.5518 0.5716 -0.0813
C7 C 0.6462(6) 0.9108(7) 0.0105(6)
C8 C 0.5082(6) 0.7867(7) 0.0112(6)
C9 C 0.5692(6) 0.8127(6) 0.0020(6)
H4 H 0.6009 0.7820 -0.0155
C10 C 0.5816(7) 0.8830(8) 0.0190(7)
C11 C 0.5345(6) 0.9261(7) 0.0437(6)
H5 H 0.5396 0.9737 0.0528
C12 C 0.4757(7) 0.8967(8) 0.0560(7)
H6 H 0.4453 0.9259 0.0776
C13 C 0.8543(6) 1.1497(7) -0.0119(6)
C14 C 0.9914(6) 1.0267(7) -0.0114(6)
C15 C 0.9312(6) 1.0608(6) -0.0024(6)
H7 H 0.9004 1.0460 0.0167
C16 C 0.9171(8) 1.1142(8) -0.0209(7)
C17 C 0.9655(6) 1.1333(7) -0.0499(6)
H8 H 0.9611 1.1724 -0.0603
C18 C 1.0208(7) 1.0922(8) -0.0630(7)
H9 H 1.0486 1.0996 -0.0883
C19 C 0.1461(7) 0.3509(7) 0.0134(6)
C20 C 0.0103(6) 0.4724(7) 0.0111(6)
C21 C 0.0688(6) 0.4391(6) 0.0024(6)
H10 H 0.0996 0.4535 -0.0170
C22 C 0.0826(8) 0.3871(8) 0.0208(7)
C23 C 0.0364(6) 0.3653(7) 0.0488(6)
H11 H 0.0439 0.3284 0.0617
C24 C -0.0226(7) 0.4012(8) 0.0572(7)
H12 H -0.0543 0.3874 0.0762
C25 C 0.2077(6) 0.4824(7) -0.0785(6)
H13 H 0.1700 0.5044 -0.0593
H14 H 0.2290 0.5157 -0.0916
C26 C 0.1849(7) 0.4238(7) -0.1282(7)
H15 H 0.1612 0.3911 -0.1162
H16 H 0.2220 0.4006 -0.1478
C27 C 0.1402(8) 0.4476(9) -0.1694(7)
H17 H 0.1035 0.4715 -0.1497
H18 H 0.1641 0.4798 -0.1819
C28 C 0.1183(9) 0.3934(10) -0.2150(8)
H19 H 0.0930 0.3626 -0.2027
H20 H 0.1547 0.3692 -0.2341
H21 H 0.0917 0.4095 -0.2406
C29 C 0.3268(6) 0.3682(6) -0.0544(6)
H22 H 0.3492 0.3569 -0.0234
H23 H 0.2956 0.3308 -0.0738
C30 C 0.3764(7) 0.3690(7) -0.0960(6)
H24 H 0.4126 0.4001 -0.0761
H25 H 0.3567 0.3854 -0.1252
C31 C 0.4012(8) 0.2955(8) -0.1237(7)
H26 H 0.3675 0.2658 -0.1498
H27 H 0.4144 0.2754 -0.0948
C32 C 0.4600(8) 0.3042(10) -0.1560(8)
H28 H 0.4452 0.3014 -0.1940
H29 H 0.4903 0.2681 -0.1579
H30 H 0.4811 0.3484 -0.1363
C33 C 0.2652(6) 0.5007(7) 0.0717(6)
H31 H 0.2306 0.5341 0.0793
H32 H 0.2520 0.4633 0.0843
C34 C 0.3249(7) 0.5348(8) 0.1065(7)
H33 H 0.3382 0.5723 0.0942
H34 H 0.3595 0.5015 0.0994
C35 C 0.3170(8) 0.5644(9) 0.1721(8)
H35 H 0.2811 0.5961 0.1803
H36 H 0.3083 0.5272 0.1864
C36 C 0.3780(10) 0.6002(10) 0.1982(8)
H37 H 0.4016 0.6098 0.1699
H38 H 0.4036 0.5716 0.2144
H39 H 0.3692 0.6429 0.2277
C37 C 0.7911(7) 1.0181(7) 0.0781(6)
H40 H 0.7692 0.9851 0.0911
H41 H 0.8286 0.9954 0.0588
C38 C 0.8145(7) 1.0749(8) 0.1272(7)
H42 H 0.7772 1.1007 0.1443
H43 H 0.8406 1.1055 0.1147
C39 C 0.8550(8) 1.0571(9) 0.1733(7)
H44 H 0.8259 1.0327 0.1894
H45 H 0.8866 1.0239 0.1540
C40 C 0.8875(9) 1.1047(10) 0.2170(8)
H46 H 0.9069 1.1385 0.2040
H47 H 0.9210 1.0829 0.2330
H48 H 0.8580 1.1270 0.2455
C41 C 0.6728(6) 1.1327(6) 0.0528(6)
H49 H 0.7034 1.1711 0.0711
H50 H 0.6483 1.1424 0.0220
C42 C 0.6257(7) 1.1290(7) 0.0961(7)
H51 H 0.6488 1.1153 0.1256
H52 H 0.5916 1.0946 0.0774
C43 C 0.5951(7) 1.2014(8) 0.1235(7)
H53 H 0.6239 1.2318 0.1544
H54 H 0.5854 1.2234 0.0954
C44 C 0.5322(8) 1.1827(10) 0.1460(9)
H55 H 0.4977 1.2119 0.1406
H56 H 0.5396 1.1896 0.1859
H57 H 0.5200 1.1352 0.1254
C45 C 0.7339(7) 1.0000(7) -0.0716(6)
H58 H 0.7434 1.0384 -0.0842
H59 H 0.7712 0.9701 -0.0788
C46 C 0.6802(7) 0.9624(8) -0.1061(7)
H60 H 0.6421 0.9908 -0.0975
H61 H 0.6725 0.9218 -0.0959
C47 C 0.6869(8) 0.9388(9) -0.1705(8)
H62 H 0.6911 0.9789 -0.1821
H63 H 0.7258 0.9119 -0.1798
C48 C 0.6332(9) 0.8995(10) -0.1993(8)
H64 H 0.6391 0.8523 -0.2017
H65 H 0.6277 0.9017 -0.2370
H66 H 0.5951 0.9169 -0.1793
C49 C 0.2320(6) 0.6920(7) -0.0732(6)
H67 H 0.2647 0.7205 -0.0814
H68 H 0.2463 0.6445 -0.0868
C50 C 0.1687(6) 0.6964(8) -0.1055(6)
H69 H 0.1502 0.7414 -0.0876
H70 H 0.1382 0.6614 -0.1035
C51 C 0.1778(7) 0.6858(9) -0.1681(6)
H71 H 0.1845 0.7294 -0.1741
H72 H 0.2136 0.6555 -0.1823
C52 C 0.1125(8) 0.6521(10) -0.1945(7)
H73 H 0.0784 0.6836 -0.1794
H74 H 0.1065 0.6107 -0.1856
H75 H 0.1111 0.6406 -0.2351
C53 C 0.1712(7) 0.6633(7) 0.0545(7)
H76 H 0.1470 0.6282 0.0232
H77 H 0.2022 0.6394 0.0716
C54 C 0.1252(7) 0.6962(8) 0.0970(7)
H78 H 0.0899 0.7138 0.0786
H79 H 0.1473 0.7357 0.1260
C55 C 0.0950(8) 0.6494(9) 0.1273(8)
H80 H 0.0852 0.6033 0.1002
H81 H 0.1253 0.6459 0.1576
C56 C 0.0358(10) 0.6823(10) 0.1504(9)
H82 H 0.0008 0.6696 0.1211
H83 H 0.0425 0.7317 0.1643
H84 H 0.0250 0.6675 0.1813
C57 C 0.2910(6) 0.7976(7) 0.0780(6)
H85 H 0.3276 0.8051 0.0582
H86 H 0.2690 0.8412 0.0924
C58 C 0.3165(7) 0.7790(7) 0.1268(7)
H87 H 0.2790 0.7587 0.1374
H88 H 0.3449 0.7408 0.1103
C59 C 0.3496(8) 0.8171(9) 0.1794(8)
H89 H 0.3176 0.8429 0.2046
H90 H 0.3683 0.7844 0.1959
C60 C 0.3956(8) 0.8602(8) 0.1795(8)
H91 H 0.4200 0.8403 0.1465
H92 H 0.4241 0.8696 0.2134
H93 H 0.3768 0.9025 0.1785
C61 C 0.7631(6) 0.8080(7) 0.0730(6)
H94 H 0.7321 0.7775 0.0809
H95 H 0.7467 0.8547 0.0864
C62 C 0.8280(7) 0.8061(8) 0.1034(6)
H96 H 0.8430 0.7589 0.0922
H97 H 0.8598 0.8343 0.0938
C63 C 0.8199(8) 0.8342(9) 0.1680(6)
H98 H 0.8135 0.8838 0.1822
H99 H 0.7851 0.8105 0.1788
C64 C 0.8887(8) 0.8145(9) 0.1866(7)
H100 H 0.9159 0.8041 0.1552
H101 H 0.9077 0.8527 0.2180
H102 H 0.8848 0.7748 0.1980
C65 C 0.8290(7) 0.8368(7) -0.0521(7)
H103 H 0.8551 0.8696 -0.0205
H104 H 0.7986 0.8635 -0.0670
C66 C 0.8721(7) 0.8039(8) -0.0961(7)
H105 H 0.9045 0.7790 -0.0811
H106 H 0.8470 0.7701 -0.1277
C67 C 0.9092(8) 0.8560(9) -0.1198(8)
H107 H 0.9270 0.8966 -0.0891
H108 H 0.8810 0.8703 -0.1462
C68 C 0.9622(10) 0.8097(10) -0.1496(9)
H109 H 1.0025 0.8219 -0.1263
H110 H 0.9506 0.7623 -0.1558
H111 H 0.9673 0.8153 -0.1857
C69 C 0.7078(6) 0.7026(7) -0.0818(6)
H112 H 0.6710 0.6929 -0.0631
H113 H 0.7301 0.6595 -0.0982
C70 C 0.6828(7) 0.7273(7) -0.1288(6)
H114 H 0.6687 0.7746 -0.1125
H115 H 0.7179 0.7272 -0.1528
C71 C 0.6253(7) 0.6818(8) -0.1658(6)
H116 H 0.6014 0.7056 -0.1881
H117 H 0.5956 0.6689 -0.1424
C72 C 0.6576(9) 0.6210(8) -0.2028(8)
H118 H 0.7015 0.6200 -0.1875
H119 H 0.6342 0.5797 -0.2047
H120 H 0.6582 0.6235 -0.2404
Sn1A Sn -0.27341(4) 0.54005(4) 0.01763(4)
Sn2A Sn -0.72676(4) -0.04016(4) -0.01720(4)
Sn2A_2 Sn 1.27324(4) 0.95984(4) -0.01720(4)
Sn3A Sn -0.22595(4) 0.27513(4) -0.01850(4)
Sn3A_2 Sn 0.77405(4) 1.27513(4) -0.01850(4)
Sn3_2 Sn 1.22595(4) 0.72487(4) 0.01850(4)
Sn4A Sn 0.22622(4) 0.22480(4) 0.01823(4)
Sn4_2 Sn -0.22622(4) 0.77520(4) -0.01823(4)
Sn4A_2 Sn -0.77378(4) 0.22480(4) 0.01823(4)
N1A N -0.5371(5) 0.3287(5) 0.0352(5)
N2A N -0.4644(5) 0.1720(6) -0.0366(5)
N3A N 0.9648(5) 0.9569(6) 0.0408(5)
N4A N 0.0351(5) 0.5452(6) -0.0387(5)
O1A O -0.3541(4) 0.4756(4) 0.0226(4)
O2A O -0.3094(5) 0.3724(5) -0.0086(5)
O3A O -0.6466(4) 0.0241(4) -0.0222(4)
O4A O -0.6900(5) 0.1276(5) 0.0085(5)
O4A_2 O 0.3100(5) 0.1276(5) 0.0085(5)
O5A O 1.1465(4) 0.7956(4) 0.0261(4)
O5A_2 O 0.1465(4) 0.7956(4) 0.0261(4)
O5_2 O -0.1465(4) 0.2044(4) -0.0261(4)
O6A O 1.1911(5) 0.8711(5) -0.0082(5)
O6A_2 O -0.8089(5) -0.1289(5) -0.0082(5)
O7A O -0.1466(4) 0.7054(4) -0.0246(4)
O7A_2 O 0.8534(4) 0.7054(4) -0.0246(4)
O8A O -0.1905(5) 0.6288(5) 0.0083(5)
C1A C -0.3533(6) 0.4114(7) 0.0110(6)
C2A C -0.4920(6) 0.2875(7) 0.0101(6)
C3A C -0.4324(6) 0.3141(6) 0.0026(6)
H1A H -0.4009 0.2829 -0.0147
C4A C -0.4177(8) 0.3822(8) 0.0188(7)
C5A C -0.4646(6) 0.4248(7) 0.0438(6)
H2A H -0.4589 0.4722 0.0524
C6A C -0.5234(7) 0.3986(8) 0.0576(7)
H3A H -0.5518 0.4284 0.0813
C7A C -0.6462(6) 0.0892(7) -0.0105(6)
C8A C -0.5082(6) 0.2133(7) -0.0112(6)
C9A C -0.5692(6) 0.1873(6) -0.0020(6)
H4A H -0.6009 0.2180 0.0155
C10A C -0.5816(7) 0.1170(8) -0.0190(7)
C11A C -0.5345(6) 0.0739(7) -0.0437(6)
H5A H -0.5396 0.0263 -0.0528
C12A C -0.4757(7) 0.1033(8) -0.0560(7)
H6A H -0.4453 0.0741 -0.0776
C13A C 1.1457(6) 0.8503(7) 0.0119(6)
C14A C 1.0086(6) 0.9733(7) 0.0114(6)
C15A C 1.0688(6) 0.9392(6) 0.0024(6)
H7A H 1.0996 0.9540 -0.0167
C16A C 1.0829(8) 0.8858(8) 0.0209(7)
C17A C 1.0345(6) 0.8667(7) 0.0499(6)
H8A H 1.0389 0.8276 0.0603
C18A C 0.9792(7) 0.9078(8) 0.0630(7)
H9A H 0.9514 0.9004 0.0883
C19A C -0.1461(7) 0.6491(7) -0.0134(6)
C20A C -0.0103(6) 0.5276(7) -0.0111(6)
C21A C -0.0688(6) 0.5609(6) -0.0024(6)
H10A H -0.0996 0.5465 0.0170
C22A C -0.0826(8) 0.6129(8) -0.0208(7)
C23A C -0.0364(6) 0.6347(7) -0.0488(6)
H11A H -0.0439 0.6716 -0.0617
C24A C 0.0226(7) 0.5988(8) -0.0572(7)
H12A H 0.0543 0.6126 -0.0762
C25A C -0.2077(6) 0.5176(7) 0.0785(6)
H13A H -0.1700 0.4956 0.0593
H14A H -0.2290 0.4843 0.0916
C26A C -0.1849(7) 0.5762(7) 0.1282(7)
H15A H -0.1612 0.6089 0.1162
H16A H -0.2220 0.5994 0.1478
C27A C -0.1402(8) 0.5524(9) 0.1694(7)
H17A H -0.1035 0.5285 0.1497
H18A H -0.1641 0.5202 0.1819
C28A C -0.1183(9) 0.6066(10) 0.2150(8)
H19A H -0.0930 0.6374 0.2027
H20A H -0.1547 0.6308 0.2341
H21A H -0.0917 0.5905 0.2406
C29A C -0.3268(6) 0.6318(6) 0.0544(6)
H22A H -0.3492 0.6431 0.0234
H23A H -0.2956 0.6692 0.0738
C30A C -0.3764(7) 0.6310(7) 0.0960(6)
H24A H -0.4126 0.5999 0.0761
H25A H -0.3567 0.6146 0.1252
C31A C -0.4012(8) 0.7045(8) 0.1237(7)
H26A H -0.3675 0.7342 0.1498
H27A H -0.4144 0.7246 0.0948
C32A C -0.4600(8) 0.6958(10) 0.1560(8)
H28A H -0.4452 0.6986 0.1940
H29A H -0.4903 0.7319 0.1579
H30A H -0.4811 0.6516 0.1363
C33A C -0.2652(6) 0.4993(7) -0.0717(6)
H31A H -0.2306 0.4659 -0.0793
H32A H -0.2520 0.5367 -0.0843
C34A C -0.3249(7) 0.4652(8) -0.1065(7)
H33A H -0.3382 0.4277 -0.0942
H34A H -0.3595 0.4985 -0.0994
C35A C -0.3170(8) 0.4356(9) -0.1721(8)
H35A H -0.2811 0.4039 -0.1803
H36A H -0.3083 0.4728 -0.1864
C36A C -0.3780(10) 0.3998(10) -0.1982(8)
H37A H -0.4016 0.3902 -0.1699
H38A H -0.4036 0.4284 -0.2144
H39A H -0.3692 0.3571 -0.2277
C37A C -0.7911(7) -0.0181(7) -0.0781(6)
H40A H -0.7692 0.0149 -0.0911
H41A H -0.8286 0.0046 -0.0588
C38A C -0.8145(7) -0.0749(8) -0.1272(7)
H42A H -0.7772 -0.1007 -0.1443
H43A H -0.8406 -0.1055 -0.1147
C39A C -0.8550(8) -0.0571(9) -0.1733(7)
H44A H -0.8259 -0.0327 -0.1894
H45A H -0.8866 -0.0239 -0.1540
C40A C -0.8875(9) -0.1047(10) -0.2170(8)
H46A H -0.9069 -0.1385 -0.2040
H47A H -0.9210 -0.0829 -0.2330
H48A H -0.8580 -0.1270 -0.2455
C41A C -0.6728(6) -0.1327(6) -0.0528(6)
H49A H -0.7034 -0.1711 -0.0711
H50A H -0.6483 -0.1424 -0.0220
C42A C -0.6257(7) -0.1290(7) -0.0961(7)
H51A H -0.6488 -0.1153 -0.1256
H52A H -0.5916 -0.0946 -0.0774
C43A C -0.5951(7) -0.2014(8) -0.1235(7)
H53A H -0.6239 -0.2318 -0.1544
H54A H -0.5854 -0.2234 -0.0954
C44A C -0.5322(8) -0.1827(10) -0.1460(9)
H55A H -0.4977 -0.2119 -0.1406
H56A H -0.5396 -0.1896 -0.1859
H57A H -0.5200 -0.1352 -0.1254
C45A C -0.7339(7) 0.0000(7) 0.0716(6)
H58A H -0.7434 -0.0384 0.0842
H59A H -0.7712 0.0299 0.0788
C46A C -0.6802(7) 0.0376(8) 0.1061(7)
H60A H -0.6421 0.0092 0.0975
H61A H -0.6725 0.0782 0.0959
C47A C -0.6869(8) 0.0612(9) 0.1705(8)
H62A H -0.6911 0.0211 0.1821
H63A H -0.7258 0.0881 0.1798
C48A C -0.6332(9) 0.1005(10) 0.1993(8)
H64A H -0.6391 0.1477 0.2017
H65A H -0.6277 0.0983 0.2370
H66A H -0.5951 0.0831 0.1793
C49A C -0.2320(6) 0.3080(7) 0.0732(6)
H67A H -0.2647 0.2795 0.0814
H68A H -0.2463 0.3555 0.0868
C50A C -0.1687(6) 0.3036(8) 0.1055(6)
H69A H -0.1502 0.2586 0.0876
H70A H -0.1382 0.3386 0.1035
C51A C -0.1778(7) 0.3142(9) 0.1681(6)
H71A H -0.1845 0.2706 0.1741
H72A H -0.2136 0.3445 0.1823
C52A C -0.1125(8) 0.3479(10) 0.1945(7)
H73A H -0.0784 0.3164 0.1794
H74A H -0.1065 0.3893 0.1856
H75A H -0.1111 0.3594 0.2351
C53A C -0.1712(7) 0.3367(7) -0.0545(7)
H76A H -0.1470 0.3718 -0.0232
H77A H -0.2022 0.3606 -0.0716
C54A C -0.1252(7) 0.3038(8) -0.0970(7)
H78A H -0.0899 0.2862 -0.0786
H79A H -0.1473 0.2643 -0.1260
C55A C -0.0950(8) 0.3506(9) -0.1273(8)
H80A H -0.0852 0.3967 -0.1002
H81A H -0.1253 0.3541 -0.1576
C56A C -0.0358(10) 0.3177(10) -0.1504(9)
H82A H -0.0008 0.3304 -0.1211
H83A H -0.0425 0.2683 -0.1643
H84A H -0.0250 0.3325 -0.1813
C57A C -0.2910(6) 0.2024(7) -0.0780(6)
H85A H -0.3276 0.1949 -0.0582
H86A H -0.2690 0.1588 -0.0924
C58A C -0.3165(7) 0.2210(7) -0.1268(7)
H87A H -0.2790 0.2413 -0.1374
H88A H -0.3449 0.2592 -0.1103
C59A C -0.3496(8) 0.1829(9) -0.1794(8)
H89A H -0.3176 0.1571 -0.2046
H90A H -0.3683 0.2156 -0.1959
C60A C -0.3956(8) 0.1398(8) -0.1795(8)
H91A H -0.4200 0.1597 -0.1465
H92A H -0.4241 0.1304 -0.2134
H93A H -0.3768 0.0975 -0.1785
C61A C 0.2369(6) 0.1920(7) -0.0730(6)
H94A H 0.2679 0.2225 -0.0809
H95A H 0.2533 0.1453 -0.0864
C62A C 0.1720(7) 0.1939(8) -0.1034(6)
H96A H 0.1570 0.2411 -0.0922
H97A H 0.1402 0.1657 -0.0938
C63A C 0.1801(8) 0.1658(9) -0.1680(6)
H98A H 0.1865 0.1162 -0.1822
H99A H 0.2149 0.1895 -0.1788
C64A C 0.1113(8) 0.1855(9) -0.1866(7)
H100A H 0.0841 0.1959 -0.1552
H101A H 0.0923 0.1473 -0.2180
H102A H 0.1152 0.2252 -0.1980
C65A C 0.1710(7) 0.1632(7) 0.0521(7)
H103A H 0.1449 0.1304 0.0205
H104A H 0.2014 0.1365 0.0670
C66A C 0.1279(7) 0.1961(8) 0.0961(7)
H105A H 0.0955 0.2210 0.0811
H106A H 0.1530 0.2299 0.1277
C67A C 0.0908(8) 0.1440(9) 0.1198(8)
H107A H 0.0730 0.1034 0.0891
H108A H 0.1190 0.1297 0.1462
C68A C 0.0378(10) 0.1903(10) 0.1496(9)
H109A H -0.0025 0.1781 0.1263
H110A H 0.0494 0.2377 0.1558
H111A H 0.0327 0.1847 0.1857
C69A C 0.2922(6) 0.2974(7) 0.0818(6)
H112A H 0.3290 0.3071 0.0631
H113A H 0.2699 0.3405 0.0982
C70A C 0.3172(7) 0.2727(7) 0.1288(6)
H114A H 0.3313 0.2254 0.1125
H115A H 0.2821 0.2728 0.1528
C71A C 0.3747(7) 0.3182(8) 0.1658(6)
H116A H 0.3986 0.2944 0.1881
H117A H 0.4044 0.3311 0.1424
C72A C 0.3424(9) 0.3790(8) 0.2028(8)
H118A H 0.2985 0.3800 0.1875
H119A H 0.3658 0.4203 0.2047
H120A H 0.3418 0.3765 0.2404
Sn5 Sn 1.53441(4) -0.21674(5) 0.51814(4)
Sn6 Sn 0.96556(4) 0.21706(4) 0.48139(4)
Sn7 Sn 1.28159(4) -0.28188(4) 0.48291(4)
Sn8 Sn 1.21861(4) 0.28210(4) 0.51779(4)
N5 N 1.3153(5) 0.0545(6) 0.5400(5)
N6 N 1.1849(5) -0.0556(5) 0.4594(5)
N7 N 0.9381(5) 0.5543(5) 0.5358(5)
N8 N 1.5607(5) -0.5548(5) 0.4641(5)
O9 O 1.4670(4) -0.1340(4) 0.5240(4)
O10 O 1.3760(5) -0.1954(6) 0.4920(5)
O11 O 1.0327(4) 0.1339(4) 0.4751(4)
O12 O 1.1243(4) 0.1957(5) 0.5094(5)
O13 O 0.7858(4) 0.3640(4) 0.5220(4)
O14 O 0.8735(5) 0.3057(6) 0.4913(5)
O15 O 1.7136(4) -0.3637(4) 0.4781(4)
O16 O 1.6260(5) -0.3055(5) 0.5089(5)
C73 C 1.4058(7) -0.1383(7) 0.5137(6)
C74 C 1.2818(6) -0.0046(7) 0.5105(6)
C75 C 1.3123(6) -0.0668(7) 0.5021(6)
H121 H 1.2893 -0.1077 0.4815
C76 C 1.3741(8) -0.0707(9) 0.5226(7)
C77 C 1.4098(7) -0.0110(7) 0.5480(6)
H122 H 1.4549 -0.0106 0.5538
C78 C 1.3743(7) 0.0494(8) 0.5646(7)
H123 H 1.3922 0.0878 0.5940
C79 C 1.0954(7) 0.1392(7) 0.4861(6)
C80 C 1.2160(6) 0.0048(6) 0.4906(6)
C81 C 1.1875(6) 0.0670(6) 0.4985(6)
H124 H 1.2120 0.1074 0.5174
C82 C 1.1247(7) 0.0721(8) 0.4795(7)
C83 C 1.0919(7) 0.0123(7) 0.4505(6)
H125 H 1.0496 0.0134 0.4351
C84 C 1.1203(7) -0.0515(8) 0.4434(7)
H126 H 1.0950 -0.0920 0.4274
C85 C 0.8447(7) 0.3589(7) 0.5102(6)
C86 C 0.9693(5) 0.4972(6) 0.5112(6)
C87 C 0.9384(6) 0.4323(6) 0.5023(5)
H127 H 0.9600 0.3918 0.4844
C88 C 0.8768(7) 0.4282(8) 0.5195(7)
C89 C 0.8456(6) 0.4869(7) 0.5442(6)
H128 H 0.8024 0.4857 0.5527
C90 C 0.8791(7) 0.5495(8) 0.5569(7)
H129 H 0.8610 0.5896 0.5805
C91 C 1.6540(7) -0.3584(7) 0.4877(6)
C92 C 1.5320(5) -0.4969(6) 0.4911(6)
C93 C 1.5618(5) -0.4318(6) 0.4975(5)
H130 H 1.5390 -0.3915 0.5132
C94 C 1.6227(7) -0.4276(8) 0.4813(7)
C95 C 1.6511(6) -0.4877(6) 0.4525(6)
H131 H 1.6911 -0.4873 0.4374
C96 C 1.6189(7) -0.5510(8) 0.4458(7)
H132 H 1.6396 -0.5920 0.4275
C97 C 1.6138(6) -0.1458(7) 0.5531(7)
H133 H 1.6324 -0.1365 0.5217
H134 H 1.6468 -0.1689 0.5691
C98 C 1.6031(7) -0.0807(8) 0.5957(7)
H135 H 1.5716 -0.0567 0.5790
H136 H 1.5825 -0.0900 0.6262
C99 C 1.6620(8) -0.0286(8) 0.6241(8)
H137 H 1.6924 -0.0303 0.5956
H138 H 1.6849 -0.0420 0.6537
C100 C 1.6381(11) 0.0439(12) 0.6493(10)
H139 H 1.5913 0.0431 0.6456
H140 H 1.6530 0.0627 0.6890
H141 H 1.6548 0.0722 0.6295
C101 C 1.5229(6) -0.2711(6) 0.4274(5)
H142 H 1.4948 -0.3118 0.4197
H143 H 1.5650 -0.2865 0.4134
C102 C 1.4934(6) -0.2249(7) 0.3963(6)
H144 H 1.5043 -0.1770 0.4189
H145 H 1.4463 -0.2305 0.3935
C103 C 1.5151(7) -0.2393(8) 0.3393(6)
H146 H 1.5468 -0.2041 0.3398
H147 H 1.5358 -0.2839 0.3268
C104 C 1.4569(8) -0.2399(10) 0.2988(7)
H148 H 1.4175 -0.2436 0.3161
H149 H 1.4572 -0.1977 0.2904
H150 H 1.4592 -0.2786 0.2641
C105 C 1.4926(6) -0.2517(7) 0.5818(5)
H151 H 1.4774 -0.2993 0.5632
H152 H 1.4548 -0.2242 0.5949
C106 C 1.5373(6) -0.2480(7) 0.6337(5)
H153 H 1.5817 -0.2564 0.6227
H154 H 1.5364 -0.2019 0.6620
C107 C 1.5164(8) -0.3013(7) 0.6597(6)
H155 H 1.5537 -0.3257 0.6684
H156 H 1.4852 -0.3347 0.6339
C108 C 1.4864(9) -0.2596(10) 0.7125(7)
H157 H 1.4693 -0.2899 0.7303
H158 H 1.5187 -0.2287 0.7382
H159 H 1.4517 -0.2334 0.7031
C109 C 0.8843(6) 0.1450(7) 0.4452(7)
H160 H 0.8646 0.1359 0.4762
H161 H 0.8520 0.1674 0.4279
C110 C 0.8996(7) 0.0762(7) 0.4011(7)
H162 H 0.9283 0.0504 0.4185
H163 H 0.9213 0.0838 0.3705
C111 C 0.8339(8) 0.0342(8) 0.3769(8)
H164 H 0.8066 0.0344 0.4070
H165 H 0.8097 0.0514 0.3501
C112 C 0.8610(9) -0.0370(10) 0.3474(9)
H166 H 0.9067 -0.0325 0.3433
H167 H 0.8386 -0.0577 0.3104
H168 H 0.8549 -0.0657 0.3700
C113 C 0.9774(6) 0.2747(6) 0.5709(5)
H169 H 1.0162 0.3043 0.5793
H170 H 0.9401 0.3038 0.5825
C114 C 0.9831(7) 0.2259(6) 0.6019(5)
H171 H 1.0102 0.1879 0.5820
H172 H 0.9403 0.2069 0.6032
C115 C 1.0131(8) 0.2618(7) 0.6627(5)
H173 H 0.9842 0.2960 0.6853
H174 H 1.0547 0.2841 0.6627
C116 C 1.0216(9) 0.2009(8) 0.6851(6)
H175 H 1.0099 0.1582 0.6548
H176 H 0.9940 0.2069 0.7158
H177 H 1.0663 0.1997 0.6987
C117 C 1.0092(6) 0.2506(7) 0.4216(5)
H178 H 1.0315 0.2947 0.4419
H179 H 1.0420 0.2178 0.4043
C118 C 0.9655(6) 0.2591(8) 0.3756(5)
H180 H 0.9353 0.2960 0.3909
H181 H 0.9407 0.2166 0.3553
C119 C 1.0125(6) 0.2782(8) 0.3340(5)
H182 H 1.0314 0.3246 0.3511
H183 H 1.0468 0.2451 0.3223
C120 C 0.9639(8) 0.2728(10) 0.2868(6)
H184 H 0.9479 0.3179 0.2907
H185 H 0.9283 0.2429 0.2875
H186 H 0.9837 0.2540 0.2511
C121 C 1.2848(6) -0.2280(7) 0.5724(6)
H187 H 1.2552 -0.1897 0.5794
H188 H 1.3284 -0.2084 0.5851
C122 C 1.2681(7) -0.2685(7) 0.6079(7)
H189 H 1.2264 -0.2924 0.5935
H190 H 1.3008 -0.3029 0.6059
C123 C 1.2642(8) -0.2219(9) 0.6693(7)
H191 H 1.2262 -0.1932 0.6737
H192 H 1.3030 -0.1924 0.6831
C124 C 1.2593(9) -0.2710(10) 0.6986(8)
H193 H 1.3022 -0.2803 0.7115
H194 H 1.2337 -0.2520 0.7308
H195 H 1.2389 -0.3132 0.6730
C125 C 1.3532(6) -0.3534(7) 0.4465(6)
H196 H 1.3787 -0.3616 0.4775
H197 H 1.3823 -0.3310 0.4287
C126 C 1.3333(7) -0.4236(7) 0.4027(7)
H198 H 1.3101 -0.4503 0.4211
H199 H 1.3038 -0.4172 0.3731
C127 C 1.3935(8) -0.4652(8) 0.3749(8)
H200 H 1.4293 -0.4610 0.4032
H201 H 1.4082 -0.4493 0.3453
C128 C 1.3667(9) -0.5389(10) 0.3500(8)
H202 H 1.4006 -0.5690 0.3321
H203 H 1.3514 -0.5528 0.3799
H204 H 1.3313 -0.5415 0.3222
C129 C 1.2285(6) -0.2464(7) 0.4212(6)
H205 H 1.2176 -0.1985 0.4400
H206 H 1.1879 -0.2730 0.4091
C130 C 1.2621(7) -0.2512(7) 0.3704(6)
H207 H 1.3036 -0.2261 0.3812
H208 H 1.2701 -0.2993 0.3488
C131 C 1.2157(8) -0.2181(9) 0.3324(7)
H209 H 1.2150 -0.1681 0.3495
H210 H 1.1715 -0.2369 0.3269
C132 C 1.2461(9) -0.2385(10) 0.2821(8)
H211 H 1.2432 -0.2881 0.2650
H212 H 1.2252 -0.2181 0.2565
H213 H 1.2911 -0.2237 0.2898
C133 C 1.2146(6) 0.2320(7) 0.4288(6)
H214 H 1.2417 0.1917 0.4215
H215 H 1.1701 0.2151 0.4165
C134 C 1.2341(7) 0.2695(7) 0.3904(7)
H216 H 1.2801 0.2820 0.3992
H217 H 1.2104 0.3123 0.3997
C135 C 1.2231(8) 0.2311(8) 0.3260(7)
H218 H 1.1769 0.2266 0.3141
H219 H 1.2413 0.1853 0.3155
C136 C 1.2585(10) 0.2762(11) 0.2988(9)
H220 H 1.2350 0.2736 0.2636
H221 H 1.3018 0.2597 0.2914
H222 H 1.2608 0.3233 0.3244
C137 C 1.2734(6) 0.2467(7) 0.5778(6)
H223 H 1.2873 0.2000 0.5583
H224 H 1.3122 0.2760 0.5923
C138 C 1.2363(7) 0.2470(8) 0.6261(6)
H225 H 1.2040 0.2094 0.6142
H226 H 1.2142 0.2904 0.6414
C139 C 1.2878(8) 0.2375(9) 0.6723(7)
H227 H 1.3194 0.2028 0.6554
H228 H 1.3104 0.2807 0.6947
C140 C 1.2458(8) 0.2151(10) 0.7047(8)
H229 H 1.2220 0.2537 0.7275
H230 H 1.2708 0.1959 0.7293
H231 H 1.2157 0.1805 0.6797
C141 C 1.1459(6) 0.3522(7) 0.5534(6)
H232 H 1.1203 0.3598 0.5222
H233 H 1.1172 0.3295 0.5711
C142 C 1.1648(7) 0.4211(8) 0.5960(7)
H234 H 1.1910 0.4450 0.5773
H235 H 1.1931 0.4134 0.6258
C143 C 1.1123(8) 0.4712(8) 0.6255(8)
H236 H 1.0784 0.4732 0.5972
H237 H 1.0926 0.4543 0.6525
C144 C 1.1407(11) 0.5416(11) 0.6558(9)
H238 H 1.1430 0.5508 0.6962
H239 H 1.1137 0.5751 0.6469
H240 H 1.1837 0.5445 0.6440
Sn5A Sn 1.46559(4) -0.78326(5) 0.48186(4)
Sn6A Sn 2.03444(4) -1.21706(4) 0.51861(4)
Sn6A_2 Sn 1.03444(4) 0.78294(4) 0.51861(4)
Sn7A Sn 1.71841(4) -0.71812(4) 0.51709(4)
Sn7A_2 Sn 0.71841(4) 0.28188(4) 0.51709(4)
Sn7_2 Sn 1.28159(4) 0.71812(4) 0.48291(4)
Sn8A Sn 1.78139(4) -0.28210(4) 0.48221(4)
Sn8_2 Sn 1.21861(4) -0.71790(4) 0.51779(4)
Sn8A_2 Sn 1.78139(4) -1.28210(4) 0.48221(4)
N5A N 1.6847(5) -1.0545(6) 0.4600(5)
N6A N 1.8151(5) -0.9444(5) 0.5406(5)
N7A N 1.0619(5) 0.4457(5) 0.4642(5)
N8A N 1.4393(5) -0.4452(5) 0.5359(5)
O9A O 1.5330(4) -0.8660(4) 0.4760(4)
O10A O 1.6240(5) -0.8046(6) 0.5080(5)
O11A O 1.9673(4) -1.1339(4) 0.5249(4)
O12A O 1.8757(4) -1.1957(5) 0.4906(5)
O12A_2 O 1.8757(4) -0.1957(5) 0.4906(5)
O13A O 1.2142(4) 0.6360(4) 0.4780(4)
O13A_2 O 1.2142(4) -0.3640(4) 0.4780(4)
O13_2 O 1.7858(4) -0.6360(4) 0.5220(4)
O14A O 1.1265(5) 0.6943(6) 0.5087(5)
O14A_2 O 2.1265(5) -1.3057(6) 0.5087(5)
O15A O 1.2864(4) -0.6363(4) 0.5219(4)
O15A_2 O 1.2864(4) 0.3637(4) 0.5219(4)
O16A O 1.3740(5) -0.6945(5) 0.4911(5)
C73A C 1.5942(7) -0.8617(7) 0.4863(6)
C74A C 1.7182(6) -0.9954(7) 0.4895(6)
C75A C 1.6877(6) -0.9332(7) 0.4979(6)
H121A H 1.7107 -0.8923 0.5185
C76A C 1.6259(8) -0.9293(9) 0.4774(7)
C77A C 1.5902(7) -0.9890(7) 0.4520(6)
H122A H 1.5451 -0.9894 0.4462
C78A C 1.6257(7) -1.0494(8) 0.4354(7)
H123A H 1.6078 -1.0878 0.4060
C79A C 1.9046(7) -1.1392(7) 0.5139(6)
C80A C 1.7840(6) -1.0048(6) 0.5094(6)
C81A C 1.8125(6) -1.0670(6) 0.5015(6)
H124A H 1.7880 -1.1074 0.4826
C82A C 1.8753(7) -1.0721(8) 0.5205(7)
C83A C 1.9081(7) -1.0123(7) 0.5495(6)
H125A H 1.9504 -1.0134 0.5649
C84A C 1.8797(7) -0.9485(8) 0.5566(7)
H126A H 1.9050 -0.9080 0.5726
C85A C 1.1553(7) 0.6411(7) 0.4898(6)
C86A C 1.0307(5) 0.5028(6) 0.4888(6)
C87A C 1.0616(6) 0.5677(6) 0.4977(5)
H127A H 1.0400 0.6082 0.5156
C88A C 1.1232(7) 0.5718(8) 0.4805(7)
C89A C 1.1544(6) 0.5131(7) 0.4558(6)
H128A H 1.1976 0.5143 0.4473
C90A C 1.1209(7) 0.4505(8) 0.4431(7)
H129A H 1.1390 0.4104 0.4195
C91A C 1.3460(7) -0.6416(7) 0.5123(6)
C92A C 1.4680(5) -0.5031(6) 0.5089(6)
C93A C 1.4382(5) -0.5682(6) 0.5025(5)
H130A H 1.4610 -0.6085 0.4868
C94A C 1.3773(7) -0.5724(8) 0.5187(7)
C95A C 1.3489(6) -0.5123(6) 0.5475(6)
H131A H 1.3089 -0.5127 0.5626
C96A C 1.3811(7) -0.4490(8) 0.5542(7)
H132A H 1.3604 -0.4080 0.5725
C97A C 1.3862(6) -0.8542(7) 0.4469(7)
H133A H 1.3676 -0.8635 0.4783
H134A H 1.3532 -0.8311 0.4309
C98A C 1.3969(7) -0.9193(8) 0.4043(7)
H135A H 1.4284 -0.9433 0.4210
H136A H 1.4175 -0.9100 0.3738
C99A C 1.3380(8) -0.9714(8) 0.3759(8)
H137A H 1.3076 -0.9697 0.4044
H138A H 1.3151 -0.9580 0.3463
C100A C 1.3619(11) -1.0439(12) 0.3507(10)
H139A H 1.4087 -1.0431 0.3544
H140A H 1.3470 -1.0627 0.3110
H141A H 1.3452 -1.0722 0.3705
C101A C 1.4771(6) -0.7289(6) 0.5726(5)
H142A H 1.5052 -0.6882 0.5803
H143A H 1.4350 -0.7135 0.5866
C102A C 1.5066(6) -0.7751(7) 0.6037(6)
H144A H 1.4957 -0.8230 0.5811
H145A H 1.5537 -0.7695 0.6065
C103A C 1.4849(7) -0.7607(8) 0.6607(6)
H146A H 1.4532 -0.7959 0.6602
H147A H 1.4642 -0.7161 0.6732
C104A C 1.5431(8) -0.7601(10) 0.7012(7)
H148A H 1.5825 -0.7564 0.6839
H149A H 1.5428 -0.8023 0.7096
H150A H 1.5408 -0.7214 0.7359
C105A C 1.5074(6) -0.7483(7) 0.4182(5)
H151A H 1.5226 -0.7007 0.4368
H152A H 1.5452 -0.7758 0.4051
C106A C 1.4627(6) -0.7520(7) 0.3663(5)
H153A H 1.4183 -0.7436 0.3773
H154A H 1.4636 -0.7981 0.3380
C107A C 1.4836(8) -0.6987(7) 0.3403(6)
H155A H 1.4463 -0.6743 0.3316
H156A H 1.5148 -0.6653 0.3661
C108A C 1.5136(9) -0.7404(10) 0.2875(7)
H157A H 1.5307 -0.7101 0.2697
H158A H 1.4813 -0.7713 0.2618
H159A H 1.5483 -0.7666 0.2969
C109A C 2.1157(6) -1.1450(7) 0.5548(7)
H160A H 2.1354 -1.1359 0.5238
H161A H 2.1480 -1.1674 0.5721
C110A C 2.1004(7) -1.0762(7) 0.5989(7)
H162A H 2.0717 -1.0504 0.5815
H163A H 2.0787 -1.0838 0.6295
C111A C 2.1661(8) -1.0342(8) 0.6231(8)
H164A H 2.1934 -1.0344 0.5930
H165A H 2.1903 -1.0514 0.6499
C112A C 2.1390(9) -0.9630(10) 0.6526(9)
H166A H 2.0933 -0.9675 0.6567
H167A H 2.1614 -0.9423 0.6896
H168A H 2.1451 -0.9343 0.6300
C113A C 2.0226(6) -1.2747(6) 0.4291(5)
H169A H 1.9838 -1.3043 0.4207
H170A H 2.0599 -1.3038 0.4175
C114A C 2.0169(7) -1.2259(6) 0.3981(5)
H171A H 1.9898 -1.1879 0.4180
H172A H 2.0597 -1.2069 0.3968
C115A C 1.9869(8) -1.2618(7) 0.3373(5)
H173A H 2.0158 -1.2960 0.3147
H174A H 1.9453 -1.2841 0.3373
C116A C 1.9784(9) -1.2009(8) 0.3149(6)
H175A H 1.9901 -1.1582 0.3452
H176A H 2.0060 -1.2069 0.2842
H177A H 1.9337 -1.1997 0.3013
C117A C 1.9908(6) -1.2506(7) 0.5784(5)
H178A H 1.9685 -1.2947 0.5581
H179A H 1.9580 -1.2178 0.5957
C118A C 2.0345(6) -1.2591(8) 0.6244(5)
H180A H 2.0647 -1.2960 0.6091
H181A H 2.0593 -1.2166 0.6447
C119A C 1.9875(6) -1.2782(8) 0.6660(5)
H182A H 1.9686 -1.3246 0.6489
H183A H 1.9532 -1.2451 0.6777
C120A C 2.0361(8) -1.2728(10) 0.7132(6)
H184A H 2.0521 -1.3179 0.7093
H185A H 2.0717 -1.2429 0.7125
H186A H 2.0163 -1.2540 0.7489
C121A C 1.7152(6) -0.7720(7) 0.4276(6)
H187A H 1.7448 -0.8103 0.4206
H188A H 1.6716 -0.7916 0.4149
C122A C 1.7319(7) -0.7315(7) 0.3921(7)
H189A H 1.7736 -0.7076 0.4065
H190A H 1.6992 -0.6971 0.3941
C123A C 1.7358(8) -0.7781(9) 0.3307(7)
H191A H 1.7738 -0.8068 0.3263
H192A H 1.6970 -0.8076 0.3169
C124A C 1.7407(9) -0.7290(10) 0.3014(8)
H193A H 1.6978 -0.7197 0.2885
H194A H 1.7663 -0.7480 0.2692
H195A H 1.7611 -0.6868 0.3270
C125A C 1.6468(6) -0.6466(7) 0.5535(6)
H196A H 1.6213 -0.6384 0.5225
H197A H 1.6177 -0.6690 0.5713
C126A C 1.6667(7) -0.5764(7) 0.5973(7)
H198A H 1.6899 -0.5497 0.5789
H199A H 1.6962 -0.5828 0.6269
C127A C 1.6065(8) -0.5348(8) 0.6251(8)
H200A H 1.5707 -0.5390 0.5968
H201A H 1.5918 -0.5507 0.6547
C128A C 1.6333(9) -0.4611(10) 0.6500(8)
H202A H 1.5994 -0.4310 0.6679
H203A H 1.6486 -0.4472 0.6201
H204A H 1.6687 -0.4585 0.6778
C129A C 1.7715(6) -0.7536(7) 0.5788(6)
H205A H 1.7824 -0.8015 0.5600
H206A H 1.8121 -0.7270 0.5909
C130A C 1.7379(7) -0.7488(7) 0.6296(6)
H207A H 1.6964 -0.7739 0.6188
H208A H 1.7299 -0.7007 0.6512
C131A C 1.7843(8) -0.7819(9) 0.6676(7)
H209A H 1.7850 -0.8319 0.6505
H210A H 1.8285 -0.7631 0.6731
C132A C 1.7539(9) -0.7615(10) 0.7179(8)
H211A H 1.7568 -0.7119 0.7350
H212A H 1.7748 -0.7819 0.7435
H213A H 1.7089 -0.7763 0.7102
C133A C 1.7854(6) -0.2320(7) 0.5712(6)
H214A H 1.7583 -0.1917 0.5785
H215A H 1.8299 -0.2151 0.5835
C134A C 1.7659(7) -0.2695(7) 0.6096(7)
H216A H 1.7199 -0.2820 0.6008
H217A H 1.7896 -0.3123 0.6003
C135A C 1.7769(8) -0.2311(8) 0.6740(7)
H218A H 1.8231 -0.2266 0.6859
H219A H 1.7587 -0.1853 0.6845
C136A C 1.7415(10) -0.2762(11) 0.7012(9)
H220A H 1.7650 -0.2736 0.7364
H221A H 1.6982 -0.2597 0.7086
H222A H 1.7392 -0.3233 0.6756
C137A C 1.7266(6) -0.2467(7) 0.4222(6)
H223A H 1.7127 -0.2000 0.4417
H224A H 1.6878 -0.2760 0.4077
C138A C 1.7637(7) -0.2470(8) 0.3739(6)
H225A H 1.7960 -0.2094 0.3858
H226A H 1.7858 -0.2904 0.3586
C139A C 1.7122(8) -0.2375(9) 0.3277(7)
H227A H 1.6806 -0.2028 0.3446
H228A H 1.6896 -0.2807 0.3053
C140A C 1.7542(8) -0.2151(10) 0.2953(8)
H229A H 1.7780 -0.2537 0.2725
H230A H 1.7292 -0.1959 0.2707
H231A H 1.7843 -0.1805 0.3203
C141A C 1.8541(6) -0.3522(7) 0.4466(6)
H232A H 1.8797 -0.3598 0.4778
H233A H 1.8828 -0.3295 0.4289
C142A C 1.8352(7) -0.4211(8) 0.4040(7)
H234A H 1.8090 -0.4450 0.4227
H235A H 1.8069 -0.4134 0.3742
C143A C 1.8877(8) -0.4712(8) 0.3745(8)
H236A H 1.9216 -0.4732 0.4028
H237A H 1.9074 -0.4543 0.3475
C144A C 1.8593(11) -0.5416(11) 0.3442(9)
H238A H 1.8570 -0.5508 0.3038
H239A H 1.8863 -0.5751 0.3531
H240A H 1.8163 -0.5445 0.3560
loop_
_geom_bond_atom_site_label_1
_geom_bond_atom_site_label_2
_geom_bond_site_symmetry_1
_geom_bond_site_symmetry_2
Sn1 O1 1_555 1_555
Sn2 O3 1_555 1_555
Sn3 O2 1_555 1_555
Sn4 O4 1_555 1_555
Sn5 O9 1_555 1_555
Sn6 O11 1_555 1_555
Sn7 O10 1_555 1_555
Sn8 O12 1_555 1_555
N1 C2 1_555 1_555
N2 C8 1_555 1_555
N3 C14 1_555 1_555
N4 C20 1_555 1_555
N5 C74 1_555 1_555
N6 C80 1_555 1_555
N7 C86 1_555 1_555
N8 C92 1_555 1_555
O1 C1 1_555 1_555
O2 C1 1_555 1_555
O3 C7 1_555 1_555
O4 C7 1_555 1_555
O5 C13 1_555 1_555
O6 Sn2 1_555 1_555
O7 C19 1_555 1_555
O8 Sn1 1_555 1_555
O9 C73 1_555 1_555
O10 C73 1_555 1_555
O11 C79 1_555 1_555
O12 C79 1_555 1_555
O13 C85 1_555 1_555
O14 Sn6 1_555 1_555
O15 C91 1_555 1_555
O16 Sn5 1_555 1_555
C1 C4 1_555 1_555
C2 C3 1_555 1_555
C3 H1 1_555 1_555
C4 C3 1_555 1_555
C5 C4 1_555 1_555
H2 C5 1_555 1_555
C6 N1 1_555 1_555
H3 C6 1_555 1_555
C7 C10 1_555 1_555
C8 C2 1_555 1_555
C9 C8 1_555 1_555
H4 C9 1_555 1_555
C10 C9 1_555 1_555
C11 C10 1_555 1_555
H5 C11 1_555 1_555
C12 N2 1_555 1_555
H6 C12 1_555 1_555
C13 O6 1_555 1_555
C14 C15 1_555 1_555
C15 H7 1_555 1_555
C16 C13 1_555 1_555
C17 C16 1_555 1_555
H8 C17 1_555 1_555
C18 N3 1_555 1_555
H9 C18 1_555 1_555
C19 O8 1_555 1_555
C20 C21 1_555 1_555
C21 H10 1_555 1_555
C22 C19 1_555 1_555
C23 C22 1_555 1_555
H11 C23 1_555 1_555
C24 N4 1_555 1_555
H12 C24 1_555 1_555
C25 Sn1 1_555 1_555
H13 C25 1_555 1_555
H14 C25 1_555 1_555
C26 C25 1_555 1_555
H15 C26 1_555 1_555
H16 C26 1_555 1_555
C27 C26 1_555 1_555
H17 C27 1_555 1_555
H18 C27 1_555 1_555
C28 C27 1_555 1_555
H19 C28 1_555 1_555
H20 C28 1_555 1_555
H21 C28 1_555 1_555
C29 Sn1 1_555 1_555
H22 C29 1_555 1_555
H23 C29 1_555 1_555
C30 C29 1_555 1_555
H24 C30 1_555 1_555
H25 C30 1_555 1_555
C31 C30 1_555 1_555
H26 C31 1_555 1_555
H27 C31 1_555 1_555
C32 C31 1_555 1_555
H28 C32 1_555 1_555
H29 C32 1_555 1_555
H30 C32 1_555 1_555
C33 Sn1 1_555 1_555
H31 C33 1_555 1_555
H32 C33 1_555 1_555
C34 C33 1_555 1_555
H33 C34 1_555 1_555
H34 C34 1_555 1_555
C35 C34 1_555 1_555
H35 C35 1_555 1_555
H36 C35 1_555 1_555
C36 C35 1_555 1_555
H37 C36 1_555 1_555
H38 C36 1_555 1_555
H39 C36 1_555 1_555
C37 Sn2 1_555 1_555
H40 C37 1_555 1_555
H41 C37 1_555 1_555
C38 C37 1_555 1_555
H42 C38 1_555 1_555
H43 C38 1_555 1_555
C39 C38 1_555 1_555
H44 C39 1_555 1_555
H45 C39 1_555 1_555
C40 C39 1_555 1_555
H46 C40 1_555 1_555
H47 C40 1_555 1_555
H48 C40 1_555 1_555
C41 Sn2 1_555 1_555
H49 C41 1_555 1_555
H50 C41 1_555 1_555
C42 C41 1_555 1_555
H51 C42 1_555 1_555
H52 C42 1_555 1_555
C43 C42 1_555 1_555
H53 C43 1_555 1_555
H54 C43 1_555 1_555
C44 C43 1_555 1_555
H55 C44 1_555 1_555
H56 C44 1_555 1_555
H57 C44 1_555 1_555
C45 Sn2 1_555 1_555
H58 C45 1_555 1_555
H59 C45 1_555 1_555
C46 C45 1_555 1_555
H60 C46 1_555 1_555
H61 C46 1_555 1_555
C47 C46 1_555 1_555
H62 C47 1_555 1_555
H63 C47 1_555 1_555
C48 C47 1_555 1_555
H64 C48 1_555 1_555
H65 C48 1_555 1_555
H66 C48 1_555 1_555
C49 Sn3 1_555 1_555
H67 C49 1_555 1_555
H68 C49 1_555 1_555
C50 C49 1_555 1_555
H69 C50 1_555 1_555
H70 C50 1_555 1_555
C51 C50 1_555 1_555
H71 C51 1_555 1_555
H72 C51 1_555 1_555
C52 C51 1_555 1_555
H73 C52 1_555 1_555
H74 C52 1_555 1_555
H75 C52 1_555 1_555
C53 Sn3 1_555 1_555
H76 C53 1_555 1_555
H77 C53 1_555 1_555
C54 C53 1_555 1_555
H78 C54 1_555 1_555
H79 C54 1_555 1_555
C55 C54 1_555 1_555
H80 C55 1_555 1_555
H81 C55 1_555 1_555
C56 C55 1_555 1_555
H82 C56 1_555 1_555
H83 C56 1_555 1_555
H84 C56 1_555 1_555
C57 Sn3 1_555 1_555
H85 C57 1_555 1_555
H86 C57 1_555 1_555
C58 C57 1_555 1_555
H87 C58 1_555 1_555
H88 C58 1_555 1_555
C59 C58 1_555 1_555
H89 C59 1_555 1_555
H90 C59 1_555 1_555
C60 C59 1_555 1_555
H91 C60 1_555 1_555
H92 C60 1_555 1_555
H93 C60 1_555 1_555
C61 Sn4 1_555 1_555
H94 C61 1_555 1_555
H95 C61 1_555 1_555
C62 C61 1_555 1_555
H96 C62 1_555 1_555
H97 C62 1_555 1_555
C63 C62 1_555 1_555
H98 C63 1_555 1_555
H99 C63 1_555 1_555
C64 C63 1_555 1_555
H100 C64 1_555 1_555
H101 C64 1_555 1_555
H102 C64 1_555 1_555
C65 Sn4 1_555 1_555
H103 C65 1_555 1_555
H104 C65 1_555 1_555
C66 C65 1_555 1_555
H105 C66 1_555 1_555
H106 C66 1_555 1_555
C67 C66 1_555 1_555
H107 C67 1_555 1_555
H108 C67 1_555 1_555
C68 C67 1_555 1_555
H109 C68 1_555 1_555
H110 C68 1_555 1_555
H111 C68 1_555 1_555
C69 Sn4 1_555 1_555
H112 C69 1_555 1_555
H113 C69 1_555 1_555
C70 C69 1_555 1_555
H114 C70 1_555 1_555
H115 C70 1_555 1_555
C71 C70 1_555 1_555
H116 C71 1_555 1_555
H117 C71 1_555 1_555
C72 C71 1_555 1_555
H118 C72 1_555 1_555
H119 C72 1_555 1_555
H120 C72 1_555 1_555
C73 C76 1_555 1_555
C74 C75 1_555 1_555
C75 H121 1_555 1_555
C76 C75 1_555 1_555
C77 C76 1_555 1_555
H122 C77 1_555 1_555
C78 N5 1_555 1_555
H123 C78 1_555 1_555
C79 C82 1_555 1_555
C80 C74 1_555 1_555
C81 C80 1_555 1_555
H124 C81 1_555 1_555
C82 C81 1_555 1_555
C83 C82 1_555 1_555
H125 C83 1_555 1_555
C84 N6 1_555 1_555
H126 C84 1_555 1_555
C85 O14 1_555 1_555
C86 C87 1_555 1_555
C87 H127 1_555 1_555
C88 C85 1_555 1_555
C89 C88 1_555 1_555
H128 C89 1_555 1_555
C90 N7 1_555 1_555
H129 C90 1_555 1_555
C91 O16 1_555 1_555
C92 C93 1_555 1_555
C93 H130 1_555 1_555
C94 C91 1_555 1_555
C95 C94 1_555 1_555
H131 C95 1_555 1_555
C96 N8 1_555 1_555
H132 C96 1_555 1_555
C97 Sn5 1_555 1_555
H133 C97 1_555 1_555
H134 C97 1_555 1_555
C98 C97 1_555 1_555
H135 C98 1_555 1_555
H136 C98 1_555 1_555
C99 C98 1_555 1_555
H137 C99 1_555 1_555
H138 C99 1_555 1_555
C100 C99 1_555 1_555
H139 C100 1_555 1_555
H140 C100 1_555 1_555
H141 C100 1_555 1_555
C101 Sn5 1_555 1_555
H142 C101 1_555 1_555
H143 C101 1_555 1_555
C102 C101 1_555 1_555
H144 C102 1_555 1_555
H145 C102 1_555 1_555
C103 C102 1_555 1_555
H146 C103 1_555 1_555
H147 C103 1_555 1_555
C104 C103 1_555 1_555
H148 C104 1_555 1_555
H149 C104 1_555 1_555
H150 C104 1_555 1_555
C105 Sn5 1_555 1_555
H151 C105 1_555 1_555
H152 C105 1_555 1_555
C106 C105 1_555 1_555
H153 C106 1_555 1_555
H154 C106 1_555 1_555
C107 C106 1_555 1_555
H155 C107 1_555 1_555
H156 C107 1_555 1_555
C108 C107 1_555 1_555
H157 C108 1_555 1_555
H158 C108 1_555 1_555
H159 C108 1_555 1_555
C109 Sn6 1_555 1_555
H160 C109 1_555 1_555
H161 C109 1_555 1_555
C110 C109 1_555 1_555
H162 C110 1_555 1_555
H163 C110 1_555 1_555
C111 C110 1_555 1_555
H164 C111 1_555 1_555
H165 C111 1_555 1_555
C112 C111 1_555 1_555
H166 C112 1_555 1_555
H167 C112 1_555 1_555
H168 C112 1_555 1_555
C113 Sn6 1_555 1_555
H169 C113 1_555 1_555
H170 C113 1_555 1_555
C114 C113 1_555 1_555
H171 C114 1_555 1_555
H172 C114 1_555 1_555
C115 C114 1_555 1_555
H173 C115 1_555 1_555
H174 C115 1_555 1_555
C116 C115 1_555 1_555
H175 C116 1_555 1_555
H176 C116 1_555 1_555
H177 C116 1_555 1_555
C117 Sn6 1_555 1_555
H178 C117 1_555 1_555
H179 C117 1_555 1_555
C118 C117 1_555 1_555
H180 C118 1_555 1_555
H181 C118 1_555 1_555
C119 C118 1_555 1_555
H182 C119 1_555 1_555
H183 C119 1_555 1_555
C120 C119 1_555 1_555
H184 C120 1_555 1_555
H185 C120 1_555 1_555
H186 C120 1_555 1_555
C121 Sn7 1_555 1_555
H187 C121 1_555 1_555
H188 C121 1_555 1_555
C122 C121 1_555 1_555
H189 C122 1_555 1_555
H190 C122 1_555 1_555
C123 C122 1_555 1_555
H191 C123 1_555 1_555
H192 C123 1_555 1_555
C124 C123 1_555 1_555
H193 C124 1_555 1_555
H194 C124 1_555 1_555
H195 C124 1_555 1_555
C125 Sn7 1_555 1_555
H196 C125 1_555 1_555
H197 C125 1_555 1_555
C126 C125 1_555 1_555
H198 C126 1_555 1_555
H199 C126 1_555 1_555
C127 C126 1_555 1_555
H200 C127 1_555 1_555
H201 C127 1_555 1_555
C128 C127 1_555 1_555
H202 C128 1_555 1_555
H203 C128 1_555 1_555
H204 C128 1_555 1_555
C129 Sn7 1_555 1_555
H205 C129 1_555 1_555
H206 C129 1_555 1_555
C130 C129 1_555 1_555
H207 C130 1_555 1_555
H208 C130 1_555 1_555
C131 C130 1_555 1_555
H209 C131 1_555 1_555
H210 C131 1_555 1_555
C132 C131 1_555 1_555
H211 C132 1_555 1_555
H212 C132 1_555 1_555
H213 C132 1_555 1_555
C133 Sn8 1_555 1_555
H214 C133 1_555 1_555
H215 C133 1_555 1_555
C134 C133 1_555 1_555
H216 C134 1_555 1_555
H217 C134 1_555 1_555
C135 C134 1_555 1_555
H218 C135 1_555 1_555
H219 C135 1_555 1_555
C136 C135 1_555 1_555
H220 C136 1_555 1_555
H221 C136 1_555 1_555
H222 C136 1_555 1_555
C137 Sn8 1_555 1_555
H223 C137 1_555 1_555
H224 C137 1_555 1_555
C138 C137 1_555 1_555
H225 C138 1_555 1_555
H226 C138 1_555 1_555
C139 C138 1_555 1_555
H227 C139 1_555 1_555
H228 C139 1_555 1_555
C140 C139 1_555 1_555
H229 C140 1_555 1_555
H230 C140 1_555 1_555
H231 C140 1_555 1_555
C141 Sn8 1_555 1_555
H232 C141 1_555 1_555
H233 C141 1_555 1_555
C142 C141 1_555 1_555
H234 C142 1_555 1_555
H235 C142 1_555 1_555
C143 C142 1_555 1_555
H236 C143 1_555 1_555
H237 C143 1_555 1_555
C144 C143 1_555 1_555
H238 C144 1_555 1_555
H239 C144 1_555 1_555
H240 C144 1_555 1_555
Sn1A O1A 1_555 1_555
Sn2A O3A 1_555 1_555
Sn2A_2 O6A 1_555 1_555
Sn3A O2A 1_555 1_555
Sn3A_2 O5 1_555 1_555
Sn3_2 O5A 1_555 1_555
Sn4A O7 1_555 1_555
Sn4_2 O7A 1_555 1_555
Sn4A_2 O4A 1_555 1_555
Sn5A O9A 1_555 1_555
Sn6A O11A 1_555 1_555
Sn6A_2 O14A 1_555 1_555
Sn7A O10A 1_555 1_555
Sn7A_2 O13 1_555 1_555
Sn7_2 O13A 1_555 1_555
Sn8A O15 1_555 1_555
Sn8_2 O15A 1_555 1_555
Sn8A_2 O12A 1_555 1_555
N1A C2A 1_555 1_555
N2A C8A 1_555 1_555
N3A C14A 1_555 1_555
N4A C20A 1_555 1_555
N5A C74A 1_555 1_555
N6A C80A 1_555 1_555
N7A C86A 1_555 1_555
N8A C92A 1_555 1_555
O1A C1A 1_555 1_555
O2A C1A 1_555 1_555
O3A C7A 1_555 1_555
O4A C7A 1_555 1_555
O4A_2 Sn4A 1_555 1_555
O5A C13A 1_555 1_555
O5A_2 Sn3 1_555 1_555
O5_2 Sn3A 1_555 1_555
O6A C13A 1_555 1_555
O6A_2 Sn2A 1_555 1_555
O7A C19A 1_555 1_555
O7A_2 Sn4 1_555 1_555
O8A Sn1A 1_555 1_555
O9A C73A 1_555 1_555
O10A C73A 1_555 1_555
O11A C79A 1_555 1_555
O12A C79A 1_555 1_555
O12A_2 Sn8A 1_555 1_555
O13A C85A 1_555 1_555
O13A_2 Sn7 1_555 1_555
O13_2 Sn7A 1_555 1_555
O14A C85A 1_555 1_555
O14A_2 Sn6A 1_555 1_555
O15A C91A 1_555 1_555
O15A_2 Sn8 1_555 1_555
O16A Sn5A 1_555 1_555
C1A C4A 1_555 1_555
C2A C3A 1_555 1_555
C3A H1A 1_555 1_555
C4A C3A 1_555 1_555
C5A C4A 1_555 1_555
H2A C5A 1_555 1_555
C6A N1A 1_555 1_555
H3A C6A 1_555 1_555
C7A C10A 1_555 1_555
C8A C2A 1_555 1_555
C9A C8A 1_555 1_555
H4A C9A 1_555 1_555
C10A C9A 1_555 1_555
C11A C10A 1_555 1_555
H5A C11A 1_555 1_555
C12A N2A 1_555 1_555
H6A C12A 1_555 1_555
C13A C16A 1_555 1_555
C14A C14 1_555 1_555
C15A C14A 1_555 1_555
H7A C15A 1_555 1_555
C16A C15A 1_555 1_555
C17A C16A 1_555 1_555
H8A C17A 1_555 1_555
C18A N3A 1_555 1_555
H9A C18A 1_555 1_555
C19A O8A 1_555 1_555
C20A C20 1_555 1_555
C21A C20A 1_555 1_555
H10A C21A 1_555 1_555
C22A C19A 1_555 1_555
C23A C22A 1_555 1_555
H11A C23A 1_555 1_555
C24A N4A 1_555 1_555
H12A C24A 1_555 1_555
C25A Sn1A 1_555 1_555
H13A C25A 1_555 1_555
H14A C25A 1_555 1_555
C26A C25A 1_555 1_555
H15A C26A 1_555 1_555
H16A C26A 1_555 1_555
C27A C26A 1_555 1_555
H17A C27A 1_555 1_555
H18A C27A 1_555 1_555
C28A C27A 1_555 1_555
H19A C28A 1_555 1_555
H20A C28A 1_555 1_555
H21A C28A 1_555 1_555
C29A Sn1A 1_555 1_555
H22A C29A 1_555 1_555
H23A C29A 1_555 1_555
C30A C29A 1_555 1_555
H24A C30A 1_555 1_555
H25A C30A 1_555 1_555
C31A C30A 1_555 1_555
H26A C31A 1_555 1_555
H27A C31A 1_555 1_555
C32A C31A 1_555 1_555
H28A C32A 1_555 1_555
H29A C32A 1_555 1_555
H30A C32A 1_555 1_555
C33A Sn1A 1_555 1_555
H31A C33A 1_555 1_555
H32A C33A 1_555 1_555
C34A C33A 1_555 1_555
H33A C34A 1_555 1_555
H34A C34A 1_555 1_555
C35A C34A 1_555 1_555
H35A C35A 1_555 1_555
H36A C35A 1_555 1_555
C36A C35A 1_555 1_555
H37A C36A 1_555 1_555
H38A C36A 1_555 1_555
H39A C36A 1_555 1_555
C37A Sn2A 1_555 1_555
H40A C37A 1_555 1_555
H41A C37A 1_555 1_555
C38A C37A 1_555 1_555
H42A C38A 1_555 1_555
H43A C38A 1_555 1_555
C39A C38A 1_555 1_555
H44A C39A 1_555 1_555
H45A C39A 1_555 1_555
C40A C39A 1_555 1_555
H46A C40A 1_555 1_555
H47A C40A 1_555 1_555
H48A C40A 1_555 1_555
C41A Sn2A 1_555 1_555
H49A C41A 1_555 1_555
H50A C41A 1_555 1_555
C42A C41A 1_555 1_555
H51A C42A 1_555 1_555
H52A C42A 1_555 1_555
C43A C42A 1_555 1_555
H53A C43A 1_555 1_555
H54A C43A 1_555 1_555
C44A C43A 1_555 1_555
H55A C44A 1_555 1_555
H56A C44A 1_555 1_555
H57A C44A 1_555 1_555
C45A Sn2A 1_555 1_555
H58A C45A 1_555 1_555
H59A C45A 1_555 1_555
C46A C45A 1_555 1_555
H60A C46A 1_555 1_555
H61A C46A 1_555 1_555
C47A C46A 1_555 1_555
H62A C47A 1_555 1_555
H63A C47A 1_555 1_555
C48A C47A 1_555 1_555
H64A C48A 1_555 1_555
H65A C48A 1_555 1_555
H66A C48A 1_555 1_555
C49A Sn3A 1_555 1_555
H67A C49A 1_555 1_555
H68A C49A 1_555 1_555
C50A C49A 1_555 1_555
H69A C50A 1_555 1_555
H70A C50A 1_555 1_555
C51A C50A 1_555 1_555
H71A C51A 1_555 1_555
H72A C51A 1_555 1_555
C52A C51A 1_555 1_555
H73A C52A 1_555 1_555
H74A C52A 1_555 1_555
H75A C52A 1_555 1_555
C53A Sn3A 1_555 1_555
H76A C53A 1_555 1_555
H77A C53A 1_555 1_555
C54A C53A 1_555 1_555
H78A C54A 1_555 1_555
H79A C54A 1_555 1_555
C55A C54A 1_555 1_555
H80A C55A 1_555 1_555
H81A C55A 1_555 1_555
C56A C55A 1_555 1_555
H82A C56A 1_555 1_555
H83A C56A 1_555 1_555
H84A C56A 1_555 1_555
C57A Sn3A 1_555 1_555
H85A C57A 1_555 1_555
H86A C57A 1_555 1_555
C58A C57A 1_555 1_555
H87A C58A 1_555 1_555
H88A C58A 1_555 1_555
C59A C58A 1_555 1_555
H89A C59A 1_555 1_555
H90A C59A 1_555 1_555
C60A C59A 1_555 1_555
H91A C60A 1_555 1_555
H92A C60A 1_555 1_555
H93A C60A 1_555 1_555
C61A Sn4A 1_555 1_555
H94A C61A 1_555 1_555
H95A C61A 1_555 1_555
C62A C61A 1_555 1_555
H96A C62A 1_555 1_555
H97A C62A 1_555 1_555
C63A C62A 1_555 1_555
H98A C63A 1_555 1_555
H99A C63A 1_555 1_555
C64A C63A 1_555 1_555
H100A C64A 1_555 1_555
H101A C64A 1_555 1_555
H102A C64A 1_555 1_555
C65A Sn4A 1_555 1_555
H103A C65A 1_555 1_555
H104A C65A 1_555 1_555
C66A C65A 1_555 1_555
H105A C66A 1_555 1_555
H106A C66A 1_555 1_555
C67A C66A 1_555 1_555
H107A C67A 1_555 1_555
H108A C67A 1_555 1_555
C68A C67A 1_555 1_555
H109A C68A 1_555 1_555
H110A C68A 1_555 1_555
H111A C68A 1_555 1_555
C69A Sn4A 1_555 1_555
H112A C69A 1_555 1_555
H113A C69A 1_555 1_555
C70A C69A 1_555 1_555
H114A C70A 1_555 1_555
H115A C70A 1_555 1_555
C71A C70A 1_555 1_555
H116A C71A 1_555 1_555
H117A C71A 1_555 1_555
C72A C71A 1_555 1_555
H118A C72A 1_555 1_555
H119A C72A 1_555 1_555
H120A C72A 1_555 1_555
C73A C76A 1_555 1_555
C74A C75A 1_555 1_555
C75A H121A 1_555 1_555
C76A C75A 1_555 1_555
C77A C76A 1_555 1_555
H122A C77A 1_555 1_555
C78A N5A 1_555 1_555
H123A C78A 1_555 1_555
C79A C82A 1_555 1_555
C80A C74A 1_555 1_555
C81A C80A 1_555 1_555
H124A C81A 1_555 1_555
C82A C81A 1_555 1_555
C83A C82A 1_555 1_555
H125A C83A 1_555 1_555
C84A N6A 1_555 1_555
H126A C84A 1_555 1_555
C85A C88A 1_555 1_555
C86A C86 1_555 1_555
C87A C86A 1_555 1_555
H127A C87A 1_555 1_555
C88A C87A 1_555 1_555
C89A C88A 1_555 1_555
H128A C89A 1_555 1_555
C90A N7A 1_555 1_555
H129A C90A 1_555 1_555
C91A O16A 1_555 1_555
C92A C92 1_555 1_555
C93A C92A 1_555 1_555
H130A C93A 1_555 1_555
C94A C91A 1_555 1_555
C95A C94A 1_555 1_555
H131A C95A 1_555 1_555
C96A N8A 1_555 1_555
H132A C96A 1_555 1_555
C97A Sn5A 1_555 1_555
H133A C97A 1_555 1_555
H134A C97A 1_555 1_555
C98A C97A 1_555 1_555
H135A C98A 1_555 1_555
H136A C98A 1_555 1_555
C99A C98A 1_555 1_555
H137A C99A 1_555 1_555
H138A C99A 1_555 1_555
C100A C99A 1_555 1_555
H139A C100A 1_555 1_555
H140A C100A 1_555 1_555
H141A C100A 1_555 1_555
C101A Sn5A 1_555 1_555
H142A C101A 1_555 1_555
H143A C101A 1_555 1_555
C102A C101A 1_555 1_555
H144A C102A 1_555 1_555
H145A C102A 1_555 1_555
C103A C102A 1_555 1_555
H146A C103A 1_555 1_555
H147A C103A 1_555 1_555
C104A C103A 1_555 1_555
H148A C104A 1_555 1_555
H149A C104A 1_555 1_555
H150A C104A 1_555 1_555
C105A Sn5A 1_555 1_555
H151A C105A 1_555 1_555
H152A C105A 1_555 1_555
C106A C105A 1_555 1_555
H153A C106A 1_555 1_555
H154A C106A 1_555 1_555
C107A C106A 1_555 1_555
H155A C107A 1_555 1_555
H156A C107A 1_555 1_555
C108A C107A 1_555 1_555
H157A C108A 1_555 1_555
H158A C108A 1_555 1_555
H159A C108A 1_555 1_555
C109A Sn6A 1_555 1_555
H160A C109A 1_555 1_555
H161A C109A 1_555 1_555
C110A C109A 1_555 1_555
H162A C110A 1_555 1_555
H163A C110A 1_555 1_555
C111A C110A 1_555 1_555
H164A C111A 1_555 1_555
H165A C111A 1_555 1_555
C112A C111A 1_555 1_555
H166A C112A 1_555 1_555
H167A C112A 1_555 1_555
H168A C112A 1_555 1_555
C113A Sn6A 1_555 1_555
H169A C113A 1_555 1_555
H170A C113A 1_555 1_555
C114A C113A 1_555 1_555
H171A C114A 1_555 1_555
H172A C114A 1_555 1_555
C115A C114A 1_555 1_555
H173A C115A 1_555 1_555
H174A C115A 1_555 1_555
C116A C115A 1_555 1_555
H175A C116A 1_555 1_555
H176A C116A 1_555 1_555
H177A C116A 1_555 1_555
C117A Sn6A 1_555 1_555
H178A C117A 1_555 1_555
H179A C117A 1_555 1_555
C118A C117A 1_555 1_555
H180A C118A 1_555 1_555
H181A C118A 1_555 1_555
C119A C118A 1_555 1_555
H182A C119A 1_555 1_555
H183A C119A 1_555 1_555
C120A C119A 1_555 1_555
H184A C120A 1_555 1_555
H185A C120A 1_555 1_555
H186A C120A 1_555 1_555
C121A Sn7A 1_555 1_555
H187A C121A 1_555 1_555
H188A C121A 1_555 1_555
C122A C121A 1_555 1_555
H189A C122A 1_555 1_555
H190A C122A 1_555 1_555
C123A C122A 1_555 1_555
H191A C123A 1_555 1_555
H192A C123A 1_555 1_555
C124A C123A 1_555 1_555
H193A C124A 1_555 1_555
H194A C124A 1_555 1_555
H195A C124A 1_555 1_555
C125A Sn7A 1_555 1_555
H196A C125A 1_555 1_555
H197A C125A 1_555 1_555
C126A C125A 1_555 1_555
H198A C126A 1_555 1_555
H199A C126A 1_555 1_555
C127A C126A 1_555 1_555
H200A C127A 1_555 1_555
H201A C127A 1_555 1_555
C128A C127A 1_555 1_555
H202A C128A 1_555 1_555
H203A C128A 1_555 1_555
H204A C128A 1_555 1_555
C129A Sn7A 1_555 1_555
H205A C129A 1_555 1_555
H206A C129A 1_555 1_555
C130A C129A 1_555 1_555
H207A C130A 1_555 1_555
H208A C130A 1_555 1_555
C131A C130A 1_555 1_555
H209A C131A 1_555 1_555
H210A C131A 1_555 1_555
C132A C131A 1_555 1_555
H211A C132A 1_555 1_555
H212A C132A 1_555 1_555
H213A C132A 1_555 1_555
C133A Sn8A 1_555 1_555
H214A C133A 1_555 1_555
H215A C133A 1_555 1_555
C134A C133A 1_555 1_555
H216A C134A 1_555 1_555
H217A C134A 1_555 1_555
C135A C134A 1_555 1_555
H218A C135A 1_555 1_555
H219A C135A 1_555 1_555
C136A C135A 1_555 1_555
H220A C136A 1_555 1_555
H221A C136A 1_555 1_555
H222A C136A 1_555 1_555
C137A Sn8A 1_555 1_555
H223A C137A 1_555 1_555
H224A C137A 1_555 1_555
C138A C137A 1_555 1_555
H225A C138A 1_555 1_555
H226A C138A 1_555 1_555
C139A C138A 1_555 1_555
H227A C139A 1_555 1_555
H228A C139A 1_555 1_555
C140A C139A 1_555 1_555
H229A C140A 1_555 1_555
H230A C140A 1_555 1_555
H231A C140A 1_555 1_555
C141A Sn8A 1_555 1_555
H232A C141A 1_555 1_555
H233A C141A 1_555 1_555
C142A C141A 1_555 1_555
H234A C142A 1_555 1_555
H235A C142A 1_555 1_555
C143A C142A 1_555 1_555
H236A C143A 1_555 1_555
H237A C143A 1_555 1_555
C144A C143A 1_555 1_555
H238A C144A 1_555 1_555
H239A C144A 1_555 1_555
H240A C144A 1_555 1_555
C5 C6 1_555 1_555
C11 C12 1_555 1_555
C15 C16 1_555 1_555
C17 C18 1_555 1_555
C21 C22 1_555 1_555
C23 C24 1_555 1_555
C77 C78 1_555 1_555
C83 C84 1_555 1_555
C87 C88 1_555 1_555
C89 C90 1_555 1_555
C93 C94 1_555 1_555
C95 C96 1_555 1_555
C5A C6A 1_555 1_555
C11A C12A 1_555 1_555
C17A C18A 1_555 1_555
C21A C22A 1_555 1_555
C23A C24A 1_555 1_555
C77A C78A 1_555 1_555
C83A C84A 1_555 1_555
C89A C90A 1_555 1_555
C93A C94A 1_555 1_555
C95A C96A 1_555 1_555

#END
