
#######################################################################
#
#                 Cambridge Crystallographic Data Centre
#                                CCDC 
#
#######################################################################
#
# If this CIF has been generated from an entry in the Cambridge 
# Structural Database, then it will include bibliographic, chemical, 
# crystal, experimental, refinement or atomic coordinate data resulting 
# from the CCDC's data processing and validation procedures.
#
#######################################################################

data_RUBSEN
_symmetry_cell_setting           tetragonal
_symmetry_space_group_name_H-M   'P 4'
_symmetry_Int_Tables_number      75
_space_group_name_Hall           'P 4'
loop_
_symmetry_equiv_pos_site_id
_symmetry_equiv_pos_as_xyz
1 x,y,z
2 -y,x,z
3 -x,-y,z
4 y,-x,z
_cell_length_a                   32.4066(2)
_cell_length_b                   32.4066(2)
_cell_length_c                   23.1808(2)
_cell_angle_alpha                90
_cell_angle_beta                 90
_cell_angle_gamma                90
_cell_volume                     24344.2
loop_
_atom_site_label
_atom_site_type_symbol
_atom_site_fract_x
_atom_site_fract_y
_atom_site_fract_z
I1 I 0.722332(17) 0.67279(2) 0.84680(4)
I2 I 0.783837(17) 0.811877(18) 0.48260(4)
K5 K 1.0000 1.0000 0.25006(16)
K6 K 1.0000 1.0000 0.40330(14)
K7 K 1.0000 1.0000 0.55216(15)
K8 K 1.0000 1.0000 0.70098(14)
O22 O 0.94262(16) 0.95961(15) 0.3335(2)
Si5 Si 0.74232(10) 0.90531(11) 0.11363(13)
O23 O 0.74938(16) 0.88097(15) 0.3166(3)
O24 O 0.69971(14) 0.94023(17) 0.3841(2)
O25 O 0.68157(16) 0.9530(2) 0.2910(2)
O26 O 0.7586(2) 0.92683(19) 0.1738(2)
N21 N 0.88878(15) 1.00560(16) 0.3348(3)
H125 H 0.9069 1.0258 0.3323
N22 N 0.81752(15) 0.98923(14) 0.3425(3)
N23 N 0.80799(13) 0.91498(15) 0.3531(3)
N24 N 0.87410(16) 0.89349(15) 0.3440(3)
N25 N 0.8385(2) 1.05624(16) 0.3357(3)
H126 H 0.8126 1.0642 0.3383
H127 H 0.8583 1.0747 0.3322
C77 C 0.90390(19) 0.96544(17) 0.3360(3)
C78 C 0.84793(18) 1.01616(17) 0.3372(3)
C79 C 0.83137(16) 0.94998(15) 0.3434(3)
C80 C 0.83601(18) 0.88288(19) 0.3537(4)
H128 H 0.8281 0.8551 0.3606
C81 C 0.87141(17) 0.93626(16) 0.3391(3)
C82 C 0.76360(16) 0.90779(19) 0.3610(3)
H129 H 0.7584 0.8951 0.3996
C83 C 0.73758(17) 0.9470(2) 0.3543(3)
H130 H 0.7523 0.9726 0.3669
C84 C 0.72479(19) 0.9477(2) 0.2909(3)
H131 H 0.7388 0.9706 0.2696
C85 C 0.7381(2) 0.9054(2) 0.2677(3)
H132 H 0.7135 0.8923 0.2492
C86 C 0.66814(19) 0.9577(2) 0.3484(3)
C87 C 0.6635(3) 1.0034(2) 0.3642(4)
H133 H 0.6543 1.0057 0.4043
H134 H 0.6430 1.0162 0.3388
H135 H 0.6901 1.0173 0.3595
C88 C 0.6281(2) 0.9343(3) 0.3591(5)
H136 H 0.6195 0.9382 0.3993
H137 H 0.6325 0.9049 0.3517
H138 H 0.6066 0.9448 0.3333
C89 C 0.7720(2) 0.9062(3) 0.2242(3)
H139 H 0.7963 0.9206 0.2405
H140 H 0.7803 0.8777 0.2145
C90 C 0.7861(3) 0.9085(4) 0.0600(5)
H141 H 0.8104 0.8945 0.0758
H142 H 0.7928 0.9375 0.0527
H143 H 0.7779 0.8952 0.0239
C91 C 0.7314(5) 0.8488(3) 0.1234(7)
H144 H 0.7569 0.8345 0.1343
H145 H 0.7209 0.8373 0.0871
H146 H 0.7107 0.8451 0.1538
C92 C 0.6955(3) 0.9305(3) 0.0934(5)
C93 C 0.6620(4) 0.9205(6) 0.1409(7)
H147 H 0.6583 0.8905 0.1437
H148 H 0.6358 0.9334 0.1304
H149 H 0.6713 0.9312 0.1783
C94 C 0.6813(5) 0.9147(5) 0.0328(6)
H150 H 0.6792 0.8845 0.0334
H151 H 0.7015 0.9231 0.0036
H152 H 0.6543 0.9266 0.0234
C95 C 0.7007(5) 0.9786(3) 0.0950(8)
H153 H 0.7095 0.9871 0.1336
H154 H 0.6742 0.9917 0.0858
H155 H 0.7214 0.9869 0.0666
O27 O 1.00578(13) 0.93165(14) 0.4776(2)
Si6 Si 0.86230(19) 0.74801(13) 0.27955(18)
O28 O 0.94585(15) 0.74558(16) 0.4193(2)
O29 O 0.94301(16) 0.71432(15) 0.5614(2)
O30 O 0.89906(19) 0.68063(14) 0.5013(3)
O31 O 0.88755(19) 0.76709(17) 0.3361(2)
N26 N 0.93996(13) 0.90565(14) 0.4790(3)
H156 H 0.9305 0.9311 0.4787
N27 N 0.92159(14) 0.83451(14) 0.4793(3)
N28 N 0.98274(14) 0.79156(13) 0.4784(3)
N29 N 1.03209(14) 0.83999(14) 0.4795(3)
N30 N 0.87184(15) 0.88469(17) 0.4831(3)
H157 H 0.8528 0.8653 0.4846
H158 H 0.8646 0.9109 0.4836
C96 C 0.98247(17) 0.90039(17) 0.4784(3)
C97 C 0.91151(16) 0.87440(17) 0.4800(3)
C98 C 0.96260(15) 0.82905(15) 0.4790(4)
C99 C 1.02431(17) 0.80031(17) 0.4792(4)
H159 H 1.0452 0.7797 0.4796
C100 C 0.99350(15) 0.85818(15) 0.4785(4)
C101 C 0.96387(19) 0.75039(18) 0.4751(3)
H160 H 0.9858 0.7290 0.4804
C102 C 0.92989(19) 0.74395(19) 0.5208(3)
H161 H 0.9208 0.7704 0.5392
C103 C 0.8954(2) 0.72293(18) 0.4864(3)
H162 H 0.8677 0.7340 0.4975
C104 C 0.9044(2) 0.7306(2) 0.4226(3)
H163 H 0.9030 0.7036 0.4018
C105 C 0.9162(2) 0.67907(17) 0.5572(3)
C106 C 0.8837(3) 0.6827(3) 0.6044(4)
H164 H 0.8651 0.6590 0.6026
H165 H 0.8679 0.7082 0.5989
H166 H 0.8973 0.6834 0.6422
C107 C 0.9416(3) 0.6398(2) 0.5644(5)
H167 H 0.9233 0.6158 0.5620
H168 H 0.9553 0.6402 0.6021
H169 H 0.9624 0.6383 0.5338
C108 C 0.8756(2) 0.7603(2) 0.3934(3)
H170 H 0.8472 0.7491 0.3942
H171 H 0.8757 0.7869 0.4145
C109 C 0.8065(3) 0.7661(5) 0.2852(7)
H172 H 0.7947 0.7566 0.3218
H173 H 0.7905 0.7546 0.2531
H174 H 0.8056 0.7963 0.2836
C110 C 0.8621(6) 0.6900(3) 0.2845(7)
H175 H 0.8490 0.6815 0.3206
H176 H 0.8906 0.6798 0.2836
H177 H 0.8468 0.6785 0.2518
C111 C 0.8858(4) 0.7647(4) 0.2141(4)
C112 C 0.9326(3) 0.7536(5) 0.2187(6)
H178 H 0.9446 0.7673 0.2525
H179 H 0.9470 0.7630 0.1838
H180 H 0.9358 0.7237 0.2225
C113 C 0.8766(4) 0.8122(3) 0.2089(6)
H181 H 0.8467 0.8166 0.2069
H182 H 0.8896 0.8230 0.1738
H183 H 0.8878 0.8266 0.2426
C114 C 0.8676(6) 0.7402(6) 0.1614(6)
H184 H 0.8379 0.7458 0.1582
H185 H 0.8720 0.7106 0.1672
H186 H 0.8815 0.7490 0.1259
O32 O 0.92988(13) 1.00085(14) 0.6236(2)
Si7 Si 0.76131(8) 0.83103(7) 0.80910(11)
O33 O 0.74876(15) 0.92362(13) 0.6797(2)
O34 O 0.72468(14) 0.92251(16) 0.5321(2)
O35 O 0.68362(14) 0.88854(19) 0.5970(2)
O36 O 0.77685(16) 0.85951(16) 0.7532(2)
N31 N 0.91054(15) 0.93316(13) 0.6220(3)
H187 H 0.9368 0.9262 0.6225
N32 N 0.84162(14) 0.90802(15) 0.6211(3)
N33 N 0.79313(13) 0.96516(14) 0.6236(3)
N34 N 0.83648(14) 1.01901(15) 0.6233(3)
N35 N 0.89717(17) 0.86331(15) 0.6171(3)
H188 H 0.8801 0.8422 0.6157
H189 H 0.9240 0.8591 0.6164
C115 C 0.90162(16) 0.97507(17) 0.6233(3)
C116 C 0.88245(16) 0.90152(16) 0.6201(3)
C117 C 0.83236(15) 0.94873(16) 0.6225(3)
C118 C 0.79773(18) 1.00723(17) 0.6222(4)
H190 H 0.7752 1.0259 0.6206
C119 C 0.85831(15) 0.98212(16) 0.6232(3)
C120 C 0.75354(18) 0.94298(18) 0.6249(3)
H191 H 0.7307 0.9633 0.6194
C121 C 0.75011(19) 0.9096(2) 0.5785(3)
H192 H 0.7776 0.8993 0.5654
C122 C 0.72468(18) 0.87609(19) 0.6098(3)
H193 H 0.7310 0.8477 0.5954
C123 C 0.7363(2) 0.88177(18) 0.6732(3)
H194 H 0.7109 0.8774 0.6970
C124 C 0.68386(18) 0.9061(2) 0.5415(3)
C125 C 0.6749(3) 0.8743(2) 0.4950(4)
H195 H 0.6472 0.8630 0.5006
H196 H 0.6952 0.8519 0.4975
H197 H 0.6767 0.8873 0.4570
C126 C 0.6531(3) 0.9420(3) 0.5416(4)
H198 H 0.6252 0.9313 0.5476
H199 H 0.6544 0.9564 0.5044
H200 H 0.6601 0.9612 0.5727
C127 C 0.7688(2) 0.8524(2) 0.6943(3)
H201 H 0.7594 0.8237 0.6888
H202 H 0.7945 0.8564 0.6718
C128 C 0.8063(3) 0.8005(3) 0.8376(4)
H203 H 0.8166 0.7821 0.8073
H204 H 0.7974 0.7840 0.8708
H205 H 0.8283 0.8194 0.8495
C129 C 0.7202(2) 0.7942(3) 0.7860(4)
H206 H 0.7312 0.7754 0.7567
H207 H 0.6969 0.8096 0.7698
H208 H 0.7108 0.7782 0.8194
C130 C 0.7407(2) 0.8655(2) 0.8630(3)
C131 C 0.7739(3) 0.8987(3) 0.8793(5)
H209 H 0.7987 0.8848 0.8940
H210 H 0.7629 0.9170 0.9091
H211 H 0.7811 0.9148 0.8450
C132 C 0.7297(3) 0.8400(3) 0.9181(4)
H212 H 0.7543 0.8254 0.9317
H213 H 0.7081 0.8199 0.9087
H214 H 0.7197 0.8586 0.9483
C133 C 0.7025(2) 0.8897(3) 0.8393(4)
H215 H 0.6809 0.8701 0.8283
H216 H 0.7108 0.9058 0.8054
H217 H 0.6920 0.9083 0.8692
O37 O 0.96591(14) 0.93713(15) 0.7612(2)
Si8 Si 0.95023(14) 0.82597(14) 0.96694(19)
O38 O 0.92398(15) 0.74393(16) 0.8227(2)
O39 O 0.96214(17) 0.69380(14) 0.7236(3)
O40 O 0.9912(2) 0.67439(16) 0.8087(3)
O41 O 0.9463(2) 0.7846(2) 0.9261(4)
N36 N 1.01825(15) 0.88942(14) 0.7653(3)
H218 H 1.0364 0.9096 0.7675
N37 N 1.00942(14) 0.81631(15) 0.7640(3)
N38 N 0.93612(16) 0.79942(14) 0.7578(3)
N39 N 0.90869(15) 0.86334(16) 0.7556(3)
N40 N 1.07403(16) 0.84570(18) 0.7649(3)
H219 H 1.0852 0.8210 0.7645
H220 H 1.0899 0.8678 0.7654
C134 C 0.97726(16) 0.90056(18) 0.7628(3)
C135 C 1.03353(17) 0.84975(17) 0.7647(3)
C136 C 0.96908(16) 0.82683(17) 0.7611(4)
C137 C 0.90134(19) 0.82390(19) 0.7551(4)
H221 H 0.8742 0.8128 0.7531
C138 C 0.95131(16) 0.86541(16) 0.7590(4)
C139 C 0.9341(2) 0.75461(17) 0.7653(3)
H222 H 0.9117 0.7439 0.7397
C140 C 0.9737(2) 0.73143(17) 0.7505(3)
H223 H 0.9935 0.7481 0.7271
C141 C 0.9912(2) 0.7182(2) 0.8097(3)
H224 H 1.0195 0.7296 0.8164
C142 C 0.9601(2) 0.7343(2) 0.8542(3)
H225 H 0.9536 0.7115 0.8818
C143 C 0.9853(2) 0.66144(18) 0.7512(3)
C144 C 1.0270(2) 0.6567(3) 0.7210(5)
H226 H 1.0227 0.6478 0.6811
H227 H 1.0436 0.6360 0.7414
H228 H 1.0416 0.6832 0.7213
C145 C 0.9603(3) 0.6215(2) 0.7498(5)
H229 H 0.9565 0.6128 0.7097
H230 H 0.9333 0.6263 0.7676
H231 H 0.9750 0.6000 0.7711
C146 C 0.9767(3) 0.7701(3) 0.8878(4)
H232 H 1.0015 0.7614 0.9097
H233 H 0.9849 0.7925 0.8610
C147 C 1.0008(4) 0.8521(5) 0.9549(8)
H234 H 1.0229 0.8314 0.9550
H235 H 1.0057 0.8722 0.9857
H236 H 1.0004 0.8662 0.9175
C148 C 0.9529(7) 0.8037(6) 1.0436(5)
H237 H 0.9775 0.7862 1.0472
H238 H 0.9282 0.7871 1.0511
H239 H 0.9544 0.8263 1.0716
C149 C 0.9039(3) 0.8549(3) 0.9663(5)
C150 C 0.9061(6) 0.8878(5) 1.0163(8)
H240 H 0.9085 0.8737 1.0535
H241 H 0.8810 0.9047 1.0159
H242 H 0.9302 0.9056 1.0104
C151 C 0.9024(5) 0.8754(5) 0.9052(6)
H243 H 0.9276 0.8914 0.8989
H244 H 0.8784 0.8937 0.9028
H245 H 0.9002 0.8538 0.8756
C152 C 0.8661(4) 0.8266(4) 0.9823(7)
H246 H 0.8705 0.8143 1.0205
H247 H 0.8633 0.8046 0.9535
H248 H 0.8408 0.8432 0.9829
O42 O 0.9223(2) 0.9970(2) 0.1998(3)
C153 C 0.8929(3) 0.9746(4) 0.1913(2)
C154 C 0.8930(4) 0.9298(4) 0.1851(5)
H249 H 0.9213 0.9195 0.1878
H250 H 0.8813 0.9222 0.1475
H251 H 0.8763 0.9174 0.2158
C155 C 0.8481(4) 0.9975(4) 0.1862(6)
H252 H 0.8516 1.0272 0.1920
H253 H 0.8294 0.9865 0.2157
H254 H 0.8364 0.9924 0.1479
O22A O 1.04039(15) 0.94262(16) 0.3335(2)
O22B O 1.05738(16) 1.04039(15) 0.3335(2)
O22C O 0.95961(15) 1.05738(16) 0.3335(2)
O27A O 1.06835(14) 1.00578(13) 0.4776(2)
O27B O 0.99422(13) 1.06835(14) 0.4776(2)
O27C O 0.93165(14) 0.99422(13) 0.4776(2)
O32A O 0.99915(14) 0.92988(13) 0.6236(2)
O32B O 1.07012(13) 0.99915(14) 0.6236(2)
O32C O 1.00085(14) 1.07012(13) 0.6236(2)
O37A O 1.06287(15) 0.96591(14) 0.7612(2)
O37B O 1.03409(14) 1.06287(15) 0.7612(2)
O37C O 0.93713(15) 1.03409(14) 0.7612(2)
O42A O 1.0030(2) 0.9223(2) 0.1998(3)
O42B O 1.0777(2) 1.0030(2) 0.1998(3)
O42C O 0.9970(2) 1.0777(2) 0.1998(3)
K1 K 0.5000 0.5000 0.7680(2)
K2 K 0.5000 0.5000 0.9180(2)
K3 K 0.5000 0.5000 1.0652(2)
K4 K 0.5000 0.5000 1.2190(2)
O1 O 0.55775(16) 0.54539(15) 0.7084(3)
Si1 Si 0.68705(13) 0.54484(13) 0.46932(17)
O2 O 0.74577(17) 0.61765(16) 0.6470(3)
O3 O 0.80197(14) 0.56737(16) 0.7186(2)
O4 O 0.81094(15) 0.5448(2) 0.6268(3)
O5 O 0.7186(2) 0.5554(3) 0.5235(3)
N1 N 0.61093(16) 0.49934(16) 0.7016(3)
H1 H 0.5930 0.4789 0.7012
N2 N 0.68159(16) 0.51655(15) 0.6977(3)
N3 N 0.69147(14) 0.59103(15) 0.7059(3)
N4 N 0.62466(16) 0.61167(15) 0.7076(4)
N5 N 0.66099(19) 0.44941(16) 0.6917(4)
H2 H 0.6868 0.4418 0.6870
H3 H 0.6413 0.4307 0.6920
C1 C 0.5950(2) 0.53889(19) 0.7054(4)
C2 C 0.65169(18) 0.48899(17) 0.6983(4)
C3 C 0.66758(17) 0.55579(16) 0.7026(4)
C4 C 0.66356(18) 0.62334(19) 0.7069(4)
H4 H 0.6718 0.6515 0.7071
C5 C 0.62730(17) 0.56908(17) 0.7038(4)
C6 C 0.73599(17) 0.5975(2) 0.6998(3)
H5 H 0.7457 0.6152 0.7325
C7 C 0.76156(17) 0.5578(2) 0.6990(3)
H6 H 0.7484 0.5345 0.7204
C8 C 0.76775(19) 0.5490(2) 0.6342(3)
H7 H 0.7528 0.5235 0.6220
C9 C 0.7507(2) 0.5874(2) 0.6034(3)
H8 H 0.7719 0.5974 0.5754
C10 C 0.82941(19) 0.5444(2) 0.6819(4)
C11 C 0.8329(3) 0.5002(2) 0.7034(4)
H9 H 0.8521 0.4849 0.6786
H10 H 0.8057 0.4871 0.7022
H11 H 0.8433 0.5002 0.7431
C12 C 0.8705(2) 0.5670(3) 0.6821(5)
H12 H 0.8903 0.5519 0.6582
H13 H 0.8809 0.5688 0.7217
H14 H 0.8667 0.5949 0.6665
C13 C 0.7109(3) 0.5804(3) 0.5715(4)
H15 H 0.6906 0.5669 0.5972
H16 H 0.6993 0.6072 0.5588
C14 C 0.6856(7) 0.5921(5) 0.4215(8)
H17 H 0.7138 0.5995 0.4100
H18 H 0.6732 0.6152 0.4426
H19 H 0.6692 0.5862 0.3870
C15 C 0.7121(5) 0.5019(4) 0.4267(7)
H20 H 0.7394 0.5108 0.4135
H21 H 0.6949 0.4951 0.3933
H22 H 0.7150 0.4774 0.4512
C16 C 0.6374(3) 0.5289(4) 0.4930(5)
C17 C 0.6147(6) 0.5685(5) 0.5164(10)
H23 H 0.6128 0.5891 0.4856
H24 H 0.6302 0.5800 0.5489
H25 H 0.5868 0.5610 0.5292
C18 C 0.6416(6) 0.4956(5) 0.5414(7)
H26 H 0.6568 0.4718 0.5264
H27 H 0.6140 0.4869 0.5538
H28 H 0.6565 0.5074 0.5743
C19 C 0.6095(5) 0.5129(7) 0.4420(8)
H29 H 0.6065 0.5348 0.4130
H30 H 0.5822 0.5055 0.4570
H31 H 0.6223 0.4887 0.4242
O6 O 0.49311(14) 0.56952(14) 0.8476(3)
Si2 Si 0.62966(12) 0.75646(10) 0.63337(16)
O7 O 0.55405(17) 0.75225(18) 0.7761(3)
O8 O 0.5600(2) 0.7985(2) 0.9014(4)
O9 O 0.62491(18) 0.80259(18) 0.8604(3)
O10 O 0.6097(2) 0.72956(17) 0.6873(3)
N6 N 0.55848(15) 0.59536(15) 0.8477(4)
H32 H 0.5678 0.5699 0.8496
N7 N 0.57758(14) 0.66655(14) 0.8420(3)
N8 N 0.51624(15) 0.70947(14) 0.8367(3)
N9 N 0.46664(15) 0.66134(15) 0.8415(3)
N10 N 0.62696(16) 0.61632(18) 0.8485(4)
H33 H 0.6462 0.6353 0.8451
H34 H 0.6339 0.5902 0.8523
C20 C 0.51641(17) 0.60055(17) 0.8449(4)
C21 C 0.58758(17) 0.62703(17) 0.8478(4)
C22 C 0.53612(16) 0.67198(15) 0.8431(4)
C23 C 0.47475(18) 0.70096(18) 0.8378(4)
H35 H 0.4540 0.7216 0.8360
C24 C 0.50521(15) 0.64271(15) 0.8417(4)
C25 C 0.5354(2) 0.75011(18) 0.8309(3)
H36 H 0.5133 0.7716 0.8332
C26 C 0.5682(2) 0.7594(2) 0.8771(3)
H37 H 0.5701 0.7372 0.9069
C27 C 0.6083(2) 0.7644(2) 0.8435(4)
H38 H 0.6279 0.7418 0.8540
C28 C 0.5970(2) 0.7612(3) 0.7796(4)
H39 H 0.6014 0.7891 0.7620
C29 C 0.5946(2) 0.8250(2) 0.8899(4)
C30 C 0.6112(4) 0.8408(6) 0.9476(5)
H40 H 0.5896 0.8565 0.9674
H41 H 0.6351 0.8587 0.9406
H42 H 0.6196 0.8174 0.9716
C31 C 0.5791(4) 0.8606(4) 0.8526(8)
H43 H 0.5575 0.8757 0.8735
H44 H 0.5676 0.8497 0.8166
H45 H 0.6020 0.8793 0.8439
C32 C 0.6217(3) 0.7311(3) 0.7455(3)
H46 H 0.6512 0.7388 0.7478
H47 H 0.6186 0.7033 0.7628
C33 C 0.6233(4) 0.8133(2) 0.6479(6)
H48 H 0.6372 0.8205 0.6841
H49 H 0.5938 0.8199 0.6509
H50 H 0.6355 0.8291 0.6161
C34 C 0.6872(2) 0.7462(4) 0.6284(6)
H51 H 0.7007 0.7553 0.6641
H52 H 0.6988 0.7614 0.5956
H53 H 0.6920 0.7166 0.6229
C35 C 0.6067(3) 0.7388(3) 0.5680(4)
C36 C 0.5595(3) 0.7480(4) 0.5731(6)
H54 H 0.5481 0.7332 0.6063
H55 H 0.5455 0.7390 0.5378
H56 H 0.5553 0.7777 0.5783
C37 C 0.6160(4) 0.6917(3) 0.5612(6)
H57 H 0.6059 0.6769 0.5952
H58 H 0.6458 0.6875 0.5574
H59 H 0.6021 0.6812 0.5266
C38 C 0.6217(5) 0.7646(5) 0.5149(5)
H60 H 0.6156 0.7939 0.5215
H61 H 0.6073 0.7552 0.4801
H62 H 0.6515 0.7609 0.5099
O11 O 0.56321(18) 0.53094(17) 0.9954(3)
Si3 Si 0.8335(2) 0.5514(2) 1.19916(19)
O12 O 0.75966(15) 0.55550(18) 1.0378(2)
O13 O 0.79153(15) 0.55634(17) 0.8984(2)
O14 O 0.84380(17) 0.5850(2) 0.9522(3)
O15 O 0.8102(3) 0.5523(3) 1.1357(3)
N11 N 0.60958(16) 0.47738(16) 0.9932(4)
H63 H 0.5890 0.4599 0.9973
N12 N 0.68281(18) 0.48312(16) 0.9854(4)
N13 N 0.70232(14) 0.55463(16) 0.9772(3)
N14 N 0.64056(18) 0.58626(15) 0.9849(4)
N15 N 0.6517(2) 0.42033(17) 0.9923(4)
H64 H 0.6761 0.4083 0.9915
H65 H 0.6292 0.4053 0.9951
C39 C 0.60039(17) 0.51907(17) 0.9911(4)
C40 C 0.64896(18) 0.46150(16) 0.9894(4)
C41 C 0.67352(17) 0.52389(17) 0.9849(4)
C42 C 0.6806(2) 0.5910(2) 0.9810(5)
H66 H 0.6936 0.6173 0.9808
C43 C 0.63628(18) 0.54389(19) 0.9885(4)
C44 C 0.74712(15) 0.5482(2) 0.9799(3)
H67 H 0.7540 0.5192 0.9685
C45 C 0.77199(18) 0.5789(2) 0.9430(3)
H68 H 0.7551 0.6025 0.9285
C46 C 0.8074(2) 0.5924(2) 0.9827(3)
H69 H 0.8048 0.6222 0.9934
C47 C 0.8027(2) 0.5644(3) 1.0358(3)
H70 H 0.8178 0.5381 1.0280
C48 C 0.8335(2) 0.5714(2) 0.8961(3)
C49 C 0.8351(3) 0.6074(3) 0.8535(4)
H71 H 0.8635 0.6178 0.8509
H72 H 0.8169 0.6296 0.8670
H73 H 0.8260 0.5980 0.8154
C50 C 0.8624(3) 0.5358(3) 0.8809(5)
H74 H 0.8908 0.5462 0.8781
H75 H 0.8541 0.5239 0.8438
H76 H 0.8609 0.5146 0.9109
C51 C 0.8178(3) 0.5815(3) 1.0917(3)
H77 H 0.8478 0.5872 1.0892
H78 H 0.8034 0.6076 1.1005
C52 C 0.8511(10) 0.6051(5) 1.2176(11)
H79 H 0.8688 0.6157 1.1867
H80 H 0.8666 0.6046 1.2539
H81 H 0.8270 0.6232 1.2219
C53 C 0.8810(7) 0.5180(10) 1.1914(13)
H82 H 0.9001 0.5308 1.1639
H83 H 0.8730 0.4907 1.1772
H84 H 0.8946 0.5152 1.2290
C54 C 0.8004(5) 0.5275(6) 1.2510(6)
C55 C 0.7579(6) 0.5505(9) 1.2520(13)
H85 H 0.7621 0.5792 1.2640
H86 H 0.7394 0.5367 1.2792
H87 H 0.7457 0.5499 1.2133
C56 C 0.7951(9) 0.4814(6) 1.2316(12)
H88 H 0.8221 0.4678 1.2310
H89 H 0.7829 0.4805 1.1929
H90 H 0.7769 0.4670 1.2587
C57 C 0.8190(9) 0.5317(10) 1.3132(6)
H91 H 0.8465 0.5191 1.3142
H92 H 0.8010 0.5176 1.3409
H93 H 0.8212 0.5609 1.3235
O16 O 0.56513(18) 0.5221(2) 1.1443(3)
Si4 Si 0.64130(11) 0.73147(11) 1.30030(17)
O17 O 0.7361(2) 0.64461(19) 1.1680(3)
O18 O 0.7252(2) 0.6802(2) 1.0430(3)
O19 O 0.7291(3) 0.7339(2) 1.1077(4)
O20 O 0.6822(2) 0.7180(2) 1.2619(4)
N16 N 0.5609(2) 0.59274(18) 1.1391(4)
H94 H 0.5338 0.5911 1.1411
N17 N 0.61812(19) 0.6387(2) 1.1330(4)
N18 N 0.68302(18) 0.60025(18) 1.1313(4)
N19 N 0.6586(2) 0.5350(2) 1.1361(4)
N20 N 0.5526(2) 0.6638(2) 1.1347(4)
H95 H 0.5628 0.6890 1.1332
H96 H 0.5257 0.6601 1.1359
C58 C 0.5829(2) 0.5563(2) 1.1403(5)
C59 C 0.5779(2) 0.6313(2) 1.1349(5)
C60 C 0.64032(19) 0.6034(2) 1.1352(4)
C61 C 0.6913(2) 0.5584(2) 1.1311(5)
H97 H 0.7184 0.5476 1.1276
C62 C 0.6262(2) 0.5632(2) 1.1380(6)
C63 C 0.7149(2) 0.6312(2) 1.1183(4)
H98 H 0.7355 0.6182 1.0919
C64 C 0.6979(3) 0.6698(2) 1.0884(3)
H99 H 0.6689 0.6662 1.0749
C65 C 0.7023(3) 0.7045(2) 1.1332(4)
H100 H 0.6749 0.7172 1.1417
C66 C 0.7198(3) 0.6835(3) 1.1872(4)
H101 H 0.7438 0.7005 1.2004
C67 C 0.7327(3) 0.7239(3) 1.0488(4)
C68 C 0.7000(5) 0.7468(5) 1.0137(7)
H102 H 0.7047 0.7766 1.0167
H103 H 0.6725 0.7402 1.0288
H104 H 0.7017 0.7384 0.9732
C69 C 0.7757(4) 0.7337(5) 1.0258(6)
H105 H 0.7808 0.7635 1.0290
H106 H 0.7775 0.7254 0.9852
H107 H 0.7963 0.7187 1.0483
C70 C 0.6912(4) 0.6793(3) 1.2375(5)
H108 H 0.6652 0.6661 1.2246
H109 H 0.7040 0.6613 1.2670
C71 C 0.6354(4) 0.6963(4) 1.3642(5)
H110 H 0.6317 0.6679 1.3508
H111 H 0.6113 0.7047 1.3869
H112 H 0.6602 0.6979 1.3883
C72 C 0.5933(3) 0.7266(5) 1.2549(6)
H113 H 0.5893 0.6977 1.2439
H114 H 0.5962 0.7435 1.2201
H115 H 0.5693 0.7361 1.2771
C73 C 0.6481(3) 0.7849(2) 1.3199(4)
C74 C 0.6099(4) 0.7990(4) 1.3567(6)
H116 H 0.6068 0.7806 1.3901
H117 H 0.5849 0.7976 1.3329
H118 H 0.6141 0.8273 1.3701
C75 C 0.6882(4) 0.7893(4) 1.3570(6)
H119 H 0.6866 0.7708 1.3903
H120 H 0.6908 0.8179 1.3705
H121 H 0.7123 0.7822 1.3335
C76 C 0.6495(4) 0.8142(4) 1.2666(5)
H122 H 0.6723 0.8061 1.2413
H123 H 0.6535 0.8426 1.2796
H124 H 0.6234 0.8121 1.2453
O21 O 0.5854(7) 0.4902(7) 1.2803(10)
O1A O 0.45461(15) 0.55775(16) 0.7084(3)
O1B O 0.44225(16) 0.45461(15) 0.7084(3)
O1C O 0.54539(15) 0.44225(16) 0.7084(3)
O6A O 0.43048(14) 0.49311(14) 0.8476(3)
O6B O 0.50689(14) 0.43048(14) 0.8476(3)
O6C O 0.56952(14) 0.50689(14) 0.8476(3)
O11A O 0.46906(17) 0.56321(18) 0.9954(3)
O11B O 0.43679(18) 0.46906(17) 0.9954(3)
O11C O 0.53094(17) 0.43679(18) 0.9954(3)
O16A O 0.4779(2) 0.56513(18) 1.1443(3)
O16B O 0.43487(18) 0.4779(2) 1.1443(3)
O16C O 0.5221(2) 0.43487(18) 1.1443(3)
O21A O 0.5098(7) 0.5854(7) 1.2803(10)
O21B O 0.4146(7) 0.5098(7) 1.2803(10)
O21C O 0.4902(7) 0.4146(7) 1.2803(10)
loop_
_geom_bond_atom_site_label_1
_geom_bond_atom_site_label_2
_geom_bond_site_symmetry_1
_geom_bond_site_symmetry_2
K1 O1 1_555 1_555
K2 O6 1_555 1_555
K3 O11 1_555 1_555
K4 O16 1_555 1_555
O1 C1 1_555 1_555
Si1 O5 1_555 1_555
O2 C6 1_555 1_555
O3 C7 1_555 1_555
O4 C8 1_555 1_555
O5 C13 1_555 1_555
N1 H1 1_555 1_555
N2 C2 1_555 1_555
N3 C3 1_555 1_555
N4 C4 1_555 1_555
N5 H2 1_555 1_555
H3 N5 1_555 1_555
C1 N1 1_555 1_555
C2 N1 1_555 1_555
C3 N2 1_555 1_555
C4 N3 1_555 1_555
H4 C4 1_555 1_555
C5 N4 1_555 1_555
C6 N3 1_555 1_555
H5 C6 1_555 1_555
C7 C6 1_555 1_555
H6 C7 1_555 1_555
C8 C7 1_555 1_555
H7 C8 1_555 1_555
C9 O2 1_555 1_555
H8 C9 1_555 1_555
C10 O3 1_555 1_555
C11 C10 1_555 1_555
H9 C11 1_555 1_555
H10 C11 1_555 1_555
H11 C11 1_555 1_555
C12 C10 1_555 1_555
H12 C12 1_555 1_555
H13 C12 1_555 1_555
H14 C12 1_555 1_555
C13 C9 1_555 1_555
H15 C13 1_555 1_555
H16 C13 1_555 1_555
C14 Si1 1_555 1_555
H17 C14 1_555 1_555
H18 C14 1_555 1_555
H19 C14 1_555 1_555
C15 Si1 1_555 1_555
H20 C15 1_555 1_555
H21 C15 1_555 1_555
H22 C15 1_555 1_555
C16 Si1 1_555 1_555
C17 C16 1_555 1_555
H23 C17 1_555 1_555
H24 C17 1_555 1_555
H25 C17 1_555 1_555
C18 C16 1_555 1_555
H26 C18 1_555 1_555
H27 C18 1_555 1_555
H28 C18 1_555 1_555
C19 C16 1_555 1_555
H29 C19 1_555 1_555
H30 C19 1_555 1_555
H31 C19 1_555 1_555
O6 K1 1_555 1_555
Si2 O10 1_555 1_555
O7 C25 1_555 1_555
O8 C26 1_555 1_555
O9 C27 1_555 1_555
O10 C32 1_555 1_555
N6 H32 1_555 1_555
N7 C21 1_555 1_555
N8 C22 1_555 1_555
N9 C23 1_555 1_555
N10 H33 1_555 1_555
H34 N10 1_555 1_555
C20 O6 1_555 1_555
C21 N6 1_555 1_555
C22 N7 1_555 1_555
C23 N8 1_555 1_555
H35 C23 1_555 1_555
C24 N9 1_555 1_555
C25 N8 1_555 1_555
H36 C25 1_555 1_555
C26 C25 1_555 1_555
H37 C26 1_555 1_555
C27 C26 1_555 1_555
H38 C27 1_555 1_555
C28 O7 1_555 1_555
H39 C28 1_555 1_555
C29 O8 1_555 1_555
C30 C29 1_555 1_555
H40 C30 1_555 1_555
H41 C30 1_555 1_555
H42 C30 1_555 1_555
C31 C29 1_555 1_555
H43 C31 1_555 1_555
H44 C31 1_555 1_555
H45 C31 1_555 1_555
C32 C28 1_555 1_555
H46 C32 1_555 1_555
H47 C32 1_555 1_555
C33 Si2 1_555 1_555
H48 C33 1_555 1_555
H49 C33 1_555 1_555
H50 C33 1_555 1_555
C34 Si2 1_555 1_555
H51 C34 1_555 1_555
H52 C34 1_555 1_555
H53 C34 1_555 1_555
C35 Si2 1_555 1_555
C36 C35 1_555 1_555
H54 C36 1_555 1_555
H55 C36 1_555 1_555
H56 C36 1_555 1_555
C37 C35 1_555 1_555
H57 C37 1_555 1_555
H58 C37 1_555 1_555
H59 C37 1_555 1_555
C38 C35 1_555 1_555
H60 C38 1_555 1_555
H61 C38 1_555 1_555
H62 C38 1_555 1_555
O11 K2 1_555 1_555
Si3 O15 1_555 1_555
O12 C44 1_555 1_555
O13 C45 1_555 1_555
O14 C46 1_555 1_555
O15 C51 1_555 1_555
N11 H63 1_555 1_555
N12 C40 1_555 1_555
N13 C41 1_555 1_555
N14 C42 1_555 1_555
N15 H64 1_555 1_555
H65 N15 1_555 1_555
C39 O11 1_555 1_555
C40 N11 1_555 1_555
C41 N12 1_555 1_555
C42 N13 1_555 1_555
H66 C42 1_555 1_555
C43 N14 1_555 1_555
C44 N13 1_555 1_555
H67 C44 1_555 1_555
C45 C44 1_555 1_555
H68 C45 1_555 1_555
C46 C45 1_555 1_555
H69 C46 1_555 1_555
C47 O12 1_555 1_555
H70 C47 1_555 1_555
C48 O13 1_555 1_555
C49 C48 1_555 1_555
H71 C49 1_555 1_555
H72 C49 1_555 1_555
H73 C49 1_555 1_555
C50 C48 1_555 1_555
H74 C50 1_555 1_555
H75 C50 1_555 1_555
H76 C50 1_555 1_555
C51 C47 1_555 1_555
H77 C51 1_555 1_555
H78 C51 1_555 1_555
C52 Si3 1_555 1_555
H79 C52 1_555 1_555
H80 C52 1_555 1_555
H81 C52 1_555 1_555
C53 Si3 1_555 1_555
H82 C53 1_555 1_555
H83 C53 1_555 1_555
H84 C53 1_555 1_555
C54 Si3 1_555 1_555
C55 C54 1_555 1_555
H85 C55 1_555 1_555
H86 C55 1_555 1_555
H87 C55 1_555 1_555
C56 C54 1_555 1_555
H88 C56 1_555 1_555
H89 C56 1_555 1_555
H90 C56 1_555 1_555
C57 C54 1_555 1_555
H91 C57 1_555 1_555
H92 C57 1_555 1_555
H93 C57 1_555 1_555
O16 K3 1_555 1_555
Si4 O20 1_555 1_555
O17 C63 1_555 1_555
O18 C64 1_555 1_555
O19 C65 1_555 1_555
O20 C70 1_555 1_555
N16 H94 1_555 1_555
N17 C59 1_555 1_555
N18 C60 1_555 1_555
N19 C61 1_555 1_555
N20 H95 1_555 1_555
H96 N20 1_555 1_555
C58 O16 1_555 1_555
C59 N16 1_555 1_555
C60 N17 1_555 1_555
C61 N18 1_555 1_555
H97 C61 1_555 1_555
C62 N19 1_555 1_555
C63 N18 1_555 1_555
H98 C63 1_555 1_555
C64 C63 1_555 1_555
H99 C64 1_555 1_555
C65 C64 1_555 1_555
H100 C65 1_555 1_555
C66 O17 1_555 1_555
H101 C66 1_555 1_555
C67 O18 1_555 1_555
C68 C67 1_555 1_555
H102 C68 1_555 1_555
H103 C68 1_555 1_555
H104 C68 1_555 1_555
C69 C67 1_555 1_555
H105 C69 1_555 1_555
H106 C69 1_555 1_555
H107 C69 1_555 1_555
C70 C66 1_555 1_555
H108 C70 1_555 1_555
H109 C70 1_555 1_555
C71 Si4 1_555 1_555
H110 C71 1_555 1_555
H111 C71 1_555 1_555
H112 C71 1_555 1_555
C72 Si4 1_555 1_555
H113 C72 1_555 1_555
H114 C72 1_555 1_555
H115 C72 1_555 1_555
C73 Si4 1_555 1_555
C74 C73 1_555 1_555
H116 C74 1_555 1_555
H117 C74 1_555 1_555
H118 C74 1_555 1_555
C75 C73 1_555 1_555
H119 C75 1_555 1_555
H120 C75 1_555 1_555
H121 C75 1_555 1_555
C76 C73 1_555 1_555
H122 C76 1_555 1_555
H123 C76 1_555 1_555
H124 C76 1_555 1_555
O21 K4 1_555 1_555
K5 O22 1_555 1_555
K6 O22 1_555 1_555
K7 O27 1_555 1_555
K8 O32 1_555 1_555
O22 C77 1_555 1_555
Si5 O26 1_555 1_555
O23 C82 1_555 1_555
O24 C83 1_555 1_555
O25 C84 1_555 1_555
O26 C89 1_555 1_555
N21 H125 1_555 1_555
N22 C78 1_555 1_555
N23 C79 1_555 1_555
N24 C80 1_555 1_555
N25 H126 1_555 1_555
H127 N25 1_555 1_555
C77 N21 1_555 1_555
C78 N21 1_555 1_555
C79 N22 1_555 1_555
C80 N23 1_555 1_555
H128 C80 1_555 1_555
C81 N24 1_555 1_555
C82 N23 1_555 1_555
H129 C82 1_555 1_555
C83 C82 1_555 1_555
H130 C83 1_555 1_555
C84 C83 1_555 1_555
H131 C84 1_555 1_555
C85 O23 1_555 1_555
H132 C85 1_555 1_555
C86 O24 1_555 1_555
C87 C86 1_555 1_555
H133 C87 1_555 1_555
H134 C87 1_555 1_555
H135 C87 1_555 1_555
C88 C86 1_555 1_555
H136 C88 1_555 1_555
H137 C88 1_555 1_555
H138 C88 1_555 1_555
C89 C85 1_555 1_555
H139 C89 1_555 1_555
H140 C89 1_555 1_555
C90 Si5 1_555 1_555
H141 C90 1_555 1_555
H142 C90 1_555 1_555
H143 C90 1_555 1_555
C91 Si5 1_555 1_555
H144 C91 1_555 1_555
H145 C91 1_555 1_555
H146 C91 1_555 1_555
C92 Si5 1_555 1_555
C93 C92 1_555 1_555
H147 C93 1_555 1_555
H148 C93 1_555 1_555
H149 C93 1_555 1_555
C94 C92 1_555 1_555
H150 C94 1_555 1_555
H151 C94 1_555 1_555
H152 C94 1_555 1_555
C95 C92 1_555 1_555
H153 C95 1_555 1_555
H154 C95 1_555 1_555
H155 C95 1_555 1_555
O27 K6 1_555 1_555
Si6 O31 1_555 1_555
O28 C101 1_555 1_555
O29 C102 1_555 1_555
O30 C103 1_555 1_555
O31 C108 1_555 1_555
N26 H156 1_555 1_555
N27 C97 1_555 1_555
N28 C98 1_555 1_555
N29 C99 1_555 1_555
N30 H157 1_555 1_555
H158 N30 1_555 1_555
C96 O27 1_555 1_555
C97 N26 1_555 1_555
C98 N27 1_555 1_555
C99 N28 1_555 1_555
H159 C99 1_555 1_555
C100 N29 1_555 1_555
C101 N28 1_555 1_555
H160 C101 1_555 1_555
C102 C101 1_555 1_555
H161 C102 1_555 1_555
C103 C102 1_555 1_555
H162 C103 1_555 1_555
C104 O28 1_555 1_555
H163 C104 1_555 1_555
C105 O29 1_555 1_555
C106 C105 1_555 1_555
H164 C106 1_555 1_555
H165 C106 1_555 1_555
H166 C106 1_555 1_555
C107 C105 1_555 1_555
H167 C107 1_555 1_555
H168 C107 1_555 1_555
H169 C107 1_555 1_555
C108 C104 1_555 1_555
H170 C108 1_555 1_555
H171 C108 1_555 1_555
C109 Si6 1_555 1_555
H172 C109 1_555 1_555
H173 C109 1_555 1_555
H174 C109 1_555 1_555
C110 Si6 1_555 1_555
H175 C110 1_555 1_555
H176 C110 1_555 1_555
H177 C110 1_555 1_555
C111 Si6 1_555 1_555
C112 C111 1_555 1_555
H178 C112 1_555 1_555
H179 C112 1_555 1_555
H180 C112 1_555 1_555
C113 C111 1_555 1_555
H181 C113 1_555 1_555
H182 C113 1_555 1_555
H183 C113 1_555 1_555
C114 C111 1_555 1_555
H184 C114 1_555 1_555
H185 C114 1_555 1_555
H186 C114 1_555 1_555
O32 K7 1_555 1_555
Si7 O36 1_555 1_555
O33 C120 1_555 1_555
O34 C121 1_555 1_555
O35 C122 1_555 1_555
O36 C127 1_555 1_555
N31 H187 1_555 1_555
N32 C116 1_555 1_555
N33 C117 1_555 1_555
N34 C118 1_555 1_555
N35 H188 1_555 1_555
H189 N35 1_555 1_555
C115 O32 1_555 1_555
C116 N31 1_555 1_555
C117 N32 1_555 1_555
C118 N33 1_555 1_555
H190 C118 1_555 1_555
C119 N34 1_555 1_555
C120 N33 1_555 1_555
H191 C120 1_555 1_555
C121 C120 1_555 1_555
H192 C121 1_555 1_555
C122 C121 1_555 1_555
H193 C122 1_555 1_555
C123 O33 1_555 1_555
H194 C123 1_555 1_555
C124 O34 1_555 1_555
C125 C124 1_555 1_555
H195 C125 1_555 1_555
H196 C125 1_555 1_555
H197 C125 1_555 1_555
C126 C124 1_555 1_555
H198 C126 1_555 1_555
H199 C126 1_555 1_555
H200 C126 1_555 1_555
C127 C123 1_555 1_555
H201 C127 1_555 1_555
H202 C127 1_555 1_555
C128 Si7 1_555 1_555
H203 C128 1_555 1_555
H204 C128 1_555 1_555
H205 C128 1_555 1_555
C129 Si7 1_555 1_555
H206 C129 1_555 1_555
H207 C129 1_555 1_555
H208 C129 1_555 1_555
C130 Si7 1_555 1_555
C131 C130 1_555 1_555
H209 C131 1_555 1_555
H210 C131 1_555 1_555
H211 C131 1_555 1_555
C132 C130 1_555 1_555
H212 C132 1_555 1_555
H213 C132 1_555 1_555
H214 C132 1_555 1_555
C133 C130 1_555 1_555
H215 C133 1_555 1_555
H216 C133 1_555 1_555
H217 C133 1_555 1_555
O37 K8 1_555 1_555
Si8 O41 1_555 1_555
O38 C139 1_555 1_555
O39 C140 1_555 1_555
O40 C141 1_555 1_555
O41 C146 1_555 1_555
N36 H218 1_555 1_555
N37 C135 1_555 1_555
N38 C136 1_555 1_555
N39 C137 1_555 1_555
N40 H219 1_555 1_555
H220 N40 1_555 1_555
C134 O37 1_555 1_555
C135 N36 1_555 1_555
C136 N37 1_555 1_555
C137 N38 1_555 1_555
H221 C137 1_555 1_555
C138 N39 1_555 1_555
C139 N38 1_555 1_555
H222 C139 1_555 1_555
C140 C139 1_555 1_555
H223 C140 1_555 1_555
C141 C140 1_555 1_555
H224 C141 1_555 1_555
C142 O38 1_555 1_555
H225 C142 1_555 1_555
C143 O39 1_555 1_555
C144 C143 1_555 1_555
H226 C144 1_555 1_555
H227 C144 1_555 1_555
H228 C144 1_555 1_555
C145 C143 1_555 1_555
H229 C145 1_555 1_555
H230 C145 1_555 1_555
H231 C145 1_555 1_555
C146 C142 1_555 1_555
H232 C146 1_555 1_555
H233 C146 1_555 1_555
C147 Si8 1_555 1_555
H234 C147 1_555 1_555
H235 C147 1_555 1_555
H236 C147 1_555 1_555
C148 Si8 1_555 1_555
H237 C148 1_555 1_555
H238 C148 1_555 1_555
H239 C148 1_555 1_555
C149 Si8 1_555 1_555
C150 C149 1_555 1_555
H240 C150 1_555 1_555
H241 C150 1_555 1_555
H242 C150 1_555 1_555
C151 C149 1_555 1_555
H243 C151 1_555 1_555
H244 C151 1_555 1_555
H245 C151 1_555 1_555
C152 C149 1_555 1_555
H246 C152 1_555 1_555
H247 C152 1_555 1_555
H248 C152 1_555 1_555
O42 K5 1_555 1_555
C153 O42 1_555 1_555
C154 C153 1_555 1_555
H249 C154 1_555 1_555
H250 C154 1_555 1_555
H251 C154 1_555 1_555
C155 C153 1_555 1_555
H252 C155 1_555 1_555
H253 C155 1_555 1_555
H254 C155 1_555 1_555
O1A K1 1_555 1_555
O1B K1 1_555 1_555
O1C K1 1_555 1_555
O6A K1 1_555 1_555
O6B K1 1_555 1_555
O6C K1 1_555 1_555
O11A K2 1_555 1_555
O11B K2 1_555 1_555
O11C K2 1_555 1_555
O16A K3 1_555 1_555
O16B K3 1_555 1_555
O16C K3 1_555 1_555
O21A K4 1_555 1_555
O21B K4 1_555 1_555
O21C K4 1_555 1_555
O22A K5 1_555 1_555
O22B K5 1_555 1_555
O22C K5 1_555 1_555
O27A K6 1_555 1_555
O27B K6 1_555 1_555
O27C K6 1_555 1_555
O32A K7 1_555 1_555
O32B K7 1_555 1_555
O32C K7 1_555 1_555
O37A K8 1_555 1_555
O37B K8 1_555 1_555
O37C K8 1_555 1_555
O42A K5 1_555 1_555
O42B K5 1_555 1_555
O42C K5 1_555 1_555
K2 O6A 1_555 1_555
K2 O6B 1_555 1_555
K2 O6C 1_555 1_555
K3 O11A 1_555 1_555
K3 O11B 1_555 1_555
K3 O11C 1_555 1_555
K4 O16A 1_555 1_555
K4 O16B 1_555 1_555
K4 O16C 1_555 1_555
O4 C10 1_555 1_555
N5 C2 1_555 1_555
C1 C5 1_555 1_555
C3 C5 1_555 1_555
C8 C9 1_555 1_555
O9 C29 1_555 1_555
N6 C20 1_555 1_555
N10 C21 1_555 1_555
C20 C24 1_555 1_555
C22 C24 1_555 1_555
C27 C28 1_555 1_555
O14 C48 1_555 1_555
N11 C39 1_555 1_555
N15 C40 1_555 1_555
C39 C43 1_555 1_555
C41 C43 1_555 1_555
C46 C47 1_555 1_555
O19 C67 1_555 1_555
N16 C58 1_555 1_555
N20 C59 1_555 1_555
C58 C62 1_555 1_555
C60 C62 1_555 1_555
C65 C66 1_555 1_555
K6 O22A 1_555 1_555
K6 O22B 1_555 1_555
K6 O22C 1_555 1_555
K7 O27A 1_555 1_555
K7 O27B 1_555 1_555
K7 O27C 1_555 1_555
K8 O32A 1_555 1_555
K8 O32B 1_555 1_555
K8 O32C 1_555 1_555
O25 C86 1_555 1_555
N25 C78 1_555 1_555
C77 C81 1_555 1_555
C79 C81 1_555 1_555
C84 C85 1_555 1_555
O30 C105 1_555 1_555
N26 C96 1_555 1_555
N30 C97 1_555 1_555
C96 C100 1_555 1_555
C98 C100 1_555 1_555
C103 C104 1_555 1_555
O35 C124 1_555 1_555
N31 C115 1_555 1_555
N35 C116 1_555 1_555
C115 C119 1_555 1_555
C117 C119 1_555 1_555
C122 C123 1_555 1_555
O40 C143 1_555 1_555
N36 C134 1_555 1_555
N40 C135 1_555 1_555
C134 C138 1_555 1_555
C136 C138 1_555 1_555
C141 C142 1_555 1_555

#END
