
#######################################################################
#
#                 Cambridge Crystallographic Data Centre
#                                CCDC 
#
#######################################################################
#
# If this CIF has been generated from an entry in the Cambridge 
# Structural Database, then it will include bibliographic, chemical, 
# crystal, experimental, refinement or atomic coordinate data resulting 
# from the CCDC's data processing and validation procedures.
#
#######################################################################

data_RUBTAK01
_symmetry_cell_setting           cubic
_symmetry_space_group_name_H-M   'F m -3 m'
_symmetry_Int_Tables_number      225
_space_group_name_Hall           '-F 4 2 3'
loop_
_symmetry_equiv_pos_site_id
_symmetry_equiv_pos_as_xyz
1 x,y,z
2 z,x,y
3 y,z,x
4 -z,x,-y
5 -y,-z,x
6 y,-z,-x
7 -x,y,-z
8 -z,-x,y
9 x,-y,-z
10 y,x,-z
11 -z,y,x
12 x,-z,y
13 -x,-y,z
14 z,-x,-y
15 -y,z,-x
16 -y,-x,-z
17 -z,-y,-x
18 -x,-z,-y
19 z,-y,x
20 x,z,-y
21 -x,z,y
22 y,-x,z
23 z,y,-x
24 -y,x,z
25 x,1/2+y,1/2+z
26 z,1/2+x,1/2+y
27 y,1/2+z,1/2+x
28 -z,1/2+x,1/2-y
29 -y,1/2-z,1/2+x
30 y,1/2-z,1/2-x
31 -x,1/2+y,1/2-z
32 -z,1/2-x,1/2+y
33 x,1/2-y,1/2-z
34 y,1/2+x,1/2-z
35 -z,1/2+y,1/2+x
36 x,1/2-z,1/2+y
37 -x,1/2-y,1/2+z
38 z,1/2-x,1/2-y
39 -y,1/2+z,1/2-x
40 -y,1/2-x,1/2-z
41 -z,1/2-y,1/2-x
42 -x,1/2-z,1/2-y
43 z,1/2-y,1/2+x
44 x,1/2+z,1/2-y
45 -x,1/2+z,1/2+y
46 y,1/2-x,1/2+z
47 z,1/2+y,1/2-x
48 -y,1/2+x,1/2+z
49 1/2+x,y,1/2+z
50 1/2+z,x,1/2+y
51 1/2+y,z,1/2+x
52 1/2-z,x,1/2-y
53 1/2-y,-z,1/2+x
54 1/2+y,-z,1/2-x
55 1/2-x,y,1/2-z
56 1/2-z,-x,1/2+y
57 1/2+x,-y,1/2-z
58 1/2+y,x,1/2-z
59 1/2-z,y,1/2+x
60 1/2+x,-z,1/2+y
61 1/2-x,-y,1/2+z
62 1/2+z,-x,1/2-y
63 1/2-y,z,1/2-x
64 1/2-y,-x,1/2-z
65 1/2-z,-y,1/2-x
66 1/2-x,-z,1/2-y
67 1/2+z,-y,1/2+x
68 1/2+x,z,1/2-y
69 1/2-x,z,1/2+y
70 1/2+y,-x,1/2+z
71 1/2+z,y,1/2-x
72 1/2-y,x,1/2+z
73 1/2+x,1/2+y,z
74 1/2+z,1/2+x,y
75 1/2+y,1/2+z,x
76 1/2-z,1/2+x,-y
77 1/2-y,1/2-z,x
78 1/2+y,1/2-z,-x
79 1/2-x,1/2+y,-z
80 1/2-z,1/2-x,y
81 1/2+x,1/2-y,-z
82 1/2+y,1/2+x,-z
83 1/2-z,1/2+y,x
84 1/2+x,1/2-z,y
85 1/2-x,1/2-y,z
86 1/2+z,1/2-x,-y
87 1/2-y,1/2+z,-x
88 1/2-y,1/2-x,-z
89 1/2-z,1/2-y,-x
90 1/2-x,1/2-z,-y
91 1/2+z,1/2-y,x
92 1/2+x,1/2+z,-y
93 1/2-x,1/2+z,y
94 1/2+y,1/2-x,z
95 1/2+z,1/2+y,-x
96 1/2-y,1/2+x,z
97 -x,-y,-z
98 -z,-x,-y
99 -y,-z,-x
100 z,-x,y
101 y,z,-x
102 -y,z,x
103 x,-y,z
104 z,x,-y
105 -x,y,z
106 -y,-x,z
107 z,-y,-x
108 -x,z,-y
109 x,y,-z
110 -z,x,y
111 y,-z,x
112 y,x,z
113 z,y,x
114 x,z,y
115 -z,y,-x
116 -x,-z,y
117 x,-z,-y
118 -y,x,-z
119 -z,-y,x
120 y,-x,-z
121 -x,1/2-y,1/2-z
122 -z,1/2-x,1/2-y
123 -y,1/2-z,1/2-x
124 z,1/2-x,1/2+y
125 y,1/2+z,1/2-x
126 -y,1/2+z,1/2+x
127 x,1/2-y,1/2+z
128 z,1/2+x,1/2-y
129 -x,1/2+y,1/2+z
130 -y,1/2-x,1/2+z
131 z,1/2-y,1/2-x
132 -x,1/2+z,1/2-y
133 x,1/2+y,1/2-z
134 -z,1/2+x,1/2+y
135 y,1/2-z,1/2+x
136 y,1/2+x,1/2+z
137 z,1/2+y,1/2+x
138 x,1/2+z,1/2+y
139 -z,1/2+y,1/2-x
140 -x,1/2-z,1/2+y
141 x,1/2-z,1/2-y
142 -y,1/2+x,1/2-z
143 -z,1/2-y,1/2+x
144 y,1/2-x,1/2-z
145 1/2-x,-y,1/2-z
146 1/2-z,-x,1/2-y
147 1/2-y,-z,1/2-x
148 1/2+z,-x,1/2+y
149 1/2+y,z,1/2-x
150 1/2-y,z,1/2+x
151 1/2+x,-y,1/2+z
152 1/2+z,x,1/2-y
153 1/2-x,y,1/2+z
154 1/2-y,-x,1/2+z
155 1/2+z,-y,1/2-x
156 1/2-x,z,1/2-y
157 1/2+x,y,1/2-z
158 1/2-z,x,1/2+y
159 1/2+y,-z,1/2+x
160 1/2+y,x,1/2+z
161 1/2+z,y,1/2+x
162 1/2+x,z,1/2+y
163 1/2-z,y,1/2-x
164 1/2-x,-z,1/2+y
165 1/2+x,-z,1/2-y
166 1/2-y,x,1/2-z
167 1/2-z,-y,1/2+x
168 1/2+y,-x,1/2-z
169 1/2-x,1/2-y,-z
170 1/2-z,1/2-x,-y
171 1/2-y,1/2-z,-x
172 1/2+z,1/2-x,y
173 1/2+y,1/2+z,-x
174 1/2-y,1/2+z,x
175 1/2+x,1/2-y,z
176 1/2+z,1/2+x,-y
177 1/2-x,1/2+y,z
178 1/2-y,1/2-x,z
179 1/2+z,1/2-y,-x
180 1/2-x,1/2+z,-y
181 1/2+x,1/2+y,-z
182 1/2-z,1/2+x,y
183 1/2+y,1/2-z,x
184 1/2+y,1/2+x,z
185 1/2+z,1/2+y,x
186 1/2+x,1/2+z,y
187 1/2-z,1/2+y,-x
188 1/2-x,1/2-z,y
189 1/2+x,1/2-z,-y
190 1/2-y,1/2+x,-z
191 1/2-z,1/2-y,x
192 1/2+y,1/2-x,-z
_cell_length_a                   20.9550(23)
_cell_length_b                   20.9550(23)
_cell_length_c                   20.9550(23)
_cell_angle_alpha                90
_cell_angle_beta                 90
_cell_angle_gamma                90
_cell_volume                     9201.59
loop_
_atom_site_label
_atom_site_type_symbol
_atom_site_fract_x
_atom_site_fract_y
_atom_site_fract_z
Zr1 Zr 0.0000 0.0000 0.1237
O1 O 0.0712 0.0712 0.0712
O2 O 0.0988 0.0000 0.1743
C1 C 0.1563 0.0000 0.1563
C2 C 0.2033 0.0000 0.2033
C3 C 0.2626 0.0000 0.1851
Zr1D Zr 0.0000 -0.1237 0.0000
Zr1C Zr -0.1237 0.0000 0.0000
Zr1A Zr 0.1237 0.0000 0.0000
Zr1B Zr 0.0000 0.1237 0.0000
Zr1YA Zr 0.3763 0.0000 0.5000
Zr1BB Zr 0.5000 0.0000 0.3763
Zr1Z Zr 0.0000 -0.3763 0.5000
Zr1DA Zr 0.0000 -0.5000 0.3763
Zr1BA Zr 0.0000 0.3763 0.5000
Zr1DA_2 Zr 0.0000 0.5000 0.3763
Zr1WA Zr -0.3763 0.0000 0.5000
Zr1BB_2 Zr -0.5000 0.0000 0.3763
Zr1UB Zr -0.3763 -0.5000 0.0000
Zr1VB Zr -0.5000 -0.3763 0.0000
Zr1WB Zr 0.3763 -0.5000 0.0000
Zr1VB_2 Zr 0.5000 -0.3763 0.0000
Zr1F Zr 0.0000 0.0000 -0.1237
O1K O 0.0712 -0.0712 0.0712
O1J O -0.0712 0.0712 0.0712
O1D O -0.0712 -0.0712 0.0712
O1E O 0.0712 -0.0712 -0.0712
O1O O -0.0712 -0.0712 -0.0712
O1C O -0.0712 0.0712 -0.0712
O1I O 0.0712 0.0712 -0.0712
O1YA O 0.4288 0.0712 0.4288
O1KB O 0.4288 -0.0712 0.4288
O1FB O 0.4288 0.0712 0.5712
O1ZA O 0.4288 -0.0712 0.5712
O2R O 0.1743 0.0000 0.0988
O2LB O 0.3257 0.0000 0.4012
O2BB O 0.4012 0.0000 0.3257
O2U O 0.0000 -0.0988 0.1743
O2D O 0.0000 -0.1743 0.0988
O2LA O 0.0000 -0.3257 0.4012
O2GA O 0.0000 -0.4012 0.3257
O2W O 0.0000 0.0988 0.1743
O2B O 0.0000 0.1743 0.0988
O2CA O 0.0000 0.3257 0.4012
O2MA O 0.0000 0.4012 0.3257
O2L O -0.0988 0.0000 0.1743
O2J O -0.1743 0.0000 0.0988
O2RB O -0.3257 0.0000 0.4012
O2DB O -0.4012 0.0000 0.3257
O2Q O -0.0988 -0.1743 0.0000
O2G O -0.1743 -0.0988 0.0000
O2UB O -0.3257 -0.4012 0.0000
O2MC O -0.4012 -0.3257 0.0000
O2K O 0.0988 -0.1743 0.0000
O2M O 0.1743 -0.0988 0.0000
O2WB O 0.3257 -0.4012 0.0000
O2NC O 0.4012 -0.3257 0.0000
O2E O 0.0000 -0.1743 -0.0988
O2C O -0.1743 0.0988 0.0000
O2P O -0.1743 0.0000 -0.0988
O2A O 0.1743 0.0988 0.0000
O2V O 0.1743 0.0000 -0.0988
O2S O 0.0988 0.1743 0.0000
O2T O -0.0988 0.1743 0.0000
O2N O 0.0000 0.1743 -0.0988
O2CB O 0.3257 -0.0988 0.5000
O2YA O 0.3257 0.0988 0.5000
O2FB O 0.3257 0.0000 0.5988
C1BB C 0.3437 0.0000 0.3437
C1D C 0.0000 -0.1563 0.1563
C1GA C 0.0000 -0.3437 0.3437
C1B C 0.0000 0.1563 0.1563
C1CA C 0.0000 0.3437 0.3437
C1J C -0.1563 0.0000 0.1563
C1DB C -0.3437 0.0000 0.3437
C1G C -0.1563 -0.1563 0.0000
C1UB C -0.3437 -0.3437 0.0000
C1K C 0.1563 -0.1563 0.0000
C1WB C 0.3437 -0.3437 0.0000
C2BB C 0.2967 0.0000 0.2967
C2D C 0.0000 -0.2033 0.2033
C2GA C 0.0000 -0.2967 0.2967
C2B C 0.0000 0.2033 0.2033
C2CA C 0.0000 0.2967 0.2967
C2J C -0.2033 0.0000 0.2033
C2DB C -0.2967 0.0000 0.2967
C2G C -0.2033 -0.2033 0.0000
C2UB C -0.2967 -0.2967 0.0000
C2K C 0.2033 -0.2033 0.0000
C2WB C 0.2967 -0.2967 0.0000
C3LB C 0.3149 0.0000 0.2374
C3BB C 0.2374 0.0000 0.3149
C3R C 0.1851 0.0000 0.2626
C3U C 0.0000 -0.2626 0.1851
C3LA C 0.0000 -0.3149 0.2374
C3GA C 0.0000 -0.2374 0.3149
C3D C 0.0000 -0.1851 0.2626
C3W C 0.0000 0.2626 0.1851
C3CA C 0.0000 0.3149 0.2374
C3MA C 0.0000 0.2374 0.3149
C3B C 0.0000 0.1851 0.2626
C3L C -0.2626 0.0000 0.1851
C3RB C -0.3149 0.0000 0.2374
C3DB C -0.2374 0.0000 0.3149
C3J C -0.1851 0.0000 0.2626
C3Q C -0.2626 -0.1851 0.0000
C3UB C -0.3149 -0.2374 0.0000
C3MC C -0.2374 -0.3149 0.0000
C3G C -0.1851 -0.2626 0.0000
C3K C 0.2626 -0.1851 0.0000
C3WB C 0.3149 -0.2374 0.0000
C3NC C 0.2374 -0.3149 0.0000
C3M C 0.1851 -0.2626 0.0000
loop_
_geom_bond_atom_site_label_1
_geom_bond_atom_site_label_2
_geom_bond_site_symmetry_1
_geom_bond_site_symmetry_2
Zr1 O1 1_555 1_555
O1 Zr1A 1_555 1_555
O2 Zr1 1_555 1_555
C1 O2 1_555 1_555
C2 C1 1_555 1_555
C3 C2 1_555 1_555
Zr1D O1K 1_555 1_555
Zr1C O1J 1_555 1_555
Zr1A O1K 1_555 1_555
Zr1B O1 1_555 1_555
Zr1YA O1YA 1_555 1_555
Zr1BB O1YA 1_555 1_555
Zr1Z O2LA 1_555 1_555
Zr1DA O2GA 1_555 1_555
Zr1BA O2CA 1_555 1_555
Zr1DA_2 O2MA 1_555 1_555
Zr1WA O2RB 1_555 1_555
Zr1BB_2 O2DB 1_555 1_555
Zr1UB O2UB 1_555 1_555
Zr1VB O2MC 1_555 1_555
Zr1WB O2WB 1_555 1_555
Zr1VB_2 O2NC 1_555 1_555
Zr1F O1E 1_555 1_555
O1K Zr1 1_555 1_555
O1J Zr1 1_555 1_555
O1D Zr1 1_555 1_555
O1E Zr1D 1_555 1_555
O1O Zr1D 1_555 1_555
O1C Zr1C 1_555 1_555
O1I Zr1A 1_555 1_555
O1KB Zr1YA 1_555 1_555
O1FB Zr1YA 1_555 1_555
O1ZA Zr1YA 1_555 1_555
O2R C1 1_555 1_555
O2LB Zr1YA 1_555 1_555
O2BB Zr1BB 1_555 1_555
O2U Zr1 1_555 1_555
O2D Zr1D 1_555 1_555
O2LA C1GA 1_555 1_555
O2GA C1GA 1_555 1_555
O2W Zr1 1_555 1_555
O2B Zr1B 1_555 1_555
O2CA C1CA 1_555 1_555
O2MA C1CA 1_555 1_555
O2L Zr1 1_555 1_555
O2J Zr1C 1_555 1_555
O2RB C1DB 1_555 1_555
O2DB C1DB 1_555 1_555
O2Q Zr1D 1_555 1_555
O2G Zr1C 1_555 1_555
O2UB C1UB 1_555 1_555
O2MC C1UB 1_555 1_555
O2K Zr1D 1_555 1_555
O2M Zr1A 1_555 1_555
O2WB C1WB 1_555 1_555
O2NC C1WB 1_555 1_555
O2E Zr1D 1_555 1_555
O2C Zr1C 1_555 1_555
O2P Zr1C 1_555 1_555
O2A Zr1A 1_555 1_555
O2V Zr1A 1_555 1_555
O2S Zr1B 1_555 1_555
O2T Zr1B 1_555 1_555
O2N Zr1B 1_555 1_555
O2CB Zr1YA 1_555 1_555
O2YA Zr1YA 1_555 1_555
O2FB Zr1YA 1_555 1_555
C1BB O2LB 1_555 1_555
C1D O2U 1_555 1_555
C1GA C2GA 1_555 1_555
C1B O2W 1_555 1_555
C1CA C2CA 1_555 1_555
C1J O2L 1_555 1_555
C1DB C2DB 1_555 1_555
C1G O2Q 1_555 1_555
C1UB C2UB 1_555 1_555
C1K O2K 1_555 1_555
C1WB C2WB 1_555 1_555
C2BB C1BB 1_555 1_555
C2D C1D 1_555 1_555
C2GA C3LA 1_555 1_555
C2B C1B 1_555 1_555
C2CA C3CA 1_555 1_555
C2J C1J 1_555 1_555
C2DB C3RB 1_555 1_555
C2G C1G 1_555 1_555
C2UB C3UB 1_555 1_555
C2K C1K 1_555 1_555
C2WB C3WB 1_555 1_555
C3LB C3 1_555 1_555
C3BB C2BB 1_555 1_555
C3R C2 1_555 1_555
C3U C2D 1_555 1_555
C3LA C3U 1_555 1_555
C3GA C2GA 1_555 1_555
C3D C2D 1_555 1_555
C3W C2B 1_555 1_555
C3CA C3W 1_555 1_555
C3MA C2CA 1_555 1_555
C3B C2B 1_555 1_555
C3L C2J 1_555 1_555
C3RB C3L 1_555 1_555
C3DB C2DB 1_555 1_555
C3J C2J 1_555 1_555
C3Q C2G 1_555 1_555
C3UB C3Q 1_555 1_555
C3MC C2UB 1_555 1_555
C3G C2G 1_555 1_555
C3K C2K 1_555 1_555
C3WB C3K 1_555 1_555
C3NC C2WB 1_555 1_555
C3M C2K 1_555 1_555
Zr1D O1D 1_555 1_555
Zr1C O1D 1_555 1_555
Zr1C O1O 1_555 1_555
Zr1A O1E 1_555 1_555
Zr1A O2R 1_555 1_555
Zr1B O1J 1_555 1_555
Zr1B O1C 1_555 1_555
Zr1B O1I 1_555 1_555
Zr1BB O1KB 1_555 1_555
Zr1F O1O 1_555 1_555
Zr1F O1C 1_555 1_555
Zr1F O1I 1_555 1_555
O2BB C1BB 1_555 1_555
O2D C1D 1_555 1_555
O2B C1B 1_555 1_555
O2J C1J 1_555 1_555
O2G C1G 1_555 1_555
O2M C1K 1_555 1_555
C2BB C3LB 1_555 1_555
C3BB C3R 1_555 1_555
C3GA C3D 1_555 1_555
C3MA C3B 1_555 1_555
C3DB C3J 1_555 1_555
C3MC C3G 1_555 1_555
C3NC C3M 1_555 1_555

#END
