
#######################################################################
#
#                 Cambridge Crystallographic Data Centre
#                                CCDC 
#
#######################################################################
#
# If this CIF has been generated from an entry in the Cambridge 
# Structural Database, then it will include bibliographic, chemical, 
# crystal, experimental, refinement or atomic coordinate data resulting 
# from the CCDC's data processing and validation procedures.
#
#######################################################################

data_RUBTAK02
_symmetry_cell_setting           cubic
_symmetry_space_group_name_H-M   'F m -3 m'
_symmetry_Int_Tables_number      225
_space_group_name_Hall           '-F 4 2 3'
loop_
_symmetry_equiv_pos_site_id
_symmetry_equiv_pos_as_xyz
1 x,y,z
2 -y,x,z
3 y,-x,z
4 x,-z,y
5 x,z,-y
6 z,y,-x
7 -z,y,x
8 z,x,y
9 y,z,x
10 y,x,-z
11 -x,z,y
12 z,-y,x
13 x,1/2+y,1/2+z
14 -y,1/2+x,1/2+z
15 y,1/2-x,1/2+z
16 x,1/2-z,1/2+y
17 x,1/2+z,1/2-y
18 z,1/2+y,1/2-x
19 -z,1/2+y,1/2+x
20 z,1/2+x,1/2+y
21 y,1/2+z,1/2+x
22 y,1/2+x,1/2-z
23 -x,1/2+z,1/2+y
24 z,1/2-y,1/2+x
25 1/2+x,y,1/2+z
26 1/2-y,x,1/2+z
27 1/2+y,-x,1/2+z
28 1/2+x,-z,1/2+y
29 1/2+x,z,1/2-y
30 1/2+z,y,1/2-x
31 1/2-z,y,1/2+x
32 1/2+z,x,1/2+y
33 1/2+y,z,1/2+x
34 1/2+y,x,1/2-z
35 1/2-x,z,1/2+y
36 1/2+z,-y,1/2+x
37 1/2+x,1/2+y,z
38 1/2-y,1/2+x,z
39 1/2+y,1/2-x,z
40 1/2+x,1/2-z,y
41 1/2+x,1/2+z,-y
42 1/2+z,1/2+y,-x
43 1/2-z,1/2+y,x
44 1/2+z,1/2+x,y
45 1/2+y,1/2+z,x
46 1/2+y,1/2+x,-z
47 1/2-x,1/2+z,y
48 1/2+z,1/2-y,x
49 -x,-y,z
50 x,-y,-z
51 -x,y,-z
52 -y,-z,x
53 z,-x,-y
54 -y,z,-x
55 -z,-x,y
56 -z,x,-y
57 y,-z,-x
58 -y,-x,-z
59 -x,-z,-y
60 -z,-y,-x
61 -x,1/2-y,1/2+z
62 x,1/2-y,1/2-z
63 -x,1/2+y,1/2-z
64 -y,1/2-z,1/2+x
65 z,1/2-x,1/2-y
66 -y,1/2+z,1/2-x
67 -z,1/2-x,1/2+y
68 -z,1/2+x,1/2-y
69 y,1/2-z,1/2-x
70 -y,1/2-x,1/2-z
71 -x,1/2-z,1/2-y
72 -z,1/2-y,1/2-x
73 1/2-x,-y,1/2+z
74 1/2+x,-y,1/2-z
75 1/2-x,y,1/2-z
76 1/2-y,-z,1/2+x
77 1/2+z,-x,1/2-y
78 1/2-y,z,1/2-x
79 1/2-z,-x,1/2+y
80 1/2-z,x,1/2-y
81 1/2+y,-z,1/2-x
82 1/2-y,-x,1/2-z
83 1/2-x,-z,1/2-y
84 1/2-z,-y,1/2-x
85 1/2-x,1/2-y,z
86 1/2+x,1/2-y,-z
87 1/2-x,1/2+y,-z
88 1/2-y,1/2-z,x
89 1/2+z,1/2-x,-y
90 1/2-y,1/2+z,-x
91 1/2-z,1/2-x,y
92 1/2-z,1/2+x,-y
93 1/2+y,1/2-z,-x
94 1/2-y,1/2-x,-z
95 1/2-x,1/2-z,-y
96 1/2-z,1/2-y,-x
97 -x,-y,-z
98 y,-x,-z
99 -y,x,-z
100 -x,z,-y
101 -x,-z,y
102 -z,-y,x
103 z,-y,-x
104 -z,-x,-y
105 -y,-z,-x
106 -y,-x,z
107 x,-z,-y
108 -z,y,-x
109 -x,1/2-y,1/2-z
110 y,1/2-x,1/2-z
111 -y,1/2+x,1/2-z
112 -x,1/2+z,1/2-y
113 -x,1/2-z,1/2+y
114 -z,1/2-y,1/2+x
115 z,1/2-y,1/2-x
116 -z,1/2-x,1/2-y
117 -y,1/2-z,1/2-x
118 -y,1/2-x,1/2+z
119 x,1/2-z,1/2-y
120 -z,1/2+y,1/2-x
121 1/2-x,-y,1/2-z
122 1/2+y,-x,1/2-z
123 1/2-y,x,1/2-z
124 1/2-x,z,1/2-y
125 1/2-x,-z,1/2+y
126 1/2-z,-y,1/2+x
127 1/2+z,-y,1/2-x
128 1/2-z,-x,1/2-y
129 1/2-y,-z,1/2-x
130 1/2-y,-x,1/2+z
131 1/2+x,-z,1/2-y
132 1/2-z,y,1/2-x
133 1/2-x,1/2-y,-z
134 1/2+y,1/2-x,-z
135 1/2-y,1/2+x,-z
136 1/2-x,1/2+z,-y
137 1/2-x,1/2-z,y
138 1/2-z,1/2-y,x
139 1/2+z,1/2-y,-x
140 1/2-z,1/2-x,-y
141 1/2-y,1/2-z,-x
142 1/2-y,1/2-x,z
143 1/2+x,1/2-z,-y
144 1/2-z,1/2+y,-x
145 x,y,-z
146 -x,y,z
147 x,-y,z
148 y,z,-x
149 -z,x,y
150 y,-z,x
151 z,x,-y
152 z,-x,y
153 -y,z,x
154 y,x,z
155 x,z,y
156 z,y,x
157 x,1/2+y,1/2-z
158 -x,1/2+y,1/2+z
159 x,1/2-y,1/2+z
160 y,1/2+z,1/2-x
161 -z,1/2+x,1/2+y
162 y,1/2-z,1/2+x
163 z,1/2+x,1/2-y
164 z,1/2-x,1/2+y
165 -y,1/2+z,1/2+x
166 y,1/2+x,1/2+z
167 x,1/2+z,1/2+y
168 z,1/2+y,1/2+x
169 1/2+x,y,1/2-z
170 1/2-x,y,1/2+z
171 1/2+x,-y,1/2+z
172 1/2+y,z,1/2-x
173 1/2-z,x,1/2+y
174 1/2+y,-z,1/2+x
175 1/2+z,x,1/2-y
176 1/2+z,-x,1/2+y
177 1/2-y,z,1/2+x
178 1/2+y,x,1/2+z
179 1/2+x,z,1/2+y
180 1/2+z,y,1/2+x
181 1/2+x,1/2+y,-z
182 1/2-x,1/2+y,z
183 1/2+x,1/2-y,z
184 1/2+y,1/2+z,-x
185 1/2-z,1/2+x,y
186 1/2+y,1/2-z,x
187 1/2+z,1/2+x,-y
188 1/2+z,1/2-x,y
189 1/2-y,1/2+z,x
190 1/2+y,1/2+x,z
191 1/2+x,1/2+z,y
192 1/2+z,1/2+y,x
_cell_length_a                   20.7430
_cell_length_b                   20.7430
_cell_length_c                   20.7430
_cell_angle_alpha                90
_cell_angle_beta                 90
_cell_angle_gamma                90
_cell_volume                     8925.13
loop_
_atom_site_label
_atom_site_type_symbol
_atom_site_fract_x
_atom_site_fract_y
_atom_site_fract_z
Zr1 Zr 0.1204 0.0000 0.0000
O1 O 0.1726 0.0000 0.0960
O2 O 0.0561 -0.0561 -0.0561
C1 C 0.1473 0.0000 0.1473
C2 C 0.2019 0.0000 0.2019
C3 C 0.2643 0.0000 0.1841
Zr1F Zr 0.0000 0.0000 0.1204
Zr1CA Zr 0.5000 0.0000 0.3796
Zr1HA Zr 0.3796 0.0000 0.5000
Zr1B Zr 0.0000 -0.1204 0.0000
Zr1KA Zr 0.5000 -0.3796 0.0000
Zr1E Zr 0.0000 0.0000 -0.1204
Zr1TA Zr 0.3796 -0.5000 0.0000
Zr1A Zr 0.0000 0.1204 0.0000
Zr1LA Zr 0.5000 0.3796 0.0000
Zr1TA_2 Zr 0.3796 0.5000 0.0000
Zr1DA Zr 0.5000 0.0000 -0.3796
Zr1HA_2 Zr 0.3796 0.0000 -0.5000
Zr1M Zr 0.0000 -0.3796 0.5000
Zr1Q Zr 0.0000 -0.5000 0.3796
Zr1N Zr 0.0000 0.3796 0.5000
Zr1Q_2 Zr 0.0000 0.5000 0.3796
Zr1J Zr -0.1204 0.0000 0.0000
Zr1Z Zr 0.5000 -0.1204 0.5000
Zr1X Zr 0.6204 0.0000 0.5000
Zr1Y Zr 0.5000 0.1204 0.5000
O1K O 0.0960 0.0000 0.1726
O1AE O 0.4040 0.0000 0.3274
O1PD O 0.3274 0.0000 0.4040
O1C O 0.1726 -0.0960 0.0000
O1UE O 0.0960 -0.1726 0.0000
O1BG O 0.4040 -0.3274 0.0000
O1TA O 0.3274 -0.4040 0.0000
O1D O 0.1726 0.0960 0.0000
O1G O 0.0960 0.1726 0.0000
O1IE O 0.4040 0.3274 0.0000
O1FE O 0.3274 0.4040 0.0000
O1NE O 0.1726 0.0000 -0.0960
O1E O 0.0960 0.0000 -0.1726
O1DA O 0.4040 0.0000 -0.3274
O1MF O 0.3274 0.0000 -0.4040
O1SE O 0.0000 -0.0960 0.1726
O1B O 0.0000 -0.1726 0.0960
O1U O 0.0000 -0.3274 0.4040
O1CF O 0.0000 -0.4040 0.3274
O1H O 0.0000 0.0960 0.1726
O1A O 0.0000 0.1726 0.0960
O1ED O 0.0000 0.3274 0.4040
O1LD O 0.0000 0.4040 0.3274
O1F O -0.0960 0.0000 0.1726
O1XD O 0.5000 -0.0960 0.3274
O1OF O 0.5000 0.0960 0.3274
O1CA O 0.5960 0.0000 0.3274
O1TD O 0.3274 -0.0960 0.5000
O1HA O 0.3274 0.0960 0.5000
O1MF_2 O 0.3274 0.0000 0.5960
O1SC O 0.0000 -0.1726 -0.0960
O1YC O -0.0960 -0.1726 0.0000
O1SA O 0.5000 -0.3274 -0.0960
O1KA O 0.5000 -0.3274 0.0960
O1QA O 0.5960 -0.3274 0.0000
O2A O 0.0561 0.0561 -0.0561
O2D O 0.0561 -0.0561 0.0561
O2TC O 0.0561 0.0561 0.0561
O2H O -0.0561 -0.0561 0.0561
O2I O -0.0561 0.0561 0.0561
O2X O 0.5561 -0.0561 0.4439
O2Y O 0.5561 0.0561 0.4439
O2Z O 0.4439 -0.0561 0.4439
O2EA O 0.4439 0.0561 0.4439
O2FA O 0.4439 -0.0561 0.5561
O2GA O 0.4439 0.0561 0.5561
O2B O -0.0561 -0.0561 -0.0561
O2KA O 0.5561 -0.4439 -0.0561
O2DE O 0.5561 -0.4439 0.0561
O2QA O 0.4439 -0.4439 -0.0561
O2SA O 0.4439 -0.4439 0.0561
C1PD C 0.3527 0.0000 0.3527
C1C C 0.1473 -0.1473 0.0000
C1TA C 0.3527 -0.3527 0.0000
C1D C 0.1473 0.1473 0.0000
C1FE C 0.3527 0.3527 0.0000
C1E C 0.1473 0.0000 -0.1473
C1DA C 0.3527 0.0000 -0.3527
C1B C 0.0000 -0.1473 0.1473
C1U C 0.0000 -0.3527 0.3527
C1A C 0.0000 0.1473 0.1473
C1ED C 0.0000 0.3527 0.3527
C2PD C 0.2981 0.0000 0.2981
C2C C 0.2019 -0.2019 0.0000
C2TA C 0.2981 -0.2981 0.0000
C2D C 0.2019 0.2019 0.0000
C2FE C 0.2981 0.2981 0.0000
C2E C 0.2019 0.0000 -0.2019
C2DA C 0.2981 0.0000 -0.2981
C2B C 0.0000 -0.2019 0.2019
C2U C 0.0000 -0.2981 0.2981
C2A C 0.0000 0.2019 0.2019
C2ED C 0.0000 0.2981 0.2981
C3AE C 0.3159 0.0000 0.2357
C3PD C 0.2357 0.0000 0.3159
C3K C 0.1841 0.0000 0.2643
C3C C 0.2643 -0.1841 0.0000
C3BG C 0.3159 -0.2357 0.0000
C3TA C 0.2357 -0.3159 0.0000
C3UE C 0.1841 -0.2643 0.0000
C3D C 0.2643 0.1841 0.0000
C3IE C 0.3159 0.2357 0.0000
C3FE C 0.2357 0.3159 0.0000
C3G C 0.1841 0.2643 0.0000
C3NE C 0.2643 0.0000 -0.1841
C3DA C 0.3159 0.0000 -0.2357
C3MF C 0.2357 0.0000 -0.3159
C3E C 0.1841 0.0000 -0.2643
C3SE C 0.0000 -0.1841 0.2643
C3U C 0.0000 -0.2357 0.3159
C3CF C 0.0000 -0.3159 0.2357
C3B C 0.0000 -0.2643 0.1841
C3H C 0.0000 0.1841 0.2643
C3ED C 0.0000 0.2357 0.3159
C3LD C 0.0000 0.3159 0.2357
C3A C 0.0000 0.2643 0.1841
loop_
_geom_bond_atom_site_label_1
_geom_bond_atom_site_label_2
_geom_bond_site_symmetry_1
_geom_bond_site_symmetry_2
Zr1 O1 1_555 1_555
O1 C1 1_555 1_555
O2 Zr1 1_555 1_555
C1 C2 1_555 1_555
C2 C3 1_555 1_555
C3 C3AE 1_555 1_555
Zr1F O1K 1_555 1_555
Zr1CA O1AE 1_555 1_555
Zr1HA O1PD 1_555 1_555
Zr1B O2 1_555 1_555
Zr1KA O1BG 1_555 1_555
Zr1E O2 1_555 1_555
Zr1TA O1TA 1_555 1_555
Zr1A O1G 1_555 1_555
Zr1LA O1IE 1_555 1_555
Zr1TA_2 O1FE 1_555 1_555
Zr1DA O1DA 1_555 1_555
Zr1HA_2 O1MF 1_555 1_555
Zr1M O1U 1_555 1_555
Zr1Q O1CF 1_555 1_555
Zr1N O1ED 1_555 1_555
Zr1Q_2 O1LD 1_555 1_555
Zr1J O2H 1_555 1_555
Zr1Z O2X 1_555 1_555
Zr1X O2X 1_555 1_555
Zr1Y O2Y 1_555 1_555
O1K C1 1_555 1_555
O1AE C1PD 1_555 1_555
O1PD C1PD 1_555 1_555
O1C Zr1 1_555 1_555
O1UE Zr1B 1_555 1_555
O1BG C1TA 1_555 1_555
O1TA C1TA 1_555 1_555
O1D Zr1 1_555 1_555
O1G C1D 1_555 1_555
O1IE C1FE 1_555 1_555
O1FE C1FE 1_555 1_555
O1NE Zr1 1_555 1_555
O1E Zr1E 1_555 1_555
O1DA C1DA 1_555 1_555
O1MF C1DA 1_555 1_555
O1SE Zr1F 1_555 1_555
O1B Zr1B 1_555 1_555
O1U C1U 1_555 1_555
O1CF C1U 1_555 1_555
O1H Zr1F 1_555 1_555
O1A Zr1A 1_555 1_555
O1ED C1ED 1_555 1_555
O1LD C1ED 1_555 1_555
O1F Zr1F 1_555 1_555
O1XD Zr1CA 1_555 1_555
O1OF Zr1CA 1_555 1_555
O1CA Zr1CA 1_555 1_555
O1TD Zr1HA 1_555 1_555
O1HA Zr1HA 1_555 1_555
O1MF_2 Zr1HA 1_555 1_555
O1SC Zr1B 1_555 1_555
O1YC Zr1B 1_555 1_555
O1SA Zr1KA 1_555 1_555
O1KA Zr1KA 1_555 1_555
O1QA Zr1KA 1_555 1_555
O2A Zr1 1_555 1_555
O2D Zr1 1_555 1_555
O2TC Zr1 1_555 1_555
O2H Zr1F 1_555 1_555
O2I Zr1F 1_555 1_555
O2X Zr1CA 1_555 1_555
O2Y Zr1CA 1_555 1_555
O2Z Zr1CA 1_555 1_555
O2EA Zr1CA 1_555 1_555
O2FA Zr1HA 1_555 1_555
O2GA Zr1HA 1_555 1_555
O2B Zr1B 1_555 1_555
O2KA Zr1KA 1_555 1_555
O2DE Zr1KA 1_555 1_555
O2QA Zr1KA 1_555 1_555
O2SA Zr1KA 1_555 1_555
C1PD C2PD 1_555 1_555
C1C O1C 1_555 1_555
C1TA C2TA 1_555 1_555
C1D O1D 1_555 1_555
C1FE C2FE 1_555 1_555
C1E O1NE 1_555 1_555
C1DA C2DA 1_555 1_555
C1B O1SE 1_555 1_555
C1U C2U 1_555 1_555
C1A O1H 1_555 1_555
C1ED C2ED 1_555 1_555
C2PD C3AE 1_555 1_555
C2C C1C 1_555 1_555
C2TA C3BG 1_555 1_555
C2D C1D 1_555 1_555
C2FE C3IE 1_555 1_555
C2E C1E 1_555 1_555
C2DA C3DA 1_555 1_555
C2B C1B 1_555 1_555
C2U C3U 1_555 1_555
C2A C1A 1_555 1_555
C2ED C3ED 1_555 1_555
C3PD C2PD 1_555 1_555
C3K C2 1_555 1_555
C3C C2C 1_555 1_555
C3BG C3C 1_555 1_555
C3TA C2TA 1_555 1_555
C3UE C2C 1_555 1_555
C3D C2D 1_555 1_555
C3IE C3D 1_555 1_555
C3FE C2FE 1_555 1_555
C3G C2D 1_555 1_555
C3NE C2E 1_555 1_555
C3DA C3NE 1_555 1_555
C3MF C2DA 1_555 1_555
C3E C2E 1_555 1_555
C3SE C2B 1_555 1_555
C3U C3SE 1_555 1_555
C3CF C2U 1_555 1_555
C3B C2B 1_555 1_555
C3H C2A 1_555 1_555
C3ED C3H 1_555 1_555
C3LD C2ED 1_555 1_555
C3A C2A 1_555 1_555
Zr1F O2D 1_555 1_555
Zr1F O2TC 1_555 1_555
Zr1HA O2Z 1_555 1_555
Zr1HA O2EA 1_555 1_555
Zr1B O2D 1_555 1_555
Zr1B O2H 1_555 1_555
Zr1E O2A 1_555 1_555
Zr1E O2B 1_555 1_555
Zr1TA O2QA 1_555 1_555
Zr1TA O2SA 1_555 1_555
Zr1A O2A 1_555 1_555
Zr1A O2TC 1_555 1_555
Zr1A O2I 1_555 1_555
Zr1J O2I 1_555 1_555
Zr1J O2B 1_555 1_555
Zr1Z O2Z 1_555 1_555
Zr1Z O2FA 1_555 1_555
Zr1X O2Y 1_555 1_555
Zr1Y O2EA 1_555 1_555
Zr1Y O2GA 1_555 1_555
O1UE C1C 1_555 1_555
O1E C1E 1_555 1_555
O1B C1B 1_555 1_555
O1A C1A 1_555 1_555
C3PD C3K 1_555 1_555
C3TA C3UE 1_555 1_555
C3FE C3G 1_555 1_555
C3MF C3E 1_555 1_555
C3CF C3B 1_555 1_555
C3LD C3A 1_555 1_555

#END
