
#######################################################################
#
#                 Cambridge Crystallographic Data Centre
#                                CCDC 
#
#######################################################################
#
# If this CIF has been generated from an entry in the Cambridge 
# Structural Database, then it will include bibliographic, chemical, 
# crystal, experimental, refinement or atomic coordinate data resulting 
# from the CCDC's data processing and validation procedures.
#
#######################################################################

data_RUBYUK
_symmetry_cell_setting           tetragonal
_symmetry_space_group_name_H-M   'I -4'
_symmetry_Int_Tables_number      82
_space_group_name_Hall           'I -4'
loop_
_symmetry_equiv_pos_site_id
_symmetry_equiv_pos_as_xyz
1 x,y,z
2 -x,-y,z
3 y,-x,-z
4 -y,x,-z
5 1/2+x,1/2+y,1/2+z
6 1/2-x,1/2-y,1/2+z
7 1/2+y,1/2-x,1/2-z
8 1/2-y,1/2+x,1/2-z
_cell_length_a                   23.239(4)
_cell_length_b                   23.239(4)
_cell_length_c                   32.854(13)
_cell_angle_alpha                90
_cell_angle_beta                 90
_cell_angle_gamma                90
_cell_volume                     17742.8
loop_
_atom_site_label
_atom_site_type_symbol
_atom_site_fract_x
_atom_site_fract_y
_atom_site_fract_z
Zr1 Zr 0.42538(4) 0.42542(4) 0.00000(8)
Zr2 Zr 0.5000 0.5000 0.07473(4)
O1 O 0.4960(5) 0.4292(5) 0.0350(3)
O2 O 0.4216(5) 0.4965(6) 0.0402(3)
O3 O 0.3929(6) 0.3843(6) -0.0528(4)
O4 O 0.1097(6) 0.1023(6) -0.4365(4)
O5 O 0.0663(6) 0.0580(6) -0.3935(3)
O6 O 0.4514(6) 0.4399(6) -0.1113(4)
C1 C 0.2350(7) 0.2460(6) -0.1737(7)
C2 C 0.2710(8) 0.2750(8) -0.1469(4)
C3 C 0.3050(7) 0.3202(8) -0.1607(7)
C4 C 0.3028(8) 0.3364(7) -0.2014(8)
C5 C 0.2668(10) 0.3075(10) -0.2282(4)
C6 C 0.2328(7) 0.2623(9) -0.2144(6)
C7 C 0.2260(7) 0.2273(8) -0.2869(8)
C8 C 0.2037(9) 0.1925(10) -0.3175(5)
C9 C 0.1556(10) 0.1587(7) -0.3099(6)
C10 C 0.1297(7) 0.1596(7) -0.2718(8)
C11 C 0.1520(9) 0.1944(9) -0.2412(5)
C12 C 0.2001(9) 0.2282(7) -0.2487(6)
C13 C 0.3366(15) 0.3398(15) -0.1241(10)
C14 C 0.3749(14) 0.3826(14) -0.1344(10)
C15 C 0.1143(14) 0.1289(14) -0.3383(10)
C16 C 0.1280(11) 0.1381(12) -0.3815(8)
C17 C 0.0824(9) 0.1045(9) -0.4078(7)
C18 C 0.4001(8) 0.4177(9) -0.0961(6)
C19? C 0.1260(17) 0.4159(14) -0.0168(9)
C20? C 0.0663(18) 0.4149(13) -0.0189(8)
C21? C 0.0622(17) 0.5054(12) 0.0166(11)
C22? C -0.1219(18) 0.4936(13) 0.0188(11)
C23? C -0.1538(11) 0.5383(18) 0.0021(12)
C24? C -0.2202(18) 0.5430(18) -0.004(2)
O7? O -0.3324(4) 0.5514(4) 0.0068(4)
O8? O -0.3341(4) 0.4501(4) 0.0071(4)
C25? C 0.0344(11) 0.4596(17) -0.0022(11)
C26? C -0.0640(15) 0.5109(11) -0.0123(10)
C27? C -0.1234(15) 0.5110(10) -0.0070(12)
C28? C -0.1519(9) 0.4602(15) 0.0025(13)
C29? C -0.1211(14) 0.4093(11) 0.0068(11)
C30? C -0.0618(13) 0.4092(11) 0.0016(12)
C31? C -0.0332(9) 0.4599(15) -0.0080(11)
C32? C -0.2452(10) 0.4956(10) 0.0030(12)
C33? C -0.2141(17) 0.4541(17) -0.005(2)
C34? C -0.3110(8) 0.4999(9) 0.0001(11)
loop_
_geom_bond_atom_site_label_1
_geom_bond_atom_site_label_2
_geom_bond_site_symmetry_1
_geom_bond_site_symmetry_2
O3 C18 1_555 1_555
O4 C17 1_555 1_555
O5 C17 1_555 1_555
O6 C18 1_555 1_555
C1 C2 1_555 1_555
C2 C3 1_555 1_555
C3 C4 1_555 1_555
C4 C5 1_555 1_555
C5 C6 1_555 1_555
C6 C1 1_555 1_555
C7 C8 1_555 1_555
C8 C9 1_555 1_555
C9 C10 1_555 1_555
C10 C11 1_555 1_555
C11 C12 1_555 1_555
C12 C6 1_555 1_555
C13 C3 1_555 1_555
C14 C13 1_555 1_555
C15 C9 1_555 1_555
C16 C15 1_555 1_555
C17 C16 1_555 1_555
C18 C14 1_555 1_555
C7 C12 1_555 1_555

#END
