
#######################################################################
#
#                 Cambridge Crystallographic Data Centre
#                                CCDC 
#
#######################################################################
#
# If this CIF has been generated from an entry in the Cambridge 
# Structural Database, then it will include bibliographic, chemical, 
# crystal, experimental, refinement or atomic coordinate data resulting 
# from the CCDC's data processing and validation procedures.
#
#######################################################################

data_RUBZIY03
_symmetry_cell_setting           orthorhombic
_symmetry_space_group_name_H-M   'P b c a'
_symmetry_Int_Tables_number      61
_space_group_name_Hall           '-P 2ac 2ab'
loop_
_symmetry_equiv_pos_site_id
_symmetry_equiv_pos_as_xyz
1 x,y,z
2 1/2-x,-y,1/2+z
3 -x,1/2+y,1/2-z
4 1/2+x,1/2-y,-z
5 -x,-y,-z
6 1/2+x,y,1/2-z
7 x,1/2-y,1/2+z
8 1/2-x,1/2+y,z
_cell_length_a                   7.736(2)
_cell_length_b                   10.285(3)
_cell_length_c                   18.309(6)
_cell_angle_alpha                90
_cell_angle_beta                 90
_cell_angle_gamma                90
_cell_volume                     1456.75
loop_
_atom_site_label
_atom_site_type_symbol
_atom_site_fract_x
_atom_site_fract_y
_atom_site_fract_z
Pb1 Pb 0.49173(6) -0.20240(5) 0.48157(4)
O1 O 0.8058(9) -0.1209(7) 0.4462(5)
O2 O 0.8190(10) 0.0911(7) 0.4752(5)
O3 O 0.8406(11) 0.2181(7) 0.0975(6)
O4 O 0.9715(10) 0.0309(9) 0.0813(5)
C1 C 0.8285(13) -0.0009(11) 0.4310(7)
C2 C 0.8585(12) 0.0305(10) 0.3525(8)
C3 C 0.8003(14) 0.1477(9) 0.3218(8)
H1 H 0.7541 0.2110 0.3523
C4 C 0.9345(15) -0.0597(11) 0.3042(8)
H2 H 0.9781 -0.1377 0.3222
C5 C 0.9446(16) -0.0335(12) 0.2312(9)
H3 H 0.9977 -0.0935 0.2005
C6 C 0.8093(16) 0.1715(11) 0.2485(8)
H4 H 0.7688 0.2503 0.2304
C7 C 0.8769(14) 0.0816(10) 0.2010(9)
C8 C 0.8937(14) 0.1098(11) 0.1223(8)
Pb1A Pb 1.00827(6) 0.20240(5) -0.01843(4)
Pb1C Pb 0.99173(6) -0.29760(5) 0.51843(4)
Pb1D Pb 0.50827(6) 0.20240(5) 0.51843(4)
Pb1E Pb 0.99173(6) -0.20240(5) 0.01843(4)
Pb1G Pb 1.00827(6) 0.29760(5) 0.48157(4)
O1C O 0.3058(9) -0.3791(7) 0.5538(5)
O2D O 0.1810(10) -0.0911(7) 0.5248(5)
O2G O 0.6810(10) -0.4089(7) 0.4752(5)
O3A O 0.6594(11) -0.2181(7) 0.5975(6)
O4A O 0.5285(10) -0.0309(9) 0.5813(5)
O4E O 0.4715(10) 0.0309(9) 0.4187(5)
loop_
_geom_bond_atom_site_label_1
_geom_bond_atom_site_label_2
_geom_bond_site_symmetry_1
_geom_bond_site_symmetry_2
Pb1 O1 1_555 1_555
O1 C1 1_555 1_555
O2 C1 1_555 1_555
O3 C8 1_555 1_555
O4 C8 1_555 1_555
C1 C2 1_555 1_555
C2 C3 1_555 1_555
C3 H1 1_555 1_555
C4 C2 1_555 1_555
H2 C4 1_555 1_555
C5 C4 1_555 1_555
H3 C5 1_555 1_555
C6 C3 1_555 1_555
H4 C6 1_555 1_555
C7 C5 1_555 1_555
C8 C7 1_555 1_555
Pb1A O3 1_555 1_555
Pb1C O1 1_555 1_555
Pb1D O2 1_555 1_555
Pb1E O4 1_555 1_555
Pb1G O2 1_555 1_555
O1C Pb1 1_555 1_555
O2D Pb1 1_555 1_555
O2G Pb1 1_555 1_555
O3A Pb1 1_555 1_555
O4A Pb1 1_555 1_555
O4E Pb1 1_555 1_555
O4 Pb1A 1_555 1_555
C6 C7 1_555 1_555
Pb1C O2G 1_555 1_555
Pb1D O4A 1_555 1_555
Pb1D O4E 1_555 1_555

#END
