
#######################################################################
#
#                 Cambridge Crystallographic Data Centre
#                                CCDC 
#
#######################################################################
#
# If this CIF has been generated from an entry in the Cambridge 
# Structural Database, then it will include bibliographic, chemical, 
# crystal, experimental, refinement or atomic coordinate data resulting 
# from the CCDC's data processing and validation procedures.
#
#######################################################################

data_RUBZIY
_symmetry_cell_setting           orthorhombic
_symmetry_space_group_name_H-M   'P b c a'
_symmetry_Int_Tables_number      61
_space_group_name_Hall           '-P 2ac 2ab'
loop_
_symmetry_equiv_pos_site_id
_symmetry_equiv_pos_as_xyz
1 x,y,z
2 1/2-x,-y,1/2+z
3 -x,1/2+y,1/2-z
4 1/2+x,1/2-y,-z
5 -x,-y,-z
6 1/2+x,y,1/2-z
7 x,1/2-y,1/2+z
8 1/2-x,1/2+y,z
_cell_length_a                   7.7153(6)
_cell_length_b                   10.2830(9)
_cell_length_c                   18.2997(15)
_cell_angle_alpha                90
_cell_angle_beta                 90
_cell_angle_gamma                90
_cell_volume                     1451.83
loop_
_atom_site_label
_atom_site_type_symbol
_atom_site_fract_x
_atom_site_fract_y
_atom_site_fract_z
Pb1 Pb -0.00683(4) 0.20266(3) 0.01836(2)
O1 O 0.1815(8) 0.4084(6) 0.0247(4)
O2 O 0.1940(8) 0.6211(6) 0.0530(4)
O3 O 0.1588(9) 0.2830(6) 0.4019(4)
O4 O 0.0273(8) 0.4688(6) 0.4195(4)
C1 C 0.1405(12) 0.4695(9) 0.1476(6)
C2 C 0.1982(12) 0.3520(8) 0.1776(6)
H1 H 0.2412 0.2875 0.1469
C3 C 0.1925(12) 0.3301(9) 0.2519(6)
H2 H 0.2381 0.2534 0.2707
C4 C 0.1211(12) 0.4192(9) 0.2982(6)
C5 C 0.0535(12) 0.5342(9) 0.2687(6)
H3 H 0.0009 0.5945 0.2994
C6 C 0.0636(13) 0.5596(10) 0.1939(7)
H4 H 0.0191 0.6367 0.1751
C7 C 0.1069(12) 0.3889(10) 0.3772(6)
C8 C 0.1721(13) 0.5016(9) 0.0691(6)
Pb1D Pb 0.00683(4) 0.79734(3) -0.01836(2)
Pb1G Pb 0.50683(4) 0.70266(3) 0.01836(2)
Pb1F Pb -0.00683(4) 0.29734(3) 0.51836(2)
Pb1B Pb 0.00683(4) 0.70266(3) 0.48164(2)
O2D O -0.1940(8) 0.3789(6) -0.0530(4)
O2G O 0.3060(8) 0.1211(6) 0.0530(4)
O3F O 0.1588(9) 0.2170(6) -0.0981(4)
O4B O -0.0273(8) -0.0312(6) 0.0805(4)
O4F O 0.0273(8) 0.0312(6) -0.0805(4)
loop_
_geom_bond_atom_site_label_1
_geom_bond_atom_site_label_2
_geom_bond_site_symmetry_1
_geom_bond_site_symmetry_2
Pb1 O1 1_555 1_555
O1 C8 1_555 1_555
O2 C8 1_555 1_555
O3 C7 1_555 1_555
O4 C7 1_555 1_555
C1 C2 1_555 1_555
C2 H1 1_555 1_555
C3 C2 1_555 1_555
H2 C3 1_555 1_555
C4 C3 1_555 1_555
C5 C4 1_555 1_555
H3 C5 1_555 1_555
C6 C1 1_555 1_555
H4 C6 1_555 1_555
C7 C4 1_555 1_555
C8 C1 1_555 1_555
Pb1D O2 1_555 1_555
Pb1G O2 1_555 1_555
Pb1F O3 1_555 1_555
Pb1B O4 1_555 1_555
O2D Pb1 1_555 1_555
O2G Pb1 1_555 1_555
O3F Pb1 1_555 1_555
O4B Pb1 1_555 1_555
O4F Pb1 1_555 1_555
O4 Pb1F 1_555 1_555
C5 C6 1_555 1_555

#END
