
#######################################################################
#
#                 Cambridge Crystallographic Data Centre
#                                CCDC 
#
#######################################################################
#
# If this CIF has been generated from an entry in the Cambridge 
# Structural Database, then it will include bibliographic, chemical, 
# crystal, experimental, refinement or atomic coordinate data resulting 
# from the CCDC's data processing and validation procedures.
#
#######################################################################

data_RUCCUO
_symmetry_cell_setting           orthorhombic
_symmetry_space_group_name_H-M   'P b c a'
_symmetry_Int_Tables_number      61
_space_group_name_Hall           '-P 2ac 2ab'
loop_
_symmetry_equiv_pos_site_id
_symmetry_equiv_pos_as_xyz
1 x,y,z
2 1/2-x,-y,1/2+z
3 -x,1/2+y,1/2-z
4 1/2+x,1/2-y,-z
5 -x,-y,-z
6 1/2+x,y,1/2-z
7 x,1/2-y,1/2+z
8 1/2-x,1/2+y,z
_cell_length_a                   16.602(5)
_cell_length_b                   14.728(4)
_cell_length_c                   18.757(5)
_cell_angle_alpha                90
_cell_angle_beta                 90
_cell_angle_gamma                90
_cell_volume                     4586.35
loop_
_atom_site_label
_atom_site_type_symbol
_atom_site_fract_x
_atom_site_fract_y
_atom_site_fract_z
Zn1 Zn 0.91328(4) 0.26096(5) 0.53985(4)
C1 C 0.8349(4) 0.2958(4) 0.4268(3)
C2 C 0.7762(4) 0.3141(4) 0.3691(3)
H1 H 0.7873 0.3610 0.3373
C3 C 0.7096(4) 0.2678(4) 0.3604(3)
H2 H 0.7024 0.2177 0.3900
C4 C 0.6446(4) 0.2868(4) 0.3087(3)
C5 C 0.5779(4) 0.2286(4) 0.3058(3)
H3 H 0.5765 0.1774 0.3349
C6 C 0.5146(4) 0.2460(4) 0.2608(3)
H4 H 0.4714 0.2058 0.2591
C7 C 0.6427(3) 0.3639(4) 0.2663(3)
H5 H 0.6855 0.4045 0.2683
C8 C 0.5140(4) 0.3204(4) 0.2189(3)
H6 H 0.4706 0.3308 0.1886
C9 C 0.5785(4) 0.3822(4) 0.2208(3)
C10 C 0.5759(4) 0.4645(4) 0.1761(3)
H7 H 0.5314 0.4694 0.1463
C11 C 0.6256(4) 0.5294(5) 0.1727(4)
H8 H 0.6709 0.5267 0.2017
C12 C 0.6162(5) 0.6111(5) 0.1244(4)
C13 C 0.8605(4) 0.1150(5) 0.6504(4)
H9 H 0.8152 0.1507 0.6585
C14 C 0.8678(5) 0.0348(5) 0.6887(4)
H10 H 0.8282 0.0171 0.7210
C15 C 0.9344(5) -0.0174(5) 0.6777(4)
H11 H 0.9410 -0.0714 0.7027
C16 C 0.9931(4) 0.0106(4) 0.6287(3)
C17 C 1.0636(5) -0.0404(4) 0.6144(4)
H12 H 1.0722 -0.0947 0.6385
C18 C 1.1188(4) -0.0113(5) 0.5660(4)
H13 H 1.1647 -0.0459 0.5578
C19 C 1.1074(4) 0.0723(4) 0.5271(3)
C20 C 0.9801(3) 0.0923(3) 0.5929(3)
C21 C 1.0378(3) 0.1237(3) 0.5411(3)
C22 C 1.1607(4) 0.1064(5) 0.4764(4)
H14 H 1.2072 0.0741 0.4653
C23 C 1.1453(4) 0.1870(5) 0.4427(4)
H15 H 1.1810 0.2102 0.4092
C24 C 1.0737(4) 0.2341(4) 0.4601(3)
H16 H 1.0624 0.2884 0.4368
N1 N 0.9140(3) 0.1441(3) 0.6029(3)
N2 N 1.0228(3) 0.2039(3) 0.5079(2)
O1 O 0.8951(3) 0.3453(3) 0.4329(3)
O2 O 0.8226(3) 0.2306(3) 0.4700(2)
O3 O 0.6712(4) 0.6666(4) 0.1231(4)
O4 O 0.5532(3) 0.6206(3) 0.0895(3)
Zn1A Zn 0.58672(4) 0.73904(5) 0.03985(4)
O3A O 0.8288(4) 0.3334(4) 0.6231(4)
O4A O 0.9468(3) 0.3794(3) 0.5895(3)
O5 O 0.6032(5) 0.0394(5) 0.4342(5)
H17 H 0.610(6) -0.0129(11) 0.446(4)
H18 H 0.557(3) 0.060(8) 0.444(3)
O6 O 0.7162(4) 0.0970(5) 0.5362(3)
H19 H 0.688(6) 0.070(7) 0.504(4)
H20 H 0.746(5) 0.135(6) 0.514(4)
O7 O 0.7200(14) 0.0481(14) 0.3233(12)
loop_
_geom_bond_atom_site_label_1
_geom_bond_atom_site_label_2
_geom_bond_site_symmetry_1
_geom_bond_site_symmetry_2
Zn1 N1 1_555 1_555
C1 C2 1_555 1_555
C2 H1 1_555 1_555
C3 C2 1_555 1_555
H2 C3 1_555 1_555
C4 C3 1_555 1_555
C5 C4 1_555 1_555
H3 C5 1_555 1_555
C6 C5 1_555 1_555
H4 C6 1_555 1_555
C7 C4 1_555 1_555
H5 C7 1_555 1_555
C8 C6 1_555 1_555
H6 C8 1_555 1_555
C9 C7 1_555 1_555
C10 C9 1_555 1_555
H7 C10 1_555 1_555
C11 C10 1_555 1_555
H8 C11 1_555 1_555
C12 C11 1_555 1_555
C13 H9 1_555 1_555
C14 C13 1_555 1_555
H10 C14 1_555 1_555
C15 C14 1_555 1_555
H11 C15 1_555 1_555
C16 C15 1_555 1_555
C17 C16 1_555 1_555
H12 C17 1_555 1_555
C18 C17 1_555 1_555
H13 C18 1_555 1_555
C19 C18 1_555 1_555
C20 C16 1_555 1_555
C21 C19 1_555 1_555
C22 C19 1_555 1_555
H14 C22 1_555 1_555
C23 C22 1_555 1_555
H15 C23 1_555 1_555
C24 C23 1_555 1_555
H16 C24 1_555 1_555
N1 C13 1_555 1_555
N2 Zn1 1_555 1_555
O1 Zn1 1_555 1_555
O2 Zn1 1_555 1_555
O3 C12 1_555 1_555
O4 C12 1_555 1_555
O5 H17 1_555 1_555
H18 O5 1_555 1_555
O6 H19 1_555 1_555
H20 O6 1_555 1_555
Zn1A O3 1_555 1_555
O3A Zn1 1_555 1_555
O4A Zn1 1_555 1_555
C1 O1 1_555 1_555
C1 O2 1_555 1_555
C8 C9 1_555 1_555
C20 C21 1_555 1_555
C20 N1 1_555 1_555
C21 N2 1_555 1_555
C24 N2 1_555 1_555
O4 Zn1A 1_555 1_555

#END
