
#######################################################################
#
#                 Cambridge Crystallographic Data Centre
#                                CCDC 
#
#######################################################################
#
# If this CIF has been generated from an entry in the Cambridge 
# Structural Database, then it will include bibliographic, chemical, 
# crystal, experimental, refinement or atomic coordinate data resulting 
# from the CCDC's data processing and validation procedures.
#
#######################################################################

data_RUCCOI
_symmetry_cell_setting           triclinic
_symmetry_space_group_name_H-M   'P -1'
_symmetry_Int_Tables_number      2
_space_group_name_Hall           '-P 1'
loop_
_symmetry_equiv_pos_site_id
_symmetry_equiv_pos_as_xyz
1 x,y,z
2 -x,-y,-z
_cell_length_a                   10.631(2)
_cell_length_b                   11.318(2)
_cell_length_c                   13.004(3)
_cell_angle_alpha                109.31(3)
_cell_angle_beta                 111.39(3)
_cell_angle_gamma                99.49(3)
_cell_volume                     1300.35
loop_
_atom_site_label
_atom_site_type_symbol
_atom_site_fract_x
_atom_site_fract_y
_atom_site_fract_z
Mn1 Mn 0.65005(5) 0.32661(4) 0.35871(4)
O1 O 0.4936(2) 0.3810(2) 0.24026(19)
O2 O 0.5954(2) 0.4369(3) 0.1332(2)
O3 O 0.7299(2) 0.51329(19) 0.50846(18)
O4 O 0.9519(2) 0.5323(2) 0.6236(2)
O5 O 0.8211(2) 0.2755(2) 0.4788(2)
H1 H 0.889(3) 0.349(2) 0.513(4)
H2 H 0.854(4) 0.213(2) 0.458(4)
O6 O 0.7666(2) 0.3394(2) 0.2552(2)
H3 H 0.722(3) 0.377(3) 0.215(3)
H4 H 0.8540(19) 0.379(3) 0.289(3)
C1 C 0.4963(3) 0.4228(3) 0.1621(3)
C2 C 0.3700(3) 0.4559(3) 0.0965(3)
H5 H 0.3679 0.4787 0.0335
C3 C 0.2616(3) 0.4550(3) 0.1219(3)
H6 H 0.2689 0.4360 0.1878
C4 C 0.1297(3) 0.4802(3) 0.0589(3)
C5 C 0.0971(3) 0.4983(3) -0.0465(3)
H7 H 0.1621 0.4979 -0.0787
C6 C 0.0303(3) 0.4831(3) 0.1051(3)
H8 H 0.0501 0.4723 0.1767
C7 C 0.8654(3) 0.9223(3) 0.9077(3)
H9 H 0.7739 0.8700 0.8463
C8 C 0.8836(3) 1.0354(3) 1.0011(3)
H10 H 0.8041 1.0597 1.0009
C9 C 0.9817(3) 0.8847(3) 0.9033(3)
C10 C 0.9682(3) 0.7686(3) 0.8028(3)
H11 H 1.0495 0.7434 0.8145
C11 C 0.8552(3) 0.6951(3) 0.6976(3)
H12 H 0.7744 0.7214 0.6815
C12 C 0.8476(3) 0.5732(3) 0.6027(2)
C13 C 0.5829(4) 0.0308(3) 0.1578(3)
H13 H 0.6416 0.0755 0.1349
C14 C 0.5297(5) -0.1067(4) 0.0982(3)
H14 H 0.5509 -0.1521 0.0360
C15 C 0.4465(4) -0.1729(3) 0.1321(4)
H15 H 0.4099 -0.2649 0.0929
C16 C 0.4149(4) -0.1047(3) 0.2256(3)
C17 C 0.4732(3) 0.0349(3) 0.2799(3)
C18 C 0.3316(4) -0.1647(4) 0.2697(4)
H16 H 0.2929 -0.2565 0.2338
C19 C 0.3064(4) -0.0948(4) 0.3607(4)
H17 H 0.2531 -0.1382 0.3883
C20 C 0.3612(4) 0.0468(3) 0.4160(3)
C21 C 0.4451(3) 0.1113(3) 0.3770(3)
C22 C 0.3359(4) 0.1260(4) 0.5103(4)
H18 H 0.2790 0.0872 0.5380
C23 C 0.3948(4) 0.2595(4) 0.5607(3)
H19 H 0.3793 0.3129 0.6235
C24 C 0.4782(3) 0.3154(3) 0.5175(3)
H20 H 0.5182 0.4071 0.5531
N1 N 0.5551(3) 0.1010(2) 0.2443(2)
N2 N 0.5040(3) 0.2451(2) 0.4283(2)
Mn1A Mn -0.65005(5) 0.67339(4) -0.35871(4)
Mn1A_2 Mn 1.34995(5) 1.67339(4) 1.64129(4)
O1A O -0.4936(2) 0.6190(2) -0.24026(19)
O2A O -0.5954(2) 0.5631(3) -0.1332(2)
O3A O 1.2701(2) 1.48671(19) 1.49154(18)
O3A_2 O -0.7299(2) 0.48671(19) -0.50846(18)
O4A O 1.0481(2) 1.4677(2) 1.3764(2)
O5A O -0.8211(2) 0.7245(2) -0.4788(2)
H1A H -0.889(3) 0.651(2) -0.513(4)
H2A H -0.854(4) 0.787(2) -0.458(4)
O6A O -0.7666(2) 0.6606(2) -0.2552(2)
H3A H -0.722(3) 0.623(3) -0.215(3)
H4A H -0.8540(19) 0.621(3) -0.289(3)
C1A C -0.4963(3) 0.5772(3) -0.1621(3)
C2A C -0.3700(3) 0.5441(3) -0.0965(3)
H5A H -0.3679 0.5213 -0.0335
C3A C -0.2616(3) 0.5450(3) -0.1219(3)
H6A H -0.2689 0.5640 -0.1878
C4A C -0.1297(3) 0.5198(3) -0.0589(3)
C5A C -0.0971(3) 0.5017(3) 0.0465(3)
H7A H -0.1621 0.5021 0.0787
C6A C -0.0303(3) 0.5169(3) -0.1051(3)
H8A H -0.0501 0.5277 -0.1767
C7A C 1.1346(3) 1.0777(3) 1.0923(3)
H9A H 1.2261 1.1300 1.1537
C8A C 1.1164(3) 0.9646(3) 0.9989(3)
H10A H 1.1959 0.9403 0.9991
C9A C 1.0183(3) 1.1153(3) 1.0967(3)
C10A C 1.0318(3) 1.2314(3) 1.1972(3)
H11A H 0.9505 1.2566 1.1855
C11A C 1.1448(3) 1.3049(3) 1.3024(3)
H12A H 1.2256 1.2786 1.3185
C12A C 1.1524(3) 1.4268(3) 1.3973(2)
C13A C -0.5829(4) 0.9692(3) -0.1578(3)
H13A H -0.6416 0.9245 -0.1349
C14A C -0.5297(5) 1.1067(4) -0.0982(3)
H14A H -0.5509 1.1521 -0.0360
C15A C -0.4465(4) 1.1729(3) -0.1321(4)
H15A H -0.4099 1.2649 -0.0929
C16A C -0.4149(4) 1.1047(3) -0.2256(3)
C17A C -0.4732(3) 0.9651(3) -0.2799(3)
C18A C -0.3316(4) 1.1647(4) -0.2697(4)
H16A H -0.2929 1.2565 -0.2338
C19A C -0.3064(4) 1.0948(4) -0.3607(4)
H17A H -0.2531 1.1382 -0.3883
C20A C -0.3612(4) 0.9532(3) -0.4160(3)
C21A C -0.4451(3) 0.8887(3) -0.3770(3)
C22A C -0.3359(4) 0.8740(4) -0.5103(4)
H18A H -0.2790 0.9128 -0.5380
C23A C -0.3948(4) 0.7405(4) -0.5607(3)
H19A H -0.3793 0.6871 -0.6235
C24A C -0.4782(3) 0.6846(3) -0.5175(3)
H20A H -0.5182 0.5929 -0.5531
N1A N -0.5551(3) 0.8990(2) -0.2443(2)
N2A N -0.5040(3) 0.7549(2) -0.4283(2)
O7 O 0.1254(4) -0.0424(3) 0.5910(3)
C25 C 0.0535(6) 0.1564(4) 0.8222(5)
H21 H 0.0099 0.0784 0.8271
H22 H -0.0145 0.2017 0.8034
H23 H 0.1346 0.2138 0.8991
C26 C 0.1649(7) 0.2248(4) 0.7101(5)
H24 H 0.1927 0.1897 0.6468
H25 H 0.2479 0.2853 0.7843
H26 H 0.0989 0.2705 0.6863
C27 C 0.0853(4) -0.0039(4) 0.6662(4)
H27 H 0.0396 -0.0677 0.6826
N3 N 0.0988(3) 0.1198(3) 0.7288(3)
loop_
_geom_bond_atom_site_label_1
_geom_bond_atom_site_label_2
_geom_bond_site_symmetry_1
_geom_bond_site_symmetry_2
Mn1 O1 1_555 1_555
O1 C1 1_555 1_555
O2 C1 1_555 1_555
O3 Mn1 1_555 1_555
O4 C12 1_555 1_555
O5 Mn1 1_555 1_555
H1 O5 1_555 1_555
H2 O5 1_555 1_555
O6 Mn1 1_555 1_555
H3 O6 1_555 1_555
H4 O6 1_555 1_555
O7 C27 1_555 1_555
C1 C2 1_555 1_555
C2 H5 1_555 1_555
C3 C2 1_555 1_555
H6 C3 1_555 1_555
C4 C3 1_555 1_555
C5 C4 1_555 1_555
H7 C5 1_555 1_555
C6 C4 1_555 1_555
H8 C6 1_555 1_555
C7 H9 1_555 1_555
C8 C7 1_555 1_555
H10 C8 1_555 1_555
C9 C7 1_555 1_555
C10 C9 1_555 1_555
H11 C10 1_555 1_555
C11 C10 1_555 1_555
H12 C11 1_555 1_555
C12 O3 1_555 1_555
C13 H13 1_555 1_555
C14 C13 1_555 1_555
H14 C14 1_555 1_555
C15 C14 1_555 1_555
H15 C15 1_555 1_555
C16 C15 1_555 1_555
C17 C16 1_555 1_555
C18 C16 1_555 1_555
H16 C18 1_555 1_555
C19 C18 1_555 1_555
H17 C19 1_555 1_555
C20 C19 1_555 1_555
C21 C17 1_555 1_555
C22 C20 1_555 1_555
H18 C22 1_555 1_555
C23 C22 1_555 1_555
H19 C23 1_555 1_555
C24 C23 1_555 1_555
H20 C24 1_555 1_555
C25 H21 1_555 1_555
H22 C25 1_555 1_555
H23 C25 1_555 1_555
C26 H24 1_555 1_555
H25 C26 1_555 1_555
H26 C26 1_555 1_555
C27 H27 1_555 1_555
N1 Mn1 1_555 1_555
N2 Mn1 1_555 1_555
N3 C25 1_555 1_555
Mn1A O1A 1_555 1_555
Mn1A_2 O3A 1_555 1_555
O1A C1A 1_555 1_555
O2A C1A 1_555 1_555
O3A C12A 1_555 1_555
O3A_2 Mn1A 1_555 1_555
O4A C12A 1_555 1_555
O5A Mn1A 1_555 1_555
H1A O5A 1_555 1_555
H2A O5A 1_555 1_555
O6A Mn1A 1_555 1_555
H3A O6A 1_555 1_555
H4A O6A 1_555 1_555
C1A C2A 1_555 1_555
C2A H5A 1_555 1_555
C3A C2A 1_555 1_555
H6A C3A 1_555 1_555
C4A C3A 1_555 1_555
C5A C6 1_555 1_555
H7A C5A 1_555 1_555
C6A C5 1_555 1_555
H8A C6A 1_555 1_555
C7A H9A 1_555 1_555
C8A C9 1_555 1_555
H10A C8A 1_555 1_555
C9A C8 1_555 1_555
C10A C9A 1_555 1_555
H11A C10A 1_555 1_555
C11A C10A 1_555 1_555
H12A C11A 1_555 1_555
C12A C11A 1_555 1_555
C13A H13A 1_555 1_555
C14A C13A 1_555 1_555
H14A C14A 1_555 1_555
C15A C14A 1_555 1_555
H15A C15A 1_555 1_555
C16A C15A 1_555 1_555
C17A C16A 1_555 1_555
C18A C16A 1_555 1_555
H16A C18A 1_555 1_555
C19A C18A 1_555 1_555
H17A C19A 1_555 1_555
C20A C19A 1_555 1_555
C21A C17A 1_555 1_555
C22A C20A 1_555 1_555
H18A C22A 1_555 1_555
C23A C22A 1_555 1_555
H19A C23A 1_555 1_555
C24A C23A 1_555 1_555
H20A C24A 1_555 1_555
N1A Mn1A 1_555 1_555
N2A Mn1A 1_555 1_555
C11 C12 1_555 1_555
C13 N1 1_555 1_555
C17 N1 1_555 1_555
C20 C21 1_555 1_555
C21 N2 1_555 1_555
C24 N2 1_555 1_555
C26 N3 1_555 1_555
C27 N3 1_555 1_555
C4A C5A 1_555 1_555
C4A C6A 1_555 1_555
C7A C8A 1_555 1_555
C7A C9A 1_555 1_555
C13A N1A 1_555 1_555
C17A N1A 1_555 1_555
C20A C21A 1_555 1_555
C21A N2A 1_555 1_555
C24A N2A 1_555 1_555

#END
