
#######################################################################
#
#                 Cambridge Crystallographic Data Centre
#                                CCDC 
#
#######################################################################
#
# If this CIF has been generated from an entry in the Cambridge 
# Structural Database, then it will include bibliographic, chemical, 
# crystal, experimental, refinement or atomic coordinate data resulting 
# from the CCDC's data processing and validation procedures.
#
#######################################################################

data_RUCCIC
_symmetry_cell_setting           orthorhombic
_symmetry_space_group_name_H-M   'P c a 21'
_symmetry_Int_Tables_number      29
_space_group_name_Hall           'P 2c -2ac'
loop_
_symmetry_equiv_pos_site_id
_symmetry_equiv_pos_as_xyz
1 x,y,z
2 -x,-y,1/2+z
3 1/2+x,-y,z
4 1/2-x,y,1/2+z
_cell_length_a                   9.5932(11)
_cell_length_b                   9.8128(11)
_cell_length_c                   38.681(4)
_cell_angle_alpha                90
_cell_angle_beta                 90
_cell_angle_gamma                90
_cell_volume                     3641.28
loop_
_atom_site_label
_atom_site_type_symbol
_atom_site_fract_x
_atom_site_fract_y
_atom_site_fract_z
Zn1 Zn 0.14525(13) 0.65293(12) 0.14166(4)
Zn2 Zn 0.09941(13) -0.15069(13) 0.48202(4)
C1 C 0.3826(13) 0.4932(10) 0.1266(5)
H1 H 0.3960 0.5167 0.1497
C2 C -0.1645(12) 0.0117(13) 0.4946(5)
H2 H -0.1915 -0.0233 0.4732
C3 C 0.2152(15) 0.5623(11) 0.2050(4)
C4 C 0.231(3) 0.4905(16) 0.2390(8)
H3 H 0.3075 0.5058 0.2532
C5 C 0.124(2) 0.3980(19) 0.2485(5)
H4 H 0.0507 0.3849 0.2330
C6 C 0.121(2) 0.322(2) 0.2812(5)
C7 C 0.023(3) 0.231(2) 0.2867(5)
H5 H -0.0468 0.2180 0.2704
C8 C 0.024(3) 0.154(2) 0.3165(6)
H6 H -0.0405 0.0835 0.3188
C9 C 0.215(3) 0.344(2) 0.3066(6)
H7 H 0.2858 0.4074 0.3031
C10 C 0.209(3) 0.270(2) 0.3393(6)
H8 H 0.2717 0.2905 0.3569
C11 C 0.1193(18) 0.1777(17) 0.3440(6)
C12 C 0.1098(19) 0.096(2) 0.3773(5)
H9 H 0.1735 0.1203 0.3943
C13 C 0.035(2) 0.0067(15) 0.3848(4)
H10 H -0.0252 -0.0235 0.3677
C14 C 0.0267(16) -0.0651(15) 0.4194(4)
C15 C -0.0639(14) 0.7961(14) 0.1931(4)
H11 H -0.0901 0.7089 0.2000
C16 C -0.1260(18) 0.9034(16) 0.2116(4)
H12 H -0.1892 0.8874 0.2294
C17 C -0.0898(17) 1.0278(16) 0.2025(5)
H13 H -0.1273 1.1010 0.2147
C18 C 0.0052(12) 1.0554(13) 0.1745(4)
C19 C 0.0466(19) 1.1966(15) 0.1619(5)
H14 H 0.0016 1.2754 0.1693
C20 C 0.1493(14) 1.1985(12) 0.1402(6)
H15 H 0.1869 1.2839 0.1355
C21 C 0.2106(13) 1.0900(13) 0.1229(4)
C22 C 0.3164(14) 1.0911(13) 0.0973(4)
H16 H 0.3511 1.1745 0.0899
C23 C 0.3692(15) 0.9752(14) 0.0833(4)
H17 H 0.4394 0.9782 0.0667
C24 C 0.3144(15) 0.8522(14) 0.0946(4)
H18 H 0.3447 0.7731 0.0837
C25 C 0.1645(13) 0.9497(12) 0.1332(4)
C26 C 0.0630(13) 0.9340(13) 0.1602(4)
C27 C -0.0748(13) -0.3375(13) 0.5290(4)
H19 H -0.1153 -0.2582 0.5375
C28 C -0.120(2) -0.4619(17) 0.5427(5)
H20 H -0.1864 -0.4634 0.5604
C29 C -0.0667(15) -0.5826(17) 0.5299(5)
H21 H -0.0918 -0.6666 0.5391
C30 C 0.0277(14) -0.5727(12) 0.5021(4)
C31 C 0.0921(13) -0.6959(12) 0.4881(7)
H22 H 0.0742 -0.7821 0.4970
C32 C 0.1861(13) -0.6739(12) 0.4592(4)
H23 H 0.2179 -0.7494 0.4470
C33 C 0.2285(17) -0.5524(13) 0.4495(4)
C34 C 0.3367(18) -0.5377(18) 0.4246(4)
H24 H 0.3830 -0.6130 0.4156
C35 C 0.3698(15) -0.4080(15) 0.4144(4)
H25 H 0.4374 -0.3945 0.3975
C36 C 0.3015(15) -0.2934(14) 0.4296(4)
H26 H 0.3242 -0.2049 0.4231
C37 C 0.1738(12) -0.4416(13) 0.4643(4)
C38 C 0.0704(13) -0.4511(14) 0.4914(4)
N1 N 0.0206(11) -0.3249(11) 0.5051(3)
N2 N 0.2048(10) -0.3175(10) 0.4532(3)
N3 N 0.0264(13) 0.8013(10) 0.1673(4)
N4 N 0.2228(10) 0.8392(9) 0.1197(3)
O1 O -0.0408(10) -0.0291(8) 0.5105(3)
O2 O 0.1178(13) -0.0225(10) 0.4419(4)
O3 O -0.2332(9) 0.0926(9) 0.5094(2)
O4 O 0.2968(11) 0.6564(10) 0.2006(3)
O5 O 0.1402(13) 0.5233(10) 0.1814(4)
O6 O 0.2898(11) 0.5414(9) 0.1145(3)
O7 O -0.0544(10) -0.1590(9) 0.4235(3)
O8 O 0.4779(8) 0.4082(7) 0.1142(2)
Zn1B Zn 0.64525(13) 0.34707(12) 0.14166(4)
Zn2B Zn -0.40059(13) 0.15069(13) 0.48202(4)
O3B O 0.2668(9) -0.0926(9) 0.5094(2)
O8B O -0.0221(8) 0.5918(7) 0.1142(2)
loop_
_geom_bond_atom_site_label_1
_geom_bond_atom_site_label_2
_geom_bond_site_symmetry_1
_geom_bond_site_symmetry_2
Zn1 N3 1_555 1_555
Zn2 N1 1_555 1_555
C1 H1 1_555 1_555
C2 H2 1_555 1_555
C3 C4 1_555 1_555
C4 H3 1_555 1_555
C5 C4 1_555 1_555
H4 C5 1_555 1_555
C6 C5 1_555 1_555
C7 C6 1_555 1_555
H5 C7 1_555 1_555
C8 C7 1_555 1_555
H6 C8 1_555 1_555
C9 C6 1_555 1_555
H7 C9 1_555 1_555
C10 C9 1_555 1_555
H8 C10 1_555 1_555
C11 C8 1_555 1_555
C12 C11 1_555 1_555
H9 C12 1_555 1_555
C13 C12 1_555 1_555
H10 C13 1_555 1_555
C14 C13 1_555 1_555
C15 H11 1_555 1_555
C16 C15 1_555 1_555
H12 C16 1_555 1_555
C17 C16 1_555 1_555
H13 C17 1_555 1_555
C18 C17 1_555 1_555
C19 C18 1_555 1_555
H14 C19 1_555 1_555
C20 C19 1_555 1_555
H15 C20 1_555 1_555
C21 C20 1_555 1_555
C22 C21 1_555 1_555
H16 C22 1_555 1_555
C23 C22 1_555 1_555
H17 C23 1_555 1_555
C24 C23 1_555 1_555
H18 C24 1_555 1_555
C25 C21 1_555 1_555
C26 C18 1_555 1_555
C27 H19 1_555 1_555
C28 C27 1_555 1_555
H20 C28 1_555 1_555
C29 C28 1_555 1_555
H21 C29 1_555 1_555
C30 C29 1_555 1_555
C31 C30 1_555 1_555
H22 C31 1_555 1_555
C32 C31 1_555 1_555
H23 C32 1_555 1_555
C33 C32 1_555 1_555
C34 C33 1_555 1_555
H24 C34 1_555 1_555
C35 C34 1_555 1_555
H25 C35 1_555 1_555
C36 C35 1_555 1_555
H26 C36 1_555 1_555
C37 C33 1_555 1_555
C38 C30 1_555 1_555
N1 C27 1_555 1_555
N2 Zn2 1_555 1_555
N3 C15 1_555 1_555
N4 Zn1 1_555 1_555
O1 Zn2 1_555 1_555
O2 Zn2 1_555 1_555
O3 C2 1_555 1_555
O4 C3 1_555 1_555
O5 Zn1 1_555 1_555
O6 Zn1 1_555 1_555
O7 C14 1_555 1_555
O8 C1 1_555 1_555
Zn1B O8 1_555 1_555
Zn2B O3 1_555 1_555
O3B Zn2 1_555 1_555
O8B Zn1 1_555 1_555
C1 O6 1_555 1_555
C2 O1 1_555 1_555
C3 O5 1_555 1_555
C10 C11 1_555 1_555
C14 O2 1_555 1_555
C24 N4 1_555 1_555
C25 C26 1_555 1_555
C25 N4 1_555 1_555
C26 N3 1_555 1_555
C36 N2 1_555 1_555
C37 C38 1_555 1_555
C37 N2 1_555 1_555
C38 N1 1_555 1_555

#END
