
#######################################################################
#
#                 Cambridge Crystallographic Data Centre
#                                CCDC 
#
#######################################################################
#
# If this CIF has been generated from an entry in the Cambridge 
# Structural Database, then it will include bibliographic, chemical, 
# crystal, experimental, refinement or atomic coordinate data resulting 
# from the CCDC's data processing and validation procedures.
#
#######################################################################

data_RUCDAV
_symmetry_cell_setting           monoclinic
_symmetry_space_group_name_H-M   'C 2/c'
_symmetry_Int_Tables_number      15
_space_group_name_Hall           '-C 2yn'
loop_
_symmetry_equiv_pos_site_id
_symmetry_equiv_pos_as_xyz
1 x,y,z
2 -x,y,1/2-z
3 1/2+x,1/2+y,z
4 1/2-x,1/2+y,1/2-z
5 -x,-y,-z
6 x,-y,1/2+z
7 1/2-x,1/2-y,-z
8 1/2+x,1/2-y,1/2+z
_cell_length_a                   27.667(4)
_cell_length_b                   10.2039(15)
_cell_length_c                   15.196(2)
_cell_angle_alpha                90
_cell_angle_beta                 109.246(2)
_cell_angle_gamma                90
_cell_volume                     4050.24
loop_
_atom_site_label
_atom_site_type_symbol
_atom_site_fract_x
_atom_site_fract_y
_atom_site_fract_z
Mn1 Mn -0.059083(18) 0.00624(4) 0.62824(3)
N1 N -0.10446(11) -0.1720(3) 0.6451(2)
N2 N -0.01227(10) -0.1786(2) 0.62009(17)
O1 O -0.00357(9) 0.1347(2) 0.60929(16)
C1 C -0.03433(13) -0.2953(3) 0.6283(2)
C2 C -0.08394(13) -0.2916(3) 0.6396(2)
C3 C 0.07880(13) 0.2197(3) 0.6424(2)
H1 H 0.0695 0.2577 0.5835
C4 C 0.04121(13) 0.1347(3) 0.6666(2)
C5 C -0.01206(15) -0.4168(3) 0.6229(2)
C6 C 0.20980(12) 0.3429(3) 0.7624(2)
H2 H 0.2145 0.2932 0.8159
C7 C 0.16432(12) 0.3289(3) 0.6895(2)
C8 C 0.03253(13) -0.1827(3) 0.6067(2)
H3 H 0.0476 -0.1039 0.5993
C9 C 0.12484(12) 0.2426(3) 0.7020(2)
H4 H 0.1332 0.1986 0.7587
C10 C 0.24860(13) 0.4269(3) 0.7601(2)
C11 C -0.0856(2) -0.5316(4) 0.6362(3)
H5 H -0.1025 -0.6098 0.6380
C12 C -0.0391(2) -0.5345(4) 0.6275(3)
H6 H -0.0239 -0.6150 0.6243
C13 C -0.10971(16) -0.4096(4) 0.6427(2)
C14 C 0.05831(15) -0.2983(4) 0.6032(3)
H7 H 0.0901 -0.2960 0.5949
C15 C 0.03660(17) -0.4147(4) 0.6119(3)
H8 H 0.0537 -0.4928 0.6107
C16 C 0.29630(13) 0.4433(4) 0.8394(2)
H9 H 0.3206 0.4998 0.8304
C17 C -0.15018(16) -0.1676(4) 0.6550(3)
H10 H -0.1639 -0.0863 0.6612
O2 O 0.36108(13) 0.3675(3) 1.0758(2)
C18 C 0.19625(16) 0.4871(4) 0.6040(3)
H11 H 0.1917 0.5364 0.5503
C19 C -0.15875(19) -0.3989(5) 0.6503(3)
H12 H -0.1777 -0.4740 0.6510
C20 C 0.15824(14) 0.4021(4) 0.6086(2)
H13 H 0.1285 0.3934 0.5577
C21 C 0.24130(14) 0.4993(3) 0.6790(3)
H14 H 0.2667 0.5563 0.6751
C22 C -0.17851(19) -0.2793(5) 0.6568(4)
H15 H -0.2109 -0.2719 0.6623
C23 C 0.35758(16) 0.4126(4) 0.9981(3)
O3 O 0.39101(11) 0.4821(3) 0.9832(2)
C24 C 0.30798(14) 0.3872(4) 0.9205(3)
H16 H 0.2847 0.3288 0.9312
O4 O 0.05564(9) 0.0666(2) 0.73882(16)
Mn1A Mn 0.059083(18) 0.00624(4) 0.87176(3)
Mn1F Mn -0.440917(18) 0.49376(4) 0.37176(3)
Mn1G Mn 0.440917(18) 0.49376(4) 1.12824(3)
N1A N 0.10446(11) -0.1720(3) 0.8549(2)
N2A N 0.01227(10) -0.1786(2) 0.87991(17)
O1A O 0.00357(9) 0.1347(2) 0.89071(16)
C1A C 0.03433(13) -0.2953(3) 0.8717(2)
C2A C 0.08394(13) -0.2916(3) 0.8604(2)
C3A C -0.07880(13) 0.2197(3) 0.8576(2)
H1A H -0.0695 0.2577 0.9165
C4A C -0.04121(13) 0.1347(3) 0.8334(2)
C5A C 0.01206(15) -0.4168(3) 0.8771(2)
C6A C -0.20980(12) 0.3429(3) 0.7376(2)
H2A H -0.2145 0.2932 0.6841
C7A C -0.16432(12) 0.3289(3) 0.8105(2)
C8A C -0.03253(13) -0.1827(3) 0.8933(2)
H3A H -0.0476 -0.1039 0.9007
C9A C -0.12484(12) 0.2426(3) 0.7980(2)
H4A H -0.1332 0.1986 0.7413
C10A C -0.24860(13) 0.4269(3) 0.7399(2)
C11A C 0.0856(2) -0.5316(4) 0.8638(3)
H5A H 0.1025 -0.6098 0.8620
C12A C 0.0391(2) -0.5345(4) 0.8725(3)
H6A H 0.0239 -0.6150 0.8757
C13A C 0.10971(16) -0.4096(4) 0.8573(2)
C14A C -0.05831(15) -0.2983(4) 0.8968(3)
H7A H -0.0901 -0.2960 0.9051
C15A C -0.03660(17) -0.4147(4) 0.8881(3)
H8A H -0.0537 -0.4928 0.8893
C16A C -0.29630(13) 0.4433(4) 0.6606(2)
H9A H -0.3206 0.4998 0.6696
C17A C 0.15018(16) -0.1676(4) 0.8450(3)
H10A H 0.1639 -0.0863 0.8388
O2A O -0.36108(13) 0.3675(3) 0.4242(2)
O2F O 0.13892(13) 0.1325(3) 0.9242(2)
O2G O -0.13892(13) 0.1325(3) 0.5758(2)
C18A C -0.19625(16) 0.4871(4) 0.8960(3)
H11A H -0.1917 0.5364 0.9497
C19A C 0.15875(19) -0.3989(5) 0.8497(3)
H12A H 0.1777 -0.4740 0.8490
C20A C -0.15824(14) 0.4021(4) 0.8914(2)
H13A H -0.1285 0.3934 0.9423
C21A C -0.24130(14) 0.4993(3) 0.8210(3)
H14A H -0.2667 0.5563 0.8249
C22A C 0.17851(19) -0.2793(5) 0.8432(4)
H15A H 0.2109 -0.2719 0.8377
C23A C -0.35758(16) 0.4126(4) 0.5019(3)
O3A O -0.39101(11) 0.4821(3) 0.5168(2)
O3F O 0.10899(11) 0.0179(3) 1.0168(2)
O3G O -0.10899(11) 0.0179(3) 0.4832(2)
C24A C -0.30798(14) 0.3872(4) 0.5795(3)
H16A H -0.2847 0.3288 0.5688
O4A O -0.05564(9) 0.0666(2) 0.76118(16)
loop_
_geom_bond_atom_site_label_1
_geom_bond_atom_site_label_2
_geom_bond_site_symmetry_1
_geom_bond_site_symmetry_2
Mn1 N1 1_555 1_555
N1 C2 1_555 1_555
N2 Mn1 1_555 1_555
O1 Mn1 1_555 1_555
C1 N2 1_555 1_555
C2 C1 1_555 1_555
C3 H1 1_555 1_555
C4 O1 1_555 1_555
C5 C1 1_555 1_555
C6 H2 1_555 1_555
C7 C6 1_555 1_555
C8 N2 1_555 1_555
H3 C8 1_555 1_555
C9 C3 1_555 1_555
H4 C9 1_555 1_555
C10 C6 1_555 1_555
C11 H5 1_555 1_555
C12 C5 1_555 1_555
H6 C12 1_555 1_555
C13 C2 1_555 1_555
C14 C8 1_555 1_555
H7 C14 1_555 1_555
C15 C5 1_555 1_555
H8 C15 1_555 1_555
C16 C10 1_555 1_555
H9 C16 1_555 1_555
C17 N1 1_555 1_555
H10 C17 1_555 1_555
O2 C23 1_555 1_555
C18 H11 1_555 1_555
C19 C13 1_555 1_555
H12 C19 1_555 1_555
C20 C7 1_555 1_555
H13 C20 1_555 1_555
C21 C10 1_555 1_555
H14 C21 1_555 1_555
C22 C17 1_555 1_555
H15 C22 1_555 1_555
C23 O3 1_555 1_555
O3 Mn1G 1_555 1_555
C24 C16 1_555 1_555
H16 C24 1_555 1_555
O4 C4 1_555 1_555
Mn1A O4 1_555 1_555
Mn1F O2A 1_555 1_555
Mn1G O2 1_555 1_555
N1A Mn1A 1_555 1_555
N2A Mn1A 1_555 1_555
O1A Mn1A 1_555 1_555
C1A N2A 1_555 1_555
C2A N1A 1_555 1_555
C3A H1A 1_555 1_555
C4A O1A 1_555 1_555
C5A C1A 1_555 1_555
C6A H2A 1_555 1_555
C7A C6A 1_555 1_555
C8A N2A 1_555 1_555
H3A C8A 1_555 1_555
C9A C3A 1_555 1_555
H4A C9A 1_555 1_555
C10A C6A 1_555 1_555
C11A H5A 1_555 1_555
C12A C5A 1_555 1_555
H6A C12A 1_555 1_555
C13A C2A 1_555 1_555
C14A C8A 1_555 1_555
H7A C14A 1_555 1_555
C15A C5A 1_555 1_555
H8A C15A 1_555 1_555
C16A C10A 1_555 1_555
H9A C16A 1_555 1_555
C17A N1A 1_555 1_555
H10A C17A 1_555 1_555
O2A C23A 1_555 1_555
O2F Mn1A 1_555 1_555
O2G Mn1 1_555 1_555
C18A H11A 1_555 1_555
C19A C13A 1_555 1_555
H12A C19A 1_555 1_555
C20A C7A 1_555 1_555
H13A C20A 1_555 1_555
C21A C10A 1_555 1_555
H14A C21A 1_555 1_555
C22A C17A 1_555 1_555
H15A C22A 1_555 1_555
C23A O3A 1_555 1_555
O3A Mn1F 1_555 1_555
O3F Mn1A 1_555 1_555
O3G Mn1 1_555 1_555
C24A C16A 1_555 1_555
H16A C24A 1_555 1_555
O4A Mn1 1_555 1_555
C3 C4 1_555 1_555
C7 C9 1_555 1_555
C11 C12 1_555 1_555
C11 C13 1_555 1_555
C14 C15 1_555 1_555
C18 C20 1_555 1_555
C18 C21 1_555 1_555
C19 C22 1_555 1_555
C23 C24 1_555 1_555
C1A C2A 1_555 1_555
C3A C4A 1_555 1_555
C4A O4A 1_555 1_555
C7A C9A 1_555 1_555
C11A C12A 1_555 1_555
C11A C13A 1_555 1_555
C14A C15A 1_555 1_555
C18A C20A 1_555 1_555
C18A C21A 1_555 1_555
C19A C22A 1_555 1_555
C23A C24A 1_555 1_555

#END
