
#######################################################################
#
#                 Cambridge Crystallographic Data Centre
#                                CCDC 
#
#######################################################################
#
# If this CIF has been generated from an entry in the Cambridge 
# Structural Database, then it will include bibliographic, chemical, 
# crystal, experimental, refinement or atomic coordinate data resulting 
# from the CCDC's data processing and validation procedures.
#
#######################################################################

data_RUCKAC
_symmetry_cell_setting           monoclinic
_symmetry_space_group_name_H-M   'P 21/a'
_symmetry_Int_Tables_number      14
_space_group_name_Hall           '-P 2yab'
loop_
_symmetry_equiv_pos_site_id
_symmetry_equiv_pos_as_xyz
1 x,y,z
2 1/2-x,1/2+y,-z
3 -x,-y,-z
4 1/2+x,1/2-y,z
_cell_length_a                   7.6775(10)
_cell_length_b                   15.528(2)
_cell_length_c                   14.045(2)
_cell_angle_alpha                90
_cell_angle_beta                 96.221(10)
_cell_angle_gamma                90
_cell_volume                     1664.53
loop_
_atom_site_label
_atom_site_type_symbol
_atom_site_fract_x
_atom_site_fract_y
_atom_site_fract_z
O1 O 1.283(2) 0.3093(10) 0.2496(12)
H1 H 1.3061 0.255 0.2871
H2 H 1.3546 0.3301 0.2188
Cl1 Cl 0.8684(3) 0.42136(13) 0.16419(16)
O2 O 0.9136(9) 0.4810(4) 0.2375(4)
O3 O 0.6910(10) 0.3983(5) 0.1611(6)
O4 O 0.8994(11) 0.4601(5) 0.0763(4)
O5 O 0.9633(16) 0.3476(6) 0.1803(7)
Cu1 Cu 0.89737(12) 0.80751(5) 0.29799(6)
Cl2 Cl 0.7373(2) 0.68960(11) 0.34092(12)
N1 N 0.9300(8) 0.7631(4) 0.1720(4)
N2 N 0.9519(8) 0.6745(4) 0.0523(4)
H3 H 0.9529 0.6277 0.0196
N3 N 0.8410(7) 0.9251(4) 0.2428(4)
N4 N 0.8690(7) 0.8707(3) 0.4231(4)
C1 C 0.9248(9) 0.6814(5) 0.1437(5)
H4 H 0.9046 0.635 0.1829
C2 C 0.9779(11) 0.7556(6) 0.0202(5)
H5 H 1.0007 0.7707 -0.0414
C3 C 0.9646(10) 0.8099(5) 0.0932(5)
C4 C 0.9862(12) 0.9059(5) 0.0989(6)
H6 H 0.9904 0.9284 0.0347
H7 H 1.0972 0.9191 0.1358
C5 C 0.8418(10) 0.9506(4) 0.1438(5)
H8 H 0.8576 1.0124 0.1403
H9 H 0.7298 0.9363 0.1085
C6 C 0.7991(10) 0.9788(5) 0.3041(6)
H10 H 0.7681 1.0349 0.2864
C7 C 0.8006(9) 0.9506(4) 0.4039(6)
C8 C 0.7486(11) 1.0041(5) 0.4751(7)
H11 H 0.7045 1.0589 0.4607
C9 C 0.7647(12) 0.9734(6) 0.5671(7)
H12 H 0.7257 1.0059 0.6162
C10 C 0.8384(10) 0.8947(5) 0.5857(6)
H13 H 0.854 0.8748 0.6485
C11 C 0.8905(10) 0.8440(5) 0.5135(5)
C12 C 0.9801(10) 0.7591(5) 0.5360(5)
H14 H 1.0194 0.7357 0.4788
H15 H 0.8994 0.7198 0.5605
H16 H 1.0789 0.7676 0.5831
Cu1C Cu 0.39737(12) 0.69249(5) 0.29799(6)
Cl2C Cl 1.2373(2) 0.81040(11) 0.34092(12)
loop_
_geom_bond_atom_site_label_1
_geom_bond_atom_site_label_2
_geom_bond_site_symmetry_1
_geom_bond_site_symmetry_2
O1 H1 1_555 1_555
H2 O1 1_555 1_555
Cl1 O2 1_555 1_555
O3 Cl1 1_555 1_555
O4 Cl1 1_555 1_555
O5 Cl1 1_555 1_555
Cu1 Cl2 1_555 1_555
Cl2 Cu1C 1_555 1_555
N1 Cu1 1_555 1_555
N2 H3 1_555 1_555
N3 Cu1 1_555 1_555
N4 Cu1 1_555 1_555
C1 N1 1_555 1_555
H4 C1 1_555 1_555
C2 N2 1_555 1_555
H5 C2 1_555 1_555
C3 N1 1_555 1_555
C4 C3 1_555 1_555
H6 C4 1_555 1_555
H7 C4 1_555 1_555
C5 N3 1_555 1_555
H8 C5 1_555 1_555
H9 C5 1_555 1_555
C6 N3 1_555 1_555
H10 C6 1_555 1_555
C7 N4 1_555 1_555
C8 C7 1_555 1_555
H11 C8 1_555 1_555
C9 C8 1_555 1_555
H12 C9 1_555 1_555
C10 C9 1_555 1_555
H13 C10 1_555 1_555
C11 N4 1_555 1_555
C12 C11 1_555 1_555
H14 C12 1_555 1_555
H15 C12 1_555 1_555
H16 C12 1_555 1_555
Cl2C Cu1 1_555 1_555
N2 C1 1_555 1_555
C2 C3 1_555 1_555
C4 C5 1_555 1_555
C6 C7 1_555 1_555
C10 C11 1_555 1_555

#END
