
#######################################################################
#
#                 Cambridge Crystallographic Data Centre
#                                CCDC 
#
#######################################################################
#
# If this CIF has been generated from an entry in the Cambridge 
# Structural Database, then it will include bibliographic, chemical, 
# crystal, experimental, refinement or atomic coordinate data resulting 
# from the CCDC's data processing and validation procedures.
#
#######################################################################

data_RUCRUE
_symmetry_cell_setting           monoclinic
_symmetry_space_group_name_H-M   'C 2/c'
_symmetry_Int_Tables_number      15
_space_group_name_Hall           '-C 2yn'
loop_
_symmetry_equiv_pos_site_id
_symmetry_equiv_pos_as_xyz
1 x,y,z
2 -x,y,1/2-z
3 1/2+x,1/2+y,z
4 1/2-x,1/2+y,1/2-z
5 -x,-y,-z
6 x,-y,1/2+z
7 1/2-x,1/2-y,-z
8 1/2+x,1/2-y,1/2+z
_cell_length_a                   27.366(5)
_cell_length_b                   11.240(2)
_cell_length_c                   9.0218(18)
_cell_angle_alpha                90
_cell_angle_beta                 106.09(3)
_cell_angle_gamma                90
_cell_volume                     2666.34
loop_
_atom_site_label
_atom_site_type_symbol
_atom_site_fract_x
_atom_site_fract_y
_atom_site_fract_z
Zn1 Zn 0.0000 0.31820(5) 0.2500
Zn2 Zn -0.04893(2) 0.14418(4) 0.42518(6)
P1 P 0.06787(4) 0.11189(8) 0.42977(13)
O1 O 0.02058(11) 0.1934(2) 0.4156(3)
O2 O 0.05423(13) -0.0155(3) 0.4518(4)
O3 O 0.08676(12) 0.1260(3) 0.2883(4)
O4 O 0.22536(13) 0.5837(3) 0.3835(5)
O5 O 0.24656(14) 0.3926(3) 0.3732(5)
O6 O 0.04589(11) 0.5814(2) 0.6811(4)
O7 O 0.07469(12) 0.7022(2) 0.5251(4)
C1 C 0.11584(16) 0.1678(3) 0.5928(5)
H1 H 0.1042 0.1616 0.6847
H2 H 0.1465 0.1206 0.6086
C2 C 0.12737(15) 0.2962(3) 0.5665(5)
C3 C 0.09798(15) 0.3878(3) 0.5986(5)
H3 H 0.0728 0.3706 0.6467
C4 C 0.10553(15) 0.5061(3) 0.5599(5)
C5 C 0.14479(16) 0.5329(3) 0.4940(5)
H4 H 0.1502 0.6111 0.4687
C6 C 0.17583(16) 0.4426(4) 0.4661(5)
C7 C 0.16661(15) 0.3245(4) 0.5004(5)
H5 H 0.1868 0.2640 0.4790
C8 C 0.21942(17) 0.4671(4) 0.4028(6)
C9 C 0.07294(16) 0.6042(3) 0.5908(5)
C10 C 0.2698(2) 0.6210(6) 0.3358(9)
H6 H 0.2630 0.6961 0.2810
H7 H 0.2777 0.5620 0.2673
C11 C 0.3130(2) 0.6340(6) 0.4750(10)
H8 H 0.3427 0.6578 0.4456
H9 H 0.3194 0.5593 0.5286
H10 H 0.3051 0.6932 0.5413
Zn2A Zn 0.04893(2) 0.14418(4) 0.07482(6)
P1A P -0.06787(4) 0.11189(8) 0.07023(13)
O1A O -0.02058(11) 0.1934(2) 0.0844(3)
O2A O -0.05423(13) -0.0155(3) 0.0482(4)
O3A O -0.08676(12) 0.1260(3) 0.2117(4)
O4A O -0.22536(13) 0.5837(3) 0.1165(5)
O5A O -0.24656(14) 0.3926(3) 0.1268(5)
O6A O -0.04589(11) 0.5814(2) -0.1811(4)
O7A O -0.07469(12) 0.7022(2) -0.0251(4)
C1A C -0.11584(16) 0.1678(3) -0.0928(5)
H1A H -0.1042 0.1616 -0.1847
H2A H -0.1465 0.1206 -0.1086
C2A C -0.12737(15) 0.2962(3) -0.0665(5)
C3A C -0.09798(15) 0.3878(3) -0.0986(5)
H3A H -0.0728 0.3706 -0.1467
C4A C -0.10553(15) 0.5061(3) -0.0599(5)
C5A C -0.14479(16) 0.5329(3) 0.0060(5)
H4A H -0.1502 0.6111 0.0313
C6A C -0.17583(16) 0.4426(4) 0.0339(5)
C7A C -0.16661(15) 0.3245(4) -0.0004(5)
H5A H -0.1868 0.2640 0.0210
C8A C -0.21942(17) 0.4671(4) 0.0972(6)
C9A C -0.07294(16) 0.6042(3) -0.0908(5)
C10A C -0.2698(2) 0.6210(6) 0.1642(9)
H6A H -0.2630 0.6961 0.2190
H7A H -0.2777 0.5620 0.2327
C11A C -0.3130(2) 0.6340(6) 0.0250(10)
H8A H -0.3427 0.6578 0.0544
H9A H -0.3194 0.5593 -0.0286
H10A H -0.3051 0.6932 -0.0413
Zn1D Zn 0.0000 0.68180(5) -0.2500
Zn1D_2 Zn 0.0000 0.68180(5) 0.7500
Zn2D Zn 0.04893(2) -0.14418(4) 0.57482(6)
Zn2D_2 Zn 0.04893(2) 0.85582(4) 0.57482(6)
Zn2E Zn -0.04893(2) -0.14418(4) -0.07482(6)
Zn2E_2 Zn -0.04893(2) 0.85582(4) -0.07482(6)
O2D O -0.05423(13) 0.0155(3) 0.5482(4)
O2E O 0.05423(13) 0.0155(3) -0.0482(4)
O6D O -0.04589(11) 0.4186(2) 0.3189(4)
O6E O 0.04589(11) 0.4186(2) 0.1811(4)
O7D O -0.07469(12) 0.2978(2) 0.4749(4)
O7E O 0.07469(12) 0.2978(2) 0.0251(4)
O8 O 0.00000(12) -0.1855(2) 0.2500(4)
H11 H 0.0207 -0.1478 0.3226
H11A H -0.0207 -0.1478 0.1774
loop_
_geom_bond_atom_site_label_1
_geom_bond_atom_site_label_2
_geom_bond_site_symmetry_1
_geom_bond_site_symmetry_2
Zn1 O1 1_555 1_555
Zn2 O1 1_555 1_555
P1 O1 1_555 1_555
O2 P1 1_555 1_555
O3 P1 1_555 1_555
O4 C8 1_555 1_555
O5 C8 1_555 1_555
O6 C9 1_555 1_555
O7 C9 1_555 1_555
C1 P1 1_555 1_555
H1 C1 1_555 1_555
H2 C1 1_555 1_555
C2 C1 1_555 1_555
C3 C2 1_555 1_555
H3 C3 1_555 1_555
C4 C3 1_555 1_555
C5 C4 1_555 1_555
H4 C5 1_555 1_555
C6 C5 1_555 1_555
C7 C2 1_555 1_555
H5 C7 1_555 1_555
C8 C6 1_555 1_555
C9 C4 1_555 1_555
C10 O4 1_555 1_555
H6 C10 1_555 1_555
H7 C10 1_555 1_555
C11 C10 1_555 1_555
H8 C11 1_555 1_555
H9 C11 1_555 1_555
H10 C11 1_555 1_555
O8 H11 1_555 1_555
Zn2A O3 1_555 1_555
P1A O1A 1_555 1_555
O1A Zn1 1_555 1_555
O2A P1A 1_555 1_555
O3A Zn2 1_555 1_555
O4A C8A 1_555 1_555
O5A C8A 1_555 1_555
O6A C9A 1_555 1_555
O7A C9A 1_555 1_555
C1A P1A 1_555 1_555
H1A C1A 1_555 1_555
H2A C1A 1_555 1_555
C2A C1A 1_555 1_555
C3A C2A 1_555 1_555
H3A C3A 1_555 1_555
C4A C3A 1_555 1_555
C5A C4A 1_555 1_555
H4A C5A 1_555 1_555
C6A C5A 1_555 1_555
C7A C2A 1_555 1_555
H5A C7A 1_555 1_555
C8A C6A 1_555 1_555
C9A C4A 1_555 1_555
C10A O4A 1_555 1_555
H6A C10A 1_555 1_555
H7A C10A 1_555 1_555
C11A C10A 1_555 1_555
H8A C11A 1_555 1_555
H9A C11A 1_555 1_555
H10A C11A 1_555 1_555
Zn1D O6A 1_555 1_555
Zn1D_2 O6 1_555 1_555
Zn2D O2 1_555 1_555
Zn2D_2 O7 1_555 1_555
Zn2E O2A 1_555 1_555
Zn2E_2 O7A 1_555 1_555
O2D Zn2 1_555 1_555
O2E Zn2A 1_555 1_555
O6D Zn1 1_555 1_555
O6E Zn1 1_555 1_555
O7D Zn2 1_555 1_555
O7E Zn2A 1_555 1_555
H11A O8 1_555 1_555
C6 C7 1_555 1_555
Zn2A O1A 1_555 1_555
P1A O3A 1_555 1_555
C6A C7A 1_555 1_555

#END
