
#######################################################################
#
#                 Cambridge Crystallographic Data Centre
#                                CCDC 
#
#######################################################################
#
# If this CIF has been generated from an entry in the Cambridge 
# Structural Database, then it will include bibliographic, chemical, 
# crystal, experimental, refinement or atomic coordinate data resulting 
# from the CCDC's data processing and validation procedures.
#
#######################################################################

data_RUCSAL
_symmetry_cell_setting           monoclinic
_symmetry_space_group_name_H-M   'C 2/c'
_symmetry_Int_Tables_number      15
_space_group_name_Hall           '-C 2yn'
loop_
_symmetry_equiv_pos_site_id
_symmetry_equiv_pos_as_xyz
1 x,y,z
2 -x,y,1/2-z
3 1/2+x,1/2+y,z
4 1/2-x,1/2+y,1/2-z
5 -x,-y,-z
6 x,-y,1/2+z
7 1/2-x,1/2-y,-z
8 1/2+x,1/2-y,1/2+z
_cell_length_a                   26.313(8)
_cell_length_b                   11.377(3)
_cell_length_c                   8.873(3)
_cell_angle_alpha                90
_cell_angle_beta                 109.596(6)
_cell_angle_gamma                90
_cell_volume                     2502.4
loop_
_atom_site_label
_atom_site_type_symbol
_atom_site_fract_x
_atom_site_fract_y
_atom_site_fract_z
Zn1 Zn 0.05042(4) 1.14016(7) 0.07589(12)
Zn2 Zn 0.0000 0.31356(7) 0.2500
P1 P 0.07341(6) 0.88165(12) -0.05052(19)
O1 O 0.02242(17) 0.8062(4) -0.0752(5)
O2 O 0.0621(2) 1.0053(5) -0.0196(10)
O3 O 0.0900(2) 0.8711(6) -0.1973(6)
O4 O 0.04788(17) 0.4126(4) 0.1838(5)
O5 O 0.0775(2) 0.2932(4) 0.0322(6)
O6 O 0.23878(19) 0.4049(4) -0.0784(6)
O7 O 0.2542(2) 0.5931(4) -0.1180(8)
C1 C 0.0766(2) 0.3893(6) 0.1004(7)
C2 C 0.1111(2) 0.4859(5) 0.0717(7)
C3 C 0.1031(2) 0.6014(6) 0.1093(7)
H1 H 0.0765 0.6189 0.1530
C4 C 0.1350(2) 0.6911(5) 0.0816(6)
C5 C 0.1752(2) 0.6622(6) 0.0180(7)
H2 H 0.1964 0.7214 -0.0025
C6 C 0.1840(2) 0.5469(5) -0.0150(7)
C7 C 0.1511(2) 0.4575(6) 0.0101(8)
H3 H 0.1563 0.3799 -0.0144
C8 C 0.1249(2) 0.8179(6) 0.1149(7)
H4 H 0.1579 0.8625 0.1363
H5 H 0.1141 0.8216 0.2092
C9 C 0.2292(2) 0.5197(6) -0.0744(8)
C10 C 0.2845(4) 0.3692(8) -0.1226(13)
H6 H 0.2870 0.2850 -0.1202
H7 H 0.3168 0.4020 -0.0485
H8 H 0.2799 0.3968 -0.2285
Zn1A Zn -0.05042(4) 1.14016(7) 0.42411(12)
P1A P -0.07341(6) 0.88165(12) 0.55052(19)
O1A O -0.02242(17) 0.8062(4) 0.5752(5)
O2A O -0.0621(2) 1.0053(5) 0.5196(10)
O3A O -0.0900(2) 0.8711(6) 0.6973(6)
O4A O -0.04788(17) 0.4126(4) 0.3162(5)
O5A O -0.0775(2) 0.2932(4) 0.4678(6)
O6A O -0.23878(19) 0.4049(4) 0.5784(6)
O7A O -0.2542(2) 0.5931(4) 0.6180(8)
C1A C -0.0766(2) 0.3893(6) 0.3996(7)
C2A C -0.1111(2) 0.4859(5) 0.4283(7)
C3A C -0.1031(2) 0.6014(6) 0.3907(7)
H1A H -0.0765 0.6189 0.3470
C4A C -0.1350(2) 0.6911(5) 0.4184(6)
C5A C -0.1752(2) 0.6622(6) 0.4820(7)
H2A H -0.1964 0.7214 0.5025
C6A C -0.1840(2) 0.5469(5) 0.5150(7)
C7A C -0.1511(2) 0.4575(6) 0.4899(8)
H3A H -0.1563 0.3799 0.5144
C8A C -0.1249(2) 0.8179(6) 0.3851(7)
H4A H -0.1579 0.8625 0.3637
H5A H -0.1141 0.8216 0.2908
C9A C -0.2292(2) 0.5197(6) 0.5744(8)
C10A C -0.2845(4) 0.3692(8) 0.6226(13)
H6A H -0.2870 0.2850 0.6202
H7A H -0.3168 0.4020 0.5485
H8A H -0.2799 0.3968 0.7285
Zn1_2 Zn 0.05042(4) 0.14016(7) 0.07589(12)
Zn1A_2 Zn -0.05042(4) 0.14016(7) 0.42411(12)
Zn1D Zn -0.05042(4) 0.85984(7) -0.07589(12)
Zn1D_2 Zn -0.05042(4) 0.85984(7) 0.92411(12)
Zn1E Zn 0.05042(4) 0.85984(7) -0.42411(12)
Zn1E_2 Zn 0.05042(4) 0.85984(7) 0.57589(12)
Zn2D Zn 0.0000 0.68644(7) -0.2500
Zn2D_2 Zn 0.0000 0.68644(7) 0.7500
O1D O -0.02242(17) 0.1938(4) 0.0752(5)
O1D_2 O -0.02242(17) 1.1938(4) 0.0752(5)
O1E O 0.02242(17) 0.1938(4) 0.4248(5)
O1E_2 O 0.02242(17) 1.1938(4) 0.4248(5)
O3D O -0.0900(2) 1.1289(6) 0.1973(6)
O3E O 0.0900(2) 1.1289(6) 0.3027(6)
O5_2 O 0.0775(2) 1.2932(4) 0.0322(6)
O5A_2 O -0.0775(2) 1.2932(4) 0.4678(6)
O8 O 0.0000(2) 1.1624(4) -0.2500(8)
H9 H -0.0137 1.2020 -0.1912
H9A H 0.0137 1.2020 -0.3088
H10? H 0.0283 1.1210 -0.2105
loop_
_geom_bond_atom_site_label_1
_geom_bond_atom_site_label_2
_geom_bond_site_symmetry_1
_geom_bond_site_symmetry_2
Zn1 O2 1_555 1_555
Zn2 O4 1_555 1_555
P1 O1 1_555 1_555
O1 Zn1D 1_555 1_555
O2 P1 1_555 1_555
O3 P1 1_555 1_555
O4 C1 1_555 1_555
O5 C1 1_555 1_555
O6 C9 1_555 1_555
O7 C9 1_555 1_555
C1 C2 1_555 1_555
C2 C3 1_555 1_555
C3 H1 1_555 1_555
C4 C3 1_555 1_555
C5 C4 1_555 1_555
H2 C5 1_555 1_555
C6 C5 1_555 1_555
C7 C2 1_555 1_555
H3 C7 1_555 1_555
C8 P1 1_555 1_555
H4 C8 1_555 1_555
H5 C8 1_555 1_555
C9 C6 1_555 1_555
C10 O6 1_555 1_555
H6 C10 1_555 1_555
H7 C10 1_555 1_555
H8 C10 1_555 1_555
O8 H9 1_555 1_555
Zn1A O2A 1_555 1_555
P1A O1A 1_555 1_555
O1A Zn1E_2 1_555 1_555
O2A P1A 1_555 1_555
O3A P1A 1_555 1_555
O4A Zn2 1_555 1_555
O5A C1A 1_555 1_555
O6A C9A 1_555 1_555
O7A C9A 1_555 1_555
C1A O4A 1_555 1_555
C2A C1A 1_555 1_555
C3A C2A 1_555 1_555
H1A C3A 1_555 1_555
C4A C3A 1_555 1_555
C5A C4A 1_555 1_555
H2A C5A 1_555 1_555
C6A C5A 1_555 1_555
C7A C2A 1_555 1_555
H3A C7A 1_555 1_555
C8A P1A 1_555 1_555
H4A C8A 1_555 1_555
H5A C8A 1_555 1_555
C9A C6A 1_555 1_555
C10A O6A 1_555 1_555
H6A C10A 1_555 1_555
H7A C10A 1_555 1_555
H8A C10A 1_555 1_555
Zn1_2 O5 1_555 1_555
Zn1A_2 O5A 1_555 1_555
Zn1D_2 O3A 1_555 1_555
Zn1E O3 1_555 1_555
Zn2D O1 1_555 1_555
Zn2D_2 O1A 1_555 1_555
O1D Zn2 1_555 1_555
O1D_2 Zn1 1_555 1_555
O1E Zn2 1_555 1_555
O1E_2 Zn1A 1_555 1_555
O3D Zn1A 1_555 1_555
O3E Zn1 1_555 1_555
O5_2 Zn1 1_555 1_555
O5A_2 Zn1A 1_555 1_555
H9A O8 1_555 1_555
C4 C8 1_555 1_555
C6 C7 1_555 1_555
C4A C8A 1_555 1_555
C6A C7A 1_555 1_555
Zn1_2 O1D 1_555 1_555
Zn1A_2 O1E 1_555 1_555

#END
