
#######################################################################
#
#                 Cambridge Crystallographic Data Centre
#                                CCDC 
#
#######################################################################
#
# If this CIF has been generated from an entry in the Cambridge 
# Structural Database, then it will include bibliographic, chemical, 
# crystal, experimental, refinement or atomic coordinate data resulting 
# from the CCDC's data processing and validation procedures.
#
#######################################################################

data_RUCTEQ
_symmetry_cell_setting           orthorhombic
_symmetry_space_group_name_H-M   'P 21 21 21'
_symmetry_Int_Tables_number      19
_space_group_name_Hall           'P 2ac 2ab'
loop_
_symmetry_equiv_pos_site_id
_symmetry_equiv_pos_as_xyz
1 x,y,z
2 1/2-x,-y,1/2+z
3 -x,1/2+y,1/2-z
4 1/2+x,1/2-y,-z
_cell_length_a                   6.3906(3)
_cell_length_b                   7.7434(3)
_cell_length_c                   38.9797(17)
_cell_angle_alpha                90
_cell_angle_beta                 90
_cell_angle_gamma                90
_cell_volume                     1928.91
loop_
_atom_site_label
_atom_site_type_symbol
_atom_site_fract_x
_atom_site_fract_y
_atom_site_fract_z
K1 K -0.18248(5) 0.39118(4) 0.263457(8)
F1 F -0.20278(15) 0.03806(10) 0.26071(2)
F2 F -0.49012(14) -0.12188(13) 0.27585(2)
F3 F -0.19029(16) -0.25586(10) 0.25755(2)
O1 O -0.10655(18) 0.33542(13) 0.32867(3)
N1 N 0.1624(2) 0.31281(16) 0.36568(4)
H1 H 0.217(3) 0.255(2) 0.3817(5)
B1 B -0.2700(3) -0.1154(2) 0.27793(5)
C1 C -0.0128(2) 0.25149(17) 0.35074(4)
C2 C -0.0875(2) 0.07416(18) 0.36430(4)
C3 C -0.2734(2) 0.00618(19) 0.34216(4)
H2 H -0.339(3) 0.102(2) 0.3310(5)
H3 H -0.378(3) -0.043(2) 0.3579(5)
C4 C -0.1826(2) -0.12693(17) 0.31628(4)
H4 H -0.210(3) -0.243(2) 0.3251(5)
C5 C 0.0549(2) -0.10346(19) 0.31968(4)
H5 H 0.135(3) -0.203(2) 0.3127(4)
H6 H 0.107(3) -0.007(2) 0.3049(5)
C6 C 0.0858(3) -0.06142(18) 0.35755(4)
H7 H 0.236(3) -0.018(2) 0.3648(4)
H8 H 0.050(3) -0.166(2) 0.3715(4)
C7 C -0.1413(2) 0.10134(18) 0.40195(4)
C8 C -0.0145(3) 0.04157(19) 0.42857(4)
H9 H 0.106(3) -0.022(2) 0.4233(4)
C9 C -0.0660(3) 0.0744(2) 0.46270(4)
H10 H 0.018(3) 0.028(2) 0.4796(5)
C10 C -0.2435(3) 0.1680(2) 0.47082(5)
H11 H -0.283(4) 0.197(3) 0.4955(6)
C11 C -0.3706(3) 0.2301(2) 0.44464(5)
H12 H -0.494(3) 0.300(3) 0.4504(5)
C12 C -0.3197(3) 0.19629(19) 0.41066(4)
H13 H -0.407(3) 0.239(2) 0.3921(5)
C13 C 0.2370(3) 0.4894(2) 0.36016(4)
H14 H 0.120(3) 0.551(2) 0.3523(5)
C14 C 0.3027(3) 0.56300(18) 0.39464(4)
C15 C 0.1627(3) 0.5503(2) 0.42216(5)
H15 H 0.030(3) 0.493(3) 0.4193(5)
C16 C 0.2115(4) 0.6200(3) 0.45393(5)
H16 H 0.103(4) 0.604(3) 0.4736(7)
C17 C 0.4001(5) 0.7048(3) 0.45848(6)
H17 H 0.429(4) 0.759(3) 0.4796(7)
C18 C 0.5385(4) 0.7184(3) 0.43187(7)
H18 H 0.670(5) 0.777(3) 0.4349(8)
C19 C 0.4928(3) 0.6460(2) 0.39982(5)
H19 H 0.592(4) 0.656(3) 0.3807(6)
C20 C 0.3996(3) 0.4961(2) 0.33173(5)
H20 H 0.532(3) 0.430(2) 0.3376(5)
H21 H 0.437(3) 0.622(3) 0.3265(5)
H22 H 0.340(3) 0.441(3) 0.3091(6)
K1_2 K -0.18248(5) -0.60882(4) 0.263457(8)
K1B K -0.81752(5) -0.10882(4) 0.236543(8)
K1B_2 K 0.18248(5) -0.10882(4) 0.236543(8)
F1B F 0.20278(15) 0.53806(10) 0.23929(2)
F2B F -0.50988(14) 0.37812(13) 0.22415(2)
F3_2 F -0.19029(16) 0.74414(10) 0.25755(2)
F3B F 0.19029(16) 0.24414(10) 0.24245(2)
loop_
_geom_bond_atom_site_label_1
_geom_bond_atom_site_label_2
_geom_bond_site_symmetry_1
_geom_bond_site_symmetry_2
K1 F1 1_555 1_555
F1 B1 1_555 1_555
F2 B1 1_555 1_555
F3 B1 1_555 1_555
O1 K1 1_555 1_555
N1 H1 1_555 1_555
B1 C4 1_555 1_555
C1 O1 1_555 1_555
C2 C1 1_555 1_555
C3 C2 1_555 1_555
H2 C3 1_555 1_555
H3 C3 1_555 1_555
C4 C3 1_555 1_555
H4 C4 1_555 1_555
C5 C4 1_555 1_555
H5 C5 1_555 1_555
H6 C5 1_555 1_555
C6 C2 1_555 1_555
H7 C6 1_555 1_555
H8 C6 1_555 1_555
C7 C2 1_555 1_555
C8 C7 1_555 1_555
H9 C8 1_555 1_555
C9 C8 1_555 1_555
H10 C9 1_555 1_555
C10 C9 1_555 1_555
H11 C10 1_555 1_555
C11 C10 1_555 1_555
H12 C11 1_555 1_555
C12 C7 1_555 1_555
H13 C12 1_555 1_555
C13 N1 1_555 1_555
H14 C13 1_555 1_555
C14 C13 1_555 1_555
C15 C14 1_555 1_555
H15 C15 1_555 1_555
C16 C15 1_555 1_555
H16 C16 1_555 1_555
C17 C16 1_555 1_555
H17 C17 1_555 1_555
C18 C17 1_555 1_555
H18 C18 1_555 1_555
C19 C14 1_555 1_555
H19 C19 1_555 1_555
C20 C13 1_555 1_555
H20 C20 1_555 1_555
H21 C20 1_555 1_555
H22 C20 1_555 1_555
K1_2 F3 1_555 1_555
K1B F2 1_555 1_555
K1B_2 F1 1_555 1_555
F1B K1 1_555 1_555
F2B K1 1_555 1_555
F3_2 K1 1_555 1_555
F3B K1 1_555 1_555
F3 K1B_2 1_555 1_555
N1 C1 1_555 1_555
C5 C6 1_555 1_555
C11 C12 1_555 1_555
C18 C19 1_555 1_555
K1B_2 F3B 1_555 1_555

#END
