
#######################################################################
#
#                 Cambridge Crystallographic Data Centre
#                                CCDC 
#
#######################################################################
#
# If this CIF has been generated from an entry in the Cambridge 
# Structural Database, then it will include bibliographic, chemical, 
# crystal, experimental, refinement or atomic coordinate data resulting 
# from the CCDC's data processing and validation procedures.
#
#######################################################################

data_RUCYUK
_symmetry_cell_setting           monoclinic
_symmetry_space_group_name_H-M   'P 21/n'
_symmetry_Int_Tables_number      14
_space_group_name_Hall           '-P 2yn'
loop_
_symmetry_equiv_pos_site_id
_symmetry_equiv_pos_as_xyz
1 x,y,z
2 1/2-x,1/2+y,1/2-z
3 -x,-y,-z
4 1/2+x,1/2-y,1/2+z
_cell_length_a                   16.15726(16)
_cell_length_b                   14.2632(2)
_cell_length_c                   18.6231(3)
_cell_angle_alpha                90
_cell_angle_beta                 94.1937(10)
_cell_angle_gamma                90
_cell_volume                     4280.28
loop_
_atom_site_label
_atom_site_type_symbol
_atom_site_fract_x
_atom_site_fract_y
_atom_site_fract_z
Er1 Er 0.30584(2) 0.36119(3) 0.08096(2)
N1 N 0.2375(4) 0.3789(5) -0.0533(4)
N2 N 0.3424(4) 0.5033(6) 0.0137(4)
N3 N 0.3650(4) 0.2559(5) -0.0072(4)
O1 O 0.4281(4) 0.4315(5) 0.1257(4)
O2 O 0.5245(4) 0.5466(5) 0.1271(4)
O3 O 0.3881(4) 0.2425(5) 0.1353(3)
O4 O 0.4666(5) 0.1129(5) 0.1293(4)
C1 C 0.1046(6) 0.3397(8) -0.1306(5)
H1 H 0.1369 0.3295 -0.1730
H2 H 0.0856 0.4057 -0.1312
C2 C 0.1596(5) 0.3215(8) -0.0621(5)
H3 H 0.1266 0.3335 -0.0203
H4 H 0.1751 0.2544 -0.0610
C3 C 0.2192(6) 0.4800(8) -0.0664(5)
H5 H 0.1710 0.4987 -0.0398
H6 H 0.2047 0.4902 -0.1184
C4 C 0.2934(5) 0.5402(7) -0.0423(5)
C5 C 0.3128(7) 0.6237(7) -0.0756(6)
H7 H 0.2775 0.6477 -0.1143
C6 C 0.3846(7) 0.6718(8) -0.0516(6)
H8 H 0.3991 0.7288 -0.0740
C7 C 0.4356(6) 0.6344(7) 0.0065(5)
H9 H 0.4853 0.6652 0.0237
C8 C 0.4116(5) 0.5531(7) 0.0373(5)
C9 C 0.4600(5) 0.5073(7) 0.1021(5)
C10 C 0.2981(5) 0.3473(7) -0.1056(5)
H10 H 0.3343 0.4008 -0.1162
H11 H 0.2670 0.3289 -0.1512
C11 C 0.3519(5) 0.2662(7) -0.0789(5)
C12 C 0.3897(7) 0.2060(8) -0.1281(6)
H12 H 0.3790 0.2127 -0.1786
C13 C 0.4426(8) 0.1374(8) -0.0992(6)
H13 H 0.4704 0.0973 -0.1304
C14 C 0.4553(7) 0.1265(7) -0.0259(7)
H14 H 0.4908 0.0785 -0.0062
C15 C 0.4153(6) 0.1868(6) 0.0193(6)
C16 C 0.4244(6) 0.1797(7) 0.1013(5)
N4 N -0.1051(4) 0.2461(5) -0.2159(4)
H15 H -0.1286 0.2643 -0.2608
N5 N -0.2287(4) 0.0872(6) -0.2862(4)
N6 N -0.2572(4) 0.2950(5) -0.2669(4)
O5 O -0.3123(4) 0.0531(6) -0.4132(4)
O6 O -0.4275(4) 0.0132(5) -0.3610(4)
O7 O -0.2848(4) 0.2594(6) -0.4123(4)
O8 O -0.3967(5) 0.3509(6) -0.4155(5)
C17 C 0.0284(6) 0.2738(7) -0.1350(5)
H16 H 0.0466 0.2076 -0.1308
H17 H -0.0074 0.2877 -0.0954
C18 C -0.0192(6) 0.2905(7) -0.2078(5)
H18 H -0.0250 0.3589 -0.2155
H19 H 0.0141 0.2655 -0.2461
C19 C -0.0993(5) 0.1401(6) -0.2176(5)
H20 H -0.0700 0.1209 -0.2601
H21 H -0.0659 0.1184 -0.1741
C20 C -0.1826(5) 0.0932(6) -0.2207(5)
C21 C -0.2122(6) 0.0577(7) -0.1571(5)
H22 H -0.1782 0.0602 -0.1133
C22 C -0.2914(7) 0.0188(7) -0.1581(5)
H23 H -0.3120 -0.0056 -0.1154
C23 C -0.3391(6) 0.0164(7) -0.2222(5)
H24 H -0.3942 -0.0071 -0.2238
C24 C -0.3060(5) 0.0489(6) -0.2859(5)
C25 C -0.3535(5) 0.0377(6) -0.3587(5)
C26 C -0.1611(5) 0.2834(7) -0.1613(5)
H25 H -0.1421 0.3465 -0.1453
H26 H -0.1586 0.2416 -0.1188
C27 C -0.2504(5) 0.2890(6) -0.1947(5)
C28 C -0.3186(6) 0.2868(7) -0.1527(6)
H27 H -0.3114 0.2786 -0.1020
C29 C -0.3964(6) 0.2969(8) -0.1871(6)
H28 H -0.4439 0.2981 -0.1598
C30 C -0.4058(6) 0.3056(7) -0.2627(6)
H29 H -0.4592 0.3139 -0.2869
C31 C -0.3352(5) 0.3019(7) -0.3009(5)
C32 C -0.3391(6) 0.3048(7) -0.3824(6)
Er1C Er -0.19416(2) 0.13881(3) -0.41904(2)
N5C N 0.2713(4) 0.4128(6) 0.2138(4)
O5C O 0.1877(4) 0.4469(6) 0.0868(4)
O7C O 0.2152(4) 0.2406(6) 0.0877(4)
O9 O -0.2892(11) 0.0676(16) 0.0278(9)
O10 O 0.7177(8) 0.2426(11) 0.2223(7)
O11 O 0.8156(11) 0.8869(12) 0.1948(9)
O12 O 0.6835(11) 0.9870(12) 0.2477(9)
O13 O 0.6321(9) 0.1003(19) 0.1596(12)
O14 O -0.0088(7) 0.0121(8) 0.1157(7)
O15 O 0.8733(8) 0.2271(11) 0.1778(8)
O16 O 0.9104(7) 0.0403(10) 0.2344(6)
O17 O 0.9478(8) 0.3985(12) 0.2155(7)
O18 O 0.0539(14) 0.735(2) -0.0552(14)
O19 O 0.0267(10) 0.5634(13) -0.0091(8)
O20 O -0.026(2) 0.130(3) -0.024(2)
O21 O -0.1562(15) -0.0602(14) 0.0399(10)
O22 O -0.164(3) 0.188(2) 0.0138(16)
loop_
_geom_bond_atom_site_label_1
_geom_bond_atom_site_label_2
_geom_bond_site_symmetry_1
_geom_bond_site_symmetry_2
Er1 N1 1_555 1_555
N1 C2 1_555 1_555
N2 Er1 1_555 1_555
N3 Er1 1_555 1_555
O1 Er1 1_555 1_555
O2 C9 1_555 1_555
O3 Er1 1_555 1_555
O4 C16 1_555 1_555
C1 H1 1_555 1_555
H2 C1 1_555 1_555
C2 C1 1_555 1_555
H3 C2 1_555 1_555
H4 C2 1_555 1_555
C3 N1 1_555 1_555
H5 C3 1_555 1_555
H6 C3 1_555 1_555
C4 N2 1_555 1_555
C5 C4 1_555 1_555
H7 C5 1_555 1_555
C6 C5 1_555 1_555
H8 C6 1_555 1_555
C7 C6 1_555 1_555
H9 C7 1_555 1_555
C8 N2 1_555 1_555
C9 O1 1_555 1_555
C10 N1 1_555 1_555
H10 C10 1_555 1_555
H11 C10 1_555 1_555
C11 N3 1_555 1_555
C12 C11 1_555 1_555
H12 C12 1_555 1_555
C13 C12 1_555 1_555
H13 C13 1_555 1_555
C14 C13 1_555 1_555
H14 C14 1_555 1_555
C15 N3 1_555 1_555
C16 O3 1_555 1_555
N4 H15 1_555 1_555
N5 C20 1_555 1_555
N6 C27 1_555 1_555
O5 C25 1_555 1_555
O6 C25 1_555 1_555
O7 C32 1_555 1_555
O8 C32 1_555 1_555
C17 C1 1_555 1_555
H16 C17 1_555 1_555
H17 C17 1_555 1_555
C18 N4 1_555 1_555
H18 C18 1_555 1_555
H19 C18 1_555 1_555
C19 N4 1_555 1_555
H20 C19 1_555 1_555
H21 C19 1_555 1_555
C20 C19 1_555 1_555
C21 C20 1_555 1_555
H22 C21 1_555 1_555
C22 C21 1_555 1_555
H23 C22 1_555 1_555
C23 C22 1_555 1_555
H24 C23 1_555 1_555
C24 N5 1_555 1_555
C25 C24 1_555 1_555
C26 N4 1_555 1_555
H25 C26 1_555 1_555
H26 C26 1_555 1_555
C27 C26 1_555 1_555
C28 C27 1_555 1_555
H27 C28 1_555 1_555
C29 C28 1_555 1_555
H28 C29 1_555 1_555
C30 C29 1_555 1_555
H29 C30 1_555 1_555
C31 N6 1_555 1_555
C32 C31 1_555 1_555
Er1C N5 1_555 1_555
N5C Er1 1_555 1_555
O5C Er1 1_555 1_555
O7C Er1 1_555 1_555
C3 C4 1_555 1_555
C7 C8 1_555 1_555
C8 C9 1_555 1_555
C10 C11 1_555 1_555
C14 C15 1_555 1_555
C15 C16 1_555 1_555
O5 Er1C 1_555 1_555
O7 Er1C 1_555 1_555
C17 C18 1_555 1_555
C23 C24 1_555 1_555
C30 C31 1_555 1_555

#END
