
#######################################################################
#
#                 Cambridge Crystallographic Data Centre
#                                CCDC 
#
#######################################################################
#
# If this CIF has been generated from an entry in the Cambridge 
# Structural Database, then it will include bibliographic, chemical, 
# crystal, experimental, refinement or atomic coordinate data resulting 
# from the CCDC's data processing and validation procedures.
#
#######################################################################

data_RUCZEV
_symmetry_cell_setting           monoclinic
_symmetry_space_group_name_H-M   'C 2/c'
_symmetry_Int_Tables_number      15
_space_group_name_Hall           '-C 2yn'
loop_
_symmetry_equiv_pos_site_id
_symmetry_equiv_pos_as_xyz
1 x,y,z
2 -x,y,1/2-z
3 1/2+x,1/2+y,z
4 1/2-x,1/2+y,1/2-z
5 -x,-y,-z
6 x,-y,1/2+z
7 1/2-x,1/2-y,-z
8 1/2+x,1/2-y,1/2+z
_cell_length_a                   20.31494(15)
_cell_length_b                   14.34227(11)
_cell_length_c                   28.1227(2)
_cell_angle_alpha                90
_cell_angle_beta                 105.2833(8)
_cell_angle_gamma                90
_cell_volume                     7904.11
loop_
_atom_site_label
_atom_site_type_symbol
_atom_site_fract_x
_atom_site_fract_y
_atom_site_fract_z
Eu1 Eu 0.172588(11) 0.875963(16) 0.112609(8)
N1 N 0.08495(19) 0.7311(3) 0.08450(15)
N2 N 0.2159(2) 0.7329(3) 0.07945(15)
N3 N 0.09006(19) 0.8885(3) 0.02748(14)
O1 O 0.26493(18) 0.9031(3) 0.07702(13)
O2 O 0.3499(2) 0.8535(3) 0.04726(16)
O3 O 0.16062(17) 1.0286(2) 0.07744(13)
O4 O 0.1412(2) 1.1202(3) 0.01133(15)
C1 C -0.0113(3) 0.6552(4) 0.1135(3)
H1 H 0.0188 0.6063 0.1325
H2 H -0.0322 0.6308 0.0800
C2 C 0.0303(2) 0.7417(3) 0.1103(2)
H3 H -0.0014 0.7910 0.0933
H4 H 0.0515 0.7639 0.1442
C3 C 0.1260(3) 0.6459(3) 0.10090(19)
H5 H 0.0989 0.5901 0.0872
H6 H 0.1379 0.6417 0.1373
C4 C 0.1905(2) 0.6485(4) 0.08372(18)
C5 C 0.2223(3) 0.5679(4) 0.0739(2)
H7 H 0.2032 0.5083 0.0764
C6 C 0.2829(3) 0.5770(4) 0.0604(2)
H8 H 0.3064 0.5230 0.0541
C7 C 0.3090(3) 0.6642(4) 0.0561(2)
H9 H 0.3503 0.6711 0.0466
C8 C 0.2742(2) 0.7412(4) 0.06584(18)
C9 C 0.2992(3) 0.8398(4) 0.06302(19)
C10 C 0.0566(2) 0.7252(3) 0.03052(18)
H10 H 0.0110 0.6958 0.0234
H11 H 0.0863 0.6844 0.0168
C11 C 0.0501(2) 0.8188(3) 0.00483(18)
C12 C 0.0081(2) 0.8280(4) -0.0429(2)
H12 H -0.0203 0.7779 -0.0581
C13 C 0.0084(3) 0.9109(4) -0.06773(19)
H13 H -0.0191 0.9180 -0.1006
C14 C 0.0495(2) 0.9842(4) -0.04400(18)
H14 H 0.0504 1.0421 -0.0603
C15 C 0.0888(2) 0.9706(3) 0.00348(18)
C16 C 0.1341(3) 1.0465(3) 0.03261(18)
N4 N -0.1562(2) 0.6034(3) 0.17566(17)
H15 H -0.138(4) 0.641(5) 0.206(3)
N5 N -0.2361(2) 0.7213(3) 0.21803(15)
N6 N -0.2909(2) 0.4890(3) 0.19087(15)
O5 O -0.17942(17) 0.7810(2) 0.31151(13)
O6 O -0.28047(18) 0.8133(2) 0.32284(13)
O7 O -0.41798(17) 0.4359(2) 0.14047(13)
O8 O -0.4620(2) 0.5160(4) 0.19201(16)
C17 C -0.0675(3) 0.6788(4) 0.1389(2)
H16 H -0.0476 0.7123 0.1701
H17 H -0.1021 0.7196 0.1173
C18 C -0.1006(3) 0.5892(4) 0.1491(2)
H18 H -0.0649 0.5481 0.1694
H19 H -0.1205 0.5570 0.1175
C19 C -0.2172(3) 0.6521(4) 0.14312(19)
H20 H -0.2440 0.6064 0.1193
H21 H -0.2011 0.7010 0.1240
C20 C -0.2635(3) 0.6966(4) 0.1711(2)
C21 C -0.3321(3) 0.7102(4) 0.1475(2)
H22 H -0.3501 0.6913 0.1142
C22 C -0.3738(3) 0.7520(5) 0.1734(2)
H23 H -0.4206 0.7630 0.1581
C23 C -0.3455(3) 0.7774(4) 0.2224(2)
H24 H -0.3726 0.8061 0.2411
C24 C -0.2771(2) 0.7599(3) 0.24309(19)
C25 C -0.2438(2) 0.7854(3) 0.29567(18)
C26 C -0.1721(3) 0.5079(4) 0.1916(2)
H25 H -0.1862 0.4675 0.1621
H26 H -0.1300 0.4810 0.2134
C27 C -0.2272(3) 0.5066(3) 0.2183(2)
C28 C -0.2124(3) 0.5229(4) 0.2687(2)
H27 H -0.1666 0.5319 0.2876
C29 C -0.2652(3) 0.5259(4) 0.2907(2)
H28 H -0.2563 0.5347 0.3253
C30 C -0.3318(3) 0.5159(4) 0.2621(2)
H29 H -0.3693 0.5223 0.2761
C31 C -0.3421(3) 0.4962(3) 0.21256(19)
C32 C -0.4135(3) 0.4809(4) 0.17927(19)
Eu1A Eu -0.172588(11) 0.875963(16) 0.387391(8)
Eu1B Eu -0.327412(11) 0.375963(16) 0.112609(8)
Eu1C Eu 0.327412(11) 0.375963(16) 0.387391(8)
N1A N -0.08495(19) 0.7311(3) 0.41550(15)
N2A N -0.2159(2) 0.7329(3) 0.42055(15)
N3A N -0.09006(19) 0.8885(3) 0.47252(14)
O1A O -0.26493(18) 0.9031(3) 0.42298(13)
O2A O -0.3499(2) 0.8535(3) 0.45274(16)
O3A O -0.16062(17) 1.0286(2) 0.42256(13)
O4A O -0.1412(2) 1.1202(3) 0.48867(15)
C1A C 0.0113(3) 0.6552(4) 0.3865(3)
H1A H -0.0188 0.6063 0.3675
H2A H 0.0322 0.6308 0.4200
C2A C -0.0303(2) 0.7417(3) 0.3897(2)
H3A H 0.0014 0.7910 0.4067
H4A H -0.0515 0.7639 0.3558
C3A C -0.1260(3) 0.6459(3) 0.39910(19)
H5A H -0.0989 0.5901 0.4128
H6A H -0.1379 0.6417 0.3627
C4A C -0.1905(2) 0.6485(4) 0.41628(18)
C5A C -0.2223(3) 0.5679(4) 0.4261(2)
H7A H -0.2032 0.5083 0.4236
C6A C -0.2829(3) 0.5770(4) 0.4396(2)
H8A H -0.3064 0.5230 0.4459
C7A C -0.3090(3) 0.6642(4) 0.4439(2)
H9A H -0.3503 0.6711 0.4534
C8A C -0.2742(2) 0.7412(4) 0.43416(18)
C9A C -0.2992(3) 0.8398(4) 0.43698(19)
C10A C -0.0566(2) 0.7252(3) 0.46948(18)
H10A H -0.0110 0.6958 0.4766
H11A H -0.0863 0.6844 0.4832
C11A C -0.0501(2) 0.8188(3) 0.49517(18)
C12A C -0.0081(2) 0.8280(4) 0.5429(2)
H12A H 0.0203 0.7779 0.5581
C13A C -0.0084(3) 0.9109(4) 0.56773(19)
H13A H 0.0191 0.9180 0.6006
C14A C -0.0495(2) 0.9842(4) 0.54400(18)
H14A H -0.0504 1.0421 0.5603
C15A C -0.0888(2) 0.9706(3) 0.49652(18)
C16A C -0.1341(3) 1.0465(3) 0.46739(18)
N4A N 0.1562(2) 0.6034(3) 0.32434(17)
H15A H 0.138(4) 0.641(5) 0.294(3)
N5A N 0.2361(2) 0.7213(3) 0.28197(15)
N6A N 0.2909(2) 0.4890(3) 0.30913(15)
N6B N 0.2091(2) 0.9890(3) 0.19087(15)
N6C N -0.2091(2) 0.9890(3) 0.30913(15)
O5A O 0.17942(17) 0.7810(2) 0.18849(13)
O6A O 0.28047(18) 0.8133(2) 0.17716(13)
O7A O 0.41798(17) 0.4359(2) 0.35953(13)
O7B O 0.08202(17) 0.9359(2) 0.14047(13)
O7C O -0.08202(17) 0.9359(2) 0.35953(13)
O8A O 0.4620(2) 0.5160(4) 0.30799(16)
C17A C 0.0675(3) 0.6788(4) 0.3611(2)
H16A H 0.0476 0.7123 0.3299
H17A H 0.1021 0.7196 0.3827
C18A C 0.1006(3) 0.5892(4) 0.3509(2)
H18A H 0.0649 0.5481 0.3306
H19A H 0.1205 0.5570 0.3825
C19A C 0.2172(3) 0.6521(4) 0.35688(19)
H20A H 0.2440 0.6064 0.3807
H21A H 0.2011 0.7010 0.3760
C20A C 0.2635(3) 0.6966(4) 0.3289(2)
C21A C 0.3321(3) 0.7102(4) 0.3525(2)
H22A H 0.3501 0.6913 0.3858
C22A C 0.3738(3) 0.7520(5) 0.3266(2)
H23A H 0.4206 0.7630 0.3419
C23A C 0.3455(3) 0.7774(4) 0.2776(2)
H24A H 0.3726 0.8061 0.2589
C24A C 0.2771(2) 0.7599(3) 0.25691(19)
C25A C 0.2438(2) 0.7854(3) 0.20433(18)
C26A C 0.1721(3) 0.5079(4) 0.3084(2)
H25A H 0.1862 0.4675 0.3379
H26A H 0.1300 0.4810 0.2866
C27A C 0.2272(3) 0.5066(3) 0.2817(2)
C28A C 0.2124(3) 0.5229(4) 0.2313(2)
H27A H 0.1666 0.5319 0.2124
C29A C 0.2652(3) 0.5259(4) 0.2093(2)
H28A H 0.2563 0.5347 0.1747
C30A C 0.3318(3) 0.5159(4) 0.2379(2)
H29A H 0.3693 0.5223 0.2239
C31A C 0.3421(3) 0.4962(3) 0.28744(19)
C32A C 0.4135(3) 0.4809(4) 0.32073(19)
O9 O 0.5000 1.3263(5) 0.2500
O10 O 0.58862(19) 1.1893(3) 0.23673(16)
O11 O 0.3159(3) 0.8044(4) 0.4586(2)
O12 O 0.4215(4) 0.7753(8) 0.1805(3)
O13 O 0.0798(5) 0.4110(7) 0.0695(4)
O14 O 0.0000 0.1488(4) 0.2500
O15 O 0.3263(3) 0.3504(3) 0.07835(17)
O16 O 0.4182(3) 0.4208(4) 0.1677(2)
O17 O 0.4793(4) 0.8768(6) 0.1166(4)
O18 O 0.3269(10) 1.0647(8) 0.0304(3)
O19 O 0.5000 0.9200(15) 0.2500
O20 O 0.0000 0.5000 0.0000
loop_
_geom_bond_atom_site_label_1
_geom_bond_atom_site_label_2
_geom_bond_site_symmetry_1
_geom_bond_site_symmetry_2
Eu1 N1 1_555 1_555
N1 C2 1_555 1_555
N2 Eu1 1_555 1_555
N3 Eu1 1_555 1_555
O1 Eu1 1_555 1_555
O2 C9 1_555 1_555
O3 Eu1 1_555 1_555
O4 C16 1_555 1_555
C1 H1 1_555 1_555
H2 C1 1_555 1_555
C2 C1 1_555 1_555
H3 C2 1_555 1_555
H4 C2 1_555 1_555
C3 N1 1_555 1_555
H5 C3 1_555 1_555
H6 C3 1_555 1_555
C4 N2 1_555 1_555
C5 C4 1_555 1_555
H7 C5 1_555 1_555
C6 C5 1_555 1_555
H8 C6 1_555 1_555
C7 C6 1_555 1_555
H9 C7 1_555 1_555
C8 N2 1_555 1_555
C9 O1 1_555 1_555
C10 N1 1_555 1_555
H10 C10 1_555 1_555
H11 C10 1_555 1_555
C11 N3 1_555 1_555
C12 C11 1_555 1_555
H12 C12 1_555 1_555
C13 C12 1_555 1_555
H13 C13 1_555 1_555
C14 C13 1_555 1_555
H14 C14 1_555 1_555
C15 N3 1_555 1_555
C16 O3 1_555 1_555
N4 H15 1_555 1_555
N5 C20 1_555 1_555
N6 C27 1_555 1_555
O5 C25 1_555 1_555
O6 C25 1_555 1_555
O7 C32 1_555 1_555
O8 C32 1_555 1_555
C17 C1 1_555 1_555
H16 C17 1_555 1_555
H17 C17 1_555 1_555
C18 N4 1_555 1_555
H18 C18 1_555 1_555
H19 C18 1_555 1_555
C19 N4 1_555 1_555
H20 C19 1_555 1_555
H21 C19 1_555 1_555
C20 C19 1_555 1_555
C21 C20 1_555 1_555
H22 C21 1_555 1_555
C22 C21 1_555 1_555
H23 C22 1_555 1_555
C23 C22 1_555 1_555
H24 C23 1_555 1_555
C24 N5 1_555 1_555
C25 C24 1_555 1_555
C26 N4 1_555 1_555
H25 C26 1_555 1_555
H26 C26 1_555 1_555
C27 C26 1_555 1_555
C28 C27 1_555 1_555
H27 C28 1_555 1_555
C29 C28 1_555 1_555
H28 C29 1_555 1_555
C30 C29 1_555 1_555
H29 C30 1_555 1_555
C31 N6 1_555 1_555
C32 C31 1_555 1_555
Eu1A O5 1_555 1_555
Eu1B N6 1_555 1_555
Eu1C N6A 1_555 1_555
N1A Eu1A 1_555 1_555
N2A Eu1A 1_555 1_555
N3A Eu1A 1_555 1_555
O1A Eu1A 1_555 1_555
O2A C9A 1_555 1_555
O3A Eu1A 1_555 1_555
O4A C16A 1_555 1_555
C1A H1A 1_555 1_555
H2A C1A 1_555 1_555
C2A N1A 1_555 1_555
H3A C2A 1_555 1_555
H4A C2A 1_555 1_555
C3A N1A 1_555 1_555
H5A C3A 1_555 1_555
H6A C3A 1_555 1_555
C4A N2A 1_555 1_555
C5A C4A 1_555 1_555
H7A C5A 1_555 1_555
C6A C5A 1_555 1_555
H8A C6A 1_555 1_555
C7A C6A 1_555 1_555
H9A C7A 1_555 1_555
C8A N2A 1_555 1_555
C9A O1A 1_555 1_555
C10A N1A 1_555 1_555
H10A C10A 1_555 1_555
H11A C10A 1_555 1_555
C11A N3A 1_555 1_555
C12A C11A 1_555 1_555
H12A C12A 1_555 1_555
C13A C12A 1_555 1_555
H13A C13A 1_555 1_555
C14A C13A 1_555 1_555
H14A C14A 1_555 1_555
C15A N3A 1_555 1_555
C16A O3A 1_555 1_555
N4A H15A 1_555 1_555
N5A C20A 1_555 1_555
N6A C27A 1_555 1_555
N6B Eu1 1_555 1_555
N6C Eu1A 1_555 1_555
O5A Eu1 1_555 1_555
O6A Eu1 1_555 1_555
O7A Eu1C 1_555 1_555
O7B Eu1 1_555 1_555
O7C Eu1A 1_555 1_555
O8A C32A 1_555 1_555
C17A C1A 1_555 1_555
H16A C17A 1_555 1_555
H17A C17A 1_555 1_555
C18A N4A 1_555 1_555
H18A C18A 1_555 1_555
H19A C18A 1_555 1_555
C19A N4A 1_555 1_555
H20A C19A 1_555 1_555
H21A C19A 1_555 1_555
C20A C19A 1_555 1_555
C21A C20A 1_555 1_555
H22A C21A 1_555 1_555
C22A C21A 1_555 1_555
H23A C22A 1_555 1_555
C23A C22A 1_555 1_555
H24A C23A 1_555 1_555
C24A N5A 1_555 1_555
C25A O5A 1_555 1_555
C26A N4A 1_555 1_555
H25A C26A 1_555 1_555
H26A C26A 1_555 1_555
C27A C26A 1_555 1_555
C28A C27A 1_555 1_555
H27A C28A 1_555 1_555
C29A C28A 1_555 1_555
H28A C29A 1_555 1_555
C30A C29A 1_555 1_555
H29A C30A 1_555 1_555
C31A N6A 1_555 1_555
C32A O7A 1_555 1_555
C3 C4 1_555 1_555
C7 C8 1_555 1_555
C8 C9 1_555 1_555
C10 C11 1_555 1_555
C14 C15 1_555 1_555
C15 C16 1_555 1_555
O6 Eu1A 1_555 1_555
O7 Eu1B 1_555 1_555
C17 C18 1_555 1_555
C23 C24 1_555 1_555
C30 C31 1_555 1_555
C1A C2A 1_555 1_555
C3A C4A 1_555 1_555
C7A C8A 1_555 1_555
C8A C9A 1_555 1_555
C10A C11A 1_555 1_555
C14A C15A 1_555 1_555
C15A C16A 1_555 1_555
O6A C25A 1_555 1_555
C17A C18A 1_555 1_555
C23A C24A 1_555 1_555
C24A C25A 1_555 1_555
C30A C31A 1_555 1_555
C31A C32A 1_555 1_555

#END
