
#######################################################################
#
#                 Cambridge Crystallographic Data Centre
#                                CCDC 
#
#######################################################################
#
# If this CIF has been generated from an entry in the Cambridge 
# Structural Database, then it will include bibliographic, chemical, 
# crystal, experimental, refinement or atomic coordinate data resulting 
# from the CCDC's data processing and validation procedures.
#
#######################################################################

data_RUCZUL
_symmetry_cell_setting           triclinic
_symmetry_space_group_name_H-M   'P -1'
_symmetry_Int_Tables_number      2
_space_group_name_Hall           '-P 1'
loop_
_symmetry_equiv_pos_site_id
_symmetry_equiv_pos_as_xyz
1 x,y,z
2 -x,-y,-z
_cell_length_a                   10.7533(10)
_cell_length_b                   12.7831(11)
_cell_length_c                   13.8556(16)
_cell_angle_alpha                81.976(8)
_cell_angle_beta                 78.009(9)
_cell_angle_gamma                84.563(7)
_cell_volume                     1840.54
loop_
_atom_site_label
_atom_site_type_symbol
_atom_site_fract_x
_atom_site_fract_y
_atom_site_fract_z
Nd1 Nd 0.15677(3) 0.20196(2) 0.70969(2)
N1 N 0.1507(5) 0.3038(4) 0.8976(4)
N2 N 0.3511(5) 0.1831(4) 0.8082(4)
N3 N 0.0152(4) 0.1221(4) 0.8844(3)
O1 O 0.2854(4) 0.0297(3) 0.7219(3)
O2 O 0.4671(4) -0.0657(3) 0.7340(3)
O3 O 0.0228(4) 0.0617(3) 0.7076(3)
O4 O -0.1173(4) -0.0601(4) 0.7730(3)
C1 C 0.0455(6) 0.4513(5) 1.0010(5)
H1 H 0.0163 0.4023 1.0619
H2 H 0.1312 0.4719 1.0032
C2 C 0.0534(6) 0.3942(5) 0.9090(5)
H3 H -0.0311 0.3680 0.9115
H4 H 0.0714 0.4467 0.8490
C3 C 0.2775(6) 0.3372(5) 0.8953(5)
H5 H 0.2866 0.3420 0.9642
H6 H 0.2859 0.4088 0.8577
C4 C 0.3837(6) 0.2631(5) 0.8486(5)
C5 C 0.5098(6) 0.2781(5) 0.8499(5)
H7 H 0.5299 0.3357 0.8791
C6 C 0.6059(6) 0.2080(5) 0.8082(5)
H8 H 0.6929 0.2196 0.8045
C7 C 0.5731(6) 0.1211(5) 0.7720(5)
H9 H 0.6365 0.0698 0.7462
C8 C 0.4439(6) 0.1108(4) 0.7743(4)
C9 C 0.3972(6) 0.0167(5) 0.7407(4)
C10 C 0.1195(6) 0.2160(5) 0.9799(5)
H10 H 0.1930 0.1630 0.9785
H11 H 0.1031 0.2445 1.0446
C11 C 0.0051(6) 0.1638(5) 0.9702(4)
C12 C -0.1045(7) 0.1558(5) 1.0445(5)
H12 H -0.1104 0.1864 1.1041
C13 C -0.2041(7) 0.1028(5) 1.0306(5)
H13 H -0.2806 0.0994 1.0793
C14 C -0.1923(6) 0.0548(5) 0.9457(5)
H14 H -0.2577 0.0145 0.9363
C15 C -0.0815(6) 0.0677(5) 0.8744(5)
C16 C -0.0590(6) 0.0188(5) 0.7773(4)
N4 N 0.2324(4) 0.1281(4) 0.5106(4)
N5 N 0.0489(4) 0.2947(3) 0.5562(4)
N6 N 0.3733(4) 0.2510(3) 0.5834(3)
O5 O -0.0482(4) 0.3004(3) 0.7486(3)
O6 O -0.2039(4) 0.4194(3) 0.7181(3)
O7 O 0.2260(4) 0.3860(3) 0.6886(3)
O8 O 0.3789(4) 0.4968(3) 0.6718(3)
C17 C 0.0307(5) 0.0534(4) 0.4923(4)
H15 H 0.0222 0.0921 0.4267
H16 H -0.0131 0.0974 0.5443
C18 C 0.1703(5) 0.0331(4) 0.4979(4)
H17 H 0.1784 -0.0223 0.5542
H18 H 0.2166 0.0051 0.4362
C19 C 0.2145(5) 0.2161(4) 0.4321(4)
H19 H 0.2117 0.1862 0.3704
H20 H 0.2890 0.2598 0.4180
C20 C 0.0948(6) 0.2863(4) 0.4593(5)
C21 C 0.0390(6) 0.3442(5) 0.3838(5)
H21 H 0.0731 0.3364 0.3160
C22 C -0.0664(6) 0.4126(5) 0.4093(5)
H22 H -0.1049 0.4536 0.3593
C23 C -0.1153(6) 0.4205(5) 0.5095(5)
H23 H -0.1883 0.4664 0.5289
C24 C -0.0563(5) 0.3607(4) 0.5800(5)
C25 C -0.1063(5) 0.3613(4) 0.6901(4)
C26 C 0.3711(5) 0.0985(4) 0.4990(4)
H24 H 0.4052 0.0811 0.4306
H25 H 0.3850 0.0345 0.5458
C27 C 0.4409(5) 0.1859(4) 0.5185(4)
C28 C 0.5641(6) 0.2030(5) 0.4710(5)
H26 H 0.6093 0.1561 0.4263
C29 C 0.6219(6) 0.2883(5) 0.4881(5)
H27 H 0.7083 0.2991 0.4580
C30 C 0.5519(6) 0.3585(5) 0.5504(5)
H28 H 0.5886 0.4192 0.5620
C31 C 0.4276(6) 0.3381(4) 0.5950(4)
C32 C 0.3385(5) 0.4125(4) 0.6572(4)
Nd1A Nd -0.15677(3) 0.79804(2) 1.29031(2)
Nd1A_2 Nd -0.15677(3) -0.20196(2) 0.29031(2)
N1A N -0.1507(5) 0.6962(4) 1.1024(4)
N2A N -0.3511(5) 0.8169(4) 1.1918(4)
N3A N -0.0152(4) 0.8779(4) 1.1156(3)
O1A O -0.2854(4) 0.9703(3) 1.2781(3)
O2A O -0.4671(4) 1.0657(3) 1.2660(3)
O3A O -0.0228(4) 0.9383(3) 1.2924(3)
O4A O 0.1173(4) 1.0601(4) 1.2270(3)
C1A C -0.0455(6) 0.5487(5) 0.9990(5)
H1A H -0.0163 0.5977 0.9381
H2A H -0.1312 0.5281 0.9968
C2A C -0.0534(6) 0.6058(5) 1.0910(5)
H3A H 0.0311 0.6320 1.0885
H4A H -0.0714 0.5533 1.1510
C3A C -0.2775(6) 0.6628(5) 1.1047(5)
H5A H -0.2866 0.6580 1.0358
H6A H -0.2859 0.5912 1.1423
C4A C -0.3837(6) 0.7369(5) 1.1514(5)
C5A C -0.5098(6) 0.7219(5) 1.1501(5)
H7A H -0.5299 0.6643 1.1209
C6A C -0.6059(6) 0.7920(5) 1.1918(5)
H8A H -0.6929 0.7804 1.1955
C7A C -0.5731(6) 0.8789(5) 1.2280(5)
H9A H -0.6365 0.9302 1.2538
C8A C -0.4439(6) 0.8892(4) 1.2257(4)
C9A C -0.3972(6) 0.9833(5) 1.2593(4)
C10A C -0.1195(6) 0.7840(5) 1.0201(5)
H10A H -0.1930 0.8370 1.0215
H11A H -0.1031 0.7555 0.9554
C11A C -0.0051(6) 0.8362(5) 1.0298(4)
C12A C 0.1045(7) 0.8442(5) 0.9555(5)
H12A H 0.1104 0.8136 0.8959
C13A C 0.2041(7) 0.8972(5) 0.9694(5)
H13A H 0.2806 0.9006 0.9207
C14A C 0.1923(6) 0.9452(5) 1.0543(5)
H14A H 0.2577 0.9855 1.0637
C15A C 0.0815(6) 0.9323(5) 1.1256(5)
C16A C 0.0590(6) 0.9812(5) 1.2227(4)
N4A N -0.2324(4) -0.1281(4) 0.4894(4)
N4A_2 N -0.2324(4) 0.8719(4) 1.4894(4)
N5A N -0.0489(4) -0.2947(3) 0.4438(4)
N5A_2 N -0.0489(4) 0.7053(3) 1.4438(4)
N6A N -0.3733(4) -0.2510(3) 0.4166(3)
N6A_2 N -0.3733(4) 0.7490(3) 1.4166(3)
O5A O 0.0482(4) -0.3004(3) 0.2514(3)
O5A_2 O 0.0482(4) 0.6996(3) 1.2514(3)
O6A O 0.2039(4) -0.4194(3) 0.2819(3)
O7A O -0.2260(4) -0.3860(3) 0.3114(3)
O7A_2 O -0.2260(4) 0.6140(3) 1.3114(3)
O8A O -0.3789(4) -0.4968(3) 0.3282(3)
C17A C -0.0307(5) -0.0534(4) 0.5077(4)
H15A H -0.0222 -0.0921 0.5733
H16A H 0.0131 -0.0974 0.4557
C18A C -0.1703(5) -0.0331(4) 0.5021(4)
H17A H -0.1784 0.0223 0.4458
H18A H -0.2166 -0.0051 0.5638
C19A C -0.2145(5) -0.2161(4) 0.5679(4)
H19A H -0.2117 -0.1862 0.6296
H20A H -0.2890 -0.2598 0.5820
C20A C -0.0948(6) -0.2863(4) 0.5407(5)
C21A C -0.0390(6) -0.3442(5) 0.6162(5)
H21A H -0.0731 -0.3364 0.6840
C22A C 0.0664(6) -0.4126(5) 0.5907(5)
H22A H 0.1049 -0.4536 0.6407
C23A C 0.1153(6) -0.4205(5) 0.4905(5)
H23A H 0.1883 -0.4664 0.4711
C24A C 0.0563(5) -0.3607(4) 0.4200(5)
C25A C 0.1063(5) -0.3613(4) 0.3099(4)
C26A C -0.3711(5) -0.0985(4) 0.5010(4)
H24A H -0.4052 -0.0811 0.5694
H25A H -0.3850 -0.0345 0.4542
C27A C -0.4409(5) -0.1859(4) 0.4815(4)
C28A C -0.5641(6) -0.2030(5) 0.5290(5)
H26A H -0.6093 -0.1561 0.5737
C29A C -0.6219(6) -0.2883(5) 0.5119(5)
H27A H -0.7083 -0.2991 0.5420
C30A C -0.5519(6) -0.3585(5) 0.4496(5)
H28A H -0.5886 -0.4192 0.4380
C31A C -0.4276(6) -0.3381(4) 0.4050(4)
C32A C -0.3385(5) -0.4125(4) 0.3428(4)
O9 O 0.2970(5) 0.5452(4) 1.0910(4)
H29 H 0.323(6) 0.466(6) 1.110(5)
H30 H 0.235(12) 0.560(10) 1.153(10)
O10 O 0.6143(5) 0.5757(4) 0.6734(4)
H31 H 0.547(7) 0.566(5) 0.670(5)
H32 H 0.670(10) 0.519(9) 0.693(8)
O11 O 0.1700(6) -0.1624(4) 0.7099(4)
H33 H 0.081(11) -0.140(8) 0.715(8)
H34 H 0.199(8) -0.118(7) 0.702(7)
O12 O 0.2357(5) 0.6358(4) 0.7877(4)
H35 H 0.288(8) 0.591(7) 0.738(6)
H36 H 0.223(6) 0.689(6) 0.759(5)
H37 H 0.308(11) 0.630(9) 0.855(10)
O15 O 0.3513(6) 0.6571(5) 0.9220(5)
H41 H 0.334(6) 0.611(6) 0.963(5)
H42 H 0.466(10) 0.634(7) 0.897(7)
O13 O -0.3472(5) -0.1504(4) 0.8449(4)
H38 H -0.426(13) -0.111(11) 0.798(11)
O14 O 0.4086(5) 0.3476(4) 1.1506(4)
H39? H 0.476(4) 0.271(4) 1.218(3)
H40? H 0.331(15) 0.266(12) 1.145(11)
loop_
_geom_bond_atom_site_label_1
_geom_bond_atom_site_label_2
_geom_bond_site_symmetry_1
_geom_bond_site_symmetry_2
Nd1 N1 1_555 1_555
N1 C2 1_555 1_555
N2 Nd1 1_555 1_555
N3 Nd1 1_555 1_555
O1 Nd1 1_555 1_555
O2 C9 1_555 1_555
O3 Nd1 1_555 1_555
O4 C16 1_555 1_555
C1 H1 1_555 1_555
H2 C1 1_555 1_555
C2 C1 1_555 1_555
H3 C2 1_555 1_555
H4 C2 1_555 1_555
C3 N1 1_555 1_555
H5 C3 1_555 1_555
H6 C3 1_555 1_555
C4 N2 1_555 1_555
C5 C4 1_555 1_555
H7 C5 1_555 1_555
C6 C5 1_555 1_555
H8 C6 1_555 1_555
C7 C6 1_555 1_555
H9 C7 1_555 1_555
C8 N2 1_555 1_555
C9 O1 1_555 1_555
C10 N1 1_555 1_555
H10 C10 1_555 1_555
H11 C10 1_555 1_555
C11 N3 1_555 1_555
C12 C11 1_555 1_555
H12 C12 1_555 1_555
C13 C12 1_555 1_555
H13 C13 1_555 1_555
C14 C13 1_555 1_555
H14 C14 1_555 1_555
C15 N3 1_555 1_555
C16 O3 1_555 1_555
N4 Nd1 1_555 1_555
N5 Nd1 1_555 1_555
N6 Nd1 1_555 1_555
O5 Nd1 1_555 1_555
O6 C25 1_555 1_555
O7 Nd1 1_555 1_555
O8 C32 1_555 1_555
C17 H15 1_555 1_555
H16 C17 1_555 1_555
C18 N4 1_555 1_555
H17 C18 1_555 1_555
H18 C18 1_555 1_555
C19 N4 1_555 1_555
H19 C19 1_555 1_555
H20 C19 1_555 1_555
C20 N5 1_555 1_555
C21 C20 1_555 1_555
H21 C21 1_555 1_555
C22 C21 1_555 1_555
H22 C22 1_555 1_555
C23 C22 1_555 1_555
H23 C23 1_555 1_555
C24 N5 1_555 1_555
C25 O5 1_555 1_555
C26 N4 1_555 1_555
H24 C26 1_555 1_555
H25 C26 1_555 1_555
C27 N6 1_555 1_555
C28 C27 1_555 1_555
H26 C28 1_555 1_555
C29 C28 1_555 1_555
H27 C29 1_555 1_555
C30 C29 1_555 1_555
H28 C30 1_555 1_555
C31 N6 1_555 1_555
C32 O7 1_555 1_555
O9 H29 1_555 1_555
H30 O9 1_555 1_555
O10 H31 1_555 1_555
H32 O10 1_555 1_555
O11 H33 1_555 1_555
H34 O11 1_555 1_555
O12 H35 1_555 1_555
H36 O12 1_555 1_555
H37 O15 1_555 1_555
O13 H38 1_555 1_555
O15 H41 1_555 1_555
H42 O15 1_555 1_555
Nd1A N1A 1_555 1_555
Nd1A_2 N4A 1_555 1_555
N1A C2A 1_555 1_555
N2A Nd1A 1_555 1_555
N3A Nd1A 1_555 1_555
O1A Nd1A 1_555 1_555
O2A C9A 1_555 1_555
O3A Nd1A 1_555 1_555
O4A C16A 1_555 1_555
C1A C1 1_555 1_555
H1A C1A 1_555 1_555
H2A C1A 1_555 1_555
C2A C1A 1_555 1_555
H3A C2A 1_555 1_555
H4A C2A 1_555 1_555
C3A N1A 1_555 1_555
H5A C3A 1_555 1_555
H6A C3A 1_555 1_555
C4A N2A 1_555 1_555
C5A C4A 1_555 1_555
H7A C5A 1_555 1_555
C6A C5A 1_555 1_555
H8A C6A 1_555 1_555
C7A C6A 1_555 1_555
H9A C7A 1_555 1_555
C8A N2A 1_555 1_555
C9A O1A 1_555 1_555
C10A N1A 1_555 1_555
H10A C10A 1_555 1_555
H11A C10A 1_555 1_555
C11A N3A 1_555 1_555
C12A C11A 1_555 1_555
H12A C12A 1_555 1_555
C13A C12A 1_555 1_555
H13A C13A 1_555 1_555
C14A C13A 1_555 1_555
H14A C14A 1_555 1_555
C15A N3A 1_555 1_555
C16A O3A 1_555 1_555
N4A C18A 1_555 1_555
N4A_2 Nd1A 1_555 1_555
N5A Nd1A_2 1_555 1_555
N5A_2 Nd1A 1_555 1_555
N6A Nd1A_2 1_555 1_555
N6A_2 Nd1A 1_555 1_555
O5A Nd1A_2 1_555 1_555
O5A_2 Nd1A 1_555 1_555
O6A C25A 1_555 1_555
O7A Nd1A_2 1_555 1_555
O7A_2 Nd1A 1_555 1_555
O8A C32A 1_555 1_555
C17A C17 1_555 1_555
H15A C17A 1_555 1_555
H16A C17A 1_555 1_555
C18A C17A 1_555 1_555
H17A C18A 1_555 1_555
H18A C18A 1_555 1_555
C19A N4A 1_555 1_555
H19A C19A 1_555 1_555
H20A C19A 1_555 1_555
C20A N5A 1_555 1_555
C21A C20A 1_555 1_555
H21A C21A 1_555 1_555
C22A C21A 1_555 1_555
H22A C22A 1_555 1_555
C23A C22A 1_555 1_555
H23A C23A 1_555 1_555
C24A N5A 1_555 1_555
C25A O5A 1_555 1_555
C26A N4A 1_555 1_555
H24A C26A 1_555 1_555
H25A C26A 1_555 1_555
C27A N6A 1_555 1_555
C28A C27A 1_555 1_555
H26A C28A 1_555 1_555
C29A C28A 1_555 1_555
H27A C29A 1_555 1_555
C30A C29A 1_555 1_555
H28A C30A 1_555 1_555
C31A N6A 1_555 1_555
C32A O7A 1_555 1_555
C3 C4 1_555 1_555
C7 C8 1_555 1_555
C8 C9 1_555 1_555
C10 C11 1_555 1_555
C14 C15 1_555 1_555
C15 C16 1_555 1_555
C17 C18 1_555 1_555
C19 C20 1_555 1_555
C23 C24 1_555 1_555
C24 C25 1_555 1_555
C26 C27 1_555 1_555
C30 C31 1_555 1_555
C31 C32 1_555 1_555
C3A C4A 1_555 1_555
C7A C8A 1_555 1_555
C8A C9A 1_555 1_555
C10A C11A 1_555 1_555
C14A C15A 1_555 1_555
C15A C16A 1_555 1_555
C19A C20A 1_555 1_555
C23A C24A 1_555 1_555
C24A C25A 1_555 1_555
C26A C27A 1_555 1_555
C30A C31A 1_555 1_555
C31A C32A 1_555 1_555

#END
