
#######################################################################
#
#                 Cambridge Crystallographic Data Centre
#                                CCDC 
#
#######################################################################
#
# If this CIF has been generated from an entry in the Cambridge 
# Structural Database, then it will include bibliographic, chemical, 
# crystal, experimental, refinement or atomic coordinate data resulting 
# from the CCDC's data processing and validation procedures.
#
#######################################################################

data_RUCZOF
_symmetry_cell_setting           monoclinic
_symmetry_space_group_name_H-M   'P 21/n'
_symmetry_Int_Tables_number      14
_space_group_name_Hall           '-P 2yn'
loop_
_symmetry_equiv_pos_site_id
_symmetry_equiv_pos_as_xyz
1 x,y,z
2 1/2-x,1/2+y,1/2-z
3 -x,-y,-z
4 1/2+x,1/2-y,1/2+z
_cell_length_a                   18.5314(5)
_cell_length_b                   13.9969(4)
_cell_length_c                   15.0320(4)
_cell_angle_alpha                90
_cell_angle_beta                 104.977(3)
_cell_angle_gamma                90
_cell_volume                     3766.58
loop_
_atom_site_label
_atom_site_type_symbol
_atom_site_fract_x
_atom_site_fract_y
_atom_site_fract_z
Tb1 Tb 0.33683(3) 0.35075(3) 0.55217(3)
N1 N 0.2717(4) 0.3603(6) 0.3672(5)
N2 N 0.3648(4) 0.4966(5) 0.4672(6)
N3 N 0.3775(5) 0.2246(6) 0.4572(6)
O1 O 0.4431(4) 0.4338(5) 0.6298(5)
O2 O 0.5109(4) 0.5681(5) 0.6581(5)
O3 O 0.4133(4) 0.2287(5) 0.6373(4)
O4 O 0.4421(4) 0.0746(5) 0.6506(5)
C1 C 0.1340(5) 0.3332(7) 0.3633(7)
H1 H 0.1213 0.4009 0.3474
H2 H 0.1474 0.3276 0.4313
C2 C 0.2006(5) 0.3058(7) 0.3290(7)
H3 H 0.2109 0.2372 0.3425
H4 H 0.1867 0.3132 0.2612
C3 C 0.2584(6) 0.4629(7) 0.3384(7)
H5 H 0.2512 0.4673 0.2709
H6 H 0.2119 0.4851 0.3525
C4 C 0.3213(5) 0.5274(7) 0.3851(7)
C5 C 0.3352(6) 0.6143(7) 0.3478(8)
H7 H 0.3063 0.6330 0.2885
C6 C 0.3901(6) 0.6723(7) 0.3961(8)
H8 H 0.3993 0.7320 0.3710
C7 C 0.4332(6) 0.6441(7) 0.4831(7)
H9 H 0.4709 0.6844 0.5189
C8 C 0.4187(6) 0.5546(7) 0.5151(7)
C9 C 0.4621(5) 0.5169(7) 0.6089(7)
C10 C 0.3285(6) 0.3229(7) 0.3226(7)
H10 H 0.3699 0.3694 0.3304
H11 H 0.3057 0.3148 0.2558
C11 C 0.3590(6) 0.2280(7) 0.3639(7)
C12 C 0.3688(5) 0.1499(8) 0.3118(7)
H12 H 0.3560 0.1535 0.2465
C13 C 0.3978(6) 0.0656(8) 0.3572(8)
H13 H 0.4059 0.0112 0.3232
C14 C 0.4145(6) 0.0629(8) 0.4517(8)
H14 H 0.4335 0.0058 0.4835
C15 C 0.4038(6) 0.1432(8) 0.5011(6)
C16 C 0.4213(5) 0.1484(9) 0.6035(7)
N4 N -0.0722(4) 0.2594(6) 0.3269(5)
H15 H -0.0893 0.2838 0.2677
N5 N -0.1862(4) 0.0949(5) 0.2144(6)
N6 N -0.2178(5) 0.2988(6) 0.2360(6)
O5 O -0.2632(4) 0.0490(5) 0.0414(5)
O6 O -0.3669(4) 0.0206(5) 0.0869(5)
O7 O -0.2497(4) 0.2648(5) 0.0502(5)
O8 O -0.3559(4) 0.3457(6) 0.0313(5)
C17 C 0.0661(5) 0.2717(7) 0.3232(7)
H16 H 0.0783 0.2034 0.3355
H17 H 0.0488 0.2812 0.2557
C18 C 0.0057(5) 0.3023(9) 0.3691(6)
H18 H 0.0017 0.3728 0.3662
H19 H 0.0217 0.2841 0.4350
C19 C -0.0692(5) 0.1512(7) 0.3190(6)
H20 H -0.0472 0.1348 0.2676
H21 H -0.0359 0.1253 0.3763
C20 C -0.1446(5) 0.1037(7) 0.3026(7)
C21 C -0.1694(6) 0.0734(7) 0.3766(6)
H22 H -0.1373 0.0773 0.4371
C22 C -0.2416(6) 0.0367(7) 0.3633(8)
H23 H -0.2596 0.0165 0.4139
C23 C -0.2859(6) 0.0309(7) 0.2735(7)
H24 H -0.3361 0.0092 0.2609
C24 C -0.2548(5) 0.0578(7) 0.2035(7)
C25 C -0.2994(6) 0.0401(7) 0.1033(7)
C26 C -0.1242(5) 0.2936(8) 0.3815(7)
H25 H -0.1077 0.3575 0.4068
H26 H -0.1206 0.2498 0.4341
C27 C -0.2041(6) 0.2996(7) 0.3275(7)
C28 C -0.2612(6) 0.3105(8) 0.3717(8)
H27 H -0.2498 0.3114 0.4371
C29 C -0.3345(6) 0.3201(8) 0.3203(8)
H28 H -0.3745 0.3270 0.3487
C30 C -0.3468(6) 0.3191(8) 0.2243(7)
H29 H -0.3961 0.3264 0.1862
C31 C -0.2880(6) 0.3077(7) 0.1848(7)
C32 C -0.2999(6) 0.3056(7) 0.0809(7)
Tb1C Tb -0.16317(3) 0.14925(3) 0.05217(3)
N5C N 0.3138(4) 0.4051(5) 0.7144(6)
O5C O 0.2368(4) 0.4510(5) 0.5414(5)
O7C O 0.2503(4) 0.2352(5) 0.5502(5)
O9 O -0.7004(5) 0.5503(6) 0.1078(6)
O10 O -0.6165(5) 0.0853(5) 0.0915(5)
O11 O -0.5747(5) 0.4312(6) 0.1600(5)
O12 O -0.6669(5) 0.2741(6) 0.0862(5)
O13 O -0.7955(6) 0.3834(6) 0.0650(7)
O14 O 0.4132(6) -0.1209(7) 0.6039(8)
O15 O -0.5061(5) 0.5902(8) -0.0381(6)
O16 O -0.4714(17) 0.131(2) 0.161(2)
O17 O -0.4967(18) 0.239(2) 0.270(2)
O18? O -0.4734(11) 0.0459(15) 0.1921(14)
loop_
_geom_bond_atom_site_label_1
_geom_bond_atom_site_label_2
_geom_bond_site_symmetry_1
_geom_bond_site_symmetry_2
Tb1 N1 1_555 1_555
N1 C2 1_555 1_555
N2 Tb1 1_555 1_555
N3 Tb1 1_555 1_555
O1 Tb1 1_555 1_555
O2 C9 1_555 1_555
O3 Tb1 1_555 1_555
O4 C16 1_555 1_555
C1 H1 1_555 1_555
H2 C1 1_555 1_555
C2 C1 1_555 1_555
H3 C2 1_555 1_555
H4 C2 1_555 1_555
C3 N1 1_555 1_555
H5 C3 1_555 1_555
H6 C3 1_555 1_555
C4 N2 1_555 1_555
C5 C4 1_555 1_555
H7 C5 1_555 1_555
C6 C5 1_555 1_555
H8 C6 1_555 1_555
C7 C6 1_555 1_555
H9 C7 1_555 1_555
C8 N2 1_555 1_555
C9 O1 1_555 1_555
C10 N1 1_555 1_555
H10 C10 1_555 1_555
H11 C10 1_555 1_555
C11 N3 1_555 1_555
C12 C11 1_555 1_555
H12 C12 1_555 1_555
C13 C12 1_555 1_555
H13 C13 1_555 1_555
C14 C13 1_555 1_555
H14 C14 1_555 1_555
C15 N3 1_555 1_555
C16 O3 1_555 1_555
N4 H15 1_555 1_555
N5 C20 1_555 1_555
N6 C27 1_555 1_555
O5 C25 1_555 1_555
O6 C25 1_555 1_555
O7 C32 1_555 1_555
O8 C32 1_555 1_555
C17 C1 1_555 1_555
H16 C17 1_555 1_555
H17 C17 1_555 1_555
C18 N4 1_555 1_555
H18 C18 1_555 1_555
H19 C18 1_555 1_555
C19 N4 1_555 1_555
H20 C19 1_555 1_555
H21 C19 1_555 1_555
C20 C19 1_555 1_555
C21 C20 1_555 1_555
H22 C21 1_555 1_555
C22 C21 1_555 1_555
H23 C22 1_555 1_555
C23 C22 1_555 1_555
H24 C23 1_555 1_555
C24 N5 1_555 1_555
C25 C24 1_555 1_555
C26 N4 1_555 1_555
H25 C26 1_555 1_555
H26 C26 1_555 1_555
C27 C26 1_555 1_555
C28 C27 1_555 1_555
H27 C28 1_555 1_555
C29 C28 1_555 1_555
H28 C29 1_555 1_555
C30 C29 1_555 1_555
H29 C30 1_555 1_555
C31 N6 1_555 1_555
C32 C31 1_555 1_555
Tb1C N5 1_555 1_555
N5C Tb1 1_555 1_555
O5C Tb1 1_555 1_555
O7C Tb1 1_555 1_555
C3 C4 1_555 1_555
C7 C8 1_555 1_555
C8 C9 1_555 1_555
C10 C11 1_555 1_555
C14 C15 1_555 1_555
C15 C16 1_555 1_555
O5 Tb1C 1_555 1_555
O7 Tb1C 1_555 1_555
C17 C18 1_555 1_555
C23 C24 1_555 1_555
C30 C31 1_555 1_555

#END
