
#######################################################################
#
#                 Cambridge Crystallographic Data Centre
#                                CCDC 
#
#######################################################################
#
# If this CIF has been generated from an entry in the Cambridge 
# Structural Database, then it will include bibliographic, chemical, 
# crystal, experimental, refinement or atomic coordinate data resulting 
# from the CCDC's data processing and validation procedures.
#
#######################################################################

data_RUDDUQ
_symmetry_cell_setting           triclinic
_symmetry_space_group_name_H-M   'P -1'
_symmetry_Int_Tables_number      2
_space_group_name_Hall           '-P 1'
loop_
_symmetry_equiv_pos_site_id
_symmetry_equiv_pos_as_xyz
1 x,y,z
2 -x,-y,-z
_cell_length_a                   8.4780(9)
_cell_length_b                   10.6648(11)
_cell_length_c                   12.3914(13)
_cell_angle_alpha                64.564(2)
_cell_angle_beta                 87.833(2)
_cell_angle_gamma                70.976(2)
_cell_volume                     949.641
loop_
_atom_site_label
_atom_site_type_symbol
_atom_site_fract_x
_atom_site_fract_y
_atom_site_fract_z
Ag1 Ag 0.74221(4) 0.81101(3) 0.48039(3)
Ag2 Ag 0.72848(4) 1.09518(4) 0.49211(3)
O1 O 0.8788(4) 1.1041(4) 0.3368(3)
O2 O 0.7966(4) 0.9488(3) 0.2979(2)
O3 O 0.6708(4) 0.9736(4) 0.6757(2)
O4 O 0.5648(3) 0.8314(3) 0.6355(2)
F1 F 0.9063(5) 1.2415(4) 0.1046(3)
F2 F 1.0742(3) 1.0237(4) 0.1533(2)
F3 F 0.8323(3) 1.0920(4) 0.0688(2)
F4 F 0.7409(3) 0.6913(4) 0.8913(2)
F5 F 0.4798(3) 0.7329(3) 0.8592(2)
F6 F 0.5604(4) 0.8829(4) 0.8905(3)
C1 C 1.0029(4) 0.5988(4) 0.7259(3)
H1 H 1.0112 0.6887 0.7136
C2 C 1.0810(4) 0.4764(5) 0.8311(3)
H2 H 1.1407 0.4836 0.8884
C3 C 1.0695(5) 0.3441(5) 0.8502(3)
H3 H 1.1209 0.2595 0.9209
C4 C 0.9803(5) 0.3375(4) 0.7628(3)
H4 H 0.9720 0.2482 0.7735
C5 C 0.9037(4) 0.4651(4) 0.6594(3)
C6 C 0.8029(4) 0.4677(4) 0.5610(3)
C7 C 0.7963(4) 0.3348(4) 0.5639(3)
H5 H 0.8537 0.2459 0.6296
C8 C 0.6315(4) 0.4627(4) 0.3836(3)
C9 C 0.5417(4) 0.4678(4) 0.2871(3)
H6 H 0.5370 0.3812 0.2886
C10 C 0.4625(5) 0.6003(5) 0.1921(4)
H7 H 0.4041 0.6032 0.1286
C11 C 0.4666(5) 0.7319(5) 0.1877(3)
H8 H 0.4107 0.8212 0.1218
C12 C 0.5517(4) 0.7306(4) 0.2791(3)
H9 H 0.5539 0.8190 0.2754
C13 C 0.6361(4) 0.5968(4) 0.3790(3)
C14 C 0.8560(4) 1.0475(4) 0.2738(3)
C15 C 0.9167(5) 1.1034(5) 0.1488(4)
C16 C 0.6089(4) 0.8768(4) 0.7006(3)
C17 C 0.5969(5) 0.7958(5) 0.8360(4)
N1 N 0.9158(3) 0.5957(3) 0.6405(3)
N2 N 0.7233(3) 0.5950(3) 0.4700(2)
N3 N 0.7145(4) 0.3311(3) 0.4797(3)
Ag2_2 Ag 0.72848(4) 0.09518(4) 0.49211(3)
N3_2 N 0.7145(4) 1.3311(3) 0.4797(3)
loop_
_geom_bond_atom_site_label_1
_geom_bond_atom_site_label_2
_geom_bond_site_symmetry_1
_geom_bond_site_symmetry_2
Ag1 O2 1_555 1_555
Ag2 O1 1_555 1_555
O1 C14 1_555 1_555
O2 C14 1_555 1_555
O3 Ag2 1_555 1_555
O4 Ag1 1_555 1_555
F1 C15 1_555 1_555
F2 C15 1_555 1_555
F3 C15 1_555 1_555
F4 C17 1_555 1_555
F5 C17 1_555 1_555
F6 C17 1_555 1_555
C1 H1 1_555 1_555
C2 C1 1_555 1_555
H2 C2 1_555 1_555
C3 C2 1_555 1_555
H3 C3 1_555 1_555
C4 C3 1_555 1_555
H4 C4 1_555 1_555
C5 C4 1_555 1_555
C6 C5 1_555 1_555
C7 C6 1_555 1_555
H5 C7 1_555 1_555
C8 C9 1_555 1_555
C9 H6 1_555 1_555
C10 C9 1_555 1_555
H7 C10 1_555 1_555
C11 C10 1_555 1_555
H8 C11 1_555 1_555
C12 C11 1_555 1_555
H9 C12 1_555 1_555
C13 C8 1_555 1_555
C14 C15 1_555 1_555
C16 O3 1_555 1_555
C17 C16 1_555 1_555
N1 Ag1 1_555 1_555
N2 Ag1 1_555 1_555
N3 C7 1_555 1_555
Ag2_2 N3 1_555 1_555
N3_2 Ag2 1_555 1_555
O4 C16 1_555 1_555
C1 N1 1_555 1_555
C5 N1 1_555 1_555
C6 N2 1_555 1_555
C8 N3 1_555 1_555
C12 C13 1_555 1_555
C13 N2 1_555 1_555

#END
