
#######################################################################
#
#                 Cambridge Crystallographic Data Centre
#                                CCDC 
#
#######################################################################
#
# If this CIF has been generated from an entry in the Cambridge 
# Structural Database, then it will include bibliographic, chemical, 
# crystal, experimental, refinement or atomic coordinate data resulting 
# from the CCDC's data processing and validation procedures.
#
#######################################################################

data_RUDGIH
_symmetry_cell_setting           monoclinic
_symmetry_space_group_name_H-M   'P 21/n'
_symmetry_Int_Tables_number      14
_space_group_name_Hall           '-P 2yn'
loop_
_symmetry_equiv_pos_site_id
_symmetry_equiv_pos_as_xyz
1 x,y,z
2 1/2-x,1/2+y,1/2-z
3 -x,-y,-z
4 1/2+x,1/2-y,1/2+z
_cell_length_a                   8.4129(15)
_cell_length_b                   13.712(2)
_cell_length_c                   9.2099(16)
_cell_angle_alpha                90
_cell_angle_beta                 93.960(3)
_cell_angle_gamma                90
_cell_volume                     1059.9
loop_
_atom_site_label
_atom_site_type_symbol
_atom_site_fract_x
_atom_site_fract_y
_atom_site_fract_z
Cd1 Cd 0.24924(5) -0.00203(2) 0.49700(4)
Br1 Br 0.49194(8) 0.00491(4) 0.28676(7)
Br2 Br 0.01153(8) -0.00605(4) 0.71367(7)
C1 C 0.2043(8) 0.2271(4) 0.4027(7)
H1 H 0.1616 0.2122 0.3095
C2 C 0.2885(9) 0.3095(4) 0.5959(8)
H2 H 0.3134 0.3597 0.6615
C3 C 0.3025(8) 0.2156(5) 0.6227(7)
H3 H 0.3438 0.1898 0.7107
C4 C 0.1333(8) -0.2220(5) 0.4242(8)
H4 H 0.0412 -0.1981 0.3750
C5 C 0.1671(8) -0.3149(4) 0.4383(8)
H5 H 0.1038 -0.3663 0.4027
C6 C 0.3610(8) -0.2294(4) 0.5453(7)
H6 H 0.4566 -0.2129 0.5962
N1 N 0.2509(5) 0.1621(4) 0.5094(5)
N2 N 0.2328(9) 0.3197(5) 0.4596(10)
H7 H 0.2169 0.3739 0.4141
N3 N 0.2454(5) -0.1662(4) 0.4880(5)
N4 N 0.3053(12) -0.3226(5) 0.5112(8)
H8 H 0.3536 -0.3762 0.5343
Cd1B Cd -0.24924(5) 0.00203(2) 0.50300(4)
Cd1_2 Cd -0.75076(5) -0.00203(2) 0.49700(4)
Cd1B_2 Cd 0.75076(5) 0.00203(2) 0.50300(4)
Br1B Br -0.49194(8) -0.00491(4) 0.71324(7)
Br1_2 Br -0.50806(8) 0.00491(4) 0.28676(7)
Br1B_2 Br 0.50806(8) -0.00491(4) 0.71324(7)
Br2B Br -0.01153(8) 0.00605(4) 0.28633(7)
C1B C -0.2043(8) -0.2271(4) 0.5973(7)
H1B H -0.1616 -0.2122 0.6905
C2B C -0.2885(9) -0.3095(4) 0.4041(8)
H2B H -0.3134 -0.3597 0.3385
C3B C -0.3025(8) -0.2156(5) 0.3773(7)
H3B H -0.3438 -0.1898 0.2893
C4B C -0.1333(8) 0.2220(5) 0.5758(8)
H4B H -0.0412 0.1981 0.6250
C5B C -0.1671(8) 0.3149(4) 0.5617(8)
H5B H -0.1038 0.3663 0.5973
C6B C -0.3610(8) 0.2294(4) 0.4547(7)
H6B H -0.4566 0.2129 0.4038
N1B N -0.2509(5) -0.1621(4) 0.4906(5)
N2B N -0.2328(9) -0.3197(5) 0.5404(10)
H7B H -0.2169 -0.3739 0.5859
N3B N -0.2454(5) 0.1662(4) 0.5120(5)
N4B N -0.3053(12) 0.3226(5) 0.4888(8)
H8B H -0.3536 0.3762 0.4657
loop_
_geom_bond_atom_site_label_1
_geom_bond_atom_site_label_2
_geom_bond_site_symmetry_1
_geom_bond_site_symmetry_2
Cd1 Br1 1_555 1_555
Br1 Cd1B_2 1_555 1_555
Br2 Cd1 1_555 1_555
C1 H1 1_555 1_555
C2 H2 1_555 1_555
C3 C2 1_555 1_555
H3 C3 1_555 1_555
C4 H4 1_555 1_555
C5 C4 1_555 1_555
H5 C5 1_555 1_555
C6 H6 1_555 1_555
N1 Cd1 1_555 1_555
N2 C1 1_555 1_555
H7 N2 1_555 1_555
N3 Cd1 1_555 1_555
N4 C5 1_555 1_555
H8 N4 1_555 1_555
Cd1B Br2 1_555 1_555
Cd1_2 Br1B 1_555 1_555
Cd1B_2 Br1B_2 1_555 1_555
Br1B Cd1B 1_555 1_555
Br1_2 Cd1B 1_555 1_555
Br1B_2 Cd1 1_555 1_555
Br2B Cd1 1_555 1_555
C1B H1B 1_555 1_555
C2B H2B 1_555 1_555
C3B C2B 1_555 1_555
H3B C3B 1_555 1_555
C4B H4B 1_555 1_555
C5B C4B 1_555 1_555
H5B C5B 1_555 1_555
C6B H6B 1_555 1_555
N1B Cd1B 1_555 1_555
N2B C1B 1_555 1_555
H7B N2B 1_555 1_555
N3B Cd1B 1_555 1_555
N4B C5B 1_555 1_555
H8B N4B 1_555 1_555
C1 N1 1_555 1_555
C2 N2 1_555 1_555
C3 N1 1_555 1_555
C4 N3 1_555 1_555
C6 N3 1_555 1_555
C6 N4 1_555 1_555
Cd1B Br2B 1_555 1_555
Cd1_2 Br1_2 1_555 1_555
C1B N1B 1_555 1_555
C2B N2B 1_555 1_555
C3B N1B 1_555 1_555
C4B N3B 1_555 1_555
C6B N3B 1_555 1_555
C6B N4B 1_555 1_555

#END
