
#######################################################################
#
#                 Cambridge Crystallographic Data Centre
#                                CCDC 
#
#######################################################################
#
# If this CIF has been generated from an entry in the Cambridge 
# Structural Database, then it will include bibliographic, chemical, 
# crystal, experimental, refinement or atomic coordinate data resulting 
# from the CCDC's data processing and validation procedures.
#
#######################################################################

data_RUDLIN
_symmetry_cell_setting           monoclinic
_symmetry_space_group_name_H-M   'P 21/c'
_symmetry_Int_Tables_number      14
_space_group_name_Hall           '-P 2ybc'
loop_
_symmetry_equiv_pos_site_id
_symmetry_equiv_pos_as_xyz
1 x,y,z
2 -x,1/2+y,1/2-z
3 -x,-y,-z
4 x,1/2-y,1/2+z
_cell_length_a                   19.1000(18)
_cell_length_b                   9.9449(5)
_cell_length_c                   8.0106(6)
_cell_angle_alpha                90
_cell_angle_beta                 93.188(7)
_cell_angle_gamma                90
_cell_volume                     1519.24
loop_
_atom_site_label
_atom_site_type_symbol
_atom_site_fract_x
_atom_site_fract_y
_atom_site_fract_z
S1 S 0.11857(4) 0.53560(6) 0.56650(8)
O1 O 0.07994(10) 0.54080(19) 0.7182(2)
O2 O 0.09630(10) 0.63863(19) 0.4456(2)
O3 O 0.11914(10) 0.40244(19) 0.4938(2)
C1 C 0.20711(14) 0.5704(3) 0.6296(3)
C2 C 0.22327(15) 0.6658(3) 0.7515(4)
H1 H 0.1871 0.7165 0.7983
C3 C 0.29290(14) 0.6867(3) 0.8050(4)
H2 H 0.3042 0.7519 0.8889
C4 C 0.34629(14) 0.6128(3) 0.7366(3)
C5 C 0.32979(15) 0.5214(3) 0.6106(4)
H3 H 0.3661 0.4738 0.5597
C6 C 0.26025(15) 0.4990(3) 0.5579(3)
H4 H 0.2490 0.4347 0.4729
N1 N 0.41527(12) 0.6363(2) 0.8065(3)
C7 C 0.46624(15) 0.5576(3) 0.7728(3)
H5 H 0.4574 0.4832 0.7003
C8 C 0.53639(14) 0.5804(3) 0.8430(3)
C9 C 0.59159(16) 0.4952(3) 0.8015(4)
H6 H 0.5820 0.4222 0.7273
C10 C 0.65924(16) 0.5148(3) 0.8659(4)
H7 H 0.6962 0.4582 0.8333
C11 C 0.67245(14) 0.6182(3) 0.9787(4)
H8 H 0.7188 0.6316 1.0249
C12 C 0.61941(14) 0.7026(3) 1.0255(4)
H9 H 0.6293 0.7720 1.1048
C13 C 0.55189(15) 0.6857(3) 0.9566(3)
O4 O 0.50149(10) 0.7719(2) 0.9998(3)
H10 H 0.4630 0.7496 0.9518
Na1 Na 0.02246(6) 0.66659(11) 0.91885(13)
O5 O 0.07472(10) 0.5063(2) 1.1186(2)
H11 H 0.0779 0.5449 1.2092
C14 C 0.14536(15) 0.4642(3) 1.1001(4)
H12 H 0.1509 0.4368 0.9841
H13 H 0.1563 0.3881 1.1747
H14 H 0.1773 0.5388 1.1288
O6 O -0.03248(9) 0.72081(18) 1.1808(2)
H15 H -0.0655 0.7656 1.1416
H16 H -0.0505 0.6513 1.2128
O2C O 0.09630(10) 0.86137(19) 0.9456(2)
Na1B Na -0.02246(6) 0.33341(11) 1.08115(13)
Na1C Na 0.02246(6) 0.83341(11) 0.41885(13)
Na1C_2 Na 0.02246(6) 0.83341(11) 1.41885(13)
O5B O -0.07472(10) 0.4937(2) 0.8814(2)
O6C O -0.03248(9) 0.77919(18) 0.6808(2)
loop_
_geom_bond_atom_site_label_1
_geom_bond_atom_site_label_2
_geom_bond_site_symmetry_1
_geom_bond_site_symmetry_2
S1 O1 1_555 1_555
O1 Na1 1_555 1_555
O2 S1 1_555 1_555
O3 S1 1_555 1_555
C1 S1 1_555 1_555
C2 C1 1_555 1_555
H1 C2 1_555 1_555
C3 C2 1_555 1_555
H2 C3 1_555 1_555
C4 C3 1_555 1_555
C5 C4 1_555 1_555
H3 C5 1_555 1_555
C6 C1 1_555 1_555
H4 C6 1_555 1_555
N1 C4 1_555 1_555
C7 N1 1_555 1_555
H5 C7 1_555 1_555
C8 C7 1_555 1_555
C9 C8 1_555 1_555
H6 C9 1_555 1_555
C10 C9 1_555 1_555
H7 C10 1_555 1_555
C11 C10 1_555 1_555
H8 C11 1_555 1_555
C12 C11 1_555 1_555
H9 C12 1_555 1_555
C13 C8 1_555 1_555
O4 C13 1_555 1_555
H10 O4 1_555 1_555
Na1 O5 1_555 1_555
O5 H11 1_555 1_555
C14 O5 1_555 1_555
H12 C14 1_555 1_555
H13 C14 1_555 1_555
H14 C14 1_555 1_555
O6 Na1 1_555 1_555
H15 O6 1_555 1_555
H16 O6 1_555 1_555
O2C Na1 1_555 1_555
Na1B O5 1_555 1_555
Na1C O2 1_555 1_555
Na1C_2 O6 1_555 1_555
O5B Na1 1_555 1_555
O6C Na1 1_555 1_555
C5 C6 1_555 1_555
C12 C13 1_555 1_555
Na1B O5B 1_555 1_555
Na1C O6C 1_555 1_555

#END
