
#######################################################################
#
#                 Cambridge Crystallographic Data Centre
#                                CCDC 
#
#######################################################################
#
# If this CIF has been generated from an entry in the Cambridge 
# Structural Database, then it will include bibliographic, chemical, 
# crystal, experimental, refinement or atomic coordinate data resulting 
# from the CCDC's data processing and validation procedures.
#
#######################################################################

data_RUDNOU
_symmetry_cell_setting           triclinic
_symmetry_space_group_name_H-M   'P -1'
_symmetry_Int_Tables_number      2
_space_group_name_Hall           '-P 1'
loop_
_symmetry_equiv_pos_site_id
_symmetry_equiv_pos_as_xyz
1 x,y,z
2 -x,-y,-z
_cell_length_a                   9.1802(8)
_cell_length_b                   10.8008(9)
_cell_length_c                   13.5437(9)
_cell_angle_alpha                84.491(6)
_cell_angle_beta                 75.063(7)
_cell_angle_gamma                79.055(7)
_cell_volume                     1272.36
loop_
_atom_site_label
_atom_site_type_symbol
_atom_site_fract_x
_atom_site_fract_y
_atom_site_fract_z
Eu1 Eu 0.65739(4) 0.31035(3) 0.24700(2)
Pt1 Pt 1.05065(3) 0.34319(2) 0.47975(2)
Pt2 Pt 0.5000 0.0000 0.0000
O1 O 0.5557(6) 0.4743(6) 0.3718(5)
O2 O 0.7438(9) 0.5160(6) 0.1735(5)
O3 O 0.4945(8) 0.4368(7) 0.1387(6)
C1 C 0.9488(9) 0.3428(6) 0.3679(6)
C2 C 1.1501(8) 0.3468(7) 0.5935(6)
C3 C 0.2568(9) 0.3202(7) 0.3825(6)
C4 C 0.8451(9) 0.3607(7) 0.5764(7)
C5 C 0.5516(9) 0.0837(8) 0.1090(6)
C6 C 0.5294(10) -0.1676(9) 0.0699(7)
C7 C 0.8334(13) 0.3395(10) -0.0089(7)
H1 H 0.7518 0.4064 -0.0023
C8 C 0.9305(14) 0.3220(11) -0.1034(7)
H2 H 0.9130 0.3731 -0.1599
C9 C 1.0557(12) 0.2258(10) -0.1125(7)
H3 H 1.1266 0.2130 -0.1751
C10 C 1.0736(10) 0.1495(9) -0.0278(6)
H4 H 1.1558 0.0832 -0.0327
C11 C 0.9687(9) 0.1722(7) 0.0644(6)
C12 C 0.9863(9) 0.0917(7) 0.1586(6)
C13 C 1.1142(10) 0.0045(9) 0.1594(7)
H5 H 1.1936 -0.0062 0.1007
C14 C 1.1261(10) -0.0683(9) 0.2477(7)
H6 H 1.2132 -0.1279 0.2492
C15 C 1.0071(9) -0.0509(8) 0.3327(6)
H7 H 1.0109 -0.0997 0.3927
C16 C 0.8793(8) 0.0419(6) 0.3277(6)
C17 C 0.7524(8) 0.0694(7) 0.4206(5)
C18 C 0.7391(11) -0.0060(8) 0.5095(6)
H8 H 0.8085 -0.0807 0.5109
C19 C 0.6280(11) 0.0256(9) 0.5947(6)
H9 H 0.6200 -0.0269 0.6537
C20 C 0.5276(10) 0.1364(9) 0.5925(6)
H10 H 0.4516 0.1627 0.6502
C21 C 0.5436(9) 0.2081(8) 0.5007(6)
H11 H 0.4753 0.2833 0.4988
N1 N 0.8839(8) 0.3438(6) 0.3060(5)
N2 N 1.2061(8) 0.3521(7) 0.6591(5)
N3 N 0.3776(7) 0.3044(6) 0.3307(5)
N4 N 0.7260(9) 0.3700(8) 0.6305(7)
N5 N 0.5811(8) 0.1376(7) 0.1675(5)
N6 N 0.5491(12) -0.2692(10) 0.1063(8)
N7 N 0.8480(8) 0.2665(7) 0.0752(5)
N8 N 0.8671(7) 0.1112(6) 0.2428(4)
N9 N 0.6498(7) 0.1763(6) 0.4154(4)
Eu1A Eu 0.34261(4) -0.31035(3) -0.24700(2)
Pt1A Pt -0.05065(3) -0.34319(2) -0.47975(2)
Pt1_2 Pt 0.05065(3) 0.34319(2) 0.47975(2)
Pt1A_2 Pt 0.94935(3) -0.34319(2) -0.47975(2)
O1A O 0.4443(6) -0.4743(6) -0.3718(5)
O2A O 0.2562(9) -0.5160(6) -0.1735(5)
O3A O 0.5055(8) -0.4368(7) -0.1387(6)
C1A C 0.0512(9) -0.3428(6) -0.3679(6)
C2A C -0.1501(8) -0.3468(7) -0.5935(6)
C3A C 0.7432(9) -0.3202(7) -0.3825(6)
C3_2 C 1.2568(9) 0.3202(7) 0.3825(6)
C3A_2 C -0.2568(9) -0.3202(7) -0.3825(6)
C4A C 0.1549(9) -0.3607(7) -0.5764(7)
C5A C 0.4484(9) -0.0837(8) -0.1090(6)
C6A C 0.4706(10) 0.1676(9) -0.0699(7)
C7A C 0.1666(13) -0.3395(10) 0.0089(7)
H1A H 0.2482 -0.4064 0.0023
C8A C 0.0695(14) -0.3220(11) 0.1034(7)
H2A H 0.0870 -0.3731 0.1599
C9A C -0.0557(12) -0.2258(10) 0.1125(7)
H3A H -0.1266 -0.2130 0.1751
C10A C -0.0736(10) -0.1495(9) 0.0278(6)
H4A H -0.1558 -0.0832 0.0327
C11A C 0.0313(9) -0.1722(7) -0.0644(6)
C12A C 0.0137(9) -0.0917(7) -0.1586(6)
C13A C -0.1142(10) -0.0045(9) -0.1594(7)
H5A H -0.1936 0.0062 -0.1007
C14A C -0.1261(10) 0.0683(9) -0.2477(7)
H6A H -0.2132 0.1279 -0.2492
C15A C -0.0071(9) 0.0509(8) -0.3327(6)
H7A H -0.0109 0.0997 -0.3927
C16A C 0.1207(8) -0.0419(6) -0.3277(6)
C17A C 0.2476(8) -0.0694(7) -0.4206(5)
C18A C 0.2609(11) 0.0060(8) -0.5095(6)
H8A H 0.1915 0.0807 -0.5109
C19A C 0.3720(11) -0.0256(9) -0.5947(6)
H9A H 0.3800 0.0269 -0.6537
C20A C 0.4724(10) -0.1364(9) -0.5925(6)
H10A H 0.5484 -0.1627 -0.6502
C21A C 0.4564(9) -0.2081(8) -0.5007(6)
H11A H 0.5247 -0.2833 -0.4988
N1A N 0.1161(8) -0.3438(6) -0.3060(5)
N2A N -0.2061(8) -0.3521(7) -0.6591(5)
N3A N 0.6224(7) -0.3044(6) -0.3307(5)
N4A N 0.2740(9) -0.3700(8) -0.6305(7)
N5A N 0.4189(8) -0.1376(7) -0.1675(5)
N6A N 0.4509(12) 0.2692(10) -0.1063(8)
N7A N 0.1520(8) -0.2665(7) -0.0752(5)
N8A N 0.1329(7) -0.1112(6) -0.2428(4)
N9A N 0.3502(7) -0.1763(6) -0.4154(4)
O4 O 0.2320(12) 0.3614(10) 0.1195(8)
loop_
_geom_bond_atom_site_label_1
_geom_bond_atom_site_label_2
_geom_bond_site_symmetry_1
_geom_bond_site_symmetry_2
Eu1 O1 1_555 1_555
Pt1 C1 1_555 1_555
Pt2 C5 1_555 1_555
O2 Eu1 1_555 1_555
O3 Eu1 1_555 1_555
C1 N1 1_555 1_555
C2 Pt1 1_555 1_555
C3 N3 1_555 1_555
C4 Pt1 1_555 1_555
C5 N5 1_555 1_555
C6 Pt2 1_555 1_555
C7 H1 1_555 1_555
C8 C7 1_555 1_555
H2 C8 1_555 1_555
C9 C8 1_555 1_555
H3 C9 1_555 1_555
C10 C9 1_555 1_555
H4 C10 1_555 1_555
C11 C10 1_555 1_555
C12 C11 1_555 1_555
C13 C12 1_555 1_555
H5 C13 1_555 1_555
C14 C13 1_555 1_555
H6 C14 1_555 1_555
C15 C14 1_555 1_555
H7 C15 1_555 1_555
C16 C15 1_555 1_555
C17 C16 1_555 1_555
C18 C17 1_555 1_555
H8 C18 1_555 1_555
C19 C18 1_555 1_555
H9 C19 1_555 1_555
C20 C19 1_555 1_555
H10 C20 1_555 1_555
C21 C20 1_555 1_555
H11 C21 1_555 1_555
N1 Eu1 1_555 1_555
N2 C2 1_555 1_555
N3 Eu1 1_555 1_555
N4 C4 1_555 1_555
N5 Eu1 1_555 1_555
N6 C6 1_555 1_555
N7 Eu1 1_555 1_555
N8 Eu1 1_555 1_555
N9 Eu1 1_555 1_555
Eu1A O1A 1_555 1_555
Pt1A C1A 1_555 1_555
Pt1_2 C3 1_555 1_555
Pt1A_2 C3A 1_555 1_555
O2A Eu1A 1_555 1_555
O3A Eu1A 1_555 1_555
C1A N1A 1_555 1_555
C2A Pt1A 1_555 1_555
C3A N3A 1_555 1_555
C3_2 Pt1 1_555 1_555
C3A_2 Pt1A 1_555 1_555
C4A Pt1A 1_555 1_555
C5A Pt2 1_555 1_555
C6A Pt2 1_555 1_555
C7A H1A 1_555 1_555
C8A C7A 1_555 1_555
H2A C8A 1_555 1_555
C9A C8A 1_555 1_555
H3A C9A 1_555 1_555
C10A C9A 1_555 1_555
H4A C10A 1_555 1_555
C11A C10A 1_555 1_555
C12A C11A 1_555 1_555
C13A C12A 1_555 1_555
H5A C13A 1_555 1_555
C14A C13A 1_555 1_555
H6A C14A 1_555 1_555
C15A C14A 1_555 1_555
H7A C15A 1_555 1_555
C16A C15A 1_555 1_555
C17A C16A 1_555 1_555
C18A C17A 1_555 1_555
H8A C18A 1_555 1_555
C19A C18A 1_555 1_555
H9A C19A 1_555 1_555
C20A C19A 1_555 1_555
H10A C20A 1_555 1_555
C21A C20A 1_555 1_555
H11A C21A 1_555 1_555
N1A Eu1A 1_555 1_555
N2A C2A 1_555 1_555
N3A Eu1A 1_555 1_555
N4A C4A 1_555 1_555
N5A Eu1A 1_555 1_555
N6A C6A 1_555 1_555
N7A Eu1A 1_555 1_555
N8A Eu1A 1_555 1_555
N9A Eu1A 1_555 1_555
C7 N7 1_555 1_555
C11 N7 1_555 1_555
C12 N8 1_555 1_555
C16 N8 1_555 1_555
C17 N9 1_555 1_555
C21 N9 1_555 1_555
C5A N5A 1_555 1_555
C7A N7A 1_555 1_555
C11A N7A 1_555 1_555
C12A N8A 1_555 1_555
C16A N8A 1_555 1_555
C17A N9A 1_555 1_555
C21A N9A 1_555 1_555

#END
