
#######################################################################
#
#                 Cambridge Crystallographic Data Centre
#                                CCDC 
#
#######################################################################
#
# If this CIF has been generated from an entry in the Cambridge 
# Structural Database, then it will include bibliographic, chemical, 
# crystal, experimental, refinement or atomic coordinate data resulting 
# from the CCDC's data processing and validation procedures.
#
#######################################################################

data_RUDRUE
_symmetry_cell_setting           triclinic
_symmetry_space_group_name_H-M   'P -1'
_symmetry_Int_Tables_number      2
_space_group_name_Hall           '-P 1'
loop_
_symmetry_equiv_pos_site_id
_symmetry_equiv_pos_as_xyz
1 x,y,z
2 -x,-y,-z
_cell_length_a                   7.607(4)
_cell_length_b                   7.737(4)
_cell_length_c                   10.789(5)
_cell_angle_alpha                69.521(15)
_cell_angle_beta                 69.965(15)
_cell_angle_gamma                88.79(2)
_cell_volume                     555.332
loop_
_atom_site_label
_atom_site_type_symbol
_atom_site_fract_x
_atom_site_fract_y
_atom_site_fract_z
Pb1 Pb 0.71625(7) 0.48359(7) 0.05605(5)
Pb2 Pb 0.76849(8) 0.36241(7) -0.27423(6)
C1 C 1.0898(12) 0.8948(9) -0.3565(8)
C2 C 1.2338(12) 0.9910(11) -0.4840(7)
H1 H 1.2672 0.9454 -0.5572
C3 C 1.3280(11) 1.1551(11) -0.5022(7)
C4 C 1.2781(12) 1.2231(9) -0.3929(8)
H2 H 1.3410 1.3330 -0.4050
C5 C 1.1341(12) 1.1270(11) -0.2653(7)
C6 C 1.0400(11) 0.9628(11) -0.2471(7)
H3 H 0.9436 0.8985 -0.1618
C7 C 0.992(2) 0.7127(18) -0.3372(14)
C8 C 1.4667(19) 1.2739(18) -0.6485(14)
C9 C 1.087(2) 1.2008(18) -0.1437(14)
O1 O 0.5432(12) 0.3532(11) -0.0496(9)
H4 H 0.4813 0.2507 0.0116
O2 O 0.8391(14) 0.6450(13) -0.2284(9)
O3 O 0.5395(15) 0.0358(13) -0.1566(10)
H5 H 0.5475 -0.0078 -0.2203
H6 H 0.4355 0.0822 -0.1420
O4 O 1.0612(16) 0.6404(15) -0.4274(12)
O5 O 1.5361(15) 1.1977(13) -0.7361(9)
O6 O 1.4985(15) 1.4433(13) -0.6757(10)
O7 O 1.2189(16) 1.2012(14) -0.0943(10)
O8 O 0.9340(15) 1.2551(15) -0.1052(11)
Pb1A Pb 0.28375(7) 0.51641(7) -0.05605(5)
Pb1_2 Pb 1.71625(7) 1.48359(7) -0.94395(5)
Pb1A_2 Pb 1.28375(7) 1.51641(7) -0.05605(5)
Pb2A Pb 1.23151(8) 1.63759(7) -0.72577(6)
Pb2_2 Pb 0.76849(8) 1.36241(7) -0.27423(6)
O1A O 0.4568(12) 0.6468(11) 0.0496(9)
H4A H 0.5187 0.7493 -0.0116
O5_2 O 0.5361(15) 0.1977(13) 0.2639(9)
O6_2 O 0.4985(15) 0.4433(13) 0.3243(10)
O6A O 0.5015(15) 0.5567(13) -0.3243(10)
O7A O 0.7811(16) 0.7988(14) 0.0943(10)
O8_2 O 0.9340(15) 0.2551(15) -0.1052(11)
loop_
_geom_bond_atom_site_label_1
_geom_bond_atom_site_label_2
_geom_bond_site_symmetry_1
_geom_bond_site_symmetry_2
Pb1 O1 1_555 1_555
Pb2 O1 1_555 1_555
C1 C2 1_555 1_555
C2 H1 1_555 1_555
C3 C2 1_555 1_555
C4 C3 1_555 1_555
H2 C4 1_555 1_555
C5 C4 1_555 1_555
C6 C1 1_555 1_555
H3 C6 1_555 1_555
C7 C1 1_555 1_555
C8 C3 1_555 1_555
C9 C5 1_555 1_555
O1 H4 1_555 1_555
O2 Pb1 1_555 1_555
O3 Pb2 1_555 1_555
H5 O3 1_555 1_555
H6 O3 1_555 1_555
O4 Pb2 1_555 1_555
O5 C8 1_555 1_555
O6 C8 1_555 1_555
O7 C9 1_555 1_555
O8 C9 1_555 1_555
Pb1A O1 1_555 1_555
Pb1_2 O5 1_555 1_555
Pb1A_2 O7 1_555 1_555
Pb2A O6 1_555 1_555
Pb2_2 O8 1_555 1_555
O1A Pb1 1_555 1_555
H4A O1A 1_555 1_555
O5_2 Pb1 1_555 1_555
O6_2 Pb1 1_555 1_555
O6A Pb2 1_555 1_555
O7A Pb1 1_555 1_555
O8_2 Pb2 1_555 1_555
Pb2 O2 1_555 1_555
C5 C6 1_555 1_555
C7 O2 1_555 1_555
C7 O4 1_555 1_555
O6 Pb1_2 1_555 1_555
Pb1A O1A 1_555 1_555
Pb1A O6A 1_555 1_555

#END
