
#######################################################################
#
#                 Cambridge Crystallographic Data Centre
#                                CCDC 
#
#######################################################################
#
# If this CIF has been generated from an entry in the Cambridge 
# Structural Database, then it will include bibliographic, chemical, 
# crystal, experimental, refinement or atomic coordinate data resulting 
# from the CCDC's data processing and validation procedures.
#
#######################################################################

data_RUDTOA
_symmetry_cell_setting           orthorhombic
_symmetry_space_group_name_H-M   'P 21 21 21'
_symmetry_Int_Tables_number      19
_space_group_name_Hall           'P 2ac 2ab'
loop_
_symmetry_equiv_pos_site_id
_symmetry_equiv_pos_as_xyz
1 x,y,z
2 1/2-x,-y,1/2+z
3 -x,1/2+y,1/2-z
4 1/2+x,1/2-y,-z
_cell_length_a                   10.2622(9)
_cell_length_b                   11.0105(12)
_cell_length_c                   22.344(2)
_cell_angle_alpha                90
_cell_angle_beta                 90
_cell_angle_gamma                90
_cell_volume                     2524.69
loop_
_atom_site_label
_atom_site_type_symbol
_atom_site_fract_x
_atom_site_fract_y
_atom_site_fract_z
Sn1 Sn 0.44055(3) 0.91214(3) 0.881010(13)
N1 N 0.9754(3) 0.8712(3) 0.86140(18)
N2 N 0.9909(4) 0.9927(4) 0.84881(17)
H1 H 0.9251 1.0367 0.8389
N3 N 1.0110(4) 1.2185(4) 0.8083(2)
O1 O 0.7337(3) 1.0095(3) 0.84524(16)
O2 O 0.6345(3) 0.8450(3) 0.88128(16)
O3 O 1.2059(3) 0.9861(3) 0.87271(16)
C1 C 0.7339(4) 0.9054(5) 0.86320(18)
C2 C 0.8591(4) 0.8298(4) 0.8660(2)
C3 C 0.8464(5) 0.6967(4) 0.8767(4)
H2 H 0.9311 0.6597 0.8753
H3 H 0.7919 0.6617 0.8464
H4 H 0.8082 0.6831 0.9153
C4 C 1.1115(5) 1.0416(5) 0.8524(2)
C5 C 1.1188(5) 1.1707(5) 0.8323(2)
C6 C 1.2312(6) 1.2354(5) 0.8391(3)
H5 H 1.3048 1.1992 0.8556
C7 C 1.2344(7) 1.3558(6) 0.8210(3)
H6 H 1.3099 1.4016 0.8256
C8 C 1.1258(6) 1.4063(6) 0.7964(3)
H7 H 1.1258 1.4865 0.7833
C9 C 1.0156(6) 1.3348(6) 0.7914(3)
H8 H 0.9407 1.3696 0.7755
C10 C 0.3724(4) 0.7494(4) 0.92196(19)
C11 C 0.4586(6) 0.6846(4) 0.9577(2)
H9 H 0.5426 0.7141 0.9633
C12 C 0.4220(6) 0.5767(5) 0.9851(2)
H10 H 0.4816 0.5342 1.0084
C13 C 0.2987(7) 0.5332(5) 0.9778(3)
H11 H 0.2736 0.4610 0.9960
C14 C 0.2120(6) 0.5972(6) 0.9432(3)
H12 H 0.1276 0.5679 0.9383
C15 C 0.2481(5) 0.7040(5) 0.9156(2)
H13 H 0.1878 0.7460 0.8923
C16 C 0.4224(4) 0.9300(4) 0.78627(17)
C17 C 0.3600(5) 0.8390(4) 0.7544(2)
H14 H 0.3265 0.7719 0.7745
C18 C 0.3471(6) 0.8474(6) 0.6925(3)
H15 H 0.3047 0.7861 0.6715
C19 C 0.3964(5) 0.9455(6) 0.6623(2)
H16 H 0.3889 0.9502 0.6209
C20 C 0.4566(6) 1.0359(5) 0.6933(2)
H17 H 0.4886 1.1033 0.6730
C21 C 0.4705(5) 1.0281(4) 0.7553(2)
H18 H 0.5127 1.0901 0.7759
C22 C 0.4531(5) 1.0551(4) 0.94492(18)
C23 C 0.5361(6) 1.1514(4) 0.9415(2)
H19 H 0.5927 1.1580 0.9091
C24 C 0.5371(7) 1.2402(5) 0.9860(3)
H20 H 0.5938 1.3058 0.9826
C25 C 0.4572(7) 1.2324(5) 1.0339(3)
H21 H 0.4569 1.2930 1.0629
C26 C 0.3775(7) 1.1350(6) 1.0388(3)
H22 H 0.3244 1.1269 1.0723
C27 C 0.3745(5) 1.0475(5) 0.9946(2)
H23 H 0.3179 0.9820 0.9986
Sn1_2 Sn 1.44055(3) 0.91214(3) 0.881010(13)
O3_2 O 0.2059(3) 0.9861(3) 0.87271(16)
loop_
_geom_bond_atom_site_label_1
_geom_bond_atom_site_label_2
_geom_bond_site_symmetry_1
_geom_bond_site_symmetry_2
Sn1 O2 1_555 1_555
N1 N2 1_555 1_555
N2 H1 1_555 1_555
N3 C5 1_555 1_555
O1 C1 1_555 1_555
O2 C1 1_555 1_555
O3 C4 1_555 1_555
C1 C2 1_555 1_555
C2 N1 1_555 1_555
C3 C2 1_555 1_555
H2 C3 1_555 1_555
H3 C3 1_555 1_555
H4 C3 1_555 1_555
C4 N2 1_555 1_555
C5 C4 1_555 1_555
C6 C5 1_555 1_555
H5 C6 1_555 1_555
C7 C6 1_555 1_555
H6 C7 1_555 1_555
C8 C7 1_555 1_555
H7 C8 1_555 1_555
C9 N3 1_555 1_555
H8 C9 1_555 1_555
C10 Sn1 1_555 1_555
C11 C10 1_555 1_555
H9 C11 1_555 1_555
C12 C11 1_555 1_555
H10 C12 1_555 1_555
C13 C12 1_555 1_555
H11 C13 1_555 1_555
C14 C13 1_555 1_555
H12 C14 1_555 1_555
C15 C10 1_555 1_555
H13 C15 1_555 1_555
C16 Sn1 1_555 1_555
C17 C16 1_555 1_555
H14 C17 1_555 1_555
C18 C17 1_555 1_555
H15 C18 1_555 1_555
C19 C18 1_555 1_555
H16 C19 1_555 1_555
C20 C19 1_555 1_555
H17 C20 1_555 1_555
C21 C16 1_555 1_555
H18 C21 1_555 1_555
C22 Sn1 1_555 1_555
C23 C22 1_555 1_555
H19 C23 1_555 1_555
C24 C23 1_555 1_555
H20 C24 1_555 1_555
C25 C24 1_555 1_555
H21 C25 1_555 1_555
C26 C25 1_555 1_555
H22 C26 1_555 1_555
C27 C22 1_555 1_555
H23 C27 1_555 1_555
Sn1_2 O3 1_555 1_555
O3_2 Sn1 1_555 1_555
C8 C9 1_555 1_555
C14 C15 1_555 1_555
C20 C21 1_555 1_555
C26 C27 1_555 1_555

#END
