
#######################################################################
#
#                 Cambridge Crystallographic Data Centre
#                                CCDC 
#
#######################################################################
#
# If this CIF has been generated from an entry in the Cambridge 
# Structural Database, then it will include bibliographic, chemical, 
# crystal, experimental, refinement or atomic coordinate data resulting 
# from the CCDC's data processing and validation procedures.
#
#######################################################################

data_RUDVAO
_symmetry_cell_setting           monoclinic
_symmetry_space_group_name_H-M   'P 21/c'
_symmetry_Int_Tables_number      14
_space_group_name_Hall           '-P 2ybc'
loop_
_symmetry_equiv_pos_site_id
_symmetry_equiv_pos_as_xyz
1 x,y,z
2 -x,1/2+y,1/2-z
3 -x,-y,-z
4 x,1/2-y,1/2+z
_cell_length_a                   8.7910(10)
_cell_length_b                   13.514(2)
_cell_length_c                   10.0060(10)
_cell_angle_alpha                90
_cell_angle_beta                 99.4580(10)
_cell_angle_gamma                90
_cell_volume                     1172.57
loop_
_atom_site_label
_atom_site_type_symbol
_atom_site_fract_x
_atom_site_fract_y
_atom_site_fract_z
Zn1 Zn 0.70429(3) 0.049976(17) 0.14839(2)
O1 O 1.19552(19) 0.45868(11) 0.46359(16)
O2 O 1.1138(2) 0.37002(13) 0.27788(17)
O3 O 0.3598(2) -0.34549(11) 0.49053(16)
O4 O 0.4781(2) -0.29890(13) 0.32459(18)
N1 N 0.9991(2) 0.22447(13) 0.41958(18)
N2 N 1.0940(2) 0.14488(15) 0.4250(2)
N3 N 0.8718(2) 0.11702(12) 0.28465(18)
N4 N 0.4890(2) -0.10956(12) 0.41086(17)
N5 N 0.3571(2) -0.06552(14) 0.3463(2)
N6 N 0.5619(2) -0.01888(12) 0.25474(17)
C1 C 1.0113(3) 0.08183(18) 0.3430(2)
H1 H 1.0456 0.0186 0.3266
C2 C 0.8698(3) 0.20781(16) 0.3354(2)
H2 H 0.7893 0.2528 0.3147
C3 C 1.0519(3) 0.31596(17) 0.4896(2)
H3 H 1.1255 0.3003 0.5701
H4 H 0.9649 0.3492 0.5181
C4 C 1.1271(2) 0.38505(16) 0.3997(2)
C5 C 0.4076(3) -0.01127(17) 0.2543(2)
H5 H 0.3435 0.0289 0.1940
C6 C 0.6078(3) -0.08246(16) 0.3545(2)
H6 H 0.7085 -0.1045 0.3805
C7 C 0.4817(3) -0.18783(16) 0.5093(2)
H7 H 0.4055 -0.1714 0.5656
H8 H 0.5810 -0.1945 0.5674
C8 C 0.4383(3) -0.28544(16) 0.4351(2)
Zn1A Zn 0.29571(3) -0.450024(17) 0.35161(2)
Zn1A_2 Zn 1.29571(3) 0.549976(17) 0.35161(2)
O1A O 0.80448(19) -0.04132(11) 0.03641(16)
O3A O 0.6402(2) 0.15451(11) 0.00947(16)
loop_
_geom_bond_atom_site_label_1
_geom_bond_atom_site_label_2
_geom_bond_site_symmetry_1
_geom_bond_site_symmetry_2
Zn1 N3 1_555 1_555
O1 C4 1_555 1_555
O2 C4 1_555 1_555
O3 C8 1_555 1_555
O4 C8 1_555 1_555
N1 N2 1_555 1_555
N2 C1 1_555 1_555
N3 C1 1_555 1_555
N4 N5 1_555 1_555
N5 C5 1_555 1_555
N6 Zn1 1_555 1_555
C1 H1 1_555 1_555
C2 N1 1_555 1_555
H2 C2 1_555 1_555
C3 N1 1_555 1_555
H3 C3 1_555 1_555
H4 C3 1_555 1_555
C4 C3 1_555 1_555
C5 N6 1_555 1_555
H5 C5 1_555 1_555
C6 N4 1_555 1_555
H6 C6 1_555 1_555
C7 N4 1_555 1_555
H7 C7 1_555 1_555
H8 C7 1_555 1_555
C8 C7 1_555 1_555
Zn1A O3 1_555 1_555
Zn1A_2 O1 1_555 1_555
O1A Zn1 1_555 1_555
O3A Zn1 1_555 1_555
N3 C2 1_555 1_555
N6 C6 1_555 1_555

#END
