
#######################################################################
#
#                 Cambridge Crystallographic Data Centre
#                                CCDC 
#
#######################################################################
#
# If this CIF has been generated from an entry in the Cambridge 
# Structural Database, then it will include bibliographic, chemical, 
# crystal, experimental, refinement or atomic coordinate data resulting 
# from the CCDC's data processing and validation procedures.
#
#######################################################################

data_RUDWOD
_symmetry_cell_setting           triclinic
_symmetry_space_group_name_H-M   'P -1'
_symmetry_Int_Tables_number      2
_space_group_name_Hall           '-P 1'
loop_
_symmetry_equiv_pos_site_id
_symmetry_equiv_pos_as_xyz
1 x,y,z
2 -x,-y,-z
_cell_length_a                   9.880(2)
_cell_length_b                   12.711(3)
_cell_length_c                   13.127(3)
_cell_angle_alpha                68.798(4)
_cell_angle_beta                 83.167(4)
_cell_angle_gamma                87.476(4)
_cell_volume                     1526.04
loop_
_atom_site_label
_atom_site_type_symbol
_atom_site_fract_x
_atom_site_fract_y
_atom_site_fract_z
Zn1 Zn 0.43395(4) 0.12561(3) 0.25919(3)
N1 N 0.3848(3) 0.2295(2) 0.1144(2)
C1 C 0.2852(3) 0.2180(3) 0.0597(3)
H1 H 0.2209 0.1582 0.0862
N2 N 0.2878(3) 0.3026(2) -0.0382(2)
C2 C 0.3955(3) 0.3723(3) -0.0473(3)
H2 H 0.4232 0.4385 -0.1081
C3 C 0.4534(3) 0.3278(3) 0.0471(3)
H3 H 0.5292 0.3587 0.0649
C4 C 0.1934(3) 0.3149(3) -0.1206(3)
H4 H 0.1495 0.2411 -0.1038
H5 H 0.2467 0.3349 -0.1938
C5 C 0.0831(3) 0.4031(3) -0.1262(2)
C6 C -0.0524(3) 0.3711(3) -0.1108(3)
H6 H -0.0750 0.2939 -0.0912
C7 C -0.1554(3) 0.4517(3) -0.1239(3)
H7 H -0.2480 0.4291 -0.1134
C8 C -0.1240(3) 0.5641(3) -0.1520(3)
H8 H -0.1949 0.6186 -0.1616
C9 C 0.0113(3) 0.5976(3) -0.1663(3)
C10 C 0.1146(3) 0.5170(3) -0.1536(3)
H9 H 0.2072 0.5395 -0.1635
C11 C 0.0391(3) 0.7214(3) -0.1923(3)
H10 H -0.0297 0.7668 -0.2391
H11 H 0.0268 0.7363 -0.1227
N3 N 0.1753(3) 0.7599(2) -0.2481(2)
C12 C 0.2255(3) 0.7660(3) -0.3530(3)
H12 H 0.1792 0.7456 -0.4026
C13 C 0.3531(3) 0.8065(3) -0.3707(3)
H13 H 0.4130 0.8197 -0.4363
N4 N 0.3835(3) 0.8258(2) -0.2793(2)
C14 C 0.2732(3) 0.7968(3) -0.2072(3)
H14 H 0.2649 0.8017 -0.1362
N5 N 0.2938(3) 0.1338(2) 0.3779(2)
C15 C 0.2854(3) 0.2185(3) 0.4147(3)
H15 H 0.3369 0.2862 0.3822
N6 N 0.1943(3) 0.1956(2) 0.5041(2)
C16 C 0.1401(3) 0.0908(3) 0.5265(3)
H16 H 0.0735 0.0522 0.5852
C17 C 0.2015(3) 0.0539(3) 0.4475(3)
H17 H 0.1837 -0.0161 0.4411
C18 C 0.1613(3) 0.2702(3) 0.5671(3)
H18 H 0.2286 0.3324 0.5423
H19 H 0.1679 0.2270 0.6460
C19 C 0.0206(3) 0.3190(3) 0.5531(3)
C20 C -0.0099(3) 0.3968(3) 0.4524(3)
H20 H 0.0578 0.4180 0.3909
C21 C -0.1391(3) 0.4432(3) 0.4423(3)
H21 H -0.1592 0.4966 0.3735
C22 C -0.2397(3) 0.4131(3) 0.5309(3)
H22 H -0.3283 0.4452 0.5229
C23 C -0.2097(3) 0.3357(3) 0.6314(3)
C24 C -0.0793(3) 0.2889(3) 0.6421(3)
H23 H -0.0589 0.2359 0.7110
C25 C -0.3188(3) 0.2959(3) 0.7283(3)
H24 H -0.2757 0.2690 0.7976
H25 H -0.3799 0.3596 0.7286
N7 N -0.3991(3) 0.2038(2) 0.7218(2)
C26 C -0.5207(3) 0.2139(3) 0.6789(3)
H26 H -0.5734 0.2806 0.6523
C27 C -0.5507(3) 0.1099(3) 0.6821(3)
H27 H -0.6304 0.0907 0.6587
N8 N -0.4477(3) 0.0362(2) 0.7246(2)
C28 C -0.3579(3) 0.0972(3) 0.7466(3)
H28 H -0.2749 0.0686 0.7763
Zn1A Zn 0.56605(4) 0.87439(3) -0.25919(3)
Zn1A_2 Zn -0.43395(4) -0.12561(3) 0.74081(3)
N4A N 0.6165(3) 0.1742(2) 0.2793(2)
N8A N 0.4477(3) -0.0362(2) 0.2754(2)
N9 N -0.0133(3) 0.0163(2) 0.1673(2)
O1 O 0.0067(3) 0.0871(2) 0.07062(19)
O2 O -0.1117(3) -0.0482(2) 0.1936(2)
O3 O 0.0674(2) 0.01307(19) 0.23517(19)
N10 N 0.4830(3) 0.5500(2) -0.3360(2)
O4 O 0.5282(2) 0.6026(2) -0.43384(19)
O5 O 0.4038(2) 0.46743(19) -0.31273(19)
O6 O 0.5162(3) 0.5791(2) -0.26093(19)
C29 C 0.6595(4) 0.0513(3) 0.0162(3)
H29 H 0.6559 0.0261 0.0964
H30 H 0.6676 -0.0144 -0.0065
H31 H 0.5760 0.0929 -0.0074
O7 O 0.7728(3) 0.1219(2) -0.0325(2)
H32 H 0.8413 0.0930 -0.0003
loop_
_geom_bond_atom_site_label_1
_geom_bond_atom_site_label_2
_geom_bond_site_symmetry_1
_geom_bond_site_symmetry_2
Zn1 N1 1_555 1_555
N1 C1 1_555 1_555
C1 H1 1_555 1_555
N2 C1 1_555 1_555
C2 N2 1_555 1_555
H2 C2 1_555 1_555
C3 N1 1_555 1_555
H3 C3 1_555 1_555
C4 N2 1_555 1_555
H4 C4 1_555 1_555
H5 C4 1_555 1_555
C5 C4 1_555 1_555
C6 C5 1_555 1_555
H6 C6 1_555 1_555
C7 C6 1_555 1_555
H7 C7 1_555 1_555
C8 C7 1_555 1_555
H8 C8 1_555 1_555
C9 C8 1_555 1_555
C10 C5 1_555 1_555
H9 C10 1_555 1_555
C11 C9 1_555 1_555
H10 C11 1_555 1_555
H11 C11 1_555 1_555
N3 C11 1_555 1_555
C12 N3 1_555 1_555
H12 C12 1_555 1_555
C13 C12 1_555 1_555
H13 C13 1_555 1_555
N4 C13 1_555 1_555
C14 N3 1_555 1_555
H14 C14 1_555 1_555
N5 Zn1 1_555 1_555
C15 N5 1_555 1_555
H15 C15 1_555 1_555
N6 C15 1_555 1_555
C16 N6 1_555 1_555
H16 C16 1_555 1_555
C17 N5 1_555 1_555
H17 C17 1_555 1_555
C18 N6 1_555 1_555
H18 C18 1_555 1_555
H19 C18 1_555 1_555
C19 C18 1_555 1_555
C20 C19 1_555 1_555
H20 C20 1_555 1_555
C21 C20 1_555 1_555
H21 C21 1_555 1_555
C22 C21 1_555 1_555
H22 C22 1_555 1_555
C23 C22 1_555 1_555
C24 C19 1_555 1_555
H23 C24 1_555 1_555
C25 C23 1_555 1_555
H24 C25 1_555 1_555
H25 C25 1_555 1_555
N7 C25 1_555 1_555
C26 N7 1_555 1_555
H26 C26 1_555 1_555
C27 C26 1_555 1_555
H27 C27 1_555 1_555
N8 C27 1_555 1_555
C28 N7 1_555 1_555
H28 C28 1_555 1_555
N9 O1 1_555 1_555
O2 N9 1_555 1_555
O3 N9 1_555 1_555
N10 O4 1_555 1_555
O5 N10 1_555 1_555
O6 N10 1_555 1_555
C29 H29 1_555 1_555
H30 C29 1_555 1_555
H31 C29 1_555 1_555
O7 C29 1_555 1_555
H32 O7 1_555 1_555
Zn1A N4 1_555 1_555
Zn1A_2 N8 1_555 1_555
N4A Zn1 1_555 1_555
N8A Zn1 1_555 1_555
C2 C3 1_555 1_555
C9 C10 1_555 1_555
N4 C14 1_555 1_555
C16 C17 1_555 1_555
C23 C24 1_555 1_555
N8 C28 1_555 1_555

#END
