
#######################################################################
#
#                 Cambridge Crystallographic Data Centre
#                                CCDC 
#
#######################################################################
#
# If this CIF has been generated from an entry in the Cambridge 
# Structural Database, then it will include bibliographic, chemical, 
# crystal, experimental, refinement or atomic coordinate data resulting 
# from the CCDC's data processing and validation procedures.
#
#######################################################################

data_RUDXIY
_symmetry_cell_setting           monoclinic
_symmetry_space_group_name_H-M   'P 21/c'
_symmetry_Int_Tables_number      14
_space_group_name_Hall           '-P 2ybc'
loop_
_symmetry_equiv_pos_site_id
_symmetry_equiv_pos_as_xyz
1 x,y,z
2 -x,1/2+y,1/2-z
3 -x,-y,-z
4 x,1/2-y,1/2+z
_cell_length_a                   6.1093(3)
_cell_length_b                   21.3690(11)
_cell_length_c                   12.5944(6)
_cell_angle_alpha                90
_cell_angle_beta                 101.2540(10)
_cell_angle_gamma                90
_cell_volume                     1612.58
loop_
_atom_site_label
_atom_site_type_symbol
_atom_site_fract_x
_atom_site_fract_y
_atom_site_fract_z
O1 O -0.331(4) 0.5177(8) -0.4665(9)
O2 O -1.024(4) 0.5581(10) -0.5709(11)
Co1 Co 0.5000 0.0000 -0.5000
O3 O 0.3504(3) 0.07810(9) -0.58289(16)
O4 O 0.8563(5) 0.01651(14) -0.7499(2)
N1 N 0.4899(5) 0.17072(13) -0.8478(2)
N2 N 0.2242(5) 0.24617(12) -0.8332(2)
N3 N -0.0138(5) 0.23519(13) -0.7023(2)
N4 N -0.0250(4) 0.32327(11) -0.8106(2)
C1 C 0.7160(5) 0.02788(13) -0.6939(2)
C2 C 0.5653(5) 0.08348(13) -0.7241(2)
C3 C 0.3941(4) 0.10347(12) -0.6662(2)
C4 C 0.2731(5) 0.15898(13) -0.7104(2)
C5 C 0.0919(5) 0.18298(14) -0.6695(3)
H1 H 0.0434 0.1603 -0.6155
C6 C 0.0661(5) 0.26685(13) -0.7815(2)
C7 C 0.3237(5) 0.19244(13) -0.7976(3)
C8 C 0.6004(6) 0.11779(15) -0.8104(3)
H2 H 0.2905 -0.1036 -0.1533
C9 C 0.4470(8) -0.2043(2) -0.0577(4)
H3 H 0.4693 -0.2489 -0.0649
H4 H 0.2902 -0.1972 -0.0575
C10 C 0.5781(12) -0.1828(4) 0.0417(5)
H5 H 0.5474 -0.1393 0.0513
H6 H 0.5417 -0.2065 0.1006
H7 H 0.7335 -0.1880 0.0401
C11 C -0.1614(6) 0.35706(17) -0.7461(3)
H8 H 1.0667 -0.3839 -0.3057
H9 H 1.2345 -0.3274 -0.2938
C12 C -0.3372(5) 0.39675(15) -0.8196(3)
H10 H 1.4448 -0.3690 -0.1370
H11 H 1.4162 -0.4216 -0.2253
C13 C 1.1106(5) -0.40153(13) -0.0463(2)
H12 H 1.0424 -0.4293 -0.0011
H13 H 1.2078 -0.3731 0.0011
C14 C 0.9295(5) -0.36418(14) -0.1177(3)
H14 H 0.8505 -0.3392 -0.0730
H15 H 0.8233 -0.3925 -0.1605
N5 N -0.2458(4) 0.43890(10) -0.89246(19)
O5 O 0.6973(3) -0.00359(8) -0.61147(17)
H16 H -0.155(5) 0.4660(14) -0.850(2)
Co1A Co -0.5000 0.5000 -1.0000
Co1A_2 Co 1.5000 -0.5000 0.0000
O3B O 0.6496(3) -0.07810(9) -0.41711(16)
O4B O 0.1437(5) -0.01651(14) -0.2501(2)
N1B N 0.5101(5) -0.17072(13) -0.1522(2)
N2B N 0.7758(5) -0.24617(12) -0.1668(2)
N3B N 1.0138(5) -0.23519(13) -0.2977(2)
N4B N 1.0250(4) -0.32327(11) -0.1894(2)
C1B C 0.2840(5) -0.02788(13) -0.3061(2)
C2B C 0.4347(5) -0.08348(13) -0.2759(2)
C3B C 0.6059(4) -0.10347(12) -0.3338(2)
C4B C 0.7269(5) -0.15898(13) -0.2896(2)
C5B C 0.9081(5) -0.18298(14) -0.3305(3)
H1B H 0.9566 -0.1603 -0.3845
C6B C 0.9339(5) -0.26685(13) -0.2185(2)
C7B C 0.6763(5) -0.19244(13) -0.2024(3)
C8B C 0.3996(6) -0.11779(15) -0.1896(3)
H2B H 0.7095 0.1036 -0.8467
C9B C 0.5530(8) 0.2043(2) -0.9423(4)
H3B H 0.5307 0.2489 -0.9351
H4B H 0.7098 0.1972 -0.9425
C10B C 0.4219(12) 0.1828(4) -1.0417(5)
H5B H 0.4526 0.1393 -1.0513
H6B H 0.4583 0.2065 -1.1006
H7B H 0.2665 0.1880 -1.0401
C11B C 1.1614(6) -0.35706(17) -0.2539(3)
H8B H -0.0667 0.3839 -0.6943
H9B H -0.2345 0.3274 -0.7062
C12B C 1.3372(5) -0.39675(15) -0.1804(3)
H10B H -0.4448 0.3690 -0.8630
H11B H -0.4162 0.4216 -0.7747
C13B C -0.1106(5) 0.40153(13) -0.9537(2)
H12B H -0.0424 0.4293 -0.9989
H13B H -0.2078 0.3731 -1.0011
C14B C 0.0705(5) 0.36418(14) -0.8823(3)
H14B H 0.1495 0.3392 -0.9270
H15B H 0.1767 0.3925 -0.8395
N5A N 0.2458(4) -0.06110(10) -0.60754(19)
N5C N 0.7542(4) 0.06110(10) -0.39246(19)
N5B N 1.2458(4) -0.43890(10) -0.10754(19)
O5B O 0.3027(3) 0.00359(8) -0.38853(17)
H16A H 0.155(5) -0.0340(14) -0.650(2)
H16C H 0.845(5) 0.0340(14) -0.350(2)
H16B H 1.155(5) -0.4660(14) -0.150(2)
loop_
_geom_bond_atom_site_label_1
_geom_bond_atom_site_label_2
_geom_bond_site_symmetry_1
_geom_bond_site_symmetry_2
Co1 O3 1_555 1_555
O3 C3 1_555 1_555
O4 C1 1_555 1_555
N1 C7 1_555 1_555
N2 C6 1_555 1_555
N3 C5 1_555 1_555
N4 C6 1_555 1_555
C1 C2 1_555 1_555
C2 C3 1_555 1_555
C3 C4 1_555 1_555
C4 C5 1_555 1_555
C5 H1 1_555 1_555
C6 N3 1_555 1_555
C7 N2 1_555 1_555
C8 N1 1_555 1_555
H2 C8B 1_555 1_555
C9 H3 1_555 1_555
H4 C9 1_555 1_555
C10 C9 1_555 1_555
H5 C10 1_555 1_555
H6 C10 1_555 1_555
H7 C10 1_555 1_555
C11 N4 1_555 1_555
H8 C11B 1_555 1_555
H9 C11B 1_555 1_555
C12 C11 1_555 1_555
H10 C12B 1_555 1_555
H11 C12B 1_555 1_555
C13 H12 1_555 1_555
H13 C13 1_555 1_555
C14 C13 1_555 1_555
H14 C14 1_555 1_555
H15 C14 1_555 1_555
N5 C12 1_555 1_555
O5 Co1 1_555 1_555
H16 N5 1_555 1_555
Co1A N5 1_555 1_555
Co1A_2 N5B 1_555 1_555
O3B Co1 1_555 1_555
O4B C1B 1_555 1_555
N1B C9 1_555 1_555
N2B C6B 1_555 1_555
N3B C5B 1_555 1_555
N4B C14 1_555 1_555
C1B C2B 1_555 1_555
C2B C3B 1_555 1_555
C3B O3B 1_555 1_555
C4B C3B 1_555 1_555
C5B C4B 1_555 1_555
H1B C5B 1_555 1_555
C6B N3B 1_555 1_555
C7B N1B 1_555 1_555
C8B N1B 1_555 1_555
H2B C8 1_555 1_555
C9B N1 1_555 1_555
H3B C9B 1_555 1_555
H4B C9B 1_555 1_555
C10B C9B 1_555 1_555
H5B C10B 1_555 1_555
H6B C10B 1_555 1_555
H7B C10B 1_555 1_555
C11B N4B 1_555 1_555
H8B C11 1_555 1_555
H9B C11 1_555 1_555
C12B C11B 1_555 1_555
H10B C12 1_555 1_555
H11B C12 1_555 1_555
C13B N5 1_555 1_555
H12B C13B 1_555 1_555
H13B C13B 1_555 1_555
C14B N4 1_555 1_555
H14B C14B 1_555 1_555
H15B C14B 1_555 1_555
N5A Co1 1_555 1_555
N5C Co1 1_555 1_555
N5B C13 1_555 1_555
O5B Co1 1_555 1_555
H16A N5A 1_555 1_555
H16C N5C 1_555 1_555
H16B N5B 1_555 1_555
C1 O5 1_555 1_555
C2 C8 1_555 1_555
C4 C7 1_555 1_555
N2B C7B 1_555 1_555
N4B C6B 1_555 1_555
C1B O5B 1_555 1_555
C2B C8B 1_555 1_555
C4B C7B 1_555 1_555
C12B N5B 1_555 1_555
C13B C14B 1_555 1_555

#END
