
#######################################################################
#
#                 Cambridge Crystallographic Data Centre
#                                CCDC 
#
#######################################################################
#
# If this CIF has been generated from an entry in the Cambridge 
# Structural Database, then it will include bibliographic, chemical, 
# crystal, experimental, refinement or atomic coordinate data resulting 
# from the CCDC's data processing and validation procedures.
#
#######################################################################

data_RUDYIA
_symmetry_cell_setting           triclinic
_symmetry_space_group_name_H-M   'P -1'
_symmetry_Int_Tables_number      2
_space_group_name_Hall           '-P 1'
loop_
_symmetry_equiv_pos_site_id
_symmetry_equiv_pos_as_xyz
1 x,y,z
2 -x,-y,-z
_cell_length_a                   5.3502(4)
_cell_length_b                   10.4817(8)
_cell_length_c                   17.5765(14)
_cell_angle_alpha                77.292(2)
_cell_angle_beta                 88.012(2)
_cell_angle_gamma                78.766(2)
_cell_volume                     943.073
loop_
_atom_site_label
_atom_site_type_symbol
_atom_site_fract_x
_atom_site_fract_y
_atom_site_fract_z
Zn1 Zn 0.26210(6) 0.83224(3) 0.00861(2)
Zn2 Zn 0.18286(6) 0.18901(4) 0.69244(2)
P1 P 0.24729(12) 1.08054(7) 0.08532(4)
O1 O 0.2177(4) 0.93821(18) 0.08776(12)
O2 O 0.5219(3) 1.09750(19) 0.07357(11)
O3 O 0.0643(4) 1.18271(19) 0.02965(13)
O4 O -0.1579(3) 0.31834(19) 0.69646(13)
O5 O -0.5741(3) 0.31882(19) 0.69536(13)
O6 O -0.0587(3) 0.05520(19) 0.69432(13)
O7 O -0.4741(3) 0.05350(19) 0.70014(13)
O8 O 0.1813(4) 0.1383(2) 0.82078(12)
N1 N 0.3979(4) 0.6483(2) 0.07136(13)
N2 N 0.2006(5) 0.2298(3) 0.56579(15)
C1 C 0.2902(6) 0.5451(3) 0.06916(18)
H1 H 0.1528 0.5581 0.0355
C2 C 0.3736(6) 0.4196(3) 0.11464(19)
H2 H 0.2934 0.3500 0.1110
C3 C 0.5761(6) 0.3972(3) 0.16553(16)
C4 C 0.6853(6) 0.5050(3) 0.1676(2)
H3 H 0.8223 0.4948 0.2010
C5 C 0.5937(6) 0.6278(3) 0.12064(19)
H4 H 0.6707 0.6990 0.1233
C6 C 0.6711(7) 0.2632(3) 0.21820(17)
H5 H 0.8543 0.2392 0.2127
H6 H 0.5948 0.1967 0.2019
C7 C 0.6094(6) 0.2611(3) 0.30384(18)
H7 H 0.6832 0.1743 0.3351
H8 H 0.6872 0.3269 0.3203
C8 C 0.3251(7) 0.2901(4) 0.31878(19)
H9 H 0.2537 0.3809 0.2926
H10 H 0.2435 0.2306 0.2974
C9 C 0.2719(6) 0.2718(3) 0.40487(18)
C10 C 0.2331(8) 0.1509(4) 0.4483(2)
H11 H 0.2293 0.0808 0.4240
C11 C 0.2001(8) 0.1340(4) 0.5276(2)
H12 H 0.1761 0.0512 0.5558
C12 C 0.2722(8) 0.3704(4) 0.4442(2)
H13 H 0.2966 0.4539 0.4173
C13 C 0.2360(8) 0.3465(4) 0.5242(2)
H14 H 0.2367 0.4153 0.5497
C14 C -0.3443(5) 0.2629(3) 0.69637(16)
C15 C -0.2871(5) 0.1104(3) 0.69706(16)
H15 H 0.1964 1.0995 0.1518
H16 H -0.0004 0.1401 0.8301
H17 H 0.3020 0.0891 0.8460
Zn1A Zn -0.26210(6) 1.16776(3) -0.00861(2)
Zn1A_2 Zn 0.73790(6) 1.16776(3) -0.00861(2)
Zn2_2 Zn -0.81714(6) 0.18901(4) 0.69244(2)
O2A O 0.4781(3) 0.90250(19) -0.07357(11)
O3A O -0.0643(4) 0.81729(19) -0.02965(13)
O5_2 O 0.4259(3) 0.31882(19) 0.69536(13)
O7_2 O 0.5259(3) 0.05350(19) 0.70014(13)
loop_
_geom_bond_atom_site_label_1
_geom_bond_atom_site_label_2
_geom_bond_site_symmetry_1
_geom_bond_site_symmetry_2
Zn1 O1 1_555 1_555
Zn2 O4 1_555 1_555
P1 O1 1_555 1_555
O2 P1 1_555 1_555
O3 P1 1_555 1_555
O4 C14 1_555 1_555
O5 C14 1_555 1_555
O6 Zn2 1_555 1_555
O7 C15 1_555 1_555
O8 Zn2 1_555 1_555
N1 Zn1 1_555 1_555
N2 Zn2 1_555 1_555
C1 N1 1_555 1_555
H1 C1 1_555 1_555
C2 C1 1_555 1_555
H2 C2 1_555 1_555
C3 C2 1_555 1_555
C4 C3 1_555 1_555
H3 C4 1_555 1_555
C5 N1 1_555 1_555
H4 C5 1_555 1_555
C6 C3 1_555 1_555
H5 C6 1_555 1_555
H6 C6 1_555 1_555
C7 C6 1_555 1_555
H7 C7 1_555 1_555
H8 C7 1_555 1_555
C8 C7 1_555 1_555
H9 C8 1_555 1_555
H10 C8 1_555 1_555
C9 C8 1_555 1_555
C10 C9 1_555 1_555
H11 C10 1_555 1_555
C11 N2 1_555 1_555
H12 C11 1_555 1_555
C12 C9 1_555 1_555
H13 C12 1_555 1_555
C13 N2 1_555 1_555
H14 C13 1_555 1_555
C14 C15 1_555 1_555
C15 O6 1_555 1_555
H15 P1 1_555 1_555
H16 O8 1_555 1_555
H17 O8 1_555 1_555
Zn1A O3 1_555 1_555
Zn1A_2 O2 1_555 1_555
Zn2_2 O5 1_555 1_555
O2A Zn1 1_555 1_555
O3A Zn1 1_555 1_555
O5_2 Zn2 1_555 1_555
O7_2 Zn2 1_555 1_555
O7 Zn2_2 1_555 1_555
C4 C5 1_555 1_555
C10 C11 1_555 1_555
C12 C13 1_555 1_555

#END
