
#######################################################################
#
#                 Cambridge Crystallographic Data Centre
#                                CCDC 
#
#######################################################################
#
# If this CIF has been generated from an entry in the Cambridge 
# Structural Database, then it will include bibliographic, chemical, 
# crystal, experimental, refinement or atomic coordinate data resulting 
# from the CCDC's data processing and validation procedures.
#
#######################################################################

data_RUDYIA01
_symmetry_cell_setting           monoclinic
_symmetry_space_group_name_H-M   'P 21/c'
_symmetry_Int_Tables_number      14
_space_group_name_Hall           '-P 2ybc'
loop_
_symmetry_equiv_pos_site_id
_symmetry_equiv_pos_as_xyz
1 x,y,z
2 -x,1/2+y,1/2-z
3 -x,-y,-z
4 x,1/2-y,1/2+z
_cell_length_a                   5.34080(10)
_cell_length_b                   34.5853(10)
_cell_length_c                   10.8468(3)
_cell_angle_alpha                90
_cell_angle_beta                 108.435(2)
_cell_angle_gamma                90
_cell_volume                     1900.73
loop_
_atom_site_label
_atom_site_type_symbol
_atom_site_fract_x
_atom_site_fract_y
_atom_site_fract_z
Zn1 Zn -0.2673(2) -0.34692(4) 0.42827(14)
Zn2 Zn 0.0937(2) -0.00443(4) 0.83574(12)
P1 P 0.6407(4) 0.04231(7) 0.8870(2)
H1 H 0.6727 0.0711 0.8477
O1 O 0.3520(12) 0.0363(2) 0.8760(7)
O2 O 0.7373(13) 0.0147(2) 0.8050(7)
O3 O 0.8135(13) 0.0433(2) 1.0272(6)
O4 O 0.1118(12) -0.3477(2) 0.5612(7)
O5 O -0.0631(13) -0.3496(2) 0.2971(7)
O6 O 0.5283(12) -0.3499(2) 0.5604(6)
O7 O 0.3564(13) -0.3485(2) 0.2963(7)
O8 O -0.2575(14) -0.4106(2) 0.4324(8)
H2 H -0.3253 -0.4158 0.4880
H3 H -0.0696 -0.4192 0.4332
N1 N -0.2735(19) -0.2845(3) 0.4269(10)
N2 N 0.0682(15) -0.0356(2) 0.6740(8)
C1 C -0.399(3) -0.2648(4) 0.3191(13)
H4 H -0.4920 -0.2787 0.2454
C2 C -0.399(3) -0.2249(4) 0.3108(13)
H5 H -0.4897 -0.2125 0.2335
C3 C -0.262(3) -0.2037(3) 0.4195(13)
C4 C -0.144(3) -0.2234(4) 0.5312(13)
H6 H -0.0578 -0.2099 0.6070
C5 C -0.151(3) -0.2632(4) 0.5328(12)
H7 H -0.0681 -0.2759 0.6105
C6 C -0.242(2) -0.1601(3) 0.4089(14)
H8 H -0.3998 -0.1503 0.3448
H9 H -0.2275 -0.1483 0.4919
C7 C -0.004(2) -0.1498(3) 0.3698(12)
H10 H -0.0118 -0.1639 0.2914
H11 H 0.1535 -0.1582 0.4377
C8 C 0.021(3) -0.1069(3) 0.3455(11)
H12 H 0.1798 -0.1027 0.3218
H13 H -0.1283 -0.0989 0.2725
C9 C 0.033(2) -0.0817(3) 0.4607(10)
C10 C -0.163(2) -0.0566(3) 0.4631(11)
H14 H -0.3152 -0.0550 0.3918
C11 C -0.137(2) -0.0337(3) 0.5709(12)
H15 H -0.3252 -0.0406 0.5702
C12 C 0.265(2) -0.0598(3) 0.6752(11)
H16 H 0.4142 -0.0608 0.7484
C13 C 0.253(3) -0.0831(3) 0.5705(13)
H17 H 0.3912 -0.0997 0.5737
C14 C 0.280(2) -0.3488(3) 0.5047(9)
C15 C 0.1850(18) -0.3492(3) 0.3523(10)
Zn1_2 Zn 0.7327(2) -0.34692(4) 0.42827(14)
Zn2_2 Zn 1.0937(2) -0.00443(4) 0.83574(12)
Zn2B Zn 0.9063(2) 0.00443(4) 1.16426(12)
O2_2 O -0.2627(13) 0.0147(2) 0.8050(7)
O3B O 0.1865(13) -0.0433(2) 0.9728(6)
O6_2 O -0.4717(12) -0.3499(2) 0.5604(6)
O7_2 O -0.6436(13) -0.3485(2) 0.2963(7)
loop_
_geom_bond_atom_site_label_1
_geom_bond_atom_site_label_2
_geom_bond_site_symmetry_1
_geom_bond_site_symmetry_2
Zn1 O4 1_555 1_555
Zn2 O1 1_555 1_555
P1 H1 1_555 1_555
O1 P1 1_555 1_555
O2 P1 1_555 1_555
O3 P1 1_555 1_555
O4 C14 1_555 1_555
O5 Zn1 1_555 1_555
O6 C14 1_555 1_555
O7 C15 1_555 1_555
O8 Zn1 1_555 1_555
H2 O8 1_555 1_555
H3 O8 1_555 1_555
N1 Zn1 1_555 1_555
N2 Zn2 1_555 1_555
C1 N1 1_555 1_555
H4 C1 1_555 1_555
C2 C1 1_555 1_555
H5 C2 1_555 1_555
C3 C2 1_555 1_555
C4 C3 1_555 1_555
H6 C4 1_555 1_555
C5 N1 1_555 1_555
H7 C5 1_555 1_555
C6 C3 1_555 1_555
H8 C6 1_555 1_555
H9 C6 1_555 1_555
C7 C6 1_555 1_555
H10 C7 1_555 1_555
H11 C7 1_555 1_555
C8 C7 1_555 1_555
H12 C8 1_555 1_555
H13 C8 1_555 1_555
C9 C8 1_555 1_555
C10 C9 1_555 1_555
H14 C10 1_555 1_555
C11 N2 1_555 1_555
H15 C11 1_555 1_555
C12 N2 1_555 1_555
H16 C12 1_555 1_555
C13 C9 1_555 1_555
H17 C13 1_555 1_555
C14 C15 1_555 1_555
C15 O5 1_555 1_555
Zn1_2 O6 1_555 1_555
Zn2_2 O2 1_555 1_555
Zn2B O3 1_555 1_555
O2_2 Zn2 1_555 1_555
O3B Zn2 1_555 1_555
O6_2 Zn1 1_555 1_555
O7_2 Zn1 1_555 1_555
O7 Zn1_2 1_555 1_555
C4 C5 1_555 1_555
C10 C11 1_555 1_555
C12 C13 1_555 1_555

#END
