
#######################################################################
#
#                 Cambridge Crystallographic Data Centre
#                                CCDC 
#
#######################################################################
#
# If this CIF has been generated from an entry in the Cambridge 
# Structural Database, then it will include bibliographic, chemical, 
# crystal, experimental, refinement or atomic coordinate data resulting 
# from the CCDC's data processing and validation procedures.
#
#######################################################################

data_RUDZOF
_symmetry_cell_setting           triclinic
_symmetry_space_group_name_H-M   'P -1'
_symmetry_Int_Tables_number      2
_space_group_name_Hall           '-P 1'
loop_
_symmetry_equiv_pos_site_id
_symmetry_equiv_pos_as_xyz
1 x,y,z
2 -x,-y,-z
_cell_length_a                   16.085(4)
_cell_length_b                   16.321(4)
_cell_length_c                   18.415(4)
_cell_angle_alpha                100.14(2)
_cell_angle_beta                 101.79(2)
_cell_angle_gamma                109.42(2)
_cell_volume                     4304.45
loop_
_atom_site_label
_atom_site_type_symbol
_atom_site_fract_x
_atom_site_fract_y
_atom_site_fract_z
O1 O 0.7134(7) 0.2563(6) 0.0456(5)
O2 O 0.7913(8) 0.1694(7) 0.0696(6)
N1 N 0.9076(7) 0.3809(6) 0.1437(5)
N2 N 1.1135(8) 0.5912(7) 0.1098(7)
C1 C 0.7744(10) 0.2365(9) 0.0844(7)
C2 C 0.8334(8) 0.3108(8) 0.1577(7)
C3 C 0.8877(9) 0.4409(8) 0.1077(7)
C4 C 0.9535(9) 0.5119(8) 0.0971(7)
C5 C 1.0463(10) 0.5232(9) 0.1210(7)
C6 C 1.0653(8) 0.4583(8) 0.1563(7)
C7 C 0.9977(9) 0.3903(8) 0.1676(7)
C8 C 1.0942(10) 0.6637(8) 0.0822(8)
C9 C 1.2064(9) 0.6006(9) 0.1308(9)
O3 O 0.7543(6) 0.2631(5) 0.3189(5)
O4 O 0.6928(6) 0.1832(5) 0.1990(5)
N3 N 0.8928(7) 0.3900(6) 0.2910(5)
N4 N 1.0984(7) 0.5949(6) 0.4654(6)
C10 C 0.7506(9) 0.2487(8) 0.2494(7)
C11 C 0.8259(8) 0.3165(7) 0.2283(7)
C12 C 0.8976(9) 0.4749(8) 0.3000(7)
C13 C 0.9619(9) 0.5428(8) 0.3554(7)
C14 C 1.0300(8) 0.5293(8) 0.4080(7)
C15 C 1.0235(8) 0.4391(8) 0.3989(6)
C16 C 0.9562(9) 0.3738(8) 0.3424(7)
C17 C 1.1079(8) 0.6897(7) 0.4805(7)
C18 C 1.1725(9) 0.5792(8) 0.5137(8)
O5 O 0.4559(6) -0.2424(5) -0.2687(5)
O6 O 0.5144(6) -0.0940(5) -0.2345(4)
N5 N 0.5972(6) -0.2568(6) -0.1686(5)
N6 N 0.5792(7) -0.5117(7) -0.1560(7)
C19 C 0.5155(9) -0.1697(10) -0.2290(7)
C20 C 0.5980(8) -0.1691(8) -0.1721(6)
C21 C 0.5938(9) -0.2813(8) -0.1025(7)
C22 C 0.5866(9) -0.3633(8) -0.0962(7)
C23 C 0.5849(8) -0.4288(8) -0.1603(8)
C24 C 0.5888(8) -0.4013(7) -0.2279(7)
C25 C 0.5957(9) -0.3187(8) -0.2305(7)
C26 C 0.5677(11) -0.5417(9) -0.0858(9)
C27 C 0.5811(11) -0.5770(9) -0.2179(8)
O7 O 0.6192(6) 0.0170(5) -0.0710(5)
O8 O 0.7170(6) 0.0520(6) -0.1436(5)
N7 N 0.7488(7) -0.0994(6) -0.0819(5)
N8 N 0.9858(8) -0.1099(7) 0.0428(7)
C28 C 0.6667(10) 0.0003(8) -0.1143(8)
C29 C 0.6665(9) -0.0951(8) -0.1257(7)
C30 C 0.7783(10) -0.0672(8) -0.0030(7)
C31 C 0.8543(10) -0.0722(9) 0.0370(8)
C32 C 0.9126(9) -0.1050(8) 0.0033(8)
C33 C 0.8820(9) -0.1340(8) -0.0784(8)
C34 C 0.8038(10) -0.1304(8) -0.1183(8)
C35 C 1.0159(10) -0.0878(9) 0.1268(8)
C36 C 1.0445(9) -0.1467(9) 0.0046(9)
O9 O 0.5085(5) -0.1002(6) 0.4003(4)
O10 O 0.4547(6) -0.2036(6) 0.2885(5)
N9 N 0.6173(7) -0.2365(6) 0.3599(5)
N10 N 0.6168(8) -0.4859(7) 0.3802(6)
C37 C 0.5177(9) -0.1516(8) 0.3440(8)
C38 C 0.6114(9) -0.1515(8) 0.3535(6)
C39 C 0.5780(9) -0.2776(8) 0.4097(7)
C40 C 0.5767(9) -0.3584(8) 0.4169(8)
C41 C 0.6185(9) -0.4054(8) 0.3748(7)
C42 C 0.6595(9) -0.3617(8) 0.3237(7)
C43 C 0.6594(8) -0.2798(8) 0.3171(7)
C44 C 0.5729(12) -0.5296(9) 0.4314(9)
C45 C 0.6633(10) -0.5303(9) 0.3378(8)
O11 O 0.7359(7) 0.0781(6) 0.3761(6)
O12 O 0.5998(7) -0.0017(6) 0.2970(5)
N11 N 0.7757(7) -0.0771(6) 0.3649(6)
N12 N 1.0427(8) -0.0659(7) 0.4012(7)
C46 C 0.6746(10) 0.0057(9) 0.3408(8)
C47 C 0.6839(9) -0.0820(8) 0.3509(7)
C48 C 0.8145(10) -0.1051(8) 0.4239(7)
C49 C 0.9029(9) -0.1010(8) 0.4366(8)
C50 C 0.9584(10) -0.0664(8) 0.3896(8)
C51 C 0.9171(9) -0.0333(8) 0.3328(8)
C52 C 0.8308(9) -0.0393(8) 0.3227(8)
C53 C 1.0792(10) -0.1121(9) 0.4520(8)
C54 C 1.1010(11) -0.0278(11) 0.3547(11)
O13 O 0.5514(7) 0.2692(6) -0.0329(5)
O14 O 0.4534(6) 0.0691(6) -0.1311(5)
O15 O 0.5425(6) 0.1142(5) 0.0573(5)
O16 O 0.6482(6) 0.1843(5) -0.1492(5)
O17 O 0.3751(7) -0.0250(6) 0.3074(5)
O18 O 0.3626(6) 0.0014(6) 0.4631(5)
Cd1 Cd 0.5985(1) 0.1475(1) -0.0457(1)
Cd2 Cd 0.6300(1) 0.1532(1) 0.3243(1)
Cd3 Cd 0.3611(1) -0.1285(1) 0.3911(1)
I1 I 0.5928(1) 0.1959(1) 0.4672(1)
I2 I 0.1937(1) -0.2416(1) 0.3053(1)
O5A O 0.5441(6) 0.2424(5) 0.2687(5)
O6A O 0.4856(6) 0.0940(5) 0.2345(4)
Cd3A Cd 0.6389(1) 0.1285(1) 0.6089(1)
I1A I 0.4072(1) -0.1959(1) 0.5328(1)
Cd2A Cd 0.3700(1) -0.1532(1) -0.3243(1)
O19 O 0.2585(9) -0.0317(7) -0.1547(7)
Cd4 Cd 0.8180(1) 0.7204(1) 0.6388(1)
I3 I 0.7475(1) 0.5495(1) 0.6604(1)
I4 I 0.9841(1) 0.8275(1) 0.7527(1)
I5 I 0.6977(1) 0.8110(1) 0.6336(1)
I6 I 0.8552(1) 0.6913(1) 0.4980(1)
Cd5 Cd 0.7716(1) 0.6542(1) 0.1210(1)
I7 I 0.9134(1) 0.7185(1) 0.2528(1)
I8 I 0.6638(1) 0.4810(1) 0.1256(1)
I9 I 0.6773(1) 0.7717(1) 0.1258(1)
I10 I 0.8257(1) 0.6460(1) -0.0124(1)
loop_
_geom_bond_atom_site_label_1
_geom_bond_atom_site_label_2
_geom_bond_site_symmetry_1
_geom_bond_site_symmetry_2
O1 C1 1_555 1_555
O2 C1 1_555 1_555
N1 C2 1_555 1_555
N2 C5 1_555 1_555
C1 C2 1_555 1_555
C2 C11 1_555 1_555
C3 N1 1_555 1_555
C4 C3 1_555 1_555
C5 C4 1_555 1_555
C6 C5 1_555 1_555
C7 N1 1_555 1_555
C8 N2 1_555 1_555
C9 N2 1_555 1_555
O3 C10 1_555 1_555
O4 C10 1_555 1_555
N3 C11 1_555 1_555
N4 C14 1_555 1_555
C10 C11 1_555 1_555
C12 N3 1_555 1_555
C13 C12 1_555 1_555
C14 C13 1_555 1_555
C15 C14 1_555 1_555
C16 N3 1_555 1_555
C17 N4 1_555 1_555
C18 N4 1_555 1_555
O5 C19 1_555 1_555
O6 C19 1_555 1_555
N5 C20 1_555 1_555
N6 C23 1_555 1_555
C19 C20 1_555 1_555
C20 C29 1_555 1_555
C21 N5 1_555 1_555
C22 C21 1_555 1_555
C23 C22 1_555 1_555
C24 C23 1_555 1_555
C25 N5 1_555 1_555
C26 N6 1_555 1_555
C27 N6 1_555 1_555
O7 C28 1_555 1_555
O8 C28 1_555 1_555
N7 C29 1_555 1_555
N8 C32 1_555 1_555
C28 C29 1_555 1_555
C30 N7 1_555 1_555
C31 C30 1_555 1_555
C32 C31 1_555 1_555
C33 C32 1_555 1_555
C34 N7 1_555 1_555
C35 N8 1_555 1_555
C36 N8 1_555 1_555
O9 C37 1_555 1_555
O10 C37 1_555 1_555
N9 C38 1_555 1_555
N10 C41 1_555 1_555
C37 C38 1_555 1_555
C38 C47 1_555 1_555
C39 N9 1_555 1_555
C40 C39 1_555 1_555
C41 C40 1_555 1_555
C42 C41 1_555 1_555
C43 N9 1_555 1_555
C44 N10 1_555 1_555
C45 N10 1_555 1_555
O11 C46 1_555 1_555
O12 C46 1_555 1_555
N11 C47 1_555 1_555
N12 C50 1_555 1_555
C46 C47 1_555 1_555
C48 N11 1_555 1_555
C49 C48 1_555 1_555
C50 C49 1_555 1_555
C51 C50 1_555 1_555
C52 N11 1_555 1_555
C53 N12 1_555 1_555
C54 N12 1_555 1_555
O13 Cd1 1_555 1_555
O14 Cd1 1_555 1_555
O15 Cd1 1_555 1_555
O16 Cd1 1_555 1_555
O17 Cd3 1_555 1_555
O18 Cd3 1_555 1_555
Cd1 O1 1_555 1_555
Cd2 O3 1_555 1_555
Cd3 O9 1_555 1_555
Cd4 I3 1_555 1_555
Cd5 I7 1_555 1_555
I1 Cd2 1_555 1_555
I2 Cd3 1_555 1_555
I4 Cd4 1_555 1_555
I5 Cd4 1_555 1_555
I6 Cd4 1_555 1_555
I8 Cd5 1_555 1_555
I9 Cd5 1_555 1_555
I10 Cd5 1_555 1_555
O5A Cd2 1_555 1_555
O6A Cd2 1_555 1_555
Cd3A I1 1_555 1_555
I1A Cd3 1_555 1_555
Cd2A O5 1_555 1_555
C6 C7 1_555 1_555
O4 Cd2 1_555 1_555
C15 C16 1_555 1_555
O6 Cd2A 1_555 1_555
C24 C25 1_555 1_555
O7 Cd1 1_555 1_555
C33 C34 1_555 1_555
C42 C43 1_555 1_555
O11 Cd2 1_555 1_555
O12 Cd2 1_555 1_555
C51 C52 1_555 1_555

#END
