
#######################################################################
#
#                 Cambridge Crystallographic Data Centre
#                                CCDC 
#
#######################################################################
#
# If this CIF has been generated from an entry in the Cambridge 
# Structural Database, then it will include bibliographic, chemical, 
# crystal, experimental, refinement or atomic coordinate data resulting 
# from the CCDC's data processing and validation procedures.
#
#######################################################################

data_RUFKIN
_symmetry_cell_setting           monoclinic
_symmetry_space_group_name_H-M   'P 21/n'
_symmetry_Int_Tables_number      14
_space_group_name_Hall           '-P 2yn'
loop_
_symmetry_equiv_pos_site_id
_symmetry_equiv_pos_as_xyz
1 x,y,z
2 1/2-x,1/2+y,1/2-z
3 -x,-y,-z
4 1/2+x,1/2-y,1/2+z
_cell_length_a                   15.788(7)
_cell_length_b                   16.718(7)
_cell_length_c                   22.921(10)
_cell_angle_alpha                90
_cell_angle_beta                 95.112(7)
_cell_angle_gamma                90
_cell_volume                     6025.79
loop_
_atom_site_label
_atom_site_type_symbol
_atom_site_fract_x
_atom_site_fract_y
_atom_site_fract_z
K1 K 0.7306(2) 0.28454(19) 0.36225(15)
Ni1 Ni 0.93337(8) 0.55203(8) 0.47015(5)
Ni2 Ni 1.07740(9) 0.45637(9) 0.37294(6)
Ni3 Ni 0.90341(9) 0.39096(9) 0.41805(6)
Ni4 Ni 1.10635(9) 0.28861(9) 0.42249(6)
O1 O 0.9614(4) 0.4921(4) 0.3947(2)
H1 H 0.9293 0.5159 0.3604
O2 O 0.8911(4) 0.5969(4) 0.5485(3)
H2 H 0.8299 0.5865 0.5427
O3 O 0.9432(4) 0.4330(4) 0.4976(3)
H3 H 0.9052 0.4195 0.5277
O4 O 0.9302(4) 0.6675(4) 0.4320(3)
H4 H 0.9403 0.7012 0.4577
H5 H 0.877(6) 0.639(6) 0.4234
F1 F 1.0634(11) 0.4932(8) 0.1753(4)
C1 C 1.0629(14) 0.5571(13) 0.2009(7)
F2 F 0.9885(9) 0.5829(14) 0.1880(5)
O5 O 1.1332(5) 0.5645(5) 0.3910(3)
F3 F 1.2958(9) 0.6562(10) 0.3595(8)
C2 C 1.2167(13) 0.6742(15) 0.3786(8)
O6 O 1.0424(5) 0.4977(5) 0.2894(3)
F4 F 1.2144(13) 0.7368(8) 0.3577(6)
C3 C 1.1636(8) 0.6069(9) 0.3528(6)
C4 C 1.1419(9) 0.6049(8) 0.2925(6)
H6 H 1.1661 0.6419 0.2686
F5 F 1.2404(8) 0.6720(7) 0.4311(5)
F6 F 1.1104(8) 0.6008(8) 0.1738(4)
C5 C 1.0864(9) 0.5505(9) 0.2679(6)
F7 F 1.2177(8) -0.0011(6) 0.3707(5)
C6 C 1.1629(13) 0.0573(11) 0.3551(8)
F8 F 1.1806(9) 0.0823(6) 0.3057(4)
O7 O 1.1803(5) 0.2442(5) 0.4936(3)
F9 F 1.3274(11) 0.2179(9) 0.5694(9)
C7 C 1.2838(16) 0.1698(12) 0.5466(7)
O8 O 1.1072(5) 0.1794(5) 0.3848(3)
C8 C 1.2197(9) 0.1798(9) 0.4945(6)
F10 F 1.2418(8) 0.1664(13) 0.5886(5)
C9 C 1.2153(8) 0.1233(9) 0.4513(6)
H7 H 1.2505 0.0788 0.4564
F11 F 1.3155(8) 0.0977(10) 0.5529(5)
F12 F 1.0884(8) 0.0232(6) 0.3470(6)
C10 C 1.1616(8) 0.1283(8) 0.4006(6)
O9 O 0.8059(4) 0.5496(4) 0.4449(3)
O10 O 0.7805(4) 0.4238(4) 0.4134(3)
C11 C 0.7562(7) 0.4924(9) 0.4297(4)
C12 C 0.6619(8) 0.5095(8) 0.4324(6)
C13 C 0.6472(10) 0.5387(14) 0.4921(8)
H8 H 0.6810 0.5856 0.5010
H9 H 0.6629 0.4978 0.5204
H10 H 0.5881 0.5517 0.4934
C14 C 0.6095(9) 0.4362(11) 0.4195(10)
H11 H 0.6183 0.4170 0.3810
H12 H 0.5505 0.4489 0.4213
H13 H 0.6260 0.3956 0.4479
C15 C 0.6354(9) 0.5743(15) 0.3911(11)
H14 H 0.6695 0.6209 0.4004
H15 H 0.5766 0.5868 0.3943
H16 H 0.6427 0.5574 0.3519
O11 O 1.1906(5) 0.4275(5) 0.3454(3)
O12 O 1.2139(5) 0.3053(5) 0.3859(4)
C16 C 1.2327(8) 0.3631(9) 0.3548(5)
C17 C 1.3176(9) 0.3586(9) 0.3270(7)
C18 C 1.3555(11) 0.4378(13) 0.3244(10)
H17 H 1.4087 0.4339 0.3072
H18 H 1.3652 0.4592 0.3633
H19 H 1.3178 0.4724 0.3010
C19 C 1.3837(10) 0.3126(13) 0.3656(10)
H20 H 1.4362 0.3115 0.3476
H21 H 1.3641 0.2588 0.3706
H22 H 1.3925 0.3382 0.4032
C20 C 1.3001(12) 0.3250(16) 0.2685(8)
H23 H 1.3520 0.3218 0.2498
H24 H 1.2603 0.3585 0.2459
H25 H 1.2765 0.2723 0.2714
O13 O 0.8688(5) 0.2789(5) 0.4409(4)
O14 O 1.0055(5) 0.2534(5) 0.4668(3)
C21 C 0.9276(8) 0.2347(7) 0.4621(5)
C22 C 0.9028(8) 0.1488(7) 0.4813(6)
C23 C 0.9195(13) 0.0921(10) 0.4331(9)
H26 H 0.9047 0.0388 0.4440
H27 H 0.9787 0.0939 0.4265
H28 H 0.8859 0.1073 0.3979
C24 C 0.9563(13) 0.1255(11) 0.5311(8)
H29 H 0.9412 0.0726 0.5428
H30 H 0.9497 0.1622 0.5626
H31 H 1.0145 0.1259 0.5219
C25 C 0.8091(11) 0.1427(10) 0.4834(10)
H32 H 0.7947 0.0896 0.4950
H33 H 0.7813 0.1541 0.4454
H34 H 0.7910 0.1806 0.5112
O15 O 1.0271(5) 0.3397(4) 0.3546(3)
O16 O 0.8892(5) 0.3473(5) 0.3327(3)
C26 C 0.9590(8) 0.3266(7) 0.3195(5)
C27 C 0.9698(8) 0.2821(8) 0.2620(5)
C28 C 0.9436(10) 0.1964(9) 0.2732(7)
H35 H 0.9487 0.1649 0.2387
H36 H 0.8856 0.1955 0.2828
H37 H 0.9798 0.1746 0.3052
C29 C 0.9109(9) 0.3175(10) 0.2139(5)
H38 H 0.9279 0.3716 0.2067
H39 H 0.8539 0.3173 0.2253
H40 H 0.9134 0.2865 0.1788
C30 C 1.0613(9) 0.2801(9) 0.2464(6)
H41 H 1.0797 0.3335 0.2386
H42 H 1.0650 0.2476 0.2121
H43 H 1.0969 0.2579 0.2785
O17 O 0.6096(10) 0.2194(11) 0.4371(9)
C31 C 0.5755(19) 0.190(3) 0.4761(18)
C32 C 0.546(2) 0.105(2) 0.4709(17)
H44 H 0.5592 0.0831 0.4340
H45 H 0.4853 0.1026 0.4731
H46 H 0.5735 0.0736 0.5022
C33 C 0.556(3) 0.205(4) 0.5264(19)
H47 H 0.5711 0.2587 0.5366
H48 H 0.5852 0.1686 0.5538
H49 H 0.4955 0.1979 0.5276
O18 O 0.6365(12) 0.3458(10) 0.2660(7)
C34 C 0.575(2) 0.389(3) 0.2082(14)
C35 C 0.548(2) 0.278(2) 0.2113(14)
H50 H 0.5714 0.2563 0.2479
H51 H 0.5706 0.2508 0.1796
H52 H 0.4870 0.2723 0.2082
C36 C 0.614(4) 0.430(7) 0.176(4)
H53 H 0.6571 0.4592 0.1988
H54 H 0.5747 0.4665 0.1555
H55 H 0.6391 0.3965 0.1483
O19 O 0.7234(8) 0.1381(8) 0.3010(5)
C37 C 0.7072(13) 0.0835(15) 0.2676(15)
C38 C 0.6841(14) 0.076(2) 0.2162(11)
H56 H 0.6692 0.1272 0.1996
H57 H 0.6354 0.0412 0.2119
H58 H 0.7293 0.0530 0.1963
C39 C 0.713(2) -0.003(3) 0.298(3)
H59 H 0.7424 0.0014 0.3362
H60 H 0.7423 -0.0390 0.2745
H61 H 0.6561 -0.0226 0.3015
Ni1B Ni 1.06663(8) 0.44797(8) 0.52985(5)
Ni2B Ni 0.92260(9) 0.54363(9) 0.62706(6)
Ni4B Ni 0.89365(9) 0.71139(9) 0.57751(6)
O2B O 1.1089(4) 0.4031(4) 0.4515(3)
H2B H 1.1701 0.4135 0.4573
O3B O 1.0568(4) 0.5670(4) 0.5024(3)
H3B H 1.0948 0.5805 0.4723
loop_
_geom_bond_atom_site_label_1
_geom_bond_atom_site_label_2
_geom_bond_site_symmetry_1
_geom_bond_site_symmetry_2
K1 O10 1_555 1_555
Ni1 O1 1_555 1_555
Ni2 O1 1_555 1_555
Ni3 O1 1_555 1_555
Ni4 O7 1_555 1_555
O1 H1 1_555 1_555
O2 Ni1 1_555 1_555
H2 O2 1_555 1_555
O3 Ni1 1_555 1_555
H3 O3 1_555 1_555
O4 Ni1 1_555 1_555
H4 O4 1_555 1_555
H5 O4 1_555 1_555
F1 C1 1_555 1_555
C1 F2 1_555 1_555
O5 Ni2 1_555 1_555
F3 C2 1_555 1_555
C2 F4 1_555 1_555
O6 Ni2 1_555 1_555
C3 O5 1_555 1_555
C4 C3 1_555 1_555
H6 C4 1_555 1_555
F5 C2 1_555 1_555
F6 C1 1_555 1_555
C5 C1 1_555 1_555
F7 C6 1_555 1_555
C6 F8 1_555 1_555
O7 C8 1_555 1_555
F9 C7 1_555 1_555
C7 C8 1_555 1_555
O8 Ni4 1_555 1_555
C8 C9 1_555 1_555
F10 C7 1_555 1_555
C9 H7 1_555 1_555
F11 C7 1_555 1_555
F12 C6 1_555 1_555
C10 C6 1_555 1_555
O9 Ni1 1_555 1_555
O10 Ni3 1_555 1_555
C11 O9 1_555 1_555
C12 C11 1_555 1_555
C13 C12 1_555 1_555
H8 C13 1_555 1_555
H9 C13 1_555 1_555
H10 C13 1_555 1_555
C14 C12 1_555 1_555
H11 C14 1_555 1_555
H12 C14 1_555 1_555
H13 C14 1_555 1_555
C15 C12 1_555 1_555
H14 C15 1_555 1_555
H15 C15 1_555 1_555
H16 C15 1_555 1_555
O11 Ni2 1_555 1_555
O12 Ni4 1_555 1_555
C16 O11 1_555 1_555
C17 C16 1_555 1_555
C18 C17 1_555 1_555
H17 C18 1_555 1_555
H18 C18 1_555 1_555
H19 C18 1_555 1_555
C19 C17 1_555 1_555
H20 C19 1_555 1_555
H21 C19 1_555 1_555
H22 C19 1_555 1_555
C20 C17 1_555 1_555
H23 C20 1_555 1_555
H24 C20 1_555 1_555
H25 C20 1_555 1_555
O13 K1 1_555 1_555
O14 Ni4 1_555 1_555
C21 O13 1_555 1_555
C22 C21 1_555 1_555
C23 C22 1_555 1_555
H26 C23 1_555 1_555
H27 C23 1_555 1_555
H28 C23 1_555 1_555
C24 C22 1_555 1_555
H29 C24 1_555 1_555
H30 C24 1_555 1_555
H31 C24 1_555 1_555
C25 C22 1_555 1_555
H32 C25 1_555 1_555
H33 C25 1_555 1_555
H34 C25 1_555 1_555
O15 Ni2 1_555 1_555
O16 K1 1_555 1_555
C26 O15 1_555 1_555
C27 C26 1_555 1_555
C28 C27 1_555 1_555
H35 C28 1_555 1_555
H36 C28 1_555 1_555
H37 C28 1_555 1_555
C29 C27 1_555 1_555
H38 C29 1_555 1_555
H39 C29 1_555 1_555
H40 C29 1_555 1_555
C30 C27 1_555 1_555
H41 C30 1_555 1_555
H42 C30 1_555 1_555
H43 C30 1_555 1_555
O17 K1 1_555 1_555
C31 O17 1_555 1_555
C32 C31 1_555 1_555
H44 C32 1_555 1_555
H45 C32 1_555 1_555
H46 C32 1_555 1_555
C33 C31 1_555 1_555
H47 C33 1_555 1_555
H48 C33 1_555 1_555
H49 C33 1_555 1_555
O18 K1 1_555 1_555
C34 O18 1_555 1_555
C35 C34 1_555 1_555
H50 C35 1_555 1_555
H51 C35 1_555 1_555
H52 C35 1_555 1_555
C36 C34 1_555 1_555
H53 C36 1_555 1_555
H54 C36 1_555 1_555
H55 C36 1_555 1_555
O19 K1 1_555 1_555
C37 O19 1_555 1_555
C38 C37 1_555 1_555
H56 C38 1_555 1_555
H57 C38 1_555 1_555
H58 C38 1_555 1_555
C39 C37 1_555 1_555
H59 C39 1_555 1_555
H60 C39 1_555 1_555
H61 C39 1_555 1_555
Ni1B O3 1_555 1_555
Ni2B O2 1_555 1_555
Ni4B O2 1_555 1_555
O2B Ni2 1_555 1_555
H2B O2B 1_555 1_555
O3B Ni1 1_555 1_555
H3B O3B 1_555 1_555
Ni3 O3 1_555 1_555
Ni3 O13 1_555 1_555
Ni3 O16 1_555 1_555
Ni4 O15 1_555 1_555
Ni4 O2B 1_555 1_555
C2 C3 1_555 1_555
O6 C5 1_555 1_555
C4 C5 1_555 1_555
O8 C10 1_555 1_555
C9 C10 1_555 1_555
O10 C11 1_555 1_555
O12 C16 1_555 1_555
O14 C21 1_555 1_555
O16 C26 1_555 1_555
Ni1B O2B 1_555 1_555
Ni1B O3B 1_555 1_555

#END
