
#######################################################################
#
#                 Cambridge Crystallographic Data Centre
#                                CCDC 
#
#######################################################################
#
# If this CIF has been generated from an entry in the Cambridge 
# Structural Database, then it will include bibliographic, chemical, 
# crystal, experimental, refinement or atomic coordinate data resulting 
# from the CCDC's data processing and validation procedures.
#
#######################################################################

data_RUFLIN
_symmetry_cell_setting           monoclinic
_symmetry_space_group_name_H-M   'P 21/a'
_symmetry_Int_Tables_number      14
_space_group_name_Hall           '-P 2yab'
loop_
_symmetry_equiv_pos_site_id
_symmetry_equiv_pos_as_xyz
1 x,y,z
2 1/2-x,1/2+y,-z
3 -x,-y,-z
4 1/2+x,1/2-y,z
_cell_length_a                   8.229
_cell_length_b                   9.813(2)
_cell_length_c                   17.996
_cell_angle_alpha                90
_cell_angle_beta                 79.727(2)
_cell_angle_gamma                90
_cell_volume                     1429.9
loop_
_atom_site_label
_atom_site_type_symbol
_atom_site_fract_x
_atom_site_fract_y
_atom_site_fract_z
P1 P 0.65599(9) -0.62106(8) 0.92004(5)
P2 P 0.35388(9) -1.86599(7) 0.57784(5)
F1 F 0.7580(3) -0.6535(2) 0.8406(1)
F2 F 0.2529(2) -1.8292(2) 0.6574(1)
O1 O 0.7468(3) -0.5041(2) 0.9483(1)
O2 O 0.4903(3) -0.5833(2) 0.9025(2)
O3 O 0.6573(3) -0.7491(2) 0.9657(1)
O4 O 0.2442(3) -1.4793(2) 0.4493(1)
O5 O 0.0179(3) -1.5899(2) 0.5954(1)
O6 O 0.3610(3) -1.7381(2) 0.5316(1)
N1 N 0.6500(3) -1.0358(3) 0.8837(2)
N2 N 0.3472(3) -1.4502(3) 0.6159(2)
C1 C 0.6294(4) -1.1702(3) 0.8946(2)
C2 C 0.5657(4) -1.2538(3) 0.8452(2)
C3 C 0.5222(3) -1.1978(3) 0.7801(2)
C4 C 0.5393(4) -1.0580(3) 0.7696(2)
C5 C 0.6039(4) -0.9816(3) 0.8223(2)
C6 C 0.3299(4) -1.3143(3) 0.6147(2)
C7 C 0.3848(4) -1.2302(3) 0.6670(2)
C8 C 0.4608(3) -1.2859(3) 0.7234(2)
C9 C 0.4813(4) -1.4269(3) 0.7230(2)
C10 C 0.4236(4) -1.5049(3) 0.6686(2)
H1 H 0.6617(4) -1.2117(3) 0.9407(2)
H2 H 0.5507(4) -1.3534(3) 0.8559(2)
H3 H 0.5055(4) -1.0133(3) 0.7247(2)
H4 H 0.6167(4) -0.8811(3) 0.8141(2)
H5 H 0.2755(4) -1.2723(3) 0.5746(2)
H6 H 0.3698(4) -1.1294(3) 0.6642(2)
H7 H 0.5373(4) -1.4716(3) 0.7617(2)
H8 H 0.4399(4) -1.6059(3) 0.6688(2)
Zn1 Zn 0.73651(4) -0.42346(3) 1.04620(2)
Zn2 Zn 0.24259(4) -1.56750(3) 0.54461(2)
Zn1B Zn 0.26349(4) -0.57654(3) 0.95380(2)
Zn1A Zn 0.76349(4) -0.92346(3) 0.95380(2)
O1A O 0.7532(3) -1.0041(2) 1.0517(1)
O2C O 0.9903(3) -0.9167(2) 0.9025(2)
O4A O 0.2558(3) -1.9793(2) 0.5507(1)
Zn2A Zn 0.25741(4) -2.06750(3) 0.45539(2)
Zn2C Zn 0.74259(4) -1.93250(3) 0.54461(2)
O5C O 0.5179(3) -1.9101(2) 0.5954(1)
loop_
_geom_bond_atom_site_label_1
_geom_bond_atom_site_label_2
_geom_bond_site_symmetry_1
_geom_bond_site_symmetry_2
P1 F1 1_555 1_555
P2 F2 1_555 1_555
O1 P1 1_555 1_555
O2 P1 1_555 1_555
O3 P1 1_555 1_555
O4 Zn2 1_555 1_555
O5 Zn2 1_555 1_555
O6 P2 1_555 1_555
N1 C1 1_555 1_555
N2 C6 1_555 1_555
C1 C2 1_555 1_555
C2 C3 1_555 1_555
C3 C4 1_555 1_555
C4 C5 1_555 1_555
C5 N1 1_555 1_555
C6 C7 1_555 1_555
C7 C8 1_555 1_555
C8 C3 1_555 1_555
C9 C8 1_555 1_555
C10 N2 1_555 1_555
H1 C1 1_555 1_555
H2 C2 1_555 1_555
H3 C4 1_555 1_555
H4 C5 1_555 1_555
H5 C6 1_555 1_555
H6 C7 1_555 1_555
H7 C9 1_555 1_555
H8 C10 1_555 1_555
Zn1 O1 1_555 1_555
Zn2 O6 1_555 1_555
Zn1B O2 1_555 1_555
Zn1A O3 1_555 1_555
O1A Zn1A 1_555 1_555
O2C Zn1A 1_555 1_555
O4A P2 1_555 1_555
Zn2A O4A 1_555 1_555
Zn2C O5C 1_555 1_555
O5C P2 1_555 1_555
N1 Zn1A 1_555 1_555
N2 Zn2 1_555 1_555
C9 C10 1_555 1_555

#END
