
#######################################################################
#
#                 Cambridge Crystallographic Data Centre
#                                CCDC 
#
#######################################################################
#
# If this CIF has been generated from an entry in the Cambridge 
# Structural Database, then it will include bibliographic, chemical, 
# crystal, experimental, refinement or atomic coordinate data resulting 
# from the CCDC's data processing and validation procedures.
#
#######################################################################

data_RUFMUA
_symmetry_cell_setting           triclinic
_symmetry_space_group_name_H-M   'P -1'
_symmetry_Int_Tables_number      2
_space_group_name_Hall           '-P 1'
loop_
_symmetry_equiv_pos_site_id
_symmetry_equiv_pos_as_xyz
1 x,y,z
2 -x,-y,-z
_cell_length_a                   6.853(3)
_cell_length_b                   9.007(9)
_cell_length_c                   9.987(6)
_cell_angle_alpha                102.13(6)
_cell_angle_beta                 100.53(5)
_cell_angle_gamma                110.21(7)
_cell_volume                     543.233
loop_
_atom_site_label
_atom_site_type_symbol
_atom_site_fract_x
_atom_site_fract_y
_atom_site_fract_z
O1 O 0.0331(2) 0.4085(2) 0.3777(2)
O2 O 0.3687(2) 0.4791(2) 0.3653(2)
O3 O 0.3255(3) 0.5578(2) -0.1470(2)
O4 O 0.1402(3) 0.3278(2) -0.3236(2)
O5 O -0.4063(3) -0.1366(2) -0.0051(2)
O6 O -0.4217(3) -0.1475(2) -0.2331(2)
C1 C 0.0847(3) 0.3277(2) 0.1493(2)
C2 C 0.1774(3) 0.4037(3) 0.0550(2)
C3 C 0.0963(3) 0.3255(2) -0.0915(2)
C4 C -0.0738(3) 0.1699(2) -0.1435(2)
C5 C -0.1665(3) 0.0944(2) -0.0492(2)
C6 C -0.0896(3) 0.1743(3) 0.0976(2)
C7 C 0.1678(3) 0.4102(2) 0.3067(2)
C8 C 0.1937(3) 0.4086(3) -0.1931(2)
C9 C -0.3442(3) -0.0742(2) -0.1058(2)
O7 O 0.2824(3) 0.7905(2) 0.4961(2)
H1 H -0.4948(63) -0.2291(51) -0.0416(40)
H2 H 0.2956 0.5088 0.0907
H3 H -0.1267 0.1152 -0.2431
H4 H -0.1559 0.1242 0.1615
H5 H 0.1383(61) 0.7559(46) 0.4367(39)
H6 H 0.2951(60) 0.8709(51) 0.5380(40)
Ca1 Ca 0.31480(6) 0.58468(5) 0.60991(4)
Ca1A Ca -0.31480(6) 0.41532(5) 0.39009(4)
O1A O -0.0331(2) 0.5915(2) 0.6223(2)
O2A O 0.6313(2) 0.5209(2) 0.6347(2)
O3_2 O 0.3255(3) 0.5578(2) 0.8530(2)
O4_2 O 0.1402(3) 0.3278(2) 0.6764(2)
O6_2 O 0.5783(3) 0.8525(2) 0.7669(2)
Ca1A_2 Ca 0.68520(6) 0.41532(5) 0.39009(4)
Ca1_2 Ca 0.31480(6) 0.58468(5) -0.39009(4)
Ca1_3 Ca -0.68520(6) -0.41532(5) -0.39009(4)
O8 O 0.3853(6) 1.1170(4) 0.6448(4)
H7 H 0.4726(71) 1.1753(55) 0.5975(46)
H8 H 0.271(15) 1.183(12) 0.6698(93)
H9? H 0.304(13) 1.111(11) 0.5390(88)
loop_
_geom_bond_atom_site_label_1
_geom_bond_atom_site_label_2
_geom_bond_site_symmetry_1
_geom_bond_site_symmetry_2
O1 C7 1_555 1_555
O2 C7 1_555 1_555
O3 C8 1_555 1_555
O4 C8 1_555 1_555
O5 C9 1_555 1_555
O6 C9 1_555 1_555
C1 C2 1_555 1_555
C2 C3 1_555 1_555
C3 C4 1_555 1_555
C4 C5 1_555 1_555
C5 C6 1_555 1_555
C6 C1 1_555 1_555
C7 C1 1_555 1_555
C8 C3 1_555 1_555
C9 C5 1_555 1_555
O7 H5 1_555 1_555
H1 O5 1_555 1_555
H2 C2 1_555 1_555
H3 C4 1_555 1_555
H4 C6 1_555 1_555
H6 O7 1_555 1_555
Ca1 O1 1_555 1_555
O8 H7 1_555 1_555
H8 O8 1_555 1_555
Ca1A O1 1_555 1_555
O1A Ca1 1_555 1_555
O2A Ca1 1_555 1_555
O3_2 Ca1 1_555 1_555
O4_2 Ca1 1_555 1_555
O6_2 Ca1 1_555 1_555
Ca1A_2 O2 1_555 1_555
Ca1_2 O3 1_555 1_555
Ca1_3 O6 1_555 1_555
O2 Ca1 1_555 1_555
O4 Ca1_2 1_555 1_555
O7 Ca1 1_555 1_555
Ca1A O1A 1_555 1_555
O2A Ca1A_2 1_555 1_555

#END
