
#######################################################################
#
#                 Cambridge Crystallographic Data Centre
#                                CCDC 
#
#######################################################################
#
# If this CIF has been generated from an entry in the Cambridge 
# Structural Database, then it will include bibliographic, chemical, 
# crystal, experimental, refinement or atomic coordinate data resulting 
# from the CCDC's data processing and validation procedures.
#
#######################################################################

data_RUFMUA01
_symmetry_cell_setting           triclinic
_symmetry_space_group_name_H-M   'P -1'
_symmetry_Int_Tables_number      2
_space_group_name_Hall           '-P 1'
loop_
_symmetry_equiv_pos_site_id
_symmetry_equiv_pos_as_xyz
1 x,y,z
2 -x,-y,-z
_cell_length_a                   6.8656(11)
_cell_length_b                   9.1287(16)
_cell_length_c                   9.9209(14)
_cell_angle_alpha                101.341(13)
_cell_angle_beta                 99.683(12)
_cell_angle_gamma                111.950(16)
_cell_volume                     545.111
loop_
_atom_site_label
_atom_site_type_symbol
_atom_site_fract_x
_atom_site_fract_y
_atom_site_fract_z
Ca1 Ca 0.31318(6) 0.57803(5) 0.10836(4)
O1 O 0.3236(3) 0.54708(19) -0.64885(16)
O2 O 0.0216(2) 0.3973(2) -0.12080(15)
O3 O -0.4182(3) -0.15365(19) -0.50235(16)
H1 H -0.5081 -0.2492 -0.5397
O4 O 0.3578(2) 0.4590(2) -0.13354(16)
O5 O -0.4382(3) -0.15175(19) -0.72896(16)
O6 O 0.1111(3) 0.3271(2) -0.82456(16)
C1 C 0.0833(3) 0.3175(3) -0.5902(2)
C2 C 0.0732(3) 0.3147(3) -0.3488(2)
C3 C -0.0874(3) 0.1622(3) -0.6393(2)
H2 H -0.1413 0.1103 -0.7367
C4 C -0.3575(3) -0.0847(3) -0.6016(2)
C5 C -0.1001(3) 0.1605(3) -0.3991(2)
H3 H -0.1638 0.1088 -0.3357
C6 C 0.1780(3) 0.4020(3) -0.6942(2)
C7 C 0.1561(3) 0.3952(3) -0.1912(2)
C8 C 0.1660(3) 0.3929(3) -0.4438(2)
H4 H 0.2835 0.4958 -0.4096
C9 C -0.1785(3) 0.0834(3) -0.5451(2)
O7 O 0.3178(3) 0.7895(3) -0.0137(2)
H5 H 0.1898 0.7611 -0.0698
H6 H 0.3541 0.8832 0.0486
Ca1_2 Ca 0.31318(6) 0.57803(5) -0.89164(4)
Ca1A Ca -0.31318(6) 0.42197(5) -0.10836(4)
Ca1A_2 Ca 0.68682(6) 0.42197(5) -0.10836(4)
Ca1_3 Ca -0.68682(6) -0.42197(5) -0.89164(4)
O1_2 O 0.3236(3) 0.54708(19) 0.35115(16)
O2A O -0.0216(2) 0.6027(2) 0.12080(15)
O4A O 0.6422(2) 0.5410(2) 0.13354(16)
O5_2 O 0.5618(3) 0.84825(19) 0.27104(16)
O6_2 O 0.1111(3) 0.3271(2) 0.17544(16)
loop_
_geom_bond_atom_site_label_1
_geom_bond_atom_site_label_2
_geom_bond_site_symmetry_1
_geom_bond_site_symmetry_2
Ca1 O2 1_555 1_555
O1 C6 1_555 1_555
O2 C7 1_555 1_555
O3 H1 1_555 1_555
O4 Ca1 1_555 1_555
O5 C4 1_555 1_555
O6 C6 1_555 1_555
C1 C3 1_555 1_555
C2 C5 1_555 1_555
C3 H2 1_555 1_555
C4 O3 1_555 1_555
C5 H3 1_555 1_555
C6 C1 1_555 1_555
C7 O4 1_555 1_555
C8 C1 1_555 1_555
H4 C8 1_555 1_555
C9 C3 1_555 1_555
O7 Ca1 1_555 1_555
H5 O7 1_555 1_555
H6 O7 1_555 1_555
Ca1_2 O1 1_555 1_555
Ca1A O2 1_555 1_555
Ca1A_2 O4 1_555 1_555
Ca1_3 O5 1_555 1_555
O1_2 Ca1 1_555 1_555
O2A Ca1 1_555 1_555
O4A Ca1 1_555 1_555
O5_2 Ca1 1_555 1_555
O6_2 Ca1 1_555 1_555
O6 Ca1_2 1_555 1_555
C2 C7 1_555 1_555
C2 C8 1_555 1_555
C4 C9 1_555 1_555
C5 C9 1_555 1_555
Ca1A O2A 1_555 1_555
Ca1A_2 O4A 1_555 1_555

#END
