
#######################################################################
#
#                 Cambridge Crystallographic Data Centre
#                                CCDC 
#
#######################################################################
#
# If this CIF has been generated from an entry in the Cambridge 
# Structural Database, then it will include bibliographic, chemical, 
# crystal, experimental, refinement or atomic coordinate data resulting 
# from the CCDC's data processing and validation procedures.
#
#######################################################################

data_RUFRUH
_symmetry_cell_setting           rhombohedral
_symmetry_space_group_name_H-M   'R 3 c'
_symmetry_Int_Tables_number      161
_space_group_name_Hall           'R 3 -2"c'
loop_
_symmetry_equiv_pos_site_id
_symmetry_equiv_pos_as_xyz
1 x,y,z
2 -y,x-y,z
3 -x+y,-x,z
4 -y,-x,1/2+z
5 -x+y,y,1/2+z
6 x,x-y,1/2+z
7 2/3+x,1/3+y,1/3+z
8 2/3-y,1/3+x-y,1/3+z
9 2/3-x+y,1/3-x,1/3+z
10 2/3-y,1/3-x,5/6+z
11 2/3-x+y,1/3+y,5/6+z
12 2/3+x,1/3+x-y,5/6+z
13 1/3+x,2/3+y,2/3+z
14 1/3-y,2/3+x-y,2/3+z
15 1/3-x+y,2/3-x,2/3+z
16 1/3-y,2/3-x,1/6+z
17 1/3-x+y,2/3+y,1/6+z
18 1/3+x,2/3+x-y,1/6+z
_cell_length_a                   26.2852(18)
_cell_length_b                   26.2852(18)
_cell_length_c                   10.0237(10)
_cell_angle_alpha                90
_cell_angle_beta                 90
_cell_angle_gamma                120
_cell_volume                     5997.65
loop_
_atom_site_label
_atom_site_type_symbol
_atom_site_fract_x
_atom_site_fract_y
_atom_site_fract_z
Sn1 Sn 0.00862(2) 0.77097(2) 0.0107(5)
O1 O 0.0147(3) 0.8375(3) 0.1535(10)
O2 O 0.0036(4) 0.7585(5) 0.2540(16)
O3 O 0.0176(3) 0.8395(3) 0.8701(9)
O4 O 0.0127(4) 0.7639(3) 0.7726(16)
O5 O -0.0018(3) 0.6779(3) 0.0057(7)
H1 H -0.029(4) 0.646(3) 0.033(12)
H2 H 0.028(3) 0.674(5) -0.001(13)
C1 C 0.0226(6) 0.8433(6) 0.3898(14)
H3 H 0.0651 0.8742 0.3905
C2 C 0.0116(6) 0.8078(5) 0.5161(15)
H4 H -0.0304 0.7770 0.5207
H5 H 0.0355 0.7884 0.5152
C3 C 0.0268(6) 0.8462(5) 0.6337(14)
H6 H 0.0696 0.8761 0.6276
C4 C -0.0080(8) 0.8796(6) 0.6381(17)
H7 H -0.0500 0.8511 0.6540
H8 H 0.0064 0.9076 0.7136
C5 C -0.0020(8) 0.9117(6) 0.514(2)
H9 H 0.0380 0.9464 0.5100
H10 H -0.0303 0.9261 0.5154
C6 C -0.0122(7) 0.8757(6) 0.3909(16)
H11 H -0.0011 0.9017 0.3119
H12 H -0.0547 0.8466 0.3838
C7 C 0.0119(5) 0.8100(5) 0.2605(14)
C8 C 0.0170(5) 0.8141(5) 0.7642(13)
C9 C 0.0984(4) 0.8005(5) 0.0219(14)
H13 H 0.1073 0.7886 0.1075
H14 H 0.1205 0.8434 0.0145
H15 H 0.1097 0.7833 -0.0511
C10 C -0.0841(4) 0.7242(5) 0.0024(13)
H16 H -0.0969 0.7233 -0.0898
H17 H -0.0996 0.7437 0.0593
H18 H -0.0988 0.6839 0.0340
Sn1_2 Sn 0.00862(2) 0.77097(2) 1.0107(5)
O3_2 O 0.0176(3) 0.8395(3) -0.1299(9)
O4_2 O 0.0127(4) 0.7639(3) -0.2274(16)
loop_
_geom_bond_atom_site_label_1
_geom_bond_atom_site_label_2
_geom_bond_site_symmetry_1
_geom_bond_site_symmetry_2
Sn1 O1 1_555 1_555
O1 C7 1_555 1_555
O2 Sn1 1_555 1_555
O3 C8 1_555 1_555
O4 C8 1_555 1_555
O5 Sn1 1_555 1_555
H1 O5 1_555 1_555
H2 O5 1_555 1_555
C1 H3 1_555 1_555
C2 C1 1_555 1_555
H4 C2 1_555 1_555
H5 C2 1_555 1_555
C3 C2 1_555 1_555
H6 C3 1_555 1_555
C4 C3 1_555 1_555
H7 C4 1_555 1_555
H8 C4 1_555 1_555
C5 C4 1_555 1_555
H9 C5 1_555 1_555
H10 C5 1_555 1_555
C6 C1 1_555 1_555
H11 C6 1_555 1_555
H12 C6 1_555 1_555
C7 O2 1_555 1_555
C8 C3 1_555 1_555
C9 Sn1 1_555 1_555
H13 C9 1_555 1_555
H14 C9 1_555 1_555
H15 C9 1_555 1_555
C10 Sn1 1_555 1_555
H16 C10 1_555 1_555
H17 C10 1_555 1_555
H18 C10 1_555 1_555
Sn1_2 O3 1_555 1_555
O3_2 Sn1 1_555 1_555
O4_2 Sn1 1_555 1_555
O4 Sn1_2 1_555 1_555
C1 C7 1_555 1_555
C5 C6 1_555 1_555

#END
