
#######################################################################
#
#                 Cambridge Crystallographic Data Centre
#                                CCDC 
#
#######################################################################
#
# If this CIF has been generated from an entry in the Cambridge 
# Structural Database, then it will include bibliographic, chemical, 
# crystal, experimental, refinement or atomic coordinate data resulting 
# from the CCDC's data processing and validation procedures.
#
#######################################################################

data_RUFROA
_symmetry_cell_setting           monoclinic
_symmetry_space_group_name_H-M   'P 21/c'
_symmetry_Int_Tables_number      14
_space_group_name_Hall           '-P 2ybc'
loop_
_symmetry_equiv_pos_site_id
_symmetry_equiv_pos_as_xyz
1 x,y,z
2 -x,1/2+y,1/2-z
3 -x,-y,-z
4 x,1/2-y,1/2+z
_cell_length_a                   11.6715(3)
_cell_length_b                   7.1418(2)
_cell_length_c                   13.8546(3)
_cell_angle_alpha                90
_cell_angle_beta                 93.539(1)
_cell_angle_gamma                90
_cell_volume                     1152.66
loop_
_atom_site_label
_atom_site_type_symbol
_atom_site_fract_x
_atom_site_fract_y
_atom_site_fract_z
U1 U 0.250531(8) 0.645048(13) 0.959551(7)
O1 O 0.26108(17) 0.7391(3) 1.07790(15)
O2 O 0.23902(16) 0.5533(3) 0.84144(14)
Se1 Se 0.55387(2) 0.67807(3) 0.899890(18)
O3 O 0.43655(15) 0.7702(3) 0.94259(14)
O4 O 0.61971(18) 0.8444(3) 0.84750(16)
O5 O 0.62956(16) 0.6086(3) 0.99862(13)
O6 O 0.52421(18) 0.5059(3) 0.82792(14)
C1 C 0.1480(3) 1.0519(4) 0.8555(2)
O7 O 0.04300(16) 0.7099(3) 0.95067(16)
O8 O -0.13258(16) 0.6036(3) 0.97533(15)
N1 N 0.2173(2) 0.9643(4) 0.8990(2)
C2 C -0.0258(2) 0.5901(4) 0.9788(2)
S1 S 0.05027(8) 1.17694(14) 0.79842(8)
U1B U 0.749469(8) 0.354952(13) 1.040449(7)
U1B_2 U -0.250531(8) 0.354952(13) 1.040449(7)
O1B O 0.73892(17) 0.2609(3) 0.92210(15)
O2B O 0.76098(16) 0.4467(3) 1.15856(14)
Se1B Se 0.44613(2) 0.32193(3) 1.100110(18)
O3B O 0.56345(15) 0.2298(3) 1.05741(14)
O4B O 0.38029(18) 0.1556(3) 1.15250(16)
O5B O 0.37044(16) 0.3914(3) 1.00138(13)
O6B O 0.47579(18) 0.4941(3) 1.17208(14)
C1B C 0.8520(3) -0.0519(4) 1.1445(2)
O7B O -0.04300(16) 0.2901(3) 1.04933(16)
O7B_2 O 0.95700(16) 0.2901(3) 1.04933(16)
O8B O 0.13258(16) 0.3964(3) 1.02467(15)
O8_2 O 0.86742(16) 0.6036(3) 0.97533(15)
N1B N 0.7827(2) 0.0357(4) 1.1010(2)
C2B C 0.0258(2) 0.4099(4) 1.0212(2)
S1B S 0.94973(8) -0.17694(14) 1.20158(8)
K1 K 0.45468(7) 1.15080(9) 0.85508(5)
K2 K -0.16188(5) 0.93243(9) 0.86214(5)
loop_
_geom_bond_atom_site_label_1
_geom_bond_atom_site_label_2
_geom_bond_site_symmetry_1
_geom_bond_site_symmetry_2
U1 O1 1_555 1_555
O2 U1 1_555 1_555
Se1 O3 1_555 1_555
O3 U1 1_555 1_555
O4 Se1 1_555 1_555
O5 Se1 1_555 1_555
O6 Se1 1_555 1_555
C1 N1 1_555 1_555
O7 U1 1_555 1_555
O8 C2 1_555 1_555
N1 U1 1_555 1_555
C2 O7 1_555 1_555
S1 C1 1_555 1_555
U1B O5 1_555 1_555
U1B_2 O8 1_555 1_555
O1B U1B 1_555 1_555
O2B U1B 1_555 1_555
Se1B O3B 1_555 1_555
O3B U1B 1_555 1_555
O4B Se1B 1_555 1_555
O5B U1 1_555 1_555
O6B Se1B 1_555 1_555
C1B N1B 1_555 1_555
O7B U1B_2 1_555 1_555
O7B_2 U1B 1_555 1_555
O8B U1 1_555 1_555
O8_2 U1B 1_555 1_555
N1B U1B 1_555 1_555
C2B C2 1_555 1_555
S1B C1B 1_555 1_555
Se1B O5B 1_555 1_555
O7B C2B 1_555 1_555
O8B C2B 1_555 1_555

#END
