
#######################################################################
#
#                 Cambridge Crystallographic Data Centre
#                                CCDC 
#
#######################################################################
#
# If this CIF has been generated from an entry in the Cambridge 
# Structural Database, then it will include bibliographic, chemical, 
# crystal, experimental, refinement or atomic coordinate data resulting 
# from the CCDC's data processing and validation procedures.
#
#######################################################################

data_RUFREQ
_symmetry_cell_setting           monoclinic
_symmetry_space_group_name_H-M   'P 21/c'
_symmetry_Int_Tables_number      14
_space_group_name_Hall           '-P 2ybc'
loop_
_symmetry_equiv_pos_site_id
_symmetry_equiv_pos_as_xyz
1 x,y,z
2 -x,1/2+y,1/2-z
3 -x,-y,-z
4 x,1/2-y,1/2+z
_cell_length_a                   11.5548(3)
_cell_length_b                   7.0847(1)
_cell_length_c                   13.5172(3)
_cell_angle_alpha                90
_cell_angle_beta                 93.130(1)
_cell_angle_gamma                90
_cell_volume                     1104.9
loop_
_atom_site_label
_atom_site_type_symbol
_atom_site_fract_x
_atom_site_fract_y
_atom_site_fract_z
U1 U 0.256035(9) 0.637446(15) 0.962114(8)
O1 O 0.2656(2) 0.7359(3) 1.08245(17)
O2 O 0.2457(2) 0.5410(3) 0.84200(16)
S1 S 0.55200(6) 0.68126(10) 0.90149(5)
O3 O 0.44512(18) 0.7581(3) 0.94513(16)
O4 O 0.6066(2) 0.8328(3) 0.84910(18)
O5 O 0.62891(19) 0.6222(3) 0.98885(16)
O6 O 0.5242(2) 0.5217(3) 0.83817(16)
C1 C 0.1533(3) 1.0427(5) 0.8543(3)
O7 O 0.04743(19) 0.7109(3) 0.95128(19)
O8 O -0.1323(2) 0.6081(3) 0.97360(19)
N1 N 0.2252(3) 0.9574(4) 0.8970(3)
C2 C -0.0248(3) 0.5920(4) 0.9786(2)
S2 S 0.05147(9) 1.16452(16) 0.79647(9)
U1B U 0.743965(9) 0.362554(15) 1.037886(8)
U1B_2 U -0.256035(9) 0.362554(15) 1.037886(8)
O1B O 0.7344(2) 0.2641(3) 0.91755(17)
O2B O 0.7543(2) 0.4590(3) 1.15800(16)
S1B S 0.44800(6) 0.31874(10) 1.09851(5)
O3B O 0.55488(18) 0.2419(3) 1.05487(16)
O4B O 0.3934(2) 0.1672(3) 1.15090(18)
O5B O 0.37109(19) 0.3778(3) 1.01115(16)
O6B O 0.4758(2) 0.4783(3) 1.16183(16)
C1B C 0.8467(3) -0.0427(5) 1.1457(3)
O7B O -0.04743(19) 0.2891(3) 1.04872(19)
O7B_2 O 0.95257(19) 0.2891(3) 1.04872(19)
O8B O 0.1323(2) 0.3919(3) 1.02640(19)
O8_2 O 0.8677(2) 0.6081(3) 0.97360(19)
N1B N 0.7748(3) 0.0426(4) 1.1030(3)
C2B C 0.0248(3) 0.4080(4) 1.0214(2)
S2B S 0.94853(9) -0.16452(16) 1.20353(9)
K1 K 0.45763(7) 1.15438(10) 0.85242(5)
K2 K -0.17048(7) 0.92903(11) 0.86132(6)
loop_
_geom_bond_atom_site_label_1
_geom_bond_atom_site_label_2
_geom_bond_site_symmetry_1
_geom_bond_site_symmetry_2
U1 O1 1_555 1_555
O2 U1 1_555 1_555
S1 O3 1_555 1_555
O3 U1 1_555 1_555
O4 S1 1_555 1_555
O5 S1 1_555 1_555
O6 S1 1_555 1_555
C1 N1 1_555 1_555
O7 U1 1_555 1_555
O8 C2 1_555 1_555
N1 U1 1_555 1_555
C2 O7 1_555 1_555
S2 C1 1_555 1_555
U1B O5 1_555 1_555
U1B_2 O8 1_555 1_555
O1B U1B 1_555 1_555
O2B U1B 1_555 1_555
S1B O3B 1_555 1_555
O3B U1B 1_555 1_555
O4B S1B 1_555 1_555
O5B U1 1_555 1_555
O6B S1B 1_555 1_555
C1B N1B 1_555 1_555
O7B U1B_2 1_555 1_555
O7B_2 U1B 1_555 1_555
O8B U1 1_555 1_555
O8_2 U1B 1_555 1_555
N1B U1B 1_555 1_555
C2B C2 1_555 1_555
S2B C1B 1_555 1_555
S1B O5B 1_555 1_555
O7B C2B 1_555 1_555
O8B C2B 1_555 1_555

#END
