
#######################################################################
#
#                 Cambridge Crystallographic Data Centre
#                                CCDC 
#
#######################################################################
#
# If this CIF has been generated from an entry in the Cambridge 
# Structural Database, then it will include bibliographic, chemical, 
# crystal, experimental, refinement or atomic coordinate data resulting 
# from the CCDC's data processing and validation procedures.
#
#######################################################################

data_RUFRAN
_symmetry_cell_setting           triclinic
_symmetry_space_group_name_H-M   'P -1'
_symmetry_Int_Tables_number      2
_space_group_name_Hall           '-P 1'
loop_
_symmetry_equiv_pos_site_id
_symmetry_equiv_pos_as_xyz
1 x,y,z
2 -x,-y,-z
_cell_length_a                   12.0813(7)
_cell_length_b                   12.7544(8)
_cell_length_c                   14.2206(10)
_cell_angle_alpha                90.879(6)
_cell_angle_beta                 94.563(7)
_cell_angle_gamma                117.961(8)
_cell_volume                     1925.87
loop_
_atom_site_label
_atom_site_type_symbol
_atom_site_fract_x
_atom_site_fract_y
_atom_site_fract_z
V1 V 0.27505(6) 0.62393(6) 0.08432(5)
O1 O 0.3557(2) 0.7851(2) 0.0877(2)
O2 O 0.2858(2) 0.5809(2) 0.2044(2)
O3 O 0.4644(3) 0.3529(3) 0.0975(2)
H1 H 0.508(5) 0.346(5) 0.061(4)
O4 O 0.1272(2) 0.5711(3) 0.0395(2)
O5 O 0.3520(2) 0.5803(2) 0.0206(2)
C1 C 0.4853(4) 0.8470(3) 0.1005(3)
C2 C 0.5524(4) 0.8866(3) 0.0201(3)
C3 C 0.6828(4) 0.9609(4) 0.0364(3)
H2 H 0.7294 0.9898 -0.0166
C4 C 0.7469(4) 0.9942(4) 0.1259(3)
C5 C 0.6782(4) 0.9465(4) 0.2021(3)
H3 H 0.7209 0.9653 0.2640
C6 C 0.5473(4) 0.8712(3) 0.1907(3)
C7 C 0.8907(4) 1.0738(4) 0.1397(4)
C8 C 0.9346(5) 1.1626(7) 0.0646(5)
H4 H 0.8955 1.2145 0.0685
H5 H 0.9105 1.1204 0.0022
H6 H 1.0264 1.2108 0.0742
C9 C 0.9333(5) 1.1380(6) 0.2362(5)
H7 H 1.0247 1.1893 0.2418
H8 H 0.9116 1.0798 0.2848
H9 H 0.8913 1.1867 0.2447
C10 C 0.9514(5) 0.9919(6) 0.1331(6)
H10 H 1.0431 1.0403 0.1364
H11 H 0.9204 0.9441 0.0731
H12 H 0.9294 0.9393 0.1857
C11 C 0.4799(4) 0.8134(4) 0.2764(3)
H13 H 0.3906 0.7953 0.2661
H14 H 0.5193 0.8689 0.3329
C12 C 0.3937(3) 0.5898(4) 0.2516(3)
C13 C 0.4876(4) 0.6989(4) 0.2926(3)
C14 C 0.5914(4) 0.7024(4) 0.3451(3)
H15 H 0.6530 0.7757 0.3760
C15 C 0.6080(4) 0.6017(4) 0.3541(3)
C16 C 0.5152(4) 0.4957(4) 0.3110(3)
H16 H 0.5250 0.4264 0.3167
C17 C 0.4073(3) 0.4863(3) 0.2595(3)
C18 C 0.7255(4) 0.6113(4) 0.4130(3)
C19 C 0.8470(5) 0.7201(6) 0.3835(5)
H17 H 0.8410 0.7933 0.3941
H18 H 0.8547 0.7091 0.3164
H19 H 0.9212 0.7259 0.4215
C20 C 0.7178(6) 0.6342(6) 0.5148(4)
H20 H 0.6549 0.5612 0.5399
H21 H 0.6934 0.6969 0.5214
H22 H 0.8001 0.6594 0.5502
C21 C 0.7451(5) 0.5059(6) 0.3957(5)
H23 H 0.8260 0.5203 0.4283
H24 H 0.7454 0.4926 0.3277
H25 H 0.6769 0.4356 0.4196
C22 C 0.3042(4) 0.3711(3) 0.2126(3)
H26 H 0.2875 0.3845 0.1458
H27 H 0.2264 0.3498 0.2435
C23 C 0.4116(4) 0.2585(4) 0.1532(3)
C24 C 0.3310(4) 0.2664(4) 0.2151(3)
C25 C 0.2774(4) 0.1768(4) 0.2766(3)
H28 H 0.2241 0.1828 0.3197
C26 C 0.2982(4) 0.0784(4) 0.2783(3)
C27 C 0.3759(4) 0.0729(4) 0.2129(3)
H29 H 0.3900 0.0057 0.2111
C28 C 0.4334(4) 0.1606(4) 0.1506(3)
C29 C 0.2431(4) -0.0192(4) 0.3485(3)
C30 C 0.3518(5) -0.0151(4) 0.4154(4)
H30 H 0.3182 -0.0796 0.4586
H31 H 0.3947 0.0615 0.4519
H32 H 0.4118 -0.0247 0.3783
C31 C 0.1705(4) -0.1410(4) 0.2948(4)
H33 H 0.0993 -0.1439 0.2545
H34 H 0.1391 -0.2033 0.3400
H35 H 0.2266 -0.1539 0.2555
C32 C 0.1536(5) -0.0013(4) 0.4097(4)
H36 H 0.0841 -0.0015 0.3690
H37 H 0.1997 0.0750 0.4465
H38 H 0.1199 -0.0659 0.4528
C33 C 0.5134(4) 0.1477(4) 0.0785(3)
H39 H 0.5917 0.2241 0.0779
H40 H 0.5376 0.0866 0.0984
Li1 Li -0.0414(7) 0.5341(7) 0.0751(6)
N1 N -0.1210(4) 0.6399(4) 0.0985(3)
C34 C -0.2087(4) 0.6511(4) 0.1030(3)
C35 C -0.3215(4) 0.6640(4) 0.1091(3)
H41 H -0.3961 0.5859 0.0979
H42 H -0.3250 0.7172 0.0614
H43 H -0.3192 0.6974 0.1722
N2 N -0.0315(5) 0.4802(5) 0.2077(4)
C36 C 0.0277(5) 0.4995(5) 0.2799(4)
C37 C 0.0991(5) 0.5245(5) 0.3682(4)
H44 H 0.1842 0.5377 0.3591
H45 H 0.0588 0.4572 0.4080
H46 H 0.1042 0.5961 0.3991
O1A O 0.6443(2) 0.2149(2) -0.0877(2)
O2A O 0.7142(2) 0.4191(2) -0.2044(2)
O3A O 0.5356(3) 0.6471(3) -0.0975(2)
H1A H 0.492(5) 0.654(5) -0.061(4)
C1A C 0.5147(4) 0.1530(3) -0.1005(3)
C2A C 0.4476(4) 0.1134(3) -0.0201(3)
C3A C 0.3172(4) 0.0391(4) -0.0364(3)
H2A H 0.2706 0.0102 0.0166
C4A C 0.2531(4) 0.0058(4) -0.1259(3)
C5A C 0.3218(4) 0.0535(4) -0.2021(3)
H3A H 0.2791 0.0347 -0.2640
C6A C 0.4527(4) 0.1288(3) -0.1907(3)
C7A C 0.1093(4) -0.0738(4) -0.1397(4)
C8A C 0.0654(5) -0.1626(7) -0.0646(5)
H4A H 0.1045 -0.2145 -0.0685
H5A H 0.0895 -0.1204 -0.0022
H6A H -0.0264 -0.2108 -0.0742
C9A C 0.0667(5) -0.1380(6) -0.2362(5)
H7A H -0.0247 -0.1893 -0.2418
H8A H 0.0884 -0.0798 -0.2848
H9A H 0.1087 -0.1867 -0.2447
C10A C 0.0486(5) 0.0081(6) -0.1331(6)
H10A H -0.0431 -0.0403 -0.1364
H11A H 0.0796 0.0559 -0.0731
H12A H 0.0706 0.0607 -0.1857
C11A C 0.5201(4) 0.1866(4) -0.2764(3)
H13A H 0.6094 0.2047 -0.2661
H14A H 0.4807 0.1311 -0.3329
C12A C 0.6063(3) 0.4102(4) -0.2516(3)
C13A C 0.5124(4) 0.3011(4) -0.2926(3)
C14A C 0.4086(4) 0.2976(4) -0.3451(3)
H15A H 0.3470 0.2243 -0.3760
C15A C 0.3920(4) 0.3983(4) -0.3541(3)
C16A C 0.4848(4) 0.5043(4) -0.3110(3)
H16A H 0.4750 0.5736 -0.3167
C17A C 0.5927(3) 0.5137(3) -0.2595(3)
C18A C 0.2745(4) 0.3887(4) -0.4130(3)
C19A C 0.1530(5) 0.2799(6) -0.3835(5)
H17A H 0.1590 0.2067 -0.3941
H18A H 0.1453 0.2909 -0.3164
H19A H 0.0788 0.2741 -0.4215
C20A C 0.2822(6) 0.3658(6) -0.5148(4)
H20A H 0.3451 0.4388 -0.5399
H21A H 0.3066 0.3031 -0.5214
H22A H 0.1999 0.3406 -0.5502
C21A C 0.2549(5) 0.4941(6) -0.3957(5)
H23A H 0.1740 0.4797 -0.4283
H24A H 0.2546 0.5074 -0.3277
H25A H 0.3231 0.5644 -0.4196
C22A C 0.6958(4) 0.6289(3) -0.2126(3)
H26A H 0.7125 0.6155 -0.1458
H27A H 0.7736 0.6502 -0.2435
C23A C 0.5884(4) 0.7415(4) -0.1532(3)
C24A C 0.6690(4) 0.7336(4) -0.2151(3)
C25A C 0.7226(4) 0.8232(4) -0.2766(3)
H28A H 0.7759 0.8172 -0.3197
C26A C 0.7018(4) 0.9216(4) -0.2783(3)
C27A C 0.6241(4) 0.9271(4) -0.2129(3)
H29A H 0.6100 0.9943 -0.2111
C28A C 0.5666(4) 0.8394(4) -0.1506(3)
C29A C 0.7569(4) 1.0192(4) -0.3485(3)
C30A C 0.6482(5) 1.0151(4) -0.4154(4)
H30A H 0.6818 1.0796 -0.4586
H31A H 0.6053 0.9385 -0.4519
H32A H 0.5882 1.0247 -0.3783
C31A C 0.8295(4) 1.1410(4) -0.2948(4)
H33A H 0.9007 1.1439 -0.2545
H34A H 0.8609 1.2033 -0.3400
H35A H 0.7734 1.1539 -0.2555
C32A C 0.8464(5) 1.0013(4) -0.4097(4)
H36A H 0.9159 1.0015 -0.3690
H37A H 0.8003 0.9250 -0.4465
H38A H 0.8801 1.0659 -0.4528
C33A C 0.4866(4) 0.8523(4) -0.0785(3)
H39A H 0.4083 0.7759 -0.0779
H40A H 0.4624 0.9134 -0.0984
V1A V -0.27505(6) 0.37607(6) -0.08432(5)
O4A O -0.1272(2) 0.4289(3) -0.0395(2)
O5A O -0.3520(2) 0.4197(2) -0.0206(2)
Li1A Li 0.0414(7) 0.4659(7) -0.0751(6)
N1A N 0.1210(4) 0.3601(4) -0.0985(3)
C34A C 0.2087(4) 0.3489(4) -0.1030(3)
C35A C 0.3215(4) 0.3360(4) -0.1091(3)
H41A H 0.3961 0.4141 -0.0979
H42A H 0.3250 0.2828 -0.0614
H43A H 0.3192 0.3026 -0.1722
N2A N 0.0315(5) 0.5198(5) -0.2077(4)
C36A C -0.0277(5) 0.5005(5) -0.2799(4)
C37A C -0.0991(5) 0.4755(5) -0.3682(4)
H44A H -0.1842 0.4623 -0.3591
H45A H -0.0588 0.5428 -0.4080
H46A H -0.1042 0.4039 -0.3991
V1A_2 V 0.72495(6) 0.37607(6) -0.08432(5)
O1A_2 O -0.3557(2) 0.2149(2) -0.0877(2)
O2A_2 O -0.2858(2) 0.4191(2) -0.2044(2)
N3 N 0.8653(5) 0.2816(5) 0.4483(4)
C38 C 0.7830(5) 0.2528(5) 0.3891(4)
C39 C 0.6841(5) 0.2200(5) 0.3088(5)
H47 H 0.7172 0.2759 0.2591
H48 H 0.6109 0.2234 0.3308
H49 H 0.6588 0.1392 0.2836
loop_
_geom_bond_atom_site_label_1
_geom_bond_atom_site_label_2
_geom_bond_site_symmetry_1
_geom_bond_site_symmetry_2
V1 O1 1_555 1_555
O1 C1 1_555 1_555
O2 V1 1_555 1_555
O3 H1 1_555 1_555
O4 V1 1_555 1_555
O5 V1 1_555 1_555
C1 C2 1_555 1_555
C2 C3 1_555 1_555
C3 H2 1_555 1_555
C4 C3 1_555 1_555
C5 C4 1_555 1_555
H3 C5 1_555 1_555
C6 C1 1_555 1_555
C7 C4 1_555 1_555
C8 C7 1_555 1_555
H4 C8 1_555 1_555
H5 C8 1_555 1_555
H6 C8 1_555 1_555
C9 C7 1_555 1_555
H7 C9 1_555 1_555
H8 C9 1_555 1_555
H9 C9 1_555 1_555
C10 C7 1_555 1_555
H10 C10 1_555 1_555
H11 C10 1_555 1_555
H12 C10 1_555 1_555
C11 C6 1_555 1_555
H13 C11 1_555 1_555
H14 C11 1_555 1_555
C12 O2 1_555 1_555
C13 C11 1_555 1_555
C14 C13 1_555 1_555
H15 C14 1_555 1_555
C15 C14 1_555 1_555
C16 C15 1_555 1_555
H16 C16 1_555 1_555
C17 C12 1_555 1_555
C18 C15 1_555 1_555
C19 C18 1_555 1_555
H17 C19 1_555 1_555
H18 C19 1_555 1_555
H19 C19 1_555 1_555
C20 C18 1_555 1_555
H20 C20 1_555 1_555
H21 C20 1_555 1_555
H22 C20 1_555 1_555
C21 C18 1_555 1_555
H23 C21 1_555 1_555
H24 C21 1_555 1_555
H25 C21 1_555 1_555
C22 C17 1_555 1_555
H26 C22 1_555 1_555
H27 C22 1_555 1_555
C23 O3 1_555 1_555
C24 C22 1_555 1_555
C25 C24 1_555 1_555
H28 C25 1_555 1_555
C26 C25 1_555 1_555
C27 C26 1_555 1_555
H29 C27 1_555 1_555
C28 C23 1_555 1_555
C29 C26 1_555 1_555
C30 C29 1_555 1_555
H30 C30 1_555 1_555
H31 C30 1_555 1_555
H32 C30 1_555 1_555
C31 C29 1_555 1_555
H33 C31 1_555 1_555
H34 C31 1_555 1_555
H35 C31 1_555 1_555
C32 C29 1_555 1_555
H36 C32 1_555 1_555
H37 C32 1_555 1_555
H38 C32 1_555 1_555
C33 C28 1_555 1_555
H39 C33 1_555 1_555
H40 C33 1_555 1_555
Li1 O4 1_555 1_555
N1 Li1 1_555 1_555
C34 N1 1_555 1_555
C35 C34 1_555 1_555
H41 C35 1_555 1_555
H42 C35 1_555 1_555
H43 C35 1_555 1_555
N2 Li1 1_555 1_555
C36 N2 1_555 1_555
C37 C36 1_555 1_555
H44 C37 1_555 1_555
H45 C37 1_555 1_555
H46 C37 1_555 1_555
N3 C38 1_555 1_555
C38 C39 1_555 1_555
C39 H47 1_555 1_555
H48 C39 1_555 1_555
H49 C39 1_555 1_555
O1A C1A 1_555 1_555
O2A C12A 1_555 1_555
O3A H1A 1_555 1_555
C1A C2A 1_555 1_555
C2A C33 1_555 1_555
C3A C2A 1_555 1_555
H2A C3A 1_555 1_555
C4A C3A 1_555 1_555
C5A C4A 1_555 1_555
H3A C5A 1_555 1_555
C6A C1A 1_555 1_555
C7A C4A 1_555 1_555
C8A C7A 1_555 1_555
H4A C8A 1_555 1_555
H5A C8A 1_555 1_555
H6A C8A 1_555 1_555
C9A C7A 1_555 1_555
H7A C9A 1_555 1_555
H8A C9A 1_555 1_555
H9A C9A 1_555 1_555
C10A C7A 1_555 1_555
H10A C10A 1_555 1_555
H11A C10A 1_555 1_555
H12A C10A 1_555 1_555
C11A C6A 1_555 1_555
H13A C11A 1_555 1_555
H14A C11A 1_555 1_555
C12A C13A 1_555 1_555
C13A C11A 1_555 1_555
C14A C13A 1_555 1_555
H15A C14A 1_555 1_555
C15A C14A 1_555 1_555
C16A C15A 1_555 1_555
H16A C16A 1_555 1_555
C17A C12A 1_555 1_555
C18A C15A 1_555 1_555
C19A C18A 1_555 1_555
H17A C19A 1_555 1_555
H18A C19A 1_555 1_555
H19A C19A 1_555 1_555
C20A C18A 1_555 1_555
H20A C20A 1_555 1_555
H21A C20A 1_555 1_555
H22A C20A 1_555 1_555
C21A C18A 1_555 1_555
H23A C21A 1_555 1_555
H24A C21A 1_555 1_555
H25A C21A 1_555 1_555
C22A C17A 1_555 1_555
H26A C22A 1_555 1_555
H27A C22A 1_555 1_555
C23A O3A 1_555 1_555
C24A C22A 1_555 1_555
C25A C24A 1_555 1_555
H28A C25A 1_555 1_555
C26A C25A 1_555 1_555
C27A C26A 1_555 1_555
H29A C27A 1_555 1_555
C28A C23A 1_555 1_555
C29A C26A 1_555 1_555
C30A C29A 1_555 1_555
H30A C30A 1_555 1_555
H31A C30A 1_555 1_555
H32A C30A 1_555 1_555
C31A C29A 1_555 1_555
H33A C31A 1_555 1_555
H34A C31A 1_555 1_555
H35A C31A 1_555 1_555
C32A C29A 1_555 1_555
H36A C32A 1_555 1_555
H37A C32A 1_555 1_555
H38A C32A 1_555 1_555
C33A C2 1_555 1_555
H39A C33A 1_555 1_555
H40A C33A 1_555 1_555
V1A O4A 1_555 1_555
O4A Li1 1_555 1_555
O5A V1A 1_555 1_555
Li1A O4 1_555 1_555
N1A Li1A 1_555 1_555
C34A N1A 1_555 1_555
C35A C34A 1_555 1_555
H41A C35A 1_555 1_555
H42A C35A 1_555 1_555
H43A C35A 1_555 1_555
N2A Li1A 1_555 1_555
C36A N2A 1_555 1_555
C37A C36A 1_555 1_555
H44A C37A 1_555 1_555
H45A C37A 1_555 1_555
H46A C37A 1_555 1_555
V1A_2 O1A 1_555 1_555
O1A_2 V1A 1_555 1_555
O2A_2 V1A 1_555 1_555
C5 C6 1_555 1_555
C12 C13 1_555 1_555
C16 C17 1_555 1_555
C23 C24 1_555 1_555
C27 C28 1_555 1_555
O2A V1A_2 1_555 1_555
C5A C6A 1_555 1_555
C16A C17A 1_555 1_555
C23A C24A 1_555 1_555
C27A C28A 1_555 1_555
C28A C33A 1_555 1_555
O4A Li1A 1_555 1_555

#END
