
#######################################################################
#
#                 Cambridge Crystallographic Data Centre
#                                CCDC 
#
#######################################################################
#
# If this CIF has been generated from an entry in the Cambridge 
# Structural Database, then it will include bibliographic, chemical, 
# crystal, experimental, refinement or atomic coordinate data resulting 
# from the CCDC's data processing and validation procedures.
#
#######################################################################

data_RUFSES
_symmetry_cell_setting           monoclinic
_symmetry_space_group_name_H-M   'P 21/n'
_symmetry_Int_Tables_number      14
_space_group_name_Hall           '-P 2yn'
loop_
_symmetry_equiv_pos_site_id
_symmetry_equiv_pos_as_xyz
1 x,y,z
2 1/2-x,1/2+y,1/2-z
3 -x,-y,-z
4 1/2+x,1/2-y,1/2+z
_cell_length_a                   13.5209(8)
_cell_length_b                   9.0508(6)
_cell_length_c                   14.4884(9)
_cell_angle_alpha                90
_cell_angle_beta                 103.6800(10)
_cell_angle_gamma                90
_cell_volume                     1722.72
loop_
_atom_site_label
_atom_site_type_symbol
_atom_site_fract_x
_atom_site_fract_y
_atom_site_fract_z
Sn1 Sn 0.728126(18) 0.66802(3) 0.472490(17)
O1 O 0.6006(2) 0.8025(3) 0.4741(2)
O2 O 0.6393(2) 0.8262(3) 0.3360(2)
O3 O 0.2222(2) 0.8864(3) 0.11470(19)
O4 O 0.3451(2) 1.0101(3) 0.07388(19)
C1 C 0.5841(3) 0.8611(4) 0.3897(3)
C2 C 0.4951(3) 0.9646(4) 0.3608(3)
H1 H 0.4946 1.0323 0.4152
C3 C 0.5015(3) 1.0581(4) 0.2747(3)
H2 H 0.5640 1.1190 0.2901
H3 H 0.5052 0.9926 0.2209
C4 C 0.4084(3) 1.1587(4) 0.2460(3)
H4 H 0.4127 1.2159 0.1888
H5 H 0.4080 1.2296 0.2979
C5 C 0.3095(3) 1.0700(5) 0.2250(3)
H6 H 0.2524 1.1428 0.2167
C6 C 0.3033(3) 0.9724(4) 0.3093(3)
H7 H 0.2415 0.9101 0.2920
H8 H 0.2973 1.0357 0.3634
C7 C 0.3964(3) 0.8735(5) 0.3397(3)
H9 H 0.3979 0.8015 0.2886
H10 H 0.3918 0.8175 0.3973
C8 C 0.2940(3) 0.9840(4) 0.1331(3)
C9 C 0.8577(3) 0.8168(5) 0.4883(3)
C10 C 0.9165(3) 0.8219(5) 0.5920(3)
H11 H 0.9732 0.8916 0.5990
H12 H 0.9431 0.7232 0.6120
H13 H 0.8710 0.8540 0.6316
C11 C 0.9244(3) 0.7527(6) 0.4263(3)
H14 H 0.8846 0.7451 0.3605
H15 H 0.9483 0.6543 0.4497
H16 H 0.9831 0.8176 0.4290
C12 C 0.8227(3) 0.9719(5) 0.4551(3)
H17 H 0.8815 1.0384 0.4665
H18 H 0.7737 1.0071 0.4903
H19 H 0.7903 0.9700 0.3870
C13 C 0.6687(3) 0.4723(5) 0.3902(3)
C14 C 0.5783(3) 0.5116(5) 0.3074(3)
H20 H 0.5532 0.4219 0.2715
H21 H 0.6004 0.5828 0.2654
H22 H 0.5237 0.5551 0.3325
C15 C 0.6327(4) 0.3640(5) 0.4562(3)
H23 H 0.5984 0.2803 0.4192
H24 H 0.5853 0.4141 0.4875
H25 H 0.6915 0.3282 0.5044
C16 C 0.7541(3) 0.4041(5) 0.3524(3)
H26 H 0.8117 0.3810 0.4056
H27 H 0.7760 0.4742 0.3096
H28 H 0.7297 0.3133 0.3176
Sn1C Sn 0.228126(18) 0.83198(3) -0.027510(17)
O3C O 0.7222(2) 0.6136(3) 0.61470(19)
O4C O 0.8451(2) 0.4899(3) 0.57388(19)
loop_
_geom_bond_atom_site_label_1
_geom_bond_atom_site_label_2
_geom_bond_site_symmetry_1
_geom_bond_site_symmetry_2
Sn1 O1 1_555 1_555
O1 C1 1_555 1_555
O2 Sn1 1_555 1_555
O3 C8 1_555 1_555
O4 C8 1_555 1_555
C1 O2 1_555 1_555
C2 C1 1_555 1_555
H1 C2 1_555 1_555
C3 C2 1_555 1_555
H2 C3 1_555 1_555
H3 C3 1_555 1_555
C4 C3 1_555 1_555
H4 C4 1_555 1_555
H5 C4 1_555 1_555
C5 C4 1_555 1_555
H6 C5 1_555 1_555
C6 C5 1_555 1_555
H7 C6 1_555 1_555
H8 C6 1_555 1_555
C7 C2 1_555 1_555
H9 C7 1_555 1_555
H10 C7 1_555 1_555
C8 C5 1_555 1_555
C9 Sn1 1_555 1_555
C10 C9 1_555 1_555
H11 C10 1_555 1_555
H12 C10 1_555 1_555
H13 C10 1_555 1_555
C11 C9 1_555 1_555
H14 C11 1_555 1_555
H15 C11 1_555 1_555
H16 C11 1_555 1_555
C12 C9 1_555 1_555
H17 C12 1_555 1_555
H18 C12 1_555 1_555
H19 C12 1_555 1_555
C13 Sn1 1_555 1_555
C14 C13 1_555 1_555
H20 C14 1_555 1_555
H21 C14 1_555 1_555
H22 C14 1_555 1_555
C15 C13 1_555 1_555
H23 C15 1_555 1_555
H24 C15 1_555 1_555
H25 C15 1_555 1_555
C16 C13 1_555 1_555
H26 C16 1_555 1_555
H27 C16 1_555 1_555
H28 C16 1_555 1_555
Sn1C O3 1_555 1_555
O3C Sn1 1_555 1_555
O4C Sn1 1_555 1_555
O4 Sn1C 1_555 1_555
C6 C7 1_555 1_555

#END
