
#######################################################################
#
#                 Cambridge Crystallographic Data Centre
#                                CCDC 
#
#######################################################################
#
# If this CIF has been generated from an entry in the Cambridge 
# Structural Database, then it will include bibliographic, chemical, 
# crystal, experimental, refinement or atomic coordinate data resulting 
# from the CCDC's data processing and validation procedures.
#
#######################################################################

data_RUFSIW
_symmetry_cell_setting           monoclinic
_symmetry_space_group_name_H-M   'C 2/c'
_symmetry_Int_Tables_number      15
_space_group_name_Hall           '-C 2yn'
loop_
_symmetry_equiv_pos_site_id
_symmetry_equiv_pos_as_xyz
1 x,y,z
2 -x,y,1/2-z
3 1/2+x,1/2+y,z
4 1/2-x,1/2+y,1/2-z
5 -x,-y,-z
6 x,-y,1/2+z
7 1/2-x,1/2-y,-z
8 1/2+x,1/2-y,1/2+z
_cell_length_a                   11.5712(17)
_cell_length_b                   5.1018(8)
_cell_length_c                   20.444(3)
_cell_angle_alpha                90
_cell_angle_beta                 103.498(3)
_cell_angle_gamma                90
_cell_volume                     1173.55
loop_
_atom_site_label
_atom_site_type_symbol
_atom_site_fract_x
_atom_site_fract_y
_atom_site_fract_z
Sn1 Sn 0.5000 0.10418(3) 0.7500
O1 O 0.51705(14) 0.4203(2) 0.68708(7)
O2 O 0.55087(16) 0.0602(3) 0.63699(8)
C1 C 0.53732(17) 0.3002(4) 0.63509(9)
C2 C 0.53462(18) 0.4636(4) 0.57338(9)
H1 H 0.5658 0.6423 0.5879
C3 C 0.40424(19) 0.4878(4) 0.53569(9)
H2 H 0.3711 0.3108 0.5234
H3 H 0.3583 0.5696 0.5655
C4 C 0.6087(2) 0.3470(4) 0.52795(10)
H4 H 0.5820 0.1655 0.5156
H5 H 0.6932 0.3408 0.5524
C5 C 0.3318(2) -0.0462(5) 0.70455(11)
H6 H 0.2835 -0.0571 0.7380
H7 H 0.3405 -0.2215 0.6867
H8 H 0.2928 0.0696 0.6678
O1D O 0.48295(14) 0.5797(2) 0.31292(7)
O2D O 0.44913(16) 0.9398(3) 0.36301(8)
C1D C 0.46268(17) 0.6998(4) 0.36491(9)
C2D C 0.46538(18) 0.5364(4) 0.42662(9)
H1D H 0.4342 0.3577 0.4121
C3D C 0.59576(19) 0.5122(4) 0.46431(9)
H2D H 0.6289 0.6892 0.4766
H3D H 0.6417 0.4304 0.4345
C4D C 0.3913(2) 0.6530(4) 0.47205(10)
H4D H 0.4180 0.8345 0.4844
H5D H 0.3068 0.6592 0.4476
C5A C 0.6682(2) -0.0462(5) 0.79545(11)
H6A H 0.7165 -0.0571 0.7620
H7A H 0.6595 -0.2215 0.8133
H8A H 0.7072 0.0696 0.8322
Sn1D Sn 0.5000 0.89582(3) 0.2500
O1A O 0.48295(14) 0.4203(2) 0.81292(7)
O2A O 0.44913(16) 0.0602(3) 0.86301(8)
loop_
_geom_bond_atom_site_label_1
_geom_bond_atom_site_label_2
_geom_bond_site_symmetry_1
_geom_bond_site_symmetry_2
Sn1 O1 1_555 1_555
O1 C1 1_555 1_555
O2 Sn1 1_555 1_555
C1 O2 1_555 1_555
C2 C1 1_555 1_555
H1 C2 1_555 1_555
C3 C2 1_555 1_555
H2 C3 1_555 1_555
H3 C3 1_555 1_555
C4 C2 1_555 1_555
H4 C4 1_555 1_555
H5 C4 1_555 1_555
C5 Sn1 1_555 1_555
H6 C5 1_555 1_555
H7 C5 1_555 1_555
H8 C5 1_555 1_555
O1D C1D 1_555 1_555
O2D C1D 1_555 1_555
C1D C2D 1_555 1_555
C2D H1D 1_555 1_555
C3D C4 1_555 1_555
H2D C3D 1_555 1_555
H3D C3D 1_555 1_555
C4D C3 1_555 1_555
H4D C4D 1_555 1_555
H5D C4D 1_555 1_555
C5A Sn1 1_555 1_555
H6A C5A 1_555 1_555
H7A C5A 1_555 1_555
H8A C5A 1_555 1_555
Sn1D O1D 1_555 1_555
O1A Sn1 1_555 1_555
O2A Sn1 1_555 1_555
O2D Sn1D 1_555 1_555
C2D C3D 1_555 1_555
C2D C4D 1_555 1_555

#END
