
#######################################################################
#
#                 Cambridge Crystallographic Data Centre
#                                CCDC 
#
#######################################################################
#
# If this CIF has been generated from an entry in the Cambridge 
# Structural Database, then it will include bibliographic, chemical, 
# crystal, experimental, refinement or atomic coordinate data resulting 
# from the CCDC's data processing and validation procedures.
#
#######################################################################

data_RUFTUJ
_symmetry_cell_setting           monoclinic
_symmetry_space_group_name_H-M   'P 21/c'
_symmetry_Int_Tables_number      14
_space_group_name_Hall           '-P 2ybc'
loop_
_symmetry_equiv_pos_site_id
_symmetry_equiv_pos_as_xyz
1 x,y,z
2 -x,1/2+y,1/2-z
3 -x,-y,-z
4 x,1/2-y,1/2+z
_cell_length_a                   9.5561(9)
_cell_length_b                   17.3966(14)
_cell_length_c                   22.1223(16)
_cell_angle_alpha                90
_cell_angle_beta                 112.042(3)
_cell_angle_gamma                90
_cell_volume                     3408.89
loop_
_atom_site_label
_atom_site_type_symbol
_atom_site_fract_x
_atom_site_fract_y
_atom_site_fract_z
Mn1 Mn 0.55238(7) 0.74040(4) 0.95654(3)
Mn2 Mn 0.5000 1.0000 1.0000
O1 O 0.3864(3) 0.76645(18) 0.99776(14)
O2 O 0.4379(3) 0.88823(17) 1.02726(14)
O3 O -0.3771(3) 0.84657(16) 0.93145(13)
O4 O -0.3062(3) 0.95664(17) 0.98514(14)
O5 O 0.5556(3) 0.71138(17) 1.21097(14)
O6 O 0.6785(3) 0.78569(18) 1.29634(14)
O7 O 0.4849(4) 1.04194(19) 1.31250(16)
O8 O 0.3104(3) 1.09631(17) 1.22711(14)
O9 O 0.6937(3) 0.67427(18) 0.91520(14)
H1 H 0.6906 0.6255 0.9158
H2 H 0.6986 0.7039 0.8855
O10 O 0.4837(4) 0.62154(18) 0.97431(15)
H3 H 0.5282 0.6252 1.0154
H4 H 0.4770 0.5753 0.9610
N1 N 0.3291(4) 0.9893(2) 0.89410(17)
N2 N -0.1708(6) 1.0093(3) 0.5643(2)
N3 N 0.3634(4) 0.7437(2) 0.85711(17)
N4 N -0.2502(4) 0.7602(2) 0.55349(17)
C1 C 0.3492(5) 0.8325(3) 1.0114(2)
C2 C 0.1882(4) 0.8431(2) 1.0047(2)
C3 C 0.0756(5) 0.8204(2) 0.9457(2)
H5 H 0.1025 0.7944 0.9149
C4 C -0.0753(5) 0.8361(2) 0.9325(2)
H6 H -0.1489 0.8190 0.8938
C5 C -0.1162(5) 0.8768(2) 0.9764(2)
C6 C -0.0052(4) 0.8969(2) 1.03614(19)
H7 H -0.0332 0.9230 1.0665
C7 C 0.1463(4) 0.8792(2) 1.05182(19)
C8 C -0.2784(5) 0.8947(3) 0.9637(2)
C9 C 0.2564(5) 0.8904(2) 1.1199(2)
C10 C 0.3562(4) 0.8308(2) 1.1503(2)
H8 H 0.3535 0.7858 1.1272
C11 C 0.4584(5) 0.8369(2) 1.2135(2)
C12 C 0.4587(5) 0.9027(2) 1.2488(2)
H9 H 0.5231 0.9059 1.2923
C13 C 0.3644(5) 0.9635(2) 1.2200(2)
C14 C 0.2631(4) 0.9577(2) 1.15557(19)
H10 H 0.1998 0.9987 1.1362
C15 C 0.3893(5) 1.0383(3) 1.2575(2)
C16 C 0.5731(5) 0.7737(3) 1.2434(2)
C17 C 0.1838(5) 0.9729(3) 0.8774(2)
H11 H 0.1499 0.9596 0.9102
C18 C 0.0802(5) 0.9746(3) 0.8141(2)
H12 H -0.0201 0.9618 0.8052
C19 C 0.1255(5) 0.9954(3) 0.7643(2)
C20 C 0.2770(6) 1.0101(4) 0.7820(2)
H13 H 0.3146 1.0227 0.7500
C21 C 0.3745(6) 1.0064(4) 0.8466(3)
H14 H 0.4764 1.0165 0.8569
C22 C -0.2057(6) 0.9675(4) 0.6063(3)
H15 H -0.2968 0.9409 0.5915
C23 C -0.1133(6) 0.9613(3) 0.6712(2)
H16 H -0.1425 0.9307 0.6989
C24 C 0.0212(5) 1.0000(3) 0.6951(2)
C25 C 0.0550(7) 1.0454(4) 0.6509(3)
H17 H 0.1438 1.0740 0.6645
C26 C -0.0434(8) 1.0481(4) 0.5869(3)
H18 H -0.0185 1.0790 0.5581
C27 C 0.2516(5) 0.6928(3) 0.8399(2)
H19 H 0.2541 0.6541 0.8693
C28 C 0.1322(6) 0.6945(3) 0.7806(2)
H20 H 0.0574 0.6571 0.7708
C29 C 0.1232(5) 0.7510(3) 0.7361(2)
C30 C 0.2411(5) 0.8027(3) 0.7529(2)
H21 H 0.2427 0.8409 0.7238
C31 C 0.3563(5) 0.7971(3) 0.8131(2)
H22 H 0.4340 0.8329 0.8236
C32 C -0.1132(5) 0.7856(3) 0.5597(2)
H23 H -0.1005 0.8054 0.5231
C33 C 0.0096(5) 0.7838(3) 0.6176(2)
H24 H 0.1024 0.8024 0.6193
C34 C -0.0044(5) 0.7546(3) 0.6730(2)
C35 C -0.1457(6) 0.7284(3) 0.6663(2)
H25 H -0.1615 0.7082 0.7021
C36 C -0.2622(5) 0.7321(3) 0.6072(2)
H26 H -0.3559 0.7138 0.6043
Mn1B Mn -0.55238(7) 1.25960(4) 1.04346(3)
O1B O -0.3864(3) 1.23355(18) 1.00224(14)
O2B O -0.4379(3) 1.11177(17) 0.97274(14)
O3B O 0.3771(3) 1.15343(16) 1.06855(13)
O4B O 0.3062(3) 1.04336(17) 1.01486(14)
O5B O -0.5556(3) 1.28862(17) 0.78903(14)
O6B O -0.6785(3) 1.21431(18) 0.70366(14)
O7B O -0.4849(4) 0.95806(19) 0.68750(16)
O8B O -0.3104(3) 0.90369(17) 0.77289(14)
O9B O -0.6937(3) 1.32573(18) 1.08480(14)
H1B H -0.6906 1.3745 1.0842
H2B H -0.6986 1.2961 1.1145
O10B O -0.4837(4) 1.37846(18) 1.02569(15)
H3B H -0.5282 1.3748 0.9846
H4B H -0.4770 1.4247 1.0390
N3B N -0.3634(4) 1.2563(2) 1.14289(17)
N4B N 0.2502(4) 1.2398(2) 1.44651(17)
C1B C -0.3492(5) 1.1675(3) 0.9886(2)
C2B C -0.1882(4) 1.1569(2) 0.9953(2)
C3B C -0.0756(5) 1.1796(2) 1.0543(2)
H5B H -0.1025 1.2056 1.0851
C4B C 0.0753(5) 1.1639(2) 1.0675(2)
H6B H 0.1489 1.1810 1.1062
C5B C 0.1162(5) 1.1232(2) 1.0236(2)
C6B C 0.0052(4) 1.1031(2) 0.96386(19)
H7B H 0.0332 1.0770 0.9335
C7B C -0.1463(4) 1.1208(2) 0.94818(19)
C8B C 0.2784(5) 1.1053(3) 1.0363(2)
C9B C -0.2564(5) 1.1096(2) 0.8801(2)
C10B C -0.3562(4) 1.1692(2) 0.8497(2)
H8B H -0.3535 1.2142 0.8728
C11B C -0.4584(5) 1.1631(2) 0.7865(2)
C12B C -0.4587(5) 1.0973(2) 0.7512(2)
H9B H -0.5231 1.0941 0.7077
C13B C -0.3644(5) 1.0365(2) 0.7800(2)
C14B C -0.2631(4) 1.0423(2) 0.84443(19)
H10B H -0.1998 1.0013 0.8638
C15B C -0.3893(5) 0.9617(3) 0.7425(2)
C16B C -0.5731(5) 1.2263(3) 0.7566(2)
C27B C -0.2516(5) 1.3072(3) 1.1601(2)
H19B H -0.2541 1.3459 1.1307
C28B C -0.1322(6) 1.3055(3) 1.2194(2)
H20B H -0.0574 1.3429 1.2292
C29B C -0.1232(5) 1.2490(3) 1.2639(2)
C30B C -0.2411(5) 1.1973(3) 1.2471(2)
H21B H -0.2427 1.1591 1.2762
C31B C -0.3563(5) 1.2029(3) 1.1869(2)
H22B H -0.4340 1.1671 1.1764
C32B C 0.1132(5) 1.2144(3) 1.4403(2)
H23B H 0.1005 1.1946 1.4769
C33B C -0.0096(5) 1.2162(3) 1.3824(2)
H24B H -0.1024 1.1976 1.3807
C34B C 0.0044(5) 1.2454(3) 1.3270(2)
C35B C 0.1457(6) 1.2716(3) 1.3337(2)
H25B H 0.1615 1.2918 1.2979
C36B C 0.2622(5) 1.2679(3) 1.3928(2)
H26B H 0.3559 1.2862 1.3957
N1B N 0.6709(4) 1.0107(2) 1.10590(17)
N2B N 1.1708(6) 0.9907(3) 1.4357(2)
C17B C 0.8162(5) 1.0271(3) 1.1226(2)
H11B H 0.8501 1.0404 1.0898
C18B C 0.9198(5) 1.0254(3) 1.1859(2)
H12B H 1.0201 1.0382 1.1948
C19B C 0.8745(5) 1.0046(3) 1.2357(2)
C20B C 0.7230(6) 0.9899(4) 1.2180(2)
H13B H 0.6854 0.9773 1.2500
C21B C 0.6255(6) 0.9936(4) 1.1534(3)
H14B H 0.5236 0.9835 1.1431
C22B C 1.2057(6) 1.0325(4) 1.3937(3)
H15B H 1.2968 1.0591 1.4085
C23B C 1.1133(6) 1.0387(3) 1.3288(2)
H16B H 1.1425 1.0693 1.3011
C24B C 0.9788(5) 1.0000(3) 1.3049(2)
C25B C 0.9450(7) 0.9546(4) 1.3491(3)
H17B H 0.8562 0.9260 1.3355
C26B C 1.0434(8) 0.9519(4) 1.4131(3)
H18B H 1.0185 0.9210 1.4419
Mn1_2 Mn -0.44762(7) 0.74040(4) 0.95654(3)
Mn1A Mn 0.44762(7) 1.24040(4) 1.54346(3)
Mn1B_2 Mn 0.44762(7) 1.25960(4) 1.04346(3)
Mn1C Mn -0.44762(7) 0.75960(4) 0.45654(3)
Mn2_2 Mn -0.5000 1.0000 1.0000
O2B_2 O 0.5621(3) 1.11177(17) 0.97274(14)
O3_2 O 0.6229(3) 0.84657(16) 0.93145(13)
O3B_2 O -0.6229(3) 1.15343(16) 1.06855(13)
O4_2 O 0.6938(3) 0.95664(17) 0.98514(14)
N4A N -0.7498(4) 1.2602(2) 0.94651(17)
N4C N 0.7498(4) 0.7398(2) 1.05349(17)
O11 O 0.6492(4) 0.5235(2) 0.93341(17)
H27 H 0.6820 0.4982 0.9689
H28 H 0.5998 0.5036 0.8964
O12 O 0.3462(5) 0.8558(2) 0.57465(18)
H29 H 0.3925 0.8693 0.6141
H30 H 0.4366 0.8604 0.5770
loop_
_geom_bond_atom_site_label_1
_geom_bond_atom_site_label_2
_geom_bond_site_symmetry_1
_geom_bond_site_symmetry_2
Mn1 O1 1_555 1_555
Mn2 O2 1_555 1_555
O1 C1 1_555 1_555
O2 C1 1_555 1_555
O3 C8 1_555 1_555
O4 C8 1_555 1_555
O5 C16 1_555 1_555
O6 C16 1_555 1_555
O7 C15 1_555 1_555
O8 C15 1_555 1_555
O9 Mn1 1_555 1_555
H1 O9 1_555 1_555
H2 O9 1_555 1_555
O10 Mn1 1_555 1_555
H3 O10 1_555 1_555
H4 O10 1_555 1_555
N1 Mn2 1_555 1_555
N2 C22 1_555 1_555
N3 Mn1 1_555 1_555
N4 C32 1_555 1_555
C1 C2 1_555 1_555
C2 C3 1_555 1_555
C3 H5 1_555 1_555
C4 C3 1_555 1_555
H6 C4 1_555 1_555
C5 C4 1_555 1_555
C6 C5 1_555 1_555
H7 C6 1_555 1_555
C7 C2 1_555 1_555
C8 C5 1_555 1_555
C9 C7 1_555 1_555
C10 C9 1_555 1_555
H8 C10 1_555 1_555
C11 C10 1_555 1_555
C12 C11 1_555 1_555
H9 C12 1_555 1_555
C13 C12 1_555 1_555
C14 C9 1_555 1_555
H10 C14 1_555 1_555
C15 C13 1_555 1_555
C16 C11 1_555 1_555
C17 N1 1_555 1_555
H11 C17 1_555 1_555
C18 C17 1_555 1_555
H12 C18 1_555 1_555
C19 C18 1_555 1_555
C20 C19 1_555 1_555
H13 C20 1_555 1_555
C21 N1 1_555 1_555
H14 C21 1_555 1_555
C22 H15 1_555 1_555
C23 C22 1_555 1_555
H16 C23 1_555 1_555
C24 C19 1_555 1_555
C25 C24 1_555 1_555
H17 C25 1_555 1_555
C26 N2 1_555 1_555
H18 C26 1_555 1_555
C27 N3 1_555 1_555
H19 C27 1_555 1_555
C28 C27 1_555 1_555
H20 C28 1_555 1_555
C29 C28 1_555 1_555
C30 C29 1_555 1_555
H21 C30 1_555 1_555
C31 N3 1_555 1_555
H22 C31 1_555 1_555
C32 H23 1_555 1_555
C33 C32 1_555 1_555
H24 C33 1_555 1_555
C34 C29 1_555 1_555
C35 C34 1_555 1_555
H25 C35 1_555 1_555
C36 N4 1_555 1_555
H26 C36 1_555 1_555
O11 H27 1_555 1_555
H28 O11 1_555 1_555
O12 H29 1_555 1_555
H30 O12 1_555 1_555
Mn1B O1B 1_555 1_555
O1B C1B 1_555 1_555
O2B C1B 1_555 1_555
O3B C8B 1_555 1_555
O4B Mn2 1_555 1_555
O5B C16B 1_555 1_555
O6B C16B 1_555 1_555
O7B C15B 1_555 1_555
O8B C15B 1_555 1_555
O9B Mn1B 1_555 1_555
H1B O9B 1_555 1_555
H2B O9B 1_555 1_555
O10B Mn1B 1_555 1_555
H3B O10B 1_555 1_555
H4B O10B 1_555 1_555
N3B Mn1B 1_555 1_555
N4B C32B 1_555 1_555
C1B C2B 1_555 1_555
C2B C3B 1_555 1_555
C3B H5B 1_555 1_555
C4B C3B 1_555 1_555
H6B C4B 1_555 1_555
C5B C4B 1_555 1_555
C6B C5B 1_555 1_555
H7B C6B 1_555 1_555
C7B C2B 1_555 1_555
C8B O4B 1_555 1_555
C9B C7B 1_555 1_555
C10B C9B 1_555 1_555
H8B C10B 1_555 1_555
C11B C10B 1_555 1_555
C12B C11B 1_555 1_555
H9B C12B 1_555 1_555
C13B C12B 1_555 1_555
C14B C9B 1_555 1_555
H10B C14B 1_555 1_555
C15B C13B 1_555 1_555
C16B C11B 1_555 1_555
C27B N3B 1_555 1_555
H19B C27B 1_555 1_555
C28B C27B 1_555 1_555
H20B C28B 1_555 1_555
C29B C28B 1_555 1_555
C30B C29B 1_555 1_555
H21B C30B 1_555 1_555
C31B N3B 1_555 1_555
H22B C31B 1_555 1_555
C32B H23B 1_555 1_555
C33B C32B 1_555 1_555
H24B C33B 1_555 1_555
C34B C29B 1_555 1_555
C35B C34B 1_555 1_555
H25B C35B 1_555 1_555
C36B N4B 1_555 1_555
H26B C36B 1_555 1_555
N1B Mn2 1_555 1_555
N2B C22B 1_555 1_555
C17B N1B 1_555 1_555
H11B C17B 1_555 1_555
C18B C17B 1_555 1_555
H12B C18B 1_555 1_555
C19B C18B 1_555 1_555
C20B C19B 1_555 1_555
H13B C20B 1_555 1_555
C21B N1B 1_555 1_555
H14B C21B 1_555 1_555
C22B H15B 1_555 1_555
C23B C22B 1_555 1_555
H16B C23B 1_555 1_555
C24B C19B 1_555 1_555
C25B C24B 1_555 1_555
H17B C25B 1_555 1_555
C26B N2B 1_555 1_555
H18B C26B 1_555 1_555
Mn1_2 O3 1_555 1_555
Mn1A N4B 1_555 1_555
Mn1B_2 O3B 1_555 1_555
Mn1C N4 1_555 1_555
Mn2_2 O4 1_555 1_555
O2B_2 Mn2 1_555 1_555
O3_2 Mn1 1_555 1_555
O3B_2 Mn1B 1_555 1_555
O4_2 Mn2 1_555 1_555
N4A Mn1B 1_555 1_555
N4C Mn1 1_555 1_555
C6 C7 1_555 1_555
C13 C14 1_555 1_555
C20 C21 1_555 1_555
C23 C24 1_555 1_555
C25 C26 1_555 1_555
C30 C31 1_555 1_555
C33 C34 1_555 1_555
C35 C36 1_555 1_555
O2B Mn2_2 1_555 1_555
C5B C8B 1_555 1_555
C6B C7B 1_555 1_555
C13B C14B 1_555 1_555
C30B C31B 1_555 1_555
C33B C34B 1_555 1_555
C35B C36B 1_555 1_555
C20B C21B 1_555 1_555
C23B C24B 1_555 1_555
C25B C26B 1_555 1_555

#END
