
#######################################################################
#
#                 Cambridge Crystallographic Data Centre
#                                CCDC 
#
#######################################################################
#
# If this CIF has been generated from an entry in the Cambridge 
# Structural Database, then it will include bibliographic, chemical, 
# crystal, experimental, refinement or atomic coordinate data resulting 
# from the CCDC's data processing and validation procedures.
#
#######################################################################

data_RUFTAO
_symmetry_cell_setting           monoclinic
_symmetry_space_group_name_H-M   'P 21/c'
_symmetry_Int_Tables_number      14
_space_group_name_Hall           '-P 2ybc'
loop_
_symmetry_equiv_pos_site_id
_symmetry_equiv_pos_as_xyz
1 x,y,z
2 -x,1/2+y,1/2-z
3 -x,-y,-z
4 x,1/2-y,1/2+z
_cell_length_a                   13.368(2)
_cell_length_b                   7.891(3)
_cell_length_c                   20.480(2)
_cell_angle_alpha                90
_cell_angle_beta                 108.69(2)
_cell_angle_gamma                90
_cell_volume                     2046.45
loop_
_atom_site_label
_atom_site_type_symbol
_atom_site_fract_x
_atom_site_fract_y
_atom_site_fract_z
Cu1 Cu 0.31733(4) 0.13748(8) 0.30750(3)
O1 O 0.2927(2) 0.2507(4) 0.21831(16)
O2 O 0.3198(3) 0.4629(4) 0.29279(17)
O3 O -0.0365(3) 0.1091(6) 0.09366(17)
O4 O 0.3711(3) 0.5818(5) 0.50825(18)
O5 O 0.2958(2) 0.8613(5) 0.28289(17)
O6 O 0.4448(2) 0.7789(4) 0.26628(17)
N1 N 0.1591(3) 0.1496(5) 0.29372(18)
N2 N -0.1839(4) 0.1203(9) 0.1220(3)
N3 N 0.3552(3) 0.1250(6) 0.41018(17)
N4 N 0.4544(4) 0.4705(9) 0.6130(3)
C1 C 0.2950(4) 0.4089(6) 0.2328(2)
C2 C 0.2588(4) 0.5306(7) 0.1739(2)
C3 C 0.2800(4) 0.7038(7) 0.1828(3)
C4 C 0.2372(5) 0.8123(8) 0.1282(3)
C5 C 0.1748(5) 0.7527(10) 0.0648(3)
C6 C 0.1538(5) 0.5832(10) 0.0558(3)
C7 C 0.1957(5) 0.4713(8) 0.1094(3)
C8 C 0.0928(3) 0.1313(8) 0.2286(2)
C9 C -0.0156(3) 0.1456(7) 0.2114(2)
C10 C -0.0575(4) 0.1799(8) 0.2629(3)
C11 C 0.0090(4) 0.1941(8) 0.3296(3)
C12 C 0.1157(4) 0.1790(7) 0.3429(3)
C13 C 0.3715(4) 0.2722(7) 0.4442(3)
C14 C 0.3918(4) 0.2859(6) 0.5149(3)
C15 C 0.3928(4) 0.1373(8) 0.5508(3)
C16 C 0.3770(4) -0.0143(8) 0.5170(3)
C17 C 0.3584(4) -0.0169(7) 0.4473(3)
C18 C 0.4052(4) 0.4594(7) 0.5452(3)
C19 C -0.0805(4) 0.1242(8) 0.1370(2)
C20 C 0.3456(4) 0.7828(6) 0.2502(3)
O7 O 0.4706(3) 0.1090(7) 0.3157(2)
H1 H -0.212(4) 0.106(8) 0.151(3)
H2 H -0.216(4) 0.099(8) 0.084(3)
H3 H 0.465(5) 0.566(8) 0.623(3)
H4 H 0.484(5) 0.391(10) 0.638(4)
H5 H 0.253(4) 0.927(8) 0.130(3)
H6 H 0.145(4) 0.829(6) 0.030(2)
H7 H 0.109(4) 0.545(7) 0.016(3)
H8 H 0.183(3) 0.359(6) 0.105(2)
H9 H 0.125(3) 0.112(6) 0.196(2)
H10 H -0.133(4) 0.199(6) 0.253(2)
H11 H -0.020(4) 0.214(7) 0.365(3)
H12 H 0.165(3) 0.196(5) 0.386(2)
H13 H 0.374(3) 0.363(6) 0.4204(19)
H14 H 0.405(3) 0.143(7) 0.596(2)
H15 H 0.379(4) -0.117(7) 0.538(3)
H16 H 0.352(3) -0.118(7) 0.422(2)
H17 H 0.483(5) 0.151(9) 0.282(3)
H18 H 0.474(6) 0.027(9) 0.309(4)
Cu1_2 Cu 0.31733(4) 1.13748(8) 0.30750(3)
O5_2 O 0.2958(2) -0.1387(5) 0.28289(17)
O8 O -0.1001(5) -0.1689(9) -0.0016(3)
H19 H -0.0939 -0.0732 0.0205
H20 H -0.0829 -0.1138 -0.0321
loop_
_geom_bond_atom_site_label_1
_geom_bond_atom_site_label_2
_geom_bond_site_symmetry_1
_geom_bond_site_symmetry_2
Cu1 O1 1_555 1_555
O1 C1 1_555 1_555
O2 C1 1_555 1_555
O3 C19 1_555 1_555
O4 C18 1_555 1_555
O5 C20 1_555 1_555
O6 C20 1_555 1_555
N1 Cu1 1_555 1_555
N2 C19 1_555 1_555
N3 Cu1 1_555 1_555
N4 C18 1_555 1_555
C1 C2 1_555 1_555
C2 C3 1_555 1_555
C3 C4 1_555 1_555
C4 C5 1_555 1_555
C5 C6 1_555 1_555
C6 C7 1_555 1_555
C7 C2 1_555 1_555
C8 N1 1_555 1_555
C9 C8 1_555 1_555
C10 C9 1_555 1_555
C11 C10 1_555 1_555
C12 N1 1_555 1_555
C13 N3 1_555 1_555
C14 C13 1_555 1_555
C15 C14 1_555 1_555
C16 C15 1_555 1_555
C17 N3 1_555 1_555
C18 C14 1_555 1_555
C19 C9 1_555 1_555
C20 C3 1_555 1_555
O7 Cu1 1_555 1_555
O8 H19 1_555 1_555
H1 N2 1_555 1_555
H2 N2 1_555 1_555
H3 N4 1_555 1_555
H4 N4 1_555 1_555
H5 C4 1_555 1_555
H6 C5 1_555 1_555
H7 C6 1_555 1_555
H8 C7 1_555 1_555
H9 C8 1_555 1_555
H10 C10 1_555 1_555
H11 C11 1_555 1_555
H12 C12 1_555 1_555
H13 C13 1_555 1_555
H14 C15 1_555 1_555
H15 C16 1_555 1_555
H16 C17 1_555 1_555
H17 O7 1_555 1_555
H18 O7 1_555 1_555
H20 O8 1_555 1_555
Cu1_2 O5 1_555 1_555
O5_2 Cu1 1_555 1_555
C11 C12 1_555 1_555
C16 C17 1_555 1_555

#END
