
#######################################################################
#
#                 Cambridge Crystallographic Data Centre
#                                CCDC 
#
#######################################################################
#
# If this CIF has been generated from an entry in the Cambridge 
# Structural Database, then it will include bibliographic, chemical, 
# crystal, experimental, refinement or atomic coordinate data resulting 
# from the CCDC's data processing and validation procedures.
#
#######################################################################

data_RUFTIX
_symmetry_cell_setting           orthorhombic
_symmetry_space_group_name_H-M   'P b c a'
_symmetry_Int_Tables_number      61
_space_group_name_Hall           '-P 2ac 2ab'
loop_
_symmetry_equiv_pos_site_id
_symmetry_equiv_pos_as_xyz
1 x,y,z
2 1/2-x,-y,1/2+z
3 1/2+x,1/2-y,-z
4 -x,1/2+y,1/2-z
5 -x,-y,-z
6 1/2+x,y,1/2-z
7 1/2-x,1/2+y,z
8 x,1/2-y,1/2+z
_cell_length_a                   16.038(4)
_cell_length_b                   14.499(3)
_cell_length_c                   29.508(7)
_cell_angle_alpha                90
_cell_angle_beta                 90
_cell_angle_gamma                90
_cell_volume                     6861.64
loop_
_atom_site_label
_atom_site_type_symbol
_atom_site_fract_x
_atom_site_fract_y
_atom_site_fract_z
Mn1 Mn 0.41840(4) 0.60430(5) 0.36495(2)
Mn2 Mn 0.50729(4) 0.31778(5) 0.35030(2)
N1 N 0.4048(2) 0.2556(3) 0.30749(14)
N2 N 0.3873(2) 0.3367(3) 0.38816(14)
N3 N 0.3582(2) 0.6317(3) 0.43236(12)
N4 N 0.2817(2) 0.5639(2) 0.35942(14)
O1 O 0.07875(17) 0.4002(2) 0.10576(8)
O2 O 0.01092(17) 0.5342(2) 0.10053(9)
O3 O 0.4987(2) 0.2742(2) 0.10043(11)
O4 O 0.55546(18) 0.2313(2) 0.16524(10)
O5 O 0.43938(19) 0.6870(2) 0.11364(10)
O6 O 0.38461(19) 0.7405(2) 0.17613(11)
O7 O 0.51890(18) 0.4234(2) 0.30179(9)
O8 O 0.4340(2) 0.5444(2) 0.30032(10)
C1 C 0.2984(3) 0.5391(3) 0.14339(13)
C2 C 0.2246(3) 0.4927(3) 0.13278(13)
H1 H 0.2207 0.4297 0.1384
C3 C 0.1570(3) 0.5389(3) 0.11403(13)
C4 C 0.1625(3) 0.6318(3) 0.10511(14)
H2 H 0.1173 0.6627 0.0925
C5 C 0.2356(3) 0.6796(3) 0.11490(14)
H3 H 0.2391 0.7424 0.1088
C6 C 0.3037(3) 0.6337(3) 0.13380(14)
C7 C 0.0762(3) 0.4858(3) 0.10641(13)
C8 C 0.3818(3) 0.6895(3) 0.14245(17)
C9 C 0.3681(2) 0.4878(3) 0.16573(15)
C10 C 0.3923(3) 0.5110(3) 0.20964(14)
H4 H 0.3682 0.5618 0.2238
C11 C 0.4520(3) 0.4592(3) 0.23267(14)
C12 C 0.4900(2) 0.3864(3) 0.20983(15)
H5 H 0.5308 0.3521 0.2246
C13 C 0.4688(2) 0.3638(3) 0.16581(15)
C14 C 0.4071(2) 0.4143(3) 0.14424(13)
H6 H 0.3914 0.3986 0.1149
C15 C 0.5108(3) 0.2861(3) 0.14121(18)
C16 C 0.4699(3) 0.4772(3) 0.28135(16)
C17 C 0.2464(3) 0.5333(3) 0.32139(17)
H7 H 0.2805 0.5197 0.2968
C18 C 0.1613(4) 0.5211(4) 0.3170(2)
H8 H 0.1388 0.4981 0.2902
C19 C 0.1110(3) 0.5431(4) 0.3526(2)
H9 H 0.0535 0.5373 0.3500
C20 C 0.1458(3) 0.5740(4) 0.3920(2)
H10 H 0.1120 0.5893 0.4165
C21 C 0.2336(3) 0.5825(3) 0.39551(19)
C22 C 0.2763(3) 0.6128(3) 0.43702(18)
C23 C 0.2362(4) 0.6209(4) 0.4781(2)
H11 H 0.1798 0.6072 0.4808
C24 C 0.2818(5) 0.6498(4) 0.5153(2)
H12 H 0.2561 0.6546 0.5434
C25 C 0.3648(4) 0.6716(4) 0.51088(19)
H13 H 0.3959 0.6931 0.5353
C26 C 0.3993(3) 0.6599(3) 0.46875(17)
H14 H 0.4558 0.6728 0.4655
C27 C 0.3820(3) 0.3682(3) 0.43056(18)
H15 H 0.4311 0.3842 0.4453
C28 C 0.3068(4) 0.3784(4) 0.45407(18)
H16 H 0.3051 0.3990 0.4839
C29 C 0.2355(4) 0.3561(4) 0.4306(2)
H17 H 0.1841 0.3623 0.4448
C30 C 0.2386(3) 0.3252(4) 0.3872(2)
H18 H 0.1898 0.3107 0.3717
C31 C 0.3156(3) 0.3156(3) 0.36624(18)
C32 C 0.3262(3) 0.2789(3) 0.32019(18)
C33 C 0.2611(3) 0.2668(4) 0.2897(2)
H19 H 0.2072 0.2836 0.2978
C34 C 0.2758(4) 0.2302(5) 0.2476(2)
H20 H 0.2321 0.2235 0.2272
C35 C 0.3548(4) 0.2035(4) 0.23548(19)
H21 H 0.3656 0.1766 0.2075
C36 C 0.4180(3) 0.2185(3) 0.26693(18)
H22 H 0.4721 0.2016 0.2592
Mn1C Mn 0.58160(4) 0.10430(5) 0.13505(2)
Mn1E Mn -0.08160(4) 0.60430(5) 0.13505(2)
Mn2C Mn 0.49271(4) 0.81778(5) 0.14970(2)
Mn2E Mn 0.00729(4) 0.31778(5) 0.14970(2)
O1E O 0.57875(17) 0.4002(2) 0.39424(8)
O2E O 0.51092(17) 0.5342(2) 0.39947(9)
O4C O 0.44454(18) 0.7313(2) 0.33476(10)
O5C O 0.56062(19) 0.1870(2) 0.38636(10)
O6C O 0.61539(19) 0.2405(2) 0.32387(11)
O9 O 0.0815(3) 0.0756(3) 0.03343(12)
H23 H 0.0417 0.0865 0.0151
H24 H 0.0835 0.1027 0.0590
O10 O 0.4545(2) 0.3868(3) 0.02777(12)
H25 H 0.4442 0.4442 0.0296
H26 H 0.4739 0.3471 0.0462
loop_
_geom_bond_atom_site_label_1
_geom_bond_atom_site_label_2
_geom_bond_site_symmetry_1
_geom_bond_site_symmetry_2
Mn1 N3 1_555 1_555
Mn2 N1 1_555 1_555
N1 C32 1_555 1_555
N2 Mn2 1_555 1_555
N3 C22 1_555 1_555
N4 Mn1 1_555 1_555
O1 C7 1_555 1_555
O2 C7 1_555 1_555
O3 C15 1_555 1_555
O4 C15 1_555 1_555
O5 C8 1_555 1_555
O6 C8 1_555 1_555
O7 Mn2 1_555 1_555
O8 Mn1 1_555 1_555
C1 C2 1_555 1_555
C2 H1 1_555 1_555
C3 C2 1_555 1_555
C4 C3 1_555 1_555
H2 C4 1_555 1_555
C5 C4 1_555 1_555
H3 C5 1_555 1_555
C6 C1 1_555 1_555
C7 C3 1_555 1_555
C8 C6 1_555 1_555
C9 C1 1_555 1_555
C10 C9 1_555 1_555
H4 C10 1_555 1_555
C11 C10 1_555 1_555
C12 C11 1_555 1_555
H5 C12 1_555 1_555
C13 C12 1_555 1_555
C14 C9 1_555 1_555
H6 C14 1_555 1_555
C15 C13 1_555 1_555
C16 O7 1_555 1_555
C17 N4 1_555 1_555
H7 C17 1_555 1_555
C18 C17 1_555 1_555
H8 C18 1_555 1_555
C19 C18 1_555 1_555
H9 C19 1_555 1_555
C20 C19 1_555 1_555
H10 C20 1_555 1_555
C21 N4 1_555 1_555
C22 C21 1_555 1_555
C23 C22 1_555 1_555
H11 C23 1_555 1_555
C24 C23 1_555 1_555
H12 C24 1_555 1_555
C25 C24 1_555 1_555
H13 C25 1_555 1_555
C26 N3 1_555 1_555
H14 C26 1_555 1_555
C27 N2 1_555 1_555
H15 C27 1_555 1_555
C28 C27 1_555 1_555
H16 C28 1_555 1_555
C29 C28 1_555 1_555
H17 C29 1_555 1_555
C30 C29 1_555 1_555
H18 C30 1_555 1_555
C31 N2 1_555 1_555
C32 C31 1_555 1_555
C33 C32 1_555 1_555
H19 C33 1_555 1_555
C34 C33 1_555 1_555
H20 C34 1_555 1_555
C35 C34 1_555 1_555
H21 C35 1_555 1_555
C36 N1 1_555 1_555
H22 C36 1_555 1_555
O9 H23 1_555 1_555
H24 O9 1_555 1_555
O10 H25 1_555 1_555
H26 O10 1_555 1_555
Mn1C O4 1_555 1_555
Mn1E O2 1_555 1_555
Mn2C O5 1_555 1_555
Mn2E O1 1_555 1_555
O1E Mn2 1_555 1_555
O2E Mn1 1_555 1_555
O4C Mn1 1_555 1_555
O5C Mn2 1_555 1_555
O6C Mn2 1_555 1_555
O6 Mn2C 1_555 1_555
O8 C16 1_555 1_555
C5 C6 1_555 1_555
C11 C16 1_555 1_555
C13 C14 1_555 1_555
C20 C21 1_555 1_555
C25 C26 1_555 1_555
C30 C31 1_555 1_555
C35 C36 1_555 1_555

#END
