
#######################################################################
#
#                 Cambridge Crystallographic Data Centre
#                                CCDC 
#
#######################################################################
#
# If this CIF has been generated from an entry in the Cambridge 
# Structural Database, then it will include bibliographic, chemical, 
# crystal, experimental, refinement or atomic coordinate data resulting 
# from the CCDC's data processing and validation procedures.
#
#######################################################################

data_RUFVUK
_symmetry_cell_setting           triclinic
_symmetry_space_group_name_H-M   'P -1'
_symmetry_Int_Tables_number      2
_space_group_name_Hall           '-P 1'
loop_
_symmetry_equiv_pos_site_id
_symmetry_equiv_pos_as_xyz
1 x,y,z
2 -x,-y,-z
_cell_length_a                   7.028(1)
_cell_length_b                   14.323(3)
_cell_length_c                   20.196(4)
_cell_angle_alpha                98.45(3)
_cell_angle_beta                 95.66(3)
_cell_angle_gamma                96.84(3)
_cell_volume                     1982.58
loop_
_atom_site_label
_atom_site_type_symbol
_atom_site_fract_x
_atom_site_fract_y
_atom_site_fract_z
Ba1 Ba 0.34223(5) -0.26748(3) -0.292430(17)
Ba2 Ba -0.24363(5) 0.11760(2) -0.000590(16)
Ba3 Ba 0.25881(5) -0.38734(2) -0.504210(16)
Cu1 Cu -0.11991(10) -0.04245(5) -0.30936(3)
O1 O 0.0383(7) -0.1876(3) -0.3402(2)
O2 O 0.0099(7) -0.2868(3) -0.4377(3)
O3 O -0.3628(6) -0.1200(3) -0.3477(2)
O4 O -0.5522(6) -0.2270(3) -0.4211(2)
O5 O -0.2121(6) -0.0106(3) -0.2236(2)
O6 O -0.1464(7) 0.0864(3) -0.1257(2)
O7 O 0.1488(6) -0.0421(3) -0.1211(2)
O8 O 0.4132(6) 0.0387(4) -0.0625(2)
N1 N -0.0107(7) -0.0351(3) -0.3958(2)
H1 H -0.0663 0.0091 -0.4163
N2 N 0.1296(7) 0.0275(3) -0.2625(2)
H2 H 0.2015 -0.0155 -0.2474
C1 C -0.0610(8) -0.1292(4) -0.4403(3)
H3 H 0.0055 -0.1283 -0.4807
C2 C 0.0040(8) -0.2066(4) -0.4028(3)
C3 C -0.2774(8) -0.1495(4) -0.4612(3)
H4 H -0.3166 -0.0961 -0.4810
H5 H -0.3024 -0.2049 -0.4963
C4 C -0.4059(8) -0.1670(4) -0.4069(3)
C5 C 0.0893(8) 0.0939(4) -0.2032(3)
H6 H 0.0720 0.1548 -0.2180
C6 C -0.1035(9) 0.0537(4) -0.1807(3)
C7 C 0.2526(9) 0.1135(4) -0.1449(3)
H7 H 0.3733 0.1307 -0.1624
H8 H 0.2303 0.1676 -0.1131
C8 C 0.2727(8) 0.0300(4) -0.1076(3)
C9 C 0.1988(9) -0.0010(5) -0.3790(3)
H9 H 0.2471 0.0284 -0.4154
H10 H 0.2683 -0.0544 -0.3731
C10 C 0.2307(9) 0.0715(5) -0.3139(3)
H11 H 0.3675 0.0874 -0.2985
H12 H 0.1792 0.1294 -0.3215
Cu2 Cu 0.61645(10) -0.46808(5) -0.18638(3)
O9 O 0.4682(7) -0.3185(3) -0.1750(2)
O10 O 0.4858(6) -0.2057(3) -0.0850(2)
O11 O 0.8591(6) -0.3924(3) -0.1456(2)
O12 O 1.0437(6) -0.2804(3) -0.0737(2)
O13 O 0.7087(6) -0.4994(3) -0.2735(2)
O14 O 0.6272(7) -0.5840(3) -0.3753(2)
O15 O 0.3352(6) -0.4460(3) -0.3662(2)
O16 O 0.0870(6) -0.5276(3) -0.4345(2)
N3 N 0.4928(7) -0.4607(3) -0.1024(2)
H13 H 0.5472 -0.4992 -0.0761
N4 N 0.3666(7) -0.5341(3) -0.2337(2)
H14 H 0.2983 -0.4886 -0.2470
C11 C 0.5351(8) -0.3614(4) -0.0658(3)
H15 H 0.4567 -0.3545 -0.0283
C12 C 0.4886(8) -0.2901(4) -0.1125(3)
C13 C 0.7477(9) -0.3405(4) -0.0380(3)
H16 H 0.7680 -0.2797 -0.0081
H17 H 0.7761 -0.3887 -0.0108
C14 C 0.8931(9) -0.3370(4) -0.0889(3)
C15 C 0.3983(9) -0.5970(4) -0.2954(3)
H18 H 0.4105 -0.6602 -0.2837
C16 C 0.5918(9) -0.5580(4) -0.3179(3)
C17 C 0.2328(9) -0.6083(5) -0.3525(3)
H19 H 0.2490 -0.6609 -0.3867
H20 H 0.1123 -0.6249 -0.3347
C18 C 0.2181(8) -0.5210(4) -0.3854(3)
C19 C 0.2837(9) -0.4991(5) -0.1207(3)
H21 H 0.2110 -0.4483 -0.1307
H22 H 0.2333 -0.5252 -0.0833
C20 C 0.2634(9) -0.5763(4) -0.1820(3)
H23 H 0.3202 -0.6312 -0.1706
H24 H 0.1284 -0.5963 -0.1987
Cl1 Cl -0.2223(2) 0.33871(11) -0.09697(8)
O17 O -0.0391(8) 0.3088(4) -0.1008(3)
O18 O -0.3475(8) 0.2653(4) -0.0760(3)
O19 O -0.2075(10) 0.4236(4) -0.0472(3)
O20 O -0.2981(10) 0.3590(5) -0.1606(3)
Cl2 Cl 0.2881(3) -0.16758(12) -0.60412(9)
O21 O 0.1694(9) -0.2393(4) -0.5797(3)
O22 O 0.4691(9) -0.1973(4) -0.6128(4)
O23 O 0.2006(13) -0.1462(6) -0.6649(3)
O24 O 0.3134(10) -0.0822(4) -0.5538(3)
O25 O 0.4421(7) -0.0972(3) -0.2100(2)
H25 H 0.5528 -0.0646 -0.2069
H26 H 0.4558 -0.1086 -0.1698
O26 O 0.1556(7) 0.0782(3) 0.0444(2)
H27 H 0.1374 0.0765 0.0852
H28 H 0.2676 0.1102 0.0519
O27 O 0.7114(7) -0.3127(4) -0.3084(3)
H29 H 0.7584 -0.2833 -0.2695
H30 H 0.7313 -0.3687 -0.3034
O28 O 0.0648(9) -0.2172(4) -0.2034(3)
H31 H 0.0298 -0.2436 -0.1708
H32 H 0.1455 -0.1734 -0.1794
O29 O 0.3446(7) -0.5824(3) -0.5430(2)
H33 H 0.3623 -0.5883 -0.5844
H34 H 0.2477 -0.6229 -0.5406
O30 O 0.0747(7) -0.4124(3) -0.2590(2)
H35 H -0.0279 -0.4390 -0.2838
H36 H 0.0166 -0.3975 -0.2248
Ba1_2 Ba -0.65777(5) -0.26748(3) -0.292430(17)
Ba2A Ba 0.24363(5) -0.11760(2) 0.000590(16)
Ba2_2 Ba 0.75637(5) 0.11760(2) -0.000590(16)
Ba2A_2 Ba 1.24363(5) -0.11760(2) 0.000590(16)
Ba3_2 Ba -0.74119(5) -0.38734(2) -0.504210(16)
Ba3A Ba 0.74119(5) -0.61266(2) -0.495790(16)
Ba3A_2 Ba -0.25881(5) -0.61266(2) -0.495790(16)
O4_2 O 0.4478(6) -0.2270(3) -0.4211(2)
O7A O -0.1488(6) 0.0421(3) 0.1211(2)
O8A O -0.4132(6) -0.0387(4) 0.0625(2)
O8_2 O -0.5868(6) 0.0387(4) -0.0625(2)
O10A O -0.4858(6) 0.2057(3) 0.0850(2)
O12A O -0.0437(6) 0.2804(3) 0.0737(2)
O14A O 0.3728(7) -0.4160(3) -0.6247(2)
O16A O -0.0870(6) -0.4724(3) -0.5655(2)
O26A O -0.1556(7) -0.0782(3) -0.0444(2)
H27A H -0.1374 -0.0765 -0.0852
H28A H -0.2676 -0.1102 -0.0519
O29A O 0.6554(7) -0.4176(3) -0.4570(2)
H33A H 0.6377 -0.4117 -0.4156
H34A H 0.7523 -0.3771 -0.4594
loop_
_geom_bond_atom_site_label_1
_geom_bond_atom_site_label_2
_geom_bond_site_symmetry_1
_geom_bond_site_symmetry_2
Ba1 O1 1_555 1_555
Ba2 O6 1_555 1_555
Ba3 O2 1_555 1_555
Cu1 O1 1_555 1_555
O1 C2 1_555 1_555
O2 C2 1_555 1_555
O3 Cu1 1_555 1_555
O4 C4 1_555 1_555
O5 Cu1 1_555 1_555
O6 C6 1_555 1_555
O7 C8 1_555 1_555
O8 C8 1_555 1_555
N1 Cu1 1_555 1_555
H1 N1 1_555 1_555
N2 Cu1 1_555 1_555
H2 N2 1_555 1_555
C1 N1 1_555 1_555
H3 C1 1_555 1_555
C2 C1 1_555 1_555
C3 C1 1_555 1_555
H4 C3 1_555 1_555
H5 C3 1_555 1_555
C4 O3 1_555 1_555
C5 N2 1_555 1_555
H6 C5 1_555 1_555
C6 O5 1_555 1_555
C7 C5 1_555 1_555
H7 C7 1_555 1_555
H8 C7 1_555 1_555
C8 C7 1_555 1_555
C9 N1 1_555 1_555
H9 C9 1_555 1_555
H10 C9 1_555 1_555
C10 N2 1_555 1_555
H11 C10 1_555 1_555
H12 C10 1_555 1_555
Cu2 O9 1_555 1_555
O9 Ba1 1_555 1_555
O10 C12 1_555 1_555
O11 Cu2 1_555 1_555
O12 C14 1_555 1_555
O13 Cu2 1_555 1_555
O14 C16 1_555 1_555
O15 Ba1 1_555 1_555
O16 Ba3 1_555 1_555
N3 Cu2 1_555 1_555
H13 N3 1_555 1_555
N4 Cu2 1_555 1_555
H14 N4 1_555 1_555
C11 N3 1_555 1_555
H15 C11 1_555 1_555
C12 O9 1_555 1_555
C13 C11 1_555 1_555
H16 C13 1_555 1_555
H17 C13 1_555 1_555
C14 O11 1_555 1_555
C15 N4 1_555 1_555
H18 C15 1_555 1_555
C16 O13 1_555 1_555
C17 C15 1_555 1_555
H19 C17 1_555 1_555
H20 C17 1_555 1_555
C18 O15 1_555 1_555
C19 N3 1_555 1_555
H21 C19 1_555 1_555
H22 C19 1_555 1_555
C20 N4 1_555 1_555
H23 C20 1_555 1_555
H24 C20 1_555 1_555
Cl1 O17 1_555 1_555
O18 Ba2 1_555 1_555
O19 Cl1 1_555 1_555
O20 Cl1 1_555 1_555
Cl2 O21 1_555 1_555
O21 Ba3 1_555 1_555
O22 Cl2 1_555 1_555
O23 Cl2 1_555 1_555
O24 Cl2 1_555 1_555
O25 Ba1 1_555 1_555
H25 O25 1_555 1_555
H26 O25 1_555 1_555
O26 Ba2 1_555 1_555
H27 O26 1_555 1_555
H28 O26 1_555 1_555
O27 Ba1 1_555 1_555
H29 O27 1_555 1_555
H30 O27 1_555 1_555
O28 Ba1 1_555 1_555
H31 O28 1_555 1_555
H32 O28 1_555 1_555
O29 Ba3 1_555 1_555
H33 O29 1_555 1_555
H34 O29 1_555 1_555
O30 Ba1 1_555 1_555
H35 O30 1_555 1_555
H36 O30 1_555 1_555
Ba1_2 O4 1_555 1_555
Ba2A O7 1_555 1_555
Ba2_2 O8 1_555 1_555
Ba2A_2 O12 1_555 1_555
Ba3_2 O4 1_555 1_555
Ba3A O14 1_555 1_555
Ba3A_2 O16 1_555 1_555
O4_2 Ba1 1_555 1_555
O7A Ba2 1_555 1_555
O8A Ba2 1_555 1_555
O8_2 Ba2 1_555 1_555
O10A Ba2 1_555 1_555
O12A Ba2 1_555 1_555
O14A Ba3 1_555 1_555
O16A Ba3 1_555 1_555
O26A Ba2 1_555 1_555
H27A O26A 1_555 1_555
H28A O26A 1_555 1_555
O29A Ba3 1_555 1_555
H33A O29A 1_555 1_555
H34A O29A 1_555 1_555
Ba3 O15 1_555 1_555
Ba3 O4_2 1_555 1_555
O8 Ba2A 1_555 1_555
C3 C4 1_555 1_555
C5 C6 1_555 1_555
C9 C10 1_555 1_555
O10 Ba2A 1_555 1_555
O16 C18 1_555 1_555
C11 C12 1_555 1_555
C13 C14 1_555 1_555
C15 C16 1_555 1_555
C17 C18 1_555 1_555
C19 C20 1_555 1_555
Cl1 O18 1_555 1_555
O26 Ba2A 1_555 1_555
O29 Ba3A 1_555 1_555
Ba2A O26A 1_555 1_555
Ba3A O29A 1_555 1_555
Ba3A_2 O16A 1_555 1_555

#END
