
#######################################################################
#
#                 Cambridge Crystallographic Data Centre
#                                CCDC 
#
#######################################################################
#
# If this CIF has been generated from an entry in the Cambridge 
# Structural Database, then it will include bibliographic, chemical, 
# crystal, experimental, refinement or atomic coordinate data resulting 
# from the CCDC's data processing and validation procedures.
#
#######################################################################

data_RUFVAQ
_symmetry_cell_setting           monoclinic
_symmetry_space_group_name_H-M   'C c'
_symmetry_Int_Tables_number      9
_space_group_name_Hall           'C -2yc'
loop_
_symmetry_equiv_pos_site_id
_symmetry_equiv_pos_as_xyz
1 x,y,z
2 1/2+x,1/2+y,z
3 x,-y,1/2+z
4 1/2+x,1/2-y,1/2+z
_cell_length_a                   17.092(5)
_cell_length_b                   9.528(5)
_cell_length_c                   9.512(5)
_cell_angle_alpha                90
_cell_angle_beta                 108.700(5)
_cell_angle_gamma                90
_cell_volume                     1467.28
loop_
_atom_site_label
_atom_site_type_symbol
_atom_site_fract_x
_atom_site_fract_y
_atom_site_fract_z
Cu1 Cu 0.92645(13) 0.04636(9) 0.2669(3)
N1 N 0.8974(4) 0.0228(7) 0.4484(8)
N2 N 0.9450(5) -0.0524(7) 0.5693(8)
C1 C 1.0143(5) -0.1037(10) 0.5489(9)
S1 S 1.04083(16) -0.0765(2) 0.3901(3)
N3 N 1.0645(4) -0.1782(8) 0.6571(7)
C2 C 0.8278(5) 0.0786(8) 0.4478(8)
C3 C 0.7852(4) 0.1573(9) 0.3168(9)
N4 N 0.8195(4) 0.1553(6) 0.2070(7)
C4 C 0.7884(5) 0.2331(9) 0.0877(8)
C5 C 0.7186(5) 0.3183(10) 0.0673(10)
C6 C 0.6826(5) 0.3188(9) 0.1796(10)
C7 C 0.7168(5) 0.2382(10) 0.3058(9)
S2 S 1.0057(2) 0.3713(4) 0.4838(4)
O1 O 0.9840(5) 0.2825(8) 0.3508(10)
C8 C 0.9181(12) 0.467(2) 0.486(3)
C9 C 1.0656(12) 0.508(2) 0.442(3)
H1 H 0.8065 0.0679 0.5291
H2 H 0.8130 0.2305 0.0136
H3 H 0.6973 0.3729 -0.0184
H4 H 0.6359 0.3734 0.1699
H5 H 0.6936 0.2389 0.3808
H6 H 1.1104 -0.2079 0.6509
H7 H 1.0509 -0.1967 0.7348
H8 H 0.8842 0.4085 0.5252
H9 H 0.9355 0.5479 0.5479
H10 H 0.8873 0.4949 0.3869
H11 H 1.0840 0.5763 0.5269
H12 H 1.1150 0.4686 0.4220
H13 H 1.0298 0.5581 0.3520
Cu1B Cu 0.92645(13) -0.04636(9) 0.7669(3)
N2B N 0.9450(5) 0.0524(7) 0.0693(8)
O2 O 0.8506(4) -0.2317(8) 0.2432(9)
N5 N 0.7755(5) -0.2556(9) 0.2157(8)
O3 O 0.7246(5) -0.1663(9) 0.1737(10)
O4 O 0.7557(6) -0.3795(10) 0.2377(13)
loop_
_geom_bond_atom_site_label_1
_geom_bond_atom_site_label_2
_geom_bond_site_symmetry_1
_geom_bond_site_symmetry_2
Cu1 N1 1_555 1_555
N1 N2 1_555 1_555
N2 C1 1_555 1_555
C1 S1 1_555 1_555
S1 Cu1 1_555 1_555
N3 C1 1_555 1_555
C2 N1 1_555 1_555
C3 C2 1_555 1_555
N4 Cu1 1_555 1_555
C4 N4 1_555 1_555
C5 C4 1_555 1_555
C6 C5 1_555 1_555
C7 C3 1_555 1_555
S2 O1 1_555 1_555
O1 Cu1 1_555 1_555
C8 S2 1_555 1_555
O2 N5 1_555 1_555
N5 O3 1_555 1_555
O4 N5 1_555 1_555
C9 S2 1_555 1_555
H1 C2 1_555 1_555
H2 C4 1_555 1_555
H3 C5 1_555 1_555
H4 C6 1_555 1_555
H5 C7 1_555 1_555
H6 N3 1_555 1_555
H7 N3 1_555 1_555
H8 C8 1_555 1_555
H9 C8 1_555 1_555
H10 C8 1_555 1_555
H11 C9 1_555 1_555
H12 C9 1_555 1_555
H13 C9 1_555 1_555
Cu1B N2 1_555 1_555
N2B Cu1 1_555 1_555
C3 N4 1_555 1_555
C6 C7 1_555 1_555

#END
