
#######################################################################
#
#                 Cambridge Crystallographic Data Centre
#                                CCDC 
#
#######################################################################
#
# If this CIF has been generated from an entry in the Cambridge 
# Structural Database, then it will include bibliographic, chemical, 
# crystal, experimental, refinement or atomic coordinate data resulting 
# from the CCDC's data processing and validation procedures.
#
#######################################################################

data_RUFYEY
_symmetry_cell_setting           monoclinic
_symmetry_space_group_name_H-M   'P 21/c'
_symmetry_Int_Tables_number      14
_space_group_name_Hall           '-P 2ybc'
loop_
_symmetry_equiv_pos_site_id
_symmetry_equiv_pos_as_xyz
1 x,y,z
2 -x,1/2+y,1/2-z
3 -x,-y,-z
4 x,1/2-y,1/2+z
_cell_length_a                   14.603(2)
_cell_length_b                   12.4526(18)
_cell_length_c                   13.485(2)
_cell_angle_alpha                90
_cell_angle_beta                 115.105(3)
_cell_angle_gamma                90
_cell_volume                     2220.53
loop_
_atom_site_label
_atom_site_type_symbol
_atom_site_fract_x
_atom_site_fract_y
_atom_site_fract_z
I1 I 0.32961(2) 0.51863(3) 0.64692(2)
I2 I 0.16125(2) 0.48973(3) 0.85431(2)
I3 I 0.0000 0.5000 0.5000
Cu1 Cu 0.31678(4) 0.49891(4) 0.45496(4)
Cu2 Cu 0.5000 0.5000 0.5000
Cu3 Cu 0.16854(5) 0.50133(4) 0.67341(5)
N1 N 0.5061(2) 0.3516(3) 0.5188(3)
N2 N 0.3345(2) 0.3515(3) 0.4034(3)
N3 N 0.1789(3) 0.3547(3) 0.2521(3)
N4 N 0.3034(3) 0.2737(3) 0.2297(3)
N5 N 0.6778(3) 0.3688(3) 0.6276(3)
N6 N 0.8490(3) 0.3480(3) 0.7445(3)
N7 N 0.7417(3) 0.3223(3) 0.8162(3)
C1 C 0.5934(3) 0.3039(3) 0.5863(3)
C2 C 0.5963(3) 0.1938(3) 0.6056(3)
H1 H 0.6573 0.1600 0.6541
C3 C 0.5093(3) 0.1349(3) 0.5531(3)
H2 H 0.5100 0.0601 0.5672
C4 C 0.4207(3) 0.1824(3) 0.4804(3)
H3 H 0.3614 0.1411 0.4421
C5 C 0.4212(3) 0.2924(3) 0.4652(3)
C6 C 0.2770(3) 0.3245(3) 0.3018(3)
C7 C 0.1178(3) 0.3677(4) 0.3138(4)
H4 H 0.1585 0.4022 0.3842
H5 H 0.0952 0.2971 0.3266
H6 H 0.0588 0.4125 0.2719
C8 C 0.1320(4) 0.3043(4) 0.1458(4)
H7 H 0.0832 0.3533 0.0909
H8 H 0.0968 0.2373 0.1488
C9 C 0.2213(4) 0.2812(4) 0.1200(4)
H9 H 0.2123 0.2129 0.0793
H10 H 0.2328 0.3402 0.0775
C10 C 0.4063(4) 0.2723(4) 0.2406(4)
H11 H 0.4532 0.2674 0.3182
H12 H 0.4197 0.3385 0.2096
H13 H 0.4158 0.2103 0.2012
C11 C 0.7516(3) 0.3453(3) 0.7245(4)
C12 C 0.8858(3) 0.3377(4) 0.6604(4)
H14 H 0.8339 0.3631 0.5904
H15 H 0.9473 0.3808 0.6806
H16 H 0.9011 0.2621 0.6536
C13 C 0.9121(3) 0.3150(5) 0.8548(4)
H17 H 0.9446 0.2450 0.8558
H18 H 0.9652 0.3691 0.8928
C14 C 0.8390(3) 0.3062(4) 0.9076(4)
H19 H 0.8525 0.3622 0.9642
H20 H 0.8431 0.2346 0.9412
C15 C 0.6528(4) 0.3415(5) 0.8339(4)
H21 H 0.5943 0.3506 0.7632
H22 H 0.6412 0.2802 0.8727
H23 H 0.6622 0.4067 0.8779
I1B I -0.32961(2) 0.48137(3) 0.35308(2)
I2B I -0.16125(2) 0.51027(3) 0.14569(2)
Cu1B Cu -0.31678(4) 0.50109(4) 0.54504(4)
Cu3B Cu -0.16854(5) 0.49867(4) 0.32659(5)
N1B N -0.5061(2) 0.6484(3) 0.4812(3)
N2B N -0.3345(2) 0.6485(3) 0.5966(3)
N3B N -0.1789(3) 0.6453(3) 0.7479(3)
N4B N -0.3034(3) 0.7263(3) 0.7703(3)
N5B N -0.6778(3) 0.6312(3) 0.3724(3)
N6B N -0.8490(3) 0.6520(3) 0.2555(3)
N7B N -0.7417(3) 0.6777(3) 0.1838(3)
C1B C -0.5934(3) 0.6961(3) 0.4137(3)
C2B C -0.5963(3) 0.8062(3) 0.3944(3)
H1B H -0.6573 0.8400 0.3459
C3B C -0.5093(3) 0.8651(3) 0.4469(3)
H2B H -0.5100 0.9399 0.4328
C4B C -0.4207(3) 0.8176(3) 0.5196(3)
H3B H -0.3614 0.8589 0.5579
C5B C -0.4212(3) 0.7076(3) 0.5348(3)
C6B C -0.2770(3) 0.6755(3) 0.6982(3)
C7B C -0.1178(3) 0.6323(4) 0.6862(4)
H4B H -0.1585 0.5978 0.6158
H5B H -0.0952 0.7029 0.6734
H6B H -0.0588 0.5875 0.7281
C8B C -0.1320(4) 0.6957(4) 0.8542(4)
H7B H -0.0832 0.6467 0.9091
H8B H -0.0968 0.7627 0.8512
C9B C -0.2213(4) 0.7188(4) 0.8800(4)
H9B H -0.2123 0.7871 0.9207
H10B H -0.2328 0.6598 0.9225
C10B C -0.4063(4) 0.7277(4) 0.7594(4)
H11B H -0.4532 0.7326 0.6818
H12B H -0.4197 0.6615 0.7904
H13B H -0.4158 0.7897 0.7988
C11B C -0.7516(3) 0.6547(3) 0.2755(4)
C12B C -0.8858(3) 0.6623(4) 0.3396(4)
H14B H -0.8339 0.6369 0.4096
H15B H -0.9473 0.6192 0.3194
H16B H -0.9011 0.7379 0.3464
C13B C -0.9121(3) 0.6850(5) 0.1452(4)
H17B H -0.9446 0.7550 0.1442
H18B H -0.9652 0.6309 0.1072
C14B C -0.8390(3) 0.6938(4) 0.0924(4)
H19B H -0.8525 0.6378 0.0358
H20B H -0.8431 0.7654 0.0588
C15B C -0.6528(4) 0.6585(5) 0.1661(4)
H21B H -0.5943 0.6494 0.2368
H22B H -0.6412 0.7198 0.1273
H23B H -0.6622 0.5933 0.1221
Cu1_2 Cu -0.68322(4) 0.49891(4) 0.45496(4)
Cu1B_2 Cu 0.68322(4) 0.50109(4) 0.54504(4)
Cu2_2 Cu -0.5000 0.5000 0.5000
N1B_2 N 0.4939(2) 0.6484(3) 0.4812(3)
N5_2 N -0.3222(3) 0.3688(3) 0.6276(3)
N5B_2 N 0.3222(3) 0.6312(3) 0.3724(3)
loop_
_geom_bond_atom_site_label_1
_geom_bond_atom_site_label_2
_geom_bond_site_symmetry_1
_geom_bond_site_symmetry_2
I1 Cu1 1_555 1_555
I2 Cu3 1_555 1_555
I3 Cu3 1_555 1_555
Cu1 Cu2 1_555 1_555
Cu2 N1 1_555 1_555
Cu3 I1 1_555 1_555
N1 C1 1_555 1_555
N2 Cu1 1_555 1_555
N3 C6 1_555 1_555
N4 C6 1_555 1_555
N5 C1 1_555 1_555
N6 C11 1_555 1_555
N7 C11 1_555 1_555
C1 C2 1_555 1_555
C2 H1 1_555 1_555
C3 C2 1_555 1_555
H2 C3 1_555 1_555
C4 C3 1_555 1_555
H3 C4 1_555 1_555
C5 N1 1_555 1_555
C6 N2 1_555 1_555
C7 N3 1_555 1_555
H4 C7 1_555 1_555
H5 C7 1_555 1_555
H6 C7 1_555 1_555
C8 N3 1_555 1_555
H7 C8 1_555 1_555
H8 C8 1_555 1_555
C9 N4 1_555 1_555
H9 C9 1_555 1_555
H10 C9 1_555 1_555
C10 N4 1_555 1_555
H11 C10 1_555 1_555
H12 C10 1_555 1_555
H13 C10 1_555 1_555
C11 N5 1_555 1_555
C12 N6 1_555 1_555
H14 C12 1_555 1_555
H15 C12 1_555 1_555
H16 C12 1_555 1_555
C13 N6 1_555 1_555
H17 C13 1_555 1_555
H18 C13 1_555 1_555
C14 N7 1_555 1_555
H19 C14 1_555 1_555
H20 C14 1_555 1_555
C15 N7 1_555 1_555
H21 C15 1_555 1_555
H22 C15 1_555 1_555
H23 C15 1_555 1_555
I1B Cu1B 1_555 1_555
I2B Cu3B 1_555 1_555
Cu1B N2B 1_555 1_555
Cu3B I3 1_555 1_555
N1B C1B 1_555 1_555
N2B C5B 1_555 1_555
N3B C6B 1_555 1_555
N4B C6B 1_555 1_555
N5B C1B 1_555 1_555
N6B C11B 1_555 1_555
N7B C11B 1_555 1_555
C1B C2B 1_555 1_555
C2B H1B 1_555 1_555
C3B C2B 1_555 1_555
H2B C3B 1_555 1_555
C4B C3B 1_555 1_555
H3B C4B 1_555 1_555
C5B N1B 1_555 1_555
C6B N2B 1_555 1_555
C7B N3B 1_555 1_555
H4B C7B 1_555 1_555
H5B C7B 1_555 1_555
H6B C7B 1_555 1_555
C8B N3B 1_555 1_555
H7B C8B 1_555 1_555
H8B C8B 1_555 1_555
C9B N4B 1_555 1_555
H9B C9B 1_555 1_555
H10B C9B 1_555 1_555
C10B N4B 1_555 1_555
H11B C10B 1_555 1_555
H12B C10B 1_555 1_555
H13B C10B 1_555 1_555
C11B N5B 1_555 1_555
C12B N6B 1_555 1_555
H14B C12B 1_555 1_555
H15B C12B 1_555 1_555
H16B C12B 1_555 1_555
C13B N6B 1_555 1_555
H17B C13B 1_555 1_555
H18B C13B 1_555 1_555
C14B N7B 1_555 1_555
H19B C14B 1_555 1_555
H20B C14B 1_555 1_555
C15B N7B 1_555 1_555
H21B C15B 1_555 1_555
H22B C15B 1_555 1_555
H23B C15B 1_555 1_555
Cu1_2 N5B 1_555 1_555
Cu1B_2 Cu2 1_555 1_555
Cu2_2 Cu1B 1_555 1_555
N1B_2 Cu2 1_555 1_555
N5_2 Cu1B 1_555 1_555
N5B_2 Cu1 1_555 1_555
N2 C5 1_555 1_555
N5 Cu1B_2 1_555 1_555
C4 C5 1_555 1_555
C8 C9 1_555 1_555
C13 C14 1_555 1_555
I1B Cu3B 1_555 1_555
N1B Cu2_2 1_555 1_555
C4B C5B 1_555 1_555
C8B C9B 1_555 1_555
C13B C14B 1_555 1_555
Cu1_2 Cu2_2 1_555 1_555

#END
