
#######################################################################
#
#                 Cambridge Crystallographic Data Centre
#                                CCDC 
#
#######################################################################
#
# If this CIF has been generated from an entry in the Cambridge 
# Structural Database, then it will include bibliographic, chemical, 
# crystal, experimental, refinement or atomic coordinate data resulting 
# from the CCDC's data processing and validation procedures.
#
#######################################################################

data_RUGFUW
_symmetry_cell_setting           monoclinic
_symmetry_space_group_name_H-M   'P 21'
_symmetry_Int_Tables_number      4
_space_group_name_Hall           'P 2yb'
loop_
_symmetry_equiv_pos_site_id
_symmetry_equiv_pos_as_xyz
1 x,y,z
2 -x,1/2+y,-z
_cell_length_a                   7.9371(16)
_cell_length_b                   15.359(3)
_cell_length_c                   14.644(3)
_cell_angle_alpha                90
_cell_angle_beta                 103.76(3)
_cell_angle_gamma                90
_cell_volume                     1733.96
loop_
_atom_site_label
_atom_site_type_symbol
_atom_site_fract_x
_atom_site_fract_y
_atom_site_fract_z
Zn1 Zn 1.04211(8) 0.30298(4) 0.46930(4)
O1 O 1.0455(6) 0.2578(3) 0.5990(3)
O2 O 0.8206(8) 0.2141(3) 0.6521(4)
O3 O 1.0800(5) 0.3201(3) 0.8191(3)
O4 O 0.5511(6) 0.4183(4) 0.6641(3)
O5 O 0.8249(5) 0.2438(3) 0.4073(3)
O6 O 0.8822(6) 0.3182(3) 0.2902(3)
O7 O 0.3858(6) 0.2547(4) 0.0973(3)
O8 O 0.9026(5) 0.1342(3) 0.2370(3)
N1 N 1.0203(7) 0.4312(4) 0.4809(3)
N2 N 1.0007(10) 0.5686(4) 0.4496(5)
H1 H 0.9947 0.6170 0.4194
N3 N 0.8210(5) 0.3747(3) 0.7430(3)
N4 N 0.2545(7) 0.2515(4) 0.4453(3)
N5 N 0.5209(7) 0.2052(5) 0.4661(4)
H2 H 0.6266 0.1931 0.4934
N6 N 0.6541(6) 0.2051(3) 0.1660(3)
C1 C 1.0095(11) 0.4901(4) 0.4144(5)
H3 H 1.0083 0.4781 0.3520
C2 C 1.0030(12) 0.5593(5) 0.5423(6)
H4 H 0.9962 0.6041 0.5841
C3 C 1.0166(8) 0.4743(3) 0.5624(4)
C4 C 1.0265(8) 0.4306(4) 0.6534(4)
H5 H 1.0268 0.4748 0.7008
H6 H 1.1359 0.3996 0.6712
C5 C 0.8797(7) 0.3665(4) 0.6542(4)
H7 H 0.7816 0.3839 0.6032
C6 C 0.9191(8) 0.2716(4) 0.6360(4)
C7 C 0.9422(7) 0.3512(4) 0.8254(4)
C8 C 0.8968(7) 0.3685(4) 0.9153(4)
C9 C 1.0134(8) 0.3515(4) 0.9986(4)
H8 H 1.1231 0.3304 0.9983
C10 C 0.9680(10) 0.3657(4) 1.0846(4)
H9 H 1.0479 0.3539 1.1409
C11 C 0.8080(10) 0.3968(4) 1.0860(5)
H10 H 0.7801 0.4060 1.1434
C12 C 0.6835(10) 0.4152(4) 1.0018(5)
C13 C 0.5178(11) 0.4470(4) 1.0007(6)
H11 H 0.4880 0.4578 1.0574
C14 C 0.3982(10) 0.4625(4) 0.9178(6)
H12 H 0.2874 0.4818 0.9183
C15 C 0.4451(8) 0.4489(4) 0.8309(5)
H13 H 0.3652 0.4602 0.7745
C16 C 0.6087(8) 0.4191(4) 0.8300(5)
C17 C 0.6526(8) 0.4052(4) 0.7391(4)
C18 C 0.7295(7) 0.4020(3) 0.9151(4)
C19 C 0.4045(9) 0.2398(5) 0.5068(5)
H14 H 0.4254 0.2540 0.5703
C20 C 0.2828(8) 0.2215(4) 0.3612(4)
H15 H 0.2003 0.2221 0.3042
C21 C 0.4435(8) 0.1919(4) 0.3727(4)
C22 C 0.5412(8) 0.1585(4) 0.3034(4)
H16 H 0.4618 0.1262 0.2545
H17 H 0.6304 0.1186 0.3354
C23 C 0.7913(8) 0.2675(4) 0.3211(4)
C24 C 0.6255(7) 0.2300(4) 0.2578(4)
H18 H 0.5419 0.2780 0.2456
C25 C 0.5212(7) 0.2212(4) 0.0875(4)
C26 C 0.5533(7) 0.2009(4) -0.0058(4)
C27 C 0.4270(8) 0.2175(4) -0.0861(4)
H19 H 0.3191 0.2381 -0.0815
C28 C 0.4602(10) 0.2034(5) -0.1741(5)
H20 H 0.3740 0.2144 -0.2281
C29 C 0.6179(11) 0.1737(5) -0.1819(5)
H21 H 0.6386 0.1657 -0.2412
C30 C 0.7500(9) 0.1549(4) -0.1015(4)
C31 C 0.9195(10) 0.1244(4) -0.1040(5)
H22 H 0.9466 0.1161 -0.1618
C32 C 1.0407(9) 0.1075(4) -0.0243(5)
H23 H 1.1498 0.0881 -0.0281
C33 C 1.0051(8) 0.1185(4) 0.0631(5)
H24 H 1.0899 0.1056 0.1171
C34 C 0.8460(7) 0.1484(4) 0.0710(4)
C35 C 0.8062(7) 0.1603(3) 0.1636(4)
C36 C 0.7138(8) 0.1676(3) -0.0110(4)
Zn1_2 Zn 0.04211(8) 0.30298(4) 0.46930(4)
N4_2 N 1.2545(7) 0.2515(4) 0.4453(3)
loop_
_geom_bond_atom_site_label_1
_geom_bond_atom_site_label_2
_geom_bond_site_symmetry_1
_geom_bond_site_symmetry_2
Zn1 O1 1_555 1_555
O1 C6 1_555 1_555
O2 C6 1_555 1_555
O3 C7 1_555 1_555
O4 C17 1_555 1_555
O5 Zn1 1_555 1_555
O6 C23 1_555 1_555
O7 C25 1_555 1_555
O8 C35 1_555 1_555
N1 Zn1 1_555 1_555
N2 H1 1_555 1_555
N3 C5 1_555 1_555
N4 C19 1_555 1_555
N5 H2 1_555 1_555
N6 C24 1_555 1_555
C1 N1 1_555 1_555
H3 C1 1_555 1_555
C2 N2 1_555 1_555
H4 C2 1_555 1_555
C3 N1 1_555 1_555
C4 C3 1_555 1_555
H5 C4 1_555 1_555
H6 C4 1_555 1_555
C5 C4 1_555 1_555
H7 C5 1_555 1_555
C6 C5 1_555 1_555
C7 N3 1_555 1_555
C8 C7 1_555 1_555
C9 C8 1_555 1_555
H8 C9 1_555 1_555
C10 C9 1_555 1_555
H9 C10 1_555 1_555
C11 C10 1_555 1_555
H10 C11 1_555 1_555
C12 C11 1_555 1_555
C13 C12 1_555 1_555
H11 C13 1_555 1_555
C14 C13 1_555 1_555
H12 C14 1_555 1_555
C15 C14 1_555 1_555
H13 C15 1_555 1_555
C16 C15 1_555 1_555
C17 N3 1_555 1_555
C18 C8 1_555 1_555
C19 N5 1_555 1_555
H14 C19 1_555 1_555
C20 N4 1_555 1_555
H15 C20 1_555 1_555
C21 N5 1_555 1_555
C22 C21 1_555 1_555
H16 C22 1_555 1_555
H17 C22 1_555 1_555
C23 O5 1_555 1_555
C24 C22 1_555 1_555
H18 C24 1_555 1_555
C25 N6 1_555 1_555
C26 C25 1_555 1_555
C27 C26 1_555 1_555
H19 C27 1_555 1_555
C28 C27 1_555 1_555
H20 C28 1_555 1_555
C29 C28 1_555 1_555
H21 C29 1_555 1_555
C30 C29 1_555 1_555
C31 C30 1_555 1_555
H22 C31 1_555 1_555
C32 C31 1_555 1_555
H23 C32 1_555 1_555
C33 C32 1_555 1_555
H24 C33 1_555 1_555
C34 C33 1_555 1_555
C35 N6 1_555 1_555
C36 C26 1_555 1_555
Zn1_2 N4 1_555 1_555
N4_2 Zn1 1_555 1_555
N2 C1 1_555 1_555
C2 C3 1_555 1_555
C12 C18 1_555 1_555
C16 C17 1_555 1_555
C16 C18 1_555 1_555
C20 C21 1_555 1_555
C23 C24 1_555 1_555
C30 C36 1_555 1_555
C34 C35 1_555 1_555
C34 C36 1_555 1_555

#END
