
#######################################################################
#
#                 Cambridge Crystallographic Data Centre
#                                CCDC 
#
#######################################################################
#
# If this CIF has been generated from an entry in the Cambridge 
# Structural Database, then it will include bibliographic, chemical, 
# crystal, experimental, refinement or atomic coordinate data resulting 
# from the CCDC's data processing and validation procedures.
#
#######################################################################

data_RUGGAD
_symmetry_cell_setting           monoclinic
_symmetry_space_group_name_H-M   'P 21'
_symmetry_Int_Tables_number      4
_space_group_name_Hall           'P 2yb'
loop_
_symmetry_equiv_pos_site_id
_symmetry_equiv_pos_as_xyz
1 x,y,z
2 -x,1/2+y,-z
_cell_length_a                   8.026(4)
_cell_length_b                   15.446(7)
_cell_length_c                   14.588(7)
_cell_angle_alpha                90
_cell_angle_beta                 103.873(8)
_cell_angle_gamma                90
_cell_volume                     1755.71
loop_
_atom_site_label
_atom_site_type_symbol
_atom_site_fract_x
_atom_site_fract_y
_atom_site_fract_z
Co1 Co -0.53798(8) 0.18453(5) 0.03497(4)
O1 O -0.5598(5) 0.1425(2) -0.0963(2)
O2 O -0.3490(8) 0.0985(3) -0.1575(4)
O3 O -0.5975(5) 0.2088(3) -0.3198(3)
O4 O -0.0733(5) 0.3023(4) -0.1626(3)
O5 O -0.3203(4) 0.1256(2) 0.0907(2)
O6 O -0.3937(5) 0.1939(3) 0.2061(2)
O7 O -0.3982(4) 0.0129(3) 0.2621(2)
O8 O 0.1043(5) 0.1394(3) 0.4056(3)
N1 N -0.5169(7) 0.3126(3) 0.0264(3)
N2 N -0.5086(11) 0.4484(4) 0.0584(5)
H1 H -0.5063 0.4960 0.0893
N3 N -0.3389(5) 0.2593(3) -0.2416(3)
N4 N 0.2495(5) 0.1334(3) 0.0600(3)
N5 N -0.0183(7) 0.0963(6) 0.0393(4)
H2 H -0.1255 0.0908 0.0125
N6 N -0.1587(5) 0.0869(3) 0.3347(3)
C1 C -0.5093(12) 0.3713(4) 0.0925(5)
H3 H -0.5051 0.3589 0.1554
C2 C -0.5120(11) 0.4408(4) -0.0378(5)
H4 H -0.5072 0.4857 -0.0796
C3 C -0.5235(7) 0.3569(3) -0.0574(4)
C4 C -0.5395(7) 0.3141(4) -0.1503(3)
H5 H -0.5430 0.3585 -0.1978
H6 H -0.6478 0.2832 -0.1666
C5 C -0.3962(7) 0.2511(4) -0.1542(3)
H7 H -0.2983 0.2670 -0.1026
C6 C -0.4394(8) 0.1552(4) -0.1377(3)
C7 C -0.1746(7) 0.2900(4) -0.2376(4)
C8 C -0.4591(6) 0.2374(3) -0.3260(3)
C9 C -0.4134(6) 0.2537(3) -0.4160(3)
C10 C -0.5277(7) 0.2354(4) -0.4994(3)
H8 H -0.6363 0.2141 -0.4997
C11 C -0.4797(8) 0.2488(4) -0.5842(4)
H9 H -0.5575 0.2367 -0.6410
C12 C -0.3213(8) 0.2793(4) -0.5850(4)
H10 H -0.2924 0.2870 -0.6425
C13 C -0.2007(8) 0.2993(4) -0.5014(4)
C14 C -0.2463(6) 0.2856(3) -0.4155(4)
C15 C -0.1275(7) 0.3032(3) -0.3286(4)
C16 C 0.0350(7) 0.3334(4) -0.3276(5)
H11 H 0.1145 0.3449 -0.2711
C17 C 0.0765(8) 0.3467(4) -0.4175(5)
H12 H 0.1845 0.3678 -0.4186
C18 C -0.0359(8) 0.3293(4) -0.4997(5)
H13 H -0.0036 0.3375 -0.5562
C19 C 0.1021(8) 0.1262(6) -0.0022(5)
H14 H 0.0839 0.1399 -0.0660
C20 C 0.2205(6) 0.1016(4) 0.1443(4)
H15 H 0.3022 0.0983 0.2014
C21 C 0.0558(7) 0.0763(4) 0.1302(4)
C22 C -0.0388(7) 0.0425(4) 0.1994(4)
H16 H 0.0416 0.0124 0.2495
H17 H -0.1236 0.0007 0.1678
C23 C -0.1283(6) 0.1123(3) 0.2427(3)
H18 H -0.0489 0.1614 0.2553
C24 C -0.2935(6) 0.1465(3) 0.1774(3)
C25 C -0.0273(6) 0.1052(4) 0.4158(4)
C26 C -0.3085(6) 0.0413(3) 0.3362(3)
C27 C -0.3472(6) 0.0318(3) 0.4298(3)
C28 C -0.5066(7) 0.0010(3) 0.4358(4)
H19 H -0.5873 -0.0148 0.3812
C29 C -0.5452(8) -0.0063(4) 0.5224(5)
H20 H -0.6541 -0.0244 0.5259
C30 C -0.4258(8) 0.0128(4) 0.6029(5)
H21 H -0.4535 0.0057 0.6608
C31 C -0.2606(7) 0.0431(3) 0.6010(4)
C32 C -0.1338(9) 0.0639(4) 0.6829(4)
H22 H -0.1562 0.0568 0.7421
C33 C 0.0213(9) 0.0942(4) 0.6755(4)
H23 H 0.1041 0.1077 0.7301
C34 C 0.0595(7) 0.1058(4) 0.5876(4)
H24 H 0.1669 0.1259 0.5838
C35 C -0.0637(6) 0.0870(3) 0.5069(4)
C36 C -0.2217(7) 0.0540(3) 0.5125(3)
Co1_2 Co 0.46202(8) 0.18453(5) 0.03497(4)
N4_2 N -0.7505(5) 0.1334(3) 0.0600(3)
O9 O -0.002(3) 0.3689(11) 0.1706(19)
loop_
_geom_bond_atom_site_label_1
_geom_bond_atom_site_label_2
_geom_bond_site_symmetry_1
_geom_bond_site_symmetry_2
Co1 O1 1_555 1_555
O1 C6 1_555 1_555
O2 C6 1_555 1_555
O3 C8 1_555 1_555
O4 C7 1_555 1_555
O5 Co1 1_555 1_555
O6 C24 1_555 1_555
O7 C26 1_555 1_555
O8 C25 1_555 1_555
N1 Co1 1_555 1_555
N2 H1 1_555 1_555
N3 C5 1_555 1_555
N4 C19 1_555 1_555
N5 H2 1_555 1_555
N6 C23 1_555 1_555
C1 N1 1_555 1_555
H3 C1 1_555 1_555
C2 N2 1_555 1_555
H4 C2 1_555 1_555
C3 N1 1_555 1_555
C4 C3 1_555 1_555
H5 C4 1_555 1_555
H6 C4 1_555 1_555
C5 C4 1_555 1_555
H7 C5 1_555 1_555
C6 C5 1_555 1_555
C7 N3 1_555 1_555
C8 N3 1_555 1_555
C9 C8 1_555 1_555
C10 C9 1_555 1_555
H8 C10 1_555 1_555
C11 C10 1_555 1_555
H9 C11 1_555 1_555
C12 C11 1_555 1_555
H10 C12 1_555 1_555
C13 C12 1_555 1_555
C14 C9 1_555 1_555
C15 C7 1_555 1_555
C16 C15 1_555 1_555
H11 C16 1_555 1_555
C17 C16 1_555 1_555
H12 C17 1_555 1_555
C18 C13 1_555 1_555
H13 C18 1_555 1_555
C19 N5 1_555 1_555
H14 C19 1_555 1_555
C20 N4 1_555 1_555
H15 C20 1_555 1_555
C21 N5 1_555 1_555
C22 C21 1_555 1_555
H16 C22 1_555 1_555
H17 C22 1_555 1_555
C23 C22 1_555 1_555
H18 C23 1_555 1_555
C24 O5 1_555 1_555
C25 N6 1_555 1_555
C26 N6 1_555 1_555
C27 C26 1_555 1_555
C28 C27 1_555 1_555
H19 C28 1_555 1_555
C29 C28 1_555 1_555
H20 C29 1_555 1_555
C30 C29 1_555 1_555
H21 C30 1_555 1_555
C31 C30 1_555 1_555
C32 C31 1_555 1_555
H22 C32 1_555 1_555
C33 C32 1_555 1_555
H23 C33 1_555 1_555
C34 C33 1_555 1_555
H24 C34 1_555 1_555
C35 C25 1_555 1_555
C36 C27 1_555 1_555
Co1_2 N4 1_555 1_555
N4_2 Co1 1_555 1_555
N2 C1 1_555 1_555
C2 C3 1_555 1_555
C13 C14 1_555 1_555
C14 C15 1_555 1_555
C17 C18 1_555 1_555
C20 C21 1_555 1_555
C23 C24 1_555 1_555
C31 C36 1_555 1_555
C34 C35 1_555 1_555
C35 C36 1_555 1_555

#END
