
#######################################################################
#
#                 Cambridge Crystallographic Data Centre
#                                CCDC 
#
#######################################################################
#
# If this CIF has been generated from an entry in the Cambridge 
# Structural Database, then it will include bibliographic, chemical, 
# crystal, experimental, refinement or atomic coordinate data resulting 
# from the CCDC's data processing and validation procedures.
#
#######################################################################

data_RUGGEH
_symmetry_cell_setting           orthorhombic
_symmetry_space_group_name_H-M   'P b c n'
_symmetry_Int_Tables_number      60
_space_group_name_Hall           '-P 2n 2ab'
loop_
_symmetry_equiv_pos_site_id
_symmetry_equiv_pos_as_xyz
1 x,y,z
2 1/2-x,1/2-y,1/2+z
3 1/2+x,1/2-y,-z
4 -x,y,1/2-z
5 -x,-y,-z
6 1/2+x,1/2+y,1/2-z
7 1/2-x,1/2+y,z
8 x,-y,1/2+z
_cell_length_a                   12.4110(11)
_cell_length_b                   19.5709(17)
_cell_length_c                   15.6611(13)
_cell_angle_alpha                90
_cell_angle_beta                 90
_cell_angle_gamma                90
_cell_volume                     3803.99
loop_
_atom_site_label
_atom_site_type_symbol
_atom_site_fract_x
_atom_site_fract_y
_atom_site_fract_z
Cu1 Cu 0.5000 0.24927(7) 0.2500
N1 N 0.2097(7) 0.1344(4) 0.0712(5)
N2 N 0.2943(6) 0.1807(4) -0.1650(5)
H1 H 0.3544 0.1599 -0.1734
N3 N 0.1358(5) 0.2258(3) -0.1903(4)
O1 O 0.4294(4) 0.2367(3) 0.1412(3)
O2 O 0.3608(5) 0.1421(3) 0.1963(4)
O3 O 0.1119(10) 0.2236(4) 0.1210(5)
O4 O 0.3041(6) 0.0433(5) 0.0314(6)
C1 C 0.3687(7) 0.1848(5) 0.1404(5)
C2 C 0.3003(9) 0.1794(6) 0.0597(6)
C3 C 0.1175(10) 0.1634(6) 0.1054(6)
C4 C 0.2219(8) 0.0652(6) 0.0602(6)
C5 C 0.1318(8) 0.0204(5) 0.0835(5)
C6 C 0.0357(7) 0.0495(5) 0.1131(5)
C7 C 0.0251(7) 0.1184(5) 0.1242(5)
C8 C -0.0691(10) 0.1467(6) 0.1538(7)
H2 H -0.0749 0.1938 0.1608
C9 C -0.1531(11) 0.1057(8) 0.1726(7)
H3 H -0.2162 0.1254 0.1931
C10 C -0.1492(10) 0.0372(7) 0.1629(7)
H4 H -0.2098 0.0111 0.1756
C11 C -0.0528(9) 0.0038(6) 0.1332(6)
C12 C -0.0393(12) -0.0654(7) 0.1234(7)
H5 H -0.0970 -0.0942 0.1353
C13 C 0.0534(13) -0.0927(6) 0.0975(8)
H6 H 0.0608 -0.1399 0.0953
C14 C 0.1398(10) -0.0509(5) 0.0734(7)
H7 H 0.2021 -0.0702 0.0509
C15 C 0.3270(9) 0.2135(6) -0.0113(6)
H8 H 0.3885 0.2407 -0.0117
C16 C 0.2596(7) 0.2086(5) -0.0897(6)
C17 C 0.1610(7) 0.2359(4) -0.1069(5)
H9 H 0.1174 0.2581 -0.0674
C18 C 0.2163(7) 0.1922(5) -0.2238(5)
H10 H 0.2197 0.1780 -0.2804
N1C N 0.7903(7) 0.1344(4) 0.4288(5)
N2C N 0.7057(6) 0.1807(4) 0.6650(5)
H1C H 0.6456 0.1599 0.6734
N3C N 0.8642(5) 0.2258(3) 0.6903(4)
O1C O 0.5706(4) 0.2367(3) 0.3588(3)
O2C O 0.6392(5) 0.1421(3) 0.3037(4)
O3C O 0.8881(10) 0.2236(4) 0.3790(5)
O4C O 0.6959(6) 0.0433(5) 0.4686(6)
C1C C 0.6313(7) 0.1848(5) 0.3596(5)
C2C C 0.6997(9) 0.1794(6) 0.4403(6)
C3C C 0.8825(10) 0.1634(6) 0.3946(6)
C4C C 0.7781(8) 0.0652(6) 0.4398(6)
C5C C 0.8682(8) 0.0204(5) 0.4165(5)
C6C C 0.9643(7) 0.0495(5) 0.3869(5)
C7C C 0.9749(7) 0.1184(5) 0.3758(5)
C8C C 1.0691(10) 0.1467(6) 0.3462(7)
H2C H 1.0749 0.1938 0.3392
C9C C 1.1531(11) 0.1057(8) 0.3274(7)
H3C H 1.2162 0.1254 0.3069
C10C C 1.1492(10) 0.0372(7) 0.3371(7)
H4C H 1.2098 0.0111 0.3244
C11C C 1.0528(9) 0.0038(6) 0.3668(6)
C12C C 1.0393(12) -0.0654(7) 0.3766(7)
H5C H 1.0970 -0.0942 0.3647
C13C C 0.9466(13) -0.0927(6) 0.4025(8)
H6C H 0.9392 -0.1399 0.4047
C14C C 0.8602(10) -0.0509(5) 0.4266(7)
H7C H 0.7979 -0.0702 0.4491
C15C C 0.6730(9) 0.2135(6) 0.5113(6)
H8C H 0.6115 0.2407 0.5117
C16C C 0.7404(7) 0.2086(5) 0.5897(6)
C17C C 0.8390(7) 0.2359(4) 0.6069(5)
H9C H 0.8826 0.2581 0.5674
C18C C 0.7837(7) 0.1922(5) 0.7238(5)
H10C H 0.7803 0.1780 0.7804
Cu1A Cu 0.0000 0.25073(7) -0.2500
Cu1A_2 Cu 1.0000 0.25073(7) 0.7500
N3A N 0.3642(5) 0.2742(3) 0.3097(4)
N3B N 0.6358(5) 0.2742(3) 0.1903(4)
loop_
_geom_bond_atom_site_label_1
_geom_bond_atom_site_label_2
_geom_bond_site_symmetry_1
_geom_bond_site_symmetry_2
Cu1 O1 1_555 1_555
N1 C2 1_555 1_555
N2 H1 1_555 1_555
N3 C17 1_555 1_555
O1 C1 1_555 1_555
O2 C1 1_555 1_555
O3 C3 1_555 1_555
O4 C4 1_555 1_555
C1 C2 1_555 1_555
C2 C15 1_555 1_555
C3 N1 1_555 1_555
C4 N1 1_555 1_555
C5 C4 1_555 1_555
C6 C5 1_555 1_555
C7 C3 1_555 1_555
C8 C7 1_555 1_555
H2 C8 1_555 1_555
C9 C8 1_555 1_555
H3 C9 1_555 1_555
C10 C9 1_555 1_555
H4 C10 1_555 1_555
C11 C6 1_555 1_555
C12 C11 1_555 1_555
H5 C12 1_555 1_555
C13 C12 1_555 1_555
H6 C13 1_555 1_555
C14 C5 1_555 1_555
H7 C14 1_555 1_555
C15 H8 1_555 1_555
C16 N2 1_555 1_555
C17 C16 1_555 1_555
H9 C17 1_555 1_555
C18 N2 1_555 1_555
H10 C18 1_555 1_555
N1C C2C 1_555 1_555
N2C H1C 1_555 1_555
N3C C17C 1_555 1_555
O1C Cu1 1_555 1_555
O2C C1C 1_555 1_555
O3C C3C 1_555 1_555
O4C C4C 1_555 1_555
C1C O1C 1_555 1_555
C2C C1C 1_555 1_555
C3C N1C 1_555 1_555
C4C N1C 1_555 1_555
C5C C4C 1_555 1_555
C6C C5C 1_555 1_555
C7C C3C 1_555 1_555
C8C C7C 1_555 1_555
H2C C8C 1_555 1_555
C9C C8C 1_555 1_555
H3C C9C 1_555 1_555
C10C C9C 1_555 1_555
H4C C10C 1_555 1_555
C11C C6C 1_555 1_555
C12C C11C 1_555 1_555
H5C C12C 1_555 1_555
C13C C12C 1_555 1_555
H6C C13C 1_555 1_555
C14C C5C 1_555 1_555
H7C C14C 1_555 1_555
C15C C2C 1_555 1_555
H8C C15C 1_555 1_555
C16C N2C 1_555 1_555
C17C C16C 1_555 1_555
H9C C17C 1_555 1_555
C18C N2C 1_555 1_555
H10C C18C 1_555 1_555
Cu1A N3 1_555 1_555
Cu1A_2 N3C 1_555 1_555
N3A Cu1 1_555 1_555
N3B Cu1 1_555 1_555
N3 C18 1_555 1_555
C6 C7 1_555 1_555
C10 C11 1_555 1_555
C13 C14 1_555 1_555
C15 C16 1_555 1_555
N3C C18C 1_555 1_555
C6C C7C 1_555 1_555
C10C C11C 1_555 1_555
C13C C14C 1_555 1_555
C15C C16C 1_555 1_555

#END
