
#######################################################################
#
#                 Cambridge Crystallographic Data Centre
#                                CCDC 
#
#######################################################################
#
# If this CIF has been generated from an entry in the Cambridge 
# Structural Database, then it will include bibliographic, chemical, 
# crystal, experimental, refinement or atomic coordinate data resulting 
# from the CCDC's data processing and validation procedures.
#
#######################################################################

data_RUGKUB
_symmetry_cell_setting           triclinic
_symmetry_space_group_name_H-M   'P -1'
_symmetry_Int_Tables_number      2
_space_group_name_Hall           '-P 1'
loop_
_symmetry_equiv_pos_site_id
_symmetry_equiv_pos_as_xyz
1 x,y,z
2 -x,-y,-z
_cell_length_a                   12.637(2)
_cell_length_b                   13.239(2)
_cell_length_c                   20.110(3)
_cell_angle_alpha                74.8220(10)
_cell_angle_beta                 76.150(2)
_cell_angle_gamma                86.264(2)
_cell_volume                     3152.65
loop_
_atom_site_label
_atom_site_type_symbol
_atom_site_fract_x
_atom_site_fract_y
_atom_site_fract_z
Cu1 Cu 0.37764(5) 0.00745(5) 0.39832(3)
Cu2 Cu 0.10684(5) -0.03175(5) 0.44289(3)
Cu3 Cu 0.28666(5) -0.23147(5) 0.47053(4)
Cu4 Cu 1.12074(5) 0.46976(5) 0.10173(3)
Cu5 Cu 1.39009(5) 0.51105(5) 0.06031(4)
Cu6 Cu 1.20938(5) 0.71233(5) 0.04863(4)
O1 O 0.2513(3) -0.0811(3) 0.46129(18)
H1 H 0.2493(16) -0.0714(16) 0.5018(8)
O2 O 1.2452(3) 0.5653(3) 0.04589(19)
H2 H 1.2475(16) 0.5646(16) 0.0031(8)
O3 O 0.0434(3) -0.0190(3) 0.55837(19)
O4 O 0.1985(3) -0.0568(3) 0.5933(2)
O5 O 0.3202(3) -0.3835(3) 0.4845(2)
O6 O 0.2440(4) -0.3712(4) 0.5929(3)
O7 O 1.5407(3) 0.4614(3) 0.0588(2)
O8 O 1.1763(4) 0.8620(3) 0.0454(3)
O9 O 1.2539(5) 0.8724(5) -0.0669(3)
N1 N 0.2766(4) 0.1242(4) 0.3774(2)
N2 N 0.1660(3) 0.1096(3) 0.4006(2)
N3 N 0.0689(4) -0.1763(4) 0.4497(3)
N4 N 0.1459(4) -0.2535(4) 0.4536(3)
N5 N 0.4355(4) -0.2002(3) 0.4704(2)
N6 N 0.4743(4) -0.1005(3) 0.4415(2)
N7 N 1.2231(4) 0.3515(4) 0.1105(3)
N8 N 1.3336(4) 0.3682(4) 0.0874(3)
N9 N 1.4261(4) 0.6482(4) 0.0693(3)
N10 N 1.3509(4) 0.7277(4) 0.0666(2)
N11 N 1.0598(4) 0.6847(4) 0.0495(3)
N12 N 1.0221(4) 0.5832(4) 0.0692(2)
N13 N 0.5092(4) 0.0945(3) 0.3398(2)
N14 N 0.9947(4) 0.3741(4) 0.1567(2)
N15 N 0.3612(4) -0.0760(4) 0.3116(2)
N16 N 0.1367(4) -0.4635(4) 0.1985(2)
C1 C 0.2921(5) 0.2260(5) 0.3464(4)
H3 H 0.3601 0.2567 0.3254
C2 C 0.1940(6) 0.2805(5) 0.3495(4)
H4 H 0.1827 0.3518 0.3324
C3 C 0.1160(5) 0.2015(5) 0.3848(3)
H5 H 0.0410 0.2119 0.3955
C4 C -0.0210(5) -0.2169(5) 0.4432(4)
H6 H -0.0860 -0.1806 0.4403
C5 C -0.0038(6) -0.3204(5) 0.4415(4)
H7 H -0.0527 -0.3664 0.4370
C6 C 0.1022(5) -0.3400(5) 0.4480(4)
H8 H 0.1382 -0.4036 0.4484
C7 C 0.5184(5) -0.2626(5) 0.4870(3)
H9 H 0.5135 -0.3344 0.5071
C8 C 0.6124(5) -0.2036(5) 0.4694(3)
H10 H 0.6814 -0.2269 0.4754
C9 C 0.5811(4) -0.1024(4) 0.4411(3)
H11 H 0.6268 -0.0445 0.4243
C10 C 1.2076(5) 0.2470(5) 0.1294(3)
H12 H 1.1400 0.2145 0.1468
C11 C 1.3059(6) 0.1952(5) 0.1193(4)
H13 H 1.3182 0.1234 0.1280
C12 C 1.3825(5) 0.2753(5) 0.0930(4)
H14 H 1.4575 0.2653 0.0810
C13 C 1.5133(5) 0.6819(5) 0.0841(3)
H15 H 1.5764 0.6431 0.0883
C14 C 1.4962(5) 0.7819(5) 0.0920(4)
H16 H 1.5435 0.8231 0.1027
C15 C 1.3935(5) 0.8079(5) 0.0807(3)
H17 H 1.3588 0.8716 0.0826
C16 C 0.9773(5) 0.7505(5) 0.0382(3)
H18 H 0.9816 0.8231 0.0251
C17 C 0.8839(5) 0.6925(5) 0.0493(3)
H19 H 0.8150 0.7179 0.0445
C18 C 0.9154(4) 0.5891(5) 0.0690(3)
H20 H 0.8695 0.5319 0.0805
C19 C 0.5521(4) 0.1597(4) 0.3668(3)
H21 H 0.5154 0.1691 0.4108
C20 C 0.6481(4) 0.2140(4) 0.3331(3)
H22 H 0.6741 0.2597 0.3536
C21 C 0.7050(4) 0.1990(4) 0.2681(3)
C22 C 0.6606(5) 0.1302(5) 0.2404(3)
H23 H 0.6963 0.1179 0.1972
C23 C 0.5635(5) 0.0802(5) 0.2773(3)
H24 H 0.5349 0.0348 0.2579
C24 C 0.9591(5) 0.3597(5) 0.2267(3)
H25 H 0.9980 0.3890 0.2508
C25 C 0.8661(4) 0.3023(5) 0.2645(3)
H26 H 0.8427 0.2944 0.3131
C26 C 0.8081(4) 0.2566(4) 0.2295(3)
C27 C 0.8482(4) 0.2669(4) 0.1578(3)
H27 H 0.8136 0.2344 0.1330
C28 C 0.9412(4) 0.3267(4) 0.1234(3)
H28 H 0.9674 0.3341 0.0750
C29 C 0.4079(5) -0.1704(5) 0.3136(3)
H29 H 0.4713 -0.1846 0.3302
C30 C 0.3666(5) -0.2477(5) 0.2922(3)
H30 H 0.4021 -0.3118 0.2942
C31 C 0.2712(4) -0.2285(4) 0.2675(3)
C32 C 0.2249(5) -0.1290(4) 0.2624(3)
H31 H 0.1635 -0.1114 0.2438
C33 C 0.2718(5) -0.0570(4) 0.2854(3)
H32 H 0.2393 0.0086 0.2825
C34 C 0.2361(5) -0.4733(5) 0.2116(3)
H33 H 0.2768 -0.5324 0.2047
C35 C 0.2818(5) -0.4007(5) 0.2347(3)
H34 H 0.3518 -0.4111 0.2426
C36 C 0.2228(4) -0.3120(4) 0.2461(3)
C37 C 0.1173(5) -0.3040(5) 0.2362(3)
H35 H 0.0728 -0.2484 0.2460
C38 C 0.0787(5) -0.3799(5) 0.2116(3)
H36 H 0.0086 -0.3721 0.2038
C39 C 0.0994(4) -0.0361(4) 0.6056(3)
C40 C 0.0405(5) -0.0308(6) 0.6798(3)
H37 H 0.0037 0.0353 0.6778
H38 H 0.0923 -0.0380 0.7087
H39 H -0.0118 -0.0864 0.6998
C41 C 0.2818(5) -0.4248(5) 0.5511(4)
C42 C 0.2855(7) -0.5428(6) 0.5735(5)
H40 H 0.2785 -0.5705 0.5352
H41 H 0.2268 -0.5680 0.6138
H42 H 0.3537 -0.5651 0.5858
C43 C 1.5956(5) 0.4317(5) 0.1072(3)
C44 C 1.2174(6) 0.9140(5) -0.0188(5)
C45 C 1.2198(11) 1.0332(7) -0.0288(8)
H43 H 1.1625 1.0530 0.0064
H44 H 1.2096 1.0682 -0.0751
H45 H 1.2889 1.0528 -0.0240
O10 O 1.6959(3) 0.4239(4) 0.0934(2)
C46 C 1.5299(6) 0.4059(6) 0.1835(3)
H46 H 1.4715 0.3595 0.1888
H47 H 1.5004 0.4692 0.1955
H48 H 1.5764 0.3728 0.2144
Cu2A Cu -0.10684(5) 0.03175(5) 0.55711(3)
Cu4_2 Cu 0.12074(5) -0.53024(5) 0.10173(3)
Cu5A Cu 1.60991(5) 0.48895(5) -0.06031(4)
O3A O -0.0434(3) 0.0190(3) 0.44163(19)
O7A O 1.4593(3) 0.5386(3) -0.0588(2)
N16_2 N 1.1367(4) 0.5365(4) 0.1985(2)
O11 O 0.4527(5) 0.5103(5) 0.3951(4)
H49 H 0.4181 0.5506 0.4171
C47 C 0.3846(11) 0.4518(9) 0.3811(6)
H50 H 0.3640 0.3920 0.4205
H51 H 0.4193 0.4289 0.3396
H52 H 0.3207 0.4919 0.3729
O12 O 0.0501(8) 0.9421(7) 0.1559(4)
H53 H 0.0875 0.9159 0.1254
C48 C -0.0129(16) 1.0072(15) 0.1295(8)
H54 H 0.0136 1.0765 0.1221
H55 H -0.0840 0.9994 0.1608
H56 H -0.0174 0.9962 0.0849
O13 O 0.5950(8) 0.5926(8) 0.2652(5)
H57 H 0.6166 0.6500 0.2646
C49 C 0.683(3) 0.522(3) 0.263(3)
H58 H 0.7444 0.5542 0.2265
H59 H 0.6624 0.4604 0.2516
H60 H 0.7023 0.5022 0.3076
O15 O 0.7972(13) 0.8042(11) 0.2540(6)
H65 H 0.8569 0.7815 0.2412
H66 H 0.7784 0.7697 0.3047
O17 O 0.6045(13) 0.9745(11) 0.1466(9)
H67 H 0.6512 1.0199 0.1357
C51 C 0.5034(16) 1.022(2) 0.1320(12)
H68 H 0.4454 0.9720 0.1532
H69 H 0.5101 1.0438 0.0818
H70 H 0.4875 1.0817 0.1515
O14? O 0.794(3) 0.560(2) 0.2685(17)
H61? H 0.8397 0.5162 0.2581
C50? C 0.7007(13) 0.5485(11) 0.2445(6)
H62? H 0.6450 0.5128 0.2837
H63? H 0.7187 0.5085 0.2098
H64? H 0.6746 0.6163 0.2237
O16? O 0.6687(12) 0.8003(14) 0.2178(14)
loop_
_geom_bond_atom_site_label_1
_geom_bond_atom_site_label_2
_geom_bond_site_symmetry_1
_geom_bond_site_symmetry_2
Cu1 O1 1_555 1_555
Cu2 O1 1_555 1_555
Cu3 O1 1_555 1_555
Cu4 O2 1_555 1_555
Cu5 O2 1_555 1_555
Cu6 O2 1_555 1_555
O1 H1 1_555 1_555
O2 H2 1_555 1_555
O3 Cu2 1_555 1_555
O4 C39 1_555 1_555
O5 Cu3 1_555 1_555
O6 Cu3 1_555 1_555
O7 Cu5 1_555 1_555
O8 Cu6 1_555 1_555
O9 Cu6 1_555 1_555
N1 Cu1 1_555 1_555
N2 Cu2 1_555 1_555
N3 Cu2 1_555 1_555
N4 Cu3 1_555 1_555
N5 Cu3 1_555 1_555
N6 Cu1 1_555 1_555
N7 Cu4 1_555 1_555
N8 Cu5 1_555 1_555
N9 Cu5 1_555 1_555
N10 Cu6 1_555 1_555
N11 Cu6 1_555 1_555
N12 Cu4 1_555 1_555
N13 Cu1 1_555 1_555
N14 Cu4 1_555 1_555
N15 Cu1 1_555 1_555
N16 C34 1_555 1_555
C1 N1 1_555 1_555
H3 C1 1_555 1_555
C2 C1 1_555 1_555
H4 C2 1_555 1_555
C3 N2 1_555 1_555
H5 C3 1_555 1_555
C4 N3 1_555 1_555
H6 C4 1_555 1_555
C5 C4 1_555 1_555
H7 C5 1_555 1_555
C6 N4 1_555 1_555
H8 C6 1_555 1_555
C7 N5 1_555 1_555
H9 C7 1_555 1_555
C8 C7 1_555 1_555
H10 C8 1_555 1_555
C9 N6 1_555 1_555
H11 C9 1_555 1_555
C10 N7 1_555 1_555
H12 C10 1_555 1_555
C11 C10 1_555 1_555
H13 C11 1_555 1_555
C12 N8 1_555 1_555
H14 C12 1_555 1_555
C13 N9 1_555 1_555
H15 C13 1_555 1_555
C14 C13 1_555 1_555
H16 C14 1_555 1_555
C15 N10 1_555 1_555
H17 C15 1_555 1_555
C16 N11 1_555 1_555
H18 C16 1_555 1_555
C17 C16 1_555 1_555
H19 C17 1_555 1_555
C18 N12 1_555 1_555
H20 C18 1_555 1_555
C19 N13 1_555 1_555
H21 C19 1_555 1_555
C20 C19 1_555 1_555
H22 C20 1_555 1_555
C21 C20 1_555 1_555
C22 C21 1_555 1_555
H23 C22 1_555 1_555
C23 N13 1_555 1_555
H24 C23 1_555 1_555
C24 N14 1_555 1_555
H25 C24 1_555 1_555
C25 C24 1_555 1_555
H26 C25 1_555 1_555
C26 C21 1_555 1_555
C27 C26 1_555 1_555
H27 C27 1_555 1_555
C28 N14 1_555 1_555
H28 C28 1_555 1_555
C29 N15 1_555 1_555
H29 C29 1_555 1_555
C30 C29 1_555 1_555
H30 C30 1_555 1_555
C31 C30 1_555 1_555
C32 C31 1_555 1_555
H31 C32 1_555 1_555
C33 N15 1_555 1_555
H32 C33 1_555 1_555
C34 H33 1_555 1_555
C35 C34 1_555 1_555
H34 C35 1_555 1_555
C36 C31 1_555 1_555
C37 C36 1_555 1_555
H35 C37 1_555 1_555
C38 N16 1_555 1_555
H36 C38 1_555 1_555
C39 O3 1_555 1_555
C40 C39 1_555 1_555
H37 C40 1_555 1_555
H38 C40 1_555 1_555
H39 C40 1_555 1_555
C41 O5 1_555 1_555
C42 C41 1_555 1_555
H40 C42 1_555 1_555
H41 C42 1_555 1_555
H42 C42 1_555 1_555
C43 O7 1_555 1_555
C44 O8 1_555 1_555
C45 C44 1_555 1_555
H43 C45 1_555 1_555
H44 C45 1_555 1_555
H45 C45 1_555 1_555
O10 C43 1_555 1_555
C46 C43 1_555 1_555
H46 C46 1_555 1_555
H47 C46 1_555 1_555
H48 C46 1_555 1_555
O11 H49 1_555 1_555
C47 O11 1_555 1_555
H50 C47 1_555 1_555
H51 C47 1_555 1_555
H52 C47 1_555 1_555
O12 H53 1_555 1_555
C48 O12 1_555 1_555
H54 C48 1_555 1_555
H55 C48 1_555 1_555
H56 C48 1_555 1_555
O13 H57 1_555 1_555
C49 O13 1_555 1_555
H58 C49 1_555 1_555
H59 C49 1_555 1_555
H60 C49 1_555 1_555
O15 H65 1_555 1_555
H66 O15 1_555 1_555
O17 H67 1_555 1_555
C51 O17 1_555 1_555
H68 C51 1_555 1_555
H69 C51 1_555 1_555
H70 C51 1_555 1_555
Cu2A O3 1_555 1_555
Cu4_2 N16 1_555 1_555
Cu5A O7 1_555 1_555
O3A Cu2 1_555 1_555
O7A Cu5 1_555 1_555
N16_2 Cu4 1_555 1_555
O6 C41 1_555 1_555
O9 C44 1_555 1_555
N1 N2 1_555 1_555
N3 N4 1_555 1_555
N5 N6 1_555 1_555
N7 N8 1_555 1_555
N9 N10 1_555 1_555
N11 N12 1_555 1_555
C2 C3 1_555 1_555
C5 C6 1_555 1_555
C8 C9 1_555 1_555
C11 C12 1_555 1_555
C14 C15 1_555 1_555
C17 C18 1_555 1_555
C22 C23 1_555 1_555
C25 C26 1_555 1_555
C27 C28 1_555 1_555
C32 C33 1_555 1_555
C35 C36 1_555 1_555
C37 C38 1_555 1_555
Cu2A O3A 1_555 1_555
Cu5A O7A 1_555 1_555

#END
