
#######################################################################
#
#                 Cambridge Crystallographic Data Centre
#                                CCDC 
#
#######################################################################
#
# If this CIF has been generated from an entry in the Cambridge 
# Structural Database, then it will include bibliographic, chemical, 
# crystal, experimental, refinement or atomic coordinate data resulting 
# from the CCDC's data processing and validation procedures.
#
#######################################################################

data_RUGLUC
_symmetry_cell_setting           triclinic
_symmetry_space_group_name_H-M   'P -1'
_symmetry_Int_Tables_number      2
_space_group_name_Hall           '-P 1'
loop_
_symmetry_equiv_pos_site_id
_symmetry_equiv_pos_as_xyz
1 x,y,z
2 -x,-y,-z
_cell_length_a                   11.062(2)
_cell_length_b                   12.636(3)
_cell_length_c                   12.816(3)
_cell_angle_alpha                86.064(2)
_cell_angle_beta                 71.413(2)
_cell_angle_gamma                66.729(2)
_cell_volume                     1556.46
loop_
_atom_site_label
_atom_site_type_symbol
_atom_site_fract_x
_atom_site_fract_y
_atom_site_fract_z
Cu1 Cu 0.80230(6) 0.72376(5) 0.08492(5)
Cu2 Cu 0.89110(7) 0.94854(5) 0.08570(5)
Cu3 Cu 0.95110(7) 0.73872(6) 0.26323(5)
N1 N 0.9087(5) 0.9764(4) 0.2268(4)
N2 N 0.8840(4) 0.5839(4) 0.1588(4)
N3 N 0.9454(5) 0.5920(4) 0.2338(4)
N4 N 0.7606(5) 0.8456(4) -0.0157(4)
N5 N 0.8019(5) 0.9353(4) -0.0187(4)
N6 N 0.9138(5) 0.8962(4) 0.3018(4)
N7 N 0.6356(5) 0.8264(4) 0.2504(4)
C1 C 0.5266(6) 0.9633(5) 0.4480(5)
C2 C 0.5283(6) 1.0118(5) 0.3486(5)
H1 H 0.4926 1.0916 0.3452
C3 C 0.5788(7) 0.8446(5) 0.4471(5)
H2 H 0.5799 0.8075 0.5122
C4 C 0.6299(7) 0.7814(5) 0.3468(6)
H3 H 0.6625 0.7014 0.3478
C5 C 0.5845(6) 0.9396(6) 0.2528(5)
H4 H 0.5858 0.9740 0.1862
N8 N 0.6844(4) 0.6543(4) 0.0477(3)
C6 C 0.7377(6) 0.5776(5) -0.0377(5)
H5 H 0.8262 0.5648 -0.0853
C7 C 0.5383(5) 0.5340(4) 0.0089(4)
C8 C 0.4809(6) 0.6162(5) 0.0943(5)
H6 H 0.3910 0.6329 0.1411
C9 C 0.6698(5) 0.5164(5) -0.0594(4)
H7 H 0.7121 0.4632 -0.1199
C10 C 0.5554(6) 0.6737(5) 0.1108(5)
H8 H 0.5138 0.7294 0.1693
O1 O 0.8859(4) 1.1012(3) 0.0354(3)
O2 O 0.8200(4) 1.2892(3) 0.0369(3)
C11 C 0.7949(6) 1.2045(5) 0.0681(5)
C12 C 0.6542(6) 1.2180(5) 0.1439(6)
H9 H 0.5942 1.2273 0.0999
H10 H 0.6627 1.1476 0.1818
C13 C 0.5864(8) 1.3173(7) 0.2281(6)
H11 H 0.6359 1.3024 0.2805
H12 H 0.4921 1.3269 0.2656
H13 H 0.5875 1.3863 0.1924
O3 O 0.9913(5) 0.6868(4) 0.4034(3)
O4 O 1.1889(5) 0.6628(4) 0.2806(4)
C14 C 1.1217(8) 0.6588(6) 0.3756(6)
O5 O 0.9286(3) 0.7849(3) 0.1172(3)
C15 C 0.8857(6) 0.4767(5) 0.1613(5)
H14 H 0.8512 0.4478 0.1177
C16 C 0.9802(7) 0.4929(5) 0.2802(5)
H15 H 1.0226 0.4766 0.3348
C17 C 0.9451(7) 0.4166(5) 0.2367(5)
H16 H 0.9589 0.3411 0.2547
C18 C 0.7045(7) 0.8603(6) -0.0961(6)
H17 H 0.6685 0.8110 -0.1134
C19 C 0.7694(7) 0.9986(6) -0.0991(6)
H18 H 0.7874 1.0644 -0.1185
C20 C 0.7067(8) 0.9563(7) -0.1497(6)
H19 H 0.6728 0.9860 -0.2078
C21 C 0.8986(8) 1.0707(5) 0.2762(7)
H20 H 0.8937 1.1393 0.2426
C22 C 0.9048(8) 0.9435(6) 0.3968(6)
H21 H 0.9043 0.9066 0.4622
C23 C 0.8966(10) 1.0522(6) 0.3820(7)
H22 H 0.8908 1.1038 0.4336
C24 C 1.1873(9) 0.6181(8) 0.4659(7)
H23 H 1.1314 0.6713 0.5304
H24 H 1.1854 0.5432 0.4858
C25 C 1.3289(13) 0.6088(11) 0.4366(10)
H25 H 1.3820 0.5664 0.3665
H26 H 1.3688 0.5693 0.4919
H27 H 1.3298 0.6847 0.4322
H28 H 1.003(12) 0.757(11) 0.079(10)
N7A N 0.3644(5) 1.1736(4) 0.7496(4)
C1A C 0.4734(6) 1.0367(5) 0.5520(5)
C2A C 0.4717(6) 0.9882(5) 0.6514(5)
H1A H 0.5074 0.9084 0.6548
C3A C 0.4212(7) 1.1554(5) 0.5529(5)
H2A H 0.4201 1.1925 0.4878
C4A C 0.3701(7) 1.2186(5) 0.6532(6)
H3A H 0.3375 1.2986 0.6522
C5A C 0.4155(6) 1.0604(6) 0.7472(5)
H4A H 0.4142 1.0260 0.8138
N8A N 0.3156(4) 0.3457(4) -0.0477(3)
C6A C 0.2623(6) 0.4224(5) 0.0377(5)
H5A H 0.1738 0.4352 0.0853
C7A C 0.4617(5) 0.4660(4) -0.0089(4)
C8A C 0.5191(6) 0.3838(5) -0.0943(5)
H6A H 0.6090 0.3671 -0.1411
C9A C 0.3302(5) 0.4836(5) 0.0594(4)
H7A H 0.2879 0.5368 0.1199
C10A C 0.4446(6) 0.3263(5) -0.1108(5)
H8A H 0.4862 0.2706 -0.1693
Cu1A Cu 0.19770(6) 0.27624(5) -0.08492(5)
Cu2A Cu 0.10890(7) 0.05146(5) -0.08570(5)
Cu3A Cu 0.04890(7) 0.26128(6) -0.26323(5)
N1A N 0.0913(5) 0.0236(4) -0.2268(4)
N2A N 0.1160(4) 0.4161(4) -0.1588(4)
N3A N 0.0546(5) 0.4080(4) -0.2338(4)
N4A N 0.2394(5) 0.1544(4) 0.0157(4)
N5A N 0.1981(5) 0.0647(4) 0.0187(4)
N6A N 0.0862(5) 0.1038(4) -0.3018(4)
O1A O 0.1141(4) -0.1012(3) -0.0354(3)
O2A O 0.1800(4) -0.2892(3) -0.0369(3)
C11A C 0.2051(6) -0.2045(5) -0.0681(5)
C12A C 0.3458(6) -0.2180(5) -0.1439(6)
H9A H 0.4058 -0.2273 -0.0999
H10A H 0.3373 -0.1476 -0.1818
C13A C 0.4136(8) -0.3173(7) -0.2281(6)
H11A H 0.3641 -0.3024 -0.2805
H12A H 0.5079 -0.3269 -0.2656
H13A H 0.4125 -0.3863 -0.1924
O3A O 0.0087(5) 0.3132(4) -0.4034(3)
O4A O -0.1889(5) 0.3372(4) -0.2806(4)
C14A C -0.1217(8) 0.3412(6) -0.3756(6)
O5A O 0.0714(3) 0.2151(3) -0.1172(3)
C15A C 0.1143(6) 0.5233(5) -0.1613(5)
H14A H 0.1488 0.5522 -0.1177
C16A C 0.0198(7) 0.5071(5) -0.2802(5)
H15A H -0.0226 0.5234 -0.3348
C17A C 0.0549(7) 0.5834(5) -0.2367(5)
H16A H 0.0411 0.6589 -0.2547
C18A C 0.2955(7) 0.1397(6) 0.0961(6)
H17A H 0.3315 0.1890 0.1134
C19A C 0.2306(7) 0.0014(6) 0.0991(6)
H18A H 0.2126 -0.0644 0.1185
C20A C 0.2933(8) 0.0437(7) 0.1497(6)
H19A H 0.3272 0.0140 0.2078
C21A C 0.1014(8) -0.0707(5) -0.2762(7)
H20A H 0.1063 -0.1393 -0.2426
C22A C 0.0952(8) 0.0565(6) -0.3968(6)
H21A H 0.0957 0.0934 -0.4622
C23A C 0.1034(10) -0.0522(6) -0.3820(7)
H22A H 0.1092 -0.1038 -0.4336
C24A C -0.1873(9) 0.3819(8) -0.4659(7)
H23A H -0.1314 0.3287 -0.5304
H24A H -0.1854 0.4568 -0.4858
C25A C -0.3289(13) 0.3912(11) -0.4366(10)
H25A H -0.3820 0.4336 -0.3665
H26A H -0.3688 0.4307 -0.4919
H27A H -0.3298 0.3153 -0.4322
H28A H -0.003(12) 0.243(11) -0.079(10)
Cu1A_2 Cu 0.19770(6) 1.27624(5) 0.91508(5)
Cu2_2 Cu -0.10890(7) -0.05146(5) 0.08570(5)
Cu2A_2 Cu 1.10890(7) 1.05146(5) -0.08570(5)
N7A_2 N 0.3644(5) 0.1736(4) -0.2504(4)
O1_2 O -0.1141(4) 0.1012(3) 0.0354(3)
O1A_2 O 1.1141(4) 0.8988(3) -0.0354(3)
O6 O 0.7820(9) 0.7283(8) 0.6086(7)
loop_
_geom_bond_atom_site_label_1
_geom_bond_atom_site_label_2
_geom_bond_site_symmetry_1
_geom_bond_site_symmetry_2
Cu1 N2 1_555 1_555
Cu2 N1 1_555 1_555
Cu3 N3 1_555 1_555
N1 N6 1_555 1_555
N2 N3 1_555 1_555
N3 C16 1_555 1_555
N4 Cu1 1_555 1_555
N5 Cu2 1_555 1_555
N6 Cu3 1_555 1_555
N7 Cu1 1_555 1_555
C1 C2 1_555 1_555
C2 H1 1_555 1_555
C3 C1 1_555 1_555
H2 C3 1_555 1_555
C4 N7 1_555 1_555
H3 C4 1_555 1_555
C5 N7 1_555 1_555
H4 C5 1_555 1_555
N8 Cu1 1_555 1_555
C6 N8 1_555 1_555
H5 C6 1_555 1_555
C7 C8 1_555 1_555
C8 H6 1_555 1_555
C9 C6 1_555 1_555
H7 C9 1_555 1_555
C10 N8 1_555 1_555
H8 C10 1_555 1_555
O1 Cu2 1_555 1_555
O2 C11 1_555 1_555
C11 O1 1_555 1_555
C12 C11 1_555 1_555
H9 C12 1_555 1_555
H10 C12 1_555 1_555
C13 C12 1_555 1_555
H11 C13 1_555 1_555
H12 C13 1_555 1_555
H13 C13 1_555 1_555
O3 Cu3 1_555 1_555
O4 Cu3 1_555 1_555
C14 O3 1_555 1_555
O5 Cu1 1_555 1_555
C15 N2 1_555 1_555
H14 C15 1_555 1_555
C16 H15 1_555 1_555
C17 C15 1_555 1_555
H16 C17 1_555 1_555
C18 N4 1_555 1_555
H17 C18 1_555 1_555
C19 N5 1_555 1_555
H18 C19 1_555 1_555
C20 C18 1_555 1_555
H19 C20 1_555 1_555
C21 N1 1_555 1_555
H20 C21 1_555 1_555
C22 N6 1_555 1_555
H21 C22 1_555 1_555
C23 C21 1_555 1_555
H22 C23 1_555 1_555
C24 C14 1_555 1_555
H23 C24 1_555 1_555
H24 C24 1_555 1_555
C25 C24 1_555 1_555
H25 C25 1_555 1_555
H26 C25 1_555 1_555
H27 C25 1_555 1_555
H28 O5 1_555 1_555
N7A C4A 1_555 1_555
C1A C1 1_555 1_555
C2A C1A 1_555 1_555
H1A C2A 1_555 1_555
C3A C1A 1_555 1_555
H2A C3A 1_555 1_555
C4A C3A 1_555 1_555
H3A C4A 1_555 1_555
C5A N7A 1_555 1_555
H4A C5A 1_555 1_555
N8A C6A 1_555 1_555
C6A H5A 1_555 1_555
C7A C7 1_555 1_555
C8A C7A 1_555 1_555
H6A C8A 1_555 1_555
C9A C6A 1_555 1_555
H7A C9A 1_555 1_555
C10A N8A 1_555 1_555
H8A C10A 1_555 1_555
Cu1A N8A 1_555 1_555
Cu2A N1A 1_555 1_555
Cu3A N3A 1_555 1_555
N1A N6A 1_555 1_555
N2A Cu1A 1_555 1_555
N3A N2A 1_555 1_555
N4A Cu1A 1_555 1_555
N5A Cu2A 1_555 1_555
N6A Cu3A 1_555 1_555
O1A Cu2A 1_555 1_555
O2A C11A 1_555 1_555
C11A O1A 1_555 1_555
C12A C11A 1_555 1_555
H9A C12A 1_555 1_555
H10A C12A 1_555 1_555
C13A C12A 1_555 1_555
H11A C13A 1_555 1_555
H12A C13A 1_555 1_555
H13A C13A 1_555 1_555
O3A Cu3A 1_555 1_555
O4A Cu3A 1_555 1_555
C14A O3A 1_555 1_555
O5A Cu1A 1_555 1_555
C15A N2A 1_555 1_555
H14A C15A 1_555 1_555
C16A N3A 1_555 1_555
H15A C16A 1_555 1_555
C17A C15A 1_555 1_555
H16A C17A 1_555 1_555
C18A N4A 1_555 1_555
H17A C18A 1_555 1_555
C19A N5A 1_555 1_555
H18A C19A 1_555 1_555
C20A C18A 1_555 1_555
H19A C20A 1_555 1_555
C21A N1A 1_555 1_555
H20A C21A 1_555 1_555
C22A N6A 1_555 1_555
H21A C22A 1_555 1_555
C23A C21A 1_555 1_555
H22A C23A 1_555 1_555
C24A C14A 1_555 1_555
H23A C24A 1_555 1_555
H24A C24A 1_555 1_555
C25A C24A 1_555 1_555
H25A C25A 1_555 1_555
H26A C25A 1_555 1_555
H27A C25A 1_555 1_555
H28A O5A 1_555 1_555
Cu1A_2 N7A 1_555 1_555
Cu2_2 O1A 1_555 1_555
Cu2A_2 O1 1_555 1_555
N7A_2 Cu1A 1_555 1_555
O1_2 Cu2A 1_555 1_555
O1A_2 Cu2 1_555 1_555
Cu2 O5 1_555 1_555
Cu3 O5 1_555 1_555
N4 N5 1_555 1_555
C2 C5 1_555 1_555
C3 C4 1_555 1_555
C7 C9 1_555 1_555
C8 C10 1_555 1_555
O4 C14 1_555 1_555
C16 C17 1_555 1_555
C19 C20 1_555 1_555
C22 C23 1_555 1_555
C2A C5A 1_555 1_555
C7A C9A 1_555 1_555
C8A C10A 1_555 1_555
Cu2A O5A 1_555 1_555
Cu3A O5A 1_555 1_555
N4A N5A 1_555 1_555
O4A C14A 1_555 1_555
C16A C17A 1_555 1_555
C19A C20A 1_555 1_555
C22A C23A 1_555 1_555
Cu2_2 O1_2 1_555 1_555
Cu2A_2 O1A_2 1_555 1_555

#END
