
#######################################################################
#
#                 Cambridge Crystallographic Data Centre
#                                CCDC 
#
#######################################################################
#
# If this CIF has been generated from an entry in the Cambridge 
# Structural Database, then it will include bibliographic, chemical, 
# crystal, experimental, refinement or atomic coordinate data resulting 
# from the CCDC's data processing and validation procedures.
#
#######################################################################

data_RUGMEN
_symmetry_cell_setting           triclinic
_symmetry_space_group_name_H-M   'P -1'
_symmetry_Int_Tables_number      2
_space_group_name_Hall           '-P 1'
loop_
_symmetry_equiv_pos_site_id
_symmetry_equiv_pos_as_xyz
1 x,y,z
2 -x,-y,-z
_cell_length_a                   11.174(4)
_cell_length_b                   12.452(4)
_cell_length_c                   13.109(8)
_cell_angle_alpha                113.890(5)
_cell_angle_beta                 94.844(6)
_cell_angle_gamma                113.569(4)
_cell_volume                     1461.03
loop_
_atom_site_label
_atom_site_type_symbol
_atom_site_fract_x
_atom_site_fract_y
_atom_site_fract_z
Cu1 Cu 0.69327(12) 0.55563(10) 0.28813(11)
Cu2 Cu 0.84133(12) 0.80942(10) 0.55034(11)
Cu3 Cu 0.86806(12) 0.53506(10) 0.49578(11)
O1 O 1.0785(7) 0.5689(6) 0.4478(6)
O2 O 0.8480(7) 0.6485(5) 0.4307(6)
H1 H 0.928(5) 0.684(9) 0.419(9)
O3 O 1.1002(7) 0.7244(6) 0.3986(6)
O4 O 0.5103(8) 0.4643(6) 0.1774(7)
N1 N 0.7850(8) 0.8383(7) 0.4236(7)
N2 N 0.7396(8) 0.3752(7) 0.3521(8)
N3 N 0.7184(8) 0.7292(7) 0.3136(7)
N4 N 0.9416(8) 0.8015(7) 0.6739(7)
N5 N 0.9502(9) 0.6897(7) 0.6515(8)
N6 N 0.6716(9) 0.3860(7) 0.2702(8)
C1 C 0.7047(12) 0.2463(9) 0.3112(11)
H2 H 0.7392 0.2131 0.3513
C2 C 0.7187(12) 0.9012(10) 0.3021(11)
H3 H 0.7043 0.9534 0.2733
C3 C 1.0239(11) 0.7090(10) 0.7487(10)
H4 H 1.0450 0.6461 0.7543
C4 C 0.6793(11) 0.7664(9) 0.2404(10)
H5 H 0.6332 0.7111 0.1612
C5 C 1.0073(11) 0.8872(9) 0.7872(10)
H6 H 1.0136 0.9714 0.8258
C6 C 0.5921(11) 0.2615(9) 0.1780(11)
H7 H 0.5340 0.2402 0.1097
C7 C 0.7823(10) 0.9410(9) 0.4129(11)
H8 H 0.8195 1.0278 0.4739
C8 C 0.6137(11) 0.1711(9) 0.2050(12)
H9 H 0.5734 0.0789 0.1590
C9 C 1.0651(8) 0.8354(7) 0.8405(8)
H10 H 1.1174 0.8749 0.9172
C10 C 0.7086(8) 0.9550(7) 0.6870(8)
H11 H 0.6306 0.8723 0.6455
C11 C 0.7020(12) 1.0611(10) 0.7689(11)
H12 H 0.6179 1.0497 0.7808
C12 C 0.8134(11) 1.1833(9) 0.8341(9)
C13 C 0.9323(12) 1.1973(9) 0.8119(10)
H13 H 1.0109 1.2793 0.8548
C14 C 0.9388(10) 1.0918(9) 0.7265(9)
H14 H 1.0211 1.1044 0.7097
N7 N 0.8282(9) 0.9706(6) 0.6667(7)
C15 C 0.8031(12) 1.2946(9) 0.9268(9)
C16 C 0.6979(12) 1.3211(10) 0.9140(11)
H15 H 0.6303 1.2706 0.8426
C17 C 0.6890(13) 1.4221(11) 1.0054(12)
H16 H 0.6151 1.4368 0.9928
N8 N 0.7812(10) 1.4991(8) 1.1103(8)
C18 C 0.8853(13) 1.4748(10) 1.1225(11)
H17 H 0.9515 1.5263 1.1947
C19 C 0.9011(11) 1.3781(10) 1.0348(10)
H18 H 0.9785 1.3686 1.0481
C20 C 1.1465(11) 0.6573(9) 0.4178(9)
C21 C 1.2816(13) 0.6752(12) 0.4053(11)
H19 H 1.3023 0.6079 0.3993
C22 C 0.4180(12) 0.4334(10) 0.2241(12)
O5 O 0.4389(7) 0.4757(7) 0.3317(7)
C23 C 1.3753(15) 0.7774(16) 0.4019(14)
H20 H 1.3589 0.8469 0.4076
H21 H 1.4584 0.7807 0.3937
O6 O 0.6316(8) 0.6621(7) 0.5407(7)
H22 H 0.599(10) 0.700(9) 0.595(7)
H23 H 0.573(9) 0.602(8) 0.470(4)
C24 C 0.2768(13) 0.3385(12) 0.1508(12)
H24 H 0.2084 0.3310 0.1875
C25 C 0.2413(16) 0.2668(15) 0.0425(14)
H25 H 0.3069 0.2717 0.0029
H26 H 0.1493 0.2087 0.0017
Cu1_2 Cu 0.69327(12) 1.55563(10) 1.28813(11)
Cu3A Cu 1.13194(12) 0.46494(10) 0.50422(11)
O1A O 0.9215(7) 0.4311(6) 0.5522(6)
N8_2 N 0.7812(10) 0.4991(8) 0.1103(8)
loop_
_geom_bond_atom_site_label_1
_geom_bond_atom_site_label_2
_geom_bond_site_symmetry_1
_geom_bond_site_symmetry_2
Cu1 O2 1_555 1_555
Cu2 O2 1_555 1_555
Cu3 O1 1_555 1_555
O1 C20 1_555 1_555
O2 Cu3 1_555 1_555
H1 O2 1_555 1_555
O3 C20 1_555 1_555
O4 Cu1 1_555 1_555
N1 Cu2 1_555 1_555
N2 Cu3 1_555 1_555
N3 Cu1 1_555 1_555
N4 Cu2 1_555 1_555
N5 Cu3 1_555 1_555
N6 Cu1 1_555 1_555
C1 N2 1_555 1_555
H2 C1 1_555 1_555
C2 H3 1_555 1_555
C3 N5 1_555 1_555
H4 C3 1_555 1_555
C4 N3 1_555 1_555
H5 C4 1_555 1_555
C5 N4 1_555 1_555
H6 C5 1_555 1_555
C6 N6 1_555 1_555
H7 C6 1_555 1_555
C7 N1 1_555 1_555
H8 C7 1_555 1_555
C8 C1 1_555 1_555
H9 C8 1_555 1_555
C9 C3 1_555 1_555
H10 C9 1_555 1_555
C10 H11 1_555 1_555
C11 C10 1_555 1_555
H12 C11 1_555 1_555
C12 C11 1_555 1_555
C13 C12 1_555 1_555
H13 C13 1_555 1_555
C14 C13 1_555 1_555
H14 C14 1_555 1_555
N7 Cu2 1_555 1_555
C15 C12 1_555 1_555
C16 C15 1_555 1_555
H15 C16 1_555 1_555
C17 C16 1_555 1_555
H16 C17 1_555 1_555
N8 C17 1_555 1_555
C18 N8 1_555 1_555
H17 C18 1_555 1_555
C19 C15 1_555 1_555
H18 C19 1_555 1_555
C20 C21 1_555 1_555
C21 H19 1_555 1_555
C22 O4 1_555 1_555
O5 C22 1_555 1_555
C23 C21 1_555 1_555
H20 C23 1_555 1_555
H21 C23 1_555 1_555
O6 Cu2 1_555 1_555
H22 O6 1_555 1_555
H23 O6 1_555 1_555
C24 C22 1_555 1_555
H24 C24 1_555 1_555
C25 C24 1_555 1_555
H25 C25 1_555 1_555
H26 C25 1_555 1_555
Cu1_2 N8 1_555 1_555
Cu3A O1 1_555 1_555
O1A Cu3 1_555 1_555
N8_2 Cu1 1_555 1_555
N1 N3 1_555 1_555
N2 N6 1_555 1_555
N4 N5 1_555 1_555
C2 C4 1_555 1_555
C2 C7 1_555 1_555
C5 C9 1_555 1_555
C6 C8 1_555 1_555
C10 N7 1_555 1_555
C14 N7 1_555 1_555
C18 C19 1_555 1_555
Cu3A O1A 1_555 1_555

#END
