
#######################################################################
#
#                 Cambridge Crystallographic Data Centre
#                                CCDC 
#
#######################################################################
#
# If this CIF has been generated from an entry in the Cambridge 
# Structural Database, then it will include bibliographic, chemical, 
# crystal, experimental, refinement or atomic coordinate data resulting 
# from the CCDC's data processing and validation procedures.
#
#######################################################################

data_RUGMOX
_symmetry_cell_setting           monoclinic
_symmetry_space_group_name_H-M   'P 21/n'
_symmetry_Int_Tables_number      14
_space_group_name_Hall           '-P 2yn'
loop_
_symmetry_equiv_pos_site_id
_symmetry_equiv_pos_as_xyz
1 x,y,z
2 1/2-x,1/2+y,1/2-z
3 -x,-y,-z
4 1/2+x,1/2-y,1/2+z
_cell_length_a                   12.705(6)
_cell_length_b                   17.071(8)
_cell_length_c                   19.391(10)
_cell_angle_alpha                90
_cell_angle_beta                 98.032(4)
_cell_angle_gamma                90
_cell_volume                     4164.4
loop_
_atom_site_label
_atom_site_type_symbol
_atom_site_fract_x
_atom_site_fract_y
_atom_site_fract_z
Cu1 Cu 0.19625(14) 0.68809(12) -0.03900(9)
Cu2 Cu 0.39883(14) 0.71489(11) 0.09841(8)
Cu3 Cu 0.28237(18) 0.87184(13) 0.00777(11)
O1 O 0.2800(7) 0.7598(6) 0.0318(5)
H1 H 0.2316(17) 0.770(2) 0.0591(14)
N1 N 0.2767(10) 0.6019(9) 0.0084(6)
N2 N 0.3622(10) 0.6111(8) 0.0565(6)
N3 N 0.1198(11) 0.7805(9) -0.0806(7)
N4 N 0.1552(10) 0.8536(10) -0.0623(6)
C1 C 0.4094(13) 0.5422(12) 0.0686(8)
H2 H 0.4694 0.5327 0.1009
C2 C 0.3561(16) 0.4875(11) 0.0263(10)
H3 H 0.3723 0.4346 0.0234
C3 C 0.2733(14) 0.5273(13) -0.0112(8)
H4 H 0.2228 0.5054 -0.0450
C4 C 0.0910(15) 0.9049(12) -0.1009(10)
H5 H 0.0966 0.9592 -0.0984
C5 C 0.0167(16) 0.8645(15) -0.1441(11)
H6 H -0.0369 0.8855 -0.1764
C6 C 0.0357(15) 0.7893(13) -0.1312(9)
H7 H -0.0031 0.7482 -0.1537
O2 O 0.5236(9) 0.6691(6) 0.1581(5)
O3 O 0.0755(9) 0.6185(7) -0.0843(6)
N5 N 0.2746(16) 0.9912(10) -0.0112(10)
N6 N 0.2026(17) 1.0269(14) 0.0188(7)
H8 H 0.1653 1.0064 0.0479
C7 C 0.3117(16) 1.0386(19) -0.0533(11)
H9 H 0.3628 1.0255 -0.0813
C8 C 0.266(2) 1.1106(15) -0.0514(12)
H10 H 0.2793 1.1548 -0.0769
O4 O 0.6301(10) 0.6975(9) 0.0782(8)
O5 O 0.0065(11) 0.6470(11) 0.0089(8)
C9 C 0.682(2) 0.5654(15) 0.2156(13)
H11 H 0.6156 0.5627 0.2310
H12 H 0.7373 0.5341 0.2360
C10 C 0.6953(19) 0.6106(15) 0.1681(15)
H13 H 0.7625 0.6116 0.1542
C11 C 0.6093(17) 0.6661(13) 0.1295(10)
N7 N 0.3905(11) 0.8842(9) 0.0904(6)
N8 N 0.4401(10) 0.8231(8) 0.1260(6)
C12 C 0.5037(15) 0.9305(13) 0.1817(10)
H14 H 0.5411 0.9646 0.2136
C13 C 0.4302(14) 0.9479(12) 0.1245(10)
H15 H 0.4105 0.9987 0.1110
C14 C 0.5077(12) 0.8496(14) 0.1794(8)
H16 H 0.5513 0.8183 0.2106
C15 C 0.1965(18) 1.1039(17) -0.0043(13)
H17 H 0.1534 1.1432 0.0096
C16 C 0.0007(19) 0.6185(14) -0.0488(11)
C17 C -0.1237(19) 0.5685(14) -0.1447(14)
H18 H -0.0770 0.5783 -0.1766
H19 H -0.1901 0.5466 -0.1596
C18 C -0.097(2) 0.5848(17) -0.0817(14)
H20 H -0.1475 0.5736 -0.0525
N9 N 0.3043(10) 0.6752(8) -0.1281(6)
C19 C 0.2672(13) 0.6844(11) -0.1944(9)
H21 H 0.1976 0.7015 -0.2068
C20 C 0.3307(17) 0.6690(12) -0.2477(9)
H22 H 0.3028 0.6767 -0.2941
C21 C 0.4335(14) 0.6428(9) -0.2305(8)
C22 C 0.4703(13) 0.6325(9) -0.1614(9)
H23 H 0.5393 0.6151 -0.1474
C23 C 0.4035(14) 0.6482(10) -0.1125(8)
H24 H 0.4293 0.6394 -0.0659
C24 C 0.5010(14) 0.6246(12) -0.2857(9)
C25 C 0.4905(15) 0.6665(14) -0.3466(10)
H25 H 0.4400 0.7061 -0.3548
C26 C 0.5570(17) 0.6487(17) -0.3958(11)
H26 H 0.5501 0.6776 -0.4368
N10 N 0.6300(18) 0.5920(17) -0.3868(11)
C27 C 0.6413(16) 0.5532(15) -0.3274(13)
H27 H 0.6942 0.5154 -0.3193
C28 C 0.5766(17) 0.5671(13) -0.2763(10)
H28 H 0.5848 0.5373 -0.2358
N11 N 0.2720(11) 0.7048(9) 0.1819(7)
C29 C 0.1968(16) 0.6514(12) 0.1738(9)
H29 H 0.1906 0.6208 0.1338
C30 C 0.1261(15) 0.6378(11) 0.2208(9)
H30 H 0.0750 0.5986 0.2122
C31 C 0.1319(13) 0.6829(9) 0.2809(8)
C32 C 0.2120(13) 0.7353(9) 0.2903(8)
H31 H 0.2213 0.7653 0.3307
C33 C 0.2821(9) 0.7459(5) 0.2408(4)
H32 H 0.3366 0.7825 0.2494
C34 C 0.0567(9) 0.6720(5) 0.3331(4)
C35 C -0.0458(9) 0.6453(5) 0.3096(4)
H33 H -0.0668 0.6339 0.2628
C36 C -0.1159(12) 0.6361(10) 0.3582(8)
H34 H -0.1849 0.6199 0.3425
N12 N -0.0889(11) 0.6496(8) 0.4266(6)
C37 C 0.0090(14) 0.6754(10) 0.4472(8)
H35 H 0.0284 0.6864 0.4942
C38 C 0.0838(13) 0.6867(9) 0.4029(7)
H36 H 0.1518 0.7041 0.4202
Cu3C Cu -0.21763(18) 0.62816(13) 0.50777(11)
N12C N 0.4111(11) 0.8504(8) -0.0734(6)
O6 O 0.065(2) 0.4507(16) 0.8690(13)
O7 O 0.196(2) 0.2817(16) -0.0046(14)
O8? O 0.141(3) 0.300(2) 0.905(2)
loop_
_geom_bond_atom_site_label_1
_geom_bond_atom_site_label_2
_geom_bond_site_symmetry_1
_geom_bond_site_symmetry_2
Cu1 O1 1_555 1_555
Cu2 O1 1_555 1_555
Cu3 O1 1_555 1_555
O1 H1 1_555 1_555
N1 Cu1 1_555 1_555
N2 Cu2 1_555 1_555
N3 Cu1 1_555 1_555
N4 Cu3 1_555 1_555
C1 N2 1_555 1_555
H2 C1 1_555 1_555
C2 C1 1_555 1_555
H3 C2 1_555 1_555
C3 N1 1_555 1_555
H4 C3 1_555 1_555
C4 N4 1_555 1_555
H5 C4 1_555 1_555
C5 C4 1_555 1_555
H6 C5 1_555 1_555
C6 N3 1_555 1_555
H7 C6 1_555 1_555
O2 Cu2 1_555 1_555
O3 Cu1 1_555 1_555
N5 Cu3 1_555 1_555
N6 N5 1_555 1_555
H8 N6 1_555 1_555
C7 N5 1_555 1_555
H9 C7 1_555 1_555
C8 C7 1_555 1_555
H10 C8 1_555 1_555
O4 C11 1_555 1_555
O5 Cu1 1_555 1_555
C9 H11 1_555 1_555
H12 C9 1_555 1_555
C10 C9 1_555 1_555
H13 C10 1_555 1_555
C11 O2 1_555 1_555
N7 Cu3 1_555 1_555
N8 Cu2 1_555 1_555
C12 H14 1_555 1_555
C13 N7 1_555 1_555
H15 C13 1_555 1_555
C14 N8 1_555 1_555
H16 C14 1_555 1_555
C15 N6 1_555 1_555
H17 C15 1_555 1_555
C16 O3 1_555 1_555
C17 H18 1_555 1_555
H19 C17 1_555 1_555
C18 C16 1_555 1_555
H20 C18 1_555 1_555
N9 Cu1 1_555 1_555
C19 N9 1_555 1_555
H21 C19 1_555 1_555
C20 C19 1_555 1_555
H22 C20 1_555 1_555
C21 C20 1_555 1_555
C22 C21 1_555 1_555
H23 C22 1_555 1_555
C23 N9 1_555 1_555
H24 C23 1_555 1_555
C24 C21 1_555 1_555
C25 C24 1_555 1_555
H25 C25 1_555 1_555
C26 C25 1_555 1_555
H26 C26 1_555 1_555
N10 C26 1_555 1_555
C27 N10 1_555 1_555
H27 C27 1_555 1_555
C28 C24 1_555 1_555
H28 C28 1_555 1_555
N11 Cu2 1_555 1_555
C29 N11 1_555 1_555
H29 C29 1_555 1_555
C30 C29 1_555 1_555
H30 C30 1_555 1_555
C31 C30 1_555 1_555
C32 C31 1_555 1_555
H31 C32 1_555 1_555
C33 N11 1_555 1_555
H32 C33 1_555 1_555
C34 C31 1_555 1_555
C35 C34 1_555 1_555
H33 C35 1_555 1_555
C36 C35 1_555 1_555
H34 C36 1_555 1_555
N12 C36 1_555 1_555
C37 N12 1_555 1_555
H35 C37 1_555 1_555
C38 C34 1_555 1_555
H36 C38 1_555 1_555
Cu3C N12 1_555 1_555
N12C Cu3 1_555 1_555
N1 N2 1_555 1_555
N3 N4 1_555 1_555
C2 C3 1_555 1_555
C5 C6 1_555 1_555
C8 C15 1_555 1_555
O5 C16 1_555 1_555
C10 C11 1_555 1_555
N7 N8 1_555 1_555
C12 C13 1_555 1_555
C12 C14 1_555 1_555
C17 C18 1_555 1_555
C22 C23 1_555 1_555
C27 C28 1_555 1_555
C32 C33 1_555 1_555
C37 C38 1_555 1_555

#END
