
#######################################################################
#
#                 Cambridge Crystallographic Data Centre
#                                CCDC 
#
#######################################################################
#
# If this CIF has been generated from an entry in the Cambridge 
# Structural Database, then it will include bibliographic, chemical, 
# crystal, experimental, refinement or atomic coordinate data resulting 
# from the CCDC's data processing and validation procedures.
#
#######################################################################

data_RUGPOA
_symmetry_cell_setting           monoclinic
_symmetry_space_group_name_H-M   'C 2/c'
_symmetry_Int_Tables_number      15
_space_group_name_Hall           '-C 2yn'
loop_
_symmetry_equiv_pos_site_id
_symmetry_equiv_pos_as_xyz
1 x,y,z
2 -x,y,1/2-z
3 1/2+x,1/2+y,z
4 1/2-x,1/2+y,1/2-z
5 -x,-y,-z
6 x,-y,1/2+z
7 1/2-x,1/2-y,-z
8 1/2+x,1/2-y,1/2+z
_cell_length_a                   33.445(4)
_cell_length_b                   18.132(2)
_cell_length_c                   25.069(3)
_cell_angle_alpha                90
_cell_angle_beta                 97.668(2)
_cell_angle_gamma                90
_cell_volume                     15066.5
loop_
_atom_site_label
_atom_site_type_symbol
_atom_site_fract_x
_atom_site_fract_y
_atom_site_fract_z
O1 O 0.16593(8) 0.61915(16) 0.74025(11)
H1 H 0.1658 0.6160 0.7064
H2 H 0.1530 0.6574 0.7475
O2 O 0.29793(6) -0.18782(12) -0.01026(8)
C1 C 0.25779(9) -0.32214(18) 0.11408(12)
H3 H 0.2340 -0.3474 0.1025
C2 C 0.28786(10) -0.35907(18) 0.14558(12)
H4 H 0.2846 -0.4086 0.1536
C3 C 0.29418(9) -0.21560(18) 0.11905(12)
H5 H 0.2965 -0.1661 0.1102
C4 C 0.32547(10) -0.24800(17) 0.15216(12)
H6 H 0.3479 -0.2201 0.1655
C5 C 0.32361(9) -0.32267(18) 0.16585(11)
C6 C 0.35662(9) -0.36171(17) 0.19866(12)
C7 C 0.36409(10) -0.43618(17) 0.19047(12)
H7 H 0.3468 -0.4623 0.1652
C8 C 0.39645(10) -0.47210(18) 0.21888(13)
H8 H 0.4015 -0.5211 0.2112
C9 C 0.38197(10) -0.32558(18) 0.23965(12)
H9 H 0.3777 -0.2759 0.2463
C10 C 0.41317(9) -0.36231(18) 0.27025(13)
H10 H 0.4286 -0.3380 0.2985
C11 C 0.42177(10) -0.43566(18) 0.25910(12)
C12 C 0.48811(9) -0.45106(18) 0.31902(12)
C13 C 0.50208(10) -0.37846(18) 0.31893(13)
H11 H 0.4881 -0.3438 0.2963
C14 C 0.53623(10) -0.35787(18) 0.35186(13)
H12 H 0.5445 -0.3089 0.3515
C15 C 0.51146(10) -0.50165(18) 0.35158(13)
H13 H 0.5033 -0.5507 0.3515
C16 C 0.54618(10) -0.48086(18) 0.38387(13)
H14 H 0.5612 -0.5162 0.4047
C17 C 0.55915(9) -0.40743(18) 0.38590(12)
C18 C 0.59530(9) -0.38176(17) 0.42095(12)
C19 C 0.60022(10) -0.30855(19) 0.43603(13)
H15 H 0.5803 -0.2745 0.4236
C20 C 0.63386(10) -0.28544(19) 0.46891(13)
H16 H 0.6359 -0.2358 0.4783
C21 C 0.62757(10) -0.42870(19) 0.43981(13)
H17 H 0.6265 -0.4783 0.4304
C22 C 0.66051(10) -0.40136(19) 0.47202(13)
H18 H 0.6816 -0.4335 0.4833
C23 C 0.33329(10) 0.25956(19) -0.14743(13)
H19 H 0.3335 0.2090 -0.1413
C24 C 0.30154(10) 0.28919(18) -0.18090(14)
H20 H 0.2812 0.2583 -0.1970
C25 C 0.36218(10) 0.37273(18) -0.13248(13)
H21 H 0.3831 0.4021 -0.1162
C26 C 0.33121(10) 0.40635(18) -0.16467(13)
H22 H 0.3314 0.4573 -0.1689
C27 C 0.29925(9) 0.36483(18) -0.19127(12)
C28 C 0.26601(9) 0.39752(18) -0.22821(12)
C29 C 0.23120(10) 0.35712(18) -0.24580(13)
H23 H 0.2288 0.3097 -0.2325
C30 C 0.20052(10) 0.38479(19) -0.28191(13)
H24 H 0.1779 0.3559 -0.2926
C31 C 0.26788(10) 0.46893(18) -0.24849(13)
H25 H 0.2904 0.4979 -0.2372
C32 C 0.23721(10) 0.49778(18) -0.28496(13)
H26 H 0.2394 0.5455 -0.2978
C33 C 0.20277(10) 0.45555(18) -0.30273(12)
C34 C 0.13949(10) 0.45525(18) -0.36937(12)
C35 C 0.10547(10) 0.49859(18) -0.38566(13)
H27 H 0.1051 0.5477 -0.3750
C36 C 0.07269(10) 0.46918(18) -0.41723(13)
H28 H 0.0505 0.4994 -0.4275
C37 C 0.13927(10) 0.38235(19) -0.38725(13)
H29 H 0.1619 0.3529 -0.3781
C38 C 0.10574(10) 0.35350(18) -0.41845(13)
H30 H 0.1061 0.3044 -0.4292
C39 C 0.07116(9) 0.39628(18) -0.43447(12)
C40 C 0.03528(9) 0.36520(17) -0.46701(12)
C41 C 0.03546(10) 0.29737(19) -0.49387(13)
H31 H 0.0592 0.2700 -0.4912
C42 C 0.00160(10) 0.27091(19) -0.52379(13)
H32 H 0.0035 0.2265 -0.5418
C43 C -0.03491(10) 0.37000(18) -0.50433(14)
H33 H -0.0591 0.3959 -0.5079
C44 C -0.00201(10) 0.40153(19) -0.47396(14)
H34 H -0.0045 0.4473 -0.4580
C45 C -0.05913(11) 0.3388(2) -0.37449(14)
H35 H -0.0830 0.3645 -0.3847
C46 C -0.02832(11) 0.3751(2) -0.34336(14)
H36 H -0.0320 0.4236 -0.3329
C47 C -0.02164(12) 0.2349(2) -0.37582(16)
H37 H -0.0188 0.1864 -0.3867
C48 C 0.01023(12) 0.2678(2) -0.34529(16)
H38 H 0.0339 0.2411 -0.3363
C49 C 0.00831(10) 0.33989(18) -0.32734(12)
C50 C 0.04245(10) 0.37686(18) -0.29446(12)
C51 C 0.07493(10) 0.33554(19) -0.26859(14)
H39 H 0.0746 0.2845 -0.2724
C52 C 0.10724(10) 0.36830(19) -0.23785(14)
H40 H 0.1282 0.3391 -0.2214
C53 C 0.04491(11) 0.45264(19) -0.28751(13)
H41 H 0.0241 0.4821 -0.3041
C54 C 0.07708(11) 0.48565(19) -0.25683(13)
H42 H 0.0775 0.5367 -0.2533
C55 C 0.10910(10) 0.44457(18) -0.23089(13)
C56 C 0.17223(10) 0.45839(19) -0.16459(13)
C57 C 0.20621(10) 0.50350(18) -0.15172(13)
H43 H 0.2069 0.5491 -0.1686
C58 C 0.23831(11) 0.48261(19) -0.11519(13)
H44 H 0.2602 0.5143 -0.1075
C59 C 0.17148(11) 0.39176(19) -0.13709(14)
H45 H 0.1488 0.3618 -0.1430
C60 C 0.20424(11) 0.3700(2) -0.10116(13)
H46 H 0.2034 0.3244 -0.0843
C61 C 0.23869(10) 0.41408(19) -0.08921(13)
C62 C 0.27373(10) 0.3876(2) -0.05284(14)
C63 C 0.30880(12) 0.4285(2) -0.03870(16)
H47 H 0.3101 0.4766 -0.0513
C64 C 0.34147(12) 0.3993(2) -0.00646(15)
H48 H 0.3644 0.4286 0.0012
C65 C 0.27629(14) 0.3144(3) -0.0348(2)
H49 H 0.2551 0.2821 -0.0452
C66 C 0.30977(14) 0.2899(3) -0.0021(2)
H50 H 0.3101 0.2412 0.0095
C67 C 0.36837(9) 0.14726(17) -0.01379(12)
C68 C 0.34585(9) 0.07510(17) -0.01073(12)
C69 C 0.30828(9) 0.06301(17) -0.04003(12)
C70 C 0.28722(9) -0.00168(18) -0.03505(12)
C71 C 0.36131(9) 0.01836(19) 0.02287(12)
C72 C 0.34106(10) -0.04658(18) 0.02647(12)
C73 C 0.30314(9) -0.05834(17) -0.00222(12)
C74 C 0.28081(9) -0.13070(17) 0.00294(11)
C75 C 0.17834(10) -0.1570(2) 0.12940(13)
C76 C 0.16583(10) -0.15800(17) 0.18538(13)
C77 C 0.12622(10) -0.15248(18) 0.19480(13)
C78 C 0.11579(10) -0.15378(17) 0.24578(13)
C79 C 0.19421(10) -0.16532(17) 0.23061(13)
C80 C 0.18383(10) -0.16798(18) 0.28168(12)
C81 C 0.14396(10) -0.16216(17) 0.29098(12)
C82 C 0.13163(11) -0.1672(2) 0.34719(13)
C83 C 0.43794(10) 0.18525(18) -0.17710(13)
C84 C 0.46987(10) 0.17688(16) -0.21491(12)
C85 C 0.46022(9) 0.17453(17) -0.27062(13)
C86 C 0.51046(10) 0.17469(17) -0.19568(12)
C87 C 0.44472(9) 0.37385(17) -0.00637(13)
C88 C 0.47373(10) 0.43876(17) -0.00378(12)
C89 C 0.46252(9) 0.50408(18) -0.02893(13)
C90 C 0.51190(10) 0.43582(18) 0.02523(13)
F1 F 0.39803(6) 0.02605(11) 0.05203(8)
F2 F 0.35824(6) -0.09988(10) 0.05941(8)
F3 F 0.29122(6) 0.11600(10) -0.07346(7)
F4 F 0.25046(5) -0.00917(11) -0.06422(8)
F5 F 0.23387(6) -0.17018(11) 0.22456(8)
F6 F 0.21340(6) -0.17534(12) 0.32394(7)
F7 F 0.09652(6) -0.14501(12) 0.15267(7)
F8 F 0.07607(5) -0.14740(10) 0.25161(8)
F9 F 0.52485(6) 0.37307(11) 0.05067(9)
F10 F 0.42534(6) 0.51097(11) -0.05697(9)
F11 F 0.52280(6) 0.17202(11) -0.14211(7)
F12 F 0.42144(5) 0.17354(11) -0.29343(7)
H51 H 0.4526(13) -0.5302(11) 0.2824(16)
N1 N 0.26056(8) -0.25154(14) 0.09895(10)
N2 N 0.66404(8) -0.33075(14) 0.48819(10)
N3 N 0.45322(9) -0.47580(15) 0.28761(12)
N4 N 0.36416(8) 0.29988(14) -0.12304(10)
N5 N -0.03440(8) 0.30467(14) -0.52904(10)
N6 N 0.17194(8) 0.48898(16) -0.33776(11)
H52 H 0.1848 0.5145 -0.3612
N7 N 0.34239(9) 0.33242(19) 0.01433(12)
N8 N -0.05701(8) 0.26933(15) -0.39103(10)
N9 N 0.14105(9) 0.48400(15) -0.20190(11)
H53 H 0.1505 0.4919 -0.2334
O3 O 0.37713(6) 0.16477(12) -0.05925(8)
O4 O 0.37676(7) 0.18153(13) 0.02921(9)
O5 O 0.24730(6) -0.12566(12) 0.01996(8)
O6 O 0.17718(8) -0.21766(14) 0.10593(9)
O7 O 0.1972(11) -0.111(2) 0.1146(4)
O8 O 0.11324(11) -0.11678(17) 0.36440(11)
O9 O 0.13913(9) -0.22666(13) 0.37157(9)
O10 O 0.40662(7) 0.14858(13) -0.18618(10)
O11 O 0.44684(7) 0.23120(13) -0.13995(8)
O12 O 0.43570(7) 0.34533(12) -0.05167(9)
O13 O 0.43265(7) 0.35677(12) 0.03690(9)
Zn1 Zn 0.211747(10) -0.207566(19) 0.044349(13)
Zn2 Zn 0.392462(11) 0.28426(2) 0.063887(14)
Zn3 Zn 0.414707(10) 0.245243(19) -0.079350(13)
C83A C 0.56206(10) 0.18525(18) -0.32290(13)
C84A C 0.53013(10) 0.17688(16) -0.28509(12)
C85A C 0.53978(9) 0.17453(17) -0.22938(13)
C86A C 0.48954(10) 0.17469(17) -0.30432(12)
F11A F 0.47720(6) 0.17202(11) -0.35789(7)
F12A F 0.57856(5) 0.17354(11) -0.20657(7)
O10A O 0.59338(7) 0.14858(13) -0.31382(10)
O11A O 0.55316(7) 0.23120(13) -0.36005(8)
C87D C 0.55528(9) 0.62615(17) 0.00637(13)
C88D C 0.52627(10) 0.56124(17) 0.00378(12)
C89D C 0.53748(9) 0.49592(18) 0.02893(13)
C90D C 0.48810(10) 0.56418(18) -0.02523(13)
F9D F 0.47515(6) 0.62693(11) -0.05067(9)
F10D F 0.57466(6) 0.48903(11) 0.05697(9)
O12D O 0.56430(7) 0.65467(12) 0.05167(9)
O13D O 0.56735(7) 0.64323(12) -0.03690(9)
O2A O 0.70207(6) -0.18782(12) -0.48974(8)
C1A C 0.74221(9) -0.32214(18) -0.61408(12)
H3A H 0.7660 -0.3474 -0.6025
C2A C 0.71214(10) -0.35907(18) -0.64558(12)
H4A H 0.7154 -0.4086 -0.6536
C3A C 0.70582(9) -0.21560(18) -0.61905(12)
H5A H 0.7035 -0.1661 -0.6102
C4A C 0.67453(10) -0.24800(17) -0.65216(12)
H6A H 0.6521 -0.2201 -0.6655
C5A C 0.67639(9) -0.32267(18) -0.66585(11)
C6A C 0.64338(9) -0.36171(17) -0.69866(12)
C7A C 0.63591(10) -0.43618(17) -0.69047(12)
H7A H 0.6532 -0.4623 -0.6652
C8A C 0.60355(10) -0.47210(18) -0.71888(13)
H8A H 0.5985 -0.5211 -0.7112
C9A C 0.61803(10) -0.32558(18) -0.73965(12)
H9A H 0.6223 -0.2759 -0.7463
C10A C 0.58683(9) -0.36231(18) -0.77025(13)
H10A H 0.5714 -0.3380 -0.7985
C11A C 0.57823(10) -0.43566(18) -0.75910(12)
C12A C 0.51189(9) -0.45106(18) -0.81902(12)
C13A C 0.49792(10) -0.37846(18) -0.81893(13)
H11A H 0.5119 -0.3438 -0.7963
C14A C 0.46377(10) -0.35787(18) -0.85186(13)
H12A H 0.4555 -0.3089 -0.8515
C15A C 0.48854(10) -0.50165(18) -0.85158(13)
H13A H 0.4967 -0.5507 -0.8515
C16A C 0.45382(10) -0.48086(18) -0.88387(13)
H14A H 0.4388 -0.5162 -0.9047
C17A C 0.44085(9) -0.40743(18) -0.88590(12)
C18A C 0.40470(9) -0.38176(17) -0.92095(12)
C19A C 0.39978(10) -0.30855(19) -0.93603(13)
H15A H 0.4197 -0.2745 -0.9236
C20A C 0.36614(10) -0.28544(19) -0.96891(13)
H16A H 0.3641 -0.2358 -0.9783
C21A C 0.37243(10) -0.42870(19) -0.93981(13)
H17A H 0.3735 -0.4783 -0.9304
C22A C 0.33949(10) -0.40136(19) -0.97202(13)
H18A H 0.3184 -0.4335 -0.9833
C23A C 0.66671(10) 0.25956(19) -0.35257(13)
H19A H 0.6665 0.2090 -0.3587
C24A C 0.69846(10) 0.28919(18) -0.31910(14)
H20A H 0.7188 0.2583 -0.3030
C25A C 0.63782(10) 0.37273(18) -0.36752(13)
H21A H 0.6169 0.4021 -0.3838
C26A C 0.66879(10) 0.40635(18) -0.33533(13)
H22A H 0.6686 0.4573 -0.3311
C27A C 0.70075(9) 0.36483(18) -0.30873(12)
C28A C 0.73399(9) 0.39752(18) -0.27179(12)
C29A C 0.76880(10) 0.35712(18) -0.25420(13)
H23A H 0.7712 0.3097 -0.2675
C30A C 0.79948(10) 0.38479(19) -0.21809(13)
H24A H 0.8221 0.3559 -0.2074
C31A C 0.73212(10) 0.46893(18) -0.25151(13)
H25A H 0.7096 0.4979 -0.2628
C32A C 0.76279(10) 0.49778(18) -0.21504(13)
H26A H 0.7606 0.5455 -0.2022
C33A C 0.79723(10) 0.45555(18) -0.19727(12)
C34A C 0.86051(10) 0.45525(18) -0.13063(12)
C35A C 0.89453(10) 0.49859(18) -0.11434(13)
H27A H 0.8949 0.5477 -0.1250
C36A C 0.92731(10) 0.46918(18) -0.08277(13)
H28A H 0.9495 0.4994 -0.0725
C37A C 0.86073(10) 0.38235(19) -0.11275(13)
H29A H 0.8381 0.3529 -0.1219
C38A C 0.89426(10) 0.35350(18) -0.08155(13)
H30A H 0.8939 0.3044 -0.0708
C39A C 0.92884(9) 0.39628(18) -0.06553(12)
C40A C 0.96472(9) 0.36520(17) -0.03299(12)
C41A C 0.96454(10) 0.29737(19) -0.00613(13)
H31A H 0.9408 0.2700 -0.0088
C42A C 0.99840(10) 0.27091(19) 0.02379(13)
H32A H 0.9965 0.2265 0.0418
C43A C 1.03491(10) 0.37000(18) 0.00433(14)
H33A H 1.0591 0.3959 0.0079
C44A C 1.00201(10) 0.40153(19) -0.02604(14)
H34A H 1.0045 0.4473 -0.0420
C45A C 1.05913(11) 0.3388(2) -0.12551(14)
H35A H 1.0830 0.3645 -0.1153
C46A C 1.02832(11) 0.3751(2) -0.15664(14)
H36A H 1.0320 0.4236 -0.1671
C47A C 1.02164(12) 0.2349(2) -0.12418(16)
H37A H 1.0188 0.1864 -0.1133
C48A C 0.98977(12) 0.2678(2) -0.15471(16)
H38A H 0.9661 0.2411 -0.1637
C49A C 0.99169(10) 0.33989(18) -0.17266(12)
C50A C 0.95755(10) 0.37686(18) -0.20554(12)
C51A C 0.92507(10) 0.33554(19) -0.23141(14)
H39A H 0.9254 0.2845 -0.2276
C52A C 0.89276(10) 0.36830(19) -0.26215(14)
H40A H 0.8718 0.3391 -0.2786
C53A C 0.95509(11) 0.45264(19) -0.21249(13)
H41A H 0.9759 0.4821 -0.1959
C54A C 0.92292(11) 0.48565(19) -0.24317(13)
H42A H 0.9225 0.5367 -0.2467
C55A C 0.89090(10) 0.44457(18) -0.26911(13)
C56A C 0.82777(10) 0.45839(19) -0.33541(13)
C57A C 0.79379(10) 0.50350(18) -0.34828(13)
H43A H 0.7931 0.5491 -0.3314
C58A C 0.76169(11) 0.48261(19) -0.38481(13)
H44A H 0.7398 0.5143 -0.3925
C59A C 0.82852(11) 0.39176(19) -0.36291(14)
H45A H 0.8512 0.3618 -0.3570
C60A C 0.79576(11) 0.3700(2) -0.39884(13)
H46A H 0.7966 0.3244 -0.4157
C61A C 0.76131(10) 0.41408(19) -0.41079(13)
C62A C 0.72627(10) 0.3876(2) -0.44716(14)
C63A C 0.69120(12) 0.4285(2) -0.46130(16)
H47A H 0.6899 0.4766 -0.4487
C64A C 0.65853(12) 0.3993(2) -0.49354(15)
H48A H 0.6356 0.4286 -0.5012
C65A C 0.72371(14) 0.3144(3) -0.4652(2)
H49A H 0.7449 0.2821 -0.4548
C66A C 0.69023(14) 0.2899(3) -0.4979(2)
H50A H 0.6899 0.2412 -0.5095
C67A C 0.63163(9) 0.14726(17) -0.48621(12)
C68A C 0.65415(9) 0.07510(17) -0.48927(12)
C69A C 0.69172(9) 0.06301(17) -0.45997(12)
C70A C 0.71278(9) -0.00168(18) -0.46495(12)
C71A C 0.63869(9) 0.01836(19) -0.52287(12)
C72A C 0.65894(10) -0.04658(18) -0.52647(12)
C73A C 0.69686(9) -0.05834(17) -0.49778(12)
C74A C 0.71919(9) -0.13070(17) -0.50294(11)
C75A C 0.82166(10) -0.1570(2) -0.62940(13)
C76A C 0.83417(10) -0.15800(17) -0.68538(13)
C77A C 0.87378(10) -0.15248(18) -0.69480(13)
C78A C 0.88421(10) -0.15378(17) -0.74578(13)
C79A C 0.80579(10) -0.16532(17) -0.73061(13)
C80A C 0.81617(10) -0.16798(18) -0.78168(12)
C81A C 0.85604(10) -0.16216(17) -0.79098(12)
C82A C 0.86837(11) -0.1672(2) -0.84719(13)
F1A F 0.60197(6) 0.02605(11) -0.55203(8)
F2A F 0.64176(6) -0.09988(10) -0.55941(8)
F3A F 0.70878(6) 0.11600(10) -0.42654(7)
F4A F 0.74954(5) -0.00917(11) -0.43578(8)
F5A F 0.76613(6) -0.17018(11) -0.72456(8)
F6A F 0.78660(6) -0.17534(12) -0.82394(7)
F7A F 0.90348(6) -0.14501(12) -0.65267(7)
F8A F 0.92393(5) -0.14740(10) -0.75161(8)
H51A H 0.5474(13) -0.5302(11) -0.7824(16)
N1A N 0.73944(8) -0.25154(14) -0.59895(10)
N2A N 0.33596(8) -0.33075(14) -0.98819(10)
N3A N 0.54678(9) -0.47580(15) -0.78761(12)
N4A N 0.63584(8) 0.29988(14) -0.37696(10)
N5A N 1.03440(8) 0.30467(14) 0.02904(10)
N6A N 0.82806(8) 0.48898(16) -0.16224(11)
H52A H 0.8152 0.5145 -0.1388
N7A N 0.65761(9) 0.33242(19) -0.51433(12)
N8A N 1.05701(8) 0.26933(15) -0.10897(10)
N9A N 0.85895(9) 0.48400(15) -0.29810(11)
H53A H 0.8495 0.4919 -0.2666
O3A O 0.62287(6) 0.16477(12) -0.44075(8)
O4A O 0.62324(7) 0.18153(13) -0.52921(9)
O5A O 0.75270(6) -0.12566(12) -0.51996(8)
O6A O 0.82282(8) -0.21766(14) -0.60593(9)
O7A O 0.8028(11) -0.111(2) -0.6146(4)
O8A O 0.88676(11) -0.11678(17) -0.86440(11)
O9A O 0.86087(9) -0.22666(13) -0.87157(9)
Zn1A Zn 0.788253(10) -0.207566(19) -0.544349(13)
Zn2A Zn 0.607538(11) 0.28426(2) -0.563887(14)
Zn3A Zn 0.585293(10) 0.245243(19) -0.420650(13)
O2F O 0.20207(6) -0.31218(12) 0.01026(8)
O2G O 0.79793(6) -0.31218(12) -0.51026(8)
N2F N 0.83596(8) -0.16925(14) -0.48819(10)
N2G N 0.16404(8) -0.16925(14) -0.01181(10)
N5F N 0.53440(8) 0.19533(14) -0.47096(10)
N5G N 0.46560(8) 0.19533(14) -0.02904(10)
N8F N 0.55701(8) 0.23067(15) -0.60897(10)
N8G N 0.44299(8) 0.23067(15) 0.10897(10)
O8B O 0.61324(11) 0.38322(17) -0.63560(11)
O8C O 0.38676(11) 0.38322(17) 0.13560(11)
O9B O 0.63913(9) 0.27334(13) -0.62843(9)
O9C O 0.36087(9) 0.27334(13) 0.12843(9)
O12A O 0.56430(7) 0.34533(12) -0.44833(9)
O13A O 0.56735(7) 0.35677(12) -0.53690(9)
Zn1F Zn 0.288253(10) -0.292434(19) -1.044349(13)
Zn1F_2 Zn 0.288253(10) -0.292434(19) -0.044349(13)
Zn1G Zn 0.711747(10) -0.292434(19) -0.455651(13)
Zn1G_2 Zn 0.711747(10) -0.292434(19) 0.544349(13)
Zn2B Zn 0.892462(11) -0.21574(2) -0.936113(14)
Zn2C Zn 0.107538(11) -0.21574(2) 0.436113(14)
Zn2D Zn 0.607538(11) 0.71574(2) -0.063887(14)
Zn2F Zn 1.107538(11) 0.21574(2) -0.063887(14)
Zn2G Zn -0.107538(11) 0.21574(2) -0.436113(14)
Zn3D Zn 0.585293(10) 0.754757(19) 0.079350(13)
Zn3F Zn 1.085293(10) 0.254757(19) 0.079350(13)
Zn3G Zn -0.085293(10) 0.254757(19) -0.579350(13)
O14? O 0.1810(14) -0.0872(13) 0.1099(6)
loop_
_geom_bond_atom_site_label_1
_geom_bond_atom_site_label_2
_geom_bond_site_symmetry_1
_geom_bond_site_symmetry_2
O1 H1 1_555 1_555
H2 O1 1_555 1_555
O2 C74 1_555 1_555
C1 H3 1_555 1_555
C2 C1 1_555 1_555
H4 C2 1_555 1_555
C3 H5 1_555 1_555
C4 C3 1_555 1_555
H6 C4 1_555 1_555
C5 C2 1_555 1_555
C6 C5 1_555 1_555
C7 C6 1_555 1_555
H7 C7 1_555 1_555
C8 C7 1_555 1_555
H8 C8 1_555 1_555
C9 C6 1_555 1_555
H9 C9 1_555 1_555
C10 C9 1_555 1_555
H10 C10 1_555 1_555
C11 C8 1_555 1_555
C12 C13 1_555 1_555
C13 H11 1_555 1_555
C14 C13 1_555 1_555
H12 C14 1_555 1_555
C15 C12 1_555 1_555
H13 C15 1_555 1_555
C16 C15 1_555 1_555
H14 C16 1_555 1_555
C17 C14 1_555 1_555
C18 C17 1_555 1_555
C19 C18 1_555 1_555
H15 C19 1_555 1_555
C20 C19 1_555 1_555
H16 C20 1_555 1_555
C21 C18 1_555 1_555
H17 C21 1_555 1_555
C22 C21 1_555 1_555
H18 C22 1_555 1_555
C23 H19 1_555 1_555
C24 C23 1_555 1_555
H20 C24 1_555 1_555
C25 H21 1_555 1_555
C26 C25 1_555 1_555
H22 C26 1_555 1_555
C27 C24 1_555 1_555
C28 C27 1_555 1_555
C29 C28 1_555 1_555
H23 C29 1_555 1_555
C30 C29 1_555 1_555
H24 C30 1_555 1_555
C31 C28 1_555 1_555
H25 C31 1_555 1_555
C32 C31 1_555 1_555
H26 C32 1_555 1_555
C33 C30 1_555 1_555
C34 C35 1_555 1_555
C35 H27 1_555 1_555
C36 C35 1_555 1_555
H28 C36 1_555 1_555
C37 C34 1_555 1_555
H29 C37 1_555 1_555
C38 C37 1_555 1_555
H30 C38 1_555 1_555
C39 C36 1_555 1_555
C40 C39 1_555 1_555
C41 C40 1_555 1_555
H31 C41 1_555 1_555
C42 C41 1_555 1_555
H32 C42 1_555 1_555
C43 H33 1_555 1_555
C44 C40 1_555 1_555
H34 C44 1_555 1_555
C45 H35 1_555 1_555
C46 C45 1_555 1_555
H36 C46 1_555 1_555
C47 H37 1_555 1_555
C48 C47 1_555 1_555
H38 C48 1_555 1_555
C49 C46 1_555 1_555
C50 C49 1_555 1_555
C51 C50 1_555 1_555
H39 C51 1_555 1_555
C52 C51 1_555 1_555
H40 C52 1_555 1_555
C53 C50 1_555 1_555
H41 C53 1_555 1_555
C54 C53 1_555 1_555
H42 C54 1_555 1_555
C55 C52 1_555 1_555
C56 C57 1_555 1_555
C57 H43 1_555 1_555
C58 C57 1_555 1_555
H44 C58 1_555 1_555
C59 C56 1_555 1_555
H45 C59 1_555 1_555
C60 C59 1_555 1_555
H46 C60 1_555 1_555
C61 C58 1_555 1_555
C62 C61 1_555 1_555
C63 C62 1_555 1_555
H47 C63 1_555 1_555
C64 C63 1_555 1_555
H48 C64 1_555 1_555
C65 C62 1_555 1_555
H49 C65 1_555 1_555
C66 C65 1_555 1_555
H50 C66 1_555 1_555
C67 C68 1_555 1_555
C68 C69 1_555 1_555
C69 C70 1_555 1_555
C70 C73 1_555 1_555
C71 C68 1_555 1_555
C72 C71 1_555 1_555
C73 C72 1_555 1_555
C74 C73 1_555 1_555
C75 C76 1_555 1_555
C76 C77 1_555 1_555
C77 C78 1_555 1_555
C78 C81 1_555 1_555
C79 C76 1_555 1_555
C80 C79 1_555 1_555
C81 C80 1_555 1_555
C82 C81 1_555 1_555
C83 C84 1_555 1_555
C84 C85 1_555 1_555
C85 F12 1_555 1_555
C86 C84 1_555 1_555
C87 C88 1_555 1_555
C88 C89 1_555 1_555
C89 F10 1_555 1_555
C90 C88 1_555 1_555
F1 C71 1_555 1_555
F2 C72 1_555 1_555
F3 C69 1_555 1_555
F4 C70 1_555 1_555
F5 C79 1_555 1_555
F6 C80 1_555 1_555
F7 C77 1_555 1_555
F8 C78 1_555 1_555
F9 C90 1_555 1_555
F11 C86 1_555 1_555
H51 N3 1_555 1_555
N1 C1 1_555 1_555
N2 C20 1_555 1_555
N3 C11 1_555 1_555
N4 C23 1_555 1_555
N5 C42 1_555 1_555
N6 C33 1_555 1_555
H52 N6 1_555 1_555
N7 C64 1_555 1_555
N8 C45 1_555 1_555
N9 C55 1_555 1_555
H53 N9 1_555 1_555
O3 C67 1_555 1_555
O4 C67 1_555 1_555
O5 C74 1_555 1_555
O6 C75 1_555 1_555
O7 C75 1_555 1_555
O8 C82 1_555 1_555
O9 C82 1_555 1_555
O10 C83 1_555 1_555
O11 C83 1_555 1_555
O12 C87 1_555 1_555
O13 C87 1_555 1_555
Zn1 N1 1_555 1_555
Zn2 N7 1_555 1_555
Zn3 N4 1_555 1_555
C83A C84A 1_555 1_555
C84A C85A 1_555 1_555
C85A C86 1_555 1_555
C86A C85 1_555 1_555
F11A C86A 1_555 1_555
F12A C85A 1_555 1_555
O10A C83A 1_555 1_555
O11A C83A 1_555 1_555
C87D C88D 1_555 1_555
C88D C89D 1_555 1_555
C89D C90 1_555 1_555
C90D C89 1_555 1_555
F9D C90D 1_555 1_555
F10D C89D 1_555 1_555
O12D C87D 1_555 1_555
O13D C87D 1_555 1_555
O2A C74A 1_555 1_555
C1A H3A 1_555 1_555
C2A C1A 1_555 1_555
H4A C2A 1_555 1_555
C3A H5A 1_555 1_555
C4A C3A 1_555 1_555
H6A C4A 1_555 1_555
C5A C2A 1_555 1_555
C6A C5A 1_555 1_555
C7A C6A 1_555 1_555
H7A C7A 1_555 1_555
C8A C7A 1_555 1_555
H8A C8A 1_555 1_555
C9A C6A 1_555 1_555
H9A C9A 1_555 1_555
C10A C9A 1_555 1_555
H10A C10A 1_555 1_555
C11A C8A 1_555 1_555
C12A C13A 1_555 1_555
C13A H11A 1_555 1_555
C14A C13A 1_555 1_555
H12A C14A 1_555 1_555
C15A C12A 1_555 1_555
H13A C15A 1_555 1_555
C16A C15A 1_555 1_555
H14A C16A 1_555 1_555
C17A C14A 1_555 1_555
C18A C17A 1_555 1_555
C19A C18A 1_555 1_555
H15A C19A 1_555 1_555
C20A C19A 1_555 1_555
H16A C20A 1_555 1_555
C21A C18A 1_555 1_555
H17A C21A 1_555 1_555
C22A C21A 1_555 1_555
H18A C22A 1_555 1_555
C23A H19A 1_555 1_555
C24A C23A 1_555 1_555
H20A C24A 1_555 1_555
C25A H21A 1_555 1_555
C26A C25A 1_555 1_555
H22A C26A 1_555 1_555
C27A C24A 1_555 1_555
C28A C27A 1_555 1_555
C29A C28A 1_555 1_555
H23A C29A 1_555 1_555
C30A C29A 1_555 1_555
H24A C30A 1_555 1_555
C31A C28A 1_555 1_555
H25A C31A 1_555 1_555
C32A C31A 1_555 1_555
H26A C32A 1_555 1_555
C33A C30A 1_555 1_555
C34A C35A 1_555 1_555
C35A H27A 1_555 1_555
C36A C35A 1_555 1_555
H28A C36A 1_555 1_555
C37A C34A 1_555 1_555
H29A C37A 1_555 1_555
C38A C37A 1_555 1_555
H30A C38A 1_555 1_555
C39A C36A 1_555 1_555
C40A C39A 1_555 1_555
C41A C40A 1_555 1_555
H31A C41A 1_555 1_555
C42A C41A 1_555 1_555
H32A C42A 1_555 1_555
C43A H33A 1_555 1_555
C44A C40A 1_555 1_555
H34A C44A 1_555 1_555
C45A H35A 1_555 1_555
C46A C45A 1_555 1_555
H36A C46A 1_555 1_555
C47A H37A 1_555 1_555
C48A C47A 1_555 1_555
H38A C48A 1_555 1_555
C49A C46A 1_555 1_555
C50A C49A 1_555 1_555
C51A C50A 1_555 1_555
H39A C51A 1_555 1_555
C52A C51A 1_555 1_555
H40A C52A 1_555 1_555
C53A C50A 1_555 1_555
H41A C53A 1_555 1_555
C54A C53A 1_555 1_555
H42A C54A 1_555 1_555
C55A C52A 1_555 1_555
C56A C57A 1_555 1_555
C57A H43A 1_555 1_555
C58A C57A 1_555 1_555
H44A C58A 1_555 1_555
C59A C56A 1_555 1_555
H45A C59A 1_555 1_555
C60A C59A 1_555 1_555
H46A C60A 1_555 1_555
C61A C58A 1_555 1_555
C62A C61A 1_555 1_555
C63A C62A 1_555 1_555
H47A C63A 1_555 1_555
C64A C63A 1_555 1_555
H48A C64A 1_555 1_555
C65A C62A 1_555 1_555
H49A C65A 1_555 1_555
C66A C65A 1_555 1_555
H50A C66A 1_555 1_555
C67A C68A 1_555 1_555
C68A C69A 1_555 1_555
C69A C70A 1_555 1_555
C70A C73A 1_555 1_555
C71A C68A 1_555 1_555
C72A C71A 1_555 1_555
C73A C72A 1_555 1_555
C74A C73A 1_555 1_555
C75A C76A 1_555 1_555
C76A C77A 1_555 1_555
C77A C78A 1_555 1_555
C78A C81A 1_555 1_555
C79A C76A 1_555 1_555
C80A C79A 1_555 1_555
C81A C80A 1_555 1_555
C82A C81A 1_555 1_555
F1A C71A 1_555 1_555
F2A C72A 1_555 1_555
F3A C69A 1_555 1_555
F4A C70A 1_555 1_555
F5A C79A 1_555 1_555
F6A C80A 1_555 1_555
F7A C77A 1_555 1_555
F8A C78A 1_555 1_555
H51A N3A 1_555 1_555
N1A C1A 1_555 1_555
N2A C20A 1_555 1_555
N3A C11A 1_555 1_555
N4A C23A 1_555 1_555
N5A C42A 1_555 1_555
N6A C33A 1_555 1_555
H52A N6A 1_555 1_555
N7A C64A 1_555 1_555
N8A C45A 1_555 1_555
N9A C55A 1_555 1_555
H53A N9A 1_555 1_555
O3A C67A 1_555 1_555
O4A C67A 1_555 1_555
O5A C74A 1_555 1_555
O6A C75A 1_555 1_555
O7A C75A 1_555 1_555
O8A C82A 1_555 1_555
O9A C82A 1_555 1_555
Zn1A N1A 1_555 1_555
Zn2A N7A 1_555 1_555
Zn3A O11A 1_555 1_555
O2F Zn1 1_555 1_555
O2G Zn1A 1_555 1_555
N2F Zn1A 1_555 1_555
N2G Zn1 1_555 1_555
N5F Zn3A 1_555 1_555
N5G Zn3 1_555 1_555
N8F Zn2A 1_555 1_555
N8G Zn2 1_555 1_555
O8B Zn2A 1_555 1_555
O8C Zn2 1_555 1_555
O9B Zn2A 1_555 1_555
O9C Zn2 1_555 1_555
O12A Zn3A 1_555 1_555
O13A Zn2A 1_555 1_555
Zn1F N2A 1_555 1_555
Zn1F_2 O2 1_555 1_555
Zn1G O2A 1_555 1_555
Zn1G_2 N2 1_555 1_555
Zn2B O8A 1_555 1_555
Zn2C O8 1_555 1_555
Zn2D O13D 1_555 1_555
Zn2F N8A 1_555 1_555
Zn2G N8 1_555 1_555
Zn3D O12D 1_555 1_555
Zn3F N5A 1_555 1_555
Zn3G N5 1_555 1_555
C3 N1 1_555 1_555
C4 C5 1_555 1_555
C10 C11 1_555 1_555
C12 N3 1_555 1_555
C16 C17 1_555 1_555
C22 N2 1_555 1_555
C25 N4 1_555 1_555
C26 C27 1_555 1_555
C32 C33 1_555 1_555
C34 N6 1_555 1_555
C38 C39 1_555 1_555
C43 C44 1_555 1_555
C43 N5 1_555 1_555
C47 N8 1_555 1_555
C48 C49 1_555 1_555
C54 C55 1_555 1_555
C56 N9 1_555 1_555
C60 C61 1_555 1_555
C66 N7 1_555 1_555
O3 Zn3 1_555 1_555
O4 Zn2 1_555 1_555
O5 Zn1 1_555 1_555
O6 Zn1 1_555 1_555
O7 Zn1 1_555 1_555
O9 Zn2C 1_555 1_555
O11 Zn3 1_555 1_555
O12 Zn3 1_555 1_555
O13 Zn2 1_555 1_555
C84A C86A 1_555 1_555
C88D C90D 1_555 1_555
C3A N1A 1_555 1_555
C4A C5A 1_555 1_555
C10A C11A 1_555 1_555
C12A N3A 1_555 1_555
C16A C17A 1_555 1_555
C22A N2A 1_555 1_555
C25A N4A 1_555 1_555
C26A C27A 1_555 1_555
C32A C33A 1_555 1_555
C34A N6A 1_555 1_555
C38A C39A 1_555 1_555
C43A C44A 1_555 1_555
C43A N5A 1_555 1_555
C47A N8A 1_555 1_555
C48A C49A 1_555 1_555
C54A C55A 1_555 1_555
C56A N9A 1_555 1_555
C60A C61A 1_555 1_555
C66A N7A 1_555 1_555
N4A Zn3A 1_555 1_555
O3A Zn3A 1_555 1_555
O4A Zn2A 1_555 1_555
O5A Zn1A 1_555 1_555
O6A Zn1A 1_555 1_555
O7A Zn1A 1_555 1_555
O9A Zn2B 1_555 1_555

#END
