
#######################################################################
#
#                 Cambridge Crystallographic Data Centre
#                                CCDC 
#
#######################################################################
#
# If this CIF has been generated from an entry in the Cambridge 
# Structural Database, then it will include bibliographic, chemical, 
# crystal, experimental, refinement or atomic coordinate data resulting 
# from the CCDC's data processing and validation procedures.
#
#######################################################################

data_RUGPIU
_symmetry_cell_setting           triclinic
_symmetry_space_group_name_H-M   'P -1'
_symmetry_Int_Tables_number      2
_space_group_name_Hall           '-P 1'
loop_
_symmetry_equiv_pos_site_id
_symmetry_equiv_pos_as_xyz
1 x,y,z
2 -x,-y,-z
_cell_length_a                   9.0216(7)
_cell_length_b                   12.2722(9)
_cell_length_c                   12.8688(10)
_cell_angle_alpha                83.2410(10)
_cell_angle_beta                 70.7710(10)
_cell_angle_gamma                75.626(2)
_cell_volume                     1302.16
loop_
_atom_site_label
_atom_site_type_symbol
_atom_site_fract_x
_atom_site_fract_y
_atom_site_fract_z
C1 C 0.4755(3) -0.0039(2) 0.1980(2)
H1 H 0.5352 -0.0298 0.1281
C2 C 0.5487(3) 0.0437(2) 0.25365(19)
H2 H 0.6556 0.0486 0.2215
C3 C 0.4622(3) 0.08499(19) 0.35888(19)
C4 C 0.3062(3) 0.0695(2) 0.4011(2)
H3 H 0.2440 0.0931 0.4715
C5 C 0.2420(3) 0.0202(2) 0.3416(2)
H4 H 0.1372 0.0106 0.3734
C6 C 0.5337(3) 0.14194(19) 0.41954(19)
C7 C 0.6948(3) 0.1431(2) 0.3854(2)
H5 H 0.7621 0.1080 0.3209
C8 C 0.7592(3) 0.1952(2) 0.4447(2)
H6 H 0.8684 0.1950 0.4194
C9 C 0.6615(3) 0.2479(2) 0.5422(2)
C10 C 0.4989(3) 0.2487(2) 0.5757(2)
H7 H 0.4309 0.2846 0.6396
C11 C 0.4368(3) 0.1971(2) 0.5156(2)
H8 H 0.3271 0.1990 0.5398
C12 C 0.6624(3) 0.3827(2) 0.6731(2)
C13 C 0.7293(3) 0.3926(2) 0.7536(2)
H9 H 0.8180 0.3384 0.7614
C14 C 0.6646(3) 0.4824(2) 0.8220(2)
H10 H 0.7112 0.4874 0.8753
C15 C 0.5333(3) 0.5651(2) 0.8141(2)
C16 C 0.4691(3) 0.5562(2) 0.7312(2)
H11 H 0.3823 0.6116 0.7223
C17 C 0.5321(3) 0.4663(2) 0.6618(2)
H12 H 0.4869 0.4619 0.6074
C18 C 0.4610(3) 0.6597(2) 0.8903(2)
C19 C 0.5389(3) 0.6838(2) 0.9585(2)
H13 H 0.6408 0.6413 0.9560
C20 C 0.4658(3) 0.7703(2) 1.0297(2)
H14 H 0.5210 0.7843 1.0745
C21 C 0.2454(3) 0.8124(2) 0.9723(2)
H15 H 0.1440 0.8566 0.9760
C22 C 0.3107(3) 0.7271(2) 0.8998(2)
H16 H 0.2527 0.7146 0.8562
C23 C 0.1101(3) 0.1781(2) 0.0976(2)
C24 C 0.1316(3) 0.3062(2) -0.0724(2)
H17 H 0.1842 0.2439 -0.1156
C25 C 0.0828(3) 0.2917(2) 0.0437(2)
C26 C 0.0070(3) 0.3846(2) 0.1068(2)
H18 H -0.0244 0.3752 0.1832
C27 C -0.0242(3) 0.4939(2) 0.0584(2)
C28 C -0.1027(4) 0.5901(2) 0.1217(2)
H19 H -0.1352 0.5824 0.1982
C29 C -0.0709(4) -0.1230(3) 0.2758(3)
H20 H -0.171(4) -0.148(3) 0.283(3)
H21 H 0.819(3) 0.257(2) 0.609(2)
N1 N 0.3231(2) -0.01475(16) 0.23931(15)
N2 N 0.7326(3) 0.2931(2) 0.6036(2)
N3 N 0.3212(2) 0.83496(16) 1.03834(16)
O1 O 0.0424(3) 0.16414(17) 0.19698(17)
O2 O 0.2018(2) 0.09597(14) 0.03639(15)
O3 O -0.0146(2) -0.07336(17) 0.18630(16)
O4 O -0.0156(3) -0.14811(19) 0.35184(19)
Zn1 Zn 0.19572(3) -0.03561(2) 0.14285(2)
C23A C -0.1101(3) 0.8219(2) -0.0976(2)
C24A C -0.1316(3) 0.6938(2) 0.0724(2)
H17A H -0.1842 0.7561 0.1156
C25A C -0.0828(3) 0.7083(2) -0.0437(2)
C26A C -0.0070(3) 0.6154(2) -0.1068(2)
H18A H 0.0244 0.6248 -0.1832
C27A C 0.0242(3) 0.5061(2) -0.0584(2)
C28A C 0.1027(4) 0.4099(2) -0.1217(2)
H19A H 0.1352 0.4176 -0.1982
O1A O -0.0424(3) 0.83586(17) -0.19698(17)
O2A O -0.2018(2) 0.90403(14) -0.03639(15)
C1A C -0.4755(3) 1.0039(2) -0.1980(2)
H1A H -0.5352 1.0298 -0.1281
C2A C -0.5487(3) 0.9563(2) -0.25365(19)
H2A H -0.6556 0.9514 -0.2215
C3A C -0.4622(3) 0.91501(19) -0.35888(19)
C4A C -0.3062(3) 0.9305(2) -0.4011(2)
H3A H -0.2440 0.9069 -0.4715
C5A C -0.2420(3) 0.9798(2) -0.3416(2)
H4A H -0.1372 0.9894 -0.3734
C6A C -0.5337(3) 0.85806(19) -0.41954(19)
C7A C -0.6948(3) 0.8569(2) -0.3854(2)
H5A H -0.7621 0.8920 -0.3209
C8A C -0.7592(3) 0.8048(2) -0.4447(2)
H6A H -0.8684 0.8050 -0.4194
C9A C -0.6615(3) 0.7521(2) -0.5422(2)
C10A C -0.4989(3) 0.7513(2) -0.5757(2)
H7A H -0.4309 0.7154 -0.6396
C11A C -0.4368(3) 0.8029(2) -0.5156(2)
H8A H -0.3271 0.8010 -0.5398
C12A C -0.6624(3) 0.6173(2) -0.6731(2)
C13A C -0.7293(3) 0.6074(2) -0.7536(2)
H9A H -0.8180 0.6616 -0.7614
C14A C -0.6646(3) 0.5176(2) -0.8220(2)
H10A H -0.7112 0.5126 -0.8753
C15A C -0.5333(3) 0.4349(2) -0.8141(2)
C16A C -0.4691(3) 0.4438(2) -0.7312(2)
H11A H -0.3823 0.3884 -0.7223
C17A C -0.5321(3) 0.5337(2) -0.6618(2)
H12A H -0.4869 0.5381 -0.6074
C18A C -0.4610(3) 0.3403(2) -0.8903(2)
C19A C -0.5389(3) 0.3162(2) -0.9585(2)
H13A H -0.6408 0.3587 -0.9560
C20A C -0.4658(3) 0.2297(2) -1.0297(2)
H14A H -0.5210 0.2157 -1.0745
C21A C -0.2454(3) 0.1876(2) -0.9723(2)
H15A H -0.1440 0.1434 -0.9760
C22A C -0.3107(3) 0.2729(2) -0.8998(2)
H16A H -0.2527 0.2854 -0.8562
C29A C 0.0709(4) 1.1230(3) -0.2758(3)
H20A H 0.171(4) 1.148(3) -0.283(3)
H21A H -0.819(3) 0.743(2) -0.609(2)
N1A N -0.3231(2) 1.01475(16) -0.23931(15)
N2A N -0.7326(3) 0.7069(2) -0.6036(2)
N3A N -0.3212(2) 0.16504(16) -1.03834(16)
O3A O 0.0146(2) 1.07336(17) -0.18630(16)
O4A O 0.0156(3) 1.14811(19) -0.35184(19)
Zn1A Zn -0.19572(3) 1.03561(2) -0.14285(2)
N3_2 N 0.3212(2) -0.16504(16) 0.03834(16)
N3A_2 N -0.3212(2) 1.16504(16) -0.03834(16)
Zn1_2 Zn 0.19572(3) 0.96439(2) 1.14285(2)
Zn1A_2 Zn -0.19572(3) 0.03561(2) -1.14285(2)
loop_
_geom_bond_atom_site_label_1
_geom_bond_atom_site_label_2
_geom_bond_site_symmetry_1
_geom_bond_site_symmetry_2
C1 H1 1_555 1_555
C2 C1 1_555 1_555
H2 C2 1_555 1_555
C3 C2 1_555 1_555
C4 C3 1_555 1_555
H3 C4 1_555 1_555
C5 C4 1_555 1_555
H4 C5 1_555 1_555
C6 C3 1_555 1_555
C7 C6 1_555 1_555
H5 C7 1_555 1_555
C8 C7 1_555 1_555
H6 C8 1_555 1_555
C9 C8 1_555 1_555
C10 C9 1_555 1_555
H7 C10 1_555 1_555
C11 C6 1_555 1_555
H8 C11 1_555 1_555
C12 C13 1_555 1_555
C13 H9 1_555 1_555
C14 C13 1_555 1_555
H10 C14 1_555 1_555
C15 C14 1_555 1_555
C16 C15 1_555 1_555
H11 C16 1_555 1_555
C17 C12 1_555 1_555
H12 C17 1_555 1_555
C18 C15 1_555 1_555
C19 C18 1_555 1_555
H13 C19 1_555 1_555
C20 C19 1_555 1_555
H14 C20 1_555 1_555
C21 H15 1_555 1_555
C22 C18 1_555 1_555
H16 C22 1_555 1_555
C23 C25 1_555 1_555
C24 H17 1_555 1_555
C25 C24 1_555 1_555
C26 C25 1_555 1_555
H18 C26 1_555 1_555
C27 C26 1_555 1_555
C28 C27 1_555 1_555
H19 C28 1_555 1_555
C29 H20 1_555 1_555
H21 N2 1_555 1_555
N1 C1 1_555 1_555
N2 C9 1_555 1_555
N3 C20 1_555 1_555
O1 C23 1_555 1_555
O2 C23 1_555 1_555
O3 C29 1_555 1_555
O4 C29 1_555 1_555
Zn1 N1 1_555 1_555
C23A C25A 1_555 1_555
C24A C28 1_555 1_555
H17A C24A 1_555 1_555
C25A C24A 1_555 1_555
C26A C25A 1_555 1_555
H18A C26A 1_555 1_555
C27A C27 1_555 1_555
C28A C24 1_555 1_555
H19A C28A 1_555 1_555
O1A C23A 1_555 1_555
O2A C23A 1_555 1_555
C1A H1A 1_555 1_555
C2A C1A 1_555 1_555
H2A C2A 1_555 1_555
C3A C2A 1_555 1_555
C4A C3A 1_555 1_555
H3A C4A 1_555 1_555
C5A C4A 1_555 1_555
H4A C5A 1_555 1_555
C6A C3A 1_555 1_555
C7A C6A 1_555 1_555
H5A C7A 1_555 1_555
C8A C7A 1_555 1_555
H6A C8A 1_555 1_555
C9A C8A 1_555 1_555
C10A C9A 1_555 1_555
H7A C10A 1_555 1_555
C11A C6A 1_555 1_555
H8A C11A 1_555 1_555
C12A C13A 1_555 1_555
C13A H9A 1_555 1_555
C14A C13A 1_555 1_555
H10A C14A 1_555 1_555
C15A C14A 1_555 1_555
C16A C15A 1_555 1_555
H11A C16A 1_555 1_555
C17A C12A 1_555 1_555
H12A C17A 1_555 1_555
C18A C15A 1_555 1_555
C19A C18A 1_555 1_555
H13A C19A 1_555 1_555
C20A C19A 1_555 1_555
H14A C20A 1_555 1_555
C21A H15A 1_555 1_555
C22A C18A 1_555 1_555
H16A C22A 1_555 1_555
C29A H20A 1_555 1_555
H21A N2A 1_555 1_555
N1A C1A 1_555 1_555
N2A C9A 1_555 1_555
N3A C20A 1_555 1_555
O3A C29A 1_555 1_555
O4A C29A 1_555 1_555
Zn1A O1A 1_555 1_555
N3_2 Zn1 1_555 1_555
N3A_2 Zn1A 1_555 1_555
Zn1_2 N3 1_555 1_555
Zn1A_2 N3A 1_555 1_555
C5 N1 1_555 1_555
C10 C11 1_555 1_555
C12 N2 1_555 1_555
C16 C17 1_555 1_555
C21 C22 1_555 1_555
C21 N3 1_555 1_555
O1 Zn1 1_555 1_555
O2 Zn1 1_555 1_555
O3 Zn1 1_555 1_555
C26A C27A 1_555 1_555
C27A C28A 1_555 1_555
O2A Zn1A 1_555 1_555
C5A N1A 1_555 1_555
C10A C11A 1_555 1_555
C12A N2A 1_555 1_555
C16A C17A 1_555 1_555
C21A C22A 1_555 1_555
C21A N3A 1_555 1_555
N1A Zn1A 1_555 1_555
O3A Zn1A 1_555 1_555

#END
