
#######################################################################
#
#                 Cambridge Crystallographic Data Centre
#                                CCDC 
#
#######################################################################
#
# If this CIF has been generated from an entry in the Cambridge 
# Structural Database, then it will include bibliographic, chemical, 
# crystal, experimental, refinement or atomic coordinate data resulting 
# from the CCDC's data processing and validation procedures.
#
#######################################################################

data_RUGPUG
_symmetry_cell_setting           monoclinic
_symmetry_space_group_name_H-M   'P 21/c'
_symmetry_Int_Tables_number      14
_space_group_name_Hall           '-P 2ybc'
loop_
_symmetry_equiv_pos_site_id
_symmetry_equiv_pos_as_xyz
1 x,y,z
2 -x,1/2+y,1/2-z
3 -x,-y,-z
4 x,1/2-y,1/2+z
_cell_length_a                   11.7771(5)
_cell_length_b                   18.4955(7)
_cell_length_c                   25.3750(9)
_cell_angle_alpha                90
_cell_angle_beta                 105.146(2)
_cell_angle_gamma                90
_cell_volume                     5335.27
loop_
_atom_site_label
_atom_site_type_symbol
_atom_site_fract_x
_atom_site_fract_y
_atom_site_fract_z
C1 C 0.1690(3) 0.6793(2) 0.88427(16)
H1 H 0.1039 0.6586 0.8926
C2 C 0.2267(3) 0.6396(2) 0.85381(16)
H2 H 0.1991 0.5938 0.8418
C3 C 0.3254(3) 0.66642(18) 0.84059(13)
C4 C 0.3565(4) 0.7364(2) 0.85915(17)
H3 H 0.4210 0.7585 0.8512
C5 C 0.2937(4) 0.7730(2) 0.88884(16)
H4 H 0.3173 0.8197 0.9001
C6 C 0.3915(3) 0.62394(18) 0.80946(14)
C7 C 0.3783(3) 0.55044(19) 0.80246(15)
H5 H 0.3271 0.5263 0.8188
C8 C 0.4382(4) 0.51142(19) 0.77226(16)
H6 H 0.4252 0.4619 0.7681
C9 C 0.5177(3) 0.54418(19) 0.74774(14)
C10 C 0.5361(4) 0.6171(2) 0.75650(19)
H7 H 0.5907 0.6408 0.7420
C11 C 0.4746(4) 0.6555(2) 0.78655(18)
H8 H 0.4893 0.7047 0.7917
C12 C 0.6372(3) 0.52204(18) 0.68031(15)
C13 C 0.6139(3) 0.5861(2) 0.65152(16)
H9 H 0.5537 0.6161 0.6560
C14 C 0.6796(3) 0.6059(2) 0.61616(15)
H10 H 0.6634 0.6497 0.5977
C15 C 0.7686(3) 0.56296(18) 0.60705(13)
C16 C 0.7872(3) 0.49660(18) 0.63404(14)
H11 H 0.8440 0.4653 0.6278
C17 C 0.7225(3) 0.47672(18) 0.66987(15)
H12 H 0.7364 0.4321 0.6873
C18 C 0.8435(3) 0.58852(19) 0.57228(14)
C19 C 0.8214(5) 0.6524(3) 0.5442(3)
H13 H 0.7552 0.6792 0.5453
C20 C 0.8943(5) 0.6776(3) 0.5145(3)
H14 H 0.8751 0.7213 0.4963
C21 C 1.0103(3) 0.58168(18) 0.53506(15)
H15 H 1.0755 0.5554 0.5319
C22 C 0.9408(3) 0.55247(19) 0.56590(16)
H16 H 0.9603 0.5077 0.5826
C23 C 0.5765(5) 0.6952(3) 1.0119(3)
H17 H 0.6005 0.7371 1.0320
C24 C 0.6467(5) 0.6692(3) 0.9815(3)
H18 H 0.7167 0.6929 0.9822
C25 C 0.6167(3) 0.6088(2) 0.94980(15)
C26 C 0.5139(4) 0.5771(2) 0.95375(17)
H19 H 0.4881 0.5351 0.9341
C27 C 0.4482(4) 0.6061(2) 0.98607(16)
H20 H 0.3795 0.5824 0.9876
C28 C 0.6886(3) 0.58039(19) 0.91505(15)
C29 C 0.7765(3) 0.6218(2) 0.90213(16)
H21 H 0.7914 0.6680 0.9167
C30 C 0.8415(4) 0.5962(2) 0.86864(17)
H22 H 0.8995 0.6253 0.8609
C31 C 0.8222(3) 0.5280(2) 0.84630(16)
C32 C 0.7371(4) 0.4851(2) 0.85950(16)
H23 H 0.7240 0.4385 0.8454
C33 C 0.6719(3) 0.51068(19) 0.89308(15)
H24 H 0.6153 0.4810 0.9014
C34 C 0.9434(3) 0.5358(2) 0.77868(16)
C35 C 1.0289(4) 0.5003(2) 0.75989(18)
H25 H 1.0477 0.4526 0.7704
C36 C 1.0863(4) 0.5340(2) 0.72621(17)
H26 H 1.1428 0.5085 0.7142
C37 C 1.0624(3) 0.6052(2) 0.70952(15)
C38 C 0.9733(4) 0.6388(2) 0.72701(17)
H27 H 0.9529 0.6861 0.7159
C39 C 0.9146(4) 0.6052(2) 0.75979(17)
H28 H 0.8540 0.6294 0.7696
C40 C 1.1288(3) 0.6444(2) 0.67660(14)
C41 C 1.2194(4) 0.6138(2) 0.65948(19)
H29 H 1.2408 0.5662 0.6689
C42 C 1.2790(4) 0.6520(2) 0.62872(17)
H30 H 1.3397 0.6288 0.6183
C43 C 1.1645(6) 0.7490(3) 0.6274(2)
H31 H 1.1429 0.7960 0.6161
C44 C 1.1012(5) 0.7142(3) 0.6578(2)
H32 H 1.0382 0.7378 0.6661
C45 C -0.0818(3) 0.82597(19) 0.86324(13)
C46 C -0.1801(3) 0.82605(17) 0.81111(14)
C47 C -0.1581(3) 0.81804(19) 0.76079(15)
C48 C -0.2468(3) 0.8118(2) 0.71344(14)
C49 C -0.3645(3) 0.81549(17) 0.71393(15)
C50 C -0.3859(3) 0.82635(18) 0.76437(15)
C51 C -0.2964(3) 0.8301(2) 0.81161(14)
C52 C -0.4627(3) 0.80715(19) 0.66198(15)
C53 C 0.1269(3) 0.63832(18) 1.01160(14)
C54 C 0.0615(3) 0.56655(17) 1.00518(14)
C55 C 0.0859(3) 0.51071(19) 0.97447(16)
C56 C -0.0260(3) 0.55412(18) 1.03106(15)
C57 C 0.3429(3) 0.87793(18) 1.00228(13)
C58 C 0.4236(3) 0.94149(17) 1.00060(13)
C59 C 0.5075(3) 0.93911(18) 0.97104(14)
C60 C 0.4188(3) 1.00333(18) 1.02930(14)
Cd1 Cd 0.09570(2) 0.803793(12) 0.955827(9)
Cd2 Cd 0.36920(2) 0.718410(12) 1.067464(9)
F1 F -0.04542(19) 0.81463(13) 0.75740(9)
F2 F -0.2173(2) 0.80310(15) 0.66609(9)
F3 F -0.3252(2) 0.83817(15) 0.85942(9)
F4 F -0.49776(19) 0.83252(13) 0.76803(10)
F5 F 0.1700(3) 0.51915(13) 0.94767(13)
F6 F -0.0533(3) 0.60573(12) 1.06287(12)
F7 F 0.5154(2) 0.88013(12) 0.94139(10)
F8 F 0.3415(2) 1.00833(12) 1.06017(10)
H33 H 0.573(3) 0.462(2) 0.7222(15)
H34 H 0.889(4) 0.454(2) 0.8098(17)
N1 N 0.2003(3) 0.74584(15) 0.90272(11)
N2 N 0.5761(3) 0.50171(19) 0.71872(15)
N3 N 0.9898(3) 0.64428(16) 0.51001(12)
N4 N 0.4773(3) 0.66538(17) 1.01488(13)
N5 N 0.8877(4) 0.4990(2) 0.81266(16)
N6 N 1.2552(3) 0.71963(17) 0.61310(13)
O1 O -0.0749(2) 0.77062(13) 0.89153(10)
O2 O -0.0140(3) 0.87770(14) 0.87416(11)
O3 O -0.4589(2) 0.75316(14) 0.63397(10)
O4 O -0.5408(3) 0.85317(15) 0.65116(13)
O5 O 0.0694(2) 0.69263(12) 0.99383(11)
O6 O 0.2339(2) 0.63427(13) 1.03467(12)
O7 O 0.2360(2) 0.88832(13) 0.98245(10)
O8 O 0.3922(3) 0.82171(13) 1.02264(11)
C53B C -0.1269(3) 0.36168(18) 0.98840(14)
C54B C -0.0615(3) 0.43345(17) 0.99482(14)
C55B C -0.0859(3) 0.48929(19) 1.02553(16)
C56B C 0.0260(3) 0.44588(18) 0.96894(15)
F5B F -0.1700(3) 0.48085(13) 1.05233(13)
F6B F 0.0533(3) 0.39427(12) 0.93713(12)
O5B O -0.0694(2) 0.30737(12) 1.00617(11)
O6B O -0.2339(2) 0.36573(13) 0.96533(12)
C57B C 0.6571(3) 1.12207(18) 0.99772(13)
C58B C 0.5764(3) 1.05851(17) 0.99940(13)
C59B C 0.4925(3) 1.06089(18) 1.02896(14)
C60B C 0.5812(3) 0.99667(18) 0.97070(14)
F7B F 0.4846(2) 1.11987(12) 1.05861(10)
F8B F 0.6585(2) 0.99167(12) 0.93983(10)
O7B O 0.7640(2) 1.11168(13) 1.01755(10)
O8B O 0.6078(3) 1.17829(13) 0.97736(11)
C1B C -0.1690(3) 0.3207(2) 1.11573(16)
H1B H -0.1039 0.3414 1.1074
C2B C -0.2267(3) 0.3604(2) 1.14619(16)
H2B H -0.1991 0.4062 1.1582
C3B C -0.3254(3) 0.33358(18) 1.15941(13)
C4B C -0.3565(4) 0.2636(2) 1.14085(17)
H3B H -0.4210 0.2415 1.1488
C5B C -0.2937(4) 0.2270(2) 1.11116(16)
H4B H -0.3173 0.1803 1.0999
C6B C -0.3915(3) 0.37606(18) 1.19054(14)
C7B C -0.3783(3) 0.44956(19) 1.19754(15)
H5B H -0.3271 0.4737 1.1812
C8B C -0.4382(4) 0.48858(19) 1.22774(16)
H6B H -0.4252 0.5381 1.2319
C9B C -0.5177(3) 0.45582(19) 1.25226(14)
C10B C -0.5361(4) 0.3829(2) 1.24350(19)
H7B H -0.5907 0.3592 1.2580
C11B C -0.4746(4) 0.3445(2) 1.21345(18)
H8B H -0.4893 0.2953 1.2083
C12B C -0.6372(3) 0.47796(18) 1.31969(15)
C13B C -0.6139(3) 0.4139(2) 1.34848(16)
H9B H -0.5537 0.3839 1.3440
C14B C -0.6796(3) 0.3941(2) 1.38384(15)
H10B H -0.6634 0.3503 1.4023
C15B C -0.7686(3) 0.43704(18) 1.39295(13)
C16B C -0.7872(3) 0.50340(18) 1.36596(14)
H11B H -0.8440 0.5347 1.3722
C17B C -0.7225(3) 0.52328(18) 1.33013(15)
H12B H -0.7364 0.5679 1.3127
C18B C -0.8435(3) 0.41148(19) 1.42772(14)
C19B C -0.8214(5) 0.3476(3) 1.4558(3)
H13B H -0.7552 0.3208 1.4547
C20B C -0.8943(5) 0.3224(3) 1.4855(3)
H14B H -0.8751 0.2787 1.5037
C21B C -1.0103(3) 0.41832(18) 1.46494(15)
H15B H -1.0755 0.4446 1.4681
C22B C -0.9408(3) 0.44753(19) 1.43410(16)
H16B H -0.9603 0.4923 1.4174
C23B C -0.5765(5) 0.3048(3) 0.9881(3)
H17B H -0.6005 0.2629 0.9680
C24B C -0.6467(5) 0.3308(3) 1.0185(3)
H18B H -0.7167 0.3071 1.0178
C25B C -0.6167(3) 0.3912(2) 1.05020(15)
C26B C -0.5139(4) 0.4229(2) 1.04625(17)
H19B H -0.4881 0.4649 1.0659
C27B C -0.4482(4) 0.3939(2) 1.01393(16)
H20B H -0.3795 0.4176 1.0124
C28B C -0.6886(3) 0.41961(19) 1.08495(15)
C29B C -0.7765(3) 0.3782(2) 1.09787(16)
H21B H -0.7914 0.3320 1.0833
C30B C -0.8415(4) 0.4038(2) 1.13136(17)
H22B H -0.8995 0.3747 1.1391
C31B C -0.8222(3) 0.4720(2) 1.15370(16)
C32B C -0.7371(4) 0.5149(2) 1.14050(16)
H23B H -0.7240 0.5615 1.1546
C33B C -0.6719(3) 0.48932(19) 1.10692(15)
H24B H -0.6153 0.5190 1.0986
C34B C -0.9434(3) 0.4642(2) 1.22132(16)
C35B C -1.0289(4) 0.4997(2) 1.24011(18)
H25B H -1.0477 0.5474 1.2296
C36B C -1.0863(4) 0.4660(2) 1.27379(17)
H26B H -1.1428 0.4915 1.2858
C37B C -1.0624(3) 0.3948(2) 1.29048(15)
C38B C -0.9733(4) 0.3612(2) 1.27299(17)
H27B H -0.9529 0.3139 1.2841
C39B C -0.9146(4) 0.3948(2) 1.24021(17)
H28B H -0.8540 0.3706 1.2304
C40B C -1.1288(3) 0.3556(2) 1.32340(14)
C41B C -1.2194(4) 0.3862(2) 1.34052(19)
H29B H -1.2408 0.4338 1.3311
C42B C -1.2790(4) 0.3480(2) 1.37128(17)
H30B H -1.3397 0.3712 1.3817
C43B C -1.1645(6) 0.2510(3) 1.3726(2)
H31B H -1.1429 0.2040 1.3839
C44B C -1.1012(5) 0.2858(3) 1.3422(2)
H32B H -1.0382 0.2622 1.3339
C45B C 0.0818(3) 0.17403(19) 1.13676(13)
C46B C 0.1801(3) 0.17395(17) 1.18889(14)
C47B C 0.1581(3) 0.18196(19) 1.23921(15)
C48B C 0.2468(3) 0.1882(2) 1.28656(14)
C49B C 0.3645(3) 0.18451(17) 1.28607(15)
C50B C 0.3859(3) 0.17365(18) 1.23563(15)
C51B C 0.2964(3) 0.1699(2) 1.18839(14)
C52B C 0.4627(3) 0.19285(19) 1.33802(15)
Cd1B Cd -0.09570(2) 0.196207(12) 1.044173(9)
Cd2B Cd -0.36920(2) 0.281590(12) 0.932536(9)
F1B F 0.04542(19) 0.18537(13) 1.24260(9)
F2B F 0.2173(2) 0.19690(15) 1.33391(9)
F3B F 0.3252(2) 0.16183(15) 1.14058(9)
F4B F 0.49776(19) 0.16748(13) 1.23197(10)
H33B H -0.573(3) 0.538(2) 1.2778(15)
H34B H -0.889(4) 0.546(2) 1.1902(17)
N1B N -0.2003(3) 0.25416(15) 1.09728(11)
N2B N -0.5761(3) 0.49829(19) 1.28128(15)
N3B N -0.9898(3) 0.35572(16) 1.48999(12)
N4B N -0.4773(3) 0.33462(17) 0.98512(13)
N5B N -0.8877(4) 0.5010(2) 1.18734(16)
N6B N -1.2552(3) 0.28037(17) 1.38690(13)
O1B O 0.0749(2) 0.22938(13) 1.10847(10)
O2B O 0.0140(3) 0.12230(14) 1.12584(11)
O3B O 0.4589(2) 0.24684(14) 1.36603(10)
O4B O 0.5408(3) 0.14683(15) 1.34884(13)
Cd1A Cd -1.09570(2) 0.303793(12) 1.544173(9)
Cd1B_2 Cd 0.90430(2) 1.196207(12) 1.044173(9)
Cd1C Cd 1.09570(2) 0.696207(12) 0.455827(9)
Cd2A Cd -1.36920(2) 0.218410(12) 1.432536(9)
Cd2A_2 Cd 0.63080(2) 0.218410(12) 1.432536(9)
Cd2B_2 Cd 0.63080(2) 1.281590(12) 0.932536(9)
Cd2C Cd -0.63080(2) 0.781590(12) 0.567464(9)
Cd2C_2 Cd 1.36920(2) 0.781590(12) 0.567464(9)
N3A N 0.0102(3) 0.14428(16) 0.98999(12)
N3C N -0.0102(3) 0.85572(16) 1.01001(12)
N6A N -0.2552(3) 0.21963(17) 0.88690(13)
N6C N 0.2552(3) 0.78037(17) 1.11310(13)
O3A O -0.5411(2) 0.25316(14) 0.86603(10)
O3C O 0.5411(2) 0.74684(14) 1.13397(10)
O4A O -0.4592(3) 0.35317(15) 0.84884(13)
O4C O 0.4592(3) 0.64683(15) 1.15116(13)
O7B_2 O -0.2360(2) 0.11168(13) 1.01755(10)
O8B_2 O -0.3922(3) 0.17829(13) 0.97736(11)
loop_
_geom_bond_atom_site_label_1
_geom_bond_atom_site_label_2
_geom_bond_site_symmetry_1
_geom_bond_site_symmetry_2
C1 H1 1_555 1_555
C2 C1 1_555 1_555
H2 C2 1_555 1_555
C3 C2 1_555 1_555
C4 C3 1_555 1_555
H3 C4 1_555 1_555
C5 C4 1_555 1_555
H4 C5 1_555 1_555
C6 C3 1_555 1_555
C7 C6 1_555 1_555
H5 C7 1_555 1_555
C8 C7 1_555 1_555
H6 C8 1_555 1_555
C9 C8 1_555 1_555
C10 C9 1_555 1_555
H7 C10 1_555 1_555
C11 C6 1_555 1_555
H8 C11 1_555 1_555
C12 C13 1_555 1_555
C13 H9 1_555 1_555
C14 C13 1_555 1_555
H10 C14 1_555 1_555
C15 C14 1_555 1_555
C16 C15 1_555 1_555
H11 C16 1_555 1_555
C17 C12 1_555 1_555
H12 C17 1_555 1_555
C18 C15 1_555 1_555
C19 C18 1_555 1_555
H13 C19 1_555 1_555
C20 C19 1_555 1_555
H14 C20 1_555 1_555
C21 H15 1_555 1_555
C22 C18 1_555 1_555
H16 C22 1_555 1_555
C23 H17 1_555 1_555
C24 C23 1_555 1_555
H18 C24 1_555 1_555
C25 C24 1_555 1_555
C26 C25 1_555 1_555
H19 C26 1_555 1_555
C27 C26 1_555 1_555
H20 C27 1_555 1_555
C28 C25 1_555 1_555
C29 C28 1_555 1_555
H21 C29 1_555 1_555
C30 C29 1_555 1_555
H22 C30 1_555 1_555
C31 C30 1_555 1_555
C32 C31 1_555 1_555
H23 C32 1_555 1_555
C33 C28 1_555 1_555
H24 C33 1_555 1_555
C34 C35 1_555 1_555
C35 H25 1_555 1_555
C36 C35 1_555 1_555
H26 C36 1_555 1_555
C37 C36 1_555 1_555
C38 C37 1_555 1_555
H27 C38 1_555 1_555
C39 C34 1_555 1_555
H28 C39 1_555 1_555
C40 C37 1_555 1_555
C41 C40 1_555 1_555
H29 C41 1_555 1_555
C42 C41 1_555 1_555
H30 C42 1_555 1_555
C43 H31 1_555 1_555
C44 C40 1_555 1_555
H32 C44 1_555 1_555
C45 C46 1_555 1_555
C46 C47 1_555 1_555
C47 C48 1_555 1_555
C48 C49 1_555 1_555
C49 C50 1_555 1_555
C50 C51 1_555 1_555
C51 C46 1_555 1_555
C52 C49 1_555 1_555
C53 C54 1_555 1_555
C54 C55 1_555 1_555
C55 F5 1_555 1_555
C56 C54 1_555 1_555
C57 C58 1_555 1_555
C58 C59 1_555 1_555
C59 F7 1_555 1_555
C60 C58 1_555 1_555
Cd1 N1 1_555 1_555
Cd2 N4 1_555 1_555
F1 C47 1_555 1_555
F2 C48 1_555 1_555
F3 C51 1_555 1_555
F4 C50 1_555 1_555
F6 C56 1_555 1_555
F8 C60 1_555 1_555
H33 N2 1_555 1_555
H34 N5 1_555 1_555
N1 C1 1_555 1_555
N2 C9 1_555 1_555
N3 C20 1_555 1_555
N4 C23 1_555 1_555
N5 C31 1_555 1_555
N6 C42 1_555 1_555
O1 C45 1_555 1_555
O2 C45 1_555 1_555
O3 C52 1_555 1_555
O4 C52 1_555 1_555
O5 C53 1_555 1_555
O6 C53 1_555 1_555
O7 C57 1_555 1_555
O8 C57 1_555 1_555
C53B C54B 1_555 1_555
C54B C55B 1_555 1_555
C55B C56 1_555 1_555
C56B C55 1_555 1_555
F5B C55B 1_555 1_555
F6B C56B 1_555 1_555
O5B C53B 1_555 1_555
O6B C53B 1_555 1_555
C57B C58B 1_555 1_555
C58B C59B 1_555 1_555
C59B C60 1_555 1_555
C60B C59 1_555 1_555
F7B C59B 1_555 1_555
F8B C60B 1_555 1_555
O7B C57B 1_555 1_555
O8B C57B 1_555 1_555
C1B H1B 1_555 1_555
C2B C1B 1_555 1_555
H2B C2B 1_555 1_555
C3B C2B 1_555 1_555
C4B C3B 1_555 1_555
H3B C4B 1_555 1_555
C5B C4B 1_555 1_555
H4B C5B 1_555 1_555
C6B C3B 1_555 1_555
C7B C6B 1_555 1_555
H5B C7B 1_555 1_555
C8B C7B 1_555 1_555
H6B C8B 1_555 1_555
C9B C8B 1_555 1_555
C10B C9B 1_555 1_555
H7B C10B 1_555 1_555
C11B C6B 1_555 1_555
H8B C11B 1_555 1_555
C12B C13B 1_555 1_555
C13B H9B 1_555 1_555
C14B C13B 1_555 1_555
H10B C14B 1_555 1_555
C15B C14B 1_555 1_555
C16B C15B 1_555 1_555
H11B C16B 1_555 1_555
C17B C12B 1_555 1_555
H12B C17B 1_555 1_555
C18B C15B 1_555 1_555
C19B C18B 1_555 1_555
H13B C19B 1_555 1_555
C20B C19B 1_555 1_555
H14B C20B 1_555 1_555
C21B H15B 1_555 1_555
C22B C18B 1_555 1_555
H16B C22B 1_555 1_555
C23B H17B 1_555 1_555
C24B C23B 1_555 1_555
H18B C24B 1_555 1_555
C25B C24B 1_555 1_555
C26B C25B 1_555 1_555
H19B C26B 1_555 1_555
C27B C26B 1_555 1_555
H20B C27B 1_555 1_555
C28B C25B 1_555 1_555
C29B C28B 1_555 1_555
H21B C29B 1_555 1_555
C30B C29B 1_555 1_555
H22B C30B 1_555 1_555
C31B C30B 1_555 1_555
C32B C31B 1_555 1_555
H23B C32B 1_555 1_555
C33B C28B 1_555 1_555
H24B C33B 1_555 1_555
C34B C35B 1_555 1_555
C35B H25B 1_555 1_555
C36B C35B 1_555 1_555
H26B C36B 1_555 1_555
C37B C36B 1_555 1_555
C38B C37B 1_555 1_555
H27B C38B 1_555 1_555
C39B C34B 1_555 1_555
H28B C39B 1_555 1_555
C40B C37B 1_555 1_555
C41B C40B 1_555 1_555
H29B C41B 1_555 1_555
C42B C41B 1_555 1_555
H30B C42B 1_555 1_555
C43B H31B 1_555 1_555
C44B C40B 1_555 1_555
H32B C44B 1_555 1_555
C45B C46B 1_555 1_555
C46B C47B 1_555 1_555
C47B C48B 1_555 1_555
C48B C49B 1_555 1_555
C49B C50B 1_555 1_555
C50B C51B 1_555 1_555
C51B C46B 1_555 1_555
C52B C49B 1_555 1_555
Cd1B O5B 1_555 1_555
Cd2B O6B 1_555 1_555
F1B C47B 1_555 1_555
F2B C48B 1_555 1_555
F3B C51B 1_555 1_555
F4B C50B 1_555 1_555
H33B N2B 1_555 1_555
H34B N5B 1_555 1_555
N1B C1B 1_555 1_555
N2B C9B 1_555 1_555
N3B C20B 1_555 1_555
N4B C23B 1_555 1_555
N5B C31B 1_555 1_555
N6B C42B 1_555 1_555
O1B C45B 1_555 1_555
O2B C45B 1_555 1_555
O3B C52B 1_555 1_555
O4B C52B 1_555 1_555
Cd1A N3B 1_555 1_555
Cd1B_2 O7B 1_555 1_555
Cd1C N3 1_555 1_555
Cd2A N6B 1_555 1_555
Cd2A_2 O3B 1_555 1_555
Cd2B_2 O8B 1_555 1_555
Cd2C O3 1_555 1_555
Cd2C_2 N6 1_555 1_555
N3A Cd1B 1_555 1_555
N3C Cd1 1_555 1_555
N6A Cd2B 1_555 1_555
N6C Cd2 1_555 1_555
O3A Cd2B 1_555 1_555
O3C Cd2 1_555 1_555
O4A Cd2B 1_555 1_555
O4C Cd2 1_555 1_555
O7B_2 Cd1B 1_555 1_555
O8B_2 Cd2B 1_555 1_555
C5 N1 1_555 1_555
C10 C11 1_555 1_555
C12 N2 1_555 1_555
C16 C17 1_555 1_555
C21 C22 1_555 1_555
C21 N3 1_555 1_555
C27 N4 1_555 1_555
C32 C33 1_555 1_555
C34 N5 1_555 1_555
C38 C39 1_555 1_555
C43 C44 1_555 1_555
C43 N6 1_555 1_555
Cd1 O1 1_555 1_555
Cd1 O2 1_555 1_555
Cd1 O5 1_555 1_555
Cd1 O7 1_555 1_555
Cd2 O6 1_555 1_555
Cd2 O8 1_555 1_555
O4 Cd2C 1_555 1_555
C54B C56B 1_555 1_555
C58B C60B 1_555 1_555
C5B N1B 1_555 1_555
C10B C11B 1_555 1_555
C12B N2B 1_555 1_555
C16B C17B 1_555 1_555
C21B C22B 1_555 1_555
C21B N3B 1_555 1_555
C27B N4B 1_555 1_555
C32B C33B 1_555 1_555
C34B N5B 1_555 1_555
C38B C39B 1_555 1_555
C43B C44B 1_555 1_555
C43B N6B 1_555 1_555
Cd1B N1B 1_555 1_555
Cd1B O1B 1_555 1_555
Cd1B O2B 1_555 1_555
Cd2B N4B 1_555 1_555
O4B Cd2A_2 1_555 1_555

#END
