
#######################################################################
#
#                 Cambridge Crystallographic Data Centre
#                                CCDC 
#
#######################################################################
#
# If this CIF has been generated from an entry in the Cambridge 
# Structural Database, then it will include bibliographic, chemical, 
# crystal, experimental, refinement or atomic coordinate data resulting 
# from the CCDC's data processing and validation procedures.
#
#######################################################################

data_RUGVIZ
_symmetry_cell_setting           triclinic
_symmetry_space_group_name_H-M   'P -1'
_symmetry_Int_Tables_number      2
_space_group_name_Hall           '-P 1'
loop_
_symmetry_equiv_pos_site_id
_symmetry_equiv_pos_as_xyz
1 x,y,z
2 -x,-y,-z
_cell_length_a                   10.3807(7)
_cell_length_b                   10.7406(8)
_cell_length_c                   13.1289(9)
_cell_angle_alpha                94.0440(10)
_cell_angle_beta                 90.2390(10)
_cell_angle_gamma                97.0250(10)
_cell_volume                     1449.08
loop_
_atom_site_label
_atom_site_type_symbol
_atom_site_fract_x
_atom_site_fract_y
_atom_site_fract_z
Cd1 Cd 0.739498(14) -0.019562(14) 0.758892(11)
S1 S 0.98757(5) 0.25760(5) 0.82102(4)
S2 S 0.49276(5) 0.76753(5) 0.66792(4)
O1 O 1.06004(17) 0.33125(16) 0.74831(15)
O2 O 0.92846(15) 0.13520(14) 0.77782(13)
O3 O 1.06023(18) 0.24621(18) 0.91345(14)
O4 O 0.56626(15) 0.81750(15) 0.76110(13)
O5 O 0.36219(14) 0.71481(15) 0.68755(13)
O6 O 0.50253(18) 0.85773(17) 0.59052(15)
O7 O 0.8128(2) 0.29015(19) 0.64176(13)
O8 O 0.49447(18) 0.5670(2) 0.82193(14)
N1 N 0.73658(17) 0.02158(16) 0.93351(13)
N2 N 0.57917(17) 0.11075(16) 0.79681(13)
N3 N 0.79152(17) -0.03642(17) 0.59157(13)
N4 N 0.87250(17) -0.18502(17) 0.73225(14)
C1 C 0.6531(2) 0.09907(19) 0.97055(15)
C2 C 0.8247(2) -0.0124(2) 0.99750(17)
H1 H 0.8824 -0.0662 0.9718
C3 C 0.8343(2) 0.0280(2) 1.09904(17)
H2 H 0.8970 0.0026 1.1410
C4 C 0.7489(2) 0.1070(2) 1.13697(17)
H3 H 0.7529 0.1361 1.2054
C5 C 0.6570(2) 0.1427(2) 1.07233(17)
H4 H 0.5981 0.1957 1.0971
C6 C 0.5603(2) 0.14002(19) 0.89629(16)
C7 C 0.4978(2) 0.1472(2) 0.72820(18)
H5 H 0.5097 0.1257 0.6593
C8 C 0.3976(2) 0.2151(2) 0.75536(19)
H6 H 0.3445 0.2410 0.7058
C9 C 0.3776(2) 0.2439(2) 0.8570(2)
H7 H 0.3095 0.2884 0.8775
C10 C 0.4594(2) 0.2061(2) 0.92850(18)
H8 H 0.4471 0.2247 0.9978
C11 C 0.86840(19) -0.12295(19) 0.55847(16)
C12 C 0.7463(2) 0.0352(2) 0.52407(17)
H9 H 0.6919 0.0936 0.5471
C13 C 0.7761(2) 0.0268(2) 0.42227(17)
H10 H 0.7431 0.0785 0.3773
C14 C 0.8560(2) -0.0599(2) 0.38872(17)
H11 H 0.8791 -0.0669 0.3204
C15 C 0.9019(2) -0.1368(2) 0.45681(17)
H12 H 0.9547 -0.1970 0.4346
C16 C 0.9134(2) -0.2036(2) 0.63649(16)
C17 C 0.9074(2) -0.2606(2) 0.80218(18)
H13 H 0.8783 -0.2487 0.8686
C18 C 0.9840(2) -0.3544(2) 0.7803(2)
H14 H 1.0055 -0.4053 0.8307
C19 C 1.0281(3) -0.3716(2) 0.6829(2)
H15 H 1.0814 -0.4334 0.6662
C20 C 0.9924(2) -0.2958(2) 0.6098(2)
H16 H 1.0210 -0.3064 0.5431
C21 C 0.8573(2) 0.34568(19) 0.86396(16)
C22 C 0.77142(19) 0.39712(18) 0.79997(16)
C23 C 0.7662(2) 0.3762(2) 0.68705(17)
C24 C 0.70328(19) 0.46704(19) 0.62757(16)
C25 C 0.7262(2) 0.4667(2) 0.52374(17)
H17 H 0.7732 0.4067 0.4923
C26 C 0.6798(2) 0.5545(2) 0.46681(17)
H18 H 0.6954 0.5543 0.3971
C27 C 0.6094(2) 0.6439(2) 0.51434(17)
H19 H 0.5816 0.7057 0.4764
C28 C 0.58020(19) 0.64261(19) 0.61615(16)
C29 C 0.62537(19) 0.55178(19) 0.67490(16)
C30 C 0.5920(2) 0.5344(2) 0.78358(17)
C31 C 0.6830(2) 0.47193(19) 0.84556(16)
C32 C 0.6774(2) 0.4918(2) 0.95107(17)
H20 H 0.6160 0.5393 0.9801
C33 C 0.7620(3) 0.4417(2) 1.01259(18)
H21 H 0.7591 0.4558 1.0832
C34 C 0.8518(2) 0.3697(2) 0.96818(17)
H22 H 0.9099 0.3367 1.0099
Cd1_2 Cd 0.739498(14) 0.980438(14) 0.758892(11)
O4_2 O 0.56626(15) -0.18250(15) 0.76110(13)
loop_
_geom_bond_atom_site_label_1
_geom_bond_atom_site_label_2
_geom_bond_site_symmetry_1
_geom_bond_site_symmetry_2
Cd1 O2 1_555 1_555
S1 O1 1_555 1_555
S2 O4 1_555 1_555
O2 S1 1_555 1_555
O3 S1 1_555 1_555
O4 Cd1_2 1_555 1_555
O5 S2 1_555 1_555
O6 S2 1_555 1_555
O7 C23 1_555 1_555
O8 C30 1_555 1_555
N1 Cd1 1_555 1_555
N2 Cd1 1_555 1_555
N3 Cd1 1_555 1_555
N4 Cd1 1_555 1_555
C1 N1 1_555 1_555
C2 N1 1_555 1_555
H1 C2 1_555 1_555
C3 C2 1_555 1_555
H2 C3 1_555 1_555
C4 C3 1_555 1_555
H3 C4 1_555 1_555
C5 C1 1_555 1_555
H4 C5 1_555 1_555
C6 N2 1_555 1_555
C7 N2 1_555 1_555
H5 C7 1_555 1_555
C8 C7 1_555 1_555
H6 C8 1_555 1_555
C9 C8 1_555 1_555
H7 C9 1_555 1_555
C10 C6 1_555 1_555
H8 C10 1_555 1_555
C11 N3 1_555 1_555
C12 N3 1_555 1_555
H9 C12 1_555 1_555
C13 C12 1_555 1_555
H10 C13 1_555 1_555
C14 C13 1_555 1_555
H11 C14 1_555 1_555
C15 C11 1_555 1_555
H12 C15 1_555 1_555
C16 N4 1_555 1_555
C17 N4 1_555 1_555
H13 C17 1_555 1_555
C18 C17 1_555 1_555
H14 C18 1_555 1_555
C19 C18 1_555 1_555
H15 C19 1_555 1_555
C20 C16 1_555 1_555
H16 C20 1_555 1_555
C21 S1 1_555 1_555
C22 C21 1_555 1_555
C23 C22 1_555 1_555
C24 C23 1_555 1_555
C25 C24 1_555 1_555
H17 C25 1_555 1_555
C26 C25 1_555 1_555
H18 C26 1_555 1_555
C27 C26 1_555 1_555
H19 C27 1_555 1_555
C28 S2 1_555 1_555
C29 C24 1_555 1_555
C30 C29 1_555 1_555
C31 C22 1_555 1_555
C32 C31 1_555 1_555
H20 C32 1_555 1_555
C33 C32 1_555 1_555
H21 C33 1_555 1_555
C34 C21 1_555 1_555
H22 C34 1_555 1_555
O4_2 Cd1 1_555 1_555
C1 C6 1_555 1_555
C4 C5 1_555 1_555
C9 C10 1_555 1_555
C11 C16 1_555 1_555
C14 C15 1_555 1_555
C19 C20 1_555 1_555
C27 C28 1_555 1_555
C28 C29 1_555 1_555
C30 C31 1_555 1_555
C33 C34 1_555 1_555

#END
