
#######################################################################
#
#                 Cambridge Crystallographic Data Centre
#                                CCDC 
#
#######################################################################
#
# If this CIF has been generated from an entry in the Cambridge 
# Structural Database, then it will include bibliographic, chemical, 
# crystal, experimental, refinement or atomic coordinate data resulting 
# from the CCDC's data processing and validation procedures.
#
#######################################################################

data_RUGWUN
_symmetry_cell_setting           monoclinic
_symmetry_space_group_name_H-M   'P 21/c'
_symmetry_Int_Tables_number      14
_space_group_name_Hall           '-P 2ybc'
loop_
_symmetry_equiv_pos_site_id
_symmetry_equiv_pos_as_xyz
1 x,y,z
2 -x,1/2+y,1/2-z
3 -x,-y,-z
4 x,1/2-y,1/2+z
_cell_length_a                   11.045(2)
_cell_length_b                   19.751(4)
_cell_length_c                   9.3140(18)
_cell_angle_alpha                90
_cell_angle_beta                 95.508(10)
_cell_angle_gamma                90
_cell_volume                     2022.47
loop_
_atom_site_label
_atom_site_type_symbol
_atom_site_fract_x
_atom_site_fract_y
_atom_site_fract_z
Mn1 Mn 1.0000 1.0000 0.0000
S1 S 1.21749(7) 1.01159(4) 0.48364(6)
N1 N 0.85839(13) 0.91930(8) 0.04175(16)
N2 N 0.54077(13) 0.77576(7) 0.22900(16)
N3 N 1.07419(15) 0.99541(8) 0.22345(17)
C1 C 0.28928(15) 0.68846(8) 0.38369(19)
C2 C 0.37678(16) 0.74425(9) 0.35778(19)
C3 C 0.16135(15) 0.59543(9) 0.30840(18)
H1 H 0.1290 0.5661 0.2335
C4 C 1.13274(18) 1.00298(9) 0.3320(2)
C5 C 0.24388(18) 0.68422(10) 0.5174(2)
H2 H 0.2680 0.7160 0.5911
C6 C 0.72534(18) 0.86887(10) 0.2002(2)
H3 H 0.6872 0.8718 0.2871
C7 C 0.24645(16) 0.64341(9) 0.27670(18)
H4 H 0.2748 0.6453 0.1836
C8 C 0.16303(18) 0.63304(10) 0.5413(2)
H5 H 0.1349 0.6293 0.6342
C9 C 0.70256(15) 0.81417(9) 0.10795(19)
C10 C 0.76036(16) 0.81358(9) -0.01800(19)
H6 H 0.7486 0.7767 -0.0834
C11 C 0.83524(16) 0.86702(9) -0.04773(19)
H7 H 0.8719 0.8665 -0.1359
N4 N 0.12243(13) 0.58843(7) 0.43949(16)
C12 C 0.62272(16) 0.75783(9) 0.14698(19)
C13 C 0.64383(18) 0.68798(9) 0.0928(2)
H8 H 0.6384 0.6553 0.1712
H9 H 0.7248 0.6855 0.0585
H10 H 0.5821 0.6773 0.0134
C14 C 0.80402(19) 0.91889(10) 0.1641(2)
H11 H 0.8206 0.9552 0.2299
O1 O 0.36603(13) 0.80042(7) 0.40945(16)
N5 N 0.46378(13) 0.72635(7) 0.27065(17)
H12 H 0.4705 0.6842 0.2418
S1B S 0.78251(7) 0.98841(4) -0.48364(6)
N1B N 1.14161(13) 1.08070(8) -0.04175(16)
N2B N 1.45923(13) 1.22424(7) -0.22900(16)
N3B N 0.92581(15) 1.00459(8) -0.22345(17)
C1B C 1.71072(15) 1.31154(8) -0.38369(19)
C2B C 1.62322(16) 1.25575(9) -0.35778(19)
C3B C 1.83865(15) 1.40457(9) -0.30840(18)
H1B H 1.8710 1.4339 -0.2335
C4B C 0.86726(18) 0.99702(9) -0.3320(2)
C5B C 1.75612(18) 1.31578(10) -0.5174(2)
H2B H 1.7320 1.2840 -0.5911
C6B C 1.27466(18) 1.13113(10) -0.2002(2)
H3B H 1.3128 1.1282 -0.2871
C7B C 1.75355(16) 1.35659(9) -0.27670(18)
H4B H 1.7252 1.3547 -0.1836
C8B C 1.83697(18) 1.36696(10) -0.5413(2)
H5B H 1.8651 1.3707 -0.6342
C9B C 1.29744(15) 1.18583(9) -0.10795(19)
C10B C 1.23964(16) 1.18642(9) 0.01800(19)
H6B H 1.2514 1.2233 0.0834
C11B C 1.16476(16) 1.13298(9) 0.04773(19)
H7B H 1.1281 1.1335 0.1359
N4B N 1.87757(13) 1.41157(7) -0.43949(16)
C12B C 1.37728(16) 1.24217(9) -0.14698(19)
C13B C 1.35617(18) 1.31202(9) -0.0928(2)
H8B H 1.3616 1.3447 -0.1712
H9B H 1.2752 1.3145 -0.0585
H10B H 1.4179 1.3227 -0.0134
C14B C 1.19598(19) 1.08111(10) -0.1641(2)
H11B H 1.1794 1.0448 -0.2299
O1B O 1.63397(13) 1.19958(7) -0.40945(16)
N5B N 1.53622(13) 1.27365(7) -0.27065(17)
H12B H 1.5295 1.3158 -0.2418
Mn1A Mn 0.0000 0.5000 0.5000
Mn1A_2 Mn 2.0000 1.5000 -0.5000
N4A N 0.87757(13) 1.08843(7) 0.06051(16)
N4C N 1.12243(13) 0.91157(7) -0.06051(16)
N6 N -0.0214(2) 0.75084(12) 0.7535(2)
C15 C 0.0037(2) 0.71096(12) 0.8383(3)
C16 C 0.0362(3) 0.66023(15) 0.9475(3)
H13 H 0.1191 0.6443 0.9385
H14 H -0.0205 0.6221 0.9344
H15 H 0.0319 0.6800 1.0433
C17 C 0.4677(2) 1.01739(14) 0.2167(4)
N7 N 0.4958(2) 1.07088(12) 0.2104(4)
C18 C 0.4284(4) 0.94832(18) 0.2218(8)
H16 H 0.3408 0.9458 0.1936
H17 H 0.4459 0.9308 0.3201
H18 H 0.4718 0.9211 0.1552
loop_
_geom_bond_atom_site_label_1
_geom_bond_atom_site_label_2
_geom_bond_site_symmetry_1
_geom_bond_site_symmetry_2
Mn1 N1 1_555 1_555
S1 C4 1_555 1_555
N1 C11 1_555 1_555
N2 C12 1_555 1_555
N3 Mn1 1_555 1_555
C1 C2 1_555 1_555
C2 O1 1_555 1_555
C3 H1 1_555 1_555
C4 N3 1_555 1_555
C5 C1 1_555 1_555
H2 C5 1_555 1_555
C6 H3 1_555 1_555
C7 C1 1_555 1_555
H4 C7 1_555 1_555
C8 C5 1_555 1_555
H5 C8 1_555 1_555
C9 C6 1_555 1_555
C10 C9 1_555 1_555
H6 C10 1_555 1_555
C11 C10 1_555 1_555
H7 C11 1_555 1_555
N4 C3 1_555 1_555
C12 C9 1_555 1_555
C13 C12 1_555 1_555
H8 C13 1_555 1_555
H9 C13 1_555 1_555
H10 C13 1_555 1_555
C14 N1 1_555 1_555
H11 C14 1_555 1_555
N5 N2 1_555 1_555
H12 N5 1_555 1_555
N6 C15 1_555 1_555
C15 C16 1_555 1_555
C16 H13 1_555 1_555
H14 C16 1_555 1_555
H15 C16 1_555 1_555
C17 N7 1_555 1_555
C18 C17 1_555 1_555
H16 C18 1_555 1_555
H17 C18 1_555 1_555
H18 C18 1_555 1_555
S1B C4B 1_555 1_555
N1B Mn1 1_555 1_555
N2B C12B 1_555 1_555
N3B Mn1 1_555 1_555
C1B C2B 1_555 1_555
C2B O1B 1_555 1_555
C3B H1B 1_555 1_555
C4B N3B 1_555 1_555
C5B C1B 1_555 1_555
H2B C5B 1_555 1_555
C6B H3B 1_555 1_555
C7B C1B 1_555 1_555
H4B C7B 1_555 1_555
C8B C5B 1_555 1_555
H5B C8B 1_555 1_555
C9B C6B 1_555 1_555
C10B C9B 1_555 1_555
H6B C10B 1_555 1_555
C11B N1B 1_555 1_555
H7B C11B 1_555 1_555
N4B C3B 1_555 1_555
C12B C9B 1_555 1_555
C13B C12B 1_555 1_555
H8B C13B 1_555 1_555
H9B C13B 1_555 1_555
H10B C13B 1_555 1_555
C14B N1B 1_555 1_555
H11B C14B 1_555 1_555
N5B N2B 1_555 1_555
H12B N5B 1_555 1_555
Mn1A N4 1_555 1_555
Mn1A_2 N4B 1_555 1_555
N4A Mn1 1_555 1_555
N4C Mn1 1_555 1_555
C2 N5 1_555 1_555
C3 C7 1_555 1_555
C6 C14 1_555 1_555
C8 N4 1_555 1_555
C2B N5B 1_555 1_555
C3B C7B 1_555 1_555
C6B C14B 1_555 1_555
C8B N4B 1_555 1_555
C10B C11B 1_555 1_555

#END
