
#######################################################################
#
#                 Cambridge Crystallographic Data Centre
#                                CCDC 
#
#######################################################################
#
# If this CIF has been generated from an entry in the Cambridge 
# Structural Database, then it will include bibliographic, chemical, 
# crystal, experimental, refinement or atomic coordinate data resulting 
# from the CCDC's data processing and validation procedures.
#
#######################################################################

data_RUGWOH
_symmetry_cell_setting           monoclinic
_symmetry_space_group_name_H-M   'P 21'
_symmetry_Int_Tables_number      4
_space_group_name_Hall           'P 2yb'
loop_
_symmetry_equiv_pos_site_id
_symmetry_equiv_pos_as_xyz
1 x,y,z
2 -x,1/2+y,-z
_cell_length_a                   13.0536(2)
_cell_length_b                   8.89960(16)
_cell_length_c                   13.09160(19)
_cell_angle_alpha                90
_cell_angle_beta                 97.4180(15)
_cell_angle_gamma                90
_cell_volume                     1508.15
loop_
_atom_site_label
_atom_site_type_symbol
_atom_site_fract_x
_atom_site_fract_y
_atom_site_fract_z
Mn1 Mn 0.24919(4) 0.01591(7) 0.24613(3)
S1 S 0.42160(8) -0.40702(12) 0.42549(7)
S2 S 0.10188(8) 0.33119(15) -0.02161(8)
O1 O 0.37838(18) 0.4887(3) 0.87881(17)
O2 O 0.91349(18) 0.3625(3) 0.27361(18)
N1 N 0.3800(2) 0.1798(4) 0.2306(2)
N2 N 0.2552(2) 0.4846(3) 0.69542(19)
N3 N 0.2721(2) 0.9102(4) 1.09165(19)
N4 N 0.7135(2) 0.4509(4) 0.2483(2)
N5 N 1.1286(2) 0.8296(4) 0.2583(2)
N6 N 0.2498(2) 0.5973(4) 0.76693(19)
H1 H 0.2086 0.6722 0.7541
N7 N 0.1309(2) 0.1542(4) 0.1562(2)
N8 N 0.2170(2) 0.1420(3) 0.39092(19)
N9 N 0.3577(2) -0.1347(4) 0.3325(2)
N10 N 0.7944(2) 0.5489(3) 0.2406(2)
H2 H 0.7831 0.6418 0.2250
C1 C 0.2168(3) 0.3811(4) 0.5309(2)
C2 C 0.6224(2) 0.5024(5) 0.2201(2)
C3 C 0.9739(2) 0.6138(4) 0.2584(2)
C4 C 0.2165(2) 0.5129(5) 0.6016(2)
C5 C 0.5378(2) 0.3931(4) 0.2257(2)
C6 C 0.3662(2) 0.8616(4) 1.0747(2)
H3 H 0.4241 0.8986 1.1160
C7 C 1.0710(2) 0.5749(4) 0.2334(2)
H4 H 1.0855 0.4766 0.2161
C8 C 0.3801(2) 0.7590(4) 0.9985(2)
H5 H 0.4462 0.7276 0.9893
C9 C 0.4476(2) 0.3975(4) 0.1551(3)
H6 H 0.4387 0.4719 0.1049
C10 C 0.3124(3) 0.5857(4) 0.8591(2)
C11 C 0.2952(3) 0.2740(4) 0.5411(2)
H7 H 0.3491 0.2807 0.5947
C12 C 0.1901(2) 0.8576(4) 1.0291(2)
H8 H 0.1248 0.8912 1.0396
C13 C 0.8923(2) 0.4943(4) 0.2585(2)
C14 C 0.1972(2) 0.7565(4) 0.9502(2)
H9 H 0.1386 0.7248 0.9078
C15 C 0.4670(2) 0.1759(4) 0.2987(2)
H10 H 0.4741 0.0998 0.3478
C16 C 0.5459(2) 0.2793(4) 0.2991(2)
H11 H 0.6040 0.2729 0.3481
C17 C 0.3727(3) 0.2918(4) 0.1606(3)
H12 H 0.3131 0.2974 0.1133
C18 C 0.1362(3) 0.3618(4) 0.4516(2)
H13 H 0.0806 0.4280 0.4442
C19 C 0.2922(3) 0.1575(4) 0.4708(2)
H14 H 0.3448 0.0863 0.4792
C20 C 0.9567(3) 0.7599(4) 0.2846(3)
H15 H 0.8933 0.7883 0.3037
C21 C 0.1395(2) 0.2432(4) 0.3838(2)
H16 H 0.0854 0.2327 0.3306
C22 C 0.3853(2) -0.2477(4) 0.3719(2)
C23 C 0.2952(2) 0.7034(4) 0.9360(2)
C24 C 1.0351(3) 0.8652(4) 0.2823(3)
H17 H 1.0220 0.9646 0.2982
C25 C 0.5981(3) 0.6569(4) 0.1804(3)
H18 H 0.6415 0.7280 0.2207
H19 H 0.5270 0.6793 0.1852
H20 H 0.6103 0.6629 0.1097
C26 C 0.1706(3) 0.6554(4) 0.5590(3)
H21 H 0.0986 0.6581 0.5674
H22 H 0.1779 0.6618 0.4871
H23 H 0.2054 0.7386 0.5949
C27 C 0.1176(2) 0.2274(5) 0.0820(3)
C28 C 1.1448(2) 0.6851(4) 0.2351(3)
H24 H 1.2098 0.6582 0.2193
Mn1_2 Mn 0.24919(4) 1.01591(7) 1.24613(3)
Mn1_3 Mn 1.24919(4) 1.01591(7) 0.24613(3)
N3_2 N 0.2721(2) -0.0898(4) 0.09165(19)
N5_2 N 0.1286(2) -0.1704(4) 0.2583(2)
loop_
_geom_bond_atom_site_label_1
_geom_bond_atom_site_label_2
_geom_bond_site_symmetry_1
_geom_bond_site_symmetry_2
Mn1 N1 1_555 1_555
S1 C22 1_555 1_555
S2 C27 1_555 1_555
O1 C10 1_555 1_555
O2 C13 1_555 1_555
N1 C15 1_555 1_555
N2 N6 1_555 1_555
N3 C6 1_555 1_555
N4 N10 1_555 1_555
N5 C24 1_555 1_555
N6 H1 1_555 1_555
N7 Mn1 1_555 1_555
N8 Mn1 1_555 1_555
N9 Mn1 1_555 1_555
N10 H2 1_555 1_555
C1 C4 1_555 1_555
C2 N4 1_555 1_555
C3 C7 1_555 1_555
C4 N2 1_555 1_555
C5 C2 1_555 1_555
C6 H3 1_555 1_555
C7 H4 1_555 1_555
C8 C6 1_555 1_555
H5 C8 1_555 1_555
C9 C5 1_555 1_555
H6 C9 1_555 1_555
C10 N6 1_555 1_555
C11 C1 1_555 1_555
H7 C11 1_555 1_555
C12 N3 1_555 1_555
H8 C12 1_555 1_555
C13 N10 1_555 1_555
C14 C12 1_555 1_555
H9 C14 1_555 1_555
C15 H10 1_555 1_555
C16 C5 1_555 1_555
H11 C16 1_555 1_555
C17 N1 1_555 1_555
H12 C17 1_555 1_555
C18 C1 1_555 1_555
H13 C18 1_555 1_555
C19 N8 1_555 1_555
H14 C19 1_555 1_555
C20 C3 1_555 1_555
H15 C20 1_555 1_555
C21 N8 1_555 1_555
H16 C21 1_555 1_555
C22 N9 1_555 1_555
C23 C8 1_555 1_555
C24 C20 1_555 1_555
H17 C24 1_555 1_555
C25 C2 1_555 1_555
H18 C25 1_555 1_555
H19 C25 1_555 1_555
H20 C25 1_555 1_555
C26 C4 1_555 1_555
H21 C26 1_555 1_555
H22 C26 1_555 1_555
H23 C26 1_555 1_555
C27 N7 1_555 1_555
C28 N5 1_555 1_555
H24 C28 1_555 1_555
Mn1_2 N3 1_555 1_555
Mn1_3 N5 1_555 1_555
N3_2 Mn1 1_555 1_555
N5_2 Mn1 1_555 1_555
C3 C13 1_555 1_555
C7 C28 1_555 1_555
C9 C17 1_555 1_555
C10 C23 1_555 1_555
C11 C19 1_555 1_555
C14 C23 1_555 1_555
C15 C16 1_555 1_555
C18 C21 1_555 1_555

#END
