
#######################################################################
#
#                 Cambridge Crystallographic Data Centre
#                                CCDC 
#
#######################################################################
#
# If this CIF has been generated from an entry in the Cambridge 
# Structural Database, then it will include bibliographic, chemical, 
# crystal, experimental, refinement or atomic coordinate data resulting 
# from the CCDC's data processing and validation procedures.
#
#######################################################################

data_RUGXAU
_symmetry_cell_setting           triclinic
_symmetry_space_group_name_H-M   'P -1'
_symmetry_Int_Tables_number      2
_space_group_name_Hall           '-P 1'
loop_
_symmetry_equiv_pos_site_id
_symmetry_equiv_pos_as_xyz
1 x,y,z
2 -x,-y,-z
_cell_length_a                   7.4226(14)
_cell_length_b                   10.1016(19)
_cell_length_c                   14.561(3)
_cell_angle_alpha                100.639(9)
_cell_angle_beta                 95.290(9)
_cell_angle_gamma                92.487(10)
_cell_volume                     1066.41
loop_
_atom_site_label
_atom_site_type_symbol
_atom_site_fract_x
_atom_site_fract_y
_atom_site_fract_z
C1 C 0.8406(4) 0.2699(3) 1.00747(18)
H1 H 0.8874 0.1855 1.0135
C2 C 0.8002(3) 0.4886(3) 1.07197(18)
H2 H 0.8185 0.5615 1.1241
N1 N 0.8570(3) 0.3684(2) 1.08309(15)
Mn1 Mn -0.04323(5) 0.32179(4) 0.22778(2)
S1 S -0.33076(17) -0.12796(9) 0.09701(6)
S2 S 0.11105(12) 0.80862(8) 0.33270(7)
O1 O -0.2911(2) 0.36810(19) 0.29875(13)
H3 H -0.3642 0.4201 0.2789
O2 O 0.5588(2) 0.54400(18) 0.81096(12)
O3 O 0.1989(3) 0.24624(19) 0.16414(14)
H4 H 0.2834 0.3056 0.1678
N2 N 0.0871(3) 0.2865(2) 0.36797(15)
N3 N 0.0459(3) 0.5328(2) 0.26564(15)
N4 N 0.5088(3) 0.3180(2) 0.76753(14)
N5 N 0.4175(3) 0.3315(2) 0.68338(15)
N6 N -0.1572(3) 0.1167(2) 0.18694(17)
C3 C 0.2346(5) 0.3713(3) 0.5213(2)
H5 H 0.2749 0.4477 0.5684
C4 C 0.0725(4) 0.6478(3) 0.29399(18)
C5 C 0.1124(4) 0.1631(3) 0.38390(19)
H6 H 0.0679 0.0885 0.3362
C6 C 0.3802(4) 0.0819(3) 0.64291(19)
H7 H 0.4916 0.0796 0.6842
H8 H 0.3870 0.0211 0.5827
H9 H 0.2759 0.0529 0.6725
C7 C 0.2636(3) 0.2433(3) 0.53709(17)
C8 C -0.3819(4) 0.2849(3) 0.3509(2)
H10 H -0.4179 0.1970 0.3108
H11 H -0.4900 0.3280 0.3727
H12 H -0.3005 0.2724 0.4051
C9 C 0.1995(4) 0.1374(3) 0.4659(2)
H13 H 0.2154 0.0470 0.4733
C10 C 0.2697(5) 0.1163(3) 0.1483(2)
H14 H 0.2986 0.0882 0.2086
H15 H 0.3799 0.1199 0.1164
H16 H 0.1793 0.0514 0.1090
C11 C 0.1474(5) 0.3883(3) 0.4372(2)
H17 H 0.1291 0.4777 0.4281
C12 C 0.5821(3) 0.4298(3) 0.82547(17)
C13 C 0.6894(3) 0.4067(3) 0.91235(17)
C14 C 0.3591(3) 0.2224(3) 0.62668(17)
C15 C 0.7166(3) 0.5118(3) 0.98880(18)
H18 H 0.6780 0.5989 0.9839
C16 C 0.7593(4) 0.2839(3) 0.92091(18)
H19 H 0.7514 0.2114 0.8686
C17 C -0.2272(4) 0.0143(3) 0.14960(19)
N1_2 N -0.1430(3) 0.3684(2) 0.08309(15)
Mn1_2 Mn 0.95677(5) 0.32179(4) 1.22778(2)
loop_
_geom_bond_atom_site_label_1
_geom_bond_atom_site_label_2
_geom_bond_site_symmetry_1
_geom_bond_site_symmetry_2
C1 H1 1_555 1_555
C2 H2 1_555 1_555
N1 C1 1_555 1_555
Mn1 O1 1_555 1_555
S1 C17 1_555 1_555
S2 C4 1_555 1_555
O1 H3 1_555 1_555
O2 C12 1_555 1_555
O3 Mn1 1_555 1_555
H4 O3 1_555 1_555
N2 Mn1 1_555 1_555
N3 Mn1 1_555 1_555
N4 N5 1_555 1_555
N5 C14 1_555 1_555
N6 Mn1 1_555 1_555
C3 H5 1_555 1_555
C4 N3 1_555 1_555
C5 N2 1_555 1_555
H6 C5 1_555 1_555
C6 H7 1_555 1_555
H8 C6 1_555 1_555
H9 C6 1_555 1_555
C7 C3 1_555 1_555
C8 O1 1_555 1_555
H10 C8 1_555 1_555
H11 C8 1_555 1_555
H12 C8 1_555 1_555
C9 C5 1_555 1_555
H13 C9 1_555 1_555
C10 O3 1_555 1_555
H14 C10 1_555 1_555
H15 C10 1_555 1_555
H16 C10 1_555 1_555
C11 N2 1_555 1_555
H17 C11 1_555 1_555
C12 N4 1_555 1_555
C13 C12 1_555 1_555
C14 C6 1_555 1_555
C15 C2 1_555 1_555
H18 C15 1_555 1_555
C16 C1 1_555 1_555
H19 C16 1_555 1_555
C17 N6 1_555 1_555
N1_2 Mn1 1_555 1_555
Mn1_2 N1 1_555 1_555
C2 N1 1_555 1_555
C3 C11 1_555 1_555
C7 C9 1_555 1_555
C7 C14 1_555 1_555
C13 C15 1_555 1_555
C13 C16 1_555 1_555

#END
