
#######################################################################
#
#                 Cambridge Crystallographic Data Centre
#                                CCDC 
#
#######################################################################
#
# If this CIF has been generated from an entry in the Cambridge 
# Structural Database, then it will include bibliographic, chemical, 
# crystal, experimental, refinement or atomic coordinate data resulting 
# from the CCDC's data processing and validation procedures.
#
#######################################################################

data_RUGXUO
_symmetry_cell_setting           orthorhombic
_symmetry_space_group_name_H-M   'C m c 21'
_symmetry_Int_Tables_number      36
_space_group_name_Hall           'C 2n -2'
loop_
_symmetry_equiv_pos_site_id
_symmetry_equiv_pos_as_xyz
1 x,y,z
2 -x,-y,1/2+z
3 -x,y,z
4 x,-y,1/2+z
5 1/2+x,1/2+y,z
6 1/2-x,1/2-y,1/2+z
7 1/2-x,1/2+y,z
8 1/2+x,1/2-y,1/2+z
_cell_length_a                   54.076(4)
_cell_length_b                   15.3088(6)
_cell_length_c                   16.0309(6)
_cell_angle_alpha                90
_cell_angle_beta                 90
_cell_angle_gamma                90
_cell_volume                     13271
loop_
_atom_site_label
_atom_site_type_symbol
_atom_site_fract_x
_atom_site_fract_y
_atom_site_fract_z
N1 N 0.2055(3) 0.6776(8) 0.3554(8)
C38 C 0.2238(4) 0.6098(12) 0.3348(12)
H15 H 0.2270 0.5748 0.3833
H16 H 0.2388 0.6369 0.3165
H17 H 0.2174 0.5734 0.2910
C39 C 0.2140(4) 0.7342(12) 0.4256(12)
H18 H 0.2171 0.6988 0.4739
H19 H 0.2015 0.7765 0.4383
H20 H 0.2290 0.7638 0.4098
C40 C 0.2006(3) 0.7282(11) 0.2823(11)
H21 H 0.1885 0.7719 0.2949
H22 H 0.1945 0.6907 0.2390
H23 H 0.2156 0.7558 0.2639
C41 C 0.1822(6) 0.6331(19) 0.3855(18)
H24 H 0.1859 0.5988 0.4341
H25 H 0.1759 0.5958 0.3423
H26 H 0.1701 0.6764 0.3993
N2 N 0.1794(4) 0.8075(11) 0.9602(11)
C42 C 0.1820(5) 0.7593(14) 1.0411(14)
H27 H 0.1833 0.6978 1.0303
H28 H 0.1678 0.7703 1.0754
H29 H 0.1966 0.7789 1.0695
C43 C 0.1585(4) 0.8708(12) 0.9637(12)
H30 H 0.1457 0.8528 0.9257
H31 H 0.1643 0.9279 0.9484
H32 H 0.1519 0.8726 1.0193
C44 C 0.2028(5) 0.8627(16) 0.9406(17)
H33 H 0.2119 0.8353 0.8964
H34 H 0.2129 0.8665 0.9895
H35 H 0.1979 0.9203 0.9235
C45 C 0.1738(5) 0.7433(15) 0.8881(15)
H36 H 0.1889 0.7175 0.8690
H37 H 0.1661 0.7743 0.8430
H38 H 0.1629 0.6983 0.9075
C46 C 0.1092(7) 0.951(2) 0.685(2)
H39 H 0.1214 0.9831 0.6543
H40 H 0.1157 0.9368 0.7394
H41 H 0.0947 0.9867 0.6917
N3 N 0.1047(14) 0.894(5) 0.653(4)
H42 H 0.1200 0.8620 0.6466
H43 H 0.0995 0.9119 0.5980
C47 C 0.0869(13) 0.833(4) 0.682(5)
H44 H 0.0775 0.8123 0.6349
H45 H 0.0760 0.8612 0.7207
H46 H 0.0951 0.7853 0.7082
Zn1 Zn 0.25296(3) 0.93899(9) 0.54909(10)
Zn2 Zn 0.20057(3) 0.94878(9) 0.65008(10)
Zn3 Zn 0.09555(4) 0.67407(12) 0.29350(16)
Zn4 Zn 0.07028(4) 0.84885(13) 0.33811(15)
O1 O 0.1009(2) 0.7787(7) 0.3619(7)
O2 O 0.1643(3) 0.9185(7) 0.1618(7)
O3 O 0.1841(2) 1.0066(6) 0.2464(6)
O4 O 0.1590(3) 0.8512(8) 0.5970(8)
O5 O 0.18693(19) 0.9333(7) 0.5390(6)
O6 O 0.22972(19) 1.0178(5) 0.6154(6)
O7 O 0.2433(2) 1.0439(5) 0.9297(5)
O8 O 0.2723(2) 1.1450(6) 0.9386(6)
O9 O 0.0721(3) 0.8552(8) 0.2173(9)
O10 O 0.0753(4) 1.0338(10) -0.1348(14)
O11 O 0.1349(3) 0.6506(9) 0.2460(9)
O12 O 0.0829(3) 0.7181(7) 0.1827(8)
O13 O 0.0651(2) 0.6339(7) 0.3503(9)
O14 O 0.0449(2) 0.7631(7) 0.3643(8)
O15 O 0.1072(3) 0.5512(8) 0.2722(10)
O16 O 0.2140(2) 0.4462(7) 0.0369(7)
O17 O 0.21648(19) 0.5609(6) 0.1183(6)
O18 O 0.2849(2) 1.3421(6) 0.7001(6)
O19 O 0.2620(2) 1.3228(6) 0.5845(6)
O20 O 0.1480(3) 0.2678(8) 0.2047(10)
O21 O 0.0718(4) 1.0774(10) -0.0095(12)
C1 C 0.1234(3) 0.8233(9) 0.3681(11)
C2 C 0.1344(3) 0.8571(9) 0.2986(10)
H1 H 0.1273 0.8481 0.2465
C3 C 0.1331(3) 0.8320(10) 0.4452(12)
H2 H 0.1251 0.8088 0.4916
C4 C 0.1562(3) 0.9053(8) 0.3053(9)
C5 C 0.1556(3) 0.8773(9) 0.4535(9)
C6 C 0.1662(3) 0.9144(9) 0.3862(10)
H3 H 0.1806 0.9470 0.3933
C7 C 0.1682(3) 0.9435(10) 0.2302(10)
C8 C 0.1683(3) 0.8862(9) 0.5356(10)
C9 C 0.2401(3) 1.0781(8) 0.6709(9)
C10 C 0.2486(2) 1.1555(8) 0.6360(8)
H4 H 0.2465 1.1675 0.5796
C11 C 0.2423(3) 1.0599(8) 0.7516(8)
H5 H 0.2352 1.0088 0.7722
C12 C 0.2600(3) 1.2128(9) 0.6874(9)
C13 C 0.2547(3) 1.1148(8) 0.8059(8)
C14 C 0.2652(3) 1.1942(8) 0.7723(9)
H6 H 0.2748 1.2314 0.8048
C15 C 0.2571(3) 1.1011(10) 0.8957(10)
C16 C 0.2060(3) 0.4897(12) 0.0937(11)
C17 C 0.1828(3) 0.4678(9) 0.1382(11)
C18 C 0.0461(3) 0.6831(12) 0.3623(10)
C19 C 0.2701(3) 1.3013(9) 0.6530(10)
C20 C 0.1757(3) 0.3775(9) 0.1448(12)
H7 H 0.1854 0.3351 0.1193
C21 C 0.0783(4) 0.7956(13) 0.1635(14)
C22 C 0.1675(3) 0.5287(9) 0.1710(9)
H8 H 0.1717 0.5874 0.1660
C23 C 0.1549(4) 0.3525(12) 0.1879(12)
C24 C 0.1271(4) 0.5734(12) 0.2443(13)
C25 C 0.1458(3) 0.5061(10) 0.2120(10)
C26 C 0.1383(4) 0.4187(12) 0.2180(12)
H9 H 0.1230 0.4040 0.2408
C27 C 0.0827(6) 0.8200(14) 0.0762(14)
C28 C 0.0760(5) 0.9042(13) 0.0495(16)
H10 H 0.0685 0.9425 0.0867
C29 C 0.0908(5) 0.7615(13) 0.0185(18)
H11 H 0.0960 0.7065 0.0359
C30 C 0.0750(5) 1.0232(17) -0.0574(15)
C31 C 0.0917(6) 0.7821(19) -0.065(2)
C32 C 0.0805(8) 0.9297(18) -0.029(2)
O22 O 0.1017(7) 0.7263(18) -0.1280(17)
C33 C 0.0898(8) 0.8704(19) -0.086(2)
H12 H 0.0948 0.8895 -0.1384
O23 O 0.0000 0.409(3) 0.386(3)
C34 C 0.0000 0.498(5) 0.383(3)
C35 C 0.0195(16) 0.546(5) 0.374(4)
H13 H 0.0337 0.5180 0.3561
C36 C 0.0217(11) 0.639(4) 0.388(4)
C37 C 0.0000 0.676(5) 0.369(4)
H14 H 0.0000 0.7299 0.3416
O13B O -0.0651(2) 0.6339(7) 0.3503(9)
O14B O -0.0449(2) 0.7631(7) 0.3643(8)
C18B C -0.0461(3) 0.6831(12) 0.3623(10)
C35B C -0.0195(16) 0.546(5) 0.374(4)
H13B H -0.0337 0.5180 0.3561
C36B C -0.0217(11) 0.639(4) 0.388(4)
Zn1B Zn -0.25296(3) 0.93899(9) 0.54909(10)
Zn2B Zn -0.20057(3) 0.94878(9) 0.65008(10)
Zn3B Zn -0.09555(4) 0.67407(12) 0.29350(16)
Zn4B Zn -0.07028(4) 0.84885(13) 0.33811(15)
O1B O -0.1009(2) 0.7787(7) 0.3619(7)
O2B O -0.1643(3) 0.9185(7) 0.1618(7)
O3B O -0.1841(2) 1.0066(6) 0.2464(6)
O4B O -0.1590(3) 0.8512(8) 0.5970(8)
O5B O -0.18693(19) 0.9333(7) 0.5390(6)
O6B O -0.22972(19) 1.0178(5) 0.6154(6)
O7B O -0.2433(2) 1.0439(5) 0.9297(5)
O8B O -0.2723(2) 1.1450(6) 0.9386(6)
O9B O -0.0721(3) 0.8552(8) 0.2173(9)
O10B O -0.0753(4) 1.0338(10) -0.1348(14)
O11B O -0.1349(3) 0.6506(9) 0.2460(9)
O12B O -0.0829(3) 0.7181(7) 0.1827(8)
O15B O -0.1072(3) 0.5512(8) 0.2722(10)
O16B O -0.2140(2) 0.4462(7) 0.0369(7)
O17B O -0.21648(19) 0.5609(6) 0.1183(6)
O18B O -0.2849(2) 1.3421(6) 0.7001(6)
O19B O -0.2620(2) 1.3228(6) 0.5845(6)
O20B O -0.1480(3) 0.2678(8) 0.2047(10)
O21B O -0.0718(4) 1.0774(10) -0.0095(12)
C1B C -0.1234(3) 0.8233(9) 0.3681(11)
C2B C -0.1344(3) 0.8571(9) 0.2986(10)
H1B H -0.1273 0.8481 0.2465
C3B C -0.1331(3) 0.8320(10) 0.4452(12)
H2B H -0.1251 0.8088 0.4916
C4B C -0.1562(3) 0.9053(8) 0.3053(9)
C5B C -0.1556(3) 0.8773(9) 0.4535(9)
C6B C -0.1662(3) 0.9144(9) 0.3862(10)
H3B H -0.1806 0.9470 0.3933
C7B C -0.1682(3) 0.9435(10) 0.2302(10)
C8B C -0.1683(3) 0.8862(9) 0.5356(10)
C9B C -0.2401(3) 1.0781(8) 0.6709(9)
C10B C -0.2486(2) 1.1555(8) 0.6360(8)
H4B H -0.2465 1.1675 0.5796
C11B C -0.2423(3) 1.0599(8) 0.7516(8)
H5B H -0.2352 1.0088 0.7722
C12B C -0.2600(3) 1.2128(9) 0.6874(9)
C13B C -0.2547(3) 1.1148(8) 0.8059(8)
C14B C -0.2652(3) 1.1942(8) 0.7723(9)
H6B H -0.2748 1.2314 0.8048
C15B C -0.2571(3) 1.1011(10) 0.8957(10)
C16B C -0.2060(3) 0.4897(12) 0.0937(11)
C17B C -0.1828(3) 0.4678(9) 0.1382(11)
C19B C -0.2701(3) 1.3013(9) 0.6530(10)
C20B C -0.1757(3) 0.3775(9) 0.1448(12)
H7B H -0.1854 0.3351 0.1193
C21B C -0.0783(4) 0.7956(13) 0.1635(14)
C22B C -0.1675(3) 0.5287(9) 0.1710(9)
H8B H -0.1717 0.5874 0.1660
C23B C -0.1549(4) 0.3525(12) 0.1879(12)
C24B C -0.1271(4) 0.5734(12) 0.2443(13)
C25B C -0.1458(3) 0.5061(10) 0.2120(10)
C26B C -0.1383(4) 0.4187(12) 0.2180(12)
H9B H -0.1230 0.4040 0.2408
C27B C -0.0827(6) 0.8200(14) 0.0762(14)
C28B C -0.0760(5) 0.9042(13) 0.0495(16)
H10B H -0.0685 0.9425 0.0867
C29B C -0.0908(5) 0.7615(13) 0.0185(18)
H11B H -0.0960 0.7065 0.0359
C30B C -0.0750(5) 1.0232(17) -0.0574(15)
C31B C -0.0917(6) 0.7821(19) -0.065(2)
C32B C -0.0805(8) 0.9297(18) -0.029(2)
O22B O -0.1017(7) 0.7263(18) -0.1280(17)
C33B C -0.0898(8) 0.8704(19) -0.086(2)
H12B H -0.0948 0.8895 -0.1384
Zn1A Zn -0.25296(3) 1.06101(9) 1.04909(10)
Zn1C Zn 0.25296(3) 1.06101(9) 1.04909(10)
Zn1D Zn -0.24704(3) 1.43899(9) 0.54909(10)
Zn1E Zn 0.24704(3) 0.56101(9) 0.04909(10)
Zn1F Zn 0.24704(3) 1.43899(9) 0.54909(10)
Zn1G Zn -0.24704(3) 0.56101(9) 0.04909(10)
Zn2A Zn -0.20057(3) 1.05122(9) 0.15008(10)
Zn2C Zn 0.20057(3) 1.05122(9) 0.15008(10)
Zn2D Zn -0.29943(3) 1.44878(9) 0.65008(10)
Zn2F Zn 0.29943(3) 1.44878(9) 0.65008(10)
Zn4A Zn -0.07028(4) 1.15115(13) -0.16189(15)
Zn4C Zn 0.07028(4) 1.15115(13) -0.16189(15)
O3A O -0.1841(2) 0.9934(6) 0.7464(6)
O3C O 0.1841(2) 0.9934(6) 0.7464(6)
O7A O -0.2433(2) 0.9561(5) 0.4297(5)
O7C O 0.2433(2) 0.9561(5) 0.4297(5)
O8A O -0.2723(2) 0.8550(6) 0.4386(6)
O8C O 0.2723(2) 0.8550(6) 0.4386(6)
O10A O -0.0753(4) 0.9662(10) 0.3652(14)
O10C O 0.0753(4) 0.9662(10) 0.3652(14)
O16E O 0.2860(2) 1.0538(7) 0.5369(7)
O16G O -0.2860(2) 1.0538(7) 0.5369(7)
O17E O 0.28352(19) 0.9391(6) 0.6183(6)
O17G O -0.28352(19) 0.9391(6) 0.6183(6)
O18D O -0.2151(2) 0.8421(6) 0.7001(6)
O18F O 0.2151(2) 0.8421(6) 0.7001(6)
O19D O -0.2380(2) 0.8228(6) 0.5845(6)
O19F O 0.2380(2) 0.8228(6) 0.5845(6)
C48? C 0.0000 0.508(6) 0.419(6)
O24? O 0.0000 0.416(2) 0.436(2)
C49? C 0.0227(8) 0.545(2) 0.404(2)
H47? H 0.0377 0.5164 0.4131
C50? C 0.0204(13) 0.633(4) 0.371(3)
C51? C 0.0000 0.676(7) 0.382(5)
H48? H 0.0000 0.7348 0.3968
loop_
_geom_bond_atom_site_label_1
_geom_bond_atom_site_label_2
_geom_bond_site_symmetry_1
_geom_bond_site_symmetry_2
Zn1 O6 1_555 1_555
Zn2 O5 1_555 1_555
Zn3 O1 1_555 1_555
Zn4 O1 1_555 1_555
O1 C1 1_555 1_555
O2 C7 1_555 1_555
O3 C7 1_555 1_555
O4 C8 1_555 1_555
O5 C8 1_555 1_555
O6 Zn2 1_555 1_555
O7 C15 1_555 1_555
O8 C15 1_555 1_555
O9 Zn4 1_555 1_555
O10 C30 1_555 1_555
O11 Zn3 1_555 1_555
O12 Zn3 1_555 1_555
O13 Zn3 1_555 1_555
O14 Zn4 1_555 1_555
O15 Zn3 1_555 1_555
O16 C16 1_555 1_555
O17 C16 1_555 1_555
O18 C19 1_555 1_555
O19 C19 1_555 1_555
O20 C23 1_555 1_555
O21 C30 1_555 1_555
C1 C2 1_555 1_555
C2 H1 1_555 1_555
C3 C1 1_555 1_555
H2 C3 1_555 1_555
C4 C2 1_555 1_555
C5 C3 1_555 1_555
C6 C4 1_555 1_555
H3 C6 1_555 1_555
C7 C4 1_555 1_555
C8 C5 1_555 1_555
C9 O6 1_555 1_555
C10 C9 1_555 1_555
H4 C10 1_555 1_555
C11 C9 1_555 1_555
H5 C11 1_555 1_555
C12 C10 1_555 1_555
C13 C11 1_555 1_555
C14 C12 1_555 1_555
H6 C14 1_555 1_555
C15 C13 1_555 1_555
C16 C17 1_555 1_555
C17 C20 1_555 1_555
C18 O13 1_555 1_555
C19 C12 1_555 1_555
C20 H7 1_555 1_555
C21 O9 1_555 1_555
C22 C17 1_555 1_555
H8 C22 1_555 1_555
C23 C20 1_555 1_555
C24 O11 1_555 1_555
C25 C22 1_555 1_555
C26 C23 1_555 1_555
H9 C26 1_555 1_555
C27 C21 1_555 1_555
C28 C27 1_555 1_555
H10 C28 1_555 1_555
C29 C27 1_555 1_555
H11 C29 1_555 1_555
C30 C32 1_555 1_555
C31 C29 1_555 1_555
C32 C28 1_555 1_555
O22 C31 1_555 1_555
C33 C31 1_555 1_555
H12 C33 1_555 1_555
O23 C34 1_555 1_555
C34 C35 1_555 1_555
C35 H13 1_555 1_555
C36 C18 1_555 1_555
C37 C36 1_555 1_555
H14 C37 1_555 1_555
N1 C38 1_555 1_555
C38 H15 1_555 1_555
H16 C38 1_555 1_555
H17 C38 1_555 1_555
C39 N1 1_555 1_555
H18 C39 1_555 1_555
H19 C39 1_555 1_555
H20 C39 1_555 1_555
C40 N1 1_555 1_555
H21 C40 1_555 1_555
H22 C40 1_555 1_555
H23 C40 1_555 1_555
C41 N1 1_555 1_555
H24 C41 1_555 1_555
H25 C41 1_555 1_555
H26 C41 1_555 1_555
N2 C42 1_555 1_555
C42 H27 1_555 1_555
H28 C42 1_555 1_555
H29 C42 1_555 1_555
C43 N2 1_555 1_555
H30 C43 1_555 1_555
H31 C43 1_555 1_555
H32 C43 1_555 1_555
C44 N2 1_555 1_555
H33 C44 1_555 1_555
H34 C44 1_555 1_555
H35 C44 1_555 1_555
C45 N2 1_555 1_555
H36 C45 1_555 1_555
H37 C45 1_555 1_555
H38 C45 1_555 1_555
C46 H39 1_555 1_555
H40 C46 1_555 1_555
H41 C46 1_555 1_555
N3 C46 1_555 1_555
H42 N3 1_555 1_555
H43 N3 1_555 1_555
C47 N3 1_555 1_555
H44 C47 1_555 1_555
H45 C47 1_555 1_555
H46 C47 1_555 1_555
O13B C18B 1_555 1_555
O14B C18B 1_555 1_555
C18B C36B 1_555 1_555
C35B C34 1_555 1_555
H13B C35B 1_555 1_555
C36B C37 1_555 1_555
Zn1B O6B 1_555 1_555
Zn2B O5B 1_555 1_555
Zn3B O13B 1_555 1_555
Zn4B O14B 1_555 1_555
O1B Zn3B 1_555 1_555
O2B C7B 1_555 1_555
O3B C7B 1_555 1_555
O4B C8B 1_555 1_555
O5B C8B 1_555 1_555
O6B Zn2B 1_555 1_555
O7B C15B 1_555 1_555
O8B C15B 1_555 1_555
O9B Zn4B 1_555 1_555
O10B C30B 1_555 1_555
O11B Zn3B 1_555 1_555
O12B Zn3B 1_555 1_555
O15B Zn3B 1_555 1_555
O16B C16B 1_555 1_555
O17B C16B 1_555 1_555
O18B C19B 1_555 1_555
O19B C19B 1_555 1_555
O20B C23B 1_555 1_555
O21B C30B 1_555 1_555
C1B O1B 1_555 1_555
C2B C1B 1_555 1_555
H1B C2B 1_555 1_555
C3B C1B 1_555 1_555
H2B C3B 1_555 1_555
C4B C2B 1_555 1_555
C5B C3B 1_555 1_555
C6B C4B 1_555 1_555
H3B C6B 1_555 1_555
C7B C4B 1_555 1_555
C8B C5B 1_555 1_555
C9B O6B 1_555 1_555
C10B C9B 1_555 1_555
H4B C10B 1_555 1_555
C11B C9B 1_555 1_555
H5B C11B 1_555 1_555
C12B C10B 1_555 1_555
C13B C11B 1_555 1_555
C14B C12B 1_555 1_555
H6B C14B 1_555 1_555
C15B C13B 1_555 1_555
C16B C17B 1_555 1_555
C17B C20B 1_555 1_555
C19B C12B 1_555 1_555
C20B H7B 1_555 1_555
C21B O9B 1_555 1_555
C22B C17B 1_555 1_555
H8B C22B 1_555 1_555
C23B C20B 1_555 1_555
C24B O11B 1_555 1_555
C25B C22B 1_555 1_555
C26B C23B 1_555 1_555
H9B C26B 1_555 1_555
C27B C21B 1_555 1_555
C28B C27B 1_555 1_555
H10B C28B 1_555 1_555
C29B C27B 1_555 1_555
H11B C29B 1_555 1_555
C30B C32B 1_555 1_555
C31B C29B 1_555 1_555
C32B C28B 1_555 1_555
O22B C31B 1_555 1_555
C33B C31B 1_555 1_555
H12B C33B 1_555 1_555
Zn1A O7B 1_555 1_555
Zn1C O7 1_555 1_555
Zn1D O19B 1_555 1_555
Zn1E O16 1_555 1_555
Zn1F O19 1_555 1_555
Zn1G O16B 1_555 1_555
Zn2A O3B 1_555 1_555
Zn2C O3 1_555 1_555
Zn2D O18B 1_555 1_555
Zn2F O18 1_555 1_555
Zn4A O10B 1_555 1_555
Zn4C O10 1_555 1_555
O3A Zn2B 1_555 1_555
O3C Zn2 1_555 1_555
O7A Zn1B 1_555 1_555
O7C Zn1 1_555 1_555
O8A Zn1B 1_555 1_555
O8C Zn1 1_555 1_555
O10A Zn4B 1_555 1_555
O10C Zn4 1_555 1_555
O16E Zn1 1_555 1_555
O16G Zn1B 1_555 1_555
O17E Zn1 1_555 1_555
O17G Zn1B 1_555 1_555
O18D Zn2B 1_555 1_555
O18F Zn2 1_555 1_555
O19D Zn1B 1_555 1_555
O19F Zn1 1_555 1_555
O8 Zn1C 1_555 1_555
O12 C21 1_555 1_555
O14 C18 1_555 1_555
O15 C24 1_555 1_555
O17 Zn1E 1_555 1_555
C5 C6 1_555 1_555
C13 C14 1_555 1_555
C24 C25 1_555 1_555
C25 C26 1_555 1_555
C32 C33 1_555 1_555
C35 C36 1_555 1_555
C35B C36B 1_555 1_555
Zn4B O1B 1_555 1_555
O8B Zn1A 1_555 1_555
O12B C21B 1_555 1_555
O15B C24B 1_555 1_555
O17B Zn1G 1_555 1_555
C5B C6B 1_555 1_555
C13B C14B 1_555 1_555
C24B C25B 1_555 1_555
C25B C26B 1_555 1_555
C32B C33B 1_555 1_555

#END
