
#######################################################################
#
#                 Cambridge Crystallographic Data Centre
#                                CCDC 
#
#######################################################################
#
# If this CIF has been generated from an entry in the Cambridge 
# Structural Database, then it will include bibliographic, chemical, 
# crystal, experimental, refinement or atomic coordinate data resulting 
# from the CCDC's data processing and validation procedures.
#
#######################################################################

data_RUGXOI
_symmetry_cell_setting           monoclinic
_symmetry_space_group_name_H-M   'P 21/c'
_symmetry_Int_Tables_number      14
_space_group_name_Hall           '-P 2ybc'
loop_
_symmetry_equiv_pos_site_id
_symmetry_equiv_pos_as_xyz
1 x,y,z
2 -x,1/2+y,1/2-z
3 -x,-y,-z
4 x,1/2-y,1/2+z
_cell_length_a                   14.3288(9)
_cell_length_b                   13.2643(8)
_cell_length_c                   14.3563(10)
_cell_angle_alpha                90
_cell_angle_beta                 91.296(6)
_cell_angle_gamma                90
_cell_volume                     2727.88
loop_
_atom_site_label
_atom_site_type_symbol
_atom_site_fract_x
_atom_site_fract_y
_atom_site_fract_z
N1 N 0.3470(4) 0.3179(5) 0.3035(4)
H7 H 0.2904 0.2975 0.3240
H8 H 0.3722 0.2660 0.2711
C17 C 0.4085(7) 0.3417(8) 0.3847(6)
H9 H 0.4153 0.2819 0.4244
H10 H 0.4700 0.3624 0.3631
H11 H 0.3811 0.3967 0.4206
C18 C 0.3338(8) 0.4070(7) 0.2397(8)
H12 H 0.2928 0.3880 0.1870
H13 H 0.3056 0.4626 0.2740
H14 H 0.3945 0.4283 0.2165
N2 N 0.1582(6) 0.7008(6) 0.1305(6)
H15 H 0.2137 0.7253 0.1109
H16 H 0.1235 0.7540 0.1499
C19 C 0.1087(6) 0.6511(6) 0.0507(6)
H17 H 0.0990 0.7000 0.0002
H18 H 0.1463 0.5947 0.0284
H19 H 0.0481 0.6259 0.0709
C20 C 0.1745(13) 0.6356(11) 0.2055(12)
H20 H 0.2071 0.6720 0.2559
H21 H 0.1148 0.6101 0.2278
H22 H 0.2130 0.5789 0.1853
O1 O 0.5853(3) -0.3341(3) 0.3109(3)
O2 O 0.2305(3) -0.1012(3) 0.3230(3)
O3 O 0.2089(3) 0.0943(3) 0.1988(3)
O4 O 0.3666(3) -0.4881(3) 0.5480(3)
O5 O 0.3661(3) -0.0493(3) 0.2646(3)
O6 O 0.1325(3) 0.4202(3) -0.0795(3)
O7 O -0.0240(3) 0.4701(3) 0.2148(3)
C1 C 0.3152(4) -0.1118(4) 0.3079(4)
C2 C 0.4579(4) -0.3709(4) 0.4162(4)
H1 H 0.4885 -0.4297 0.4394
C3 C 0.1726(4) 0.1825(4) 0.1669(4)
C4 C 0.1995(4) 0.2224(4) 0.0822(4)
H2 H 0.2455 0.1889 0.0469
C5 C 0.5004(4) -0.3138(4) 0.3474(4)
O8 O -0.0355(4) 0.3405(4) 0.3126(4)
O9 O 0.2664(4) -0.3637(4) 0.5778(4)
C6 C 0.1076(4) 0.2356(4) 0.2201(4)
H3 H 0.0893 0.2095 0.2786
O10 O 0.2513(3) 0.3120(4) -0.0878(3)
C7 C 0.3634(4) -0.2040(4) 0.3468(4)
C8 C 0.0949(4) 0.3635(4) 0.1003(4)
H4 H 0.0678 0.4241 0.0769
C9 C 0.4508(4) -0.2285(5) 0.3140(5)
H5 H 0.4780 -0.1871 0.2679
C10 C 0.3230(4) -0.2599(5) 0.4165(4)
H6 H 0.2638 -0.2419 0.4398
C11 C 0.1591(4) 0.3121(4) 0.0484(4)
C12 C 0.0694(4) 0.3268(4) 0.1875(4)
C13 C 0.1845(4) 0.3494(4) -0.0477(4)
C14 C -0.0023(4) 0.3801(5) 0.2438(4)
C15 C 0.3302(5) -0.4004(5) 0.5307(5)
C16 C 0.3719(4) -0.3439(5) 0.4518(4)
Zn1 Zn 0.33592(4) 0.04960(5) 0.16657(4)
Zn2 Zn 0.15203(4) 0.01798(4) 0.29943(4)
O1A O 0.4147(3) 0.1659(3) 0.1891(3)
O4C O 0.3666(3) -0.0119(3) 0.0480(3)
O6C O 0.1325(3) 0.0798(3) 0.4205(3)
O7A O 0.0240(3) -0.0299(3) 0.2852(3)
Zn1A Zn 0.66408(4) -0.45040(5) 0.33343(4)
Zn1C Zn 0.33592(4) -0.54960(5) 0.66657(4)
Zn2A Zn -0.15203(4) 0.51798(4) 0.20057(4)
Zn2C Zn 0.15203(4) 0.48202(4) -0.20057(4)
loop_
_geom_bond_atom_site_label_1
_geom_bond_atom_site_label_2
_geom_bond_site_symmetry_1
_geom_bond_site_symmetry_2
O1 C5 1_555 1_555
O2 C1 1_555 1_555
O3 C3 1_555 1_555
O4 C15 1_555 1_555
O5 C1 1_555 1_555
O6 C13 1_555 1_555
O7 C14 1_555 1_555
C1 C7 1_555 1_555
C2 H1 1_555 1_555
C3 C4 1_555 1_555
C4 H2 1_555 1_555
C5 C2 1_555 1_555
O8 C14 1_555 1_555
O9 C15 1_555 1_555
C6 C3 1_555 1_555
H3 C6 1_555 1_555
O10 C13 1_555 1_555
C7 C9 1_555 1_555
C8 H4 1_555 1_555
C9 C5 1_555 1_555
H5 C9 1_555 1_555
C10 C7 1_555 1_555
H6 C10 1_555 1_555
C11 C4 1_555 1_555
C12 C6 1_555 1_555
C13 C11 1_555 1_555
C14 C12 1_555 1_555
C15 C16 1_555 1_555
C16 C2 1_555 1_555
Zn1 O3 1_555 1_555
Zn2 O2 1_555 1_555
N1 H7 1_555 1_555
H8 N1 1_555 1_555
C17 N1 1_555 1_555
H9 C17 1_555 1_555
H10 C17 1_555 1_555
H11 C17 1_555 1_555
C18 N1 1_555 1_555
H12 C18 1_555 1_555
H13 C18 1_555 1_555
H14 C18 1_555 1_555
N2 H15 1_555 1_555
H16 N2 1_555 1_555
C19 N2 1_555 1_555
H17 C19 1_555 1_555
H18 C19 1_555 1_555
H19 C19 1_555 1_555
C20 N2 1_555 1_555
H20 C20 1_555 1_555
H21 C20 1_555 1_555
H22 C20 1_555 1_555
O1A Zn1 1_555 1_555
O4C Zn1 1_555 1_555
O6C Zn2 1_555 1_555
O7A Zn2 1_555 1_555
Zn1A O1 1_555 1_555
Zn1C O4 1_555 1_555
Zn2A O7 1_555 1_555
Zn2C O6 1_555 1_555
O3 Zn2 1_555 1_555
O5 Zn1 1_555 1_555
C8 C11 1_555 1_555
C8 C12 1_555 1_555
C10 C16 1_555 1_555

#END
