
#######################################################################
#
#                 Cambridge Crystallographic Data Centre
#                                CCDC 
#
#######################################################################
#
# If this CIF has been generated from an entry in the Cambridge 
# Structural Database, then it will include bibliographic, chemical, 
# crystal, experimental, refinement or atomic coordinate data resulting 
# from the CCDC's data processing and validation procedures.
#
#######################################################################

data_RUGXEY
_symmetry_cell_setting           monoclinic
_symmetry_space_group_name_H-M   'P 21/c'
_symmetry_Int_Tables_number      14
_space_group_name_Hall           '-P 2ybc'
loop_
_symmetry_equiv_pos_site_id
_symmetry_equiv_pos_as_xyz
1 x,y,z
2 -x,1/2+y,1/2-z
3 -x,-y,-z
4 x,1/2-y,1/2+z
_cell_length_a                   8.788(5)
_cell_length_b                   24.442(13)
_cell_length_c                   9.410(5)
_cell_angle_alpha                90
_cell_angle_beta                 90.151(7)
_cell_angle_gamma                90
_cell_volume                     2021.23
loop_
_atom_site_label
_atom_site_type_symbol
_atom_site_fract_x
_atom_site_fract_y
_atom_site_fract_z
C1 C 0.3369(2) 0.61765(7) 0.51816(18)
H1 H 0.3277 0.6109 0.4191
C2 C 0.2663(2) 0.66358(7) 0.57354(18)
H2 H 0.2097 0.6875 0.5138
C3 C 0.2800(2) 0.67407(7) 0.71876(18)
C4 C 0.3675(2) 0.63888(7) 0.80059(18)
H3 H 0.3814 0.6455 0.8993
C5 C 0.4344(2) 0.59391(7) 0.73646(19)
H4 H 0.4949 0.5702 0.7933
C6 C 0.1973(2) 0.71902(7) 0.79505(18)
C7 C -0.0140(2) 0.83348(7) 0.69570(19)
H5 H 0.0089 0.8343 0.5971
C8 C -0.1169(2) 0.87416(7) 0.75959(19)
C9 C -0.2013(2) 0.90967(8) 0.6750(2)
H6 H -0.1887 0.9096 0.5748
C10 C -0.3038(2) 0.94517(8) 0.7383(2)
H7 H -0.3623 0.9686 0.6789
C11 C -0.2418(2) 0.91390(8) 0.96045(19)
H8 H -0.2551 0.9153 1.0605
C12 C -0.1382(2) 0.87678(8) 0.9065(2)
H9 H -0.0824 0.8535 0.9684
C13 C 0.2985(2) 0.52556(7) 0.21487(19)
N1 N 0.41777(17) 0.58219(6) 0.59718(15)
N2 N 0.13134(18) 0.75783(6) 0.71240(15)
H10 H 0.1445 0.7580 0.6197
N3 N 0.04340(18) 0.79695(6) 0.77728(16)
N4 N -0.32447(17) 0.94799(6) 0.87969(16)
N5 N 0.34629(18) 0.50946(6) 0.32213(17)
O1 O 0.18855(17) 0.71846(5) 0.92530(13)
S1 S 0.22899(9) 0.54765(3) 0.06548(6)
Mn1 Mn 0.5000 0.5000 0.5000
C1B C 0.6631(2) 0.38235(7) 0.48184(18)
H1B H 0.6723 0.3891 0.5809
C2B C 0.7337(2) 0.33642(7) 0.42646(18)
H2B H 0.7903 0.3125 0.4862
C3B C 0.7200(2) 0.32593(7) 0.28124(18)
C4B C 0.6325(2) 0.36112(7) 0.19941(18)
H3B H 0.6186 0.3545 0.1007
C5B C 0.5656(2) 0.40609(7) 0.26354(19)
H4B H 0.5051 0.4298 0.2067
C6B C 0.8027(2) 0.28098(7) 0.20495(18)
C7B C 1.0140(2) 0.16652(7) 0.30430(19)
H5B H 0.9911 0.1657 0.4029
C8B C 1.1169(2) 0.12584(7) 0.24041(19)
C9B C 1.2013(2) 0.09033(8) 0.3250(2)
H6B H 1.1887 0.0904 0.4252
C10B C 1.3038(2) 0.05483(8) 0.2617(2)
H7B H 1.3623 0.0314 0.3211
C11B C 1.2418(2) 0.08610(8) 0.03955(19)
H8B H 1.2551 0.0847 -0.0605
C12B C 1.1382(2) 0.12322(8) 0.0935(2)
H9B H 1.0824 0.1465 0.0316
C13B C 0.7015(2) 0.47444(7) 0.78513(19)
N1B N 0.58223(17) 0.41781(6) 0.40282(15)
N2B N 0.86866(18) 0.24217(6) 0.28760(15)
H10B H 0.8555 0.2420 0.3803
N3B N 0.95660(18) 0.20305(6) 0.22272(16)
N4B N 1.32447(17) 0.05201(6) 0.12031(16)
N5B N 0.65371(18) 0.49054(6) 0.67787(17)
O1B O 0.81145(17) 0.28154(5) 0.07470(13)
S1B S 0.77101(9) 0.45235(3) 0.93452(6)
N4A N 0.32447(17) 0.44799(6) 0.62031(16)
N4C N 0.67553(17) 0.55201(6) 0.37969(16)
Mn1A Mn -0.5000 1.0000 1.0000
Mn1A_2 Mn 1.5000 0.0000 0.0000
C14 C 0.9461(3) 0.59782(13) 0.7763(2)
C15 C 1.0287(3) 0.54908(11) 0.7346(3)
H11 H 0.9905 0.5362 0.6426
H12 H 1.0140 0.5205 0.8063
H13 H 1.1373 0.5576 0.7268
N6 N 0.8810(3) 0.63638(12) 0.8075(3)
N7 N 0.4933(10) 0.8044(4) 0.7191(10)
C16 C 0.5770(11) 0.7744(4) 0.6628(9)
C17 C 0.6735(11) 0.7415(4) 0.5734(10)
H14 H 0.6106 0.7205 0.5069
H15 H 0.7332 0.7164 0.6324
H16 H 0.7425 0.7654 0.5201
N8? N 0.5036(12) 0.7960(4) 0.7552(10)
C18? C 0.5583(13) 0.7847(5) 0.6479(10)
C19? C 0.6477(13) 0.7617(5) 0.5321(10)
H17? H 0.7065 0.7304 0.5672
H18? H 0.7172 0.7896 0.4953
H19? H 0.5793 0.7496 0.4559
loop_
_geom_bond_atom_site_label_1
_geom_bond_atom_site_label_2
_geom_bond_site_symmetry_1
_geom_bond_site_symmetry_2
C1 H1 1_555 1_555
C2 C1 1_555 1_555
H2 C2 1_555 1_555
C3 C2 1_555 1_555
C4 C3 1_555 1_555
H3 C4 1_555 1_555
C5 C4 1_555 1_555
H4 C5 1_555 1_555
C6 C3 1_555 1_555
C7 H5 1_555 1_555
C8 C7 1_555 1_555
C9 C8 1_555 1_555
H6 C9 1_555 1_555
C10 C9 1_555 1_555
H7 C10 1_555 1_555
C11 H8 1_555 1_555
C12 C8 1_555 1_555
H9 C12 1_555 1_555
C13 N5 1_555 1_555
N1 C1 1_555 1_555
N2 C6 1_555 1_555
H10 N2 1_555 1_555
N3 C7 1_555 1_555
N4 C10 1_555 1_555
N5 Mn1 1_555 1_555
O1 C6 1_555 1_555
S1 C13 1_555 1_555
Mn1 N1 1_555 1_555
C14 C15 1_555 1_555
C15 H11 1_555 1_555
H12 C15 1_555 1_555
H13 C15 1_555 1_555
N6 C14 1_555 1_555
N7 C16 1_555 1_555
C16 C17 1_555 1_555
C17 H14 1_555 1_555
H15 C17 1_555 1_555
H16 C17 1_555 1_555
C1B H1B 1_555 1_555
C2B C1B 1_555 1_555
H2B C2B 1_555 1_555
C3B C2B 1_555 1_555
C4B C3B 1_555 1_555
H3B C4B 1_555 1_555
C5B C4B 1_555 1_555
H4B C5B 1_555 1_555
C6B C3B 1_555 1_555
C7B H5B 1_555 1_555
C8B C7B 1_555 1_555
C9B C8B 1_555 1_555
H6B C9B 1_555 1_555
C10B C9B 1_555 1_555
H7B C10B 1_555 1_555
C11B H8B 1_555 1_555
C12B C8B 1_555 1_555
H9B C12B 1_555 1_555
C13B N5B 1_555 1_555
N1B Mn1 1_555 1_555
N2B C6B 1_555 1_555
H10B N2B 1_555 1_555
N3B C7B 1_555 1_555
N4B C10B 1_555 1_555
N5B Mn1 1_555 1_555
O1B C6B 1_555 1_555
S1B C13B 1_555 1_555
N4A Mn1 1_555 1_555
N4C Mn1 1_555 1_555
Mn1A N4 1_555 1_555
Mn1A_2 N4B 1_555 1_555
C5 N1 1_555 1_555
C11 C12 1_555 1_555
C11 N4 1_555 1_555
N2 N3 1_555 1_555
C1B N1B 1_555 1_555
C5B N1B 1_555 1_555
C11B C12B 1_555 1_555
C11B N4B 1_555 1_555
N2B N3B 1_555 1_555

#END
