
#######################################################################
#
#                 Cambridge Crystallographic Data Centre
#                                CCDC 
#
#######################################################################
#
# If this CIF has been generated from an entry in the Cambridge 
# Structural Database, then it will include bibliographic, chemical, 
# crystal, experimental, refinement or atomic coordinate data resulting 
# from the CCDC's data processing and validation procedures.
#
#######################################################################

data_RUGZOJ
_symmetry_cell_setting           orthorhombic
_symmetry_space_group_name_H-M   'P b c 21'
_symmetry_Int_Tables_number      29
_space_group_name_Hall           'P 2c -2b'
loop_
_symmetry_equiv_pos_site_id
_symmetry_equiv_pos_as_xyz
1 x,y,z
2 -x,-y,1/2+z
3 -x,1/2+y,z
4 x,1/2-y,1/2+z
_cell_length_a                   7.2341(2)
_cell_length_b                   6.8408(2)
_cell_length_c                   24.9430(7)
_cell_angle_alpha                90
_cell_angle_beta                 90
_cell_angle_gamma                90
_cell_volume                     1234.36
loop_
_atom_site_label
_atom_site_type_symbol
_atom_site_fract_x
_atom_site_fract_y
_atom_site_fract_z
C1 C 0.3571(7) 0.5237(10) 0.4317(3)
H1 H 0.2500 0.5037 0.4516
C2 C 0.5426(7) 0.5995(9) 0.3670(3)
C3 C 0.6485(7) 0.5315(9) 0.4087(2)
C4 C 0.5887(10) 0.6846(11) 0.3142(4)
C5 C 0.8483(7) 0.4872(10) 0.4147(2)
C6 C 0.1294(7) 0.2543(11) 0.0746(3)
H2 H 0.2368 0.2317 0.0551
C7 C -0.1638(7) 0.2660(10) 0.0966(2)
C8 C -0.0598(7) 0.3349(10) 0.1383(2)
C9 C -0.1091(7) 0.4234(10) 0.1911(3)
C10 C -0.3650(7) 0.2165(10) 0.0905(2)
N1 N 0.3584(6) 0.5925(9) 0.3825(2)
N2 N 0.5272(6) 0.4856(9) 0.4500(2)
N3 N 0.1258(6) 0.3234(9) 0.1238(3)
N4 N -0.0416(6) 0.2206(9) 0.0563(2)
O1 O 0.4553(6) 0.6818(8) 0.28002(19)
O2 O 0.7441(5) 0.7535(8) 0.30519(19)
O3 O 0.9372(6) 0.4438(8) 0.3720(2)
O4 O 0.9166(6) 0.4872(9) 0.4603(2)
O5 O 0.0211(6) 0.4258(8) 0.2255(2)
O6 O -0.2680(5) 0.4851(7) 0.1986(2)
O7 O -0.4500(6) 0.1685(8) 0.1324(2)
O8 O -0.4284(7) 0.2174(9) 0.0442(2)
Pb1 Pb 0.12090(3) 0.64935(5) 0.313361(10)
Pb2 Pb 0.36463(3) 0.35150(4) 0.196674(9)
O1B O 0.5447(6) 0.1818(8) 0.28002(19)
O2_2 O -0.2559(5) 0.7535(8) 0.30519(19)
O2B O 0.2559(5) 0.2535(8) 0.30519(19)
O3B O 0.0628(6) 0.9438(8) 0.3720(2)
O3_2 O -0.0628(6) 0.4438(8) 0.3720(2)
O5B O -0.0211(6) 0.9258(8) 0.2255(2)
O6B O 0.2680(5) -0.0149(7) 0.1986(2)
O6_2 O 0.7320(5) 0.4851(7) 0.1986(2)
O7B O 0.4500(6) 0.6685(8) 0.1324(2)
O7_2 O 0.5500(6) 0.1685(8) 0.1324(2)
Pb1_2 Pb 1.12090(3) 0.64935(5) 0.313361(10)
Pb1B Pb 0.87910(3) 1.14935(5) 0.313361(10)
Pb1B_2 Pb 0.87910(3) 0.14935(5) 0.313361(10)
Pb1B_3 Pb -0.12090(3) 0.14935(5) 0.313361(10)
Pb2B Pb 0.63537(3) 0.85150(4) 0.196674(9)
Pb2B_2 Pb -0.36463(3) 0.85150(4) 0.196674(9)
Pb2_2 Pb -0.63537(3) 0.35150(4) 0.196674(9)
Pb2B_3 Pb -0.36463(3) -0.14850(4) 0.196674(9)
loop_
_geom_bond_atom_site_label_1
_geom_bond_atom_site_label_2
_geom_bond_site_symmetry_1
_geom_bond_site_symmetry_2
C1 H1 1_555 1_555
C2 C3 1_555 1_555
C3 C5 1_555 1_555
C4 C2 1_555 1_555
C5 O3 1_555 1_555
C6 H2 1_555 1_555
C7 C8 1_555 1_555
C8 C9 1_555 1_555
C9 O5 1_555 1_555
C10 C7 1_555 1_555
N1 C1 1_555 1_555
N2 C1 1_555 1_555
N3 C6 1_555 1_555
N4 C6 1_555 1_555
O1 C4 1_555 1_555
O2 C4 1_555 1_555
O3 Pb1_2 1_555 1_555
O4 C5 1_555 1_555
O5 Pb1 1_555 1_555
O6 C9 1_555 1_555
O7 C10 1_555 1_555
O8 C10 1_555 1_555
Pb1 N1 1_555 1_555
Pb2 N3 1_555 1_555
O1B Pb2 1_555 1_555
O2_2 Pb1 1_555 1_555
O2B Pb1 1_555 1_555
O3B Pb1 1_555 1_555
O3_2 Pb1 1_555 1_555
O5B Pb1 1_555 1_555
O6B Pb2 1_555 1_555
O6_2 Pb2 1_555 1_555
O7B Pb2 1_555 1_555
O7_2 Pb2 1_555 1_555
Pb1_2 O2 1_555 1_555
Pb1B O2 1_555 1_555
Pb1B_2 O3 1_555 1_555
Pb1B_3 O5 1_555 1_555
Pb2B O1 1_555 1_555
Pb2B_2 O6 1_555 1_555
Pb2_2 O6 1_555 1_555
Pb2B_3 O7 1_555 1_555
C2 N1 1_555 1_555
C3 N2 1_555 1_555
C7 N4 1_555 1_555
C8 N3 1_555 1_555
O1 Pb1 1_555 1_555
O1 Pb2 1_555 1_555
O2 Pb2B 1_555 1_555
O5 Pb2 1_555 1_555
O7 Pb2_2 1_555 1_555
Pb2 O2B 1_555 1_555
O1B Pb1B_2 1_555 1_555
O2_2 Pb2B_2 1_555 1_555
O2B Pb1B_3 1_555 1_555
O3_2 Pb1B_3 1_555 1_555
O5B Pb2B_2 1_555 1_555
O6_2 Pb2B 1_555 1_555
O7B Pb2B 1_555 1_555

#END
