
#######################################################################
#
#                 Cambridge Crystallographic Data Centre
#                                CCDC 
#
#######################################################################
#
# If this CIF has been generated from an entry in the Cambridge 
# Structural Database, then it will include bibliographic, chemical, 
# crystal, experimental, refinement or atomic coordinate data resulting 
# from the CCDC's data processing and validation procedures.
#
#######################################################################

data_RUHCED
_symmetry_cell_setting           monoclinic
_symmetry_space_group_name_H-M   'I 2/a'
_symmetry_Int_Tables_number      15
_space_group_name_Hall           '-I 2ya'
loop_
_symmetry_equiv_pos_site_id
_symmetry_equiv_pos_as_xyz
1 x,y,z
2 1/2-x,y,-z
3 1/2+x,1/2+y,1/2+z
4 -x,1/2+y,1/2-z
5 -x,-y,-z
6 1/2+x,-y,z
7 1/2-x,1/2-y,1/2-z
8 x,1/2-y,1/2+z
_cell_length_a                   6.7120(4)
_cell_length_b                   11.2486(11)
_cell_length_c                   17.9650(16)
_cell_angle_alpha                90
_cell_angle_beta                 91.975(7)
_cell_angle_gamma                90
_cell_volume                     1355.56
loop_
_atom_site_label
_atom_site_type_symbol
_atom_site_fract_x
_atom_site_fract_y
_atom_site_fract_z
Ga1 Ga -0.5000 0.0000 0.5000
O1 O -0.7500 0.0769(6) 0.5000
O2 O -0.6056(9) -0.1215(6) 0.4275(3)
C1 C -0.7620(11) -0.1308(7) 0.3946(4)
C2 C -0.7597(12) -0.1970(7) 0.3187(3)
C3 C -0.9284(11) -0.2166(9) 0.2778(5)
C4 C -0.9194(11) -0.2714(9) 0.2082(4)
O3 O -0.5698(9) -0.4020(6) 0.0875(3)
H1 H -0.4454(13) -0.210(2) 0.3237(8)
H2 H -0.4303(13) -0.311(2) 0.2018(10)
Ga1B Ga -1.0000 -0.5000 0.0000
Ga1C Ga -0.5000 -0.5000 0.0000
Ga1A Ga -1.0000 0.0000 0.5000
O1D O -0.2500 -0.0769(6) 0.5000
O2F O -0.8944(9) -0.3785(6) 0.0725(3)
O2D O -0.3944(9) 0.1215(6) 0.5725(3)
C1F C -0.7380(11) -0.3692(7) 0.1054(4)
C2F C -0.7403(12) -0.3030(7) 0.1813(3)
C3F C -0.5716(11) -0.2834(9) 0.2222(5)
C4F C -0.5806(11) -0.2286(9) 0.2918(4)
O3F O -0.9302(9) -0.0980(6) 0.4125(3)
O3G O -0.5698(9) -0.0980(6) 0.5875(3)
O3C O -0.4302(9) 0.0980(6) 0.4125(3)
H1F H -1.0546(13) -0.290(2) 0.1763(8)
H2F H -1.0697(13) -0.189(2) 0.2982(10)
loop_
_geom_bond_atom_site_label_1
_geom_bond_atom_site_label_2
_geom_bond_site_symmetry_1
_geom_bond_site_symmetry_2
Ga1 O1 1_555 1_555
O1 Ga1A 1_555 1_555
O2 Ga1 1_555 1_555
C1 O2 1_555 1_555
C2 C1 1_555 1_555
C3 C2 1_555 1_555
C4 C3 1_555 1_555
O3 Ga1C 1_555 1_555
H1 C4F 1_555 1_555
H2 C3F 1_555 1_555
Ga1B O2F 1_555 1_555
Ga1A O3F 1_555 1_555
O1D Ga1 1_555 1_555
O2F C1F 1_555 1_555
O2D Ga1 1_555 1_555
C1F O3 1_555 1_555
C2F C4 1_555 1_555
C3F C2F 1_555 1_555
C4F C2 1_555 1_555
O3F C1 1_555 1_555
O3G Ga1 1_555 1_555
O3C Ga1 1_555 1_555
H1F C4 1_555 1_555
H2F C3 1_555 1_555
C1F C2F 1_555 1_555
C3F C4F 1_555 1_555

#END
