
#######################################################################
#
#                 Cambridge Crystallographic Data Centre
#                                CCDC 
#
#######################################################################
#
# If this CIF has been generated from an entry in the Cambridge 
# Structural Database, then it will include bibliographic, chemical, 
# crystal, experimental, refinement or atomic coordinate data resulting 
# from the CCDC's data processing and validation procedures.
#
#######################################################################

data_RUHHIL
_symmetry_cell_setting           monoclinic
_symmetry_space_group_name_H-M   'P 21/n'
_symmetry_Int_Tables_number      14
_space_group_name_Hall           '-P 2yn'
loop_
_symmetry_equiv_pos_site_id
_symmetry_equiv_pos_as_xyz
1 x,y,z
2 1/2-x,1/2+y,1/2-z
3 -x,-y,-z
4 1/2+x,1/2-y,1/2+z
_cell_length_a                   7.9180(5)
_cell_length_b                   29.971(2)
_cell_length_c                   13.2318(8)
_cell_angle_alpha                90
_cell_angle_beta                 86.920(5)
_cell_angle_gamma                90
_cell_volume                     3135.51
loop_
_atom_site_label
_atom_site_type_symbol
_atom_site_fract_x
_atom_site_fract_y
_atom_site_fract_z
Ba1 Ba 0.20517(2) 0.168548(5) 0.027058(10)
Ba2 Ba 0.75516(2) 0.232948(5) 0.226157(10)
N1 N 0.3422(3) -0.04080(7) 0.1213(2)
O2 O 0.4221(3) -0.06889(7) 0.1794(2)
C1 C 0.2427(3) -0.00868(8) 0.1660(2)
C2 C 0.1660(3) 0.02289(9) 0.1066(2)
C3 C 0.1869(4) 0.01971(10) 0.0021(2)
H3 H 0.1303(45) 0.0424(12) -0.0412(26)
C4 C 0.2826(4) -0.01486(12) -0.0412(2)
H4 H 0.2964(48) -0.0174(12) -0.1105(28)
C5 C 0.3597(4) -0.04441(11) 0.0191(2)
H5 H 0.4251(51) -0.0672(13) -0.0022(29)
C6 C 0.0592(3) 0.05975(9) 0.1561(2)
O3 O 0.0056(3) 0.05353(8) 0.2447(2)
O4 O 0.0324(3) 0.09338(7) 0.1032(2)
N2 N 0.3415(3) 0.01898(7) 0.3215(2)
O5 O 0.4433(3) 0.04410(8) 0.2622(2)
C7 C 0.2330(3) -0.00955(8) 0.2782(2)
C8 C 0.1306(3) -0.03742(9) 0.3395(2)
C9 C 0.1413(4) -0.03517(10) 0.4435(2)
H6 H 0.0737(41) -0.0556(10) 0.4872(23)
C10 C 0.2490(4) -0.00466(11) 0.4853(2)
H7 H 0.2551(51) -0.0038(13) 0.5590(30)
C11 C 0.3476(4) 0.02245(10) 0.4230(2)
H8 H 0.4253(46) 0.0431(12) 0.4441(26)
C12 C 0.0043(3) -0.06904(9) 0.2950(2)
O6 O -0.0122(3) -0.06754(7) 0.20173(15)
O7 O -0.0771(3) -0.09362(8) 0.3566(2)
N3 N 0.3432(3) 0.25864(7) 0.17698(15)
O8 O 0.4333(2) 0.22246(7) 0.15366(14)
C13 C 0.2486(3) 0.26004(8) 0.2650(2)
C14 C 0.1562(3) 0.29814(8) 0.2904(2)
C15 C 0.1641(4) 0.33458(10) 0.2252(2)
H9 H 0.1033(55) 0.3574(14) 0.2443(30)
C16 C 0.2591(5) 0.33167(10) 0.1355(2)
H10 H 0.2681(53) 0.3568(14) 0.0794(30)
C17 C 0.3477(4) 0.29321(10) 0.1111(2)
H11 H 0.4154(47) 0.2867(12) 0.0482(27)
C18 C 0.0399(3) 0.29923(9) 0.3850(2)
O9 O 0.5678(3) 0.17210(7) -0.05041(15)
O10 O 0.4189(3) 0.22752(8) -0.1123(2)
N4 N 0.1468(3) 0.18571(7) 0.29663(14)
O11 O 0.0650(2) 0.19218(6) 0.21378(13)
C19 C 0.2459(3) 0.21916(8) 0.3288(2)
C20 C 0.3273(3) 0.21419(8) 0.4186(2)
C21 C 0.3061(4) 0.17481(10) 0.4737(2)
H12 H 0.3619(37) 0.1714(9) 0.5344(21)
C22 C 0.2073(4) 0.14102(10) 0.4367(2)
H13 H 0.1876(46) 0.1128(12) 0.4697(26)
C23 C 0.1292(4) 0.14677(9) 0.3473(2)
H14 H 0.0577(46) 0.1264(12) 0.3208(25)
C24 C 0.4476(3) 0.24949(8) 0.4530(2)
O12 O 0.0469(3) 0.23408(7) -0.11286(14)
O13 O -0.0573(3) 0.24106(8) 0.04505(14)
O14 O 0.2891(3) 0.11357(7) -0.1330(2)
H15 H 0.2200 0.1007 -0.1565
H16 H 0.3800 0.0984 -0.1382
O15 O 0.7193(4) 0.16928(9) 0.3719(2)
H17 H 0.6800 0.1693 0.4243
H18 H 0.7200 0.1347 0.3545
O16 O 0.4030(3) 0.11894(8) 0.1489(2)
H19 H 0.3800 0.1024 0.1943
H20 H 0.5000 0.1256 0.1474
O17 O 0.7432(3) 0.14995(8) 0.1288(2)
H21 H 0.7200 0.1550 0.0601
H22 H 0.8400 0.1279 0.1282
O18 O -0.0774(4) 0.14073(9) -0.0818(2)
H23 H -0.0600 0.1193 -0.1229
H24 H -0.1800 0.1402 -0.0978
O19 O 0.6969(5) 0.32396(9) 0.2111(2)
H25 H 0.7000 0.3352 0.2750
H26 H 0.6000 0.3196 0.2269
O10C O 0.9189(3) 0.27248(8) 0.3877(2)
O11_2 O 1.0650(2) 0.19218(6) 0.21378(13)
O12C O 0.5469(3) 0.26592(7) 0.38714(14)
O13_2 O 0.9427(3) 0.24106(8) 0.04505(14)
O9C O 0.0678(3) 0.32790(7) 0.44959(15)
O10C_2 O -0.0811(3) 0.27248(8) 0.3877(2)
C18C C 0.5399(3) 0.20077(9) -0.1150(2)
Ba2C Ba 0.25516(2) 0.267052(5) -0.273843(10)
Ba2_2 Ba -0.24484(2) 0.232948(5) 0.226157(10)
O13C O 0.4427(3) 0.25894(8) 0.54505(14)
C24C C -0.0524(3) 0.25051(8) -0.0470(2)
O20 O -0.4395(4) -0.07768(13) 0.3783(2)
H27 H -0.3400 -0.0844 0.3583
H28 H -0.4800 -0.0690 0.3191
O1 O -0.2797(3) 0.08363(9) 0.3386(2)
H1 H -0.3800 0.0717 0.3148
H2 H -0.1800 0.0793 0.2987
loop_
_geom_bond_atom_site_label_1
_geom_bond_atom_site_label_2
_geom_bond_site_symmetry_1
_geom_bond_site_symmetry_2
O1 H1 1_555 1_555
H2 O1 1_555 1_555
Ba1 O4 1_555 1_555
Ba2 O8 1_555 1_555
N1 O2 1_555 1_555
C1 N1 1_555 1_555
C2 C1 1_555 1_555
C3 C2 1_555 1_555
H3 C3 1_555 1_555
C4 C3 1_555 1_555
H4 C4 1_555 1_555
C5 N1 1_555 1_555
H5 C5 1_555 1_555
C6 C2 1_555 1_555
O3 C6 1_555 1_555
O4 C6 1_555 1_555
N2 O5 1_555 1_555
C7 C1 1_555 1_555
C8 C7 1_555 1_555
C9 C8 1_555 1_555
H6 C9 1_555 1_555
C10 C9 1_555 1_555
H7 C10 1_555 1_555
C11 N2 1_555 1_555
H8 C11 1_555 1_555
C12 C8 1_555 1_555
O6 C12 1_555 1_555
O7 C12 1_555 1_555
N3 O8 1_555 1_555
O8 Ba1 1_555 1_555
C13 N3 1_555 1_555
C14 C13 1_555 1_555
C15 C14 1_555 1_555
H9 C15 1_555 1_555
C16 C15 1_555 1_555
H10 C16 1_555 1_555
C17 N3 1_555 1_555
H11 C17 1_555 1_555
C18 C14 1_555 1_555
O9 Ba1 1_555 1_555
O10 Ba1 1_555 1_555
N4 O11 1_555 1_555
O11 Ba1 1_555 1_555
C19 C13 1_555 1_555
C20 C19 1_555 1_555
C21 C20 1_555 1_555
H12 C21 1_555 1_555
C22 C21 1_555 1_555
H13 C22 1_555 1_555
C23 N4 1_555 1_555
H14 C23 1_555 1_555
C24 C20 1_555 1_555
O12 Ba1 1_555 1_555
O13 Ba1 1_555 1_555
O14 Ba1 1_555 1_555
H15 O14 1_555 1_555
H16 O14 1_555 1_555
O15 Ba2 1_555 1_555
H17 O15 1_555 1_555
H18 O15 1_555 1_555
O16 Ba1 1_555 1_555
H19 O16 1_555 1_555
H20 O16 1_555 1_555
O17 Ba2 1_555 1_555
H21 O17 1_555 1_555
H22 O17 1_555 1_555
O18 Ba1 1_555 1_555
H23 O18 1_555 1_555
H24 O18 1_555 1_555
O19 Ba2 1_555 1_555
H25 O19 1_555 1_555
H26 O19 1_555 1_555
O20 H27 1_555 1_555
H28 O20 1_555 1_555
O10C Ba2 1_555 1_555
O11_2 Ba2 1_555 1_555
O12C Ba2 1_555 1_555
O13_2 Ba2 1_555 1_555
O9C C18 1_555 1_555
O10C_2 C18 1_555 1_555
C18C O9 1_555 1_555
Ba2C O10 1_555 1_555
Ba2_2 O11 1_555 1_555
O13C C24 1_555 1_555
C24C O12 1_555 1_555
C4 C5 1_555 1_555
N2 C7 1_555 1_555
C10 C11 1_555 1_555
C16 C17 1_555 1_555
O10 C18C 1_555 1_555
N4 C19 1_555 1_555
C22 C23 1_555 1_555
C24 O12C 1_555 1_555
O12 Ba2C 1_555 1_555
O13 Ba2_2 1_555 1_555
O13 C24C 1_555 1_555
O10C_2 Ba2_2 1_555 1_555

#END
