
#######################################################################
#
#                 Cambridge Crystallographic Data Centre
#                                CCDC 
#
#######################################################################
#
# If this CIF has been generated from an entry in the Cambridge 
# Structural Database, then it will include bibliographic, chemical, 
# crystal, experimental, refinement or atomic coordinate data resulting 
# from the CCDC's data processing and validation procedures.
#
#######################################################################

data_RUHHUX
_symmetry_cell_setting           triclinic
_symmetry_space_group_name_H-M   'P 1'
_symmetry_Int_Tables_number      1
_space_group_name_Hall           'P 1'
loop_
_symmetry_equiv_pos_site_id
_symmetry_equiv_pos_as_xyz
1 x,y,z
_cell_length_a                   7.610(3)
_cell_length_b                   10.825(3)
_cell_length_c                   11.075(3)
_cell_angle_alpha                63.050(10)
_cell_angle_beta                 77.923(10)
_cell_angle_gamma                87.351(10)
_cell_volume                     794.024
loop_
_atom_site_label
_atom_site_type_symbol
_atom_site_fract_x
_atom_site_fract_y
_atom_site_fract_z
O2 O 0.6069(6) -0.1155(4) 0.8100(4)
H1 H 0.6069 -0.0400 0.7271
O3 O 0.2564(32) -0.3771(8) -0.0931(10)
Ba1 Ba 0.0000 0.0000 0.0000
Ba2 Ba 0.49241(2) 0.21399(2) -0.01372(2)
N1 N -0.0982(4) -0.2980(4) 0.5533(3)
O4 O -0.1937(4) -0.4184(3) 0.6230(3)
C1 C 0.0205(4) -0.2770(3) 0.4407(3)
C2 C 0.1166(4) -0.1499(3) 0.3646(3)
C3 C 0.0891(5) -0.0445(3) 0.4023(3)
H2 H 0.1431(46) 0.0374(38) 0.3546(36)
C4 C -0.0307(5) -0.0718(4) 0.5187(4)
H3 H -0.0626(58) -0.0070(47) 0.5759(46)
C5 C -0.1225(5) -0.1990(4) 0.5929(3)
H4 H -0.2268(59) -0.2180(46) 0.6680(48)
C6 C 0.2501(4) -0.1256(3) 0.2401(3)
O5 O 0.2486(3) -0.0075(2) 0.1441(2)
O6 O 0.3505(3) -0.2191(3) 0.2398(3)
N2 N -0.0173(4) -0.3634(3) 0.2905(3)
O7 O -0.0792(4) -0.2424(3) 0.2228(3)
C7 C 0.0340(4) -0.3930(3) 0.4053(3)
C8 C 0.0881(5) -0.5235(3) 0.4807(4)
C9 C 0.0910(5) -0.6256(4) 0.4396(4)
H5 H 0.1348(66) -0.7136(53) 0.4927(52)
C10 C 0.0455(5) -0.5930(4) 0.3206(4)
H6 H 0.0024(69) -0.6830(55) 0.3210(55)
C11 C -0.0086(5) -0.4628(4) 0.2482(4)
H7 H -0.0524(59) -0.4329(45) 0.1753(48)
C12 C 0.1493(4) -0.5543(3) 0.6054(3)
O8 O 0.2302(4) -0.4600(3) 0.6092(3)
O9 O 0.1159(4) -0.6765(3) 0.6958(3)
N3 N -0.5750(4) 0.0033(3) 0.5463(3)
O10 O -0.6719(4) 0.0543(3) 0.6206(3)
C13 C -0.4501(4) 0.0875(3) 0.4382(3)
C14 C -0.3606(4) 0.0366(3) 0.3538(3)
C15 C -0.3956(4) -0.1006(3) 0.3814(3)
H8 H -0.3243(66) -0.1230(50) 0.3209(52)
C16 C -0.5137(5) -0.1862(3) 0.4963(3)
H9 H -0.5521(67) -0.2742(55) 0.5252(52)
C17 C -0.6025(5) -0.1331(4) 0.5778(4)
H10 H -0.7111(61) -0.1817(47) 0.6652(47)
C18 C -0.2295(4) 0.1277(3) 0.2275(3)
O11 O -0.2428(3) 0.1063(3) 0.1312(2)
O12 O -0.1232(3) 0.2096(3) 0.2271(3)
N4 N -0.3742(4) 0.2530(3) 0.5086(3)
O13 O -0.3163(4) 0.1474(3) 0.6039(3)
C19 C -0.4345(5) 0.2330(4) 0.4163(4)
C20 C -0.4769(4) 0.3475(3) 0.3084(3)
C21 C -0.4684(5) 0.4791(3) 0.3009(4)
H11 H -0.4864(94) 0.5929(74) 0.2018(74)
C22 C -0.4220(6) 0.4939(5) 0.4009(5)
H12 H -0.3988(81) 0.5600(66) 0.3920(64)
C23 C -0.3734(5) 0.3808(4) 0.5045(4)
H13 H -0.3366(56) 0.3806(43) 0.5784(45)
C24 C -0.5319(5) 0.3314(4) 0.1978(4)
O14 O 0.3743(4) 0.2265(3) 0.2258(3)
O15 O 0.5253(6) 0.4252(4) 0.0839(3)
O16 O 0.3374(4) 0.1426(3) -0.1801(2)
H14 H 0.4009 0.1400 -0.2408
O17 O -0.3618(4) -0.0696(3) 0.0239(3)
H15 H -0.3144 -0.1400 -0.0208
O18 O -0.2109(4) 0.1928(3) -0.1991(3)
H16 H -0.1183 0.2400 -0.2333
O19 O 0.1235(3) 0.2679(3) -0.0125(2)
H17 H 0.0622 0.2600 0.0668
H18 H 0.0631 0.3400 -0.0667
O20 O 0.4666(5) 0.4675(3) -0.2257(3)
H19 H 0.3843 0.4800 -0.2642
O21 O 0.0174(6) -0.0694(6) -0.2002(4)
H20 H 0.1194 -0.1200 -0.1557
O22 O 0.2611(6) -0.1991(4) 0.0014(5)
O23 O 0.8219(6) 0.4178(5) -0.1194(4)
O11_2 O 0.7572(3) 0.1063(3) 0.1312(2)
O17_2 O 0.6382(4) -0.0696(3) 0.0239(3)
O18_2 O 0.7891(4) 0.1928(3) -0.1991(3)
Ba2_2 Ba -0.50759(2) 0.21399(2) -0.01372(2)
O14_2 O -0.6257(4) 0.2265(3) 0.2258(3)
O15_2 O -0.4747(6) 0.4252(4) 0.0839(3)
C24_2 C 0.4681(5) 0.3314(4) 0.1978(4)
O1 O 0.7866(11) 0.6235(9) -0.0238(9)
loop_
_geom_bond_atom_site_label_1
_geom_bond_atom_site_label_2
_geom_bond_site_symmetry_1
_geom_bond_site_symmetry_2
O2 H1 1_555 1_555
Ba1 O5 1_555 1_555
Ba2 O5 1_555 1_555
N1 O4 1_555 1_555
C1 N1 1_555 1_555
C2 C1 1_555 1_555
C3 C2 1_555 1_555
H2 C3 1_555 1_555
C4 C3 1_555 1_555
H3 C4 1_555 1_555
C5 N1 1_555 1_555
H4 C5 1_555 1_555
C6 C2 1_555 1_555
O5 C6 1_555 1_555
O6 C6 1_555 1_555
N2 O7 1_555 1_555
O7 Ba1 1_555 1_555
C7 C1 1_555 1_555
C8 C7 1_555 1_555
C9 C8 1_555 1_555
H5 C9 1_555 1_555
C10 C9 1_555 1_555
H6 C10 1_555 1_555
C11 N2 1_555 1_555
H7 C11 1_555 1_555
C12 C8 1_555 1_555
O8 C12 1_555 1_555
O9 C12 1_555 1_555
N3 O10 1_555 1_555
C13 N3 1_555 1_555
C14 C13 1_555 1_555
C15 C14 1_555 1_555
H8 C15 1_555 1_555
C16 C15 1_555 1_555
H9 C16 1_555 1_555
C17 N3 1_555 1_555
H10 C17 1_555 1_555
C18 C14 1_555 1_555
O11 Ba1 1_555 1_555
O12 C18 1_555 1_555
N4 O13 1_555 1_555
C19 C13 1_555 1_555
C20 C19 1_555 1_555
C21 C20 1_555 1_555
H11 C21 1_555 1_555
C22 C21 1_555 1_555
H12 C22 1_555 1_555
C23 N4 1_555 1_555
H13 C23 1_555 1_555
C24 C20 1_555 1_555
O14 Ba2 1_555 1_555
O15 Ba2 1_555 1_555
O16 Ba1 1_555 1_555
H14 O16 1_555 1_555
O17 Ba1 1_555 1_555
H15 O17 1_555 1_555
O18 Ba1 1_555 1_555
H16 O18 1_555 1_555
O19 Ba1 1_555 1_555
H17 O19 1_555 1_555
H18 O19 1_555 1_555
O20 Ba2 1_555 1_555
H19 O20 1_555 1_555
O21 Ba1 1_555 1_555
H20 Ba1 1_555 1_555
O22 Ba1 1_555 1_555
O23 Ba2 1_555 1_555
O11_2 Ba2 1_555 1_555
O17_2 Ba2 1_555 1_555
O18_2 Ba2 1_555 1_555
Ba2_2 O11 1_555 1_555
O14_2 C24 1_555 1_555
O15_2 C24 1_555 1_555
C24_2 O14 1_555 1_555
Ba2 O16 1_555 1_555
Ba2 O19 1_555 1_555
C4 C5 1_555 1_555
N2 C7 1_555 1_555
C10 C11 1_555 1_555
C16 C17 1_555 1_555
C18 O11 1_555 1_555
N4 C19 1_555 1_555
C22 C23 1_555 1_555
O15 C24_2 1_555 1_555
O17 Ba2_2 1_555 1_555
O18 Ba2_2 1_555 1_555
O21 H20 1_555 1_555
Ba2_2 O14_2 1_555 1_555
Ba2_2 O15_2 1_555 1_555

#END
