
#######################################################################
#
#                 Cambridge Crystallographic Data Centre
#                                CCDC 
#
#######################################################################
#
# If this CIF has been generated from an entry in the Cambridge 
# Structural Database, then it will include bibliographic, chemical, 
# crystal, experimental, refinement or atomic coordinate data resulting 
# from the CCDC's data processing and validation procedures.
#
#######################################################################

data_RUHJEL
_symmetry_cell_setting           monoclinic
_symmetry_space_group_name_H-M   'P 21/n'
_symmetry_Int_Tables_number      14
_space_group_name_Hall           '-P 2yn'
loop_
_symmetry_equiv_pos_site_id
_symmetry_equiv_pos_as_xyz
1 x,y,z
2 1/2-x,1/2+y,1/2-z
3 -x,-y,-z
4 1/2+x,1/2-y,1/2+z
_cell_length_a                   8.485(5)
_cell_length_b                   14.529(9)
_cell_length_c                   14.073(8)
_cell_angle_alpha                90
_cell_angle_beta                 94.11(3)
_cell_angle_gamma                90
_cell_volume                     1730.44
loop_
_atom_site_label
_atom_site_type_symbol
_atom_site_fract_x
_atom_site_fract_y
_atom_site_fract_z
Zn1 Zn 0.12926(14) 0.21693(8) 0.43779(8)
O1 O -0.0389(9) -0.0959(4) 0.5861(5)
O2 O 0.1273(10) -0.1217(5) 0.7100(6)
O3 O -0.3008(9) 0.2462(5) 0.8100(5)
O4 O -0.2153(9) 0.1349(5) 0.9055(5)
N1 N 0.1827(9) 0.2502(6) 0.5996(6)
N2 N -0.0522(10) 0.3034(6) 0.4705(6)
N3 N 0.3571(9) 0.1623(6) 0.4731(6)
C1 C 0.0293(11) 0.0289(7) 0.6811(7)
C2 C 0.1120(12) 0.0927(8) 0.6342(7)
H1 H 0.183 0.073 0.5911
C3 C 0.0929(12) 0.1863(7) 0.6490(7)
C4 C -0.0219(10) 0.2122(7) 0.7101(7)
H2 H -0.0442 0.2743 0.7181
C5 C -0.1026(12) 0.1468(7) 0.7587(7)
C6 C -0.0756(11) 0.0548(7) 0.7444(7)
H3 H -0.1288 0.0107 0.7777
C7 C 0.0437(12) -0.0712(8) 0.6586(7)
C8 C -0.2148(13) 0.1768(8) 0.8305(8)
C9 C -0.1816(13) 0.3115(8) 0.4191(8)
H4 H -0.1981 0.2738 0.3659
C10 C -0.2972(15) 0.3730(8) 0.4386(9)
H5 H -0.3922 0.375 0.4013
C11 C -0.2698(15) 0.4309(8) 0.5135(9)
H6 H -0.3436 0.4755 0.527
C12 C -0.1319(14) 0.4224(7) 0.5685(8)
H7 H -0.1111 0.4611 0.6205
C13 C -0.0257(12) 0.3581(7) 0.5475(7)
C14 C 0.1321(13) 0.3459(7) 0.6018(7)
H8 H 0.2099 0.3845 0.5741
H9 H 0.1246 0.365 0.6674
C15 C 0.4243(13) 0.1142(7) 0.4087(8)
H10 H 0.3671 0.0987 0.3521
C16 C 0.5793(15) 0.0861(8) 0.4241(9)
H11 H 0.6269 0.0525 0.3777
C17 C 0.6622(14) 0.1079(8) 0.5074(9)
H12 H 0.7667 0.0896 0.5192
C18 C 0.5877(13) 0.1571(8) 0.5726(8)
H13 H 0.6413 0.1728 0.6302
C19 C 0.4345(12) 0.1836(7) 0.5539(7)
C20 C 0.3531(12) 0.2401(7) 0.6230(7)
H14 H 0.3696 0.2123 0.6856
H15 H 0.401 0.3008 0.6262
Zn1B Zn -0.12926(14) -0.21693(8) 0.56221(8)
Zn1C Zn -0.37074(14) 0.28307(8) 0.93779(8)
O1B O 0.0389(9) 0.0959(4) 0.4139(5)
O3C O 0.1992(9) 0.2538(5) 0.3100(5)
loop_
_geom_bond_atom_site_label_1
_geom_bond_atom_site_label_2
_geom_bond_site_symmetry_1
_geom_bond_site_symmetry_2
Zn1 N1 1_555 1_555
O1 C7 1_555 1_555
O2 C7 1_555 1_555
O3 C8 1_555 1_555
O4 C8 1_555 1_555
N1 C3 1_555 1_555
N2 Zn1 1_555 1_555
N3 Zn1 1_555 1_555
C1 C2 1_555 1_555
C2 H1 1_555 1_555
C3 C2 1_555 1_555
C4 C3 1_555 1_555
H2 C4 1_555 1_555
C5 C4 1_555 1_555
C6 C1 1_555 1_555
H3 C6 1_555 1_555
C7 C1 1_555 1_555
C8 C5 1_555 1_555
C9 N2 1_555 1_555
H4 C9 1_555 1_555
C10 C9 1_555 1_555
H5 C10 1_555 1_555
C11 C10 1_555 1_555
H6 C11 1_555 1_555
C12 C11 1_555 1_555
H7 C12 1_555 1_555
C13 N2 1_555 1_555
C14 N1 1_555 1_555
H8 C14 1_555 1_555
H9 C14 1_555 1_555
C15 N3 1_555 1_555
H10 C15 1_555 1_555
C16 C15 1_555 1_555
H11 C16 1_555 1_555
C17 C16 1_555 1_555
H12 C17 1_555 1_555
C18 C17 1_555 1_555
H13 C18 1_555 1_555
C19 N3 1_555 1_555
C20 N1 1_555 1_555
H14 C20 1_555 1_555
H15 C20 1_555 1_555
Zn1B O1 1_555 1_555
Zn1C O3 1_555 1_555
O1B Zn1 1_555 1_555
O3C Zn1 1_555 1_555
C5 C6 1_555 1_555
C12 C13 1_555 1_555
C13 C14 1_555 1_555
C18 C19 1_555 1_555
C19 C20 1_555 1_555

#END
