
#######################################################################
#
#                 Cambridge Crystallographic Data Centre
#                                CCDC 
#
#######################################################################
#
# If this CIF has been generated from an entry in the Cambridge 
# Structural Database, then it will include bibliographic, chemical, 
# crystal, experimental, refinement or atomic coordinate data resulting 
# from the CCDC's data processing and validation procedures.
#
#######################################################################

data_RUHSAQ
_symmetry_cell_setting           monoclinic
_symmetry_space_group_name_H-M   'P 21/c'
_symmetry_Int_Tables_number      14
_space_group_name_Hall           '-P 2ybc'
loop_
_symmetry_equiv_pos_site_id
_symmetry_equiv_pos_as_xyz
1 x,y,z
2 -x,1/2+y,1/2-z
3 -x,-y,-z
4 x,1/2-y,1/2+z
_cell_length_a                   11.7126(1)
_cell_length_b                   15.7432(1)
_cell_length_c                   29.3424(1)
_cell_angle_alpha                90
_cell_angle_beta                 90.126
_cell_angle_gamma                90
_cell_volume                     5410.54
loop_
_atom_site_label
_atom_site_type_symbol
_atom_site_fract_x
_atom_site_fract_y
_atom_site_fract_z
Zn1 Zn 0.4745 0.6326 0.4084
C1 C 0.4331 0.8004 0.8297
O1 O 0.3492 0.7712 0.8483
N1 N 0.6004 0.5365 0.4135
C2 C 0.6325 0.5123 0.4552
C3 C 0.6500 0.4974 0.3800
N2 N 1.3247 0.5669 0.4160
O2 O 0.5218 0.8257 0.8468
C4 C 0.4535 0.7886 0.7771
C5 C 0.7346 0.4297 0.3825
O3 O 0.5054 0.6809 0.4652
C6 C 0.5347 0.8100 0.7519
C7 C 0.7278 0.4423 0.4637
C8 C 0.7631 0.4185 0.4237
C9 C 0.3680 0.7498 0.7039
C10 C 0.8628 0.3737 0.4211
C11 C 0.5501 0.8016 0.7053
C12 C 0.9611 0.4065 0.3995
C13 C 0.4646 0.7813 0.6832
C14 C 0.9934 0.4307 0.4480
C15 C 0.4525 0.7664 0.6315
C16 C 1.1140 0.4821 0.4300
C17 C 0.3517 0.7924 0.6041
C18 C 1.1257 0.5722 0.4187
C19 C 0.5329 0.7278 0.6040
C20 C 1.2241 0.6085 0.4141
C21 C 0.3313 0.7840 0.5594
C22 C 1.2172 0.4273 0.4274
C23 C 0.4328 0.7268 0.4880
C24 C 0.4257 0.7484 0.5367
C25 C 1.3168 0.4743 0.4254
C26 C 0.5313 0.7198 0.5555
O4 O 0.3428 0.7463 0.4653
C27 C 0.3568 0.7654 0.7562
Zn1_2 Zn 1.4745 0.6326 0.4084
Zn1C Zn 0.4745 0.8674 0.9084
N2_2 N 0.3247 0.5669 0.4160
O2C O 0.5218 0.6743 0.3468
C28 C 0.2749 0.1148 0.4153
Zn2 Zn 0.0254 0.1329 0.4085
C29 C 0.1816 -0.0267 0.4218
C30 C 0.3929 -0.0187 0.4318
C31 C 0.3732 0.0730 0.4225
C32 C 0.2982 -0.0586 0.4290
C33 C 0.7508 -0.0777 0.4213
C34 C 0.6749 -0.1192 0.4230
C35 C 0.5802 -0.0958 0.4192
C36 C 0.5062 -0.0666 0.4428
C37 C 0.7702 -0.0378 0.4632
C38 C 0.8682 0.0191 0.4569
C39 C 0.8634 0.0097 0.3728
C40 C 0.7765 -0.0594 0.3778
O5 O -0.0203 0.3273 0.8475
C41 C 0.0602 0.3000 0.8302
N3 N 0.1735 0.0682 0.4151
O6 O 0.1516 0.2726 0.8476
C42 C 0.0467 0.2884 0.7774
O7 O -0.0068 0.1820 0.4663
N4 N 0.9004 0.0346 0.4142
C43 C -0.0380 0.3072 0.7532
O8 O 0.1590 0.2483 0.4653
C44 C 0.1445 0.2632 0.7566
C45 C -0.0524 0.2998 0.7047
C46 C 0.1301 0.2480 0.7017
C47 C 0.0392 0.2825 0.6831
C48 C 0.0544 0.2693 0.6319
C49 C -0.0349 0.2285 0.6048
C50 C 0.1509 0.2952 0.6058
C51 C -0.0377 0.2194 0.5565
C52 C 0.1654 0.2865 0.5597
C53 C 0.0679 0.2279 0.4864
C54 C 0.0757 0.2460 0.5361
Zn2_2 Zn 1.0254 0.1329 0.4085
Zn2C Zn 0.0254 0.3671 0.9085
O5C O -0.0203 0.1727 0.3475
N4_2 N -0.0996 0.0346 0.4142
loop_
_geom_bond_atom_site_label_1
_geom_bond_atom_site_label_2
_geom_bond_site_symmetry_1
_geom_bond_site_symmetry_2
Zn1 N1 1_555 1_555
C1 O1 1_555 1_555
N1 C2 1_555 1_555
C2 C7 1_555 1_555
C3 N1 1_555 1_555
N2 C20 1_555 1_555
O2 C1 1_555 1_555
C4 C1 1_555 1_555
C5 C3 1_555 1_555
O3 Zn1 1_555 1_555
C6 C4 1_555 1_555
C7 C8 1_555 1_555
C8 C5 1_555 1_555
C9 C13 1_555 1_555
C10 C8 1_555 1_555
C11 C6 1_555 1_555
C12 C10 1_555 1_555
C13 C11 1_555 1_555
C14 C12 1_555 1_555
C15 C13 1_555 1_555
C16 C14 1_555 1_555
C17 C15 1_555 1_555
C18 C16 1_555 1_555
C19 C15 1_555 1_555
C20 C18 1_555 1_555
C21 C17 1_555 1_555
C22 C16 1_555 1_555
C23 O3 1_555 1_555
C24 C21 1_555 1_555
C25 N2 1_555 1_555
C26 C19 1_555 1_555
O4 C23 1_555 1_555
C27 C4 1_555 1_555
C28 C31 1_555 1_555
Zn2 N3 1_555 1_555
C29 C32 1_555 1_555
C30 C31 1_555 1_555
C32 C30 1_555 1_555
C33 C34 1_555 1_555
C34 C35 1_555 1_555
C35 C36 1_555 1_555
C36 C30 1_555 1_555
C37 C33 1_555 1_555
C38 C37 1_555 1_555
C39 C40 1_555 1_555
C40 C33 1_555 1_555
O5 C41 1_555 1_555
C41 O6 1_555 1_555
N3 C28 1_555 1_555
C42 C41 1_555 1_555
O7 Zn2 1_555 1_555
N4 C38 1_555 1_555
C43 C42 1_555 1_555
O8 C53 1_555 1_555
C44 C42 1_555 1_555
C45 C43 1_555 1_555
C46 C44 1_555 1_555
C47 C45 1_555 1_555
C48 C47 1_555 1_555
C49 C48 1_555 1_555
C50 C48 1_555 1_555
C51 C49 1_555 1_555
C52 C50 1_555 1_555
C53 O7 1_555 1_555
C54 C51 1_555 1_555
Zn1_2 N2 1_555 1_555
Zn1C O2 1_555 1_555
N2_2 Zn1 1_555 1_555
O2C Zn1 1_555 1_555
Zn2_2 N4 1_555 1_555
Zn2C O5 1_555 1_555
O5C Zn2 1_555 1_555
N4_2 Zn2 1_555 1_555
C9 C27 1_555 1_555
C22 C25 1_555 1_555
C23 C24 1_555 1_555
C24 C26 1_555 1_555
C29 N3 1_555 1_555
C39 N4 1_555 1_555
C46 C47 1_555 1_555
C52 C54 1_555 1_555
C53 C54 1_555 1_555

#END
