
#######################################################################
#
#                 Cambridge Crystallographic Data Centre
#                                CCDC 
#
#######################################################################
#
# If this CIF has been generated from an entry in the Cambridge 
# Structural Database, then it will include bibliographic, chemical, 
# crystal, experimental, refinement or atomic coordinate data resulting 
# from the CCDC's data processing and validation procedures.
#
#######################################################################

data_RUJFOS
_symmetry_cell_setting           monoclinic
_symmetry_space_group_name_H-M   'P 21/c'
_symmetry_Int_Tables_number      14
_space_group_name_Hall           '-P 2ybc'
loop_
_symmetry_equiv_pos_site_id
_symmetry_equiv_pos_as_xyz
1 x,y,z
2 -x,1/2+y,1/2-z
3 -x,-y,-z
4 x,1/2-y,1/2+z
_cell_length_a                   11.230(9)
_cell_length_b                   7.726(6)
_cell_length_c                   15.917(12)
_cell_angle_alpha                90
_cell_angle_beta                 106.702(11)
_cell_angle_gamma                90
_cell_volume                     1322.75
loop_
_atom_site_label
_atom_site_type_symbol
_atom_site_fract_x
_atom_site_fract_y
_atom_site_fract_z
Co1 Co 0.30610(11) 0.48888(15) 0.18531(6)
O1 O 0.3297(5) 0.2331(7) 0.1866(3)
O2 O 0.2946(6) 0.3427(7) 0.0556(3)
O3 O 0.3051(5) -0.0294(7) -0.1941(3)
O4 O 0.3885(6) -0.2938(7) -0.1709(3)
N1 N 0.4600(6) -0.3866(9) 0.1590(4)
H1 H 0.4657 -0.3713 0.2136
H2 H 0.4782 -0.4854 0.1412
N2 N 0.1569(6) 0.6369(9) 0.1155(4)
C1 C 0.3496(7) 0.0446(9) 0.0724(4)
C2 C 0.3358(7) 0.0209(10) -0.0181(4)
H3 H 0.3079 0.1117 -0.0572
C3 C 0.3636(7) -0.1365(10) -0.0482(4)
C4 C 0.4074(7) -0.2731(10) 0.0099(4)
H4 H 0.4275 -0.3788 -0.0105
C5 C 0.4205(8) -0.2489(10) 0.0986(5)
C6 C 0.3915(7) -0.0913(10) 0.1280(5)
H5 H 0.4007 -0.0768 0.1875
C7 C 0.3231(8) 0.2177(10) 0.1047(5)
C8 C 0.3539(8) -0.1582(11) -0.1453(4)
C9 C 0.1212(10) 0.7693(12) 0.1564(6)
H6 H 0.1401 0.7657 0.2172
C10 C 0.0593(10) 0.9082(13) 0.1140(5)
H7 H 0.0362 0.9964 0.1459
C11 C 0.0300(8) 0.9208(12) 0.0244(5)
C12 C 0.0621(9) 0.7811(12) -0.0185(6)
H8 H 0.0413 0.7798 -0.0794
C13 C 0.1248(8) 0.6446(12) 0.0288(5)
H9 H 0.1460 0.5523 -0.0016
Co1_2 Co 0.30610(11) 1.48888(15) 0.18531(6)
Co1C Co 0.30610(11) 0.01112(15) -0.31469(6)
Co1_3 Co 0.30610(11) -0.51112(15) 0.18531(6)
Co1B Co -0.30610(11) 1.51112(15) -0.18531(6)
Co1C_2 Co 0.30610(11) 1.01112(15) -0.31469(6)
O1_2 O 0.3297(5) 1.2331(7) 0.1866(3)
O2_2 O 0.2946(6) 1.3427(7) 0.0556(3)
O3_2 O 0.3051(5) 0.9706(7) -0.1941(3)
O3C O 0.3051(5) 0.5294(7) 0.3059(3)
O3C_2 O 0.3051(5) 1.5294(7) 0.3059(3)
O4_2 O 0.3885(6) 0.7062(7) -0.1709(3)
N1_2 N 0.4600(6) 0.6134(9) 0.1590(4)
N1_3 N 0.4600(6) 1.6134(9) 0.1590(4)
H1_2 H 0.4657 0.6287 0.2136
H1_3 H 0.4657 1.6287 0.2136
H2_2 H 0.4782 0.5146 0.1412
H2_3 H 0.4782 1.5146 0.1412
N2B N -0.1569(6) 1.3631(9) -0.1155(4)
N2_2 N 0.1569(6) 1.6369(9) 0.1155(4)
C1_2 C 0.3496(7) 1.0446(9) 0.0724(4)
C2_2 C 0.3358(7) 1.0209(10) -0.0181(4)
H3_2 H 0.3079 1.1117 -0.0572
C3_2 C 0.3636(7) 0.8635(10) -0.0482(4)
C4_2 C 0.4074(7) 0.7269(10) 0.0099(4)
H4_2 H 0.4275 0.6212 -0.0105
C5_2 C 0.4205(8) 0.7511(10) 0.0986(5)
C6_2 C 0.3915(7) 0.9087(10) 0.1280(5)
H5_2 H 0.4007 0.9232 0.1875
C7_2 C 0.3231(8) 1.2177(10) 0.1047(5)
C8_2 C 0.3539(8) 0.8418(11) -0.1453(4)
C9B C -0.1212(10) 1.2307(12) -0.1564(6)
H6B H -0.1401 1.2343 -0.2172
C10B C -0.0593(10) 1.0918(13) -0.1140(5)
H7B H -0.0362 1.0036 -0.1459
C11B C -0.0300(8) 1.0792(12) -0.0244(5)
C12B C -0.0621(9) 1.2189(12) 0.0185(6)
H8B H -0.0413 1.2202 0.0794
C13B C -0.1248(8) 1.3554(12) -0.0288(5)
H9B H -0.1460 1.4477 0.0016
loop_
_geom_bond_atom_site_label_1
_geom_bond_atom_site_label_2
_geom_bond_site_symmetry_1
_geom_bond_site_symmetry_2
Co1 O1 1_555 1_555
O1 C7 1_555 1_555
O2 Co1 1_555 1_555
O3 C8 1_555 1_555
O4 C8 1_555 1_555
N1 H1 1_555 1_555
H2 N1 1_555 1_555
N2 Co1 1_555 1_555
C1 C2 1_555 1_555
C2 H3 1_555 1_555
C3 C2 1_555 1_555
C4 C3 1_555 1_555
H4 C4 1_555 1_555
C5 N1 1_555 1_555
C6 C1 1_555 1_555
H5 C6 1_555 1_555
C7 O2 1_555 1_555
C8 C3 1_555 1_555
C9 N2 1_555 1_555
H6 C9 1_555 1_555
C10 C9 1_555 1_555
H7 C10 1_555 1_555
C11 C10 1_555 1_555
C12 C11 1_555 1_555
H8 C12 1_555 1_555
C13 N2 1_555 1_555
H9 C13 1_555 1_555
Co1_2 O1_2 1_555 1_555
Co1C O3 1_555 1_555
Co1_3 N1 1_555 1_555
Co1B N2B 1_555 1_555
Co1C_2 O3_2 1_555 1_555
O1_2 C7_2 1_555 1_555
O2_2 Co1_2 1_555 1_555
O3_2 C8_2 1_555 1_555
O3C Co1 1_555 1_555
O3C_2 Co1_2 1_555 1_555
O4_2 C8_2 1_555 1_555
N1_2 Co1 1_555 1_555
N1_3 Co1_2 1_555 1_555
H1_2 N1_2 1_555 1_555
H1_3 N1_3 1_555 1_555
H2_2 N1_2 1_555 1_555
H2_3 N1_3 1_555 1_555
N2B C9B 1_555 1_555
N2_2 Co1_2 1_555 1_555
C1_2 C2_2 1_555 1_555
C2_2 H3_2 1_555 1_555
C3_2 C2_2 1_555 1_555
C4_2 C3_2 1_555 1_555
H4_2 C4_2 1_555 1_555
C5_2 N1_2 1_555 1_555
C6_2 C1_2 1_555 1_555
H5_2 C6_2 1_555 1_555
C7_2 O2_2 1_555 1_555
C8_2 C3_2 1_555 1_555
C9B H6B 1_555 1_555
C10B C9B 1_555 1_555
H7B C10B 1_555 1_555
C11B C11 1_555 1_555
C12B C11B 1_555 1_555
H8B C12B 1_555 1_555
C13B N2B 1_555 1_555
H9B C13B 1_555 1_555
C1 C7 1_555 1_555
C4 C5 1_555 1_555
C5 C6 1_555 1_555
C12 C13 1_555 1_555
C1_2 C7_2 1_555 1_555
C4_2 C5_2 1_555 1_555
C5_2 C6_2 1_555 1_555
C10B C11B 1_555 1_555
C12B C13B 1_555 1_555

#END
