
#######################################################################
#
#                 Cambridge Crystallographic Data Centre
#                                CCDC 
#
#######################################################################
#
# If this CIF has been generated from an entry in the Cambridge 
# Structural Database, then it will include bibliographic, chemical, 
# crystal, experimental, refinement or atomic coordinate data resulting 
# from the CCDC's data processing and validation procedures.
#
#######################################################################

data_RUJFUY
_symmetry_cell_setting           monoclinic
_symmetry_space_group_name_H-M   'P 21/c'
_symmetry_Int_Tables_number      14
_space_group_name_Hall           '-P 2ybc'
loop_
_symmetry_equiv_pos_site_id
_symmetry_equiv_pos_as_xyz
1 x,y,z
2 -x,1/2+y,1/2-z
3 -x,-y,-z
4 x,1/2-y,1/2+z
_cell_length_a                   11.976(6)
_cell_length_b                   7.669(4)
_cell_length_c                   15.986(7)
_cell_angle_alpha                90
_cell_angle_beta                 107.529(11)
_cell_angle_gamma                90
_cell_volume                     1400.04
loop_
_atom_site_label
_atom_site_type_symbol
_atom_site_fract_x
_atom_site_fract_y
_atom_site_fract_z
Co1 Co 0.30660(7) 0.49136(9) 0.18455(4)
O1 O 0.3401(4) 0.2337(5) 0.1854(2)
O2 O 0.2946(4) 0.3409(5) 0.0526(2)
O3 O 0.3208(4) -0.0325(5) -0.1922(2)
O4 O 0.3936(4) -0.3003(5) -0.1680(2)
N1 N 0.4561(4) -0.3911(5) 0.1612(3)
H1 H 0.4587 -0.3752 0.2150
H2 H 0.4741 -0.4910 0.1445
N2 N 0.1711(4) 0.6482(6) 0.1149(3)
C1 C 0.3553(5) 0.0446(6) 0.0715(3)
C2 C 0.3452(5) 0.0219(7) -0.0174(3)
H3 H 0.3207 0.1141 -0.0564
C3 C 0.3715(5) -0.1367(7) -0.0470(3)
C4 C 0.4114(5) -0.2751(7) 0.0115(3)
H4 H 0.4306 -0.3815 -0.0085
C5 C 0.4218(5) -0.2514(7) 0.0995(3)
C6 C 0.3937(4) -0.0935(7) 0.1293(3)
H5 H 0.4005 -0.0794 0.1884
C7 C 0.3283(5) 0.2152(7) 0.1034(3)
C8 C 0.3626(5) -0.1622(7) -0.1427(3)
C9 C 0.1333(7) 0.7734(10) 0.1558(4)
H6 H 0.1531 0.7687 0.2166
C10 C 0.0659(7) 0.9112(10) 0.1131(4)
H7 H 0.0416 0.9957 0.1456
C11 C 0.0346(5) 0.9250(8) 0.0244(4)
C12 C 0.0712(7) 0.7902(10) -0.0180(4)
H8 H 0.0503 0.7900 -0.0789
C13 C 0.1374(7) 0.6574(9) 0.0278(4)
H9 H 0.1602 0.5689 -0.0034
Co1C Co 0.30660(7) 0.00864(9) 0.68455(4)
Co1C_2 Co 0.30660(7) 0.00864(9) -0.31545(4)
Co1_2 Co 0.30660(7) -0.50864(9) 0.18455(4)
Co1B Co -0.30660(7) 1.50864(9) -0.18455(4)
Co1C_3 Co 0.30660(7) 1.00864(9) 0.68455(4)
O1C O 0.3401(4) 0.2663(5) 0.6854(2)
O2C O 0.2946(4) 0.1591(5) 0.5526(2)
O3C O 0.3208(4) 0.5325(5) 0.3078(2)
O3_2 O 0.3208(4) -0.0325(5) 0.8078(2)
O4C O 0.3936(4) 0.8003(5) 0.3320(2)
N1C N 0.4561(4) 0.8911(5) 0.6612(3)
N1_2 N 0.4561(4) 0.6089(5) 0.1612(3)
N1C_2 N 0.4561(4) -0.1089(5) 0.6612(3)
H1C H 0.4587 0.8752 0.7150
H1_2 H 0.4587 0.6248 0.2150
H1C_2 H 0.4587 -0.1248 0.7150
H2C H 0.4741 0.9910 0.6445
H2_2 H 0.4741 0.5090 0.1445
H2C_2 H 0.4741 -0.0090 0.6445
N2B N -0.1711(4) 1.3518(6) -0.1149(3)
N2C N 0.1711(4) -0.1482(6) 0.6149(3)
C1C C 0.3553(5) 0.4554(6) 0.5715(3)
C2C C 0.3452(5) 0.4781(7) 0.4826(3)
H3C H 0.3207 0.3859 0.4436
C3C C 0.3715(5) 0.6367(7) 0.4530(3)
C4C C 0.4114(5) 0.7751(7) 0.5115(3)
H4C H 0.4306 0.8815 0.4915
C5C C 0.4218(5) 0.7514(7) 0.5995(3)
C6C C 0.3937(4) 0.5935(7) 0.6293(3)
H5C H 0.4005 0.5794 0.6884
C7C C 0.3283(5) 0.2848(7) 0.6034(3)
C8C C 0.3626(5) 0.6622(7) 0.3573(3)
C9B C -0.1333(7) 1.2266(10) -0.1558(4)
H6B H -0.1531 1.2313 -0.2166
C10B C -0.0659(7) 1.0888(10) -0.1131(4)
H7B H -0.0416 1.0043 -0.1456
C11B C -0.0346(5) 1.0750(8) -0.0244(4)
C12B C -0.0712(7) 1.2098(10) 0.0180(4)
H8B H -0.0503 1.2100 0.0789
C13B C -0.1374(7) 1.3426(9) -0.0278(4)
H9B H -0.1602 1.4311 0.0034
N3 N 0.0689(8) 0.3445(11) 0.2276(5)
C14 C 0.1217(8) 0.2464(12) 0.2740(5)
C15 C 0.1897(9) 0.1115(12) 0.3328(5)
H10 H 0.1400 0.0136 0.3336
H11 H 0.2200 0.1581 0.3910
H12 H 0.2534 0.0746 0.3123
loop_
_geom_bond_atom_site_label_1
_geom_bond_atom_site_label_2
_geom_bond_site_symmetry_1
_geom_bond_site_symmetry_2
Co1 O1 1_555 1_555
O1 C7 1_555 1_555
O2 Co1 1_555 1_555
O3 C8 1_555 1_555
O4 C8 1_555 1_555
N1 H1 1_555 1_555
H2 N1 1_555 1_555
N2 Co1 1_555 1_555
C1 C2 1_555 1_555
C2 H3 1_555 1_555
C3 C2 1_555 1_555
C4 C3 1_555 1_555
H4 C4 1_555 1_555
C5 N1 1_555 1_555
C6 C1 1_555 1_555
H5 C6 1_555 1_555
C7 O2 1_555 1_555
C8 C3 1_555 1_555
C9 N2 1_555 1_555
H6 C9 1_555 1_555
C10 C9 1_555 1_555
H7 C10 1_555 1_555
C11 C10 1_555 1_555
C12 C11 1_555 1_555
H8 C12 1_555 1_555
C13 N2 1_555 1_555
H9 C13 1_555 1_555
N3 C14 1_555 1_555
C14 C15 1_555 1_555
C15 H10 1_555 1_555
H11 C15 1_555 1_555
H12 C15 1_555 1_555
Co1C O1C 1_555 1_555
Co1C_2 O3 1_555 1_555
Co1_2 N1 1_555 1_555
Co1B N2B 1_555 1_555
Co1C_3 N1C 1_555 1_555
O1C C7C 1_555 1_555
O2C Co1C 1_555 1_555
O3C Co1 1_555 1_555
O3_2 Co1C 1_555 1_555
O4C C8C 1_555 1_555
N1C H1C 1_555 1_555
N1_2 Co1 1_555 1_555
N1C_2 Co1C 1_555 1_555
H1_2 N1_2 1_555 1_555
H1C_2 N1C_2 1_555 1_555
H2C N1C 1_555 1_555
H2_2 N1_2 1_555 1_555
H2C_2 N1C_2 1_555 1_555
N2B C9B 1_555 1_555
N2C Co1C 1_555 1_555
C1C C2C 1_555 1_555
C2C H3C 1_555 1_555
C3C C2C 1_555 1_555
C4C C3C 1_555 1_555
H4C C4C 1_555 1_555
C5C N1C 1_555 1_555
C6C C1C 1_555 1_555
H5C C6C 1_555 1_555
C7C O2C 1_555 1_555
C8C O3C 1_555 1_555
C9B H6B 1_555 1_555
C10B C9B 1_555 1_555
H7B C10B 1_555 1_555
C11B C11 1_555 1_555
C12B C11B 1_555 1_555
H8B C12B 1_555 1_555
C13B N2B 1_555 1_555
H9B C13B 1_555 1_555
C1 C7 1_555 1_555
C4 C5 1_555 1_555
C5 C6 1_555 1_555
C12 C13 1_555 1_555
C1C C7C 1_555 1_555
C3C C8C 1_555 1_555
C4C C5C 1_555 1_555
C5C C6C 1_555 1_555
C10B C11B 1_555 1_555
C12B C13B 1_555 1_555

#END
