
#######################################################################
#
#                 Cambridge Crystallographic Data Centre
#                                CCDC 
#
#######################################################################
#
# If this CIF has been generated from an entry in the Cambridge 
# Structural Database, then it will include bibliographic, chemical, 
# crystal, experimental, refinement or atomic coordinate data resulting 
# from the CCDC's data processing and validation procedures.
#
#######################################################################

data_RUJGUY
_symmetry_cell_setting           monoclinic
_symmetry_space_group_name_H-M   'P 21/n'
_symmetry_Int_Tables_number      14
_space_group_name_Hall           '-P 2yn'
loop_
_symmetry_equiv_pos_site_id
_symmetry_equiv_pos_as_xyz
1 x,y,z
2 1/2-x,1/2+y,1/2-z
3 -x,-y,-z
4 1/2+x,1/2-y,1/2+z
_cell_length_a                   15.6620(18)
_cell_length_b                   11.1946(8)
_cell_length_c                   18.3481(15)
_cell_angle_alpha                90
_cell_angle_beta                 93.898(8)
_cell_angle_gamma                90
_cell_volume                     3209.53
loop_
_atom_site_label
_atom_site_type_symbol
_atom_site_fract_x
_atom_site_fract_y
_atom_site_fract_z
Sn1 Sn 0.04412 0.38220 0.20344
Sn2 Sn -0.24887 0.59555 0.24332
S1 S -0.15744 0.33437 0.18573
O1 O -0.06786 0.32477 0.15285
O2 O -0.14959 0.45354 0.22525
O3 O -0.15316 0.24027 0.24490
C1 C 0.12531 0.23786 0.17622
C2 C 0.10406 0.11979 0.18726
H1 H 0.04988 0.10130 0.20605
C3 C 0.15949 0.02824 0.17195
H2 H 0.14342 -0.05338 0.17941
C4 C 0.23783 0.05457 0.14642
H3 H 0.27620 -0.00859 0.13506
C5 C 0.26094 0.17165 0.13691
H4 H 0.31610 0.18968 0.11986
C6 C 0.20556 0.26369 0.15135
H5 H 0.22219 0.34523 0.14443
C7 C 0.07575 0.53828 0.14537
C8 C 0.14981 0.60162 0.16737
H6 H 0.18242 0.57717 0.21102
C9 C 0.17631 0.69847 0.12744
H7 H 0.22778 0.74043 0.14311
C10 C 0.12915 0.73412 0.06489
H8 H 0.14699 0.80105 0.03696
C11 C 0.05478 0.67260 0.04265
H9 H 0.02143 0.69744 -0.00053
C12 C 0.02833 0.57523 0.08228
H10 H -0.02287 0.53292 0.06627
C13 C 0.05291 0.39643 0.31932
C14 C 0.03817 0.50401 0.35331
H11 H 0.01218 0.56876 0.32559
C15 C 0.06106 0.51820 0.42766
H12 H 0.05114 0.59286 0.45140
C16 C 0.09771 0.42439 0.46711
H13 H 0.11467 0.43522 0.51795
C17 C 0.11087 0.31587 0.43459
H14 H 0.13456 0.25035 0.46303
C18 C 0.08921 0.30223 0.35975
H15 H 0.09905 0.22752 0.33604
C19 C -0.14228 0.70974 0.26854
C20 C -0.08683 0.73705 0.21525
H16 H -0.09890 0.70798 0.16641
C21 C -0.01448 0.80550 0.23153
H17 H 0.02361 0.82213 0.19396
C22 C 0.00302 0.84926 0.30124
H18 H 0.05302 0.89721 0.31241
C23 C -0.05236 0.82374 0.35458
H19 H -0.04078 0.85430 0.40313
C24 C -0.12428 0.75381 0.33871
H20 H -0.16203 0.73552 0.37626
C25 C -0.29151 0.50386 0.33609
C26 C -0.23861 0.42152 0.37384
H21 H -0.18372 0.40305 0.35640
C27 C -0.26523 0.36590 0.43654
H22 H -0.22835 0.30976 0.46272
C28 C -0.34479 0.39201 0.46149
H23 H -0.36335 0.35299 0.50424
C29 C -0.39695 0.47327 0.42465
H24 H -0.45186 0.49143 0.44215
C30 C -0.37114 0.53013 0.36239
H25 H -0.40790 0.58743 0.33712
C31 C -0.29803 0.58292 0.13199
C32 C -0.38161 0.61862 0.11140
H26 H -0.41726 0.64853 0.14784
C33 C -0.41318 0.61109 0.03906
H27 H -0.47060 0.63676 0.02569
C34 C -0.36254 0.56773 -0.01370
H28 H -0.38533 0.56040 -0.06341
C35 C -0.27906 0.53423 0.00539
H29 H -0.24301 0.50635 -0.03132
C36 C -0.24713 0.54151 0.07766
H30 H -0.18927 0.51765 0.09091
O3A O -0.34684 0.74027 0.25510
Sn2A Sn -0.25113 0.09555 0.25668
loop_
_geom_bond_atom_site_label_1
_geom_bond_atom_site_label_2
_geom_bond_site_symmetry_1
_geom_bond_site_symmetry_2
Sn1 O1 1_555 1_555
Sn2 O2 1_555 1_555
S1 O1 1_555 1_555
O2 S1 1_555 1_555
O3 S1 1_555 1_555
C1 Sn1 1_555 1_555
C2 C1 1_555 1_555
H1 C2 1_555 1_555
C3 C2 1_555 1_555
H2 C3 1_555 1_555
C4 C3 1_555 1_555
H3 C4 1_555 1_555
C5 C4 1_555 1_555
H4 C5 1_555 1_555
C6 C1 1_555 1_555
H5 C6 1_555 1_555
C7 Sn1 1_555 1_555
C8 C7 1_555 1_555
H6 C8 1_555 1_555
C9 C8 1_555 1_555
H7 C9 1_555 1_555
C10 C9 1_555 1_555
H8 C10 1_555 1_555
C11 C10 1_555 1_555
H9 C11 1_555 1_555
C12 C7 1_555 1_555
H10 C12 1_555 1_555
C13 Sn1 1_555 1_555
C14 C13 1_555 1_555
H11 C14 1_555 1_555
C15 C14 1_555 1_555
H12 C15 1_555 1_555
C16 C15 1_555 1_555
H13 C16 1_555 1_555
C17 C16 1_555 1_555
H14 C17 1_555 1_555
C18 C13 1_555 1_555
H15 C18 1_555 1_555
C19 Sn2 1_555 1_555
C20 C19 1_555 1_555
H16 C20 1_555 1_555
C21 C20 1_555 1_555
H17 C21 1_555 1_555
C22 C21 1_555 1_555
H18 C22 1_555 1_555
C23 C22 1_555 1_555
H19 C23 1_555 1_555
C24 C19 1_555 1_555
H20 C24 1_555 1_555
C25 Sn2 1_555 1_555
C26 C25 1_555 1_555
H21 C26 1_555 1_555
C27 C26 1_555 1_555
H22 C27 1_555 1_555
C28 C27 1_555 1_555
H23 C28 1_555 1_555
C29 C28 1_555 1_555
H24 C29 1_555 1_555
C30 C25 1_555 1_555
H25 C30 1_555 1_555
C31 Sn2 1_555 1_555
C32 C31 1_555 1_555
H26 C32 1_555 1_555
C33 C32 1_555 1_555
H27 C33 1_555 1_555
C34 C33 1_555 1_555
H28 C34 1_555 1_555
C35 C34 1_555 1_555
H29 C35 1_555 1_555
C36 C31 1_555 1_555
H30 C36 1_555 1_555
O3A Sn2 1_555 1_555
Sn2A O3 1_555 1_555
C5 C6 1_555 1_555
C11 C12 1_555 1_555
C17 C18 1_555 1_555
C23 C24 1_555 1_555
C29 C30 1_555 1_555
C35 C36 1_555 1_555

#END
