
#######################################################################
#
#                 Cambridge Crystallographic Data Centre
#                                CCDC 
#
#######################################################################
#
# If this CIF has been generated from an entry in the Cambridge 
# Structural Database, then it will include bibliographic, chemical, 
# crystal, experimental, refinement or atomic coordinate data resulting 
# from the CCDC's data processing and validation procedures.
#
#######################################################################

data_RUJGOU
_symmetry_cell_setting           monoclinic
_symmetry_space_group_name_H-M   'P 21/n'
_symmetry_Int_Tables_number      14
_space_group_name_Hall           '-P 2yn'
loop_
_symmetry_equiv_pos_site_id
_symmetry_equiv_pos_as_xyz
1 x,y,z
2 1/2-x,1/2+y,1/2-z
3 -x,-y,-z
4 1/2+x,1/2-y,1/2+z
_cell_length_a                   12.4686(7)
_cell_length_b                   16.8975(10)
_cell_length_c                   15.7680(7)
_cell_angle_alpha                90
_cell_angle_beta                 97.6420(12)
_cell_angle_gamma                90
_cell_volume                     3292.62
loop_
_atom_site_label
_atom_site_type_symbol
_atom_site_fract_x
_atom_site_fract_y
_atom_site_fract_z
Eu1 Eu 0.739447(19) 0.807572(15) 0.264248(16)
Ni1 Ni 0.50483(5) 0.73904(4) 0.34072(4)
O1 O 0.8724(3) 0.7297(2) 0.3680(3)
O2 O 0.6649(2) 0.71261(19) 0.3496(2)
O3 O 0.5527(3) 0.82946(19) 0.2701(2)
O4 O 0.6671(3) 0.9421(2) 0.2176(2)
O5 O 0.7319(3) 0.8786(2) 0.4009(2)
O6 O 0.8673(3) 0.9044(2) 0.3309(2)
O7 O 0.6552(4) 0.7867(2) 0.1130(3)
O8 O 0.7310(4) 0.6847(2) 0.1754(3)
O9 O 0.6621(5) 0.6790(3) 0.0421(3)
O10 O 0.8850(5) 0.8192(5) 0.1797(4)
O11 O 1.0549(5) 0.8362(5) 0.2036(5)
O12 O 0.9550(6) 0.9253(6) 0.1434(5)
O13 O 0.5501(3) 0.8154(2) 0.4507(3)
H1 H 0.6048 0.8504 0.4415
N1 N 0.4797(4) 0.6480(3) 0.4192(3)
N2 N 0.3530(3) 0.7841(3) 0.3296(3)
N3 N 0.9632(4) 0.8315(3) 0.7310(3)
N4 N 0.6828(4) 0.7158(3) 0.1085(3)
N5 N 0.9646(6) 0.8565(6) 0.1777(4)
C1 C 0.9866(5) 0.7455(4) 0.3815(5)
H2 H 1.0058 0.7769 0.3350
H3 H 1.0258 0.6965 0.3842
H4 H 1.0046 0.7739 0.4343
C2 C 0.8324(4) 0.6840(3) 0.4294(3)
C3 C 0.8967(5) 0.6475(4) 0.4968(4)
H5 H 0.9715 0.6538 0.5042
C4 C 0.8473(5) 0.6019(4) 0.5525(4)
H6 H 0.8895 0.5762 0.5973
C5 C 0.7374(5) 0.5937(3) 0.5433(4)
H7 H 0.7058 0.5633 0.5824
C6 C 0.6711(4) 0.6306(3) 0.4749(3)
C7 C 0.7191(4) 0.6761(3) 0.4163(3)
C8 C 0.5559(5) 0.6156(3) 0.4703(4)
H8 H 0.5350 0.5786 0.5086
C9 C 0.3688(5) 0.6201(4) 0.4228(4)
H9 H 0.3460 0.5883 0.3725
H10 H 0.3689 0.5863 0.4725
C10 C 0.2894(5) 0.6837(4) 0.4274(5)
H11 H 0.3161 0.7181 0.4748
H12 H 0.2227 0.6600 0.4406
C11 C 0.2631(5) 0.7343(5) 0.3484(5)
H13 H 0.2416 0.7000 0.2997
H14 H 0.2019 0.7679 0.3556
C12 C 0.3288(4) 0.8549(4) 0.3072(4)
H15 H 0.2569 0.8697 0.3071
C13 C 0.4016(4) 0.9152(3) 0.2818(3)
C14 C 0.3595(5) 0.9923(4) 0.2700(4)
H16 H 0.2893 1.0026 0.2808
C15 C 0.4194(6) 1.0515(4) 0.2434(5)
H17 H 0.3903 1.1022 0.2366
C16 C 0.5241(5) 1.0378(3) 0.2258(4)
H18 H 0.5653 1.0788 0.2078
C17 C 0.5652(4) 0.9634(3) 0.2354(3)
C18 C 0.5070(4) 0.8995(3) 0.2637(3)
C19 C 0.7285(6) 1.0014(4) 0.1790(5)
H19 H 0.7986 0.9806 0.1724
H20 H 0.7367 1.0474 0.2150
H21 H 0.6911 1.0155 0.1239
C20 C 0.8152(4) 0.9185(3) 0.3922(3)
C21 C 0.8480(5) 0.9848(4) 0.4504(4)
H22 H 0.8257 1.0335 0.4206
H23 H 0.9264 0.9852 0.4611
C22 C 0.8062(5) 0.9865(3) 0.5356(4)
H24 H 0.8120 1.0402 0.5576
H25 H 0.7301 0.9726 0.5270
C23 C 0.8639(4) 0.9322(3) 0.6013(3)
C24 C 0.9351(5) 0.9609(3) 0.6702(4)
H26 H 0.9511 1.0147 0.6744
C25 C 0.9815(4) 0.9093(4) 0.7316(4)
H27 H 1.0288 0.9299 0.7767
C26 C 0.8996(5) 0.8035(3) 0.6629(4)
H28 H 0.8896 0.7491 0.6585
C27 C 0.8483(5) 0.8504(3) 0.5990(4)
H29 H 0.8030 0.8276 0.5540
C28 C 0.5179(7) 0.8255(5) 0.5326(5)
H30 H 0.4801 0.7781 0.5468
H31 H 0.5823 0.8305 0.5741
C29 C 0.4510(9) 0.8911(7) 0.5408(7)
H32 H 0.4266 0.8900 0.5961
H33 H 0.3897 0.8892 0.4971
H34 H 0.4910 0.9389 0.5350
Ni1C Ni 1.00483(5) 0.76096(4) 0.84072(4)
N3C N 0.4632(4) 0.6685(3) 0.2310(3)
loop_
_geom_bond_atom_site_label_1
_geom_bond_atom_site_label_2
_geom_bond_site_symmetry_1
_geom_bond_site_symmetry_2
Eu1 O1 1_555 1_555
Ni1 O2 1_555 1_555
O1 C1 1_555 1_555
O2 Eu1 1_555 1_555
O3 Eu1 1_555 1_555
O4 Eu1 1_555 1_555
O5 Eu1 1_555 1_555
O6 Eu1 1_555 1_555
O7 Eu1 1_555 1_555
O8 Eu1 1_555 1_555
O9 N4 1_555 1_555
O10 Eu1 1_555 1_555
O11 N5 1_555 1_555
O12 N5 1_555 1_555
O13 Ni1 1_555 1_555
H1 O13 1_555 1_555
N1 Ni1 1_555 1_555
N2 Ni1 1_555 1_555
N3 C25 1_555 1_555
N4 O7 1_555 1_555
N5 O10 1_555 1_555
C1 H2 1_555 1_555
H3 C1 1_555 1_555
H4 C1 1_555 1_555
C2 O1 1_555 1_555
C3 C2 1_555 1_555
H5 C3 1_555 1_555
C4 C3 1_555 1_555
H6 C4 1_555 1_555
C5 C4 1_555 1_555
H7 C5 1_555 1_555
C6 C5 1_555 1_555
C7 O2 1_555 1_555
C8 N1 1_555 1_555
H8 C8 1_555 1_555
C9 N1 1_555 1_555
H9 C9 1_555 1_555
H10 C9 1_555 1_555
C10 C9 1_555 1_555
H11 C10 1_555 1_555
H12 C10 1_555 1_555
C11 N2 1_555 1_555
H13 C11 1_555 1_555
H14 C11 1_555 1_555
C12 N2 1_555 1_555
H15 C12 1_555 1_555
C13 C12 1_555 1_555
C14 C13 1_555 1_555
H16 C14 1_555 1_555
C15 C14 1_555 1_555
H17 C15 1_555 1_555
C16 C15 1_555 1_555
H18 C16 1_555 1_555
C17 O4 1_555 1_555
C18 O3 1_555 1_555
C19 O4 1_555 1_555
H19 C19 1_555 1_555
H20 C19 1_555 1_555
H21 C19 1_555 1_555
C20 O5 1_555 1_555
C21 C20 1_555 1_555
H22 C21 1_555 1_555
H23 C21 1_555 1_555
C22 C21 1_555 1_555
H24 C22 1_555 1_555
H25 C22 1_555 1_555
C23 C22 1_555 1_555
C24 C23 1_555 1_555
H26 C24 1_555 1_555
C25 C24 1_555 1_555
H27 C25 1_555 1_555
C26 N3 1_555 1_555
H28 C26 1_555 1_555
C27 C23 1_555 1_555
H29 C27 1_555 1_555
C28 O13 1_555 1_555
H30 C28 1_555 1_555
H31 C28 1_555 1_555
C29 C28 1_555 1_555
H32 C29 1_555 1_555
H33 C29 1_555 1_555
H34 C29 1_555 1_555
Ni1C N3 1_555 1_555
N3C Ni1 1_555 1_555
Ni1 O3 1_555 1_555
O6 C20 1_555 1_555
O8 N4 1_555 1_555
C2 C7 1_555 1_555
C6 C7 1_555 1_555
C6 C8 1_555 1_555
C10 C11 1_555 1_555
C13 C18 1_555 1_555
C16 C17 1_555 1_555
C17 C18 1_555 1_555
C26 C27 1_555 1_555

#END
