
#######################################################################
#
#                 Cambridge Crystallographic Data Centre
#                                CCDC 
#
#######################################################################
#
# If this CIF has been generated from an entry in the Cambridge 
# Structural Database, then it will include bibliographic, chemical, 
# crystal, experimental, refinement or atomic coordinate data resulting 
# from the CCDC's data processing and validation procedures.
#
#######################################################################

data_RUJGIN
_symmetry_cell_setting           monoclinic
_symmetry_space_group_name_H-M   'C 2/c'
_symmetry_Int_Tables_number      15
_space_group_name_Hall           '-C 2yn'
loop_
_symmetry_equiv_pos_site_id
_symmetry_equiv_pos_as_xyz
1 x,y,z
2 -x,y,1/2-z
3 1/2+x,1/2+y,z
4 1/2-x,1/2+y,1/2-z
5 -x,-y,-z
6 x,-y,1/2+z
7 1/2-x,1/2-y,-z
8 1/2+x,1/2-y,1/2+z
_cell_length_a                   17.993(4)
_cell_length_b                   10.644(2)
_cell_length_c                   11.531(2)
_cell_angle_alpha                90
_cell_angle_beta                 91.23(3)
_cell_angle_gamma                90
_cell_volume                     2207.88
loop_
_atom_site_label
_atom_site_type_symbol
_atom_site_fract_x
_atom_site_fract_y
_atom_site_fract_z
O1 O 0.0207(2) 0.6156(4) 0.9402(4)
Mn1 Mn 0.0000 0.62645(13) 0.7500
O2 O 0.1122(3) 0.3697(5) 0.8472(4)
O3 O 0.0833(2) 0.7692(4) 0.7322(4)
O4 O 0.1455(2) 0.7118(4) 0.5737(4)
C1 C 0.1305(3) 0.7854(6) 0.6547(5)
Mn2 Mn 0.08658(5) 0.45829(9) 1.00867(8)
O5 O 0.3103(3) 1.0647(4) 0.4918(4)
N1 N 0.2613(3) 1.0424(5) 0.5757(5)
C2 C 0.2233(4) 0.9333(6) 0.5757(6)
C3 C 0.1620(4) 0.9963(7) 0.7459(7)
C4 C 0.2009(4) 1.1075(7) 0.7434(7)
H1 H 0.1937 1.1676 0.8005
C5 C 0.1731(3) 0.9075(6) 0.6603(5)
C6 C 0.2501(4) 1.1296(7) 0.6575(7)
O6 O 0.0789(2) 0.4833(4) 0.6928(4)
C7 C 0.1134(4) 0.3973(8) 0.7444(7)
H2 H 0.235(3) 0.882(6) 0.515(5)
H3 H 0.277(4) 1.210(8) 0.639(7)
H4 H 0.126(5) 0.971(7) 0.802(7)
C8 C 0.0389(5) 0.7407(8) 0.9912(7)
H5 H 0.0474 0.7322 1.0733
H6 H -0.0019 0.7973 0.9771
H7 H 0.0828 0.7734 0.9562
H8 H 0.128(5) 0.345(9) 0.686(8)
O1A O -0.0207(2) 0.6156(4) 0.5598(4)
O1D O -0.0207(2) 0.3844(4) 1.0598(4)
O1E O 0.0207(2) 0.3844(4) 0.4402(4)
O2A O -0.1122(3) 0.3697(5) 0.6528(4)
O3A O -0.0833(2) 0.7692(4) 0.7678(4)
O4A O -0.1455(2) 0.7118(4) 0.9263(4)
O4E O 0.1455(2) 0.2882(4) 1.0737(4)
O4D O -0.1455(2) 0.2882(4) 0.4263(4)
C1A C -0.1305(3) 0.7854(6) 0.8453(5)
Mn2A Mn -0.08658(5) 0.45829(9) 0.49133(8)
Mn2D Mn -0.08658(5) 0.54171(9) 0.99133(8)
Mn2E Mn 0.08658(5) 0.54171(9) 0.50867(8)
Mn2C Mn 0.41342(5) 0.95829(9) 0.49133(8)
Mn2B Mn -0.41342(5) 0.95829(9) 1.00867(8)
O5A O -0.3103(3) 1.0647(4) 1.0082(4)
O5C O 0.1897(3) 0.5647(4) 1.0082(4)
O5B O -0.1897(3) 0.5647(4) 0.4918(4)
N1A N -0.2613(3) 1.0424(5) 0.9243(5)
C2A C -0.2233(4) 0.9333(6) 0.9243(6)
C3A C -0.1620(4) 0.9963(7) 0.7541(7)
C4A C -0.2009(4) 1.1075(7) 0.7566(7)
H1A H -0.1937 1.1676 0.6995
C5A C -0.1731(3) 0.9075(6) 0.8397(5)
C6A C -0.2501(4) 1.1296(7) 0.8425(7)
O6A O -0.0789(2) 0.4833(4) 0.8072(4)
O6E O 0.0789(2) 0.5167(4) 1.1928(4)
O6D O -0.0789(2) 0.5167(4) 0.3072(4)
C7A C -0.1134(4) 0.3973(8) 0.7556(7)
H2A H -0.235(3) 0.882(6) 0.985(5)
H3A H -0.277(4) 1.210(8) 0.861(7)
H4A H -0.126(5) 0.971(7) 0.698(7)
C8A C -0.0389(5) 0.7407(8) 0.5088(7)
H5A H -0.0474 0.7322 0.4267
H6A H 0.0019 0.7973 0.5229
H7A H -0.0828 0.7734 0.5438
H8A H -0.128(5) 0.345(9) 0.814(8)
loop_
_geom_bond_atom_site_label_1
_geom_bond_atom_site_label_2
_geom_bond_site_symmetry_1
_geom_bond_site_symmetry_2
O1 Mn1 1_555 1_555
Mn1 O3 1_555 1_555
O2 Mn2 1_555 1_555
O3 C1 1_555 1_555
O4 C1 1_555 1_555
C1 C5 1_555 1_555
Mn2 O1 1_555 1_555
O5 N1 1_555 1_555
N1 C2 1_555 1_555
C2 C5 1_555 1_555
C3 C4 1_555 1_555
C4 H1 1_555 1_555
C5 C3 1_555 1_555
C6 N1 1_555 1_555
O6 Mn1 1_555 1_555
C7 O2 1_555 1_555
H2 C2 1_555 1_555
H3 C6 1_555 1_555
H4 C3 1_555 1_555
C8 O1 1_555 1_555
H5 C8 1_555 1_555
H6 C8 1_555 1_555
H7 C8 1_555 1_555
H8 C7 1_555 1_555
O1A Mn1 1_555 1_555
O1D Mn2 1_555 1_555
O1E Mn2A 1_555 1_555
O2A Mn2A 1_555 1_555
O3A Mn1 1_555 1_555
O4A C1A 1_555 1_555
O4E Mn2 1_555 1_555
O4D Mn2A 1_555 1_555
C1A O3A 1_555 1_555
Mn2A O1A 1_555 1_555
Mn2D O1 1_555 1_555
Mn2E O4 1_555 1_555
Mn2C O5 1_555 1_555
Mn2B O5A 1_555 1_555
O5A N1A 1_555 1_555
O5C Mn2 1_555 1_555
O5B Mn2A 1_555 1_555
N1A C2A 1_555 1_555
C2A C5A 1_555 1_555
C3A C4A 1_555 1_555
C4A H1A 1_555 1_555
C5A C1A 1_555 1_555
C6A N1A 1_555 1_555
O6A Mn1 1_555 1_555
O6E Mn2 1_555 1_555
O6D Mn2A 1_555 1_555
C7A O2A 1_555 1_555
H2A C2A 1_555 1_555
H3A C6A 1_555 1_555
H4A C3A 1_555 1_555
C8A O1A 1_555 1_555
H5A C8A 1_555 1_555
H6A C8A 1_555 1_555
H7A C8A 1_555 1_555
H8A C7A 1_555 1_555
C4 C6 1_555 1_555
O6 C7 1_555 1_555
O6 Mn2E 1_555 1_555
O1A Mn2E 1_555 1_555
O1D Mn2D 1_555 1_555
O1E Mn2E 1_555 1_555
O4A Mn2D 1_555 1_555
Mn2D O6A 1_555 1_555
C3A C5A 1_555 1_555
C4A C6A 1_555 1_555
O6A C7A 1_555 1_555

#END
