
#######################################################################
#
#                 Cambridge Crystallographic Data Centre
#                                CCDC 
#
#######################################################################
#
# If this CIF has been generated from an entry in the Cambridge 
# Structural Database, then it will include bibliographic, chemical, 
# crystal, experimental, refinement or atomic coordinate data resulting 
# from the CCDC's data processing and validation procedures.
#
#######################################################################

data_RUJPUI
_symmetry_cell_setting           triclinic
_symmetry_space_group_name_H-M   'P -1'
_symmetry_Int_Tables_number      2
_space_group_name_Hall           '-P 1'
loop_
_symmetry_equiv_pos_site_id
_symmetry_equiv_pos_as_xyz
1 x,y,z
2 -x,-y,-z
_cell_length_a                   11.1128(14)
_cell_length_b                   12.1225(15)
_cell_length_c                   12.5344(12)
_cell_angle_alpha                65.501(8)
_cell_angle_beta                 64.216(8)
_cell_angle_gamma                80.144(10)
_cell_volume                     1383.48
loop_
_atom_site_label
_atom_site_type_symbol
_atom_site_fract_x
_atom_site_fract_y
_atom_site_fract_z
K1 K 0.10124(4) 0.69989(3) 0.47189(4)
S1 S -0.11089(5) 0.85795(4) 0.36566(5)
S2 S -0.14595(5) 1.02859(4) 0.36755(4)
S3 S -0.18089(5) 0.72628(4) 0.73988(5)
S4 S -0.21527(5) 0.89570(4) 0.74412(5)
O1 O -0.18078(14) 0.50909(12) 0.37602(14)
O2 O -0.05044(13) 0.62148(12) 0.38584(13)
O3 O -0.15180(14) 1.25033(11) 0.36208(13)
O4 O -0.10686(16) 1.42661(12) 0.19298(14)
H1 H -0.1205 1.4501 0.2516
O5 O -0.26289(15) 0.39481(12) 0.71346(15)
O6 O -0.12413(14) 0.52227(12) 0.69055(13)
H2 H -0.0681 0.4729 0.6651
O7 O -0.24704(17) 1.12001(13) 0.73863(15)
O8 O -0.35737(16) 1.17734(13) 0.90442(15)
H3 H -0.3404 1.2465 0.8453
C1 C -0.16289(19) 0.59591(15) 0.39708(17)
C2 C -0.28063(18) 0.67230(16) 0.43990(17)
C3 C -0.27134(19) 0.79009(16) 0.43074(18)
C4 C -0.3891(2) 0.85270(18) 0.4727(2)
H4 H -0.3841 0.9329 0.4659
C5 C -0.5130(2) 0.79911(19) 0.5240(2)
H5 H -0.5920 0.8426 0.5528
C6 C -0.5225(2) 0.68233(19) 0.5337(2)
H6 H -0.6073 0.6455 0.5687
C7 C -0.4064(2) 0.62073(17) 0.49141(19)
H7 H -0.4124 0.5409 0.4977
C8 C -0.12319(18) 1.12228(16) 0.20589(17)
C9 C -0.10333(18) 1.24877(16) 0.15911(17)
C10 C -0.07086(19) 1.31939(17) 0.02933(18)
H8 H -0.0549 1.4039 -0.0022
C11 C -0.0616(2) 1.26811(18) -0.05393(19)
H9 H -0.0371 1.3163 -0.1425
C12 C -0.0886(2) 1.14551(18) -0.00653(19)
H10 H -0.0863 1.1105 -0.0626
C13 C -0.11874(19) 1.07327(17) 0.12099(19)
H11 H -0.1367 0.9893 0.1514
C14 C -0.12207(18) 1.30683(16) 0.24805(18)
C15 C -0.24360(19) 0.48523(16) 0.72586(17)
C16 C -0.35667(19) 0.55786(16) 0.78225(17)
C17 C -0.34242(19) 0.66648(16) 0.79195(18)
C18 C -0.4573(2) 0.72519(17) 0.84645(19)
H12 H -0.4492 0.7984 0.8535
C19 C -0.5836(2) 0.67896(18) 0.8907(2)
H13 H -0.6607 0.7207 0.9273
C20 C -0.5976(2) 0.57180(19) 0.8818(2)
H14 H -0.6839 0.5395 0.9128
C21 C -0.4851(2) 0.51311(17) 0.8276(2)
H15 H -0.4947 0.4402 0.8208
C22 C -0.26830(19) 0.87097(17) 0.90953(19)
C23 C -0.31293(19) 0.96936(17) 0.94902(19)
C24 C -0.3623(2) 0.94877(19) 1.0790(2)
H16 H -0.3940 1.0151 1.1055
C25 C -0.3657(2) 0.8334(2) 1.1700(2)
H17 H -0.4004 0.8201 1.2583
C26 C -0.3180(2) 0.73762(19) 1.1302(2)
H18 H -0.3172 0.6585 1.1916
C27 C -0.2713(2) 0.75535(18) 1.0023(2)
H19 H -0.2410 0.6881 0.9774
C28 C -0.3029(2) 1.09482(17) 0.8536(2)
K1A K -0.10124(4) 0.30011(3) 0.52811(4)
K1A_2 K -0.10124(4) 1.30011(3) 0.52811(4)
O1A O 0.18078(14) 0.49091(12) 0.62398(14)
O3A O 0.15180(14) 0.74967(11) 0.63792(13)
O5A O 0.26289(15) 0.60519(12) 0.28654(15)
O7A O 0.24704(17) 0.87999(13) 0.26137(15)
loop_
_geom_bond_atom_site_label_1
_geom_bond_atom_site_label_2
_geom_bond_site_symmetry_1
_geom_bond_site_symmetry_2
K1 S1 1_555 1_555
S1 S2 1_555 1_555
S2 C8 1_555 1_555
S3 K1 1_555 1_555
S4 S3 1_555 1_555
O1 C1 1_555 1_555
O2 K1 1_555 1_555
O3 C14 1_555 1_555
O4 H1 1_555 1_555
O5 C15 1_555 1_555
O6 K1 1_555 1_555
H2 O6 1_555 1_555
O7 C28 1_555 1_555
O8 H3 1_555 1_555
C1 O2 1_555 1_555
C2 C1 1_555 1_555
C3 S1 1_555 1_555
C4 C3 1_555 1_555
H4 C4 1_555 1_555
C5 C4 1_555 1_555
H5 C5 1_555 1_555
C6 C5 1_555 1_555
H6 C6 1_555 1_555
C7 C2 1_555 1_555
H7 C7 1_555 1_555
C8 C9 1_555 1_555
C9 C10 1_555 1_555
C10 H8 1_555 1_555
C11 C10 1_555 1_555
H9 C11 1_555 1_555
C12 C11 1_555 1_555
H10 C12 1_555 1_555
C13 C8 1_555 1_555
H11 C13 1_555 1_555
C14 O4 1_555 1_555
C15 O6 1_555 1_555
C16 C15 1_555 1_555
C17 S3 1_555 1_555
C18 C17 1_555 1_555
H12 C18 1_555 1_555
C19 C18 1_555 1_555
H13 C19 1_555 1_555
C20 C19 1_555 1_555
H14 C20 1_555 1_555
C21 C16 1_555 1_555
H15 C21 1_555 1_555
C22 S4 1_555 1_555
C23 C22 1_555 1_555
C24 C23 1_555 1_555
H16 C24 1_555 1_555
C25 C24 1_555 1_555
H17 C25 1_555 1_555
C26 C25 1_555 1_555
H18 C26 1_555 1_555
C27 C22 1_555 1_555
H19 C27 1_555 1_555
C28 O8 1_555 1_555
K1A O1 1_555 1_555
K1A_2 O3 1_555 1_555
O1A K1 1_555 1_555
O3A K1 1_555 1_555
O5A K1 1_555 1_555
O7A K1 1_555 1_555
O5 K1A 1_555 1_555
O7 K1A_2 1_555 1_555
C2 C3 1_555 1_555
C6 C7 1_555 1_555
C9 C14 1_555 1_555
C12 C13 1_555 1_555
C16 C17 1_555 1_555
C20 C21 1_555 1_555
C23 C28 1_555 1_555
C26 C27 1_555 1_555

#END
