
#######################################################################
#
#                 Cambridge Crystallographic Data Centre
#                                CCDC 
#
#######################################################################
#
# If this CIF has been generated from an entry in the Cambridge 
# Structural Database, then it will include bibliographic, chemical, 
# crystal, experimental, refinement or atomic coordinate data resulting 
# from the CCDC's data processing and validation procedures.
#
#######################################################################

data_RUJWOJ
_symmetry_cell_setting           monoclinic
_symmetry_space_group_name_H-M   'P 21/n'
_symmetry_Int_Tables_number      14
_space_group_name_Hall           '-P 2yn'
loop_
_symmetry_equiv_pos_site_id
_symmetry_equiv_pos_as_xyz
1 x,y,z
2 1/2-x,1/2+y,1/2-z
3 -x,-y,-z
4 1/2+x,1/2-y,1/2+z
_cell_length_a                   7.4643(19)
_cell_length_b                   9.237(2)
_cell_length_c                   15.540(4)
_cell_angle_alpha                90
_cell_angle_beta                 94.995(5)
_cell_angle_gamma                90
_cell_volume                     1067.38
loop_
_atom_site_label
_atom_site_type_symbol
_atom_site_fract_x
_atom_site_fract_y
_atom_site_fract_z
C1 C 0.7339(6) 0.0505(4) 1.2294(3)
C2 C 0.5779(5) 0.1114(4) 1.2367(3)
H1 H 0.4983 0.1314 1.1887
C3 C 0.5396(6) 0.1428(6) 1.3157(3)
H2 H 0.4303 0.1874 1.3231
C4 C 0.6536(6) 0.1128(5) 1.3880(3)
H3 H 0.6184 0.1348 1.4424
C5 C 0.8544(6) 0.0214(4) 1.3009(3)
H4 H 0.9649 -0.0205 1.2925
C6 C 0.7294(5) 0.0763(4) 1.0750(3)
C7 C 0.6613(6) 0.2146(4) 1.0714(3)
H5 H 0.6460 0.2626 1.1228
C8 C 0.6390(6) 0.2111(5) 0.9241(3)
H6 H 0.6069 0.2562 0.8715
C9 C 0.7086(6) 0.0722(5) 0.9241(3)
H7 H 0.7246 0.0265 0.8720
C10 C 0.7733(5) 0.6416(5) 0.8768(3)
Co1 Co 0.5000 0.5000 1.0000
N1 N 0.6163(4) 0.2826(4) 0.9971(2)
N2 N 0.8155(4) 0.0520(4) 1.3808(2)
N3 N 0.6824(5) 0.5768(4) 0.9204(2)
N4 N 0.7546(6) 0.0010(5) 1.0012(3)
O1 O 0.7860(5) 0.0057(3) 1.15134(19)
S1 S 0.89905(17) 0.73196(15) 0.81617(9)
C1B C 0.2661(6) 0.9495(4) 0.7706(3)
C2B C 0.4221(5) 0.8886(4) 0.7633(3)
H1B H 0.5017 0.8686 0.8113
C3B C 0.4604(6) 0.8572(6) 0.6843(3)
H2B H 0.5697 0.8126 0.6769
C4B C 0.3464(6) 0.8872(5) 0.6120(3)
H3B H 0.3816 0.8652 0.5576
C5B C 0.1456(6) 0.9786(4) 0.6991(3)
H4B H 0.0351 1.0205 0.7075
C6B C 0.2706(5) 0.9237(4) 0.9250(3)
C7B C 0.3387(6) 0.7854(4) 0.9286(3)
H5B H 0.3540 0.7374 0.8772
C8B C 0.3610(6) 0.7889(5) 1.0759(3)
H6B H 0.3931 0.7438 1.1285
C9B C 0.2914(6) 0.9278(5) 1.0759(3)
H7B H 0.2754 0.9735 1.1280
C10B C 0.2267(5) 0.3584(5) 1.1232(3)
Co1C Co 1.0000 0.0000 1.5000
Co1C_2 Co 0.0000 1.0000 0.5000
N1B N 0.3837(4) 0.7174(4) 1.0029(2)
N2B N 0.1845(4) 0.9480(4) 0.6192(2)
N2A N 0.6845(4) 0.5520(4) 1.1192(2)
N2C N 0.3155(4) 0.4480(4) 0.8808(2)
N3B N 0.3176(5) 0.4232(4) 1.0796(2)
N4B N 0.2454(6) 0.9990(5) 0.9988(3)
O1B O 0.2140(5) 0.9943(3) 0.84866(19)
S1B S 0.10095(17) 0.26804(15) 1.18383(9)
loop_
_geom_bond_atom_site_label_1
_geom_bond_atom_site_label_2
_geom_bond_site_symmetry_1
_geom_bond_site_symmetry_2
C1 C2 1_555 1_555
C2 H1 1_555 1_555
C3 C2 1_555 1_555
H2 C3 1_555 1_555
C4 C3 1_555 1_555
H3 C4 1_555 1_555
C5 C1 1_555 1_555
H4 C5 1_555 1_555
C6 C7 1_555 1_555
C7 H5 1_555 1_555
C8 H6 1_555 1_555
C9 C8 1_555 1_555
H7 C9 1_555 1_555
C10 N3 1_555 1_555
Co1 N1 1_555 1_555
N1 C7 1_555 1_555
N2 C4 1_555 1_555
N3 Co1 1_555 1_555
N4 C6 1_555 1_555
O1 C1 1_555 1_555
S1 C10 1_555 1_555
C1B C2B 1_555 1_555
C2B H1B 1_555 1_555
C3B C2B 1_555 1_555
H2B C3B 1_555 1_555
C4B C3B 1_555 1_555
H3B C4B 1_555 1_555
C5B C1B 1_555 1_555
H4B C5B 1_555 1_555
C6B C7B 1_555 1_555
C7B H5B 1_555 1_555
C8B H6B 1_555 1_555
C9B C8B 1_555 1_555
H7B C9B 1_555 1_555
C10B N3B 1_555 1_555
Co1C N2 1_555 1_555
Co1C_2 N2B 1_555 1_555
N1B Co1 1_555 1_555
N2B C4B 1_555 1_555
N2A Co1 1_555 1_555
N2C Co1 1_555 1_555
N3B Co1 1_555 1_555
N4B C6B 1_555 1_555
O1B C1B 1_555 1_555
S1B C10B 1_555 1_555
C5 N2 1_555 1_555
C6 O1 1_555 1_555
C8 N1 1_555 1_555
C9 N4 1_555 1_555
C5B N2B 1_555 1_555
C6B O1B 1_555 1_555
C7B N1B 1_555 1_555
C8B N1B 1_555 1_555
C9B N4B 1_555 1_555

#END
