
#######################################################################
#
#                 Cambridge Crystallographic Data Centre
#                                CCDC 
#
#######################################################################
#
# If this CIF has been generated from an entry in the Cambridge 
# Structural Database, then it will include bibliographic, chemical, 
# crystal, experimental, refinement or atomic coordinate data resulting 
# from the CCDC's data processing and validation procedures.
#
#######################################################################

data_RUKGEL
_symmetry_cell_setting           triclinic
_symmetry_space_group_name_H-M   'P -1'
_symmetry_Int_Tables_number      2
_space_group_name_Hall           '-P 1'
loop_
_symmetry_equiv_pos_site_id
_symmetry_equiv_pos_as_xyz
1 x,y,z
2 -x,-y,-z
_cell_length_a                   20.0941(10)
_cell_length_b                   22.6578(12)
_cell_length_c                   24.6497(14)
_cell_angle_alpha                89.590(3)
_cell_angle_beta                 89.825(3)
_cell_angle_gamma                88.059(3)
_cell_volume                     11215.9
loop_
_atom_site_label
_atom_site_type_symbol
_atom_site_fract_x
_atom_site_fract_y
_atom_site_fract_z
Cu1 Cu 0.62733(4) 0.11755(4) 0.49262(4)
O1 O 0.6551(3) 0.1692(2) 0.4324(3)
O2 O 0.5846(2) 0.0663(2) 0.44247(19)
O3 O 0.4177(2) -0.0731(2) 0.45104(19)
O4 O 0.3525(3) -0.1811(3) 0.4602(3)
N1 N 0.7301(3) 0.0773(3) 0.4977(3)
N2 N 0.9317(3) 0.0199(3) 0.4978(3)
C1 C 0.6978(5) 0.1959(5) 0.3454(5)
C2 C 0.6562(5) 0.1534(5) 0.3827(4)
C3 C 0.6298(4) 0.1058(4) 0.3630(4)
H1 H 0.6405 0.0961 0.3265
C4 C 0.5884(4) 0.0690(3) 0.3901(3)
C5 C 0.5465(3) 0.0257(3) 0.3609(3)
C6 C 0.5455(4) 0.0213(3) 0.3039(3)
H2 H 0.5743 0.0443 0.2824
C7 C 0.5043(5) -0.0151(4) 0.2806(3)
H3 H 0.5018 -0.0156 0.2421
C8 C 0.4641(4) -0.0531(4) 0.3105(3)
H4 H 0.4367 -0.0801 0.2926
C9 C 0.4652(4) -0.0505(4) 0.3665(3)
C10 C 0.5062(3) -0.0114(3) 0.3915(3)
H5 H 0.5071 -0.0096 0.4300
C11 C 0.4230(3) -0.0888(3) 0.4019(3)
C12 C 0.3982(4) -0.1408(4) 0.3807(4)
H6 H 0.4054 -0.1482 0.3432
C13 C 0.3639(5) -0.1823(4) 0.4104(4)
C14 C 0.3365(5) -0.2381(5) 0.3817(4)
C15 C 0.7796(4) 0.1146(4) 0.5033(4)
H7 H 0.7681 0.1554 0.5071
C16 C 0.8475(4) 0.0977(4) 0.5040(3)
H8 H 0.8803 0.1267 0.5066
C17 C 0.8659(4) 0.0393(4) 0.5011(3)
C18 C 0.8138(4) -0.0007(4) 0.4965(4)
H9 H 0.8241 -0.0419 0.4945
C19 C 0.7473(4) 0.0193(4) 0.4949(4)
H10 H 0.7133 -0.0086 0.4918
C20 C 0.9497(4) -0.0422(4) 0.5003(4)
H11 H 0.9176 -0.0642 0.4786
H12 H 0.9465 -0.0560 0.5384
C21 C 0.9822(4) 0.0555(4) 0.5201(4)
H13 H 0.9821 0.0504 0.5600
H14 H 0.9705 0.0974 0.5122
C22 C 0.6673(8) 0.2557(6) 0.3573(7)
H15 H 0.6728 0.2645 0.3959
H16 H 0.6197 0.2561 0.3485
H17 H 0.6893 0.2856 0.3353
C23 C 0.6902(10) 0.1841(9) 0.2860(5)
H18 H 0.7095 0.1450 0.2776
H19 H 0.7132 0.2142 0.2650
H20 H 0.6428 0.1855 0.2766
C24 C 0.7690(5) 0.1934(6) 0.3649(6)
H21 H 0.7891 0.1542 0.3575
H22 H 0.7700 0.2007 0.4040
H23 H 0.7942 0.2235 0.3458
C25 C 0.2657(8) -0.2310(8) 0.3767(8)
H24 H 0.2546 -0.1932 0.3588
H25 H 0.2453 -0.2317 0.4128
H26 H 0.2489 -0.2633 0.3550
C26 C 0.3608(14) -0.2428(12) 0.3242(6)
H27 H 0.3446 -0.2082 0.3034
H28 H 0.3440 -0.2786 0.3078
H29 H 0.4096 -0.2446 0.3237
C27 C 0.3628(10) -0.2912(8) 0.4022(8)
H30 H 0.3516 -0.2946 0.4408
H31 H 0.4113 -0.2925 0.3977
H32 H 0.3439 -0.3241 0.3825
N1A N 1.2699(3) -0.0773(3) 0.5023(3)
N2A N 1.0683(3) -0.0199(3) 0.5022(3)
C15A C 1.2204(4) -0.1146(4) 0.4967(4)
H7A H 1.2319 -0.1554 0.4929
C16A C 1.1525(4) -0.0977(4) 0.4960(3)
H8A H 1.1197 -0.1267 0.4934
C17A C 1.1341(4) -0.0393(4) 0.4989(3)
C18A C 1.1862(4) 0.0007(4) 0.5035(4)
H9A H 1.1759 0.0419 0.5055
C19A C 1.2527(4) -0.0193(4) 0.5051(4)
H10A H 1.2867 0.0086 0.5082
C20A C 1.0503(4) 0.0422(4) 0.4997(4)
H11A H 1.0824 0.0642 0.5214
H12A H 1.0535 0.0560 0.4616
C21A C 1.0178(4) -0.0555(4) 0.4799(4)
H13A H 1.0179 -0.0504 0.4400
H14A H 1.0295 -0.0974 0.4878
Cu1A Cu 0.37267(4) -0.11755(4) 0.50738(4)
O1A O 0.3449(3) -0.1692(2) 0.5676(3)
O2A O 0.4154(2) -0.0663(2) 0.55753(19)
O3A O 0.5823(2) 0.0731(2) 0.54896(19)
O4A O 0.6475(3) 0.1811(3) 0.5398(3)
C1A C 0.3022(5) -0.1959(5) 0.6546(5)
C2A C 0.3438(5) -0.1534(5) 0.6173(4)
C3A C 0.3702(4) -0.1058(4) 0.6370(4)
H1A H 0.3595 -0.0961 0.6735
C4A C 0.4116(4) -0.0690(3) 0.6099(3)
C5A C 0.4535(3) -0.0257(3) 0.6391(3)
C6A C 0.4545(4) -0.0213(3) 0.6961(3)
H2A H 0.4257 -0.0443 0.7176
C7A C 0.4957(5) 0.0151(4) 0.7194(3)
H3A H 0.4982 0.0156 0.7579
C8A C 0.5359(4) 0.0531(4) 0.6895(3)
H4A H 0.5633 0.0801 0.7074
C9A C 0.5348(4) 0.0505(4) 0.6335(3)
C10A C 0.4938(3) 0.0114(3) 0.6085(3)
H5A H 0.4929 0.0096 0.5700
C11A C 0.5770(3) 0.0888(3) 0.5981(3)
C12A C 0.6018(4) 0.1408(4) 0.6193(4)
H6A H 0.5946 0.1482 0.6568
C13A C 0.6361(5) 0.1823(4) 0.5896(4)
C14A C 0.6635(5) 0.2381(5) 0.6183(4)
C22A C 0.3327(8) -0.2557(6) 0.6427(7)
H15A H 0.3272 -0.2645 0.6041
H16A H 0.3803 -0.2561 0.6515
H17A H 0.3107 -0.2856 0.6647
C23A C 0.3098(10) -0.1841(9) 0.7140(5)
H18A H 0.2905 -0.1450 0.7224
H19A H 0.2868 -0.2142 0.7350
H20A H 0.3572 -0.1855 0.7234
C24A C 0.2310(5) -0.1934(6) 0.6351(6)
H21A H 0.2109 -0.1542 0.6425
H22A H 0.2300 -0.2007 0.5960
H23A H 0.2058 -0.2235 0.6542
C25A C 0.7343(8) 0.2310(8) 0.6233(8)
H24A H 0.7454 0.1932 0.6412
H25A H 0.7547 0.2317 0.5872
H26A H 0.7511 0.2633 0.6450
C26A C 0.6392(14) 0.2428(12) 0.6758(6)
H27A H 0.6554 0.2082 0.6966
H28A H 0.6560 0.2786 0.6922
H29A H 0.5904 0.2446 0.6763
C27A C 0.6372(10) 0.2912(8) 0.5978(8)
H30A H 0.6484 0.2946 0.5592
H31A H 0.5887 0.2925 0.6023
H32A H 0.6561 0.3241 0.6175
Cu1A_2 Cu 1.37267(4) -0.11755(4) 0.50738(4)
N1A_2 N 0.2699(3) -0.0773(3) 0.5023(3)
Cu2 Cu 0.43062(4) 0.13637(4) 0.19153(3)
Cu3 Cu 0.58682(5) -0.16322(4) 0.17478(4)
O5 O 0.3420(3) 0.1710(2) 0.1814(2)
O6 O 0.3995(2) 0.0572(2) 0.18383(19)
O7 O 0.4966(3) -0.1302(2) 0.1712(2)
O8 O 0.5562(3) -0.2422(2) 0.1672(2)
O9 O 0.6737(3) -0.1964(3) 0.1559(2)
O10 O 0.6153(2) -0.0861(2) 0.16625(19)
O11 O 0.5196(3) 0.1032(2) 0.1784(2)
O12 O 0.4607(2) 0.2165(2) 0.1845(2)
N3 N 0.4315(3) 0.1359(3) 0.2811(2)
N4 N 0.4217(3) 0.1438(3) 0.4509(2)
N5 N 0.4170(3) 0.1518(3) 0.5660(2)
N6 N 0.4090(3) 0.1640(3) 0.7359(3)
C28 C 0.2268(5) 0.1815(4) 0.1720(4)
C29 C 0.2888(4) 0.1429(4) 0.1771(3)
C30 C 0.2844(4) 0.0827(3) 0.1769(3)
H33 H 0.2409 0.0677 0.1746
C31 C 0.3379(4) 0.0407(3) 0.1799(3)
C32 C 0.3282(4) -0.0230(4) 0.1840(3)
C33 C 0.2673(4) -0.0470(4) 0.1941(4)
H34 H 0.2292 -0.0221 0.2003
C34 C 0.2622(5) -0.1071(5) 0.1952(5)
H35 H 0.2196 -0.1236 0.1996
C35 C 0.3161(5) -0.1431(4) 0.1903(5)
H36 H 0.3113 -0.1846 0.1925
C36 C 0.3809(4) -0.1201(4) 0.1817(3)
C37 C 0.3851(4) -0.0611(3) 0.1759(3)
H37 H 0.4265 -0.0447 0.1663
C38 C 0.4424(4) -0.1589(4) 0.1745(3)
C39 C 0.4370(5) -0.2212(4) 0.1756(4)
H38 H 0.3946 -0.2376 0.1811
C40 C 0.4942(4) -0.2599(4) 0.1686(4)
C41 C 0.4851(5) -0.3245(4) 0.1664(4)
C42 C 0.7873(6) -0.2065(6) 0.1342(5)
C43 C 0.7235(6) -0.1680(5) 0.1465(5)
C44 C 0.7273(5) -0.1091(4) 0.1472(5)
H39 H 0.7697 -0.0926 0.1416
C45 C 0.6720(6) -0.0699(4) 0.1557(3)
C46 C 0.6825(4) -0.0045(4) 0.1546(4)
C47 C 0.7423(6) 0.0175(6) 0.1508(5)
H40 H 0.7802 -0.0080 0.1451
C48 C 0.7496(8) 0.0788(7) 0.1552(6)
H41 H 0.7932 0.0936 0.1564
C49 C 0.6943(7) 0.1194(7) 0.1580(6)
H42 H 0.6998 0.1608 0.1582
C50 C 0.6320(4) 0.0952(4) 0.1603(4)
C51 C 0.6286(4) 0.0332(4) 0.1620(3)
H43 H 0.5866 0.0166 0.1687
C52 C 0.5717(5) 0.1323(4) 0.1685(4)
C53 C 0.5746(4) 0.1928(4) 0.1679(4)
H44 H 0.6168 0.2096 0.1629
C54 C 0.5184(4) 0.2314(4) 0.1743(3)
C55 C 0.5246(4) 0.2981(4) 0.1664(4)
C56 C 0.4675(4) 0.1719(3) 0.3097(3)
H45 H 0.4947 0.1976 0.2895
C57 C 0.4703(4) 0.1766(3) 0.3646(3)
H46 H 0.4994 0.2030 0.3815
C58 C 0.4281(4) 0.1404(4) 0.3954(3)
C59 C 0.3910(4) 0.1011(3) 0.3667(3)
H47 H 0.3635 0.0741 0.3852
C60 C 0.3943(4) 0.1015(3) 0.3096(3)
H48 H 0.3675 0.0749 0.2906
C61 C 0.4132(5) 0.0942(4) 0.4838(3)
H49 H 0.4574 0.0751 0.4907
H50 H 0.3865 0.0657 0.4637
C62 C 0.4605(4) 0.1871(3) 0.4800(3)
H51 H 0.4652 0.2226 0.4569
H52 H 0.5056 0.1700 0.4872
C63 C 0.4290(5) 0.2044(4) 0.5318(3)
H53 H 0.3862 0.2259 0.5246
H54 H 0.4582 0.2313 0.5514
C64 C 0.3792(5) 0.1067(4) 0.5384(3)
H55 H 0.3326 0.1210 0.5326
H56 H 0.3787 0.0701 0.5607
C65 C 0.4092(4) 0.1551(4) 0.6213(3)
C66 C 0.4445(4) 0.1997(4) 0.6497(3)
H57 H 0.4689 0.2278 0.6298
C67 C 0.4433(4) 0.2019(3) 0.7063(3)
H58 H 0.4676 0.2312 0.7241
C68 C 0.3767(4) 0.1239(3) 0.7086(3)
H59 H 0.3529 0.0964 0.7297
C69 C 0.3738(4) 0.1177(3) 0.6531(3)
H60 H 0.3479 0.0880 0.6374
C70 C 0.2403(6) 0.2460(4) 0.1663(5)
H61 H 0.2643 0.2591 0.1984
H62 H 0.1980 0.2686 0.1631
H63 H 0.2674 0.2524 0.1338
C71 C 0.1939(8) 0.1684(7) 0.1194(7)
H64 H 0.1812 0.1270 0.1192
H65 H 0.2249 0.1754 0.0895
H66 H 0.1541 0.1942 0.1151
C72 C 0.1740(8) 0.1689(8) 0.2132(6)
H67 H 0.1907 0.1770 0.2496
H68 H 0.1623 0.1274 0.2110
H69 H 0.1344 0.1942 0.2060
C73 C 0.5505(6) -0.3582(7) 0.1689(7)
H70 H 0.5428 -0.4006 0.1674
H71 H 0.5731 -0.3491 0.2028
H72 H 0.5782 -0.3468 0.1380
C74 C 0.4319(8) -0.3482(7) 0.2030(7)
H73 H 0.4304 -0.3911 0.1990
H74 H 0.3886 -0.3301 0.1930
H75 H 0.4419 -0.3387 0.2407
C75 C 0.4543(8) -0.3383(7) 0.1125(5)
H76 H 0.4486 -0.3810 0.1098
H77 H 0.4835 -0.3254 0.0831
H78 H 0.4109 -0.3177 0.1094
C76 C 0.8044(12) -0.1959(10) 0.0756(6)
H79 H 0.7661 -0.2047 0.0529
H80 H 0.8426 -0.2215 0.0654
H81 H 0.8157 -0.1545 0.0705
C77 C 0.8495(8) -0.1941(9) 0.1648(8)
H82 H 0.8422 -0.2011 0.2036
H83 H 0.8610 -0.1528 0.1589
H84 H 0.8860 -0.2202 0.1519
C78 C 0.7721(13) -0.2712(11) 0.1338(11)
H85 H 0.7318 -0.2770 0.1124
H86 H 0.7651 -0.2850 0.1710
H87 H 0.8095 -0.2936 0.1175
C79 C 0.5042(8) 0.3242(6) 0.2198(4)
H88 H 0.4587 0.3129 0.2286
H89 H 0.5058 0.3673 0.2177
H90 H 0.5346 0.3093 0.2482
C80 C 0.5912(6) 0.3185(7) 0.1486(7)
H91 H 0.6036 0.2996 0.1141
H92 H 0.6245 0.3077 0.1762
H93 H 0.5892 0.3614 0.1437
C81 C 0.4727(6) 0.3253(6) 0.1292(5)
H94 H 0.4286 0.3121 0.1400
H95 H 0.4821 0.3131 0.0918
H96 H 0.4735 0.3684 0.1315
Cu2A Cu 0.56938(4) -0.13637(4) 0.80847(3)
Cu3A Cu 0.41318(5) 0.16322(4) 0.82522(4)
O5A O 0.6580(3) -0.1710(2) 0.8186(2)
O6A O 0.6005(2) -0.0572(2) 0.81617(19)
O7A O 0.5034(3) 0.1302(2) 0.8288(2)
O8A O 0.4438(3) 0.2422(2) 0.8328(2)
O9A O 0.3263(3) 0.1964(3) 0.8441(2)
O10A O 0.3847(2) 0.0861(2) 0.83375(19)
O11A O 0.4804(3) -0.1032(2) 0.8216(2)
O12A O 0.5393(2) -0.2165(2) 0.8155(2)
N3A N 0.5685(3) -0.1359(3) 0.7189(2)
N4A N 0.5783(3) -0.1438(3) 0.5491(2)
N5A N 0.5830(3) -0.1518(3) 0.4340(2)
N6A N 0.5910(3) -0.1640(3) 0.2641(3)
C28A C 0.7732(5) -0.1815(4) 0.8280(4)
C29A C 0.7112(4) -0.1429(4) 0.8229(3)
C30A C 0.7156(4) -0.0827(3) 0.8231(3)
H33A H 0.7591 -0.0677 0.8254
C31A C 0.6621(4) -0.0407(3) 0.8201(3)
C32A C 0.6718(4) 0.0230(4) 0.8160(3)
C33A C 0.7327(4) 0.0470(4) 0.8059(4)
H34A H 0.7708 0.0221 0.7997
C34A C 0.7378(5) 0.1071(5) 0.8048(5)
H35A H 0.7804 0.1236 0.8004
C35A C 0.6839(5) 0.1431(4) 0.8097(5)
H36A H 0.6887 0.1846 0.8075
C36A C 0.6191(4) 0.1201(4) 0.8183(3)
C37A C 0.6149(4) 0.0611(3) 0.8241(3)
H37A H 0.5735 0.0447 0.8337
C38A C 0.5576(4) 0.1589(4) 0.8255(3)
C39A C 0.5630(5) 0.2212(4) 0.8244(4)
H38A H 0.6054 0.2376 0.8189
C40A C 0.5058(4) 0.2599(4) 0.8314(4)
C41A C 0.5149(5) 0.3245(4) 0.8336(4)
C42A C 0.2127(6) 0.2065(6) 0.8658(5)
C43A C 0.2765(6) 0.1680(5) 0.8535(5)
C44A C 0.2727(5) 0.1091(4) 0.8528(5)
H39A H 0.2303 0.0926 0.8584
C45A C 0.3280(6) 0.0699(4) 0.8443(3)
C46A C 0.3175(4) 0.0045(4) 0.8454(4)
C47A C 0.2577(6) -0.0175(6) 0.8492(5)
H40A H 0.2198 0.0080 0.8549
C48A C 0.2504(8) -0.0788(7) 0.8448(6)
H41A H 0.2068 -0.0936 0.8436
C49A C 0.3057(7) -0.1194(7) 0.8420(6)
H42A H 0.3002 -0.1608 0.8418
C50A C 0.3680(4) -0.0952(4) 0.8397(4)
C51A C 0.3714(4) -0.0332(4) 0.8380(3)
H43A H 0.4134 -0.0166 0.8313
C52A C 0.4283(5) -0.1323(4) 0.8315(4)
C53A C 0.4254(4) -0.1928(4) 0.8321(4)
H44A H 0.3832 -0.2096 0.8371
C54A C 0.4816(4) -0.2314(4) 0.8257(3)
C55A C 0.4754(4) -0.2981(4) 0.8336(4)
C56A C 0.5325(4) -0.1719(3) 0.6903(3)
H45A H 0.5053 -0.1976 0.7105
C57A C 0.5297(4) -0.1766(3) 0.6354(3)
H46A H 0.5006 -0.2030 0.6185
C58A C 0.5719(4) -0.1404(4) 0.6046(3)
C59A C 0.6090(4) -0.1011(3) 0.6333(3)
H47A H 0.6365 -0.0741 0.6148
C60A C 0.6057(4) -0.1015(3) 0.6904(3)
H48A H 0.6325 -0.0749 0.7094
C61A C 0.5868(5) -0.0942(4) 0.5162(3)
H49A H 0.5426 -0.0751 0.5093
H50A H 0.6135 -0.0657 0.5363
C62A C 0.5395(4) -0.1871(3) 0.5200(3)
H51A H 0.5348 -0.2226 0.5431
H52A H 0.4944 -0.1700 0.5128
C63A C 0.5710(5) -0.2044(4) 0.4682(3)
H53A H 0.6138 -0.2259 0.4754
H54A H 0.5418 -0.2313 0.4486
C64A C 0.6208(5) -0.1067(4) 0.4616(3)
H55A H 0.6674 -0.1210 0.4674
H56A H 0.6213 -0.0701 0.4393
C65A C 0.5908(4) -0.1551(4) 0.3787(3)
C66A C 0.5555(4) -0.1997(4) 0.3503(3)
H57A H 0.5311 -0.2278 0.3702
C67A C 0.5567(4) -0.2019(3) 0.2937(3)
H58A H 0.5324 -0.2312 0.2759
C68A C 0.6233(4) -0.1239(3) 0.2914(3)
H59A H 0.6471 -0.0964 0.2703
C69A C 0.6262(4) -0.1177(3) 0.3469(3)
H60A H 0.6521 -0.0880 0.3626
C70A C 0.7597(6) -0.2460(4) 0.8337(5)
H61A H 0.7357 -0.2591 0.8016
H62A H 0.8020 -0.2686 0.8369
H63A H 0.7326 -0.2524 0.8662
C71A C 0.8061(8) -0.1684(7) 0.8806(7)
H64A H 0.8188 -0.1270 0.8808
H65A H 0.7751 -0.1754 0.9105
H66A H 0.8459 -0.1942 0.8849
C72A C 0.8260(8) -0.1689(8) 0.7868(6)
H67A H 0.8093 -0.1770 0.7504
H68A H 0.8377 -0.1274 0.7890
H69A H 0.8656 -0.1942 0.7940
C73A C 0.4495(6) 0.3582(7) 0.8311(7)
H70A H 0.4572 0.4006 0.8326
H71A H 0.4269 0.3491 0.7972
H72A H 0.4218 0.3468 0.8620
C74A C 0.5681(8) 0.3482(7) 0.7970(7)
H73A H 0.5696 0.3911 0.8010
H74A H 0.6114 0.3301 0.8070
H75A H 0.5581 0.3387 0.7593
C75A C 0.5457(8) 0.3383(7) 0.8875(5)
H76A H 0.5514 0.3810 0.8902
H77A H 0.5165 0.3254 0.9169
H78A H 0.5891 0.3177 0.8906
C76A C 0.1956(12) 0.1959(10) 0.9244(6)
H79A H 0.2339 0.2047 0.9471
H80A H 0.1574 0.2215 0.9346
H81A H 0.1843 0.1545 0.9295
C77A C 0.1505(8) 0.1941(9) 0.8352(8)
H82A H 0.1578 0.2011 0.7964
H83A H 0.1390 0.1528 0.8411
H84A H 0.1140 0.2202 0.8481
C78A C 0.2279(13) 0.2712(11) 0.8662(11)
H85A H 0.2682 0.2770 0.8876
H86A H 0.2349 0.2850 0.8290
H87A H 0.1905 0.2936 0.8825
C79A C 0.4958(8) -0.3242(6) 0.7802(4)
H88A H 0.5413 -0.3129 0.7714
H89A H 0.4942 -0.3673 0.7823
H90A H 0.4654 -0.3093 0.7518
C80A C 0.4088(6) -0.3185(7) 0.8514(7)
H91A H 0.3964 -0.2996 0.8859
H92A H 0.3755 -0.3077 0.8238
H93A H 0.4108 -0.3614 0.8563
C81A C 0.5273(6) -0.3253(6) 0.8708(5)
H94A H 0.5714 -0.3121 0.8600
H95A H 0.5179 -0.3131 0.9082
H96A H 0.5265 -0.3684 0.8685
Cu4 Cu 0.12762(5) 0.61682(4) -0.00793(4)
O13 O 0.1547(3) 0.6747(3) 0.0421(3)
O14 O 0.0882(2) 0.5676(2) 0.04748(19)
O15 O -0.0816(2) 0.4302(2) 0.0592(2)
O16 O -0.1459(3) 0.3234(2) 0.0650(3)
N7 N 0.2289(3) 0.5764(3) -0.0107(3)
N8 N 0.4313(3) 0.5198(3) 0.0008(3)
C82 C 0.1918(5) 0.7148(4) 0.1229(4)
C83 C 0.1563(4) 0.6670(4) 0.0916(4)
C84 C 0.1299(4) 0.6192(4) 0.1232(4)
H97 H 0.1369 0.6180 0.1613
C85 C 0.0941(4) 0.5746(3) 0.0987(3)
C86 C 0.0548(4) 0.5332(4) 0.1337(3)
C87 C 0.0586(4) 0.5339(4) 0.1907(3)
H98 H 0.0872 0.5601 0.2085
C88 C 0.0207(4) 0.4962(4) 0.2201(3)
H99 H 0.0248 0.4952 0.2585
C89 C -0.0233(4) 0.4597(4) 0.1956(3)
H100 H -0.0513 0.4360 0.2172
C90 C -0.0271(4) 0.4571(3) 0.1387(3)
C91 C 0.0130(3) 0.4946(3) 0.1087(3)
H101 H 0.0116 0.4935 0.0702
C92 C -0.0705(3) 0.4171(3) 0.1090(3)
C93 C -0.0965(4) 0.3695(4) 0.1344(4)
H102 H -0.0890 0.3671 0.1724
C94 C -0.1312(4) 0.3254(4) 0.1137(3)
C95 C -0.1581(4) 0.2742(5) 0.1482(5)
C96 C 0.2495(4) 0.5200(4) -0.0049(4)
H103 H 0.2161 0.4914 -0.0028
C97 C 0.3146(4) 0.4994(4) -0.0017(4)
H104 H 0.3241 0.4582 0.0019
C98 C 0.3653(4) 0.5374(4) -0.0037(4)
C99 C 0.3482(4) 0.5983(4) -0.0119(4)
H105 H 0.3808 0.6273 -0.0166
C100 C 0.2791(4) 0.6125(4) -0.0128(4)
H106 H 0.2673 0.6534 -0.0152
C101 C 0.4843(4) 0.5588(4) -0.0191(4)
H107 H 0.4717 0.6002 -0.0103
H108 H 0.4874 0.5557 -0.0591
C102 C 0.4486(4) 0.4565(4) -0.0052(5)
H109 H 0.4491 0.4462 -0.0442
H110 H 0.4143 0.4329 0.0129
C103 C 0.1605(7) 0.7738(5) 0.1085(6)
H111 H 0.1643 0.7804 0.0693
H112 H 0.1835 0.8049 0.1277
H113 H 0.1134 0.7748 0.1190
C104 C 0.2649(5) 0.7114(7) 0.1098(7)
H114 H 0.2711 0.7145 0.0705
H115 H 0.2842 0.6737 0.1228
H116 H 0.2870 0.7440 0.1276
C105 C 0.1965(18) 0.7005(15) 0.1823(5)
H117 H 0.1518 0.7024 0.1985
H118 H 0.2245 0.7292 0.2001
H119 H 0.2162 0.6607 0.1872
C106 C -0.2324(4) 0.2834(6) 0.1469(6)
H120 H -0.2450 0.3199 0.1662
H121 H -0.2534 0.2499 0.1646
H122 H -0.2474 0.2866 0.1092
C107 C -0.1353(8) 0.2722(7) 0.2062(5)
H123 H -0.1520 0.3077 0.2250
H124 H -0.0866 0.2704 0.2073
H125 H -0.1526 0.2371 0.2242
C108 C -0.1341(8) 0.2183(6) 0.1214(6)
H126 H -0.0855 0.2144 0.1243
H127 H -0.1468 0.2194 0.0830
H128 H -0.1542 0.1845 0.1393
N7A N 0.7711(3) 0.4236(3) 0.0107(3)
N8A N 0.5687(3) 0.4802(3) -0.0008(3)
C96A C 0.7505(4) 0.4800(4) 0.0049(4)
H103A H 0.7839 0.5086 0.0028
C97A C 0.6854(4) 0.5006(4) 0.0017(4)
H104A H 0.6759 0.5418 -0.0019
C98A C 0.6347(4) 0.4626(4) 0.0037(4)
C99A C 0.6518(4) 0.4017(4) 0.0119(4)
H105A H 0.6192 0.3727 0.0166
C100A C 0.7209(4) 0.3875(4) 0.0128(4)
H106A H 0.7327 0.3466 0.0152
C101A C 0.5157(4) 0.4412(4) 0.0191(4)
H107A H 0.5283 0.3998 0.0103
H108A H 0.5126 0.4443 0.0591
C102A C 0.5514(4) 0.5435(4) 0.0052(5)
H109A H 0.5509 0.5538 0.0442
H110A H 0.5857 0.5671 -0.0129
Cu4A Cu -0.12762(5) 0.38318(4) 0.00793(4)
O13A O -0.1547(3) 0.3253(3) -0.0421(3)
O14A O -0.0882(2) 0.4324(2) -0.04748(19)
O15A O 0.0816(2) 0.5698(2) -0.0592(2)
O16A O 0.1459(3) 0.6766(2) -0.0650(3)
C82A C -0.1918(5) 0.2852(4) -0.1229(4)
C83A C -0.1563(4) 0.3330(4) -0.0916(4)
C84A C -0.1299(4) 0.3808(4) -0.1232(4)
H97A H -0.1369 0.3820 -0.1613
C85A C -0.0941(4) 0.4254(3) -0.0987(3)
C86A C -0.0548(4) 0.4668(4) -0.1337(3)
C87A C -0.0586(4) 0.4661(4) -0.1907(3)
H98A H -0.0872 0.4399 -0.2085
C88A C -0.0207(4) 0.5038(4) -0.2201(3)
H99A H -0.0248 0.5048 -0.2585
C89A C 0.0233(4) 0.5403(4) -0.1956(3)
H100A H 0.0513 0.5640 -0.2172
C90A C 0.0271(4) 0.5429(3) -0.1387(3)
C91A C -0.0130(3) 0.5054(3) -0.1087(3)
H101A H -0.0116 0.5065 -0.0702
C92A C 0.0705(3) 0.5829(3) -0.1090(3)
C93A C 0.0965(4) 0.6305(4) -0.1344(4)
H102A H 0.0890 0.6329 -0.1724
C94A C 0.1312(4) 0.6746(4) -0.1137(3)
C95A C 0.1581(4) 0.7258(5) -0.1482(5)
C103A C -0.1605(7) 0.2262(5) -0.1085(6)
H111A H -0.1643 0.2196 -0.0693
H112A H -0.1835 0.1951 -0.1277
H113A H -0.1134 0.2252 -0.1190
C104A C -0.2649(5) 0.2886(7) -0.1098(7)
H114A H -0.2711 0.2855 -0.0705
H115A H -0.2842 0.3263 -0.1228
H116A H -0.2870 0.2560 -0.1276
C105A C -0.1965(18) 0.2995(15) -0.1823(5)
H117A H -0.1518 0.2976 -0.1985
H118A H -0.2245 0.2708 -0.2001
H119A H -0.2162 0.3393 -0.1872
C106A C 0.2324(4) 0.7166(6) -0.1469(6)
H120A H 0.2450 0.6801 -0.1662
H121A H 0.2534 0.7501 -0.1646
H122A H 0.2474 0.7134 -0.1092
C107A C 0.1353(8) 0.7278(7) -0.2062(5)
H123A H 0.1520 0.6923 -0.2250
H124A H 0.0866 0.7296 -0.2073
H125A H 0.1526 0.7629 -0.2242
C108A C 0.1341(8) 0.7817(6) -0.1214(6)
H126A H 0.0855 0.7856 -0.1243
H127A H 0.1468 0.7806 -0.0830
H128A H 0.1542 0.8155 -0.1393
Cu4A_2 Cu 0.87238(5) 0.38318(4) 0.00793(4)
N7A_2 N -0.2289(3) 0.4236(3) 0.0107(3)
Cu5 Cu 0.90203(5) 0.65363(4) 0.67307(4)
Cu6 Cu 1.06167(5) 0.35548(4) 0.69304(4)
O17 O 0.8729(3) 0.5743(2) 0.6678(2)
O18 O 0.8133(3) 0.6858(2) 0.6546(2)
O19 O 0.9703(3) 0.3878(2) 0.6832(2)
O20 O 1.0319(3) 0.2759(2) 0.6873(2)
O21 O 1.1505(3) 0.3224(2) 0.6811(2)
O22 O 1.0908(2) 0.4335(2) 0.6824(2)
O23 O 0.9907(3) 0.6204(2) 0.6684(2)
O24 O 0.9318(3) 0.7320(2) 0.6626(2)
N9 N 0.8978(3) 0.6565(3) 0.7619(3)
N10 N 0.9121(4) 0.6477(2) 0.9324(2)
N11 N 0.9247(4) 0.6471(3) 1.0474(2)
N12 N 0.9357(3) 0.6422(3) 1.2174(2)
C109 C 0.6969(5) 0.6947(4) 0.6375(5)
C110 C 0.7613(5) 0.6577(4) 0.6512(3)
C111 C 0.7586(5) 0.5984(4) 0.6591(4)
H129 H 0.7154 0.5827 0.6611
C112 C 0.8118(4) 0.5581(4) 0.6646(3)
C113 C 0.8034(4) 0.4934(4) 0.6730(4)
C114 C 0.7393(4) 0.4684(4) 0.6836(4)
H130 H 0.7004 0.4935 0.6848
C115 C 0.7341(6) 0.4086(5) 0.6920(5)
H131 H 0.6919 0.3926 0.6994
C116 C 0.7923(5) 0.3709(4) 0.6897(4)
H132 H 0.7885 0.3294 0.6932
C117 C 0.8552(4) 0.3951(4) 0.6822(3)
C118 C 0.8598(4) 0.4546(4) 0.6717(3)
H133 H 0.9021 0.4699 0.6632
C119 C 0.9174(4) 0.3576(4) 0.6817(3)
C120 C 0.9160(5) 0.2974(3) 0.6807(4)
H134 H 0.8740 0.2794 0.6794
C121 C 0.9751(5) 0.2600(4) 0.6815(4)
C122 C 0.9655(5) 0.1931(4) 0.6790(5)
C123 C 1.2663(5) 0.3111(4) 0.6610(5)
C124 C 1.2028(5) 0.3504(4) 0.6724(3)
C125 C 1.2061(5) 0.4121(4) 0.6699(4)
H135 H 1.2484 0.4287 0.6644
C126 C 1.1500(4) 0.4508(4) 0.6750(3)
C127 C 1.1598(4) 0.5152(4) 0.6720(4)
C128 C 1.2201(7) 0.5379(6) 0.6732(5)
H136 H 1.2588 0.5128 0.6753
C129 C 1.2254(8) 0.5992(7) 0.6714(6)
H137 H 1.2686 0.6149 0.6727
C130 C 1.1727(6) 0.6370(6) 0.6678(5)
H138 H 1.1778 0.6785 0.6682
C131 C 1.1073(4) 0.6115(4) 0.6632(4)
C132 C 1.1045(4) 0.5518(3) 0.6691(3)
H139 H 1.0620 0.5348 0.6713
C133 C 1.0434(5) 0.6496(4) 0.6640(3)
C134 C 1.0465(4) 0.7098(4) 0.6557(4)
H140 H 1.0890 0.7254 0.6489
C135 C 0.9907(5) 0.7500(4) 0.6566(4)
C136 C 0.9976(5) 0.8146(4) 0.6462(5)
C137 C 0.8659(4) 0.6169(3) 0.7931(3)
H141 H 0.8404 0.5888 0.7747
C138 C 0.8668(4) 0.6135(3) 0.8477(3)
H142 H 0.8409 0.5856 0.8665
C139 C 0.9072(3) 0.6524(3) 0.8763(3)
C140 C 0.9409(4) 0.6931(4) 0.8444(3)
H143 H 0.9688 0.7206 0.8611
C141 C 0.9337(3) 0.6932(3) 0.7884(3)
H144 H 0.9566 0.7220 0.7681
C142 C 0.9287(5) 0.7040(3) 0.9631(3)
H145 H 0.9586 0.7281 0.9406
H146 H 0.8873 0.7278 0.9699
C143 C 0.8772(4) 0.6067(4) 0.9645(3)
H147 H 0.8718 0.5699 0.9438
H148 H 0.8323 0.6233 0.9732
C144 C 0.9147(4) 0.5926(4) 1.0169(3)
H149 H 0.8891 0.5649 1.0393
H150 H 0.9584 0.5734 1.0084
C145 C 0.9617(4) 0.6892(4) 1.0156(3)
H151 H 1.0070 0.6725 1.0084
H152 H 0.9662 0.7258 1.0367
C146 C 0.9316(4) 0.6448(3) 1.1029(3)
C147 C 0.8959(4) 0.6042(4) 1.1344(3)
H153 H 0.8688 0.5761 1.1175
C148 C 0.9011(4) 0.6062(3) 1.1901(3)
H154 H 0.8768 0.5782 1.2102
C149 C 0.9712(4) 0.6811(3) 1.1866(3)
H155 H 0.9980 0.7086 1.2045
C150 C 0.9697(4) 0.6817(3) 1.1315(3)
H156 H 0.9962 0.7088 1.1124
C151 C 0.7098(12) 0.7569(6) 0.6540(10)
H157 H 0.7533 0.7683 0.6400
H158 H 0.7096 0.7595 0.6937
H159 H 0.6749 0.7836 0.6391
C152 C 0.6869(13) 0.6949(11) 0.5774(5)
H160 H 0.7256 0.7118 0.5595
H161 H 0.6468 0.7188 0.5684
H162 H 0.6818 0.6544 0.5649
C153 C 0.6330(8) 0.6721(10) 0.6594(9)
H163 H 0.6386 0.6616 0.6978
H164 H 0.6208 0.6371 0.6391
H165 H 0.5978 0.7028 0.6557
C154 C 0.9141(13) 0.1730(14) 0.7189(11)
H166 H 0.8836 0.2062 0.7278
H167 H 0.9363 0.1585 0.7520
H168 H 0.8890 0.1411 0.7029
C155 C 0.9205(7) 0.1786(7) 0.6326(5)
H169 H 0.8748 0.1923 0.6410
H170 H 0.9216 0.1358 0.6270
H171 H 0.9357 0.1984 0.5995
C156 C 1.0266(8) 0.1655(10) 0.6534(9)
H172 H 1.0453 0.1932 0.6273
H173 H 1.0148 0.1293 0.6346
H174 H 1.0596 0.1558 0.6816
C157 C 1.2963(11) 0.3251(10) 0.6066(6)
H175 H 1.2666 0.3123 0.5778
H176 H 1.3396 0.3044 0.6030
H177 H 1.3020 0.3678 0.6034
C158 C 1.2524(8) 0.2466(5) 0.6597(7)
H178 H 1.2156 0.2401 0.6347
H179 H 1.2402 0.2332 0.6962
H180 H 1.2923 0.2244 0.6475
C159 C 1.3230(8) 0.3337(9) 0.6935(8)
H181 H 1.3258 0.3764 0.6878
H182 H 1.3647 0.3139 0.6818
H183 H 1.3155 0.3254 0.7320
C160 C 0.9313(10) 0.8452(9) 0.6344(8)
H184 H 0.9127 0.8291 0.6011
H185 H 0.9374 0.8876 0.6297
H186 H 0.9006 0.8387 0.6647
C161 C 1.0180(9) 0.8428(8) 0.6912(7)
H187 H 1.0221 0.8850 0.6831
H188 H 1.0614 0.8260 0.7027
H189 H 0.9855 0.8379 0.7204
C162 C 1.0417(7) 0.8311(6) 0.5995(5)
H190 H 1.0281 0.8104 0.5668
H191 H 1.0881 0.8199 0.6080
H192 H 1.0378 0.8738 0.5931
Cu5A Cu 1.09797(5) 0.34637(4) 1.32693(4)
Cu6A Cu 0.93833(5) 0.64452(4) 1.30696(4)
O17A O 1.1271(3) 0.4257(2) 1.3322(2)
O18A O 1.1867(3) 0.3142(2) 1.3454(2)
O19A O 1.0297(3) 0.6122(2) 1.3168(2)
O20A O 0.9681(3) 0.7241(2) 1.3127(2)
O21A O 0.8495(3) 0.6776(2) 1.3189(2)
O22A O 0.9092(2) 0.5665(2) 1.3176(2)
O23A O 1.0093(3) 0.3796(2) 1.3316(2)
O24A O 1.0682(3) 0.2680(2) 1.3374(2)
N9A N 1.1022(3) 0.3435(3) 1.2381(3)
N10A N 1.0879(4) 0.3523(2) 1.0676(2)
N11A N 1.0753(4) 0.3529(3) 0.9526(2)
N12A N 1.0643(3) 0.3578(3) 0.7826(2)
C109A C 1.3031(5) 0.3053(4) 1.3625(5)
C110A C 1.2387(5) 0.3423(4) 1.3488(3)
C111A C 1.2414(5) 0.4016(4) 1.3409(4)
H129A H 1.2846 0.4173 1.3389
C112A C 1.1882(4) 0.4419(4) 1.3354(3)
C113A C 1.1966(4) 0.5066(4) 1.3270(4)
C114A C 1.2607(4) 0.5316(4) 1.3164(4)
H130A H 1.2996 0.5065 1.3152
C115A C 1.2659(6) 0.5914(5) 1.3080(5)
H131A H 1.3081 0.6074 1.3006
C116A C 1.2077(5) 0.6291(4) 1.3103(4)
H132A H 1.2115 0.6706 1.3068
C117A C 1.1448(4) 0.6049(4) 1.3178(3)
C118A C 1.1402(4) 0.5454(4) 1.3283(3)
H133A H 1.0979 0.5301 1.3368
C119A C 1.0826(4) 0.6424(4) 1.3183(3)
C120A C 1.0840(5) 0.7026(3) 1.3193(4)
H134A H 1.1260 0.7206 1.3206
C121A C 1.0249(5) 0.7400(4) 1.3185(4)
C122A C 1.0345(5) 0.8069(4) 1.3210(5)
C123A C 0.7337(5) 0.6889(4) 1.3390(5)
C124A C 0.7972(5) 0.6496(4) 1.3276(3)
C125A C 0.7939(5) 0.5879(4) 1.3301(4)
H135A H 0.7516 0.5713 1.3356
C126A C 0.8500(4) 0.5492(4) 1.3250(3)
C127A C 0.8402(4) 0.4848(4) 1.3280(4)
C128A C 0.7799(7) 0.4621(6) 1.3268(5)
H136A H 0.7412 0.4872 1.3247
C129A C 0.7746(8) 0.4008(7) 1.3286(6)
H137A H 0.7314 0.3851 1.3273
C130A C 0.8273(6) 0.3630(6) 1.3322(5)
H138A H 0.8222 0.3215 1.3318
C131A C 0.8927(4) 0.3885(4) 1.3368(4)
C132A C 0.8955(4) 0.4482(3) 1.3309(3)
H139A H 0.9380 0.4652 1.3287
C133A C 0.9566(5) 0.3504(4) 1.3360(3)
C134A C 0.9535(4) 0.2902(4) 1.3443(4)
H140A H 0.9110 0.2746 1.3511
C135A C 1.0093(5) 0.2500(4) 1.3434(4)
C136A C 1.0024(5) 0.1854(4) 1.3538(5)
C137A C 1.1341(4) 0.3831(3) 1.2069(3)
H141A H 1.1596 0.4112 1.2253
C138A C 1.1332(4) 0.3865(3) 1.1523(3)
H142A H 1.1591 0.4144 1.1335
C139A C 1.0928(3) 0.3476(3) 1.1237(3)
C140A C 1.0591(4) 0.3069(4) 1.1556(3)
H143A H 1.0312 0.2794 1.1389
C141A C 1.0663(3) 0.3068(3) 1.2116(3)
H144A H 1.0434 0.2780 1.2319
C142A C 1.0713(5) 0.2960(3) 1.0369(3)
H145A H 1.0414 0.2719 1.0594
H146A H 1.1127 0.2722 1.0301
C143A C 1.1228(4) 0.3933(4) 1.0355(3)
H147A H 1.1282 0.4301 1.0562
H148A H 1.1677 0.3767 1.0268
C144A C 1.0853(4) 0.4074(4) 0.9831(3)
H149A H 1.1109 0.4351 0.9607
H150A H 1.0416 0.4266 0.9916
C145A C 1.0383(4) 0.3108(4) 0.9844(3)
H151A H 0.9930 0.3275 0.9916
H152A H 1.0338 0.2742 0.9633
C146A C 1.0684(4) 0.3552(3) 0.8971(3)
C147A C 1.1041(4) 0.3958(4) 0.8656(3)
H153A H 1.1312 0.4239 0.8825
C148A C 1.0989(4) 0.3938(3) 0.8099(3)
H154A H 1.1232 0.4218 0.7898
C149A C 1.0288(4) 0.3189(3) 0.8134(3)
H155A H 1.0020 0.2914 0.7955
C150A C 1.0303(4) 0.3183(3) 0.8685(3)
H156A H 1.0038 0.2912 0.8876
C151A C 1.2902(12) 0.2431(6) 1.3460(10)
H157A H 1.2467 0.2317 1.3600
H158A H 1.2904 0.2405 1.3063
H159A H 1.3251 0.2164 1.3609
C152A C 1.3131(13) 0.3051(11) 1.4226(5)
H160A H 1.2744 0.2882 1.4405
H161A H 1.3532 0.2812 1.4316
H162A H 1.3182 0.3456 1.4351
C153A C 1.3670(8) 0.3279(10) 1.3406(9)
H163A H 1.3614 0.3384 1.3022
H164A H 1.3792 0.3629 1.3609
H165A H 1.4022 0.2972 1.3443
C154A C 1.0859(13) 0.8270(14) 1.2811(11)
H166A H 1.1164 0.7938 1.2722
H167A H 1.0637 0.8415 1.2480
H168A H 1.1110 0.8589 1.2971
C155A C 1.0795(7) 0.8214(7) 1.3674(5)
H169A H 1.1252 0.8077 1.3590
H170A H 1.0784 0.8642 1.3730
H171A H 1.0643 0.8016 1.4005
C156A C 0.9734(8) 0.8345(10) 1.3466(9)
H172A H 0.9547 0.8068 1.3727
H173A H 0.9852 0.8707 1.3654
H174A H 0.9404 0.8442 1.3184
C157A C 0.7037(11) 0.6749(10) 1.3934(6)
H175A H 0.7334 0.6877 1.4222
H176A H 0.6604 0.6956 1.3970
H177A H 0.6980 0.6322 1.3966
C158A C 0.7476(8) 0.7534(5) 1.3403(7)
H178A H 0.7844 0.7599 1.3653
H179A H 0.7598 0.7668 1.3038
H180A H 0.7077 0.7756 1.3525
C159A C 0.6770(8) 0.6663(9) 1.3065(8)
H181A H 0.6742 0.6236 1.3122
H182A H 0.6353 0.6861 1.3182
H183A H 0.6845 0.6746 1.2680
C160A C 1.0687(10) 0.1548(9) 1.3656(8)
H184A H 1.0873 0.1709 1.3989
H185A H 1.0626 0.1124 1.3703
H186A H 1.0994 0.1613 1.3353
C161A C 0.9820(9) 0.1572(8) 1.3088(7)
H187A H 0.9779 0.1150 1.3169
H188A H 0.9386 0.1740 1.2973
H189A H 1.0145 0.1621 1.2796
C162A C 0.9583(7) 0.1689(6) 1.4005(5)
H190A H 0.9719 0.1896 1.4332
H191A H 0.9119 0.1801 1.3920
H192A H 0.9622 0.1262 1.4069
N13 N 0.3824(5) 0.2312(4) 0.0147(3)
N14 N 0.4693(4) 0.0582(4) 0.0025(3)
C163 C 0.3924(6) 0.1938(5) 0.0568(5)
H193 H 0.3774 0.2073 0.0913
C164 C 0.4225(5) 0.1376(5) 0.0551(4)
H194 H 0.4319 0.1169 0.0880
C165 C 0.4386(5) 0.1119(4) 0.0062(3)
C166 C 0.4244(6) 0.1476(5) -0.0372(4)
H195 H 0.4309 0.1320 -0.0726
C167 C 0.4008(7) 0.2062(6) -0.0321(6)
H196 H 0.3977 0.2298 -0.0641
C168 C 0.4700(6) 0.0262(4) -0.0484(3)
H197 H 0.4754 0.0543 -0.0789
H198 H 0.4269 0.0069 -0.0530
C169 C 0.4750(5) 0.0194(4) 0.0500(4)
H199 H 0.4325 -0.0009 0.0546
H200 H 0.4811 0.0442 0.0824
N13A N 0.6176(5) -0.2312(4) -0.0147(3)
N14A N 0.5307(4) -0.0582(4) -0.0025(3)
C163A C 0.6076(6) -0.1938(5) -0.0568(5)
H193A H 0.6226 -0.2073 -0.0913
C164A C 0.5775(5) -0.1376(5) -0.0551(4)
H194A H 0.5681 -0.1169 -0.0880
C165A C 0.5614(5) -0.1119(4) -0.0062(3)
C166A C 0.5756(6) -0.1476(5) 0.0372(4)
H195A H 0.5691 -0.1320 0.0726
C167A C 0.5992(7) -0.2062(6) 0.0321(6)
H196A H 0.6023 -0.2298 0.0641
C168A C 0.5300(6) -0.0262(4) 0.0484(3)
H197A H 0.5246 -0.0543 0.0789
H198A H 0.5731 -0.0069 0.0530
C169A C 0.5250(5) -0.0194(4) -0.0500(4)
H199A H 0.5675 0.0009 -0.0546
H200A H 0.5189 -0.0442 -0.0824
N15 N 0.8846(4) 0.7308(3) 0.4846(3)
N16 N 0.9710(4) 0.5585(3) 0.4964(2)
C170 C 0.9076(6) 0.7004(5) 0.4412(4)
H201 H 0.9029 0.7187 0.4065
C171 C 0.9373(5) 0.6448(4) 0.4435(4)
H202 H 0.9550 0.6277 0.4112
C172 C 0.9422(4) 0.6129(4) 0.4923(3)
C173 C 0.9139(5) 0.6426(4) 0.5358(4)
H203 H 0.9118 0.6236 0.5702
C174 C 0.8882(6) 0.7004(5) 0.5294(5)
H204 H 0.8717 0.7194 0.5612
C175 C 0.9700(5) 0.5242(4) 0.5463(3)
H205 H 0.9266 0.5051 0.5490
H206 H 0.9731 0.5517 0.5772
C176 C 0.9772(5) 0.5211(4) 0.4483(3)
H207 H 0.9344 0.5020 0.4421
H208 H 0.9865 0.5462 0.4163
N15A N 1.1154(4) 0.2692(3) 0.5154(3)
N16A N 1.0290(4) 0.4415(3) 0.5036(2)
C170A C 1.0924(6) 0.2996(5) 0.5588(4)
H201A H 1.0971 0.2813 0.5935
C171A C 1.0627(5) 0.3552(4) 0.5565(4)
H202A H 1.0450 0.3723 0.5888
C172A C 1.0578(4) 0.3871(4) 0.5077(3)
C173A C 1.0861(5) 0.3574(4) 0.4642(4)
H203A H 1.0882 0.3764 0.4298
C174A C 1.1118(6) 0.2996(5) 0.4706(5)
H204A H 1.1283 0.2806 0.4388
C175A C 1.0300(5) 0.4758(4) 0.4537(3)
H205A H 1.0734 0.4949 0.4510
H206A H 1.0269 0.4483 0.4228
C176A C 1.0228(5) 0.4789(4) 0.5517(3)
H207A H 1.0656 0.4980 0.5579
H208A H 1.0135 0.4538 0.5837
loop_
_geom_bond_atom_site_label_1
_geom_bond_atom_site_label_2
_geom_bond_site_symmetry_1
_geom_bond_site_symmetry_2
Cu1 O1 1_555 1_555
O1 C2 1_555 1_555
O2 Cu1 1_555 1_555
O3 C11 1_555 1_555
O4 C13 1_555 1_555
N1 Cu1 1_555 1_555
N2 C17 1_555 1_555
C1 C2 1_555 1_555
C2 C3 1_555 1_555
C3 H1 1_555 1_555
C4 O2 1_555 1_555
C5 C4 1_555 1_555
C6 C5 1_555 1_555
H2 C6 1_555 1_555
C7 C6 1_555 1_555
H3 C7 1_555 1_555
C8 C7 1_555 1_555
H4 C8 1_555 1_555
C9 C8 1_555 1_555
C10 C5 1_555 1_555
H5 C10 1_555 1_555
C11 C9 1_555 1_555
C12 C11 1_555 1_555
H6 C12 1_555 1_555
C13 C12 1_555 1_555
C14 C13 1_555 1_555
C15 N1 1_555 1_555
H7 C15 1_555 1_555
C16 C15 1_555 1_555
H8 C16 1_555 1_555
C17 C16 1_555 1_555
C18 C17 1_555 1_555
H9 C18 1_555 1_555
C19 N1 1_555 1_555
H10 C19 1_555 1_555
C20 N2 1_555 1_555
H11 C20 1_555 1_555
H12 C20 1_555 1_555
C21 N2 1_555 1_555
H13 C21 1_555 1_555
H14 C21 1_555 1_555
C22 C1 1_555 1_555
H15 C22 1_555 1_555
H16 C22 1_555 1_555
H17 C22 1_555 1_555
C23 C1 1_555 1_555
H18 C23 1_555 1_555
H19 C23 1_555 1_555
H20 C23 1_555 1_555
C24 C1 1_555 1_555
H21 C24 1_555 1_555
H22 C24 1_555 1_555
H23 C24 1_555 1_555
C25 C14 1_555 1_555
H24 C25 1_555 1_555
H25 C25 1_555 1_555
H26 C25 1_555 1_555
C26 C14 1_555 1_555
H27 C26 1_555 1_555
H28 C26 1_555 1_555
H29 C26 1_555 1_555
C27 C14 1_555 1_555
H30 C27 1_555 1_555
H31 C27 1_555 1_555
H32 C27 1_555 1_555
Cu2 O5 1_555 1_555
Cu3 O7 1_555 1_555
O5 C29 1_555 1_555
O6 Cu2 1_555 1_555
O7 C38 1_555 1_555
O8 Cu3 1_555 1_555
O9 Cu3 1_555 1_555
O10 Cu3 1_555 1_555
O11 Cu2 1_555 1_555
O12 Cu2 1_555 1_555
N3 Cu2 1_555 1_555
N4 C58 1_555 1_555
N5 C63 1_555 1_555
N6 C67 1_555 1_555
C28 C29 1_555 1_555
C29 C30 1_555 1_555
C30 H33 1_555 1_555
C31 O6 1_555 1_555
C32 C31 1_555 1_555
C33 C32 1_555 1_555
H34 C33 1_555 1_555
C34 C33 1_555 1_555
H35 C34 1_555 1_555
C35 C34 1_555 1_555
H36 C35 1_555 1_555
C36 C35 1_555 1_555
C37 C32 1_555 1_555
H37 C37 1_555 1_555
C38 C36 1_555 1_555
C39 C38 1_555 1_555
H38 C39 1_555 1_555
C40 O8 1_555 1_555
C41 C40 1_555 1_555
C42 C43 1_555 1_555
C43 O9 1_555 1_555
C44 C43 1_555 1_555
H39 C44 1_555 1_555
C45 O10 1_555 1_555
C46 C45 1_555 1_555
C47 C46 1_555 1_555
H40 C47 1_555 1_555
C48 C47 1_555 1_555
H41 C48 1_555 1_555
C49 C48 1_555 1_555
H42 C49 1_555 1_555
C50 C49 1_555 1_555
C51 C46 1_555 1_555
H43 C51 1_555 1_555
C52 O11 1_555 1_555
C53 C52 1_555 1_555
H44 C53 1_555 1_555
C54 O12 1_555 1_555
C55 C54 1_555 1_555
C56 N3 1_555 1_555
H45 C56 1_555 1_555
C57 C56 1_555 1_555
H46 C57 1_555 1_555
C58 C57 1_555 1_555
C59 C58 1_555 1_555
H47 C59 1_555 1_555
C60 N3 1_555 1_555
H48 C60 1_555 1_555
C61 N4 1_555 1_555
H49 C61 1_555 1_555
H50 C61 1_555 1_555
C62 N4 1_555 1_555
H51 C62 1_555 1_555
H52 C62 1_555 1_555
C63 C62 1_555 1_555
H53 C63 1_555 1_555
H54 C63 1_555 1_555
C64 N5 1_555 1_555
H55 C64 1_555 1_555
H56 C64 1_555 1_555
C65 N5 1_555 1_555
C66 C65 1_555 1_555
H57 C66 1_555 1_555
C67 C66 1_555 1_555
H58 C67 1_555 1_555
C68 N6 1_555 1_555
H59 C68 1_555 1_555
C69 C65 1_555 1_555
H60 C69 1_555 1_555
C70 C28 1_555 1_555
H61 C70 1_555 1_555
H62 C70 1_555 1_555
H63 C70 1_555 1_555
C71 C28 1_555 1_555
H64 C71 1_555 1_555
H65 C71 1_555 1_555
H66 C71 1_555 1_555
C72 C28 1_555 1_555
H67 C72 1_555 1_555
H68 C72 1_555 1_555
H69 C72 1_555 1_555
C73 C41 1_555 1_555
H70 C73 1_555 1_555
H71 C73 1_555 1_555
H72 C73 1_555 1_555
C74 C41 1_555 1_555
H73 C74 1_555 1_555
H74 C74 1_555 1_555
H75 C74 1_555 1_555
C75 C41 1_555 1_555
H76 C75 1_555 1_555
H77 C75 1_555 1_555
H78 C75 1_555 1_555
C76 C42 1_555 1_555
H79 C76 1_555 1_555
H80 C76 1_555 1_555
H81 C76 1_555 1_555
C77 C42 1_555 1_555
H82 C77 1_555 1_555
H83 C77 1_555 1_555
H84 C77 1_555 1_555
C78 C42 1_555 1_555
H85 C78 1_555 1_555
H86 C78 1_555 1_555
H87 C78 1_555 1_555
C79 C55 1_555 1_555
H88 C79 1_555 1_555
H89 C79 1_555 1_555
H90 C79 1_555 1_555
C80 C55 1_555 1_555
H91 C80 1_555 1_555
H92 C80 1_555 1_555
H93 C80 1_555 1_555
C81 C55 1_555 1_555
H94 C81 1_555 1_555
H95 C81 1_555 1_555
H96 C81 1_555 1_555
Cu4 O13 1_555 1_555
O13 C83 1_555 1_555
O14 Cu4 1_555 1_555
O15 C92 1_555 1_555
O16 C94 1_555 1_555
N7 Cu4 1_555 1_555
N8 C98 1_555 1_555
C82 C83 1_555 1_555
C83 C84 1_555 1_555
C84 H97 1_555 1_555
C85 O14 1_555 1_555
C86 C85 1_555 1_555
C87 C86 1_555 1_555
H98 C87 1_555 1_555
C88 C87 1_555 1_555
H99 C88 1_555 1_555
C89 C88 1_555 1_555
H100 C89 1_555 1_555
C90 C89 1_555 1_555
C91 C86 1_555 1_555
H101 C91 1_555 1_555
C92 C90 1_555 1_555
C93 C92 1_555 1_555
H102 C93 1_555 1_555
C94 C93 1_555 1_555
C95 C94 1_555 1_555
C96 N7 1_555 1_555
H103 C96 1_555 1_555
C97 C96 1_555 1_555
H104 C97 1_555 1_555
C98 C97 1_555 1_555
C99 C98 1_555 1_555
H105 C99 1_555 1_555
C100 N7 1_555 1_555
H106 C100 1_555 1_555
C101 N8 1_555 1_555
H107 C101 1_555 1_555
H108 C101 1_555 1_555
C102 N8 1_555 1_555
H109 C102 1_555 1_555
H110 C102 1_555 1_555
C103 C82 1_555 1_555
H111 C103 1_555 1_555
H112 C103 1_555 1_555
H113 C103 1_555 1_555
C104 C82 1_555 1_555
H114 C104 1_555 1_555
H115 C104 1_555 1_555
H116 C104 1_555 1_555
C105 C82 1_555 1_555
H117 C105 1_555 1_555
H118 C105 1_555 1_555
H119 C105 1_555 1_555
C106 C95 1_555 1_555
H120 C106 1_555 1_555
H121 C106 1_555 1_555
H122 C106 1_555 1_555
C107 C95 1_555 1_555
H123 C107 1_555 1_555
H124 C107 1_555 1_555
H125 C107 1_555 1_555
C108 C95 1_555 1_555
H126 C108 1_555 1_555
H127 C108 1_555 1_555
H128 C108 1_555 1_555
Cu5 O17 1_555 1_555
Cu6 O19 1_555 1_555
O17 C112 1_555 1_555
O18 Cu5 1_555 1_555
O19 C119 1_555 1_555
O20 Cu6 1_555 1_555
O21 Cu6 1_555 1_555
O22 Cu6 1_555 1_555
O23 Cu5 1_555 1_555
O24 Cu5 1_555 1_555
N9 Cu5 1_555 1_555
N10 C139 1_555 1_555
N11 C144 1_555 1_555
N12 C148 1_555 1_555
C109 C110 1_555 1_555
C110 O18 1_555 1_555
C111 C110 1_555 1_555
H129 C111 1_555 1_555
C112 C111 1_555 1_555
C113 C112 1_555 1_555
C114 C113 1_555 1_555
H130 C114 1_555 1_555
C115 C114 1_555 1_555
H131 C115 1_555 1_555
C116 C115 1_555 1_555
H132 C116 1_555 1_555
C117 C116 1_555 1_555
C118 C113 1_555 1_555
H133 C118 1_555 1_555
C119 C117 1_555 1_555
C120 C119 1_555 1_555
H134 C120 1_555 1_555
C121 O20 1_555 1_555
C122 C121 1_555 1_555
C123 C124 1_555 1_555
C124 O21 1_555 1_555
C125 C124 1_555 1_555
H135 C125 1_555 1_555
C126 O22 1_555 1_555
C127 C126 1_555 1_555
C128 C127 1_555 1_555
H136 C128 1_555 1_555
C129 C128 1_555 1_555
H137 C129 1_555 1_555
C130 C129 1_555 1_555
H138 C130 1_555 1_555
C131 C130 1_555 1_555
C132 C127 1_555 1_555
H139 C132 1_555 1_555
C133 O23 1_555 1_555
C134 C133 1_555 1_555
H140 C134 1_555 1_555
C135 O24 1_555 1_555
C136 C135 1_555 1_555
C137 N9 1_555 1_555
H141 C137 1_555 1_555
C138 C137 1_555 1_555
H142 C138 1_555 1_555
C139 C138 1_555 1_555
C140 C139 1_555 1_555
H143 C140 1_555 1_555
C141 N9 1_555 1_555
H144 C141 1_555 1_555
C142 N10 1_555 1_555
H145 C142 1_555 1_555
H146 C142 1_555 1_555
C143 N10 1_555 1_555
H147 C143 1_555 1_555
H148 C143 1_555 1_555
C144 C143 1_555 1_555
H149 C144 1_555 1_555
H150 C144 1_555 1_555
C145 N11 1_555 1_555
H151 C145 1_555 1_555
H152 C145 1_555 1_555
C146 N11 1_555 1_555
C147 C146 1_555 1_555
H153 C147 1_555 1_555
C148 C147 1_555 1_555
H154 C148 1_555 1_555
C149 N12 1_555 1_555
H155 C149 1_555 1_555
C150 C146 1_555 1_555
H156 C150 1_555 1_555
C151 C109 1_555 1_555
H157 C151 1_555 1_555
H158 C151 1_555 1_555
H159 C151 1_555 1_555
C152 C109 1_555 1_555
H160 C152 1_555 1_555
H161 C152 1_555 1_555
H162 C152 1_555 1_555
C153 C109 1_555 1_555
H163 C153 1_555 1_555
H164 C153 1_555 1_555
H165 C153 1_555 1_555
C154 C122 1_555 1_555
H166 C154 1_555 1_555
H167 C154 1_555 1_555
H168 C154 1_555 1_555
C155 C122 1_555 1_555
H169 C155 1_555 1_555
H170 C155 1_555 1_555
H171 C155 1_555 1_555
C156 C122 1_555 1_555
H172 C156 1_555 1_555
H173 C156 1_555 1_555
H174 C156 1_555 1_555
C157 C123 1_555 1_555
H175 C157 1_555 1_555
H176 C157 1_555 1_555
H177 C157 1_555 1_555
C158 C123 1_555 1_555
H178 C158 1_555 1_555
H179 C158 1_555 1_555
H180 C158 1_555 1_555
C159 C123 1_555 1_555
H181 C159 1_555 1_555
H182 C159 1_555 1_555
H183 C159 1_555 1_555
C160 C136 1_555 1_555
H184 C160 1_555 1_555
H185 C160 1_555 1_555
H186 C160 1_555 1_555
C161 C136 1_555 1_555
H187 C161 1_555 1_555
H188 C161 1_555 1_555
H189 C161 1_555 1_555
C162 C136 1_555 1_555
H190 C162 1_555 1_555
H191 C162 1_555 1_555
H192 C162 1_555 1_555
N13 C163 1_555 1_555
N14 C165 1_555 1_555
C163 H193 1_555 1_555
C164 C163 1_555 1_555
H194 C164 1_555 1_555
C165 C164 1_555 1_555
C166 C165 1_555 1_555
H195 C166 1_555 1_555
C167 N13 1_555 1_555
H196 C167 1_555 1_555
C168 N14 1_555 1_555
H197 C168 1_555 1_555
H198 C168 1_555 1_555
C169 N14 1_555 1_555
H199 C169 1_555 1_555
H200 C169 1_555 1_555
N15 C170 1_555 1_555
N16 C172 1_555 1_555
C170 H201 1_555 1_555
C171 C170 1_555 1_555
H202 C171 1_555 1_555
C172 C171 1_555 1_555
C173 C172 1_555 1_555
H203 C173 1_555 1_555
C174 N15 1_555 1_555
H204 C174 1_555 1_555
C175 N16 1_555 1_555
H205 C175 1_555 1_555
H206 C175 1_555 1_555
C176 N16 1_555 1_555
H207 C176 1_555 1_555
H208 C176 1_555 1_555
N1A C15A 1_555 1_555
N2A C17A 1_555 1_555
C15A H7A 1_555 1_555
C16A C15A 1_555 1_555
H8A C16A 1_555 1_555
C17A C16A 1_555 1_555
C18A C17A 1_555 1_555
H9A C18A 1_555 1_555
C19A N1A 1_555 1_555
H10A C19A 1_555 1_555
C20A C21 1_555 1_555
H11A C20A 1_555 1_555
H12A C20A 1_555 1_555
C21A C20 1_555 1_555
H13A C21A 1_555 1_555
H14A C21A 1_555 1_555
Cu1A O3 1_555 1_555
O1A Cu1A 1_555 1_555
O2A Cu1A 1_555 1_555
O3A Cu1 1_555 1_555
O4A Cu1 1_555 1_555
C1A C2A 1_555 1_555
C2A O1A 1_555 1_555
C3A C2A 1_555 1_555
H1A C3A 1_555 1_555
C4A O2A 1_555 1_555
C5A C4A 1_555 1_555
C6A C5A 1_555 1_555
H2A C6A 1_555 1_555
C7A C6A 1_555 1_555
H3A C7A 1_555 1_555
C8A C7A 1_555 1_555
H4A C8A 1_555 1_555
C9A C8A 1_555 1_555
C10A C5A 1_555 1_555
H5A C10A 1_555 1_555
C11A O3A 1_555 1_555
C12A C11A 1_555 1_555
H6A C12A 1_555 1_555
C13A O4A 1_555 1_555
C14A C13A 1_555 1_555
C22A C1A 1_555 1_555
H15A C22A 1_555 1_555
H16A C22A 1_555 1_555
H17A C22A 1_555 1_555
C23A C1A 1_555 1_555
H18A C23A 1_555 1_555
H19A C23A 1_555 1_555
H20A C23A 1_555 1_555
C24A C1A 1_555 1_555
H21A C24A 1_555 1_555
H22A C24A 1_555 1_555
H23A C24A 1_555 1_555
C25A C14A 1_555 1_555
H24A C25A 1_555 1_555
H25A C25A 1_555 1_555
H26A C25A 1_555 1_555
C26A C14A 1_555 1_555
H27A C26A 1_555 1_555
H28A C26A 1_555 1_555
H29A C26A 1_555 1_555
C27A C14A 1_555 1_555
H30A C27A 1_555 1_555
H31A C27A 1_555 1_555
H32A C27A 1_555 1_555
Cu1A_2 N1A 1_555 1_555
N1A_2 Cu1A 1_555 1_555
Cu2A O5A 1_555 1_555
Cu3A N6 1_555 1_555
O5A C29A 1_555 1_555
O6A Cu2A 1_555 1_555
O7A Cu3A 1_555 1_555
O8A Cu3A 1_555 1_555
O9A Cu3A 1_555 1_555
O10A Cu3A 1_555 1_555
O11A Cu2A 1_555 1_555
O12A Cu2A 1_555 1_555
N3A Cu2A 1_555 1_555
N4A C58A 1_555 1_555
N5A C63A 1_555 1_555
N6A Cu3 1_555 1_555
C28A C29A 1_555 1_555
C29A C30A 1_555 1_555
C30A H33A 1_555 1_555
C31A O6A 1_555 1_555
C32A C31A 1_555 1_555
C33A C32A 1_555 1_555
H34A C33A 1_555 1_555
C34A C33A 1_555 1_555
H35A C34A 1_555 1_555
C35A C34A 1_555 1_555
H36A C35A 1_555 1_555
C36A C35A 1_555 1_555
C37A C32A 1_555 1_555
H37A C37A 1_555 1_555
C38A O7A 1_555 1_555
C39A C38A 1_555 1_555
H38A C39A 1_555 1_555
C40A O8A 1_555 1_555
C41A C40A 1_555 1_555
C42A C43A 1_555 1_555
C43A O9A 1_555 1_555
C44A C43A 1_555 1_555
H39A C44A 1_555 1_555
C45A O10A 1_555 1_555
C46A C45A 1_555 1_555
C47A C46A 1_555 1_555
H40A C47A 1_555 1_555
C48A C47A 1_555 1_555
H41A C48A 1_555 1_555
C49A C48A 1_555 1_555
H42A C49A 1_555 1_555
C50A C49A 1_555 1_555
C51A C46A 1_555 1_555
H43A C51A 1_555 1_555
C52A O11A 1_555 1_555
C53A C52A 1_555 1_555
H44A C53A 1_555 1_555
C54A O12A 1_555 1_555
C55A C54A 1_555 1_555
C56A N3A 1_555 1_555
H45A C56A 1_555 1_555
C57A C56A 1_555 1_555
H46A C57A 1_555 1_555
C58A C57A 1_555 1_555
C59A C58A 1_555 1_555
H47A C59A 1_555 1_555
C60A N3A 1_555 1_555
H48A C60A 1_555 1_555
C61A N4A 1_555 1_555
H49A C61A 1_555 1_555
H50A C61A 1_555 1_555
C62A N4A 1_555 1_555
H51A C62A 1_555 1_555
H52A C62A 1_555 1_555
C63A C62A 1_555 1_555
H53A C63A 1_555 1_555
H54A C63A 1_555 1_555
C64A N5A 1_555 1_555
H55A C64A 1_555 1_555
H56A C64A 1_555 1_555
C65A N5A 1_555 1_555
C66A C65A 1_555 1_555
H57A C66A 1_555 1_555
C67A N6A 1_555 1_555
H58A C67A 1_555 1_555
C68A N6A 1_555 1_555
H59A C68A 1_555 1_555
C69A C65A 1_555 1_555
H60A C69A 1_555 1_555
C70A C28A 1_555 1_555
H61A C70A 1_555 1_555
H62A C70A 1_555 1_555
H63A C70A 1_555 1_555
C71A C28A 1_555 1_555
H64A C71A 1_555 1_555
H65A C71A 1_555 1_555
H66A C71A 1_555 1_555
C72A C28A 1_555 1_555
H67A C72A 1_555 1_555
H68A C72A 1_555 1_555
H69A C72A 1_555 1_555
C73A C41A 1_555 1_555
H70A C73A 1_555 1_555
H71A C73A 1_555 1_555
H72A C73A 1_555 1_555
C74A C41A 1_555 1_555
H73A C74A 1_555 1_555
H74A C74A 1_555 1_555
H75A C74A 1_555 1_555
C75A C41A 1_555 1_555
H76A C75A 1_555 1_555
H77A C75A 1_555 1_555
H78A C75A 1_555 1_555
C76A C42A 1_555 1_555
H79A C76A 1_555 1_555
H80A C76A 1_555 1_555
H81A C76A 1_555 1_555
C77A C42A 1_555 1_555
H82A C77A 1_555 1_555
H83A C77A 1_555 1_555
H84A C77A 1_555 1_555
C78A C42A 1_555 1_555
H85A C78A 1_555 1_555
H86A C78A 1_555 1_555
H87A C78A 1_555 1_555
C79A C55A 1_555 1_555
H88A C79A 1_555 1_555
H89A C79A 1_555 1_555
H90A C79A 1_555 1_555
C80A C55A 1_555 1_555
H91A C80A 1_555 1_555
H92A C80A 1_555 1_555
H93A C80A 1_555 1_555
C81A C55A 1_555 1_555
H94A C81A 1_555 1_555
H95A C81A 1_555 1_555
H96A C81A 1_555 1_555
N7A C96A 1_555 1_555
N8A C98A 1_555 1_555
C96A H103A 1_555 1_555
C97A C96A 1_555 1_555
H104A C97A 1_555 1_555
C98A C97A 1_555 1_555
C99A C98A 1_555 1_555
H105A C99A 1_555 1_555
C100A N7A 1_555 1_555
H106A C100A 1_555 1_555
C101A C102 1_555 1_555
H107A C101A 1_555 1_555
H108A C101A 1_555 1_555
C102A C101 1_555 1_555
H109A C102A 1_555 1_555
H110A C102A 1_555 1_555
Cu4A O15 1_555 1_555
O13A Cu4A 1_555 1_555
O14A Cu4A 1_555 1_555
O15A Cu4 1_555 1_555
O16A Cu4 1_555 1_555
C82A C83A 1_555 1_555
C83A O13A 1_555 1_555
C84A C83A 1_555 1_555
H97A C84A 1_555 1_555
C85A O14A 1_555 1_555
C86A C85A 1_555 1_555
C87A C86A 1_555 1_555
H98A C87A 1_555 1_555
C88A C87A 1_555 1_555
H99A C88A 1_555 1_555
C89A C88A 1_555 1_555
H100A C89A 1_555 1_555
C90A C89A 1_555 1_555
C91A C86A 1_555 1_555
H101A C91A 1_555 1_555
C92A O15A 1_555 1_555
C93A C92A 1_555 1_555
H102A C93A 1_555 1_555
C94A O16A 1_555 1_555
C95A C94A 1_555 1_555
C103A C82A 1_555 1_555
H111A C103A 1_555 1_555
H112A C103A 1_555 1_555
H113A C103A 1_555 1_555
C104A C82A 1_555 1_555
H114A C104A 1_555 1_555
H115A C104A 1_555 1_555
H116A C104A 1_555 1_555
C105A C82A 1_555 1_555
H117A C105A 1_555 1_555
H118A C105A 1_555 1_555
H119A C105A 1_555 1_555
C106A C95A 1_555 1_555
H120A C106A 1_555 1_555
H121A C106A 1_555 1_555
H122A C106A 1_555 1_555
C107A C95A 1_555 1_555
H123A C107A 1_555 1_555
H124A C107A 1_555 1_555
H125A C107A 1_555 1_555
C108A C95A 1_555 1_555
H126A C108A 1_555 1_555
H127A C108A 1_555 1_555
H128A C108A 1_555 1_555
Cu4A_2 N7A 1_555 1_555
N7A_2 Cu4A 1_555 1_555
Cu5A O17A 1_555 1_555
Cu6A N12 1_555 1_555
O17A C112A 1_555 1_555
O18A Cu5A 1_555 1_555
O19A Cu6A 1_555 1_555
O20A Cu6A 1_555 1_555
O21A Cu6A 1_555 1_555
O22A Cu6A 1_555 1_555
O23A Cu5A 1_555 1_555
O24A Cu5A 1_555 1_555
N9A Cu5A 1_555 1_555
N10A C139A 1_555 1_555
N11A C144A 1_555 1_555
N12A Cu6 1_555 1_555
C109A C110A 1_555 1_555
C110A O18A 1_555 1_555
C111A C110A 1_555 1_555
H129A C111A 1_555 1_555
C112A C111A 1_555 1_555
C113A C112A 1_555 1_555
C114A C113A 1_555 1_555
H130A C114A 1_555 1_555
C115A C114A 1_555 1_555
H131A C115A 1_555 1_555
C116A C115A 1_555 1_555
H132A C116A 1_555 1_555
C117A C116A 1_555 1_555
C118A C113A 1_555 1_555
H133A C118A 1_555 1_555
C119A O19A 1_555 1_555
C120A C119A 1_555 1_555
H134A C120A 1_555 1_555
C121A O20A 1_555 1_555
C122A C121A 1_555 1_555
C123A C124A 1_555 1_555
C124A O21A 1_555 1_555
C125A C124A 1_555 1_555
H135A C125A 1_555 1_555
C126A O22A 1_555 1_555
C127A C126A 1_555 1_555
C128A C127A 1_555 1_555
H136A C128A 1_555 1_555
C129A C128A 1_555 1_555
H137A C129A 1_555 1_555
C130A C129A 1_555 1_555
H138A C130A 1_555 1_555
C131A C130A 1_555 1_555
C132A C127A 1_555 1_555
H139A C132A 1_555 1_555
C133A O23A 1_555 1_555
C134A C133A 1_555 1_555
H140A C134A 1_555 1_555
C135A O24A 1_555 1_555
C136A C135A 1_555 1_555
C137A N9A 1_555 1_555
H141A C137A 1_555 1_555
C138A C137A 1_555 1_555
H142A C138A 1_555 1_555
C139A C138A 1_555 1_555
C140A C139A 1_555 1_555
H143A C140A 1_555 1_555
C141A N9A 1_555 1_555
H144A C141A 1_555 1_555
C142A N10A 1_555 1_555
H145A C142A 1_555 1_555
H146A C142A 1_555 1_555
C143A N10A 1_555 1_555
H147A C143A 1_555 1_555
H148A C143A 1_555 1_555
C144A C143A 1_555 1_555
H149A C144A 1_555 1_555
H150A C144A 1_555 1_555
C145A N11A 1_555 1_555
H151A C145A 1_555 1_555
H152A C145A 1_555 1_555
C146A N11A 1_555 1_555
C147A C146A 1_555 1_555
H153A C147A 1_555 1_555
C148A N12A 1_555 1_555
H154A C148A 1_555 1_555
C149A N12A 1_555 1_555
H155A C149A 1_555 1_555
C150A C146A 1_555 1_555
H156A C150A 1_555 1_555
C151A C109A 1_555 1_555
H157A C151A 1_555 1_555
H158A C151A 1_555 1_555
H159A C151A 1_555 1_555
C152A C109A 1_555 1_555
H160A C152A 1_555 1_555
H161A C152A 1_555 1_555
H162A C152A 1_555 1_555
C153A C109A 1_555 1_555
H163A C153A 1_555 1_555
H164A C153A 1_555 1_555
H165A C153A 1_555 1_555
C154A C122A 1_555 1_555
H166A C154A 1_555 1_555
H167A C154A 1_555 1_555
H168A C154A 1_555 1_555
C155A C122A 1_555 1_555
H169A C155A 1_555 1_555
H170A C155A 1_555 1_555
H171A C155A 1_555 1_555
C156A C122A 1_555 1_555
H172A C156A 1_555 1_555
H173A C156A 1_555 1_555
H174A C156A 1_555 1_555
C157A C123A 1_555 1_555
H175A C157A 1_555 1_555
H176A C157A 1_555 1_555
H177A C157A 1_555 1_555
C158A C123A 1_555 1_555
H178A C158A 1_555 1_555
H179A C158A 1_555 1_555
H180A C158A 1_555 1_555
C159A C123A 1_555 1_555
H181A C159A 1_555 1_555
H182A C159A 1_555 1_555
H183A C159A 1_555 1_555
C160A C136A 1_555 1_555
H184A C160A 1_555 1_555
H185A C160A 1_555 1_555
H186A C160A 1_555 1_555
C161A C136A 1_555 1_555
H187A C161A 1_555 1_555
H188A C161A 1_555 1_555
H189A C161A 1_555 1_555
C162A C136A 1_555 1_555
H190A C162A 1_555 1_555
H191A C162A 1_555 1_555
H192A C162A 1_555 1_555
N13A C163A 1_555 1_555
N14A C165A 1_555 1_555
C163A H193A 1_555 1_555
C164A C163A 1_555 1_555
H194A C164A 1_555 1_555
C165A C164A 1_555 1_555
C166A C165A 1_555 1_555
H195A C166A 1_555 1_555
C167A N13A 1_555 1_555
H196A C167A 1_555 1_555
C168A C169 1_555 1_555
H197A C168A 1_555 1_555
H198A C168A 1_555 1_555
C169A C168 1_555 1_555
H199A C169A 1_555 1_555
H200A C169A 1_555 1_555
N15A C170A 1_555 1_555
N16A C172A 1_555 1_555
C170A H201A 1_555 1_555
C171A C170A 1_555 1_555
H202A C171A 1_555 1_555
C172A C171A 1_555 1_555
C173A C172A 1_555 1_555
H203A C173A 1_555 1_555
C174A N15A 1_555 1_555
H204A C174A 1_555 1_555
C175A C176 1_555 1_555
H205A C175A 1_555 1_555
H206A C175A 1_555 1_555
C176A C175 1_555 1_555
H207A C176A 1_555 1_555
H208A C176A 1_555 1_555
O4 Cu1A 1_555 1_555
C3 C4 1_555 1_555
C9 C10 1_555 1_555
C18 C19 1_555 1_555
C30 C31 1_555 1_555
C36 C37 1_555 1_555
C39 C40 1_555 1_555
C44 C45 1_555 1_555
C50 C51 1_555 1_555
C50 C52 1_555 1_555
C53 C54 1_555 1_555
C59 C60 1_555 1_555
C61 C64 1_555 1_555
C68 C69 1_555 1_555
O16 Cu4A 1_555 1_555
C84 C85 1_555 1_555
C90 C91 1_555 1_555
C99 C100 1_555 1_555
C117 C118 1_555 1_555
C120 C121 1_555 1_555
C125 C126 1_555 1_555
C131 C132 1_555 1_555
C131 C133 1_555 1_555
C134 C135 1_555 1_555
C140 C141 1_555 1_555
C142 C145 1_555 1_555
C149 C150 1_555 1_555
C166 C167 1_555 1_555
C173 C174 1_555 1_555
N2A C20A 1_555 1_555
N2A C21A 1_555 1_555
C18A C19A 1_555 1_555
C3A C4A 1_555 1_555
C9A C10A 1_555 1_555
C9A C11A 1_555 1_555
C12A C13A 1_555 1_555
C30A C31A 1_555 1_555
C36A C37A 1_555 1_555
C36A C38A 1_555 1_555
C39A C40A 1_555 1_555
C44A C45A 1_555 1_555
C50A C51A 1_555 1_555
C50A C52A 1_555 1_555
C53A C54A 1_555 1_555
C59A C60A 1_555 1_555
C61A C64A 1_555 1_555
C66A C67A 1_555 1_555
C68A C69A 1_555 1_555
N8A C101A 1_555 1_555
N8A C102A 1_555 1_555
C99A C100A 1_555 1_555
C84A C85A 1_555 1_555
C90A C91A 1_555 1_555
C90A C92A 1_555 1_555
C93A C94A 1_555 1_555
C117A C118A 1_555 1_555
C117A C119A 1_555 1_555
C120A C121A 1_555 1_555
C125A C126A 1_555 1_555
C131A C132A 1_555 1_555
C131A C133A 1_555 1_555
C134A C135A 1_555 1_555
C140A C141A 1_555 1_555
C142A C145A 1_555 1_555
C147A C148A 1_555 1_555
C149A C150A 1_555 1_555
N14A C168A 1_555 1_555
N14A C169A 1_555 1_555
C166A C167A 1_555 1_555
N16A C175A 1_555 1_555
N16A C176A 1_555 1_555
C173A C174A 1_555 1_555

#END
