
#######################################################################
#
#                 Cambridge Crystallographic Data Centre
#                                CCDC 
#
#######################################################################
#
# If this CIF has been generated from an entry in the Cambridge 
# Structural Database, then it will include bibliographic, chemical, 
# crystal, experimental, refinement or atomic coordinate data resulting 
# from the CCDC's data processing and validation procedures.
#
#######################################################################

data_RUKGAH
_symmetry_cell_setting           monoclinic
_symmetry_space_group_name_H-M   'P 21/c'
_symmetry_Int_Tables_number      14
_space_group_name_Hall           '-P 2ybc'
loop_
_symmetry_equiv_pos_site_id
_symmetry_equiv_pos_as_xyz
1 x,y,z
2 -x,1/2+y,1/2-z
3 -x,-y,-z
4 x,1/2-y,1/2+z
_cell_length_a                   15.7816(8)
_cell_length_b                   16.2894(7)
_cell_length_c                   11.9362(6)
_cell_angle_alpha                90
_cell_angle_beta                 107.029(2)
_cell_angle_gamma                90
_cell_volume                     2933.94
loop_
_atom_site_label
_atom_site_type_symbol
_atom_site_fract_x
_atom_site_fract_y
_atom_site_fract_z
Cu1 Cu 0.68143(2) 0.49506(2) -0.14278(3)
O1 O 0.75644(13) 0.41235(12) -0.18084(18)
O2 O 0.61187(13) 0.41237(11) -0.09294(18)
O3 O 0.40994(13) 0.42973(12) 0.13497(18)
O4 O 0.25868(13) 0.42397(12) 0.21228(18)
N1 N 0.77161(17) 0.51542(16) 0.0387(2)
N2 N 0.94283(15) 0.49967(16) 0.3823(2)
C1 C 0.9227(3) 0.3036(5) -0.0448(5)
H1 H 0.9360 0.3621 -0.0310
H2 H 0.9748 0.2752 -0.0545
H3 H 0.9070 0.2803 0.0221
C2 C 0.8255(4) 0.2029(2) -0.1759(6)
H4 H 0.8773 0.1742 -0.1859
H5 H 0.7756 0.1969 -0.2472
H6 H 0.8095 0.1792 -0.1093
C3 C 0.8718(3) 0.3264(3) -0.2561(4)
H7 H 0.8867 0.3848 -0.2436
H8 H 0.8218 0.3199 -0.3271
H9 H 0.9232 0.2963 -0.2651
C4 C 0.8470(2) 0.2933(2) -0.1530(3)
C5 C 0.76852(19) 0.34133(18) -0.1358(3)
C6 C 0.71739(19) 0.30672(19) -0.0702(3)
H10 H 0.7351 0.2547 -0.0352
C7 C 0.64256(19) 0.34280(17) -0.0525(3)
C8 C 0.59299(18) 0.30011(17) 0.0202(2)
C9 C 0.6164(2) 0.22229(18) 0.0678(3)
H11 H 0.6626 0.1928 0.0496
C10 C 0.5732(2) 0.18799(19) 0.1409(3)
H12 H 0.5906 0.1354 0.1740
C11 C 0.5049(2) 0.22919(18) 0.1665(3)
H13 H 0.4756 0.2049 0.2173
C12 C 0.47884(18) 0.30590(17) 0.1185(3)
C13 C 0.52374(19) 0.34100(17) 0.0460(3)
H14 H 0.5067 0.3939 0.0135
C14 C 0.40587(18) 0.35255(17) 0.1448(2)
C15 C 0.3399(2) 0.31057(18) 0.1777(3)
H15 H 0.3421 0.2523 0.1778
C16 C 0.27113(19) 0.34742(18) 0.2103(3)
C17 C 0.2048(2) 0.29211(19) 0.2470(3)
C18 C 0.1330(3) 0.3432(2) 0.2734(4)
H16 H 0.1011 0.3741 0.2032
H17 H 0.1598 0.3816 0.3371
H18 H 0.0915 0.3072 0.2969
C19 C 0.1620(3) 0.2334(2) 0.1476(4)
H19 H 0.1298 0.2648 0.0782
H20 H 0.1206 0.1973 0.1714
H21 H 0.2080 0.2001 0.1293
C20 C 0.2545(3) 0.2431(3) 0.3557(4)
H22 H 0.2818 0.2810 0.4199
H23 H 0.3006 0.2098 0.3378
H24 H 0.2128 0.2071 0.3790
C21 C 0.8589(2) 0.5229(2) 0.0623(3)
H25 H 0.8824 0.5311 -0.0016
C22 C 0.9173(2) 0.5196(2) 0.1726(3)
H26 H 0.9791 0.5253 0.1829
C23 C 0.88682(19) 0.50780(18) 0.2701(3)
C24 C 0.7947(2) 0.50176(19) 0.2458(3)
H27 H 0.7687 0.4953 0.3077
C25 C 0.7420(2) 0.50531(19) 0.1311(3)
H28 H 0.6798 0.5001 0.1171
C26 C 1.0328(2) 0.5308(2) 0.4097(3)
H29 H 1.0321 0.5911 0.4200
H30 H 1.0565 0.5194 0.3431
C27 C 0.90692(19) 0.5071(2) 0.4811(3)
H31 H 0.8484 0.4797 0.4615
H32 H 0.8982 0.5658 0.4957
N1B N 1.22839(17) 0.48458(16) 0.9613(2)
N2B N 1.05717(15) 0.50033(16) 0.6177(2)
C21B C 1.1411(2) 0.4771(2) 0.9377(3)
H25B H 1.1176 0.4689 1.0016
C22B C 1.0827(2) 0.4804(2) 0.8274(3)
H26B H 1.0209 0.4747 0.8171
C23B C 1.11318(19) 0.49220(18) 0.7299(3)
C24B C 1.2053(2) 0.49824(19) 0.7542(3)
H27B H 1.2313 0.5047 0.6923
C25B C 1.2580(2) 0.49469(19) 0.8689(3)
H28B H 1.3202 0.4999 0.8829
C26B C 0.9672(2) 0.4692(2) 0.5903(3)
H29B H 0.9679 0.4089 0.5800
H30B H 0.9435 0.4806 0.6569
C27B C 1.09308(19) 0.4929(2) 0.5189(3)
H31B H 1.1516 0.5203 0.5385
H32B H 1.1018 0.4342 0.5043
Cu1B Cu 0.31857(2) 0.50494(2) 0.14278(3)
O1B O 0.24356(13) 0.58765(12) 0.18084(18)
O2B O 0.38813(13) 0.58763(11) 0.09294(18)
O3B O 0.59006(13) 0.57027(12) -0.13497(18)
O4B O 0.74132(13) 0.57603(12) -0.21228(18)
C1B C 0.0773(3) 0.6964(5) 0.0448(5)
H1B H 0.0640 0.6379 0.0310
H2B H 0.0252 0.7248 0.0545
H3B H 0.0930 0.7197 -0.0221
C2B C 0.1745(4) 0.7971(2) 0.1759(6)
H4B H 0.1227 0.8258 0.1859
H5B H 0.2244 0.8031 0.2472
H6B H 0.1905 0.8208 0.1093
C3B C 0.1282(3) 0.6736(3) 0.2561(4)
H7B H 0.1133 0.6152 0.2436
H8B H 0.1782 0.6801 0.3271
H9B H 0.0768 0.7037 0.2651
C4B C 0.1530(2) 0.7067(2) 0.1530(3)
C5B C 0.23148(19) 0.65867(18) 0.1358(3)
C6B C 0.28261(19) 0.69328(19) 0.0702(3)
H10B H 0.2649 0.7453 0.0352
C7B C 0.35744(19) 0.65720(17) 0.0525(3)
C8B C 0.40701(18) 0.69989(17) -0.0202(2)
C9B C 0.3836(2) 0.77771(18) -0.0678(3)
H11B H 0.3374 0.8072 -0.0496
C10B C 0.4268(2) 0.81201(19) -0.1409(3)
H12B H 0.4094 0.8646 -0.1740
C11B C 0.4951(2) 0.77081(18) -0.1665(3)
H13B H 0.5244 0.7951 -0.2173
C12B C 0.52116(18) 0.69410(17) -0.1185(3)
C13B C 0.47626(19) 0.65900(17) -0.0460(3)
H14B H 0.4933 0.6061 -0.0135
C14B C 0.59413(18) 0.64745(17) -0.1448(2)
C15B C 0.6601(2) 0.68943(18) -0.1777(3)
H15B H 0.6579 0.7477 -0.1778
C16B C 0.72887(19) 0.65258(18) -0.2103(3)
C17B C 0.7952(2) 0.70789(19) -0.2470(3)
C18B C 0.8670(3) 0.6568(2) -0.2734(4)
H16B H 0.8989 0.6259 -0.2032
H17B H 0.8402 0.6184 -0.3371
H18B H 0.9085 0.6928 -0.2969
C19B C 0.8380(3) 0.7666(2) -0.1476(4)
H19B H 0.8702 0.7352 -0.0782
H20B H 0.8794 0.8027 -0.1714
H21B H 0.7920 0.7999 -0.1293
C20B C 0.7455(3) 0.7569(3) -0.3557(4)
H22B H 0.7182 0.7190 -0.4199
H23B H 0.6994 0.7902 -0.3378
H24B H 0.7872 0.7929 -0.3790
Cu1B_2 Cu 1.31857(2) 0.50494(2) 1.14278(3)
N1B_2 N 0.22839(17) 0.48458(16) -0.0387(2)
C28 C 0.3159(2) 0.5078(2) 0.4740(3)
H33 H 0.2580 0.4829 0.4321
H34 H 0.3411 0.5332 0.4154
C29 C 0.3731(5) 0.4482(4) 0.5373(6)
H35 H 0.4147 0.4303 0.4942
H36 H 0.3392 0.3998 0.5502
C30 C 0.4231(4) 0.4864(4) 0.6529(6)
H37 H 0.4140 0.4547 0.7192
H38 H 0.4873 0.4890 0.6614
C31 C 0.3854(2) 0.5691(2) 0.6485(3)
H39 H 0.3735 0.5823 0.7234
H40 H 0.4269 0.6105 0.6339
O5 O 0.30441(15) 0.56814(15) 0.5540(2)
loop_
_geom_bond_atom_site_label_1
_geom_bond_atom_site_label_2
_geom_bond_site_symmetry_1
_geom_bond_site_symmetry_2
Cu1 O1 1_555 1_555
O1 C5 1_555 1_555
O2 Cu1 1_555 1_555
O3 C14 1_555 1_555
O4 C16 1_555 1_555
N1 Cu1 1_555 1_555
N2 C23 1_555 1_555
C1 H1 1_555 1_555
H2 C1 1_555 1_555
H3 C1 1_555 1_555
C2 H4 1_555 1_555
H5 C2 1_555 1_555
H6 C2 1_555 1_555
C3 H7 1_555 1_555
H8 C3 1_555 1_555
H9 C3 1_555 1_555
C4 C1 1_555 1_555
C5 C4 1_555 1_555
C6 C5 1_555 1_555
H10 C6 1_555 1_555
C7 O2 1_555 1_555
C8 C7 1_555 1_555
C9 C8 1_555 1_555
H11 C9 1_555 1_555
C10 C9 1_555 1_555
H12 C10 1_555 1_555
C11 C10 1_555 1_555
H13 C11 1_555 1_555
C12 C11 1_555 1_555
C13 C8 1_555 1_555
H14 C13 1_555 1_555
C14 C12 1_555 1_555
C15 C14 1_555 1_555
H15 C15 1_555 1_555
C16 C15 1_555 1_555
C17 C16 1_555 1_555
C18 C17 1_555 1_555
H16 C18 1_555 1_555
H17 C18 1_555 1_555
H18 C18 1_555 1_555
C19 C17 1_555 1_555
H19 C19 1_555 1_555
H20 C19 1_555 1_555
H21 C19 1_555 1_555
C20 C17 1_555 1_555
H22 C20 1_555 1_555
H23 C20 1_555 1_555
H24 C20 1_555 1_555
C21 N1 1_555 1_555
H25 C21 1_555 1_555
C22 C21 1_555 1_555
H26 C22 1_555 1_555
C23 C22 1_555 1_555
C24 C23 1_555 1_555
H27 C24 1_555 1_555
C25 N1 1_555 1_555
H28 C25 1_555 1_555
C26 N2 1_555 1_555
H29 C26 1_555 1_555
H30 C26 1_555 1_555
C27 N2 1_555 1_555
H31 C27 1_555 1_555
H32 C27 1_555 1_555
C28 H33 1_555 1_555
H34 C28 1_555 1_555
C29 C28 1_555 1_555
H35 C29 1_555 1_555
H36 C29 1_555 1_555
C30 C29 1_555 1_555
H37 C30 1_555 1_555
H38 C30 1_555 1_555
C31 C30 1_555 1_555
H39 C31 1_555 1_555
H40 C31 1_555 1_555
O5 C28 1_555 1_555
N1B C21B 1_555 1_555
N2B C23B 1_555 1_555
C21B H25B 1_555 1_555
C22B C21B 1_555 1_555
H26B C22B 1_555 1_555
C23B C22B 1_555 1_555
C24B C23B 1_555 1_555
H27B C24B 1_555 1_555
C25B N1B 1_555 1_555
H28B C25B 1_555 1_555
C26B C27 1_555 1_555
H29B C26B 1_555 1_555
H30B C26B 1_555 1_555
C27B C26 1_555 1_555
H31B C27B 1_555 1_555
H32B C27B 1_555 1_555
Cu1B O3 1_555 1_555
O1B Cu1B 1_555 1_555
O2B Cu1B 1_555 1_555
O3B Cu1 1_555 1_555
O4B Cu1 1_555 1_555
C1B H1B 1_555 1_555
H2B C1B 1_555 1_555
H3B C1B 1_555 1_555
C2B H4B 1_555 1_555
H5B C2B 1_555 1_555
H6B C2B 1_555 1_555
C3B H7B 1_555 1_555
H8B C3B 1_555 1_555
H9B C3B 1_555 1_555
C4B C1B 1_555 1_555
C5B O1B 1_555 1_555
C6B C5B 1_555 1_555
H10B C6B 1_555 1_555
C7B O2B 1_555 1_555
C8B C7B 1_555 1_555
C9B C8B 1_555 1_555
H11B C9B 1_555 1_555
C10B C9B 1_555 1_555
H12B C10B 1_555 1_555
C11B C10B 1_555 1_555
H13B C11B 1_555 1_555
C12B C11B 1_555 1_555
C13B C8B 1_555 1_555
H14B C13B 1_555 1_555
C14B O3B 1_555 1_555
C15B C14B 1_555 1_555
H15B C15B 1_555 1_555
C16B O4B 1_555 1_555
C17B C16B 1_555 1_555
C18B C17B 1_555 1_555
H16B C18B 1_555 1_555
H17B C18B 1_555 1_555
H18B C18B 1_555 1_555
C19B C17B 1_555 1_555
H19B C19B 1_555 1_555
H20B C19B 1_555 1_555
H21B C19B 1_555 1_555
C20B C17B 1_555 1_555
H22B C20B 1_555 1_555
H23B C20B 1_555 1_555
H24B C20B 1_555 1_555
Cu1B_2 N1B 1_555 1_555
N1B_2 Cu1B 1_555 1_555
O4 Cu1B 1_555 1_555
C2 C4 1_555 1_555
C3 C4 1_555 1_555
C6 C7 1_555 1_555
C12 C13 1_555 1_555
C24 C25 1_555 1_555
C31 O5 1_555 1_555
N2B C26B 1_555 1_555
N2B C27B 1_555 1_555
C24B C25B 1_555 1_555
C2B C4B 1_555 1_555
C3B C4B 1_555 1_555
C4B C5B 1_555 1_555
C6B C7B 1_555 1_555
C12B C13B 1_555 1_555
C12B C14B 1_555 1_555
C15B C16B 1_555 1_555

#END
