
#######################################################################
#
#                 Cambridge Crystallographic Data Centre
#                                CCDC 
#
#######################################################################
#
# If this CIF has been generated from an entry in the Cambridge 
# Structural Database, then it will include bibliographic, chemical, 
# crystal, experimental, refinement or atomic coordinate data resulting 
# from the CCDC's data processing and validation procedures.
#
#######################################################################

data_RUKJEN
_symmetry_cell_setting           monoclinic
_symmetry_space_group_name_H-M   'P 21/c'
_symmetry_Int_Tables_number      14
_space_group_name_Hall           '-P 2ybc'
loop_
_symmetry_equiv_pos_site_id
_symmetry_equiv_pos_as_xyz
1 x,y,z
2 -x,1/2+y,1/2-z
3 -x,-y,-z
4 x,1/2-y,1/2+z
_cell_length_a                   7.6870(15)
_cell_length_b                   15.553(3)
_cell_length_c                   12.107(4)
_cell_angle_alpha                90
_cell_angle_beta                 124.56(2)
_cell_angle_gamma                90
_cell_volume                     1192.03
loop_
_atom_site_label
_atom_site_type_symbol
_atom_site_fract_x
_atom_site_fract_y
_atom_site_fract_z
C1 C -0.0888(5) 0.3669(2) 0.4661(3)
C2 C 0.0277(5) 0.1554(2) 0.4288(3)
H1 H -0.0272 0.1168 0.4602
C3 C 0.1492(5) 0.1287(2) 0.3743(3)
C4 C 0.2064(6) 0.0444(2) 0.3722(4)
H2 H 0.1674 0.0002 0.4055
C5 C 0.3239(6) 0.0272(2) 0.3191(4)
H3 H 0.3654 -0.0287 0.3178
C6 C 0.3778(5) 0.0941(2) 0.2685(4)
H4 H 0.4536 0.0834 0.2314
C7 C 0.3176(5) 0.1771(2) 0.2738(4)
H5 H 0.3554 0.2222 0.241
Cu1 Cu 0.11979(8) 0.30943(3) 0.35314(5)
N1 N 0.0054(4) 0.23698(16) 0.4285(3)
N2 N 0.2053(4) 0.19404(16) 0.3255(3)
N3 N -0.0993(4) 0.27943(17) 0.4733(3)
H6 H -0.1645 0.2539 0.5028
N4 N -0.1878(5) 0.41319(19) 0.5059(3)
H7 H -0.185 0.4684 0.5035
H8 H -0.2551 0.3881 0.5343
N5 N 0.2504(4) 0.44245(17) 0.2559(3)
N6 N -0.3965(5) 0.26355(19) 0.1137(3)
O1 O 0.0139(4) 0.39913(14) 0.4229(2)
O2 O 0.1675(4) 0.36673(15) 0.2315(3)
O3 O 0.2406(5) 0.47942(17) 0.1625(3)
O4 O 0.3288(5) 0.47310(19) 0.3664(3)
O5 O -0.2345(4) 0.29378(18) 0.1226(3)
O6 O -0.4731(4) 0.19303(17) 0.0560(3)
O7 O -0.4768(4) 0.30498(18) 0.1616(3)
Cu1C Cu -0.88021(8) 0.19057(3) -0.14686(5)
O6C O 0.5269(4) 0.30697(17) 0.5560(3)
loop_
_geom_bond_atom_site_label_1
_geom_bond_atom_site_label_2
_geom_bond_site_symmetry_1
_geom_bond_site_symmetry_2
C1 N3 1_555 1_555
C2 H1 1_555 1_555
C3 C2 1_555 1_555
C4 C3 1_555 1_555
H2 C4 1_555 1_555
C5 C4 1_555 1_555
H3 C5 1_555 1_555
C6 C5 1_555 1_555
H4 C6 1_555 1_555
C7 C6 1_555 1_555
H5 C7 1_555 1_555
Cu1 N1 1_555 1_555
N1 C2 1_555 1_555
N2 C3 1_555 1_555
N3 N1 1_555 1_555
H6 N3 1_555 1_555
N4 C1 1_555 1_555
H7 N4 1_555 1_555
H8 N4 1_555 1_555
N5 O2 1_555 1_555
N6 O5 1_555 1_555
O1 C1 1_555 1_555
O2 Cu1 1_555 1_555
O3 N5 1_555 1_555
O4 N5 1_555 1_555
O5 Cu1 1_555 1_555
O6 N6 1_555 1_555
O7 N6 1_555 1_555
Cu1C O6 1_555 1_555
O6C Cu1 1_555 1_555
C7 N2 1_555 1_555
Cu1 N2 1_555 1_555
Cu1 O1 1_555 1_555

#END
