
#######################################################################
#
#                 Cambridge Crystallographic Data Centre
#                                CCDC 
#
#######################################################################
#
# If this CIF has been generated from an entry in the Cambridge 
# Structural Database, then it will include bibliographic, chemical, 
# crystal, experimental, refinement or atomic coordinate data resulting 
# from the CCDC's data processing and validation procedures.
#
#######################################################################

data_RUKLIS
_symmetry_cell_setting           triclinic
_symmetry_space_group_name_H-M   'P -1'
_symmetry_Int_Tables_number      2
_space_group_name_Hall           '-P 1'
loop_
_symmetry_equiv_pos_site_id
_symmetry_equiv_pos_as_xyz
1 x,y,z
2 -x,-y,-z
_cell_length_a                   8.541(6)
_cell_length_b                   10.354(5)
_cell_length_c                   15.730(8)
_cell_angle_alpha                85.87(4)
_cell_angle_beta                 75.09(5)
_cell_angle_gamma                66.35(5)
_cell_volume                     1230.56
loop_
_atom_site_label
_atom_site_type_symbol
_atom_site_fract_x
_atom_site_fract_y
_atom_site_fract_z
N5 N -0.363(1) 1.2756(9) 0.7344(5)
N6 N 0.069(1) 1.3634(8) 0.5638(5)
N7 N -0.358(1) 1.4008(9) 0.1345(5)
N8 N -0.777(1) 1.295(1) 0.3027(6)
C11 C -0.279(1) 1.3230(9) 0.5056(6)
C12 C -0.193(1) 1.3490(9) 0.4192(5)
C13 C -0.260(1) 1.3493(9) 0.3509(6)
C14 C -0.417(1) 1.3240(9) 0.3603(5)
C15 C -0.503(1) 1.297(1) 0.4468(6)
C16 C -0.438(1) 1.2969(9) 0.5165(6)
C25 C -0.212(1) 1.3228(9) 0.5782(6)
C26 C -0.297(1) 1.297(1) 0.6645(7)
C27 C -0.055(1) 1.3441(9) 0.5688(5)
C28 C -0.490(1) 1.3317(9) 0.2890(6)
C29 C -0.415(1) 1.3687(9) 0.2036(6)
C30 C -0.650(1) 1.312(1) 0.2981(6)
H6 H -0.0885 1.3667 0.4099
H7 H -0.2015 1.3678 0.2936
H8 H -0.6087 1.2803 0.4558
H9 H -0.4967 1.2787 0.5738
Cu1 Cu 0.0106(1) 1.1129(1) 0.92997(8)
O1 O -0.1607(7) 1.0554(6) 1.0185(4)
N1 N 0.2134(9) 1.1534(8) 0.8607(5)
N2 N -0.1790(9) 1.2854(8) 0.9065(5)
N3 N 0.0093(9) 0.9878(8) 0.8051(5)
N4 N 0.431(1) 1.0429(8) 0.6281(5)
F1 F -0.959(1) 1.3964(9) 1.0252(6)
F2 F -0.967(1) 1.1957(8) 1.0741(6)
F3 F -0.980(1) 1.3516(9) 1.1642(5)
C1 C -0.337(1) 1.1089(9) 1.0325(6)
C2 C -0.427(1) 1.2317(9) 0.9882(6)
C3 C -0.608(1) 1.2845(9) 1.0033(6)
C4 C -0.7122(8) 1.2298(8) 1.0654(5)
C5 C -0.629(1) 1.1126(9) 1.1093(6)
C6 C -0.443(1) 1.0531(9) 1.0955(5)
C7 C 0.074(1) 1.0009(8) 0.5706(5)
C8 C -0.081(1) 0.9732(8) 0.5848(5)
C9 C 0.154(1) 1.0246(8) 0.4838(5)
C10 C -0.341(1) 1.3098(9) 0.9324(6)
C17 C -0.910(1) 1.294(2) 1.083(1)
C18 C 0.374(1) 1.073(1) 0.8570(6)
C19 C 0.150(1) 0.9990(9) 0.6417(5)
C20 C 0.067(1) 0.9903(9) 0.7301(6)
C21 C 0.307(1) 1.0234(9) 0.6308(6)
C22 C -0.134(1) 1.396(1) 0.8528(6)
C23 C 0.024(1) 1.342(1) 0.7764(6)
C24 C 0.194(1) 1.281(1) 0.8056(6)
H1 H -0.6644 1.3620 0.9700
H2 H -0.6983 1.0708 1.1505
H3 H -0.1355 0.9529 0.6427
H4 H 0.2615 1.0384 0.4732
H5 H -0.4180 1.3950 0.9110
H10 H 0.4600 1.0995 0.8165
H11 H -0.1107 1.4528 0.8899
H12 H -0.2322 1.4548 0.8298
H13 H 0.0264 1.4167 0.7373
H14 H 0.0166 1.2681 0.7457
H15 H 0.1992 1.3532 0.8385
H16 H 0.2915 1.2546 0.7536
O1A O 0.1607(7) 0.9446(6) 0.9815(4)
Cu1A Cu -0.0106(1) 0.8871(1) 1.07003(8)
C18A C -0.374(1) 0.927(1) 1.1430(6)
C9A C -0.154(1) 0.9754(8) 0.5162(5)
C8A C 0.081(1) 1.0268(8) 0.4152(5)
C6A C 0.443(1) 0.9469(9) 0.9045(5)
Br1? Br -0.9626(3) 1.2988(3) 1.0817(2)
loop_
_geom_bond_atom_site_label_1
_geom_bond_atom_site_label_2
_geom_bond_site_symmetry_1
_geom_bond_site_symmetry_2
Cu1 O1 1_555 1_555
O1 C1 1_555 1_555
N1 Cu1 1_555 1_555
N2 Cu1 1_555 1_555
N3 Cu1 1_555 1_555
N4 C21 1_555 1_555
N5 C26 1_555 1_555
N6 C27 1_555 1_555
N7 C29 1_555 1_555
N8 C30 1_555 1_555
F1 C17 1_555 1_555
F2 C17 1_555 1_555
F3 C17 1_555 1_555
C1 C2 1_555 1_555
C2 C3 1_555 1_555
C3 C4 1_555 1_555
C4 C5 1_555 1_555
C5 C6 1_555 1_555
C6 C1 1_555 1_555
C7 C8 1_555 1_555
C8 H3 1_555 1_555
C9 C7 1_555 1_555
C10 N2 1_555 1_555
C11 C12 1_555 1_555
C12 C13 1_555 1_555
C13 C14 1_555 1_555
C14 C15 1_555 1_555
C15 C16 1_555 1_555
C16 C11 1_555 1_555
C17 C4 1_555 1_555
C18 N1 1_555 1_555
C19 C7 1_555 1_555
C20 N3 1_555 1_555
C21 C19 1_555 1_555
C22 N2 1_555 1_555
C23 C22 1_555 1_555
C24 N1 1_555 1_555
C25 C11 1_555 1_555
C26 C25 1_555 1_555
C27 C25 1_555 1_555
C28 C14 1_555 1_555
C29 C28 1_555 1_555
C30 C28 1_555 1_555
H1 C3 1_555 1_555
H2 C5 1_555 1_555
H4 C9 1_555 1_555
H5 C10 1_555 1_555
H6 C12 1_555 1_555
H7 C13 1_555 1_555
H8 C15 1_555 1_555
H9 C16 1_555 1_555
H10 C18 1_555 1_555
H11 C22 1_555 1_555
H12 C22 1_555 1_555
H13 C23 1_555 1_555
H14 C23 1_555 1_555
H15 C24 1_555 1_555
H16 C24 1_555 1_555
O1A Cu1 1_555 1_555
Cu1A O1 1_555 1_555
C18A C6 1_555 1_555
C9A C8 1_555 1_555
C8A C9 1_555 1_555
C6A C18 1_555 1_555
C2 C10 1_555 1_555
C19 C20 1_555 1_555
C23 C24 1_555 1_555
O1A Cu1A 1_555 1_555

#END
