
#######################################################################
#
#                 Cambridge Crystallographic Data Centre
#                                CCDC 
#
#######################################################################
#
# If this CIF has been generated from an entry in the Cambridge 
# Structural Database, then it will include bibliographic, chemical, 
# crystal, experimental, refinement or atomic coordinate data resulting 
# from the CCDC's data processing and validation procedures.
#
#######################################################################

data_RUKQAQ
_symmetry_cell_setting           monoclinic
_symmetry_space_group_name_H-M   'P 21/c'
_symmetry_Int_Tables_number      14
_space_group_name_Hall           '-P 2ybc'
loop_
_symmetry_equiv_pos_site_id
_symmetry_equiv_pos_as_xyz
1 x,y,z
2 -x,1/2+y,1/2-z
3 -x,-y,-z
4 x,1/2-y,1/2+z
_cell_length_a                   12.205(6)
_cell_length_b                   7.725(4)
_cell_length_c                   15.865(7)
_cell_angle_alpha                90
_cell_angle_beta                 105.256(8)
_cell_angle_gamma                90
_cell_volume                     1443.1
loop_
_atom_site_label
_atom_site_type_symbol
_atom_site_fract_x
_atom_site_fract_y
_atom_site_fract_z
Co1 Co 0.29896(6) 0.48562(9) 0.18176(5)
O1 O 0.3657(3) 0.2385(5) 0.1852(3)
O2 O 0.2901(3) 0.3328(5) 0.0524(3)
O3 O 0.3244(3) -0.0548(5) -0.1938(2)
O4 O 0.3731(3) -0.3337(5) -0.1693(2)
N1 N 0.4522(4) -0.3926(6) 0.1616(3)
H1 H 0.4596 -0.4990 0.1441
H2 H 0.4619 -0.3706 0.2175
N2 N 0.1785(4) 0.6643(6) 0.1144(3)
C1 C 0.3672(4) 0.0429(7) 0.0695(3)
C2 C 0.3500(4) 0.0120(7) -0.0190(3)
H3 H 0.3222 0.1017 -0.0600
C3 C 0.3734(4) -0.1507(7) -0.0480(3)
C4 C 0.4085(4) -0.2844(7) 0.0118(3)
H4 H 0.4216 -0.3963 -0.0084
C5 C 0.4244(4) -0.2561(7) 0.0995(4)
C6 C 0.4046(4) -0.0901(7) 0.1294(4)
H5 H 0.4166 -0.0691 0.1902
C7 C 0.3392(4) 0.2157(7) 0.1031(4)
C8 C 0.3571(4) -0.1855(7) -0.1436(3)
C9 C 0.1652(5) 0.8148(8) 0.1524(4)
H6 H 0.2050 0.8311 0.2119
C10 C 0.0971(5) 0.9475(7) 0.1101(4)
H7 H 0.0926 1.0522 0.1404
C11 C 0.0355(5) 0.9297(8) 0.0242(4)
C12 C 0.0488(6) 0.7719(9) -0.0141(5)
H8 H 0.0074 0.7498 -0.0727
C13 C 0.1215(6) 0.6465(9) 0.0318(4)
H9 H 0.1308 0.5426 0.0024
O5 O 0.1581(3) 0.3330(5) 0.2140(3)
H10 H 0.1952 0.2643 0.2520
C14 C 0.0732(5) 0.4177(9) 0.2468(5)
H11 H 0.0318 0.3314 0.2715
H12 H 0.0202 0.4789 0.1989
H13 H 0.1097 0.5008 0.2922
Co1C Co 0.29896(6) 0.01438(9) 0.68176(5)
Co1C_2 Co 0.29896(6) 0.01438(9) -0.31824(5)
Co1_2 Co 0.29896(6) -0.51438(9) 0.18176(5)
Co1B Co -0.29896(6) 1.51438(9) -0.18176(5)
Co1C_3 Co 0.29896(6) 1.01438(9) 0.68176(5)
O1C O 0.3657(3) 0.2615(5) 0.6852(3)
O2C O 0.2901(3) 0.1672(5) 0.5524(3)
O3C O 0.3244(3) 0.5548(5) 0.3062(2)
O3_2 O 0.3244(3) -0.0548(5) 0.8062(2)
O4C O 0.3731(3) 0.8337(5) 0.3307(2)
N1C N 0.4522(4) 0.8926(6) 0.6616(3)
N1_2 N 0.4522(4) 0.6074(6) 0.1616(3)
N1C_2 N 0.4522(4) -0.1074(6) 0.6616(3)
H1C H 0.4596 0.9990 0.6441
H1_2 H 0.4596 0.5010 0.1441
H1C_2 H 0.4596 -0.0010 0.6441
H2C H 0.4619 0.8706 0.7175
H2_2 H 0.4619 0.6294 0.2175
H2C_2 H 0.4619 -0.1294 0.7175
N2B N -0.1785(4) 1.3357(6) -0.1144(3)
N2C N 0.1785(4) -0.1643(6) 0.6144(3)
C1C C 0.3672(4) 0.4571(7) 0.5695(3)
C2C C 0.3500(4) 0.4880(7) 0.4810(3)
H3C H 0.3222 0.3983 0.4400
C3C C 0.3734(4) 0.6507(7) 0.4520(3)
C4C C 0.4085(4) 0.7844(7) 0.5118(3)
H4C H 0.4216 0.8963 0.4916
C5C C 0.4244(4) 0.7561(7) 0.5995(4)
C6C C 0.4046(4) 0.5901(7) 0.6294(4)
H5C H 0.4166 0.5691 0.6902
C7C C 0.3392(4) 0.2843(7) 0.6031(4)
C8C C 0.3571(4) 0.6855(7) 0.3564(3)
C9B C -0.1652(5) 1.1852(8) -0.1524(4)
H6B H -0.2050 1.1689 -0.2119
C10B C -0.0971(5) 1.0525(7) -0.1101(4)
H7B H -0.0926 0.9478 -0.1404
C11B C -0.0355(5) 1.0703(8) -0.0242(4)
C12B C -0.0488(6) 1.2281(9) 0.0141(5)
H8B H -0.0074 1.2502 0.0727
C13B C -0.1215(6) 1.3535(9) -0.0318(4)
H9B H -0.1308 1.4574 -0.0024
O5C O 0.1581(3) 0.1670(5) 0.7140(3)
H10C H 0.1952 0.2357 0.7520
C14C C 0.0732(5) 0.0823(9) 0.7468(5)
H11C H 0.0318 0.1686 0.7715
H12C H 0.0202 0.0211 0.6989
H13C H 0.1097 -0.0008 0.7922
O6 O 0.2303(4) 0.3942(6) -0.1437(3)
H14 H 0.2718 0.4751 -0.1546
H15 H 0.2323 0.4052 -0.0900
loop_
_geom_bond_atom_site_label_1
_geom_bond_atom_site_label_2
_geom_bond_site_symmetry_1
_geom_bond_site_symmetry_2
Co1 O1 1_555 1_555
O1 C7 1_555 1_555
O2 Co1 1_555 1_555
O3 C8 1_555 1_555
O4 C8 1_555 1_555
N1 H1 1_555 1_555
H2 N1 1_555 1_555
N2 Co1 1_555 1_555
C1 C2 1_555 1_555
C2 H3 1_555 1_555
C3 C2 1_555 1_555
C4 C3 1_555 1_555
H4 C4 1_555 1_555
C5 N1 1_555 1_555
C6 C1 1_555 1_555
H5 C6 1_555 1_555
C7 O2 1_555 1_555
C8 C3 1_555 1_555
C9 N2 1_555 1_555
H6 C9 1_555 1_555
C10 C9 1_555 1_555
H7 C10 1_555 1_555
C11 C10 1_555 1_555
C12 C11 1_555 1_555
H8 C12 1_555 1_555
C13 N2 1_555 1_555
H9 C13 1_555 1_555
O5 Co1 1_555 1_555
H10 O5 1_555 1_555
C14 O5 1_555 1_555
H11 C14 1_555 1_555
H12 C14 1_555 1_555
H13 C14 1_555 1_555
O6 H14 1_555 1_555
H15 O6 1_555 1_555
Co1C O1C 1_555 1_555
Co1C_2 O3 1_555 1_555
Co1_2 N1 1_555 1_555
Co1B N2B 1_555 1_555
Co1C_3 N1C 1_555 1_555
O1C C7C 1_555 1_555
O2C Co1C 1_555 1_555
O3C Co1 1_555 1_555
O3_2 Co1C 1_555 1_555
O4C C8C 1_555 1_555
N1C H1C 1_555 1_555
N1_2 Co1 1_555 1_555
N1C_2 Co1C 1_555 1_555
H1_2 N1_2 1_555 1_555
H1C_2 N1C_2 1_555 1_555
H2C N1C 1_555 1_555
H2_2 N1_2 1_555 1_555
H2C_2 N1C_2 1_555 1_555
N2B C9B 1_555 1_555
N2C Co1C 1_555 1_555
C1C C2C 1_555 1_555
C2C H3C 1_555 1_555
C3C C2C 1_555 1_555
C4C C3C 1_555 1_555
H4C C4C 1_555 1_555
C5C N1C 1_555 1_555
C6C C1C 1_555 1_555
H5C C6C 1_555 1_555
C7C O2C 1_555 1_555
C8C O3C 1_555 1_555
C9B H6B 1_555 1_555
C10B C9B 1_555 1_555
H7B C10B 1_555 1_555
C11B C11 1_555 1_555
C12B C11B 1_555 1_555
H8B C12B 1_555 1_555
C13B N2B 1_555 1_555
H9B C13B 1_555 1_555
O5C Co1C 1_555 1_555
H10C O5C 1_555 1_555
C14C O5C 1_555 1_555
H11C C14C 1_555 1_555
H12C C14C 1_555 1_555
H13C C14C 1_555 1_555
C1 C7 1_555 1_555
C4 C5 1_555 1_555
C5 C6 1_555 1_555
C12 C13 1_555 1_555
C1C C7C 1_555 1_555
C3C C8C 1_555 1_555
C4C C5C 1_555 1_555
C5C C6C 1_555 1_555
C10B C11B 1_555 1_555
C12B C13B 1_555 1_555

#END
