
#######################################################################
#
#                 Cambridge Crystallographic Data Centre
#                                CCDC 
#
#######################################################################
#
# If this CIF has been generated from an entry in the Cambridge 
# Structural Database, then it will include bibliographic, chemical, 
# crystal, experimental, refinement or atomic coordinate data resulting 
# from the CCDC's data processing and validation procedures.
#
#######################################################################

data_RUKQEU
_symmetry_cell_setting           monoclinic
_symmetry_space_group_name_H-M   'P 21/c'
_symmetry_Int_Tables_number      14
_space_group_name_Hall           '-P 2ybc'
loop_
_symmetry_equiv_pos_site_id
_symmetry_equiv_pos_as_xyz
1 x,y,z
2 -x,1/2+y,1/2-z
3 -x,-y,-z
4 x,1/2-y,1/2+z
_cell_length_a                   12.6636(13)
_cell_length_b                   7.6110(8)
_cell_length_c                   15.8891(16)
_cell_angle_alpha                90
_cell_angle_beta                 107.358(2)
_cell_angle_gamma                90
_cell_volume                     1461.69
loop_
_atom_site_label
_atom_site_type_symbol
_atom_site_fract_x
_atom_site_fract_y
_atom_site_fract_z
Co1 Co 0.30567(6) 0.49178(8) 0.18024(4)
O1 O 0.3620(3) 0.2408(4) 0.1819(2)
O2 O 0.2941(3) 0.3378(4) 0.0476(2)
O3 O 0.3387(3) -0.0505(5) -0.1940(2)
O4 O 0.3834(3) -0.3320(5) -0.1684(2)
N1 N 0.4524(3) -0.3916(5) 0.1621(3)
H1 H 0.4613 -0.4990 0.1449
H2 H 0.4602 -0.3701 0.2180
N2 N 0.1865(4) 0.6711(5) 0.1130(3)
C1 C 0.3674(4) 0.0469(6) 0.0679(3)
C2 C 0.3546(4) 0.0169(6) -0.0217(3)
H3 H 0.3297 0.1084 -0.0636
C3 C 0.3787(4) -0.1476(6) -0.0485(3)
C4 C 0.4126(4) -0.2825(6) 0.0118(3)
H4 H 0.4271 -0.3957 -0.0073
C5 C 0.4252(4) -0.2524(6) 0.0993(3)
C6 C 0.4049(4) -0.0868(6) 0.1275(3)
H5 H 0.4171 -0.0656 0.1885
C7 C 0.3400(4) 0.2197(6) 0.0989(3)
C8 C 0.3669(4) -0.1798(7) -0.1442(3)
C9 C 0.1766(5) 0.8262(7) 0.1505(4)
H6 H 0.2209 0.8464 0.2095
C10 C 0.1063(5) 0.9564(7) 0.1083(4)
H7 H 0.1040 1.0647 0.1374
C11 C 0.0392(5) 0.9305(8) 0.0240(4)
C12 C 0.0502(5) 0.7723(8) -0.0139(4)
H8 H 0.0060 0.7484 -0.0725
C13 C 0.1235(5) 0.6487(8) 0.0309(4)
H9 H 0.1296 0.5417 0.0019
O5 O 0.1662(4) 0.3455(6) 0.2164(3)
H10 H 0.2028 0.2661 0.2491
C14 C 0.1041(6) 0.4498(10) 0.2663(5)
H11 H 0.0973 0.3800 0.3170
H12 H 0.1459 0.5581 0.2896
C15 C -0.0073(6) 0.4972(9) 0.2092(5)
H13 H -0.0461 0.5648 0.2434
H14 H -0.0491 0.3901 0.1867
H15 H -0.0006 0.5684 0.1596
Co1C Co 0.30567(6) 0.00822(8) 0.68024(4)
Co1C_2 Co 0.30567(6) 0.00822(8) -0.31976(4)
Co1_2 Co 0.30567(6) -0.50822(8) 0.18024(4)
Co1B Co -0.30567(6) 1.50822(8) -0.18024(4)
Co1C_3 Co 0.30567(6) 1.00822(8) 0.68024(4)
O1C O 0.3620(3) 0.2592(4) 0.6819(2)
O2C O 0.2941(3) 0.1622(4) 0.5476(2)
O3C O 0.3387(3) 0.5505(5) 0.3060(2)
O3_2 O 0.3387(3) -0.0505(5) 0.8060(2)
O4C O 0.3834(3) 0.8320(5) 0.3316(2)
N1C N 0.4524(3) 0.8916(5) 0.6621(3)
N1_2 N 0.4524(3) 0.6084(5) 0.1621(3)
N1C_2 N 0.4524(3) -0.1084(5) 0.6621(3)
H1C H 0.4613 0.9990 0.6449
H1_2 H 0.4613 0.5010 0.1449
H1C_2 H 0.4613 -0.0010 0.6449
H2C H 0.4602 0.8701 0.7180
H2_2 H 0.4602 0.6299 0.2180
H2C_2 H 0.4602 -0.1299 0.7180
N2B N -0.1865(4) 1.3289(5) -0.1130(3)
N2C N 0.1865(4) -0.1711(5) 0.6130(3)
C1C C 0.3674(4) 0.4531(6) 0.5679(3)
C2C C 0.3546(4) 0.4831(6) 0.4783(3)
H3C H 0.3297 0.3916 0.4364
C3C C 0.3787(4) 0.6476(6) 0.4515(3)
C4C C 0.4126(4) 0.7825(6) 0.5118(3)
H4C H 0.4271 0.8957 0.4927
C5C C 0.4252(4) 0.7524(6) 0.5993(3)
C6C C 0.4049(4) 0.5868(6) 0.6275(3)
H5C H 0.4171 0.5656 0.6885
C7C C 0.3400(4) 0.2803(6) 0.5989(3)
C8C C 0.3669(4) 0.6798(7) 0.3558(3)
C9B C -0.1766(5) 1.1738(7) -0.1505(4)
H6B H -0.2209 1.1536 -0.2095
C10B C -0.1063(5) 1.0436(7) -0.1083(4)
H7B H -0.1040 0.9353 -0.1374
C11B C -0.0392(5) 1.0695(8) -0.0240(4)
C12B C -0.0502(5) 1.2277(8) 0.0139(4)
H8B H -0.0060 1.2516 0.0725
C13B C -0.1235(5) 1.3513(8) -0.0309(4)
H9B H -0.1296 1.4583 -0.0019
O5C O 0.1662(4) 0.1545(6) 0.7164(3)
H10C H 0.2028 0.2339 0.7491
C14C C 0.1041(6) 0.0502(10) 0.7663(5)
H11C H 0.0973 0.1200 0.8170
H12C H 0.1459 -0.0581 0.7896
C15C C -0.0073(6) 0.0028(9) 0.7092(5)
H13C H -0.0461 -0.0648 0.7434
H14C H -0.0491 0.1099 0.6867
H15C H -0.0006 -0.0684 0.6596
O6 O 0.2528(4) 0.3911(6) -0.1417(3)
H16 H 0.3011 0.4870 -0.1442
H17 H 0.2645 0.3757 -0.0868
loop_
_geom_bond_atom_site_label_1
_geom_bond_atom_site_label_2
_geom_bond_site_symmetry_1
_geom_bond_site_symmetry_2
Co1 O1 1_555 1_555
O1 C7 1_555 1_555
O2 Co1 1_555 1_555
O3 C8 1_555 1_555
O4 C8 1_555 1_555
N1 H1 1_555 1_555
H2 N1 1_555 1_555
N2 Co1 1_555 1_555
C1 C2 1_555 1_555
C2 H3 1_555 1_555
C3 C2 1_555 1_555
C4 C3 1_555 1_555
H4 C4 1_555 1_555
C5 N1 1_555 1_555
C6 C1 1_555 1_555
H5 C6 1_555 1_555
C7 O2 1_555 1_555
C8 C3 1_555 1_555
C9 N2 1_555 1_555
H6 C9 1_555 1_555
C10 C9 1_555 1_555
H7 C10 1_555 1_555
C11 C10 1_555 1_555
C12 C11 1_555 1_555
H8 C12 1_555 1_555
C13 N2 1_555 1_555
H9 C13 1_555 1_555
O5 Co1 1_555 1_555
H10 O5 1_555 1_555
C14 O5 1_555 1_555
H11 C14 1_555 1_555
H12 C14 1_555 1_555
C15 C14 1_555 1_555
H13 C15 1_555 1_555
H14 C15 1_555 1_555
H15 C15 1_555 1_555
O6 H16 1_555 1_555
H17 O6 1_555 1_555
Co1C O1C 1_555 1_555
Co1C_2 O3 1_555 1_555
Co1_2 N1 1_555 1_555
Co1B N2B 1_555 1_555
Co1C_3 N1C 1_555 1_555
O1C C7C 1_555 1_555
O2C Co1C 1_555 1_555
O3C Co1 1_555 1_555
O3_2 Co1C 1_555 1_555
O4C C8C 1_555 1_555
N1C H1C 1_555 1_555
N1_2 Co1 1_555 1_555
N1C_2 Co1C 1_555 1_555
H1_2 N1_2 1_555 1_555
H1C_2 N1C_2 1_555 1_555
H2C N1C 1_555 1_555
H2_2 N1_2 1_555 1_555
H2C_2 N1C_2 1_555 1_555
N2B C9B 1_555 1_555
N2C Co1C 1_555 1_555
C1C C2C 1_555 1_555
C2C H3C 1_555 1_555
C3C C2C 1_555 1_555
C4C C3C 1_555 1_555
H4C C4C 1_555 1_555
C5C N1C 1_555 1_555
C6C C1C 1_555 1_555
H5C C6C 1_555 1_555
C7C O2C 1_555 1_555
C8C O3C 1_555 1_555
C9B H6B 1_555 1_555
C10B C9B 1_555 1_555
H7B C10B 1_555 1_555
C11B C11 1_555 1_555
C12B C11B 1_555 1_555
H8B C12B 1_555 1_555
C13B N2B 1_555 1_555
H9B C13B 1_555 1_555
O5C Co1C 1_555 1_555
H10C O5C 1_555 1_555
C14C O5C 1_555 1_555
H11C C14C 1_555 1_555
H12C C14C 1_555 1_555
C15C C14C 1_555 1_555
H13C C15C 1_555 1_555
H14C C15C 1_555 1_555
H15C C15C 1_555 1_555
C1 C7 1_555 1_555
C4 C5 1_555 1_555
C5 C6 1_555 1_555
C12 C13 1_555 1_555
C1C C7C 1_555 1_555
C3C C8C 1_555 1_555
C4C C5C 1_555 1_555
C5C C6C 1_555 1_555
C10B C11B 1_555 1_555
C12B C13B 1_555 1_555

#END
