
#######################################################################
#
#                 Cambridge Crystallographic Data Centre
#                                CCDC 
#
#######################################################################
#
# If this CIF has been generated from an entry in the Cambridge 
# Structural Database, then it will include bibliographic, chemical, 
# crystal, experimental, refinement or atomic coordinate data resulting 
# from the CCDC's data processing and validation procedures.
#
#######################################################################

data_RUKQAR
_symmetry_cell_setting           triclinic
_symmetry_space_group_name_H-M   'P -1'
_symmetry_Int_Tables_number      2
_space_group_name_Hall           '-P 1'
loop_
_symmetry_equiv_pos_site_id
_symmetry_equiv_pos_as_xyz
1 x,y,z
2 -x,-y,-z
_cell_length_a                   10.0773(17)
_cell_length_b                   13.935(2)
_cell_length_c                   14.259(2)
_cell_angle_alpha                74.988(5)
_cell_angle_beta                 86.579(6)
_cell_angle_gamma                79.096(6)
_cell_volume                     1898.98
loop_
_atom_site_label
_atom_site_type_symbol
_atom_site_fract_x
_atom_site_fract_y
_atom_site_fract_z
C15 C 0.1615(7) -0.1458(7) 1.0894(8)
C16 C 0.1521(7) -0.1621(8) 1.1881(9)
C17 C 0.1464(8) -0.0879(10) 1.2348(9)
C18 C 0.1482(9) 0.0047(10) 1.1868(9)
C19 C 0.1569(7) 0.0314(6) 1.0828(9)
C20 C 0.1576(7) 0.1349(8) 1.0315(7)
C21 C 0.1739(7) 0.1559(8) 0.9352(6)
C22 C 0.1820(7) 0.2592(6) 0.8749(7)
C23 C 0.1922(8) 0.2715(9) 0.7798(7)
C24 C 0.1986(8) 0.1971(10) 0.7346(9)
C25 C 0.1916(8) 0.1046(8) 0.7820(7)
C26 C 0.1794(6) 0.0767(6) 0.8826(6)
C27 C 0.1727(7) -0.0222(7) 0.9311(7)
C28 C 0.1636(7) -0.0454(7) 1.0312(7)
H3 H 0.16658 -0.20015 1.05985
H4 H 0.14933 -0.22876 1.22595
H5 H 0.14104 -0.10412 1.30366
H6 H 0.14372 0.05544 1.22099
H7 H 0.14664 0.18657 1.06515
H8 H 0.17995 0.31394 0.90349
H9 H 0.19511 0.33752 0.74063
H10 H 0.2086 0.21254 0.66597
H11 H 0.19483 0.05495 0.7467
H12 H 0.17436 -0.07239 0.89672
Ru1 Ru 0.51309(4) 0.04603(3) 0.55365(3)
Ru2 Ru 0.51050(4) 0.44895(3) 0.94764(3)
F1 F 0.9321(4) -0.1688(4) 0.6425(4)
F2 F 0.9693(4) -0.1101(4) 0.4936(4)
F3 F 0.9083(4) -0.2520(3) 0.5446(4)
F4 F 0.1781(4) -0.1355(3) 0.7187(3)
F5 F 0.2913(5) -0.2731(3) 0.6931(3)
F6 F 0.3564(4) -0.2098(3) 0.8007(3)
F7 F 0.6338(4) 0.7202(2) 0.7023(2)
F8 F 0.8068(4) 0.6744(3) 0.7940(3)
F9 F 0.6544(4) 0.7999(2) 0.8088(2)
F10 F 0.0745(5) 0.5849(4) 0.8360(4)
F11 F 0.0888(4) 0.7209(3) 0.8740(3)
F12 F 0.0227(4) 0.6005(3) 0.9783(3)
O1 O 0.7044(4) -0.0390(3) 0.5857(3)
O2 O 0.6782(4) -0.1288(3) 0.4796(3)
O3 O 0.4239(4) -0.0544(3) 0.6613(3)
O4 O 0.3981(4) -0.1437(3) 0.5546(3)
O5 O 0.5911(4) 0.5562(3) 0.8430(3)
O6 O 0.5714(4) 0.6567(2) 0.9464(3)
O7 O 0.3173(4) 0.5134(3) 0.8988(3)
O8 O 0.2950(4) 0.6145(3) 1.0013(3)
N1 N 0.5310(5) 0.1313(3) 0.6657(3)
N2 N 0.5244(4) 0.3375(3) 0.8560(3)
C1 C 0.7441(6) -0.1057(4) 0.5400(4)
C2 C 0.8909(6) -0.1604(5) 0.5543(5)
C3 C 0.3844(6) -0.1242(4) 0.6357(4)
C4 C 0.3009(7) -0.1881(5) 0.7131(5)
C5 C 0.6040(5) 0.6351(4) 0.8675(4)
C6 C 0.6759(6) 0.7087(4) 0.7914(4)
C7 C 0.2542(6) 0.5792(4) 0.9374(4)
C8 C 0.1095(6) 0.6217(5) 0.9051(5)
C9 C 0.5282(5) 0.1459(4) 0.7407(4)
C10 C 0.5198(5) 0.1598(4) 0.8369(4)
C11 C 0.5227(5) 0.2583(4) 0.8470(4)
C12 C 0.5099(5) 0.0815(4) 0.9175(4)
C13 C 0.4997(5) 0.0962(4) 1.0149(4)
C14 C 0.4914(5) 0.0200(4) 1.0924(4)
H1 H 0.49898 0.16163 1.02357
H2 H 0.48625 0.03186 1.15535
N1A N 0.4690(5) -0.1313(3) 1.3343(3)
N2A N 0.4756(4) -0.3375(3) 1.1440(3)
C9A C 0.4718(5) -0.1459(4) 1.2593(4)
C10A C 0.4802(5) -0.1598(4) 1.1631(4)
C11A C 0.4773(5) -0.2583(4) 1.1530(4)
C12A C 0.4901(5) -0.0815(4) 1.0825(4)
C13A C 0.5003(5) -0.0962(4) 0.9851(4)
C14A C 0.5086(5) -0.0200(4) 0.9076(4)
H1A H 0.50102 -0.16163 0.97643
H2A H 0.51375 -0.03186 0.84465
Ru1A Ru 0.48691(4) -0.04603(3) 0.44635(3)
F1A F 0.0679(4) 0.1688(4) 0.3575(4)
F2A F 0.0307(4) 0.1101(4) 0.5064(4)
F3A F 0.0917(4) 0.2520(3) 0.4554(4)
F4A F 0.8219(4) 0.1355(3) 0.2813(3)
F5A F 0.7087(5) 0.2731(3) 0.3069(3)
F6A F 0.6436(4) 0.2098(3) 0.1993(3)
O1A O 0.2956(4) 0.0390(3) 0.4143(3)
O2A O 0.3218(4) 0.1288(3) 0.5204(3)
O3A O 0.5761(4) 0.0544(3) 0.3387(3)
O4A O 0.6019(4) 0.1437(3) 0.4454(3)
C1A C 0.2559(6) 0.1057(4) 0.4600(4)
C2A C 0.1091(6) 0.1604(5) 0.4457(5)
C3A C 0.6156(6) 0.1242(4) 0.3643(4)
C4A C 0.6991(7) 0.1881(5) 0.2869(5)
Ru2A Ru 0.48950(4) 0.55105(3) 1.05236(3)
F7A F 0.3662(4) 0.2798(2) 1.2977(2)
F8A F 0.1932(4) 0.3256(3) 1.2060(3)
F9A F 0.3456(4) 0.2001(2) 1.1912(2)
F10A F 0.9255(5) 0.4151(4) 1.1640(4)
F11A F 0.9112(4) 0.2791(3) 1.1260(3)
F12A F 0.9773(4) 0.3995(3) 1.0217(3)
O5A O 0.4089(4) 0.4438(3) 1.1570(3)
O6A O 0.4286(4) 0.3433(2) 1.0536(3)
O7A O 0.6827(4) 0.4866(3) 1.1012(3)
O8A O 0.7050(4) 0.3855(3) 0.9987(3)
C5A C 0.3960(5) 0.3649(4) 1.1325(4)
C6A C 0.3241(6) 0.2913(4) 1.2086(4)
C7A C 0.7458(6) 0.4208(4) 1.0626(4)
C8A C 0.8905(6) 0.3783(5) 1.0949(5)
Ru1A_2 Ru 0.48691(4) -0.04603(3) 1.44635(3)
Ru2A_2 Ru 0.48950(4) -0.44895(3) 1.05236(3)
N1A_2 N 0.4690(5) -0.1313(3) 0.3343(3)
N2A_2 N 0.4756(4) 0.6625(3) 1.1440(3)
Cl1? Cl 0.8736(6) 0.4220(5) 0.7272(5)
Cl2? Cl 0.7227(6) 0.4605(4) 0.6554(4)
Cl3? Cl 0.6803(5) 0.3722(3) 0.6089(3)
Cl4? Cl 0.7270(5) 0.3165(3) 0.5422(4)
Cl5? Cl 0.8942(7) 0.5082(5) 0.4883(5)
Cl6? Cl 0.6804(6) 0.4970(4) 0.3525(4)
Cl7? Cl 0.6227(9) 0.6190(7) 0.5006(8)
Cl8? Cl 0.6732(7) 0.6357(5) 0.4758(5)
C29? C 0.762(2) 0.4369(13) 0.5334(14)
C30? C 0.659(2) 0.5159(13) 0.4718(14)
C31? C 0.762(2) 0.5540(18) 0.566(2)
C32? C 0.806(3) 0.469(2) 0.649(2)
loop_
_geom_bond_atom_site_label_1
_geom_bond_atom_site_label_2
_geom_bond_site_symmetry_1
_geom_bond_site_symmetry_2
Ru1 O1 1_555 1_555
Ru2 O5 1_555 1_555
F1 C2 1_555 1_555
F2 C2 1_555 1_555
F3 C2 1_555 1_555
F4 C4 1_555 1_555
F5 C4 1_555 1_555
F6 C4 1_555 1_555
F7 C6 1_555 1_555
F8 C6 1_555 1_555
F9 C6 1_555 1_555
F10 C8 1_555 1_555
F11 C8 1_555 1_555
F12 C8 1_555 1_555
O1 C1 1_555 1_555
O2 C1 1_555 1_555
O3 Ru1 1_555 1_555
O4 C3 1_555 1_555
O5 C5 1_555 1_555
O6 C5 1_555 1_555
O7 Ru2 1_555 1_555
O8 C7 1_555 1_555
N1 Ru1 1_555 1_555
N2 Ru2 1_555 1_555
C1 C2 1_555 1_555
C3 O3 1_555 1_555
C4 C3 1_555 1_555
C5 C6 1_555 1_555
C7 O7 1_555 1_555
C8 C7 1_555 1_555
C9 N1 1_555 1_555
C10 C9 1_555 1_555
C11 N2 1_555 1_555
C12 C10 1_555 1_555
C13 C12 1_555 1_555
C14 C13 1_555 1_555
H1 C13 1_555 1_555
H2 C14 1_555 1_555
C15 C16 1_555 1_555
C16 C17 1_555 1_555
C17 C18 1_555 1_555
C18 C19 1_555 1_555
C19 C20 1_555 1_555
C20 C21 1_555 1_555
C21 C22 1_555 1_555
C22 C23 1_555 1_555
C23 C24 1_555 1_555
C24 C25 1_555 1_555
C25 C26 1_555 1_555
C26 C21 1_555 1_555
C27 C26 1_555 1_555
C28 C15 1_555 1_555
H3 C15 1_555 1_555
H4 C16 1_555 1_555
H5 C17 1_555 1_555
H6 C18 1_555 1_555
H7 C20 1_555 1_555
H8 C22 1_555 1_555
H9 C23 1_555 1_555
H10 C24 1_555 1_555
H11 C25 1_555 1_555
H12 C27 1_555 1_555
N1A C9A 1_555 1_555
N2A C11A 1_555 1_555
C9A C10A 1_555 1_555
C10A C11A 1_555 1_555
C12A C14 1_555 1_555
C13A C12A 1_555 1_555
C14A C12 1_555 1_555
H1A C13A 1_555 1_555
H2A C14A 1_555 1_555
Ru1A Ru1 1_555 1_555
F1A C2A 1_555 1_555
F2A C2A 1_555 1_555
F3A C2A 1_555 1_555
F4A C4A 1_555 1_555
F5A C4A 1_555 1_555
F6A C4A 1_555 1_555
O1A Ru1A 1_555 1_555
O2A Ru1 1_555 1_555
O3A Ru1A 1_555 1_555
O4A Ru1 1_555 1_555
C1A O1A 1_555 1_555
C2A C1A 1_555 1_555
C3A O3A 1_555 1_555
C4A C3A 1_555 1_555
Ru2A Ru2 1_555 1_555
F7A C6A 1_555 1_555
F8A C6A 1_555 1_555
F9A C6A 1_555 1_555
F10A C8A 1_555 1_555
F11A C8A 1_555 1_555
F12A C8A 1_555 1_555
O5A Ru2A 1_555 1_555
O6A Ru2 1_555 1_555
O7A Ru2A 1_555 1_555
O8A Ru2 1_555 1_555
C5A O5A 1_555 1_555
C6A C5A 1_555 1_555
C7A O7A 1_555 1_555
C8A C7A 1_555 1_555
Ru1A_2 N1A 1_555 1_555
Ru2A_2 N2A 1_555 1_555
N1A_2 Ru1A 1_555 1_555
N2A_2 Ru2A 1_555 1_555
O2 Ru1A 1_555 1_555
O4 Ru1A 1_555 1_555
O6 Ru2A 1_555 1_555
O8 Ru2A 1_555 1_555
C10 C11 1_555 1_555
C19 C28 1_555 1_555
C27 C28 1_555 1_555
C10A C12A 1_555 1_555
C13A C14A 1_555 1_555
O2A C1A 1_555 1_555
O4A C3A 1_555 1_555
O6A C5A 1_555 1_555
O8A C7A 1_555 1_555

#END
