
#######################################################################
#
#                 Cambridge Crystallographic Data Centre
#                                CCDC 
#
#######################################################################
#
# If this CIF has been generated from an entry in the Cambridge 
# Structural Database, then it will include bibliographic, chemical, 
# crystal, experimental, refinement or atomic coordinate data resulting 
# from the CCDC's data processing and validation procedures.
#
#######################################################################

data_RUKQEU01
_symmetry_cell_setting           monoclinic
_symmetry_space_group_name_H-M   'P 21/c'
_symmetry_Int_Tables_number      14
_space_group_name_Hall           '-P 2ybc'
loop_
_symmetry_equiv_pos_site_id
_symmetry_equiv_pos_as_xyz
1 x,y,z
2 -x,1/2+y,1/2-z
3 -x,-y,-z
4 x,1/2-y,1/2+z
_cell_length_a                   12.765(4)
_cell_length_b                   7.615(2)
_cell_length_c                   16.016(5)
_cell_angle_alpha                90
_cell_angle_beta                 108.397(6)
_cell_angle_gamma                90
_cell_volume                     1477.28
loop_
_atom_site_label
_atom_site_type_symbol
_atom_site_fract_x
_atom_site_fract_y
_atom_site_fract_z
Co1 Co 0.30985(11) 0.49744(14) 0.18038(7)
O1 O 0.3555(6) 0.2435(7) 0.1802(4)
O2 O 0.2961(7) 0.3444(8) 0.0461(5)
O3 O 0.3336(7) -0.0412(8) -0.1952(4)
O4 O 0.3925(6) -0.3147(9) -0.1681(5)
N1 N 0.4557(6) -0.3867(8) 0.1617(4)
H1 H 0.4593 -0.3685 0.2156
H2 H 0.4706 -0.4889 0.1456
N2 N 0.1868(7) 0.6700(9) 0.1129(5)
C1 C 0.3645(8) 0.0503(9) 0.0668(5)
C2 C 0.3514(8) 0.0237(10) -0.0220(5)
H3 H 0.3254 0.1137 -0.0625
C3 C 0.3778(8) -0.1411(10) -0.0496(6)
C4 C 0.4133(7) -0.2753(10) 0.0111(5)
H4 H 0.4295 -0.3849 -0.0072
C5 C 0.4249(8) -0.2472(9) 0.0991(5)
C6 C 0.4013(7) -0.0849(11) 0.1257(6)
H5 H 0.4104 -0.0658 0.1849
C7 C 0.3358(8) 0.2226(10) 0.0979(6)
C8 C 0.3679(7) -0.1709(11) -0.1446(6)
C9 C 0.1747(11) 0.8203(16) 0.1506(7)
H6 H 0.2167 0.8378 0.2090
C10 C 0.1038(11) 0.9521(14) 0.1086(7)
H7 H 0.1007 1.0563 0.1380
C11 C 0.0383(9) 0.9292(13) 0.0239(6)
C12 C 0.0580(13) 0.7835(16) -0.0170(7)
H8 H 0.0229 0.7689 -0.0770
C13 C 0.1294(11) 0.6572(15) 0.0291(7)
H9 H 0.1377 0.5561 -0.0007
O5 O 0.1619(11) 0.3465(15) 0.2172(8)
H10 H 0.2001 0.2670 0.2457
C14 C 0.101(3) 0.433(5) 0.271(2)
H11 H 0.1475 0.5217 0.3081
H12 H 0.0827 0.3466 0.3087
C15 C -0.011(3) 0.523(4) 0.208(2)
H13 H -0.0498 0.5774 0.2435
H14 H -0.0569 0.4345 0.1715
H15 H 0.0075 0.6097 0.1715
Co1C Co 0.30985(11) 0.00256(14) 0.68038(7)
Co1C_2 Co 0.30985(11) 0.00256(14) -0.31962(7)
Co1_2 Co 0.30985(11) -0.50256(14) 0.18038(7)
Co1B Co -0.30985(11) 1.50256(14) -0.18038(7)
Co1C_3 Co 0.30985(11) 1.00256(14) 0.68038(7)
O1C O 0.3555(6) 0.2565(7) 0.6802(4)
O2C O 0.2961(7) 0.1556(8) 0.5461(5)
O3C O 0.3336(7) 0.5412(8) 0.3048(4)
O3_2 O 0.3336(7) -0.0412(8) 0.8048(4)
O4C O 0.3925(6) 0.8147(9) 0.3319(5)
N1C N 0.4557(6) 0.8867(8) 0.6617(4)
N1_2 N 0.4557(6) 0.6133(8) 0.1617(4)
N1C_2 N 0.4557(6) -0.1133(8) 0.6617(4)
H1C H 0.4593 0.8685 0.7156
H1_2 H 0.4593 0.6315 0.2156
H1C_2 H 0.4593 -0.1315 0.7156
H2C H 0.4706 0.9889 0.6456
H2_2 H 0.4706 0.5111 0.1456
H2C_2 H 0.4706 -0.0111 0.6456
N2B N -0.1868(7) 1.3300(9) -0.1129(5)
N2C N 0.1868(7) -0.1700(9) 0.6129(5)
C1C C 0.3645(8) 0.4497(9) 0.5668(5)
C2C C 0.3514(8) 0.4763(10) 0.4780(5)
H3C H 0.3254 0.3863 0.4375
C3C C 0.3778(8) 0.6411(10) 0.4504(6)
C4C C 0.4133(7) 0.7753(10) 0.5111(5)
H4C H 0.4295 0.8849 0.4928
C5C C 0.4249(8) 0.7472(9) 0.5991(5)
C6C C 0.4013(7) 0.5849(11) 0.6257(6)
H5C H 0.4104 0.5658 0.6849
C7C C 0.3358(8) 0.2774(10) 0.5979(6)
C8C C 0.3679(7) 0.6709(11) 0.3554(6)
C9B C -0.1747(11) 1.1797(16) -0.1506(7)
H6B H -0.2167 1.1622 -0.2090
C10B C -0.1038(11) 1.0479(14) -0.1086(7)
H7B H -0.1007 0.9437 -0.1380
C11B C -0.0383(9) 1.0708(13) -0.0239(6)
C12B C -0.0580(13) 1.2165(16) 0.0170(7)
H8B H -0.0229 1.2311 0.0770
C13B C -0.1294(11) 1.3428(15) -0.0291(7)
H9B H -0.1377 1.4439 0.0007
O5C O 0.1619(11) 0.1535(15) 0.7172(8)
H10C H 0.2001 0.2330 0.7457
C14C C 0.101(3) 0.067(5) 0.771(2)
H11C H 0.1475 -0.0217 0.8081
H12C H 0.0827 0.1534 0.8087
C15C C -0.011(3) -0.023(4) 0.708(2)
H13C H -0.0498 -0.0774 0.7435
H14C H -0.0569 0.0655 0.6715
H15C H 0.0075 -0.1097 0.6715
O6 O 0.2517(11) 0.3973(17) -0.1485(9)
H16 H 0.2932 0.4782 -0.1594
H17 H 0.2537 0.4083 -0.0948
loop_
_geom_bond_atom_site_label_1
_geom_bond_atom_site_label_2
_geom_bond_site_symmetry_1
_geom_bond_site_symmetry_2
Co1 O1 1_555 1_555
O1 C7 1_555 1_555
O2 Co1 1_555 1_555
O3 C8 1_555 1_555
O4 C8 1_555 1_555
N1 H1 1_555 1_555
H2 N1 1_555 1_555
N2 Co1 1_555 1_555
C1 C2 1_555 1_555
C2 H3 1_555 1_555
C3 C2 1_555 1_555
C4 C3 1_555 1_555
H4 C4 1_555 1_555
C5 N1 1_555 1_555
C6 C1 1_555 1_555
H5 C6 1_555 1_555
C7 O2 1_555 1_555
C8 C3 1_555 1_555
C9 N2 1_555 1_555
H6 C9 1_555 1_555
C10 C9 1_555 1_555
H7 C10 1_555 1_555
C11 C10 1_555 1_555
C12 C11 1_555 1_555
H8 C12 1_555 1_555
C13 N2 1_555 1_555
H9 C13 1_555 1_555
O5 Co1 1_555 1_555
H10 O5 1_555 1_555
C14 O5 1_555 1_555
H11 C14 1_555 1_555
H12 C14 1_555 1_555
C15 C14 1_555 1_555
H13 C15 1_555 1_555
H14 C15 1_555 1_555
H15 C15 1_555 1_555
O6 H16 1_555 1_555
H17 O6 1_555 1_555
Co1C O1C 1_555 1_555
Co1C_2 O3 1_555 1_555
Co1_2 N1 1_555 1_555
Co1B N2B 1_555 1_555
Co1C_3 N1C 1_555 1_555
O1C C7C 1_555 1_555
O2C Co1C 1_555 1_555
O3C Co1 1_555 1_555
O3_2 Co1C 1_555 1_555
O4C C8C 1_555 1_555
N1C H1C 1_555 1_555
N1_2 Co1 1_555 1_555
N1C_2 Co1C 1_555 1_555
H1_2 N1_2 1_555 1_555
H1C_2 N1C_2 1_555 1_555
H2C N1C 1_555 1_555
H2_2 N1_2 1_555 1_555
H2C_2 N1C_2 1_555 1_555
N2B C9B 1_555 1_555
N2C Co1C 1_555 1_555
C1C C2C 1_555 1_555
C2C H3C 1_555 1_555
C3C C2C 1_555 1_555
C4C C3C 1_555 1_555
H4C C4C 1_555 1_555
C5C N1C 1_555 1_555
C6C C1C 1_555 1_555
H5C C6C 1_555 1_555
C7C O2C 1_555 1_555
C8C O3C 1_555 1_555
C9B H6B 1_555 1_555
C10B C9B 1_555 1_555
H7B C10B 1_555 1_555
C11B C11 1_555 1_555
C12B C11B 1_555 1_555
H8B C12B 1_555 1_555
C13B N2B 1_555 1_555
H9B C13B 1_555 1_555
O5C Co1C 1_555 1_555
H10C O5C 1_555 1_555
C14C O5C 1_555 1_555
H11C C14C 1_555 1_555
H12C C14C 1_555 1_555
C15C C14C 1_555 1_555
H13C C15C 1_555 1_555
H14C C15C 1_555 1_555
H15C C15C 1_555 1_555
C1 C7 1_555 1_555
C4 C5 1_555 1_555
C5 C6 1_555 1_555
C12 C13 1_555 1_555
C1C C7C 1_555 1_555
C3C C8C 1_555 1_555
C4C C5C 1_555 1_555
C5C C6C 1_555 1_555
C10B C11B 1_555 1_555
C12B C13B 1_555 1_555

#END
