
#######################################################################
#
#                 Cambridge Crystallographic Data Centre
#                                CCDC 
#
#######################################################################
#
# If this CIF has been generated from an entry in the Cambridge 
# Structural Database, then it will include bibliographic, chemical, 
# crystal, experimental, refinement or atomic coordinate data resulting 
# from the CCDC's data processing and validation procedures.
#
#######################################################################

data_RUKTOH
_symmetry_cell_setting           monoclinic
_symmetry_space_group_name_H-M   'C 2/c'
_symmetry_Int_Tables_number      15
_space_group_name_Hall           '-C 2yn'
loop_
_symmetry_equiv_pos_site_id
_symmetry_equiv_pos_as_xyz
1 x,y,z
2 1/2+x,1/2+y,z
3 -x,y,1/2-z
4 1/2-x,1/2+y,1/2-z
5 -x,-y,-z
6 1/2-x,1/2-y,-z
7 x,-y,1/2+z
8 1/2+x,1/2-y,1/2+z
_cell_length_a                   13.815(8)
_cell_length_b                   5.931(3)
_cell_length_c                   22.020(10)
_cell_angle_alpha                90
_cell_angle_beta                 101.81(2)
_cell_angle_gamma                90
_cell_volume                     1766.05
loop_
_atom_site_label
_atom_site_type_symbol
_atom_site_fract_x
_atom_site_fract_y
_atom_site_fract_z
Cu1 Cu 0.0000 0.04852(10) 0.2500
N1 N 0.1400(2) 0.0032(5) 0.29168(13)
O1 O -0.03696(17) 0.0593(4) 0.33162(11)
O2 O 0.0000 0.4326(6) 0.2500
C1 C 0.2019(3) -0.1518(7) 0.2795(2)
C2 C 0.1892(3) 0.1121(8) 0.34445(19)
C3 C 0.2795(3) 0.0197(8) 0.3623(2)
N2 N 0.2870(2) -0.1470(7) 0.32135(17)
O3 O -0.0039(2) -0.3025(4) 0.35464(12)
C4 C -0.0169(2) -0.1060(6) 0.36947(15)
C5 C -0.0091(2) -0.0493(5) 0.43692(15)
C6 C 0.0037(3) 0.1718(6) 0.45742(15)
C7 C -0.0125(3) -0.2199(6) 0.47961(17)
H1 H -0.014(4) 0.506(9) 0.279(3)
H2 H 0.189(4) -0.258(9) 0.248(3)
H3 H 0.155(4) 0.239(10) 0.355(3)
H4 H 0.334(5) 0.048(10) 0.398(3)
H5 H 0.331(5) -0.261(12) 0.323(4)
H6 H 0.005(3) 0.300(8) 0.425(2)
H7 H -0.019(3) -0.364(9) 0.466(2)
Cu1D Cu 0.0000 -0.04852(10) 0.7500
N1B N -0.1400(2) 0.0032(5) 0.20832(13)
O1D O 0.03696(17) -0.0593(4) 0.66838(11)
O1B O 0.03696(17) 0.0593(4) 0.16838(11)
C1B C -0.2019(3) -0.1518(7) 0.2205(2)
C2B C -0.1892(3) 0.1121(8) 0.15555(19)
C3B C -0.2795(3) 0.0197(8) 0.1377(2)
N2B N -0.2870(2) -0.1470(7) 0.17865(17)
O3D O 0.0039(2) 0.3025(4) 0.64536(12)
C4D C 0.0169(2) 0.1060(6) 0.63053(15)
C5D C 0.0091(2) 0.0493(5) 0.56308(15)
C6D C -0.0037(3) -0.1718(6) 0.54258(15)
C7D C 0.0125(3) 0.2199(6) 0.52039(17)
H1B H 0.014(4) 0.506(9) 0.221(3)
H2B H -0.189(4) -0.258(9) 0.252(3)
H3B H -0.155(4) 0.239(10) 0.145(3)
H4B H -0.334(5) 0.048(10) 0.102(3)
H5B H -0.331(5) -0.261(12) 0.177(4)
H6D H -0.005(3) -0.300(8) 0.575(2)
H7D H 0.019(3) 0.364(9) 0.534(2)
O4 O 0.2644(11) -0.027(8) 0.5305(8)
O5? O 0.2543(8) -0.152(4) 0.5131(10)
loop_
_geom_bond_atom_site_label_1
_geom_bond_atom_site_label_2
_geom_bond_site_symmetry_1
_geom_bond_site_symmetry_2
Cu1 N1 1_555 1_555
N1 C1 1_555 1_555
O1 Cu1 1_555 1_555
O2 Cu1 1_555 1_555
C1 N2 1_555 1_555
C2 N1 1_555 1_555
C3 C2 1_555 1_555
N2 C3 1_555 1_555
O3 C4 1_555 1_555
C4 O1 1_555 1_555
C5 C4 1_555 1_555
C6 C5 1_555 1_555
C7 C5 1_555 1_555
H1 O2 1_555 1_555
H2 C1 1_555 1_555
H3 C2 1_555 1_555
H4 C3 1_555 1_555
H5 N2 1_555 1_555
H6 C6 1_555 1_555
H7 C7 1_555 1_555
Cu1D O1D 1_555 1_555
N1B Cu1 1_555 1_555
O1D C4D 1_555 1_555
O1B Cu1 1_555 1_555
C1B N1B 1_555 1_555
C2B N1B 1_555 1_555
C3B C2B 1_555 1_555
N2B C1B 1_555 1_555
O3D C4D 1_555 1_555
C4D C5D 1_555 1_555
C5D C6D 1_555 1_555
C6D C7 1_555 1_555
C7D C6 1_555 1_555
H1B O2 1_555 1_555
H2B C1B 1_555 1_555
H3B C2B 1_555 1_555
H4B C3B 1_555 1_555
H5B N2B 1_555 1_555
H6D C6D 1_555 1_555
H7D C7D 1_555 1_555
C3B N2B 1_555 1_555
C5D C7D 1_555 1_555

#END
