
#######################################################################
#
#                 Cambridge Crystallographic Data Centre
#                                CCDC 
#
#######################################################################
#
# If this CIF has been generated from an entry in the Cambridge 
# Structural Database, then it will include bibliographic, chemical, 
# crystal, experimental, refinement or atomic coordinate data resulting 
# from the CCDC's data processing and validation procedures.
#
#######################################################################

data_RUKTIB
_symmetry_cell_setting           monoclinic
_symmetry_space_group_name_H-M   'P 21/n'
_symmetry_Int_Tables_number      14
_space_group_name_Hall           '-P 2yn'
loop_
_symmetry_equiv_pos_site_id
_symmetry_equiv_pos_as_xyz
1 x,y,z
2 1/2-x,1/2+y,1/2-z
3 -x,-y,-z
4 1/2+x,1/2-y,1/2+z
_cell_length_a                   11.686(5)
_cell_length_b                   14.239(5)
_cell_length_c                   8.467(3)
_cell_angle_alpha                90
_cell_angle_beta                 108.269(16)
_cell_angle_gamma                90
_cell_volume                     1337.87
loop_
_atom_site_label
_atom_site_type_symbol
_atom_site_fract_x
_atom_site_fract_y
_atom_site_fract_z
Cu1 Cu 0.21591(4) 0.75349(3) 0.19984(5)
O1 O 0.16071(19) 0.69653(15) 0.3848(3)
O2 O 0.1345(2) 0.90740(16) 0.1957(3)
N1 N 0.3725(2) 0.79056(19) 0.3633(3)
N2 N 0.2861(3) 0.7748(2) 0.0117(3)
N3 N 0.5591(2) 0.7862(2) 0.5414(3)
N4 N 0.4177(3) 0.7871(3) -0.1236(4)
H1 H 0.4859 0.7883 -0.1425
O3 O 0.2604(2) 0.57522(18) 0.3342(3)
C1 C 0.4600(3) 0.7378(2) 0.4635(4)
H2 H 0.4523 0.6736 0.4774
C2 C 0.5340(3) 0.8766(2) 0.4855(5)
H3 H 0.5862 0.9275 0.5163
C3 C 0.4200(3) 0.8794(2) 0.3775(5)
H4 H 0.3808 0.9326 0.3225
C4 C 0.4014(3) 0.7758(3) 0.0243(5)
H5 H 0.4637 0.7694 0.1239
C5 C 0.3074(4) 0.7964(4) -0.2392(5)
H6 H 0.2908 0.8058 -0.3529
C6 C 0.2267(4) 0.7891(4) -0.1549(5)
H7 H 0.1435 0.7932 -0.2024
C7 C 0.1986(3) 0.6124(2) 0.4110(4)
C8 C 0.1642(5) 0.5583(4) 0.5426(7)
H8 H 0.1819 0.5954 0.6421
H9 H 0.2093 0.5008 0.5663
H10 H 0.0796 0.5443 0.5033
C9 C 0.0832(5) 0.9358(3) 0.3193(7)
H11 H 0.0469 0.8816 0.3539
H12 H 0.1471 0.9583 0.4154
C10 C -0.0046(7) 1.0067(6) 0.2670(10)
H13 H -0.0833 0.9787 0.2310
H14 H 0.0084 1.0410 0.1765
H15 H 0.0011 1.0487 0.3579
H16 H 0.1723 0.9594 0.1755
Cu1C Cu 0.71591(4) 0.74651(3) 0.69984(5)
N3C N 0.0591(2) 0.7138(2) 0.0414(3)
loop_
_geom_bond_atom_site_label_1
_geom_bond_atom_site_label_2
_geom_bond_site_symmetry_1
_geom_bond_site_symmetry_2
Cu1 O1 1_555 1_555
O1 C7 1_555 1_555
O2 Cu1 1_555 1_555
N1 Cu1 1_555 1_555
N2 Cu1 1_555 1_555
N3 C1 1_555 1_555
N4 H1 1_555 1_555
O3 C7 1_555 1_555
C1 N1 1_555 1_555
H2 C1 1_555 1_555
C2 N3 1_555 1_555
H3 C2 1_555 1_555
C3 N1 1_555 1_555
H4 C3 1_555 1_555
C4 N2 1_555 1_555
H5 C4 1_555 1_555
C5 N4 1_555 1_555
H6 C5 1_555 1_555
C6 N2 1_555 1_555
H7 C6 1_555 1_555
C7 C8 1_555 1_555
C8 H8 1_555 1_555
H9 C8 1_555 1_555
H10 C8 1_555 1_555
C9 O2 1_555 1_555
H11 C9 1_555 1_555
H12 C9 1_555 1_555
C10 C9 1_555 1_555
H13 C10 1_555 1_555
H14 C10 1_555 1_555
H15 C10 1_555 1_555
H16 O2 1_555 1_555
Cu1C N3 1_555 1_555
N3C Cu1 1_555 1_555
N4 C4 1_555 1_555
C2 C3 1_555 1_555
C5 C6 1_555 1_555

#END
