
#######################################################################
#
#                 Cambridge Crystallographic Data Centre
#                                CCDC 
#
#######################################################################
#
# If this CIF has been generated from an entry in the Cambridge 
# Structural Database, then it will include bibliographic, chemical, 
# crystal, experimental, refinement or atomic coordinate data resulting 
# from the CCDC's data processing and validation procedures.
#
#######################################################################

data_RUKZED
_symmetry_cell_setting           orthorhombic
_symmetry_space_group_name_H-M   'A m a 2'
_symmetry_Int_Tables_number      40
_space_group_name_Hall           'A 2 -2a'
loop_
_symmetry_equiv_pos_site_id
_symmetry_equiv_pos_as_xyz
1 x,y,z
2 -x,-y,z
3 1/2-x,y,z
4 1/2+x,-y,z
5 x,1/2+y,1/2+z
6 -x,1/2-y,1/2+z
7 1/2-x,1/2+y,1/2+z
8 1/2+x,1/2-y,1/2+z
_cell_length_a                   6.579(3)
_cell_length_b                   27.779(7)
_cell_length_c                   8.637(4)
_cell_angle_alpha                90
_cell_angle_beta                 90
_cell_angle_gamma                90
_cell_volume                     1578.48
loop_
_atom_site_label
_atom_site_type_symbol
_atom_site_fract_x
_atom_site_fract_y
_atom_site_fract_z
Ag1 Ag 0.2500 0.195849(9) 0.65824(4)
C1 C 0.2500 0.07275(13) 0.3295(5)
C2 C 0.2500 0.04091(15) 0.4542(5)
C3 C 0.2500 -0.00813(15) 0.4342(5)
H1 H 0.2500 -0.0282 0.5204
C4 C 0.2500 -0.02837(15) 0.2853(5)
C5 C 0.2500 0.00405(13) 0.1614(6)
C6 C 0.2500 0.05280(14) 0.1813(5)
H2 H 0.2500 0.0729 0.0952
C7 C -0.0692(4) 0.14476(10) 0.8863(3)
H3 H -0.0680 0.1174 0.8164
H4 H 0.0510 0.1429 0.9510
C8 C -0.2500 0.19237(14) 0.6979(4)
H5 H -0.2500 0.2219 0.6381
H6 H -0.2500 0.1656 0.6258
C9 C -0.0684(4) 0.23098(9) 0.9042(3)
H7 H 0.0523 0.2299 0.9686
H8 H -0.0664 0.2610 0.8469
C10 C -0.2500 0.18374(15) 1.0904(5)
H9 H -0.1307 0.1822 1.1562
Cl1 Cl 0.2500 0.06147(5) 0.6447(2)
Cl2 Cl 0.2500 -0.01914(4) -0.02606(14)
N1 N 0.2500 -0.07655(12) 0.2638(5)
N2 N -0.0634(4) 0.19033(8) 0.7941(3)
N3 N -0.2500 0.22990(12) 1.0041(3)
N4 N -0.2500 0.14252(12) 0.9833(4)
O1 O 0.2500 0.15598(11) 0.1947(3)
O2 O 0.4329(4) 0.14884(8) 0.4370(3)
S1 S 0.2500 0.13605(3) 0.35111(12)
H10 H 0.2500 -0.0893(19) 0.176(4)
Ag1E Ag -0.2500 0.304151(9) 1.15824(4)
Ag1_2 Ag -0.7500 0.195849(9) 0.65824(4)
C7B C -0.4308(4) 0.14476(10) 0.8863(3)
H3B H -0.4320 0.1174 0.8164
H4B H -0.5510 0.1429 0.9510
C9B C -0.4316(4) 0.23098(9) 0.9042(3)
H7B H -0.5523 0.2299 0.9686
H8B H -0.4336 0.2610 0.8469
H9B H -0.3693 0.1822 1.1562
N2B N -0.4366(4) 0.19033(8) 0.7941(3)
N2B_2 N 0.5634(4) 0.19033(8) 0.7941(3)
N3E N 0.2500 0.27010(12) 0.5041(3)
O2B O 0.0671(4) 0.14884(8) 0.4370(3)
loop_
_geom_bond_atom_site_label_1
_geom_bond_atom_site_label_2
_geom_bond_site_symmetry_1
_geom_bond_site_symmetry_2
Ag1 N2 1_555 1_555
C1 C2 1_555 1_555
C2 C3 1_555 1_555
C3 H1 1_555 1_555
C4 C3 1_555 1_555
C5 C4 1_555 1_555
C6 C1 1_555 1_555
H2 C6 1_555 1_555
C7 H3 1_555 1_555
H4 C7 1_555 1_555
C8 H5 1_555 1_555
H6 C8 1_555 1_555
C9 H7 1_555 1_555
H8 C9 1_555 1_555
C10 H9 1_555 1_555
Cl1 C2 1_555 1_555
Cl2 C5 1_555 1_555
N1 C4 1_555 1_555
N2 C7 1_555 1_555
N3 C9 1_555 1_555
N4 C7 1_555 1_555
O1 S1 1_555 1_555
O2 Ag1 1_555 1_555
S1 C1 1_555 1_555
H10 N1 1_555 1_555
Ag1E N3 1_555 1_555
Ag1_2 N2B 1_555 1_555
C7B N4 1_555 1_555
H3B C7B 1_555 1_555
H4B C7B 1_555 1_555
C9B N3 1_555 1_555
H7B C9B 1_555 1_555
H8B C9B 1_555 1_555
H9B C10 1_555 1_555
N2B C8 1_555 1_555
N2B_2 Ag1 1_555 1_555
N3E Ag1 1_555 1_555
O2B Ag1 1_555 1_555
C5 C6 1_555 1_555
C8 N2 1_555 1_555
C9 N2 1_555 1_555
C10 N3 1_555 1_555
C10 N4 1_555 1_555
O2 S1 1_555 1_555
S1 O2B 1_555 1_555
C7B N2B 1_555 1_555
C9B N2B 1_555 1_555

#END
