
#######################################################################
#
#                 Cambridge Crystallographic Data Centre
#                                CCDC 
#
#######################################################################
#
# If this CIF has been generated from an entry in the Cambridge 
# Structural Database, then it will include bibliographic, chemical, 
# crystal, experimental, refinement or atomic coordinate data resulting 
# from the CCDC's data processing and validation procedures.
#
#######################################################################

data_RUKZAZ
_symmetry_cell_setting           monoclinic
_symmetry_space_group_name_H-M   'P 21/c'
_symmetry_Int_Tables_number      14
_space_group_name_Hall           '-P 2ybc'
loop_
_symmetry_equiv_pos_site_id
_symmetry_equiv_pos_as_xyz
1 x,y,z
2 -x,1/2+y,1/2-z
3 -x,-y,-z
4 x,1/2-y,1/2+z
_cell_length_a                   7.009(4)
_cell_length_b                   7.394(3)
_cell_length_c                   19.955(3)
_cell_angle_alpha                90
_cell_angle_beta                 92.425(5)
_cell_angle_gamma                90
_cell_volume                     1033.23
loop_
_atom_site_label
_atom_site_type_symbol
_atom_site_fract_x
_atom_site_fract_y
_atom_site_fract_z
Ag1 Ag 0.22577(4) 0.05108(4) 0.544519(12)
C1 C 0.2369(4) 0.2600(4) 0.67724(13)
C2 C 0.0847(4) 0.1838(4) 0.70996(13)
C3 C 0.0979(4) 0.1452(4) 0.77749(13)
H1 H -0.0065 0.0961 0.7983
C4 C 0.2654(4) 0.1788(4) 0.81470(13)
C5 C 0.4197(4) 0.2498(4) 0.78148(13)
C6 C 0.4053(4) 0.2906(4) 0.71424(13)
H2 H 0.5099 0.3392 0.6934
N1 N 0.2240(4) 0.2977(4) 0.60698(12)
O1 O 0.4188(3) -0.0044(4) 0.91393(11)
O2 O 0.0833(3) 0.0697(3) 0.91720(11)
O3 O 0.3231(3) 0.3032(3) 0.93527(11)
O4 O 0.2346(4) -0.2262(4) 0.51372(14)
S1 S 0.27416(9) 0.13313(10) 0.90282(3)
Cl1 Cl 0.63794(10) 0.29124(12) 0.82291(4)
Cl2 Cl -0.12301(11) 0.12882(13) 0.66416(4)
H3 H 0.124(4) 0.353(5) 0.5962(17)
H4 H 0.314(4) 0.364(4) 0.5951(17)
H5 H 0.155(5) -0.298(5) 0.5322(16)
H6 H 0.254(5) -0.262(5) 0.4713(12)
Ag1C Ag 0.22577(4) 0.44892(4) 1.044519(12)
O3C O 0.3231(3) 0.1968(3) 0.43527(11)
loop_
_geom_bond_atom_site_label_1
_geom_bond_atom_site_label_2
_geom_bond_site_symmetry_1
_geom_bond_site_symmetry_2
Ag1 N1 1_555 1_555
C1 C2 1_555 1_555
C2 C3 1_555 1_555
C3 H1 1_555 1_555
C4 C3 1_555 1_555
C5 C4 1_555 1_555
C6 C1 1_555 1_555
H2 C6 1_555 1_555
N1 C1 1_555 1_555
O1 S1 1_555 1_555
O2 S1 1_555 1_555
O3 S1 1_555 1_555
O4 Ag1 1_555 1_555
S1 C4 1_555 1_555
Cl1 C5 1_555 1_555
Cl2 C2 1_555 1_555
H3 N1 1_555 1_555
H4 N1 1_555 1_555
H5 O4 1_555 1_555
H6 O4 1_555 1_555
Ag1C O3 1_555 1_555
O3C Ag1 1_555 1_555
C5 C6 1_555 1_555

#END
