
#######################################################################
#
#                 Cambridge Crystallographic Data Centre
#                                CCDC 
#
#######################################################################
#
# If this CIF has been generated from an entry in the Cambridge 
# Structural Database, then it will include bibliographic, chemical, 
# crystal, experimental, refinement or atomic coordinate data resulting 
# from the CCDC's data processing and validation procedures.
#
#######################################################################

data_RUKZON
_symmetry_cell_setting           monoclinic
_symmetry_space_group_name_H-M   'P 21/c'
_symmetry_Int_Tables_number      14
_space_group_name_Hall           '-P 2ybc'
loop_
_symmetry_equiv_pos_site_id
_symmetry_equiv_pos_as_xyz
1 x,y,z
2 -x,1/2+y,1/2-z
3 -x,-y,-z
4 x,1/2-y,1/2+z
_cell_length_a                   14.800(7)
_cell_length_b                   13.999(8)
_cell_length_c                   16.503(5)
_cell_angle_alpha                90
_cell_angle_beta                 103.721(5)
_cell_angle_gamma                90
_cell_volume                     3321.6
loop_
_atom_site_label
_atom_site_type_symbol
_atom_site_fract_x
_atom_site_fract_y
_atom_site_fract_z
Ag1 Ag 1.00861(2) 0.05735(2) 0.11372(2)
C1 C 0.7694(2) 0.2842(2) 0.0538(2)
C2 C 0.7678(2) 0.3300(3) -0.0181(2)
H1 H 0.7715 0.2940 -0.0645
C3 C 0.7604(3) 0.4322(3) -0.0264(3)
C4 C 0.7636(3) 0.4908(3) 0.0461(3)
C5 C 0.7725(3) 0.4910(3) 0.1986(3)
H2 H 0.7770 0.5572 0.1970
C6 C 0.7702(4) 0.4475(4) 0.2719(3)
H3 H 0.7732 0.4835 0.3198
C7 C 0.7634(4) 0.3493(4) 0.2740(3)
H4 H 0.7593 0.3194 0.3233
C8 C 0.7627(3) 0.2948(3) 0.2044(2)
H5 H 0.7596 0.2286 0.2077
C9 C 0.7667(2) 0.3374(2) 0.1289(2)
C10 C 0.7684(3) 0.4385(3) 0.1257(3)
C11 C 1.1557(3) -0.7759(3) 0.1432(3)
H6 H 1.2025 -0.8130 0.1303
C12 C 1.0269(3) -0.7332(2) 0.1680(2)
H7 H 0.9665 -0.7341 0.1751
C13 C 1.1627(3) -0.6823(3) 0.1613(3)
H8 H 1.2138 -0.6433 0.1622
C14 C 1.0557(3) -0.5586(2) 0.1972(3)
H9 H 1.1091 -0.5281 0.2335
H10 H 1.0064 -0.5615 0.2266
C15 C 1.0236(3) -0.4992(2) 0.1184(2)
H11 H 1.0705 -0.5013 0.0862
H12 H 0.9667 -0.5262 0.0845
C16 C 1.0066(3) -0.3960(3) 0.1396(2)
H13 H 0.9558 -0.3932 0.1674
H14 H 1.0619 -0.3705 0.1772
C17 C 0.9829(3) -0.3368(2) 0.0608(2)
H15 H 1.0360 -0.3353 0.0359
H16 H 0.9315 -0.3663 0.0212
C18 C 1.0067(3) -0.1603(2) 0.0755(2)
H17 H 1.0653 -0.1590 0.0642
C19 C 0.8785(3) -0.1170(3) 0.1045(2)
H18 H 0.8319 -0.0794 0.1172
C20 C 0.8752(3) -0.2129(3) 0.0959(2)
H19 H 0.8270 -0.2532 0.1014
N1 N 0.7498(3) 0.4755(3) -0.1013(3)
N2 N 0.9610(2) -0.0837(2) 0.0918(2)
N3 N 1.0699(2) -0.8084(2) 0.1466(2)
N4 N 1.0809(2) -0.6559(2) 0.17797(19)
N5 N 0.9574(2) -0.23881(19) 0.07746(18)
O1 O 0.84696(19) 0.12908(19) 0.12411(19)
O2 O 0.68312(19) 0.1257(2) 0.06334(19)
O3 O 0.7909(3) 0.1287(2) -0.0251(2)
O4 O 0.7605(2) 0.5796(2) 0.0450(2)
O5 O 0.7465(3) 0.4215(3) -0.1642(2)
S1 S 0.77334(6) 0.15683(6) 0.05371(6)
Ag1_2 Ag 1.00861(2) -0.94265(2) 0.11372(2)
N3_2 N 1.0699(2) 0.1916(2) 0.1466(2)
Ag2 Ag 0.54901(4) 0.07633(3) -0.09444(3)
C21 C 0.6545(3) 0.7953(3) -0.0351(3)
H20 H 0.7018 0.7512 -0.0166
C22 C 0.6642(3) 0.8906(3) -0.0423(3)
H21 H 0.7203 0.9235 -0.0292
C23 C 0.5201(3) 0.8596(3) -0.0812(3)
H22 H 0.4561 0.8665 -0.1005
C24 C 0.5198(3) 0.6821(3) -0.0592(3)
H23 H 0.4543 0.6898 -0.0608
H24 H 0.5488 0.6499 -0.0075
C25 C 0.5297(3) 0.6209(3) -0.1317(3)
H25 H 0.5942 0.6210 -0.1353
H26 H 0.4926 0.6478 -0.1830
C26 C 0.4990(3) 0.5190(3) -0.1228(3)
H27 H 0.5388 0.4908 -0.0734
H28 H 0.4359 0.5194 -0.1153
C27 C 0.5024(4) 0.4587(3) -0.1973(3)
H29 H 0.4581 0.4834 -0.2457
H30 H 0.5639 0.4634 -0.2080
C28 C 0.3967(3) 0.3181(3) -0.2039(4)
H31 H 0.3416 0.3481 -0.2306
C29 C 0.5401(3) 0.2906(3) -0.1499(3)
H32 H 0.6040 0.2994 -0.1321
C30 C 0.4055(3) 0.2277(3) -0.1770(3)
H33 H 0.3571 0.1842 -0.1810
N6 N 0.4974(3) 0.2099(2) -0.1425(2)
N7 N 0.4812(2) 0.3576(2) -0.1857(2)
N8 N 0.5623(2) 0.7767(2) -0.0601(2)
N9 N 0.5793(3) 0.9309(2) -0.0716(2)
Ag2_2 Ag 0.54901(4) 1.07633(3) -0.09444(3)
N9_2 N 0.5793(3) -0.0691(2) -0.0716(2)
O6 O 0.6829(3) 0.5176(2) -0.3130(2)
H34 H 0.700(5) 0.491(4) -0.269(2)
H35 H 0.684(5) 0.478(4) -0.347(3)
loop_
_geom_bond_atom_site_label_1
_geom_bond_atom_site_label_2
_geom_bond_site_symmetry_1
_geom_bond_site_symmetry_2
Ag1 N2 1_555 1_555
C1 C2 1_555 1_555
C2 H1 1_555 1_555
C3 C2 1_555 1_555
C4 C3 1_555 1_555
C5 H2 1_555 1_555
C6 C5 1_555 1_555
H3 C6 1_555 1_555
C7 C6 1_555 1_555
H4 C7 1_555 1_555
C8 C7 1_555 1_555
H5 C8 1_555 1_555
C9 C1 1_555 1_555
C10 C4 1_555 1_555
C11 H6 1_555 1_555
C12 H7 1_555 1_555
C13 C11 1_555 1_555
H8 C13 1_555 1_555
C14 H9 1_555 1_555
H10 C14 1_555 1_555
C15 C14 1_555 1_555
H11 C15 1_555 1_555
H12 C15 1_555 1_555
C16 C15 1_555 1_555
H13 C16 1_555 1_555
H14 C16 1_555 1_555
C17 C16 1_555 1_555
H15 C17 1_555 1_555
H16 C17 1_555 1_555
C18 H17 1_555 1_555
C19 H18 1_555 1_555
C20 C19 1_555 1_555
H19 C20 1_555 1_555
N1 C3 1_555 1_555
N2 C18 1_555 1_555
N3 C11 1_555 1_555
N4 C12 1_555 1_555
N5 C17 1_555 1_555
O1 Ag1 1_555 1_555
O2 S1 1_555 1_555
O3 S1 1_555 1_555
O4 C4 1_555 1_555
O5 N1 1_555 1_555
S1 C1 1_555 1_555
Ag2 N6 1_555 1_555
C21 H20 1_555 1_555
C22 C21 1_555 1_555
H21 C22 1_555 1_555
C23 H22 1_555 1_555
C24 H23 1_555 1_555
H24 C24 1_555 1_555
C25 C24 1_555 1_555
H25 C25 1_555 1_555
H26 C25 1_555 1_555
C26 C25 1_555 1_555
H27 C26 1_555 1_555
H28 C26 1_555 1_555
C27 C26 1_555 1_555
H29 C27 1_555 1_555
H30 C27 1_555 1_555
C28 H31 1_555 1_555
C29 H32 1_555 1_555
C30 C28 1_555 1_555
H33 C30 1_555 1_555
N6 C29 1_555 1_555
N7 C27 1_555 1_555
N8 C21 1_555 1_555
N9 C22 1_555 1_555
O6 H34 1_555 1_555
H35 O6 1_555 1_555
Ag1_2 N3 1_555 1_555
N3_2 Ag1 1_555 1_555
Ag2_2 N9 1_555 1_555
N9_2 Ag2 1_555 1_555
C5 C10 1_555 1_555
C8 C9 1_555 1_555
C9 C10 1_555 1_555
C12 N3 1_555 1_555
C13 N4 1_555 1_555
C14 N4 1_555 1_555
C18 N5 1_555 1_555
C19 N2 1_555 1_555
C20 N5 1_555 1_555
O1 S1 1_555 1_555
C23 N8 1_555 1_555
C23 N9 1_555 1_555
C24 N8 1_555 1_555
C28 N7 1_555 1_555
C29 N7 1_555 1_555
C30 N6 1_555 1_555

#END
