
#######################################################################
#
#                 Cambridge Crystallographic Data Centre
#                                CCDC 
#
#######################################################################
#
# If this CIF has been generated from an entry in the Cambridge 
# Structural Database, then it will include bibliographic, chemical, 
# crystal, experimental, refinement or atomic coordinate data resulting 
# from the CCDC's data processing and validation procedures.
#
#######################################################################

data_RUKZIH
_symmetry_cell_setting           triclinic
_symmetry_space_group_name_H-M   'P -1'
_symmetry_Int_Tables_number      2
_space_group_name_Hall           '-P 1'
loop_
_symmetry_equiv_pos_site_id
_symmetry_equiv_pos_as_xyz
1 x,y,z
2 -x,-y,-z
_cell_length_a                   7.0631(7)
_cell_length_b                   9.1815(9)
_cell_length_c                   10.2152(11)
_cell_angle_alpha                83.041(2)
_cell_angle_beta                 84.084(2)
_cell_angle_gamma                68.653(2)
_cell_volume                     611.213
loop_
_atom_site_label
_atom_site_type_symbol
_atom_site_fract_x
_atom_site_fract_y
_atom_site_fract_z
Ag1 Ag 0.13188(10) 0.56751(7) 0.85343(4)
C1 C 0.2321(7) 0.5763(6) 0.3061(5)
C2 C 0.3737(7) 0.4153(6) 0.3278(5)
C3 C 0.4816(8) 0.3256(7) 0.2243(6)
H1 H 0.4651 0.3689 0.1372
C4 C 0.6137(9) 0.1716(7) 0.2515(7)
H2 H 0.6841 0.1127 0.1823
C5 C 0.6410(9) 0.1058(7) 0.3802(7)
H3 H 0.7293 0.0029 0.3971
C6 C 0.5387(8) 0.1913(6) 0.4830(6)
H4 H 0.5596 0.1467 0.5695
C7 C 0.4036(7) 0.3446(6) 0.4594(5)
C8 C 0.2933(8) 0.4320(6) 0.5722(5)
C9 C 0.1523(7) 0.5965(6) 0.5413(5)
C10 C 0.1292(7) 0.6614(6) 0.4057(5)
H5 H 0.0414 0.7640 0.3869
N1 N 0.0592(7) 0.6737(5) 0.6429(4)
O1 O 0.1262(6) 0.5684(4) 0.0730(4)
O2 O 0.3895(6) 0.6736(5) 0.0878(4)
O3 O 0.0399(6) 0.8231(4) 0.1553(4)
O4 O 0.3119(6) 0.3736(5) 0.6870(4)
H6 H 0.358(11) 0.278(7) 0.673(8)
O5 O -0.0704(6) 0.8200(5) 0.6114(4)
S1 S 0.1952(2) 0.66992(15) 0.14256(12)
Ag1_2 Ag 0.13188(10) 0.56751(7) -0.14657(4)
Ag1A Ag -0.13188(10) 0.43249(7) 0.14657(4)
O1_2 O 0.1262(6) 0.5684(4) 1.0730(4)
O1A O -0.1262(6) 0.4316(4) 0.9270(4)
O6 O 0.6702(10) 0.8301(10) 0.0490(7)
H7 H 0.620(16) 0.766(12) 0.074(12)
H8 H 0.760(14) 0.816(14) 0.093(11)
O7 O -0.1840(11) 0.9345(8) 0.8259(6)
H9 H -0.236(16) 0.900(12) 0.888(9)
H10 H -0.155(17) 1.004(10) 0.838(11)
loop_
_geom_bond_atom_site_label_1
_geom_bond_atom_site_label_2
_geom_bond_site_symmetry_1
_geom_bond_site_symmetry_2
Ag1 N1 1_555 1_555
C1 C2 1_555 1_555
C2 C3 1_555 1_555
C3 H1 1_555 1_555
C4 C3 1_555 1_555
H2 C4 1_555 1_555
C5 C4 1_555 1_555
H3 C5 1_555 1_555
C6 C5 1_555 1_555
H4 C6 1_555 1_555
C7 C2 1_555 1_555
C8 C7 1_555 1_555
C9 C8 1_555 1_555
C10 C1 1_555 1_555
H5 C10 1_555 1_555
N1 C9 1_555 1_555
O1 S1 1_555 1_555
O2 S1 1_555 1_555
O3 S1 1_555 1_555
O4 Ag1 1_555 1_555
H6 O4 1_555 1_555
O5 N1 1_555 1_555
S1 C1 1_555 1_555
O6 H7 1_555 1_555
H8 O6 1_555 1_555
O7 H9 1_555 1_555
H10 O7 1_555 1_555
Ag1_2 O1 1_555 1_555
Ag1A O1 1_555 1_555
O1_2 Ag1 1_555 1_555
O1A Ag1 1_555 1_555
C6 C7 1_555 1_555
C8 O4 1_555 1_555
C9 C10 1_555 1_555

#END
