
#######################################################################
#
#                 Cambridge Crystallographic Data Centre
#                                CCDC 
#
#######################################################################
#
# If this CIF has been generated from an entry in the Cambridge 
# Structural Database, then it will include bibliographic, chemical, 
# crystal, experimental, refinement or atomic coordinate data resulting 
# from the CCDC's data processing and validation procedures.
#
#######################################################################

data_RUKZUT
_symmetry_cell_setting           triclinic
_symmetry_space_group_name_H-M   'P -1'
_symmetry_Int_Tables_number      2
_space_group_name_Hall           '-P 1'
loop_
_symmetry_equiv_pos_site_id
_symmetry_equiv_pos_as_xyz
1 x,y,z
2 -x,-y,-z
_cell_length_a                   7.2070(4)
_cell_length_b                   9.390(5)
_cell_length_c                   11.3820(6)
_cell_angle_alpha                87.482(1)
_cell_angle_beta                 84.877(1)
_cell_angle_gamma                71.74(12)
_cell_volume                     728.45
loop_
_atom_site_label
_atom_site_type_symbol
_atom_site_fract_x
_atom_site_fract_y
_atom_site_fract_z
Ag1 Ag 0.0000 0.5000 1.0000
O1 O -0.1375(8) 0.4267(5) 0.8690(3)
H1 H -0.185(11) 0.349(7) 0.875(7)
H2 H -0.144(12) 0.455(8) 0.791(4)
O1A O 0.1375(8) 0.5733(5) 1.1310(3)
H1A H 0.185(11) 0.651(7) 1.125(7)
H2A H 0.144(12) 0.545(8) 1.209(4)
K1 K 0.59289(9) 0.87249(7) 0.80920(5)
K2 K 1.24084(9) 0.00085(7) 1.53008(5)
K3 K 0.0000 1.0000 1.0000
C1 C 0.6812(4) 0.6076(3) 1.4251(2)
C2 C 0.5968(4) 0.7198(3) 1.3373(2)
C3 C 0.5936(4) 0.6534(3) 1.2238(2)
C4 C 0.6722(4) 0.5039(3) 1.2018(2)
H3 H 0.6613 0.4676 1.1288
C5 C 0.7701(4) 0.4037(3) 1.2891(2)
C6 C 0.7723(4) 0.4552(3) 1.3988(2)
H4 H 0.8345 0.3892 1.4569
N1 N 0.6792(3) 0.6470(3) 1.54526(19)
O2 O 0.5016(4) 0.6808(2) 1.00718(19)
O3 O 0.6303(4) 0.8657(2) 1.08013(19)
O4 O 0.3005(3) 0.8666(2) 1.14470(18)
O5 O 1.0188(3) 0.2267(2) 1.14305(18)
O6 O 1.0194(3) 0.1544(2) 1.35023(18)
O7 O 0.7614(3) 0.1382(2) 1.2362(2)
O8 O 0.7502(4) 0.5482(3) 1.61847(19)
O9 O 0.6028(3) 0.7784(2) 1.57611(17)
O10 O 0.5325(3) 0.8590(2) 1.35220(17)
O11 O 0.8945(4) 0.1954(3) 1.6342(2)
S1 S 0.50008(11) 0.77614(7) 1.10483(5)
S2 S 0.90149(9) 0.21670(7) 1.25222(5)
H5 H 0.835(6) 0.289(4) 1.637(4)
H6 H 0.849(8) 0.160(6) 1.694(4)
K1A K 0.40711(9) 1.12751(7) 1.19080(5)
K1A_2 K 1.40711(9) 0.12751(7) 1.19080(5)
K1_2 K 1.59289(9) -0.12751(7) 1.80920(5)
K1_3 K -0.40711(9) 0.87249(7) 0.80920(5)
K1A_3 K 0.40711(9) 0.12751(7) 1.19080(5)
K1_4 K 0.59289(9) 0.87249(7) 1.80920(5)
K1_5 K -0.40711(9) 1.87249(7) 0.80920(5)
K1_6 K 0.59289(9) 1.87249(7) 0.80920(5)
K1A_4 K 0.40711(9) 1.12751(7) 0.19080(5)
K1A_5 K -0.59289(9) 2.12751(7) 0.19080(5)
K2A K -0.24084(9) 1.99915(7) 0.46992(5)
K2A_2 K 0.75916(9) 0.99915(7) 0.46992(5)
K2_2 K 0.24084(9) 1.00085(7) 0.53008(5)
K2A_3 K 1.75916(9) -0.00085(7) 1.46992(5)
K2A_4 K 0.75916(9) -0.00085(7) 1.46992(5)
K2_3 K 0.24084(9) 1.00085(7) 1.53008(5)
K2A_5 K 0.75916(9) 0.99915(7) 1.46992(5)
K2_4 K 0.24084(9) 2.00085(7) 0.53008(5)
K2_5 K -0.75916(9) 2.00085(7) 0.53008(5)
K3_2 K 1.0000 1.0000 1.0000
K3_3 K 1.0000 0.0000 1.0000
K3_4 K 0.0000 2.0000 1.0000
C1A C 0.3188(4) 1.3924(3) 0.5749(2)
C2A C 0.4032(4) 1.2802(3) 0.6627(2)
C3A C 0.4064(4) 1.3466(3) 0.7762(2)
C4A C 0.3278(4) 1.4961(3) 0.7982(2)
H3A H 0.3387 1.5324 0.8712
C5A C 0.2299(4) 1.5963(3) 0.7109(2)
C6A C 0.2277(4) 1.5448(3) 0.6012(2)
H4A H 0.1655 1.6108 0.5431
N1A N 0.3208(3) 1.3530(3) 0.45474(19)
O2A O 0.4984(4) 1.3192(2) 0.99282(19)
O3A O 0.3697(4) 1.1343(2) 0.91987(19)
O3_2 O -0.3697(4) 0.8657(2) 1.08013(19)
O4A O 0.6995(3) 1.1334(2) 0.85530(18)
O4A_2 O -0.3005(3) 1.1334(2) 0.85530(18)
O5A O -0.0188(3) 1.7733(2) 0.85695(18)
O5A_2 O 0.9812(3) 0.7733(2) 0.85695(18)
O5A_3 O -0.0188(3) 0.7733(2) 0.85695(18)
O5_2 O 0.0188(3) 1.2267(2) 1.14305(18)
O6A O -0.0194(3) 1.8456(2) 0.64977(18)
O6A_2 O 0.9806(3) 0.8456(2) 0.64977(18)
O6A_3 O 0.9806(3) -0.1544(2) 1.64977(18)
O6_2 O 0.0194(3) 1.1544(2) 1.35023(18)
O6_3 O 0.0194(3) 2.1544(2) 0.35023(18)
O7A O 0.2386(3) 1.8618(2) 0.7638(2)
O7A_2 O 0.2386(3) 0.8618(2) 0.7638(2)
O7A_3 O 1.2386(3) -0.1382(2) 1.7638(2)
O7_2 O -0.2386(3) 1.1382(2) 1.2362(2)
O7_3 O 0.7614(3) 1.1382(2) 1.2362(2)
O7_4 O -0.2386(3) 2.1382(2) 0.2362(2)
O8A O 0.2498(4) 1.4518(3) 0.38153(19)
O9A O 0.3972(3) 1.2216(2) 0.42389(17)
O9_2 O 0.6028(3) 0.7784(2) 0.57611(17)
O9_3 O 1.6028(3) -0.2216(2) 1.57611(17)
O9A_2 O 1.3972(3) 0.2216(2) 1.42389(17)
O9A_3 O 0.3972(3) 1.2216(2) 1.42389(17)
O9A_4 O -0.6028(3) 2.2216(2) 0.42389(17)
O9_4 O -0.3972(3) 1.7784(2) 0.57611(17)
O10A O 0.4675(3) 1.1410(2) 0.64780(17)
O10_2 O 1.5325(3) -0.1410(2) 1.35220(17)
O10A_2 O 1.4675(3) 0.1410(2) 1.64780(17)
O10A_3 O -0.5325(3) 2.1410(2) 0.64780(17)
O10_3 O -0.4675(3) 1.8590(2) 0.35220(17)
O11A O 1.1055(4) -0.1954(3) 1.3658(2)
O11A_2 O 0.1055(4) 1.8046(3) 0.3658(2)
O11_2 O -0.1055(4) 2.1954(3) 0.6342(2)
S1A S 0.49992(11) 1.22386(7) 0.89517(5)
S2A S 0.09851(9) 1.78330(7) 0.74778(5)
H5A H 1.165(6) -0.289(4) 1.363(4)
H5A_2 H 0.165(6) 1.711(4) 0.363(4)
H5_2 H -0.165(6) 2.289(4) 0.637(4)
H6A H 1.151(8) -0.160(6) 1.306(4)
H6A_2 H 0.151(8) 1.840(6) 0.306(4)
H6_2 H -0.151(8) 2.160(6) 0.694(4)
loop_
_geom_bond_atom_site_label_1
_geom_bond_atom_site_label_2
_geom_bond_site_symmetry_1
_geom_bond_site_symmetry_2
Ag1 O1 1_555 1_555
O1 H1 1_555 1_555
H2 O1 1_555 1_555
K1 O2 1_555 1_555
K2 O6 1_555 1_555
K3 O4 1_555 1_555
C1 C2 1_555 1_555
C2 C3 1_555 1_555
C3 C4 1_555 1_555
C4 H3 1_555 1_555
C5 C4 1_555 1_555
C6 C1 1_555 1_555
H4 C6 1_555 1_555
N1 C1 1_555 1_555
O2 S1 1_555 1_555
O3 K1 1_555 1_555
O4 S1 1_555 1_555
O5 S2 1_555 1_555
O6 S2 1_555 1_555
O7 S2 1_555 1_555
O8 N1 1_555 1_555
O9 N1 1_555 1_555
O10 C2 1_555 1_555
O11 K2 1_555 1_555
S1 C3 1_555 1_555
S2 C5 1_555 1_555
H5 O11 1_555 1_555
H6 O11 1_555 1_555
O1A Ag1 1_555 1_555
H1A O1A 1_555 1_555
H2A O1A 1_555 1_555
K1A O3 1_555 1_555
K1A_2 O5 1_555 1_555
K1_2 O7A_3 1_555 1_555
K1_3 O3_2 1_555 1_555
K1A_3 O7 1_555 1_555
K1_4 O9 1_555 1_555
K1_5 O5A 1_555 1_555
K1_6 O7A 1_555 1_555
K1A_4 O9A 1_555 1_555
K1A_5 O7_4 1_555 1_555
K2A O6A 1_555 1_555
K2A_2 O6A_2 1_555 1_555
K2_2 O7A_2 1_555 1_555
K2A_3 O9_3 1_555 1_555
K2A_4 O6 1_555 1_555
K2_3 O9 1_555 1_555
K2A_5 O9 1_555 1_555
K2_4 O6A 1_555 1_555
K2_5 O9A_4 1_555 1_555
K3_2 O3 1_555 1_555
K3_3 O5 1_555 1_555
K3_4 O5A 1_555 1_555
C1A C2A 1_555 1_555
C2A C3A 1_555 1_555
C3A C4A 1_555 1_555
C4A H3A 1_555 1_555
C5A C4A 1_555 1_555
C6A C1A 1_555 1_555
H4A C6A 1_555 1_555
N1A C1A 1_555 1_555
O2A K1A 1_555 1_555
O3A K1 1_555 1_555
O3_2 K3 1_555 1_555
O4A K1 1_555 1_555
O4A_2 K3 1_555 1_555
O5A S2A 1_555 1_555
O5A_2 K1 1_555 1_555
O5A_3 K3 1_555 1_555
O5_2 K3 1_555 1_555
O6A K1_5 1_555 1_555
O6A_2 K1 1_555 1_555
O6A_3 K2 1_555 1_555
O6_2 K1A 1_555 1_555
O6_3 K2A 1_555 1_555
O7A K2_4 1_555 1_555
O7A_2 K1 1_555 1_555
O7A_3 K2 1_555 1_555
O7_2 K3 1_555 1_555
O7_3 K1A 1_555 1_555
O7_4 K2A 1_555 1_555
O8A N1A 1_555 1_555
O9A K2A_2 1_555 1_555
O9_2 K1 1_555 1_555
O9_3 K2 1_555 1_555
O9A_2 K2 1_555 1_555
O9A_3 K1A 1_555 1_555
O9A_4 K1A_5 1_555 1_555
O9_4 K1_5 1_555 1_555
O10A K1 1_555 1_555
O10_2 K2 1_555 1_555
O10A_2 K2 1_555 1_555
O10A_3 K1_5 1_555 1_555
O10_3 K1A_5 1_555 1_555
O11A K2 1_555 1_555
O11A_2 K2A 1_555 1_555
O11_2 K2A 1_555 1_555
S1A C3A 1_555 1_555
S2A C5A 1_555 1_555
H5A O11A 1_555 1_555
H5A_2 O11A_2 1_555 1_555
H5_2 O11_2 1_555 1_555
H6A O11A 1_555 1_555
H6A_2 O11A_2 1_555 1_555
H6_2 O11_2 1_555 1_555
K3 O3A 1_555 1_555
K3 O7A_2 1_555 1_555
C5 C6 1_555 1_555
O3 S1 1_555 1_555
O4 K1A 1_555 1_555
O6 K1A_2 1_555 1_555
O7 K2A_4 1_555 1_555
O7 K3_3 1_555 1_555
O10 K1A 1_555 1_555
O10 K2_3 1_555 1_555
O10 K2A_5 1_555 1_555
O11 K2A_4 1_555 1_555
K1A O3A 1_555 1_555
K1A O5_2 1_555 1_555
K1A_2 O9A_2 1_555 1_555
K1A_2 O10_2 1_555 1_555
K1_2 O9_3 1_555 1_555
K1_2 O10A_2 1_555 1_555
K1_3 O4A_2 1_555 1_555
K1_3 O5A_3 1_555 1_555
K2A O9A_4 1_555 1_555
K2A O9_4 1_555 1_555
K2A O10A_3 1_555 1_555
K2A O10_3 1_555 1_555
K2A_2 O9_2 1_555 1_555
K2A_2 O10A 1_555 1_555
K2_2 O9A 1_555 1_555
K2_2 O9_2 1_555 1_555
K2_2 O10A 1_555 1_555
K2A_3 O9A_2 1_555 1_555
K2A_3 O10_2 1_555 1_555
K2A_3 O10A_2 1_555 1_555
K2A_4 O6A_3 1_555 1_555
K2A_4 O11A 1_555 1_555
K2_3 O6_2 1_555 1_555
K2_3 O9A_3 1_555 1_555
K2A_5 O7_3 1_555 1_555
K2A_5 O9A_3 1_555 1_555
K2_4 O6_3 1_555 1_555
K2_4 O11A_2 1_555 1_555
K2_4 O11_2 1_555 1_555
K2_5 O9_4 1_555 1_555
K2_5 O10A_3 1_555 1_555
K2_5 O10_3 1_555 1_555
K3_2 O4A 1_555 1_555
K3_2 O5A_2 1_555 1_555
K3_2 O7_3 1_555 1_555
K3_4 O7A 1_555 1_555
C2A O10A 1_555 1_555
C5A C6A 1_555 1_555
N1A O9A 1_555 1_555
O2A S1A 1_555 1_555
O3A S1A 1_555 1_555
O4A S1A 1_555 1_555
O6A S2A 1_555 1_555
O7A S2A 1_555 1_555

#END
