
#######################################################################
#
#                 Cambridge Crystallographic Data Centre
#                                CCDC 
#
#######################################################################
#
# If this CIF has been generated from an entry in the Cambridge 
# Structural Database, then it will include bibliographic, chemical, 
# crystal, experimental, refinement or atomic coordinate data resulting 
# from the CCDC's data processing and validation procedures.
#
#######################################################################

data_RULBEG
_symmetry_cell_setting           monoclinic
_symmetry_space_group_name_H-M   'P n'
_symmetry_Int_Tables_number      7
_space_group_name_Hall           'P -2yac'
loop_
_symmetry_equiv_pos_site_id
_symmetry_equiv_pos_as_xyz
1 x,y,z
2 1/2+x,-y,1/2+z
_cell_length_a                   12.776(4)
_cell_length_b                   11.394(5)
_cell_length_c                   14.508(7)
_cell_angle_alpha                90
_cell_angle_beta                 95.215(5)
_cell_angle_gamma                90
_cell_volume                     2103.18
loop_
_atom_site_label
_atom_site_type_symbol
_atom_site_fract_x
_atom_site_fract_y
_atom_site_fract_z
Ag1 Ag 0.40238(4) 0.72923(3) 0.44282(4)
Ag2 Ag 0.28943(5) 0.63281(3) 0.63909(4)
Ag3 Ag 1.18895(5) 0.59326(4) 0.83494(4)
C1 C 0.3536(5) -0.1188(5) 0.6999(5)
H1 H 0.4009 -0.1601 0.7403
C2 C 0.3543(5) 0.0033(5) 0.7033(5)
H2 H 0.3992 0.0414 0.7477
C3 C 0.2893(6) 0.0689(4) 0.6417(6)
C4 C 0.2201(5) 0.0047(5) 0.5802(5)
H3 H 0.1722 0.0437 0.5389
C5 C 0.2231(5) -0.1168(6) 0.5813(5)
H4 H 0.1784 -0.1579 0.5385
C6 C 0.3700(6) 0.3832(6) 0.6819(5)
H5 H 0.4267 0.4238 0.7112
C7 C 0.2901(6) 0.1975(4) 0.6406(5)
C8 C 0.2070(6) 0.2609(6) 0.5981(6)
H6 H 0.1487 0.2215 0.5702
C9 C 0.2094(6) 0.3824(6) 0.5964(5)
H7 H 0.1538 0.4232 0.5654
C10 C 0.4740(6) 0.9784(5) 0.4940(5)
H8 H 0.5205 0.9372 0.5351
C11 C 0.4771(5) 1.0996(5) 0.4952(5)
H9 H 0.5238 1.1384 0.5377
C12 C 0.4105(6) 1.1635(4) 0.4330(5)
C13 C 0.3422(5) 1.1002(5) 0.3721(5)
H10 H 0.2962 1.1390 0.3290
C14 C 0.3429(5) 0.9807(5) 0.3758(5)
H11 H 0.2968 0.9396 0.3343
C15 C 0.4872(6) 1.4816(6) 0.4750(5)
H12 H 0.5443 1.5228 0.5032
C16 C 0.4910(6) 1.3587(5) 0.4760(5)
H13 H 0.5485 1.3202 0.5062
C17 C 0.4096(6) 1.2954(4) 0.4324(5)
C18 C 0.3254(6) 1.3575(5) 0.3873(5)
H14 H 0.2693 1.3183 0.3556
C19 C 0.3280(6) 1.4800(6) 0.3912(5)
H15 H 0.2722 1.5211 0.3609
C20 C 0.8639(5) 0.4391(5) 0.6336(4)
C21 C 0.8678(4) 0.5654(4) 0.6187(4)
C22 C 0.7855(6) 0.6381(4) 0.6337(5)
H16 H 0.7925 0.7185 0.6251
C23 C 0.6902(4) 0.5937(4) 0.6619(4)
C24 C 0.6824(5) 0.4737(4) 0.6746(4)
H17 H 0.6199 0.4419 0.6916
C25 C 0.7660(4) 0.4011(4) 0.6623(4)
C26 C 1.2350(6) -0.1569(5) 0.9089(5)
H18 H 1.2813 -0.1978 0.9504
C27 C 1.2339(5) -0.0375(5) 0.9168(5)
H19 H 1.2777 -0.0002 0.9624
C28 C 1.1670(5) 0.0277(4) 0.8562(4)
C29 C 1.1031(6) -0.0351(6) 0.7912(5)
H20 H 1.0563 0.0037 0.7488
C30 C 1.1101(5) -0.1565(6) 0.7903(5)
H21 H 1.0659 -0.1969 0.7468
C31 C 1.0989(7) 0.3456(6) 0.8004(6)
H22 H 1.0466 0.3870 0.7654
C32 C 1.0927(6) 0.2253(5) 0.8056(5)
H23 H 1.0355 0.1874 0.7745
C33 C 1.1676(6) 0.1598(4) 0.8547(5)
C34 C 1.2499(6) 0.2222(5) 0.9004(5)
H24 H 1.3030 0.1832 0.9364
C35 C 1.2524(7) 0.3415(6) 0.8920(6)
H25 H 1.3098 0.3810 0.9213
C36 C 0.3718(6) 0.2616(5) 0.6849(6)
H26 H 0.4281 0.2230 0.7168
N1 N 0.4076(5) 0.9190(4) 0.4369(5)
N2 N 0.4061(6) 1.5419(4) 0.4359(5)
N3 N 0.7497(4) 0.2776(4) 0.6814(4)
N4 N 1.1797(6) 0.4042(4) 0.8456(5)
N5 N 1.1760(5) -0.2194(4) 0.8475(4)
N6 N 0.2926(6) 0.4441(3) 0.6398(5)
N7 N 0.2885(6) -0.1781(3) 0.6419(5)
O1 O 0.6253(3) 0.7780(3) 0.7425(3)
O2 O 0.5509(3) 0.7353(3) 0.5859(3)
O3 O 0.5040(3) 0.6183(3) 0.7136(3)
O4 O 0.9653(3) 0.7518(3) 0.5712(3)
O5 O 1.0105(3) 0.5679(3) 0.5016(3)
O6 O 1.0670(3) 0.6064(3) 0.6622(3)
O7 O 0.6602(4) 0.2369(3) 0.6670(4)
O8 O 0.8241(4) 0.2193(4) 0.7135(4)
O9 O 0.9394(3) 0.3743(4) 0.6178(3)
S1 S 0.58592(13) 0.69012(13) 0.67705(12)
S2 S 0.98769(13) 0.62632(13) 0.58603(12)
O10 O 1.4007(5) 0.6147(5) 0.8835(5)
H27 H 1.439(7) 0.580(8) 0.929(5)
H28 H 1.433(8) 0.591(9) 0.841(5)
Ag1_2 Ag 0.40238(4) 1.72923(3) 0.44282(4)
Ag2_2 Ag 1.28943(5) 0.63281(3) 0.63909(4)
Ag2_3 Ag 0.28943(5) -0.36719(3) 0.63909(4)
Ag3_2 Ag 0.18895(5) 0.59326(4) 0.83494(4)
Ag3_3 Ag 1.18895(5) -0.40674(4) 0.83494(4)
N2_2 N 0.4061(6) 0.5419(4) 0.4359(5)
N5_2 N 1.1760(5) 0.7806(4) 0.8475(4)
N7_2 N 0.2885(6) 0.8219(3) 0.6419(5)
O11 O 0.5188(6) 0.1349(5) 0.8879(5)
H29 H 0.538(8) 0.064(5) 0.911(7)
H30 H 0.519(8) 0.160(8) 0.951(4)
O12 O 0.0479(6) 0.1015(4) 0.3922(4)
H31 H 0.067(8) 0.165(6) 0.362(6)
H32 H 0.020(9) 0.135(8) 0.437(6)
O13 O 0.3975(5) 0.0376(4) 0.1338(5)
H33 H 0.330(4) 0.064(8) 0.119(8)
H34 H 0.424(7) 0.115(6) 0.119(8)
O14 O 0.1889(5) 0.0155(4) 0.1541(5)
H35 H 0.155(7) 0.090(5) 0.159(7)
H36 H 0.176(8) -0.039(6) 0.188(7)
O15 O 0.4674(5) 0.8415(4) 0.0492(5)
H37 H 0.449(8) 0.774(4) 0.055(7)
H38 H 0.438(9) 0.887(6) 0.082(8)
O16 O 0.6611(6) 0.3184(5) 0.8925(5)
H39 H 0.638(7) 0.264(6) 0.860(7)
H40 H 0.601(6) 0.364(7) 0.878(8)
loop_
_geom_bond_atom_site_label_1
_geom_bond_atom_site_label_2
_geom_bond_site_symmetry_1
_geom_bond_site_symmetry_2
Ag1 N1 1_555 1_555
Ag2 N6 1_555 1_555
Ag3 N4 1_555 1_555
C1 H1 1_555 1_555
C2 C1 1_555 1_555
H2 C2 1_555 1_555
C3 C2 1_555 1_555
C4 C3 1_555 1_555
H3 C4 1_555 1_555
C5 C4 1_555 1_555
H4 C5 1_555 1_555
C6 H5 1_555 1_555
C7 C3 1_555 1_555
C8 C7 1_555 1_555
H6 C8 1_555 1_555
C9 C8 1_555 1_555
H7 C9 1_555 1_555
C10 H8 1_555 1_555
C11 C10 1_555 1_555
H9 C11 1_555 1_555
C12 C11 1_555 1_555
C13 C12 1_555 1_555
H10 C13 1_555 1_555
C14 C13 1_555 1_555
H11 C14 1_555 1_555
C15 H12 1_555 1_555
C16 C15 1_555 1_555
H13 C16 1_555 1_555
C17 C12 1_555 1_555
C18 C17 1_555 1_555
H14 C18 1_555 1_555
C19 C18 1_555 1_555
H15 C19 1_555 1_555
C20 C21 1_555 1_555
C21 C22 1_555 1_555
C22 H16 1_555 1_555
C23 C22 1_555 1_555
C24 C23 1_555 1_555
H17 C24 1_555 1_555
C25 C20 1_555 1_555
C26 H18 1_555 1_555
C27 C26 1_555 1_555
H19 C27 1_555 1_555
C28 C27 1_555 1_555
C29 C28 1_555 1_555
H20 C29 1_555 1_555
C30 C29 1_555 1_555
H21 C30 1_555 1_555
C31 H22 1_555 1_555
C32 C31 1_555 1_555
H23 C32 1_555 1_555
C33 C28 1_555 1_555
C34 C33 1_555 1_555
H24 C34 1_555 1_555
C35 C34 1_555 1_555
H25 C35 1_555 1_555
C36 C6 1_555 1_555
H26 C36 1_555 1_555
N1 C10 1_555 1_555
N2 C15 1_555 1_555
N3 C25 1_555 1_555
N4 C31 1_555 1_555
N5 C26 1_555 1_555
N6 C6 1_555 1_555
N7 C1 1_555 1_555
O1 S1 1_555 1_555
O2 Ag1 1_555 1_555
O3 Ag2 1_555 1_555
O4 S2 1_555 1_555
O5 S2 1_555 1_555
O6 Ag3 1_555 1_555
O7 N3 1_555 1_555
O8 N3 1_555 1_555
O9 C20 1_555 1_555
S1 C23 1_555 1_555
S2 C21 1_555 1_555
O10 Ag3 1_555 1_555
H27 O10 1_555 1_555
H28 O10 1_555 1_555
O11 H29 1_555 1_555
H30 O11 1_555 1_555
O12 H31 1_555 1_555
H32 O12 1_555 1_555
O13 H33 1_555 1_555
H34 O13 1_555 1_555
O14 H35 1_555 1_555
H36 O14 1_555 1_555
O15 H37 1_555 1_555
H38 O15 1_555 1_555
O16 H39 1_555 1_555
H40 O16 1_555 1_555
Ag1_2 N2 1_555 1_555
Ag2_2 Ag3 1_555 1_555
Ag2_3 N7 1_555 1_555
Ag3_2 Ag2 1_555 1_555
Ag3_3 N5 1_555 1_555
N2_2 Ag1 1_555 1_555
N5_2 Ag3 1_555 1_555
N7_2 Ag2 1_555 1_555
C5 N7 1_555 1_555
C7 C36 1_555 1_555
C9 N6 1_555 1_555
C14 N1 1_555 1_555
C16 C17 1_555 1_555
C19 N2 1_555 1_555
C24 C25 1_555 1_555
C30 N5 1_555 1_555
C32 C33 1_555 1_555
C35 N4 1_555 1_555
O2 S1 1_555 1_555
O3 S1 1_555 1_555
O6 S2 1_555 1_555

#END
