
#######################################################################
#
#                 Cambridge Crystallographic Data Centre
#                                CCDC 
#
#######################################################################
#
# If this CIF has been generated from an entry in the Cambridge 
# Structural Database, then it will include bibliographic, chemical, 
# crystal, experimental, refinement or atomic coordinate data resulting 
# from the CCDC's data processing and validation procedures.
#
#######################################################################

data_RULBIK
_symmetry_cell_setting           monoclinic
_symmetry_space_group_name_H-M   'C c'
_symmetry_Int_Tables_number      9
_space_group_name_Hall           'C -2yc'
loop_
_symmetry_equiv_pos_site_id
_symmetry_equiv_pos_as_xyz
1 x,y,z
2 x,-y,1/2+z
3 1/2+x,1/2+y,z
4 1/2+x,1/2-y,1/2+z
_cell_length_a                   15.597(3)
_cell_length_b                   14.069(5)
_cell_length_c                   23.370(8)
_cell_angle_alpha                90
_cell_angle_beta                 106.072(5)
_cell_angle_gamma                90
_cell_volume                     4927.74
loop_
_atom_site_label
_atom_site_type_symbol
_atom_site_fract_x
_atom_site_fract_y
_atom_site_fract_z
Ag1 Ag 0.99134(17) 0.99940(15) 0.40109(11)
Ag2 Ag 1.64445(7) 0.63568(10) 0.55929(5)
Ag3 Ag 1.33874(7) 0.63550(11) 0.74379(5)
C1 C 1.3906(6) 0.8141(5) 0.5580(4)
C2 C 1.3355(6) 0.8196(5) 0.5001(4)
H1 H 1.3136 0.7643 0.4794
C3 C 1.3131(6) 0.9077(6) 0.4733(3)
C4 C 1.3458(6) 0.9903(5) 0.5043(5)
H2 H 1.3308 1.0493 0.4863
C5 C 1.4010(6) 0.9848(5) 0.5622(5)
C6 C 1.4234(7) 0.8967(6) 0.5891(4)
C7 C 1.6667(13) 0.8506(13) 0.5989(8)
H3 H 1.6220 0.8519 0.6182
C8 C 1.7583(11) 0.8139(13) 0.5416(7)
H4 H 1.7785 0.7834 0.5125
C9 C 1.7816(12) 0.8976(11) 0.5576(9)
H5 H 1.8275 0.9335 0.5503
C10 C 1.7101(12) 1.0244(11) 0.6079(7)
H6 H 1.6853 1.0228 0.6416
H7 H 1.7685 1.0537 0.6211
C11 C 1.6576(12) 1.0792(12) 0.5653(8)
H8 H 1.5984 1.0515 0.5528
H9 H 1.6813 1.0801 0.5310
C12 C 1.6503(13) 1.1836(13) 0.5865(7)
H10 H 1.6157 1.1856 0.6151
H11 H 1.7092 1.2093 0.6051
C13 C 1.6068(13) 1.2378(12) 0.5343(8)
H12 H 1.5530 1.2048 0.5126
H13 H 1.6459 1.2418 0.5085
C14 C 1.5354(10) 1.3683(10) 0.5859(7)
H14 H 1.5011 1.3315 0.6043
C15 C 1.5482(11) 1.4642(10) 0.5911(7)
H15 H 1.5234 1.5035 0.6144
C16 C 1.6316(12) 1.4211(11) 0.5383(7)
H16 H 1.6777 1.4199 0.5201
C17 C 1.3586(12) 0.4144(16) 0.7700(9)
H17 H 1.3155 0.4134 0.7906
C18 C 1.4593(11) 0.4648(10) 0.7326(7)
H18 H 1.4992 0.5027 0.7198
C19 C 1.4640(10) 0.3693(10) 0.7388(7)
H19 H 1.5067 0.3289 0.7310
C20 C 1.3948(13) 0.2472(12) 0.7773(8)
H20 H 1.4549 0.2219 0.7904
H21 H 1.3697 0.2458 0.8109
C21 C 1.3366(15) 0.1824(15) 0.7259(9)
H22 H 1.3606 0.1864 0.6918
H23 H 1.2763 0.2073 0.7137
C22 C 1.3333(14) 0.0840(13) 0.7421(9)
H24 H 1.3940 0.0615 0.7581
H25 H 1.3044 0.0802 0.7738
C23 C 1.2810(16) 0.0105(15) 0.6881(10)
H26 H 1.3165 0.0034 0.6602
H27 H 1.2243 0.0385 0.6668
C24 C 1.2051(13) -0.1001(18) 0.7408(9)
H28 H 1.1709 -0.0562 0.7546
C25 C 1.2035(12) -0.1963(16) 0.7492(9)
H29 H 1.1616 -0.2336 0.7605
C26 C 1.3065(12) -0.1582(11) 0.7134(7)
H30 H 1.3560 -0.1647 0.6989
C27 C 1.0016(14) 0.2229(11) 0.4272(9)
H31 H 0.9504 0.2273 0.4401
C28 C 1.1101(11) 0.1665(10) 0.3914(8)
H32 H 1.1491 0.1269 0.3789
C29 C 1.1185(12) 0.2693(10) 0.3944(8)
H33 H 1.1569 0.3084 0.3810
C30 C 1.0372(9) 0.3857(9) 0.4447(6)
H34 H 1.0919 0.4177 0.4657
H35 H 1.0010 0.3765 0.4720
C31 C 0.9835(10) 0.4477(10) 0.3880(7)
H36 H 1.0144 0.4460 0.3572
H37 H 0.9241 0.4220 0.3716
C32 C 0.9778(11) 0.5502(11) 0.4088(7)
H38 H 0.9473 0.5511 0.4397
H39 H 1.0375 0.5751 0.4254
C33 C 0.9325(11) 0.6069(11) 0.3620(7)
H40 H 0.8727 0.5815 0.3465
H41 H 0.9619 0.6019 0.3306
C34 C 0.8580(14) 0.7414(14) 0.3965(9)
H42 H 0.8068 0.7066 0.3953
C35 C 0.8726(13) 0.8237(16) 0.4181(9)
H43 H 0.8445 0.8539 0.4433
C36 C 0.9674(10) 0.7890(10) 0.3731(6)
H44 H 1.0143 0.7928 0.3558
N1 N 1.7011(13) 0.7690(12) 0.5692(9)
N2 N 1.7214(10) 0.9226(11) 0.5889(6)
N3 N 1.5825(8) 1.3369(8) 0.5487(5)
N4 N 1.6030(9) 1.4953(9) 0.5572(7)
N5 N 1.3911(13) 0.4942(12) 0.7473(7)
N6 N 1.3981(13) 0.3465(12) 0.7575(9)
N7 N 0.9405(11) 0.8597(8) 0.3958(7)
N8 N 0.9249(9) 0.7093(9) 0.3753(5)
N9 N 1.0574(11) 0.2927(10) 0.4211(6)
N10 N 1.0426(13) 0.1360(11) 0.4080(8)
N11 N 1.2659(12) -0.0774(13) 0.7082(7)
N12 N 1.2827(10) -0.2231(8) 0.7361(6)
N13 N 1.4328(7) 1.0758(7) 0.5951(7)
O1 O 1.4923(16) 0.8893(5) 0.6530(9)
O2 O 1.4148(9) 1.1435(7) 0.5593(7)
O3 O 1.5025(14) 1.0767(8) 0.6533(9)
O4 O 1.2761(10) 0.8321(8) 0.3683(5)
O5 O 1.1530(9) 0.9076(9) 0.4004(5)
O6 O 1.2598(8) 1.0086(7) 0.3773(5)
O7 O 1.5102(8) 0.6922(7) 0.5959(6)
O8 O 1.3952(9) 0.6980(7) 0.6478(6)
O9 O 1.3723(8) 0.6371(6) 0.5464(6)
S1 S 1.4170(3) 0.7009(2) 0.5894(2)
S2 S 1.2431(10) 0.9241(10) 0.3989(6)
Ag1_2 Ag 0.99134(17) -0.00060(15) 0.40109(11)
Ag2_2 Ag 1.64445(7) 1.63568(10) 0.55929(5)
Ag3_2 Ag 1.33874(7) -0.36450(11) 0.74379(5)
N4_2 N 1.6030(9) 0.4953(9) 0.5572(7)
N10_2 N 1.0426(13) 1.1360(11) 0.4080(8)
N12_2 N 1.2827(10) 0.7769(8) 0.7361(6)
O10 O 0.2391(5) 0.5864(5) 0.4029(3)
H45 H 0.285(4) 0.561(5) 0.430(2)
H46 H 0.220(5) 0.631(4) 0.422(3)
loop_
_geom_bond_atom_site_label_1
_geom_bond_atom_site_label_2
_geom_bond_site_symmetry_1
_geom_bond_site_symmetry_2
Ag1 N7 1_555 1_555
Ag2 N1 1_555 1_555
Ag3 N5 1_555 1_555
C1 C2 1_555 1_555
C2 H1 1_555 1_555
C3 C2 1_555 1_555
C4 C3 1_555 1_555
H2 C4 1_555 1_555
C5 C4 1_555 1_555
C6 C1 1_555 1_555
C7 H3 1_555 1_555
C8 H4 1_555 1_555
C9 C8 1_555 1_555
H5 C9 1_555 1_555
C10 H6 1_555 1_555
H7 C10 1_555 1_555
C11 C10 1_555 1_555
H8 C11 1_555 1_555
H9 C11 1_555 1_555
C12 C11 1_555 1_555
H10 C12 1_555 1_555
H11 C12 1_555 1_555
C13 C12 1_555 1_555
H12 C13 1_555 1_555
H13 C13 1_555 1_555
C14 H14 1_555 1_555
C15 C14 1_555 1_555
H15 C15 1_555 1_555
C16 H16 1_555 1_555
C17 H17 1_555 1_555
C18 H18 1_555 1_555
C19 C18 1_555 1_555
H19 C19 1_555 1_555
C20 H20 1_555 1_555
H21 C20 1_555 1_555
C21 C20 1_555 1_555
H22 C21 1_555 1_555
H23 C21 1_555 1_555
C22 C21 1_555 1_555
H24 C22 1_555 1_555
H25 C22 1_555 1_555
C23 C22 1_555 1_555
H26 C23 1_555 1_555
H27 C23 1_555 1_555
C24 H28 1_555 1_555
C25 C24 1_555 1_555
H29 C25 1_555 1_555
C26 H30 1_555 1_555
C27 H31 1_555 1_555
C28 H32 1_555 1_555
C29 C28 1_555 1_555
H33 C29 1_555 1_555
C30 H34 1_555 1_555
H35 C30 1_555 1_555
C31 C30 1_555 1_555
H36 C31 1_555 1_555
H37 C31 1_555 1_555
C32 C31 1_555 1_555
H38 C32 1_555 1_555
H39 C32 1_555 1_555
C33 C32 1_555 1_555
H40 C33 1_555 1_555
H41 C33 1_555 1_555
C34 H42 1_555 1_555
C35 C34 1_555 1_555
H43 C35 1_555 1_555
C36 H44 1_555 1_555
N1 C7 1_555 1_555
N2 C7 1_555 1_555
N3 C13 1_555 1_555
N4 C15 1_555 1_555
N5 C17 1_555 1_555
N6 C17 1_555 1_555
N7 C35 1_555 1_555
N8 C33 1_555 1_555
N9 C27 1_555 1_555
N10 C27 1_555 1_555
N11 C23 1_555 1_555
N12 C25 1_555 1_555
N13 C5 1_555 1_555
O1 C6 1_555 1_555
O2 N13 1_555 1_555
O3 N13 1_555 1_555
O4 S2 1_555 1_555
O5 Ag1 1_555 1_555
O6 S2 1_555 1_555
O7 Ag2 1_555 1_555
O8 Ag3 1_555 1_555
O9 S1 1_555 1_555
S1 C1 1_555 1_555
S2 C3 1_555 1_555
O10 H45 1_555 1_555
H46 O10 1_555 1_555
Ag1_2 N10 1_555 1_555
Ag2_2 N4 1_555 1_555
Ag3_2 N12 1_555 1_555
N4_2 Ag2 1_555 1_555
N10_2 Ag1 1_555 1_555
N12_2 Ag3 1_555 1_555
C5 C6 1_555 1_555
C8 N1 1_555 1_555
C9 N2 1_555 1_555
C10 N2 1_555 1_555
C14 N3 1_555 1_555
C16 N3 1_555 1_555
C16 N4 1_555 1_555
C18 N5 1_555 1_555
C19 N6 1_555 1_555
C20 N6 1_555 1_555
C24 N11 1_555 1_555
C26 N11 1_555 1_555
C26 N12 1_555 1_555
C28 N10 1_555 1_555
C29 N9 1_555 1_555
C30 N9 1_555 1_555
C34 N8 1_555 1_555
C36 N7 1_555 1_555
C36 N8 1_555 1_555
O5 S2 1_555 1_555
O7 S1 1_555 1_555
O8 S1 1_555 1_555

#END
