
#######################################################################
#
#                 Cambridge Crystallographic Data Centre
#                                CCDC 
#
#######################################################################
#
# If this CIF has been generated from an entry in the Cambridge 
# Structural Database, then it will include bibliographic, chemical, 
# crystal, experimental, refinement or atomic coordinate data resulting 
# from the CCDC's data processing and validation procedures.
#
#######################################################################

data_RULDUY
_symmetry_cell_setting           monoclinic
_symmetry_space_group_name_H-M   'P 21/n'
_symmetry_Int_Tables_number      14
_space_group_name_Hall           '-P 2yn'
loop_
_symmetry_equiv_pos_site_id
_symmetry_equiv_pos_as_xyz
1 x,y,z
2 1/2-x,1/2+y,1/2-z
3 -x,-y,-z
4 1/2+x,1/2-y,1/2+z
_cell_length_a                   7.63890(10)
_cell_length_b                   19.6763(3)
_cell_length_c                   11.2861(2)
_cell_angle_alpha                90
_cell_angle_beta                 98.9580(10)
_cell_angle_gamma                90
_cell_volume                     1675.67
loop_
_atom_site_label
_atom_site_type_symbol
_atom_site_fract_x
_atom_site_fract_y
_atom_site_fract_z
C1 C 1.0065(3) 0.25479(11) 0.02352(17)
H1 H 0.9045 0.2632 -0.0311
C2 C 1.1649(2) 0.28259(10) 0.00029(16)
C3 C 1.1610(3) 0.31997(10) -0.11697(17)
C4 C 1.3181(2) 0.27095(10) 0.08307(16)
C5 C 1.4948(3) 0.30160(10) 0.06736(17)
C6 C 1.3010(3) 0.23319(11) 0.18403(18)
H2 H 1.3998 0.2254 0.2418
C7 C 1.1382(3) 0.20691(11) 0.19966(18)
H3 H 1.1304 0.1815 0.2682
C8 C 0.5411(3) 0.16216(12) -0.1162(2)
H4 H 0.5066 0.2074 -0.1133
C9 C 0.4921(3) 0.12577(14) -0.2225(2)
H5 H 0.4258 0.1468 -0.2885
C10 C 0.5411(3) 0.05955(13) -0.2297(2)
H6 H 0.5106 0.0354 -0.3008
C11 C 0.6389(3) 0.02783(12) -0.1279(2)
C12 C 0.6819(3) 0.06798(10) -0.02444(18)
C13 C 0.7776(3) 0.03894(10) 0.08271(18)
C14 C 0.8306(3) -0.02919(11) 0.0846(2)
C15 C 0.6937(3) -0.04190(13) -0.1235(2)
H7 H 0.6666 -0.0690 -0.1915
C16 C 0.7849(3) -0.06899(12) -0.0215(2)
H8 H 0.8183 -0.1145 -0.0207
C17 C 0.9240(3) -0.05406(12) 0.1934(2)
H9 H 0.9624 -0.0990 0.1989
C18 C 0.9580(3) -0.01211(12) 0.2906(2)
H10 H 1.0212 -0.0280 0.3624
C19 C 0.8970(3) 0.05513(11) 0.28129(19)
H11 H 0.9182 0.0830 0.3486
Cu1 Cu 0.72289(3) 0.175934(12) 0.14530(2)
N1 N 0.9916(2) 0.21668(9) 0.11979(14)
N2 N 0.6355(2) 0.13443(9) -0.01874(15)
N3 N 0.8101(2) 0.08049(9) 0.17981(15)
O1 O 1.2623(2) 0.29543(8) -0.18592(13)
O2 O 1.0527(2) 0.36605(8) -0.14240(14)
O3 O 1.4944(2) 0.36032(8) 0.02967(16)
O4 O 1.63312(18) 0.26628(7) 0.09541(15)
Cu1C Cu 1.22289(3) 0.324066(12) -0.35470(2)
Cu1_2 Cu 1.72289(3) 0.175934(12) 0.14530(2)
O1C O 0.7623(2) 0.20457(8) 0.31408(13)
O4_2 O 0.63312(18) 0.26628(7) 0.09541(15)
O5 O 0.8020(4) 0.43550(15) 0.9862(3)
H12 H 0.736(5) 0.408(2) 0.923(4)
H13 H 0.920(3) 0.433(2) 0.969(4)
loop_
_geom_bond_atom_site_label_1
_geom_bond_atom_site_label_2
_geom_bond_site_symmetry_1
_geom_bond_site_symmetry_2
C1 H1 1_555 1_555
C2 C1 1_555 1_555
C3 C2 1_555 1_555
C4 C2 1_555 1_555
C5 C4 1_555 1_555
C6 C4 1_555 1_555
H2 C6 1_555 1_555
C7 C6 1_555 1_555
H3 C7 1_555 1_555
C8 H4 1_555 1_555
C9 C8 1_555 1_555
H5 C9 1_555 1_555
C10 C9 1_555 1_555
H6 C10 1_555 1_555
C11 C10 1_555 1_555
C12 C11 1_555 1_555
C13 C12 1_555 1_555
C14 C13 1_555 1_555
C15 C11 1_555 1_555
H7 C15 1_555 1_555
C16 C14 1_555 1_555
H8 C16 1_555 1_555
C17 C14 1_555 1_555
H9 C17 1_555 1_555
C18 C17 1_555 1_555
H10 C18 1_555 1_555
C19 C18 1_555 1_555
H11 C19 1_555 1_555
Cu1 N1 1_555 1_555
N1 C1 1_555 1_555
N2 C8 1_555 1_555
N3 C13 1_555 1_555
O1 C3 1_555 1_555
O2 C3 1_555 1_555
O3 C5 1_555 1_555
O4 C5 1_555 1_555
O5 H12 1_555 1_555
H13 O5 1_555 1_555
Cu1C O1 1_555 1_555
Cu1_2 O4 1_555 1_555
O1C Cu1 1_555 1_555
O4_2 Cu1 1_555 1_555
C7 N1 1_555 1_555
C12 N2 1_555 1_555
C15 C16 1_555 1_555
C19 N3 1_555 1_555
Cu1 N2 1_555 1_555
Cu1 N3 1_555 1_555

#END
