
#######################################################################
#
#                 Cambridge Crystallographic Data Centre
#                                CCDC 
#
#######################################################################
#
# If this CIF has been generated from an entry in the Cambridge 
# Structural Database, then it will include bibliographic, chemical, 
# crystal, experimental, refinement or atomic coordinate data resulting 
# from the CCDC's data processing and validation procedures.
#
#######################################################################

data_RULDOT01
_symmetry_cell_setting           triclinic
_symmetry_space_group_name_H-M   'P -1'
_symmetry_Int_Tables_number      2
_space_group_name_Hall           '-P 1'
loop_
_symmetry_equiv_pos_site_id
_symmetry_equiv_pos_as_xyz
1 x,y,z
2 -x,-y,-z
_cell_length_a                   10.1283(14)
_cell_length_b                   13.8996(13)
_cell_length_c                   14.2922(18)
_cell_angle_alpha                74.962(8)
_cell_angle_beta                 87.263(9)
_cell_angle_gamma                79.420(8)
_cell_volume                     1910.11
loop_
_atom_site_label
_atom_site_type_symbol
_atom_site_fract_x
_atom_site_fract_y
_atom_site_fract_z
Rh1 Rh 0.51326(4) 0.04707(3) 0.55783(3)
Rh2 Rh 0.50948(4) 0.44496(3) 0.94637(3)
F1 F 0.0994(5) 0.2481(4) 0.4566(5)
F2 F 0.0789(5) 0.1739(5) 0.3544(4)
F3 F 0.0347(5) 0.1107(5) 0.4982(5)
F4 F 0.1861(4) -0.1448(4) 0.7068(3)
F5 F 0.3579(4) -0.2100(3) 0.7928(3)
F6 F 0.3074(7) -0.2772(4) 0.6875(4)
F7 F 0.0302(4) 0.6026(4) 0.9739(4)
F8 F 0.0958(4) 0.7217(3) 0.8753(4)
F9 F 0.0825(5) 0.5930(6) 0.8313(5)
F10 F 0.6373(4) 0.7120(3) 0.7058(2)
F11 F 0.6542(4) 0.7946(3) 0.8093(3)
F12 F 0.8054(4) 0.6683(3) 0.7996(3)
O1 O 0.3246(4) 0.1268(3) 0.5212(3)
O2 O 0.3015(4) 0.0405(3) 0.4118(3)
O3 O 0.4275(4) -0.0566(3) 0.6578(2)
O4 O 0.4027(4) -0.1449(3) 0.5497(3)
O5 O 0.3208(4) 0.5115(3) 0.8992(3)
O6 O 0.3030(4) 0.6162(3) 0.9987(3)
O7 O 0.5894(4) 0.5516(3) 0.8456(3)
O8 O 0.5723(4) 0.6548(2) 0.9471(3)
N1 N 0.5325(5) 0.1263(3) 0.6689(3)
N2 N 0.5210(5) 0.3366(3) 0.8573(3)
C1 C 0.2639(6) 0.1027(4) 0.4604(4)
C2 C 0.1174(6) 0.1601(5) 0.4426(5)
C3 C 0.3894(5) -0.1256(4) 0.6310(4)
C4 C 0.3098(7) -0.1939(4) 0.7062(4)
C5 C 0.2619(5) 0.5803(4) 0.9349(4)
C6 C 0.1157(6) 0.6245(5) 0.9020(5)
C7 C 0.6032(5) 0.6307(4) 0.8698(4)
C8 C 0.6753(6) 0.7032(4) 0.7953(4)
C9 C 0.5273(5) 0.1426(3) 0.7418(4)
C10 C 0.5184(5) 0.1587(3) 0.8372(3)
C11 C 0.5218(5) 0.2590(4) 0.8463(4)
C12 C 0.5083(5) 0.0794(4) 0.9176(3)
C13 C 0.4983(5) 0.0955(4) 1.0144(4)
C14 C 0.4915(5) 0.0191(3) 1.0919(4)
H1 H 0.49662 0.16148 1.02233
H2 H 0.48638 0.03112 1.15459
N1A N 0.4675(5) -0.1263(3) 1.3311(3)
N2A N 0.4790(5) -0.3366(3) 1.1427(3)
C9A C 0.4727(5) -0.1426(3) 1.2582(4)
C10A C 0.4816(5) -0.1587(3) 1.1628(3)
C11A C 0.4782(5) -0.2590(4) 1.1537(4)
C12A C 0.4917(5) -0.0794(4) 1.0824(3)
C13A C 0.5017(5) -0.0955(4) 0.9856(4)
C14A C 0.5085(5) -0.0191(3) 0.9081(4)
H1A H 0.50338 -0.16148 0.97767
H2A H 0.51362 -0.03112 0.84541
Rh1A Rh 0.48674(4) -0.04707(3) 0.44217(3)
F1A F 0.9006(5) -0.2481(4) 0.5434(5)
F2A F 0.9211(5) -0.1739(5) 0.6456(4)
F3A F 0.9653(5) -0.1107(5) 0.5018(5)
F4A F 0.8139(4) 0.1448(4) 0.2932(3)
F5A F 0.6421(4) 0.2100(3) 0.2072(3)
F6A F 0.6926(7) 0.2772(4) 0.3125(4)
O1A O 0.6754(4) -0.1268(3) 0.4788(3)
O2A O 0.6985(4) -0.0405(3) 0.5882(3)
O3A O 0.5725(4) 0.0566(3) 0.3422(2)
O4A O 0.5973(4) 0.1449(3) 0.4503(3)
C1A C 0.7361(6) -0.1027(4) 0.5396(4)
C2A C 0.8826(6) -0.1601(5) 0.5574(5)
C3A C 0.6106(5) 0.1256(4) 0.3690(4)
C4A C 0.6902(7) 0.1939(4) 0.2938(4)
Rh2A Rh 0.49052(4) 0.55504(3) 1.05363(3)
F7A F 0.9698(4) 0.3974(4) 1.0261(4)
F8A F 0.9042(4) 0.2783(3) 1.1247(4)
F9A F 0.9175(5) 0.4070(6) 1.1687(5)
F10A F 0.3627(4) 0.2880(3) 1.2942(2)
F11A F 0.3458(4) 0.2054(3) 1.1907(3)
F12A F 0.1946(4) 0.3317(3) 1.2004(3)
O5A O 0.6792(4) 0.4885(3) 1.1008(3)
O6A O 0.6970(4) 0.3838(3) 1.0013(3)
O7A O 0.4106(4) 0.4484(3) 1.1544(3)
O8A O 0.4277(4) 0.3452(2) 1.0529(3)
C5A C 0.7381(5) 0.4197(4) 1.0651(4)
C6A C 0.8843(6) 0.3755(5) 1.0980(5)
C7A C 0.3968(5) 0.3693(4) 1.1302(4)
C8A C 0.3247(6) 0.2968(4) 1.2047(4)
Rh1A_2 Rh 0.48674(4) -0.04707(3) 1.44217(3)
Rh2A_2 Rh 0.49052(4) -0.44496(3) 1.05363(3)
N1A_2 N 0.4675(5) -0.1263(3) 0.3311(3)
N2A_2 N 0.4790(5) 0.6634(3) 1.1427(3)
C15 C 0.1929(7) 0.2707(8) 0.7792(7)
C16 C 0.1781(7) 0.2545(7) 0.8784(8)
C17 C 0.1693(6) 0.1544(6) 0.9346(5)
C18 C 0.1536(6) 0.1310(6) 1.0352(6)
C19 C 0.1541(6) 0.0304(6) 1.0879(6)
C20 C 0.1429(9) 0.0083(11) 1.1899(7)
C21 C 0.1424(11) -0.0854(11) 1.2407(10)
C22 C 0.1503(8) -0.1589(10) 1.1916(11)
C23 C 0.1616(7) -0.1465(6) 1.0884(8)
C24 C 0.1636(6) -0.0481(7) 1.0362(6)
C25 C 0.1717(6) -0.0227(6) 0.9375(6)
C26 C 0.1774(6) 0.0733(6) 0.8849(5)
C27 C 0.1939(7) 0.1029(8) 0.7831(7)
C28 C 0.1988(8) 0.1963(9) 0.7330(8)
H3 H 0.19922 0.33694 0.74168
H4 H 0.17384 0.30839 0.90849
H5 H 0.14257 0.18327 1.06809
H6 H 0.13568 0.06106 1.22188
H7 H 0.13685 -0.10165 1.30941
H8 H 0.14807 -0.2256 1.22994
H9 H 0.16717 -0.2011 1.05904
H10 H 0.17351 -0.07396 0.90426
H11 H 0.20202 0.05214 0.74869
H12 H 0.20637 0.21146 0.66438
loop_
_geom_bond_atom_site_label_1
_geom_bond_atom_site_label_2
_geom_bond_site_symmetry_1
_geom_bond_site_symmetry_2
Rh1 O1 1_555 1_555
Rh2 O5 1_555 1_555
F1 C2 1_555 1_555
F2 C2 1_555 1_555
F3 C2 1_555 1_555
F4 C4 1_555 1_555
F5 C4 1_555 1_555
F6 C4 1_555 1_555
F7 C6 1_555 1_555
F8 C6 1_555 1_555
F9 C6 1_555 1_555
F10 C8 1_555 1_555
F11 C8 1_555 1_555
F12 C8 1_555 1_555
O1 C1 1_555 1_555
O2 C1 1_555 1_555
O3 Rh1 1_555 1_555
O4 C3 1_555 1_555
O5 C5 1_555 1_555
O6 C5 1_555 1_555
O7 Rh2 1_555 1_555
O8 C7 1_555 1_555
N1 Rh1 1_555 1_555
N2 Rh2 1_555 1_555
C1 C2 1_555 1_555
C3 O3 1_555 1_555
C4 C3 1_555 1_555
C5 C6 1_555 1_555
C7 O7 1_555 1_555
C8 C7 1_555 1_555
C9 N1 1_555 1_555
C10 C9 1_555 1_555
C11 N2 1_555 1_555
C12 C10 1_555 1_555
C13 C12 1_555 1_555
C14 C13 1_555 1_555
H1 C13 1_555 1_555
H2 C14 1_555 1_555
C15 C16 1_555 1_555
C16 C17 1_555 1_555
C17 C18 1_555 1_555
C18 C19 1_555 1_555
C19 C20 1_555 1_555
C20 C21 1_555 1_555
C21 C22 1_555 1_555
C22 C23 1_555 1_555
C23 C24 1_555 1_555
C24 C19 1_555 1_555
C25 C24 1_555 1_555
C26 C17 1_555 1_555
C27 C26 1_555 1_555
C28 C15 1_555 1_555
H3 C15 1_555 1_555
H4 C16 1_555 1_555
H5 C18 1_555 1_555
H6 C20 1_555 1_555
H7 C21 1_555 1_555
H8 C22 1_555 1_555
H9 C23 1_555 1_555
H10 C25 1_555 1_555
H11 C27 1_555 1_555
H12 C28 1_555 1_555
N1A C9A 1_555 1_555
N2A C11A 1_555 1_555
C9A C10A 1_555 1_555
C10A C11A 1_555 1_555
C12A C14 1_555 1_555
C13A C12A 1_555 1_555
C14A C12 1_555 1_555
H1A C13A 1_555 1_555
H2A C14A 1_555 1_555
Rh1A Rh1 1_555 1_555
F1A C2A 1_555 1_555
F2A C2A 1_555 1_555
F3A C2A 1_555 1_555
F4A C4A 1_555 1_555
F5A C4A 1_555 1_555
F6A C4A 1_555 1_555
O1A Rh1A 1_555 1_555
O2A Rh1 1_555 1_555
O3A Rh1A 1_555 1_555
O4A Rh1 1_555 1_555
C1A O1A 1_555 1_555
C2A C1A 1_555 1_555
C3A O3A 1_555 1_555
C4A C3A 1_555 1_555
Rh2A Rh2 1_555 1_555
F7A C6A 1_555 1_555
F8A C6A 1_555 1_555
F9A C6A 1_555 1_555
F10A C8A 1_555 1_555
F11A C8A 1_555 1_555
F12A C8A 1_555 1_555
O5A Rh2A 1_555 1_555
O6A Rh2 1_555 1_555
O7A Rh2A 1_555 1_555
O8A Rh2 1_555 1_555
C5A O5A 1_555 1_555
C6A C5A 1_555 1_555
C7A O7A 1_555 1_555
C8A C7A 1_555 1_555
Rh1A_2 N1A 1_555 1_555
Rh2A_2 N2A 1_555 1_555
N1A_2 Rh1A 1_555 1_555
N2A_2 Rh2A 1_555 1_555
O2 Rh1A 1_555 1_555
O4 Rh1A 1_555 1_555
O6 Rh2A 1_555 1_555
O8 Rh2A 1_555 1_555
C10 C11 1_555 1_555
C25 C26 1_555 1_555
C27 C28 1_555 1_555
C10A C12A 1_555 1_555
C13A C14A 1_555 1_555
O2A C1A 1_555 1_555
O4A C3A 1_555 1_555
O6A C5A 1_555 1_555
O8A C7A 1_555 1_555

#END
