
#######################################################################
#
#                 Cambridge Crystallographic Data Centre
#                                CCDC 
#
#######################################################################
#
# If this CIF has been generated from an entry in the Cambridge 
# Structural Database, then it will include bibliographic, chemical, 
# crystal, experimental, refinement or atomic coordinate data resulting 
# from the CCDC's data processing and validation procedures.
#
#######################################################################

data_RULDIM
_symmetry_cell_setting           orthorhombic
_symmetry_space_group_name_H-M   'P c c n'
_symmetry_Int_Tables_number      56
_space_group_name_Hall           '-P 2ab 2ac'
loop_
_symmetry_equiv_pos_site_id
_symmetry_equiv_pos_as_xyz
1 x,y,z
2 1/2-x,1/2-y,z
3 1/2+x,-y,1/2-z
4 -x,1/2+y,1/2-z
5 -x,-y,-z
6 1/2+x,1/2+y,-z
7 1/2-x,y,1/2+z
8 x,1/2-y,1/2+z
_cell_length_a                   10.7461(15)
_cell_length_b                   20.064(3)
_cell_length_c                   13.384(2)
_cell_angle_alpha                90
_cell_angle_beta                 90
_cell_angle_gamma                90
_cell_volume                     2885.72
loop_
_atom_site_label
_atom_site_type_symbol
_atom_site_fract_x
_atom_site_fract_y
_atom_site_fract_z
Cu1 Cu 0.2500 0.7500 0.66274(4)
O1 O 0.4271(2) 0.72429(12) 0.65620(17)
O2 O 0.4240(3) 0.75455(16) 0.4972(2)
O3 O 0.5358(2) 0.60819(14) 0.5478(2)
O4 O 0.7249(3) 0.57113(18) 0.5866(3)
O5 O 0.2500 0.7500 0.8351(5)
N1 N 0.2129(4) 0.37574(17) 0.6685(3)
H1 H 0.1850 0.3356 0.6671
N2 N 0.1411(3) 0.43096(16) 0.6604(2)
N3 N 0.3428(3) 0.45761(16) 0.6792(3)
N4 N 0.1944(3) 0.54552(15) 0.6665(2)
N5 N 0.2018(3) 0.65337(15) 0.6628(2)
N6 N 0.0790(3) 0.63485(18) 0.6745(3)
C1 C 0.2265(4) 0.47746(19) 0.6689(3)
C2 C 0.3283(4) 0.39139(19) 0.6787(3)
H2 H 0.3928 0.3608 0.6849
C3 C 0.2691(3) 0.59962(19) 0.6595(3)
H3 H 0.3552 0.5985 0.6533
C4 C 0.0783(4) 0.5702(2) 0.6762(4)
H4 H 0.0071 0.5442 0.6831
C5 C 0.6202(3) 0.74219(17) 0.5747(2)
C6 C 0.6974(3) 0.68629(17) 0.5742(2)
C7 C 0.6734(3) 0.80535(19) 0.5745(2)
H5 H 0.6222 0.8427 0.5746
C8 C 0.4797(3) 0.73879(17) 0.5744(3)
C9 C 0.6433(3) 0.61790(18) 0.5687(3)
H6 H 0.698(6) 0.544(3) 0.586(4)
H7 H 0.209(11) 0.752(6) 0.868(6)
Cu1_2 Cu 1.2500 0.7500 0.66274(4)
O1A O 1.0729(2) 0.77571(12) 0.65620(17)
O1A_2 O 0.0729(2) 0.77571(12) 0.65620(17)
O2A O 1.0760(3) 0.74545(16) 0.4972(2)
O3A O 0.9642(2) 0.89181(14) 0.5478(2)
O4A O 0.7751(3) 0.92887(18) 0.5866(3)
N1A N 0.2871(4) 1.12426(17) 0.6685(3)
H1A H 0.3150 1.1644 0.6671
N2A N 0.3589(3) 1.06904(16) 0.6604(2)
N3A N 0.1572(3) 1.04239(16) 0.6792(3)
N4A N 0.3056(3) 0.95448(15) 0.6665(2)
N5A N 0.2982(3) 0.84663(15) 0.6628(2)
N6A N 0.4210(3) 0.86515(18) 0.6745(3)
C1A C 0.2735(4) 1.02254(19) 0.6689(3)
C2A C 0.1717(4) 1.10861(19) 0.6787(3)
H2A H 0.1072 1.1392 0.6849
C3A C 0.2309(3) 0.90038(19) 0.6595(3)
H3A H 0.1448 0.9015 0.6533
C4A C 0.4217(4) 0.9298(2) 0.6762(4)
H4A H 0.4929 0.9558 0.6831
C5A C 0.8798(3) 0.75781(17) 0.5747(2)
C6A C 0.8026(3) 0.81371(17) 0.5742(2)
C7A C 0.8266(3) 0.69465(19) 0.5745(2)
H5A H 0.8778 0.6573 0.5746
C8A C 1.0203(3) 0.76121(17) 0.5744(3)
C9A C 0.8567(3) 0.88210(18) 0.5687(3)
H6A H 0.802(6) 0.956(3) 0.586(4)
H7A H 0.291(11) 0.748(6) 0.868(6)
O6 O 0.0755(4) 0.24303(19) 0.1726(2)
O7 O 0.8488(3) 0.44891(16) 0.0834(3)
O8 O 0.6157(4) 0.3913(2) 0.0825(4)
loop_
_geom_bond_atom_site_label_1
_geom_bond_atom_site_label_2
_geom_bond_site_symmetry_1
_geom_bond_site_symmetry_2
Cu1 O1 1_555 1_555
O1 C8 1_555 1_555
O2 C8 1_555 1_555
O3 C9 1_555 1_555
O4 C9 1_555 1_555
O5 Cu1 1_555 1_555
N1 H1 1_555 1_555
N2 N1 1_555 1_555
N3 C1 1_555 1_555
N4 C1 1_555 1_555
N5 Cu1 1_555 1_555
N6 N5 1_555 1_555
C1 N2 1_555 1_555
C2 N1 1_555 1_555
H2 C2 1_555 1_555
C3 N4 1_555 1_555
H3 C3 1_555 1_555
C4 N4 1_555 1_555
H4 C4 1_555 1_555
C5 C6 1_555 1_555
C6 C9 1_555 1_555
C7 C5 1_555 1_555
H5 C7 1_555 1_555
C8 C5 1_555 1_555
H6 O4 1_555 1_555
H7 O5 1_555 1_555
Cu1_2 O1A 1_555 1_555
O1A C8A 1_555 1_555
O1A_2 Cu1 1_555 1_555
O2A C8A 1_555 1_555
O3A C9A 1_555 1_555
O4A C9A 1_555 1_555
N1A H1A 1_555 1_555
N2A N1A 1_555 1_555
N3A C1A 1_555 1_555
N4A C1A 1_555 1_555
N5A Cu1 1_555 1_555
N6A N5A 1_555 1_555
C1A N2A 1_555 1_555
C2A N1A 1_555 1_555
H2A C2A 1_555 1_555
C3A N4A 1_555 1_555
H3A C3A 1_555 1_555
C4A N4A 1_555 1_555
H4A C4A 1_555 1_555
C5A C6A 1_555 1_555
C6A C7 1_555 1_555
C7A C6 1_555 1_555
H5A C7A 1_555 1_555
C8A C5A 1_555 1_555
C9A C6A 1_555 1_555
H6A O4A 1_555 1_555
H7A O5 1_555 1_555
N3 C2 1_555 1_555
N5 C3 1_555 1_555
N6 C4 1_555 1_555
N3A C2A 1_555 1_555
N5A C3A 1_555 1_555
N6A C4A 1_555 1_555
C5A C7A 1_555 1_555

#END
