
#######################################################################
#
#                 Cambridge Crystallographic Data Centre
#                                CCDC 
#
#######################################################################
#
# If this CIF has been generated from an entry in the Cambridge 
# Structural Database, then it will include bibliographic, chemical, 
# crystal, experimental, refinement or atomic coordinate data resulting 
# from the CCDC's data processing and validation procedures.
#
#######################################################################

data_RULFAF
_symmetry_cell_setting           rhombohedral
_symmetry_space_group_name_H-M   'R 3 2'
_symmetry_Int_Tables_number      155
_space_group_name_Hall           'R 3 2"'
loop_
_symmetry_equiv_pos_site_id
_symmetry_equiv_pos_as_xyz
1 x,y,z
2 -y,x-y,z
3 y,x,-z
4 -x+y,-x,z
5 -x,-x+y,-z
6 x-y,-y,-z
7 1/3+x,2/3+y,2/3+z
8 1/3-y,2/3+x-y,2/3+z
9 1/3+y,2/3+x,2/3-z
10 1/3-x+y,2/3-x,2/3+z
11 1/3-x,2/3-x+y,2/3-z
12 1/3+x-y,2/3-y,2/3-z
13 2/3+x,1/3+y,1/3+z
14 2/3-y,1/3+x-y,1/3+z
15 2/3+y,1/3+x,1/3-z
16 2/3-x+y,1/3-x,1/3+z
17 2/3-x,1/3-x+y,1/3-z
18 2/3+x-y,1/3-y,1/3-z
_cell_length_a                   10.648(2)
_cell_length_b                   10.648(2)
_cell_length_c                   12.227(3)
_cell_angle_alpha                90
_cell_angle_beta                 90
_cell_angle_gamma                120
_cell_volume                     1200.57
loop_
_atom_site_label
_atom_site_type_symbol
_atom_site_fract_x
_atom_site_fract_y
_atom_site_fract_z
Ni1 Ni 0.0000 0.0000 -0.5000
Cl1 Cl 0.2187(1) 0.0000 -0.5000
N1 N 0.0000 0.0000 -0.3192(3)
N2 N 0.0000 0.0000 -0.1087(3)
C1 C -0.1345(3) -0.0101(4) -0.2758(2)
C2 C -0.1436(3) -0.0311(3) -0.1502(2)
H1 H -0.2211(3) -0.0900(4) -0.3133(2)
H2 H -0.1323(3) 0.0832(4) -0.2916(2)
H3 H -0.1759(3) 0.0318(3) -0.1134(2)
H4 H -0.2165(3) -0.1347(3) -0.1346(2)
H5 H 0.0000 0.0000 0.0000
Cl1A Cl 0.0000 0.2187(1) -0.5000
Cl1C Cl -0.2187(1) -0.2187(1) -0.5000
C2A C 0.0311(3) -0.1125(4) -0.1502(2)
C1A C 0.0101(4) -0.1244(5) -0.2758(2)
C1C C 0.1244(5) 0.1345(3) -0.2758(2)
C2C C 0.1125(4) 0.1436(3) -0.1502(2)
N2B N 0.0000 0.0000 0.1087(3)
C2B C -0.0311(3) -0.1436(3) 0.1502(2)
C1B C -0.0101(4) -0.1345(3) 0.2758(2)
N1B N 0.0000 0.0000 0.3192(3)
Ni1B Ni 0.0000 0.0000 0.5000
C1E C -0.1244(5) 0.0101(4) 0.2758(2)
C2E C -0.1125(4) 0.0311(3) 0.1502(2)
C2D C 0.1436(3) 0.1125(4) 0.1502(2)
C1D C 0.1345(3) 0.1244(5) 0.2758(2)
H1D H 0.2211(3) 0.1311(5) 0.3133(2)
H2D H 0.1323(3) 0.2155(5) 0.2916(2)
H3D H 0.1759(3) 0.2077(4) 0.1134(2)
H4D H 0.2165(3) 0.0818(4) 0.1346(2)
H3E H -0.2077(4) -0.0318(3) 0.1134(2)
H4E H -0.0818(4) 0.1347(3) 0.1346(2)
H1E H -0.1311(5) 0.0900(4) 0.3133(2)
H2E H -0.2155(5) -0.0832(4) 0.2916(2)
H1B H -0.0900(4) -0.2211(3) 0.3133(2)
H2B H 0.0832(4) -0.1323(3) 0.2916(2)
H3B H 0.0318(3) -0.1759(3) 0.1134(2)
H4B H -0.1347(3) -0.2165(3) 0.1346(2)
H3C H 0.2077(4) 0.1759(3) -0.1134(2)
H4C H 0.0818(4) 0.2165(3) -0.1346(2)
H1C H 0.1311(5) 0.2211(3) -0.3133(2)
H2C H 0.2155(5) 0.1323(3) -0.2916(2)
H1A H 0.0900(4) -0.1311(5) -0.3133(2)
H2A H -0.0832(4) -0.2155(5) -0.2916(2)
H3A H -0.0318(3) -0.2077(4) -0.1134(2)
H4A H 0.1347(3) -0.0818(4) -0.1346(2)
N1B_2 N 0.0000 0.0000 -0.6808(3)
loop_
_geom_bond_atom_site_label_1
_geom_bond_atom_site_label_2
_geom_bond_site_symmetry_1
_geom_bond_site_symmetry_2
Ni1 Cl1 1_555 1_555
N1 Ni1 1_555 1_555
N2 C2 1_555 1_555
C1 N1 1_555 1_555
C2 C1 1_555 1_555
H1 C1 1_555 1_555
H2 C1 1_555 1_555
H3 C2 1_555 1_555
H4 C2 1_555 1_555
H5 N2 1_555 1_555
Cl1A Ni1 1_555 1_555
Cl1C Ni1 1_555 1_555
C2A N2 1_555 1_555
C1A N1 1_555 1_555
C1C N1 1_555 1_555
C2C N2 1_555 1_555
N2B H5 1_555 1_555
C2B N2B 1_555 1_555
C1B C2B 1_555 1_555
N1B C1B 1_555 1_555
Ni1B N1B 1_555 1_555
C1E N1B 1_555 1_555
C2E N2B 1_555 1_555
C2D N2B 1_555 1_555
C1D N1B 1_555 1_555
H1D C1D 1_555 1_555
H2D C1D 1_555 1_555
H3D C2D 1_555 1_555
H4D C2D 1_555 1_555
H3E C2E 1_555 1_555
H4E C2E 1_555 1_555
H1E C1E 1_555 1_555
H2E C1E 1_555 1_555
H1B C1B 1_555 1_555
H2B C1B 1_555 1_555
H3B C2B 1_555 1_555
H4B C2B 1_555 1_555
H3C C2C 1_555 1_555
H4C C2C 1_555 1_555
H1C C1C 1_555 1_555
H2C C1C 1_555 1_555
H1A C1A 1_555 1_555
H2A C1A 1_555 1_555
H3A C2A 1_555 1_555
H4A C2A 1_555 1_555
N1B_2 Ni1 1_555 1_555
C2A C1A 1_555 1_555
C1C C2C 1_555 1_555
C1E C2E 1_555 1_555
C2D C1D 1_555 1_555

#END
