
#######################################################################
#
#                 Cambridge Crystallographic Data Centre
#                                CCDC 
#
#######################################################################
#
# If this CIF has been generated from an entry in the Cambridge 
# Structural Database, then it will include bibliographic, chemical, 
# crystal, experimental, refinement or atomic coordinate data resulting 
# from the CCDC's data processing and validation procedures.
#
#######################################################################

data_RULFUB
_symmetry_cell_setting           triclinic
_symmetry_space_group_name_H-M   'P -1'
_symmetry_Int_Tables_number      2
_space_group_name_Hall           '-P 1'
loop_
_symmetry_equiv_pos_site_id
_symmetry_equiv_pos_as_xyz
1 x,y,z
2 -x,-y,-z
_cell_length_a                   19.170(5)
_cell_length_b                   21.209(4)
_cell_length_c                   21.615(5)
_cell_angle_alpha                62.249(6)
_cell_angle_beta                 69.866(5)
_cell_angle_gamma                89.315(5)
_cell_volume                     7184.78
loop_
_atom_site_label
_atom_site_type_symbol
_atom_site_fract_x
_atom_site_fract_y
_atom_site_fract_z
C1 C 0.9328(5) 0.1733(5) 0.3103(5)
C2 C 1.0027(5) 0.1528(5) 0.2743(5)
C3 C 1.0197(5) 0.1593(5) 0.2012(5)
H1 H 0.9884 0.1798 0.1751
C4 C 1.0823(5) 0.1355(4) 0.1692(5)
C5 C 1.1309(5) 0.1051(5) 0.2102(5)
H2 H 1.1735 0.0894 0.1888
C6 C 1.1159(5) 0.0987(5) 0.2796(5)
C7 C 1.0499(5) 0.1236(5) 0.3117(5)
H3 H 1.0392 0.1198 0.3588
C8 C 1.1605(5) 0.0648(5) 0.3244(5)
C9 C 1.0561(5) 0.1740(5) 0.0551(5)
H4 H 1.0655 0.2248 0.0403
H5 H 1.0024 0.1558 0.0841
C10 C 1.0800(5) 0.1657(5) -0.0152(5)
C11 C 1.0589(6) 0.1025(6) -0.0105(6)
H6 H 1.0263 0.0654 0.0361
C12 C 1.0842(6) 0.0896(7) -0.0736(7)
H7 H 1.0685 0.0456 -0.0687
C13 C 1.1322(6) 0.1447(7) -0.1409(6)
H8 H 1.1522 0.1379 -0.1827
C14 C 1.1521(6) 0.2132(8) -0.1478(6)
H9 H 1.1803 0.2527 -0.1946
C15 C 1.1288(6) 0.2188(6) -0.0845(6)
H10 H 1.1469 0.2614 -0.0881
C16 C 0.5994(5) -0.0306(5) 0.6355(5)
C17 C 0.5192(5) -0.0696(5) 0.6818(5)
C18 C 0.4972(5) -0.1036(5) 0.7610(5)
H11 H 0.5319 -0.1018 0.7816
C19 C 0.4228(5) -0.1403(5) 0.8085(5)
C20 C 0.3743(5) -0.1471(5) 0.7769(5)
H12 H 0.3259 -0.1739 0.8079
C21 C 0.3979(5) -0.1133(5) 0.6969(5)
C22 C 0.4693(5) -0.0739(5) 0.6519(5)
H13 H 0.4837 -0.0496 0.5996
C23 C 0.3425(5) -0.1197(5) 0.6635(5)
C24 C 0.3275(6) -0.2130(7) 0.9396(6)
H14 H 0.3158 -0.2513 0.9303
H15 H 0.2903 -0.1816 0.9330
C25 C 0.3244(6) -0.2452(8) 1.0195(6)
C26 C 0.3071(8) -0.2133(9) 1.0643(8)
H16 H 0.2924 -0.1683 1.0473
C27 C 0.3117(9) -0.2503(9) 1.1384(8)
H17 H 0.3021 -0.2293 1.1692
C28 C 0.3305(8) -0.3160(11) 1.1600(9)
H18 H 0.3336 -0.3396 1.2073
C29 C 0.3454(8) -0.3515(9) 1.1203(8)
H19 H 0.3552 -0.3984 1.1396
C30 C 0.3449(8) -0.3131(8) 1.0503(7)
H20 H 0.3596 -0.3341 1.0195
C31 C 0.7102(4) 0.1616(4) 0.6099(4)
C32 C 0.6728(5) 0.2073(5) 0.6420(5)
C33 C 0.6085(5) 0.1763(5) 0.7099(5)
H21 H 0.5872 0.1279 0.7325
C34 C 0.5761(5) 0.2179(5) 0.7440(5)
C35 C 0.6089(5) 0.2896(5) 0.7096(5)
H22 H 0.5887 0.3177 0.7316
C36 C 0.6737(5) 0.3209(5) 0.6400(6)
C37 C 0.7047(5) 0.2799(5) 0.6081(5)
H23 H 0.7474 0.3004 0.5634
C38 C 0.7096(5) 0.3977(5) 0.6066(6)
C39 C 0.4714(6) 0.1184(5) 0.8452(5)
H24 H 0.4405 0.1046 0.8972
H25 H 0.5070 0.0854 0.8462
C40 C 0.4209(6) 0.1086(5) 0.8086(6)
C41 C 0.4127(6) 0.0477(6) 0.7998(6)
H26 H 0.4424 0.0128 0.8141
C42 C 0.3643(7) 0.0378(6) 0.7720(8)
H27 H 0.3582 -0.0059 0.7725
C43 C 0.3230(7) 0.0886(6) 0.7427(7)
H28 H 0.2916 0.0808 0.7214
C44 C 0.3298(7) 0.1532(7) 0.7459(7)
H29 H 0.3029 0.1893 0.7269
C45 C 0.3783(6) 0.1613(6) 0.7788(6)
H30 H 0.3827 0.2036 0.7811
C46 C 1.1618(5) 0.5356(5) 0.3359(5)
C47 C 1.1056(5) 0.5775(5) 0.3030(5)
C48 C 1.0296(5) 0.5699(5) 0.3513(5)
H31 H 1.0133 0.5406 0.4034
C49 C 0.9823(5) 0.6060(5) 0.3197(5)
C50 C 1.0071(5) 0.6537(5) 0.2386(5)
H32 H 0.9736 0.6777 0.2171
C51 C 1.0837(5) 0.6623(5) 0.1933(4)
C52 C 1.1304(5) 0.6228(5) 0.2265(5)
H33 H 1.1802 0.6270 0.1962
C53 C 0.9011(4) 0.5974(4) 0.3632(4)
C54 C 1.0648(5) 0.7592(6) 0.0790(5)
H34 H 1.0537 0.7922 0.0993
H35 H 1.0174 0.7322 0.0907
C55 C 1.1061(5) 0.8014(6) -0.0044(5)
C56 C 1.1209(6) 0.7659(7) -0.0492(6)
H36 H 1.1063 0.7160 -0.0258
C57 C 1.1563(6) 0.8055(7) -0.1264(6)
H37 H 1.1665 0.7810 -0.1539
C58 C 1.1770(6) 0.8771(8) -0.1641(6)
H38 H 1.2008 0.9019 -0.2166
C59 C 1.1617(6) 0.9159(8) -0.1218(7)
H39 H 1.1747 0.9661 -0.1468
C60 C 1.1264(6) 0.8758(6) -0.0413(7)
H40 H 1.1170 0.8999 -0.0135
C61 C 0.4358(5) 0.5016(5) 0.3109(5)
C62 C 0.5058(5) 0.5569(5) 0.2724(5)
C63 C 0.5513(4) 0.5535(3) 0.3099(4)
H41 H 0.5406 0.5144 0.3581
C64 C 0.6148(5) 0.6084(5) 0.2768(5)
C65 C 0.6275(5) 0.6685(4) 0.2060(5)
H42 H 0.6680 0.7058 0.1836
C66 C 0.5794(5) 0.6723(4) 0.1688(5)
C67 C 0.5200(5) 0.6181(4) 0.2009(5)
H43 H 0.4883 0.6214 0.1756
C68 C 0.6617(6) 0.6017(5) 0.3207(5)
C69 C 0.5515(6) 0.7358(5) 0.0512(6)
H44 H 0.4976 0.7197 0.0801
H45 H 0.5704 0.7018 0.0340
C70 C 0.5662(6) 0.8106(5) -0.0168(5)
C71 C 0.6238(6) 0.8310(6) -0.0827(6)
H46 H 0.6569 0.7999 -0.0885
C72 C 0.6329(6) 0.9029(6) -0.1446(6)
H47 H 0.6714 0.9169 -0.1912
C73 C 0.5898(6) 0.9489(7) -0.1381(6)
H48 H 0.5991 0.9956 -0.1783
C74 C 0.5291(7) 0.9267(6) -0.0697(6)
H49 H 0.4958 0.9579 -0.0649
C75 C 0.5183(6) 0.8593(6) -0.0095(6)
H50 H 0.4790 0.8457 0.0366
C76 C 0.7840(5) 0.7665(5) 0.3878(5)
C77 C 0.8226(5) 0.8408(5) 0.3552(5)
C78 C 0.7918(5) 0.8822(5) 0.3891(5)
H51 H 0.7489 0.8616 0.4336
C79 C 0.8242(5) 0.9531(5) 0.3576(5)
C80 C 0.8911(5) 0.9817(5) 0.2932(5)
H52 H 0.9145 1.0288 0.2733
C81 C 0.9239(5) 0.9424(5) 0.2578(5)
C82 C 0.8907(5) 0.8710(5) 0.2921(5)
H53 H 0.9144 0.8419 0.2726
C83 C 0.7898(5) 0.9976(6) 0.3925(6)
C84 C 1.0376(6) 0.9316(5) 0.1613(6)
H54 H 1.0704 0.9644 0.1092
H55 H 1.0050 0.8970 0.1612
C85 C 1.0856(6) 0.8913(6) 0.2046(6)
C86 C 1.0900(8) 0.8204(7) 0.2231(9)
H56 H 1.0650 0.7986 0.2060
C87 C 1.1313(11) 0.7790(8) 0.2671(12)
H57 H 1.1268 0.7293 0.2855
C88 C 1.1754(10) 0.8121(9) 0.2811(12)
H58 H 1.2079 0.7871 0.3036
C89 C 1.1752(9) 0.8833(8) 0.2634(10)
H59 H 1.2065 0.9056 0.2750
C90 C 1.1296(8) 0.9209(7) 0.2292(9)
H60 H 1.1268 0.9677 0.2215
N1 N 1.0980(4) 0.1342(4) 0.1019(4)
H61 H 1.1312 0.1106 0.0884
N2 N 0.4016(5) -0.1721(5) 0.8868(4)
H62 H 0.4342 -0.1670 0.9040
N3 N 0.5116(5) 0.1881(5) 0.8099(5)
N4 N 1.1100(5) 0.7091(5) 0.1146(4)
H63 H 1.1540 0.7082 0.0864
N5 N 0.5884(4) 0.7370(4) 0.0991(4)
H64 H 0.6156 0.7764 0.0861
N6 N 0.9899(4) 0.9740(4) 0.1928(4)
H65 H 1.0038 1.0202 0.1697
O1 O 0.8972(3) 0.2089(3) 0.2704(4)
O2 O 0.9146(3) 0.1547(4) 0.3795(3)
O3 O 0.7812(5) 0.3074(4) 0.2689(5)
O4 O 1.2071(3) 0.0261(3) 0.3023(3)
O5 O 0.8700(6) 0.2735(5) 0.3992(6)
O6 O 1.1555(5) 0.0727(5) 0.3804(5)
O7 O 0.9000(5) 0.1495(7) 0.5180(6)
O8 O 0.6145(3) 0.0134(4) 0.5640(3)
O9 O 0.7150(5) 0.5957(4) 0.7251(5)
O10 O 0.6445(3) -0.0470(3) 0.6668(3)
O11 O 0.6250(5) 0.6858(4) 0.5994(4)
O12 O 0.2855(3) -0.1722(4) 0.7127(3)
O13 O 0.5908(4) 0.6679(3) 0.4779(4)
O14 O 0.3559(3) -0.0822(3) 0.5967(3)
O15 O 0.7442(3) 0.1653(3) 0.4269(3)
O16 O 0.7869(3) 0.0554(3) 0.5229(3)
O17 O 0.7555(4) 0.1932(4) 0.5433(4)
O18 O 0.6954(4) 0.0940(3) 0.6526(4)
O19 O 0.7608(3) 0.4300(3) 0.5382(4)
O20 O 0.6867(4) 0.4315(3) 0.6408(4)
O21 O 1.2158(3) 0.5261(3) 0.2901(3)
O22 O 1.1465(3) 0.5131(3) 0.4067(3)
O23 O 0.8828(3) 0.5730(3) 0.4350(3)
O24 O 0.8566(4) 0.6143(4) 0.3305(4)
O25 O 0.3994(3) 0.5044(3) 0.2709(3)
O26 O 0.4176(3) 0.4559(3) 0.3793(4)
O27 O 0.7053(3) 0.6608(3) 0.2989(3)
O28 O 0.6578(5) 0.5435(4) 0.3759(5)
O29 O 0.7384(4) 0.7338(3) 0.4567(4)
O30 O 0.7969(3) 0.7396(3) 0.3466(4)
O31 O 0.7370(4) 0.9697(4) 0.4585(4)
O32 O 0.8115(4) 1.0656(4) 0.3556(4)
O33 O 0.7512(3) 0.5962(3) 0.5721(3)
O34 O 0.7109(3) 0.5769(3) 0.4757(3)
Zn1 Zn 0.78897(6) 0.20354(6) 0.31558(6)
Zn2 Zn 0.70954(6) 0.05725(6) 0.47007(5)
Zn3 Zn 0.82934(6) 0.16680(6) 0.46498(6)
Zn4 Zn 0.73882(5) 0.02033(5) 0.62962(5)
Zn5 Zn 0.70949(6) 0.53160(6) 0.68241(6)
Zn6 Zn 0.78613(6) 0.52778(6) 0.52831(6)
Zn7 Zn 0.66697(6) 0.63524(6) 0.53323(6)
Zn8 Zn 0.75808(5) 0.64391(5) 0.36712(5)
H66 H 0.482(4) 0.208(5) 0.831(5)
O4A O 0.7929(3) -0.0261(3) 0.6977(3)
O12A O 0.7145(3) 0.1722(4) 0.2873(3)
O14A O 0.6441(3) 0.0822(3) 0.4033(3)
O21A O 0.7842(3) 0.4739(3) 0.7099(3)
O22A O 0.8535(3) 0.4869(3) 0.5933(3)
O25A O 0.6006(3) 0.4956(3) 0.7291(3)
O26A O 0.5824(3) 0.5441(3) 0.6207(4)
O31_2 O 0.7370(4) -0.0303(4) 0.4585(4)
O32_2 O 0.8115(4) 0.0656(4) 0.3556(4)
Zn1A Zn 0.21103(6) -0.20354(6) 0.68442(6)
Zn2_2 Zn 0.70954(6) 1.05725(6) 0.47007(5)
Zn2A Zn 0.29046(6) -0.05725(6) 0.52993(5)
Zn4A Zn 1.26118(5) -0.02033(5) 0.37038(5)
Zn5A Zn 0.29051(6) 0.46840(6) 0.31759(6)
Zn5A_2 Zn 1.29051(6) 0.46840(6) 0.31759(6)
Zn6A Zn 1.21387(6) 0.47222(6) 0.47169(6)
Zn7A Zn 0.33303(6) 0.36476(6) 0.46677(6)
loop_
_geom_bond_atom_site_label_1
_geom_bond_atom_site_label_2
_geom_bond_site_symmetry_1
_geom_bond_site_symmetry_2
C1 C2 1_555 1_555
C2 C3 1_555 1_555
C3 H1 1_555 1_555
C4 C3 1_555 1_555
C5 C4 1_555 1_555
H2 C5 1_555 1_555
C6 C5 1_555 1_555
C7 C2 1_555 1_555
H3 C7 1_555 1_555
C8 C6 1_555 1_555
C9 H4 1_555 1_555
H5 C9 1_555 1_555
C10 C9 1_555 1_555
C11 C10 1_555 1_555
H6 C11 1_555 1_555
C12 C11 1_555 1_555
H7 C12 1_555 1_555
C13 C12 1_555 1_555
H8 C13 1_555 1_555
C14 C13 1_555 1_555
H9 C14 1_555 1_555
C15 C10 1_555 1_555
H10 C15 1_555 1_555
C16 C17 1_555 1_555
C17 C18 1_555 1_555
C18 H11 1_555 1_555
C19 C18 1_555 1_555
C20 C19 1_555 1_555
H12 C20 1_555 1_555
C21 C20 1_555 1_555
C22 C17 1_555 1_555
H13 C22 1_555 1_555
C23 C21 1_555 1_555
C24 H14 1_555 1_555
H15 C24 1_555 1_555
C25 C24 1_555 1_555
C26 C25 1_555 1_555
H16 C26 1_555 1_555
C27 C26 1_555 1_555
H17 C27 1_555 1_555
C28 C27 1_555 1_555
H18 C28 1_555 1_555
C29 C28 1_555 1_555
H19 C29 1_555 1_555
C30 C25 1_555 1_555
H20 C30 1_555 1_555
C31 C32 1_555 1_555
C32 C33 1_555 1_555
C33 H21 1_555 1_555
C34 C33 1_555 1_555
C35 C34 1_555 1_555
H22 C35 1_555 1_555
C36 C35 1_555 1_555
C37 C32 1_555 1_555
H23 C37 1_555 1_555
C38 C36 1_555 1_555
C39 H24 1_555 1_555
H25 C39 1_555 1_555
C40 C39 1_555 1_555
C41 C40 1_555 1_555
H26 C41 1_555 1_555
C42 C41 1_555 1_555
H27 C42 1_555 1_555
C43 C42 1_555 1_555
H28 C43 1_555 1_555
C44 C43 1_555 1_555
H29 C44 1_555 1_555
C45 C40 1_555 1_555
H30 C45 1_555 1_555
C46 C47 1_555 1_555
C47 C48 1_555 1_555
C48 H31 1_555 1_555
C49 C48 1_555 1_555
C50 C49 1_555 1_555
H32 C50 1_555 1_555
C51 C50 1_555 1_555
C52 C47 1_555 1_555
H33 C52 1_555 1_555
C53 C49 1_555 1_555
C54 H34 1_555 1_555
H35 C54 1_555 1_555
C55 C54 1_555 1_555
C56 C55 1_555 1_555
H36 C56 1_555 1_555
C57 C56 1_555 1_555
H37 C57 1_555 1_555
C58 C57 1_555 1_555
H38 C58 1_555 1_555
C59 C58 1_555 1_555
H39 C59 1_555 1_555
C60 C55 1_555 1_555
H40 C60 1_555 1_555
C61 C62 1_555 1_555
C62 C63 1_555 1_555
C63 H41 1_555 1_555
C64 C63 1_555 1_555
C65 C64 1_555 1_555
H42 C65 1_555 1_555
C66 C65 1_555 1_555
C67 C62 1_555 1_555
H43 C67 1_555 1_555
C68 C64 1_555 1_555
C69 H44 1_555 1_555
H45 C69 1_555 1_555
C70 C69 1_555 1_555
C71 C70 1_555 1_555
H46 C71 1_555 1_555
C72 C71 1_555 1_555
H47 C72 1_555 1_555
C73 C72 1_555 1_555
H48 C73 1_555 1_555
C74 C73 1_555 1_555
H49 C74 1_555 1_555
C75 C70 1_555 1_555
H50 C75 1_555 1_555
C76 C77 1_555 1_555
C77 C78 1_555 1_555
C78 H51 1_555 1_555
C79 C78 1_555 1_555
C80 C79 1_555 1_555
H52 C80 1_555 1_555
C81 C80 1_555 1_555
C82 C77 1_555 1_555
H53 C82 1_555 1_555
C83 C79 1_555 1_555
C84 H54 1_555 1_555
H55 C84 1_555 1_555
C85 C84 1_555 1_555
C86 C85 1_555 1_555
H56 C86 1_555 1_555
C87 C86 1_555 1_555
H57 C87 1_555 1_555
C88 C87 1_555 1_555
H58 C88 1_555 1_555
C89 C88 1_555 1_555
H59 C89 1_555 1_555
C90 C85 1_555 1_555
H60 C90 1_555 1_555
N1 C4 1_555 1_555
H61 N1 1_555 1_555
N2 C19 1_555 1_555
H62 N2 1_555 1_555
N3 C34 1_555 1_555
N4 C51 1_555 1_555
H63 N4 1_555 1_555
N5 C66 1_555 1_555
H64 N5 1_555 1_555
N6 C81 1_555 1_555
H65 N6 1_555 1_555
O1 C1 1_555 1_555
O2 C1 1_555 1_555
O3 Zn1 1_555 1_555
O4 C8 1_555 1_555
O5 Zn3 1_555 1_555
O6 C8 1_555 1_555
O7 Zn3 1_555 1_555
O8 C16 1_555 1_555
O9 Zn5 1_555 1_555
O10 C16 1_555 1_555
O11 Zn7 1_555 1_555
O12 C23 1_555 1_555
O13 Zn7 1_555 1_555
O14 C23 1_555 1_555
O15 Zn1 1_555 1_555
O16 Zn2 1_555 1_555
O17 C31 1_555 1_555
O18 C31 1_555 1_555
O19 C38 1_555 1_555
O20 C38 1_555 1_555
O21 C46 1_555 1_555
O22 C46 1_555 1_555
O23 C53 1_555 1_555
O24 C53 1_555 1_555
O25 C61 1_555 1_555
O26 C61 1_555 1_555
O27 C68 1_555 1_555
O28 C68 1_555 1_555
O29 C76 1_555 1_555
O30 C76 1_555 1_555
O31 C83 1_555 1_555
O32 C83 1_555 1_555
O33 Zn5 1_555 1_555
O34 Zn6 1_555 1_555
Zn1 O1 1_555 1_555
Zn2 O8 1_555 1_555
Zn3 O2 1_555 1_555
Zn4 O10 1_555 1_555
Zn5 O21A 1_555 1_555
Zn6 O19 1_555 1_555
Zn7 O29 1_555 1_555
Zn8 O24 1_555 1_555
H66 N3 1_555 1_555
O4A Zn4 1_555 1_555
O12A Zn1 1_555 1_555
O14A Zn2 1_555 1_555
O22A Zn6 1_555 1_555
O25A Zn5 1_555 1_555
O26A Zn7 1_555 1_555
O31_2 Zn2 1_555 1_555
O32_2 Zn2 1_555 1_555
Zn1A O12 1_555 1_555
Zn2_2 O31 1_555 1_555
Zn2A O14 1_555 1_555
Zn4A O4 1_555 1_555
Zn5A O25 1_555 1_555
Zn5A_2 O21 1_555 1_555
Zn6A O22 1_555 1_555
Zn7A O26 1_555 1_555
C6 C7 1_555 1_555
C9 N1 1_555 1_555
C14 C15 1_555 1_555
C21 C22 1_555 1_555
C24 N2 1_555 1_555
C29 C30 1_555 1_555
C36 C37 1_555 1_555
C39 N3 1_555 1_555
C44 C45 1_555 1_555
C51 C52 1_555 1_555
C54 N4 1_555 1_555
C59 C60 1_555 1_555
C66 C67 1_555 1_555
C69 N5 1_555 1_555
C74 C75 1_555 1_555
C81 C82 1_555 1_555
C84 N6 1_555 1_555
C89 C90 1_555 1_555
O15 Zn2 1_555 1_555
O15 Zn3 1_555 1_555
O16 Zn3 1_555 1_555
O16 Zn4 1_555 1_555
O17 Zn3 1_555 1_555
O18 Zn4 1_555 1_555
O20 Zn6 1_555 1_555
O23 Zn6 1_555 1_555
O27 Zn8 1_555 1_555
O30 Zn8 1_555 1_555
O32 Zn2_2 1_555 1_555
O33 Zn6 1_555 1_555
O33 Zn7 1_555 1_555
O34 Zn7 1_555 1_555
O34 Zn8 1_555 1_555

#END
