
#######################################################################
#
#                 Cambridge Crystallographic Data Centre
#                                CCDC 
#
#######################################################################
#
# If this CIF has been generated from an entry in the Cambridge 
# Structural Database, then it will include bibliographic, chemical, 
# crystal, experimental, refinement or atomic coordinate data resulting 
# from the CCDC's data processing and validation procedures.
#
#######################################################################

data_RULGEM
_symmetry_cell_setting           monoclinic
_symmetry_space_group_name_H-M   'P 21/n'
_symmetry_Int_Tables_number      14
_space_group_name_Hall           '-P 2yn'
loop_
_symmetry_equiv_pos_site_id
_symmetry_equiv_pos_as_xyz
1 x,y,z
2 1/2-x,1/2+y,1/2-z
3 -x,-y,-z
4 1/2+x,1/2-y,1/2+z
_cell_length_a                   10.514(5)
_cell_length_b                   14.531(5)
_cell_length_c                   14.281(5)
_cell_angle_alpha                90
_cell_angle_beta                 96.104(5)
_cell_angle_gamma                90
_cell_volume                     2169.47
loop_
_atom_site_label
_atom_site_type_symbol
_atom_site_fract_x
_atom_site_fract_y
_atom_site_fract_z
Cd1 Cd 0.58585(3) 0.11642(2) 0.97678(2)
O1 O 0.6583(3) 0.2609(2) 0.9569(2)
O2 O 0.9508(3) 0.4578(2) 0.5727(2)
O3 O 0.9909(3) 0.3130(2) 0.6069(2)
O4 O 0.4317(3) 0.1371(2) 0.8481(2)
O5 O 0.7467(3) 0.1678(2) 0.8594(2)
O6 O 0.7677(3) 0.0589(2) 1.0595(2)
N1 N 0.3781(4) 0.1755(3) 0.6933(3)
N2 N 0.7220(4) 0.5829(3) 0.8337(3)
N3 N 0.8995(4) -0.0632(3) 1.0960(3)
C1 C 0.7568(4) 0.4943(3) 0.8115(3)
C2 C 0.7660(4) 0.3298(3) 0.8364(3)
C3 C 0.7229(4) 0.2475(3) 0.8880(3)
C4 C 0.6969(5) 0.5985(3) 1.0044(3)
C5 C 0.8642(4) 0.3953(3) 0.7074(3)
C6 C 0.9394(4) 0.3869(3) 0.6237(3)
C7 C 0.6222(5) 0.6189(3) 1.0763(3)
H1 H 0.5367 0.6348 1.0616
C8 C 0.8353(4) 0.3184(3) 0.7595(3)
H2 H 0.8621 0.2601 0.7431
C9 C 0.8247(5) 0.5767(4) 1.0273(4)
H3 H 0.8758 0.5640 0.9796
C10 C 0.8031(6) 0.5927(4) 1.1921(4)
H4 H 0.8379 0.5904 1.2547
C11 C 0.6741(6) 0.6157(4) 1.1697(4)
H5 H 0.6232 0.6289 1.2174
C12 C 0.6349(5) 0.6016(3) 0.9033(3)
H6 H 0.5660 0.5569 0.8961
H7 H 0.5975 0.6620 0.8912
C13 C 0.8241(4) 0.4810(3) 0.7328(3)
H8 H 0.8421 0.5317 0.6967
C14 C 0.4580(5) 0.1666(4) 0.7702(3)
H9 H 0.5424 0.1840 0.7662
C15 C 0.8780(6) 0.5735(4) 1.1215(4)
H10 H 0.9638 0.5585 1.1361
C16 C 1.0076(5) -0.0075(4) 1.1322(4)
H11 H 1.0788 -0.0466 1.1524
H12 H 0.9853 0.0281 1.1847
H13 H 1.0305 0.0331 1.0837
C17 C 0.7283(4) 0.4168(3) 0.8626(3)
H14 H 0.6835 0.4234 0.9150
C18 C 0.7888(5) -0.0254(4) 1.0637(3)
H15 H 0.7220 -0.0647 1.0426
C19 C 0.2425(5) 0.1511(4) 0.6897(4)
H16 H 0.2012 0.1627 0.6277
H17 H 0.2029 0.1876 0.7346
H18 H 0.2347 0.0871 0.7046
C20 C 0.9154(6) -0.1638(4) 1.0968(5)
H19 H 1.0009 -0.1790 1.1225
H20 H 0.9002 -0.1869 1.0336
H21 H 0.8554 -0.1910 1.1348
C21 C 0.4193(5) 0.2121(5) 0.6070(4)
H22 H 0.3481 0.2133 0.5590
H23 H 0.4856 0.1736 0.5868
H24 H 0.4516 0.2734 0.6179
H25 H 0.722(7) 0.624(4) 0.781(3)
Cd1A Cd 0.91415(3) 0.61642(2) 0.52322(2)
Cd1C Cd 1.08585(3) 0.38358(2) 0.47678(2)
O2A O 0.5492(3) -0.0422(2) 0.9273(2)
O2C O 0.4508(3) 0.0422(2) 1.0727(2)
O3C O 0.4909(3) 0.1870(2) 1.1069(2)
loop_
_geom_bond_atom_site_label_1
_geom_bond_atom_site_label_2
_geom_bond_site_symmetry_1
_geom_bond_site_symmetry_2
Cd1 O1 1_555 1_555
O1 C3 1_555 1_555
O2 C6 1_555 1_555
O3 C6 1_555 1_555
O4 Cd1 1_555 1_555
O5 Cd1 1_555 1_555
O6 Cd1 1_555 1_555
N1 C14 1_555 1_555
N2 C1 1_555 1_555
N3 C16 1_555 1_555
C1 C13 1_555 1_555
C2 C3 1_555 1_555
C3 O5 1_555 1_555
C4 C7 1_555 1_555
C5 C6 1_555 1_555
C7 H1 1_555 1_555
C8 C2 1_555 1_555
H2 C8 1_555 1_555
C9 C4 1_555 1_555
H3 C9 1_555 1_555
C10 H4 1_555 1_555
C11 C7 1_555 1_555
H5 C11 1_555 1_555
C12 N2 1_555 1_555
H6 C12 1_555 1_555
H7 C12 1_555 1_555
C13 C5 1_555 1_555
H8 C13 1_555 1_555
C14 O4 1_555 1_555
H9 C14 1_555 1_555
C15 C9 1_555 1_555
H10 C15 1_555 1_555
C16 H11 1_555 1_555
H12 C16 1_555 1_555
H13 C16 1_555 1_555
C17 C1 1_555 1_555
H14 C17 1_555 1_555
C18 O6 1_555 1_555
H15 C18 1_555 1_555
C19 N1 1_555 1_555
H16 C19 1_555 1_555
H17 C19 1_555 1_555
H18 C19 1_555 1_555
C20 N3 1_555 1_555
H19 C20 1_555 1_555
H20 C20 1_555 1_555
H21 C20 1_555 1_555
C21 N1 1_555 1_555
H22 C21 1_555 1_555
H23 C21 1_555 1_555
H24 C21 1_555 1_555
H25 N2 1_555 1_555
Cd1A O2 1_555 1_555
Cd1C O2 1_555 1_555
O2A Cd1 1_555 1_555
O2C Cd1 1_555 1_555
O3C Cd1 1_555 1_555
O3 Cd1C 1_555 1_555
N3 C18 1_555 1_555
C2 C17 1_555 1_555
C4 C12 1_555 1_555
C5 C8 1_555 1_555
C10 C11 1_555 1_555
C10 C15 1_555 1_555

#END
