
#######################################################################
#
#                 Cambridge Crystallographic Data Centre
#                                CCDC 
#
#######################################################################
#
# If this CIF has been generated from an entry in the Cambridge 
# Structural Database, then it will include bibliographic, chemical, 
# crystal, experimental, refinement or atomic coordinate data resulting 
# from the CCDC's data processing and validation procedures.
#
#######################################################################

data_RULNUJ
_symmetry_cell_setting           monoclinic
_symmetry_space_group_name_H-M   'P 21/c'
_symmetry_Int_Tables_number      14
_space_group_name_Hall           '-P 2ybc'
loop_
_symmetry_equiv_pos_site_id
_symmetry_equiv_pos_as_xyz
1 x,y,z
2 -x,1/2+y,1/2-z
3 -x,-y,-z
4 x,1/2-y,1/2+z
_cell_length_a                   17.3435(16)
_cell_length_b                   16.1923(16)
_cell_length_c                   16.0934(14)
_cell_angle_alpha                90
_cell_angle_beta                 103.429(2)
_cell_angle_gamma                90
_cell_volume                     4395.96
loop_
_atom_site_label
_atom_site_type_symbol
_atom_site_fract_x
_atom_site_fract_y
_atom_site_fract_z
C1 C 0.6640(4) 0.3469(4) 0.5759(4)
H1 H 0.6666 0.3245 0.6297
C2 C 0.6111(4) 0.3114(5) 0.5059(4)
H2 H 0.5797 0.2666 0.5132
C3 C 0.6069(4) 0.3438(4) 0.4279(5)
H3 H 0.5716 0.3220 0.3805
C4 C 0.6559(4) 0.4107(4) 0.4180(4)
C5 C 0.6571(4) 0.4499(5) 0.3391(4)
C6 C 0.7034(4) 0.5168(5) 0.3336(4)
C7 C 0.7590(4) 0.5480(5) 0.4065(4)
C8 C 0.8114(5) 0.6120(5) 0.4025(5)
H4 H 0.8109 0.6378 0.3507
C9 C 0.8633(5) 0.6364(5) 0.4748(5)
H5 H 0.8986 0.6793 0.4734
C10 C 0.8631(4) 0.5960(5) 0.5521(4)
H6 H 0.9000 0.6119 0.6012
C11 C 0.7599(4) 0.5109(4) 0.4846(4)
C12 C 0.7070(4) 0.4427(4) 0.4914(4)
C13 C 0.6348(5) 0.4954(6) 0.2081(5)
H7 H 0.6137 0.4993 0.1496
C14 C 0.5751(4) 0.5856(4) 0.5216(4)
C15 C 0.5701(4) 0.6138(4) 0.4405(4)
H8 H 0.6021 0.6575 0.4314
C16 C 0.5174(4) 0.5777(5) 0.3710(4)
H9 H 0.5147 0.5978 0.3163
C17 C 0.5267(4) 0.5180(4) 0.5358(4)
C18 C 0.4704(4) 0.5140(4) 0.3820(4)
H10 H 0.4357 0.4910 0.3348
C19 C 0.8801(4) 0.3283(4) 0.5113(4)
C20 C 0.8906(4) 0.3708(5) 0.4416(5)
H11 H 0.9253 0.4154 0.4480
C21 C 0.8485(5) 0.3462(5) 0.3601(5)
H12 H 0.8566 0.3737 0.3121
C22 C 0.7958(4) 0.2825(5) 0.3502(4)
H13 H 0.7681 0.2673 0.2957
C23 C 0.7827(4) 0.2393(5) 0.4219(4)
C24 C 0.7281(4) 0.1732(5) 0.4160(4)
C25 C 0.7182(4) 0.1303(5) 0.4871(5)
H14 H 0.6824 0.0867 0.4812
C26 C 0.7625(5) 0.1529(5) 0.5678(4)
H15 H 0.7562 0.1238 0.6157
C27 C 0.8145(4) 0.2166(5) 0.5774(4)
H16 H 0.8427 0.2315 0.6318
C28 C 0.8263(4) 0.2607(5) 0.5056(4)
C29 C 0.9379(4) 0.3675(4) 0.8569(4)
H17 H 0.9429 0.3423 0.8065
C30 C 0.9849(4) 0.3379(4) 0.9337(4)
H18 H 1.0206 0.2950 0.9337
C31 C 0.9776(4) 0.3725(4) 1.0081(4)
H19 H 1.0075 0.3529 1.0599
C32 C 0.9247(4) 0.4378(4) 1.0063(4)
C33 C 0.9122(4) 0.4784(4) 1.0812(4)
C34 C 0.9157(4) 0.5179(5) 1.2075(4)
H20 H 0.9293 0.5227 1.2667
C35 C 0.8576(4) 0.5392(4) 1.0747(4)
C36 C 0.8101(4) 0.5699(5) 0.9958(4)
C37 C 0.7569(5) 0.6351(6) 0.9884(5)
H21 H 0.7498 0.6623 1.0370
C38 C 0.7155(6) 0.6589(6) 0.9099(5)
H22 H 0.6807 0.7034 0.9033
C39 C 0.7267(5) 0.6149(6) 0.8397(5)
H23 H 0.6953 0.6289 0.7865
C40 C 0.8218(4) 0.5311(4) 0.9206(4)
C41 C 0.8782(3) 0.4646(4) 0.9259(4)
Sm1 Sm 0.79781(2) 0.48033(2) 0.70522(2)
N1 N 0.7107(3) 0.4103(3) 0.5702(3)
N2 N 0.8123(3) 0.5359(4) 0.5575(3)
N3 N 0.6897(4) 0.5458(5) 0.2498(4)
N4 N 0.6118(4) 0.4374(4) 0.2577(4)
H24 H 0.5761 0.4002 0.2416
N5 N 0.8871(3) 0.4286(3) 0.8512(3)
N6 N 0.7785(3) 0.5545(4) 0.8424(3)
N7 N 0.9485(3) 0.4646(4) 1.1654(3)
N8 N 0.8599(3) 0.5654(4) 1.1563(3)
H25 H 0.8319 0.6038 1.1717
O1 O 0.6934(2) 0.5734(3) 0.6537(3)
O2 O 0.6824(3) 0.6979(3) 0.5701(3)
O3 O 0.5909(3) 0.6716(3) 0.6602(3)
O4 O 0.8816(3) 0.3839(3) 0.6644(3)
O5 O 0.9858(3) 0.2923(4) 0.6492(3)
O6 O 0.9847(3) 0.4324(4) 0.5977(3)
O7 O 0.7221(3) 0.1123(3) 0.2644(3)
O8 O 0.6175(3) 0.0745(4) 0.3317(3)
O9 O 0.6239(3) 0.2126(4) 0.2773(3)
O10 O 0.9033(3) 0.5770(3) 0.7446(3)
H26 H 0.894(4) 0.6279(16) 0.738(4)
H27 H 0.9498(19) 0.569(4) 0.774(4)
S1 S 0.63967(11) 0.63684(12) 0.60674(11)
S2 S 0.93921(12) 0.36236(14) 0.61240(12)
S3 S 0.66651(13) 0.14045(16) 0.31555(13)
C14B C 0.4249(4) 0.4144(4) 0.4784(4)
C15B C 0.4299(4) 0.3862(4) 0.5595(4)
H8B H 0.3979 0.3425 0.5686
C16B C 0.4826(4) 0.4223(5) 0.6290(4)
H9B H 0.4853 0.4022 0.6837
C17B C 0.4733(4) 0.4820(4) 0.4642(4)
C18B C 0.5296(4) 0.4860(4) 0.6180(4)
H10B H 0.5643 0.5090 0.6652
O1B O 0.3066(2) 0.4266(3) 0.3463(3)
O2B O 0.3176(3) 0.3021(3) 0.4299(3)
O3B O 0.4091(3) 0.3284(3) 0.3398(3)
S1B S 0.36033(11) 0.36316(12) 0.39326(11)
C1B C 0.3360(4) 0.6531(4) 0.4241(4)
H1B H 0.3334 0.6755 0.3703
C2B C 0.3889(4) 0.6886(5) 0.4941(4)
H2B H 0.4203 0.7334 0.4868
C3B C 0.3931(4) 0.6562(4) 0.5721(5)
H3B H 0.4284 0.6780 0.6195
C4B C 0.3441(4) 0.5893(4) 0.5820(4)
C5B C 0.3429(4) 0.5501(5) 0.6609(4)
C6B C 0.2966(4) 0.4832(5) 0.6664(4)
C7B C 0.2410(4) 0.4520(5) 0.5935(4)
C8B C 0.1886(5) 0.3880(5) 0.5975(5)
H4B H 0.1891 0.3622 0.6493
C9B C 0.1367(5) 0.3636(5) 0.5252(5)
H5B H 0.1014 0.3207 0.5266
C10B C 0.1369(4) 0.4040(5) 0.4479(4)
H6B H 0.1000 0.3881 0.3988
C11B C 0.2401(4) 0.4891(4) 0.5154(4)
C12B C 0.2930(4) 0.5573(4) 0.5086(4)
C13B C 0.3652(5) 0.5046(6) 0.7919(5)
H7B H 0.3863 0.5007 0.8504
C19B C 0.1199(4) 0.6717(4) 0.4887(4)
C20B C 0.1094(4) 0.6292(5) 0.5584(5)
H11B H 0.0747 0.5846 0.5520
C21B C 0.1515(5) 0.6538(5) 0.6399(5)
H12B H 0.1434 0.6263 0.6879
C22B C 0.2042(4) 0.7175(5) 0.6498(4)
H13B H 0.2319 0.7327 0.7043
C23B C 0.2173(4) 0.7607(5) 0.5781(4)
C24B C 0.2719(4) 0.8268(5) 0.5840(4)
C25B C 0.2818(4) 0.8697(5) 0.5129(5)
H14B H 0.3176 0.9133 0.5188
C26B C 0.2375(5) 0.8471(5) 0.4322(4)
H15B H 0.2438 0.8762 0.3843
C27B C 0.1855(4) 0.7834(5) 0.4226(4)
H16B H 0.1573 0.7685 0.3682
C28B C 0.1737(4) 0.7393(5) 0.4944(4)
C29B C 0.0621(4) 0.6325(4) 0.1431(4)
H17B H 0.0571 0.6577 0.1935
C30B C 0.0151(4) 0.6621(4) 0.0663(4)
H18B H -0.0206 0.7050 0.0663
C31B C 0.0224(4) 0.6275(4) -0.0081(4)
H19B H -0.0075 0.6471 -0.0599
C32B C 0.0753(4) 0.5622(4) -0.0063(4)
C33B C 0.0878(4) 0.5216(4) -0.0812(4)
C34B C 0.0843(4) 0.4821(5) -0.2075(4)
H20B H 0.0707 0.4773 -0.2667
C35B C 0.1424(4) 0.4608(4) -0.0747(4)
C36B C 0.1899(4) 0.4301(5) 0.0042(4)
C37B C 0.2431(5) 0.3649(6) 0.0116(5)
H21B H 0.2502 0.3377 -0.0370
C38B C 0.2845(6) 0.3411(6) 0.0901(5)
H22B H 0.3193 0.2966 0.0967
C39B C 0.2733(5) 0.3851(6) 0.1603(5)
H23B H 0.3047 0.3711 0.2135
C40B C 0.1782(4) 0.4689(4) 0.0794(4)
C41B C 0.1218(3) 0.5354(4) 0.0741(4)
Sm1B Sm 0.20219(2) 0.51967(2) 0.29478(2)
N1B N 0.2893(3) 0.5897(3) 0.4298(3)
N2B N 0.1877(3) 0.4641(4) 0.4425(3)
N3B N 0.3103(4) 0.4542(5) 0.7502(4)
N4B N 0.3882(4) 0.5626(4) 0.7423(4)
H24B H 0.4239 0.5998 0.7584
N5B N 0.1129(3) 0.5714(3) 0.1488(3)
N6B N 0.2215(3) 0.4455(4) 0.1576(3)
N7B N 0.0515(3) 0.5354(4) -0.1654(3)
N8B N 0.1401(3) 0.4346(4) -0.1563(3)
H25B H 0.1681 0.3962 -0.1717
O4B O 0.1184(3) 0.6161(3) 0.3356(3)
O5B O 0.0142(3) 0.7077(4) 0.3508(3)
O6B O 0.0153(3) 0.5676(4) 0.4023(3)
O7B O 0.2779(3) 0.8877(3) 0.7356(3)
O8B O 0.3825(3) 0.9255(4) 0.6683(3)
O9B O 0.3761(3) 0.7874(4) 0.7227(3)
O10B O 0.0967(3) 0.4230(3) 0.2554(3)
H26B H 0.106(4) 0.3721(16) 0.262(4)
H27B H 0.0502(19) 0.431(4) 0.226(4)
S2B S 0.06079(12) 0.63764(14) 0.38760(12)
S3B S 0.33349(13) 0.85955(16) 0.68445(13)
Sm1A Sm 0.20219(2) 0.98033(2) 0.79478(2)
Sm1C Sm 0.79781(2) 0.01967(2) 0.20522(2)
O7A O 0.2779(3) 0.6123(3) 0.2356(3)
O7C O 0.7221(3) 0.3877(3) 0.7644(3)
O11 O 0.2482(3) 0.3151(3) 0.8028(3)
H28 H 0.2697 0.2820 0.8417
H29 H 0.2801 0.3532 0.7967
O12 O 0.4943(4) 0.1927(5) 0.6972(5)
H30 H 0.4668 0.1597 0.6600
H31 H 0.4707 0.1865 0.7370
O13 O 0.8734(7) 0.7242(8) 0.7986(8)
O15 O 0.5275(8) 0.8366(9) 0.6231(8)
O16 O 0.5455(17) 0.8354(18) 0.4944(16)
O14? O 0.8998(6) 0.7394(6) 0.7210(6)
O17? O 0.4922(16) 0.8842(18) 0.4594(16)
O18? O 0.545(2) 0.956(3) 0.467(2)
O19? O 0.5308(18) 1.031(2) 0.4617(18)
loop_
_geom_bond_atom_site_label_1
_geom_bond_atom_site_label_2
_geom_bond_site_symmetry_1
_geom_bond_site_symmetry_2
C1 H1 1_555 1_555
C2 C1 1_555 1_555
H2 C2 1_555 1_555
C3 C2 1_555 1_555
H3 C3 1_555 1_555
C4 C3 1_555 1_555
C5 C4 1_555 1_555
C6 C5 1_555 1_555
C7 C6 1_555 1_555
C8 C7 1_555 1_555
H4 C8 1_555 1_555
C9 C8 1_555 1_555
H5 C9 1_555 1_555
C10 C9 1_555 1_555
H6 C10 1_555 1_555
C11 C7 1_555 1_555
C12 C4 1_555 1_555
C13 H7 1_555 1_555
C14 C15 1_555 1_555
C15 H8 1_555 1_555
C16 C15 1_555 1_555
H9 C16 1_555 1_555
C17 C14 1_555 1_555
C18 C16 1_555 1_555
H10 C18 1_555 1_555
C19 C20 1_555 1_555
C20 H11 1_555 1_555
C21 C20 1_555 1_555
H12 C21 1_555 1_555
C22 C21 1_555 1_555
H13 C22 1_555 1_555
C23 C22 1_555 1_555
C24 C23 1_555 1_555
C25 C24 1_555 1_555
H14 C25 1_555 1_555
C26 C25 1_555 1_555
H15 C26 1_555 1_555
C27 C26 1_555 1_555
H16 C27 1_555 1_555
C28 C19 1_555 1_555
C29 H17 1_555 1_555
C30 C29 1_555 1_555
H18 C30 1_555 1_555
C31 C30 1_555 1_555
H19 C31 1_555 1_555
C32 C31 1_555 1_555
C33 C32 1_555 1_555
C34 H20 1_555 1_555
C35 C33 1_555 1_555
C36 C35 1_555 1_555
C37 C36 1_555 1_555
H21 C37 1_555 1_555
C38 C37 1_555 1_555
H22 C38 1_555 1_555
C39 C38 1_555 1_555
H23 C39 1_555 1_555
C40 C36 1_555 1_555
C41 C32 1_555 1_555
Sm1 N1 1_555 1_555
N1 C1 1_555 1_555
N2 C10 1_555 1_555
N3 C6 1_555 1_555
N4 C5 1_555 1_555
H24 N4 1_555 1_555
N5 C29 1_555 1_555
N6 C39 1_555 1_555
N7 C33 1_555 1_555
N8 C34 1_555 1_555
H25 N8 1_555 1_555
O1 Sm1 1_555 1_555
O2 S1 1_555 1_555
O3 S1 1_555 1_555
O4 Sm1 1_555 1_555
O5 S2 1_555 1_555
O6 S2 1_555 1_555
O7 S3 1_555 1_555
O8 S3 1_555 1_555
O9 S3 1_555 1_555
O10 Sm1 1_555 1_555
H26 O10 1_555 1_555
H27 O10 1_555 1_555
S1 C14 1_555 1_555
S2 C19 1_555 1_555
S3 C24 1_555 1_555
O11 H28 1_555 1_555
H29 O11 1_555 1_555
O12 H30 1_555 1_555
H31 O12 1_555 1_555
C14B C15B 1_555 1_555
C15B H8B 1_555 1_555
C16B C15B 1_555 1_555
H9B C16B 1_555 1_555
C17B C17 1_555 1_555
C18B C17 1_555 1_555
H10B C18B 1_555 1_555
O1B S1B 1_555 1_555
O2B S1B 1_555 1_555
O3B S1B 1_555 1_555
S1B C14B 1_555 1_555
C1B H1B 1_555 1_555
C2B C1B 1_555 1_555
H2B C2B 1_555 1_555
C3B C2B 1_555 1_555
H3B C3B 1_555 1_555
C4B C3B 1_555 1_555
C5B C4B 1_555 1_555
C6B C5B 1_555 1_555
C7B C6B 1_555 1_555
C8B C7B 1_555 1_555
H4B C8B 1_555 1_555
C9B C8B 1_555 1_555
H5B C9B 1_555 1_555
C10B C9B 1_555 1_555
H6B C10B 1_555 1_555
C11B C7B 1_555 1_555
C12B C4B 1_555 1_555
C13B H7B 1_555 1_555
C19B C20B 1_555 1_555
C20B H11B 1_555 1_555
C21B C20B 1_555 1_555
H12B C21B 1_555 1_555
C22B C21B 1_555 1_555
H13B C22B 1_555 1_555
C23B C22B 1_555 1_555
C24B C23B 1_555 1_555
C25B C24B 1_555 1_555
H14B C25B 1_555 1_555
C26B C25B 1_555 1_555
H15B C26B 1_555 1_555
C27B C26B 1_555 1_555
H16B C27B 1_555 1_555
C28B C19B 1_555 1_555
C29B H17B 1_555 1_555
C30B C29B 1_555 1_555
H18B C30B 1_555 1_555
C31B C30B 1_555 1_555
H19B C31B 1_555 1_555
C32B C31B 1_555 1_555
C33B C32B 1_555 1_555
C34B H20B 1_555 1_555
C35B C33B 1_555 1_555
C36B C35B 1_555 1_555
C37B C36B 1_555 1_555
H21B C37B 1_555 1_555
C38B C37B 1_555 1_555
H22B C38B 1_555 1_555
C39B C38B 1_555 1_555
H23B C39B 1_555 1_555
C40B C36B 1_555 1_555
C41B C32B 1_555 1_555
Sm1B O1B 1_555 1_555
N1B C1B 1_555 1_555
N2B C10B 1_555 1_555
N3B C6B 1_555 1_555
N4B C5B 1_555 1_555
H24B N4B 1_555 1_555
N5B C29B 1_555 1_555
N6B C39B 1_555 1_555
N7B C33B 1_555 1_555
N8B C34B 1_555 1_555
H25B N8B 1_555 1_555
O4B Sm1B 1_555 1_555
O5B S2B 1_555 1_555
O6B S2B 1_555 1_555
O7B S3B 1_555 1_555
O8B S3B 1_555 1_555
O9B S3B 1_555 1_555
O10B Sm1B 1_555 1_555
H26B O10B 1_555 1_555
H27B O10B 1_555 1_555
S2B C19B 1_555 1_555
S3B C24B 1_555 1_555
Sm1A O7B 1_555 1_555
Sm1C O7 1_555 1_555
O7A Sm1B 1_555 1_555
O7C Sm1 1_555 1_555
C11 C12 1_555 1_555
C11 N2 1_555 1_555
C12 N1 1_555 1_555
C13 N3 1_555 1_555
C13 N4 1_555 1_555
C18 C17B 1_555 1_555
C23 C28 1_555 1_555
C27 C28 1_555 1_555
C34 N7 1_555 1_555
C35 N8 1_555 1_555
C40 C41 1_555 1_555
C40 N6 1_555 1_555
C41 N5 1_555 1_555
Sm1 N2 1_555 1_555
Sm1 N5 1_555 1_555
Sm1 N6 1_555 1_555
O1 S1 1_555 1_555
O4 S2 1_555 1_555
C14B C17B 1_555 1_555
C16B C18B 1_555 1_555
C11B C12B 1_555 1_555
C11B N2B 1_555 1_555
C12B N1B 1_555 1_555
C13B N3B 1_555 1_555
C13B N4B 1_555 1_555
C23B C28B 1_555 1_555
C27B C28B 1_555 1_555
C34B N7B 1_555 1_555
C35B N8B 1_555 1_555
C40B C41B 1_555 1_555
C40B N6B 1_555 1_555
C41B N5B 1_555 1_555
Sm1B N1B 1_555 1_555
Sm1B N2B 1_555 1_555
Sm1B N5B 1_555 1_555
Sm1B N6B 1_555 1_555
O4B S2B 1_555 1_555

#END
