
#######################################################################
#
#                 Cambridge Crystallographic Data Centre
#                                CCDC 
#
#######################################################################
#
# If this CIF has been generated from an entry in the Cambridge 
# Structural Database, then it will include bibliographic, chemical, 
# crystal, experimental, refinement or atomic coordinate data resulting 
# from the CCDC's data processing and validation procedures.
#
#######################################################################

data_RULNIW
_symmetry_cell_setting           triclinic
_symmetry_space_group_name_H-M   'P -1'
_symmetry_Int_Tables_number      2
_space_group_name_Hall           '-P 1'
loop_
_symmetry_equiv_pos_site_id
_symmetry_equiv_pos_as_xyz
1 x,y,z
2 -x,-y,-z
_cell_length_a                   11.800(2)
_cell_length_b                   12.800(3)
_cell_length_c                   16.800(3)
_cell_angle_alpha                70.70(3)
_cell_angle_beta                 79.80(3)
_cell_angle_gamma                65.20(3)
_cell_volume                     2171.82
loop_
_atom_site_label
_atom_site_type_symbol
_atom_site_fract_x
_atom_site_fract_y
_atom_site_fract_z
Cu1 Cu -0.02775(6) 0.51273(6) 0.07724(5)
O1 O 0.9015(4) -0.0230(4) 0.1045(3)
O2 O 0.5969(4) 0.3130(4) -0.0387(3)
O3 O 0.5139(4) -0.0153(4) 0.1091(3)
O4 O 0.1394(4) 0.3919(4) 0.1093(3)
O5 O 0.9141(4) 0.3816(4) 0.1005(3)
O6 O 0.1858(4) 0.3757(4) -0.0224(3)
O7 O 0.9520(4) 0.3674(4) -0.0313(3)
O8 O 0.9213(4) -0.4575(3) 0.2004(3)
O9 O 0.8807(5) -0.3513(4) 0.2913(3)
N1 N 0.5550(5) 0.1471(4) 0.0296(3)
N2 N 0.7544(5) 0.1413(4) 0.0252(3)
N3 N 0.7096(5) -0.0239(4) 0.1080(3)
C1 C 0.6321(6) 0.2090(5) 0.0024(4)
C2 C 0.7958(6) 0.0268(5) 0.0811(4)
C3 C 0.5871(6) 0.0334(5) 0.0839(4)
C4 C 0.4220(5) 0.2135(6) 0.0082(4)
H1 H 0.3897 0.1588 0.0013
H2 H 0.4153 0.2758 -0.0450
C5 C 0.3446(6) 0.2698(6) 0.0766(4)
H3 H 0.3425 0.2065 0.1275
H4 H 0.3847 0.3147 0.0891
C6 C 0.2120(6) 0.3530(6) 0.0523(4)
C7 C 0.7445(6) -0.1356(5) 0.1791(4)
H5 H 0.6693 -0.1430 0.2100
H6 H 0.7937 -0.1309 0.2174
C8 C 0.8181(7) -0.2445(6) 0.1492(4)
H7 H 0.8838 -0.2296 0.1094
H8 H 0.7634 -0.2563 0.1192
C9 C 0.8771(6) -0.3599(6) 0.2189(4)
C10 C 0.8421(6) 0.2045(6) -0.0002(4)
H9 H 0.8199 0.2650 -0.0542
H10 H 0.9268 0.1475 -0.0061
C11 C 0.8348(6) 0.2630(6) 0.0661(4)
H11 H 0.7477 0.3103 0.0770
H12 H 0.8658 0.2005 0.1180
C12 C 0.9073(5) 0.3436(5) 0.0434(4)
Cu1_2 Cu -1.02775(6) 0.51273(6) 0.07724(5)
Cu1A Cu 0.02775(6) 0.48727(6) -0.07724(5)
Cu1_3 Cu 0.97225(6) 0.51273(6) 0.07724(5)
Cu1A_2 Cu 1.02775(6) 0.48727(6) -0.07724(5)
Cu1_4 Cu 0.97225(6) -0.48727(6) 0.07724(5)
Cu1A_3 Cu -0.97225(6) 0.48727(6) -0.07724(5)
Cu1_5 Cu -0.02775(6) -0.48727(6) 0.07724(5)
O1_2 O -0.0985(4) -0.0230(4) 0.1045(3)
O2_2 O -0.4031(4) 0.3130(4) -0.0387(3)
O3_2 O -0.4861(4) -0.0153(4) 0.1091(3)
O4_2 O -0.8606(4) 0.3919(4) 0.1093(3)
O4A O -0.1394(4) 0.6081(4) -0.1093(3)
O5_2 O -0.0859(4) 0.3816(4) 0.1005(3)
O5A O 0.0859(4) 0.6184(4) -0.1005(3)
O6_2 O -0.8142(4) 0.3757(4) -0.0224(3)
O6A O -0.1858(4) 0.6243(4) 0.0224(3)
O7_2 O -0.0480(4) 0.3674(4) -0.0313(3)
O7A O 0.0480(4) 0.6326(4) 0.0313(3)
O8_2 O -0.0787(4) -0.4575(3) 0.2004(3)
O8_3 O -0.0787(4) 0.5425(3) 0.2004(3)
O8A O 0.0787(4) 0.4575(3) -0.2004(3)
O9_2 O -0.1193(5) -0.3513(4) 0.2913(3)
N1_2 N -0.4450(5) 0.1471(4) 0.0296(3)
N2_2 N -0.2456(5) 0.1413(4) 0.0252(3)
N3_2 N -0.2904(5) -0.0239(4) 0.1080(3)
C1_2 C -0.3679(6) 0.2090(5) 0.0024(4)
C2_2 C -0.2042(6) 0.0268(5) 0.0811(4)
C3_2 C -0.4129(6) 0.0334(5) 0.0839(4)
C4_2 C -0.5780(5) 0.2135(6) 0.0082(4)
H1_2 H -0.6103 0.1588 0.0013
H2_2 H -0.5847 0.2758 -0.0450
C5_2 C -0.6554(6) 0.2698(6) 0.0766(4)
H3_2 H -0.6575 0.2065 0.1275
H4_2 H -0.6153 0.3147 0.0891
C6_2 C -0.7880(6) 0.3530(6) 0.0523(4)
C7_2 C -0.2555(6) -0.1356(5) 0.1791(4)
H5_2 H -0.3307 -0.1430 0.2100
H6_2 H -0.2063 -0.1309 0.2174
C8_2 C -0.1819(7) -0.2445(6) 0.1492(4)
H7_2 H -0.1162 -0.2296 0.1094
H8_2 H -0.2366 -0.2563 0.1192
C9_2 C -0.1229(6) -0.3599(6) 0.2189(4)
C10_2 C -0.1579(6) 0.2045(6) -0.0002(4)
H9_2 H -0.1801 0.2650 -0.0542
H10_2 H -0.0732 0.1475 -0.0061
C11_2 C -0.1652(6) 0.2630(6) 0.0661(4)
H11_2 H -0.2523 0.3103 0.0770
H12_2 H -0.1342 0.2005 0.1180
C12_2 C -0.0927(5) 0.3436(5) 0.0434(4)
Cu2 Cu 0.5000 0.5000 0.5000
Cu3 Cu 0.22062(7) 0.57770(7) 0.48615(5)
Cu4 Cu 0.57398(8) 0.71773(7) 0.49816(5)
O10 O 0.3919(4) 0.3661(4) 0.7327(3)
O11 O 0.7896(4) 0.2351(4) 0.8023(3)
O12 O 0.5214(5) 0.6093(5) 0.8032(3)
O13 O 0.2318(4) 0.6375(4) 0.5796(3)
O14 O 0.4374(4) 0.5854(4) 0.5854(3)
O15 O 0.7865(4) 0.4604(4) 0.6169(3)
O16 O 0.6851(6) 0.6578(5) 0.5879(4)
O17 O 0.6160(4) 0.3402(4) 0.5895(3)
O18 O 0.5509(4) 0.1999(4) 0.5856(3)
O19 O 0.6415(4) 0.5701(4) 0.4655(3)
O20 O 0.0852(4) 0.7348(4) 0.4455(3)
O21 O 0.0617(5) 0.5189(5) 0.5572(3)
O22 O 0.7026(6) 0.7982(5) 0.4007(4)
O23 O 0.4896(5) 0.8583(5) 0.5417(4)
N4 N 0.4503(5) 0.4886(5) 0.7743(3)
N5 N 0.5888(5) 0.2941(5) 0.7759(3)
N6 N 0.6617(5) 0.4314(5) 0.7887(3)
C13 C 0.4704(6) 0.3830(6) 0.7573(4)
C14 C 0.6861(6) 0.3157(6) 0.7903(4)
C15 C 0.5430(6) 0.5163(6) 0.7895(4)
C16 C 0.3223(6) 0.5814(7) 0.7663(4)
H13 H 0.3029 0.6168 0.8125
H14 H 0.2642 0.5436 0.7715
C17 C 0.3033(6) 0.6804(6) 0.6836(4)
H15 H 0.2190 0.7406 0.6837
H16 H 0.3610 0.7188 0.6780
C18 C 0.3240(6) 0.6324(5) 0.6100(4)
C19 C 0.7685(6) 0.4617(6) 0.7929(4)
H17 H 0.8451 0.3904 0.7980
H18 H 0.7570 0.4880 0.8428
C20 C 0.7805(7) 0.5589(7) 0.7161(4)
H19 H 0.8660 0.5531 0.7105
H20 H 0.7273 0.6359 0.7256
C21 C 0.7479(6) 0.5580(6) 0.6337(4)
C22 C 0.6148(6) 0.1740(6) 0.7715(4)
H21 H 0.5362 0.1649 0.7753
H22 H 0.6623 0.1148 0.8196
C23 C 0.6873(6) 0.1486(6) 0.6906(4)
H23 H 0.7035 0.0674 0.6917
H24 H 0.7670 0.1555 0.6868
C24 C 0.6131(6) 0.2368(6) 0.6146(4)
Cu3A Cu 0.77938(7) 0.42230(7) 0.51385(5)
Cu4A Cu 0.42602(8) 0.28227(7) 0.50184(5)
O10A O 0.6081(4) 0.6339(4) 0.2673(3)
O11A O 0.2104(4) 0.7649(4) 0.1977(3)
O12A O 0.4786(5) 0.3907(5) 0.1968(3)
O13A O 0.7682(4) 0.3625(4) 0.4204(3)
O14A O 0.5626(4) 0.4146(4) 0.4146(3)
O15A O 0.2135(4) 0.5396(4) 0.3831(3)
O16A O 0.3149(6) 0.3422(5) 0.4121(4)
O17A O 0.3840(4) 0.6598(4) 0.4105(3)
O18A O 0.4491(4) 0.8001(4) 0.4144(3)
O19A O 0.3585(4) 0.4299(4) 0.5345(3)
O20A O 0.9148(4) 0.2652(4) 0.5545(3)
O21A O 0.9383(5) 0.4811(5) 0.4428(3)
O22A O 0.2974(6) 0.2018(5) 0.5993(4)
O23A O 0.5104(5) 0.1417(5) 0.4583(4)
N4A N 0.5497(5) 0.5114(5) 0.2257(3)
N5A N 0.4112(5) 0.7059(5) 0.2241(3)
N6A N 0.3383(5) 0.5686(5) 0.2113(3)
C13A C 0.5296(6) 0.6170(6) 0.2427(4)
C14A C 0.3139(6) 0.6843(6) 0.2097(4)
C15A C 0.4570(6) 0.4837(6) 0.2105(4)
C16A C 0.6777(6) 0.4186(7) 0.2337(4)
H13A H 0.6971 0.3832 0.1875
H14A H 0.7358 0.4564 0.2285
C17A C 0.6967(6) 0.3196(6) 0.3164(4)
H15A H 0.7810 0.2594 0.3163
H16A H 0.6390 0.2812 0.3220
C18A C 0.6760(6) 0.3676(5) 0.3900(4)
C19A C 0.2315(6) 0.5383(6) 0.2071(4)
H17A H 0.1549 0.6096 0.2020
H18A H 0.2430 0.5120 0.1572
C20A C 0.2195(7) 0.4411(7) 0.2839(4)
H19A H 0.1340 0.4469 0.2895
H20A H 0.2727 0.3641 0.2744
C21A C 0.2521(6) 0.4420(6) 0.3663(4)
C22A C 0.3852(6) 0.8260(6) 0.2285(4)
H21A H 0.4638 0.8351 0.2247
H22A H 0.3377 0.8852 0.1804
C23A C 0.3127(6) 0.8514(6) 0.3094(4)
H23A H 0.2965 0.9326 0.3083
H24A H 0.2330 0.8445 0.3132
C24A C 0.3869(6) 0.7632(6) 0.3854(4)
O24 O 0.8471(6) 0.0347(5) 0.2959(4)
O25 O 0.9907(4) 0.7966(4) 0.2966(3)
O26 O 0.2474(8) 0.9977(12) 0.5396(6)
O27 O 0.0963(6) 0.9405(6) 0.4502(5)
O28 O 0.0112(5) 0.6794(5) 0.6812(3)
O29 O 0.0307(7) 0.1224(8) 0.2584(8)
O30 O 0.1170(9) 0.0306(9) 0.1141(9)
O31 O 0.8042(14) 0.8775(12) 0.6318(14)
O32 O 0.4468(6) 0.0593(5) 0.3449(4)
O33 O 0.6099(5) 0.1411(5) 0.2212(3)
O34? O 0.8310(19) 0.7908(17) 0.5503(19)
loop_
_geom_bond_atom_site_label_1
_geom_bond_atom_site_label_2
_geom_bond_site_symmetry_1
_geom_bond_site_symmetry_2
Cu1 O4 1_555 1_555
O1 C2 1_555 1_555
O2 C1 1_555 1_555
O3 C3 1_555 1_555
O4 C6 1_555 1_555
O5 C12 1_555 1_555
O6 C6 1_555 1_555
O7 C12 1_555 1_555
O8 C9 1_555 1_555
O9 C9 1_555 1_555
N1 C1 1_555 1_555
N2 C1 1_555 1_555
N3 C2 1_555 1_555
C2 N2 1_555 1_555
C3 N1 1_555 1_555
C4 N1 1_555 1_555
H1 C4 1_555 1_555
H2 C4 1_555 1_555
C5 C4 1_555 1_555
H3 C5 1_555 1_555
H4 C5 1_555 1_555
C6 C5 1_555 1_555
C7 N3 1_555 1_555
H5 C7 1_555 1_555
H6 C7 1_555 1_555
C8 C7 1_555 1_555
H7 C8 1_555 1_555
H8 C8 1_555 1_555
C9 C8 1_555 1_555
C10 N2 1_555 1_555
H9 C10 1_555 1_555
H10 C10 1_555 1_555
C11 C10 1_555 1_555
H11 C11 1_555 1_555
H12 C11 1_555 1_555
C12 C11 1_555 1_555
Cu2 O14 1_555 1_555
Cu3 O13 1_555 1_555
Cu4 O14 1_555 1_555
O10 C13 1_555 1_555
O11 C14 1_555 1_555
O12 C15 1_555 1_555
O13 C18 1_555 1_555
O14 C18 1_555 1_555
O15 C21 1_555 1_555
O16 Cu4 1_555 1_555
O17 Cu2 1_555 1_555
O18 C24 1_555 1_555
O19 Cu2 1_555 1_555
O20 Cu3 1_555 1_555
O21 Cu3 1_555 1_555
O22 Cu4 1_555 1_555
O23 Cu4 1_555 1_555
N4 C13 1_555 1_555
N5 C13 1_555 1_555
N6 C14 1_555 1_555
C14 N5 1_555 1_555
C15 N4 1_555 1_555
C16 N4 1_555 1_555
H13 C16 1_555 1_555
H14 C16 1_555 1_555
C17 C16 1_555 1_555
H15 C17 1_555 1_555
H16 C17 1_555 1_555
C18 C17 1_555 1_555
C19 N6 1_555 1_555
H17 C19 1_555 1_555
H18 C19 1_555 1_555
C20 C19 1_555 1_555
H19 C20 1_555 1_555
H20 C20 1_555 1_555
C21 O16 1_555 1_555
C22 N5 1_555 1_555
H21 C22 1_555 1_555
H22 C22 1_555 1_555
C23 C22 1_555 1_555
H23 C23 1_555 1_555
H24 C23 1_555 1_555
C24 O17 1_555 1_555
Cu1_2 O4_2 1_555 1_555
Cu1A O6 1_555 1_555
Cu1_3 O5 1_555 1_555
Cu1A_2 O7 1_555 1_555
Cu1_4 O8 1_555 1_555
Cu1A_3 O6_2 1_555 1_555
Cu1_5 O8_2 1_555 1_555
O1_2 C2_2 1_555 1_555
O2_2 C1_2 1_555 1_555
O3_2 C3_2 1_555 1_555
O4_2 C6_2 1_555 1_555
O4A Cu1A 1_555 1_555
O5_2 Cu1 1_555 1_555
O5A Cu1A 1_555 1_555
O6_2 C6_2 1_555 1_555
O6A Cu1 1_555 1_555
O7_2 Cu1A 1_555 1_555
O7A Cu1 1_555 1_555
O8_2 C9_2 1_555 1_555
O8_3 Cu1 1_555 1_555
O8A Cu1A 1_555 1_555
O9_2 C9_2 1_555 1_555
N1_2 C1_2 1_555 1_555
N2_2 C1_2 1_555 1_555
N3_2 C2_2 1_555 1_555
C2_2 N2_2 1_555 1_555
C3_2 N1_2 1_555 1_555
C4_2 N1_2 1_555 1_555
H1_2 C4_2 1_555 1_555
H2_2 C4_2 1_555 1_555
C5_2 C4_2 1_555 1_555
H3_2 C5_2 1_555 1_555
H4_2 C5_2 1_555 1_555
C6_2 C5_2 1_555 1_555
C7_2 N3_2 1_555 1_555
H5_2 C7_2 1_555 1_555
H6_2 C7_2 1_555 1_555
C8_2 C7_2 1_555 1_555
H7_2 C8_2 1_555 1_555
H8_2 C8_2 1_555 1_555
C9_2 C8_2 1_555 1_555
C10_2 N2_2 1_555 1_555
H9_2 C10_2 1_555 1_555
H10_2 C10_2 1_555 1_555
C11_2 C10_2 1_555 1_555
H11_2 C11_2 1_555 1_555
H12_2 C11_2 1_555 1_555
C12_2 O5_2 1_555 1_555
Cu3A O15 1_555 1_555
Cu4A O18 1_555 1_555
O10A C13A 1_555 1_555
O11A C14A 1_555 1_555
O12A C15A 1_555 1_555
O13A Cu3A 1_555 1_555
O14A Cu2 1_555 1_555
O15A Cu3 1_555 1_555
O16A Cu4A 1_555 1_555
O17A Cu2 1_555 1_555
O18A Cu4 1_555 1_555
O19A Cu2 1_555 1_555
O20A Cu3A 1_555 1_555
O21A Cu3A 1_555 1_555
O22A Cu4A 1_555 1_555
O23A Cu4A 1_555 1_555
N4A C13A 1_555 1_555
N5A C13A 1_555 1_555
N6A C14A 1_555 1_555
C14A N5A 1_555 1_555
C15A N4A 1_555 1_555
C16A N4A 1_555 1_555
H13A C16A 1_555 1_555
H14A C16A 1_555 1_555
C17A C16A 1_555 1_555
H15A C17A 1_555 1_555
H16A C17A 1_555 1_555
C18A O13A 1_555 1_555
C19A N6A 1_555 1_555
H17A C19A 1_555 1_555
H18A C19A 1_555 1_555
C20A C19A 1_555 1_555
H19A C20A 1_555 1_555
H20A C20A 1_555 1_555
C21A O15A 1_555 1_555
C22A N5A 1_555 1_555
H21A C22A 1_555 1_555
H22A C22A 1_555 1_555
C23A C22A 1_555 1_555
H23A C23A 1_555 1_555
H24A C23A 1_555 1_555
C24A O17A 1_555 1_555
N3 C3 1_555 1_555
Cu3 O17A 1_555 1_555
Cu3 O19A 1_555 1_555
Cu4 O19 1_555 1_555
O17 Cu3A 1_555 1_555
O19 Cu3A 1_555 1_555
N6 C15 1_555 1_555
C20 C21 1_555 1_555
C23 C24 1_555 1_555
O7_2 C12_2 1_555 1_555
N3_2 C3_2 1_555 1_555
C11_2 C12_2 1_555 1_555
Cu4A O14A 1_555 1_555
Cu4A O19A 1_555 1_555
O14A C18A 1_555 1_555
O16A C21A 1_555 1_555
O18A C24A 1_555 1_555
N6A C15A 1_555 1_555
C17A C18A 1_555 1_555
C20A C21A 1_555 1_555
C23A C24A 1_555 1_555

#END
