
#######################################################################
#
#                 Cambridge Crystallographic Data Centre
#                                CCDC 
#
#######################################################################
#
# If this CIF has been generated from an entry in the Cambridge 
# Structural Database, then it will include bibliographic, chemical, 
# crystal, experimental, refinement or atomic coordinate data resulting 
# from the CCDC's data processing and validation procedures.
#
#######################################################################

data_RULPIZ
_symmetry_cell_setting           monoclinic
_symmetry_space_group_name_H-M   'P 21/c'
_symmetry_Int_Tables_number      14
_space_group_name_Hall           '-P 2ybc'
loop_
_symmetry_equiv_pos_site_id
_symmetry_equiv_pos_as_xyz
1 x,y,z
2 -x,1/2+y,1/2-z
3 -x,-y,-z
4 x,1/2-y,1/2+z
_cell_length_a                   17.2852(19)
_cell_length_b                   16.1853(17)
_cell_length_c                   15.9746(17)
_cell_angle_alpha                90
_cell_angle_beta                 103.335(2)
_cell_angle_gamma                90
_cell_volume                     4348.66
loop_
_atom_site_label
_atom_site_type_symbol
_atom_site_fract_x
_atom_site_fract_y
_atom_site_fract_z
C1 C 0.6635(3) 0.3464(3) 0.5792(3)
H1 H 0.6654 0.3238 0.6332
C2 C 0.6121(3) 0.3116(3) 0.5091(3)
H2 H 0.5804 0.2669 0.5163
C3 C 0.6079(3) 0.3429(3) 0.4297(3)
H3 H 0.5734 0.3202 0.3818
C4 C 0.6565(3) 0.4099(3) 0.4209(3)
C5 C 0.6570(3) 0.4493(3) 0.3410(3)
C6 C 0.7040(3) 0.5155(3) 0.3345(3)
C7 C 0.7596(3) 0.5466(3) 0.4074(3)
C8 C 0.8132(3) 0.6116(3) 0.4043(3)
H4 H 0.8131 0.6380 0.3526
C9 C 0.8643(3) 0.6348(3) 0.4771(4)
H5 H 0.9007 0.6769 0.4759
C10 C 0.8630(3) 0.5957(3) 0.5543(3)
H6 H 0.8995 0.6124 0.6038
C11 C 0.7611(3) 0.5106(3) 0.4883(3)
C12 C 0.7074(3) 0.4424(3) 0.4943(3)
C13 C 0.6352(4) 0.4933(4) 0.2095(4)
H7 H 0.6138 0.4971 0.1507
C14 C 0.5760(3) 0.5842(3) 0.5213(3)
C15 C 0.5721(3) 0.6132(3) 0.4403(3)
H8 H 0.6047 0.6566 0.4317
C16 C 0.5192(3) 0.5780(3) 0.3704(3)
H9 H 0.5167 0.5986 0.3155
C17 C 0.5268(3) 0.5176(3) 0.5363(3)
C18 C 0.4711(3) 0.5140(3) 0.3808(3)
H10 H 0.4367 0.4910 0.3330
C19 C 0.8791(3) 0.3285(3) 0.5130(3)
C20 C 0.8883(3) 0.3692(3) 0.4408(3)
H11 H 0.9227 0.4140 0.4459
C21 C 0.8458(3) 0.3432(3) 0.3587(3)
H12 H 0.8534 0.3698 0.3096
C22 C 0.7937(3) 0.2795(3) 0.3515(3)
H13 H 0.7652 0.2640 0.2970
C23 C 0.7811(3) 0.2358(3) 0.4236(3)
C24 C 0.7269(3) 0.1694(3) 0.4177(3)
C25 C 0.7179(3) 0.1285(3) 0.4895(3)
H14 H 0.6823 0.0847 0.4842
C26 C 0.7621(3) 0.1520(3) 0.5715(3)
H15 H 0.7560 0.1237 0.6202
C27 C 0.8132(3) 0.2156(3) 0.5790(3)
H16 H 0.8417 0.2307 0.6336
C28 C 0.8253(3) 0.2604(3) 0.5072(3)
C29 C 0.9367(3) 0.3673(3) 0.8546(3)
H17 H 0.9419 0.3431 0.8034
C30 C 0.9836(3) 0.3369(3) 0.9321(3)
H18 H 1.0185 0.2932 0.9319
C31 C 0.9772(3) 0.3719(3) 1.0069(3)
H19 H 1.0077 0.3523 1.0589
C32 C 0.9244(3) 0.4382(3) 1.0059(3)
C33 C 0.9128(3) 0.4789(3) 1.0808(3)
C34 C 0.9164(3) 0.5191(3) 1.2088(3)
H20 H 0.9299 0.5243 1.2684
C35 C 0.8581(3) 0.5411(3) 1.0755(3)
C36 C 0.8115(3) 0.5705(3) 0.9955(3)
C37 C 0.7581(4) 0.6362(4) 0.9887(3)
H21 H 0.7521 0.6640 1.0378
C38 C 0.7150(4) 0.6593(4) 0.9101(4)
H22 H 0.6793 0.7031 0.9040
C39 C 0.7260(4) 0.6156(4) 0.8392(4)
H23 H 0.6948 0.6304 0.7857
C40 C 0.8209(3) 0.5320(3) 0.9204(3)
C41 C 0.8784(3) 0.4647(3) 0.9258(3)
Dy1 Dy 0.796793(13) 0.480440(13) 0.706279(13)
N1 N 0.7106(2) 0.4107(2) 0.5742(2)
N2 N 0.8123(2) 0.5358(2) 0.5611(2)
N3 N 0.6898(3) 0.5445(3) 0.2495(3)
N4 N 0.6116(3) 0.4347(3) 0.2582(3)
H24 H 0.5764 0.3969 0.2419
N5 N 0.8854(2) 0.4288(2) 0.8505(2)
N6 N 0.7774(3) 0.5541(3) 0.8414(2)
N7 N 0.9502(2) 0.4654(2) 1.1669(2)
N8 N 0.8608(2) 0.5658(3) 1.1579(2)
H25 H 0.8325 0.6037 1.1738
O1 O 0.69381(18) 0.57083(18) 0.65549(19)
O2 O 0.6847(2) 0.6950(2) 0.5709(2)
O3 O 0.5927(2) 0.6708(2) 0.6606(2)
O4 O 0.87881(19) 0.38592(19) 0.66509(19)
O5 O 0.9825(2) 0.2927(2) 0.6527(2)
O6 O 0.9823(2) 0.4328(2) 0.5977(2)
O7 O 0.72156(19) 0.1090(2) 0.2655(2)
O8 O 0.6179(2) 0.0701(3) 0.3346(3)
O9 O 0.6227(2) 0.2077(3) 0.2787(2)
O10 O 0.9004(2) 0.5743(2) 0.7448(2)
H26 H 0.892(3) 0.6251(14) 0.748(3)
H27 H 0.9468(17) 0.563(3) 0.776(3)
S1 S 0.64131(8) 0.63523(7) 0.60766(8)
S2 S 0.93658(8) 0.36315(9) 0.61354(8)
S3 S 0.66617(8) 0.13647(10) 0.31712(9)
C14B C 0.4240(3) 0.4158(3) 0.4787(3)
C15B C 0.4279(3) 0.3868(3) 0.5597(3)
H8B H 0.3953 0.3434 0.5683
C16B C 0.4808(3) 0.4220(3) 0.6296(3)
H9B H 0.4833 0.4014 0.6845
C17B C 0.4732(3) 0.4824(3) 0.4637(3)
C18B C 0.5289(3) 0.4860(3) 0.6192(3)
H10B H 0.5633 0.5090 0.6670
O1B O 0.30619(18) 0.42917(18) 0.34451(19)
O2B O 0.3153(2) 0.3050(2) 0.4291(2)
O3B O 0.4073(2) 0.3292(2) 0.3394(2)
S1B S 0.35869(8) 0.36477(7) 0.39234(8)
C1B C 0.3365(3) 0.6536(3) 0.4208(3)
H1B H 0.3346 0.6762 0.3668
C2B C 0.3879(3) 0.6884(3) 0.4909(3)
H2B H 0.4196 0.7331 0.4837
C3B C 0.3921(3) 0.6571(3) 0.5703(3)
H3B H 0.4266 0.6798 0.6182
C4B C 0.3435(3) 0.5901(3) 0.5791(3)
C5B C 0.3430(3) 0.5507(3) 0.6590(3)
C6B C 0.2960(3) 0.4845(3) 0.6655(3)
C7B C 0.2404(3) 0.4534(3) 0.5926(3)
C8B C 0.1868(3) 0.3884(3) 0.5957(3)
H4B H 0.1869 0.3620 0.6474
C9B C 0.1357(3) 0.3652(3) 0.5229(4)
H5B H 0.0993 0.3231 0.5241
C10B C 0.1370(3) 0.4043(3) 0.4457(3)
H6B H 0.1005 0.3876 0.3962
C11B C 0.2389(3) 0.4894(3) 0.5117(3)
C12B C 0.2926(3) 0.5576(3) 0.5057(3)
C13B C 0.3648(4) 0.5067(4) 0.7905(4)
H7B H 0.3862 0.5029 0.8493
C19B C 0.1209(3) 0.6715(3) 0.4870(3)
C20B C 0.1117(3) 0.6308(3) 0.5592(3)
H11B H 0.0773 0.5860 0.5541
C21B C 0.1542(3) 0.6568(3) 0.6413(3)
H12B H 0.1466 0.6302 0.6904
C22B C 0.2063(3) 0.7205(3) 0.6485(3)
H13B H 0.2348 0.7360 0.7030
C23B C 0.2189(3) 0.7642(3) 0.5764(3)
C24B C 0.2731(3) 0.8306(3) 0.5823(3)
C25B C 0.2821(3) 0.8715(3) 0.5105(3)
H14B H 0.3177 0.9153 0.5158
C26B C 0.2379(3) 0.8480(3) 0.4285(3)
H15B H 0.2440 0.8763 0.3798
C27B C 0.1868(3) 0.7844(3) 0.4210(3)
H16B H 0.1583 0.7693 0.3664
C28B C 0.1747(3) 0.7396(3) 0.4928(3)
C29B C 0.0633(3) 0.6327(3) 0.1454(3)
H17B H 0.0581 0.6569 0.1966
C30B C 0.0164(3) 0.6631(3) 0.0679(3)
H18B H -0.0185 0.7068 0.0681
C31B C 0.0228(3) 0.6281(3) -0.0069(3)
H19B H -0.0077 0.6477 -0.0589
C32B C 0.0756(3) 0.5618(3) -0.0059(3)
C33B C 0.0872(3) 0.5211(3) -0.0808(3)
C34B C 0.0836(3) 0.4809(3) -0.2088(3)
H20B H 0.0701 0.4757 -0.2684
C35B C 0.1419(3) 0.4589(3) -0.0755(3)
C36B C 0.1885(3) 0.4295(3) 0.0045(3)
C37B C 0.2419(4) 0.3638(4) 0.0113(3)
H21B H 0.2479 0.3360 -0.0378
C38B C 0.2850(4) 0.3407(4) 0.0899(4)
H22B H 0.3207 0.2969 0.0960
C39B C 0.2740(4) 0.3844(4) 0.1608(4)
H23B H 0.3052 0.3696 0.2143
C40B C 0.1791(3) 0.4680(3) 0.0796(3)
C41B C 0.1216(3) 0.5353(3) 0.0742(3)
Dy1B Dy 0.203207(13) 0.519560(13) 0.293721(13)
N1B N 0.2894(2) 0.5893(2) 0.4258(2)
N2B N 0.1877(2) 0.4642(2) 0.4389(2)
N3B N 0.3102(3) 0.4555(3) 0.7505(3)
N4B N 0.3884(3) 0.5653(3) 0.7418(3)
H24B H 0.4236 0.6031 0.7581
N5B N 0.1146(2) 0.5712(2) 0.1495(2)
N6B N 0.2226(3) 0.4459(3) 0.1586(2)
N7B N 0.0498(2) 0.5346(2) -0.1669(2)
N8B N 0.1392(2) 0.4342(3) -0.1579(2)
H25B H 0.1675 0.3963 -0.1738
O4B O 0.12119(19) 0.61408(19) 0.33491(19)
O5B O 0.0175(2) 0.7073(2) 0.3473(2)
O6B O 0.0177(2) 0.5672(2) 0.4023(2)
O7B O 0.27844(19) 0.8910(2) 0.7345(2)
O8B O 0.3821(2) 0.9299(3) 0.6654(3)
O9B O 0.3773(2) 0.7923(3) 0.7213(2)
O10B O 0.0996(2) 0.4257(2) 0.2552(2)
H26B H 0.108(3) 0.3749(14) 0.252(3)
H27B H 0.0532(17) 0.437(3) 0.224(3)
S2B S 0.06342(8) 0.63685(9) 0.38646(8)
S3B S 0.33383(8) 0.86353(10) 0.68288(9)
Dy1A Dy 0.203207(13) 0.980440(13) 0.793721(13)
Dy1C Dy 0.796793(13) 0.019560(13) 0.206279(13)
O7A O 0.27844(19) 0.6090(2) 0.2345(2)
O7C O 0.72156(19) 0.3910(2) 0.7655(2)
O11 O 0.2481(2) 0.3144(2) 0.8008(2)
H28 H 0.2696 0.2813 0.8396
H29 H 0.2800 0.3525 0.7947
O12 O 0.4946(3) 0.1936(4) 0.6982(4)
H30 H 0.4672 0.1606 0.6610
H31 H 0.4711 0.1874 0.7380
O13 O 0.8745(5) 0.7233(5) 0.8011(5)
O15 O 0.5285(7) 0.8368(6) 0.6240(7)
O16 O 0.5436(16) 0.8349(15) 0.4957(16)
O14? O 0.8959(5) 0.7371(5) 0.7256(5)
O17? O 0.4938(18) 0.8852(19) 0.4636(19)
O18? O 0.548(2) 0.945(2) 0.456(2)
O19? O 0.5330(16) 1.0195(17) 0.4658(17)
loop_
_geom_bond_atom_site_label_1
_geom_bond_atom_site_label_2
_geom_bond_site_symmetry_1
_geom_bond_site_symmetry_2
C1 H1 1_555 1_555
C2 C1 1_555 1_555
H2 C2 1_555 1_555
C3 C2 1_555 1_555
H3 C3 1_555 1_555
C4 C3 1_555 1_555
C5 C4 1_555 1_555
C6 C5 1_555 1_555
C7 C6 1_555 1_555
C8 C7 1_555 1_555
H4 C8 1_555 1_555
C9 C8 1_555 1_555
H5 C9 1_555 1_555
C10 C9 1_555 1_555
H6 C10 1_555 1_555
C11 C7 1_555 1_555
C12 C4 1_555 1_555
C13 H7 1_555 1_555
C14 C15 1_555 1_555
C15 H8 1_555 1_555
C16 C15 1_555 1_555
H9 C16 1_555 1_555
C17 C14 1_555 1_555
C18 C16 1_555 1_555
H10 C18 1_555 1_555
C19 C20 1_555 1_555
C20 H11 1_555 1_555
C21 C20 1_555 1_555
H12 C21 1_555 1_555
C22 C21 1_555 1_555
H13 C22 1_555 1_555
C23 C22 1_555 1_555
C24 C23 1_555 1_555
C25 C24 1_555 1_555
H14 C25 1_555 1_555
C26 C25 1_555 1_555
H15 C26 1_555 1_555
C27 C26 1_555 1_555
H16 C27 1_555 1_555
C28 C19 1_555 1_555
C29 H17 1_555 1_555
C30 C29 1_555 1_555
H18 C30 1_555 1_555
C31 C30 1_555 1_555
H19 C31 1_555 1_555
C32 C31 1_555 1_555
C33 C32 1_555 1_555
C34 H20 1_555 1_555
C35 C33 1_555 1_555
C36 C35 1_555 1_555
C37 C36 1_555 1_555
H21 C37 1_555 1_555
C38 C37 1_555 1_555
H22 C38 1_555 1_555
C39 C38 1_555 1_555
H23 C39 1_555 1_555
C40 C36 1_555 1_555
C41 C32 1_555 1_555
Dy1 N1 1_555 1_555
N1 C1 1_555 1_555
N2 C10 1_555 1_555
N3 C6 1_555 1_555
N4 C5 1_555 1_555
H24 N4 1_555 1_555
N5 C29 1_555 1_555
N6 C39 1_555 1_555
N7 C33 1_555 1_555
N8 C34 1_555 1_555
H25 N8 1_555 1_555
O1 Dy1 1_555 1_555
O2 S1 1_555 1_555
O3 S1 1_555 1_555
O4 Dy1 1_555 1_555
O5 S2 1_555 1_555
O6 S2 1_555 1_555
O7 S3 1_555 1_555
O8 S3 1_555 1_555
O9 S3 1_555 1_555
O10 Dy1 1_555 1_555
H26 O10 1_555 1_555
H27 O10 1_555 1_555
S1 C14 1_555 1_555
S2 C19 1_555 1_555
S3 C24 1_555 1_555
O11 H28 1_555 1_555
H29 O11 1_555 1_555
O12 H30 1_555 1_555
H31 O12 1_555 1_555
C14B C15B 1_555 1_555
C15B H8B 1_555 1_555
C16B C15B 1_555 1_555
H9B C16B 1_555 1_555
C17B C17 1_555 1_555
C18B C17 1_555 1_555
H10B C18B 1_555 1_555
O1B S1B 1_555 1_555
O2B S1B 1_555 1_555
O3B S1B 1_555 1_555
S1B C14B 1_555 1_555
C1B H1B 1_555 1_555
C2B C1B 1_555 1_555
H2B C2B 1_555 1_555
C3B C2B 1_555 1_555
H3B C3B 1_555 1_555
C4B C3B 1_555 1_555
C5B C4B 1_555 1_555
C6B C5B 1_555 1_555
C7B C6B 1_555 1_555
C8B C7B 1_555 1_555
H4B C8B 1_555 1_555
C9B C8B 1_555 1_555
H5B C9B 1_555 1_555
C10B C9B 1_555 1_555
H6B C10B 1_555 1_555
C11B C7B 1_555 1_555
C12B C4B 1_555 1_555
C13B H7B 1_555 1_555
C19B C20B 1_555 1_555
C20B H11B 1_555 1_555
C21B C20B 1_555 1_555
H12B C21B 1_555 1_555
C22B C21B 1_555 1_555
H13B C22B 1_555 1_555
C23B C22B 1_555 1_555
C24B C23B 1_555 1_555
C25B C24B 1_555 1_555
H14B C25B 1_555 1_555
C26B C25B 1_555 1_555
H15B C26B 1_555 1_555
C27B C26B 1_555 1_555
H16B C27B 1_555 1_555
C28B C19B 1_555 1_555
C29B H17B 1_555 1_555
C30B C29B 1_555 1_555
H18B C30B 1_555 1_555
C31B C30B 1_555 1_555
H19B C31B 1_555 1_555
C32B C31B 1_555 1_555
C33B C32B 1_555 1_555
C34B H20B 1_555 1_555
C35B C33B 1_555 1_555
C36B C35B 1_555 1_555
C37B C36B 1_555 1_555
H21B C37B 1_555 1_555
C38B C37B 1_555 1_555
H22B C38B 1_555 1_555
C39B C38B 1_555 1_555
H23B C39B 1_555 1_555
C40B C36B 1_555 1_555
C41B C32B 1_555 1_555
Dy1B O1B 1_555 1_555
N1B C1B 1_555 1_555
N2B C10B 1_555 1_555
N3B C6B 1_555 1_555
N4B C5B 1_555 1_555
H24B N4B 1_555 1_555
N5B C29B 1_555 1_555
N6B C39B 1_555 1_555
N7B C33B 1_555 1_555
N8B C34B 1_555 1_555
H25B N8B 1_555 1_555
O4B Dy1B 1_555 1_555
O5B S2B 1_555 1_555
O6B S2B 1_555 1_555
O7B S3B 1_555 1_555
O8B S3B 1_555 1_555
O9B S3B 1_555 1_555
O10B Dy1B 1_555 1_555
H26B O10B 1_555 1_555
H27B O10B 1_555 1_555
S2B C19B 1_555 1_555
S3B C24B 1_555 1_555
Dy1A O7B 1_555 1_555
Dy1C O7 1_555 1_555
O7A Dy1B 1_555 1_555
O7C Dy1 1_555 1_555
C11 C12 1_555 1_555
C11 N2 1_555 1_555
C12 N1 1_555 1_555
C13 N3 1_555 1_555
C13 N4 1_555 1_555
C18 C17B 1_555 1_555
C23 C28 1_555 1_555
C27 C28 1_555 1_555
C34 N7 1_555 1_555
C35 N8 1_555 1_555
C40 C41 1_555 1_555
C40 N6 1_555 1_555
C41 N5 1_555 1_555
Dy1 N2 1_555 1_555
Dy1 N5 1_555 1_555
Dy1 N6 1_555 1_555
O1 S1 1_555 1_555
O4 S2 1_555 1_555
C14B C17B 1_555 1_555
C16B C18B 1_555 1_555
C11B C12B 1_555 1_555
C11B N2B 1_555 1_555
C12B N1B 1_555 1_555
C13B N3B 1_555 1_555
C13B N4B 1_555 1_555
C23B C28B 1_555 1_555
C27B C28B 1_555 1_555
C34B N7B 1_555 1_555
C35B N8B 1_555 1_555
C40B C41B 1_555 1_555
C40B N6B 1_555 1_555
C41B N5B 1_555 1_555
Dy1B N1B 1_555 1_555
Dy1B N2B 1_555 1_555
Dy1B N5B 1_555 1_555
Dy1B N6B 1_555 1_555
O4B S2B 1_555 1_555

#END
