
#######################################################################
#
#                 Cambridge Crystallographic Data Centre
#                                CCDC 
#
#######################################################################
#
# If this CIF has been generated from an entry in the Cambridge 
# Structural Database, then it will include bibliographic, chemical, 
# crystal, experimental, refinement or atomic coordinate data resulting 
# from the CCDC's data processing and validation procedures.
#
#######################################################################

data_RULPOF
_symmetry_cell_setting           monoclinic
_symmetry_space_group_name_H-M   'P 21/c'
_symmetry_Int_Tables_number      14
_space_group_name_Hall           '-P 2ybc'
loop_
_symmetry_equiv_pos_site_id
_symmetry_equiv_pos_as_xyz
1 x,y,z
2 -x,1/2+y,1/2-z
3 -x,-y,-z
4 x,1/2-y,1/2+z
_cell_length_a                   17.2839(8)
_cell_length_b                   16.1782(6)
_cell_length_c                   16.0035(6)
_cell_angle_alpha                90
_cell_angle_beta                 103.3160(10)
_cell_angle_gamma                90
_cell_volume                     4354.63
loop_
_atom_site_label
_atom_site_type_symbol
_atom_site_fract_x
_atom_site_fract_y
_atom_site_fract_z
C1 C 0.6634(3) 0.3455(3) 0.5793(3)
H1 H 0.6657 0.3230 0.6333
C2 C 0.6118(3) 0.3102(3) 0.5099(3)
H2 H 0.5806 0.2653 0.5174
C3 C 0.6072(3) 0.3423(3) 0.4296(3)
H3 H 0.5724 0.3198 0.3819
C4 C 0.6557(3) 0.4092(3) 0.4206(3)
C5 C 0.6561(3) 0.4492(3) 0.3404(3)
C6 C 0.7024(3) 0.5160(3) 0.3344(3)
C7 C 0.7581(3) 0.5466(3) 0.4069(3)
C8 C 0.8114(4) 0.6108(3) 0.4034(3)
H4 H 0.8113 0.6364 0.3513
C9 C 0.8631(4) 0.6355(3) 0.4758(4)
H5 H 0.8986 0.6784 0.4742
C10 C 0.8624(3) 0.5958(3) 0.5531(3)
H6 H 0.8991 0.6123 0.6023
C11 C 0.7602(3) 0.5101(3) 0.4875(3)
C12 C 0.7070(3) 0.4419(3) 0.4940(3)
C13 C 0.6332(4) 0.4934(4) 0.2090(4)
H7 H 0.6117 0.4975 0.1503
C14 C 0.5756(3) 0.5850(3) 0.5210(3)
C15 C 0.5711(3) 0.6136(3) 0.4397(3)
H8 H 0.6034 0.6572 0.4310
C16 C 0.5186(3) 0.5780(3) 0.3699(3)
H9 H 0.5164 0.5981 0.3150
C17 C 0.5266(3) 0.5178(3) 0.5361(3)
C18 C 0.4708(3) 0.5145(3) 0.3810(3)
H10 H 0.4358 0.4919 0.3335
C19 C 0.8789(3) 0.3284(3) 0.5126(3)
C20 C 0.8893(3) 0.3689(3) 0.4411(3)
H11 H 0.9245 0.4131 0.4463
C21 C 0.8465(3) 0.3434(3) 0.3595(3)
H12 H 0.8542 0.3704 0.3108
C22 C 0.7937(3) 0.2796(3) 0.3511(3)
H13 H 0.7654 0.2644 0.2966
C23 C 0.7809(3) 0.2360(3) 0.4236(3)
C24 C 0.7267(3) 0.1694(3) 0.4175(3)
C25 C 0.7174(3) 0.1284(3) 0.4896(3)
H14 H 0.6817 0.0846 0.4846
C26 C 0.7617(3) 0.1523(3) 0.5707(3)
H15 H 0.7552 0.1240 0.6192
C27 C 0.8135(3) 0.2157(3) 0.5794(3)
H16 H 0.8419 0.2308 0.6339
C28 C 0.8252(3) 0.2598(3) 0.5068(3)
C29 C 0.9372(3) 0.3673(3) 0.8554(3)
H17 H 0.9427 0.3429 0.8045
C30 C 0.9841(3) 0.3367(3) 0.9327(3)
H18 H 1.0189 0.2929 0.9326
C31 C 0.9775(3) 0.3725(3) 1.0078(3)
H19 H 1.0085 0.3536 1.0597
C32 C 0.9238(3) 0.4380(3) 1.0064(3)
C33 C 0.9127(3) 0.4788(3) 1.0812(3)
C34 C 0.9155(3) 0.5193(3) 1.2094(3)
H20 H 0.9286 0.5246 1.2688
C35 C 0.8580(3) 0.5411(3) 1.0753(3)
C36 C 0.8110(3) 0.5710(3) 0.9960(3)
C37 C 0.7574(4) 0.6363(3) 0.9891(3)
H21 H 0.7508 0.6642 1.0378
C38 C 0.7148(5) 0.6587(4) 0.9101(4)
H22 H 0.6787 0.7022 0.9037
C39 C 0.7263(4) 0.6156(4) 0.8394(3)
H23 H 0.6956 0.6305 0.7859
C40 C 0.8213(3) 0.5318(3) 0.9211(3)
C41 C 0.8786(3) 0.4644(2) 0.9256(3)
Tb1 Tb 0.796890(14) 0.480408(13) 0.706120(13)
N1 N 0.7101(2) 0.4100(2) 0.5737(2)
N2 N 0.8119(2) 0.5355(2) 0.5598(2)
N3 N 0.6877(3) 0.5442(3) 0.2496(3)
N4 N 0.6100(3) 0.4344(3) 0.2582(3)
H24 H 0.5748 0.3965 0.2422
N5 N 0.8856(2) 0.4285(2) 0.8503(2)
N6 N 0.7779(3) 0.5545(3) 0.8423(2)
N7 N 0.9496(3) 0.4652(2) 1.1667(2)
N8 N 0.8601(3) 0.5653(2) 1.1574(2)
H25 H 0.8313 0.6030 1.1729
O1 O 0.69337(18) 0.57164(17) 0.65508(18)
O2 O 0.6848(2) 0.6958(2) 0.5704(2)
O3 O 0.5922(2) 0.6718(2) 0.6599(2)
O4 O 0.8793(2) 0.38538(18) 0.66485(19)
O5 O 0.9837(2) 0.2926(2) 0.6517(2)
O6 O 0.9829(2) 0.4328(2) 0.5973(2)
O7 O 0.7211(2) 0.10971(19) 0.2653(2)
O8 O 0.6176(3) 0.0698(3) 0.3349(2)
O9 O 0.6223(2) 0.2087(2) 0.2788(2)
O10 O 0.9010(2) 0.57518(19) 0.7442(2)
H26 H 0.897(3) 0.6267(12) 0.746(3)
H27 H 0.9457(19) 0.559(3) 0.774(3)
S1 S 0.64090(8) 0.63592(7) 0.60706(8)
S2 S 0.93717(8) 0.36276(8) 0.61326(8)
S3 S 0.66545(9) 0.13662(9) 0.31748(9)
C14B C 0.4244(3) 0.4150(3) 0.4790(3)
C15B C 0.4289(3) 0.3864(3) 0.5603(3)
H8B H 0.3966 0.3428 0.5690
C16B C 0.4814(3) 0.4220(3) 0.6301(3)
H9B H 0.4836 0.4019 0.6850
C17B C 0.4734(3) 0.4822(3) 0.4639(3)
C18B C 0.5292(3) 0.4855(3) 0.6190(3)
H10B H 0.5642 0.5081 0.6665
O1B O 0.30663(18) 0.42836(17) 0.34492(18)
O2B O 0.3152(2) 0.3042(2) 0.4296(2)
O3B O 0.4078(2) 0.3282(2) 0.3401(2)
S1B S 0.35910(8) 0.36408(7) 0.39294(8)
C1B C 0.3366(3) 0.6545(3) 0.4207(3)
H1B H 0.3343 0.6770 0.3667
C2B C 0.3882(3) 0.6898(3) 0.4901(3)
H2B H 0.4194 0.7347 0.4826
C3B C 0.3928(3) 0.6577(3) 0.5704(3)
H3B H 0.4276 0.6802 0.6181
C4B C 0.3443(3) 0.5908(3) 0.5794(3)
C5B C 0.3439(3) 0.5508(3) 0.6596(3)
C6B C 0.2976(3) 0.4840(3) 0.6656(3)
C7B C 0.2419(3) 0.4534(3) 0.5931(3)
C8B C 0.1886(4) 0.3892(3) 0.5966(3)
H4B H 0.1887 0.3636 0.6487
C9B C 0.1369(4) 0.3645(3) 0.5242(4)
H5B H 0.1014 0.3216 0.5258
C10B C 0.1376(3) 0.4042(3) 0.4469(3)
H6B H 0.1009 0.3877 0.3977
C11B C 0.2398(3) 0.4899(3) 0.5125(3)
C12B C 0.2930(3) 0.5581(3) 0.5060(3)
C13B C 0.3668(4) 0.5066(4) 0.7910(4)
H7B H 0.3883 0.5025 0.8497
C19B C 0.1211(3) 0.6716(3) 0.4874(3)
C20B C 0.1107(3) 0.6311(3) 0.5589(3)
H11B H 0.0755 0.5869 0.5537
C21B C 0.1535(3) 0.6566(3) 0.6405(3)
H12B H 0.1458 0.6296 0.6892
C22B C 0.2063(3) 0.7204(3) 0.6489(3)
H13B H 0.2346 0.7356 0.7034
C23B C 0.2191(3) 0.7640(3) 0.5764(3)
C24B C 0.2733(3) 0.8306(3) 0.5825(3)
C25B C 0.2826(3) 0.8716(3) 0.5104(3)
H14B H 0.3183 0.9154 0.5154
C26B C 0.2383(3) 0.8477(3) 0.4293(3)
H15B H 0.2448 0.8760 0.3808
C27B C 0.1865(3) 0.7843(3) 0.4206(3)
H16B H 0.1581 0.7692 0.3661
C28B C 0.1748(3) 0.7402(3) 0.4932(3)
C29B C 0.0628(3) 0.6327(3) 0.1446(3)
H17B H 0.0573 0.6571 0.1955
C30B C 0.0159(3) 0.6633(3) 0.0673(3)
H18B H -0.0189 0.7071 0.0674
C31B C 0.0225(3) 0.6275(3) -0.0078(3)
H19B H -0.0085 0.6464 -0.0597
C32B C 0.0762(3) 0.5620(3) -0.0064(3)
C33B C 0.0873(3) 0.5212(3) -0.0812(3)
C34B C 0.0845(3) 0.4807(3) -0.2094(3)
H20B H 0.0714 0.4754 -0.2688
C35B C 0.1420(3) 0.4589(3) -0.0753(3)
C36B C 0.1890(3) 0.4290(3) 0.0040(3)
C37B C 0.2426(4) 0.3637(3) 0.0109(3)
H21B H 0.2492 0.3358 -0.0378
C38B C 0.2852(5) 0.3413(4) 0.0899(4)
H22B H 0.3213 0.2978 0.0963
C39B C 0.2737(4) 0.3844(4) 0.1606(3)
H23B H 0.3044 0.3695 0.2141
C40B C 0.1787(3) 0.4682(3) 0.0789(3)
C41B C 0.1214(3) 0.5356(2) 0.0744(3)
Tb1B Tb 0.203110(14) 0.519592(13) 0.293880(13)
N1B N 0.2899(2) 0.5900(2) 0.4263(2)
N2B N 0.1881(2) 0.4645(2) 0.4402(2)
N3B N 0.3123(3) 0.4558(3) 0.7504(3)
N4B N 0.3900(3) 0.5656(3) 0.7418(3)
H24B H 0.4252 0.6035 0.7578
N5B N 0.1144(2) 0.5715(2) 0.1497(2)
N6B N 0.2221(3) 0.4455(3) 0.1577(2)
N7B N 0.0504(3) 0.5348(2) -0.1667(2)
N8B N 0.1399(3) 0.4347(2) -0.1574(2)
H25B H 0.1687 0.3970 -0.1729
O4B O 0.1207(2) 0.61462(18) 0.33515(19)
O5B O 0.0163(2) 0.7074(2) 0.3483(2)
O6B O 0.0171(2) 0.5672(2) 0.4027(2)
O7B O 0.2789(2) 0.89029(19) 0.7347(2)
O8B O 0.3824(3) 0.9302(3) 0.6651(2)
O9B O 0.3777(2) 0.7913(2) 0.7212(2)
O10B O 0.0990(2) 0.42482(19) 0.2558(2)
H26B H 0.103(3) 0.3733(12) 0.254(3)
H27B H 0.0543(19) 0.441(3) 0.226(3)
S2B S 0.06283(8) 0.63724(8) 0.38674(8)
S3B S 0.33455(9) 0.86338(9) 0.68252(9)
Tb1A Tb 0.203110(14) 0.980408(13) 0.793880(13)
Tb1C Tb 0.796890(14) 0.019592(13) 0.206120(13)
O7A O 0.2789(2) 0.60971(19) 0.2347(2)
O7C O 0.7211(2) 0.39029(19) 0.7653(2)
O11 O 0.2493(2) 0.3157(2) 0.8014(2)
H28 H 0.2708 0.2826 0.8402
H29 H 0.2811 0.3538 0.7953
O12 O 0.4933(3) 0.1945(3) 0.7018(3)
H30 H 0.4659 0.1616 0.6646
H31 H 0.4698 0.1883 0.7416
O13 O 0.8728(5) 0.7246(5) 0.8003(5)
O15 O 0.5285(9) 0.8391(8) 0.6176(9)
O16 O 0.5394(19) 0.8357(17) 0.4951(18)
O14? O 0.8959(5) 0.7381(5) 0.7235(5)
O17? O 0.493(2) 0.884(2) 0.456(2)
O18? O 0.547(2) 0.950(2) 0.455(2)
O19? O 0.5334(17) 1.0211(16) 0.4657(17)
loop_
_geom_bond_atom_site_label_1
_geom_bond_atom_site_label_2
_geom_bond_site_symmetry_1
_geom_bond_site_symmetry_2
C1 H1 1_555 1_555
C2 C1 1_555 1_555
H2 C2 1_555 1_555
C3 C2 1_555 1_555
H3 C3 1_555 1_555
C4 C3 1_555 1_555
C5 C4 1_555 1_555
C6 C5 1_555 1_555
C7 C6 1_555 1_555
C8 C7 1_555 1_555
H4 C8 1_555 1_555
C9 C8 1_555 1_555
H5 C9 1_555 1_555
C10 C9 1_555 1_555
H6 C10 1_555 1_555
C11 C7 1_555 1_555
C12 C4 1_555 1_555
C13 H7 1_555 1_555
C14 C15 1_555 1_555
C15 H8 1_555 1_555
C16 C15 1_555 1_555
H9 C16 1_555 1_555
C17 C14 1_555 1_555
C18 C16 1_555 1_555
H10 C18 1_555 1_555
C19 C20 1_555 1_555
C20 H11 1_555 1_555
C21 C20 1_555 1_555
H12 C21 1_555 1_555
C22 C21 1_555 1_555
H13 C22 1_555 1_555
C23 C22 1_555 1_555
C24 C23 1_555 1_555
C25 C24 1_555 1_555
H14 C25 1_555 1_555
C26 C25 1_555 1_555
H15 C26 1_555 1_555
C27 C26 1_555 1_555
H16 C27 1_555 1_555
C28 C19 1_555 1_555
C29 H17 1_555 1_555
C30 C29 1_555 1_555
H18 C30 1_555 1_555
C31 C30 1_555 1_555
H19 C31 1_555 1_555
C32 C31 1_555 1_555
C33 C32 1_555 1_555
C34 H20 1_555 1_555
C35 C33 1_555 1_555
C36 C35 1_555 1_555
C37 C36 1_555 1_555
H21 C37 1_555 1_555
C38 C37 1_555 1_555
H22 C38 1_555 1_555
C39 C38 1_555 1_555
H23 C39 1_555 1_555
C40 C36 1_555 1_555
C41 C32 1_555 1_555
Tb1 N1 1_555 1_555
N1 C1 1_555 1_555
N2 C10 1_555 1_555
N3 C6 1_555 1_555
N4 C5 1_555 1_555
H24 N4 1_555 1_555
N5 C29 1_555 1_555
N6 C39 1_555 1_555
N7 C33 1_555 1_555
N8 C34 1_555 1_555
H25 N8 1_555 1_555
O1 Tb1 1_555 1_555
O2 S1 1_555 1_555
O3 S1 1_555 1_555
O4 Tb1 1_555 1_555
O5 S2 1_555 1_555
O6 S2 1_555 1_555
O7 S3 1_555 1_555
O8 S3 1_555 1_555
O9 S3 1_555 1_555
O10 Tb1 1_555 1_555
H26 O10 1_555 1_555
H27 O10 1_555 1_555
S1 C14 1_555 1_555
S2 C19 1_555 1_555
S3 C24 1_555 1_555
O11 H28 1_555 1_555
H29 O11 1_555 1_555
O12 H30 1_555 1_555
H31 O12 1_555 1_555
C14B C15B 1_555 1_555
C15B H8B 1_555 1_555
C16B C15B 1_555 1_555
H9B C16B 1_555 1_555
C17B C17 1_555 1_555
C18B C17 1_555 1_555
H10B C18B 1_555 1_555
O1B S1B 1_555 1_555
O2B S1B 1_555 1_555
O3B S1B 1_555 1_555
S1B C14B 1_555 1_555
C1B H1B 1_555 1_555
C2B C1B 1_555 1_555
H2B C2B 1_555 1_555
C3B C2B 1_555 1_555
H3B C3B 1_555 1_555
C4B C3B 1_555 1_555
C5B C4B 1_555 1_555
C6B C5B 1_555 1_555
C7B C6B 1_555 1_555
C8B C7B 1_555 1_555
H4B C8B 1_555 1_555
C9B C8B 1_555 1_555
H5B C9B 1_555 1_555
C10B C9B 1_555 1_555
H6B C10B 1_555 1_555
C11B C7B 1_555 1_555
C12B C4B 1_555 1_555
C13B H7B 1_555 1_555
C19B C20B 1_555 1_555
C20B H11B 1_555 1_555
C21B C20B 1_555 1_555
H12B C21B 1_555 1_555
C22B C21B 1_555 1_555
H13B C22B 1_555 1_555
C23B C22B 1_555 1_555
C24B C23B 1_555 1_555
C25B C24B 1_555 1_555
H14B C25B 1_555 1_555
C26B C25B 1_555 1_555
H15B C26B 1_555 1_555
C27B C26B 1_555 1_555
H16B C27B 1_555 1_555
C28B C19B 1_555 1_555
C29B H17B 1_555 1_555
C30B C29B 1_555 1_555
H18B C30B 1_555 1_555
C31B C30B 1_555 1_555
H19B C31B 1_555 1_555
C32B C31B 1_555 1_555
C33B C32B 1_555 1_555
C34B H20B 1_555 1_555
C35B C33B 1_555 1_555
C36B C35B 1_555 1_555
C37B C36B 1_555 1_555
H21B C37B 1_555 1_555
C38B C37B 1_555 1_555
H22B C38B 1_555 1_555
C39B C38B 1_555 1_555
H23B C39B 1_555 1_555
C40B C36B 1_555 1_555
C41B C32B 1_555 1_555
Tb1B O1B 1_555 1_555
N1B C1B 1_555 1_555
N2B C10B 1_555 1_555
N3B C6B 1_555 1_555
N4B C5B 1_555 1_555
H24B N4B 1_555 1_555
N5B C29B 1_555 1_555
N6B C39B 1_555 1_555
N7B C33B 1_555 1_555
N8B C34B 1_555 1_555
H25B N8B 1_555 1_555
O4B Tb1B 1_555 1_555
O5B S2B 1_555 1_555
O6B S2B 1_555 1_555
O7B S3B 1_555 1_555
O8B S3B 1_555 1_555
O9B S3B 1_555 1_555
O10B Tb1B 1_555 1_555
H26B O10B 1_555 1_555
H27B O10B 1_555 1_555
S2B C19B 1_555 1_555
S3B C24B 1_555 1_555
Tb1A O7B 1_555 1_555
Tb1C O7 1_555 1_555
O7A Tb1B 1_555 1_555
O7C Tb1 1_555 1_555
C11 C12 1_555 1_555
C11 N2 1_555 1_555
C12 N1 1_555 1_555
C13 N3 1_555 1_555
C13 N4 1_555 1_555
C18 C17B 1_555 1_555
C23 C28 1_555 1_555
C27 C28 1_555 1_555
C34 N7 1_555 1_555
C35 N8 1_555 1_555
C40 C41 1_555 1_555
C40 N6 1_555 1_555
C41 N5 1_555 1_555
Tb1 N2 1_555 1_555
Tb1 N5 1_555 1_555
Tb1 N6 1_555 1_555
O1 S1 1_555 1_555
O4 S2 1_555 1_555
C14B C17B 1_555 1_555
C16B C18B 1_555 1_555
C11B C12B 1_555 1_555
C11B N2B 1_555 1_555
C12B N1B 1_555 1_555
C13B N3B 1_555 1_555
C13B N4B 1_555 1_555
C23B C28B 1_555 1_555
C27B C28B 1_555 1_555
C34B N7B 1_555 1_555
C35B N8B 1_555 1_555
C40B C41B 1_555 1_555
C40B N6B 1_555 1_555
C41B N5B 1_555 1_555
Tb1B N1B 1_555 1_555
Tb1B N2B 1_555 1_555
Tb1B N5B 1_555 1_555
Tb1B N6B 1_555 1_555
O4B S2B 1_555 1_555

#END
