
#######################################################################
#
#                 Cambridge Crystallographic Data Centre
#                                CCDC 
#
#######################################################################
#
# If this CIF has been generated from an entry in the Cambridge 
# Structural Database, then it will include bibliographic, chemical, 
# crystal, experimental, refinement or atomic coordinate data resulting 
# from the CCDC's data processing and validation procedures.
#
#######################################################################

data_RULPAR
_symmetry_cell_setting           monoclinic
_symmetry_space_group_name_H-M   'P 21/c'
_symmetry_Int_Tables_number      14
_space_group_name_Hall           '-P 2ybc'
loop_
_symmetry_equiv_pos_site_id
_symmetry_equiv_pos_as_xyz
1 x,y,z
2 -x,1/2+y,1/2-z
3 -x,-y,-z
4 x,1/2-y,1/2+z
_cell_length_a                   17.3174(17)
_cell_length_b                   16.1834(16)
_cell_length_c                   16.0660(14)
_cell_angle_alpha                90
_cell_angle_beta                 103.431(2)
_cell_angle_gamma                90
_cell_volume                     4379.42
loop_
_atom_site_label
_atom_site_type_symbol
_atom_site_fract_x
_atom_site_fract_y
_atom_site_fract_z
C1 C 0.6632(5) 0.3472(5) 0.5756(5)
H1 H 0.6651 0.3249 0.6294
C2 C 0.6110(5) 0.3110(5) 0.5061(5)
H2 H 0.5800 0.2659 0.5134
C3 C 0.6068(5) 0.3437(5) 0.4268(5)
H3 H 0.5723 0.3215 0.3790
C4 C 0.6548(5) 0.4108(5) 0.4185(5)
C5 C 0.6576(5) 0.4510(5) 0.3404(5)
C6 C 0.7025(5) 0.5159(6) 0.3336(5)
C7 C 0.7592(5) 0.5477(5) 0.4069(5)
C8 C 0.8120(6) 0.6111(6) 0.4030(5)
H4 H 0.8125 0.6359 0.3509
C9 C 0.8623(6) 0.6364(6) 0.4751(6)
H5 H 0.8968 0.6802 0.4741
C10 C 0.8620(5) 0.5949(5) 0.5531(5)
H6 H 0.8988 0.6108 0.6024
C11 C 0.7595(4) 0.5108(5) 0.4855(5)
C12 C 0.7081(4) 0.4431(5) 0.4919(5)
C13 C 0.6343(6) 0.4949(7) 0.2083(6)
H7 H 0.6126 0.4994 0.1498
C14 C 0.5757(4) 0.5847(5) 0.5220(5)
C15 C 0.5708(5) 0.6139(5) 0.4406(5)
H8 H 0.6025 0.6579 0.4319
C16 C 0.5188(5) 0.5780(5) 0.3713(5)
H9 H 0.5164 0.5980 0.3165
C17 C 0.5263(4) 0.5186(5) 0.5366(4)
C18 C 0.4714(4) 0.5143(5) 0.3821(5)
H10 H 0.4365 0.4919 0.3345
C19 C 0.8789(5) 0.3279(5) 0.5122(5)
C20 C 0.8893(5) 0.3699(5) 0.4404(5)
H11 H 0.9237 0.4147 0.4461
C21 C 0.8476(5) 0.3444(5) 0.3593(5)
H12 H 0.8560 0.3709 0.3108
C22 C 0.7955(5) 0.2818(5) 0.3509(5)
H13 H 0.7679 0.2667 0.2962
C23 C 0.7811(5) 0.2378(5) 0.4219(5)
C24 C 0.7278(5) 0.1712(5) 0.4168(5)
C25 C 0.7181(5) 0.1306(6) 0.4870(6)
H14 H 0.6818 0.0874 0.4813
C26 C 0.7621(5) 0.1530(5) 0.5679(5)
H15 H 0.7559 0.1240 0.6159
C27 C 0.8143(5) 0.2173(5) 0.5771(5)
H16 H 0.8431 0.2320 0.6314
C28 C 0.8251(5) 0.2615(5) 0.5056(5)
C29 C 0.9381(5) 0.3675(5) 0.8560(5)
H17 H 0.9432 0.3430 0.8053
C30 C 0.9847(5) 0.3380(5) 0.9321(5)
H18 H 1.0210 0.2957 0.9318
C31 C 0.9767(5) 0.3720(5) 1.0083(5)
H19 H 1.0057 0.3510 1.0601
C32 C 0.9254(4) 0.4373(5) 1.0071(5)
C33 C 0.9126(4) 0.4789(5) 1.0808(5)
C34 C 0.9153(5) 0.5185(5) 1.2074(5)
H20 H 0.9285 0.5234 1.2667
C35 C 0.8580(4) 0.5397(5) 1.0745(5)
C36 C 0.8111(4) 0.5704(5) 0.9954(5)
C37 C 0.7582(6) 0.6345(6) 0.9893(5)
H21 H 0.7518 0.6618 1.0382
C38 C 0.7149(7) 0.6579(7) 0.9097(6)
H22 H 0.6785 0.7010 0.9033
C39 C 0.7275(6) 0.6146(6) 0.8390(6)
H23 H 0.6973 0.6296 0.7854
C40 C 0.8216(4) 0.5312(5) 0.9208(5)
C41 C 0.8786(4) 0.4644(4) 0.9266(5)
Eu1 Eu 0.79753(2) 0.48032(2) 0.70543(2)
N1 N 0.7100(4) 0.4106(4) 0.5714(4)
N2 N 0.8125(4) 0.5357(4) 0.5585(4)
N3 N 0.6893(5) 0.5446(5) 0.2497(5)
N4 N 0.6113(4) 0.4358(5) 0.2583(4)
H24 H 0.5762 0.3978 0.2427
N5 N 0.8863(4) 0.4291(4) 0.8514(4)
N6 N 0.7789(4) 0.5542(4) 0.8424(4)
N7 N 0.9482(4) 0.4655(4) 1.1657(4)
N8 N 0.8603(4) 0.5653(4) 1.1561(4)
H25 H 0.8322 0.6038 1.1714
O1 O 0.6929(3) 0.5728(3) 0.6539(3)
O2 O 0.6833(3) 0.6969(3) 0.5695(4)
O3 O 0.5910(3) 0.6711(3) 0.6599(3)
O4 O 0.8809(3) 0.3844(3) 0.6644(3)
O5 O 0.9848(3) 0.2917(4) 0.6500(4)
O6 O 0.9845(4) 0.4328(4) 0.5983(4)
O7 O 0.7224(3) 0.1121(3) 0.2645(3)
O8 O 0.6183(4) 0.0735(5) 0.3325(4)
O9 O 0.6247(4) 0.2112(4) 0.2773(4)
O10 O 0.9022(3) 0.5760(3) 0.7450(4)
H26 H 0.899(4) 0.6272(15) 0.737(5)
H27 H 0.949(2) 0.561(4) 0.768(5)
S1 S 0.64011(12) 0.63671(13) 0.60699(13)
S2 S 0.93831(13) 0.36262(15) 0.61303(14)
S3 S 0.66670(14) 0.13958(17) 0.31580(15)
C14B C 0.4243(4) 0.4153(5) 0.4780(5)
C15B C 0.4292(5) 0.3861(5) 0.5594(5)
H8B H 0.3975 0.3421 0.5681
C16B C 0.4812(5) 0.4220(5) 0.6287(5)
H9B H 0.4836 0.4020 0.6835
C17B C 0.4737(4) 0.4814(5) 0.4634(4)
C18B C 0.5286(4) 0.4857(5) 0.6179(5)
H10B H 0.5635 0.5081 0.6655
O1B O 0.3071(3) 0.4272(3) 0.3461(3)
O2B O 0.3167(3) 0.3031(3) 0.4305(4)
O3B O 0.4090(3) 0.3289(3) 0.3401(3)
S1B S 0.35989(12) 0.36329(13) 0.39301(13)
C1B C 0.3368(5) 0.6528(5) 0.4244(5)
H1B H 0.3349 0.6751 0.3706
C2B C 0.3890(5) 0.6890(5) 0.4939(5)
H2B H 0.4200 0.7341 0.4866
C3B C 0.3932(5) 0.6563(5) 0.5732(5)
H3B H 0.4277 0.6785 0.6210
C4B C 0.3452(5) 0.5892(5) 0.5815(5)
C5B C 0.3424(5) 0.5490(5) 0.6596(5)
C6B C 0.2975(5) 0.4841(6) 0.6664(5)
C7B C 0.2408(5) 0.4523(5) 0.5931(5)
C8B C 0.1880(6) 0.3889(6) 0.5970(5)
H4B H 0.1875 0.3641 0.6491
C9B C 0.1377(6) 0.3636(6) 0.5249(6)
H5B H 0.1032 0.3198 0.5259
C10B C 0.1380(5) 0.4051(5) 0.4469(5)
H6B H 0.1012 0.3892 0.3976
C11B C 0.2405(4) 0.4892(5) 0.5145(5)
C12B C 0.2919(4) 0.5569(5) 0.5081(5)
C13B C 0.3657(6) 0.5051(7) 0.7917(6)
H7B H 0.3874 0.5006 0.8502
C19B C 0.1211(5) 0.6721(5) 0.4878(5)
C20B C 0.1107(5) 0.6301(5) 0.5596(5)
H11B H 0.0763 0.5853 0.5539
C21B C 0.1524(5) 0.6556(5) 0.6407(5)
H12B H 0.1440 0.6291 0.6892
C22B C 0.2045(5) 0.7182(5) 0.6491(5)
H13B H 0.2321 0.7333 0.7038
C23B C 0.2189(5) 0.7622(5) 0.5781(5)
C24B C 0.2722(5) 0.8288(5) 0.5832(5)
C25B C 0.2819(5) 0.8694(6) 0.5130(6)
H14B H 0.3182 0.9126 0.5187
C26B C 0.2379(5) 0.8470(5) 0.4321(5)
H15B H 0.2441 0.8760 0.3841
C27B C 0.1857(5) 0.7827(5) 0.4229(5)
H16B H 0.1569 0.7680 0.3686
C28B C 0.1749(5) 0.7385(5) 0.4944(5)
C29B C 0.0619(5) 0.6325(5) 0.1440(5)
H17B H 0.0568 0.6570 0.1947
C30B C 0.0153(5) 0.6620(5) 0.0679(5)
H18B H -0.0210 0.7043 0.0682
C31B C 0.0233(5) 0.6280(5) -0.0083(5)
H19B H -0.0057 0.6490 -0.0601
C32B C 0.0746(4) 0.5627(5) -0.0071(5)
C33B C 0.0874(4) 0.5211(5) -0.0808(5)
C34B C 0.0847(5) 0.4815(5) -0.2074(5)
H20B H 0.0715 0.4766 -0.2667
C35B C 0.1420(4) 0.4603(5) -0.0745(5)
C36B C 0.1889(4) 0.4296(5) 0.0046(5)
C37B C 0.2418(6) 0.3655(6) 0.0107(5)
H21B H 0.2482 0.3382 -0.0382
C38B C 0.2851(7) 0.3421(7) 0.0903(6)
H22B H 0.3215 0.2990 0.0967
C39B C 0.2725(6) 0.3854(6) 0.1610(6)
H23B H 0.3027 0.3704 0.2146
C40B C 0.1784(4) 0.4688(5) 0.0792(5)
C41B C 0.1214(4) 0.5356(4) 0.0734(5)
Eu1B Eu 0.20247(2) 0.51968(2) 0.29457(2)
N1B N 0.2900(4) 0.5894(4) 0.4286(4)
N2B N 0.1875(4) 0.4643(4) 0.4415(4)
N3B N 0.3107(5) 0.4554(5) 0.7503(5)
N4B N 0.3887(4) 0.5642(5) 0.7417(4)
H24B H 0.4238 0.6022 0.7573
N5B N 0.1137(4) 0.5709(4) 0.1486(4)
N6B N 0.2211(4) 0.4458(4) 0.1576(4)
N7B N 0.0518(4) 0.5345(4) -0.1657(4)
N8B N 0.1397(4) 0.4347(4) -0.1561(4)
H25B H 0.1678 0.3962 -0.1714
O4B O 0.1191(3) 0.6156(3) 0.3356(3)
O5B O 0.0152(3) 0.7083(4) 0.3500(4)
O6B O 0.0155(4) 0.5672(4) 0.4017(4)
O7B O 0.2776(3) 0.8879(3) 0.7355(3)
O8B O 0.3817(4) 0.9265(5) 0.6675(4)
O9B O 0.3753(4) 0.7888(4) 0.7227(4)
O10B O 0.0978(3) 0.4240(3) 0.2550(4)
H26B H 0.101(4) 0.3728(15) 0.263(5)
H27B H 0.051(2) 0.439(4) 0.232(5)
S2B S 0.06169(13) 0.63738(15) 0.38697(14)
S3B S 0.33330(14) 0.86042(17) 0.68420(15)
Eu1A Eu 0.20247(2) 0.98032(2) 0.79457(2)
Eu1C Eu 0.79753(2) 0.01968(2) 0.20543(2)
O7A O 0.2776(3) 0.6121(3) 0.2355(3)
O7C O 0.7224(3) 0.3879(3) 0.7645(3)
O11 O 0.2485(3) 0.3152(3) 0.8025(3)
H28 H 0.2700 0.2821 0.8414
H29 H 0.2803 0.3533 0.7965
O12 O 0.4947(5) 0.1923(6) 0.6968(6)
H30 H 0.4672 0.1594 0.6595
H31 H 0.4712 0.1862 0.7366
O13 O 0.8731(8) 0.7241(8) 0.7998(8)
O14 O 0.5271(9) 0.8376(9) 0.6208(9)
O15 O 0.5405(19) 0.8389(19) 0.4945(18)
O16? O 0.8981(7) 0.7393(7) 0.7219(7)
O17? O 0.542(3) 0.958(3) 0.465(3)
O18? O 0.471(2) 0.961(3) 0.533(2)
O19? O 0.487(2) 0.886(2) 0.457(2)
loop_
_geom_bond_atom_site_label_1
_geom_bond_atom_site_label_2
_geom_bond_site_symmetry_1
_geom_bond_site_symmetry_2
C1 H1 1_555 1_555
C2 C1 1_555 1_555
H2 C2 1_555 1_555
C3 C2 1_555 1_555
H3 C3 1_555 1_555
C4 C3 1_555 1_555
C5 C4 1_555 1_555
C6 C5 1_555 1_555
C7 C6 1_555 1_555
C8 C7 1_555 1_555
H4 C8 1_555 1_555
C9 C8 1_555 1_555
H5 C9 1_555 1_555
C10 C9 1_555 1_555
H6 C10 1_555 1_555
C11 C7 1_555 1_555
C12 C4 1_555 1_555
C13 H7 1_555 1_555
C14 C15 1_555 1_555
C15 H8 1_555 1_555
C16 C15 1_555 1_555
H9 C16 1_555 1_555
C17 C14 1_555 1_555
C18 C16 1_555 1_555
H10 C18 1_555 1_555
C19 C20 1_555 1_555
C20 H11 1_555 1_555
C21 C20 1_555 1_555
H12 C21 1_555 1_555
C22 C21 1_555 1_555
H13 C22 1_555 1_555
C23 C22 1_555 1_555
C24 C23 1_555 1_555
C25 C24 1_555 1_555
H14 C25 1_555 1_555
C26 C25 1_555 1_555
H15 C26 1_555 1_555
C27 C26 1_555 1_555
H16 C27 1_555 1_555
C28 C19 1_555 1_555
C29 H17 1_555 1_555
C30 C29 1_555 1_555
H18 C30 1_555 1_555
C31 C30 1_555 1_555
H19 C31 1_555 1_555
C32 C31 1_555 1_555
C33 C32 1_555 1_555
C34 H20 1_555 1_555
C35 C33 1_555 1_555
C36 C35 1_555 1_555
C37 C36 1_555 1_555
H21 C37 1_555 1_555
C38 C37 1_555 1_555
H22 C38 1_555 1_555
C39 C38 1_555 1_555
H23 C39 1_555 1_555
C40 C36 1_555 1_555
C41 C32 1_555 1_555
Eu1 N1 1_555 1_555
N1 C1 1_555 1_555
N2 C10 1_555 1_555
N3 C6 1_555 1_555
N4 C5 1_555 1_555
H24 N4 1_555 1_555
N5 C29 1_555 1_555
N6 C39 1_555 1_555
N7 C33 1_555 1_555
N8 C34 1_555 1_555
H25 N8 1_555 1_555
O1 Eu1 1_555 1_555
O2 S1 1_555 1_555
O3 S1 1_555 1_555
O4 Eu1 1_555 1_555
O5 S2 1_555 1_555
O6 S2 1_555 1_555
O7 S3 1_555 1_555
O8 S3 1_555 1_555
O9 S3 1_555 1_555
O10 Eu1 1_555 1_555
H26 O10 1_555 1_555
H27 O10 1_555 1_555
S1 C14 1_555 1_555
S2 C19 1_555 1_555
S3 C24 1_555 1_555
O11 H28 1_555 1_555
H29 O11 1_555 1_555
O12 H30 1_555 1_555
H31 O12 1_555 1_555
C14B C15B 1_555 1_555
C15B H8B 1_555 1_555
C16B C15B 1_555 1_555
H9B C16B 1_555 1_555
C17B C17 1_555 1_555
C18B C17 1_555 1_555
H10B C18B 1_555 1_555
O1B S1B 1_555 1_555
O2B S1B 1_555 1_555
O3B S1B 1_555 1_555
S1B C14B 1_555 1_555
C1B H1B 1_555 1_555
C2B C1B 1_555 1_555
H2B C2B 1_555 1_555
C3B C2B 1_555 1_555
H3B C3B 1_555 1_555
C4B C3B 1_555 1_555
C5B C4B 1_555 1_555
C6B C5B 1_555 1_555
C7B C6B 1_555 1_555
C8B C7B 1_555 1_555
H4B C8B 1_555 1_555
C9B C8B 1_555 1_555
H5B C9B 1_555 1_555
C10B C9B 1_555 1_555
H6B C10B 1_555 1_555
C11B C7B 1_555 1_555
C12B C4B 1_555 1_555
C13B H7B 1_555 1_555
C19B C20B 1_555 1_555
C20B H11B 1_555 1_555
C21B C20B 1_555 1_555
H12B C21B 1_555 1_555
C22B C21B 1_555 1_555
H13B C22B 1_555 1_555
C23B C22B 1_555 1_555
C24B C23B 1_555 1_555
C25B C24B 1_555 1_555
H14B C25B 1_555 1_555
C26B C25B 1_555 1_555
H15B C26B 1_555 1_555
C27B C26B 1_555 1_555
H16B C27B 1_555 1_555
C28B C19B 1_555 1_555
C29B H17B 1_555 1_555
C30B C29B 1_555 1_555
H18B C30B 1_555 1_555
C31B C30B 1_555 1_555
H19B C31B 1_555 1_555
C32B C31B 1_555 1_555
C33B C32B 1_555 1_555
C34B H20B 1_555 1_555
C35B C33B 1_555 1_555
C36B C35B 1_555 1_555
C37B C36B 1_555 1_555
H21B C37B 1_555 1_555
C38B C37B 1_555 1_555
H22B C38B 1_555 1_555
C39B C38B 1_555 1_555
H23B C39B 1_555 1_555
C40B C36B 1_555 1_555
C41B C32B 1_555 1_555
Eu1B O1B 1_555 1_555
N1B C1B 1_555 1_555
N2B C10B 1_555 1_555
N3B C6B 1_555 1_555
N4B C5B 1_555 1_555
H24B N4B 1_555 1_555
N5B C29B 1_555 1_555
N6B C39B 1_555 1_555
N7B C33B 1_555 1_555
N8B C34B 1_555 1_555
H25B N8B 1_555 1_555
O4B Eu1B 1_555 1_555
O5B S2B 1_555 1_555
O6B S2B 1_555 1_555
O7B S3B 1_555 1_555
O8B S3B 1_555 1_555
O9B S3B 1_555 1_555
O10B Eu1B 1_555 1_555
H26B O10B 1_555 1_555
H27B O10B 1_555 1_555
S2B C19B 1_555 1_555
S3B C24B 1_555 1_555
Eu1A O7B 1_555 1_555
Eu1C O7 1_555 1_555
O7A Eu1B 1_555 1_555
O7C Eu1 1_555 1_555
C11 C12 1_555 1_555
C11 N2 1_555 1_555
C12 N1 1_555 1_555
C13 N3 1_555 1_555
C13 N4 1_555 1_555
C18 C17B 1_555 1_555
C23 C28 1_555 1_555
C27 C28 1_555 1_555
C34 N7 1_555 1_555
C35 N8 1_555 1_555
C40 C41 1_555 1_555
C40 N6 1_555 1_555
C41 N5 1_555 1_555
Eu1 N2 1_555 1_555
Eu1 N5 1_555 1_555
Eu1 N6 1_555 1_555
O1 S1 1_555 1_555
O4 S2 1_555 1_555
C14B C17B 1_555 1_555
C16B C18B 1_555 1_555
C11B C12B 1_555 1_555
C11B N2B 1_555 1_555
C12B N1B 1_555 1_555
C13B N3B 1_555 1_555
C13B N4B 1_555 1_555
C23B C28B 1_555 1_555
C27B C28B 1_555 1_555
C34B N7B 1_555 1_555
C35B N8B 1_555 1_555
C40B C41B 1_555 1_555
C40B N6B 1_555 1_555
C41B N5B 1_555 1_555
Eu1B N1B 1_555 1_555
Eu1B N2B 1_555 1_555
Eu1B N5B 1_555 1_555
Eu1B N6B 1_555 1_555
O4B S2B 1_555 1_555

#END
