
#######################################################################
#
#                 Cambridge Crystallographic Data Centre
#                                CCDC 
#
#######################################################################
#
# If this CIF has been generated from an entry in the Cambridge 
# Structural Database, then it will include bibliographic, chemical, 
# crystal, experimental, refinement or atomic coordinate data resulting 
# from the CCDC's data processing and validation procedures.
#
#######################################################################

data_RULQEW
_symmetry_cell_setting           orthorhombic
_symmetry_space_group_name_H-M   'A b a 2'
_symmetry_Int_Tables_number      41
_space_group_name_Hall           'A 2 -2ac'
loop_
_symmetry_equiv_pos_site_id
_symmetry_equiv_pos_as_xyz
1 x,y,z
2 -x,-y,z
3 1/2-x,y,1/2+z
4 1/2+x,-y,1/2+z
5 x,1/2+y,1/2+z
6 -x,1/2-y,1/2+z
7 1/2-x,1/2+y,z
8 1/2+x,1/2-y,z
_cell_length_a                   15.6909(8)
_cell_length_b                   43.795(2)
_cell_length_c                   7.7177(4)
_cell_angle_alpha                90
_cell_angle_beta                 90
_cell_angle_gamma                90
_cell_volume                     5303.47
loop_
_atom_site_label
_atom_site_type_symbol
_atom_site_fract_x
_atom_site_fract_y
_atom_site_fract_z
Zn1 Zn 0.328439(19) 0.570646(6) 0.91121(5)
C1 C 0.3252(3) 0.51488(7) 0.9694(4)
C2 C 0.3307(2) 0.48099(7) 0.9941(4)
C3 C 0.40208(19) 0.46524(6) 0.9368(4)
H1 H 0.4460 0.4758 0.8826
C4 C 0.4088(2) 0.43402(6) 0.9592(4)
H2 H 0.4564 0.4238 0.9170
C5 C 0.2669(2) 0.46497(6) 1.0762(4)
H3 H 0.2188 0.4753 1.1153
C6 C 0.2732(2) 0.43387(6) 1.1015(4)
H4 H 0.2292 0.4235 1.1571
C7 C 0.34484(18) 0.41763(6) 1.0445(4)
C8 C 0.35142(18) 0.38431(6) 1.0731(4)
C9 C 0.31532(18) 0.37115(6) 1.2202(4)
H5 H 0.2901 0.3837 1.3027
C10 C 0.31608(19) 0.33986(6) 1.2467(4)
H6 H 0.2920 0.3314 1.3458
C11 C 0.35354(18) 0.32146(6) 1.1222(4)
C12 C 0.39360(18) 0.33405(6) 0.9771(4)
C13 C 0.39359(17) 0.36521(6) 0.9524(4)
H7 H 0.4211 0.3737 0.8571
C14 C 0.42997(18) 0.30901(6) 0.8612(3)
C15 C 0.52725(19) 0.30968(7) 0.8637(4)
H8 H 0.5470 0.3292 0.8234
H9 H 0.5490 0.2939 0.7896
H10 H 0.5470 0.3064 0.9800
C16 C 0.3983(2) 0.31136(7) 0.6726(4)
H11 H 0.3374 0.3095 0.6701
H12 H 0.4234 0.2953 0.6050
H13 H 0.4146 0.3308 0.6252
C17 C 0.39575(17) 0.28046(6) 0.9515(4)
C18 C 0.35455(18) 0.28806(6) 1.1055(4)
C19 C 0.31587(18) 0.26586(6) 1.2070(4)
H14 H 0.2899 0.2710 1.3113
C20 C 0.31699(19) 0.23586(6) 1.1489(4)
H15 H 0.2904 0.2208 1.2144
C21 C 0.39841(17) 0.25026(5) 0.8981(5)
H16 H 0.4278 0.2450 0.7978
C22 C 0.35731(19) 0.22782(6) 0.9939(4)
C23 C 0.35199(17) 0.19551(5) 0.9324(4)
C24 C 0.4175(2) 0.18205(6) 0.8370(4)
H17 H 0.4673 0.1930 0.8165
C25 C 0.4094(2) 0.15272(6) 0.7725(4)
H18 H 0.4534 0.1443 0.7074
C26 C 0.27909(19) 0.17835(6) 0.9640(4)
H19 H 0.2348 0.1868 1.0280
C27 C 0.27125(18) 0.14886(5) 0.9018(5)
H20 H 0.2222 0.1377 0.9254
C28 C 0.33639(19) 0.13580(6) 0.8039(4)
C29 C 0.32395(19) 0.10507(6) 0.7239(4)
C30 C 0.4121(2) 0.56521(8) 0.5944(5)
H21 H 0.3706 0.5501 0.5896
C31 C 0.5362(3) 0.58825(13) 0.4726(6)
H22 H 0.5226 0.6039 0.5555
H23 H 0.5406 0.5972 0.3593
H24 H 0.5894 0.5789 0.5032
C32 C 0.4683(4) 0.54301(12) 0.3340(6)
H25 H 0.4200 0.5299 0.3503
H26 H 0.5196 0.5311 0.3356
H27 H 0.4635 0.5533 0.2245
N1 N 0.4701(2) 0.56545(8) 0.4720(4)
O1 O 0.38762(17) 0.52904(4) 0.9119(5)
O2 O 0.2587(2) 0.52881(5) 1.0029(4)
O3 O 0.27281(15) 0.08647(4) 0.7869(3)
O4 O 0.36600(14) 0.09981(4) 0.5869(3)
O5 O 0.40846(15) 0.58368(5) 0.7160(3)
Zn1D Zn 0.328439(19) 0.070646(6) 0.41121(5)
Zn1F Zn 0.171561(19) 0.070646(6) 0.91121(5)
O3F O 0.22719(15) 0.58647(4) 0.7869(3)
O4D O 0.36600(14) 0.59981(4) 1.0869(3)
loop_
_geom_bond_atom_site_label_1
_geom_bond_atom_site_label_2
_geom_bond_site_symmetry_1
_geom_bond_site_symmetry_2
Zn1 O1 1_555 1_555
C1 C2 1_555 1_555
C2 C3 1_555 1_555
C3 H1 1_555 1_555
C4 C3 1_555 1_555
H2 C4 1_555 1_555
C5 C2 1_555 1_555
H3 C5 1_555 1_555
C6 C5 1_555 1_555
H4 C6 1_555 1_555
C7 C4 1_555 1_555
C8 C7 1_555 1_555
C9 C8 1_555 1_555
H5 C9 1_555 1_555
C10 C9 1_555 1_555
H6 C10 1_555 1_555
C11 C10 1_555 1_555
C12 C11 1_555 1_555
C13 C8 1_555 1_555
H7 C13 1_555 1_555
C14 C12 1_555 1_555
C15 C14 1_555 1_555
H8 C15 1_555 1_555
H9 C15 1_555 1_555
H10 C15 1_555 1_555
C16 C14 1_555 1_555
H11 C16 1_555 1_555
H12 C16 1_555 1_555
H13 C16 1_555 1_555
C17 C14 1_555 1_555
C18 C11 1_555 1_555
C19 C18 1_555 1_555
H14 C19 1_555 1_555
C20 C19 1_555 1_555
H15 C20 1_555 1_555
C21 C17 1_555 1_555
H16 C21 1_555 1_555
C22 C20 1_555 1_555
C23 C22 1_555 1_555
C24 C23 1_555 1_555
H17 C24 1_555 1_555
C25 C24 1_555 1_555
H18 C25 1_555 1_555
C26 C23 1_555 1_555
H19 C26 1_555 1_555
C27 C26 1_555 1_555
H20 C27 1_555 1_555
C28 C25 1_555 1_555
C29 C28 1_555 1_555
C30 H21 1_555 1_555
C31 H22 1_555 1_555
H23 C31 1_555 1_555
H24 C31 1_555 1_555
C32 H25 1_555 1_555
H26 C32 1_555 1_555
H27 C32 1_555 1_555
N1 C30 1_555 1_555
O1 C1 1_555 1_555
O2 Zn1 1_555 1_555
O3 C29 1_555 1_555
O4 C29 1_555 1_555
O5 Zn1 1_555 1_555
Zn1D O4 1_555 1_555
Zn1F O3 1_555 1_555
O3F Zn1 1_555 1_555
O4D Zn1 1_555 1_555
C1 O2 1_555 1_555
C6 C7 1_555 1_555
C12 C13 1_555 1_555
C17 C18 1_555 1_555
C21 C22 1_555 1_555
C27 C28 1_555 1_555
C30 O5 1_555 1_555
C31 N1 1_555 1_555
C32 N1 1_555 1_555

#END
