
#######################################################################
#
#                 Cambridge Crystallographic Data Centre
#                                CCDC 
#
#######################################################################
#
# If this CIF has been generated from an entry in the Cambridge 
# Structural Database, then it will include bibliographic, chemical, 
# crystal, experimental, refinement or atomic coordinate data resulting 
# from the CCDC's data processing and validation procedures.
#
#######################################################################

data_RULXIG
_symmetry_cell_setting           monoclinic
_symmetry_space_group_name_H-M   'P 21'
_symmetry_Int_Tables_number      4
_space_group_name_Hall           'P 2yb'
loop_
_symmetry_equiv_pos_site_id
_symmetry_equiv_pos_as_xyz
1 x,y,z
2 -x,1/2+y,-z
_cell_length_a                   9.481(2)
_cell_length_b                   10.843(3)
_cell_length_c                   10.599(3)
_cell_angle_alpha                90
_cell_angle_beta                 104.965(11)
_cell_angle_gamma                90
_cell_volume                     1052.65
loop_
_atom_site_label
_atom_site_type_symbol
_atom_site_fract_x
_atom_site_fract_y
_atom_site_fract_z
W1 W 0.13298(12) 0.39932(12) 0.14019(10)
Zn1 Zn 0.4067(3) 0.4383(2) 0.5336(3)
S1 S 0.2309(7) 0.5270(7) 0.3513(7)
O1 O 0.5797(18) 0.1335(15) 0.3883(15)
N1 N 0.2335(18) 0.389(3) 0.6165(17)
C1 C 0.095(3) 0.521(3) 0.441(3)
H1 H 0.1060 0.5967 0.4954
H2 H -0.0017 0.5274 0.3765
S2 S 0.6685(7) 0.4688(6) 0.5190(6)
O2 O 0.4402(18) 0.2662(16) 0.4608(16)
N2 N 0.5135(19) 0.388(3) 0.7452(16)
C2 C 0.089(2) 0.423(3) 0.520(2)
H3 H 0.0531 0.3501 0.4648
H4 H 0.0168 0.4411 0.5706
O3 O -0.197(2) 0.484(2) 0.1177(18)
C3 C 0.250(3) 0.466(3) 0.738(2)
H5 H 0.1878 0.4339 0.7919
H6 H 0.2219 0.5528 0.7139
O4 O 0.061(2) 0.1600(19) 0.2864(18)
C4 C 0.411(3) 0.459(3) 0.813(2)
H7 H 0.4177 0.4207 0.8985
H8 H 0.4491 0.5447 0.8295
O5 O 0.019(2) 0.2589(17) -0.1262(17)
C5 C 0.243(3) 0.262(3) 0.646(2)
H9 H 0.1470 0.2347 0.6559
H10 H 0.2601 0.2178 0.5692
O6 O 0.202(2) 0.6340(19) -0.0130(18)
C6 C 0.348(3) 0.222(3) 0.755(2)
H11 H 0.3259 0.2565 0.8340
H12 H 0.3430 0.1309 0.7604
O7 O 0.448(2) 0.295(2) 0.1421(18)
C7 C 0.489(3) 0.255(3) 0.755(3)
H13 H 0.5145 0.2129 0.6807
H14 H 0.5563 0.2235 0.8362
C8 C 0.664(3) 0.447(2) 0.760(3)
H15 H 0.6481 0.5365 0.7474
H16 H 0.7196 0.4347 0.8524
C9 C 0.748(2) 0.411(3) 0.6868(19)
H17 H 0.7542 0.3203 0.6865
H18 H 0.8473 0.4452 0.7213
C10 C 0.670(3) 0.326(2) 0.425(3)
C11 C 0.545(3) 0.236(2) 0.425(2)
C12 C -0.076(3) 0.461(3) 0.132(2)
C13 C 0.092(3) 0.247(3) 0.234(3)
C14 C 0.060(3) 0.314(3) -0.034(3)
C15 C 0.164(3) 0.556(3) 0.044(3)
C16 C 0.334(3) 0.333(3) 0.142(3)
Zn1A Zn 0.5933(3) -0.0617(2) 0.4664(3)
O1A O 0.4203(18) 0.6335(15) 0.6117(15)
loop_
_geom_bond_atom_site_label_1
_geom_bond_atom_site_label_2
_geom_bond_site_symmetry_1
_geom_bond_site_symmetry_2
W1 S1 1_555 1_555
Zn1 S1 1_555 1_555
S1 C1 1_555 1_555
O1 C11 1_555 1_555
N1 Zn1 1_555 1_555
C1 H1 1_555 1_555
H2 C1 1_555 1_555
S2 Zn1 1_555 1_555
O2 Zn1 1_555 1_555
N2 Zn1 1_555 1_555
C2 N1 1_555 1_555
H3 C2 1_555 1_555
H4 C2 1_555 1_555
O3 C12 1_555 1_555
C3 N1 1_555 1_555
H5 C3 1_555 1_555
H6 C3 1_555 1_555
O4 C13 1_555 1_555
C4 N2 1_555 1_555
H7 C4 1_555 1_555
H8 C4 1_555 1_555
O5 C14 1_555 1_555
C5 N1 1_555 1_555
H9 C5 1_555 1_555
H10 C5 1_555 1_555
O6 C15 1_555 1_555
C6 C5 1_555 1_555
H11 C6 1_555 1_555
H12 C6 1_555 1_555
O7 C16 1_555 1_555
C7 N2 1_555 1_555
H13 C7 1_555 1_555
H14 C7 1_555 1_555
C8 N2 1_555 1_555
H15 C8 1_555 1_555
H16 C8 1_555 1_555
C9 S2 1_555 1_555
H17 C9 1_555 1_555
H18 C9 1_555 1_555
C10 S2 1_555 1_555
C11 O2 1_555 1_555
C12 W1 1_555 1_555
C13 W1 1_555 1_555
C14 W1 1_555 1_555
C15 W1 1_555 1_555
C16 W1 1_555 1_555
Zn1A O1 1_555 1_555
O1A Zn1 1_555 1_555
C1 C2 1_555 1_555
C3 C4 1_555 1_555
C6 C7 1_555 1_555
C8 C9 1_555 1_555
C10 C11 1_555 1_555

#END
