
#######################################################################
#
#                 Cambridge Crystallographic Data Centre
#                                CCDC 
#
#######################################################################
#
# If this CIF has been generated from an entry in the Cambridge 
# Structural Database, then it will include bibliographic, chemical, 
# crystal, experimental, refinement or atomic coordinate data resulting 
# from the CCDC's data processing and validation procedures.
#
#######################################################################

data_RULYOO
_symmetry_cell_setting           monoclinic
_symmetry_space_group_name_H-M   'C 2/c'
_symmetry_Int_Tables_number      15
_space_group_name_Hall           '-C 2yn'
loop_
_symmetry_equiv_pos_site_id
_symmetry_equiv_pos_as_xyz
1 x,y,z
2 -x,y,1/2-z
3 1/2+x,1/2+y,z
4 1/2-x,1/2+y,1/2-z
5 -x,-y,-z
6 x,-y,1/2+z
7 1/2-x,1/2-y,-z
8 1/2+x,1/2-y,1/2+z
_cell_length_a                   17.9503(6)
_cell_length_b                   10.5299(3)
_cell_length_c                   23.3594(8)
_cell_angle_alpha                90
_cell_angle_beta                 92.3210(10)
_cell_angle_gamma                90
_cell_volume                     4411.65
loop_
_atom_site_label
_atom_site_type_symbol
_atom_site_fract_x
_atom_site_fract_y
_atom_site_fract_z
Gd1 Gd 0.26483(2) 0.60755(2) 0.24505(2)
Mn1 Mn 0.45451(3) 0.28336(4) 0.10392(2)
O1 O 0.35441(12) 0.46175(19) 0.22086(10)
O2 O 0.31473(11) 0.2629(2) 0.22774(10)
O3 O 0.29692(13) 0.7387(2) 0.16866(9)
O4 O 0.19879(12) 0.5341(2) 0.16186(9)
O5 O 0.36585(12) 0.7279(2) 0.28160(10)
O6 O 0.28900(13) 0.5414(2) 0.33976(9)
O7 O 0.44261(17) 0.5384(3) 0.05308(13)
O8 O 0.51437(19) 0.1692(3) 0.00047(14)
O9 O 0.30128(16) 0.2171(3) 0.06549(13)
O10 O 0.17262(11) 0.45543(19) 0.27149(9)
H1 H 0.1555 0.4036 0.247
H2 H 0.1866 0.3931 0.2966
C1 C 0.36241(16) 0.3441(3) 0.21508(13)
C2 C 0.43354(16) 0.2981(3) 0.19241(13)
C3 C 0.49621(17) 0.3734(3) 0.18023(14)
H3 H 0.4999 0.4628 0.1849
C4 C 0.55256(17) 0.2928(3) 0.15982(14)
H4 H 0.6004 0.3184 0.1483
C5 C 0.52441(18) 0.1675(3) 0.15974(16)
H5 H 0.5506 0.0942 0.148
C6 C 0.45135(17) 0.1683(3) 0.17978(14)
H6 H 0.4199 0.0967 0.1841
C7 C 0.3420(2) 0.8182(4) 0.08181(17)
H7 H 0.3947 0.8077 0.0935
H8 H 0.3262 0.905 0.0903
H9 H 0.3353 0.8023 0.0406
C8 C 0.29576(18) 0.7255(3) 0.11414(14)
C9 C 0.25534(19) 0.6327(3) 0.08429(15)
H10 H 0.26 0.6291 0.044
C10 C 0.20826(17) 0.5440(3) 0.10886(14)
C11 C 0.1642(2) 0.4549(3) 0.06987(15)
H11 H 0.1791 0.3685 0.0767
H12 H 0.1122 0.4657 0.0768
H13 H 0.1723 0.4787 0.0309
C12 C 0.4771(2) 0.8081(4) 0.32647(19)
H14 H 0.4649 0.8838 0.3052
H15 H 0.4922 0.8317 0.3649
H16 H 0.5165 0.7645 0.3079
C13 C 0.40959(18) 0.7230(3) 0.32587(16)
C14 C 0.39886(19) 0.6448(3) 0.37305(16)
H17 H 0.435 0.6481 0.4039
C15 C 0.3390(2) 0.5623(3) 0.37808(15)
C16 C 0.3327(2) 0.4925(4) 0.43408(16)
H18 H 0.3262 0.4034 0.4267
H19 H 0.2902 0.5243 0.4532
H20 H 0.3767 0.5051 0.4582
C17 C 0.44675(19) 0.4379(3) 0.07191(15)
C18 C 0.4915(2) 0.2145(4) 0.04084(18)
C19 C 0.3607(2) 0.2427(4) 0.08012(16)
Gd1C Gd 0.23517(2) 0.10755(2) 0.25495(2)
O2C O 0.18527(11) 0.7629(2) 0.27226(10)
loop_
_geom_bond_atom_site_label_1
_geom_bond_atom_site_label_2
_geom_bond_site_symmetry_1
_geom_bond_site_symmetry_2
Gd1 O1 1_555 1_555
Mn1 C2 1_555 1_555
O1 C1 1_555 1_555
O2 C1 1_555 1_555
O3 Gd1 1_555 1_555
O4 Gd1 1_555 1_555
O5 Gd1 1_555 1_555
O6 Gd1 1_555 1_555
O7 C17 1_555 1_555
O8 C18 1_555 1_555
O9 C19 1_555 1_555
O10 Gd1 1_555 1_555
H1 O10 1_555 1_555
H2 O10 1_555 1_555
C1 C2 1_555 1_555
C2 C3 1_555 1_555
C3 Mn1 1_555 1_555
H3 C3 1_555 1_555
C4 Mn1 1_555 1_555
H4 C4 1_555 1_555
C5 Mn1 1_555 1_555
H5 C5 1_555 1_555
C6 Mn1 1_555 1_555
H6 C6 1_555 1_555
C7 H7 1_555 1_555
H8 C7 1_555 1_555
H9 C7 1_555 1_555
C8 O3 1_555 1_555
C9 C8 1_555 1_555
H10 C9 1_555 1_555
C10 O4 1_555 1_555
C11 C10 1_555 1_555
H11 C11 1_555 1_555
H12 C11 1_555 1_555
H13 C11 1_555 1_555
C12 H14 1_555 1_555
H15 C12 1_555 1_555
H16 C12 1_555 1_555
C13 O5 1_555 1_555
C14 C13 1_555 1_555
H17 C14 1_555 1_555
C15 O6 1_555 1_555
C16 C15 1_555 1_555
H18 C16 1_555 1_555
H19 C16 1_555 1_555
H20 C16 1_555 1_555
C17 Mn1 1_555 1_555
C18 Mn1 1_555 1_555
C19 Mn1 1_555 1_555
Gd1C O2 1_555 1_555
O2C Gd1 1_555 1_555
C2 C6 1_555 1_555
C3 C4 1_555 1_555
C4 C5 1_555 1_555
C5 C6 1_555 1_555
C7 C8 1_555 1_555
C9 C10 1_555 1_555
C12 C13 1_555 1_555
C14 C15 1_555 1_555

#END
