
#######################################################################
#
#                 Cambridge Crystallographic Data Centre
#                                CCDC 
#
#######################################################################
#
# If this CIF has been generated from an entry in the Cambridge 
# Structural Database, then it will include bibliographic, chemical, 
# crystal, experimental, refinement or atomic coordinate data resulting 
# from the CCDC's data processing and validation procedures.
#
#######################################################################

data_RULYUU
_symmetry_cell_setting           monoclinic
_symmetry_space_group_name_H-M   'C 2/c'
_symmetry_Int_Tables_number      15
_space_group_name_Hall           '-C 2yn'
loop_
_symmetry_equiv_pos_site_id
_symmetry_equiv_pos_as_xyz
1 x,y,z
2 -x,y,1/2-z
3 1/2+x,1/2+y,z
4 1/2-x,1/2+y,1/2-z
5 -x,-y,-z
6 x,-y,1/2+z
7 1/2-x,1/2-y,-z
8 1/2+x,1/2-y,1/2+z
_cell_length_a                   17.9254(8)
_cell_length_b                   10.5015(4)
_cell_length_c                   23.2695(10)
_cell_angle_alpha                90
_cell_angle_beta                 92.3250(10)
_cell_angle_gamma                90
_cell_volume                     4376.73
loop_
_atom_site_label
_atom_site_type_symbol
_atom_site_fract_x
_atom_site_fract_y
_atom_site_fract_z
Tb1 Tb 0.26467(2) 0.60907(2) 0.24483(2)
Mn1 Mn 0.45410(3) 0.28453(5) 0.10362(2)
O1 O 0.35391(12) 0.4637(2) 0.22075(9)
O2 O 0.31394(12) 0.2641(2) 0.22803(10)
O3 O 0.29724(13) 0.7392(2) 0.16879(9)
O4 O 0.19887(13) 0.5354(2) 0.16227(9)
O5 O 0.36539(13) 0.7290(2) 0.28116(10)
O6 O 0.28808(14) 0.5430(2) 0.33942(9)
O7 O 0.44331(17) 0.5401(3) 0.05225(12)
O8 O 0.51351(19) 0.1667(3) -0.00001(13)
O9 O 0.30032(16) 0.2200(3) 0.06544(12)
O10 O 0.17277(12) 0.4578(2) 0.27142(9)
H1 H 0.1887 0.3942 0.2994
H2 H 0.1538 0.4179 0.2427
C1 C 0.36180(17) 0.3462(3) 0.21511(12)
C2 C 0.43312(17) 0.2996(3) 0.19256(12)
C3 C 0.49608(18) 0.3746(3) 0.18020(13)
H3 H 0.4997 0.4643 0.1848
C4 C 0.55245(18) 0.2949(3) 0.16003(14)
H4 H 0.6004 0.3208 0.1487
C5 C 0.5241(2) 0.1678(3) 0.15982(15)
H5 H 0.5501 0.0941 0.148
C6 C 0.45125(18) 0.1702(3) 0.17997(14)
H6 H 0.4196 0.0985 0.1844
C7 C 0.3429(2) 0.8193(4) 0.08171(15)
H7 H 0.3956 0.8084 0.0935
H8 H 0.3272 0.9065 0.0902
H9 H 0.3362 0.8032 0.0403
C8 C 0.29618(18) 0.7267(3) 0.11419(13)
C9 C 0.2558(2) 0.6334(3) 0.08356(14)
H10 H 0.2607 0.6297 0.0431
C10 C 0.20844(18) 0.5448(3) 0.10877(13)
C11 C 0.1642(2) 0.4561(3) 0.06976(14)
H11 H 0.1791 0.3697 0.0766
H12 H 0.1122 0.467 0.0767
H13 H 0.1723 0.4799 0.0308
C12 C 0.4766(2) 0.8103(4) 0.32602(19)
H14 H 0.4644 0.886 0.3047
H15 H 0.4916 0.8339 0.3645
H16 H 0.5159 0.7667 0.3074
C13 C 0.40910(19) 0.7240(3) 0.32579(15)
C14 C 0.3985(2) 0.6454(3) 0.37323(15)
H17 H 0.4346 0.6487 0.4042
C15 C 0.3384(2) 0.5625(3) 0.37787(14)
C16 C 0.3323(2) 0.4921(4) 0.43400(15)
H18 H 0.3258 0.403 0.4267
H19 H 0.2898 0.5239 0.4531
H20 H 0.3762 0.5046 0.4581
C17 C 0.4468(2) 0.4389(3) 0.07135(14)
C18 C 0.4908(2) 0.2138(4) 0.04017(16)
C19 C 0.3604(2) 0.2441(4) 0.08008(15)
Tb1C Tb 0.23533(2) 0.10907(2) 0.25517(2)
O2C O 0.18606(12) 0.7641(2) 0.27197(10)
loop_
_geom_bond_atom_site_label_1
_geom_bond_atom_site_label_2
_geom_bond_site_symmetry_1
_geom_bond_site_symmetry_2
Tb1 O1 1_555 1_555
Mn1 C2 1_555 1_555
O1 C1 1_555 1_555
O2 C1 1_555 1_555
O3 Tb1 1_555 1_555
O4 Tb1 1_555 1_555
O5 Tb1 1_555 1_555
O6 Tb1 1_555 1_555
O7 C17 1_555 1_555
O8 C18 1_555 1_555
O9 C19 1_555 1_555
O10 Tb1 1_555 1_555
H1 O10 1_555 1_555
H2 O10 1_555 1_555
C1 C2 1_555 1_555
C2 C3 1_555 1_555
C3 Mn1 1_555 1_555
H3 C3 1_555 1_555
C4 Mn1 1_555 1_555
H4 C4 1_555 1_555
C5 Mn1 1_555 1_555
H5 C5 1_555 1_555
C6 Mn1 1_555 1_555
H6 C6 1_555 1_555
C7 H7 1_555 1_555
H8 C7 1_555 1_555
H9 C7 1_555 1_555
C8 O3 1_555 1_555
C9 C8 1_555 1_555
H10 C9 1_555 1_555
C10 O4 1_555 1_555
C11 C10 1_555 1_555
H11 C11 1_555 1_555
H12 C11 1_555 1_555
H13 C11 1_555 1_555
C12 H14 1_555 1_555
H15 C12 1_555 1_555
H16 C12 1_555 1_555
C13 O5 1_555 1_555
C14 C13 1_555 1_555
H17 C14 1_555 1_555
C15 O6 1_555 1_555
C16 C15 1_555 1_555
H18 C16 1_555 1_555
H19 C16 1_555 1_555
H20 C16 1_555 1_555
C17 Mn1 1_555 1_555
C18 Mn1 1_555 1_555
C19 Mn1 1_555 1_555
Tb1C O2 1_555 1_555
O2C Tb1 1_555 1_555
C2 C6 1_555 1_555
C3 C4 1_555 1_555
C4 C5 1_555 1_555
C5 C6 1_555 1_555
C7 C8 1_555 1_555
C9 C10 1_555 1_555
C12 C13 1_555 1_555
C14 C15 1_555 1_555

#END
