
#######################################################################
#
#                 Cambridge Crystallographic Data Centre
#                                CCDC 
#
#######################################################################
#
# If this CIF has been generated from an entry in the Cambridge 
# Structural Database, then it will include bibliographic, chemical, 
# crystal, experimental, refinement or atomic coordinate data resulting 
# from the CCDC's data processing and validation procedures.
#
#######################################################################

data_RULZEF
_symmetry_cell_setting           monoclinic
_symmetry_space_group_name_H-M   'C 2/c'
_symmetry_Int_Tables_number      15
_space_group_name_Hall           '-C 2yn'
loop_
_symmetry_equiv_pos_site_id
_symmetry_equiv_pos_as_xyz
1 x,y,z
2 -x,y,1/2-z
3 1/2+x,1/2+y,z
4 1/2-x,1/2+y,1/2-z
5 -x,-y,-z
6 x,-y,1/2+z
7 1/2-x,1/2-y,-z
8 1/2+x,1/2-y,1/2+z
_cell_length_a                   17.9596(10)
_cell_length_b                   10.4891(5)
_cell_length_c                   23.2327(13)
_cell_angle_alpha                90
_cell_angle_beta                 92.294(2)
_cell_angle_gamma                90
_cell_volume                     4373.07
loop_
_atom_site_label
_atom_site_type_symbol
_atom_site_fract_x
_atom_site_fract_y
_atom_site_fract_z
Ho1 Ho 0.26503(2) 0.60846(2) 0.24500(2)
Mn1 Mn 0.45298(3) 0.28456(5) 0.10375(2)
O1 O 0.35178(12) 0.4622(2) 0.22114(10)
O2 O 0.31258(12) 0.2620(2) 0.22833(10)
O3 O 0.29771(13) 0.7380(2) 0.17002(9)
O4 O 0.19906(13) 0.5358(2) 0.16304(9)
O5 O 0.36465(13) 0.7268(2) 0.28081(10)
O6 O 0.28753(13) 0.5428(2) 0.33892(9)
O7 O 0.44237(16) 0.5403(3) 0.05193(13)
O8 O 0.51312(19) 0.1673(3) 0.00018(13)
O9 O 0.29960(16) 0.2194(3) 0.06462(13)
O10 O 0.17420(12) 0.4593(2) 0.27082(9)
H1 H 0.1767 0.4035 0.291
H2 H 0.1651 0.421 0.2441
C1 C 0.35988(17) 0.3443(3) 0.21541(13)
C2 C 0.43107(17) 0.2985(3) 0.19277(13)
C3 C 0.49403(18) 0.3749(3) 0.18066(14)
H3 H 0.4975 0.4647 0.1854
C4 C 0.55007(19) 0.2954(4) 0.16046(15)
H4 H 0.5978 0.322 0.1489
C5 C 0.5233(2) 0.1691(4) 0.16032(16)
H5 H 0.5501 0.0959 0.1488
C6 C 0.45019(19) 0.1693(3) 0.18005(14)
H6 H 0.4191 0.0968 0.1842
C7 C 0.3430(2) 0.8199(4) 0.08337(16)
H7 H 0.3957 0.809 0.0952
H8 H 0.3272 0.9068 0.0924
H9 H 0.3365 0.8051 0.0418
C8 C 0.29670(19) 0.7261(3) 0.11520(14)
C9 C 0.2562(2) 0.6341(3) 0.08496(14)
H10 H 0.2611 0.6308 0.0444
C10 C 0.20868(18) 0.5460(3) 0.10935(14)
C11 C 0.1640(2) 0.4570(4) 0.07068(15)
H11 H 0.179 0.3705 0.0775
H12 H 0.112 0.4678 0.0776
H13 H 0.1721 0.4807 0.0318
C12 C 0.4761(2) 0.8072(4) 0.32570(19)
H14 H 0.4639 0.883 0.3044
H15 H 0.4911 0.8309 0.3641
H16 H 0.5154 0.7637 0.3071
C13 C 0.4085(2) 0.7216(3) 0.32521(16)
C14 C 0.3979(2) 0.6438(3) 0.37252(16)
H17 H 0.4342 0.6468 0.4034
C15 C 0.3379(2) 0.5618(4) 0.37759(15)
C16 C 0.3310(3) 0.4902(4) 0.43377(16)
H18 H 0.3245 0.4011 0.4264
H19 H 0.2885 0.522 0.4529
H20 H 0.375 0.5027 0.4579
C17 C 0.4459(2) 0.4394(4) 0.07145(15)
C18 C 0.4900(2) 0.2143(4) 0.04082(16)
C19 C 0.3593(2) 0.2441(4) 0.07976(15)
Ho1C Ho 0.23497(2) 0.10846(2) 0.25500(2)
O2C O 0.18742(12) 0.7620(2) 0.27167(10)
loop_
_geom_bond_atom_site_label_1
_geom_bond_atom_site_label_2
_geom_bond_site_symmetry_1
_geom_bond_site_symmetry_2
Ho1 O1 1_555 1_555
Mn1 C2 1_555 1_555
O1 C1 1_555 1_555
O2 C1 1_555 1_555
O3 Ho1 1_555 1_555
O4 Ho1 1_555 1_555
O5 Ho1 1_555 1_555
O6 Ho1 1_555 1_555
O7 C17 1_555 1_555
O8 C18 1_555 1_555
O9 C19 1_555 1_555
O10 Ho1 1_555 1_555
H1 O10 1_555 1_555
H2 O10 1_555 1_555
C1 C2 1_555 1_555
C2 C3 1_555 1_555
C3 Mn1 1_555 1_555
H3 C3 1_555 1_555
C4 Mn1 1_555 1_555
H4 C4 1_555 1_555
C5 Mn1 1_555 1_555
H5 C5 1_555 1_555
C6 Mn1 1_555 1_555
H6 C6 1_555 1_555
C7 H7 1_555 1_555
H8 C7 1_555 1_555
H9 C7 1_555 1_555
C8 O3 1_555 1_555
C9 C8 1_555 1_555
H10 C9 1_555 1_555
C10 O4 1_555 1_555
C11 C10 1_555 1_555
H11 C11 1_555 1_555
H12 C11 1_555 1_555
H13 C11 1_555 1_555
C12 H14 1_555 1_555
H15 C12 1_555 1_555
H16 C12 1_555 1_555
C13 O5 1_555 1_555
C14 C13 1_555 1_555
H17 C14 1_555 1_555
C15 O6 1_555 1_555
C16 C15 1_555 1_555
H18 C16 1_555 1_555
H19 C16 1_555 1_555
H20 C16 1_555 1_555
C17 Mn1 1_555 1_555
C18 Mn1 1_555 1_555
C19 Mn1 1_555 1_555
Ho1C O2 1_555 1_555
O2C Ho1 1_555 1_555
C2 C6 1_555 1_555
C3 C4 1_555 1_555
C4 C5 1_555 1_555
C5 C6 1_555 1_555
C7 C8 1_555 1_555
C9 C10 1_555 1_555
C12 C13 1_555 1_555
C14 C15 1_555 1_555

#END
