
#######################################################################
#
#                 Cambridge Crystallographic Data Centre
#                                CCDC 
#
#######################################################################
#
# If this CIF has been generated from an entry in the Cambridge 
# Structural Database, then it will include bibliographic, chemical, 
# crystal, experimental, refinement or atomic coordinate data resulting 
# from the CCDC's data processing and validation procedures.
#
#######################################################################

data_RULZAB
_symmetry_cell_setting           monoclinic
_symmetry_space_group_name_H-M   'C 2/c'
_symmetry_Int_Tables_number      15
_space_group_name_Hall           '-C 2yn'
loop_
_symmetry_equiv_pos_site_id
_symmetry_equiv_pos_as_xyz
1 x,y,z
2 -x,y,1/2-z
3 1/2+x,1/2+y,z
4 1/2-x,1/2+y,1/2-z
5 -x,-y,-z
6 x,-y,1/2+z
7 1/2-x,1/2-y,-z
8 1/2+x,1/2-y,1/2+z
_cell_length_a                   17.9136(15)
_cell_length_b                   10.4810(9)
_cell_length_c                   23.2099(19)
_cell_angle_alpha                90
_cell_angle_beta                 92.389(2)
_cell_angle_gamma                90
_cell_volume                     4353.93
loop_
_atom_site_label
_atom_site_type_symbol
_atom_site_fract_x
_atom_site_fract_y
_atom_site_fract_z
Dy1 Dy 0.26464(2) 0.60857(2) 0.24481(2)
Mn1 Mn 0.45368(5) 0.28379(8) 0.10342(4)
O1 O 0.3533(2) 0.4631(3) 0.22046(17)
O2 O 0.3130(2) 0.2636(3) 0.22815(16)
O3 O 0.2969(2) 0.7388(3) 0.16893(16)
O4 O 0.1993(2) 0.5362(3) 0.16280(16)
O5 O 0.3642(2) 0.7283(3) 0.28120(17)
O6 O 0.2875(2) 0.5437(4) 0.33874(17)
O7 O 0.4424(2) 0.5401(4) 0.05188(19)
O8 O 0.5128(3) 0.1665(4) 0.0000(2)
O9 O 0.2998(3) 0.2190(5) 0.0652(2)
O10 O 0.1730(2) 0.4584(3) 0.27091(16)
H1 H 0.1524 0.3972 0.2464
H2 H 0.1843 0.4029 0.3
C1 C 0.3615(3) 0.3464(5) 0.2150(2)
C2 C 0.4331(3) 0.2980(5) 0.1922(2)
C3 C 0.4953(3) 0.3740(5) 0.1805(2)
H3 H 0.4988 0.4639 0.1853
C4 C 0.5518(3) 0.2925(6) 0.1603(2)
H4 H 0.6001 0.3176 0.1491
C5 C 0.5233(3) 0.1684(5) 0.1600(2)
H5 H 0.549 0.0943 0.148
C6 C 0.4513(3) 0.1708(5) 0.1798(2)
H6 H 0.4198 0.0989 0.1843
C7 C 0.3421(3) 0.8201(6) 0.0820(3)
H7 H 0.395 0.8098 0.0936
H8 H 0.3262 0.9072 0.0906
H9 H 0.3351 0.8041 0.0405
C8 C 0.2962(3) 0.7267(5) 0.1147(2)
C9 C 0.2558(3) 0.6332(5) 0.0842(2)
H10 H 0.261 0.6287 0.0437
C10 C 0.2085(3) 0.5463(5) 0.1092(3)
C11 C 0.1646(3) 0.4560(5) 0.0704(2)
H11 H 0.1795 0.3696 0.0772
H12 H 0.1126 0.4669 0.0773
H13 H 0.1727 0.4798 0.0315
C12 C 0.4768(4) 0.8091(7) 0.3266(3)
H14 H 0.4646 0.8848 0.3053
H15 H 0.4919 0.8328 0.365
H16 H 0.5161 0.7656 0.308
C13 C 0.4089(3) 0.7225(5) 0.3251(3)
C14 C 0.3980(4) 0.6447(5) 0.3728(3)
H17 H 0.4341 0.6481 0.404
C15 C 0.3382(4) 0.5634(6) 0.3777(3)
C16 C 0.3308(4) 0.4907(6) 0.4339(3)
H18 H 0.3243 0.4016 0.4265
H19 H 0.2883 0.5225 0.453
H20 H 0.3748 0.5032 0.458
C17 C 0.4464(3) 0.4378(6) 0.0714(3)
C18 C 0.4901(3) 0.2142(6) 0.0406(3)
C19 C 0.3599(4) 0.2433(6) 0.0801(3)
Dy1C Dy 0.23536(2) 0.10857(2) 0.25519(2)
O2C O 0.1870(2) 0.7636(3) 0.27185(16)
loop_
_geom_bond_atom_site_label_1
_geom_bond_atom_site_label_2
_geom_bond_site_symmetry_1
_geom_bond_site_symmetry_2
Dy1 O1 1_555 1_555
Mn1 C2 1_555 1_555
O1 C1 1_555 1_555
O2 C1 1_555 1_555
O3 Dy1 1_555 1_555
O4 Dy1 1_555 1_555
O5 Dy1 1_555 1_555
O6 Dy1 1_555 1_555
O7 C17 1_555 1_555
O8 C18 1_555 1_555
O9 C19 1_555 1_555
O10 Dy1 1_555 1_555
H1 O10 1_555 1_555
H2 O10 1_555 1_555
C1 C2 1_555 1_555
C2 C3 1_555 1_555
C3 Mn1 1_555 1_555
H3 C3 1_555 1_555
C4 Mn1 1_555 1_555
H4 C4 1_555 1_555
C5 Mn1 1_555 1_555
H5 C5 1_555 1_555
C6 Mn1 1_555 1_555
H6 C6 1_555 1_555
C7 H7 1_555 1_555
H8 C7 1_555 1_555
H9 C7 1_555 1_555
C8 O3 1_555 1_555
C9 C8 1_555 1_555
H10 C9 1_555 1_555
C10 O4 1_555 1_555
C11 C10 1_555 1_555
H11 C11 1_555 1_555
H12 C11 1_555 1_555
H13 C11 1_555 1_555
C12 H14 1_555 1_555
H15 C12 1_555 1_555
H16 C12 1_555 1_555
C13 O5 1_555 1_555
C14 C13 1_555 1_555
H17 C14 1_555 1_555
C15 O6 1_555 1_555
C16 C15 1_555 1_555
H18 C16 1_555 1_555
H19 C16 1_555 1_555
H20 C16 1_555 1_555
C17 Mn1 1_555 1_555
C18 Mn1 1_555 1_555
C19 Mn1 1_555 1_555
Dy1C O2 1_555 1_555
O2C Dy1 1_555 1_555
C2 C6 1_555 1_555
C3 C4 1_555 1_555
C4 C5 1_555 1_555
C5 C6 1_555 1_555
C7 C8 1_555 1_555
C9 C10 1_555 1_555
C12 C13 1_555 1_555
C14 C15 1_555 1_555

#END
