
#######################################################################
#
#                 Cambridge Crystallographic Data Centre
#                                CCDC 
#
#######################################################################
#
# If this CIF has been generated from an entry in the Cambridge 
# Structural Database, then it will include bibliographic, chemical, 
# crystal, experimental, refinement or atomic coordinate data resulting 
# from the CCDC's data processing and validation procedures.
#
#######################################################################

data_RULZIJ
_symmetry_cell_setting           monoclinic
_symmetry_space_group_name_H-M   'C 2/c'
_symmetry_Int_Tables_number      15
_space_group_name_Hall           '-C 2yn'
loop_
_symmetry_equiv_pos_site_id
_symmetry_equiv_pos_as_xyz
1 x,y,z
2 -x,y,1/2-z
3 1/2+x,1/2+y,z
4 1/2-x,1/2+y,1/2-z
5 -x,-y,-z
6 x,-y,1/2+z
7 1/2-x,1/2-y,-z
8 1/2+x,1/2-y,1/2+z
_cell_length_a                   17.9464(10)
_cell_length_b                   10.4623(6)
_cell_length_c                   23.2149(13)
_cell_angle_alpha                90
_cell_angle_beta                 92.4400(10)
_cell_angle_gamma                90
_cell_volume                     4354.89
loop_
_atom_site_label
_atom_site_type_symbol
_atom_site_fract_x
_atom_site_fract_y
_atom_site_fract_z
Er1 Er 0.26498(2) 0.60740(2) 0.24504(2)
Mn1 Mn 0.45233(3) 0.28409(5) 0.10371(2)
O1 O 0.35051(12) 0.4615(2) 0.22101(10)
O2 O 0.31230(12) 0.2608(2) 0.22830(10)
O3 O 0.29773(14) 0.7374(2) 0.17060(10)
O4 O 0.19876(13) 0.5365(2) 0.16323(10)
O5 O 0.36452(13) 0.7250(2) 0.28100(11)
O6 O 0.28759(14) 0.5418(3) 0.33859(10)
O7 O 0.44145(19) 0.5404(3) 0.05201(14)
O8 O 0.5137(2) 0.1676(4) 0.00047(15)
O9 O 0.29971(18) 0.2168(4) 0.06435(16)
O10 O 0.17451(13) 0.4580(2) 0.27012(10)
H1 H 0.1875 0.399 0.2977
H2 H 0.156 0.3997 0.2457
C1 C 0.35912(15) 0.3437(3) 0.21526(12)
C2 C 0.43042(16) 0.2982(3) 0.19267(13)
C3 C 0.49325(17) 0.3743(3) 0.18091(14)
H3 H 0.4966 0.4643 0.1857
C4 C 0.54995(18) 0.2951(4) 0.16091(15)
H4 H 0.5978 0.3219 0.1497
C5 C 0.5227(2) 0.1682(4) 0.16056(16)
H5 H 0.5494 0.0948 0.149
C6 C 0.44944(19) 0.1683(3) 0.18014(14)
H6 H 0.4184 0.0957 0.1843
C7 C 0.3431(3) 0.8205(5) 0.08410(18)
H7 H 0.3958 0.8096 0.0959
H8 H 0.3273 0.9077 0.0931
H9 H 0.3364 0.8056 0.0425
C8 C 0.29681(19) 0.7266(3) 0.11589(15)
C9 C 0.2558(2) 0.6348(4) 0.08497(15)
H10 H 0.2604 0.6319 0.0444
C10 C 0.20839(18) 0.5466(3) 0.10974(14)
C11 C 0.1636(2) 0.4580(4) 0.07072(16)
H11 H 0.1785 0.3716 0.0775
H12 H 0.1116 0.4688 0.0777
H13 H 0.1717 0.4818 0.0318
C12 C 0.4767(3) 0.8056(5) 0.3254(2)
H14 H 0.4645 0.8813 0.3041
H15 H 0.4917 0.8292 0.3638
H16 H 0.516 0.7621 0.3068
C13 C 0.4084(2) 0.7208(4) 0.32499(17)
C14 C 0.3981(2) 0.6422(4) 0.37296(19)
H17 H 0.4344 0.6448 0.404
C15 C 0.3377(2) 0.5611(4) 0.37733(16)
C16 C 0.3307(3) 0.4885(5) 0.43351(18)
H18 H 0.3241 0.3994 0.4262
H19 H 0.2881 0.5203 0.4526
H20 H 0.3746 0.501 0.4576
C17 C 0.4453(2) 0.4387(4) 0.07133(16)
C18 C 0.4899(2) 0.2141(4) 0.04035(18)
C19 C 0.3588(2) 0.2430(4) 0.07904(17)
Er1C Er 0.23502(2) 0.10740(2) 0.25496(2)
O2C O 0.18770(12) 0.7608(2) 0.27170(10)
loop_
_geom_bond_atom_site_label_1
_geom_bond_atom_site_label_2
_geom_bond_site_symmetry_1
_geom_bond_site_symmetry_2
Er1 O1 1_555 1_555
Mn1 C2 1_555 1_555
O1 C1 1_555 1_555
O2 C1 1_555 1_555
O3 Er1 1_555 1_555
O4 Er1 1_555 1_555
O5 Er1 1_555 1_555
O6 Er1 1_555 1_555
O7 C17 1_555 1_555
O8 C18 1_555 1_555
O9 C19 1_555 1_555
O10 Er1 1_555 1_555
H1 O10 1_555 1_555
H2 O10 1_555 1_555
C1 C2 1_555 1_555
C2 C3 1_555 1_555
C3 Mn1 1_555 1_555
H3 C3 1_555 1_555
C4 Mn1 1_555 1_555
H4 C4 1_555 1_555
C5 Mn1 1_555 1_555
H5 C5 1_555 1_555
C6 Mn1 1_555 1_555
H6 C6 1_555 1_555
C7 H7 1_555 1_555
H8 C7 1_555 1_555
H9 C7 1_555 1_555
C8 O3 1_555 1_555
C9 C8 1_555 1_555
H10 C9 1_555 1_555
C10 O4 1_555 1_555
C11 C10 1_555 1_555
H11 C11 1_555 1_555
H12 C11 1_555 1_555
H13 C11 1_555 1_555
C12 H14 1_555 1_555
H15 C12 1_555 1_555
H16 C12 1_555 1_555
C13 O5 1_555 1_555
C14 C13 1_555 1_555
H17 C14 1_555 1_555
C15 O6 1_555 1_555
C16 C15 1_555 1_555
H18 C16 1_555 1_555
H19 C16 1_555 1_555
H20 C16 1_555 1_555
C17 Mn1 1_555 1_555
C18 Mn1 1_555 1_555
C19 Mn1 1_555 1_555
Er1C O2 1_555 1_555
O2C Er1 1_555 1_555
C2 C6 1_555 1_555
C3 C4 1_555 1_555
C4 C5 1_555 1_555
C5 C6 1_555 1_555
C7 C8 1_555 1_555
C9 C10 1_555 1_555
C12 C13 1_555 1_555
C14 C15 1_555 1_555

#END
