
#######################################################################
#
#                 Cambridge Crystallographic Data Centre
#                                CCDC 
#
#######################################################################
#
# If this CIF has been generated from an entry in the Cambridge 
# Structural Database, then it will include bibliographic, chemical, 
# crystal, experimental, refinement or atomic coordinate data resulting 
# from the CCDC's data processing and validation procedures.
#
#######################################################################

data_RUMFIQ
_symmetry_cell_setting           monoclinic
_symmetry_space_group_name_H-M   'P 21/c'
_symmetry_Int_Tables_number      14
_space_group_name_Hall           '-P 2ybc'
loop_
_symmetry_equiv_pos_site_id
_symmetry_equiv_pos_as_xyz
1 x,y,z
2 -x,1/2+y,1/2-z
3 -x,-y,-z
4 x,1/2-y,1/2+z
_cell_length_a                   11.851(3)
_cell_length_b                   17.5976(5)
_cell_length_c                   10.9860(5)
_cell_angle_alpha                90
_cell_angle_beta                 92.51
_cell_angle_gamma                90
_cell_volume                     2288.92
loop_
_atom_site_label
_atom_site_type_symbol
_atom_site_fract_x
_atom_site_fract_y
_atom_site_fract_z
Ag1 Ag -1.005642(16) -0.211218(10) -0.424816(15)
Ag2 Ag -0.886598(16) -0.304763(10) -0.153791(16)
Cl1 Cl -0.63341(6) -0.39615(4) -0.59979(6)
Cl2 Cl -1.22901(6) -0.05715(4) -0.08126(7)
O1 O -1.11917(17) -0.20971(10) -0.04181(16)
O2 O -0.83412(15) -0.26488(11) -0.36067(15)
O3 O -1.05932(15) -0.25474(10) -0.21825(14)
O4 O -0.7563(2) -0.25808(14) -0.54005(18)
N1 N -0.88395(17) -0.43716(11) -0.15824(17)
N2 N -0.94928(17) -0.58455(10) -0.10942(17)
C1 C -0.8342(2) -0.47600(13) -0.0645(2)
C2 C -1.2303(2) -0.18608(14) -0.2228(2)
C3 C -1.0079(2) -0.42920(14) -0.3396(2)
H1 H -1.0816 -0.4079 -0.3211
H2 H -1.0167 -0.4635 -0.4096
H3 H -0.9561 -0.3879 -0.3588
C4 C -1.4250(3) -0.1380(2) -0.3544(3)
H4 H -1.4917 -0.1220 -0.3982
C5 C -0.5196(3) -0.3435(2) -0.2132(3)
H5 H -0.4946 -0.3337 -0.1314
C6 C -1.2783(2) -0.22922(16) -0.3190(2)
H6 H -1.2434 -0.2755 -0.3413
C7 C -0.6542(2) -0.32123(13) -0.3822(2)
C8 C -0.5924(2) -0.37209(14) -0.4507(2)
C9 C -0.9609(2) -0.47243(12) -0.2313(2)
C10 C -0.99404(19) -0.54728(12) -0.2067(2)
C11 C -1.3762(3) -0.20548(19) -0.3824(3)
H7 H -1.4092 -0.2364 -0.4453
C12 C -0.7571(2) -0.27837(13) -0.4321(2)
C13 C -1.3780(3) -0.09231(19) -0.2623(3)
H8 H -1.4107 -0.0445 -0.2447
C14 C -0.7418(2) -0.43691(15) 0.0088(3)
H9 H -0.7222 -0.3893 -0.0314
H10 H -0.6752 -0.4699 0.0151
H11 H -0.7676 -0.4260 0.0905
C15 C -0.86795(19) -0.55028(12) -0.0389(2)
C16 C -0.4958(2) -0.40784(16) -0.4018(3)
H12 H -0.4545 -0.4420 -0.4500
C17 C -0.6152(3) -0.30792(16) -0.2621(2)
H13 H -0.6552 -0.2736 -0.2131
C18 C -1.2827(2) -0.11744(15) -0.1964(2)
C19 C -0.4607(3) -0.39333(19) -0.2835(3)
H14 H -0.3952 -0.4179 -0.2496
C20 C -0.8172(2) -0.59399(14) 0.0667(2)
H15 H -0.8704 -0.6331 0.0913
H16 H -0.8008 -0.5593 0.1350
H17 H -0.7470 -0.6182 0.0428
C21 C -1.0802(2) -0.58727(14) -0.2882(2)
H18 H -1.0454 -0.6027 -0.3636
H19 H -1.1435 -0.5528 -0.3076
H20 H -1.1079 -0.6323 -0.2465
C22 C -1.1274(2) -0.21813(13) -0.1543(2)
Ag1A Ag -0.994358(16) -0.711218(10) -0.075184(15)
Ag1C Ag -1.005642(16) -0.288782(10) 0.075184(15)
Ag2C Ag -0.886598(16) -0.195237(10) -0.653791(16)
O1C O -1.11917(17) -0.29029(10) -0.54181(16)
O4C O -0.7563(2) -0.24192(14) -0.04005(18)
N2A N -1.05072(17) -0.08455(10) -0.39058(17)
loop_
_geom_bond_atom_site_label_1
_geom_bond_atom_site_label_2
_geom_bond_site_symmetry_1
_geom_bond_site_symmetry_2
Ag1 O2 1_555 1_555
Ag2 O2 1_555 1_555
Cl1 C8 1_555 1_555
Cl2 C18 1_555 1_555
O1 C22 1_555 1_555
O2 C12 1_555 1_555
O3 Ag1 1_555 1_555
O4 C12 1_555 1_555
N1 Ag2 1_555 1_555
N2 C10 1_555 1_555
C1 N1 1_555 1_555
C2 C6 1_555 1_555
C3 H1 1_555 1_555
H2 C3 1_555 1_555
H3 C3 1_555 1_555
C4 H4 1_555 1_555
C5 H5 1_555 1_555
C6 H6 1_555 1_555
C7 C8 1_555 1_555
C8 C16 1_555 1_555
C9 N1 1_555 1_555
C10 C9 1_555 1_555
C11 C4 1_555 1_555
H7 C11 1_555 1_555
C12 C7 1_555 1_555
C13 C4 1_555 1_555
H8 C13 1_555 1_555
C14 C1 1_555 1_555
H9 C14 1_555 1_555
H10 C14 1_555 1_555
H11 C14 1_555 1_555
C15 N2 1_555 1_555
C16 H12 1_555 1_555
C17 C5 1_555 1_555
H13 C17 1_555 1_555
C18 C2 1_555 1_555
C19 C5 1_555 1_555
H14 C19 1_555 1_555
C20 C15 1_555 1_555
H15 C20 1_555 1_555
H16 C20 1_555 1_555
H17 C20 1_555 1_555
C21 C10 1_555 1_555
H18 C21 1_555 1_555
H19 C21 1_555 1_555
H20 C21 1_555 1_555
C22 O3 1_555 1_555
Ag1A N2 1_555 1_555
Ag1C Ag2 1_555 1_555
Ag2C Ag1 1_555 1_555
O1C Ag1 1_555 1_555
O4C Ag2 1_555 1_555
N2A Ag1 1_555 1_555
Ag2 O3 1_555 1_555
O1 Ag1C 1_555 1_555
O4 Ag2C 1_555 1_555
C1 C15 1_555 1_555
C2 C22 1_555 1_555
C3 C9 1_555 1_555
C6 C11 1_555 1_555
C7 C17 1_555 1_555
C13 C18 1_555 1_555
C16 C19 1_555 1_555

#END
