
#######################################################################
#
#                 Cambridge Crystallographic Data Centre
#                                CCDC 
#
#######################################################################
#
# If this CIF has been generated from an entry in the Cambridge 
# Structural Database, then it will include bibliographic, chemical, 
# crystal, experimental, refinement or atomic coordinate data resulting 
# from the CCDC's data processing and validation procedures.
#
#######################################################################

data_RUMFEM
_symmetry_cell_setting           monoclinic
_symmetry_space_group_name_H-M   'P 21/c'
_symmetry_Int_Tables_number      14
_space_group_name_Hall           '-P 2ybc'
loop_
_symmetry_equiv_pos_site_id
_symmetry_equiv_pos_as_xyz
1 x,y,z
2 -x,1/2+y,1/2-z
3 -x,-y,-z
4 x,1/2-y,1/2+z
_cell_length_a                   12.6005(15)
_cell_length_b                   16.5519(12)
_cell_length_c                   10.6199(10)
_cell_angle_alpha                90
_cell_angle_beta                 93.825
_cell_angle_gamma                90
_cell_volume                     2209.98
loop_
_atom_site_label
_atom_site_type_symbol
_atom_site_fract_x
_atom_site_fract_y
_atom_site_fract_z
Ag1 Ag 0.04768(6) -0.77625(4) -0.52294(7)
Ag2 Ag -0.05935(6) -0.70203(4) -0.79027(7)
O1 O -0.1191(5) -0.7216(4) -0.5729(6)
O2 O 0.1167(5) -0.7350(4) -0.7296(6)
O3 O 0.1576(6) -0.8017(4) -0.9004(6)
O4 O -0.1639(6) -0.6988(4) -0.3796(7)
N1 N -0.0607(6) -0.4084(4) -0.9115(7)
N2 N -0.0819(5) -0.5655(4) -0.8235(7)
C1 C -0.1313(7) -0.4597(5) -0.9682(8)
C2 C 0.1736(8) -0.7841(5) -0.7836(9)
C3 C -0.1979(7) -0.4290(5) -1.0800(8)
H1 H -0.2696(15) -0.417(3) -1.0549(15)
H2 H -0.166(2) -0.3799(19) -1.112(3)
H3 H -0.202(4) -0.4703(13) -1.146(2)
C4 C -0.0041(6) -0.4346(5) -0.8070(8)
H4 H 0.0432(6) -0.3983(5) -0.7623(8)
C5 C 0.0496(7) -0.5423(5) -0.6474(8)
H5 H 0.0012(9) -0.564(3) -0.588(3)
H6 H 0.099(3) -0.584(3) -0.6709(12)
H7 H 0.090(4) -0.4971(9) -0.608(3)
C6 C 0.4486(9) -0.8756(8) -0.5736(12)
H8 H 0.5107(9) -0.8944(8) -0.5269(12)
C7 C -0.3375(8) -0.5908(6) -0.3516(9)
H9 H -0.390(3) -0.549(3) -0.335(3)
H10 H -0.340(5) -0.6341(9) -0.2891(11)
H11 H -0.266(2) -0.567(4) -0.346(2)
C8 C -0.1831(8) -0.6983(5) -0.4964(10)
C9 C 0.2691(8) -0.9467(6) -0.8545(9)
H12 H 0.1944(17) -0.959(3) -0.842(3)
H13 H 0.274(5) -0.9186(16) -0.9351(11)
H14 H 0.310(3) -0.9971(17) -0.855(4)
C10 C -0.1432(6) -0.5380(5) -0.9234(8)
C11 C 0.3130(8) -0.7749(6) -0.6126(9)
H15 H 0.2807(8) -0.7255(6) -0.5904(9)
C12 C 0.2692(7) -0.8186(5) -0.7150(9)
C13 C -0.3234(8) -0.6944(6) -0.6738(10)
H16 H -0.2758(8) -0.7256(6) -0.7198(10)
C14 C -0.0133(7) -0.5130(5) -0.7630(8)
C15 C -0.2237(7) -0.5948(5) -0.9830(9)
H17 H -0.201(3) -0.612(3) -1.066(3)
H18 H -0.230(4) -0.6422(18) -0.929(3)
H19 H -0.2928(14) -0.5675(13) -0.994(6)
C16 C -0.3621(8) -0.6250(5) -0.4824(10)
C17 C 0.3135(7) -0.8939(6) -0.7490(9)
C18 C 0.4033(8) -0.9200(7) -0.6714(11)
H20 H 0.4333(8) -0.9712(7) -0.6885(11)
C19 C -0.4608(9) -0.6062(7) -0.5442(13)
H21 H -0.5102(9) -0.5751(7) -0.5010(13)
C20 C -0.4189(10) -0.6755(7) -0.7295(12)
H22 H -0.4380(10) -0.6927(7) -0.8133(12)
C21 C -0.2912(8) -0.6705(5) -0.5520(9)
C22 C 0.4014(9) -0.8013(7) -0.5433(11)
H23 H 0.4310(9) -0.7698(7) -0.4749(11)
C23 C -0.4882(9) -0.6313(7) -0.6645(14)
H24 H -0.5560(9) -0.6177(7) -0.7031(14)
Ag1A Ag -0.04768(6) -0.27625(4) -0.97706(7)
Ag1C Ag 0.04768(6) -0.72375(4) -1.02294(7)
Ag2C Ag -0.05935(6) -0.79797(4) -0.29027(7)
O3C O 0.1576(6) -0.6983(4) -0.4004(6)
O4C O -0.1639(6) -0.8012(4) -0.8796(7)
N1A N 0.0607(6) -0.9084(4) -0.5885(7)
loop_
_geom_bond_atom_site_label_1
_geom_bond_atom_site_label_2
_geom_bond_site_symmetry_1
_geom_bond_site_symmetry_2
Ag1 O1 1_555 1_555
Ag2 O1 1_555 1_555
O1 C8 1_555 1_555
O2 Ag1 1_555 1_555
O3 C2 1_555 1_555
O4 C8 1_555 1_555
N1 C1 1_555 1_555
N2 Ag2 1_555 1_555
C1 C3 1_555 1_555
C2 O2 1_555 1_555
C3 H1 1_555 1_555
H2 C3 1_555 1_555
H3 C3 1_555 1_555
C4 N1 1_555 1_555
H4 C4 1_555 1_555
C5 H5 1_555 1_555
H6 C5 1_555 1_555
H7 C5 1_555 1_555
C6 H8 1_555 1_555
C7 H9 1_555 1_555
H10 C7 1_555 1_555
H11 C7 1_555 1_555
C8 C21 1_555 1_555
C9 H12 1_555 1_555
H13 C9 1_555 1_555
H14 C9 1_555 1_555
C10 N2 1_555 1_555
C11 H15 1_555 1_555
C12 C2 1_555 1_555
C13 H16 1_555 1_555
C14 N2 1_555 1_555
C15 C10 1_555 1_555
H17 C15 1_555 1_555
H18 C15 1_555 1_555
H19 C15 1_555 1_555
C16 C7 1_555 1_555
C17 C9 1_555 1_555
C18 C6 1_555 1_555
H20 C18 1_555 1_555
C19 C16 1_555 1_555
H21 C19 1_555 1_555
C20 C13 1_555 1_555
H22 C20 1_555 1_555
C21 C13 1_555 1_555
C22 C6 1_555 1_555
H23 C22 1_555 1_555
C23 C19 1_555 1_555
H24 C23 1_555 1_555
Ag1A N1 1_555 1_555
Ag1C Ag2 1_555 1_555
Ag2C Ag1 1_555 1_555
O3C Ag1 1_555 1_555
O4C Ag2 1_555 1_555
N1A Ag1 1_555 1_555
Ag2 O2 1_555 1_555
O3 Ag1C 1_555 1_555
O4 Ag2C 1_555 1_555
C1 C10 1_555 1_555
C4 C14 1_555 1_555
C5 C14 1_555 1_555
C11 C12 1_555 1_555
C11 C22 1_555 1_555
C12 C17 1_555 1_555
C16 C21 1_555 1_555
C17 C18 1_555 1_555
C20 C23 1_555 1_555

#END
