
#######################################################################
#
#                 Cambridge Crystallographic Data Centre
#                                CCDC 
#
#######################################################################
#
# If this CIF has been generated from an entry in the Cambridge 
# Structural Database, then it will include bibliographic, chemical, 
# crystal, experimental, refinement or atomic coordinate data resulting 
# from the CCDC's data processing and validation procedures.
#
#######################################################################

data_RUMFAI
_symmetry_cell_setting           triclinic
_symmetry_space_group_name_H-M   'P -1'
_symmetry_Int_Tables_number      2
_space_group_name_Hall           '-P 1'
loop_
_symmetry_equiv_pos_site_id
_symmetry_equiv_pos_as_xyz
1 x,y,z
2 -x,-y,-z
_cell_length_a                   9.5221(7)
_cell_length_b                   10.9291(8)
_cell_length_c                   12.4361(10)
_cell_angle_alpha                78.577(6)
_cell_angle_beta                 86.353(6)
_cell_angle_gamma                65.554(7)
_cell_volume                     1154.6
loop_
_atom_site_label
_atom_site_type_symbol
_atom_site_fract_x
_atom_site_fract_y
_atom_site_fract_z
Ag1 Ag 0.39079(5) 0.41259(4) 0.47622(4)
Ag2 Ag 0.43358(5) 0.13591(4) 0.58879(4)
O1 O 0.4873(5) 0.1066(4) 0.4031(4)
N1 N 0.1641(6) 0.2356(5) 0.5997(4)
O2 O 0.3906(7) 0.3284(5) 0.3276(4)
O3 O 0.5913(6) 0.1685(5) 0.6974(4)
O4 O 0.5268(5) 0.3905(5) 0.6220(4)
C1 C -0.0548(8) 0.4311(7) 0.6285(5)
C2 C 0.0963(8) 0.3411(7) 0.6533(5)
C3 C 0.5929(7) 0.2824(7) 0.6906(5)
C4 C 0.6811(8) 0.2983(7) 0.7825(6)
C5 C 0.4625(9) 0.1728(7) 0.2096(6)
C6 C -0.0734(8) 0.3097(6) 0.5033(5)
C7 C 0.6129(11) 0.0996(8) 0.1772(7)
C8 C 0.6377(12) 0.0831(9) 0.0672(8)
C9 C 0.3418(11) 0.2272(7) 0.1315(6)
C10 C 0.0794(7) 0.2158(6) 0.5281(6)
C11 C 0.3698(13) 0.2103(9) 0.0228(7)
C12 C 0.5171(13) 0.1403(9) -0.0069(7)
O5 O 0.1484(7) 0.2752(7) 0.2565(5)
C13 C 0.4448(8) 0.2051(6) 0.3227(5)
C14 C 0.8892(11) 0.2066(10) 0.9188(7)
C15 C 0.8167(9) 0.1954(8) 0.8301(6)
N2 N 0.1858(9) 0.2987(7) 0.1616(6)
C16 C 0.6179(10) 0.4152(8) 0.8272(6)
C17 C 0.6874(13) 0.4305(10) 0.9146(7)
O6 O 0.0935(8) 0.3841(7) 0.0893(6)
N3 N -0.1381(6) 0.4181(5) 0.5531(4)
C18 C -0.1700(8) 0.2905(7) 0.4233(6)
N4 N 0.8913(8) 0.0664(8) 0.7899(6)
C19 C 0.1519(8) 0.0890(7) 0.4820(7)
C20 C 0.1865(9) 0.3580(8) 0.7380(6)
C21 C 0.8249(13) 0.3262(11) 0.9602(8)
O7 O 0.9117(10) -0.0412(7) 0.8561(5)
O8 O 0.9261(8) 0.0725(8) 0.6938(5)
H1 H 0.2891(13) 0.2464(9) -0.0285(7)
H2 H 0.5364(13) 0.1310(9) -0.0797(7)
H3 H 0.7366(12) 0.0330(9) 0.0448(8)
H4 H 0.6950(11) 0.0627(8) 0.2275(7)
H5 H 0.5260(10) 0.4856(8) 0.7975(6)
H6 H 0.6424(13) 0.5104(10) 0.9431(7)
H7 H 0.8733(13) 0.3369(11) 1.0181(8)
H8 H 0.9793(11) 0.1349(10) 0.9498(7)
H9 H -0.1002(8) 0.5035(7) 0.6658(5)
H10 H -0.114(3) 0.274(5) 0.3569(17)
H11 H -0.194(5) 0.214(3) 0.4544(18)
H12 H -0.264(3) 0.371(2) 0.407(3)
H13 H 0.254(3) 0.035(3) 0.514(3)
H14 H 0.090(3) 0.037(3) 0.499(4)
H15 H 0.159(6) 0.1125(7) 0.4039(9)
H16 H 0.248(5) 0.2700(10) 0.781(3)
H17 H 0.252(5) 0.400(5) 0.7029(6)
H18 H 0.1172(9) 0.415(5) 0.785(3)
Ag1A Ag -0.39079(5) 0.58741(4) 0.52378(4)
Ag1A_2 Ag 0.60921(5) 0.58741(4) 0.52378(4)
Ag2A Ag 0.56642(5) -0.13591(4) 0.41121(4)
O1A O 0.5127(5) -0.1066(4) 0.5969(4)
O4A O 0.4732(5) 0.6095(5) 0.3780(4)
N3A N 0.1381(6) 0.5819(5) 0.4469(4)
loop_
_geom_bond_atom_site_label_1
_geom_bond_atom_site_label_2
_geom_bond_site_symmetry_1
_geom_bond_site_symmetry_2
Ag1 Ag2 1_555 1_555
Ag2 O1 1_555 1_555
O1 C13 1_555 1_555
N1 Ag2 1_555 1_555
O2 Ag1 1_555 1_555
O3 Ag2 1_555 1_555
O4 Ag1 1_555 1_555
C1 C2 1_555 1_555
C2 N1 1_555 1_555
C3 O3 1_555 1_555
C4 C3 1_555 1_555
C5 C7 1_555 1_555
C6 C10 1_555 1_555
C7 C8 1_555 1_555
C8 C12 1_555 1_555
C9 C5 1_555 1_555
C10 N1 1_555 1_555
C11 C9 1_555 1_555
C12 C11 1_555 1_555
O5 N2 1_555 1_555
C13 O2 1_555 1_555
C14 C15 1_555 1_555
C15 C4 1_555 1_555
N2 C9 1_555 1_555
C16 C4 1_555 1_555
C17 C16 1_555 1_555
O6 N2 1_555 1_555
N3 C1 1_555 1_555
C18 C6 1_555 1_555
N4 C15 1_555 1_555
C19 C10 1_555 1_555
C20 C2 1_555 1_555
C21 C14 1_555 1_555
O7 N4 1_555 1_555
O8 N4 1_555 1_555
H1 C11 1_555 1_555
H2 C12 1_555 1_555
H3 C8 1_555 1_555
H4 C7 1_555 1_555
H5 C16 1_555 1_555
H6 C17 1_555 1_555
H7 C21 1_555 1_555
H8 C14 1_555 1_555
H9 C1 1_555 1_555
H10 C18 1_555 1_555
H11 C18 1_555 1_555
H12 C18 1_555 1_555
H13 C19 1_555 1_555
H14 C19 1_555 1_555
H15 C19 1_555 1_555
H16 C20 1_555 1_555
H17 C20 1_555 1_555
H18 C20 1_555 1_555
Ag1A N3 1_555 1_555
Ag1A_2 O4 1_555 1_555
Ag2A O1 1_555 1_555
O1A Ag2 1_555 1_555
O4A Ag1 1_555 1_555
N3A Ag1 1_555 1_555
O4 C3 1_555 1_555
C5 C13 1_555 1_555
C6 N3 1_555 1_555
C17 C21 1_555 1_555
Ag1A_2 O4A 1_555 1_555
Ag2A O1A 1_555 1_555

#END
