
#######################################################################
#
#                 Cambridge Crystallographic Data Centre
#                                CCDC 
#
#######################################################################
#
# If this CIF has been generated from an entry in the Cambridge 
# Structural Database, then it will include bibliographic, chemical, 
# crystal, experimental, refinement or atomic coordinate data resulting 
# from the CCDC's data processing and validation procedures.
#
#######################################################################

data_RUMFUA
_symmetry_cell_setting           triclinic
_symmetry_space_group_name_H-M   'P -1'
_symmetry_Int_Tables_number      2
_space_group_name_Hall           '-P 1'
loop_
_symmetry_equiv_pos_site_id
_symmetry_equiv_pos_as_xyz
1 x,y,z
2 -x,-y,-z
_cell_length_a                   9.1177(9)
_cell_length_b                   9.784(2)
_cell_length_c                   15.4728(14)
_cell_angle_alpha                90.038(10)
_cell_angle_beta                 105.549(7)
_cell_angle_gamma                111.489(11)
_cell_volume                     1229.79
loop_
_atom_site_label
_atom_site_type_symbol
_atom_site_fract_x
_atom_site_fract_y
_atom_site_fract_z
C1 C 1.0624(4) 0.7570(4) 0.6950(2)
C2 C 1.2235(4) 0.8262(4) 0.7476(2)
C3 C 1.2143(4) 0.8382(4) 0.8330(3)
N1 N 1.0555(3) 0.7790(3) 0.8306(2)
C4 C 0.9880(5) 0.7550(4) 0.9071(2)
C5 C 0.9957(4) 0.6213(4) 0.9533(2)
C6 C 1.0802(5) 0.5382(5) 0.9350(2)
C7 C 0.9155(5) 0.5808(4) 1.0183(2)
N2 N 0.7542(4) 0.8383(3) 0.5662(2)
C8 C 0.7667(5) 0.7962(4) 0.4877(2)
C9 C 0.7569(6) 0.8966(5) 0.4263(3)
C10 C 0.7365(6) 1.0044(5) 0.4711(3)
N3 N 0.7343(3) 0.9672(3) 0.5541(2)
C11 C 0.7333(4) 1.0580(4) 0.6289(2)
C12 C 0.9041(4) 1.1588(3) 0.6831(2)
C13 C 0.9796(4) 1.2968(4) 0.6579(3)
C14 C 0.9898(4) 1.1166(4) 0.7585(2)
C15 C 1.1370(5) 1.3885(4) 0.7073(3)
C16 C 1.1481(4) 1.2083(4) 0.8072(2)
C17 C 1.2238(4) 1.3455(4) 0.7819(2)
C18 C 1.3953(4) 1.4473(4) 0.8348(3)
N4 N 1.5230(3) 1.3970(3) 0.8240(2)
C19 C 1.5589(5) 1.2849(5) 0.8607(3)
C20 C 1.6687(5) 1.2633(4) 0.8246(3)
C21 C 1.6941(5) 1.3675(4) 0.7653(3)
N5 N 1.6057(3) 1.4490(3) 0.7631(2)
N6 N 0.6737(4) 0.4944(3) 0.5786(2)
C22 C 0.6535(4) 0.4284(3) 0.5117(2)
S1 S 0.6314(1) 0.3394(1) 0.4165(1)
N7 N 0.6424(3) 0.8064(3) 0.7843(2)
C23 C 0.6413(3) 0.8425(3) 0.8524(2)
S2 S 0.6441(2) 0.8982(2) 0.9530(1)
H1 H 1.0304(4) 0.7343(4) 0.6327(2)
H2 H 1.3178(4) 0.8577(4) 0.7284(2)
H3 H 1.3029(4) 0.8802(4) 0.8843(3)
H4 H 0.8740(5) 0.7450(4) 0.8865(2)
H5 H 1.0474(5) 0.8417(4) 0.9511(2)
H6 H 1.1345(5) 0.5628(5) 0.8908(2)
H7 H 0.8570(5) 0.6348(4) 1.0310(2)
H8 H 0.7805(5) 0.7092(4) 0.4756(2)
H9 H 0.7629(6) 0.8917(5) 0.3674(3)
H10 H 0.7258(6) 1.0892(5) 0.4481(3)
H11 H 0.6798(4) 0.9938(4) 0.6684(2)
H12 H 0.6696(4) 1.1172(4) 0.6051(2)
H13 H 0.9242(4) 1.3283(4) 0.6073(3)
H14 H 0.9408(4) 1.0248(4) 0.7771(2)
H15 H 1.1852(5) 1.4813(4) 0.6896(3)
H16 H 1.2038(4) 1.1769(4) 0.8577(2)
H17 H 1.4168(4) 1.5451(4) 0.8153(3)
H18 H 1.4013(4) 1.4549(4) 0.8982(3)
H19 H 1.5155(5) 1.2312(5) 0.9037(3)
H20 H 1.7165(5) 1.1936(4) 0.8371(3)
H21 H 1.7658(5) 1.3795(4) 0.7304(3)
Cd1 Cd 0.6707(1) 0.6639(1) 0.6779(1)
N8 N 0.9581(3) 0.7268(3) 0.7456(2)
C7A C 1.0845(5) 0.4192(4) 0.9817(2)
C5A C 1.0043(4) 0.3787(4) 1.0467(2)
C4A C 1.0120(5) 0.2450(4) 1.0929(2)
N1A N 0.9445(3) 0.2210(3) 1.1694(2)
C3A C 0.7857(4) 0.1618(4) 1.1670(3)
C2A C 0.7765(4) 0.1738(4) 1.2524(2)
C1A C 0.9376(4) 0.2430(4) 1.3050(2)
H1A H 0.9696(4) 0.2657(4) 1.3673(2)
N8A N 1.0419(3) 0.2732(3) 1.2544(2)
H2A H 0.6822(4) 0.1423(4) 1.2716(2)
H3A H 0.6971(4) 0.1198(4) 1.1157(3)
H4A H 1.1260(5) 0.2550(4) 1.1135(2)
H5A H 0.9526(5) 0.1583(4) 1.0489(2)
C6A C 0.9198(5) 0.4618(5) 1.0650(2)
H6A H 0.8655(5) 0.4372(5) 1.1092(2)
H7A H 1.1430(5) 0.3652(4) 0.9690(2)
N2_2 N -0.2458(4) -0.1617(3) 0.5662(2)
C8_2 C -0.2333(5) -0.2038(4) 0.4877(2)
C9_2 C -0.2431(6) -0.1034(5) 0.4263(3)
C10_2 C -0.2635(6) 0.0044(5) 0.4711(3)
N3_2 N -0.2657(3) -0.0328(3) 0.5541(2)
C11_2 C -0.2667(4) 0.0580(4) 0.6289(2)
C12_2 C -0.0959(4) 0.1588(3) 0.6831(2)
C13_2 C -0.0204(4) 0.2968(4) 0.6579(3)
C14_2 C -0.0102(4) 0.1166(4) 0.7585(2)
C15_2 C 0.1370(5) 0.3885(4) 0.7073(3)
C16_2 C 0.1481(4) 0.2083(4) 0.8072(2)
C17_2 C 0.2238(4) 0.3455(4) 0.7819(2)
C18_2 C 0.3953(4) 0.4473(4) 0.8348(3)
N4_2 N 0.5230(3) 0.3970(3) 0.8240(2)
C19_2 C 0.5589(5) 0.2849(5) 0.8607(3)
C20_2 C 0.6687(5) 0.2633(4) 0.8246(3)
C21_2 C 0.6941(5) 0.3675(4) 0.7653(3)
N5_2 N 0.6057(3) 0.4490(3) 0.7631(2)
H8_2 H -0.2195(5) -0.2908(4) 0.4756(2)
H9_2 H -0.2371(6) -0.1083(5) 0.3674(3)
H10_2 H -0.2742(6) 0.0892(5) 0.4481(3)
H11_2 H -0.3202(4) -0.0062(4) 0.6684(2)
H12_2 H -0.3304(4) 0.1172(4) 0.6051(2)
H13_2 H -0.0758(4) 0.3283(4) 0.6073(3)
H14_2 H -0.0592(4) 0.0248(4) 0.7771(2)
H15_2 H 0.1852(5) 0.4813(4) 0.6896(3)
H16_2 H 0.2038(4) 0.1769(4) 0.8577(2)
H17_2 H 0.4168(4) 0.5451(4) 0.8153(3)
H18_2 H 0.4013(4) 0.4549(4) 0.8982(3)
H19_2 H 0.5155(5) 0.2312(5) 0.9037(3)
H20_2 H 0.7165(5) 0.1936(4) 0.8371(3)
H21_2 H 0.7658(5) 0.3795(4) 0.7304(3)
N6A N 0.3263(4) 0.5056(3) 0.4214(2)
C22A C 0.3465(4) 0.5716(3) 0.4883(2)
S1A S 0.3686(1) 0.6606(1) 0.5835(1)
Cd1_2 Cd -0.3293(1) -0.3361(1) 0.6779(1)
N7_2 N -0.3576(3) -0.1936(3) 0.7843(2)
C23_2 C -0.3587(3) -0.1575(3) 0.8524(2)
S2_2 S -0.3559(2) -0.1018(2) 0.9530(1)
Cd1_3 Cd 1.6707(1) 1.6639(1) 0.6779(1)
Cd1A Cd 0.3293(1) 0.3361(1) 0.3221(1)
Cd1A_2 Cd 1.3293(1) 0.3361(1) 1.3221(1)
N5_3 N -0.3943(3) -0.5510(3) 0.7631(2)
N6_2 N -0.3263(4) -0.5056(3) 0.5786(2)
S1A_2 S -0.6314(1) -0.3394(1) 0.5835(1)
N8_2 N -0.0419(3) -0.2732(3) 0.7456(2)
loop_
_geom_bond_atom_site_label_1
_geom_bond_atom_site_label_2
_geom_bond_site_symmetry_1
_geom_bond_site_symmetry_2
C1 C2 1_555 1_555
C2 C3 1_555 1_555
C3 N1 1_555 1_555
N1 C4 1_555 1_555
C4 C5 1_555 1_555
C5 C6 1_555 1_555
C6 H6 1_555 1_555
C7 C5 1_555 1_555
N2 C8 1_555 1_555
C8 C9 1_555 1_555
C9 C10 1_555 1_555
C10 N3 1_555 1_555
N3 N2 1_555 1_555
C11 N3 1_555 1_555
C12 C11 1_555 1_555
C13 C12 1_555 1_555
C14 C12 1_555 1_555
C15 C13 1_555 1_555
C16 C14 1_555 1_555
C17 C15 1_555 1_555
C18 C17 1_555 1_555
N4 C18 1_555 1_555
C19 N4 1_555 1_555
C20 C19 1_555 1_555
C21 C20 1_555 1_555
N5 N4 1_555 1_555
N6 C22 1_555 1_555
C22 S1 1_555 1_555
S1 Cd1A 1_555 1_555
N7 C23 1_555 1_555
C23 S2 1_555 1_555
H1 C1 1_555 1_555
H2 C2 1_555 1_555
H3 C3 1_555 1_555
H4 C4 1_555 1_555
H5 C4 1_555 1_555
H7 C7 1_555 1_555
H8 C8 1_555 1_555
H9 C9 1_555 1_555
H10 C10 1_555 1_555
H11 C11 1_555 1_555
H12 C11 1_555 1_555
H13 C13 1_555 1_555
H14 C14 1_555 1_555
H15 C15 1_555 1_555
H16 C16 1_555 1_555
H17 C18 1_555 1_555
H18 C18 1_555 1_555
H19 C19 1_555 1_555
H20 C20 1_555 1_555
H21 C21 1_555 1_555
Cd1 N2 1_555 1_555
N8 C1 1_555 1_555
C7A C6 1_555 1_555
C5A C7A 1_555 1_555
C4A C5A 1_555 1_555
N1A C4A 1_555 1_555
C3A N1A 1_555 1_555
C2A C3A 1_555 1_555
C1A C2A 1_555 1_555
H1A C1A 1_555 1_555
N8A N1A 1_555 1_555
H2A C2A 1_555 1_555
H3A C3A 1_555 1_555
H4A C4A 1_555 1_555
H5A C4A 1_555 1_555
C6A C7 1_555 1_555
H6A C6A 1_555 1_555
H7A C7A 1_555 1_555
N2_2 C8_2 1_555 1_555
C8_2 C9_2 1_555 1_555
C9_2 C10_2 1_555 1_555
C10_2 N3_2 1_555 1_555
N3_2 N2_2 1_555 1_555
C11_2 N3_2 1_555 1_555
C12_2 C11_2 1_555 1_555
C13_2 C12_2 1_555 1_555
C14_2 C12_2 1_555 1_555
C15_2 C13_2 1_555 1_555
C16_2 C14_2 1_555 1_555
C17_2 C15_2 1_555 1_555
C18_2 C17_2 1_555 1_555
N4_2 C18_2 1_555 1_555
C19_2 N4_2 1_555 1_555
C20_2 C19_2 1_555 1_555
C21_2 C20_2 1_555 1_555
N5_2 Cd1 1_555 1_555
H8_2 C8_2 1_555 1_555
H9_2 C9_2 1_555 1_555
H10_2 C10_2 1_555 1_555
H11_2 C11_2 1_555 1_555
H12_2 C11_2 1_555 1_555
H13_2 C13_2 1_555 1_555
H14_2 C14_2 1_555 1_555
H15_2 C15_2 1_555 1_555
H16_2 C16_2 1_555 1_555
H17_2 C18_2 1_555 1_555
H18_2 C18_2 1_555 1_555
H19_2 C19_2 1_555 1_555
H20_2 C20_2 1_555 1_555
H21_2 C21_2 1_555 1_555
N6A C22A 1_555 1_555
C22A S1A 1_555 1_555
S1A Cd1 1_555 1_555
Cd1_2 N2_2 1_555 1_555
N7_2 Cd1_2 1_555 1_555
C23_2 N7_2 1_555 1_555
S2_2 C23_2 1_555 1_555
Cd1_3 N5 1_555 1_555
Cd1A N6A 1_555 1_555
Cd1A_2 N8A 1_555 1_555
N5_3 Cd1_2 1_555 1_555
N6_2 Cd1_2 1_555 1_555
S1A_2 Cd1_2 1_555 1_555
N8_2 Cd1_2 1_555 1_555
N1 N8 1_555 1_555
C16 C17 1_555 1_555
C21 N5 1_555 1_555
N6 Cd1 1_555 1_555
N7 Cd1 1_555 1_555
Cd1 N8 1_555 1_555
C5A C6A 1_555 1_555
C1A N8A 1_555 1_555
C16_2 C17_2 1_555 1_555
N4_2 N5_2 1_555 1_555
C21_2 N5_2 1_555 1_555

#END
