
#######################################################################
#
#                 Cambridge Crystallographic Data Centre
#                                CCDC 
#
#######################################################################
#
# If this CIF has been generated from an entry in the Cambridge 
# Structural Database, then it will include bibliographic, chemical, 
# crystal, experimental, refinement or atomic coordinate data resulting 
# from the CCDC's data processing and validation procedures.
#
#######################################################################

data_RUMKEP
_symmetry_cell_setting           monoclinic
_symmetry_space_group_name_H-M   'P 21/c'
_symmetry_Int_Tables_number      14
_space_group_name_Hall           '-P 2ybc'
loop_
_symmetry_equiv_pos_site_id
_symmetry_equiv_pos_as_xyz
1 x,y,z
2 -x,1/2+y,1/2-z
3 -x,-y,-z
4 x,1/2-y,1/2+z
_cell_length_a                   3.5874(2)
_cell_length_b                   24.524(2)
_cell_length_c                   11.8717(3)
_cell_angle_alpha                90
_cell_angle_beta                 95.400(7)
_cell_angle_gamma                90
_cell_volume                     1039.81
loop_
_atom_site_label
_atom_site_type_symbol
_atom_site_fract_x
_atom_site_fract_y
_atom_site_fract_z
Cu1 Cu 0.0231(3) 0.11746(4) 0.12323(7)
Cl1 Cl -0.4505(5) 0.07600(7) 0.01555(14)
N1 N 0.4060(18) 0.1454(2) 0.3448(5)
N2 N 0.2615(18) 0.1659(2) 0.2477(5)
N3 N 0.2901(17) 0.2184(2) 0.2326(5)
N4 N 0.2419(19) 0.0078(2) 0.3826(5)
N5 N 0.3989(16) 0.0566(2) 0.4270(5)
N6 N 0.1233(16) 0.0674(2) 0.2478(5)
N7 N -0.085(2) -0.0237(3) 0.2133(5)
N8 N -0.136(2) 0.2693(2) -0.0202(6)
N9 N 0.0487(17) 0.2795(2) 0.0871(5)
N10 N -0.0204(17) 0.1893(2) 0.0548(4)
N11 N -0.343(2) 0.1928(3) -0.1305(6)
C1 C 0.320(2) 0.0906(3) 0.3414(6)
C2 C 0.082(2) 0.0152(3) 0.2768(6)
C3 C 0.1089(19) 0.2299(3) 0.1267(6)
C4 C -0.184(2) 0.2152(3) -0.0361(6)
H1 H 0.29(2) -0.021(3) 0.417(6)
H2 H -0.17(2) -0.017(3) 0.148(6)
H3 H -0.08(2) -0.058(3) 0.236(6)
H4 H -0.21(2) 0.290(3) -0.043(7)
H5 H -0.36(2) 0.158(3) -0.131(7)
H6 H -0.46(2) 0.212(3) -0.180(6)
Cl1_2 Cl 0.5495(5) 0.07600(7) 0.01555(14)
Cu1_2 Cu -0.9769(3) 0.11746(4) 0.12323(7)
O1 O 0.105(3) 0.1088(4) 0.6325(8)
H7 H 0.10(4) 0.143(3) 0.608(9)
H8 H 0.18(3) 0.093(4) 0.573(7)
O2? O 0.303(4) 0.1176(6) 0.6758(11)
H9? H 0.15(5) 0.143(5) 0.646(13)
H10? H 0.41(4) 0.107(6) 0.617(9)
loop_
_geom_bond_atom_site_label_1
_geom_bond_atom_site_label_2
_geom_bond_site_symmetry_1
_geom_bond_site_symmetry_2
Cu1 Cl1 1_555 1_555
Cl1 Cu1_2 1_555 1_555
N1 N2 1_555 1_555
N2 Cu1 1_555 1_555
N3 N2 1_555 1_555
N4 N5 1_555 1_555
N5 C1 1_555 1_555
N6 Cu1 1_555 1_555
N7 C2 1_555 1_555
N8 N9 1_555 1_555
N9 C3 1_555 1_555
N10 Cu1 1_555 1_555
N11 C4 1_555 1_555
C1 N1 1_555 1_555
C2 N4 1_555 1_555
C3 N3 1_555 1_555
C4 N8 1_555 1_555
O1 H7 1_555 1_555
H1 N4 1_555 1_555
H2 N7 1_555 1_555
H3 N7 1_555 1_555
H4 N8 1_555 1_555
H5 N11 1_555 1_555
H6 N11 1_555 1_555
H8 O1 1_555 1_555
Cl1_2 Cu1 1_555 1_555
N6 C2 1_555 1_555
N6 C1 1_555 1_555
N10 C4 1_555 1_555
N10 C3 1_555 1_555

#END
