
#######################################################################
#
#                 Cambridge Crystallographic Data Centre
#                                CCDC 
#
#######################################################################
#
# If this CIF has been generated from an entry in the Cambridge 
# Structural Database, then it will include bibliographic, chemical, 
# crystal, experimental, refinement or atomic coordinate data resulting 
# from the CCDC's data processing and validation procedures.
#
#######################################################################

data_RUMRAT
_symmetry_cell_setting           triclinic
_symmetry_space_group_name_H-M   'P -1'
_symmetry_Int_Tables_number      2
_space_group_name_Hall           '-P 1'
loop_
_symmetry_equiv_pos_site_id
_symmetry_equiv_pos_as_xyz
1 x,y,z
2 -x,-y,-z
_cell_length_a                   8.4634(5)
_cell_length_b                   9.1374(10)
_cell_length_c                   10.9932(7)
_cell_angle_alpha                75.394(9)
_cell_angle_beta                 87.935(6)
_cell_angle_gamma                72.640(7)
_cell_volume                     784.487
loop_
_atom_site_label
_atom_site_type_symbol
_atom_site_fract_x
_atom_site_fract_y
_atom_site_fract_z
Li1 Li 0.3642(3) 0.0015(3) 0.4607(2)
N1 N 0.57887(13) -0.04285(14) 0.37871(10)
H1 H 0.6063(18) -0.149(2) 0.3892(14)
N2 N 0.14763(14) 0.02021(15) 0.36633(10)
C1 C 0.62787(14) 0.02558(15) 0.26178(11)
C2 C 0.71514(16) -0.06562(16) 0.17792(12)
C3 C 0.77534(18) 0.01028(19) 0.06813(13)
H2 H 0.8367 -0.0514 0.0147
C4 C 0.74880(19) 0.17240(19) 0.03422(13)
H3 H 0.7947 0.2208 -0.0395
C5 C 0.65418(18) 0.26287(17) 0.10975(13)
H4 H 0.6307 0.3748 0.0847
C6 C 0.59245(16) 0.19365(16) 0.22165(12)
C7 C 0.74165(18) -0.24393(18) 0.20960(14)
H5 H 0.6400 -0.2628 0.2514
C8 C 0.7616(3) -0.3120(2) 0.0937(2)
H6 H 0.6683 -0.2516 0.0334
H7 H 0.7636 -0.4234 0.1196
H8 H 0.8655 -0.3045 0.0542
C9 C 0.8881(2) -0.3354(2) 0.30447(19)
H9 H 0.9915 -0.3260 0.2650
H10 H 0.8926 -0.4474 0.3309
H11 H 0.8737 -0.2912 0.3781
C10 C 0.48926(17) 0.29840(16) 0.30202(13)
H12 H 0.4197 0.2375 0.3548
C11 C 0.3708(2) 0.45441(19) 0.22535(17)
H13 H 0.4349 0.5230 0.1801
H14 H 0.2970 0.5078 0.2821
H15 H 0.3046 0.4322 0.1648
C12 C 0.5981(2) 0.3338(2) 0.39213(15)
H16 H 0.6762 0.2344 0.4393
H17 H 0.5281 0.3866 0.4509
H18 H 0.6596 0.4031 0.3439
C13 C 0.0836(2) 0.1876(2) 0.29752(16)
H19 H 0.1674 0.2171 0.2409
H20 H 0.0578 0.2538 0.3575
H21 H -0.0171 0.2037 0.2482
C14 C 0.2001(2) -0.0759(2) 0.27354(15)
H22 H 0.2443 -0.1881 0.3179
H23 H 0.2861 -0.0419 0.2223
H24 H 0.1047 -0.0614 0.2190
C15 C 0.01700(16) -0.03243(18) 0.44181(12)
H25 H 0.0516 -0.1497 0.4682
H26 H -0.0864 0.0034 0.3890
Li1A Li 0.6358(3) -0.0015(3) 0.5393(2)
Li1A_2 Li -0.3642(3) -0.0015(3) 0.5393(2)
N1A N 0.42113(13) 0.04285(14) 0.62129(10)
H1A H 0.3937(18) 0.149(2) 0.6108(14)
N2A N -0.14763(14) -0.02021(15) 0.63367(10)
N2A_2 N 0.85237(14) -0.02021(15) 0.63367(10)
C1A C 0.37213(14) -0.02558(15) 0.73822(11)
C2A C 0.28486(16) 0.06562(16) 0.82208(12)
C3A C 0.22466(18) -0.01028(19) 0.93187(13)
H2A H 0.1633 0.0514 0.9853
C4A C 0.25120(19) -0.17240(19) 0.96578(13)
H3A H 0.2053 -0.2208 1.0395
C5A C 0.34582(18) -0.26287(17) 0.89025(13)
H4A H 0.3693 -0.3748 0.9153
C6A C 0.40755(16) -0.19365(16) 0.77835(12)
C7A C 0.25835(18) 0.24393(18) 0.79040(14)
H5A H 0.3600 0.2628 0.7486
C8A C 0.2384(3) 0.3120(2) 0.9063(2)
H6A H 0.3317 0.2516 0.9666
H7A H 0.2364 0.4234 0.8804
H8A H 0.1345 0.3045 0.9458
C9A C 0.1119(2) 0.3354(2) 0.69553(19)
H9A H 0.0085 0.3260 0.7350
H10A H 0.1074 0.4474 0.6691
H11A H 0.1263 0.2912 0.6219
C10A C 0.51074(17) -0.29840(16) 0.69798(13)
H12A H 0.5803 -0.2375 0.6452
C11A C 0.6292(2) -0.45441(19) 0.77465(17)
H13A H 0.5651 -0.5230 0.8199
H14A H 0.7030 -0.5078 0.7179
H15A H 0.6954 -0.4322 0.8352
C12A C 0.4019(2) -0.3338(2) 0.60787(15)
H16A H 0.3238 -0.2344 0.5607
H17A H 0.4719 -0.3866 0.5491
H18A H 0.3404 -0.4031 0.6561
C13A C -0.0836(2) -0.1876(2) 0.70248(16)
H19A H -0.1674 -0.2171 0.7591
H20A H -0.0578 -0.2538 0.6425
H21A H 0.0171 -0.2037 0.7518
C14A C -0.2001(2) 0.0759(2) 0.72646(15)
H22A H -0.2443 0.1881 0.6821
H23A H -0.2861 0.0419 0.7777
H24A H -0.1047 0.0614 0.7810
C15A C -0.01700(16) 0.03243(18) 0.55819(12)
H25A H -0.0516 0.1497 0.5318
H26A H 0.0864 -0.0034 0.6110
loop_
_geom_bond_atom_site_label_1
_geom_bond_atom_site_label_2
_geom_bond_site_symmetry_1
_geom_bond_site_symmetry_2
Li1 N1 1_555 1_555
N1 H1 1_555 1_555
N2 Li1 1_555 1_555
C1 N1 1_555 1_555
C2 C1 1_555 1_555
C3 C2 1_555 1_555
H2 C3 1_555 1_555
C4 C3 1_555 1_555
H3 C4 1_555 1_555
C5 C4 1_555 1_555
H4 C5 1_555 1_555
C6 C1 1_555 1_555
C7 C2 1_555 1_555
H5 C7 1_555 1_555
C8 C7 1_555 1_555
H6 C8 1_555 1_555
H7 C8 1_555 1_555
H8 C8 1_555 1_555
C9 C7 1_555 1_555
H9 C9 1_555 1_555
H10 C9 1_555 1_555
H11 C9 1_555 1_555
C10 C6 1_555 1_555
H12 C10 1_555 1_555
C11 C10 1_555 1_555
H13 C11 1_555 1_555
H14 C11 1_555 1_555
H15 C11 1_555 1_555
C12 C10 1_555 1_555
H16 C12 1_555 1_555
H17 C12 1_555 1_555
H18 C12 1_555 1_555
C13 N2 1_555 1_555
H19 C13 1_555 1_555
H20 C13 1_555 1_555
H21 C13 1_555 1_555
C14 N2 1_555 1_555
H22 C14 1_555 1_555
H23 C14 1_555 1_555
H24 C14 1_555 1_555
C15 N2 1_555 1_555
H25 C15 1_555 1_555
H26 C15 1_555 1_555
Li1A N1 1_555 1_555
Li1A_2 N2A 1_555 1_555
N1A Li1 1_555 1_555
H1A N1A 1_555 1_555
N2A C13A 1_555 1_555
N2A_2 Li1A 1_555 1_555
C1A N1A 1_555 1_555
C2A C1A 1_555 1_555
C3A C2A 1_555 1_555
H2A C3A 1_555 1_555
C4A C3A 1_555 1_555
H3A C4A 1_555 1_555
C5A C4A 1_555 1_555
H4A C5A 1_555 1_555
C6A C1A 1_555 1_555
C7A C2A 1_555 1_555
H5A C7A 1_555 1_555
C8A C7A 1_555 1_555
H6A C8A 1_555 1_555
H7A C8A 1_555 1_555
H8A C8A 1_555 1_555
C9A C7A 1_555 1_555
H9A C9A 1_555 1_555
H10A C9A 1_555 1_555
H11A C9A 1_555 1_555
C10A C6A 1_555 1_555
H12A C10A 1_555 1_555
C11A C10A 1_555 1_555
H13A C11A 1_555 1_555
H14A C11A 1_555 1_555
H15A C11A 1_555 1_555
C12A C10A 1_555 1_555
H16A C12A 1_555 1_555
H17A C12A 1_555 1_555
H18A C12A 1_555 1_555
C13A H19A 1_555 1_555
H20A C13A 1_555 1_555
H21A C13A 1_555 1_555
C14A N2A 1_555 1_555
H22A C14A 1_555 1_555
H23A C14A 1_555 1_555
H24A C14A 1_555 1_555
C15A C15 1_555 1_555
H25A C15A 1_555 1_555
H26A C15A 1_555 1_555
C5 C6 1_555 1_555
Li1A N1A 1_555 1_555
N2A C15A 1_555 1_555
C5A C6A 1_555 1_555

#END
