
#######################################################################
#
#                 Cambridge Crystallographic Data Centre
#                                CCDC 
#
#######################################################################
#
# If this CIF has been generated from an entry in the Cambridge 
# Structural Database, then it will include bibliographic, chemical, 
# crystal, experimental, refinement or atomic coordinate data resulting 
# from the CCDC's data processing and validation procedures.
#
#######################################################################

data_RUMRIC
_symmetry_cell_setting           monoclinic
_symmetry_space_group_name_H-M   'C 2/c'
_symmetry_Int_Tables_number      15
_space_group_name_Hall           '-C 2yn'
loop_
_symmetry_equiv_pos_site_id
_symmetry_equiv_pos_as_xyz
1 x,y,z
2 -x,y,1/2-z
3 1/2+x,1/2+y,z
4 1/2-x,1/2+y,1/2-z
5 -x,-y,-z
6 x,-y,1/2+z
7 1/2-x,1/2-y,-z
8 1/2+x,1/2-y,1/2+z
_cell_length_a                   29.371(10)
_cell_length_b                   6.645(2)
_cell_length_c                   17.375(6)
_cell_angle_alpha                90
_cell_angle_beta                 105.644(11)
_cell_angle_gamma                90
_cell_volume                     3265.46
loop_
_atom_site_label
_atom_site_type_symbol
_atom_site_fract_x
_atom_site_fract_y
_atom_site_fract_z
Zn1 Zn 0.25186(6) 0.4937(2) 0.75123(9)
Fe1 Fe 0.40355(7) 0.1709(3) 0.56670(11)
F1 F 0.2495(3) 0.2444(11) 0.8172(4)
F2 F 0.4541(3) 0.1269(13) 0.6636(5)
F3 F 0.4161(3) 0.4537(11) 0.5754(4)
F4 F 0.4496(3) 0.1300(16) 0.5083(5)
F5 F 0.3844(4) -0.0975(13) 0.5580(5)
N1 N 0.1971(4) 0.1421(16) 0.6536(6)
N2 N 0.1988(4) 0.3466(15) 0.6566(6)
N3 N 0.1699(4) 0.4198(17) 0.5925(6)
N4 N 0.1483(4) 0.2671(15) 0.5465(6)
N5 N 0.1553(5) -0.0940(17) 0.5602(7)
H1 H 0.1693 -0.1923 0.5893
H2 H 0.1348 -0.1178 0.5154
C1 C 0.1654(4) 0.0957(19) 0.5844(7)
N6 N 0.3531(4) 0.2299(15) 0.6390(6)
N7 N 0.3312(4) 0.0692(15) 0.6642(6)
N8 N 0.3029(4) 0.1405(15) 0.7024(6)
N9 N 0.3048(4) 0.3471(15) 0.7054(6)
N10 N 0.3501(5) 0.5860(17) 0.6567(9)
H3 H 0.3377 0.6847 0.6758
H4 H 0.3709 0.6086 0.6311
C2 C 0.3366(4) 0.3926(19) 0.6667(7)
Zn1C Zn 0.24814(6) -0.0063(2) 0.74877(9)
Fe1F Fe 0.09645(7) 0.3291(3) 0.43330(11)
F1C F 0.2505(3) 0.7444(11) 0.6828(4)
N1C N 0.3029(4) 0.6421(16) 0.8464(6)
N4F N 0.3517(4) 0.2329(15) 0.4535(6)
N8C N 0.1971(4) 0.6405(15) 0.7976(6)
C3 C 0.0000 -0.130(3) 0.2500
N11 N 0.0000 0.065(4) 0.2500
H5 H 0.0169 0.1300 0.2905
N12 N 0.0265(6) -0.224(2) 0.3135(10)
H6 H 0.0432 -0.1563 0.3533
H7 H 0.0271 -0.3536 0.3148
H5A H -0.0169 0.1300 0.2095
N12A N -0.0265(6) -0.224(2) 0.1865(10)
H6A H -0.0432 -0.1563 0.1467
H7A H -0.0271 -0.3536 0.1852
N13 N 0.0432(7) 0.657(4) 0.5959(14)
H8 H 0.0139 0.6257 0.5985
H9 H 0.0484 0.5879 0.5546
C4 C 0.0436(14) 0.849(4) 0.579(2)
H10 H 0.0448 0.9273 0.6259
H11 H 0.0155 0.8827 0.5379
H12 H 0.0709 0.8790 0.5604
C5 C 0.0753(10) 0.586(5) 0.6665(17)
H13 H 0.1069 0.6222 0.6664
H14 H 0.0729 0.4417 0.6688
H15 H 0.0679 0.6442 0.7121
N14 N 0.2393(12) 0.628(8) 0.486(2)
H16? H 0.0169 0.1300 0.2905
loop_
_geom_bond_atom_site_label_1
_geom_bond_atom_site_label_2
_geom_bond_site_symmetry_1
_geom_bond_site_symmetry_2
Zn1 F1 1_555 1_555
Fe1 F2 1_555 1_555
F1 Zn1C 1_555 1_555
F3 Fe1 1_555 1_555
F4 Fe1 1_555 1_555
F5 Fe1 1_555 1_555
N1 N2 1_555 1_555
N2 Zn1 1_555 1_555
N3 N2 1_555 1_555
N4 N3 1_555 1_555
N5 H1 1_555 1_555
H2 N5 1_555 1_555
C1 N1 1_555 1_555
N6 Fe1 1_555 1_555
N7 N6 1_555 1_555
N8 N7 1_555 1_555
N9 Zn1 1_555 1_555
N10 H3 1_555 1_555
H4 N10 1_555 1_555
C2 N6 1_555 1_555
C3 N11 1_555 1_555
N11 H5 1_555 1_555
N12 C3 1_555 1_555
H6 N12 1_555 1_555
H7 N12 1_555 1_555
N13 H8 1_555 1_555
H9 N13 1_555 1_555
C4 N13 1_555 1_555
H10 C4 1_555 1_555
H11 C4 1_555 1_555
H12 C4 1_555 1_555
C5 N13 1_555 1_555
H13 C5 1_555 1_555
H14 C5 1_555 1_555
H15 C5 1_555 1_555
Zn1C N1 1_555 1_555
Fe1F N4 1_555 1_555
F1C Zn1 1_555 1_555
N1C Zn1 1_555 1_555
N4F Fe1 1_555 1_555
N8C Zn1 1_555 1_555
H5A N11 1_555 1_555
N12A C3 1_555 1_555
H6A N12A 1_555 1_555
H7A N12A 1_555 1_555
N4 C1 1_555 1_555
N5 C1 1_555 1_555
N8 N9 1_555 1_555
N8 Zn1C 1_555 1_555
N9 C2 1_555 1_555
N10 C2 1_555 1_555

#END
