
#######################################################################
#
#                 Cambridge Crystallographic Data Centre
#                                CCDC 
#
#######################################################################
#
# If this CIF has been generated from an entry in the Cambridge 
# Structural Database, then it will include bibliographic, chemical, 
# crystal, experimental, refinement or atomic coordinate data resulting 
# from the CCDC's data processing and validation procedures.
#
#######################################################################

data_RUMWIG
_symmetry_cell_setting           monoclinic
_symmetry_space_group_name_H-M   'P 21/m'
_symmetry_Int_Tables_number      11
_space_group_name_Hall           '-P 2yb'
loop_
_symmetry_equiv_pos_site_id
_symmetry_equiv_pos_as_xyz
1 x,y,z
2 -x,1/2+y,-z
3 -x,-y,-z
4 x,1/2-y,z
_cell_length_a                   9.1194(2)
_cell_length_b                   9.4292(1)
_cell_length_c                   8.4101(1)
_cell_angle_alpha                90
_cell_angle_beta                 118.519(1)
_cell_angle_gamma                90
_cell_volume                     635.422
loop_
_atom_site_label
_atom_site_type_symbol
_atom_site_fract_x
_atom_site_fract_y
_atom_site_fract_z
Hg1 Hg 0.11549 0.75000 -0.01792
I1 I 0.33205 0.75000 0.33609
I2 I -0.22082 0.75000 -0.18346
C1 C 0.06063 0.25000 -0.44353
H1 H 0.09752 0.25000 -0.52339
H2 H -0.0542 0.25000 -0.49433
N1 N 0.173121 0.567687 -0.17657
N2 N 0.135261 0.377382 -0.337361
C2 C 0.065671 0.461965 -0.263339
C3 C 0.309120 0.548444 -0.196966
C4 C 0.285721 0.430829 -0.296341
H3 H -0.040859 0.449246 -0.271009
H4 H 0.405033 0.607636 -0.149443
H5 H 0.362176 0.392216 -0.331454
N1C N 0.173121 -0.067687 -0.17657
N2C N 0.135261 0.122618 -0.337361
C2C C 0.065671 0.038035 -0.263339
C3C C 0.309120 -0.048444 -0.196966
C4C C 0.285721 0.069171 -0.296341
H3C H -0.040859 0.050754 -0.271009
H4C H 0.405033 -0.107636 -0.149443
H5C H 0.362176 0.107784 -0.331454
Hg1_2 Hg 0.11549 -0.25000 -0.01792
N1C_2 N 0.173121 0.932313 -0.17657
loop_
_geom_bond_atom_site_label_1
_geom_bond_atom_site_label_2
_geom_bond_site_symmetry_1
_geom_bond_site_symmetry_2
Hg1 I1 1_555 1_555
I2 Hg1 1_555 1_555
C1 H1 1_555 1_555
H2 C1 1_555 1_555
N1 Hg1 1_555 1_555
N2 C1 1_555 1_555
C2 N1 1_555 1_555
C3 N1 1_555 1_555
C4 N2 1_555 1_555
H3 C2 1_555 1_555
H4 C3 1_555 1_555
H5 C4 1_555 1_555
N1C C2C 1_555 1_555
N2C C1 1_555 1_555
C2C N2C 1_555 1_555
C3C N1C 1_555 1_555
C4C N2C 1_555 1_555
H3C C2C 1_555 1_555
H4C C3C 1_555 1_555
H5C C4C 1_555 1_555
Hg1_2 N1C 1_555 1_555
N1C_2 Hg1 1_555 1_555
N2 C2 1_555 1_555
C3 C4 1_555 1_555
C3C C4C 1_555 1_555

#END
