
#######################################################################
#
#                 Cambridge Crystallographic Data Centre
#                                CCDC 
#
#######################################################################
#
# If this CIF has been generated from an entry in the Cambridge 
# Structural Database, then it will include bibliographic, chemical, 
# crystal, experimental, refinement or atomic coordinate data resulting 
# from the CCDC's data processing and validation procedures.
#
#######################################################################

data_RUMWEC
_symmetry_cell_setting           monoclinic
_symmetry_space_group_name_H-M   'C 2/c'
_symmetry_Int_Tables_number      15
_space_group_name_Hall           '-C 2yc'
loop_
_symmetry_equiv_pos_site_id
_symmetry_equiv_pos_as_xyz
1 x,y,z
2 1/2+x,1/2+y,z
3 1/2-x,1/2+y,1/2-z
4 -x,y,1/2-z
5 -x,-y,-z
6 1/2-x,1/2-y,-z
7 1/2+x,1/2-y,1/2+z
8 x,-y,1/2+z
_cell_length_a                   14.26716(16)
_cell_length_b                   11.93411(14)
_cell_length_c                   14.84395(18)
_cell_angle_alpha                90
_cell_angle_beta                 65.78797(88)
_cell_angle_gamma                90
_cell_volume                     2305.09
loop_
_atom_site_label
_atom_site_type_symbol
_atom_site_fract_x
_atom_site_fract_y
_atom_site_fract_z
Hg1 Hg 0.33501(15) 0.11347(16) -0.14409(11)
C1 C 0.377722 -0.353484 -0.037913
H1 H 0.330250 -0.414246 -0.037031
H2 H 0.365784 -0.328372 0.029395
N1 N 0.362016 -0.258460 -0.091490
N2 N 0.364379 -0.084995 -0.140642
C2 C 0.367088 -0.149621 -0.069386
C3 C 0.357952 -0.156055 -0.211588
C4 C 0.356782 -0.263165 -0.182171
N3 N 0.482434 -0.395097 -0.086494
N4 N 0.645950 -0.416460 -0.120318
C5 C 0.565743 -0.349345 -0.079692
C6 C 0.611891 -0.509469 -0.153922
C7 C 0.511138 -0.497318 -0.133160
H3 H 0.372976 -0.124243 -0.010817
H4 H 0.355474 -0.129053 -0.271026
H5 H 0.352826 -0.333710 -0.212126
H6 H 0.565323 -0.278985 -0.048696
H7 H 0.655971 -0.570652 -0.185901
H8 H 0.462694 -0.544431 -0.145431
C8 C 0.300013 0.141953 0.006752
N5 N 0.326189 0.202250 0.052340
C9 C 0.391634 0.138497 -0.294342
N6 N 0.438900 0.178170 -0.37014
Hg1A Hg 0.83501(15) -0.38653(16) -0.14409(11)
N4A N 0.145950 0.083540 -0.120318
loop_
_geom_bond_atom_site_label_1
_geom_bond_atom_site_label_2
_geom_bond_site_symmetry_1
_geom_bond_site_symmetry_2
Hg1 N2 1_555 1_555
C1 H1 1_555 1_555
H2 C1 1_555 1_555
N1 C1 1_555 1_555
N2 C2 1_555 1_555
C2 N1 1_555 1_555
C3 N2 1_555 1_555
C4 N1 1_555 1_555
N3 C1 1_555 1_555
N4 C5 1_555 1_555
C5 N3 1_555 1_555
C6 N4 1_555 1_555
C7 N3 1_555 1_555
H3 C2 1_555 1_555
H4 C3 1_555 1_555
H5 C4 1_555 1_555
H6 C5 1_555 1_555
H7 C6 1_555 1_555
H8 C7 1_555 1_555
C8 Hg1 1_555 1_555
N5 C8 1_555 1_555
C9 Hg1 1_555 1_555
N6 C9 1_555 1_555
Hg1A N4 1_555 1_555
N4A Hg1 1_555 1_555
C3 C4 1_555 1_555
C6 C7 1_555 1_555

#END
