
#######################################################################
#
#                 Cambridge Crystallographic Data Centre
#                                CCDC 
#
#######################################################################
#
# If this CIF has been generated from an entry in the Cambridge 
# Structural Database, then it will include bibliographic, chemical, 
# crystal, experimental, refinement or atomic coordinate data resulting 
# from the CCDC's data processing and validation procedures.
#
#######################################################################

data_RUNGUE
_symmetry_cell_setting           triclinic
_symmetry_space_group_name_H-M   'P -1'
_symmetry_Int_Tables_number      2
_space_group_name_Hall           '-P 1'
loop_
_symmetry_equiv_pos_site_id
_symmetry_equiv_pos_as_xyz
1 x,y,z
2 -x,-y,-z
_cell_length_a                   5.233(6)
_cell_length_b                   7.596(10)
_cell_length_c                   15.106(20)
_cell_angle_alpha                73.29(6)
_cell_angle_beta                 78.37(8)
_cell_angle_gamma                74.68(7)
_cell_volume                     549.516
loop_
_atom_site_label
_atom_site_type_symbol
_atom_site_fract_x
_atom_site_fract_y
_atom_site_fract_z
Ag1 Ag -0.16587(8) 0.88838(6) -0.02970(3)
O1 O 0.0366(8) 0.7305(6) 0.1165(3)
O2 O 0.4257(8) 0.8085(6) 0.0517(3)
O3 O -0.2161(9) -0.5009(6) 0.4245(3)
N1 N 0.8098(10) 0.2376(7) 0.1202(3)
O4 O -0.4338(9) -0.2834(7) 0.5028(3)
H1 H -0.5266 -0.3613 0.5261
C1 C -0.1119(12) -0.0362(9) 0.4046(4)
H2 H -0.2531 0.0030 0.4479
C2 C -0.2426(12) -0.3455(9) 0.4418(4)
C3 C 0.0491(12) 0.0864(8) 0.3519(4)
H3 H 0.0152 0.2071 0.3606
C4 C 0.2856(11) 0.6916(8) 0.0976(4)
C5 C 0.3200(12) -0.1556(9) 0.2773(4)
H4 H 0.4663 -0.1965 0.2361
C6 C -0.0613(12) -0.2190(9) 0.3924(4)
C7 C 0.4255(12) 0.4887(8) 0.1320(4)
C8 C 0.1601(12) -0.2791(9) 0.3304(4)
H5 H 0.2006 -0.4025 0.3247
C9 C 0.2851(12) 0.3601(8) 0.1950(4)
H6 H 0.1081 0.4015 0.2190
C10 C 0.6884(12) 0.4207(9) 0.0977(4)
H7 H 0.7850 0.5056 0.0574
C11 C 0.2611(12) 0.0311(9) 0.2858(4)
C12 C 0.4100(12) 0.1699(8) 0.2218(4)
C13 C 0.6737(12) 0.1161(8) 0.1815(4)
H8 H 0.7597 -0.0102 0.1980
Ag1_2 Ag 0.83413(8) 0.88838(6) -0.02970(3)
Ag1A Ag 0.16587(8) 1.11162(6) 0.02970(3)
Ag1A_2 Ag 1.16587(8) 0.11162(6) 0.02970(3)
O2_2 O -0.5743(8) 0.8085(6) 0.0517(3)
O2A O -0.4257(8) 1.1915(6) -0.0517(3)
N1A N 0.1902(10) 0.7624(7) -0.1202(3)
loop_
_geom_bond_atom_site_label_1
_geom_bond_atom_site_label_2
_geom_bond_site_symmetry_1
_geom_bond_site_symmetry_2
Ag1 O1 1_555 1_555
O1 C4 1_555 1_555
O2 C4 1_555 1_555
O3 C2 1_555 1_555
N1 C10 1_555 1_555
O4 H1 1_555 1_555
C1 H2 1_555 1_555
C2 O4 1_555 1_555
C3 C1 1_555 1_555
H3 C3 1_555 1_555
C4 C7 1_555 1_555
C5 H4 1_555 1_555
C6 C1 1_555 1_555
C7 C9 1_555 1_555
C8 C5 1_555 1_555
H5 C8 1_555 1_555
C9 H6 1_555 1_555
C10 C7 1_555 1_555
H7 C10 1_555 1_555
C11 C3 1_555 1_555
C12 C9 1_555 1_555
C13 N1 1_555 1_555
H8 C13 1_555 1_555
Ag1_2 O2 1_555 1_555
Ag1A Ag1 1_555 1_555
Ag1A_2 N1 1_555 1_555
O2_2 Ag1 1_555 1_555
O2A Ag1 1_555 1_555
N1A Ag1 1_555 1_555
O2 Ag1A 1_555 1_555
C2 C6 1_555 1_555
C5 C11 1_555 1_555
C6 C8 1_555 1_555
C11 C12 1_555 1_555
C12 C13 1_555 1_555

#END
