
#######################################################################
#
#                 Cambridge Crystallographic Data Centre
#                                CCDC 
#
#######################################################################
#
# If this CIF has been generated from an entry in the Cambridge 
# Structural Database, then it will include bibliographic, chemical, 
# crystal, experimental, refinement or atomic coordinate data resulting 
# from the CCDC's data processing and validation procedures.
#
#######################################################################

data_RUNNET
_symmetry_cell_setting           monoclinic
_symmetry_space_group_name_H-M   'P 21/c'
_symmetry_Int_Tables_number      14
_space_group_name_Hall           '-P 2ybc'
loop_
_symmetry_equiv_pos_site_id
_symmetry_equiv_pos_as_xyz
1 x,y,z
2 -x,1/2+y,1/2-z
3 -x,-y,-z
4 x,1/2-y,1/2+z
_cell_length_a                   7.766(2)
_cell_length_b                   11.255(2)
_cell_length_c                   20.959(4)
_cell_angle_alpha                90
_cell_angle_beta                 100.38(3)
_cell_angle_gamma                90
_cell_volume                     1801.97
loop_
_atom_site_label
_atom_site_type_symbol
_atom_site_fract_x
_atom_site_fract_y
_atom_site_fract_z
U1 U 0.3514(1) 0.1122(1) 0.2418(1)
P1 P 0.2618(4) 0.4220(2) 0.1885(1)
P2 P 0.2928(3) -0.1865(2) 0.1677(1)
O1 O 0.2549(10) 0.0994(7) 0.3123(3)
O2 O 0.4498(10) 0.1306(6) 0.1722(4)
O3 O 0.2350(9) 0.3075(6) 0.2234(3)
O4 O 0.2579(10) -0.0771(6) 0.2051(3)
O5 O 0.5665(10) -0.0195(6) 0.2903(3)
O6 O 0.5589(10) 0.2346(7) 0.3024(4)
O7 O 0.1083(11) 0.5027(7) 0.2051(4)
O8 O 0.1205(9) -0.2660(6) 0.1573(3)
O9 O 0.0426(10) 0.1080(6) 0.1793(4)
C1 C 0.2243(14) 0.4024(9) 0.1022(5)
C2 C 0.1038(15) 0.3226(11) 0.0700(5)
C3 C 0.0718(16) 0.3205(12) 0.0045(6)
C4 C 0.1577(16) 0.3945(11) -0.0324(6)
C5 C 0.2734(18) 0.4730(12) -0.0004(6)
C6 C 0.3132(17) 0.4760(11) 0.0664(5)
C7 C 0.3205(14) -0.1446(9) 0.0888(5)
C8 C 0.4327(15) -0.2125(10) 0.0560(5)
C9 C 0.4423(16) -0.1884(10) -0.0087(6)
C10 C 0.3451(16) -0.0964(11) -0.0409(5)
C11 C 0.2351(16) -0.0279(11) -0.0086(6)
C12 C 0.2280(14) -0.0517(10) 0.0561(5)
H1 H 0.0440(15) 0.2696(11) 0.0938(5)
H2 H -0.0128(16) 0.2663(12) -0.0171(6)
H3 H 0.1360(16) 0.3902(11) -0.0785(6)
H4 H 0.3290(18) 0.5278(12) -0.0245(6)
H5 H 0.4012(17) 0.5283(11) 0.0877(5)
H6 H 0.5015(15) -0.2747(10) 0.0783(5)
H7 H 0.5154(16) -0.2352(10) -0.0305(6)
H8 H 0.3525(16) -0.0794(11) -0.0847(5)
H9 H 0.1662(16) 0.0342(11) -0.0309(6)
H10 H 0.1580(14) -0.0029(10) 0.0782(5)
O5A O 0.4335(10) 0.4805(6) 0.2097(3)
U1A U 0.6486(1) 0.6122(1) 0.2582(1)
O6A O 0.4411(10) -0.2654(7) 0.1976(4)
U1A_2 U 0.6486(1) -0.3878(1) 0.2582(1)
O10 O -0.1606(10) -0.1311(6) 0.1556(4)
O11 O -0.2039(11) 0.2835(8) 0.1733(4)
loop_
_geom_bond_atom_site_label_1
_geom_bond_atom_site_label_2
_geom_bond_site_symmetry_1
_geom_bond_site_symmetry_2
U1 O1 1_555 1_555
P1 O3 1_555 1_555
P2 O4 1_555 1_555
O2 U1 1_555 1_555
O3 U1 1_555 1_555
O4 U1 1_555 1_555
O5 U1 1_555 1_555
O6 U1 1_555 1_555
O7 P1 1_555 1_555
O8 P2 1_555 1_555
O9 U1 1_555 1_555
C1 P1 1_555 1_555
C2 C1 1_555 1_555
C3 C2 1_555 1_555
C4 C3 1_555 1_555
C5 C4 1_555 1_555
C6 C1 1_555 1_555
C7 P2 1_555 1_555
C8 C7 1_555 1_555
C9 C8 1_555 1_555
C10 C9 1_555 1_555
C11 C10 1_555 1_555
C12 C7 1_555 1_555
H1 C2 1_555 1_555
H2 C3 1_555 1_555
H3 C4 1_555 1_555
H4 C5 1_555 1_555
H5 C6 1_555 1_555
H6 C8 1_555 1_555
H7 C9 1_555 1_555
H8 C10 1_555 1_555
H9 C11 1_555 1_555
H10 C12 1_555 1_555
O5A P1 1_555 1_555
U1A O5A 1_555 1_555
O6A P2 1_555 1_555
U1A_2 O6A 1_555 1_555
C5 C6 1_555 1_555
C11 C12 1_555 1_555

#END
