
#######################################################################
#
#                 Cambridge Crystallographic Data Centre
#                                CCDC 
#
#######################################################################
#
# If this CIF has been generated from an entry in the Cambridge 
# Structural Database, then it will include bibliographic, chemical, 
# crystal, experimental, refinement or atomic coordinate data resulting 
# from the CCDC's data processing and validation procedures.
#
#######################################################################

data_RUNXOP
_symmetry_cell_setting           triclinic
_symmetry_space_group_name_H-M   'P -1'
_symmetry_Int_Tables_number      2
_space_group_name_Hall           '-P 1'
loop_
_symmetry_equiv_pos_site_id
_symmetry_equiv_pos_as_xyz
1 x,y,z
2 -x,-y,-z
_cell_length_a                   11.878(2)
_cell_length_b                   11.944(2)
_cell_length_c                   13.199(3)
_cell_angle_alpha                76.18(3)
_cell_angle_beta                 79.76(3)
_cell_angle_gamma                75.16(3)
_cell_volume                     1744.08
loop_
_atom_site_label
_atom_site_type_symbol
_atom_site_fract_x
_atom_site_fract_y
_atom_site_fract_z
Ni1 Ni 0.5000 0.5000 0.0000
Ni2 Ni 0.19503(2) 0.52768(2) 0.01708(2)
O1 O 0.02025(10) 0.58459(11) 0.07740(9)
O2 O 0.42703(11) 0.48783(14) 0.15425(10)
O3 O 0.22296(11) -0.30679(11) 0.99027(10)
O4 O 0.36245(10) 0.46308(10) -0.04649(9)
O5 O -0.34188(11) -0.25362(11) 0.97405(10)
O6 O -0.30802(11) 0.41281(11) 0.22655(9)
O7 O 0.41905(11) -0.32505(11) 0.97378(12)
O8 O -0.15721(10) -0.35866(10) 0.95367(9)
O9 O 0.23531(11) 0.48867(11) 0.16532(9)
O10 O -0.13490(10) 0.43052(10) 0.13160(9)
C1 C 0.41250(15) 0.43301(16) 0.37377(13)
H1 H 0.4890 0.4211 0.3359
C2 C 0.32673(14) 0.48515(14) 0.20235(13)
N1 N 0.02126(13) 0.15889(12) 0.67349(11)
C3 C 0.25619(15) 0.23873(14) 0.81452(12)
H2 H 0.3111 0.2695 0.8431
H3 H 0.1754 0.2808 0.8362
C4 C 0.28620(15) 0.43037(14) 0.53890(13)
C5 C 0.31411(15) 0.47382(14) 0.31978(13)
C6 C -0.19955(16) 0.26291(16) 0.39394(14)
H4 H -0.2798 0.2657 0.3919
C7 C 0.20273(15) 0.49896(14) 0.37524(13)
H5 H 0.1359 0.5293 0.3385
C8 C 0.26824(16) 0.39607(14) 0.65694(13)
H6 H 0.1892 0.4379 0.6834
H7 H 0.3267 0.4215 0.6860
C9 C 0.18661(15) -0.06243(15) 0.93178(13)
H8 H 0.1197 -0.0959 0.9548
C10 C 0.03199(15) 0.26015(15) 0.40389(13)
H9 H 0.1106 0.2616 0.4080
N2 N 0.28006(12) 0.26416(12) 0.69523(11)
C11 C 0.03372(16) 0.11226(15) 0.57755(13)
H10 H 0.0046 0.0384 0.5970
H11 H 0.1185 0.0907 0.5523
C12 C -0.24800(15) 0.05867(15) 0.81358(14)
H12 H -0.3063 0.1296 0.7993
C13 C 0.26983(15) 0.10863(14) 0.86017(13)
C14 C 0.39806(15) 0.40982(15) 0.48311(13)
H13 H 0.4649 0.3798 0.5199
C15 C 0.18894(15) 0.47977(15) 0.48426(13)
H14 H 0.1131 0.5003 0.5217
C16 C 0.29867(14) -0.13492(14) 0.93674(13)
C17 C -0.07825(14) -0.15006(15) 0.85390(13)
H15 H -0.0199 -0.2211 0.8672
C18 C 0.39667(15) -0.08476(15) 0.90768(13)
H16 H 0.4732 -0.1334 0.9136
C19 C 0.17229(15) 0.05871(15) 0.89329(13)
H17 H 0.0956 0.1076 0.8896
C20 C -0.13021(15) 0.05968(15) 0.78140(13)
C21 C -0.23465(14) -0.26239(14) 0.94183(13)
C22 C -0.02118(15) 0.32572(15) 0.31594(13)
H18 H 0.0218 0.3696 0.2597
C23 C -0.28070(15) -0.04581(15) 0.86660(14)
H19 H -0.3612 -0.0456 0.8896
C24 C -0.19853(14) 0.39473(14) 0.21556(13)
C25 C -0.09662(15) 0.17637(15) 0.73023(14)
H20 H -0.1533 0.2232 0.6809
H21 H -0.1009 0.2218 0.7850
C26 C -0.19607(15) -0.15110(14) 0.88635(13)
C27 C 0.07745(15) 0.25757(15) 0.66025(13)
H22 H 0.0556 0.2927 0.7237
H23 H 0.0514 0.3195 0.5991
C28 C -0.04591(15) -0.04520(15) 0.80212(13)
H24 H 0.0347 -0.0450 0.7806
C29 C -0.13738(15) 0.32711(14) 0.31018(13)
C30 C -0.02804(15) 0.19206(15) 0.48647(13)
C31 C 0.21024(15) 0.21092(15) 0.64279(13)
H25 H 0.2280 0.1242 0.6689
H26 H 0.2365 0.2259 0.5662
C32 C 0.38197(15) 0.03658(15) 0.87007(13)
H27 H 0.4487 0.0707 0.8510
C33 C 0.31450(15) -0.26766(14) 0.97055(13)
C34 C -0.14489(17) 0.19502(16) 0.48017(14)
H28 H -0.1876 0.1500 0.5357
H29 H 0.3569(17) 0.228(3) 0.682(2)
H30 H 0.353(2) 0.496(2) -0.1098(15)
H31 H 0.362(3) 0.3902(17) -0.028(2)
H32 H -0.022(2) 0.619(3) 0.029(2)
H33 H -0.010(3) 0.527(2) 0.107(2)
Ni2A Ni -0.19503(2) -0.52768(2) 0.98292(2)
O1A O -0.02025(10) -0.58459(11) 0.92260(9)
O2A O -0.42703(11) -0.48783(14) 0.84575(10)
O3A O -0.22296(11) 0.30679(11) 0.00973(10)
O4A O -0.36245(10) -0.46308(10) 1.04649(9)
O5A O 0.34188(11) 0.25362(11) 0.02595(10)
O6A O 0.30802(11) -0.41281(11) 0.77345(9)
O7A O -0.41905(11) 0.32505(11) 0.02622(12)
O8A O 0.15721(10) 0.35866(10) 0.04633(9)
O9A O -0.23531(11) -0.48867(11) 0.83468(9)
O10A O 0.13490(10) -0.43052(10) 0.86840(9)
C1A C -0.41250(15) -0.43301(16) 0.62623(13)
H1A H -0.4890 -0.4211 0.6641
C2A C -0.32673(14) -0.48515(14) 0.79765(13)
N1A N -0.02126(13) -0.15889(12) 0.32651(11)
C3A C -0.25619(15) -0.23873(14) 0.18548(12)
H2A H -0.3111 -0.2695 0.1569
H3A H -0.1754 -0.2808 0.1638
C4A C -0.28620(15) -0.43037(14) 0.46110(13)
C5A C -0.31411(15) -0.47382(14) 0.68022(13)
C6A C 0.19955(16) -0.26291(16) 0.60606(14)
H4A H 0.2798 -0.2657 0.6081
C7A C -0.20273(15) -0.49896(14) 0.62476(13)
H5A H -0.1359 -0.5293 0.6615
C8A C -0.26824(16) -0.39607(14) 0.34306(13)
H6A H -0.1892 -0.4379 0.3166
H7A H -0.3267 -0.4215 0.3140
C9A C -0.18661(15) 0.06243(15) 0.06822(13)
H8A H -0.1197 0.0959 0.0452
C10A C -0.03199(15) -0.26015(15) 0.59611(13)
H9A H -0.1106 -0.2616 0.5920
N2A N -0.28006(12) -0.26416(12) 0.30477(11)
C11A C -0.03372(16) -0.11226(15) 0.42245(13)
H10A H -0.0046 -0.0384 0.4030
H11A H -0.1185 -0.0907 0.4477
C12A C 0.24800(15) -0.05867(15) 0.18642(14)
H12A H 0.3063 -0.1296 0.2007
C13A C -0.26983(15) -0.10863(14) 0.13983(13)
C14A C -0.39806(15) -0.40982(15) 0.51689(13)
H13A H -0.4649 -0.3798 0.4801
C15A C -0.18894(15) -0.47977(15) 0.51574(13)
H14A H -0.1131 -0.5003 0.4783
C16A C -0.29867(14) 0.13492(14) 0.06326(13)
C17A C 0.07825(14) 0.15006(15) 0.14610(13)
H15A H 0.0199 0.2211 0.1328
C18A C -0.39667(15) 0.08476(15) 0.09232(13)
H16A H -0.4732 0.1334 0.0864
C19A C -0.17229(15) -0.05871(15) 0.10671(13)
H17A H -0.0956 -0.1076 0.1104
C20A C 0.13021(15) -0.05968(15) 0.21860(13)
C21A C 0.23465(14) 0.26239(14) 0.05817(13)
C22A C 0.02118(15) -0.32572(15) 0.68406(13)
H18A H -0.0218 -0.3696 0.7403
C23A C 0.28070(15) 0.04581(15) 0.13340(14)
H19A H 0.3612 0.0456 0.1104
C24A C 0.19853(14) -0.39473(14) 0.78444(13)
C25A C 0.09662(15) -0.17637(15) 0.26977(14)
H20A H 0.1533 -0.2232 0.3191
H21A H 0.1009 -0.2218 0.2150
C26A C 0.19607(15) 0.15110(14) 0.11365(13)
C27A C -0.07745(15) -0.25757(15) 0.33975(13)
H22A H -0.0556 -0.2927 0.2763
H23A H -0.0514 -0.3195 0.4009
C28A C 0.04591(15) 0.04520(15) 0.19788(13)
H24A H -0.0347 0.0450 0.2194
C29A C 0.13738(15) -0.32711(14) 0.68982(13)
C30A C 0.02804(15) -0.19206(15) 0.51353(13)
C31A C -0.21024(15) -0.21092(15) 0.35721(13)
H25A H -0.2280 -0.1242 0.3311
H26A H -0.2365 -0.2259 0.4338
C32A C -0.38197(15) -0.03658(15) 0.12993(13)
H27A H -0.4487 -0.0707 0.1490
C33A C -0.31450(15) 0.26766(14) 0.02945(13)
C34A C 0.14489(17) -0.19502(16) 0.51983(14)
H28A H 0.1876 -0.1500 0.4643
H29A H -0.3569(17) -0.228(3) 0.318(2)
H30A H -0.353(2) -0.496(2) 1.1098(15)
H31A H -0.362(3) -0.3902(17) 1.028(2)
H32A H 0.022(2) -0.619(3) 0.971(2)
H33A H 0.010(3) -0.527(2) 0.893(2)
Ni1_2 Ni -0.5000 -0.5000 1.0000
Ni1_3 Ni -0.5000 0.5000 0.0000
Ni1_4 Ni 0.5000 -0.5000 1.0000
Ni2_2 Ni 0.19503(2) -0.47232(2) 1.01708(2)
Ni2A_2 Ni -0.19503(2) 0.47232(2) -0.01708(2)
O2A_2 O 0.57297(11) 0.51217(14) -0.15425(10)
O3_2 O 0.22296(11) 0.69321(11) -0.00973(10)
O3A_2 O -0.22296(11) -0.69321(11) 1.00973(10)
O4A_2 O 0.63755(10) 0.53692(10) 0.04649(9)
O7_2 O 0.41905(11) 0.67495(11) -0.02622(12)
O7A_2 O 0.58095(11) 0.32505(11) 0.02622(12)
O10_2 O -0.13490(10) -0.56948(10) 1.13160(9)
O10A_2 O 0.13490(10) 0.56948(10) -0.13160(9)
N3 N 0.45729(16) 0.07908(16) 0.34500(14)
O11 O 0.52938(15) -0.11958(15) 0.39030(12)
C35 C 0.45052(19) -0.03320(19) 0.36324(16)
H34 H 0.3784 -0.0484 0.3547
C36 C 0.5636(2) 0.1133(3) 0.3541(2)
H35 H 0.6253 0.0423 0.3717
H36 H 0.5475 0.1591 0.4096
H37 H 0.5894 0.1618 0.2871
C37 C 0.3588(2) 0.1746(2) 0.3145(2)
H38 H 0.3817 0.2226 0.2463
H39 H 0.3350 0.2242 0.3675
H40 H 0.2930 0.1417 0.3092
O12 O 0.48372(14) 0.70362(15) 0.18843(14)
H41 H 0.468(4) 0.635(2) 0.208(4)
H42 H 0.484(4) 0.732(4) 0.1221(17)
loop_
_geom_bond_atom_site_label_1
_geom_bond_atom_site_label_2
_geom_bond_site_symmetry_1
_geom_bond_site_symmetry_2
Ni1 O2 1_555 1_555
Ni2 O1 1_555 1_555
O1 H32 1_555 1_555
O2 C2 1_555 1_555
O3 C33 1_555 1_555
O4 Ni1 1_555 1_555
O5 C21 1_555 1_555
O6 C24 1_555 1_555
O7 C33 1_555 1_555
O8 C21 1_555 1_555
O9 Ni2 1_555 1_555
O10 C24 1_555 1_555
C1 H1 1_555 1_555
C2 O9 1_555 1_555
N1 C11 1_555 1_555
C3 H2 1_555 1_555
H3 C3 1_555 1_555
C4 C8 1_555 1_555
C5 C1 1_555 1_555
C6 H4 1_555 1_555
C7 C5 1_555 1_555
H5 C7 1_555 1_555
C8 H6 1_555 1_555
H7 C8 1_555 1_555
C9 H8 1_555 1_555
C10 H9 1_555 1_555
N2 C3 1_555 1_555
C11 H10 1_555 1_555
H11 C11 1_555 1_555
C12 H12 1_555 1_555
C13 C3 1_555 1_555
C14 C1 1_555 1_555
H13 C14 1_555 1_555
C15 C4 1_555 1_555
H14 C15 1_555 1_555
C16 C9 1_555 1_555
C17 H15 1_555 1_555
C18 C16 1_555 1_555
H16 C18 1_555 1_555
C19 C9 1_555 1_555
H17 C19 1_555 1_555
C20 C12 1_555 1_555
C21 C26 1_555 1_555
C22 C10 1_555 1_555
H18 C22 1_555 1_555
C23 C12 1_555 1_555
H19 C23 1_555 1_555
C24 C29 1_555 1_555
C25 N1 1_555 1_555
H20 C25 1_555 1_555
H21 C25 1_555 1_555
C26 C17 1_555 1_555
C27 N1 1_555 1_555
H22 C27 1_555 1_555
H23 C27 1_555 1_555
C28 C17 1_555 1_555
H24 C28 1_555 1_555
C29 C6 1_555 1_555
C30 C10 1_555 1_555
C31 N2 1_555 1_555
H25 C31 1_555 1_555
H26 C31 1_555 1_555
C32 C13 1_555 1_555
H27 C32 1_555 1_555
C33 C16 1_555 1_555
C34 C6 1_555 1_555
H28 C34 1_555 1_555
H29 N2 1_555 1_555
H30 O4 1_555 1_555
H31 O4 1_555 1_555
H33 O1 1_555 1_555
N3 C35 1_555 1_555
O11 C35 1_555 1_555
C35 H34 1_555 1_555
C36 N3 1_555 1_555
H35 C36 1_555 1_555
H36 C36 1_555 1_555
H37 C36 1_555 1_555
C37 N3 1_555 1_555
H38 C37 1_555 1_555
H39 C37 1_555 1_555
H40 C37 1_555 1_555
O12 H41 1_555 1_555
H42 O12 1_555 1_555
Ni2A O8 1_555 1_555
O1A Ni2A 1_555 1_555
O2A C2A 1_555 1_555
O3A C33A 1_555 1_555
O4A Ni2A 1_555 1_555
O5A C21A 1_555 1_555
O6A C24A 1_555 1_555
O7A C33A 1_555 1_555
O8A Ni2 1_555 1_555
O9A Ni2A 1_555 1_555
O10A C24A 1_555 1_555
C1A H1A 1_555 1_555
C2A O9A 1_555 1_555
N1A C11A 1_555 1_555
C3A H2A 1_555 1_555
H3A C3A 1_555 1_555
C4A C8A 1_555 1_555
C5A C1A 1_555 1_555
C6A H4A 1_555 1_555
C7A C5A 1_555 1_555
H5A C7A 1_555 1_555
C8A H6A 1_555 1_555
H7A C8A 1_555 1_555
C9A H8A 1_555 1_555
C10A H9A 1_555 1_555
N2A C3A 1_555 1_555
C11A H10A 1_555 1_555
H11A C11A 1_555 1_555
C12A H12A 1_555 1_555
C13A C3A 1_555 1_555
C14A C1A 1_555 1_555
H13A C14A 1_555 1_555
C15A C4A 1_555 1_555
H14A C15A 1_555 1_555
C16A C9A 1_555 1_555
C17A H15A 1_555 1_555
C18A C16A 1_555 1_555
H16A C18A 1_555 1_555
C19A C9A 1_555 1_555
H17A C19A 1_555 1_555
C20A C12A 1_555 1_555
C21A O8A 1_555 1_555
C22A C10A 1_555 1_555
H18A C22A 1_555 1_555
C23A C12A 1_555 1_555
H19A C23A 1_555 1_555
C24A C29A 1_555 1_555
C25A N1A 1_555 1_555
H20A C25A 1_555 1_555
H21A C25A 1_555 1_555
C26A C17A 1_555 1_555
C27A N1A 1_555 1_555
H22A C27A 1_555 1_555
H23A C27A 1_555 1_555
C28A C17A 1_555 1_555
H24A C28A 1_555 1_555
C29A C6A 1_555 1_555
C30A C10A 1_555 1_555
C31A N2A 1_555 1_555
H25A C31A 1_555 1_555
H26A C31A 1_555 1_555
C32A C13A 1_555 1_555
H27A C32A 1_555 1_555
C33A C16A 1_555 1_555
C34A C6A 1_555 1_555
H28A C34A 1_555 1_555
H29A N2A 1_555 1_555
H30A O4A 1_555 1_555
H31A O4A 1_555 1_555
H32A O1A 1_555 1_555
H33A O1A 1_555 1_555
Ni1_2 O2A 1_555 1_555
Ni1_3 O7A 1_555 1_555
Ni1_4 O7 1_555 1_555
Ni2_2 O3 1_555 1_555
Ni2A_2 O10 1_555 1_555
O2A_2 Ni1 1_555 1_555
O3_2 Ni2 1_555 1_555
O3A_2 Ni2A 1_555 1_555
O4A_2 Ni1 1_555 1_555
O7_2 Ni1 1_555 1_555
O7A_2 Ni1 1_555 1_555
O10_2 Ni2A 1_555 1_555
O10A_2 Ni2 1_555 1_555
Ni2 O4 1_555 1_555
C2 C5 1_555 1_555
C4 C14 1_555 1_555
C7 C15 1_555 1_555
C8 N2 1_555 1_555
C11 C30 1_555 1_555
C13 C19 1_555 1_555
C18 C32 1_555 1_555
C20 C25 1_555 1_555
C20 C28 1_555 1_555
C22 C29 1_555 1_555
C23 C26 1_555 1_555
C27 C31 1_555 1_555
C30 C34 1_555 1_555
O3A Ni2A_2 1_555 1_555
O4A Ni1_2 1_555 1_555
O10A Ni2_2 1_555 1_555
C2A C5A 1_555 1_555
C4A C14A 1_555 1_555
C7A C15A 1_555 1_555
C8A N2A 1_555 1_555
C11A C30A 1_555 1_555
C13A C19A 1_555 1_555
C18A C32A 1_555 1_555
C20A C25A 1_555 1_555
C20A C28A 1_555 1_555
C21A C26A 1_555 1_555
C22A C29A 1_555 1_555
C23A C26A 1_555 1_555
C27A C31A 1_555 1_555
C30A C34A 1_555 1_555

#END
