
#######################################################################
#
#                 Cambridge Crystallographic Data Centre
#                                CCDC 
#
#######################################################################
#
# If this CIF has been generated from an entry in the Cambridge 
# Structural Database, then it will include bibliographic, chemical, 
# crystal, experimental, refinement or atomic coordinate data resulting 
# from the CCDC's data processing and validation procedures.
#
#######################################################################

data_RUNYUV
_symmetry_cell_setting           monoclinic
_symmetry_space_group_name_H-M   'P 21/n'
_symmetry_Int_Tables_number      14
_space_group_name_Hall           '-P 2yn'
loop_
_symmetry_equiv_pos_site_id
_symmetry_equiv_pos_as_xyz
1 x,y,z
2 1/2-x,1/2+y,1/2-z
3 -x,-y,-z
4 1/2+x,1/2-y,1/2+z
_cell_length_a                   4.7736(4)
_cell_length_b                   16.5443(15)
_cell_length_c                   12.9502(11)
_cell_angle_alpha                90
_cell_angle_beta                 95.705(2)
_cell_angle_gamma                90
_cell_volume                     1017.69
loop_
_atom_site_label
_atom_site_type_symbol
_atom_site_fract_x
_atom_site_fract_y
_atom_site_fract_z
Cu1 Cu 0.53016(6) 0.228089(17) 0.32811(2)
O1 O 0.7188(4) 0.31608(11) 0.41343(14)
O2 O 1.0943(4) 0.25562(13) 0.36428(17)
O3 O 0.4765(4) 0.29438(11) 0.20234(14)
O4 O 0.6522(4) 0.36252(12) 0.07647(13)
C1 C 0.6520(6) 0.06709(16) 0.3936(2)
H1 H 0.6249 0.0245 0.4431
H2 H 0.8412 0.0624 0.3729
C2 C 0.4402(5) 0.05847(16) 0.3002(2)
C3 C 0.3145(7) -0.01272(17) 0.2680(2)
H3 H 0.3561 -0.0602 0.3048
C4 C 0.1241(7) -0.01306(19) 0.1798(3)
H4 H 0.0349 -0.0606 0.1566
C5 C 0.0700(7) 0.05831(19) 0.1272(3)
H5 H -0.0542 0.0594 0.0672
C6 C 0.2006(6) 0.12792(17) 0.1640(2)
H6 H 0.1617 0.1761 0.1285
C7 C 0.9818(6) 0.30699(17) 0.4132(2)
H7 H 1.0982 0.3423 0.4536
C8 C 0.6733(5) 0.32199(16) 0.15636(19)
H8 H 0.8550 0.3107 0.1856
N1 N 0.6157(4) 0.14651(12) 0.44154(16)
H9 H 0.7591 0.1602 0.4818
H10 H 0.4720 0.1467 0.4843
N2 N 0.3830(4) 0.12838(12) 0.24998(15)
Cu1_2 Cu 1.53016(6) 0.228089(17) 0.32811(2)
O2_2 O 0.0943(4) 0.25562(13) 0.36428(17)
loop_
_geom_bond_atom_site_label_1
_geom_bond_atom_site_label_2
_geom_bond_site_symmetry_1
_geom_bond_site_symmetry_2
Cu1 O1 1_555 1_555
O1 C7 1_555 1_555
O2 C7 1_555 1_555
O3 Cu1 1_555 1_555
O4 C8 1_555 1_555
C1 H1 1_555 1_555
H2 C1 1_555 1_555
C2 C1 1_555 1_555
C3 C2 1_555 1_555
H3 C3 1_555 1_555
C4 C3 1_555 1_555
H4 C4 1_555 1_555
C5 C4 1_555 1_555
H5 C5 1_555 1_555
C6 C5 1_555 1_555
H6 C6 1_555 1_555
C7 H7 1_555 1_555
C8 O3 1_555 1_555
H8 C8 1_555 1_555
N1 Cu1 1_555 1_555
H9 N1 1_555 1_555
H10 N1 1_555 1_555
N2 Cu1 1_555 1_555
Cu1_2 O2 1_555 1_555
O2_2 Cu1 1_555 1_555
C1 N1 1_555 1_555
C2 N2 1_555 1_555
C6 N2 1_555 1_555

#END
