
#######################################################################
#
#                 Cambridge Crystallographic Data Centre
#                                CCDC 
#
#######################################################################
#
# If this CIF has been generated from an entry in the Cambridge 
# Structural Database, then it will include bibliographic, chemical, 
# crystal, experimental, refinement or atomic coordinate data resulting 
# from the CCDC's data processing and validation procedures.
#
#######################################################################

data_RUPBEJ
_symmetry_cell_setting           rhombohedral
_symmetry_space_group_name_H-M   'R 3 c'
_symmetry_Int_Tables_number      161
_space_group_name_Hall           'R 3 -2"c'
loop_
_symmetry_equiv_pos_site_id
_symmetry_equiv_pos_as_xyz
1 x,y,z
2 -y,x-y,z
3 -y,-x,1/2+z
4 -x+y,-x,z
5 x,x-y,1/2+z
6 -x+y,y,1/2+z
7 1/3+x,2/3+y,2/3+z
8 1/3-y,2/3+x-y,2/3+z
9 1/3-y,2/3-x,1/6+z
10 1/3-x+y,2/3-x,2/3+z
11 1/3+x,2/3+x-y,1/6+z
12 1/3-x+y,2/3+y,1/6+z
13 2/3+x,1/3+y,1/3+z
14 2/3-y,1/3+x-y,1/3+z
15 2/3-y,1/3-x,5/6+z
16 2/3-x+y,1/3-x,1/3+z
17 2/3+x,1/3+x-y,5/6+z
18 2/3-x+y,1/3+y,5/6+z
_cell_length_a                   9.363(3)
_cell_length_b                   9.363(3)
_cell_length_c                   49.207(27)
_cell_angle_alpha                90
_cell_angle_beta                 90
_cell_angle_gamma                120.00
_cell_volume                     3735.83
loop_
_atom_site_label
_atom_site_type_symbol
_atom_site_fract_x
_atom_site_fract_y
_atom_site_fract_z
N1 N 1.0000 1.0000 0.9337(2)
C3 C 0.9415(15) 0.8236(7) 0.9211(2)
C4 C 1.0312(4) 0.7350(10) 0.9234(4)
C5 C 0.9529(23) 0.5614(14) 0.9132(4)
C6 C 1.0015(25) 1.0148(22) 0.9636(2)
C7 C 1.0186(33) 0.9154(29) 0.9855(2)
C8 C 0.9705(41) 0.9501(25) 1.0131(3)
H1 H 0.8324(15) 0.7510(7) 0.9284(2)
H2 H 0.9269(15) 0.8332(7) 0.9018(2)
H3 H 1.0571(14) 0.7338(10) 0.9424(4)
H4 H 1.1352(14) 0.7986(10) 0.9139(4)
H5 H 1.0264(23) 0.5193(14) 0.9161(4)
H6 H 0.9304(23) 0.5593(14) 0.8941(4)
H7 H 0.8516(23) 0.4942(14) 0.9228(4)
H8 H 0.8994(25) 1.0130(22) 0.9678(2)
H9 H 1.0886(25) 1.1268(22) 0.9672(2)
H10 H 1.1321(33) 0.9395(29) 0.9862(2)
H11 H 0.9495(33) 0.7992(29) 0.9813(2)
H12 H 0.9739(41) 0.8765(25) 1.0264(3)
H13 H 0.8609(41) 0.9337(25) 1.0122(3)
H14 H 1.0462(41) 1.0620(25) 1.0183(3)
C3A C 1.1764(7) 1.1179(17) 0.9211(2)
C4A C 1.2650(10) 1.2962(11) 0.9234(4)
C5A C 1.4386(14) 1.3915(27) 0.9132(4)
H5A H 1.4807(14) 1.5071(27) 0.9161(4)
H6A H 1.4407(14) 1.3711(27) 0.8941(4)
H7A H 1.5058(14) 1.3574(27) 0.9228(4)
H3A H 1.2662(10) 1.3233(17) 0.9424(4)
H4A H 1.2014(10) 1.3366(17) 0.9139(4)
H1A H 1.2490(7) 1.0814(17) 0.9284(2)
H2A H 1.1668(7) 1.0937(17) 0.9018(2)
C3C C 0.8821(17) 1.0585(15) 0.9211(2)
C4C C 0.7038(11) 0.9688(4) 0.9234(4)
C5C C 0.6085(27) 1.0471(23) 0.9132(4)
H5C H 0.4929(27) 0.9736(23) 0.9161(4)
H6C H 0.6289(27) 1.0696(23) 0.8941(4)
H7C H 0.6426(27) 1.1484(23) 0.9228(4)
H3C H 0.6767(17) 0.9429(14) 0.9424(4)
H4C H 0.6634(17) 0.8648(14) 0.9139(4)
H1C H 0.9186(17) 1.1676(15) 0.9284(2)
H2C H 0.9063(17) 1.0731(15) 0.9018(2)
C6A C 0.9852(22) 0.9867(33) 0.9636(2)
C6C C 1.0133(33) 0.9985(25) 0.9636(2)
C7C C 0.8968(44) 0.9814(33) 0.9855(2)
C7A C 1.0846(29) 1.1032(44) 0.9855(2)
C8C C 0.9796(48) 1.0295(41) 1.0131(3)
H8A H 0.9870(22) 0.8864(33) 0.9678(2)
H8C H 1.1136(33) 1.1006(25) 0.9678(2)
H9A H 0.8732(22) 0.9618(33) 0.9672(2)
C8A C 1.0499(25) 1.0204(48) 1.0131(3)
H9C H 1.0382(33) 0.9114(25) 0.9672(2)
H10A H 1.0605(29) 1.1926(44) 0.9862(2)
H11A H 1.2008(29) 1.1503(44) 0.9813(2)
H10C H 0.8074(44) 0.8679(33) 0.9862(2)
H11C H 0.8497(44) 1.0505(33) 0.9813(2)
H12A H 1.1235(25) 1.0974(48) 1.0264(3)
H14C H 1.0158(48) 0.9538(41) 1.0183(3)
H12C H 0.9026(48) 1.0261(41) 1.0264(3)
H14A H 0.9380(25) 0.9842(48) 1.0183(3)
H13A H 1.0663(25) 0.9272(48) 1.0122(3)
H13C H 1.0728(48) 1.1391(41) 1.0122(3)
Mn1 Mn 0.6667 0.3333 0.9972(1)
Cr1 Cr 0.3334 -0.3333 0.9954(1)
O1 O 0.8742(6) 0.5194(6) 1.0193(1)
O2 O 0.8735(6) 0.3579(6) 0.9738(1)
O3 O 0.3514(5) -0.1462(6) 0.9735(1)
O4 O 0.5057(6) -0.1531(5) 1.0179(1)
C1 C 0.5431(8) -0.0087(7) 1.0092(2)
C2 C 0.4503(9) -0.0094(8) 0.9827(2)
O1A O 0.4806(6) 0.3548(8) 1.0193(1)
O2A O 0.6421(6) 0.5156(8) 0.9738(1)
O1C O 0.6452(8) 0.1258(6) 1.0193(1)
O2C O 0.4844(8) 0.1265(6) 0.9738(1)
O3A O 0.1462(6) -0.5024(8) 0.9735(1)
C2A C 0.0094(8) -0.5403(12) 0.9827(2)
O2_2 O -0.1265(6) -0.6421(6) 0.9738(1)
Mn1_2 Mn -0.3333 -0.6667 0.9972(1)
C1A C 0.0087(7) -0.4482(11) 1.0092(2)
O1_2 O -0.1258(6) -0.4806(6) 1.0193(1)
O4A O 0.1531(5) -0.3412(8) 1.0179(1)
O3C O 0.5024(8) -0.3514(5) 0.9735(1)
C2C C 0.5403(12) -0.4503(9) 0.9827(2)
O2A_2 O 0.6421(6) -0.4844(8) 0.9738(1)
Mn1A Mn 0.6667 -0.6666 0.9972(1)
O1A_2 O 0.4806(6) -0.6452(8) 1.0193(1)
C1C C 0.4482(11) -0.5431(8) 1.0092(2)
O4C O 0.3412(8) -0.5057(6) 1.0179(1)
loop_
_geom_bond_atom_site_label_1
_geom_bond_atom_site_label_2
_geom_bond_site_symmetry_1
_geom_bond_site_symmetry_2
Mn1 O1 1_555 1_555
Cr1 O3 1_555 1_555
O2 Mn1 1_555 1_555
O3 C2 1_555 1_555
O4 Cr1 1_555 1_555
C1 O4 1_555 1_555
C2 C1 1_555 1_555
N1 C3 1_555 1_555
C3 C4 1_555 1_555
C4 C5 1_555 1_555
C5 H5 1_555 1_555
C6 N1 1_555 1_555
C7 C6 1_555 1_555
C8 C7 1_555 1_555
H1 C3 1_555 1_555
H2 C3 1_555 1_555
H3 C4 1_555 1_555
H4 C4 1_555 1_555
H6 C5 1_555 1_555
H7 C5 1_555 1_555
H8 C6 1_555 1_555
H9 C6 1_555 1_555
H10 C7 1_555 1_555
H11 C7 1_555 1_555
H12 C8 1_555 1_555
H13 C8 1_555 1_555
H14 C8 1_555 1_555
O1A Mn1 1_555 1_555
O2A Mn1 1_555 1_555
O1C Mn1 1_555 1_555
O2C Mn1 1_555 1_555
O3A Cr1 1_555 1_555
C2A O3A 1_555 1_555
O2_2 C2A 1_555 1_555
Mn1_2 O2_2 1_555 1_555
C1A C2A 1_555 1_555
O1_2 Mn1_2 1_555 1_555
O4A Cr1 1_555 1_555
O3C Cr1 1_555 1_555
C2C O3C 1_555 1_555
O2A_2 C2C 1_555 1_555
Mn1A O2A_2 1_555 1_555
O1A_2 Mn1A 1_555 1_555
C1C C2C 1_555 1_555
O4C Cr1 1_555 1_555
C3A N1 1_555 1_555
C4A C3A 1_555 1_555
C5A C4A 1_555 1_555
H5A C5A 1_555 1_555
H6A C5A 1_555 1_555
H7A C5A 1_555 1_555
H3A C4A 1_555 1_555
H4A C4A 1_555 1_555
H1A C3A 1_555 1_555
H2A C3A 1_555 1_555
C3C N1 1_555 1_555
C4C C3C 1_555 1_555
C5C C4C 1_555 1_555
H5C C5C 1_555 1_555
H6C C5C 1_555 1_555
H7C C5C 1_555 1_555
H3C C4C 1_555 1_555
H4C C4C 1_555 1_555
H1C C3C 1_555 1_555
H2C C3C 1_555 1_555
C6A N1 1_555 1_555
C6C N1 1_555 1_555
C7C C6 1_555 1_555
C7A C6 1_555 1_555
C8C C8 1_555 1_555
H8A C6 1_555 1_555
H8C C6 1_555 1_555
H9A C6 1_555 1_555
C8A C7 1_555 1_555
H9C C6 1_555 1_555
H10A C7A 1_555 1_555
H11A C7A 1_555 1_555
H10C C7C 1_555 1_555
H11C C7C 1_555 1_555
H12A H14 1_555 1_555
H14C C8 1_555 1_555
H12C C8C 1_555 1_555
H14A C8 1_555 1_555
H13A C8 1_555 1_555
H13C H14 1_555 1_555
C1 O1C 1_555 1_555
C2 O2C 1_555 1_555
C6 C6A 1_555 1_555
C6 C6C 1_555 1_555
C7 C6A 1_555 1_555
C7 C7C 1_555 1_555
C7 C6C 1_555 1_555
C7 C7A 1_555 1_555
C7 H8A 1_555 1_555
C7 H9C 1_555 1_555
C8 C7C 1_555 1_555
C8 C8A 1_555 1_555
H8 C7C 1_555 1_555
H8 C6C 1_555 1_555
H8 C6A 1_555 1_555
H8 H9A 1_555 1_555
H9 C6A 1_555 1_555
H9 C6C 1_555 1_555
H9 C7A 1_555 1_555
H9 H8C 1_555 1_555
H12 H14C 1_555 1_555
H13 C8C 1_555 1_555
H13 H14A 1_555 1_555
H14 C8C 1_555 1_555
H14 C8A 1_555 1_555
C1A O1_2 1_555 1_555
C1A O4A 1_555 1_555
O1A_2 C1C 1_555 1_555
C1C O4C 1_555 1_555
C6A H8C 1_555 1_555
C6A H9A 1_555 1_555
C6A H9C 1_555 1_555
C6A C6C 1_555 1_555
C6A C7A 1_555 1_555
C6A C7C 1_555 1_555
C6A H8A 1_555 1_555
C6C C7C 1_555 1_555
C6C C7A 1_555 1_555
C6C H8C 1_555 1_555
C6C H9A 1_555 1_555
C6C H8A 1_555 1_555
C6C H9C 1_555 1_555
C7C C8C 1_555 1_555
C7C C7A 1_555 1_555
C7C H9A 1_555 1_555
C7A C8C 1_555 1_555
C7A C8A 1_555 1_555
C7A H8C 1_555 1_555
C8C H13C 1_555 1_555
C8C C8A 1_555 1_555
C8C H14C 1_555 1_555
C8C H14A 1_555 1_555
H8A H9C 1_555 1_555
C8A H12A 1_555 1_555
C8A H13A 1_555 1_555
C8A H14A 1_555 1_555
C8A H13C 1_555 1_555
C8A H14C 1_555 1_555
H14C H13A 1_555 1_555
H12C H14A 1_555 1_555

#END
