
#######################################################################
#
#                 Cambridge Crystallographic Data Centre
#                                CCDC 
#
#######################################################################
#
# If this CIF has been generated from an entry in the Cambridge 
# Structural Database, then it will include bibliographic, chemical, 
# crystal, experimental, refinement or atomic coordinate data resulting 
# from the CCDC's data processing and validation procedures.
#
#######################################################################

data_RUPBEJ01
_symmetry_cell_setting           rhombohedral
_symmetry_space_group_name_H-M   'R 3 c'
_symmetry_Int_Tables_number      161
_space_group_name_Hall           'R 3 -2"c'
loop_
_symmetry_equiv_pos_site_id
_symmetry_equiv_pos_as_xyz
1 x,y,z
2 -y,x-y,z
3 -y,-x,1/2+z
4 -x+y,-x,z
5 x,x-y,1/2+z
6 -x+y,y,1/2+z
7 1/3+x,2/3+y,2/3+z
8 1/3-y,2/3+x-y,2/3+z
9 1/3-y,2/3-x,1/6+z
10 1/3-x+y,2/3-x,2/3+z
11 1/3+x,2/3+x-y,1/6+z
12 1/3-x+y,2/3+y,1/6+z
13 2/3+x,1/3+y,1/3+z
14 2/3-y,1/3+x-y,1/3+z
15 2/3-y,1/3-x,5/6+z
16 2/3-x+y,1/3-x,1/3+z
17 2/3+x,1/3+x-y,5/6+z
18 2/3-x+y,1/3+y,5/6+z
_cell_length_a                   9.350(2)
_cell_length_b                   9.350(2)
_cell_length_c                   49.12(1)
_cell_angle_alpha                90
_cell_angle_beta                 90
_cell_angle_gamma                120
_cell_volume                     3718.88
loop_
_atom_site_label
_atom_site_type_symbol
_atom_site_fract_x
_atom_site_fract_y
_atom_site_fract_z
N1 N 0.0000 0.0000 0.1041(5)
C3 C 0.0000 0.0000 0.1340(7)
C4 C 0.024(10) 0.1126(65) 0.1568(9)
C5 C -0.0446(65) 0.0093(74) 0.1823(8)
C6 C -0.1092(59) -0.1646(51) 0.0914(13)
C7 C -0.2851(60) -0.2246(57) 0.0929(11)
C8 C -0.3931(61) -0.4000(53) 0.0860(13)
C4A C -0.1126(65) -0.089(12) 0.1568(9)
C4C C 0.089(12) -0.024(10) 0.1568(9)
C5C C 0.0539(98) 0.0446(65) 0.1823(8)
C5A C -0.0093(74) -0.0539(98) 0.1823(8)
C6A C 0.1646(51) 0.0554(78) 0.0914(13)
C7A C 0.2246(57) -0.0605(83) 0.0929(11)
C8A C 0.4000(53) 0.0069(81) 0.0860(13)
C6C C -0.0554(78) 0.1092(59) 0.0914(13)
C7C C 0.0605(83) 0.2851(60) 0.0929(11)
C8C C -0.0069(81) 0.3931(61) 0.0860(13)
Cr1 Cr 1.0000 0.0000 -0.0009(1)
Mn1 Mn 1.3334 0.6667 0.0009(1)
O1 O 1.0069(14) 0.8211(14) 0.0216(2)
O2 O 1.0162(18) 0.1790(13) -0.0222(2)
O3 O 1.1421(15) 0.6895(15) 0.0229(2)
O4 O 0.5374(18) -0.3021(18) -0.0232(2)
C1 C 1.1139(18) 0.7917(22) 0.0124(3)
C2 C 1.1163(25) 0.3235(24) -0.0140(2)
Cr1_2 Cr 1.0000 1.0000 -0.0009(1)
O3A O 1.3105(15) 0.4526(21) 0.0229(2)
C1A C 1.2083(22) 0.3222(28) 0.0124(3)
O1A O 1.1789(14) 0.1858(20) 0.0216(2)
O1C O 0.8142(20) -0.0069(14) 0.0216(2)
C1C C 0.6778(28) -0.1139(18) 0.0124(3)
O3C O 0.5474(21) -0.1421(15) 0.0229(2)
Mn1_2 Mn 0.3334 -0.3333 0.0009(1)
C2A C 0.6765(24) -0.2072(35) -0.0140(2)
O2A O 0.8210(13) -0.1628(22) -0.0222(2)
O1_2 O 1.0069(14) -0.1789(14) 0.0216(2)
O2C O 1.1628(22) -0.0162(18) -0.0222(2)
O4C O 1.1605(25) 0.4626(18) -0.0232(2)
O3C_2 O 1.5474(21) 0.8579(15) 0.0229(2)
O4A O 1.3021(18) 0.8395(25) -0.0232(2)
C2C C 1.2072(35) 0.8837(25) -0.0140(2)
O2C_2 O 1.1628(22) 0.9838(18) -0.0222(2)
O4_2 O 1.5374(18) 0.6979(18) -0.0232(2)
loop_
_geom_bond_atom_site_label_1
_geom_bond_atom_site_label_2
_geom_bond_site_symmetry_1
_geom_bond_site_symmetry_2
Cr1 O2 1_555 1_555
Mn1 O3 1_555 1_555
O1 C1 1_555 1_555
O2 C2 1_555 1_555
O3 C1 1_555 1_555
O4 Mn1_2 1_555 1_555
C1 C2C 1_555 1_555
C2 C1A 1_555 1_555
N1 C3 1_555 1_555
C3 C4 1_555 1_555
C4 C5 1_555 1_555
C5 C4A 1_555 1_555
C6 N1 1_555 1_555
C7 C6 1_555 1_555
C8 C7 1_555 1_555
Cr1_2 O1 1_555 1_555
O3A Mn1 1_555 1_555
C1A O3A 1_555 1_555
O1A Cr1 1_555 1_555
O1C Cr1 1_555 1_555
C1C O1C 1_555 1_555
O3C C1C 1_555 1_555
Mn1_2 O3C 1_555 1_555
C2A O4 1_555 1_555
O2A Cr1 1_555 1_555
O1_2 Cr1 1_555 1_555
O2C Cr1 1_555 1_555
O4C Mn1 1_555 1_555
O3C_2 Mn1 1_555 1_555
O4A Mn1 1_555 1_555
C2C O4A 1_555 1_555
O2C_2 Cr1_2 1_555 1_555
O4_2 Mn1 1_555 1_555
C4A C3 1_555 1_555
C4C C3 1_555 1_555
C5C C4 1_555 1_555
C5A C5 1_555 1_555
C6A N1 1_555 1_555
C7A C6A 1_555 1_555
C8A C7A 1_555 1_555
C6C N1 1_555 1_555
C7C C6C 1_555 1_555
C8C C7C 1_555 1_555
C2 O4C 1_555 1_555
C5 C5C 1_555 1_555
C1A O1A 1_555 1_555
C1C C2A 1_555 1_555
C2A O2A 1_555 1_555
C2C O2C_2 1_555 1_555
C4A C5A 1_555 1_555
C4C C5C 1_555 1_555
C4C C5A 1_555 1_555
C5C C5A 1_555 1_555

#END
