
#######################################################################
#
#                 Cambridge Crystallographic Data Centre
#                                CCDC 
#
#######################################################################
#
# If this CIF has been generated from an entry in the Cambridge 
# Structural Database, then it will include bibliographic, chemical, 
# crystal, experimental, refinement or atomic coordinate data resulting 
# from the CCDC's data processing and validation procedures.
#
#######################################################################

data_RUPKUK
_symmetry_cell_setting           monoclinic
_symmetry_space_group_name_H-M   'P 21/c'
_symmetry_Int_Tables_number      14
_space_group_name_Hall           '-P 2ybc'
loop_
_symmetry_equiv_pos_site_id
_symmetry_equiv_pos_as_xyz
1 x,y,z
2 -x,1/2+y,1/2-z
3 -x,-y,-z
4 x,1/2-y,1/2+z
_cell_length_a                   7.9910(9)
_cell_length_b                   17.8363(19)
_cell_length_c                   18.2004(17)
_cell_angle_alpha                90
_cell_angle_beta                 110.080(4)
_cell_angle_gamma                90
_cell_volume                     2436.42
loop_
_atom_site_label
_atom_site_type_symbol
_atom_site_fract_x
_atom_site_fract_y
_atom_site_fract_z
N1 N -0.0419(8) 0.4213(4) 0.2648(4)
I1 I 1.81898(8) 0.92264(4) -0.01654(4)
Zn1 Zn 1.11183(10) 0.81736(5) 0.21887(5)
O1 O 1.2076(7) 0.8146(3) 0.1348(3)
O2 O 1.4359(9) 0.8919(4) 0.1879(3)
O3 O 1.2814(6) 0.7368(3) -0.1924(3)
O4 O 1.0791(8) 0.7196(5) -0.1352(4)
N2 N 0.8939(8) 0.7532(4) 0.1735(4)
N3 N 0.6424(12) 0.6945(6) 0.1589(7)
N4 N 0.1035(15) 0.5152(6) 0.2349(8)
C1 C 1.3446(10) 0.8526(5) 0.1332(4)
C2 C 1.3889(9) 0.8452(4) 0.0598(4)
C3 C 1.2855(9) 0.8015(4) -0.0023(4)
H1 H 1.1831 0.7783 0.0000
C4 C 1.3348(9) 0.7923(4) -0.0679(4)
C5 C 1.4897(9) 0.8248(4) -0.0700(4)
H2 H 1.5270 0.8164 -0.1124
C6 C 1.5894(8) 0.8699(4) -0.0086(4)
C7 C 1.5401(9) 0.8805(5) 0.0555(4)
H3 H 1.6077 0.9113 0.0962
C8 C 1.2226(10) 0.7451(5) -0.1357(4)
C9 C 0.8425(13) 0.7175(5) 0.1036(5)
H4 H 0.9021 0.7189 0.0677
C10 C 0.6916(15) 0.6798(6) 0.0946(8)
H5 H 0.6307 0.6493 0.0525
C11 C 0.7694(12) 0.7366(6) 0.2049(6)
H6 H 0.7728 0.7532 0.2538
C12 C 0.4850(15) 0.6658(7) 0.1773(10)
H7 H 0.4578 0.7008 0.2124
H8 H 0.3828 0.6640 0.1293
C13 C 0.5120(16) 0.5922(8) 0.2128(10)
H9 H 0.6299 0.5900 0.2522
H10 H 0.5068 0.5551 0.1731
C14 C 0.3783(19) 0.5731(8) 0.2494(8)
H11 H 0.4217 0.5317 0.2854
H12 H 0.3609 0.6158 0.2790
C15 C 0.2100(18) 0.5528(11) 0.1905(9)
H13 H 0.2287 0.5186 0.1527
H14 H 0.1485 0.5969 0.1633
C16 C 0.0797(16) 0.4399(7) 0.2337(8)
H15 H 0.1409 0.4058 0.2136
C17 C -0.0846(13) 0.4865(5) 0.2929(6)
H16 H -0.1670 0.4915 0.3183
C18 C 0.0110(16) 0.5425(6) 0.2781(8)
H17 H 0.0129 0.5918 0.2949
N1A N 1.0419(8) 0.9213(4) 0.2352(4)
Zn1A Zn -0.11183(10) 0.31736(5) 0.28113(5)
Zn1C Zn 1.11183(10) 0.68264(5) -0.28113(5)
O3C O 1.2814(6) 0.7632(3) 0.3076(3)
O5 O 0.5858(16) 0.8685(8) 0.3524(8)
H18 H 0.5630 0.8831 0.3055
H19 H 0.5089 0.8356 0.3525
O6 O 0.916(2) 0.8651(9) 0.4505(9)
H20 H 0.8074 0.8686 0.4212
H21 H 0.9710 0.8395 0.4266
O7 O 0.348(4) 0.957(3) 0.450(3)
H22 H 0.4573 0.9573 0.4526
H23 H 0.3265 0.9142 0.4662
loop_
_geom_bond_atom_site_label_1
_geom_bond_atom_site_label_2
_geom_bond_site_symmetry_1
_geom_bond_site_symmetry_2
N1 C16 1_555 1_555
I1 C6 1_555 1_555
Zn1 O1 1_555 1_555
O1 C1 1_555 1_555
O2 C1 1_555 1_555
O3 C8 1_555 1_555
O4 C8 1_555 1_555
N2 Zn1 1_555 1_555
N3 C10 1_555 1_555
N4 C15 1_555 1_555
C1 C2 1_555 1_555
C2 C3 1_555 1_555
C3 H1 1_555 1_555
C4 C3 1_555 1_555
C5 C4 1_555 1_555
H2 C5 1_555 1_555
C6 C5 1_555 1_555
C7 C2 1_555 1_555
H3 C7 1_555 1_555
C8 C4 1_555 1_555
C9 N2 1_555 1_555
H4 C9 1_555 1_555
C10 C9 1_555 1_555
H5 C10 1_555 1_555
C11 N2 1_555 1_555
H6 C11 1_555 1_555
C12 N3 1_555 1_555
H7 C12 1_555 1_555
H8 C12 1_555 1_555
C13 C12 1_555 1_555
H9 C13 1_555 1_555
H10 C13 1_555 1_555
C14 C13 1_555 1_555
H11 C14 1_555 1_555
H12 C14 1_555 1_555
C15 C14 1_555 1_555
H13 C15 1_555 1_555
H14 C15 1_555 1_555
C16 N4 1_555 1_555
H15 C16 1_555 1_555
C17 N1 1_555 1_555
H16 C17 1_555 1_555
C18 N4 1_555 1_555
H17 C18 1_555 1_555
O5 H18 1_555 1_555
H19 O5 1_555 1_555
O6 H20 1_555 1_555
H21 O6 1_555 1_555
O7 H22 1_555 1_555
H23 O7 1_555 1_555
N1A Zn1 1_555 1_555
Zn1A N1 1_555 1_555
Zn1C O3 1_555 1_555
O3C Zn1 1_555 1_555
N3 C11 1_555 1_555
C6 C7 1_555 1_555
C17 C18 1_555 1_555

#END
