
#######################################################################
#
#                 Cambridge Crystallographic Data Centre
#                                CCDC 
#
#######################################################################
#
# If this CIF has been generated from an entry in the Cambridge 
# Structural Database, then it will include bibliographic, chemical, 
# crystal, experimental, refinement or atomic coordinate data resulting 
# from the CCDC's data processing and validation procedures.
#
#######################################################################

data_RUPKOE
_symmetry_cell_setting           orthorhombic
_symmetry_space_group_name_H-M   'P b c a'
_symmetry_Int_Tables_number      61
_space_group_name_Hall           '-P 2ac 2ab'
loop_
_symmetry_equiv_pos_site_id
_symmetry_equiv_pos_as_xyz
1 x,y,z
2 1/2-x,-y,1/2+z
3 1/2+x,1/2-y,-z
4 -x,1/2+y,1/2-z
5 -x,-y,-z
6 1/2+x,y,1/2-z
7 1/2-x,1/2+y,z
8 x,1/2-y,1/2+z
_cell_length_a                   10.2561(18)
_cell_length_b                   17.088(3)
_cell_length_c                   22.205(4)
_cell_angle_alpha                90
_cell_angle_beta                 90
_cell_angle_gamma                90
_cell_volume                     3891.56
loop_
_atom_site_label
_atom_site_type_symbol
_atom_site_fract_x
_atom_site_fract_y
_atom_site_fract_z
C1 C 0.8506(3) 0.9166(2) 1.18175(15)
C2 C 0.9742(3) 0.9168(2) 1.15662(15)
H1 H 1.0477 0.9141 1.1811
C3 C 0.9871(3) 0.92106(19) 1.09422(14)
C4 C 0.8763(3) 0.92868(18) 1.05877(15)
H2 H 0.8849 0.9329 1.0172
C5 C 0.7524(3) 0.93013(19) 1.08456(15)
C6 C 0.7400(3) 0.9227(2) 1.14659(15)
H3 H 0.6578 0.9218 1.1643
C7 C 1.1214(3) 0.9201(2) 1.06742(15)
C8 C 0.6334(3) 0.9411(2) 1.04572(16)
C9 C 0.4666(4) 0.8926(2) 0.89721(16)
H4 H 0.5134 0.9390 0.9000
C10 C 0.3419(4) 0.7963(2) 0.91757(18)
H5 H 0.2842 0.7635 0.9377
C11 C 0.3895(5) 0.7834(3) 0.86167(18)
H6 H 0.3723 0.7407 0.8370
C12 C 0.5522(4) 0.8536(3) 0.79539(16)
H7 H 0.6071 0.8076 0.7922
H8 H 0.6087 0.8986 0.8008
C13 C 0.4762(4) 0.8635(3) 0.73711(16)
H9 H 0.4290 0.9126 0.7378
H10 H 0.4135 0.8213 0.7329
C14 C 0.5704(4) 0.8625(3) 0.68407(16)
H11 H 0.6094 0.8108 0.6814
H12 H 0.6400 0.8995 0.6920
C15 C 0.5090(5) 0.8824(2) 0.62333(17)
H13 H 0.4634 0.9319 0.6268
H14 H 0.5778 0.8889 0.5938
C16 C 0.4461(4) 0.7479(2) 0.58625(17)
H15 H 0.5279 0.7251 0.5908
C17 C 0.2897(4) 0.8337(2) 0.58752(18)
H16 H 0.2422 0.8795 0.5927
C18 C 0.2445(4) 0.7658(2) 0.56463(18)
H17 H 0.1598 0.7571 0.5514
Co1 Co 0.34832(4) 0.90504(3) 1.02738(2)
I1 I 0.83171(3) 0.90762(2) 1.276244(11)
N1 N 0.3914(3) 0.86494(18) 0.94014(13)
N2 N 0.4677(3) 0.84554(18) 0.84876(13)
N3 N 0.4175(3) 0.82279(18) 0.60173(13)
N4 N 0.3438(3) 0.71137(18) 0.56400(13)
O1 O 1.2160(2) 0.94280(15) 1.09887(10)
O2 O 1.1367(2) 0.89564(14) 1.01441(10)
O3 O 0.5281(2) 0.91426(13) 1.06739(10)
O4 O 0.6458(2) 0.97368(14) 0.99589(10)
Co1_2 Co 1.34832(4) 0.90504(3) 1.02738(2)
Co1D Co 0.65168(4) 1.09496(3) 0.97262(2)
Co1G Co 0.34832(4) 0.59496(3) 0.52738(2)
N4G N 0.3438(3) 0.78863(18) 1.06400(13)
O1_2 O 0.2160(2) 0.94280(15) 1.09887(10)
O2_2 O 0.1367(2) 0.89564(14) 1.01441(10)
O4D O 0.3542(2) 1.02632(14) 1.00411(10)
loop_
_geom_bond_atom_site_label_1
_geom_bond_atom_site_label_2
_geom_bond_site_symmetry_1
_geom_bond_site_symmetry_2
C1 C2 1_555 1_555
C2 H1 1_555 1_555
C3 C2 1_555 1_555
C4 C3 1_555 1_555
H2 C4 1_555 1_555
C5 C4 1_555 1_555
C6 C1 1_555 1_555
H3 C6 1_555 1_555
C7 C3 1_555 1_555
C8 C5 1_555 1_555
C9 H4 1_555 1_555
C10 H5 1_555 1_555
C11 C10 1_555 1_555
H6 C11 1_555 1_555
C12 H7 1_555 1_555
H8 C12 1_555 1_555
C13 C12 1_555 1_555
H9 C13 1_555 1_555
H10 C13 1_555 1_555
C14 C13 1_555 1_555
H11 C14 1_555 1_555
H12 C14 1_555 1_555
C15 C14 1_555 1_555
H13 C15 1_555 1_555
H14 C15 1_555 1_555
C16 H15 1_555 1_555
C17 H16 1_555 1_555
C18 C17 1_555 1_555
H17 C18 1_555 1_555
Co1 N1 1_555 1_555
I1 C1 1_555 1_555
N1 C9 1_555 1_555
N2 C9 1_555 1_555
N3 C15 1_555 1_555
N4 C16 1_555 1_555
O1 C7 1_555 1_555
O2 C7 1_555 1_555
O3 C8 1_555 1_555
O4 C8 1_555 1_555
Co1_2 O1 1_555 1_555
Co1D O4 1_555 1_555
Co1G N4 1_555 1_555
N4G Co1 1_555 1_555
O1_2 Co1 1_555 1_555
O2_2 Co1 1_555 1_555
O4D Co1 1_555 1_555
C5 C6 1_555 1_555
C10 N1 1_555 1_555
C11 N2 1_555 1_555
C12 N2 1_555 1_555
C16 N3 1_555 1_555
C17 N3 1_555 1_555
C18 N4 1_555 1_555
Co1 O3 1_555 1_555
O2 Co1_2 1_555 1_555

#END
