
#######################################################################
#
#                 Cambridge Crystallographic Data Centre
#                                CCDC 
#
#######################################################################
#
# If this CIF has been generated from an entry in the Cambridge 
# Structural Database, then it will include bibliographic, chemical, 
# crystal, experimental, refinement or atomic coordinate data resulting 
# from the CCDC's data processing and validation procedures.
#
#######################################################################

data_RUPSUS
_symmetry_cell_setting           monoclinic
_symmetry_space_group_name_H-M   'P 21/n'
_symmetry_Int_Tables_number      14
_space_group_name_Hall           '-P 2yn'
loop_
_symmetry_equiv_pos_site_id
_symmetry_equiv_pos_as_xyz
1 x,y,z
2 1/2-x,1/2+y,1/2-z
3 -x,-y,-z
4 1/2+x,1/2-y,1/2+z
_cell_length_a                   15.3901(12)
_cell_length_b                   9.9023(8)
_cell_length_c                   21.9596(17)
_cell_angle_alpha                90
_cell_angle_beta                 105.911(3)
_cell_angle_gamma                90
_cell_volume                     3218.37
loop_
_atom_site_label
_atom_site_type_symbol
_atom_site_fract_x
_atom_site_fract_y
_atom_site_fract_z
C1 C 0.6660(3) 0.4384(5) 0.0107(2)
C2 C 0.7655(3) 0.4200(5) 0.0205(2)
C3 C 0.7960(3) 0.3094(5) -0.0074(2)
H1 H 0.7544 0.2469 -0.0300
C4 C 0.8869(3) 0.2911(5) -0.0019(2)
C5 C 0.9487(3) 0.3849(5) 0.0318(2)
H2 H 1.0100 0.3737 0.0358
C6 C 0.9194(3) 0.4938(5) 0.0591(2)
H3 H 0.9615 0.5564 0.0809
C7 C 0.8286(3) 0.5137(5) 0.0551(2)
C8 C 0.9198(4) 0.1679(5) -0.0276(2)
C9 C 0.8025(3) 0.6283(5) 0.0904(2)
C10 C 0.8308(3) 0.7584(5) 0.0837(2)
H4 H 0.8653 0.7752 0.0557
C11 C 0.8090(3) 0.8639(5) 0.1178(2)
H5 H 0.8291 0.9509 0.1130
C12 C 0.7570(3) 0.8397(5) 0.1592(2)
H6 H 0.7421 0.9108 0.1821
C13 C 0.7272(3) 0.7108(5) 0.1665(2)
C14 C 0.7510(3) 0.6068(4) 0.1319(2)
H7 H 0.7315 0.5196 0.1369
C15 C 0.6676(3) 0.6825(4) 0.2085(2)
C16 C 0.5886(3) 0.6060(4) 0.1868(2)
C17 C 0.5382(3) 0.5739(5) 0.2278(2)
H8 H 0.4871 0.5201 0.2134
C18 C 0.5611(3) 0.6189(4) 0.2894(2)
C19 C 0.6381(3) 0.6969(5) 0.3109(2)
H9 H 0.6541 0.7293 0.3523
C20 C 0.6909(3) 0.7265(5) 0.2713(2)
H10 H 0.7433 0.7770 0.2866
C21 C 0.5525(3) 0.5668(5) 0.1181(2)
C22 C 0.5030(3) 0.5827(5) 0.3315(2)
C23 C 0.4944(5) 0.1389(6) 0.1068(3)
H11 H 0.5309 0.1933 0.1381
C24 C 0.4110(4) 0.0697(6) 0.0172(3)
H12 H 0.3790 0.0660 -0.0254
C25 C 0.4161(6) -0.0297(7) 0.0611(6)
H13 H 0.3879 -0.1135 0.0537
C26 C 0.4894(9) -0.0554(10) 0.1787(5)
H14 H 0.5544 -0.0613 0.1961
H15 H 0.4656 -0.1466 0.1729
C27 C 0.4503(7) 0.0168(9) 0.2240(4)
C28 C 0.4535(9) 0.1898(11) 0.2978(5)
H16 H 0.4810 0.2665 0.3190
C29 C 0.4943(7) 0.1248(13) 0.2596(6)
H17 H 0.5510 0.1517 0.2570
C30 C 0.3755(8) 0.1493(9) 0.3068(4)
H18 H 0.3514 0.1948 0.3355
C31 C 0.3307(5) 0.0410(8) 0.2740(4)
C32 C 0.3669(5) -0.0222(6) 0.2316(3)
H19 H 0.3354 -0.0927 0.2073
C33 C 0.2454(5) -0.0117(9) 0.2872(4)
H20 H 0.2144 0.0622 0.3013
H21 H 0.2056 -0.0474 0.2484
C34 C 0.3344(4) -0.1999(7) 0.3499(3)
H22 H 0.3815 -0.1959 0.3310
C35 C 0.2128(4) -0.1528(8) 0.3725(3)
H23 H 0.1587 -0.1125 0.3738
C36 C 0.2538(4) -0.2574(7) 0.4075(3)
H24 H 0.2319 -0.3028 0.4373
N1 N 0.4618(3) 0.1752(4) 0.0474(2)
N2 N 0.4685(6) 0.0141(6) 0.1165(4)
N3 N 0.2648(3) -0.1177(5) 0.3355(2)
N4 N 0.3310(3) -0.2873(4) 0.39311(19)
O1 O 0.6333(2) 0.5517(3) -0.00619(15)
O2 O 0.6226(2) 0.3361(3) 0.02003(16)
O3 O 0.8636(2) 0.0903(4) -0.06203(17)
O4 O 1.0042(2) 0.1443(3) -0.01365(15)
O5 O 0.4310(3) 0.5257(5) 0.31032(17)
O6 O 0.5306(2) 0.6147(4) 0.38921(15)
O7 O 0.5327(2) 0.4455(3) 0.10594(14)
O8 O 0.5425(2) 0.6615(3) 0.07862(14)
Zn1 Zn 0.48892(3) 0.35573(5) 0.01705(2)
Zn2 Zn 0.42830(4) 0.57505(6) 0.42421(3)
N4_2 N 0.3310(3) 0.7127(4) 0.39311(19)
O1B O 0.3667(2) 0.4483(3) 0.00619(15)
O3C O 0.3636(2) 0.4097(4) 0.43797(17)
O4A O 0.4958(2) 0.6443(3) 0.51365(15)
O8B O 0.4575(2) 0.3385(3) -0.07862(14)
Zn1B Zn 0.51108(3) 0.64427(5) -0.01705(2)
Zn2_2 Zn 0.42830(4) -0.42495(6) 0.42421(3)
Zn2A Zn 1.07170(4) 0.07505(6) 0.07579(3)
Zn2C Zn 0.92830(4) -0.07505(6) -0.07579(3)
loop_
_geom_bond_atom_site_label_1
_geom_bond_atom_site_label_2
_geom_bond_site_symmetry_1
_geom_bond_site_symmetry_2
C1 C2 1_555 1_555
C2 C3 1_555 1_555
C3 H1 1_555 1_555
C4 C3 1_555 1_555
C5 C4 1_555 1_555
H2 C5 1_555 1_555
C6 C5 1_555 1_555
H3 C6 1_555 1_555
C7 C2 1_555 1_555
C8 C4 1_555 1_555
C9 C7 1_555 1_555
C10 C9 1_555 1_555
H4 C10 1_555 1_555
C11 C10 1_555 1_555
H5 C11 1_555 1_555
C12 C11 1_555 1_555
H6 C12 1_555 1_555
C13 C12 1_555 1_555
C14 C9 1_555 1_555
H7 C14 1_555 1_555
C15 C13 1_555 1_555
C16 C15 1_555 1_555
C17 C16 1_555 1_555
H8 C17 1_555 1_555
C18 C17 1_555 1_555
C19 C18 1_555 1_555
H9 C19 1_555 1_555
C20 C15 1_555 1_555
H10 C20 1_555 1_555
C21 C16 1_555 1_555
C22 C18 1_555 1_555
C23 H11 1_555 1_555
C24 H12 1_555 1_555
C25 C24 1_555 1_555
H13 C25 1_555 1_555
C26 H14 1_555 1_555
H15 C26 1_555 1_555
C27 C26 1_555 1_555
C28 H16 1_555 1_555
C29 C27 1_555 1_555
H17 C29 1_555 1_555
C30 C28 1_555 1_555
H18 C30 1_555 1_555
C31 C30 1_555 1_555
C32 C27 1_555 1_555
H19 C32 1_555 1_555
C33 C31 1_555 1_555
H20 C33 1_555 1_555
H21 C33 1_555 1_555
C34 H22 1_555 1_555
C35 H23 1_555 1_555
C36 C35 1_555 1_555
H24 C36 1_555 1_555
N1 C23 1_555 1_555
N2 C23 1_555 1_555
N3 C33 1_555 1_555
N4 C34 1_555 1_555
O1 C1 1_555 1_555
O2 C1 1_555 1_555
O3 C8 1_555 1_555
O4 C8 1_555 1_555
O5 C22 1_555 1_555
O6 C22 1_555 1_555
O7 C21 1_555 1_555
O8 C21 1_555 1_555
Zn1 N1 1_555 1_555
Zn2 O5 1_555 1_555
N4_2 Zn2 1_555 1_555
O1B Zn1 1_555 1_555
O3C Zn2 1_555 1_555
O4A Zn2 1_555 1_555
O8B Zn1 1_555 1_555
Zn1B O1 1_555 1_555
Zn2_2 N4 1_555 1_555
Zn2A O4 1_555 1_555
Zn2C O3 1_555 1_555
C6 C7 1_555 1_555
C13 C14 1_555 1_555
C19 C20 1_555 1_555
C24 N1 1_555 1_555
C25 N2 1_555 1_555
C26 N2 1_555 1_555
C28 C29 1_555 1_555
C31 C32 1_555 1_555
C34 N3 1_555 1_555
C35 N3 1_555 1_555
C36 N4 1_555 1_555
O2 Zn1 1_555 1_555
O6 Zn2 1_555 1_555
O7 Zn1 1_555 1_555
O8 Zn1B 1_555 1_555

#END
