
#######################################################################
#
#                 Cambridge Crystallographic Data Centre
#                                CCDC 
#
#######################################################################
#
# If this CIF has been generated from an entry in the Cambridge 
# Structural Database, then it will include bibliographic, chemical, 
# crystal, experimental, refinement or atomic coordinate data resulting 
# from the CCDC's data processing and validation procedures.
#
#######################################################################

data_RUPSOM
_symmetry_cell_setting           monoclinic
_symmetry_space_group_name_H-M   'P 21/n'
_symmetry_Int_Tables_number      14
_space_group_name_Hall           '-P 2yn'
loop_
_symmetry_equiv_pos_site_id
_symmetry_equiv_pos_as_xyz
1 x,y,z
2 1/2-x,1/2+y,1/2-z
3 -x,-y,-z
4 1/2+x,1/2-y,1/2+z
_cell_length_a                   15.1215(13)
_cell_length_b                   10.2017(9)
_cell_length_c                   22.1609(19)
_cell_angle_alpha                90
_cell_angle_beta                 107.2813(18)
_cell_angle_gamma                90
_cell_volume                     3264.33
loop_
_atom_site_label
_atom_site_type_symbol
_atom_site_fract_x
_atom_site_fract_y
_atom_site_fract_z
Zn1 Zn 0.98519(4) 0.86162(5) 1.01493(2)
O1 O 0.9541(2) 0.8530(3) 0.91942(14)
O2 O 0.8626(2) 0.9587(3) 1.00210(16)
N1 N 0.9542(3) 0.6828(4) 1.03751(18)
O3 O 1.0317(2) 0.9379(3) 1.10524(15)
O4 O 1.1224(2) 0.8318(3) 1.02154(17)
C1 C 0.9468(3) 0.9456(5) 0.8812(2)
C2 C 0.8316(3) 1.0706(5) 0.9857(2)
C3 C 0.9961(4) 0.6312(5) 1.0931(3)
C4 C 0.9005(4) 0.5864(6) 1.0026(3)
C5 C 0.9100(3) 0.9099(5) 0.8120(2)
C6 C 0.7297(3) 1.0898(5) 0.9749(2)
N2 N 0.9714(4) 0.5056(4) 1.0955(3)
H1 H 1.0374 0.6759 1.1262
C7 C 0.9109(5) 0.4776(5) 1.0382(4)
H2 H 0.8629 0.5944 0.9611
C8 C 0.8274(4) 0.8389(5) 0.7881(2)
C9 C 0.9643(3) 0.9390(5) 0.7733(2)
C10 C 0.6634(3) 1.0012(5) 0.9397(2)
C11 C 0.7003(3) 1.1964(5) 1.0033(2)
C12 C 0.9970(6) 0.4234(7) 1.1518(4)
H3 H 0.8818 0.3975 1.0258
C13 C 0.8046(4) 0.7966(5) 0.7254(2)
C14 C 0.7646(4) 0.8144(5) 0.8275(2)
C15 C 0.9409(3) 0.8954(5) 0.7118(2)
H4 H 1.0176 0.9890 0.7892
C16 C 0.6880(3) 0.8920(5) 0.9027(2)
C17 C 0.5714(3) 1.0185(5) 0.9373(2)
C18 C 0.6083(3) 1.2140(5) 0.9995(2)
H5 H 0.7438 1.2571 1.0255
C19 C 0.9347(5) 0.4492(7) 1.1918(3)
H6 H 0.9927 0.3318 1.1395
H7 H 1.0607 0.4412 1.1761
C20 C 0.8606(4) 0.8234(5) 0.6880(2)
H8 H 0.7503 0.7492 0.7085
C21 C 0.7300(4) 0.6894(5) 0.8316(3)
C22 C 0.7421(3) 0.9129(5) 0.8630(2)
C23 C 1.0021(4) 0.9288(5) 0.6714(2)
C24 C 0.6547(4) 0.7647(5) 0.9062(3)
H9 H 0.5273 0.9583 0.9153
C25 C 0.5443(3) 1.1228(5) 0.9667(2)
C26 C 0.5759(4) 1.3336(5) 1.0259(2)
C27 C 0.9608(5) 0.5368(8) 1.2422(4)
C28 C 0.8481(5) 0.3946(7) 1.1779(3)
H10 H 0.8444 0.7930 0.6466
H11 H 0.7434 0.6216 0.8077
C29 C 0.6761(4) 0.6651(5) 0.8708(3)
H12 H 0.7643 0.9970 0.8601
O5 O 1.0749(3) 0.9871(6) 0.6942(2)
O6 O 0.9757(3) 0.8945(4) 0.61441(16)
H13 H 0.6182 0.7474 0.9324
H14 H 0.4823 1.1323 0.9645
O7 O 0.6365(2) 1.4060(4) 1.06188(17)
O8 O 0.4912(2) 1.3596(3) 1.01097(15)
C30 C 0.9027(6) 0.5626(8) 1.2785(3)
H15 H 1.0180 0.5784 1.2516
C31 C 0.7904(5) 0.4205(7) 1.2148(3)
H16 H 0.8277 0.3392 1.1432
H17 H 0.6540 0.5809 0.8733
Zn2 Zn 1.07709(4) 0.93163(6) 0.57842(3)
H18 H 0.9206 0.6223 1.3116
C32 C 0.8184(5) 0.5003(7) 1.2659(3)
H19 H 0.7318 0.3827 1.2044
N3 N 1.1745(3) 0.7948(5) 0.6070(2)
C33 C 0.7613(5) 0.5140(7) 1.3106(3)
N4 N 0.7697(3) 0.3906(5) 1.3480(2)
H20 H 0.7832 0.5878 1.3386
H21 H 0.6970 0.5295 1.2870
C34 C 0.8345(4) 0.2994(7) 1.3545(3)
C35 C 0.7177(5) 0.3544(8) 1.3852(3)
H22 H 0.8805 0.3017 1.3345
C36 C 0.7525(5) 0.2422(8) 1.4128(3)
H23 H 0.6670 0.3994 1.3906
H24 H 0.7302 0.1960 1.4414
O3B O 0.9683(2) 1.0621(3) 0.89476(15)
O4B O 0.8776(2) 1.1682(3) 0.97846(17)
Zn1B Zn 1.01481(4) 1.13838(5) 0.98507(2)
Zn2C Zn 0.57709(4) 1.56837(6) 1.07842(3)
Zn2A Zn 0.42291(4) 1.43163(6) 0.92158(3)
O7C O 1.1365(2) 1.0940(4) 0.56188(17)
O8A O 1.0088(2) 0.8596(3) 0.48903(15)
N3B N 0.8255(3) 0.2052(5) 1.3930(2)
Zn2B Zn 0.92291(4) 0.06837(6) 1.42158(3)
loop_
_geom_bond_atom_site_label_1
_geom_bond_atom_site_label_2
_geom_bond_site_symmetry_1
_geom_bond_site_symmetry_2
Zn1 O1 1_555 1_555
O1 C1 1_555 1_555
O2 Zn1 1_555 1_555
N1 Zn1 1_555 1_555
O3 Zn1 1_555 1_555
O4 Zn1 1_555 1_555
C1 C5 1_555 1_555
C2 O2 1_555 1_555
C3 N1 1_555 1_555
C4 N1 1_555 1_555
C5 C8 1_555 1_555
C6 C2 1_555 1_555
N2 C3 1_555 1_555
H1 C3 1_555 1_555
C7 C4 1_555 1_555
H2 C4 1_555 1_555
C8 C13 1_555 1_555
C9 C5 1_555 1_555
C10 C6 1_555 1_555
C11 C6 1_555 1_555
C12 N2 1_555 1_555
H3 C7 1_555 1_555
C13 C20 1_555 1_555
C14 C8 1_555 1_555
C15 C9 1_555 1_555
H4 C9 1_555 1_555
C16 C10 1_555 1_555
C17 C10 1_555 1_555
C18 C11 1_555 1_555
H5 C11 1_555 1_555
C19 C12 1_555 1_555
H6 C12 1_555 1_555
H7 C12 1_555 1_555
C20 C15 1_555 1_555
H8 C13 1_555 1_555
C21 C14 1_555 1_555
C22 C14 1_555 1_555
C23 C15 1_555 1_555
C24 C16 1_555 1_555
H9 C17 1_555 1_555
C25 C17 1_555 1_555
C26 C18 1_555 1_555
C27 C19 1_555 1_555
C28 C19 1_555 1_555
H10 C20 1_555 1_555
H11 C21 1_555 1_555
C29 C21 1_555 1_555
H12 C22 1_555 1_555
O5 C23 1_555 1_555
O6 C23 1_555 1_555
H13 C24 1_555 1_555
H14 C25 1_555 1_555
O7 C26 1_555 1_555
O8 C26 1_555 1_555
C30 C27 1_555 1_555
H15 C27 1_555 1_555
C31 C28 1_555 1_555
H16 C28 1_555 1_555
H17 C29 1_555 1_555
Zn2 O6 1_555 1_555
H18 C30 1_555 1_555
C32 C30 1_555 1_555
H19 C31 1_555 1_555
N3 Zn2 1_555 1_555
C33 C32 1_555 1_555
N4 C33 1_555 1_555
H20 C33 1_555 1_555
H21 C33 1_555 1_555
C34 N4 1_555 1_555
C35 N4 1_555 1_555
H22 C34 1_555 1_555
C36 C35 1_555 1_555
H23 C35 1_555 1_555
H24 C36 1_555 1_555
O3B C1 1_555 1_555
O4B C2 1_555 1_555
Zn1B O3B 1_555 1_555
Zn2C O7 1_555 1_555
Zn2A O8 1_555 1_555
O7C Zn2 1_555 1_555
O8A Zn2 1_555 1_555
N3B C34 1_555 1_555
Zn2B N3B 1_555 1_555
N2 C7 1_555 1_555
C16 C22 1_555 1_555
C18 C25 1_555 1_555
C24 C29 1_555 1_555
C31 C32 1_555 1_555
C36 N3B 1_555 1_555
O4B Zn1B 1_555 1_555

#END
