
#######################################################################
#
#                 Cambridge Crystallographic Data Centre
#                                CCDC 
#
#######################################################################
#
# If this CIF has been generated from an entry in the Cambridge 
# Structural Database, then it will include bibliographic, chemical, 
# crystal, experimental, refinement or atomic coordinate data resulting 
# from the CCDC's data processing and validation procedures.
#
#######################################################################

data_RUPTAZ
_symmetry_cell_setting           monoclinic
_symmetry_space_group_name_H-M   'P 21/n'
_symmetry_Int_Tables_number      14
_space_group_name_Hall           '-P 2yn'
loop_
_symmetry_equiv_pos_site_id
_symmetry_equiv_pos_as_xyz
1 x,y,z
2 1/2-x,1/2+y,1/2-z
3 -x,-y,-z
4 1/2+x,1/2-y,1/2+z
_cell_length_a                   21.3597(15)
_cell_length_b                   10.7751(7)
_cell_length_c                   31.118(2)
_cell_angle_alpha                90
_cell_angle_beta                 92.635(2)
_cell_angle_gamma                90
_cell_volume                     7154.33
loop_
_atom_site_label
_atom_site_type_symbol
_atom_site_fract_x
_atom_site_fract_y
_atom_site_fract_z
C1 C 0.7170(3) 0.7690(5) 0.42661(17)
C2 C 0.7133(2) 0.7307(5) 0.38025(15)
C3 C 0.7637(2) 0.6726(5) 0.36295(17)
H1 H 0.7999 0.6587 0.3800
C4 C 0.7611(2) 0.6346(5) 0.32041(17)
H2 H 0.7954 0.5942 0.3094
C5 C 0.7080(2) 0.6561(4) 0.29402(15)
C6 C 0.6568(2) 0.7148(4) 0.31187(14)
C7 C 0.6596(2) 0.7515(4) 0.35437(14)
H3 H 0.6252 0.7904 0.3658
C8 C 0.5969(2) 0.7361(4) 0.28578(14)
C9 C 0.7081(2) 0.6223(5) 0.24726(16)
C10 C 0.7305(3) 0.5076(5) 0.23465(18)
H4 H 0.7440 0.4496 0.2552
C11 C 0.7325(3) 0.4805(6) 0.1913(2)
H5 H 0.7479 0.4040 0.1828
C12 C 0.7122(2) 0.5643(5) 0.16058(18)
H6 H 0.7141 0.5441 0.1316
C13 C 0.6889(2) 0.6789(5) 0.17231(16)
C14 C 0.6879(2) 0.7068(5) 0.21600(15)
H7 H 0.6734 0.7840 0.2244
C15 C 0.6674(2) 0.7716(5) 0.13918(15)
C16 C 0.7049(3) 0.7956(6) 0.10477(17)
H8 H 0.7412 0.7493 0.1018
C17 C 0.6896(3) 0.8864(6) 0.07487(17)
H9 H 0.7148 0.8992 0.0517
C18 C 0.6370(3) 0.9581(6) 0.07935(17)
C19 C 0.5989(3) 0.9354(5) 0.11316(16)
H10 H 0.5633 0.9837 0.1162
C20 C 0.6128(2) 0.8420(5) 0.14261(15)
C21 C 0.6243(4) 1.0718(8) 0.0514(2)
C22 C 0.5665(2) 0.8188(5) 0.17666(15)
C23 C 0.4338(2) 0.7001(5) 0.30403(15)
C24 C 0.3998(2) 0.6795(4) 0.34473(15)
C25 C 0.4296(2) 0.6051(5) 0.37615(15)
H11 H 0.4663 0.5636 0.3701
C26 C 0.4050(2) 0.5925(5) 0.41623(16)
C27 C 0.3487(3) 0.6497(5) 0.42447(17)
H12 H 0.3310 0.6389 0.4510
C28 C 0.3188(3) 0.7228(5) 0.39327(16)
H13 H 0.2805 0.7591 0.3989
C29 C 0.3446(2) 0.7434(5) 0.35356(14)
C30 C 0.4430(3) 0.5322(6) 0.45207(17)
C31 C 0.3145(2) 0.8327(5) 0.32273(15)
C32 C 0.3089(2) 0.8117(4) 0.27858(14)
H14 H 0.3235 0.7373 0.2677
C33 C 0.2822(2) 0.8981(5) 0.25033(15)
C34 C 0.2616(3) 1.0103(5) 0.26667(17)
H15 H 0.2444 1.0703 0.2482
C35 C 0.2667(3) 1.0328(6) 0.31055(18)
H16 H 0.2526 1.1077 0.3213
C36 C 0.2924(2) 0.9455(5) 0.33817(16)
H17 H 0.2950 0.9616 0.3676
C37 C 0.2758(2) 0.8729(4) 0.20313(15)
C38 C 0.3252(2) 0.8248(4) 0.17977(14)
C39 C 0.3157(2) 0.7964(4) 0.13691(14)
H18 H 0.3488 0.7641 0.1220
C40 C 0.2585(2) 0.8145(4) 0.11524(14)
C41 C 0.2097(2) 0.8634(5) 0.13767(16)
H19 H 0.1708 0.8764 0.1237
C42 C 0.2186(2) 0.8930(5) 0.18092(16)
H20 H 0.1856 0.9272 0.1954
C43 C 0.2502(3) 0.7807(5) 0.06873(16)
C44 C 0.3900(2) 0.8082(4) 0.19986(14)
C45 C 0.4338(3) 1.0905(9) 0.4148(2)
H21 H 0.3942 1.0505 0.4185
H22 H 0.4617 1.0338 0.4015
H23 H 0.4277 1.1623 0.3968
C46 C 0.4613(3) 1.1290(6) 0.45751(18)
C47 C 0.4706(3) 1.1926(6) 0.52334(19)
H24 H 0.4606 1.2213 0.5504
C48 C 0.5285(3) 1.1704(6) 0.51090(19)
H25 H 0.5656 1.1800 0.5274
C49 C 0.5758(2) 1.1037(5) 0.44197(18)
H26 H 0.5641 1.0386 0.4216
H27 H 0.6112 1.0745 0.4598
C50 C 0.5944(2) 1.2190(5) 0.41780(17)
C51 C 0.6313(3) 1.3082(6) 0.43794(18)
H28 H 0.6471 1.2958 0.4659
C52 C 0.6447(3) 1.4170(6) 0.41619(19)
H29 H 0.6694 1.4776 0.4298
C53 C 0.6216(3) 1.4357(5) 0.37469(18)
H30 H 0.6308 1.5087 0.3603
C54 C 0.5848(3) 1.3463(5) 0.35435(16)
C55 C 0.5718(3) 1.2383(5) 0.37644(16)
H31 H 0.5471 1.1775 0.3629
C56 C 0.5599(3) 1.3709(5) 0.30873(18)
H32 H 0.5352 1.4464 0.3081
H33 H 0.5948 1.3830 0.2903
C57 C 0.4580(3) 1.2561(5) 0.29659(18)
H34 H 0.4311 1.3164 0.3066
C58 C 0.4423(3) 1.1412(5) 0.28375(17)
H35 H 0.4022 1.1076 0.2833
C59 C 0.5426(2) 1.1600(4) 0.27757(15)
C60 C 0.6092(3) 1.1342(5) 0.27064(19)
H36 H 0.6316 1.1257 0.2979
H37 H 0.6268 1.2015 0.2549
H38 H 0.6127 1.0587 0.2545
C61 C 0.4562(2) 0.3735(4) 0.19499(16)
C62 C 0.3883(3) 0.3907(5) 0.2002(2)
H39 H 0.3819 0.4583 0.2196
H40 H 0.3710 0.3161 0.2116
H41 H 0.3681 0.4089 0.1727
C63 C 0.5451(3) 0.2894(5) 0.17849(18)
H42 H 0.5748 0.2334 0.1692
C64 C 0.5561(2) 0.4050(5) 0.19246(17)
H43 H 0.5951 0.4434 0.1946
C65 C 0.4484(3) 0.1556(5) 0.16689(18)
H44 H 0.4156 0.1391 0.1866
H45 H 0.4773 0.0861 0.1683
C66 C 0.4196(3) 0.1662(5) 0.12155(17)
C67 C 0.3615(3) 0.1156(6) 0.1117(2)
H46 H 0.3395 0.0763 0.1329
C68 C 0.3362(4) 0.1231(7) 0.0704(2)
H47 H 0.2978 0.0855 0.0637
C69 C 0.3664(3) 0.1849(7) 0.0391(2)
H48 H 0.3479 0.1914 0.0115
C70 C 0.4244(3) 0.2378(5) 0.04845(17)
C71 C 0.4506(3) 0.2279(5) 0.08986(18)
H49 H 0.4896 0.2632 0.0964
C72 C 0.4610(3) 0.3042(7) 0.0151(2)
H50 H 0.4999 0.3346 0.0286
H51 H 0.4715 0.2455 -0.0070
C73 C 0.4071(4) 0.5311(7) 0.06158(19)
H52 H 0.3995 0.6172 0.0673
H53 H 0.4479 0.5083 0.0732
H54 H 0.3759 0.4814 0.0747
C74 C 0.4037(3) 0.5100(6) 0.01481(18)
C75 C 0.3851(3) 0.5326(7) -0.05351(19)
H55 H 0.3711 0.5660 -0.0798
C76 C 0.4148(3) 0.4248(7) -0.0483(2)
H56 H 0.4255 0.3703 -0.0700
N1 N 0.50014(18) 0.4582(4) 0.20308(12)
N2 N 0.4820(2) 0.2689(4) 0.18040(13)
N3 N 0.4267(2) 0.4094(5) -0.00514(15)
N4 N 0.3785(2) 0.5870(5) -0.01407(15)
N5 N 0.4282(2) 1.1668(5) 0.49021(15)
N6 N 0.5226(2) 1.1308(4) 0.46924(14)
N7 N 0.49561(18) 1.0809(4) 0.27128(12)
N8 N 0.5213(2) 1.2680(4) 0.29224(13)
O1 O 0.77007(19) 0.7889(5) 0.44353(13)
O2 O 0.66679(19) 0.7809(4) 0.44579(12)
O3 O 0.57799(16) 0.8467(3) 0.28382(11)
O4 O 0.57063(15) 0.6445(3) 0.26843(10)
O5 O 0.54828(16) 0.9120(3) 0.19710(11)
O6 O 0.54864(16) 0.7103(3) 0.18162(11)
O7 O 0.5871(4) 1.1460(8) 0.0610(3)
O8 O 0.6592(3) 1.0851(4) 0.02028(15)
O9 O 0.44250(16) 0.6067(3) 0.28080(11)
O10 O 0.45115(16) 0.8076(3) 0.29730(11)
O11 O 0.4961(2) 0.4915(6) 0.44248(13)
O12 O 0.4220(2) 0.5269(4) 0.48859(12)
O13 O 0.41549(15) 0.9027(3) 0.21660(11)
O14 O 0.41395(15) 0.7032(3) 0.19733(11)
O15 O 0.29904(18) 0.7511(4) 0.05020(11)
O16 O 0.19577(17) 0.7796(4) 0.05158(11)
Cl1 Cl 0.20671(9) 0.47757(18) 0.02153(6)
Zn1 Zn 0.49332(2) 0.63085(5) 0.226239(17)
Zn2 Zn 0.49821(2) 0.90414(5) 0.251272(17)
Zn3 Zn 0.16572(3) 0.66368(7) 0.005998(19)
Zn4 Zn 0.32972(3) 0.74113(7) -0.00699(2)
H57 H 0.518(2) 0.486(7) 0.4649(9)
N5A N 0.0718(2) 0.6668(5) 0.00979(15)
O1C O 0.27007(19) 0.7111(5) -0.05647(13)
O2C O 0.16679(19) 0.7191(4) -0.05421(12)
O8B O 0.3408(3) 0.9149(4) -0.02028(15)
Zn3A Zn 0.33428(3) 1.16368(7) 0.494002(19)
Zn3C Zn 0.66572(3) 0.83632(7) 0.505998(19)
Zn4B Zn 0.67028(3) 1.25887(7) 0.00699(2)
Zn4C Zn 0.82972(3) 0.75887(7) 0.49301(2)
O17 O 0.5429(7) 0.1090(13) 0.9523(5)
H58 H 0.5739(18) 0.148(5) 0.9610(18)
H59 H 0.526(3) 0.136(6) 0.9301(14)
loop_
_geom_bond_atom_site_label_1
_geom_bond_atom_site_label_2
_geom_bond_site_symmetry_1
_geom_bond_site_symmetry_2
C1 C2 1_555 1_555
C2 C3 1_555 1_555
C3 H1 1_555 1_555
C4 C3 1_555 1_555
H2 C4 1_555 1_555
C5 C4 1_555 1_555
C6 C5 1_555 1_555
C7 C2 1_555 1_555
H3 C7 1_555 1_555
C8 C6 1_555 1_555
C9 C5 1_555 1_555
C10 C9 1_555 1_555
H4 C10 1_555 1_555
C11 C10 1_555 1_555
H5 C11 1_555 1_555
C12 C11 1_555 1_555
H6 C12 1_555 1_555
C13 C12 1_555 1_555
C14 C9 1_555 1_555
H7 C14 1_555 1_555
C15 C13 1_555 1_555
C16 C15 1_555 1_555
H8 C16 1_555 1_555
C17 C16 1_555 1_555
H9 C17 1_555 1_555
C18 C17 1_555 1_555
C19 C18 1_555 1_555
H10 C19 1_555 1_555
C20 C15 1_555 1_555
C21 C18 1_555 1_555
C22 C20 1_555 1_555
C23 C24 1_555 1_555
C24 C25 1_555 1_555
C25 H11 1_555 1_555
C26 C25 1_555 1_555
C27 C26 1_555 1_555
H12 C27 1_555 1_555
C28 C27 1_555 1_555
H13 C28 1_555 1_555
C29 C24 1_555 1_555
C30 C26 1_555 1_555
C31 C29 1_555 1_555
C32 C31 1_555 1_555
H14 C32 1_555 1_555
C33 C32 1_555 1_555
C34 C33 1_555 1_555
H15 C34 1_555 1_555
C35 C34 1_555 1_555
H16 C35 1_555 1_555
C36 C31 1_555 1_555
H17 C36 1_555 1_555
C37 C33 1_555 1_555
C38 C37 1_555 1_555
C39 C38 1_555 1_555
H18 C39 1_555 1_555
C40 C39 1_555 1_555
C41 C40 1_555 1_555
H19 C41 1_555 1_555
C42 C37 1_555 1_555
H20 C42 1_555 1_555
C43 C40 1_555 1_555
C44 C38 1_555 1_555
C45 H21 1_555 1_555
H22 C45 1_555 1_555
H23 C45 1_555 1_555
C46 C45 1_555 1_555
C47 H24 1_555 1_555
C48 C47 1_555 1_555
H25 C48 1_555 1_555
C49 H26 1_555 1_555
H27 C49 1_555 1_555
C50 C49 1_555 1_555
C51 C50 1_555 1_555
H28 C51 1_555 1_555
C52 C51 1_555 1_555
H29 C52 1_555 1_555
C53 C52 1_555 1_555
H30 C53 1_555 1_555
C54 C53 1_555 1_555
C55 C50 1_555 1_555
H31 C55 1_555 1_555
C56 C54 1_555 1_555
H32 C56 1_555 1_555
H33 C56 1_555 1_555
C57 H34 1_555 1_555
C58 C57 1_555 1_555
H35 C58 1_555 1_555
C59 C60 1_555 1_555
C60 H36 1_555 1_555
H37 C60 1_555 1_555
H38 C60 1_555 1_555
C61 C62 1_555 1_555
C62 H39 1_555 1_555
H40 C62 1_555 1_555
H41 C62 1_555 1_555
C63 H42 1_555 1_555
C64 C63 1_555 1_555
H43 C64 1_555 1_555
C65 H44 1_555 1_555
H45 C65 1_555 1_555
C66 C65 1_555 1_555
C67 C66 1_555 1_555
H46 C67 1_555 1_555
C68 C67 1_555 1_555
H47 C68 1_555 1_555
C69 C68 1_555 1_555
H48 C69 1_555 1_555
C70 C69 1_555 1_555
C71 C66 1_555 1_555
H49 C71 1_555 1_555
C72 C70 1_555 1_555
H50 C72 1_555 1_555
H51 C72 1_555 1_555
C73 H52 1_555 1_555
H53 C73 1_555 1_555
H54 C73 1_555 1_555
C74 C73 1_555 1_555
C75 H55 1_555 1_555
C76 C75 1_555 1_555
H56 C76 1_555 1_555
N1 C61 1_555 1_555
N2 C61 1_555 1_555
N3 C72 1_555 1_555
N4 C74 1_555 1_555
N5 C46 1_555 1_555
N6 C46 1_555 1_555
N7 C58 1_555 1_555
N8 C56 1_555 1_555
O1 C1 1_555 1_555
O2 C1 1_555 1_555
O3 C8 1_555 1_555
O4 C8 1_555 1_555
O5 C22 1_555 1_555
O6 C22 1_555 1_555
O7 C21 1_555 1_555
O8 C21 1_555 1_555
O9 C23 1_555 1_555
O10 C23 1_555 1_555
O11 C30 1_555 1_555
O12 C30 1_555 1_555
O13 C44 1_555 1_555
O14 C44 1_555 1_555
O15 C43 1_555 1_555
O16 C43 1_555 1_555
Cl1 Zn3 1_555 1_555
Zn1 N1 1_555 1_555
Zn2 N7 1_555 1_555
Zn3 O16 1_555 1_555
Zn4 N4 1_555 1_555
H57 O11 1_555 1_555
O17 H58 1_555 1_555
H59 O17 1_555 1_555
N5A Zn3 1_555 1_555
O1C Zn4 1_555 1_555
O2C Zn3 1_555 1_555
O8B Zn4 1_555 1_555
Zn3A N5 1_555 1_555
Zn3C O2 1_555 1_555
Zn4B O8 1_555 1_555
Zn4C O1 1_555 1_555
C6 C7 1_555 1_555
C13 C14 1_555 1_555
C19 C20 1_555 1_555
C28 C29 1_555 1_555
C35 C36 1_555 1_555
C41 C42 1_555 1_555
C47 N5 1_555 1_555
C48 N6 1_555 1_555
C49 N6 1_555 1_555
C54 C55 1_555 1_555
C57 N8 1_555 1_555
C59 N7 1_555 1_555
C59 N8 1_555 1_555
C63 N2 1_555 1_555
C64 N1 1_555 1_555
C65 N2 1_555 1_555
C70 C71 1_555 1_555
C74 N3 1_555 1_555
C75 N4 1_555 1_555
C76 N3 1_555 1_555
O3 Zn2 1_555 1_555
O4 Zn1 1_555 1_555
O5 Zn2 1_555 1_555
O6 Zn1 1_555 1_555
O9 Zn1 1_555 1_555
O10 Zn2 1_555 1_555
O13 Zn2 1_555 1_555
O14 Zn1 1_555 1_555
O15 Zn4 1_555 1_555

#END
