
#######################################################################
#
#                 Cambridge Crystallographic Data Centre
#                                CCDC 
#
#######################################################################
#
# If this CIF has been generated from an entry in the Cambridge 
# Structural Database, then it will include bibliographic, chemical, 
# crystal, experimental, refinement or atomic coordinate data resulting 
# from the CCDC's data processing and validation procedures.
#
#######################################################################

data_RUPTED
_symmetry_cell_setting           orthorhombic
_symmetry_space_group_name_H-M   'P b c n'
_symmetry_Int_Tables_number      60
_space_group_name_Hall           '-P 2n 2ab'
loop_
_symmetry_equiv_pos_site_id
_symmetry_equiv_pos_as_xyz
1 x,y,z
2 1/2-x,1/2-y,1/2+z
3 -x,y,1/2-z
4 1/2+x,1/2-y,-z
5 -x,-y,-z
6 1/2+x,1/2+y,1/2-z
7 x,-y,1/2+z
8 1/2-x,1/2+y,z
_cell_length_a                   7.6681(8)
_cell_length_b                   31.909(3)
_cell_length_c                   15.4268(16)
_cell_angle_alpha                90
_cell_angle_beta                 90
_cell_angle_gamma                90
_cell_volume                     3774.65
loop_
_atom_site_label
_atom_site_type_symbol
_atom_site_fract_x
_atom_site_fract_y
_atom_site_fract_z
Cu1 Cu 0.08571(11) 0.06192(3) 0.32611(6)
Cu2 Cu 0.07830(11) 0.03422(3) 0.02995(6)
Cu3 Cu 0.24911(10) 0.22911(2) -0.12667(6)
I1 I 0.26207(6) 0.023765(14) 0.45058(3)
I2 I 0.25545(6) 0.047867(16) 0.17888(3)
C1 C 0.4834(9) 0.1695(2) -0.0704(5)
C2 C 0.3055(8) 0.1486(2) -0.0645(4)
C3 C 0.2803(8) 0.1081(2) -0.0351(5)
H1 H 0.3758 0.0924 -0.0170
C4 C -0.0121(9) 0.1142(2) -0.0608(5)
H2 H -0.1237 0.1028 -0.0612
C5 C 0.0125(9) 0.1550(2) -0.0898(5)
H3 H -0.0830 0.1706 -0.1084
C6 C 0.4867(9) 0.2057(2) 0.3609(6)
C7 C 0.3107(8) 0.1851(2) 0.3599(5)
C8 C 0.2862(9) 0.1420(2) 0.3503(5)
H4 H 0.3825 0.1244 0.3454
C9 C -0.0091(8) 0.15240(19) 0.3581(5)
H5 H -0.1219 0.1416 0.3584
C10 C 0.0139(9) 0.19504(19) 0.3679(5)
H6 H -0.0827 0.2124 0.3744
N1 N 0.1209(7) 0.09112(17) -0.0323(4)
N2 N 0.1712(7) 0.17226(16) -0.0912(4)
N3 N 0.1261(7) 0.12576(16) 0.3481(4)
N4 N 0.1743(7) 0.21159(16) 0.3681(4)
O1 O 0.4789(6) 0.20715(14) -0.1007(4)
O2 O 0.2551(7) 0.2187(2) -0.2691(4)
H7 H 0.2536 0.1926 -0.2796
H8 H 0.3489 0.2289 -0.2897
O3 O 0.6122(7) 0.15115(18) -0.0454(5)
O4 O 0.6189(7) 0.18490(18) 0.3555(6)
O5 O 0.4834(6) 0.24600(14) 0.3659(4)
Cu1B Cu -0.08571(11) 0.06192(3) 0.17389(6)
Cu2B Cu -0.07830(11) 0.03422(3) 0.47005(6)
Cu2F Cu 0.07830(11) -0.03422(3) 0.52995(6)
Cu3A Cu 0.25089(10) 0.27089(2) 0.37333(6)
I1B I -0.26207(6) 0.023765(14) 0.04942(3)
I1F I 0.26207(6) -0.023765(14) -0.04942(3)
I2B I -0.25545(6) 0.047867(16) 0.32112(3)
N4A N 0.3257(7) 0.28841(16) -0.1319(4)
O5A O 0.0166(6) 0.25400(14) -0.1341(4)
O6 O 0.5000 0.1052(10) -0.2500
H9 H 0.5684 0.0844 -0.2542
H9B H 0.4316 0.0844 -0.2458
loop_
_geom_bond_atom_site_label_1
_geom_bond_atom_site_label_2
_geom_bond_site_symmetry_1
_geom_bond_site_symmetry_2
Cu1 I1 1_555 1_555
Cu2 I2 1_555 1_555
Cu3 N2 1_555 1_555
I1 Cu2B 1_555 1_555
I2 Cu1 1_555 1_555
C1 C2 1_555 1_555
C2 C3 1_555 1_555
C3 H1 1_555 1_555
C4 H2 1_555 1_555
C5 C4 1_555 1_555
H3 C5 1_555 1_555
C6 C7 1_555 1_555
C7 C8 1_555 1_555
C8 H4 1_555 1_555
C9 H5 1_555 1_555
C10 C9 1_555 1_555
H6 C10 1_555 1_555
N1 Cu2 1_555 1_555
N2 C2 1_555 1_555
N3 Cu1 1_555 1_555
N4 C7 1_555 1_555
O1 Cu3 1_555 1_555
O2 Cu3 1_555 1_555
H7 O2 1_555 1_555
H8 O2 1_555 1_555
O3 C1 1_555 1_555
O4 C6 1_555 1_555
O5 C6 1_555 1_555
O6 H9 1_555 1_555
Cu1B I2 1_555 1_555
Cu2B I2B 1_555 1_555
Cu2F I1 1_555 1_555
Cu3A N4 1_555 1_555
I1B Cu2 1_555 1_555
I1F Cu2 1_555 1_555
I2B Cu1 1_555 1_555
N4A Cu3 1_555 1_555
O5A Cu3 1_555 1_555
H9B O6 1_555 1_555
C1 O1 1_555 1_555
C3 N1 1_555 1_555
C4 N1 1_555 1_555
C5 N2 1_555 1_555
C8 N3 1_555 1_555
C9 N3 1_555 1_555
C10 N4 1_555 1_555
O5 Cu3A 1_555 1_555
Cu1B I1B 1_555 1_555
Cu1B I2B 1_555 1_555

#END
