
#######################################################################
#
#                 Cambridge Crystallographic Data Centre
#                                CCDC 
#
#######################################################################
#
# If this CIF has been generated from an entry in the Cambridge 
# Structural Database, then it will include bibliographic, chemical, 
# crystal, experimental, refinement or atomic coordinate data resulting 
# from the CCDC's data processing and validation procedures.
#
#######################################################################

data_RUPVUV
_symmetry_cell_setting           monoclinic
_symmetry_space_group_name_H-M   'P 21/c'
_symmetry_Int_Tables_number      14
_space_group_name_Hall           '-P 2ybc'
loop_
_symmetry_equiv_pos_site_id
_symmetry_equiv_pos_as_xyz
1 x,y,z
2 -x,1/2+y,1/2-z
3 -x,-y,-z
4 x,1/2-y,1/2+z
_cell_length_a                   11.1209(5)
_cell_length_b                   28.4090(14)
_cell_length_c                   10.7889(5)
_cell_angle_alpha                90
_cell_angle_beta                 96.9478(14)
_cell_angle_gamma                90
_cell_volume                     3383.55
loop_
_atom_site_label
_atom_site_type_symbol
_atom_site_fract_x
_atom_site_fract_y
_atom_site_fract_z
C1 C 0.4714(6) 0.0965(3) 0.7534(7)
C2 C 0.4388(5) 0.1048(2) 0.6148(6)
C3 C 0.4943(6) 0.0778(2) 0.5321(6)
H1 H 0.5446 0.0531 0.5620
C4 C 0.4762(6) 0.0870(2) 0.4052(6)
C5 C 0.3968(6) 0.1226(2) 0.3615(6)
H2 H 0.3818 0.1286 0.2763
C6 C 0.3400(6) 0.1491(2) 0.4445(6)
H3 H 0.2872 0.1729 0.4139
C7 C 0.3596(6) 0.1412(2) 0.5734(6)
C8 C 0.5419(6) 0.0589(2) 0.3178(7)
C9 C 0.2950(6) 0.1703(2) 0.6576(6)
C10 C 0.2930(7) 0.2194(3) 0.6511(7)
H4 H 0.3351 0.2343 0.5929
C11 C 0.2315(7) 0.2459(3) 0.7269(7)
H5 H 0.2343 0.2786 0.7226
C12 C 0.1635(7) 0.2237(2) 0.8122(7)
H6 H 0.1197 0.2419 0.8625
C13 C 0.1612(6) 0.1753(2) 0.8219(6)
C14 C 0.2269(5) 0.1494(2) 0.7443(5)
H7 H 0.2257 0.1168 0.7500
C15 C 0.0795(6) 0.1509(2) 0.9014(6)
C16 C 0.1149(6) 0.1104(3) 0.9742(6)
C17 C 0.0297(6) 0.0861(2) 1.0340(6)
H8 H 0.0535 0.0601 1.0835
C18 C -0.0918(6) 0.1005(2) 1.0197(6)
C19 C -0.1253(6) 0.1404(3) 0.9489(6)
H9 H -0.2054 0.1506 0.9407
C20 C -0.0413(6) 0.1649(2) 0.8911(6)
H10 H -0.0657 0.1914 0.8441
C21 C -0.1838(6) 0.0706(2) 1.0742(6)
C22 C 0.2415(6) 0.0910(3) 0.9842(6)
C23 C 0.1839(8) 0.0407(3) 0.5029(8)
H11 H 0.2577 0.0337 0.4748
C24 C 0.0888(8) 0.0582(3) 0.4321(8)
H12 H 0.0834 0.0653 0.3475
C25 C 0.0435(7) 0.0489(2) 0.6228(7)
C26 C -0.0268(7) 0.0474(3) 0.7306(8)
H13 H -0.0476 0.0788 0.7527
H14 H 0.0210 0.0328 0.8003
H15 H -0.0995 0.0295 0.7089
C27 C -0.1179(8) 0.0839(3) 0.4735(8)
H16 H -0.1775 0.0657 0.5116
H17 H -0.1380 0.0819 0.3837
C28 C -0.2235(7) 0.1511(3) 0.5692(7)
H18 H -0.2842 0.1302 0.5847
C29 C -0.1247(7) 0.1345(3) 0.5134(7)
C30 C -0.0312(8) 0.1663(3) 0.5005(8)
H19 H 0.0387 0.1559 0.4698
C31 C -0.0416(8) 0.2124(3) 0.5323(9)
H20 H 0.0201 0.2333 0.5195
C32 C -0.1411(8) 0.2287(3) 0.5828(8)
H21 H -0.1465 0.2603 0.6040
C33 C -0.2332(7) 0.1981(3) 0.6020(8)
C34 C -0.3411(9) 0.2128(3) 0.6636(10)
H22 H -0.4123 0.1970 0.6224
H23 H -0.3297 0.2024 0.7498
C35 C -0.3056(9) 0.28937(17) 0.7607(7)
H24 H -0.2604 0.2783 0.8330
C36 C -0.3305(7) 0.3362(2) 0.7280(5)
H25 H -0.3016 0.3623 0.7744
C37 C -0.4263(7) 0.29179(16) 0.5731(6)
C38 C -0.4909(8) 0.2786(4) 0.4641(8)
H26 H -0.5753 0.2846 0.4677
H27 H -0.4790 0.2456 0.4507
H28 H -0.4640 0.2962 0.3966
Cd1 Cd 0.28760(5) 0.004949(18) 0.78334(6)
Cd2 Cd 0.51898(4) 0.096618(19) 1.01659(4)
N1 N 0.1588(5) 0.03428(19) 0.6240(6)
N2 N 0.0003(6) 0.0638(2) 0.5081(6)
N3 N -0.3632(6) 0.2624(2) 0.6613(6)
N4 N -0.4062(6) 0.33781(18) 0.6139(5)
O1 O 0.5297(6) 0.1271(2) 0.8159(5)
O2 O 0.4445(5) 0.0592(2) 0.8034(5)
O3 O 0.6253(6) 0.0333(3) 0.3637(6)
O4 O 0.5089(7) 0.0599(2) 0.2038(5)
O5 O 0.2540(5) 0.04818(19) 0.9584(5)
O6 O 0.3267(4) 0.1184(2) 1.0200(5)
O7 O -0.1494(5) 0.0472(2) 1.1694(5)
O8 O -0.2884(5) 0.0681(2) 1.0194(7)
O9 O 0.5000 0.0000 1.0000
H29 H 0.5407(2) -0.01846(11) 1.0461(4)
H29B H 0.4593(2) 0.01846(11) 0.9539(4)
C1B C -0.4714(6) -0.0965(3) 1.2466(7)
C2B C -0.4388(5) -0.1048(2) 1.3852(6)
C3B C -0.4943(6) -0.0778(2) 1.4679(6)
H1B H -0.5446 -0.0531 1.4380
C4B C -0.4762(6) -0.0870(2) 1.5948(6)
C5B C -0.3968(6) -0.1226(2) 1.6385(6)
H2B H -0.3818 -0.1286 1.7237
C6B C -0.3400(6) -0.1491(2) 1.5555(6)
H3B H -0.2872 -0.1729 1.5861
C7B C -0.3596(6) -0.1412(2) 1.4266(6)
C8B C -0.5419(6) -0.0589(2) 1.6822(7)
C9B C -0.2950(6) -0.1703(2) 1.3424(6)
C10B C -0.2930(7) -0.2194(3) 1.3489(7)
H4B H -0.3351 -0.2343 1.4071
C11B C -0.2315(7) -0.2459(3) 1.2731(7)
H5B H -0.2343 -0.2786 1.2774
C12B C -0.1635(7) -0.2237(2) 1.1878(7)
H6B H -0.1197 -0.2419 1.1375
C13B C -0.1612(6) -0.1753(2) 1.1781(6)
C14B C -0.2269(5) -0.1494(2) 1.2557(5)
H7B H -0.2257 -0.1168 1.2500
C15B C -0.0795(6) -0.1509(2) 1.0986(6)
C16B C -0.1149(6) -0.1104(3) 1.0258(6)
C17B C -0.0297(6) -0.0861(2) 0.9660(6)
H8B H -0.0535 -0.0601 0.9165
C18B C 0.0918(6) -0.1005(2) 0.9803(6)
C19B C 0.1253(6) -0.1404(3) 1.0511(6)
H9B H 0.2054 -0.1506 1.0593
C20B C 0.0413(6) -0.1649(2) 1.1089(6)
H10B H 0.0657 -0.1914 1.1559
C21B C 0.1838(6) -0.0706(2) 0.9258(6)
C22B C -0.2415(6) -0.0910(3) 1.0158(6)
C23B C -0.1839(8) -0.0407(3) 1.4971(8)
H11B H -0.2577 -0.0337 1.5252
C24B C -0.0888(8) -0.0582(3) 1.5679(8)
H12B H -0.0834 -0.0653 1.6525
C25B C -0.0435(7) -0.0489(2) 1.3772(7)
C26B C 0.0268(7) -0.0474(3) 1.2694(8)
H13B H 0.0476 -0.0788 1.2473
H14B H -0.0210 -0.0328 1.1997
H15B H 0.0995 -0.0295 1.2911
C27B C 0.1179(8) -0.0839(3) 1.5265(8)
H16B H 0.1775 -0.0657 1.4884
H17B H 0.1380 -0.0819 1.6163
C28B C 0.2235(7) -0.1511(3) 1.4308(7)
H18B H 0.2842 -0.1302 1.4153
C29B C 0.1247(7) -0.1345(3) 1.4866(7)
C30B C 0.0312(8) -0.1663(3) 1.4995(8)
H19B H -0.0387 -0.1559 1.5302
C31B C 0.0416(8) -0.2124(3) 1.4677(9)
H20B H -0.0201 -0.2333 1.4805
C32B C 0.1411(8) -0.2287(3) 1.4172(8)
H21B H 0.1465 -0.2603 1.3960
C33B C 0.2332(7) -0.1981(3) 1.3980(8)
C34B C 0.3411(9) -0.2128(3) 1.3364(10)
H22B H 0.4123 -0.1970 1.3776
H23B H 0.3297 -0.2024 1.2502
C35B C 0.3056(9) -0.28937(17) 1.2393(7)
H24B H 0.2604 -0.2783 1.1670
C36B C 0.3305(7) -0.3362(2) 1.2720(5)
H25B H 0.3016 -0.3623 1.2256
C37B C 0.4263(7) -0.29179(16) 1.4269(6)
C38B C 0.4909(8) -0.2786(4) 1.5359(8)
H26B H 0.5753 -0.2846 1.5323
H27B H 0.4790 -0.2456 1.5493
H28B H 0.4640 -0.2962 1.6034
Cd1B Cd -0.28760(5) -0.004949(18) 1.21666(6)
Cd2B Cd -0.51898(4) -0.096618(19) 0.98341(4)
N1B N -0.1588(5) -0.03428(19) 1.3760(6)
N2B N -0.0003(6) -0.0638(2) 1.4919(6)
N3B N 0.3632(6) -0.2624(2) 1.3387(6)
N4B N 0.4062(6) -0.33781(18) 1.3861(5)
O1B O -0.5297(6) -0.1271(2) 1.1841(5)
O2B O -0.4445(5) -0.0592(2) 1.1966(5)
O3B O -0.6253(6) -0.0333(3) 1.6363(6)
O4B O -0.5089(7) -0.0599(2) 1.7962(5)
O5B O -0.2540(5) -0.04818(19) 1.0416(5)
O6B O -0.3267(4) -0.1184(2) 0.9800(5)
O7B O 0.1494(5) -0.0472(2) 0.8306(5)
O8B O 0.2884(5) -0.0681(2) 0.9806(7)
Cd1_2 Cd -0.71240(5) 0.004949(18) 1.78334(6)
Cd1B_2 Cd 0.71240(5) -0.004949(18) 0.21666(6)
Cd2_2 Cd -0.48102(4) 0.096618(19) 1.01659(4)
Cd2_3 Cd 0.51898(4) 0.096618(19) 0.01659(4)
Cd2A Cd 0.48102(4) -0.403382(19) 1.48341(4)
Cd2B_2 Cd -0.51898(4) -0.096618(19) 1.98341(4)
Cd2B_3 Cd 0.48102(4) -0.096618(19) 0.98341(4)
Cd2C Cd -0.48102(4) 0.403382(19) 0.51659(4)
N4A N -0.5938(6) -0.16219(18) 0.8861(5)
N4C N 0.5938(6) 0.16219(18) 1.1139(5)
O3_2 O -0.3747(6) 0.0333(3) 1.3637(6)
O3B_2 O 0.3747(6) -0.0333(3) 0.6363(6)
O4_2 O 0.5089(7) 0.0599(2) 1.2038(5)
O4B_2 O -0.5089(7) -0.0599(2) 0.7962(5)
O8_2 O 0.7116(5) 0.0681(2) 1.0194(7)
O8B_2 O -0.7116(5) -0.0681(2) 0.9806(7)
O9_2 O -0.5000 0.0000 1.0000
O10 O 0.30063(13) 0.50469(5) 0.7217(3)
H30 H 0.35987(16) 0.48784(6) 0.7174(7)
H31 H 0.3031(5) 0.53015(8) 0.6863(5)
loop_
_geom_bond_atom_site_label_1
_geom_bond_atom_site_label_2
_geom_bond_site_symmetry_1
_geom_bond_site_symmetry_2
C1 C2 1_555 1_555
C2 C3 1_555 1_555
C3 H1 1_555 1_555
C4 C3 1_555 1_555
C5 C4 1_555 1_555
H2 C5 1_555 1_555
C6 C5 1_555 1_555
H3 C6 1_555 1_555
C7 C2 1_555 1_555
C8 C4 1_555 1_555
C9 C7 1_555 1_555
C10 C9 1_555 1_555
H4 C10 1_555 1_555
C11 C10 1_555 1_555
H5 C11 1_555 1_555
C12 C11 1_555 1_555
H6 C12 1_555 1_555
C13 C12 1_555 1_555
C14 C9 1_555 1_555
H7 C14 1_555 1_555
C15 C13 1_555 1_555
C16 C15 1_555 1_555
C17 C16 1_555 1_555
H8 C17 1_555 1_555
C18 C17 1_555 1_555
C19 C18 1_555 1_555
H9 C19 1_555 1_555
C20 C15 1_555 1_555
H10 C20 1_555 1_555
C21 C18 1_555 1_555
C22 C16 1_555 1_555
C23 H11 1_555 1_555
C24 C23 1_555 1_555
H12 C24 1_555 1_555
C25 C26 1_555 1_555
C26 H13 1_555 1_555
H14 C26 1_555 1_555
H15 C26 1_555 1_555
C27 H16 1_555 1_555
H17 C27 1_555 1_555
C28 H18 1_555 1_555
C29 C27 1_555 1_555
C30 C29 1_555 1_555
H19 C30 1_555 1_555
C31 C30 1_555 1_555
H20 C31 1_555 1_555
C32 C31 1_555 1_555
H21 C32 1_555 1_555
C33 C28 1_555 1_555
C34 C33 1_555 1_555
H22 C34 1_555 1_555
H23 C34 1_555 1_555
C35 H24 1_555 1_555
C36 C35 1_555 1_555
H25 C36 1_555 1_555
C37 C38 1_555 1_555
C38 H26 1_555 1_555
H27 C38 1_555 1_555
H28 C38 1_555 1_555
Cd1 N1 1_555 1_555
Cd2 O1 1_555 1_555
N1 C23 1_555 1_555
N2 C24 1_555 1_555
N3 C34 1_555 1_555
N4 C36 1_555 1_555
O1 C1 1_555 1_555
O2 C1 1_555 1_555
O3 C8 1_555 1_555
O4 C8 1_555 1_555
O5 C22 1_555 1_555
O6 C22 1_555 1_555
O7 C21 1_555 1_555
O8 C21 1_555 1_555
O9 Cd2 1_555 1_555
H29 O9 1_555 1_555
O10 H30 1_555 1_555
H31 O10 1_555 1_555
H29B O9 1_555 1_555
C1B C2B 1_555 1_555
C2B C3B 1_555 1_555
C3B H1B 1_555 1_555
C4B C3B 1_555 1_555
C5B C4B 1_555 1_555
H2B C5B 1_555 1_555
C6B C5B 1_555 1_555
H3B C6B 1_555 1_555
C7B C2B 1_555 1_555
C8B C4B 1_555 1_555
C9B C7B 1_555 1_555
C10B C9B 1_555 1_555
H4B C10B 1_555 1_555
C11B C10B 1_555 1_555
H5B C11B 1_555 1_555
C12B C11B 1_555 1_555
H6B C12B 1_555 1_555
C13B C12B 1_555 1_555
C14B C9B 1_555 1_555
H7B C14B 1_555 1_555
C15B C13B 1_555 1_555
C16B C15B 1_555 1_555
C17B C16B 1_555 1_555
H8B C17B 1_555 1_555
C18B C17B 1_555 1_555
C19B C18B 1_555 1_555
H9B C19B 1_555 1_555
C20B C15B 1_555 1_555
H10B C20B 1_555 1_555
C21B C18B 1_555 1_555
C22B C16B 1_555 1_555
C23B H11B 1_555 1_555
C24B C23B 1_555 1_555
H12B C24B 1_555 1_555
C25B C26B 1_555 1_555
C26B H13B 1_555 1_555
H14B C26B 1_555 1_555
H15B C26B 1_555 1_555
C27B H16B 1_555 1_555
H17B C27B 1_555 1_555
C28B H18B 1_555 1_555
C29B C27B 1_555 1_555
C30B C29B 1_555 1_555
H19B C30B 1_555 1_555
C31B C30B 1_555 1_555
H20B C31B 1_555 1_555
C32B C31B 1_555 1_555
H21B C32B 1_555 1_555
C33B C28B 1_555 1_555
C34B C33B 1_555 1_555
H22B C34B 1_555 1_555
H23B C34B 1_555 1_555
C35B H24B 1_555 1_555
C36B C35B 1_555 1_555
H25B C36B 1_555 1_555
C37B C38B 1_555 1_555
C38B H26B 1_555 1_555
H27B C38B 1_555 1_555
H28B C38B 1_555 1_555
Cd1B O7 1_555 1_555
Cd2B O1B 1_555 1_555
N1B C23B 1_555 1_555
N2B C24B 1_555 1_555
N3B C34B 1_555 1_555
N4B C36B 1_555 1_555
O1B C1B 1_555 1_555
O2B C1B 1_555 1_555
O3B C8B 1_555 1_555
O4B C8B 1_555 1_555
O5B C22B 1_555 1_555
O6B C22B 1_555 1_555
O7B Cd1 1_555 1_555
O8B C21B 1_555 1_555
Cd1_2 O3B 1_555 1_555
Cd1B_2 O3 1_555 1_555
Cd2_2 O8 1_555 1_555
Cd2_3 O4 1_555 1_555
Cd2A N4B 1_555 1_555
Cd2B_2 O4B 1_555 1_555
Cd2B_3 O9 1_555 1_555
Cd2C N4 1_555 1_555
N4A Cd2B 1_555 1_555
N4C Cd2 1_555 1_555
O3_2 Cd1B 1_555 1_555
O3B_2 Cd1 1_555 1_555
O4_2 Cd2 1_555 1_555
O4B_2 Cd2B 1_555 1_555
O8_2 Cd2 1_555 1_555
O8B_2 Cd2B 1_555 1_555
O9_2 Cd2B 1_555 1_555
C6 C7 1_555 1_555
C13 C14 1_555 1_555
C19 C20 1_555 1_555
C25 N1 1_555 1_555
C25 N2 1_555 1_555
C27 N2 1_555 1_555
C28 C29 1_555 1_555
C32 C33 1_555 1_555
C35 N3 1_555 1_555
C37 N3 1_555 1_555
C37 N4 1_555 1_555
Cd1 O2 1_555 1_555
Cd1 O5 1_555 1_555
Cd2 O2 1_555 1_555
Cd2 O6 1_555 1_555
C6B C7B 1_555 1_555
C13B C14B 1_555 1_555
C19B C20B 1_555 1_555
C21B O7B 1_555 1_555
C25B N1B 1_555 1_555
C25B N2B 1_555 1_555
C27B N2B 1_555 1_555
C28B C29B 1_555 1_555
C32B C33B 1_555 1_555
C35B N3B 1_555 1_555
C37B N3B 1_555 1_555
C37B N4B 1_555 1_555
Cd1B N1B 1_555 1_555
Cd1B O2B 1_555 1_555
Cd1B O5B 1_555 1_555
Cd2B O2B 1_555 1_555
Cd2B O6B 1_555 1_555
O8B Cd2B_3 1_555 1_555
Cd2_2 O9_2 1_555 1_555

#END
