
#######################################################################
#
#                 Cambridge Crystallographic Data Centre
#                                CCDC 
#
#######################################################################
#
# If this CIF has been generated from an entry in the Cambridge 
# Structural Database, then it will include bibliographic, chemical, 
# crystal, experimental, refinement or atomic coordinate data resulting 
# from the CCDC's data processing and validation procedures.
#
#######################################################################

data_RUPVOP
_symmetry_cell_setting           monoclinic
_symmetry_space_group_name_H-M   'P 21/c'
_symmetry_Int_Tables_number      14
_space_group_name_Hall           '-P 2ybc'
loop_
_symmetry_equiv_pos_site_id
_symmetry_equiv_pos_as_xyz
1 x,y,z
2 -x,1/2+y,1/2-z
3 -x,-y,-z
4 x,1/2-y,1/2+z
_cell_length_a                   11.0644(5)
_cell_length_b                   28.5964(13)
_cell_length_c                   10.4332(5)
_cell_angle_alpha                90
_cell_angle_beta                 96.5018(15)
_cell_angle_gamma                90
_cell_volume                     3279.85
loop_
_atom_site_label
_atom_site_type_symbol
_atom_site_fract_x
_atom_site_fract_y
_atom_site_fract_z
C1 C 0.2346(11) 0.0933(5) 0.4847(13)
C2 C 0.1026(13) 0.1107(5) 0.4680(13)
C3 C 0.0135(11) 0.0862(5) 0.5211(13)
H1 H 0.0362 0.0600 0.5711
C4 C -0.1061(12) 0.0984(5) 0.5040(13)
C5 C -0.1995(14) 0.0677(5) 0.5650(14)
C6 C -0.1429(12) 0.1366(5) 0.4351(14)
H2 H -0.2243 0.1454 0.4249
C7 C -0.0566(13) 0.1625(5) 0.3795(15)
H3 H -0.0814 0.1888 0.3311
C8 C 0.0672(12) 0.1502(5) 0.3944(13)
C9 C 0.1464(13) 0.2250(6) 0.2992(16)
H4 H 0.0995 0.2430 0.3488
C10 C 0.1512(12) 0.1759(5) 0.3145(14)
C11 C 0.2175(10) 0.1509(4) 0.2386(13)
H5 H 0.2184 0.1185 0.2464
C12 C 0.2856(13) 0.1715(5) 0.1481(14)
C13 C 0.2815(13) 0.2204(5) 0.1328(14)
H6 H 0.3245 0.2349 0.0723
C14 C 0.2135(14) 0.2463(6) 0.2081(15)
H7 H 0.2115 0.2787 0.1991
C15 C 0.3528(13) 0.1420(5) 0.0626(14)
C16 C 0.3364(14) 0.1444(5) -0.0704(14)
H8 H 0.2875 0.1685 -0.1065
C17 C 0.3845(13) 0.1152(5) -0.1539(15)
H9 H 0.3650 0.1174 -0.2428
C18 C 0.4655(13) 0.0815(5) -0.0967(14)
C19 C 0.4853(12) 0.0764(5) 0.0306(12)
H10 H 0.5371 0.0527 0.0637
C20 C 0.4331(11) 0.1045(5) 0.1152(14)
C21 C 0.5333(13) 0.0513(5) -0.1832(13)
C22 C 0.4682(12) 0.1010(5) 0.2565(15)
C23 C 1.1667(13) 0.4603(6) 0.5092(16)
H11 H 1.2347 0.4678 0.4685
C24 C 1.0603(17) 0.4455(6) 0.4541(17)
H12 H 1.0405 0.4415 0.3658
C25 C 1.0441(14) 0.4494(5) 0.6545(14)
H13 H 1.0110 0.4491 0.7325
C26 C 0.8618(14) 0.4223(5) 0.518(2)
H14 H 0.8130 0.4380 0.5759
H15 H 0.8299 0.4304 0.4299
C27 C 0.9458(15) 0.3375(6) 0.5140(16)
H16 H 1.0175 0.3491 0.4874
C28 C 0.8532(15) 0.3680(6) 0.5364(14)
C29 C 0.7511(13) 0.3490(5) 0.5742(17)
H17 H 0.6894 0.3691 0.5931
C30 C 0.7326(13) 0.2991(5) 0.5870(15)
C31 C 0.8282(13) 0.2705(6) 0.5631(16)
H18 H 0.8197 0.2382 0.5693
C32 C 0.9313(14) 0.2879(6) 0.5318(18)
H19 H 0.9956 0.2679 0.5210
C33 C 0.6129(15) 0.2835(6) 0.624(2)
H20 H 0.5953 0.3006 0.7002
H21 H 0.5498 0.2908 0.5549
C34 C 0.6734(16) 0.2098(9) 0.744(2)
H22 H 0.7272 0.2227 0.8097
C35 C 0.6482(19) 0.1656(7) 0.7286(19)
H23 H 0.6737 0.1424 0.7882
C36 C 0.5581(15) 0.2000(5) 0.5678(17)
H24 H 0.5136 0.2065 0.4887
Cd1 Cd 0.50474(9) 0.09325(4) 0.51965(11)
Cd2 Cd 0.29745(9) 0.00786(4) 0.29274(10)
N1 N 1.1562(10) 0.4621(4) 0.6401(11)
N2 N 0.9856(11) 0.4374(4) 0.5422(13)
N3 N 0.5804(11) 0.1576(5) 0.6152(12)
N4 N 0.6099(12) 0.2328(4) 0.6518(14)
O1 O 0.3158(8) 0.1242(4) 0.5212(10)
O2 O 0.2530(10) 0.0510(4) 0.4672(11)
O3 O -0.1610(10) 0.0476(4) 0.6692(10)
O4 O -0.3003(9) 0.0645(4) 0.5085(11)
O5 O 0.4522(8) 0.0637(3) 0.3153(9)
O6 O 0.5127(9) 0.1365(4) 0.3168(10)
O7 O 0.6230(9) 0.0272(4) -0.1270(10)
O8 O 0.5026(10) 0.0476(4) -0.3052(9)
Cd1_2 Cd -0.49526(9) 0.09325(4) 0.51965(11)
Cd1_3 Cd 0.50474(9) 0.09325(4) -0.48035(11)
Cd2B Cd -0.29745(9) -0.00786(4) 0.70726(10)
Cd2B_2 Cd 0.70255(9) -0.00786(4) -0.29274(10)
Cd2C Cd 1.29745(9) 0.49214(4) 0.79274(10)
N1C N 0.1562(10) 0.0379(4) 0.1401(11)
O3B O 0.1610(10) -0.0476(4) 0.3308(10)
O4_2 O 0.6997(9) 0.0645(4) 0.5085(11)
O7B O 0.3770(9) -0.0272(4) 0.1270(10)
O8_2 O 0.5026(10) 0.0476(4) 0.6948(9)
O8B O 0.4974(10) -0.0476(4) 0.3052(9)
O9 O 0.73190(15) 0.01541(9) 0.2673(7)
H25 H 0.80110(18) 0.0109(3) 0.3021(9)
H26 H 0.6863(4) -0.00719(19) 0.268(2)
loop_
_geom_bond_atom_site_label_1
_geom_bond_atom_site_label_2
_geom_bond_site_symmetry_1
_geom_bond_site_symmetry_2
C1 C2 1_555 1_555
C2 C3 1_555 1_555
C3 H1 1_555 1_555
C4 C3 1_555 1_555
C5 C4 1_555 1_555
C6 C4 1_555 1_555
H2 C6 1_555 1_555
C7 C6 1_555 1_555
H3 C7 1_555 1_555
C8 C2 1_555 1_555
C9 H4 1_555 1_555
C10 C8 1_555 1_555
C11 C10 1_555 1_555
H5 C11 1_555 1_555
C12 C11 1_555 1_555
C13 C12 1_555 1_555
H6 C13 1_555 1_555
C14 C9 1_555 1_555
H7 C14 1_555 1_555
C15 C12 1_555 1_555
C16 C15 1_555 1_555
H8 C16 1_555 1_555
C17 C16 1_555 1_555
H9 C17 1_555 1_555
C18 C17 1_555 1_555
C19 C18 1_555 1_555
H10 C19 1_555 1_555
C20 C15 1_555 1_555
C21 C18 1_555 1_555
C22 C20 1_555 1_555
C23 H11 1_555 1_555
C24 C23 1_555 1_555
H12 C24 1_555 1_555
C25 H13 1_555 1_555
C26 H14 1_555 1_555
H15 C26 1_555 1_555
C27 H16 1_555 1_555
C28 C26 1_555 1_555
C29 C28 1_555 1_555
H17 C29 1_555 1_555
C30 C29 1_555 1_555
C31 C30 1_555 1_555
H18 C31 1_555 1_555
C32 C27 1_555 1_555
H19 C32 1_555 1_555
C33 C30 1_555 1_555
H20 C33 1_555 1_555
H21 C33 1_555 1_555
C34 H22 1_555 1_555
C35 C34 1_555 1_555
H23 C35 1_555 1_555
C36 H24 1_555 1_555
Cd1 N3 1_555 1_555
Cd2 O2 1_555 1_555
N1 C23 1_555 1_555
N2 C24 1_555 1_555
N3 C35 1_555 1_555
N4 C33 1_555 1_555
O1 C1 1_555 1_555
O2 C1 1_555 1_555
O3 C5 1_555 1_555
O4 C5 1_555 1_555
O5 C22 1_555 1_555
O6 C22 1_555 1_555
O7 C21 1_555 1_555
O8 C21 1_555 1_555
O9 H25 1_555 1_555
H26 O9 1_555 1_555
Cd1_2 O4 1_555 1_555
Cd1_3 O8 1_555 1_555
Cd2B O3 1_555 1_555
Cd2B_2 O7 1_555 1_555
Cd2C N1 1_555 1_555
N1C Cd2 1_555 1_555
O3B Cd2 1_555 1_555
O4_2 Cd1 1_555 1_555
O7B Cd2 1_555 1_555
O8_2 Cd1 1_555 1_555
O8B Cd2 1_555 1_555
C7 C8 1_555 1_555
C9 C10 1_555 1_555
C13 C14 1_555 1_555
C19 C20 1_555 1_555
C25 N1 1_555 1_555
C25 N2 1_555 1_555
C26 N2 1_555 1_555
C27 C28 1_555 1_555
C31 C32 1_555 1_555
C34 N4 1_555 1_555
C36 N3 1_555 1_555
C36 N4 1_555 1_555
Cd1 O1 1_555 1_555
Cd1 O5 1_555 1_555
Cd1 O6 1_555 1_555
Cd2 O5 1_555 1_555
O8 Cd2B_2 1_555 1_555

#END
