
#######################################################################
#
#                 Cambridge Crystallographic Data Centre
#                                CCDC 
#
#######################################################################
#
# If this CIF has been generated from an entry in the Cambridge 
# Structural Database, then it will include bibliographic, chemical, 
# crystal, experimental, refinement or atomic coordinate data resulting 
# from the CCDC's data processing and validation procedures.
#
#######################################################################

data_RUPXEG
_symmetry_cell_setting           triclinic
_symmetry_space_group_name_H-M   'P -1'
_symmetry_Int_Tables_number      2
_space_group_name_Hall           '-P 1'
loop_
_symmetry_equiv_pos_site_id
_symmetry_equiv_pos_as_xyz
1 x,y,z
2 -x,-y,-z
_cell_length_a                   6.1867(12)
_cell_length_b                   7.8344(16)
_cell_length_c                   7.9649(16)
_cell_angle_alpha                88.83(3)
_cell_angle_beta                 84.09(3)
_cell_angle_gamma                77.54(3)
_cell_volume                     374.954
loop_
_atom_site_label
_atom_site_type_symbol
_atom_site_fract_x
_atom_site_fract_y
_atom_site_fract_z
Ag1 Ag 0.83031(5) 0.39268(4) 0.61182(3)
N1 N 0.6869(7) 0.6445(6) 1.3950(4)
N2 N 0.7664(7) 0.5131(6) 0.8514(5)
N3 N 0.6751(7) 0.7081(5) 1.0944(5)
N4 N 0.8957(6) 0.2168(4) 0.3957(4)
C1 C 0.6855(6) 0.6651(5) 1.2524(5)
C2 C 0.7278(6) 0.5953(5) 0.9723(5)
C3 C 0.9785(6) 0.0426(5) 0.0830(5)
C4 C 0.7354(7) 0.2209(6) 0.2947(6)
H1 H 0.5933 0.2842 0.3301
C5 C 0.7682(7) 0.1371(6) 0.1417(6)
H2 H 0.6497 0.1434 0.0772
C6 C 1.0962(7) 0.1231(5) 0.3420(5)
H3 H 1.2110 0.1175 0.4100
C7 C 1.1423(6) 0.0341(5) 0.1914(5)
H4 H 1.2844 -0.0324 0.1617
Ag1A Ag 1.16969(5) -0.39268(4) -0.61182(3)
Ag1A_2 Ag 1.16969(5) 0.60732(4) 0.38818(3)
Ag1_2 Ag 0.83031(5) -0.60732(4) -0.38818(3)
N1A N 1.3131(7) -0.6445(6) -1.3950(4)
N2A N 1.2336(7) -0.5131(6) -0.8514(5)
N3A N 1.3249(7) -0.7081(5) -1.0944(5)
N4A N 1.1043(6) -0.2168(4) -0.3957(4)
C1A C 1.3145(6) -0.6651(5) -1.2524(5)
C2A C 1.2722(6) -0.5953(5) -0.9723(5)
C3A C 1.0215(6) -0.0426(5) -0.0830(5)
C4A C 1.2646(7) -0.2209(6) -0.2947(6)
H1A H 1.4067 -0.2842 -0.3301
C5A C 1.2318(7) -0.1371(6) -0.1417(6)
H2A H 1.3503 -0.1434 -0.0772
C6A C 0.9038(7) -0.1231(5) -0.3420(5)
H3A H 0.7890 -0.1175 -0.4100
C7A C 0.8577(6) -0.0341(5) -0.1914(5)
H4A H 0.7156 0.0324 -0.1617
loop_
_geom_bond_atom_site_label_1
_geom_bond_atom_site_label_2
_geom_bond_site_symmetry_1
_geom_bond_site_symmetry_2
Ag1 N2 1_555 1_555
N1 C1 1_555 1_555
N2 C2 1_555 1_555
N3 C1 1_555 1_555
N4 Ag1 1_555 1_555
C2 N3 1_555 1_555
C3 C5 1_555 1_555
C4 N4 1_555 1_555
H1 C4 1_555 1_555
C5 C4 1_555 1_555
H2 C5 1_555 1_555
C6 N4 1_555 1_555
H3 C6 1_555 1_555
C7 C3 1_555 1_555
H4 C7 1_555 1_555
Ag1A Ag1_2 1_555 1_555
Ag1A_2 Ag1 1_555 1_555
N1A C1A 1_555 1_555
N2A Ag1A 1_555 1_555
N3A C1A 1_555 1_555
N4A Ag1A 1_555 1_555
C2A N2A 1_555 1_555
C3A C3 1_555 1_555
C4A N4A 1_555 1_555
H1A C4A 1_555 1_555
C5A C3A 1_555 1_555
H2A C5A 1_555 1_555
C6A N4A 1_555 1_555
H3A C6A 1_555 1_555
C7A C3A 1_555 1_555
H4A C7A 1_555 1_555
C6 C7 1_555 1_555
N3A C2A 1_555 1_555
C4A C5A 1_555 1_555
C6A C7A 1_555 1_555

#END
