
#######################################################################
#
#                 Cambridge Crystallographic Data Centre
#                                CCDC 
#
#######################################################################
#
# If this CIF has been generated from an entry in the Cambridge 
# Structural Database, then it will include bibliographic, chemical, 
# crystal, experimental, refinement or atomic coordinate data resulting 
# from the CCDC's data processing and validation procedures.
#
#######################################################################

data_RUPYEH
_symmetry_cell_setting           triclinic
_symmetry_space_group_name_H-M   'P -1'
_symmetry_Int_Tables_number      2
_space_group_name_Hall           '-P 1'
loop_
_symmetry_equiv_pos_site_id
_symmetry_equiv_pos_as_xyz
1 x,y,z
2 -x,-y,-z
_cell_length_a                   7.278(2)
_cell_length_b                   9.752(3)
_cell_length_c                   11.257(3)
_cell_angle_alpha                66.733(3)
_cell_angle_beta                 75.168(3)
_cell_angle_gamma                83.359(3)
_cell_volume                     709.438
loop_
_atom_site_label
_atom_site_type_symbol
_atom_site_fract_x
_atom_site_fract_y
_atom_site_fract_z
Co1 Co 1.0000 0.0000 0.5000
O1 O 0.8311(2) 0.19744(19) 0.45730(18)
O3 O 0.9191(3) 0.2866(2) 0.58976(19)
O4 O 0.3143(3) 0.2159(2) 0.82962(18)
O5 O 0.5304(3) 0.1042(2) 0.7189(2)
O6 O 0.8431(3) -0.0690(2) 0.69373(18)
H3 H 0.829(4) -0.163(2) 0.748(3)
H4 H 0.742(3) -0.024(3) 0.718(3)
O7 O 0.8063(3) -0.0969(2) 0.44473(18)
H5 H 0.705(3) -0.132(3) 0.504(3)
H6 H 0.876(4) -0.166(3) 0.425(3)
C9 C 0.8099(3) 0.2813(3) 0.5227(2)
C10 C 0.6437(3) 0.3901(3) 0.5118(2)
C11 C 0.4741(4) 0.3639(3) 0.6092(2)
C12 C 0.6677(4) 0.5255(3) 0.4034(3)
H18 H 0.7827 0.5429 0.3367
C13 C 0.4396(3) 0.2173(3) 0.7278(3)
Co1_2 Co 0.0000 1.0000 0.5000
O1A O 0.1689(2) 0.80256(19) 0.54270(18)
O1A_2 O 1.1689(2) -0.19744(19) 0.54270(18)
O3A O 0.0809(3) 0.7134(2) 0.41024(19)
O4A O 0.6857(3) 0.7841(2) 0.17038(18)
O5A O 0.4696(3) 0.8958(2) 0.2811(2)
O6A O 1.1569(3) 0.0690(2) 0.30627(18)
H3A H 1.171(4) 0.163(2) 0.252(3)
H4A H 1.258(3) 0.024(3) 0.282(3)
O7A O 1.1937(3) 0.0969(2) 0.55527(18)
H5A H 1.295(3) 0.132(3) 0.496(3)
H6A H 1.124(4) 0.166(3) 0.575(3)
C9A C 0.1901(3) 0.7187(3) 0.4773(2)
C10A C 0.3563(3) 0.6099(3) 0.4882(2)
C11A C 0.5259(4) 0.6361(3) 0.3908(2)
C12A C 0.3323(4) 0.4745(3) 0.5966(3)
H18A H 0.2173 0.4571 0.6633
C13A C 0.5604(3) 0.7827(3) 0.2722(3)
O2 O 0.4690(3) -0.1576(2) 0.6340(2)
H1 H 0.437(4) -0.070(3) 0.639(3)
H2 H 0.375(4) -0.178(4) 0.607(3)
N1 N 0.7991(3) -0.3648(3) 0.8552(2)
N2 N 0.8089(3) -0.9425(2) 1.0284(2)
H7 H 0.755(4) -1.033(2) 1.080(3)
C1 C 0.7611(4) -0.4408(3) 0.9870(3)
H8 H 0.7635 -0.3891 1.0426
C2 C 0.7185(4) -0.5911(3) 1.0460(3)
H9 H 0.6933 -0.6409 1.1399
C3 C 0.7131(4) -0.6683(3) 0.9661(3)
C4 C 0.7549(4) -0.5898(3) 0.8292(3)
H10 H 0.7544 -0.6384 0.7709
C5 C 0.7970(4) -0.4404(3) 0.7793(3)
H11 H 0.8261 -0.3883 0.6856
C6 C 0.6512(4) -0.8286(3) 1.0280(3)
H12 H 0.5805 -0.8497 1.1210
H13 H 0.5619 -0.8407 0.9798
C7 C 0.9515(4) -0.9366(3) 1.1004(3)
H14 H 0.8864 -0.9431 1.1912
H15 H 1.0192 -0.8407 1.0532
C8 C 0.9075(4) -0.9347(3) 0.8919(3)
H16 H 0.9749 -0.8389 0.8415
H17 H 0.8124 -0.9387 0.8443
N1A N 1.2009(3) -1.6352(3) 1.1448(2)
N2A N 1.1911(3) -1.0575(2) 0.9716(2)
H7A H 1.245(4) -0.967(2) 0.920(3)
C1A C 1.2389(4) -1.5592(3) 1.0130(3)
H8A H 1.2365 -1.6109 0.9574
C2A C 1.2815(4) -1.4089(3) 0.9540(3)
H9A H 1.3067 -1.3591 0.8601
C3A C 1.2869(4) -1.3317(3) 1.0339(3)
C4A C 1.2451(4) -1.4102(3) 1.1708(3)
H10A H 1.2456 -1.3616 1.2291
C5A C 1.2030(4) -1.5596(3) 1.2207(3)
H11A H 1.1739 -1.6117 1.3144
C6A C 1.3488(4) -1.1714(3) 0.9720(3)
H12A H 1.4195 -1.1503 0.8790
H13A H 1.4381 -1.1593 1.0202
C7A C 1.0485(4) -1.0634(3) 0.8996(3)
H14A H 1.1136 -1.0569 0.8088
H15A H 0.9808 -1.1593 0.9468
C8A C 1.0925(4) -1.0653(3) 1.1081(3)
H16A H 1.0251 -1.1611 1.1585
H17A H 1.1876 -1.0613 1.1557
loop_
_geom_bond_atom_site_label_1
_geom_bond_atom_site_label_2
_geom_bond_site_symmetry_1
_geom_bond_site_symmetry_2
Co1 O1 1_555 1_555
O1 C9 1_555 1_555
O2 H1 1_555 1_555
H2 O2 1_555 1_555
O3 C9 1_555 1_555
O4 C13 1_555 1_555
O5 C13 1_555 1_555
O6 Co1 1_555 1_555
H3 O6 1_555 1_555
H4 O6 1_555 1_555
O7 Co1 1_555 1_555
H5 O7 1_555 1_555
H6 O7 1_555 1_555
N1 C1 1_555 1_555
N2 H7 1_555 1_555
C1 H8 1_555 1_555
C2 C1 1_555 1_555
H9 C2 1_555 1_555
C3 C2 1_555 1_555
C4 C3 1_555 1_555
H10 C4 1_555 1_555
C5 N1 1_555 1_555
H11 C5 1_555 1_555
C6 N2 1_555 1_555
H12 C6 1_555 1_555
H13 C6 1_555 1_555
C7 N2 1_555 1_555
H14 C7 1_555 1_555
H15 C7 1_555 1_555
C8 N2 1_555 1_555
H16 C8 1_555 1_555
H17 C8 1_555 1_555
C9 C10 1_555 1_555
C10 C11 1_555 1_555
C11 C13 1_555 1_555
C12 C10 1_555 1_555
H18 C12 1_555 1_555
Co1_2 O1A 1_555 1_555
O1A C9A 1_555 1_555
O1A_2 Co1 1_555 1_555
O3A C9A 1_555 1_555
O4A C13A 1_555 1_555
O5A C13A 1_555 1_555
O6A Co1 1_555 1_555
H3A O6A 1_555 1_555
H4A O6A 1_555 1_555
O7A Co1 1_555 1_555
H5A O7A 1_555 1_555
H6A O7A 1_555 1_555
N1A C1A 1_555 1_555
N2A H7A 1_555 1_555
C1A H8A 1_555 1_555
C2A C1A 1_555 1_555
H9A C2A 1_555 1_555
C3A C2A 1_555 1_555
C4A C3A 1_555 1_555
H10A C4A 1_555 1_555
C5A N1A 1_555 1_555
H11A C5A 1_555 1_555
C6A N2A 1_555 1_555
H12A C6A 1_555 1_555
H13A C6A 1_555 1_555
C7A C8 1_555 1_555
H14A C7A 1_555 1_555
H15A C7A 1_555 1_555
C8A C7 1_555 1_555
H16A C8A 1_555 1_555
H17A C8A 1_555 1_555
C9A C10A 1_555 1_555
C10A C11A 1_555 1_555
C11A C12 1_555 1_555
C12A C11 1_555 1_555
H18A C12A 1_555 1_555
C13A C11A 1_555 1_555
C3 C6 1_555 1_555
C4 C5 1_555 1_555
N2A C7A 1_555 1_555
N2A C8A 1_555 1_555
C3A C6A 1_555 1_555
C4A C5A 1_555 1_555
C10A C12A 1_555 1_555

#END
