
#######################################################################
#
#                 Cambridge Crystallographic Data Centre
#                                CCDC 
#
#######################################################################
#
# If this CIF has been generated from an entry in the Cambridge 
# Structural Database, then it will include bibliographic, chemical, 
# crystal, experimental, refinement or atomic coordinate data resulting 
# from the CCDC's data processing and validation procedures.
#
#######################################################################

data_RUPYIL
_symmetry_cell_setting           monoclinic
_symmetry_space_group_name_H-M   'P 21/c'
_symmetry_Int_Tables_number      14
_space_group_name_Hall           '-P 2ybc'
loop_
_symmetry_equiv_pos_site_id
_symmetry_equiv_pos_as_xyz
1 x,y,z
2 -x,1/2+y,1/2-z
3 -x,-y,-z
4 x,1/2-y,1/2+z
_cell_length_a                   8.8982(8)
_cell_length_b                   14.0206(12)
_cell_length_c                   7.9040(7)
_cell_angle_alpha                90
_cell_angle_beta                 103.5790(10)
_cell_angle_gamma                90
_cell_volume                     958.524
loop_
_atom_site_label
_atom_site_type_symbol
_atom_site_fract_x
_atom_site_fract_y
_atom_site_fract_z
Cd1 Cd 0.5000 0.0000 0.0000
S1 S 0.66531(5) -0.14987(3) 0.37657(6)
O1 O 0.82779(17) -0.14754(12) 0.4616(2)
O2 O 0.63588(18) -0.11222(10) 0.19912(18)
O3 O 0.56583(19) -0.10570(11) 0.4753(2)
N1 N 0.27103(17) -0.44936(11) 0.55239(19)
N2 N 0.39614(17) -0.38760(10) 0.27413(19)
H1 H 0.4223 -0.4071 0.1750
C1 C 0.2308(2) -0.45602(15) 0.7058(2)
H2 H 0.2939 -0.4904 0.7957
C2 C 0.0990(2) -0.41350(17) 0.7341(3)
H3 H 0.0725 -0.4200 0.8406
C3 C 0.0077(2) -0.36148(18) 0.6025(3)
H4 H -0.0805 -0.3312 0.6196
C4 C 0.0478(2) -0.35429(16) 0.4439(3)
H5 H -0.0134 -0.3195 0.3532
C5 C 0.1807(2) -0.39991(13) 0.4222(2)
C6 C 0.2268(2) -0.39932(13) 0.2496(2)
H6 H 0.1948 -0.4587 0.1889
H7 H 0.1740 -0.3475 0.1783
C7 C 0.4384(2) -0.28571(13) 0.3023(2)
H8 H 0.3946 -0.2605 0.3945
H9 H 0.3952 -0.2501 0.1969
C8 C 0.6124(2) -0.27253(12) 0.3511(2)
H10 H 0.6565 -0.3004 0.2614
H11 H 0.6549 -0.3060 0.4591
Cd1A Cd 0.5000 -0.5000 0.5000
Cd1A_2 Cd 0.5000 0.5000 0.5000
S1A S 0.33469(5) 0.35013(3) 0.12343(6)
O1A O 0.17221(17) 0.35246(12) 0.0384(2)
O2A O 0.36412(18) 0.38778(10) 0.30088(18)
O2B O 0.36412(18) 0.11222(10) -0.19912(18)
O3A O 0.43417(19) 0.39430(11) 0.0247(2)
N1A N 0.72897(17) 0.05064(11) -0.05239(19)
N1C N 0.27103(17) -0.05064(11) 0.05239(19)
N2A N 0.60386(17) 0.11240(10) 0.22587(19)
N2C N 0.39614(17) -0.11240(10) -0.22587(19)
H1A H 0.5777 0.0929 0.3250
H1C H 0.4223 -0.0929 -0.3250
C1A C 0.7692(2) 0.04398(15) -0.2058(2)
H2A H 0.7061 0.0096 -0.2957
C2A C 0.9010(2) 0.08650(17) -0.2341(3)
H3A H 0.9275 0.0800 -0.3406
C3A C 0.9923(2) 0.13852(18) -0.1025(3)
H4A H 1.0805 0.1688 -0.1196
C4A C 0.9522(2) 0.14571(16) 0.0561(3)
H5A H 1.0134 0.1805 0.1468
C5A C 0.8193(2) 0.10009(13) 0.0778(2)
C6A C 0.7732(2) 0.10068(13) 0.2504(2)
H6A H 0.8052 0.0413 0.3111
H7A H 0.8260 0.1525 0.3217
C7A C 0.5616(2) 0.21429(13) 0.1977(2)
H8A H 0.6054 0.2395 0.1055
H9A H 0.6048 0.2499 0.3031
C8A C 0.3876(2) 0.22747(12) 0.1489(2)
H10A H 0.3435 0.1996 0.2386
H11A H 0.3451 0.1940 0.0409
loop_
_geom_bond_atom_site_label_1
_geom_bond_atom_site_label_2
_geom_bond_site_symmetry_1
_geom_bond_site_symmetry_2
Cd1 O2 1_555 1_555
S1 O1 1_555 1_555
O2 S1 1_555 1_555
O3 S1 1_555 1_555
N1 C1 1_555 1_555
N2 H1 1_555 1_555
C1 H2 1_555 1_555
C2 C1 1_555 1_555
H3 C2 1_555 1_555
C3 C2 1_555 1_555
H4 C3 1_555 1_555
C4 C3 1_555 1_555
H5 C4 1_555 1_555
C5 N1 1_555 1_555
C6 N2 1_555 1_555
H6 C6 1_555 1_555
H7 C6 1_555 1_555
C7 N2 1_555 1_555
H8 C7 1_555 1_555
H9 C7 1_555 1_555
C8 S1 1_555 1_555
H10 C8 1_555 1_555
H11 C8 1_555 1_555
Cd1A N1 1_555 1_555
Cd1A_2 O2A 1_555 1_555
S1A O1A 1_555 1_555
O2A S1A 1_555 1_555
O2B Cd1 1_555 1_555
O3A S1A 1_555 1_555
N1A Cd1 1_555 1_555
N1C Cd1 1_555 1_555
N2A Cd1 1_555 1_555
N2C Cd1 1_555 1_555
H1A N2A 1_555 1_555
H1C N2C 1_555 1_555
C1A N1A 1_555 1_555
H2A C1A 1_555 1_555
C2A C1A 1_555 1_555
H3A C2A 1_555 1_555
C3A C2A 1_555 1_555
H4A C3A 1_555 1_555
C4A C3A 1_555 1_555
H5A C4A 1_555 1_555
C5A N1A 1_555 1_555
C6A N2A 1_555 1_555
H6A C6A 1_555 1_555
H7A C6A 1_555 1_555
C7A N2A 1_555 1_555
H8A C7A 1_555 1_555
H9A C7A 1_555 1_555
C8A S1A 1_555 1_555
H10A C8A 1_555 1_555
H11A C8A 1_555 1_555
N2 Cd1A 1_555 1_555
C4 C5 1_555 1_555
C5 C6 1_555 1_555
C7 C8 1_555 1_555
C4A C5A 1_555 1_555
C5A C6A 1_555 1_555
C7A C8A 1_555 1_555

#END
