
#######################################################################
#
#                 Cambridge Crystallographic Data Centre
#                                CCDC 
#
#######################################################################
#
# If this CIF has been generated from an entry in the Cambridge 
# Structural Database, then it will include bibliographic, chemical, 
# crystal, experimental, refinement or atomic coordinate data resulting 
# from the CCDC's data processing and validation procedures.
#
#######################################################################

data_RUPYOR
_symmetry_cell_setting           monoclinic
_symmetry_space_group_name_H-M   'P 21/c'
_symmetry_Int_Tables_number      14
_space_group_name_Hall           '-P 2ybc'
loop_
_symmetry_equiv_pos_site_id
_symmetry_equiv_pos_as_xyz
1 x,y,z
2 -x,1/2+y,1/2-z
3 -x,-y,-z
4 x,1/2-y,1/2+z
_cell_length_a                   7.7760(14)
_cell_length_b                   18.156(3)
_cell_length_c                   9.0983(16)
_cell_angle_alpha                90
_cell_angle_beta                 112.776(3)
_cell_angle_gamma                90
_cell_volume                     1184.35
loop_
_atom_site_label
_atom_site_type_symbol
_atom_site_fract_x
_atom_site_fract_y
_atom_site_fract_z
Cd1 Cd 1.0000 0.5000 0.5000
O1 O 0.4601(2) 0.59262(11) 0.2107(2)
N1 N 0.8341(2) 0.58976(8) 0.88528(18)
N2 N 0.9580(2) 0.54469(8) 0.72359(18)
N3 N 0.1518(2) 0.78895(8) 0.82212(18)
N4 N 0.0347(2) 0.87774(8) 0.92119(18)
N5 N 0.6775(3) 0.50356(9) 0.3636(2)
C1 C 0.6951(3) 0.61731(12) 0.9447(2)
H1 H 0.7592 0.6460 1.0435
H2 H 0.6323 0.5750 0.9715
C2 C 0.5502(3) 0.66549(10) 0.8233(2)
H3 H 0.4667 0.6342 0.7356
H4 H 0.6135 0.7005 0.7775
C3 C 0.4331(3) 0.70868(10) 0.8957(2)
H5 H 0.3794 0.6745 0.9514
H6 H 0.5131 0.7446 0.9746
C4 C 0.2777(3) 0.74894(12) 0.7648(2)
H7 H 0.3335 0.7843 0.7130
H8 H 0.2042 0.7128 0.6831
C5 C 0.8009(3) 0.56271(10) 0.7382(2)
H9 H 0.6804 0.5574 0.6562
C6 C 1.0980(3) 0.56036(10) 0.8684(2)
H10 H 1.2273 0.5528 0.8940
C7 C 1.0241(3) 0.58814(10) 0.9689(2)
H11 H 1.0902 0.6035 1.0759
C8 C 0.1767(3) 0.85724(10) 0.8854(2)
H12 H 0.2833 0.8869 0.9021
C9 C -0.0872(3) 0.81930(10) 0.8791(2)
H13 H -0.2033 0.8177 0.8910
C10 C -0.0166(3) 0.76412(11) 0.8180(2)
H14 H -0.0727 0.7177 0.7801
C11 C 0.5754(3) 0.54682(11) 0.2911(2)
Cd1A Cd 0.0000 1.0000 1.0000
Cd1A_2 Cd 0.0000 0.0000 1.0000
O1B O 1.5399(2) 0.40738(11) 0.7893(2)
N1A N 0.1659(2) 0.08976(8) 0.61472(18)
N2A N 0.0420(2) 0.04469(8) 0.77641(18)
N2B N 1.0420(2) 0.45531(8) 0.27641(18)
N3A N 0.8482(2) 0.28895(8) 0.67788(18)
N4A N 0.9653(2) 0.37774(8) 0.57881(18)
N4C N 1.0347(2) 0.62226(8) 0.42119(18)
N5B N 1.3225(3) 0.49644(9) 0.6364(2)
C1A C 0.3049(3) 0.11731(12) 0.5553(2)
H1A H 0.2408 0.1460 0.4565
H2A H 0.3677 0.0750 0.5285
C2A C 0.4498(3) 0.16549(10) 0.6767(2)
H3A H 0.5333 0.1342 0.7644
H4A H 0.3865 0.2005 0.7225
C3A C 0.5669(3) 0.20868(10) 0.6043(2)
H5A H 0.6206 0.1745 0.5486
H6A H 0.4869 0.2446 0.5254
C4A C 0.7223(3) 0.24894(12) 0.7352(2)
H7A H 0.6665 0.2843 0.7870
H8A H 0.7958 0.2128 0.8169
C5A C 0.1991(3) 0.06271(10) 0.7618(2)
H9A H 0.3196 0.0574 0.8438
C6A C -0.0980(3) 0.06036(10) 0.6316(2)
H10A H -0.2273 0.0528 0.6060
C7A C -0.0241(3) 0.08814(10) 0.5311(2)
H11A H -0.0902 0.1035 0.4241
C8A C 0.8233(3) 0.35724(10) 0.6146(2)
H12A H 0.7167 0.3869 0.5979
C9A C 1.0872(3) 0.31930(10) 0.6209(2)
H13A H 1.2033 0.3177 0.6090
C10A C 1.0166(3) 0.26412(11) 0.6820(2)
H14A H 1.0727 0.2177 0.7199
C11B C 1.4246(3) 0.45318(11) 0.7089(2)
loop_
_geom_bond_atom_site_label_1
_geom_bond_atom_site_label_2
_geom_bond_site_symmetry_1
_geom_bond_site_symmetry_2
Cd1 N2 1_555 1_555
O1 C11 1_555 1_555
N1 C1 1_555 1_555
N2 C5 1_555 1_555
N3 C4 1_555 1_555
N4 C8 1_555 1_555
N5 Cd1 1_555 1_555
C1 H1 1_555 1_555
H2 C1 1_555 1_555
C2 C1 1_555 1_555
H3 C2 1_555 1_555
H4 C2 1_555 1_555
C3 C2 1_555 1_555
H5 C3 1_555 1_555
H6 C3 1_555 1_555
C4 C3 1_555 1_555
H7 C4 1_555 1_555
H8 C4 1_555 1_555
C5 N1 1_555 1_555
H9 C5 1_555 1_555
C6 N2 1_555 1_555
H10 C6 1_555 1_555
C7 N1 1_555 1_555
H11 C7 1_555 1_555
C8 N3 1_555 1_555
H12 C8 1_555 1_555
C9 N4 1_555 1_555
H13 C9 1_555 1_555
C10 N3 1_555 1_555
H14 C10 1_555 1_555
C11 N5 1_555 1_555
Cd1A N4 1_555 1_555
Cd1A_2 N2A 1_555 1_555
O1B C11B 1_555 1_555
N1A C1A 1_555 1_555
N2A C5A 1_555 1_555
N2B Cd1 1_555 1_555
N3A C4A 1_555 1_555
N4A Cd1 1_555 1_555
N4C Cd1 1_555 1_555
N5B Cd1 1_555 1_555
C1A H1A 1_555 1_555
H2A C1A 1_555 1_555
C2A C1A 1_555 1_555
H3A C2A 1_555 1_555
H4A C2A 1_555 1_555
C3A C2A 1_555 1_555
H5A C3A 1_555 1_555
H6A C3A 1_555 1_555
C4A C3A 1_555 1_555
H7A C4A 1_555 1_555
H8A C4A 1_555 1_555
C5A N1A 1_555 1_555
H9A C5A 1_555 1_555
C6A N2A 1_555 1_555
H10A C6A 1_555 1_555
C7A N1A 1_555 1_555
H11A C7A 1_555 1_555
C8A N3A 1_555 1_555
H12A C8A 1_555 1_555
C9A N4A 1_555 1_555
H13A C9A 1_555 1_555
C10A N3A 1_555 1_555
H14A C10A 1_555 1_555
C11B N5B 1_555 1_555
C6 C7 1_555 1_555
C9 C10 1_555 1_555
N4A C8A 1_555 1_555
C6A C7A 1_555 1_555
C9A C10A 1_555 1_555

#END
