
#######################################################################
#
#                 Cambridge Crystallographic Data Centre
#                                CCDC 
#
#######################################################################
#
# If this CIF has been generated from an entry in the Cambridge 
# Structural Database, then it will include bibliographic, chemical, 
# crystal, experimental, refinement or atomic coordinate data resulting 
# from the CCDC's data processing and validation procedures.
#
#######################################################################

data_RUQKIX
_symmetry_cell_setting           monoclinic
_symmetry_space_group_name_H-M   'C 2/c'
_symmetry_Int_Tables_number      15
_space_group_name_Hall           '-C 2yn'
loop_
_symmetry_equiv_pos_site_id
_symmetry_equiv_pos_as_xyz
1 x,y,z
2 -x,y,1/2-z
3 1/2+x,1/2+y,z
4 1/2-x,1/2+y,1/2-z
5 -x,-y,-z
6 x,-y,1/2+z
7 1/2-x,1/2-y,-z
8 1/2+x,1/2-y,1/2+z
_cell_length_a                   25.065(5)
_cell_length_b                   12.530(2)
_cell_length_c                   16.523(3)
_cell_angle_alpha                90
_cell_angle_beta                 101.970(10)
_cell_angle_gamma                90
_cell_volume                     5076.45
loop_
_atom_site_label
_atom_site_type_symbol
_atom_site_fract_x
_atom_site_fract_y
_atom_site_fract_z
Mn1 Mn 0.4264(1) 0.5893(1) 0.5475(1)
O1 O 0.5089(2) 0.5448(3) 0.6000(2)
O2 O 0.4398(2) 0.5914(4) 0.4260(2)
N1 N 0.3861(2) 0.5775(4) 0.6599(3)
N2 N 0.3940(2) 0.4232(4) 0.5525(3)
N3 N 0.3522(2) 0.6887(4) 0.4880(3)
N4 N 0.4480(3) 0.7614(4) 0.5715(3)
C1 C 0.3801(3) 0.6616(6) 0.7086(4)
C2 C 0.3524(3) 0.6528(7) 0.7720(4)
C3 C 0.3318(4) 0.5556(8) 0.7875(5)
C4 C 0.3376(3) 0.4710(7) 0.7388(5)
C5 C 0.3653(3) 0.4827(5) 0.6755(4)
C6 C 0.3729(3) 0.3949(5) 0.6187(4)
C7 C 0.3618(5) 0.2899(7) 0.6342(6)
C8 C 0.3700(6) 0.2138(8) 0.5784(8)
C9 C 0.3911(5) 0.2417(6) 0.5099(6)
C10 C 0.4013(4) 0.3467(6) 0.5001(5)
C11 C 0.3044(4) 0.6488(8) 0.4459(4)
C12 C 0.2646(5) 0.7105(12) 0.3992(7)
C13 C 0.2742(6) 0.8163(13) 0.3966(8)
C14 C 0.3224(5) 0.8595(9) 0.4380(6)
C15 C 0.3604(3) 0.7938(6) 0.4841(4)
C16 C 0.4132(3) 0.8347(5) 0.5316(4)
C17 C 0.4252(5) 0.9418(6) 0.5376(7)
C18 C 0.4738(6) 0.9750(8) 0.5888(9)
C19 C 0.5085(5) 0.9021(9) 0.6295(6)
C20 C 0.4950(4) 0.7943(7) 0.6191(5)
C21 C 0.4711(3) 0.5482(5) 0.3859(3)
C22 C 0.4848(3) 0.6089(5) 0.3145(3)
C23 C 0.4835(4) 0.7180(5) 0.3131(4)
C24 C 0.5000 0.7724(8) 0.2500
C25 C 0.5000 0.5546(7) 0.2500
H1 H 0.4821(6) 1.0473(8) 0.5947(9)
H2 H 0.5410(5) 0.9230(9) 0.6640(6)
H3 H 0.3951(24) 0.7349(47) 0.6971(36)
H4 H 0.3480(31) 0.7243(58) 0.8112(46)
H5 H 0.3115(28) 0.5523(54) 0.8323(44)
H6 H 0.3235(26) 0.4077(49) 0.7399(37)
H7 H 0.3426(33) 0.2713(61) 0.6860(51)
H8 H 0.3729(38) 0.1436(86) 0.5870(56)
H9 H 0.3981(30) 0.1872(60) 0.4677(47)
H10 H 0.4145(21) 0.3741(43) 0.4603(31)
H11 H 0.3025(30) 0.5707(63) 0.4522(43)
H12 H 0.2299(47) 0.6858(84) 0.3729(66)
H13 H 0.2467(34) 0.8545(66) 0.3605(48)
H14 H 0.3240(32) 0.9292(67) 0.4265(47)
H15 H 0.3978(31) 0.9911(59) 0.4995(44)
H16 H 0.5170(23) 0.7407(40) 0.6491(36)
H17 H 0.5290(30) 0.7545(56) 0.1457(47)
H18 H 0.5000 0.8482(26) 0.2500
H19 H 0.5000 0.4775(53) 0.2500
O2D O 0.5602(2) 0.4086(4) 0.5740(2)
Mn1D Mn 0.5736(1) 0.4107(1) 0.4525(1)
O1D O 0.4911(2) 0.4552(3) 0.4000(2)
C23A C 0.5165(4) 0.7180(5) 0.1869(4)
C22A C 0.5152(3) 0.6089(5) 0.1855(3)
C21A C 0.5289(3) 0.5482(5) 0.1141(3)
O1E O 0.5089(2) 0.4552(3) 0.1000(2)
Mn1E Mn 0.4264(1) 0.4107(1) 0.0475(1)
Mn1A Mn 0.5736(1) 0.5893(1) -0.0475(1)
O2A O 0.5602(2) 0.5914(4) 0.0740(2)
H17A H 0.4710(30) 0.7545(56) 0.3543(47)
N1D N 0.6139(2) 0.4225(4) 0.3401(3)
C1D C 0.6199(3) 0.3384(6) 0.2914(4)
C2D C 0.6476(3) 0.3472(7) 0.2280(4)
C3D C 0.6682(4) 0.4444(8) 0.2125(5)
C4D C 0.6624(3) 0.5290(7) 0.2612(5)
C5D C 0.6347(3) 0.5173(5) 0.3245(4)
C6D C 0.6271(3) 0.6051(5) 0.3813(4)
N2D N 0.6060(2) 0.5768(4) 0.4475(3)
N3D N 0.6478(2) 0.3113(4) 0.5120(3)
C11D C 0.6956(4) 0.3512(8) 0.5541(4)
C12D C 0.7354(5) 0.2895(12) 0.6008(7)
C13D C 0.7258(6) 0.1837(13) 0.6034(8)
C14D C 0.6776(5) 0.1405(9) 0.5620(6)
C15D C 0.6396(3) 0.2062(6) 0.5159(4)
C16D C 0.5868(3) 0.1653(5) 0.4684(4)
N4D N 0.5520(3) 0.2386(4) 0.4285(3)
C20D C 0.5050(4) 0.2057(7) 0.3809(5)
C19D C 0.4915(5) 0.0979(9) 0.3705(6)
C18D C 0.5262(6) 0.0250(8) 0.4112(9)
C17D C 0.5748(5) 0.0582(6) 0.4624(7)
H15D H 0.6022(31) 0.0089(59) 0.5005(44)
H1D H 0.5179(6) -0.0473(8) 0.4053(9)
H2D H 0.4590(5) 0.0770(9) 0.3360(6)
H16D H 0.4830(23) 0.2593(40) 0.3509(36)
H14D H 0.6760(32) 0.0708(67) 0.5735(47)
H13D H 0.7533(34) 0.1455(66) 0.6395(48)
H12D H 0.7701(47) 0.3142(84) 0.6271(66)
H11D H 0.6975(30) 0.4293(63) 0.5478(43)
C10D C 0.5987(4) 0.6533(6) 0.4999(5)
C9D C 0.6089(5) 0.7583(6) 0.4901(6)
C8D C 0.6300(6) 0.7862(8) 0.4216(8)
C7D C 0.6382(5) 0.7101(7) 0.3658(6)
H7D H 0.6574(33) 0.7287(61) 0.3140(51)
H8D H 0.6271(38) 0.8564(86) 0.4130(56)
H9D H 0.6019(30) 0.8128(60) 0.5323(47)
H10D H 0.5855(21) 0.6259(43) 0.5397(31)
H6D H 0.6765(26) 0.5923(49) 0.2601(37)
H5D H 0.6885(28) 0.4477(54) 0.1677(44)
H4D H 0.6520(31) 0.2757(58) 0.1888(46)
H3D H 0.6049(24) 0.2651(47) 0.3029(36)
Cl1 Cl 0.3442(1) 0.9920(2) 0.7453(2)
O3 O 0.3008(4) 1.0488(11) 0.7128(8)
O4 O 0.3619(5) 0.9303(8) 0.6907(7)
O5 O 0.3307(5) 0.9323(6) 0.8052(6)
O6 O 0.3831(4) 1.0696(7) 0.7744(6)
O7 O 0.2695(5) 0.1539(10) 0.4115(7)
O8 O 0.2600(4) 0.6231(9) 0.9366(6)
loop_
_geom_bond_atom_site_label_1
_geom_bond_atom_site_label_2
_geom_bond_site_symmetry_1
_geom_bond_site_symmetry_2
Mn1 O1 1_555 1_555
Cl1 O3 1_555 1_555
O2 Mn1 1_555 1_555
O4 Cl1 1_555 1_555
O5 Cl1 1_555 1_555
O6 Cl1 1_555 1_555
N1 Mn1 1_555 1_555
N2 Mn1 1_555 1_555
N3 Mn1 1_555 1_555
N4 Mn1 1_555 1_555
C1 N1 1_555 1_555
C2 C1 1_555 1_555
C3 C2 1_555 1_555
C4 C3 1_555 1_555
C5 N1 1_555 1_555
C6 N2 1_555 1_555
C7 C6 1_555 1_555
C8 C7 1_555 1_555
C9 C8 1_555 1_555
C10 N2 1_555 1_555
C11 N3 1_555 1_555
C12 C11 1_555 1_555
C13 C12 1_555 1_555
C14 C13 1_555 1_555
C15 N3 1_555 1_555
C16 N4 1_555 1_555
C17 C16 1_555 1_555
C18 C17 1_555 1_555
C19 C18 1_555 1_555
C20 N4 1_555 1_555
C21 O2 1_555 1_555
C22 C21 1_555 1_555
C23 C22 1_555 1_555
C24 C23 1_555 1_555
C25 C22 1_555 1_555
H1 C18 1_555 1_555
H2 C19 1_555 1_555
H3 C1 1_555 1_555
H4 C2 1_555 1_555
H5 C3 1_555 1_555
H6 C4 1_555 1_555
H7 C7 1_555 1_555
H8 C8 1_555 1_555
H9 C9 1_555 1_555
H10 C10 1_555 1_555
H11 C11 1_555 1_555
H12 C12 1_555 1_555
H13 C13 1_555 1_555
H14 C14 1_555 1_555
H15 C17 1_555 1_555
H16 C20 1_555 1_555
H17 C23A 1_555 1_555
H18 C24 1_555 1_555
H19 C25 1_555 1_555
O2D Mn1D 1_555 1_555
Mn1D O1D 1_555 1_555
O1D C21 1_555 1_555
C23A C24 1_555 1_555
C22A C25 1_555 1_555
C21A C22A 1_555 1_555
O1E C21A 1_555 1_555
Mn1E O1E 1_555 1_555
Mn1A O2A 1_555 1_555
O2A C21A 1_555 1_555
H17A C23 1_555 1_555
N1D Mn1D 1_555 1_555
C1D N1D 1_555 1_555
C2D C1D 1_555 1_555
C3D C2D 1_555 1_555
C4D C3D 1_555 1_555
C5D N1D 1_555 1_555
C6D C5D 1_555 1_555
N2D Mn1D 1_555 1_555
N3D Mn1D 1_555 1_555
C11D N3D 1_555 1_555
C12D C11D 1_555 1_555
C13D C12D 1_555 1_555
C14D C13D 1_555 1_555
C15D N3D 1_555 1_555
C16D C15D 1_555 1_555
N4D Mn1D 1_555 1_555
C20D N4D 1_555 1_555
C19D C20D 1_555 1_555
C18D C19D 1_555 1_555
C17D C16D 1_555 1_555
H15D C17D 1_555 1_555
H1D C18D 1_555 1_555
H2D C19D 1_555 1_555
H16D C20D 1_555 1_555
H14D C14D 1_555 1_555
H13D C13D 1_555 1_555
H12D C12D 1_555 1_555
H11D C11D 1_555 1_555
C10D N2D 1_555 1_555
C9D C10D 1_555 1_555
C8D C9D 1_555 1_555
C7D C6D 1_555 1_555
H7D C7D 1_555 1_555
H8D C8D 1_555 1_555
H9D C9D 1_555 1_555
H10D C10D 1_555 1_555
H6D C4D 1_555 1_555
H5D C3D 1_555 1_555
H4D C2D 1_555 1_555
H3D C1D 1_555 1_555
C4 C5 1_555 1_555
C5 C6 1_555 1_555
C9 C10 1_555 1_555
C14 C15 1_555 1_555
C15 C16 1_555 1_555
C19 C20 1_555 1_555
C23A C22A 1_555 1_555
C4D C5D 1_555 1_555
C6D N2D 1_555 1_555
C14D C15D 1_555 1_555
C16D N4D 1_555 1_555
C18D C17D 1_555 1_555
C8D C7D 1_555 1_555

#END
