
#######################################################################
#
#                 Cambridge Crystallographic Data Centre
#                                CCDC 
#
#######################################################################
#
# If this CIF has been generated from an entry in the Cambridge 
# Structural Database, then it will include bibliographic, chemical, 
# crystal, experimental, refinement or atomic coordinate data resulting 
# from the CCDC's data processing and validation procedures.
#
#######################################################################

data_RUQLUM
_symmetry_cell_setting           monoclinic
_symmetry_space_group_name_H-M   'P 21/c'
_symmetry_Int_Tables_number      14
_space_group_name_Hall           '-P 2ybc'
loop_
_symmetry_equiv_pos_site_id
_symmetry_equiv_pos_as_xyz
1 x,y,z
2 -x,1/2+y,1/2-z
3 -x,-y,-z
4 x,1/2-y,1/2+z
_cell_length_a                   12.1651(5)
_cell_length_b                   9.7980(4)
_cell_length_c                   20.6387(7)
_cell_angle_alpha                90
_cell_angle_beta                 113.010(2)
_cell_angle_gamma                90
_cell_volume                     2264.28
loop_
_atom_site_label
_atom_site_type_symbol
_atom_site_fract_x
_atom_site_fract_y
_atom_site_fract_z
Ag1 Ag 0.42118(2) 0.88055(3) 0.464909(15)
N1 N 0.5395(3) 0.7294(3) 0.53057(16)
N2 N 1.2768(3) 0.4965(3) 0.89619(16)
C1 C 0.5537(3) 0.7134(4) 0.5983(2)
H1 H 0.5174 0.7759 0.6176
C2 C 0.6195(3) 0.6085(4) 0.6402(2)
H2 H 0.6275 0.6017 0.6868
C3 C 0.6741(3) 0.5126(4) 0.61262(19)
C4 C 0.6612(3) 0.5312(4) 0.54310(19)
H3 H 0.6979 0.4715 0.5227
C5 C 0.5938(3) 0.6384(4) 0.50465(19)
H4 H 0.5855 0.6481 0.4581
C6 C 0.7460(3) 0.3959(4) 0.6564(2)
H5 H 0.7674 0.3342 0.6265
H6 H 0.6973 0.3457 0.6759
C7 C 0.8603(3) 0.4451(4) 0.7168(2)
H7 H 0.9015 0.5096 0.6985
H8 H 0.8389 0.4922 0.7516
C8 C 0.9450(3) 0.3262(4) 0.7525(2)
H9 H 0.9091 0.2693 0.7774
H10 H 0.9569 0.2707 0.7169
C9 C 1.0635(3) 0.3783(4) 0.8034(2)
C10 C 1.1030(3) 0.3597(4) 0.8757(2)
H11 H 1.0590 0.3067 0.8943
C11 C 1.2081(3) 0.4203(4) 0.9197(2)
H12 H 1.2326 0.4080 0.9680
C12 C 1.2416(3) 0.5104(4) 0.8262(2)
H13 H 1.2892 0.5602 0.8088
C13 C 1.1367(3) 0.4531(4) 0.7790(2)
H14 H 1.1153 0.4647 0.7309
Ag1B Ag 0.57882(2) 1.11945(3) 0.535091(15)
Ag1C Ag 1.42118(2) 0.61945(3) 0.964909(15)
N2C N 0.2768(3) 1.0035(3) 0.39619(16)
Ag2 Ag 0.62556(3) 0.31183(3) 0.800121(15)
S1 S 0.58093(8) 0.60029(9) 0.85668(5)
Cl1 Cl 1.04085(8) 0.96623(12) 0.92699(5)
Cl2 Cl 0.85490(9) 0.47104(10) 0.91138(6)
O1 O 0.8494(3) 1.1630(4) 0.8923(3)
O2 O 0.6724(3) 1.1036(3) 0.8167(2)
O3 O 0.6084(2) 0.5175(3) 0.91981(13)
O4 O 0.4870(2) 0.7011(3) 0.84461(13)
N3 N 0.5591(3) 0.5105(3) 0.79084(16)
H15 H 0.5188 0.5433 0.7497
C14 C 0.7980(3) 0.9276(4) 0.87772(19)
C15 C 0.9120(3) 0.8696(4) 0.9063(2)
C16 C 0.9276(3) 0.7299(4) 0.9167(2)
H16 H 1.0040 0.6929 0.9346
C17 C 0.8293(3) 0.6458(4) 0.90034(19)
C18 C 0.7135(3) 0.6996(4) 0.87410(18)
C19 C 0.7009(3) 0.8391(4) 0.86255(18)
H17 H 0.6242 0.8756 0.8438
C20 C 0.7729(4) 1.0774(4) 0.8613(2)
Ag2_2 Ag 0.62556(3) 1.31183(3) 0.800121(15)
O2_2 O 0.6724(3) 0.1036(3) 0.8167(2)
O5 O 0.7614(8) 1.2752(9) 0.9940(5)
loop_
_geom_bond_atom_site_label_1
_geom_bond_atom_site_label_2
_geom_bond_site_symmetry_1
_geom_bond_site_symmetry_2
Ag1 N1 1_555 1_555
N1 C1 1_555 1_555
N2 C11 1_555 1_555
C1 H1 1_555 1_555
C2 C1 1_555 1_555
H2 C2 1_555 1_555
C3 C2 1_555 1_555
C4 C3 1_555 1_555
H3 C4 1_555 1_555
C5 N1 1_555 1_555
H4 C5 1_555 1_555
C6 C3 1_555 1_555
H5 C6 1_555 1_555
H6 C6 1_555 1_555
C7 C6 1_555 1_555
H7 C7 1_555 1_555
H8 C7 1_555 1_555
C8 C7 1_555 1_555
H9 C8 1_555 1_555
H10 C8 1_555 1_555
C9 C8 1_555 1_555
C10 C9 1_555 1_555
H11 C10 1_555 1_555
C11 C10 1_555 1_555
H12 C11 1_555 1_555
C12 N2 1_555 1_555
H13 C12 1_555 1_555
C13 C9 1_555 1_555
H14 C13 1_555 1_555
Ag2 N3 1_555 1_555
S1 O3 1_555 1_555
Cl1 C15 1_555 1_555
Cl2 C17 1_555 1_555
O1 C20 1_555 1_555
O2 C20 1_555 1_555
O4 S1 1_555 1_555
N3 S1 1_555 1_555
H15 N3 1_555 1_555
C14 C15 1_555 1_555
C15 C16 1_555 1_555
C16 H16 1_555 1_555
C17 C16 1_555 1_555
C18 S1 1_555 1_555
C19 C14 1_555 1_555
H17 C19 1_555 1_555
C20 C14 1_555 1_555
Ag1B Ag1 1_555 1_555
Ag1C N2 1_555 1_555
N2C Ag1 1_555 1_555
Ag2_2 O2 1_555 1_555
O2_2 Ag2 1_555 1_555
C4 C5 1_555 1_555
C12 C13 1_555 1_555
C17 C18 1_555 1_555
C18 C19 1_555 1_555

#END
