
#######################################################################
#
#                 Cambridge Crystallographic Data Centre
#                                CCDC 
#
#######################################################################
#
# If this CIF has been generated from an entry in the Cambridge 
# Structural Database, then it will include bibliographic, chemical, 
# crystal, experimental, refinement or atomic coordinate data resulting 
# from the CCDC's data processing and validation procedures.
#
#######################################################################

data_RUQLIY
_symmetry_cell_setting           monoclinic
_symmetry_space_group_name_H-M   'P 21/n'
_symmetry_Int_Tables_number      14
_space_group_name_Hall           '-P 2yn'
loop_
_symmetry_equiv_pos_site_id
_symmetry_equiv_pos_as_xyz
1 x,y,z
2 1/2-x,1/2+y,1/2-z
3 -x,-y,-z
4 1/2+x,1/2-y,1/2+z
_cell_length_a                   11.806(3)
_cell_length_b                   22.856(6)
_cell_length_c                   7.101(8)
_cell_angle_alpha                90
_cell_angle_beta                 106.7(3)
_cell_angle_gamma                90
_cell_volume                     1835.3
loop_
_atom_site_label
_atom_site_type_symbol
_atom_site_fract_x
_atom_site_fract_y
_atom_site_fract_z
N1 N -0.0761(3) 0.4403(1) -0.2118(5)
N2 N -0.4224(3) 0.6355(2) -0.1080(6)
N3 N -0.5033(5) 0.5987(3) 0.1321(8)
O1 O -0.1517(2) 0.5120(1) 0.0508(4)
O2 O -0.2214(3) 0.5889(1) -0.1345(5)
O3 O -0.0422(3) 0.5714(1) 0.7077(4)
F1 F -0.7161(2) 0.7633(1) 0.1140(3)
F2 F -0.8420(2) 0.7544(1) -0.1594(4)
F3 F -0.7524(3) 0.8308(1) -0.0751(4)
C1 C 0.0303(4) 0.5692(2) 0.3641(6)
C2 C 0.0799(4) 0.6092(2) 0.5127(6)
C3 C 0.1795(4) 0.6410(2) 0.5033(7)
C4 C 0.2254(4) 0.6311(2) 0.345(27)
C5 C 0.1727(4) 0.5906(2) 0.2018(7)
C6 C 0.0277(4) 0.6202(2) 0.6827(6)
C7 C -0.2267(4) 0.5517(2) -0.0077(7)
C8 C -0.3229(4) 0.5551(2) 0.0890(7)
C9 C -0.3184(4) 0.5154(2) 0.2388(7)
C10 C -0.4029(4) 0.5187(2) 0.3471(8)
C11 C -0.4930(4) 0.5613(2) 0.2794(7)
C12 C -0.4160(4) 0.5970(2) 0.0409(8)
C13 C -0.4973(4) 0.6828(2) -0.1729(7)
C14 C -0.5802(4) 0.7045(2) -0.0789(7)
C15 C -0.6469(4) 0.7531(2) -0.1612(7)
C16 C -0.6353(4) 0.7818(2) -0.3274(8)
C17 C -0.5523(4) 0.7602(2) -0.4216(7)
C18 C -0.4879(4) 0.7104(2) -0.3473(7)
C19 C -0.7388(4) 0.7730(2) -0.0714(7)
Cu1 Cu 0.0000 0.5000 0.0000
H1 H 0.0409 0.4537 0.6289
H2 H 0.2158 0.6700 0.6078
H3 H 0.2964 0.6536 0.3349
H4 H 0.2071 0.5835 0.0902
H5 H -0.1043 0.3790 0.1994
H6 H 0.0190 0.3387 0.3419
H7 H 0.1172 0.4252 0.2794
H8 H -0.2573 0.4841 0.2709
H9 H -0.3986 0.4928 0.4621
H10 H -0.5555 0.5642 0.3471
H11 H -0.5883 0.6859 0.0434
H12 H -0.6633 0.8177 -0.3797
H13 H -0.5420 0.7800 -0.5411
H14 H -0.4315 0.6941 -0.4150
H15 H -0.3641 0.6281 -0.1831
N1B N 0.0761(3) 0.5597(1) 0.2118(5)
Cu1B Cu 0.0000 0.5000 1.0000
N1_2 N -0.0761(3) 0.4403(1) 0.7882(5)
C1B C -0.0303(4) 0.4308(2) 0.6359(6)
C2B C -0.0799(4) 0.3908(2) 0.4873(6)
C3B C -0.1795(4) 0.3590(2) 0.4967(7)
C4B C -0.2254(4) 0.3689(2) 0.655(27)
C5B C -0.1727(4) 0.4094(2) 0.7982(7)
H4B H -0.2071 0.4165 0.9098
H3B H -0.2964 0.3464 0.6651
H2B H -0.2158 0.3300 0.3922
C6B C -0.0277(4) 0.3798(2) 0.3173(6)
O3B O 0.0422(3) 0.4286(1) 0.2923(4)
O1B O 0.1517(2) 0.4880(1) -0.0508(4)
C7B C 0.2267(4) 0.4483(2) 0.0077(7)
O2B O 0.2214(3) 0.4111(1) 0.1345(5)
C8B C 0.3229(4) 0.4449(2) -0.0890(7)
C9B C 0.3184(4) 0.4846(2) -0.2388(7)
C10B C 0.4029(4) 0.4813(2) -0.3471(8)
C11B C 0.4930(4) 0.4387(2) -0.2794(7)
N3B N 0.5033(5) 0.4013(3) -0.1321(8)
C12B C 0.4160(4) 0.4030(2) -0.0409(8)
N2B N 0.4224(3) 0.3645(2) 0.1080(6)
C13B C 0.4973(4) 0.3172(2) 0.1729(7)
C14B C 0.5802(4) 0.2955(2) 0.0789(7)
C15B C 0.6469(4) 0.2469(2) 0.1612(7)
C16B C 0.6353(4) 0.2182(2) 0.3274(8)
C17B C 0.5523(4) 0.2398(2) 0.4216(7)
C18B C 0.4879(4) 0.2896(2) 0.3473(7)
H14B H 0.4315 0.3059 0.4150
H13B H 0.5420 0.2200 0.5411
H12B H 0.6633 0.1823 0.3797
C19B C 0.7388(4) 0.2270(2) 0.0714(7)
F1B F 0.7161(2) 0.2367(1) -0.1140(3)
F2B F 0.8420(2) 0.2456(1) 0.1594(4)
F3B F 0.7524(3) 0.1692(1) 0.0751(4)
H11B H 0.5883 0.3141 -0.0434
H15B H 0.3641 0.3719 0.1831
H10B H 0.5555 0.4358 -0.3471
H9B H 0.3986 0.5072 -0.4621
H8B H 0.2573 0.5159 -0.2709
O3_2 O -0.0422(3) 0.5714(1) -0.2923(4)
H7B H -0.1172 0.5748 0.7206
H5B H 0.1043 0.6210 0.8006
H6B H -0.0190 0.6613 0.6581
H1B H -0.0409 0.5463 0.3711
loop_
_geom_bond_atom_site_label_1
_geom_bond_atom_site_label_2
_geom_bond_site_symmetry_1
_geom_bond_site_symmetry_2
N1 Cu1 1_555 1_555
N2 C12 1_555 1_555
N3 C11 1_555 1_555
O1 C7 1_555 1_555
O2 C7 1_555 1_555
O3 C6 1_555 1_555
F1 C19 1_555 1_555
F2 C19 1_555 1_555
F3 C19 1_555 1_555
C1 C2 1_555 1_555
C2 C3 1_555 1_555
C3 C4 1_555 1_555
C4 C5 1_555 1_555
C5 H4 1_555 1_555
C6 C2 1_555 1_555
C7 C8 1_555 1_555
C8 C9 1_555 1_555
C9 C10 1_555 1_555
C10 C11 1_555 1_555
C11 H10 1_555 1_555
C12 N3 1_555 1_555
C13 N2 1_555 1_555
C14 C13 1_555 1_555
C15 C14 1_555 1_555
C16 C15 1_555 1_555
C17 C16 1_555 1_555
C18 C13 1_555 1_555
C19 C15 1_555 1_555
Cu1 O1 1_555 1_555
H1 C1B 1_555 1_555
H2 C3 1_555 1_555
H3 C4 1_555 1_555
H5 C6B 1_555 1_555
H6 C6B 1_555 1_555
H7 O3B 1_555 1_555
H8 C9 1_555 1_555
H9 C10 1_555 1_555
H11 C14 1_555 1_555
H12 C16 1_555 1_555
H13 C17 1_555 1_555
H14 C18 1_555 1_555
H15 N2 1_555 1_555
N1B C1 1_555 1_555
Cu1B O3 1_555 1_555
N1_2 Cu1B 1_555 1_555
C1B N1_2 1_555 1_555
C2B C1B 1_555 1_555
C3B C2B 1_555 1_555
C4B C3B 1_555 1_555
C5B N1_2 1_555 1_555
H4B C5B 1_555 1_555
H3B C4B 1_555 1_555
H2B C3B 1_555 1_555
C6B C2B 1_555 1_555
O3B Cu1 1_555 1_555
O1B Cu1 1_555 1_555
C7B O1B 1_555 1_555
O2B C7B 1_555 1_555
C8B C7B 1_555 1_555
C9B C8B 1_555 1_555
C10B C9B 1_555 1_555
C11B C10B 1_555 1_555
N3B C11B 1_555 1_555
C12B C8B 1_555 1_555
N2B C12B 1_555 1_555
C13B N2B 1_555 1_555
C14B C13B 1_555 1_555
C15B C14B 1_555 1_555
C16B C15B 1_555 1_555
C17B C16B 1_555 1_555
C18B C13B 1_555 1_555
H14B C18B 1_555 1_555
H13B C17B 1_555 1_555
H12B C16B 1_555 1_555
C19B C15B 1_555 1_555
F1B C19B 1_555 1_555
F2B C19B 1_555 1_555
F3B C19B 1_555 1_555
H11B C14B 1_555 1_555
H15B N2B 1_555 1_555
H10B C11B 1_555 1_555
H9B C10B 1_555 1_555
H8B C9B 1_555 1_555
O3_2 Cu1 1_555 1_555
H7B O3 1_555 1_555
H5B C6 1_555 1_555
H6B C6 1_555 1_555
H1B C1 1_555 1_555
C5 N1B 1_555 1_555
C8 C12 1_555 1_555
C17 C18 1_555 1_555
Cu1 N1B 1_555 1_555
C4B C5B 1_555 1_555
C6B O3B 1_555 1_555
N3B C12B 1_555 1_555
C17B C18B 1_555 1_555

#END
