
#######################################################################
#
#                 Cambridge Crystallographic Data Centre
#                                CCDC 
#
#######################################################################
#
# If this CIF has been generated from an entry in the Cambridge 
# Structural Database, then it will include bibliographic, chemical, 
# crystal, experimental, refinement or atomic coordinate data resulting 
# from the CCDC's data processing and validation procedures.
#
#######################################################################

data_RUQROK
_symmetry_cell_setting           monoclinic
_symmetry_space_group_name_H-M   'P 21/c'
_symmetry_Int_Tables_number      14
_space_group_name_Hall           '-P 2ybc'
loop_
_symmetry_equiv_pos_site_id
_symmetry_equiv_pos_as_xyz
1 x,y,z
2 -x,1/2+y,1/2-z
3 -x,-y,-z
4 x,1/2-y,1/2+z
_cell_length_a                   10.218(2)
_cell_length_b                   12.489(1)
_cell_length_c                   22.818(2)
_cell_angle_alpha                90
_cell_angle_beta                 91.30(1)
_cell_angle_gamma                90
_cell_volume                     2911.11
loop_
_atom_site_label
_atom_site_type_symbol
_atom_site_fract_x
_atom_site_fract_y
_atom_site_fract_z
Yb1 Yb 0.2492(1) 0.2663(1) 0.1310(1)
K1 K 0.6399(2) 0.2317(1) -0.0880(1)
K2 K 0.2922(1) 0.4935(1) -0.0009(1)
K3 K 0.1886(1) 0.1471(1) -0.0438(1)
O1 O 0.3353(3) 0.2793(3) 0.0370(2)
O2 O 0.5064(4) 0.3506(3) -0.0080(2)
O3 O 0.5542(4) -0.0970(3) 0.0718(3)
O4 O 0.6902(4) 0.0400(3) 0.0782(2)
O5 O 0.2328(4) 0.1159(3) 0.1869(2)
O6 O 0.2781(4) -0.0016(3) 0.2576(2)
O7 O 0.3702(3) 0.4182(3) 0.1335(2)
O8 O 0.3967(4) 0.5921(3) 0.1469(2)
O9 O 0.1252(3) 0.3907(3) 0.0799(2)
O10 O -0.0573(4) 0.4830(4) 0.0635(2)
O11 O 0.1373(3) 0.1368(3) 0.0731(2)
O12 O 0.0226(4) -0.0135(3) 0.0837(2)
O13 O 0.8059(5) 0.1411(4) -0.1663(3)
O14 O 0.8299(4) 0.1381(4) -0.0115(2)
O15 O 0.1275(4) 0.6497(4) 0.0536(3)
O16 O 0.3423(4) 0.4867(4) -0.1201(2)
O17 O 0.1303(6) 0.3088(5) -0.1238(3)
N1 N 0.4812(4) 0.1766(4) 0.1183(2)
N2 N 0.3967(4) 0.2683(3) 0.2317(2)
N3 N 0.1697(4) 0.4078(4) 0.2113(2)
N4 N 0.0036(4) 0.2481(4) 0.1504(2)
C1 C 0.4584(4) 0.2955(4) 0.0316(3)
C2 C 0.5491(4) 0.2504(4) 0.0781(3)
C3 C 0.4578(4) 0.0708(4) 0.0901(3)
C4 C 0.5778(5) -0.0010(4) 0.0798(3)
C5 C 0.5558(5) 0.1656(4) 0.1739(3)
C6 C 0.5335(5) 0.2606(4) 0.2146(3)
C7 C 0.3757(5) 0.3668(4) 0.2653(3)
C8 C 0.2318(5) 0.3907(4) 0.2695(3)
C9 C 0.3605(5) 0.1737(4) 0.2685(3)
C10 C 0.2894(5) 0.0893(4) 0.2358(3)
C11 C 0.2092(5) 0.5131(4) 0.1876(3)
C12 C 0.3344(4) 0.5084(4) 0.1540(3)
C13 C 0.0233(5) 0.4013(4) 0.2178(3)
C14 C -0.0244(5) 0.2877(4) 0.2099(3)
C15 C -0.0727(4) 0.3085(4) 0.1054(3)
C16 C 0.0035(4) 0.4024(4) 0.0816(3)
C17 C -0.0298(5) 0.1317(4) 0.1442(3)
C18 C 0.0495(4) 0.0814(4) 0.0964(3)
H1 H 0.6192 0.2130 0.0598
H2 H 0.5865 0.3083 0.1005
H3 H 0.6473 0.1596 0.1660
H4 H 0.5290 0.1013 0.1933
H5 H 0.5885 0.2540 0.2491
H6 H 0.5575 0.3252 0.1947
H7 H 0.4181 0.4256 0.2464
H8 H 0.4142 0.3590 0.3039
H9 H 0.1896 0.3320 0.2886
H10 H 0.2201 0.4536 0.2930
H11 H 0.3071 0.1979 0.3000
H12 H 0.4390 0.1435 0.2855
H13 H 0.2205 0.5629 0.2194
H14 H 0.1404 0.5395 0.1622
H15 H -0.0192 0.4465 0.1892
H16 H 0.0008 0.4267 0.2560
H17 H 0.0188 0.2425 0.2384
H18 H -0.1168 0.2842 0.2162
H19 H -0.1521 0.3340 0.1222
H20 H -0.0959 0.2614 0.0736
H21 H -0.1213 0.1242 0.1346
H22 H -0.0122 0.0955 0.1806
O3B O 0.4458(4) 0.0970(3) -0.0718(3)
O8B O 0.6033(4) 0.4079(3) -0.1469(2)
O2B O 0.4936(4) 0.6494(3) 0.0080(2)
O10B O 0.0573(4) 0.5170(4) -0.0635(2)
O15B O 0.8725(4) 0.3503(4) -0.0536(3)
O4B O 0.3098(4) -0.0400(3) -0.0782(2)
O12B O -0.0226(4) 0.0135(3) -0.0837(2)
K2B K 0.7078(1) 0.5065(1) 0.0009(1)
K1B K 0.3601(2) -0.2317(1) 0.0880(1)
K3B K 0.8114(1) -0.1471(1) 0.0438(1)
K1B_2 K 0.3601(2) 0.7683(1) 0.0880(1)
K2B_2 K -0.2922(1) 0.5065(1) 0.0009(1)
K3B_2 K -0.1886(1) -0.1471(1) 0.0438(1)
loop_
_geom_bond_atom_site_label_1
_geom_bond_atom_site_label_2
_geom_bond_site_symmetry_1
_geom_bond_site_symmetry_2
Yb1 O1 1_555 1_555
K1 O2 1_555 1_555
K2 O1 1_555 1_555
K3 O1 1_555 1_555
O1 C1 1_555 1_555
O2 K2 1_555 1_555
O3 C4 1_555 1_555
O4 C4 1_555 1_555
O5 Yb1 1_555 1_555
O6 C10 1_555 1_555
O7 Yb1 1_555 1_555
O8 C12 1_555 1_555
O9 Yb1 1_555 1_555
O10 C16 1_555 1_555
O11 Yb1 1_555 1_555
O12 C18 1_555 1_555
O13 K1 1_555 1_555
O14 K1 1_555 1_555
O15 K2 1_555 1_555
O16 K2 1_555 1_555
O17 K3 1_555 1_555
N1 Yb1 1_555 1_555
N2 Yb1 1_555 1_555
N3 Yb1 1_555 1_555
N4 Yb1 1_555 1_555
C1 O2 1_555 1_555
C2 N1 1_555 1_555
C3 N1 1_555 1_555
C4 C3 1_555 1_555
C5 N1 1_555 1_555
C6 N2 1_555 1_555
C7 N2 1_555 1_555
C8 N3 1_555 1_555
C9 N2 1_555 1_555
C10 O5 1_555 1_555
C11 N3 1_555 1_555
C12 O7 1_555 1_555
C13 N3 1_555 1_555
C14 N4 1_555 1_555
C15 N4 1_555 1_555
C16 O9 1_555 1_555
C17 N4 1_555 1_555
C18 O11 1_555 1_555
H1 C2 1_555 1_555
H2 C2 1_555 1_555
H3 C5 1_555 1_555
H4 C5 1_555 1_555
H5 C6 1_555 1_555
H6 C6 1_555 1_555
H7 C7 1_555 1_555
H8 C7 1_555 1_555
H9 C8 1_555 1_555
H10 C8 1_555 1_555
H11 C9 1_555 1_555
H12 C9 1_555 1_555
H13 C11 1_555 1_555
H14 C11 1_555 1_555
H15 C13 1_555 1_555
H16 C13 1_555 1_555
H17 C14 1_555 1_555
H18 C14 1_555 1_555
H19 C15 1_555 1_555
H20 C15 1_555 1_555
H21 C17 1_555 1_555
H22 C17 1_555 1_555
O3B K1 1_555 1_555
O8B K1 1_555 1_555
O2B K2 1_555 1_555
O10B K2 1_555 1_555
O15B K1 1_555 1_555
O4B K3 1_555 1_555
O12B K3 1_555 1_555
K2B O2 1_555 1_555
K1B O3 1_555 1_555
K3B O3 1_555 1_555
K1B_2 O8 1_555 1_555
K2B_2 O10 1_555 1_555
K3B_2 O12 1_555 1_555
K2 O9 1_555 1_555
K3 O11 1_555 1_555
K3 O3B 1_555 1_555
O4 K3B 1_555 1_555
O15 K1B_2 1_555 1_555
C1 C2 1_555 1_555
C5 C6 1_555 1_555
C7 C8 1_555 1_555
C9 C10 1_555 1_555
C11 C12 1_555 1_555
C13 C14 1_555 1_555
C15 C16 1_555 1_555
C17 C18 1_555 1_555
O2B K1B_2 1_555 1_555
O2B K2B 1_555 1_555
O15B K2B 1_555 1_555

#END
