
#######################################################################
#
#                 Cambridge Crystallographic Data Centre
#                                CCDC 
#
#######################################################################
#
# If this CIF has been generated from an entry in the Cambridge 
# Structural Database, then it will include bibliographic, chemical, 
# crystal, experimental, refinement or atomic coordinate data resulting 
# from the CCDC's data processing and validation procedures.
#
#######################################################################

data_RUQTIG
_symmetry_cell_setting           orthorhombic
_symmetry_space_group_name_H-M   'P 21 n m'
_symmetry_Int_Tables_number      31
_space_group_name_Hall           'P -2c 2a'
loop_
_symmetry_equiv_pos_site_id
_symmetry_equiv_pos_as_xyz
1 x,y,z
2 x,y,1/2-z
3 1/2+x,-y,-z
4 1/2+x,-y,1/2+z
_cell_length_a                   7.939(2)
_cell_length_b                   8.710(2)
_cell_length_c                   19.010(2)
_cell_angle_alpha                90
_cell_angle_beta                 90
_cell_angle_gamma                90
_cell_volume                     1314.52
loop_
_atom_site_label
_atom_site_type_symbol
_atom_site_fract_x
_atom_site_fract_y
_atom_site_fract_z
Ag1 Ag 0.4852 0.0408(2) 0.2500
Ag2 Ag 0.3854(3) -0.3687(2) 0.2500
O1 O 0.4104(16) -0.1458(9) 0.1708(5)
O2 O 0.1831(20) -0.4072(16) 0.1631(6)
O3 O 0.7718(17) 0.1351(17) 0.2500
C1 C 0.3884(20) -0.1572(14) 0.1054(6)
C2 C 0.2830(22) -0.2521(15) 0.0679(7)
C3 C 0.1937(29) -0.3636(18) 0.1018(10)
C4 C 0.4982(29) -0.0486(27) 0.0629(8)
C5 C 0.0626(26) -0.4472(36) 0.0552(11)
C6 C 0.4750(19) 0.3069(14) 0.2141(7)
C7 C 0.6493(20) 0.3613(15) 0.1902(8)
C8 C 0.6649(21) 0.5303(14) 0.2154(9)
C9 C 0.7583(27) 0.2910(21) 0.2500
C10 C 0.9374(24) 0.0580(26) 0.2500
C11 C 0.8886(46) -0.0997(3) 0.2500
C12 C 1.0356(28) 0.1042(29) 0.1866(13)
F1 F 0.4867(25) -0.0530(13) -0.0042(7)
F2 F 0.4188(31) 0.0964(24) 0.0738(10)
F3 F 0.6280(48) -0.0090(30) 0.0873(15)
F4 F -0.0589(48) -0.4969(36) 0.0798(15)
F5 F 0.0692(26) -0.4286(19) -0.0112(9)
F6 F 0.1317(44) -0.6065(33) 0.0527(15)
O1A O 0.4104(16) -0.1458(9) 0.3292(5)
C6A C 0.4750(19) 0.3069(14) 0.2859(7)
O2A O 0.1831(20) -0.4072(16) 0.3369(6)
C8A C 0.6649(21) -0.4697(14) 0.2846(9)
C8_2 C 0.6649(21) -0.4697(14) 0.2154(9)
C7A C 0.6493(20) 0.3613(15) 0.3098(8)
C12A C 1.0356(28) 0.1042(29) 0.3134(13)
C1A C 0.3884(20) -0.1572(14) 0.3946(6)
C3A C 0.1937(29) -0.3636(18) 0.3982(10)
Ag2_2 Ag 0.3854(3) 0.6313(2) 0.2500
C8A_2 C 0.6649(21) 0.5303(14) 0.2846(9)
C2A C 0.2830(22) -0.2521(15) 0.4321(7)
C4A C 0.4982(29) -0.0486(27) 0.4371(8)
C5A C 0.0626(26) -0.4472(36) 0.4448(11)
F1A F 0.4867(25) -0.0530(13) 0.5042(7)
F2A F 0.4188(31) 0.0964(24) 0.4262(10)
F3A F 0.6280(48) -0.0090(30) 0.4127(15)
F4A F -0.0589(48) -0.4969(36) 0.4202(15)
F5A F 0.0692(26) -0.4286(19) 0.5112(9)
F6A F 0.1317(44) -0.6065(33) 0.4473(15)
loop_
_geom_bond_atom_site_label_1
_geom_bond_atom_site_label_2
_geom_bond_site_symmetry_1
_geom_bond_site_symmetry_2
Ag1 O1 1_555 1_555
Ag2 O1 1_555 1_555
O1 C1 1_555 1_555
O2 Ag2 1_555 1_555
O3 Ag1 1_555 1_555
C1 C2 1_555 1_555
C2 C3 1_555 1_555
C3 O2 1_555 1_555
C4 C1 1_555 1_555
C5 C3 1_555 1_555
C6 Ag1 1_555 1_555
C7 C6 1_555 1_555
C8 C7 1_555 1_555
C9 O3 1_555 1_555
C10 O3 1_555 1_555
C11 C10 1_555 1_555
C12 C10 1_555 1_555
F1 C4 1_555 1_555
F2 C4 1_555 1_555
F3 C4 1_555 1_555
F4 C5 1_555 1_555
F5 C5 1_555 1_555
F6 C5 1_555 1_555
O1A Ag1 1_555 1_555
C6A Ag1 1_555 1_555
O2A Ag2 1_555 1_555
C8A Ag2 1_555 1_555
C8_2 Ag2 1_555 1_555
C7A C9 1_555 1_555
C12A C10 1_555 1_555
C1A O1A 1_555 1_555
C3A O2A 1_555 1_555
Ag2_2 C8 1_555 1_555
C8A_2 C8 1_555 1_555
C2A C1A 1_555 1_555
C4A C1A 1_555 1_555
C5A C3A 1_555 1_555
F1A C4A 1_555 1_555
F2A C4A 1_555 1_555
F3A C4A 1_555 1_555
F4A C5A 1_555 1_555
F5A C5A 1_555 1_555
F6A C5A 1_555 1_555
Ag2 O1A 1_555 1_555
C6 C6A 1_555 1_555
C7 C9 1_555 1_555
C6A C7A 1_555 1_555
C8A C8_2 1_555 1_555
C7A C8A_2 1_555 1_555
C3A C2A 1_555 1_555
Ag2_2 C8A_2 1_555 1_555

#END
