
#######################################################################
#
#                 Cambridge Crystallographic Data Centre
#                                CCDC 
#
#######################################################################
#
# If this CIF has been generated from an entry in the Cambridge 
# Structural Database, then it will include bibliographic, chemical, 
# crystal, experimental, refinement or atomic coordinate data resulting 
# from the CCDC's data processing and validation procedures.
#
#######################################################################

data_RUQVIJ
_symmetry_cell_setting           monoclinic
_symmetry_space_group_name_H-M   'P 21/c'
_symmetry_Int_Tables_number      14
_space_group_name_Hall           '-P 2ybc'
loop_
_symmetry_equiv_pos_site_id
_symmetry_equiv_pos_as_xyz
1 x,y,z
2 -x,1/2+y,1/2-z
3 -x,-y,-z
4 x,1/2-y,1/2+z
_cell_length_a                   9.946(3)
_cell_length_b                   12.433(3)
_cell_length_c                   6.8661(17)
_cell_angle_alpha                90
_cell_angle_beta                 91.958(4)
_cell_angle_gamma                90
_cell_volume                     848.557
loop_
_atom_site_label
_atom_site_type_symbol
_atom_site_fract_x
_atom_site_fract_y
_atom_site_fract_z
Mn1 Mn 0.40569(7) 0.93638(6) 0.82015(11)
Na1 Na -0.64933(19) 1.23920(16) 0.4818(3)
O1 O 0.2018(3) 0.9685(3) 0.7993(5)
O2 O -0.4203(3) 1.2725(3) 0.6024(5)
O3 O -0.4081(3) 1.0166(3) 0.8602(5)
O4 O -0.4382(3) 1.1118(3) 0.4707(5)
O5 O 0.2746(3) 1.1326(3) 0.7384(5)
O6 O -0.2832(3) 0.8776(3) 0.7729(5)
C1 C 0.0378(4) 1.0988(4) 0.7133(7)
C2 C -0.0651(5) 1.0263(4) 0.7513(7)
H1 H -0.0432 0.9586 0.8005
C3 C -0.1995(4) 1.0530(4) 0.7173(6)
C4 C -0.2309(4) 1.1541(4) 0.6348(7)
C5 C -0.1290(5) 1.2260(4) 0.5973(7)
H2 H -0.1500 1.2929 0.5440
C6 C 0.0045(5) 1.1990(4) 0.6385(7)
H3 H 0.0721 1.2488 0.6157
C7 C 0.1812(5) 1.0658(4) 0.7525(6)
C8 C -0.3033(4) 0.9763(4) 0.7837(7)
C9 C -0.3720(4) 1.1814(4) 0.5676(6)
Mn1A Mn -0.40569(7) 1.43638(6) 0.67985(11)
Mn1_2 Mn -0.59431(7) 0.93638(6) 0.82015(11)
Mn1B Mn -0.40569(7) 1.06362(6) 1.17985(11)
Mn1B_2 Mn -0.40569(7) 1.06362(6) 0.17985(11)
Na1_2 Na 0.35067(19) 1.23920(16) 0.4818(3)
Na1C Na 0.35067(19) 1.26080(16) 0.9818(3)
Na1A Na -0.35067(19) 0.73920(16) 1.0182(3)
Na1B Na -0.35067(19) 0.76080(16) 0.5182(3)
O2A O 0.4203(3) 0.7725(3) 0.8976(5)
O3_2 O 0.5919(3) 1.0166(3) 0.8602(5)
O3B O 0.4081(3) 0.9834(3) 1.1398(5)
O4B O 0.4382(3) 0.8882(3) 0.5293(5)
O5_2 O -0.7254(3) 1.1326(3) 0.7384(5)
O5C O -0.7254(3) 1.3674(3) 0.2384(5)
O6A O -0.7168(3) 1.3776(3) 0.7271(5)
O6B O -0.7168(3) 1.1224(3) 0.2271(5)
loop_
_geom_bond_atom_site_label_1
_geom_bond_atom_site_label_2
_geom_bond_site_symmetry_1
_geom_bond_site_symmetry_2
Mn1 O1 1_555 1_555
Na1 O2 1_555 1_555
O1 C7 1_555 1_555
O2 C9 1_555 1_555
O3 C8 1_555 1_555
O4 Na1 1_555 1_555
O5 C7 1_555 1_555
O6 C8 1_555 1_555
C1 C2 1_555 1_555
C2 H1 1_555 1_555
C3 C2 1_555 1_555
C4 C3 1_555 1_555
C5 C4 1_555 1_555
H2 C5 1_555 1_555
C6 C1 1_555 1_555
H3 C6 1_555 1_555
C7 C1 1_555 1_555
C8 C3 1_555 1_555
C9 O4 1_555 1_555
Mn1A O2 1_555 1_555
Mn1_2 O3 1_555 1_555
Mn1B O3 1_555 1_555
Mn1B_2 O4 1_555 1_555
Na1_2 O5 1_555 1_555
Na1C O5 1_555 1_555
Na1A O6 1_555 1_555
Na1B O6 1_555 1_555
O2A Mn1 1_555 1_555
O3_2 Mn1 1_555 1_555
O3B Mn1 1_555 1_555
O4B Mn1 1_555 1_555
O5_2 Na1 1_555 1_555
O5C Na1 1_555 1_555
O6A Na1 1_555 1_555
O6B Na1 1_555 1_555
C4 C9 1_555 1_555
C5 C6 1_555 1_555

#END
