
#######################################################################
#
#                 Cambridge Crystallographic Data Centre
#                                CCDC 
#
#######################################################################
#
# If this CIF has been generated from an entry in the Cambridge 
# Structural Database, then it will include bibliographic, chemical, 
# crystal, experimental, refinement or atomic coordinate data resulting 
# from the CCDC's data processing and validation procedures.
#
#######################################################################

data_RUQVOQ
_symmetry_cell_setting           monoclinic
_symmetry_space_group_name_H-M   'C 2/m'
_symmetry_Int_Tables_number      12
_space_group_name_Hall           '-C 2y'
loop_
_symmetry_equiv_pos_site_id
_symmetry_equiv_pos_as_xyz
1 x,y,z
2 -x,y,-z
3 1/2+x,1/2+y,z
4 1/2-x,1/2+y,-z
5 -x,-y,-z
6 x,-y,z
7 1/2-x,1/2-y,-z
8 1/2+x,1/2-y,z
_cell_length_a                   8.3490(4)
_cell_length_b                   18.9527(10)
_cell_length_c                   5.9129(3)
_cell_angle_alpha                90
_cell_angle_beta                 95.581(3)
_cell_angle_gamma                90
_cell_volume                     931.199
loop_
_atom_site_label
_atom_site_type_symbol
_atom_site_fract_x
_atom_site_fract_y
_atom_site_fract_z
Mn1 Mn 0.0000 0.65857(4) 1.0000
V1 V -0.09954(7) 0.81716(3) 1.23259(9)
O1 O -0.1046(3) 0.72999(13) 1.2108(4)
O2 O 0.0000 0.85209(18) 1.0000
O3 O -0.2845(3) 0.84841(13) 1.2162(4)
O4 O 0.0000 0.84474(18) 1.5000
N1 N 0.0940(3) 0.56252(15) 0.8265(4)
C1 C 0.1897(4) 0.5622(2) 0.6580(6)
C2 C 0.0522(5) 0.5000 0.9057(7)
C3 C 0.2408(6) 0.5000 0.5672(9)
H1 H 0.306(7) 0.5000 0.459(10)
H2 H 0.213(4) 0.605(2) 0.598(6)
N1A N -0.0940(3) 0.56252(15) 1.1735(4)
C1A C -0.1897(4) 0.5622(2) 1.3420(6)
C2A C -0.0522(5) 0.5000 1.0943(7)
C3A C -0.2408(6) 0.5000 1.4328(9)
H1A H -0.306(7) 0.5000 1.541(10)
H2A H -0.213(4) 0.605(2) 1.402(6)
N1D N -0.0940(3) 0.43748(15) 1.1735(4)
C1D C -0.1897(4) 0.4378(2) 1.3420(6)
H2D H -0.213(4) 0.395(2) 1.402(6)
N1E N 0.0940(3) 0.43748(15) 0.8265(4)
C1E C 0.1897(4) 0.4378(2) 0.6580(6)
H2E H 0.213(4) 0.395(2) 0.598(6)
V1A V 0.09954(7) 0.81716(3) 0.76741(9)
O1A O 0.1046(3) 0.72999(13) 0.7892(4)
O3A O 0.2845(3) 0.84841(13) 0.7838(4)
Mn1D Mn 0.0000 0.34143(4) 1.0000
V1D V 0.09954(7) 0.18284(3) 0.76741(9)
O1D O 0.1046(3) 0.27001(13) 0.7892(4)
O2D O 0.0000 0.14791(18) 1.0000
O3D O 0.2845(3) 0.15159(13) 0.7838(4)
V1E V -0.09954(7) 0.18284(3) 1.23259(9)
O1E O -0.1046(3) 0.27001(13) 1.2108(4)
O3E O -0.2845(3) 0.15159(13) 1.2162(4)
O4D O 0.0000 0.15526(18) 1.5000
Mn1B Mn -0.5000 0.15857(4) 1.0000
Mn1B_2 Mn 0.5000 0.15857(4) 1.0000
Mn1F Mn -0.5000 0.84143(4) 1.0000
Mn1F_2 Mn 0.5000 0.84143(4) 1.0000
V1A_2 V 0.09954(7) 0.81716(3) 1.76741(9)
V1D_2 V 0.09954(7) 0.18284(3) 1.76741(9)
O3B O 0.2155(3) 0.34841(13) 1.2162(4)
O3C O -0.2155(3) 0.34841(13) 0.7838(4)
O3F O -0.2155(3) 0.65159(13) 0.7838(4)
O3G O 0.2155(3) 0.65159(13) 1.2162(4)
O4_2 O 0.0000 0.84474(18) 0.5000
O4D_2 O 0.0000 0.15526(18) 0.5000
O5 O 0.5797(16) 0.5000 0.901(2)
H3 H 0.5732 0.5367 0.9880
H3E H 0.5732 0.4633 0.9880
H4? H 0.5309 0.4645 0.9575
loop_
_geom_bond_atom_site_label_1
_geom_bond_atom_site_label_2
_geom_bond_site_symmetry_1
_geom_bond_site_symmetry_2
Mn1 O1 1_555 1_555
V1 O1 1_555 1_555
O2 V1 1_555 1_555
O3 V1 1_555 1_555
O4 V1 1_555 1_555
N1 Mn1 1_555 1_555
C1 N1 1_555 1_555
C2 N1 1_555 1_555
C3 C1 1_555 1_555
H1 C3 1_555 1_555
H2 C1 1_555 1_555
O5 H3 1_555 1_555
N1A Mn1 1_555 1_555
C1A N1A 1_555 1_555
C2A C2 1_555 1_555
C3A C1A 1_555 1_555
H1A C3A 1_555 1_555
H2A C1A 1_555 1_555
N1D C2A 1_555 1_555
C1D C3A 1_555 1_555
H2D C1D 1_555 1_555
N1E C2 1_555 1_555
C1E C3 1_555 1_555
H2E C1E 1_555 1_555
V1A O2 1_555 1_555
O1A Mn1 1_555 1_555
O3A V1A 1_555 1_555
Mn1D N1D 1_555 1_555
V1D O1D 1_555 1_555
O1D Mn1D 1_555 1_555
O2D V1D 1_555 1_555
O3D V1D 1_555 1_555
V1E O2D 1_555 1_555
O1E Mn1D 1_555 1_555
O3E V1E 1_555 1_555
O4D V1E 1_555 1_555
Mn1B O3E 1_555 1_555
Mn1B_2 O3D 1_555 1_555
Mn1F O3 1_555 1_555
Mn1F_2 O3A 1_555 1_555
V1A_2 O4 1_555 1_555
V1D_2 O4D 1_555 1_555
O3B Mn1D 1_555 1_555
O3C Mn1D 1_555 1_555
O3F Mn1 1_555 1_555
O3G Mn1 1_555 1_555
O4_2 V1A 1_555 1_555
O4D_2 V1D 1_555 1_555
H3E O5 1_555 1_555
N1A C2A 1_555 1_555
N1D C1D 1_555 1_555
N1E C1E 1_555 1_555
N1E Mn1D 1_555 1_555
V1A O1A 1_555 1_555
V1E O1E 1_555 1_555

#END
