
#######################################################################
#
#                 Cambridge Crystallographic Data Centre
#                                CCDC 
#
#######################################################################
#
# If this CIF has been generated from an entry in the Cambridge 
# Structural Database, then it will include bibliographic, chemical, 
# crystal, experimental, refinement or atomic coordinate data resulting 
# from the CCDC's data processing and validation procedures.
#
#######################################################################

data_RUQVUW
_symmetry_cell_setting           triclinic
_symmetry_space_group_name_H-M   'P -1'
_symmetry_Int_Tables_number      2
_space_group_name_Hall           '-P 1'
loop_
_symmetry_equiv_pos_site_id
_symmetry_equiv_pos_as_xyz
1 x,y,z
2 -x,-y,-z
_cell_length_a                   6.9073(12)
_cell_length_b                   11.2110(19)
_cell_length_c                   13.094(3)
_cell_angle_alpha                106.749(14)
_cell_angle_beta                 102.050(14)
_cell_angle_gamma                106.448(10)
_cell_volume                     883.452
loop_
_atom_site_label
_atom_site_type_symbol
_atom_site_fract_x
_atom_site_fract_y
_atom_site_fract_z
Mn1 Mn 0.94993(8) 0.74716(5) 0.76906(4)
V1 V 1.49479(9) 1.17910(6) 1.15093(5)
V2 V 1.33950(9) 1.06943(5) 0.87054(5)
O1 O 1.7450(4) 1.2758(2) 1.2169(2)
O2 O 1.3480(4) 1.2334(2) 1.2246(2)
O3 O 1.4720(4) 1.0139(2) 1.1452(2)
O4 O 1.4205(4) 1.1823(2) 1.0131(2)
O5 O 1.3356(4) 1.1502(2) 0.7869(2)
N1 N 0.7838(4) 0.5327(3) 0.6730(2)
O6 O 1.0982(4) 0.9527(2) 0.8329(2)
N2 N 0.9088(5) 0.6501(3) 0.8944(3)
N3 N 0.9062(5) 0.7141(3) 0.5859(3)
C1 C 0.7411(5) 0.4840(3) 0.5621(3)
C2 C 0.7820(5) 0.5186(3) 0.8510(3)
C3 C 0.7289(5) 0.4500(3) 0.7279(3)
C4 C 0.8081(5) 0.5868(3) 0.5124(3)
C5 C 0.9658(6) 0.7169(4) 1.0051(3)
H1 H 1.0545 0.8089 1.0354
C6 C 0.7717(6) 0.5544(4) 0.3976(3)
H2 H 0.7016 0.4641 0.3467
C7 C 0.6326(6) 0.3119(4) 0.6708(3)
H3 H 0.5987 0.2537 0.7101
C8 C 0.8396(6) 0.6563(4) 0.3590(3)
H4 H 0.8152 0.6366 0.2808
C9 C 0.9738(6) 0.8114(4) 0.5473(3)
H5 H 1.0457 0.9010 0.5996
C10 C 0.7682(6) 0.5246(4) 1.0329(3)
H6 H 0.7194 0.4819 1.0806
C11 C 0.5876(6) 0.2616(4) 0.5552(3)
H7 H 0.5198 0.1679 0.5143
C12 C 0.7068(6) 0.4544(4) 0.9189(3)
H8 H 0.6142 0.3631 0.8871
C13 C 0.6407(6) 0.3468(4) 0.4991(3)
H9 H 0.6098 0.3130 0.4198
C14 C 0.9431(6) 0.7867(4) 0.4342(3)
H10 H 0.9919 0.8577 0.4090
C15 C 0.9008(6) 0.6573(4) 1.0773(3)
H11 H 0.9467 0.7069 1.1558
Mn1A Mn 1.05007(8) 1.25284(5) 1.23094(4)
Mn1A_2 Mn 2.05007(8) 1.25284(5) 1.23094(4)
V2A V 1.66050(9) 0.93057(5) 1.12946(5)
O1A O 1.2550(4) 0.7242(2) 0.7831(2)
O2A O 0.6520(4) 0.7666(2) 0.7754(2)
O3A O 1.5280(4) 0.9861(2) 0.8548(2)
O7 O 0.7815(5) 1.0409(3) 0.7063(3)
H12 H 0.6859 1.0219 0.7391
H13 H 0.8919 1.0253 0.7363
loop_
_geom_bond_atom_site_label_1
_geom_bond_atom_site_label_2
_geom_bond_site_symmetry_1
_geom_bond_site_symmetry_2
Mn1 N1 1_555 1_555
V1 O1 1_555 1_555
V2 O4 1_555 1_555
O1 Mn1A_2 1_555 1_555
O2 V1 1_555 1_555
O3 V1 1_555 1_555
O4 V1 1_555 1_555
O5 V2 1_555 1_555
N1 C1 1_555 1_555
O6 Mn1 1_555 1_555
N2 Mn1 1_555 1_555
N3 Mn1 1_555 1_555
C1 C4 1_555 1_555
C2 N2 1_555 1_555
C3 N1 1_555 1_555
C4 N3 1_555 1_555
C5 N2 1_555 1_555
H1 C5 1_555 1_555
C6 C4 1_555 1_555
H2 C6 1_555 1_555
C7 C3 1_555 1_555
H3 C7 1_555 1_555
C8 C6 1_555 1_555
H4 C8 1_555 1_555
C9 N3 1_555 1_555
H5 C9 1_555 1_555
C10 H6 1_555 1_555
C11 C7 1_555 1_555
H7 C11 1_555 1_555
C12 C2 1_555 1_555
H8 C12 1_555 1_555
C13 C1 1_555 1_555
H9 C13 1_555 1_555
C14 C8 1_555 1_555
H10 C14 1_555 1_555
C15 C5 1_555 1_555
H11 C15 1_555 1_555
O7 H12 1_555 1_555
H13 O7 1_555 1_555
Mn1A O2 1_555 1_555
V2A O3 1_555 1_555
O1A Mn1 1_555 1_555
O2A Mn1 1_555 1_555
O3A V2 1_555 1_555
V2 O6 1_555 1_555
C2 C3 1_555 1_555
C9 C14 1_555 1_555
C10 C12 1_555 1_555
C10 C15 1_555 1_555
C11 C13 1_555 1_555

#END
