
#######################################################################
#
#                 Cambridge Crystallographic Data Centre
#                                CCDC 
#
#######################################################################
#
# If this CIF has been generated from an entry in the Cambridge 
# Structural Database, then it will include bibliographic, chemical, 
# crystal, experimental, refinement or atomic coordinate data resulting 
# from the CCDC's data processing and validation procedures.
#
#######################################################################

data_RUQWAD01
_symmetry_cell_setting           orthorhombic
_symmetry_space_group_name_H-M   'P b c a'
_symmetry_Int_Tables_number      61
_space_group_name_Hall           '-P 2ac 2ab'
loop_
_symmetry_equiv_pos_site_id
_symmetry_equiv_pos_as_xyz
1 x,y,z
2 1/2-x,-y,1/2+z
3 -x,1/2+y,1/2-z
4 1/2+x,1/2-y,-z
5 -x,-y,-z
6 1/2+x,y,1/2-z
7 x,1/2-y,1/2+z
8 1/2-x,1/2+y,z
_cell_length_a                   13.741(3)
_cell_length_b                   9.3460(19)
_cell_length_c                   20.294(4)
_cell_angle_alpha                90
_cell_angle_beta                 90
_cell_angle_gamma                90
_cell_volume                     2606.22
loop_
_atom_site_label
_atom_site_type_symbol
_atom_site_fract_x
_atom_site_fract_y
_atom_site_fract_z
C1 C 1.02011(16) 0.1704(2) 0.54299(11)
C2 C 1.04941(17) 0.2158(3) 0.48082(11)
H1 H 1.1041 0.1767 0.4607
C3 C 0.9951(2) 0.3207(3) 0.44962(11)
H2 H 1.0125 0.3510 0.4076
C4 C 0.91506(18) 0.3808(3) 0.48055(12)
H3 H 0.8785 0.4517 0.4601
C5 C 0.89122(16) 0.3318(2) 0.54306(12)
C6 C 1.07055(16) 0.0613(2) 0.58415(10)
C7 C 1.15509(17) -0.0121(3) 0.56722(11)
H4 H 1.1851 0.0036 0.5268
C8 C 1.19340(17) -0.1082(3) 0.61143(12)
H5 H 1.2499 -0.1579 0.6008
C9 C 1.14857(19) -0.1318(3) 0.67171(11)
H6 H 1.1745 -0.1956 0.7022
C10 C 1.06384(16) -0.0569(2) 0.68479(11)
C11 C 0.81447(16) 0.3871(2) 0.58671(10)
C12 C 1.00432(15) -0.0647(2) 0.74505(10)
N1 N 0.94183(13) 0.22634(19) 0.57199(8)
N2 N 1.02723(13) 0.03835(19) 0.64215(8)
N3 N 0.79867(14) 0.3221(2) 0.64445(10)
N4 N 0.72922(16) 0.3957(2) 0.67484(9)
N5 N 0.70438(14) 0.5024(2) 0.63644(9)
N6 N 0.75710(14) 0.5007(2) 0.58002(9)
N7 N 0.93401(14) 0.03126(19) 0.75398(9)
N8 N 0.89129(14) -0.0028(2) 0.81129(10)
N9 N 0.93448(17) -0.1148(3) 0.83565(9)
N10 N 1.00696(15) -0.1577(2) 0.79433(9)
Fe1 Fe 0.90172(2) 0.16246(3) 0.670682(15)
N5G N 0.79562(14) 0.0024(2) 0.63644(9)
N10B N 0.99304(15) 0.3423(2) 0.70567(9)
Fe1B Fe 1.09828(2) -0.33754(3) 0.829318(15)
Fe1G Fe 0.59828(2) 0.66246(3) 0.670682(15)
loop_
_geom_bond_atom_site_label_1
_geom_bond_atom_site_label_2
_geom_bond_site_symmetry_1
_geom_bond_site_symmetry_2
C1 C2 1_555 1_555
C2 H1 1_555 1_555
C3 C2 1_555 1_555
H2 C3 1_555 1_555
C4 C3 1_555 1_555
H3 C4 1_555 1_555
C5 C4 1_555 1_555
C6 C1 1_555 1_555
C7 C6 1_555 1_555
H4 C7 1_555 1_555
C8 C7 1_555 1_555
H5 C8 1_555 1_555
C9 C8 1_555 1_555
H6 C9 1_555 1_555
C10 C9 1_555 1_555
C11 C5 1_555 1_555
C12 C10 1_555 1_555
N1 C1 1_555 1_555
N2 C6 1_555 1_555
N3 C11 1_555 1_555
N4 N3 1_555 1_555
N5 N4 1_555 1_555
N6 C11 1_555 1_555
N7 C12 1_555 1_555
N8 N7 1_555 1_555
N9 N8 1_555 1_555
N10 C12 1_555 1_555
Fe1 N1 1_555 1_555
N5G Fe1 1_555 1_555
N10B Fe1 1_555 1_555
Fe1B N10 1_555 1_555
Fe1G N5 1_555 1_555
C5 N1 1_555 1_555
C10 N2 1_555 1_555
N2 Fe1 1_555 1_555
N3 Fe1 1_555 1_555
N5 N6 1_555 1_555
N7 Fe1 1_555 1_555
N9 N10 1_555 1_555

#END
