
#######################################################################
#
#                 Cambridge Crystallographic Data Centre
#                                CCDC 
#
#######################################################################
#
# If this CIF has been generated from an entry in the Cambridge 
# Structural Database, then it will include bibliographic, chemical, 
# crystal, experimental, refinement or atomic coordinate data resulting 
# from the CCDC's data processing and validation procedures.
#
#######################################################################

data_RUQWOQ
_symmetry_cell_setting           trigonal
_symmetry_space_group_name_H-M   'P 32 2 1'
_symmetry_Int_Tables_number      154
_space_group_name_Hall           'P 32 2"'
loop_
_symmetry_equiv_pos_site_id
_symmetry_equiv_pos_as_xyz
1 x,y,z
2 -y,x-y,2/3+z
3 -x+y,-x,1/3+z
4 y,x,-z
5 x-y,-y,1/3-z
6 -x,-x+y,2/3-z
_cell_length_a                   25.262(6)
_cell_length_b                   25.262(6)
_cell_length_c                   32.106(11)
_cell_angle_alpha                90
_cell_angle_beta                 90
_cell_angle_gamma                120
_cell_volume                     17744
loop_
_atom_site_label
_atom_site_type_symbol
_atom_site_fract_x
_atom_site_fract_y
_atom_site_fract_z
Gd1 Gd 0.44704(8) 0.37943(6) 0.71077(5)
Gd2 Gd 0.30684(6) 0.07132(5) 0.88395(4)
Cu1 Cu 0.48633(14) 0.30234(13) 0.77954(9)
Cu2 Cu 0.60815(16) 0.61663(14) 0.81798(9)
O1 O 0.3598(8) 0.1634(7) 0.8523(6)
O2 O 0.4238(7) 0.3252(6) 0.7784(5)
O3 O 0.5288(7) 0.3639(6) 0.7376(5)
O4 O 0.5597(10) 0.4378(9) 0.6781(6)
O5 O 0.4648(11) 0.3247(8) 0.6620(6)
O6 O 0.3597(10) 0.2969(8) 0.6984(7)
O7 O 0.4346(9) 0.4184(8) 0.6503(8)
O8 O 0.3714(9) 0.4034(9) 0.7216(7)
O9 O 0.4972(9) 0.4722(10) 0.7405(6)
O10 O 0.5971(9) 0.6625(7) 0.7751(5)
O11 O 0.6665(8) 0.6961(6) 0.8406(5)
O12 O 0.7387(8) 0.8058(8) 0.8573(6)
O13 O 0.2323(9) -0.0277(8) 0.8737(7)
O14 O 0.2209(9) 0.0752(8) 0.8941(8)
O15 O 0.2920(9) 0.0204(8) 0.9432(5)
O16 O 0.3331(8) 0.1441(7) 0.9346(5)
N1 N 0.4418(8) 0.2319(8) 0.8132(5)
N2 N 0.5498(9) 0.2828(9) 0.7801(7)
N3 N 0.5605(11) 0.5389(8) 0.7902(6)
N4 N 0.6154(11) 0.5701(10) 0.8637(6)
C1 C 0.3795(11) 0.3061(10) 0.8069(7)
C2 C 0.3553(14) 0.3450(13) 0.8126(9)
C3 C 0.3076(13) 0.3274(12) 0.8374(9)
C4 C 0.2802(18) 0.2710(18) 0.8692(12)
C5 C 0.3114(13) 0.2328(13) 0.8579(9)
C6 C 0.3632(9) 0.2531(9) 0.8323(6)
C7 C 0.3887(11) 0.2152(11) 0.8305(7)
C8 C 0.4680(10) 0.1908(10) 0.8114(7)
C9 C 0.4496(11) 0.1560(11) 0.7776(8)
C10 C 0.4777(13) 0.1124(13) 0.7704(9)
C11 C 0.4628(14) 0.0799(13) 0.7348(10)
C12 C 0.428(2) 0.085(2) 0.7099(14)
C13 C 0.3940(15) 0.1162(15) 0.7075(10)
C14 C 0.4054(15) 0.1572(15) 0.7482(11)
C15 C 0.5385(12) 0.2330(12) 0.8158(9)
C16 C 0.5600(13) 0.2651(13) 0.8570(9)
C17 C 0.614(2) 0.263(2) 0.8679(15)
C18 C 0.643(2) 0.301(2) 0.9003(17)
C19 C 0.625(2) 0.332(2) 0.9286(15)
C20 C 0.568(2) 0.331(2) 0.9211(14)
C21 C 0.5377(16) 0.2914(16) 0.8782(11)
C22 C 0.5988(14) 0.3031(14) 0.7559(10)
C23 C 0.6075(13) 0.3450(13) 0.7258(9)
C24 C 0.6672(18) 0.3617(18) 0.7015(12)
C25 C 0.6861(17) 0.4066(18) 0.6688(11)
C26 C 0.6513(18) 0.4311(17) 0.6649(11)
C27 C 0.5948(15) 0.4145(15) 0.6873(10)
C28 C 0.5821(12) 0.3740(11) 0.7179(8)
C29 C 0.5830(19) 0.497(2) 0.6560(13)
C30 C 0.4403 0.2835 0.6352
C31 C 0.4780 0.2706 0.6039
C32 C 0.5408 0.2895 0.6226
C33 C 0.4449 0.2023 0.5937
C34 C 0.4862 0.3070 0.5640
C35 C 0.3713 0.2448 0.6363
C36 C 0.3353 0.2495 0.6666
C37 C 0.2666 0.2039 0.6656
C38 C 0.2320 0.2339 0.6838
C39 C 0.2529 0.1476 0.6915
C40 C 0.2463 0.1847 0.6206
C41 C 0.3956 0.4240 0.6351
C42 C 0.3972 0.4273 0.5884
C43 C 0.4226 0.3880 0.5712
C44 C 0.4381 0.4936 0.5746
C45 C 0.3324 0.4035 0.5718
C46 C 0.3506 0.4303 0.6552
C47 C 0.3389 0.4194 0.6981
C48 C 0.2865 0.4237 0.7164
C49 C 0.2284 0.3611 0.7143
C50 C 0.3007 0.4443 0.7618
C51 C 0.2771 0.4701 0.6917
C52 C 0.5558(12) 0.6373(12) 0.7450(9)
C53 C 0.5380(18) 0.6794(18) 0.7322(12)
C54 C 0.488(2) 0.661(2) 0.6997(16)
C55 C 0.466(2) 0.597(2) 0.6812(14)
C56 C 0.4751(19) 0.550(2) 0.7078(13)
C57 C 0.5250(13) 0.5754(13) 0.7362(9)
C58 C 0.5269(12) 0.5230(12) 0.7559(9)
C59 C 0.5726(11) 0.4934(12) 0.8101(8)
C60 C 0.6259 0.4909 0.7962
C61 C 0.6419 0.4499 0.8134
C62 C 0.6941 0.4494 0.7993
C63 C 0.7303 0.4898 0.7681
C64 C 0.7144 0.5308 0.7508
C65 C 0.6622 0.5314 0.7649
C66 C 0.5813(15) 0.5034(14) 0.8599(10)
C67 C 0.6525(14) 0.5957(14) 0.8929(10)
C68 C 0.4843 0.4798 0.8501
C69 C 0.4247 0.4528 0.8658
C70 C 0.4117 0.4266 0.9056
C71 C 0.4593 0.4274 0.9302
C72 C 0.5186 0.4545 0.9140
C73 C 0.5309 0.4806 0.8742
C74 C 0.6935(13) 0.6599(14) 0.9002(9)
C75 C 0.7286(14) 0.6768(14) 0.9385(10)
C76 C 0.7607(17) 0.7315(17) 0.9485(12)
C77 C 0.7749(13) 0.7833(13) 0.9201(9)
C78 C 0.7393(12) 0.7657(12) 0.8868(9)
C79 C 0.6964(12) 0.7016(12) 0.8781(9)
C80 C 0.7805(14) 0.8705(15) 0.8658(10)
C81 C 0.1813 -0.0560 0.8767
C82 C 0.1565 -0.1250 0.8767
C83 C 0.2054 -0.1382 0.8936
C84 C 0.1398 -0.1495 0.8322
C85 C 0.0996 -0.1564 0.9043
C86 C 0.1329 -0.0343 0.8827
C87 C 0.1614 0.0291 0.8978
C88 C 0.1174 0.0454 0.9194
C89 C 0.1155 0.0322 0.9660
C90 C 0.0534 0.0070 0.9008
C91 C 0.1395 0.1133 0.9128
C92 C 0.2904 0.0339 0.9812
C93 C 0.2743 -0.0191 1.0111
C94 C 0.2975 -0.0600 0.9934
C95 C 0.3044 0.0062 1.0534
C96 C 0.2049 -0.0565 1.0166
C97 C 0.2999 0.0881 1.0022
C98 C 0.3216 0.1446 0.9752
C99 C 0.3293 0.2032 0.9950
C100 C 0.3945 0.2414 1.0118
C101 C 0.3175 0.2401 0.9623
C102 C 0.2837 0.1866 1.0308
Gd2E Gd 0.69316(6) 0.76448(8) 0.78272(4)
O10E O 0.4029(9) 0.0654(11) 0.8916(5)
O11E O 0.3335(8) 0.0296(10) 0.8261(5)
O12E O 0.2613(8) 0.0671(11) 0.8094(6)
loop_
_geom_bond_atom_site_label_1
_geom_bond_atom_site_label_2
_geom_bond_site_symmetry_1
_geom_bond_site_symmetry_2
Gd1 O2 1_555 1_555
Gd2 O1 1_555 1_555
Cu1 O2 1_555 1_555
Cu2 O10 1_555 1_555
O1 C7 1_555 1_555
O2 C1 1_555 1_555
O3 Gd1 1_555 1_555
O4 Gd1 1_555 1_555
O5 Gd1 1_555 1_555
O6 Gd1 1_555 1_555
O7 Gd1 1_555 1_555
O8 Gd1 1_555 1_555
O9 Gd1 1_555 1_555
O10 C52 1_555 1_555
O11 Cu2 1_555 1_555
O12 C78 1_555 1_555
O13 Gd2 1_555 1_555
O14 Gd2 1_555 1_555
O15 Gd2 1_555 1_555
O16 Gd2 1_555 1_555
N1 Cu1 1_555 1_555
N2 Cu1 1_555 1_555
N3 Cu2 1_555 1_555
N4 Cu2 1_555 1_555
C1 C2 1_555 1_555
C2 C3 1_555 1_555
C3 C4 1_555 1_555
C4 C5 1_555 1_555
C5 C6 1_555 1_555
C6 C1 1_555 1_555
C7 N1 1_555 1_555
C8 N1 1_555 1_555
C9 C8 1_555 1_555
C10 C9 1_555 1_555
C11 C10 1_555 1_555
C12 C11 1_555 1_555
C13 C12 1_555 1_555
C14 C9 1_555 1_555
C15 N2 1_555 1_555
C16 C15 1_555 1_555
C17 C16 1_555 1_555
C18 C17 1_555 1_555
C19 C18 1_555 1_555
C20 C19 1_555 1_555
C21 C16 1_555 1_555
C22 N2 1_555 1_555
C23 C22 1_555 1_555
C24 C23 1_555 1_555
C25 C24 1_555 1_555
C26 C25 1_555 1_555
C27 O4 1_555 1_555
C28 O3 1_555 1_555
C29 O4 1_555 1_555
C30 O5 1_555 1_555
C31 C30 1_555 1_555
C32 C31 1_555 1_555
C33 C31 1_555 1_555
C34 C31 1_555 1_555
C35 C30 1_555 1_555
C36 O6 1_555 1_555
C37 C36 1_555 1_555
C38 C37 1_555 1_555
C39 C37 1_555 1_555
C40 C37 1_555 1_555
C41 O7 1_555 1_555
C42 C41 1_555 1_555
C43 C42 1_555 1_555
C44 C42 1_555 1_555
C45 C42 1_555 1_555
C46 C41 1_555 1_555
C47 O8 1_555 1_555
C48 C47 1_555 1_555
C49 C48 1_555 1_555
C50 C48 1_555 1_555
C51 C48 1_555 1_555
C52 C53 1_555 1_555
C53 C54 1_555 1_555
C54 C55 1_555 1_555
C55 C56 1_555 1_555
C56 C57 1_555 1_555
C57 C52 1_555 1_555
C58 O9 1_555 1_555
C59 N3 1_555 1_555
C60 C59 1_555 1_555
C61 C60 1_555 1_555
C62 C61 1_555 1_555
C63 C62 1_555 1_555
C64 C63 1_555 1_555
C65 C60 1_555 1_555
C66 N4 1_555 1_555
C67 N4 1_555 1_555
C68 C69 1_555 1_555
C69 C70 1_555 1_555
C70 C71 1_555 1_555
C71 C72 1_555 1_555
C72 C73 1_555 1_555
C73 C66 1_555 1_555
C74 C67 1_555 1_555
C75 C74 1_555 1_555
C76 C75 1_555 1_555
C77 C76 1_555 1_555
C78 C77 1_555 1_555
C79 O11 1_555 1_555
C80 O12 1_555 1_555
C81 O13 1_555 1_555
C82 C81 1_555 1_555
C83 C82 1_555 1_555
C84 C82 1_555 1_555
C85 C82 1_555 1_555
C86 C81 1_555 1_555
C87 O14 1_555 1_555
C88 C87 1_555 1_555
C89 C88 1_555 1_555
C90 C88 1_555 1_555
C91 C88 1_555 1_555
C92 O15 1_555 1_555
C93 C92 1_555 1_555
C94 C93 1_555 1_555
C95 C93 1_555 1_555
C96 C93 1_555 1_555
C97 C92 1_555 1_555
C98 O16 1_555 1_555
C99 C98 1_555 1_555
C100 C99 1_555 1_555
C101 C99 1_555 1_555
C102 C99 1_555 1_555
Gd2E O10 1_555 1_555
O10E Gd2 1_555 1_555
O11E Gd2 1_555 1_555
O12E Gd2 1_555 1_555
Cu1 O3 1_555 1_555
O11 Gd2E 1_555 1_555
O12 Gd2E 1_555 1_555
N3 C58 1_555 1_555
C6 C7 1_555 1_555
C8 C15 1_555 1_555
C13 C14 1_555 1_555
C20 C21 1_555 1_555
C23 C28 1_555 1_555
C26 C27 1_555 1_555
C27 C28 1_555 1_555
C35 C36 1_555 1_555
C46 C47 1_555 1_555
C57 C58 1_555 1_555
C59 C66 1_555 1_555
C64 C65 1_555 1_555
C68 C73 1_555 1_555
C74 C79 1_555 1_555
C78 C79 1_555 1_555
C86 C87 1_555 1_555
C97 C98 1_555 1_555

#END
