
#######################################################################
#
#                 Cambridge Crystallographic Data Centre
#                                CCDC 
#
#######################################################################
#
# If this CIF has been generated from an entry in the Cambridge 
# Structural Database, then it will include bibliographic, chemical, 
# crystal, experimental, refinement or atomic coordinate data resulting 
# from the CCDC's data processing and validation procedures.
#
#######################################################################

data_RUQWAD
_symmetry_cell_setting           orthorhombic
_symmetry_space_group_name_H-M   'P b c a'
_symmetry_Int_Tables_number      61
_space_group_name_Hall           '-P 2ac 2ab'
loop_
_symmetry_equiv_pos_site_id
_symmetry_equiv_pos_as_xyz
1 x,y,z
2 1/2-x,-y,1/2+z
3 -x,1/2+y,1/2-z
4 1/2+x,1/2-y,-z
5 -x,-y,-z
6 1/2+x,y,1/2-z
7 x,1/2-y,1/2+z
8 1/2-x,1/2+y,z
_cell_length_a                   13.861(3)
_cell_length_b                   8.2450(16)
_cell_length_c                   20.792(4)
_cell_angle_alpha                90
_cell_angle_beta                 90
_cell_angle_gamma                90
_cell_volume                     2376.19
loop_
_atom_site_label
_atom_site_type_symbol
_atom_site_fract_x
_atom_site_fract_y
_atom_site_fract_z
C1 C 1.01350(16) 0.1783(3) 0.54875(11)
C2 C 1.03527(16) 0.2225(3) 0.48571(10)
H1 H 1.0900 0.1821 0.4654
C3 C 0.97357(17) 0.3284(3) 0.45386(11)
H2 H 0.9862 0.3579 0.4115
C4 C 0.89281(16) 0.3902(3) 0.48539(11)
H3 H 0.8513 0.4617 0.4646
C5 C 0.87575(16) 0.3430(3) 0.54825(11)
C6 C 1.06923(15) 0.0696(3) 0.59034(10)
C7 C 1.15543(16) -0.0074(3) 0.57568(10)
H4 H 1.1834 0.0046 0.5353
C8 C 1.19910(15) -0.1025(3) 0.62236(11)
H5 H 1.2575 -0.1533 0.6136
C9 C 1.15571(16) -0.1220(3) 0.68228(11)
H6 H 1.1850 -0.1840 0.7142
C10 C 1.06778(15) -0.0467(3) 0.69314(10)
C11 C 0.79973(15) 0.3944(3) 0.59238(10)
C12 C 1.00596(16) -0.0504(3) 0.75020(11)
N1 N 0.93480(14) 0.2370(2) 0.57846(9)
N2 N 1.02654(13) 0.0489(2) 0.64815(9)
N3 N 0.79978(14) 0.3321(2) 0.65280(9)
N4 N 0.72439(14) 0.4000(3) 0.68228(10)
N5 N 0.68265(13) 0.4997(2) 0.64104(9)
N6 N 0.72829(13) 0.4999(2) 0.58358(9)
N7 N 0.93073(13) 0.0521(2) 0.75099(9)
N8 N 0.88269(14) 0.0207(2) 0.80576(9)
N9 N 0.92721(14) -0.0967(3) 0.83668(9)
N10 N 1.00587(13) -0.1441(2) 0.80238(9)
Fe1 Fe 0.91224(2) 0.17161(4) 0.665950(15)
N5G N 0.81735(13) -0.0003(2) 0.64104(9)
N10B N 0.99413(13) 0.3559(2) 0.69762(9)
Fe1B Fe 1.08776(2) -0.32839(4) 0.834050(15)
Fe1G Fe 0.58776(2) 0.67161(4) 0.665950(15)
loop_
_geom_bond_atom_site_label_1
_geom_bond_atom_site_label_2
_geom_bond_site_symmetry_1
_geom_bond_site_symmetry_2
C1 C2 1_555 1_555
C2 H1 1_555 1_555
C3 C2 1_555 1_555
H2 C3 1_555 1_555
C4 C3 1_555 1_555
H3 C4 1_555 1_555
C5 C4 1_555 1_555
C6 C1 1_555 1_555
C7 C6 1_555 1_555
H4 C7 1_555 1_555
C8 C7 1_555 1_555
H5 C8 1_555 1_555
C9 C8 1_555 1_555
H6 C9 1_555 1_555
C10 C9 1_555 1_555
C11 C5 1_555 1_555
C12 C10 1_555 1_555
N1 C1 1_555 1_555
N2 C6 1_555 1_555
N3 C11 1_555 1_555
N4 N3 1_555 1_555
N5 N4 1_555 1_555
N6 C11 1_555 1_555
N7 C12 1_555 1_555
N8 N7 1_555 1_555
N9 N8 1_555 1_555
N10 C12 1_555 1_555
Fe1 N1 1_555 1_555
N5G Fe1 1_555 1_555
N10B Fe1 1_555 1_555
Fe1B N10 1_555 1_555
Fe1G N5 1_555 1_555
C5 N1 1_555 1_555
C10 N2 1_555 1_555
N2 Fe1 1_555 1_555
N3 Fe1 1_555 1_555
N5 N6 1_555 1_555
N7 Fe1 1_555 1_555
N9 N10 1_555 1_555

#END
