
#######################################################################
#
#                 Cambridge Crystallographic Data Centre
#                                CCDC 
#
#######################################################################
#
# If this CIF has been generated from an entry in the Cambridge 
# Structural Database, then it will include bibliographic, chemical, 
# crystal, experimental, refinement or atomic coordinate data resulting 
# from the CCDC's data processing and validation procedures.
#
#######################################################################

data_RURDIS
_symmetry_cell_setting           monoclinic
_symmetry_space_group_name_H-M   'P 21/c'
_symmetry_Int_Tables_number      14
_space_group_name_Hall           '-P 2ybc'
loop_
_symmetry_equiv_pos_site_id
_symmetry_equiv_pos_as_xyz
1 x,y,z
2 -x,1/2+y,1/2-z
3 -x,-y,-z
4 x,1/2-y,1/2+z
_cell_length_a                   11.3896(3)
_cell_length_b                   17.8220(4)
_cell_length_c                   20.4585(4)
_cell_angle_alpha                90
_cell_angle_beta                 99.7460(10)
_cell_angle_gamma                90
_cell_volume                     4092.84
loop_
_atom_site_label
_atom_site_type_symbol
_atom_site_fract_x
_atom_site_fract_y
_atom_site_fract_z
Mn1 Mn 0.61381(7) 0.74242(4) 0.84948(3)
Fe1 Fe 0.59398(6) 0.80748(4) 1.09934(3)
O1 O 0.3039(5) 0.9366(3) 1.0789(3)
O2 O 0.5840(4) 0.5835(2) 1.0983(2)
N1 N 0.6183(4) 0.7941(2) 0.95076(18)
N2 N 0.6070(5) 0.6856(3) 0.7515(2)
N3 N 0.5302(4) 0.7091(2) 1.09527(19)
N4 N 0.4318(4) 0.8358(3) 1.08040(18)
N5 N 0.7482(4) 0.7526(2) 1.11989(19)
N6 N 0.6183(4) 0.9184(2) 1.09538(17)
N7 N 0.5081(6) 0.6475(3) 0.8852(3)
N8 N 0.4193(6) 0.7680(4) 0.8186(3)
N9 N 0.5891(8) 0.8569(4) 0.7946(3)
N10 N 0.8027(7) 0.7982(4) 0.8552(3)
H3 H 0.8114 0.8299 0.8906
N11 N 0.7500(5) 0.6514(4) 0.8947(3)
H4 H 0.7610 0.6200 0.8612
C1 C 0.6104(4) 0.8021(2) 1.0053(2)
C2 C 0.6016(5) 0.6839(3) 0.6955(2)
C3 C 0.4081(5) 0.7047(4) 1.0787(3)
C4 C 0.3515(5) 0.7753(4) 1.0699(3)
C5 C 0.2301(6) 0.7796(5) 1.0499(4)
H5 H 0.1930 0.8260 1.0428
C6 C 0.1627(8) 0.7135(8) 1.0404(5)
H6 H 0.0807 0.7159 1.0266
C7 C 0.2196(9) 0.6440(7) 1.0517(5)
H7 H 0.1748 0.6001 1.0465
C8 C 0.3391(7) 0.6403(5) 1.0701(4)
H8 H 0.3756 0.5936 1.0772
C9 C 0.6078(5) 0.6505(3) 1.1029(2)
C10 C 0.7333(5) 0.6775(3) 1.1165(2)
C11 C 0.8298(6) 0.6283(3) 1.1267(3)
H9 H 0.8173 0.5768 1.1248
C12 C 0.9412(6) 0.6561(4) 1.1395(3)
H10 H 1.0063 0.6239 1.1453
C13 C 0.9584(6) 0.7327(4) 1.1440(4)
H11 H 1.0348 0.7528 1.1528
C14 C 0.8582(5) 0.7793(4) 1.1349(3)
H12 H 0.8690 0.8309 1.1395
C15 C 0.4053(6) 0.9089(4) 1.0821(2)
C16 C 0.5125(6) 0.9554(3) 1.0868(2)
C17 C 0.5069(8) 1.0336(4) 1.0791(3)
H13 H 0.4340 1.0583 1.0739
C18 C 0.6091(8) 1.0729(4) 1.0793(3)
H14 H 0.6066 1.1247 1.0734
C19 C 0.7147(8) 1.0361(4) 1.0881(3)
H15 H 0.7856 1.0623 1.0888
C20 C 0.7158(6) 0.9579(3) 1.0960(3)
H16 H 0.7886 0.9330 1.1019
C21 C 0.3463(8) 0.7206(5) 0.8359(4)
C22 C 0.2165(8) 0.7319(8) 0.8193(6)
H17 H 0.1621 0.6974 0.8308
C23 C 0.1814(10) 0.7980(9) 0.7851(7)
H18 H 0.1008 0.8096 0.7743
C24 C 0.2702(10) 0.8495(8) 0.7659(4)
H19 H 0.2488 0.8925 0.7409
C25 C 0.3831(7) 0.8305(4) 0.7866(3)
C26 C 0.4905(10) 0.8815(5) 0.7745(3)
C27 C 0.4590(13) 0.9573(5) 0.7436(4)
H20 H 0.5218 0.9922 0.7588
H21 H 0.3862 0.9747 0.7561
H22 H 0.4489 0.9530 0.6962
C28 C 0.6968(8) 0.8972(4) 0.7911(4)
H23 H 0.7085 0.9356 0.8251
H24 H 0.6900 0.9218 0.7483
C29 C 0.8096(9) 0.8421(6) 0.8010(5)
H25 H 0.8084 0.8111 0.7620
H26 H 0.8829 0.8709 0.8082
C30 C 0.8938(7) 0.7404(6) 0.8716(5)
H27 H 0.9688 0.7642 0.8897
H28 H 0.9044 0.7146 0.8312
C31 C 0.8635(7) 0.6841(6) 0.9204(5)
H29 H 0.9241 0.6453 0.9276
H30 H 0.8604 0.7083 0.9625
C32 C 0.6969(7) 0.6073(4) 0.9421(3)
H31 H 0.6992 0.6361 0.9825
H32 H 0.7440 0.5623 0.9532
C33 C 0.5713(7) 0.5853(4) 0.9165(3)
H33 H 0.5699 0.5444 0.8850
H34 H 0.5335 0.5681 0.9529
C34 C 0.3907(7) 0.6505(5) 0.8715(4)
C35 C 0.3113(10) 0.5904(6) 0.8872(7)
H35 H 0.2693 0.5692 0.8467
H36 H 0.2551 0.6108 0.9125
H37 H 0.3576 0.5521 0.9125
Fe1C Fe 0.59398(6) 0.69252(4) 0.59934(3)
C2C C 0.6016(5) 0.8161(3) 1.1955(2)
Cl1 Cl 0.0461(2) 0.45948(13) 0.22220(14)
O3 O 0.1488(13) 0.4695(13) 0.2020(14)
O4 O 0.0532(19) 0.3950(6) 0.2450(8)
O5 O 0.0338(11) 0.5228(5) 0.2576(6)
O6 O -0.0328(14) 0.4615(7) 0.1717(9)
O7 O 0.070(3) 0.061(7) 0.044(5)
H1 H 0.1408 0.0652 0.0413
H2 H 0.0311 0.1000 0.0351
loop_
_geom_bond_atom_site_label_1
_geom_bond_atom_site_label_2
_geom_bond_site_symmetry_1
_geom_bond_site_symmetry_2
Mn1 N1 1_555 1_555
Fe1 N3 1_555 1_555
Cl1 O3 1_555 1_555
O1 C15 1_555 1_555
O2 C9 1_555 1_555
O4 Cl1 1_555 1_555
O5 Cl1 1_555 1_555
O6 Cl1 1_555 1_555
O7 H1 1_555 1_555
H2 O7 1_555 1_555
N1 C1 1_555 1_555
N2 Mn1 1_555 1_555
N3 C3 1_555 1_555
N4 Fe1 1_555 1_555
N5 Fe1 1_555 1_555
N6 Fe1 1_555 1_555
N7 Mn1 1_555 1_555
N8 Mn1 1_555 1_555
N9 Mn1 1_555 1_555
N10 Mn1 1_555 1_555
H3 N10 1_555 1_555
N11 Mn1 1_555 1_555
H4 N11 1_555 1_555
C1 Fe1 1_555 1_555
C2 N2 1_555 1_555
C3 C4 1_555 1_555
C4 N4 1_555 1_555
C5 C4 1_555 1_555
H5 C5 1_555 1_555
C6 C5 1_555 1_555
H6 C6 1_555 1_555
C7 C6 1_555 1_555
H7 C7 1_555 1_555
C8 C3 1_555 1_555
H8 C8 1_555 1_555
C9 N3 1_555 1_555
C10 N5 1_555 1_555
C11 C10 1_555 1_555
H9 C11 1_555 1_555
C12 C11 1_555 1_555
H10 C12 1_555 1_555
C13 C12 1_555 1_555
H11 C13 1_555 1_555
C14 N5 1_555 1_555
H12 C14 1_555 1_555
C15 N4 1_555 1_555
C16 N6 1_555 1_555
C17 C16 1_555 1_555
H13 C17 1_555 1_555
C18 C17 1_555 1_555
H14 C18 1_555 1_555
C19 C18 1_555 1_555
H15 C19 1_555 1_555
C20 N6 1_555 1_555
H16 C20 1_555 1_555
C21 N8 1_555 1_555
C22 C21 1_555 1_555
H17 C22 1_555 1_555
C23 C22 1_555 1_555
H18 C23 1_555 1_555
C24 C23 1_555 1_555
H19 C24 1_555 1_555
C25 N8 1_555 1_555
C26 N9 1_555 1_555
C27 C26 1_555 1_555
H20 C27 1_555 1_555
H21 C27 1_555 1_555
H22 C27 1_555 1_555
C28 N9 1_555 1_555
H23 C28 1_555 1_555
H24 C28 1_555 1_555
C29 N10 1_555 1_555
H25 C29 1_555 1_555
H26 C29 1_555 1_555
C30 N10 1_555 1_555
H27 C30 1_555 1_555
H28 C30 1_555 1_555
C31 N11 1_555 1_555
H29 C31 1_555 1_555
H30 C31 1_555 1_555
C32 N11 1_555 1_555
H31 C32 1_555 1_555
H32 C32 1_555 1_555
C33 N7 1_555 1_555
H33 C33 1_555 1_555
H34 C33 1_555 1_555
C34 N7 1_555 1_555
C35 C34 1_555 1_555
H35 C35 1_555 1_555
H36 C35 1_555 1_555
H37 C35 1_555 1_555
Fe1C C2 1_555 1_555
C2C Fe1 1_555 1_555
C7 C8 1_555 1_555
C9 C10 1_555 1_555
C13 C14 1_555 1_555
C15 C16 1_555 1_555
C19 C20 1_555 1_555
C21 C34 1_555 1_555
C24 C25 1_555 1_555
C25 C26 1_555 1_555
C28 C29 1_555 1_555
C30 C31 1_555 1_555
C32 C33 1_555 1_555

#END
