
#######################################################################
#
#                 Cambridge Crystallographic Data Centre
#                                CCDC 
#
#######################################################################
#
# If this CIF has been generated from an entry in the Cambridge 
# Structural Database, then it will include bibliographic, chemical, 
# crystal, experimental, refinement or atomic coordinate data resulting 
# from the CCDC's data processing and validation procedures.
#
#######################################################################

data_RURDEP
_symmetry_cell_setting           monoclinic
_symmetry_space_group_name_H-M   'C c'
_symmetry_Int_Tables_number      9
_space_group_name_Hall           'C -2yc'
loop_
_symmetry_equiv_pos_site_id
_symmetry_equiv_pos_as_xyz
1 x,y,z
2 x,-y,1/2+z
3 1/2+x,1/2+y,z
4 1/2+x,1/2-y,1/2+z
_cell_length_a                   10.7704(7)
_cell_length_b                   20.1471(11)
_cell_length_c                   6.4727(3)
_cell_angle_alpha                90
_cell_angle_beta                 90.582(5)
_cell_angle_gamma                90
_cell_volume                     1404.45
loop_
_atom_site_label
_atom_site_type_symbol
_atom_site_fract_x
_atom_site_fract_y
_atom_site_fract_z
La1 La 0.12174(4) 0.26323(3) 0.16457(5)
La2 La 0.37836(6) 0.43144(3) 0.33462(9)
B1 B 0.2934(10) 0.2979(6) 0.6798(17)
B2 B 0.3994(11) 0.4021(6) 0.7864(19)
B3 B 0.3851(12) 0.3062(7) 1.0264(19)
B4 B 0.0638(11) 0.2667(6) 0.625(2)
B5 B 0.3825(14) 0.2437(7) 0.3680(17)
C1 C 0.1458(13) 0.4371(6) 0.043(2)
C2 C 0.0375(16) 0.4449(9) -0.100(3)
H1 H -0.0207 0.4097 -0.0770
H2 H 0.0654 0.4433 -0.2405
H3 H -0.0019 0.4869 -0.0751
C3 C 0.6649(10) 0.3887(6) 0.3859(18)
C4 C 0.8032(12) 0.3873(8) 0.386(2)
H4 H 0.8336 0.4234 0.3039
H5 H 0.8311 0.3460 0.3291
H6 H 0.8338 0.3917 0.5251
O1 O 0.1753(7) 0.2884(4) 0.5675(12)
O2 O 0.3288(7) 0.3671(4) 0.6489(12)
O3 O 0.2809(7) 0.2849(4) 0.8969(12)
O4 O 0.4420(8) 0.4617(4) 0.7216(13)
O5 O 0.4174(7) 0.3775(4) 0.9801(11)
O6 O -0.0023(8) 0.2344(4) 0.4856(13)
O7 O 0.3543(7) 0.3033(4) 0.2447(12)
O8 O 0.5142(8) 0.2195(5) 0.3201(13)
O9 O 0.2942(8) 0.1943(4) 0.2961(14)
H7 H 0.2704 0.1705 0.3966
O10 O 0.3869(8) 0.2552(4) 0.5851(13)
O11 O 0.2311(7) 0.4812(4) 0.0336(14)
O12 O 0.1491(8) 0.3919(4) 0.1730(15)
O13 O 0.6114(8) 0.4323(5) 0.2870(15)
O14 O 0.6057(9) 0.3466(5) 0.4939(17)
La1_2 La 0.12174(4) 0.26323(3) 1.16457(5)
La1C La 0.62174(4) 0.23677(3) 0.66457(5)
La2_2 La 0.37836(6) 0.43144(3) 1.33462(9)
La2A La 0.37836(6) 0.56856(3) -0.16538(9)
La2A_2 La 0.37836(6) 0.56856(3) 0.83462(9)
B3_2 B 0.3851(12) 0.3062(7) 0.0264(19)
B3C B -0.1149(12) 0.1938(7) 0.5264(19)
B4C B 0.5638(11) 0.2333(6) 0.125(2)
O3_2 O 0.2809(7) 0.2849(4) -0.1031(12)
O4A O 0.4420(8) 0.5383(4) 0.2216(13)
O5_2 O 0.4174(7) 0.3775(4) -0.0199(11)
O6C O 0.4977(8) 0.2656(4) 0.9856(13)
O7_2 O 0.3543(7) 0.3033(4) 1.2447(12)
O8C O 0.0142(8) 0.2805(5) -0.1799(13)
O8C_2 O 0.0142(8) 0.2805(5) 0.8201(13)
O10C O -0.1131(8) 0.2448(4) 0.0851(13)
O11A O 0.2311(7) 0.5188(4) 0.5336(14)
O14C O 0.1057(9) 0.1534(5) -0.0061(17)
O15 O 0.2224(12) 0.0656(5) 0.398(2)
H8 H 0.2018 0.0538 0.5194
H9 H 0.1619 0.0592 0.3155
loop_
_geom_bond_atom_site_label_1
_geom_bond_atom_site_label_2
_geom_bond_site_symmetry_1
_geom_bond_site_symmetry_2
La1 O1 1_555 1_555
La2 O2 1_555 1_555
B1 O1 1_555 1_555
B2 O2 1_555 1_555
B3 O3 1_555 1_555
B4 O1 1_555 1_555
B5 O7 1_555 1_555
C1 C2 1_555 1_555
C2 H1 1_555 1_555
H2 C2 1_555 1_555
H3 C2 1_555 1_555
C3 C4 1_555 1_555
C4 H4 1_555 1_555
H5 C4 1_555 1_555
H6 C4 1_555 1_555
O2 B1 1_555 1_555
O3 B1 1_555 1_555
O4 La2 1_555 1_555
O5 B2 1_555 1_555
O6 La1 1_555 1_555
O7 La1 1_555 1_555
O8 B5 1_555 1_555
O9 La1 1_555 1_555
H7 O9 1_555 1_555
O10 B1 1_555 1_555
O11 La2 1_555 1_555
O12 La1 1_555 1_555
O13 La2 1_555 1_555
O14 C3 1_555 1_555
O15 H8 1_555 1_555
H9 O15 1_555 1_555
La1_2 O3 1_555 1_555
La1C O8 1_555 1_555
La2_2 O5 1_555 1_555
La2A O11 1_555 1_555
La2A_2 O4 1_555 1_555
B3_2 O7 1_555 1_555
B3C O6 1_555 1_555
B4C O8 1_555 1_555
O3_2 La1 1_555 1_555
O4A La2 1_555 1_555
O5_2 La2 1_555 1_555
O6C B3 1_555 1_555
O7_2 B3 1_555 1_555
O8C La1 1_555 1_555
O8C_2 B4 1_555 1_555
O10C La1 1_555 1_555
O11A La2 1_555 1_555
O14C La1 1_555 1_555
La2 O7 1_555 1_555
La2 O12 1_555 1_555
B2 O4 1_555 1_555
B3 O5 1_555 1_555
B4 O6 1_555 1_555
B5 O9 1_555 1_555
B5 O10 1_555 1_555
C1 O11 1_555 1_555
C1 O12 1_555 1_555
C3 O13 1_555 1_555
O10 La1C 1_555 1_555
O14 La1C 1_555 1_555
La1_2 O7_2 1_555 1_555
La1_2 O8C_2 1_555 1_555
La1C O6C 1_555 1_555
La2_2 O7_2 1_555 1_555
La2A O4A 1_555 1_555
La2A_2 O11A 1_555 1_555
B3_2 O3_2 1_555 1_555
B3_2 O5_2 1_555 1_555

#END
