
#######################################################################
#
#                 Cambridge Crystallographic Data Centre
#                                CCDC 
#
#######################################################################
#
# If this CIF has been generated from an entry in the Cambridge 
# Structural Database, then it will include bibliographic, chemical, 
# crystal, experimental, refinement or atomic coordinate data resulting 
# from the CCDC's data processing and validation procedures.
#
#######################################################################

data_RURFAM
_symmetry_cell_setting           monoclinic
_symmetry_space_group_name_H-M   'P 21/c'
_symmetry_Int_Tables_number      14
_space_group_name_Hall           '-P 2ybc'
loop_
_symmetry_equiv_pos_site_id
_symmetry_equiv_pos_as_xyz
1 x,y,z
2 -x,1/2+y,1/2-z
3 -x,-y,-z
4 x,1/2-y,1/2+z
_cell_length_a                   11.3580(11)
_cell_length_b                   17.6650(18)
_cell_length_c                   20.412(2)
_cell_angle_alpha                90
_cell_angle_beta                 101.923(2)
_cell_angle_gamma                90
_cell_volume                     4007.09
loop_
_atom_site_label
_atom_site_type_symbol
_atom_site_fract_x
_atom_site_fract_y
_atom_site_fract_z
Fe1 Fe 0.43435(9) 0.30375(5) 0.39594(4)
Mn1 Mn 0.42583(9) 0.25908(5) 0.14821(4)
Cl1 Cl 0.9207(4) 0.0768(2) 0.4662(3)
O1 O 0.4694(7) 0.0764(3) 0.4022(3)
O2 O 0.7056(6) 0.4494(4) 0.4297(3)
O3 O 0.5527(17) 0.3551(6) 0.1282(4)
O4 O 0.3249(15) 0.3552(6) 0.0862(4)
N1 N 0.4221(6) 0.3189(3) 0.2435(3)
N2 N 0.4227(6) 0.2862(3) 0.5452(2)
N3 N 0.5925(6) 0.3396(4) 0.4177(3)
N4 N 0.5097(6) 0.2051(4) 0.4019(3)
N5 N 0.3882(6) 0.4130(3) 0.3998(2)
N6 N 0.2880(7) 0.2378(3) 0.3718(3)
N7 N 0.4202(12) 0.1497(4) 0.1959(3)
N8 N 0.2361(9) 0.2372(11) 0.1370(6)
N9 N 0.6164(9) 0.2234(8) 0.1889(5)
C1 C 0.4257(6) 0.3151(3) 0.2993(3)
C2 C 0.4221(6) 0.2953(3) 0.4904(3)
C3 C 0.6804(7) 0.2802(6) 0.4272(3)
C4 C 0.6284(9) 0.2077(5) 0.4199(4)
C5 C 0.7072(10) 0.1448(6) 0.4335(5)
H3 H 0.6765 0.0958 0.4306
C6 C 0.8265(12) 0.1564(8) 0.4504(7)
C7 C 0.8816(10) 0.2283(8) 0.4556(6)
H4 H 0.9648 0.2341 0.4654
C8 C 0.8032(13) 0.2904(8) 0.4451(6)
H5 H 0.8345 0.3392 0.4502
C9 C 0.3098(9) 0.1646(4) 0.3768(4)
C10 C 0.2170(11) 0.1088(5) 0.3630(5)
H6 H 0.2339 0.0573 0.3655
C11 C 0.1007(13) 0.1359(8) 0.3455(7)
H7 H 0.0361 0.1025 0.3397
C12 C 0.0821(12) 0.2075(7) 0.3374(8)
H8 H 0.0038 0.2243 0.3216
C13 C 0.1689(9) 0.2579(5) 0.3505(6)
H9 H 0.1493 0.3089 0.3452
C14 C 0.4346(9) 0.1439(4) 0.3938(3)
C15 C 0.4935(9) 0.4561(4) 0.4125(3)
C16 C 0.4853(10) 0.5331(5) 0.4214(3)
H10 H 0.5545 0.5628 0.4303
C17 C 0.3783(11) 0.5645(4) 0.4172(3)
H11 H 0.3731 0.6165 0.4232
C18 C 0.2736(10) 0.5219(5) 0.4041(4)
H12 H 0.1988 0.5442 0.4020
C19 C 0.2840(9) 0.4455(4) 0.3944(4)
H13 H 0.2147 0.4163 0.3837
C20 C 0.6090(8) 0.4114(5) 0.4204(3)
C21 C 0.309(2) 0.1166(8) 0.1904(7)
C22 C 0.300(3) 0.0446(12) 0.2162(13)
H14 H 0.2272 0.0211 0.2182
C23 C 0.412(7) 0.0123(16) 0.238(2)
H15 H 0.4101 -0.0392 0.2476
C24 C 0.526(5) 0.0432(14) 0.2494(10)
H16 H 0.5949 0.0180 0.2718
C25 C 0.528(2) 0.1156(7) 0.2236(4)
C26 C 0.6295(18) 0.1653(12) 0.2194(7)
C27 C 0.747(2) 0.128(2) 0.2593(8)
H17 H 0.7271 0.0945 0.2926
H18 H 0.8007 0.1665 0.2807
H19 H 0.7844 0.0996 0.2291
C28 C 0.2015(16) 0.1765(14) 0.1551(8)
C29 C 0.076(2) 0.144(2) 0.1515(12)
H20 H 0.0777 0.1100 0.1885
H21 H 0.0515 0.1166 0.1102
H22 H 0.0205 0.1842 0.1535
C30 C 0.1567(18) 0.2962(17) 0.1035(10)
H23 H 0.0920 0.3046 0.1272
H24 H 0.1214 0.2805 0.0582
C31 C 0.229(2) 0.3719(14) 0.1017(9)
H25 H 0.1841 0.4066 0.0692
H26 H 0.2444 0.3961 0.1453
C32 C 0.405(3) 0.4180(7) 0.0789(7)
H27 H 0.4076 0.4537 0.1153
H28 H 0.3746 0.4443 0.0371
C33 C 0.531(3) 0.3901(11) 0.0794(11)
H29 H 0.5334 0.3588 0.0406
H30 H 0.5870 0.4319 0.0807
C34 C 0.673(3) 0.3148(15) 0.1282(13)
H31 H 0.6650 0.2833 0.0885
H32 H 0.7349 0.3524 0.1263
C35 C 0.7115(14) 0.2675(14) 0.1881(10)
H33 H 0.7815 0.2375 0.1848
H34 H 0.7305 0.2985 0.2282
Mn1C Mn 0.42583(9) 0.24092(5) 0.64821(4)
N2C N 0.4227(6) 0.2138(3) 0.0452(2)
Cl2 Cl 0.9915(4) 0.4251(2) 0.2370(2)
O5 O 1.021(3) 0.3558(13) 0.2305(12)
O6 O 0.968(2) 0.4098(17) 0.2994(12)
O7 O 0.9007(16) 0.4457(6) 0.1958(9)
O8 O 1.0680(19) 0.4718(14) 0.2461(14)
O9 O 0.056(2) 0.3998(18) 0.4790(14)
H1 H 0.1113 0.4119 0.5095
H2 H 0.0612 0.3534 0.4729
loop_
_geom_bond_atom_site_label_1
_geom_bond_atom_site_label_2
_geom_bond_site_symmetry_1
_geom_bond_site_symmetry_2
Fe1 N3 1_555 1_555
Mn1 O3 1_555 1_555
Cl1 C6 1_555 1_555
Cl2 O5 1_555 1_555
O1 C14 1_555 1_555
O2 C20 1_555 1_555
O3 C33 1_555 1_555
O4 Mn1 1_555 1_555
O6 Cl2 1_555 1_555
O7 Cl2 1_555 1_555
O8 Cl2 1_555 1_555
O9 H1 1_555 1_555
H2 O9 1_555 1_555
N1 Mn1 1_555 1_555
N2 C2 1_555 1_555
N3 C3 1_555 1_555
N4 Fe1 1_555 1_555
N5 Fe1 1_555 1_555
N6 Fe1 1_555 1_555
N7 Mn1 1_555 1_555
N8 Mn1 1_555 1_555
N9 Mn1 1_555 1_555
C1 Fe1 1_555 1_555
C2 Fe1 1_555 1_555
C3 C4 1_555 1_555
C4 N4 1_555 1_555
C5 C4 1_555 1_555
H3 C5 1_555 1_555
C6 C5 1_555 1_555
C7 C6 1_555 1_555
H4 C7 1_555 1_555
C8 C3 1_555 1_555
H5 C8 1_555 1_555
C9 N6 1_555 1_555
C10 C9 1_555 1_555
H6 C10 1_555 1_555
C11 C10 1_555 1_555
H7 C11 1_555 1_555
C12 C11 1_555 1_555
H8 C12 1_555 1_555
C13 N6 1_555 1_555
H9 C13 1_555 1_555
C14 N4 1_555 1_555
C15 N5 1_555 1_555
C16 C15 1_555 1_555
H10 C16 1_555 1_555
C17 C16 1_555 1_555
H11 C17 1_555 1_555
C18 C17 1_555 1_555
H12 C18 1_555 1_555
C19 N5 1_555 1_555
H13 C19 1_555 1_555
C20 N3 1_555 1_555
C21 N7 1_555 1_555
C22 C21 1_555 1_555
H14 C22 1_555 1_555
C23 C22 1_555 1_555
H15 C23 1_555 1_555
C24 C23 1_555 1_555
H16 C24 1_555 1_555
C25 N7 1_555 1_555
C26 N9 1_555 1_555
C27 C26 1_555 1_555
H17 C27 1_555 1_555
H18 C27 1_555 1_555
H19 C27 1_555 1_555
C28 N8 1_555 1_555
C29 C28 1_555 1_555
H20 C29 1_555 1_555
H21 C29 1_555 1_555
H22 C29 1_555 1_555
C30 N8 1_555 1_555
H23 C30 1_555 1_555
H24 C30 1_555 1_555
C31 O4 1_555 1_555
H25 C31 1_555 1_555
H26 C31 1_555 1_555
C32 O4 1_555 1_555
H27 C32 1_555 1_555
H28 C32 1_555 1_555
C33 C32 1_555 1_555
H29 C33 1_555 1_555
H30 C33 1_555 1_555
C34 O3 1_555 1_555
H31 C34 1_555 1_555
H32 C34 1_555 1_555
C35 N9 1_555 1_555
H33 C35 1_555 1_555
H34 C35 1_555 1_555
Mn1C N2 1_555 1_555
N2C Mn1 1_555 1_555
N1 C1 1_555 1_555
C7 C8 1_555 1_555
C9 C14 1_555 1_555
C12 C13 1_555 1_555
C15 C20 1_555 1_555
C18 C19 1_555 1_555
C21 C28 1_555 1_555
C24 C25 1_555 1_555
C25 C26 1_555 1_555
C30 C31 1_555 1_555
C34 C35 1_555 1_555

#END
