
#######################################################################
#
#                 Cambridge Crystallographic Data Centre
#                                CCDC 
#
#######################################################################
#
# If this CIF has been generated from an entry in the Cambridge 
# Structural Database, then it will include bibliographic, chemical, 
# crystal, experimental, refinement or atomic coordinate data resulting 
# from the CCDC's data processing and validation procedures.
#
#######################################################################

data_RURFIU
_symmetry_cell_setting           monoclinic
_symmetry_space_group_name_H-M   'C 2/c'
_symmetry_Int_Tables_number      15
_space_group_name_Hall           '-C 2yn'
loop_
_symmetry_equiv_pos_site_id
_symmetry_equiv_pos_as_xyz
1 x,y,z
2 -x,y,1/2-z
3 1/2+x,1/2+y,z
4 1/2-x,1/2+y,1/2-z
5 -x,-y,-z
6 x,-y,1/2+z
7 1/2-x,1/2-y,-z
8 1/2+x,1/2-y,1/2+z
_cell_length_a                   25.416(3)
_cell_length_b                   19.276(3)
_cell_length_c                   19.361(3)
_cell_angle_alpha                90
_cell_angle_beta                 126.656(2)
_cell_angle_gamma                90
_cell_volume                     7609.45
loop_
_atom_site_label
_atom_site_type_symbol
_atom_site_fract_x
_atom_site_fract_y
_atom_site_fract_z
Mn1 Mn 0.23521(3) 0.31254(3) -0.31666(4)
Fe1 Fe 0.18260(3) 0.57108(3) -0.30648(4)
O1 O 0.21962(16) 0.63558(18) -0.4702(2)
O2 O 0.00572(18) 0.5817(3) -0.3589(3)
O3 O 0.32876(18) 0.3654(2) -0.2821(3)
O4 O 0.2274(2) 0.3159(2) -0.4399(3)
N1 N 0.19257(19) 0.4176(2) -0.3455(3)
N2 N 0.2124(2) 0.7125(2) -0.2153(3)
N3 N 0.16804(16) 0.60469(17) -0.4086(2)
N4 N 0.09099(17) 0.57746(17) -0.3708(2)
N5 N 0.27644(17) 0.57365(17) -0.2641(2)
N6 N 0.17401(17) 0.53619(18) -0.2171(2)
N7 N 0.18469(18) 0.27771(18) -0.2611(2)
N8 N 0.30048(19) 0.3338(2) -0.1739(3)
N9 N 0.1368(2) 0.2681(2) -0.4214(3)
C1 C 0.18569(19) 0.4742(2) -0.3344(3)
C2 C 0.1996(2) 0.6613(2) -0.2505(3)
C3 C 0.1016(2) 0.6115(2) -0.4787(3)
C4 C 0.0583(2) 0.5950(2) -0.4579(3)
C5 C -0.0088(2) 0.5924(2) -0.5221(3)
H3 H -0.0374 0.5811 -0.5089
C6 C -0.0324(2) 0.6065(3) -0.6054(3)
H4 H -0.0773 0.6041 -0.6488
C7 C 0.0099(3) 0.6244(3) -0.6259(3)
H5 H -0.0072 0.6342 -0.6828
C8 C 0.0764(2) 0.6278(2) -0.5633(3)
H6 H 0.1042 0.6409 -0.5772
C9 C 0.2190(2) 0.6125(2) -0.4113(3)
C10 C 0.2811(2) 0.5882(2) -0.3285(3)
C11 C 0.3386(2) 0.5795(3) -0.3201(4)
H7 H 0.3402 0.5892 -0.3659
C12 C 0.3936(2) 0.5561(3) -0.2426(4)
H8 H 0.4321 0.5464 -0.2363
C13 C 0.3902(2) 0.5474(3) -0.1749(4)
H9 H 0.4274 0.5352 -0.1207
C14 C 0.3312(2) 0.5568(3) -0.1877(3)
H10 H 0.3295 0.5511 -0.1413
C15 C 0.0631(2) 0.5705(3) -0.3300(3)
C16 C 0.2192(3) 0.5096(3) -0.1399(3)
H11 H 0.2612 0.5022 -0.1242
C17 C 0.2064(3) 0.4927(3) -0.0825(4)
H12 H 0.2388 0.4730 -0.0295
C18 C 0.1452(3) 0.5051(3) -0.1042(4)
H13 H 0.1360 0.4958 -0.0653
C19 C 0.0973(3) 0.5317(3) -0.1846(4)
H14 H 0.0553 0.5404 -0.2008
C20 C 0.1129(2) 0.5453(2) -0.2406(3)
C21 C 0.2136(2) 0.2888(2) -0.1775(3)
C22 C 0.1802(3) 0.2761(3) -0.1427(4)
H15 H 0.1993 0.2858 -0.0852
C23 C 0.1186(3) 0.2489(3) -0.1950(4)
H16 H 0.0958 0.2389 -0.1723
C24 C 0.0896(3) 0.2359(3) -0.2799(4)
H17 H 0.0477 0.2171 -0.3153
C25 C 0.1247(2) 0.2519(2) -0.3123(3)
C26 C 0.0992(2) 0.2448(3) -0.4041(3)
C27 C 0.0327(3) 0.2132(4) -0.4679(4)
H18 H 0.0003 0.2392 -0.4682
H19 H 0.0328 0.1660 -0.4519
H20 H 0.0225 0.2143 -0.5243
C28 C 0.1213(4) 0.2677(4) -0.5075(4)
H21 H 0.0753 0.2784 -0.5504
H22 H 0.1297 0.2220 -0.5200
C29 C 0.1628(4) 0.3205(5) -0.5112(4)
H23 H 0.1601 0.3133 -0.5628
H24 H 0.1463 0.3666 -0.5141
C30 C 0.2730(4) 0.3636(5) -0.4316(5)
H25 H 0.2560 0.4103 -0.4399
H26 H 0.2788 0.3545 -0.4760
C31 C 0.3359(4) 0.3587(5) -0.3480(5)
H27 H 0.3559 0.3143 -0.3428
H28 H 0.3647 0.3950 -0.3425
C32 C 0.3831(3) 0.3513(4) -0.1965(4)
H29 H 0.4192 0.3817 -0.1803
H30 H 0.3973 0.3037 -0.1922
C33 C 0.3650(3) 0.3620(3) -0.1372(4)
H31 H 0.3970 0.3395 -0.0826
H32 H 0.3653 0.4112 -0.1265
C34 C 0.2814(2) 0.3168(2) -0.1283(3)
C35 C 0.3214(3) 0.3213(4) -0.0320(3)
H33 H 0.3348 0.2756 -0.0078
H34 H 0.2954 0.3417 -0.0163
H35 H 0.3594 0.3494 -0.0103
Mn1C Mn 0.26479(3) 0.81254(3) -0.18334(4)
N2C N 0.2876(2) 0.2125(2) -0.2847(3)
Cl1 Cl 0.07680(8) 0.97913(16) -0.06672(11)
O5 O 0.0730(11) 1.0438(11) -0.0821(18)
O6 O 0.0497(6) 0.9871(10) -0.0297(8)
O7 O 0.1366(4) 0.9593(12) -0.0212(7)
O8 O 0.0394(5) 0.9603(9) -0.1425(6)
O9 O 0.0000 0.2672(13) -0.7500
H1 H 0.0353 0.2812 -0.7385
H1A H -0.0353 0.2812 -0.7615
H2? H 0.0000 0.2246 -0.7500
loop_
_geom_bond_atom_site_label_1
_geom_bond_atom_site_label_2
_geom_bond_site_symmetry_1
_geom_bond_site_symmetry_2
Mn1 O3 1_555 1_555
Fe1 N3 1_555 1_555
Cl1 O5 1_555 1_555
O1 C9 1_555 1_555
O2 C15 1_555 1_555
O3 C31 1_555 1_555
O4 Mn1 1_555 1_555
O6 Cl1 1_555 1_555
O7 Cl1 1_555 1_555
O8 Cl1 1_555 1_555
O9 H1 1_555 1_555
N1 Mn1 1_555 1_555
N2 C2 1_555 1_555
N3 C3 1_555 1_555
N4 Fe1 1_555 1_555
N5 Fe1 1_555 1_555
N6 Fe1 1_555 1_555
N7 Mn1 1_555 1_555
N8 Mn1 1_555 1_555
N9 Mn1 1_555 1_555
C1 Fe1 1_555 1_555
C2 Fe1 1_555 1_555
C3 C4 1_555 1_555
C4 N4 1_555 1_555
C5 C4 1_555 1_555
H3 C5 1_555 1_555
C6 C5 1_555 1_555
H4 C6 1_555 1_555
C7 C6 1_555 1_555
H5 C7 1_555 1_555
C8 C3 1_555 1_555
H6 C8 1_555 1_555
C9 N3 1_555 1_555
C10 N5 1_555 1_555
C11 C10 1_555 1_555
H7 C11 1_555 1_555
C12 C11 1_555 1_555
H8 C12 1_555 1_555
C13 C12 1_555 1_555
H9 C13 1_555 1_555
C14 N5 1_555 1_555
H10 C14 1_555 1_555
C15 N4 1_555 1_555
C16 N6 1_555 1_555
H11 C16 1_555 1_555
C17 C16 1_555 1_555
H12 C17 1_555 1_555
C18 C17 1_555 1_555
H13 C18 1_555 1_555
C19 C18 1_555 1_555
H14 C19 1_555 1_555
C20 N6 1_555 1_555
C21 N7 1_555 1_555
C22 C21 1_555 1_555
H15 C22 1_555 1_555
C23 C22 1_555 1_555
H16 C23 1_555 1_555
C24 C23 1_555 1_555
H17 C24 1_555 1_555
C25 N7 1_555 1_555
C26 N9 1_555 1_555
C27 C26 1_555 1_555
H18 C27 1_555 1_555
H19 C27 1_555 1_555
H20 C27 1_555 1_555
C28 N9 1_555 1_555
H21 C28 1_555 1_555
H22 C28 1_555 1_555
C29 O4 1_555 1_555
H23 C29 1_555 1_555
H24 C29 1_555 1_555
C30 O4 1_555 1_555
H25 C30 1_555 1_555
H26 C30 1_555 1_555
C31 C30 1_555 1_555
H27 C31 1_555 1_555
H28 C31 1_555 1_555
C32 O3 1_555 1_555
H29 C32 1_555 1_555
H30 C32 1_555 1_555
C33 N8 1_555 1_555
H31 C33 1_555 1_555
H32 C33 1_555 1_555
C34 N8 1_555 1_555
C35 C34 1_555 1_555
H33 C35 1_555 1_555
H34 C35 1_555 1_555
H35 C35 1_555 1_555
Mn1C N2 1_555 1_555
H1A O9 1_555 1_555
N2C Mn1 1_555 1_555
N1 C1 1_555 1_555
C7 C8 1_555 1_555
C9 C10 1_555 1_555
C13 C14 1_555 1_555
C15 C20 1_555 1_555
C19 C20 1_555 1_555
C21 C34 1_555 1_555
C24 C25 1_555 1_555
C25 C26 1_555 1_555
C28 C29 1_555 1_555
C32 C33 1_555 1_555

#END
