
#######################################################################
#
#                 Cambridge Crystallographic Data Centre
#                                CCDC 
#
#######################################################################
#
# If this CIF has been generated from an entry in the Cambridge 
# Structural Database, then it will include bibliographic, chemical, 
# crystal, experimental, refinement or atomic coordinate data resulting 
# from the CCDC's data processing and validation procedures.
#
#######################################################################

data_RURFEQ
_symmetry_cell_setting           monoclinic
_symmetry_space_group_name_H-M   'P 21/c'
_symmetry_Int_Tables_number      14
_space_group_name_Hall           '-P 2ybc'
loop_
_symmetry_equiv_pos_site_id
_symmetry_equiv_pos_as_xyz
1 x,y,z
2 -x,1/2+y,1/2-z
3 -x,-y,-z
4 x,1/2-y,1/2+z
_cell_length_a                   11.936(5)
_cell_length_b                   17.341(8)
_cell_length_c                   20.443(9)
_cell_angle_alpha                90
_cell_angle_beta                 97.908(9)
_cell_angle_gamma                90
_cell_volume                     4191.1
loop_
_atom_site_label
_atom_site_type_symbol
_atom_site_fract_x
_atom_site_fract_y
_atom_site_fract_z
Fe1 Fe 0.10015(12) 0.31655(7) 1.09970(6)
Mn1 Mn 0.09657(13) 0.23844(8) 0.84810(6)
Br1 Br -0.38770(16) 0.10642(11) 1.03178(13)
Br2 Br -0.47159(13) 0.29328(11) 1.01222(9)
O1 O 0.0428(8) 0.0902(5) 1.0950(4)
O2 O -0.1448(7) 0.4752(4) 1.0764(3)
N1 N 0.1099(7) 0.2923(4) 0.9504(4)
N2 N 0.0984(7) 0.3224(4) 1.2495(4)
N3 N 0.0219(9) 0.2211(5) 1.0957(4)
N4 N -0.0439(7) 0.3588(5) 1.0827(3)
N5 N 0.2333(9) 0.2486(5) 1.1202(4)
N6 N 0.1464(9) 0.4271(4) 1.0955(3)
N7 N -0.0846(16) 0.2628(13) 0.8216(7)
N8 N -0.008(2) 0.1436(8) 0.8877(7)
N9 N 0.2211(14) 0.1393(8) 0.8882(6)
H3 H 0.2250 0.1046 0.8552
N10 N 0.2872(15) 0.2903(11) 0.8498(6)
H4 H 0.3063 0.3194 0.8867
N11 N 0.065(3) 0.3552(14) 0.7939(7)
C1 C 0.1124(7) 0.3052(5) 1.0054(5)
C2 C 0.1011(8) 0.3233(5) 1.1942(5)
C3 C -0.0941(12) 0.2287(8) 1.0798(5)
C4 C -0.1309(13) 0.3081(7) 1.0732(5)
C5 C -0.2407(13) 0.3224(8) 1.0554(5)
H5 H -0.2640 0.3737 1.0532
C6 C -0.3201(11) 0.2677(11) 1.0404(6)
C7 C -0.2851(16) 0.1891(10) 1.0497(7)
C8 C -0.1716(13) 0.1711(7) 1.0689(6)
H6 H -0.1490 0.1199 1.0743
C9 C 0.2049(14) 0.1720(8) 1.1155(5)
C10 C 0.2847(15) 0.1144(7) 1.1267(6)
H7 H 0.2639 0.0627 1.1237
C11 C 0.3959(17) 0.1356(13) 1.1424(7)
H8 H 0.4516 0.0978 1.1482
C12 C 0.4266(14) 0.2134(10) 1.1497(7)
H9 H 0.5013 0.2287 1.1619
C13 C 0.3417(12) 0.2645(7) 1.1382(5)
H10 H 0.3610 0.3163 1.1434
C14 C 0.0837(15) 0.1543(8) 1.1009(5)
C15 C 0.0557(11) 0.4732(6) 1.0855(4)
C16 C 0.0696(12) 0.5516(7) 1.0811(4)
H11 H 0.0060 0.5832 1.0770
C17 C 0.1714(16) 0.5838(8) 1.0824(5)
H12 H 0.1792 0.6366 1.0767
C18 C 0.2647(13) 0.5360(9) 1.0926(6)
H13 H 0.3376 0.5558 1.0956
C19 C 0.2461(12) 0.4567(7) 1.0984(5)
H14 H 0.3083 0.4239 1.1046
C20 C -0.0546(11) 0.4380(7) 1.0809(4)
C21 C -0.166(2) 0.2200(19) 0.8385(14)
C22 C -0.280(2) 0.2304(16) 0.8128(17)
H15 H -0.3364 0.1939 0.8155
C23 C -0.299(5) 0.303(4) 0.783(2)
H16 H -0.3713 0.3223 0.7817
C24 C -0.224(3) 0.351(3) 0.7537(13)
H17 H -0.2391 0.3883 0.7213
C25 C -0.123(2) 0.3262(18) 0.7862(9)
C26 C -0.117(2) 0.1451(16) 0.8738(11)
C27 C -0.188(2) 0.0790(15) 0.8981(13)
H18 H -0.1839 0.0344 0.8707
H19 H -0.2656 0.0951 0.8956
H20 H -0.1593 0.0664 0.9430
C28 C -0.014(4) 0.3790(12) 0.7745(8)
C29 C -0.068(3) 0.4533(9) 0.7431(6)
H21 H -0.0166 0.4957 0.7532
H22 H -0.1370 0.4635 0.7603
H23 H -0.0830 0.4469 0.6960
C30 C 0.0505(19) 0.0864(10) 0.9171(8)
H24 H 0.0461 0.0432 0.8867
H25 H 0.0149 0.0704 0.9548
C31 C 0.1709(19) 0.1022(8) 0.9401(6)
H26 H 0.1776 0.1354 0.9787
H27 H 0.2102 0.0543 0.9525
C32 C 0.3253(19) 0.1745(15) 0.9032(10)
H28 H 0.3832 0.1349 0.9102
H29 H 0.3266 0.2028 0.9442
C33 C 0.3533(15) 0.2275(12) 0.8521(10)
H30 H 0.4321 0.2426 0.8616
H31 H 0.3424 0.2018 0.8095
C34 C 0.246(4) 0.3325(12) 0.8026(14)
H32 H 0.2021 0.2961 0.7737
H33 H 0.3121 0.3433 0.7810
C35 C 0.189(4) 0.3939(17) 0.7921(11)
H34 H 0.1968 0.4165 0.7495
H35 H 0.2083 0.4317 0.8268
Mn1C Mn 0.09657(13) 0.26156(8) 1.34810(6)
N2C N 0.0984(7) 0.1776(4) 0.7495(4)
Cl1 Cl 0.5373(5) 0.9586(3) 0.2369(3)
O3 O 0.4639(13) 0.9503(6) 0.1847(7)
O4 O 0.5274(11) 1.0301(8) 0.2660(7)
O5 O 0.5158(15) 0.8973(11) 0.2772(10)
O6 O 0.6521(18) 0.9484(12) 0.2330(11)
O7 O 0.6371(18) 0.5484(11) 0.0632(8)
H1 H 0.5882 0.5263 0.0353
H2 H 0.6704 0.5835 0.0470
loop_
_geom_bond_atom_site_label_1
_geom_bond_atom_site_label_2
_geom_bond_site_symmetry_1
_geom_bond_site_symmetry_2
Fe1 N3 1_555 1_555
Mn1 N1 1_555 1_555
Br1 C7 1_555 1_555
Br2 C6 1_555 1_555
Cl1 O3 1_555 1_555
O1 C14 1_555 1_555
O2 C20 1_555 1_555
O4 Cl1 1_555 1_555
O5 Cl1 1_555 1_555
O6 Cl1 1_555 1_555
O7 H1 1_555 1_555
H2 O7 1_555 1_555
N1 C1 1_555 1_555
N2 C2 1_555 1_555
N3 C3 1_555 1_555
N4 Fe1 1_555 1_555
N5 Fe1 1_555 1_555
N6 Fe1 1_555 1_555
N7 Mn1 1_555 1_555
N8 Mn1 1_555 1_555
N9 Mn1 1_555 1_555
H3 N9 1_555 1_555
N10 Mn1 1_555 1_555
H4 N10 1_555 1_555
N11 Mn1 1_555 1_555
C1 Fe1 1_555 1_555
C2 Fe1 1_555 1_555
C3 C4 1_555 1_555
C4 N4 1_555 1_555
C5 C4 1_555 1_555
H5 C5 1_555 1_555
C6 C5 1_555 1_555
C7 C6 1_555 1_555
C8 C3 1_555 1_555
H6 C8 1_555 1_555
C9 N5 1_555 1_555
C10 C9 1_555 1_555
H7 C10 1_555 1_555
C11 C10 1_555 1_555
H8 C11 1_555 1_555
C12 C11 1_555 1_555
H9 C12 1_555 1_555
C13 N5 1_555 1_555
H10 C13 1_555 1_555
C14 N3 1_555 1_555
C15 N6 1_555 1_555
C16 C15 1_555 1_555
H11 C16 1_555 1_555
C17 C16 1_555 1_555
H12 C17 1_555 1_555
C18 C17 1_555 1_555
H13 C18 1_555 1_555
C19 N6 1_555 1_555
H14 C19 1_555 1_555
C20 N4 1_555 1_555
C21 N7 1_555 1_555
C22 C21 1_555 1_555
H15 C22 1_555 1_555
C23 C22 1_555 1_555
H16 C23 1_555 1_555
C24 C23 1_555 1_555
H17 C24 1_555 1_555
C25 N7 1_555 1_555
C26 N8 1_555 1_555
C27 C26 1_555 1_555
H18 C27 1_555 1_555
H19 C27 1_555 1_555
H20 C27 1_555 1_555
C28 N11 1_555 1_555
C29 C28 1_555 1_555
H21 C29 1_555 1_555
H22 C29 1_555 1_555
H23 C29 1_555 1_555
C30 N8 1_555 1_555
H24 C30 1_555 1_555
H25 C30 1_555 1_555
C31 N9 1_555 1_555
H26 C31 1_555 1_555
H27 C31 1_555 1_555
C32 N9 1_555 1_555
H28 C32 1_555 1_555
H29 C32 1_555 1_555
C33 N10 1_555 1_555
H30 C33 1_555 1_555
H31 C33 1_555 1_555
C34 N10 1_555 1_555
H32 C34 1_555 1_555
H33 C34 1_555 1_555
C35 N11 1_555 1_555
H34 C35 1_555 1_555
H35 C35 1_555 1_555
Mn1C N2 1_555 1_555
N2C Mn1 1_555 1_555
C7 C8 1_555 1_555
C9 C14 1_555 1_555
C12 C13 1_555 1_555
C15 C20 1_555 1_555
C18 C19 1_555 1_555
C21 C26 1_555 1_555
C24 C25 1_555 1_555
C25 C28 1_555 1_555
C30 C31 1_555 1_555
C32 C33 1_555 1_555
C34 C35 1_555 1_555

#END
