
#######################################################################
#
#                 Cambridge Crystallographic Data Centre
#                                CCDC 
#
#######################################################################
#
# If this CIF has been generated from an entry in the Cambridge 
# Structural Database, then it will include bibliographic, chemical, 
# crystal, experimental, refinement or atomic coordinate data resulting 
# from the CCDC's data processing and validation procedures.
#
#######################################################################

data_RURJUL
_symmetry_cell_setting           monoclinic
_symmetry_space_group_name_H-M   'C c'
_symmetry_Int_Tables_number      9
_space_group_name_Hall           'C -2yc'
loop_
_symmetry_equiv_pos_site_id
_symmetry_equiv_pos_as_xyz
1 x,y,z
2 x,-y,1/2+z
3 1/2+x,1/2+y,z
4 1/2+x,1/2-y,1/2+z
_cell_length_a                   10.9510(5)
_cell_length_b                   20.2411(9)
_cell_length_c                   6.4535(3)
_cell_angle_alpha                90
_cell_angle_beta                 90.494(4)
_cell_angle_gamma                90
_cell_volume                     1430.43
loop_
_atom_site_label
_atom_site_type_symbol
_atom_site_fract_x
_atom_site_fract_y
_atom_site_fract_z
Ce1 Ce 0.13341(3) 0.255413(14) 0.16598(4)
Ce2 Ce 0.36017(4) 0.431842(16) 0.33189(5)
B1 B 0.2996(5) 0.2923(3) 0.6864(10)
B2 B 0.3799(6) 0.4039(3) 0.7832(12)
B3 B 0.3887(5) 0.3106(3) 1.0246(10)
B4 B 0.0732(6) 0.2574(3) 0.6319(12)
B5 B 0.4004(6) 0.2471(3) 0.3619(12)
C1 C 0.1262(8) 0.4308(3) 0.0512(15)
C2 C 0.0201(8) 0.4387(4) -0.0898(19)
H1 H -0.0373 0.4037 -0.0660
H2 H 0.0471 0.4370 -0.2308
H3 H -0.0184 0.4805 -0.0641
C3 C 0.6461(8) 0.3988(4) 0.422(2)
C4 C 0.7894(14) 0.4102(7) 0.396(3)
H4 H 0.8029 0.4484 0.3108
H5 H 0.8251 0.3722 0.3316
H6 H 0.8264 0.4170 0.5296
O1 O 0.1877(3) 0.2765(2) 0.5607(6)
O2 O 0.3170(4) 0.36357(19) 0.6421(7)
O3 O 0.2900(4) 0.2801(2) 0.8985(7)
O4 O 0.4090(4) 0.4636(2) 0.7110(8)
O5 O 0.4025(4) 0.3788(2) 0.9797(6)
O6 O 0.0055(4) 0.2268(2) 0.4788(7)
O7 O 0.3585(3) 0.3041(2) 0.2444(7)
O8 O 0.5318(3) 0.2304(2) 0.3223(7)
O9 O 0.3173(4) 0.1928(2) 0.2977(9)
H7 H 0.2772 0.2044 0.1961
O10 O 0.4001(3) 0.25543(18) 0.5864(7)
O11 O 0.2064(4) 0.4760(3) 0.0446(10)
O12 O 0.1376(6) 0.3832(2) 0.1740(12)
O13 O 0.5813(6) 0.4272(4) 0.3106(13)
O14 O 0.6166(6) 0.3546(3) 0.5494(15)
Ce1_2 Ce 0.13341(3) 0.255413(14) 1.16598(4)
Ce1C Ce 0.63341(3) 0.244587(14) 0.66598(4)
Ce2_2 Ce 0.36017(4) 0.431842(16) 1.33189(5)
Ce2A Ce 0.36017(4) 0.568158(16) -0.16811(5)
Ce2A_2 Ce 0.36017(4) 0.568158(16) 0.83189(5)
B3_2 B 0.3887(5) 0.3106(3) 0.0246(10)
B3C B -0.1113(5) 0.1894(3) 0.5246(10)
B4C B 0.5732(6) 0.2426(3) 0.1319(12)
O3_2 O 0.2900(4) 0.2801(2) -0.1015(7)
O4A O 0.4090(4) 0.5364(2) 0.2110(8)
O5_2 O 0.4025(4) 0.3788(2) -0.0203(6)
O6C O 0.5055(4) 0.2732(2) 0.9788(7)
O7_2 O 0.3585(3) 0.3041(2) 1.2444(7)
O8C O 0.0318(3) 0.2696(2) -0.1777(7)
O8C_2 O 0.0318(3) 0.2696(2) 0.8223(7)
O10C O -0.0999(3) 0.24457(18) 0.0864(7)
O11A O 0.2064(4) 0.5240(3) 0.5446(10)
O14C O 0.1166(6) 0.1454(3) 0.0494(15)
loop_
_geom_bond_atom_site_label_1
_geom_bond_atom_site_label_2
_geom_bond_site_symmetry_1
_geom_bond_site_symmetry_2
Ce1 O1 1_555 1_555
Ce2 O2 1_555 1_555
B1 O1 1_555 1_555
B2 O2 1_555 1_555
B3 O3 1_555 1_555
B4 O1 1_555 1_555
B5 O7 1_555 1_555
C1 C2 1_555 1_555
C2 H1 1_555 1_555
H2 C2 1_555 1_555
H3 C2 1_555 1_555
C3 C4 1_555 1_555
C4 H4 1_555 1_555
H5 C4 1_555 1_555
H6 C4 1_555 1_555
O2 B1 1_555 1_555
O3 B1 1_555 1_555
O4 Ce2 1_555 1_555
O5 B2 1_555 1_555
O6 Ce1 1_555 1_555
O7 Ce1 1_555 1_555
O8 B5 1_555 1_555
O9 Ce1 1_555 1_555
H7 O9 1_555 1_555
O10 B1 1_555 1_555
O11 Ce2 1_555 1_555
O12 Ce1 1_555 1_555
O13 Ce2 1_555 1_555
O14 C3 1_555 1_555
Ce1_2 O3 1_555 1_555
Ce1C O8 1_555 1_555
Ce2_2 O5 1_555 1_555
Ce2A O11 1_555 1_555
Ce2A_2 O4 1_555 1_555
B3_2 O7 1_555 1_555
B3C O6 1_555 1_555
B4C O8 1_555 1_555
O3_2 Ce1 1_555 1_555
O4A Ce2 1_555 1_555
O5_2 Ce2 1_555 1_555
O6C B3 1_555 1_555
O7_2 B3 1_555 1_555
O8C Ce1 1_555 1_555
O8C_2 B4 1_555 1_555
O10C Ce1 1_555 1_555
O11A Ce2 1_555 1_555
O14C Ce1 1_555 1_555
Ce2 O7 1_555 1_555
Ce2 O12 1_555 1_555
B2 O4 1_555 1_555
B3 O5 1_555 1_555
B4 O6 1_555 1_555
B5 O9 1_555 1_555
B5 O10 1_555 1_555
C1 O11 1_555 1_555
C1 O12 1_555 1_555
C3 O13 1_555 1_555
O10 Ce1C 1_555 1_555
O14 Ce1C 1_555 1_555
Ce1_2 O7_2 1_555 1_555
Ce1_2 O8C_2 1_555 1_555
Ce1C O6C 1_555 1_555
Ce2_2 O7_2 1_555 1_555
Ce2A O4A 1_555 1_555
Ce2A_2 O11A 1_555 1_555
B3_2 O3_2 1_555 1_555
B3_2 O5_2 1_555 1_555

#END
