
#######################################################################
#
#                 Cambridge Crystallographic Data Centre
#                                CCDC 
#
#######################################################################
#
# If this CIF has been generated from an entry in the Cambridge 
# Structural Database, then it will include bibliographic, chemical, 
# crystal, experimental, refinement or atomic coordinate data resulting 
# from the CCDC's data processing and validation procedures.
#
#######################################################################

data_RURJOF
_symmetry_cell_setting           monoclinic
_symmetry_space_group_name_H-M   'C c'
_symmetry_Int_Tables_number      9
_space_group_name_Hall           'C -2yc'
loop_
_symmetry_equiv_pos_site_id
_symmetry_equiv_pos_as_xyz
1 x,y,z
2 x,-y,1/2+z
3 1/2+x,1/2+y,z
4 1/2+x,1/2-y,1/2+z
_cell_length_a                   10.9596(7)
_cell_length_b                   20.2634(12)
_cell_length_c                   6.4760(3)
_cell_angle_alpha                90
_cell_angle_beta                 90.540(6)
_cell_angle_gamma                90
_cell_volume                     1438.12
loop_
_atom_site_label
_atom_site_type_symbol
_atom_site_fract_x
_atom_site_fract_y
_atom_site_fract_z
La1 La 0.13082(5) 0.25606(2) 0.16530(6)
La2 La 0.36351(6) 0.43163(2) 0.33279(7)
B1 B 0.2978(8) 0.2925(4) 0.6786(13)
B2 B 0.3817(10) 0.4020(5) 0.7848(14)
B3 B 0.3881(8) 0.3080(4) 1.0238(12)
B4 B 0.0717(9) 0.2586(5) 0.6287(14)
B5 B 0.3973(8) 0.2452(4) 0.3690(13)
C1 C 0.1285(8) 0.4329(5) 0.0507(14)
C2 C 0.0215(11) 0.4373(6) -0.095(2)
H1 H -0.0340 0.4017 -0.0682
H2 H 0.0497 0.4341 -0.2349
H3 H -0.0194 0.4787 -0.0763
C3 C 0.6482(12) 0.3969(6) 0.4143(19)
C4 C 0.7833(15) 0.4034(10) 0.398(3)
H4 H 0.8025 0.4411 0.3141
H5 H 0.8161 0.3644 0.3353
H6 H 0.8183 0.4090 0.5330
O1 O 0.1835(5) 0.2770(3) 0.5660(8)
O2 O 0.3186(5) 0.3634(3) 0.6445(8)
O3 O 0.2885(5) 0.2801(3) 0.8994(8)
O4 O 0.4128(6) 0.4626(3) 0.7171(9)
O5 O 0.4047(6) 0.3786(3) 0.9799(9)
O6 O 0.0033(5) 0.2283(3) 0.4817(8)
O7 O 0.3585(5) 0.3018(3) 0.2448(8)
O8 O 0.5285(5) 0.2285(3) 0.3190(9)
O9 O 0.3146(5) 0.1916(3) 0.2998(9)
H7 H 0.2753 0.2039 0.1985
O10 O 0.3981(5) 0.2543(3) 0.5862(9)
O11 O 0.2102(6) 0.4767(3) 0.0427(10)
O12 O 0.1387(7) 0.3848(3) 0.1734(12)
O13 O 0.5860(8) 0.4294(5) 0.3022(14)
O14 O 0.6129(7) 0.3528(4) 0.5303(15)
La1_2 La 0.13082(5) 0.25606(2) 1.16530(6)
La1C La 0.63082(5) 0.24394(2) 0.66530(6)
La2_2 La 0.36351(6) 0.43163(2) 1.33279(7)
La2A La 0.36351(6) 0.56837(2) -0.16721(7)
La2A_2 La 0.36351(6) 0.56837(2) 0.83279(7)
B3_2 B 0.3881(8) 0.3080(4) 0.0238(12)
B3C B -0.1119(8) 0.1920(4) 0.5238(12)
B4C B 0.5717(9) 0.2414(5) 0.1287(14)
O3_2 O 0.2885(5) 0.2801(3) -0.1006(8)
O4A O 0.4128(6) 0.5374(3) 0.2171(9)
O5_2 O 0.4047(6) 0.3786(3) -0.0201(9)
O6C O 0.5033(5) 0.2717(3) 0.9817(8)
O7_2 O 0.3585(5) 0.3018(3) 1.2448(8)
O8C O 0.0285(5) 0.2715(3) -0.1810(9)
O8C_2 O 0.0285(5) 0.2715(3) 0.8190(9)
O10C O -0.1019(5) 0.2457(3) 0.0862(9)
O11A O 0.2102(6) 0.5233(3) 0.5427(10)
O14C O 0.1129(7) 0.1472(4) 0.0303(15)
loop_
_geom_bond_atom_site_label_1
_geom_bond_atom_site_label_2
_geom_bond_site_symmetry_1
_geom_bond_site_symmetry_2
La1 O1 1_555 1_555
La2 O2 1_555 1_555
B1 O1 1_555 1_555
B2 O2 1_555 1_555
B3 O3 1_555 1_555
B4 O1 1_555 1_555
B5 O7 1_555 1_555
C1 C2 1_555 1_555
C2 H1 1_555 1_555
H2 C2 1_555 1_555
H3 C2 1_555 1_555
C3 C4 1_555 1_555
C4 H4 1_555 1_555
H5 C4 1_555 1_555
H6 C4 1_555 1_555
O2 B1 1_555 1_555
O3 B1 1_555 1_555
O4 La2 1_555 1_555
O5 B2 1_555 1_555
O6 La1 1_555 1_555
O7 La1 1_555 1_555
O8 B5 1_555 1_555
O9 La1 1_555 1_555
H7 O9 1_555 1_555
O10 B1 1_555 1_555
O11 La2 1_555 1_555
O12 La1 1_555 1_555
O13 La2 1_555 1_555
O14 C3 1_555 1_555
La1_2 O3 1_555 1_555
La1C O8 1_555 1_555
La2_2 O5 1_555 1_555
La2A O11 1_555 1_555
La2A_2 O4 1_555 1_555
B3_2 O7 1_555 1_555
B3C O6 1_555 1_555
B4C O8 1_555 1_555
O3_2 La1 1_555 1_555
O4A La2 1_555 1_555
O5_2 La2 1_555 1_555
O6C B3 1_555 1_555
O7_2 B3 1_555 1_555
O8C La1 1_555 1_555
O8C_2 B4 1_555 1_555
O10C La1 1_555 1_555
O11A La2 1_555 1_555
O14C La1 1_555 1_555
La2 O7 1_555 1_555
La2 O12 1_555 1_555
B2 O4 1_555 1_555
B3 O5 1_555 1_555
B4 O6 1_555 1_555
B5 O9 1_555 1_555
B5 O10 1_555 1_555
C1 O11 1_555 1_555
C1 O12 1_555 1_555
C3 O13 1_555 1_555
O10 La1C 1_555 1_555
O14 La1C 1_555 1_555
La1_2 O7_2 1_555 1_555
La1_2 O8C_2 1_555 1_555
La1C O6C 1_555 1_555
La2_2 O7_2 1_555 1_555
La2A O4A 1_555 1_555
La2A_2 O11A 1_555 1_555
B3_2 O3_2 1_555 1_555
B3_2 O5_2 1_555 1_555

#END
