
#######################################################################
#
#                 Cambridge Crystallographic Data Centre
#                                CCDC 
#
#######################################################################
#
# If this CIF has been generated from an entry in the Cambridge 
# Structural Database, then it will include bibliographic, chemical, 
# crystal, experimental, refinement or atomic coordinate data resulting 
# from the CCDC's data processing and validation procedures.
#
#######################################################################

data_RURJEV
_symmetry_cell_setting           monoclinic
_symmetry_space_group_name_H-M   'C c'
_symmetry_Int_Tables_number      9
_space_group_name_Hall           'C -2yc'
loop_
_symmetry_equiv_pos_site_id
_symmetry_equiv_pos_as_xyz
1 x,y,z
2 x,-y,1/2+z
3 1/2+x,1/2+y,z
4 1/2+x,1/2-y,1/2+z
_cell_length_a                   10.7454(7)
_cell_length_b                   20.0674(11)
_cell_length_c                   6.4580(4)
_cell_angle_alpha                90
_cell_angle_beta                 90.527(6)
_cell_angle_gamma                90
_cell_volume                     1392.49
loop_
_atom_site_label
_atom_site_type_symbol
_atom_site_fract_x
_atom_site_fract_y
_atom_site_fract_z
Ce1 Ce 0.12248(5) 0.26331(3) 0.16485(5)
Ce2 Ce 0.37670(6) 0.43169(3) 0.33390(8)
B1 B 0.2952(10) 0.2981(5) 0.6779(16)
B2 B 0.3977(13) 0.4030(6) 0.7873(19)
B3 B 0.3855(12) 0.3065(6) 1.0260(17)
B4 B 0.0652(12) 0.2674(5) 0.629(2)
B5 B 0.3862(12) 0.2438(6) 0.3677(18)
C1 C 0.1442(13) 0.4373(5) 0.044(2)
C2 C 0.0382(15) 0.4443(8) -0.106(3)
H1 H -0.0208 0.4092 -0.0844
H2 H 0.0691 0.4417 -0.2452
H3 H -0.0017 0.4866 -0.0863
C3 C 0.6633(11) 0.3878(5) 0.3952(16)
C4 C 0.8036(12) 0.3883(7) 0.389(2)
H4 H 0.8312 0.4250 0.3059
H5 H 0.8327 0.3473 0.3308
H6 H 0.8362 0.3931 0.5274
O1 O 0.1764(7) 0.2891(4) 0.5662(11)
O2 O 0.3294(7) 0.3674(4) 0.6474(11)
O3 O 0.2807(7) 0.2859(3) 0.8998(11)
O4 O 0.4426(8) 0.4631(4) 0.7210(12)
O5 O 0.4188(7) 0.3782(4) 0.9818(11)
O6 O -0.0014(7) 0.2338(4) 0.4813(12)
O7 O 0.3557(7) 0.3042(3) 0.2464(10)
O8 O 0.5163(8) 0.2199(4) 0.3212(12)
O9 O 0.2942(8) 0.1948(4) 0.2956(13)
H7 H 0.2688 0.2054 0.1800
O10 O 0.3887(8) 0.2547(4) 0.5886(13)
O11 O 0.2298(8) 0.4810(4) 0.0363(12)
O12 O 0.1474(8) 0.3913(4) 0.1748(14)
O13 O 0.6078(9) 0.4321(4) 0.2947(15)
O14 O 0.6063(9) 0.3460(4) 0.4991(15)
Ce1_2 Ce 0.12248(5) 0.26331(3) 1.16485(5)
Ce1C Ce 0.62248(5) 0.23669(3) 0.66485(5)
Ce2_2 Ce 0.37670(6) 0.43169(3) 1.33390(8)
Ce2A Ce 0.37670(6) 0.56831(3) -0.16610(8)
Ce2A_2 Ce 0.37670(6) 0.56831(3) 0.83390(8)
B3_2 B 0.3855(12) 0.3065(6) 0.0260(17)
B3C B -0.1145(12) 0.1935(6) 0.5260(17)
B4C B 0.5652(12) 0.2326(5) 0.129(2)
O3_2 O 0.2807(7) 0.2859(3) -0.1002(11)
O4A O 0.4426(8) 0.5369(4) 0.2210(12)
O5_2 O 0.4188(7) 0.3782(4) -0.0182(11)
O6C O 0.4986(7) 0.2662(4) 0.9813(12)
O7_2 O 0.3557(7) 0.3042(3) 1.2464(10)
O8C O 0.0163(8) 0.2801(4) -0.1788(12)
O8C_2 O 0.0163(8) 0.2801(4) 0.8212(12)
O10C O -0.1113(8) 0.2453(4) 0.0886(13)
O11A O 0.2298(8) 0.5190(4) 0.5363(12)
O14C O 0.1063(9) 0.1540(4) -0.0009(15)
O15 O 0.2195(10) 0.0661(5) 0.3969(17)
H8 H 0.2025 0.0540 0.5205
H9 H 0.1627 0.0594 0.3166
loop_
_geom_bond_atom_site_label_1
_geom_bond_atom_site_label_2
_geom_bond_site_symmetry_1
_geom_bond_site_symmetry_2
Ce1 O1 1_555 1_555
Ce2 O2 1_555 1_555
B1 O1 1_555 1_555
B2 O2 1_555 1_555
B3 O3 1_555 1_555
B4 O1 1_555 1_555
B5 O7 1_555 1_555
C1 C2 1_555 1_555
C2 H1 1_555 1_555
H2 C2 1_555 1_555
H3 C2 1_555 1_555
C3 C4 1_555 1_555
C4 H4 1_555 1_555
H5 C4 1_555 1_555
H6 C4 1_555 1_555
O2 B1 1_555 1_555
O3 B1 1_555 1_555
O4 Ce2 1_555 1_555
O5 B2 1_555 1_555
O6 Ce1 1_555 1_555
O7 Ce1 1_555 1_555
O8 B5 1_555 1_555
O9 Ce1 1_555 1_555
H7 O9 1_555 1_555
O10 B1 1_555 1_555
O11 Ce2 1_555 1_555
O12 Ce1 1_555 1_555
O13 Ce2 1_555 1_555
O14 C3 1_555 1_555
O15 H8 1_555 1_555
H9 O15 1_555 1_555
Ce1_2 O3 1_555 1_555
Ce1C O8 1_555 1_555
Ce2_2 O5 1_555 1_555
Ce2A O11 1_555 1_555
Ce2A_2 O4 1_555 1_555
B3_2 O7 1_555 1_555
B3C O6 1_555 1_555
B4C O8 1_555 1_555
O3_2 Ce1 1_555 1_555
O4A Ce2 1_555 1_555
O5_2 Ce2 1_555 1_555
O6C B3 1_555 1_555
O7_2 B3 1_555 1_555
O8C Ce1 1_555 1_555
O8C_2 B4 1_555 1_555
O10C Ce1 1_555 1_555
O11A Ce2 1_555 1_555
O14C Ce1 1_555 1_555
Ce2 O7 1_555 1_555
Ce2 O12 1_555 1_555
B2 O4 1_555 1_555
B3 O5 1_555 1_555
B4 O6 1_555 1_555
B5 O9 1_555 1_555
B5 O10 1_555 1_555
C1 O11 1_555 1_555
C1 O12 1_555 1_555
C3 O13 1_555 1_555
O10 Ce1C 1_555 1_555
O14 Ce1C 1_555 1_555
Ce1_2 O7_2 1_555 1_555
Ce1_2 O8C_2 1_555 1_555
Ce1C O6C 1_555 1_555
Ce2_2 O7_2 1_555 1_555
Ce2A O4A 1_555 1_555
Ce2A_2 O11A 1_555 1_555
B3_2 O3_2 1_555 1_555
B3_2 O5_2 1_555 1_555

#END
