
#######################################################################
#
#                 Cambridge Crystallographic Data Centre
#                                CCDC 
#
#######################################################################
#
# If this CIF has been generated from an entry in the Cambridge 
# Structural Database, then it will include bibliographic, chemical, 
# crystal, experimental, refinement or atomic coordinate data resulting 
# from the CCDC's data processing and validation procedures.
#
#######################################################################

data_RURJIZ
_symmetry_cell_setting           monoclinic
_symmetry_space_group_name_H-M   'C c'
_symmetry_Int_Tables_number      9
_space_group_name_Hall           'C -2yc'
loop_
_symmetry_equiv_pos_site_id
_symmetry_equiv_pos_as_xyz
1 x,y,z
2 x,-y,1/2+z
3 1/2+x,1/2+y,z
4 1/2+x,1/2-y,1/2+z
_cell_length_a                   10.6897(9)
_cell_length_b                   19.9883(16)
_cell_length_c                   6.4273(5)
_cell_angle_alpha                90
_cell_angle_beta                 90.545(8)
_cell_angle_gamma                90
_cell_volume                     1373.25
loop_
_atom_site_label
_atom_site_type_symbol
_atom_site_fract_x
_atom_site_fract_y
_atom_site_fract_z
Pr1 Pr 0.12328(6) 0.26336(3) 0.16515(7)
Pr2 Pr 0.37533(7) 0.43197(3) 0.33332(9)
B1 B 0.2941(14) 0.2978(8) 0.679(2)
B2 B 0.3979(14) 0.4041(7) 0.790(2)
B3 B 0.3868(12) 0.3075(7) 1.026(2)
B4 B 0.0649(14) 0.2680(7) 0.633(2)
B5 B 0.3894(13) 0.2432(6) 0.371(2)
C1 C 0.1441(13) 0.4381(6) 0.043(2)
C2 C 0.0353(17) 0.4450(9) -0.101(3)
H1 H -0.0228 0.4093 -0.0761
H2 H 0.0635 0.4430 -0.2418
H3 H -0.0052 0.4871 -0.0768
C3 C 0.6630(13) 0.3859(7) 0.398(2)
C4 C 0.8052(15) 0.3889(8) 0.393(3)
H4 H 0.8308 0.4260 0.3087
H5 H 0.8371 0.3481 0.3351
H6 H 0.8373 0.3945 0.5318
O1 O 0.1751(8) 0.2899(5) 0.5656(13)
O2 O 0.3307(8) 0.3681(4) 0.6446(13)
O3 O 0.2817(8) 0.2863(4) 0.8985(13)
O4 O 0.4405(8) 0.4632(4) 0.7191(13)
O5 O 0.4179(8) 0.3787(4) 0.9835(13)
O6 O -0.0021(8) 0.2330(4) 0.4808(15)
O7 O 0.3566(8) 0.3053(4) 0.2467(13)
O8 O 0.5169(9) 0.2205(5) 0.3227(13)
O9 O 0.2936(9) 0.1959(5) 0.2937(15)
H7 H 0.2691 0.1707 0.3918
O10 O 0.3895(9) 0.2549(5) 0.5869(15)
O11 O 0.2300(9) 0.4814(5) 0.0380(15)
O12 O 0.1465(8) 0.3905(5) 0.1750(16)
O13 O 0.6015(10) 0.4313(5) 0.2974(17)
O14 O 0.6070(10) 0.3439(5) 0.5057(19)
Pr1_2 Pr 0.12328(6) 0.26336(3) 1.16515(7)
Pr1C Pr 0.62328(6) 0.23664(3) 0.66515(7)
Pr2_2 Pr 0.37533(7) 0.43197(3) 1.33332(9)
Pr2A Pr 0.37533(7) 0.56803(3) -0.16668(9)
Pr2A_2 Pr 0.37533(7) 0.56803(3) 0.83332(9)
B3_2 B 0.3868(12) 0.3075(7) 0.026(2)
B3C B -0.1132(12) 0.1925(7) 0.526(2)
B4C B 0.5649(14) 0.2320(7) 0.133(2)
O3_2 O 0.2817(8) 0.2863(4) -0.1015(13)
O4A O 0.4405(8) 0.5368(4) 0.2191(13)
O5_2 O 0.4179(8) 0.3787(4) -0.0165(13)
O6C O 0.4979(8) 0.2670(4) 0.9808(15)
O7_2 O 0.3566(8) 0.3053(4) 1.2467(13)
O8C O 0.0169(9) 0.2795(5) -0.1773(13)
O8C_2 O 0.0169(9) 0.2795(5) 0.8227(13)
O10C O -0.1105(9) 0.2451(5) 0.0869(15)
O11A O 0.2300(9) 0.5186(5) 0.5380(15)
O14C O 0.1070(10) 0.1561(5) 0.0057(19)
O15 O 0.2175(12) 0.0655(6) 0.402(2)
H8 H 0.1968 0.0551 0.5248
H9 H 0.1561 0.0586 0.3193
loop_
_geom_bond_atom_site_label_1
_geom_bond_atom_site_label_2
_geom_bond_site_symmetry_1
_geom_bond_site_symmetry_2
Pr1 O1 1_555 1_555
Pr2 O2 1_555 1_555
B1 O1 1_555 1_555
B2 O2 1_555 1_555
B3 O3 1_555 1_555
B4 O1 1_555 1_555
B5 O7 1_555 1_555
C1 C2 1_555 1_555
C2 H1 1_555 1_555
H2 C2 1_555 1_555
H3 C2 1_555 1_555
C3 C4 1_555 1_555
C4 H4 1_555 1_555
H5 C4 1_555 1_555
H6 C4 1_555 1_555
O2 B1 1_555 1_555
O3 B1 1_555 1_555
O4 Pr2 1_555 1_555
O5 B2 1_555 1_555
O6 Pr1 1_555 1_555
O7 Pr1 1_555 1_555
O8 B5 1_555 1_555
O9 Pr1 1_555 1_555
H7 O9 1_555 1_555
O10 B1 1_555 1_555
O11 Pr2 1_555 1_555
O12 Pr1 1_555 1_555
O13 Pr2 1_555 1_555
O14 C3 1_555 1_555
O15 H8 1_555 1_555
H9 O15 1_555 1_555
Pr1_2 O3 1_555 1_555
Pr1C O8 1_555 1_555
Pr2_2 O5 1_555 1_555
Pr2A O11 1_555 1_555
Pr2A_2 O4 1_555 1_555
B3_2 O7 1_555 1_555
B3C O6 1_555 1_555
B4C O8 1_555 1_555
O3_2 Pr1 1_555 1_555
O4A Pr2 1_555 1_555
O5_2 Pr2 1_555 1_555
O6C B3 1_555 1_555
O7_2 B3 1_555 1_555
O8C Pr1 1_555 1_555
O8C_2 B4 1_555 1_555
O10C Pr1 1_555 1_555
O11A Pr2 1_555 1_555
O14C Pr1 1_555 1_555
Pr2 O7 1_555 1_555
Pr2 O12 1_555 1_555
B2 O4 1_555 1_555
B3 O5 1_555 1_555
B4 O6 1_555 1_555
B5 O9 1_555 1_555
B5 O10 1_555 1_555
C1 O11 1_555 1_555
C1 O12 1_555 1_555
C3 O13 1_555 1_555
O10 Pr1C 1_555 1_555
O14 Pr1C 1_555 1_555
Pr1_2 O7_2 1_555 1_555
Pr1_2 O8C_2 1_555 1_555
Pr1C O6C 1_555 1_555
Pr2_2 O7_2 1_555 1_555
Pr2A O4A 1_555 1_555
Pr2A_2 O11A 1_555 1_555
B3_2 O3_2 1_555 1_555
B3_2 O5_2 1_555 1_555

#END
