
#######################################################################
#
#                 Cambridge Crystallographic Data Centre
#                                CCDC 
#
#######################################################################
#
# If this CIF has been generated from an entry in the Cambridge 
# Structural Database, then it will include bibliographic, chemical, 
# crystal, experimental, refinement or atomic coordinate data resulting 
# from the CCDC's data processing and validation procedures.
#
#######################################################################

data_RURKAS
_symmetry_cell_setting           monoclinic
_symmetry_space_group_name_H-M   'C c'
_symmetry_Int_Tables_number      9
_space_group_name_Hall           'C -2yc'
loop_
_symmetry_equiv_pos_site_id
_symmetry_equiv_pos_as_xyz
1 x,y,z
2 x,-y,1/2+z
3 1/2+x,1/2+y,z
4 1/2+x,1/2-y,1/2+z
_cell_length_a                   10.9265(6)
_cell_length_b                   20.2045(8)
_cell_length_c                   6.4365(3)
_cell_angle_alpha                90
_cell_angle_beta                 90.528(4)
_cell_angle_gamma                90
_cell_volume                     1420.89
loop_
_atom_site_label
_atom_site_type_symbol
_atom_site_fract_x
_atom_site_fract_y
_atom_site_fract_z
Pr1 Pr 0.13431(3) 0.255488(10) 0.16643(3)
Pr2 Pr 0.35899(3) 0.431836(11) 0.33130(4)
B1 B 0.3001(4) 0.2928(2) 0.6776(7)
B2 B 0.3804(5) 0.4048(2) 0.7798(7)
B3 B 0.3891(4) 0.3093(2) 1.0274(7)
B4 B 0.0747(4) 0.2565(2) 0.6278(8)
B5 B 0.4021(5) 0.2467(2) 0.3671(8)
C1 C 0.1256(6) 0.4318(3) 0.0519(11)
C2 C 0.0192(8) 0.4382(4) -0.0851(14)
H1 H -0.0369 0.4027 -0.0586
H2 H 0.0450 0.4363 -0.2272
H3 H -0.0205 0.4798 -0.0598
C3 C 0.6474(7) 0.3969(4) 0.4288(13)
C4 C 0.7827(12) 0.4020(6) 0.381(2)
H4 H 0.7968 0.4400 0.2950
H5 H 0.8084 0.3628 0.3090
H6 H 0.8284 0.4063 0.5081
O1 O 0.1869(3) 0.27496(16) 0.5623(5)
O2 O 0.3181(3) 0.36411(13) 0.6416(5)
O3 O 0.2880(3) 0.28045(14) 0.9000(4)
O4 O 0.4090(3) 0.46479(14) 0.7107(5)
O5 O 0.4047(3) 0.38009(14) 0.9784(5)
O6 O 0.0054(3) 0.22584(18) 0.4776(5)
O7 O 0.3608(3) 0.30537(14) 0.2459(5)
O8 O 0.5324(3) 0.23056(18) 0.3212(5)
O9 O 0.3188(3) 0.19291(15) 0.2960(5)
H7 H 0.2796 0.2055 0.1943
O10 O 0.4014(3) 0.25532(14) 0.5874(5)
O11 O 0.2045(4) 0.47551(19) 0.0476(8)
O12 O 0.1340(5) 0.38193(19) 0.1744(8)
O13 O 0.5788(6) 0.4263(3) 0.3143(11)
O14 O 0.6168(5) 0.3531(2) 0.5500(12)
Pr1_2 Pr 0.13431(3) 0.255488(10) 1.16643(3)
Pr1C Pr 0.63431(3) 0.244512(10) 0.66643(3)
Pr2_2 Pr 0.35899(3) 0.431836(11) 1.33130(4)
Pr2A Pr 0.35899(3) 0.568164(11) -0.16870(4)
Pr2A_2 Pr 0.35899(3) 0.568164(11) 0.83130(4)
B3_2 B 0.3891(4) 0.3093(2) 0.0274(7)
B3C B -0.1109(4) 0.1907(2) 0.5274(7)
B4C B 0.5747(4) 0.2435(2) 0.1278(8)
O3_2 O 0.2880(3) 0.28045(14) -0.1000(4)
O4A O 0.4090(3) 0.53521(14) 0.2107(5)
O5_2 O 0.4047(3) 0.38009(14) -0.0216(5)
O6C O 0.5054(3) 0.27416(18) 0.9776(5)
O7_2 O 0.3608(3) 0.30537(14) 1.2459(5)
O8C O 0.0324(3) 0.26944(18) -0.1788(5)
O8C_2 O 0.0324(3) 0.26944(18) 0.8212(5)
O10C O -0.0986(3) 0.24468(14) 0.0874(5)
O11A O 0.2045(4) 0.52449(19) 0.5476(8)
O14C O 0.1168(5) 0.1469(2) 0.0500(12)
loop_
_geom_bond_atom_site_label_1
_geom_bond_atom_site_label_2
_geom_bond_site_symmetry_1
_geom_bond_site_symmetry_2
Pr1 O1 1_555 1_555
Pr2 O2 1_555 1_555
B1 O1 1_555 1_555
B2 O2 1_555 1_555
B3 O3 1_555 1_555
B4 O1 1_555 1_555
B5 O7 1_555 1_555
C1 C2 1_555 1_555
C2 H1 1_555 1_555
H2 C2 1_555 1_555
H3 C2 1_555 1_555
C3 C4 1_555 1_555
C4 H4 1_555 1_555
H5 C4 1_555 1_555
H6 C4 1_555 1_555
O2 B1 1_555 1_555
O3 B1 1_555 1_555
O4 Pr2 1_555 1_555
O5 B2 1_555 1_555
O6 Pr1 1_555 1_555
O7 Pr1 1_555 1_555
O8 B5 1_555 1_555
O9 Pr1 1_555 1_555
H7 O9 1_555 1_555
O10 B1 1_555 1_555
O11 Pr2 1_555 1_555
O12 Pr1 1_555 1_555
O13 Pr2 1_555 1_555
O14 C3 1_555 1_555
Pr1_2 O3 1_555 1_555
Pr1C O8 1_555 1_555
Pr2_2 O5 1_555 1_555
Pr2A O11 1_555 1_555
Pr2A_2 O4 1_555 1_555
B3_2 O7 1_555 1_555
B3C O6 1_555 1_555
B4C O8 1_555 1_555
O3_2 Pr1 1_555 1_555
O4A Pr2 1_555 1_555
O5_2 Pr2 1_555 1_555
O6C B3 1_555 1_555
O7_2 B3 1_555 1_555
O8C Pr1 1_555 1_555
O8C_2 B4 1_555 1_555
O10C Pr1 1_555 1_555
O11A Pr2 1_555 1_555
O14C Pr1 1_555 1_555
Pr2 O7 1_555 1_555
Pr2 O12 1_555 1_555
B2 O4 1_555 1_555
B3 O5 1_555 1_555
B4 O6 1_555 1_555
B5 O9 1_555 1_555
B5 O10 1_555 1_555
C1 O11 1_555 1_555
C1 O12 1_555 1_555
C3 O13 1_555 1_555
O10 Pr1C 1_555 1_555
O14 Pr1C 1_555 1_555
Pr1_2 O7_2 1_555 1_555
Pr1_2 O8C_2 1_555 1_555
Pr1C O6C 1_555 1_555
Pr2_2 O7_2 1_555 1_555
Pr2A O4A 1_555 1_555
Pr2A_2 O11A 1_555 1_555
B3_2 O3_2 1_555 1_555
B3_2 O5_2 1_555 1_555

#END
