
#######################################################################
#
#                 Cambridge Crystallographic Data Centre
#                                CCDC 
#
#######################################################################
#
# If this CIF has been generated from an entry in the Cambridge 
# Structural Database, then it will include bibliographic, chemical, 
# crystal, experimental, refinement or atomic coordinate data resulting 
# from the CCDC's data processing and validation procedures.
#
#######################################################################

data_RURTEF
_symmetry_cell_setting           orthorhombic
_symmetry_space_group_name_H-M   'P b c n'
_symmetry_Int_Tables_number      60
_space_group_name_Hall           '-P 2n 2ab'
loop_
_symmetry_equiv_pos_site_id
_symmetry_equiv_pos_as_xyz
1 x,y,z
2 1/2-x,1/2-y,1/2+z
3 -x,y,1/2-z
4 1/2+x,1/2-y,-z
5 -x,-y,-z
6 1/2+x,1/2+y,1/2-z
7 x,-y,1/2+z
8 1/2-x,1/2+y,z
_cell_length_a                   9.8438(2)
_cell_length_b                   9.1897(2)
_cell_length_c                   22.8948(4)
_cell_angle_alpha                90
_cell_angle_beta                 90
_cell_angle_gamma                90
_cell_volume                     2071.1
loop_
_atom_site_label
_atom_site_type_symbol
_atom_site_fract_x
_atom_site_fract_y
_atom_site_fract_z
Cd1 Cd 1.0000 0.11224(5) 0.7500
N1 N 0.8425(4) 0.4650(5) 0.71416(18)
H1 H 0.8043 0.5387 0.6978
H2 H 0.9243 0.4416 0.7050
N2 N 0.8289(4) 0.2699(4) 0.78205(17)
C1 C 0.7391(6) 0.1135(5) 0.8626(2)
O1 O 0.9090(4) 0.1297(4) 0.65667(17)
N3 N 0.6454(4) 0.4160(4) 0.77102(18)
C2 C 0.7732(6) 0.3852(5) 0.75474(18)
C3 C 0.7281(5) 0.2249(5) 0.81951(18)
C4 C 0.6166(4) 0.3126(5) 0.8124(2)
N4 N 0.9069(5) 0.1975(7) 0.5616(2)
N5 N 0.3982(5) 0.2729(6) 0.8709(3)
N6 N 0.7418(7) 0.0315(6) 0.9000(2)
C5 C 0.4921(5) 0.2962(6) 0.8435(2)
C6 C 0.9373(9) 0.2022(10) 0.6174(3)
H3 H 0.9931 0.2801 0.6272
C7 C 0.9492(13) 0.3011(17) 0.5189(5)
H4 H 0.9115 0.3947 0.5282
H5 H 0.9178 0.2711 0.4811
H6 H 1.0465 0.3073 0.5187
C8 C 0.8193(12) 0.0771(13) 0.5425(5)
H7 H 0.8668 -0.0134 0.5472
H8 H 0.7959 0.0902 0.5022
H9 H 0.7381 0.0758 0.5657
N1B N 1.1575(4) 0.4650(5) 0.78584(18)
H1B H 1.1957 0.5387 0.8022
H2B H 1.0757 0.4416 0.7950
N2B N 1.1711(4) 0.2699(4) 0.71795(17)
C1B C 1.2609(6) 0.1135(5) 0.6374(2)
O1B O 1.0910(4) 0.1297(4) 0.84333(17)
N3B N 1.3546(4) 0.4160(4) 0.72898(18)
C2B C 1.2268(6) 0.3852(5) 0.74526(18)
C3B C 1.2719(5) 0.2249(5) 0.68049(18)
C4B C 1.3834(4) 0.3126(5) 0.6876(2)
N4B N 1.0931(5) 0.1975(7) 0.9384(2)
N5B N 1.6018(5) 0.2729(6) 0.6291(3)
N6B N 1.2582(7) 0.0315(6) 0.6000(2)
C5B C 1.5079(5) 0.2962(6) 0.6565(2)
C6B C 1.0627(9) 0.2022(10) 0.8826(3)
H3B H 1.0069 0.2801 0.8728
C7B C 1.0508(13) 0.3011(17) 0.9811(5)
H4B H 1.0885 0.3947 0.9718
H5B H 1.0822 0.2711 1.0189
H6B H 0.9535 0.3073 0.9813
C8B C 1.1807(12) 0.0771(13) 0.9575(5)
H7B H 1.1332 -0.0134 0.9528
H8B H 1.2041 0.0902 0.9978
H9B H 1.2619 0.0758 0.9343
Cd1E Cd 0.5000 0.61224(5) 0.7500
Cd1E_2 Cd 1.5000 0.61224(5) 0.7500
N3E N 1.1454(4) -0.0840(4) 0.72898(18)
N3G N 0.8546(4) -0.0840(4) 0.77102(18)
loop_
_geom_bond_atom_site_label_1
_geom_bond_atom_site_label_2
_geom_bond_site_symmetry_1
_geom_bond_site_symmetry_2
Cd1 N2 1_555 1_555
N1 H1 1_555 1_555
H2 N1 1_555 1_555
N2 C2 1_555 1_555
C1 C3 1_555 1_555
O1 Cd1 1_555 1_555
N3 C2 1_555 1_555
C2 N1 1_555 1_555
C3 N2 1_555 1_555
C4 N3 1_555 1_555
N4 C6 1_555 1_555
N5 C5 1_555 1_555
N6 C1 1_555 1_555
C5 C4 1_555 1_555
C6 O1 1_555 1_555
H3 C6 1_555 1_555
C7 N4 1_555 1_555
H4 C7 1_555 1_555
H5 C7 1_555 1_555
H6 C7 1_555 1_555
C8 N4 1_555 1_555
H7 C8 1_555 1_555
H8 C8 1_555 1_555
H9 C8 1_555 1_555
N1B H1B 1_555 1_555
H2B N1B 1_555 1_555
N2B Cd1 1_555 1_555
C1B C3B 1_555 1_555
O1B Cd1 1_555 1_555
N3B C2B 1_555 1_555
C2B N1B 1_555 1_555
C3B N2B 1_555 1_555
C4B N3B 1_555 1_555
N4B C6B 1_555 1_555
N5B C5B 1_555 1_555
N6B C1B 1_555 1_555
C5B C4B 1_555 1_555
C6B O1B 1_555 1_555
H3B C6B 1_555 1_555
C7B N4B 1_555 1_555
H4B C7B 1_555 1_555
H5B C7B 1_555 1_555
H6B C7B 1_555 1_555
C8B N4B 1_555 1_555
H7B C8B 1_555 1_555
H8B C8B 1_555 1_555
H9B C8B 1_555 1_555
Cd1E N3 1_555 1_555
Cd1E_2 N3B 1_555 1_555
N3E Cd1 1_555 1_555
N3G Cd1 1_555 1_555
C3 C4 1_555 1_555
N2B C2B 1_555 1_555
C3B C4B 1_555 1_555

#END
