
#######################################################################
#
#                 Cambridge Crystallographic Data Centre
#                                CCDC 
#
#######################################################################
#
# If this CIF has been generated from an entry in the Cambridge 
# Structural Database, then it will include bibliographic, chemical, 
# crystal, experimental, refinement or atomic coordinate data resulting 
# from the CCDC's data processing and validation procedures.
#
#######################################################################

data_RURYIN
_symmetry_cell_setting           triclinic
_symmetry_space_group_name_H-M   'P -1'
_symmetry_Int_Tables_number      2
_space_group_name_Hall           '-P 1'
loop_
_symmetry_equiv_pos_site_id
_symmetry_equiv_pos_as_xyz
1 x,y,z
2 -x,-y,-z
_cell_length_a                   9.209(2)
_cell_length_b                   9.744(2)
_cell_length_c                   11.310(2)
_cell_angle_alpha                73.139(2)
_cell_angle_beta                 89.748(2)
_cell_angle_gamma                73.642(2)
_cell_volume                     928.624
loop_
_atom_site_label
_atom_site_type_symbol
_atom_site_fract_x
_atom_site_fract_y
_atom_site_fract_z
O4 O 0.9848(5) 0.1322(6) 0.4003(4)
H3 H 0.9215 0.1383 0.4550
H4 H 1.0091 0.0517 0.3799
O5 O 0.5000 0.0000 0.5000
C17 C 0.3423(13) 0.016(3) 0.478(3)
C17A C 0.6577(13) -0.016(3) 0.522(3)
Ni1 Ni 0.5000 0.5000 0.0000
O1 O 0.4875(2) 0.4875(3) 0.18274(18)
O2 O 0.7110(3) 0.3313(3) 0.2742(2)
O3 O 0.7031(3) 0.3265(3) 0.0393(2)
H1 H 0.7323 0.3227 0.1117
H2 H 0.7711 0.3130 -0.0106
N1 N 0.3870(3) 0.3337(3) 0.0236(2)
N2 N 0.0695(3) -0.2844(3) 0.1311(3)
C1 C 0.2490(4) 0.1022(4) 0.0644(3)
C2 C 0.3361(4) 0.1323(4) -0.0339(3)
H5 H 0.3502 0.0755 -0.0886
C3 C 0.4025(4) 0.2461(4) -0.0513(3)
H6 H 0.4610 0.2634 -0.1182
C4 C 0.3005(4) 0.3065(4) 0.1176(3)
H7 H 0.2873 0.3654 0.1707
C5 C 0.2296(5) 0.1948(5) 0.1396(4)
H8 H 0.1686 0.1817 0.2053
C6 C 0.1839(4) -0.0239(4) 0.0859(4)
H9 H 0.1969 -0.0754 0.0272
C7 C 0.1094(4) -0.0693(5) 0.1807(4)
H10 H 0.0937 -0.0148 0.2372
C8 C 0.0475(4) -0.1986(4) 0.2072(3)
C9 C 0.0097(5) -0.3978(5) 0.1597(4)
H11 H 0.0213 -0.4568 0.1067
C10 C -0.0690(5) -0.4341(5) 0.2635(5)
H12 H -0.1073 -0.5159 0.2802
C11 C -0.0886(6) -0.3470(6) 0.3399(5)
H13 H -0.1401 -0.3682 0.4107
C12 C -0.0314(5) -0.2281(5) 0.3110(4)
H14 H -0.0456 -0.1662 0.3616
C13 C 0.5846(4) 0.4228(4) 0.2740(3)
C14 C 0.5405(4) 0.4620(4) 0.3917(3)
C15 C 0.3979(4) 0.5536(4) 0.3968(3)
H15 H 0.3282 0.5905 0.3276
C16 C 0.6433(4) 0.4085(4) 0.4963(3)
H16 H 0.7403 0.3468 0.4944
Ni1_2 Ni 0.5000 0.5000 1.0000
O1A O 0.5125(2) 0.5125(3) 0.81726(18)
O1A_2 O 0.5125(2) 0.5125(3) -0.18274(18)
O2A O 0.2890(3) 0.6687(3) 0.7258(2)
O3A O 0.2969(3) 0.6735(3) -0.0393(2)
H1A H 0.2677 0.6773 -0.1117
H2A H 0.2289 0.6870 0.0106
N1A N 0.6130(3) 0.6663(3) -0.0236(2)
N2A N 0.9305(3) 1.2844(3) -0.1311(3)
C1A C 0.7510(4) 0.8978(4) -0.0644(3)
C2A C 0.6639(4) 0.8677(4) 0.0339(3)
H5A H 0.6498 0.9245 0.0886
C3A C 0.5975(4) 0.7539(4) 0.0513(3)
H6A H 0.5390 0.7366 0.1182
C4A C 0.6995(4) 0.6935(4) -0.1176(3)
H7A H 0.7127 0.6346 -0.1707
C5A C 0.7704(5) 0.8052(5) -0.1396(4)
H8A H 0.8314 0.8183 -0.2053
C6A C 0.8161(4) 1.0239(4) -0.0859(4)
H9A H 0.8031 1.0754 -0.0272
C7A C 0.8906(4) 1.0693(5) -0.1807(4)
H10A H 0.9063 1.0148 -0.2372
C8A C 0.9525(4) 1.1986(4) -0.2072(3)
C9A C 0.9903(5) 1.3978(5) -0.1597(4)
H11A H 0.9787 1.4568 -0.1067
C10A C 1.0690(5) 1.4341(5) -0.2635(5)
H12A H 1.1073 1.5159 -0.2802
C11A C 1.0886(6) 1.3470(6) -0.3399(5)
H13A H 1.1401 1.3682 -0.4107
C12A C 1.0314(5) 1.2281(5) -0.3110(4)
H14A H 1.0456 1.1662 -0.3616
C13A C 0.4154(4) 0.5772(4) 0.7260(3)
C14A C 0.4595(4) 0.5380(4) 0.6083(3)
C15A C 0.6021(4) 0.4464(4) 0.6032(3)
H15A H 0.6718 0.4095 0.6724
C16A C 0.3567(4) 0.5915(4) 0.5037(3)
H16A H 0.2597 0.6532 0.5056
O6? O 0.2384(11) 0.166(2) 0.4493(12)
C18? C 0.3978(15) 0.113(3) 0.478(2)
loop_
_geom_bond_atom_site_label_1
_geom_bond_atom_site_label_2
_geom_bond_site_symmetry_1
_geom_bond_site_symmetry_2
Ni1 O1 1_555 1_555
O1 C13 1_555 1_555
O2 C13 1_555 1_555
O3 Ni1 1_555 1_555
H1 O3 1_555 1_555
H2 O3 1_555 1_555
O4 H3 1_555 1_555
H4 O4 1_555 1_555
N1 Ni1 1_555 1_555
N2 C8 1_555 1_555
C1 C2 1_555 1_555
C2 H5 1_555 1_555
C3 N1 1_555 1_555
H6 C3 1_555 1_555
C4 N1 1_555 1_555
H7 C4 1_555 1_555
C5 C1 1_555 1_555
H8 C5 1_555 1_555
C6 C1 1_555 1_555
H9 C6 1_555 1_555
C7 C6 1_555 1_555
H10 C7 1_555 1_555
C8 C7 1_555 1_555
C9 N2 1_555 1_555
H11 C9 1_555 1_555
C10 C9 1_555 1_555
H12 C10 1_555 1_555
C11 C10 1_555 1_555
H13 C11 1_555 1_555
C12 C8 1_555 1_555
H14 C12 1_555 1_555
C13 C14 1_555 1_555
C14 C15 1_555 1_555
C15 H15 1_555 1_555
C16 C14 1_555 1_555
H16 C16 1_555 1_555
O5 C17 1_555 1_555
Ni1_2 O1A 1_555 1_555
O1A C13A 1_555 1_555
O1A_2 Ni1 1_555 1_555
O2A C13A 1_555 1_555
O3A Ni1 1_555 1_555
H1A O3A 1_555 1_555
H2A O3A 1_555 1_555
N1A Ni1 1_555 1_555
N2A C8A 1_555 1_555
C1A C2A 1_555 1_555
C2A H5A 1_555 1_555
C3A N1A 1_555 1_555
H6A C3A 1_555 1_555
C4A N1A 1_555 1_555
H7A C4A 1_555 1_555
C5A C1A 1_555 1_555
H8A C5A 1_555 1_555
C6A C1A 1_555 1_555
H9A C6A 1_555 1_555
C7A C6A 1_555 1_555
H10A C7A 1_555 1_555
C8A C7A 1_555 1_555
C9A N2A 1_555 1_555
H11A C9A 1_555 1_555
C10A C9A 1_555 1_555
H12A C10A 1_555 1_555
C11A C10A 1_555 1_555
H13A C11A 1_555 1_555
C12A C8A 1_555 1_555
H14A C12A 1_555 1_555
C13A C14A 1_555 1_555
C14A C15A 1_555 1_555
C15A C16 1_555 1_555
H15A C15A 1_555 1_555
C16A C15 1_555 1_555
H16A C16A 1_555 1_555
C17A O5 1_555 1_555
C2 C3 1_555 1_555
C4 C5 1_555 1_555
C11 C12 1_555 1_555
C2A C3A 1_555 1_555
C4A C5A 1_555 1_555
C11A C12A 1_555 1_555
C14A C16A 1_555 1_555

#END
