
#######################################################################
#
#                 Cambridge Crystallographic Data Centre
#                                CCDC 
#
#######################################################################
#
# If this CIF has been generated from an entry in the Cambridge 
# Structural Database, then it will include bibliographic, chemical, 
# crystal, experimental, refinement or atomic coordinate data resulting 
# from the CCDC's data processing and validation procedures.
#
#######################################################################

data_RURYOT
_symmetry_cell_setting           monoclinic
_symmetry_space_group_name_H-M   'P 21/c'
_symmetry_Int_Tables_number      14
_space_group_name_Hall           '-P 2ybc'
loop_
_symmetry_equiv_pos_site_id
_symmetry_equiv_pos_as_xyz
1 x,y,z
2 -x,1/2+y,1/2-z
3 -x,-y,-z
4 x,1/2-y,1/2+z
_cell_length_a                   15.116(5)
_cell_length_b                   11.177(4)
_cell_length_c                   20.068(7)
_cell_angle_alpha                90
_cell_angle_beta                 110.649(6)
_cell_angle_gamma                90
_cell_volume                     3172.71
loop_
_atom_site_label
_atom_site_type_symbol
_atom_site_fract_x
_atom_site_fract_y
_atom_site_fract_z
Cu1 Cu 0.49297(5) 0.10343(6) 0.09301(3)
O1 O 0.4867(3) 0.0514(3) 0.1848(2)
O2 O 0.4504(4) 0.2430(4) 0.1909(2)
O3 O 0.4709(3) 0.4130(3) 0.4291(2)
O4 O 0.5014(3) 0.2858(3) 0.52044(19)
N1 N 0.6344(4) 0.1274(5) 0.1440(3)
N2 N 1.1304(5) 0.0203(7) 0.3898(5)
N3 N 0.3525(4) 0.0863(5) 0.0431(2)
N4 N -0.1652(6) 0.2390(8) -0.1098(5)
C1 C 0.7787(5) 0.2391(7) 0.1738(4)
H1 H 0.8079 0.3102 0.1691
C2 C 0.6818(5) 0.2252(7) 0.1399(4)
H2 H 0.6480 0.2885 0.1125
C3 C 0.6851(5) 0.0407(6) 0.1866(4)
H3 H 0.6533 -0.0265 0.1937
C4 C 0.7813(6) 0.0457(7) 0.2202(4)
H4 H 0.8131 -0.0192 0.2471
C5 C 0.8316(5) 0.1466(7) 0.2146(4)
C6 C 0.9356(6) 0.1575(8) 0.2491(5)
H5 H 0.9648 0.2201 0.2344
C7 C 0.9898(6) 0.0865(8) 0.2986(5)
H6 H 0.9602 0.0232 0.3123
C8 C 1.0926(6) 0.0965(9) 0.3347(5)
C9 C 1.2245(7) 0.0274(9) 0.4248(6)
H7 H 1.2514 -0.0234 0.4634
C10 C 1.2809(7) 0.1025(11) 0.4076(6)
H8 H 1.3450 0.1053 0.4348
C11 C 1.2443(7) 0.1764(12) 0.3493(7)
H9 H 1.2833 0.2262 0.3346
C12 C 1.1466(6) 0.1737(10) 0.3128(6)
H10 H 1.1189 0.2240 0.2742
C13 C 0.2125(6) -0.0205(8) -0.0257(5)
H11 H 0.1869 -0.0924 -0.0473
C14 C 0.3089(6) -0.0108(7) 0.0107(5)
H12 H 0.3458 -0.0781 0.0123
C15 C 0.2954(6) 0.1774(7) 0.0381(5)
H13 H 0.3231 0.2488 0.0590
C16 C 0.1982(6) 0.1771(8) 0.0048(5)
H14 H 0.1627 0.2446 0.0058
C17 C 0.1553(5) 0.0754(7) -0.0297(4)
C18 C 0.0518(6) 0.0669(8) -0.0680(5)
H15 H 0.0294 -0.0065 -0.0890
C19 C -0.0103(6) 0.1484(8) -0.0757(5)
H16 H 0.0124 0.2220 -0.0550
C20 C -0.1138(6) 0.1405(8) -0.1133(5)
C21 C -0.1532(6) 0.0420(8) -0.1488(5)
H17 H -0.1157 -0.0234 -0.1498
C22 C -0.2490(8) 0.0371(10) -0.1838(6)
H18 H -0.2769 -0.0311 -0.2091
C23 C -0.3034(7) 0.1344(11) -0.1812(6)
H19 H -0.3687 0.1320 -0.2036
C24 C -0.2605(7) 0.2344(10) -0.1452(6)
H20 H -0.2972 0.3011 -0.1448
C25 C 0.4935(4) 0.1276(5) 0.2972(3)
C26 C 0.5209(5) 0.0164(5) 0.3295(3)
H21 H 0.5249 -0.0488 0.3019
C27 C 0.5421(5) 0.0018(6) 0.4019(3)
H22 H 0.5611 -0.0725 0.4230
C28 C 0.5348(4) 0.0987(5) 0.4428(3)
H23 H 0.5502 0.0894 0.4916
C29 C 0.5048(4) 0.2095(5) 0.4118(3)
C30 C 0.4856(4) 0.2232(5) 0.3395(3)
H24 H 0.4671 0.2978 0.3187
C31 C 0.4745(4) 0.1441(5) 0.2190(3)
C32 C 0.4916(4) 0.3124(5) 0.4556(3)
Cu1A Cu 0.50703(5) 0.60343(6) 0.40699(3)
Cu1C Cu 0.49297(5) 0.39657(6) 0.59301(3)
O3A O 0.5291(3) -0.0870(3) 0.0709(2)
O4C O 0.5014(3) 0.2142(3) 0.02044(19)
O5 O 0.2657(6) 0.1629(8) 0.6803(5)
O6 O 0.0909(8) 0.2616(14) 0.6453(6)
O7 O 0.0370(11) 0.8653(17) 0.4540(9)
O8 O 0.1425(15) 0.0078(19) 0.5753(9)
loop_
_geom_bond_atom_site_label_1
_geom_bond_atom_site_label_2
_geom_bond_site_symmetry_1
_geom_bond_site_symmetry_2
Cu1 O1 1_555 1_555
O1 C31 1_555 1_555
O2 C31 1_555 1_555
O3 C32 1_555 1_555
O4 C32 1_555 1_555
N1 Cu1 1_555 1_555
N2 C8 1_555 1_555
N3 Cu1 1_555 1_555
N4 C20 1_555 1_555
C1 H1 1_555 1_555
C2 N1 1_555 1_555
H2 C2 1_555 1_555
C3 N1 1_555 1_555
H3 C3 1_555 1_555
C4 C3 1_555 1_555
H4 C4 1_555 1_555
C5 C1 1_555 1_555
C6 C5 1_555 1_555
H5 C6 1_555 1_555
C7 C6 1_555 1_555
H6 C7 1_555 1_555
C8 C7 1_555 1_555
C9 N2 1_555 1_555
H7 C9 1_555 1_555
C10 C9 1_555 1_555
H8 C10 1_555 1_555
C11 C10 1_555 1_555
H9 C11 1_555 1_555
C12 C8 1_555 1_555
H10 C12 1_555 1_555
C13 H11 1_555 1_555
C14 N3 1_555 1_555
H12 C14 1_555 1_555
C15 N3 1_555 1_555
H13 C15 1_555 1_555
C16 C15 1_555 1_555
H14 C16 1_555 1_555
C17 C13 1_555 1_555
C18 C17 1_555 1_555
H15 C18 1_555 1_555
C19 C18 1_555 1_555
H16 C19 1_555 1_555
C20 C19 1_555 1_555
C21 C20 1_555 1_555
H17 C21 1_555 1_555
C22 C21 1_555 1_555
H18 C22 1_555 1_555
C23 C22 1_555 1_555
H19 C23 1_555 1_555
C24 N4 1_555 1_555
H20 C24 1_555 1_555
C25 C26 1_555 1_555
C26 H21 1_555 1_555
C27 C26 1_555 1_555
H22 C27 1_555 1_555
C28 C27 1_555 1_555
H23 C28 1_555 1_555
C29 C28 1_555 1_555
C30 C25 1_555 1_555
H24 C30 1_555 1_555
C31 C25 1_555 1_555
C32 C29 1_555 1_555
Cu1A O3 1_555 1_555
Cu1C O4 1_555 1_555
O3A Cu1 1_555 1_555
O4C Cu1 1_555 1_555
C1 C2 1_555 1_555
C4 C5 1_555 1_555
C11 C12 1_555 1_555
C13 C14 1_555 1_555
C16 C17 1_555 1_555
C23 C24 1_555 1_555
C29 C30 1_555 1_555

#END
