
#######################################################################
#
#                 Cambridge Crystallographic Data Centre
#                                CCDC 
#
#######################################################################
#
# If this CIF has been generated from an entry in the Cambridge 
# Structural Database, then it will include bibliographic, chemical, 
# crystal, experimental, refinement or atomic coordinate data resulting 
# from the CCDC's data processing and validation procedures.
#
#######################################################################

data_RURZIP
_symmetry_cell_setting           monoclinic
_symmetry_space_group_name_H-M   'C 2/c'
_symmetry_Int_Tables_number      15
_space_group_name_Hall           '-C 2yn'
loop_
_symmetry_equiv_pos_site_id
_symmetry_equiv_pos_as_xyz
1 x,y,z
2 -x,y,1/2-z
3 1/2+x,1/2+y,z
4 1/2-x,1/2+y,1/2-z
5 -x,-y,-z
6 x,-y,1/2+z
7 1/2-x,1/2-y,-z
8 1/2+x,1/2-y,1/2+z
_cell_length_a                   21.0073(16)
_cell_length_b                   12.6894(10)
_cell_length_c                   7.7367(6)
_cell_angle_alpha                90
_cell_angle_beta                 99.501(4)
_cell_angle_gamma                90
_cell_volume                     2034.08
loop_
_atom_site_label
_atom_site_type_symbol
_atom_site_fract_x
_atom_site_fract_y
_atom_site_fract_z
Zn1 Zn 0.42944(2) 0.36903(2) 0.10380(5)
N1 N 0.39307(11) 0.47124(19) -0.0909(3)
N2 N 0.43329(11) 0.53761(16) -0.1437(3)
N3 N 0.49301(11) 0.53682(18) -0.0658(3)
C1 C 0.32922(13) 0.4797(2) -0.1858(4)
C2 C 0.29501(16) 0.3877(3) -0.2276(6)
H1 H 0.3143 0.3216 -0.1934
C3 C 0.23232(18) 0.3919(3) -0.3197(6)
H2 H 0.2092 0.3285 -0.3505
C4 C 0.20346(16) 0.4881(3) -0.3667(5)
H3 H 0.1605 0.4909 -0.4283
C5 C 0.23754(17) 0.5798(3) -0.3235(5)
H4 H 0.2180 0.6459 -0.3566
C6 C 0.30080(14) 0.5761(2) -0.2312(6)
H5 H 0.3240 0.6395 -0.2000
C7 C 0.41603(15) 0.2192(2) 0.1436(4)
H6 H 0.3699 0.2030 0.1157
H7 H 0.4319 0.2022 0.2667
H8 H 0.4396 0.1774 0.0684
N1D N 0.60693(11) 0.52876(19) 0.0909(3)
N2D N 0.56671(11) 0.46239(16) 0.1437(3)
N3D N 0.50699(11) 0.46318(18) 0.0658(3)
C1D C 0.67078(13) 0.5203(2) 0.1858(4)
C2D C 0.70499(16) 0.6123(3) 0.2276(6)
H1D H 0.6857 0.6784 0.1934
C3D C 0.76768(18) 0.6081(3) 0.3197(6)
H2D H 0.7908 0.6715 0.3505
C4D C 0.79654(16) 0.5119(3) 0.3667(5)
H3D H 0.8395 0.5091 0.4283
C5D C 0.76246(17) 0.4202(3) 0.3235(5)
H4D H 0.7820 0.3541 0.3566
C6D C 0.69920(14) 0.4239(2) 0.2312(6)
H5D H 0.6760 0.3605 0.2000
Zn1A Zn 0.57056(2) 0.36903(2) 0.39620(5)
C7A C 0.58397(15) 0.2192(2) 0.3564(4)
H6A H 0.6301 0.2030 0.3843
H7A H 0.5681 0.2022 0.2333
H8A H 0.5604 0.1774 0.4316
Zn1D Zn 0.57056(2) 0.63097(2) -0.10380(5)
Zn1E Zn 0.42944(2) 0.63097(2) -0.39620(5)
N1A N 0.60693(11) 0.47124(19) 0.5909(3)
N2E N 0.43329(11) 0.46239(16) 0.3563(3)
N3E N 0.49301(11) 0.46318(18) 0.4342(3)
C8 C 0.4685(3) 0.9243(3) 0.2129(7)
D1 D 0.4467 0.9895 0.1877
C9 C 0.4350(3) 0.8298(4) 0.1726(5)
D2 D 0.3908 0.8299 0.1198
C10 C 0.4681(3) 0.7359(3) 0.2119(6)
D3 D 0.4464 0.6708 0.1857
C8A C 0.5315(3) 0.9243(3) 0.2871(7)
D1A D 0.5533 0.9895 0.3123
C9A C 0.5650(3) 0.8298(4) 0.3274(5)
D2A D 0.6092 0.8299 0.3802
C10A C 0.5319(3) 0.7359(3) 0.2881(6)
D3A D 0.5536 0.6708 0.3143
loop_
_geom_bond_atom_site_label_1
_geom_bond_atom_site_label_2
_geom_bond_site_symmetry_1
_geom_bond_site_symmetry_2
Zn1 N1 1_555 1_555
N1 N2 1_555 1_555
N2 N3 1_555 1_555
N3 N3D 1_555 1_555
C1 N1 1_555 1_555
C2 C1 1_555 1_555
H1 C2 1_555 1_555
C3 C2 1_555 1_555
H2 C3 1_555 1_555
C4 C3 1_555 1_555
H3 C4 1_555 1_555
C5 C4 1_555 1_555
H4 C5 1_555 1_555
C6 C1 1_555 1_555
H5 C6 1_555 1_555
C7 Zn1 1_555 1_555
H6 C7 1_555 1_555
H7 C7 1_555 1_555
H8 C7 1_555 1_555
C8 D1 1_555 1_555
C9 C8 1_555 1_555
D2 C9 1_555 1_555
C10 C9 1_555 1_555
D3 C10 1_555 1_555
N1D N2D 1_555 1_555
N2D N3D 1_555 1_555
N3D Zn1 1_555 1_555
C1D N1D 1_555 1_555
C2D C1D 1_555 1_555
H1D C2D 1_555 1_555
C3D C2D 1_555 1_555
H2D C3D 1_555 1_555
C4D C3D 1_555 1_555
H3D C4D 1_555 1_555
C5D C4D 1_555 1_555
H4D C5D 1_555 1_555
C6D C1D 1_555 1_555
H5D C6D 1_555 1_555
Zn1A N2D 1_555 1_555
C7A Zn1A 1_555 1_555
H6A C7A 1_555 1_555
H7A C7A 1_555 1_555
H8A C7A 1_555 1_555
Zn1D N3 1_555 1_555
Zn1E N2 1_555 1_555
N1A Zn1A 1_555 1_555
N2E Zn1 1_555 1_555
N3E Zn1A 1_555 1_555
C8A C8 1_555 1_555
D1A C8A 1_555 1_555
C9A C8A 1_555 1_555
D2A C9A 1_555 1_555
C10A C10 1_555 1_555
D3A C10A 1_555 1_555
C5 C6 1_555 1_555
N1D Zn1D 1_555 1_555
C5D C6D 1_555 1_555
N2E N3E 1_555 1_555
C9A C10A 1_555 1_555

#END
