
#######################################################################
#
#                 Cambridge Crystallographic Data Centre
#                                CCDC 
#
#######################################################################
#
# If this CIF has been generated from an entry in the Cambridge 
# Structural Database, then it will include bibliographic, chemical, 
# crystal, experimental, refinement or atomic coordinate data resulting 
# from the CCDC's data processing and validation procedures.
#
#######################################################################

data_RUSFIW
_symmetry_cell_setting           monoclinic
_symmetry_space_group_name_H-M   'P 21/c'
_symmetry_Int_Tables_number      14
_space_group_name_Hall           '-P 2ybc'
loop_
_symmetry_equiv_pos_site_id
_symmetry_equiv_pos_as_xyz
1 x,y,z
2 -x,1/2+y,1/2-z
3 -x,-y,-z
4 x,1/2-y,1/2+z
_cell_length_a                   7.601(6)
_cell_length_b                   11.715(9)
_cell_length_c                   13.791(10)
_cell_angle_alpha                90
_cell_angle_beta                 99.017(9)
_cell_angle_gamma                90
_cell_volume                     1212.85
loop_
_atom_site_label
_atom_site_type_symbol
_atom_site_fract_x
_atom_site_fract_y
_atom_site_fract_z
Co1 Co 0.0000 1.0000 0.0000
O1 O 0.1750(3) 1.11742(17) 0.07673(16)
N1 N 0.3551(3) 0.7072(2) 0.0552(2)
N2 N -0.0995(4) 0.9605(2) 0.29716(18)
N3 N 0.1856(4) 0.8626(2) 0.04773(19)
C1 C -0.0494(4) 0.9811(2) 0.4001(2)
N4 N -0.1089(4) 0.9758(2) 0.13562(18)
C2 C -0.0753(4) 0.8960(3) 0.4668(2)
H1 H -0.1252 0.8265 0.4446
C3 C 0.4328(5) 0.5795(3) -0.0706(3)
H2 H 0.3879 0.6324 -0.1184
C4 C 0.0263(4) 1.0845(3) 0.4333(2)
H3 H 0.0442 1.1410 0.3885
C5 C -0.2136(5) 0.8854(3) 0.1559(2)
H4 H -0.2780 0.8386 0.1087
C6 C 0.4314(4) 0.6030(3) 0.0271(2)
C7 C -0.2098(5) 0.8742(3) 0.2544(2)
H5 H -0.2689 0.8198 0.2864
C8 C 0.2525(4) 0.7840(2) -0.0035(2)
H6 H 0.2326 0.7808 -0.0717
C9 C -0.0435(4) 1.0190(3) 0.2222(2)
H7 H 0.0318 1.0820 0.2310
C10 C 0.3415(5) 1.1113(3) 0.0969(2)
H8 H 0.3948 1.0518 0.0675
O2 O 0.4414(4) 1.1735(3) 0.1501(2)
C11 C 0.4980(5) 0.5242(3) 0.0977(3)
H9 H 0.4969 0.5402 0.1636
C12 C 0.2476(5) 0.8367(3) 0.1452(3)
H10 H 0.2220 0.8785 0.1986
C13 C 0.3512(5) 0.7414(3) 0.1518(3)
H11 H 0.4076 0.7064 0.2088
N1B N 0.6449(3) 0.2928(2) -0.0552(2)
N3B N 0.8144(4) 0.1374(2) -0.04773(19)
C3B C 0.5672(5) 0.4205(3) 0.0706(3)
H2B H 0.6121 0.3676 0.1184
C6B C 0.5686(4) 0.3970(3) -0.0271(2)
C8B C 0.7475(4) 0.2160(2) 0.0035(2)
H6B H 0.7674 0.2192 0.0717
C11B C 0.5020(5) 0.4758(3) -0.0977(3)
H9B H 0.5031 0.4598 -0.1636
C12B C 0.7524(5) 0.1633(3) -0.1452(3)
H10B H 0.7780 0.1215 -0.1986
C13B C 0.6488(5) 0.2586(3) -0.1518(3)
H11B H 0.5924 0.2936 -0.2088
N2B N 0.0995(4) 1.0395(2) 0.70284(18)
C1B C 0.0494(4) 1.0189(2) 0.5999(2)
N4B N 0.1089(4) 1.0242(2) 0.86438(18)
C2B C 0.0753(4) 1.1040(3) 0.5332(2)
H1B H 0.1252 1.1735 0.5554
C4B C -0.0263(4) 0.9155(3) 0.5667(2)
H3B H -0.0442 0.8590 0.6115
C5B C 0.2136(5) 1.1146(3) 0.8441(2)
H4B H 0.2780 1.1614 0.8913
C7B C 0.2098(5) 1.1258(3) 0.7456(2)
H5B H 0.2689 1.1802 0.7136
C9B C 0.0435(4) 0.9810(3) 0.7778(2)
H7B H -0.0318 0.9180 0.7690
O1B O -0.1750(3) 0.88258(17) -0.07673(16)
C10B C -0.3415(5) 0.8887(3) -0.0969(2)
H8B H -0.3948 0.9482 -0.0675
O2B O -0.4414(4) 0.8265(3) -0.1501(2)
Co1_2 Co 0.0000 1.0000 1.0000
Co1_3 Co 1.0000 0.0000 0.0000
N3B_2 N -0.1856(4) 1.1374(2) -0.04773(19)
N4B_2 N 0.1089(4) 1.0242(2) -0.13562(18)
loop_
_geom_bond_atom_site_label_1
_geom_bond_atom_site_label_2
_geom_bond_site_symmetry_1
_geom_bond_site_symmetry_2
Co1 O1 1_555 1_555
O1 C10 1_555 1_555
N1 C6 1_555 1_555
N2 C1 1_555 1_555
N3 Co1 1_555 1_555
C1 C2 1_555 1_555
N4 Co1 1_555 1_555
C2 H1 1_555 1_555
C3 H2 1_555 1_555
C4 C1 1_555 1_555
H3 C4 1_555 1_555
C5 N4 1_555 1_555
H4 C5 1_555 1_555
C6 C3 1_555 1_555
C7 N2 1_555 1_555
H5 C7 1_555 1_555
C8 N1 1_555 1_555
H6 C8 1_555 1_555
C9 N2 1_555 1_555
H7 C9 1_555 1_555
C10 H8 1_555 1_555
O2 C10 1_555 1_555
C11 C6 1_555 1_555
H9 C11 1_555 1_555
C12 N3 1_555 1_555
H10 C12 1_555 1_555
C13 N1 1_555 1_555
H11 C13 1_555 1_555
N1B C6B 1_555 1_555
N3B C8B 1_555 1_555
C3B C11 1_555 1_555
H2B C3B 1_555 1_555
C6B C3B 1_555 1_555
C8B N1B 1_555 1_555
H6B C8B 1_555 1_555
C11B C3 1_555 1_555
H9B C11B 1_555 1_555
C12B N3B 1_555 1_555
H10B C12B 1_555 1_555
C13B N1B 1_555 1_555
H11B C13B 1_555 1_555
N2B C1B 1_555 1_555
C1B C2B 1_555 1_555
N4B C5B 1_555 1_555
C2B C4 1_555 1_555
H1B C2B 1_555 1_555
C4B C2 1_555 1_555
H3B C4B 1_555 1_555
C5B H4B 1_555 1_555
C7B N2B 1_555 1_555
H5B C7B 1_555 1_555
C9B N2B 1_555 1_555
H7B C9B 1_555 1_555
O1B Co1 1_555 1_555
C10B O1B 1_555 1_555
H8B C10B 1_555 1_555
O2B C10B 1_555 1_555
Co1_2 N4B 1_555 1_555
Co1_3 N3B 1_555 1_555
N3B_2 Co1 1_555 1_555
N4B_2 Co1 1_555 1_555
N3 C8 1_555 1_555
N4 C9 1_555 1_555
C5 C7 1_555 1_555
C12 C13 1_555 1_555
C6B C11B 1_555 1_555
C12B C13B 1_555 1_555
C1B C4B 1_555 1_555
N4B C9B 1_555 1_555
C5B C7B 1_555 1_555

#END
