
#######################################################################
#
#                 Cambridge Crystallographic Data Centre
#                                CCDC 
#
#######################################################################
#
# If this CIF has been generated from an entry in the Cambridge 
# Structural Database, then it will include bibliographic, chemical, 
# crystal, experimental, refinement or atomic coordinate data resulting 
# from the CCDC's data processing and validation procedures.
#
#######################################################################

data_RUSLEX
_symmetry_cell_setting           triclinic
_symmetry_space_group_name_H-M   'P -1'
_symmetry_Int_Tables_number      2
_space_group_name_Hall           '-P 1'
loop_
_symmetry_equiv_pos_site_id
_symmetry_equiv_pos_as_xyz
1 x,y,z
2 -x,-y,-z
_cell_length_a                   9.5594(5)
_cell_length_b                   13.0091(6)
_cell_length_c                   13.8484(6)
_cell_angle_alpha                69.202(4)
_cell_angle_beta                 86.318(4)
_cell_angle_gamma                69.910(5)
_cell_volume                     1508.72
loop_
_atom_site_label
_atom_site_type_symbol
_atom_site_fract_x
_atom_site_fract_y
_atom_site_fract_z
Mn1 Mn 1.0000 1.0000 0.5000
Mn2 Mn 0.5000 0.5000 0.0000
Cl1 Cl 0.34313(5) 0.44105(5) 0.14744(4)
O1 O 0.75819(12) 1.08965(11) 0.46913(9)
O2 O 0.64269(15) 1.08883(14) 0.33545(10)
N1 N 1.00849(15) 0.85804(12) 0.42979(11)
N2 N 0.69038(16) 0.45962(13) 0.12058(11)
N3 N 1.05314(16) 1.09985(13) 0.33750(11)
N4 N 1.40150(16) 0.69381(14) -0.00685(12)
C1 C 1.1512(2) 0.71106(18) 0.36191(16)
H1 H 1.2449 0.6678 0.3479
C2 C 1.1387(2) 0.79193(18) 0.40728(15)
H2 H 1.2256 0.8012 0.4232
C3 C 0.8877(2) 0.84106(17) 0.40593(15)
H3 H 0.7952 0.8851 0.4207
C4 C 0.8926(2) 0.76112(18) 0.36018(16)
H4 H 0.8043 0.7531 0.3450
C5 C 1.0260(2) 0.69363(16) 0.33697(14)
C6 C 1.0345(2) 0.60283(17) 0.29095(15)
H5 H 1.1264 0.5864 0.2560
H6 H 0.9517 0.6335 0.2398
C7 C 1.0295(2) 0.49008(16) 0.37315(14)
H7 H 0.9340 0.5064 0.4039
H8 H 1.1066 0.4643 0.4273
C8 C 1.0510(2) 0.38992(16) 0.33360(14)
H9 H 1.1438 0.3762 0.2993
H10 H 1.0597 0.3191 0.3923
C9 C 0.92566(19) 0.41373(15) 0.25951(13)
C10 C 0.9306(2) 0.46458(17) 0.15395(14)
H11 H 1.0132 0.4847 0.1270
C11 C 0.8136(2) 0.48548(17) 0.08854(14)
H12 H 0.8204 0.5197 0.0178
C12 C 0.6865(2) 0.40978(17) 0.22292(15)
H13 H 0.6029 0.3901 0.2480
C13 C 0.7992(2) 0.38592(17) 0.29348(14)
H14 H 0.7904 0.3511 0.3639
C14 C 1.0025(2) 1.17152(17) 0.15429(14)
H15 H 0.9354 1.1924 0.0991
C15 C 0.9625(2) 1.13025(16) 0.25450(14)
H16 H 0.8686 1.1232 0.2649
C16 C 1.1850(2) 1.11445(17) 0.31863(15)
H17 H 1.2483 1.0968 0.3749
C17 C 1.2331(2) 1.15408(17) 0.22097(15)
H18 H 1.3266 1.1620 0.2126
C18 C 1.1416(2) 1.18203(16) 0.13546(15)
C19 C 1.1965(3) 1.21582(18) 0.02808(16)
H19 H 1.2622 1.2595 0.0242
H20 H 1.1122 1.2661 -0.0217
C20 C 1.2812(2) 1.10655(19) 0.00013(17)
H21 H 1.3367 1.1287 -0.0602
H22 H 1.3523 1.0496 0.0570
C21 C 1.1775(3) 1.0502(2) -0.02233(18)
H23 H 1.1016 1.0501 0.0277
H24 H 1.1275 1.0973 -0.0905
C22 C 1.2571(2) 0.92665(19) -0.01826(16)
C23 C 1.3214(2) 0.89998(18) -0.10331(15)
H25 H 1.3170 0.9596 -0.1662
C24 C 1.3917(2) 0.78443(18) -0.09375(15)
H26 H 1.4348 0.7688 -0.1514
C25 C 1.3406(2) 0.71987(19) 0.07506(15)
H27 H 1.3463 0.6586 0.1370
C26 C 1.2703(2) 0.8323(2) 0.07211(17)
H28 H 1.2310 0.8454 0.1316
C27 C 0.64387(19) 1.11445(16) 0.41277(14)
C28 C 0.4906(2) 1.1779(2) 0.44208(17)
H29 H 0.4395 1.2429 0.3804
H30 H 0.4351 1.1245 0.4604
C29 C 0.47920(19) 1.22539(19) 0.52763(16)
C30 C 0.5024(2) 1.1515(2) 0.62991(18)
H31 H 0.5273 1.0713 0.6462
C31 C 0.4885(2) 1.1967(3) 0.70858(19)
H32 H 0.5078 1.1462 0.7772
C32 C 0.4469(3) 1.3141(3) 0.6860(3)
H33 H 0.4356 1.3440 0.7390
C33 C 0.4220(3) 1.3873(3) 0.5859(3)
H34 H 0.3929 1.4677 0.5704
C34 C 0.4393(2) 1.3440(2) 0.50720(19)
H35 H 0.4239 1.3955 0.4389
Mn1_2 Mn 1.0000 0.0000 -0.5000
Mn2_2 Mn 1.5000 0.5000 0.0000
Mn2_3 Mn 1.5000 1.5000 1.0000
Cl1A Cl 0.65687(5) 0.55895(5) -0.14744(4)
O1A O 1.24181(12) 0.91035(11) 0.53087(9)
O2A O 1.35731(15) 0.91117(14) 0.66455(10)
N1A N 0.99151(15) 1.14196(12) 0.57021(11)
N2A N 1.30962(16) 1.54038(13) 0.87942(11)
N2A_2 N 0.30962(16) 0.54038(13) -0.12058(11)
N3A N 0.94686(16) 0.90015(13) 0.66250(11)
N3A_2 N 0.94686(16) -0.09985(13) -0.33750(11)
N4A N 0.59850(16) 0.30619(14) 0.00685(12)
N4_2 N 0.40150(16) 0.69381(14) -0.00685(12)
C1A C 0.8488(2) 1.28894(18) 0.63809(16)
H1A H 0.7551 1.3322 0.6521
C2A C 0.8613(2) 1.20807(18) 0.59272(15)
H2A H 0.7744 1.1988 0.5768
C3A C 1.1123(2) 1.15894(17) 0.59407(15)
H3A H 1.2048 1.1149 0.5793
C4A C 1.1074(2) 1.23888(18) 0.63982(16)
H4A H 1.1957 1.2469 0.6550
C5A C 0.9740(2) 1.30637(16) 0.66303(14)
C6A C 0.9655(2) 1.39717(17) 0.70905(15)
H5A H 0.8736 1.4136 0.7440
H6A H 1.0483 1.3665 0.7602
C7A C 0.9705(2) 1.50992(16) 0.62685(14)
H7A H 1.0660 1.4936 0.5961
H8A H 0.8934 1.5357 0.5727
C8A C 0.9490(2) 1.61008(16) 0.66640(14)
H9A H 0.8562 1.6238 0.7007
H10A H 0.9403 1.6809 0.6077
C9A C 1.07434(19) 1.58627(15) 0.74049(13)
C10A C 1.0694(2) 1.53542(17) 0.84605(14)
H11A H 0.9868 1.5153 0.8730
C11A C 1.1864(2) 1.51452(17) 0.91146(14)
H12A H 1.1796 1.4803 0.9822
C12A C 1.3135(2) 1.59022(17) 0.77708(15)
H13A H 1.3971 1.6099 0.7520
C13A C 1.2008(2) 1.61408(17) 0.70652(14)
H14A H 1.2096 1.6489 0.6361
C14A C 0.9975(2) -0.17152(17) -0.15429(14)
H15A H 1.0646 -0.1924 -0.0991
C15A C 1.0375(2) -0.13025(16) -0.25450(14)
H16A H 1.1314 -0.1232 -0.2649
C16A C 0.8150(2) -0.11445(17) -0.31863(15)
H17A H 0.7517 -0.0968 -0.3749
C17A C 0.7669(2) -0.15408(17) -0.22097(15)
H18A H 0.6734 -0.1620 -0.2126
C18A C 0.8584(2) -0.18203(16) -0.13546(15)
C19A C 0.8035(3) -0.21582(18) -0.02808(16)
H19A H 0.7378 -0.2595 -0.0242
H20A H 0.8878 -0.2661 0.0217
C20A C 0.7188(2) -0.10655(19) -0.00013(17)
H21A H 0.6633 -0.1287 0.0602
H22A H 0.6477 -0.0496 -0.0570
C21A C 0.8225(3) -0.0502(2) 0.02233(18)
H23A H 0.8984 -0.0501 -0.0277
H24A H 0.8725 -0.0973 0.0905
C22A C 0.7429(2) 0.07335(19) 0.01826(16)
C23A C 0.6786(2) 0.10002(18) 0.10331(15)
H25A H 0.6830 0.0404 0.1662
C24A C 0.6083(2) 0.21557(18) 0.09375(15)
H26A H 0.5652 0.2312 0.1514
C25A C 0.6594(2) 0.28013(19) -0.07506(15)
H27A H 0.6537 0.3414 -0.1370
C26A C 0.7297(2) 0.1677(2) -0.07211(17)
H28A H 0.7690 0.1546 -0.1316
C27A C 1.35613(19) 0.88555(16) 0.58723(14)
C28A C 1.5094(2) 0.8221(2) 0.55792(17)
H29A H 1.5605 0.7571 0.6196
H30A H 1.5649 0.8755 0.5396
C29A C 1.52080(19) 0.77461(19) 0.47237(16)
C30A C 1.4976(2) 0.8485(2) 0.37009(18)
H31A H 1.4727 0.9287 0.3538
C31A C 1.5115(2) 0.8033(3) 0.29142(19)
H32A H 1.4922 0.8538 0.2228
C32A C 1.5531(3) 0.6859(3) 0.3140(3)
H33A H 1.5644 0.6560 0.2610
C33A C 1.5780(3) 0.6127(3) 0.4141(3)
H34A H 1.6071 0.5323 0.4296
C34A C 1.5607(2) 0.6560(2) 0.49280(19)
H35A H 1.5761 0.6045 0.5611
loop_
_geom_bond_atom_site_label_1
_geom_bond_atom_site_label_2
_geom_bond_site_symmetry_1
_geom_bond_site_symmetry_2
Mn1 O1 1_555 1_555
Mn2 Cl1 1_555 1_555
O1 C27 1_555 1_555
O2 C27 1_555 1_555
N1 Mn1 1_555 1_555
N2 Mn2 1_555 1_555
N3 Mn1 1_555 1_555
N4 C24 1_555 1_555
C1 H1 1_555 1_555
C2 N1 1_555 1_555
H2 C2 1_555 1_555
C3 N1 1_555 1_555
H3 C3 1_555 1_555
C4 C3 1_555 1_555
H4 C4 1_555 1_555
C5 C1 1_555 1_555
C6 C5 1_555 1_555
H5 C6 1_555 1_555
H6 C6 1_555 1_555
C7 C6 1_555 1_555
H7 C7 1_555 1_555
H8 C7 1_555 1_555
C8 C7 1_555 1_555
H9 C8 1_555 1_555
H10 C8 1_555 1_555
C9 C8 1_555 1_555
C10 C9 1_555 1_555
H11 C10 1_555 1_555
C11 N2 1_555 1_555
H12 C11 1_555 1_555
C12 N2 1_555 1_555
H13 C12 1_555 1_555
C13 C9 1_555 1_555
H14 C13 1_555 1_555
C14 H15 1_555 1_555
C15 N3 1_555 1_555
H16 C15 1_555 1_555
C16 N3 1_555 1_555
H17 C16 1_555 1_555
C17 C16 1_555 1_555
H18 C17 1_555 1_555
C18 C14 1_555 1_555
C19 C18 1_555 1_555
H19 C19 1_555 1_555
H20 C19 1_555 1_555
C20 C19 1_555 1_555
H21 C20 1_555 1_555
H22 C20 1_555 1_555
C21 C20 1_555 1_555
H23 C21 1_555 1_555
H24 C21 1_555 1_555
C22 C21 1_555 1_555
C23 C22 1_555 1_555
H25 C23 1_555 1_555
C24 C23 1_555 1_555
H26 C24 1_555 1_555
C25 N4 1_555 1_555
H27 C25 1_555 1_555
C26 C22 1_555 1_555
H28 C26 1_555 1_555
C27 C28 1_555 1_555
C28 H29 1_555 1_555
H30 C28 1_555 1_555
C29 C28 1_555 1_555
C30 C29 1_555 1_555
H31 C30 1_555 1_555
C31 C30 1_555 1_555
H32 C31 1_555 1_555
C32 C31 1_555 1_555
H33 C32 1_555 1_555
C33 C32 1_555 1_555
H34 C33 1_555 1_555
C34 C29 1_555 1_555
H35 C34 1_555 1_555
Mn1_2 N3A_2 1_555 1_555
Mn2_2 N4 1_555 1_555
Mn2_3 N2A 1_555 1_555
Cl1A Mn2 1_555 1_555
O1A Mn1 1_555 1_555
O2A C27A 1_555 1_555
N1A Mn1 1_555 1_555
N2A C11A 1_555 1_555
N2A_2 Mn2 1_555 1_555
N3A Mn1 1_555 1_555
N3A_2 C15A 1_555 1_555
N4A Mn2 1_555 1_555
N4_2 Mn2 1_555 1_555
C1A H1A 1_555 1_555
C2A N1A 1_555 1_555
H2A C2A 1_555 1_555
C3A N1A 1_555 1_555
H3A C3A 1_555 1_555
C4A C3A 1_555 1_555
H4A C4A 1_555 1_555
C5A C1A 1_555 1_555
C6A C5A 1_555 1_555
H5A C6A 1_555 1_555
H6A C6A 1_555 1_555
C7A C6A 1_555 1_555
H7A C7A 1_555 1_555
H8A C7A 1_555 1_555
C8A C7A 1_555 1_555
H9A C8A 1_555 1_555
H10A C8A 1_555 1_555
C9A C8A 1_555 1_555
C10A C9A 1_555 1_555
H11A C10A 1_555 1_555
C11A C10A 1_555 1_555
H12A C11A 1_555 1_555
C12A N2A 1_555 1_555
H13A C12A 1_555 1_555
C13A C9A 1_555 1_555
H14A C13A 1_555 1_555
C14A H15A 1_555 1_555
C15A C14A 1_555 1_555
H16A C15A 1_555 1_555
C16A N3A_2 1_555 1_555
H17A C16A 1_555 1_555
C17A C16A 1_555 1_555
H18A C17A 1_555 1_555
C18A C14A 1_555 1_555
C19A C18A 1_555 1_555
H19A C19A 1_555 1_555
H20A C19A 1_555 1_555
C20A C19A 1_555 1_555
H21A C20A 1_555 1_555
H22A C20A 1_555 1_555
C21A C20A 1_555 1_555
H23A C21A 1_555 1_555
H24A C21A 1_555 1_555
C22A C21A 1_555 1_555
C23A C22A 1_555 1_555
H25A C23A 1_555 1_555
C24A N4A 1_555 1_555
H26A C24A 1_555 1_555
C25A N4A 1_555 1_555
H27A C25A 1_555 1_555
C26A C22A 1_555 1_555
H28A C26A 1_555 1_555
C27A O1A 1_555 1_555
C28A C27A 1_555 1_555
H29A C28A 1_555 1_555
H30A C28A 1_555 1_555
C29A C28A 1_555 1_555
C30A C29A 1_555 1_555
H31A C30A 1_555 1_555
C31A C30A 1_555 1_555
H32A C31A 1_555 1_555
C32A C31A 1_555 1_555
H33A C32A 1_555 1_555
C33A C32A 1_555 1_555
H34A C33A 1_555 1_555
C34A C29A 1_555 1_555
H35A C34A 1_555 1_555
C1 C2 1_555 1_555
C4 C5 1_555 1_555
C10 C11 1_555 1_555
C12 C13 1_555 1_555
C14 C15 1_555 1_555
C17 C18 1_555 1_555
C25 C26 1_555 1_555
C33 C34 1_555 1_555
C1A C2A 1_555 1_555
C4A C5A 1_555 1_555
C12A C13A 1_555 1_555
C17A C18A 1_555 1_555
C23A C24A 1_555 1_555
C25A C26A 1_555 1_555
C33A C34A 1_555 1_555

#END
