
#######################################################################
#
#                 Cambridge Crystallographic Data Centre
#                                CCDC 
#
#######################################################################
#
# If this CIF has been generated from an entry in the Cambridge 
# Structural Database, then it will include bibliographic, chemical, 
# crystal, experimental, refinement or atomic coordinate data resulting 
# from the CCDC's data processing and validation procedures.
#
#######################################################################

data_RUSMUO
_symmetry_cell_setting           orthorhombic
_symmetry_space_group_name_H-M   'P c a 21'
_symmetry_Int_Tables_number      29
_space_group_name_Hall           'P 2c -2ac'
loop_
_symmetry_equiv_pos_site_id
_symmetry_equiv_pos_as_xyz
1 x,y,z
2 -x,-y,1/2+z
3 1/2+x,-y,z
4 1/2-x,y,1/2+z
_cell_length_a                   10.675(2)
_cell_length_b                   13.858(3)
_cell_length_c                   13.610(3)
_cell_angle_alpha                90
_cell_angle_beta                 90
_cell_angle_gamma                90
_cell_volume                     2013.38
loop_
_atom_site_label
_atom_site_type_symbol
_atom_site_fract_x
_atom_site_fract_y
_atom_site_fract_z
Zn1 Zn 0.80554(7) 0.24867(6) 0.17695(11)
O1 O 0.6427(6) 0.2741(4) 0.0031(4)
O2 O 0.6618(4) 0.1729(4) 0.1314(3)
O3 O 0.4893(5) 0.2747(4) -0.1974(4)
O4 O 0.6502(5) 0.1737(4) -0.2037(3)
N1 N 1.0272(6) 0.1987(5) -0.0680(4)
N2 N 0.9385(6) 0.2337(5) 0.0733(4)
N3 N 0.7033(6) 0.5006(4) 0.3164(5)
N4 N 0.7491(7) 0.3801(4) 0.2205(4)
C1 C 1.1212(13) 0.2987(10) -0.2907(9)
H1 H 1.0419 0.3048 -0.3185
H2 H 1.1873 0.3358 -0.3143
C2 C 1.1396(16) 0.2381(9) -0.2185(9)
H3 H 1.2202 0.2342 -0.1927
C3 C 1.0418(10) 0.1747(7) -0.1742(6)
H4 H 0.9627 0.1841 -0.2079
H5 H 1.0659 0.1076 -0.1813
C4 C 1.1200(8) 0.2010(7) 0.0013(6)
H6 H 1.2048 0.1897 -0.0093
C5 C 1.0653(8) 0.2229(8) 0.0875(6)
H7 H 1.1067 0.2296 0.1473
C6 C 0.9205(9) 0.2199(6) -0.0230(6)
H8 H 0.8433 0.2246 -0.0542
C7 C 0.5349(13) 0.4544(10) 0.4792(11)
H9 H 0.5376 0.4124 0.4260
H10 H 0.4812 0.4419 0.5315
C8 C 0.6023(12) 0.5264(10) 0.4805(9)
H11 H 0.5944 0.5649 0.5361
C9 C 0.6961(9) 0.5618(7) 0.4052(7)
H12 H 0.6737 0.6269 0.3858
H13 H 0.7783 0.5644 0.4355
C10 C 0.6367(8) 0.5131(6) 0.2322(6)
H14 H 0.5824 0.5636 0.2177
C11 C 0.6646(7) 0.4394(5) 0.1753(7)
H15 H 0.6315 0.4292 0.1130
C12 C 0.7688(8) 0.4184(6) 0.3080(6)
H16 H 0.8203 0.3924 0.3563
C13 C 0.4530(7) 0.0680(6) 0.0655(6)
H17 H 0.4738 0.0641 0.1317
C14 C 0.3601(8) 0.0089(6) 0.0297(6)
H18 H 0.3168 -0.0323 0.0715
C15 C 0.3319(8) 0.0118(6) -0.0695(7)
H19 H 0.2695 -0.0281 -0.0945
C16 C 0.3937(8) 0.0716(6) -0.1302(6)
H20 H 0.3759 0.0702 -0.1971
C17 C 0.4853(6) 0.1368(5) -0.0948(5)
C18 C 0.5166(6) 0.1329(5) 0.0063(5)
C19 C 0.6122(7) 0.1995(6) 0.0472(5)
C20 C 0.5474(7) 0.2027(6) -0.1684(5)
Zn1C Zn 0.69446(7) 0.24867(6) -0.32305(11)
O4C O 0.8498(5) 0.1737(4) 0.2963(3)
loop_
_geom_bond_atom_site_label_1
_geom_bond_atom_site_label_2
_geom_bond_site_symmetry_1
_geom_bond_site_symmetry_2
Zn1 O2 1_555 1_555
O1 C19 1_555 1_555
O2 C19 1_555 1_555
O3 C20 1_555 1_555
O4 C20 1_555 1_555
N1 C3 1_555 1_555
N2 Zn1 1_555 1_555
N3 C9 1_555 1_555
N4 Zn1 1_555 1_555
C1 H1 1_555 1_555
H2 C1 1_555 1_555
C2 C1 1_555 1_555
H3 C2 1_555 1_555
C3 C2 1_555 1_555
H4 C3 1_555 1_555
H5 C3 1_555 1_555
C4 N1 1_555 1_555
H6 C4 1_555 1_555
C5 N2 1_555 1_555
H7 C5 1_555 1_555
C6 N1 1_555 1_555
H8 C6 1_555 1_555
C7 H9 1_555 1_555
H10 C7 1_555 1_555
C8 C7 1_555 1_555
H11 C8 1_555 1_555
C9 C8 1_555 1_555
H12 C9 1_555 1_555
H13 C9 1_555 1_555
C10 N3 1_555 1_555
H14 C10 1_555 1_555
C11 N4 1_555 1_555
H15 C11 1_555 1_555
C12 N3 1_555 1_555
H16 C12 1_555 1_555
C13 H17 1_555 1_555
C14 C13 1_555 1_555
H18 C14 1_555 1_555
C15 C14 1_555 1_555
H19 C15 1_555 1_555
C16 C15 1_555 1_555
H20 C16 1_555 1_555
C17 C16 1_555 1_555
C18 C13 1_555 1_555
C19 C18 1_555 1_555
C20 C17 1_555 1_555
Zn1C O4 1_555 1_555
O4C Zn1 1_555 1_555
N2 C6 1_555 1_555
N4 C12 1_555 1_555
C4 C5 1_555 1_555
C10 C11 1_555 1_555
C17 C18 1_555 1_555

#END
