
#######################################################################
#
#                 Cambridge Crystallographic Data Centre
#                                CCDC 
#
#######################################################################
#
# If this CIF has been generated from an entry in the Cambridge 
# Structural Database, then it will include bibliographic, chemical, 
# crystal, experimental, refinement or atomic coordinate data resulting 
# from the CCDC's data processing and validation procedures.
#
#######################################################################

data_RUSNAV
_symmetry_cell_setting           triclinic
_symmetry_space_group_name_H-M   'P -1'
_symmetry_Int_Tables_number      2
_space_group_name_Hall           '-P 1'
loop_
_symmetry_equiv_pos_site_id
_symmetry_equiv_pos_as_xyz
1 x,y,z
2 -x,-y,-z
_cell_length_a                   7.9424(16)
_cell_length_b                   9.970(2)
_cell_length_c                   11.650(2)
_cell_angle_alpha                83.38(3)
_cell_angle_beta                 87.36(3)
_cell_angle_gamma                78.67(3)
_cell_volume                     898.245
loop_
_atom_site_label
_atom_site_type_symbol
_atom_site_fract_x
_atom_site_fract_y
_atom_site_fract_z
Ag1 Ag -0.34267(8) 0.58243(6) -0.05557(6)
S1 S -0.3909(2) 0.49910(19) 0.27230(16)
N1 N -0.1357(8) 0.4038(6) -0.0601(6)
N2 N 0.4706(8) -0.2254(6) -0.0543(6)
C1 C -0.0690(10) 0.3342(8) 0.0376(7)
H1 H -0.1067 0.3686 0.1072
C2 C 0.0521(10) 0.2150(7) 0.0411(7)
H2 H 0.0957 0.1723 0.1116
C3 C -0.0763(10) 0.3507(8) -0.1580(7)
H3 H -0.1186 0.3969 -0.2278
C4 C 0.0425(10) 0.2327(8) -0.1604(7)
H4 H 0.0794 0.2015 -0.2312
C5 C 0.2986(9) -0.0495(8) 0.0438(7)
H5 H 0.2617 -0.0168 0.1141
C6 C 0.4124(10) -0.1712(7) 0.0428(7)
H6 H 0.4513 -0.2187 0.1131
C7 C 0.2962(11) -0.0302(8) -0.1584(7)
H7 H 0.2599 0.0159 -0.2296
C8 C 0.4094(12) -0.1555(8) -0.1543(7)
H8 H 0.4445 -0.1926 -0.2231
C9 C 0.1099(9) 0.1579(7) -0.0599(6)
C10 C 0.2368(8) 0.0268(7) -0.0588(6)
C11 C -0.4218(9) 0.6191(7) 0.3773(6)
C12 C -0.5797(9) 0.7067(7) 0.3847(6)
H9 H -0.6681 0.7010 0.3370
C13 C -0.6045(9) 0.8024(8) 0.4635(6)
C14 C -0.4729(10) 0.8142(8) 0.5325(7)
H10 H -0.4894 0.8818 0.5829
C15 C -0.3146(9) 0.7241(8) 0.5264(6)
C16 C -0.2894(9) 0.6259(8) 0.4488(6)
H11 H -0.1847 0.5652 0.4447
C17 C -0.7761(10) 0.8924(8) 0.4783(7)
C18 C -0.1776(10) 0.7316(8) 0.6097(7)
O1 O -0.3287(9) 0.5720(6) 0.1701(5)
O2 O -0.2644(7) 0.3811(5) 0.3161(5)
O3 O -0.5564(7) 0.4661(7) 0.2586(6)
O4 O -0.8908(7) 0.8818(7) 0.4060(6)
H12 H -0.9825 0.9309 0.4218
O5 O -0.8050(7) 0.9677(6) 0.5573(5)
O6 O -0.0381(8) 0.6371(8) 0.5941(7)
H13 H 0.0409 0.6521 0.6305
O7 O -0.1923(8) 0.8111(7) 0.6791(6)
Ag1_2 Ag 0.65733(8) -0.41757(6) -0.05557(6)
Ag1A Ag -0.65733(8) 0.41757(6) 0.05557(6)
N2_2 N -0.5294(8) 0.7746(6) -0.0543(6)
O3A O -0.4436(7) 0.5339(7) -0.2586(6)
loop_
_geom_bond_atom_site_label_1
_geom_bond_atom_site_label_2
_geom_bond_site_symmetry_1
_geom_bond_site_symmetry_2
Ag1 N1 1_555 1_555
S1 C11 1_555 1_555
N1 C1 1_555 1_555
N2 C6 1_555 1_555
C1 H1 1_555 1_555
C2 C1 1_555 1_555
H2 C2 1_555 1_555
C3 N1 1_555 1_555
H3 C3 1_555 1_555
C4 C3 1_555 1_555
H4 C4 1_555 1_555
C5 H5 1_555 1_555
C6 C5 1_555 1_555
H6 C6 1_555 1_555
C7 H7 1_555 1_555
C8 N2 1_555 1_555
H8 C8 1_555 1_555
C9 C2 1_555 1_555
C10 C5 1_555 1_555
C11 C12 1_555 1_555
C12 H9 1_555 1_555
C13 C12 1_555 1_555
C14 C13 1_555 1_555
H10 C14 1_555 1_555
C15 C14 1_555 1_555
C16 C11 1_555 1_555
H11 C16 1_555 1_555
C17 C13 1_555 1_555
C18 C15 1_555 1_555
O1 Ag1 1_555 1_555
O2 S1 1_555 1_555
O3 S1 1_555 1_555
O4 C17 1_555 1_555
H12 O4 1_555 1_555
O5 C17 1_555 1_555
O6 C18 1_555 1_555
H13 O6 1_555 1_555
O7 C18 1_555 1_555
Ag1_2 N2 1_555 1_555
Ag1A O3 1_555 1_555
N2_2 Ag1 1_555 1_555
O3A Ag1 1_555 1_555
S1 O1 1_555 1_555
C4 C9 1_555 1_555
C7 C8 1_555 1_555
C7 C10 1_555 1_555
C9 C10 1_555 1_555
C15 C16 1_555 1_555

#END
