
#######################################################################
#
#                 Cambridge Crystallographic Data Centre
#                                CCDC 
#
#######################################################################
#
# If this CIF has been generated from an entry in the Cambridge 
# Structural Database, then it will include bibliographic, chemical, 
# crystal, experimental, refinement or atomic coordinate data resulting 
# from the CCDC's data processing and validation procedures.
#
#######################################################################

data_RUSNUP
_symmetry_cell_setting           monoclinic
_symmetry_space_group_name_H-M   'C 2/c'
_symmetry_Int_Tables_number      15
_space_group_name_Hall           '-C 2yn'
loop_
_symmetry_equiv_pos_site_id
_symmetry_equiv_pos_as_xyz
1 x,y,z
2 -x,y,1/2-z
3 1/2+x,1/2+y,z
4 1/2-x,1/2+y,1/2-z
5 -x,-y,-z
6 x,-y,1/2+z
7 1/2-x,1/2-y,-z
8 1/2+x,1/2-y,1/2+z
_cell_length_a                   14.519(3)
_cell_length_b                   14.303(3)
_cell_length_c                   12.461(3)
_cell_angle_alpha                90
_cell_angle_beta                 101.94(3)
_cell_angle_gamma                90
_cell_volume                     2531.73
loop_
_atom_site_label
_atom_site_type_symbol
_atom_site_fract_x
_atom_site_fract_y
_atom_site_fract_z
Fe1 Fe 0.0000 1.12084(4) 0.7500
Cl1 Cl 0.02255(6) 1.20219(6) 0.90773(8)
N1 N 0.20786(16) 0.96985(16) 0.63670(19)
N2 N 0.10013(17) 1.02547(17) 0.72169(19)
C1 C 0.4708(2) 0.8783(2) 0.2868(2)
H1 H 0.4516 0.8216 0.3115
C2 C 0.3788(2) 0.9625(2) 0.4047(2)
C3 C 0.4398(2) 0.9609(2) 0.3250(2)
C4 C 0.2661(2) 0.9662(2) 0.5587(2)
C5 C 0.3223(2) 1.0412(2) 0.5485(2)
H2 H 0.3231 1.0931 0.5937
C6 C 0.1067(2) 0.8921(2) 0.8545(2)
H3 H 0.0598 0.9141 0.8887
C7 C 0.3213(2) 0.8878(2) 0.4174(3)
H4 H 0.3212 0.8351 0.3736
C8 C 0.1466(2) 1.0385(2) 0.6442(2)
H5 H 0.1381 1.0905 0.5984
C9 C 0.2649(2) 0.8892(2) 0.4924(3)
H6 H 0.2261 0.8387 0.4986
C10 C 0.4710(2) 1.0437(2) 0.2859(2)
H7 H 0.4514 1.1005 0.3098
C11 C 0.2006(2) 0.9061(2) 0.7177(2)
C12 C 0.3767(2) 1.0395(2) 0.4721(2)
H8 H 0.4137 1.0913 0.4647
C13 C 0.1330(2) 0.9411(2) 0.7698(2)
C14 C 0.2242(2) 0.7782(2) 0.8350(2)
H9 H 0.2559 0.7235 0.8605
C15 C 0.2490(2) 0.8247(2) 0.7494(2)
H10 H 0.2957 0.8027 0.7149
C16 C 0.1526(2) 0.8102(2) 0.8854(2)
H11 H 0.1360 0.7750 0.9412
Fe1_2 Fe 1.0000 1.12084(4) -0.2500
Cl1A Cl -0.02255(6) 1.20219(6) 0.59227(8)
N1A N 0.79214(16) 0.96985(16) -0.13670(19)
N2A N 0.89987(17) 1.02547(17) -0.22169(19)
N2A_2 N -0.10013(17) 1.02547(17) 0.77831(19)
C1A C 0.5292(2) 0.8783(2) 0.2132(2)
H1A H 0.5484 0.8216 0.1885
C2A C 0.6212(2) 0.9625(2) 0.0953(2)
C3A C 0.5602(2) 0.9609(2) 0.1750(2)
C4A C 0.7339(2) 0.9662(2) -0.0587(2)
C5A C 0.6777(2) 1.0412(2) -0.0485(2)
H2A H 0.6769 1.0931 -0.0937
C6A C 0.8933(2) 0.8921(2) -0.3545(2)
H3A H 0.9402 0.9141 -0.3887
C7A C 0.6787(2) 0.8878(2) 0.0826(3)
H4A H 0.6788 0.8351 0.1264
C8A C 0.8534(2) 1.0385(2) -0.1442(2)
H5A H 0.8619 1.0905 -0.0984
C9A C 0.7351(2) 0.8892(2) 0.0076(3)
H6A H 0.7739 0.8387 0.0014
C10A C 0.5290(2) 1.0437(2) 0.2141(2)
H7A H 0.5486 1.1005 0.1902
C11A C 0.7994(2) 0.9061(2) -0.2177(2)
C12A C 0.6233(2) 1.0395(2) 0.0279(2)
H8A H 0.5863 1.0913 0.0353
C13A C 0.8670(2) 0.9411(2) -0.2698(2)
C14A C 0.7758(2) 0.7782(2) -0.3350(2)
H9A H 0.7441 0.7235 -0.3605
C15A C 0.7510(2) 0.8247(2) -0.2494(2)
H10A H 0.7043 0.8027 -0.2149
C16A C 0.8474(2) 0.8102(2) -0.3854(2)
H11A H 0.8640 0.7750 -0.4412
loop_
_geom_bond_atom_site_label_1
_geom_bond_atom_site_label_2
_geom_bond_site_symmetry_1
_geom_bond_site_symmetry_2
Fe1 Cl1 1_555 1_555
N1 C4 1_555 1_555
N2 Fe1 1_555 1_555
C1 H1 1_555 1_555
C2 C3 1_555 1_555
C3 C1 1_555 1_555
C4 C5 1_555 1_555
C5 H2 1_555 1_555
C6 H3 1_555 1_555
C7 C2 1_555 1_555
H4 C7 1_555 1_555
C8 N1 1_555 1_555
H5 C8 1_555 1_555
C9 C4 1_555 1_555
H6 C9 1_555 1_555
C10 C3 1_555 1_555
H7 C10 1_555 1_555
C11 N1 1_555 1_555
C12 C2 1_555 1_555
H8 C12 1_555 1_555
C13 N2 1_555 1_555
C14 H9 1_555 1_555
C15 C11 1_555 1_555
H10 C15 1_555 1_555
C16 C6 1_555 1_555
H11 C16 1_555 1_555
Fe1_2 N2A 1_555 1_555
Cl1A Fe1 1_555 1_555
N1A C4A 1_555 1_555
N2A C8A 1_555 1_555
N2A_2 Fe1 1_555 1_555
C1A C1 1_555 1_555
H1A C1A 1_555 1_555
C2A C3A 1_555 1_555
C3A C1A 1_555 1_555
C4A C5A 1_555 1_555
C5A H2A 1_555 1_555
C6A H3A 1_555 1_555
C7A C2A 1_555 1_555
H4A C7A 1_555 1_555
C8A N1A 1_555 1_555
H5A C8A 1_555 1_555
C9A C4A 1_555 1_555
H6A C9A 1_555 1_555
C10A C10 1_555 1_555
H7A C10A 1_555 1_555
C11A N1A 1_555 1_555
C12A C2A 1_555 1_555
H8A C12A 1_555 1_555
C13A N2A 1_555 1_555
C14A H9A 1_555 1_555
C15A C11A 1_555 1_555
H10A C15A 1_555 1_555
C16A C6A 1_555 1_555
H11A C16A 1_555 1_555
N2 C8 1_555 1_555
C5 C12 1_555 1_555
C6 C13 1_555 1_555
C7 C9 1_555 1_555
C11 C13 1_555 1_555
C14 C15 1_555 1_555
C14 C16 1_555 1_555
C3A C10A 1_555 1_555
C5A C12A 1_555 1_555
C6A C13A 1_555 1_555
C7A C9A 1_555 1_555
C11A C13A 1_555 1_555
C14A C15A 1_555 1_555
C14A C16A 1_555 1_555

#END
