
#######################################################################
#
#                 Cambridge Crystallographic Data Centre
#                                CCDC 
#
#######################################################################
#
# If this CIF has been generated from an entry in the Cambridge 
# Structural Database, then it will include bibliographic, chemical, 
# crystal, experimental, refinement or atomic coordinate data resulting 
# from the CCDC's data processing and validation procedures.
#
#######################################################################

data_RUSNEZ
_symmetry_cell_setting           triclinic
_symmetry_space_group_name_H-M   'P -1'
_symmetry_Int_Tables_number      2
_space_group_name_Hall           '-P 1'
loop_
_symmetry_equiv_pos_site_id
_symmetry_equiv_pos_as_xyz
1 x,y,z
2 -x,-y,-z
_cell_length_a                   3.8451(8)
_cell_length_b                   6.4170(13)
_cell_length_c                   14.854(3)
_cell_angle_alpha                101.14(3)
_cell_angle_beta                 92.53(3)
_cell_angle_gamma                94.69(3)
_cell_volume                     357.724
loop_
_atom_site_label
_atom_site_type_symbol
_atom_site_fract_x
_atom_site_fract_y
_atom_site_fract_z
C1 C 0.397(3) 0.5265(12) 0.2863(6)
H1 H 0.3077 0.6583 0.3014
C2 C 0.400(3) 0.4268(13) 0.1935(6)
H2 H 0.3177 0.4953 0.1482
C3 C 0.632(2) 0.1435(13) 0.2363(6)
H3 H 0.7083 0.008 0.2215
C4 C 0.639(2) 0.2438(11) 0.3279(5)
C5 C 0.793(2) 0.1365(12) 0.3999(6)
N1 N 0.520(2) 0.4354(11) 0.3536(5)
N2 N 0.519(2) 0.2350(11) 0.1690(5)
N3 N 0.784(3) 0.2340(13) 0.4863(6)
H4 H 0.8724 0.1795 0.5296
H5 H 0.6888 0.352 0.4994
O1 O 0.924(3) -0.0327(12) 0.3755(5)
Cl1 Cl 0.8689(6) -0.2371(3) 0.05218(16)
Hg1 Hg 0.5000 0.0000 0.00000
C1A C 0.603(3) -0.5265(12) -0.2863(6)
H1A H 0.6923 -0.6583 -0.3014
C2A C 0.600(3) -0.4268(13) -0.1935(6)
H2A H 0.6823 -0.4953 -0.1482
C3A C 0.368(2) -0.1435(13) -0.2363(6)
H3A H 0.2917 -0.008 -0.2215
C4A C 0.361(2) -0.2438(11) -0.3279(5)
C5A C 0.207(2) -0.1365(12) -0.3999(6)
N1A N 0.480(2) -0.4354(11) -0.3536(5)
N2A N 0.481(2) -0.2350(11) -0.1690(5)
N3A N 0.216(3) -0.2340(13) -0.4863(6)
H4A H 0.1276 -0.1795 -0.5296
H5A H 0.3112 -0.352 -0.4994
O1A O 0.076(3) 0.0327(12) -0.3755(5)
Cl1_2 Cl -0.1311(6) -0.2371(3) 0.05218(16)
Cl1A Cl 0.1311(6) 0.2371(3) -0.05218(16)
Cl1A_2 Cl 1.1311(6) 0.2371(3) -0.05218(16)
Hg1_2 Hg 1.5000 0.0000 0.00000
Hg1_3 Hg -0.5000 0.0000 0.00000
loop_
_geom_bond_atom_site_label_1
_geom_bond_atom_site_label_2
_geom_bond_site_symmetry_1
_geom_bond_site_symmetry_2
C1 H1 1_555 1_555
C2 C1 1_555 1_555
H2 C2 1_555 1_555
C3 H3 1_555 1_555
C4 C3 1_555 1_555
C5 C4 1_555 1_555
N1 C1 1_555 1_555
N2 C2 1_555 1_555
N3 C5 1_555 1_555
H4 N3 1_555 1_555
H5 N3 1_555 1_555
O1 C5 1_555 1_555
Cl1 Hg1 1_555 1_555
Hg1 N2 1_555 1_555
C1A H1A 1_555 1_555
C2A C1A 1_555 1_555
H2A C2A 1_555 1_555
C3A H3A 1_555 1_555
C4A C3A 1_555 1_555
C5A C4A 1_555 1_555
N1A C1A 1_555 1_555
N2A Hg1 1_555 1_555
N3A C5A 1_555 1_555
H4A N3A 1_555 1_555
H5A N3A 1_555 1_555
O1A C5A 1_555 1_555
Cl1_2 Hg1 1_555 1_555
Cl1A Hg1 1_555 1_555
Cl1A_2 Hg1 1_555 1_555
Hg1_2 Cl1 1_555 1_555
Hg1_3 Cl1_2 1_555 1_555
C3 N2 1_555 1_555
C4 N1 1_555 1_555
C2A N2A 1_555 1_555
C3A N2A 1_555 1_555
C4A N1A 1_555 1_555
Cl1A Hg1_3 1_555 1_555
Cl1A_2 Hg1_2 1_555 1_555

#END
