
#######################################################################
#
#                 Cambridge Crystallographic Data Centre
#                                CCDC 
#
#######################################################################
#
# If this CIF has been generated from an entry in the Cambridge 
# Structural Database, then it will include bibliographic, chemical, 
# crystal, experimental, refinement or atomic coordinate data resulting 
# from the CCDC's data processing and validation procedures.
#
#######################################################################

data_RUSPOM
_symmetry_cell_setting           triclinic
_symmetry_space_group_name_H-M   'P -1'
_symmetry_Int_Tables_number      2
_space_group_name_Hall           '-P 1'
loop_
_symmetry_equiv_pos_site_id
_symmetry_equiv_pos_as_xyz
1 x,y,z
2 -x,-y,-z
_cell_length_a                   10.0126(14)
_cell_length_b                   14.278(2)
_cell_length_c                   18.369(3)
_cell_angle_alpha                109.892(4)
_cell_angle_beta                 99.969(4)
_cell_angle_gamma                99.169(3)
_cell_volume                     2363.57
loop_
_atom_site_label
_atom_site_type_symbol
_atom_site_fract_x
_atom_site_fract_y
_atom_site_fract_z
Ho1 Ho 0.46405(3) 0.29239(2) 0.94017(2)
Ho2 Ho 0.95145(3) 0.30321(2) 1.44015(2)
S1 S 0.64867(17) 0.20496(12) 0.67397(9)
S2 S 0.14691(17) 0.21564(12) 1.17696(9)
S3 S 0.74162(19) 0.43611(12) 1.21972(10)
O1 O 0.1356(4) 0.3868(3) 1.3930(2)
O2 O 0.5009(4) 0.2297(3) 0.8060(2)
O3 O 0.0061(4) 0.2359(3) 1.3102(2)
O4 O 0.9061(4) 0.5594(3) 1.4509(2)
O5 O 0.8594(5) 0.3973(3) 1.3668(3)
O6 O 0.9001(5) 0.2611(3) 0.5448(3)
N1 N 0.9125(5) 0.1099(4) 1.3947(3)
O7 O 0.7879(5) 0.4038(4) 1.5118(3)
O8 O 0.6084(5) 0.4188(3) 1.0544(2)
O9 O 0.6437(5) 0.3741(3) 0.8916(3)
N2 N 0.6707(5) 0.2208(4) 0.9696(3)
O10 O 0.7334(5) 0.1237(3) 0.5238(3)
O11 O 0.6237(5) 0.5856(3) 1.0860(3)
N3 N 1.1671(5) 0.2381(4) 1.4683(3)
N4 N 0.4129(5) 0.0989(4) 0.8952(3)
C1 C 0.6368(6) 0.5088(4) 1.1046(4)
N5 N 0.7059(5) 0.2018(4) 1.3659(3)
N6 N 0.2139(5) 0.1969(4) 0.8668(3)
C2 C 1.2773(8) 0.0978(6) 1.4568(4)
H1 H 1.2686 0.0277 1.4432
O12 O 0.2341(5) 0.1354(4) 1.0270(3)
O13 O 0.3705(6) 0.2825(4) 1.0402(3)
C3 C 0.8039(7) 0.2097(5) 0.5636(4)
C4 C 0.8003(6) 0.5203(5) 1.3158(3)
C5 C 0.6964(6) 0.5293(5) 1.1879(4)
C6 C 0.7561(8) -0.0552(5) 1.3470(4)
H2 H 0.6665 -0.0964 1.3227
C7 C 0.7838(6) 0.0494(5) 1.3608(4)
C8 C 0.6589(7) 0.1194(5) 0.9480(4)
C9 C 0.2836(6) 0.0405(4) 0.8604(3)
C10 C 0.1022(6) 0.3138(5) 1.3261(3)
C11 C 0.8615(6) 0.4904(4) 1.3839(4)
C12 C 1.0175(7) 0.0692(5) 1.4150(4)
C13 C 0.1796(6) 0.3189(5) 1.2656(3)
C14 C 0.6824(7) 0.3070(5) 0.7625(4)
C15 C 1.1595(7) 0.1369(5) 1.4478(4)
C16 C 0.7785(6) 0.2652(5) 0.6442(4)
C17 C 0.1747(6) 0.0929(5) 0.8403(4)
C18 C 0.6711(7) 0.0980(5) 1.3395(4)
C19 C 0.2910(7) 0.2268(5) 1.0637(4)
C20 C 0.5145(7) 0.0528(5) 0.9134(4)
C21 C 1.4097(8) 0.1657(7) 1.4868(5)
H3 H 1.4901 0.1415 1.4930
C22 C 0.2792(7) 0.3990(5) 1.2695(4)
H4 H 0.3108 0.4609 1.3132
C23 C 0.9061(8) 0.1442(6) 0.9868(5)
H5 H 0.9848 0.1179 0.9922
C24 C 0.6058(7) 0.2485(5) 1.3488(4)
H6 H 0.6276 0.3197 1.3673
C25 C 1.2965(7) 0.3005(6) 1.4965(4)
H7 H 1.3043 0.3705 1.5100
C26 C 0.2666(7) 0.2799(5) 1.1439(4)
C27 C 0.3284(7) 0.3772(5) 1.1997(4)
H8 H 0.3956 0.4236 1.1920
C28 C 0.5392(7) 0.0417(6) 1.2946(4)
H9 H 0.5181 -0.0295 1.2765
C29 C 0.3555(8) -0.1090(5) 0.8652(4)
H10 H 0.3350 -0.1784 0.8563
C30 C 0.8634(9) -0.0956(5) 1.3699(4)
H11 H 0.8470 -0.1645 1.3625
C31 C 0.0407(7) 0.0397(6) 0.7972(4)
H12 H 0.0169 -0.0315 0.7788
C32 C 0.7756(7) 0.0793(6) 0.9554(4)
H13 H 0.7655 0.0088 0.9391
C33 C 1.4175(7) 0.2672(6) 1.5065(5)
H14 H 1.5037 0.3139 1.5266
C34 C 0.9196(8) 0.2479(6) 1.0101(5)
H15 H 1.0069 0.2931 1.0315
C35 C 0.6036(6) 0.3034(5) 0.8232(4)
C36 C 0.7826(7) 0.6102(6) 1.3185(5)
H16 H 0.8092 0.6662 1.3668
C37 C 0.4871(8) -0.0512(5) 0.9004(4)
H17 H 0.5582 -0.0805 0.9156
C38 C 0.4719(7) 0.1960(6) 1.3049(4)
H18 H 0.4051 0.2313 1.2947
C39 C 0.8001(7) 0.2827(6) 1.0007(4)
H19 H 0.8089 0.3531 1.0168
C40 C 0.9958(8) -0.0334(5) 1.4040(4)
H20 H 1.0698 -0.0600 1.4195
C41 C 0.8454(7) 0.3598(5) 0.7007(4)
H21 H 0.9193 0.4033 0.6952
C42 C 0.2519(8) -0.0641(5) 0.8427(4)
H22 H 0.1621 -0.1035 0.8159
C43 C 0.7889(7) 0.3837(5) 0.7684(4)
H23 H 0.8211 0.4453 0.8123
C44 C 0.1150(7) 0.2450(5) 0.8521(4)
H24 H 0.1395 0.3162 0.8712
C45 C 0.7265(8) 0.6204(5) 1.2515(4)
H25 H 0.7098 0.6813 1.2483
C46 C -0.0570(7) 0.0918(7) 0.7815(5)
H26 H -0.1471 0.0566 0.7515
C47 C 0.4389(7) 0.0920(6) 1.2769(4)
H27 H 0.3499 0.0551 1.2462
C48 C -0.0201(7) 0.1967(6) 0.8108(5)
H28 H -0.0852 0.2342 0.8028
Ho1A Ho 0.53595(3) 0.70761(2) 1.05983(2)
Ho2_2 Ho -0.04855(3) 0.30321(2) 1.44015(2)
Ho2_3 Ho 0.95145(3) 0.30321(2) 0.44015(2)
Ho2A Ho 1.04855(3) 0.69679(2) 1.55985(2)
O1_2 O 1.1356(4) 0.3868(3) 1.3930(2)
O3_2 O 1.0061(4) 0.2359(3) 1.3102(2)
O4A O 1.0939(4) 0.4406(3) 1.5491(2)
O6_2 O 0.9001(5) 0.2611(3) 1.5448(3)
O11A O 0.3763(5) 0.4144(3) 0.9140(3)
O14 O 0.1394(15) 0.4564(9) 1.0208(7)
loop_
_geom_bond_atom_site_label_1
_geom_bond_atom_site_label_2
_geom_bond_site_symmetry_1
_geom_bond_site_symmetry_2
Ho1 O2 1_555 1_555
Ho2 O5 1_555 1_555
S1 C14 1_555 1_555
S2 C13 1_555 1_555
S3 C4 1_555 1_555
O1 C10 1_555 1_555
O2 C35 1_555 1_555
O3 C10 1_555 1_555
O4 C11 1_555 1_555
O5 C11 1_555 1_555
O6 C3 1_555 1_555
N1 Ho2 1_555 1_555
O7 Ho2 1_555 1_555
O8 Ho1 1_555 1_555
O9 Ho1 1_555 1_555
N2 Ho1 1_555 1_555
O10 C3 1_555 1_555
O11 C1 1_555 1_555
N3 Ho2 1_555 1_555
N4 Ho1 1_555 1_555
C1 O8 1_555 1_555
N5 Ho2 1_555 1_555
N6 Ho1 1_555 1_555
C2 H1 1_555 1_555
O12 C19 1_555 1_555
O13 Ho1 1_555 1_555
C3 C16 1_555 1_555
C4 C11 1_555 1_555
C5 S3 1_555 1_555
C6 H2 1_555 1_555
C7 N1 1_555 1_555
C8 N2 1_555 1_555
C9 N4 1_555 1_555
C10 C13 1_555 1_555
C12 N1 1_555 1_555
C13 C22 1_555 1_555
C14 C35 1_555 1_555
C15 N3 1_555 1_555
C16 S1 1_555 1_555
C17 N6 1_555 1_555
C18 N5 1_555 1_555
C19 O13 1_555 1_555
C20 N4 1_555 1_555
C21 C2 1_555 1_555
H3 C21 1_555 1_555
C22 H4 1_555 1_555
C23 H5 1_555 1_555
C24 N5 1_555 1_555
H6 C24 1_555 1_555
C25 N3 1_555 1_555
H7 C25 1_555 1_555
C26 S2 1_555 1_555
C27 C22 1_555 1_555
H8 C27 1_555 1_555
C28 C18 1_555 1_555
H9 C28 1_555 1_555
C29 H10 1_555 1_555
C30 C6 1_555 1_555
H11 C30 1_555 1_555
C31 C17 1_555 1_555
H12 C31 1_555 1_555
C32 C8 1_555 1_555
H13 C32 1_555 1_555
C33 C21 1_555 1_555
H14 C33 1_555 1_555
C34 C23 1_555 1_555
H15 C34 1_555 1_555
C35 O9 1_555 1_555
C36 C4 1_555 1_555
H16 C36 1_555 1_555
C37 C20 1_555 1_555
H17 C37 1_555 1_555
C38 C24 1_555 1_555
H18 C38 1_555 1_555
C39 N2 1_555 1_555
H19 C39 1_555 1_555
C40 C12 1_555 1_555
H20 C40 1_555 1_555
C41 C16 1_555 1_555
H21 C41 1_555 1_555
C42 C9 1_555 1_555
H22 C42 1_555 1_555
C43 C14 1_555 1_555
H23 C43 1_555 1_555
C44 N6 1_555 1_555
H24 C44 1_555 1_555
C45 C5 1_555 1_555
H25 C45 1_555 1_555
C46 C31 1_555 1_555
H26 C46 1_555 1_555
C47 C28 1_555 1_555
H27 C47 1_555 1_555
C48 C44 1_555 1_555
H28 C48 1_555 1_555
Ho1A O11 1_555 1_555
Ho2_2 O1 1_555 1_555
Ho2_3 O6 1_555 1_555
Ho2A O4 1_555 1_555
O1_2 Ho2 1_555 1_555
O3_2 Ho2 1_555 1_555
O4A Ho2 1_555 1_555
O6_2 Ho2 1_555 1_555
O11A Ho1 1_555 1_555
O3 Ho2_2 1_555 1_555
C1 C5 1_555 1_555
C2 C15 1_555 1_555
C6 C7 1_555 1_555
C7 C18 1_555 1_555
C8 C20 1_555 1_555
C9 C17 1_555 1_555
C12 C15 1_555 1_555
C19 C26 1_555 1_555
C23 C32 1_555 1_555
C25 C33 1_555 1_555
C26 C27 1_555 1_555
C29 C37 1_555 1_555
C29 C42 1_555 1_555
C30 C40 1_555 1_555
C34 C39 1_555 1_555
C36 C45 1_555 1_555
C38 C47 1_555 1_555
C41 C43 1_555 1_555
C46 C48 1_555 1_555

#END
