
#######################################################################
#
#                 Cambridge Crystallographic Data Centre
#                                CCDC 
#
#######################################################################
#
# If this CIF has been generated from an entry in the Cambridge 
# Structural Database, then it will include bibliographic, chemical, 
# crystal, experimental, refinement or atomic coordinate data resulting 
# from the CCDC's data processing and validation procedures.
#
#######################################################################

data_RUSQED
_symmetry_cell_setting           triclinic
_symmetry_space_group_name_H-M   'P -1'
_symmetry_Int_Tables_number      2
_space_group_name_Hall           '-P 1'
loop_
_symmetry_equiv_pos_site_id
_symmetry_equiv_pos_as_xyz
1 x,y,z
2 -x,-y,-z
_cell_length_a                   11.165(5)
_cell_length_b                   14.113(7)
_cell_length_c                   16.117(8)
_cell_angle_alpha                108.934(7)
_cell_angle_beta                 94.613(6)
_cell_angle_gamma                99.554(6)
_cell_volume                     2344.18
loop_
_atom_site_label
_atom_site_type_symbol
_atom_site_fract_x
_atom_site_fract_y
_atom_site_fract_z
Yb1 Yb 0.43378(2) 0.79351(2) 0.95549(2)
Yb2 Yb 0.09123(2) 1.20448(2) 0.55356(2)
S1 S 0.57794(14) 1.29200(13) 0.58678(12)
S2 S -0.05293(15) 0.71289(13) 0.91122(12)
S3 S 0.27806(16) 1.06037(12) 0.76214(12)
O1 O 0.2186(4) 0.7354(4) 0.9064(3)
O2 O 0.2743(4) 0.8781(4) 1.0206(3)
O3 O 0.2500(4) 1.1202(4) 0.4907(3)
O4 O 0.3068(4) 1.2701(4) 0.5962(3)
O5 O 0.1088(5) 1.0931(3) 0.6233(3)
O6 O 0.4344(5) 0.9179(4) 0.9002(3)
N1 N 0.4465(5) 0.7028(4) 0.7945(4)
C1 C 0.0151(7) 0.8928(6) 1.0253(6)
H1 H 0.0637 0.9542 1.0632
N2 N 0.3936(5) 0.6024(4) 0.9061(4)
O7 O 0.4630(4) 1.0839(3) 0.9169(3)
O8 O -0.3196(5) 0.6345(4) 0.8771(4)
N3 N 0.1405(5) 1.2685(4) 0.4328(4)
O9 O 0.0063(4) 0.9316(3) 0.5644(3)
C2 C 0.0873(6) 1.0006(5) 0.6178(4)
N4 N 0.0760(5) 1.2983(4) 0.7131(4)
O10 O -0.3732(4) 0.7779(4) 0.9585(4)
C3 C 0.2767(8) 0.6462(7) 1.1944(6)
H2 H 0.2412 0.6207 1.2351
C4 C 0.3326(6) 1.1939(5) 0.5398(5)
N5 N 0.3810(6) 0.7222(5) 1.0719(4)
C5 C 0.5066(6) 1.1082(6) 0.4768(5)
H3 H 0.4573 1.0468 0.4395
C6 C 0.2181(8) 1.3429(7) 0.3012(6)
H4 H 0.2431 1.3678 0.2573
C7 C -0.1657(6) 0.7767(5) 0.9548(5)
C8 C 0.4095(6) 0.9932(5) 0.8808(4)
C9 C 0.0469(9) 1.4035(8) 0.8856(6)
H5 H 0.0381 1.4387 0.9438
C10 C 0.3717(7) 0.3922(6) 0.8587(6)
H6 H 0.3675 0.3221 0.8433
C11 C 0.1621(6) 0.9729(5) 0.6851(4)
C12 C 0.3097(6) 0.9691(5) 0.8055(4)
C13 C 0.3637(6) 0.5548(5) 0.9653(5)
C14 C 0.4049(6) 0.5443(5) 0.8241(5)
C15 C 0.3942(7) 0.4388(6) 0.7989(5)
H7 H 0.4025 0.4007 0.7413
C16 C -0.2963(6) 0.7238(5) 0.9268(5)
C17 C 0.1483(7) 0.8791(5) 0.6939(5)
H8 H 0.0901 0.8224 0.6579
C18 C 0.0863(6) 1.4014(5) 0.7423(5)
C19 C 0.0486(8) 1.2500(7) 0.7702(5)
H9 H 0.0390 1.1792 0.7507
C20 C 0.3448(6) 0.6211(5) 1.0531(5)
C21 C 0.1914(6) 0.8095(5) 0.9665(5)
C22 C 0.4628(6) 1.1897(5) 0.5298(4)
C23 C 0.1981(8) 1.2395(7) 0.2875(6)
H10 H 0.2108 1.1933 0.2344
C24 C 0.1591(8) 1.2058(6) 0.3539(5)
H11 H 0.1446 1.1359 0.3436
C25 C 0.1624(6) 1.3694(5) 0.4458(5)
C26 C 0.4315(6) 0.6000(5) 0.7615(5)
C27 C 0.4371(8) 0.5482(6) 0.6731(5)
H12 H 0.4245 0.4771 0.6515
C28 C 0.3674(8) 0.7847(6) 1.1528(5)
H13 H 0.3944 0.8548 1.1675
C29 C 0.2313(7) 0.8772(6) 0.7632(5)
H14 H 0.2327 0.8194 0.7787
C30 C 0.0736(8) 1.4565(7) 0.8281(5)
H15 H 0.0827 1.5273 0.8468
C31 C 0.0610(6) 0.8150(5) 0.9736(5)
C32 C 0.4615(9) 0.6030(8) 0.6177(6)
H16 H 0.4645 0.5693 0.5580
C33 C 0.2003(8) 1.4084(6) 0.3816(5)
H17 H 0.2136 1.4785 0.3927
C34 C 0.4741(8) 0.7534(7) 0.7393(5)
H18 H 0.4894 0.8245 0.7619
C35 C 0.2910(8) 0.5808(6) 1.1131(5)
H19 H 0.2652 0.5105 1.0982
C36 C 0.0337(9) 1.3001(8) 0.8566(6)
H20 H 0.0150 1.2636 0.8944
C37 C 0.3154(9) 0.7489(7) 1.2143(6)
H21 H 0.3067 0.7943 1.2690
C38 C -0.1135(7) 0.8712(6) 1.0158(6)
H22 H -0.1589 0.9165 1.0476
C39 C 0.4813(9) 0.7068(7) 0.6507(5)
H23 H 0.4991 0.7454 0.6145
C40 C 0.3545(8) 0.4503(6) 0.9446(6)
H24 H 0.3375 0.4193 0.9864
C41 C 0.1434(6) 1.4368(5) 0.5329(5)
C42 C 0.1103(6) 1.4527(5) 0.6770(5)
C43 C 0.1190(8) 1.5577(5) 0.6990(6)
H25 H 0.1142 1.5978 0.7568
C44 C 0.1342(8) 1.6008(6) 0.6371(6)
H26 H 0.1347 1.6701 0.6505
C45 C 0.1494(8) 1.5404(6) 0.5510(6)
H27 H 0.1632 1.5696 0.5076
O11 O 0.8441(5) 1.3673(4) 0.6199(4)
N6 N 0.1212(5) 1.3934(4) 0.5963(4)
C46 C 0.8194(6) 1.2767(5) 0.5728(5)
C47 C 0.6877(6) 1.2260(5) 0.5434(5)
C48 C 0.6366(7) 1.1303(6) 0.4867(6)
H28 H 0.6825 1.0838 0.4572
O12 O 0.8964(4) 1.2196(4) 0.5469(4)
Yb1_2 Yb -0.56622(2) 0.79351(2) 0.95549(2)
Yb1A Yb 0.56622(2) 1.20649(2) 1.04451(2)
Yb2_2 Yb 1.09123(2) 1.20448(2) 0.55356(2)
Yb2A Yb -0.09123(2) 0.79552(2) 0.44644(2)
O7A O 0.5370(4) 0.9161(3) 1.0831(3)
O9A O -0.0063(4) 1.0684(3) 0.4356(3)
O10_2 O 0.6268(4) 0.7779(4) 0.9585(4)
O12_2 O -0.1036(4) 1.2196(4) 0.5469(4)
O13 O 0.2068(9) 0.9438(8) 0.3441(8)
O14 O 0.2898(13) 1.0265(10) 0.1944(11)
loop_
_geom_bond_atom_site_label_1
_geom_bond_atom_site_label_2
_geom_bond_site_symmetry_1
_geom_bond_site_symmetry_2
Yb1 O1 1_555 1_555
Yb2 O3 1_555 1_555
S1 C22 1_555 1_555
S2 C7 1_555 1_555
S3 C11 1_555 1_555
O1 C21 1_555 1_555
O2 Yb1 1_555 1_555
O3 C4 1_555 1_555
O4 Yb2 1_555 1_555
O5 Yb2 1_555 1_555
O6 Yb1 1_555 1_555
N1 Yb1 1_555 1_555
C1 H1 1_555 1_555
N2 Yb1 1_555 1_555
O7 C8 1_555 1_555
O8 C16 1_555 1_555
N3 Yb2 1_555 1_555
O9 C2 1_555 1_555
C2 O5 1_555 1_555
N4 Yb2 1_555 1_555
O10 C16 1_555 1_555
C3 H2 1_555 1_555
C4 O4 1_555 1_555
N5 Yb1 1_555 1_555
C5 H3 1_555 1_555
C6 H4 1_555 1_555
C7 C16 1_555 1_555
C8 O6 1_555 1_555
C9 H5 1_555 1_555
C10 H6 1_555 1_555
C11 C2 1_555 1_555
C12 S3 1_555 1_555
C13 N2 1_555 1_555
C14 N2 1_555 1_555
C15 C10 1_555 1_555
H7 C15 1_555 1_555
C17 C11 1_555 1_555
H8 C17 1_555 1_555
C18 N4 1_555 1_555
C19 N4 1_555 1_555
H9 C19 1_555 1_555
C20 N5 1_555 1_555
C21 O2 1_555 1_555
C22 C4 1_555 1_555
C23 C6 1_555 1_555
H10 C23 1_555 1_555
C24 N3 1_555 1_555
H11 C24 1_555 1_555
C25 N3 1_555 1_555
C26 N1 1_555 1_555
C27 C26 1_555 1_555
H12 C27 1_555 1_555
C28 N5 1_555 1_555
H13 C28 1_555 1_555
C29 C12 1_555 1_555
H14 C29 1_555 1_555
C30 C9 1_555 1_555
H15 C30 1_555 1_555
C31 S2 1_555 1_555
C32 C27 1_555 1_555
H16 C32 1_555 1_555
C33 C6 1_555 1_555
H17 C33 1_555 1_555
C34 N1 1_555 1_555
H18 C34 1_555 1_555
C35 C3 1_555 1_555
H19 C35 1_555 1_555
C36 C9 1_555 1_555
H20 C36 1_555 1_555
C37 C3 1_555 1_555
H21 C37 1_555 1_555
C38 C1 1_555 1_555
H22 C38 1_555 1_555
C39 C32 1_555 1_555
H23 C39 1_555 1_555
C40 C10 1_555 1_555
H24 C40 1_555 1_555
C41 C25 1_555 1_555
C42 C18 1_555 1_555
C43 C42 1_555 1_555
H25 C43 1_555 1_555
C44 C43 1_555 1_555
H26 C44 1_555 1_555
C45 C41 1_555 1_555
H27 C45 1_555 1_555
O11 C46 1_555 1_555
N6 Yb2 1_555 1_555
C46 C47 1_555 1_555
C47 S1 1_555 1_555
C48 C5 1_555 1_555
H28 C48 1_555 1_555
O12 C46 1_555 1_555
Yb1_2 O10 1_555 1_555
Yb1A O7 1_555 1_555
Yb2_2 O12 1_555 1_555
Yb2A O9 1_555 1_555
O7A Yb1 1_555 1_555
O9A Yb2 1_555 1_555
O10_2 Yb1 1_555 1_555
O12_2 Yb2 1_555 1_555
C1 C31 1_555 1_555
C5 C22 1_555 1_555
C7 C38 1_555 1_555
C8 C12 1_555 1_555
C13 C20 1_555 1_555
C13 C40 1_555 1_555
C14 C15 1_555 1_555
C14 C26 1_555 1_555
C17 C29 1_555 1_555
C18 C30 1_555 1_555
C19 C36 1_555 1_555
C20 C35 1_555 1_555
C21 C31 1_555 1_555
C23 C24 1_555 1_555
C25 C33 1_555 1_555
C28 C37 1_555 1_555
C34 C39 1_555 1_555
C41 N6 1_555 1_555
C42 N6 1_555 1_555
C44 C45 1_555 1_555
C47 C48 1_555 1_555

#END
