
#######################################################################
#
#                 Cambridge Crystallographic Data Centre
#                                CCDC 
#
#######################################################################
#
# If this CIF has been generated from an entry in the Cambridge 
# Structural Database, then it will include bibliographic, chemical, 
# crystal, experimental, refinement or atomic coordinate data resulting 
# from the CCDC's data processing and validation procedures.
#
#######################################################################

data_RUSQOM
_symmetry_cell_setting           monoclinic
_symmetry_space_group_name_H-M   'C 2/c'
_symmetry_Int_Tables_number      15
_space_group_name_Hall           '-C 2yn'
loop_
_symmetry_equiv_pos_site_id
_symmetry_equiv_pos_as_xyz
1 x,y,z
2 -x,y,1/2-z
3 1/2+x,1/2+y,z
4 1/2-x,1/2+y,1/2-z
5 -x,-y,-z
6 x,-y,1/2+z
7 1/2-x,1/2-y,-z
8 1/2+x,1/2-y,1/2+z
_cell_length_a                   13.024(2)
_cell_length_b                   8.2965(14)
_cell_length_c                   13.882(2)
_cell_angle_alpha                90
_cell_angle_beta                 107.187(12)
_cell_angle_gamma                90
_cell_volume                     1433.02
loop_
_atom_site_label
_atom_site_type_symbol
_atom_site_fract_x
_atom_site_fract_y
_atom_site_fract_z
Cd1 Cd 0.765731(6) 0.186490(10) 0.724001(6)
O1 O 0.88636(8) 0.30035(11) 0.63643(8)
O2 O 0.62580(7) 0.26598(14) 0.58361(7)
H1 H 0.6042(14) 0.348(2) 0.6024(13)
H2 H 0.6417(14) 0.285(2) 0.5363(13)
O3 O 0.81538(7) 0.47103(11) 0.71747(7)
O4 O 0.91802(7) 0.13119(13) 0.85477(6)
H3 H 0.9713(3) 0.1903(8) 0.8554(6)
H4 H 0.9128(5) 0.1419(17) 0.9141(3)
N1 N 0.82593(8) 0.80809(12) 0.67193(8)
N2 N 0.80031(8) 0.95979(13) 0.63636(7)
N3 N 0.82818(9) 0.97910(13) 0.55380(8)
N4 N 0.87259(8) 0.84271(13) 0.53390(8)
C1 C 0.87075(9) 0.73983(15) 0.60734(9)
C2 C 0.91796(9) 0.57516(15) 0.61203(9)
H5 H 0.9935 0.5825 0.6498
H6 H 0.9143 0.5434 0.5438
C3 C 0.86925(9) 0.44164(15) 0.65764(9)
Cd1C Cd 0.734269(6) 0.686490(10) 0.775999(6)
Cd1_2 Cd 0.765731(6) 1.186490(10) 0.724001(6)
O3C O 0.68462(7) -0.02897(11) 0.78253(7)
N1C N 0.67407(8) 0.30809(12) 0.82807(8)
N2_2 N 0.80031(8) -0.04021(13) 0.63636(7)
loop_
_geom_bond_atom_site_label_1
_geom_bond_atom_site_label_2
_geom_bond_site_symmetry_1
_geom_bond_site_symmetry_2
Cd1 O1 1_555 1_555
O1 C3 1_555 1_555
O2 Cd1 1_555 1_555
H1 O2 1_555 1_555
H2 O2 1_555 1_555
O3 Cd1 1_555 1_555
O4 Cd1 1_555 1_555
H3 O4 1_555 1_555
H4 O4 1_555 1_555
N1 N2 1_555 1_555
N2 N3 1_555 1_555
N3 N4 1_555 1_555
N4 C1 1_555 1_555
C1 N1 1_555 1_555
C2 C1 1_555 1_555
H5 C2 1_555 1_555
H6 C2 1_555 1_555
C3 O3 1_555 1_555
Cd1C O3 1_555 1_555
Cd1_2 N2 1_555 1_555
O3C Cd1 1_555 1_555
N1C Cd1 1_555 1_555
N2_2 Cd1 1_555 1_555
N1 Cd1C 1_555 1_555
C2 C3 1_555 1_555

#END
