
#######################################################################
#
#                 Cambridge Crystallographic Data Centre
#                                CCDC 
#
#######################################################################
#
# If this CIF has been generated from an entry in the Cambridge 
# Structural Database, then it will include bibliographic, chemical, 
# crystal, experimental, refinement or atomic coordinate data resulting 
# from the CCDC's data processing and validation procedures.
#
#######################################################################

data_RUSQIG
_symmetry_cell_setting           monoclinic
_symmetry_space_group_name_H-M   'C c'
_symmetry_Int_Tables_number      9
_space_group_name_Hall           'C -2yc'
loop_
_symmetry_equiv_pos_site_id
_symmetry_equiv_pos_as_xyz
1 x,y,z
2 x,-y,1/2+z
3 1/2+x,1/2+y,z
4 1/2+x,1/2-y,1/2+z
_cell_length_a                   8.433(2)
_cell_length_b                   17.281(4)
_cell_length_c                   9.358(2)
_cell_angle_alpha                90
_cell_angle_beta                 91.205(19)
_cell_angle_gamma                90
_cell_volume                     1363.45
loop_
_atom_site_label
_atom_site_type_symbol
_atom_site_fract_x
_atom_site_fract_y
_atom_site_fract_z
Zn1 Zn -0.71287(4) 1.38165(2) 1.68689(3)
Zn2 Zn -0.71406(4) 1.103120(19) 1.55232(4)
O1 O -0.4677(3) 1.37694(17) 1.7057(3)
O2 O -0.7456(3) 1.18515(13) 1.4057(2)
O3 O -0.9682(3) 1.38484(15) 1.6706(3)
H1 H -1.0270(14) 1.3521(6) 1.6273(17)
H2 H -1.0339(12) 1.4183(6) 1.700(2)
O4 O -0.7196(3) 1.27344(12) 1.5767(2)
O5 O -0.6083(4) 1.23501(15) 2.0152(3)
O6 O -0.4707(3) 1.11126(15) 1.5399(3)
H3 H -0.4225(16) 1.1235(12) 1.4643(9)
H4 H -0.3996(12) 1.0890(9) 1.5912(13)
O7 O -0.7289(3) 1.32229(13) 1.8789(3)
O8 O -0.9703(3) 1.11372(13) 1.5801(3)
H5 H -1.000(2) 1.1536(4) 1.5339(17)
H6 H -1.0259(15) 1.0773(5) 1.544(2)
N1 N -0.6989(4) 1.42977(15) 1.4768(3)
N2 N -0.6751(3) 1.50432(16) 1.4415(3)
N3 N -0.7225(4) 1.51386(13) 1.3087(3)
N4 N -0.7753(3) 1.44628(15) 1.2554(3)
N5 N -0.7909(4) 1.06473(16) 1.9842(3)
N6 N -0.7254(4) 0.99855(18) 1.9397(3)
N7 N -0.6751(3) 1.00593(16) 1.8075(3)
N8 N -0.7077(3) 1.07813(15) 1.7656(3)
C1 C -0.7591(4) 1.39589(18) 1.3584(4)
C2 C -0.7975(5) 1.31182(19) 1.3375(4)
H7 H -0.7499 1.2957 1.2489
H8 H -0.9115 1.3078 1.3235
C3 C -0.7492(4) 1.25362(19) 1.4508(4)
C4 C -0.7796(4) 1.11382(19) 1.8754(4)
C5 C -0.8350(4) 1.19510(18) 1.8751(4)
H9 H -0.9269 1.1987 1.9353
H10 H -0.8692 1.2085 1.7786
C6 C -0.7129(4) 1.25487(19) 1.9263(3)
H11 H -0.3959(11) 1.3823(19) 1.6442(9)
H12 H -0.4170(16) 1.380(2) 1.7851(8)
Zn1A Zn -0.71287(4) 1.61835(2) 1.18689(3)
Zn2A Zn -0.71406(4) 0.896880(19) 2.05232(4)
N3A N -0.7225(4) 1.48614(13) 1.8087(3)
N6A N -0.7254(4) 1.00145(18) 1.4397(3)
loop_
_geom_bond_atom_site_label_1
_geom_bond_atom_site_label_2
_geom_bond_site_symmetry_1
_geom_bond_site_symmetry_2
Zn1 O1 1_555 1_555
Zn2 O2 1_555 1_555
O1 H11 1_555 1_555
O2 C3 1_555 1_555
O3 Zn1 1_555 1_555
H1 O3 1_555 1_555
H2 O3 1_555 1_555
O4 Zn1 1_555 1_555
O5 C6 1_555 1_555
O6 Zn2 1_555 1_555
H3 O6 1_555 1_555
H4 O6 1_555 1_555
O7 Zn1 1_555 1_555
O8 Zn2 1_555 1_555
H5 O8 1_555 1_555
H6 O8 1_555 1_555
N1 Zn1 1_555 1_555
N2 N1 1_555 1_555
N3 N2 1_555 1_555
N4 N3 1_555 1_555
N5 N6 1_555 1_555
N6 N7 1_555 1_555
N7 N8 1_555 1_555
N8 Zn2 1_555 1_555
C1 N1 1_555 1_555
C2 C1 1_555 1_555
H7 C2 1_555 1_555
H8 C2 1_555 1_555
C3 O4 1_555 1_555
C4 N5 1_555 1_555
C5 C4 1_555 1_555
H9 C5 1_555 1_555
H10 C5 1_555 1_555
C6 O7 1_555 1_555
H12 O1 1_555 1_555
Zn1A N3 1_555 1_555
Zn2A N6 1_555 1_555
N3A Zn1 1_555 1_555
N6A Zn2 1_555 1_555
N4 C1 1_555 1_555
N8 C4 1_555 1_555
C2 C3 1_555 1_555
C5 C6 1_555 1_555

#END
