
#######################################################################
#
#                 Cambridge Crystallographic Data Centre
#                                CCDC 
#
#######################################################################
#
# If this CIF has been generated from an entry in the Cambridge 
# Structural Database, then it will include bibliographic, chemical, 
# crystal, experimental, refinement or atomic coordinate data resulting 
# from the CCDC's data processing and validation procedures.
#
#######################################################################

data_RUSQEC
_symmetry_cell_setting           monoclinic
_symmetry_space_group_name_H-M   'C 2/c'
_symmetry_Int_Tables_number      15
_space_group_name_Hall           '-C 2yn'
loop_
_symmetry_equiv_pos_site_id
_symmetry_equiv_pos_as_xyz
1 x,y,z
2 -x,y,1/2-z
3 1/2+x,1/2+y,z
4 1/2-x,1/2+y,1/2-z
5 -x,-y,-z
6 x,-y,1/2+z
7 1/2-x,1/2-y,-z
8 1/2+x,1/2-y,1/2+z
_cell_length_a                   16.534(10)
_cell_length_b                   7.504(4)
_cell_length_c                   15.705(11)
_cell_angle_alpha                90
_cell_angle_beta                 90.27(3)
_cell_angle_gamma                90
_cell_volume                     1948.52
loop_
_atom_site_label
_atom_site_type_symbol
_atom_site_fract_x
_atom_site_fract_y
_atom_site_fract_z
I1 I 0.05155(4) 0.08483(9) 0.88479(4)
I2 I -0.12120(4) 0.50361(9) 0.81990(4)
Cu1 Cu 0.03808(9) 0.42179(18) 0.82601(9)
Cu2 Cu -0.07136(9) 0.1593(2) 0.78055(9)
N1 N 0.0865(5) 0.5818(12) 0.9182(6)
H1 H 0.0576 0.6865 0.9190
H2 H 0.0789 0.5271 0.9700
N2 N 0.3308(5) 0.5131(12) 0.8134(5)
H3 H 0.2860 0.5614 0.7872
H4 H 0.3373 0.3996 0.7924
C1 C 0.1737(6) 0.6269(13) 0.9105(7)
H5 H 0.1880 0.7206 0.9524
H6 H 0.1846 0.6738 0.8528
C2 C 0.2244(6) 0.4638(15) 0.9264(7)
H7 H 0.2041 0.3643 0.8908
H8 H 0.2198 0.4282 0.9869
C3 C 0.3149(6) 0.5007(15) 0.9048(6)
H9 H 0.3316 0.6136 0.9323
H10 H 0.3485 0.4039 0.9292
I1A I -0.05155(4) 0.08483(9) 0.61521(4)
I2A I 0.12120(4) 0.50361(9) 0.68010(4)
Cu1A Cu -0.03808(9) 0.42179(18) 0.67399(9)
Cu1B Cu -0.46192(9) -0.07821(18) 0.82601(9)
Cu2A Cu 0.07136(9) 0.1593(2) 0.71945(9)
Cu2B Cu 0.42864(9) 0.6593(2) 0.78055(9)
N1B N -0.4135(5) 0.0818(12) 0.9182(6)
N1A N -0.0865(5) 0.5818(12) 0.5818(6)
H1B H -0.4424 0.1865 0.9190
H1A H -0.0576 0.6865 0.5810
H2B H -0.4211 0.0271 0.9700
H2A H -0.0789 0.5271 0.5300
N2B N -0.1692(5) 0.0131(12) 0.8134(5)
N2C N 0.1692(5) 0.0131(12) 0.6866(5)
H3B H -0.2140 0.0614 0.7872
H3C H 0.2140 0.0614 0.7128
H4B H -0.1627 -0.1004 0.7924
H4C H 0.1627 -0.1004 0.7076
C1B C -0.3263(6) 0.1269(13) 0.9105(7)
H5B H -0.3120 0.2206 0.9524
H6B H -0.3154 0.1738 0.8528
C2B C -0.2756(6) -0.0362(15) 0.9264(7)
H7B H -0.2959 -0.1357 0.8908
H8B H -0.2802 -0.0718 0.9869
C3B C -0.1851(6) 0.0007(15) 0.9048(6)
H9B H -0.1684 0.1136 0.9323
H10B H -0.1515 -0.0961 0.9292
loop_
_geom_bond_atom_site_label_1
_geom_bond_atom_site_label_2
_geom_bond_site_symmetry_1
_geom_bond_site_symmetry_2
I1 Cu1 1_555 1_555
I2 Cu1 1_555 1_555
Cu1 N1 1_555 1_555
Cu2 I1 1_555 1_555
N1 H1 1_555 1_555
H2 N1 1_555 1_555
N2 H3 1_555 1_555
H4 N2 1_555 1_555
C1 N1 1_555 1_555
H5 C1 1_555 1_555
H6 C1 1_555 1_555
C2 C1 1_555 1_555
H7 C2 1_555 1_555
H8 C2 1_555 1_555
C3 N2 1_555 1_555
H9 C3 1_555 1_555
H10 C3 1_555 1_555
I1A Cu2 1_555 1_555
I2A Cu1 1_555 1_555
Cu1A I2 1_555 1_555
Cu1B N1B 1_555 1_555
Cu2A I1 1_555 1_555
Cu2B N2 1_555 1_555
N1B H1B 1_555 1_555
N1A Cu1A 1_555 1_555
H1A N1A 1_555 1_555
H2B N1B 1_555 1_555
H2A N1A 1_555 1_555
N2B Cu2 1_555 1_555
N2C Cu2A 1_555 1_555
H3B N2B 1_555 1_555
H3C N2C 1_555 1_555
H4B N2B 1_555 1_555
H4C N2C 1_555 1_555
C1B N1B 1_555 1_555
H5B C1B 1_555 1_555
H6B C1B 1_555 1_555
C2B C1B 1_555 1_555
H7B C2B 1_555 1_555
H8B C2B 1_555 1_555
C3B N2B 1_555 1_555
H9B C3B 1_555 1_555
H10B C3B 1_555 1_555
I2 Cu2 1_555 1_555
C2 C3 1_555 1_555
I1A Cu1A 1_555 1_555
I1A Cu2A 1_555 1_555
I2A Cu1A 1_555 1_555
I2A Cu2A 1_555 1_555
C2B C3B 1_555 1_555

#END
