
#######################################################################
#
#                 Cambridge Crystallographic Data Centre
#                                CCDC 
#
#######################################################################
#
# If this CIF has been generated from an entry in the Cambridge 
# Structural Database, then it will include bibliographic, chemical, 
# crystal, experimental, refinement or atomic coordinate data resulting 
# from the CCDC's data processing and validation procedures.
#
#######################################################################

data_RUSSOO
_symmetry_cell_setting           triclinic
_symmetry_space_group_name_H-M   'P -1'
_symmetry_Int_Tables_number      2
_space_group_name_Hall           '-P 1'
loop_
_symmetry_equiv_pos_site_id
_symmetry_equiv_pos_as_xyz
1 x,y,z
2 -x,-y,-z
_cell_length_a                   8.2308(6)
_cell_length_b                   10.2317(7)
_cell_length_c                   11.7137(8)
_cell_angle_alpha                114.031(1)
_cell_angle_beta                 98.400(1)
_cell_angle_gamma                99.919(1)
_cell_volume                     861.486
loop_
_atom_site_label
_atom_site_type_symbol
_atom_site_fract_x
_atom_site_fract_y
_atom_site_fract_z
Sm1 Sm 0.121934(12) 0.413217(11) 0.348423(9)
O1 O 0.1653(2) 0.3931(2) 0.14232(16)
O2 O 0.3915(2) 0.5163(2) 0.30171(17)
O3 O 0.0786(3) 0.6367(2) 0.32910(18)
O4 O 0.0366(2) 0.65001(17) 0.51257(15)
O5 O -0.1887(2) 0.34432(17) 0.24110(15)
O6 O -0.0548(2) 0.16897(18) 0.18712(16)
O7 O 0.2832(2) 0.2381(2) 0.34113(19)
O8 O 0.3252(2) 0.5218(2) 0.55692(16)
H1 H 0.408(4) 0.486(4) 0.586(3)
H2 H 0.293(5) 0.580(4) 0.628(3)
N1 N 0.1518(7) 0.4545(11) -0.0576(7)
H3 H 0.1025 0.4510 -0.1292
H4 H 0.0933 0.4481 -0.0041
N2 N -0.0523(8) 0.8134(5) 0.2442(5)
H5 H -0.0784 0.8466 0.1892
H6 H -0.0412 0.7245 0.2182
N3 N -0.2045(6) -0.0959(5) 0.0186(5)
H7 H -0.2072 -0.1869 -0.0273
H8 H -0.1112 -0.0350 0.0708
N4 N 0.3774(3) 0.0345(3) 0.3054(3)
C1 C 0.3183(3) 0.4667(3) 0.1842(2)
C2 C 0.3220(4) 0.4700(4) -0.0291(3)
C3 C 0.4114(3) 0.4889(3) 0.0902(2)
C4 C 0.5866(3) 0.5200(4) 0.1181(3)
H9 H 0.6453 0.5347 0.1982
C5 C 0.0449(3) 0.7062(2) 0.4340(2)
C6 C -0.0289(4) 0.8994(3) 0.3691(2)
C7 C 0.0198(3) 0.8567(2) 0.4663(2)
C8 C 0.0485(3) 0.9572(3) 0.5942(2)
H10 H 0.0819 0.9283 0.6578
C9 C -0.1893(3) 0.2105(2) 0.1759(2)
C10 C -0.4984(3) 0.1447(3) 0.0754(2)
H11 H -0.4967 0.2425 0.1267
C11 C -0.3490(3) 0.1001(2) 0.0851(2)
C12 C -0.3489(3) -0.0478(3) 0.0086(2)
C13 C 0.2692(4) 0.1048(3) 0.2806(3)
H12 H 0.1746 0.0499 0.2121
C14 C 0.5289(5) 0.1171(5) 0.4069(6)
H13 H 0.5958 0.1876 0.3866
H14 H 0.5937 0.0506 0.4153
H15 H 0.4984 0.1682 0.4864
C15 C 0.3540(7) -0.1239(4) 0.2264(5)
H16 H 0.2531 -0.1612 0.1582
H17 H 0.3431 -0.1751 0.2788
H18 H 0.4505 -0.1392 0.1902
Sm1A Sm -0.121934(12) 0.586783(11) 0.651577(9)
O4A O -0.0366(2) 0.34999(17) 0.48743(15)
C2A C 0.6780(4) 0.5300(4) 0.0291(3)
C4A C 0.4134(3) 0.4800(4) -0.1181(3)
C6A C 0.0289(4) 1.1006(3) 0.6309(2)
C8A C -0.0485(3) 1.0428(3) 0.4058(2)
C10A C -0.5016(3) -0.1447(3) -0.0754(2)
C12A C -0.6511(3) 0.0478(3) -0.0086(2)
loop_
_geom_bond_atom_site_label_1
_geom_bond_atom_site_label_2
_geom_bond_site_symmetry_1
_geom_bond_site_symmetry_2
Sm1 O1 1_555 1_555
O1 C1 1_555 1_555
O2 Sm1 1_555 1_555
O3 Sm1 1_555 1_555
O4 Sm1 1_555 1_555
O5 Sm1 1_555 1_555
O6 Sm1 1_555 1_555
O7 Sm1 1_555 1_555
O8 Sm1 1_555 1_555
H1 O8 1_555 1_555
H2 O8 1_555 1_555
N1 H3 1_555 1_555
H4 N1 1_555 1_555
N2 H5 1_555 1_555
H6 N2 1_555 1_555
N3 H7 1_555 1_555
H8 N3 1_555 1_555
N4 C13 1_555 1_555
C1 O2 1_555 1_555
C2 N1 1_555 1_555
C3 C1 1_555 1_555
C4 C3 1_555 1_555
H9 C4 1_555 1_555
C5 O3 1_555 1_555
C6 N2 1_555 1_555
C7 C5 1_555 1_555
C8 C7 1_555 1_555
H10 C8 1_555 1_555
C9 O5 1_555 1_555
C10 H11 1_555 1_555
C11 C9 1_555 1_555
C12 N3 1_555 1_555
C13 O7 1_555 1_555
H12 C13 1_555 1_555
C14 N4 1_555 1_555
H13 C14 1_555 1_555
H14 C14 1_555 1_555
H15 C14 1_555 1_555
C15 N4 1_555 1_555
H16 C15 1_555 1_555
H17 C15 1_555 1_555
H18 C15 1_555 1_555
Sm1A O4 1_555 1_555
O4A Sm1 1_555 1_555
C2A C4 1_555 1_555
C4A C2 1_555 1_555
C6A C8 1_555 1_555
C8A C6 1_555 1_555
C10A C12 1_555 1_555
C12A C10 1_555 1_555
O4 C5 1_555 1_555
O6 C9 1_555 1_555
C2 C3 1_555 1_555
C6 C7 1_555 1_555
C10 C11 1_555 1_555
C11 C12 1_555 1_555
Sm1A O4A 1_555 1_555

#END
