
#######################################################################
#
#                 Cambridge Crystallographic Data Centre
#                                CCDC 
#
#######################################################################
#
# If this CIF has been generated from an entry in the Cambridge 
# Structural Database, then it will include bibliographic, chemical, 
# crystal, experimental, refinement or atomic coordinate data resulting 
# from the CCDC's data processing and validation procedures.
#
#######################################################################

data_RUSSUU
_symmetry_cell_setting           triclinic
_symmetry_space_group_name_H-M   'P -1'
_symmetry_Int_Tables_number      2
_space_group_name_Hall           '-P 1'
loop_
_symmetry_equiv_pos_site_id
_symmetry_equiv_pos_as_xyz
1 x,y,z
2 -x,-y,-z
_cell_length_a                   8.2179(9)
_cell_length_b                   10.2208(11)
_cell_length_c                   11.6908(12)
_cell_angle_alpha                114.166(2)
_cell_angle_beta                 98.380(2)
_cell_angle_gamma                100.009(2)
_cell_volume                     856.17
loop_
_atom_site_label
_atom_site_type_symbol
_atom_site_fract_x
_atom_site_fract_y
_atom_site_fract_z
Eu1 Eu 0.12261(3) 0.41328(3) 0.34828(2)
O1 O 0.1644(5) 0.3933(4) 0.1427(4)
O2 O 0.3917(5) 0.5155(5) 0.3018(4)
O3 O 0.0827(6) 0.6378(5) 0.3314(4)
O4 O 0.0345(4) 0.6494(4) 0.5137(3)
O5 O -0.1866(4) 0.3455(4) 0.2409(3)
O6 O -0.0536(4) 0.1696(4) 0.1874(4)
O7 O 0.2829(5) 0.2385(4) 0.3409(4)
O8 O 0.3245(5) 0.5231(5) 0.5566(4)
N1 N 0.1502(15) 0.454(2) -0.0583(14)
H1 H 0.1007 0.4511 -0.1295
H2 H 0.0918 0.4468 -0.0047
N2 N -0.0524(19) 0.8120(12) 0.2436(11)
H3 H -0.0778 0.8448 0.1881
H4 H -0.0419 0.7229 0.2181
N3 N -0.2047(12) -0.0974(10) 0.0175(9)
H5 H -0.2086 -0.1889 -0.0290
H6 H -0.1105 -0.0369 0.0695
N4 N 0.3747(7) 0.0332(6) 0.3044(6)
C1 C 0.3186(7) 0.4661(6) 0.1837(5)
C2 C 0.3209(8) 0.4685(8) -0.0304(6)
C3 C 0.4125(7) 0.4890(6) 0.0903(5)
C4 C 0.5858(7) 0.5205(7) 0.1175(6)
H7 H 0.6442 0.5353 0.1979
C5 C 0.0457(7) 0.7075(6) 0.4358(5)
C6 C -0.0297(8) 0.8983(6) 0.3676(5)
C7 C 0.0191(7) 0.8572(6) 0.4669(5)
C8 C 0.0481(8) 0.9587(6) 0.5958(6)
H8 H 0.0808 0.9298 0.6596
C9 C -0.1883(6) 0.2110(6) 0.1755(5)
C10 C -0.4975(7) 0.1450(6) 0.0753(5)
H9 H -0.4951 0.2432 0.1268
C11 C -0.3485(6) 0.1003(5) 0.0846(5)
C12 C -0.3486(7) -0.0479(6) 0.0088(5)
C13 C 0.2673(8) 0.1040(7) 0.2806(7)
H10 H 0.1712 0.0489 0.2129
C14 C 0.5277(11) 0.1153(11) 0.4055(12)
H11 H 0.5843 0.1975 0.3935
H12 H 0.6017 0.0516 0.4027
H13 H 0.4991 0.1517 0.4878
C15 C 0.3510(13) -0.1228(9) 0.2240(9)
H14 H 0.2503 -0.1590 0.1555
H15 H 0.3391 -0.1758 0.2750
H16 H 0.4479 -0.1376 0.1879
H17 H 0.290(8) 0.582(6) 0.632(4)
H18 H 0.418(7) 0.518(10) 0.611(7)
Eu1A Eu 0.87739(3) 0.58672(3) -0.34828(2)
Eu1A_2 Eu -0.12261(3) 0.58672(3) 0.65172(2)
Eu1A_3 Eu -0.12261(3) 1.58672(3) 0.65172(2)
Eu1_2 Eu 0.12261(3) 1.41328(3) 0.34828(2)
Eu1A_4 Eu -1.12261(3) -0.41328(3) -0.34828(2)
O1A O 0.8356(5) 0.6067(4) -0.1427(4)
O2A O 0.6083(5) 0.4845(5) -0.3018(4)
O3A O -0.0827(6) 1.3622(5) 0.6686(4)
O3A_2 O 0.9173(6) 0.3622(5) -0.3314(4)
O4A O -0.0345(4) 1.3506(4) 0.4863(3)
O4A_2 O -0.0345(4) 0.3506(4) 0.4863(3)
O4A_3 O 0.9655(4) 0.3506(4) -0.5137(3)
O4_2 O 1.0345(4) 0.6494(4) -0.4863(3)
O5A O -0.8134(4) -0.3455(4) -0.2409(3)
O5A_2 O 1.1866(4) 0.6545(4) -0.2409(3)
O6A O -0.9464(4) -0.1696(4) -0.1874(4)
O6A_2 O 1.0536(4) 0.8304(4) -0.1874(4)
O7A O 0.7171(5) 0.7615(4) -0.3409(4)
O8A O 0.6755(5) 0.4769(5) -0.5566(4)
N1A N 0.8498(15) 0.546(2) 0.0583(14)
H1A H 0.8993 0.5489 0.1295
H2A H 0.9082 0.5532 0.0047
N2A N 0.0524(19) 1.1880(12) 0.7564(11)
H3A H 0.0778 1.1552 0.8119
H4A H 0.0419 1.2771 0.7819
N3A N -0.7953(12) 0.0974(10) -0.0175(9)
H5A H -0.7914 0.1889 0.0290
H6A H -0.8895 0.0369 -0.0695
N4A N 0.6253(7) 0.9668(6) -0.3044(6)
C1A C 0.6814(7) 0.5339(6) -0.1837(5)
C2A C 0.6791(8) 0.5315(8) 0.0304(6)
C3A C 0.5875(7) 0.5110(6) -0.0903(5)
C4A C 0.4142(7) 0.4795(7) -0.1175(6)
H7A H 0.3558 0.4647 -0.1979
C5A C -0.0457(7) 1.2925(6) 0.5642(5)
C6A C 0.0297(8) 1.1017(6) 0.6324(5)
C7A C -0.0191(7) 1.1428(6) 0.5331(5)
C8A C -0.0481(8) 1.0413(6) 0.4042(6)
H8A H -0.0808 1.0702 0.3404
C9A C -0.8117(6) -0.2110(6) -0.1755(5)
C10A C -0.5025(7) -0.1450(6) -0.0753(5)
H9A H -0.5049 -0.2432 -0.1268
C11A C -0.6515(6) -0.1003(5) -0.0846(5)
C12A C -0.6514(7) 0.0479(6) -0.0088(5)
C13A C 0.7327(8) 0.8960(7) -0.2806(7)
H10A H 0.8288 0.9511 -0.2129
C14A C 0.4723(11) 0.8847(11) -0.4055(12)
H11A H 0.4157 0.8025 -0.3935
H12A H 0.3983 0.9484 -0.4027
H13A H 0.5009 0.8483 -0.4878
C15A C 0.6490(13) 1.1228(9) -0.2240(9)
H14A H 0.7497 1.1590 -0.1555
H15A H 0.6609 1.1758 -0.2750
H16A H 0.5521 1.1376 -0.1879
H17A H 0.710(8) 0.418(6) -0.632(4)
H18A H 0.582(7) 0.482(10) -0.611(7)
loop_
_geom_bond_atom_site_label_1
_geom_bond_atom_site_label_2
_geom_bond_site_symmetry_1
_geom_bond_site_symmetry_2
Eu1 O1 1_555 1_555
O1 C1 1_555 1_555
O2 Eu1 1_555 1_555
O3 Eu1 1_555 1_555
O4 Eu1 1_555 1_555
O5 Eu1 1_555 1_555
O6 Eu1 1_555 1_555
O7 Eu1 1_555 1_555
O8 Eu1 1_555 1_555
N1 H1 1_555 1_555
H2 N1 1_555 1_555
N2 H3 1_555 1_555
H4 N2 1_555 1_555
N3 H5 1_555 1_555
H6 N3 1_555 1_555
N4 C13 1_555 1_555
C1 O2 1_555 1_555
C2 N1 1_555 1_555
C3 C1 1_555 1_555
C4 C3 1_555 1_555
H7 C4 1_555 1_555
C5 O3 1_555 1_555
C6 N2 1_555 1_555
C7 C5 1_555 1_555
C8 C7 1_555 1_555
H8 C8 1_555 1_555
C9 O5 1_555 1_555
C10 H9 1_555 1_555
C11 C9 1_555 1_555
C12 N3 1_555 1_555
C13 O7 1_555 1_555
H10 C13 1_555 1_555
C14 N4 1_555 1_555
H11 C14 1_555 1_555
H12 C14 1_555 1_555
H13 C14 1_555 1_555
C15 N4 1_555 1_555
H14 C15 1_555 1_555
H15 C15 1_555 1_555
H16 C15 1_555 1_555
H17 O8 1_555 1_555
H18 O8 1_555 1_555
Eu1A O1A 1_555 1_555
Eu1A_2 O4 1_555 1_555
Eu1A_3 O3A 1_555 1_555
Eu1_2 O4A 1_555 1_555
Eu1A_4 O5A 1_555 1_555
O1A C1A 1_555 1_555
O2A Eu1A 1_555 1_555
O3A C5A 1_555 1_555
O3A_2 Eu1A 1_555 1_555
O4A Eu1A_3 1_555 1_555
O4A_2 Eu1 1_555 1_555
O4A_3 Eu1A 1_555 1_555
O4_2 Eu1A 1_555 1_555
O5A C9A 1_555 1_555
O5A_2 Eu1A 1_555 1_555
O6A Eu1A_4 1_555 1_555
O6A_2 Eu1A 1_555 1_555
O7A Eu1A 1_555 1_555
O8A Eu1A 1_555 1_555
N1A H1A 1_555 1_555
H2A N1A 1_555 1_555
N2A H3A 1_555 1_555
H4A N2A 1_555 1_555
N3A H5A 1_555 1_555
H6A N3A 1_555 1_555
N4A C13A 1_555 1_555
C1A O2A 1_555 1_555
C2A C4 1_555 1_555
C3A C1A 1_555 1_555
C4A C2 1_555 1_555
H7A C4A 1_555 1_555
C5A O4A 1_555 1_555
C6A C8 1_555 1_555
C7A C5A 1_555 1_555
C8A C6 1_555 1_555
H8A C8A 1_555 1_555
C9A O6A 1_555 1_555
C10A C12 1_555 1_555
H9A C10A 1_555 1_555
C11A C9A 1_555 1_555
C12A C10 1_555 1_555
C13A O7A 1_555 1_555
H10A C13A 1_555 1_555
C14A N4A 1_555 1_555
H11A C14A 1_555 1_555
H12A C14A 1_555 1_555
H13A C14A 1_555 1_555
C15A N4A 1_555 1_555
H14A C15A 1_555 1_555
H15A C15A 1_555 1_555
H16A C15A 1_555 1_555
H17A O8A 1_555 1_555
H18A O8A 1_555 1_555
O4 C5 1_555 1_555
O6 C9 1_555 1_555
C2 C3 1_555 1_555
C6 C7 1_555 1_555
C10 C11 1_555 1_555
C11 C12 1_555 1_555
Eu1A_2 O4A_2 1_555 1_555
N1A C2A 1_555 1_555
N2A C6A 1_555 1_555
N3A C12A 1_555 1_555
C2A C3A 1_555 1_555
C3A C4A 1_555 1_555
C6A C7A 1_555 1_555
C7A C8A 1_555 1_555
C10A C11A 1_555 1_555
C11A C12A 1_555 1_555

#END
