
#######################################################################
#
#                 Cambridge Crystallographic Data Centre
#                                CCDC 
#
#######################################################################
#
# If this CIF has been generated from an entry in the Cambridge 
# Structural Database, then it will include bibliographic, chemical, 
# crystal, experimental, refinement or atomic coordinate data resulting 
# from the CCDC's data processing and validation procedures.
#
#######################################################################

data_RUSSII
_symmetry_cell_setting           triclinic
_symmetry_space_group_name_H-M   'P -1'
_symmetry_Int_Tables_number      2
_space_group_name_Hall           '-P 1'
loop_
_symmetry_equiv_pos_site_id
_symmetry_equiv_pos_as_xyz
1 x,y,z
2 -x,-y,-z
_cell_length_a                   8.2735(6)
_cell_length_b                   10.2445(7)
_cell_length_c                   11.7550(8)
_cell_angle_alpha                113.910(1)
_cell_angle_beta                 98.525(1)
_cell_angle_gamma                99.799(1)
_cell_volume                     871.055
loop_
_atom_site_label
_atom_site_type_symbol
_atom_site_fract_x
_atom_site_fract_y
_atom_site_fract_z
Nd1 Nd 0.122007(17) 0.413079(15) 0.348428(13)
O1 O 0.1665(3) 0.3932(3) 0.1410(2)
O2 O 0.3917(3) 0.5166(3) 0.3001(2)
O3 O 0.0754(4) 0.6369(3) 0.3265(3)
O4 O 0.0378(3) 0.6500(2) 0.5104(2)
O5 O -0.1909(3) 0.3424(2) 0.2407(2)
O6 O -0.0563(3) 0.1677(3) 0.1860(2)
O7 O 0.2832(3) 0.2343(3) 0.3392(3)
O8 O 0.3266(3) 0.5209(3) 0.5589(2)
N1 N 0.1528(9) 0.4527(15) -0.0597(9)
H1 H 0.1046 0.4494 -0.1312
H2 H 0.0937 0.4455 -0.0072
N2 N -0.0534(12) 0.8157(7) 0.2433(7)
H3 H -0.0783 0.8504 0.1894
H4 H -0.0435 0.7266 0.2165
N3 N -0.2059(8) -0.0961(7) 0.0177(6)
H5 H -0.2080 -0.1867 -0.0284
H6 H -0.1132 -0.0353 0.0698
N4 N 0.3778(5) 0.0322(4) 0.3040(4)
C1 C 0.3182(4) 0.4670(4) 0.1830(3)
C2 C 0.3224(5) 0.4692(6) -0.0297(4)
C3 C 0.4124(5) 0.4891(4) 0.0899(3)
C4 C 0.5851(5) 0.5195(5) 0.1175(4)
H7 H 0.6430 0.5331 0.1972
C5 C 0.0444(4) 0.7072(3) 0.4323(3)
C6 C -0.0303(5) 0.9002(4) 0.3687(3)
C7 C 0.0191(4) 0.8569(4) 0.4651(3)
C8 C 0.0480(5) 0.9559(4) 0.5929(3)
H8 H 0.0803 0.9254 0.6554
C9 C -0.1908(4) 0.2091(3) 0.1752(3)
C10 C -0.4991(4) 0.1441(4) 0.0746(3)
H9 H -0.4970 0.2418 0.1253
C11 C -0.3499(4) 0.0989(3) 0.0848(3)
C12 C -0.3501(4) -0.0487(4) 0.0084(3)
C13 C 0.2695(5) 0.1025(5) 0.2797(4)
H10 H 0.1749 0.0477 0.2120
C14 C 0.5295(7) 0.1146(8) 0.4040(8)
H11 H 0.5951 0.1848 0.3832
H12 H 0.5944 0.0483 0.4122
H13 H 0.5002 0.1658 0.4836
C15 C 0.3522(9) -0.1260(6) 0.2223(7)
H14 H 0.2615 -0.1577 0.1482
H15 H 0.3244 -0.1805 0.2697
H16 H 0.4539 -0.1433 0.1957
H17 H 0.306(7) 0.585(5) 0.636(3)
H18 H 0.406(5) 0.482(6) 0.590(5)
Nd1A Nd 0.877993(17) 0.586921(15) -0.348428(13)
Nd1A_2 Nd -0.122007(17) 0.586921(15) 0.651572(13)
Nd1A_3 Nd -0.122007(17) 1.586921(15) 0.651572(13)
Nd1_2 Nd 0.122007(17) 1.413079(15) 0.348428(13)
Nd1A_4 Nd -1.122007(17) -0.413079(15) -0.348428(13)
O1A O 0.8335(3) 0.6068(3) -0.1410(2)
O2A O 0.6083(3) 0.4834(3) -0.3001(2)
O3A O -0.0754(4) 1.3631(3) 0.6735(3)
O3A_2 O 0.9246(4) 0.3631(3) -0.3265(3)
O4A O -0.0378(3) 1.3500(2) 0.4896(2)
O4A_2 O -0.0378(3) 0.3500(2) 0.4896(2)
O4A_3 O 0.9622(3) 0.3500(2) -0.5104(2)
O4_2 O 1.0378(3) 0.6500(2) -0.4896(2)
O5A O -0.8091(3) -0.3424(2) -0.2407(2)
O5A_2 O 1.1909(3) 0.6576(2) -0.2407(2)
O6A O -0.9437(3) -0.1677(3) -0.1860(2)
O6A_2 O 1.0563(3) 0.8323(3) -0.1860(2)
O7A O 0.7168(3) 0.7657(3) -0.3392(3)
O8A O 0.6734(3) 0.4791(3) -0.5589(2)
N1A N 0.8472(9) 0.5473(15) 0.0597(9)
H1A H 0.8954 0.5506 0.1312
H2A H 0.9063 0.5545 0.0072
N2A N 0.0534(12) 1.1843(7) 0.7567(7)
H3A H 0.0783 1.1496 0.8106
H4A H 0.0435 1.2734 0.7835
N3A N -0.7941(8) 0.0961(7) -0.0177(6)
H5A H -0.7920 0.1867 0.0284
H6A H -0.8868 0.0353 -0.0698
N4A N 0.6222(5) 0.9678(4) -0.3040(4)
C1A C 0.6818(4) 0.5330(4) -0.1830(3)
C2A C 0.6776(5) 0.5308(6) 0.0297(4)
C3A C 0.5876(5) 0.5109(4) -0.0899(3)
C4A C 0.4149(5) 0.4805(5) -0.1175(4)
H7A H 0.3570 0.4669 -0.1972
C5A C -0.0444(4) 1.2928(3) 0.5677(3)
C6A C 0.0303(5) 1.0998(4) 0.6313(3)
C7A C -0.0191(4) 1.1431(4) 0.5349(3)
C8A C -0.0480(5) 1.0441(4) 0.4071(3)
H8A H -0.0803 1.0746 0.3446
C9A C -0.8092(4) -0.2091(3) -0.1752(3)
C10A C -0.5009(4) -0.1441(4) -0.0746(3)
H9A H -0.5030 -0.2418 -0.1253
C11A C -0.6501(4) -0.0989(3) -0.0848(3)
C12A C -0.6499(4) 0.0487(4) -0.0084(3)
C13A C 0.7305(5) 0.8975(5) -0.2797(4)
H10A H 0.8251 0.9523 -0.2120
C14A C 0.4705(7) 0.8854(8) -0.4040(8)
H11A H 0.4049 0.8152 -0.3832
H12A H 0.4056 0.9517 -0.4122
H13A H 0.4998 0.8342 -0.4836
C15A C 0.6478(9) 1.1260(6) -0.2223(7)
H14A H 0.7385 1.1577 -0.1482
H15A H 0.6756 1.1805 -0.2697
H16A H 0.5461 1.1433 -0.1957
H17A H 0.694(7) 0.415(5) -0.636(3)
H18A H 0.594(5) 0.518(6) -0.590(5)
loop_
_geom_bond_atom_site_label_1
_geom_bond_atom_site_label_2
_geom_bond_site_symmetry_1
_geom_bond_site_symmetry_2
Nd1 O1 1_555 1_555
O1 C1 1_555 1_555
O2 Nd1 1_555 1_555
O3 Nd1 1_555 1_555
O4 Nd1 1_555 1_555
O5 Nd1 1_555 1_555
O6 Nd1 1_555 1_555
O7 Nd1 1_555 1_555
O8 Nd1 1_555 1_555
N1 H1 1_555 1_555
H2 N1 1_555 1_555
N2 H3 1_555 1_555
H4 N2 1_555 1_555
N3 H5 1_555 1_555
H6 N3 1_555 1_555
N4 C13 1_555 1_555
C1 O2 1_555 1_555
C2 N1 1_555 1_555
C3 C1 1_555 1_555
C4 C3 1_555 1_555
H7 C4 1_555 1_555
C5 O3 1_555 1_555
C6 N2 1_555 1_555
C7 C5 1_555 1_555
C8 C7 1_555 1_555
H8 C8 1_555 1_555
C9 O5 1_555 1_555
C10 H9 1_555 1_555
C11 C9 1_555 1_555
C12 N3 1_555 1_555
C13 O7 1_555 1_555
H10 C13 1_555 1_555
C14 N4 1_555 1_555
H11 C14 1_555 1_555
H12 C14 1_555 1_555
H13 C14 1_555 1_555
C15 N4 1_555 1_555
H14 C15 1_555 1_555
H15 C15 1_555 1_555
H16 C15 1_555 1_555
H17 O8 1_555 1_555
H18 O8 1_555 1_555
Nd1A O1A 1_555 1_555
Nd1A_2 O4 1_555 1_555
Nd1A_3 O3A 1_555 1_555
Nd1_2 O4A 1_555 1_555
Nd1A_4 O5A 1_555 1_555
O1A C1A 1_555 1_555
O2A Nd1A 1_555 1_555
O3A C5A 1_555 1_555
O3A_2 Nd1A 1_555 1_555
O4A Nd1A_3 1_555 1_555
O4A_2 Nd1 1_555 1_555
O4A_3 Nd1A 1_555 1_555
O4_2 Nd1A 1_555 1_555
O5A C9A 1_555 1_555
O5A_2 Nd1A 1_555 1_555
O6A Nd1A_4 1_555 1_555
O6A_2 Nd1A 1_555 1_555
O7A Nd1A 1_555 1_555
O8A Nd1A 1_555 1_555
N1A H1A 1_555 1_555
H2A N1A 1_555 1_555
N2A H3A 1_555 1_555
H4A N2A 1_555 1_555
N3A H5A 1_555 1_555
H6A N3A 1_555 1_555
N4A C13A 1_555 1_555
C1A O2A 1_555 1_555
C2A C4 1_555 1_555
C3A C1A 1_555 1_555
C4A C2 1_555 1_555
H7A C4A 1_555 1_555
C5A O4A 1_555 1_555
C6A C8 1_555 1_555
C7A C5A 1_555 1_555
C8A C6 1_555 1_555
H8A C8A 1_555 1_555
C9A O6A 1_555 1_555
C10A C12 1_555 1_555
H9A C10A 1_555 1_555
C11A C9A 1_555 1_555
C12A C10 1_555 1_555
C13A O7A 1_555 1_555
H10A C13A 1_555 1_555
C14A N4A 1_555 1_555
H11A C14A 1_555 1_555
H12A C14A 1_555 1_555
H13A C14A 1_555 1_555
C15A N4A 1_555 1_555
H14A C15A 1_555 1_555
H15A C15A 1_555 1_555
H16A C15A 1_555 1_555
H17A O8A 1_555 1_555
H18A O8A 1_555 1_555
O4 C5 1_555 1_555
O6 C9 1_555 1_555
C2 C3 1_555 1_555
C6 C7 1_555 1_555
C10 C11 1_555 1_555
C11 C12 1_555 1_555
Nd1A_2 O4A_2 1_555 1_555
N1A C2A 1_555 1_555
N2A C6A 1_555 1_555
N3A C12A 1_555 1_555
C2A C3A 1_555 1_555
C3A C4A 1_555 1_555
C6A C7A 1_555 1_555
C7A C8A 1_555 1_555
C10A C11A 1_555 1_555
C11A C12A 1_555 1_555

#END
