
#######################################################################
#
#                 Cambridge Crystallographic Data Centre
#                                CCDC 
#
#######################################################################
#
# If this CIF has been generated from an entry in the Cambridge 
# Structural Database, then it will include bibliographic, chemical, 
# crystal, experimental, refinement or atomic coordinate data resulting 
# from the CCDC's data processing and validation procedures.
#
#######################################################################

data_RUSTAB
_symmetry_cell_setting           triclinic
_symmetry_space_group_name_H-M   'P -1'
_symmetry_Int_Tables_number      2
_space_group_name_Hall           '-P 1'
loop_
_symmetry_equiv_pos_site_id
_symmetry_equiv_pos_as_xyz
1 x,y,z
2 -x,-y,-z
_cell_length_a                   8.2085(16)
_cell_length_b                   10.216(2)
_cell_length_c                   11.686(2)
_cell_angle_alpha                114.170(3)
_cell_angle_beta                 98.307(3)
_cell_angle_gamma                100.037(3)
_cell_volume                     854.587
loop_
_atom_site_label
_atom_site_type_symbol
_atom_site_fract_x
_atom_site_fract_y
_atom_site_fract_z
Gd1 Gd 0.122489(18) 0.413006(16) 0.348166(14)
O1 O 0.1642(3) 0.3930(3) 0.1432(2)
O2 O 0.3915(3) 0.5150(3) 0.3022(2)
O3 O 0.0837(4) 0.6369(3) 0.3325(3)
O4 O 0.0353(3) 0.6503(3) 0.5147(2)
O5 O -0.1863(3) 0.3461(2) 0.2414(2)
O6 O -0.0528(3) 0.1696(3) 0.1881(2)
O7 O 0.2832(3) 0.2404(3) 0.3416(3)
O8 O 0.3232(4) 0.5238(4) 0.5554(3)
N1 N 0.1480(10) 0.4510(14) -0.0606(9)
H1 H 0.0994 0.4454 -0.1333
H2 H 0.0882 0.4444 -0.0076
N2 N -0.0492(11) 0.8120(8) 0.2460(7)
H3 H -0.0732 0.8447 0.1902
H4 H -0.0383 0.7229 0.2209
N3 N -0.2045(8) -0.0956(6) 0.0191(6)
H5 H -0.2064 -0.1868 -0.0269
H6 H -0.1112 -0.0339 0.0718
N4 N 0.3764(5) 0.0358(4) 0.3060(4)
C1 C 0.3182(5) 0.4667(4) 0.1847(3)
C2 C 0.3216(5) 0.4703(5) -0.0290(4)
C3 C 0.4119(5) 0.4892(4) 0.0905(4)
C4 C 0.5870(5) 0.5197(5) 0.1182(4)
H7 H 0.6458 0.5340 0.1984
C5 C 0.0462(4) 0.7069(4) 0.4368(3)
C6 C -0.0291(5) 0.8979(4) 0.3692(4)
C7 C 0.0200(5) 0.8574(4) 0.4678(3)
C8 C 0.0479(5) 0.9591(4) 0.5953(4)
H8 H 0.0805 0.9310 0.6597
C9 C -0.1879(4) 0.2116(4) 0.1759(3)
C10 C -0.4985(4) 0.1450(4) 0.0752(3)
H9 H -0.4967 0.2430 0.1268
C11 C -0.3482(4) 0.1008(4) 0.0852(3)
C12 C -0.3495(4) -0.0486(4) 0.0086(3)
C13 C 0.2692(5) 0.1063(4) 0.2812(4)
H10 H 0.1744 0.0511 0.2124
C14 C 0.5269(7) 0.1184(7) 0.4105(7)
H11 H 0.5958 0.1903 0.3923
H12 H 0.5911 0.0515 0.4190
H13 H 0.4939 0.1683 0.4895
C15 C 0.3547(8) -0.1204(6) 0.2276(6)
H14 H 0.2570 -0.1575 0.1565
H15 H 0.3384 -0.1726 0.2789
H16 H 0.4544 -0.1353 0.1952
H17 H 0.295(6) 0.574(5) 0.625(5)
H18 H 0.385(6) 0.493(6) 0.573(5)
Gd1A Gd 0.877511(18) 0.586994(16) -0.348166(14)
Gd1A_2 Gd -0.122489(18) 0.586994(16) 0.651834(14)
Gd1A_3 Gd -0.122489(18) 1.586994(16) 0.651834(14)
Gd1_2 Gd 0.122489(18) 1.413006(16) 0.348166(14)
Gd1A_4 Gd -1.122489(18) -0.413006(16) -0.348166(14)
O1A O 0.8358(3) 0.6070(3) -0.1432(2)
O2A O 0.6085(3) 0.4850(3) -0.3022(2)
O3A O -0.0837(4) 1.3631(3) 0.6675(3)
O3A_2 O 0.9163(4) 0.3631(3) -0.3325(3)
O4A O -0.0353(3) 1.3497(3) 0.4853(2)
O4A_2 O -0.0353(3) 0.3497(3) 0.4853(2)
O4A_3 O 0.9647(3) 0.3497(3) -0.5147(2)
O4_2 O 1.0353(3) 0.6503(3) -0.4853(2)
O5A O -0.8137(3) -0.3461(2) -0.2414(2)
O5A_2 O 1.1863(3) 0.6539(2) -0.2414(2)
O6A O -0.9472(3) -0.1696(3) -0.1881(2)
O6A_2 O 1.0528(3) 0.8304(3) -0.1881(2)
O7A O 0.7168(3) 0.7596(3) -0.3416(3)
O8A O 0.6768(4) 0.4762(4) -0.5554(3)
N1A N 0.8520(10) 0.5490(14) 0.0606(9)
H1A H 0.9006 0.5546 0.1333
H2A H 0.9118 0.5556 0.0076
N2A N 0.0492(11) 1.1880(8) 0.7540(7)
H3A H 0.0732 1.1553 0.8098
H4A H 0.0383 1.2771 0.7791
N3A N -0.7955(8) 0.0956(6) -0.0191(6)
H5A H -0.7936 0.1868 0.0269
H6A H -0.8888 0.0339 -0.0718
N4A N 0.6236(5) 0.9642(4) -0.3060(4)
C1A C 0.6818(5) 0.5333(4) -0.1847(3)
C2A C 0.6784(5) 0.5297(5) 0.0290(4)
C3A C 0.5881(5) 0.5108(4) -0.0905(4)
C4A C 0.4130(5) 0.4803(5) -0.1182(4)
H7A H 0.3542 0.4660 -0.1984
C5A C -0.0462(4) 1.2931(4) 0.5632(3)
C6A C 0.0291(5) 1.1021(4) 0.6308(4)
C7A C -0.0200(5) 1.1426(4) 0.5322(3)
C8A C -0.0479(5) 1.0409(4) 0.4047(4)
H8A H -0.0805 1.0690 0.3403
C9A C -0.8121(4) -0.2116(4) -0.1759(3)
C10A C -0.5015(4) -0.1450(4) -0.0752(3)
H9A H -0.5033 -0.2430 -0.1268
C11A C -0.6518(4) -0.1008(4) -0.0852(3)
C12A C -0.6505(4) 0.0486(4) -0.0086(3)
C13A C 0.7308(5) 0.8937(4) -0.2812(4)
H10A H 0.8256 0.9489 -0.2124
C14A C 0.4731(7) 0.8816(7) -0.4105(7)
H11A H 0.4042 0.8097 -0.3923
H12A H 0.4089 0.9485 -0.4190
H13A H 0.5061 0.8317 -0.4895
C15A C 0.6453(8) 1.1204(6) -0.2276(6)
H14A H 0.7430 1.1575 -0.1565
H15A H 0.6616 1.1726 -0.2789
H16A H 0.5456 1.1353 -0.1952
H17A H 0.705(6) 0.426(5) -0.625(5)
H18A H 0.615(6) 0.507(6) -0.573(5)
loop_
_geom_bond_atom_site_label_1
_geom_bond_atom_site_label_2
_geom_bond_site_symmetry_1
_geom_bond_site_symmetry_2
Gd1 O1 1_555 1_555
O1 C1 1_555 1_555
O2 Gd1 1_555 1_555
O3 Gd1 1_555 1_555
O4 Gd1 1_555 1_555
O5 Gd1 1_555 1_555
O6 Gd1 1_555 1_555
O7 Gd1 1_555 1_555
O8 Gd1 1_555 1_555
N1 H1 1_555 1_555
H2 N1 1_555 1_555
N2 H3 1_555 1_555
H4 N2 1_555 1_555
N3 H5 1_555 1_555
H6 N3 1_555 1_555
N4 C13 1_555 1_555
C1 O2 1_555 1_555
C2 N1 1_555 1_555
C3 C1 1_555 1_555
C4 C3 1_555 1_555
H7 C4 1_555 1_555
C5 O3 1_555 1_555
C6 N2 1_555 1_555
C7 C5 1_555 1_555
C8 C7 1_555 1_555
H8 C8 1_555 1_555
C9 O5 1_555 1_555
C10 H9 1_555 1_555
C11 C9 1_555 1_555
C12 N3 1_555 1_555
C13 O7 1_555 1_555
H10 C13 1_555 1_555
C14 N4 1_555 1_555
H11 C14 1_555 1_555
H12 C14 1_555 1_555
H13 C14 1_555 1_555
C15 N4 1_555 1_555
H14 C15 1_555 1_555
H15 C15 1_555 1_555
H16 C15 1_555 1_555
H17 O8 1_555 1_555
H18 O8 1_555 1_555
Gd1A O1A 1_555 1_555
Gd1A_2 O4 1_555 1_555
Gd1A_3 O3A 1_555 1_555
Gd1_2 O4A 1_555 1_555
Gd1A_4 O5A 1_555 1_555
O1A C1A 1_555 1_555
O2A Gd1A 1_555 1_555
O3A C5A 1_555 1_555
O3A_2 Gd1A 1_555 1_555
O4A Gd1A_3 1_555 1_555
O4A_2 Gd1 1_555 1_555
O4A_3 Gd1A 1_555 1_555
O4_2 Gd1A 1_555 1_555
O5A C9A 1_555 1_555
O5A_2 Gd1A 1_555 1_555
O6A Gd1A_4 1_555 1_555
O6A_2 Gd1A 1_555 1_555
O7A Gd1A 1_555 1_555
O8A Gd1A 1_555 1_555
N1A H1A 1_555 1_555
H2A N1A 1_555 1_555
N2A H3A 1_555 1_555
H4A N2A 1_555 1_555
N3A H5A 1_555 1_555
H6A N3A 1_555 1_555
N4A C13A 1_555 1_555
C1A O2A 1_555 1_555
C2A C4 1_555 1_555
C3A C1A 1_555 1_555
C4A C2 1_555 1_555
H7A C4A 1_555 1_555
C5A O4A 1_555 1_555
C6A C8 1_555 1_555
C7A C5A 1_555 1_555
C8A C6 1_555 1_555
H8A C8A 1_555 1_555
C9A O6A 1_555 1_555
C10A C12 1_555 1_555
H9A C10A 1_555 1_555
C11A C9A 1_555 1_555
C12A C10 1_555 1_555
C13A O7A 1_555 1_555
H10A C13A 1_555 1_555
C14A N4A 1_555 1_555
H11A C14A 1_555 1_555
H12A C14A 1_555 1_555
H13A C14A 1_555 1_555
C15A N4A 1_555 1_555
H14A C15A 1_555 1_555
H15A C15A 1_555 1_555
H16A C15A 1_555 1_555
H17A O8A 1_555 1_555
H18A O8A 1_555 1_555
O4 C5 1_555 1_555
O6 C9 1_555 1_555
C2 C3 1_555 1_555
C6 C7 1_555 1_555
C10 C11 1_555 1_555
C11 C12 1_555 1_555
Gd1A_2 O4A_2 1_555 1_555
N1A C2A 1_555 1_555
N2A C6A 1_555 1_555
N3A C12A 1_555 1_555
C2A C3A 1_555 1_555
C3A C4A 1_555 1_555
C6A C7A 1_555 1_555
C7A C8A 1_555 1_555
C10A C11A 1_555 1_555
C11A C12A 1_555 1_555

#END
