
#######################################################################
#
#                 Cambridge Crystallographic Data Centre
#                                CCDC 
#
#######################################################################
#
# If this CIF has been generated from an entry in the Cambridge 
# Structural Database, then it will include bibliographic, chemical, 
# crystal, experimental, refinement or atomic coordinate data resulting 
# from the CCDC's data processing and validation procedures.
#
#######################################################################

data_RUSTEF
_symmetry_cell_setting           triclinic
_symmetry_space_group_name_H-M   'P -1'
_symmetry_Int_Tables_number      2
_space_group_name_Hall           '-P 1'
loop_
_symmetry_equiv_pos_site_id
_symmetry_equiv_pos_as_xyz
1 x,y,z
2 -x,-y,-z
_cell_length_a                   8.1883(16)
_cell_length_b                   10.221(2)
_cell_length_c                   11.652(2)
_cell_angle_alpha                114.406(3)
_cell_angle_beta                 98.533(3)
_cell_angle_gamma                99.878(3)
_cell_volume                     848.347
loop_
_atom_site_label
_atom_site_type_symbol
_atom_site_fract_x
_atom_site_fract_y
_atom_site_fract_z
Tb1 Tb 0.12410(6) 0.41220(6) 0.34685(5)
O1 O 0.1630(10) 0.3957(9) 0.1433(7)
O2 O 0.3933(10) 0.5130(9) 0.3012(8)
O3 O 0.0866(12) 0.6354(9) 0.3370(8)
O4 O 0.0311(9) 0.6518(9) 0.5181(8)
O5 O -0.1829(9) 0.3458(8) 0.2400(7)
O6 O -0.0495(9) 0.1689(8) 0.1860(8)
O7 O 0.2819(11) 0.2404(9) 0.3402(9)
O8 O 0.3219(9) 0.5250(9) 0.5560(7)
N1 N 0.146(3) 0.448(4) -0.061(3)
H1 H 0.0871 0.4470 -0.0065
H2 H 0.0967 0.4359 -0.1368
N2 N -0.045(4) 0.808(3) 0.244(2)
H3 H -0.0697 0.8390 0.1872
H4 H -0.0323 0.7197 0.2207
N3 N -0.208(3) -0.098(2) 0.0204(18)
H5 H -0.2120 -0.1908 -0.0221
H6 H -0.1135 -0.0359 0.0715
N4 N 0.3738(14) 0.0316(12) 0.3047(12)
C1 C 0.3161(16) 0.4659(14) 0.1830(12)
C2 C 0.3226(16) 0.4690(15) -0.0282(13)
C3 C 0.4115(14) 0.4891(12) 0.0907(12)
C4 C 0.5845(16) 0.5175(14) 0.1167(12)
H7 H 0.6438 0.5284 0.1960
C5 C 0.0485(14) 0.7066(12) 0.4405(11)
C6 C -0.0274(18) 0.8954(15) 0.3669(14)
C7 C 0.0189(15) 0.8573(12) 0.4692(11)
C8 C 0.0490(17) 0.9634(15) 0.5991(14)
H8 H 0.0848 0.9377 0.6647
C9 C -0.1844(13) 0.2122(12) 0.1731(9)
C10 C -0.4978(14) 0.1472(12) 0.0734(10)
H9 H -0.4942 0.2468 0.1221
C11 C -0.3489(13) 0.1013(11) 0.0847(10)
C12 C -0.3500(15) -0.0506(12) 0.0071(11)
C13 C 0.2655(17) 0.1051(14) 0.2805(13)
H10 H 0.1687 0.0499 0.2125
C14 C 0.525(2) 0.119(2) 0.409(2)
H11 H 0.6144 0.0689 0.3951
H12 H 0.4993 0.1315 0.4902
H13 H 0.5612 0.2146 0.4114
C15 C 0.351(2) -0.1217(17) 0.2277(16)
H14 H 0.2446 -0.1610 0.1628
H15 H 0.3483 -0.1717 0.2816
H16 H 0.4432 -0.1370 0.1860
H17 H 0.2936 0.5813 0.6344
H18 H 0.4120 0.4907 0.5899
Tb1A Tb 0.87590(6) 0.58780(6) -0.34685(5)
Tb1A_2 Tb -0.12410(6) 0.58780(6) 0.65315(5)
Tb1A_3 Tb -0.12410(6) 1.58780(6) 0.65315(5)
Tb1_2 Tb 0.12410(6) 1.41220(6) 0.34685(5)
Tb1A_4 Tb -1.12410(6) -0.41220(6) -0.34685(5)
O1A O 0.8370(10) 0.6043(9) -0.1433(7)
O2A O 0.6067(10) 0.4870(9) -0.3012(8)
O3A O -0.0866(12) 1.3646(9) 0.6630(8)
O3A_2 O 0.9134(12) 0.3646(9) -0.3370(8)
O4A O -0.0311(9) 1.3482(9) 0.4819(8)
O4A_2 O -0.0311(9) 0.3482(9) 0.4819(8)
O4A_3 O 0.9689(9) 0.3482(9) -0.5181(8)
O4_2 O 1.0311(9) 0.6518(9) -0.4819(8)
O5A O -0.8171(9) -0.3458(8) -0.2400(7)
O5A_2 O 1.1829(9) 0.6542(8) -0.2400(7)
O6A O -0.9505(9) -0.1689(8) -0.1860(8)
O6A_2 O 1.0495(9) 0.8311(8) -0.1860(8)
O7A O 0.7181(11) 0.7596(9) -0.3402(9)
O8A O 0.6781(9) 0.4750(9) -0.5560(7)
N1A N 0.854(3) 0.552(4) 0.061(3)
H1A H 0.9129 0.5530 0.0065
H2A H 0.9033 0.5641 0.1368
N2A N 0.045(4) 1.192(3) 0.756(2)
H3A H 0.0697 1.1610 0.8128
H4A H 0.0323 1.2803 0.7793
N3A N -0.792(3) 0.098(2) -0.0204(18)
H5A H -0.7880 0.1908 0.0221
H6A H -0.8865 0.0359 -0.0715
N4A N 0.6262(14) 0.9684(12) -0.3047(12)
C1A C 0.6839(16) 0.5341(14) -0.1830(12)
C2A C 0.6774(16) 0.5310(15) 0.0282(13)
C3A C 0.5885(14) 0.5109(12) -0.0907(12)
C4A C 0.4155(16) 0.4825(14) -0.1167(12)
H7A H 0.3562 0.4716 -0.1960
C5A C -0.0485(14) 1.2934(12) 0.5595(11)
C6A C 0.0274(18) 1.1046(15) 0.6331(14)
C7A C -0.0189(15) 1.1427(12) 0.5308(11)
C8A C -0.0490(17) 1.0366(15) 0.4009(14)
H8A H -0.0848 1.0623 0.3353
C9A C -0.8156(13) -0.2122(12) -0.1731(9)
C10A C -0.5022(14) -0.1472(12) -0.0734(10)
H9A H -0.5058 -0.2468 -0.1221
C11A C -0.6511(13) -0.1013(11) -0.0847(10)
C12A C -0.6500(15) 0.0506(12) -0.0071(11)
C13A C 0.7345(17) 0.8949(14) -0.2805(13)
H10A H 0.8313 0.9501 -0.2125
C14A C 0.475(2) 0.881(2) -0.409(2)
H11A H 0.3856 0.9311 -0.3951
H12A H 0.5007 0.8685 -0.4902
H13A H 0.4388 0.7854 -0.4114
C15A C 0.649(2) 1.1217(17) -0.2277(16)
H14A H 0.7554 1.1610 -0.1628
H15A H 0.6517 1.1717 -0.2816
H16A H 0.5568 1.1370 -0.1860
H17A H 0.7064 0.4187 -0.6344
H18A H 0.5880 0.5093 -0.5899
loop_
_geom_bond_atom_site_label_1
_geom_bond_atom_site_label_2
_geom_bond_site_symmetry_1
_geom_bond_site_symmetry_2
Tb1 O1 1_555 1_555
O1 C1 1_555 1_555
O2 Tb1 1_555 1_555
O3 Tb1 1_555 1_555
O4 Tb1 1_555 1_555
O5 Tb1 1_555 1_555
O6 Tb1 1_555 1_555
O7 Tb1 1_555 1_555
O8 Tb1 1_555 1_555
N1 H1 1_555 1_555
H2 N1 1_555 1_555
N2 H3 1_555 1_555
H4 N2 1_555 1_555
N3 H5 1_555 1_555
H6 N3 1_555 1_555
N4 C13 1_555 1_555
C1 O2 1_555 1_555
C2 N1 1_555 1_555
C3 C1 1_555 1_555
C4 C3 1_555 1_555
H7 C4 1_555 1_555
C5 O3 1_555 1_555
C6 N2 1_555 1_555
C7 C5 1_555 1_555
C8 C7 1_555 1_555
H8 C8 1_555 1_555
C9 O5 1_555 1_555
C10 H9 1_555 1_555
C11 C9 1_555 1_555
C12 N3 1_555 1_555
C13 O7 1_555 1_555
H10 C13 1_555 1_555
C14 N4 1_555 1_555
H11 C14 1_555 1_555
H12 C14 1_555 1_555
H13 C14 1_555 1_555
C15 N4 1_555 1_555
H14 C15 1_555 1_555
H15 C15 1_555 1_555
H16 C15 1_555 1_555
H17 O8 1_555 1_555
H18 O8 1_555 1_555
Tb1A O1A 1_555 1_555
Tb1A_2 O4 1_555 1_555
Tb1A_3 O3A 1_555 1_555
Tb1_2 O4A 1_555 1_555
Tb1A_4 O5A 1_555 1_555
O1A C1A 1_555 1_555
O2A Tb1A 1_555 1_555
O3A C5A 1_555 1_555
O3A_2 Tb1A 1_555 1_555
O4A Tb1A_3 1_555 1_555
O4A_2 Tb1 1_555 1_555
O4A_3 Tb1A 1_555 1_555
O4_2 Tb1A 1_555 1_555
O5A C9A 1_555 1_555
O5A_2 Tb1A 1_555 1_555
O6A Tb1A_4 1_555 1_555
O6A_2 Tb1A 1_555 1_555
O7A Tb1A 1_555 1_555
O8A Tb1A 1_555 1_555
N1A H1A 1_555 1_555
H2A N1A 1_555 1_555
N2A H3A 1_555 1_555
H4A N2A 1_555 1_555
N3A H5A 1_555 1_555
H6A N3A 1_555 1_555
N4A C13A 1_555 1_555
C1A O2A 1_555 1_555
C2A C4 1_555 1_555
C3A C1A 1_555 1_555
C4A C2 1_555 1_555
H7A C4A 1_555 1_555
C5A O4A 1_555 1_555
C6A C8 1_555 1_555
C7A C5A 1_555 1_555
C8A C6 1_555 1_555
H8A C8A 1_555 1_555
C9A O6A 1_555 1_555
C10A C12 1_555 1_555
H9A C10A 1_555 1_555
C11A C9A 1_555 1_555
C12A C10 1_555 1_555
C13A O7A 1_555 1_555
H10A C13A 1_555 1_555
C14A N4A 1_555 1_555
H11A C14A 1_555 1_555
H12A C14A 1_555 1_555
H13A C14A 1_555 1_555
C15A N4A 1_555 1_555
H14A C15A 1_555 1_555
H15A C15A 1_555 1_555
H16A C15A 1_555 1_555
H17A O8A 1_555 1_555
H18A O8A 1_555 1_555
O4 C5 1_555 1_555
O6 C9 1_555 1_555
C2 C3 1_555 1_555
C6 C7 1_555 1_555
C10 C11 1_555 1_555
C11 C12 1_555 1_555
Tb1A_2 O4A_2 1_555 1_555
N1A C2A 1_555 1_555
N2A C6A 1_555 1_555
N3A C12A 1_555 1_555
C2A C3A 1_555 1_555
C3A C4A 1_555 1_555
C6A C7A 1_555 1_555
C7A C8A 1_555 1_555
C10A C11A 1_555 1_555
C11A C12A 1_555 1_555

#END
