
#######################################################################
#
#                 Cambridge Crystallographic Data Centre
#                                CCDC 
#
#######################################################################
#
# If this CIF has been generated from an entry in the Cambridge 
# Structural Database, then it will include bibliographic, chemical, 
# crystal, experimental, refinement or atomic coordinate data resulting 
# from the CCDC's data processing and validation procedures.
#
#######################################################################

data_RUTBAK
_symmetry_cell_setting           triclinic
_symmetry_space_group_name_H-M   'P -1'
_symmetry_Int_Tables_number      2
_space_group_name_Hall           '-P 1'
loop_
_symmetry_equiv_pos_site_id
_symmetry_equiv_pos_as_xyz
1 x,y,z
2 -x,-y,-z
_cell_length_a                   5.5126(13)
_cell_length_b                   6.7658(15)
_cell_length_c                   13.762(3)
_cell_angle_alpha                90.981(2)
_cell_angle_beta                 95.009(2)
_cell_angle_gamma                106.399(2)
_cell_volume                     490.053
loop_
_atom_site_label
_atom_site_type_symbol
_atom_site_fract_x
_atom_site_fract_y
_atom_site_fract_z
U1 U -1.0000 -1.5000 1.0000
O1 O -0.9644(4) -1.2382(3) 1.03625(16)
P1 P -1.51969(14) -1.45216(12) 0.82870(6)
O2 O -1.2584(4) -1.4618(4) 0.86609(16)
O3 O -1.6804(4) -1.6590(3) 0.77608(16)
H1 H -1.6952 -1.7547 0.8152
O4 O -1.6599(4) -1.3896(3) 0.90973(16)
C1 C -1.5008(6) -1.2614(5) 0.7393(2)
C2 C -1.7172(6) -1.2609(5) 0.6780(2)
H2 H -1.875(7) -1.371(6) 0.676(3)
C3 C -1.7141(6) -1.0929(5) 0.6211(2)
H3 H -1.845(8) -1.095(6) 0.589(3)
C4 C -1.4969(6) -0.9251(5) 0.6259(2)
C5 C -1.2784(6) -0.9284(5) 0.6845(2)
H4 H -1.129(7) -0.827(6) 0.686(3)
C6 C -1.2815(6) -1.0967(5) 0.7414(2)
H5 H -1.145(7) -1.101(6) 0.782(3)
C7 C -1.4999(6) -0.7387(5) 0.5708(2)
O5 O -1.2984(4) -0.5880(4) 0.57848(18)
O6 O -1.7032(4) -0.7367(4) 0.52046(18)
U1_2 U -2.0000 -1.5000 1.0000
U1_3 U 0.0000 -1.5000 1.0000
O1A O -1.0356(4) -1.7618(3) 0.96375(16)
P1A P -0.48031(14) -1.54784(12) 1.17130(6)
O2A O -0.7416(4) -1.5382(4) 1.13391(16)
O3A O -0.3196(4) -1.3410(3) 1.22392(16)
H1A H -0.3048 -1.2453 1.1848
O4A O -0.3401(4) -1.6104(3) 1.09027(16)
O4_2 O -0.6599(4) -1.3896(3) 0.90973(16)
O4A_2 O -1.3401(4) -1.6104(3) 1.09027(16)
C1A C -0.4992(6) -1.7386(5) 1.2607(2)
C2A C -0.2828(6) -1.7391(5) 1.3220(2)
H2A H -0.125(7) -1.629(6) 1.324(3)
C3A C -0.2859(6) -1.9071(5) 1.3789(2)
H3A H -0.155(8) -1.905(6) 1.411(3)
C4A C -0.5031(6) -2.0749(5) 1.3741(2)
C5A C -0.7216(6) -2.0716(5) 1.3155(2)
H4A H -0.871(7) -2.173(6) 1.314(3)
C6A C -0.7185(6) -1.9033(5) 1.2586(2)
H5A H -0.855(7) -1.899(6) 1.218(3)
C7A C -0.5001(6) -2.2613(5) 1.4292(2)
O5A O -0.7016(4) -2.4120(4) 1.42152(18)
O6A O -0.2968(4) -2.2633(4) 1.47954(18)
O7 O -0.6730(6) -0.9490(4) 0.8948(2)
H6 H -0.776(9) -0.963(7) 0.934(4)
H7 H -0.642(9) -1.039(7) 0.894(3)
loop_
_geom_bond_atom_site_label_1
_geom_bond_atom_site_label_2
_geom_bond_site_symmetry_1
_geom_bond_site_symmetry_2
U1 O1 1_555 1_555
P1 O2 1_555 1_555
O2 U1 1_555 1_555
O3 P1 1_555 1_555
H1 O3 1_555 1_555
O4 P1 1_555 1_555
C1 P1 1_555 1_555
C2 C1 1_555 1_555
H2 C2 1_555 1_555
C3 C2 1_555 1_555
H3 C3 1_555 1_555
C4 C3 1_555 1_555
C5 C4 1_555 1_555
H4 C5 1_555 1_555
C6 C1 1_555 1_555
H5 C6 1_555 1_555
C7 C4 1_555 1_555
O5 C7 1_555 1_555
O6 C7 1_555 1_555
O7 H6 1_555 1_555
H7 O7 1_555 1_555
U1_2 O4 1_555 1_555
U1_3 O4A 1_555 1_555
O1A U1 1_555 1_555
P1A O2A 1_555 1_555
O2A U1 1_555 1_555
O3A P1A 1_555 1_555
H1A O3A 1_555 1_555
O4A P1A 1_555 1_555
O4_2 U1 1_555 1_555
O4A_2 U1 1_555 1_555
C1A P1A 1_555 1_555
C2A C1A 1_555 1_555
H2A C2A 1_555 1_555
C3A C2A 1_555 1_555
H3A C3A 1_555 1_555
C4A C3A 1_555 1_555
C5A C4A 1_555 1_555
H4A C5A 1_555 1_555
C6A C1A 1_555 1_555
H5A C6A 1_555 1_555
C7A C4A 1_555 1_555
O5A C7A 1_555 1_555
O6A C7A 1_555 1_555
C5 C6 1_555 1_555
C5A C6A 1_555 1_555

#END
