
#######################################################################
#
#                 Cambridge Crystallographic Data Centre
#                                CCDC 
#
#######################################################################
#
# If this CIF has been generated from an entry in the Cambridge 
# Structural Database, then it will include bibliographic, chemical, 
# crystal, experimental, refinement or atomic coordinate data resulting 
# from the CCDC's data processing and validation procedures.
#
#######################################################################

data_RUTGAP
_symmetry_cell_setting           monoclinic
_symmetry_space_group_name_H-M   'P 21/c'
_symmetry_Int_Tables_number      14
_space_group_name_Hall           '-P 2ybc'
loop_
_symmetry_equiv_pos_site_id
_symmetry_equiv_pos_as_xyz
1 x,y,z
2 -x,1/2+y,1/2-z
3 -x,-y,-z
4 x,1/2-y,1/2+z
_cell_length_a                   13.5126(2)
_cell_length_b                   10.14710(10)
_cell_length_c                   9.84420(10)
_cell_angle_alpha                90
_cell_angle_beta                 98.0010(10)
_cell_angle_gamma                90
_cell_volume                     1336.64
loop_
_atom_site_label
_atom_site_type_symbol
_atom_site_fract_x
_atom_site_fract_y
_atom_site_fract_z
Ge1 Ge 0.436724(16) 0.61012(2) 0.17771(2)
Ge2 Ge 0.470310(16) 0.65724(2) -0.12108(2)
Ge3 Ge 0.027346(16) 0.57908(2) -0.29221(2)
Ge4 Ge 0.043966(16) 0.80554(2) -0.08520(2)
Zn1 Zn 0.232400(18) 0.60409(3) -0.06026(2)
Zn2 Zn 0.260645(18) 0.84748(3) 0.13957(2)
O1 O 0.31663(11) 0.66194(16) 0.13052(15)
O2 O 0.49170(11) 0.67751(15) 0.33494(15)
O3 O 0.44634(11) 0.43846(15) 0.20291(15)
O4 O 0.51454(11) 0.65117(16) 0.05469(15)
O5 O 0.34806(11) 0.61298(15) -0.16733(15)
O6 O 0.15544(11) 0.57834(16) -0.25998(15)
O7 O -0.02939(11) 0.42514(15) -0.28460(15)
O8 O -0.02193(11) 0.64637(16) -0.45217(15)
O9 O -0.02000(11) 0.66598(15) -0.15966(15)
O10 O 0.16728(11) 0.77434(16) -0.02779(15)
N1 N 0.20431(14) 0.42516(19) 0.02370(19)
H1 H 0.2369 0.4372 0.0943
H2 H 0.1527 0.4170 0.0590
N2 N 0.34193(14) -0.02939(19) 0.02814(19)
H3 H 0.3899 0.0077 0.0819
H4 H 0.3755 -0.0825 -0.0262
C1 C 0.22969(17) 0.3098(2) -0.0581(2)
H5 H 0.2809 0.3338 -0.1129
H6 H 0.1753 0.2960 -0.1278
C2 C 0.25804(16) 0.1882(2) 0.0298(2)
H7 H 0.3143 0.2082 0.1042
H8 H 0.2029 0.1572 0.0730
C3 C 0.28910(18) 0.0768(2) -0.0581(2)
H9 H 0.3214 0.1041 -0.1269
H10 H 0.2329 0.0398 -0.1210
Ge2C Ge 0.470310(16) 0.84276(2) 0.37892(2)
Ge2B Ge 0.529690(16) 0.34276(2) 0.12108(2)
Ge4A Ge -0.043966(16) 0.30554(2) -0.41480(2)
Ge4C Ge 0.043966(16) 0.69446(2) -0.58520(2)
Zn2C Zn 0.260645(18) 0.65252(3) -0.36043(2)
Zn2_2 Zn 0.260645(18) -0.15252(3) 0.13957(2)
O2C O 0.49170(11) 0.82249(15) -0.16506(15)
O3B O 0.55366(11) 0.56154(15) -0.20291(15)
O5C O 0.34806(11) 0.88702(15) 0.33267(15)
O6C O 0.15544(11) 0.92166(16) 0.24002(15)
O7A O 0.02939(11) 0.92514(15) -0.21540(15)
O8C O -0.02193(11) 0.85363(16) 0.04783(15)
N2_2 N 0.34193(14) 0.97061(19) 0.02814(19)
H3_2 H 0.3899 1.0077 0.0819
H4_2 H 0.3755 0.9175 -0.0262
loop_
_geom_bond_atom_site_label_1
_geom_bond_atom_site_label_2
_geom_bond_site_symmetry_1
_geom_bond_site_symmetry_2
Ge1 O1 1_555 1_555
Ge2 O4 1_555 1_555
Ge3 O6 1_555 1_555
Ge4 O9 1_555 1_555
Zn1 O1 1_555 1_555
Zn2 O1 1_555 1_555
O2 Ge1 1_555 1_555
O3 Ge1 1_555 1_555
O4 Ge1 1_555 1_555
O5 Ge2 1_555 1_555
O6 Zn1 1_555 1_555
O7 Ge3 1_555 1_555
O8 Ge3 1_555 1_555
O9 Ge3 1_555 1_555
O10 Ge4 1_555 1_555
N1 Zn1 1_555 1_555
H1 N1 1_555 1_555
H2 N1 1_555 1_555
N2 H3 1_555 1_555
H4 N2 1_555 1_555
C1 N1 1_555 1_555
H5 C1 1_555 1_555
H6 C1 1_555 1_555
C2 C1 1_555 1_555
H7 C2 1_555 1_555
H8 C2 1_555 1_555
C3 N2 1_555 1_555
H9 C3 1_555 1_555
H10 C3 1_555 1_555
Ge2C O2 1_555 1_555
Ge2B O3 1_555 1_555
Ge4A O7 1_555 1_555
Ge4C O8 1_555 1_555
Zn2C O5 1_555 1_555
Zn2_2 N2 1_555 1_555
O2C Ge2 1_555 1_555
O3B Ge2 1_555 1_555
O5C Zn2 1_555 1_555
O6C Zn2 1_555 1_555
O7A Ge4 1_555 1_555
O8C Ge4 1_555 1_555
N2_2 Zn2 1_555 1_555
H3_2 N2_2 1_555 1_555
H4_2 N2_2 1_555 1_555
Zn1 O5 1_555 1_555
Zn1 O10 1_555 1_555
Zn2 O10 1_555 1_555
O6 Zn2C 1_555 1_555
C2 C3 1_555 1_555
Ge2C O5C 1_555 1_555

#END
