
#######################################################################
#
#                 Cambridge Crystallographic Data Centre
#                                CCDC 
#
#######################################################################
#
# If this CIF has been generated from an entry in the Cambridge 
# Structural Database, then it will include bibliographic, chemical, 
# crystal, experimental, refinement or atomic coordinate data resulting 
# from the CCDC's data processing and validation procedures.
#
#######################################################################

data_RUTNOK
_symmetry_cell_setting           cubic
_symmetry_space_group_name_H-M   'F m -3 m'
_symmetry_Int_Tables_number      225
_space_group_name_Hall           '-F 4 2 3'
loop_
_symmetry_equiv_pos_site_id
_symmetry_equiv_pos_as_xyz
1 x,y,z
2 -x,-y,z
3 -x,y,-z
4 x,-y,-z
5 z,x,y
6 z,-x,-y
7 -z,-x,y
8 -z,x,-y
9 y,z,x
10 -y,z,-x
11 y,-z,-x
12 -y,-z,x
13 y,x,-z
14 -y,-x,-z
15 y,-x,z
16 -y,x,z
17 x,z,-y
18 -x,z,y
19 -x,-z,-y
20 x,-z,y
21 z,y,-x
22 z,-y,x
23 -z,y,x
24 -z,-y,-x
25 x,1/2+y,1/2+z
26 -x,1/2-y,1/2+z
27 -x,1/2+y,1/2-z
28 x,1/2-y,1/2-z
29 z,1/2+x,1/2+y
30 z,1/2-x,1/2-y
31 -z,1/2-x,1/2+y
32 -z,1/2+x,1/2-y
33 y,1/2+z,1/2+x
34 -y,1/2+z,1/2-x
35 y,1/2-z,1/2-x
36 -y,1/2-z,1/2+x
37 y,1/2+x,1/2-z
38 -y,1/2-x,1/2-z
39 y,1/2-x,1/2+z
40 -y,1/2+x,1/2+z
41 x,1/2+z,1/2-y
42 -x,1/2+z,1/2+y
43 -x,1/2-z,1/2-y
44 x,1/2-z,1/2+y
45 z,1/2+y,1/2-x
46 z,1/2-y,1/2+x
47 -z,1/2+y,1/2+x
48 -z,1/2-y,1/2-x
49 1/2+x,y,1/2+z
50 1/2-x,-y,1/2+z
51 1/2-x,y,1/2-z
52 1/2+x,-y,1/2-z
53 1/2+z,x,1/2+y
54 1/2+z,-x,1/2-y
55 1/2-z,-x,1/2+y
56 1/2-z,x,1/2-y
57 1/2+y,z,1/2+x
58 1/2-y,z,1/2-x
59 1/2+y,-z,1/2-x
60 1/2-y,-z,1/2+x
61 1/2+y,x,1/2-z
62 1/2-y,-x,1/2-z
63 1/2+y,-x,1/2+z
64 1/2-y,x,1/2+z
65 1/2+x,z,1/2-y
66 1/2-x,z,1/2+y
67 1/2-x,-z,1/2-y
68 1/2+x,-z,1/2+y
69 1/2+z,y,1/2-x
70 1/2+z,-y,1/2+x
71 1/2-z,y,1/2+x
72 1/2-z,-y,1/2-x
73 1/2+x,1/2+y,z
74 1/2-x,1/2-y,z
75 1/2-x,1/2+y,-z
76 1/2+x,1/2-y,-z
77 1/2+z,1/2+x,y
78 1/2+z,1/2-x,-y
79 1/2-z,1/2-x,y
80 1/2-z,1/2+x,-y
81 1/2+y,1/2+z,x
82 1/2-y,1/2+z,-x
83 1/2+y,1/2-z,-x
84 1/2-y,1/2-z,x
85 1/2+y,1/2+x,-z
86 1/2-y,1/2-x,-z
87 1/2+y,1/2-x,z
88 1/2-y,1/2+x,z
89 1/2+x,1/2+z,-y
90 1/2-x,1/2+z,y
91 1/2-x,1/2-z,-y
92 1/2+x,1/2-z,y
93 1/2+z,1/2+y,-x
94 1/2+z,1/2-y,x
95 1/2-z,1/2+y,x
96 1/2-z,1/2-y,-x
97 -x,-y,-z
98 x,y,-z
99 x,-y,z
100 -x,y,z
101 -z,-x,-y
102 -z,x,y
103 z,x,-y
104 z,-x,y
105 -y,-z,-x
106 y,-z,x
107 -y,z,x
108 y,z,-x
109 -y,-x,z
110 y,x,z
111 -y,x,-z
112 y,-x,-z
113 -x,-z,y
114 x,-z,-y
115 x,z,y
116 -x,z,-y
117 -z,-y,x
118 -z,y,-x
119 z,-y,-x
120 z,y,x
121 -x,1/2-y,1/2-z
122 x,1/2+y,1/2-z
123 x,1/2-y,1/2+z
124 -x,1/2+y,1/2+z
125 -z,1/2-x,1/2-y
126 -z,1/2+x,1/2+y
127 z,1/2+x,1/2-y
128 z,1/2-x,1/2+y
129 -y,1/2-z,1/2-x
130 y,1/2-z,1/2+x
131 -y,1/2+z,1/2+x
132 y,1/2+z,1/2-x
133 -y,1/2-x,1/2+z
134 y,1/2+x,1/2+z
135 -y,1/2+x,1/2-z
136 y,1/2-x,1/2-z
137 -x,1/2-z,1/2+y
138 x,1/2-z,1/2-y
139 x,1/2+z,1/2+y
140 -x,1/2+z,1/2-y
141 -z,1/2-y,1/2+x
142 -z,1/2+y,1/2-x
143 z,1/2-y,1/2-x
144 z,1/2+y,1/2+x
145 1/2-x,-y,1/2-z
146 1/2+x,y,1/2-z
147 1/2+x,-y,1/2+z
148 1/2-x,y,1/2+z
149 1/2-z,-x,1/2-y
150 1/2-z,x,1/2+y
151 1/2+z,x,1/2-y
152 1/2+z,-x,1/2+y
153 1/2-y,-z,1/2-x
154 1/2+y,-z,1/2+x
155 1/2-y,z,1/2+x
156 1/2+y,z,1/2-x
157 1/2-y,-x,1/2+z
158 1/2+y,x,1/2+z
159 1/2-y,x,1/2-z
160 1/2+y,-x,1/2-z
161 1/2-x,-z,1/2+y
162 1/2+x,-z,1/2-y
163 1/2+x,z,1/2+y
164 1/2-x,z,1/2-y
165 1/2-z,-y,1/2+x
166 1/2-z,y,1/2-x
167 1/2+z,-y,1/2-x
168 1/2+z,y,1/2+x
169 1/2-x,1/2-y,-z
170 1/2+x,1/2+y,-z
171 1/2+x,1/2-y,z
172 1/2-x,1/2+y,z
173 1/2-z,1/2-x,-y
174 1/2-z,1/2+x,y
175 1/2+z,1/2+x,-y
176 1/2+z,1/2-x,y
177 1/2-y,1/2-z,-x
178 1/2+y,1/2-z,x
179 1/2-y,1/2+z,x
180 1/2+y,1/2+z,-x
181 1/2-y,1/2-x,z
182 1/2+y,1/2+x,z
183 1/2-y,1/2+x,-z
184 1/2+y,1/2-x,-z
185 1/2-x,1/2-z,y
186 1/2+x,1/2-z,-y
187 1/2+x,1/2+z,y
188 1/2-x,1/2+z,-y
189 1/2-z,1/2-y,x
190 1/2-z,1/2+y,-x
191 1/2+z,1/2-y,-x
192 1/2+z,1/2+y,x
_cell_length_a                   42.9245(2)
_cell_length_b                   42.9245(2)
_cell_length_c                   42.9245(2)
_cell_angle_alpha                90
_cell_angle_beta                 90
_cell_angle_gamma                90
_cell_volume                     79088.9
loop_
_atom_site_label
_atom_site_type_symbol
_atom_site_fract_x
_atom_site_fract_y
_atom_site_fract_z
C1 C 0.2500 0.3337(10) 0.2500
C2 C 0.2500 0.3664(10) 0.2500
C3 C 0.2313(4) 0.3839(9) 0.2687(4)
H1 H 0.2178 0.3738 0.2822
C4 C 0.2318(6) 0.4171(7) 0.2682(6)
H2 H 0.2183 0.4273 0.2817
C5 C 0.2500 0.4351(18) 0.2500
C6 C 0.2500 0.4672(14) 0.2500
C7 C 0.2306(18) 0.4834(7) 0.2306(18)
C8 C 0.192(2) 0.5000 0.192(2)
H3 H 0.1762 0.5000 0.1762
C9 C 0.1928(15) 0.4428(18) 0.1928(15)
H4 H 0.1974 0.4419 0.1709
H5 H 0.1707 0.4427 0.1959
H6 H 0.2018 0.4251 0.2030
N1 N 0.2065(18) 0.473(2) 0.2065(18)
O1 O 0.2500 0.2500 0.2500
O2 O 0.2691(2) 0.3192(3) 0.2309(2)
Zn1 Zn 0.27617(3) 0.27617(3) 0.22383(3)
C1U C 0.2500 0.6663(10) 0.2500
C1H C 0.3337(10) 0.2500 0.2500
C1O C 0.6663(10) 0.2500 0.2500
C1CA C 0.2500 0.2500 0.1663(10)
C1QA C 0.2500 0.2500 -0.1663(10)
C2U C 0.2500 0.6336(10) 0.2500
C2H C 0.3664(10) 0.2500 0.2500
C2O C 0.6336(10) 0.2500 0.2500
C2CA C 0.2500 0.2500 0.1336(10)
C2QA C 0.2500 0.2500 -0.1336(10)
C3XA C 0.2687(4) 0.3839(9) 0.2313(4)
C3U C 0.2687(4) 0.6161(9) 0.2313(4)
C3SB C 0.2313(4) 0.6161(9) 0.2687(4)
C3HA C 0.3839(9) 0.2313(4) 0.2687(4)
C3H C 0.3839(9) 0.2687(4) 0.2313(4)
C3KA C 0.6161(9) 0.2687(4) 0.2313(4)
C3O C 0.6161(9) 0.2313(4) 0.2687(4)
C3CB C 0.2313(4) 0.2313(4) 0.1161(9)
C3CA C 0.2687(4) 0.2687(4) 0.1161(9)
C3MB C 0.2687(4) 0.2687(4) -0.1161(9)
C3QA C 0.2313(4) 0.2313(4) -0.1161(9)
H1XA H 0.2822 0.3738 0.2178
H1SB H 0.2178 0.6262 0.2822
H1U H 0.2822 0.6262 0.2178
H1HA H 0.3738 0.2178 0.2822
H1H H 0.3738 0.2822 0.2178
H1O H 0.6262 0.2178 0.2822
H1KA H 0.6262 0.2822 0.2178
H1CB H 0.2178 0.2178 0.1262
H1CA H 0.2822 0.2822 0.1262
H1QA H 0.2178 0.2178 -0.1262
H1MB H 0.2822 0.2822 -0.1262
C4XA C 0.2682(6) 0.4171(7) 0.2318(6)
C4U C 0.2682(6) 0.5829(7) 0.2318(6)
C4SB C 0.2318(6) 0.5829(7) 0.2682(6)
C4HA C 0.4171(7) 0.2318(6) 0.2682(6)
C4H C 0.4171(7) 0.2682(6) 0.2318(6)
C4KA C 0.5829(7) 0.2682(6) 0.2318(6)
C4O C 0.5829(7) 0.2318(6) 0.2682(6)
C4CB C 0.2318(6) 0.2318(6) 0.0829(7)
C4CA C 0.2682(6) 0.2682(6) 0.0829(7)
C4MB C 0.2682(6) 0.2682(6) -0.0829(7)
C4QA C 0.2318(6) 0.2318(6) -0.0829(7)
H2XA H 0.2817 0.4273 0.2183
H2SB H 0.2183 0.5727 0.2817
H2U H 0.2817 0.5727 0.2183
H2HA H 0.4273 0.2183 0.2817
H2H H 0.4273 0.2817 0.2183
H2O H 0.5727 0.2183 0.2817
H2KA H 0.5727 0.2817 0.2183
H2CB H 0.2183 0.2183 0.0727
H2CA H 0.2817 0.2817 0.0727
H2QA H 0.2183 0.2183 -0.0727
H2MB H 0.2817 0.2817 -0.0727
C5U C 0.2500 0.5649(18) 0.2500
C5H C 0.4351(18) 0.2500 0.2500
C5O C 0.5649(18) 0.2500 0.2500
C5CA C 0.2500 0.2500 0.0649(18)
C5QA C 0.2500 0.2500 -0.0649(18)
C6U C 0.2500 0.5328(14) 0.2500
C6H C 0.4672(14) 0.2500 0.2500
C6O C 0.5328(14) 0.2500 0.2500
C6CA C 0.2500 0.2500 0.0328(14)
C6QA C 0.2500 0.2500 -0.0328(14)
C7U C 0.2306(18) 0.5166(7) 0.2306(18)
C7SB C 0.2694(18) 0.5166(7) 0.2694(18)
C7XA C 0.2694(18) 0.4834(7) 0.2694(18)
C7HA C 0.4834(7) 0.2694(18) 0.2694(18)
C7KA C 0.5166(7) 0.2694(18) 0.2694(18)
C7O C 0.5166(7) 0.2306(18) 0.2306(18)
C7H C 0.4834(7) 0.2306(18) 0.2306(18)
C7CB C 0.2694(18) 0.2306(18) 0.0166(7)
C7MB C 0.2694(18) 0.2306(18) -0.0166(7)
C7QA C 0.2306(18) 0.2694(18) -0.0166(7)
C7CA C 0.2306(18) 0.2694(18) 0.0166(7)
C8XA C 0.308(2) 0.5000 0.308(2)
C8HA C 0.5000 0.308(2) 0.308(2)
C8H C 0.5000 0.192(2) 0.192(2)
C8CB C 0.308(2) 0.192(2) 0.0000
C8CA C 0.192(2) 0.308(2) 0.0000
H3XA H 0.3238 0.5000 0.3238
H3HA H 0.5000 0.3238 0.3238
H3H H 0.5000 0.1762 0.1762
H3CB H 0.3238 0.1762 0.0000
H3CA H 0.1762 0.3238 0.0000
C9XA C 0.3072(15) 0.4428(18) 0.3072(15)
C9SB C 0.3072(15) 0.5572(18) 0.3072(15)
C9U C 0.1928(15) 0.5572(18) 0.1928(15)
C9HA C 0.4428(18) 0.3072(15) 0.3072(15)
C9H C 0.4428(18) 0.1928(15) 0.1928(15)
C9O C 0.5572(18) 0.1928(15) 0.1928(15)
C9KA C 0.5572(18) 0.3072(15) 0.3072(15)
C9CB C 0.3072(15) 0.1928(15) 0.0572(18)
C9CA C 0.1928(15) 0.3072(15) 0.0572(18)
C9QA C 0.1928(15) 0.3072(15) -0.0572(18)
C9MB C 0.3072(15) 0.1928(15) -0.0572(18)
H4XA H 0.3026 0.4419 0.3291
H4SB H 0.3291 0.5581 0.3026
H4U H 0.1709 0.5581 0.1974
H4HA H 0.4419 0.3291 0.3026
H4H H 0.4419 0.1709 0.1974
H4O H 0.5581 0.1974 0.1709
H4KA H 0.5581 0.3026 0.3291
H4CB H 0.3291 0.1974 0.0581
H4CA H 0.1709 0.3026 0.0581
H4QA H 0.1974 0.3291 -0.0581
H4MB H 0.3026 0.1709 -0.0581
H5XA H 0.3293 0.4427 0.3041
H5SB H 0.3041 0.5573 0.3293
H5U H 0.1959 0.5573 0.1707
H5HA H 0.4427 0.3041 0.3293
H5H H 0.4427 0.1959 0.1707
H5O H 0.5573 0.1707 0.1959
H5KA H 0.5573 0.3293 0.3041
H5CB H 0.3041 0.1707 0.0573
H5CA H 0.1959 0.3293 0.0573
H5QA H 0.1707 0.3041 -0.0573
H5MB H 0.3293 0.1959 -0.0573
H6XA H 0.2982 0.4251 0.2970
H6SB H 0.2970 0.5749 0.2982
H6U H 0.2030 0.5749 0.2018
H6HA H 0.4251 0.2970 0.2982
H6H H 0.4251 0.2030 0.2018
H6O H 0.5749 0.2018 0.2030
H6KA H 0.5749 0.2982 0.2970
H6CB H 0.2970 0.2018 0.0749
H6CA H 0.2030 0.2982 0.0749
H6QA H 0.2018 0.2970 -0.0749
H6MB H 0.2982 0.2030 -0.0749
N1U N 0.2065(18) 0.527(2) 0.2065(18)
N1SB N 0.2935(18) 0.527(2) 0.2935(18)
N1XA N 0.2935(18) 0.473(2) 0.2935(18)
N1HA N 0.473(2) 0.2935(18) 0.2935(18)
N1KA N 0.527(2) 0.2935(18) 0.2935(18)
N1O N 0.527(2) 0.2065(18) 0.2065(18)
N1H N 0.473(2) 0.2065(18) 0.2065(18)
N1CB N 0.2935(18) 0.2065(18) 0.027(2)
N1MB N 0.2935(18) 0.2065(18) -0.027(2)
N1QA N 0.2065(18) 0.2935(18) -0.027(2)
N1CA N 0.2065(18) 0.2935(18) 0.027(2)
O1N O 0.2500 0.7500 0.2500
O2U O 0.2309(2) 0.6808(3) 0.2691(2)
O2SB O 0.2691(2) 0.6808(3) 0.2309(2)
O2XA O 0.2309(2) 0.3192(3) 0.2691(2)
O2HA O 0.3192(3) 0.2691(2) 0.2309(2)
O2KA O 0.6808(3) 0.2309(2) 0.2691(2)
O2O O 0.6808(3) 0.2691(2) 0.2309(2)
O2H O 0.3192(3) 0.2309(2) 0.2691(2)
O2CB O 0.2691(2) 0.2691(2) 0.1808(3)
O2MB O 0.2309(2) 0.2309(2) -0.1808(3)
O2QA O 0.2691(2) 0.2691(2) -0.1808(3)
O2CA O 0.2309(2) 0.2309(2) 0.1808(3)
O2KC O 0.2309(2) 0.7309(2) 0.3192(3)
O2IB O 0.1808(3) 0.7309(2) 0.2691(2)
O2NA O 0.2691(2) 0.7309(2) 0.1808(3)
O2N O 0.3192(3) 0.7309(2) 0.2309(2)
O2EC O 0.1808(3) 0.2691(2) 0.2691(2)
O2D O 0.2309(2) 0.2691(2) 0.3192(3)
Zn1U Zn 0.22383(3) 0.72383(3) 0.27617(3)
Zn1N Zn 0.27617(3) 0.72383(3) 0.22383(3)
Zn1D Zn 0.22383(3) 0.27617(3) 0.27617(3)
Zn1H Zn 0.27617(3) 0.22383(3) 0.27617(3)
Zn1CA Zn 0.22383(3) 0.22383(3) 0.22383(3)
Zn1Q Zn 0.72383(3) 0.22383(3) 0.27617(3)
Zn1O Zn 0.72383(3) 0.27617(3) 0.22383(3)
Zn1SA Zn 0.22383(3) 0.22383(3) -0.22383(3)
Zn1L Zn 0.27617(3) 0.27617(3) -0.22383(3)
loop_
_geom_bond_atom_site_label_1
_geom_bond_atom_site_label_2
_geom_bond_site_symmetry_1
_geom_bond_site_symmetry_2
C1 C2 1_555 1_555
C2 C3 1_555 1_555
C3 H1 1_555 1_555
C4 C3 1_555 1_555
H2 C4 1_555 1_555
C5 C4 1_555 1_555
C6 C5 1_555 1_555
C7 C6 1_555 1_555
C8 H3 1_555 1_555
C9 H4 1_555 1_555
H5 C9 1_555 1_555
H6 C9 1_555 1_555
N1 C7 1_555 1_555
O1 Zn1 1_555 1_555
O2 C1 1_555 1_555
Zn1 O2 1_555 1_555
C1U C2U 1_555 1_555
C1H C2H 1_555 1_555
C1O C2O 1_555 1_555
C1CA C2CA 1_555 1_555
C1QA C2QA 1_555 1_555
C2U C3U 1_555 1_555
C2H C3HA 1_555 1_555
C2O C3KA 1_555 1_555
C2CA C3CB 1_555 1_555
C2QA C3MB 1_555 1_555
C3XA C2 1_555 1_555
C3U H1U 1_555 1_555
C3SB C2U 1_555 1_555
C3HA H1HA 1_555 1_555
C3H C2H 1_555 1_555
C3KA H1KA 1_555 1_555
C3O C2O 1_555 1_555
C3CB H1CB 1_555 1_555
C3CA C2CA 1_555 1_555
C3MB H1MB 1_555 1_555
C3QA C2QA 1_555 1_555
H1XA C3XA 1_555 1_555
H1SB C3SB 1_555 1_555
H1H C3H 1_555 1_555
H1O C3O 1_555 1_555
H1CA C3CA 1_555 1_555
H1QA C3QA 1_555 1_555
C4XA C5 1_555 1_555
C4U C3U 1_555 1_555
C4SB C3SB 1_555 1_555
C4HA C3HA 1_555 1_555
C4H C3H 1_555 1_555
C4KA C3KA 1_555 1_555
C4O C3O 1_555 1_555
C4CB C3CB 1_555 1_555
C4CA C3CA 1_555 1_555
C4MB C3MB 1_555 1_555
C4QA C3QA 1_555 1_555
H2XA C4XA 1_555 1_555
H2SB C4SB 1_555 1_555
H2U C4U 1_555 1_555
H2HA C4HA 1_555 1_555
H2H C4H 1_555 1_555
H2O C4O 1_555 1_555
H2KA C4KA 1_555 1_555
H2CB C4CB 1_555 1_555
H2CA C4CA 1_555 1_555
H2QA C4QA 1_555 1_555
H2MB C4MB 1_555 1_555
C5U C4U 1_555 1_555
C5H C4HA 1_555 1_555
C5O C4KA 1_555 1_555
C5CA C4CB 1_555 1_555
C5QA C4MB 1_555 1_555
C6U C5U 1_555 1_555
C6H C5H 1_555 1_555
C6O C5O 1_555 1_555
C6CA C5CA 1_555 1_555
C6QA C5QA 1_555 1_555
C7U C7 1_555 1_555
C7SB C6U 1_555 1_555
C7XA C6 1_555 1_555
C7HA C6H 1_555 1_555
C7KA C6O 1_555 1_555
C7O C6O 1_555 1_555
C7H C6H 1_555 1_555
C7CB C6CA 1_555 1_555
C7MB C6QA 1_555 1_555
C7QA C6QA 1_555 1_555
C7CA C6CA 1_555 1_555
C8XA H3XA 1_555 1_555
C8HA H3HA 1_555 1_555
C8H H3H 1_555 1_555
C8CB H3CB 1_555 1_555
C8CA H3CA 1_555 1_555
C9XA H4XA 1_555 1_555
C9SB H4SB 1_555 1_555
C9U H4U 1_555 1_555
C9HA H4HA 1_555 1_555
C9H H4H 1_555 1_555
C9O H4O 1_555 1_555
C9KA H4KA 1_555 1_555
C9CB H4CB 1_555 1_555
C9CA H4CA 1_555 1_555
C9QA H4QA 1_555 1_555
C9MB H4MB 1_555 1_555
H5XA C9XA 1_555 1_555
H5SB C9SB 1_555 1_555
H5U C9U 1_555 1_555
H5HA C9HA 1_555 1_555
H5H C9H 1_555 1_555
H5O C9O 1_555 1_555
H5KA C9KA 1_555 1_555
H5CB C9CB 1_555 1_555
H5CA C9CA 1_555 1_555
H5QA C9QA 1_555 1_555
H5MB C9MB 1_555 1_555
H6XA C9XA 1_555 1_555
H6SB C9SB 1_555 1_555
H6U C9U 1_555 1_555
H6HA C9HA 1_555 1_555
H6H C9H 1_555 1_555
H6O C9O 1_555 1_555
H6KA C9KA 1_555 1_555
H6CB C9CB 1_555 1_555
H6CA C9CA 1_555 1_555
H6QA C9QA 1_555 1_555
H6MB C9MB 1_555 1_555
N1U C8 1_555 1_555
N1SB C7SB 1_555 1_555
N1XA C7XA 1_555 1_555
N1HA C7HA 1_555 1_555
N1KA C7KA 1_555 1_555
N1O C7O 1_555 1_555
N1H C7H 1_555 1_555
N1CB C7CB 1_555 1_555
N1MB C7MB 1_555 1_555
N1QA C7QA 1_555 1_555
N1CA C7CA 1_555 1_555
O1N Zn1U 1_555 1_555
O2U C1U 1_555 1_555
O2SB C1U 1_555 1_555
O2XA C1 1_555 1_555
O2HA Zn1 1_555 1_555
O2KA C1O 1_555 1_555
O2O C1O 1_555 1_555
O2H C1H 1_555 1_555
O2CB Zn1 1_555 1_555
O2MB C1QA 1_555 1_555
O2QA C1QA 1_555 1_555
O2CA C1CA 1_555 1_555
O2KC Zn1U 1_555 1_555
O2IB Zn1U 1_555 1_555
O2NA Zn1N 1_555 1_555
O2N Zn1N 1_555 1_555
O2EC Zn1D 1_555 1_555
O2D Zn1D 1_555 1_555
Zn1U O2U 1_555 1_555
Zn1N O1N 1_555 1_555
Zn1D O1 1_555 1_555
Zn1H O1 1_555 1_555
Zn1CA O1 1_555 1_555
Zn1Q O2KA 1_555 1_555
Zn1O O2O 1_555 1_555
Zn1SA O2MB 1_555 1_555
Zn1L O2QA 1_555 1_555
C8 N1 1_555 1_555
C9 N1 1_555 1_555
C1H O2HA 1_555 1_555
C1CA O2CB 1_555 1_555
C3XA C4XA 1_555 1_555
C4SB C5U 1_555 1_555
C4H C5H 1_555 1_555
C4O C5O 1_555 1_555
C4CA C5CA 1_555 1_555
C4QA C5QA 1_555 1_555
C6U C7U 1_555 1_555
C7U N1U 1_555 1_555
C7SB C7XA 1_555 1_555
C7HA C7KA 1_555 1_555
C7O C7H 1_555 1_555
C7CB C7MB 1_555 1_555
C7QA C7CA 1_555 1_555
C8XA N1SB 1_555 1_555
C8XA N1XA 1_555 1_555
C8HA N1HA 1_555 1_555
C8HA N1KA 1_555 1_555
C8H N1O 1_555 1_555
C8H N1H 1_555 1_555
C8CB N1CB 1_555 1_555
C8CB N1MB 1_555 1_555
C8CA N1QA 1_555 1_555
C8CA N1CA 1_555 1_555
C9XA N1XA 1_555 1_555
C9SB N1SB 1_555 1_555
C9U N1U 1_555 1_555
C9HA N1HA 1_555 1_555
C9H N1H 1_555 1_555
C9O N1O 1_555 1_555
C9KA N1KA 1_555 1_555
C9CB N1CB 1_555 1_555
C9CA N1CA 1_555 1_555
C9QA N1QA 1_555 1_555
C9MB N1MB 1_555 1_555
O2SB Zn1N 1_555 1_555
O2XA Zn1D 1_555 1_555
O2H Zn1H 1_555 1_555
O2CA Zn1CA 1_555 1_555

#END
