
#######################################################################
#
#                 Cambridge Crystallographic Data Centre
#                                CCDC 
#
#######################################################################
#
# If this CIF has been generated from an entry in the Cambridge 
# Structural Database, then it will include bibliographic, chemical, 
# crystal, experimental, refinement or atomic coordinate data resulting 
# from the CCDC's data processing and validation procedures.
#
#######################################################################

data_RUTPIG
_symmetry_cell_setting           triclinic
_symmetry_space_group_name_H-M   'P -1'
_symmetry_Int_Tables_number      2
_space_group_name_Hall           '-P 1'
loop_
_symmetry_equiv_pos_site_id
_symmetry_equiv_pos_as_xyz
1 x,y,z
2 -x,-y,-z
_cell_length_a                   11.6601(7)
_cell_length_b                   12.8251(8)
_cell_length_c                   17.2197(10)
_cell_angle_alpha                96.3180(10)
_cell_angle_beta                 104.6820(10)
_cell_angle_gamma                106.9090(10)
_cell_volume                     2335.84
loop_
_atom_site_label
_atom_site_type_symbol
_atom_site_fract_x
_atom_site_fract_y
_atom_site_fract_z
Mo1 Mo 1.09977(3) 0.10496(3) 0.293089(18)
Mo2 Mo 1.35902(3) 0.29424(3) 0.317975(19)
Mo3 Mo 1.19857(3) 0.47309(2) 0.279248(18)
Mo4 Mo 0.93490(3) 0.28118(3) 0.248876(19)
Cu1 Cu 0.61853(4) -0.41231(4) 0.20257(3)
Cu2 Cu 0.87583(4) -0.17823(4) 0.21149(3)
P1 P 1.13471(9) 0.24624(8) 0.13710(5)
P2 P 0.82266(8) -0.39243(7) 0.09864(5)
F1 F 1.1604(2) 0.29917(17) 0.33393(13)
O1 O 1.0612(2) -0.0288(2) 0.23964(16)
O2 O 0.9637(2) 0.1423(2) 0.23056(15)
O3 O 0.8725(3) 0.2598(2) 0.32769(18)
O4 O 0.8113(3) 0.2709(2) 0.16767(17)
O5 O 1.0287(2) 0.4346(2) 0.28567(16)
O6 O 1.2711(2) 0.5489(2) 0.37637(16)
O7 O 1.2069(2) 0.5691(2) 0.21863(16)
O8 O 1.3269(2) 0.4124(2) 0.26867(15)
O9 O 1.4719(2) 0.2695(2) 0.27926(16)
O10 O 1.4376(2) 0.3651(2) 0.41593(16)
O11 O 1.2771(2) 0.1531(2) 0.34179(15)
O12 O 1.0564(3) 0.0869(2) 0.37943(16)
O13 O 1.1929(2) 0.1894(2) 0.20490(14)
O14 O 1.0793(2) 0.3273(2) 0.17663(15)
O15 O 1.2308(2) 0.3019(2) 0.09721(15)
O16 O 0.9100(2) -0.2721(2) 0.13134(15)
O17 O 0.7288(2) -0.4038(2) 0.01305(15)
H1 H 0.7667 -0.3656 -0.0151
O18 O 0.7454(2) -0.4353(2) 0.15389(15)
O19 O 0.4930(2) -0.5884(2) 0.15778(16)
N1 N 0.4890(3) 0.3467(2) 0.87885(18)
N2 N 0.4526(3) 0.3410(2) 0.72505(18)
N3 N 0.2975(3) 0.4448(2) 0.68843(18)
N4 N 0.7631(3) -0.1158(2) 0.13429(18)
N5 N 0.8124(3) -0.1074(2) 0.28788(18)
N6 N 0.9571(3) -0.2226(2) 0.31483(18)
C1 C 0.5101(3) 0.3601(3) 0.9600(2)
H2 H 0.4650 0.3979 0.9843
C2 C 0.5949(4) 0.3214(3) 1.0100(2)
H3 H 0.6060 0.3308 1.0673
C3 C 0.6629(4) 0.2690(3) 0.9753(2)
H4 H 0.7237 0.2439 1.0085
C4 C 0.6415(3) 0.2534(3) 0.8914(2)
H5 H 0.6858 0.2156 0.8662
C5 C 0.5548(3) 0.2936(3) 0.8447(2)
C6 C 0.2175(4) 0.5013(3) 0.6764(2)
H6 H 0.1910 0.5247 0.7211
C7 C 0.1712(4) 0.5274(3) 0.6019(2)
H7 H 0.1134 0.5672 0.5951
C8 C 0.2112(4) 0.4943(3) 0.5372(2)
H8 H 0.1809 0.5114 0.4852
C9 C 0.2955(4) 0.4360(3) 0.5482(2)
H9 H 0.3248 0.4137 0.5046
C10 C 0.3359(3) 0.4112(3) 0.6246(2)
C11 C 0.5288(3) 0.2858(3) 0.7552(2)
C12 C 0.5768(3) 0.2292(3) 0.7049(2)
H10 H 0.6303 0.1894 0.7271
C13 C 0.5454(3) 0.2317(3) 0.6213(2)
C14 C 0.4656(3) 0.2915(3) 0.5911(2)
H11 H 0.4421 0.2946 0.5346
C15 C 0.4219(3) 0.3460(3) 0.6455(2)
C16 C 0.5954(3) 0.1738(3) 0.5652(2)
C17 C 0.6337(3) 0.0835(3) 0.5829(2)
H12 H 0.6295 0.0594 0.6326
C18 C 0.6777(3) 0.0281(3) 0.5296(2)
H13 H 0.7035 -0.0331 0.5432
C19 C 0.6846(3) 0.0614(3) 0.4561(2)
C20 C 0.6480(3) 0.1530(3) 0.4382(2)
H14 H 0.6533 0.1776 0.3887
C21 C 0.6040(3) 0.2082(3) 0.4922(2)
H15 H 0.5795 0.2702 0.4791
C22 C 0.7304(3) 0.0021(3) 0.3976(2)
C23 C 0.8075(3) -0.0602(3) 0.4236(2)
H16 H 0.8330 -0.0650 0.4797
C24 C 0.8464(3) -0.1150(3) 0.3668(2)
C25 C 0.7400(3) -0.0465(3) 0.2611(2)
C26 C 0.6960(3) 0.0088(3) 0.3145(2)
H17 H 0.6434 0.0507 0.2952
C27 C 0.9300(3) -0.1830(3) 0.3825(2)
C28 C 0.9774(3) -0.2060(3) 0.4582(2)
H18 H 0.9564 -0.1789 0.5045
C29 C 1.0564(3) -0.2696(3) 0.4653(2)
H19 H 1.0899 -0.2870 0.5166
C30 C 1.0859(4) -0.3074(3) 0.3971(2)
H20 H 1.1411 -0.3496 0.4013
C31 C 1.0342(3) -0.2829(3) 0.3229(2)
H21 H 1.0539 -0.3098 0.2760
C32 C 0.7163(3) -0.0469(3) 0.1727(2)
C33 C 0.6552(3) 0.0171(3) 0.1316(2)
H22 H 0.6233 0.0648 0.1596
C34 C 0.6411(4) 0.0106(3) 0.0483(2)
H23 H 0.6032 0.0569 0.0192
C35 C 0.6827(4) -0.0638(3) 0.0083(2)
H24 H 0.6692 -0.0727 -0.0491
C36 C 0.7445(4) -0.1251(3) 0.0536(2)
H25 H 0.7744 -0.1753 0.0264
C37 C 0.9169(3) -0.4774(3) 0.0832(2)
H26 H 0.9910 -0.4581 0.1322
H27 H 0.8670 -0.5565 0.0772
C38 C 0.9620(4) -0.4629(3) 0.0072(2)
H28 H 0.8880 -0.4800 -0.0416
H29 H 1.0140 -0.3843 0.0139
C39 C 1.0070(3) 0.1418(3) 0.0600(2)
H30 H 0.9301 0.1275 0.0774
H31 H 0.9911 0.1699 0.0083
C40 C 1.0341(3) 0.0320(3) 0.0441(2)
H32 H 1.1257 0.0483 0.0549
H33 H 1.0069 -0.0150 0.0824
Mo1A Mo 0.90023(3) -0.10496(3) -0.293089(18)
Mo2A Mo 0.64098(3) -0.29424(3) -0.317975(19)
Mo3A Mo 0.80143(3) -0.47309(2) -0.279248(18)
Mo4A Mo 1.06510(3) -0.28118(3) -0.248876(19)
Cu1A Cu 1.38147(4) -0.58769(4) -0.20257(3)
Cu1A_2 Cu 0.38147(4) 0.41231(4) 0.79743(3)
Cu2A Cu 1.12417(4) 0.17823(4) -0.21149(3)
Cu2A_2 Cu 1.12417(4) -0.82177(4) -0.21149(3)
Cu2A_3 Cu 0.12417(4) 0.17823(4) 0.78851(3)
P1A P 0.86529(9) -0.24624(8) -0.13710(5)
P2A P 1.17734(8) -0.60757(7) -0.09864(5)
F1A F 0.8396(2) -0.29917(17) -0.33393(13)
O1A O 0.9388(2) 0.0288(2) -0.23964(16)
O2A O 1.0363(2) -0.1423(2) -0.23056(15)
O3A O 1.1275(3) -0.2598(2) -0.32769(18)
O4A O 1.1887(3) -0.2709(2) -0.16767(17)
O5A O 0.9713(2) -0.4346(2) -0.28567(16)
O6A O 0.7289(2) -0.5489(2) -0.37637(16)
O7A O 0.7931(2) -0.5691(2) -0.21863(16)
O8A O 0.6731(2) -0.4124(2) -0.26867(15)
O9A O 0.5281(2) -0.2695(2) -0.27926(16)
O10A O 0.5624(2) -0.3651(2) -0.41593(16)
O11A O 0.7229(2) -0.1531(2) -0.34179(15)
O12A O 0.9436(3) -0.0869(2) -0.37943(16)
O13A O 0.8071(2) -0.1894(2) -0.20490(14)
O14A O 0.9207(2) -0.3273(2) -0.17663(15)
O15A O 0.7692(2) -0.3019(2) -0.09721(15)
O16A O 1.0900(2) -0.7279(2) -0.13134(15)
O16A_2 O 1.0900(2) 0.2721(2) -0.13134(15)
O17A O 1.2712(2) -0.5962(2) -0.01305(15)
H1A H 1.2333 -0.6344 0.0151
O18A O 1.2546(2) -0.5647(2) -0.15389(15)
O19A O 1.5070(2) -0.4116(2) -0.15778(16)
N1A N 0.5110(3) -0.3467(2) 0.12115(18)
N1_2 N 1.4890(3) -0.6533(2) -0.12115(18)
N2A N 0.5474(3) -0.3410(2) 0.27495(18)
N2_2 N 1.4526(3) -0.6590(2) -0.27495(18)
N3A N 0.7025(3) -0.4448(2) 0.31157(18)
N3_2 N 1.2975(3) -0.5552(2) -0.31157(18)
N4A N 0.2369(3) 0.1158(2) 0.86571(18)
N4A_2 N 1.2369(3) 0.1158(2) -0.13429(18)
N5A N 0.1876(3) 0.1074(2) 0.71212(18)
N5A_2 N 1.1876(3) 0.1074(2) -0.28788(18)
N6A N 0.0429(3) 0.2226(2) 0.68517(18)
N6A_2 N 1.0429(3) 0.2226(2) -0.31483(18)
C1A C 0.4899(3) -0.3601(3) 0.0400(2)
H2A H 0.5350 -0.3979 0.0157
C2A C 0.4051(4) -0.3214(3) -0.0100(2)
H3A H 0.3940 -0.3308 -0.0673
C3A C 0.3371(4) -0.2690(3) 0.0247(2)
H4A H 0.2763 -0.2439 -0.0085
C4A C 0.3585(3) -0.2534(3) 0.1086(2)
H5A H 0.3142 -0.2156 0.1338
C5A C 0.4452(3) -0.2936(3) 0.1553(2)
C6A C 0.7825(4) -0.5013(3) 0.3236(2)
H6A H 0.8090 -0.5247 0.2789
C7A C 0.8288(4) -0.5274(3) 0.3981(2)
H7A H 0.8866 -0.5672 0.4049
C8A C 0.7888(4) -0.4943(3) 0.4628(2)
H8A H 0.8191 -0.5114 0.5148
C9A C 0.7045(4) -0.4360(3) 0.4518(2)
H9A H 0.6752 -0.4137 0.4954
C10A C 0.6641(3) -0.4112(3) 0.3754(2)
C11A C 0.4712(3) -0.2858(3) 0.2448(2)
C12A C 0.4232(3) -0.2292(3) 0.2951(2)
H10A H 0.3697 -0.1894 0.2729
C13A C 0.4546(3) -0.2317(3) 0.3787(2)
C14A C 0.5344(3) -0.2915(3) 0.4089(2)
H11A H 0.5579 -0.2946 0.4654
C15A C 0.5781(3) -0.3460(3) 0.3545(2)
C16A C 0.4046(3) -0.1738(3) 0.4348(2)
C17A C 0.3663(3) -0.0835(3) 0.4171(2)
H12A H 0.3705 -0.0594 0.3674
C18A C 0.3223(3) -0.0281(3) 0.4704(2)
H13A H 0.2965 0.0331 0.4568
C19A C 0.3154(3) -0.0614(3) 0.5439(2)
C20A C 0.3520(3) -0.1530(3) 0.5618(2)
H14A H 0.3467 -0.1776 0.6113
C21A C 0.3960(3) -0.2082(3) 0.5078(2)
H15A H 0.4205 -0.2702 0.5209
C22A C 0.2696(3) -0.0021(3) 0.6024(2)
C23A C 0.1925(3) 0.0602(3) 0.5764(2)
H16A H 0.1670 0.0650 0.5203
C24A C 0.1536(3) 0.1150(3) 0.6332(2)
C25A C 0.2600(3) 0.0465(3) 0.7389(2)
C26A C 0.3040(3) -0.0088(3) 0.6855(2)
H17A H 0.3566 -0.0507 0.7048
C27A C 0.0700(3) 0.1830(3) 0.6175(2)
C28A C 0.0226(3) 0.2060(3) 0.5418(2)
H18A H 0.0436 0.1789 0.4955
C29A C -0.0564(3) 0.2696(3) 0.5347(2)
H19A H -0.0899 0.2870 0.4834
C30A C -0.0859(4) 0.3074(3) 0.6029(2)
H20A H -0.1411 0.3496 0.5987
C31A C -0.0342(3) 0.2829(3) 0.6771(2)
H21A H -0.0539 0.3098 0.7240
C32A C 0.2837(3) 0.0469(3) 0.8273(2)
C33A C 0.3448(3) -0.0171(3) 0.8684(2)
H22A H 0.3767 -0.0648 0.8404
C34A C 0.3589(4) -0.0106(3) 0.9517(2)
H23A H 0.3968 -0.0569 0.9808
C35A C 0.3173(4) 0.0638(3) 0.9917(2)
H24A H 0.3308 0.0727 1.0491
C36A C 0.2555(4) 0.1251(3) 0.9464(2)
H25A H 0.2256 0.1753 0.9736
C37A C 1.0831(3) -0.5226(3) -0.0832(2)
H26A H 1.0090 -0.5419 -0.1322
H27A H 1.1330 -0.4435 -0.0772
C38A C 1.0380(4) -0.5371(3) -0.0072(2)
H28A H 1.1120 -0.5200 0.0416
H29A H 0.9860 -0.6157 -0.0139
C39A C 0.9930(3) -0.1418(3) -0.0600(2)
H30A H 1.0699 -0.1275 -0.0774
H31A H 1.0089 -0.1699 -0.0083
C40A C 0.9659(3) -0.0320(3) -0.0441(2)
H32A H 0.8743 -0.0483 -0.0549
H33A H 0.9931 0.0150 -0.0824
O20 O 0.4091(5) 0.0331(4) 0.1979(3)
O21 O 0.1796(4) 0.8517(4) 0.1753(3)
loop_
_geom_bond_atom_site_label_1
_geom_bond_atom_site_label_2
_geom_bond_site_symmetry_1
_geom_bond_site_symmetry_2
Mo1 F1 1_555 1_555
Mo2 F1 1_555 1_555
Mo3 F1 1_555 1_555
Mo4 F1 1_555 1_555
Cu1 O18 1_555 1_555
Cu2 O1 1_555 1_555
P1 O13 1_555 1_555
P2 O16 1_555 1_555
O1 Mo1 1_555 1_555
O2 Mo1 1_555 1_555
O3 Mo4 1_555 1_555
O4 Mo4 1_555 1_555
O5 Mo3 1_555 1_555
O6 Mo3 1_555 1_555
O7 Mo3 1_555 1_555
O8 Mo2 1_555 1_555
O9 Mo2 1_555 1_555
O10 Mo2 1_555 1_555
O11 Mo1 1_555 1_555
O12 Mo1 1_555 1_555
O13 Mo1 1_555 1_555
O14 Mo3 1_555 1_555
O15 P1 1_555 1_555
O16 Cu2 1_555 1_555
O17 P2 1_555 1_555
H1 O17 1_555 1_555
O18 P2 1_555 1_555
O19 Cu1 1_555 1_555
N1 C1 1_555 1_555
N2 C11 1_555 1_555
N3 C6 1_555 1_555
N4 Cu2 1_555 1_555
N5 Cu2 1_555 1_555
N6 Cu2 1_555 1_555
C1 H2 1_555 1_555
C2 C1 1_555 1_555
H3 C2 1_555 1_555
C3 C2 1_555 1_555
H4 C3 1_555 1_555
C4 C3 1_555 1_555
H5 C4 1_555 1_555
C5 N1 1_555 1_555
C6 H6 1_555 1_555
C7 C6 1_555 1_555
H7 C7 1_555 1_555
C8 C7 1_555 1_555
H8 C8 1_555 1_555
C9 C8 1_555 1_555
H9 C9 1_555 1_555
C10 N3 1_555 1_555
C11 C5 1_555 1_555
C12 C11 1_555 1_555
H10 C12 1_555 1_555
C13 C12 1_555 1_555
C14 C13 1_555 1_555
H11 C14 1_555 1_555
C15 N2 1_555 1_555
C16 C13 1_555 1_555
C17 C16 1_555 1_555
H12 C17 1_555 1_555
C18 C17 1_555 1_555
H13 C18 1_555 1_555
C19 C18 1_555 1_555
C20 C19 1_555 1_555
H14 C20 1_555 1_555
C21 C16 1_555 1_555
H15 C21 1_555 1_555
C22 C19 1_555 1_555
C23 C22 1_555 1_555
H16 C23 1_555 1_555
C24 N5 1_555 1_555
C25 N5 1_555 1_555
C26 C22 1_555 1_555
H17 C26 1_555 1_555
C27 N6 1_555 1_555
C28 C27 1_555 1_555
H18 C28 1_555 1_555
C29 C28 1_555 1_555
H19 C29 1_555 1_555
C30 C29 1_555 1_555
H20 C30 1_555 1_555
C31 N6 1_555 1_555
H21 C31 1_555 1_555
C32 N4 1_555 1_555
C33 C32 1_555 1_555
H22 C33 1_555 1_555
C34 C33 1_555 1_555
H23 C34 1_555 1_555
C35 C34 1_555 1_555
H24 C35 1_555 1_555
C36 N4 1_555 1_555
H25 C36 1_555 1_555
C37 P2 1_555 1_555
H26 C37 1_555 1_555
H27 C37 1_555 1_555
C38 C37 1_555 1_555
H28 C38 1_555 1_555
H29 C38 1_555 1_555
C39 P1 1_555 1_555
H30 C39 1_555 1_555
H31 C39 1_555 1_555
C40 C39 1_555 1_555
H32 C40 1_555 1_555
H33 C40 1_555 1_555
Mo1A F1A 1_555 1_555
Mo2A F1A 1_555 1_555
Mo3A F1A 1_555 1_555
Mo4A F1A 1_555 1_555
Cu1A O18A 1_555 1_555
Cu1A_2 N1 1_555 1_555
Cu2A O1A 1_555 1_555
Cu2A_2 O16A 1_555 1_555
Cu2A_3 N4A 1_555 1_555
P1A O13A 1_555 1_555
P2A O16A 1_555 1_555
O1A Mo1A 1_555 1_555
O2A Mo1A 1_555 1_555
O3A Mo4A 1_555 1_555
O4A Mo4A 1_555 1_555
O5A Mo3A 1_555 1_555
O6A Mo3A 1_555 1_555
O7A Mo3A 1_555 1_555
O8A Mo2A 1_555 1_555
O9A Mo2A 1_555 1_555
O10A Mo2A 1_555 1_555
O11A Mo1A 1_555 1_555
O12A Mo1A 1_555 1_555
O13A Mo1A 1_555 1_555
O14A Mo3A 1_555 1_555
O15A P1A 1_555 1_555
O16A_2 Cu2A 1_555 1_555
O17A P2A 1_555 1_555
H1A O17A 1_555 1_555
O18A P2A 1_555 1_555
O19A Cu1A 1_555 1_555
N1A Cu1 1_555 1_555
N1_2 Cu1A 1_555 1_555
N2A Cu1 1_555 1_555
N2_2 Cu1A 1_555 1_555
N3A Cu1 1_555 1_555
N3_2 Cu1A 1_555 1_555
N4A C32A 1_555 1_555
N4A_2 Cu2A 1_555 1_555
N5A Cu2A_3 1_555 1_555
N5A_2 Cu2A 1_555 1_555
N6A Cu2A_3 1_555 1_555
N6A_2 Cu2A 1_555 1_555
C1A N1A 1_555 1_555
H2A C1A 1_555 1_555
C2A C1A 1_555 1_555
H3A C2A 1_555 1_555
C3A C2A 1_555 1_555
H4A C3A 1_555 1_555
C4A C3A 1_555 1_555
H5A C4A 1_555 1_555
C5A N1A 1_555 1_555
C6A N3A 1_555 1_555
H6A C6A 1_555 1_555
C7A C6A 1_555 1_555
H7A C7A 1_555 1_555
C8A C7A 1_555 1_555
H8A C8A 1_555 1_555
C9A C8A 1_555 1_555
H9A C9A 1_555 1_555
C10A N3A 1_555 1_555
C11A N2A 1_555 1_555
C12A C11A 1_555 1_555
H10A C12A 1_555 1_555
C13A C12A 1_555 1_555
C14A C13A 1_555 1_555
H11A C14A 1_555 1_555
C15A N2A 1_555 1_555
C16A C13A 1_555 1_555
C17A C16A 1_555 1_555
H12A C17A 1_555 1_555
C18A C17A 1_555 1_555
H13A C18A 1_555 1_555
C19A C18A 1_555 1_555
C20A C19A 1_555 1_555
H14A C20A 1_555 1_555
C21A C16A 1_555 1_555
H15A C21A 1_555 1_555
C22A C19A 1_555 1_555
C23A C22A 1_555 1_555
H16A C23A 1_555 1_555
C24A N5A 1_555 1_555
C25A N5A 1_555 1_555
C26A C22A 1_555 1_555
H17A C26A 1_555 1_555
C27A N6A 1_555 1_555
C28A C27A 1_555 1_555
H18A C28A 1_555 1_555
C29A C28A 1_555 1_555
H19A C29A 1_555 1_555
C30A C29A 1_555 1_555
H20A C30A 1_555 1_555
C31A N6A 1_555 1_555
H21A C31A 1_555 1_555
C32A C25A 1_555 1_555
C33A C32A 1_555 1_555
H22A C33A 1_555 1_555
C34A C33A 1_555 1_555
H23A C34A 1_555 1_555
C35A C34A 1_555 1_555
H24A C35A 1_555 1_555
C36A N4A 1_555 1_555
H25A C36A 1_555 1_555
C37A P2A 1_555 1_555
H26A C37A 1_555 1_555
H27A C37A 1_555 1_555
C38A C38 1_555 1_555
H28A C38A 1_555 1_555
H29A C38A 1_555 1_555
C39A P1A 1_555 1_555
H30A C39A 1_555 1_555
H31A C39A 1_555 1_555
C40A C40 1_555 1_555
H32A C40A 1_555 1_555
H33A C40A 1_555 1_555
Mo2 O11 1_555 1_555
Mo2 O13 1_555 1_555
Mo3 O8 1_555 1_555
Mo4 O2 1_555 1_555
Mo4 O5 1_555 1_555
Mo4 O14 1_555 1_555
P1 O14 1_555 1_555
N2 Cu1A_2 1_555 1_555
N3 Cu1A_2 1_555 1_555
C4 C5 1_555 1_555
C9 C10 1_555 1_555
C10 C15 1_555 1_555
C14 C15 1_555 1_555
C20 C21 1_555 1_555
C23 C24 1_555 1_555
C24 C27 1_555 1_555
C25 C26 1_555 1_555
C25 C32 1_555 1_555
C30 C31 1_555 1_555
C35 C36 1_555 1_555
Mo2A O11A 1_555 1_555
Mo2A O13A 1_555 1_555
Mo3A O8A 1_555 1_555
Mo4A O2A 1_555 1_555
Mo4A O5A 1_555 1_555
Mo4A O14A 1_555 1_555
P1A O14A 1_555 1_555
C4A C5A 1_555 1_555
C5A C11A 1_555 1_555
C9A C10A 1_555 1_555
C10A C15A 1_555 1_555
C14A C15A 1_555 1_555
C20A C21A 1_555 1_555
C23A C24A 1_555 1_555
C24A C27A 1_555 1_555
C25A C26A 1_555 1_555
C30A C31A 1_555 1_555
C35A C36A 1_555 1_555
C37A C38A 1_555 1_555
C39A C40A 1_555 1_555

#END
