
#######################################################################
#
#                 Cambridge Crystallographic Data Centre
#                                CCDC 
#
#######################################################################
#
# If this CIF has been generated from an entry in the Cambridge 
# Structural Database, then it will include bibliographic, chemical, 
# crystal, experimental, refinement or atomic coordinate data resulting 
# from the CCDC's data processing and validation procedures.
#
#######################################################################

data_RUTREE
_symmetry_cell_setting           monoclinic
_symmetry_space_group_name_H-M   'P 21/n'
_symmetry_Int_Tables_number      14
_space_group_name_Hall           '-P 2yn'
loop_
_symmetry_equiv_pos_site_id
_symmetry_equiv_pos_as_xyz
1 x,y,z
2 1/2-x,1/2+y,1/2-z
3 -x,-y,-z
4 1/2+x,1/2-y,1/2+z
_cell_length_a                   8.5551(2)
_cell_length_b                   19.8351(6)
_cell_length_c                   13.6130(4)
_cell_angle_alpha                90
_cell_angle_beta                 91.5750(10)
_cell_angle_gamma                90
_cell_volume                     2309.13
loop_
_atom_site_label
_atom_site_type_symbol
_atom_site_fract_x
_atom_site_fract_y
_atom_site_fract_z
K1 K 0.04580(4) 0.204420(17) 0.43002(2)
O1 O 0.26890(13) 0.28019(5) 0.33111(8)
O2 O 0.36213(13) 0.15880(5) 0.42323(8)
O3 O 0.13056(12) 0.08045(5) 0.52123(8)
O4 O -0.14405(13) 0.15128(6) 0.58627(8)
O5 O -0.23056(13) 0.27501(6) 0.49293(8)
O6 O 0.01501(12) 0.35259(6) 0.41715(8)
C1 C 0.42641(18) 0.25493(9) 0.32789(12)
H1 H 0.4887 0.2724 0.3847
H2 H 0.4758 0.2704 0.2670
C2 C 0.42375(19) 0.17938(9) 0.33066(12)
H3 H 0.3572 0.1617 0.2758
H4 H 0.5308 0.1614 0.3238
C3 C 0.37295(19) 0.08762(8) 0.43979(12)
H5 H 0.4839 0.0735 0.4431
H6 H 0.3194 0.0629 0.3854
C4 C 0.29608(19) 0.07234(8) 0.53577(12)
H7 H 0.3204 0.0256 0.5566
H8 H 0.3354 0.1035 0.5876
C5 C 0.0468(2) 0.06418(9) 0.60798(12)
H9 H 0.0874 0.0912 0.6643
H10 H 0.0602 0.0158 0.6241
C6 C -0.1234(2) 0.07972(8) 0.58843(12)
H11 H -0.1582 0.0600 0.5247
H12 H -0.1871 0.0598 0.6407
C7 C -0.30240(19) 0.17019(9) 0.56303(12)
H13 H -0.3738 0.1482 0.6092
H14 H -0.3316 0.1554 0.4956
C8 C -0.3170(2) 0.24511(10) 0.57063(12)
H15 H -0.4284 0.2585 0.5646
H16 H -0.2749 0.2607 0.6352
C9 C -0.2289(2) 0.34694(9) 0.49846(13)
H17 H -0.1748 0.3615 0.5601
H18 H -0.3374 0.3643 0.4986
C10 C -0.1454(2) 0.37457(9) 0.41138(13)
H19 H -0.1962 0.3581 0.3497
H20 H -0.1502 0.4244 0.4116
C11 C 0.1002(2) 0.37694(9) 0.33497(12)
H21 H 0.0994 0.4269 0.3344
H22 H 0.0501 0.3608 0.2729
C12 C 0.2662(2) 0.35176(8) 0.34288(12)
H23 H 0.3291 0.3732 0.2915
H24 H 0.3127 0.3640 0.4078
N1 N -0.22022(15) 0.16680(7) 0.20294(9)
N2 N -0.15100(16) 0.22273(7) 0.24257(9)
N3 N -0.19312(17) 0.27419(7) 0.18738(10)
N4 N -0.28935(16) 0.25319(8) 0.11098(10)
C13 C -0.30269(19) 0.18735(9) 0.12309(11)
H25 H -0.3625 0.1585 0.0810
N5 N -0.04464(15) 0.06375(7) 0.20347(9)
N6 N 0.10000(16) 0.07469(8) 0.24460(10)
N7 N 0.20134(17) 0.04339(8) 0.19043(11)
N8 N 0.12585(17) 0.01166(7) 0.11296(11)
C14 C -0.0239(2) 0.02542(9) 0.12359(13)
H26 H -0.1058 0.0102 0.0805
B1 B -0.1970(2) 0.09429(10) 0.24690(14)
H27 H -0.296(2) 0.0623(9) 0.2223(13)
H28 H -0.1808(19) 0.0978(9) 0.3268(13)
K1C K -0.45420(4) 0.295580(17) -0.06998(2)
N4C N 0.21065(16) 0.24681(8) 0.61098(10)
loop_
_geom_bond_atom_site_label_1
_geom_bond_atom_site_label_2
_geom_bond_site_symmetry_1
_geom_bond_site_symmetry_2
K1 O1 1_555 1_555
O1 C1 1_555 1_555
O2 K1 1_555 1_555
O3 K1 1_555 1_555
O4 K1 1_555 1_555
O5 K1 1_555 1_555
O6 K1 1_555 1_555
C1 H1 1_555 1_555
H2 C1 1_555 1_555
C2 O2 1_555 1_555
H3 C2 1_555 1_555
H4 C2 1_555 1_555
C3 O2 1_555 1_555
H5 C3 1_555 1_555
H6 C3 1_555 1_555
C4 O3 1_555 1_555
H7 C4 1_555 1_555
H8 C4 1_555 1_555
C5 O3 1_555 1_555
H9 C5 1_555 1_555
H10 C5 1_555 1_555
C6 O4 1_555 1_555
H11 C6 1_555 1_555
H12 C6 1_555 1_555
C7 O4 1_555 1_555
H13 C7 1_555 1_555
H14 C7 1_555 1_555
C8 O5 1_555 1_555
H15 C8 1_555 1_555
H16 C8 1_555 1_555
C9 O5 1_555 1_555
H17 C9 1_555 1_555
H18 C9 1_555 1_555
C10 O6 1_555 1_555
H19 C10 1_555 1_555
H20 C10 1_555 1_555
C11 O6 1_555 1_555
H21 C11 1_555 1_555
H22 C11 1_555 1_555
C12 O1 1_555 1_555
H23 C12 1_555 1_555
H24 C12 1_555 1_555
N1 N2 1_555 1_555
N2 K1 1_555 1_555
N3 N2 1_555 1_555
N4 N3 1_555 1_555
C13 N1 1_555 1_555
H25 C13 1_555 1_555
N5 N6 1_555 1_555
N6 N7 1_555 1_555
N7 N8 1_555 1_555
N8 C14 1_555 1_555
C14 N5 1_555 1_555
H26 C14 1_555 1_555
B1 N1 1_555 1_555
H27 B1 1_555 1_555
H28 B1 1_555 1_555
K1C N4 1_555 1_555
N4C K1 1_555 1_555
C1 C2 1_555 1_555
C3 C4 1_555 1_555
C5 C6 1_555 1_555
C7 C8 1_555 1_555
C9 C10 1_555 1_555
C11 C12 1_555 1_555
N4 C13 1_555 1_555
N5 B1 1_555 1_555

#END
