
#######################################################################
#
#                 Cambridge Crystallographic Data Centre
#                                CCDC 
#
#######################################################################
#
# If this CIF has been generated from an entry in the Cambridge 
# Structural Database, then it will include bibliographic, chemical, 
# crystal, experimental, refinement or atomic coordinate data resulting 
# from the CCDC's data processing and validation procedures.
#
#######################################################################

data_RUVBUG
_symmetry_cell_setting           orthorhombic
_symmetry_space_group_name_H-M   'P c c n'
_symmetry_Int_Tables_number      56
_space_group_name_Hall           '-P 2ab 2ac'
loop_
_symmetry_equiv_pos_site_id
_symmetry_equiv_pos_as_xyz
1 x,y,z
2 1/2-x,1/2-y,z
3 1/2+x,-y,1/2-z
4 -x,1/2+y,1/2-z
5 -x,-y,-z
6 1/2+x,1/2+y,-z
7 1/2-x,y,1/2+z
8 x,1/2-y,1/2+z
_cell_length_a                   9.0157(18)
_cell_length_b                   14.080(3)
_cell_length_c                   22.688(5)
_cell_angle_alpha                90
_cell_angle_beta                 90
_cell_angle_gamma                90
_cell_volume                     2880.04
loop_
_atom_site_label
_atom_site_type_symbol
_atom_site_fract_x
_atom_site_fract_y
_atom_site_fract_z
Ni1 Ni 0.2500 0.2500 0.03762(3)
P1 P 0.27070(12) 0.48251(8) 0.03100(4)
O1 O 0.1104(7) 0.6290(4) 0.3348(2)
O2 O -0.0573(5) 0.5197(3) 0.31812(16)
O3 O 0.3088(4) 0.5017(3) -0.03580(13)
O4 O 0.4125(3) 0.4886(2) 0.06657(13)
O5 O 0.1864(4) 0.3917(2) 0.03775(12)
N1 N 0.2500 0.2500 0.1307(2)
N2 N 0.2500 0.2500 0.4443(3)
C1 C 0.0401(6) 0.5810(4) 0.3010(2)
C2 C 0.0616(5) 0.5838(3) 0.23573(18)
C3 C 0.1839(6) 0.6304(3) 0.2127(2)
H1 H 0.2503 0.6624 0.2385
C4 C 0.2108(6) 0.6311(3) 0.1528(2)
H2 H 0.2957 0.6629 0.1379
C5 C -0.0358(5) 0.5397(3) 0.1977(2)
H3 H -0.1206 0.5082 0.2131
C6 C -0.0114(5) 0.5408(3) 0.1366(2)
H4 H -0.0804 0.5112 0.1108
C7 C 0.1143(5) 0.5853(3) 0.11396(18)
C8 C 0.1507(5) 0.5816(3) 0.04924(19)
H5 H 0.2000 0.6416 0.0376
H6 H 0.0576 0.5762 0.0264
C9 C 0.2500 0.2500 0.2553(3)
C10 C 0.2500 0.2500 0.3195(3)
C11 C 0.1657(6) 0.3099(4) 0.1618(2)
H7 H 0.1047 0.3534 0.1409
C12 C 0.1625(6) 0.3118(3) 0.22242(19)
H8 H 0.0997 0.3558 0.2421
C13 C 0.1356(5) 0.2904(3) 0.35209(18)
H9 H 0.0549 0.3199 0.3324
C14 C 0.1386(5) 0.2877(4) 0.41334(19)
H10 H 0.0571 0.3142 0.4343
H11 H -0.027(7) 0.253(3) 0.057(3)
H12 H 0.013(7) 0.159(2) 0.056(2)
H13 H -0.061(5) 0.514(3) 0.3553(9)
H14 H 0.400(8) 0.500(4) -0.045(3)
O6 O 0.0242(4) 0.2124(3) 0.03897(14)
Ni1F Ni 0.2500 0.2500 0.53762(3)
P1A P 0.22930(12) 0.01749(8) 0.03100(4)
O1A O 0.3896(7) -0.1290(4) 0.3348(2)
O2A O 0.5573(5) -0.0197(3) 0.31812(16)
O3A O 0.1912(4) -0.0017(3) -0.03580(13)
O4A O 0.0875(3) 0.0114(2) 0.06657(13)
O5A O 0.3136(4) 0.1083(2) 0.03775(12)
N2F N 0.2500 0.2500 -0.0557(3)
C1A C 0.4599(6) -0.0810(4) 0.3010(2)
C2A C 0.4384(5) -0.0838(3) 0.23573(18)
C3A C 0.3161(6) -0.1304(3) 0.2127(2)
H1A H 0.2497 -0.1624 0.2385
C4A C 0.2892(6) -0.1311(3) 0.1528(2)
H2A H 0.2043 -0.1629 0.1379
C5A C 0.5358(5) -0.0397(3) 0.1977(2)
H3A H 0.6206 -0.0082 0.2131
C6A C 0.5114(5) -0.0408(3) 0.1366(2)
H4A H 0.5804 -0.0112 0.1108
C7A C 0.3857(5) -0.0853(3) 0.11396(18)
C8A C 0.3493(5) -0.0816(3) 0.04924(19)
H5A H 0.3000 -0.1416 0.0376
H6A H 0.4424 -0.0762 0.0264
C11A C 0.3343(6) 0.1901(4) 0.1618(2)
H7A H 0.3953 0.1466 0.1409
C12A C 0.3375(6) 0.1882(3) 0.22242(19)
H8A H 0.4003 0.1442 0.2421
C13A C 0.3644(5) 0.2096(3) 0.35209(18)
H9A H 0.4451 0.1801 0.3324
C14A C 0.3614(5) 0.2123(4) 0.41334(19)
H10A H 0.4429 0.1858 0.4343
H11A H 0.527(7) 0.247(3) 0.057(3)
H12A H 0.487(7) 0.341(2) 0.056(2)
H13A H 0.561(5) -0.014(3) 0.3553(9)
H14A H 0.100(8) 0.000(4) -0.045(3)
O6A O 0.4758(4) 0.2876(3) 0.03897(14)
O7 O -0.2500 0.2500 0.0905(6)
O8? O -0.1549(15) 0.3410(11) 0.0945(7)
loop_
_geom_bond_atom_site_label_1
_geom_bond_atom_site_label_2
_geom_bond_site_symmetry_1
_geom_bond_site_symmetry_2
Ni1 O5 1_555 1_555
P1 O3 1_555 1_555
O1 C1 1_555 1_555
O2 C1 1_555 1_555
O3 H14 1_555 1_555
O4 P1 1_555 1_555
O5 P1 1_555 1_555
N1 Ni1 1_555 1_555
N2 C14 1_555 1_555
C1 C2 1_555 1_555
C2 C3 1_555 1_555
C3 H1 1_555 1_555
C4 C3 1_555 1_555
H2 C4 1_555 1_555
C5 C2 1_555 1_555
H3 C5 1_555 1_555
C6 C5 1_555 1_555
H4 C6 1_555 1_555
C7 C4 1_555 1_555
C8 P1 1_555 1_555
H5 C8 1_555 1_555
H6 C8 1_555 1_555
C9 C10 1_555 1_555
C10 C13 1_555 1_555
C11 N1 1_555 1_555
H7 C11 1_555 1_555
C12 C9 1_555 1_555
H8 C12 1_555 1_555
C13 H9 1_555 1_555
C14 C13 1_555 1_555
H10 C14 1_555 1_555
H11 O6 1_555 1_555
H12 O6 1_555 1_555
H13 O2 1_555 1_555
O6 Ni1 1_555 1_555
Ni1F N2 1_555 1_555
P1A O3A 1_555 1_555
O1A C1A 1_555 1_555
O2A C1A 1_555 1_555
O3A H14A 1_555 1_555
O4A P1A 1_555 1_555
O5A Ni1 1_555 1_555
N2F Ni1 1_555 1_555
C1A C2A 1_555 1_555
C2A C3A 1_555 1_555
C3A H1A 1_555 1_555
C4A C3A 1_555 1_555
H2A C4A 1_555 1_555
C5A C2A 1_555 1_555
H3A C5A 1_555 1_555
C6A C5A 1_555 1_555
H4A C6A 1_555 1_555
C7A C4A 1_555 1_555
C8A P1A 1_555 1_555
H5A C8A 1_555 1_555
H6A C8A 1_555 1_555
C11A N1 1_555 1_555
H7A C11A 1_555 1_555
C12A C9 1_555 1_555
H8A C12A 1_555 1_555
C13A C10 1_555 1_555
H9A C13A 1_555 1_555
C14A N2 1_555 1_555
H10A C14A 1_555 1_555
H11A O6A 1_555 1_555
H12A O6A 1_555 1_555
H13A O2A 1_555 1_555
O6A Ni1 1_555 1_555
C6 C7 1_555 1_555
C7 C8 1_555 1_555
C11 C12 1_555 1_555
P1A O5A 1_555 1_555
C6A C7A 1_555 1_555
C7A C8A 1_555 1_555
C11A C12A 1_555 1_555
C13A C14A 1_555 1_555

#END
