
#######################################################################
#
#                 Cambridge Crystallographic Data Centre
#                                CCDC 
#
#######################################################################
#
# If this CIF has been generated from an entry in the Cambridge 
# Structural Database, then it will include bibliographic, chemical, 
# crystal, experimental, refinement or atomic coordinate data resulting 
# from the CCDC's data processing and validation procedures.
#
#######################################################################

data_RUVCOA01
_symmetry_cell_setting           monoclinic
_symmetry_space_group_name_H-M   'P 21/c'
_symmetry_Int_Tables_number      14
_space_group_name_Hall           '-P 2ybc'
loop_
_symmetry_equiv_pos_site_id
_symmetry_equiv_pos_as_xyz
1 x,y,z
2 -x,1/2+y,1/2-z
3 -x,-y,-z
4 x,1/2-y,1/2+z
_cell_length_a                   17.346(2)
_cell_length_b                   12.000(3)
_cell_length_c                   11.457(3)
_cell_angle_alpha                90
_cell_angle_beta                 102.812(15)
_cell_angle_gamma                90
_cell_volume                     2325.42
loop_
_atom_site_label
_atom_site_type_symbol
_atom_site_fract_x
_atom_site_fract_y
_atom_site_fract_z
Mn1 Mn 0.7510(2) 0.07793(13) 1.2504(3)
N1 N 0.8571(7) 0.1059(14) 1.3991(10)
N2 N 0.8517(8) 0.1282(13) 1.5054(12)
H1 H 0.8076 0.1199 1.5272
C1 C 0.9139(12) 0.1637(19) 1.5799(16)
H2 H 0.9175 0.1856 1.6588
C2 C 0.9734(9) 0.1624(19) 1.5194(17)
C3 C 0.9313(11) 0.1250(18) 1.4066(15)
H3 H 0.9552 0.1149 1.3423
C4 C 1.0588(12) 0.1917(19) 1.5391(19)
H4 H 1.0776 0.1743 1.4686
H5 H 1.0882 0.1499 1.6056
H6 H 1.0655 0.2699 1.5559
N3 N 0.6449(8) 0.1037(11) 1.1001(12)
N4 N 0.6514(9) 0.1271(16) 0.9846(11)
H7 H 0.6926 0.1223 0.9549
C5 C 0.5751(11) 0.160(2) 0.9275(16)
H8 H 0.5615 0.1835 0.8482
C6 C 0.5242(10) 0.1553(15) 0.9983(15)
C7 C 0.5692(9) 0.1203(19) 1.1091(15)
H9 H 0.5501 0.1101 1.1781
C8 C 0.4382(9) 0.1912(16) 0.9495(14)
H10 H 0.4093 0.1849 1.0116
H11 H 0.4144 0.1440 0.8836
H12 H 0.4369 0.2671 0.9227
N5 N 0.7530(11) -0.1129(8) 1.2488(17)
N6 N 0.7827(9) -0.1810(14) 1.1792(13)
H13 H 0.8033 -0.1568 1.1223
C9 C 0.7176(10) -0.1775(18) 1.3108(16)
H14 H 0.6849 -0.1563 1.3610
C10 C 0.7378(12) -0.279(2) 1.2877(19)
C11 C 0.7786(11) -0.2964(16) 1.2044(17)
H15 H 0.7974 -0.3601 1.1737
C12 C 0.7006(12) -0.3995(18) 1.3261(19)
H16 H 0.6709 -0.3852 1.3859
H17 H 0.7431 -0.4500 1.3575
H18 H 0.6666 -0.4319 1.2568
O1 O 0.6694(6) 0.0541(13) 1.3648(11)
O2 O 0.7028(8) 0.1089(14) 1.5519(11)
C13 C 0.6555(11) 0.0696(14) 1.4725(14)
C14 C 0.5767(9) 0.0378(14) 1.4836(11)
C15 C 0.5529(11) 0.0557(15) 1.5864(16)
H19 H 0.5851 0.0959 1.6477
C16 C 0.5238(11) -0.0122(18) 1.3975(14)
H20 H 0.5358 -0.0202 1.3227
O3 O 0.8318(7) 0.0506(11) 1.1342(11)
O4 O 0.7998(6) 0.1138(14) 0.9467(11)
C17 C 0.8461(8) 0.0697(18) 1.0396(15)
C18 C 0.9297(10) 0.0290(17) 1.0192(17)
C19 C 0.9826(10) -0.0295(14) 1.1108(15)
H21 H 0.9677 -0.0513 1.1805
C20 C 0.9477(9) 0.0515(18) 0.9058(12)
H22 H 0.9094 0.0818 0.8441
O5 O 0.7527(13) 0.2635(6) 1.2451(15)
Mn1B Mn 0.2490(2) -0.07793(13) 1.7496(3)
Mn1B_2 Mn 1.2490(2) -0.07793(13) 0.7496(3)
N1B N 0.1429(7) -0.1059(14) 1.6009(10)
N2B N 0.1483(8) -0.1282(13) 1.4946(12)
H1B H 0.1924 -0.1199 1.4728
C1B C 0.0861(12) -0.1637(19) 1.4201(16)
H2B H 0.0825 -0.1856 1.3412
C2B C 0.0266(9) -0.1624(19) 1.4806(17)
C3B C 0.0687(11) -0.1250(18) 1.5934(15)
H3B H 0.0448 -0.1149 1.6577
C4B C -0.0588(12) -0.1917(19) 1.4609(19)
H4B H -0.0776 -0.1743 1.5314
H5B H -0.0882 -0.1499 1.3944
H6B H -0.0655 -0.2699 1.4441
N3B N 0.3551(8) -0.1037(11) 1.8999(12)
N4B N 0.3486(9) -0.1271(16) 2.0154(11)
H7B H 0.3074 -0.1223 2.0451
C5B C 0.4249(11) -0.160(2) 2.0725(16)
H8B H 0.4385 -0.1835 2.1518
C6B C 0.4758(10) -0.1553(15) 2.0017(15)
C7B C 0.4308(9) -0.1203(19) 1.8909(15)
H9B H 0.4499 -0.1101 1.8219
C8B C 0.5618(9) -0.1912(16) 2.0505(14)
H10B H 0.5907 -0.1849 1.9884
H11B H 0.5856 -0.1440 2.1164
H12B H 0.5631 -0.2671 2.0773
N5B N 0.2470(11) 0.1129(8) 1.7512(17)
N6B N 0.2173(9) 0.1810(14) 1.8208(13)
H13B H 0.1967 0.1568 1.8777
C9B C 0.2824(10) 0.1775(18) 1.6892(16)
H14B H 0.3151 0.1563 1.6390
C10B C 0.2622(12) 0.279(2) 1.7123(19)
C11B C 0.2214(11) 0.2964(16) 1.7956(17)
H15B H 0.2026 0.3601 1.8263
C12B C 0.2994(12) 0.3995(18) 1.6739(19)
H16B H 0.3291 0.3852 1.6141
H17B H 0.2569 0.4500 1.6425
H18B H 0.3334 0.4319 1.7432
O1B O 0.3306(6) -0.0541(13) 1.6352(11)
O2B O 0.2972(8) -0.1089(14) 1.4481(11)
C13B C 0.3445(11) -0.0696(14) 1.5275(14)
C14B C 0.4233(9) -0.0378(14) 1.5164(11)
C15B C 0.4471(11) -0.0557(15) 1.4136(16)
H19B H 0.4149 -0.0959 1.3523
C16B C 0.4762(11) 0.0122(18) 1.6025(14)
H20B H 0.4642 0.0202 1.6773
O3B O 1.1682(7) -0.0506(11) 0.8658(11)
O3B_2 O 0.1682(7) -0.0506(11) 1.8658(11)
O4B O 1.2002(6) -0.1138(14) 1.0533(11)
C17B C 1.1539(8) -0.0697(18) 0.9604(15)
C18B C 1.0703(10) -0.0290(17) 0.9808(17)
C19B C 1.0174(10) 0.0295(14) 0.8892(15)
H21B H 1.0323 0.0513 0.8195
C20B C 1.0523(9) -0.0515(18) 1.0942(12)
H22B H 1.0906 -0.0818 1.1559
O5B O 0.2473(13) -0.2635(6) 1.7549(15)
loop_
_geom_bond_atom_site_label_1
_geom_bond_atom_site_label_2
_geom_bond_site_symmetry_1
_geom_bond_site_symmetry_2
Mn1 N1 1_555 1_555
N1 N2 1_555 1_555
N2 H1 1_555 1_555
C1 N2 1_555 1_555
H2 C1 1_555 1_555
C2 C1 1_555 1_555
C3 N1 1_555 1_555
H3 C3 1_555 1_555
C4 C2 1_555 1_555
H4 C4 1_555 1_555
H5 C4 1_555 1_555
H6 C4 1_555 1_555
N3 Mn1 1_555 1_555
N4 N3 1_555 1_555
H7 N4 1_555 1_555
C5 N4 1_555 1_555
H8 C5 1_555 1_555
C6 C5 1_555 1_555
C7 N3 1_555 1_555
H9 C7 1_555 1_555
C8 C6 1_555 1_555
H10 C8 1_555 1_555
H11 C8 1_555 1_555
H12 C8 1_555 1_555
N5 Mn1 1_555 1_555
N6 N5 1_555 1_555
H13 N6 1_555 1_555
C9 N5 1_555 1_555
H14 C9 1_555 1_555
C10 C9 1_555 1_555
C11 N6 1_555 1_555
H15 C11 1_555 1_555
C12 C10 1_555 1_555
H16 C12 1_555 1_555
H17 C12 1_555 1_555
H18 C12 1_555 1_555
O1 Mn1 1_555 1_555
O2 C13 1_555 1_555
C13 O1 1_555 1_555
C14 C13 1_555 1_555
C15 C14 1_555 1_555
H19 C15 1_555 1_555
C16 C14 1_555 1_555
H20 C16 1_555 1_555
O3 Mn1 1_555 1_555
O4 C17 1_555 1_555
C17 O3 1_555 1_555
C18 C17 1_555 1_555
C19 C18 1_555 1_555
H21 C19 1_555 1_555
C20 C18 1_555 1_555
H22 C20 1_555 1_555
O5 Mn1 1_555 1_555
Mn1B N1B 1_555 1_555
Mn1B_2 O3B 1_555 1_555
N1B N2B 1_555 1_555
N2B H1B 1_555 1_555
C1B N2B 1_555 1_555
H2B C1B 1_555 1_555
C2B C1B 1_555 1_555
C3B N1B 1_555 1_555
H3B C3B 1_555 1_555
C4B C2B 1_555 1_555
H4B C4B 1_555 1_555
H5B C4B 1_555 1_555
H6B C4B 1_555 1_555
N3B Mn1B 1_555 1_555
N4B N3B 1_555 1_555
H7B N4B 1_555 1_555
C5B N4B 1_555 1_555
H8B C5B 1_555 1_555
C6B C5B 1_555 1_555
C7B N3B 1_555 1_555
H9B C7B 1_555 1_555
C8B C6B 1_555 1_555
H10B C8B 1_555 1_555
H11B C8B 1_555 1_555
H12B C8B 1_555 1_555
N5B Mn1B 1_555 1_555
N6B N5B 1_555 1_555
H13B N6B 1_555 1_555
C9B N5B 1_555 1_555
H14B C9B 1_555 1_555
C10B C9B 1_555 1_555
C11B N6B 1_555 1_555
H15B C11B 1_555 1_555
C12B C10B 1_555 1_555
H16B C12B 1_555 1_555
H17B C12B 1_555 1_555
H18B C12B 1_555 1_555
O1B Mn1B 1_555 1_555
O2B C13B 1_555 1_555
C13B O1B 1_555 1_555
C14B C13B 1_555 1_555
C15B C16 1_555 1_555
H19B C15B 1_555 1_555
C16B C15 1_555 1_555
H20B C16B 1_555 1_555
O3B C17B 1_555 1_555
O3B_2 Mn1B 1_555 1_555
O4B C17B 1_555 1_555
C17B C18B 1_555 1_555
C18B C19B 1_555 1_555
C19B C20 1_555 1_555
H21B C19B 1_555 1_555
C20B C19 1_555 1_555
H22B C20B 1_555 1_555
O5B Mn1B 1_555 1_555
C2 C3 1_555 1_555
C6 C7 1_555 1_555
C10 C11 1_555 1_555
C2B C3B 1_555 1_555
C6B C7B 1_555 1_555
C10B C11B 1_555 1_555
C14B C15B 1_555 1_555
C14B C16B 1_555 1_555
C18B C20B 1_555 1_555

#END
