
#######################################################################
#
#                 Cambridge Crystallographic Data Centre
#                                CCDC 
#
#######################################################################
#
# If this CIF has been generated from an entry in the Cambridge 
# Structural Database, then it will include bibliographic, chemical, 
# crystal, experimental, refinement or atomic coordinate data resulting 
# from the CCDC's data processing and validation procedures.
#
#######################################################################

data_RUVCUH
_symmetry_cell_setting           triclinic
_symmetry_space_group_name_H-M   'P -1'
_symmetry_Int_Tables_number      2
_space_group_name_Hall           '-P 1'
loop_
_symmetry_equiv_pos_site_id
_symmetry_equiv_pos_as_xyz
1 x,y,z
2 -x,-y,-z
_cell_length_a                   10.050(5)
_cell_length_b                   10.525(6)
_cell_length_c                   11.158(6)
_cell_angle_alpha                96.949(9)
_cell_angle_beta                 103.657(9)
_cell_angle_gamma                99.462(9)
_cell_volume                     1115.45
loop_
_atom_site_label
_atom_site_type_symbol
_atom_site_fract_x
_atom_site_fract_y
_atom_site_fract_z
Mn1 Mn 0.5000 0.0000 0.5000
Mn2 Mn 0.5000 0.0000 0.0000
N1 N 0.4951(3) 0.1683(3) 0.1028(3)
O1 O 0.3289(3) 0.0053(3) -0.1079(3)
N2 N 0.4420(3) 0.1499(4) 0.5902(3)
N3 N 0.3637(4) 0.0184(4) 0.3108(3)
N4 N 0.3714(3) -0.0439(4) 0.2174(3)
N5 N 0.3807(4) -0.1054(4) 0.1256(4)
O2 O 0.4734(3) 0.3414(3) 0.7145(3)
O3 O 0.3974(4) 0.3174(4) 0.1898(3)
C1 C 0.5347(5) 0.3331(5) 0.2766(5)
H1 H 0.5268 0.3037 0.3542
H2 H 0.5832 0.4237 0.2951
C2 C 0.6114(5) 0.2470(5) 0.2070(4)
H3 H 0.6521 0.1893 0.2615
C3 C 0.3079(4) 0.1439(5) 0.6274(4)
H4 H 0.2913 0.0672 0.6677
C4 C 0.0957(4) 0.0279(6) -0.1728(5)
H5 H 0.0794 -0.0414 -0.2381
C5 C 0.3856(5) 0.2158(4) 0.1010(4)
C6 C 0.2289(4) 0.0674(5) -0.0871(4)
C7 C 0.1368(6) 0.2304(7) 0.0242(6)
H6 H 0.1500 0.2981 0.0903
C8 C 0.2487(5) 0.1689(5) 0.0121(4)
C9 C 0.3420(5) 0.2666(5) 0.7242(5)
H7 H 0.2686 0.3165 0.7075
H8 H 0.3517 0.2447 0.8074
C10 C 0.5244(4) 0.2602(4) 0.6434(4)
C11 C 0.7197(4) 0.2290(4) 0.5492(4)
C12 C 0.6644(4) 0.3038(4) 0.6328(4)
C13 C 0.8545(5) 0.2793(5) 0.5409(5)
H9 H 0.8919 0.2342 0.4842
C14 C 0.7472(5) 0.4204(5) 0.7070(5)
H10 H 0.7108 0.4680 0.7627
C15 C 0.1840(5) 0.1348(6) 0.5116(5)
H11 H 0.1747 0.0542 0.4552
H12 H 0.0987 0.1305 0.5386
C16 C 0.1990(6) 0.2473(7) 0.4411(6)
H13 H 0.2847 0.2543 0.4163
H14 H 0.2000 0.3267 0.4938
H15 H 0.1217 0.2325 0.3681
C17 C 0.8802(6) 0.4657(6) 0.6992(6)
H16 H 0.9341 0.5426 0.7494
C18 C 0.9328(5) 0.3939(6) 0.6145(6)
H17 H 1.0226 0.4239 0.6076
C19 C -0.0111(5) 0.0930(8) -0.1594(6)
H18 H -0.0971 0.0695 -0.2186
C20 C 0.7250(6) 0.3226(6) 0.1570(6)
H19 H 0.7969 0.3750 0.2276
H20 H 0.7678 0.2601 0.1159
C21 C 0.6757(8) 0.4105(7) 0.0671(6)
H21 H 0.6198 0.4634 0.1011
H22 H 0.6208 0.3586 -0.0110
H23 H 0.7550 0.4659 0.0536
C22 C 0.0082(6) 0.1908(8) -0.0610(6)
H24 H -0.0656 0.2306 -0.0515
O4 O 0.6495(3) 0.1191(3) 0.4766(3)
Mn2_2 Mn 0.5000 0.0000 1.0000
N1A N 0.5049(3) -0.1683(3) -0.1028(3)
O1A O 0.6711(3) -0.0053(3) 0.1079(3)
N2A N 0.5580(3) -0.1499(4) 0.4098(3)
N3A N 0.6363(4) -0.0184(4) 0.6892(3)
N4A N 0.6286(3) 0.0439(4) 0.7826(3)
N5A N 0.6193(4) 0.1054(4) 0.8744(4)
N5A_2 N 0.6193(4) 0.1054(4) -0.1256(4)
O2A O 0.5266(3) -0.3414(3) 0.2855(3)
O3A O 0.6026(4) -0.3174(4) -0.1898(3)
C1A C 0.4653(5) -0.3331(5) -0.2766(5)
H1A H 0.4732 -0.3037 -0.3542
H2A H 0.4168 -0.4237 -0.2951
C2A C 0.3886(5) -0.2470(5) -0.2070(4)
H3A H 0.3479 -0.1893 -0.2615
C3A C 0.6921(4) -0.1439(5) 0.3726(4)
H4A H 0.7087 -0.0672 0.3323
C4A C 0.9043(4) -0.0279(6) 0.1728(5)
H5A H 0.9206 0.0414 0.2381
C5A C 0.6144(5) -0.2158(4) -0.1010(4)
C6A C 0.7711(4) -0.0674(5) 0.0871(4)
C7A C 0.8632(6) -0.2304(7) -0.0242(6)
H6A H 0.8500 -0.2981 -0.0903
C8A C 0.7513(5) -0.1689(5) -0.0121(4)
C9A C 0.6580(5) -0.2666(5) 0.2758(5)
H7A H 0.7314 -0.3165 0.2925
H8A H 0.6483 -0.2447 0.1926
C10A C 0.4756(4) -0.2602(4) 0.3566(4)
C11A C 0.2803(4) -0.2290(4) 0.4508(4)
C12A C 0.3356(4) -0.3038(4) 0.3672(4)
C13A C 0.1455(5) -0.2793(5) 0.4591(5)
H9A H 0.1081 -0.2342 0.5158
C14A C 0.2528(5) -0.4204(5) 0.2930(5)
H10A H 0.2892 -0.4680 0.2373
C15A C 0.8160(5) -0.1348(6) 0.4884(5)
H11A H 0.8253 -0.0542 0.5448
H12A H 0.9013 -0.1305 0.4614
C16A C 0.8010(6) -0.2473(7) 0.5589(6)
H13A H 0.7153 -0.2543 0.5837
H14A H 0.8000 -0.3267 0.5062
H15A H 0.8783 -0.2325 0.6319
C17A C 0.1198(6) -0.4657(6) 0.3008(6)
H16A H 0.0659 -0.5426 0.2506
C18A C 0.0672(5) -0.3939(6) 0.3855(6)
H17A H -0.0226 -0.4239 0.3924
C19A C 1.0111(5) -0.0930(8) 0.1594(6)
H18A H 1.0971 -0.0695 0.2186
C20A C 0.2750(6) -0.3226(6) -0.1570(6)
H19A H 0.2031 -0.3750 -0.2276
H20A H 0.2322 -0.2601 -0.1159
C21A C 0.3243(8) -0.4105(7) -0.0671(6)
H21A H 0.3802 -0.4634 -0.1011
H22A H 0.3792 -0.3586 0.0110
H23A H 0.2450 -0.4659 -0.0536
C22A C 0.9918(6) -0.1908(8) 0.0610(6)
H24A H 1.0656 -0.2306 0.0515
O4A O 0.3505(3) -0.1191(3) 0.5234(3)
loop_
_geom_bond_atom_site_label_1
_geom_bond_atom_site_label_2
_geom_bond_site_symmetry_1
_geom_bond_site_symmetry_2
Mn1 N2 1_555 1_555
Mn2 N1 1_555 1_555
N1 C2 1_555 1_555
O1 Mn2 1_555 1_555
N2 C3 1_555 1_555
N3 Mn1 1_555 1_555
N4 N3 1_555 1_555
N5 Mn2 1_555 1_555
O2 C9 1_555 1_555
O3 C1 1_555 1_555
C1 H1 1_555 1_555
H2 C1 1_555 1_555
C2 C1 1_555 1_555
H3 C2 1_555 1_555
C3 H4 1_555 1_555
C4 H5 1_555 1_555
C5 N1 1_555 1_555
C6 O1 1_555 1_555
C7 H6 1_555 1_555
C8 C5 1_555 1_555
C9 C3 1_555 1_555
H7 C9 1_555 1_555
H8 C9 1_555 1_555
C10 N2 1_555 1_555
C11 C12 1_555 1_555
C12 C10 1_555 1_555
C13 C11 1_555 1_555
H9 C13 1_555 1_555
C14 C12 1_555 1_555
H10 C14 1_555 1_555
C15 C3 1_555 1_555
H11 C15 1_555 1_555
H12 C15 1_555 1_555
C16 C15 1_555 1_555
H13 C16 1_555 1_555
H14 C16 1_555 1_555
H15 C16 1_555 1_555
C17 C14 1_555 1_555
H16 C17 1_555 1_555
C18 C13 1_555 1_555
H17 C18 1_555 1_555
C19 C4 1_555 1_555
H18 C19 1_555 1_555
C20 C2 1_555 1_555
H19 C20 1_555 1_555
H20 C20 1_555 1_555
C21 C20 1_555 1_555
H21 C21 1_555 1_555
H22 C21 1_555 1_555
H23 C21 1_555 1_555
C22 C7 1_555 1_555
H24 C22 1_555 1_555
O4 Mn1 1_555 1_555
Mn2_2 N5A 1_555 1_555
N1A Mn2 1_555 1_555
O1A Mn2 1_555 1_555
N2A Mn1 1_555 1_555
N3A Mn1 1_555 1_555
N4A N3A 1_555 1_555
N5A N4A 1_555 1_555
N5A_2 Mn2 1_555 1_555
O2A C9A 1_555 1_555
O3A C1A 1_555 1_555
C1A H1A 1_555 1_555
H2A C1A 1_555 1_555
C2A N1A 1_555 1_555
H3A C2A 1_555 1_555
C3A N2A 1_555 1_555
H4A C3A 1_555 1_555
C4A H5A 1_555 1_555
C5A N1A 1_555 1_555
C6A O1A 1_555 1_555
C7A H6A 1_555 1_555
C8A C5A 1_555 1_555
C9A C3A 1_555 1_555
H7A C9A 1_555 1_555
H8A C9A 1_555 1_555
C10A N2A 1_555 1_555
C11A C12A 1_555 1_555
C12A C10A 1_555 1_555
C13A C11A 1_555 1_555
H9A C13A 1_555 1_555
C14A C12A 1_555 1_555
H10A C14A 1_555 1_555
C15A C3A 1_555 1_555
H11A C15A 1_555 1_555
H12A C15A 1_555 1_555
C16A C15A 1_555 1_555
H13A C16A 1_555 1_555
H14A C16A 1_555 1_555
H15A C16A 1_555 1_555
C17A C14A 1_555 1_555
H16A C17A 1_555 1_555
C18A C13A 1_555 1_555
H17A C18A 1_555 1_555
C19A C4A 1_555 1_555
H18A C19A 1_555 1_555
C20A C2A 1_555 1_555
H19A C20A 1_555 1_555
H20A C20A 1_555 1_555
C21A C20A 1_555 1_555
H21A C21A 1_555 1_555
H22A C21A 1_555 1_555
H23A C21A 1_555 1_555
C22A C7A 1_555 1_555
H24A C22A 1_555 1_555
O4A Mn1 1_555 1_555
N4 N5 1_555 1_555
O2 C10 1_555 1_555
O3 C5 1_555 1_555
C4 C6 1_555 1_555
C6 C8 1_555 1_555
C7 C8 1_555 1_555
C11 O4 1_555 1_555
C17 C18 1_555 1_555
C19 C22 1_555 1_555
O2A C10A 1_555 1_555
O3A C5A 1_555 1_555
C1A C2A 1_555 1_555
C4A C6A 1_555 1_555
C6A C8A 1_555 1_555
C7A C8A 1_555 1_555
C11A O4A 1_555 1_555
C17A C18A 1_555 1_555
C19A C22A 1_555 1_555

#END
