
#######################################################################
#
#                 Cambridge Crystallographic Data Centre
#                                CCDC 
#
#######################################################################
#
# If this CIF has been generated from an entry in the Cambridge 
# Structural Database, then it will include bibliographic, chemical, 
# crystal, experimental, refinement or atomic coordinate data resulting 
# from the CCDC's data processing and validation procedures.
#
#######################################################################

data_RUVCIU
_symmetry_cell_setting           triclinic
_symmetry_space_group_name_H-M   'P -1'
_symmetry_Int_Tables_number      2
_space_group_name_Hall           '-P 1'
loop_
_symmetry_equiv_pos_site_id
_symmetry_equiv_pos_as_xyz
1 x,y,z
2 -x,-y,-z
_cell_length_a                   9.8345(11)
_cell_length_b                   10.023(2)
_cell_length_c                   10.0181(15)
_cell_angle_alpha                68.11(2)
_cell_angle_beta                 71.466(11)
_cell_angle_gamma                71.465(15)
_cell_volume                     846.173
loop_
_atom_site_label
_atom_site_type_symbol
_atom_site_fract_x
_atom_site_fract_y
_atom_site_fract_z
C1 C 0.1722(3) 0.6975(3) -0.4514(3)
C2 C 0.0822(3) 0.8544(3) -0.4762(3)
C3 C -0.0703(3) 0.8829(3) -0.4269(3)
H1 H -0.1174 0.8049 -0.3780
C4 C 0.1523(3) 0.9726(3) -0.5494(3)
H2 H 0.2542 0.9540 -0.5823
C5 C 0.3281(3) 0.4513(3) -0.6976(3)
C6 C 0.4178(3) 0.4762(3) -0.8543(3)
C7 C 0.5704(3) 0.4269(3) -0.8830(3)
H3 H 0.6176 0.3778 -0.8052
C8 C 0.3479(3) 0.5491(3) -0.9726(3)
H4 H 0.2460 0.5817 -0.9541
N1 N 0.0828(2) 0.2752(2) -0.3500(2)
N2 N 0.2272(2) 0.2044(2) -0.3768(2)
C9 C 0.0143(3) 0.1770(3) -0.2402(3)
C10 C 0.1156(4) 0.0433(3) -0.1956(3)
C11 C 0.2508(3) 0.0656(3) -0.2854(3)
C12 C 0.4007(4) -0.0340(4) -0.2937(5)
H5 H 0.4707 0.0178 -0.3697
H6 H 0.4009 -0.1191 -0.3162
H7 H 0.4271 -0.0646 -0.2005
N3 N 0.2729(2) 0.3768(2) -0.2045(2)
N4 N 0.4174(2) 0.3501(2) -0.2754(2)
C13 C 0.4856(3) 0.2400(3) -0.1768(3)
C14 C 0.3842(4) 0.1956(3) -0.0432(3)
C15 C 0.2494(3) 0.2851(3) -0.0657(3)
C16 C 0.0986(4) 0.2941(5) 0.0339(4)
H8 H 0.0289 0.3699 -0.0183
H9 H 0.0982 0.3171 0.1189
H10 H 0.0721 0.2010 0.0650
Mn1 Mn 0.0000 0.5000 -0.5000
Mn2 Mn 0.5000 0.5000 -0.5000
O1 O 0.1044(2) 0.5940(2) -0.3981(2)
O2 O 0.3093(2) 0.6793(2) -0.4827(2)
O3 O 0.1906(2) 0.4829(2) -0.6793(2)
O4 O 0.3954(2) 0.3982(2) -0.5941(2)
C4A C -0.1523(3) 1.0274(3) -0.4506(3)
C2A C -0.0822(3) 1.1456(3) -0.5238(3)
C1A C -0.1722(3) 1.3025(3) -0.5486(3)
O1A O -0.1044(2) 1.4060(2) -0.6019(2)
O2A O -0.3093(2) 1.3207(2) -0.5173(2)
C3A C 0.0703(3) 1.1171(3) -0.5731(3)
H1A H 0.1174 1.1951 -0.6220
H2A H -0.2542 1.0460 -0.4177
N1A N -0.0828(2) 0.7248(2) -0.6500(2)
N2A N -0.2272(2) 0.7956(2) -0.6232(2)
C9A C -0.0143(3) 0.8230(3) -0.7598(3)
C10A C -0.1156(4) 0.9567(3) -0.8044(3)
C11A C -0.2508(3) 0.9344(3) -0.7146(3)
C12A C -0.4007(4) 1.0340(4) -0.7063(5)
H5A H -0.4707 0.9822 -0.6303
H6A H -0.4009 1.1191 -0.6838
H7A H -0.4271 1.0646 -0.7995
N3A N 0.7271(2) 0.6232(2) -0.7955(2)
N4A N 0.5826(2) 0.6499(2) -0.7246(2)
C13A C 0.5144(3) 0.7600(3) -0.8232(3)
C14A C 0.6158(4) 0.8044(3) -0.9568(3)
C15A C 0.7506(3) 0.7149(3) -0.9343(3)
C16A C 0.9014(4) 0.7059(5) -1.0339(4)
H8A H 0.9711 0.6301 -0.9817
H9A H 0.9018 0.6829 -1.1189
H10A H 0.9279 0.7990 -1.0650
O1A_2 O -0.1044(2) 0.4060(2) -0.6019(2)
O3A O -0.1906(2) 0.5171(2) -0.3207(2)
O2A_2 O 0.6907(2) 0.3207(2) -0.5173(2)
O4A O 0.6046(2) 0.6018(2) -0.4059(2)
Mn1_2 Mn 0.0000 1.5000 -0.5000
Mn2_2 Mn -0.5000 1.5000 -0.5000
C7A C 0.4296(3) 0.5731(3) -1.1170(3)
C8A C 0.6521(3) 0.4509(3) -1.0274(3)
C6A C 0.5822(3) 0.5238(3) -1.1457(3)
H3A H 0.3824 0.6222 -1.1948
H4A H 0.7540 0.4183 -1.0459
C5A C 0.6719(3) 0.5487(3) -1.3024(3)
O3A_2 O 0.8094(2) 0.5171(2) -1.3207(2)
O4A_2 O 0.6046(2) 0.6018(2) -1.4059(2)
Mn2_3 Mn 0.5000 0.5000 -1.5000
Mn1_3 Mn 1.0000 0.5000 -1.5000
loop_
_geom_bond_atom_site_label_1
_geom_bond_atom_site_label_2
_geom_bond_site_symmetry_1
_geom_bond_site_symmetry_2
C1 C2 1_555 1_555
C2 C3 1_555 1_555
C3 H1 1_555 1_555
C4 C2 1_555 1_555
H2 C4 1_555 1_555
C5 C6 1_555 1_555
C6 C7 1_555 1_555
C7 H3 1_555 1_555
C8 C6 1_555 1_555
H4 C8 1_555 1_555
N1 N2 1_555 1_555
N2 C11 1_555 1_555
C9 N1 1_555 1_555
C10 C9 1_555 1_555
C11 C10 1_555 1_555
C12 C11 1_555 1_555
H5 C12 1_555 1_555
H6 C12 1_555 1_555
H7 C12 1_555 1_555
N3 N4 1_555 1_555
N4 C13 1_555 1_555
C13 C14 1_555 1_555
C14 C15 1_555 1_555
C15 N3 1_555 1_555
C16 C15 1_555 1_555
H8 C16 1_555 1_555
H9 C16 1_555 1_555
H10 C16 1_555 1_555
Mn1 N1 1_555 1_555
Mn2 N4 1_555 1_555
O1 C1 1_555 1_555
O2 C1 1_555 1_555
O3 C5 1_555 1_555
O4 C5 1_555 1_555
C4A C3 1_555 1_555
C2A C4A 1_555 1_555
C1A C2A 1_555 1_555
O1A C1A 1_555 1_555
O2A C1A 1_555 1_555
C3A C4 1_555 1_555
H1A C3A 1_555 1_555
H2A C4A 1_555 1_555
N1A Mn1 1_555 1_555
N2A N1A 1_555 1_555
C9A N1A 1_555 1_555
C10A C9A 1_555 1_555
C11A N2A 1_555 1_555
C12A C11A 1_555 1_555
H5A C12A 1_555 1_555
H6A C12A 1_555 1_555
H7A C12A 1_555 1_555
N3A N4A 1_555 1_555
N4A Mn2 1_555 1_555
C13A N4A 1_555 1_555
C14A C13A 1_555 1_555
C15A N3A 1_555 1_555
C16A C15A 1_555 1_555
H8A C16A 1_555 1_555
H9A C16A 1_555 1_555
H10A C16A 1_555 1_555
O1A_2 Mn1 1_555 1_555
O3A Mn1 1_555 1_555
O2A_2 Mn2 1_555 1_555
O4A Mn2 1_555 1_555
Mn1_2 O1A 1_555 1_555
Mn2_2 O2A 1_555 1_555
C7A C8 1_555 1_555
C8A C7 1_555 1_555
C6A C7A 1_555 1_555
H3A C7A 1_555 1_555
H4A C8A 1_555 1_555
C5A C6A 1_555 1_555
O3A_2 C5A 1_555 1_555
O4A_2 C5A 1_555 1_555
Mn2_3 O4A_2 1_555 1_555
Mn1_3 O3A_2 1_555 1_555
Mn1 O1 1_555 1_555
Mn1 O3 1_555 1_555
Mn2 O2 1_555 1_555
Mn2 O4 1_555 1_555
C2A C3A 1_555 1_555
C10A C11A 1_555 1_555
C14A C15A 1_555 1_555
C8A C6A 1_555 1_555

#END
