
#######################################################################
#
#                 Cambridge Crystallographic Data Centre
#                                CCDC 
#
#######################################################################
#
# If this CIF has been generated from an entry in the Cambridge 
# Structural Database, then it will include bibliographic, chemical, 
# crystal, experimental, refinement or atomic coordinate data resulting 
# from the CCDC's data processing and validation procedures.
#
#######################################################################

data_RUVCAN
_symmetry_cell_setting           triclinic
_symmetry_space_group_name_H-M   'P -1'
_symmetry_Int_Tables_number      2
_space_group_name_Hall           '-P 1'
loop_
_symmetry_equiv_pos_site_id
_symmetry_equiv_pos_as_xyz
1 x,y,z
2 -x,-y,-z
_cell_length_a                   8.4836(17)
_cell_length_b                   11.512(2)
_cell_length_c                   12.793(3)
_cell_angle_alpha                112.97(3)
_cell_angle_beta                 96.36(3)
_cell_angle_gamma                94.30(3)
_cell_volume                     1133.68
loop_
_atom_site_label
_atom_site_type_symbol
_atom_site_fract_x
_atom_site_fract_y
_atom_site_fract_z
Ni1 Ni 0.47775(5) 0.64422(3) 0.53712(3)
Ni2 Ni 0.25331(5) 0.44526(4) 0.33334(3)
P1 P 0.15027(10) 1.29755(8) 0.49182(8)
O1 O 0.2537(3) 0.5984(2) 0.2894(2)
O2 O 0.4212(3) 0.7455(2) 0.4402(2)
O3 O -0.0182(3) 1.2825(2) 0.4284(2)
O4 O 0.2736(3) 1.3104(2) 0.4152(2)
O5 O 0.1812(3) 1.4123(2) 0.6079(2)
O6 O 0.4868(3) 0.4834(2) 0.3914(2)
H1 H 0.558(4) 0.493(4) 0.353(3)
O7 O 0.2326(3) 0.5746(2) 0.5030(2)
H2 H 0.238(5) 0.540(4) 0.550(3)
H3 H 0.167(4) 0.629(3) 0.521(3)
O8 O 0.0077(3) 0.4072(2) 0.2918(2)
H4 H -0.010(6) 0.359(3) 0.329(4)
H5 H -0.031(5) 0.476(3) 0.328(4)
N1 N 0.2703(4) 1.3055(3) 1.1749(3)
N2 N 0.4369(3) 0.7969(3) 0.6834(2)
C1 C 0.3083(4) 0.7113(3) 0.3567(3)
C2 C 0.2251(5) 0.8149(3) 0.3389(3)
C3 C 0.1199(6) 0.7881(4) 0.2410(4)
H6 H 0.1048 0.7055 0.1809
C4 C 0.0348(7) 0.8829(4) 0.2298(4)
H7 H -0.0342 0.8656 0.1603
C5 C 0.0502(5) 1.0012(4) 0.3186(4)
H8 H -0.0126 1.0633 0.3112
C6 C 0.1563(4) 1.0306(3) 0.4187(3)
C7 C 0.2443(4) 0.9359(3) 0.4269(3)
H9 H 0.3190 0.9545 0.4942
C8 C 0.1756(4) 1.1586(3) 0.5209(3)
H10 H 0.2839 1.1719 0.5649
H11 H 0.0978 1.1531 0.5715
C9 C 0.3478(7) 1.3274(4) 1.0983(4)
H12 H 0.3856 1.4130 1.1132
C10 C 0.3763(7) 1.2324(4) 0.9983(4)
H13 H 0.4336 1.2530 0.9468
C11 C 0.3205(4) 1.1068(3) 0.9736(3)
C12 C 0.2350(5) 1.0852(4) 1.0515(4)
H14 H 0.1913 1.0012 1.0379
C13 C 0.2132(6) 1.1867(4) 1.1496(4)
H15 H 0.1535 1.1696 1.2017
C14 C 0.3575(4) 1.0000(3) 0.8709(3)
C15 C 0.4406(5) 1.0202(3) 0.7907(3)
H16 H 0.4724 1.1045 0.7987
C16 C 0.4775(5) 0.9179(3) 0.6992(3)
H17 H 0.5339 0.9343 0.6452
C17 C 0.3562(5) 0.7771(3) 0.7594(3)
H18 H 0.3260 0.6919 0.7494
C18 C 0.3135(5) 0.8746(4) 0.8529(3)
H19 H 0.2543 0.8553 0.9042
Ni1A Ni 0.52225(5) 1.35578(3) 0.46288(3)
Ni1A_2 Ni 0.52225(5) 0.35578(3) 0.46288(3)
Ni2_2 Ni 0.25331(5) 1.44526(4) 0.33334(3)
Ni2_3 Ni 0.25331(5) 1.44526(4) 1.33334(3)
O4A O 0.7264(3) 0.6896(2) 0.5848(2)
O4_2 O 0.2736(3) 0.3104(2) 0.4152(2)
O6A O 0.5132(3) 0.5166(2) 0.6086(2)
H1A H 0.442(4) 0.507(4) 0.647(3)
N1_2 N 0.2703(4) 0.3055(3) 0.1749(3)
O9 O 0.900(2) 0.3590(16) 0.0551(16)
O10 O 0.375(4) 0.609(2) 0.075(2)
O11 O 0.3312(11) 0.4190(9) 0.8174(8)
loop_
_geom_bond_atom_site_label_1
_geom_bond_atom_site_label_2
_geom_bond_site_symmetry_1
_geom_bond_site_symmetry_2
Ni1 O2 1_555 1_555
Ni2 O1 1_555 1_555
P1 O3 1_555 1_555
O1 C1 1_555 1_555
O2 C1 1_555 1_555
O4 P1 1_555 1_555
O5 P1 1_555 1_555
O6 Ni1 1_555 1_555
H1 O6 1_555 1_555
O7 Ni1 1_555 1_555
H2 O7 1_555 1_555
H3 O7 1_555 1_555
O8 Ni2 1_555 1_555
H4 O8 1_555 1_555
H5 O8 1_555 1_555
N1 C9 1_555 1_555
N2 Ni1 1_555 1_555
C1 C2 1_555 1_555
C2 C3 1_555 1_555
C3 H6 1_555 1_555
C4 C3 1_555 1_555
H7 C4 1_555 1_555
C5 C4 1_555 1_555
H8 C5 1_555 1_555
C6 C5 1_555 1_555
C7 C2 1_555 1_555
H9 C7 1_555 1_555
C8 P1 1_555 1_555
H10 C8 1_555 1_555
H11 C8 1_555 1_555
C9 H12 1_555 1_555
C10 C9 1_555 1_555
H13 C10 1_555 1_555
C11 C10 1_555 1_555
C12 C11 1_555 1_555
H14 C12 1_555 1_555
C13 N1 1_555 1_555
H15 C13 1_555 1_555
C14 C11 1_555 1_555
C15 C14 1_555 1_555
H16 C15 1_555 1_555
C16 N2 1_555 1_555
H17 C16 1_555 1_555
C17 N2 1_555 1_555
H18 C17 1_555 1_555
C18 C14 1_555 1_555
H19 C18 1_555 1_555
Ni1A O4 1_555 1_555
Ni1A_2 O6 1_555 1_555
Ni2_2 O4 1_555 1_555
Ni2_3 N1 1_555 1_555
O4A Ni1 1_555 1_555
O4_2 Ni2 1_555 1_555
O6A Ni1 1_555 1_555
H1A O6A 1_555 1_555
N1_2 Ni2 1_555 1_555
Ni2 O6 1_555 1_555
Ni2 O7 1_555 1_555
C6 C7 1_555 1_555
C6 C8 1_555 1_555
C12 C13 1_555 1_555
C15 C16 1_555 1_555
C17 C18 1_555 1_555
Ni1A_2 O4_2 1_555 1_555
Ni1A_2 O6A 1_555 1_555

#END
