
#######################################################################
#
#                 Cambridge Crystallographic Data Centre
#                                CCDC 
#
#######################################################################
#
# If this CIF has been generated from an entry in the Cambridge 
# Structural Database, then it will include bibliographic, chemical, 
# crystal, experimental, refinement or atomic coordinate data resulting 
# from the CCDC's data processing and validation procedures.
#
#######################################################################

data_RUVCIV
_symmetry_cell_setting           triclinic
_symmetry_space_group_name_H-M   'P -1'
_symmetry_Int_Tables_number      2
_space_group_name_Hall           '-P 1'
loop_
_symmetry_equiv_pos_site_id
_symmetry_equiv_pos_as_xyz
1 x,y,z
2 -x,-y,-z
_cell_length_a                   9.4598(19)
_cell_length_b                   10.258(2)
_cell_length_c                   10.769(2)
_cell_angle_alpha                75.03(3)
_cell_angle_beta                 69.49(3)
_cell_angle_gamma                83.95(3)
_cell_volume                     945.421
loop_
_atom_site_label
_atom_site_type_symbol
_atom_site_fract_x
_atom_site_fract_y
_atom_site_fract_z
Mn1 Mn 0.58543(3) 0.12630(3) 0.13447(3)
P1 P 0.27858(6) 0.11345(5) 0.04421(5)
O1 O 0.1721(2) 0.01411(15) 0.17049(16)
H1 H 0.1712 -0.0599 0.1510
O2 O 0.39078(18) 0.16590(17) 0.08797(19)
O3 O 0.34145(18) 0.05037(14) -0.07555(15)
O4 O 0.2652(2) 0.72823(17) -0.00477(19)
O5 O 0.1148(2) 0.77177(18) 0.1896(2)
N1 N 0.68787(18) 0.04786(16) 0.30487(16)
N2 N 0.48297(19) 0.24996(18) 0.29342(18)
C1 C 0.1570(3) 0.2517(2) 0.0007(2)
H2 H 0.2124 0.3077 -0.0904
H3 H 0.0688 0.2143 -0.0067
C2 C 0.1003(2) 0.34170(19) 0.0990(2)
C3 C -0.0056(3) 0.2980(2) 0.2272(3)
H4 H -0.0441 0.2094 0.2538
C4 C -0.0564(3) 0.3812(2) 0.3176(3)
H5 H -0.1288 0.3493 0.4054
C5 C -0.0017(3) 0.5111(2) 0.2799(3)
H6 H -0.0375 0.5686 0.3413
C6 C 0.1052(2) 0.55669(19) 0.1526(2)
C7 C 0.1669(2) 0.6969(2) 0.1106(2)
C8 C 0.1551(2) 0.47163(19) 0.0636(2)
H7 H 0.2286 0.5030 -0.0236
C9 C 0.7900(2) -0.0506(2) 0.3093(2)
H8 H 0.8240 -0.0959 0.2372
C10 C 0.8504(2) -0.0911(2) 0.4155(2)
H9 H 0.9239 -0.1618 0.4144
C11 C 0.8024(2) -0.0279(2) 0.5200(2)
H10 H 0.8410 -0.0550 0.5934
C12 C 0.6950(2) 0.0782(2) 0.5188(2)
C13 C 0.6414(2) 0.11259(19) 0.40769(19)
C14 C 0.5319(2) 0.2208(2) 0.40146(19)
C15 C 0.4796(2) 0.2899(2) 0.5070(2)
C16 C 0.5359(3) 0.2516(2) 0.6180(2)
H11 H 0.5003 0.2982 0.6891
C17 C 0.6383(3) 0.1510(2) 0.6245(2)
H12 H 0.6737 0.1277 0.6999
C18 C 0.3734(3) 0.3948(3) 0.4950(3)
H13 H 0.3349 0.4445 0.5634
C19 C 0.3257(3) 0.4249(3) 0.3850(3)
H14 H 0.2549 0.4964 0.3755
C20 C 0.3824(3) 0.3493(2) 0.2863(3)
H15 H 0.3472 0.3701 0.2108
Mn1A Mn 0.41457(3) -0.12630(3) -0.13447(3)
Mn1A_2 Mn 0.41457(3) 0.87370(3) -0.13447(3)
O3A O 0.65855(18) -0.05037(14) 0.07555(15)
O4A O 0.7348(2) 0.27177(17) 0.00477(19)
loop_
_geom_bond_atom_site_label_1
_geom_bond_atom_site_label_2
_geom_bond_site_symmetry_1
_geom_bond_site_symmetry_2
Mn1 O2 1_555 1_555
P1 O1 1_555 1_555
O1 H1 1_555 1_555
O2 P1 1_555 1_555
O3 P1 1_555 1_555
O4 C7 1_555 1_555
O5 C7 1_555 1_555
N1 Mn1 1_555 1_555
N2 Mn1 1_555 1_555
C1 P1 1_555 1_555
H2 C1 1_555 1_555
H3 C1 1_555 1_555
C2 C1 1_555 1_555
C3 C2 1_555 1_555
H4 C3 1_555 1_555
C4 C3 1_555 1_555
H5 C4 1_555 1_555
C5 C4 1_555 1_555
H6 C5 1_555 1_555
C6 C5 1_555 1_555
C7 C6 1_555 1_555
C8 C2 1_555 1_555
H7 C8 1_555 1_555
C9 N1 1_555 1_555
H8 C9 1_555 1_555
C10 C9 1_555 1_555
H9 C10 1_555 1_555
C11 C10 1_555 1_555
H10 C11 1_555 1_555
C12 C11 1_555 1_555
C13 N1 1_555 1_555
C14 N2 1_555 1_555
C15 C14 1_555 1_555
C16 C15 1_555 1_555
H11 C16 1_555 1_555
C17 C12 1_555 1_555
H12 C17 1_555 1_555
C18 C15 1_555 1_555
H13 C18 1_555 1_555
C19 C18 1_555 1_555
H14 C19 1_555 1_555
C20 N2 1_555 1_555
H15 C20 1_555 1_555
Mn1A O3 1_555 1_555
Mn1A_2 O4 1_555 1_555
O3A Mn1 1_555 1_555
O4A Mn1 1_555 1_555
C6 C8 1_555 1_555
C12 C13 1_555 1_555
C13 C14 1_555 1_555
C16 C17 1_555 1_555
C19 C20 1_555 1_555

#END
