
#######################################################################
#
#                 Cambridge Crystallographic Data Centre
#                                CCDC 
#
#######################################################################
#
# If this CIF has been generated from an entry in the Cambridge 
# Structural Database, then it will include bibliographic, chemical, 
# crystal, experimental, refinement or atomic coordinate data resulting 
# from the CCDC's data processing and validation procedures.
#
#######################################################################

data_RUVCOB
_symmetry_cell_setting           triclinic
_symmetry_space_group_name_H-M   'P -1'
_symmetry_Int_Tables_number      2
_space_group_name_Hall           '-P 1'
loop_
_symmetry_equiv_pos_site_id
_symmetry_equiv_pos_as_xyz
1 x,y,z
2 -x,-y,-z
_cell_length_a                   6.336(3)
_cell_length_b                   6.646(3)
_cell_length_c                   11.911(6)
_cell_angle_alpha                80.023(7)
_cell_angle_beta                 82.159(7)
_cell_angle_gamma                62.717(6)
_cell_volume                     438.091
loop_
_atom_site_label
_atom_site_type_symbol
_atom_site_fract_x
_atom_site_fract_y
_atom_site_fract_z
Mn1 Mn 0.5000 0.5000 0.5000
O1 O 0.6953(2) 0.6184(2) 0.41211(10)
N1 N 0.8283(3) 0.1411(3) 0.54020(16)
C1 C 0.7230(3) 0.6684(3) 0.30045(13)
C2 C 0.8555(3) 0.7917(3) 0.26023(15)
H1 H 0.9179 0.8364 0.3121
C3 C 0.6326(3) 0.6008(3) 0.21925(13)
C4 C 0.8933(4) 0.8466(4) 0.14456(17)
H2 H 0.9815 0.9275 0.1195
C5 C 0.8018(4) 0.7829(4) 0.06508(17)
H3 H 0.8268 0.8228 -0.0126
C6 C 0.6740(4) 0.6605(4) 0.10168(15)
H4 H 0.6143 0.6165 0.0483
O2 O 0.4428(2) 0.3873(2) 0.17575(10)
N2 N 1.0000 0.0000 0.5000
C7 C 0.3118(3) 0.2615(3) 0.23367(15)
H5 H 0.3859 0.1066 0.2145
H6 H 0.1481 0.3365 0.2126
C8 C 0.5045(3) 0.4645(3) 0.25639(13)
N3 N 0.4452(2) 0.4068(2) 0.36053(11)
C9 C 0.3236(3) 0.2624(3) 0.36093(14)
H7 H 0.1655 0.3281 0.3988
H8 H 0.4144 0.1094 0.3984
Mn1_2 Mn 1.5000 -0.5000 0.5000
O1A O 0.3047(2) 0.3816(2) 0.58789(10)
N1A N 1.1717(3) -0.1411(3) 0.45980(16)
N1A_2 N 0.1717(3) 0.8589(3) 0.45980(16)
C1A C 0.2770(3) 0.3316(3) 0.69955(13)
C2A C 0.1445(3) 0.2083(3) 0.73977(15)
H1A H 0.0821 0.1636 0.6879
C3A C 0.3674(3) 0.3992(3) 0.78075(13)
C4A C 0.1067(4) 0.1534(4) 0.85544(17)
H2A H 0.0185 0.0725 0.8805
C5A C 0.1982(4) 0.2171(4) 0.93492(17)
H3A H 0.1732 0.1772 1.0126
C6A C 0.3260(4) 0.3395(4) 0.89832(15)
H4A H 0.3857 0.3835 0.9517
O2A O 0.5572(2) 0.6127(2) 0.82425(10)
C7A C 0.6882(3) 0.7385(3) 0.76633(15)
H5A H 0.6141 0.8934 0.7855
H6A H 0.8519 0.6635 0.7874
C8A C 0.4955(3) 0.5355(3) 0.74361(13)
N3A N 0.5548(2) 0.5932(2) 0.63947(11)
C9A C 0.6764(3) 0.7376(3) 0.63907(14)
H7A H 0.8345 0.6719 0.6012
H8A H 0.5856 0.8906 0.6016
loop_
_geom_bond_atom_site_label_1
_geom_bond_atom_site_label_2
_geom_bond_site_symmetry_1
_geom_bond_site_symmetry_2
Mn1 O1 1_555 1_555
O1 C1 1_555 1_555
N1 Mn1 1_555 1_555
C1 C2 1_555 1_555
C2 H1 1_555 1_555
C3 C1 1_555 1_555
C4 C2 1_555 1_555
H2 C4 1_555 1_555
C5 C4 1_555 1_555
H3 C5 1_555 1_555
C6 C3 1_555 1_555
H4 C6 1_555 1_555
O2 C7 1_555 1_555
N2 N1 1_555 1_555
C7 H5 1_555 1_555
H6 C7 1_555 1_555
C8 C3 1_555 1_555
N3 Mn1 1_555 1_555
C9 C7 1_555 1_555
H7 C9 1_555 1_555
H8 C9 1_555 1_555
Mn1_2 N1A 1_555 1_555
O1A Mn1 1_555 1_555
N1A N2 1_555 1_555
N1A_2 Mn1 1_555 1_555
C1A O1A 1_555 1_555
C2A C1A 1_555 1_555
H1A C2A 1_555 1_555
C3A C1A 1_555 1_555
C4A C2A 1_555 1_555
H2A C4A 1_555 1_555
C5A C4A 1_555 1_555
H3A C5A 1_555 1_555
C6A C3A 1_555 1_555
H4A C6A 1_555 1_555
O2A C7A 1_555 1_555
C7A H5A 1_555 1_555
H6A C7A 1_555 1_555
C8A C3A 1_555 1_555
N3A Mn1 1_555 1_555
C9A C7A 1_555 1_555
H7A C9A 1_555 1_555
H8A C9A 1_555 1_555
C5 C6 1_555 1_555
O2 C8 1_555 1_555
C8 N3 1_555 1_555
N3 C9 1_555 1_555
C5A C6A 1_555 1_555
O2A C8A 1_555 1_555
C8A N3A 1_555 1_555
N3A C9A 1_555 1_555

#END
