
#######################################################################
#
#                 Cambridge Crystallographic Data Centre
#                                CCDC 
#
#######################################################################
#
# If this CIF has been generated from an entry in the Cambridge 
# Structural Database, then it will include bibliographic, chemical, 
# crystal, experimental, refinement or atomic coordinate data resulting 
# from the CCDC's data processing and validation procedures.
#
#######################################################################

data_RUVFIY
_symmetry_cell_setting           monoclinic
_symmetry_space_group_name_H-M   'P 21/c'
_symmetry_Int_Tables_number      14
_space_group_name_Hall           '-P 2ybc'
loop_
_symmetry_equiv_pos_site_id
_symmetry_equiv_pos_as_xyz
1 x,y,z
2 -x,1/2+y,1/2-z
3 -x,-y,-z
4 x,1/2-y,1/2+z
_cell_length_a                   13.913(2)
_cell_length_b                   11.039(3)
_cell_length_c                   17.712(2)
_cell_angle_alpha                90
_cell_angle_beta                 112.450(3)
_cell_angle_gamma                90
_cell_volume                     2514.14
loop_
_atom_site_label
_atom_site_type_symbol
_atom_site_fract_x
_atom_site_fract_y
_atom_site_fract_z
Co1 Co 0.0000 0.0000 0.0000
O1 O 0.0058(2) -0.1886(2) 0.02158(17)
N1 N 1.0015(2) -0.5389(3) -0.38092(18)
N2 N 0.9393(2) -0.5236(3) -0.28394(18)
N3 N 0.1653(2) -0.0077(2) 0.04376(18)
N4 N 0.3222(2) -0.0630(3) 0.05441(18)
N5 N 0.7507(2) -0.2459(3) 0.03681(18)
N6 N 0.8157(2) -0.2945(3) 0.00205(18)
N7 N 0.6580(2) -0.2977(3) -0.08948(17)
N8 N 0.5748(3) -0.3267(4) -0.1636(2)
C1 C 1.0017(3) -0.6517(3) -0.3464(2)
H1 H 1.0245 -0.7228 -0.3624
C2 C 0.9646(3) -0.6444(3) -0.2868(2)
H2 H 0.9574 -0.7072 -0.2543
C3 C 0.9624(3) -0.4655(3) -0.3411(2)
H3 H 0.9521 -0.3830 -0.3516
C4 C 0.8935(3) -0.4726(3) -0.2309(2)
C5 C 0.9314(3) -0.5049(3) -0.1497(2)
H4 H 0.9875 -0.5577 -0.1286
C6 C 0.8844(3) -0.4573(3) -0.1000(2)
H5 H 0.9090 -0.4791 -0.0452
C7 C 0.8010(3) -0.3775(3) -0.1306(2)
C8 C 0.7647(3) -0.3458(3) -0.2127(2)
H6 H 0.7089 -0.2928 -0.2339
C9 C 0.8106(3) -0.3920(3) -0.2628(2)
H7 H 0.7866 -0.3696 -0.3175
C10 C 0.7582(3) -0.3250(3) -0.0737(2)
C11 C 0.6561(3) -0.2494(3) -0.0194(2)
C12 C 0.5638(3) -0.2056(3) -0.0050(2)
C13 C 0.5674(3) -0.2124(3) 0.0748(2)
H8 H 0.6239 -0.2492 0.1151
C14 C 0.4888(3) -0.1655(3) 0.0944(2)
H9 H 0.4931 -0.1684 0.1481
C15 C 0.4025(3) -0.1135(3) 0.0338(2)
C16 C 0.3960(3) -0.1093(3) -0.0464(2)
H10 H 0.3379 -0.0759 -0.0871
C17 C 0.4769(3) -0.1554(3) -0.0653(2)
H11 H 0.4728 -0.1526 -0.1189
C18 C 0.3328(3) -0.0058(3) 0.1268(2)
H12 H 0.3942 0.0072 0.1718
C19 C 0.2359(3) 0.0272(3) 0.1189(2)
H13 H 0.2195 0.0675 0.1585
C20 C 0.2198(3) -0.0617(3) 0.0074(2)
H14 H 0.1912 -0.0952 -0.0446
H22 H 0.533(4) -0.374(5) -0.149(3)
H23 H 0.553(3) -0.264(4) -0.189(2)
H24 H -0.055(4) -0.229(5) 0.022(3)
H25 H 0.051(4) -0.209(4) 0.061(3)
Co1A Co 1.0000 -0.5000 -0.5000
Co1A_2 Co -1.0000 -0.5000 0.5000
O1B O -0.0058(2) 0.1886(2) -0.02158(17)
N1C N 0.0015(2) 0.0389(3) 0.11908(18)
N1A N -0.0015(2) -0.0389(3) -0.11908(18)
N2C N -0.0607(2) 0.0236(3) 0.21606(18)
N3C N -0.8347(2) -0.4923(2) 0.54376(18)
N3B N -0.1653(2) 0.0077(2) -0.04376(18)
N4C N -0.6778(2) -0.4370(3) 0.55441(18)
N5C N -0.2493(2) -0.2541(3) 0.53681(18)
N6C N -0.1843(2) -0.2055(3) 0.50205(18)
N7C N -0.3420(2) -0.2023(3) 0.41052(17)
N8C N -0.4252(3) -0.1733(4) 0.3364(2)
C1C C 0.0017(3) 0.1517(3) 0.1536(2)
H1C H 0.0245 0.2228 0.1376
C2C C -0.0354(3) 0.1444(3) 0.2132(2)
H2C H -0.0426 0.2072 0.2457
C3C C -0.0376(3) -0.0345(3) 0.1589(2)
H3C H -0.0479 -0.1170 0.1484
C4C C -0.1065(3) -0.0274(3) 0.2691(2)
C5C C -0.0686(3) 0.0049(3) 0.3503(2)
H4C H -0.0125 0.0577 0.3714
C6C C -0.1156(3) -0.0427(3) 0.4000(2)
H5C H -0.0910 -0.0209 0.4548
C7C C -0.1990(3) -0.1225(3) 0.3694(2)
C8C C -0.2353(3) -0.1542(3) 0.2873(2)
H6C H -0.2911 -0.2072 0.2661
C9C C -0.1894(3) -0.1080(3) 0.2372(2)
H7C H -0.2134 -0.1304 0.1825
C10C C -0.2418(3) -0.1750(3) 0.4263(2)
C11C C -0.3439(3) -0.2506(3) 0.4806(2)
C12C C -0.4362(3) -0.2944(3) 0.4950(2)
C13C C -0.4326(3) -0.2876(3) 0.5748(2)
H8C H -0.3761 -0.2508 0.6151
C14C C -0.5112(3) -0.3345(3) 0.5944(2)
H9C H -0.5069 -0.3316 0.6481
C15C C -0.5975(3) -0.3865(3) 0.5338(2)
C16C C -0.6040(3) -0.3907(3) 0.4536(2)
H10C H -0.6621 -0.4241 0.4129
C17C C -0.5231(3) -0.3446(3) 0.4347(2)
H11C H -0.5272 -0.3474 0.3811
C18C C -0.6672(3) -0.4942(3) 0.6268(2)
H12C H -0.6058 -0.5072 0.6718
C19C C -0.7641(3) -0.5272(3) 0.6189(2)
H13C H -0.7805 -0.5675 0.6585
C20C C -0.7802(3) -0.4383(3) 0.5074(2)
H14C H -0.8088 -0.4048 0.4554
H22C H -0.467(4) -0.126(5) 0.351(3)
H23C H -0.447(3) -0.236(4) 0.311(2)
H24B H 0.055(4) 0.229(5) -0.022(3)
H25B H -0.051(4) 0.209(4) -0.061(3)
O2 O 0.4808(3) -0.1210(3) -0.2749(2)
H26 H 0.407(4) -0.130(4) -0.292(3)
H27 H 0.479(8) -0.068(10) -0.306(6)
O3 O 0.1444(2) -0.2750(2) -0.32435(16)
O4 O 0.2679(2) -0.2034(3) -0.35832(19)
O5 O 0.2892(3) -0.2162(4) -0.2308(2)
N9 N 0.2345(3) -0.2313(3) -0.3047(2)
O6 O 0.4436(3) -0.4886(3) -0.1131(2)
N10 N 0.2891(3) -0.4540(3) -0.0989(2)
C21 C 0.2270(4) -0.5089(4) -0.1760(3)
H15 H 0.1549 -0.5053 -0.1837
H16 H 0.2474 -0.5919 -0.1762
H17 H 0.2372 -0.4660 -0.2195
C22 C 0.2363(4) -0.3982(4) -0.0545(3)
H18 H 0.1629 -0.4121 -0.0816
H19 H 0.2498 -0.3127 -0.0511
H20 H 0.2601 -0.4319 -0.0004
C23 C 0.3918(4) -0.4481(4) -0.0749(3)
H21 H 0.4282 -0.4104 -0.0252
loop_
_geom_bond_atom_site_label_1
_geom_bond_atom_site_label_2
_geom_bond_site_symmetry_1
_geom_bond_site_symmetry_2
Co1 O1 1_555 1_555
O1 H24 1_555 1_555
O2 H26 1_555 1_555
O3 N9 1_555 1_555
O4 N9 1_555 1_555
O5 N9 1_555 1_555
O6 C23 1_555 1_555
N1 C1 1_555 1_555
N2 C2 1_555 1_555
N3 Co1 1_555 1_555
N4 C15 1_555 1_555
N5 N6 1_555 1_555
N6 C10 1_555 1_555
N7 N8 1_555 1_555
N8 H22 1_555 1_555
N10 C21 1_555 1_555
C1 H1 1_555 1_555
C2 C1 1_555 1_555
H2 C2 1_555 1_555
C3 N1 1_555 1_555
H3 C3 1_555 1_555
C4 N2 1_555 1_555
C5 C4 1_555 1_555
H4 C5 1_555 1_555
C6 C5 1_555 1_555
H5 C6 1_555 1_555
C7 C6 1_555 1_555
C8 C7 1_555 1_555
H6 C8 1_555 1_555
C9 C4 1_555 1_555
H7 C9 1_555 1_555
C10 N7 1_555 1_555
C11 N5 1_555 1_555
C12 C11 1_555 1_555
C13 C12 1_555 1_555
H8 C13 1_555 1_555
C14 C13 1_555 1_555
H9 C14 1_555 1_555
C15 C14 1_555 1_555
C16 C15 1_555 1_555
H10 C16 1_555 1_555
C17 C12 1_555 1_555
H11 C17 1_555 1_555
C18 N4 1_555 1_555
H12 C18 1_555 1_555
C19 N3 1_555 1_555
H13 C19 1_555 1_555
C20 N3 1_555 1_555
H14 C20 1_555 1_555
C21 H15 1_555 1_555
H16 C21 1_555 1_555
H17 C21 1_555 1_555
C22 N10 1_555 1_555
H18 C22 1_555 1_555
H19 C22 1_555 1_555
H20 C22 1_555 1_555
C23 N10 1_555 1_555
H21 C23 1_555 1_555
H23 N8 1_555 1_555
H25 O1 1_555 1_555
H27 O2 1_555 1_555
Co1A N1 1_555 1_555
Co1A_2 N3C 1_555 1_555
O1B Co1 1_555 1_555
N1C Co1 1_555 1_555
N1A Co1 1_555 1_555
N2C C2C 1_555 1_555
N3C C19C 1_555 1_555
N3B Co1 1_555 1_555
N4C C15C 1_555 1_555
N5C N6C 1_555 1_555
N6C C10C 1_555 1_555
N7C N8C 1_555 1_555
N8C H22C 1_555 1_555
C1C N1C 1_555 1_555
H1C C1C 1_555 1_555
C2C C1C 1_555 1_555
H2C C2C 1_555 1_555
C3C N1C 1_555 1_555
H3C C3C 1_555 1_555
C4C N2C 1_555 1_555
C5C C4C 1_555 1_555
H4C C5C 1_555 1_555
C6C C5C 1_555 1_555
H5C C6C 1_555 1_555
C7C C6C 1_555 1_555
C8C C7C 1_555 1_555
H6C C8C 1_555 1_555
C9C C4C 1_555 1_555
H7C C9C 1_555 1_555
C10C N7C 1_555 1_555
C11C N5C 1_555 1_555
C12C C11C 1_555 1_555
C13C C12C 1_555 1_555
H8C C13C 1_555 1_555
C14C C13C 1_555 1_555
H9C C14C 1_555 1_555
C15C C14C 1_555 1_555
C16C C15C 1_555 1_555
H10C C16C 1_555 1_555
C17C C12C 1_555 1_555
H11C C17C 1_555 1_555
C18C N4C 1_555 1_555
H12C C18C 1_555 1_555
C19C C18C 1_555 1_555
H13C C19C 1_555 1_555
C20C N3C 1_555 1_555
H14C C20C 1_555 1_555
H23C N8C 1_555 1_555
H24B O1B 1_555 1_555
H25B O1B 1_555 1_555
N2 C3 1_555 1_555
N4 C20 1_555 1_555
N7 C11 1_555 1_555
C7 C10 1_555 1_555
C8 C9 1_555 1_555
C16 C17 1_555 1_555
C18 C19 1_555 1_555
N2C C3C 1_555 1_555
N4C C20C 1_555 1_555
N7C C11C 1_555 1_555
C7C C10C 1_555 1_555
C8C C9C 1_555 1_555
C16C C17C 1_555 1_555

#END
