
#######################################################################
#
#                 Cambridge Crystallographic Data Centre
#                                CCDC 
#
#######################################################################
#
# If this CIF has been generated from an entry in the Cambridge 
# Structural Database, then it will include bibliographic, chemical, 
# crystal, experimental, refinement or atomic coordinate data resulting 
# from the CCDC's data processing and validation procedures.
#
#######################################################################

data_RUVFEU
_symmetry_cell_setting           monoclinic
_symmetry_space_group_name_H-M   'P 21/c'
_symmetry_Int_Tables_number      14
_space_group_name_Hall           '-P 2ybc'
loop_
_symmetry_equiv_pos_site_id
_symmetry_equiv_pos_as_xyz
1 x,y,z
2 -x,1/2+y,1/2-z
3 -x,-y,-z
4 x,1/2-y,1/2+z
_cell_length_a                   13.894(4)
_cell_length_b                   11.540(2)
_cell_length_c                   17.899(2)
_cell_angle_alpha                90
_cell_angle_beta                 110.321(4)
_cell_angle_gamma                90
_cell_volume                     2691.25
loop_
_atom_site_label
_atom_site_type_symbol
_atom_site_fract_x
_atom_site_fract_y
_atom_site_fract_z
Co1 Co 0.0000 0.0000 0.5000
O6 O 0.0033(3) 0.1813(3) 0.5151(2)
N1 N -0.9938(3) -0.5274(4) 0.8835(2)
N2 N -0.9385(3) -0.5060(3) 0.7830(2)
N3 N -0.1631(3) -0.0076(3) 0.4542(2)
N4 N -0.3191(3) -0.0619(3) 0.4442(2)
N5 N -0.7498(3) -0.2345(4) 0.4631(2)
N6 N -0.8163(3) -0.2802(4) 0.4982(2)
N7 N -0.5731(3) -0.3151(5) 0.6509(3)
C1 C -0.9560(4) -0.4543(4) 0.8446(3)
H1 H -0.9428 -0.3765 0.8580
C2 C -1.0017(4) -0.6321(5) 0.8444(3)
H2 H -1.0262 -0.7005 0.8586
C3 C -0.9682(4) -0.6199(5) 0.7823(3)
H3 H -0.9657 -0.6770 0.7464
C4 C -0.8942(4) -0.4535(4) 0.7300(3)
C5 C -0.9299(4) -0.4864(4) 0.6502(3)
H4 H -0.9838 -0.5387 0.6308
C6 C -0.8834(4) -0.4396(4) 0.6010(3)
H5 H -0.9057 -0.4611 0.5477
C7 C -0.8032(4) -0.3603(4) 0.6296(3)
C8 C -0.7701(4) -0.3277(4) 0.7085(3)
H6 H -0.7172 -0.2740 0.7275
C9 C -0.8150(4) -0.3743(4) 0.7595(3)
H7 H -0.7923 -0.3529 0.8129
C10 C -0.2302(4) 0.0232(4) 0.3807(3)
H8 H -0.2119 0.0609 0.3416
C11 C -0.3273(4) -0.0091(4) 0.3730(3)
H9 H -0.3867 0.0019 0.3291
C12 C -0.2198(4) -0.0588(4) 0.4908(3)
H10 H -0.1940 -0.0889 0.5421
C13 C -0.4018(4) -0.1100(4) 0.4642(3)
C14 C -0.3999(4) -0.1055(4) 0.5417(3)
H11 H -0.3444 -0.0721 0.5812
C15 C -0.4811(4) -0.1511(4) 0.5607(3)
H12 H -0.4793 -0.1495 0.6131
C16 C -0.5648(3) -0.1988(4) 0.5015(3)
C17 C -0.5648(4) -0.2036(4) 0.4239(3)
H13 H -0.6200 -0.2372 0.3842
C18 C -0.4839(3) -0.1588(4) 0.4053(3)
H14 H -0.4848 -0.1617 0.3531
C19 C -0.7607(4) -0.3101(4) 0.5717(3)
C20 C -0.6573(4) -0.2399(4) 0.5155(3)
N9 N -0.6601(3) -0.2862(3) 0.5852(2)
H22 H -0.572(5) -0.263(6) 0.686(4)
H23 H -0.584(5) -0.377(6) 0.663(4)
H24 H 0.059(4) 0.207(4) 0.552(3)
H25 H -0.037(4) 0.213(5) 0.524(3)
Co1A Co -1.0000 -0.5000 1.0000
Co1A_2 Co 1.0000 0.5000 0.0000
O6B O -0.0033(3) -0.1813(3) 0.4849(2)
N1B N 0.9938(3) 0.5274(4) 0.1165(2)
N1A N -0.0062(3) -0.0274(4) 0.6165(2)
N1C N 0.0062(3) 0.0274(4) 0.3835(2)
N2B N 0.9385(3) 0.5060(3) 0.2170(2)
N3B N 0.1631(3) 0.0076(3) 0.5458(2)
N4B N 0.3191(3) 0.0619(3) 0.5558(2)
N5B N 0.7498(3) 0.2345(4) 0.5369(2)
N6B N 0.8163(3) 0.2802(4) 0.5018(2)
N7B N 0.5731(3) 0.3151(5) 0.3491(3)
C1B C 0.9560(4) 0.4543(4) 0.1554(3)
H1B H 0.9428 0.3765 0.1420
C2B C 1.0017(4) 0.6321(5) 0.1556(3)
H2B H 1.0262 0.7005 0.1414
C3B C 0.9682(4) 0.6199(5) 0.2177(3)
H3B H 0.9657 0.6770 0.2536
C4B C 0.8942(4) 0.4535(4) 0.2700(3)
C5B C 0.9299(4) 0.4864(4) 0.3498(3)
H4B H 0.9838 0.5387 0.3692
C6B C 0.8834(4) 0.4396(4) 0.3990(3)
H5B H 0.9057 0.4611 0.4523
C7B C 0.8032(4) 0.3603(4) 0.3704(3)
C8B C 0.7701(4) 0.3277(4) 0.2915(3)
H6B H 0.7172 0.2740 0.2725
C9B C 0.8150(4) 0.3743(4) 0.2405(3)
H7B H 0.7923 0.3529 0.1871
C10B C 0.2302(4) -0.0232(4) 0.6193(3)
H8B H 0.2119 -0.0609 0.6584
C11B C 0.3273(4) 0.0091(4) 0.6270(3)
H9B H 0.3867 -0.0019 0.6709
C12B C 0.2198(4) 0.0588(4) 0.5092(3)
H10B H 0.1940 0.0889 0.4579
C13B C 0.4018(4) 0.1100(4) 0.5358(3)
C14B C 0.3999(4) 0.1055(4) 0.4583(3)
H11B H 0.3444 0.0721 0.4188
C15B C 0.4811(4) 0.1511(4) 0.4393(3)
H12B H 0.4793 0.1495 0.3869
C16B C 0.5648(3) 0.1988(4) 0.4985(3)
C17B C 0.5648(4) 0.2036(4) 0.5761(3)
H13B H 0.6200 0.2372 0.6158
C18B C 0.4839(3) 0.1588(4) 0.5947(3)
H14B H 0.4848 0.1617 0.6469
C19B C 0.7607(4) 0.3101(4) 0.4283(3)
C20B C 0.6573(4) 0.2399(4) 0.4845(3)
N9B N 0.6601(3) 0.2862(3) 0.4148(2)
H22B H 0.572(5) 0.263(6) 0.314(4)
H23B H 0.584(5) 0.377(6) 0.337(4)
H24B H -0.059(4) -0.207(4) 0.448(3)
H25B H 0.037(4) -0.213(5) 0.476(3)
Cl1 Cl -0.4321(13) -0.1106(9) 0.8011(9)
O1 O -0.3781(3) -0.2097(3) 0.7872(3)
O2 O -0.3845(3) -0.0700(4) 0.8764(2)
O3 O -0.5335(2) -0.1388(3) 0.7825(2)
O4 O -0.4237(3) -0.0230(3) 0.74565(19)
O5 O -0.1707(4) -0.3543(5) 0.7247(3)
N8 N -0.2842(4) -0.4127(4) 0.6072(3)
C21 C -0.2103(6) -0.4106(8) 0.5664(5)
H15 H -0.2427 -0.4362 0.5125
H16 H -0.1540 -0.4612 0.5933
H17 H -0.1852 -0.3330 0.5666
C22 C -0.3872(5) -0.4511(6) 0.5611(4)
H18 H -0.3907 -0.4700 0.5080
H19 H -0.4353 -0.3904 0.5591
H20 H -0.4039 -0.5184 0.5858
C23 C -0.2569(5) -0.3822(6) 0.6830(4)
H21 H -0.3075 -0.3821 0.7061
O7 O -0.1559(4) -0.2399(4) 0.8593(3)
H26 H -0.218(6) -0.213(6) 0.859(4)
H27 H -0.167(8) -0.283(9) 0.813(7)
loop_
_geom_bond_atom_site_label_1
_geom_bond_atom_site_label_2
_geom_bond_site_symmetry_1
_geom_bond_site_symmetry_2
Co1 O6 1_555 1_555
Cl1 O1 1_555 1_555
O2 Cl1 1_555 1_555
O3 Cl1 1_555 1_555
O4 Cl1 1_555 1_555
O5 C23 1_555 1_555
O6 H24 1_555 1_555
O7 H26 1_555 1_555
N1 C1 1_555 1_555
N2 C1 1_555 1_555
N3 Co1 1_555 1_555
N4 C11 1_555 1_555
N5 N6 1_555 1_555
N6 C19 1_555 1_555
N7 N9 1_555 1_555
N8 C21 1_555 1_555
C1 H1 1_555 1_555
C2 N1 1_555 1_555
H2 C2 1_555 1_555
C3 N2 1_555 1_555
H3 C3 1_555 1_555
C4 N2 1_555 1_555
C5 C4 1_555 1_555
H4 C5 1_555 1_555
C6 C5 1_555 1_555
H5 C6 1_555 1_555
C7 C6 1_555 1_555
C8 C7 1_555 1_555
H6 C8 1_555 1_555
C9 C4 1_555 1_555
H7 C9 1_555 1_555
C10 N3 1_555 1_555
H8 C10 1_555 1_555
C11 C10 1_555 1_555
H9 C11 1_555 1_555
C12 N3 1_555 1_555
H10 C12 1_555 1_555
C13 N4 1_555 1_555
C14 C13 1_555 1_555
H11 C14 1_555 1_555
C15 C14 1_555 1_555
H12 C15 1_555 1_555
C16 C15 1_555 1_555
C17 C16 1_555 1_555
H13 C17 1_555 1_555
C18 C13 1_555 1_555
H14 C18 1_555 1_555
C19 C7 1_555 1_555
C20 N5 1_555 1_555
N9 C19 1_555 1_555
C21 H15 1_555 1_555
H16 C21 1_555 1_555
H17 C21 1_555 1_555
C22 N8 1_555 1_555
H18 C22 1_555 1_555
H19 C22 1_555 1_555
H20 C22 1_555 1_555
C23 N8 1_555 1_555
H21 C23 1_555 1_555
H22 N7 1_555 1_555
H23 N7 1_555 1_555
H25 O6 1_555 1_555
H27 O7 1_555 1_555
Co1A N1 1_555 1_555
Co1A_2 N1B 1_555 1_555
O6B Co1 1_555 1_555
N1B C1B 1_555 1_555
N1A Co1 1_555 1_555
N1C Co1 1_555 1_555
N2B C1B 1_555 1_555
N3B Co1 1_555 1_555
N4B C11B 1_555 1_555
N5B N6B 1_555 1_555
N6B C19B 1_555 1_555
N7B N9B 1_555 1_555
C1B H1B 1_555 1_555
C2B N1B 1_555 1_555
H2B C2B 1_555 1_555
C3B N2B 1_555 1_555
H3B C3B 1_555 1_555
C4B N2B 1_555 1_555
C5B C4B 1_555 1_555
H4B C5B 1_555 1_555
C6B C5B 1_555 1_555
H5B C6B 1_555 1_555
C7B C6B 1_555 1_555
C8B C7B 1_555 1_555
H6B C8B 1_555 1_555
C9B C4B 1_555 1_555
H7B C9B 1_555 1_555
C10B N3B 1_555 1_555
H8B C10B 1_555 1_555
C11B C10B 1_555 1_555
H9B C11B 1_555 1_555
C12B N3B 1_555 1_555
H10B C12B 1_555 1_555
C13B N4B 1_555 1_555
C14B C13B 1_555 1_555
H11B C14B 1_555 1_555
C15B C14B 1_555 1_555
H12B C15B 1_555 1_555
C16B C15B 1_555 1_555
C17B C16B 1_555 1_555
H13B C17B 1_555 1_555
C18B C13B 1_555 1_555
H14B C18B 1_555 1_555
C19B C7B 1_555 1_555
C20B N5B 1_555 1_555
N9B C19B 1_555 1_555
H22B N7B 1_555 1_555
H23B N7B 1_555 1_555
H24B O6B 1_555 1_555
H25B O6B 1_555 1_555
N4 C12 1_555 1_555
C2 C3 1_555 1_555
C8 C9 1_555 1_555
C16 C20 1_555 1_555
C17 C18 1_555 1_555
C20 N9 1_555 1_555
N4B C12B 1_555 1_555
C2B C3B 1_555 1_555
C8B C9B 1_555 1_555
C16B C20B 1_555 1_555
C17B C18B 1_555 1_555
C20B N9B 1_555 1_555

#END
