
#######################################################################
#
#                 Cambridge Crystallographic Data Centre
#                                CCDC 
#
#######################################################################
#
# If this CIF has been generated from an entry in the Cambridge 
# Structural Database, then it will include bibliographic, chemical, 
# crystal, experimental, refinement or atomic coordinate data resulting 
# from the CCDC's data processing and validation procedures.
#
#######################################################################

data_RUVKID
_symmetry_cell_setting           monoclinic
_symmetry_space_group_name_H-M   'P 21/n'
_symmetry_Int_Tables_number      14
_space_group_name_Hall           '-P 2yn'
loop_
_symmetry_equiv_pos_site_id
_symmetry_equiv_pos_as_xyz
1 x,y,z
2 1/2-x,1/2+y,1/2-z
3 -x,-y,-z
4 1/2+x,1/2-y,1/2+z
_cell_length_a                   10.9611(4)
_cell_length_b                   17.2383(10)
_cell_length_c                   11.5873(6)
_cell_angle_alpha                90
_cell_angle_beta                 99.167(3)
_cell_angle_gamma                90
_cell_volume                     2161.47
loop_
_atom_site_label
_atom_site_type_symbol
_atom_site_fract_x
_atom_site_fract_y
_atom_site_fract_z
Eu1 Eu 0.203075(12) 0.006713(8) 0.190715(11)
O1 O 0.41170(19) -0.01847(13) 0.30805(19)
O2 O 0.43161(19) 0.01843(13) 0.13049(18)
O3 O 0.57041(18) -0.16698(12) 0.19468(17)
O4 O 0.65703(18) -0.16194(12) 0.03581(16)
H1 H 0.7160 -0.1262 0.0175
O5 O 0.83512(17) -0.07613(12) -0.00698(16)
O6 O 1.00880(17) -0.05300(12) 0.11563(17)
O7 O 0.86394(19) -0.19423(12) 0.21879(17)
O8 O 0.95649(17) -0.19089(12) 0.40219(17)
H2 H 0.9607 -0.1510 0.4650
O9 O 0.8198(2) -0.01288(12) 0.60858(18)
O10 O 0.96430(17) -0.09039(12) 0.55691(16)
O11 O 0.70260(18) -0.17214(12) 0.45539(18)
O12 O 0.51133(18) -0.12879(13) 0.42941(17)
H3 H 0.4699 -0.0957 0.3918
O13 O 0.28983(18) 0.13525(12) 0.22920(18)
H4 H 0.2384 0.1692 0.2399
H5 H 0.3755 0.1497 0.2668
O14 O 0.23302(18) -0.08580(12) 0.04122(17)
H6 H 0.1859 -0.1209 0.0257
H7 H 0.3018 -0.0981 0.0125
O15 O 0.20380(19) -0.12499(12) 0.27199(18)
H8 H 0.2192 -0.1607 0.2275
H9 H 0.2039 -0.1392 0.3461
O16 O 0.04144(17) 0.09936(12) 0.20588(17)
H10 H 0.0114 0.1108 0.2674
H11 H -0.0006 0.1337 0.1478
C1 C 0.6190(3) -0.01197(17) 0.2605(3)
H24 H 0.6471 0.0420 0.2610
C2 C 0.6783(2) -0.04911(17) 0.1620(2)
H25 H 0.6502 -0.0185 0.0915
C3 C 0.8212(2) -0.03742(17) 0.1906(2)
H26 H 0.8311 0.0189 0.1992
C4 C 0.8798(2) -0.06952(16) 0.3109(2)
H27 H 0.9637 -0.0482 0.3253
C5 C 0.8129(2) -0.03253(17) 0.4055(2)
H28 H 0.8258 0.0232 0.3962
C6 C 0.6710(2) -0.04075(17) 0.3855(2)
H29 H 0.6418 -0.0034 0.4387
C7 C 0.4792(3) -0.00486(16) 0.2299(3)
C8 C 0.6333(2) -0.13176(17) 0.1345(2)
C9 C 0.8939(3) -0.05775(16) 0.0938(2)
C10 C 0.8964(2) -0.15696(17) 0.3078(2)
C11 C 0.8694(2) -0.04803(17) 0.5333(2)
C12 C 0.6296(3) -0.11972(18) 0.4226(2)
Eu1B Eu 0.796925(12) -0.006713(8) -0.190715(11)
Eu1_2 Eu 1.203075(12) 0.006713(8) 0.190715(11)
Eu1B_2 Eu 0.796925(12) -0.006713(8) 0.809285(11)
O5B O 0.16488(17) 0.07613(12) 0.00698(16)
O6_2 O 0.00880(17) -0.05300(12) 0.11563(17)
O9B O 0.1802(2) 0.01288(12) 0.39142(18)
O17 O 0.33227(19) -0.24515(13) 0.16536(18)
H12 H 0.4084 -0.2254 0.1727
H13 H 0.2939 -0.2593 0.0892
O18 O 0.6862(2) -0.33093(15) 0.2313(2)
H14 H 0.6572 -0.2781 0.2240
H15 H 0.7486 -0.3313 0.2805
O19 O 0.7436(2) -0.32196(14) -0.0002(2)
H16 H 0.7297 -0.2775 -0.0056
H17 H 0.7186 -0.3373 0.0693
O20 O 1.0535(2) -0.19486(13) -0.02276(19)
H18 H 1.0980 -0.2415 -0.0215
H19 H 1.0031 -0.1966 0.0325
O21 O 0.98074(19) -0.33191(14) 0.16719(19)
H20 H 0.9276 -0.2916 0.1812
H21 H 0.9621 -0.3422 0.0831
O22 O 0.40084(19) -0.14574(13) -0.08664(18)
H22 H 0.4588 -0.1073 -0.1024
H23 H 0.4419 -0.1947 -0.0748
loop_
_geom_bond_atom_site_label_1
_geom_bond_atom_site_label_2
_geom_bond_site_symmetry_1
_geom_bond_site_symmetry_2
Eu1 O1 1_555 1_555
O1 C7 1_555 1_555
O2 Eu1 1_555 1_555
O3 C8 1_555 1_555
O4 H1 1_555 1_555
O5 C9 1_555 1_555
O6 C9 1_555 1_555
O7 C10 1_555 1_555
O8 H2 1_555 1_555
O9 C11 1_555 1_555
O10 C11 1_555 1_555
O11 C12 1_555 1_555
O12 H3 1_555 1_555
O13 Eu1 1_555 1_555
H4 O13 1_555 1_555
H5 O13 1_555 1_555
O14 Eu1 1_555 1_555
H6 O14 1_555 1_555
H7 O14 1_555 1_555
O15 Eu1 1_555 1_555
H8 O15 1_555 1_555
H9 O15 1_555 1_555
O16 Eu1 1_555 1_555
H10 O16 1_555 1_555
H11 O16 1_555 1_555
O17 H12 1_555 1_555
H13 O17 1_555 1_555
O18 H14 1_555 1_555
H15 O18 1_555 1_555
O19 H16 1_555 1_555
H17 O19 1_555 1_555
O20 H18 1_555 1_555
H19 O20 1_555 1_555
O21 H20 1_555 1_555
H21 O21 1_555 1_555
O22 H22 1_555 1_555
H23 O22 1_555 1_555
C1 H24 1_555 1_555
C2 C1 1_555 1_555
H25 C2 1_555 1_555
C3 C2 1_555 1_555
H26 C3 1_555 1_555
C4 C3 1_555 1_555
H27 C4 1_555 1_555
C5 C4 1_555 1_555
H28 C5 1_555 1_555
C6 C1 1_555 1_555
H29 C6 1_555 1_555
C7 O2 1_555 1_555
C8 O4 1_555 1_555
C9 C3 1_555 1_555
C10 O8 1_555 1_555
C11 C5 1_555 1_555
C12 O12 1_555 1_555
Eu1B O5 1_555 1_555
Eu1_2 O6 1_555 1_555
Eu1B_2 O9 1_555 1_555
O5B Eu1 1_555 1_555
O6_2 Eu1 1_555 1_555
O9B Eu1 1_555 1_555
C1 C7 1_555 1_555
C2 C8 1_555 1_555
C4 C10 1_555 1_555
C5 C6 1_555 1_555
C6 C12 1_555 1_555

#END
