
#######################################################################
#
#                 Cambridge Crystallographic Data Centre
#                                CCDC 
#
#######################################################################
#
# If this CIF has been generated from an entry in the Cambridge 
# Structural Database, then it will include bibliographic, chemical, 
# crystal, experimental, refinement or atomic coordinate data resulting 
# from the CCDC's data processing and validation procedures.
#
#######################################################################

data_RUVKOJ
_symmetry_cell_setting           orthorhombic
_symmetry_space_group_name_H-M   'P n n m'
_symmetry_Int_Tables_number      58
_space_group_name_Hall           '-P 2 2n'
loop_
_symmetry_equiv_pos_site_id
_symmetry_equiv_pos_as_xyz
1 x,y,z
2 -x,-y,z
3 1/2-x,1/2+y,1/2-z
4 1/2+x,1/2-y,1/2-z
5 -x,-y,-z
6 x,y,-z
7 1/2+x,1/2-y,1/2+z
8 1/2-x,1/2+y,1/2+z
_cell_length_a                   9.1908(11)
_cell_length_b                   15.820(2)
_cell_length_c                   8.8764(7)
_cell_angle_alpha                90
_cell_angle_beta                 90
_cell_angle_gamma                90
_cell_volume                     1290.61
loop_
_atom_site_label
_atom_site_type_symbol
_atom_site_fract_x
_atom_site_fract_y
_atom_site_fract_z
Eu1 Eu 0.27153(7) 0.18448(4) 0.0000
O1 O 0.3166(7) 0.0567(4) 0.1655(7)
O2 O 0.4781(7) 0.1588(4) 0.1720(7)
O3 O 0.6057(10) 0.2022(6) 0.5000
O4 O 0.3672(11) 0.2329(6) 0.5000
O5 O 0.1929(8) 0.2263(4) 0.2517(7)
H1 H 0.2357 0.2342 0.3412
H2 H 0.1315 0.2676 0.2442
O6 O 0.4104(11) 0.3176(6) 0.0000
H3 H 0.4094 0.3548 0.0910
O7 O 0.0255(11) 0.1239(6) 0.0000
H4 H -0.0226 0.1082 0.0787
C1 C 0.4311(10) 0.0884(6) 0.2217(10)
C2 C 0.5073(10) 0.0482(5) 0.3559(9)
H5 H 0.6109 0.0627 0.3517
C3 C 0.4412(14) 0.0872(8) 0.5000
H6 H 0.3357 0.0781 0.5000
C4 C 0.4714(15) 0.1794(9) 0.5000
Eu1A Eu 0.72847(7) -0.18448(4) 0.0000
Eu1C Eu 0.77153(7) 0.31552(4) 0.5000
Eu1A_2 Eu 0.72847(7) -0.18448(4) 1.0000
Eu1_2 Eu 0.27153(7) 0.18448(4) 1.0000
Eu1B Eu 0.22847(7) -0.31552(4) 0.5000
O1A O 0.6834(7) -0.0567(4) 0.1655(7)
O1D O 0.6834(7) -0.0567(4) 0.8345(7)
O1E O 0.3166(7) 0.0567(4) 0.8345(7)
O1E_2 O 0.3166(7) 0.0567(4) -0.1655(7)
O1D_2 O 0.6834(7) -0.0567(4) -0.1655(7)
O2A O 0.5219(7) -0.1588(4) 0.1720(7)
O2D O 0.5219(7) -0.1588(4) 0.8280(7)
O2E O 0.4781(7) 0.1588(4) 0.8280(7)
O2E_2 O 0.4781(7) 0.1588(4) -0.1720(7)
O2D_2 O 0.5219(7) -0.1588(4) -0.1720(7)
O3A O 0.3943(10) -0.2022(6) 0.5000
O3C O 0.1057(10) 0.2978(6) 0.0000
O3B O 0.8943(10) -0.2978(6) 0.0000
O4A O 0.6328(11) -0.2329(6) 0.5000
O5E O 0.1929(8) 0.2263(4) -0.2517(7)
O5A O 0.8071(8) -0.2263(4) 0.2517(7)
O5D O 0.8071(8) -0.2263(4) -0.2517(7)
H1E H 0.2357 0.2342 -0.3412
H1A H 0.7643 -0.2342 0.3412
H1D H 0.7643 -0.2342 -0.3412
H2E H 0.1315 0.2676 -0.2442
H2A H 0.8685 -0.2676 0.2442
H2D H 0.8685 -0.2676 -0.2442
O6A O 0.5896(11) -0.3176(6) 0.0000
H3E H 0.4094 0.3548 -0.0910
H3A H 0.5906 -0.3548 0.0910
H3D H 0.5906 -0.3548 -0.0910
O7A O 0.9745(11) -0.1239(6) 0.0000
H4E H -0.0226 0.1082 -0.0787
H4A H 1.0226 -0.1082 0.0787
H4D H 1.0226 -0.1082 -0.0787
C1A C 0.5689(10) -0.0884(6) 0.2217(10)
C1D C 0.5689(10) -0.0884(6) 0.7783(10)
C1E C 0.4311(10) 0.0884(6) 0.7783(10)
C2A C 0.4927(10) -0.0482(5) 0.3559(9)
C2D C 0.4927(10) -0.0482(5) 0.6441(9)
C2E C 0.5073(10) 0.0482(5) 0.6441(9)
H5A H 0.3891 -0.0627 0.3517
H5E H 0.6109 0.0627 0.6483
H5D H 0.3891 -0.0627 0.6483
C3A C 0.5588(14) -0.0872(8) 0.5000
H6A H 0.6643 -0.0781 0.5000
C4A C 0.5286(15) -0.1794(9) 0.5000
O8 O 0.3927(9) 0.4397(5) 0.2378(9)
loop_
_geom_bond_atom_site_label_1
_geom_bond_atom_site_label_2
_geom_bond_site_symmetry_1
_geom_bond_site_symmetry_2
Eu1 O1 1_555 1_555
O1 C1 1_555 1_555
O2 Eu1 1_555 1_555
O3 C4 1_555 1_555
O4 C4 1_555 1_555
O5 Eu1 1_555 1_555
H1 O5 1_555 1_555
H2 O5 1_555 1_555
O6 Eu1 1_555 1_555
H3 O6 1_555 1_555
O7 Eu1 1_555 1_555
H4 O7 1_555 1_555
C1 O2 1_555 1_555
C2 C1 1_555 1_555
H5 C2 1_555 1_555
C3 C2 1_555 1_555
H6 C3 1_555 1_555
C4 C3 1_555 1_555
Eu1A O1A 1_555 1_555
Eu1C O3 1_555 1_555
Eu1A_2 O1D 1_555 1_555
Eu1_2 O1E 1_555 1_555
Eu1B O3A 1_555 1_555
O1A C1A 1_555 1_555
O1D C1D 1_555 1_555
O1E C1E 1_555 1_555
O1E_2 Eu1 1_555 1_555
O1D_2 Eu1A 1_555 1_555
O2A Eu1A 1_555 1_555
O2D Eu1A_2 1_555 1_555
O2E Eu1_2 1_555 1_555
O2E_2 Eu1 1_555 1_555
O2D_2 Eu1A 1_555 1_555
O3A C4A 1_555 1_555
O3C Eu1 1_555 1_555
O3B Eu1A 1_555 1_555
O4A C4A 1_555 1_555
O5E Eu1 1_555 1_555
O5A Eu1A 1_555 1_555
O5D Eu1A 1_555 1_555
H1E O5E 1_555 1_555
H1A O5A 1_555 1_555
H1D O5D 1_555 1_555
H2E O5E 1_555 1_555
H2A O5A 1_555 1_555
H2D O5D 1_555 1_555
O6A Eu1A 1_555 1_555
H3E O6 1_555 1_555
H3A O6A 1_555 1_555
H3D O6A 1_555 1_555
O7A Eu1A 1_555 1_555
H4E O7 1_555 1_555
H4A O7A 1_555 1_555
H4D O7A 1_555 1_555
C1A O2A 1_555 1_555
C1D O2D 1_555 1_555
C1E O2E 1_555 1_555
C2A C2 1_555 1_555
C2D C1D 1_555 1_555
C2E C3 1_555 1_555
H5A C2A 1_555 1_555
H5E C2E 1_555 1_555
H5D C2D 1_555 1_555
C3A C2A 1_555 1_555
H6A C3A 1_555 1_555
C4A C3A 1_555 1_555
C1A C2A 1_555 1_555
C1E C2E 1_555 1_555
C2D C2E 1_555 1_555
C2D C3A 1_555 1_555

#END
