
#######################################################################
#
#                 Cambridge Crystallographic Data Centre
#                                CCDC 
#
#######################################################################
#
# If this CIF has been generated from an entry in the Cambridge 
# Structural Database, then it will include bibliographic, chemical, 
# crystal, experimental, refinement or atomic coordinate data resulting 
# from the CCDC's data processing and validation procedures.
#
#######################################################################

data_RUVKEZ
_symmetry_cell_setting           monoclinic
_symmetry_space_group_name_H-M   'P 21'
_symmetry_Int_Tables_number      4
_space_group_name_Hall           'P 2yb'
loop_
_symmetry_equiv_pos_site_id
_symmetry_equiv_pos_as_xyz
1 x,y,z
2 -x,1/2+y,-z
_cell_length_a                   9.9108(4)
_cell_length_b                   11.0466(5)
_cell_length_c                   9.9752(4)
_cell_angle_alpha                90
_cell_angle_beta                 117.339(2)
_cell_angle_gamma                90
_cell_volume                     970.11
loop_
_atom_site_label
_atom_site_type_symbol
_atom_site_fract_x
_atom_site_fract_y
_atom_site_fract_z
Eu1 Eu 0.760504(15) 0.788180(19) 0.653769(15)
O1 O 0.7002(3) 0.8337(3) 0.3944(3)
O2 O 0.4859(3) 0.8965(3) 0.3868(3)
O3 O 0.7459(3) 0.6855(3) 0.2331(3)
H1 H 0.7493 0.7461 0.2991
O4 O 0.6297(3) 0.6535(3) -0.0125(3)
O5 O 0.5318(3) 0.8205(2) -0.3157(3)
O6 O 0.7378(3) 0.8734(3) -0.1156(3)
O7 O 0.3594(3) 0.6457(3) -0.3092(3)
H2 H 0.4045 0.7045 -0.3323
O8 O 0.2579(3) 0.6277(3) -0.1551(3)
O9 O 0.0078(3) 0.8039(3) -0.1177(3)
O10 O 0.0164(3) 0.8536(3) -0.3264(3)
O11 O 0.1827(3) 0.6716(3) 0.0991(3)
H3 H 0.1075 0.7172 0.0294
O12 O 0.4318(3) 0.6514(3) 0.1973(3)
O13 O 0.8907(3) 0.6262(3) 0.5908(3)
H4 H 0.8393 0.5515 0.5476
H5 H 0.9612 0.6304 0.5593
O14 O 0.7707(3) 1.0057(3) 0.6574(3)
H6 H 0.7799 1.0541 0.7406
H7 H 0.8248 1.0479 0.6271
O15 O 0.7810(3) 0.6156(3) 0.8173(3)
H8 H 0.7400 0.6075 0.8775
H9 H 0.8595 0.5678 0.8486
O16 O 0.5740(3) 0.6285(3) 0.5100(3)
H10 H 0.5511 0.5586 0.5351
H11 H 0.5220 0.6094 0.4008
C1 C 0.4910(4) 0.8863(4) 0.1494(4)
H18 H 0.4807 0.9741 0.1344
C2 C 0.5890(5) 0.8473(4) 0.0730(5)
H19 H 0.6776 0.9010 0.1148
C3 C 0.5035(4) 0.8786(4) -0.0971(4)
H20 H 0.4903 0.9667 -0.1002
C4 C 0.3398(5) 0.8273(4) -0.1806(5)
H21 H 0.2926 0.8664 -0.2798
C5 C 0.2499(4) 0.8702(4) -0.0986(4)
H22 H 0.2533 0.9588 -0.1023
C6 C 0.3258(5) 0.8394(4) 0.0736(5)
H23 H 0.2721 0.8888 0.1155
C7 C 0.5617(4) 0.8706(4) 0.3206(4)
C8 C 0.6533(5) 0.7199(4) 0.0945(5)
C9 C 0.5984(5) 0.8557(3) -0.1781(4)
C10 C 0.3186(4) 0.6919(4) -0.2106(5)
C11 C 0.0827(5) 0.8391(4) -0.1872(5)
C12 C 0.3177(5) 0.7110(4) 0.1224(5)
Eu1_2 Eu 0.760504(15) 0.788180(19) -0.346231(15)
Eu1_3 Eu -0.239496(15) 0.788180(19) -0.346231(15)
O5_2 O 0.5318(3) 0.8205(2) 0.6843(3)
O6_2 O 0.7378(3) 0.8734(3) 0.8844(3)
O9_2 O 1.0078(3) 0.8039(3) 0.8823(3)
O10_2 O 1.0164(3) 0.8536(3) 0.6736(3)
O17 O 0.2014(4) 0.8751(3) 0.4148(4)
H12 H 0.2959 0.8818 0.4377
H13 H 0.1333 0.8897 0.3207
O18 O 1.0587(3) 0.6557(3) 0.4273(4)
H14 H 0.9610 0.6630 0.3413
H15 H 1.1031 0.7295 0.4373
O19 O 0.9804(3) 0.9677(3) 0.1398(3)
H16 H 0.9064 0.9435 0.0552
H17 H 0.9212 1.0227 0.1583
loop_
_geom_bond_atom_site_label_1
_geom_bond_atom_site_label_2
_geom_bond_site_symmetry_1
_geom_bond_site_symmetry_2
Eu1 O1 1_555 1_555
O1 C7 1_555 1_555
O2 Eu1 1_555 1_555
O3 H1 1_555 1_555
O4 C8 1_555 1_555
O5 C9 1_555 1_555
O6 C9 1_555 1_555
O7 H2 1_555 1_555
O8 C10 1_555 1_555
O9 C11 1_555 1_555
O10 C11 1_555 1_555
O11 H3 1_555 1_555
O12 C12 1_555 1_555
O13 Eu1 1_555 1_555
H4 O13 1_555 1_555
H5 O13 1_555 1_555
O14 Eu1 1_555 1_555
H6 O14 1_555 1_555
H7 O14 1_555 1_555
O15 Eu1 1_555 1_555
H8 O15 1_555 1_555
H9 O15 1_555 1_555
O16 Eu1 1_555 1_555
H10 O16 1_555 1_555
H11 O16 1_555 1_555
O17 H12 1_555 1_555
H13 O17 1_555 1_555
O18 H14 1_555 1_555
H15 O18 1_555 1_555
O19 H16 1_555 1_555
H17 O19 1_555 1_555
C1 H18 1_555 1_555
C2 C1 1_555 1_555
H19 C2 1_555 1_555
C3 C2 1_555 1_555
H20 C3 1_555 1_555
C4 C3 1_555 1_555
H21 C4 1_555 1_555
C5 C4 1_555 1_555
H22 C5 1_555 1_555
C6 C1 1_555 1_555
H23 C6 1_555 1_555
C7 O2 1_555 1_555
C8 O3 1_555 1_555
C9 C3 1_555 1_555
C10 O7 1_555 1_555
C11 C5 1_555 1_555
C12 O11 1_555 1_555
Eu1_2 O5 1_555 1_555
Eu1_3 O9 1_555 1_555
O5_2 Eu1 1_555 1_555
O6_2 Eu1 1_555 1_555
O9_2 Eu1 1_555 1_555
O10_2 Eu1 1_555 1_555
O6 Eu1_2 1_555 1_555
O10 Eu1_3 1_555 1_555
C1 C7 1_555 1_555
C2 C8 1_555 1_555
C4 C10 1_555 1_555
C5 C6 1_555 1_555
C6 C12 1_555 1_555

#END
