
#######################################################################
#
#                 Cambridge Crystallographic Data Centre
#                                CCDC 
#
#######################################################################
#
# If this CIF has been generated from an entry in the Cambridge 
# Structural Database, then it will include bibliographic, chemical, 
# crystal, experimental, refinement or atomic coordinate data resulting 
# from the CCDC's data processing and validation procedures.
#
#######################################################################

data_RUVLAV
_symmetry_cell_setting           triclinic
_symmetry_space_group_name_H-M   'P -1'
_symmetry_Int_Tables_number      2
_space_group_name_Hall           '-P 1'
loop_
_symmetry_equiv_pos_site_id
_symmetry_equiv_pos_as_xyz
1 x,y,z
2 -x,-y,-z
_cell_length_a                   6.7468(7)
_cell_length_b                   7.4849(8)
_cell_length_c                   10.1537(10)
_cell_angle_alpha                84.349(2)
_cell_angle_beta                 76.610(1)
_cell_angle_gamma                74.816(2)
_cell_volume                     481.01
loop_
_atom_site_label
_atom_site_type_symbol
_atom_site_fract_x
_atom_site_fract_y
_atom_site_fract_z
La1 La 0.21627(8) 0.20548(7) 0.93948(5)
Cl1 Cl 0.1022(3) 0.4885(3) 1.1452(2)
Cl2 Cl 0.1733(3) -0.1530(3) 0.8872(2)
Cl3 Cl 0.3575(3) -0.0092(3) 1.1635(2)
O1 O 0.2563(10) 0.2033(9) 0.6825(6)
O2 O 0.4369(10) 0.4352(9) 0.8595(7)
H1 H 0.541(18) 0.447(16) 0.840(11)
C1 C 0.1127(19) 0.1454(19) 0.6180(11)
H2 H 0.1496 0.0086 0.6149
H3 H -0.0333 0.1863 0.6707
C2 C 0.129(2) 0.227(2) 0.4831(12)
H4 H 0.0134 0.3392 0.4798
H5 H 0.1233 0.1376 0.4189
C3 C 0.3409(18) 0.2750(18) 0.4490(10)
H6 H 0.4529 0.1714 0.4044
H7 H 0.3368 0.3874 0.3885
C4 C 0.3770(18) 0.3085(15) 0.5849(10)
H8 H 0.5282 0.2658 0.5870
H9 H 0.3285 0.4420 0.6040
La1A La -0.21627(8) 0.79452(7) 1.06052(5)
Cl1A Cl -0.1022(3) 0.5115(3) 0.8548(2)
La1A_2 La -0.21627(8) -0.20548(7) 1.06052(5)
Cl2A Cl -0.1733(3) 0.1530(3) 1.1128(2)
La1A_3 La 0.78373(8) -0.20548(7) 1.06052(5)
Cl3A Cl 0.6425(3) 0.0092(3) 0.8365(2)
loop_
_geom_bond_atom_site_label_1
_geom_bond_atom_site_label_2
_geom_bond_site_symmetry_1
_geom_bond_site_symmetry_2
La1 Cl1 1_555 1_555
Cl1 La1A 1_555 1_555
Cl2 La1 1_555 1_555
Cl3 La1 1_555 1_555
O1 La1 1_555 1_555
O2 La1 1_555 1_555
H1 O2 1_555 1_555
C1 O1 1_555 1_555
H2 C1 1_555 1_555
H3 C1 1_555 1_555
C2 C1 1_555 1_555
H4 C2 1_555 1_555
H5 C2 1_555 1_555
C3 C2 1_555 1_555
H6 C3 1_555 1_555
H7 C3 1_555 1_555
C4 O1 1_555 1_555
H8 C4 1_555 1_555
H9 C4 1_555 1_555
La1A Cl1A 1_555 1_555
Cl1A La1 1_555 1_555
La1A_2 Cl2 1_555 1_555
Cl2A La1 1_555 1_555
La1A_3 Cl3 1_555 1_555
Cl3A La1 1_555 1_555
C3 C4 1_555 1_555
La1A_2 Cl2A 1_555 1_555
La1A_3 Cl3A 1_555 1_555

#END
