
#######################################################################
#
#                 Cambridge Crystallographic Data Centre
#                                CCDC 
#
#######################################################################
#
# If this CIF has been generated from an entry in the Cambridge 
# Structural Database, then it will include bibliographic, chemical, 
# crystal, experimental, refinement or atomic coordinate data resulting 
# from the CCDC's data processing and validation procedures.
#
#######################################################################

data_RUVLAV01
_symmetry_cell_setting           triclinic
_symmetry_space_group_name_H-M   'P -1'
_symmetry_Int_Tables_number      2
_space_group_name_Hall           '-P 1'
loop_
_symmetry_equiv_pos_site_id
_symmetry_equiv_pos_as_xyz
1 x,y,z
2 -x,-y,-z
_cell_length_a                   6.747(3)
_cell_length_b                   7.514(3)
_cell_length_c                   10.223(3)
_cell_angle_alpha                83.25(4)
_cell_angle_beta                 76.80(4)
_cell_angle_gamma                74.52(4)
_cell_volume                     485.392
loop_
_atom_site_label
_atom_site_type_symbol
_atom_site_fract_x
_atom_site_fract_y
_atom_site_fract_z
La1 La -0.28564(5) 0.70667(4) 0.93974(3)
Cl1 Cl -0.3960(2) 0.9831(2) 1.1435(2)
Cl2 Cl -0.3271(2) 0.3494(2) 0.8897(2)
Cl3 Cl -0.1396(2) 0.4891(2) 1.1629(1)
O1 O -0.2523(8) 0.7099(6) 0.6849(4)
C1 C -0.127(1) 0.809(1) 0.5848(8)
C2 C -0.161(2) 0.776(1) 0.4514(8)
C3 C -0.356(2) 0.709(2) 0.482(1)
C4 C -0.402(2) 0.665(1) 0.6216(9)
O2 O -0.0632(7) 0.9363(5) 0.8588(5)
H1 H 0.0190 0.7620 0.5889
H2 H -0.1728 0.9358 0.5993
H3 H -0.1776 0.8873 0.3933
H4 H -0.0441 0.6828 0.4062
H5 H -0.4676 0.8032 0.4564
H6 H -0.3333 0.6000 0.4331
H7 H -0.3968 0.5368 0.6367
H8 H -0.5432 0.7361 0.6588
H9 H 0.0572 0.9527 0.8587
H10 H -0.1346 1.0488 0.8674
La1A La -0.71436(5) 1.29333(4) 1.06026(3)
Cl1A Cl -0.6040(2) 1.0169(2) 0.8565(2)
La1A_2 La -0.71436(5) 0.29333(4) 1.06026(3)
Cl2A Cl -0.6729(2) 0.6506(2) 1.1103(2)
La1A_3 La 0.28564(5) 0.29333(4) 1.06026(3)
Cl3A Cl 0.1396(2) 0.5109(2) 0.8371(1)
loop_
_geom_bond_atom_site_label_1
_geom_bond_atom_site_label_2
_geom_bond_site_symmetry_1
_geom_bond_site_symmetry_2
La1 Cl1 1_555 1_555
Cl1 La1A 1_555 1_555
Cl2 La1 1_555 1_555
Cl3 La1 1_555 1_555
O1 La1 1_555 1_555
C1 O1 1_555 1_555
C2 C1 1_555 1_555
C3 C2 1_555 1_555
C4 O1 1_555 1_555
O2 La1 1_555 1_555
H1 C1 1_555 1_555
H2 C1 1_555 1_555
H3 C2 1_555 1_555
H4 C2 1_555 1_555
H5 C3 1_555 1_555
H6 C3 1_555 1_555
H7 C4 1_555 1_555
H8 C4 1_555 1_555
H9 O2 1_555 1_555
H10 O2 1_555 1_555
La1A Cl1A 1_555 1_555
Cl1A La1 1_555 1_555
La1A_2 Cl2 1_555 1_555
Cl2A La1 1_555 1_555
La1A_3 Cl3 1_555 1_555
Cl3A La1 1_555 1_555
C3 C4 1_555 1_555
La1A_2 Cl2A 1_555 1_555
La1A_3 Cl3A 1_555 1_555

#END
