
#######################################################################
#
#                 Cambridge Crystallographic Data Centre
#                                CCDC 
#
#######################################################################
#
# If this CIF has been generated from an entry in the Cambridge 
# Structural Database, then it will include bibliographic, chemical, 
# crystal, experimental, refinement or atomic coordinate data resulting 
# from the CCDC's data processing and validation procedures.
#
#######################################################################

data_RUVMIF
_symmetry_cell_setting           orthorhombic
_symmetry_space_group_name_H-M   'F d d d'
_symmetry_Int_Tables_number      70
_space_group_name_Hall           '-F 2uv 2vw'
loop_
_symmetry_equiv_pos_site_id
_symmetry_equiv_pos_as_xyz
1 x,y,z
2 3/4-x,3/4-y,z
3 3/4-x,y,3/4-z
4 x,3/4-y,3/4-z
5 x,1/2+y,1/2+z
6 3/4-x,1/4-y,1/2+z
7 3/4-x,1/2+y,1/4-z
8 x,1/4-y,1/4-z
9 1/2+x,y,1/2+z
10 1/4-x,3/4-y,1/2+z
11 1/4-x,y,1/4-z
12 1/2+x,3/4-y,1/4-z
13 1/2+x,1/2+y,z
14 1/4-x,1/4-y,z
15 1/4-x,1/2+y,3/4-z
16 1/2+x,1/4-y,3/4-z
17 -x,-y,-z
18 1/4+x,1/4+y,-z
19 1/4+x,-y,1/4+z
20 -x,1/4+y,1/4+z
21 -x,1/2-y,1/2-z
22 1/4+x,3/4+y,1/2-z
23 1/4+x,1/2-y,3/4+z
24 -x,3/4+y,3/4+z
25 1/2-x,-y,1/2-z
26 3/4+x,1/4+y,1/2-z
27 3/4+x,-y,3/4+z
28 1/2-x,1/4+y,3/4+z
29 1/2-x,1/2-y,-z
30 3/4+x,3/4+y,-z
31 3/4+x,1/2-y,1/4+z
32 1/2-x,3/4+y,1/4+z
_cell_length_a                   16.847(2)
_cell_length_b                   20.710(4)
_cell_length_c                   22.468(3)
_cell_angle_alpha                90
_cell_angle_beta                 90
_cell_angle_gamma                90
_cell_volume                     7839.12
loop_
_atom_site_label
_atom_site_type_symbol
_atom_site_fract_x
_atom_site_fract_y
_atom_site_fract_z
O6 O 0.097(2) 0.0223(18) 0.6231(18)
O6J O 0.153(2) 0.0223(18) 0.6269(18)
Nd1 Nd 0.6250 0.1250 0.437900(15)
Nd2 Nd 0.3750 -0.1250 0.3750
O1 O 0.5294(2) 0.04183(19) 0.43860(17)
O2 O 0.4631(3) -0.0413(2) 0.40192(18)
O3 O 0.4407(2) -0.08454(19) 0.28296(16)
O4 O 0.4935(2) -0.0545(2) 0.19873(17)
N1 N 0.6270(2) 0.0497(2) 0.34527(18)
N2 N 0.6140(2) 0.0135(2) 0.25163(19)
N3 N 0.8452(4) 0.1447(3) 0.3013(5)
C1 C 0.5626(3) 0.0085(2) 0.3427(2)
C2 C 0.5539(3) -0.0135(2) 0.2849(2)
C3 C 0.6562(3) 0.0503(2) 0.2896(2)
C4 C 0.8615(8) 0.1628(7) 0.2548(9)
C5 C 0.8117(11) 0.1450(9) 0.2058(8)
C6 C 0.7426(5) 0.1026(5) 0.2131(3)
C7 C 0.7271(3) 0.0875(2) 0.2721(2)
C8 C 0.7803(3) 0.1085(3) 0.3156(3)
C9 C 0.5141(3) 0.0017(3) 0.3972(2)
C10 C 0.4934(3) -0.0534(2) 0.2546(2)
Nd1C Nd 0.6250 -0.3750 0.312100(15)
Nd1W Nd 0.3750 -0.1250 0.187900(15)
Nd1P Nd 0.3750 -0.1250 0.562100(15)
Nd1B Nd 0.1250 0.1250 0.312100(15)
Nd1A Nd 0.1250 -0.3750 0.437900(15)
O1C O 0.5294(2) -0.29183(19) 0.31140(17)
O1B O 0.2206(2) 0.04183(19) 0.31140(17)
O1A O 0.2206(2) -0.29183(19) 0.43860(17)
O1M O 0.7206(2) 0.20817(19) 0.43860(17)
O1N O 0.7206(2) -0.45817(19) 0.31140(17)
O2C O 0.4631(3) -0.2087(2) 0.34808(18)
O2B O 0.2869(3) -0.0413(2) 0.34808(18)
O2A O 0.2869(3) -0.2087(2) 0.40192(18)
O3C O 0.4407(2) -0.16546(19) 0.46704(16)
O3B O 0.3093(2) -0.08454(19) 0.46704(16)
O3A O 0.3093(2) -0.16546(19) 0.28296(16)
O3R O 0.6907(2) 0.08454(19) 0.53296(16)
O3S O 0.5593(2) 0.16546(19) 0.53296(16)
O3U O 0.6907(2) -0.33454(19) 0.21704(16)
O3T O 0.5593(2) -0.41546(19) 0.21704(16)
O4C O 0.4935(2) -0.1955(2) 0.55127(17)
O4B O 0.2565(2) -0.0545(2) 0.55127(17)
O4A O 0.2565(2) -0.1955(2) 0.19873(17)
O4R O 0.7435(2) 0.0545(2) 0.44873(17)
O4S O 0.5065(2) 0.1955(2) 0.44873(17)
O4U O 0.7435(2) -0.3045(2) 0.30127(17)
O4T O 0.5065(2) -0.4455(2) 0.30127(17)
N1C N 0.6270(2) -0.2997(2) 0.40473(18)
N1B N 0.1230(2) 0.0497(2) 0.40473(18)
N1A N 0.1230(2) -0.2997(2) 0.34527(18)
N1M N 0.6230(2) 0.2003(2) 0.34527(18)
N1N N 0.6230(2) -0.4503(2) 0.40473(18)
N2C N 0.6140(2) -0.2635(2) 0.49837(19)
N2B N 0.1360(2) 0.0135(2) 0.49837(19)
N2A N 0.1360(2) -0.2635(2) 0.25163(19)
N3C N 0.8452(4) -0.3947(3) 0.4487(5)
N3B N -0.0952(4) 0.1447(3) 0.4487(5)
N3A N -0.0952(4) -0.3947(3) 0.3013(5)
C1C C 0.5626(3) -0.2585(2) 0.4073(2)
C1B C 0.1874(3) 0.0085(2) 0.4073(2)
C1A C 0.1874(3) -0.2585(2) 0.3427(2)
C2C C 0.5539(3) -0.2365(2) 0.4651(2)
C2B C 0.1961(3) -0.0135(2) 0.4651(2)
C2A C 0.1961(3) -0.2365(2) 0.2849(2)
C3C C 0.6562(3) -0.3003(2) 0.4604(2)
C3B C 0.0938(3) 0.0503(2) 0.4604(2)
C3A C 0.0938(3) -0.3003(2) 0.2896(2)
C4C C 0.8615(8) -0.4128(7) 0.4952(9)
C4B C -0.1115(8) 0.1628(7) 0.4952(9)
C4A C -0.1115(8) -0.4128(7) 0.2548(9)
C5C C 0.8117(11) -0.3950(9) 0.5442(8)
C5B C -0.0617(11) 0.1450(9) 0.5442(8)
C5A C -0.0617(11) -0.3950(9) 0.2058(8)
C6C C 0.7426(5) -0.3526(5) 0.5369(3)
C6B C 0.0074(5) 0.1026(5) 0.5369(3)
C6A C 0.0074(5) -0.3526(5) 0.2131(3)
C7C C 0.7271(3) -0.3375(2) 0.4779(2)
C7B C 0.0229(3) 0.0875(2) 0.4779(2)
C7A C 0.0229(3) -0.3375(2) 0.2721(2)
C8C C 0.7803(3) -0.3585(3) 0.4344(3)
C8B C -0.0303(3) 0.1085(3) 0.4344(3)
C8A C -0.0303(3) -0.3585(3) 0.3156(3)
C9C C 0.5141(3) -0.2517(3) 0.3528(2)
C9B C 0.2359(3) 0.0017(3) 0.3528(2)
C9A C 0.2359(3) -0.2517(3) 0.3972(2)
C10C C 0.4934(3) -0.1966(2) 0.4954(2)
C10B C 0.2566(3) -0.0534(2) 0.4954(2)
C10A C 0.2566(3) -0.1966(2) 0.2546(2)
O5? O 0.115(3) 0.0097(11) 0.627(3)
C11? C 0.1519(14) -0.0970(9) -0.0268(10)
C12? C 0.1985(10) -0.1237(8) -0.0641(7)
loop_
_geom_bond_atom_site_label_1
_geom_bond_atom_site_label_2
_geom_bond_site_symmetry_1
_geom_bond_site_symmetry_2
Nd1 O1 1_555 1_555
Nd2 O2 1_555 1_555
O1 C9 1_555 1_555
O2 C9 1_555 1_555
O3 Nd2 1_555 1_555
O4 C10 1_555 1_555
N1 Nd1 1_555 1_555
N2 C2 1_555 1_555
N3 C4 1_555 1_555
C1 N1 1_555 1_555
C2 C1 1_555 1_555
C3 N1 1_555 1_555
C4 C5 1_555 1_555
C5 C6 1_555 1_555
C6 C7 1_555 1_555
C7 C3 1_555 1_555
C8 N3 1_555 1_555
C9 C1 1_555 1_555
C10 O3 1_555 1_555
O6 O6J 1_555 1_555
Nd1C O1C 1_555 1_555
Nd1W O3 1_555 1_555
Nd1P O3C 1_555 1_555
Nd1B O1B 1_555 1_555
Nd1A O1A 1_555 1_555
O1C C9C 1_555 1_555
O1B C9B 1_555 1_555
O1A C9A 1_555 1_555
O1M Nd1 1_555 1_555
O1N Nd1C 1_555 1_555
O2C Nd2 1_555 1_555
O2B Nd2 1_555 1_555
O2A Nd2 1_555 1_555
O3C Nd2 1_555 1_555
O3B Nd2 1_555 1_555
O3A Nd2 1_555 1_555
O3R Nd1 1_555 1_555
O3S Nd1 1_555 1_555
O3U Nd1C 1_555 1_555
O3T Nd1C 1_555 1_555
O4C Nd1P 1_555 1_555
O4B Nd1P 1_555 1_555
O4A Nd1W 1_555 1_555
O4R Nd1 1_555 1_555
O4S Nd1 1_555 1_555
O4U Nd1C 1_555 1_555
O4T Nd1C 1_555 1_555
N1C Nd1C 1_555 1_555
N1B Nd1B 1_555 1_555
N1A Nd1A 1_555 1_555
N1M Nd1 1_555 1_555
N1N Nd1C 1_555 1_555
N2C C2C 1_555 1_555
N2B C2B 1_555 1_555
N2A C2A 1_555 1_555
N3C C4C 1_555 1_555
N3B C4B 1_555 1_555
N3A C4A 1_555 1_555
C1C N1C 1_555 1_555
C1B N1B 1_555 1_555
C1A N1A 1_555 1_555
C2C C1C 1_555 1_555
C2B C1B 1_555 1_555
C2A C1A 1_555 1_555
C3C N1C 1_555 1_555
C3B N1B 1_555 1_555
C3A N1A 1_555 1_555
C4C C5C 1_555 1_555
C4B C5B 1_555 1_555
C4A C5A 1_555 1_555
C5C C6C 1_555 1_555
C5B C6B 1_555 1_555
C5A C6A 1_555 1_555
C6C C7C 1_555 1_555
C6B C7B 1_555 1_555
C6A C7A 1_555 1_555
C7C C3C 1_555 1_555
C7B C3B 1_555 1_555
C7A C3A 1_555 1_555
C8C N3C 1_555 1_555
C8B N3B 1_555 1_555
C8A N3A 1_555 1_555
C9C O2C 1_555 1_555
C9B O2B 1_555 1_555
C9A O2A 1_555 1_555
C10C O3C 1_555 1_555
C10B O3B 1_555 1_555
C10A O3A 1_555 1_555
O4 Nd1W 1_555 1_555
N2 C3 1_555 1_555
C2 C10 1_555 1_555
C7 C8 1_555 1_555
Nd1W O3A 1_555 1_555
Nd1P O3B 1_555 1_555
O4C C10C 1_555 1_555
O4B C10B 1_555 1_555
O4A C10A 1_555 1_555
N2C C3C 1_555 1_555
N2B C3B 1_555 1_555
N2A C3A 1_555 1_555
C1C C9C 1_555 1_555
C1B C9B 1_555 1_555
C1A C9A 1_555 1_555
C2C C10C 1_555 1_555
C2B C10B 1_555 1_555
C2A C10A 1_555 1_555
C7C C8C 1_555 1_555
C7B C8B 1_555 1_555
C7A C8A 1_555 1_555

#END
