
#######################################################################
#
#                 Cambridge Crystallographic Data Centre
#                                CCDC 
#
#######################################################################
#
# If this CIF has been generated from an entry in the Cambridge 
# Structural Database, then it will include bibliographic, chemical, 
# crystal, experimental, refinement or atomic coordinate data resulting 
# from the CCDC's data processing and validation procedures.
#
#######################################################################

data_RUVMEB
_symmetry_cell_setting           monoclinic
_symmetry_space_group_name_H-M   'P 21/c'
_symmetry_Int_Tables_number      14
_space_group_name_Hall           '-P 2ybc'
loop_
_symmetry_equiv_pos_site_id
_symmetry_equiv_pos_as_xyz
1 x,y,z
2 -x,1/2+y,1/2-z
3 -x,-y,-z
4 x,1/2-y,1/2+z
_cell_length_a                   10.550(2)
_cell_length_b                   22.245(4)
_cell_length_c                   19.971(4)
_cell_angle_alpha                90
_cell_angle_beta                 119.66(3)
_cell_angle_gamma                90
_cell_volume                     4072.8
loop_
_atom_site_label
_atom_site_type_symbol
_atom_site_fract_x
_atom_site_fract_y
_atom_site_fract_z
Nd1 Nd 0.30932(2) -0.535870(7) 0.353830(9)
Nd2 Nd 0.113540(19) -0.469070(7) 0.139010(9)
O1 O 0.2113(3) -0.56365(10) 0.21334(13)
O2 O 0.3148(3) -0.64111(11) 0.28907(13)
O3 O 0.0586(3) -0.55079(11) 0.05456(14)
O4 O -0.0164(3) -0.61081(11) -0.04524(13)
O5 O 0.1993(3) -0.50107(11) 0.42649(16)
O6 O 0.1734(3) -0.45228(11) 0.51540(14)
H1 H 0.1879 -0.4860 0.5344
O7 O 0.0808(3) -0.47981(11) 0.26829(14)
O8 O 0.0223(3) -0.39546(12) 0.20233(14)
O9 O 0.4776(4) -0.46272(11) 0.43469(15)
O10 O 0.5765(3) -0.39885(11) 0.53280(13)
O11 O 0.3366(3) -0.45198(10) 0.27589(13)
O12 O 0.2917(3) -0.37621(11) 0.19734(13)
O13 O 0.5450(3) -0.56052(14) 0.35858(17)
O14 O 0.1002(4) -0.60562(14) 0.32662(18)
O15 O -0.1443(3) -0.49308(11) 0.09077(16)
O16 O 0.3095(3) -0.47295(11) 0.10991(18)
N1 N 0.2210(3) -0.72065(11) 0.17016(15)
H2 H 0.2698 -0.7375 0.2146
N2 N 0.0921(3) -0.71000(12) 0.04332(15)
N3 N 0.1740(4) -0.93285(13) 0.06025(19)
N4 N 0.1854(3) -0.34279(12) 0.44986(16)
N5 N 0.0998(3) -0.32502(12) 0.32595(16)
H3 H 0.0701 -0.3055 0.2836
N6 N 0.2336(4) -0.11286(14) 0.4428(2)
N7 N 0.5186(3) -0.30304(12) 0.43809(15)
H4 H 0.5579 -0.2933 0.4859
N8 N 0.4240(3) -0.29383(12) 0.31199(16)
N9 N 0.5765(4) -0.07766(14) 0.4014(2)
C1 C 0.1607(4) -0.74853(14) 0.10111(18)
C2 C 0.1901(4) -0.66048(13) 0.15647(17)
C3 C 0.1095(4) -0.65489(13) 0.07666(17)
C4 C 0.2184(6) -0.91500(18) 0.1315(2)
H5 H 0.2517 -0.9432 0.1710
C5 C 0.2158(5) -0.85463(17) 0.1480(2)
H6 H 0.2464 -0.8423 0.1983
C6 C 0.1670(4) -0.81308(14) 0.08900(19)
C7 C 0.1213(5) -0.83382(17) 0.0150(2)
H7 H 0.0881 -0.8069 -0.0259
C8 C 0.1252(5) -0.89419(18) 0.0023(2)
H8 H 0.0932 -0.9081 -0.0475
C9 C 0.2421(4) -0.61913(14) 0.22314(18)
C10 C 0.0461(3) -0.60118(14) 0.02557(17)
C11 C 0.1540(4) -0.30073(14) 0.39674(19)
C12 C 0.1527(4) -0.39645(14) 0.41084(18)
C13 C 0.1001(4) -0.38649(14) 0.33319(19)
C14 C 0.2775(5) -0.15297(17) 0.4994(2)
H9 H 0.3258 -0.1390 0.5499
C15 C 0.2552(5) -0.21448(16) 0.4874(2)
H10 H 0.2890 -0.2408 0.5289
C16 C 0.1818(4) -0.23608(15) 0.4124(2)
C17 C 0.1376(5) -0.19445(17) 0.3533(2)
H11 H 0.0888 -0.2068 0.3021
C18 C 0.1674(6) -0.13420(17) 0.3720(3)
H12 H 0.1386 -0.1069 0.3318
C19 C 0.1771(4) -0.45433(14) 0.45360(19)
C20 C 0.0613(4) -0.42323(15) 0.26347(19)
C21 C 0.4832(4) -0.26473(14) 0.37852(19)
C22 C 0.4810(4) -0.35986(14) 0.40878(18)
C23 C 0.4210(4) -0.35342(14) 0.32960(18)
C24 C 0.6169(6) -0.11189(19) 0.4627(3)
H13 H 0.6677 -0.0941 0.5111
C25 C 0.5878(5) -0.17307(17) 0.4587(2)
H14 H 0.6193 -0.1955 0.5035
C26 C 0.5112(4) -0.19992(14) 0.3873(2)
C27 C 0.4654(5) -0.16374(17) 0.3223(2)
H15 H 0.4118 -0.1797 0.2730
C28 C 0.5017(5) -0.10378(18) 0.3331(3)
H16 H 0.4719 -0.0800 0.2895
C29 C 0.5126(4) -0.41143(15) 0.46247(18)
C30 C 0.3487(4) -0.39675(14) 0.26443(18)
H17 H 0.579(6) -0.6019(12) 0.359(3)
H18 H 0.631(4) -0.544(2) 0.402(3)
H19 H 0.101(6) -0.6493(9) 0.328(4)
H20 H 0.005(4) -0.595(2) 0.322(4)
H21 H -0.185(6) -0.5317(16) 0.065(3)
H22 H -0.209(6) -0.477(2) 0.109(4)
H23 H 0.350(6) -0.5114(15) 0.104(4)
H24 H 0.396(4) -0.452(2) 0.146(3)
Nd1B Nd 0.69068(2) -0.464130(7) 0.646170(9)
Nd2B Nd -0.113540(19) -0.530930(7) -0.139010(9)
O4B O 0.0164(3) -0.38919(11) 0.04524(13)
O10B O 0.4235(3) -0.60115(11) 0.46720(13)
N10 N 0.6536(8) -0.4197(4) 0.1651(4)
O17 O 0.5654(7) -0.4073(3) 0.1904(3)
O18 O 0.7112(7) -0.4703(3) 0.1793(4)
O19 O 0.6872(6) -0.3733(3) 0.1411(3)
O20 O 0.8682(4) -0.72905(13) 0.87696(17)
H25 H 0.934(5) -0.709(2) 0.9263(19)
H26 H 0.801(5) -0.697(2) 0.845(3)
O21 O 0.4668(5) -0.7792(2) 0.3016(2)
H27 H 0.471(7) -0.8210(13) 0.317(4)
H28 H 0.541(6) -0.777(3) 0.287(4)
O22 O 0.3657(5) -0.73095(17) 0.4031(2)
H29 H 0.387(7) -0.7644(17) 0.377(3)
H30 H 0.360(7) -0.6934(14) 0.375(3)
O23 O 0.7400(5) -0.65861(18) 0.3824(2)
H31 H 0.763(7) -0.7017(10) 0.384(4)
H32 H 0.780(7) -0.638(2) 0.353(4)
O24 O 0.0500(5) -0.7402(3) 0.3202(3)
H33 H 0.050(6) -0.7863(11) 0.332(4)
H34 H 0.160(3) -0.733(2) 0.356(3)
O25 O -0.1485(5) -0.5624(3) 0.3199(3)
H35 H -0.188(6) -0.531(2) 0.278(3)
H36 H -0.223(5) -0.572(3) 0.333(4)
loop_
_geom_bond_atom_site_label_1
_geom_bond_atom_site_label_2
_geom_bond_site_symmetry_1
_geom_bond_site_symmetry_2
Nd1 O1 1_555 1_555
Nd2 O1 1_555 1_555
O1 C9 1_555 1_555
O2 Nd1 1_555 1_555
O3 Nd2 1_555 1_555
O4 C10 1_555 1_555
O5 Nd1 1_555 1_555
O6 H1 1_555 1_555
O7 Nd1 1_555 1_555
O8 Nd2 1_555 1_555
O9 Nd1 1_555 1_555
O10 C29 1_555 1_555
O11 Nd1 1_555 1_555
O12 Nd2 1_555 1_555
O13 Nd1 1_555 1_555
O14 Nd1 1_555 1_555
O15 Nd2 1_555 1_555
O16 Nd2 1_555 1_555
N1 H2 1_555 1_555
N2 C1 1_555 1_555
N3 C4 1_555 1_555
N4 C11 1_555 1_555
N5 H3 1_555 1_555
N6 C14 1_555 1_555
N7 H4 1_555 1_555
N8 C21 1_555 1_555
N9 C24 1_555 1_555
C1 N1 1_555 1_555
C2 N1 1_555 1_555
C3 N2 1_555 1_555
C4 H5 1_555 1_555
C5 C4 1_555 1_555
H6 C5 1_555 1_555
C6 C1 1_555 1_555
C7 C6 1_555 1_555
H7 C7 1_555 1_555
C8 N3 1_555 1_555
H8 C8 1_555 1_555
C9 O2 1_555 1_555
C10 O3 1_555 1_555
C11 N5 1_555 1_555
C12 N4 1_555 1_555
C13 N5 1_555 1_555
C14 H9 1_555 1_555
C15 C14 1_555 1_555
H10 C15 1_555 1_555
C16 C11 1_555 1_555
C17 C16 1_555 1_555
H11 C17 1_555 1_555
C18 N6 1_555 1_555
H12 C18 1_555 1_555
C19 O5 1_555 1_555
C20 O7 1_555 1_555
C21 N7 1_555 1_555
C22 N7 1_555 1_555
C23 N8 1_555 1_555
C24 H13 1_555 1_555
C25 C24 1_555 1_555
H14 C25 1_555 1_555
C26 C21 1_555 1_555
C27 C26 1_555 1_555
H15 C27 1_555 1_555
C28 N9 1_555 1_555
H16 C28 1_555 1_555
C29 O9 1_555 1_555
C30 O11 1_555 1_555
N10 O17 1_555 1_555
O18 N10 1_555 1_555
O19 N10 1_555 1_555
O20 H25 1_555 1_555
O21 H27 1_555 1_555
O22 H29 1_555 1_555
O23 H31 1_555 1_555
O24 H33 1_555 1_555
O25 H35 1_555 1_555
H17 O13 1_555 1_555
H18 O13 1_555 1_555
H19 O14 1_555 1_555
H20 O14 1_555 1_555
H21 O15 1_555 1_555
H22 O15 1_555 1_555
H23 O16 1_555 1_555
H24 O16 1_555 1_555
H26 O20 1_555 1_555
H28 O21 1_555 1_555
H30 O22 1_555 1_555
H32 O23 1_555 1_555
H34 O24 1_555 1_555
H36 O25 1_555 1_555
Nd1B O10 1_555 1_555
Nd2B O4 1_555 1_555
O4B Nd2 1_555 1_555
O10B Nd1 1_555 1_555
Nd2 O7 1_555 1_555
Nd2 O11 1_555 1_555
O6 C19 1_555 1_555
O8 C20 1_555 1_555
O12 C30 1_555 1_555
C2 C3 1_555 1_555
C2 C9 1_555 1_555
C3 C10 1_555 1_555
C5 C6 1_555 1_555
C7 C8 1_555 1_555
C12 C13 1_555 1_555
C12 C19 1_555 1_555
C13 C20 1_555 1_555
C15 C16 1_555 1_555
C17 C18 1_555 1_555
C22 C23 1_555 1_555
C22 C29 1_555 1_555
C23 C30 1_555 1_555
C25 C26 1_555 1_555
C27 C28 1_555 1_555

#END
