
#######################################################################
#
#                 Cambridge Crystallographic Data Centre
#                                CCDC 
#
#######################################################################
#
# If this CIF has been generated from an entry in the Cambridge 
# Structural Database, then it will include bibliographic, chemical, 
# crystal, experimental, refinement or atomic coordinate data resulting 
# from the CCDC's data processing and validation procedures.
#
#######################################################################

data_RUVMUQ
_symmetry_cell_setting           monoclinic
_symmetry_space_group_name_H-M   'C 2/c'
_symmetry_Int_Tables_number      15
_space_group_name_Hall           '-C 2yn'
loop_
_symmetry_equiv_pos_site_id
_symmetry_equiv_pos_as_xyz
1 x,y,z
2 1/2+x,1/2+y,z
3 -x,y,1/2-z
4 1/2-x,1/2+y,1/2-z
5 -x,-y,-z
6 1/2-x,1/2-y,-z
7 x,-y,1/2+z
8 1/2+x,1/2-y,1/2+z
_cell_length_a                   18.676(5)
_cell_length_b                   12.553(4)
_cell_length_c                   16.657(3)
_cell_angle_alpha                90
_cell_angle_beta                 130.134(8)
_cell_angle_gamma                90
_cell_volume                     2985.57
loop_
_atom_site_label
_atom_site_type_symbol
_atom_site_fract_x
_atom_site_fract_y
_atom_site_fract_z
N1 N 0.2109(4) 0.1454(4) 0.0837(4)
C1 C 0.1827(5) 0.1017(5) 0.1187(5)
N2 N 0.1514(4) -0.1450(4) 0.3444(4)
C2 C 0.1373(4) -0.0845(5) 0.2853(5)
N3 N 0.1233(3) 0.3621(4) -0.0549(4)
C3 C 0.1370(4) 0.4618(5) -0.0186(5)
C4 C 0.0632(5) 0.5319(5) -0.0568(5)
C5 C -0.0288(4) 0.5016(5) -0.1392(5)
C6 C -0.0419(5) 0.3965(6) -0.1757(5)
C7 C 0.0343(4) 0.3302(5) -0.1318(5)
C8 C -0.1088(5) 0.5779(6) -0.1891(6)
C9 C -0.1124(5) 0.6532(6) -0.2625(6)
C10 C -0.1924(5) 0.7362(6) -0.3140(6)
N4 N -0.4722(4) 0.6148(5) -0.5634(5)
C11 C -0.4005(5) 0.5988(6) -0.5637(6)
C12 C -0.3107(5) 0.6349(6) -0.4866(6)
C13 C -0.2896(5) 0.6923(5) -0.4011(5)
C14 C -0.3637(5) 0.7082(5) -0.4016(6)
C15 C -0.4511(5) 0.6697(6) -0.4819(6)
Cd1 Cd 0.25000 0.25000 0.00000
Ag1 Ag 0.12826(4) 0.02181(4) 0.18123(4)
H1 H 0.20722 0.49059 0.04259
H2 H 0.07732 0.61018 -0.02256
H3 H -0.11172 0.36736 -0.23819
H4 H 0.02394 0.24908 -0.15900
H5 H -0.41227 0.55537 -0.62732
H6 H -0.25701 0.61916 -0.49180
H7 H -0.35245 0.75121 -0.33812
H8 H -0.50821 0.68311 -0.48185
H9 H -0.16901 0.53737 -0.23012
H10 H -0.10112 0.62068 -0.13333
H11 H -0.05201 0.69314 -0.22272
H12 H -0.12251 0.61153 -0.32027
H13 H -0.17772 0.79411 -0.34263
H14 H -0.19032 0.76560 -0.25671
N1E N 0.2891(4) 0.3546(4) -0.0837(4)
C1E C 0.3173(5) 0.3983(5) -0.1187(5)
N2C N 0.3486(4) 0.3550(4) 0.1556(4)
N3E N 0.3767(3) 0.1379(4) 0.0549(4)
C3E C 0.3630(4) 0.0382(5) 0.0186(5)
C4E C 0.4368(5) -0.0319(5) 0.0568(5)
C5E C 0.5288(4) -0.0016(5) 0.1392(5)
C6E C 0.5419(5) 0.1035(6) 0.1757(5)
C7E C 0.4657(4) 0.1698(5) 0.1318(5)
C8E C 0.6088(5) -0.0779(6) 0.1891(6)
C9E C 0.6124(5) -0.1532(6) 0.2625(6)
C10E C 0.6924(5) -0.2362(6) 0.3140(6)
N4E N 0.9722(4) -0.1148(5) 0.5634(5)
C11E C 0.9005(5) -0.0988(6) 0.5637(6)
C12E C 0.8107(5) -0.1349(6) 0.4866(6)
C13E C 0.7896(5) -0.1923(5) 0.4011(5)
C14E C 0.8637(5) -0.2082(5) 0.4016(6)
C15E C 0.9511(5) -0.1697(6) 0.4819(6)
H1E H 0.29278 0.00941 -0.04259
H2E H 0.42268 -0.11018 0.02256
H3E H 0.61172 0.13264 0.23819
H4E H 0.47606 0.25092 0.15900
H5E H 0.91227 -0.05537 0.62732
H6E H 0.75701 -0.11916 0.49180
H7E H 0.85245 -0.25121 0.33812
H8E H 1.00821 -0.18311 0.48185
H9E H 0.66901 -0.03737 0.23012
H10E H 0.60112 -0.12068 0.13333
H11E H 0.55201 -0.19314 0.22272
H12E H 0.62251 -0.11153 0.32027
H13E H 0.67772 -0.29411 0.34263
H14E H 0.69032 -0.26560 0.25671
Ag1E Ag 0.37174(4) 0.47819(4) -0.18123(4)
Ag1C Ag -0.62826(4) 0.52181(4) -0.68123(4)
N4C N -0.0278(4) 0.1148(5) 0.0634(5)
Ag1F Ag 1.12826(4) -0.02181(4) 0.68123(4)
C2E C 0.3627(4) 0.5845(5) -0.2853(5)
N4F N 0.5278(4) 0.3852(5) -0.0634(5)
N2F N 0.1514(4) 0.1450(4) -0.1556(4)
N2E N 0.3486(4) 0.6450(4) -0.3444(4)
Cd1F Cd 0.25000 -0.25000 0.50000
Cd1F_2 Cd 0.25000 0.75000 -0.50000
loop_
_geom_bond_atom_site_label_1
_geom_bond_atom_site_label_2
_geom_bond_site_symmetry_1
_geom_bond_site_symmetry_2
N1 C1 1_555 1_555
C1 Ag1 1_555 1_555
N2 C2 1_555 1_555
C2 Ag1 1_555 1_555
N3 C3 1_555 1_555
C3 C4 1_555 1_555
C4 C5 1_555 1_555
C5 C6 1_555 1_555
C6 C7 1_555 1_555
C7 N3 1_555 1_555
C8 C5 1_555 1_555
C9 C8 1_555 1_555
C10 C9 1_555 1_555
N4 C11 1_555 1_555
C11 C12 1_555 1_555
C12 C13 1_555 1_555
C13 C10 1_555 1_555
C14 C13 1_555 1_555
C15 N4 1_555 1_555
Cd1 N1 1_555 1_555
Ag1 N4C 1_555 1_555
H1 C3 1_555 1_555
H2 C4 1_555 1_555
H3 C6 1_555 1_555
H4 C7 1_555 1_555
H5 C11 1_555 1_555
H6 C12 1_555 1_555
H7 C14 1_555 1_555
H8 C15 1_555 1_555
H9 C8 1_555 1_555
H10 C8 1_555 1_555
H11 C9 1_555 1_555
H12 C9 1_555 1_555
H13 C10 1_555 1_555
H14 C10 1_555 1_555
N1E Cd1 1_555 1_555
C1E N1E 1_555 1_555
N2C Cd1 1_555 1_555
N3E Cd1 1_555 1_555
C3E N3E 1_555 1_555
C4E C3E 1_555 1_555
C5E C4E 1_555 1_555
C6E C5E 1_555 1_555
C7E N3E 1_555 1_555
C8E C5E 1_555 1_555
C9E C8E 1_555 1_555
C10E C9E 1_555 1_555
N4E C11E 1_555 1_555
C11E C12E 1_555 1_555
C12E C13E 1_555 1_555
C13E C10E 1_555 1_555
C14E C13E 1_555 1_555
C15E N4E 1_555 1_555
H1E C3E 1_555 1_555
H2E C4E 1_555 1_555
H3E C6E 1_555 1_555
H4E C7E 1_555 1_555
H5E C11E 1_555 1_555
H6E C12E 1_555 1_555
H7E C14E 1_555 1_555
H8E C15E 1_555 1_555
H9E C8E 1_555 1_555
H10E C8E 1_555 1_555
H11E C9E 1_555 1_555
H12E C9E 1_555 1_555
H13E C10E 1_555 1_555
H14E C10E 1_555 1_555
Ag1E C1E 1_555 1_555
Ag1C N4 1_555 1_555
Ag1F N4E 1_555 1_555
C2E Ag1E 1_555 1_555
N4F Ag1E 1_555 1_555
N2F Cd1 1_555 1_555
N2E C2E 1_555 1_555
Cd1F N2 1_555 1_555
Cd1F_2 N2E 1_555 1_555
N3 Cd1 1_555 1_555
C14 C15 1_555 1_555
C6E C7E 1_555 1_555
C14E C15E 1_555 1_555

#END
