
#######################################################################
#
#                 Cambridge Crystallographic Data Centre
#                                CCDC 
#
#######################################################################
#
# If this CIF has been generated from an entry in the Cambridge 
# Structural Database, then it will include bibliographic, chemical, 
# crystal, experimental, refinement or atomic coordinate data resulting 
# from the CCDC's data processing and validation procedures.
#
#######################################################################

data_RUVMOL
_symmetry_cell_setting           hexagonal
_symmetry_space_group_name_H-M   'P 63'
_symmetry_Int_Tables_number      173
_space_group_name_Hall           'P 6c'
loop_
_symmetry_equiv_pos_site_id
_symmetry_equiv_pos_as_xyz
1 x,y,z
2 x-y,x,1/2+z
3 -y,x-y,z
4 -x,-y,1/2+z
5 -x+y,-x,z
6 y,-x+y,1/2+z
_cell_length_a                   19.910(3)
_cell_length_b                   19.910(3)
_cell_length_c                   20.117(3)
_cell_angle_alpha                90
_cell_angle_beta                 90
_cell_angle_gamma                120
_cell_volume                     6906.16
loop_
_atom_site_label
_atom_site_type_symbol
_atom_site_fract_x
_atom_site_fract_y
_atom_site_fract_z
Zn1 Zn 0.6667 0.3333 0.27594(12)
Zn2 Zn 1.0000 1.0000 0.38593(11)
Co1 Co 0.3333 0.6667 0.24723(14)
O13 O 0.2387(5) 0.6469(5) 0.1808(5)
O14 O 0.6667 0.3333 0.1793(10)
O15 O 1.0000 1.0000 0.4812(8)
N1 N 0.5446(4) 0.6987(4) 0.3248(5)
N2 N 0.4339(5) 0.6919(5) 0.2970(5)
N3 N 0.6278(4) 0.5092(4) 0.3342(5)
N4 N 0.6320(4) 0.4032(4) 0.3123(5)
N5 N 0.8186(4) 0.7841(4) 0.3291(4)
N6 N 0.9235(4) 0.8943(4) 0.3519(4)
C1 C 0.6051(5) 0.6812(5) 0.3277(5)
C2 C 0.5866(5) 0.6035(5) 0.3289(6)
H1 H 0.5343 0.5625 0.3280
C3 C 0.6478(5) 0.5883(5) 0.3313(5)
C4 C 0.7231(5) 0.6449(5) 0.3308(6)
H2 H 0.7635 0.6326 0.3317
C5 C 0.7400(5) 0.7229(5) 0.3288(5)
C6 C 0.6820(5) 0.7412(5) 0.3265(6)
H3 H 0.6941 0.7937 0.3240
C7 C 0.4774(6) 0.6593(6) 0.2893(6)
H4 H 0.4637 0.6148 0.2628
C8 C 0.4755(6) 0.7547(6) 0.3378(6)
H5 H 0.4581 0.7888 0.3523
C9 C 0.5454(6) 0.7617(6) 0.3546(5)
H6 H 0.5855 0.8009 0.3808
C10 C 0.6648(6) 0.4790(5) 0.2996(5)
H7 H 0.7076 0.5074 0.2707
C11 C 0.5718(8) 0.3839(7) 0.3537(8)
H8 H 0.5374 0.3333 0.3700
C12 C 0.5685(8) 0.4507(7) 0.3688(8)
H9 H 0.5325 0.4546 0.3973
C13 C 0.8475(5) 0.8525(5) 0.3592(5)
H10 H 0.8173 0.8692 0.3830
C14 C 0.9442(5) 0.8476(5) 0.3148(5)
H11 H 0.9953 0.8617 0.3012
C15 C 0.8804(5) 0.7804(6) 0.3018(5)
H12 H 0.8778 0.7378 0.2782
Zn2_2 Zn 0.0000 0.0000 0.38593(11)
Zn2_3 Zn 1.0000 0.0000 0.38593(11)
Co1B Co 0.3333 -0.3334 0.24723(14)
Co1D Co 1.3334 0.6667 0.24723(14)
O13B O 0.3531(5) 0.5918(7) 0.1808(5)
O13D O 0.4082(7) 0.7613(5) 0.1808(5)
N1B N 0.3013(4) -0.1541(6) 0.3248(5)
N1D N 1.1541(6) 0.4554(4) 0.3248(5)
N2B N 0.3081(5) -0.2580(7) 0.2970(5)
N2D N 1.2580(7) 0.5661(5) 0.2970(5)
N2B_2 N 0.3081(5) 0.7420(7) 0.2970(5)
N2D_2 N 0.2580(7) 0.5661(5) 0.2970(5)
N3B N 0.4908(4) 0.1186(6) 0.3342(5)
N3D N 0.8814(6) 0.3722(4) 0.3342(5)
N4B N 0.5968(4) 0.2288(6) 0.3123(5)
N4D N 0.7712(6) 0.3680(4) 0.3123(5)
N5B N 0.2159(4) 0.0345(6) 0.3291(4)
N5D N 0.9655(6) 0.1814(4) 0.3291(4)
N6B N 0.1057(4) 0.0292(6) 0.3519(4)
N6D N 0.9708(6) 0.0765(4) 0.3519(4)
N6B_2 N 1.1057(4) 1.0292(6) 0.3519(4)
N6D_2 N 0.9708(6) 1.0765(4) 0.3519(4)
C1B C 0.3188(5) -0.0761(7) 0.3277(5)
C1D C 1.0761(7) 0.3949(5) 0.3277(5)
C2B C 0.3965(5) -0.0169(7) 0.3289(6)
C2D C 1.0169(7) 0.4134(5) 0.3289(6)
H1B H 0.4375 -0.0282 0.3280
H1D H 1.0282 0.4657 0.3280
C3B C 0.4117(5) 0.0595(7) 0.3313(5)
C3D C 0.9405(7) 0.3522(5) 0.3313(5)
C4B C 0.3551(5) 0.0782(7) 0.3308(6)
C4D C 0.9218(7) 0.2769(5) 0.3308(6)
H2B H 0.3674 0.1309 0.3317
H2D H 0.8691 0.2365 0.3317
C5B C 0.2771(5) 0.0171(7) 0.3288(5)
C5D C 0.9829(7) 0.2600(5) 0.3288(5)
C6B C 0.2588(5) -0.0592(7) 0.3265(6)
C6D C 1.0592(7) 0.3180(5) 0.3265(6)
H3B H 0.2063 -0.0996 0.3240
H3D H 1.0996 0.3059 0.3240
C7B C 0.3407(6) -0.1819(8) 0.2893(6)
C7D C 1.1819(8) 0.5226(6) 0.2893(6)
H4B H 0.3852 -0.1511 0.2628
H4D H 1.1511 0.5363 0.2628
C8B C 0.2453(6) -0.2792(8) 0.3378(6)
C8D C 1.2792(8) 0.5245(6) 0.3378(6)
H5B H 0.2112 -0.3307 0.3523
H5D H 1.3307 0.5419 0.3523
C9B C 0.2383(6) -0.2163(8) 0.3546(5)
C9D C 1.2163(8) 0.4546(6) 0.3546(5)
H6B H 0.1991 -0.2154 0.3808
H6D H 1.2154 0.4145 0.3808
C10B C 0.5210(5) 0.1858(8) 0.2996(5)
C10D C 0.8142(8) 0.3352(6) 0.2996(5)
H7B H 0.4926 0.2002 0.2707
H7D H 0.7998 0.2924 0.2707
C11B C 0.6161(7) 0.1879(11) 0.3537(8)
C11D C 0.8121(11) 0.4282(8) 0.3537(8)
H8B H 0.6667 0.2041 0.3700
H8D H 0.7959 0.4626 0.3700
C12B C 0.5493(7) 0.1178(11) 0.3688(8)
C12D C 0.8822(11) 0.4315(8) 0.3688(8)
H9B H 0.5454 0.0779 0.3973
H9D H 0.9221 0.4675 0.3973
C13B C 0.1475(5) -0.0050(7) 0.3592(5)
C13D C 1.0050(7) 0.1525(5) 0.3592(5)
H10B H 0.1308 -0.0519 0.3830
H10D H 1.0519 0.1827 0.3830
C14B C 0.1524(5) 0.0966(7) 0.3148(5)
C14D C 0.9034(7) 0.0558(5) 0.3148(5)
H11B H 0.1383 0.1336 0.3012
H11D H 0.8664 0.0047 0.3012
C15B C 0.2196(6) 0.1000(8) 0.3018(5)
C15D C 0.9000(8) 0.1196(5) 0.3018(5)
H12B H 0.2622 0.1400 0.2782
H12D H 0.8600 0.1222 0.2782
Zn3 Zn 0.05876(6) 0.29351(6) 0.51888(6)
Zn4 Zn 0.27477(5) 0.37214(6) 0.63917(6)
O1 O 0.2990(4) 0.4104(4) 0.5483(4)
O2 O 0.3173(5) 0.4212(5) 0.4401(4)
O3 O 0.1518(4) 0.2898(4) 0.4921(4)
O4 O 0.0958(4) 0.1624(4) 0.4952(5)
O5 O 0.2521(4) 0.0354(4) 0.4773(3)
O6 O 0.3773(5) 0.1021(4) 0.5044(6)
O7 O 0.0335(4) 0.2535(4) 0.6091(4)
O8 O 0.0120(4) 0.2456(4) 0.7170(3)
O9 O 0.1815(4) 0.3765(3) 0.6680(4)
O10 O 0.2376(4) 0.5034(4) 0.6692(5)
O11 O 0.0819(4) 0.6307(4) 0.6808(4)
O12 O -0.0422(4) 0.5657(4) 0.6507(5)
N7 N 0.1876(4) 0.5302(4) 0.5037(4)
N8 N 0.0997(4) 0.4061(4) 0.5062(4)
N9 N 0.1458(4) 0.1342(4) 0.6546(4)
N10 N 0.2331(4) 0.2584(4) 0.6513(4)
C16 C 0.2619(5) 0.6005(5) 0.5046(5)
C17 C 0.3296(5) 0.5944(5) 0.5052(5)
H13 H 0.3266 0.5453 0.5058
C18 C 0.0721(4) 0.0664(4) 0.6539(5)
C19 C 0.0672(5) -0.0051(5) 0.6538(5)
H14 H 0.1130 -0.0088 0.6536
C20 C 0.1748(5) 0.4587(5) 0.5111(5)
H15 H 0.2144 0.4463 0.5189
C21 C 0.0642(6) 0.4498(6) 0.4960(6)
H16 H 0.0099 0.4289 0.4917
C22 C 0.1155(5) 0.5236(5) 0.4931(6)
H17 H 0.1054 0.5648 0.4852
C23 C 0.1599(4) 0.2084(5) 0.6476(5)
H18 H 0.1207 0.2216 0.6409
C24 C 0.2713(5) 0.2172(5) 0.6612(5)
H19 H 0.3259 0.2391 0.6650
C25 C 0.2178(5) 0.1400(5) 0.6647(6)
H20 H 0.2278 0.0987 0.6724
C26 C 0.3017(5) 0.3068(6) 0.4903(5)
C27 C 0.2329(5) 0.2351(5) 0.4891(5)
C28 C 0.2397(6) 0.1688(6) 0.4865(6)
H21 H 0.1934 0.1198 0.4853
C29 C 0.3103(5) 0.1703(5) 0.4857(5)
C30 C 0.3775(6) 0.2436(6) 0.4852(6)
H22 H 0.4268 0.2469 0.4841
C31 C 0.3736(6) 0.3112(5) 0.4864(5)
H23 H 0.4197 0.3602 0.4845
C32 C 0.3046(5) 0.3839(5) 0.4930(6)
C33 C 0.1551(5) 0.2275(6) 0.4926(5)
C34 C 0.3166(6) 0.0992(5) 0.4879(5)
C35 C 0.0314(6) 0.3605(5) 0.6659(5)
C36 C 0.1007(5) 0.4314(5) 0.6698(5)
C37 C 0.0951(5) 0.4990(5) 0.6728(5)
H24 H 0.1409 0.5478 0.6784
C38 C 0.0234(5) 0.4961(5) 0.6678(5)
C39 C -0.0436(6) 0.4231(6) 0.6629(6)
H25 H -0.0929 0.4197 0.6603
C40 C -0.0396(6) 0.3575(6) 0.6617(6)
H26 H -0.0859 0.3087 0.6580
C41 C 0.0276(5) 0.2822(5) 0.6636(5)
C42 C 0.1799(6) 0.4380(6) 0.6695(5)
C43 C 0.0177(5) 0.5687(5) 0.6654(5)
Zn3B Zn -0.29351(6) -0.23475(8) 0.51888(6)
Zn3D Zn 0.23475(8) -0.05876(6) 0.51888(6)
Zn3B_2 Zn 0.70649(6) 0.76525(8) 0.51888(6)
Zn3D_2 Zn 0.23475(8) 0.94124(6) 0.51888(6)
Zn4B Zn -0.37214(6) -0.09737(8) 0.63917(6)
Zn4D Zn 0.09737(8) 0.72523(5) 0.63917(6)
Zn4D_2 Zn 0.09737(8) -0.27477(5) 0.63917(6)
Zn4B_2 Zn 0.62786(6) 0.90263(8) 0.63917(6)
Zn4_2 Zn -0.72523(5) -0.62786(6) 0.63917(6)
O1B O -0.4104(4) -0.1114(6) 0.5483(4)
O1D O 0.1114(6) -0.2990(4) 0.5483(4)
O1D_2 O 0.1114(6) 0.7010(4) 0.5483(4)
O2B O -0.4212(5) -0.1039(7) 0.4401(4)
O2D O 0.1039(7) -0.3173(5) 0.4401(4)
O3B O -0.2898(4) -0.1380(6) 0.4921(4)
O3D O 0.1380(6) -0.1518(4) 0.4921(4)
O4B O -0.1624(4) -0.0666(6) 0.4952(5)
O4D O 0.0666(6) -0.0958(4) 0.4952(5)
O5B O -0.0354(4) 0.2167(6) 0.4773(3)
O5D O -0.2167(6) -0.2521(4) 0.4773(3)
O6B O -0.1021(4) 0.2752(6) 0.5044(6)
O6D O -0.2752(6) -0.3773(5) 0.5044(6)
O7B O 0.7465(4) 0.7800(6) 0.6091(4)
O7B_2 O -0.2535(4) -0.2200(6) 0.6091(4)
O7D O 0.2200(6) -0.0335(4) 0.6091(4)
O8B O 0.7544(4) 0.7664(6) 0.7170(3)
O8B_2 O -0.2456(4) -0.2336(6) 0.7170(3)
O9B O 0.6235(3) 0.8050(5) 0.6680(4)
O9B_2 O -0.3765(3) -0.1950(5) 0.6680(4)
O9D O 0.1950(5) 0.8185(4) 0.6680(4)
O10B O 0.4966(4) 0.7342(6) 0.6692(5)
O10B_2 O -0.5034(4) -0.2658(6) 0.6692(5)
O11B O 0.3693(4) 0.4512(6) 0.6808(4)
O11B_2 O -0.6307(4) -0.5488(6) 0.6808(4)
O11D O -0.4512(6) -0.0819(4) 0.6808(4)
O12B O 0.4343(4) 0.3921(6) 0.6507(5)
O12B_2 O -0.5657(4) -0.6079(6) 0.6507(5)
N7B N 0.4698(4) 0.6574(6) 0.5037(4)
N7D N 0.3426(6) 0.8124(4) 0.5037(4)
N8B N 0.5939(4) 0.6936(6) 0.5062(4)
N8D N 0.3064(6) 0.9003(4) 0.5062(4)
N8B_2 N -0.4061(4) -0.3064(6) 0.5062(4)
N8D_2 N 0.3064(6) -0.0997(4) 0.5062(4)
N9D N -0.0116(6) -0.1458(4) 0.6546(4)
N9B N -0.1342(4) 0.0116(6) 0.6546(4)
N10D N 0.0253(6) -0.2331(4) 0.6513(4)
N10B N -0.2584(4) -0.0253(6) 0.6513(4)
N10D_2 N 0.0253(6) 0.7669(4) 0.6513(4)
C16B C 0.3995(5) 0.6614(7) 0.5046(5)
C16D C 0.3386(7) 0.7381(5) 0.5046(5)
C17B C 0.4056(5) 0.7352(7) 0.5052(5)
C17D C 0.2648(7) 0.6704(5) 0.5052(5)
H13D H 0.2187 0.6734 0.5058
H13B H 0.4547 0.7813 0.5058
C18D C -0.0057(6) -0.0721(4) 0.6539(5)
C18B C -0.0664(4) 0.0057(6) 0.6539(5)
C19D C -0.0723(7) -0.0672(5) 0.6538(5)
C19B C 0.0051(5) 0.0723(7) 0.6538(5)
H14B H 0.0088 0.1218 0.6536
H14D H -0.1218 -0.1130 0.6536
C20B C 0.5413(5) 0.7161(7) 0.5111(5)
C20D C 0.2839(7) 0.8252(5) 0.5111(5)
H15B H 0.5537 0.7681 0.5189
H15D H 0.2319 0.7856 0.5189
C21B C 0.5502(6) 0.6144(8) 0.4960(6)
C21D C 0.3856(8) 0.9358(6) 0.4960(6)
H16B H 0.5711 0.5810 0.4917
H16D H 0.4190 0.9901 0.4917
C22B C 0.4764(5) 0.5919(7) 0.4931(6)
C22D C 0.4081(7) 0.8845(5) 0.4931(6)
H17B H 0.4352 0.5406 0.4852
H17D H 0.4594 0.8946 0.4852
C23D C 0.0485(6) -0.1599(4) 0.6476(5)
C23B C -0.2084(5) -0.0485(6) 0.6476(5)
H18D H 0.1009 -0.1207 0.6409
H18B H -0.2216 -0.1009 0.6409
C24D C -0.0541(7) -0.2713(5) 0.6612(5)
C24B C -0.2172(5) 0.0541(7) 0.6612(5)
H19D H -0.0868 -0.3259 0.6650
H19B H -0.2391 0.0868 0.6650
C25D C -0.0778(7) -0.2178(5) 0.6647(6)
C25B C -0.1400(5) 0.0778(7) 0.6647(6)
H20D H -0.1291 -0.2278 0.6724
H20B H -0.0987 0.1291 0.6724
C26B C -0.3068(6) -0.0051(8) 0.4903(5)
C26D C 0.0051(8) -0.3017(5) 0.4903(5)
C27B C -0.2351(5) -0.0022(7) 0.4891(5)
C27D C 0.0022(7) -0.2329(5) 0.4891(5)
C28B C -0.1688(6) 0.0709(8) 0.4865(6)
C28D C -0.0709(8) -0.2397(6) 0.4865(6)
H21B H -0.1198 0.0736 0.4853
H21D H -0.0736 -0.1934 0.4853
C29B C -0.1703(5) 0.1400(7) 0.4857(5)
C29D C -0.1400(7) -0.3103(5) 0.4857(5)
C30B C -0.2436(6) 0.1339(8) 0.4852(6)
C30D C -0.1339(8) -0.3775(6) 0.4852(6)
H22B H -0.2469 0.1799 0.4841
H22D H -0.1799 -0.4268 0.4841
C31B C -0.3112(5) 0.0624(8) 0.4864(5)
C31D C -0.0624(8) -0.3736(6) 0.4864(5)
H23B H -0.3602 0.0595 0.4845
H23D H -0.0595 -0.4197 0.4845
C32B C -0.3839(5) -0.0793(7) 0.4930(6)
C32D C 0.0793(7) -0.3046(5) 0.4930(6)
C33B C -0.2275(6) -0.0724(8) 0.4926(5)
C33D C 0.0724(8) -0.1551(5) 0.4926(5)
C34B C -0.0992(5) 0.2174(8) 0.4879(5)
C34D C -0.2174(8) -0.3166(6) 0.4879(5)
C35B C 0.6395(5) 0.6709(8) 0.6659(5)
C35B_2 C -0.3605(5) -0.3291(8) 0.6659(5)
C36B C 0.5686(5) 0.6693(7) 0.6698(5)
C36B_2 C -0.4314(5) -0.3307(7) 0.6698(5)
C37B C 0.5010(5) 0.5961(7) 0.6728(5)
C37B_2 C -0.4990(5) -0.4039(7) 0.6728(5)
H24B H 0.4522 0.5931 0.6784
H24B_2 H -0.5478 -0.4069 0.6784
C38B C 0.5039(5) 0.5273(7) 0.6678(5)
C38B_2 C -0.4961(5) -0.4727(7) 0.6678(5)
C39B C 0.5769(6) 0.5333(8) 0.6629(6)
C39B_2 C -0.4231(6) -0.4667(8) 0.6629(6)
H25B H 0.5803 0.4874 0.6603
H25B_2 H -0.4197 -0.5126 0.6603
C40B C 0.6425(6) 0.6029(8) 0.6617(6)
C40B_2 C -0.3575(6) -0.3971(8) 0.6617(6)
H26B H 0.6913 0.6054 0.6580
H26B_2 H -0.3087 -0.3946 0.6580
C41B C 0.7178(5) 0.7454(7) 0.6636(5)
C41B_2 C -0.2822(5) -0.2546(7) 0.6636(5)
C42B C 0.5620(6) 0.7419(8) 0.6695(5)
C42B_2 C -0.4380(6) -0.2581(8) 0.6695(5)
C43B C 0.4313(5) 0.4490(7) 0.6654(5)
C43B_2 C -0.5687(5) -0.5510(7) 0.6654(5)
O16 O 0.4061(6) 0.4526(7) 0.3310(6)
O17 O 0.6950(8) 0.4807(8) 0.5430(10)
O18 O 0.5407(8) 0.3630(8) 0.5875(8)
O19 O 0.2065(5) 0.2858(6) 0.3310(5)
O20 O 0.6667 0.3333 0.483(3)
loop_
_geom_bond_atom_site_label_1
_geom_bond_atom_site_label_2
_geom_bond_site_symmetry_1
_geom_bond_site_symmetry_2
Zn1 O14 1_555 1_555
Zn2 O15 1_555 1_555
Zn3 O3 1_555 1_555
Zn4 O1 1_555 1_555
Co1 O13 1_555 1_555
O1 C32 1_555 1_555
O2 C32 1_555 1_555
O3 C33 1_555 1_555
O4 C33 1_555 1_555
O5 C34 1_555 1_555
O6 C34 1_555 1_555
O7 Zn3 1_555 1_555
O8 C41 1_555 1_555
O9 Zn4 1_555 1_555
O10 C42 1_555 1_555
O11 C43 1_555 1_555
O12 C43 1_555 1_555
N1 C1 1_555 1_555
N2 Co1 1_555 1_555
N3 C3 1_555 1_555
N4 Zn1 1_555 1_555
N5 C5 1_555 1_555
N6 Zn2 1_555 1_555
N7 C16 1_555 1_555
N8 Zn3 1_555 1_555
N9 C18 1_555 1_555
N10 Zn4 1_555 1_555
C1 C2 1_555 1_555
C2 H1 1_555 1_555
C3 C2 1_555 1_555
C4 C3 1_555 1_555
H2 C4 1_555 1_555
C5 C4 1_555 1_555
C6 C1 1_555 1_555
H3 C6 1_555 1_555
C7 N1 1_555 1_555
H4 C7 1_555 1_555
C8 N2 1_555 1_555
H5 C8 1_555 1_555
C9 N1 1_555 1_555
H6 C9 1_555 1_555
C10 N3 1_555 1_555
H7 C10 1_555 1_555
C11 N4 1_555 1_555
H8 C11 1_555 1_555
C12 N3 1_555 1_555
H9 C12 1_555 1_555
C13 N5 1_555 1_555
H10 C13 1_555 1_555
C14 N6 1_555 1_555
H11 C14 1_555 1_555
C15 N5 1_555 1_555
H12 C15 1_555 1_555
C16 C17 1_555 1_555
C17 H13 1_555 1_555
C18 C19 1_555 1_555
C19 H14 1_555 1_555
C20 N7 1_555 1_555
H15 C20 1_555 1_555
C21 N8 1_555 1_555
H16 C21 1_555 1_555
C22 N7 1_555 1_555
H17 C22 1_555 1_555
C23 N9 1_555 1_555
H18 C23 1_555 1_555
C24 N10 1_555 1_555
H19 C24 1_555 1_555
C25 N9 1_555 1_555
H20 C25 1_555 1_555
C26 C27 1_555 1_555
C27 C28 1_555 1_555
C28 H21 1_555 1_555
C29 C28 1_555 1_555
C30 C29 1_555 1_555
H22 C30 1_555 1_555
C31 C26 1_555 1_555
H23 C31 1_555 1_555
C32 C26 1_555 1_555
C33 C27 1_555 1_555
C34 C29 1_555 1_555
C35 C36 1_555 1_555
C36 C37 1_555 1_555
C37 H24 1_555 1_555
C38 C37 1_555 1_555
C39 C38 1_555 1_555
H25 C39 1_555 1_555
C40 C35 1_555 1_555
H26 C40 1_555 1_555
C41 O7 1_555 1_555
C42 O9 1_555 1_555
C43 C38 1_555 1_555
Zn2_2 N6B 1_555 1_555
Zn2_3 N6D 1_555 1_555
Zn3B O3B 1_555 1_555
Zn3D O5 1_555 1_555
Zn3B_2 O7B 1_555 1_555
Zn3D_2 N8D 1_555 1_555
Zn4B O1B 1_555 1_555
Zn4D O11 1_555 1_555
Zn4D_2 O1D 1_555 1_555
Zn4B_2 O9B 1_555 1_555
Zn4_2 O11B_2 1_555 1_555
Co1B N2B 1_555 1_555
Co1D N2D 1_555 1_555
O1B C32B 1_555 1_555
O1D C32D 1_555 1_555
O1D_2 Zn4D 1_555 1_555
O2B C32B 1_555 1_555
O2D C32D 1_555 1_555
O3B C33B 1_555 1_555
O3D Zn3D 1_555 1_555
O4B C33B 1_555 1_555
O4D C33D 1_555 1_555
O5B Zn3 1_555 1_555
O5D Zn3B 1_555 1_555
O6B C34B 1_555 1_555
O6D C34D 1_555 1_555
O7B C41B 1_555 1_555
O7B_2 Zn3B 1_555 1_555
O7D Zn3D 1_555 1_555
O8B C41B 1_555 1_555
O8B_2 C41B_2 1_555 1_555
O9B C42B 1_555 1_555
O9B_2 Zn4B 1_555 1_555
O9D Zn4D 1_555 1_555
O10B C42B 1_555 1_555
O10B_2 C42B_2 1_555 1_555
O11B Zn4 1_555 1_555
O11B_2 C43B_2 1_555 1_555
O11D Zn4B 1_555 1_555
O12B C43B 1_555 1_555
O12B_2 C43B_2 1_555 1_555
O13B Co1 1_555 1_555
O13D Co1 1_555 1_555
N1B C1B 1_555 1_555
N1D C1D 1_555 1_555
N2B C7B 1_555 1_555
N2D C7D 1_555 1_555
N2B_2 Co1 1_555 1_555
N2D_2 Co1 1_555 1_555
N3B C3B 1_555 1_555
N3D C3D 1_555 1_555
N4B Zn1 1_555 1_555
N4D Zn1 1_555 1_555
N5B C5B 1_555 1_555
N5D C5D 1_555 1_555
N6B C13B 1_555 1_555
N6D C13D 1_555 1_555
N6B_2 Zn2 1_555 1_555
N6D_2 Zn2 1_555 1_555
N7B C16B 1_555 1_555
N7D C16D 1_555 1_555
N8B Zn3B_2 1_555 1_555
N8D C20D 1_555 1_555
N8B_2 Zn3B 1_555 1_555
N8D_2 Zn3D 1_555 1_555
N9D C18D 1_555 1_555
N9B C18B 1_555 1_555
N10D Zn4D_2 1_555 1_555
N10B Zn4B 1_555 1_555
N10D_2 Zn4D 1_555 1_555
C1B C2B 1_555 1_555
C1D C2D 1_555 1_555
C2B H1B 1_555 1_555
C2D H1D 1_555 1_555
C3B C2B 1_555 1_555
C3D C2D 1_555 1_555
C4B C3B 1_555 1_555
C4D C3D 1_555 1_555
H2B C4B 1_555 1_555
H2D C4D 1_555 1_555
C5B C4B 1_555 1_555
C5D C4D 1_555 1_555
C6B C1B 1_555 1_555
C6D C1D 1_555 1_555
H3B C6B 1_555 1_555
H3D C6D 1_555 1_555
C7B N1B 1_555 1_555
C7D N1D 1_555 1_555
H4B C7B 1_555 1_555
H4D C7D 1_555 1_555
C8B N2B 1_555 1_555
C8D N2D 1_555 1_555
H5B C8B 1_555 1_555
H5D C8D 1_555 1_555
C9B N1B 1_555 1_555
C9D N1D 1_555 1_555
H6B C9B 1_555 1_555
H6D C9D 1_555 1_555
C10B N3B 1_555 1_555
C10D N3D 1_555 1_555
H7B C10B 1_555 1_555
H7D C10D 1_555 1_555
C11B N4B 1_555 1_555
C11D N4D 1_555 1_555
H8B C11B 1_555 1_555
H8D C11D 1_555 1_555
C12B N3B 1_555 1_555
C12D N3D 1_555 1_555
H9B C12B 1_555 1_555
H9D C12D 1_555 1_555
C13B N5B 1_555 1_555
C13D N5D 1_555 1_555
H10B C13B 1_555 1_555
H10D C13D 1_555 1_555
C14B N6B 1_555 1_555
C14D N6D 1_555 1_555
H11B C14B 1_555 1_555
H11D C14D 1_555 1_555
C15B N5B 1_555 1_555
C15D N5D 1_555 1_555
H12B C15B 1_555 1_555
H12D C15D 1_555 1_555
C16B C17 1_555 1_555
C16D C17B 1_555 1_555
C17B C16B 1_555 1_555
C17D C16 1_555 1_555
H13D C17D 1_555 1_555
H13B C17B 1_555 1_555
C18D C19 1_555 1_555
C18B C19D 1_555 1_555
C19D C18D 1_555 1_555
C19B C18 1_555 1_555
H14B C19B 1_555 1_555
H14D C19D 1_555 1_555
C20B N7B 1_555 1_555
C20D N7D 1_555 1_555
H15B C20B 1_555 1_555
H15D C20D 1_555 1_555
C21B N8B 1_555 1_555
C21D N8D 1_555 1_555
H16B C21B 1_555 1_555
H16D C21D 1_555 1_555
C22B N7B 1_555 1_555
C22D N7D 1_555 1_555
H17B C22B 1_555 1_555
H17D C22D 1_555 1_555
C23D N9D 1_555 1_555
C23B N9B 1_555 1_555
H18D C23D 1_555 1_555
H18B C23B 1_555 1_555
C24D N10D 1_555 1_555
C24B N10B 1_555 1_555
H19D C24D 1_555 1_555
H19B C24B 1_555 1_555
C25D N9D 1_555 1_555
C25B N9B 1_555 1_555
H20D C25D 1_555 1_555
H20B C25B 1_555 1_555
C26B C27B 1_555 1_555
C26D C27D 1_555 1_555
C27B C28B 1_555 1_555
C27D C28D 1_555 1_555
C28B H21B 1_555 1_555
C28D H21D 1_555 1_555
C29B C28B 1_555 1_555
C29D C28D 1_555 1_555
C30B C29B 1_555 1_555
C30D C29D 1_555 1_555
H22B C30B 1_555 1_555
H22D C30D 1_555 1_555
C31B C26B 1_555 1_555
C31D C26D 1_555 1_555
H23B C31B 1_555 1_555
H23D C31D 1_555 1_555
C32B C26B 1_555 1_555
C32D C26D 1_555 1_555
C33B C27B 1_555 1_555
C33D O3D 1_555 1_555
C34B O5B 1_555 1_555
C34D O5D 1_555 1_555
C35B C36B 1_555 1_555
C35B_2 C36B_2 1_555 1_555
C36B C37B 1_555 1_555
C36B_2 C37B_2 1_555 1_555
C37B H24B 1_555 1_555
C37B_2 H24B_2 1_555 1_555
C38B C37B 1_555 1_555
C38B_2 C37B_2 1_555 1_555
C39B C38B 1_555 1_555
C39B_2 C38B_2 1_555 1_555
H25B C39B 1_555 1_555
H25B_2 C39B_2 1_555 1_555
C40B C35B 1_555 1_555
C40B_2 C35B_2 1_555 1_555
H26B C40B 1_555 1_555
H26B_2 C40B_2 1_555 1_555
C41B C35B 1_555 1_555
C41B_2 O7B_2 1_555 1_555
C42B C36B 1_555 1_555
C42B_2 O9B_2 1_555 1_555
C43B O11B 1_555 1_555
C43B_2 C38B_2 1_555 1_555
N2 C7 1_555 1_555
N4 C10 1_555 1_555
N6 C13 1_555 1_555
N8 C20 1_555 1_555
N10 C23 1_555 1_555
C5 C6 1_555 1_555
C8 C9 1_555 1_555
C11 C12 1_555 1_555
C14 C15 1_555 1_555
C21 C22 1_555 1_555
C24 C25 1_555 1_555
C30 C31 1_555 1_555
C35 C41 1_555 1_555
C36 C42 1_555 1_555
C39 C40 1_555 1_555
N4B C10B 1_555 1_555
N4D C10D 1_555 1_555
N8B C20B 1_555 1_555
N10D C23D 1_555 1_555
N10B C23B 1_555 1_555
C5B C6B 1_555 1_555
C5D C6D 1_555 1_555
C8B C9B 1_555 1_555
C8D C9D 1_555 1_555
C11B C12B 1_555 1_555
C11D C12D 1_555 1_555
C14B C15B 1_555 1_555
C14D C15D 1_555 1_555
C16D C17D 1_555 1_555
C18B C19B 1_555 1_555
C21B C22B 1_555 1_555
C21D C22D 1_555 1_555
C24D C25D 1_555 1_555
C24B C25B 1_555 1_555
C27D C33D 1_555 1_555
C29B C34B 1_555 1_555
C29D C34D 1_555 1_555
C30B C31B 1_555 1_555
C30D C31D 1_555 1_555
C35B_2 C41B_2 1_555 1_555
C36B_2 C42B_2 1_555 1_555
C38B C43B 1_555 1_555
C39B C40B 1_555 1_555
C39B_2 C40B_2 1_555 1_555

#END
