
#######################################################################
#
#                 Cambridge Crystallographic Data Centre
#                                CCDC 
#
#######################################################################
#
# If this CIF has been generated from an entry in the Cambridge 
# Structural Database, then it will include bibliographic, chemical, 
# crystal, experimental, refinement or atomic coordinate data resulting 
# from the CCDC's data processing and validation procedures.
#
#######################################################################

data_RUVNAY
_symmetry_cell_setting           monoclinic
_symmetry_space_group_name_H-M   'P 21/c'
_symmetry_Int_Tables_number      14
_space_group_name_Hall           '-P 2ybc'
loop_
_symmetry_equiv_pos_site_id
_symmetry_equiv_pos_as_xyz
1 x,y,z
2 -x,1/2+y,1/2-z
3 -x,-y,-z
4 x,1/2-y,1/2+z
_cell_length_a                   8.6817(9)
_cell_length_b                   16.8803(18)
_cell_length_c                   15.6226(16)
_cell_angle_alpha                90
_cell_angle_beta                 95.541(2)
_cell_angle_gamma                90
_cell_volume                     2278.79
loop_
_atom_site_label
_atom_site_type_symbol
_atom_site_fract_x
_atom_site_fract_y
_atom_site_fract_z
C1 C -0.1358(5) 0.6411(3) 0.1808(3)
C2 C -0.2743(5) 0.6307(3) 0.2162(3)
H1 H -0.3144 0.5803 0.2236
C3 C -0.3522(5) 0.6984(3) 0.2405(3)
C4 C -0.2903(5) 0.7732(3) 0.2337(3)
H2 H -0.3395 0.8173 0.2542
C5 C -0.1546(5) 0.7813(3) 0.1959(3)
C6 C -0.0776(5) 0.7156(3) 0.1680(3)
H3 H 0.0124 0.7218 0.1409
C7 C -0.1047(6) 0.4973(3) 0.1392(3)
H4 H -0.2025 0.4776 0.1468
C8 C 0.0160(5) 0.4563(3) 0.1130(3)
H5 H 0.0157 0.4024 0.1006
C9 C 0.0940(5) 0.5761(3) 0.1328(4)
H6 H 0.1564 0.6210 0.1366
C10 C -0.6090(5) 0.7521(3) 0.2669(3)
H7 H -0.5986 0.8022 0.2435
C11 C -0.7316(5) 0.7243(3) 0.3036(3)
H8 H -0.8219 0.7525 0.3098
C12 C -0.5630(5) 0.6298(3) 0.3097(3)
H9 H -0.5138 0.5814 0.3205
C13 C 0.0487(5) 0.9545(3) 0.1411(3)
H10 H 0.1322 0.9839 0.1255
C14 C 0.0553(6) 0.8767(3) 0.1630(4)
C15 C -0.1814(5) 0.9251(3) 0.1681(3)
H11 H -0.2864 0.9285 0.1752
C16 C -0.4338(5) 0.7934(3) 0.5106(3)
C17 C -0.5276(5) 0.7292(3) 0.5256(3)
H12 H -0.6268 0.7379 0.5413
C18 C -0.4745(5) 0.6517(3) 0.5173(3)
C19 C -0.3288(5) 0.6398(3) 0.4896(3)
H13 H -0.2927 0.5884 0.4838
C20 C -0.2365(5) 0.7032(3) 0.4705(3)
C21 C -0.2892(5) 0.7795(3) 0.4833(3)
H14 H -0.2259 0.8223 0.4733
C22 C -0.4788(5) 0.8758(3) 0.5285(3)
C23 C -0.5688(5) 0.5819(3) 0.5433(3)
C24 C -0.0757(5) 0.6931(3) 0.4435(3)
Cl1 Cl 0.50639(15) 0.44769(8) 0.19358(9)
Co1 Co -0.83356(6) 0.58866(3) 0.40708(4)
N1 N -0.0537(4) 0.5745(2) 0.1525(3)
N2 N 0.1388(4) 0.5064(2) 0.1078(3)
N3 N -0.5023(4) 0.6922(2) 0.2705(3)
N4 N -0.7032(4) 0.6479(2) 0.3307(3)
N5 N -0.0954(4) 0.8581(2) 0.1805(3)
N6 N -0.0975(4) 0.9839(2) 0.1450(3)
O1 O -0.3838(4) 0.93132(18) 0.5183(2)
O2 O -0.6065(4) 0.88937(18) 0.5576(2)
O3 O -0.7127(4) 0.5792(2) 0.5164(2)
O4 O -0.5048(4) 0.5330(2) 0.5923(2)
O5 O -0.0417(4) 0.6229(2) 0.4227(2)
O6 O 0.0115(5) 0.7488(2) 0.4428(4)
Zn1 Zn 0.35975(6) 0.49661(3) 0.08243(4)
Co1A Co -0.16644(6) 1.08866(3) 0.09292(4)
Co1_2 Co 0.16644(6) 0.58866(3) 0.40708(4)
N6A N -0.9025(4) 0.4839(2) 0.3550(3)
O1A O 0.3838(4) 0.43132(18) -0.0183(2)
O2C O 0.3935(4) 0.61063(18) 0.0576(2)
O5_2 O -1.0417(4) 0.6229(2) 0.4227(2)
Zn1A Zn -0.35975(6) 0.99661(3) 0.41757(4)
Zn1C Zn -0.64025(6) 1.00339(3) 0.58243(4)
loop_
_geom_bond_atom_site_label_1
_geom_bond_atom_site_label_2
_geom_bond_site_symmetry_1
_geom_bond_site_symmetry_2
C1 C2 1_555 1_555
C2 H1 1_555 1_555
C3 C2 1_555 1_555
C4 C3 1_555 1_555
H2 C4 1_555 1_555
C5 C4 1_555 1_555
C6 C1 1_555 1_555
H3 C6 1_555 1_555
C7 H4 1_555 1_555
C8 C7 1_555 1_555
H5 C8 1_555 1_555
C9 H6 1_555 1_555
C10 H7 1_555 1_555
C11 C10 1_555 1_555
H8 C11 1_555 1_555
C12 H9 1_555 1_555
C13 H10 1_555 1_555
C14 C13 1_555 1_555
C15 H11 1_555 1_555
C16 C17 1_555 1_555
C17 H12 1_555 1_555
C18 C17 1_555 1_555
C19 C18 1_555 1_555
H13 C19 1_555 1_555
C20 C19 1_555 1_555
C21 C16 1_555 1_555
H14 C21 1_555 1_555
C22 C16 1_555 1_555
C23 C18 1_555 1_555
C24 C20 1_555 1_555
Cl1 Zn1 1_555 1_555
Co1 N4 1_555 1_555
N1 C1 1_555 1_555
N2 C8 1_555 1_555
N3 C3 1_555 1_555
N4 C11 1_555 1_555
N5 C5 1_555 1_555
N6 C13 1_555 1_555
O1 C22 1_555 1_555
O2 C22 1_555 1_555
O3 C23 1_555 1_555
O4 C23 1_555 1_555
O5 C24 1_555 1_555
O6 C24 1_555 1_555
Zn1 N2 1_555 1_555
Co1A N6 1_555 1_555
Co1_2 O5 1_555 1_555
N6A Co1 1_555 1_555
O1A Zn1 1_555 1_555
O2C Zn1 1_555 1_555
O5_2 Co1 1_555 1_555
Zn1A O1 1_555 1_555
Zn1C O2 1_555 1_555
C5 C6 1_555 1_555
C7 N1 1_555 1_555
C9 N1 1_555 1_555
C9 N2 1_555 1_555
C10 N3 1_555 1_555
C12 N3 1_555 1_555
C12 N4 1_555 1_555
C14 N5 1_555 1_555
C15 N5 1_555 1_555
C15 N6 1_555 1_555
C20 C21 1_555 1_555
Co1 O3 1_555 1_555

#END
