
#######################################################################
#
#                 Cambridge Crystallographic Data Centre
#                                CCDC 
#
#######################################################################
#
# If this CIF has been generated from an entry in the Cambridge 
# Structural Database, then it will include bibliographic, chemical, 
# crystal, experimental, refinement or atomic coordinate data resulting 
# from the CCDC's data processing and validation procedures.
#
#######################################################################

data_RUVXIQ
_symmetry_cell_setting           monoclinic
_symmetry_space_group_name_H-M   'P 21/c'
_symmetry_Int_Tables_number      14
_space_group_name_Hall           '-P 2ybc'
loop_
_symmetry_equiv_pos_site_id
_symmetry_equiv_pos_as_xyz
1 x,y,z
2 -x,1/2+y,1/2-z
3 -x,-y,-z
4 x,1/2-y,1/2+z
_cell_length_a                   7.9719(8)
_cell_length_b                   14.0392(14)
_cell_length_c                   21.274(2)
_cell_angle_alpha                90
_cell_angle_beta                 94.585(3)
_cell_angle_gamma                90
_cell_volume                     2373.35
loop_
_atom_site_label
_atom_site_type_symbol
_atom_site_fract_x
_atom_site_fract_y
_atom_site_fract_z
Mo1 Mo 0.90171(7) 0.89031(4) 0.59196(3)
Mo2 Mo 0.76531(7) 1.09749(4) 0.51880(3)
Cu1 Cu 0.66244(11) 0.67852(6) 0.53530(4)
P1 P 0.6341(2) 0.87289(12) 0.45387(8)
P2 P 0.5056(2) 0.65557(12) 0.11185(8)
O1 O 0.6352(6) 0.7667(3) 0.4670(2)
O2 O 0.7341(5) 0.9310(3) 0.5059(2)
O3 O 0.4541(5) 0.9117(3) 0.4421(2)
O4 O 0.8689(5) 1.0463(3) 0.5869(2)
O5 O 0.7945(6) 1.2149(3) 0.5319(2)
O6 O 1.0721(5) 0.9209(3) 0.5380(2)
O7 O 0.3939(5) 0.6009(3) 0.0635(2)
O8 O 0.6764(5) 0.6033(3) 0.1264(2)
O9 O 0.5293(6) 0.7591(3) 0.0949(2)
O10 O 1.0110(6) 0.8981(3) 0.6637(2)
O11 O 0.8918(6) 0.7703(3) 0.5757(2)
N1 N 0.7008(7) 0.5722(4) 0.4750(3)
N2 N 0.7359(7) 0.5765(4) 0.5971(3)
C1 C 0.6732(10) 0.5770(5) 0.4123(3)
H1 H 0.6318 0.6346 0.3934
C2 C 0.7036(11) 0.4996(6) 0.3741(4)
H2 H 0.6781 0.5029 0.3297
C3 C 0.7714(11) 0.4180(5) 0.4017(4)
H3 H 0.7980 0.3653 0.3762
C4 C 0.8002(10) 0.4131(5) 0.4661(4)
H4 H 0.8457 0.3569 0.4856
C5 C 0.7621(9) 0.4915(5) 0.5027(3)
C6 C 0.7803(9) 0.4931(5) 0.5719(3)
C7 C 0.8386(10) 0.4176(5) 0.6093(4)
H5 H 0.8682 0.3587 0.5912
C8 C 0.8527(11) 0.4310(6) 0.6749(4)
H6 H 0.8927 0.3805 0.7018
C9 C 0.8092(10) 0.5166(5) 0.7007(4)
H7 H 0.8189 0.5260 0.7450
C10 C 0.7514(10) 0.5879(5) 0.6605(4)
H8 H 0.7212 0.6474 0.6777
C11 C 0.4077(8) 0.6497(5) 0.1848(3)
H9 H 0.4118 0.5832 0.2003
H10 H 0.2879 0.6681 0.1772
C12 C 0.4918(8) 0.7143(5) 0.2353(3)
C13 C 0.4075(9) 0.7924(5) 0.2572(3)
H11 H 0.2952 0.8051 0.2411
C14 C 0.6579(8) 0.6978(5) 0.2592(3)
H12 H 0.7183 0.6455 0.2439
C15 C 0.7301(8) 0.8936(5) 0.3815(3)
H13 H 0.7197 0.9619 0.3704
H14 H 0.8514 0.8780 0.3877
C16 C 0.6495(8) 0.8342(5) 0.3275(3)
C17 C 0.4867(9) 0.8531(5) 0.3030(3)
H15 H 0.4285 0.9070 0.3172
C18 C 0.7350(9) 0.7570(5) 0.3048(3)
H16 H 0.8476 0.7447 0.3208
Mo1C Mo 0.90171(7) 0.60969(4) 0.09196(3)
Mo2B Mo 0.23469(7) 0.90251(4) 0.48120(3)
Mo2B_2 Mo 1.23469(7) 0.90251(4) 0.48120(3)
Mo2A Mo 0.23469(7) 0.59749(4) -0.01880(3)
Cu1C Cu 0.66244(11) 0.82148(6) 0.03530(4)
O3B O 0.5459(5) 1.0883(3) 0.5579(2)
O6B O 0.9279(5) 1.0791(3) 0.4620(2)
O7A O 0.6061(5) 1.1009(3) 0.4365(2)
O8C O 0.6764(5) 0.8967(3) 0.6264(2)
O9C O 0.5293(6) 0.7409(3) 0.5949(2)
loop_
_geom_bond_atom_site_label_1
_geom_bond_atom_site_label_2
_geom_bond_site_symmetry_1
_geom_bond_site_symmetry_2
Mo1 O2 1_555 1_555
Mo2 O2 1_555 1_555
Cu1 O1 1_555 1_555
P1 O1 1_555 1_555
P2 O7 1_555 1_555
O2 P1 1_555 1_555
O3 P1 1_555 1_555
O4 Mo1 1_555 1_555
O5 Mo2 1_555 1_555
O6 Mo1 1_555 1_555
O7 Mo2A 1_555 1_555
O8 P2 1_555 1_555
O9 P2 1_555 1_555
O10 Mo1 1_555 1_555
O11 Mo1 1_555 1_555
N1 Cu1 1_555 1_555
N2 Cu1 1_555 1_555
C1 N1 1_555 1_555
H1 C1 1_555 1_555
C2 C1 1_555 1_555
H2 C2 1_555 1_555
C3 C2 1_555 1_555
H3 C3 1_555 1_555
C4 C3 1_555 1_555
H4 C4 1_555 1_555
C5 N1 1_555 1_555
C6 N2 1_555 1_555
C7 C6 1_555 1_555
H5 C7 1_555 1_555
C8 C7 1_555 1_555
H6 C8 1_555 1_555
C9 C8 1_555 1_555
H7 C9 1_555 1_555
C10 N2 1_555 1_555
H8 C10 1_555 1_555
C11 P2 1_555 1_555
H9 C11 1_555 1_555
H10 C11 1_555 1_555
C12 C11 1_555 1_555
C13 C12 1_555 1_555
H11 C13 1_555 1_555
C14 C12 1_555 1_555
H12 C14 1_555 1_555
C15 P1 1_555 1_555
H13 C15 1_555 1_555
H14 C15 1_555 1_555
C16 C15 1_555 1_555
C17 C13 1_555 1_555
H15 C17 1_555 1_555
C18 C14 1_555 1_555
H16 C18 1_555 1_555
Mo1C O8 1_555 1_555
Mo2B O3 1_555 1_555
Mo2B_2 O6 1_555 1_555
Cu1C O9 1_555 1_555
O3B Mo2 1_555 1_555
O6B Mo2 1_555 1_555
O7A Mo2 1_555 1_555
O8C Mo1 1_555 1_555
O9C Cu1 1_555 1_555
Mo2 O4 1_555 1_555
Cu1 O11 1_555 1_555
C4 C5 1_555 1_555
C5 C6 1_555 1_555
C9 C10 1_555 1_555
C16 C17 1_555 1_555
C16 C18 1_555 1_555

#END
