
#######################################################################
#
#                 Cambridge Crystallographic Data Centre
#                                CCDC 
#
#######################################################################
#
# If this CIF has been generated from an entry in the Cambridge 
# Structural Database, then it will include bibliographic, chemical, 
# crystal, experimental, refinement or atomic coordinate data resulting 
# from the CCDC's data processing and validation procedures.
#
#######################################################################

data_RUVXUC
_symmetry_cell_setting           monoclinic
_symmetry_space_group_name_H-M   'P 21/c'
_symmetry_Int_Tables_number      14
_space_group_name_Hall           '-P 2ybc'
loop_
_symmetry_equiv_pos_site_id
_symmetry_equiv_pos_as_xyz
1 x,y,z
2 -x,1/2+y,1/2-z
3 -x,-y,-z
4 x,1/2-y,1/2+z
_cell_length_a                   8.4393(14)
_cell_length_b                   20.576(4)
_cell_length_c                   10.0969(17)
_cell_angle_alpha                90
_cell_angle_beta                 91.466(16)
_cell_angle_gamma                90
_cell_volume                     1752.72
loop_
_atom_site_label
_atom_site_type_symbol
_atom_site_fract_x
_atom_site_fract_y
_atom_site_fract_z
Ag1 Ag 0.04130(12) 0.49923(6) 0.34962(11)
Ag2 Ag -0.46924(12) 0.50256(6) 0.17133(11)
Ag3 Ag -0.19925(14) 0.55122(6) -0.11064(11)
Ag4 Ag -0.30463(15) 0.44550(7) 0.45030(12)
S1 S -0.1988(4) 0.45794(16) 0.2292(3)
S2 S 0.3193(4) 0.46014(16) 0.3356(4)
C1 C -0.2364(15) 0.3531(6) 0.0575(12)
C2 C 0.4221(17) 0.3373(7) 0.2810(14)
H1 H 0.4684 0.3564 0.2056
C3 C 0.4440(18) 0.2689(7) 0.3071(14)
H2 H 0.5029 0.2429 0.2481
C4 C -0.1165(18) 0.2466(7) 0.0967(14)
H3 H -0.0966 0.2033 0.0693
C5 C -0.2066(17) 0.2877(7) 0.0179(14)
H4 H -0.2496 0.2723 -0.0641
C6 C -0.0856(17) 0.3326(7) 0.2591(14)
H5 H -0.0449 0.3473 0.3424
C7 C -0.0541(17) 0.2697(7) 0.2186(14)
H6 H 0.0097 0.2420 0.2732
C8 C 0.2911(16) 0.2801(7) 0.5027(14)
H7 H 0.2426 0.2611 0.5773
C9 C 0.2727(14) 0.3474(6) 0.4795(12)
C10 C 0.1914(16) 0.3877(6) 0.5820(13)
C11 C 0.3782(18) 0.2411(7) 0.4192(14)
H8 H 0.3928 0.1962 0.4381
C12 C -0.1750(15) 0.3743(6) 0.1803(12)
C13 C 0.3339(17) 0.3756(6) 0.3655(13)
C14 C -0.3135(16) 0.4002(7) -0.0395(13)
O1 O 0.2741(12) 0.4017(5) 0.6820(9)
O2 O -0.1097(16) 0.6044(6) 0.0599(12)
H9 H -0.0375 0.6330 0.0685
H10 H -0.1556 0.6014 0.1338
O3 O 0.0485(11) 0.4060(5) 0.5583(9)
O4 O -0.3794(14) 0.3788(6) 0.6079(12)
H11 H -0.4730 0.3796 0.6406
H12 H -0.3299 0.3480 0.6501
O5 O -0.2285(12) 0.4205(5) -0.1279(10)
O6 O -0.4553(12) 0.4142(5) -0.0248(9)
Ag1B Ag -0.04130(12) 0.50077(6) 0.65038(11)
Ag2_2 Ag 0.53076(12) 0.50256(6) 0.17133(11)
Ag2B Ag -0.53076(12) 0.49744(6) -0.17133(11)
Ag3B Ag 0.19925(14) 0.44878(6) 0.11064(11)
Ag4B Ag 0.30463(15) 0.55450(7) 0.54970(12)
S2_2 S -0.6807(4) 0.46014(16) 0.3356(4)
S2B S -0.3193(4) 0.53986(16) -0.3356(4)
S2B_2 S -0.3193(4) 0.53986(16) 0.6644(4)
O3B O -0.0485(11) 0.5940(5) 0.4417(9)
O6B O -0.5447(12) 0.5858(5) 0.0248(9)
loop_
_geom_bond_atom_site_label_1
_geom_bond_atom_site_label_2
_geom_bond_site_symmetry_1
_geom_bond_site_symmetry_2
Ag1 S1 1_555 1_555
Ag2 S1 1_555 1_555
Ag3 O2 1_555 1_555
Ag4 S1 1_555 1_555
S1 C12 1_555 1_555
S2 Ag1 1_555 1_555
C1 C5 1_555 1_555
C2 H1 1_555 1_555
C3 C2 1_555 1_555
H2 C3 1_555 1_555
C4 H3 1_555 1_555
C5 C4 1_555 1_555
H4 C5 1_555 1_555
C6 H5 1_555 1_555
C7 C4 1_555 1_555
H6 C7 1_555 1_555
C8 H7 1_555 1_555
C9 C8 1_555 1_555
C10 C9 1_555 1_555
C11 C3 1_555 1_555
H8 C11 1_555 1_555
C12 C1 1_555 1_555
C13 S2 1_555 1_555
C14 C1 1_555 1_555
O1 C10 1_555 1_555
O2 H9 1_555 1_555
H10 O2 1_555 1_555
O3 C10 1_555 1_555
O4 Ag4 1_555 1_555
H11 O4 1_555 1_555
H12 O4 1_555 1_555
O5 Ag3 1_555 1_555
O6 Ag2 1_555 1_555
Ag1B O3 1_555 1_555
Ag2_2 S2 1_555 1_555
Ag2B O6 1_555 1_555
Ag3B S2 1_555 1_555
Ag4B S2 1_555 1_555
S2_2 Ag2 1_555 1_555
S2B Ag3 1_555 1_555
S2B_2 Ag4 1_555 1_555
O3B Ag1 1_555 1_555
O6B Ag2 1_555 1_555
C2 C13 1_555 1_555
C6 C7 1_555 1_555
C6 C12 1_555 1_555
C8 C11 1_555 1_555
C9 C13 1_555 1_555
C14 O5 1_555 1_555
C14 O6 1_555 1_555
Ag1B S2B_2 1_555 1_555
Ag2B S2B 1_555 1_555
Ag2B O6B 1_555 1_555

#END
