
#######################################################################
#
#                 Cambridge Crystallographic Data Centre
#                                CCDC 
#
#######################################################################
#
# If this CIF has been generated from an entry in the Cambridge 
# Structural Database, then it will include bibliographic, chemical, 
# crystal, experimental, refinement or atomic coordinate data resulting 
# from the CCDC's data processing and validation procedures.
#
#######################################################################

data_RUVYUD
_symmetry_cell_setting           monoclinic
_symmetry_space_group_name_H-M   'C 2/c'
_symmetry_Int_Tables_number      15
_space_group_name_Hall           '-C 2yn'
loop_
_symmetry_equiv_pos_site_id
_symmetry_equiv_pos_as_xyz
1 x,y,z
2 -x,y,1/2-z
3 1/2+x,1/2+y,z
4 1/2-x,1/2+y,1/2-z
5 -x,-y,-z
6 x,-y,1/2+z
7 1/2-x,1/2-y,-z
8 1/2+x,1/2-y,1/2+z
_cell_length_a                   25.212(3)
_cell_length_b                   11.4905(14)
_cell_length_c                   13.7505(17)
_cell_angle_alpha                90
_cell_angle_beta                 98.969(2)
_cell_angle_gamma                90
_cell_volume                     3934.79
loop_
_atom_site_label
_atom_site_type_symbol
_atom_site_fract_x
_atom_site_fract_y
_atom_site_fract_z
Ag1 Ag 0.009436(16) 0.13261(3) 0.13908(3)
C12 C 0.05123(19) 0.3871(4) 0.1239(4)
H9 H 0.0834 0.3478 0.1231
C13 C 0.05173(17) 0.5063(4) 0.1215(4)
H10 H 0.0838 0.5456 0.1193
C14 C 0.00455(17) 0.5688(4) 0.1225(3)
C15 C -0.04126(18) 0.5022(4) 0.1267(4)
H11 H -0.0740 0.5387 0.1281
C16 C -0.03817(19) 0.3837(4) 0.1286(4)
H12 H -0.0695 0.3418 0.1310
C17 C 0.00332(17) 0.6961(4) 0.1201(3)
C18 C 0.0496(2) 0.7614(4) 0.1371(5)
H13 H 0.0828 0.7243 0.1498
C19 C 0.0472(2) 0.8812(4) 0.1353(5)
H14 H 0.0794 0.9222 0.1466
C20 C -0.04369(19) 0.7618(4) 0.1008(5)
H15 H -0.0767 0.7243 0.0874
C21 C -0.0418(2) 0.8800(4) 0.1012(5)
H16 H -0.0741 0.9201 0.0882
N2 N 0.00705(15) 0.3245(4) 0.1272(3)
N3 N 0.00218(15) 0.9412(3) 0.1184(3)
Ag1A Ag -0.009436(16) 0.13261(3) 0.36092(3)
Ag1_2 Ag 0.009436(16) 1.13261(3) 0.13908(3)
N3_2 N 0.00218(15) -0.0588(3) 0.1184(3)
C1 C 0.12358(19) 0.1227(4) 0.2459(4)
C2 C 0.18013(18) 0.1115(4) 0.3055(4)
H1 H 0.1895 0.0297 0.3128
H2 H 0.2057 0.1486 0.2697
C3 C 0.18215(18) 0.0954(4) 0.4818(4)
H3 H 0.1811 0.0151 0.4730
C4 C 0.18167(18) 0.1382(4) 0.5733(4)
H4 H 0.1804 0.0866 0.6250
C5 C 0.18308(17) 0.2595(4) 0.5927(4)
C6 C 0.18422(17) 0.3322(4) 0.5070(4)
C7 C 0.18576(18) 0.4544(4) 0.5150(4)
H5 H 0.1860 0.4884 0.5765
C8 C 0.1870(2) 0.5236(4) 0.4358(5)
H6 H 0.1885 0.6040 0.4434
C9 C 0.1859(2) 0.4748(4) 0.3432(4)
H7 H 0.1861 0.5227 0.2887
C10 C 0.18462(19) 0.3572(4) 0.3318(4)
H8 H 0.1841 0.3252 0.2695
C11 C 0.18412(16) 0.2835(4) 0.4136(3)
N1 N 0.18410(14) 0.1640(3) 0.4023(3)
O1 O 0.08613(13) 0.1324(3) 0.2933(3)
O2 O 0.12004(14) 0.1183(3) 0.1547(3)
O3 O 0.18259(14) 0.3023(3) 0.6773(3)
O4 O 0.2834(2) 0.3183(4) 0.1459(3)
H17 H 0.2994 0.2844 0.1965
H18 H 0.2998 0.3060 0.0978
O5 O 0.18650(19) 0.2146(4) 0.0424(4)
H19 H 0.1661 0.1799 0.0765
H20 H 0.2176 0.2200 0.0752
loop_
_geom_bond_atom_site_label_1
_geom_bond_atom_site_label_2
_geom_bond_site_symmetry_1
_geom_bond_site_symmetry_2
Ag1 N2 1_555 1_555
C1 C2 1_555 1_555
C2 H1 1_555 1_555
H2 C2 1_555 1_555
C3 H3 1_555 1_555
C4 C3 1_555 1_555
H4 C4 1_555 1_555
C5 C4 1_555 1_555
C6 C5 1_555 1_555
C7 C6 1_555 1_555
H5 C7 1_555 1_555
C8 C7 1_555 1_555
H6 C8 1_555 1_555
C9 C8 1_555 1_555
H7 C9 1_555 1_555
C10 C9 1_555 1_555
H8 C10 1_555 1_555
C11 C6 1_555 1_555
C12 H9 1_555 1_555
C13 C12 1_555 1_555
H10 C13 1_555 1_555
C14 C13 1_555 1_555
C15 C14 1_555 1_555
H11 C15 1_555 1_555
C16 C15 1_555 1_555
H12 C16 1_555 1_555
C17 C14 1_555 1_555
C18 C17 1_555 1_555
H13 C18 1_555 1_555
C19 C18 1_555 1_555
H14 C19 1_555 1_555
C20 C17 1_555 1_555
H15 C20 1_555 1_555
C21 C20 1_555 1_555
H16 C21 1_555 1_555
N1 C2 1_555 1_555
N2 C12 1_555 1_555
N3 C19 1_555 1_555
O1 C1 1_555 1_555
O2 C1 1_555 1_555
O3 C5 1_555 1_555
O4 H17 1_555 1_555
H18 O4 1_555 1_555
O5 H19 1_555 1_555
H20 O5 1_555 1_555
Ag1A Ag1 1_555 1_555
Ag1_2 N3 1_555 1_555
N3_2 Ag1 1_555 1_555
C3 N1 1_555 1_555
C10 C11 1_555 1_555
C11 N1 1_555 1_555
C16 N2 1_555 1_555
C21 N3 1_555 1_555

#END
