
#######################################################################
#
#                 Cambridge Crystallographic Data Centre
#                                CCDC 
#
#######################################################################
#
# If this CIF has been generated from an entry in the Cambridge 
# Structural Database, then it will include bibliographic, chemical, 
# crystal, experimental, refinement or atomic coordinate data resulting 
# from the CCDC's data processing and validation procedures.
#
#######################################################################

data_RUVYOX
_symmetry_cell_setting           monoclinic
_symmetry_space_group_name_H-M   'C 2/c'
_symmetry_Int_Tables_number      15
_space_group_name_Hall           '-C 2yn'
loop_
_symmetry_equiv_pos_site_id
_symmetry_equiv_pos_as_xyz
1 x,y,z
2 -x,y,1/2-z
3 1/2+x,1/2+y,z
4 1/2-x,1/2+y,1/2-z
5 -x,-y,-z
6 x,-y,1/2+z
7 1/2-x,1/2-y,-z
8 1/2+x,1/2-y,1/2+z
_cell_length_a                   22.015(4)
_cell_length_b                   11.743(2)
_cell_length_c                   13.315(3)
_cell_angle_alpha                90
_cell_angle_beta                 102.85(3)
_cell_angle_gamma                90
_cell_volume                     3356.01
loop_
_atom_site_label
_atom_site_type_symbol
_atom_site_fract_x
_atom_site_fract_y
_atom_site_fract_z
Cd1 Cd 0.0000 0.196369(16) 0.2500
C1 C 0.09769(11) 0.20315(19) 0.10475(17)
C2 C 0.16422(11) 0.1938(2) 0.08977(17)
H1 H 0.1908 0.2444 0.1381
H2 H 0.1790 0.1166 0.1057
C3 C 0.17812(11) 0.1375(2) -0.07862(19)
H3 H 0.1796 0.0632 -0.0542
C4 C 0.18404(12) 0.1540(2) -0.17601(19)
H4 H 0.1891 0.0916 -0.2163
C5 C 0.18273(11) 0.2644(2) -0.21777(17)
C6 C 0.17339(10) 0.3567(2) -0.14934(16)
C7 C 0.17132(13) 0.4704(2) -0.1826(2)
H5 H 0.1761 0.4867 -0.2488
C8 C 0.16245(16) 0.5572(2) -0.1195(3)
H6 H 0.1611 0.6321 -0.1426
C9 C 0.15550(15) 0.5333(2) -0.0206(3)
H7 H 0.1493 0.5927 0.0222
C10 C 0.15754(12) 0.4244(2) 0.0148(2)
H8 H 0.1528 0.4099 0.0812
C11 C 0.16684(10) 0.33400(19) -0.04910(17)
C12 C 0.03031(12) -0.06140(18) 0.19075(19)
H9 H 0.0515 -0.0217 0.1487
C13 C 0.03163(11) -0.17858(18) 0.18894(18)
H10 H 0.0537 -0.2162 0.1469
C14 C 0.0000 -0.2404(2) 0.2500
C15 C 0.0000 -0.3663(2) 0.2500
C16 C 0.00327(13) -0.42793(19) 0.16286(17)
H11 H 0.0056 -0.3904 0.1023
C17 C 0.00303(13) -0.54531(19) 0.16622(17)
H12 H 0.0051 -0.5851 0.1067
N1 N 0.17025(9) 0.22210(16) -0.01452(14)
N2 N 0.0000 -0.0016(2) 0.2500
N3 N 0.0000 -0.6046(2) 0.2500
O1 O 0.09312(7) 0.19387(13) 0.19720(12)
O2 O 0.05503(9) 0.2183(2) 0.02917(14)
O3 O 0.18957(10) 0.28452(17) -0.30768(13)
O4 O -0.05318(8) 0.20448(15) 0.07960(13)
H13 H -0.0238 0.1974 0.0474
H14 H -0.0847 0.1699 0.0435
Cd1_2 Cd 0.0000 -0.803631(16) 0.2500
C1A C -0.09769(11) 0.20315(19) 0.39525(17)
C2A C -0.16422(11) 0.1938(2) 0.41023(17)
H1A H -0.1908 0.2444 0.3619
H2A H -0.1790 0.1166 0.3943
C3A C -0.17812(11) 0.1375(2) 0.57862(19)
H3A H -0.1796 0.0632 0.5542
C4A C -0.18404(12) 0.1540(2) 0.67601(19)
H4A H -0.1891 0.0916 0.7163
C5A C -0.18273(11) 0.2644(2) 0.71777(17)
C6A C -0.17339(10) 0.3567(2) 0.64934(16)
C7A C -0.17132(13) 0.4704(2) 0.6826(2)
H5A H -0.1761 0.4867 0.7488
C8A C -0.16245(16) 0.5572(2) 0.6195(3)
H6A H -0.1611 0.6321 0.6426
C9A C -0.15550(15) 0.5333(2) 0.5206(3)
H7A H -0.1493 0.5927 0.4778
C10A C -0.15754(12) 0.4244(2) 0.4852(2)
H8A H -0.1528 0.4099 0.4188
C11A C -0.16684(10) 0.33400(19) 0.54910(17)
C12A C -0.03031(12) -0.06140(18) 0.30925(19)
H9A H -0.0515 -0.0217 0.3513
C13A C -0.03163(11) -0.17858(18) 0.31106(18)
H10A H -0.0537 -0.2162 0.3531
C16A C -0.00327(13) -0.42793(19) 0.33714(17)
H11A H -0.0056 -0.3904 0.3977
C17A C -0.00303(13) -0.54531(19) 0.33378(17)
H12A H -0.0051 -0.5851 0.3933
N1A N -0.17025(9) 0.22210(16) 0.51452(14)
N3_2 N 0.0000 0.3954(2) 0.2500
O1A O -0.09312(7) 0.19387(13) 0.30280(12)
O2A O -0.05503(9) 0.2183(2) 0.47083(14)
O3A O -0.18957(10) 0.28452(17) 0.80768(13)
O4A O 0.05318(8) 0.20448(15) 0.42040(13)
H13A H 0.0238 0.1974 0.4526
H14A H 0.0847 0.1699 0.4565
O5 O 0.30040(9) 0.36662(17) 0.64249(14)
H15 H 0.3307 0.3492 0.6915
H16 H 0.2680 0.3395 0.6592
O6 O 0.83888(8) 0.11785(16) 0.95884(13)
H17 H 0.8270 0.1659 0.9107
H18 H 0.8157 0.1240 1.0016
loop_
_geom_bond_atom_site_label_1
_geom_bond_atom_site_label_2
_geom_bond_site_symmetry_1
_geom_bond_site_symmetry_2
Cd1 N2 1_555 1_555
C1 C2 1_555 1_555
C2 H1 1_555 1_555
H2 C2 1_555 1_555
C3 H3 1_555 1_555
C4 C3 1_555 1_555
H4 C4 1_555 1_555
C5 C4 1_555 1_555
C6 C5 1_555 1_555
C7 C6 1_555 1_555
H5 C7 1_555 1_555
C8 C7 1_555 1_555
H6 C8 1_555 1_555
C9 C8 1_555 1_555
H7 C9 1_555 1_555
C10 C9 1_555 1_555
H8 C10 1_555 1_555
C11 C6 1_555 1_555
C12 H9 1_555 1_555
C13 C12 1_555 1_555
H10 C13 1_555 1_555
C14 C13 1_555 1_555
C15 C14 1_555 1_555
C16 C15 1_555 1_555
H11 C16 1_555 1_555
C17 C16 1_555 1_555
H12 C17 1_555 1_555
N1 C2 1_555 1_555
N2 C12 1_555 1_555
N3 C17 1_555 1_555
O1 Cd1 1_555 1_555
O2 C1 1_555 1_555
O3 C5 1_555 1_555
O4 Cd1 1_555 1_555
H13 O4 1_555 1_555
H14 O4 1_555 1_555
O5 H15 1_555 1_555
H16 O5 1_555 1_555
O6 H17 1_555 1_555
H18 O6 1_555 1_555
Cd1_2 N3 1_555 1_555
C1A C2A 1_555 1_555
C2A H1A 1_555 1_555
H2A C2A 1_555 1_555
C3A H3A 1_555 1_555
C4A C3A 1_555 1_555
H4A C4A 1_555 1_555
C5A C4A 1_555 1_555
C6A C5A 1_555 1_555
C7A C6A 1_555 1_555
H5A C7A 1_555 1_555
C8A C7A 1_555 1_555
H6A C8A 1_555 1_555
C9A C8A 1_555 1_555
H7A C9A 1_555 1_555
C10A C9A 1_555 1_555
H8A C10A 1_555 1_555
C11A C6A 1_555 1_555
C12A N2 1_555 1_555
H9A C12A 1_555 1_555
C13A C14 1_555 1_555
H10A C13A 1_555 1_555
C16A C15 1_555 1_555
H11A C16A 1_555 1_555
C17A N3 1_555 1_555
H12A C17A 1_555 1_555
N1A C2A 1_555 1_555
N3_2 Cd1 1_555 1_555
O1A Cd1 1_555 1_555
O2A C1A 1_555 1_555
O3A C5A 1_555 1_555
O4A Cd1 1_555 1_555
H13A O4A 1_555 1_555
H14A O4A 1_555 1_555
C1 O1 1_555 1_555
C3 N1 1_555 1_555
C10 C11 1_555 1_555
C11 N1 1_555 1_555
C1A O1A 1_555 1_555
C3A N1A 1_555 1_555
C10A C11A 1_555 1_555
C11A N1A 1_555 1_555
C12A C13A 1_555 1_555
C16A C17A 1_555 1_555

#END
