
#######################################################################
#
#                 Cambridge Crystallographic Data Centre
#                                CCDC 
#
#######################################################################
#
# If this CIF has been generated from an entry in the Cambridge 
# Structural Database, then it will include bibliographic, chemical, 
# crystal, experimental, refinement or atomic coordinate data resulting 
# from the CCDC's data processing and validation procedures.
#
#######################################################################

data_RUVZIS
_symmetry_cell_setting           orthorhombic
_symmetry_space_group_name_H-M   'C m c m'
_symmetry_Int_Tables_number      63
_space_group_name_Hall           '-C 2n 2'
loop_
_symmetry_equiv_pos_site_id
_symmetry_equiv_pos_as_xyz
1 x,y,z
2 -x,-y,1/2+z
3 -x,y,1/2-z
4 x,-y,-z
5 1/2+x,1/2+y,z
6 1/2-x,1/2-y,1/2+z
7 1/2-x,1/2+y,1/2-z
8 1/2+x,1/2-y,-z
9 -x,-y,-z
10 x,y,1/2-z
11 x,-y,1/2+z
12 -x,y,z
13 1/2-x,1/2-y,-z
14 1/2+x,1/2+y,1/2-z
15 1/2+x,1/2-y,1/2+z
16 1/2-x,1/2+y,z
_cell_length_a                   10.201(8)
_cell_length_b                   12.987(10)
_cell_length_c                   7.778(6)
_cell_angle_alpha                90
_cell_angle_beta                 90
_cell_angle_gamma                90
_cell_volume                     1030.43
loop_
_atom_site_label
_atom_site_type_symbol
_atom_site_fract_x
_atom_site_fract_y
_atom_site_fract_z
Cd1 Cd 0.5000 0.53115(3) 0.2500
Br1 Br 0.5000 0.73341(6) 0.2500
Br2 Br 0.68853(5) 0.5000 0.0000
N1 N 0.5000 0.3359(4) 0.2500
N2 N 0.5000 0.1271(3) 0.2500
C1 C 0.6110(5) 0.2848(4) 0.2500
H1 H 0.6896 0.3211 0.2500
C2 C 0.6143(5) 0.1774(4) 0.2500
H2 H 0.6935 0.1419 0.2500
C3 C 0.5000 0.0110(5) 0.2500
Cd1A Cd 0.5000 0.46885(3) -0.2500
Cd1A_2 Cd 0.5000 0.46885(3) 0.7500
Br2A Br 0.31147(5) 0.5000 0.5000
Br2H Br 0.31147(5) 0.5000 0.0000
Br2I Br 0.68853(5) 0.5000 0.5000
C1B C 0.3890(5) 0.2848(4) 0.2500
H1B H 0.3104 0.3211 0.2500
C2B C 0.3857(5) 0.1774(4) 0.2500
H2B H 0.3065 0.1419 0.2500
loop_
_geom_bond_atom_site_label_1
_geom_bond_atom_site_label_2
_geom_bond_site_symmetry_1
_geom_bond_site_symmetry_2
Cd1 Br1 1_555 1_555
Br2 Cd1 1_555 1_555
N1 Cd1 1_555 1_555
N2 C2 1_555 1_555
C1 N1 1_555 1_555
H1 C1 1_555 1_555
C2 C1 1_555 1_555
H2 C2 1_555 1_555
C3 N2 1_555 1_555
Cd1A Br2 1_555 1_555
Cd1A_2 Br2A 1_555 1_555
Br2A Cd1 1_555 1_555
Br2H Cd1 1_555 1_555
Br2I Cd1 1_555 1_555
C1B N1 1_555 1_555
H1B C1B 1_555 1_555
C2B N2 1_555 1_555
H2B C2B 1_555 1_555
Cd1A Br2H 1_555 1_555
Cd1A_2 Br2I 1_555 1_555
C1B C2B 1_555 1_555

#END
