
#######################################################################
#
#                 Cambridge Crystallographic Data Centre
#                                CCDC 
#
#######################################################################
#
# If this CIF has been generated from an entry in the Cambridge 
# Structural Database, then it will include bibliographic, chemical, 
# crystal, experimental, refinement or atomic coordinate data resulting 
# from the CCDC's data processing and validation procedures.
#
#######################################################################

data_RUWTOS
_symmetry_cell_setting           triclinic
_symmetry_space_group_name_H-M   'P -1'
_symmetry_Int_Tables_number      2
_space_group_name_Hall           '-P 1'
loop_
_symmetry_equiv_pos_site_id
_symmetry_equiv_pos_as_xyz
1 x,y,z
2 -x,-y,-z
_cell_length_a                   11.8699(1)
_cell_length_b                   14.2869(2)
_cell_length_c                   21.8171(3)
_cell_angle_alpha                80.8126(5)
_cell_angle_beta                 82.6669(6)
_cell_angle_gamma                87.7221(8)
_cell_volume                     3621.79
loop_
_atom_site_label
_atom_site_type_symbol
_atom_site_fract_x
_atom_site_fract_y
_atom_site_fract_z
Au1 Au -0.485471(16) 0.944034(13) 0.225745(9)
Au2 Au 0.041706(15) 0.893477(12) 0.208563(9)
Tl1 Tl -0.237058(16) 0.911556(13) 0.247703(10)
Tl2 Tl -0.697170(17) 0.841970(13) 0.193520(10)
C1 C -0.4403(4) 1.0300(3) 0.1418(2)
C2 C -0.4469(3) 1.1287(3) 0.1361(2)
C3 C -0.4184(4) 1.1888(3) 0.0801(2)
C4 C -0.3809(4) 1.1499(3) 0.0263(2)
C5 C -0.3721(4) 1.0520(3) 0.0294(2)
C6 C -0.4036(4) 0.9948(3) 0.0860(2)
Cl1 Cl -0.48901(12) 1.17923(9) 0.20286(6)
Cl2 Cl -0.42787(13) 1.30994(9) 0.07605(7)
Cl3 Cl -0.34015(12) 1.22383(9) -0.04280(6)
Cl4 Cl -0.32274(12) 1.00353(9) -0.03689(6)
Cl5 Cl -0.39088(12) 0.87194(9) 0.08899(7)
C7 C -0.5328(4) 0.8621(3) 0.3108(2)
C8 C -0.5925(4) 0.9016(3) 0.3603(2)
C9 C -0.6262(4) 0.8500(4) 0.4188(2)
C10 C -0.6032(5) 0.7534(4) 0.4290(2)
C11 C -0.5434(5) 0.7108(4) 0.3816(2)
C12 C -0.5079(4) 0.7660(3) 0.3246(2)
Cl6 Cl -0.62933(11) 1.02202(9) 0.34761(7)
Cl7 Cl -0.69590(14) 0.90383(11) 0.47874(7)
Cl8 Cl -0.64633(15) 0.68722(11) 0.50093(7)
Cl9 Cl -0.51278(17) 0.59082(11) 0.39566(8)
Cl10 Cl -0.42564(14) 0.71140(10) 0.26804(7)
C13 C 0.0590(4) 1.0191(3) 0.1491(2)
C14 C -0.0064(4) 1.0423(3) 0.0993(2)
C15 C 0.0112(4) 1.1203(3) 0.0529(2)
C16 C 0.1016(4) 1.1795(3) 0.0537(2)
C17 C 0.1679(4) 1.1620(3) 0.1028(2)
C18 C 0.1445(4) 1.0844(3) 0.1489(2)
Cl11 Cl -0.12117(11) 0.97103(10) 0.09679(6)
Cl12 Cl -0.07739(12) 1.14756(11) -0.00421(6)
Cl13 Cl 0.12942(12) 1.27423(10) -0.00504(7)
Cl14 Cl 0.27772(11) 1.23662(9) 0.10399(7)
Cl15 Cl 0.22726(11) 1.06672(9) 0.21056(6)
C19 C 0.0178(4) 0.7650(3) 0.2652(2)
C20 C -0.0521(4) 0.6974(3) 0.2513(2)
C21 C -0.0808(4) 0.6135(3) 0.2903(3)
C22 C -0.0393(5) 0.5943(4) 0.3476(3)
C23 C 0.0355(5) 0.6567(4) 0.3637(2)
C24 C 0.0623(4) 0.7402(3) 0.3222(2)
Cl16 Cl -0.10708(12) 0.71986(9) 0.17955(7)
Cl17 Cl -0.16997(15) 0.53604(11) 0.26896(10)
Cl18 Cl -0.08054(17) 0.49309(12) 0.39898(9)
Cl19 Cl 0.08920(17) 0.63203(12) 0.43401(7)
Cl20 Cl 0.15698(13) 0.81617(11) 0.34231(7)
O1 O -0.2297(3) 1.0653(3) 0.28524(19)
P1 P -0.18863(11) 1.15602(9) 0.29955(6)
C25 C -0.3049(4) 1.2276(3) 0.3287(2)
C26 C -0.2936(4) 1.3236(3) 0.3304(2)
H1 H -0.2212 1.3516 0.3187
C27 C -0.3851(5) 1.3783(4) 0.3487(3)
H2 H -0.3762 1.4440 0.3492
C28 C -0.4906(4) 1.3380(4) 0.3665(3)
H3 H -0.5543 1.3759 0.3792
C29 C -0.5030(4) 1.2426(4) 0.3657(3)
H4 H -0.5755 1.2149 0.3780
C30 C -0.4109(4) 1.1870(4) 0.3473(2)
H5 H -0.4198 1.1212 0.3474
C31 C -0.1194(4) 1.2296(3) 0.2316(2)
C32 C -0.1617(4) 1.2295(4) 0.1748(2)
H6 H -0.2193 1.1866 0.1719
C33 C -0.1194(5) 1.2923(4) 0.1226(3)
H7 H -0.1482 1.2929 0.0839
C34 C -0.0358(5) 1.3539(4) 0.1269(3)
H8 H -0.0079 1.3977 0.0912
C35 C 0.0076(5) 1.3525(4) 0.1824(3)
H9 H 0.0671 1.3940 0.1845
C36 C -0.0340(5) 1.2916(4) 0.2349(3)
H10 H -0.0046 1.2919 0.2734
C37 C -0.0906(4) 1.1357(3) 0.3568(2)
C38 C -0.0967(4) 1.1835(4) 0.4075(2)
H11 H -0.1532 1.2318 0.4122
C39 C -0.0215(5) 1.1621(5) 0.4516(3)
H12 H -0.0260 1.1961 0.4859
C40 C 0.0589(5) 1.0923(4) 0.4456(3)
H13 H 0.1094 1.0767 0.4763
C41 C 0.0673(5) 1.0444(5) 0.3955(3)
H14 H 0.1248 0.9969 0.3911
C42 C -0.0070(5) 1.0646(4) 0.3514(3)
H15 H -0.0016 1.0303 0.3173
O2 O -0.6954(3) 0.6595(3) 0.2226(2)
P2 P -0.66615(11) 0.56629(9) 0.20083(7)
C43 C -0.5172(4) 0.5481(3) 0.1783(2)
C44 C -0.4562(4) 0.4662(4) 0.1974(2)
H16 H -0.4932 0.4154 0.2251
C45 C -0.3429(5) 0.4579(4) 0.1764(3)
H17 H -0.3019 0.4013 0.1895
C46 C -0.2888(5) 0.5307(4) 0.1368(3)
H18 H -0.2103 0.5245 0.1224
C47 C -0.3473(5) 0.6127(4) 0.1179(3)
H19 H -0.3090 0.6633 0.0906
C48 C -0.4608(4) 0.6221(4) 0.1382(2)
H20 H -0.5010 0.6791 0.1250
C49 C -0.7318(4) 0.5544(3) 0.1328(3)
C50 C -0.6818(5) 0.5034(4) 0.0869(3)
H21 H -0.6100 0.4729 0.0912
C51 C -0.7351(6) 0.4965(5) 0.0354(3)
H22 H -0.7004 0.4619 0.0040
C52 C -0.8397(6) 0.5405(5) 0.0301(3)
H23 H -0.8773 0.5352 -0.0051
C53 C -0.8907(6) 0.5918(5) 0.0746(4)
H24 H -0.9623 0.6225 0.0698
C54 C -0.8377(5) 0.5986(4) 0.1263(3)
H25 H -0.8730 0.6333 0.1575
C55 C -0.7153(4) 0.4687(4) 0.2599(2)
C56 C -0.7210(5) 0.3771(4) 0.2459(3)
H26 H -0.6968 0.3647 0.2047
C57 C -0.7621(5) 0.3045(4) 0.2923(3)
H27 H -0.7652 0.2420 0.2831
C58 C -0.7980(5) 0.3227(5) 0.3512(3)
H28 H -0.8266 0.2726 0.3827
C59 C -0.7933(5) 0.4122(5) 0.3655(3)
H29 H -0.8190 0.4237 0.4067
C60 C -0.7512(4) 0.4863(4) 0.3203(3)
H30 H -0.7470 0.5482 0.3305
O3 O -0.2786(5) 0.8536(4) 0.3756(2)
C61 C -0.3046(7) 0.9143(5) 0.4208(3)
H31 H -0.3671 0.9591 0.4095
H32 H -0.2372 0.9511 0.4240
C62 C -0.3396(6) 0.8519(5) 0.4811(3)
H33 H -0.4234 0.8483 0.4895
H34 H -0.3107 0.8757 0.5162
C63 C -0.2873(9) 0.7570(6) 0.4724(4)
H35 H -0.2264 0.7403 0.4995
H36 H -0.3453 0.7071 0.4828
C64 C -0.2405(8) 0.7664(6) 0.4059(4)
H37 H -0.1564 0.7641 0.4017
H38 H -0.2665 0.7139 0.3869
Tl2_2 Tl 0.302830(17) 0.841970(13) 0.193520(10)
Au2_2 Au -0.958294(15) 0.893477(12) 0.208563(9)
loop_
_geom_bond_atom_site_label_1
_geom_bond_atom_site_label_2
_geom_bond_site_symmetry_1
_geom_bond_site_symmetry_2
Au1 Tl1 1_555 1_555
Au2 Tl1 1_555 1_555
Tl1 O1 1_555 1_555
Tl2 Au1 1_555 1_555
C1 Au1 1_555 1_555
C2 C1 1_555 1_555
C3 C2 1_555 1_555
C4 C3 1_555 1_555
C5 C4 1_555 1_555
C6 C1 1_555 1_555
Cl1 C2 1_555 1_555
Cl2 C3 1_555 1_555
Cl3 C4 1_555 1_555
Cl4 C5 1_555 1_555
Cl5 C6 1_555 1_555
C7 Au1 1_555 1_555
C8 C7 1_555 1_555
C9 C8 1_555 1_555
C10 C9 1_555 1_555
C11 C10 1_555 1_555
C12 C7 1_555 1_555
Cl6 C8 1_555 1_555
Cl7 C9 1_555 1_555
Cl8 C10 1_555 1_555
Cl9 C11 1_555 1_555
Cl10 C12 1_555 1_555
C13 Au2 1_555 1_555
C14 C13 1_555 1_555
C15 C14 1_555 1_555
C16 C15 1_555 1_555
C17 C16 1_555 1_555
C18 C13 1_555 1_555
Cl11 C14 1_555 1_555
Cl12 C15 1_555 1_555
Cl13 C16 1_555 1_555
Cl14 C17 1_555 1_555
Cl15 C18 1_555 1_555
C19 Au2 1_555 1_555
C20 C19 1_555 1_555
C21 C20 1_555 1_555
C22 C21 1_555 1_555
C23 C22 1_555 1_555
C24 C19 1_555 1_555
Cl16 C20 1_555 1_555
Cl17 C21 1_555 1_555
Cl18 C22 1_555 1_555
Cl19 C23 1_555 1_555
Cl20 C24 1_555 1_555
O1 P1 1_555 1_555
P1 C25 1_555 1_555
C25 C26 1_555 1_555
C26 H1 1_555 1_555
C27 C26 1_555 1_555
H2 C27 1_555 1_555
C28 C27 1_555 1_555
H3 C28 1_555 1_555
C29 C28 1_555 1_555
H4 C29 1_555 1_555
C30 C25 1_555 1_555
H5 C30 1_555 1_555
C31 P1 1_555 1_555
C32 C31 1_555 1_555
H6 C32 1_555 1_555
C33 C32 1_555 1_555
H7 C33 1_555 1_555
C34 C33 1_555 1_555
H8 C34 1_555 1_555
C35 C34 1_555 1_555
H9 C35 1_555 1_555
C36 C31 1_555 1_555
H10 C36 1_555 1_555
C37 P1 1_555 1_555
C38 C37 1_555 1_555
H11 C38 1_555 1_555
C39 C38 1_555 1_555
H12 C39 1_555 1_555
C40 C39 1_555 1_555
H13 C40 1_555 1_555
C41 C40 1_555 1_555
H14 C41 1_555 1_555
C42 C37 1_555 1_555
H15 C42 1_555 1_555
O2 Tl2 1_555 1_555
P2 O2 1_555 1_555
C43 P2 1_555 1_555
C44 C43 1_555 1_555
H16 C44 1_555 1_555
C45 C44 1_555 1_555
H17 C45 1_555 1_555
C46 C45 1_555 1_555
H18 C46 1_555 1_555
C47 C46 1_555 1_555
H19 C47 1_555 1_555
C48 C43 1_555 1_555
H20 C48 1_555 1_555
C49 P2 1_555 1_555
C50 C49 1_555 1_555
H21 C50 1_555 1_555
C51 C50 1_555 1_555
H22 C51 1_555 1_555
C52 C51 1_555 1_555
H23 C52 1_555 1_555
C53 C52 1_555 1_555
H24 C53 1_555 1_555
C54 C49 1_555 1_555
H25 C54 1_555 1_555
C55 P2 1_555 1_555
C56 C55 1_555 1_555
H26 C56 1_555 1_555
C57 C56 1_555 1_555
H27 C57 1_555 1_555
C58 C57 1_555 1_555
H28 C58 1_555 1_555
C59 C58 1_555 1_555
H29 C59 1_555 1_555
C60 C55 1_555 1_555
H30 C60 1_555 1_555
O3 Tl1 1_555 1_555
C61 O3 1_555 1_555
H31 C61 1_555 1_555
H32 C61 1_555 1_555
C62 C61 1_555 1_555
H33 C62 1_555 1_555
H34 C62 1_555 1_555
C63 C62 1_555 1_555
H35 C63 1_555 1_555
H36 C63 1_555 1_555
C64 O3 1_555 1_555
H37 C64 1_555 1_555
H38 C64 1_555 1_555
Tl2_2 Au2 1_555 1_555
Au2_2 Tl2 1_555 1_555
C5 C6 1_555 1_555
C11 C12 1_555 1_555
C17 C18 1_555 1_555
C23 C24 1_555 1_555
C29 C30 1_555 1_555
C35 C36 1_555 1_555
C41 C42 1_555 1_555
C47 C48 1_555 1_555
C53 C54 1_555 1_555
C59 C60 1_555 1_555
C63 C64 1_555 1_555

#END
