
#######################################################################
#
#                 Cambridge Crystallographic Data Centre
#                                CCDC 
#
#######################################################################
#
# If this CIF has been generated from an entry in the Cambridge 
# Structural Database, then it will include bibliographic, chemical, 
# crystal, experimental, refinement or atomic coordinate data resulting 
# from the CCDC's data processing and validation procedures.
#
#######################################################################

data_RUWTUZ
_symmetry_cell_setting           triclinic
_symmetry_space_group_name_H-M   'P -1'
_symmetry_Int_Tables_number      2
_space_group_name_Hall           '-P 1'
loop_
_symmetry_equiv_pos_site_id
_symmetry_equiv_pos_as_xyz
1 x,y,z
2 -x,-y,-z
_cell_length_a                   9.841(2)
_cell_length_b                   10.5070(12)
_cell_length_c                   10.7063(17)
_cell_angle_alpha                60.6750(10)
_cell_angle_beta                 65.591(2)
_cell_angle_gamma                77.719(2)
_cell_volume                     878.824
loop_
_atom_site_label
_atom_site_type_symbol
_atom_site_fract_x
_atom_site_fract_y
_atom_site_fract_z
C1 C 0.8374(4) 0.7288(4) -0.0374(4)
C2 C 0.9548(4) 0.8117(4) -0.0779(4)
H1 H 0.9710 0.9048 -0.1601
C3 C 1.0472(4) 0.7535(4) 0.0060(4)
C4 C 1.0237(4) 0.6155(4) 0.1312(4)
H2 H 1.0854 0.5787 0.1881
C5 C 0.9073(4) 0.5345(4) 0.1690(4)
C6 C 0.8150(4) 0.5896(4) 0.0839(4)
H3 H 0.7383 0.5330 0.1085
C7 C 0.7322(4) 0.7910(4) -0.1257(4)
C8 C 1.2128(5) 0.8631(5) 0.0541(5)
H4 H 1.1601 0.8393 0.1574
C9 C 1.3445(5) 0.9330(5) -0.0363(5)
H5 H 1.3979 0.9669 -0.0045
C10 C 1.2818(4) 0.8869(4) -0.1779(4)
H6 H 1.2817 0.8813 -0.2619
C11 C 0.9796(4) 0.3112(4) 0.3720(5)
H7 H 1.0730 0.3390 0.3519
C12 C 0.9106(4) 0.1835(4) 0.4822(4)
H8 H 0.9501 0.1074 0.5514
C13 C 0.7605(4) 0.3095(4) 0.3636(4)
H9 H 0.6779 0.3388 0.3341
C14 C 0.6057(4) -0.4040(5) 0.4645(5)
C15 C 0.5738(5) -0.5370(5) 0.5966(5)
H10 H 0.6234 -0.5636 0.6635
C16 C 0.5300(5) -0.3696(5) 0.3695(5)
H11 H 0.5488 -0.2815 0.2803
C17 C 0.7182(5) -0.3039(6) 0.4304(7)
H12 H 0.7639 -0.2485 0.3197
H13 H 0.7962 -0.3633 0.4675
C18 C 0.6602(4) -0.1976(4) 0.4981(4)
Cd1 Cd 0.61391(2) -0.00794(2) 0.62898(3)
N1 N 1.3880(3) 0.9468(4) -0.1812(4)
N2 N 1.1729(3) 0.8346(3) -0.0382(4)
N3 N 0.7733(3) 0.1826(3) 0.4770(4)
N4 N 0.8833(3) 0.3920(3) 0.2953(3)
O1 O 0.7384(3) 0.9269(3) -0.2109(3)
O2 O 0.6487(4) 0.7075(4) -0.1103(4)
O3 O 0.7563(3) -0.1405(3) 0.5041(4)
O4 O 0.5249(3) -0.1647(3) 0.5399(3)
C1A C 0.1626(4) -1.7288(4) 1.0374(4)
C2A C 0.0452(4) -1.8117(4) 1.0779(4)
H1A H 0.0290 -1.9048 1.1601
C3A C -0.0472(4) -1.7535(4) 0.9940(4)
C4A C -0.0237(4) -1.6155(4) 0.8688(4)
H2A H -0.0854 -1.5787 0.8119
C5A C 0.0927(4) -1.5345(4) 0.8310(4)
C6A C 0.1850(4) -1.5896(4) 0.9161(4)
H3A H 0.2617 -1.5330 0.8915
C7A C 0.2678(4) -1.7910(4) 1.1257(4)
C8A C -0.2128(5) -1.8631(5) 0.9459(5)
H4A H -0.1601 -1.8393 0.8426
C9A C -0.3445(5) -1.9330(5) 1.0363(5)
H5A H -0.3979 -1.9669 1.0045
C10A C -0.2818(4) -1.8869(4) 1.1779(4)
H6A H -0.2817 -1.8813 1.2619
C11A C 0.0204(4) -1.3112(4) 0.6280(5)
H7A H -0.0730 -1.3390 0.6481
C12A C 0.0894(4) -1.1835(4) 0.5178(4)
H8A H 0.0499 -1.1074 0.4486
C13A C 0.2395(4) -1.3095(4) 0.6364(4)
H9A H 0.3221 -1.3388 0.6659
C14A C 0.3943(4) -0.5960(5) 0.5355(5)
C15A C 0.4262(5) -0.4630(5) 0.4034(5)
H10A H 0.3766 -0.4364 0.3365
C16A C 0.4700(5) -0.6304(5) 0.6305(5)
H11A H 0.4512 -0.7185 0.7197
C17A C 0.2818(5) -0.6961(6) 0.5696(7)
H12A H 0.2361 -0.7515 0.6803
H13A H 0.2038 -0.6367 0.5325
C18A C 0.3398(4) -0.8024(4) 0.5019(4)
Cd1A Cd 0.38609(2) -0.99206(2) 0.37102(3)
Cd1_2 Cd 0.61391(2) -1.00794(2) 0.62898(3)
Cd1_3 Cd 0.61391(2) 0.99206(2) -0.37102(3)
Cd1_4 Cd 1.61391(2) 0.99206(2) -0.37102(3)
Cd1A_2 Cd -0.61391(2) -1.99206(2) 1.37102(3)
Cd1A_3 Cd 0.38609(2) -1.99206(2) 1.37102(3)
Cd1A_4 Cd 0.38609(2) 0.00794(2) 0.37102(3)
N1A N -0.3880(3) -1.9468(4) 1.1812(4)
N1_2 N 0.3880(3) -0.0532(4) 0.8188(4)
N1A_2 N 0.6120(3) -0.9468(4) 0.1812(4)
N2A N -0.1729(3) -1.8346(3) 1.0382(4)
N3A N 0.2267(3) -1.1826(3) 0.5230(4)
N4A N 0.1167(3) -1.3920(3) 0.7047(3)
O1A O 0.2616(3) -1.9269(3) 1.2109(3)
O1_2 O 0.7384(3) -0.0731(3) 0.7891(3)
O1A_2 O 0.2616(3) -0.9269(3) 0.2109(3)
O2A O 0.3513(4) -1.7075(4) 1.1103(4)
O3A O 0.2437(3) -0.8595(3) 0.4959(4)
O4A O 0.4751(3) -0.8353(3) 0.4601(3)
O4_2 O 0.5249(3) -1.1647(3) 0.5399(3)
O4A_2 O 0.4751(3) 0.1647(3) 0.4601(3)
O5 O 0.6444(8) 0.4524(9) -0.1172(12)
loop_
_geom_bond_atom_site_label_1
_geom_bond_atom_site_label_2
_geom_bond_site_symmetry_1
_geom_bond_site_symmetry_2
C1 C2 1_555 1_555
C2 H1 1_555 1_555
C3 C2 1_555 1_555
C4 C3 1_555 1_555
H2 C4 1_555 1_555
C5 C4 1_555 1_555
C6 C1 1_555 1_555
H3 C6 1_555 1_555
C7 C1 1_555 1_555
C8 H4 1_555 1_555
C9 C8 1_555 1_555
H5 C9 1_555 1_555
C10 H6 1_555 1_555
C11 H7 1_555 1_555
C12 C11 1_555 1_555
H8 C12 1_555 1_555
C13 H9 1_555 1_555
C14 C15 1_555 1_555
C15 H10 1_555 1_555
C16 C14 1_555 1_555
H11 C16 1_555 1_555
C17 C14 1_555 1_555
H12 C17 1_555 1_555
H13 C17 1_555 1_555
C18 C17 1_555 1_555
Cd1 N3 1_555 1_555
N1 C9 1_555 1_555
N2 C3 1_555 1_555
N3 C12 1_555 1_555
N4 C5 1_555 1_555
O1 C7 1_555 1_555
O2 C7 1_555 1_555
O3 C18 1_555 1_555
O4 C18 1_555 1_555
C1A C2A 1_555 1_555
C2A H1A 1_555 1_555
C3A C2A 1_555 1_555
C4A C3A 1_555 1_555
H2A C4A 1_555 1_555
C5A C4A 1_555 1_555
C6A C1A 1_555 1_555
H3A C6A 1_555 1_555
C7A C1A 1_555 1_555
C8A H4A 1_555 1_555
C9A C8A 1_555 1_555
H5A C9A 1_555 1_555
C10A H6A 1_555 1_555
C11A H7A 1_555 1_555
C12A C11A 1_555 1_555
H8A C12A 1_555 1_555
C13A H9A 1_555 1_555
C14A C15A 1_555 1_555
C15A C16 1_555 1_555
H10A C15A 1_555 1_555
C16A C15 1_555 1_555
H11A C16A 1_555 1_555
C17A C14A 1_555 1_555
H12A C17A 1_555 1_555
H13A C17A 1_555 1_555
C18A C17A 1_555 1_555
Cd1A N1A_2 1_555 1_555
Cd1_2 O4A 1_555 1_555
Cd1_3 O1 1_555 1_555
Cd1_4 N1 1_555 1_555
Cd1A_2 N1A 1_555 1_555
Cd1A_3 O1A 1_555 1_555
Cd1A_4 O4 1_555 1_555
N1A C9A 1_555 1_555
N1_2 Cd1 1_555 1_555
N2A C3A 1_555 1_555
N3A C12A 1_555 1_555
N4A C5A 1_555 1_555
O1A C7A 1_555 1_555
O1_2 Cd1 1_555 1_555
O1A_2 Cd1A 1_555 1_555
O2A C7A 1_555 1_555
O3A C18A 1_555 1_555
O4A C18A 1_555 1_555
O4_2 Cd1A 1_555 1_555
O4A_2 Cd1 1_555 1_555
C5 C6 1_555 1_555
C8 N2 1_555 1_555
C10 N1 1_555 1_555
C10 N2 1_555 1_555
C11 N4 1_555 1_555
C13 N3 1_555 1_555
C13 N4 1_555 1_555
Cd1 O3 1_555 1_555
Cd1 O4 1_555 1_555
C5A C6A 1_555 1_555
C8A N2A 1_555 1_555
C10A N1A 1_555 1_555
C10A N2A 1_555 1_555
C11A N4A 1_555 1_555
C13A N3A 1_555 1_555
C13A N4A 1_555 1_555
C14A C16A 1_555 1_555
Cd1A N3A 1_555 1_555
Cd1A O3A 1_555 1_555
Cd1A O4A 1_555 1_555
Cd1_2 O4_2 1_555 1_555
Cd1A_4 O4A_2 1_555 1_555

#END
