
#######################################################################
#
#                 Cambridge Crystallographic Data Centre
#                                CCDC 
#
#######################################################################
#
# If this CIF has been generated from an entry in the Cambridge 
# Structural Database, then it will include bibliographic, chemical, 
# crystal, experimental, refinement or atomic coordinate data resulting 
# from the CCDC's data processing and validation procedures.
#
#######################################################################

data_RUWVEL
_symmetry_cell_setting           triclinic
_symmetry_space_group_name_H-M   'P -1'
_symmetry_Int_Tables_number      2
_space_group_name_Hall           '-P 1'
loop_
_symmetry_equiv_pos_site_id
_symmetry_equiv_pos_as_xyz
1 x,y,z
2 -x,-y,-z
_cell_length_a                   10.936(6)
_cell_length_b                   11.496(7)
_cell_length_c                   17.654(10)
_cell_angle_alpha                84.706(7)
_cell_angle_beta                 74.308(2)
_cell_angle_gamma                69.543(7)
_cell_volume                     2001.98
loop_
_atom_site_label
_atom_site_type_symbol
_atom_site_fract_x
_atom_site_fract_y
_atom_site_fract_z
C1 C 1.3794(4) 0.9008(3) -0.2617(2)
C2 C 1.5042(4) 0.9168(3) -0.2758(2)
H1 H 1.5361 0.9555 -0.3217
C3 C 1.5813(3) 0.8750(3) -0.2213(2)
C4 C 1.5375(4) 0.8147(3) -0.1541(2)
H2 H 1.5893 0.7862 -0.1179
C5 C 1.4142(4) 0.7971(3) -0.1415(2)
C6 C 1.3331(4) 0.8424(4) -0.1932(2)
H3 H 1.2486 0.8337 -0.1821
C7 C 1.2948(4) 0.9443(4) -0.3209(2)
C8 C 1.7950(4) 0.8591(4) -0.1851(2)
H4 H 1.7782 0.8261 -0.1348
C9 C 1.9064(4) 0.8852(4) -0.2239(2)
H5 H 1.9812 0.8716 -0.2043
C10 C 1.7744(4) 0.9369(4) -0.3012(2)
H6 H 1.7391 0.9662 -0.3443
C11 C 1.4103(7) 0.7096(7) -0.0057(3)
H7 H 1.4648 0.7456 0.0087
C12 C 1.3530(6) 0.6313(6) 0.0372(3)
H8 H 1.3644 0.6012 0.0865
C13 C 1.2903(5) 0.6619(5) -0.0664(2)
H9 H 1.2463 0.6600 -0.1043
C14 C 1.2012(4) 0.4187(3) 0.2891(2)
C15 C 1.3282(4) 0.4330(3) 0.2740(2)
H10 H 1.3678 0.4588 0.2250
C16 C 1.3935(4) 0.4071(3) 0.3353(2)
C17 C 1.3364(4) 0.3676(4) 0.4081(2)
H11 H 1.3801 0.3513 0.4483
C18 C 1.2126(4) 0.3528(4) 0.4195(2)
C19 C 1.1436(4) 0.3788(4) 0.3623(2)
H12 H 1.0594 0.3697 0.3723
C20 C 1.1285(4) 0.4454(3) 0.2232(2)
C21 C 1.6224(4) 0.3567(4) 0.3602(2)
H13 H 1.6123 0.3063 0.4041
C22 C 1.7329(4) 0.3849(4) 0.3241(2)
H14 H 1.8137 0.3569 0.3390
C23 C 1.5833(4) 0.4793(3) 0.2601(2)
H15 H 1.5402 0.5276 0.2234
C24 C 1.1084(5) 0.2524(4) 0.6173(2)
H16 H 1.0950 0.2516 0.6717
C25 C 1.1557(5) 0.3331(4) 0.5673(2)
H17 H 1.1816 0.3958 0.5805
C26 C 1.1128(4) 0.2057(4) 0.5015(2)
H18 H 1.1044 0.1674 0.4599
C27 C 1.3360(4) 0.7443(4) 0.3441(2)
C28 C 1.2869(4) 0.7575(4) 0.2787(2)
H19 H 1.2053 0.7462 0.2827
C29 C 1.3603(5) 0.7883(4) 0.2056(3)
H20 H 1.3259 0.7986 0.1618
C30 C 1.4836(5) 0.8035(4) 0.1986(3)
C31 C 1.5312(5) 0.7885(4) 0.2650(3)
H21 H 1.6137 0.7980 0.2612
C32 C 1.4588(5) 0.7597(4) 0.3368(3)
H22 H 1.4927 0.7506 0.3808
C33 C 1.2578(5) 0.7153(4) 0.4236(2)
H23 H 1.3201 0.6534 0.4491
H24 H 1.1940 0.6792 0.4160
C34 C 1.1812(4) 0.8273(4) 0.4779(2)
C35 C 1.5643(5) 0.8335(4) 0.1198(3)
H25 H 1.6165 0.8815 0.1288
H26 H 1.5020 0.8854 0.0903
C36 C 1.6600(4) 0.7205(4) 0.0698(2)
C37 C 1.9958(5) 0.9243(4) 0.0670(2)
C38 C 1.9034(5) 0.9456(5) 0.0223(3)
H27 H 1.8372 0.9087 0.0369
C39 C 2.0920(5) 0.9792(5) 0.0438(3)
H28 H 2.1554 0.9661 0.0726
C40 C 1.9902(5) 0.8491(4) 0.1419(3)
H29 H 1.9355 0.9050 0.1856
H30 H 2.0809 0.8141 0.1491
C41 C 1.9345(4) 0.7441(3) 0.1461(2)
Cd1 Cd 1.85413(3) 0.53926(3) 0.176820(14)
Cd2 Cd 1.14688(3) 0.48120(2) 0.029693(14)
Cd3 Cd 1.05322(3) -0.01064(3) 0.610540(15)
N1 N 1.8940(3) 0.9347(3) -0.29629(18)
N2 N 1.7105(3) 0.8910(3) -0.23513(17)
N3 N 1.2773(3) 0.6025(3) -0.00043(19)
N4 N 1.3731(3) 0.7259(3) -0.07432(18)
N5 N 1.7083(3) 0.4620(3) 0.26131(18)
N6 N 1.5266(3) 0.4169(3) 0.31980(17)
N7 N 1.0831(3) 0.1719(3) 0.57508(18)
N8 N 1.1574(3) 0.3034(3) 0.49336(17)
O1 O 1.1738(3) 0.9502(3) -0.29794(16)
O2 O 1.3508(3) 0.9688(4) -0.38828(17)
O3 O 1.0081(3) 0.4472(3) 0.24528(17)
O4 O 1.1926(3) 0.4605(3) 0.15593(15)
O5 O 1.1573(3) 0.8040(3) 0.55112(16)
O6 O 1.1407(3) 0.9329(3) 0.45062(17)
O7 O 1.6923(3) 0.6162(3) 0.10417(16)
O8 O 1.7031(3) 0.7328(3) -0.00203(16)
O9 O 1.8603(3) 0.7242(3) 0.21062(17)
O10 O 1.9664(3) 0.6763(3) 0.08824(16)
O11 O 1.9657(2) 0.4234(2) 0.06931(14)
H31 H 1.982(6) 0.351(5) 0.070(3)
C1_2 C 0.3794(4) -0.0992(3) 0.7383(2)
C2_2 C 0.5042(4) -0.0832(3) 0.7242(2)
H1_2 H 0.5361 -0.0445 0.6783
C3_2 C 0.5813(3) -0.1250(3) 0.7787(2)
C4_2 C 0.5375(4) -0.1853(3) 0.8459(2)
H2_2 H 0.5893 -0.2138 0.8821
C5_2 C 0.4142(4) -0.2029(3) 0.8585(2)
C6_2 C 0.3331(4) -0.1576(4) 0.8068(2)
H3_2 H 0.2486 -0.1663 0.8179
C7_2 C 0.2948(4) -0.0557(4) 0.6791(2)
C8_2 C 0.7950(4) -0.1409(4) 0.8149(2)
H4_2 H 0.7782 -0.1739 0.8652
C9_2 C 0.9064(4) -0.1148(4) 0.7761(2)
H5_2 H 0.9812 -0.1284 0.7957
C10_2 C 0.7744(4) -0.0631(4) 0.6988(2)
H6_2 H 0.7391 -0.0338 0.6557
C11_2 C 0.4103(7) -0.2904(7) 0.9943(3)
H7_2 H 0.4648 -0.2544 1.0087
C12_2 C 0.3530(6) -0.3687(6) 1.0372(3)
H8_2 H 0.3644 -0.3988 1.0865
C13_2 C 0.2903(5) -0.3381(5) 0.9336(2)
H9_2 H 0.2463 -0.3400 0.8957
C14_2 C 2.2012(4) 0.4187(3) 0.2891(2)
C15_2 C 2.3282(4) 0.4330(3) 0.2740(2)
H10_2 H 2.3678 0.4588 0.2250
C16_2 C 2.3935(4) 0.4071(3) 0.3353(2)
C17_2 C 2.3364(4) 0.3676(4) 0.4081(2)
H11_2 H 2.3801 0.3513 0.4483
C18_2 C 2.2126(4) 0.3528(4) 0.4195(2)
C19_2 C 2.1436(4) 0.3788(4) 0.3623(2)
H12_2 H 2.0594 0.3697 0.3723
C20_2 C 2.1285(4) 0.4454(3) 0.2232(2)
C21_2 C 2.6224(4) 0.3567(4) 0.3602(2)
H13_2 H 2.6123 0.3063 0.4041
C22_2 C 2.7329(4) 0.3849(4) 0.3241(2)
H14_2 H 2.8137 0.3569 0.3390
C23_2 C 2.5833(4) 0.4793(3) 0.2601(2)
H15_2 H 2.5402 0.5276 0.2234
C24_2 C 2.1084(5) 0.2524(4) 0.6173(2)
H16_2 H 2.0950 0.2516 0.6717
C25_2 C 2.1557(5) 0.3331(4) 0.5673(2)
H17_2 H 2.1816 0.3958 0.5805
C26_2 C 2.1128(4) 0.2057(4) 0.5015(2)
H18_2 H 2.1044 0.1674 0.4599
C27A C 1.6640(4) 0.2557(4) -0.3441(2)
C28A C 1.7131(4) 0.2425(4) -0.2787(2)
H19A H 1.7947 0.2538 -0.2827
C29A C 1.6397(5) 0.2117(4) -0.2056(3)
H20A H 1.6741 0.2014 -0.1618
C30A C 1.5164(5) 0.1965(4) -0.1986(3)
C31A C 1.4688(5) 0.2115(4) -0.2650(3)
H21A H 1.3863 0.2020 -0.2612
C32A C 1.5412(5) 0.2403(4) -0.3368(3)
H22A H 1.5073 0.2494 -0.3808
C33A C 1.7422(5) 0.2847(4) -0.4236(2)
H23A H 1.6799 0.3466 -0.4491
H24A H 1.8060 0.3208 -0.4160
C34A C 1.8188(4) 0.1727(4) -0.4779(2)
C35A C 1.4357(5) 0.1665(4) -0.1198(3)
H25A H 1.3835 0.1185 -0.1288
H26A H 1.4980 0.1146 -0.0903
C36A C 1.3400(4) 0.2795(4) -0.0698(2)
C37A C 2.0042(5) 1.0757(4) -0.0670(2)
C38A C 2.0966(5) 1.0544(5) -0.0223(3)
H27A H 2.1628 1.0913 -0.0369
C39A C 1.9080(5) 1.0208(5) -0.0438(3)
H28A H 1.8446 1.0339 -0.0726
C40A C 2.0098(5) 1.1509(4) -0.1419(3)
H29A H 2.0645 1.0950 -0.1856
H30A H 1.9191 1.1859 -0.1491
C41A C 2.0655(4) 1.2559(3) -0.1461(2)
Cd1_2 Cd 2.85413(3) 0.53926(3) 0.176820(14)
Cd1_3 Cd 0.85413(3) 0.53926(3) 0.176820(14)
Cd1A Cd 2.14587(3) 1.46074(3) -0.176820(14)
Cd1A_2 Cd 1.14587(3) 0.46074(3) -0.176820(14)
Cd2_2 Cd 2.14688(3) 0.48120(2) 0.029693(14)
Cd2A Cd 1.85312(3) 0.51880(2) -0.029693(14)
Cd2A_2 Cd 1.85312(3) 1.51880(2) -0.029693(14)
Cd2A_3 Cd 0.85312(3) 0.51880(2) -0.029693(14)
Cd2_3 Cd 0.14688(3) -0.51880(2) 1.029693(14)
Cd3_2 Cd 2.05322(3) -0.01064(3) 0.610540(15)
Cd3_3 Cd 2.05322(3) 0.98936(3) -0.389460(15)
Cd3_4 Cd 1.05322(3) 0.98936(3) -0.389460(15)
Cd3_5 Cd 1.05322(3) 0.98936(3) 0.610540(15)
Cd3A Cd 0.94678(3) 1.01064(3) 0.389460(15)
Cd3A_2 Cd 1.94678(3) 0.01064(3) -0.610540(15)
Cd3_6 Cd 2.05322(3) -0.01064(3) -0.389460(15)
Cd3_7 Cd 0.05322(3) -0.01064(3) 0.610540(15)
N1_2 N 0.8940(3) -0.0653(3) 0.70371(18)
N1_3 N 1.8940(3) -0.0653(3) 0.70371(18)
N2_2 N 0.7105(3) -0.1090(3) 0.76487(17)
N3_2 N 0.2773(3) -0.3975(3) 0.99957(19)
N3_3 N 2.2773(3) 0.6025(3) -0.00043(19)
N4_2 N 0.3731(3) -0.2741(3) 0.92568(18)
N5_2 N 2.7083(3) 0.4620(3) 0.26131(18)
N6_2 N 2.5266(3) 0.4169(3) 0.31980(17)
N7_2 N 2.0831(3) 0.1719(3) 0.57508(18)
N8_2 N 2.1574(3) 0.3034(3) 0.49336(17)
O1_2 O 0.1738(3) -0.0498(3) 0.70206(16)
O1_3 O 1.1738(3) -0.0498(3) 0.70206(16)
O1_4 O 2.1738(3) -0.0498(3) 0.70206(16)
O2_2 O 0.3508(3) -0.0312(4) 0.61172(17)
O3_2 O 2.0081(3) 0.4472(3) 0.24528(17)
O3_3 O 3.0081(3) 0.4472(3) 0.24528(17)
O4_2 O 2.1926(3) 0.4605(3) 0.15593(15)
O5A O 1.8427(3) 0.1960(3) -0.55112(16)
O5_2 O 1.1573(3) -0.1960(3) 0.55112(16)
O5_3 O 2.1573(3) -0.1960(3) 0.55112(16)
O6A O 1.8593(3) 0.0671(3) -0.45062(17)
O6A_2 O 0.8593(3) 0.0671(3) 0.54938(17)
O6A_3 O 1.8593(3) 0.0671(3) 0.54938(17)
O7A O 1.3077(3) 0.3838(3) -0.10417(16)
O7_2 O 2.6923(3) 0.6162(3) 0.10417(16)
O7A_2 O 2.3077(3) 0.3838(3) -0.10417(16)
O8A O 1.2969(3) 0.2672(3) 0.00203(16)
O8A_2 O 2.2969(3) 0.2672(3) 0.00203(16)
O9A O 2.1397(3) 1.2758(3) -0.21062(17)
O9_2 O 2.8603(3) 0.7242(3) 0.21062(17)
O10A O 2.0336(3) 1.3237(3) -0.08824(16)
O10_2 O 0.9664(3) 0.6763(3) 0.08824(16)
O10_3 O 2.9664(3) 0.6763(3) 0.08824(16)
O11_2 O 0.9657(2) 0.4234(2) 0.06931(14)
O11A O 1.0343(2) 0.5766(2) -0.06931(14)
O11_3 O 2.9657(2) 0.4234(2) 0.06931(14)
O11A_2 O 2.0343(2) 0.5766(2) -0.06931(14)
H31_2 H 0.982(6) 0.351(5) 0.070(3)
H31A H 1.018(6) 0.649(5) -0.070(3)
H31_3 H 2.982(6) 0.351(5) 0.070(3)
H31A_2 H 2.018(6) 0.649(5) -0.070(3)
O12 O 0.5368(8) 0.8434(6) 0.4836(4)
O13? O 0.6128(14) 0.9737(19) 0.5499(7)
loop_
_geom_bond_atom_site_label_1
_geom_bond_atom_site_label_2
_geom_bond_site_symmetry_1
_geom_bond_site_symmetry_2
C1 C2 1_555 1_555
C2 H1 1_555 1_555
C3 C2 1_555 1_555
C4 C3 1_555 1_555
H2 C4 1_555 1_555
C5 C4 1_555 1_555
C6 C1 1_555 1_555
H3 C6 1_555 1_555
C7 C1 1_555 1_555
C8 H4 1_555 1_555
C9 C8 1_555 1_555
H5 C9 1_555 1_555
C10 H6 1_555 1_555
C11 H7 1_555 1_555
C12 C11 1_555 1_555
H8 C12 1_555 1_555
C13 H9 1_555 1_555
C14 C15 1_555 1_555
C15 H10 1_555 1_555
C16 C15 1_555 1_555
C17 C16 1_555 1_555
H11 C17 1_555 1_555
C18 C17 1_555 1_555
C19 C14 1_555 1_555
H12 C19 1_555 1_555
C20 C14 1_555 1_555
C21 H13 1_555 1_555
C22 C21 1_555 1_555
H14 C22 1_555 1_555
C23 H15 1_555 1_555
C24 H16 1_555 1_555
C25 C24 1_555 1_555
H17 C25 1_555 1_555
C26 H18 1_555 1_555
C27 C28 1_555 1_555
C28 H19 1_555 1_555
C29 C28 1_555 1_555
H20 C29 1_555 1_555
C30 C29 1_555 1_555
C31 C30 1_555 1_555
H21 C31 1_555 1_555
C32 C27 1_555 1_555
H22 C32 1_555 1_555
C33 C27 1_555 1_555
H23 C33 1_555 1_555
H24 C33 1_555 1_555
C34 C33 1_555 1_555
C35 C30 1_555 1_555
H25 C35 1_555 1_555
H26 C35 1_555 1_555
C36 C35 1_555 1_555
C37 C38 1_555 1_555
C38 H27 1_555 1_555
C39 C37 1_555 1_555
H28 C39 1_555 1_555
C40 C37 1_555 1_555
H29 C40 1_555 1_555
H30 C40 1_555 1_555
C41 C40 1_555 1_555
Cd1 N5 1_555 1_555
Cd2 N3 1_555 1_555
Cd3 N7 1_555 1_555
N1 C9 1_555 1_555
N2 C3 1_555 1_555
N3 C12 1_555 1_555
N4 C5 1_555 1_555
N5 C22 1_555 1_555
N6 C16 1_555 1_555
N7 C24 1_555 1_555
N8 C18 1_555 1_555
O1 C7 1_555 1_555
O2 C7 1_555 1_555
O3 C20 1_555 1_555
O4 C20 1_555 1_555
O5 C34 1_555 1_555
O6 C34 1_555 1_555
O7 C36 1_555 1_555
O8 C36 1_555 1_555
O9 C41 1_555 1_555
O10 C41 1_555 1_555
O11 Cd1 1_555 1_555
H31 O11 1_555 1_555
C1_2 C2_2 1_555 1_555
C2_2 H1_2 1_555 1_555
C3_2 C2_2 1_555 1_555
C4_2 C3_2 1_555 1_555
H2_2 C4_2 1_555 1_555
C5_2 C4_2 1_555 1_555
C6_2 C1_2 1_555 1_555
H3_2 C6_2 1_555 1_555
C7_2 C1_2 1_555 1_555
C8_2 H4_2 1_555 1_555
C9_2 C8_2 1_555 1_555
H5_2 C9_2 1_555 1_555
C10_2 H6_2 1_555 1_555
C11_2 H7_2 1_555 1_555
C12_2 C11_2 1_555 1_555
H8_2 C12_2 1_555 1_555
C13_2 H9_2 1_555 1_555
C14_2 C15_2 1_555 1_555
C15_2 H10_2 1_555 1_555
C16_2 C15_2 1_555 1_555
C17_2 C16_2 1_555 1_555
H11_2 C17_2 1_555 1_555
C18_2 C17_2 1_555 1_555
C19_2 C14_2 1_555 1_555
H12_2 C19_2 1_555 1_555
C20_2 C14_2 1_555 1_555
C21_2 H13_2 1_555 1_555
C22_2 C21_2 1_555 1_555
H14_2 C22_2 1_555 1_555
C23_2 H15_2 1_555 1_555
C24_2 H16_2 1_555 1_555
C25_2 C24_2 1_555 1_555
H17_2 C25_2 1_555 1_555
C26_2 H18_2 1_555 1_555
C27A C28A 1_555 1_555
C28A H19A 1_555 1_555
C29A C28A 1_555 1_555
H20A C29A 1_555 1_555
C30A C29A 1_555 1_555
C31A C30A 1_555 1_555
H21A C31A 1_555 1_555
C32A C27A 1_555 1_555
H22A C32A 1_555 1_555
C33A C27A 1_555 1_555
H23A C33A 1_555 1_555
H24A C33A 1_555 1_555
C34A C33A 1_555 1_555
C35A C30A 1_555 1_555
H25A C35A 1_555 1_555
H26A C35A 1_555 1_555
C36A C35A 1_555 1_555
C37A C38A 1_555 1_555
C38A C39 1_555 1_555
H27A C38A 1_555 1_555
C39A C38 1_555 1_555
H28A C39A 1_555 1_555
C40A C37A 1_555 1_555
H29A C40A 1_555 1_555
H30A C40A 1_555 1_555
C41A C40A 1_555 1_555
Cd1_2 N5_2 1_555 1_555
Cd1_3 O3 1_555 1_555
Cd1A O9A 1_555 1_555
Cd1A_2 O7A 1_555 1_555
Cd2_2 O10 1_555 1_555
Cd2A O7 1_555 1_555
Cd2A_2 O10A 1_555 1_555
Cd2A_3 O11_2 1_555 1_555
Cd2_3 N3_2 1_555 1_555
Cd3_2 N1_3 1_555 1_555
Cd3_3 N1 1_555 1_555
Cd3_4 O1 1_555 1_555
Cd3_5 O5 1_555 1_555
Cd3A O6 1_555 1_555
Cd3A_2 O5A 1_555 1_555
Cd3_6 O6A 1_555 1_555
Cd3_7 O1_2 1_555 1_555
N1_2 Cd3 1_555 1_555
N2_2 C3_2 1_555 1_555
N3_2 C12_2 1_555 1_555
N3_3 Cd2_2 1_555 1_555
N4_2 C5_2 1_555 1_555
N5_2 C22_2 1_555 1_555
N6_2 C16_2 1_555 1_555
N7_2 C24_2 1_555 1_555
N8_2 C18_2 1_555 1_555
O1_2 C7_2 1_555 1_555
O1_3 Cd3 1_555 1_555
O1_4 Cd3_2 1_555 1_555
O2_2 C7_2 1_555 1_555
O3_2 Cd1 1_555 1_555
O3_3 Cd1_2 1_555 1_555
O4_2 C20_2 1_555 1_555
O5A C34A 1_555 1_555
O5_2 Cd3 1_555 1_555
O5_3 Cd3_2 1_555 1_555
O6A C34A 1_555 1_555
O6A_2 Cd3 1_555 1_555
O6A_3 Cd3_2 1_555 1_555
O7A Cd2 1_555 1_555
O7_2 Cd1_2 1_555 1_555
O7A_2 Cd2_2 1_555 1_555
O8A Cd2 1_555 1_555
O8A_2 Cd2_2 1_555 1_555
O9A C41A 1_555 1_555
O9_2 Cd1_2 1_555 1_555
O10A C41A 1_555 1_555
O10_2 Cd2 1_555 1_555
O10_3 Cd1_2 1_555 1_555
O11_2 Cd2 1_555 1_555
O11A Cd2 1_555 1_555
O11_3 Cd1_2 1_555 1_555
O11A_2 Cd2_2 1_555 1_555
H31_2 O11_2 1_555 1_555
H31A O11A 1_555 1_555
H31_3 O11_3 1_555 1_555
H31A_2 O11A_2 1_555 1_555
C5 C6 1_555 1_555
C8 N2 1_555 1_555
C10 N1 1_555 1_555
C10 N2 1_555 1_555
C11 N4 1_555 1_555
C13 N3 1_555 1_555
C13 N4 1_555 1_555
C18 C19 1_555 1_555
C21 N6 1_555 1_555
C23 N5 1_555 1_555
C23 N6 1_555 1_555
C25 N8 1_555 1_555
C26 N7 1_555 1_555
C26 N8 1_555 1_555
C31 C32 1_555 1_555
Cd1 O7 1_555 1_555
Cd1 O9 1_555 1_555
Cd1 O10 1_555 1_555
Cd2 O4 1_555 1_555
O8 Cd2A 1_555 1_555
O11 Cd2_2 1_555 1_555
O11 Cd2A 1_555 1_555
C5_2 C6_2 1_555 1_555
C8_2 N2_2 1_555 1_555
C9_2 N1_2 1_555 1_555
C10_2 N1_2 1_555 1_555
C10_2 N2_2 1_555 1_555
C11_2 N4_2 1_555 1_555
C13_2 N3_2 1_555 1_555
C13_2 N4_2 1_555 1_555
C18_2 C19_2 1_555 1_555
C20_2 O3_2 1_555 1_555
C21_2 N6_2 1_555 1_555
C23_2 N5_2 1_555 1_555
C23_2 N6_2 1_555 1_555
C25_2 N8_2 1_555 1_555
C26_2 N7_2 1_555 1_555
C26_2 N8_2 1_555 1_555
C31A C32A 1_555 1_555
C36A O7A 1_555 1_555
C36A O8A 1_555 1_555
C37A C39A 1_555 1_555
Cd1_3 O10_2 1_555 1_555
Cd1_3 O11_2 1_555 1_555
Cd1A O10A 1_555 1_555
Cd1A_2 O11A 1_555 1_555
Cd2_2 O4_2 1_555 1_555
Cd2A O11A_2 1_555 1_555
Cd2A_3 O11A 1_555 1_555
Cd3_2 N7_2 1_555 1_555

#END
