
#######################################################################
#
#                 Cambridge Crystallographic Data Centre
#                                CCDC 
#
#######################################################################
#
# If this CIF has been generated from an entry in the Cambridge 
# Structural Database, then it will include bibliographic, chemical, 
# crystal, experimental, refinement or atomic coordinate data resulting 
# from the CCDC's data processing and validation procedures.
#
#######################################################################

data_RUWVIP
_symmetry_cell_setting           monoclinic
_symmetry_space_group_name_H-M   'C 2/c'
_symmetry_Int_Tables_number      15
_space_group_name_Hall           '-C 2yn'
loop_
_symmetry_equiv_pos_site_id
_symmetry_equiv_pos_as_xyz
1 x,y,z
2 -x,y,1/2-z
3 1/2+x,1/2+y,z
4 1/2-x,1/2+y,1/2-z
5 -x,-y,-z
6 x,-y,1/2+z
7 1/2-x,1/2-y,-z
8 1/2+x,1/2-y,1/2+z
_cell_length_a                   12.0613(14)
_cell_length_b                   17.8712(16)
_cell_length_c                   16.3160(12)
_cell_angle_alpha                90
_cell_angle_beta                 91.555(2)
_cell_angle_gamma                90
_cell_volume                     3515.62
loop_
_atom_site_label
_atom_site_type_symbol
_atom_site_fract_x
_atom_site_fract_y
_atom_site_fract_z
C1 C -0.06355(16) 0.77041(11) 0.07325(12)
C2 C -0.14605(16) 0.71759(11) 0.08381(12)
H1 H -0.1965 0.7235 0.1254
C3 C -0.15338(17) 0.65628(11) 0.03277(12)
C4 C -0.08263(19) 0.64785(11) -0.03206(13)
H2 H -0.0894 0.6071 -0.0673
C5 C -0.00150(18) 0.70163(12) -0.04319(13)
C6 C 0.00898(18) 0.76228(11) 0.00906(13)
H3 H 0.0644 0.7976 0.0013
C7 C -0.04548(18) 0.83240(11) 0.13514(12)
C8 C -0.29701(19) 0.55975(12) -0.00641(13)
H4 H -0.3049 0.5691 -0.0623
C9 C -0.34747(19) 0.50594(13) 0.03612(13)
H5 H -0.3972 0.4712 0.0138
C10 C -0.24530(19) 0.56568(12) 0.12285(13)
H6 H -0.2098 0.5812 0.1712
C11 C 0.1103(3) 0.74547(18) -0.1594(2)
H7 H 0.0847 0.7945 -0.1634
C12 C 0.1886(3) 0.71365(17) -0.2041(2)
H8 H 0.2256 0.7377 -0.2459
C13 C 0.1384(2) 0.63192(14) -0.12176(15)
H9 H 0.1334 0.5873 -0.0927
C14 C 0.4177(2) 1.09020(15) 0.30979(15)
C15 C 0.4607(2) 1.02358(15) 0.27934(17)
H10 H 0.4352 0.9782 0.2994
C16 C 0.4589(2) 1.15608(14) 0.27872(15)
H11 H 0.4309 1.2015 0.2968
C17 C 0.3258(2) 1.09034(17) 0.37070(16)
H12 H 0.3086 1.1417 0.3849
H13 H 0.3515 1.0651 0.4203
C18 C 0.2205(2) 1.05207(14) 0.33829(13)
Mn1 Mn 0.14447(2) 0.925951(16) 0.217021(17)
N1 N -0.31489(15) 0.50963(10) 0.11781(10)
N2 N -0.23139(14) 0.59829(9) 0.04923(10)
N3 N 0.20706(16) 0.64241(11) -0.18105(12)
N4 N 0.07574(15) 0.69229(10) -0.10711(11)
O1 O -0.11697(13) 0.84059(8) 0.18859(10)
O2 O 0.04123(13) 0.86956(9) 0.12862(9)
O3 O 0.13024(17) 1.08188(10) 0.34847(14)
O4 O 0.23415(13) 0.98915(9) 0.30524(10)
O5 O 0.0000 0.99962(12) 0.2500
H14 H -0.030(3) 1.0269(16) 0.2161(18)
C1A C 0.06355(16) 0.77041(11) 0.42675(12)
C2A C 0.14605(16) 0.71759(11) 0.41619(12)
H1A H 0.1965 0.7235 0.3746
C3A C 0.15338(17) 0.65628(11) 0.46723(12)
C4A C 0.08263(19) 0.64785(11) 0.53206(13)
H2A H 0.0894 0.6071 0.5673
C5A C 0.00150(18) 0.70163(12) 0.54319(13)
C6A C -0.00898(18) 0.76228(11) 0.49094(13)
H3A H -0.0644 0.7976 0.4987
C7A C 0.04548(18) 0.83240(11) 0.36486(12)
C8A C 0.29701(19) 0.55975(12) 0.50641(13)
H4A H 0.3049 0.5691 0.5623
C9A C 0.34747(19) 0.50594(13) 0.46388(13)
H5A H 0.3972 0.4712 0.4862
C10A C 0.24530(19) 0.56568(12) 0.37715(13)
H6A H 0.2098 0.5812 0.3288
C11A C -0.1103(3) 0.74547(18) 0.6594(2)
H7A H -0.0847 0.7945 0.6634
C12A C -0.1886(3) 0.71365(17) 0.7041(2)
H8A H -0.2256 0.7377 0.7459
C13A C -0.1384(2) 0.63192(14) 0.62176(15)
H9A H -0.1334 0.5873 0.5927
C14A C 0.5823(2) 1.09020(15) 0.19021(15)
C15A C 0.5393(2) 1.02358(15) 0.22066(17)
H10A H 0.5648 0.9782 0.2006
C16A C 0.5411(2) 1.15608(14) 0.22128(15)
H11A H 0.5691 1.2015 0.2032
C17A C 0.6742(2) 1.09034(17) 0.12930(16)
H12A H 0.6914 1.1417 0.1151
H13A H 0.6485 1.0651 0.0797
C18A C 0.7795(2) 1.05207(14) 0.16171(13)
Mn1A Mn -0.14447(2) 0.925951(16) 0.282979(17)
Mn1A_2 Mn 0.85553(2) 0.925951(16) 0.282979(17)
Mn1B Mn -0.35553(2) 0.425951(16) 0.217021(17)
Mn1C Mn 0.35553(2) 0.425951(16) 0.282979(17)
Mn1F Mn 0.35553(2) 0.574049(16) -0.217021(17)
Mn1G Mn -0.35553(2) 0.574049(16) 0.717021(17)
N1A N 0.31489(15) 0.50963(10) 0.38219(10)
N1B N 0.18511(15) 1.00963(10) 0.11781(10)
N1C N -0.18511(15) 1.00963(10) 0.38219(10)
N2A N 0.23139(14) 0.59829(9) 0.45077(10)
N3A N -0.20706(16) 0.64241(11) 0.68105(12)
N3F N 0.29294(16) 0.85759(11) 0.18105(12)
N3G N -0.29294(16) 0.85759(11) 0.31895(12)
N4A N -0.07574(15) 0.69229(10) 0.60711(11)
O1A O 0.11697(13) 0.84059(8) 0.31141(10)
O2A O -0.04123(13) 0.86956(9) 0.37138(9)
O3A O 0.86976(17) 1.08188(10) 0.15153(14)
O4A O 0.76585(13) 0.98915(9) 0.19476(10)
O4A_2 O -0.23415(13) 0.98915(9) 0.19476(10)
H14A H 0.030(3) 1.0269(16) 0.2839(18)
loop_
_geom_bond_atom_site_label_1
_geom_bond_atom_site_label_2
_geom_bond_site_symmetry_1
_geom_bond_site_symmetry_2
C1 C2 1_555 1_555
C2 H1 1_555 1_555
C3 C2 1_555 1_555
C4 C3 1_555 1_555
H2 C4 1_555 1_555
C5 C4 1_555 1_555
C6 C1 1_555 1_555
H3 C6 1_555 1_555
C7 C1 1_555 1_555
C8 H4 1_555 1_555
C9 C8 1_555 1_555
H5 C9 1_555 1_555
C10 H6 1_555 1_555
C11 H7 1_555 1_555
C12 C11 1_555 1_555
H8 C12 1_555 1_555
C13 H9 1_555 1_555
C14 C15 1_555 1_555
C15 H10 1_555 1_555
C16 C14 1_555 1_555
H11 C16 1_555 1_555
C17 C14 1_555 1_555
H12 C17 1_555 1_555
H13 C17 1_555 1_555
C18 C17 1_555 1_555
Mn1 O2 1_555 1_555
N1 C9 1_555 1_555
N2 C3 1_555 1_555
N3 C12 1_555 1_555
N4 C5 1_555 1_555
O1 C7 1_555 1_555
O2 C7 1_555 1_555
O3 C18 1_555 1_555
O4 C18 1_555 1_555
O5 Mn1 1_555 1_555
H14 O5 1_555 1_555
C1A C2A 1_555 1_555
C2A H1A 1_555 1_555
C3A C2A 1_555 1_555
C4A C3A 1_555 1_555
H2A C4A 1_555 1_555
C5A C4A 1_555 1_555
C6A C1A 1_555 1_555
H3A C6A 1_555 1_555
C7A C1A 1_555 1_555
C8A H4A 1_555 1_555
C9A C8A 1_555 1_555
H5A C9A 1_555 1_555
C10A H6A 1_555 1_555
C11A H7A 1_555 1_555
C12A C11A 1_555 1_555
H8A C12A 1_555 1_555
C13A H9A 1_555 1_555
C14A C15A 1_555 1_555
C15A C15 1_555 1_555
H10A C15A 1_555 1_555
C16A C16 1_555 1_555
H11A C16A 1_555 1_555
C17A C14A 1_555 1_555
H12A C17A 1_555 1_555
H13A C17A 1_555 1_555
C18A C17A 1_555 1_555
Mn1A O1 1_555 1_555
Mn1A_2 O4A 1_555 1_555
Mn1B N1 1_555 1_555
Mn1C N1A 1_555 1_555
Mn1F N3 1_555 1_555
Mn1G N3A 1_555 1_555
N1A C9A 1_555 1_555
N1B Mn1 1_555 1_555
N1C Mn1A 1_555 1_555
N2A C3A 1_555 1_555
N3A C12A 1_555 1_555
N3F Mn1 1_555 1_555
N3G Mn1A 1_555 1_555
N4A C5A 1_555 1_555
O1A Mn1 1_555 1_555
O2A C7A 1_555 1_555
O3A C18A 1_555 1_555
O4A C18A 1_555 1_555
O4A_2 Mn1A 1_555 1_555
H14A O5 1_555 1_555
C5 C6 1_555 1_555
C8 N2 1_555 1_555
C10 N1 1_555 1_555
C10 N2 1_555 1_555
C11 N4 1_555 1_555
C13 N3 1_555 1_555
C13 N4 1_555 1_555
Mn1 O4 1_555 1_555
O5 Mn1A 1_555 1_555
C5A C6A 1_555 1_555
C7A O1A 1_555 1_555
C8A N2A 1_555 1_555
C10A N1A 1_555 1_555
C10A N2A 1_555 1_555
C11A N4A 1_555 1_555
C13A N3A 1_555 1_555
C13A N4A 1_555 1_555
C14A C16A 1_555 1_555
Mn1A O2A 1_555 1_555

#END
