
#######################################################################
#
#                 Cambridge Crystallographic Data Centre
#                                CCDC 
#
#######################################################################
#
# If this CIF has been generated from an entry in the Cambridge 
# Structural Database, then it will include bibliographic, chemical, 
# crystal, experimental, refinement or atomic coordinate data resulting 
# from the CCDC's data processing and validation procedures.
#
#######################################################################

data_RUWZAK
_symmetry_cell_setting           triclinic
_symmetry_space_group_name_H-M   'P -1'
_symmetry_Int_Tables_number      2
_space_group_name_Hall           '-P 1'
loop_
_symmetry_equiv_pos_site_id
_symmetry_equiv_pos_as_xyz
1 x,y,z
2 -x,-y,-z
_cell_length_a                   6.4005(13)
_cell_length_b                   7.2301(14)
_cell_length_c                   11.319(2)
_cell_angle_alpha                81.12(3)
_cell_angle_beta                 76.94(3)
_cell_angle_gamma                68.02(3)
_cell_volume                     471.75
loop_
_atom_site_label
_atom_site_type_symbol
_atom_site_fract_x
_atom_site_fract_y
_atom_site_fract_z
S1 S 0.02011(7) 0.12527(6) 0.75521(4)
K1 K 0.29649(6) -0.20000(5) 0.95217(3)
S2 S -0.19139(7) -0.17341(6) 0.88482(3)
N1 N -0.1716(2) -0.05804(19) 0.64916(11)
C1 C -0.1202(2) -0.0376(2) 0.75446(13)
C2 C 0.3631(3) -0.6207(2) 0.79873(15)
H1 H 0.2087 -0.5842 0.8504
H2 H 0.4267 -0.7681 0.7965
O1 O 0.5082(2) -0.55813(18) 0.85130(11)
C3 C 0.3433(3) -0.5253(3) 0.67197(15)
H3 H 0.2755 -0.3796 0.6743
H4 H 0.2456 -0.5727 0.6384
H5 H 0.4960 -0.5615 0.6206
C4 C -0.1184(3) 0.0562(2) 0.53525(14)
H6 H -0.1236 0.1877 0.5533
H7 H -0.2352 0.0803 0.4848
C5 C -0.2834(3) -0.1981(3) 0.64021(16)
H8 H -0.2212 -0.3220 0.6903
H9 H -0.2547 -0.2281 0.5553
H10 H -0.4488 -0.1376 0.6691
H11 H 0.634(4) -0.603(3) 0.815(2)
C4A C 0.1184(3) -0.0562(2) 0.46475(14)
N1A N 0.1716(2) 0.05804(19) 0.35084(11)
C1A C 0.1202(2) 0.0376(2) 0.24554(13)
S1A S -0.02011(7) -0.12527(6) 0.24479(4)
S2A S 0.19139(7) 0.17341(6) 0.11518(3)
C5A C 0.2834(3) 0.1981(3) 0.35979(16)
H8A H 0.2212 0.3220 0.3097
H9A H 0.2547 0.2281 0.4447
H10A H 0.4488 0.1376 0.3309
H6A H 0.1236 -0.1877 0.4467
H7A H 0.2352 -0.0803 0.5152
C2A C 0.6369(3) -0.3793(2) 1.20127(15)
H1A H 0.7913 -0.4158 1.1496
H2A H 0.5733 -0.2319 1.2035
O1A O 0.4918(2) -0.44187(18) 1.14870(11)
C3A C 0.6567(3) -0.4747(3) 1.32803(15)
H3A H 0.7245 -0.6204 1.3257
H4A H 0.7544 -0.4273 1.3616
H5A H 0.5040 -0.4385 1.3794
H11A H 0.366(4) -0.397(3) 1.185(2)
K1A K -0.29649(6) 0.20000(5) 0.04783(3)
K1A_2 K -0.29649(6) 0.20000(5) 1.04783(3)
S1A_2 S -0.02011(7) -0.12527(6) 1.24479(4)
S2_2 S 0.80861(7) -0.17341(6) 0.88482(3)
S2A_2 S 0.19139(7) 0.17341(6) 1.11518(3)
K1_2 K -0.70351(6) -0.20000(5) 0.95217(3)
K1A_3 K 0.70351(6) -0.80000(5) 1.04783(3)
K1_3 K 0.29649(6) -0.20000(5) -0.04783(3)
K1A_4 K 0.70351(6) 0.20000(5) 0.04783(3)
S1_2 S 0.02011(7) 0.12527(6) -0.24479(4)
S2_3 S -0.19139(7) -0.17341(6) -0.11518(3)
S2A_3 S -0.80861(7) 0.17341(6) 0.11518(3)
O1_2 O -0.4918(2) 0.44187(18) -0.14870(11)
O1A_2 O -0.5082(2) 0.55813(18) 0.14870(11)
H11_2 H -0.366(4) 0.397(3) -0.185(2)
H11A_2 H -0.634(4) 0.603(3) 0.185(2)
loop_
_geom_bond_atom_site_label_1
_geom_bond_atom_site_label_2
_geom_bond_site_symmetry_1
_geom_bond_site_symmetry_2
S1 K1 1_555 1_555
K1 S2 1_555 1_555
S2 C1 1_555 1_555
N1 C1 1_555 1_555
C1 S1 1_555 1_555
C2 H1 1_555 1_555
H2 C2 1_555 1_555
O1 K1 1_555 1_555
C3 C2 1_555 1_555
H3 C3 1_555 1_555
H4 C3 1_555 1_555
H5 C3 1_555 1_555
C4 N1 1_555 1_555
H6 C4 1_555 1_555
H7 C4 1_555 1_555
C5 N1 1_555 1_555
H8 C5 1_555 1_555
H9 C5 1_555 1_555
H10 C5 1_555 1_555
H11 O1 1_555 1_555
C4A C4 1_555 1_555
N1A C4A 1_555 1_555
C1A N1A 1_555 1_555
S1A C1A 1_555 1_555
S2A C1A 1_555 1_555
C5A N1A 1_555 1_555
H8A C5A 1_555 1_555
H9A C5A 1_555 1_555
H10A C5A 1_555 1_555
H6A C4A 1_555 1_555
H7A C4A 1_555 1_555
C2A H1A 1_555 1_555
H2A C2A 1_555 1_555
O1A K1 1_555 1_555
C3A C2A 1_555 1_555
H3A C3A 1_555 1_555
H4A C3A 1_555 1_555
H5A C3A 1_555 1_555
H11A O1A 1_555 1_555
K1A S1A 1_555 1_555
K1A_2 S1 1_555 1_555
S1A_2 K1 1_555 1_555
S2_2 K1 1_555 1_555
S2A_2 K1 1_555 1_555
K1_2 S2 1_555 1_555
K1A_3 O1 1_555 1_555
K1_3 S1A 1_555 1_555
K1A_4 S2A 1_555 1_555
S1_2 K1A 1_555 1_555
S2_3 K1A 1_555 1_555
S2A_3 K1A 1_555 1_555
O1_2 K1A 1_555 1_555
O1A_2 K1A 1_555 1_555
H11_2 O1_2 1_555 1_555
H11A_2 O1A_2 1_555 1_555
S2 K1A_2 1_555 1_555
C2 O1 1_555 1_555
S2A K1A 1_555 1_555
S2A K1_3 1_555 1_555
C2A O1A 1_555 1_555
O1A K1A_3 1_555 1_555
K1A_2 S1A_2 1_555 1_555
K1A_2 S2A_2 1_555 1_555
K1_3 S1_2 1_555 1_555
K1_3 S2_3 1_555 1_555

#END
