
#######################################################################
#
#                 Cambridge Crystallographic Data Centre
#                                CCDC 
#
#######################################################################
#
# If this CIF has been generated from an entry in the Cambridge 
# Structural Database, then it will include bibliographic, chemical, 
# crystal, experimental, refinement or atomic coordinate data resulting 
# from the CCDC's data processing and validation procedures.
#
#######################################################################

data_RUXGEX
_symmetry_cell_setting           monoclinic
_symmetry_space_group_name_H-M   'P 21/c'
_symmetry_Int_Tables_number      14
_space_group_name_Hall           '-P 2ybc'
loop_
_symmetry_equiv_pos_site_id
_symmetry_equiv_pos_as_xyz
1 x,y,z
2 -x,1/2+y,1/2-z
3 -x,-y,-z
4 x,1/2-y,1/2+z
_cell_length_a                   17.502(3)
_cell_length_b                   21.080(3)
_cell_length_c                   13.7686(9)
_cell_angle_alpha                90
_cell_angle_beta                 106.664(7)
_cell_angle_gamma                90
_cell_volume                     4866.48
loop_
_atom_site_label
_atom_site_type_symbol
_atom_site_fract_x
_atom_site_fract_y
_atom_site_fract_z
Cu1 Cu 0.200999(18) 0.106321(15) 0.06755(2)
Cu2 Cu 0.286762(18) 0.104462(15) -0.09704(2)
Cu3 Cu 0.400488(18) 0.115916(15) 0.13909(2)
Cu4 Cu 0.088319(18) 0.113312(15) -0.17263(2)
S1 S 0.53374(4) 0.18440(3) 0.07186(5)
S2 S -0.04257(4) 0.18192(3) -0.10484(5)
S3 S 0.13419(4) -0.10341(3) -0.32987(5)
S4 S 0.35907(4) -0.07971(3) 0.34473(5)
Na1 Na 0.22349(7) -0.26067(6) -0.40938(9)
O1 O 0.18608(11) 0.19286(8) 0.00297(14)
O2 O 0.30271(11) 0.19129(8) -0.03410(14)
O3 O 0.25004(14) 0.48898(9) -0.01918(16)
H1 H 0.2995 0.5001 -0.0335
O4 O 0.38439(11) 0.13805(9) -0.16745(15)
H2 H 0.4243 0.1550 -0.1178
O5 O 0.34695(10) 0.06305(8) 0.02639(13)
O6 O 0.29942(10) 0.13146(8) 0.16307(13)
O7 O 0.47260(11) 0.03808(9) 0.24684(14)
H3 H 0.4523 0.0017 0.2696
O8 O 0.49635(11) 0.12395(9) 0.08817(14)
O9 O 0.61951(12) 0.17709(10) 0.09847(16)
O10 O 0.49953(13) 0.20921(10) -0.02975(15)
O11 O 0.14382(10) 0.06389(8) -0.05622(13)
O12 O 0.10762(11) 0.14013(9) 0.14180(14)
H4 H 0.0750 0.1667 0.0984
O13 O 0.37733(12) -0.02915(9) 0.42110(15)
O14 O 0.41370(12) -0.07939(10) 0.28215(15)
O15 O 0.35314(12) -0.14211(9) 0.38779(15)
O16 O 0.19001(11) 0.12947(9) -0.19501(13)
O17 O -0.00788(11) 0.12015(8) -0.12289(14)
O18 O -0.00801(13) 0.20486(10) -0.00272(15)
O19 O 0.01977(11) 0.03357(9) -0.28085(13)
H5 H 0.0418 0.0011 -0.3073
O20 O 0.11372(13) -0.12441(10) -0.23991(15)
O21 O 0.07982(12) -0.05422(10) -0.38420(15)
O22 O 0.14397(12) -0.15498(9) -0.39584(15)
O23 O 0.27232(13) -0.25528(11) -0.23030(17)
H6 H 0.3042 -0.2232 -0.1938
H7 H 0.2897 -0.2916 -0.1837
O24 O 0.29591(14) -0.16911(11) -0.43991(17)
H8 H 0.3104 -0.1579 -0.4986
H9 H 0.2439 -0.1476 -0.4462
O25 O -0.12852(11) 0.17801(10) -0.13602(16)
O26 O 0.18734(14) -0.28474(12) -0.58431(18)
H10 H 0.1683 -0.3176 -0.6273
H11 H 0.2209 -0.2655 -0.6153
O27 O 0.32619(16) -0.34176(13) -0.4044(2)
H12 H 0.3734 -0.3571 -0.3602
H13 H 0.3409 -0.3312 -0.4613
N1 N 0.18748(13) 0.02255(10) 0.14022(16)
N2 N 0.30179(13) 0.02159(10) -0.17055(16)
N3 N 0.44726(13) 0.17117(11) 0.26236(16)
N4 N 0.04188(13) 0.16770(11) -0.29711(17)
C1 C 0.24459(16) 0.22010(12) -0.0159(2)
C2 C 0.24626(16) 0.29107(12) -0.01609(19)
C3 C 0.17647(17) 0.32686(13) -0.0317(2)
H14 H 0.1270 0.3057 -0.0404
C4 C 0.17806(18) 0.39233(14) -0.0348(2)
H15 H 0.1297 0.4157 -0.0485
C5 C 0.25063(19) 0.42410(13) -0.0176(2)
C6 C 0.32122(18) 0.38955(14) 0.0012(2)
H16 H 0.3710 0.4109 0.0157
C7 C 0.31819(17) 0.32353(13) -0.0012(2)
H17 H 0.3661 0.3001 0.0074
C8 C 0.30230(16) 0.17311(14) 0.2445(2)
H18 H 0.3006 0.1484 0.3050
H19 H 0.2555 0.2018 0.2261
C9 C 0.37846(16) 0.21185(14) 0.2683(2)
H20 H 0.3718 0.2473 0.2195
H21 H 0.3895 0.2301 0.3373
C10 C 0.51673(17) 0.07151(14) 0.3359(2)
H22 H 0.5686 0.0855 0.3278
H23 H 0.5275 0.0429 0.3953
C11 C 0.47043(18) 0.12827(14) 0.3535(2)
H24 H 0.5032 0.1524 0.4125
H25 H 0.4217 0.1138 0.3697
C12 C 0.51715(17) 0.21150(14) 0.2607(2)
H26 H 0.5663 0.1856 0.2823
H27 H 0.5222 0.2465 0.3102
C13 C 0.51014(18) 0.23947(13) 0.1569(2)
H28 H 0.5464 0.2764 0.1649
H29 H 0.4550 0.2549 0.1270
C14 C 0.39130(17) 0.01071(13) 0.0056(2)
H30 H 0.4045 -0.0189 0.0639
H31 H 0.4419 0.0260 -0.0048
C15 C 0.34268(17) -0.02348(13) -0.0886(2)
H32 H 0.3782 -0.0516 -0.1137
H33 H 0.3022 -0.0504 -0.0710
C16 C 0.41763(18) 0.08233(14) -0.1980(2)
H34 H 0.4568 0.0627 -0.1391
H35 H 0.4450 0.0930 -0.2496
C17 C 0.34909(18) 0.03715(14) -0.2417(2)
H36 H 0.3132 0.0562 -0.3038
H37 H 0.3706 -0.0027 -0.2616
C18 C 0.22384(16) -0.00537(13) -0.2294(2)
H38 H 0.1951 0.0268 -0.2788
H39 H 0.1916 -0.0138 -0.1822
C19 C 0.22927(16) -0.06657(13) -0.2866(2)
H40 H 0.2674 -0.0960 -0.2413
H41 H 0.2494 -0.0568 -0.3452
C20 C 0.18614(17) 0.16560(14) -0.2822(2)
H42 H 0.1849 0.1371 -0.3398
H43 H 0.2339 0.1930 -0.2700
C21 C 0.11180(17) 0.20604(14) -0.3072(2)
H44 H 0.1203 0.2429 -0.2607
H45 H 0.1005 0.2223 -0.3774
C22 C -0.03074(17) 0.06894(14) -0.3638(2)
H46 H -0.0787 0.0836 -0.3458
H47 H -0.0484 0.0413 -0.4242
C23 C 0.01312(18) 0.12509(14) -0.3880(2)
H48 H -0.0226 0.1493 -0.4447
H49 H 0.0593 0.1103 -0.4099
C24 C -0.02393(18) 0.21073(14) -0.2919(2)
H50 H -0.0751 0.1873 -0.3141
H51 H -0.0268 0.2465 -0.3394
C25 C -0.01352(19) 0.23691(14) -0.1861(2)
H52 H -0.0458 0.2760 -0.1912
H53 H 0.0431 0.2485 -0.1557
C26 C 0.06654(16) 0.08318(13) 0.1540(2)
H54 H 0.0316 0.0689 0.0876
H55 H 0.0330 0.0910 0.1997
C27 C 0.12843(17) 0.03300(13) 0.1987(2)
H56 H 0.1576 0.0454 0.2689
H57 H 0.1008 -0.0076 0.2022
C28 C 0.10674(16) 0.00686(12) -0.0380(2)
H58 H 0.0987 -0.0220 -0.0968
H59 H 0.0540 0.0165 -0.0285
C29 C 0.15945(16) -0.02435(12) 0.05587(19)
H60 H 0.1295 -0.0587 0.0777
H61 H 0.2061 -0.0436 0.0402
C30 C 0.26499(16) 0.00179(12) 0.2095(2)
H62 H 0.2840 0.0346 0.2623
H63 H 0.3043 -0.0010 0.1704
C31 C 0.26273(16) -0.06223(13) 0.2618(2)
H64 H 0.2463 -0.0961 0.2102
H65 H 0.2233 -0.0605 0.3009
Na1A Na -0.22349(7) 0.23933(6) -0.09062(9)
O25A O 0.12852(11) -0.32199(10) -0.36398(16)
loop_
_geom_bond_atom_site_label_1
_geom_bond_atom_site_label_2
_geom_bond_site_symmetry_1
_geom_bond_site_symmetry_2
Cu1 O1 1_555 1_555
Cu2 O2 1_555 1_555
Cu3 O5 1_555 1_555
Cu4 O11 1_555 1_555
S1 O8 1_555 1_555
S2 O17 1_555 1_555
S3 O20 1_555 1_555
S4 O13 1_555 1_555
Na1 O22 1_555 1_555
O1 C1 1_555 1_555
O2 C1 1_555 1_555
O3 H1 1_555 1_555
O4 Cu2 1_555 1_555
H2 O4 1_555 1_555
O5 Cu2 1_555 1_555
O6 Cu1 1_555 1_555
O7 Cu3 1_555 1_555
H3 O7 1_555 1_555
O8 Cu3 1_555 1_555
O9 S1 1_555 1_555
O10 S1 1_555 1_555
O11 Cu1 1_555 1_555
O12 Cu1 1_555 1_555
H4 O12 1_555 1_555
O14 S4 1_555 1_555
O15 S4 1_555 1_555
O16 Cu2 1_555 1_555
O17 Cu4 1_555 1_555
O18 S2 1_555 1_555
O19 Cu4 1_555 1_555
H5 O19 1_555 1_555
O21 S3 1_555 1_555
O22 S3 1_555 1_555
O23 Na1 1_555 1_555
H6 O23 1_555 1_555
H7 O23 1_555 1_555
O24 Na1 1_555 1_555
H8 O24 1_555 1_555
H9 O24 1_555 1_555
O25 S2 1_555 1_555
O26 Na1 1_555 1_555
H10 O26 1_555 1_555
H11 O26 1_555 1_555
O27 Na1 1_555 1_555
H12 O27 1_555 1_555
H13 O27 1_555 1_555
N1 Cu1 1_555 1_555
N2 Cu2 1_555 1_555
N3 Cu3 1_555 1_555
N4 Cu4 1_555 1_555
C1 C2 1_555 1_555
C2 C3 1_555 1_555
C3 H14 1_555 1_555
C4 C3 1_555 1_555
H15 C4 1_555 1_555
C5 O3 1_555 1_555
C6 C5 1_555 1_555
H16 C6 1_555 1_555
C7 C2 1_555 1_555
H17 C7 1_555 1_555
C8 O6 1_555 1_555
H18 C8 1_555 1_555
H19 C8 1_555 1_555
C9 N3 1_555 1_555
H20 C9 1_555 1_555
H21 C9 1_555 1_555
C10 O7 1_555 1_555
H22 C10 1_555 1_555
H23 C10 1_555 1_555
C11 N3 1_555 1_555
H24 C11 1_555 1_555
H25 C11 1_555 1_555
C12 N3 1_555 1_555
H26 C12 1_555 1_555
H27 C12 1_555 1_555
C13 S1 1_555 1_555
H28 C13 1_555 1_555
H29 C13 1_555 1_555
C14 O5 1_555 1_555
H30 C14 1_555 1_555
H31 C14 1_555 1_555
C15 N2 1_555 1_555
H32 C15 1_555 1_555
H33 C15 1_555 1_555
C16 O4 1_555 1_555
H34 C16 1_555 1_555
H35 C16 1_555 1_555
C17 N2 1_555 1_555
H36 C17 1_555 1_555
H37 C17 1_555 1_555
C18 N2 1_555 1_555
H38 C18 1_555 1_555
H39 C18 1_555 1_555
C19 S3 1_555 1_555
H40 C19 1_555 1_555
H41 C19 1_555 1_555
C20 O16 1_555 1_555
H42 C20 1_555 1_555
H43 C20 1_555 1_555
C21 N4 1_555 1_555
H44 C21 1_555 1_555
H45 C21 1_555 1_555
C22 O19 1_555 1_555
H46 C22 1_555 1_555
H47 C22 1_555 1_555
C23 N4 1_555 1_555
H48 C23 1_555 1_555
H49 C23 1_555 1_555
C24 N4 1_555 1_555
H50 C24 1_555 1_555
H51 C24 1_555 1_555
C25 S2 1_555 1_555
H52 C25 1_555 1_555
H53 C25 1_555 1_555
C26 O12 1_555 1_555
H54 C26 1_555 1_555
H55 C26 1_555 1_555
C27 N1 1_555 1_555
H56 C27 1_555 1_555
H57 C27 1_555 1_555
C28 O11 1_555 1_555
H58 C28 1_555 1_555
H59 C28 1_555 1_555
C29 N1 1_555 1_555
H60 C29 1_555 1_555
H61 C29 1_555 1_555
C30 N1 1_555 1_555
H62 C30 1_555 1_555
H63 C30 1_555 1_555
C31 S4 1_555 1_555
H64 C31 1_555 1_555
H65 C31 1_555 1_555
Na1A O25 1_555 1_555
O25A Na1 1_555 1_555
Cu3 O6 1_555 1_555
Cu4 O16 1_555 1_555
C4 C5 1_555 1_555
C6 C7 1_555 1_555
C8 C9 1_555 1_555
C10 C11 1_555 1_555
C12 C13 1_555 1_555
C14 C15 1_555 1_555
C16 C17 1_555 1_555
C18 C19 1_555 1_555
C20 C21 1_555 1_555
C22 C23 1_555 1_555
C24 C25 1_555 1_555
C26 C27 1_555 1_555
C28 C29 1_555 1_555
C30 C31 1_555 1_555

#END
