
#######################################################################
#
#                 Cambridge Crystallographic Data Centre
#                                CCDC 
#
#######################################################################
#
# If this CIF has been generated from an entry in the Cambridge 
# Structural Database, then it will include bibliographic, chemical, 
# crystal, experimental, refinement or atomic coordinate data resulting 
# from the CCDC's data processing and validation procedures.
#
#######################################################################

data_RUXGIA
_symmetry_cell_setting           triclinic
_symmetry_space_group_name_H-M   'P 1'
_symmetry_Int_Tables_number      1
_space_group_name_Hall           'P 1'
loop_
_symmetry_equiv_pos_site_id
_symmetry_equiv_pos_as_xyz
1 x,y,z
_cell_length_a                   7.218(2)
_cell_length_b                   7.391(2)
_cell_length_c                   12.394(4)
_cell_angle_alpha                80.788(4)
_cell_angle_beta                 76.130(4)
_cell_angle_gamma                60.871(3)
_cell_volume                     559.998
loop_
_atom_site_label
_atom_site_type_symbol
_atom_site_fract_x
_atom_site_fract_y
_atom_site_fract_z
Zn1 Zn 0.4988(2) 0.4968(2) 0.99826(12)
N1 N 0.1996(13) 0.8637(11) 0.5938(5)
N2 N 0.3721(13) 0.7219(11) 0.8693(6)
N3 N -0.2211(13) 1.3159(12) 0.8836(6)
N4 N -0.2035(13) 1.1451(11) 1.4010(6)
N5 N 0.2175(11) 0.6807(9) 1.1098(5)
N6 N -0.3604(13) 1.2689(10) 1.1273(5)
O1 O -0.1230(11) 1.1338(9) 0.6288(5)
O2 O 0.1317(11) 0.8591(9) 1.3703(5)
O3 O 0.6496(11) 0.6535(11) 1.0337(5)
O4 O 0.3534(12) 0.3296(10) 0.9662(6)
C1 C 0.0499(13) 0.9985(11) 0.6583(6)
C2 C 0.0696(14) 1.0034(12) 0.7743(6)
C3 C 0.2358(14) 0.8500(11) 0.8223(6)
C4 C -0.0894(16) 1.1729(12) 0.8357(7)
C5 C -0.0367(14) 0.9920(12) 1.3334(6)
C6 C -0.0604(16) 0.9883(11) 1.2251(7)
C7 C 0.0934(13) 0.8203(13) 1.1613(6)
C8 C -0.2313(13) 1.1472(12) 1.1707(7)
C9 C 0.7621(19) 0.7501(17) 0.9608(9)
C10 C 0.236(2) 0.2408(17) 1.0423(9)
H1 H -0.169(6) 1.112(6) 1.4735(17)
H2 H -0.343(4) 1.172(8) 1.390(4)
H3 H 0.326(4) 0.750(4) 0.616(3)
H4 H 0.567(10) 0.726(10) 1.101(3)
H5 H 0.714(8) 0.880(4) 0.993(4)
H6 H 0.105(10) 0.284(9) 1.035(5)
H7 H 0.896(9) 0.675(10) 0.990(7)
H8 H 0.331(7) 0.158(6) 1.095(4)
H9 H 0.365(11) 0.309(9) 0.911(5)
H10 H 0.820(8) 0.691(7) 0.888(4)
H23 H 0.288(19) 0.081(18) 1.006(13)
H27 H 0.187(11) 0.821(9) 0.528(3)
N3_2 N 0.7789(13) 0.3159(12) 0.8836(6)
N6_2 N 0.6396(13) 0.2689(10) 1.1273(5)
Zn1_2 Zn -0.5012(2) 1.4968(2) 0.99826(12)
O5 O 0.5284(12) 0.7995(9) 0.2368(5)
C11 C 0.6665(17) 0.6837(17) 0.3086(7)
H13 H 0.627(9) 0.611(10) 0.367(4)
H14 H 0.73(3) 0.73(3) 0.311(15)
H18 H 0.770(13) 0.574(17) 0.257(5)
H19 H 0.395(5) 0.773(10) 0.279(5)
O6 O 0.3477(14) 0.4090(11) 0.3927(7)
C12 C 0.2324(17) 0.3116(16) 0.3789(11)
H15 H 0.27(2) 0.538(13) 0.351(11)
H25 H 0.134(16) 0.350(15) 0.325(8)
H26 H 0.122(10) 0.316(10) 0.436(5)
H28 H 0.322(10) 0.176(8) 0.364(8)
O7 O 0.4716(13) 0.2105(13) 0.7594(6)
C13 C 0.338(2) 0.317(2) 0.6784(13)
H11 H 0.304(10) 0.465(7) 0.688(7)
H12 H 0.344(9) 0.221(9) 0.632(4)
H16 H 0.578(8) 0.163(7) 0.736(4)
H20 H 0.178(8) 0.350(8) 0.722(4)
O8 O 0.6616(14) 0.5747(13) 0.5989(7)
C14 C 0.769(3) 0.682(2) 0.6161(10)
H17 H 0.730(10) 0.459(9) 0.611(5)
H21 H 0.757(10) 0.703(9) 0.685(3)
H22 H 0.708(8) 0.819(4) 0.579(4)
H24 H 0.921(5) 0.596(12) 0.589(6)
loop_
_geom_bond_atom_site_label_1
_geom_bond_atom_site_label_2
_geom_bond_site_symmetry_1
_geom_bond_site_symmetry_2
Zn1 N2 1_555 1_555
N1 C1 1_555 1_555
N2 C3 1_555 1_555
N3 C4 1_555 1_555
N4 C5 1_555 1_555
N5 Zn1 1_555 1_555
N6 C8 1_555 1_555
O1 C1 1_555 1_555
O2 C5 1_555 1_555
O3 Zn1 1_555 1_555
O4 Zn1 1_555 1_555
O5 C11 1_555 1_555
O6 C12 1_555 1_555
O7 C13 1_555 1_555
O8 C14 1_555 1_555
C1 C2 1_555 1_555
C2 C3 1_555 1_555
C4 C2 1_555 1_555
C5 C6 1_555 1_555
C6 C7 1_555 1_555
C7 N5 1_555 1_555
C8 C6 1_555 1_555
C9 O3 1_555 1_555
C10 O4 1_555 1_555
C11 H13 1_555 1_555
C12 H25 1_555 1_555
C13 H11 1_555 1_555
C14 H21 1_555 1_555
H1 N4 1_555 1_555
H2 N4 1_555 1_555
H3 N1 1_555 1_555
H4 O3 1_555 1_555
H5 C9 1_555 1_555
H6 C10 1_555 1_555
H7 C9 1_555 1_555
H8 C10 1_555 1_555
H9 O4 1_555 1_555
H10 C9 1_555 1_555
H12 C13 1_555 1_555
H14 C11 1_555 1_555
H15 O6 1_555 1_555
H16 O7 1_555 1_555
H17 O8 1_555 1_555
H18 C11 1_555 1_555
H19 O5 1_555 1_555
H20 C13 1_555 1_555
H22 C14 1_555 1_555
H23 C10 1_555 1_555
H24 C14 1_555 1_555
H26 C12 1_555 1_555
H27 N1 1_555 1_555
H28 C12 1_555 1_555
N3_2 Zn1 1_555 1_555
N6_2 Zn1 1_555 1_555
Zn1_2 N3 1_555 1_555
N6 Zn1_2 1_555 1_555

#END
