
#######################################################################
#
#                 Cambridge Crystallographic Data Centre
#                                CCDC 
#
#######################################################################
#
# If this CIF has been generated from an entry in the Cambridge 
# Structural Database, then it will include bibliographic, chemical, 
# crystal, experimental, refinement or atomic coordinate data resulting 
# from the CCDC's data processing and validation procedures.
#
#######################################################################

data_RUXGIB
_symmetry_cell_setting           monoclinic
_symmetry_space_group_name_H-M   'C 2/c'
_symmetry_Int_Tables_number      15
_space_group_name_Hall           '-C 2yn'
loop_
_symmetry_equiv_pos_site_id
_symmetry_equiv_pos_as_xyz
1 x,y,z
2 -x,y,1/2-z
3 1/2+x,1/2+y,z
4 1/2-x,1/2+y,1/2-z
5 -x,-y,-z
6 x,-y,1/2+z
7 1/2-x,1/2-y,-z
8 1/2+x,1/2-y,1/2+z
_cell_length_a                   18.0367(13)
_cell_length_b                   21.0944(15)
_cell_length_c                   14.0941(10)
_cell_angle_alpha                90
_cell_angle_beta                 116.122(3)
_cell_angle_gamma                90
_cell_volume                     4814.7
loop_
_atom_site_label
_atom_site_type_symbol
_atom_site_fract_x
_atom_site_fract_y
_atom_site_fract_z
C1 C 1.0000 0.0243(3) 0.2500
C2 C 1.0000 -0.0473(3) 0.2500
C3 C 0.9277(4) -0.0806(2) 0.2000(4)
H1 H 0.8781 -0.0588 0.1649
C4 C 0.9276(5) -0.1462(3) 0.2012(5)
H2 H 0.8778 -0.1679 0.1684
C5 C 1.0000 -0.1797(4) 0.2500
H3 H 1.0000 -0.2238 0.2500
C6 C 0.9028(3) 0.2680(2) 0.0951(4)
H4 H 0.9476 0.2908 0.1507
H5 H 0.8683 0.2987 0.0433
C7 C 0.8530(3) 0.2353(2) 0.1411(4)
H6 H 0.8440 0.2636 0.1892
H7 H 0.7996 0.2236 0.0851
C8 C 0.8812(3) 0.2102(3) -0.0693(4)
H8 H 0.9137 0.1958 -0.1045
H9 H 0.8550 0.2498 -0.1023
C9 C 0.8155(4) 0.1625(2) -0.0871(5)
H10 H 0.7769 0.1790 -0.0624
H11 H 0.7853 0.1534 -0.1620
C10 C 1.0180(3) 0.2487(2) 0.0529(4)
H12 H 1.0423 0.2176 0.0242
H13 H 1.0551 0.2536 0.1273
C11 C 1.0128(3) 0.3111(2) -0.0017(5)
H14 H 0.9733 0.3385 0.0079
H15 H 0.9934 0.3040 -0.0768
C12 C 1.1368(3) 0.0419(2) 0.0815(4)
H16 H 1.1286 0.0047 0.1163
H17 H 1.1481 0.0278 0.0237
C13 C 1.0597(3) 0.0823(2) 0.0390(4)
H18 H 1.0612 0.1123 -0.0122
H19 H 1.0114 0.0556 0.0039
C14 C 1.2396(3) 0.1231(3) 0.0995(5)
H20 H 1.2770 0.0999 0.0795
H21 H 1.1935 0.1375 0.0353
C15 C 1.2835(4) 0.1793(3) 0.1646(5)
H22 H 1.3326 0.1654 0.2258
H23 H 1.3008 0.2071 0.1232
C16 C 1.2759(3) 0.0362(3) 0.2235(4)
H24 H 1.3278 0.0589 0.2500
H25 H 1.2785 0.0016 0.1798
C17 C 1.2647(3) 0.0094(2) 0.3156(4)
H26 H 1.2954 -0.0299 0.3382
H27 H 1.2068 -0.0002 0.2931
N1 N 0.9381(2) 0.22313(18) 0.0435(3)
N2 N 1.2082(2) 0.07941(18) 0.1582(3)
O1 O 0.9406(2) 0.05205(15) 0.1764(3)
O2 O 0.89525(19) 0.18014(14) 0.1960(3)
O3 O 1.1666(3) 0.3044(2) 0.0407(4)
O4 O 0.8530(2) 0.10632(15) -0.0311(3)
O5 O 1.1320(3) 0.3601(2) 0.1618(4)
O6 O 1.0974(3) 0.40650(18) -0.0097(4)
O7 O 1.05473(19) 0.11493(15) 0.1228(3)
O8 O 1.2628(2) 0.12456(14) 0.3762(3)
O9 O 1.2305(2) 0.21365(17) 0.1990(3)
O10 O 1.2670(2) 0.04125(18) 0.4962(3)
O11 O 1.3874(2) 0.06565(17) 0.4681(3)
S1 S 1.10945(11) 0.34855(7) 0.04938(16)
S2 S 1.29880(8) 0.06287(6) 0.42376(11)
Cu1 Cu 0.95481(4) 0.13935(3) 0.12824(5)
Cu2 Cu 1.16040(4) 0.13207(3) 0.23866(5)
Na1 Na 1.5000 0.0000 0.5000
H28 H 1.2009 0.2459 0.1365
H29 H 0.8060 0.0790 -0.0423
C3A C 1.0723(4) -0.0806(2) 0.3000(4)
H1A H 1.1219 -0.0588 0.3351
C4A C 1.0724(5) -0.1462(3) 0.2988(5)
H2A H 1.1222 -0.1679 0.3316
C6A C 1.0972(3) 0.2680(2) 0.4049(4)
H4A H 1.0524 0.2908 0.3493
H5A H 1.1317 0.2987 0.4567
C7A C 1.1470(3) 0.2353(2) 0.3589(4)
H6A H 1.1560 0.2636 0.3108
H7A H 1.2004 0.2236 0.4149
C8A C 1.1188(3) 0.2102(3) 0.5693(4)
H8A H 1.0863 0.1958 0.6045
H9A H 1.1450 0.2498 0.6023
C9A C 1.1845(4) 0.1625(2) 0.5871(5)
H10A H 1.2231 0.1790 0.5624
H11A H 1.2147 0.1534 0.6620
C10A C 0.9820(3) 0.2487(2) 0.4471(4)
H12A H 0.9577 0.2176 0.4758
H13A H 0.9449 0.2536 0.3727
C11A C 0.9872(3) 0.3111(2) 0.5017(5)
H14A H 1.0267 0.3385 0.4921
H15A H 1.0066 0.3040 0.5768
C12A C 0.8632(3) 0.0419(2) 0.4185(4)
H16A H 0.8714 0.0047 0.3837
H17A H 0.8519 0.0278 0.4763
C13A C 0.9403(3) 0.0823(2) 0.4610(4)
H18A H 0.9388 0.1123 0.5122
H19A H 0.9886 0.0556 0.4961
C14A C 0.7604(3) 0.1231(3) 0.4005(5)
H20A H 0.7230 0.0999 0.4205
H21A H 0.8065 0.1375 0.4647
C15A C 0.7165(4) 0.1793(3) 0.3354(5)
H22A H 0.6674 0.1654 0.2742
H23A H 0.6992 0.2071 0.3768
C16A C 0.7241(3) 0.0362(3) 0.2765(4)
H24A H 0.6722 0.0589 0.2500
H25A H 0.7215 0.0016 0.3202
C17A C 0.7353(3) 0.0094(2) 0.1844(4)
H26A H 0.7046 -0.0299 0.1618
H27A H 0.7932 -0.0002 0.2069
N1A N 1.0619(2) 0.22313(18) 0.4565(3)
N2A N 0.7918(2) 0.07941(18) 0.3418(3)
O1A O 1.0594(2) 0.05205(15) 0.3236(3)
O2A O 1.10475(19) 0.18014(14) 0.3040(3)
O3A O 0.8334(3) 0.3044(2) 0.4593(4)
O4A O 1.1470(2) 0.10632(15) 0.5311(3)
O5A O 0.8680(3) 0.3601(2) 0.3382(4)
O6A O 0.9026(3) 0.40650(18) 0.5097(4)
O6C O 1.4026(3) -0.09350(18) 0.5097(4)
O6G O 1.5974(3) 0.09350(18) 0.4903(4)
O7A O 0.94527(19) 0.11493(15) 0.3772(3)
O8A O 0.7372(2) 0.12456(14) 0.1238(3)
O9A O 0.7695(2) 0.21365(17) 0.3010(3)
O10A O 0.7330(2) 0.04125(18) 0.0038(3)
O11A O 0.6126(2) 0.06565(17) 0.0319(3)
O11D O 1.6126(2) -0.06565(17) 0.5319(3)
S1A S 0.89055(11) 0.34855(7) 0.45062(16)
S2A S 0.70120(8) 0.06287(6) 0.07624(11)
Cu1A Cu 1.04519(4) 0.13935(3) 0.37176(5)
Cu2A Cu 0.83960(4) 0.13207(3) 0.26134(5)
Na1B Na 1.0000 0.5000 0.5000
Na1C Na 1.0000 0.5000 0.0000
Na1A Na 0.5000 0.0000 0.0000
H28A H 0.7991 0.2459 0.3635
H29A H 1.1940 0.0790 0.5423
loop_
_geom_bond_atom_site_label_1
_geom_bond_atom_site_label_2
_geom_bond_site_symmetry_1
_geom_bond_site_symmetry_2
C1 C2 1_555 1_555
C2 C3 1_555 1_555
C3 H1 1_555 1_555
C4 C3 1_555 1_555
H2 C4 1_555 1_555
C5 C4 1_555 1_555
H3 C5 1_555 1_555
C6 H4 1_555 1_555
H5 C6 1_555 1_555
C7 C6 1_555 1_555
H6 C7 1_555 1_555
H7 C7 1_555 1_555
C8 H8 1_555 1_555
H9 C8 1_555 1_555
C9 C8 1_555 1_555
H10 C9 1_555 1_555
H11 C9 1_555 1_555
C10 H12 1_555 1_555
H13 C10 1_555 1_555
C11 C10 1_555 1_555
H14 C11 1_555 1_555
H15 C11 1_555 1_555
C12 H16 1_555 1_555
H17 C12 1_555 1_555
C13 C12 1_555 1_555
H18 C13 1_555 1_555
H19 C13 1_555 1_555
C14 H20 1_555 1_555
H21 C14 1_555 1_555
C15 C14 1_555 1_555
H22 C15 1_555 1_555
H23 C15 1_555 1_555
C16 H24 1_555 1_555
H25 C16 1_555 1_555
C17 C16 1_555 1_555
H26 C17 1_555 1_555
H27 C17 1_555 1_555
N1 C6 1_555 1_555
N2 C12 1_555 1_555
O1 C1 1_555 1_555
O2 C7 1_555 1_555
O3 S1 1_555 1_555
O4 C9 1_555 1_555
O5 S1 1_555 1_555
O6 S1 1_555 1_555
O7 C13 1_555 1_555
O8 S2 1_555 1_555
O9 C15 1_555 1_555
O10 S2 1_555 1_555
O11 S2 1_555 1_555
S1 C11 1_555 1_555
S2 C17 1_555 1_555
Cu1 N1 1_555 1_555
Cu2 N2 1_555 1_555
Na1 O11 1_555 1_555
H28 O9 1_555 1_555
H29 O4 1_555 1_555
C3A C2 1_555 1_555
H1A C3A 1_555 1_555
C4A C5 1_555 1_555
H2A C4A 1_555 1_555
C6A H4A 1_555 1_555
H5A C6A 1_555 1_555
C7A C6A 1_555 1_555
H6A C7A 1_555 1_555
H7A C7A 1_555 1_555
C8A H8A 1_555 1_555
H9A C8A 1_555 1_555
C9A C8A 1_555 1_555
H10A C9A 1_555 1_555
H11A C9A 1_555 1_555
C10A H12A 1_555 1_555
H13A C10A 1_555 1_555
C11A C10A 1_555 1_555
H14A C11A 1_555 1_555
H15A C11A 1_555 1_555
C12A H16A 1_555 1_555
H17A C12A 1_555 1_555
C13A C12A 1_555 1_555
H18A C13A 1_555 1_555
H19A C13A 1_555 1_555
C14A H20A 1_555 1_555
H21A C14A 1_555 1_555
C15A C14A 1_555 1_555
H22A C15A 1_555 1_555
H23A C15A 1_555 1_555
C16A H24A 1_555 1_555
H25A C16A 1_555 1_555
C17A C16A 1_555 1_555
H26A C17A 1_555 1_555
H27A C17A 1_555 1_555
N1A C6A 1_555 1_555
N2A C12A 1_555 1_555
O1A C1 1_555 1_555
O2A Cu2 1_555 1_555
O3A S1A 1_555 1_555
O4A C9A 1_555 1_555
O5A S1A 1_555 1_555
O6A S1A 1_555 1_555
O6C Na1 1_555 1_555
O6G Na1 1_555 1_555
O7A C13A 1_555 1_555
O8A S2A 1_555 1_555
O9A C15A 1_555 1_555
O10A S2A 1_555 1_555
O11A S2A 1_555 1_555
O11D Na1 1_555 1_555
S1A C11A 1_555 1_555
S2A C17A 1_555 1_555
Cu1A N1A 1_555 1_555
Cu2A O2 1_555 1_555
Na1B O6A 1_555 1_555
Na1C O6 1_555 1_555
Na1A O11A 1_555 1_555
H28A O9A 1_555 1_555
H29A O4A 1_555 1_555
C8 N1 1_555 1_555
C10 N1 1_555 1_555
C14 N2 1_555 1_555
C16 N2 1_555 1_555
O1 Cu1 1_555 1_555
O2 Cu1 1_555 1_555
O4 Cu1 1_555 1_555
O7 Cu1 1_555 1_555
O7 Cu2 1_555 1_555
O8 Cu2 1_555 1_555
O9 Cu2 1_555 1_555
C3A C4A 1_555 1_555
C7A O2A 1_555 1_555
C8A N1A 1_555 1_555
C10A N1A 1_555 1_555
C14A N2A 1_555 1_555
C16A N2A 1_555 1_555
N2A Cu2A 1_555 1_555
O1A Cu1A 1_555 1_555
O2A Cu1A 1_555 1_555
O4A Cu1A 1_555 1_555
O7A Cu1A 1_555 1_555
O7A Cu2A 1_555 1_555
O8A Cu2A 1_555 1_555
O9A Cu2A 1_555 1_555

#END
