
#######################################################################
#
#                 Cambridge Crystallographic Data Centre
#                                CCDC 
#
#######################################################################
#
# If this CIF has been generated from an entry in the Cambridge 
# Structural Database, then it will include bibliographic, chemical, 
# crystal, experimental, refinement or atomic coordinate data resulting 
# from the CCDC's data processing and validation procedures.
#
#######################################################################

data_RUXSEJ
_symmetry_cell_setting           triclinic
_symmetry_space_group_name_H-M   'P -1'
_symmetry_Int_Tables_number      2
_space_group_name_Hall           '-P 1'
loop_
_symmetry_equiv_pos_site_id
_symmetry_equiv_pos_as_xyz
1 x,y,z
2 -x,-y,-z
_cell_length_a                   13.166(5)
_cell_length_b                   13.540(3)
_cell_length_c                   13.897(3)
_cell_angle_alpha                118.936(3)
_cell_angle_beta                 94.003(4)
_cell_angle_gamma                112.924(4)
_cell_volume                     1891.6
loop_
_atom_site_label
_atom_site_type_symbol
_atom_site_fract_x
_atom_site_fract_y
_atom_site_fract_z
O1 O 0.8318(4) 0.5283(5) 0.4745(4)
C5 C 0.8886(8) 0.4951(8) 0.3916(7)
H4 H 0.8791 0.5258 0.3441
H5 H 0.8556 0.4029 0.3438
H6 H 0.9700 0.5337 0.4303
C1 C 0.8550(6) 0.1505(6) 0.4201(6)
H1 H 0.8781 0.2226 0.4947
C2 C 0.7437(6) 0.0476(6) 0.3729(5)
N1 N 0.5321(5) -0.5698(5) 0.3669(5)
C3 C 0.9008(6) 0.0435(6) 0.2481(6)
H2 H 0.9545 0.0425 0.2080
C4 C 0.9315(7) 0.1480(7) 0.3588(6)
H3 H 1.0060 0.2183 0.3925
C6 C 0.0944(6) -0.3173(7) 0.2397(7)
H7 H 0.0588 -0.3994 0.1667
H8 H 0.0717 -0.2608 0.2335
H9 H 0.0694 -0.3289 0.2986
C7 C 0.8181(8) -0.2872(8) 0.3178(8)
H10 H 0.8012 -0.2339 0.3000
H11 H 0.8632 -0.3181 0.2720
H12 H 0.8614 -0.2375 0.3987
C8 C 0.7539(8) -0.2565(9) 0.6596(7)
H13 H 0.7192 -0.2014 0.6851
H14 H 0.8348 -0.2075 0.7046
H15 H 0.7151 -0.3258 0.6694
N2 N 0.3547(10) -0.6792(10) 0.0949(9)
H16 H 0.575(5) -0.224(6) 0.127(6)
H17 H 0.358(6) -1.061(6) 0.228(6)
H18 H 0.903(6) -0.424(6) 0.690(6)
Cd1 Cd 0.58777(5) -0.36502(5) 0.39796(5)
Mn1 Mn 0.60870(8) -0.77587(8) 0.46291(8)
Mn2 Mn 0.55261(8) -0.09066(8) 0.42232(8)
Mn3 Mn 0.32186(8) -0.36989(8) 0.25535(8)
O2 O 0.5782(4) -0.7702(4) 0.5952(3)
O3 O 0.4242(4) -1.0168(4) 0.4107(3)
O4 O 0.6685(4) 0.0553(4) 0.4344(3)
O5 O 0.7615(4) -0.6285(4) 0.5543(4)
N3 N 0.7825(5) -0.5540(5) 0.6719(4)
O6 O 0.4084(4) -0.2922(4) 0.1820(4)
O7 O 0.6398(4) -0.7880(4) 0.3308(4)
O8 O 0.7855(4) -0.4944(4) 0.8919(4)
O9 O 0.2183(4) -0.2621(4) 0.2703(4)
N4 N 0.5153(5) -0.6668(5) 0.4717(5)
C9 C 0.7902(6) -0.0592(6) 0.1974(6)
H19 H 0.7686 -0.1290 0.1219
O10 O 0.7427(4) -0.3089(5) 0.5380(4)
N5 N 0.5189(5) -0.1909(5) 0.2514(4)
N6 N 0.4635(5) -0.9441(5) 0.3634(4)
N7 N 0.6700(5) -0.1570(5) 0.4561(5)
N8 N 0.4289(5) -0.4651(5) 0.2496(5)
N9 N 0.7565(6) -0.0765(6) 0.5376(5)
C10 C 0.5584(6) -0.8365(6) 0.2344(5)
O11 O 0.7099(5) -0.3960(5) 0.2918(5)
C11 C 1.0046(6) -0.2226(6) 0.8948(6)
H20 H 1.0339 -0.2024 0.8440
C12 C 0.8718(6) -0.4407(6) 0.7267(6)
C13 C 1.0089(6) -0.1619(6) 1.0869(6)
H21 H 1.0415 -0.1002 1.1665
C14 C 0.5934(6) -0.1686(6) 0.1992(6)
C15 C 0.4087(6) -0.9986(6) 0.2570(6)
C16 C 0.7088(6) -0.0604(6) 0.2579(5)
C17 C 0.9199(6) -0.2828(6) 1.0459(6)
H22 H 0.8918 -0.3018 1.0978
C18 C 0.4445(6) -0.9413(6) 0.1931(5)
C19 C 0.5864(6) -0.7845(6) 0.1677(6)
H23 H 0.6602 -0.7160 0.1925
C20 C 0.5049(7) -0.8342(7) 0.0645(6)
H24 H 0.5239 -0.7966 0.0227
C21 C 0.8714(6) -0.3771(6) 0.9272(6)
N10 N 0.3948(7) -0.5717(7) 0.1706(6)
C22 C 0.9136(6) -0.3475(6) 0.8495(5)
C23 C 0.3965(7) -0.9384(7) 0.0243(6)
H25 H 0.3436 -0.9730 -0.0459
C24 C 0.3669(6) -0.9909(6) 0.0872(6)
H26 H 0.2935 -1.0613 0.0592
N11 N 0.5258(5) -0.6152(5) 0.4193(4)
C25 C 1.0510(6) -0.1309(7) 1.0105(6)
H27 H 1.1100 -0.0483 1.0385
N12 N 0.8405(7) 0.0033(7) 0.6148(7)
Cd1A Cd 0.41223(5) -0.63498(5) 0.60204(5)
Mn2A Mn 0.44739(8) -0.90934(8) 0.57768(8)
Mn2_2 Mn 0.55261(8) -1.09066(8) 0.42232(8)
Mn3A Mn 0.67814(8) -0.63011(8) 0.74465(8)
O2A O 0.4218(4) -0.2298(4) 0.4048(3)
O3_2 O 0.4242(4) -0.0168(4) 0.4107(3)
O3A O 0.5758(4) 0.0168(4) 0.5893(3)
N3A N 0.2175(5) -0.4460(5) 0.3281(4)
O8A O 0.2145(4) -0.5056(4) 0.1081(4)
N4A N 0.4847(5) -0.3332(5) 0.5283(5)
loop_
_geom_bond_atom_site_label_1
_geom_bond_atom_site_label_2
_geom_bond_site_symmetry_1
_geom_bond_site_symmetry_2
O1 C5 1_555 1_555
C1 H1 1_555 1_555
C2 C1 1_555 1_555
N1 Cd1 1_555 1_555
C3 H2 1_555 1_555
C4 C1 1_555 1_555
H3 C4 1_555 1_555
C5 H4 1_555 1_555
H5 C5 1_555 1_555
H6 C5 1_555 1_555
C6 H7 1_555 1_555
H8 C6 1_555 1_555
H9 C6 1_555 1_555
C7 H10 1_555 1_555
H11 C7 1_555 1_555
H12 C7 1_555 1_555
C8 H13 1_555 1_555
H14 C8 1_555 1_555
H15 C8 1_555 1_555
N2 N10 1_555 1_555
H16 C14 1_555 1_555
H17 C15 1_555 1_555
H18 C12 1_555 1_555
Cd1 O10 1_555 1_555
Mn1 O2 1_555 1_555
Mn2 O4 1_555 1_555
Mn3 O6 1_555 1_555
O2 Mn2A 1_555 1_555
O3 N6 1_555 1_555
O4 C2 1_555 1_555
O5 Mn1 1_555 1_555
N3 O5 1_555 1_555
O6 N5 1_555 1_555
O7 Mn1 1_555 1_555
O8 C21 1_555 1_555
O9 C6 1_555 1_555
N4 Mn1 1_555 1_555
C9 C3 1_555 1_555
H19 C9 1_555 1_555
O10 C8 1_555 1_555
N5 Mn2 1_555 1_555
N6 Mn1 1_555 1_555
N7 Cd1 1_555 1_555
N8 Cd1 1_555 1_555
N9 N7 1_555 1_555
C10 O7 1_555 1_555
O11 C7 1_555 1_555
C11 H20 1_555 1_555
C12 N3 1_555 1_555
C13 H21 1_555 1_555
C14 N5 1_555 1_555
C15 N6 1_555 1_555
C16 C2 1_555 1_555
C17 C13 1_555 1_555
H22 C17 1_555 1_555
C18 C10 1_555 1_555
C19 C10 1_555 1_555
H23 C19 1_555 1_555
C20 C19 1_555 1_555
H24 C20 1_555 1_555
C21 C17 1_555 1_555
N10 N8 1_555 1_555
C22 C11 1_555 1_555
C23 C20 1_555 1_555
H25 C23 1_555 1_555
C24 C18 1_555 1_555
H26 C24 1_555 1_555
N11 N1 1_555 1_555
C25 C11 1_555 1_555
H27 C25 1_555 1_555
N12 N9 1_555 1_555
Cd1A N4 1_555 1_555
Mn2A O3 1_555 1_555
Mn2_2 O3 1_555 1_555
Mn3A O2 1_555 1_555
O2A Mn2 1_555 1_555
O3_2 Mn2 1_555 1_555
O3A Mn2 1_555 1_555
N3A Mn3 1_555 1_555
O8A Mn3 1_555 1_555
N4A Cd1 1_555 1_555
C3 C4 1_555 1_555
Cd1 O11 1_555 1_555
Mn2 N7 1_555 1_555
Mn3 O9 1_555 1_555
Mn3 N8 1_555 1_555
Mn3 O2A 1_555 1_555
N3 Mn3A 1_555 1_555
O8 Mn3A 1_555 1_555
N4 N11 1_555 1_555
C9 C16 1_555 1_555
C12 C22 1_555 1_555
C13 C25 1_555 1_555
C14 C16 1_555 1_555
C15 C18 1_555 1_555
C21 C22 1_555 1_555
C23 C24 1_555 1_555

#END
