
#######################################################################
#
#                 Cambridge Crystallographic Data Centre
#                                CCDC 
#
#######################################################################
#
# If this CIF has been generated from an entry in the Cambridge 
# Structural Database, then it will include bibliographic, chemical, 
# crystal, experimental, refinement or atomic coordinate data resulting 
# from the CCDC's data processing and validation procedures.
#
#######################################################################

data_RUXSIN
_symmetry_cell_setting           triclinic
_symmetry_space_group_name_H-M   'P -1'
_symmetry_Int_Tables_number      2
_space_group_name_Hall           '-P 1'
loop_
_symmetry_equiv_pos_site_id
_symmetry_equiv_pos_as_xyz
1 x,y,z
2 -x,-y,-z
_cell_length_a                   13.1465(19)
_cell_length_b                   13.4950(19)
_cell_length_c                   13.907(2)
_cell_angle_alpha                61.185(2)
_cell_angle_beta                 63.473(2)
_cell_angle_gamma                67.426(2)
_cell_volume                     1888.92
loop_
_atom_site_label
_atom_site_type_symbol
_atom_site_fract_x
_atom_site_fract_y
_atom_site_fract_z
O1 O 0.66818(16) 0.05397(15) 0.97672(16)
C1 C 0.6113(3) 0.1035(3) 0.8923(3)
H1 H 0.5291 0.1081 0.9305
H2 H 0.6411 0.0561 0.8478
H3 H 0.6255 0.1799 0.8418
N1 N 0.96348(17) 0.30734(16) 0.13596(16)
C2 C 0.7572(2) 0.67343(19) -0.1272(2)
C3 C 1.0580(2) 0.0700(2) 0.26542(19)
C4 C 0.9075(2) 0.2558(2) 0.2436(2)
C5 C 0.9088(2) 0.63182(19) -0.3023(2)
C6 C 1.0861(2) -0.0477(2) 0.3308(2)
H4 H 1.1595 -0.0914 0.3050
C7 C 1.3705(2) 0.3032(2) -0.4288(2)
C8 C 1.3721(2) 0.1648(2) -0.2274(2)
C9 C 0.7920(2) 0.68116(19) -0.2419(2)
C10 C 0.9452(2) 0.1341(2) 0.3061(2)
C11 C 1.4147(2) 0.1968(2) -0.3521(2)
C12 C 0.7117(2) 0.7441(2) -0.3033(2)
H5 H 0.7342 0.7507 -0.3794
C13 C 1.4207(2) 0.3273(2) -0.5480(2)
H6 H 1.3929 0.3979 -0.5997
C14 C 0.6013(2) 0.7957(2) -0.2531(2)
H7 H 0.5486 0.8356 -0.2941
C15 C 1.5063(2) 0.1164(2) -0.3970(2)
H8 H 1.5355 0.0456 -0.3466
C16 C 0.5683(2) 0.7883(2) -0.1405(3)
H9 H 0.4936 0.8245 -0.1067
C17 C 0.6447(2) 0.7282(2) -0.0784(2)
H10 H 0.6211 0.7239 -0.0030
C18 C 1.0059(2) -0.1001(2) 0.4338(2)
H11 H 1.0259 -0.1788 0.4759
C19 C 1.5107(2) 0.2481(2) -0.5899(2)
H12 H 1.5438 0.2660 -0.6694
C20 C 0.8667(2) 0.0784(2) 0.4127(2)
H13 H 0.7936 0.1209 0.4410
C21 C 0.8963(2) -0.0377(2) 0.4754(2)
H14 H 0.8434 -0.0739 0.5451
C22 C 1.5525(2) 0.1414(3) -0.5140(2)
H15 H 1.6117 0.0873 -0.5426
C23 C 1.4069(2) 0.4409(2) -0.2609(3)
H16 H 1.4316 0.3642 -0.2098
H17 H 1.4294 0.4956 -0.2529
H18 H 1.4427 0.4452 -0.3395
C24 C 0.7459(3) 0.0865(3) 0.1596(2)
H19 H 0.7833 0.0068 0.1714
H20 H 0.6643 0.0924 0.2021
H21 H 0.7795 0.1162 0.1864
C25 C 0.6878(3) 0.3885(3) -0.1789(3)
H22 H 0.6462 0.3620 -0.0972
H23 H 0.6413 0.3963 -0.2202
H24 H 0.7043 0.4621 -0.2037
Mn1 Mn 1.17779(3) 0.37328(3) -0.24534(3)
Mn2 Mn 1.10883(3) 0.23843(3) 0.03602(3)
Mn3 Mn 0.94798(3) 0.48565(3) -0.07764(3)
Mn4 Mn 0.91292(3) 0.23205(3) -0.09831(3)
O2 O 0.92445(14) 0.42691(13) 0.08961(13)
O3 O 1.07902(14) 0.36549(13) -0.09522(13)
O4 O 1.09230(14) 0.52453(14) -0.31833(13)
O5 O 1.26068(14) 0.18211(14) -0.05552(13)
O6 O 1.28303(15) 0.46742(15) -0.23169(15)
O7 O 0.83038(14) 0.61820(13) -0.06370(14)
N2 N 1.28286(17) 0.22459(16) -0.17422(16)
O8 O 1.13938(14) 0.11860(13) 0.16811(13)
N3 N 1.06681(18) 0.28203(17) -0.24519(17)
N4 N 0.98266(17) 0.55678(16) -0.24977(16)
O9 O 0.76196(16) 0.15232(16) 0.03843(15)
N5 N 1.01373(18) 0.13791(17) 0.02690(17)
O10 O 1.28463(15) 0.38371(14) -0.39329(14)
N6 N 0.83441(17) 0.38038(17) -0.04329(17)
N7 N 1.02523(17) 0.03451(17) 0.07799(16)
O11 O 0.79588(17) 0.30558(17) -0.20225(17)
N8 N 0.7455(2) 0.38368(19) 0.0373(2)
N9 N 1.03389(19) -0.06372(18) 0.12930(18)
N10 N 1.1059(2) 0.2504(2) -0.3248(2)
N11 N 0.6617(3) 0.3887(3) 0.1131(3)
N12 N 1.1447(3) 0.2213(4) -0.4010(3)
Mn3A Mn 1.05202(3) 0.51435(3) 0.07764(3)
Mn4A Mn 1.08708(3) -0.23205(3) 0.09831(3)
O2A O 1.07555(14) 0.57309(13) -0.08961(13)
N9A N 0.96611(19) 0.06372(18) -0.12930(18)
loop_
_geom_bond_atom_site_label_1
_geom_bond_atom_site_label_2
_geom_bond_site_symmetry_1
_geom_bond_site_symmetry_2
O1 C1 1_555 1_555
C1 H1 1_555 1_555
H2 C1 1_555 1_555
H3 C1 1_555 1_555
N1 C4 1_555 1_555
C2 C9 1_555 1_555
C3 C6 1_555 1_555
C4 C10 1_555 1_555
C5 C9 1_555 1_555
C6 H4 1_555 1_555
C7 C11 1_555 1_555
C8 C11 1_555 1_555
C9 C12 1_555 1_555
C10 C3 1_555 1_555
C11 C15 1_555 1_555
C12 H5 1_555 1_555
C13 C7 1_555 1_555
H6 C13 1_555 1_555
C14 C12 1_555 1_555
H7 C14 1_555 1_555
C15 H8 1_555 1_555
C16 C14 1_555 1_555
H9 C16 1_555 1_555
C17 C2 1_555 1_555
H10 C17 1_555 1_555
C18 C6 1_555 1_555
H11 C18 1_555 1_555
C19 C13 1_555 1_555
H12 C19 1_555 1_555
C20 C10 1_555 1_555
H13 C20 1_555 1_555
C21 C18 1_555 1_555
H14 C21 1_555 1_555
C22 C15 1_555 1_555
H15 C22 1_555 1_555
C23 H16 1_555 1_555
H17 C23 1_555 1_555
H18 C23 1_555 1_555
C24 H19 1_555 1_555
H20 C24 1_555 1_555
H21 C24 1_555 1_555
C25 H22 1_555 1_555
H23 C25 1_555 1_555
H24 C25 1_555 1_555
Mn1 O3 1_555 1_555
Mn2 N1 1_555 1_555
Mn3 O2 1_555 1_555
Mn4 N3 1_555 1_555
O2 N1 1_555 1_555
O3 Mn2 1_555 1_555
O4 Mn1 1_555 1_555
O5 Mn2 1_555 1_555
O6 C23 1_555 1_555
O7 C2 1_555 1_555
N2 C8 1_555 1_555
O8 C3 1_555 1_555
N3 Mn1 1_555 1_555
N4 C5 1_555 1_555
O9 C24 1_555 1_555
N5 Mn2 1_555 1_555
O10 C7 1_555 1_555
N6 Mn3 1_555 1_555
N7 N5 1_555 1_555
O11 C25 1_555 1_555
N8 N6 1_555 1_555
N9 N7 1_555 1_555
N10 N3 1_555 1_555
N11 N8 1_555 1_555
N12 N10 1_555 1_555
Mn3A O2 1_555 1_555
Mn4A N9 1_555 1_555
O2A Mn3 1_555 1_555
N9A Mn4 1_555 1_555
C16 C17 1_555 1_555
C19 C22 1_555 1_555
C20 C21 1_555 1_555
Mn1 O6 1_555 1_555
Mn1 N2 1_555 1_555
Mn1 O10 1_555 1_555
Mn2 O8 1_555 1_555
Mn3 O3 1_555 1_555
Mn3 O7 1_555 1_555
Mn3 N4 1_555 1_555
Mn4 O9 1_555 1_555
Mn4 N5 1_555 1_555
Mn4 N6 1_555 1_555
Mn4 O11 1_555 1_555
O4 N4 1_555 1_555
O5 N2 1_555 1_555
Mn3A O2A 1_555 1_555

#END
