
#######################################################################
#
#                 Cambridge Crystallographic Data Centre
#                                CCDC 
#
#######################################################################
#
# If this CIF has been generated from an entry in the Cambridge 
# Structural Database, then it will include bibliographic, chemical, 
# crystal, experimental, refinement or atomic coordinate data resulting 
# from the CCDC's data processing and validation procedures.
#
#######################################################################

data_RUXTUA
_symmetry_cell_setting           triclinic
_symmetry_space_group_name_H-M   'P -1'
_symmetry_Int_Tables_number      2
_space_group_name_Hall           '-P 1'
loop_
_symmetry_equiv_pos_site_id
_symmetry_equiv_pos_as_xyz
1 x,y,z
2 -x,-y,-z
_cell_length_a                   11.453(4)
_cell_length_b                   14.185(7)
_cell_length_c                   15.336(5)
_cell_angle_alpha                111.290(16)
_cell_angle_beta                 97.970(14)
_cell_angle_gamma                110.110(15)
_cell_volume                     2078.73
loop_
_atom_site_label
_atom_site_type_symbol
_atom_site_fract_x
_atom_site_fract_y
_atom_site_fract_z
C1 C 0.0542(8) 0.8218(7) -0.4754(7)
H1 H 0.0224 0.7732 -0.5420
C2 C 0.0964(8) 0.7948(7) -0.4045(8)
H2 H 0.1000 0.7278 -0.4125
C3 C 0.1322(7) 0.8879(7) -0.3193(7)
H3 H 0.1657 0.8965 -0.2567
C4 C 0.1541(7) 1.0830(6) -0.2765(6)
H4 H 0.1861 1.0954 -0.2095
H5 H 0.2269 1.1261 -0.2922
C5 C 0.0527(7) 1.1275(6) -0.2812(5)
C6 C 0.0910(8) 1.2378(6) -0.2653(6)
H6 H 0.1768 1.2811 -0.2585
C7 C 0.0029(8) 1.2832(6) -0.2596(6)
H7 H 0.0307 1.3579 -0.2471
C8 C -0.1256(7) 1.2213(6) -0.2718(5)
C9 C -0.1662(7) 1.1100(6) -0.2925(6)
H8 H -0.2537 1.0660 -0.3040
C10 C -0.0780(7) 1.0632(6) -0.2964(6)
H9 H -0.1062 0.9883 -0.3092
C11 C -0.2168(9) 1.2779(7) -0.2603(7)
H10 H -0.2018 1.3240 -0.2950
H11 H -0.1956 1.3270 -0.1913
C12 C -0.4303(12) 1.1476(9) -0.3881(7)
H12 H -0.4090 1.1578 -0.4414
C13 C -0.5452(11) 1.0752(9) -0.3903(7)
H13 H -0.6182 1.0257 -0.4447
C14 C -0.5315(8) 1.0903(7) -0.2954(7)
H14 H -0.5962 1.0513 -0.2748
C15 C -0.5421(9) 1.3183(7) -0.0878(6)
H15 H -0.5219 1.3375 -0.1374
C16 C -0.6401(10) 1.3318(9) -0.0489(7)
H16 H -0.6962 1.3608 -0.0663
C17 C -0.6368(10) 1.2938(8) 0.0200(7)
H17 H -0.6912 1.2918 0.0596
C18 C -0.4930(12) 1.2222(7) 0.0885(6)
H18 H -0.4036 1.2755 0.1263
H19 H -0.5440 1.2225 0.1340
C19 C -0.4967(10) 1.1074(7) 0.0406(5)
C20 C -0.5813(10) 1.0255(7) -0.0507(6)
H20 H -0.6376 1.0417 -0.0865
C21 C -0.4164(10) 1.0791(7) 0.0893(6)
H21 H -0.3580 1.1323 0.1507
C22 C -0.2164(13) 1.0810(10) -0.0861(8)
H22 H -0.2777 1.0208 -0.1433
C23 C -0.1122(19) 1.0792(16) -0.0345(13)
H23 H -0.0876 1.0206 -0.0491
C24 C -0.0521(17) 1.1806(17) 0.0424(12)
H24 H 0.0228 1.2051 0.0925
C25 C -0.0859(14) 1.3597(12) 0.0962(8)
H25 H -0.1627 1.3650 0.1130
H26 H -0.0184 1.3876 0.1568
C26 C -0.0406(11) 1.4318(10) 0.0461(8)
C27 C 0.0742(12) 1.4493(12) 0.0200(10)
H27 H 0.1248 1.4145 0.0338
C28 C -0.1136(12) 1.4849(12) 0.0246(10)
H28 H -0.1906 1.4749 0.0412
Cu1 Cu 0.0000 1.0000 -0.5000
Cu2 Cu -0.35380(11) 1.21926(10) -0.08927(8)
Mo1 Mo 0.53452(6) 1.24954(5) -0.62167(5)
Mo2 Mo 0.59405(7) 1.48346(6) -0.27743(4)
Mo3 Mo 0.32151(6) 1.25770(5) -0.47336(5)
Mo4 Mo 0.19837(6) 1.51288(7) -0.56975(5)
Mo5 Mo 0.30071(6) 1.51165(5) -0.34081(4)
Mo6 Mo 0.23939(7) 1.26849(5) -0.70011(5)
N1 N 0.0634(5) 0.9256(5) -0.4389(4)
N2 N 0.1109(5) 0.9652(5) -0.3409(4)
N3 N -0.4143(6) 1.1673(5) -0.2371(4)
N4 N -0.3529(6) 1.2017(5) -0.2961(5)
N5 N -0.4804(6) 1.2749(5) -0.0463(4)
N6 N -0.5417(7) 1.2596(5) 0.0212(4)
N7 N -0.2205(8) 1.1795(7) -0.0451(5)
N8 N -0.1175(10) 1.2408(8) 0.0354(6)
O1 O 0.5478(8) 1.1338(5) -0.6819(5)
O2 O 0.2511(6) 1.3554(5) -0.4085(5)
O3 O 0.1888(5) 1.4906(5) -0.4600(4)
O4 O 0.3725(5) 1.2229(6) -0.7064(5)
O5 O 0.6169(5) 1.3381(5) -0.6831(4)
O6 O 0.4352(5) 1.2127(5) -0.5412(4)
O7 O 0.4489(6) 1.5254(6) -0.2631(5)
O8 O 0.1564(8) 1.3640(5) -0.6481(5)
O9 O 0.7154(7) 1.4551(5) -0.3353(4)
O10 O 0.6851(6) 1.3316(5) -0.5159(4)
O11 O 0.2074(5) 1.5173(5) -0.2675(4)
O12 O 0.2396(5) 1.1455(4) -0.4600(4)
O13 O 0.6364(5) 1.4782(4) -0.1725(3)
O14 O 0.1171(6) 1.1589(5) -0.7921(4)
O15 O 0.2192(5) 1.2292(6) -0.5938(4)
O16 O 0.6925(8) 1.6405(5) -0.2392(5)
O17 O 0.0635(6) 1.5245(7) -0.6031(6)
O18 O 0.3786(6) 1.4613(6) -0.5838(5)
O19 O 0.4430(7) 1.4536(6) -0.4254(5)
O20 O 0.4142(7) 1.5519(6) -0.4655(5)
O21 O 0.4358(7) 1.3759(6) -0.5543(5)
O22 O 0.4668(6) 1.3387(5) -0.3568(6)
P1 P 0.5000 1.5000 -0.5000
C1A C -0.0542(8) 1.1782(7) -0.5246(7)
H1A H -0.0224 1.2268 -0.4580
C2A C -0.0964(8) 1.2052(7) -0.5955(8)
H2A H -0.1000 1.2722 -0.5875
C3A C -0.1322(7) 1.1121(7) -0.6807(7)
H3A H -0.1657 1.1035 -0.7433
C4A C -0.1541(7) 0.9170(6) -0.7235(6)
H4A H -0.1861 0.9046 -0.7905
H5A H -0.2269 0.8739 -0.7078
C5A C -0.0527(7) 0.8725(6) -0.7188(5)
C6A C -0.0910(8) 0.7622(6) -0.7347(6)
H6A H -0.1768 0.7189 -0.7415
C7A C -0.0029(8) 0.7168(6) -0.7404(6)
H7A H -0.0307 0.6421 -0.7529
C8A C 0.1256(7) 0.7787(6) -0.7282(5)
C9A C 0.1662(7) 0.8900(6) -0.7075(6)
H8A H 0.2537 0.9340 -0.6960
C10A C 0.0780(7) 0.9368(6) -0.7036(6)
H9A H 0.1062 1.0117 -0.6908
C11A C 0.2168(9) 0.7221(7) -0.7397(7)
H10A H 0.2018 0.6760 -0.7050
H11A H 0.1956 0.6730 -0.8087
C12A C 0.4303(12) 0.8524(9) -0.6119(7)
H12A H 0.4090 0.8422 -0.5586
C13A C 0.5452(11) 0.9248(9) -0.6097(7)
H13A H 0.6182 0.9743 -0.5553
C14A C 0.5315(8) 0.9097(7) -0.7046(7)
H14A H 0.5962 0.9487 -0.7252
C15A C -0.4579(9) 0.6817(7) 0.0878(6)
H15A H -0.4781 0.6625 0.1374
C16A C -0.3599(10) 0.6682(9) 0.0489(7)
H16A H -0.3038 0.6392 0.0663
C17A C -0.3632(10) 0.7062(8) -0.0200(7)
H17A H -0.3088 0.7082 -0.0596
C18A C -0.5070(12) 0.7778(7) -0.0885(6)
H18A H -0.5964 0.7245 -0.1263
H19A H -0.4560 0.7775 -0.1340
C19A C -0.5033(10) 0.8926(7) -0.0406(5)
C20A C -0.4187(10) 0.9745(7) 0.0507(6)
H20A H -0.3624 0.9583 0.0865
C21A C -0.5836(10) 0.9209(7) -0.0893(6)
H21A H -0.6420 0.8677 -0.1507
C22A C 0.2164(13) 1.9190(10) 0.0861(8)
H22A H 0.2777 1.9792 0.1433
C23A C 0.1122(19) 1.9208(16) 0.0345(13)
H23A H 0.0876 1.9794 0.0491
C24A C 0.0521(17) 1.8194(17) -0.0424(12)
H24A H -0.0228 1.7949 -0.0925
C25A C 0.0859(14) 1.6403(12) -0.0962(8)
H25A H 0.1627 1.6350 -0.1130
H26A H 0.0184 1.6124 -0.1568
C26A C 0.0406(11) 1.5682(10) -0.0461(8)
C27A C -0.0742(12) 1.5507(12) -0.0200(10)
H27A H -0.1248 1.5855 -0.0338
C28A C 0.1136(12) 1.5151(12) -0.0246(10)
H28A H 0.1906 1.5251 -0.0412
Cu1_2 Cu 1.0000 2.0000 -0.5000
Cu2A Cu 0.35380(11) 0.78074(10) -0.91073(8)
Cu2A_2 Cu -0.64620(11) 0.78074(10) 0.08927(8)
Cu2A_3 Cu 0.35380(11) 1.78074(10) 0.08927(8)
Mo1A Mo -0.53452(6) 0.75046(5) -0.37833(5)
Mo1A_2 Mo 0.46548(6) 1.75046(5) -0.37833(5)
Mo2A Mo 0.40595(7) 1.51654(6) -0.72257(4)
Mo2A_2 Mo -0.59405(7) 0.51654(6) -0.72257(4)
Mo3A Mo -0.32151(6) 0.74230(5) -0.52664(5)
Mo3A_2 Mo 0.67849(6) 1.74230(5) -0.52664(5)
Mo4A Mo 0.80163(6) 1.48712(7) -0.43025(5)
Mo5A Mo -0.30071(6) 0.48835(5) -0.65919(4)
Mo5A_2 Mo 0.69929(6) 1.48835(5) -0.65919(4)
Mo6A Mo -0.23939(7) 0.73151(5) -0.29989(5)
Mo6A_2 Mo 0.76061(7) 1.73151(5) -0.29989(5)
N1A N -0.0634(5) 1.0744(5) -0.5611(4)
N2A N -0.1109(5) 1.0348(5) -0.6591(4)
N3A N 0.4143(6) 0.8327(5) -0.7629(4)
N4A N 0.3529(6) 0.7983(5) -0.7039(5)
N5A N -0.5196(6) 0.7251(5) 0.0463(4)
N5A_2 N 0.4804(6) 0.7251(5) -0.9537(4)
N6A N -0.4583(7) 0.7404(5) -0.0212(4)
N7A N 0.2205(8) 1.8205(7) 0.0451(5)
N7A_2 N 0.2205(8) 0.8205(7) -0.9549(5)
N8A N 0.1175(10) 1.7592(8) -0.0354(6)
O1A O -0.5478(8) 0.8662(5) -0.3181(5)
O1A_2 O 0.4522(8) 1.8662(5) -0.3181(5)
O2A O -0.2511(6) 0.6446(5) -0.5915(5)
O2A_2 O 0.7489(6) 1.6446(5) -0.5915(5)
O3A O 0.8112(5) 1.5094(5) -0.5400(4)
O3A_2 O -0.1888(5) 0.5094(5) -0.5400(4)
O4A O -0.3725(5) 0.7771(6) -0.2936(5)
O4A_2 O 0.6275(5) 1.7771(6) -0.2936(5)
O5A O 0.3831(5) 1.6619(5) -0.3169(4)
O5A_2 O -0.6169(5) 0.6619(5) -0.3169(4)
O5_2 O -0.3831(5) 0.3381(5) -0.6831(4)
O6A O -0.4352(5) 0.7873(5) -0.4588(4)
O6A_2 O 0.5648(5) 1.7873(5) -0.4588(4)
O7A O 0.5511(6) 1.4746(6) -0.7369(5)
O7A_2 O -0.4489(6) 0.4746(6) -0.7369(5)
O8A O 0.8436(8) 1.6360(5) -0.3519(5)
O8A_2 O -0.1564(8) 0.6360(5) -0.3519(5)
O9A O 0.2846(7) 1.5449(5) -0.6647(4)
O10A O 0.3149(6) 1.6684(5) -0.4841(4)
O10A_2 O -0.6851(6) 0.6684(5) -0.4841(4)
O11A O -0.2074(5) 0.4827(5) -0.7325(4)
O11A_2 O 0.7926(5) 1.4827(5) -0.7325(4)
O12A O -0.2396(5) 0.8545(4) -0.5400(4)
O12A_2 O 0.7604(5) 1.8545(4) -0.5400(4)
O13A O 0.3636(5) 1.5218(4) -0.8275(3)
O14A O -0.1171(6) 0.8411(5) -0.2079(4)
O15A O -0.2192(5) 0.7708(6) -0.4062(4)
O15A_2 O 0.7808(5) 1.7708(6) -0.4062(4)
O16A O 0.3075(8) 1.3595(5) -0.7608(5)
O16_2 O -0.3075(8) 0.6405(5) -0.2392(5)
O17A O 0.9365(6) 1.4755(7) -0.3969(6)
O18A O 0.6214(6) 1.5387(6) -0.4162(5)
O18A_2 O -0.3786(6) 0.5387(6) -0.4162(5)
O19A O 0.5570(7) 1.5464(6) -0.5746(5)
O19A_2 O -0.4430(7) 0.5464(6) -0.5746(5)
O20A O 0.5858(7) 1.4481(6) -0.5345(5)
O20_2 O -0.5858(7) 0.5519(6) -0.4655(5)
O21A O 0.5642(7) 1.6241(6) -0.4457(5)
O21A_2 O -0.4358(7) 0.6241(6) -0.4457(5)
O22A O -0.4668(6) 0.6613(5) -0.6432(6)
O22A_2 O 0.5332(6) 1.6613(5) -0.6432(6)
loop_
_geom_bond_atom_site_label_1
_geom_bond_atom_site_label_2
_geom_bond_site_symmetry_1
_geom_bond_site_symmetry_2
C1 H1 1_555 1_555
C2 C1 1_555 1_555
H2 C2 1_555 1_555
C3 C2 1_555 1_555
H3 C3 1_555 1_555
C4 H4 1_555 1_555
H5 C4 1_555 1_555
C5 C4 1_555 1_555
C6 C5 1_555 1_555
H6 C6 1_555 1_555
C7 C6 1_555 1_555
H7 C7 1_555 1_555
C8 C7 1_555 1_555
C9 C8 1_555 1_555
H8 C9 1_555 1_555
C10 C5 1_555 1_555
H9 C10 1_555 1_555
C11 C8 1_555 1_555
H10 C11 1_555 1_555
H11 C11 1_555 1_555
C12 H12 1_555 1_555
C13 C12 1_555 1_555
H13 C13 1_555 1_555
C14 C13 1_555 1_555
H14 C14 1_555 1_555
C15 H15 1_555 1_555
C16 C15 1_555 1_555
H16 C16 1_555 1_555
C17 C16 1_555 1_555
H17 C17 1_555 1_555
C18 H18 1_555 1_555
H19 C18 1_555 1_555
C19 C18 1_555 1_555
C20 C19 1_555 1_555
H20 C20 1_555 1_555
C21 C19 1_555 1_555
H21 C21 1_555 1_555
C22 H22 1_555 1_555
C23 C22 1_555 1_555
H23 C23 1_555 1_555
C24 C23 1_555 1_555
H24 C24 1_555 1_555
C25 H25 1_555 1_555
H26 C25 1_555 1_555
C26 C25 1_555 1_555
C27 C26 1_555 1_555
H27 C27 1_555 1_555
C28 C26 1_555 1_555
H28 C28 1_555 1_555
Cu1 N1 1_555 1_555
Cu2 N3 1_555 1_555
Mo1 O1 1_555 1_555
Mo2 O7 1_555 1_555
Mo3 O2 1_555 1_555
Mo4 O3 1_555 1_555
Mo5 O2 1_555 1_555
Mo6 O4 1_555 1_555
N1 C1 1_555 1_555
N2 C3 1_555 1_555
N3 C14 1_555 1_555
N4 C11 1_555 1_555
N5 C15 1_555 1_555
N6 C17 1_555 1_555
N7 C22 1_555 1_555
N8 C24 1_555 1_555
O3 Mo5 1_555 1_555
O4 Mo1 1_555 1_555
O5 Mo1 1_555 1_555
O6 Mo1 1_555 1_555
O7 Mo5 1_555 1_555
O8 Mo4 1_555 1_555
O9 Mo2 1_555 1_555
O10 Mo1 1_555 1_555
O11 Mo5 1_555 1_555
O12 Cu1 1_555 1_555
O13 Mo2 1_555 1_555
O14 Mo6 1_555 1_555
O15 Mo3 1_555 1_555
O16 Mo2 1_555 1_555
O17 Mo4 1_555 1_555
O18 Mo4 1_555 1_555
O19 Mo2 1_555 1_555
O20 Mo4 1_555 1_555
O21 Mo1 1_555 1_555
O22 Mo2 1_555 1_555
P1 O18 1_555 1_555
C1A H1A 1_555 1_555
C2A C1A 1_555 1_555
H2A C2A 1_555 1_555
C3A C2A 1_555 1_555
H3A C3A 1_555 1_555
C4A H4A 1_555 1_555
H5A C4A 1_555 1_555
C5A C4A 1_555 1_555
C6A C5A 1_555 1_555
H6A C6A 1_555 1_555
C7A C6A 1_555 1_555
H7A C7A 1_555 1_555
C8A C7A 1_555 1_555
C9A C8A 1_555 1_555
H8A C9A 1_555 1_555
C10A C5A 1_555 1_555
H9A C10A 1_555 1_555
C11A C8A 1_555 1_555
H10A C11A 1_555 1_555
H11A C11A 1_555 1_555
C12A H12A 1_555 1_555
C13A C12A 1_555 1_555
H13A C13A 1_555 1_555
C14A C13A 1_555 1_555
H14A C14A 1_555 1_555
C15A H15A 1_555 1_555
C16A C15A 1_555 1_555
H16A C16A 1_555 1_555
C17A C16A 1_555 1_555
H17A C17A 1_555 1_555
C18A H18A 1_555 1_555
H19A C18A 1_555 1_555
C19A C18A 1_555 1_555
C20A C21 1_555 1_555
H20A C20A 1_555 1_555
C21A C20 1_555 1_555
H21A C21A 1_555 1_555
C22A H22A 1_555 1_555
C23A C22A 1_555 1_555
H23A C23A 1_555 1_555
C24A C23A 1_555 1_555
H24A C24A 1_555 1_555
C25A H25A 1_555 1_555
H26A C25A 1_555 1_555
C26A C25A 1_555 1_555
C27A C28 1_555 1_555
H27A C27A 1_555 1_555
C28A C27 1_555 1_555
H28A C28A 1_555 1_555
Cu1_2 O12A_2 1_555 1_555
Cu2A N3A 1_555 1_555
Cu2A_2 N5A 1_555 1_555
Cu2A_3 N7A 1_555 1_555
Mo1A O1A 1_555 1_555
Mo1A_2 O20 1_555 1_555
Mo2A O7A 1_555 1_555
Mo2A_2 O7A_2 1_555 1_555
Mo3A O2A 1_555 1_555
Mo3A_2 O2A_2 1_555 1_555
Mo4A O9 1_555 1_555
Mo5A O2A 1_555 1_555
Mo5A_2 O5 1_555 1_555
Mo6A O4A 1_555 1_555
Mo6A_2 O16 1_555 1_555
N1A Cu1 1_555 1_555
N2A C3A 1_555 1_555
N3A C14A 1_555 1_555
N4A C11A 1_555 1_555
N5A C15A 1_555 1_555
N5A_2 Cu2A 1_555 1_555
N6A C17A 1_555 1_555
N7A C22A 1_555 1_555
N7A_2 Cu2A 1_555 1_555
N8A C24A 1_555 1_555
O1A_2 Mo1A_2 1_555 1_555
O2A_2 Mo5A_2 1_555 1_555
O3A Mo4A 1_555 1_555
O3A_2 Mo5A 1_555 1_555
O4A Mo1A 1_555 1_555
O4A_2 Mo1A_2 1_555 1_555
O5A Mo5 1_555 1_555
O5A_2 Mo1A 1_555 1_555
O5_2 Mo5A 1_555 1_555
O6A Mo1A 1_555 1_555
O6A_2 Mo1A_2 1_555 1_555
O7A Mo5A_2 1_555 1_555
O7A_2 Mo5A 1_555 1_555
O8A Mo4A 1_555 1_555
O8A_2 Mo6A 1_555 1_555
O9A Mo4 1_555 1_555
O10A Mo4 1_555 1_555
O10A_2 Mo1A 1_555 1_555
O11A Mo5A 1_555 1_555
O11A_2 Mo5A_2 1_555 1_555
O12A Cu1 1_555 1_555
O12A_2 Mo3A_2 1_555 1_555
O13A Mo2A 1_555 1_555
O14A Mo6A 1_555 1_555
O15A Mo3A 1_555 1_555
O15A_2 Mo3A_2 1_555 1_555
O16A Mo6 1_555 1_555
O16_2 Mo6A 1_555 1_555
O17A Mo4A 1_555 1_555
O18A P1 1_555 1_555
O18A_2 Mo6A 1_555 1_555
O19A P1 1_555 1_555
O19A_2 Mo2A_2 1_555 1_555
O20A Mo1 1_555 1_555
O20_2 Mo1A 1_555 1_555
O21A O20 1_555 1_555
O21A_2 Mo1A 1_555 1_555
O22A Mo2A_2 1_555 1_555
O22A_2 Mo2A 1_555 1_555
C4 N2 1_555 1_555
C9 C10 1_555 1_555
C12 N4 1_555 1_555
C18 N6 1_555 1_555
C25 N8 1_555 1_555
Cu2 N5 1_555 1_555
Cu2 N7 1_555 1_555
Mo3 O6 1_555 1_555
Mo3 O12 1_555 1_555
Mo3 O19 1_555 1_555
Mo3 O22 1_555 1_555
Mo5 O19 1_555 1_555
Mo6 O8 1_555 1_555
Mo6 O15 1_555 1_555
Mo6 O18 1_555 1_555
Mo6 O21 1_555 1_555
N1 N2 1_555 1_555
N3 N4 1_555 1_555
N5 N6 1_555 1_555
N7 N8 1_555 1_555
O10 Mo4A 1_555 1_555
O18 O20 1_555 1_555
O18 O21 1_555 1_555
O19 P1 1_555 1_555
O20 P1 1_555 1_555
O21 P1 1_555 1_555
O21 O20A 1_555 1_555
P1 O20A 1_555 1_555
P1 O21A 1_555 1_555
C1A N1A 1_555 1_555
C4A N2A 1_555 1_555
C9A C10A 1_555 1_555
C12A N4A 1_555 1_555
C18A N6A 1_555 1_555
C19A C20A 1_555 1_555
C19A C21A 1_555 1_555
C25A N8A 1_555 1_555
C26A C27A 1_555 1_555
C26A C28A 1_555 1_555
Mo1A_2 O5A 1_555 1_555
Mo1A_2 O10A 1_555 1_555
Mo1A_2 O21A 1_555 1_555
Mo2A O9A 1_555 1_555
Mo2A O16A 1_555 1_555
Mo2A O19A 1_555 1_555
Mo3A O6A 1_555 1_555
Mo3A O12A 1_555 1_555
Mo3A O19A_2 1_555 1_555
Mo3A O22A 1_555 1_555
Mo3A_2 O6A_2 1_555 1_555
Mo3A_2 O19A 1_555 1_555
Mo3A_2 O22A_2 1_555 1_555
Mo4A O18A 1_555 1_555
Mo4A O20A 1_555 1_555
Mo5A O19A_2 1_555 1_555
Mo5A_2 O3A 1_555 1_555
Mo5A_2 O19A 1_555 1_555
Mo6A O15A 1_555 1_555
Mo6A O21A_2 1_555 1_555
Mo6A_2 O8A 1_555 1_555
Mo6A_2 O18A 1_555 1_555
Mo6A_2 O21A 1_555 1_555
N1A N2A 1_555 1_555
N3A N4A 1_555 1_555
N5A N6A 1_555 1_555
N7A N8A 1_555 1_555
O18A O20A 1_555 1_555
O18A O21A 1_555 1_555
O18A_2 O21A_2 1_555 1_555
O20_2 O21A_2 1_555 1_555

#END
