
#######################################################################
#
#                 Cambridge Crystallographic Data Centre
#                                CCDC 
#
#######################################################################
#
# If this CIF has been generated from an entry in the Cambridge 
# Structural Database, then it will include bibliographic, chemical, 
# crystal, experimental, refinement or atomic coordinate data resulting 
# from the CCDC's data processing and validation procedures.
#
#######################################################################

data_RUXTIO
_symmetry_cell_setting           triclinic
_symmetry_space_group_name_H-M   'P -1'
_symmetry_Int_Tables_number      2
_space_group_name_Hall           '-P 1'
loop_
_symmetry_equiv_pos_site_id
_symmetry_equiv_pos_as_xyz
1 x,y,z
2 -x,-y,-z
_cell_length_a                   11.4435(10)
_cell_length_b                   14.1436(12)
_cell_length_c                   15.401(2)
_cell_angle_alpha                111.463(2)
_cell_angle_beta                 97.523(2)
_cell_angle_gamma                109.7840(10)
_cell_volume                     2088.48
loop_
_atom_site_label
_atom_site_type_symbol
_atom_site_fract_x
_atom_site_fract_y
_atom_site_fract_z
C1 C -0.0543(14) 0.6785(12) 0.9765(10)
H1 H -0.0219 0.7273 1.0427
C2 C -0.0985(14) 0.7055(11) 0.9042(11)
H2 H -0.1024 0.7725 0.9115
C3 C -0.1341(13) 0.6121(11) 0.8213(10)
H3 H -0.1675 0.6031 0.7590
C4 C -0.1578(12) 0.4156(9) 0.7781(9)
H4 H -0.1900 0.4031 0.7116
H5 H -0.2298 0.3728 0.7947
C5 C -0.0553(12) 0.3713(9) 0.7822(8)
C6 C -0.0927(13) 0.2613(9) 0.7660(8)
H6 H -0.1784 0.2185 0.7592
C7 C -0.0056(13) 0.2140(9) 0.7597(8)
H7 H -0.0336 0.1394 0.7478
C8 C 0.1226(12) 0.2751(9) 0.7707(8)
C9 C 0.1624(12) 0.3889(9) 0.7925(9)
H8 H 0.2497 0.4335 0.8051
C10 C 0.0744(12) 0.4349(9) 0.7954(9)
H9 H 0.1014 0.5092 0.8063
C11 C 0.2134(14) 0.2183(10) 0.7577(11)
H10 H 0.1974 0.1703 0.7905
H11 H 0.1937 0.1710 0.6888
C12 C 0.425(2) 0.3491(14) 0.8872(11)
H12 H 0.4006 0.3389 0.9397
C13 C 0.5402(19) 0.4211(14) 0.8925(10)
H13 H 0.6117 0.4697 0.9470
C14 C 0.5274(14) 0.4055(11) 0.7965(11)
H14 H 0.5932 0.4446 0.7768
C15 C 0.5463(15) 0.1821(11) 0.5882(9)
H15 H 0.5272 0.1639 0.6384
C16 C 0.6418(17) 0.1690(13) 0.5495(11)
H16 H 0.6974 0.1391 0.5657
C17 C 0.6398(16) 0.2085(12) 0.4821(10)
H17 H 0.6957 0.2121 0.4434
C18 C 0.4950(19) 0.2785(12) 0.4129(9)
H18 H 0.4067 0.2246 0.3751
H19 H 0.5469 0.2791 0.3680
C19 C 0.4959(15) 0.3930(11) 0.4612(9)
C20 C 0.5833(17) 0.4762(12) 0.5503(10)
H20 H 0.6405 0.4602 0.5851
C21 C 0.4133(17) 0.4191(11) 0.4124(9)
H21 H 0.3536 0.3648 0.3527
C22 C 0.218(2) 0.4204(14) 0.5912(11)
H22 H 0.2800 0.4798 0.6477
C23 C 0.115(3) 0.424(2) 0.5427(17)
H23 H 0.0918 0.4838 0.5593
C24 C 0.054(2) 0.325(2) 0.4659(15)
H24 H -0.0212 0.3024 0.4177
C25 C 0.090(2) 0.1485(17) 0.4079(14)
H25 H 0.1685 0.1452 0.3926
H26 H 0.0253 0.1226 0.3472
C26 C 0.0414(18) 0.0708(14) 0.4543(11)
C27 C 0.1159(18) 0.0181(16) 0.4758(14)
H27 H 0.1938 0.0295 0.4603
C28 C -0.0753(18) 0.0497(17) 0.4808(14)
H28 H -0.1269 0.0842 0.4677
Cu1 Cu 0.0000 0.5000 1.0000
Cu2 Cu 0.35479(19) 0.27930(15) 0.59007(13)
N1 N -0.0640(9) 0.5753(8) 0.9397(6)
N2 N -0.1141(9) 0.5339(8) 0.8424(6)
N3 N 0.4129(10) 0.3300(9) 0.7367(7)
N4 N 0.3485(11) 0.2940(8) 0.7945(7)
N5 N 0.4825(11) 0.2243(9) 0.5458(8)
N6 N 0.5443(13) 0.2414(9) 0.4804(7)
N7 N 0.2212(13) 0.3211(11) 0.5486(8)
N8 N 0.1171(14) 0.2633(12) 0.4698(8)
O1 O -0.1067(9) 0.3359(7) 1.2867(6)
O2 O -0.6367(8) 0.0207(6) 0.6725(5)
O3 O -0.2906(11) -0.0510(7) 1.1597(7)
O4 O -0.1569(12) 0.1260(7) 1.1411(7)
O5 O -0.3049(11) 0.1380(7) 1.2563(7)
O6 O -0.4663(11) 0.1613(8) 0.8597(8)
O7 O -0.6759(8) 0.1760(8) 1.0217(6)
O8 O -0.1927(8) 0.0015(7) 0.9562(6)
O9 O -0.2176(8) 0.2664(8) 1.0904(6)
O10 O -0.3662(9) 0.2761(9) 1.2062(6)
O11 O -0.4523(11) -0.0280(8) 0.7638(8)
O12 O -0.2371(8) 0.3548(7) 0.9579(6)
O13 O -0.5303(11) 0.3772(8) 1.1924(7)
O14 O -0.2076(9) -0.0223(7) 0.7660(6)
O15 O -0.2508(12) 0.1422(9) 0.9065(8)
O16 O -0.4317(8) 0.2865(9) 1.0422(6)
O17 O -0.6109(8) 0.1672(7) 1.1864(6)
O18 O -0.0736(9) -0.0442(8) 1.0969(8)
O19 O -0.4180(13) -0.0556(10) 0.9625(9)
O20 O -0.5651(13) -0.1225(10) 0.9460(9)
O21 O -0.3752(14) 0.0367(10) 1.0836(8)
O22 O -0.4412(12) 0.0468(10) 0.9279(8)
P1 P -0.5000 0.0000 1.0000
W1 W -0.23076(5) 0.22751(3) 1.19481(3)
W2 W -0.52323(4) 0.25583(3) 1.12899(3)
W3 W -0.32199(5) 0.24134(3) 0.97174(3)
W4 W -0.20704(5) -0.02792(4) 1.06535(3)
W5 W -0.59150(5) 0.01429(4) 0.77727(3)
W6 W -0.29884(5) -0.01411(4) 0.84225(3)
C1A C 0.0543(14) 0.3215(12) 1.0235(10)
H1A H 0.0219 0.2727 0.9573
C2A C 0.0985(14) 0.2945(11) 1.0958(11)
H2A H 0.1024 0.2275 1.0885
C3A C 0.1341(13) 0.3879(11) 1.1787(10)
H3A H 0.1675 0.3969 1.2410
C4A C 0.1578(12) 0.5844(9) 1.2219(9)
H4A H 0.1900 0.5969 1.2884
H5A H 0.2298 0.6272 1.2053
C5A C 0.0553(12) 0.6287(9) 1.2178(8)
C6A C 0.0927(13) 0.7387(9) 1.2340(8)
H6A H 0.1784 0.7815 1.2408
C7A C 0.0056(13) 0.7860(9) 1.2403(8)
H7A H 0.0336 0.8606 1.2522
C8A C -0.1226(12) 0.7249(9) 1.2293(8)
C9A C -0.1624(12) 0.6111(9) 1.2075(9)
H8A H -0.2497 0.5665 1.1949
C10A C -0.0744(12) 0.5651(9) 1.2046(9)
H9A H -0.1014 0.4908 1.1937
C11A C -0.2134(14) 0.7817(10) 1.2423(11)
H10A H -0.1974 0.8297 1.2095
H11A H -0.1937 0.8290 1.3112
C12A C -0.425(2) 0.6509(14) 1.1128(11)
H12A H -0.4006 0.6611 1.0603
C13A C -0.5402(19) 0.5789(14) 1.1075(10)
H13A H -0.6117 0.5303 1.0530
C14A C -0.5274(14) 0.5945(11) 1.2035(11)
H14A H -0.5932 0.5554 1.2232
C15A C 0.4537(15) 0.8179(11) 0.4118(9)
H15A H 0.4728 0.8361 0.3616
C16A C 0.3582(17) 0.8310(13) 0.4505(11)
H16A H 0.3026 0.8609 0.4343
C17A C 0.3602(16) 0.7915(12) 0.5179(10)
H17A H 0.3043 0.7879 0.5566
C18A C 0.5050(19) 0.7215(12) 0.5871(9)
H18A H 0.5933 0.7754 0.6249
H19A H 0.4531 0.7209 0.6320
C19A C 0.5041(15) 0.6070(11) 0.5388(9)
C20A C 0.4167(17) 0.5238(12) 0.4497(10)
H20A H 0.3595 0.5398 0.4149
C21A C 0.5867(17) 0.5809(11) 0.5876(9)
H21A H 0.6464 0.6352 0.6473
C22A C -0.218(2) -0.4204(14) 0.4088(11)
H22A H -0.2800 -0.4798 0.3523
C23A C -0.115(3) -0.424(2) 0.4573(17)
H23A H -0.0918 -0.4838 0.4407
C24A C -0.054(2) -0.325(2) 0.5341(15)
H24A H 0.0212 -0.3024 0.5823
C25A C -0.090(2) -0.1485(17) 0.5921(14)
H25A H -0.1685 -0.1452 0.6074
H26A H -0.0253 -0.1226 0.6528
C26A C -0.0414(18) -0.0708(14) 0.5457(11)
C27A C -0.1159(18) -0.0181(16) 0.5242(14)
H27A H -0.1938 -0.0295 0.5397
C28A C 0.0753(18) -0.0497(17) 0.5192(14)
H28A H 0.1269 -0.0842 0.5323
Cu1_2 Cu -1.0000 -0.5000 1.0000
Cu2A Cu -0.35479(19) 0.72070(15) 1.40993(13)
Cu2A_2 Cu 0.64521(19) 0.72070(15) 0.40993(13)
Cu2A_3 Cu -0.35479(19) -0.27930(15) 0.40993(13)
N1A N 0.0640(9) 0.4247(8) 1.0603(6)
N2A N 0.1141(9) 0.4661(8) 1.1576(6)
N3A N -0.4129(10) 0.6700(9) 1.2633(7)
N4A N -0.3485(11) 0.7060(8) 1.2055(7)
N5A N 0.5175(11) 0.7757(9) 0.4542(8)
N5A_2 N -0.4825(11) 0.7757(9) 1.4542(8)
N6A N 0.4557(13) 0.7586(9) 0.5196(7)
N7A N -0.2212(13) -0.3211(11) 0.4514(8)
N7A_2 N -0.2212(13) 0.6789(11) 1.4514(8)
N8A N -0.1171(14) -0.2633(12) 0.5302(8)
O1A O 0.1067(9) 0.6641(7) 0.7133(6)
O1A_2 O -0.8933(9) -0.3359(7) 0.7133(6)
O2A O 0.6367(8) 0.9793(6) 1.3275(5)
O2A_2 O -0.3633(8) -0.0207(6) 1.3275(5)
O3A O -0.7094(11) 0.0510(7) 0.8403(7)
O3_2 O 0.7094(11) 0.9490(7) 1.1597(7)
O4A O 0.1569(12) 0.8740(7) 0.8589(7)
O4A_2 O -0.8431(12) -0.1260(7) 0.8589(7)
O5A O -0.6951(11) -0.1380(7) 0.7437(7)
O5A_2 O 0.3049(11) 0.8620(7) 0.7437(7)
O5_2 O 0.6951(11) 1.1380(7) 1.2563(7)
O6A O 0.4663(11) 0.8387(8) 1.1403(8)
O6A_2 O -0.5337(11) -0.1613(8) 1.1403(8)
O7A O -0.3241(8) -0.1760(8) 0.9783(6)
O7A_2 O 0.6759(8) 0.8240(8) 0.9783(6)
O8A O -0.8073(8) -0.0015(7) 1.0438(6)
O8A_2 O 0.1927(8) 0.9985(7) 1.0438(6)
O9A O 0.2176(8) 0.7336(8) 0.9096(6)
O9A_2 O -0.7824(8) -0.2664(8) 0.9096(6)
O10A O 0.3662(9) 0.7239(9) 0.7938(6)
O10A_2 O -0.6338(9) -0.2761(9) 0.7938(6)
O11A O 0.4523(11) 1.0280(8) 1.2362(8)
O11A_2 O -0.5477(11) 0.0280(8) 1.2362(8)
O12A O 0.2371(8) 0.6452(7) 1.0421(6)
O12A_2 O -0.7629(8) -0.3548(7) 1.0421(6)
O13A O 0.5303(11) 0.6228(8) 0.8076(7)
O13A_2 O -0.4697(11) -0.3772(8) 0.8076(7)
O14A O 0.2076(9) 1.0223(7) 1.2340(6)
O14A_2 O -0.7924(9) 0.0223(7) 1.2340(6)
O15A O 0.2508(12) 0.8578(9) 1.0935(8)
O15A_2 O -0.7492(12) -0.1422(9) 1.0935(8)
O16A O 0.4317(8) 0.7135(9) 0.9578(6)
O16A_2 O -0.5683(8) -0.2865(9) 0.9578(6)
O17A O -0.3891(8) -0.1672(7) 0.8136(6)
O17A_2 O 0.6109(8) 0.8328(7) 0.8136(6)
O17_2 O 0.3891(8) 1.1672(7) 1.1864(6)
O18A O -0.9264(9) 0.0442(8) 0.9031(8)
O19A O -0.5820(13) 0.0556(10) 1.0375(9)
O19_2 O 0.5820(13) 0.9444(10) 0.9625(9)
O20A O -0.4349(13) 0.1225(10) 1.0540(9)
O20_2 O 0.4349(13) 0.8775(10) 0.9460(9)
O21A O -0.6248(14) -0.0367(10) 0.9164(8)
O21A_2 O 0.3752(14) 0.9633(10) 0.9164(8)
O22A O -0.5588(12) -0.0468(10) 1.0721(8)
O22A_2 O 0.4412(12) 0.9532(10) 1.0721(8)
W1A W 0.23076(5) 0.77249(3) 0.80519(3)
W1A_2 W -0.76924(5) -0.22751(3) 0.80519(3)
W2A W 0.52323(4) 0.74417(3) 0.87101(3)
W2A_2 W -0.47677(4) -0.25583(3) 0.87101(3)
W3A W 0.32199(5) 0.75866(3) 1.02826(3)
W3A_2 W -0.67801(5) -0.24134(3) 1.02826(3)
W4A W -0.79296(5) 0.02792(4) 0.93465(3)
W4A_2 W 0.20704(5) 1.02792(4) 0.93465(3)
W5A W 0.59150(5) 0.98571(4) 1.22273(3)
W5A_2 W -0.40850(5) -0.01429(4) 1.22273(3)
W6A W 0.29884(5) 1.01411(4) 1.15775(3)
W6A_2 W -0.70116(5) 0.01411(4) 1.15775(3)
loop_
_geom_bond_atom_site_label_1
_geom_bond_atom_site_label_2
_geom_bond_site_symmetry_1
_geom_bond_site_symmetry_2
C1 H1 1_555 1_555
C2 C1 1_555 1_555
H2 C2 1_555 1_555
C3 C2 1_555 1_555
H3 C3 1_555 1_555
C4 H4 1_555 1_555
H5 C4 1_555 1_555
C5 C4 1_555 1_555
C6 C5 1_555 1_555
H6 C6 1_555 1_555
C7 C6 1_555 1_555
H7 C7 1_555 1_555
C8 C7 1_555 1_555
C9 C8 1_555 1_555
H8 C9 1_555 1_555
C10 C5 1_555 1_555
H9 C10 1_555 1_555
C11 C8 1_555 1_555
H10 C11 1_555 1_555
H11 C11 1_555 1_555
C12 H12 1_555 1_555
C13 C12 1_555 1_555
H13 C13 1_555 1_555
C14 C13 1_555 1_555
H14 C14 1_555 1_555
C15 H15 1_555 1_555
C16 C15 1_555 1_555
H16 C16 1_555 1_555
C17 C16 1_555 1_555
H17 C17 1_555 1_555
C18 H18 1_555 1_555
H19 C18 1_555 1_555
C19 C18 1_555 1_555
C20 C19 1_555 1_555
H20 C20 1_555 1_555
C21 C19 1_555 1_555
H21 C21 1_555 1_555
C22 H22 1_555 1_555
C23 C22 1_555 1_555
H23 C23 1_555 1_555
C24 C23 1_555 1_555
H24 C24 1_555 1_555
C25 H25 1_555 1_555
H26 C25 1_555 1_555
C26 C25 1_555 1_555
C27 C26 1_555 1_555
H27 C27 1_555 1_555
C28 C26 1_555 1_555
H28 C28 1_555 1_555
Cu1 N1 1_555 1_555
Cu2 N3 1_555 1_555
N1 C1 1_555 1_555
N2 C3 1_555 1_555
N3 C14 1_555 1_555
N4 C11 1_555 1_555
N5 C15 1_555 1_555
N6 C17 1_555 1_555
N7 C22 1_555 1_555
N8 C24 1_555 1_555
O1 W1 1_555 1_555
O2 W5 1_555 1_555
O3 W4 1_555 1_555
O4 W1 1_555 1_555
O5 W1 1_555 1_555
O6 W3 1_555 1_555
O7 W2 1_555 1_555
O8 W4 1_555 1_555
O9 W1 1_555 1_555
O10 W1 1_555 1_555
O11 W5 1_555 1_555
O12 Cu1 1_555 1_555
O13 W2 1_555 1_555
O14 W6 1_555 1_555
O15 W3 1_555 1_555
O16 W2 1_555 1_555
O17 W2 1_555 1_555
O18 W4 1_555 1_555
O19 O20 1_555 1_555
O20 P1 1_555 1_555
O21 O19 1_555 1_555
O22 O19 1_555 1_555
P1 O19 1_555 1_555
W1 O21 1_555 1_555
W2 O10 1_555 1_555
W3 O9 1_555 1_555
W4 O4 1_555 1_555
W5 O6 1_555 1_555
W6 O8 1_555 1_555
C1A H1A 1_555 1_555
C2A C1A 1_555 1_555
H2A C2A 1_555 1_555
C3A C2A 1_555 1_555
H3A C3A 1_555 1_555
C4A H4A 1_555 1_555
H5A C4A 1_555 1_555
C5A C4A 1_555 1_555
C6A C5A 1_555 1_555
H6A C6A 1_555 1_555
C7A C6A 1_555 1_555
H7A C7A 1_555 1_555
C8A C7A 1_555 1_555
C9A C8A 1_555 1_555
H8A C9A 1_555 1_555
C10A C5A 1_555 1_555
H9A C10A 1_555 1_555
C11A C8A 1_555 1_555
H10A C11A 1_555 1_555
H11A C11A 1_555 1_555
C12A H12A 1_555 1_555
C13A C12A 1_555 1_555
H13A C13A 1_555 1_555
C14A C13A 1_555 1_555
H14A C14A 1_555 1_555
C15A H15A 1_555 1_555
C16A C15A 1_555 1_555
H16A C16A 1_555 1_555
C17A C16A 1_555 1_555
H17A C17A 1_555 1_555
C18A H18A 1_555 1_555
H19A C18A 1_555 1_555
C19A C18A 1_555 1_555
C20A C21 1_555 1_555
H20A C20A 1_555 1_555
C21A C20 1_555 1_555
H21A C21A 1_555 1_555
C22A H22A 1_555 1_555
C23A C22A 1_555 1_555
H23A C23A 1_555 1_555
C24A C23A 1_555 1_555
H24A C24A 1_555 1_555
C25A H25A 1_555 1_555
H26A C25A 1_555 1_555
C26A C25A 1_555 1_555
C27A C28 1_555 1_555
H27A C27A 1_555 1_555
C28A C27 1_555 1_555
H28A C28A 1_555 1_555
Cu1_2 O12A_2 1_555 1_555
Cu2A N3A 1_555 1_555
Cu2A_2 N5A 1_555 1_555
Cu2A_3 N7A 1_555 1_555
N1A Cu1 1_555 1_555
N2A C3A 1_555 1_555
N3A C14A 1_555 1_555
N4A C11A 1_555 1_555
N5A C15A 1_555 1_555
N5A_2 Cu2A 1_555 1_555
N6A C17A 1_555 1_555
N7A C22A 1_555 1_555
N7A_2 Cu2A 1_555 1_555
N8A C24A 1_555 1_555
O1A W1A 1_555 1_555
O1A_2 W1A_2 1_555 1_555
O2A W5A 1_555 1_555
O2A_2 W5A_2 1_555 1_555
O3A W5 1_555 1_555
O3_2 W5A 1_555 1_555
O4A W1A 1_555 1_555
O4A_2 W1A_2 1_555 1_555
O5A W5 1_555 1_555
O5A_2 W1A 1_555 1_555
O5_2 W5A 1_555 1_555
O6A W3A 1_555 1_555
O6A_2 W3A_2 1_555 1_555
O7A W4 1_555 1_555
O7A_2 W2A 1_555 1_555
O8A W4A 1_555 1_555
O8A_2 W4A_2 1_555 1_555
O9A W1A 1_555 1_555
O9A_2 W1A_2 1_555 1_555
O10A W1A 1_555 1_555
O10A_2 W1A_2 1_555 1_555
O11A W5A 1_555 1_555
O11A_2 W5A_2 1_555 1_555
O12A Cu1 1_555 1_555
O12A_2 W3A_2 1_555 1_555
O13A W2A 1_555 1_555
O13A_2 W2A_2 1_555 1_555
O14A W6A 1_555 1_555
O14A_2 W6A_2 1_555 1_555
O15A W3A 1_555 1_555
O15A_2 W3A_2 1_555 1_555
O16A W2A 1_555 1_555
O16A_2 W2A_2 1_555 1_555
O17A W6 1_555 1_555
O17A_2 W2A 1_555 1_555
O17_2 W6A 1_555 1_555
O18A W4A 1_555 1_555
O19A P1 1_555 1_555
O19_2 O20_2 1_555 1_555
O20A O21 1_555 1_555
O20_2 O21A_2 1_555 1_555
O21A O20 1_555 1_555
O21A_2 W1A 1_555 1_555
O22A O20 1_555 1_555
O22A_2 O20_2 1_555 1_555
W1A_2 O5A 1_555 1_555
W2A O10A 1_555 1_555
W2A_2 O19 1_555 1_555
W3A O9A 1_555 1_555
W3A_2 O9A_2 1_555 1_555
W4A O7 1_555 1_555
W4A_2 O4A 1_555 1_555
W5A O6A 1_555 1_555
W5A_2 O3 1_555 1_555
W6A O8A_2 1_555 1_555
W6A_2 O17 1_555 1_555
C4 N2 1_555 1_555
C9 C10 1_555 1_555
C12 N4 1_555 1_555
C18 N6 1_555 1_555
C25 N8 1_555 1_555
Cu2 N5 1_555 1_555
Cu2 N7 1_555 1_555
N1 N2 1_555 1_555
N3 N4 1_555 1_555
N5 N6 1_555 1_555
N7 N8 1_555 1_555
O5 W5A_2 1_555 1_555
O11 W6 1_555 1_555
O12 W3 1_555 1_555
O15 W6 1_555 1_555
O16 W3 1_555 1_555
O20 W2A_2 1_555 1_555
O21 P1 1_555 1_555
O21 W4 1_555 1_555
O21 O22A 1_555 1_555
O22 P1 1_555 1_555
O22 W3 1_555 1_555
O22 W5 1_555 1_555
O22 W6 1_555 1_555
O22 O20A 1_555 1_555
O22 O21A 1_555 1_555
P1 O20A 1_555 1_555
P1 O21A 1_555 1_555
P1 O22A 1_555 1_555
W2 O19A 1_555 1_555
W2 O20A 1_555 1_555
C1A N1A 1_555 1_555
C4A N2A 1_555 1_555
C9A C10A 1_555 1_555
C12A N4A 1_555 1_555
C18A N6A 1_555 1_555
C19A C20A 1_555 1_555
C19A C21A 1_555 1_555
C25A N8A 1_555 1_555
C26A C27A 1_555 1_555
C26A C28A 1_555 1_555
N1A N2A 1_555 1_555
N3A N4A 1_555 1_555
N5A N6A 1_555 1_555
N7A N8A 1_555 1_555
O3A W4A 1_555 1_555
O4A_2 W4A 1_555 1_555
O6A_2 W5A_2 1_555 1_555
O7A W2A_2 1_555 1_555
O8A W6A_2 1_555 1_555
O10A_2 W2A_2 1_555 1_555
O11A W6A 1_555 1_555
O11A_2 W6A_2 1_555 1_555
O12A W3A 1_555 1_555
O15A W6A 1_555 1_555
O15A_2 W6A_2 1_555 1_555
O16A W3A 1_555 1_555
O16A_2 W3A_2 1_555 1_555
O17A W2A_2 1_555 1_555
O19A O20A 1_555 1_555
O19A O21A 1_555 1_555
O19A O22A 1_555 1_555
O19_2 W2A 1_555 1_555
O20_2 W2A 1_555 1_555
O21A W1A_2 1_555 1_555
O21A W4A 1_555 1_555
O21A_2 W4A_2 1_555 1_555
O22A W3A_2 1_555 1_555
O22A W5A_2 1_555 1_555
O22A W6A_2 1_555 1_555
O22A_2 W3A 1_555 1_555
O22A_2 W5A 1_555 1_555
O22A_2 W6A 1_555 1_555

#END
