
#######################################################################
#
#                 Cambridge Crystallographic Data Centre
#                                CCDC 
#
#######################################################################
#
# If this CIF has been generated from an entry in the Cambridge 
# Structural Database, then it will include bibliographic, chemical, 
# crystal, experimental, refinement or atomic coordinate data resulting 
# from the CCDC's data processing and validation procedures.
#
#######################################################################

data_RUXVEM
_symmetry_cell_setting           triclinic
_symmetry_space_group_name_H-M   'P -1'
_symmetry_Int_Tables_number      2
_space_group_name_Hall           '-P 1'
loop_
_symmetry_equiv_pos_site_id
_symmetry_equiv_pos_as_xyz
1 x,y,z
2 -x,-y,-z
_cell_length_a                   11.073(4)
_cell_length_b                   13.660(4)
_cell_length_c                   15.848(4)
_cell_angle_alpha                114.410(9)
_cell_angle_beta                 90.010(12)
_cell_angle_gamma                106.630(13)
_cell_volume                     2072.18
loop_
_atom_site_label
_atom_site_type_symbol
_atom_site_fract_x
_atom_site_fract_y
_atom_site_fract_z
Cu1 Cu 0.4868(9) -0.0271(7) -0.0371(6)
C1 C 0.536(4) -0.020(3) 0.177(2)
H1 H 0.6018 0.0480 0.2053
C2 C 0.488(4) -0.080(3) 0.225(3)
H2 H 0.5067 -0.0643 0.2875
C3 C 0.405(4) -0.170(3) 0.1566(18)
H3 H 0.3576 -0.2332 0.1653
C4 C 0.312(3) -0.236(3) -0.0072(19)
H4 H 0.3567 -0.2318 -0.0588
H5 H 0.2912 -0.3131 -0.0143
C5 C 0.189(2) -0.2103(19) -0.0148(14)
C6 C 0.163(3) -0.118(2) 0.0574(16)
H6 H 0.2225 -0.0705 0.1101
C7 C 0.049(2) -0.098(2) 0.0500(15)
H7 H 0.0333 -0.0354 0.0960
C8 C -0.0436(19) -0.1738(18) -0.0274(14)
C9 C -0.018(2) -0.260(2) -0.0962(18)
H8 H -0.0804 -0.3095 -0.1471
C10 C 0.096(3) -0.277(2) -0.0935(17)
H9 H 0.1138 -0.3335 -0.1449
C11 C -0.171(2) -0.1525(18) -0.0294(17)
H10 H -0.1902 -0.1495 -0.0878
H11 H -0.1652 -0.0797 0.0212
C12 C -0.374(2) -0.3191(19) -0.0820(14)
H12 H -0.3897 -0.3321 -0.1440
C13 C -0.448(3) -0.376(2) -0.0399(17)
H13 H -0.5254 -0.4340 -0.0659
C14 C -0.386(2) -0.331(2) 0.0509(15)
H14 H -0.4157 -0.3565 0.0957
C15 C -0.122(2) 0.0936(18) 0.224(2)
H15 H -0.0995 0.0895 0.1666
C16 C -0.131(2) 0.194(2) 0.3024(18)
H16 H -0.1115 0.2668 0.3070
C17 C -0.174(2) 0.157(2) 0.3669(16)
H17 H -0.1916 0.2010 0.4254
C18 C -0.219(2) -0.021(2) 0.3843(17)
H18 H -0.2824 0.0004 0.4242
H19 H -0.2564 -0.0997 0.3397
C19 C -0.1034(18) -0.0105(15) 0.4447(13)
C20 C 0.002(2) 0.0848(19) 0.4775(16)
H20 H 0.0021 0.1444 0.4632
C21 C -0.105(2) -0.0947(19) 0.4703(19)
H21 H -0.1770 -0.1582 0.4520
C22 C 0.092(3) -0.099(2) 0.2884(19)
H22 H 0.1069 -0.0240 0.2989
C23 C 0.170(3) -0.136(2) 0.3283(17)
H23 H 0.2463 -0.0937 0.3682
C24 C 0.110(3) -0.246(2) 0.296(2)
H24 H 0.1371 -0.2961 0.3105
C25 C -0.081(2) -0.3839(17) 0.1795(16)
H25 H -0.0930 -0.4321 0.2118
H26 H -0.1631 -0.3756 0.1683
C26 C -0.037(2) -0.4419(16) 0.0856(14)
C27 C 0.075(3) -0.467(2) 0.083(2)
H27 H 0.1287 -0.4421 0.1381
C28 C -0.107(3) -0.469(2) 0.0035(19)
H28 H -0.1778 -0.4449 0.0053
Cu2 Cu -0.1439(3) -0.1567(3) 0.17235(19)
N1 N 0.486(3) -0.060(2) 0.087(2)
N2 N 0.394(2) -0.1648(17) 0.0756(17)
N3 N -0.2783(18) -0.2461(14) 0.0651(12)
N4 N -0.2731(16) -0.2399(14) -0.0202(11)
N5 N -0.1499(17) 0.0090(14) 0.2487(12)
N6 N -0.1879(17) 0.0489(15) 0.3336(12)
N7 N -0.0063(18) -0.1830(14) 0.2341(12)
N8 N 0.006(2) -0.2746(14) 0.2389(13)
Cu1A Cu 0.5132(9) 0.0271(7) 0.0371(6)
C1A C 0.464(4) 0.020(3) -0.177(2)
H1A H 0.3982 -0.0480 -0.2053
C2A C 0.512(4) 0.080(3) -0.225(3)
H2A H 0.4933 0.0643 -0.2875
C3A C 0.595(4) 0.170(3) -0.1566(18)
H3A H 0.6424 0.2332 -0.1653
C4A C 0.688(3) 0.236(3) 0.0072(19)
H4A H 0.6433 0.2318 0.0588
H5A H 0.7088 0.3131 0.0143
C5A C 0.811(2) 0.2103(19) 0.0148(14)
C6A C 0.837(3) 0.118(2) -0.0574(16)
H6A H 0.7775 0.0705 -0.1101
C7A C 0.951(2) 0.098(2) -0.0500(15)
H7A H 0.9667 0.0354 -0.0960
C8A C 1.0436(19) 0.1738(18) 0.0274(14)
C9A C 1.018(2) 0.260(2) 0.0962(18)
H8A H 1.0804 0.3095 0.1471
C10A C 0.904(3) 0.277(2) 0.0935(17)
H9A H 0.8862 0.3335 0.1449
C11A C 1.171(2) 0.1525(18) 0.0294(17)
H10A H 1.1902 0.1495 0.0878
H11A H 1.1652 0.0797 -0.0212
C12A C 1.374(2) 0.3191(19) 0.0820(14)
H12A H 1.3897 0.3321 0.1440
C13A C 1.448(3) 0.376(2) 0.0399(17)
H13A H 1.5254 0.4340 0.0659
C14A C 1.386(2) 0.331(2) -0.0509(15)
H14A H 1.4157 0.3565 -0.0957
C15A C 0.122(2) -0.0936(18) 0.776(2)
H15A H 0.0995 -0.0895 0.8334
C16A C 0.131(2) -0.194(2) 0.6976(18)
H16A H 0.1115 -0.2668 0.6930
C17A C 0.174(2) -0.157(2) 0.6331(16)
H17A H 0.1916 -0.2010 0.5746
C18A C 0.219(2) 0.021(2) 0.6157(17)
H18A H 0.2824 -0.0004 0.5758
H19A H 0.2564 0.0997 0.6603
C19A C 0.1034(18) 0.0105(15) 0.5553(13)
C20A C -0.002(2) -0.0848(19) 0.5225(16)
H20A H -0.0021 -0.1444 0.5368
C21A C 0.105(2) 0.0947(19) 0.5297(19)
H21A H 0.1770 0.1582 0.5480
C22A C -0.092(3) -0.901(2) -0.2884(19)
H22A H -0.1069 -0.9760 -0.2989
C23A C -0.170(3) -0.864(2) -0.3283(17)
H23A H -0.2463 -0.9063 -0.3682
C24A C -0.110(3) -0.754(2) -0.296(2)
H24A H -0.1371 -0.7039 -0.3105
C25A C 0.081(2) -0.6161(17) -0.1795(16)
H25A H 0.0930 -0.5679 -0.2118
H26A H 0.1631 -0.6244 -0.1683
C26A C 0.037(2) -0.5581(16) -0.0856(14)
C27A C -0.075(3) -0.533(2) -0.083(2)
H27A H -0.1287 -0.5579 -0.1381
C28A C 0.107(3) -0.531(2) -0.0035(19)
H28A H 0.1778 -0.5551 -0.0053
Cu2A Cu 1.1439(3) 0.1567(3) -0.17235(19)
Cu2A_2 Cu 0.1439(3) 0.1567(3) 0.82765(19)
Cu2A_3 Cu 0.1439(3) -0.8433(3) -0.17235(19)
N1A N 0.514(3) 0.060(2) -0.087(2)
N2A N 0.606(2) 0.1648(17) -0.0756(17)
N3A N 1.2783(18) 0.2461(14) -0.0651(12)
N4A N 1.2731(16) 0.2399(14) 0.0202(11)
N5A N 0.1499(17) -0.0090(14) 0.7513(12)
N5A_2 N 1.1499(17) -0.0090(14) -0.2487(12)
N6A N 0.1879(17) -0.0489(15) 0.6664(12)
N7A N 0.0063(18) -0.8170(14) -0.2341(12)
N7A_2 N 1.0063(18) 0.1830(14) -0.2341(12)
N8A N -0.006(2) -0.7254(14) -0.2389(13)
O1 O 0.4809(15) 0.8970(13) 0.5414(12)
O2 O 0.8276(17) 0.8681(14) 0.7531(11)
O3 O 0.5746(18) 0.737(2) 0.7314(14)
O4 O 0.4113(18) 0.5419(16) 0.2973(13)
O5 O 0.6420(15) 0.8102(18) 0.6017(13)
O6 O 0.2497(17) 0.3611(14) 0.3004(12)
O7 O 0.585(2) 0.4401(16) 0.2649(15)
O8 O 0.1734(18) 0.4883(14) 0.4523(11)
O9 O 0.4054(15) 0.7513(17) 0.6275(12)
O10 O 0.3331(18) 0.6714(16) 0.4475(12)
O11 O 0.8183(18) 0.7095(13) 0.5699(12)
O12 O 0.3523(14) 0.7597(13) 0.8018(10)
O13 O 0.6300(15) 0.6364(13) 0.2408(9)
O14 O 0.0199(16) 0.3829(15) 0.5506(13)
O15 O 0.241(2) 0.5738(17) 0.6312(15)
O16 O 0.5748(18) 0.7239(16) 0.4226(12)
O17 O 0.751(2) 0.6282(17) 0.3875(15)
O18 O 0.151(2) 0.5232(16) 0.2905(11)
O19 O 0.463(2) 0.5683(18) 0.4496(15)
O20 O 0.368(2) 0.445(2) 0.4499(16)
O21 O 0.526(2) 0.6208(18) 0.5683(14)
O22 O 0.406(3) 0.503(2) 0.5723(19)
P1 P 0.5000 0.5000 0.5000
W1 W 0.48873(9) 0.77044(6) 0.52765(6)
W2 W 0.58779(9) 0.59277(7) 0.32310(6)
W3 W 0.39700(9) 0.67451(7) 0.70296(5)
W4 W 0.26318(7) 0.51788(7) 0.36005(5)
W5 W 0.72204(7) 0.75125(6) 0.66952(5)
W6 W 0.17382(8) 0.42241(7) 0.53551(6)
O1A O 0.5191(15) 0.1030(13) 0.4586(12)
O2A O 0.1724(17) 0.1319(14) 0.2469(11)
O3A O 0.4254(18) 0.263(2) 0.2686(14)
O4A O 0.5887(18) 0.4581(16) 0.7027(13)
O5A O 0.3580(15) 0.1898(18) 0.3983(13)
O6A O 0.7503(17) 0.6389(14) 0.6996(12)
O7A O 0.415(2) 0.5599(16) 0.7351(15)
O8A O 0.8266(18) 0.5117(14) 0.5477(11)
O9A O 0.5946(15) 0.2487(17) 0.3725(12)
O10A O 0.6669(18) 0.3286(16) 0.5525(12)
O11A O 0.1817(18) 0.2905(13) 0.4301(12)
O12A O 0.6477(14) 0.2403(13) 0.1982(10)
O13A O 0.3700(15) 0.3636(13) 0.7592(9)
O14A O 0.9801(16) 0.6171(15) 0.4494(13)
O15A O 0.759(2) 0.4262(17) 0.3688(15)
O16A O 0.4252(18) 0.2761(16) 0.5774(12)
O17A O 0.249(2) 0.3718(17) 0.6125(15)
O18A O 0.849(2) 0.4768(16) 0.7095(11)
O19A O 0.537(2) 0.4317(18) 0.5504(15)
O20A O 0.632(2) 0.555(2) 0.5501(16)
O21A O 0.474(2) 0.3792(18) 0.4317(14)
O22A O 0.594(3) 0.497(2) 0.4277(19)
W1A W 0.51127(9) 0.22956(6) 0.47235(6)
W2A W 0.41221(9) 0.40723(7) 0.67690(6)
W3A W 0.60300(9) 0.32549(7) 0.29704(5)
W4A W 0.73682(7) 0.48212(7) 0.63995(5)
W5A W 0.27796(7) 0.24875(6) 0.33048(5)
W6A W 0.82618(8) 0.57759(7) 0.46449(6)
loop_
_geom_bond_atom_site_label_1
_geom_bond_atom_site_label_2
_geom_bond_site_symmetry_1
_geom_bond_site_symmetry_2
Cu1 N1 1_555 1_555
C1 H1 1_555 1_555
C2 C1 1_555 1_555
H2 C2 1_555 1_555
C3 C2 1_555 1_555
H3 C3 1_555 1_555
C4 H4 1_555 1_555
H5 C4 1_555 1_555
C5 C4 1_555 1_555
C6 C5 1_555 1_555
H6 C6 1_555 1_555
C7 C6 1_555 1_555
H7 C7 1_555 1_555
C8 C7 1_555 1_555
C9 C8 1_555 1_555
H8 C9 1_555 1_555
C10 C5 1_555 1_555
H9 C10 1_555 1_555
C11 C8 1_555 1_555
H10 C11 1_555 1_555
H11 C11 1_555 1_555
C12 H12 1_555 1_555
C13 C12 1_555 1_555
H13 C13 1_555 1_555
C14 C13 1_555 1_555
H14 C14 1_555 1_555
C15 H15 1_555 1_555
C16 C15 1_555 1_555
H16 C16 1_555 1_555
C17 C16 1_555 1_555
H17 C17 1_555 1_555
C18 H18 1_555 1_555
H19 C18 1_555 1_555
C19 C18 1_555 1_555
C20 C19 1_555 1_555
H20 C20 1_555 1_555
C21 C19 1_555 1_555
H21 C21 1_555 1_555
C22 H22 1_555 1_555
C23 C22 1_555 1_555
H23 C23 1_555 1_555
C24 C23 1_555 1_555
H24 C24 1_555 1_555
C25 H25 1_555 1_555
H26 C25 1_555 1_555
C26 C25 1_555 1_555
C27 C26 1_555 1_555
H27 C27 1_555 1_555
C28 C26 1_555 1_555
H28 C28 1_555 1_555
Cu2 N3 1_555 1_555
N1 C1 1_555 1_555
N2 C3 1_555 1_555
N3 C14 1_555 1_555
N4 C11 1_555 1_555
N5 C15 1_555 1_555
N6 C17 1_555 1_555
N7 C22 1_555 1_555
N8 C24 1_555 1_555
O1 W1 1_555 1_555
O2 W5 1_555 1_555
O3 W3 1_555 1_555
O4 W2 1_555 1_555
O5 W1 1_555 1_555
O6 W4 1_555 1_555
O7 W2 1_555 1_555
O8 W4 1_555 1_555
O9 W1 1_555 1_555
O10 W1 1_555 1_555
O11 W5 1_555 1_555
O12 W3 1_555 1_555
O13 W2 1_555 1_555
O14 W6 1_555 1_555
O15 W3 1_555 1_555
O16 W1 1_555 1_555
O17 W2 1_555 1_555
O18 W4 1_555 1_555
O19 O20 1_555 1_555
O20 O22 1_555 1_555
O21 O19 1_555 1_555
O22 O21 1_555 1_555
P1 O19 1_555 1_555
W1 O19 1_555 1_555
W2 O16 1_555 1_555
W3 O9 1_555 1_555
W4 O4 1_555 1_555
W5 O3 1_555 1_555
W6 O8 1_555 1_555
Cu1A Cu1 1_555 1_555
C1A H1A 1_555 1_555
C2A C1A 1_555 1_555
H2A C2A 1_555 1_555
C3A C2A 1_555 1_555
H3A C3A 1_555 1_555
C4A H4A 1_555 1_555
H5A C4A 1_555 1_555
C5A C4A 1_555 1_555
C6A C5A 1_555 1_555
H6A C6A 1_555 1_555
C7A C6A 1_555 1_555
H7A C7A 1_555 1_555
C8A C7A 1_555 1_555
C9A C8A 1_555 1_555
H8A C9A 1_555 1_555
C10A C5A 1_555 1_555
H9A C10A 1_555 1_555
C11A C8A 1_555 1_555
H10A C11A 1_555 1_555
H11A C11A 1_555 1_555
C12A H12A 1_555 1_555
C13A C12A 1_555 1_555
H13A C13A 1_555 1_555
C14A C13A 1_555 1_555
H14A C14A 1_555 1_555
C15A H15A 1_555 1_555
C16A C15A 1_555 1_555
H16A C16A 1_555 1_555
C17A C16A 1_555 1_555
H17A C17A 1_555 1_555
C18A H18A 1_555 1_555
H19A C18A 1_555 1_555
C19A C18A 1_555 1_555
C20A C21 1_555 1_555
H20A C20A 1_555 1_555
C21A C20 1_555 1_555
H21A C21A 1_555 1_555
C22A H22A 1_555 1_555
C23A C22A 1_555 1_555
H23A C23A 1_555 1_555
C24A C23A 1_555 1_555
H24A C24A 1_555 1_555
C25A H25A 1_555 1_555
H26A C25A 1_555 1_555
C26A C25A 1_555 1_555
C27A C28 1_555 1_555
H27A C27A 1_555 1_555
C28A C27 1_555 1_555
H28A C28A 1_555 1_555
Cu2A N3A 1_555 1_555
Cu2A_2 N5A 1_555 1_555
Cu2A_3 N7A 1_555 1_555
N1A Cu1 1_555 1_555
N2A C3A 1_555 1_555
N3A C14A 1_555 1_555
N4A C11A 1_555 1_555
N5A C15A 1_555 1_555
N5A_2 Cu2A 1_555 1_555
N6A C17A 1_555 1_555
N7A C22A 1_555 1_555
N7A_2 Cu2A 1_555 1_555
N8A C24A 1_555 1_555
O1A W1A 1_555 1_555
O2A W5A 1_555 1_555
O3A W3A 1_555 1_555
O4A W2A 1_555 1_555
O5A W1A 1_555 1_555
O6A W5 1_555 1_555
O7A W3 1_555 1_555
O8A W4A 1_555 1_555
O9A W1A 1_555 1_555
O10A W1A 1_555 1_555
O11A W6 1_555 1_555
O12A W3A 1_555 1_555
O13A W2A 1_555 1_555
O14A W6A 1_555 1_555
O15A W3A 1_555 1_555
O16A W1A 1_555 1_555
O17A W6 1_555 1_555
O18A W4A 1_555 1_555
O19A P1 1_555 1_555
O20A O21 1_555 1_555
O21A O20 1_555 1_555
O22A P1 1_555 1_555
W1A O19A 1_555 1_555
W2A O22 1_555 1_555
W3A O7 1_555 1_555
W4A O4A 1_555 1_555
W5A O6 1_555 1_555
W6A O11 1_555 1_555
C4 N2 1_555 1_555
C9 C10 1_555 1_555
C12 N4 1_555 1_555
C18 N6 1_555 1_555
C25 N8 1_555 1_555
Cu2 N5 1_555 1_555
Cu2 N7 1_555 1_555
N1 N2 1_555 1_555
N1 Cu1A 1_555 1_555
N3 N4 1_555 1_555
N5 N6 1_555 1_555
N7 N8 1_555 1_555
O5 W5 1_555 1_555
O10 W4 1_555 1_555
O15 W6 1_555 1_555
O17 W6A 1_555 1_555
O19 W2 1_555 1_555
O19 W4 1_555 1_555
O20 P1 1_555 1_555
O20 W4 1_555 1_555
O20 W6 1_555 1_555
O20 W5A 1_555 1_555
O21 P1 1_555 1_555
O21 W1 1_555 1_555
O21 W3 1_555 1_555
O21 W5 1_555 1_555
O22 P1 1_555 1_555
O22 W3 1_555 1_555
O22 W6 1_555 1_555
P1 O20A 1_555 1_555
P1 O21A 1_555 1_555
W2 O22A 1_555 1_555
W5 O20A 1_555 1_555
Cu1A N1A 1_555 1_555
C1A N1A 1_555 1_555
C4A N2A 1_555 1_555
C9A C10A 1_555 1_555
C12A N4A 1_555 1_555
C18A N6A 1_555 1_555
C19A C20A 1_555 1_555
C19A C21A 1_555 1_555
C25A N8A 1_555 1_555
C26A C27A 1_555 1_555
C26A C28A 1_555 1_555
N1A N2A 1_555 1_555
N3A N4A 1_555 1_555
N5A N6A 1_555 1_555
N7A N8A 1_555 1_555
O3A W5A 1_555 1_555
O5A W5A 1_555 1_555
O6A W4A 1_555 1_555
O7A W2A 1_555 1_555
O8A W6A 1_555 1_555
O9A W3A 1_555 1_555
O10A W4A 1_555 1_555
O11A W5A 1_555 1_555
O15A W6A 1_555 1_555
O16A W2A 1_555 1_555
O17A W2A 1_555 1_555
O19A O20A 1_555 1_555
O19A O21A 1_555 1_555
O19A W2A 1_555 1_555
O19A W4A 1_555 1_555
O20A O22A 1_555 1_555
O20A W4A 1_555 1_555
O20A W6A 1_555 1_555
O21A O22A 1_555 1_555
O21A W1A 1_555 1_555
O21A W3A 1_555 1_555
O21A W5A 1_555 1_555
O22A W3A 1_555 1_555
O22A W6A 1_555 1_555

#END
