
#######################################################################
#
#                 Cambridge Crystallographic Data Centre
#                                CCDC 
#
#######################################################################
#
# If this CIF has been generated from an entry in the Cambridge 
# Structural Database, then it will include bibliographic, chemical, 
# crystal, experimental, refinement or atomic coordinate data resulting 
# from the CCDC's data processing and validation procedures.
#
#######################################################################

data_RUXWEM01
_symmetry_cell_setting           monoclinic
_symmetry_space_group_name_H-M   'C 2/c'
_symmetry_Int_Tables_number      15
_space_group_name_Hall           '-C 2yn'
loop_
_symmetry_equiv_pos_site_id
_symmetry_equiv_pos_as_xyz
1 x,y,z
2 -x,y,1/2-z
3 1/2+x,1/2+y,z
4 1/2-x,1/2+y,1/2-z
5 -x,-y,-z
6 x,-y,1/2+z
7 1/2-x,1/2-y,-z
8 1/2+x,1/2-y,1/2+z
_cell_length_a                   14.821(3)
_cell_length_b                   6.3870(13)
_cell_length_c                   25.564(5)
_cell_angle_alpha                90
_cell_angle_beta                 92.17(3)
_cell_angle_gamma                90
_cell_volume                     2418.2
loop_
_atom_site_label
_atom_site_type_symbol
_atom_site_fract_x
_atom_site_fract_y
_atom_site_fract_z
Cd1 Cd 0.374122(14) 0.18815(3) 0.507149(7)
O1 O 0.25369(14) 0.2173(3) 0.44160(7)
O2 O 0.31773(16) -0.0895(3) 0.45623(8)
O3 O -0.00290(15) -0.3316(3) 0.04210(7)
O4 O -0.05191(17) -0.6200(4) 0.08056(8)
O5 O 0.39081(17) 0.5379(3) 0.49797(9)
H1 H 0.4144 0.5633 0.4689
H2 H 0.3394 0.5963 0.4986
C1 C 0.2661(2) 0.0264(5) 0.42892(10)
C2 C 0.2219(2) -0.0558(4) 0.37931(10)
C3 C 0.1717(2) 0.0774(5) 0.34693(11)
H3 H 0.1611 0.2143 0.3575
C4 C 0.1370(2) 0.0082(5) 0.29889(11)
H4 H 0.1032 0.0997 0.2777
C5 C 0.15157(19) -0.1951(4) 0.28165(10)
C6 C 0.1998(2) -0.3299(5) 0.31522(11)
H5 H 0.2091 -0.4678 0.3051
C7 C 0.2342(2) -0.2619(5) 0.36355(12)
H6 H 0.2658 -0.3547 0.3855
C8 C 0.1152(2) -0.2641(4) 0.22925(10)
C9 C 0.1005(2) -0.1210(5) 0.18875(11)
H7 H 0.1160 0.0186 0.1942
C10 C 0.0630(2) -0.1817(5) 0.14039(11)
H8 H 0.0555 -0.0840 0.1136
C11 C 0.0371(2) -0.3874(4) 0.13219(10)
C12 C 0.0531(2) -0.5322(5) 0.17189(11)
H9 H 0.0369 -0.6714 0.1666
C13 C 0.0930(2) -0.4718(5) 0.21928(11)
H10 H 0.1052 -0.5721 0.2449
C14 C -0.0084(2) -0.4512(5) 0.08141(10)
Cd1F Cd 0.125878(14) 0.31185(3) 0.492851(7)
Cd1C Cd 0.125878(14) -0.31185(3) -0.007149(7)
Cd1G Cd -0.125878(14) -0.68815(3) 0.007149(7)
O1F O 0.24631(14) 0.2827(3) 0.55840(7)
O3C O 0.50290(15) 0.1684(3) 0.45790(7)
O4G O 0.44809(17) 0.1200(4) 0.58056(8)
loop_
_geom_bond_atom_site_label_1
_geom_bond_atom_site_label_2
_geom_bond_site_symmetry_1
_geom_bond_site_symmetry_2
Cd1 O1 1_555 1_555
O1 C1 1_555 1_555
O2 Cd1 1_555 1_555
O3 C14 1_555 1_555
O4 C14 1_555 1_555
O5 Cd1 1_555 1_555
H1 O5 1_555 1_555
H2 O5 1_555 1_555
C1 O2 1_555 1_555
C2 C1 1_555 1_555
C3 C2 1_555 1_555
H3 C3 1_555 1_555
C4 C3 1_555 1_555
H4 C4 1_555 1_555
C5 C4 1_555 1_555
C6 C5 1_555 1_555
H5 C6 1_555 1_555
C7 C2 1_555 1_555
H6 C7 1_555 1_555
C8 C5 1_555 1_555
C9 C8 1_555 1_555
H7 C9 1_555 1_555
C10 C9 1_555 1_555
H8 C10 1_555 1_555
C11 C10 1_555 1_555
C12 C11 1_555 1_555
H9 C12 1_555 1_555
C13 C8 1_555 1_555
H10 C13 1_555 1_555
C14 C11 1_555 1_555
Cd1F O1 1_555 1_555
Cd1C O3 1_555 1_555
Cd1G O4 1_555 1_555
O1F Cd1 1_555 1_555
O3C Cd1 1_555 1_555
O4G Cd1 1_555 1_555
C6 C7 1_555 1_555
C12 C13 1_555 1_555
Cd1F O1F 1_555 1_555

#END
