
#######################################################################
#
#                 Cambridge Crystallographic Data Centre
#                                CCDC 
#
#######################################################################
#
# If this CIF has been generated from an entry in the Cambridge 
# Structural Database, then it will include bibliographic, chemical, 
# crystal, experimental, refinement or atomic coordinate data resulting 
# from the CCDC's data processing and validation procedures.
#
#######################################################################

data_RUXXAJ01
_symmetry_cell_setting           orthorhombic
_symmetry_space_group_name_H-M   'P b c a'
_symmetry_Int_Tables_number      61
_space_group_name_Hall           '-P 2ac 2ab'
loop_
_symmetry_equiv_pos_site_id
_symmetry_equiv_pos_as_xyz
1 x,y,z
2 1/2+x,y,1/2-z
3 x,1/2-y,1/2+z
4 1/2-x,1/2+y,z
5 -x,-y,-z
6 1/2-x,-y,1/2+z
7 -x,1/2+y,1/2-z
8 1/2+x,1/2-y,-z
_cell_length_a                   6.955(4)
_cell_length_b                   9.527(5)
_cell_length_c                   19.384(11)
_cell_angle_alpha                90
_cell_angle_beta                 90
_cell_angle_gamma                90
_cell_volume                     1284.39
loop_
_atom_site_label
_atom_site_type_symbol
_atom_site_fract_x
_atom_site_fract_y
_atom_site_fract_z
Ag1 Ag 0.12845(4) 0.56757(3) 0.428031(14)
Ag2 Ag -0.05834(5) 0.42281(3) 0.144740(14)
N1 N 0.1250(5) 0.6217(3) 0.14637(14)
O1 O 0.0728(4) 0.6785(3) 0.32975(12)
O2 O 0.1949(4) 0.4991(3) 0.27015(12)
O3 O 0.2787(4) 0.5302(3) 0.02537(12)
O4 O 0.1094(4) 0.6822(3) -0.03575(13)
C1 C 0.1225(5) 0.6176(4) 0.27367(18)
C2 C 0.0953(5) 0.7039(4) 0.20877(18)
C3 C 0.1714(5) 0.6351(4) 0.01993(17)
C4 C 0.1147(6) 0.7105(4) 0.08452(19)
H1 H 0.229(5) 0.590(3) 0.1473(15)
H2 H 0.186(5) 0.773(3) 0.2103(15)
H3 H -0.027(5) 0.742(3) 0.2109(15)
H4 H 0.198(6) 0.781(4) 0.0941(18)
H5 H -0.008(5) 0.739(4) 0.0792(17)
Ag2A Ag 0.44166(5) 0.42281(3) 0.355260(14)
O3E O 0.2213(4) 0.4698(3) 0.52537(12)
O4B O 0.1094(4) 0.8178(3) 0.46425(13)
Ag1A Ag -0.37155(4) 0.56757(3) 0.071969(14)
O1F O -0.0728(4) 0.1785(3) 0.17025(12)
O2A O -0.3051(4) 0.4991(3) 0.22985(12)
O4D O -0.1094(4) 0.3178(3) 0.03575(13)
Ag2F Ag 0.05834(5) 0.92281(3) 0.355260(14)
Ag1E Ag 0.37155(4) 0.43243(3) -0.071969(14)
Ag1B Ag 0.12845(4) 0.93243(3) -0.071969(14)
Ag2D Ag 0.05834(5) 0.57719(3) -0.144740(14)
loop_
_geom_bond_atom_site_label_1
_geom_bond_atom_site_label_2
_geom_bond_site_symmetry_1
_geom_bond_site_symmetry_2
Ag1 O1 1_555 1_555
Ag2 N1 1_555 1_555
N1 C2 1_555 1_555
O1 C1 1_555 1_555
O2 C1 1_555 1_555
O3 C3 1_555 1_555
O4 C3 1_555 1_555
C1 C2 1_555 1_555
C2 H2 1_555 1_555
C3 C4 1_555 1_555
C4 N1 1_555 1_555
H1 N1 1_555 1_555
H3 C2 1_555 1_555
H4 C4 1_555 1_555
H5 C4 1_555 1_555
Ag2A Ag1 1_555 1_555
O3E Ag1 1_555 1_555
O4B Ag1 1_555 1_555
Ag1A Ag2 1_555 1_555
O1F Ag2 1_555 1_555
O2A Ag2 1_555 1_555
O4D Ag2 1_555 1_555
Ag2F O1 1_555 1_555
Ag1E O3 1_555 1_555
Ag1B O4 1_555 1_555
Ag2D O4 1_555 1_555
O2 Ag2A 1_555 1_555
O4B Ag2F 1_555 1_555
Ag1E Ag2D 1_555 1_555

#END
