
#######################################################################
#
#                 Cambridge Crystallographic Data Centre
#                                CCDC 
#
#######################################################################
#
# If this CIF has been generated from an entry in the Cambridge 
# Structural Database, then it will include bibliographic, chemical, 
# crystal, experimental, refinement or atomic coordinate data resulting 
# from the CCDC's data processing and validation procedures.
#
#######################################################################

data_RUYFAT
_symmetry_cell_setting           monoclinic
_symmetry_space_group_name_H-M   'P 21/c'
_symmetry_Int_Tables_number      14
_space_group_name_Hall           '-P 2ybc'
loop_
_symmetry_equiv_pos_site_id
_symmetry_equiv_pos_as_xyz
1 x,y,z
2 -x,1/2+y,1/2-z
3 -x,-y,-z
4 x,1/2-y,1/2+z
_cell_length_a                   8.4557(7)
_cell_length_b                   13.2169(12)
_cell_length_c                   28.218(3)
_cell_angle_alpha                90
_cell_angle_beta                 102.063(7)
_cell_angle_gamma                90
_cell_volume                     3083.95
loop_
_atom_site_label
_atom_site_type_symbol
_atom_site_fract_x
_atom_site_fract_y
_atom_site_fract_z
Co1 Co 0.29348(19) 0.31819(11) 0.24213(6)
Co2 Co 0.67947(18) 0.31812(11) 0.24259(6)
Co3 Co 0.79707(19) 0.05018(10) 0.24357(6)
Co4 Co 0.18260(19) 0.04889(11) 0.24188(6)
P1 P 0.4400(3) 0.1412(2) 0.18394(11)
P2 P 0.0421(3) 0.3700(2) 0.31174(10)
P3 P -0.0621(4) 0.2261(2) 0.18321(10)
P4 P 0.4569(3) 0.4986(2) 0.18640(10)
S1 S 0.4544(4) 0.0944(3) 0.07610(12)
S2 S 0.0756(5) 0.3615(3) 0.42197(12)
S3 S -0.0933(5) 0.2901(3) 0.07706(12)
S4 S 0.3749(5) 0.5188(3) 0.07688(12)
C1 C 0.4367(15) 0.1812(8) 0.1221(4)
H1 H 0.3361 0.2175 0.1110
H2 H 0.5231 0.2302 0.1237
C2 C 0.2854(17) 0.0174(10) 0.0680(5)
H3 H 0.2905 -0.0319 0.0433
H4 H 0.1897 0.0578 0.0583
H5 H 0.2821 -0.0166 0.0979
C3 C 0.0735(15) 0.4326(8) 0.3695(4)
H6 H 0.1758 0.4683 0.3740
H7 H -0.0103 0.4835 0.3676
C4 C 0.2521(19) 0.2876(10) 0.4284(5)
H8 H 0.2620 0.2454 0.4565
H9 H 0.3447 0.3311 0.4319
H10 H 0.2456 0.2459 0.4001
C5 C -0.0834(14) 0.1920(8) 0.1200(4)
H11 H 0.0071 0.1488 0.1173
H12 H -0.1807 0.1516 0.1108
C6 C -0.162(2) 0.2287(13) 0.0218(5)
H13 H -0.1717 0.2767 -0.0041
H14 H -0.2659 0.1988 0.0215
H15 H -0.0868 0.1767 0.0178
C7 C 0.4260(15) 0.4371(9) 0.1280(4)
H16 H 0.5240 0.4008 0.1259
H17 H 0.3404 0.3875 0.1262
C8 C 0.348(3) 0.4346(12) 0.0274(5)
H18 H 0.3194 0.4720 -0.0023
H19 H 0.2625 0.3878 0.0296
H20 H 0.4462 0.3980 0.0281
O1 O 0.2796(9) 0.0909(6) 0.1852(3)
O2 O 0.5801(9) 0.0696(6) 0.1993(3)
O3 O 0.4595(9) 0.2430(5) 0.2115(3)
O4 O 0.5962(13) 0.0337(9) 0.0920(4)
O5 O 0.4490(15) 0.1549(8) 0.0326(4)
O6 O -0.1244(9) 0.4018(5) 0.2836(3)
O7 O 0.1787(9) 0.4049(5) 0.2869(3)
O8 O 0.0498(9) 0.2572(5) 0.3205(3)
O9 O -0.0621(14) 0.2944(8) 0.4135(4)
O10 O 0.0881(15) 0.4321(8) 0.4618(3)
O11 O -0.2209(9) 0.2753(5) 0.1877(3)
O12 O -0.0385(9) 0.1238(5) 0.2102(3)
O13 O 0.0791(10) 0.2966(5) 0.1967(3)
O14 O 0.0694(13) 0.3285(8) 0.0798(4)
O15 O -0.2110(15) 0.3626(8) 0.0839(4)
O16 O 0.3187(9) 0.4618(5) 0.2099(3)
O17 O 0.4533(8) 0.6113(5) 0.1789(3)
O18 O 0.6210(9) 0.4636(5) 0.2153(3)
O19 O 0.2220(15) 0.5681(8) 0.0785(4)
O20 O 0.5092(14) 0.5843(9) 0.0743(4)
O21 O 0.5219(9) 0.3628(5) 0.2932(3)
O22 O 0.7687(9) 0.1854(5) 0.2837(3)
O23 O 0.2689(9) 0.1813(5) 0.2821(3)
O24 O 1.0253(10) 0.0069(6) 0.2937(3)
Co2_2 Co -0.32053(18) 0.31812(11) 0.24259(6)
Co3_2 Co -0.20293(19) 0.05018(10) 0.24357(6)
Co3A Co 0.20293(19) 0.55018(10) 0.25643(6)
Co4_2 Co 1.18260(19) 0.04889(11) 0.24188(6)
Co4A Co -0.18260(19) 0.54889(11) 0.25812(6)
Co4A_2 Co 0.81740(19) 0.54889(11) 0.25812(6)
O6_2 O 0.8756(9) 0.4018(5) 0.2836(3)
O6A O 0.1244(9) -0.0982(5) 0.2164(3)
O7A O 0.8213(9) -0.0951(5) 0.2131(3)
O11_2 O 0.7791(9) 0.2753(5) 0.1877(3)
O12_2 O 0.9615(9) 0.1238(5) 0.2102(3)
O16A O 0.6813(9) -0.0382(5) 0.2901(3)
O18A O 0.3790(9) -0.0364(5) 0.2847(3)
O24_2 O 0.0253(10) 0.0069(6) 0.2937(3)
O25 O 1.0743(15) 0.0620(7) 0.3839(3)
O26 O 0.6008(13) 0.2869(7) 0.3827(3)
loop_
_geom_bond_atom_site_label_1
_geom_bond_atom_site_label_2
_geom_bond_site_symmetry_1
_geom_bond_site_symmetry_2
Co1 O3 1_555 1_555
Co2 O3 1_555 1_555
Co3 O2 1_555 1_555
Co4 O1 1_555 1_555
P1 C1 1_555 1_555
P2 C3 1_555 1_555
P3 C5 1_555 1_555
P4 C7 1_555 1_555
S1 C1 1_555 1_555
S2 C3 1_555 1_555
S3 C5 1_555 1_555
S4 C7 1_555 1_555
C1 H1 1_555 1_555
H2 C1 1_555 1_555
C2 S1 1_555 1_555
H3 C2 1_555 1_555
H4 C2 1_555 1_555
H5 C2 1_555 1_555
C3 H6 1_555 1_555
H7 C3 1_555 1_555
C4 S2 1_555 1_555
H8 C4 1_555 1_555
H9 C4 1_555 1_555
H10 C4 1_555 1_555
C5 H11 1_555 1_555
H12 C5 1_555 1_555
C6 S3 1_555 1_555
H13 C6 1_555 1_555
H14 C6 1_555 1_555
H15 C6 1_555 1_555
C7 H16 1_555 1_555
H17 C7 1_555 1_555
C8 S4 1_555 1_555
H18 C8 1_555 1_555
H19 C8 1_555 1_555
H20 C8 1_555 1_555
O1 P1 1_555 1_555
O2 P1 1_555 1_555
O3 P1 1_555 1_555
O4 S1 1_555 1_555
O5 S1 1_555 1_555
O6 P2 1_555 1_555
O7 Co1 1_555 1_555
O8 P2 1_555 1_555
O9 S2 1_555 1_555
O10 S2 1_555 1_555
O11 P3 1_555 1_555
O12 Co4 1_555 1_555
O13 Co1 1_555 1_555
O14 S3 1_555 1_555
O15 S3 1_555 1_555
O16 Co1 1_555 1_555
O17 P4 1_555 1_555
O18 Co2 1_555 1_555
O19 S4 1_555 1_555
O20 S4 1_555 1_555
O21 Co1 1_555 1_555
O22 Co2 1_555 1_555
O23 Co1 1_555 1_555
O24 Co3 1_555 1_555
Co2_2 O6 1_555 1_555
Co3_2 O12 1_555 1_555
Co3A O7 1_555 1_555
Co4_2 O24 1_555 1_555
Co4A O6 1_555 1_555
Co4A_2 O18 1_555 1_555
O6_2 Co2 1_555 1_555
O6A Co4 1_555 1_555
O7A Co3 1_555 1_555
O11_2 Co2 1_555 1_555
O12_2 Co3 1_555 1_555
O16A Co3 1_555 1_555
O18A Co4 1_555 1_555
O24_2 Co4 1_555 1_555
Co2 O21 1_555 1_555
Co3 O22 1_555 1_555
Co4 O23 1_555 1_555
P2 O7 1_555 1_555
P3 O12 1_555 1_555
P3 O13 1_555 1_555
P4 O16 1_555 1_555
P4 O18 1_555 1_555
O11 Co2_2 1_555 1_555
O16 Co3A 1_555 1_555
Co3_2 O24_2 1_555 1_555
Co4_2 O12_2 1_555 1_555
Co4A_2 O6_2 1_555 1_555

#END
