
#######################################################################
#
#                 Cambridge Crystallographic Data Centre
#                                CCDC 
#
#######################################################################
#
# If this CIF has been generated from an entry in the Cambridge 
# Structural Database, then it will include bibliographic, chemical, 
# crystal, experimental, refinement or atomic coordinate data resulting 
# from the CCDC's data processing and validation procedures.
#
#######################################################################

data_RUYGEY01
_symmetry_cell_setting           triclinic
_symmetry_space_group_name_H-M   'P -1'
_symmetry_Int_Tables_number      2
_space_group_name_Hall           '-P 1'
loop_
_symmetry_equiv_pos_site_id
_symmetry_equiv_pos_as_xyz
1 x,y,z
2 -x,-y,-z
_cell_length_a                   6.9436(6)
_cell_length_b                   7.1505(6)
_cell_length_c                   19.1353(16)
_cell_angle_alpha                83.7140(10)
_cell_angle_beta                 89.6860(10)
_cell_angle_gamma                64.0340(10)
_cell_volume                     848.071
loop_
_atom_site_label
_atom_site_type_symbol
_atom_site_fract_x
_atom_site_fract_y
_atom_site_fract_z
Sn1 Sn -0.00521(3) 0.63078(3) 0.261440(9)
Sn2 Sn 0.31846(3) 0.05647(2) 0.269156(8)
Sn3 Sn 0.55112(3) 0.40652(3) 0.226804(8)
C1 C 0.1979(4) 0.5938(4) 0.38449(12)
C2 C 0.3543(4) 0.5468(4) 0.44439(12)
C3 C 0.3220(4) 0.4601(4) 0.50958(13)
H1 H 0.2028 0.4337 0.5157
C4 C 0.5314(4) 0.5865(4) 0.43485(13)
H2 H 0.5518 0.6445 0.3912
C5 C 0.1228(4) 0.9566(4) 0.14652(12)
C6 C 0.0560(4) 0.9810(4) 0.07096(11)
C7 C 0.0633(4) 0.8086(4) 0.04115(12)
H3 H 0.1058 0.6806 0.0688
C8 C -0.0078(4) 1.1724(4) 0.02936(12)
H4 H -0.0130 1.2876 0.0491
C9 C 0.5425(4) 0.2098(4) 0.11452(12)
C10 C 0.5238(4) 0.0984(4) 0.05578(12)
C11 C 0.5709(4) -0.1133(4) 0.06626(12)
H5 H 0.6181 -0.1886 0.1106
C12 C 0.4525(4) 0.2119(4) -0.01059(13)
H6 H 0.4207 0.3534 -0.0175
C13 C -0.1198(4) 0.1424(4) 0.35176(12)
C14 C -0.0558(4) 0.0677(4) 0.42850(11)
C15 C -0.1778(4) -0.0085(4) 0.47000(12)
H7 H -0.2967 -0.0142 0.4501
C16 C 0.1217(4) 0.0759(4) 0.45885(12)
H8 H 0.2034 0.1267 0.4314
O1 O 0.2756(3) 0.3655(3) 0.24970(9)
O2 O 0.0595(3) 0.5261(3) 0.38784(10)
O3 O 0.2118(3) 0.7007(3) 0.32791(9)
O4 O 0.1672(3) 0.7860(3) 0.18373(9)
O5 O 0.1378(3) 1.1104(3) 0.16954(9)
O6 O 0.6222(3) 0.1069(3) 0.17520(9)
O7 O 0.4795(3) 0.4034(3) 0.10561(10)
O8 O -0.2908(3) 0.1502(3) 0.32819(10)
O9 O -0.0011(3) 0.2024(3) 0.31351(9)
Sn1A Sn 1.00521(3) 0.36922(3) 0.738560(9)
Sn1A_2 Sn 0.00521(3) 1.36922(3) -0.261440(9)
Sn1A_3 Sn 0.00521(3) -0.63078(3) 0.738560(9)
Sn2_2 Sn 0.31846(3) 1.05647(2) 0.269156(8)
Sn2A Sn -0.31846(3) 0.94353(2) -0.269156(8)
Sn2A_2 Sn -0.31846(3) -0.05647(2) 0.730844(8)
Sn3_2 Sn -0.44888(3) 0.40652(3) 0.226804(8)
Sn3A Sn 0.44888(3) -0.40652(3) -0.226804(8)
Sn3A_2 Sn 0.44888(3) -0.40652(3) 0.773196(8)
Sn3A_3 Sn -0.55112(3) -0.40652(3) 0.773196(8)
C1A C 0.8021(4) 0.4062(4) 0.61551(12)
C2A C 0.6457(4) 0.4532(4) 0.55561(12)
C3A C 0.6780(4) 0.5399(4) 0.49042(13)
H1A H 0.7972 0.5663 0.4843
C4A C 0.4686(4) 0.4135(4) 0.56515(13)
H2A H 0.4482 0.3555 0.6088
C5A C -0.1228(4) 1.0434(4) -0.14652(12)
C6A C -0.0560(4) 1.0190(4) -0.07096(11)
C7A C -0.0633(4) 1.1914(4) -0.04115(12)
H3A H -0.1058 1.3194 -0.0688
C8A C 0.0078(4) 0.8276(4) -0.02936(12)
H4A H 0.0130 0.7124 -0.0491
C9A C 0.4575(4) -0.2098(4) -0.11452(12)
C10A C 0.4762(4) -0.0984(4) -0.05578(12)
C11A C 0.4291(4) 0.1133(4) -0.06626(12)
H5A H 0.3819 0.1886 -0.1106
C12A C 0.5475(4) -0.2119(4) 0.01059(13)
H6A H 0.5793 -0.3534 0.0175
C13A C 0.1198(4) -0.1424(4) 0.64824(12)
C14A C 0.0558(4) -0.0677(4) 0.57150(11)
C15A C 0.1778(4) 0.0085(4) 0.53000(12)
H7A H 0.2967 0.0142 0.5499
C16A C -0.1217(4) -0.0759(4) 0.54115(12)
H8A H -0.2034 -0.1267 0.5686
O1A O -0.2756(3) -0.3655(3) 0.75030(9)
O2A O 0.9405(3) 0.4739(3) 0.61216(10)
O2A_2 O -0.0595(3) -0.5261(3) 0.61216(10)
O3A O 0.7882(3) 0.2993(3) 0.67209(9)
O3A_2 O -0.2118(3) -0.7007(3) 0.67209(9)
O4A O -0.1672(3) 1.2140(3) -0.18373(9)
O4A_2 O -0.1672(3) -0.7860(3) 0.81627(9)
O5A O -0.1378(3) 0.8896(3) -0.16954(9)
O5_2 O 0.1378(3) 0.1104(3) 0.16954(9)
O5A_2 O -0.1378(3) -0.1104(3) 0.83046(9)
O6A O 0.3778(3) -0.1069(3) -0.17520(9)
O6A_2 O -0.6222(3) -0.1069(3) 0.82480(9)
O7A O 0.5205(3) -0.4034(3) -0.10561(10)
O7A_2 O -0.4795(3) -0.4034(3) 0.89439(10)
O8A O 0.2908(3) -0.1502(3) 0.67181(10)
O8_2 O 0.7092(3) 0.1502(3) 0.32819(10)
O8A_2 O -0.7092(3) -0.1502(3) 0.67181(10)
O9A O 0.0011(3) -0.2024(3) 0.68649(9)
loop_
_geom_bond_atom_site_label_1
_geom_bond_atom_site_label_2
_geom_bond_site_symmetry_1
_geom_bond_site_symmetry_2
Sn1 O1 1_555 1_555
Sn2 O1 1_555 1_555
Sn3 O1 1_555 1_555
C1 C2 1_555 1_555
C2 C3 1_555 1_555
C3 H1 1_555 1_555
C4 C2 1_555 1_555
H2 C4 1_555 1_555
C5 C6 1_555 1_555
C6 C7 1_555 1_555
C7 H3 1_555 1_555
C8 C6 1_555 1_555
H4 C8 1_555 1_555
C9 C10 1_555 1_555
C10 C11 1_555 1_555
C11 H5 1_555 1_555
C12 C10 1_555 1_555
H6 C12 1_555 1_555
C13 C14 1_555 1_555
C14 C15 1_555 1_555
C15 H7 1_555 1_555
C16 C14 1_555 1_555
H8 C16 1_555 1_555
O2 Sn1 1_555 1_555
O3 Sn1 1_555 1_555
O4 Sn1 1_555 1_555
O5 C5 1_555 1_555
O6 Sn3 1_555 1_555
O7 Sn3 1_555 1_555
O8 C13 1_555 1_555
O9 Sn2 1_555 1_555
Sn1A O2A 1_555 1_555
Sn1A_2 O4A 1_555 1_555
Sn1A_3 O1A 1_555 1_555
Sn2_2 O5 1_555 1_555
Sn2A O5A 1_555 1_555
Sn2A_2 O1A 1_555 1_555
Sn3_2 O8 1_555 1_555
Sn3A O6A 1_555 1_555
Sn3A_2 O8A 1_555 1_555
Sn3A_3 O1A 1_555 1_555
C1A C2A 1_555 1_555
C2A C3A 1_555 1_555
C3A C4 1_555 1_555
H1A C3A 1_555 1_555
C4A C3 1_555 1_555
H2A C4A 1_555 1_555
C5A C6A 1_555 1_555
C6A C7A 1_555 1_555
C7A C8 1_555 1_555
H3A C7A 1_555 1_555
C8A C7 1_555 1_555
H4A C8A 1_555 1_555
C9A C10A 1_555 1_555
C10A C11A 1_555 1_555
C11A C12 1_555 1_555
H5A C11A 1_555 1_555
C12A C11 1_555 1_555
H6A C12A 1_555 1_555
C13A C14A 1_555 1_555
C14A C15A 1_555 1_555
C15A C16 1_555 1_555
H7A C15A 1_555 1_555
C16A C15 1_555 1_555
H8A C16A 1_555 1_555
O2A C1A 1_555 1_555
O2A_2 Sn1A_3 1_555 1_555
O3A Sn1A 1_555 1_555
O3A_2 Sn1A_3 1_555 1_555
O4A C5A 1_555 1_555
O4A_2 Sn1A_3 1_555 1_555
O5A C5A 1_555 1_555
O5_2 Sn2 1_555 1_555
O5A_2 Sn2A_2 1_555 1_555
O6A C9A 1_555 1_555
O6A_2 Sn3A_3 1_555 1_555
O7A Sn3A 1_555 1_555
O7A_2 Sn3A_3 1_555 1_555
O8A C13A 1_555 1_555
O8_2 Sn3 1_555 1_555
O8A_2 Sn3A_3 1_555 1_555
O9A Sn2A_2 1_555 1_555
C1 O2 1_555 1_555
C1 O3 1_555 1_555
C5 O4 1_555 1_555
C9 O6 1_555 1_555
C9 O7 1_555 1_555
C13 O9 1_555 1_555
C1A O3A 1_555 1_555
C2A C4A 1_555 1_555
C6A C8A 1_555 1_555
C9A O7A 1_555 1_555
C10A C12A 1_555 1_555
C13A O9A 1_555 1_555
C14A C16A 1_555 1_555

#END
