
#######################################################################
#
#                 Cambridge Crystallographic Data Centre
#                                CCDC 
#
#######################################################################
#
# If this CIF has been generated from an entry in the Cambridge 
# Structural Database, then it will include bibliographic, chemical, 
# crystal, experimental, refinement or atomic coordinate data resulting 
# from the CCDC's data processing and validation procedures.
#
#######################################################################

data_RUYGEY
_symmetry_cell_setting           triclinic
_symmetry_space_group_name_H-M   'P -1'
_symmetry_Int_Tables_number      2
_space_group_name_Hall           '-P 1'
loop_
_symmetry_equiv_pos_site_id
_symmetry_equiv_pos_as_xyz
1 x,y,z
2 -x,-y,-z
_cell_length_a                   6.9475(10)
_cell_length_b                   7.1514(11)
_cell_length_c                   19.140(3)
_cell_angle_alpha                83.7610(10)
_cell_angle_beta                 89.700(2)
_cell_angle_gamma                64.0700(10)
_cell_volume                     849.208
loop_
_atom_site_label
_atom_site_type_symbol
_atom_site_fract_x
_atom_site_fract_y
_atom_site_fract_z
C1 C 0.3011(7) 0.4064(7) 0.1152(2)
C2 C 0.1451(7) 0.4535(6) 0.0557(2)
C3 C 0.1763(8) 0.5407(7) -0.0100(2)
H1 H 0.2963 0.5680 -0.0164
C4 C 0.0311(7) 0.5862(7) -0.0650(2)
H2 H 0.0517 0.6446 -0.1092
C5 C 0.3758(7) 0.0424(7) 0.3532(2)
C6 C 0.4433(6) 0.0189(7) 0.4290(2)
C7 C 0.5089(7) -0.1726(7) 0.4708(2)
H3 H 0.5157 -0.2896 0.4509
C8 C -0.0432(7) -0.2089(7) 0.3856(2)
C9 C -0.0227(7) -0.0989(7) 0.4444(2)
C10 C 0.0466(7) -0.2117(7) 0.5107(2)
H4 H 0.0769 -0.3542 0.5177
C11 C 0.0709(7) -0.1129(7) 0.5665(2)
H5 H 0.1196 -0.1888 0.6112
C12 C 0.6194(7) -0.1414(6) 0.1481(2)
C13 C 0.5557(7) -0.0679(6) 0.0714(2)
C14 C 0.6783(7) 0.0085(6) 0.0301(2)
H6 H 0.7985 0.0141 0.0503
C15 C 0.5638(7) -0.1917(7) 0.5412(2)
H7 H 0.6061 -0.3210 0.5692
C16 C 0.6213(7) 0.0764(7) -0.0413(2)
H8 H 0.7034 0.1282 -0.0691
O1 O -0.1221(5) -0.1072(5) 0.32473(17)
O2 O 0.0214(6) -0.4028(5) 0.39448(19)
O3 O 0.7908(6) -0.1500(6) 0.17176(18)
O4 O 0.3605(6) -0.1112(5) 0.33029(18)
O5 O 0.3331(6) 0.2139(5) 0.31621(17)
O6 O 0.2877(6) 0.2992(5) 0.17179(17)
O7 O 0.4408(6) 0.4748(6) 0.11227(18)
O8 O 0.5010(5) -0.2014(5) 0.18642(17)
O9 O 0.2245(5) -0.3657(4) 0.25021(16)
Sn1 Sn 0.18164(5) -0.05645(4) 0.230858(15)
Sn2 Sn -0.05105(5) -0.40647(5) 0.273214(16)
Sn3 Sn 0.50521(5) 0.36930(4) 0.238572(17)
C1A C -0.3011(7) 0.5936(7) -0.1152(2)
C2A C -0.1451(7) 0.5465(6) -0.0557(2)
C3A C -0.1763(8) 0.4593(7) 0.0100(2)
H1A H -0.2963 0.4320 0.0164
C4A C -0.0311(7) 0.4138(7) 0.0650(2)
H2A H -0.0517 0.3554 0.1092
C5A C 0.6242(7) -0.0424(7) 0.6468(2)
C6A C 0.5567(6) -0.0189(7) 0.5710(2)
C7A C 0.4911(7) 0.1726(7) 0.5292(2)
H3A H 0.4843 0.2896 0.5491
C8A C 0.0432(7) 0.2089(7) 0.6144(2)
C9A C 0.0227(7) 0.0989(7) 0.5556(2)
C10A C -0.0466(7) 0.2117(7) 0.4893(2)
H4A H -0.0769 0.3542 0.4823
C11A C -0.0709(7) 0.1129(7) 0.4335(2)
H5A H -0.1196 0.1888 0.3888
C12A C 0.3806(7) 0.1414(6) -0.1481(2)
C13A C 0.4443(7) 0.0679(6) -0.0714(2)
C14A C 0.3217(7) -0.0085(6) -0.0301(2)
H6A H 0.2015 -0.0141 -0.0503
C15A C 0.4362(7) 0.1917(7) 0.4588(2)
H7A H 0.3939 0.3210 0.4308
C16A C 0.3787(7) -0.0764(7) 0.0413(2)
H8A H 0.2966 -0.1282 0.0691
O1A O 0.1221(5) 0.1072(5) 0.67527(17)
O1A_2 O 0.1221(5) 0.1072(5) -0.32473(17)
O2A O -0.0214(6) 0.4028(5) 0.60552(19)
O2A_2 O -0.0214(6) 0.4028(5) -0.39448(19)
O3A O 0.2092(6) 0.1500(6) -0.17176(18)
O3_2 O -0.2092(6) -0.1500(6) 0.17176(18)
O4A O 0.6395(6) 0.1112(5) 0.66971(18)
O4A_2 O -0.3605(6) 0.1112(5) -0.33029(18)
O5A O 0.6669(6) -0.2139(5) 0.68379(17)
O5_2 O 0.3331(6) -0.7861(5) 0.31621(17)
O6A O -0.2877(6) 0.7008(5) -0.17179(17)
O6_2 O 0.2877(6) -0.7008(5) 0.17179(17)
O7A O -0.4408(6) 0.5252(6) -0.11227(18)
O7_2 O 0.4408(6) -0.5252(6) 0.11227(18)
O8A O 0.4990(5) 0.2014(5) -0.18642(17)
O8A_2 O -0.5010(5) 0.2014(5) -0.18642(17)
O9A O -0.2245(5) 0.3657(4) -0.25021(16)
O9_2 O 0.2245(5) 0.6343(4) 0.25021(16)
Sn1A Sn -0.18164(5) 0.05645(4) -0.230858(15)
Sn1A_2 Sn 0.81836(5) 0.05645(4) -0.230858(15)
Sn1A_3 Sn 0.81836(5) 0.05645(4) 0.769142(15)
Sn2A Sn 0.05105(5) 0.40647(5) -0.273214(16)
Sn2_2 Sn 0.94895(5) -0.40647(5) 0.273214(16)
Sn2A_2 Sn 0.05105(5) 0.40647(5) 0.726786(16)
Sn3_2 Sn 0.50521(5) -0.63070(4) 0.238572(17)
Sn3A Sn -0.50521(5) 0.63070(4) -0.238572(17)
Sn3A_2 Sn 0.49479(5) -0.36930(4) 0.761428(17)
loop_
_geom_bond_atom_site_label_1
_geom_bond_atom_site_label_2
_geom_bond_site_symmetry_1
_geom_bond_site_symmetry_2
C1 C2 1_555 1_555
C2 C3 1_555 1_555
C3 H1 1_555 1_555
C4 C3 1_555 1_555
H2 C4 1_555 1_555
C5 C6 1_555 1_555
C6 C7 1_555 1_555
C7 H3 1_555 1_555
C8 C9 1_555 1_555
C9 C10 1_555 1_555
C10 H4 1_555 1_555
C11 C10 1_555 1_555
H5 C11 1_555 1_555
C12 C13 1_555 1_555
C13 C14 1_555 1_555
C14 H6 1_555 1_555
C15 C7 1_555 1_555
H7 C15 1_555 1_555
C16 C14 1_555 1_555
H8 C16 1_555 1_555
O1 C8 1_555 1_555
O2 C8 1_555 1_555
O3 C12 1_555 1_555
O4 C5 1_555 1_555
O5 C5 1_555 1_555
O6 C1 1_555 1_555
O7 C1 1_555 1_555
O8 C12 1_555 1_555
O9 Sn1 1_555 1_555
Sn1 O4 1_555 1_555
Sn2 O1 1_555 1_555
Sn3 O5 1_555 1_555
C1A C2A 1_555 1_555
C2A C4 1_555 1_555
C3A C2A 1_555 1_555
H1A C3A 1_555 1_555
C4A C2 1_555 1_555
H2A C4A 1_555 1_555
C5A C6A 1_555 1_555
C6A C15 1_555 1_555
C7A C6A 1_555 1_555
H3A C7A 1_555 1_555
C8A C9A 1_555 1_555
C9A C11 1_555 1_555
C10A C9A 1_555 1_555
H4A C10A 1_555 1_555
C11A C9 1_555 1_555
H5A C11A 1_555 1_555
C12A C13A 1_555 1_555
C13A C16 1_555 1_555
C14A C13A 1_555 1_555
H6A C14A 1_555 1_555
C15A C6 1_555 1_555
H7A C15A 1_555 1_555
C16A C13 1_555 1_555
H8A C16A 1_555 1_555
O1A C8A 1_555 1_555
O1A_2 Sn2A 1_555 1_555
O2A C8A 1_555 1_555
O2A_2 Sn2A 1_555 1_555
O3A C12A 1_555 1_555
O3_2 Sn2 1_555 1_555
O4A C5A 1_555 1_555
O4A_2 Sn1A 1_555 1_555
O5A C5A 1_555 1_555
O5_2 Sn3_2 1_555 1_555
O6A C1A 1_555 1_555
O6_2 Sn3_2 1_555 1_555
O7A C1A 1_555 1_555
O7_2 Sn3_2 1_555 1_555
O8A C12A 1_555 1_555
O8A_2 Sn1A 1_555 1_555
O9A Sn1A 1_555 1_555
O9_2 Sn3 1_555 1_555
Sn1A_2 O8A 1_555 1_555
Sn1A_3 O4A 1_555 1_555
Sn2A O3A 1_555 1_555
Sn2_2 O3 1_555 1_555
Sn2A_2 O1A 1_555 1_555
Sn3_2 O9 1_555 1_555
Sn3A O6A 1_555 1_555
Sn3A_2 O5A 1_555 1_555
O2 Sn2 1_555 1_555
O6 Sn3 1_555 1_555
O7 Sn3 1_555 1_555
O8 Sn1 1_555 1_555
O9 Sn2 1_555 1_555
C3A C4A 1_555 1_555
C7A C15A 1_555 1_555
C10A C11A 1_555 1_555
C14A C16A 1_555 1_555
O2A Sn2A_2 1_555 1_555
O7A Sn3A 1_555 1_555
O9A Sn2A 1_555 1_555
O9A Sn3A 1_555 1_555

#END
