
#######################################################################
#
#                 Cambridge Crystallographic Data Centre
#                                CCDC 
#
#######################################################################
#
# If this CIF has been generated from an entry in the Cambridge 
# Structural Database, then it will include bibliographic, chemical, 
# crystal, experimental, refinement or atomic coordinate data resulting 
# from the CCDC's data processing and validation procedures.
#
#######################################################################

data_RUYJUR
_symmetry_cell_setting           monoclinic
_symmetry_space_group_name_H-M   'P 21/c'
_symmetry_Int_Tables_number      14
_space_group_name_Hall           '-P 2ybc'
loop_
_symmetry_equiv_pos_site_id
_symmetry_equiv_pos_as_xyz
1 x,y,z
2 -x,1/2+y,1/2-z
3 -x,-y,-z
4 x,1/2-y,1/2+z
_cell_length_a                   11.742(4)
_cell_length_b                   10.703(4)
_cell_length_c                   18.894(6)
_cell_angle_alpha                90
_cell_angle_beta                 110.545(18)
_cell_angle_gamma                90
_cell_volume                     2223.47
loop_
_atom_site_label
_atom_site_type_symbol
_atom_site_fract_x
_atom_site_fract_y
_atom_site_fract_z
Ag1 Ag 0.75199(6) 0.79450(6) 0.99401(4)
Ag2 Ag 0.26233(7) 0.55067(7) 0.99663(4)
C1 C 0.5036(8) 0.7110(9) 1.0018(5)
C2 C 0.4122(10) 0.7783(10) 1.0847(6)
H1 H 0.3561 0.7669 1.1087
C3 C 0.4899(10) 0.8789(10) 1.1056(6)
H2 H 0.4824 0.9384 1.1396
C4 C 0.5799(9) 0.8881(9) 1.0740(6)
C5 C 0.6672(10) 0.9901(11) 1.0941(6)
H3 H 0.7222 0.9815 1.0669
H4 H 0.7122 0.9879 1.1475
H5 H 0.6249 1.0683 1.0812
C6 C 1.0108(8) 0.7278(8) 0.9942(5)
C7 C 1.1053(9) 0.8047(10) 0.9153(6)
H6 H 1.1666 0.8006 0.8949
C8 C 1.0212(10) 0.8978(10) 0.8912(6)
H7 H 1.0268 0.9578 0.8570
C9 C 0.9268(9) 0.8999(9) 0.9194(6)
C10 C 0.8268(12) 0.9964(12) 0.8966(7)
H8 H 0.7714 0.9807 0.9227
H9 H 0.7840 0.9918 0.8431
H10 H 0.8615 1.0782 0.9095
C11 C 0.7652(8) 0.6119(9) 1.1431(5)
C12 C 0.8198(9) 0.7146(9) 1.2008(5)
C13 C 0.9279(9) 0.7717(9) 1.2056(6)
H11 H 0.9698 0.7447 1.1748
C14 C 0.9747(10) 0.8697(10) 1.2563(6)
H12 H 1.0465 0.9090 1.2585
C15 C 0.9135(9) 0.9085(10) 1.3036(6)
H13 H 0.9444 0.9739 1.3372
C16 C 0.8050(9) 0.8489(9) 1.3006(5)
C17 C 0.7581(8) 0.7532(8) 1.2508(5)
H14 H 0.6868 0.7136 1.2492
C18 C 0.7440(8) 0.8887(8) 1.3558(5)
N1 N 0.9213(7) 0.8129(7) 0.9705(4)
N2 N 0.5886(7) 0.8027(7) 1.0232(4)
N3 N 1.0118(7) 0.6454(7) 1.0468(4)
H15 H 0.9550 0.6464 1.0657
H16 H 1.0691 0.5909 1.0620
N4 N 0.5045(7) 0.6314(7) 0.9483(5)
H17 H 0.5586 0.6383 0.9274
H18 H 0.4510 0.5730 0.9343
N5 N 0.4131(7) 0.6960(7) 1.0314(4)
N6 N 1.1046(7) 0.7190(8) 0.9667(5)
O1 O 0.8149(6) 0.5985(6) 1.0931(4)
O3 O 0.6788(7) 0.5515(7) 1.1462(4)
O5 O 0.6544(6) 0.8240(7) 1.3569(4)
O6 O 0.7871(7) 0.9786(7) 1.3982(4)
Ag1C Ag 0.75199(6) 0.70550(6) 1.49401(4)
Ag2_2 Ag 1.26233(7) 0.55067(7) 0.99663(4)
Ag2B Ag 0.73767(7) 0.44933(7) 1.00337(4)
Ag2A Ag 0.73767(7) 1.05067(7) 1.50337(4)
N6_2 N 0.1046(7) 0.7190(8) 0.9667(5)
O1B O 0.1851(6) 0.4015(6) 0.9069(4)
O5C O 0.6544(6) 0.6760(7) 0.8569(4)
O6A O 0.2129(7) 0.4786(7) 1.1018(4)
O2 O 0.459(2) 0.828(2) 0.7857(13)
H19 H 0.5179 0.7797 0.8081
H20 H 0.4869 0.8903 0.7687
O4 O 0.4471(15) 0.5132(15) 0.7625(9)
H21 H 0.4065 0.4925 0.7901
H22 H 0.5058 0.5595 0.7883
loop_
_geom_bond_atom_site_label_1
_geom_bond_atom_site_label_2
_geom_bond_site_symmetry_1
_geom_bond_site_symmetry_2
Ag1 N1 1_555 1_555
Ag2 N5 1_555 1_555
C1 N2 1_555 1_555
C2 H1 1_555 1_555
C3 C2 1_555 1_555
H2 C3 1_555 1_555
C4 C3 1_555 1_555
C5 C4 1_555 1_555
H3 C5 1_555 1_555
H4 C5 1_555 1_555
H5 C5 1_555 1_555
C6 N1 1_555 1_555
C7 H6 1_555 1_555
C8 C7 1_555 1_555
H7 C8 1_555 1_555
C9 C8 1_555 1_555
C10 C9 1_555 1_555
H8 C10 1_555 1_555
H9 C10 1_555 1_555
H10 C10 1_555 1_555
C11 C12 1_555 1_555
C12 C13 1_555 1_555
C13 H11 1_555 1_555
C14 C13 1_555 1_555
H12 C14 1_555 1_555
C15 C14 1_555 1_555
H13 C15 1_555 1_555
C16 C15 1_555 1_555
C17 C12 1_555 1_555
H14 C17 1_555 1_555
C18 C16 1_555 1_555
N1 C9 1_555 1_555
N2 Ag1 1_555 1_555
N3 C6 1_555 1_555
H15 N3 1_555 1_555
H16 N3 1_555 1_555
N4 C1 1_555 1_555
H17 N4 1_555 1_555
H18 N4 1_555 1_555
N5 C1 1_555 1_555
N6 C6 1_555 1_555
O1 Ag1 1_555 1_555
O2 H19 1_555 1_555
H20 O2 1_555 1_555
O3 C11 1_555 1_555
O4 H21 1_555 1_555
H22 O4 1_555 1_555
O5 C18 1_555 1_555
O6 C18 1_555 1_555
Ag1C O5 1_555 1_555
Ag2_2 N6 1_555 1_555
Ag2B O1 1_555 1_555
Ag2A O6 1_555 1_555
N6_2 Ag2 1_555 1_555
O1B Ag2 1_555 1_555
O5C Ag1 1_555 1_555
O6A Ag2 1_555 1_555
C2 N5 1_555 1_555
C4 N2 1_555 1_555
C7 N6 1_555 1_555
C11 O1 1_555 1_555
C16 C17 1_555 1_555

#END
