
#######################################################################
#
#                 Cambridge Crystallographic Data Centre
#                                CCDC 
#
#######################################################################
#
# If this CIF has been generated from an entry in the Cambridge 
# Structural Database, then it will include bibliographic, chemical, 
# crystal, experimental, refinement or atomic coordinate data resulting 
# from the CCDC's data processing and validation procedures.
#
#######################################################################

data_RUYJIF
_symmetry_cell_setting           monoclinic
_symmetry_space_group_name_H-M   'P 2/c'
_symmetry_Int_Tables_number      13
_space_group_name_Hall           '-P 2yc'
loop_
_symmetry_equiv_pos_site_id
_symmetry_equiv_pos_as_xyz
1 x,y,z
2 -x,y,1/2-z
3 -x,-y,-z
4 x,-y,1/2+z
_cell_length_a                   9.4815(19)
_cell_length_b                   8.6468(18)
_cell_length_c                   12.217(3)
_cell_angle_alpha                90
_cell_angle_beta                 110.667(3)
_cell_angle_gamma                90
_cell_volume                     937.15
loop_
_atom_site_label
_atom_site_type_symbol
_atom_site_fract_x
_atom_site_fract_y
_atom_site_fract_z
Ag1 Ag 1.0000 0.44854(5) 0.2500
Ag2 Ag 1.0000 0.19705(5) -0.2500
C1 C 1.0184(4) 0.2652(4) 0.0042(3)
C2 C 1.2173(4) 0.2176(5) 0.1708(3)
H1 H 1.2692 0.2357 0.2499
C3 C 1.2808(5) 0.1191(5) 0.1131(4)
H2 H 1.3708 0.0679 0.1520
C4 C 1.2051(4) 0.0997(5) -0.0047(4)
C5 C 1.2622(5) -0.0076(6) -0.0750(4)
H3 H 1.1805 -0.0697 -0.1243
H4 H 1.3044 0.0513 -0.1226
H5 H 1.3384 -0.0734 -0.0234
C6 C 0.6809(4) 0.5723(4) 0.1269(3)
C7 C 0.5184(4) 0.5625(5) 0.0458(4)
H6 H 0.4559 0.5472 0.0929
H7 H 0.4905 0.6613 0.0063
N1 N 0.8867(3) 0.3316(4) -0.0482(3)
H8 H 0.8469 0.3874 -0.0085
H9 H 0.8405 0.3191 -0.1221
N2 N 1.0865(3) 0.2883(4) 0.1204(3)
N3 N 1.0768(3) 0.1763(4) -0.0612(3)
O2 O 0.7140(3) 0.6705(3) 0.2055(2)
O3 O 0.7730(3) 0.4790(3) 0.1104(2)
Ag1B Ag 0.0000 0.55146(5) -0.2500
Ag2_2 Ag 1.0000 0.19705(5) 0.7500
C1A C 0.9816(4) 0.2652(4) 0.4958(3)
C2A C 0.7827(4) 0.2176(5) 0.3292(3)
H1A H 0.7308 0.2357 0.2501
C3A C 0.7192(5) 0.1191(5) 0.3869(4)
H2A H 0.6292 0.0679 0.3480
C4A C 0.7949(4) 0.0997(5) 0.5047(4)
C5A C 0.7378(5) -0.0076(6) 0.5750(4)
H3A H 0.8195 -0.0697 0.6243
H4A H 0.6956 0.0513 0.6226
H5A H 0.6616 -0.0734 0.5234
C6B C 0.3191(4) 0.4277(4) -0.1269(3)
C7B C 0.4816(4) 0.4375(5) -0.0458(4)
H6B H 0.5441 0.4528 -0.0929
H7B H 0.5095 0.3387 -0.0063
N1A N 1.1133(3) 0.3316(4) 0.5482(3)
H8A H 1.1531 0.3874 0.5085
H9A H 1.1595 0.3191 0.6221
N2A N 0.9135(3) 0.2883(4) 0.3796(3)
N3A N 0.9232(3) 0.1763(4) 0.5612(3)
N3A_2 N 0.9232(3) 0.1763(4) -0.4388(3)
O2B O 0.2860(3) 0.3295(3) -0.2055(2)
O3B O 0.2270(3) 0.5210(3) -0.1104(2)
O3A O 1.2270(3) 0.4790(3) 0.3896(2)
O1 O 0.5000 0.8506(4) 0.2500
H10 H 0.4417 0.7984 0.2651
H10A H 0.5583 0.7984 0.2349
loop_
_geom_bond_atom_site_label_1
_geom_bond_atom_site_label_2
_geom_bond_site_symmetry_1
_geom_bond_site_symmetry_2
Ag1 N2 1_555 1_555
Ag2 N3 1_555 1_555
C1 N1 1_555 1_555
C2 H1 1_555 1_555
C3 C2 1_555 1_555
H2 C3 1_555 1_555
C4 C3 1_555 1_555
C5 C4 1_555 1_555
H3 C5 1_555 1_555
H4 C5 1_555 1_555
H5 C5 1_555 1_555
C6 C7 1_555 1_555
C7 H6 1_555 1_555
H7 C7 1_555 1_555
N1 H8 1_555 1_555
H9 N1 1_555 1_555
N2 C1 1_555 1_555
N3 C1 1_555 1_555
O1 H10 1_555 1_555
O2 C6 1_555 1_555
O3 Ag1 1_555 1_555
Ag1B O3B 1_555 1_555
Ag2_2 N3A 1_555 1_555
C1A N1A 1_555 1_555
C2A H1A 1_555 1_555
C3A C2A 1_555 1_555
H2A C3A 1_555 1_555
C4A C3A 1_555 1_555
C5A C4A 1_555 1_555
H3A C5A 1_555 1_555
H4A C5A 1_555 1_555
H5A C5A 1_555 1_555
C6B C7B 1_555 1_555
C7B C7 1_555 1_555
H6B C7B 1_555 1_555
H7B C7B 1_555 1_555
N1A H8A 1_555 1_555
H9A N1A 1_555 1_555
N2A Ag1 1_555 1_555
N3A C1A 1_555 1_555
N3A_2 Ag2 1_555 1_555
H10A O1 1_555 1_555
O2B C6B 1_555 1_555
O3B C6B 1_555 1_555
O3A Ag1 1_555 1_555
C2 N2 1_555 1_555
C4 N3 1_555 1_555
C6 O3 1_555 1_555
C1A N2A 1_555 1_555
C2A N2A 1_555 1_555
C4A N3A 1_555 1_555

#END
