
#######################################################################
#
#                 Cambridge Crystallographic Data Centre
#                                CCDC 
#
#######################################################################
#
# If this CIF has been generated from an entry in the Cambridge 
# Structural Database, then it will include bibliographic, chemical, 
# crystal, experimental, refinement or atomic coordinate data resulting 
# from the CCDC's data processing and validation procedures.
#
#######################################################################

data_RUYKIG
_symmetry_cell_setting           monoclinic
_symmetry_space_group_name_H-M   'C 2/c'
_symmetry_Int_Tables_number      15
_space_group_name_Hall           '-C 2yn'
loop_
_symmetry_equiv_pos_site_id
_symmetry_equiv_pos_as_xyz
1 x,y,z
2 -x,y,1/2-z
3 1/2+x,1/2+y,z
4 1/2-x,1/2+y,1/2-z
5 -x,-y,-z
6 x,-y,1/2+z
7 1/2-x,1/2-y,-z
8 1/2+x,1/2-y,1/2+z
_cell_length_a                   15.676(3)
_cell_length_b                   15.049(3)
_cell_length_c                   12.097(2)
_cell_angle_alpha                90
_cell_angle_beta                 107.31(3)
_cell_angle_gamma                90
_cell_volume                     2724.53
loop_
_atom_site_label
_atom_site_type_symbol
_atom_site_fract_x
_atom_site_fract_y
_atom_site_fract_z
Ag1 Ag 0.0000 1.03246(3) 0.2500
C1 C 0.00588(19) 1.1437(2) 0.4960(3)
C2 C 0.0926(2) 1.2625(2) 0.5841(3)
C3 C 0.1306(2) 1.2643(2) 0.4957(3)
H1 H 0.1725 1.3076 0.4939
C4 C 0.10589(19) 1.2012(2) 0.4095(3)
C5 C 0.1165(3) 1.3281(3) 0.6818(4)
H2 H 0.0629 1.3532 0.6915
H3 H 0.1526 1.3745 0.6645
H4 H 0.1494 1.2985 0.7518
C6 C 0.1454(2) 1.1995(3) 0.3116(3)
H5 H 0.1688 1.1413 0.3057
H6 H 0.1927 1.2424 0.3254
H7 H 0.1001 1.2137 0.2408
C7 C 0.45355(19) 0.9416(2) 0.2548(3)
C8 C 0.3815(2) 0.9677(2) 0.1623(3)
H8 H 0.3914 0.9857 0.0936
C9 C 0.2951(2) 0.9674(2) 0.1704(3)
H9 H 0.2482 0.9875 0.1085
C10 C 0.27824(19) 0.9371(2) 0.2702(3)
C11 C 0.3498(2) 0.9102(2) 0.3628(3)
H10 H 0.3397 0.8898 0.4304
C12 C 0.4362(2) 0.9136(2) 0.3548(3)
H11 H 0.4836 0.8967 0.4181
C13 C 0.1845(2) 0.9345(2) 0.2814(3)
O1 O 0.12596(14) 0.97921(18) 0.2098(2)
O3 O 0.17053(15) 0.8879(2) 0.3586(2)
N1 N -0.06114(17) 1.0887(2) 0.4923(3)
H14 H -0.0794 1.0520 0.4358
H15 H -0.0863 1.0899 0.5466
N2 N 0.04380(16) 1.14017(19) 0.4092(2)
N3 N 0.03100(16) 1.20130(19) 0.5871(2)
Ag2 Ag 0.0000 1.17602(3) 0.7500
Ag1D Ag 0.0000 0.96754(3) 0.7500
Ag1_2 Ag 1.0000 1.03246(3) 0.2500
C1A C -0.00588(19) 1.1437(2) 0.0040(3)
C2A C -0.0926(2) 1.2625(2) -0.0841(3)
C3A C -0.1306(2) 1.2643(2) 0.0043(3)
H1A H -0.1725 1.3076 0.0061
C4A C -0.10589(19) 1.2012(2) 0.0905(3)
C5A C -0.1165(3) 1.3281(3) -0.1818(4)
H2A H -0.0629 1.3532 -0.1915
H3A H -0.1526 1.3745 -0.1645
H4A H -0.1494 1.2985 -0.2518
C6A C -0.1454(2) 1.1995(3) 0.1884(3)
H5A H -0.1688 1.1413 0.1943
H6A H -0.1927 1.2424 0.1746
H7A H -0.1001 1.2137 0.2592
C7A C 0.54645(19) 0.9416(2) 0.2452(3)
C8A C 0.6185(2) 0.9677(2) 0.3377(3)
H8A H 0.6086 0.9857 0.4064
C9A C 0.7049(2) 0.9674(2) 0.3296(3)
H9A H 0.7518 0.9875 0.3915
C10A C 0.72176(19) 0.9371(2) 0.2298(3)
C11A C 0.6502(2) 0.9102(2) 0.1372(3)
H10A H 0.6603 0.8898 0.0696
C12A C 0.5638(2) 0.9136(2) 0.1452(3)
H11A H 0.5164 0.8967 0.0819
C13A C 0.8155(2) 0.9345(2) 0.2186(3)
O1A O 0.87404(14) 0.97921(18) 0.2902(2)
O1A_2 O -0.12596(14) 0.97921(18) 0.2902(2)
O3A O 0.82947(15) 0.8879(2) 0.1414(2)
N1A N 0.06114(17) 1.0887(2) 0.0077(3)
H14A H 0.0794 1.0520 0.0642
H15A H 0.0863 1.0899 -0.0466
N2A N -0.04380(16) 1.14017(19) 0.0908(2)
N3A N -0.03100(16) 1.20130(19) -0.0871(2)
N3A_2 N -0.03100(16) 1.20130(19) 0.9129(2)
Ag2D Ag 0.0000 0.82398(3) 0.2500
Ag2_2 Ag 0.0000 1.17602(3) -0.2500
O2 O 0.7662(9) 1.2831(7) -0.4436(8)
H12? H 0.7362 1.2973 -0.5122
H13? H 0.7763 1.2276 -0.4411
loop_
_geom_bond_atom_site_label_1
_geom_bond_atom_site_label_2
_geom_bond_site_symmetry_1
_geom_bond_site_symmetry_2
Ag1 O1 1_555 1_555
C1 N1 1_555 1_555
C2 C3 1_555 1_555
C3 H1 1_555 1_555
C4 C3 1_555 1_555
C5 C2 1_555 1_555
H2 C5 1_555 1_555
H3 C5 1_555 1_555
H4 C5 1_555 1_555
C6 C4 1_555 1_555
H5 C6 1_555 1_555
H6 C6 1_555 1_555
H7 C6 1_555 1_555
C7 C8 1_555 1_555
C8 H8 1_555 1_555
C9 C8 1_555 1_555
H9 C9 1_555 1_555
C10 C9 1_555 1_555
C11 C10 1_555 1_555
H10 C11 1_555 1_555
C12 C7 1_555 1_555
H11 C12 1_555 1_555
C13 C10 1_555 1_555
O1 C13 1_555 1_555
O3 C13 1_555 1_555
N1 H14 1_555 1_555
H15 N1 1_555 1_555
N2 Ag1 1_555 1_555
N3 C1 1_555 1_555
Ag2 N3 1_555 1_555
Ag1D Ag2 1_555 1_555
Ag1_2 O1A 1_555 1_555
C1A N1A 1_555 1_555
C2A C3A 1_555 1_555
C3A H1A 1_555 1_555
C4A C3A 1_555 1_555
C5A C2A 1_555 1_555
H2A C5A 1_555 1_555
H3A C5A 1_555 1_555
H4A C5A 1_555 1_555
C6A C4A 1_555 1_555
H5A C6A 1_555 1_555
H6A C6A 1_555 1_555
H7A C6A 1_555 1_555
C7A C7 1_555 1_555
C8A C7A 1_555 1_555
H8A C8A 1_555 1_555
C9A C8A 1_555 1_555
H9A C9A 1_555 1_555
C10A C9A 1_555 1_555
C11A C10A 1_555 1_555
H10A C11A 1_555 1_555
C12A C7A 1_555 1_555
H11A C12A 1_555 1_555
C13A C10A 1_555 1_555
O1A C13A 1_555 1_555
O1A_2 Ag1 1_555 1_555
O3A C13A 1_555 1_555
N1A H14A 1_555 1_555
H15A N1A 1_555 1_555
N2A Ag1 1_555 1_555
N3A C1A 1_555 1_555
N3A_2 Ag2 1_555 1_555
Ag2D Ag1 1_555 1_555
Ag2_2 N3A 1_555 1_555
C1 N2 1_555 1_555
C2 N3 1_555 1_555
C4 N2 1_555 1_555
C11 C12 1_555 1_555
C1A N2A 1_555 1_555
C2A N3A 1_555 1_555
C4A N2A 1_555 1_555
C11A C12A 1_555 1_555

#END
