
#######################################################################
#
#                 Cambridge Crystallographic Data Centre
#                                CCDC 
#
#######################################################################
#
# If this CIF has been generated from an entry in the Cambridge 
# Structural Database, then it will include bibliographic, chemical, 
# crystal, experimental, refinement or atomic coordinate data resulting 
# from the CCDC's data processing and validation procedures.
#
#######################################################################

data_RUYTEK
_symmetry_cell_setting           monoclinic
_symmetry_space_group_name_H-M   'P 21/c'
_symmetry_Int_Tables_number      14
_space_group_name_Hall           '-P 2ybc'
loop_
_symmetry_equiv_pos_site_id
_symmetry_equiv_pos_as_xyz
1 x,y,z
2 x,1/2-y,1/2+z
3 -x,-y,-z
4 -x,1/2+y,1/2-z
_cell_length_a                   14.054(3)
_cell_length_b                   13.700(3)
_cell_length_c                   15.920(3)
_cell_angle_alpha                90.00
_cell_angle_beta                 114.16(3)
_cell_angle_gamma                90.00
_cell_volume                     2796.74
loop_
_atom_site_label
_atom_site_type_symbol
_atom_site_fract_x
_atom_site_fract_y
_atom_site_fract_z
I1 I 0.26256(4) 0.61147(4) 0.02414(3)
I2 I 0.00685(4) 0.41492(4) -0.11716(3)
I3 I 0.56671(4) 0.44165(5) 0.14129(4)
Br1 Br 0.30138(5) 0.31278(5) -0.07760(5)
Br2 Br 0.22344(6) 0.36654(6) 0.14543(5)
Cu1 Cu 0.24177(6) 0.15634(6) -0.03176(5)
Cu2 Cu 0.40893(9) 0.51395(11) 0.00610(8)
Cu3 Cu 0.22778(13) 0.42239(10) -0.00235(10)
Cu4 Cu 0.09941(16) 0.48856(16) 0.05662(11)
C1 C 0.5157(6) 0.1526(7) 0.2193(5)
H1 H 0.5507 0.1944 0.2683
N1 N 0.0978(4) 0.1628(4) -0.1299(4)
N2 N 0.1602(5) 0.1318(4) 0.0501(4)
N3 N 0.2765(4) 0.0206(4) -0.0780(4)
C2 C 0.4957(5) -0.0054(6) 0.1457(5)
C3 C 0.3868(5) -0.1197(5) -0.0127(5)
C4 C 0.2547(6) -0.1247(6) -0.1663(5)
H2 H 0.2196 -0.1574 -0.2216
C5 C 0.5236(6) -0.1036(6) 0.1408(6)
H3 H 0.5797 -0.1305 0.1900
C6 C 0.5480(5) 0.0564(6) 0.2219(5)
H4 H 0.6037 0.0328 0.2734
N4 N 0.3787(4) 0.1281(4) 0.0719(4)
C7 C 0.0547(6) 0.1363(5) -0.0022(5)
C8 C 0.0222(5) 0.1499(5) -0.0986(5)
C9 C 0.4114(5) 0.0353(5) 0.0729(4)
C10 C 0.3561(5) -0.0222(5) -0.0084(4)
C11 C 0.2284(5) -0.0280(5) -0.1556(4)
H5 H 0.1755 0.0027 -0.2046
C12 C 0.4707(6) -0.1591(6) 0.0662(6)
H6 H 0.4890 -0.2243 0.0661
C13 C -0.0851(5) 0.1479(5) -0.1586(5)
C14 C 0.3337(6) -0.1707(5) -0.0932(6)
H7 H 0.3507 -0.2354 -0.0985
C15 C 0.4300(6) 0.1859(6) 0.1422(5)
H8 H 0.4086 0.2504 0.1405
C16 C 0.1915(7) 0.1159(6) 0.1398(5)
H9 H 0.2629 0.1132 0.1756
C17 C 0.0713(6) 0.1749(6) -0.2192(5)
H10 H 0.1226 0.1872 -0.2405
C18 C -0.0203(6) 0.1252(6) 0.0343(6)
C19 C -0.1584(6) 0.1385(6) -0.1189(8)
H11 H -0.2291 0.1381 -0.1574
C20 C -0.1105(6) 0.1561(6) -0.2520(6)
H12 H -0.1798 0.1525 -0.2941
C21 C 0.1253(8) 0.1033(7) 0.1837(6)
H13 H 0.1516 0.0909 0.2466
C22 C -0.0337(7) 0.1694(6) -0.2820(5)
H14 H -0.0507 0.1750 -0.3447
C23 C 0.0188(8) 0.1095(7) 0.1315(7)
H15 H -0.0273 0.1035 0.1597
C24 C -0.1290(7) 0.1301(7) -0.0270(8)
H16 H -0.1795 0.1275 -0.0033
Cu2B Cu 0.59107(9) 0.48605(11) -0.00610(8)
I3B I 0.43329(4) 0.55835(5) -0.14129(4)
Cu4B Cu -0.09941(16) 0.51144(16) -0.05662(11)
I2B I -0.00685(4) 0.58508(4) 0.11716(3)
loop_
_geom_bond_atom_site_label_1
_geom_bond_atom_site_label_2
_geom_bond_site_symmetry_1
_geom_bond_site_symmetry_2
I1 Cu2 1_555 1_555
I2 Cu3 1_555 1_555
I3 Cu2 1_555 1_555
Br1 Cu1 1_555 1_555
Br2 Cu3 1_555 1_555
Cu1 N1 1_555 1_555
Cu2 I3B 1_555 1_555
Cu3 I1 1_555 1_555
Cu4 I1 1_555 1_555
C1 H1 1_555 1_555
N1 C8 1_555 1_555
N2 Cu1 1_555 1_555
N3 Cu1 1_555 1_555
C2 C5 1_555 1_555
C3 C10 1_555 1_555
C4 H2 1_555 1_555
C5 H3 1_555 1_555
C6 C1 1_555 1_555
H4 C6 1_555 1_555
N4 Cu1 1_555 1_555
C7 N2 1_555 1_555
C8 C7 1_555 1_555
C9 C2 1_555 1_555
C10 N3 1_555 1_555
C11 N3 1_555 1_555
H5 C11 1_555 1_555
C12 C3 1_555 1_555
H6 C12 1_555 1_555
C13 C8 1_555 1_555
C14 C3 1_555 1_555
H7 C14 1_555 1_555
C15 C1 1_555 1_555
H8 C15 1_555 1_555
C16 N2 1_555 1_555
H9 C16 1_555 1_555
C17 N1 1_555 1_555
H10 C17 1_555 1_555
C18 C7 1_555 1_555
C19 C13 1_555 1_555
H11 C19 1_555 1_555
C20 C13 1_555 1_555
H12 C20 1_555 1_555
C21 C16 1_555 1_555
H13 C21 1_555 1_555
C22 C17 1_555 1_555
H14 C22 1_555 1_555
C23 C18 1_555 1_555
H15 C23 1_555 1_555
C24 C18 1_555 1_555
H16 C24 1_555 1_555
Cu2B I3 1_555 1_555
I3B Cu2B 1_555 1_555
Cu4B I2 1_555 1_555
I2B Cu4 1_555 1_555
I2 Cu4 1_555 1_555
Br1 Cu3 1_555 1_555
Br2 Cu4 1_555 1_555
C2 C6 1_555 1_555
C4 C11 1_555 1_555
C4 C14 1_555 1_555
C5 C12 1_555 1_555
N4 C9 1_555 1_555
N4 C15 1_555 1_555
C9 C10 1_555 1_555
C19 C24 1_555 1_555
C20 C22 1_555 1_555
C21 C23 1_555 1_555
Cu4B I2B 1_555 1_555

#END
