
#######################################################################
#
#                 Cambridge Crystallographic Data Centre
#                                CCDC 
#
#######################################################################
#
# If this CIF has been generated from an entry in the Cambridge 
# Structural Database, then it will include bibliographic, chemical, 
# crystal, experimental, refinement or atomic coordinate data resulting 
# from the CCDC's data processing and validation procedures.
#
#######################################################################

data_RUZBIY
_symmetry_cell_setting           monoclinic
_symmetry_space_group_name_H-M   'C 2/c'
_symmetry_Int_Tables_number      15
_space_group_name_Hall           '-C 2yn'
loop_
_symmetry_equiv_pos_site_id
_symmetry_equiv_pos_as_xyz
1 x,y,z
2 -x,y,1/2-z
3 1/2+x,1/2+y,z
4 1/2-x,1/2+y,1/2-z
5 -x,-y,-z
6 x,-y,1/2+z
7 1/2-x,1/2-y,-z
8 1/2+x,1/2-y,1/2+z
_cell_length_a                   10.8849(17)
_cell_length_b                   13.219(3)
_cell_length_c                   15.299(5)
_cell_angle_alpha                90
_cell_angle_beta                 102.23(2)
_cell_angle_gamma                90
_cell_volume                     2151.38
loop_
_atom_site_label
_atom_site_type_symbol
_atom_site_fract_x
_atom_site_fract_y
_atom_site_fract_z
O1 O -0.1210(2) 0.23086(17) 0.41629(15)
H1 H -0.1166 0.2669 0.4605
H2 H -0.1252 0.2771 0.3662
O2 O 0.0728(2) -0.13520(16) 0.34992(13)
H3 H 0.0816 -0.1865 0.3638
H4 H 0.1056 -0.0933 0.3976
C1 C -0.1677(3) -0.1181(2) 0.58442(18)
H5 H -0.092 -0.0963 0.6257
H6 H -0.1653 -0.1912 0.5795
O3 O -0.1959(3) -0.12050(16) 0.42476(15)
O4 O 0.5306(2) -0.02420(16) -0.13587(15)
C2 C 0.5221(3) -0.1018(2) -0.09319(19)
C3 C 0.2846(2) -0.0859(2) -0.11976(17)
H7 H 0.291 -0.012 -0.1167
C4 C 0.4039(3) -0.1304(2) -0.06257(18)
H8 H 0.3966 -0.2035 -0.063
H9 H 0.4112 -0.1077 -0.0014
Zn1 Zn -0.23297(3) 0.10881(3) 0.39078(2)
Na1 Na -0.14974(12) -0.12359(9) 0.28372(8)
O5 O 0.61606(18) -0.16302(15) -0.06996(14)
O6 O 0.20910(19) -0.05730(16) -0.27586(12)
C5 C 0.2700(2) -0.11764(19) -0.21653(18)
O7 O 0.3164(2) -0.19747(15) -0.23678(14)
O8 O -0.1611(2) 0.02683(15) 0.49478(13)
C6 C -0.1739(2) -0.0703(2) 0.49305(18)
O9 O -0.3806(2) -0.13146(19) 0.2193(2)
H10 H -0.4265 -0.0784 0.1931
H11 H -0.4412 -0.1762 0.208
O1A O 0.1210(2) 0.23086(17) 0.08371(15)
H1A H 0.1166 0.2669 0.0395
H2A H 0.1252 0.2771 0.1338
O2A O -0.0728(2) -0.13520(16) 0.15008(13)
H3A H -0.0816 -0.1865 0.1362
H4A H -0.1056 -0.0933 0.1024
C1A C 0.1677(3) -0.1181(2) -0.08442(18)
H5A H 0.092 -0.0963 -0.1257
H6A H 0.1653 -0.1912 -0.0795
O3A O 0.1959(3) -0.12050(16) 0.07524(15)
O4A O -0.5306(2) -0.02420(16) 0.63587(15)
C2A C -0.5221(3) -0.1018(2) 0.59319(19)
C3A C -0.2846(2) -0.0859(2) 0.61976(17)
H7A H -0.291 -0.012 0.6167
C4A C -0.4039(3) -0.1304(2) 0.56257(18)
H8A H -0.3966 -0.2035 0.563
H9A H -0.4112 -0.1077 0.5014
Zn1D Zn 0.23297(3) -0.10881(3) -0.39078(2)
Zn1A Zn 0.23297(3) 0.10881(3) 0.10922(2)
Zn1D_2 Zn -0.76703(3) -0.10881(3) 0.60922(2)
Zn1E Zn 0.76703(3) -0.10881(3) -0.10922(2)
Zn1E_2 Zn -0.23297(3) -0.10881(3) 0.89078(2)
Na1D Na 0.14974(12) 0.12359(9) -0.28372(8)
Na1A Na 0.14974(12) -0.12359(9) 0.21628(8)
Na1G Na 0.35026(12) -0.37641(9) -0.21628(8)
Na1E Na -0.14974(12) 0.12359(9) 0.78372(8)
Na1F Na -0.35026(12) -0.37641(9) 0.71628(8)
O5E O -0.38394(18) 0.16302(15) 0.43004(14)
O5D O 0.38394(18) 0.16302(15) 0.06996(14)
O5A O -0.61606(18) -0.16302(15) 0.56996(14)
O6D O -0.20910(19) 0.05730(16) 0.27586(12)
O6E O 0.20910(19) 0.05730(16) 0.22414(12)
O6A O -0.20910(19) -0.05730(16) 0.77586(12)
C5A C -0.2700(2) -0.11764(19) 0.71653(18)
O7G O -0.1836(2) -0.30253(15) 0.26322(14)
O7F O 0.1836(2) -0.30253(15) 0.23678(14)
O7A O -0.3164(2) -0.19747(15) 0.73678(14)
O8A O 0.1611(2) 0.02683(15) 0.00522(13)
C6A C 0.1739(2) -0.0703(2) 0.00695(18)
O9A O 0.3806(2) -0.13146(19) 0.2807(2)
H10A H 0.4265 -0.0784 0.3069
H11A H 0.4412 -0.1762 0.292
loop_
_geom_bond_atom_site_label_1
_geom_bond_atom_site_label_2
_geom_bond_site_symmetry_1
_geom_bond_site_symmetry_2
O1 H1 1_555 1_555
H2 O1 1_555 1_555
O2 H3 1_555 1_555
H4 O2 1_555 1_555
C1 H5 1_555 1_555
H6 C1 1_555 1_555
O3 Na1 1_555 1_555
O4 C2 1_555 1_555
C2 C4 1_555 1_555
C3 H7 1_555 1_555
C4 C3 1_555 1_555
H8 C4 1_555 1_555
H9 C4 1_555 1_555
Zn1 O1 1_555 1_555
Na1 O2 1_555 1_555
O5 C2 1_555 1_555
O6 C5 1_555 1_555
C5 C3 1_555 1_555
O7 C5 1_555 1_555
O8 Zn1 1_555 1_555
C6 C1 1_555 1_555
O9 Na1 1_555 1_555
H10 O9 1_555 1_555
H11 O9 1_555 1_555
O1A H1A 1_555 1_555
H2A O1A 1_555 1_555
O2A Na1 1_555 1_555
H3A O2A 1_555 1_555
H4A O2A 1_555 1_555
C1A C3 1_555 1_555
H5A C1A 1_555 1_555
H6A C1A 1_555 1_555
O3A Na1A 1_555 1_555
O4A C2A 1_555 1_555
C2A C4A 1_555 1_555
C3A C1 1_555 1_555
H7A C3A 1_555 1_555
C4A C3A 1_555 1_555
H8A C4A 1_555 1_555
H9A C4A 1_555 1_555
Zn1D O6 1_555 1_555
Zn1A O1A 1_555 1_555
Zn1D_2 O5A 1_555 1_555
Zn1E O5 1_555 1_555
Zn1E_2 O6A 1_555 1_555
Na1D O6 1_555 1_555
Na1A O2 1_555 1_555
Na1G O7 1_555 1_555
Na1E O6A 1_555 1_555
Na1F O7A 1_555 1_555
O5E Zn1 1_555 1_555
O5D Zn1A 1_555 1_555
O5A C2A 1_555 1_555
O6D Zn1 1_555 1_555
O6E Zn1A 1_555 1_555
O6A C5A 1_555 1_555
C5A C3A 1_555 1_555
O7G Na1 1_555 1_555
O7F Na1A 1_555 1_555
O7A C5A 1_555 1_555
O8A Zn1A 1_555 1_555
C6A C1A 1_555 1_555
O9A Na1A 1_555 1_555
H10A O9A 1_555 1_555
H11A O9A 1_555 1_555
O3 C6 1_555 1_555
Na1 O6D 1_555 1_555
O8 C6 1_555 1_555
O2A Na1A 1_555 1_555
O3A C6A 1_555 1_555
Na1A O6E 1_555 1_555
O8A C6A 1_555 1_555

#END
