
#######################################################################
#
#                 Cambridge Crystallographic Data Centre
#                                CCDC 
#
#######################################################################
#
# If this CIF has been generated from an entry in the Cambridge 
# Structural Database, then it will include bibliographic, chemical, 
# crystal, experimental, refinement or atomic coordinate data resulting 
# from the CCDC's data processing and validation procedures.
#
#######################################################################

data_RUZDOG
_symmetry_cell_setting           triclinic
_symmetry_space_group_name_H-M   'P -1'
_symmetry_Int_Tables_number      2
_space_group_name_Hall           '-P 1'
loop_
_symmetry_equiv_pos_site_id
_symmetry_equiv_pos_as_xyz
1 x,y,z
2 -x,-y,-z
_cell_length_a                   10.148(2)
_cell_length_b                   10.585(2)
_cell_length_c                   13.006(3)
_cell_angle_alpha                70.117(2)
_cell_angle_beta                 73.485(2)
_cell_angle_gamma                68.018(2)
_cell_volume                     1198.37
loop_
_atom_site_label
_atom_site_type_symbol
_atom_site_fract_x
_atom_site_fract_y
_atom_site_fract_z
Cd1 Cd 0.916038(17) 0.436931(19) 0.211936(14)
O1 O 0.8526(2) 0.3533(3) 0.08686(18)
O2 O 0.6742(2) 0.4506(3) 0.2043(2)
O3 O 0.1712(2) 0.4563(3) 0.2245(2)
O4 O 0.14170(19) 0.3370(2) 0.12846(16)
O5 O 0.5496(3) 0.1054(4) -0.1193(3)
O6 O 0.7622(3) 0.0717(4) -0.1028(3)
O7 O 0.9348(2) 0.2201(2) 0.34625(17)
H1 H 0.8898 0.1771 0.3311
H2 H 0.9092 0.2341 0.4106
O8 O 0.9070(2) 0.6481(2) 0.07371(16)
H3 H 0.9951 0.6455 0.0547
H4 H 0.8657 0.6528 0.0235
N1 N 0.8088(2) 0.5534(2) 0.34798(18)
N2 N 0.1953(3) 0.9323(3) 0.7061(2)
C1 C 0.6515(3) 0.7152(3) 0.5007(2)
C2 C 0.5851(3) 0.6603(4) 0.4531(3)
H5 H 0.4857 0.6770 0.4718
C3 C 0.6653(3) 0.5824(4) 0.3795(3)
H6 H 0.6178 0.5473 0.3493
C4 C 0.8737(3) 0.6041(3) 0.3937(2)
H7 H 0.9734 0.5853 0.3736
C5 C 0.8001(3) 0.6830(3) 0.4694(2)
H8 H 0.8505 0.7149 0.4996
C6 C 0.5691(3) 0.8039(3) 0.5770(2)
H9 H 0.6198 0.8360 0.6068
C7 C 0.4267(3) 0.8413(3) 0.6061(2)
H10 H 0.3794 0.8076 0.5746
C8 C 0.3343(3) 0.9284(3) 0.6813(2)
C9 C 0.1049(3) 1.0063(4) 0.7769(3)
H11 H 0.0090 1.0074 0.7954
C10 C 0.1451(4) 1.0808(3) 0.8239(3)
H12 H 0.0781 1.1316 0.8725
C11 C 0.2863(3) 1.0786(3) 0.7974(2)
H13 H 0.3165 1.1289 0.8277
C12 C 0.3832(3) 1.0018(3) 0.7259(2)
H14 H 0.4796 0.9988 0.7075
C13 C 0.7221(3) 0.3869(3) 0.1300(2)
C14 C 0.6196(3) 0.3440(3) 0.0944(2)
C15 C 0.4739(3) 0.3823(3) 0.1390(2)
H15 H 0.4392 0.4376 0.1891
C16 C 0.3787(3) 0.3398(3) 0.1103(2)
C17 C 0.2198(3) 0.3819(3) 0.1587(2)
C18 C 0.4311(3) 0.2567(3) 0.0358(2)
H16 H 0.3693 0.2269 0.0154
C19 C 0.5773(3) 0.2194(3) -0.0071(2)
N3 N 0.6329(3) 0.1272(3) -0.0821(2)
C20 C 0.6725(3) 0.2621(3) 0.0205(2)
H17 H 0.7703 0.2360 -0.0102
Cd1_2 Cd -0.083962(17) 0.436931(19) 0.211936(14)
O3_2 O 1.1712(2) 0.4563(3) 0.2245(2)
O4_2 O 1.14170(19) 0.3370(2) 0.12846(16)
O9 O 0.2281(3) 0.0420(3) 0.3162(2)
H18 H 0.1438 0.0977 0.3310
H19 H 0.2595 0.0381 0.2491
N4 N 0.7952(5) 0.2176(4) 0.5592(3)
C21 C 0.7375(9) 0.3729(8) 0.7015(6)
H20 H 0.6375 0.3870 0.7349
H21 H 0.7534 0.4629 0.6650
H22 H 0.7961 0.3221 0.7579
C22 C 0.7784(16) 0.2879(14) 0.6161(10)
loop_
_geom_bond_atom_site_label_1
_geom_bond_atom_site_label_2
_geom_bond_site_symmetry_1
_geom_bond_site_symmetry_2
Cd1 O1 1_555 1_555
O1 C13 1_555 1_555
O2 Cd1 1_555 1_555
O3 C17 1_555 1_555
O4 C17 1_555 1_555
O5 N3 1_555 1_555
O6 N3 1_555 1_555
O7 Cd1 1_555 1_555
H1 O7 1_555 1_555
H2 O7 1_555 1_555
O8 Cd1 1_555 1_555
H3 O8 1_555 1_555
H4 O8 1_555 1_555
N1 Cd1 1_555 1_555
N2 C8 1_555 1_555
C1 C2 1_555 1_555
C2 H5 1_555 1_555
C3 N1 1_555 1_555
H6 C3 1_555 1_555
C4 N1 1_555 1_555
H7 C4 1_555 1_555
C5 C1 1_555 1_555
H8 C5 1_555 1_555
C6 C1 1_555 1_555
H9 C6 1_555 1_555
C7 C6 1_555 1_555
H10 C7 1_555 1_555
C8 C7 1_555 1_555
C9 N2 1_555 1_555
H11 C9 1_555 1_555
C10 C9 1_555 1_555
H12 C10 1_555 1_555
C11 C10 1_555 1_555
H13 C11 1_555 1_555
C12 C8 1_555 1_555
H14 C12 1_555 1_555
C13 O2 1_555 1_555
C14 C13 1_555 1_555
C15 C14 1_555 1_555
H15 C15 1_555 1_555
C16 C15 1_555 1_555
C17 C16 1_555 1_555
C18 C16 1_555 1_555
H16 C18 1_555 1_555
C19 C18 1_555 1_555
N3 C19 1_555 1_555
C20 C14 1_555 1_555
H17 C20 1_555 1_555
O9 H18 1_555 1_555
H19 O9 1_555 1_555
N4 C22 1_555 1_555
C21 H20 1_555 1_555
H21 C21 1_555 1_555
H22 C21 1_555 1_555
C22 C21 1_555 1_555
Cd1_2 O3 1_555 1_555
O3_2 Cd1 1_555 1_555
O4_2 Cd1 1_555 1_555
O4 Cd1_2 1_555 1_555
C2 C3 1_555 1_555
C4 C5 1_555 1_555
C11 C12 1_555 1_555
C19 C20 1_555 1_555

#END
