
#######################################################################
#
#                 Cambridge Crystallographic Data Centre
#                                CCDC 
#
#######################################################################
#
# If this CIF has been generated from an entry in the Cambridge 
# Structural Database, then it will include bibliographic, chemical, 
# crystal, experimental, refinement or atomic coordinate data resulting 
# from the CCDC's data processing and validation procedures.
#
#######################################################################

data_RUZFUO
_symmetry_cell_setting           monoclinic
_symmetry_space_group_name_H-M   'C 2/c'
_symmetry_Int_Tables_number      15
_space_group_name_Hall           '-C 2yn'
loop_
_symmetry_equiv_pos_site_id
_symmetry_equiv_pos_as_xyz
1 x,y,z
2 -x,y,1/2-z
3 1/2+x,1/2+y,z
4 1/2-x,1/2+y,1/2-z
5 -x,-y,-z
6 x,-y,1/2+z
7 1/2-x,1/2-y,-z
8 1/2+x,1/2-y,1/2+z
_cell_length_a                   16.590(6)
_cell_length_b                   9.220(4)
_cell_length_c                   19.780(8)
_cell_angle_alpha                90
_cell_angle_beta                 103.710(16)
_cell_angle_gamma                90
_cell_volume                     2939.34
loop_
_atom_site_label
_atom_site_type_symbol
_atom_site_fract_x
_atom_site_fract_y
_atom_site_fract_z
Cu1 Cu 0.2500 0.2500 0.5000
C1 C 0.3703(3) 0.3711(5) 0.2899(2)
H1 H 0.4035 0.4368 0.3198
C2 C 0.3795(3) 0.3536(6) 0.2225(2)
H2 H 0.4198 0.4069 0.2078
C3 C 0.3308(3) 0.2599(5) 0.1775(2)
H3 H 0.3369 0.2509 0.1321
C4 C 0.2738(3) 0.1804(5) 0.1993(2)
H4 H 0.2402 0.1163 0.1688
C5 C 0.2649(2) 0.1936(4) 0.26649(16)
H5 H 0.2265 0.1355 0.2812
C6 C 0.3117(2) 0.2908(4) 0.31251(16)
C7 C 0.3008(2) 0.3036(4) 0.38630(17)
C8 C 0.0779(2) 0.3014(4) 0.41648(16)
C9 C 0.0688(3) 0.1509(4) 0.3917(2)
H6 H 0.0152 0.1383 0.3608
H7 H 0.0743 0.0866 0.4307
H8 H 0.1111 0.1294 0.3675
C10 C 0.0456(2) 0.5295(4) 0.43074(16)
C11 C 0.0096(2) 0.6649(4) 0.4314(2)
H9 H -0.0436 0.6843 0.4050
C12 C 0.0555(3) 0.7684(4) 0.4726(2)
H10 H 0.0329 0.8602 0.4745
C13 C 0.1355(3) 0.7399(4) 0.5118(2)
H11 H 0.1650 0.8138 0.5388
C14 C 0.1722(2) 0.6055(4) 0.51175(17)
H12 H 0.2255 0.5871 0.5381
C15 C 0.1257(2) 0.5001(4) 0.47074(16)
C16 C -0.0628(2) 0.3835(5) 0.34631(19)
H13 H -0.1056 0.4358 0.3622
H14 H -0.0777 0.2815 0.3431
C17 C -0.0589(3) 0.4379(6) 0.2760(2)
H15 H -0.1130 0.4285 0.2443
H16 H -0.0440 0.5398 0.2791
N1 N 0.14423(16) 0.3545(3) 0.46045(12)
N2 N 0.01684(16) 0.4018(3) 0.39700(13)
O1 O 0.33166(18) 0.4067(3) 0.42305(13)
O2 O 0.25959(14) 0.2038(3) 0.40586(11)
O3 O 0.0000 0.3590(5) 0.2500
Cu1A Cu -0.2500 0.2500 0.0000
C1F C 0.1297(3) 0.1289(5) 0.7101(2)
H1F H 0.0965 0.0632 0.6802
C2F C 0.1205(3) 0.1464(6) 0.7775(2)
H2F H 0.0802 0.0931 0.7922
C3F C 0.1692(3) 0.2401(5) 0.8225(2)
H3F H 0.1631 0.2491 0.8679
C4F C 0.2262(3) 0.3196(5) 0.8007(2)
H4F H 0.2598 0.3837 0.8312
C5F C 0.2351(2) 0.3064(4) 0.73351(16)
H5F H 0.2735 0.3645 0.7188
C6F C 0.1883(2) 0.2092(4) 0.68749(16)
C7F C 0.1992(2) 0.1964(4) 0.61370(17)
C8A C -0.0779(2) 0.3014(4) 0.08352(16)
C9A C -0.0688(3) 0.1509(4) 0.1083(2)
H6A H -0.0152 0.1383 0.1392
H7A H -0.0743 0.0866 0.0693
H8A H -0.1111 0.1294 0.1325
C10A C -0.0456(2) 0.5295(4) 0.06926(16)
C11A C -0.0096(2) 0.6649(4) 0.0686(2)
H9A H 0.0436 0.6843 0.0950
C12A C -0.0555(3) 0.7684(4) 0.0274(2)
H10A H -0.0329 0.8602 0.0255
C13A C -0.1355(3) 0.7399(4) -0.0118(2)
H11A H -0.1650 0.8138 -0.0388
C14A C -0.1722(2) 0.6055(4) -0.01175(17)
H12A H -0.2255 0.5871 -0.0381
C15A C -0.1257(2) 0.5001(4) 0.02926(16)
C16A C 0.0628(2) 0.3835(5) 0.15369(19)
H13A H 0.1056 0.4358 0.1378
H14A H 0.0777 0.2815 0.1569
C17A C 0.0589(3) 0.4379(6) 0.2240(2)
H15A H 0.1130 0.4285 0.2557
H16A H 0.0440 0.5398 0.2209
N1A N -0.14423(16) 0.3545(3) 0.03955(12)
N1F N 0.35577(16) 0.1455(3) 0.53955(12)
N2A N -0.01684(16) 0.4018(3) 0.10300(13)
O1F O 0.16834(18) 0.0933(3) 0.57695(13)
O2F O 0.24041(14) 0.2962(3) 0.59414(11)
loop_
_geom_bond_atom_site_label_1
_geom_bond_atom_site_label_2
_geom_bond_site_symmetry_1
_geom_bond_site_symmetry_2
Cu1 N1 1_555 1_555
C1 H1 1_555 1_555
C2 C1 1_555 1_555
H2 C2 1_555 1_555
C3 C2 1_555 1_555
H3 C3 1_555 1_555
C4 C3 1_555 1_555
H4 C4 1_555 1_555
C5 C4 1_555 1_555
H5 C5 1_555 1_555
C6 C1 1_555 1_555
C7 C6 1_555 1_555
C8 C9 1_555 1_555
C9 H6 1_555 1_555
H7 C9 1_555 1_555
H8 C9 1_555 1_555
C10 C11 1_555 1_555
C11 H9 1_555 1_555
C12 C11 1_555 1_555
H10 C12 1_555 1_555
C13 C12 1_555 1_555
H11 C13 1_555 1_555
C14 C13 1_555 1_555
H12 C14 1_555 1_555
C15 C10 1_555 1_555
C16 H13 1_555 1_555
H14 C16 1_555 1_555
C17 C16 1_555 1_555
H15 C17 1_555 1_555
H16 C17 1_555 1_555
N1 C8 1_555 1_555
N2 C8 1_555 1_555
O1 Cu1 1_555 1_555
O2 Cu1 1_555 1_555
O3 C17 1_555 1_555
Cu1A N1A 1_555 1_555
C1F H1F 1_555 1_555
C2F C1F 1_555 1_555
H2F C2F 1_555 1_555
C3F C2F 1_555 1_555
H3F C3F 1_555 1_555
C4F C3F 1_555 1_555
H4F C4F 1_555 1_555
C5F C4F 1_555 1_555
H5F C5F 1_555 1_555
C6F C1F 1_555 1_555
C7F C6F 1_555 1_555
C8A C9A 1_555 1_555
C9A H6A 1_555 1_555
H7A C9A 1_555 1_555
H8A C9A 1_555 1_555
C10A C11A 1_555 1_555
C11A H9A 1_555 1_555
C12A C11A 1_555 1_555
H10A C12A 1_555 1_555
C13A C12A 1_555 1_555
H11A C13A 1_555 1_555
C14A C13A 1_555 1_555
H12A C14A 1_555 1_555
C15A C10A 1_555 1_555
C16A H13A 1_555 1_555
H14A C16A 1_555 1_555
C17A O3 1_555 1_555
H15A C17A 1_555 1_555
H16A C17A 1_555 1_555
N1A C8A 1_555 1_555
N1F Cu1 1_555 1_555
N2A C8A 1_555 1_555
O1F Cu1 1_555 1_555
O2F Cu1 1_555 1_555
C5 C6 1_555 1_555
C7 O1 1_555 1_555
C7 O2 1_555 1_555
C10 N2 1_555 1_555
C14 C15 1_555 1_555
C15 N1 1_555 1_555
C16 N2 1_555 1_555
C5F C6F 1_555 1_555
C7F O1F 1_555 1_555
C7F O2F 1_555 1_555
C10A N2A 1_555 1_555
C14A C15A 1_555 1_555
C15A N1A 1_555 1_555
C16A C17A 1_555 1_555
C16A N2A 1_555 1_555

#END
