
#######################################################################
#
#                 Cambridge Crystallographic Data Centre
#                                CCDC 
#
#######################################################################
#
# If this CIF has been generated from an entry in the Cambridge 
# Structural Database, then it will include bibliographic, chemical, 
# crystal, experimental, refinement or atomic coordinate data resulting 
# from the CCDC's data processing and validation procedures.
#
#######################################################################

data_RUZFAU
_symmetry_cell_setting           monoclinic
_symmetry_space_group_name_H-M   'C 2/c'
_symmetry_Int_Tables_number      15
_space_group_name_Hall           '-C 2yn'
loop_
_symmetry_equiv_pos_site_id
_symmetry_equiv_pos_as_xyz
1 x,y,z
2 -x,y,1/2-z
3 1/2+x,1/2+y,z
4 1/2-x,1/2+y,1/2-z
5 -x,-y,-z
6 x,-y,1/2+z
7 1/2-x,1/2-y,-z
8 1/2+x,1/2-y,1/2+z
_cell_length_a                   21.0224(11)
_cell_length_b                   10.5976(6)
_cell_length_c                   23.2756(12)
_cell_angle_alpha                90
_cell_angle_beta                 108.5710(10)
_cell_angle_gamma                90
_cell_volume                     4915.49
loop_
_atom_site_label
_atom_site_type_symbol
_atom_site_fract_x
_atom_site_fract_y
_atom_site_fract_z
Cd1 Cd 0.055835(12) 0.69716(3) 0.830398(12)
Br1 Br 0.08098(2) 1.07029(6) 0.62301(3)
O1 O 0.07572(15) 0.8323(3) 0.76036(14)
O2 O 0.04077(14) 0.7858(3) 0.66238(14)
O3 O 0.34916(13) 1.0897(3) 0.67586(14)
O4 O 0.39396(14) 0.9619(3) 0.75489(15)
O5 O 0.0000 0.5715(3) 0.7500
H1 H -0.0336 0.5334 0.7546
O6 O 0.04818(17) 0.5402(3) 0.89711(14)
H2 H 0.0714 0.4758 0.8948
H3 H 0.0078 0.5273 0.8956
C1 C 0.08225(18) 0.8286(4) 0.70970(19)
C2 C 0.14864(18) 0.8776(4) 0.70639(18)
C3 C 0.15658(18) 0.9789(4) 0.67154(18)
C4 C 0.21971(19) 1.0203(4) 0.67337(19)
H4 H 0.2238 1.0880 0.6494
C5 C 0.27643(18) 0.9618(4) 0.71054(18)
C6 C 0.34510(19) 1.0085(4) 0.71367(19)
C7 C 0.2693(2) 0.8604(4) 0.7452(2)
H5 H 0.3072 0.8184 0.7696
C8 C 0.2064(2) 0.8210(4) 0.7440(2)
H6 H 0.2025 0.7548 0.7690
C9 C 0.2070(3) 0.9826(4) 0.99002(16)
C10 C 0.23428(15) 0.8945(5) 0.9603(2)
H7 H 0.2805 0.8896 0.9688
C11 C 0.19242(14) 0.8135(3) 0.91788(18)
H8 H 0.2107 0.7546 0.8980
N1 N 0.12328(13) 0.8207(3) 0.90513(13)
C12 C 0.09599(18) 0.9089(4) 0.93483(18)
H9 H 0.0497 0.9137 0.9263
C13 C 0.1378(3) 0.9898(4) 0.97728(18)
H10 H 0.1196 1.0488 0.9971
C14 C 0.2285(5) 1.0932(9) 1.0350(4)
H11 H 0.1984 1.1455 1.0456
C15 C 0.2956(5) 1.1057(10) 1.0572(4)
H12 H 0.3244 1.0535 1.0450
C16 C 0.32108(19) 1.2082(3) 1.10273(14)
N2 N 0.3895(2) 1.1842(3) 1.11914(15)
C17 C 0.43473(16) 1.2633(3) 1.15994(17)
H13 H 0.4805 1.2473 1.1709
C18 C 0.4114(2) 1.3664(3) 1.18434(16)
H14 H 0.4417 1.4193 1.2116
C19 C 0.3430(2) 1.3903(3) 1.16794(17)
H15 H 0.3274 1.4593 1.1843
C20 C 0.29779(16) 1.3112(4) 1.12713(17)
H16 H 0.2520 1.3273 1.1162
Cd1A Cd -0.055835(12) 0.69716(3) 0.669602(12)
Cd1C Cd 0.444165(12) 1.19716(3) 0.669602(12)
Cd1B Cd -0.444165(12) 1.19716(3) 0.830398(12)
Br1A Br -0.08098(2) 1.07029(6) 0.87699(3)
O1A O -0.07572(15) 0.8323(3) 0.73964(14)
O2A O -0.04077(14) 0.7858(3) 0.83762(14)
O3A O -0.34916(13) 1.0897(3) 0.82414(14)
O3C O 0.15084(13) 0.5897(3) 0.82414(14)
O3B O -0.15084(13) 0.5897(3) 0.67586(14)
O4A O -0.39396(14) 0.9619(3) 0.74511(15)
H1A H 0.0336 0.5334 0.7454
O6A O -0.04818(17) 0.5402(3) 0.60289(14)
H2A H -0.0714 0.4758 0.6052
H3A H -0.0078 0.5273 0.6044
C1A C -0.08225(18) 0.8286(4) 0.79030(19)
C2A C -0.14864(18) 0.8776(4) 0.79361(18)
C3A C -0.15658(18) 0.9789(4) 0.82846(18)
C4A C -0.21971(19) 1.0203(4) 0.82663(19)
H4A H -0.2238 1.0880 0.8506
C5A C -0.27643(18) 0.9618(4) 0.78946(18)
C6A C -0.34510(19) 1.0085(4) 0.78633(19)
C7A C -0.2693(2) 0.8604(4) 0.7548(2)
H5A H -0.3072 0.8184 0.7304
C8A C -0.2064(2) 0.8210(4) 0.7560(2)
H6A H -0.2025 0.7548 0.7310
C9A C -0.2070(3) 0.9826(4) 0.50998(16)
C10A C -0.23428(15) 0.8945(5) 0.5397(2)
H7A H -0.2805 0.8896 0.5312
C11A C -0.19242(14) 0.8135(3) 0.58212(18)
H8A H -0.2107 0.7546 0.6020
N1A N -0.12328(13) 0.8207(3) 0.59487(13)
C12A C -0.09599(18) 0.9089(4) 0.56517(18)
H9A H -0.0497 0.9137 0.5737
C13A C -0.1378(3) 0.9898(4) 0.52272(18)
H10A H -0.1196 1.0488 0.5029
C14A C -0.2285(5) 1.0932(9) 0.4650(4)
H11A H -0.1984 1.1455 0.4544
C15A C -0.2956(5) 1.1057(10) 0.4428(4)
H12A H -0.3244 1.0535 0.4550
C16A C -0.32108(19) 1.2082(3) 0.39727(14)
N2A N -0.3895(2) 1.1842(3) 0.38086(15)
C17A C -0.43473(16) 1.2633(3) 0.34006(17)
H13A H -0.4805 1.2473 0.3291
C18A C -0.4114(2) 1.3664(3) 0.31566(16)
H14A H -0.4417 1.4193 0.2884
C19A C -0.3430(2) 1.3903(3) 0.33206(17)
H15A H -0.3274 1.4593 0.3157
C20A C -0.29779(16) 1.3112(4) 0.37287(17)
H16A H -0.2520 1.3273 0.3838
O7 O 0.9181(4) 0.4590(8) 0.8787(3)
H17 H 0.8865 0.4431 0.8930
H18 H 0.9077 0.4626 0.8403
O8 O 0.9012(8) 0.7224(13) 0.9303(8)
O9 O 0.070(2) 0.661(2) 0.0128(9)
C21? C 0.2736(4) 1.0407(9) 1.0307(4)
C22? C 0.2625(5) 1.1408(9) 1.0612(4)
H19? H 0.3159 1.0099 1.0336
H20? H 0.2190 1.1677 1.0565
O10? O 0.954(2) 0.727(2) 0.9840(17)
loop_
_geom_bond_atom_site_label_1
_geom_bond_atom_site_label_2
_geom_bond_site_symmetry_1
_geom_bond_site_symmetry_2
Cd1 O1 1_555 1_555
Br1 C3 1_555 1_555
O1 C1 1_555 1_555
O2 C1 1_555 1_555
O3 C6 1_555 1_555
O4 C6 1_555 1_555
O5 Cd1 1_555 1_555
H1 O5 1_555 1_555
O6 Cd1 1_555 1_555
H2 O6 1_555 1_555
H3 O6 1_555 1_555
C1 C2 1_555 1_555
C2 C3 1_555 1_555
C3 C4 1_555 1_555
C4 H4 1_555 1_555
C5 C4 1_555 1_555
C6 C5 1_555 1_555
C7 C5 1_555 1_555
H5 C7 1_555 1_555
C8 C2 1_555 1_555
H6 C8 1_555 1_555
C9 C10 1_555 1_555
C10 H7 1_555 1_555
C11 C10 1_555 1_555
H8 C11 1_555 1_555
N1 Cd1 1_555 1_555
C12 N1 1_555 1_555
H9 C12 1_555 1_555
C13 C9 1_555 1_555
H10 C13 1_555 1_555
C14 C9 1_555 1_555
H11 C14 1_555 1_555
C15 C14 1_555 1_555
H12 C15 1_555 1_555
C16 C15 1_555 1_555
N2 C16 1_555 1_555
C17 N2 1_555 1_555
H13 C17 1_555 1_555
C18 C17 1_555 1_555
H14 C18 1_555 1_555
C19 C18 1_555 1_555
H15 C19 1_555 1_555
C20 C16 1_555 1_555
H16 C20 1_555 1_555
O7 H17 1_555 1_555
H18 O7 1_555 1_555
Cd1A O2 1_555 1_555
Cd1C O3 1_555 1_555
Cd1B O3A 1_555 1_555
Br1A C3A 1_555 1_555
O1A Cd1A 1_555 1_555
O2A Cd1 1_555 1_555
O3A C6A 1_555 1_555
O3C Cd1 1_555 1_555
O3B Cd1A 1_555 1_555
O4A C6A 1_555 1_555
H1A O5 1_555 1_555
O6A Cd1A 1_555 1_555
H2A O6A 1_555 1_555
H3A O6A 1_555 1_555
C1A O1A 1_555 1_555
C2A C1A 1_555 1_555
C3A C2A 1_555 1_555
C4A C3A 1_555 1_555
H4A C4A 1_555 1_555
C5A C4A 1_555 1_555
C6A C5A 1_555 1_555
C7A C5A 1_555 1_555
H5A C7A 1_555 1_555
C8A C2A 1_555 1_555
H6A C8A 1_555 1_555
C9A C10A 1_555 1_555
C10A H7A 1_555 1_555
C11A C10A 1_555 1_555
H8A C11A 1_555 1_555
N1A Cd1A 1_555 1_555
C12A N1A 1_555 1_555
H9A C12A 1_555 1_555
C13A C9A 1_555 1_555
H10A C13A 1_555 1_555
C14A C9A 1_555 1_555
H11A C14A 1_555 1_555
C15A C14A 1_555 1_555
H12A C15A 1_555 1_555
C16A C15A 1_555 1_555
N2A C16A 1_555 1_555
C17A N2A 1_555 1_555
H13A C17A 1_555 1_555
C18A C17A 1_555 1_555
H14A C18A 1_555 1_555
C19A C18A 1_555 1_555
H15A C19A 1_555 1_555
C20A C16A 1_555 1_555
H16A C20A 1_555 1_555
O5 Cd1A 1_555 1_555
C7 C8 1_555 1_555
C11 N1 1_555 1_555
C12 C13 1_555 1_555
C19 C20 1_555 1_555
O2A C1A 1_555 1_555
C7A C8A 1_555 1_555
C11A N1A 1_555 1_555
C12A C13A 1_555 1_555
C19A C20A 1_555 1_555

#END
