
#######################################################################
#
#                 Cambridge Crystallographic Data Centre
#                                CCDC 
#
#######################################################################
#
# If this CIF has been generated from an entry in the Cambridge 
# Structural Database, then it will include bibliographic, chemical, 
# crystal, experimental, refinement or atomic coordinate data resulting 
# from the CCDC's data processing and validation procedures.
#
#######################################################################

data_RUZGID
_symmetry_cell_setting           triclinic
_symmetry_space_group_name_H-M   'P -1'
_symmetry_Int_Tables_number      2
_space_group_name_Hall           '-P 1'
loop_
_symmetry_equiv_pos_site_id
_symmetry_equiv_pos_as_xyz
1 x,y,z
2 -x,-y,-z
_cell_length_a                   10.1410(3)
_cell_length_b                   11.1760(6)
_cell_length_c                   16.869(3)
_cell_angle_alpha                92.476(3)
_cell_angle_beta                 101.048(5)
_cell_angle_gamma                93.040(2)
_cell_volume                     1871.01
loop_
_atom_site_label
_atom_site_type_symbol
_atom_site_fract_x
_atom_site_fract_y
_atom_site_fract_z
Cd1 Cd -0.614527(18) 0.186596(17) 0.310334(12)
Cd2 Cd 0.050037(17) 0.155739(15) 0.133510(11)
C1 C -0.1957(2) 0.0400(3) 0.12663(16)
C2 C -0.3316(2) -0.0197(2) 0.12499(16)
C3 C -0.3517(3) -0.1428(2) 0.1188(2)
H1 H -0.2796 -0.1896 0.1155
C4 C -0.4770(3) -0.1977(3) 0.1174(2)
H2 H -0.4890 -0.2809 0.1139
C5 C -0.5847(3) -0.1289(2) 0.1213(2)
H3 H -0.6699 -0.1657 0.1190
C6 C -0.5657(2) -0.0052(2) 0.12871(16)
C7 C -0.6809(2) 0.0687(2) 0.13646(16)
C8 C -0.4389(2) 0.0494(2) 0.13119(15)
H4 H -0.4259 0.1326 0.1370
C9 C 0.1251(3) 0.0975(2) 0.32849(18)
C10 C 0.0029(2) 0.0420(2) 0.35334(16)
C11 C 0.0127(3) -0.0587(2) 0.39862(18)
H5 H 0.0957 -0.0910 0.4143
C12 C -0.0999(3) -0.1112(3) 0.4205(2)
H6 H -0.0934 -0.1808 0.4489
C13 C -0.2220(3) -0.0611(3) 0.4005(2)
H7 H -0.2973 -0.0966 0.4162
C14 C -0.2339(2) 0.0418(2) 0.35716(16)
C15 C -0.1210(2) 0.0925(2) 0.33325(16)
H8 H -0.1280 0.1609 0.3036
C16 C -0.3661(3) 0.1002(3) 0.33902(17)
C17 C -0.4139(3) 0.4793(3) 0.22657(19)
H9 H -0.3991 0.4761 0.1720
H10 H -0.3728 0.4137 0.2546
H11 H -0.3749 0.5538 0.2537
C18 C -0.5641(3) 0.4704(2) 0.22565(16)
H12 H -0.6047 0.5361 0.1962
H13 H -0.6028 0.3962 0.1964
C19 C -0.5996(2) 0.4736(2) 0.30730(16)
C20 C -0.6595(2) 0.4208(2) 0.41849(15)
C21 C -0.6998(3) 0.3591(3) 0.47995(17)
H14 H -0.7093 0.2758 0.4773
C22 C -0.7257(3) 0.4267(3) 0.54588(19)
H15 H -0.7546 0.3882 0.5878
C23 C -0.7087(3) 0.5518(3) 0.54970(19)
H16 H -0.7247 0.5945 0.5951
C24 C -0.6694(3) 0.6138(3) 0.48895(18)
H17 H -0.6591 0.6971 0.4918
C25 C -0.6460(2) 0.5454(3) 0.42286(16)
C26 C -0.5821(3) 0.7002(2) 0.32958(18)
H18 H -0.5368 0.6987 0.2839
H19 H -0.5226 0.7440 0.3746
C27 C -0.7097(3) 0.7652(3) 0.30788(19)
H20 H -0.7587 0.7637 0.3519
H21 H -0.6883 0.8482 0.2982
C28 C -0.9232(3) 0.7287(3) 0.2243(2)
H22 H -0.9321 0.8143 0.2202
H23 H -0.9599 0.7043 0.2705
C29 C -1.0022(3) 0.6648(2) 0.15007(17)
H24 H -1.0947 0.6521 0.1568
H25 H -1.0020 0.7158 0.1050
C30 C -0.8656(2) 0.5324(2) 0.07772(15)
C31 C -0.8060(3) 0.6105(2) 0.03164(16)
H26 H -0.8251 0.6910 0.0304
C32 C -0.7174(3) 0.5647(2) -0.01227(17)
H27 H -0.6745 0.6154 -0.0431
C33 C -0.6905(3) 0.4436(3) -0.01150(16)
H28 H -0.6287 0.4156 -0.0410
C34 C -0.7533(2) 0.3647(2) 0.03185(16)
H29 H -0.7367 0.2837 0.0310
C35 C -0.8427(2) 0.4104(2) 0.07709(14)
C36 C -0.9813(2) 0.4403(2) 0.15823(15)
C37 C -1.0709(3) 0.4222(2) 0.21759(17)
H30 H -1.1153 0.3424 0.2074
H31 H -1.1400 0.4796 0.2090
C38 C -0.9981(3) 0.4358(3) 0.30493(19)
H32 H -1.0615 0.4225 0.3398
H33 H -0.9562 0.5154 0.3161
H34 H -0.9307 0.3782 0.3143
N1 N -0.62937(19) 0.37827(19) 0.34548(13)
N2 N -0.6071(2) 0.57750(19) 0.35154(14)
N3 N -0.9531(2) 0.54895(17) 0.12963(13)
N4 N -0.91694(19) 0.35417(17) 0.12755(12)
O1 O -0.18134(17) 0.15201(17) 0.12846(13)
O2 O -0.09661(16) -0.02485(17) 0.12681(11)
O3 O 0.11353(19) 0.16562(18) 0.27106(12)
O4 O 0.23909(18) 0.07652(19) 0.36844(14)
O5 O -0.4705(2) 0.0414(2) 0.35018(15)
O6 O -0.37102(19) 0.20260(19) 0.31272(13)
O7 O -0.79797(17) 0.02842(17) 0.10404(13)
O8 O -0.65925(17) 0.16939(15) 0.17475(11)
O9 O -0.78959(19) 0.70634(17) 0.23683(12)
O11 O -0.0163(2) 0.13824(17) -0.01100(12)
H36 H 0.036(3) 0.115(3) -0.0389(16)
H37 H -0.082(2) 0.096(3) -0.0169(12)
Cd1_2 Cd 0.385473(18) 0.186596(17) 0.310334(12)
Cd2_2 Cd -0.949963(17) 0.155739(15) 0.133510(11)
N4_2 N 0.08306(19) 0.35417(17) 0.12755(12)
O3_2 O -0.88647(19) 0.16562(18) 0.27106(12)
O4_2 O -0.76091(18) 0.07652(19) 0.36844(14)
O7_2 O 0.20203(17) 0.02842(17) 0.10404(13)
O10 O -0.5373(7) 0.9051(5) 0.4804(4)
H35 H -0.620(2) 0.917(5) 0.472(3)
loop_
_geom_bond_atom_site_label_1
_geom_bond_atom_site_label_2
_geom_bond_site_symmetry_1
_geom_bond_site_symmetry_2
Cd1 N1 1_555 1_555
Cd2 O1 1_555 1_555
C1 C2 1_555 1_555
C2 C3 1_555 1_555
C3 H1 1_555 1_555
C4 C3 1_555 1_555
H2 C4 1_555 1_555
C5 C4 1_555 1_555
H3 C5 1_555 1_555
C6 C5 1_555 1_555
C7 C6 1_555 1_555
C8 C2 1_555 1_555
H4 C8 1_555 1_555
C9 C10 1_555 1_555
C10 C11 1_555 1_555
C11 H5 1_555 1_555
C12 C11 1_555 1_555
H6 C12 1_555 1_555
C13 C12 1_555 1_555
H7 C13 1_555 1_555
C14 C13 1_555 1_555
C15 C10 1_555 1_555
H8 C15 1_555 1_555
C16 C14 1_555 1_555
C17 H9 1_555 1_555
H10 C17 1_555 1_555
H11 C17 1_555 1_555
C18 C17 1_555 1_555
H12 C18 1_555 1_555
H13 C18 1_555 1_555
C19 C18 1_555 1_555
C20 C21 1_555 1_555
C21 H14 1_555 1_555
C22 C21 1_555 1_555
H15 C22 1_555 1_555
C23 C22 1_555 1_555
H16 C23 1_555 1_555
C24 C23 1_555 1_555
H17 C24 1_555 1_555
C25 C20 1_555 1_555
C26 H18 1_555 1_555
H19 C26 1_555 1_555
C27 C26 1_555 1_555
H20 C27 1_555 1_555
H21 C27 1_555 1_555
C28 H22 1_555 1_555
H23 C28 1_555 1_555
C29 C28 1_555 1_555
H24 C29 1_555 1_555
H25 C29 1_555 1_555
C30 C31 1_555 1_555
C31 H26 1_555 1_555
C32 C31 1_555 1_555
H27 C32 1_555 1_555
C33 C32 1_555 1_555
H28 C33 1_555 1_555
C34 C33 1_555 1_555
H29 C34 1_555 1_555
C35 C30 1_555 1_555
C36 C37 1_555 1_555
C37 H30 1_555 1_555
H31 C37 1_555 1_555
C38 C37 1_555 1_555
H32 C38 1_555 1_555
H33 C38 1_555 1_555
H34 C38 1_555 1_555
N1 C19 1_555 1_555
N2 C19 1_555 1_555
N3 C29 1_555 1_555
N4 C35 1_555 1_555
O1 C1 1_555 1_555
O2 Cd2 1_555 1_555
O3 Cd2 1_555 1_555
O4 C9 1_555 1_555
O5 Cd1 1_555 1_555
O6 Cd1 1_555 1_555
O7 C7 1_555 1_555
O8 Cd1 1_555 1_555
O9 C27 1_555 1_555
O10 H35 1_555 1_555
O11 Cd2 1_555 1_555
H36 O11 1_555 1_555
H37 O11 1_555 1_555
Cd1_2 O3 1_555 1_555
Cd2_2 N4 1_555 1_555
N4_2 Cd2 1_555 1_555
O3_2 Cd1 1_555 1_555
O4_2 Cd1 1_555 1_555
O7_2 Cd2 1_555 1_555
C1 O2 1_555 1_555
C6 C8 1_555 1_555
C7 O8 1_555 1_555
C9 O3 1_555 1_555
C14 C15 1_555 1_555
C16 O5 1_555 1_555
C16 O6 1_555 1_555
C20 N1 1_555 1_555
C24 C25 1_555 1_555
C25 N2 1_555 1_555
C26 N2 1_555 1_555
C28 O9 1_555 1_555
C30 N3 1_555 1_555
C34 C35 1_555 1_555
C36 N3 1_555 1_555
C36 N4 1_555 1_555
O4 Cd1_2 1_555 1_555
O7 Cd2_2 1_555 1_555
Cd2_2 O3_2 1_555 1_555

#END
