
#######################################################################
#
#                 Cambridge Crystallographic Data Centre
#                                CCDC 
#
#######################################################################
#
# If this CIF has been generated from an entry in the Cambridge 
# Structural Database, then it will include bibliographic, chemical, 
# crystal, experimental, refinement or atomic coordinate data resulting 
# from the CCDC's data processing and validation procedures.
#
#######################################################################

data_RUZGOJ
_symmetry_cell_setting           monoclinic
_symmetry_space_group_name_H-M   'P 21/n'
_symmetry_Int_Tables_number      14
_space_group_name_Hall           '-P 2yn'
loop_
_symmetry_equiv_pos_site_id
_symmetry_equiv_pos_as_xyz
1 x,y,z
2 1/2-x,1/2+y,1/2-z
3 -x,-y,-z
4 1/2+x,1/2-y,1/2+z
_cell_length_a                   14.134(3)
_cell_length_b                   9.572(3)
_cell_length_c                   19.686(5)
_cell_angle_alpha                90
_cell_angle_beta                 91.913(13)
_cell_angle_gamma                90
_cell_volume                     2661.85
loop_
_atom_site_label
_atom_site_type_symbol
_atom_site_fract_x
_atom_site_fract_y
_atom_site_fract_z
Zn1 Zn 0.84859(2) 0.27254(3) 0.024702(16)
C1 C 0.80064(18) -0.4531(3) -0.00442(14)
C2 C 0.72850(18) -0.3387(3) 0.00051(13)
C3 C 0.63325(18) -0.3733(3) 0.00124(13)
H1 H 0.6148 -0.4661 -0.0036
C4 C 0.56533(18) -0.2706(3) 0.00908(14)
C5 C 0.59396(19) -0.1331(3) 0.01942(14)
H2 H 0.5492 -0.0645 0.0278
C6 C 0.68915(18) -0.0975(2) 0.01729(13)
C7 C 0.75668(18) -0.1995(3) 0.00719(13)
H3 H 0.8202 -0.1755 0.0049
C8 C 0.71767(19) 0.0531(3) 0.02554(14)
C9 C 1.0362(2) 0.1590(4) 0.12193(17)
H4 H 1.0866 0.1385 0.1543
H5 H 1.0617 0.2027 0.0827
H6 H 1.0048 0.0738 0.1086
C10 C 0.9675(2) 0.2544(3) 0.15308(15)
C11 C 0.84802(19) 0.3919(3) 0.16960(14)
C12 C 0.7660(2) 0.4716(3) 0.16403(17)
H7 H 0.7284 0.4713 0.1243
C13 C 0.7422(2) 0.5512(4) 0.21945(18)
H8 H 0.6882 0.6066 0.2168
C14 C 0.7977(2) 0.5498(4) 0.27921(18)
H9 H 0.7793 0.6036 0.3158
C15 C 0.8793(2) 0.4709(3) 0.28564(16)
H10 H 0.9163 0.4703 0.3256
C16 C 0.9034(2) 0.3925(3) 0.22933(15)
C17 C 1.0590(2) 0.2799(3) 0.26461(17)
H11 H 1.0805 0.3686 0.2833
H12 H 1.1106 0.2397 0.2399
C18 C 1.0351(2) 0.1835(3) 0.32227(16)
H13 H 1.0892 0.1751 0.3536
H14 H 0.9828 0.2220 0.3469
C19 C 1.0082(2) -0.0507(3) 0.34889(15)
H15 H 0.9715 -0.0156 0.3860
H16 H 1.0722 -0.0683 0.3662
C20 C 0.9653(2) -0.1839(3) 0.32239(15)
H17 H 0.9626 -0.2507 0.3593
H18 H 0.9010 -0.1657 0.3061
C21 C 0.9127(3) -0.1597(4) 0.17072(19)
H19 H 0.8776 -0.1202 0.2069
H20 H 0.8734 -0.2247 0.1456
H21 H 0.9325 -0.0866 0.1410
C22 C 0.9974(2) -0.2337(3) 0.19961(16)
C23 C 1.1243(2) -0.3581(3) 0.20888(15)
C24 C 1.2044(2) -0.4415(4) 0.19905(19)
H22 H 1.2232 -0.4641 0.1556
C25 C 1.2542(2) -0.4887(4) 0.2555(2)
H23 H 1.3069 -0.5450 0.2498
C26 C 1.2280(2) -0.4546(4) 0.32101(19)
H24 H 1.2635 -0.4885 0.3580
C27 C 1.1502(2) -0.3715(3) 0.33194(16)
H25 H 1.1326 -0.3479 0.3756
C28 C 1.0995(2) -0.3251(3) 0.27495(14)
N1 N 0.88987(16) 0.3035(2) 0.12247(12)
N2 N 0.97898(17) 0.3046(3) 0.21750(12)
N3 N 1.01825(18) -0.2448(2) 0.26745(13)
N4 N 1.0599(2) -0.2985(3) 0.16263(13)
O1 O 0.88521(15) -0.4262(2) -0.00659(15)
O2 O 0.76644(13) -0.57695(18) -0.00525(11)
O3 O 0.96478(15) 0.2649(2) -0.02873(12)
O4 O 0.47289(14) -0.3122(2) 0.00789(12)
O5 O 0.65837(15) 0.1392(2) 0.04438(12)
O6 O 0.80303(14) 0.08204(19) 0.01261(12)
O7 O 1.01010(14) 0.0505(2) 0.29640(10)
H26 H 0.951(3) 0.284(4) -0.067(2)
H27 H 1.003(3) 0.309(4) -0.014(2)
H28 H 0.435(3) -0.233(4) -0.0023(19)
Zn1_2 Zn 0.84859(2) -0.72746(3) 0.024702(16)
O2_2 O 0.76644(13) 0.42305(18) -0.00525(11)
loop_
_geom_bond_atom_site_label_1
_geom_bond_atom_site_label_2
_geom_bond_site_symmetry_1
_geom_bond_site_symmetry_2
Zn1 N1 1_555 1_555
C1 C2 1_555 1_555
C2 C3 1_555 1_555
C3 H1 1_555 1_555
C4 C3 1_555 1_555
C5 C4 1_555 1_555
H2 C5 1_555 1_555
C6 C5 1_555 1_555
C7 C2 1_555 1_555
H3 C7 1_555 1_555
C8 C6 1_555 1_555
C9 H4 1_555 1_555
H5 C9 1_555 1_555
H6 C9 1_555 1_555
C10 C9 1_555 1_555
C11 C12 1_555 1_555
C12 H7 1_555 1_555
C13 C12 1_555 1_555
H8 C13 1_555 1_555
C14 C13 1_555 1_555
H9 C14 1_555 1_555
C15 C14 1_555 1_555
H10 C15 1_555 1_555
C16 C11 1_555 1_555
C17 H11 1_555 1_555
H12 C17 1_555 1_555
C18 C17 1_555 1_555
H13 C18 1_555 1_555
H14 C18 1_555 1_555
C19 H15 1_555 1_555
H16 C19 1_555 1_555
C20 C19 1_555 1_555
H17 C20 1_555 1_555
H18 C20 1_555 1_555
C21 H19 1_555 1_555
H20 C21 1_555 1_555
H21 C21 1_555 1_555
C22 C21 1_555 1_555
C23 C24 1_555 1_555
C24 H22 1_555 1_555
C25 C24 1_555 1_555
H23 C25 1_555 1_555
C26 C25 1_555 1_555
H24 C26 1_555 1_555
C27 C26 1_555 1_555
H25 C27 1_555 1_555
C28 C23 1_555 1_555
N1 C10 1_555 1_555
N2 C10 1_555 1_555
N3 C20 1_555 1_555
N4 C22 1_555 1_555
O1 C1 1_555 1_555
O2 C1 1_555 1_555
O3 Zn1 1_555 1_555
O4 C4 1_555 1_555
O5 C8 1_555 1_555
O6 Zn1 1_555 1_555
O7 C18 1_555 1_555
H26 O3 1_555 1_555
H27 O3 1_555 1_555
H28 O4 1_555 1_555
Zn1_2 O2 1_555 1_555
O2_2 Zn1 1_555 1_555
C6 C7 1_555 1_555
C8 O6 1_555 1_555
C11 N1 1_555 1_555
C15 C16 1_555 1_555
C16 N2 1_555 1_555
C17 N2 1_555 1_555
C19 O7 1_555 1_555
C22 N3 1_555 1_555
C23 N4 1_555 1_555
C27 C28 1_555 1_555
C28 N3 1_555 1_555

#END
