
#######################################################################
#
#                 Cambridge Crystallographic Data Centre
#                                CCDC 
#
#######################################################################
#
# If this CIF has been generated from an entry in the Cambridge 
# Structural Database, then it will include bibliographic, chemical, 
# crystal, experimental, refinement or atomic coordinate data resulting 
# from the CCDC's data processing and validation procedures.
#
#######################################################################

data_RUZGEZ
_symmetry_cell_setting           monoclinic
_symmetry_space_group_name_H-M   'P 21/c'
_symmetry_Int_Tables_number      14
_space_group_name_Hall           '-P 2ybc'
loop_
_symmetry_equiv_pos_site_id
_symmetry_equiv_pos_as_xyz
1 x,y,z
2 -x,1/2+y,1/2-z
3 -x,-y,-z
4 x,1/2-y,1/2+z
_cell_length_a                   18.716(4)
_cell_length_b                   10.151(3)
_cell_length_c                   18.548(5)
_cell_angle_alpha                90
_cell_angle_beta                 100.291(9)
_cell_angle_gamma                90
_cell_volume                     3467.17
loop_
_atom_site_label
_atom_site_type_symbol
_atom_site_fract_x
_atom_site_fract_y
_atom_site_fract_z
Zn1 Zn 0.20858(2) 0.07526(5) 0.84835(2)
Zn2 Zn 0.34125(2) 0.08363(4) 0.703191(19)
C1 C 0.1484(3) -0.3193(5) 0.8035(3)
C2 C 0.0992(3) -0.4092(6) 0.7667(3)
H1 H 0.1032 -0.4988 0.7772
C3 C 0.0453(3) -0.3614(7) 0.7149(3)
H2 H 0.0116 -0.4196 0.6893
C4 C 0.0389(3) -0.2281(7) 0.6991(3)
H3 H 0.0013 -0.1993 0.6627
C5 C 0.0870(2) -0.1364(5) 0.7359(2)
H4 H 0.0820 -0.0468 0.7258
C6 C 0.1431(2) -0.1848(4) 0.7885(2)
C7 C 0.2371(2) -0.2127(4) 0.8739(2)
C8 C 0.3040(3) -0.1897(5) 0.9292(3)
H5 H 0.3210 -0.2720 0.9515
H6 H 0.2932 -0.1305 0.9662
H7 H 0.3408 -0.1518 0.9057
C9 C 0.2372(3) -0.4592(5) 0.8919(3)
H8 H 0.1982 -0.5079 0.9079
H9 H 0.2740 -0.4419 0.9347
C10 C 0.2694(3) -0.5416(5) 0.8389(3)
H10 H 0.2890 -0.6220 0.8628
H11 H 0.2318 -0.5654 0.7979
C11 C 0.3457(3) -0.5378(5) 0.7532(3)
H12 H 0.3030 -0.5659 0.7191
H13 H 0.3741 -0.6154 0.7702
C12 C 0.3900(3) -0.4466(4) 0.7155(3)
H14 H 0.4354 -0.4276 0.7482
H15 H 0.4016 -0.4902 0.6725
C13 C 0.2885(2) -0.3073(4) 0.6431(2)
C14 C 0.2437(3) -0.3971(5) 0.5984(3)
H16 H 0.2546 -0.4865 0.5984
C15 C 0.1831(3) -0.3463(6) 0.5546(3)
H17 H 0.1510 -0.4032 0.5259
C16 C 0.1683(3) -0.2104(6) 0.5519(3)
H18 H 0.1273 -0.1793 0.5207
C17 C 0.2130(2) -0.1225(5) 0.5946(2)
H19 H 0.2033 -0.0326 0.5926
C18 C 0.2734(2) -0.1733(4) 0.6408(2)
C19 C 0.3731(2) -0.2028(4) 0.71986(18)
C20 C 0.4397(2) -0.1769(4) 0.7750(2)
H20 H 0.4642 -0.2585 0.7889
H21 H 0.4265 -0.1361 0.8175
H22 H 0.4713 -0.1193 0.7543
C21 C 0.1813(2) 0.1850(4) 0.70611(19)
C22 C 0.13177(19) 0.2407(4) 0.64107(18)
C23 C 0.1581(2) 0.2639(4) 0.57657(18)
H23 H 0.2062 0.2452 0.5741
C24 C 0.1123(2) 0.3152(4) 0.51599(18)
C25 C 0.1410(2) 0.3532(5) 0.44806(19)
C26 C 0.0408(2) 0.3422(5) 0.5198(2)
H24 H 0.0103 0.3773 0.4793
C27 C 0.0143(2) 0.3174(6) 0.5836(2)
H25 H -0.0343 0.3341 0.5854
C28 C 0.0598(2) 0.2678(5) 0.6448(2)
H26 H 0.0423 0.2529 0.6879
C29 C 0.3758(2) 0.1477(4) 0.85685(19)
C30 C 0.4247(2) 0.2132(4) 0.91895(17)
C31 C 0.4943(2) 0.2514(4) 0.9108(2)
H27 H 0.5111 0.2316 0.8679
C32 C 0.5384(2) 0.3187(5) 0.9664(2)
H28 H 0.5849 0.3438 0.9609
C33 C 0.5136(2) 0.3490(5) 1.0305(2)
H29 H 0.5433 0.3945 1.0679
C34 C 0.4447(2) 0.3116(4) 1.03888(18)
C35 C 0.4000(2) 0.2430(4) 0.98386(17)
H30 H 0.3539 0.2170 0.9901
C36 C 0.4182(2) 0.3547(4) 1.1070(2)
N1 N 0.19962(17) -0.1197(3) 0.83353(18)
N2 N 0.2085(2) -0.3324(4) 0.8594(2)
N3 N 0.35249(18) -0.3224(3) 0.69318(18)
N4 N 0.32740(16) -0.1102(3) 0.68996(15)
O1 O 0.32456(18) -0.4726(3) 0.81328(18)
O2 O 0.24223(18) 0.1504(4) 0.69901(17)
O3 O 0.15769(17) 0.1762(3) 0.76568(14)
O4 O 0.20354(19) 0.3249(5) 0.44348(17)
O5 O 0.1044(2) 0.4229(4) 0.40213(17)
O6 O 0.39819(15) 0.1427(3) 0.79646(12)
O7 O 0.31740(17) 0.1024(3) 0.86732(14)
O8 O 0.45503(17) 0.4258(3) 1.15275(14)
O9 O 0.35566(18) 0.3155(3) 1.11585(15)
Zn1C Zn 0.20858(2) 0.42474(5) 0.34835(2)
Zn2C Zn 0.34125(2) 0.41637(4) 1.203191(19)
O4C O 0.20354(19) 0.1751(5) 0.94348(17)
O5C O 0.1044(2) 0.0771(4) 0.90213(17)
O8C O 0.45503(17) 0.0742(3) 0.65275(14)
O9C O 0.35566(18) 0.1845(3) 0.61585(15)
loop_
_geom_bond_atom_site_label_1
_geom_bond_atom_site_label_2
_geom_bond_site_symmetry_1
_geom_bond_site_symmetry_2
Zn1 N1 1_555 1_555
Zn2 N4 1_555 1_555
C1 C2 1_555 1_555
C2 H1 1_555 1_555
C3 C2 1_555 1_555
H2 C3 1_555 1_555
C4 C3 1_555 1_555
H3 C4 1_555 1_555
C5 C4 1_555 1_555
H4 C5 1_555 1_555
C6 C1 1_555 1_555
C7 C8 1_555 1_555
C8 H5 1_555 1_555
H6 C8 1_555 1_555
H7 C8 1_555 1_555
C9 H8 1_555 1_555
H9 C9 1_555 1_555
C10 C9 1_555 1_555
H10 C10 1_555 1_555
H11 C10 1_555 1_555
C11 H12 1_555 1_555
H13 C11 1_555 1_555
C12 C11 1_555 1_555
H14 C12 1_555 1_555
H15 C12 1_555 1_555
C13 C14 1_555 1_555
C14 H16 1_555 1_555
C15 C14 1_555 1_555
H17 C15 1_555 1_555
C16 C15 1_555 1_555
H18 C16 1_555 1_555
C17 C16 1_555 1_555
H19 C17 1_555 1_555
C18 C13 1_555 1_555
C19 C20 1_555 1_555
C20 H20 1_555 1_555
H21 C20 1_555 1_555
H22 C20 1_555 1_555
C21 C22 1_555 1_555
C22 C23 1_555 1_555
C23 H23 1_555 1_555
C24 C23 1_555 1_555
C25 C24 1_555 1_555
C26 C24 1_555 1_555
H24 C26 1_555 1_555
C27 C26 1_555 1_555
H25 C27 1_555 1_555
C28 C22 1_555 1_555
H26 C28 1_555 1_555
C29 C30 1_555 1_555
C30 C31 1_555 1_555
C31 H27 1_555 1_555
C32 C31 1_555 1_555
H28 C32 1_555 1_555
C33 C32 1_555 1_555
H29 C33 1_555 1_555
C34 C33 1_555 1_555
C35 C30 1_555 1_555
H30 C35 1_555 1_555
C36 C34 1_555 1_555
N1 C6 1_555 1_555
N2 C1 1_555 1_555
N3 C12 1_555 1_555
N4 C18 1_555 1_555
O1 C10 1_555 1_555
O2 Zn2 1_555 1_555
O3 Zn1 1_555 1_555
O4 C25 1_555 1_555
O5 C25 1_555 1_555
O6 Zn2 1_555 1_555
O7 Zn1 1_555 1_555
O8 C36 1_555 1_555
O9 C36 1_555 1_555
Zn1C O4 1_555 1_555
Zn2C O8 1_555 1_555
O4C Zn1 1_555 1_555
O5C Zn1 1_555 1_555
O8C Zn2 1_555 1_555
O9C Zn2 1_555 1_555
C5 C6 1_555 1_555
C7 N1 1_555 1_555
C7 N2 1_555 1_555
C9 N2 1_555 1_555
C11 O1 1_555 1_555
C13 N3 1_555 1_555
C17 C18 1_555 1_555
C19 N3 1_555 1_555
C19 N4 1_555 1_555
C21 O2 1_555 1_555
C21 O3 1_555 1_555
C27 C28 1_555 1_555
C29 O6 1_555 1_555
C29 O7 1_555 1_555
C34 C35 1_555 1_555
O5 Zn1C 1_555 1_555
O9 Zn2C 1_555 1_555

#END
