
#######################################################################
#
#                 Cambridge Crystallographic Data Centre
#                                CCDC 
#
#######################################################################
#
# If this CIF has been generated from an entry in the Cambridge 
# Structural Database, then it will include bibliographic, chemical, 
# crystal, experimental, refinement or atomic coordinate data resulting 
# from the CCDC's data processing and validation procedures.
#
#######################################################################

data_RUZHIE
_symmetry_cell_setting           monoclinic
_symmetry_space_group_name_H-M   'P 21/c'
_symmetry_Int_Tables_number      14
_space_group_name_Hall           '-P 2ybc'
loop_
_symmetry_equiv_pos_site_id
_symmetry_equiv_pos_as_xyz
1 x,y,z
2 -x,1/2+y,1/2-z
3 -x,-y,-z
4 x,1/2-y,1/2+z
_cell_length_a                   11.661(2)
_cell_length_b                   7.4540(1)
_cell_length_c                   6.6740(1)
_cell_angle_alpha                90
_cell_angle_beta                 92.64(2)
_cell_angle_gamma                90
_cell_volume                     579.496
loop_
_atom_site_label
_atom_site_type_symbol
_atom_site_fract_x
_atom_site_fract_y
_atom_site_fract_z
Cd1 Cd 0.98306(3) 0.83648(5) 0.67532(5)
O1 O 0.7071(3) 0.5136(5) 0.2220(5)
O2 O 0.8697(4) 0.6526(5) 0.4704(6)
O3 O 0.8301(3) 0.4614(5) 0.7127(5)
O4 O 1.0605(4) 0.6226(5) 0.8676(5)
C1 C 0.5084(4) 0.4060(8) 0.1791(7)
H1 H 0.5144 0.3421 0.2988
C2 C 0.5943(5) 0.5954(7) -0.0647(7)
H2 H 0.6573 0.6582 -0.1087
C3 C 0.6022(4) 0.5025(7) 0.1157(7)
C4 C 0.7124(5) 0.4458(8) 0.4216(8)
H3 H 0.7197 0.3162 0.4182
H4 H 0.6416 0.4747 0.4855
C5 C 0.8134(4) 0.5249(7) 0.5439(7)
H5 H 1.125(6) 0.615(8) 0.858(9)
Cd1B Cd 0.01694(3) 0.16352(5) -0.67532(5)
Cd1C Cd 0.98306(3) 0.66352(5) 0.17532(5)
Cd1A Cd 1.01694(3) 0.33648(5) 0.82468(5)
Cd1C_2 Cd 0.98306(3) 0.66352(5) 1.17532(5)
Cd1A_2 Cd 0.01694(3) 0.33648(5) -0.17532(5)
Cd1C_3 Cd -0.01694(3) 0.66352(5) -0.82468(5)
Cd1B_2 Cd 1.01694(3) 1.16352(5) 0.32468(5)
O1B O 0.2929(3) 0.4864(5) -0.2220(5)
O2B O 0.1303(4) 0.3474(5) -0.4704(6)
O2C O 0.8697(4) 0.8474(5) 0.9704(6)
O2A O 0.1303(4) 0.1526(5) -0.9704(6)
O3B O 0.1699(3) 0.5386(5) -0.7127(5)
O3A O 1.1699(3) 0.9614(5) 0.7873(5)
O3C O -0.1699(3) 0.0386(5) -0.7873(5)
O4C O 1.0605(4) 0.8774(5) 0.3676(5)
O4A O 0.9395(4) 1.1226(5) 0.6324(5)
O4B O -0.0605(4) 0.3774(5) -0.8676(5)
O4A_2 O -0.0605(4) 0.1226(5) -0.3676(5)
O4C_2 O 0.0605(4) -0.1226(5) -0.6324(5)
C1B C 0.4916(4) 0.5940(8) -0.1791(7)
H1B H 0.4856 0.6579 -0.2988
C2B C 0.4057(5) 0.4046(7) 0.0647(7)
H2B H 0.3427 0.3418 0.1087
C3B C 0.3978(4) 0.4975(7) -0.1157(7)
C4B C 0.2876(5) 0.5542(8) -0.4216(8)
H3B H 0.2803 0.6838 -0.4182
H4B H 0.3584 0.5253 -0.4855
C5B C 0.1866(4) 0.4751(7) -0.5439(7)
H5C H 1.125(6) 0.885(8) 0.358(9)
H5A H 0.875(6) 1.115(8) 0.642(9)
H5B H -0.125(6) 0.385(8) -0.858(9)
H5A_2 H -0.125(6) 0.115(8) -0.358(9)
H5C_2 H 0.125(6) -0.115(8) -0.642(9)
loop_
_geom_bond_atom_site_label_1
_geom_bond_atom_site_label_2
_geom_bond_site_symmetry_1
_geom_bond_site_symmetry_2
Cd1 O2 1_555 1_555
O1 C3 1_555 1_555
O2 C5 1_555 1_555
O3 C5 1_555 1_555
O4 Cd1 1_555 1_555
C1 H1 1_555 1_555
C2 H2 1_555 1_555
C3 C1 1_555 1_555
C4 O1 1_555 1_555
H3 C4 1_555 1_555
H4 C4 1_555 1_555
C5 C4 1_555 1_555
H5 O4 1_555 1_555
Cd1B O2B 1_555 1_555
Cd1C O2 1_555 1_555
Cd1A O3 1_555 1_555
Cd1C_2 O4 1_555 1_555
Cd1A_2 O2B 1_555 1_555
Cd1C_3 O3B 1_555 1_555
Cd1B_2 O4C 1_555 1_555
O1B C3B 1_555 1_555
O2B C5B 1_555 1_555
O2C Cd1 1_555 1_555
O2A Cd1B 1_555 1_555
O3B C5B 1_555 1_555
O3A Cd1 1_555 1_555
O3C Cd1B 1_555 1_555
O4C Cd1 1_555 1_555
O4A Cd1 1_555 1_555
O4B Cd1B 1_555 1_555
O4A_2 Cd1B 1_555 1_555
O4C_2 Cd1B 1_555 1_555
C1B C2 1_555 1_555
H1B C1B 1_555 1_555
C2B C1 1_555 1_555
H2B C2B 1_555 1_555
C3B C1B 1_555 1_555
C4B O1B 1_555 1_555
H3B C4B 1_555 1_555
H4B C4B 1_555 1_555
C5B C4B 1_555 1_555
H5C O4C 1_555 1_555
H5A O4A 1_555 1_555
H5B O4B 1_555 1_555
H5A_2 O4A_2 1_555 1_555
H5C_2 O4C_2 1_555 1_555
O4 Cd1A 1_555 1_555
C2 C3 1_555 1_555
Cd1C O4C 1_555 1_555
Cd1C_2 O2C 1_555 1_555
Cd1A_2 O4A_2 1_555 1_555
Cd1C_3 O4B 1_555 1_555
Cd1B_2 O4A 1_555 1_555
C2B C3B 1_555 1_555

#END
