
#######################################################################
#
#                 Cambridge Crystallographic Data Centre
#                                CCDC 
#
#######################################################################
#
# If this CIF has been generated from an entry in the Cambridge 
# Structural Database, then it will include bibliographic, chemical, 
# crystal, experimental, refinement or atomic coordinate data resulting 
# from the CCDC's data processing and validation procedures.
#
#######################################################################

data_RUZHID
_symmetry_cell_setting           orthorhombic
_symmetry_space_group_name_H-M   'P n a 21'
_symmetry_Int_Tables_number      33
_space_group_name_Hall           'P 2c -2n'
loop_
_symmetry_equiv_pos_site_id
_symmetry_equiv_pos_as_xyz
1 x,y,z
2 -x,-y,1/2+z
3 1/2+x,1/2-y,z
4 1/2-x,1/2+y,1/2+z
_cell_length_a                   23.1803(15)
_cell_length_b                   10.1436(3)
_cell_length_c                   14.6585(7)
_cell_angle_alpha                90
_cell_angle_beta                 90
_cell_angle_gamma                90
_cell_volume                     3446.68
loop_
_atom_site_label
_atom_site_type_symbol
_atom_site_fract_x
_atom_site_fract_y
_atom_site_fract_z
Ca1 Ca 0.36976(8) 0.7542(2) 0.26158(19)
Cl1 Cl 0.23837(13) 0.7302(3) 0.3950(2)
Cl2 Cl 0.50847(12) 0.7643(3) 0.1474(2)
O1 O 0.2790(4) 0.7725(10) 0.3319(8)
O2 O 0.2321(7) 0.5931(14) 0.3895(19)
O3 O 0.2641(12) 0.7426(18) 0.4791(11)
O4 O 0.1912(7) 0.792(3) 0.390(2)
O5 O 0.4569(4) 0.7150(12) 0.1886(10)
O6 O 0.5562(5) 0.7368(13) 0.2032(11)
O7 O 0.5137(9) 0.714(3) 0.0642(14)
O8 O 0.5031(7) 0.9073(14) 0.1493(18)
O9 O 0.3876(3) 0.5659(7) 0.3465(6)
O10 O 0.4168(3) -0.1172(7) 0.3693(6)
O11 O 0.5940(4) 0.1340(9) 0.4014(7)
O12 O 0.5796(4) 0.4135(9) 0.4237(6)
N1 N 0.4671(4) 0.4612(9) 0.3982(9)
H1 H 0.4826 0.3743 0.4191
N2 N 0.4161(3) 0.2282(8) 0.3858(6)
N3 N 0.4866(4) 0.0286(9) 0.4061(9)
H2 H 0.4941 0.1219 0.4246
C1 C 0.4134(5) 0.4640(10) 0.3725(8)
C2 C 0.3822(4) 0.3369(11) 0.3775(8)
C3 C 0.3926(4) 0.1105(10) 0.3855(8)
C4 C 0.4336(5) -0.0023(12) 0.3880(8)
C5 C 0.3228(5) 0.3268(12) 0.3722(9)
H3 H 0.2982 0.4068 0.3641
C6 C 0.2986(5) 0.2027(12) 0.3784(10)
H4 H 0.2557 0.1928 0.3788
C7 C 0.3331(5) 0.0927(12) 0.3842(10)
H5 H 0.3158 0.0025 0.3873
C8 C 0.5364(5) -0.0592(12) 0.4022(12)
H6 H 0.5456 -0.0847 0.3343
H7 H 0.5281 -0.1459 0.4391
C9 C 0.5873(5) 0.0155(12) 0.4443(11)
H8 H 0.5797 0.0308 0.5141
H9 H 0.6251 -0.0406 0.4374
C10 C 0.6348(6) 0.2188(14) 0.4441(13)
H10 H 0.6765 0.1795 0.4369
H11 H 0.6256 0.2262 0.5141
C11 C 0.6323(6) 0.3548(15) 0.4006(14)
H12 H 0.6667 0.4129 0.4244
H13 H 0.6359 0.3466 0.3294
C12 C 0.5645(6) 0.5242(13) 0.3682(11)
H14 H 0.5624 0.4963 0.2993
H15 H 0.5954 0.5991 0.3749
C13 C 0.5070(5) 0.5720(12) 0.3998(10)
H16 H 0.5102 0.6100 0.4662
H17 H 0.4921 0.6473 0.3566
O13 O 0.3476(4) 0.9387(7) 0.1811(6)
O14 O 0.3268(3) 1.6240(7) 0.1539(6)
O15 O 0.1464(4) 1.3929(10) 0.1115(8)
O16 O 0.1535(4) 1.1131(9) 0.1434(7)
N4 N 0.2663(5) 1.0509(10) 0.1479(10)
H18 H 0.2518 1.1406 0.1313
N5 N 0.3215(4) 1.2784(8) 0.1447(7)
N6 N 0.2531(4) 1.4855(9) 0.1246(9)
H19 H 0.2441 1.3942 0.1030
C14 C 0.3223(4) 1.0412(11) 0.1601(8)
C15 C 0.3545(4) 1.1714(9) 0.1520(8)
C16 C 0.3473(5) 1.3958(9) 0.1393(8)
C17 C 0.3076(4) 1.5124(9) 0.1402(8)
C18 C 0.4132(5) 1.1752(11) 0.1539(9)
H20 H 0.4363 1.0926 0.1606
C19 C 0.4401(5) 1.2971(15) 0.1462(11)
H21 H 0.4832 1.3030 0.1465
C20 C 0.4070(5) 1.4110(11) 0.1380(9)
H22 H 0.4253 1.4998 0.1316
C21 C 0.2051(6) 1.5730(11) 0.1352(10)
H23 H 0.1955 1.6167 0.0721
H24 H 0.2162 1.6485 0.1810
C22 C 0.1531(6) 1.5031(14) 0.1697(13)
H25 H 0.1592 1.4729 0.2375
H26 H 0.1167 1.5645 0.1665
C23 C 0.0985(5) 1.3111(13) 0.1359(15)
H27 H 0.0600 1.3514 0.1108
H28 H 0.0953 1.3032 0.2071
C24 C 0.1093(5) 1.1778(13) 0.0941(14)
H29 H 0.0713 1.1213 0.0962
H30 H 0.1216 1.1887 0.0256
C25 C 0.1699(5) 0.9871(12) 0.1054(14)
H31 H 0.1780 0.9952 0.0351
H32 H 0.1373 0.9169 0.1157
C26 C 0.2230(6) 0.9500(12) 0.1552(14)
H33 H 0.2131 0.9343 0.2242
H34 H 0.2392 0.8614 0.1284
O10_2 O 0.4168(3) 0.8828(7) 0.3693(6)
O14_2 O 0.3268(3) 0.6240(7) 0.1539(6)
Ca1_2 Ca 0.36976(8) -0.2458(2) 0.26158(19)
Ca1_3 Ca 0.36976(8) 1.7542(2) 0.26158(19)
loop_
_geom_bond_atom_site_label_1
_geom_bond_atom_site_label_2
_geom_bond_site_symmetry_1
_geom_bond_site_symmetry_2
Ca1 O1 1_555 1_555
Cl1 O1 1_555 1_555
Cl2 O5 1_555 1_555
O2 Cl1 1_555 1_555
O3 Cl1 1_555 1_555
O4 Cl1 1_555 1_555
O5 Ca1 1_555 1_555
O6 Cl2 1_555 1_555
O7 Cl2 1_555 1_555
O8 Cl2 1_555 1_555
O9 Ca1 1_555 1_555
O10 C4 1_555 1_555
O11 C9 1_555 1_555
O12 C11 1_555 1_555
N1 H1 1_555 1_555
N2 C2 1_555 1_555
N3 H2 1_555 1_555
C1 O9 1_555 1_555
C2 C1 1_555 1_555
C3 N2 1_555 1_555
C4 N3 1_555 1_555
C5 C2 1_555 1_555
H3 C5 1_555 1_555
C6 C5 1_555 1_555
H4 C6 1_555 1_555
C7 C3 1_555 1_555
H5 C7 1_555 1_555
C8 N3 1_555 1_555
H6 C8 1_555 1_555
H7 C8 1_555 1_555
C9 C8 1_555 1_555
H8 C9 1_555 1_555
H9 C9 1_555 1_555
C10 O11 1_555 1_555
H10 C10 1_555 1_555
H11 C10 1_555 1_555
C11 C10 1_555 1_555
H12 C11 1_555 1_555
H13 C11 1_555 1_555
C12 O12 1_555 1_555
H14 C12 1_555 1_555
H15 C12 1_555 1_555
C13 N1 1_555 1_555
H16 C13 1_555 1_555
H17 C13 1_555 1_555
O13 Ca1 1_555 1_555
O14 C17 1_555 1_555
O15 C22 1_555 1_555
O16 C24 1_555 1_555
N4 H18 1_555 1_555
N5 C15 1_555 1_555
N6 H19 1_555 1_555
C14 O13 1_555 1_555
C15 C14 1_555 1_555
C16 N5 1_555 1_555
C17 N6 1_555 1_555
C18 C15 1_555 1_555
H20 C18 1_555 1_555
C19 C18 1_555 1_555
H21 C19 1_555 1_555
C20 C16 1_555 1_555
H22 C20 1_555 1_555
C21 N6 1_555 1_555
H23 C21 1_555 1_555
H24 C21 1_555 1_555
C22 C21 1_555 1_555
H25 C22 1_555 1_555
H26 C22 1_555 1_555
C23 O15 1_555 1_555
H27 C23 1_555 1_555
H28 C23 1_555 1_555
C24 C23 1_555 1_555
H29 C24 1_555 1_555
H30 C24 1_555 1_555
C25 O16 1_555 1_555
H31 C25 1_555 1_555
H32 C25 1_555 1_555
C26 N4 1_555 1_555
H33 C26 1_555 1_555
H34 C26 1_555 1_555
O10_2 Ca1 1_555 1_555
O14_2 Ca1 1_555 1_555
Ca1_2 O10 1_555 1_555
Ca1_3 O14 1_555 1_555
N1 C1 1_555 1_555
C3 C4 1_555 1_555
C6 C7 1_555 1_555
C12 C13 1_555 1_555
N4 C14 1_555 1_555
C16 C17 1_555 1_555
C19 C20 1_555 1_555
C25 C26 1_555 1_555

#END
