
#######################################################################
#
#                 Cambridge Crystallographic Data Centre
#                                CCDC 
#
#######################################################################
#
# If this CIF has been generated from an entry in the Cambridge 
# Structural Database, then it will include bibliographic, chemical, 
# crystal, experimental, refinement or atomic coordinate data resulting 
# from the CCDC's data processing and validation procedures.
#
#######################################################################

data_RUZKAZ
_symmetry_cell_setting           orthorhombic
_symmetry_space_group_name_H-M   'P b c a'
_symmetry_Int_Tables_number      61
_space_group_name_Hall           '-P 2ac 2ab'
loop_
_symmetry_equiv_pos_site_id
_symmetry_equiv_pos_as_xyz
1 x,y,z
2 1/2-x,-y,1/2+z
3 1/2+x,1/2-y,-z
4 -x,1/2+y,1/2-z
5 -x,-y,-z
6 1/2+x,y,1/2-z
7 1/2-x,1/2+y,z
8 x,1/2-y,1/2+z
_cell_length_a                   12.2706(4)
_cell_length_b                   15.3391(8)
_cell_length_c                   17.3953(4)
_cell_angle_alpha                90
_cell_angle_beta                 90
_cell_angle_gamma                90
_cell_volume                     3274.14
loop_
_atom_site_label
_atom_site_type_symbol
_atom_site_fract_x
_atom_site_fract_y
_atom_site_fract_z
Cu1 Cu 0.14605(5) 0.18092(4) 0.26389(3)
O1 O 0.3216(3) 0.2895(3) 0.3030(2)
O2 O 0.3818(3) 0.4149(3) 0.2693(3)
O3 O 0.2162(3) 0.4013(3) 0.3030(2)
O4 O -0.0049(3) 0.1029(3) 0.2102(2)
O5 O 0.0522(4) 0.0845(5) 0.0940(3)
O6 O -0.1129(4) 0.0979(4) 0.1153(3)
N1 N 0.2683(3) 0.1800(3) 0.05405(18)
N2 N 0.2110(3) 0.2563(3) 0.0440(2)
N3 N 0.1677(3) 0.2763(3) 0.1090(2)
N4 N 0.1957(3) 0.2170(3) 0.16244(19)
N5 N 0.2968(3) 0.0894(3) 0.1668(2)
N6 N 0.2523(5) 0.0858(4) 0.2443(2)
N7 N 0.6066(3) 0.1466(3) 0.1320(2)
N8 N 0.6265(3) 0.0784(3) 0.0840(2)
N9 N 0.5682(3) 0.0874(3) 0.02277(19)
N10 N 0.5101(3) 0.1638(3) 0.02994(18)
N11 N 0.4944(3) 0.2693(3) 0.1338(2)
N12 N 0.5448(4) 0.2801(3) 0.2092(2)
N13 N 0.3078(4) 0.3677(4) 0.2913(2)
N14 N -0.0224(4) 0.0942(3) 0.1404(3)
C1 C 0.2560(3) 0.1560(3) 0.1284(2)
C2 C 0.3209(4) 0.1424(4) -0.0139(3)
C3 C 0.4306(4) 0.1833(5) -0.0298(2)
C4 C 0.3505(4) 0.0116(3) 0.1398(3)
C5 C 0.5354(3) 0.1982(3) 0.0981(2)
C6 C 0.4671(4) 0.3511(3) 0.0946(3)
H1 H 0.310(3) 0.086(3) 0.279(2)
H2 H 0.221(4) 0.044(3) 0.246(3)
H3 H 0.330(3) 0.081(3) -0.011(2)
H4 H 0.275(3) 0.157(3) -0.053(3)
H5 H 0.463(3) 0.157(3) -0.073(3)
H6 H 0.421(3) 0.246(3) -0.037(2)
H7 H 0.37089 -0.02475 0.18381
H8 H 0.30095 -0.02103 0.10623
H9 H 0.41607 0.02771 0.11096
H10 H 0.51687 0.39712 0.11171
H11 H 0.39199 0.36752 0.10699
H12 H 0.47429 0.34316 0.03893
H13 H 0.493(3) 0.285(3) 0.236(2)
H14 H 0.609(6) 0.338(5) 0.211(4)
Cu1E Cu 0.64605(5) 0.18092(4) 0.23611(3)
N7E N 0.1066(3) 0.1466(3) 0.3680(2)
N12E N 0.0448(4) 0.2801(3) 0.2908(2)
H13E H -0.007(3) 0.285(3) 0.264(2)
H14E H 0.109(6) 0.338(5) 0.289(4)
O7 O 0.3358(7) 0.4976(7) 0.0142(5)
loop_
_geom_bond_atom_site_label_1
_geom_bond_atom_site_label_2
_geom_bond_site_symmetry_1
_geom_bond_site_symmetry_2
Cu1 O1 1_555 1_555
O1 N13 1_555 1_555
O2 N13 1_555 1_555
O3 N13 1_555 1_555
O4 Cu1 1_555 1_555
O5 N14 1_555 1_555
O6 N14 1_555 1_555
N1 N2 1_555 1_555
N2 N3 1_555 1_555
N3 N4 1_555 1_555
N4 Cu1 1_555 1_555
N5 N6 1_555 1_555
N6 Cu1 1_555 1_555
N7 N8 1_555 1_555
N8 N9 1_555 1_555
N9 N10 1_555 1_555
N10 C3 1_555 1_555
N11 N12 1_555 1_555
N12 H13 1_555 1_555
N14 O4 1_555 1_555
C1 N1 1_555 1_555
C2 N1 1_555 1_555
C3 C2 1_555 1_555
C4 N5 1_555 1_555
C5 N7 1_555 1_555
C6 N11 1_555 1_555
H1 N6 1_555 1_555
H2 N6 1_555 1_555
H3 C2 1_555 1_555
H4 C2 1_555 1_555
H5 C3 1_555 1_555
H6 C3 1_555 1_555
H7 C4 1_555 1_555
H8 C4 1_555 1_555
H9 C4 1_555 1_555
H10 C6 1_555 1_555
H11 C6 1_555 1_555
H12 C6 1_555 1_555
H14 N12 1_555 1_555
Cu1E N7 1_555 1_555
N7E Cu1 1_555 1_555
N12E Cu1 1_555 1_555
H13E N12E 1_555 1_555
H14E N12E 1_555 1_555
N4 C1 1_555 1_555
N5 C1 1_555 1_555
N10 C5 1_555 1_555
N11 C5 1_555 1_555
N12 Cu1E 1_555 1_555

#END
