
#######################################################################
#
#                 Cambridge Crystallographic Data Centre
#                                CCDC 
#
#######################################################################
#
# If this CIF has been generated from an entry in the Cambridge 
# Structural Database, then it will include bibliographic, chemical, 
# crystal, experimental, refinement or atomic coordinate data resulting 
# from the CCDC's data processing and validation procedures.
#
#######################################################################

data_RUZLAA
_symmetry_cell_setting           orthorhombic
_symmetry_space_group_name_H-M   'C m c a'
_symmetry_Int_Tables_number      64
_space_group_name_Hall           '-C 2ac 2'
loop_
_symmetry_equiv_pos_site_id
_symmetry_equiv_pos_as_xyz
1 x,y,z
2 -x,1/2-y,1/2+z
3 -x,1/2+y,1/2-z
4 x,-y,-z
5 1/2+x,1/2+y,z
6 1/2-x,-y,1/2+z
7 1/2-x,y,1/2-z
8 1/2+x,1/2-y,-z
9 -x,-y,-z
10 x,1/2+y,1/2-z
11 x,1/2-y,1/2+z
12 -x,y,z
13 1/2-x,1/2-y,-z
14 1/2+x,y,1/2-z
15 1/2+x,-y,1/2+z
16 1/2-x,1/2+y,z
_cell_length_a                   11.720(2)
_cell_length_b                   15.463(3)
_cell_length_c                   15.897(3)
_cell_angle_alpha                90
_cell_angle_beta                 90
_cell_angle_gamma                90
_cell_volume                     2880.96
loop_
_atom_site_label
_atom_site_type_symbol
_atom_site_fract_x
_atom_site_fract_y
_atom_site_fract_z
Cd1 Cd 0.5000 0.08773(3) 0.59037(3)
N1 N 0.3036(6) 0.0849(3) 0.5803(3)
C1 C 0.5000 0.2317(5) 0.6856(6)
O1 O 0.5000 0.1661(4) 0.7249(5)
O2 O 0.5000 0.2356(5) 0.6087(4)
C2 C 0.0629(7) 0.0893(4) 0.5815(4)
C3 C 0.1245(6) 0.0435(6) 0.6391(5)
H1 H 0.0866 0.0121 0.6804
C4 C 0.2408(6) 0.0431(6) 0.6370(5)
H2 H 0.2790 0.0114 0.6780
C5 C 0.1274(5) 0.1324(7) 0.5222(5)
H3 H 0.0914 0.1649 0.4807
C6 C 0.5000 0.3183(6) 0.7329(7)
H4 H 0.5000 0.3706 0.7041
C7 C 0.2437(5) 0.1279(6) 0.5241(5)
H5 H 0.2836 0.1574 0.4825
C8 C 0.5000 0.3155(6) 0.8235(6)
H6 H 0.5000 0.2636 0.8530
C9 C 0.5000 0.4026(6) 0.8677(6)
O3 O 0.5000 0.4695(4) 0.8248(4)
O4 O 0.5000 0.4037(5) 0.9456(5)
Cd1B Cd 0.5000 0.58773(3) 0.90963(3)
Cd1A Cd 0.5000 0.41227(3) 1.09037(3)
Cd1_2 Cd -0.5000 0.08773(3) 0.59037(3)
N1K N -0.3036(6) 0.0849(3) 0.5803(3)
N1K_2 N 0.6964(6) 0.0849(3) 0.5803(3)
C2K C -0.0629(7) 0.0893(4) 0.5815(4)
C3K C -0.1245(6) 0.0435(6) 0.6391(5)
H1K H -0.0866 0.0121 0.6804
C4K C -0.2408(6) 0.0431(6) 0.6370(5)
H2K H -0.2790 0.0114 0.6780
C5K C -0.1274(5) 0.1324(7) 0.5222(5)
H3K H -0.0914 0.1649 0.4807
C7K C -0.2437(5) 0.1279(6) 0.5241(5)
H5K H -0.2836 0.1574 0.4825
O3B O 0.5000 -0.0305(4) 0.6752(4)
O4A O 0.5000 0.0963(5) 0.4456(5)
loop_
_geom_bond_atom_site_label_1
_geom_bond_atom_site_label_2
_geom_bond_site_symmetry_1
_geom_bond_site_symmetry_2
Cd1 N1 1_555 1_555
N1 C4 1_555 1_555
C1 O1 1_555 1_555
O1 Cd1 1_555 1_555
O2 Cd1 1_555 1_555
C2 C3 1_555 1_555
C3 H1 1_555 1_555
C4 C3 1_555 1_555
H2 C4 1_555 1_555
C5 C2 1_555 1_555
H3 C5 1_555 1_555
C6 C1 1_555 1_555
H4 C6 1_555 1_555
C7 N1 1_555 1_555
H5 C7 1_555 1_555
C8 C6 1_555 1_555
H6 C8 1_555 1_555
C9 C8 1_555 1_555
O3 C9 1_555 1_555
O4 C9 1_555 1_555
Cd1B O3 1_555 1_555
Cd1A O4 1_555 1_555
Cd1_2 N1K 1_555 1_555
N1K C4K 1_555 1_555
N1K_2 Cd1 1_555 1_555
C2K C2 1_555 1_555
C3K C2K 1_555 1_555
H1K C3K 1_555 1_555
C4K C3K 1_555 1_555
H2K C4K 1_555 1_555
C5K C2K 1_555 1_555
H3K C5K 1_555 1_555
C7K N1K 1_555 1_555
H5K C7K 1_555 1_555
O3B Cd1 1_555 1_555
O4A Cd1 1_555 1_555
C1 O2 1_555 1_555
C5 C7 1_555 1_555
C5K C7K 1_555 1_555

#END
