
#######################################################################
#
#                 Cambridge Crystallographic Data Centre
#                                CCDC 
#
#######################################################################
#
# If this CIF has been generated from an entry in the Cambridge 
# Structural Database, then it will include bibliographic, chemical, 
# crystal, experimental, refinement or atomic coordinate data resulting 
# from the CCDC's data processing and validation procedures.
#
#######################################################################

data_RUZMUV02
_symmetry_cell_setting           monoclinic
_symmetry_space_group_name_H-M   'C 2/c'
_symmetry_Int_Tables_number      15
_space_group_name_Hall           '-C 2yn'
loop_
_symmetry_equiv_pos_site_id
_symmetry_equiv_pos_as_xyz
1 x,y,z
2 1/2+x,1/2+y,z
3 -x,y,1/2-z
4 1/2-x,1/2+y,1/2-z
5 -x,-y,-z
6 1/2-x,1/2-y,-z
7 x,-y,1/2+z
8 1/2+x,1/2-y,1/2+z
_cell_length_a                   12.4686(10)
_cell_length_b                   13.0951(10)
_cell_length_c                   13.6139(11)
_cell_angle_alpha                90
_cell_angle_beta                 99.954(2)
_cell_angle_gamma                90
_cell_volume                     2189.38
loop_
_atom_site_label
_atom_site_type_symbol
_atom_site_fract_x
_atom_site_fract_y
_atom_site_fract_z
Ag1 Ag 0.5000 0.82902(3) 0.7500
Ag2 Ag 0.41429(3) 0.93945(2) 1.31866(2)
Fe1 Fe 0.2500 0.7500 1.0000
N1 N 0.1466(3) 0.8613(3) 0.9473(2)
N2 N 0.3134(3) 0.8362(3) 1.1106(2)
C1 C 0.1142(3) 1.0387(3) 0.9068(3)
C2 C 0.0415(3) 0.8430(3) 0.9113(3)
H1 H 0.0164 0.7746 0.9133
C3 C -0.0330(3) 0.9166(3) 0.8714(3)
C4 C 0.1809(3) 0.9585(3) 0.9445(3)
H2 H 0.2552 0.9729 0.9700
C5 C 0.0046(3) 1.0168(3) 0.8723(3)
H3 H -0.0446 1.0705 0.8494
C6 C 0.1607(4) 1.1444(3) 0.9067(3)
H4 H 0.2349 1.1448 0.9449
H5 H 0.1153 1.1919 0.9372
H6 H 0.1623 1.1656 0.8379
N3 N 0.3492(3) 0.7954(3) 0.9145(2)
C7 C 0.4014(3) 0.8134(3) 0.8549(3)
C8 C 0.3452(3) 0.8794(3) 1.1838(3)
C9 C -0.1480(3) 0.8903(3) 0.8304(3)
H7 H -0.1580 0.8880 0.7575
H8 H -0.1963 0.9422 0.8510
H9 H -0.1655 0.8235 0.8559
C10 C 0.4794(3) 0.9850(3) 1.4626(3)
N4 N 0.5206(3) 1.0150(3) 1.5374(3)
Ag2E Ag 0.08571(3) 0.56055(2) 0.68134(2)
Ag2D Ag 0.58571(3) 1.06055(2) 1.68134(2)
Ag2A Ag -0.08571(3) 0.43945(2) 0.31866(2)
Fe1G Fe 0.7500 0.7500 0.5000
N1E N 0.3534(3) 0.6387(3) 1.0527(2)
N2E N 0.1866(3) 0.6638(3) 0.8894(2)
C1E C 0.3858(3) 0.4613(3) 1.0932(3)
C2E C 0.4585(3) 0.6570(3) 1.0887(3)
H1E H 0.4836 0.7254 1.0867
C3E C 0.5330(3) 0.5834(3) 1.1286(3)
C4E C 0.3191(3) 0.5415(3) 1.0555(3)
H2E H 0.2448 0.5271 1.0300
C5E C 0.4954(3) 0.4832(3) 1.1277(3)
H3E H 0.5446 0.4295 1.1506
C6E C 0.3393(4) 0.3556(3) 1.0933(3)
H4E H 0.2651 0.3552 1.0551
H5E H 0.3847 0.3081 1.0628
H6E H 0.3377 0.3344 1.1621
N3B N 0.6508(3) 0.7954(3) 0.5855(2)
N3E N 0.1508(3) 0.7046(3) 1.0855(2)
C7B C 0.5986(3) 0.8134(3) 0.6451(3)
C8E C 0.1548(3) 0.6206(3) 0.8162(3)
C9E C 0.6480(3) 0.6097(3) 1.1696(3)
H7E H 0.6580 0.6120 1.2425
H8E H 0.6963 0.5578 1.1490
H9E H 0.6655 0.6765 1.1441
C10E C 0.0206(3) 0.5150(3) 0.5374(3)
N4E N -0.0206(3) 0.4850(3) 0.4626(3)
loop_
_geom_bond_atom_site_label_1
_geom_bond_atom_site_label_2
_geom_bond_site_symmetry_1
_geom_bond_site_symmetry_2
Ag1 C7 1_555 1_555
Ag2 C8 1_555 1_555
Fe1 N1 1_555 1_555
N1 C2 1_555 1_555
N2 Fe1 1_555 1_555
C1 C4 1_555 1_555
C2 H1 1_555 1_555
C3 C2 1_555 1_555
C4 N1 1_555 1_555
H2 C4 1_555 1_555
C5 C1 1_555 1_555
H3 C5 1_555 1_555
C6 C1 1_555 1_555
H4 C6 1_555 1_555
H5 C6 1_555 1_555
H6 C6 1_555 1_555
N3 Fe1 1_555 1_555
C7 N3 1_555 1_555
C8 N2 1_555 1_555
C9 C3 1_555 1_555
H7 C9 1_555 1_555
H8 C9 1_555 1_555
H9 C9 1_555 1_555
C10 Ag2 1_555 1_555
N4 C10 1_555 1_555
Ag2E C8E 1_555 1_555
Ag2D N4 1_555 1_555
Ag2A N4E 1_555 1_555
Fe1G N3B 1_555 1_555
N1E Fe1 1_555 1_555
N2E Fe1 1_555 1_555
C1E C4E 1_555 1_555
C2E N1E 1_555 1_555
H1E C2E 1_555 1_555
C3E C2E 1_555 1_555
C4E N1E 1_555 1_555
H2E C4E 1_555 1_555
C5E C1E 1_555 1_555
H3E C5E 1_555 1_555
C6E C1E 1_555 1_555
H4E C6E 1_555 1_555
H5E C6E 1_555 1_555
H6E C6E 1_555 1_555
N3B C7B 1_555 1_555
N3E Fe1 1_555 1_555
C7B Ag1 1_555 1_555
C8E N2E 1_555 1_555
C9E C3E 1_555 1_555
H7E C9E 1_555 1_555
H8E C9E 1_555 1_555
H9E C9E 1_555 1_555
C10E Ag2E 1_555 1_555
N4E C10E 1_555 1_555
C3 C5 1_555 1_555
C3E C5E 1_555 1_555

#END
