
#######################################################################
#
#                 Cambridge Crystallographic Data Centre
#                                CCDC 
#
#######################################################################
#
# If this CIF has been generated from an entry in the Cambridge 
# Structural Database, then it will include bibliographic, chemical, 
# crystal, experimental, refinement or atomic coordinate data resulting 
# from the CCDC's data processing and validation procedures.
#
#######################################################################

data_RUZPUX
_symmetry_cell_setting           monoclinic
_symmetry_space_group_name_H-M   'P 21/n'
_symmetry_Int_Tables_number      14
_space_group_name_Hall           '-P 2yn'
loop_
_symmetry_equiv_pos_site_id
_symmetry_equiv_pos_as_xyz
1 x,y,z
2 1/2+x,1/2-y,1/2+z
3 -x,-y,-z
4 1/2-x,1/2+y,1/2-z
_cell_length_a                   12.6541(10)
_cell_length_b                   11.518(2)
_cell_length_c                   18.705(3)
_cell_angle_alpha                90
_cell_angle_beta                 99.516(10)
_cell_angle_gamma                90
_cell_volume                     2688.74
loop_
_atom_site_label
_atom_site_type_symbol
_atom_site_fract_x
_atom_site_fract_y
_atom_site_fract_z
Zn1 Zn 0.64068(8) 0.24450(9) 0.25994(6)
S1 S 0.68244(19) 0.0529(2) 0.28439(15)
N4 N 0.4808(6) 0.1979(6) 0.2725(5)
H6 H 0.4599 0.2425 0.3072
H7 H 0.4360 0.2114 0.2307
N5 N 0.5483(6) -0.0916(7) 0.3314(5)
H8 H 0.4867 -0.1123 0.3408
H9 H 0.6018 -0.1385 0.3402
N6 N 0.4745(6) 0.0803(6) 0.2915(4)
H10 H 0.4130 0.0516 0.2953
O5 O 0.6004(5) 0.3214(6) 0.1644(3)
O6 O 0.7655(6) 0.2582(6) 0.1663(4)
O7 O 0.3279(5) 0.6284(5) -0.3281(4)
O8 O 0.1632(5) 0.6948(6) -0.3603(4)
C2 C 0.5607(7) 0.0116(7) 0.3038(5)
C13 C 0.6840(9) 0.3096(8) 0.1350(5)
C14 C 0.6815(10) 0.3523(11) 0.0579(6)
H19 H 0.7468 0.3955 0.0561
H20 H 0.6815 0.2854 0.0265
C15 C 0.5879(8) 0.4276(9) 0.0284(5)
C16 C 0.5893(9) 0.5466(10) 0.0418(6)
H21 H 0.6496 0.5796 0.0696
C17 C 0.4967(10) 0.3831(10) -0.0149(6)
H22 H 0.4936 0.3043 -0.0259
C18 C 0.2342(7) 0.6258(7) -0.3662(5)
C19 C 0.2193(7) 0.5299(8) -0.4229(6)
H23 H 0.2433 0.4573 -0.3994
H24 H 0.2652 0.5464 -0.4584
C20 C 0.1056(8) 0.5137(8) -0.4625(5)
C21 C 0.0740(8) 0.5572(9) -0.5316(6)
H25 H 0.1239 0.5960 -0.5542
C22 C -0.0286(9) 0.5448(9) -0.5675(6)
H26 H 0.0471 0.4232 -0.3865
C17B C 0.5033(10) 0.6169(10) 0.0149(6)
C15B C 0.4121(8) 0.5724(9) -0.0284(5)
C14B C 0.3185(10) 0.6477(11) -0.0579(6)
C13B C 0.3160(9) 0.6904(8) -0.1350(5)
O5B O 0.3996(5) 0.6786(6) -0.1644(3)
Zn1B Zn 0.35932(8) 0.75550(9) -0.25994(6)
S1B S 0.31756(19) 0.9471(2) -0.28439(15)
C2B C 0.4393(7) 0.9884(7) -0.3038(5)
N5B N 0.4517(6) 1.0916(7) -0.3314(5)
H8B H 0.5133 1.1123 -0.3408
H9B H 0.3982 1.1385 -0.3402
N6B N 0.5255(6) 0.9197(6) -0.2915(4)
N4B N 0.5192(6) 0.8021(6) -0.2725(5)
O7B O 0.6721(5) 0.3716(5) 0.3281(4)
C20B C -0.1056(8) 0.4863(8) -0.5375(5)
C19B C -0.2193(7) 0.4701(8) -0.5771(6)
C18B C -0.2342(7) 0.3742(7) -0.6338(5)
O7B_2 O -0.3279(5) 0.3716(5) -0.6719(4)
Zn1_2 Zn -0.35932(8) 0.24450(9) -0.74006(6)
O8B O -0.1632(5) 0.3052(6) -0.6397(4)
H23B H -0.2433 0.5427 -0.6006
H24B H -0.2652 0.4536 -0.5416
C21B C -0.0740(8) 0.4428(9) -0.4684(6)
H25B H -0.1239 0.4040 -0.4458
C22B C 0.0286(9) 0.4552(9) -0.4325(6)
H26B H -0.0471 0.5768 -0.6135
H6B H 0.5401 0.7575 -0.3072
H7B H 0.5640 0.7886 -0.2307
H10B H 0.5870 0.9484 -0.2953
O6B O 0.2345(6) 0.7418(6) -0.1663(4)
H19B H 0.2532 0.6045 -0.0561
H20B H 0.3185 0.7146 -0.0265
C16B C 0.4107(9) 0.4534(10) -0.0418(6)
H21B H 0.3504 0.4204 -0.0696
H22B H 0.5064 0.6957 0.0259
Zn2 Zn 0.37348(9) 0.49586(9) 0.25472(6)
S2 S 0.3303(2) 0.6867(2) 0.23390(15)
N1 N 0.5291(6) 0.5402(6) 0.2334(5)
H1 H 0.5772 0.5340 0.2744
H2 H 0.5482 0.4906 0.2006
N2 N 0.4504(6) 0.8237(7) 0.1678(5)
H3 H 0.5079 0.8414 0.1514
H4 H 0.3973 0.8713 0.1627
N3 N 0.5294(6) 0.6551(6) 0.2066(4)
H5 H 0.5867 0.6817 0.1935
O1 O 0.4048(5) 0.4032(6) 0.3441(4)
O2 O 0.2390(5) 0.4628(5) 0.3413(4)
O3 O 0.8397(5) 0.1211(6) 0.6800(4)
O4 O 1.1747(5) 0.4481(6) 1.1516(4)
C1 C 0.4436(7) 0.7229(8) 0.2012(5)
C3 C 0.3174(8) 0.4035(8) 0.3688(5)
C4 C 0.3097(8) 0.3269(9) 0.4351(5)
H11 H 0.2719 0.3699 0.4676
H12 H 0.2669 0.2591 0.4188
C5 C 0.4134(8) 0.2871(8) 0.4765(5)
C6 C 0.4734(10) 0.3576(10) 0.5269(6)
H13 H 0.4446 0.4279 0.5389
C7 C 0.5754(11) 0.3269(11) 0.5602(6)
H14 H 0.6135 0.3751 0.5952
C8 C 0.6202(9) 0.2257(11) 0.5418(6)
C9 C 0.5586(10) 0.1511(10) 0.4917(6)
H15 H 0.5871 0.0812 0.4787
C10 C 0.4556(9) 0.1827(9) 0.4619(6)
H16 H 0.4138 0.1312 0.4311
C11 C 0.7490(8) 0.1161(9) 0.6409(5)
C12 C 0.7352(10) 0.1965(14) 0.5765(8)
H17 H 0.7709 0.1619 0.5396
H18 H 0.7720 0.2686 0.5914
O3A O 0.3397(5) 0.3789(6) 0.1800(4)
Zn2A Zn 0.87348(9) 0.00414(9) 0.75472(6)
S2A S 0.8303(2) -0.1867(2) 0.73390(15)
C1A C 0.9436(7) -0.2229(8) 0.7012(5)
N2A N 0.9504(6) -0.3237(7) 0.6678(5)
H3A H 1.0079 -0.3414 0.6514
H4A H 0.8973 -0.3713 0.6627
N3A N 1.0294(6) -0.1551(6) 0.7066(4)
N1A N 1.0291(6) -0.0402(6) 0.7334(5)
O1A O 0.9048(5) 0.0968(6) 0.8441(4)
C3A C 0.8174(8) 0.0965(8) 0.8688(5)
O2A O 0.7390(5) 0.0372(5) 0.8413(4)
C4A C 0.8097(8) 0.1731(9) 0.9351(5)
H11A H 0.7719 0.1301 0.9676
H12A H 0.7669 0.2409 0.9188
C5A C 0.9134(8) 0.2129(8) 0.9765(5)
C6A C 0.9734(10) 0.1424(10) 1.0269(6)
H13A H 0.9446 0.0721 1.0389
C7A C 1.0754(11) 0.1731(11) 1.0602(6)
H14A H 1.1135 0.1249 1.0952
C8A C 1.1202(9) 0.2743(11) 1.0418(6)
C9A C 1.0586(10) 0.3489(10) 0.9917(6)
H15A H 1.0871 0.4188 0.9787
C10A C 0.9556(9) 0.3173(9) 0.9619(6)
H16A H 0.9138 0.3688 0.9311
C12A C 1.2352(10) 0.3035(14) 1.0765(8)
C11A C 1.2490(8) 0.3839(9) 1.1409(5)
O3A_2 O 1.3397(5) 0.3789(6) 1.1800(4)
Zn2_2 Zn 1.37348(9) 0.49586(9) 1.25472(6)
H17A H 1.2709 0.3381 1.0396
H18A H 1.2720 0.2314 1.0914
H1A H 1.0772 -0.0340 0.7744
H2A H 1.0482 0.0094 0.7006
H5A H 1.0867 -0.1817 0.6935
O4A O 0.6747(5) 0.0519(6) 0.6516(4)
loop_
_geom_bond_atom_site_label_1
_geom_bond_atom_site_label_2
_geom_bond_site_symmetry_1
_geom_bond_site_symmetry_2
Zn1 S1 1_555 1_555
Zn2 S2 1_555 1_555
S1 C2 1_555 1_555
S2 C1 1_555 1_555
N1 Zn2 1_555 1_555
H1 N1 1_555 1_555
H2 N1 1_555 1_555
N2 H3 1_555 1_555
H4 N2 1_555 1_555
N3 N1 1_555 1_555
H5 N3 1_555 1_555
N4 Zn1 1_555 1_555
H6 N4 1_555 1_555
H7 N4 1_555 1_555
N5 H8 1_555 1_555
H9 N5 1_555 1_555
N6 N4 1_555 1_555
H10 N6 1_555 1_555
O1 Zn2 1_555 1_555
O2 C3 1_555 1_555
O3 C11 1_555 1_555
O4 C11A 1_555 1_555
O5 Zn1 1_555 1_555
O6 C13 1_555 1_555
O7 C18 1_555 1_555
O8 C18 1_555 1_555
C1 N2 1_555 1_555
C2 N5 1_555 1_555
C3 O1 1_555 1_555
C4 C3 1_555 1_555
H11 C4 1_555 1_555
H12 C4 1_555 1_555
C5 C4 1_555 1_555
C6 C5 1_555 1_555
H13 C6 1_555 1_555
C7 C6 1_555 1_555
H14 C7 1_555 1_555
C8 C7 1_555 1_555
C9 C8 1_555 1_555
H15 C9 1_555 1_555
C10 C5 1_555 1_555
H16 C10 1_555 1_555
C11 C12 1_555 1_555
C12 C8 1_555 1_555
H17 C12 1_555 1_555
H18 C12 1_555 1_555
C13 O5 1_555 1_555
C14 C13 1_555 1_555
H19 C14 1_555 1_555
H20 C14 1_555 1_555
C15 C14 1_555 1_555
C16 C15 1_555 1_555
H21 C16 1_555 1_555
C17 C15 1_555 1_555
H22 C17 1_555 1_555
C18 C19 1_555 1_555
C19 H23 1_555 1_555
H24 C19 1_555 1_555
C20 C19 1_555 1_555
C21 C20 1_555 1_555
H25 C21 1_555 1_555
C22 C21 1_555 1_555
H26 C22B 1_555 1_555
C17B C16 1_555 1_555
C15B C17B 1_555 1_555
C14B C15B 1_555 1_555
C13B C14B 1_555 1_555
O5B C13B 1_555 1_555
Zn1B O7 1_555 1_555
S1B Zn1B 1_555 1_555
C2B S1B 1_555 1_555
N5B C2B 1_555 1_555
H8B N5B 1_555 1_555
H9B N5B 1_555 1_555
N6B C2B 1_555 1_555
N4B Zn1B 1_555 1_555
O7B Zn1 1_555 1_555
C20B C22 1_555 1_555
C19B C20B 1_555 1_555
C18B C19B 1_555 1_555
O7B_2 C18B 1_555 1_555
Zn1_2 O7B_2 1_555 1_555
O8B C18B 1_555 1_555
H23B C19B 1_555 1_555
H24B C19B 1_555 1_555
C21B C20B 1_555 1_555
H25B C21B 1_555 1_555
C22B C20 1_555 1_555
H26B C22 1_555 1_555
H6B N4B 1_555 1_555
H7B N4B 1_555 1_555
H10B N6B 1_555 1_555
O6B C13B 1_555 1_555
H19B C14B 1_555 1_555
H20B C14B 1_555 1_555
C16B C17 1_555 1_555
H21B C16B 1_555 1_555
H22B C17B 1_555 1_555
O3A Zn2 1_555 1_555
Zn2A O3 1_555 1_555
S2A Zn2A 1_555 1_555
C1A S2A 1_555 1_555
N2A C1A 1_555 1_555
H3A N2A 1_555 1_555
H4A N2A 1_555 1_555
N3A C1A 1_555 1_555
N1A Zn2A 1_555 1_555
O1A Zn2A 1_555 1_555
C3A O1A 1_555 1_555
O2A C3A 1_555 1_555
C4A C3A 1_555 1_555
H11A C4A 1_555 1_555
H12A C4A 1_555 1_555
C5A C4A 1_555 1_555
C6A C5A 1_555 1_555
H13A C6A 1_555 1_555
C7A C6A 1_555 1_555
H14A C7A 1_555 1_555
C8A C7A 1_555 1_555
C9A C8A 1_555 1_555
H15A C9A 1_555 1_555
C10A C5A 1_555 1_555
H16A C10A 1_555 1_555
C12A C8A 1_555 1_555
C11A C12A 1_555 1_555
O3A_2 C11A 1_555 1_555
Zn2_2 O3A_2 1_555 1_555
H17A C12A 1_555 1_555
H18A C12A 1_555 1_555
H1A N1A 1_555 1_555
H2A N1A 1_555 1_555
H5A N3A 1_555 1_555
O4A C11 1_555 1_555
N3 C1 1_555 1_555
N6 C2 1_555 1_555
C9 C10 1_555 1_555
C15B C16B 1_555 1_555
O5B Zn1B 1_555 1_555
N6B N4B 1_555 1_555
C21B C22B 1_555 1_555
N3A N1A 1_555 1_555
C9A C10A 1_555 1_555

#END
