
#######################################################################
#
#                 Cambridge Crystallographic Data Centre
#                                CCDC 
#
#######################################################################
#
# If this CIF has been generated from an entry in the Cambridge 
# Structural Database, then it will include bibliographic, chemical, 
# crystal, experimental, refinement or atomic coordinate data resulting 
# from the CCDC's data processing and validation procedures.
#
#######################################################################

data_SABDEE
_symmetry_cell_setting           monoclinic
_symmetry_space_group_name_H-M   'C 2/c'
_symmetry_Int_Tables_number      15
_space_group_name_Hall           '-C 2yn'
loop_
_symmetry_equiv_pos_site_id
_symmetry_equiv_pos_as_xyz
1 x,y,z
2 1/2+x,1/2+y,z
3 -x,y,1/2-z
4 1/2-x,1/2+y,1/2-z
5 -x,-y,-z
6 1/2-x,1/2-y,-z
7 x,-y,1/2+z
8 1/2+x,1/2-y,1/2+z
_cell_length_a                   16.662(2)
_cell_length_b                   15.254(3)
_cell_length_c                   18.751(3)
_cell_angle_alpha                90
_cell_angle_beta                 102.58(1)
_cell_angle_gamma                90
_cell_volume                     4651.38
loop_
_atom_site_label
_atom_site_type_symbol
_atom_site_fract_x
_atom_site_fract_y
_atom_site_fract_z
Cu2 Cu 0.50000 -0.500 0.00000
Fe1 Fe 0.60818(3) -0.19949(3) -0.23746(2)
O1 O 0.50000 -0.1891(2) -0.250
O4 O 0.6197(2) -0.3894(2) -0.0159(1)
O5 O 0.5700(2) -0.2745(2) 0.0324(1)
O6 O 0.6128(1) -0.3176(2) -0.2874(1)
O7 O 0.6017(2) -0.4619(2) -0.2774(2)
O8 O 0.6348(1) -0.0972(2) -0.1686(1)
O9 O 0.7288(2) -0.0112(2) -0.1021(2)
O10 O 0.6324(1) -0.1399(2) -0.3268(1)
O11 O 0.7169(2) -0.1325(3) -0.4024(2)
N1 N 0.6361(2) -0.2889(2) -0.1414(1)
N2 N 0.7461(2) -0.1993(2) -0.2159(1)
N3 N 0.4805(2) -0.4193(2) 0.0785(2)
N4 N 0.3992(2) -0.4425(2) -0.0595(2)
C1 C 0.7263(2) -0.2830(2) -0.1098(2)
C2 C 0.7742(2) -0.2765(2) -0.1694(2)
C3 C 0.3959(3) -0.3900(3) 0.0603(3)
C4 C 0.3749(3) -0.3677(3) -0.0193(3)
C7 C 0.5885(2) -0.2592(2) -0.0875(2)
C8 C 0.5948(2) -0.3136(2) -0.0177(2)
C9 C 0.6120(2) -0.3778(2) -0.1698(2)
C10 C 0.6093(2) -0.3875(3) -0.2509(2)
C11 C 0.7741(2) -0.1163(2) -0.1780(2)
C12 C 0.7089(2) -0.0709(3) -0.1467(2)
C13 C 0.7652(2) -0.2042(3) -0.2888(2)
C14 C 0.7015(2) -0.1543(3) -0.3440(2)
H3 H 0.4909 -0.4484 0.1215
H4 H 0.5138 -0.3730 0.0814
H5 H 0.4104 -0.4214 -0.1012
H6 H 0.3581 -0.4807 -0.0695
H11 H 0.7373 -0.2329 -0.0793
H12 H 0.7436 -0.3343 -0.0816
H13 H 0.7662 -0.3279 -0.1979
H14 H 0.8311 -0.2698 -0.1473
H15 H 0.6070 -0.2015 -0.0728
H16 H 0.5325 -0.2576 -0.1116
H17 H 0.6526 -0.4186 -0.1440
H18 H 0.5605 -0.3923 -0.1607
H19 H 0.8203 -0.1283 -0.1391
H20 H 0.7913 -0.0774 -0.2118
H21 H 0.8184 -0.1780 -0.2865
H22 H 0.7670 -0.2633 -0.3031
H23 H 0.3591 -0.4357 0.0712
H24 H 0.3879 -0.3402 0.0900
H25 H 0.4033 -0.3160 -0.0261
H26 H 0.3169 -0.3575 -0.0340
O4D O 0.3803(2) -0.6106(2) 0.0159(1)
N3D N 0.5195(2) -0.5807(2) -0.0785(2)
N4D N 0.6008(2) -0.5575(2) 0.0595(2)
Fe1B Fe 0.39182(3) -0.19949(3) -0.26254(2)
C8D C 0.4052(2) -0.6864(2) 0.0177(2)
C3D C 0.6041(3) -0.6100(3) -0.0603(3)
H3D H 0.5091 -0.5516 -0.1215
H4D H 0.4862 -0.6270 -0.0814
C4D C 0.6251(3) -0.6323(3) 0.0193(3)
H5D H 0.5896 -0.5786 0.1012
H6D H 0.6419 -0.5193 0.0695
O6B O 0.3872(1) -0.3176(2) -0.2126(1)
O8B O 0.3652(1) -0.0972(2) -0.3314(1)
O10B O 0.3676(1) -0.1399(2) -0.1732(1)
N1B N 0.3639(2) -0.2889(2) -0.3586(1)
N2B N 0.2539(2) -0.1993(2) -0.2841(1)
O5D O 0.4300(2) -0.7255(2) -0.0324(1)
C7D C 0.4115(2) -0.7408(2) 0.0875(2)
H23D H 0.6409 -0.5643 -0.0712
H24D H 0.6121 -0.6598 -0.0900
H25D H 0.5967 -0.6840 0.0261
H26D H 0.6831 -0.6425 0.0340
C10B C 0.3907(2) -0.3875(3) -0.2491(2)
C12B C 0.2911(2) -0.0709(3) -0.3533(2)
C14B C 0.2985(2) -0.1543(3) -0.1560(2)
C1B C 0.2737(2) -0.2830(2) -0.3902(2)
C7B C 0.4115(2) -0.2592(2) -0.4125(2)
C9B C 0.3880(2) -0.3778(2) -0.3302(2)
C2B C 0.2258(2) -0.2765(2) -0.3306(2)
C11B C 0.2259(2) -0.1163(2) -0.3220(2)
C13B C 0.2348(2) -0.2042(3) -0.2112(2)
N1D N 0.3639(2) -0.7111(2) 0.1414(1)
H15D H 0.3930 -0.7985 0.0728
H16D H 0.4675 -0.7424 0.1116
O7B O 0.3983(2) -0.4619(2) -0.2226(2)
O9B O 0.2712(2) -0.0112(2) -0.3979(2)
O11B O 0.2831(2) -0.1325(3) -0.0976(2)
H11B H 0.2627 -0.2329 -0.4207
H12B H 0.2564 -0.3343 -0.4184
C8B C 0.4052(2) -0.3136(2) -0.4823(2)
H15B H 0.3930 -0.2015 -0.4272
H16B H 0.4675 -0.2576 -0.3884
H17B H 0.3474 -0.4186 -0.3560
H18B H 0.4395 -0.3923 -0.3393
H13B H 0.2338 -0.3279 -0.3021
H14B H 0.1689 -0.2698 -0.3527
H19B H 0.1797 -0.1283 -0.3609
H20B H 0.2087 -0.0774 -0.2882
H21B H 0.1816 -0.1780 -0.2135
H22B H 0.2330 -0.2633 -0.1969
Fe1D Fe 0.39182(3) -0.80051(3) 0.23746(2)
C1D C 0.2737(2) -0.7170(2) 0.1098(2)
C9D C 0.3880(2) -0.6222(2) 0.1698(2)
O4B O 0.3803(2) -0.3894(2) -0.4841(1)
O5B O 0.4300(2) -0.2745(2) -0.5324(1)
O1D O 0.50000 -0.8109(2) 0.250
O6D O 0.3872(1) -0.6824(2) 0.2874(1)
O8D O 0.3652(1) -0.9028(2) 0.1686(1)
O10D O 0.3676(1) -0.8601(2) 0.3268(1)
N2D N 0.2539(2) -0.8007(2) 0.2159(1)
C2D C 0.2258(2) -0.7235(2) 0.1694(2)
H11D H 0.2627 -0.7671 0.0793
H12D H 0.2564 -0.6657 0.0816
C10D C 0.3907(2) -0.6125(3) 0.2509(2)
H17D H 0.3474 -0.5814 0.1440
H18D H 0.4395 -0.6077 0.1607
Cu2B Cu 0.50000 -0.500 -0.50000
Fe1F Fe 0.60818(3) -0.80051(3) 0.26254(2)
C12D C 0.2911(2) -0.9291(3) 0.1467(2)
C14D C 0.2985(2) -0.8457(3) 0.3440(2)
C11D C 0.2259(2) -0.8837(2) 0.1780(2)
C13D C 0.2348(2) -0.7958(3) 0.2888(2)
H13D H 0.2338 -0.6721 0.1979
H14D H 0.1689 -0.7302 0.1473
O7D O 0.3983(2) -0.5381(2) 0.2774(2)
O4F O 0.6197(2) -0.6106(2) -0.5159(1)
N3B N 0.5195(2) -0.4193(2) -0.5785(2)
N3F N 0.4805(2) -0.5807(2) -0.4215(2)
N4B N 0.6008(2) -0.4425(2) -0.4405(2)
N4F N 0.3992(2) -0.5575(2) -0.5595(2)
O6F O 0.6128(1) -0.6824(2) 0.2126(1)
O8F O 0.6348(1) -0.9028(2) 0.3314(1)
O10F O 0.6324(1) -0.8601(2) 0.1732(1)
N1F N 0.6361(2) -0.7111(2) 0.3586(1)
N2F N 0.7461(2) -0.8007(2) 0.2841(1)
O9D O 0.2712(2) -0.9888(2) 0.1021(2)
O11D O 0.2831(2) -0.8675(3) 0.4024(2)
H19D H 0.1797 -0.8717 0.1391
H20D H 0.2087 -0.9226 0.2118
H21D H 0.1816 -0.8220 0.2865
H22D H 0.2330 -0.7367 0.3031
C8F C 0.5948(2) -0.6864(2) -0.5177(2)
C3B C 0.6041(3) -0.3900(3) -0.5603(3)
H3B H 0.5091 -0.4484 -0.6215
H4B H 0.4862 -0.3730 -0.5814
C3F C 0.3959(3) -0.6100(3) -0.4397(3)
H3F H 0.4909 -0.5516 -0.3785
H4F H 0.5138 -0.6270 -0.4186
C4B C 0.6251(3) -0.3677(3) -0.4807(3)
H5B H 0.5896 -0.4214 -0.3988
H6B H 0.6419 -0.4807 -0.4305
C4F C 0.3749(3) -0.6323(3) -0.5193(3)
H5F H 0.4104 -0.5786 -0.6012
H6F H 0.3581 -0.5193 -0.5695
C10F C 0.6093(2) -0.6125(3) 0.2491(2)
C12F C 0.7089(2) -0.9291(3) 0.3533(2)
C14F C 0.7015(2) -0.8457(3) 0.1560(2)
C1F C 0.7263(2) -0.7170(2) 0.3902(2)
C7F C 0.5885(2) -0.7408(2) 0.4125(2)
C9F C 0.6120(2) -0.6222(2) 0.3302(2)
C2F C 0.7742(2) -0.7235(2) 0.3306(2)
C11F C 0.7741(2) -0.8837(2) 0.3220(2)
C13F C 0.7652(2) -0.7958(3) 0.2112(2)
O5F O 0.5700(2) -0.7255(2) -0.4676(1)
C7F_2 C 0.5885(2) -0.7408(2) -0.5875(2)
H23B H 0.6409 -0.4357 -0.5712
H24B H 0.6121 -0.3402 -0.5900
H23F H 0.3591 -0.5643 -0.4288
H24F H 0.3879 -0.6598 -0.4100
H25B H 0.5967 -0.3160 -0.4739
H26B H 0.6831 -0.3575 -0.4660
H25F H 0.4033 -0.6840 -0.5261
H26F H 0.3169 -0.6425 -0.5340
O7F O 0.6017(2) -0.5381(2) 0.2226(2)
O9F O 0.7288(2) -0.9888(2) 0.3979(2)
O11F O 0.7169(2) -0.8675(3) 0.0976(2)
H11F H 0.7373 -0.7671 0.4207
H12F H 0.7436 -0.6657 0.4184
C8F_2 C 0.5948(2) -0.6864(2) 0.4823(2)
H15F H 0.6070 -0.7985 0.4272
H16F H 0.5325 -0.7424 0.3884
H17F H 0.6526 -0.5814 0.3560
H18F H 0.5605 -0.6077 0.3393
H13F H 0.7662 -0.6721 0.3021
H14F H 0.8311 -0.7302 0.3527
H19F H 0.8203 -0.8717 0.3609
H20F H 0.7913 -0.9226 0.2882
H21F H 0.8184 -0.8220 0.2135
H22F H 0.7670 -0.7367 0.1969
O3 O 0.50000 -0.5925(4) -0.250
Cu1 Cu 0.50000 0.00000 0.00000
O2 O 0.6605(2) -0.0307(2) 0.0289(2)
N5 N 0.4970(2) -0.0162(2) -0.1065(2)
N6 N 0.5360(2) 0.1233(2) -0.0164(2)
C5 C 0.4945(3) 0.0724(3) -0.1394(2)
C6 C 0.5546(3) 0.1289(3) -0.0887(3)
H1 H 0.684(2) 0.008(3) 0.051(2)
H2 H 0.686(3) -0.029(4) -0.003(3)
H7 H 0.5418 -0.0445 -0.1127
H8 H 0.4515 -0.0477 -0.1274
H9 H 0.4973 0.1617 -0.0122
H10 H 0.5826 0.1363 0.0197
H27 H 0.5056 0.0665 -0.1875
H28 H 0.4387 0.0946 -0.1460
H29 H 0.5542 0.1877 -0.1043
H30 H 0.6114 0.1068 -0.0857
O2D O 0.3395(2) 0.0307(2) -0.0289(2)
N5D N 0.5030(2) 0.0162(2) 0.1065(2)
N6D N 0.4640(2) -0.1233(2) 0.0164(2)
H1D H 0.316(2) -0.008(3) -0.051(2)
H2D H 0.314(3) 0.029(4) 0.003(3)
C5D C 0.5055(3) -0.0724(3) 0.1394(2)
H7D H 0.4582 0.0445 0.1127
H8D H 0.5485 0.0477 0.1274
C6D C 0.4454(3) -0.1289(3) 0.0887(3)
H9D H 0.5027 -0.1617 0.0122
H10D H 0.4174 -0.1363 -0.0197
H27D H 0.4944 -0.0665 0.1875
H28D H 0.5613 -0.0946 0.1460
H29D H 0.4458 -0.1877 0.1043
H30D H 0.3886 -0.1068 0.0857
loop_
_geom_bond_atom_site_label_1
_geom_bond_atom_site_label_2
_geom_bond_site_symmetry_1
_geom_bond_site_symmetry_2
Cu1 O2 1_555 1_555
Cu2 O4 1_555 1_555
Fe1 O1 1_555 1_555
O1 Fe1B 1_555 1_555
O2 H1 1_555 1_555
O4 C8 1_555 1_555
O5 C8 1_555 1_555
O6 Fe1 1_555 1_555
O7 C10 1_555 1_555
O8 Fe1 1_555 1_555
O9 C12 1_555 1_555
O10 Fe1 1_555 1_555
O11 C14 1_555 1_555
N1 Fe1 1_555 1_555
N2 Fe1 1_555 1_555
N3 Cu2 1_555 1_555
N4 Cu2 1_555 1_555
N5 Cu1 1_555 1_555
N6 Cu1 1_555 1_555
C1 N1 1_555 1_555
C2 N2 1_555 1_555
C3 N3 1_555 1_555
C4 N4 1_555 1_555
C5 N5 1_555 1_555
C6 N6 1_555 1_555
C7 N1 1_555 1_555
C8 C7 1_555 1_555
C9 N1 1_555 1_555
C10 O6 1_555 1_555
C11 N2 1_555 1_555
C12 O8 1_555 1_555
C13 N2 1_555 1_555
C14 O10 1_555 1_555
H2 O2 1_555 1_555
H3 N3 1_555 1_555
H4 N3 1_555 1_555
H5 N4 1_555 1_555
H6 N4 1_555 1_555
H7 N5 1_555 1_555
H8 N5 1_555 1_555
H9 N6 1_555 1_555
H10 N6 1_555 1_555
H11 C1 1_555 1_555
H12 C1 1_555 1_555
H13 C2 1_555 1_555
H14 C2 1_555 1_555
H15 C7 1_555 1_555
H16 C7 1_555 1_555
H17 C9 1_555 1_555
H18 C9 1_555 1_555
H19 C11 1_555 1_555
H20 C11 1_555 1_555
H21 C13 1_555 1_555
H22 C13 1_555 1_555
H23 C3 1_555 1_555
H24 C3 1_555 1_555
H25 C4 1_555 1_555
H26 C4 1_555 1_555
H27 C5 1_555 1_555
H28 C5 1_555 1_555
H29 C6 1_555 1_555
H30 C6 1_555 1_555
O2D Cu1 1_555 1_555
N5D Cu1 1_555 1_555
N6D Cu1 1_555 1_555
H1D O2D 1_555 1_555
H2D O2D 1_555 1_555
C5D N5D 1_555 1_555
H7D N5D 1_555 1_555
H8D N5D 1_555 1_555
C6D N6D 1_555 1_555
H9D N6D 1_555 1_555
H10D N6D 1_555 1_555
H27D C5D 1_555 1_555
H28D C5D 1_555 1_555
H29D C6D 1_555 1_555
H30D C6D 1_555 1_555
O4D Cu2 1_555 1_555
N3D Cu2 1_555 1_555
N4D Cu2 1_555 1_555
Fe1B O6B 1_555 1_555
C8D O4D 1_555 1_555
C3D N3D 1_555 1_555
H3D N3D 1_555 1_555
H4D N3D 1_555 1_555
C4D N4D 1_555 1_555
H5D N4D 1_555 1_555
H6D N4D 1_555 1_555
O6B C10B 1_555 1_555
O8B Fe1B 1_555 1_555
O10B Fe1B 1_555 1_555
N1B Fe1B 1_555 1_555
N2B Fe1B 1_555 1_555
O5D C8D 1_555 1_555
C7D C8D 1_555 1_555
H23D C3D 1_555 1_555
H24D C3D 1_555 1_555
H25D C4D 1_555 1_555
H26D C4D 1_555 1_555
C10B C9B 1_555 1_555
C12B O8B 1_555 1_555
C14B O10B 1_555 1_555
C1B N1B 1_555 1_555
C7B N1B 1_555 1_555
C9B N1B 1_555 1_555
C2B N2B 1_555 1_555
C11B N2B 1_555 1_555
C13B N2B 1_555 1_555
N1D C7D 1_555 1_555
H15D C7D 1_555 1_555
H16D C7D 1_555 1_555
O7B C10B 1_555 1_555
O9B C12B 1_555 1_555
O11B C14B 1_555 1_555
H11B C1B 1_555 1_555
H12B C1B 1_555 1_555
C8B C7B 1_555 1_555
H15B C7B 1_555 1_555
H16B C7B 1_555 1_555
H17B C9B 1_555 1_555
H18B C9B 1_555 1_555
H13B C2B 1_555 1_555
H14B C2B 1_555 1_555
H19B C11B 1_555 1_555
H20B C11B 1_555 1_555
H21B C13B 1_555 1_555
H22B C13B 1_555 1_555
Fe1D N1D 1_555 1_555
C1D N1D 1_555 1_555
C9D N1D 1_555 1_555
O4B C8B 1_555 1_555
O5B C8B 1_555 1_555
O1D Fe1D 1_555 1_555
O6D Fe1D 1_555 1_555
O8D Fe1D 1_555 1_555
O10D Fe1D 1_555 1_555
N2D Fe1D 1_555 1_555
C2D C1D 1_555 1_555
H11D C1D 1_555 1_555
H12D C1D 1_555 1_555
C10D C9D 1_555 1_555
H17D C9D 1_555 1_555
H18D C9D 1_555 1_555
Cu2B O4B 1_555 1_555
Fe1F O1D 1_555 1_555
C12D O8D 1_555 1_555
C14D O10D 1_555 1_555
C11D N2D 1_555 1_555
C13D N2D 1_555 1_555
H13D C2D 1_555 1_555
H14D C2D 1_555 1_555
O7D C10D 1_555 1_555
O4F Cu2B 1_555 1_555
N3B Cu2B 1_555 1_555
N3F Cu2B 1_555 1_555
N4B Cu2B 1_555 1_555
N4F Cu2B 1_555 1_555
O6F Fe1F 1_555 1_555
O8F Fe1F 1_555 1_555
O10F Fe1F 1_555 1_555
N1F Fe1F 1_555 1_555
N2F Fe1F 1_555 1_555
O9D C12D 1_555 1_555
O11D C14D 1_555 1_555
H19D C11D 1_555 1_555
H20D C11D 1_555 1_555
H21D C13D 1_555 1_555
H22D C13D 1_555 1_555
C8F O4F 1_555 1_555
C3B N3B 1_555 1_555
H3B N3B 1_555 1_555
H4B N3B 1_555 1_555
C3F N3F 1_555 1_555
H3F N3F 1_555 1_555
H4F N3F 1_555 1_555
C4B N4B 1_555 1_555
H5B N4B 1_555 1_555
H6B N4B 1_555 1_555
C4F N4F 1_555 1_555
H5F N4F 1_555 1_555
H6F N4F 1_555 1_555
C10F O6F 1_555 1_555
C12F O8F 1_555 1_555
C14F O10F 1_555 1_555
C1F N1F 1_555 1_555
C7F N1F 1_555 1_555
C9F N1F 1_555 1_555
C2F N2F 1_555 1_555
C11F N2F 1_555 1_555
C13F N2F 1_555 1_555
O5F C8F 1_555 1_555
C7F_2 C8F 1_555 1_555
H23B C3B 1_555 1_555
H24B C3B 1_555 1_555
H23F C3F 1_555 1_555
H24F C3F 1_555 1_555
H25B C4B 1_555 1_555
H26B C4B 1_555 1_555
H25F C4F 1_555 1_555
H26F C4F 1_555 1_555
O7F C10F 1_555 1_555
O9F C12F 1_555 1_555
O11F C14F 1_555 1_555
H11F C1F 1_555 1_555
H12F C1F 1_555 1_555
C8F_2 C7F 1_555 1_555
H15F C7F 1_555 1_555
H16F C7F 1_555 1_555
H17F C9F 1_555 1_555
H18F C9F 1_555 1_555
H13F C2F 1_555 1_555
H14F C2F 1_555 1_555
H19F C11F 1_555 1_555
H20F C11F 1_555 1_555
H21F C13F 1_555 1_555
H22F C13F 1_555 1_555
C1 C2 1_555 1_555
C3 C4 1_555 1_555
C5 C6 1_555 1_555
C9 C10 1_555 1_555
C11 C12 1_555 1_555
C13 C14 1_555 1_555
C5D C6D 1_555 1_555
C3D C4D 1_555 1_555
C12B C11B 1_555 1_555
C14B C13B 1_555 1_555
C1B C2B 1_555 1_555
O6D C10D 1_555 1_555
N2D C2D 1_555 1_555
C12D C11D 1_555 1_555
C14D C13D 1_555 1_555
C3B C4B 1_555 1_555
C3F C4F 1_555 1_555
C10F C9F 1_555 1_555
C12F C11F 1_555 1_555
C14F C13F 1_555 1_555
C1F C2F 1_555 1_555

#END
