
#######################################################################
#
#                 Cambridge Crystallographic Data Centre
#                                CCDC 
#
#######################################################################
#
# If this CIF has been generated from an entry in the Cambridge 
# Structural Database, then it will include bibliographic, chemical, 
# crystal, experimental, refinement or atomic coordinate data resulting 
# from the CCDC's data processing and validation procedures.
#
#######################################################################

data_SABDIJ
_symmetry_cell_setting           monoclinic
_symmetry_space_group_name_H-M   'P 2/c'
_symmetry_Int_Tables_number      13
_space_group_name_Hall           '-P 2yc'
loop_
_symmetry_equiv_pos_site_id
_symmetry_equiv_pos_as_xyz
1 x,y,z
2 -x,y,1/2-z
3 -x,-y,-z
4 x,-y,1/2+z
_cell_length_a                   11.227(4)
_cell_length_b                   11.267(4)
_cell_length_c                   16.090(6)
_cell_angle_alpha                90
_cell_angle_beta                 103.750(4)
_cell_angle_gamma                90
_cell_volume                     1976.97
loop_
_atom_site_label
_atom_site_type_symbol
_atom_site_fract_x
_atom_site_fract_y
_atom_site_fract_z
Co1 Co 0.5000 0.26513(4) 0.7500
Cl1 Cl 0.59907(5) 0.26696(5) 0.62862(4)
N1 N 0.3272(2) 0.2186(2) 0.6609(1)
N2 N 0.5000 0.0817(2) 0.7500
N3 N 0.5000 -0.5455(2) 0.7500
C1 C 0.2429(2) 0.2921(2) 0.6145(2)
C2 C 0.1347(2) 0.2533(2) 0.5606(2)
C3 C 0.1110(2) 0.1330(2) 0.5546(2)
C4 C 0.1967(2) 0.0547(2) 0.6018(2)
C5 C 0.3043(2) 0.0999(2) 0.6532(1)
C6 C 0.4031(2) 0.0227(2) 0.7026(1)
C7 C 0.4001(2) -0.1011(2) 0.7009(1)
C8 C 0.5000 -0.1634(3) 0.7500
C9 C 0.5000 -0.2952(3) 0.7500
C10 C 0.4653(2) -0.4830(2) 0.6770(2)
C11 C 0.4599(2) -0.3606(2) 0.6744(2)
H1 H 0.2583 0.3755 0.6189
H2 H 0.0780 0.3084 0.5283
H3 H 0.0367 0.1041 0.5187
H4 H 0.1818 -0.0282 0.5992
H5 H 0.3317 -0.1423 0.6671
H6 H 0.4292 -0.3210 0.6215
H7 H 0.4439 -0.5254 0.6247
C6A C 0.5969(2) 0.0227(2) 0.7974(1)
C5A C 0.6957(2) 0.0999(2) 0.8468(1)
N1A N 0.6728(2) 0.2186(2) 0.8391(1)
C1A C 0.7571(2) 0.2921(2) 0.8855(2)
C2A C 0.8653(2) 0.2533(2) 0.9394(2)
C3A C 0.8890(2) 0.1330(2) 0.9454(2)
C4A C 0.8033(2) 0.0547(2) 0.8982(2)
H4A H 0.8182 -0.0282 0.9008
H3A H 0.9633 0.1041 0.9813
H2A H 0.9220 0.3084 0.9717
H1A H 0.7417 0.3755 0.8811
C7A C 0.5999(2) -0.1011(2) 0.7991(1)
C10A C 0.5347(2) -0.4830(2) 0.8230(2)
C11A C 0.5401(2) -0.3606(2) 0.8256(2)
H6A H 0.5708 -0.3210 0.8785
H7A H 0.5561 -0.5254 0.8753
H5A H 0.6683 -0.1423 0.8329
Cl1A Cl 0.40093(5) 0.26696(5) 0.87138(4)
N3_2 N 0.5000 0.4545(2) 0.7500
Co1_2 Co 0.5000 -0.73487(4) 0.7500
Co2 Co 0.0000 0.23788(4) 0.2500
Cl2 Cl 0.10652(5) 0.24460(5) 0.13418(4)
N4 N 0.1679(2) 0.1923(2) 0.3401(1)
N5 N 0.0000 0.0539(2) 0.2500
N6 N 0.0000 -0.5729(2) 0.2500
C12 C 0.2478(2) 0.2683(2) 0.3879(2)
C13 C 0.3547(2) 0.2328(2) 0.4440(2)
C14 C 0.3809(2) 0.1128(2) 0.4520(2)
C15 C 0.2989(2) 0.0319(2) 0.4033(2)
C16 C 0.1926(2) 0.0741(2) 0.3491(1)
C17 C 0.0959(2) -0.0043(2) 0.2978(1)
C18 C 0.1001(2) -0.1282(2) 0.2986(1)
C19 C 0.0000 -0.1913(3) 0.2500
C20 C 0.0000 -0.3228(3) 0.2500
C21 C 0.1075(2) -0.3877(2) 0.2551(1)
C22 C 0.1024(2) -0.5103(2) 0.2510(1)
H8 H 0.2295 0.3513 0.3828
H9 H 0.4091 0.2893 0.4766
H10 H 0.4543 0.0856 0.4900
H11 H 0.3157 -0.0508 0.4072
H12 H 0.1695 -0.1689 0.3314
H13 H 0.1835 -0.3477 0.2613
H14 H 0.1748 -0.5524 0.2486
C17A C -0.0959(2) -0.0043(2) 0.2022(1)
C16A C -0.1926(2) 0.0741(2) 0.1509(1)
N4A N -0.1679(2) 0.1923(2) 0.1599(1)
C12A C -0.2478(2) 0.2683(2) 0.1121(2)
C13A C -0.3547(2) 0.2328(2) 0.0560(2)
C14A C -0.3809(2) 0.1128(2) 0.0480(2)
C15A C -0.2989(2) 0.0319(2) 0.0967(2)
H11A H -0.3157 -0.0508 0.0928
H10A H -0.4543 0.0856 0.0100
H9A H -0.4091 0.2893 0.0234
H8A H -0.2295 0.3513 0.1172
C18A C -0.1001(2) -0.1282(2) 0.2014(1)
C22A C -0.1024(2) -0.5103(2) 0.2490(1)
C21A C -0.1075(2) -0.3877(2) 0.2449(1)
H13A H -0.1835 -0.3477 0.2387
H14A H -0.1748 -0.5524 0.2514
H12A H -0.1695 -0.1689 0.1686
Cl2A Cl -0.10652(5) 0.24460(5) 0.36582(4)
N6_2 N 0.0000 0.4271(2) 0.2500
Co2_2 Co 0.0000 -0.76212(4) 0.2500
O1 O 0.6900(2) 0.4770(2) 0.5273(1)
C23 C 0.8032(3) 0.4278(3) 0.5182(2)
H15 H 0.6767 0.4139 0.5551
H16 H 0.8693 0.4694 0.5542
H17 H 0.8082 0.4346 0.4605
H18 H 0.8069 0.3464 0.5343
loop_
_geom_bond_atom_site_label_1
_geom_bond_atom_site_label_2
_geom_bond_site_symmetry_1
_geom_bond_site_symmetry_2
Co1 Cl1 1_555 1_555
N1 Co1 1_555 1_555
N2 Co1 1_555 1_555
N3 C10 1_555 1_555
C1 N1 1_555 1_555
C2 C1 1_555 1_555
C3 C2 1_555 1_555
C4 C3 1_555 1_555
C5 N1 1_555 1_555
C6 N2 1_555 1_555
C7 C6 1_555 1_555
C8 C7 1_555 1_555
C9 C8 1_555 1_555
C10 C11 1_555 1_555
C11 C9 1_555 1_555
H1 C1 1_555 1_555
H2 C2 1_555 1_555
H3 C3 1_555 1_555
H4 C4 1_555 1_555
H5 C7 1_555 1_555
H6 C11 1_555 1_555
H7 C10 1_555 1_555
Co2 Cl2 1_555 1_555
N4 Co2 1_555 1_555
N5 Co2 1_555 1_555
N6 C22 1_555 1_555
C12 N4 1_555 1_555
C13 C12 1_555 1_555
C14 C13 1_555 1_555
C15 C14 1_555 1_555
C16 N4 1_555 1_555
C17 N5 1_555 1_555
C18 C17 1_555 1_555
C19 C18 1_555 1_555
C20 C19 1_555 1_555
C21 C20 1_555 1_555
C22 C21 1_555 1_555
H8 C12 1_555 1_555
H9 C13 1_555 1_555
H10 C14 1_555 1_555
H11 C15 1_555 1_555
H12 C18 1_555 1_555
H13 C21 1_555 1_555
H14 C22 1_555 1_555
O1 C23 1_555 1_555
C23 H16 1_555 1_555
H15 O1 1_555 1_555
H17 C23 1_555 1_555
H18 C23 1_555 1_555
C6A N2 1_555 1_555
C5A C6A 1_555 1_555
N1A Co1 1_555 1_555
C1A N1A 1_555 1_555
C2A C1A 1_555 1_555
C3A C2A 1_555 1_555
C4A C5A 1_555 1_555
H4A C4A 1_555 1_555
H3A C3A 1_555 1_555
H2A C2A 1_555 1_555
H1A C1A 1_555 1_555
C7A C8 1_555 1_555
C10A N3 1_555 1_555
C11A C9 1_555 1_555
H6A C11A 1_555 1_555
H7A C10A 1_555 1_555
H5A C7A 1_555 1_555
Cl1A Co1 1_555 1_555
N3_2 Co1 1_555 1_555
Co1_2 N3 1_555 1_555
C17A N5 1_555 1_555
C16A C17A 1_555 1_555
N4A Co2 1_555 1_555
C12A N4A 1_555 1_555
C13A C12A 1_555 1_555
C14A C13A 1_555 1_555
C15A C16A 1_555 1_555
H11A C15A 1_555 1_555
H10A C14A 1_555 1_555
H9A C13A 1_555 1_555
H8A C12A 1_555 1_555
C18A C19 1_555 1_555
C22A N6 1_555 1_555
C21A C20 1_555 1_555
H13A C21A 1_555 1_555
H14A C22A 1_555 1_555
H12A C18A 1_555 1_555
Cl2A Co2 1_555 1_555
N6_2 Co2 1_555 1_555
Co2_2 N6 1_555 1_555
C4 C5 1_555 1_555
C5 C6 1_555 1_555
C15 C16 1_555 1_555
C16 C17 1_555 1_555
C6A C7A 1_555 1_555
C5A N1A 1_555 1_555
C3A C4A 1_555 1_555
C10A C11A 1_555 1_555
C17A C18A 1_555 1_555
C16A N4A 1_555 1_555
C14A C15A 1_555 1_555
C22A C21A 1_555 1_555

#END
