
#######################################################################
#
#                 Cambridge Crystallographic Data Centre
#                                CCDC 
#
#######################################################################
#
# If this CIF has been generated from an entry in the Cambridge 
# Structural Database, then it will include bibliographic, chemical, 
# crystal, experimental, refinement or atomic coordinate data resulting 
# from the CCDC's data processing and validation procedures.
#
#######################################################################

data_SABLIR
_symmetry_cell_setting           monoclinic
_symmetry_space_group_name_H-M   'P 21/m'
_symmetry_Int_Tables_number      11
_space_group_name_Hall           '-P 2yb'
loop_
_symmetry_equiv_pos_site_id
_symmetry_equiv_pos_as_xyz
1 x,y,z
2 x,1/2-y,z
3 -x,-y,-z
4 -x,1/2+y,-z
_cell_length_a                   7.1540(5)
_cell_length_b                   13.9081(9)
_cell_length_c                   11.2511(7)
_cell_angle_alpha                90
_cell_angle_beta                 92.6850(10)
_cell_angle_gamma                90
_cell_volume                     1118.24
loop_
_atom_site_label
_atom_site_type_symbol
_atom_site_fract_x
_atom_site_fract_y
_atom_site_fract_z
O4 O 0.3178(4) 0.8438(2) 0.3698(3)
N2 N 0.4309(3) 0.7500 0.2256(2)
C10 C 0.3822(4) 0.83602(17) 0.2761(2)
C11 C 0.5195(7) 0.7500 0.1129(3)
H9 H 0.449(5) 0.886(2) 0.249(3)
H10 H 0.279(9) 0.840(4) 0.230(5)
H11 H 0.589(6) 0.794(3) 0.097(3)
H12 H 0.418(7) 0.7500 0.047(4)
C10A C 0.3822(4) 0.66398(17) 0.2761(2)
O4A O 0.3178(4) 0.6562(2) 0.3698(3)
H9A H 0.449(5) 0.614(2) 0.249(3)
H10A H 0.279(9) 0.660(4) 0.230(5)
H11A H 0.589(6) 0.706(3) 0.097(3)
O5 O 0.0106(5) 0.7500 0.0500(2)
H13 H -0.003(5) 0.7986(16) 0.003(2)
H13A H -0.003(5) 0.7014(16) 0.003(2)
O6 O 0.0580(3) 0.7500 0.7142(2)
H14 H 0.037(4) 0.8034(15) 0.744(3)
H14A H 0.037(4) 0.6966(15) 0.744(3)
Cu1 Cu 0.67805(4) 0.7500 0.63978(2)
O1 O 0.6204(2) 0.84962(11) 0.75245(11)
O2 O 0.8892(2) 0.88692(11) 0.85110(13)
O3 O 0.3666(3) 0.7500 0.57469(18)
N1 N 0.74984(19) 0.65663(9) 0.51348(12)
C1 C 0.7309(3) 0.56106(13) 0.51679(18)
C2 C 0.7862(4) 0.50251(15) 0.4260(2)
C3 C 0.8639(3) 0.54269(16) 0.3302(2)
C4 C 0.8820(3) 0.64146(15) 0.32390(16)
C5 C 0.8218(2) 0.69711(12) 0.41675(12)
C6 C 0.7170(3) 0.89022(11) 0.83553(14)
C7 C 0.6042(2) 0.94795(11) 0.92038(13)
C8 C 0.6937(2) 1.00504(13) 1.00707(15)
C9 C 0.4104(3) 0.94317(13) 0.91408(15)
H1 H 0.675(3) 0.5376(15) 0.579(2)
H2 H 0.772(4) 0.439(2) 0.428(2)
H3 H 0.889(4) 0.501(2) 0.272(2)
H4 H 0.939(3) 0.6732(16) 0.2626(19)
H5 H 0.820(3) 1.0096(13) 1.0134(16)
H6 H 0.348(3) 0.9045(16) 0.8580(15)
H7 H 0.311(10) 0.7500 0.504(3)
H8 H 0.271(3) 0.7500 0.613(3)
C9B C 0.5896(3) 1.05683(13) 1.08592(15)
C7B C 0.3958(2) 1.05205(11) 1.07962(13)
C6B C 0.2830(3) 1.10978(11) 1.16447(14)
O1B O 0.3796(2) 1.15038(11) 1.24755(11)
O2B O 0.1108(2) 1.11308(11) 1.14890(13)
C8B C 0.3063(2) 0.99496(13) 0.99293(15)
H5B H 0.180(3) 0.9904(13) 0.9866(16)
H6B H 0.652(3) 1.0955(16) 1.1420(15)
C5A C 0.8218(2) 0.80289(12) 0.41675(12)
N1A N 0.74984(19) 0.84337(9) 0.51348(12)
C1A C 0.7309(3) 0.93894(13) 0.51679(18)
C2A C 0.7862(4) 0.99749(15) 0.4260(2)
C3A C 0.8639(3) 0.95731(16) 0.3302(2)
C4A C 0.8820(3) 0.85854(15) 0.32390(16)
H4A H 0.939(3) 0.8268(16) 0.2626(19)
H3A H 0.889(4) 0.999(2) 0.272(2)
H2A H 0.772(4) 1.061(2) 0.428(2)
H1A H 0.675(3) 0.9624(15) 0.579(2)
O1A O 0.6204(2) 0.65038(11) 0.75245(11)
Cu1B Cu 0.32195(4) 1.2500 1.36022(2)
loop_
_geom_bond_atom_site_label_1
_geom_bond_atom_site_label_2
_geom_bond_site_symmetry_1
_geom_bond_site_symmetry_2
Cu1 O1 1_555 1_555
O1 C6 1_555 1_555
O2 C6 1_555 1_555
O3 Cu1 1_555 1_555
O4 C10 1_555 1_555
O5 H13 1_555 1_555
O6 H14 1_555 1_555
N1 Cu1 1_555 1_555
N2 C10 1_555 1_555
C1 N1 1_555 1_555
C2 C1 1_555 1_555
C3 C2 1_555 1_555
C4 C3 1_555 1_555
C5 N1 1_555 1_555
C6 C7 1_555 1_555
C7 C8 1_555 1_555
C8 H5 1_555 1_555
C9 C7 1_555 1_555
C10 H9 1_555 1_555
C11 N2 1_555 1_555
H1 C1 1_555 1_555
H2 C2 1_555 1_555
H3 C3 1_555 1_555
H4 C4 1_555 1_555
H6 C9 1_555 1_555
H7 O3 1_555 1_555
H8 O3 1_555 1_555
H10 C10 1_555 1_555
H11 C11 1_555 1_555
H12 C11 1_555 1_555
C9B C8 1_555 1_555
C7B C9B 1_555 1_555
C6B C7B 1_555 1_555
O1B C6B 1_555 1_555
O2B C6B 1_555 1_555
C8B C9 1_555 1_555
H5B C8B 1_555 1_555
H6B C9B 1_555 1_555
C10A N2 1_555 1_555
O4A C10A 1_555 1_555
H9A C10A 1_555 1_555
H10A C10A 1_555 1_555
H11A C11 1_555 1_555
H13A O5 1_555 1_555
H14A O6 1_555 1_555
C5A C5 1_555 1_555
N1A Cu1 1_555 1_555
C1A N1A 1_555 1_555
C2A C1A 1_555 1_555
C3A C2A 1_555 1_555
C4A C5A 1_555 1_555
H4A C4A 1_555 1_555
H3A C3A 1_555 1_555
H2A C2A 1_555 1_555
H1A C1A 1_555 1_555
O1A Cu1 1_555 1_555
Cu1B O1B 1_555 1_555
C4 C5 1_555 1_555
C7B C8B 1_555 1_555
C5A N1A 1_555 1_555
C3A C4A 1_555 1_555

#END
