
#######################################################################
#
#                 Cambridge Crystallographic Data Centre
#                                CCDC 
#
#######################################################################
#
# If this CIF has been generated from an entry in the Cambridge 
# Structural Database, then it will include bibliographic, chemical, 
# crystal, experimental, refinement or atomic coordinate data resulting 
# from the CCDC's data processing and validation procedures.
#
#######################################################################

data_SABNIT
_symmetry_cell_setting           orthorhombic
_symmetry_space_group_name_H-M   'C c c 2'
_symmetry_Int_Tables_number      37
_space_group_name_Hall           'C 2 -2c'
loop_
_symmetry_equiv_pos_site_id
_symmetry_equiv_pos_as_xyz
1 x,y,z
2 -x,-y,z
3 -x,y,1/2+z
4 x,-y,1/2+z
5 1/2+x,1/2+y,z
6 1/2-x,1/2-y,z
7 1/2-x,1/2+y,1/2+z
8 1/2+x,1/2-y,1/2+z
_cell_length_a                   13.27(1)
_cell_length_b                   19.88(2)
_cell_length_c                   10.100(9)
_cell_angle_alpha                90
_cell_angle_beta                 90
_cell_angle_gamma                90
_cell_volume                     2664.46
loop_
_atom_site_label
_atom_site_type_symbol
_atom_site_fract_x
_atom_site_fract_y
_atom_site_fract_z
Ni1 Ni -0.7500 -0.2500 -0.2270
S1 S -0.8537(1) -0.45848(7) -0.7263(2)
O1 O -0.8977(5) -0.2198(6) -0.2120(9)
O2 O -1.004(1) -0.2671(7) -0.299(1)
O3 O -1.0489(5) -0.1886(5) -0.187(1)
N1 N -0.7875(5) -0.3203(3) -0.3754(5)
N2 N -0.7795(4) -0.3217(3) -1.0764(5)
N3 N -0.9790(4) -0.2078(5) -0.2452(9)
C1 C -0.8404(6) -0.2987(3) -0.4820(6)
C2 C -0.8614(6) -0.3382(3) -0.5902(6)
C3 C -0.8272(5) -0.4043(3) -0.5924(6)
C4 C -0.7694(5) -0.4269(3) -0.4820(7)
C5 C -0.7543(4) -0.3829(3) -0.3785(6)
C6 C -0.8641(4) -0.3583(3) -1.0731(6)
C7 C -0.8897(4) -0.3998(3) -0.9686(6)
C8 C -0.8239(4) -0.4054(3) -0.8621(5)
C9 C -0.7368(5) -0.3683(4) -0.8670(6)
C10 C -0.7165(5) -0.3285(3) -0.9742(6)
H1 H -0.8644 -0.2536 -0.4819
H2 H -0.8987 -0.3205 -0.6625
H3 H -0.7421 -0.4710 -0.4799
H4 H -0.7173 -0.3987 -0.3042
H5 H -0.9088 -0.3556 -1.1463
H6 H -0.9513 -0.4241 -0.9695
H7 H -0.6903 -0.3703 -0.7955
H8 H -0.6546 -0.3045 -0.9760
O1E O -0.6023(5) -0.2802(6) -0.2120(9)
O2E O -0.496(1) -0.2329(7) -0.299(1)
O3E O -0.4511(5) -0.3114(5) -0.187(1)
N3E N -0.5210(4) -0.2922(5) -0.2452(9)
S1E S -0.6463(1) -0.04152(7) -0.7263(2)
N1E N -0.7125(5) -0.1797(3) -0.3754(5)
N2E N -0.7205(4) -0.1783(3) -1.0764(5)
C1E C -0.6596(6) -0.2013(3) -0.4820(6)
C2E C -0.6386(6) -0.1618(3) -0.5902(6)
C3E C -0.6728(5) -0.0957(3) -0.5924(6)
C4E C -0.7306(5) -0.0731(3) -0.4820(7)
C5E C -0.7457(4) -0.1171(3) -0.3785(6)
C6E C -0.6359(4) -0.1417(3) -1.0731(6)
C7E C -0.6103(4) -0.1002(3) -0.9686(6)
C8E C -0.6761(4) -0.0946(3) -0.8621(5)
C9E C -0.7632(5) -0.1317(4) -0.8670(6)
C10E C -0.7835(5) -0.1715(3) -0.9742(6)
H1E H -0.6356 -0.2464 -0.4819
H2E H -0.6013 -0.1795 -0.6625
H3E H -0.7579 -0.0290 -0.4799
H4E H -0.7827 -0.1013 -0.3042
H5E H -0.5912 -0.1444 -1.1463
H6E H -0.5487 -0.0759 -0.9695
H7E H -0.8097 -0.1297 -0.7955
H8E H -0.8454 -0.1955 -0.9760
N2_2 N -0.7795(4) -0.3217(3) -0.0764(5)
N2E_2 N -0.7205(4) -0.1783(3) -0.0764(5)
Ni1_2 Ni -0.7500 -0.2500 -1.2270
loop_
_geom_bond_atom_site_label_1
_geom_bond_atom_site_label_2
_geom_bond_site_symmetry_1
_geom_bond_site_symmetry_2
Ni1 O1 1_555 1_555
S1 C3 1_555 1_555
O1 N3 1_555 1_555
O2 N3 1_555 1_555
O3 N3 1_555 1_555
N1 Ni1 1_555 1_555
N2 C6 1_555 1_555
C1 N1 1_555 1_555
C2 C1 1_555 1_555
C3 C2 1_555 1_555
C4 C3 1_555 1_555
C5 N1 1_555 1_555
C6 C7 1_555 1_555
C7 C8 1_555 1_555
C8 S1 1_555 1_555
C9 C8 1_555 1_555
C10 N2 1_555 1_555
H1 C1 1_555 1_555
H2 C2 1_555 1_555
H3 C4 1_555 1_555
H4 C5 1_555 1_555
H5 C6 1_555 1_555
H6 C7 1_555 1_555
H7 C9 1_555 1_555
H8 C10 1_555 1_555
O1E Ni1 1_555 1_555
O2E N3E 1_555 1_555
O3E N3E 1_555 1_555
N3E O1E 1_555 1_555
S1E C3E 1_555 1_555
N1E Ni1 1_555 1_555
N2E C6E 1_555 1_555
C1E N1E 1_555 1_555
C2E C1E 1_555 1_555
C3E C2E 1_555 1_555
C4E C3E 1_555 1_555
C5E N1E 1_555 1_555
C6E C7E 1_555 1_555
C7E C8E 1_555 1_555
C8E S1E 1_555 1_555
C9E C8E 1_555 1_555
C10E N2E 1_555 1_555
H1E C1E 1_555 1_555
H2E C2E 1_555 1_555
H3E C4E 1_555 1_555
H4E C5E 1_555 1_555
H5E C6E 1_555 1_555
H6E C7E 1_555 1_555
H7E C9E 1_555 1_555
H8E C10E 1_555 1_555
N2_2 Ni1 1_555 1_555
N2E_2 Ni1 1_555 1_555
Ni1_2 N2 1_555 1_555
C4 C5 1_555 1_555
C9 C10 1_555 1_555
N2E Ni1_2 1_555 1_555
C4E C5E 1_555 1_555
C9E C10E 1_555 1_555

#END
