
#######################################################################
#
#                 Cambridge Crystallographic Data Centre
#                                CCDC 
#
#######################################################################
#
# If this CIF has been generated from an entry in the Cambridge 
# Structural Database, then it will include bibliographic, chemical, 
# crystal, experimental, refinement or atomic coordinate data resulting 
# from the CCDC's data processing and validation procedures.
#
#######################################################################

data_SABNIT01
_symmetry_cell_setting           orthorhombic
_symmetry_space_group_name_H-M   'P n c 2'
_symmetry_Int_Tables_number      30
_space_group_name_Hall           'P 2 -2bc'
loop_
_symmetry_equiv_pos_site_id
_symmetry_equiv_pos_as_xyz
1 x,y,z
2 -x,-y,z
3 -x,1/2+y,1/2+z
4 x,1/2-y,1/2+z
_cell_length_a                   13.1233(8)
_cell_length_b                   19.468(1)
_cell_length_c                   10.1241(5)
_cell_angle_alpha                90
_cell_angle_beta                 90
_cell_angle_gamma                90
_cell_volume                     2586.55
loop_
_atom_site_label
_atom_site_type_symbol
_atom_site_fract_x
_atom_site_fract_y
_atom_site_fract_z
Ni1 Ni -0.5000 -0.5000 0.0342
S1 S -0.46282(3) -0.71970(2) -0.46699(4)
O1 O -0.66038(7) -0.49931(4) 0.0123(1)
O2 O -0.73208(8) -0.55476(6) 0.1736(1)
O3 O -0.79849(10) -0.55680(7) -0.0203(1)
N1 N -0.49460(8) -0.57496(6) -0.1160(1)
N2 N -0.48504(8) -0.57402(6) -0.8180(1)
N3 N -0.73073(8) -0.53831(5) 0.0555(1)
C1 C -0.42010(10) -0.62138(7) -0.1218(1)
C2 C -0.4066(1) -0.66602(6) -0.2282(1)
C3 C -0.4742(1) -0.66179(7) -0.3327(1)
C4 C -0.5517(1) -0.61379(7) -0.3278(1)
C5 C -0.5596(1) -0.57207(7) -0.2178(1)
C6 C -0.42383(10) -0.56032(6) -0.7152(1)
C7 C -0.4154(1) -0.60242(7) -0.6060(1)
C8 C -0.4733(1) -0.66205(7) -0.6017(1)
C9 C -0.5355(1) -0.67754(6) -0.7074(1)
C10 C -0.5395(1) -0.63248(6) -0.8133(1)
H1 H -0.3738 -0.6242 -0.0499
H2 H -0.3524 -0.6984 -0.2289
H3 H -0.5986 -0.6095 -0.3987
H4 H -0.6138 -0.5398 -0.2142
H5 H -0.3842 -0.5195 -0.7176
H6 H -0.3709 -0.5908 -0.5354
H7 H -0.5750 -0.7184 -0.7076
H8 H -0.5826 -0.6434 -0.8857
O1A O -0.33962(7) -0.50069(4) 0.0123(1)
O2A O -0.26792(8) -0.44524(6) 0.1736(1)
O3A O -0.20151(10) -0.44320(7) -0.0203(1)
N3A N -0.26927(8) -0.46169(5) 0.0555(1)
S1A S -0.53718(3) -0.28030(2) -0.46699(4)
N1A N -0.50540(8) -0.42504(6) -0.1160(1)
N2A N -0.51496(8) -0.42598(6) -0.8180(1)
C1A C -0.57990(10) -0.37862(7) -0.1218(1)
C2A C -0.5934(1) -0.33398(6) -0.2282(1)
C3A C -0.5258(1) -0.33821(7) -0.3327(1)
C4A C -0.4483(1) -0.38621(7) -0.3278(1)
C5A C -0.4404(1) -0.42793(7) -0.2178(1)
C6A C -0.57617(10) -0.43968(6) -0.7152(1)
C7A C -0.5846(1) -0.39758(7) -0.6060(1)
C8A C -0.5267(1) -0.33795(7) -0.6017(1)
C9A C -0.4645(1) -0.32246(6) -0.7074(1)
C10A C -0.4605(1) -0.36752(6) -0.8133(1)
H1A H -0.6262 -0.3758 -0.0499
H2A H -0.6476 -0.3016 -0.2289
H3A H -0.4014 -0.3905 -0.3987
H4A H -0.3862 -0.4602 -0.2142
H5A H -0.6158 -0.4805 -0.7176
H6A H -0.6291 -0.4092 -0.5354
H7A H -0.4250 -0.2816 -0.7076
H8A H -0.4174 -0.3566 -0.8857
N2_2 N -0.48504(8) -0.57402(6) 0.1820(1)
N2A_2 N -0.51496(8) -0.42598(6) 0.1820(1)
Ni1_2 Ni -0.5000 -0.5000 -0.9658
Ni2 Ni -1.0000 -0.5000 0.44204(3)
S2 S -1.15778(3) -0.69710(2) -0.05903(4)
O4 O -0.87577(6) -0.56759(5) 0.4382(1)
O5 O -0.73189(8) -0.62011(6) 0.4496(1)
O6 O -0.73832(8) -0.51161(5) 0.4928(1)
N4 N -1.05323(9) -0.56608(6) 0.2909(1)
N5 N -1.06031(9) -0.56463(5) -0.4087(1)
N6 N -0.78019(8) -0.56573(6) 0.4613(1)
C11 C -0.98912(10) -0.58286(8) 0.1906(1)
C12 C -1.0184(1) -0.62092(9) 0.0833(2)
C13 C -1.1173(1) -0.64556(7) 0.0764(1)
C14 C -1.18312(10) -0.63074(7) 0.1796(1)
C15 C -1.1477(1) -0.59148(7) 0.2828(1)
C16 C -1.0444(1) -0.63263(7) -0.4075(1)
C17 C -1.0728(1) -0.67442(7) -0.3027(1)
C18 C -1.1202(1) -0.64521(7) -0.1946(1)
C19 C -1.1396(1) -0.57515(7) -0.1967(1)
C20 C -1.1076(1) -0.53766(7) -0.3040(1)
H9 H -0.9205 -0.5674 0.1952
H10 H -0.9713 -0.6303 0.0143
H11 H -1.2512 -0.6473 0.1790
H12 H -1.1934 -0.5818 0.3531
H13 H -1.0122 -0.6532 -0.4818
H14 H -1.0598 -0.7224 -0.3052
H15 H -1.1742 -0.5536 -0.1255
H16 H -1.1199 -0.4896 -0.3036
O4A O -1.12423(6) -0.43241(5) 0.4382(1)
O5A O -1.26811(8) -0.37989(6) 0.4496(1)
O6A O -1.26168(8) -0.48839(5) 0.4928(1)
N6A N -1.21981(8) -0.43427(6) 0.4613(1)
S2A S -0.84222(3) -0.30290(2) -0.05903(4)
N4A N -0.94677(9) -0.43392(6) 0.2909(1)
N5A N -0.93969(9) -0.43537(5) -0.4087(1)
C11A C -1.01088(10) -0.41714(8) 0.1906(1)
C12A C -0.9816(1) -0.37908(9) 0.0833(2)
C13A C -0.8827(1) -0.35444(7) 0.0764(1)
C14A C -0.81688(10) -0.36926(7) 0.1796(1)
C15A C -0.8523(1) -0.40852(7) 0.2828(1)
C16A C -0.9556(1) -0.36737(7) -0.4075(1)
C17A C -0.9272(1) -0.32558(7) -0.3027(1)
C18A C -0.8798(1) -0.35479(7) -0.1946(1)
C19A C -0.8604(1) -0.42485(7) -0.1967(1)
C20A C -0.8924(1) -0.46234(7) -0.3040(1)
H9A H -1.0795 -0.4326 0.1952
H10A H -1.0287 -0.3697 0.0143
H11A H -0.7488 -0.3527 0.1790
H12A H -0.8066 -0.4182 0.3531
H13A H -0.9878 -0.3468 -0.4818
H14A H -0.9402 -0.2776 -0.3052
H15A H -0.8258 -0.4464 -0.1255
H16A H -0.8801 -0.5104 -0.3036
N5_2 N -1.06031(9) -0.56463(5) 0.5913(1)
N5A_2 N -0.93969(9) -0.43537(5) 0.5913(1)
Ni2_2 Ni -1.0000 -0.5000 -0.55796(3)
O7 O -0.8982(1) -0.72071(10) 0.3613(2)
C21 C -0.8188(2) -0.7724(2) 0.3141(3)
C22 C -0.7935(3) -0.7446(2) 0.1884(4)
H17 H -0.7613 -0.7735 0.3711
H18 H -0.8467 -0.8172 0.3065
H19 H -0.7433 -0.7726 0.1475
H20 H -0.7675 -0.6994 0.1991
H21 H -0.8527 -0.7432 0.1345
loop_
_geom_bond_atom_site_label_1
_geom_bond_atom_site_label_2
_geom_bond_site_symmetry_1
_geom_bond_site_symmetry_2
Ni1 O1 1_555 1_555
Ni2 O4 1_555 1_555
S1 C3 1_555 1_555
S2 C13 1_555 1_555
O1 N3 1_555 1_555
O2 N3 1_555 1_555
O3 N3 1_555 1_555
O4 N6 1_555 1_555
O5 N6 1_555 1_555
O6 N6 1_555 1_555
O7 C21 1_555 1_555
N1 Ni1 1_555 1_555
N2 C6 1_555 1_555
N4 Ni2 1_555 1_555
N5 C16 1_555 1_555
C1 N1 1_555 1_555
C2 C1 1_555 1_555
C3 C2 1_555 1_555
C4 C3 1_555 1_555
C5 N1 1_555 1_555
C6 C7 1_555 1_555
C7 C8 1_555 1_555
C8 S1 1_555 1_555
C9 C8 1_555 1_555
C10 N2 1_555 1_555
C11 N4 1_555 1_555
C12 C11 1_555 1_555
C13 C12 1_555 1_555
C14 C13 1_555 1_555
C15 N4 1_555 1_555
C16 C17 1_555 1_555
C17 C18 1_555 1_555
C18 S2 1_555 1_555
C19 C18 1_555 1_555
C20 N5 1_555 1_555
C21 C22 1_555 1_555
C22 H19 1_555 1_555
H1 C1 1_555 1_555
H2 C2 1_555 1_555
H3 C4 1_555 1_555
H4 C5 1_555 1_555
H5 C6 1_555 1_555
H6 C7 1_555 1_555
H7 C9 1_555 1_555
H8 C10 1_555 1_555
H9 C11 1_555 1_555
H10 C12 1_555 1_555
H11 C14 1_555 1_555
H12 C15 1_555 1_555
H13 C16 1_555 1_555
H14 C17 1_555 1_555
H15 C19 1_555 1_555
H16 C20 1_555 1_555
H17 C21 1_555 1_555
H18 C21 1_555 1_555
H20 C22 1_555 1_555
H21 C22 1_555 1_555
O1A Ni1 1_555 1_555
O2A N3A 1_555 1_555
O3A N3A 1_555 1_555
N3A O1A 1_555 1_555
S1A C3A 1_555 1_555
N1A Ni1 1_555 1_555
N2A C6A 1_555 1_555
C1A N1A 1_555 1_555
C2A C1A 1_555 1_555
C3A C2A 1_555 1_555
C4A C3A 1_555 1_555
C5A N1A 1_555 1_555
C6A C7A 1_555 1_555
C7A C8A 1_555 1_555
C8A S1A 1_555 1_555
C9A C8A 1_555 1_555
C10A N2A 1_555 1_555
H1A C1A 1_555 1_555
H2A C2A 1_555 1_555
H3A C4A 1_555 1_555
H4A C5A 1_555 1_555
H5A C6A 1_555 1_555
H6A C7A 1_555 1_555
H7A C9A 1_555 1_555
H8A C10A 1_555 1_555
O4A Ni2 1_555 1_555
O5A N6A 1_555 1_555
O6A N6A 1_555 1_555
N6A O4A 1_555 1_555
S2A C13A 1_555 1_555
N4A Ni2 1_555 1_555
N5A C16A 1_555 1_555
C11A N4A 1_555 1_555
C12A C11A 1_555 1_555
C13A C12A 1_555 1_555
C14A C13A 1_555 1_555
C15A N4A 1_555 1_555
C16A C17A 1_555 1_555
C17A C18A 1_555 1_555
C18A S2A 1_555 1_555
C19A C18A 1_555 1_555
C20A N5A 1_555 1_555
H9A C11A 1_555 1_555
H10A C12A 1_555 1_555
H11A C14A 1_555 1_555
H12A C15A 1_555 1_555
H13A C16A 1_555 1_555
H14A C17A 1_555 1_555
H15A C19A 1_555 1_555
H16A C20A 1_555 1_555
N2_2 Ni1 1_555 1_555
N2A_2 Ni1 1_555 1_555
N5_2 Ni2 1_555 1_555
N5A_2 Ni2 1_555 1_555
Ni1_2 N2 1_555 1_555
Ni2_2 N5 1_555 1_555
C4 C5 1_555 1_555
C9 C10 1_555 1_555
C14 C15 1_555 1_555
C19 C20 1_555 1_555
N2A Ni1_2 1_555 1_555
C4A C5A 1_555 1_555
C9A C10A 1_555 1_555
N5A Ni2_2 1_555 1_555
C14A C15A 1_555 1_555
C19A C20A 1_555 1_555

#END
