
#######################################################################
#
#                 Cambridge Crystallographic Data Centre
#                                CCDC 
#
#######################################################################
#
# If this CIF has been generated from an entry in the Cambridge 
# Structural Database, then it will include bibliographic, chemical, 
# crystal, experimental, refinement or atomic coordinate data resulting 
# from the CCDC's data processing and validation procedures.
#
#######################################################################

data_SABRET
_symmetry_cell_setting           tetragonal
_symmetry_space_group_name_H-M   'P -4 n 2'
_symmetry_Int_Tables_number      118
_space_group_name_Hall           'P -4 -2n'
loop_
_symmetry_equiv_pos_site_id
_symmetry_equiv_pos_as_xyz
1 x,y,z
2 -x,-y,z
3 y,-x,-z
4 -y,x,-z
5 1/2+x,1/2-y,1/2+z
6 1/2-x,1/2+y,1/2+z
7 1/2+y,1/2+x,1/2-z
8 1/2-y,1/2-x,1/2-z
_cell_length_a                   11.8787(8)
_cell_length_b                   11.8787(8)
_cell_length_c                   7.0539(10)
_cell_angle_alpha                90
_cell_angle_beta                 90
_cell_angle_gamma                90
_cell_volume                     995.33
loop_
_atom_site_label
_atom_site_type_symbol
_atom_site_fract_x
_atom_site_fract_y
_atom_site_fract_z
B1 B 0.5000 0.5000 0.5000
C1 C 0.5224(5) 0.2912(6) 0.3870(9)
C2 C 0.4132(5) 0.2899(4) 0.1402(7)
C3 C 0.4115(4) 0.3946(5) 0.2122(6)
C4 C 0.3531(6) 0.2452(5) -0.0330(8)
H1 H 0.578(4) 0.272(4) 0.482(7)
H2 H 0.370(5) 0.439(6) 0.166(8)
H3 H 0.317(6) 0.299(7) -0.089(12)
H4 H 0.316(5) 0.174(5) 0.021(7)
H5 H 0.408(5) 0.213(5) -0.114(9)
N1 N 0.4840(4) 0.2236(5) 0.248(2)
N2 N 0.4791(4) 0.3973(5) 0.3702(7)
Pb1 Pb 0.5000 0.0000 0.2500
N2A N 0.5209(4) 0.6027(5) 0.3702(7)
C1A C 0.4776(5) 0.7088(6) 0.3870(9)
H1A H 0.422(4) 0.728(4) 0.482(7)
N1A N 0.5160(4) 0.7764(5) 0.248(2)
C2A C 0.5868(5) 0.7101(4) 0.1402(7)
C3A C 0.5885(4) 0.6054(5) 0.2122(6)
H2A H 0.630(5) 0.561(6) 0.166(8)
C4A C 0.6469(6) 0.7548(5) -0.0330(8)
H3A H 0.683(6) 0.701(7) -0.089(12)
H4A H 0.684(5) 0.826(5) 0.021(7)
H5A H 0.592(5) 0.787(5) -0.114(9)
N2B N 0.3973(5) 0.5209(4) 0.6298(7)
C1B C 0.2912(6) 0.4776(5) 0.6130(9)
H1B H 0.272(4) 0.422(4) 0.518(7)
N1B N 0.2236(5) 0.5160(4) 0.752(2)
C2B C 0.2899(4) 0.5868(5) 0.8598(7)
C3B C 0.3946(5) 0.5885(4) 0.7878(6)
H2B H 0.439(6) 0.630(5) 0.834(8)
C4B C 0.2452(5) 0.6469(6) 1.0330(8)
H3B H 0.299(7) 0.683(6) 1.089(12)
H4B H 0.174(5) 0.684(5) 0.979(7)
H5B H 0.213(5) 0.592(5) 1.114(9)
N2C N 0.6027(5) 0.4791(4) 0.6298(7)
C1C C 0.7088(6) 0.5224(5) 0.6130(9)
H1C H 0.728(4) 0.578(4) 0.518(7)
N1C N 0.7764(5) 0.4840(4) 0.752(2)
C2C C 0.7101(4) 0.4132(5) 0.8598(7)
C3C C 0.6054(5) 0.4115(4) 0.7878(6)
H2C H 0.561(6) 0.370(5) 0.834(8)
C4C C 0.7548(5) 0.3531(6) 1.0330(8)
H3C H 0.701(7) 0.317(6) 1.089(12)
H4C H 0.826(5) 0.316(5) 0.979(7)
H5C H 0.787(5) 0.408(5) 1.114(9)
N1A_2 N 0.5160(4) -0.2236(5) 0.248(2)
N1F N 0.7236(5) -0.0160(4) 0.252(2)
N1G N 0.2764(5) 0.0160(4) 0.252(2)
Pb1_2 Pb 0.5000 1.0000 0.2500
Pb1B Pb 0.0000 0.5000 0.7500
Pb1B_2 Pb 1.0000 0.5000 0.7500
loop_
_geom_bond_atom_site_label_1
_geom_bond_atom_site_label_2
_geom_bond_site_symmetry_1
_geom_bond_site_symmetry_2
B1 N2 1_555 1_555
C1 H1 1_555 1_555
C2 C3 1_555 1_555
C3 H2 1_555 1_555
C4 C2 1_555 1_555
H3 C4 1_555 1_555
H4 C4 1_555 1_555
H5 C4 1_555 1_555
N1 C1 1_555 1_555
N2 C1 1_555 1_555
Pb1 N1 1_555 1_555
N2A B1 1_555 1_555
C1A N2A 1_555 1_555
H1A C1A 1_555 1_555
N1A C1A 1_555 1_555
C2A N1A 1_555 1_555
C3A N2A 1_555 1_555
H2A C3A 1_555 1_555
C4A C2A 1_555 1_555
H3A C4A 1_555 1_555
H4A C4A 1_555 1_555
H5A C4A 1_555 1_555
N2B B1 1_555 1_555
C1B N2B 1_555 1_555
H1B C1B 1_555 1_555
N1B C1B 1_555 1_555
C2B N1B 1_555 1_555
C3B N2B 1_555 1_555
H2B C3B 1_555 1_555
C4B C2B 1_555 1_555
H3B C4B 1_555 1_555
H4B C4B 1_555 1_555
H5B C4B 1_555 1_555
N2C B1 1_555 1_555
C1C N2C 1_555 1_555
H1C C1C 1_555 1_555
N1C C1C 1_555 1_555
C2C N1C 1_555 1_555
C3C N2C 1_555 1_555
H2C C3C 1_555 1_555
C4C C2C 1_555 1_555
H3C C4C 1_555 1_555
H4C C4C 1_555 1_555
H5C C4C 1_555 1_555
N1A_2 Pb1 1_555 1_555
N1F Pb1 1_555 1_555
N1G Pb1 1_555 1_555
Pb1_2 N1A 1_555 1_555
Pb1B N1B 1_555 1_555
Pb1B_2 N1C 1_555 1_555
C2 N1 1_555 1_555
C3 N2 1_555 1_555
C2A C3A 1_555 1_555
C2B C3B 1_555 1_555
C2C C3C 1_555 1_555

#END
