
#######################################################################
#
#                 Cambridge Crystallographic Data Centre
#                                CCDC 
#
#######################################################################
#
# If this CIF has been generated from an entry in the Cambridge 
# Structural Database, then it will include bibliographic, chemical, 
# crystal, experimental, refinement or atomic coordinate data resulting 
# from the CCDC's data processing and validation procedures.
#
#######################################################################

data_SABRAP
_symmetry_cell_setting           triclinic
_symmetry_space_group_name_H-M   'P -1'
_symmetry_Int_Tables_number      2
_space_group_name_Hall           '-P 1'
loop_
_symmetry_equiv_pos_site_id
_symmetry_equiv_pos_as_xyz
1 x,y,z
2 -x,-y,-z
_cell_length_a                   8.3541(8)
_cell_length_b                   8.7948(9)
_cell_length_c                   10.1676(10)
_cell_angle_alpha                92.330(2)
_cell_angle_beta                 100.383(2)
_cell_angle_gamma                104.589(2)
_cell_volume                     708.204
loop_
_atom_site_label
_atom_site_type_symbol
_atom_site_fract_x
_atom_site_fract_y
_atom_site_fract_z
B1 B 0.1058(5) 0.2163(5) 0.7802(4)
Tl1 Tl 0.534589(14) 0.819242(13) 0.623651(11)
N1 N 0.3438(4) 0.5370(4) 0.6100(3)
C1 C 0.3018(5) 0.4696(5) 0.7158(4)
H1 H 0.347(5) 0.508(4) 0.803(4)
N2 N 0.1860(4) 0.3285(4) 0.6844(3)
C2 C 0.2507(5) 0.4333(5) 0.5022(4)
H2 H 0.258(8) 0.454(7) 0.422(6)
C3 C 0.1536(5) 0.3064(5) 0.5465(4)
H3 H 0.089(5) 0.229(5) 0.501(4)
N3 N 0.3581(4) 0.2803(4) 1.1260(3)
N4 N 0.1961(4) 0.2716(4) 0.9256(3)
C4 C 0.2975(5) 0.2019(5) 1.0079(4)
H4 H 0.320(6) 0.106(6) 0.984(4)
N5 N 0.2599(4) -0.1257(4) 0.6968(3)
C5 C 0.2951(5) 0.4095(4) 1.1213(4)
H5 H 0.332(5) 0.488(5) 1.194(4)
N6 N 0.1257(4) 0.0522(4) 0.7437(3)
C6 C 0.1947(5) 0.4055(5) 0.9995(4)
H6 H 0.152(7) 0.465(6) 0.960(5)
C7 C 0.2561(5) 0.0228(5) 0.6952(4)
H7 H 0.336(6) 0.103(6) 0.672(5)
N7 N -0.3428(4) 0.2292(4) 0.6880(3)
C8 C 0.1231(5) -0.1984(5) 0.7505(4)
H8 H 0.095(6) -0.316(6) 0.761(5)
N8 N -0.0806(4) 0.2141(3) 0.7693(3)
C9 C 0.0399(5) -0.0910(4) 0.7790(4)
H9 H -0.060(6) -0.102(5) 0.811(5)
C10 C -0.1912(5) 0.2414(4) 0.6631(4)
H10 H -0.166(7) 0.269(7) 0.587(6)
C11 C -0.3304(5) 0.1894(5) 0.8182(4)
H11 H -0.415(6) 0.173(5) 0.864(4)
C12 C -0.1727(5) 0.1804(5) 0.8679(4)
H12 H -0.123(6) 0.170(5) 0.946(5)
N3A N 0.6419(4) 0.7197(4) 0.8740(3)
N5_2 N 0.2599(4) 0.8743(4) 0.6968(3)
Tl1A Tl 0.465411(14) 0.180758(13) 1.376349(11)
Tl1_2 Tl 0.534589(14) -0.180758(13) 0.623651(11)
loop_
_geom_bond_atom_site_label_1
_geom_bond_atom_site_label_2
_geom_bond_site_symmetry_1
_geom_bond_site_symmetry_2
B1 N2 1_555 1_555
Tl1 N1 1_555 1_555
N1 C1 1_555 1_555
C1 H1 1_555 1_555
N2 C1 1_555 1_555
C2 N1 1_555 1_555
H2 C2 1_555 1_555
C3 N2 1_555 1_555
H3 C3 1_555 1_555
N3 C4 1_555 1_555
N4 B1 1_555 1_555
C4 N4 1_555 1_555
H4 C4 1_555 1_555
N5 C7 1_555 1_555
C5 N3 1_555 1_555
H5 C5 1_555 1_555
N6 B1 1_555 1_555
C6 N4 1_555 1_555
H6 C6 1_555 1_555
C7 N6 1_555 1_555
H7 C7 1_555 1_555
N7 C10 1_555 1_555
C8 N5 1_555 1_555
H8 C8 1_555 1_555
N8 B1 1_555 1_555
C9 N6 1_555 1_555
H9 C9 1_555 1_555
C10 N8 1_555 1_555
H10 C10 1_555 1_555
C11 N7 1_555 1_555
H11 C11 1_555 1_555
C12 N8 1_555 1_555
H12 C12 1_555 1_555
N3A Tl1 1_555 1_555
N5_2 Tl1 1_555 1_555
Tl1A N3 1_555 1_555
Tl1_2 N5 1_555 1_555
C2 C3 1_555 1_555
C5 C6 1_555 1_555
C8 C9 1_555 1_555
C11 C12 1_555 1_555

#END
