
#######################################################################
#
#                 Cambridge Crystallographic Data Centre
#                                CCDC 
#
#######################################################################
#
# If this CIF has been generated from an entry in the Cambridge 
# Structural Database, then it will include bibliographic, chemical, 
# crystal, experimental, refinement or atomic coordinate data resulting 
# from the CCDC's data processing and validation procedures.
#
#######################################################################

data_SABRIX
_symmetry_cell_setting           triclinic
_symmetry_space_group_name_H-M   'P -1'
_symmetry_Int_Tables_number      2
_space_group_name_Hall           '-P 1'
loop_
_symmetry_equiv_pos_site_id
_symmetry_equiv_pos_as_xyz
1 x,y,z
2 -x,-y,-z
_cell_length_a                   9.2033(9)
_cell_length_b                   9.7728(9)
_cell_length_c                   11.2972(10)
_cell_angle_alpha                79.6080(10)
_cell_angle_beta                 73.1080(10)
_cell_angle_gamma                76.4220(10)
_cell_volume                     938.182
loop_
_atom_site_label
_atom_site_type_symbol
_atom_site_fract_x
_atom_site_fract_y
_atom_site_fract_z
Tl1 Tl 0.725330(10) 0.775971(10) -0.352319(8)
N1 N 0.7532(3) 0.7924(2) -0.1367(2)
N2 N 0.7661(2) 0.7046(2) 0.0572(2)
C1 C 0.8616(3) 0.8037(3) 0.0134(3)
C2 C 0.7044(3) 0.7035(3) -0.0376(2)
C3 C 0.8539(3) 0.8558(3) -0.1050(3)
C4 C 0.9359(4) 0.9612(3) -0.1954(3)
B1 B 0.7183(3) 0.6310(3) 0.1916(3)
N3 N 0.5870(2) 0.7312(2) 0.2714(2)
C5 C 0.5062(3) 0.8574(3) 0.2319(3)
N4 N 0.4042(3) 0.9216(2) 0.3235(2)
C6 C 0.5301(3) 0.7148(3) 0.4002(2)
C7 C 0.4185(3) 0.8320(3) 0.4305(2)
H1 H 0.525(3) 0.893(3) 0.152(3)
N5 N 0.6628(2) 0.4961(2) 0.1839(2)
N6 N 0.8570(2) 0.5944(2) 0.2499(2)
C8 C 0.5254(3) 0.4591(3) 0.2433(3)
C9 C 0.9721(3) 0.4783(3) 0.2429(3)
C10 C 0.8997(3) 0.6849(3) 0.3098(2)
C11 C 0.7416(3) 0.3903(3) 0.1089(3)
C12 C 1.0361(3) 0.6179(3) 0.3367(2)
N7 N 0.5113(3) 0.3392(2) 0.2131(2)
N8 N 1.0818(3) 0.4870(2) 0.2937(2)
C13 C 0.6490(3) 0.2948(3) 0.1278(3)
C14 C 1.1295(3) 0.6687(4) 0.4020(3)
C15 C 0.3192(4) 0.8676(4) 0.5559(3)
C16 C 0.6824(4) 0.1592(3) 0.0730(4)
H2 H 1.222(4) 0.701(3) 0.344(3)
H3 H 1.070(4) 0.750(4) 0.445(4)
H4 H 1.155(4) 0.599(4) 0.471(3)
H5 H 0.831(4) 0.389(3) 0.056(3)
H6 H 0.680(5) 0.078(5) 0.131(4)
H7 H 0.349(5) 0.940(5) 0.588(4)
H8 H 0.445(3) 0.512(3) 0.300(3)
H9 H 0.571(4) 0.624(3) 0.458(3)
H10 H 0.832(3) 0.776(3) 0.330(3)
H11 H 0.970(3) 0.400(3) 0.205(3)
H12 H 0.212(4) 0.914(4) 0.552(3)
H13 H 0.636(4) 0.642(3) -0.031(3)
H14 H 0.321(4) 0.787(4) 0.616(3)
H15 H 0.863(6) 1.037(5) -0.218(4)
H16 H 0.923(4) 0.827(4) 0.066(3)
H17 H 0.999(5) 0.924(4) -0.266(4)
H18 H 0.774(5) 0.155(4) 0.008(4)
H19 H 1.002(5) 0.997(4) -0.161(4)
H20 H 0.604(5) 0.159(4) 0.041(4)
N4A N 0.5958(3) 1.0784(2) -0.3235(2)
N7A N 0.4887(3) 0.6608(2) -0.2131(2)
N8A N 0.9182(3) 0.5130(2) -0.2937(2)
Tl1A Tl 0.274670(10) 1.224029(10) 0.352319(8)
Tl1A_2 Tl 0.274670(10) 0.224029(10) 0.352319(8)
Tl1A_3 Tl 1.274670(10) 0.224029(10) 0.352319(8)
loop_
_geom_bond_atom_site_label_1
_geom_bond_atom_site_label_2
_geom_bond_site_symmetry_1
_geom_bond_site_symmetry_2
Tl1 N1 1_555 1_555
N1 C2 1_555 1_555
N2 C1 1_555 1_555
C1 C3 1_555 1_555
C2 N2 1_555 1_555
C3 N1 1_555 1_555
C4 C3 1_555 1_555
B1 N2 1_555 1_555
N3 B1 1_555 1_555
C5 N3 1_555 1_555
N4 C5 1_555 1_555
C6 N3 1_555 1_555
C7 N4 1_555 1_555
H1 C5 1_555 1_555
N5 B1 1_555 1_555
N6 B1 1_555 1_555
C8 N5 1_555 1_555
C9 N6 1_555 1_555
C10 N6 1_555 1_555
C11 N5 1_555 1_555
C12 C10 1_555 1_555
N7 C8 1_555 1_555
N8 C9 1_555 1_555
C13 C11 1_555 1_555
C14 C12 1_555 1_555
C15 C7 1_555 1_555
C16 C13 1_555 1_555
H2 C14 1_555 1_555
H3 C14 1_555 1_555
H4 C14 1_555 1_555
H5 C11 1_555 1_555
H6 C16 1_555 1_555
H7 C15 1_555 1_555
H8 C8 1_555 1_555
H9 C6 1_555 1_555
H10 C10 1_555 1_555
H11 C9 1_555 1_555
H12 C15 1_555 1_555
H13 C2 1_555 1_555
H14 C15 1_555 1_555
H15 C4 1_555 1_555
H16 C1 1_555 1_555
H17 C4 1_555 1_555
H18 C16 1_555 1_555
H19 C4 1_555 1_555
H20 C16 1_555 1_555
N4A Tl1 1_555 1_555
N7A Tl1 1_555 1_555
N8A Tl1 1_555 1_555
Tl1A N4 1_555 1_555
Tl1A_2 N7 1_555 1_555
Tl1A_3 N8 1_555 1_555
C6 C7 1_555 1_555
C12 N8 1_555 1_555
N7 C13 1_555 1_555

#END
