
#######################################################################
#
#                 Cambridge Crystallographic Data Centre
#                                CCDC 
#
#######################################################################
#
# If this CIF has been generated from an entry in the Cambridge 
# Structural Database, then it will include bibliographic, chemical, 
# crystal, experimental, refinement or atomic coordinate data resulting 
# from the CCDC's data processing and validation procedures.
#
#######################################################################

data_SABVUN
_symmetry_cell_setting           orthorhombic
_symmetry_space_group_name_H-M   'I m m a'
_symmetry_Int_Tables_number      74
_space_group_name_Hall           '-I 2b 2'
loop_
_symmetry_equiv_pos_site_id
_symmetry_equiv_pos_as_xyz
1 x,y,z
2 -x,1/2-y,z
3 x,-y,-z
4 -x,1/2+y,-z
5 1/2+x,1/2+y,1/2+z
6 1/2-x,-y,1/2+z
7 1/2+x,1/2-y,1/2-z
8 1/2-x,y,1/2-z
9 -x,-y,-z
10 x,1/2+y,-z
11 -x,y,z
12 x,1/2-y,z
13 1/2-x,1/2-y,1/2-z
14 1/2+x,y,1/2-z
15 1/2-x,1/2+y,1/2+z
16 1/2+x,-y,1/2+z
_cell_length_a                   6.6085(9)
_cell_length_b                   16.675(3)
_cell_length_c                   12.813(2)
_cell_angle_alpha                90
_cell_angle_beta                 90
_cell_angle_gamma                90
_cell_volume                     1411.95
loop_
_atom_site_label
_atom_site_type_symbol
_atom_site_fract_x
_atom_site_fract_y
_atom_site_fract_z
Al1 Al 0.250 0.2500 0.7500
O1 O 0.000 0.2500 0.693(1)
O2 O 0.156(1) 0.1670(4) 0.8417(6)
C1 C -0.192(1) 0.0362(7) 0.974(1)
C2 C 0.000 0.060(1) 0.957(2)
C3 C 0.000 0.1292(9) 0.883(1)
O2J O -0.156(1) 0.1670(4) 0.8417(6)
C1B C -0.192(1) -0.0362(7) 1.026(1)
C2B C 0.000 -0.060(1) 1.043(2)
C1H C 0.192(1) -0.0362(7) 1.026(1)
C1J C 0.192(1) 0.0362(7) 0.974(1)
C3B C 0.000 -0.1292(9) 1.117(1)
O2B O 0.156(1) -0.1670(4) 1.1583(6)
O2H O -0.156(1) -0.1670(4) 1.1583(6)
O1F O 0.500 0.2500 0.807(1)
O2G O 0.344(1) 0.1670(4) 0.6583(6)
O2K O 0.156(1) 0.3330(4) 0.8417(6)
O2L O 0.344(1) 0.3330(4) 0.6583(6)
Al1A Al -0.250 0.2500 0.7500
Al1B Al 0.250 -0.2500 1.2500
Al1C Al -0.250 -0.2500 1.2500
loop_
_geom_bond_atom_site_label_1
_geom_bond_atom_site_label_2
_geom_bond_site_symmetry_1
_geom_bond_site_symmetry_2
Al1 O1 1_555 1_555
O1 Al1A 1_555 1_555
O2 Al1 1_555 1_555
C1 C2 1_555 1_555
C2 C3 1_555 1_555
C3 O2 1_555 1_555
O2J C3 1_555 1_555
C1B C1 1_555 1_555
C2B C1B 1_555 1_555
C1H C2B 1_555 1_555
C1J C2 1_555 1_555
C3B C2B 1_555 1_555
O2B C3B 1_555 1_555
O2H C3B 1_555 1_555
O1F Al1 1_555 1_555
O2G Al1 1_555 1_555
O2K Al1 1_555 1_555
O2L Al1 1_555 1_555
Al1A O2J 1_555 1_555
Al1B O2B 1_555 1_555
Al1C O2H 1_555 1_555
C1H C1J 1_555 1_555

#END
