
#######################################################################
#
#                 Cambridge Crystallographic Data Centre
#                                CCDC 
#
#######################################################################
#
# If this CIF has been generated from an entry in the Cambridge 
# Structural Database, then it will include bibliographic, chemical, 
# crystal, experimental, refinement or atomic coordinate data resulting 
# from the CCDC's data processing and validation procedures.
#
#######################################################################

data_SABWOJ
_symmetry_cell_setting           monoclinic
_symmetry_space_group_name_H-M   'P 21/c'
_symmetry_Int_Tables_number      14
_space_group_name_Hall           '-P 2ybc'
loop_
_symmetry_equiv_pos_site_id
_symmetry_equiv_pos_as_xyz
1 x,y,z
2 -x,1/2+y,1/2-z
3 -x,-y,-z
4 x,1/2-y,1/2+z
_cell_length_a                   15.4247(11)
_cell_length_b                   6.2317(4)
_cell_length_c                   16.9672(12)
_cell_angle_alpha                90
_cell_angle_beta                 110.126(1)
_cell_angle_gamma                90
_cell_volume                     1531.34
loop_
_atom_site_label
_atom_site_type_symbol
_atom_site_fract_x
_atom_site_fract_y
_atom_site_fract_z
Cu1 Cu 0.12711(2) 0.36151(6) -0.27839(2)
N1 N 0.02028(17) 0.4642(4) -0.36555(15)
C1 C 0.0265(2) 0.6461(5) -0.40392(19)
C2 C -0.0523(2) 0.7394(6) -0.4602(2)
H1 H -0.0492 0.8680 -0.4870
C3 C -0.1362(2) 0.6335(6) -0.4753(2)
H2 H -0.1900 0.6917 -0.5132
C4 C -0.1404(2) 0.4429(6) -0.4347(2)
H3 H -0.1962 0.3713 -0.4452
C5 C -0.0589(2) 0.3622(5) -0.37802(19)
C6 C 0.1257(2) 0.7254(6) -0.37742(19)
O1 O 0.14343(17) 0.8928(4) -0.40791(16)
O2 O 0.18452(15) 0.6046(4) -0.32419(14)
C7 C -0.0454(2) 0.1666(5) -0.32230(19)
O3 O -0.11501(15) 0.0651(4) -0.32348(14)
O4 O 0.03786(15) 0.1249(3) -0.27775(14)
N2 N 0.24097(17) 0.2340(4) -0.20018(16)
C8 C 0.2694(3) 0.0416(7) -0.2117(3)
H4 H 0.2351 -0.0342 -0.2594
C9 C 0.3476(3) -0.0541(7) -0.1564(3)
H5 H 0.3653 -0.1904 -0.1673
C10 C 0.3982(2) 0.0530(6) -0.0862(2)
C11 C 0.3676(3) 0.2527(9) -0.0708(3)
H6 H 0.3991 0.3276 -0.0219
C12 C 0.2895(3) 0.3375(8) -0.1295(3)
H7 H 0.2695 0.4725 -0.1196
N3 N 0.4784(2) -0.0547(6) -0.0304(2)
Cu1A Cu -0.12711(2) 0.86151(6) -0.22161(2)
Cu1A_2 Cu -0.12711(2) -0.13849(6) -0.22161(2)
Cu1B Cu 0.87289(2) -0.36151(6) 0.27839(2)
N1A N -0.02028(17) 0.9642(4) -0.13445(15)
C1A C -0.0265(2) 1.1461(5) -0.09608(19)
C2A C 0.0523(2) 1.2394(6) -0.0398(2)
H1A H 0.0492 1.3680 -0.0130
C3A C 0.1362(2) 1.1335(6) -0.0247(2)
H2A H 0.1900 1.1917 0.0132
C4A C 0.1404(2) 0.9429(6) -0.0653(2)
H3A H 0.1962 0.8713 -0.0548
C5A C 0.0589(2) 0.8622(5) -0.12198(19)
C6A C -0.1257(2) 1.2254(6) -0.12258(19)
O1A O -0.14343(17) 1.3928(4) -0.09209(16)
O2A O -0.18452(15) 1.1046(4) -0.17581(14)
C7A C 0.0454(2) 0.6666(5) -0.17770(19)
O3A O 0.11501(15) 0.5651(4) -0.17652(14)
O3_2 O -0.11501(15) 1.0651(4) -0.32348(14)
O4A O -0.03786(15) 0.6249(3) -0.22225(14)
N2B N 0.75903(17) -0.2340(4) 0.20018(16)
N2A N -0.24097(17) 0.7340(4) -0.29982(16)
C8B C 0.7306(3) -0.0416(7) 0.2117(3)
H4B H 0.7649 0.0342 0.2594
C9B C 0.6524(3) 0.0541(7) 0.1564(3)
H5B H 0.6347 0.1904 0.1673
C10B C 0.6018(2) -0.0530(6) 0.0862(2)
C11B C 0.6324(3) -0.2527(9) 0.0708(3)
H6B H 0.6009 -0.3276 0.0219
C12B C 0.7105(3) -0.3375(8) 0.1295(3)
H7B H 0.7305 -0.4725 0.1196
N3B N 0.5216(2) 0.0547(6) 0.0304(2)
O5 O 0.3056(5) -0.0760(12) -0.4451(4)
C13 C 0.3757(12) -0.183(3) -0.3890(11)
O6? O 0.3984(12) -0.595(3) -0.3181(11)
C14? C 0.366(3) -0.387(4) -0.323(4)
C15? C 0.3765(16) -0.447(4) -0.2676(15)
O7? O 0.346(3) -0.431(8) -0.3548(17)
loop_
_geom_bond_atom_site_label_1
_geom_bond_atom_site_label_2
_geom_bond_site_symmetry_1
_geom_bond_site_symmetry_2
Cu1 N1 1_555 1_555
N1 C1 1_555 1_555
C1 C2 1_555 1_555
C2 H1 1_555 1_555
C3 C2 1_555 1_555
H2 C3 1_555 1_555
C4 C3 1_555 1_555
H3 C4 1_555 1_555
C5 N1 1_555 1_555
C6 C1 1_555 1_555
O1 C6 1_555 1_555
O2 Cu1 1_555 1_555
C7 C5 1_555 1_555
O3 C7 1_555 1_555
O4 Cu1 1_555 1_555
N2 Cu1 1_555 1_555
C8 N2 1_555 1_555
H4 C8 1_555 1_555
C9 C8 1_555 1_555
H5 C9 1_555 1_555
C10 C9 1_555 1_555
C11 C10 1_555 1_555
H6 C11 1_555 1_555
C12 N2 1_555 1_555
H7 C12 1_555 1_555
N3 C10 1_555 1_555
O5 C13 1_555 1_555
Cu1A N1A 1_555 1_555
Cu1A_2 O3 1_555 1_555
Cu1B N2B 1_555 1_555
N1A C1A 1_555 1_555
C1A C2A 1_555 1_555
C2A H1A 1_555 1_555
C3A C2A 1_555 1_555
H2A C3A 1_555 1_555
C4A C3A 1_555 1_555
H3A C4A 1_555 1_555
C5A N1A 1_555 1_555
C6A C1A 1_555 1_555
O1A C6A 1_555 1_555
O2A Cu1A 1_555 1_555
C7A C5A 1_555 1_555
O3A Cu1 1_555 1_555
O3_2 Cu1A 1_555 1_555
O4A Cu1A 1_555 1_555
N2B C8B 1_555 1_555
N2A Cu1A 1_555 1_555
C8B H4B 1_555 1_555
C9B C8B 1_555 1_555
H5B C9B 1_555 1_555
C10B C9B 1_555 1_555
C11B C10B 1_555 1_555
H6B C11B 1_555 1_555
C12B N2B 1_555 1_555
H7B C12B 1_555 1_555
N3B N3 1_555 1_555
C4 C5 1_555 1_555
C6 O2 1_555 1_555
C7 O4 1_555 1_555
C11 C12 1_555 1_555
C4A C5A 1_555 1_555
C6A O2A 1_555 1_555
C7A O3A 1_555 1_555
C7A O4A 1_555 1_555
C10B N3B 1_555 1_555
C11B C12B 1_555 1_555

#END
