
#######################################################################
#
#                 Cambridge Crystallographic Data Centre
#                                CCDC 
#
#######################################################################
#
# If this CIF has been generated from an entry in the Cambridge 
# Structural Database, then it will include bibliographic, chemical, 
# crystal, experimental, refinement or atomic coordinate data resulting 
# from the CCDC's data processing and validation procedures.
#
#######################################################################

data_SABWEX
_symmetry_cell_setting           triclinic
_symmetry_space_group_name_H-M   'P -1'
_symmetry_Int_Tables_number      2
_space_group_name_Hall           '-P 1'
loop_
_symmetry_equiv_pos_site_id
_symmetry_equiv_pos_as_xyz
1 x,y,z
2 -x,-y,-z
_cell_length_a                   5.841(5)
_cell_length_b                   7.843(7)
_cell_length_c                   8.142(8)
_cell_angle_alpha                80.40(7)
_cell_angle_beta                 74.59(7)
_cell_angle_gamma                71.80(7)
_cell_volume                     340.162
loop_
_atom_site_label
_atom_site_type_symbol
_atom_site_fract_x
_atom_site_fract_y
_atom_site_fract_z
C1 C 0.7055(5) -0.2284(4) -0.3061(4)
C2 C 0.4932(4) -0.0880(3) -0.2140(3)
C3 C 0.4906(4) 0.0951(3) -0.2347(3)
C4 C 0.3007(5) 0.2386(3) -0.1578(3)
C5 C 0.3268(3) 0.4260(2) -0.1790(3)
N1 N 0.7114(2) 0.1412(2) -0.3422(2)
O1 O 0.9117(2) 0.0661(2) -0.3055(2)
O2 O 0.6892(3) 0.2531(2) -0.4628(2)
Cu1 Cu 0.0000 0.0000 0.0000
O3 O 0.3155(3) -0.1423(2) -0.1180(2)
O4 O 0.1019(3) 0.2163(2) -0.0599(2)
H1 H 0.7679(23) -0.1783(9) -0.4189(9)
H2 H 0.8345(16) -0.2677(19) -0.2442(13)
H3 H 0.6504(10) -0.3292(12) -0.3144(22)
H4 H 0.4907(4) 0.4202(2) -0.1722(2)
H5 H 0.2989(4) 0.4836(2) -0.2885(5)
H6 H 0.2077(6) 0.4938(3) -0.0901(5)
Cu1_2 Cu 1.0000 0.0000 0.0000
O1_2 O -0.0883(2) 0.0661(2) -0.3055(2)
Cu1_3 Cu -1.0000 0.0000 0.0000
O1A O -0.9117(2) -0.0661(2) 0.3055(2)
N1A N -0.7114(2) -0.1412(2) 0.3422(2)
C3A C -0.4906(4) -0.0951(3) 0.2347(3)
C2A C -0.4932(4) 0.0880(3) 0.2140(3)
C1A C -0.7055(5) 0.2284(4) 0.3061(4)
H1A H -0.7679(23) 0.1783(9) 0.4189(9)
H2A H -0.8345(16) 0.2677(19) 0.2442(13)
H3A H -0.6504(10) 0.3292(12) 0.3144(22)
O3A O -0.3155(3) 0.1423(2) 0.1180(2)
O1A_2 O 0.0883(2) -0.0661(2) 0.3055(2)
O4A O -0.1019(3) -0.2163(2) 0.0599(2)
C4A C -0.3007(5) -0.2386(3) 0.1578(3)
C5A C -0.3268(3) -0.4260(2) 0.1790(3)
H4A H -0.4907(4) -0.4202(2) 0.1722(2)
H5A H -0.2989(4) -0.4836(2) 0.2885(5)
H6A H -0.2077(6) -0.4938(3) 0.0901(5)
O2A O -0.6892(3) -0.2531(2) 0.4628(2)
loop_
_geom_bond_atom_site_label_1
_geom_bond_atom_site_label_2
_geom_bond_site_symmetry_1
_geom_bond_site_symmetry_2
C1 C2 1_555 1_555
C2 C3 1_555 1_555
C3 C4 1_555 1_555
C4 C5 1_555 1_555
C5 H4 1_555 1_555
N1 C3 1_555 1_555
O1 N1 1_555 1_555
O2 N1 1_555 1_555
Cu1 O3 1_555 1_555
O3 C2 1_555 1_555
O4 C4 1_555 1_555
H1 C1 1_555 1_555
H2 C1 1_555 1_555
H3 C1 1_555 1_555
H5 C5 1_555 1_555
H6 C5 1_555 1_555
Cu1_2 O1 1_555 1_555
O1_2 Cu1 1_555 1_555
Cu1_3 O1A 1_555 1_555
O1A N1A 1_555 1_555
N1A C3A 1_555 1_555
C3A C2A 1_555 1_555
C2A C1A 1_555 1_555
C1A H1A 1_555 1_555
H2A C1A 1_555 1_555
H3A C1A 1_555 1_555
O3A Cu1 1_555 1_555
O1A_2 Cu1 1_555 1_555
O4A Cu1 1_555 1_555
C4A C3A 1_555 1_555
C5A C4A 1_555 1_555
H4A C5A 1_555 1_555
H5A C5A 1_555 1_555
H6A C5A 1_555 1_555
O2A N1A 1_555 1_555
Cu1 O4 1_555 1_555
C2A O3A 1_555 1_555
O4A C4A 1_555 1_555

#END
