
#######################################################################
#
#                 Cambridge Crystallographic Data Centre
#                                CCDC 
#
#######################################################################
#
# If this CIF has been generated from an entry in the Cambridge 
# Structural Database, then it will include bibliographic, chemical, 
# crystal, experimental, refinement or atomic coordinate data resulting 
# from the CCDC's data processing and validation procedures.
#
#######################################################################

data_SABWAU
_symmetry_cell_setting           monoclinic
_symmetry_space_group_name_H-M   'C c'
_symmetry_Int_Tables_number      9
_space_group_name_Hall           'C -2yc'
loop_
_symmetry_equiv_pos_site_id
_symmetry_equiv_pos_as_xyz
1 x,y,z
2 x,-y,1/2+z
3 1/2+x,1/2+y,z
4 1/2+x,1/2-y,1/2+z
_cell_length_a                   19.513(2)
_cell_length_b                   7.612(1)
_cell_length_c                   6.576(1)
_cell_angle_alpha                90
_cell_angle_beta                 104.24(1)
_cell_angle_gamma                90
_cell_volume                     946.741
loop_
_atom_site_label
_atom_site_type_symbol
_atom_site_fract_x
_atom_site_fract_y
_atom_site_fract_z
Al1 Al -0.0012(8) 0.000(2) -0.001(3)
O1 O 0.000(2) -0.110(1) -0.256(5)
O2 O 0.0638(9) 0.173(3) -0.051(3)
O3 O 0.4375(9) 0.320(4) 0.060(3)
O4 O 0.0914(9) 0.099(2) -0.340(2)
O5 O 0.4156(8) 0.350(3) 0.363(2)
C1 C 0.1065(8) 0.179(6) -0.160(3)
C2 C 0.3936(7) 0.325(6) 0.165(2)
C3 C 0.2002(6) 0.277(4) 0.129(2)
C4 C 0.2964(8) 0.258(4) -0.130(2)
C5 C 0.2744(4) 0.300(6) 0.219(2)
C6 C 0.2246(8) 0.201(6) -0.212(3)
C7 C 0.1818(7) 0.211(5) -0.078(3)
C8 C 0.3204(5) 0.272(5) 0.090(2)
O1A O 0.000(2) 0.110(1) 0.244(5)
O3B O -0.0625(9) -0.180(4) 0.060(3)
O4A O 0.0914(9) -0.099(2) 0.160(2)
O5C O -0.0844(8) 0.150(3) -0.137(2)
Al1A Al -0.0012(8) 0.000(2) -0.501(3)
Al1B Al 0.4988(8) 0.500(2) -0.001(3)
Al1C Al 0.4988(8) 0.500(2) 0.499(3)
O6 O -0.009(2) 0.545(2) 0.830(6)
loop_
_geom_bond_atom_site_label_1
_geom_bond_atom_site_label_2
_geom_bond_site_symmetry_1
_geom_bond_site_symmetry_2
Al1 O1 1_555 1_555
O1 Al1A 1_555 1_555
O2 Al1 1_555 1_555
O3 C2 1_555 1_555
O4 C1 1_555 1_555
O5 C2 1_555 1_555
C1 O2 1_555 1_555
C2 C8 1_555 1_555
C3 C5 1_555 1_555
C4 C6 1_555 1_555
C5 C8 1_555 1_555
C6 C7 1_555 1_555
C7 C1 1_555 1_555
C8 C4 1_555 1_555
O1A Al1 1_555 1_555
O3B Al1 1_555 1_555
O4A Al1 1_555 1_555
O5C Al1 1_555 1_555
Al1A O4 1_555 1_555
Al1B O3 1_555 1_555
Al1C O5 1_555 1_555
C3 C7 1_555 1_555

#END
