
#######################################################################
#
#                 Cambridge Crystallographic Data Centre
#                                CCDC 
#
#######################################################################
#
# If this CIF has been generated from an entry in the Cambridge 
# Structural Database, then it will include bibliographic, chemical, 
# crystal, experimental, refinement or atomic coordinate data resulting 
# from the CCDC's data processing and validation procedures.
#
#######################################################################

data_SABWAV
_symmetry_cell_setting           monoclinic
_symmetry_space_group_name_H-M   'P 21'
_symmetry_Int_Tables_number      4
_space_group_name_Hall           'P 2yb'
loop_
_symmetry_equiv_pos_site_id
_symmetry_equiv_pos_as_xyz
1 x,y,z
2 -x,1/2+y,-z
_cell_length_a                   15.9467(12)
_cell_length_b                   5.6327(4)
_cell_length_c                   16.6869(13)
_cell_angle_alpha                90
_cell_angle_beta                 111.075(2)
_cell_angle_gamma                90
_cell_volume                     1398.61
loop_
_atom_site_label
_atom_site_type_symbol
_atom_site_fract_x
_atom_site_fract_y
_atom_site_fract_z
Cu1 Cu 0.64496(4) 0.87256(12) 1.01394(4)
N1 N 0.6255(3) 0.9843(10) 1.1133(3)
C1 C 0.5728(4) 0.8615(15) 1.1424(3)
C2 C 0.5610(5) 0.9250(13) 1.2174(4)
H1 H 0.5238(5) 0.8342(13) 1.2393(4)
C3 C 0.6055(4) 1.1268(14) 1.2600(4)
H2 H 0.5997(4) 1.1743(14) 1.3124(4)
C4 C 0.6582(4) 1.2587(13) 1.2260(4)
H3 H 0.6868(4) 1.4004(13) 1.2532(4)
C5 C 0.6681(4) 1.1787(13) 1.1516(3)
C6 C 0.7240(5) 1.2858(13) 1.1048(4)
O1 O 0.7627(3) 1.4752(10) 1.1275(3)
O2 O 0.7279(3) 1.1555(9) 1.0424(2)
C7 C 0.5284(4) 0.6537(12) 1.0820(3)
O3 O 0.5607(3) 0.6142(8) 1.0241(2)
O4 O 0.4648(3) 0.5494(9) 1.0934(2)
Cu2 Cu 0.85748(5) 0.20745(11) 0.49770(4)
N2 N 0.8690(3) 0.0997(10) 0.3936(3)
C8 C 0.9195(4) 0.2222(14) 0.3616(3)
C9 C 0.9258(4) 0.1522(14) 0.2846(4)
H4 H 0.9610(4) 0.2395(14) 0.2595(4)
C10 C 0.8796(5) -0.0474(14) 0.2453(4)
H5 H 0.8816(5) -0.0950(14) 0.1915(4)
C11 C 0.8307(4) -0.1792(12) 0.2818(4)
H6 H 0.8016(4) -0.3215(12) 0.2557(4)
C12 C 0.8251(4) -0.0994(14) 0.3571(4)
C13 C 0.7712(4) -0.2003(12) 0.4089(4)
O5 O 0.7307(3) -0.3888(10) 0.3860(3)
O6 O 0.7722(3) -0.0748(10) 0.4730(3)
C14 C 0.9662(4) 0.4247(12) 0.4196(3)
O7 O 0.9394(3) 0.4703(9) 0.4811(2)
O8 O 1.0284(3) 0.5248(9) 0.4050(3)
N3 N 0.6934(3) 0.7371(12) 0.9303(3)
C15 C 0.7543(5) 0.8490(18) 0.9103(5)
H7 H 0.7806(5) 0.9873(18) 0.9421(5)
C16 C 0.7831(5) 0.7768(15) 0.8448(5)
H8 H 0.8266(5) 0.8665(15) 0.8311(5)
C17 C 0.7469(5) 0.5697(13) 0.7996(4)
C18 C 0.6895(5) 0.4399(12) 0.8266(4)
H9 H 0.6678(5) 0.2902(12) 0.8014(4)
C19 C 0.6632(5) 0.5306(14) 0.8916(4)
H10 H 0.6222(5) 0.4417(14) 0.9091(4)
N4 N 0.8201(4) 0.3401(12) 0.5882(3)
C20 C 0.7679(7) 0.2129(21) 0.6190(7)
H11 H 0.7448(7) 0.0667(21) 0.5915(7)
C21 C 0.7454(8) 0.2785(19) 0.6874(7)
H12 H 0.7088(8) 0.1773(19) 0.7066(7)
C22 C 0.7747(5) 0.4853(14) 0.7279(4)
C23 C 0.8311(6) 0.6140(19) 0.6995(5)
H13 H 0.8577(6) 0.7556(19) 0.7285(5)
C24 C 0.8499(5) 0.5385(15) 0.6278(5)
H14 H 0.8862(5) 0.6369(15) 0.6072(5)
Cu1A Cu 0.35504(4) 0.37256(12) 0.98606(4)
O4A O 0.5352(3) 1.0494(9) 0.9066(2)
Cu2A Cu 1.14252(5) 0.70745(11) 0.50230(4)
O8A O 0.9716(3) 0.0248(9) 0.5950(3)
C25 C 0.9287(7) -0.5134(27) 0.0729(9)
Cl1 Cl 1.0169(2) -0.3671(7) 0.1522(2)
Cl2 Cl 0.9588(2) -0.8134(8) 0.0697(2)
O10 O 0.4711(10) 1.4663(33) 1.3491(10)
O9? O 0.5734(11) 1.5422(35) 1.4229(10)
O11? O 0.5297(11) 1.8797(44) 1.4214(11)
O12? O 0.4301(9) 1.4685(29) 1.2690(9)
O13? O 0.5666(15) 1.7134(53) 1.4653(15)
loop_
_geom_bond_atom_site_label_1
_geom_bond_atom_site_label_2
_geom_bond_site_symmetry_1
_geom_bond_site_symmetry_2
Cu1 N1 1_555 1_555
N1 C1 1_555 1_555
C1 C2 1_555 1_555
C2 H1 1_555 1_555
C3 C2 1_555 1_555
H2 C3 1_555 1_555
C4 C3 1_555 1_555
H3 C4 1_555 1_555
C5 N1 1_555 1_555
C6 C5 1_555 1_555
O1 C6 1_555 1_555
O2 Cu1 1_555 1_555
C7 C1 1_555 1_555
O3 Cu1 1_555 1_555
O4 C7 1_555 1_555
Cu2 N2 1_555 1_555
N2 C8 1_555 1_555
C8 C9 1_555 1_555
C9 H4 1_555 1_555
C10 C9 1_555 1_555
H5 C10 1_555 1_555
C11 C10 1_555 1_555
H6 C11 1_555 1_555
C12 N2 1_555 1_555
C13 C12 1_555 1_555
O5 C13 1_555 1_555
O6 Cu2 1_555 1_555
C14 C8 1_555 1_555
O7 Cu2 1_555 1_555
O8 C14 1_555 1_555
N3 Cu1 1_555 1_555
C15 N3 1_555 1_555
H7 C15 1_555 1_555
C16 C15 1_555 1_555
H8 C16 1_555 1_555
C17 C16 1_555 1_555
C18 C17 1_555 1_555
H9 C18 1_555 1_555
C19 N3 1_555 1_555
H10 C19 1_555 1_555
N4 Cu2 1_555 1_555
C20 N4 1_555 1_555
H11 C20 1_555 1_555
C21 C20 1_555 1_555
H12 C21 1_555 1_555
C22 C17 1_555 1_555
C23 C22 1_555 1_555
H13 C23 1_555 1_555
C24 N4 1_555 1_555
H14 C24 1_555 1_555
C25 Cl1 1_555 1_555
Cl2 C25 1_555 1_555
Cu1A O4 1_555 1_555
O4A Cu1 1_555 1_555
Cu2A O8 1_555 1_555
O8A Cu2 1_555 1_555
C4 C5 1_555 1_555
C6 O2 1_555 1_555
C7 O3 1_555 1_555
C11 C12 1_555 1_555
C13 O6 1_555 1_555
C14 O7 1_555 1_555
C18 C19 1_555 1_555
C21 C22 1_555 1_555
C23 C24 1_555 1_555

#END
