
#######################################################################
#
#                 Cambridge Crystallographic Data Centre
#                                CCDC 
#
#######################################################################
#
# If this CIF has been generated from an entry in the Cambridge 
# Structural Database, then it will include bibliographic, chemical, 
# crystal, experimental, refinement or atomic coordinate data resulting 
# from the CCDC's data processing and validation procedures.
#
#######################################################################

data_SABWUO
_symmetry_cell_setting           monoclinic
_symmetry_space_group_name_H-M   'P 2/n'
_symmetry_Int_Tables_number      13
_space_group_name_Hall           '-P 2yac'
loop_
_symmetry_equiv_pos_site_id
_symmetry_equiv_pos_as_xyz
1 x,y,z
2 1/2-x,y,1/2-z
3 -x,-y,-z
4 1/2+x,-y,1/2+z
_cell_length_a                   7.4347(2)
_cell_length_b                   9.9858(2)
_cell_length_c                   14.4248(3)
_cell_angle_alpha                90
_cell_angle_beta                 99.2429(5)
_cell_angle_gamma                90
_cell_volume                     1057.01
loop_
_atom_site_label
_atom_site_type_symbol
_atom_site_fract_x
_atom_site_fract_y
_atom_site_fract_z
Ag1 Ag -0.59780(6) 0.25171(3) 0.07758(3)
Mg1 Mg 0.00000 0.50000 0.00000
Mg2 Mg -0.75000 -0.0192(2) -0.25000
O1 O -0.5801(4) 0.3027(3) -0.0900(2)
O2 O -0.3436(4) 0.1948(3) -0.0111(2)
O3 O -0.4596(4) 0.5702(3) -0.2111(2)
O4 O -0.2505(4) 0.5274(3) -0.0873(2)
O5 O -0.4975(3) -0.0387(3) -0.1706(2)
O6 O -0.2057(4) -0.0742(3) -0.1266(2)
O7 O -0.0023(5) 0.2917(3) -0.0082(3)
O8 O 0.1410(5) 0.5065(4) -0.1109(3)
O9 O -0.8482(5) -0.0116(4) -0.1232(2)
O10 O -0.75000 -0.2311(4) -0.25000
O11 O -0.75000 0.1850(4) -0.25000
C1 C -0.3369(4) 0.2474(3) -0.1710(2)
C2 C -0.2932(4) 0.3677(3) -0.2102(2)
C3 C -0.2913(4) 0.1259(3) -0.2099(2)
C4 C -0.4258(5) 0.2482(4) -0.0839(2)
C5 C -0.3381(4) 0.4986(3) -0.1664(2)
C6 C -0.3343(5) -0.0059(3) -0.1659(2)
H1 H -0.103(3) 0.232(1) -0.001(3)
H2 H 0.085(4) 0.234(1) -0.034(3)
H3 H 0.269(3) 0.479(4) -0.111(1)
H4 H 0.089(2) 0.513(4) -0.178(1)
H5 H -0.777(2) -0.021(5) -0.060(1)
H6 H -0.976(3) -0.024(5) -0.1132(7)
H7 H -0.644(3) -0.292(1) -0.230(4)
H8 H -0.721(8) 0.245(1) -0.195(1)
C2A C -0.2068(4) 0.3677(3) -0.2898(2)
C1A C -0.1631(4) 0.2474(3) -0.3290(2)
C3A C -0.2087(4) 0.1259(3) -0.2901(2)
C6A C -0.1657(5) -0.0059(3) -0.3341(2)
O5A O -0.0025(3) -0.0387(3) -0.3294(2)
O6A O -0.2943(4) -0.0742(3) -0.3734(2)
C4A C -0.0742(5) 0.2482(4) -0.4161(2)
O1A O 0.0801(4) 0.3027(3) -0.4100(2)
O2A O -0.1564(4) 0.1948(3) -0.4889(2)
C5A C -0.1619(4) 0.4986(3) -0.3336(2)
O3A O -0.0404(4) 0.5702(3) -0.2889(2)
O4A O -0.2495(4) 0.5274(3) -0.4127(2)
H7A H -0.856(3) -0.292(1) -0.270(4)
H8A H -0.779(8) 0.245(1) -0.305(1)
O7B O 0.0023(5) 0.7083(3) 0.0082(3)
H1B H 0.103(3) 0.768(1) 0.001(3)
H2B H -0.085(4) 0.766(1) 0.034(3)
O8B O -0.1410(5) 0.4935(4) 0.1109(3)
H3B H -0.269(3) 0.521(4) 0.111(1)
H4B H -0.089(2) 0.487(4) 0.178(1)
Ag1A Ag 0.09780(6) 0.25171(3) -0.57758(3)
O9A O -0.6518(5) -0.0116(4) -0.3768(2)
H5A H -0.723(2) -0.021(5) -0.440(1)
H6A H -0.524(3) -0.024(5) -0.3868(7)
O3B O -0.5404(4) 0.4298(3) 0.2111(2)
O4B O -0.7495(4) 0.4726(3) 0.0873(2)
O5B O -0.5025(3) 0.0387(3) 0.1706(2)
O6B O -0.7943(4) 0.0742(3) 0.1266(2)
O4B_2 O 0.2505(4) 0.4726(3) 0.0873(2)
O5A_2 O -1.0025(3) -0.0387(3) -0.3294(2)
Ag1B Ag -0.40220(6) 0.74829(3) -0.07758(3)
Ag1B_2 Ag -0.40220(6) -0.25171(3) -0.07758(3)
Ag1C Ag -0.09780(6) -0.25171(3) -0.42242(3)
Mg2_2 Mg 0.25000 -0.0192(2) -0.25000
Ag1C_2 Ag -0.09780(6) 0.74829(3) -0.42242(3)
Mg1A Mg -0.50000 0.50000 -0.50000
O3C O 0.0404(4) 0.4298(3) -0.7111(2)
O4C O 0.2495(4) 0.4726(3) -0.5873(2)
O5C O 0.0025(3) 0.0387(3) -0.6706(2)
O6C O 0.2943(4) 0.0742(3) -0.6266(2)
loop_
_geom_bond_atom_site_label_1
_geom_bond_atom_site_label_2
_geom_bond_site_symmetry_1
_geom_bond_site_symmetry_2
Ag1 O1 1_555 1_555
Mg1 O4 1_555 1_555
Mg2 O5 1_555 1_555
O1 C4 1_555 1_555
O2 Ag1 1_555 1_555
O3 C5 1_555 1_555
O4 C5 1_555 1_555
O5 C6 1_555 1_555
O6 C6 1_555 1_555
O7 Mg1 1_555 1_555
O8 Mg1 1_555 1_555
O9 Mg2 1_555 1_555
O10 Mg2 1_555 1_555
O11 Mg2 1_555 1_555
C1 C2 1_555 1_555
C2 C5 1_555 1_555
C3 C1 1_555 1_555
C4 O2 1_555 1_555
C6 C3 1_555 1_555
H1 O7 1_555 1_555
H2 O7 1_555 1_555
H3 O8 1_555 1_555
H4 O8 1_555 1_555
H5 O9 1_555 1_555
H6 O9 1_555 1_555
H7 O10 1_555 1_555
H8 O11 1_555 1_555
C2A C2 1_555 1_555
C1A C2A 1_555 1_555
C3A C3 1_555 1_555
C6A C3A 1_555 1_555
O5A C6A 1_555 1_555
O6A C6A 1_555 1_555
C4A C1A 1_555 1_555
O1A C4A 1_555 1_555
O2A C4A 1_555 1_555
C5A C2A 1_555 1_555
O3A C5A 1_555 1_555
O4A C5A 1_555 1_555
H7A O10 1_555 1_555
H8A O11 1_555 1_555
O7B Mg1 1_555 1_555
H1B O7B 1_555 1_555
H2B O7B 1_555 1_555
O8B Mg1 1_555 1_555
H3B O8B 1_555 1_555
H4B O8B 1_555 1_555
Ag1A O1A 1_555 1_555
O9A Mg2 1_555 1_555
H5A O9A 1_555 1_555
H6A O9A 1_555 1_555
O3B Ag1 1_555 1_555
O4B Ag1 1_555 1_555
O5B Ag1 1_555 1_555
O6B Ag1 1_555 1_555
O4B_2 Mg1 1_555 1_555
O5A_2 Mg2 1_555 1_555
Ag1B O3 1_555 1_555
Ag1B_2 O5 1_555 1_555
Ag1C O5A 1_555 1_555
Mg2_2 O5A 1_555 1_555
Ag1C_2 O3A 1_555 1_555
Mg1A O4A 1_555 1_555
O3C Ag1A 1_555 1_555
O4C Ag1A 1_555 1_555
O5C Ag1A 1_555 1_555
O6C Ag1A 1_555 1_555
O4 Ag1B 1_555 1_555
O6 Ag1B_2 1_555 1_555
C1 C4 1_555 1_555
C1A C3A 1_555 1_555
O6A Ag1C 1_555 1_555
O2A Ag1A 1_555 1_555
O4A Ag1C_2 1_555 1_555

#END
