
#######################################################################
#
#                 Cambridge Crystallographic Data Centre
#                                CCDC 
#
#######################################################################
#
# If this CIF has been generated from an entry in the Cambridge 
# Structural Database, then it will include bibliographic, chemical, 
# crystal, experimental, refinement or atomic coordinate data resulting 
# from the CCDC's data processing and validation procedures.
#
#######################################################################

data_SABWID
_symmetry_cell_setting           monoclinic
_symmetry_space_group_name_H-M   'P 21/c'
_symmetry_Int_Tables_number      14
_space_group_name_Hall           '-P 2ybc'
loop_
_symmetry_equiv_pos_site_id
_symmetry_equiv_pos_as_xyz
1 x,y,z
2 -x,1/2+y,1/2-z
3 -x,-y,-z
4 x,1/2-y,1/2+z
_cell_length_a                   16.294(7)
_cell_length_b                   5.669(3)
_cell_length_c                   18.452(8)
_cell_angle_alpha                90
_cell_angle_beta                 113.542(7)
_cell_angle_gamma                90
_cell_volume                     1562.56
loop_
_atom_site_label
_atom_site_type_symbol
_atom_site_fract_x
_atom_site_fract_y
_atom_site_fract_z
Cu1 Cu 0.12456(7) 0.1747(2) 0.22151(6)
O1 O 0.1358(4) -0.4326(13) 0.1095(4)
O2 O 0.1782(4) -0.1067(12) 0.1869(4)
O3 O 0.0360(4) 0.4346(12) 0.2220(4)
O4 O -0.1151(4) 0.4890(12) 0.1728(4)
N1 N 0.0187(5) 0.0582(15) 0.1366(4)
C1 C -0.0565(6) 0.1833(16) 0.1177(5)
C2 C -0.1344(6) 0.1105(18) 0.0537(5)
H1 H -0.1871 0.1967 0.0386
C3 C -0.1304(6) -0.0932(19) 0.0135(5)
H2 H -0.1809 -0.1436 -0.0294
C4 C -0.0507(6) -0.2239(18) 0.0371(5)
H3 H -0.0485 -0.3632 0.0113
C5 C 0.0255(6) -0.1401(15) 0.1003(5)
C6 C 0.1207(7) -0.2432(18) 0.1335(5)
C7 C -0.0460(6) 0.3882(17) 0.1751(5)
N2 N 0.2410(5) 0.3110(16) 0.2950(5)
C8 C 0.3161(7) 0.174(3) 0.3191(7)
H4 H 0.3141 0.0313 0.2936
C9 C 0.3957(8) 0.242(3) 0.3810(8)
H5 H 0.4459 0.1450 0.3976
C10 C 0.3976(8) 0.463(3) 0.4178(6)
N3 N 0.4771(7) 0.575(2) 0.4851(8)
C11 C 0.3236(8) 0.600(3) 0.3922(7)
H6 H 0.3247 0.7472 0.4147
C12 C 0.2448(7) 0.517(2) 0.3313(6)
H7 H 0.1934 0.6095 0.3157
Cu1A Cu -0.12456(7) -0.3253(2) 0.27849(6)
Cu1A_2 Cu -0.12456(7) 0.6747(2) 0.27849(6)
Cu1B Cu 0.87544(7) 0.8253(2) 0.77849(6)
O1A O -0.1358(4) -0.9326(13) 0.3905(4)
O2A O -0.1782(4) -0.6067(12) 0.3131(4)
O3A O -0.0360(4) -0.0654(12) 0.2780(4)
O4A O 0.1151(4) -0.0110(12) 0.3272(4)
O4_2 O -0.1151(4) -0.5110(12) 0.1728(4)
N1A N -0.0187(5) -0.4418(15) 0.3634(4)
C1A C 0.0565(6) -0.3167(16) 0.3823(5)
C2A C 0.1344(6) -0.3895(18) 0.4463(5)
H1A H 0.1871 -0.3033 0.4614
C3A C 0.1304(6) -0.5932(19) 0.4865(5)
H2A H 0.1809 -0.6436 0.5294
C4A C 0.0507(6) -0.7239(18) 0.4629(5)
H3A H 0.0485 -0.8632 0.4887
C5A C -0.0255(6) -0.6401(15) 0.3997(5)
C6A C -0.1207(7) -0.7432(18) 0.3665(5)
C7A C 0.0460(6) -0.1118(17) 0.3249(5)
N2B N 0.7590(5) 0.6890(16) 0.7050(5)
N2A N -0.2410(5) -0.1890(16) 0.2050(5)
C8B C 0.6839(7) 0.826(3) 0.6809(7)
H4B H 0.6859 0.9687 0.7064
C9B C 0.6043(8) 0.758(3) 0.6190(8)
H5B H 0.5541 0.8550 0.6024
C10B C 0.6024(8) 0.537(3) 0.5822(6)
N3B N 0.5229(7) 0.425(2) 0.5149(8)
C11B C 0.6764(8) 0.400(3) 0.6078(7)
H6B H 0.6753 0.2528 0.5853
C12B C 0.7552(7) 0.483(2) 0.6687(6)
H7B H 0.8066 0.3905 0.6843
C13 C 0.3431(12) -0.033(3) 0.6575(9)
Cl1 Cl 0.3609(4) 0.0542(14) 0.5728(3)
Cl2 Cl 0.4245(16) -0.226(5) 0.7194(13)
Cl3? Cl 0.408(3) -0.289(7) 0.698(3)
Cl4? Cl 0.3649(16) -0.311(4) 0.6255(17)
Cl5? Cl 0.399(4) 0.198(6) 0.632(4)
loop_
_geom_bond_atom_site_label_1
_geom_bond_atom_site_label_2
_geom_bond_site_symmetry_1
_geom_bond_site_symmetry_2
Cu1 O2 1_555 1_555
O1 C6 1_555 1_555
O2 C6 1_555 1_555
O3 Cu1 1_555 1_555
O4 C7 1_555 1_555
N1 Cu1 1_555 1_555
C1 N1 1_555 1_555
C2 C1 1_555 1_555
H1 C2 1_555 1_555
C3 C2 1_555 1_555
H2 C3 1_555 1_555
C4 C3 1_555 1_555
H3 C4 1_555 1_555
C5 N1 1_555 1_555
C6 C5 1_555 1_555
C7 O3 1_555 1_555
N2 Cu1 1_555 1_555
C8 N2 1_555 1_555
H4 C8 1_555 1_555
C9 C8 1_555 1_555
H5 C9 1_555 1_555
C10 C9 1_555 1_555
N3 C10 1_555 1_555
C11 C10 1_555 1_555
H6 C11 1_555 1_555
C12 N2 1_555 1_555
H7 C12 1_555 1_555
C13 Cl1 1_555 1_555
Cl2 C13 1_555 1_555
Cu1A O2A 1_555 1_555
Cu1A_2 O4 1_555 1_555
Cu1B N2B 1_555 1_555
O1A C6A 1_555 1_555
O2A C6A 1_555 1_555
O3A Cu1A 1_555 1_555
O4A Cu1 1_555 1_555
O4_2 Cu1A 1_555 1_555
N1A Cu1A 1_555 1_555
C1A N1A 1_555 1_555
C2A C1A 1_555 1_555
H1A C2A 1_555 1_555
C3A C2A 1_555 1_555
H2A C3A 1_555 1_555
C4A C3A 1_555 1_555
H3A C4A 1_555 1_555
C5A N1A 1_555 1_555
C6A C5A 1_555 1_555
C7A O3A 1_555 1_555
N2B C8B 1_555 1_555
N2A Cu1A 1_555 1_555
C8B H4B 1_555 1_555
C9B C8B 1_555 1_555
H5B C9B 1_555 1_555
C10B C9B 1_555 1_555
N3B N3 1_555 1_555
C11B C10B 1_555 1_555
H6B C11B 1_555 1_555
C12B N2B 1_555 1_555
H7B C12B 1_555 1_555
C1 C7 1_555 1_555
C4 C5 1_555 1_555
C11 C12 1_555 1_555
O4A C7A 1_555 1_555
C1A C7A 1_555 1_555
C4A C5A 1_555 1_555
C10B N3B 1_555 1_555
C11B C12B 1_555 1_555

#END
