
#######################################################################
#
#                 Cambridge Crystallographic Data Centre
#                                CCDC 
#
#######################################################################
#
# If this CIF has been generated from an entry in the Cambridge 
# Structural Database, then it will include bibliographic, chemical, 
# crystal, experimental, refinement or atomic coordinate data resulting 
# from the CCDC's data processing and validation procedures.
#
#######################################################################

data_SACHOV
_symmetry_cell_setting           monoclinic
_symmetry_space_group_name_H-M   'C 2/c'
_symmetry_Int_Tables_number      15
_space_group_name_Hall           '-C 2yn'
loop_
_symmetry_equiv_pos_site_id
_symmetry_equiv_pos_as_xyz
1 x,y,z
2 1/2+x,1/2+y,z
3 -x,y,1/2-z
4 1/2-x,1/2+y,1/2-z
5 -x,-y,-z
6 1/2-x,1/2-y,-z
7 x,-y,1/2+z
8 1/2+x,1/2-y,1/2+z
_cell_length_a                   34.165(4)
_cell_length_b                   9.4692(8)
_cell_length_c                   24.575(3)
_cell_angle_alpha                90
_cell_angle_beta                 115.090(5)
_cell_angle_gamma                90
_cell_volume                     7200.21
loop_
_atom_site_label
_atom_site_type_symbol
_atom_site_fract_x
_atom_site_fract_y
_atom_site_fract_z
Hg1 Hg 0.282901(6) 0.52998(3) 0.839936(9)
Cl1 Cl 0.22072(4) 0.52752(15) 0.85353(6)
Cl2 Cl 0.34758(4) 0.52828(14) 0.83353(6)
Hg2 Hg -0.223870(5) 0.48595(2) 0.329656(8)
Hg3 Hg -0.140696(10) 0.46039(4) 0.486880(15)
Eu1 Eu 0.0000 0.71484(6) 0.2500
Eu2 Eu 0.0000 1.18460(6) 0.2500
Cl3 Cl -0.17851(4) 0.67063(16) 0.42503(6)
Cl4 Cl -0.19240(4) 0.26890(15) 0.41970(6)
Cl5 Cl -0.24956(3) 0.72493(13) 0.25146(5)
Cl6 Cl -0.06991(5) 0.4259(2) 0.48297(10)
Cl7 Cl -0.15077(6) 0.4171(3) 0.57506(9)
N1 N 0.06513(14) 0.9087(5) 0.0248(2)
N2 N -0.16770(10) 0.4747(4) 0.31407(16)
N3 N 0.21338(10) 0.9760(4) 0.32904(15)
O1 O 0.00152(9) 0.8306(4) 0.16651(14)
O2 O 0.01675(8) 1.0666(3) 0.17833(14)
O3 O -0.03656(10) 0.5568(4) 0.28051(15)
O4 O -0.04944(9) 0.3310(4) 0.25980(13)
O5 O 0.06579(8) 0.8306(4) 0.28637(15)
O6 O 0.06242(8) 1.0600(3) 0.30288(13)
C1 C 0.03866(13) 0.8017(6) 0.08876(19)
H1 H 0.0318 0.7199 0.1038
C2 C 0.0560(2) 0.7979(8) 0.0501(3)
H2 H 0.0624 0.7094 0.0397
C3 C 0.05678(18) 1.0415(7) 0.0427(3)
H3 H 0.0617 1.1223 0.0250
C4 C 0.04148(14) 1.0550(5) 0.0856(2)
H4 H 0.0385 1.1435 0.0999
C5 C 0.03110(12) 0.9398(5) 0.10627(17)
C6 C 0.01382(13) 0.9443(5) 0.1530(2)
C7 C -0.11344(13) 0.5844(5) 0.29419(19)
H5 H -0.1010 0.6669 0.2883
C8 C -0.14851(12) 0.5933(5) 0.30520(18)
H6 H -0.1599 0.6815 0.3068
C9 C -0.14906(12) 0.3464(5) 0.31452(18)
H7 H -0.1602 0.2650 0.3239
C10 C -0.11295(11) 0.3375(5) 0.30079(17)
H8 H -0.1017 0.2496 0.2984
C11 C -0.09496(11) 0.4538(4) 0.29132(16)
C12 C -0.05804(12) 0.4510(5) 0.27634(18)
C13 C 0.15445(12) 0.8405(6) 0.32319(19)
H9 H 0.1430 0.7523 0.3248
C14 C 0.19561(11) 0.8483(5) 0.32966(17)
H10 H 0.2118 0.7663 0.3345
C15 C 0.19123(12) 1.0957(5) 0.32597(17)
H11 H 0.2051 1.1823 0.3304
C16 C 0.14696(12) 1.0927(5) 0.31604(18)
H12 H 0.1309 1.1749 0.3109
C17 C 0.12879(11) 0.9574(4) 0.31438(16)
C18 C 0.08169(12) 0.9484(5) 0.30127(18)
O7 O 0.05017(10) 0.5978(4) 0.34323(15)
H13 H 0.0445 0.5133 0.3414
O8 O 0.03661(9) 1.3027(4) 0.34636(13)
H14 H 0.0393 1.3869 0.3408
Hg2B Hg 0.223870(5) 0.48595(2) 0.170344(8)
Hg2A Hg 0.276130(5) 0.98595(2) 0.329656(8)
Hg2C Hg -0.276130(5) 0.98595(2) 0.170344(8)
Hg3B Hg 0.140696(10) 0.46039(4) 0.013120(15)
Eu2_2 Eu 0.0000 0.18460(6) 0.2500
Cl3B Cl 0.17851(4) 0.67063(16) 0.07497(6)
Cl4B Cl 0.19240(4) 0.26890(15) 0.08030(6)
Cl5B Cl 0.24956(3) 0.72493(13) 0.24854(5)
Cl6B Cl 0.06991(5) 0.4259(2) 0.01703(10)
Cl7B Cl 0.15077(6) 0.4171(3) -0.07506(9)
N1B N -0.06513(14) 0.9087(5) 0.4752(2)
N2B N 0.16770(10) 0.4747(4) 0.18593(16)
N3B N -0.21338(10) 0.9760(4) 0.17096(15)
N3A N -0.28662(10) 0.4760(4) 0.32904(15)
N3C N 0.28662(10) 0.4760(4) 0.17096(15)
O1B O -0.00152(9) 0.8306(4) 0.33349(14)
O2B O -0.01675(8) 1.0666(3) 0.32167(14)
O3B O 0.03656(10) 0.5568(4) 0.21949(15)
O4B O 0.04944(9) 0.3310(4) 0.24020(13)
O4_2 O -0.04944(9) 1.3310(4) 0.25980(13)
O4B_2 O 0.04944(9) 1.3310(4) 0.24020(13)
O5B O -0.06579(8) 0.8306(4) 0.21363(15)
O6B O -0.06242(8) 1.0600(3) 0.19712(13)
C1B C -0.03866(13) 0.8017(6) 0.41124(19)
H1B H -0.0318 0.7199 0.3962
C2B C -0.0560(2) 0.7979(8) 0.4499(3)
H2B H -0.0624 0.7094 0.4603
C3B C -0.05678(18) 1.0415(7) 0.4573(3)
H3B H -0.0617 1.1223 0.4750
C4B C -0.04148(14) 1.0550(5) 0.4144(2)
H4B H -0.0385 1.1435 0.4001
C5B C -0.03110(12) 0.9398(5) 0.39373(17)
C6B C -0.01382(13) 0.9443(5) 0.3470(2)
C7B C 0.11344(13) 0.5844(5) 0.20581(19)
H5B H 0.1010 0.6669 0.2117
C8B C 0.14851(12) 0.5933(5) 0.19480(18)
H6B H 0.1599 0.6815 0.1932
C9B C 0.14906(12) 0.3464(5) 0.18548(18)
H7B H 0.1602 0.2650 0.1761
C10B C 0.11295(11) 0.3375(5) 0.19921(17)
H8B H 0.1017 0.2496 0.2016
C11B C 0.09496(11) 0.4538(4) 0.20868(16)
C12B C 0.05804(12) 0.4510(5) 0.22366(18)
C13B C -0.15445(12) 0.8405(6) 0.17681(19)
H9B H -0.1430 0.7523 0.1752
C14B C -0.19561(11) 0.8483(5) 0.17034(17)
H10B H -0.2118 0.7663 0.1655
C15B C -0.19123(12) 1.0957(5) 0.17403(17)
H11B H -0.2051 1.1823 0.1696
C16B C -0.14696(12) 1.0927(5) 0.18396(18)
H12B H -0.1309 1.1749 0.1891
C17B C -0.12879(11) 0.9574(4) 0.18562(16)
C18B C -0.08169(12) 0.9484(5) 0.19873(18)
O7B O -0.05017(10) 0.5978(4) 0.15677(15)
H13B H -0.0445 0.5133 0.1586
O8B O -0.03661(9) 1.3027(4) 0.15364(13)
H14B H -0.0393 1.3869 0.1592
Zn1 Zn 0.2500 0.7500 0.5000
O10 O 0.22023(13) 0.9694(4) 0.47513(18)
O10E O 0.27977(13) 0.5306(4) 0.52487(18)
O9 O -0.00545(18) 1.4082(7) 0.4196(3)
O11 O 0.1028(2) 0.8358(9) -0.0539(3)
Hg4? Hg -0.12912(2) 0.40537(10) 0.49820(3)
Zn2? Zn 0.2614(4) 1.0834(15) 0.4898(5)
Cl8? Cl -0.14524(12) 0.5069(4) 0.57721(17)
loop_
_geom_bond_atom_site_label_1
_geom_bond_atom_site_label_2
_geom_bond_site_symmetry_1
_geom_bond_site_symmetry_2
Hg1 Cl1 1_555 1_555
Hg2 Cl3 1_555 1_555
Hg3 Cl3 1_555 1_555
Eu1 O1 1_555 1_555
Eu2 O2 1_555 1_555
Zn1 O10 1_555 1_555
Cl2 Hg1 1_555 1_555
Cl4 Hg2 1_555 1_555
Cl5 Hg2 1_555 1_555
Cl6 Hg3 1_555 1_555
Cl7 Hg3 1_555 1_555
N1 C2 1_555 1_555
N2 Hg2 1_555 1_555
N3 C14 1_555 1_555
O1 C6 1_555 1_555
O2 C6 1_555 1_555
O3 Eu1 1_555 1_555
O4 C12 1_555 1_555
O5 Eu1 1_555 1_555
O6 Eu2 1_555 1_555
C1 H1 1_555 1_555
C2 C1 1_555 1_555
H2 C2 1_555 1_555
C3 N1 1_555 1_555
H3 C3 1_555 1_555
C4 C3 1_555 1_555
H4 C4 1_555 1_555
C5 C1 1_555 1_555
C6 C5 1_555 1_555
C7 H5 1_555 1_555
C8 N2 1_555 1_555
H6 C8 1_555 1_555
C9 N2 1_555 1_555
H7 C9 1_555 1_555
C10 C9 1_555 1_555
H8 C10 1_555 1_555
C11 C7 1_555 1_555
C12 O3 1_555 1_555
C13 H9 1_555 1_555
C14 C13 1_555 1_555
H10 C14 1_555 1_555
C15 N3 1_555 1_555
H11 C15 1_555 1_555
C16 C15 1_555 1_555
H12 C16 1_555 1_555
C17 C13 1_555 1_555
C18 O5 1_555 1_555
O7 Eu1 1_555 1_555
H13 O7 1_555 1_555
O8 Eu2 1_555 1_555
H14 O8 1_555 1_555
Hg2B Cl3B 1_555 1_555
Hg2A N3 1_555 1_555
Hg2C N3B 1_555 1_555
Hg3B Cl3B 1_555 1_555
Eu2_2 O4 1_555 1_555
Cl4B Hg2B 1_555 1_555
Cl5B Hg2B 1_555 1_555
Cl6B Hg3B 1_555 1_555
Cl7B Hg3B 1_555 1_555
N1B C2B 1_555 1_555
N2B Hg2B 1_555 1_555
N3B C14B 1_555 1_555
N3A Hg2 1_555 1_555
N3C Hg2B 1_555 1_555
O1B Eu1 1_555 1_555
O2B Eu2 1_555 1_555
O3B Eu1 1_555 1_555
O4B Eu2_2 1_555 1_555
O4_2 Eu2 1_555 1_555
O4B_2 Eu2 1_555 1_555
O5B Eu1 1_555 1_555
O6B Eu2 1_555 1_555
C1B H1B 1_555 1_555
C2B C1B 1_555 1_555
H2B C2B 1_555 1_555
C3B N1B 1_555 1_555
H3B C3B 1_555 1_555
C4B C3B 1_555 1_555
H4B C4B 1_555 1_555
C5B C1B 1_555 1_555
C6B O1B 1_555 1_555
C7B H5B 1_555 1_555
C8B N2B 1_555 1_555
H6B C8B 1_555 1_555
C9B N2B 1_555 1_555
H7B C9B 1_555 1_555
C10B C9B 1_555 1_555
H8B C10B 1_555 1_555
C11B C7B 1_555 1_555
C12B O3B 1_555 1_555
C13B H9B 1_555 1_555
C14B C13B 1_555 1_555
H10B C14B 1_555 1_555
C15B N3B 1_555 1_555
H11B C15B 1_555 1_555
C16B C15B 1_555 1_555
H12B C16B 1_555 1_555
C17B C13B 1_555 1_555
C18B O5B 1_555 1_555
O7B Eu1 1_555 1_555
H13B O7B 1_555 1_555
O8B Eu2 1_555 1_555
H14B O8B 1_555 1_555
O10E Zn1 1_555 1_555
Hg3 Cl4 1_555 1_555
O6 C18 1_555 1_555
C4 C5 1_555 1_555
C7 C8 1_555 1_555
C10 C11 1_555 1_555
C11 C12 1_555 1_555
C16 C17 1_555 1_555
C17 C18 1_555 1_555
Hg3B Cl4B 1_555 1_555
O2B C6B 1_555 1_555
O4B C12B 1_555 1_555
O6B C18B 1_555 1_555
C4B C5B 1_555 1_555
C5B C6B 1_555 1_555
C7B C8B 1_555 1_555
C10B C11B 1_555 1_555
C11B C12B 1_555 1_555
C16B C17B 1_555 1_555
C17B C18B 1_555 1_555

#END
