
#######################################################################
#
#                 Cambridge Crystallographic Data Centre
#                                CCDC 
#
#######################################################################
#
# If this CIF has been generated from an entry in the Cambridge 
# Structural Database, then it will include bibliographic, chemical, 
# crystal, experimental, refinement or atomic coordinate data resulting 
# from the CCDC's data processing and validation procedures.
#
#######################################################################

data_SACHIP
_symmetry_cell_setting           monoclinic
_symmetry_space_group_name_H-M   'P 21/n'
_symmetry_Int_Tables_number      14
_space_group_name_Hall           '-P 2yn'
loop_
_symmetry_equiv_pos_site_id
_symmetry_equiv_pos_as_xyz
1 x,y,z
2 1/2-x,1/2+y,1/2-z
3 -x,-y,-z
4 1/2+x,1/2-y,1/2+z
_cell_length_a                   16.033(4)
_cell_length_b                   20.590(5)
_cell_length_c                   17.404(4)
_cell_angle_alpha                90
_cell_angle_beta                 100.399(2)
_cell_angle_gamma                90
_cell_volume                     5651.03
loop_
_atom_site_label
_atom_site_type_symbol
_atom_site_fract_x
_atom_site_fract_y
_atom_site_fract_z
Zn1 Zn 0.61180(2) 0.154194(18) 0.44039(2)
Zn2 Zn 0.48207(2) 0.171810(18) 0.24416(2)
Zn3 Zn -0.12421(3) 0.363220(19) 0.54887(2)
S1 S 0.52401(6) 0.56500(4) 0.34882(5)
S2 S 0.11512(5) 0.00879(4) 0.45655(4)
S3 S -0.04900(5) 0.27507(4) 0.24140(5)
O1 O 0.60322(17) 0.24884(12) 0.43346(14)
O2 O 0.49809(17) 0.24231(12) 0.33111(15)
O3 O 0.88636(18) 0.66166(17) 0.24259(17)
O4 O 0.81883(16) 0.62100(15) 0.13051(14)
O5 O 0.5349(2) 0.59381(13) 0.42495(17)
O6 O 0.44893(16) 0.57865(13) 0.29191(19)
O7 O 0.50971(15) 0.11112(14) 0.46030(14)
O8 O 0.46817(15) 0.10233(12) 0.33228(14)
O9 O -0.00644(16) 0.25813(12) 0.65903(13)
O10 O -0.04427(19) 0.29510(13) 0.53643(14)
O11 O 0.12457(15) -0.04010(11) 0.51681(14)
O12 O 0.06161(14) -0.00371(12) 0.38275(13)
O13 O 0.28898(17) 0.17212(15) 0.10034(15)
O14 O 0.35072(15) 0.18590(13) 0.22552(14)
O15 O 0.0836(2) 0.54648(14) 0.43826(19)
O16 O 0.0283(3) 0.59083(14) 0.32936(19)
O17 O -0.06921(16) 0.23528(12) 0.30308(15)
O18 O -0.10788(16) 0.28085(13) 0.16919(15)
N1 N 0.68525(16) 0.13796(13) 0.54763(15)
N2 N -0.18705(19) 0.37105(15) 0.43560(17)
C1 C 0.5494(2) 0.27331(15) 0.37906(18)
C2 C 0.5455(2) 0.34630(15) 0.37390(18)
C3 C 0.5850(3) 0.38612(18) 0.43430(19)
H1 H 0.6164 0.3678 0.4792
C4 C 0.5776(3) 0.45300(17) 0.4274(2)
H2 H 0.6029 0.4798 0.4680
C5 C 0.5323(2) 0.47932(16) 0.3598(2)
C6 C 0.4938(2) 0.44083(17) 0.2985(2)
H3 H 0.4641 0.4594 0.2529
C7 C 0.5003(2) 0.37411(16) 0.3063(2)
H4 H 0.4741 0.3475 0.2659
C8 C 0.6135(2) 0.58536(16) 0.30681(19)
C9 C 0.6119(2) 0.57086(17) 0.22899(19)
H5 H 0.5648 0.5506 0.1996
C10 C 0.6806(2) 0.58680(17) 0.19560(18)
H6 H 0.6798 0.5776 0.1431
C11 C 0.7511(2) 0.61644(16) 0.23929(19)
C12 C 0.7516(2) 0.6304(2) 0.3167(2)
H7 H 0.7989 0.6502 0.3463
C13 C 0.6824(3) 0.6152(2) 0.3514(2)
H8 H 0.6827 0.6250 0.4036
C14 C 0.8256(2) 0.63437(17) 0.2021(2)
C15 C 0.4562(2) 0.09636(16) 0.40028(19)
C16 C 0.37272(19) 0.07021(15) 0.41388(18)
C17 C 0.3639(2) 0.04579(18) 0.48670(19)
H9 H 0.4107 0.0437 0.5269
C18 C 0.2859(2) 0.02483(18) 0.49923(19)
H10 H 0.2798 0.0078 0.5474
C19 C 0.21706(19) 0.02946(15) 0.43922(17)
C20 C 0.2248(2) 0.05220(17) 0.36600(18)
H11 H 0.1777 0.0544 0.3260
C21 C 0.3040(2) 0.07163(17) 0.35339(18)
H12 H 0.3109 0.0856 0.3041
C22 C 0.07980(19) 0.08125(15) 0.49514(17)
C23 C 0.0919(2) 0.08972(17) 0.57545(18)
H13 H 0.1191 0.0580 0.6089
C24 C 0.0630(2) 0.14602(17) 0.60505(18)
H14 H 0.0715 0.1525 0.6588
C25 C 0.02141(19) 0.19285(16) 0.55496(18)
C26 C 0.0097(2) 0.18361(16) 0.47458(19)
H15 H -0.0182 0.2150 0.4410
C27 C 0.0395(2) 0.12771(16) 0.44458(18)
H16 H 0.0324 0.1215 0.3909
C28 C -0.0115(2) 0.25374(16) 0.58701(19)
C29 C 0.2889(2) 0.18722(16) 0.17090(19)
C30 C 0.2042(2) 0.20847(15) 0.18831(18)
C31 C 0.1942(2) 0.21805(18) 0.26543(19)
H17 H 0.2397 0.2113 0.3061
C32 C 0.1164(2) 0.23764(18) 0.28143(19)
H18 H 0.1091 0.2432 0.3328
C33 C 0.0497(2) 0.24880(15) 0.22021(18)
C34 C 0.0589(2) 0.23974(17) 0.14352(18)
H19 H 0.0137 0.2474 0.1029
C35 C 0.1365(2) 0.21896(16) 0.12810(18)
H20 H 0.1431 0.2120 0.0767
C36 C -0.0267(2) 0.35441(15) 0.27940(19)
C37 C -0.0018(3) 0.36293(17) 0.3589(2)
H21 H 0.0002 0.3277 0.3925
C38 C 0.0202(3) 0.42446(17) 0.3882(2)
H22 H 0.0386 0.4304 0.4416
C39 C 0.0149(2) 0.47680(16) 0.3381(2)
C40 C -0.0133(3) 0.46834(18) 0.2590(2)
H23 H -0.0182 0.5040 0.2257
C41 C -0.0345(3) 0.40691(18) 0.2291(2)
H24 H -0.0536 0.4011 0.1758
C42 C 0.0432(2) 0.54295(17) 0.3696(2)
C43 C -0.1984(3) 0.4289(2) 0.4001(2)
H25 H -0.1815 0.4662 0.4289
C44 C -0.2344(3) 0.4349(3) 0.3223(3)
H26 H -0.2420 0.4757 0.2989
C45 C -0.2591(3) 0.3794(3) 0.2796(3)
H27 H -0.2829 0.3822 0.2268
C46 C -0.2483(3) 0.3208(3) 0.3154(3)
H28 H -0.2651 0.2828 0.2879
C47 C -0.2122(3) 0.3183(2) 0.3930(2)
H29 H -0.2049 0.2779 0.4172
C48 C 0.7679(2) 0.15249(18) 0.5628(2)
H30 H 0.7936 0.1671 0.5222
C49 C 0.8161(2) 0.1467(2) 0.6359(2)
H31 H 0.8732 0.1580 0.6447
C50 C 0.7795(3) 0.1242(2) 0.6958(2)
H32 H 0.8113 0.1199 0.7458
C51 C 0.6947(3) 0.1080(2) 0.6811(2)
H33 H 0.6684 0.0923 0.7208
C52 C 0.6499(2) 0.11558(18) 0.60661(19)
H34 H 0.5927 0.1047 0.5966
Zn1A Zn 0.88820(2) 0.654194(18) 0.05961(2)
Zn2A Zn 1.01793(2) 0.671810(18) 0.25584(2)
Zn2C Zn -0.01793(2) 0.328190(18) 0.74416(2)
Zn2A_2 Zn 0.01793(2) 0.671810(18) 0.25584(2)
Zn3C Zn 0.37579(3) 0.136780(19) 0.04887(2)
Zn3B Zn 0.12421(3) 0.636780(19) 0.45113(2)
O3A O 0.61364(18) 0.16166(17) 0.25741(17)
O4A O 0.68117(16) 0.12100(15) 0.36949(14)
O9C O 0.49356(16) 0.24187(12) 0.15903(13)
O13C O -0.21102(17) 0.32788(15) 0.60034(15)
O15B O -0.0836(2) 0.45352(14) 0.56174(19)
O16A O 0.4717(3) 0.09083(14) 0.17064(19)
C53 C 0.7724(7) 0.7466(6) 0.4983(4)
C54 C 0.6934(8) 0.7668(5) 0.5100(5)
C55 C 0.6513(8) 0.7215(12) 0.5480(7)
C56 C 0.8021(5) 0.6876(7) 0.5247(5)
C57 C 0.7575(9) 0.6497(6) 0.5600(6)
N3 N 0.6843(14) 0.6614(13) 0.5744(7)
O19 O 0.7202(8) 0.4904(6) 0.6342(7)
N4? N 0.7724(7) 0.7466(6) 0.4983(4)
N5? N 0.6934(8) 0.7668(5) 0.5100(5)
N6? N 0.6513(8) 0.7215(12) 0.5480(7)
N7? N 0.8021(5) 0.6876(7) 0.5247(5)
N8? N 0.7575(9) 0.6497(6) 0.5600(6)
C58? C 0.6843(14) 0.6614(13) 0.5744(7)
loop_
_geom_bond_atom_site_label_1
_geom_bond_atom_site_label_2
_geom_bond_site_symmetry_1
_geom_bond_site_symmetry_2
Zn1 O1 1_555 1_555
Zn2 O2 1_555 1_555
Zn3 O10 1_555 1_555
S1 O5 1_555 1_555
S2 O11 1_555 1_555
S3 O17 1_555 1_555
O1 C1 1_555 1_555
O2 C1 1_555 1_555
O3 C14 1_555 1_555
O4 C14 1_555 1_555
O6 S1 1_555 1_555
O7 Zn1 1_555 1_555
O8 Zn2 1_555 1_555
O9 C28 1_555 1_555
O10 C28 1_555 1_555
O12 S2 1_555 1_555
O13 C29 1_555 1_555
O14 Zn2 1_555 1_555
O15 C42 1_555 1_555
O16 C42 1_555 1_555
O18 S3 1_555 1_555
N1 Zn1 1_555 1_555
N2 Zn3 1_555 1_555
C1 C2 1_555 1_555
C2 C3 1_555 1_555
C3 H1 1_555 1_555
C4 C3 1_555 1_555
H2 C4 1_555 1_555
C5 S1 1_555 1_555
C6 C5 1_555 1_555
H3 C6 1_555 1_555
C7 C2 1_555 1_555
H4 C7 1_555 1_555
C8 S1 1_555 1_555
C9 C8 1_555 1_555
H5 C9 1_555 1_555
C10 C9 1_555 1_555
H6 C10 1_555 1_555
C11 C10 1_555 1_555
C12 C11 1_555 1_555
H7 C12 1_555 1_555
C13 C8 1_555 1_555
H8 C13 1_555 1_555
C14 C11 1_555 1_555
C15 O7 1_555 1_555
C16 C15 1_555 1_555
C17 C16 1_555 1_555
H9 C17 1_555 1_555
C18 C17 1_555 1_555
H10 C18 1_555 1_555
C19 S2 1_555 1_555
C20 C19 1_555 1_555
H11 C20 1_555 1_555
C21 C16 1_555 1_555
H12 C21 1_555 1_555
C22 S2 1_555 1_555
C23 C22 1_555 1_555
H13 C23 1_555 1_555
C24 C23 1_555 1_555
H14 C24 1_555 1_555
C25 C24 1_555 1_555
C26 C25 1_555 1_555
H15 C26 1_555 1_555
C27 C22 1_555 1_555
H16 C27 1_555 1_555
C28 C25 1_555 1_555
C29 O14 1_555 1_555
C30 C29 1_555 1_555
C31 C30 1_555 1_555
H17 C31 1_555 1_555
C32 C31 1_555 1_555
H18 C32 1_555 1_555
C33 S3 1_555 1_555
C34 C33 1_555 1_555
H19 C34 1_555 1_555
C35 C30 1_555 1_555
H20 C35 1_555 1_555
C36 S3 1_555 1_555
C37 C36 1_555 1_555
H21 C37 1_555 1_555
C38 C37 1_555 1_555
H22 C38 1_555 1_555
C39 C38 1_555 1_555
C40 C39 1_555 1_555
H23 C40 1_555 1_555
C41 C36 1_555 1_555
H24 C41 1_555 1_555
C42 C39 1_555 1_555
C43 N2 1_555 1_555
H25 C43 1_555 1_555
C44 C43 1_555 1_555
H26 C44 1_555 1_555
C45 C44 1_555 1_555
H27 C45 1_555 1_555
C46 C45 1_555 1_555
H28 C46 1_555 1_555
C47 N2 1_555 1_555
H29 C47 1_555 1_555
C48 N1 1_555 1_555
H30 C48 1_555 1_555
C49 C48 1_555 1_555
H31 C49 1_555 1_555
C50 C49 1_555 1_555
H32 C50 1_555 1_555
C51 C50 1_555 1_555
H33 C51 1_555 1_555
C52 N1 1_555 1_555
H34 C52 1_555 1_555
C53 C54 1_555 1_555
C54 C55 1_555 1_555
C55 N3 1_555 1_555
C56 C53 1_555 1_555
C57 C56 1_555 1_555
N3 C57 1_555 1_555
Zn1A O4 1_555 1_555
Zn2A O3 1_555 1_555
Zn2C O9 1_555 1_555
Zn2A_2 O16 1_555 1_555
Zn3C O13 1_555 1_555
Zn3B O15 1_555 1_555
O3A Zn2 1_555 1_555
O4A Zn1 1_555 1_555
O9C Zn2 1_555 1_555
O13C Zn3 1_555 1_555
O15B Zn3 1_555 1_555
O16A Zn2 1_555 1_555
O8 C15 1_555 1_555
C4 C5 1_555 1_555
C6 C7 1_555 1_555
C12 C13 1_555 1_555
C18 C19 1_555 1_555
C20 C21 1_555 1_555
C26 C27 1_555 1_555
C32 C33 1_555 1_555
C34 C35 1_555 1_555
C40 C41 1_555 1_555
C46 C47 1_555 1_555
C51 C52 1_555 1_555

#END
