
#######################################################################
#
#                 Cambridge Crystallographic Data Centre
#                                CCDC 
#
#######################################################################
#
# If this CIF has been generated from an entry in the Cambridge 
# Structural Database, then it will include bibliographic, chemical, 
# crystal, experimental, refinement or atomic coordinate data resulting 
# from the CCDC's data processing and validation procedures.
#
#######################################################################

data_SACKEO
_symmetry_cell_setting           monoclinic
_symmetry_space_group_name_H-M   'P 21/c'
_symmetry_Int_Tables_number      14
_space_group_name_Hall           '-P 2ybc'
loop_
_symmetry_equiv_pos_site_id
_symmetry_equiv_pos_as_xyz
1 x,y,z
2 -x,1/2+y,1/2-z
3 -x,-y,-z
4 x,1/2-y,1/2+z
_cell_length_a                   10.204(2)
_cell_length_b                   18.933(4)
_cell_length_c                   6.8875(16)
_cell_angle_alpha                90
_cell_angle_beta                 102.195(3)
_cell_angle_gamma                90
_cell_volume                     1300.59
loop_
_atom_site_label
_atom_site_type_symbol
_atom_site_fract_x
_atom_site_fract_y
_atom_site_fract_z
Mo1 Mo 0.75075(3) 0.181644(16) 0.79555(5)
Co1 Co 0.70039(5) 0.37149(3) 0.76776(8)
O1 O 0.6675(3) 0.26234(13) 0.7398(4)
O2 O 0.6736(3) 0.12799(13) 0.9525(4)
O3 O 0.9154(3) 0.20026(14) 0.9191(4)
O4 O 0.7501(3) 0.13480(14) 0.5756(4)
O5 O 0.9156(3) 0.34507(15) 0.7953(4)
H1 H 0.930(4) 0.3076(14) 0.864(6)
H2 H 0.933(4) 0.332(2) 0.686(3)
N1 N 0.4984(3) 0.39259(16) 0.7727(5)
N2 N 0.7336(3) 0.48161(16) 0.7680(5)
N3 N 0.5063(3) 0.51679(16) 0.7250(5)
H3 H 0.4546 0.5528 0.6947
C1 C 0.4380(4) 0.4556(2) 0.7515(6)
C2 C 0.3014(4) 0.4638(2) 0.7536(7)
H4 H 0.2625 0.5084 0.7415
C3 C 0.2264(4) 0.4057(2) 0.7736(8)
H5 H 0.1352 0.4098 0.7706
C4 C 0.2889(5) 0.3403(2) 0.7984(9)
H6 H 0.2407 0.2997 0.8134
C5 C 0.4219(4) 0.3369(2) 0.8004(8)
H7 H 0.4633 0.2930 0.8223
C6 C 0.6391(4) 0.5322(2) 0.7367(6)
C7 C 0.6712(4) 0.6033(2) 0.7132(7)
H8 H 0.6038 0.6372 0.6887
C8 C 0.8020(5) 0.6226(2) 0.7265(8)
H9 H 0.8243 0.6694 0.7078
C9 C 0.9007(5) 0.5713(2) 0.7681(8)
H10 H 0.9907 0.5831 0.7831
C10 C 0.8624(4) 0.5030(2) 0.7866(7)
H11 H 0.9293 0.4688 0.8139
Co1C Co 0.70039(5) 0.12851(3) 1.26776(8)
Co1C_2 Co 0.70039(5) 0.12851(3) 0.26776(8)
O2C O 0.6736(3) 0.37201(13) 0.4525(4)
O4C O 0.7501(3) 0.36520(14) 1.0756(4)
loop_
_geom_bond_atom_site_label_1
_geom_bond_atom_site_label_2
_geom_bond_site_symmetry_1
_geom_bond_site_symmetry_2
Mo1 O1 1_555 1_555
Co1 O1 1_555 1_555
O2 Mo1 1_555 1_555
O3 Mo1 1_555 1_555
O4 Mo1 1_555 1_555
O5 Co1 1_555 1_555
H1 O5 1_555 1_555
H2 O5 1_555 1_555
N1 Co1 1_555 1_555
N2 Co1 1_555 1_555
N3 H3 1_555 1_555
C1 N1 1_555 1_555
C2 C1 1_555 1_555
H4 C2 1_555 1_555
C3 C2 1_555 1_555
H5 C3 1_555 1_555
C4 C3 1_555 1_555
H6 C4 1_555 1_555
C5 N1 1_555 1_555
H7 C5 1_555 1_555
C6 N2 1_555 1_555
C7 C6 1_555 1_555
H8 C7 1_555 1_555
C8 C7 1_555 1_555
H9 C8 1_555 1_555
C9 C8 1_555 1_555
H10 C9 1_555 1_555
C10 N2 1_555 1_555
H11 C10 1_555 1_555
Co1C O2 1_555 1_555
Co1C_2 O4 1_555 1_555
O2C Co1 1_555 1_555
O4C Co1 1_555 1_555
N3 C1 1_555 1_555
N3 C6 1_555 1_555
C4 C5 1_555 1_555
C9 C10 1_555 1_555

#END
