
#######################################################################
#
#                 Cambridge Crystallographic Data Centre
#                                CCDC 
#
#######################################################################
#
# If this CIF has been generated from an entry in the Cambridge 
# Structural Database, then it will include bibliographic, chemical, 
# crystal, experimental, refinement or atomic coordinate data resulting 
# from the CCDC's data processing and validation procedures.
#
#######################################################################

data_SACKAK
_symmetry_cell_setting           monoclinic
_symmetry_space_group_name_H-M   'P 21/c'
_symmetry_Int_Tables_number      14
_space_group_name_Hall           '-P 2ybc'
loop_
_symmetry_equiv_pos_site_id
_symmetry_equiv_pos_as_xyz
1 x,y,z
2 -x,1/2+y,1/2-z
3 -x,-y,-z
4 x,1/2-y,1/2+z
_cell_length_a                   9.5469(10)
_cell_length_b                   16.6874(17)
_cell_length_c                   9.0799(10)
_cell_angle_alpha                90
_cell_angle_beta                 104.9100(10)
_cell_angle_gamma                90
_cell_volume                     1397.84
loop_
_atom_site_label
_atom_site_type_symbol
_atom_site_fract_x
_atom_site_fract_y
_atom_site_fract_z
Cu1 Cu 0.86960(5) 0.35593(3) 0.66027(6)
Mo1 Mo 1.07935(3) 0.19352(2) 0.88671(4)
O1 O 1.0942(3) 0.11795(18) 0.7586(4)
O2 O 0.9949(4) 0.4605(2) 0.7680(4)
H1 H 0.969(6) 0.512(3) 0.773(7)
H2 H 1.034(7) 0.455(4) 0.836(7)
O3 O 0.9991(3) 0.27925(18) 0.7892(4)
O5 O 1.2521(3) 0.21944(19) 0.9951(4)
O6 O 0.9731(3) 0.34154(19) 0.5041(3)
N1 N 0.7341(3) 0.35032(19) 0.7945(4)
N2 N 0.7161(3) 0.41494(19) 0.5089(4)
N3 N 0.5289(3) 0.3493(2) 0.5855(4)
H5 H 0.4511 0.3222 0.5493
C1 C 0.5901(4) 0.3410(2) 0.7394(5)
C2 C 0.5005(5) 0.3240(2) 0.8346(5)
H6 H 0.4026 0.3132 0.7937
C3 C 0.5578(5) 0.3235(2) 0.9882(5)
H7 H 0.4987 0.3144 1.0536
C4 C 0.7050(5) 0.3368(3) 1.0463(5)
H8 H 0.7458 0.3376 1.1510
C5 C 0.7890(4) 0.3485(2) 0.9479(5)
H9 H 0.8882 0.3556 0.9874
C6 C 0.5757(4) 0.3951(2) 0.4823(4)
C7 C 0.4750(4) 0.4200(3) 0.3507(5)
H10 H 0.3791 0.4031 0.3312
C8 C 0.5175(5) 0.4692(2) 0.2506(5)
H11 H 0.4514 0.4854 0.1614
C9 C 0.6608(5) 0.4951(3) 0.2828(5)
H12 H 0.6912 0.5310 0.2191
C10 C 0.7556(4) 0.4659(2) 0.4116(5)
H13 H 0.8520 0.4820 0.4328
Mo1C Mo 1.07935(3) 0.30648(2) 0.38671(4)
O6C O 0.9731(3) 0.15846(19) 1.0041(3)
O4 O 1.2120(4) 0.4029(2) 1.0099(4)
H3 H 1.172(5) 0.401(3) 1.083(4)
H4 H 1.227(6) 0.3534(9) 1.002(6)
loop_
_geom_bond_atom_site_label_1
_geom_bond_atom_site_label_2
_geom_bond_site_symmetry_1
_geom_bond_site_symmetry_2
Cu1 O2 1_555 1_555
Mo1 O1 1_555 1_555
O2 H1 1_555 1_555
H2 O2 1_555 1_555
O3 Cu1 1_555 1_555
O4 H3 1_555 1_555
H4 O4 1_555 1_555
O5 Mo1 1_555 1_555
O6 Cu1 1_555 1_555
N1 Cu1 1_555 1_555
N2 Cu1 1_555 1_555
N3 H5 1_555 1_555
C1 N1 1_555 1_555
C2 C1 1_555 1_555
H6 C2 1_555 1_555
C3 C2 1_555 1_555
H7 C3 1_555 1_555
C4 C3 1_555 1_555
H8 C4 1_555 1_555
C5 N1 1_555 1_555
H9 C5 1_555 1_555
C6 N2 1_555 1_555
C7 C6 1_555 1_555
H10 C7 1_555 1_555
C8 C7 1_555 1_555
H11 C8 1_555 1_555
C9 C8 1_555 1_555
H12 C9 1_555 1_555
C10 N2 1_555 1_555
H13 C10 1_555 1_555
Mo1C O6 1_555 1_555
O6C Mo1 1_555 1_555
Mo1 O3 1_555 1_555
N3 C1 1_555 1_555
N3 C6 1_555 1_555
C4 C5 1_555 1_555
C9 C10 1_555 1_555

#END
