
#######################################################################
#
#                 Cambridge Crystallographic Data Centre
#                                CCDC 
#
#######################################################################
#
# If this CIF has been generated from an entry in the Cambridge 
# Structural Database, then it will include bibliographic, chemical, 
# crystal, experimental, refinement or atomic coordinate data resulting 
# from the CCDC's data processing and validation procedures.
#
#######################################################################

data_SACLIT
_symmetry_cell_setting           triclinic
_symmetry_space_group_name_H-M   'P -1'
_symmetry_Int_Tables_number      2
_space_group_name_Hall           '-P 1'
loop_
_symmetry_equiv_pos_site_id
_symmetry_equiv_pos_as_xyz
1 x,y,z
2 -x,-y,-z
_cell_length_a                   4.9988(10)
_cell_length_b                   10.072(2)
_cell_length_c                   13.028(3)
_cell_angle_alpha                107.72(3)
_cell_angle_beta                 92.58(3)
_cell_angle_gamma                98.11(3)
_cell_volume                     615.867
loop_
_atom_site_label
_atom_site_type_symbol
_atom_site_fract_x
_atom_site_fract_y
_atom_site_fract_z
C1 C 0.5804(6) 0.7957(3) 0.9799(2)
H1 H 0.6916 0.8833 1.0052
C2 C 0.6287(6) 0.6901(3) 1.0184(3)
H2 H 0.7739 0.7063 1.0703
C3 C 0.4684(6) 0.5590(3) 0.9828(2)
C4 C 0.2453(6) 0.5441(3) 0.9101(3)
H3 H 0.1255 0.4591 0.8864
C5 C 0.2002(6) 0.6525(3) 0.8730(3)
H4 H 0.0490 0.6415 0.8252
C6 C 0.5156(5) 0.4022(3) 0.3289(2)
C7 C 0.5793(5) 0.5576(3) 0.3677(2)
C8 C 0.4625(5) 0.6354(3) 0.3128(2)
H5 H 0.3447 0.5899 0.2509
C9 C 0.5203(5) 0.7803(3) 0.3497(2)
C10 C 0.6795(5) 0.8479(3) 0.4465(2)
H6 H 0.7155 0.9461 0.4724
C11 C 0.7848(5) 0.7702(3) 0.5045(2)
C12 C 0.7436(5) 0.6254(3) 0.4622(2)
H7 H 0.8274 0.5728 0.4977
C13 C 0.4049(6) 0.8640(3) 0.2872(2)
Co1 Co 0.61739(7) 0.85640(4) 0.73275(3)
N1 N 0.3714(5) 0.7738(3) 0.9051(2)
N2 N 0.9114(4) 0.8367(2) 0.61150(18)
H8 H 1.0351 0.7860 0.6252
H9 H 0.9991 0.9232 0.6166
O1 O 0.3504(4) 0.8715(2) 0.85759(17)
O2 O 0.3124(4) 0.3419(2) 0.26151(16)
O3 O 0.6584(4) 0.3291(2) 0.36314(16)
O4 O 0.2030(4) 0.8083(2) 0.22196(19)
O5 O 0.5255(4) 0.9887(2) 0.30639(17)
O6 O 0.9044(4) 0.9889(2) 0.85223(16)
H10 H 1.0583 0.9627 0.8546
H11 H 0.9219 1.0633 0.8335
C1A C 0.4196(6) 0.2043(3) 1.0201(2)
H1A H 0.3084 0.1167 0.9948
C2A C 0.3713(6) 0.3099(3) 0.9816(3)
H2A H 0.2261 0.2937 0.9297
C3A C 0.5316(6) 0.4410(3) 1.0172(2)
C4A C 0.7547(6) 0.4559(3) 1.0899(3)
H3A H 0.8745 0.5409 1.1136
C5A C 0.7998(6) 0.3475(3) 1.1270(3)
H4A H 0.9510 0.3585 1.1748
C6A C 0.4844(5) 1.5978(3) 0.6711(2)
C7A C 0.4207(5) 1.4424(3) 0.6323(2)
C8A C 0.5375(5) 1.3646(3) 0.6872(2)
H5A H 0.6553 1.4101 0.7491
C9A C 0.4797(5) 1.2197(3) 0.6503(2)
C10A C 0.3205(5) 1.1521(3) 0.5535(2)
H6A H 0.2845 1.0539 0.5276
C11A C 0.2152(5) 1.2298(3) 0.4955(2)
C12A C 0.2564(5) 1.3746(3) 0.5378(2)
H7A H 0.1726 1.4272 0.5023
C13A C 0.5951(6) 1.1360(3) 0.7128(2)
Co1A Co 0.38261(7) 0.14360(4) 1.26725(3)
Co1A_2 Co 0.38261(7) 0.14360(4) 0.26725(3)
Co1A_3 Co 0.38261(7) 1.14360(4) 0.26725(3)
Co1_2 Co 0.61739(7) 1.85640(4) 0.73275(3)
N1A N 0.6286(5) 0.2262(3) 1.0949(2)
N2A N 0.0886(4) 1.1633(2) 0.38850(18)
N2A_2 N 0.0886(4) 0.1633(2) 1.38850(18)
H8A H -0.0351 1.2140 0.3748
H8A_2 H -0.0351 0.2140 1.3748
H9A H 0.0009 1.0768 0.3834
H9A_2 H 0.0009 0.0768 1.3834
O1A O 0.6496(4) 0.1285(2) 1.14241(17)
O2A O 0.6876(4) 1.6581(2) 0.73849(16)
O2A_2 O 0.6876(4) 0.6581(2) 0.73849(16)
O2_2 O 0.3124(4) 0.3419(2) 1.26151(16)
O3A O 0.3416(4) 1.6709(2) 0.63686(16)
O3A_2 O 0.3416(4) 0.6709(2) 0.63686(16)
O3_2 O 0.6584(4) 0.3291(2) 1.36314(16)
O4A O 0.7970(4) 1.1917(2) 0.77804(19)
O5A O 0.4745(4) 1.0113(2) 0.69361(17)
O5_2 O 0.5255(4) -0.0113(2) 1.30639(17)
O6A O 0.0956(4) 0.0111(2) 1.14777(16)
H10A H -0.0583 0.0373 1.1454
H11A H 0.0781 -0.0633 1.1665
loop_
_geom_bond_atom_site_label_1
_geom_bond_atom_site_label_2
_geom_bond_site_symmetry_1
_geom_bond_site_symmetry_2
C1 H1 1_555 1_555
C2 C1 1_555 1_555
H2 C2 1_555 1_555
C3 C2 1_555 1_555
C4 C3 1_555 1_555
H3 C4 1_555 1_555
C5 C4 1_555 1_555
H4 C5 1_555 1_555
C6 C7 1_555 1_555
C7 C8 1_555 1_555
C8 H5 1_555 1_555
C9 C8 1_555 1_555
C10 C9 1_555 1_555
H6 C10 1_555 1_555
C11 C10 1_555 1_555
C12 C7 1_555 1_555
H7 C12 1_555 1_555
C13 C9 1_555 1_555
Co1 N2 1_555 1_555
N1 C1 1_555 1_555
N2 C11 1_555 1_555
H8 N2 1_555 1_555
H9 N2 1_555 1_555
O1 Co1 1_555 1_555
O2 C6 1_555 1_555
O3 C6 1_555 1_555
O4 C13 1_555 1_555
O5 C13 1_555 1_555
O6 Co1 1_555 1_555
H10 O6 1_555 1_555
H11 O6 1_555 1_555
C1A H1A 1_555 1_555
C2A C1A 1_555 1_555
H2A C2A 1_555 1_555
C3A C3 1_555 1_555
C4A C3A 1_555 1_555
H3A C4A 1_555 1_555
C5A C4A 1_555 1_555
H4A C5A 1_555 1_555
C6A C7A 1_555 1_555
C7A C8A 1_555 1_555
C8A H5A 1_555 1_555
C9A C8A 1_555 1_555
C10A C9A 1_555 1_555
H6A C10A 1_555 1_555
C11A C10A 1_555 1_555
C12A C7A 1_555 1_555
H7A C12A 1_555 1_555
C13A C9A 1_555 1_555
Co1A N2A_2 1_555 1_555
Co1A_2 O2 1_555 1_555
Co1A_3 O5 1_555 1_555
Co1_2 O2A 1_555 1_555
N1A C1A 1_555 1_555
N2A C11A 1_555 1_555
N2A_2 H8A_2 1_555 1_555
H8A N2A 1_555 1_555
H9A N2A 1_555 1_555
H9A_2 N2A_2 1_555 1_555
O1A Co1A 1_555 1_555
O2A C6A 1_555 1_555
O2A_2 Co1 1_555 1_555
O2_2 Co1A 1_555 1_555
O3A C6A 1_555 1_555
O3A_2 Co1 1_555 1_555
O3_2 Co1A 1_555 1_555
O4A C13A 1_555 1_555
O5A Co1 1_555 1_555
O5_2 Co1A 1_555 1_555
O6A Co1A 1_555 1_555
H10A O6A 1_555 1_555
H11A O6A 1_555 1_555
C5 N1 1_555 1_555
C11 C12 1_555 1_555
N1 O1 1_555 1_555
O3 Co1A_2 1_555 1_555
C2A C3A 1_555 1_555
C5A N1A 1_555 1_555
C11A C12A 1_555 1_555
C13A O5A 1_555 1_555
Co1A_3 N2A 1_555 1_555
Co1_2 O3A 1_555 1_555
N1A O1A 1_555 1_555

#END
