
#######################################################################
#
#                 Cambridge Crystallographic Data Centre
#                                CCDC 
#
#######################################################################
#
# If this CIF has been generated from an entry in the Cambridge 
# Structural Database, then it will include bibliographic, chemical, 
# crystal, experimental, refinement or atomic coordinate data resulting 
# from the CCDC's data processing and validation procedures.
#
#######################################################################

data_SACLUF
_symmetry_cell_setting           monoclinic
_symmetry_space_group_name_H-M   'C 2/c'
_symmetry_Int_Tables_number      15
_space_group_name_Hall           '-C 2yn'
loop_
_symmetry_equiv_pos_site_id
_symmetry_equiv_pos_as_xyz
1 x,y,z
2 -x,y,1/2-z
3 1/2+x,1/2+y,z
4 1/2-x,1/2+y,1/2-z
5 -x,-y,-z
6 x,-y,1/2+z
7 1/2-x,1/2-y,-z
8 1/2+x,1/2-y,1/2+z
_cell_length_a                   27.2214(19)
_cell_length_b                   11.6093(7)
_cell_length_c                   16.3571(9)
_cell_angle_alpha                90
_cell_angle_beta                 95.044(2)
_cell_angle_gamma                90
_cell_volume                     5149.18
loop_
_atom_site_label
_atom_site_type_symbol
_atom_site_fract_x
_atom_site_fract_y
_atom_site_fract_z
C1 C 0.02666(14) 0.3974(4) 0.1575(3)
H1 H 0.0019 0.4366 0.1261
C2 C 0.02464(15) 0.2814(3) 0.1553(3)
H2 H -0.0010 0.2432 0.1253
C3 C 0.06143(15) 0.2224(5) 0.1986(3)
C4 C 0.09894(15) 0.2817(4) 0.2412(3)
H3 H 0.1250 0.2420 0.2689
C5 C 0.09802(15) 0.3994(4) 0.2429(3)
H4 H 0.1231 0.4388 0.2733
C6 C 0.02943(18) -0.0908(4) 0.1510(3)
H5 H 0.0051 -0.1314 0.1196
C7 C 0.02878(16) 0.0265(4) 0.1505(3)
H6 H 0.0041 0.0637 0.1175
C8 C 0.06437(16) 0.0956(4) 0.1982(3)
C9 C 0.09935(17) 0.0303(4) 0.2435(3)
H7 H 0.1242 0.0673 0.2762
C10 C 0.09824(18) -0.0897(4) 0.2415(3)
H8 H 0.1223 -0.1303 0.2736
C11 C -0.06276(15) 0.6646(4) 0.1284(2)
C12 C -0.06230(13) 0.6764(3) 0.0385(2)
H9 H -0.0385 0.7352 0.0273
H10 H -0.0511 0.6043 0.0166
C13 C -0.14084(14) 0.6268(4) -0.0390(2)
C14 C -0.18963(15) 0.6716(4) -0.0745(2)
C15 C -0.22961(14) 0.5975(3) -0.0736(2)
H11 H -0.2247 0.5232 -0.0532
C16 C -0.27661(15) 0.6320(4) -0.1023(3)
H12 H -0.3026 0.5799 -0.1043
C17 C -0.28473(14) 0.7439(4) -0.1279(3)
H13 H -0.3165 0.7696 -0.1441
C18 C -0.24416(13) 0.8187(3) -0.1291(2)
C19 C -0.19781(14) 0.7794(4) -0.1028(2)
H14 H -0.1711 0.8291 -0.1046
C20 C -0.25432(13) 0.9400(4) -0.1604(3)
C21 C -0.22775(17) 1.1365(4) -0.1675(3)
H15 H -0.2336 1.1314 -0.2267
H16 H -0.1971 1.1782 -0.1555
C22 C -0.26817(17) 1.2068(4) -0.1371(3)
C23 C -0.31895(17) 1.2251(4) -0.0388(3)
H17 H -0.3155 1.3048 -0.0530
H18 H -0.3177 1.2176 0.0197
H19 H -0.3500 1.1966 -0.0631
Cd1 Cd 0.063910(9) 0.65590(3) 0.198940(17)
H20 H 0.0766(15) 0.592(4) 0.020(3)
H21 H 0.0657(15) 0.730(4) 0.021(3)
N1 N 0.06039(11) 0.4616(2) 0.2000(2)
N2 N 0.06443(11) -0.1478(3) 0.1958(2)
N3 N -0.11023(10) 0.7064(3) -0.00573(17)
N4 N -0.22070(12) 1.0190(3) -0.1351(2)
O1 O -0.02194(10) 0.6523(3) 0.17036(17)
O2 O -0.10261(10) 0.6678(3) 0.16194(18)
O3 O -0.13067(10) 0.5219(2) -0.04256(15)
O4 O -0.29140(10) 0.9636(3) -0.20646(17)
O5 O -0.28256(10) 1.1650(3) -0.06661(18)
O6 O -0.28673(11) 1.2901(3) -0.16766(18)
O10 O 0.14792(9) 0.6367(2) 0.17440(17)
H22 H 0.1504 0.5943 0.1245
H23 H 0.1653 0.5963 0.2193
O11 O 0.06205(10) 0.6568(3) 0.04765(18)
Cd1_2 Cd 0.063910(9) -0.34410(3) 0.198940(17)
Cd1A Cd -0.063910(9) 0.65590(3) 0.301060(17)
N2_2 N 0.06443(11) 0.8522(3) 0.1958(2)
O1A O 0.02194(10) 0.6523(3) 0.32964(17)
O2A O 0.10261(10) 0.6678(3) 0.33806(18)
N5 N 0.08968(13) 0.0415(3) 0.4735(2)
O7 O 0.07351(11) -0.0419(3) 0.4386(2)
O8 O 0.12359(11) 0.0336(3) 0.5178(2)
O9 O 0.06776(11) 0.1330(3) 0.46030(19)
loop_
_geom_bond_atom_site_label_1
_geom_bond_atom_site_label_2
_geom_bond_site_symmetry_1
_geom_bond_site_symmetry_2
C1 H1 1_555 1_555
C2 C1 1_555 1_555
H2 C2 1_555 1_555
C3 C2 1_555 1_555
C4 C3 1_555 1_555
H3 C4 1_555 1_555
C5 C4 1_555 1_555
H4 C5 1_555 1_555
C6 H5 1_555 1_555
C7 C6 1_555 1_555
H6 C7 1_555 1_555
C8 C3 1_555 1_555
C9 C8 1_555 1_555
H7 C9 1_555 1_555
C10 C9 1_555 1_555
H8 C10 1_555 1_555
C11 C12 1_555 1_555
C12 H9 1_555 1_555
H10 C12 1_555 1_555
C13 C14 1_555 1_555
C14 C15 1_555 1_555
C15 H11 1_555 1_555
C16 C15 1_555 1_555
H12 C16 1_555 1_555
C17 C16 1_555 1_555
H13 C17 1_555 1_555
C18 C17 1_555 1_555
C19 C14 1_555 1_555
H14 C19 1_555 1_555
C20 C18 1_555 1_555
C21 H15 1_555 1_555
H16 C21 1_555 1_555
C22 C21 1_555 1_555
C23 H17 1_555 1_555
H18 C23 1_555 1_555
H19 C23 1_555 1_555
Cd1 N1 1_555 1_555
H20 O11 1_555 1_555
H21 O11 1_555 1_555
N1 C1 1_555 1_555
N2 C6 1_555 1_555
N3 C12 1_555 1_555
N4 C20 1_555 1_555
N5 O7 1_555 1_555
O1 C11 1_555 1_555
O2 C11 1_555 1_555
O3 C13 1_555 1_555
O4 C20 1_555 1_555
O5 C22 1_555 1_555
O6 C22 1_555 1_555
O8 N5 1_555 1_555
O9 N5 1_555 1_555
O10 Cd1 1_555 1_555
H22 O10 1_555 1_555
H23 O10 1_555 1_555
O11 Cd1 1_555 1_555
Cd1_2 N2 1_555 1_555
Cd1A O1 1_555 1_555
N2_2 Cd1 1_555 1_555
O1A Cd1 1_555 1_555
O2A Cd1 1_555 1_555
C5 N1 1_555 1_555
C7 C8 1_555 1_555
C10 N2 1_555 1_555
C13 N3 1_555 1_555
C18 C19 1_555 1_555
C21 N4 1_555 1_555
C23 O5 1_555 1_555
Cd1 O1 1_555 1_555
O2 Cd1A 1_555 1_555
Cd1A O1A 1_555 1_555

#END
