
#######################################################################
#
#                 Cambridge Crystallographic Data Centre
#                                CCDC 
#
#######################################################################
#
# If this CIF has been generated from an entry in the Cambridge 
# Structural Database, then it will include bibliographic, chemical, 
# crystal, experimental, refinement or atomic coordinate data resulting 
# from the CCDC's data processing and validation procedures.
#
#######################################################################

data_SACMIU
_symmetry_cell_setting           triclinic
_symmetry_space_group_name_H-M   'P -1'
_symmetry_Int_Tables_number      2
_space_group_name_Hall           '-P 1'
loop_
_symmetry_equiv_pos_site_id
_symmetry_equiv_pos_as_xyz
1 x,y,z
2 -x,-y,-z
_cell_length_a                   9.622(3)
_cell_length_b                   9.631(3)
_cell_length_c                   11.526(4)
_cell_angle_alpha                67.719(5)
_cell_angle_beta                 71.203(5)
_cell_angle_gamma                83.552(6)
_cell_volume                     935.586
loop_
_atom_site_label
_atom_site_type_symbol
_atom_site_fract_x
_atom_site_fract_y
_atom_site_fract_z
Zn1 Zn 0.66063(3) 0.57938(3) 0.76438(3)
C1 C 0.4140(3) 0.8060(3) 0.6721(3)
H1 H 0.3872 0.8154 0.7538
C2 C 0.3397(3) 0.8900(3) 0.5824(4)
H2 H 0.2646 0.9539 0.6046
C3 C 0.3776(4) 0.8781(4) 0.4632(4)
H3 H 0.3288 0.9343 0.4028
C4 C 0.4900(3) 0.7813(3) 0.4301(3)
C5 C 0.5382(4) 0.7601(4) 0.3073(3)
H4 H 0.4949 0.8151 0.2424
C6 C 0.6438(4) 0.6635(4) 0.2831(3)
H5 H 0.6732 0.6532 0.2016
C7 C 0.7126(3) 0.5755(3) 0.3799(2)
C8 C 0.8211(4) 0.4692(4) 0.3620(3)
H6 H 0.8527 0.4532 0.2828
C9 C 0.8797(3) 0.3898(4) 0.4593(3)
H7 H 0.9502 0.3176 0.4483
C10 C 0.8335(3) 0.4170(3) 0.5769(3)
H8 H 0.8754 0.3624 0.6430
C11 C 0.6707(3) 0.5950(3) 0.5010(2)
C12 C 0.5583(3) 0.6999(3) 0.5262(2)
C13 C 0.8319(3) 0.3981(3) 0.9553(3)
C14 C 0.9558(3) 0.2875(3) 0.9747(3)
H9 H 1.0326 0.3362 0.9838
H10 H 0.9187 0.2033 1.0564
C15 C 0.9404(3) 0.1324(3) 0.8580(3)
C16 C 1.0067(3) 0.0917(3) 0.7499(3)
H11 H 1.0973 0.1334 0.6923
C17 C 0.9399(3) -0.0099(3) 0.7268(3)
H12 H 0.9859 -0.0361 0.6538
C18 C 0.8061(3) -0.0732(3) 0.8101(3)
C19 C 0.7401(3) -0.0308(3) 0.9166(3)
H13 H 0.6491 -0.0721 0.9734
C20 C 0.8050(3) 0.0717(3) 0.9418(3)
H14 H 0.7580 0.0992 1.0140
C21 C 0.7384(4) -0.1903(3) 0.7870(3)
N1 N 0.5212(2) 0.7132(2) 0.6452(2)
N2 N 0.7325(2) 0.5175(2) 0.59762(19)
O1 O 0.8002(2) 0.4328(2) 0.85117(17)
O2 O 0.7758(2) 0.4445(3) 1.04682(19)
O3 O 1.01857(19) 0.23173(19) 0.87123(19)
O4 O 0.8085(3) -0.2344(2) 0.6959(3)
O5 O 0.6145(3) -0.2416(3) 0.8606(2)
O6 O 0.48601(19) 0.4461(2) 0.88967(17)
H15 H 0.4146 0.4982 0.9066
H16 H 0.4940 0.3827 0.9479
Zn1_2 Zn 0.66063(3) -0.42062(3) 0.76438(3)
O4_2 O 0.8085(3) 0.7656(2) 0.6959(3)
O5_2 O 0.6145(3) 0.7584(3) 0.8606(2)
loop_
_geom_bond_atom_site_label_1
_geom_bond_atom_site_label_2
_geom_bond_site_symmetry_1
_geom_bond_site_symmetry_2
Zn1 N1 1_555 1_555
C1 H1 1_555 1_555
C2 C1 1_555 1_555
H2 C2 1_555 1_555
C3 C2 1_555 1_555
H3 C3 1_555 1_555
C4 C3 1_555 1_555
C5 C4 1_555 1_555
H4 C5 1_555 1_555
C6 C5 1_555 1_555
H5 C6 1_555 1_555
C7 C6 1_555 1_555
C8 C7 1_555 1_555
H6 C8 1_555 1_555
C9 C8 1_555 1_555
H7 C9 1_555 1_555
C10 C9 1_555 1_555
H8 C10 1_555 1_555
C11 C7 1_555 1_555
C12 C4 1_555 1_555
C13 C14 1_555 1_555
C14 H9 1_555 1_555
H10 C14 1_555 1_555
C15 C16 1_555 1_555
C16 H11 1_555 1_555
C17 C16 1_555 1_555
H12 C17 1_555 1_555
C18 C17 1_555 1_555
C19 C18 1_555 1_555
H13 C19 1_555 1_555
C20 C15 1_555 1_555
H14 C20 1_555 1_555
C21 C18 1_555 1_555
N1 C1 1_555 1_555
N2 Zn1 1_555 1_555
O1 Zn1 1_555 1_555
O2 C13 1_555 1_555
O3 C14 1_555 1_555
O4 C21 1_555 1_555
O5 C21 1_555 1_555
O6 Zn1 1_555 1_555
H15 O6 1_555 1_555
H16 O6 1_555 1_555
Zn1_2 O4 1_555 1_555
O4_2 Zn1 1_555 1_555
O5_2 Zn1 1_555 1_555
C10 N2 1_555 1_555
C11 C12 1_555 1_555
C11 N2 1_555 1_555
C12 N1 1_555 1_555
C13 O1 1_555 1_555
C15 O3 1_555 1_555
C19 C20 1_555 1_555
O5 Zn1_2 1_555 1_555

#END
