
#######################################################################
#
#                 Cambridge Crystallographic Data Centre
#                                CCDC 
#
#######################################################################
#
# If this CIF has been generated from an entry in the Cambridge 
# Structural Database, then it will include bibliographic, chemical, 
# crystal, experimental, refinement or atomic coordinate data resulting 
# from the CCDC's data processing and validation procedures.
#
#######################################################################

data_SACMAM
_symmetry_cell_setting           triclinic
_symmetry_space_group_name_H-M   'P -1'
_symmetry_Int_Tables_number      2
_space_group_name_Hall           '-P 1'
loop_
_symmetry_equiv_pos_site_id
_symmetry_equiv_pos_as_xyz
1 x,y,z
2 -x,-y,-z
_cell_length_a                   9.0940(4)
_cell_length_b                   11.6852(5)
_cell_length_c                   13.1119(6)
_cell_angle_alpha                65.5890(10)
_cell_angle_beta                 76.0180(10)
_cell_angle_gamma                82.2850(10)
_cell_volume                     1230.26
loop_
_atom_site_label
_atom_site_type_symbol
_atom_site_fract_x
_atom_site_fract_y
_atom_site_fract_z
C1 C -0.2426(6) 0.4573(5) 1.1503(4)
C2 C -0.2926(6) 0.3973(5) 1.2797(4)
H1 H -0.2175 0.4118 1.3141
H2 H -0.2970 0.3072 1.3038
C3 C -0.4552(6) 0.5618(5) 1.3199(4)
C4 C -0.6101(5) 0.6090(5) 1.3582(4)
C5 C -0.7377(6) 0.5621(5) 1.3502(4)
H3 H -0.7269 0.5010 1.3205
C6 C -0.8820(6) 0.6071(5) 1.3869(5)
H4 H -0.9677 0.5741 1.3840
C7 C -0.8968(6) 0.6993(5) 1.4269(4)
H5 H -0.9933 0.7302 1.4494
C8 C -0.7730(6) 0.7481(5) 1.4348(5)
C9 C -0.6282(5) 0.7027(4) 1.3988(4)
H6 H -0.5432 0.7361 1.4023
C10 C -0.7972(6) 0.8455(5) 1.4851(5)
C11 C -0.7149(7) 1.0336(5) 1.4853(5)
H7 H -0.8223 1.0528 1.5060
H8 H -0.6742 1.0017 1.5543
C12 C -0.6385(6) 1.1522(5) 1.4025(5)
C13 C -0.2647(6) 0.8007(5) 0.9782(5)
H9 H -0.3352 0.7429 1.0315
C14 C -0.2710(6) 0.9158(5) 0.9816(4)
H10 H -0.3443 0.9349 1.0360
C15 C -0.1675(6) 1.0050(5) 0.9036(4)
C16 C -0.0613(6) 0.9702(5) 0.8233(5)
H11 H 0.0097 1.0267 0.7687
C17 C -0.0635(7) 0.8521(5) 0.8263(5)
H12 H 0.0079 0.8305 0.7725
C18 C -0.2933(7) 1.3059(5) 0.9450(5)
H13 H -0.3834 1.3447 0.9684
C19 C -0.2985(7) 1.1881(5) 0.9467(5)
H14 H -0.3896 1.1471 0.9742
C20 C -0.1658(6) 1.1306(5) 0.9066(4)
C21 C -0.0337(6) 1.1944(5) 0.8713(5)
H15 H 0.0577 1.1593 0.8451
C22 C -0.0388(6) 1.3101(5) 0.8754(5)
H16 H 0.0520 1.3510 0.8514
Cd1 Cd -0.16269(4) 0.56690(4) 0.90607(3)
N1 N -0.1627(5) 0.7649(4) 0.9026(4)
N2 N -0.1630(5) 1.3684(4) 0.9107(4)
N3 N -0.4400(5) 0.4461(4) 1.3217(4)
H17 H -0.5176 0.4000 1.3477
N4 N -0.6968(5) 0.9357(4) 1.4413(4)
H18 H -0.6214 0.9360 1.3871
O1 O -0.1026(4) 0.4518(3) 1.1083(3)
O2 O -0.3378(4) 0.5059(3) 1.0882(3)
O3 O -0.3421(4) 0.6290(4) 1.2841(3)
O4 O -0.9054(4) 0.8408(3) 1.5633(3)
O5 O -0.5507(5) 1.1549(4) 1.3103(3)
O6 O -0.6672(5) 1.2470(4) 1.4287(3)
O7 O -0.4006(4) 0.6176(4) 0.8546(3)
H19 H -0.3882 0.6553 0.7823
H20 H -0.4473 0.5504 0.8767
O8 O -0.0925(4) 0.6471(3) 0.7036(3)
H21 H -0.1703 0.6807 0.6756
H22 H -0.0262 0.7021 0.6806
Cd1_2 Cd -0.16269(4) 1.56690(4) 0.90607(3)
Cd1A Cd 0.16269(4) 0.43310(4) 1.09393(3)
N2_2 N -0.1630(5) 0.3684(4) 0.9107(4)
O1A O 0.1026(4) 0.5482(3) 0.8917(3)
O9 O 0.7531(5) 0.8089(4) 0.3390(4)
H23 H 0.7093 0.7981 0.4073
H24 H 0.7547 0.7407 0.3301
O10 O 0.4548(5) 1.0224(4) 0.7862(4)
H25 H 0.5031 0.9519 0.8083
H26 H 0.3901 1.0197 0.7502
loop_
_geom_bond_atom_site_label_1
_geom_bond_atom_site_label_2
_geom_bond_site_symmetry_1
_geom_bond_site_symmetry_2
C1 C2 1_555 1_555
C2 H1 1_555 1_555
H2 C2 1_555 1_555
C3 C4 1_555 1_555
C4 C5 1_555 1_555
C5 H3 1_555 1_555
C6 C5 1_555 1_555
H4 C6 1_555 1_555
C7 C6 1_555 1_555
H5 C7 1_555 1_555
C8 C7 1_555 1_555
C9 C4 1_555 1_555
H6 C9 1_555 1_555
C10 C8 1_555 1_555
C11 H7 1_555 1_555
H8 C11 1_555 1_555
C12 C11 1_555 1_555
C13 H9 1_555 1_555
C14 C13 1_555 1_555
H10 C14 1_555 1_555
C15 C14 1_555 1_555
C16 C15 1_555 1_555
H11 C16 1_555 1_555
C17 C16 1_555 1_555
H12 C17 1_555 1_555
C18 H13 1_555 1_555
C19 C18 1_555 1_555
H14 C19 1_555 1_555
C20 C15 1_555 1_555
C21 C20 1_555 1_555
H15 C21 1_555 1_555
C22 C21 1_555 1_555
H16 C22 1_555 1_555
Cd1 N1 1_555 1_555
N1 C13 1_555 1_555
N2 C18 1_555 1_555
N3 C2 1_555 1_555
H17 N3 1_555 1_555
N4 C10 1_555 1_555
H18 N4 1_555 1_555
O1 C1 1_555 1_555
O2 C1 1_555 1_555
O3 C3 1_555 1_555
O4 C10 1_555 1_555
O5 C12 1_555 1_555
O6 C12 1_555 1_555
O7 Cd1 1_555 1_555
H19 O7 1_555 1_555
H20 O7 1_555 1_555
O8 Cd1 1_555 1_555
H21 O8 1_555 1_555
H22 O8 1_555 1_555
O9 H23 1_555 1_555
H24 O9 1_555 1_555
O10 H25 1_555 1_555
H26 O10 1_555 1_555
Cd1_2 N2 1_555 1_555
Cd1A O1 1_555 1_555
N2_2 Cd1 1_555 1_555
O1A Cd1 1_555 1_555
C3 N3 1_555 1_555
C8 C9 1_555 1_555
C11 N4 1_555 1_555
C17 N1 1_555 1_555
C19 C20 1_555 1_555
C22 N2 1_555 1_555
Cd1 O2 1_555 1_555

#END
