
#######################################################################
#
#                 Cambridge Crystallographic Data Centre
#                                CCDC 
#
#######################################################################
#
# If this CIF has been generated from an entry in the Cambridge 
# Structural Database, then it will include bibliographic, chemical, 
# crystal, experimental, refinement or atomic coordinate data resulting 
# from the CCDC's data processing and validation procedures.
#
#######################################################################

data_SACSIZ
_symmetry_cell_setting           orthorhombic
_symmetry_space_group_name_H-M   'P n m a'
_symmetry_Int_Tables_number      62
_space_group_name_Hall           '-P 2ac 2n'
loop_
_symmetry_equiv_pos_site_id
_symmetry_equiv_pos_as_xyz
1 x,y,z
2 1/2+x,y,1/2-z
3 x,1/2-y,z
4 1/2-x,1/2+y,1/2+z
5 -x,-y,-z
6 1/2-x,-y,1/2+z
7 -x,1/2+y,-z
8 1/2+x,1/2-y,1/2-z
_cell_length_a                   14.7372(11)
_cell_length_b                   13.3786(9)
_cell_length_c                   3.7772(2)
_cell_angle_alpha                90
_cell_angle_beta                 90
_cell_angle_gamma                90
_cell_volume                     744.724
loop_
_atom_site_label
_atom_site_type_symbol
_atom_site_fract_x
_atom_site_fract_y
_atom_site_fract_z
Cu1 Cu 0.31846(3) 0.46879(3) 0.65150(14)
Cl1 Cl 0.15459(5) 0.42847(6) 0.6260(2)
N1 N 0.38195(17) 0.33893(18) 0.5487(7)
C1 C 0.3441(3) 0.2500 0.6148(12)
H1 H 0.2865 0.2500 0.7154
C2 C 0.4656(2) 0.3379(2) 0.4026(9)
H2 H 0.4941 0.3983 0.3518
C3 C 0.5096(3) 0.2500 0.3272(13)
H3 H 0.5674 0.2500 0.2283
N1B N 0.38195(17) 0.16107(18) 0.5487(7)
C2B C 0.4656(2) 0.1621(2) 0.4026(9)
H2B H 0.4941 0.1017 0.3518
Cl1E Cl 0.34541(5) 0.57153(6) 0.1260(2)
Cu1E Cu 0.18154(3) 0.53121(3) 0.15150(14)
Cl1E_2 Cl 0.34541(5) 0.57153(6) 1.1260(2)
Cu1E_2 Cu 0.18154(3) 0.53121(3) 1.15150(14)
Cu1B Cu 0.31846(3) 0.03121(3) 0.65150(14)
Cu1_2 Cu 0.31846(3) 0.46879(3) -0.34850(14)
Cl1_2 Cl 0.15459(5) 0.42847(6) -0.3740(2)
N1E N 0.11805(17) 0.66107(18) 0.0487(7)
loop_
_geom_bond_atom_site_label_1
_geom_bond_atom_site_label_2
_geom_bond_site_symmetry_1
_geom_bond_site_symmetry_2
Cu1 Cl1 1_555 1_555
Cl1 Cu1E 1_555 1_555
N1 Cu1 1_555 1_555
C1 N1 1_555 1_555
H1 C1 1_555 1_555
C2 N1 1_555 1_555
H2 C2 1_555 1_555
C3 C2 1_555 1_555
H3 C3 1_555 1_555
N1B C1 1_555 1_555
C2B C3 1_555 1_555
H2B C2B 1_555 1_555
Cl1E Cu1 1_555 1_555
Cu1E Cl1E 1_555 1_555
Cl1E_2 Cu1 1_555 1_555
Cu1E_2 Cl1 1_555 1_555
Cu1B N1B 1_555 1_555
Cu1_2 Cl1E 1_555 1_555
Cl1_2 Cu1E 1_555 1_555
N1E Cu1E 1_555 1_555
N1B C2B 1_555 1_555
Cl1E_2 Cu1E_2 1_555 1_555
Cu1_2 Cl1_2 1_555 1_555

#END
