
#######################################################################
#
#                 Cambridge Crystallographic Data Centre
#                                CCDC 
#
#######################################################################
#
# If this CIF has been generated from an entry in the Cambridge 
# Structural Database, then it will include bibliographic, chemical, 
# crystal, experimental, refinement or atomic coordinate data resulting 
# from the CCDC's data processing and validation procedures.
#
#######################################################################

data_SACSEV
_symmetry_cell_setting           orthorhombic
_symmetry_space_group_name_H-M   'P m a 2'
_symmetry_Int_Tables_number      28
_space_group_name_Hall           'P 2 -2a'
loop_
_symmetry_equiv_pos_site_id
_symmetry_equiv_pos_as_xyz
1 x,y,z
2 -x,-y,z
3 1/2+x,-y,z
4 1/2-x,y,z
_cell_length_a                   11.6100(10)
_cell_length_b                   3.8000(6)
_cell_length_c                   6.4900(8)
_cell_angle_alpha                90
_cell_angle_beta                 90
_cell_angle_gamma                90
_cell_volume                     286.326
loop_
_atom_site_label
_atom_site_type_symbol
_atom_site_fract_x
_atom_site_fract_y
_atom_site_fract_z
Cu1 Cu 0.5000 0.5000 0.32733(3)
Cl1 Cl 0.5000 0.0000 0.11771(10)
N1 N 0.35242(14) 0.4713(4) 0.5027(2)
C1 C 0.2500 0.5407(6) 0.4180(4)
H1 H 0.2500 0.6467 0.2888
C2 C 0.35128(16) 0.3323(6) 0.6938(3)
H2 H 0.4208 0.2819 0.7585
C3 C 0.2500 0.2633(8) 0.7954(4)
H3 H 0.2500 0.1729 0.9285
N1C N 0.14758(14) 0.4713(4) 0.5027(2)
C2C C 0.14872(16) 0.3323(6) 0.6938(3)
H2C H 0.0792 0.2819 0.7585
Cl1_2 Cl 0.5000 1.0000 0.11771(10)
N1A N 0.64758(14) 0.5287(4) 0.5027(2)
Cu1_2 Cu 0.5000 -0.5000 0.32733(3)
Cu1B Cu 0.0000 0.5000 0.32733(3)
loop_
_geom_bond_atom_site_label_1
_geom_bond_atom_site_label_2
_geom_bond_site_symmetry_1
_geom_bond_site_symmetry_2
Cu1 Cl1 1_555 1_555
Cl1 Cu1_2 1_555 1_555
N1 Cu1 1_555 1_555
C1 N1 1_555 1_555
H1 C1 1_555 1_555
C2 N1 1_555 1_555
H2 C2 1_555 1_555
C3 C2 1_555 1_555
H3 C3 1_555 1_555
N1C C1 1_555 1_555
C2C C3 1_555 1_555
H2C C2C 1_555 1_555
Cl1_2 Cu1 1_555 1_555
N1A Cu1 1_555 1_555
Cu1B N1C 1_555 1_555
N1C C2C 1_555 1_555

#END
