
#######################################################################
#
#                 Cambridge Crystallographic Data Centre
#                                CCDC 
#
#######################################################################
#
# If this CIF has been generated from an entry in the Cambridge 
# Structural Database, then it will include bibliographic, chemical, 
# crystal, experimental, refinement or atomic coordinate data resulting 
# from the CCDC's data processing and validation procedures.
#
#######################################################################

data_SADBIK
_symmetry_cell_setting           triclinic
_symmetry_space_group_name_H-M   'P -1'
_symmetry_Int_Tables_number      2
_space_group_name_Hall           '-P 1'
loop_
_symmetry_equiv_pos_site_id
_symmetry_equiv_pos_as_xyz
1 x,y,z
2 -x,-y,-z
_cell_length_a                   9.507(2)
_cell_length_b                   9.649(2)
_cell_length_c                   10.1681(18)
_cell_angle_alpha                69.731(11)
_cell_angle_beta                 68.642(9)
_cell_angle_gamma                84.062(12)
_cell_volume                     814.624
loop_
_atom_site_label
_atom_site_type_symbol
_atom_site_fract_x
_atom_site_fract_y
_atom_site_fract_z
O16 O 0.8701(3) 0.6468(3) 0.5209(3)
H11 H 0.9557 0.6618 0.4519
H12 H 0.8033 0.6848 0.4844
Gd1 Gd 0.173809(15) -0.309867(15) -0.210242(16)
C1 C 0.3840(3) -0.3621(3) -0.5496(3)
C2 C 0.5227(3) -0.2594(3) -0.6376(3)
C3 C 0.5404(3) -0.1317(3) -0.6193(4)
H1 H 0.4677 -0.1040 -0.5431
C4 C 0.6707(3) -0.0380(4) -0.7165(4)
C5 C 0.7810(3) -0.0959(4) -0.8229(4)
H2 H 0.8704 -0.0427 -0.8866
C6 C 0.7559(3) -0.2269(3) -0.8311(3)
C7 C 0.8655(3) -0.2988(4) -0.9373(3)
C8 C 0.1960(7) -0.2871(7) 0.1093(7)
C9 C 0.3214(7) -0.1755(7) 0.0688(7)
C10 C 0.3101(7) -0.0771(7) 0.1381(7)
C12 C 0.4491(8) -0.0278(9) 0.0498(8)
C13 C 0.4442(11) 0.0758(12) 0.1125(10)
C14 C 0.3199(7) 0.0895(7) 0.2524(7)
O1 O 0.2845(2) -0.3237(2) -0.4477(2)
O2 O 0.3768(2) -0.4703(2) -0.5860(2)
O3 O 0.6280(2) -0.3091(2) -0.7418(2)
O4 O 0.8453(3) -0.4326(2) -0.9099(2)
O5 O 0.9679(2) -0.2162(3) -1.0442(3)
O6 O 0.6844(2) 0.0873(2) -0.7094(2)
O8 O 0.0941(6) -0.2983(6) 0.2313(6)
O9 O 0.4437(5) -0.1787(5) -0.0538(5)
O10 O 0.3388(5) 0.1776(5) 0.3058(5)
O11 O 0.2099(5) -0.0007(5) 0.3041(5)
O13 O 0.0721(3) -0.1099(3) -0.3638(3)
H5 H 0.1077 -0.0444 -0.4490
H6 H -0.0181 -0.0910 -0.3582
O14 O -0.0382(2) -0.3988(3) -0.2350(2)
H7 H -0.0571 -0.3924 -0.3121
H8 H -0.1030 -0.4656 -0.1701
O15 O 0.4326(2) -0.3808(3) -0.2404(2)
H9 H 0.4814 -0.4388 -0.2877
H10 H 0.5081 -0.3314 -0.2551
O20 O 0.2213(13) -0.3546(15) 0.0301(13)
Gd1A Gd 0.826191(15) -0.690133(15) -0.789758(16)
Gd1_2 Gd 1.173809(15) -0.309867(15) -1.210242(16)
Gd1A_2 Gd 0.826191(15) 0.309867(15) -0.789758(16)
Gd1A_3 Gd 0.826191(15) 0.309867(15) 0.210242(16)
Gd1A_4 Gd -0.173809(15) -0.690133(15) 0.210242(16)
Gd1_3 Gd 0.173809(15) -1.309867(15) -0.210242(16)
C1A C 0.6160(3) -0.6379(3) -0.4504(3)
C2A C 0.4773(3) -0.7406(3) -0.3624(3)
C3A C 0.4596(3) -0.8683(3) -0.3807(4)
H1A H 0.5323 -0.8960 -0.4569
C4A C 0.3293(3) -0.9620(4) -0.2835(4)
C5A C 0.2190(3) -0.9041(4) -0.1771(4)
H2A H 0.1296 -0.9573 -0.1134
C6A C 0.2441(3) -0.7731(3) -0.1689(3)
C7A C 0.1345(3) -0.7012(4) -0.0627(3)
C8A C 0.8040(7) 0.2871(7) -0.1093(7)
C9A C 0.6786(7) 0.1755(7) -0.0688(7)
C10A C 0.6899(7) 0.0771(7) -0.1381(7)
C12A C 0.5509(8) 0.0278(9) -0.0498(8)
C13A C 0.5558(11) -0.0758(12) -0.1125(10)
C14A C 0.6801(7) -0.0895(7) -0.2524(7)
O1A O 0.7155(2) -0.6763(2) -0.5523(2)
O2A O 0.6232(2) -0.5297(2) -0.4140(2)
O3A O 0.3720(2) -0.6909(2) -0.2582(2)
O4A O 0.1547(3) -0.5674(2) -0.0901(2)
O5A O 0.0321(2) -0.7838(3) 0.0442(3)
O5_2 O -0.0321(2) -0.2162(3) -0.0442(3)
O5A_2 O 1.0321(2) -0.7838(3) -0.9558(3)
O6A O 0.3156(2) -1.0873(2) -0.2906(2)
O6A_2 O 0.3156(2) -0.0873(2) -0.2906(2)
O6_2 O 0.6844(2) -0.9127(2) -0.7094(2)
O8A O 0.9059(6) 0.2983(6) -0.2313(6)
O9A O 0.5563(5) 0.1787(5) 0.0538(5)
O10A O 0.6612(5) -0.1776(5) -0.3058(5)
O11A O 0.7901(5) 0.0007(5) -0.3041(5)
O13A O 0.9279(3) -0.8901(3) -0.6362(3)
H5A H 0.8923 -0.9556 -0.5510
H6A H 1.0181 -0.9090 -0.6418
O14A O 1.0382(2) -0.6012(3) -0.7650(2)
H7A H 1.0571 -0.6076 -0.6879
H8A H 1.1030 -0.5344 -0.8299
O15A O 0.5674(2) -0.6192(3) -0.7596(2)
H9A H 0.5186 -0.5612 -0.7123
H10A H 0.4919 -0.6686 -0.7449
O20A O 0.7787(13) 0.3546(15) -0.0301(13)
O20A_2 O 0.7787(13) -0.6454(15) -1.0301(13)
H3? H 0.7755 0.0817 -0.2272
C11? C 0.4237(12) 0.0391(11) 0.0783(10)
H4? H 0.3681 -0.0996 0.0941
O7? O 0.2070(13) -0.3452(15) 0.0174(13)
O12? O 0.4116(7) 0.1374(7) 0.1345(7)
O17? O 0.5078(6) 0.5760(5) 0.0030(5)
O18? O 0.0979(6) -0.2170(6) 0.2385(6)
O19? O 0.7968(5) -0.1201(5) -0.4077(5)
loop_
_geom_bond_atom_site_label_1
_geom_bond_atom_site_label_2
_geom_bond_site_symmetry_1
_geom_bond_site_symmetry_2
Gd1 O1 1_555 1_555
C1 C2 1_555 1_555
C2 C3 1_555 1_555
C3 H1 1_555 1_555
C4 C3 1_555 1_555
C5 C4 1_555 1_555
H2 C5 1_555 1_555
C6 C5 1_555 1_555
C7 C6 1_555 1_555
C8 C9 1_555 1_555
C9 C10 1_555 1_555
C10 C12 1_555 1_555
C12 C13 1_555 1_555
C13 C14 1_555 1_555
C14 O10 1_555 1_555
O1 C1 1_555 1_555
O2 C1 1_555 1_555
O3 C2 1_555 1_555
O4 C7 1_555 1_555
O5 C7 1_555 1_555
O6 C4 1_555 1_555
O8 C8 1_555 1_555
O9 C9 1_555 1_555
O11 C14 1_555 1_555
O13 Gd1 1_555 1_555
H5 O13 1_555 1_555
H6 O13 1_555 1_555
O14 Gd1 1_555 1_555
H7 O14 1_555 1_555
H8 O14 1_555 1_555
O15 Gd1 1_555 1_555
H9 O15 1_555 1_555
H10 O15 1_555 1_555
O16 H11 1_555 1_555
H12 O16 1_555 1_555
O20 Gd1 1_555 1_555
Gd1A O4 1_555 1_555
Gd1_2 O5 1_555 1_555
Gd1A_2 O6 1_555 1_555
Gd1A_3 O20A 1_555 1_555
Gd1A_4 O5A 1_555 1_555
Gd1_3 O6A 1_555 1_555
C1A C2A 1_555 1_555
C2A C3A 1_555 1_555
C3A H1A 1_555 1_555
C4A C3A 1_555 1_555
C5A C4A 1_555 1_555
H2A C5A 1_555 1_555
C6A C5A 1_555 1_555
C7A C6A 1_555 1_555
C8A C9A 1_555 1_555
C9A C10A 1_555 1_555
C10A C12A 1_555 1_555
C12A C12 1_555 1_555
C13A O9 1_555 1_555
C14A C13A 1_555 1_555
O1A Gd1A 1_555 1_555
O2A C1A 1_555 1_555
O3A C2A 1_555 1_555
O4A Gd1 1_555 1_555
O5A C7A 1_555 1_555
O5_2 Gd1 1_555 1_555
O5A_2 Gd1A 1_555 1_555
O6A C4A 1_555 1_555
O6A_2 Gd1 1_555 1_555
O6_2 Gd1A 1_555 1_555
O8A C8A 1_555 1_555
O9A C13 1_555 1_555
O10A C14A 1_555 1_555
O11A C14A 1_555 1_555
O13A Gd1A 1_555 1_555
H5A O13A 1_555 1_555
H6A O13A 1_555 1_555
O14A Gd1A 1_555 1_555
H7A O14A 1_555 1_555
H8A O14A 1_555 1_555
O15A Gd1A 1_555 1_555
H9A O15A 1_555 1_555
H10A O15A 1_555 1_555
O20A C8A 1_555 1_555
O20A_2 Gd1A 1_555 1_555
C6 O3 1_555 1_555
C8 O20 1_555 1_555
C1A O1A 1_555 1_555
C6A O3A 1_555 1_555
C7A O4A 1_555 1_555
C9A O9A 1_555 1_555
C12A C13A 1_555 1_555

#END
