
#######################################################################
#
#                 Cambridge Crystallographic Data Centre
#                                CCDC 
#
#######################################################################
#
# If this CIF has been generated from an entry in the Cambridge 
# Structural Database, then it will include bibliographic, chemical, 
# crystal, experimental, refinement or atomic coordinate data resulting 
# from the CCDC's data processing and validation procedures.
#
#######################################################################

data_SADBAC
_symmetry_cell_setting           triclinic
_symmetry_space_group_name_H-M   'P -1'
_symmetry_Int_Tables_number      2
_space_group_name_Hall           '-P 1'
loop_
_symmetry_equiv_pos_site_id
_symmetry_equiv_pos_as_xyz
1 x,y,z
2 -x,-y,-z
_cell_length_a                   7.641(2)
_cell_length_b                   13.150(4)
_cell_length_c                   18.236(5)
_cell_angle_alpha                77.837(14)
_cell_angle_beta                 80.450(14)
_cell_angle_gamma                80.031(15)
_cell_volume                     1748.15
loop_
_atom_site_label
_atom_site_type_symbol
_atom_site_fract_x
_atom_site_fract_y
_atom_site_fract_z
Nd1 Nd 0.30945(4) 0.23538(2) 0.291235(16)
Nd2 Nd 0.29866(4) -0.26270(2) 0.289617(17)
O1 O 0.2804(6) 0.0059(3) 0.5020(2)
O2 O 0.3471(6) 0.0528(3) 0.3582(2)
O3 O 0.2679(6) -0.0947(3) 0.3392(2)
O4 O -0.0397(6) -0.2100(3) 0.6130(2)
O5 O 0.3785(6) 0.1438(3) 0.5632(2)
O6 O 0.2768(6) 0.0651(3) 0.6803(2)
O7 O 0.2671(6) 0.5005(3) 0.5010(2)
O8 O 0.2993(6) 0.5538(3) 0.3535(2)
O9 O 0.2386(6) 0.3986(3) 0.3405(2)
O10 O -0.0268(6) 0.2720(3) 0.6147(2)
O11 O 0.2680(6) 0.5543(3) 0.6811(2)
O12 O 0.3709(6) 0.6346(3) 0.5653(2)
O13 O 0.2849(6) 0.4149(3) 0.0144(2)
O14 O 0.2426(7) 0.6209(3) -0.0016(3)
O15 O 0.1319(8) 0.6429(3) -0.1107(3)
O16 O 0.1402(7) 0.2656(3) -0.1357(2)
O17 O 0.4873(7) 0.1671(3) 0.0914(2)
O18 O 0.3599(6) 0.3015(3) 0.1494(2)
O19 O 0.4664(6) 0.2110(3) 0.4040(2)
O20 O 0.5718(6) 0.3334(3) 0.2504(2)
O21 O 0.0383(6) 0.3435(3) 0.2393(2)
O22 O 0.1886(6) 0.1123(3) 0.2299(2)
O23 O 0.5876(6) 0.1227(3) 0.2305(2)
O24 O 0.5980(7) -0.2065(4) 0.2618(3)
H1 H 0.6196 -0.1556 0.2793
H2 H 0.6980 -0.2393 0.2455
O25 O 0.0432(6) -0.1353(3) 0.2426(2)
H3 H -0.0244 -0.0950 0.2697
H4 H 0.0966 -0.0968 0.2052
O26 O 0.3663(6) -0.1808(4) 0.1543(2)
H5 H 0.4010 -0.2261 0.1259
H6 H 0.4566 -0.1527 0.1569
O27 O 0.5350(6) -0.3873(3) 0.2239(2)
H7 H 0.5805 -0.4394 0.2545
H8 H 0.5290 -0.4086 0.1836
O28 O 0.1340(6) -0.3494(3) 0.2197(2)
H9 H 0.0571 -0.3181 0.1906
H10 H 0.1754 -0.4084 0.2070
O29 O 0.4415(6) -0.2989(3) 0.4074(2)
H11 H 0.5070 -0.2530 0.4076
H12 H 0.4050 -0.3241 0.4532
C1 C 0.2873(8) -0.0330(4) 0.3802(3)
C2 C 0.2284(8) -0.0618(4) 0.4650(3)
C3 C 0.1303(8) -0.1362(4) 0.4998(3)
H13 H 0.1020 -0.1819 0.4724
C4 C 0.0671(8) -0.1472(4) 0.5797(3)
C5 C 0.1323(8) -0.0774(4) 0.6176(3)
H14 H 0.1049 -0.0826 0.6691
C6 C 0.2322(8) -0.0052(4) 0.5771(3)
C7 C 0.3041(8) 0.0749(4) 0.6086(3)
C8 C 0.2575(8) 0.4648(4) 0.3781(3)
C9 C 0.2169(8) 0.4339(4) 0.4637(3)
C10 C 0.1245(8) 0.3541(4) 0.5001(3)
H15 H 0.0966 0.3080 0.4729
C11 C 0.0697(8) 0.3409(4) 0.5803(3)
C12 C 0.1318(9) 0.4113(4) 0.6179(3)
H16 H 0.1058 0.4050 0.6701
C13 C 0.2274(8) 0.4861(4) 0.5772(3)
C14 C 0.2938(8) 0.5665(4) 0.6098(3)
C15 C 0.1946(9) 0.5886(5) -0.0532(4)
C16 C 0.2102(9) 0.4704(5) -0.0472(3)
C17 C 0.1557(9) 0.4257(5) -0.0972(3)
H17 H 0.0983 0.4677 -0.1365
C18 C 0.1856(9) 0.3113(5) -0.0906(4)
C19 C 0.2730(9) 0.2567(5) -0.0263(3)
H18 H 0.3008 0.1838 -0.0185
C20 C 0.3155(9) 0.3099(4) 0.0231(4)
C21 C 0.3952(9) 0.2545(4) 0.0941(4)
Nd1A Nd -0.30945(4) -0.23538(2) 0.708765(16)
Nd2_2 Nd 0.29866(4) 0.73730(2) 0.289617(17)
Nd2A Nd -0.29866(4) 0.26270(2) 0.710383(17)
O4A O 0.0397(6) 0.2100(3) 0.3870(2)
O8_2 O 0.2993(6) -0.4462(3) 0.3535(2)
O10A O 0.0268(6) -0.2720(3) 0.3853(2)
O30 O -0.0432(7) 0.9570(3) 0.0979(3)
H19 H 0.0198 0.9026 0.0842
H20 H 0.0262 1.0023 0.0945
O31 O 0.9317(7) 0.1469(3) 0.1421(3)
H21 H 0.8362 0.1579 0.1725
H22 H 1.0167 0.1636 0.1598
O32 O 0.2188(7) 0.8220(3) 0.0263(3)
H23 H 0.3087 0.8495 0.0014
H24 H 0.2110 0.7691 0.0078
O33 O 0.3633(7) 0.5224(3) 0.1340(3)
H25 H 0.3476 0.5513 0.0888
H26 H 0.3707 0.4564 0.1375
O34 O 0.5979(8) 0.9537(4) 0.0867(3)
H27 H 0.5718 1.0128 0.1008
H28 H 0.7104 0.9353 0.0856
loop_
_geom_bond_atom_site_label_1
_geom_bond_atom_site_label_2
_geom_bond_site_symmetry_1
_geom_bond_site_symmetry_2
Nd1 O2 1_555 1_555
Nd2 O3 1_555 1_555
O1 C2 1_555 1_555
O2 C1 1_555 1_555
O3 C1 1_555 1_555
O4 C4 1_555 1_555
O5 C7 1_555 1_555
O6 C7 1_555 1_555
O7 C9 1_555 1_555
O8 C8 1_555 1_555
O9 Nd1 1_555 1_555
O10 C11 1_555 1_555
O11 C14 1_555 1_555
O12 C14 1_555 1_555
O13 C16 1_555 1_555
O14 C15 1_555 1_555
O15 C15 1_555 1_555
O16 C18 1_555 1_555
O17 C21 1_555 1_555
O18 Nd1 1_555 1_555
O19 Nd1 1_555 1_555
O20 Nd1 1_555 1_555
O21 Nd1 1_555 1_555
O22 Nd1 1_555 1_555
O23 Nd1 1_555 1_555
O24 Nd2 1_555 1_555
H1 O24 1_555 1_555
H2 O24 1_555 1_555
O25 Nd2 1_555 1_555
H3 O25 1_555 1_555
H4 O25 1_555 1_555
O26 Nd2 1_555 1_555
H5 O26 1_555 1_555
H6 O26 1_555 1_555
O27 Nd2 1_555 1_555
H7 O27 1_555 1_555
H8 O27 1_555 1_555
O28 Nd2 1_555 1_555
H9 O28 1_555 1_555
H10 O28 1_555 1_555
O29 Nd2 1_555 1_555
H11 O29 1_555 1_555
H12 O29 1_555 1_555
C1 C2 1_555 1_555
C2 C3 1_555 1_555
C3 H13 1_555 1_555
C4 C3 1_555 1_555
C5 C4 1_555 1_555
H14 C5 1_555 1_555
C6 O1 1_555 1_555
C7 C6 1_555 1_555
C8 O9 1_555 1_555
C9 C8 1_555 1_555
C10 C9 1_555 1_555
H15 C10 1_555 1_555
C11 C10 1_555 1_555
C12 C11 1_555 1_555
H16 C12 1_555 1_555
C13 O7 1_555 1_555
C14 C13 1_555 1_555
C15 C16 1_555 1_555
C16 C17 1_555 1_555
C17 H17 1_555 1_555
C18 C17 1_555 1_555
C19 C18 1_555 1_555
H18 C19 1_555 1_555
C20 O13 1_555 1_555
C21 O18 1_555 1_555
O30 H19 1_555 1_555
H20 O30 1_555 1_555
O31 H21 1_555 1_555
H22 O31 1_555 1_555
O32 H23 1_555 1_555
H24 O32 1_555 1_555
O33 H25 1_555 1_555
H26 O33 1_555 1_555
O34 H27 1_555 1_555
H28 O34 1_555 1_555
Nd1A O4 1_555 1_555
Nd2_2 O8 1_555 1_555
Nd2A O10 1_555 1_555
O4A Nd1 1_555 1_555
O8_2 Nd2 1_555 1_555
O10A Nd2 1_555 1_555
C5 C6 1_555 1_555
C12 C13 1_555 1_555
C19 C20 1_555 1_555
C20 C21 1_555 1_555

#END
