
#######################################################################
#
#                 Cambridge Crystallographic Data Centre
#                                CCDC 
#
#######################################################################
#
# If this CIF has been generated from an entry in the Cambridge 
# Structural Database, then it will include bibliographic, chemical, 
# crystal, experimental, refinement or atomic coordinate data resulting 
# from the CCDC's data processing and validation procedures.
#
#######################################################################

data_SADBUW
_symmetry_cell_setting           triclinic
_symmetry_space_group_name_H-M   'P -1'
_symmetry_Int_Tables_number      2
_space_group_name_Hall           '-P 1'
loop_
_symmetry_equiv_pos_site_id
_symmetry_equiv_pos_as_xyz
1 x,y,z
2 -x,-y,-z
_cell_length_a                   9.4832(19)
_cell_length_b                   9.6260(19)
_cell_length_c                   10.142(2)
_cell_angle_alpha                69.53(3)
_cell_angle_beta                 68.52(3)
_cell_angle_gamma                83.76(3)
_cell_volume                     806.914
loop_
_atom_site_label
_atom_site_type_symbol
_atom_site_fract_x
_atom_site_fract_y
_atom_site_fract_z
O16 O 0.8718(6) 0.6460(6) 0.5204(6)
H11 H 0.9573 0.6610 0.4514
H12 H 0.8050 0.6841 0.4839
Dy1 Dy 0.17457(3) -0.30877(3) -0.21062(3)
C1 C 0.3820(8) -0.3611(7) -0.5477(7)
C2 C 0.5223(8) -0.2579(7) -0.6372(7)
C3 C 0.5400(8) -0.1312(7) -0.6190(8)
H1 H 0.4673 -0.1037 -0.5421
C4 C 0.6706(8) -0.0368(7) -0.7176(8)
C5 C 0.7807(8) -0.0948(8) -0.8233(8)
H2 H 0.8699 -0.0409 -0.8878
C6 C 0.7569(8) -0.2287(7) -0.8313(7)
C7 C 0.8653(7) -0.3027(7) -0.9353(7)
C8 C 0.1938(14) -0.2855(14) 0.1069(14)
C9 C 0.3196(14) -0.1765(14) 0.0675(14)
C10 C 0.3067(15) -0.0751(14) 0.1353(15)
C11 C 0.4180(17) 0.0377(17) 0.0749(16)
C14 C 0.3192(15) 0.0896(15) 0.2565(15)
O1 O 0.2837(5) -0.3219(5) -0.4470(5)
O2 O 0.3758(5) -0.4703(5) -0.5848(5)
O3 O 0.6279(5) -0.3090(5) -0.7421(5)
O4 O 0.1564(5) -0.5648(5) -0.0914(5)
O5 O -0.0311(6) -0.2187(5) -0.0445(5)
O6 O 0.3155(5) -0.0886(5) -0.2882(5)
O7 O 0.2068(16) -0.3443(16) 0.0122(16)
O9 O 0.4426(10) -0.1812(9) -0.0541(9)
O10 O 0.3391(11) 0.1783(10) 0.3093(10)
O11 O 0.2104(11) -0.0006(10) 0.3052(10)
O12 O 0.4067(12) 0.1407(12) 0.1305(11)
O13 O 0.0740(6) -0.1091(5) -0.3610(6)
H5 H 0.1096 -0.0436 -0.4461
H6 H -0.0163 -0.0901 -0.3554
O14 O -0.0376(5) -0.3957(5) -0.2342(5)
H7 H -0.0565 -0.3894 -0.3113
H8 H -0.1023 -0.4626 -0.1693
O15 O 0.4327(5) -0.3811(5) -0.2422(5)
H9 H 0.4815 -0.4391 -0.2896
H10 H 0.5083 -0.3317 -0.2569
O18 O 0.0970(11) -0.2155(11) 0.2371(11)
C4A C 0.3294(8) 0.0368(7) -0.2824(8)
C7A C 0.1347(7) -0.6973(7) -0.0647(7)
C7_2 C -0.1347(7) -0.3027(7) 0.0647(7)
O4A O 0.8436(5) -0.4352(5) -0.9086(5)
O5_2 O 0.9689(6) -0.2187(5) -1.0445(5)
O6A O 0.6845(5) 0.0886(5) -0.7118(5)
O9A O 0.5574(10) 0.1812(9) 0.0541(9)
O12A O 0.5933(12) -0.1407(12) -0.1305(11)
H3? H 0.7789 0.0798 -0.2244
C12? C 0.5486(16) 0.0288(16) -0.0530(15)
H4? H 0.3703 -0.1006 0.0973
C13? C 0.5549(17) -0.0737(17) -0.1133(17)
O8? O 0.0926(12) -0.3016(12) 0.2280(11)
O17? O 0.5082(11) 0.5730(10) 0.0052(11)
O19? O 0.7959(11) -0.1216(10) -0.4061(11)
O20? O 0.2225(16) -0.3590(16) 0.0324(16)
loop_
_geom_bond_atom_site_label_1
_geom_bond_atom_site_label_2
_geom_bond_site_symmetry_1
_geom_bond_site_symmetry_2
Dy1 O1 1_555 1_555
C1 C2 1_555 1_555
C2 C3 1_555 1_555
C3 H1 1_555 1_555
C4 C3 1_555 1_555
C5 C4 1_555 1_555
H2 C5 1_555 1_555
C6 C5 1_555 1_555
C7 C6 1_555 1_555
C8 C9 1_555 1_555
C9 C10 1_555 1_555
C10 C11 1_555 1_555
C11 O12 1_555 1_555
C14 O10 1_555 1_555
O1 C1 1_555 1_555
O2 C1 1_555 1_555
O3 C2 1_555 1_555
O4 Dy1 1_555 1_555
O5 Dy1 1_555 1_555
O6 Dy1 1_555 1_555
O7 Dy1 1_555 1_555
O9 C9 1_555 1_555
O11 C14 1_555 1_555
O12 C14 1_555 1_555
O13 Dy1 1_555 1_555
H5 O13 1_555 1_555
H6 O13 1_555 1_555
O14 Dy1 1_555 1_555
H7 O14 1_555 1_555
H8 O14 1_555 1_555
O15 Dy1 1_555 1_555
H9 O15 1_555 1_555
H10 O15 1_555 1_555
O16 H11 1_555 1_555
H12 O16 1_555 1_555
O18 C8 1_555 1_555
C4A O6 1_555 1_555
C7A O4 1_555 1_555
C7_2 O5 1_555 1_555
O4A C7 1_555 1_555
O5_2 C7 1_555 1_555
O6A C4 1_555 1_555
O9A O12 1_555 1_555
O12A O9 1_555 1_555
C6 O3 1_555 1_555
C8 O7 1_555 1_555

#END
