
#######################################################################
#
#                 Cambridge Crystallographic Data Centre
#                                CCDC 
#
#######################################################################
#
# If this CIF has been generated from an entry in the Cambridge 
# Structural Database, then it will include bibliographic, chemical, 
# crystal, experimental, refinement or atomic coordinate data resulting 
# from the CCDC's data processing and validation procedures.
#
#######################################################################

data_SADBEG
_symmetry_cell_setting           triclinic
_symmetry_space_group_name_H-M   'P -1'
_symmetry_Int_Tables_number      2
_space_group_name_Hall           '-P 1'
loop_
_symmetry_equiv_pos_site_id
_symmetry_equiv_pos_as_xyz
1 x,y,z
2 -x,-y,-z
_cell_length_a                   9.4966(19)
_cell_length_b                   9.6020(19)
_cell_length_c                   10.144(2)
_cell_angle_alpha                69.48(3)
_cell_angle_beta                 68.52(3)
_cell_angle_gamma                83.79(3)
_cell_volume                     805.918
loop_
_atom_site_label
_atom_site_type_symbol
_atom_site_fract_x
_atom_site_fract_y
_atom_site_fract_z
O16 O 0.8689(8) 0.6465(9) 0.5199(7)
H11 H 0.9545 0.6615 0.4510
H12 H 0.8021 0.6846 0.4835
Eu1 Eu 0.17349(5) -0.30986(5) -0.21007(5)
C1 C 0.3817(10) -0.3623(10) -0.5489(10)
C2 C 0.5224(10) -0.2596(10) -0.6366(10)
C3 C 0.5387(10) -0.1336(10) -0.6178(10)
H1 H 0.4652 -0.1067 -0.5410
C4 C 0.6704(11) -0.0369(11) -0.7161(11)
C5 C 0.7815(11) -0.0967(10) -0.8220(10)
H2 H 0.8718 -0.0441 -0.8852
C6 C 0.7563(10) -0.2266(10) -0.8305(10)
C7 C 0.8636(10) -0.2981(10) -0.9367(10)
C8 C 0.192(2) -0.290(2) 0.108(2)
C9 C 0.3215(18) -0.1727(18) 0.0656(18)
C10 C 0.306(2) -0.077(2) 0.134(2)
C12 C 0.454(2) -0.032(2) 0.055(2)
C13 C 0.443(2) 0.077(2) 0.115(2)
C14 C 0.322(2) 0.089(2) 0.255(2)
O1 O 0.2842(7) -0.3235(7) -0.4490(7)
O2 O 0.3765(7) -0.4700(7) -0.5858(7)
O3 O 0.6267(7) -0.3091(7) -0.7415(7)
O4 O 0.8460(7) -0.4329(7) -0.9088(7)
O5 O 0.9683(7) -0.2162(7) -1.0441(8)
O6 O 0.6835(7) 0.0869(7) -0.7085(7)
O7 O 0.206(2) -0.344(2) 0.0128(19)
O8 O 0.0943(15) -0.3020(16) 0.2319(15)
O9 O 0.4435(13) -0.1792(13) -0.0546(13)
O10 O 0.3400(15) 0.1786(15) 0.3074(15)
O11 O 0.2089(14) -0.0006(15) 0.3035(15)
O13 O 0.0715(8) -0.1091(7) -0.3631(8)
H5 H 0.1071 -0.0436 -0.4483
H6 H -0.0187 -0.0901 -0.3575
O14 O -0.0373(8) -0.3972(7) -0.2355(7)
H7 H -0.0563 -0.3908 -0.3127
H8 H -0.1021 -0.4640 -0.1706
O15 O 0.4338(7) -0.3817(7) -0.2400(7)
H9 H 0.4826 -0.4397 -0.2874
H10 H 0.5093 -0.3323 -0.2547
Eu1A Eu 0.82651(5) -0.69014(5) -0.78993(5)
Eu1_2 Eu 1.17349(5) -0.30986(5) -1.21007(5)
Eu1A_2 Eu 0.82651(5) 0.30986(5) -0.78993(5)
Eu1A_3 Eu 0.82651(5) 0.30986(5) 0.21007(5)
Eu1A_4 Eu -0.17349(5) -0.69014(5) 0.21007(5)
Eu1_3 Eu 0.17349(5) -1.30986(5) -0.21007(5)
C1A C 0.6183(10) -0.6377(10) -0.4511(10)
C2A C 0.4776(10) -0.7404(10) -0.3634(10)
C3A C 0.4613(10) -0.8664(10) -0.3822(10)
H1A H 0.5348 -0.8933 -0.4590
C4A C 0.3296(11) -0.9631(11) -0.2839(11)
C5A C 0.2185(11) -0.9033(10) -0.1780(10)
H2A H 0.1282 -0.9559 -0.1148
C6A C 0.2437(10) -0.7734(10) -0.1695(10)
C7A C 0.1364(10) -0.7019(10) -0.0633(10)
C8A C 0.808(2) 0.290(2) -0.108(2)
C9A C 0.6785(18) 0.1727(18) -0.0656(18)
C10A C 0.694(2) 0.077(2) -0.134(2)
C12A C 0.546(2) 0.032(2) -0.055(2)
C13A C 0.557(2) -0.077(2) -0.115(2)
C14A C 0.678(2) -0.089(2) -0.255(2)
O1A O 0.7158(7) -0.6765(7) -0.5510(7)
O2A O 0.6235(7) -0.5300(7) -0.4142(7)
O3A O 0.3733(7) -0.6909(7) -0.2585(7)
O4A O 0.1540(7) -0.5671(7) -0.0912(7)
O5A O 0.0317(7) -0.7838(7) 0.0441(8)
O5_2 O -0.0317(7) -0.2162(7) -0.0441(8)
O5A_2 O 1.0317(7) -0.7838(7) -0.9559(8)
O6A O 0.3165(7) -1.0869(7) -0.2915(7)
O6A_2 O 0.3165(7) -0.0869(7) -0.2915(7)
O6_2 O 0.6835(7) -0.9131(7) -0.7085(7)
O7A O 0.794(2) 0.344(2) -0.0128(19)
O7A_2 O 0.794(2) -0.656(2) -1.0128(19)
O8A O 0.9057(15) 0.3020(16) -0.2319(15)
O9A O 0.5565(13) 0.1792(13) 0.0546(13)
O10A O 0.6600(15) -0.1786(15) -0.3074(15)
O11A O 0.7911(14) 0.0006(15) -0.3035(15)
O13A O 0.9285(8) -0.8909(7) -0.6369(8)
H5A H 0.8929 -0.9564 -0.5517
H6A H 1.0187 -0.9099 -0.6425
O14A O 1.0373(8) -0.6028(7) -0.7645(7)
H7A H 1.0563 -0.6092 -0.6873
H8A H 1.1021 -0.5360 -0.8294
O15A O 0.5662(7) -0.6183(7) -0.7600(7)
H9A H 0.5174 -0.5603 -0.7126
H10A H 0.4907 -0.6677 -0.7453
H3? H 0.7795 0.0814 -0.2231
C11? C 0.422(2) 0.043(2) 0.076(2)
H4? H 0.3725 -0.1043 0.0995
O12? O 0.4075(16) 0.1415(17) 0.1289(15)
O17? O 0.5086(15) 0.5761(14) 0.0047(15)
O18? O 0.0971(16) -0.2167(17) 0.2380(16)
O19? O 0.7947(15) -0.1187(15) -0.4083(15)
O20? O 0.221(2) -0.355(2) 0.0341(19)
loop_
_geom_bond_atom_site_label_1
_geom_bond_atom_site_label_2
_geom_bond_site_symmetry_1
_geom_bond_site_symmetry_2
Eu1 O1 1_555 1_555
C1 C2 1_555 1_555
C2 C3 1_555 1_555
C3 H1 1_555 1_555
C4 C3 1_555 1_555
C5 C4 1_555 1_555
H2 C5 1_555 1_555
C6 C5 1_555 1_555
C7 C6 1_555 1_555
C8 C9 1_555 1_555
C9 C10 1_555 1_555
C10 C12 1_555 1_555
C12 C13 1_555 1_555
C13 C14 1_555 1_555
C14 O10 1_555 1_555
O1 C1 1_555 1_555
O2 C1 1_555 1_555
O3 C2 1_555 1_555
O4 C7 1_555 1_555
O5 C7 1_555 1_555
O6 C4 1_555 1_555
O7 Eu1 1_555 1_555
O8 C8 1_555 1_555
O9 C9 1_555 1_555
O11 C14 1_555 1_555
O13 Eu1 1_555 1_555
H5 O13 1_555 1_555
H6 O13 1_555 1_555
O14 Eu1 1_555 1_555
H7 O14 1_555 1_555
H8 O14 1_555 1_555
O15 Eu1 1_555 1_555
H9 O15 1_555 1_555
H10 O15 1_555 1_555
O16 H11 1_555 1_555
H12 O16 1_555 1_555
Eu1A O4 1_555 1_555
Eu1_2 O5 1_555 1_555
Eu1A_2 O6 1_555 1_555
Eu1A_3 O7A 1_555 1_555
Eu1A_4 O5A 1_555 1_555
Eu1_3 O6A 1_555 1_555
C1A C2A 1_555 1_555
C2A C3A 1_555 1_555
C3A H1A 1_555 1_555
C4A C3A 1_555 1_555
C5A C4A 1_555 1_555
H2A C5A 1_555 1_555
C6A C5A 1_555 1_555
C7A C6A 1_555 1_555
C8A C9A 1_555 1_555
C9A C10A 1_555 1_555
C10A C12A 1_555 1_555
C12A C12 1_555 1_555
C13A O9 1_555 1_555
C14A C13A 1_555 1_555
O1A Eu1A 1_555 1_555
O2A C1A 1_555 1_555
O3A C2A 1_555 1_555
O4A Eu1 1_555 1_555
O5A C7A 1_555 1_555
O5_2 Eu1 1_555 1_555
O5A_2 Eu1A 1_555 1_555
O6A C4A 1_555 1_555
O6A_2 Eu1 1_555 1_555
O6_2 Eu1A 1_555 1_555
O7A C8A 1_555 1_555
O7A_2 Eu1A 1_555 1_555
O8A C8A 1_555 1_555
O9A C13 1_555 1_555
O10A C14A 1_555 1_555
O11A C14A 1_555 1_555
O13A Eu1A 1_555 1_555
H5A O13A 1_555 1_555
H6A O13A 1_555 1_555
O14A Eu1A 1_555 1_555
H7A O14A 1_555 1_555
H8A O14A 1_555 1_555
O15A Eu1A 1_555 1_555
H9A O15A 1_555 1_555
H10A O15A 1_555 1_555
C6 O3 1_555 1_555
C8 O7 1_555 1_555
C1A O1A 1_555 1_555
C6A O3A 1_555 1_555
C7A O4A 1_555 1_555
C9A O9A 1_555 1_555
C12A C13A 1_555 1_555

#END
