
#######################################################################
#
#                 Cambridge Crystallographic Data Centre
#                                CCDC 
#
#######################################################################
#
# If this CIF has been generated from an entry in the Cambridge 
# Structural Database, then it will include bibliographic, chemical, 
# crystal, experimental, refinement or atomic coordinate data resulting 
# from the CCDC's data processing and validation procedures.
#
#######################################################################

data_SADCUX
_symmetry_cell_setting           triclinic
_symmetry_space_group_name_H-M   'P -1'
_symmetry_Int_Tables_number      2
_space_group_name_Hall           '-P 1'
loop_
_symmetry_equiv_pos_site_id
_symmetry_equiv_pos_as_xyz
1 x,y,z
2 -x,-y,-z
_cell_length_a                   7.4895(15)
_cell_length_b                   11.093(2)
_cell_length_c                   16.875(3)
_cell_angle_alpha                86.68(3)
_cell_angle_beta                 80.69(3)
_cell_angle_gamma                77.65(3)
_cell_volume                     1351.11
loop_
_atom_site_label
_atom_site_type_symbol
_atom_site_fract_x
_atom_site_fract_y
_atom_site_fract_z
O1 O -0.2166(7) 1.0122(5) 0.4714(3)
Yb1 Yb 0.29726(4) 0.76792(3) 0.518300(18)
C15 C 0.5299(10) 0.5016(7) 0.5419(4)
C16 C -0.0594(10) 0.9594(7) 0.4855(4)
O21 O 0.4843(7) 0.6016(5) 0.5769(3)
O22 O 0.6223(7) 0.4013(5) 0.5662(3)
O23 O 0.3922(7) 0.8330(5) 0.3881(3)
H19 H 0.4888 0.7950 0.3643
H20 H 0.3676 0.8896 0.3650
O24 O 0.0098(7) 0.8471(5) 0.4799(3)
O25 O 0.5705(7) 0.8254(5) 0.5220(3)
O26 O 0.2390(7) 0.8047(5) 0.6530(3)
H21 H 0.2323 0.8691 0.6792
H22 H 0.2598 0.7427 0.6847
O27 O 0.0912(7) 0.6423(5) 0.5698(4)
O1A O 0.2166(7) 0.9878(5) 0.5286(3)
O1_2 O 0.7834(7) 0.0122(5) 0.4714(3)
Yb1A Yb 0.70274(4) 0.23208(3) 0.481700(18)
Yb1A_2 Yb -0.29726(4) 1.23208(3) 0.481700(18)
C15A C 0.4701(10) 0.4984(7) 0.4581(4)
C16A C 0.0594(10) 1.0406(7) 0.5145(4)
O21A O 0.5157(7) 0.3984(5) 0.4231(3)
O22A O 0.3777(7) 0.5987(5) 0.4338(3)
O23A O 0.6078(7) 0.1670(5) 0.6119(3)
H19A H 0.5112 0.2050 0.6357
H20A H 0.6324 0.1104 0.6350
O24A O -0.0098(7) 1.1529(5) 0.5201(3)
O24A_2 O 0.9902(7) 0.1529(5) 0.5201(3)
O25A O 0.4295(7) 0.1746(5) 0.4780(3)
O26A O 0.7610(7) 0.1953(5) 0.3470(3)
H21A H 0.7677 0.1309 0.3208
H22A H 0.7402 0.2573 0.3153
O27A O 0.9088(7) 0.3577(5) 0.4302(4)
Yb2 Yb 0.47624(4) -0.28048(3) 0.167932(18)
C1 C 0.6524(10) -0.0228(7) 0.2114(5)
C2 C 0.6145(10) 0.0868(7) 0.1549(5)
C3 C 0.5738(10) 0.0790(7) 0.0808(5)
H1 H 0.5633 0.0031 0.0634
C4 C 0.5464(9) 0.1854(7) 0.0281(4)
C5 C 0.5493(10) 0.3006(7) 0.0638(5)
H2 H 0.5221 0.3748 0.0353
C6 C 0.5915(10) 0.2997(7) 0.1383(5)
C7 C 0.6079(10) 0.4142(7) 0.1796(4)
C8 C 0.2033(10) -0.0169(7) 0.2312(5)
C9 C 0.1367(10) 0.0843(7) 0.1721(5)
C10 C 0.0854(10) 0.0685(7) 0.1015(5)
H3 H 0.0814 -0.0104 0.0869
C11 C 0.0366(10) 0.1711(7) 0.0483(5)
C12 C 0.0362(10) 0.2903(7) 0.0801(5)
H4 H -0.0008 0.3623 0.0508
C13 C 0.0897(10) 0.2964(7) 0.1525(4)
C14 C 0.1152(10) 0.4161(7) 0.1839(5)
O2 O 0.7295(7) -0.0109(5) 0.2693(3)
O3 O 0.6040(7) -0.1172(5) 0.1921(3)
O4 O 0.6263(7) 0.1963(4) 0.1842(3)
O5 O 0.6758(7) 0.4011(5) 0.2426(3)
O6 O 0.5530(7) 0.5132(5) 0.1427(3)
O7 O 0.5221(7) 0.1764(4) -0.0425(3)
O8 O 0.6447(6) -0.3495(4) 0.2719(3)
H5 H 0.6513 -0.4227 0.2909
H6 H 0.7481 -0.3301 0.2730
O9 O 0.2915(7) -0.3742(5) 0.2743(3)
H7 H 0.2219 -0.4255 0.2882
H8 H 0.2601 -0.3164 0.3079
O10 O 0.7741(7) -0.3239(5) 0.0984(3)
H9 H 0.8231 -0.2681 0.0724
H10 H 0.8575 -0.3892 0.0984
O11 O 0.2428(7) -0.3218(5) 0.1077(3)
H11 H 0.2131 -0.3981 0.1140
H12 H 0.1483 -0.2735 0.0952
O12 O 0.2312(7) -0.1241(5) 0.2054(3)
O13 O 0.2256(7) 0.0131(5) 0.2975(3)
O14 O 0.0008(8) 0.1605(5) -0.0206(3)
O15 O 0.2101(7) 0.4098(5) 0.2378(3)
O16 O 0.0458(7) 0.5101(5) 0.1474(4)
O17 O 0.1408(7) 0.1969(5) 0.1980(3)
Yb2A Yb 0.52376(4) 0.28048(3) -0.167932(18)
Yb2_2 Yb 0.47624(4) 0.71952(3) 0.167932(18)
Yb2A_2 Yb 0.52376(4) -0.71952(3) -0.167932(18)
C1A C 0.3476(10) 0.0228(7) -0.2114(5)
C2A C 0.3855(10) -0.0868(7) -0.1549(5)
C3A C 0.4262(10) -0.0790(7) -0.0808(5)
H1A H 0.4367 -0.0031 -0.0634
C4A C 0.4536(9) -0.1854(7) -0.0281(4)
C5A C 0.4507(10) -0.3006(7) -0.0638(5)
H2A H 0.4779 -0.3748 -0.0353
C6A C 0.4085(10) -0.2997(7) -0.1383(5)
C7A C 0.3921(10) -0.4142(7) -0.1796(4)
C8A C 0.7967(10) 0.0169(7) -0.2312(5)
C9A C 0.8633(10) -0.0843(7) -0.1721(5)
C10A C 0.9146(10) -0.0685(7) -0.1015(5)
H3A H 0.9186 0.0104 -0.0869
C11A C 0.9634(10) -0.1711(7) -0.0483(5)
C12A C 0.9638(10) -0.2903(7) -0.0801(5)
H4A H 1.0008 -0.3623 -0.0508
C13A C 0.9103(10) -0.2964(7) -0.1525(4)
C14A C 0.8848(10) -0.4161(7) -0.1839(5)
O2A O 0.2705(7) 0.0109(5) -0.2693(3)
O3A O 0.3960(7) 0.1172(5) -0.1921(3)
O4A O 0.3737(7) -0.1963(4) -0.1842(3)
O5A O 0.3242(7) -0.4011(5) -0.2426(3)
O6A O 0.4470(7) -0.5132(5) -0.1427(3)
O6_2 O 0.5530(7) -0.4868(5) 0.1427(3)
O6A_2 O 0.4470(7) 0.4868(5) -0.1427(3)
O7A O 0.4779(7) -0.1764(4) 0.0425(3)
O8A O 0.3553(6) 0.3495(4) -0.2719(3)
H5A H 0.3487 0.4227 -0.2909
H6A H 0.2519 0.3301 -0.2730
O9A O 0.7085(7) 0.3742(5) -0.2743(3)
H7A H 0.7781 0.4255 -0.2882
H8A H 0.7399 0.3164 -0.3079
O10A O 0.2259(7) 0.3239(5) -0.0984(3)
H9A H 0.1769 0.2681 -0.0724
H10A H 0.1425 0.3892 -0.0984
O11A O 0.7572(7) 0.3218(5) -0.1077(3)
H11A H 0.7869 0.3981 -0.1140
H12A H 0.8517 0.2735 -0.0952
O12A O 0.7688(7) 0.1241(5) -0.2054(3)
O13A O 0.7744(7) -0.0131(5) -0.2975(3)
O14A O 0.9992(8) -0.1605(5) 0.0206(3)
O15A O 0.7899(7) -0.4098(5) -0.2378(3)
O16A O 0.9542(7) -0.5101(5) -0.1474(4)
O17A O 0.8592(7) -0.1969(5) -0.1980(3)
O18 O 0.2383(7) 0.2342(5) 0.3574(3)
H13 H 0.2265 0.2094 0.3121
H14 H 0.2856 0.2978 0.3488
O19 O 0.0870(7) 0.2477(5) 0.6983(4)
H15 H 0.0908 0.1896 0.7336
H16 H 0.0732 0.2188 0.6546
O20 O 0.1220(10) 0.4000(5) 0.5650(4)
H17 H 0.0181 0.3984 0.5515
H18 H 0.2059 0.3618 0.5298
loop_
_geom_bond_atom_site_label_1
_geom_bond_atom_site_label_2
_geom_bond_site_symmetry_1
_geom_bond_site_symmetry_2
O1 C16 1_555 1_555
Yb1 O21 1_555 1_555
Yb2 O3 1_555 1_555
C1 C2 1_555 1_555
C2 C3 1_555 1_555
C3 H1 1_555 1_555
C4 C3 1_555 1_555
C5 C4 1_555 1_555
H2 C5 1_555 1_555
C6 C5 1_555 1_555
C7 C6 1_555 1_555
C8 C9 1_555 1_555
C9 C10 1_555 1_555
C10 H3 1_555 1_555
C11 C10 1_555 1_555
C12 C11 1_555 1_555
H4 C12 1_555 1_555
C13 C12 1_555 1_555
C14 C13 1_555 1_555
C15 O21 1_555 1_555
C16 O24 1_555 1_555
O2 C1 1_555 1_555
O3 C1 1_555 1_555
O4 C2 1_555 1_555
O5 C7 1_555 1_555
O6 C7 1_555 1_555
O7 C4 1_555 1_555
O8 Yb2 1_555 1_555
H5 O8 1_555 1_555
H6 O8 1_555 1_555
O9 Yb2 1_555 1_555
H7 O9 1_555 1_555
H8 O9 1_555 1_555
O10 Yb2 1_555 1_555
H9 O10 1_555 1_555
H10 O10 1_555 1_555
O11 Yb2 1_555 1_555
H11 O11 1_555 1_555
H12 O11 1_555 1_555
O12 Yb2 1_555 1_555
O13 C8 1_555 1_555
O14 C11 1_555 1_555
O15 C14 1_555 1_555
O16 C14 1_555 1_555
O17 C9 1_555 1_555
O18 H13 1_555 1_555
H14 O18 1_555 1_555
O19 H15 1_555 1_555
H16 O19 1_555 1_555
O20 H17 1_555 1_555
H18 O20 1_555 1_555
O22 C15 1_555 1_555
O23 Yb1 1_555 1_555
H19 O23 1_555 1_555
H20 O23 1_555 1_555
O24 Yb1 1_555 1_555
O25 Yb1 1_555 1_555
O26 Yb1 1_555 1_555
H21 O26 1_555 1_555
H22 O26 1_555 1_555
O27 Yb1 1_555 1_555
O1A Yb1 1_555 1_555
O1_2 Yb1A 1_555 1_555
Yb1A O22 1_555 1_555
Yb1A_2 O1 1_555 1_555
Yb2A O7 1_555 1_555
Yb2_2 O6 1_555 1_555
Yb2A_2 O6A 1_555 1_555
C1A C2A 1_555 1_555
C2A C3A 1_555 1_555
C3A H1A 1_555 1_555
C4A C3A 1_555 1_555
C5A C4A 1_555 1_555
H2A C5A 1_555 1_555
C6A C5A 1_555 1_555
C7A C6A 1_555 1_555
C8A C9A 1_555 1_555
C9A C10A 1_555 1_555
C10A H3A 1_555 1_555
C11A C10A 1_555 1_555
C12A C11A 1_555 1_555
H4A C12A 1_555 1_555
C13A C12A 1_555 1_555
C14A C13A 1_555 1_555
C15A C15 1_555 1_555
C16A C16 1_555 1_555
O2A C1A 1_555 1_555
O3A Yb2A 1_555 1_555
O4A C2A 1_555 1_555
O5A C7A 1_555 1_555
O6A C7A 1_555 1_555
O6_2 Yb2 1_555 1_555
O6A_2 Yb2A 1_555 1_555
O7A Yb2 1_555 1_555
O8A Yb2A 1_555 1_555
H5A O8A 1_555 1_555
H6A O8A 1_555 1_555
O9A Yb2A 1_555 1_555
H7A O9A 1_555 1_555
H8A O9A 1_555 1_555
O10A Yb2A 1_555 1_555
H9A O10A 1_555 1_555
H10A O10A 1_555 1_555
O11A Yb2A 1_555 1_555
H11A O11A 1_555 1_555
H12A O11A 1_555 1_555
O12A Yb2A 1_555 1_555
O13A C8A 1_555 1_555
O14A C11A 1_555 1_555
O15A C14A 1_555 1_555
O16A C14A 1_555 1_555
O17A C9A 1_555 1_555
O21A Yb1A 1_555 1_555
O22A Yb1 1_555 1_555
O23A Yb1A 1_555 1_555
H19A O23A 1_555 1_555
H20A O23A 1_555 1_555
O24A Yb1A_2 1_555 1_555
O24A_2 Yb1A 1_555 1_555
O25A Yb1A 1_555 1_555
O26A Yb1A 1_555 1_555
H21A O26A 1_555 1_555
H22A O26A 1_555 1_555
O27A Yb1A 1_555 1_555
C6 O4 1_555 1_555
C8 O12 1_555 1_555
C13 O17 1_555 1_555
O1A C16A 1_555 1_555
C1A O3A 1_555 1_555
C4A O7A 1_555 1_555
C6A O4A 1_555 1_555
C8A O12A 1_555 1_555
C13A O17A 1_555 1_555
C15A O21A 1_555 1_555
C15A O22A 1_555 1_555
C16A O24A 1_555 1_555

#END
