
#######################################################################
#
#                 Cambridge Crystallographic Data Centre
#                                CCDC 
#
#######################################################################
#
# If this CIF has been generated from an entry in the Cambridge 
# Structural Database, then it will include bibliographic, chemical, 
# crystal, experimental, refinement or atomic coordinate data resulting 
# from the CCDC's data processing and validation procedures.
#
#######################################################################

data_SADDOS
_symmetry_cell_setting           monoclinic
_symmetry_space_group_name_H-M   'C 2/c'
_symmetry_Int_Tables_number      15
_space_group_name_Hall           '-C 2yn'
loop_
_symmetry_equiv_pos_site_id
_symmetry_equiv_pos_as_xyz
1 x,y,z
2 -x,y,1/2-z
3 1/2+x,1/2+y,z
4 1/2-x,1/2+y,1/2-z
5 -x,-y,-z
6 x,-y,1/2+z
7 1/2-x,1/2-y,-z
8 1/2+x,1/2-y,1/2+z
_cell_length_a                   24.8946(7)
_cell_length_b                   7.3297(2)
_cell_length_c                   16.5210(4)
_cell_angle_alpha                90
_cell_angle_beta                 91.551(2)
_cell_angle_gamma                90
_cell_volume                     3013.48
loop_
_atom_site_label
_atom_site_type_symbol
_atom_site_fract_x
_atom_site_fract_y
_atom_site_fract_z
U1 U 0.602448(5) 0.12469(2) 0.344026(7)
O1 O 0.64950(10) 0.2888(4) 0.37776(15)
O2 O 0.55551(10) -0.0386(4) 0.30959(15)
Cl1 Cl 0.63679(5) -0.09327(16) 0.46511(6)
N1 N 0.54850(11) 0.2986(4) 0.50736(16)
O3 O 0.53995(9) 0.1972(4) 0.44176(13)
C1 C 0.53819(14) 0.2269(5) 0.5806(2)
H1 H 0.5266 0.1067 0.5846
C2 C 0.54477(14) 0.3313(5) 0.6496(2)
H2 H 0.5369 0.2829 0.6999
C3 C 0.56312(14) 0.5086(5) 0.6432(2)
C4 C 0.57358(14) 0.6313(6) 0.7151(2)
O4 O 0.60202(11) 0.7711(4) 0.70397(14)
O5 O 0.55644(10) 0.5930(4) 0.78418(14)
C5 C 0.57339(14) 0.5777(5) 0.5672(2)
H3 H 0.5856 0.6969 0.5620
C6 C 0.56572(14) 0.4719(5) 0.5001(2)
H4 H 0.5724 0.5194 0.4491
N2 N 0.67921(11) -0.1534(4) 0.23164(17)
O6 O 0.67404(10) -0.0158(4) 0.28305(15)
C7 C 0.68133(15) -0.1174(6) 0.1517(2)
H5 H 0.6747 0.0000 0.1326
C8 C 0.69328(14) -0.2545(5) 0.0991(2)
H6 H 0.6946 -0.2306 0.0440
C9 C 0.70341(13) -0.4289(5) 0.1279(2)
C10 C 0.72158(15) -0.5757(5) 0.0733(2)
O7 O 0.72513(11) -0.5239(4) -0.00223(15)
O8 O 0.73261(10) -0.7285(4) 0.09848(15)
H7 H 0.7343 -0.6218 -0.0333
C11 C 0.69799(13) -0.4641(5) 0.2096(2)
H8 H 0.7030 -0.5818 0.2295
C12 C 0.68526(14) -0.3253(5) 0.2607(2)
H9 H 0.6807 -0.3487 0.3154
U1E U 0.602448(5) 0.87531(2) 0.844026(7)
O4E O 0.60202(11) 0.2289(4) 0.20397(14)
O5E O 0.55644(10) 0.4070(4) 0.28418(14)
loop_
_geom_bond_atom_site_label_1
_geom_bond_atom_site_label_2
_geom_bond_site_symmetry_1
_geom_bond_site_symmetry_2
U1 O1 1_555 1_555
O2 U1 1_555 1_555
Cl1 U1 1_555 1_555
N1 O3 1_555 1_555
O3 U1 1_555 1_555
C1 N1 1_555 1_555
H1 C1 1_555 1_555
C2 C1 1_555 1_555
H2 C2 1_555 1_555
C3 C2 1_555 1_555
C4 C3 1_555 1_555
O4 C4 1_555 1_555
O5 C4 1_555 1_555
C5 C3 1_555 1_555
H3 C5 1_555 1_555
C6 N1 1_555 1_555
H4 C6 1_555 1_555
N2 O6 1_555 1_555
O6 U1 1_555 1_555
C7 N2 1_555 1_555
H5 C7 1_555 1_555
C8 C7 1_555 1_555
H6 C8 1_555 1_555
C9 C8 1_555 1_555
C10 C9 1_555 1_555
O7 C10 1_555 1_555
O8 C10 1_555 1_555
H7 O7 1_555 1_555
C11 C9 1_555 1_555
H8 C11 1_555 1_555
C12 N2 1_555 1_555
H9 C12 1_555 1_555
U1E O4 1_555 1_555
O4E U1 1_555 1_555
O5E U1 1_555 1_555
O5 U1E 1_555 1_555
C5 C6 1_555 1_555
C11 C12 1_555 1_555

#END
