
#######################################################################
#
#                 Cambridge Crystallographic Data Centre
#                                CCDC 
#
#######################################################################
#
# If this CIF has been generated from an entry in the Cambridge 
# Structural Database, then it will include bibliographic, chemical, 
# crystal, experimental, refinement or atomic coordinate data resulting 
# from the CCDC's data processing and validation procedures.
#
#######################################################################

data_SADDOQ
_symmetry_cell_setting           triclinic
_symmetry_space_group_name_H-M   'P -1'
_symmetry_Int_Tables_number      2
_space_group_name_Hall           '-P 1'
loop_
_symmetry_equiv_pos_site_id
_symmetry_equiv_pos_as_xyz
1 x,y,z
2 -x,-y,-z
_cell_length_a                   7.861(2)
_cell_length_b                   9.021(2)
_cell_length_c                   9.199(2)
_cell_angle_alpha                63.19(3)
_cell_angle_beta                 84.64(3)
_cell_angle_gamma                69.99(3)
_cell_volume                     545.625
loop_
_atom_site_label
_atom_site_type_symbol
_atom_site_fract_x
_atom_site_fract_y
_atom_site_fract_z
O1 O 0.6165(11) 1.3112(10) 0.4301(9)
O2 O 0.7193(11) 1.4325(10) 0.6113(10)
C1 C 0.8905(16) 1.0832(15) 0.6716(18)
H1 H 0.9425(49) 1.0413(90) 0.7791(43)
H2 H 0.9648(38) 1.1391(36) 0.5918(73)
H3 H 0.8840(21) 0.9857(59) 0.658(11)
C2 C 0.2856(18) 1.2550(16) 0.4139(16)
H4 H 0.1635(41) 1.3043(50) 0.3664(71)
H5 H 0.3473(71) 1.1475(45) 0.4054(91)
H6 H 0.284(11) 1.2306(90) 0.5269(27)
N1 N 0.1858(13) 1.3906(12) 0.7673(12)
H7 H 0.2038(13) 1.4851(12) 0.6836(12)
H8 H 0.1115(13) 1.3582(12) 0.7279(12)
C3 C 0.0915(14) 1.4465(13) 0.8848(13)
C4 C 0.1175(16) 1.5799(14) 0.9061(14)
H9 H 0.1976(16) 1.6347(14) 0.8429(14)
C5 C -0.0264(16) 1.3669(15) 0.9802(14)
H10 H -0.0453(16) 1.2765(15) 0.9684(14)
I1 I 0.38993(13) 0.88970(10) 0.89044(10)
As1 As 0.6500(2) 1.25095(14) 0.64269(14)
As2 As 0.4109(2) 1.4204(2) 0.30003(15)
Cu1 Cu 0.4377(2) 1.1835(2) 0.8424(2)
As2A As 0.5891(2) 1.5796(2) 0.69997(15)
C5A C 0.0264(16) 1.6331(15) 1.0198(14)
C4A C -0.1175(16) 1.4201(14) 1.0939(14)
Cu1A Cu 0.5623(2) 0.8165(2) 1.1576(2)
O2A O 0.2807(11) 1.5675(10) 0.3887(10)
I1A I 0.61007(13) 1.11030(10) 1.10956(10)
O1A O 0.3835(11) 1.6888(10) 0.5699(9)
C2A C 0.7144(18) 1.7450(16) 0.5861(16)
C3A C -0.0915(14) 1.5535(13) 1.1152(13)
H10A H 0.0453(16) 1.7235(15) 1.0316(14)
H9A H -0.1976(16) 1.3653(14) 1.1571(14)
N1A N 0.8142(13) 0.6094(12) 1.2327(12)
As1A As 0.3500(2) 0.74905(14) 1.35731(14)
As1A_2 As 0.3500(2) 1.74905(14) 0.35731(14)
H4A H 0.8365(41) 1.6957(50) 0.6336(71)
H5A H 0.6527(71) 1.8525(45) 0.5946(91)
H6A H 0.716(11) 1.7694(90) 0.4731(27)
N1A_2 N -0.1858(13) 1.6094(12) 1.2327(12)
H7A H 0.7962(13) 0.5149(12) 1.3164(12)
H8A H 0.8885(13) 0.6418(12) 1.2721(12)
C1A C 0.1095(16) 1.9168(15) 0.3284(18)
Cu1A_2 Cu 0.5623(2) 1.8165(2) 0.1576(2)
H7A_2 H -0.2038(13) 1.5149(12) 1.3164(12)
H8A_2 H -0.1115(13) 1.6418(12) 1.2721(12)
Cu1A_3 Cu -0.4377(2) 1.8165(2) 1.1576(2)
H1A H 0.0575(49) 1.9587(90) 0.2209(43)
H2A H 0.0352(38) 1.8609(36) 0.4082(73)
H3A H 0.1160(21) 2.0143(59) 0.342(11)
loop_
_geom_bond_atom_site_label_1
_geom_bond_atom_site_label_2
_geom_bond_site_symmetry_1
_geom_bond_site_symmetry_2
O1 As1 1_555 1_555
O2 As1 1_555 1_555
C1 H1 1_555 1_555
H2 C1 1_555 1_555
H3 C1 1_555 1_555
C2 H4 1_555 1_555
H5 C2 1_555 1_555
H6 C2 1_555 1_555
N1 H7 1_555 1_555
H8 N1 1_555 1_555
C3 N1 1_555 1_555
C4 C3 1_555 1_555
H9 C4 1_555 1_555
C5 C3 1_555 1_555
H10 C5 1_555 1_555
I1 Cu1 1_555 1_555
As1 C1 1_555 1_555
As2 O1 1_555 1_555
Cu1 N1 1_555 1_555
As2A O2 1_555 1_555
C5A C4 1_555 1_555
C4A C5 1_555 1_555
Cu1A I1 1_555 1_555
O2A As2 1_555 1_555
I1A Cu1 1_555 1_555
O1A As2A 1_555 1_555
C2A As2A 1_555 1_555
C3A C5A 1_555 1_555
H10A C5A 1_555 1_555
H9A C4A 1_555 1_555
N1A Cu1A 1_555 1_555
As1A Cu1A 1_555 1_555
As1A_2 O2A 1_555 1_555
H4A C2A 1_555 1_555
H5A C2A 1_555 1_555
H6A C2A 1_555 1_555
N1A_2 C3A 1_555 1_555
H7A N1A 1_555 1_555
H8A N1A 1_555 1_555
C1A As1A_2 1_555 1_555
Cu1A_2 As1A_2 1_555 1_555
H7A_2 N1A_2 1_555 1_555
H8A_2 N1A_2 1_555 1_555
Cu1A_3 N1A_2 1_555 1_555
H1A C1A 1_555 1_555
H2A C1A 1_555 1_555
H3A C1A 1_555 1_555
C2 As2 1_555 1_555
As1 Cu1 1_555 1_555
Cu1 Cu1A 1_555 1_555
C4A C3A 1_555 1_555
Cu1A I1A 1_555 1_555
O1A As1A_2 1_555 1_555

#END
