
#######################################################################
#
#                 Cambridge Crystallographic Data Centre
#                                CCDC 
#
#######################################################################
#
# If this CIF has been generated from an entry in the Cambridge 
# Structural Database, then it will include bibliographic, chemical, 
# crystal, experimental, refinement or atomic coordinate data resulting 
# from the CCDC's data processing and validation procedures.
#
#######################################################################

data_SADDAE01
_symmetry_cell_setting           orthorhombic
_symmetry_space_group_name_H-M   'P n m a'
_symmetry_Int_Tables_number      62
_space_group_name_Hall           '-P 2ac 2n'
loop_
_symmetry_equiv_pos_site_id
_symmetry_equiv_pos_as_xyz
1 x,y,z
2 1/2-x,-y,1/2+z
3 -x,1/2+y,-z
4 1/2+x,1/2-y,1/2-z
5 -x,-y,-z
6 1/2+x,y,1/2-z
7 x,1/2-y,z
8 1/2-x,1/2+y,1/2+z
_cell_length_a                   19.509(4)
_cell_length_b                   10.049(2)
_cell_length_c                   4.3376(9)
_cell_angle_alpha                90
_cell_angle_beta                 90
_cell_angle_gamma                90
_cell_volume                     850.369
loop_
_atom_site_label
_atom_site_type_symbol
_atom_site_fract_x
_atom_site_fract_y
_atom_site_fract_z
Ba1 Ba 0.162503(15) 0.7500 0.55190(6)
O1 O 0.2583(2) 0.7500 0.0793(11)
O2 O 0.0248(3) 0.7500 0.5025(13)
C1 C -0.1037(2) 0.6347(4) -0.0152(9)
O3 O -0.1293(2) 0.7500 -0.1241(10)
C2 C -0.0214(2) 0.7500 0.3073(11)
O4 O -0.1804(2) 0.5263(3) -0.3613(9)
C3 C -0.05184(19) 0.6294(4) 0.1898(9)
H1 H -0.0355 0.5472 0.2561
C4 C -0.1384(2) 0.5123(4) -0.1456(9)
O5 O -0.12013(19) 0.4048(3) -0.0326(7)
H2 H 0.281(2) 0.822(3) 0.052(11)
Ba1_2 Ba 0.162503(15) 0.7500 -0.44810(6)
Ba1B Ba -0.162503(15) 0.2500 -0.55190(6)
Ba1B_2 Ba -0.162503(15) 0.2500 0.44810(6)
Ba1B_3 Ba -0.162503(15) 1.2500 -0.55190(6)
Ba1B_4 Ba -0.162503(15) 1.2500 0.44810(6)
O1_2 O 0.2583(2) 0.7500 1.0793(11)
C1F C -0.1037(2) 0.8653(4) -0.0152(9)
O4F O -0.1804(2) 0.9737(3) -0.3613(9)
O4B O 0.1804(2) 1.0263(3) 0.3613(9)
O4D O 0.1804(2) 0.4737(3) 0.3613(9)
C3F C -0.05184(19) 0.8706(4) 0.1898(9)
H1F H -0.0355 0.9528 0.2561
C4F C -0.1384(2) 0.9877(4) -0.1456(9)
O5F O -0.12013(19) 1.0952(3) -0.0326(7)
O5B O 0.12013(19) 0.9048(3) 0.0326(7)
O5B_2 O 0.12013(19) 0.9048(3) 1.0326(7)
O5D O 0.12013(19) 0.5952(3) 0.0326(7)
O5D_2 O 0.12013(19) 0.5952(3) 1.0326(7)
H2F H 0.281(2) 0.678(3) 0.052(11)
H2_2 H 0.281(2) 0.822(3) 1.052(11)
H2F_2 H 0.281(2) 0.678(3) 1.052(11)
loop_
_geom_bond_atom_site_label_1
_geom_bond_atom_site_label_2
_geom_bond_site_symmetry_1
_geom_bond_site_symmetry_2
Ba1 O1 1_555 1_555
O1 H2 1_555 1_555
O2 Ba1 1_555 1_555
C1 O3 1_555 1_555
O3 C1F 1_555 1_555
C2 O2 1_555 1_555
O4 C4 1_555 1_555
C3 C1 1_555 1_555
H1 C3 1_555 1_555
C4 C1 1_555 1_555
O5 C4 1_555 1_555
Ba1_2 O1 1_555 1_555
Ba1B O4 1_555 1_555
Ba1B_2 O5 1_555 1_555
Ba1B_3 O4F 1_555 1_555
Ba1B_4 O5F 1_555 1_555
O1_2 Ba1 1_555 1_555
C1F C3F 1_555 1_555
O4F C4F 1_555 1_555
O4B Ba1 1_555 1_555
O4D Ba1 1_555 1_555
C3F C2 1_555 1_555
H1F C3F 1_555 1_555
C4F C1F 1_555 1_555
O5F Ba1B_3 1_555 1_555
O5B Ba1 1_555 1_555
O5B_2 Ba1 1_555 1_555
O5D Ba1 1_555 1_555
O5D_2 Ba1 1_555 1_555
H2F O1 1_555 1_555
H2_2 O1_2 1_555 1_555
H2F_2 O1_2 1_555 1_555
C2 C3 1_555 1_555
O5 Ba1B 1_555 1_555
Ba1_2 O5B 1_555 1_555
Ba1_2 O5D 1_555 1_555
C4F O5F 1_555 1_555

#END
