
#######################################################################
#
#                 Cambridge Crystallographic Data Centre
#                                CCDC 
#
#######################################################################
#
# If this CIF has been generated from an entry in the Cambridge 
# Structural Database, then it will include bibliographic, chemical, 
# crystal, experimental, refinement or atomic coordinate data resulting 
# from the CCDC's data processing and validation procedures.
#
#######################################################################

data_SADDIK
_symmetry_cell_setting           triclinic
_symmetry_space_group_name_H-M   'P -1'
_symmetry_Int_Tables_number      2
_space_group_name_Hall           '-P 1'
loop_
_symmetry_equiv_pos_site_id
_symmetry_equiv_pos_as_xyz
1 x,y,z
2 -x,-y,-z
_cell_length_a                   8.740(2)
_cell_length_b                   9.254(2)
_cell_length_c                   11.732(2)
_cell_angle_alpha                101.84(3)
_cell_angle_beta                 101.24(3)
_cell_angle_gamma                105.54(3)
_cell_volume                     862.755
loop_
_atom_site_label
_atom_site_type_symbol
_atom_site_fract_x
_atom_site_fract_y
_atom_site_fract_z
O1 O 0.1917(8) 0.469(8) -0.0757(6)
O2 O 0.1355(7) 0.6551(8) 0.1164(6)
C1 C 0.4398(12) 0.6105(15) 0.1482(10)
H1 H 0.4722(85) 0.6896(59) 0.2235(26)
H2 H 0.5350(50) 0.609(11) 0.1192(39)
H3 H 0.3902(39) 0.5107(49) 0.1600(62)
C2 C 0.0493(14) 0.1638(12) -0.1935(11)
H4 H -0.0312(77) 0.0644(32) -0.2058(44)
H5 H 0.1563(34) 0.1519(80) -0.1859(33)
H6 H 0.023(11) 0.2043(50) -0.2613(15)
N1 N 0.1839(11) 0.8036(11) -0.2118(8)
C3 C 0.0715(13) 0.7319(14) -0.2917(10)
C4 C -0.0713(12) 0.6325(12) -0.3856(9)
C5 C -0.0968(16) 0.6553(14) -0.5003(11)
H7 H -0.0223(16) 0.7354(14) -0.5173(11)
C6 C -0.2342(17) 0.5569(17) -0.5880(12)
H8 H -0.2551(17) 0.5722(17) -0.6647(12)
C7 C -0.3397(15) 0.4380(17) -0.5642(13)
H9 H -0.4305(15) 0.3701(17) -0.6254(13)
C8 C -0.3145(18) 0.4163(18) -0.4510(14)
H10 H -0.3893(18) 0.3360(18) -0.4346(14)
C9 C -0.1795(16) 0.5128(16) -0.3632(11)
H11 H -0.1607(16) 0.4969(16) -0.2866(11)
I1 I 0.34883(8) 1.11789(8) 0.08923(6)
As1 As 0.28385(10) 0.65461(10) 0.03166(8)
As2 As 0.04980(10) 0.30529(10) -0.04919(8)
Cu1 Cu 0.35840(15) 0.86601(15) -0.05709(11)
As2A As -0.04980(10) 0.69471(10) 0.04919(8)
Cu1A Cu 0.64160(15) 1.13399(15) 0.05709(11)
O2A O -0.1355(7) 0.3449(8) -0.1164(6)
I1A I 0.65117(8) 0.88211(8) -0.08923(6)
O1A O -0.1917(8) 0.531(8) 0.0757(6)
C2A C -0.0493(14) 0.8362(12) 0.1935(11)
N1A N 0.8161(11) 1.1964(11) 0.2118(8)
As1A As 0.71615(10) 1.34539(10) -0.03166(8)
As1A_2 As -0.28385(10) 0.34539(10) -0.03166(8)
N2 N 0.1401(42) 1.0234(32) 0.5486(28)
C10 C 0.2656(71) 1.0140(49) 0.5324(50)
C11 C 0.4081(22) 0.9973(26) 0.5054(18)
C12 C 0.5276(28) 0.9776(24) 0.5926(14)
H12 H 0.5110(38) 0.9749(34) 0.6682(16)
C13 C 0.3282(24) 1.0381(25) 0.4332(17)
H13 H 0.2482(31) 1.0513(34) 0.3748(23)
C14 C 0.3034(23) 1.0340(28) 0.5462(21)
H14 H 0.2069(28) 1.0445(40) 0.5634(29)
C15 C 0.4229(29) 1.0143(26) 0.6334(15)
H15 H 0.4063(40) 1.0116(35) 0.7090(18)
C16 C 0.4328(25) 1.0014(24) 0.3924(16)
H16 H 0.6471(31) 0.9854(33) 0.6660(21)
C11A C 0.5919(22) 1.0027(26) 0.4946(18)
C12A C 0.4724(28) 1.0224(24) 0.4074(14)
C16A C 0.5672(25) 0.9986(24) 0.6076(16)
C13A C 0.6718(24) 0.9619(25) 0.5668(17)
H16A H 0.3529(31) 1.0146(33) 0.3340(21)
H12A H 0.4890(38) 1.0251(34) 0.3318(16)
C15A C 0.5771(29) 0.9857(26) 0.3666(15)
C10A C 0.7344(71) 0.9860(49) 0.4676(50)
C14A C 0.6966(23) 0.9660(28) 0.4538(21)
H13A H 0.7518(31) 0.9487(34) 0.6252(23)
H15A H 0.5937(40) 0.9884(35) 0.2910(18)
loop_
_geom_bond_atom_site_label_1
_geom_bond_atom_site_label_2
_geom_bond_site_symmetry_1
_geom_bond_site_symmetry_2
O1 As1 1_555 1_555
O2 As1 1_555 1_555
C1 H1 1_555 1_555
H2 C1 1_555 1_555
H3 C1 1_555 1_555
C2 H4 1_555 1_555
H5 C2 1_555 1_555
H6 C2 1_555 1_555
N1 C3 1_555 1_555
C3 C4 1_555 1_555
C4 C5 1_555 1_555
C5 H7 1_555 1_555
C6 C5 1_555 1_555
H8 C6 1_555 1_555
C7 C6 1_555 1_555
H9 C7 1_555 1_555
C8 C7 1_555 1_555
H10 C8 1_555 1_555
C9 C4 1_555 1_555
H11 C9 1_555 1_555
I1 Cu1 1_555 1_555
As1 C1 1_555 1_555
As2 O1 1_555 1_555
Cu1 N1 1_555 1_555
N2 C10 1_555 1_555
C10 C11 1_555 1_555
C11 C12 1_555 1_555
C12 H12 1_555 1_555
H12 C15 1_555 1_555
C13 C10 1_555 1_555
H13 C13 1_555 1_555
C14 N2 1_555 1_555
H14 N2 1_555 1_555
C15 C10 1_555 1_555
H15 C15 1_555 1_555
C16 C11 1_555 1_555
H16 C12 1_555 1_555
As2A O2 1_555 1_555
Cu1A I1 1_555 1_555
O2A As2 1_555 1_555
I1A Cu1 1_555 1_555
C11A C11 1_555 1_555
C12A C11 1_555 1_555
C16A C11 1_555 1_555
C13A C12 1_555 1_555
H16A C13 1_555 1_555
H12A C16 1_555 1_555
C15A C16 1_555 1_555
O1A As2A 1_555 1_555
C2A As2A 1_555 1_555
N1A Cu1A 1_555 1_555
As1A Cu1A 1_555 1_555
As1A_2 O2A 1_555 1_555
C10A C11A 1_555 1_555
C14A C11A 1_555 1_555
H13A C13A 1_555 1_555
H15A C15A 1_555 1_555
C2 As2 1_555 1_555
C8 C9 1_555 1_555
As1 Cu1 1_555 1_555
C10 C14 1_555 1_555
C10 H14 1_555 1_555
C11 C13 1_555 1_555
C11 C14 1_555 1_555
C11 C15 1_555 1_555
C12 C11A 1_555 1_555
C12 C15 1_555 1_555
C12 C16A 1_555 1_555
H12 C16A 1_555 1_555
C13 C14 1_555 1_555
C13 C16 1_555 1_555
C13 C12A 1_555 1_555
C14 H14 1_555 1_555
C14 C15 1_555 1_555
C15 C16A 1_555 1_555
C16 H16A 1_555 1_555
C16 C11A 1_555 1_555
C16 C12A 1_555 1_555
H16 C13A 1_555 1_555
H16 C16A 1_555 1_555
Cu1A I1A 1_555 1_555
C11A C12A 1_555 1_555
C11A C13A 1_555 1_555
C11A C15A 1_555 1_555
C11A C16A 1_555 1_555
C12A H12A 1_555 1_555
C12A C15A 1_555 1_555
C12A H16A 1_555 1_555
C16A C13A 1_555 1_555
C13A C10A 1_555 1_555
C13A C14A 1_555 1_555
H12A C15A 1_555 1_555
C15A C10A 1_555 1_555
C15A C14A 1_555 1_555
O1A As1A_2 1_555 1_555
C10A C14A 1_555 1_555

#END
