
#######################################################################
#
#                 Cambridge Crystallographic Data Centre
#                                CCDC 
#
#######################################################################
#
# If this CIF has been generated from an entry in the Cambridge 
# Structural Database, then it will include bibliographic, chemical, 
# crystal, experimental, refinement or atomic coordinate data resulting 
# from the CCDC's data processing and validation procedures.
#
#######################################################################

data_SADFAG
_symmetry_cell_setting           monoclinic
_symmetry_space_group_name_H-M   'P 21/c'
_symmetry_Int_Tables_number      14
_space_group_name_Hall           '-P 2ybc'
loop_
_symmetry_equiv_pos_site_id
_symmetry_equiv_pos_as_xyz
1 x,y,z
2 -x,1/2+y,1/2-z
3 -x,-y,-z
4 x,1/2-y,1/2+z
_cell_length_a                   7.37220(10)
_cell_length_b                   19.9639(3)
_cell_length_c                   30.2756(5)
_cell_angle_alpha                90
_cell_angle_beta                 94.7510(7)
_cell_angle_gamma                90
_cell_volume                     4440.59
loop_
_atom_site_label
_atom_site_type_symbol
_atom_site_fract_x
_atom_site_fract_y
_atom_site_fract_z
Zn1 Zn 0.74363(5) -0.00823(2) 0.487196(13)
C1 C 0.6065(5) 0.17259(17) 0.54436(11)
C2 C 0.7765(5) 0.20281(18) 0.54192(12)
C3 C 0.8179(5) 0.26275(19) 0.56372(13)
H1 H 0.9344 0.2824 0.5619
C4 C 0.6929(6) 0.2940(2) 0.58787(14)
H2 H 0.7229 0.3349 0.6027
C5 C 0.5224(6) 0.2655(2) 0.59053(14)
H3 H 0.4345 0.2870 0.6068
C6 C 0.4821(5) 0.2057(2) 0.56933(13)
H4 H 0.3658 0.1861 0.5717
C7 C 0.5492(5) 0.10646(18) 0.52405(11)
O1 O 0.6432(4) 0.07971(12) 0.49637(8)
O2 O 0.4033(3) 0.08274(12) 0.53610(8)
Br1 Br 0.96628(5) 0.16748(2) 0.509669(14)
C8 C 1.0393(4) 0.05601(18) 0.38180(11)
C9 C 1.1956(5) 0.05387(18) 0.35913(12)
C10 C 1.1977(6) 0.0806(2) 0.31704(13)
H5 H 1.3045 0.0778 0.3016
C11 C 1.0429(6) 0.1116(2) 0.29750(13)
H6 H 1.0444 0.1309 0.2689
C12 C 0.8868(6) 0.1143(2) 0.31959(14)
H7 H 0.7810 0.1357 0.3062
C13 C 0.8844(5) 0.08608(19) 0.36080(13)
H8 H 0.7751 0.0870 0.3754
C14 C 1.0270(5) 0.03146(17) 0.42813(11)
O3 O 1.1611(3) 0.04215(13) 0.45564(8)
O4 O 0.8798(3) 0.00434(12) 0.43612(8)
Br2 Br 1.41084(5) 0.01044(2) 0.383181(14)
Zn1B Zn 0.25637(5) 0.00823(2) 0.512804(13)
Zn1B_2 Zn 1.25637(5) 0.00823(2) 0.512804(13)
C1B C 0.3935(5) -0.17259(17) 0.45564(11)
C2B C 0.2235(5) -0.20281(18) 0.45808(12)
C3B C 0.1821(5) -0.26275(19) 0.43628(13)
H1B H 0.0656 -0.2824 0.4381
C4B C 0.3071(6) -0.2940(2) 0.41213(14)
H2B H 0.2771 -0.3349 0.3973
C5B C 0.4776(6) -0.2655(2) 0.40947(14)
H3B H 0.5655 -0.2870 0.3932
C6B C 0.5179(5) -0.2057(2) 0.43067(13)
H4B H 0.6342 -0.1861 0.4283
C7B C 0.4508(5) -0.10646(18) 0.47595(11)
O1B O 0.3568(4) -0.07971(12) 0.50363(8)
O2B O 0.5967(3) -0.08274(12) 0.46390(8)
Br1B Br 0.03372(5) -0.16748(2) 0.490331(14)
C8B C 0.9607(4) -0.05601(18) 0.61820(11)
C9B C 0.8044(5) -0.05387(18) 0.64087(12)
C10B C 0.8023(6) -0.0806(2) 0.68296(13)
H5B H 0.6955 -0.0778 0.6984
C11B C 0.9571(6) -0.1116(2) 0.70250(13)
H6B H 0.9556 -0.1309 0.7311
C12B C 1.1132(6) -0.1143(2) 0.68041(14)
H7B H 1.2190 -0.1357 0.6938
C13B C 1.1156(5) -0.08608(19) 0.63920(13)
H8B H 1.2249 -0.0870 0.6246
C14B C 0.9730(5) -0.03146(17) 0.57187(11)
O3B O 0.8389(3) -0.04215(13) 0.54436(8)
O3_2 O 0.1611(3) 0.04215(13) 0.45564(8)
O4B O 0.1202(3) -0.00434(12) 0.56388(8)
O4B_2 O 1.1202(3) -0.00434(12) 0.56388(8)
Br2B Br 0.58916(5) -0.01044(2) 0.616819(14)
Zn2 Zn 0.72843(5) 0.47187(2) 0.331517(13)
Zn3 Zn 1.22378(5) 0.51108(2) 0.339450(13)
C15 C 1.0184(4) 0.42675(17) 0.22115(11)
C16 C 1.1857(5) 0.43216(18) 0.20296(11)
C17 C 1.2099(5) 0.40478(19) 0.16181(12)
H9 H 1.3246 0.4084 0.1498
C18 C 1.0679(5) 0.3722(2) 0.13813(13)
H10 H 1.0845 0.3543 0.1097
C19 C 0.9022(5) 0.36553(19) 0.15573(12)
H11 H 0.8052 0.3424 0.1397
C20 C 0.8787(5) 0.39262(18) 0.19654(12)
H12 H 0.7640 0.3880 0.2084
C21 C 0.9770(5) 0.45420(17) 0.26561(11)
O5 O 1.0784(3) 0.49830(12) 0.28417(8)
O6 O 0.8345(3) 0.43209(12) 0.28083(8)
Br3 Br 1.39583(5) 0.47280(2) 0.232543(13)
C22 C 0.9364(4) 0.55879(17) 0.45030(11)
C23 C 0.7657(5) 0.5643(2) 0.46685(12)
C24 C 0.7461(6) 0.5927(2) 0.50773(14)
H13 H 0.6282 0.5975 0.5178
C25 C 0.8969(6) 0.6142(2) 0.53403(14)
H14 H 0.8834 0.6327 0.5625
C26 C 1.0658(6) 0.6086(2) 0.51876(13)
H15 H 1.1698 0.6236 0.5367
C27 C 1.0865(5) 0.58148(19) 0.47758(12)
H16 H 1.2049 0.5781 0.4675
C28 C 0.9726(5) 0.52960(18) 0.40632(11)
O7 O 0.8624(3) 0.48806(12) 0.38809(8)
O8 O 1.1175(3) 0.54863(12) 0.39062(8)
Br4 Br 0.54806(5) 0.53482(3) 0.435165(16)
C29 C 0.5436(4) 0.66786(17) 0.29225(11)
C30 C 0.7094(5) 0.70155(18) 0.29316(11)
C31 C 0.7260(6) 0.76131(19) 0.27073(13)
H17 H 0.8403 0.7835 0.2714
C32 C 0.5749(6) 0.7884(2) 0.24731(13)
H18 H 0.5860 0.8286 0.2309
C33 C 0.4066(6) 0.7571(2) 0.24763(13)
H19 H 0.3021 0.7766 0.2322
C34 C 0.3917(5) 0.69822(19) 0.27026(12)
H20 H 0.2757 0.6777 0.2710
C35 C 0.5184(5) 0.59945(17) 0.31162(11)
O9 O 0.6439(3) 0.55731(12) 0.30804(8)
O10 O 0.3703(3) 0.58859(12) 0.32756(8)
Br5 Br 0.91964(5) 0.67114(2) 0.328156(14)
C36 C 0.4068(5) 0.31430(17) 0.37780(11)
C37 C 0.2422(5) 0.27997(17) 0.37561(11)
C38 C 0.2258(5) 0.21847(19) 0.39638(12)
H21 H 0.1124 0.1956 0.3946
C39 C 0.3757(6) 0.1913(2) 0.41945(13)
H22 H 0.3645 0.1497 0.4343
C40 C 0.5424(6) 0.2229(2) 0.42159(13)
H23 H 0.6455 0.2030 0.4374
C41 C 0.5576(5) 0.28373(18) 0.40051(12)
H24 H 0.6728 0.3052 0.4015
C42 C 0.4323(5) 0.38302(17) 0.35946(11)
O11 O 0.3048(3) 0.42452(12) 0.36174(9)
O12 O 0.5825(3) 0.39473(12) 0.34464(8)
Br6 Br 0.03013(5) 0.31237(2) 0.342060(14)
Zn3_2 Zn 0.22378(5) 0.51108(2) 0.339450(13)
O10_2 O 1.3703(3) 0.58859(12) 0.32756(8)
O11_2 O 1.3048(3) 0.42452(12) 0.36174(9)
loop_
_geom_bond_atom_site_label_1
_geom_bond_atom_site_label_2
_geom_bond_site_symmetry_1
_geom_bond_site_symmetry_2
Zn1 O1 1_555 1_555
Zn2 O6 1_555 1_555
Zn3 O5 1_555 1_555
C1 C2 1_555 1_555
C2 C3 1_555 1_555
C3 H1 1_555 1_555
C4 C3 1_555 1_555
H2 C4 1_555 1_555
C5 C4 1_555 1_555
H3 C5 1_555 1_555
C6 C1 1_555 1_555
H4 C6 1_555 1_555
C7 C1 1_555 1_555
O1 C7 1_555 1_555
O2 C7 1_555 1_555
Br1 C2 1_555 1_555
C8 C9 1_555 1_555
C9 C10 1_555 1_555
C10 H5 1_555 1_555
C11 C10 1_555 1_555
H6 C11 1_555 1_555
C12 C11 1_555 1_555
H7 C12 1_555 1_555
C13 C8 1_555 1_555
H8 C13 1_555 1_555
C14 C8 1_555 1_555
O3 C14 1_555 1_555
O4 Zn1 1_555 1_555
Br2 C9 1_555 1_555
C15 C16 1_555 1_555
C16 C17 1_555 1_555
C17 H9 1_555 1_555
C18 C17 1_555 1_555
H10 C18 1_555 1_555
C19 C18 1_555 1_555
H11 C19 1_555 1_555
C20 C15 1_555 1_555
H12 C20 1_555 1_555
C21 C15 1_555 1_555
O5 C21 1_555 1_555
O6 C21 1_555 1_555
Br3 C16 1_555 1_555
C22 C23 1_555 1_555
C23 C24 1_555 1_555
C24 H13 1_555 1_555
C25 C24 1_555 1_555
H14 C25 1_555 1_555
C26 C25 1_555 1_555
H15 C26 1_555 1_555
C27 C22 1_555 1_555
H16 C27 1_555 1_555
C28 C22 1_555 1_555
O7 Zn2 1_555 1_555
O8 Zn3 1_555 1_555
Br4 C23 1_555 1_555
C29 C30 1_555 1_555
C30 C31 1_555 1_555
C31 H17 1_555 1_555
C32 C31 1_555 1_555
H18 C32 1_555 1_555
C33 C32 1_555 1_555
H19 C33 1_555 1_555
C34 C29 1_555 1_555
H20 C34 1_555 1_555
C35 C29 1_555 1_555
O9 Zn2 1_555 1_555
O10 C35 1_555 1_555
Br5 C30 1_555 1_555
C36 C37 1_555 1_555
C37 C38 1_555 1_555
C38 H21 1_555 1_555
C39 C38 1_555 1_555
H22 C39 1_555 1_555
C40 C39 1_555 1_555
H23 C40 1_555 1_555
C41 C36 1_555 1_555
H24 C41 1_555 1_555
C42 C36 1_555 1_555
O11 C42 1_555 1_555
O12 Zn2 1_555 1_555
Br6 C37 1_555 1_555
Zn1B O2 1_555 1_555
Zn1B_2 O3 1_555 1_555
Zn3_2 O10 1_555 1_555
C1B C2B 1_555 1_555
C2B C3B 1_555 1_555
C3B H1B 1_555 1_555
C4B C3B 1_555 1_555
H2B C4B 1_555 1_555
C5B C4B 1_555 1_555
H3B C5B 1_555 1_555
C6B C1B 1_555 1_555
H4B C6B 1_555 1_555
C7B C1B 1_555 1_555
O1B Zn1B 1_555 1_555
O2B Zn1 1_555 1_555
Br1B C2B 1_555 1_555
C8B C9B 1_555 1_555
C9B C10B 1_555 1_555
C10B H5B 1_555 1_555
C11B C10B 1_555 1_555
H6B C11B 1_555 1_555
C12B C11B 1_555 1_555
H7B C12B 1_555 1_555
C13B C8B 1_555 1_555
H8B C13B 1_555 1_555
C14B C8B 1_555 1_555
O3B Zn1 1_555 1_555
O3_2 Zn1B 1_555 1_555
O4B Zn1B 1_555 1_555
O4B_2 Zn1B_2 1_555 1_555
Br2B C9B 1_555 1_555
O10_2 Zn3 1_555 1_555
O11_2 Zn3 1_555 1_555
C5 C6 1_555 1_555
C12 C13 1_555 1_555
C14 O4 1_555 1_555
C19 C20 1_555 1_555
C26 C27 1_555 1_555
C28 O7 1_555 1_555
C28 O8 1_555 1_555
C33 C34 1_555 1_555
C35 O9 1_555 1_555
C40 C41 1_555 1_555
C42 O12 1_555 1_555
O11 Zn3_2 1_555 1_555
C5B C6B 1_555 1_555
C7B O1B 1_555 1_555
C7B O2B 1_555 1_555
C12B C13B 1_555 1_555
C14B O3B 1_555 1_555
C14B O4B_2 1_555 1_555

#END
