
#######################################################################
#
#                 Cambridge Crystallographic Data Centre
#                                CCDC 
#
#######################################################################
#
# If this CIF has been generated from an entry in the Cambridge 
# Structural Database, then it will include bibliographic, chemical, 
# crystal, experimental, refinement or atomic coordinate data resulting 
# from the CCDC's data processing and validation procedures.
#
#######################################################################

data_SADLIT
_symmetry_cell_setting           cubic
_symmetry_space_group_name_H-M   'I a -3 d'
_symmetry_Int_Tables_number      230
_space_group_name_Hall           '-I 4bd 2c 3'
loop_
_symmetry_equiv_pos_site_id
_symmetry_equiv_pos_as_xyz
1 x,y,z
2 z,x,y
3 y,z,x
4 3/4+y,1/4+x,1/4-z
5 1/4+y,1/4-x,3/4+z
6 1/4-y,3/4+x,1/4+z
7 3/4+x,1/4+z,1/4-y
8 1/4-x,3/4+z,1/4+y
9 1/4+x,1/4-z,3/4+y
10 3/4+z,1/4+y,1/4-x
11 1/4+z,1/4-y,3/4+x
12 1/4-z,3/4+y,1/4+x
13 1/2+x,1/2+y,1/2+z
14 1/2+z,1/2+x,1/2+y
15 1/2+y,1/2+z,1/2+x
16 1/4+y,3/4+x,3/4-z
17 1/4-y,1/4-x,1/4-z
18 3/4+y,3/4-x,1/4+z
19 3/4-y,1/4+x,3/4+z
20 1/4+x,3/4+z,3/4-y
21 3/4-x,1/4+z,3/4+y
22 1/4-x,1/4-z,1/4-y
23 3/4+x,3/4-z,1/4+y
24 1/4+z,3/4+y,3/4-x
25 3/4+z,3/4-y,1/4+x
26 3/4-z,1/4+y,3/4+x
27 1/4-z,1/4-y,1/4-x
28 1/2+x,y,1/2-z
29 x,1/2-y,1/2+z
30 1/2-x,1/2+y,z
31 1/2-z,1/2+x,y
32 1/2+z,x,1/2-y
33 z,1/2-x,1/2+y
34 y,1/2-z,1/2+x
35 1/2-y,1/2+z,x
36 1/2+y,z,1/2-x
37 1/4+y,1/4+x,1/4+z
38 1/4+x,1/4+z,1/4+y
39 1/4+z,1/4+y,1/4+x
40 x,1/2+y,-z
41 1/2+x,-y,z
42 -x,y,1/2+z
43 -z,x,1/2+y
44 z,1/2+x,-y
45 1/2+z,-x,y
46 1/2+y,-z,x
47 -y,z,1/2+x
48 y,1/2+z,-x
49 -x,-y,-z
50 -z,-x,-y
51 -y,-z,-x
52 1/4-y,3/4-x,3/4+z
53 3/4-y,3/4+x,1/4-z
54 3/4+y,1/4-x,3/4-z
55 1/4-x,3/4-z,3/4+y
56 3/4+x,1/4-z,3/4-y
57 3/4-x,3/4+z,1/4-y
58 1/4-z,3/4-y,3/4+x
59 3/4-z,3/4+y,1/4-x
60 3/4+z,1/4-y,3/4-x
61 1/2-x,1/2-y,1/2-z
62 1/2-z,1/2-x,1/2-y
63 1/2-y,1/2-z,1/2-x
64 3/4-y,1/4-x,1/4+z
65 3/4+y,3/4+x,3/4+z
66 1/4-y,1/4+x,3/4-z
67 1/4+y,3/4-x,1/4-z
68 3/4-x,1/4-z,1/4+y
69 1/4+x,3/4-z,1/4-y
70 3/4+x,3/4+z,3/4+y
71 1/4-x,1/4+z,3/4-y
72 3/4-z,1/4-y,1/4+x
73 1/4-z,1/4+y,3/4-x
74 1/4+z,3/4-y,1/4-x
75 3/4+z,3/4+y,3/4+x
76 1/2-x,-y,1/2+z
77 -x,1/2+y,1/2-z
78 1/2+x,1/2-y,-z
79 1/2+z,1/2-x,-y
80 1/2-z,-x,1/2+y
81 -z,1/2+x,1/2-y
82 -y,1/2+z,1/2-x
83 1/2+y,1/2-z,-x
84 1/2-y,-z,1/2+x
85 3/4-y,3/4-x,3/4-z
86 3/4-x,3/4-z,3/4-y
87 3/4-z,3/4-y,3/4-x
88 -x,1/2-y,z
89 1/2-x,y,-z
90 x,-y,1/2-z
91 z,-x,1/2-y
92 -z,1/2-x,y
93 1/2-z,x,-y
94 1/2-y,z,-x
95 y,-z,1/2-x
96 -y,1/2-z,x
_cell_length_a                   28.019(3)
_cell_length_b                   28.019(3)
_cell_length_c                   28.019(3)
_cell_angle_alpha                90
_cell_angle_beta                 90
_cell_angle_gamma                90
_cell_volume                     21996.7
loop_
_atom_site_label
_atom_site_type_symbol
_atom_site_fract_x
_atom_site_fract_y
_atom_site_fract_z
N4 N 0.1813(7) -0.1770(7) 0.3803(7)
C13 C 0.1979(7) -0.1388(7) 0.3577(7)
C14 C 0.2430(4) -0.1163(3) 0.3759(5)
C15 C 0.2572(3) -0.0724(3) 0.3577(3)
C16 C 0.2990(3) -0.0511(4) 0.3740(4)
N5 N 0.3265(4) -0.0738(5) 0.4084(5)
C17 C 0.3124(5) -0.1177(5) 0.4266(5)
C18 C 0.2706(5) -0.1390(4) 0.4103(5)
C13AC C 0.1423(7) -0.1979(7) 0.3612(7)
N4CC N 0.1770(7) -0.1197(7) 0.3187(7)
C17HC C 0.3234(5) -0.1323(5) 0.4376(5)
C18HC C 0.3397(5) -0.1110(4) 0.4794(5)
N4AC N 0.1197(7) -0.1813(7) 0.3230(7)
C14AC C 0.1241(5) -0.2430(4) 0.3837(3)
C13CC C 0.1388(7) -0.1423(7) 0.3021(7)
N5HC N 0.3416(5) -0.1762(5) 0.4235(4)
C14HC C 0.3741(5) -0.1337(3) 0.5070(4)
C15AC C 0.1423(3) -0.2572(3) 0.4276(3)
C18AC C 0.0897(5) -0.2706(5) 0.3610(4)
C14CC C 0.1163(3) -0.1241(5) 0.2570(4)
C16HC C 0.3760(4) -0.1989(4) 0.4510(3)
C13HC C 0.3923(7) -0.1112(7) 0.5521(7)
C15HC C 0.3923(3) -0.1776(3) 0.4928(3)
C16AC C 0.1260(4) -0.2990(3) 0.4489(4)
C17F C 0.0624(5) -0.3234(5) 0.3677(5)
C17AC C 0.0734(5) -0.3124(5) 0.3823(5)
C15CC C 0.0724(3) -0.1423(3) 0.2428(3)
C18CC C 0.1390(4) -0.0897(5) 0.2294(5)
N4H N 0.4313(7) -0.1303(7) 0.5730(7)
N4HC N 0.3697(7) -0.0730(7) 0.5687(7)
N5AC N 0.0916(5) -0.3265(4) 0.4262(5)
N5F N 0.0765(4) -0.3416(5) 0.3238(5)
C18F C 0.0206(5) -0.3397(5) 0.3890(4)
C16CC C 0.0511(4) -0.1260(4) 0.2010(3)
C17D C 0.1323(5) -0.0624(5) 0.1766(5)
C17CC C 0.1177(5) -0.0734(5) 0.1876(5)
C13H C 0.4479(7) -0.1077(7) 0.6112(7)
C13E C 0.3888(7) -0.0521(7) 0.6077(7)
C16F C 0.0490(3) -0.3760(4) 0.3011(4)
C14F C -0.0070(4) -0.3741(5) 0.3663(3)
N5CC N 0.0738(5) -0.0916(5) 0.1735(4)
N5D N 0.1762(5) -0.0765(4) 0.1584(5)
C18D C 0.1110(4) -0.0206(5) 0.1603(5)
N4E N 0.4270(7) -0.0687(7) 0.6303(7)
C14H C 0.4930(4) -0.1259(5) 0.6337(3)
C14E C 0.3663(3) -0.0070(4) 0.6259(5)
C15F C 0.0072(3) -0.3923(3) 0.3224(3)
C13F C -0.0521(7) -0.3923(7) 0.3888(7)
C16D C 0.1989(4) -0.0490(3) 0.1240(4)
C14D C 0.1337(3) 0.0070(4) 0.1259(5)
C15H C 0.5072(3) -0.1077(3) 0.6776(3)
C18H C 0.5206(5) -0.1603(5) 0.6110(4)
C15E C 0.3224(3) 0.0072(3) 0.6077(3)
C18E C 0.3890(4) 0.0206(5) 0.6603(5)
N4F N -0.0687(7) -0.3697(7) 0.4270(7)
N4FC N -0.0730(7) -0.4313(7) 0.3697(7)
C15D C 0.1776(3) -0.0072(3) 0.1077(3)
C13D C 0.1112(7) 0.0521(7) 0.1077(7)
C16H C 0.5490(3) -0.1240(4) 0.6989(4)
C17H C 0.5624(5) -0.1766(5) 0.6323(5)
C17BC C 0.5734(5) -0.1876(5) 0.6177(5)
C16E C 0.3011(4) 0.0490(3) 0.6240(4)
C17E C 0.3677(5) 0.0624(5) 0.6766(5)
C17DC C 0.3823(5) 0.0734(5) 0.6876(5)
B1 B 0.2484(4) -0.0016(3) 0.3750(4)
F1 F 0.2240(4) -0.0059(4) 0.3308(4)
F2 F 0.2452(6) 0.0465(3) 0.3752(6)
F1O F 0.2441(4) -0.0260(4) 0.4192(4)
F2O F 0.2965(3) -0.0048(6) 0.3748(6)
O1 O 0.1501(4) -0.1249(7) 0.4001(10)
Cu1 Cu 0.3750 0.0000 0.2500
N1 N 0.33411(16) 0.05892(16) 0.24202(15)
N2 N 0.2033(5) 0.1804(5) 0.2485(6)
C1 C 0.2905(5) 0.0601(5) 0.2645(5)
H1 H 0.2814 0.0345 0.2842
C2 C 0.2598(7) 0.0982(7) 0.2587(7)
H2 H 0.2322 0.1004 0.2775
C3 C 0.2698(5) 0.1329(5) 0.2254(5)
C4 C 0.3120(6) 0.1272(5) 0.1983(6)
H3 H 0.3203 0.1494 0.1745
C5 C 0.3400(7) 0.0894(7) 0.2071(7)
H4 H 0.3661 0.0843 0.1866
C6 C 0.2385(6) 0.1742(6) 0.2183(6)
C6B C 0.1742(6) 0.2183(6) 0.2385(6)
N2A N 0.2485(6) 0.2033(5) 0.1804(5)
N1DB N 0.41589(16) -0.00798(15) 0.19108(16)
N2DB N 0.5467(5) -0.0015(6) 0.0696(5)
C1DB C 0.4595(5) 0.0145(5) 0.1899(5)
H1DB H 0.4686 0.0342 0.2155
C2DB C 0.4902(7) 0.0087(7) 0.1518(7)
H2DB H 0.5178 0.0275 0.1496
C3DB C 0.4802(5) -0.0246(5) 0.1171(5)
C4DB C 0.4380(6) -0.0517(6) 0.1228(5)
H3DB H 0.4297 -0.0755 0.1006
C5DB C 0.4100(7) -0.0429(7) 0.1606(7)
H4DB H 0.3839 -0.0634 0.1657
C6DB C 0.5115(6) -0.0317(6) 0.0758(6)
C6ZA C 0.5758(6) -0.0115(6) 0.0317(6)
N2FB N 0.5015(6) -0.0696(5) 0.0467(5)
N1OB N 0.41589(16) 0.00798(15) 0.30892(16)
N2OB N 0.5467(5) 0.0015(6) 0.4304(5)
C1OB C 0.4595(5) -0.0145(5) 0.3101(5)
H1OB H 0.4686 -0.0342 0.2845
C2OB C 0.4902(7) -0.0087(7) 0.3482(7)
H2OB H 0.5178 -0.0275 0.3504
C3OB C 0.4802(5) 0.0246(5) 0.3829(5)
C4OB C 0.4380(6) 0.0517(6) 0.3772(5)
H3OB H 0.4297 0.0755 0.3994
C5OB C 0.4100(7) 0.0429(7) 0.3394(7)
H4OB H 0.3839 0.0634 0.3343
C6OB C 0.5115(6) 0.0317(6) 0.4242(6)
C6KB C 0.5758(6) 0.0115(6) 0.4683(6)
N2SB N 0.5015(6) 0.0696(5) 0.4533(5)
N1KC N 0.33411(16) -0.05892(16) 0.25798(15)
N2KC N 0.2033(5) -0.1804(5) 0.2515(6)
C1KC C 0.2905(5) -0.0601(5) 0.2355(5)
H1KC H 0.2814 -0.0345 0.2158
C2KC C 0.2598(7) -0.0982(7) 0.2413(7)
H2KC H 0.2322 -0.1004 0.2225
C3KC C 0.2698(5) -0.1329(5) 0.2746(5)
C4KC C 0.3120(6) -0.1272(5) 0.3017(6)
H3KC H 0.3203 -0.1494 0.3255
C5KC C 0.3400(7) -0.0894(7) 0.2929(7)
H4KC H 0.3661 -0.0843 0.3134
C6KC C 0.2385(6) -0.1742(6) 0.2817(6)
C6PC C 0.1742(6) -0.2183(6) 0.2615(6)
N2LC N 0.2485(6) -0.2033(5) 0.3196(5)
N2B N 0.1804(5) 0.2485(6) 0.2033(5)
C3B C 0.1329(5) 0.2254(5) 0.2698(5)
C6A C 0.2183(6) 0.2385(6) 0.1742(6)
N2ZA N 0.5696(5) -0.0467(5) 0.0015(6)
C3ZA C 0.6171(5) 0.0198(5) 0.0246(5)
C6FB C 0.5317(6) -0.0758(6) 0.0115(6)
N2KB N 0.5696(5) 0.0467(5) 0.4985(6)
C3KB C 0.6171(5) -0.0198(5) 0.4754(5)
C6SB C 0.5317(6) 0.0758(6) 0.4885(6)
N2PC N 0.1804(5) -0.2485(6) 0.2967(5)
C3PC C 0.1329(5) -0.2254(5) 0.2302(5)
C6LC C 0.2183(6) -0.2385(6) 0.3258(6)
C2B C 0.0982(7) 0.2587(7) 0.2598(7)
C4B C 0.1272(5) 0.1983(6) 0.3120(6)
C3A C 0.2254(5) 0.2698(5) 0.1329(5)
C2ZA C 0.6518(7) 0.0098(7) -0.0087(7)
C4ZA C 0.6228(5) 0.0620(6) 0.0517(6)
C3FB C 0.5246(5) -0.1171(5) -0.0198(5)
C2KB C 0.6518(7) -0.0098(7) 0.5087(7)
C4KB C 0.6228(5) -0.0620(6) 0.4483(6)
C3SB C 0.5246(5) 0.1171(5) 0.5198(5)
C2PC C 0.0982(7) -0.2587(7) 0.2402(7)
C4PC C 0.1272(5) -0.1983(6) 0.1880(6)
C3LC C 0.2254(5) -0.2698(5) 0.3671(5)
C1B C 0.0601(5) 0.2645(5) 0.2905(5)
H2B H 0.1004 0.2775 0.2322
H3B H 0.1494 0.1745 0.3203
C5B C 0.0894(7) 0.2071(7) 0.3400(7)
C2A C 0.2587(7) 0.2598(7) 0.0982(7)
C4A C 0.1983(6) 0.3120(6) 0.1272(5)
C1ZA C 0.6899(5) 0.0405(5) -0.0145(5)
H2ZA H 0.6496 -0.0178 -0.0275
H3ZA H 0.6006 0.0703 0.0755
C5ZA C 0.6606(7) 0.0900(7) 0.0429(7)
C2FB C 0.4913(7) -0.1518(7) -0.0098(7)
C4FB C 0.5517(6) -0.1228(5) -0.0620(6)
C1KB C 0.6899(5) -0.0405(5) 0.5145(5)
H2KB H 0.6496 0.0178 0.5275
H3KB H 0.6006 -0.0703 0.4245
C5KB C 0.6606(7) -0.0900(7) 0.4571(7)
C2SB C 0.4913(7) 0.1518(7) 0.5098(7)
C4SB C 0.5517(6) 0.1228(5) 0.5620(6)
C1PC C 0.0601(5) -0.2645(5) 0.2095(5)
H2PC H 0.1004 -0.2775 0.2678
H3PC H 0.1494 -0.1745 0.1797
C5PC C 0.0894(7) -0.2071(7) 0.1600(7)
C2LC C 0.2587(7) -0.2598(7) 0.4018(7)
C4LC C 0.1983(6) -0.3120(6) 0.3728(5)
N1B N 0.05892(16) 0.24202(15) 0.33411(16)
H1B H 0.0345 0.2842 0.2814
H4B H 0.0843 0.1866 0.3661
C1A C 0.2645(5) 0.2905(5) 0.0601(5)
H2A H 0.2775 0.2322 0.1004
H3A H 0.1745 0.3203 0.1494
C5A C 0.2071(7) 0.3400(7) 0.0894(7)
N1ZA N 0.69108(16) 0.08411(16) 0.00798(15)
H1ZA H 0.7155 0.0314 -0.0342
H4ZA H 0.6657 0.1161 0.0634
C1FB C 0.4855(5) -0.1899(5) -0.0405(5)
H2FB H 0.4725 -0.1496 0.0178
H3FB H 0.5755 -0.1006 -0.0703
C5FB C 0.5429(7) -0.1606(7) -0.0900(7)
N1KB N 0.69108(16) -0.08411(16) 0.49202(15)
H1KB H 0.7155 -0.0314 0.5342
H4KB H 0.6657 -0.1161 0.4366
C1SB C 0.4855(5) 0.1899(5) 0.5405(5)
H2SB H 0.4725 0.1496 0.4822
H3SB H 0.5755 0.1006 0.5703
C5SB C 0.5429(7) 0.1606(7) 0.5900(7)
N1PC N 0.05892(16) -0.24202(15) 0.16589(16)
H1PC H 0.0345 -0.2842 0.2186
H4PC H 0.0843 -0.1866 0.1339
C1LC C 0.2645(5) -0.2905(5) 0.4399(5)
H2LC H 0.2775 -0.2322 0.3996
H3LC H 0.1745 -0.3203 0.3506
C5LC C 0.2071(7) -0.3400(7) 0.4106(7)
Cu1B Cu 0.0000 0.2500 0.3750
N1A N 0.24202(15) 0.33411(16) 0.05892(16)
H1A H 0.2842 0.2814 0.0345
H4A H 0.1866 0.3661 0.0843
Cu1ZA Cu 0.7500 0.1250 0.0000
N1FB N 0.50798(15) -0.19108(16) -0.08411(16)
H1FB H 0.4658 -0.2155 -0.0314
H4FB H 0.5634 -0.1657 -0.1161
Cu1M Cu 0.7500 -0.1250 0.5000
N1SB N 0.50798(15) 0.19108(16) 0.58411(16)
H1SB H 0.4658 0.2155 0.5314
H4SB H 0.5634 0.1657 0.6161
Cu1EB Cu 0.0000 -0.2500 0.1250
N1LC N 0.24202(15) -0.33411(16) 0.44108(16)
H1LC H 0.2842 -0.2814 0.4655
H4LC H 0.1866 -0.3661 0.4157
N1GB N -0.00798(15) 0.19108(16) 0.41589(16)
N1TB N 0.00798(15) 0.30892(16) 0.41589(16)
N1QC N -0.05892(16) 0.25798(15) 0.33411(16)
Cu1A Cu 0.2500 0.3750 0.0000
Cu1N Cu 0.5000 -0.2500 -0.1250
N1M N 0.74202(15) -0.16589(16) 0.55892(16)
N1AB N 0.80892(16) -0.08411(16) 0.50798(15)
N1BC N 0.75798(15) -0.16589(16) 0.44108(16)
Cu1LA Cu 0.5000 0.2500 0.6250
Cu1JA Cu 0.2500 -0.3750 0.5000
N3? N 0.2207(10) 0.1971(9) 0.2643(9)
C7? C 0.3000(7) 0.0715(7) 0.2730(7)
H5? H 0.2947 0.0512 0.2992
C8? C 0.2720(9) 0.1115(9) 0.2697(9)
H6? H 0.2445 0.1144 0.2887
C9? C 0.2845(8) 0.1472(9) 0.2387(8)
C10? C 0.3260(10) 0.1421(9) 0.2129(10)
H7? H 0.3367 0.1663 0.1922
C11? C 0.3517(10) 0.0996(12) 0.2184(11)
H8? H 0.3826 0.0982 0.2056
C12? C 0.2560(9) 0.1903(10) 0.2353(11)
O2? O 0.2443(4) -0.0315(3) 0.3406(3)
O3? O 0.2781(6) 0.0281(3) 0.3750(6)
loop_
_geom_bond_atom_site_label_1
_geom_bond_atom_site_label_2
_geom_bond_site_symmetry_1
_geom_bond_site_symmetry_2
Cu1 N1 1_555 1_555
N1 C1 1_555 1_555
N2 C6 1_555 1_555
C1 H1 1_555 1_555
C2 C1 1_555 1_555
H2 C2 1_555 1_555
C3 C2 1_555 1_555
C4 C3 1_555 1_555
H3 C4 1_555 1_555
C5 N1 1_555 1_555
H4 C5 1_555 1_555
C6 C3 1_555 1_555
N4 C13 1_555 1_555
C13 C14 1_555 1_555
C14 C15 1_555 1_555
C15 C16 1_555 1_555
C16 N5 1_555 1_555
N5 C17 1_555 1_555
C17 C18 1_555 1_555
C18 C14 1_555 1_555
B1 F1 1_555 1_555
F2 B1 1_555 1_555
C6B N2 1_555 1_555
N2A C6 1_555 1_555
C13AC N4 1_555 1_555
N4CC C13 1_555 1_555
C17HC C17 1_555 1_555
C18HC C17 1_555 1_555
F1O B1 1_555 1_555
F2O B1 1_555 1_555
N1DB Cu1 1_555 1_555
N2DB C6DB 1_555 1_555
C1DB N1DB 1_555 1_555
H1DB C1DB 1_555 1_555
C2DB C1DB 1_555 1_555
H2DB C2DB 1_555 1_555
C3DB C2DB 1_555 1_555
C4DB C3DB 1_555 1_555
H3DB C4DB 1_555 1_555
C5DB N1DB 1_555 1_555
H4DB C5DB 1_555 1_555
C6DB C3DB 1_555 1_555
C6ZA N2DB 1_555 1_555
N2FB C6DB 1_555 1_555
N1OB Cu1 1_555 1_555
N2OB C6OB 1_555 1_555
C1OB N1OB 1_555 1_555
H1OB C1OB 1_555 1_555
C2OB C1OB 1_555 1_555
H2OB C2OB 1_555 1_555
C3OB C2OB 1_555 1_555
C4OB C3OB 1_555 1_555
H3OB C4OB 1_555 1_555
C5OB N1OB 1_555 1_555
H4OB C5OB 1_555 1_555
C6OB C3OB 1_555 1_555
C6KB N2OB 1_555 1_555
N2SB C6OB 1_555 1_555
N1KC Cu1 1_555 1_555
N2KC C6KC 1_555 1_555
C1KC N1KC 1_555 1_555
H1KC C1KC 1_555 1_555
C2KC C1KC 1_555 1_555
H2KC C2KC 1_555 1_555
C3KC C2KC 1_555 1_555
C4KC C3KC 1_555 1_555
H3KC C4KC 1_555 1_555
C5KC N1KC 1_555 1_555
H4KC C5KC 1_555 1_555
C6KC C3KC 1_555 1_555
C6PC N2KC 1_555 1_555
N2LC C6KC 1_555 1_555
N2B C6B 1_555 1_555
C3B C6B 1_555 1_555
C6A N2A 1_555 1_555
N4AC C13AC 1_555 1_555
C14AC C13AC 1_555 1_555
C13CC N4CC 1_555 1_555
N5HC C17HC 1_555 1_555
C14HC C18HC 1_555 1_555
N2ZA C6ZA 1_555 1_555
C3ZA C6ZA 1_555 1_555
C6FB N2FB 1_555 1_555
N2KB C6KB 1_555 1_555
C3KB C6KB 1_555 1_555
C6SB N2SB 1_555 1_555
N2PC C6PC 1_555 1_555
C3PC C6PC 1_555 1_555
C6LC N2LC 1_555 1_555
C2B C3B 1_555 1_555
C4B C3B 1_555 1_555
C3A C6A 1_555 1_555
C15AC C14AC 1_555 1_555
C18AC C14AC 1_555 1_555
C14CC C13CC 1_555 1_555
C16HC N5HC 1_555 1_555
C13HC C14HC 1_555 1_555
C15HC C14HC 1_555 1_555
C2ZA C3ZA 1_555 1_555
C4ZA C3ZA 1_555 1_555
C3FB C6FB 1_555 1_555
C2KB C3KB 1_555 1_555
C4KB C3KB 1_555 1_555
C3SB C6SB 1_555 1_555
C2PC C3PC 1_555 1_555
C4PC C3PC 1_555 1_555
C3LC C6LC 1_555 1_555
C1B C2B 1_555 1_555
H2B C2B 1_555 1_555
H3B C4B 1_555 1_555
C5B C4B 1_555 1_555
C2A C3A 1_555 1_555
C4A C3A 1_555 1_555
C16AC C15AC 1_555 1_555
C17F C18AC 1_555 1_555
C17AC C18AC 1_555 1_555
C15CC C14CC 1_555 1_555
C18CC C14CC 1_555 1_555
N4H C13HC 1_555 1_555
N4HC C13HC 1_555 1_555
C1ZA C2ZA 1_555 1_555
H2ZA C2ZA 1_555 1_555
H3ZA C4ZA 1_555 1_555
C5ZA C4ZA 1_555 1_555
C2FB C3FB 1_555 1_555
C4FB C3FB 1_555 1_555
C1KB C2KB 1_555 1_555
H2KB C2KB 1_555 1_555
H3KB C4KB 1_555 1_555
C5KB C4KB 1_555 1_555
C2SB C3SB 1_555 1_555
C4SB C3SB 1_555 1_555
C1PC C2PC 1_555 1_555
H2PC C2PC 1_555 1_555
H3PC C4PC 1_555 1_555
C5PC C4PC 1_555 1_555
C2LC C3LC 1_555 1_555
C4LC C3LC 1_555 1_555
N1B C1B 1_555 1_555
H1B C1B 1_555 1_555
H4B C5B 1_555 1_555
C1A C2A 1_555 1_555
H2A C2A 1_555 1_555
H3A C4A 1_555 1_555
C5A C4A 1_555 1_555
N5AC C16AC 1_555 1_555
N5F C17F 1_555 1_555
C18F C17F 1_555 1_555
C16CC C15CC 1_555 1_555
C17D C18CC 1_555 1_555
C17CC C18CC 1_555 1_555
C13H N4H 1_555 1_555
C13E N4HC 1_555 1_555
N1ZA C1ZA 1_555 1_555
H1ZA C1ZA 1_555 1_555
H4ZA C5ZA 1_555 1_555
C1FB C2FB 1_555 1_555
H2FB C2FB 1_555 1_555
H3FB C4FB 1_555 1_555
C5FB C4FB 1_555 1_555
N1KB C1KB 1_555 1_555
H1KB C1KB 1_555 1_555
H4KB C5KB 1_555 1_555
C1SB C2SB 1_555 1_555
H2SB C2SB 1_555 1_555
H3SB C4SB 1_555 1_555
C5SB C4SB 1_555 1_555
N1PC C1PC 1_555 1_555
H1PC C1PC 1_555 1_555
H4PC C5PC 1_555 1_555
C1LC C2LC 1_555 1_555
H2LC C2LC 1_555 1_555
H3LC C4LC 1_555 1_555
C5LC C4LC 1_555 1_555
Cu1B N1B 1_555 1_555
N1A C1A 1_555 1_555
H1A C1A 1_555 1_555
H4A C5A 1_555 1_555
C16F N5F 1_555 1_555
C14F C18F 1_555 1_555
N5CC C16CC 1_555 1_555
N5D C17D 1_555 1_555
C18D C17D 1_555 1_555
N4E C13H 1_555 1_555
C14H C13H 1_555 1_555
C14E C13E 1_555 1_555
Cu1ZA N1ZA 1_555 1_555
N1FB C1FB 1_555 1_555
H1FB C1FB 1_555 1_555
H4FB C5FB 1_555 1_555
Cu1M N1KB 1_555 1_555
N1SB C1SB 1_555 1_555
H1SB C1SB 1_555 1_555
H4SB C5SB 1_555 1_555
Cu1EB N1PC 1_555 1_555
N1LC C1LC 1_555 1_555
H1LC C1LC 1_555 1_555
H4LC C5LC 1_555 1_555
N1GB Cu1B 1_555 1_555
N1TB Cu1B 1_555 1_555
N1QC Cu1B 1_555 1_555
Cu1A N1A 1_555 1_555
C15F C16F 1_555 1_555
C13F C14F 1_555 1_555
C16D N5D 1_555 1_555
C14D C18D 1_555 1_555
C15H C14H 1_555 1_555
C18H C14H 1_555 1_555
C15E C14E 1_555 1_555
C18E C14E 1_555 1_555
Cu1N N1FB 1_555 1_555
N1M Cu1M 1_555 1_555
N1AB Cu1M 1_555 1_555
N1BC Cu1M 1_555 1_555
Cu1LA N1SB 1_555 1_555
Cu1JA N1LC 1_555 1_555
N4F C13F 1_555 1_555
N4FC C13F 1_555 1_555
C15D C16D 1_555 1_555
C13D C14D 1_555 1_555
C16H C15H 1_555 1_555
C17H C18H 1_555 1_555
C17BC C18H 1_555 1_555
C16E C15E 1_555 1_555
C17E C18E 1_555 1_555
C17DC C18E 1_555 1_555
C4 C5 1_555 1_555
C18 C17HC 1_555 1_555
C17HC C18HC 1_555 1_555
C4DB C5DB 1_555 1_555
C4OB C5OB 1_555 1_555
C4KC C5KC 1_555 1_555
N2B C6A 1_555 1_555
N4AC C13CC 1_555 1_555
N2ZA C6FB 1_555 1_555
N2KB C6SB 1_555 1_555
N2PC C6LC 1_555 1_555
C16HC C15HC 1_555 1_555
C5B N1B 1_555 1_555
C17F C17AC 1_555 1_555
C17AC N5AC 1_555 1_555
C17AC C18F 1_555 1_555
C5ZA N1ZA 1_555 1_555
C5KB N1KB 1_555 1_555
C5PC N1PC 1_555 1_555
C5A N1A 1_555 1_555
C17D C17CC 1_555 1_555
C17CC N5CC 1_555 1_555
C17CC C18D 1_555 1_555
C13E N4E 1_555 1_555
C5FB N1FB 1_555 1_555
C5SB N1SB 1_555 1_555
C5LC N1LC 1_555 1_555
C14F C15F 1_555 1_555
C14D C15D 1_555 1_555
C17H C17BC 1_555 1_555
C17E C17DC 1_555 1_555

#END
