
#######################################################################
#
#                 Cambridge Crystallographic Data Centre
#                                CCDC 
#
#######################################################################
#
# If this CIF has been generated from an entry in the Cambridge 
# Structural Database, then it will include bibliographic, chemical, 
# crystal, experimental, refinement or atomic coordinate data resulting 
# from the CCDC's data processing and validation procedures.
#
#######################################################################

data_SADNAO
_symmetry_cell_setting           monoclinic
_symmetry_space_group_name_H-M   'C 2/c 1 1'
_symmetry_Int_Tables_number      15
_space_group_name_Hall           '-C 2xn'
loop_
_symmetry_equiv_pos_site_id
_symmetry_equiv_pos_as_xyz
1 x,y,z
2 x,-y,1/2-z
3 1/2+x,1/2+y,z
4 1/2+x,1/2-y,1/2-z
5 -x,-y,-z
6 -x,y,1/2+z
7 1/2-x,1/2-y,-z
8 1/2-x,1/2+y,1/2+z
_cell_length_a                   19.8910(5)
_cell_length_b                   9.2980(4)
_cell_length_c                   6.8771(3)
_cell_angle_alpha                90.000
_cell_angle_beta                 90
_cell_angle_gamma                90
_cell_volume                     1271.9
loop_
_atom_site_label
_atom_site_type_symbol
_atom_site_fract_x
_atom_site_fract_y
_atom_site_fract_z
Fe1 Fe 0.0000 0.0000 0.0000
O1 O 0.0000 -0.0971(7) -0.2500
O2 O 0.0820 -0.1168 -0.1527
O3 O -0.0672 -0.1442 0.0451
C1 C 0.1818 -0.2035 -0.4236
C2 C 0.2225 -0.2206 -0.2962
C3 C 0.2093 -0.2329 -0.6274
C4 C 0.1063 -0.1521 -0.3392
H1 H 0.2028 -0.1996 -0.1505
H2 H 0.1801 -0.2206 -0.7186
Fe1A Fe 0.0000 0.0000 -0.5000
Fe1A_2 Fe 0.0000 0.0000 0.5000
Fe1C Fe -0.5000 -0.5000 -0.5000
Fe1B Fe -0.5000 -0.5000 0.0000
Fe1C_2 Fe -0.5000 0.5000 -0.5000
O1A O 0.0000 0.0971(7) -0.2500
O1D O 0.0000 0.0971(7) 0.2500
O1E O 0.0000 -0.0971(7) 0.2500
O1C O -0.5000 -0.4029(7) -0.2500
O1B O -0.5000 -0.5971(7) -0.2500
O1G O -0.5000 -0.5971(7) 0.2500
O1D_2 O 0.0000 0.0971(7) -0.7500
O1B_2 O -0.5000 0.4029(7) -0.2500
O2E O -0.0820 -0.1168 0.3473
O2C O -0.4180 -0.3832 -0.3473
O2A O 0.0820 0.1168 -0.3473
O2D O -0.0820 0.1168 -0.8473
O2B O -0.4180 0.3832 -0.1527
O3F O -0.4328 -0.3558 -0.0451
O3B O -0.5672 -0.6442 0.0451
O3D O 0.0672 0.1442 -0.0451
O3A O -0.0672 0.1442 -0.5451
O3G O -0.4328 0.3558 -0.4549
O3C O -0.5672 0.6442 -0.5451
O3E O 0.0672 -0.1442 -0.4549
C1E C -0.1818 -0.2035 0.0764
C1C C -0.3182 -0.2965 -0.0764
C1D C -0.1818 0.2035 -0.5764
C1B C -0.3182 0.2965 -0.4236
C2E C -0.2225 -0.2206 0.2038
C2C C -0.2775 -0.2794 -0.2038
C2D C -0.2225 0.2206 -0.7038
C2B C -0.2775 0.2794 -0.2962
C2F C 0.2775 -0.2794 -0.7038
C3C C -0.2907 -0.2671 0.1274
C3E C -0.2093 -0.2329 -0.1274
C3B C -0.2907 0.2671 -0.6274
C3D C -0.2093 0.2329 -0.3726
C3F C 0.2907 -0.2671 -0.3726
C4E C -0.1063 -0.1521 0.1608
C4C C -0.3937 -0.3479 -0.1608
C4D C -0.1063 0.1521 -0.6608
C4B C -0.3937 0.3479 -0.3392
H1C H -0.2972 -0.3004 -0.3495
H1E H -0.2028 -0.1996 0.3495
H1B H -0.2972 0.3004 -0.1505
H1D H -0.2028 0.1996 -0.8495
H2E H -0.1801 -0.2206 -0.2186
H2C H -0.3199 -0.2794 0.2186
H2D H -0.1801 0.2206 -0.2814
H2B H -0.3199 0.2794 -0.7186
N1 N 0.0269 -0.4169 -0.2064
C5 C -0.0132 -0.4498 -0.1416
C6 C -0.0792 -0.4771 -0.1189
C7 C 0.0841 -0.4565 -0.0559
C8 C 0.1557 -0.4279 -0.0778
N1A N 0.0269 -0.5831 -0.2936
N1E N -0.0269 -0.4169 -0.7064
N1D N -0.0269 -0.5831 -0.7936
N1_2 N 0.0269 -0.4169 -1.2064
N1A_2 N 0.0269 -0.5831 -1.2936
C5A C -0.0132 -0.5502 -0.3584
C5E C 0.0132 -0.4498 -0.6416
C5D C 0.0132 -0.5502 -0.8584
C5_2 C -0.0132 -0.4498 -1.1416
C5A_2 C -0.0132 -0.5502 -1.3584
C6E C 0.0792 -0.4771 -0.6189
C6D C 0.0792 -0.5229 -0.8811
C6_2 C -0.0792 -0.4771 -1.1189
C6A C -0.0792 -0.5229 -0.3811
C6D_2 C 0.0792 -0.5229 0.1189
C6A_2 C -0.0792 -0.5229 -1.3811
C7A C 0.0841 -0.5435 -0.4441
C7_2 C 0.0841 -0.4565 -1.0559
C7D C -0.0841 -0.5435 -0.9441
C7E C -0.0841 -0.4565 -0.5559
C7D_2 C -0.0841 -0.5435 0.0559
C7A_2 C 0.0841 -0.5435 -1.4441
C8_2 C 0.1557 -0.4279 -1.0778
C8D C -0.1557 -0.5721 -0.9222
C8E C -0.1557 -0.4279 -0.5778
C8A C 0.1557 -0.5721 -0.4222
C9? C -0.0371 -0.4425 -0.1867
C10? C -0.0457 -0.5085 -0.0160
C11? C -0.1012 -0.3982 -0.3551
H3? H -0.0925 -0.5272 -0.0017
H4? H 0.0084 -0.5972 0.2643
H5? H 0.1211 -0.5518 0.2289
loop_
_geom_bond_atom_site_label_1
_geom_bond_atom_site_label_2
_geom_bond_site_symmetry_1
_geom_bond_site_symmetry_2
Fe1 O1 1_555 1_555
O1 O2 1_555 1_555
O2 C4 1_555 1_555
O3 Fe1 1_555 1_555
C1 C2 1_555 1_555
C2 H1 1_555 1_555
C3 C1 1_555 1_555
C4 C1 1_555 1_555
H2 C3 1_555 1_555
N1 C5 1_555 1_555
C5 C6 1_555 1_555
C6 C7D_2 1_555 1_555
C7 N1 1_555 1_555
C8 C7 1_555 1_555
Fe1A O1 1_555 1_555
Fe1A_2 O1E 1_555 1_555
Fe1C O1C 1_555 1_555
Fe1B O1C 1_555 1_555
Fe1C_2 O3G 1_555 1_555
O1A Fe1 1_555 1_555
O1D Fe1 1_555 1_555
O1E Fe1 1_555 1_555
O1C O2C 1_555 1_555
O1B Fe1B 1_555 1_555
O1G Fe1B 1_555 1_555
O1D_2 Fe1A 1_555 1_555
O1B_2 O2B 1_555 1_555
O2E O1E 1_555 1_555
O2C C4C 1_555 1_555
O2A O1A 1_555 1_555
O2D O1D_2 1_555 1_555
O2B C4B 1_555 1_555
O3F Fe1B 1_555 1_555
O3B Fe1B 1_555 1_555
O3D Fe1 1_555 1_555
O3A Fe1A 1_555 1_555
O3G C4B 1_555 1_555
O3C Fe1C_2 1_555 1_555
O3E C4 1_555 1_555
C1E C2E 1_555 1_555
C1C C2C 1_555 1_555
C1D C2D 1_555 1_555
C1B C2B 1_555 1_555
C2E C3C 1_555 1_555
C2C C3E 1_555 1_555
C2D C3B 1_555 1_555
C2B C3D 1_555 1_555
C2F C3 1_555 1_555
C3C C1C 1_555 1_555
C3E C1E 1_555 1_555
C3B C1B 1_555 1_555
C3D C1D 1_555 1_555
C3F C2 1_555 1_555
C4E O3 1_555 1_555
C4C O3F 1_555 1_555
C4D O2D 1_555 1_555
C4B C1B 1_555 1_555
H1C C2C 1_555 1_555
H1E C2E 1_555 1_555
H1B C2B 1_555 1_555
H1D C2D 1_555 1_555
H2E C3E 1_555 1_555
H2C C3C 1_555 1_555
H2D C3D 1_555 1_555
H2B C3B 1_555 1_555
N1A N1 1_555 1_555
N1E N1D 1_555 1_555
N1D C5E 1_555 1_555
N1_2 N1A_2 1_555 1_555
N1A_2 C5_2 1_555 1_555
C5A N1 1_555 1_555
C5E N1E 1_555 1_555
C5D N1E 1_555 1_555
C5_2 N1_2 1_555 1_555
C5A_2 N1_2 1_555 1_555
C6E C5E 1_555 1_555
C6D C5D 1_555 1_555
C6_2 C5_2 1_555 1_555
C6A C5A 1_555 1_555
C6D_2 C7 1_555 1_555
C6A_2 C5A_2 1_555 1_555
C7A N1A 1_555 1_555
C7_2 N1_2 1_555 1_555
C7D N1D 1_555 1_555
C7E N1E 1_555 1_555
C7A_2 N1A_2 1_555 1_555
C8_2 C7_2 1_555 1_555
C8D C7D 1_555 1_555
C8E C7E 1_555 1_555
C8A C7A 1_555 1_555
C5 N1A 1_555 1_555
C5 C5A 1_555 1_555
Fe1A O1A 1_555 1_555
Fe1A O3E 1_555 1_555
O2E C4E 1_555 1_555
O3A C4D 1_555 1_555
C1E C4E 1_555 1_555
C1C C4C 1_555 1_555
C1D C4D 1_555 1_555
N1A C5A 1_555 1_555
N1D C5D 1_555 1_555
N1A_2 C5A_2 1_555 1_555
C5E C5D 1_555 1_555
C5_2 C5A_2 1_555 1_555
C6E C7A 1_555 1_555
C6D C7_2 1_555 1_555
C6_2 C7D 1_555 1_555
C6A C7E 1_555 1_555

#END
