
#######################################################################
#
#                 Cambridge Crystallographic Data Centre
#                                CCDC 
#
#######################################################################
#
# If this CIF has been generated from an entry in the Cambridge 
# Structural Database, then it will include bibliographic, chemical, 
# crystal, experimental, refinement or atomic coordinate data resulting 
# from the CCDC's data processing and validation procedures.
#
#######################################################################

data_SADRUM
_symmetry_cell_setting           monoclinic
_symmetry_space_group_name_H-M   'C c'
_symmetry_Int_Tables_number      9
_space_group_name_Hall           'C -2yc'
loop_
_symmetry_equiv_pos_site_id
_symmetry_equiv_pos_as_xyz
1 x,y,z
2 x,-y,1/2+z
3 1/2+x,1/2+y,z
4 1/2+x,1/2-y,1/2+z
_cell_length_a                   9.647(10)
_cell_length_b                   25.46(3)
_cell_length_c                   6.560(7)
_cell_angle_alpha                90
_cell_angle_beta                 131.741(11)
_cell_angle_gamma                90
_cell_volume                     1202.23
loop_
_atom_site_label
_atom_site_type_symbol
_atom_site_fract_x
_atom_site_fract_y
_atom_site_fract_z
Mn1 Mn 0.3933(2) 0.46898(5) 0.8452(3)
O1 O 0.2994(9) 0.4473(2) 1.0838(12)
O2 O 0.3454(9) 0.4420(2) 1.4525(12)
O3 O 0.3340(11) 0.0844(2) 1.4632(14)
O4 O 0.3023(10) 0.0971(3) 1.1001(13)
O5 O 0.2879(10) 0.2016(2) 1.1478(13)
O6 O 0.1467(17) 0.2217(3) 0.6576(18)
O7 O 0.0787(14) 0.2980(3) 0.5096(16)
O8 O 0.5877(9) 0.3946(2) 1.0398(13)
H1 H 0.6563 0.4112 1.1904
H2 H 0.6344 0.3879 0.9693
O9 O 0.0756(9) 0.4417(3) 0.5201(13)
H3 H -0.0082 0.4284 0.5133
H4 H 0.0434 0.4667 0.4102
O10 O 0.6391(9) 0.5041(2) 0.8527(12)
H5 H 0.6929 0.4888 0.8065
H6 H 0.6517 0.5372 0.8733
N1 N 0.1501(10) 0.2670(3) 0.6959(14)
C1 C 0.3227(13) 0.1127(3) 1.298(2)
C2 C 0.3350(14) 0.1704(4) 1.361(2)
H7 H 0.2519 0.1782 1.3922
H8 H 0.4606 0.1787 1.5271
C3 C 0.2935(13) 0.2532(4) 1.1766(18)
C4 C 0.3583(12) 0.2768(4) 1.4197(17)
H9 H 0.3981 0.2560 1.5667
C5 C 0.3632(12) 0.3306(3) 1.4416(17)
H10 H 0.4049 0.3455 1.6036
C6 C 0.3091(13) 0.3628(4) 1.2345(18)
C7 C 0.2449(12) 0.3398(3) 0.9927(18)
H11 H 0.2121 0.3610 0.8510
C8 C 0.2294(13) 0.2869(4) 0.9601(17)
C9 C 0.3170(12) 0.4208(3) 1.2601(16)
Mn1A Mn 0.3933(2) 0.53102(5) 1.3452(3)
Mn1_2 Mn 0.3933(2) 0.46898(5) 1.8452(3)
O1A O 0.2994(9) 0.5527(2) 0.5838(12)
O2_2 O 0.3454(9) 0.4420(2) 0.4525(12)
O2A O 0.3454(9) 0.5580(2) 0.9525(12)
loop_
_geom_bond_atom_site_label_1
_geom_bond_atom_site_label_2
_geom_bond_site_symmetry_1
_geom_bond_site_symmetry_2
Mn1 O1 1_555 1_555
O1 C9 1_555 1_555
O2 C9 1_555 1_555
O3 C1 1_555 1_555
O4 C1 1_555 1_555
O5 C2 1_555 1_555
O6 N1 1_555 1_555
O7 N1 1_555 1_555
O8 Mn1 1_555 1_555
H1 O8 1_555 1_555
H2 O8 1_555 1_555
O9 Mn1 1_555 1_555
H3 O9 1_555 1_555
H4 O9 1_555 1_555
O10 Mn1 1_555 1_555
H5 O10 1_555 1_555
H6 O10 1_555 1_555
N1 C8 1_555 1_555
C1 C2 1_555 1_555
C2 H7 1_555 1_555
H8 C2 1_555 1_555
C3 O5 1_555 1_555
C4 C3 1_555 1_555
H9 C4 1_555 1_555
C5 C4 1_555 1_555
H10 C5 1_555 1_555
C6 C5 1_555 1_555
C7 C6 1_555 1_555
H11 C7 1_555 1_555
C8 C3 1_555 1_555
C9 C6 1_555 1_555
Mn1A O1 1_555 1_555
Mn1_2 O2 1_555 1_555
O1A Mn1 1_555 1_555
O2_2 Mn1 1_555 1_555
O2A Mn1 1_555 1_555
O2 Mn1A 1_555 1_555
C7 C8 1_555 1_555
Mn1A O2A 1_555 1_555

#END
