
#######################################################################
#
#                 Cambridge Crystallographic Data Centre
#                                CCDC 
#
#######################################################################
#
# If this CIF has been generated from an entry in the Cambridge 
# Structural Database, then it will include bibliographic, chemical, 
# crystal, experimental, refinement or atomic coordinate data resulting 
# from the CCDC's data processing and validation procedures.
#
#######################################################################

data_SADTEY
_symmetry_cell_setting           monoclinic
_symmetry_space_group_name_H-M   'P 21/c'
_symmetry_Int_Tables_number      14
_space_group_name_Hall           '-P 2ybc'
loop_
_symmetry_equiv_pos_site_id
_symmetry_equiv_pos_as_xyz
1 x,y,z
2 -x,1/2+y,1/2-z
3 -x,-y,-z
4 x,1/2-y,1/2+z
_cell_length_a                   7.3085(8)
_cell_length_b                   12.4405(13)
_cell_length_c                   18.1067(19)
_cell_angle_alpha                90
_cell_angle_beta                 100.8560(10)
_cell_angle_gamma                90
_cell_volume                     1616.82
loop_
_atom_site_label
_atom_site_type_symbol
_atom_site_fract_x
_atom_site_fract_y
_atom_site_fract_z
O1 O 0.3537(2) 0.26618(11) 0.77175(7)
C1 C 0.3425(3) 0.34707(19) 0.72967(11)
Zn1 Zn 0.35428(4) 0.240787(18) 0.383707(12)
N1 N 0.3686(2) 0.27145(13) 0.50042(8)
N2 N 0.2762(2) 0.40509(14) 0.38516(8)
O2 O 0.1143(2) 0.76560(11) 0.47441(7)
O3 O 0.0918(2) 0.79323(12) 0.35185(8)
O4 O 0.3274(2) 0.44272(12) 0.74789(8)
C2 C 0.1214(3) 0.73488(17) 0.40890(12)
C3 C 0.2630(3) 0.44535(16) 0.45318(10)
C4 C 0.3045(3) 0.39749(16) 0.59134(10)
H1 H 0.2688 0.4664 0.6026
C5 C 0.3127(3) 0.36994(16) 0.51787(10)
C6 C 0.3498(3) 0.32188(17) 0.64772(10)
C7 C 0.4160(3) 0.20011(17) 0.55551(11)
H2 H 0.4569 0.1327 0.5435
C8 C 0.4074(3) 0.22118(17) 0.62960(10)
H3 H 0.4395 0.1688 0.6664
C9 C 0.1843(3) 0.57568(17) 0.33005(12)
H4 H 0.1578 0.6179 0.2870
C10 C 0.2100(3) 0.55051(17) 0.46123(11)
H5 H 0.1999 0.5763 0.5085
C11 C 0.2371(3) 0.46952(17) 0.32559(11)
H6 H 0.2456 0.4418 0.2787
C12 C 0.1714(3) 0.61799(16) 0.39924(11)
O5 O 0.4078(2) 0.07191(13) 0.39901(8)
O6 O 0.6413(2) 0.27400(16) 0.39450(8)
O7 O 0.0708(2) 0.19792(14) 0.36863(11)
H7 H 0.387(3) 0.051(2) 0.3548(7)
H8 H 0.5230(15) 0.070(2) 0.4162(12)
H9 H -0.007(3) 0.2390(15) 0.3434(12)
H10 H 0.036(3) 0.1344(9) 0.3674(15)
H11 H 0.686(3) 0.285(2) 0.3576(8)
H12 H 0.724(3) 0.265(2) 0.4323(8)
O1C O 0.3537(2) 0.23382(11) 0.27175(7)
Zn1C Zn 0.35428(4) 0.259213(18) 0.883707(12)
O8 O 0.2418(2) 0.96377(13) 0.51465(8)
H13 H 0.188(3) 0.9049(12) 0.5009(13)
H14 H 0.240(4) 0.9995(16) 0.4757(9)
O9 O 0.1894(3) 0.84659(14) 0.21871(10)
H15 H 0.154(4) 0.8255(19) 0.2561(10)
H16 H 0.224(4) 0.9097(10) 0.2203(14)
O10 O 0.9266(3) 0.99528(13) 0.36015(10)
H17 H 0.981(3) 0.9373(12) 0.3570(14)
H18 H 0.881(3) 0.9958(19) 0.3992(10)
loop_
_geom_bond_atom_site_label_1
_geom_bond_atom_site_label_2
_geom_bond_site_symmetry_1
_geom_bond_site_symmetry_2
O1 C1 1_555 1_555
C1 O4 1_555 1_555
Zn1 N1 1_555 1_555
N1 C5 1_555 1_555
N2 Zn1 1_555 1_555
O2 C2 1_555 1_555
O3 C2 1_555 1_555
C2 C12 1_555 1_555
C3 N2 1_555 1_555
C4 H1 1_555 1_555
C5 C3 1_555 1_555
C6 C1 1_555 1_555
C7 N1 1_555 1_555
H2 C7 1_555 1_555
C8 C6 1_555 1_555
H3 C8 1_555 1_555
C9 H4 1_555 1_555
C10 C3 1_555 1_555
H5 C10 1_555 1_555
C11 N2 1_555 1_555
H6 C11 1_555 1_555
C12 C9 1_555 1_555
O5 Zn1 1_555 1_555
O6 Zn1 1_555 1_555
O7 Zn1 1_555 1_555
H7 O5 1_555 1_555
H8 O5 1_555 1_555
H9 O7 1_555 1_555
H10 O7 1_555 1_555
H11 O6 1_555 1_555
H12 O6 1_555 1_555
O8 H13 1_555 1_555
H14 O8 1_555 1_555
O9 H15 1_555 1_555
H16 O9 1_555 1_555
O10 H17 1_555 1_555
H18 O10 1_555 1_555
O1C Zn1 1_555 1_555
Zn1C O1 1_555 1_555
C4 C5 1_555 1_555
C4 C6 1_555 1_555
C7 C8 1_555 1_555
C9 C11 1_555 1_555
C10 C12 1_555 1_555

#END
