
#######################################################################
#
#                 Cambridge Crystallographic Data Centre
#                                CCDC 
#
#######################################################################
#
# If this CIF has been generated from an entry in the Cambridge 
# Structural Database, then it will include bibliographic, chemical, 
# crystal, experimental, refinement or atomic coordinate data resulting 
# from the CCDC's data processing and validation procedures.
#
#######################################################################

data_SADTEY01
_symmetry_cell_setting           monoclinic
_symmetry_space_group_name_H-M   'P 21/c'
_symmetry_Int_Tables_number      14
_space_group_name_Hall           '-P 2ybc'
loop_
_symmetry_equiv_pos_site_id
_symmetry_equiv_pos_as_xyz
1 x,y,z
2 -x,1/2+y,1/2-z
3 -x,-y,-z
4 x,1/2-y,1/2+z
_cell_length_a                   7.1290(3)
_cell_length_b                   12.1480(12)
_cell_length_c                   17.7600(13)
_cell_angle_alpha                90
_cell_angle_beta                 101.580(3)
_cell_angle_gamma                90
_cell_volume                     1506.76
loop_
_atom_site_label
_atom_site_type_symbol
_atom_site_fract_x
_atom_site_fract_y
_atom_site_fract_z
C1 C 0.5826(6) 0.1992(3) 0.4434(2)
H1 H 0.5401 0.1302 0.4552
C2 C 0.5939(6) 0.2215(3) 0.3709(2)
H2 H 0.5637 0.1673 0.3334
C3 C 0.6486(6) 0.3216(3) 0.3518(2)
C4 C 0.6948(6) 0.3973(3) 0.4095(2)
H3 H 0.7307 0.4681 0.3984
C5 C 0.6886(6) 0.3700(3) 0.4814(2)
C6 C 0.6619(6) 0.3489(3) 0.2721(2)
C7 C 0.7376(6) 0.4460(3) 0.5469(2)
C8 C 0.7846(6) 0.5497(3) 0.5395(2)
H4 H 0.7885 0.5765 0.4908
C9 C 0.8273(6) 0.6187(3) 0.6005(2)
C10 C 0.8144(6) 0.5737(3) 0.6696(2)
H5 H 0.8430 0.6164 0.7139
C11 C 0.7620(6) 0.4704(3) 0.6743(2)
H6 H 0.7509 0.4437 0.7223
C12 C 0.8739(6) 0.7343(3) 0.5899(2)
N1 N 0.6307(5) 0.2732(2) 0.4994(2)
N2 N 0.7247(5) 0.4034(2) 0.6161(2)
O1 O 0.6760(4) 0.4424(2) 0.25386(17)
O2 O 0.6464(4) 0.2664(2) 0.22728(18)
O3 O 0.9069(4) 0.7929(2) 0.64917(17)
O4 O 0.8867(4) 0.7655(2) 0.52672(17)
O5 O 0.3590(4) 0.2244(2) 0.10559(18)
H7 H 0.3445 0.1583 0.1334
H8 H 0.2845 0.2797 0.0745
O6 O 0.5904(4) 0.4274(2) 0.10072(16)
H9 H 0.5818 0.4600 0.1492
H10 H 0.6925 0.4614 0.0813
O7 O 0.9268(4) 0.3010(2) 0.13078(17)
H11 H 0.9785 0.3117 0.1845
H12 H 0.9955 0.2431 0.1114
Zn1 Zn 0.64530(7) 0.25947(3) 0.11643(3)
N1C N 0.6307(5) 0.2268(2) -0.0006(2)
N2C N 0.7247(5) 0.0966(2) 0.1161(2)
Zn1C Zn 0.64530(7) 0.24053(3) 0.61643(3)
O8 O 0.2413(4) 0.4628(2) 0.01426(17)
O9 O 0.0730(4) 0.5048(2) 0.13767(17)
O10 O 0.1905(4) 0.1544(2) 0.21822(17)
loop_
_geom_bond_atom_site_label_1
_geom_bond_atom_site_label_2
_geom_bond_site_symmetry_1
_geom_bond_site_symmetry_2
C1 H1 1_555 1_555
C2 C1 1_555 1_555
H2 C2 1_555 1_555
C3 C2 1_555 1_555
C4 C3 1_555 1_555
H3 C4 1_555 1_555
C5 C4 1_555 1_555
C6 C3 1_555 1_555
C7 C5 1_555 1_555
C8 C7 1_555 1_555
H4 C8 1_555 1_555
C9 C8 1_555 1_555
C10 C9 1_555 1_555
H5 C10 1_555 1_555
C11 C10 1_555 1_555
H6 C11 1_555 1_555
C12 C9 1_555 1_555
N1 C1 1_555 1_555
N2 C7 1_555 1_555
O1 C6 1_555 1_555
O2 C6 1_555 1_555
O3 C12 1_555 1_555
O4 C12 1_555 1_555
O5 H7 1_555 1_555
H8 O5 1_555 1_555
O6 H9 1_555 1_555
H10 O6 1_555 1_555
O7 H11 1_555 1_555
H12 O7 1_555 1_555
Zn1 O2 1_555 1_555
N1C Zn1 1_555 1_555
N2C Zn1 1_555 1_555
Zn1C N1 1_555 1_555
C5 N1 1_555 1_555
C11 N2 1_555 1_555
N2 Zn1C 1_555 1_555
O5 Zn1 1_555 1_555
O6 Zn1 1_555 1_555
O7 Zn1 1_555 1_555

#END
