
#######################################################################
#
#                 Cambridge Crystallographic Data Centre
#                                CCDC 
#
#######################################################################
#
# If this CIF has been generated from an entry in the Cambridge 
# Structural Database, then it will include bibliographic, chemical, 
# crystal, experimental, refinement or atomic coordinate data resulting 
# from the CCDC's data processing and validation procedures.
#
#######################################################################

data_SADYUT
_symmetry_cell_setting           triclinic
_symmetry_space_group_name_H-M   'P -1'
_symmetry_Int_Tables_number      2
_space_group_name_Hall           '-P 1'
loop_
_symmetry_equiv_pos_site_id
_symmetry_equiv_pos_as_xyz
1 x,y,z
2 -x,-y,-z
_cell_length_a                   6.4160(5)
_cell_length_b                   6.6486(6)
_cell_length_c                   13.9920(12)
_cell_angle_alpha                89.9170(10)
_cell_angle_beta                 85.5880(10)
_cell_angle_gamma                73.6760(10)
_cell_volume                     570.977
loop_
_atom_site_label
_atom_site_type_symbol
_atom_site_fract_x
_atom_site_fract_y
_atom_site_fract_z
Ce1 Ce 0.36484(3) 0.33000(3) 0.803430(10)
O1 O 0.7620(6) 0.3463(6) 0.2798(2)
O2 O 1.0901(6) 0.2177(7) 0.3373(3)
O3 O 1.0817(5) 0.2746(6) 0.7009(2)
O4 O 0.7595(5) 0.3214(7) 0.7822(2)
O5 O 0.5054(7) 0.2476(5) 0.9655(2)
O6 O 0.5773(6) 0.3678(5) 1.1047(2)
O7 O 0.0036(8) 0.5134(8) 0.8992(4)
O8 O 0.5654(6) -0.0533(6) 0.7844(3)
O9 O 0.1789(8) 0.0870(8) 0.8994(4)
N1 N 0.5723(5) 0.2600(6) 0.6274(2)
C1 C 0.7770(7) 0.2748(6) 0.6150(3)
C2 C 0.5683(7) 0.2406(7) 0.4556(3)
C3 C 0.7772(7) 0.2622(7) 0.4439(3)
C4 C 0.8836(7) 0.2747(7) 0.5250(3)
C5 C 0.4745(7) 0.2392(7) 0.5484(3)
C6 C 0.8875(8) 0.2745(7) 0.3451(3)
C7 C 0.8828(7) 0.2921(7) 0.7052(3)
C8 C 0.5247(7) 0.3884(6) 1.0201(3)
H1 H 0.49300 0.22740 0.40290
H2 H 1.02630 0.28290 0.51910
H3 H 0.33490 0.22280 0.55600
H4 H -0.07800 0.47060 0.86320
H5 H -0.02500 0.63680 0.88280
H6 H 0.53670 -0.16200 0.81820
H7 H 0.65420 -0.09500 0.73490
H8 H 0.24360 -0.06740 0.89420
H9 H 0.06500 0.09050 0.87300
Ce1A Ce 0.63516(3) 0.67000(3) 0.196570(10)
Ce1_2 Ce 1.36484(3) 0.33000(3) 0.803430(10)
Ce1A_2 Ce -0.36484(3) 0.67000(3) 0.196570(10)
Ce1A_3 Ce 0.63516(3) 0.67000(3) 1.196570(10)
O1A O 0.2380(6) 0.6537(6) 0.7202(2)
O2A O -0.0901(6) 0.7823(7) 0.6627(3)
O3A O -0.0817(5) 0.7254(6) 0.2991(2)
O3_2 O 0.0817(5) 0.2746(6) 0.7009(2)
O3A_2 O 0.9183(5) 0.7254(6) 0.2991(2)
O4A O 0.2405(5) 0.6786(7) 0.2178(2)
O5A O 0.4946(7) 0.7524(5) 1.0345(2)
O5A_2 O 0.4946(7) 0.7524(5) 0.0345(2)
O6A O 0.4227(6) 0.6322(5) 0.8953(2)
O6_2 O 0.5773(6) 0.3678(5) 0.1047(2)
O7A O 0.9964(8) 0.4866(8) 0.1008(4)
O8A O 0.4346(6) 1.0533(6) 0.2156(3)
O9A O 0.8211(8) 0.9130(8) 0.1006(4)
N1A N 0.4277(5) 0.7400(6) 0.3726(2)
C1A C 0.2230(7) 0.7252(6) 0.3850(3)
C2A C 0.4317(7) 0.7594(7) 0.5444(3)
C3A C 0.2228(7) 0.7378(7) 0.5561(3)
C4A C 0.1164(7) 0.7253(7) 0.4750(3)
C5A C 0.5255(7) 0.7608(7) 0.4516(3)
C6A C 0.1125(8) 0.7255(7) 0.6549(3)
C7A C 0.1172(7) 0.7079(7) 0.2948(3)
C8A C 0.4753(7) 0.6116(6) 0.9799(3)
H1A H 0.50700 0.77260 0.59710
H2A H -0.02630 0.71710 0.48090
H3A H 0.66510 0.77720 0.44400
H4A H 1.07800 0.52940 0.13680
H5A H 1.02500 0.36320 0.11720
H6A H 0.46330 1.16200 0.18180
H7A H 0.34580 1.09500 0.26510
H8A H 0.75640 1.06740 0.10580
H9A H 0.93500 0.90950 0.12700
O10 O -0.1094(13) -0.0862(13) 0.9223(7)
H10 H -0.21970 0.00790 0.90760
H11 H -0.12520 -0.12960 0.98560
loop_
_geom_bond_atom_site_label_1
_geom_bond_atom_site_label_2
_geom_bond_site_symmetry_1
_geom_bond_site_symmetry_2
Ce1 O4 1_555 1_555
O1 C6 1_555 1_555
O2 C6 1_555 1_555
O3 C7 1_555 1_555
O4 C7 1_555 1_555
O5 Ce1 1_555 1_555
O6 C8 1_555 1_555
O7 Ce1 1_555 1_555
O8 Ce1 1_555 1_555
O9 Ce1 1_555 1_555
N1 Ce1 1_555 1_555
C1 N1 1_555 1_555
C2 C3 1_555 1_555
C3 C4 1_555 1_555
C4 C1 1_555 1_555
C5 N1 1_555 1_555
C6 C3 1_555 1_555
C7 C1 1_555 1_555
C8 O5 1_555 1_555
O10 H10 1_555 1_555
H1 C2 1_555 1_555
H2 C4 1_555 1_555
H3 C5 1_555 1_555
H4 O7 1_555 1_555
H5 O7 1_555 1_555
H6 O8 1_555 1_555
H7 O8 1_555 1_555
H8 O9 1_555 1_555
H9 O9 1_555 1_555
H11 O10 1_555 1_555
Ce1A O1 1_555 1_555
Ce1_2 O3 1_555 1_555
Ce1A_2 O3A 1_555 1_555
Ce1A_3 O6 1_555 1_555
O1A Ce1 1_555 1_555
O2A C6A 1_555 1_555
O3A C7A 1_555 1_555
O3_2 Ce1 1_555 1_555
O3A_2 Ce1A 1_555 1_555
O4A Ce1A 1_555 1_555
O5A Ce1A_3 1_555 1_555
O5A_2 Ce1A 1_555 1_555
O6A Ce1 1_555 1_555
O6_2 Ce1A 1_555 1_555
O7A Ce1A 1_555 1_555
O8A Ce1A 1_555 1_555
O9A Ce1A 1_555 1_555
N1A Ce1A 1_555 1_555
C1A N1A 1_555 1_555
C2A C3A 1_555 1_555
C3A C4A 1_555 1_555
C4A C1A 1_555 1_555
C5A N1A 1_555 1_555
C6A O1A 1_555 1_555
C7A O4A 1_555 1_555
C8A C8 1_555 1_555
H1A C2A 1_555 1_555
H2A C4A 1_555 1_555
H3A C5A 1_555 1_555
H4A O7A 1_555 1_555
H5A O7A 1_555 1_555
H6A O8A 1_555 1_555
H7A O8A 1_555 1_555
H8A O9A 1_555 1_555
H9A O9A 1_555 1_555
C2 C5 1_555 1_555
O5A C8A 1_555 1_555
O6A C8A 1_555 1_555
C1A C7A 1_555 1_555
C2A C5A 1_555 1_555
C3A C6A 1_555 1_555

#END
