
#######################################################################
#
#                 Cambridge Crystallographic Data Centre
#                                CCDC 
#
#######################################################################
#
# If this CIF has been generated from an entry in the Cambridge 
# Structural Database, then it will include bibliographic, chemical, 
# crystal, experimental, refinement or atomic coordinate data resulting 
# from the CCDC's data processing and validation procedures.
#
#######################################################################

data_SADZOO
_symmetry_cell_setting           monoclinic
_symmetry_space_group_name_H-M   'P 2/c'
_symmetry_Int_Tables_number      13
_space_group_name_Hall           '-P 2yc'
loop_
_symmetry_equiv_pos_site_id
_symmetry_equiv_pos_as_xyz
1 x,y,z
2 -x,y,1/2-z
3 -x,-y,-z
4 x,-y,1/2+z
_cell_length_a                   11.5161(2)
_cell_length_b                   11.6531(2)
_cell_length_c                   16.3216(3)
_cell_angle_alpha                90
_cell_angle_beta                 102.4030(10)
_cell_angle_gamma                90
_cell_volume                     2139.21
loop_
_atom_site_label
_atom_site_type_symbol
_atom_site_fract_x
_atom_site_fract_y
_atom_site_fract_z
Fe1 Fe 0.5000 0.60631(4) -0.2500
O3 O 0.46496(16) 0.60454(16) -0.38083(11)
H1 H 0.5140(18) 0.612(2) -0.4132(14)
H2 H 0.4066(17) 0.574(2) -0.4120(15)
N1 N 0.5000 -0.1992(2) -0.2500
N2 N 0.5000 0.4115(2) -0.2500
N3 N 0.30520(16) 0.60959(17) -0.25723(13)
C1 C 0.4545(2) -0.1388(2) -0.31906(16)
H3 H 0.4216 -0.1786 -0.3679
C2 C 0.4538(2) -0.0207(2) -0.32156(16)
H4 H 0.4222 0.0170 -0.3716
C3 C 0.5000 0.0423(3) -0.2500
C4 C 0.5000 0.1695(3) -0.2500
C5 C 0.4950(2) 0.2323(2) -0.17883(16)
H5 H 0.4918 0.1947 -0.1291
C6 C 0.4948(2) 0.3499(2) -0.18169(16)
H6 H 0.4908 0.3894 -0.1329
C7 C 0.2323(2) 0.5242(2) -0.28880(18)
H7 H 0.2638 0.4626 -0.3129
C8 C 0.1132(2) 0.5219(2) -0.28784(18)
H8 H 0.0665 0.4598 -0.3105
C9 C 0.06347(19) 0.6128(2) -0.25276(15)
C10 C 0.1365(2) 0.7045(2) -0.22368(16)
H9 H 0.1061 0.7693 -0.2026
C11 C 0.2552(2) 0.6987(2) -0.22625(17)
H10 H 0.3035 0.7606 -0.2052
Fe1_2 Fe -0.5000 0.60631(4) -0.2500
Fe1_3 Fe 0.5000 -0.39369(4) -0.2500
O3A O 0.53504(16) 0.60454(16) -0.11917(11)
H1A H 0.4860(18) 0.612(2) -0.0868(14)
H2A H 0.5934(17) 0.574(2) -0.0880(15)
N1_2 N 0.5000 0.8008(2) -0.2500
N3A N -0.30520(16) 0.60959(17) -0.24277(13)
N3A_2 N 0.69480(16) 0.60959(17) -0.24277(13)
C1A C 0.5455(2) -0.1388(2) -0.18094(16)
H3A H 0.5784 -0.1786 -0.1321
C2A C 0.5462(2) -0.0207(2) -0.17844(16)
H4A H 0.5778 0.0170 -0.1284
C5A C 0.5050(2) 0.2323(2) -0.32117(16)
H5A H 0.5082 0.1947 -0.3709
C6A C 0.5052(2) 0.3499(2) -0.31831(16)
H6A H 0.5092 0.3894 -0.3671
C7A C -0.2323(2) 0.5242(2) -0.21120(18)
H7A H -0.2638 0.4626 -0.1871
C8A C -0.1132(2) 0.5219(2) -0.21216(18)
H8A H -0.0665 0.4598 -0.1895
C9A C -0.06347(19) 0.6128(2) -0.24724(15)
C10A C -0.1365(2) 0.7045(2) -0.27632(16)
H9A H -0.1061 0.7693 -0.2974
C11A C -0.2552(2) 0.6987(2) -0.27375(17)
H10A H -0.3035 0.7606 -0.2948
S1 S 0.30455(9) -0.03861(10) 0.46412(6)
S2 S 0.33622(7) 0.13250(9) 0.46478(5)
O1 O 0.3830(2) 0.3534(3) 0.47678(15)
O2 O 0.2747(2) 0.4971(3) 0.51206(17)
N4 N 0.1051(3) 0.1215(3) 0.46728(17)
C12 C 0.1968(3) 0.1929(3) 0.47415(17)
C13 C 0.1879(3) 0.3118(3) 0.48620(18)
C14 C 0.0773(3) 0.3543(4) 0.4883(2)
H11 H 0.0675 0.4325 0.4960
C15 C -0.0196(3) 0.2817(5) 0.4791(3)
H12 H -0.0951 0.3100 0.4792
C16 C -0.0011(3) 0.1677(5) 0.4699(2)
H13 H -0.0658 0.1186 0.4650
C17 C 0.2897(3) 0.3938(4) 0.4916(2)
O4 O 0.3004(5) -0.2480(5) 0.4844(3)
O5 O 0.2225(6) -0.3746(4) 0.3829(3)
H14 H 0.252(7) -0.427(5) 0.418(4)
N5 N 0.2052(17) 0.026(3) 0.3020(18)
C18 C 0.2344(3) -0.0670(3) 0.3587(2)
C19 C 0.2216(8) -0.1758(10) 0.3477(6)
C20 C 0.1735(11) -0.2053(13) 0.2620(9)
H15 H 0.1626 -0.2820 0.2466
C21 C 0.1438(13) -0.1219(14) 0.2032(9)
H16 H 0.1198 -0.1415 0.1468
C22 C 0.150(2) 0.005(3) 0.230(2)
H17 H 0.1138 0.0622 0.1935
C23 C 0.2512(9) -0.2712(7) 0.4106(5)
C24? C 0.2344(3) -0.0670(3) 0.3587(2)
C25? C 0.1886(9) -0.1804(8) 0.3196(8)
C26? C 0.1310(11) -0.1877(13) 0.2374(10)
C27? C 0.1163(15) -0.0891(14) 0.1885(12)
C28? C 0.1714(18) -0.006(3) 0.2251(16)
C29? C 0.1925(7) -0.2874(7) 0.3708(5)
H18? H 0.1020 -0.2578 0.2144
H19? H 0.0703 -0.0859 0.1342
H20? H 0.1827 0.0541 0.1898
H21? H 0.292(8) -0.353(5) 0.465(5)
N6? N 0.2197(17) 0.014(3) 0.3108(19)
O6? O 0.1141(7) -0.3593(6) 0.3517(4)
O7? O 0.2801(8) -0.2910(9) 0.4351(7)
loop_
_geom_bond_atom_site_label_1
_geom_bond_atom_site_label_2
_geom_bond_site_symmetry_1
_geom_bond_site_symmetry_2
Fe1 O3 1_555 1_555
S1 S2 1_555 1_555
S2 C12 1_555 1_555
O1 C17 1_555 1_555
O2 C17 1_555 1_555
O3 H1 1_555 1_555
H2 O3 1_555 1_555
N1 C1 1_555 1_555
N2 Fe1 1_555 1_555
N3 Fe1 1_555 1_555
N4 C12 1_555 1_555
C1 H3 1_555 1_555
C2 C1 1_555 1_555
H4 C2 1_555 1_555
C3 C2 1_555 1_555
C4 C3 1_555 1_555
C5 C4 1_555 1_555
H5 C5 1_555 1_555
C6 N2 1_555 1_555
H6 C6 1_555 1_555
C7 N3 1_555 1_555
H7 C7 1_555 1_555
C8 C7 1_555 1_555
H8 C8 1_555 1_555
C9 C8 1_555 1_555
C10 C9 1_555 1_555
H9 C10 1_555 1_555
C11 N3 1_555 1_555
H10 C11 1_555 1_555
C12 C13 1_555 1_555
C13 C14 1_555 1_555
C14 H11 1_555 1_555
C15 C14 1_555 1_555
H12 C15 1_555 1_555
C16 N4 1_555 1_555
H13 C16 1_555 1_555
C17 C13 1_555 1_555
O4 C23 1_555 1_555
O5 H14 1_555 1_555
N5 C18 1_555 1_555
C18 S1 1_555 1_555
C19 C18 1_555 1_555
C20 C19 1_555 1_555
H15 C20 1_555 1_555
C21 C20 1_555 1_555
H16 C21 1_555 1_555
C22 N5 1_555 1_555
H17 C22 1_555 1_555
C23 O5 1_555 1_555
Fe1_2 N3A 1_555 1_555
Fe1_3 N1 1_555 1_555
O3A Fe1 1_555 1_555
H1A O3A 1_555 1_555
H2A O3A 1_555 1_555
N1_2 Fe1 1_555 1_555
N3A C7A 1_555 1_555
N3A_2 Fe1 1_555 1_555
C1A N1 1_555 1_555
H3A C1A 1_555 1_555
C2A C3 1_555 1_555
H4A C2A 1_555 1_555
C5A C4 1_555 1_555
H5A C5A 1_555 1_555
C6A N2 1_555 1_555
H6A C6A 1_555 1_555
C7A H7A 1_555 1_555
C8A C7A 1_555 1_555
H8A C8A 1_555 1_555
C9A C9 1_555 1_555
C10A C9A 1_555 1_555
H9A C10A 1_555 1_555
C11A N3A 1_555 1_555
H10A C11A 1_555 1_555
C5 C6 1_555 1_555
C10 C11 1_555 1_555
C15 C16 1_555 1_555
C19 C23 1_555 1_555
C21 C22 1_555 1_555
C1A C2A 1_555 1_555
C5A C6A 1_555 1_555
C8A C9A 1_555 1_555
C10A C11A 1_555 1_555

#END
