
#######################################################################
#
#                 Cambridge Crystallographic Data Centre
#                                CCDC 
#
#######################################################################
#
# If this CIF has been generated from an entry in the Cambridge 
# Structural Database, then it will include bibliographic, chemical, 
# crystal, experimental, refinement or atomic coordinate data resulting 
# from the CCDC's data processing and validation procedures.
#
#######################################################################

data_SAFBEI
_symmetry_cell_setting           triclinic
_symmetry_space_group_name_H-M   'P -1'
_symmetry_Int_Tables_number      2
_space_group_name_Hall           '-P 1'
loop_
_symmetry_equiv_pos_site_id
_symmetry_equiv_pos_as_xyz
1 x,y,z
2 -x,-y,-z
_cell_length_a                   8.9250(3)
_cell_length_b                   9.0000(3)
_cell_length_c                   10.5066(3)
_cell_angle_alpha                75.648(2)
_cell_angle_beta                 67.124(2)
_cell_angle_gamma                67.126(2)
_cell_volume                     711.748
loop_
_atom_site_label
_atom_site_type_symbol
_atom_site_fract_x
_atom_site_fract_y
_atom_site_fract_z
Cu1 Cu 0.47006(6) 0.60143(5) 0.25556(5)
P1 P 0.69833(14) 0.32696(12) 0.39341(11)
P2 P 0.17163(14) 0.57368(13) 0.21239(12)
N1 N 0.5076(4) -0.1825(4) 0.2025(3)
N2 N 0.4396(4) 0.3746(4) 0.2980(3)
C1 C 0.3823(5) -0.0485(5) 0.1777(4)
H1 H 0.2869 -0.0590 0.1696
C2 C 0.3912(5) 0.1042(5) 0.1641(4)
H2 H 0.3025 0.1945 0.1457
C3 C 0.5301(5) 0.1261(4) 0.1773(4)
C4 C 0.6596(6) -0.0148(5) 0.1992(4)
H3 H 0.7570 -0.0076 0.2065
C5 C 0.6465(5) -0.1652(5) 0.2102(4)
H4 H 0.7364 -0.2575 0.2233
C6 C 0.5389(5) 0.2920(4) 0.1674(4)
H5 H 0.4964 0.3607 0.0933
H6 H 0.6587 0.2831 0.1412
C7 C 0.5053(5) 0.2840(5) 0.4152(4)
H7 H 0.5324 0.1684 0.4164
H8 H 0.4179 0.3168 0.5029
C8 C 0.2500(5) 0.4113(5) 0.3387(4)
H9 H 0.1931 0.4454 0.4312
H10 H 0.2255 0.3151 0.3391
O1 O 0.8567(4) 0.1971(3) 0.3047(3)
H11 H 0.9034 0.2423 0.2302
O2 O 0.6750(3) 0.4935(3) 0.3111(3)
O3 O 0.7175(4) 0.3101(3) 0.5319(3)
O4 O 0.2907(3) 0.6731(3) 0.1706(3)
O5 O 0.1664(4) 0.5097(3) 0.0961(3)
O6 O -0.0163(4) 0.6712(4) 0.2955(3)
H12 H -0.0137 0.7334 0.3394
Cu1_2 Cu 0.47006(6) -0.39857(5) 0.25556(5)
Cu1A Cu 0.52994(6) 0.39857(5) 0.74444(5)
N1_2 N 0.5076(4) 0.8175(4) 0.2025(3)
O3A O 0.2825(4) 0.6899(3) 0.4681(3)
O7 O 1.0256(4) 0.3000(4) 0.0716(3)
H13 H 1.065(6) 0.366(5) 0.078(5)
H14 H 0.964(6) 0.344(5) 0.021(5)
O8 O -0.0383(5) 0.8732(4) 0.4421(4)
H15 H -0.037(7) 0.965(4) 0.397(5)
H16 H 0.053(5) 0.832(6) 0.464(6)
loop_
_geom_bond_atom_site_label_1
_geom_bond_atom_site_label_2
_geom_bond_site_symmetry_1
_geom_bond_site_symmetry_2
Cu1 N2 1_555 1_555
P1 C7 1_555 1_555
P2 C8 1_555 1_555
N1 C1 1_555 1_555
N2 C6 1_555 1_555
C1 H1 1_555 1_555
C2 C1 1_555 1_555
H2 C2 1_555 1_555
C3 C2 1_555 1_555
C4 C3 1_555 1_555
H3 C4 1_555 1_555
C5 N1 1_555 1_555
H4 C5 1_555 1_555
C6 C3 1_555 1_555
H5 C6 1_555 1_555
H6 C6 1_555 1_555
C7 N2 1_555 1_555
H7 C7 1_555 1_555
H8 C7 1_555 1_555
C8 N2 1_555 1_555
H9 C8 1_555 1_555
H10 C8 1_555 1_555
O1 P1 1_555 1_555
H11 O1 1_555 1_555
O2 Cu1 1_555 1_555
O3 P1 1_555 1_555
O4 Cu1 1_555 1_555
O5 P2 1_555 1_555
O6 P2 1_555 1_555
H12 O6 1_555 1_555
O7 H13 1_555 1_555
H14 O7 1_555 1_555
O8 H15 1_555 1_555
H16 O8 1_555 1_555
Cu1_2 N1 1_555 1_555
Cu1A O3 1_555 1_555
N1_2 Cu1 1_555 1_555
O3A Cu1 1_555 1_555
P1 O2 1_555 1_555
P2 O4 1_555 1_555
C4 C5 1_555 1_555

#END
