
#######################################################################
#
#                 Cambridge Crystallographic Data Centre
#                                CCDC 
#
#######################################################################
#
# If this CIF has been generated from an entry in the Cambridge 
# Structural Database, then it will include bibliographic, chemical, 
# crystal, experimental, refinement or atomic coordinate data resulting 
# from the CCDC's data processing and validation procedures.
#
#######################################################################

data_SAFGEN
_symmetry_cell_setting           orthorhombic
_symmetry_space_group_name_H-M   'P 21 21 2'
_symmetry_Int_Tables_number      18
_space_group_name_Hall           'P 2 2ab'
loop_
_symmetry_equiv_pos_site_id
_symmetry_equiv_pos_as_xyz
1 x,y,z
2 -x,-y,z
3 1/2-x,1/2+y,-z
4 1/2+x,1/2-y,-z
_cell_length_a                   11.880(7)
_cell_length_b                   8.332(5)
_cell_length_c                   9.681(6)
_cell_angle_alpha                90
_cell_angle_beta                 90
_cell_angle_gamma                90
_cell_volume                     958.266
loop_
_atom_site_label
_atom_site_type_symbol
_atom_site_fract_x
_atom_site_fract_y
_atom_site_fract_z
Cu1 Cu 0.5000 0.0000 0.24820(5)
N1 N 0.5819(2) 0.1559(3) 0.3846(2)
O1 O 0.56779(19) 0.1530(3) 0.1064(2)
O2 O 0.6252(2) 0.4027(3) 0.0863(2)
O3 O 0.65208(19) -0.1264(3) 0.2638(3)
O4 O 0.83096(19) -0.0736(3) 0.3018(3)
O5 O 0.6061(2) -0.0298(3) 0.7037(2)
O6 O 0.6136(3) 0.7735(4) -0.0772(3)
K1 K 0.5000 0.5000 -0.14025(10)
K2 K 0.72836(6) 0.15198(9) 0.89192(7)
P1 P 0.5000 0.0000 0.62460(10)
C1 C 0.5802(3) 0.3100(4) 0.3092(3)
H1 H 0.6403 0.3779 0.3435
H2 H 0.5094 0.3641 0.3273
C2 C 0.5938(3) 0.2890(4) 0.1561(4)
C3 C 0.6992(3) 0.0996(4) 0.4033(4)
H3 H 0.7104 0.0719 0.4997
H4 H 0.7501 0.1871 0.3816
C4 C 0.7300(3) -0.0441(4) 0.3151(3)
C5 C 0.5181(3) 0.1745(4) 0.5159(3)
H5 H 0.4439 0.2150 0.4930
H6 H 0.5554 0.2565 0.5703
H7 H 0.613(3) 0.835(5) -0.158(3)
H8 H 0.569(4) 0.835(6) -0.017(5)
N1A N 0.4181(2) -0.1559(3) 0.3846(2)
O1A O 0.43221(19) -0.1530(3) 0.1064(2)
O1_2 O 0.56779(19) 0.1530(3) 1.1064(2)
O1A_2 O 0.43221(19) -0.1530(3) 1.1064(2)
O2A O 0.3748(2) -0.4027(3) 0.0863(2)
O2A_2 O 0.3748(2) 0.5973(3) 0.0863(2)
O2_2 O 0.6252(2) 0.4027(3) 1.0863(2)
O2B O 0.8748(2) -0.0973(3) 0.9137(2)
O2A_3 O 0.3748(2) -0.4027(3) 1.0863(2)
O2C O 0.1252(2) 0.0973(3) 0.9137(2)
O3A O 0.34792(19) 0.1264(3) 0.2638(3)
O3B O 0.84792(19) 0.3736(3) 0.7362(3)
O3C O 0.15208(19) -0.3736(3) 0.7362(3)
O4A O 0.16904(19) 0.0736(3) 0.3018(3)
O4C O 0.33096(19) 0.5736(3) -0.3018(3)
O4B O 0.66904(19) 0.4264(3) -0.3018(3)
O4B_2 O 0.66904(19) 0.4264(3) 0.6982(3)
O4C_2 O 0.33096(19) -0.4264(3) 0.6982(3)
O5A O 0.3939(2) 0.0298(3) 0.7037(2)
O6A O 0.3864(3) 0.2265(4) -0.0772(3)
O6B O 0.8864(3) 0.2735(4) 1.0772(3)
O6C O 0.1136(3) -0.2735(4) 1.0772(3)
K1B K 1.0000 0.0000 0.14025(10)
K1_2 K 0.5000 -0.5000 -0.14025(10)
K1B_2 K 0.0000 0.0000 0.14025(10)
K2A K 0.27164(6) -0.15198(9) 0.89192(7)
K2_2 K 0.72836(6) 0.15198(9) -0.10808(7)
K2B K 0.77164(6) 0.65198(9) 0.10808(7)
K2B_2 K 0.77164(6) -0.34802(9) 0.10808(7)
K2A_2 K 0.27164(6) -0.15198(9) -0.10808(7)
K2C K 0.22836(6) -0.65198(9) 0.10808(7)
K2C_2 K 0.22836(6) 0.34802(9) 0.10808(7)
C1A C 0.4198(3) -0.3100(4) 0.3092(3)
H1A H 0.3597 -0.3779 0.3435
H2A H 0.4906 -0.3641 0.3273
C2A C 0.4062(3) -0.2890(4) 0.1561(4)
C3A C 0.3008(3) -0.0996(4) 0.4033(4)
H3A H 0.2896 -0.0719 0.4997
H4A H 0.2499 -0.1871 0.3816
C4A C 0.2700(3) 0.0441(4) 0.3151(3)
C5A C 0.4819(3) -0.1745(4) 0.5159(3)
H5A H 0.5561 -0.2150 0.4930
H6A H 0.4446 -0.2565 0.5703
H7A H 0.387(3) 0.165(5) -0.158(3)
H7B H 0.887(3) 0.335(5) 1.158(3)
H7C H 0.113(3) -0.335(5) 1.158(3)
H8A H 0.431(4) 0.165(6) -0.017(5)
H8B H 0.931(4) 0.335(6) 1.017(5)
H8C H 0.069(4) -0.335(6) 1.017(5)
loop_
_geom_bond_atom_site_label_1
_geom_bond_atom_site_label_2
_geom_bond_site_symmetry_1
_geom_bond_site_symmetry_2
Cu1 N1 1_555 1_555
N1 C1 1_555 1_555
O1 Cu1 1_555 1_555
O2 K1 1_555 1_555
O3 Cu1 1_555 1_555
O4 C4 1_555 1_555
O5 K2 1_555 1_555
O6 K1 1_555 1_555
K1 O2A_2 1_555 1_555
K2 O1_2 1_555 1_555
P1 O5 1_555 1_555
C1 H1 1_555 1_555
H2 C1 1_555 1_555
C2 O1 1_555 1_555
C3 N1 1_555 1_555
H3 C3 1_555 1_555
H4 C3 1_555 1_555
C4 O3 1_555 1_555
C5 N1 1_555 1_555
H5 C5 1_555 1_555
H6 C5 1_555 1_555
H7 O6 1_555 1_555
H8 O6 1_555 1_555
N1A Cu1 1_555 1_555
O1A Cu1 1_555 1_555
O1A_2 K2A 1_555 1_555
O2A K1_2 1_555 1_555
O2A_2 K2C_2 1_555 1_555
O2_2 K2 1_555 1_555
O2B K2 1_555 1_555
O2A_3 K2A 1_555 1_555
O2C K2A 1_555 1_555
O3A Cu1 1_555 1_555
O3B K2 1_555 1_555
O3C K2A 1_555 1_555
O4A K1B_2 1_555 1_555
O4C K1 1_555 1_555
O4B K1 1_555 1_555
O4B_2 K2 1_555 1_555
O4C_2 K2A 1_555 1_555
O5A P1 1_555 1_555
O6A K1 1_555 1_555
O6B K2 1_555 1_555
O6C K2A 1_555 1_555
K1B O4 1_555 1_555
K2A O5A 1_555 1_555
K2_2 O1 1_555 1_555
K2B O2 1_555 1_555
K2B_2 O3 1_555 1_555
K2A_2 O1A 1_555 1_555
K2C O2A 1_555 1_555
K2C_2 O3A 1_555 1_555
C1A N1A 1_555 1_555
H1A C1A 1_555 1_555
H2A C1A 1_555 1_555
C2A O1A 1_555 1_555
C3A N1A 1_555 1_555
H3A C3A 1_555 1_555
H4A C3A 1_555 1_555
C4A O3A 1_555 1_555
C5A P1 1_555 1_555
H5A C5A 1_555 1_555
H6A C5A 1_555 1_555
H7A O6A 1_555 1_555
H7B O6B 1_555 1_555
H7C O6C 1_555 1_555
H8A O6A 1_555 1_555
H8B O6B 1_555 1_555
H8C O6C 1_555 1_555
O2 C2 1_555 1_555
O2 K2_2 1_555 1_555
O4 K2B_2 1_555 1_555
O6 K2B 1_555 1_555
P1 C5 1_555 1_555
C1 C2 1_555 1_555
C3 C4 1_555 1_555
N1A C5A 1_555 1_555
O2A K2A_2 1_555 1_555
O2A C2A 1_555 1_555
O4A K2C_2 1_555 1_555
O4A C4A 1_555 1_555
O4B K2_2 1_555 1_555
O6A K2C_2 1_555 1_555
C1A C2A 1_555 1_555
C3A C4A 1_555 1_555

#END
