
#######################################################################
#
#                 Cambridge Crystallographic Data Centre
#                                CCDC 
#
#######################################################################
#
# If this CIF has been generated from an entry in the Cambridge 
# Structural Database, then it will include bibliographic, chemical, 
# crystal, experimental, refinement or atomic coordinate data resulting 
# from the CCDC's data processing and validation procedures.
#
#######################################################################

data_SAFHUE
_symmetry_cell_setting           orthorhombic
_symmetry_space_group_name_H-M   'P b c a'
_symmetry_Int_Tables_number      61
_space_group_name_Hall           '-P 2ac 2ab'
loop_
_symmetry_equiv_pos_site_id
_symmetry_equiv_pos_as_xyz
1 x,y,z
2 1/2-x,-y,1/2+z
3 -x,1/2+y,1/2-z
4 1/2+x,1/2-y,-z
5 -x,-y,-z
6 1/2+x,y,1/2-z
7 x,1/2-y,1/2+z
8 1/2-x,1/2+y,z
_cell_length_a                   13.1985(8)
_cell_length_b                   15.5714(9)
_cell_length_c                   18.1926(11)
_cell_angle_alpha                90
_cell_angle_beta                 90
_cell_angle_gamma                90
_cell_volume                     3738.93
loop_
_atom_site_label
_atom_site_type_symbol
_atom_site_fract_x
_atom_site_fract_y
_atom_site_fract_z
Cd1 Cd 0.50573(2) 0.584163(18) 0.575068(16)
C1 C 0.3060(4) 0.7000(3) 0.6257(3)
H1 H 0.3218 0.7291 0.5826
C2 C 0.2259(4) 0.7293(3) 0.6667(3)
H2 H 0.1873 0.7758 0.6512
C3 C 0.2046(4) 0.6877(3) 0.7314(3)
H3 H 0.1518 0.7064 0.7613
C4 C 0.2620(4) 0.6187(3) 0.7511(3)
H4 H 0.2489 0.5903 0.7951
C5 C 0.3391(3) 0.5909(3) 0.7063(2)
C6 C 0.4024(4) 0.5140(3) 0.7238(2)
C7 C 0.3857(4) 0.4630(3) 0.7852(3)
H5 H 0.3346 0.4768 0.8183
C8 C 0.4453(4) 0.3916(3) 0.7965(3)
H6 H 0.4352 0.3573 0.8377
C9 C 0.5189(4) 0.3718(3) 0.7472(3)
H7 H 0.5590 0.3232 0.7533
C10 C 0.5323(5) 0.4249(4) 0.6888(3)
H8 H 0.5835 0.4116 0.6555
C11 C 0.6847(3) 0.4899(3) 0.5399(2)
C12 C 0.7761(3) 0.4466(3) 0.5081(2)
C13 C 0.8065(3) 0.3639(3) 0.5314(2)
C14 C 0.8932(3) 0.3269(3) 0.5012(3)
C15 C 0.9490(4) 0.3712(3) 0.4471(3)
C16 C 0.9164(4) 0.4521(3) 0.4247(3)
H9 H 0.9529 0.4813 0.3888
C17 C 0.8299(4) 0.4907(3) 0.4549(3)
C18 C 0.7974(5) 0.5776(3) 0.4262(3)
H10 H 0.7381 0.5964 0.4522
H11 H 0.7823 0.5733 0.3747
H12 H 0.8511 0.6183 0.4334
C19 C 0.7417(4) 0.3160(3) 0.5853(3)
H13 H 0.7717 0.2611 0.5955
H14 H 0.6753 0.3078 0.5648
H15 H 0.7365 0.3483 0.6301
C20 C 0.9284(3) 0.2395(3) 0.5264(3)
C21 C 1.0421(5) 0.3344(4) 0.4112(4)
H16 H 1.0683 0.3748 0.3761
H17 H 1.0249 0.2819 0.3866
H18 H 1.0926 0.3232 0.4479
N1 N 0.3624(3) 0.6324(2) 0.64418(19)
N2 N 0.4764(3) 0.4950(3) 0.6760(2)
O1 O 0.6951(3) 0.5405(2) 0.59115(17)
O2 O 0.5988(2) 0.47532(18) 0.51372(16)
O3 O 0.9433(3) 0.2269(2) 0.5937(2)
O4 O 0.9409(3) 0.18136(19) 0.48063(19)
Cd1D Cd 0.49427(2) 0.415837(18) 0.424932(16)
Cd1G Cd 0.99427(2) 0.084163(18) 0.575068(16)
O2D O 0.4012(2) 0.52468(18) 0.48628(16)
O3G O 0.5567(3) 0.7269(2) 0.5937(2)
O4G O 0.5591(3) 0.68136(19) 0.48063(19)
loop_
_geom_bond_atom_site_label_1
_geom_bond_atom_site_label_2
_geom_bond_site_symmetry_1
_geom_bond_site_symmetry_2
Cd1 N1 1_555 1_555
C1 H1 1_555 1_555
C2 C1 1_555 1_555
H2 C2 1_555 1_555
C3 C2 1_555 1_555
H3 C3 1_555 1_555
C4 C3 1_555 1_555
H4 C4 1_555 1_555
C5 C4 1_555 1_555
C6 C5 1_555 1_555
C7 C6 1_555 1_555
H5 C7 1_555 1_555
C8 C7 1_555 1_555
H6 C8 1_555 1_555
C9 C8 1_555 1_555
H7 C9 1_555 1_555
C10 C9 1_555 1_555
H8 C10 1_555 1_555
C11 C12 1_555 1_555
C12 C13 1_555 1_555
C13 C14 1_555 1_555
C14 C15 1_555 1_555
C15 C16 1_555 1_555
C16 H9 1_555 1_555
C17 C12 1_555 1_555
C18 C17 1_555 1_555
H10 C18 1_555 1_555
H11 C18 1_555 1_555
H12 C18 1_555 1_555
C19 C13 1_555 1_555
H13 C19 1_555 1_555
H14 C19 1_555 1_555
H15 C19 1_555 1_555
C20 C14 1_555 1_555
C21 C15 1_555 1_555
H16 C21 1_555 1_555
H17 C21 1_555 1_555
H18 C21 1_555 1_555
N1 C1 1_555 1_555
N2 Cd1 1_555 1_555
O1 Cd1 1_555 1_555
O2 Cd1 1_555 1_555
O3 C20 1_555 1_555
O4 C20 1_555 1_555
Cd1D O2 1_555 1_555
Cd1G O3 1_555 1_555
O2D Cd1 1_555 1_555
O3G Cd1 1_555 1_555
O4G Cd1 1_555 1_555
C5 N1 1_555 1_555
C6 N2 1_555 1_555
C10 N2 1_555 1_555
C11 O1 1_555 1_555
C11 O2 1_555 1_555
C16 C17 1_555 1_555
O4 Cd1G 1_555 1_555
Cd1D O2D 1_555 1_555

#END
