
#######################################################################
#
#                 Cambridge Crystallographic Data Centre
#                                CCDC 
#
#######################################################################
#
# If this CIF has been generated from an entry in the Cambridge 
# Structural Database, then it will include bibliographic, chemical, 
# crystal, experimental, refinement or atomic coordinate data resulting 
# from the CCDC's data processing and validation procedures.
#
#######################################################################

data_SAFKER
_symmetry_cell_setting           monoclinic
_symmetry_space_group_name_H-M   'P c'
_symmetry_Int_Tables_number      7
_space_group_name_Hall           'P -2yc'
loop_
_symmetry_equiv_pos_site_id
_symmetry_equiv_pos_as_xyz
1 x,y,z
2 x,-y,1/2+z
_cell_length_a                   9.154(2)
_cell_length_b                   7.9940(19)
_cell_length_c                   10.590(2)
_cell_angle_alpha                90
_cell_angle_beta                 106.040(3)
_cell_angle_gamma                90
_cell_volume                     744.776
loop_
_atom_site_label
_atom_site_type_symbol
_atom_site_fract_x
_atom_site_fract_y
_atom_site_fract_z
Cu1 Cu 0.61030(11) 0.52089(7) 0.66628(10)
N1 N -0.1787(6) 0.3833(6) 0.1934(5)
N2 N 0.4051(5) 0.4089(6) 0.6244(4)
N3 N 0.2208(7) 0.2714(9) 0.7028(5)
O1 O 0.5280(5) 0.7024(5) 0.5469(4)
O2 O 0.4417(8) 0.8581(8) 0.6826(5)
O3 O 0.7014(5) 0.3218(5) 0.7628(4)
O4 O 0.7659(6) 0.2455(7) 0.5853(4)
O5 O 0.5716(6) 0.6364(6) 0.8582(4)
H1 H 0.6520 0.6362 0.9166
H2 H 0.5193 0.7202 0.8342
C1 C -0.1278(8) 0.3318(7) 0.0925(6)
H3 H -0.1942 0.3295 0.0084
C2 C 0.0175(9) 0.2835(9) 0.1108(6)
H4 H 0.0487 0.2476 0.0388
C3 C 0.1209(9) 0.2859(8) 0.2328(6)
H5 H 0.2219 0.2558 0.2442
C4 C 0.0683(7) 0.3352(7) 0.3387(6)
C5 C -0.0823(7) 0.3815(7) 0.3133(6)
H6 H -0.1184 0.4131 0.3838
C6 C 0.3104(7) 0.4091(7) 0.5014(6)
H7 H 0.3416 0.4589 0.4338
C7 C 0.1690(7) 0.3374(7) 0.4744(6)
C8 C 0.1251(8) 0.2725(8) 0.5788(6)
H8 H 0.0278 0.2284 0.5643
C9 C 0.3576(8) 0.3358(8) 0.7159(6)
H9 H 0.4267 0.3281 0.7987
C10 C 0.4699(8) 0.8334(8) 0.5766(5)
C11 C 0.4311(13) 0.9693(10) 0.4751(9)
H10 H 0.4048 1.0693 0.5140
H11 H 0.3465 0.9346 0.4040
H12 H 0.5172 0.9909 0.4424
C12 C 0.7641(8) 0.2209(9) 0.6993(6)
C13 C 0.8361(11) 0.0699(10) 0.7730(8)
H13 H 0.9396 0.0946 0.8194
H14 H 0.8337 -0.0202 0.7125
H15 H 0.7814 0.0379 0.8345
Cu1A Cu -0.38970(11) 0.47911(7) 0.16628(10)
N1A N 0.8213(6) 0.6167(6) 0.6934(5)
loop_
_geom_bond_atom_site_label_1
_geom_bond_atom_site_label_2
_geom_bond_site_symmetry_1
_geom_bond_site_symmetry_2
Cu1 N2 1_555 1_555
N1 C1 1_555 1_555
N2 C6 1_555 1_555
N3 C8 1_555 1_555
O1 Cu1 1_555 1_555
O2 C10 1_555 1_555
O3 Cu1 1_555 1_555
O4 C12 1_555 1_555
O5 Cu1 1_555 1_555
H1 O5 1_555 1_555
H2 O5 1_555 1_555
C1 H3 1_555 1_555
C2 C1 1_555 1_555
H4 C2 1_555 1_555
C3 C2 1_555 1_555
H5 C3 1_555 1_555
C4 C3 1_555 1_555
C5 N1 1_555 1_555
H6 C5 1_555 1_555
C6 H7 1_555 1_555
C7 C4 1_555 1_555
C8 C7 1_555 1_555
H8 C8 1_555 1_555
C9 N2 1_555 1_555
H9 C9 1_555 1_555
C10 O1 1_555 1_555
C11 C10 1_555 1_555
H10 C11 1_555 1_555
H11 C11 1_555 1_555
H12 C11 1_555 1_555
C12 O3 1_555 1_555
C13 C12 1_555 1_555
H13 C13 1_555 1_555
H14 C13 1_555 1_555
H15 C13 1_555 1_555
Cu1A N1 1_555 1_555
N1A Cu1 1_555 1_555
N3 C9 1_555 1_555
C4 C5 1_555 1_555
C6 C7 1_555 1_555

#END
