
#######################################################################
#
#                 Cambridge Crystallographic Data Centre
#                                CCDC 
#
#######################################################################
#
# If this CIF has been generated from an entry in the Cambridge 
# Structural Database, then it will include bibliographic, chemical, 
# crystal, experimental, refinement or atomic coordinate data resulting 
# from the CCDC's data processing and validation procedures.
#
#######################################################################

data_SAFYUU
_symmetry_cell_setting           orthorhombic
_symmetry_space_group_name_H-M   'P n n a'
_symmetry_Int_Tables_number      52
_space_group_name_Hall           '-P 2a 2bc'
loop_
_symmetry_equiv_pos_site_id
_symmetry_equiv_pos_as_xyz
1 x,y,z
2 1/2+x,y,-z
3 1/2+x,1/2-y,1/2+z
4 -x,1/2+y,1/2+z
5 -x,-y,-z
6 1/2-x,-y,z
7 1/2-x,1/2+y,1/2-z
8 x,1/2-y,1/2-z
_cell_length_a                   11.378(2)
_cell_length_b                   15.625(3)
_cell_length_c                   16.048(3)
_cell_angle_alpha                90
_cell_angle_beta                 90
_cell_angle_gamma                90
_cell_volume                     2853.03
loop_
_atom_site_label
_atom_site_type_symbol
_atom_site_fract_x
_atom_site_fract_y
_atom_site_fract_z
Sm1 Sm 0.597151(12) 0.2500 0.2500
N1 N 0.7192(2) 0.18878(13) 0.38071(13)
N2 N 0.52891(19) 0.29360(13) 0.40094(13)
C1 C 0.8095(3) 0.1353(2) 0.3721(2)
H1 H 0.8345 0.1220 0.3185
C2 C 0.8687(4) 0.0981(3) 0.4387(3)
H2 H 0.9308 0.0606 0.4296
C3 C 0.8335(5) 0.1180(3) 0.5174(3)
H3 H 0.8707 0.0939 0.5634
C4 C 0.7428(4) 0.1737(3) 0.5276(2)
H4 H 0.7179 0.1882 0.5810
C5 C 0.6869(3) 0.20936(18) 0.45856(17)
C6 C 0.5920(3) 0.2725(2) 0.46868(19)
C7 C 0.5720(3) 0.3125(3) 0.5450(2)
H5 H 0.6180 0.2993 0.5911
C8 C 0.4825(4) 0.3723(3) 0.5511(2)
H6 H 0.4672 0.3991 0.6017
C9 C 0.4184(3) 0.3913(3) 0.4839(2)
H7 H 0.3583 0.4315 0.4872
C10 C 0.4422(3) 0.3509(2) 0.41001(19)
H8 H 0.3960 0.3638 0.3639
N3 N 0.51819(19) 0.10506(13) 0.28726(15)
N4 N 0.4658(3) -0.04313(19) 0.2630(3)
N5 N 0.2831(3) -0.1188(2) 0.2565(2)
N6 N 0.7338(2) 0.13941(13) 0.19004(14)
N7 N 0.7500 0.0000 0.12138(19)
C11 C 0.4858(2) 0.03693(17) 0.2775(2)
C12 C 0.3643(3) -0.07804(17) 0.26121(19)
C13 C 0.7411(2) 0.07180(15) 0.16100(15)
O1 O 0.3813(2) 0.2500 0.2500
C13E C 0.7589(2) -0.07180(15) 0.16100(15)
N6E N 0.7662(2) -0.13941(13) 0.19004(14)
N1G N 0.7192(2) 0.31122(13) 0.11929(13)
N2G N 0.52891(19) 0.20640(13) 0.09906(13)
C1G C 0.8095(3) 0.3647(2) 0.1279(2)
H1G H 0.8345 0.3780 0.1815
C2G C 0.8687(4) 0.4019(3) 0.0613(3)
H2G H 0.9308 0.4394 0.0704
C3G C 0.8335(5) 0.3820(3) -0.0174(3)
H3G H 0.8707 0.4061 -0.0634
C4G C 0.7428(4) 0.3263(3) -0.0276(2)
H4G H 0.7179 0.3118 -0.0810
C5G C 0.6869(3) 0.29064(18) 0.04144(17)
C6G C 0.5920(3) 0.2275(2) 0.03132(19)
C7G C 0.5720(3) 0.1875(3) -0.0450(2)
H5G H 0.6180 0.2007 -0.0911
C8G C 0.4825(4) 0.1277(3) -0.0511(2)
H6G H 0.4672 0.1009 -0.1017
C9G C 0.4184(3) 0.1087(3) 0.0161(2)
H7G H 0.3583 0.0685 0.0128
C10G C 0.4422(3) 0.1491(2) 0.08999(19)
H8G H 0.3960 0.1362 0.1361
N3G N 0.51819(19) 0.39494(13) 0.21274(15)
N4G N 0.4658(3) 0.54313(19) 0.2370(3)
N5G N 0.2831(3) 0.6188(2) 0.2435(2)
C11G C 0.4858(2) 0.46307(17) 0.2225(2)
C12G C 0.3643(3) 0.57804(17) 0.23879(19)
N6G N 0.7338(2) 0.36059(13) 0.30996(14)
Sm1E Sm 0.902849(12) -0.2500 0.2500
loop_
_geom_bond_atom_site_label_1
_geom_bond_atom_site_label_2
_geom_bond_site_symmetry_1
_geom_bond_site_symmetry_2
Sm1 N1 1_555 1_555
N1 C1 1_555 1_555
N2 Sm1 1_555 1_555
C1 H1 1_555 1_555
C2 C1 1_555 1_555
H2 C2 1_555 1_555
C3 C2 1_555 1_555
H3 C3 1_555 1_555
C4 C3 1_555 1_555
H4 C4 1_555 1_555
C5 N1 1_555 1_555
C6 N2 1_555 1_555
C7 C6 1_555 1_555
H5 C7 1_555 1_555
C8 C7 1_555 1_555
H6 C8 1_555 1_555
C9 C8 1_555 1_555
H7 C9 1_555 1_555
C10 N2 1_555 1_555
H8 C10 1_555 1_555
N3 Sm1 1_555 1_555
N4 C11 1_555 1_555
N5 C12 1_555 1_555
N6 Sm1 1_555 1_555
N7 C13 1_555 1_555
C11 N3 1_555 1_555
C12 N4 1_555 1_555
C13 N6 1_555 1_555
O1 Sm1 1_555 1_555
C13E N7 1_555 1_555
N6E C13E 1_555 1_555
N1G Sm1 1_555 1_555
N2G Sm1 1_555 1_555
C1G N1G 1_555 1_555
H1G C1G 1_555 1_555
C2G C1G 1_555 1_555
H2G C2G 1_555 1_555
C3G C2G 1_555 1_555
H3G C3G 1_555 1_555
C4G C3G 1_555 1_555
H4G C4G 1_555 1_555
C5G N1G 1_555 1_555
C6G N2G 1_555 1_555
C7G C6G 1_555 1_555
H5G C7G 1_555 1_555
C8G C7G 1_555 1_555
H6G C8G 1_555 1_555
C9G C8G 1_555 1_555
H7G C9G 1_555 1_555
C10G N2G 1_555 1_555
H8G C10G 1_555 1_555
N3G Sm1 1_555 1_555
N4G C11G 1_555 1_555
N5G C12G 1_555 1_555
C11G N3G 1_555 1_555
C12G N4G 1_555 1_555
N6G Sm1 1_555 1_555
Sm1E N6E 1_555 1_555
C4 C5 1_555 1_555
C5 C6 1_555 1_555
C9 C10 1_555 1_555
C4G C5G 1_555 1_555
C5G C6G 1_555 1_555
C9G C10G 1_555 1_555

#END
