
#######################################################################
#
#                 Cambridge Crystallographic Data Centre
#                                CCDC 
#
#######################################################################
#
# If this CIF has been generated from an entry in the Cambridge 
# Structural Database, then it will include bibliographic, chemical, 
# crystal, experimental, refinement or atomic coordinate data resulting 
# from the CCDC's data processing and validation procedures.
#
#######################################################################

data_SAFYOO
_symmetry_cell_setting           orthorhombic
_symmetry_space_group_name_H-M   'P n n a'
_symmetry_Int_Tables_number      52
_space_group_name_Hall           '-P 2a 2bc'
loop_
_symmetry_equiv_pos_site_id
_symmetry_equiv_pos_as_xyz
1 x,y,z
2 1/2+x,y,-z
3 1/2+x,1/2-y,1/2+z
4 -x,1/2+y,1/2+z
5 -x,-y,-z
6 1/2-x,-y,z
7 1/2-x,1/2+y,1/2-z
8 x,1/2-y,1/2-z
_cell_length_a                   11.3940(10)
_cell_length_b                   15.5392(11)
_cell_length_c                   15.9601(12)
_cell_angle_alpha                90
_cell_angle_beta                 90
_cell_angle_gamma                90
_cell_volume                     2825.79
loop_
_atom_site_label
_atom_site_type_symbol
_atom_site_fract_x
_atom_site_fract_y
_atom_site_fract_z
Gd1 Gd 0.59570(2) 0.2500 0.2500
N1 N 0.7500 0.0000 0.3784(3)
N2 N 0.7183(3) 0.1888(2) 0.1205(2)
C1 C 0.7393(4) 0.0718(3) 0.3383(2)
N3 N 0.5280(3) 0.2932(2) 0.0998(2)
C2 C 0.6860(5) 0.2087(3) 0.0422(3)
N4 N 0.7302(3) 0.1393(2) 0.3095(2)
C3 C 0.4854(4) 0.0376(3) 0.2225(3)
C4 C 0.5909(4) 0.2718(4) 0.0318(3)
N5 N 0.5175(3) 0.1061(2) 0.2122(3)
C5 C 0.8089(6) 0.1356(4) 0.1287(4)
H1 H 0.8342 0.1223 0.1826
C6 C 0.4417(5) 0.3508(3) 0.0909(3)
H2 H 0.3967 0.3642 0.1377
C7 C 0.5686(6) 0.3120(5) -0.0443(4)
H3 H 0.6137 0.2984 -0.0911
C8 C 0.4803(7) 0.3716(6) -0.0508(4)
H4 H 0.4653 0.3982 -0.1019
O1 O 0.3829(4) 0.2500 0.2500
C9 C 0.4155(6) 0.3915(5) 0.0168(4)
H5 H 0.3550 0.4315 0.0135
C10 C 0.7410(7) 0.1730(5) -0.0268(4)
H6 H 0.7156 0.1868 -0.0805
C11 C 0.8674(7) 0.0989(5) 0.0627(5)
H7 H 0.9302 0.0619 0.0719
N6 N 0.4660(4) -0.0429(3) 0.2366(5)
C12 C 0.8323(8) 0.1176(5) -0.0160(4)
H8 H 0.8698 0.0931 -0.0619
N7 N 0.2837(4) -0.1190(3) 0.2431(4)
C13 C 0.3639(5) -0.0784(3) 0.2386(3)
C1E C 0.7607(4) -0.0718(3) 0.3383(2)
N4E N 0.7698(3) -0.1393(2) 0.3095(2)
N2G N 0.7183(3) 0.3112(2) 0.3795(2)
N3G N 0.5280(3) 0.2068(2) 0.4002(2)
C2G C 0.6860(5) 0.2913(3) 0.4578(3)
C4G C 0.5909(4) 0.2282(4) 0.4682(3)
C5G C 0.8089(6) 0.3644(4) 0.3713(4)
H1G H 0.8342 0.3777 0.3174
C6G C 0.4417(5) 0.1492(3) 0.4091(3)
H2G H 0.3967 0.1358 0.3623
C7G C 0.5686(6) 0.1880(5) 0.5443(4)
H3G H 0.6137 0.2016 0.5911
C8G C 0.4803(7) 0.1284(6) 0.5508(4)
H4G H 0.4653 0.1018 0.6019
C9G C 0.4155(6) 0.1085(5) 0.4832(4)
H5G H 0.3550 0.0685 0.4865
C10G C 0.7410(7) 0.3270(5) 0.5268(4)
H6G H 0.7156 0.3132 0.5805
C11G C 0.8674(7) 0.4011(5) 0.4373(5)
H7G H 0.9302 0.4381 0.4281
C12G C 0.8323(8) 0.3824(5) 0.5160(4)
H8G H 0.8698 0.4069 0.5619
C3G C 0.4854(4) 0.4624(3) 0.2775(3)
N5G N 0.5175(3) 0.3939(2) 0.2878(3)
N6G N 0.4660(4) 0.5429(3) 0.2634(5)
N7G N 0.2837(4) 0.6190(3) 0.2569(4)
C13G C 0.3639(5) 0.5784(3) 0.2614(3)
N4G N 0.7302(3) 0.3607(2) 0.1905(2)
Gd1E Gd 0.90430(2) -0.2500 0.2500
loop_
_geom_bond_atom_site_label_1
_geom_bond_atom_site_label_2
_geom_bond_site_symmetry_1
_geom_bond_site_symmetry_2
Gd1 N2 1_555 1_555
N1 C1 1_555 1_555
N2 C2 1_555 1_555
C1 N4 1_555 1_555
N3 Gd1 1_555 1_555
C2 C4 1_555 1_555
N4 Gd1 1_555 1_555
C3 N5 1_555 1_555
C4 N3 1_555 1_555
N5 Gd1 1_555 1_555
C5 N2 1_555 1_555
H1 C5 1_555 1_555
C6 N3 1_555 1_555
H2 C6 1_555 1_555
C7 C4 1_555 1_555
H3 C7 1_555 1_555
C8 C7 1_555 1_555
H4 C8 1_555 1_555
O1 Gd1 1_555 1_555
C9 C6 1_555 1_555
H5 C9 1_555 1_555
C10 C2 1_555 1_555
H6 C10 1_555 1_555
C11 C5 1_555 1_555
H7 C11 1_555 1_555
N6 C3 1_555 1_555
C12 C10 1_555 1_555
H8 C12 1_555 1_555
N7 C13 1_555 1_555
C13 N6 1_555 1_555
C1E N1 1_555 1_555
N4E C1E 1_555 1_555
N2G Gd1 1_555 1_555
N3G Gd1 1_555 1_555
C2G N2G 1_555 1_555
C4G N3G 1_555 1_555
C5G N2G 1_555 1_555
H1G C5G 1_555 1_555
C6G N3G 1_555 1_555
H2G C6G 1_555 1_555
C7G C4G 1_555 1_555
H3G C7G 1_555 1_555
C8G C7G 1_555 1_555
H4G C8G 1_555 1_555
C9G C6G 1_555 1_555
H5G C9G 1_555 1_555
C10G C2G 1_555 1_555
H6G C10G 1_555 1_555
C11G C5G 1_555 1_555
H7G C11G 1_555 1_555
C12G C10G 1_555 1_555
H8G C12G 1_555 1_555
C3G N5G 1_555 1_555
N5G Gd1 1_555 1_555
N6G C3G 1_555 1_555
N7G C13G 1_555 1_555
C13G N6G 1_555 1_555
N4G Gd1 1_555 1_555
Gd1E N4E 1_555 1_555
C8 C9 1_555 1_555
C11 C12 1_555 1_555
C2G C4G 1_555 1_555
C8G C9G 1_555 1_555
C11G C12G 1_555 1_555

#END
