
#######################################################################
#
#                 Cambridge Crystallographic Data Centre
#                                CCDC 
#
#######################################################################
#
# If this CIF has been generated from an entry in the Cambridge 
# Structural Database, then it will include bibliographic, chemical, 
# crystal, experimental, refinement or atomic coordinate data resulting 
# from the CCDC's data processing and validation procedures.
#
#######################################################################

data_SAFZAB
_symmetry_cell_setting           orthorhombic
_symmetry_space_group_name_H-M   'P n n a'
_symmetry_Int_Tables_number      52
_space_group_name_Hall           '-P 2a 2bc'
loop_
_symmetry_equiv_pos_site_id
_symmetry_equiv_pos_as_xyz
1 x,y,z
2 1/2+x,y,-z
3 1/2+x,1/2-y,1/2+z
4 -x,1/2+y,1/2+z
5 -x,-y,-z
6 1/2-x,-y,z
7 1/2-x,1/2+y,1/2-z
8 x,1/2-y,1/2-z
_cell_length_a                   11.2806(6)
_cell_length_b                   15.8467(9)
_cell_length_c                   16.1837(10)
_cell_angle_alpha                90
_cell_angle_beta                 90
_cell_angle_gamma                90
_cell_volume                     2893
loop_
_atom_site_label
_atom_site_type_symbol
_atom_site_fract_x
_atom_site_fract_y
_atom_site_fract_z
La1 La 0.898313(18) 0.2500 0.2500
O1 O 1.1210(3) 0.2500 0.2500
N1 N 0.7773(2) 0.18823(15) 0.38580(15)
N2 N 0.9671(2) 0.29385(16) 0.40480(14)
N3 N 0.9812(2) 0.10111(16) 0.2855(2)
N4 N 1.0359(4) -0.0437(3) 0.2663(4)
N5 N 1.2157(4) -0.1190(3) 0.2533(2)
N6 N 0.7548(2) 0.13775(14) 0.18896(16)
N7 N 0.7500 0.0000 0.1206(2)
C1 C 0.6896(4) 0.1332(3) 0.3776(2)
H1 H 0.6660 0.1188 0.3244
C2 C 0.6311(5) 0.0961(3) 0.4429(3)
H2 H 0.5712 0.0567 0.4343
C3 C 0.6639(6) 0.1189(4) 0.5198(3)
H3 H 0.6248 0.0963 0.5653
C4 C 0.7541(5) 0.1748(3) 0.5310(3)
H4 H 0.7790 0.1895 0.5839
C5 C 0.8081(3) 0.2095(2) 0.46200(19)
C6 C 0.9028(3) 0.2739(3) 0.4717(2)
C7 C 0.9225(4) 0.3144(4) 0.5464(2)
H5 H 0.8764 0.3015 0.5924
C8 C 1.0110(4) 0.3740(4) 0.5520(3)
H6 H 1.0248 0.4013 0.6020
C9 C 1.0781(4) 0.3930(3) 0.4850(3)
H7 H 1.1385 0.4329 0.4878
C10 C 1.0529(3) 0.3509(2) 0.4128(2)
H8 H 1.0989 0.3630 0.3666
C11 C 1.0146(3) 0.03415(19) 0.2775(2)
C12 C 1.1365(4) -0.0793(2) 0.2607(2)
C13 C 0.7529(2) 0.07093(17) 0.16115(15)
C13E C 0.7471(2) -0.07093(17) 0.16115(15)
N6E N 0.7452(2) -0.13775(14) 0.18896(16)
N1G N 0.7773(2) 0.31177(15) 0.11420(15)
N2G N 0.9671(2) 0.20615(16) 0.09520(14)
C1G C 0.6896(4) 0.3668(3) 0.1224(2)
H1G H 0.6660 0.3812 0.1756
C2G C 0.6311(5) 0.4039(3) 0.0571(3)
H2G H 0.5712 0.4433 0.0657
C3G C 0.6639(6) 0.3811(4) -0.0198(3)
H3G H 0.6248 0.4037 -0.0653
C4G C 0.7541(5) 0.3252(3) -0.0310(3)
H4G H 0.7790 0.3105 -0.0839
C5G C 0.8081(3) 0.2905(2) 0.03800(19)
C6G C 0.9028(3) 0.2261(3) 0.0283(2)
C7G C 0.9225(4) 0.1856(4) -0.0464(2)
H5G H 0.8764 0.1985 -0.0924
C8G C 1.0110(4) 0.1260(4) -0.0520(3)
H6G H 1.0248 0.0987 -0.1020
C9G C 1.0781(4) 0.1070(3) 0.0150(3)
H7G H 1.1385 0.0671 0.0122
C10G C 1.0529(3) 0.1491(2) 0.0872(2)
H8G H 1.0989 0.1370 0.1334
N3G N 0.9812(2) 0.39889(16) 0.2145(2)
N4G N 1.0359(4) 0.5437(3) 0.2337(4)
N5G N 1.2157(4) 0.6190(3) 0.2467(2)
C11G C 1.0146(3) 0.46585(19) 0.2225(2)
C12G C 1.1365(4) 0.5793(2) 0.2393(2)
N6G N 0.7548(2) 0.36225(14) 0.31104(16)
La1E La 0.601687(18) -0.2500 0.2500
loop_
_geom_bond_atom_site_label_1
_geom_bond_atom_site_label_2
_geom_bond_site_symmetry_1
_geom_bond_site_symmetry_2
La1 O1 1_555 1_555
N1 La1 1_555 1_555
N2 La1 1_555 1_555
N3 La1 1_555 1_555
N4 C11 1_555 1_555
N5 C12 1_555 1_555
N6 La1 1_555 1_555
N7 C13 1_555 1_555
C1 N1 1_555 1_555
H1 C1 1_555 1_555
C2 C1 1_555 1_555
H2 C2 1_555 1_555
C3 C2 1_555 1_555
H3 C3 1_555 1_555
C4 C3 1_555 1_555
H4 C4 1_555 1_555
C5 N1 1_555 1_555
C6 N2 1_555 1_555
C7 C6 1_555 1_555
H5 C7 1_555 1_555
C8 C7 1_555 1_555
H6 C8 1_555 1_555
C9 C8 1_555 1_555
H7 C9 1_555 1_555
C10 N2 1_555 1_555
H8 C10 1_555 1_555
C11 N3 1_555 1_555
C12 N4 1_555 1_555
C13 N6 1_555 1_555
C13E N7 1_555 1_555
N6E C13E 1_555 1_555
N1G La1 1_555 1_555
N2G La1 1_555 1_555
C1G N1G 1_555 1_555
H1G C1G 1_555 1_555
C2G C1G 1_555 1_555
H2G C2G 1_555 1_555
C3G C2G 1_555 1_555
H3G C3G 1_555 1_555
C4G C3G 1_555 1_555
H4G C4G 1_555 1_555
C5G N1G 1_555 1_555
C6G N2G 1_555 1_555
C7G C6G 1_555 1_555
H5G C7G 1_555 1_555
C8G C7G 1_555 1_555
H6G C8G 1_555 1_555
C9G C8G 1_555 1_555
H7G C9G 1_555 1_555
C10G N2G 1_555 1_555
H8G C10G 1_555 1_555
N3G La1 1_555 1_555
N4G C11G 1_555 1_555
N5G C12G 1_555 1_555
C11G N3G 1_555 1_555
C12G N4G 1_555 1_555
N6G La1 1_555 1_555
La1E N6E 1_555 1_555
C4 C5 1_555 1_555
C5 C6 1_555 1_555
C9 C10 1_555 1_555
C4G C5G 1_555 1_555
C5G C6G 1_555 1_555
C9G C10G 1_555 1_555

#END
