
#######################################################################
#
#                 Cambridge Crystallographic Data Centre
#                                CCDC 
#
#######################################################################
#
# If this CIF has been generated from an entry in the Cambridge 
# Structural Database, then it will include bibliographic, chemical, 
# crystal, experimental, refinement or atomic coordinate data resulting 
# from the CCDC's data processing and validation procedures.
#
#######################################################################

data_SAGHIS
_symmetry_cell_setting           monoclinic
_symmetry_space_group_name_H-M   'P 21/c'
_symmetry_Int_Tables_number      14
_space_group_name_Hall           '-P 2ybc'
loop_
_symmetry_equiv_pos_site_id
_symmetry_equiv_pos_as_xyz
1 x,y,z
2 x,1/2-y,1/2+z
3 -x,-y,-z
4 -x,1/2+y,1/2-z
_cell_length_a                   18.436(3)
_cell_length_b                   11.257(3)
_cell_length_c                   20.228(3)
_cell_angle_alpha                90.00
_cell_angle_beta                 106.268(11)
_cell_angle_gamma                90.00
_cell_volume                     4029.92
loop_
_atom_site_label
_atom_site_type_symbol
_atom_site_fract_x
_atom_site_fract_y
_atom_site_fract_z
O13 O 0.2443(4) 0.9529(7) 0.4783(4)
C39 C 0.9891(17) 0.5038(19) 0.4565(16)
C40 C 0.886(2) 0.569(3) 0.425(3)
C41 C 0.930(3) 0.551(2) 0.564(2)
C42 C 0.878(2) 0.581(3) 0.504(2)
C43 C 0.961(4) 0.524(4) 0.399(3)
C39B C 1.0109(17) 0.4962(19) 0.5435(16)
C43B C 1.039(4) 0.476(4) 0.601(3)
C40B C 1.114(2) 0.431(3) 0.575(3)
C42B C 1.122(2) 0.419(3) 0.496(2)
C41B C 1.070(3) 0.449(2) 0.436(2)
C44 C 0.534(6) -0.028(5) 0.068(3)
C45 C 0.602(6) -0.062(6) 0.027(8)
C46 C 0.456(6) 0.034(4) 0.033(6)
C46B C 0.544(6) -0.034(4) -0.033(6)
C44B C 0.466(6) 0.028(5) -0.068(3)
C45B C 0.398(6) 0.062(6) -0.027(8)
Ni1 Ni 0.66343(6) 0.25375(10) 0.31269(5)
Ni2 Ni 0.82576(6) 0.23173(10) 0.19286(5)
O1 O 0.6754(3) 0.2415(6) 0.4178(3)
O2 O 0.5613(3) 0.2355(6) 0.3481(3)
O3 O 0.7793(3) 0.2796(6) 0.3328(3)
O4 O 0.6135(3) 0.2375(5) 0.7115(3)
O5 O 0.8760(3) 0.2248(6) 0.2937(3)
O6 O 0.7088(3) 0.2851(6) 0.6694(3)
O7 O 0.9286(3) 0.2560(6) 0.6570(3)
O8 O 0.8139(3) 0.2580(6) 0.5872(3)
O9 O 1.1112(4) 0.0857(9) 0.4471(4)
H1 H 1.1518 0.0506 0.4575
O10 O 1.1284(4) 0.0811(9) 0.5601(4)
O11 O 0.3604(4) 0.0761(8) 0.4501(4)
O12 O 0.3802(5) 0.0760(12) 0.5616(5)
H2 H 0.3482 0.0234 0.5517
N1 N 0.6661(5) 0.0682(6) 0.3033(4)
N2 N 0.6526(4) -0.5596(7) 0.3130(4)
N3 N 0.8313(5) 0.0447(7) 0.1928(4)
N4 N 0.8271(4) -0.5828(7) 0.2008(4)
C1 C 0.6027(6) 0.0119(9) 0.2723(5)
H3 H 0.5604 0.0573 0.2512
C2 C 0.7251(6) 0.0017(9) 0.3326(6)
H4 H 0.7704 0.0389 0.3549
C3 C 0.5956(6) -0.1089(8) 0.2695(5)
H5 H 0.5502 -0.1438 0.2452
C4 C 0.7226(6) -0.1207(9) 0.3317(6)
H6 H 0.7667 -0.1633 0.3507
C5 C 0.6575(6) -0.1802(7) 0.3037(5)
C6 C 0.6515(6) -0.3125(8) 0.3062(5)
C7 C 0.7018(8) -0.3733(10) 0.3612(6)
H7 H 0.7356 -0.3321 0.3966
C8 C 0.6052(5) -0.4998(8) 0.2641(5)
H8 H 0.5710 -0.5439 0.2305
C9 C 0.6994(7) -0.4945(10) 0.3609(7)
H9 H 0.7332 -0.5342 0.3969
C10 C 0.6008(6) -0.3770(8) 0.2572(5)
H10 H 0.5651 -0.3406 0.2211
C11 C 0.7779(7) -0.0184(9) 0.1497(6)
H11 H 0.7396 0.0208 0.1173
C12 C 0.8867(6) -0.0127(9) 0.2380(5)
H12 H 0.9248 0.0314 0.2677
C13 C 0.7779(7) -0.1414(9) 0.1519(6)
H13 H 0.7399 -0.1838 0.1209
C14 C 0.8899(6) -0.1363(9) 0.2425(5)
H14 H 0.9297 -0.1741 0.2742
C15 C 0.8334(6) -0.2004(9) 0.1994(5)
C16 C 0.8333(6) -0.3335(8) 0.2034(5)
C17 C 0.7645(6) -0.3944(10) 0.1859(6)
H15 H 0.7190 -0.3529 0.1743
C18 C 0.8982(6) -0.4037(9) 0.2217(6)
H16 H 0.9455 -0.3681 0.2366
C19 C 0.7650(6) -0.5172(9) 0.1861(6)
H17 H 0.7187 -0.5562 0.1753
C20 C 0.8924(6) -0.5241(10) 0.2179(6)
H18 H 0.9368 -0.5681 0.2278
C21 C 0.6054(5) 0.2316(8) 0.4085(5)
C22 C 0.4017(6) 0.0993(12) 0.5118(6)
C23 C 0.6440(5) 0.2544(7) 0.6638(5)
C24 C 0.5757(5) 0.2171(8) 0.4693(4)
C25 C 0.5030(5) 0.1719(9) 0.4613(5)
H19 H 0.4722 0.1542 0.4175
C26 C 0.4766(6) 0.1535(10) 0.5181(5)
C27 C 0.5209(6) 0.1829(9) 0.5822(5)
H20 H 0.5023 0.1725 0.6201
C28 C 0.5942(5) 0.2285(8) 0.5922(4)
C29 C 0.6213(5) 0.2433(8) 0.5348(4)
H21 H 0.6702 0.2710 0.5405
C30 C 0.8436(4) 0.2445(7) 0.3408(4)
C31 C 0.8846(5) 0.2497(8) 0.5970(4)
C32 C 1.0894(6) 0.1053(10) 0.5036(6)
C33 C 0.8951(4) 0.2249(8) 0.4132(4)
C34 C 0.8684(5) 0.2471(8) 0.4703(4)
H22 H 0.8194 0.2747 0.4639
C35 C 0.9146(5) 0.2283(8) 0.5364(4)
C36 C 0.9862(5) 0.1830(9) 0.5461(5)
H23 H 1.0165 0.1676 0.5904
C37 C 1.0133(5) 0.1601(9) 0.4901(5)
C38 C 0.9678(5) 0.1798(8) 0.4238(4)
H24 H 0.9859 0.1628 0.3863
O1A O 0.6754(3) 0.2585(6) -0.0822(3)
O2A O 0.5613(3) 0.2645(6) -0.1519(3)
O4A O 0.6135(3) 0.2625(5) 0.2115(3)
O6A O 0.7088(3) 0.2149(6) 0.1694(3)
O11A O 0.3604(4) 0.4239(8) -0.0499(4)
O12A O 0.3802(5) 0.4240(12) 0.0616(5)
H2A H 0.3482 0.4766 0.0517
C21A C 0.6054(5) 0.2684(8) -0.0915(5)
C22A C 0.4017(6) 0.4007(12) 0.0118(6)
C23A C 0.6440(5) 0.2456(7) 0.1638(5)
C24A C 0.5757(5) 0.2829(8) -0.0307(4)
C25A C 0.5030(5) 0.3281(9) -0.0387(5)
H19A H 0.4722 0.3458 -0.0825
C26A C 0.4766(6) 0.3465(10) 0.0181(5)
C27A C 0.5209(6) 0.3171(9) 0.0822(5)
H20A H 0.5023 0.3275 0.1201
C28A C 0.5942(5) 0.2715(8) 0.0922(4)
C29A C 0.6213(5) 0.2567(8) 0.0348(4)
H21A H 0.6702 0.2290 0.0405
N1_2 N 0.6661(5) 1.0682(6) 0.3033(4)
N2_2 N 0.6526(4) 0.4404(7) 0.3130(4)
C1_2 C 0.6027(6) 1.0119(9) 0.2723(5)
H3_2 H 0.5604 1.0573 0.2512
C2_2 C 0.7251(6) 1.0017(9) 0.3326(6)
H4_2 H 0.7704 1.0389 0.3549
C3_2 C 0.5956(6) 0.8911(8) 0.2695(5)
H5_2 H 0.5502 0.8562 0.2452
C4_2 C 0.7226(6) 0.8793(9) 0.3317(6)
H6_2 H 0.7667 0.8367 0.3507
C5_2 C 0.6575(6) 0.8198(7) 0.3037(5)
C6_2 C 0.6515(6) 0.6875(8) 0.3062(5)
C7_2 C 0.7018(8) 0.6267(10) 0.3612(6)
H7_2 H 0.7356 0.6679 0.3966
C8_2 C 0.6052(5) 0.5002(8) 0.2641(5)
H8_2 H 0.5710 0.4561 0.2305
C9_2 C 0.6994(7) 0.5055(10) 0.3609(7)
H9_2 H 0.7332 0.4658 0.3969
C10_2 C 0.6008(6) 0.6230(8) 0.2572(5)
H10_2 H 0.5651 0.6594 0.2211
Ni1A Ni 0.66343(6) 0.24625(10) -0.18731(5)
Ni2A Ni 0.82576(6) 0.26827(10) 0.69286(5)
O3A O 0.7793(3) 0.2204(6) -0.1672(3)
O5A O 0.8760(3) 0.2752(6) -0.2063(3)
O7A O 0.9286(3) 0.2440(6) 0.1570(3)
O8A O 0.8139(3) 0.2420(6) 0.0872(3)
O9A O 1.1112(4) 0.4143(9) -0.0529(4)
H1A H 1.1518 0.4494 -0.0425
O10A O 1.1284(4) 0.4189(9) 0.0601(4)
C30A C 0.8436(4) 0.2555(7) -0.1592(4)
C31A C 0.8846(5) 0.2503(8) 0.0970(4)
C32A C 1.0894(6) 0.3947(10) 0.0036(6)
C33A C 0.8951(4) 0.2751(8) -0.0868(4)
C34A C 0.8684(5) 0.2529(8) -0.0297(4)
H22A H 0.8194 0.2253 -0.0361
C35A C 0.9146(5) 0.2717(8) 0.0364(4)
C36A C 0.9862(5) 0.3170(9) 0.0461(5)
H23A H 1.0165 0.3324 0.0904
C37A C 1.0133(5) 0.3399(9) -0.0099(5)
C38A C 0.9678(5) 0.3202(8) -0.0762(4)
H24A H 0.9859 0.3372 -0.1137
N3_2 N 0.8313(5) 1.0447(7) 0.1928(4)
N4_2 N 0.8271(4) 0.4172(7) 0.2008(4)
C11_2 C 0.7779(7) 0.9816(9) 0.1497(6)
H11_2 H 0.7396 1.0208 0.1173
C12_2 C 0.8867(6) 0.9873(9) 0.2380(5)
H12_2 H 0.9248 1.0314 0.2677
C13_2 C 0.7779(7) 0.8586(9) 0.1519(6)
H13_2 H 0.7399 0.8162 0.1209
C14_2 C 0.8899(6) 0.8637(9) 0.2425(5)
H14_2 H 0.9297 0.8259 0.2742
C15_2 C 0.8334(6) 0.7996(9) 0.1994(5)
C16_2 C 0.8333(6) 0.6665(8) 0.2034(5)
C17_2 C 0.7645(6) 0.6056(10) 0.1859(6)
H15_2 H 0.7190 0.6471 0.1743
C18_2 C 0.8982(6) 0.5963(9) 0.2217(6)
H16_2 H 0.9455 0.6319 0.2366
C19_2 C 0.7650(6) 0.4828(9) 0.1861(6)
H17_2 H 0.7187 0.4438 0.1753
C20_2 C 0.8924(6) 0.4759(10) 0.2179(6)
H18_2 H 0.9368 0.4319 0.2278
Ni1A_2 Ni 0.66343(6) 0.24625(10) 0.81269(5)
Ni1_2 Ni 0.66343(6) -0.74625(10) 0.31269(5)
Ni2_2 Ni 0.82576(6) -0.76827(10) 0.19286(5)
Ni1_3 Ni 0.66343(6) 1.25375(10) 0.31269(5)
O4_2 O 0.6135(3) 0.2375(5) -0.2885(3)
N1A N 0.6661(5) 0.4318(6) -0.1967(4)
N2A N 0.6526(4) 0.0596(7) -0.1870(4)
O5A_2 O 0.8760(3) 0.2752(6) 0.7937(3)
N3A N 0.8313(5) 0.4553(7) 0.6928(4)
N4A N 0.8271(4) 0.0828(7) 0.7008(4)
Ni2A_2 Ni 0.82576(6) 0.26827(10) -0.30714(5)
Ni2_3 Ni 0.82576(6) 1.23173(10) 0.19286(5)
loop_
_geom_bond_atom_site_label_1
_geom_bond_atom_site_label_2
_geom_bond_site_symmetry_1
_geom_bond_site_symmetry_2
Ni1 O1 1_555 1_555
Ni2 O5 1_555 1_555
O1 C21 1_555 1_555
O2 Ni1 1_555 1_555
O3 Ni1 1_555 1_555
O4 C23 1_555 1_555
O5 C30 1_555 1_555
O6 C23 1_555 1_555
O7 C31 1_555 1_555
O8 C31 1_555 1_555
O9 H1 1_555 1_555
O10 C32 1_555 1_555
O11 C22 1_555 1_555
O12 H2 1_555 1_555
N1 Ni1 1_555 1_555
N2 C8 1_555 1_555
N3 Ni2 1_555 1_555
N4 C19 1_555 1_555
C1 N1 1_555 1_555
H3 C1 1_555 1_555
C2 N1 1_555 1_555
H4 C2 1_555 1_555
C3 C1 1_555 1_555
H5 C3 1_555 1_555
C4 C2 1_555 1_555
H6 C4 1_555 1_555
C5 C3 1_555 1_555
C6 C5 1_555 1_555
C7 C6 1_555 1_555
H7 C7 1_555 1_555
C8 H8 1_555 1_555
C9 N2 1_555 1_555
H9 C9 1_555 1_555
C10 C6 1_555 1_555
H10 C10 1_555 1_555
C11 N3 1_555 1_555
H11 C11 1_555 1_555
C12 N3 1_555 1_555
H12 C12 1_555 1_555
C13 C11 1_555 1_555
H13 C13 1_555 1_555
C14 C12 1_555 1_555
H14 C14 1_555 1_555
C15 C13 1_555 1_555
C16 C15 1_555 1_555
C17 C16 1_555 1_555
H15 C17 1_555 1_555
C18 C16 1_555 1_555
H16 C18 1_555 1_555
C19 C17 1_555 1_555
H17 C19 1_555 1_555
C20 N4 1_555 1_555
H18 C20 1_555 1_555
C21 O2 1_555 1_555
C22 O12 1_555 1_555
C23 C28 1_555 1_555
C24 C21 1_555 1_555
C25 C24 1_555 1_555
H19 C25 1_555 1_555
C26 C22 1_555 1_555
C27 C26 1_555 1_555
H20 C27 1_555 1_555
C28 C27 1_555 1_555
C29 C24 1_555 1_555
H21 C29 1_555 1_555
C30 O3 1_555 1_555
C31 C35 1_555 1_555
C32 O9 1_555 1_555
C33 C30 1_555 1_555
C34 C33 1_555 1_555
H22 C34 1_555 1_555
C35 C34 1_555 1_555
C36 C35 1_555 1_555
H23 C36 1_555 1_555
C37 C32 1_555 1_555
C38 C33 1_555 1_555
H24 C38 1_555 1_555
C39 C43 1_555 1_555
C40 C42 1_555 1_555
C41 C42 1_555 1_555
C43 C40 1_555 1_555
C44 C45 1_555 1_555
C45 C46B 1_555 1_555
C46 C44 1_555 1_555
C39B C39 1_555 1_555
C43B C39B 1_555 1_555
C40B C43B 1_555 1_555
C42B C40B 1_555 1_555
C41B C42B 1_555 1_555
C46B C44B 1_555 1_555
C44B C45B 1_555 1_555
C45B C46 1_555 1_555
O1A C21A 1_555 1_555
O2A C21A 1_555 1_555
O4A Ni1 1_555 1_555
O6A Ni2 1_555 1_555
O11A C22A 1_555 1_555
O12A H2A 1_555 1_555
C21A C24A 1_555 1_555
C22A O12A 1_555 1_555
C23A O4A 1_555 1_555
C24A C25A 1_555 1_555
C25A H19A 1_555 1_555
C26A C22A 1_555 1_555
C27A C26A 1_555 1_555
H20A C27A 1_555 1_555
C28A C23A 1_555 1_555
C29A C24A 1_555 1_555
H21A C29A 1_555 1_555
N1_2 C1_2 1_555 1_555
N2_2 Ni1 1_555 1_555
C1_2 H3_2 1_555 1_555
C2_2 N1_2 1_555 1_555
H4_2 C2_2 1_555 1_555
C3_2 C1_2 1_555 1_555
H5_2 C3_2 1_555 1_555
C4_2 C2_2 1_555 1_555
H6_2 C4_2 1_555 1_555
C5_2 C3_2 1_555 1_555
C6_2 C5_2 1_555 1_555
C7_2 C6_2 1_555 1_555
H7_2 C7_2 1_555 1_555
C8_2 N2_2 1_555 1_555
H8_2 C8_2 1_555 1_555
C9_2 N2_2 1_555 1_555
H9_2 C9_2 1_555 1_555
C10_2 C6_2 1_555 1_555
H10_2 C10_2 1_555 1_555
Ni1A O1A 1_555 1_555
Ni2A O6 1_555 1_555
O3A Ni1A 1_555 1_555
O5A C30A 1_555 1_555
O7A Ni2 1_555 1_555
O8A Ni2 1_555 1_555
O9A H1A 1_555 1_555
O10A C32A 1_555 1_555
C30A O3A 1_555 1_555
C31A O7A 1_555 1_555
C32A O9A 1_555 1_555
C33A C30A 1_555 1_555
C34A C33A 1_555 1_555
H22A C34A 1_555 1_555
C35A C31A 1_555 1_555
C36A C35A 1_555 1_555
H23A C36A 1_555 1_555
C37A C32A 1_555 1_555
C38A C33A 1_555 1_555
H24A C38A 1_555 1_555
N3_2 C11_2 1_555 1_555
N4_2 Ni2 1_555 1_555
C11_2 H11_2 1_555 1_555
C12_2 N3_2 1_555 1_555
H12_2 C12_2 1_555 1_555
C13_2 C11_2 1_555 1_555
H13_2 C13_2 1_555 1_555
C14_2 C12_2 1_555 1_555
H14_2 C14_2 1_555 1_555
C15_2 C13_2 1_555 1_555
C16_2 C15_2 1_555 1_555
C17_2 C16_2 1_555 1_555
H15_2 C17_2 1_555 1_555
C18_2 C16_2 1_555 1_555
H16_2 C18_2 1_555 1_555
C19_2 N4_2 1_555 1_555
H17_2 C19_2 1_555 1_555
C20_2 N4_2 1_555 1_555
H18_2 C20_2 1_555 1_555
Ni1A_2 O4 1_555 1_555
Ni1_2 N2 1_555 1_555
Ni2_2 N4 1_555 1_555
Ni1_3 N1_2 1_555 1_555
O4_2 Ni1A 1_555 1_555
N1A Ni1A 1_555 1_555
N2A Ni1A 1_555 1_555
O5A_2 Ni2A 1_555 1_555
N3A Ni2A 1_555 1_555
N4A Ni2A 1_555 1_555
Ni2A_2 O5A 1_555 1_555
Ni2_3 N3_2 1_555 1_555
O7 Ni2A 1_555 1_555
O8 Ni2A 1_555 1_555
C4 C5 1_555 1_555
C7 C9 1_555 1_555
C8 C10 1_555 1_555
C14 C15 1_555 1_555
C18 C20 1_555 1_555
C25 C26 1_555 1_555
C28 C29 1_555 1_555
C36 C37 1_555 1_555
C37 C38 1_555 1_555
O2A Ni1A 1_555 1_555
O6A C23A 1_555 1_555
C25A C26A 1_555 1_555
C27A C28A 1_555 1_555
C28A C29A 1_555 1_555
C4_2 C5_2 1_555 1_555
C7_2 C9_2 1_555 1_555
C8_2 C10_2 1_555 1_555
O8A C31A 1_555 1_555
C34A C35A 1_555 1_555
C36A C37A 1_555 1_555
C37A C38A 1_555 1_555
C14_2 C15_2 1_555 1_555
C17_2 C19_2 1_555 1_555
C18_2 C20_2 1_555 1_555

#END
