
#######################################################################
#
#                 Cambridge Crystallographic Data Centre
#                                CCDC 
#
#######################################################################
#
# If this CIF has been generated from an entry in the Cambridge 
# Structural Database, then it will include bibliographic, chemical, 
# crystal, experimental, refinement or atomic coordinate data resulting 
# from the CCDC's data processing and validation procedures.
#
#######################################################################

data_SAGSUP01
_symmetry_cell_setting           triclinic
_symmetry_space_group_name_H-M   'P -1'
_symmetry_Int_Tables_number      2
_space_group_name_Hall           '-P 1'
loop_
_symmetry_equiv_pos_site_id
_symmetry_equiv_pos_as_xyz
1 x,y,z
2 -x,-y,-z
_cell_length_a                   8.0299(6)
_cell_length_b                   8.4180(7)
_cell_length_c                   8.8992(4)
_cell_angle_alpha                77.122(4)
_cell_angle_beta                 68.898(3)
_cell_angle_gamma                76.116(2)
_cell_volume                     538.59
loop_
_atom_site_label
_atom_site_type_symbol
_atom_site_fract_x
_atom_site_fract_y
_atom_site_fract_z
Cu1 Cu 0.5000 0.5000 0.5000
O1 O 0.7224(2) 0.6669(2) 0.2443(2)
O2 O 0.9283(2) 0.8151(2) 0.0808(2)
N1 N 0.6705(2) 0.5112(2) 0.61859(19)
N2 N 0.8859(3) 0.4379(3) 0.7291(3)
H1 H 0.9794 0.3814 0.7539
N3 N 0.6619(2) 0.2968(2) 0.4154(2)
N4 N 0.8589(2) 0.1390(2) 0.2445(2)
H2 H 0.9417 0.1092 0.1575
C1 C 0.6542(3) 0.6244(3) 0.7138(4)
H3 H 0.5650 0.7185 0.7292
C2 C 0.7865(4) 0.5794(4) 0.7819(4)
H4 H 0.8054 0.6354 0.8519
C3 C 0.8136(3) 0.4015(3) 0.6318(3)
H5 H 0.8587 0.3090 0.5789
C4 C 0.7832(3) 0.2934(3) 0.2694(3)
H6 H 0.8121 0.3868 0.1937
C5 C 0.7827(3) 0.0363(3) 0.3805(3)
H7 H 0.8089 -0.0787 0.3973
C6 C 0.6614(3) 0.1345(3) 0.4866(3)
H8 H 0.5890 0.0980 0.5910
C7 C 0.7707(3) 0.7823(2) 0.1347(2)
C8 C 0.6314(2) 0.8961(2) 0.0627(2)
C9 C 0.4752(3) 0.8423(2) 0.0781(2)
H9 H 0.4580 0.7359 0.1303
C10 C 0.6558(3) 1.0549(2) -0.0167(2)
H10 H 0.7604 1.0923 -0.0287
Cu1_2 Cu 0.5000 1.5000 -0.5000
O1A O 0.2776(2) 1.3331(2) -0.2443(2)
O1A_2 O 0.2776(2) 0.3331(2) 0.7557(2)
O2A O 0.0717(2) 1.1849(2) -0.0808(2)
N1A N 0.3295(2) 0.4888(2) 0.38141(19)
N2A N 0.1141(3) 0.5621(3) 0.2709(3)
H1A H 0.0206 0.6186 0.2461
N3A N 0.3381(2) 0.7032(2) 0.5846(2)
N4A N 0.1411(2) 0.8610(2) 0.7555(2)
H2A H 0.0583 0.8908 0.8425
C1A C 0.3458(3) 0.3756(3) 0.2862(4)
H3A H 0.4350 0.2815 0.2708
C2A C 0.2135(4) 0.4206(4) 0.2181(4)
H4A H 0.1946 0.3646 0.1481
C3A C 0.1864(3) 0.5985(3) 0.3682(3)
H5A H 0.1413 0.6910 0.4211
C4A C 0.2168(3) 0.7066(3) 0.7306(3)
H6A H 0.1879 0.6132 0.8063
C5A C 0.2173(3) 0.9637(3) 0.6195(3)
H7A H 0.1911 1.0787 0.6027
C6A C 0.3386(3) 0.8655(3) 0.5134(3)
H8A H 0.4110 0.9020 0.4090
C7A C 0.2293(3) 1.2177(2) -0.1347(2)
C8A C 0.3686(2) 1.1039(2) -0.0627(2)
C9A C 0.5248(3) 1.1577(2) -0.0781(2)
H9A H 0.5420 1.2641 -0.1303
C10A C 0.3442(3) 0.9451(2) 0.0167(2)
H10A H 0.2396 0.9077 0.0287
loop_
_geom_bond_atom_site_label_1
_geom_bond_atom_site_label_2
_geom_bond_site_symmetry_1
_geom_bond_site_symmetry_2
Cu1 O1 1_555 1_555
O1 C7 1_555 1_555
O2 C7 1_555 1_555
N1 Cu1 1_555 1_555
N2 H1 1_555 1_555
N3 Cu1 1_555 1_555
N4 H2 1_555 1_555
C1 N1 1_555 1_555
H3 C1 1_555 1_555
C2 N2 1_555 1_555
H4 C2 1_555 1_555
C3 N1 1_555 1_555
H5 C3 1_555 1_555
C4 N3 1_555 1_555
H6 C4 1_555 1_555
C5 N4 1_555 1_555
H7 C5 1_555 1_555
C6 N3 1_555 1_555
H8 C6 1_555 1_555
C7 C8 1_555 1_555
C8 C9 1_555 1_555
C9 H9 1_555 1_555
C10 C8 1_555 1_555
H10 C10 1_555 1_555
Cu1_2 O1A 1_555 1_555
O1A C7A 1_555 1_555
O1A_2 Cu1 1_555 1_555
O2A C7A 1_555 1_555
N1A Cu1 1_555 1_555
N2A H1A 1_555 1_555
N3A Cu1 1_555 1_555
N4A H2A 1_555 1_555
C1A N1A 1_555 1_555
H3A C1A 1_555 1_555
C2A N2A 1_555 1_555
H4A C2A 1_555 1_555
C3A N1A 1_555 1_555
H5A C3A 1_555 1_555
C4A N3A 1_555 1_555
H6A C4A 1_555 1_555
C5A N4A 1_555 1_555
H7A C5A 1_555 1_555
C6A N3A 1_555 1_555
H8A C6A 1_555 1_555
C7A C8A 1_555 1_555
C8A C9A 1_555 1_555
C9A C10 1_555 1_555
H9A C9A 1_555 1_555
C10A C9 1_555 1_555
H10A C10A 1_555 1_555
N2 C3 1_555 1_555
N4 C4 1_555 1_555
C1 C2 1_555 1_555
C5 C6 1_555 1_555
N2A C3A 1_555 1_555
N4A C4A 1_555 1_555
C1A C2A 1_555 1_555
C5A C6A 1_555 1_555
C8A C10A 1_555 1_555

#END
