
#######################################################################
#
#                 Cambridge Crystallographic Data Centre
#                                CCDC 
#
#######################################################################
#
# If this CIF has been generated from an entry in the Cambridge 
# Structural Database, then it will include bibliographic, chemical, 
# crystal, experimental, refinement or atomic coordinate data resulting 
# from the CCDC's data processing and validation procedures.
#
#######################################################################

data_SAGZUW
_symmetry_cell_setting           orthorhombic
_symmetry_space_group_name_H-M   'F d d 2'
_symmetry_Int_Tables_number      43
_space_group_name_Hall           'F 2 -2d'
loop_
_symmetry_equiv_pos_site_id
_symmetry_equiv_pos_as_xyz
1 x,y,z
2 -x,-y,z
3 1/4+x,1/4-y,1/4+z
4 1/4-x,1/4+y,1/4+z
5 x,1/2+y,1/2+z
6 -x,1/2-y,1/2+z
7 1/4+x,3/4-y,3/4+z
8 1/4-x,3/4+y,3/4+z
9 1/2+x,y,1/2+z
10 1/2-x,-y,1/2+z
11 3/4+x,1/4-y,3/4+z
12 3/4-x,1/4+y,3/4+z
13 1/2+x,1/2+y,z
14 1/2-x,1/2-y,z
15 3/4+x,3/4-y,1/4+z
16 3/4-x,3/4+y,1/4+z
_cell_length_a                   14.963(5)
_cell_length_b                   23.345(8)
_cell_length_c                   9.317(3)
_cell_angle_alpha                90
_cell_angle_beta                 90
_cell_angle_gamma                90
_cell_volume                     3254.53
loop_
_atom_site_label
_atom_site_type_symbol
_atom_site_fract_x
_atom_site_fract_y
_atom_site_fract_z
Fe1 Fe 0.17748(12) 0.19458(7) 0.3041(3)
Cl1 Cl 0.0688(3) 0.25380(18) 0.3953(7)
O1 O 0.0877(6) 0.1231(4) 0.3577(10)
O2 O 0.0200(6) 0.1211(4) 0.0036(11)
O3 O -0.0183(6) 0.0699(4) 0.2456(10)
O4 O 0.1217(6) 0.1750(4) 0.1139(12)
O5 O 0.2500 0.2500 0.2319(14)
C1 C 0.0629(8) 0.1386(5) 0.1054(15)
C2 C 0.0443(9) 0.1093(6) 0.2472(19)
O1B O 0.3377(6) 0.1269(4) 0.6077(10)
O2B O 0.2700(6) 0.1289(4) 0.2536(11)
O3B O 0.2317(6) 0.1801(4) 0.4956(10)
O4B O 0.3717(6) 0.0750(4) 0.3639(12)
C1B C 0.3129(8) 0.1114(5) 0.3554(15)
C2B C 0.2943(9) 0.1407(6) 0.4972(19)
Fe1B Fe 0.42748(12) 0.05542(7) 0.5541(3)
Cl1B Cl 0.3188(3) -0.00380(18) 0.6453(7)
Fe1J Fe -0.07252(12) 0.05542(7) 0.0541(3)
Fe1M Fe 0.32252(12) 0.30542(7) 0.3041(3)
O2H O 0.5200(6) 0.1211(4) 0.5036(11)
O3H O 0.4817(6) 0.0699(4) 0.7456(10)
O5B O 0.5000 0.0000 0.4819(14)
loop_
_geom_bond_atom_site_label_1
_geom_bond_atom_site_label_2
_geom_bond_site_symmetry_1
_geom_bond_site_symmetry_2
Fe1 Cl1 1_555 1_555
O1 Fe1 1_555 1_555
O2 C1 1_555 1_555
O3 C2 1_555 1_555
O4 Fe1 1_555 1_555
O5 Fe1 1_555 1_555
C1 O4 1_555 1_555
C2 O1 1_555 1_555
O1B C2B 1_555 1_555
O2B Fe1 1_555 1_555
O3B Fe1 1_555 1_555
O4B C1B 1_555 1_555
C1B O2B 1_555 1_555
C2B O3B 1_555 1_555
Fe1B O1B 1_555 1_555
Cl1B Fe1B 1_555 1_555
Fe1J O2 1_555 1_555
Fe1M O5 1_555 1_555
O2H Fe1B 1_555 1_555
O3H Fe1B 1_555 1_555
O5B Fe1B 1_555 1_555
O3 Fe1J 1_555 1_555
C1 C2 1_555 1_555
O4B Fe1B 1_555 1_555
C1B C2B 1_555 1_555

#END
