
#######################################################################
#
#                 Cambridge Crystallographic Data Centre
#                                CCDC 
#
#######################################################################
#
# If this CIF has been generated from an entry in the Cambridge 
# Structural Database, then it will include bibliographic, chemical, 
# crystal, experimental, refinement or atomic coordinate data resulting 
# from the CCDC's data processing and validation procedures.
#
#######################################################################

data_SAHBAF
_symmetry_cell_setting           orthorhombic
_symmetry_space_group_name_H-M   'F d d 2'
_symmetry_Int_Tables_number      43
_space_group_name_Hall           'F 2 -2d'
loop_
_symmetry_equiv_pos_site_id
_symmetry_equiv_pos_as_xyz
1 x,y,z
2 -x,-y,z
3 1/4+x,1/4-y,1/4+z
4 1/4-x,1/4+y,1/4+z
5 x,1/2+y,1/2+z
6 -x,1/2-y,1/2+z
7 1/4+x,3/4-y,3/4+z
8 1/4-x,3/4+y,3/4+z
9 1/2+x,y,1/2+z
10 1/2-x,-y,1/2+z
11 3/4+x,1/4-y,3/4+z
12 3/4-x,1/4+y,3/4+z
13 1/2+x,1/2+y,z
14 1/2-x,1/2-y,z
15 3/4+x,3/4-y,1/4+z
16 3/4-x,3/4+y,1/4+z
_cell_length_a                   14.956(7)
_cell_length_b                   23.671(9)
_cell_length_c                   9.026(4)
_cell_angle_alpha                90
_cell_angle_beta                 90
_cell_angle_gamma                90
_cell_volume                     3195.42
loop_
_atom_site_label
_atom_site_type_symbol
_atom_site_fract_x
_atom_site_fract_y
_atom_site_fract_z
Fe1 Fe -0.07549(7) -0.05570(4) -0.00061(13)
O1 O -0.2500 -0.2500 0.3271(10)
O2 O -0.1329(3) -0.0731(2) 0.1950(6)
O3 O -0.4122(3) -0.1241(2) 0.1959(5)
O4 O -0.5166(3) -0.0697(2) 0.3039(6)
O5 O -0.2321(3) -0.1298(2) 0.3030(6)
C1 C -0.1884(4) -0.1122(3) 0.1958(8)
C2 C -0.4560(4) -0.1079(3) 0.3020(9)
Cl1 Cl -0.43135(14) -0.25428(10) 0.1552(4)
Fe1N Fe -0.32549(7) -0.19430(4) 0.24939(13)
O1F O 0.0000 0.0000 0.0771(10)
Fe1O Fe -0.17451(7) -0.30570(4) 0.24939(13)
O2N O -0.3829(3) -0.1769(2) 0.4450(6)
C1N C -0.4384(4) -0.1378(3) 0.4458(8)
O5N O -0.4821(3) -0.1202(2) 0.5530(6)
Fe1H Fe -0.57549(7) -0.05570(4) 0.49939(13)
O4F O -0.2666(3) -0.1803(2) 0.0539(6)
C2F C -0.2060(4) -0.1421(3) 0.0520(9)
O3F O -0.1622(3) -0.1259(2) -0.0541(5)
O4H O -0.0166(3) -0.0697(2) -0.1961(6)
O5F O 0.0179(3) -0.1202(2) 0.0530(6)
Cl1F Cl -0.18135(14) 0.00428(10) -0.0948(4)
N1 N 0.0891 -0.0435 0.3190
C3 C 0.1656 -0.0719 0.2570
O6 O 0.0412 -0.1520 0.3821
loop_
_geom_bond_atom_site_label_1
_geom_bond_atom_site_label_2
_geom_bond_site_symmetry_1
_geom_bond_site_symmetry_2
Fe1 O2 1_555 1_555
O1 Fe1N 1_555 1_555
O2 C1 1_555 1_555
O3 C2 1_555 1_555
O4 C2 1_555 1_555
O5 C1 1_555 1_555
C1 C2F 1_555 1_555
C2 C1N 1_555 1_555
Cl1 Fe1N 1_555 1_555
N1 C3 1_555 1_555
Fe1N O3 1_555 1_555
O1F Fe1 1_555 1_555
Fe1O O1 1_555 1_555
O2N Fe1N 1_555 1_555
C1N O2N 1_555 1_555
O5N C1N 1_555 1_555
Fe1H O4 1_555 1_555
O4F Fe1N 1_555 1_555
C2F O4F 1_555 1_555
O3F Fe1 1_555 1_555
O4H Fe1 1_555 1_555
O5F Fe1 1_555 1_555
Cl1F Fe1 1_555 1_555
O5 Fe1N 1_555 1_555
O5N Fe1H 1_555 1_555
C2F O3F 1_555 1_555

#END
