
#######################################################################
#
#                 Cambridge Crystallographic Data Centre
#                                CCDC 
#
#######################################################################
#
# If this CIF has been generated from an entry in the Cambridge 
# Structural Database, then it will include bibliographic, chemical, 
# crystal, experimental, refinement or atomic coordinate data resulting 
# from the CCDC's data processing and validation procedures.
#
#######################################################################

data_SAHBEJ
_symmetry_cell_setting           orthorhombic
_symmetry_space_group_name_H-M   'F d d 2'
_symmetry_Int_Tables_number      43
_space_group_name_Hall           'F 2 -2d'
loop_
_symmetry_equiv_pos_site_id
_symmetry_equiv_pos_as_xyz
1 x,y,z
2 -x,-y,z
3 1/4+x,1/4-y,1/4+z
4 1/4-x,1/4+y,1/4+z
5 x,1/2+y,1/2+z
6 -x,1/2-y,1/2+z
7 1/4+x,3/4-y,3/4+z
8 1/4-x,3/4+y,3/4+z
9 1/2+x,y,1/2+z
10 1/2-x,-y,1/2+z
11 3/4+x,1/4-y,3/4+z
12 3/4-x,1/4+y,3/4+z
13 1/2+x,1/2+y,z
14 1/2-x,1/2-y,z
15 3/4+x,3/4-y,1/4+z
16 3/4-x,3/4+y,1/4+z
_cell_length_a                   14.7790(7)
_cell_length_b                   23.7540(11)
_cell_length_c                   9.1747(4)
_cell_angle_alpha                90
_cell_angle_beta                 90
_cell_angle_gamma                90
_cell_volume                     3220.87
loop_
_atom_site_label
_atom_site_type_symbol
_atom_site_fract_x
_atom_site_fract_y
_atom_site_fract_z
Fe1 Fe 0.32330(3) -0.195740(15) 0.12751(4)
O1 O 0.0000 0.0000 0.3054(4)
O2 O 0.23125(14) -0.13086(9) 0.0730(2)
O3 O 0.01717(14) -0.07092(9) 0.5772(2)
O4 O -0.08687(14) -0.12519(10) 0.6843(3)
O5 O 0.13252(14) -0.07302(9) 0.1814(3)
C1 C 0.18811(18) -0.11227(12) 0.1812(4)
C2 C -0.04373(19) -0.10917(11) 0.5782(3)
Cl1 Cl 0.18422(6) 0.00396(4) 0.47423(15)
Fe1N Fe 0.07330(3) -0.054260(15) 0.37751(4)
O1F O 0.2500 -0.2500 0.0554(4)
Fe1C Fe -0.07330(3) 0.054260(15) 0.37751(4)
O2N O -0.01875(14) -0.11914(9) 0.3230(2)
C1N C -0.06189(18) -0.13773(12) 0.4312(4)
O5N O -0.11748(14) -0.17698(9) 0.4314(3)
Fe1H Fe -0.17670(3) -0.195740(15) 0.62751(4)
O4F O 0.16313(14) -0.12481(10) 0.4343(3)
C2F C 0.20627(19) -0.14083(11) 0.3282(3)
O3F O 0.26717(14) -0.17908(9) 0.3272(2)
O4H O 0.41313(14) -0.12519(10) 0.1843(3)
O5F O 0.38252(14) -0.17698(9) -0.0686(3)
Cl1F Cl 0.43422(6) -0.25396(4) 0.22423(15)
O6 O 0.6334(9) -0.1966(3) 0.3305(14)
N1 N 0.4652(7) -0.1511(3) 0.5019(11)
C3 C 0.3736 -0.1873 0.5949
C4 C 0.3145 -0.2531 0.5885
loop_
_geom_bond_atom_site_label_1
_geom_bond_atom_site_label_2
_geom_bond_site_symmetry_1
_geom_bond_site_symmetry_2
Fe1 O2 1_555 1_555
O1 Fe1N 1_555 1_555
O2 C1 1_555 1_555
O3 C2 1_555 1_555
O4 C2 1_555 1_555
O5 C1 1_555 1_555
C1 C2F 1_555 1_555
C2 C1N 1_555 1_555
Cl1 Fe1N 1_555 1_555
N1 C3 1_555 1_555
C3 C4 1_555 1_555
Fe1N O3 1_555 1_555
O1F Fe1 1_555 1_555
Fe1C O1 1_555 1_555
O2N Fe1N 1_555 1_555
C1N O2N 1_555 1_555
O5N C1N 1_555 1_555
Fe1H O4 1_555 1_555
O4F Fe1N 1_555 1_555
C2F O4F 1_555 1_555
O3F Fe1 1_555 1_555
O4H Fe1 1_555 1_555
O5F Fe1 1_555 1_555
Cl1F Fe1 1_555 1_555
O5 Fe1N 1_555 1_555
O5N Fe1H 1_555 1_555
C2F O3F 1_555 1_555

#END
