
#######################################################################
#
#                 Cambridge Crystallographic Data Centre
#                                CCDC 
#
#######################################################################
#
# If this CIF has been generated from an entry in the Cambridge 
# Structural Database, then it will include bibliographic, chemical, 
# crystal, experimental, refinement or atomic coordinate data resulting 
# from the CCDC's data processing and validation procedures.
#
#######################################################################

data_SAHDAH
_symmetry_cell_setting           orthorhombic
_symmetry_space_group_name_H-M   'P b c a'
_symmetry_Int_Tables_number      61
_space_group_name_Hall           '-P 2ac 2ab'
loop_
_symmetry_equiv_pos_site_id
_symmetry_equiv_pos_as_xyz
1 x,y,z
2 1/2+x,y,1/2-z
3 1/2-x,1/2+y,z
4 x,1/2-y,1/2+z
5 -x,-y,-z
6 1/2-x,-y,1/2+z
7 1/2+x,1/2-y,-z
8 -x,1/2+y,1/2-z
_cell_length_a                   13.3250(3)
_cell_length_b                   15.3520(3)
_cell_length_c                   16.1830(4)
_cell_angle_alpha                90
_cell_angle_beta                 90
_cell_angle_gamma                90
_cell_volume                     3310.48
loop_
_atom_site_label
_atom_site_type_symbol
_atom_site_fract_x
_atom_site_fract_y
_atom_site_fract_z
Tl1 Tl 0.687718(12) 0.203905(11) 0.196575(11)
Cl1 Cl 0.79075(12) 0.20413(9) 0.32022(10)
O1 O 0.6540(3) 0.0555(2) 0.1944(2)
O2 O 0.5447(3) 0.1345(2) 0.2634(2)
O3 O 0.8237(2) 0.1545(2) 0.1075(2)
O4 O 0.7946(3) 0.2952(2) 0.1194(2)
N1 N 0.3995(3) -0.1659(3) 0.2751(3)
N2 N 1.0844(3) 0.2880(2) -0.0760(3)
C1 C 0.4915(4) -0.1712(3) 0.2429(4)
H1 H 0.5178 -0.2268 0.2291
C2 C 0.5494(4) -0.0985(3) 0.2293(4)
H2 H 0.6142 -0.1041 0.2053
C3 C 0.5128(4) -0.0176(3) 0.2505(3)
C4 C 0.4177(4) -0.0118(3) 0.2842(4)
H3 H 0.3906 0.0430 0.2998
C5 C 0.3632(4) -0.0872(3) 0.2946(3)
H4 H 0.2972 -0.0833 0.3165
C6 C 0.5748(3) 0.0632(3) 0.2364(3)
C7 C 1.0811(4) 0.2112(3) -0.0355(3)
H5 H 1.1323 0.1694 -0.0454
C8 C 1.0054(4) 0.1913(3) 0.0201(4)
H6 H 1.0044 0.1366 0.0475
C9 C 0.9314(4) 0.2525(3) 0.0350(3)
C10 C 0.9373(4) 0.3325(3) -0.0030(3)
H7 H 0.8896 0.3768 0.0087
C11 C 1.0144(4) 0.3469(3) -0.0588(3)
H8 H 1.0174 0.4016 -0.0861
C12 C 0.8430(4) 0.2328(3) 0.0916(3)
N1G N 0.6005(3) 0.3341(3) 0.2249(3)
N2F N 0.5844(3) 0.2120(2) 0.0760(3)
Tl1G Tl 0.312282(12) -0.296095(11) 0.303425(11)
Tl1F Tl 1.187718(12) 0.296095(11) -0.196575(11)
O5 O 0.2964(12) -0.0155(5) 0.4771(5)
H9 H 0.2594 -0.0597 0.4735
C13 C 0.3084(8) 0.0058(7) 0.5570(7)
H10 H 0.3750 0.0333 0.5645
H11 H 0.3068 -0.0480 0.5907
C14 C 0.2316(10) 0.0634(8) 0.5855(7)
H12 H 0.2427 0.1217 0.5626
H13 H 0.2334 0.0663 0.6460
H14 H 0.1659 0.0417 0.5676
loop_
_geom_bond_atom_site_label_1
_geom_bond_atom_site_label_2
_geom_bond_site_symmetry_1
_geom_bond_site_symmetry_2
Tl1 Cl1 1_555 1_555
O1 Tl1 1_555 1_555
O2 Tl1 1_555 1_555
O3 Tl1 1_555 1_555
O4 Tl1 1_555 1_555
N1 C1 1_555 1_555
N2 C7 1_555 1_555
C1 H1 1_555 1_555
C2 C1 1_555 1_555
H2 C2 1_555 1_555
C3 C2 1_555 1_555
C4 C3 1_555 1_555
H3 C4 1_555 1_555
C5 N1 1_555 1_555
H4 C5 1_555 1_555
C6 O1 1_555 1_555
C7 H5 1_555 1_555
C8 C7 1_555 1_555
H6 C8 1_555 1_555
C9 C8 1_555 1_555
C10 C9 1_555 1_555
H7 C10 1_555 1_555
C11 N2 1_555 1_555
H8 C11 1_555 1_555
C12 O3 1_555 1_555
O5 H9 1_555 1_555
C13 O5 1_555 1_555
H10 C13 1_555 1_555
H11 C13 1_555 1_555
C14 C13 1_555 1_555
H12 C14 1_555 1_555
H13 C14 1_555 1_555
H14 C14 1_555 1_555
N1G Tl1 1_555 1_555
N2F Tl1 1_555 1_555
Tl1G N1 1_555 1_555
Tl1F N2 1_555 1_555
O2 C6 1_555 1_555
O4 C12 1_555 1_555
C3 C6 1_555 1_555
C4 C5 1_555 1_555
C9 C12 1_555 1_555
C10 C11 1_555 1_555

#END
