
#######################################################################
#
#                 Cambridge Crystallographic Data Centre
#                                CCDC 
#
#######################################################################
#
# If this CIF has been generated from an entry in the Cambridge 
# Structural Database, then it will include bibliographic, chemical, 
# crystal, experimental, refinement or atomic coordinate data resulting 
# from the CCDC's data processing and validation procedures.
#
#######################################################################

data_SAHKUH10
_symmetry_cell_setting           monoclinic
_symmetry_space_group_name_H-M   'P 21/c'
_symmetry_Int_Tables_number      14
_space_group_name_Hall           '-P 2ybc'
loop_
_symmetry_equiv_pos_site_id
_symmetry_equiv_pos_as_xyz
1 x,y,z
2 -x,1/2+y,1/2-z
3 -x,-y,-z
4 x,1/2-y,1/2+z
_cell_length_a                   14.544(3)
_cell_length_b                   13.267(7)
_cell_length_c                   17.147(4)
_cell_angle_alpha                90
_cell_angle_beta                 109.63(1)
_cell_angle_gamma                90
_cell_volume                     3116.31
loop_
_atom_site_label
_atom_site_type_symbol
_atom_site_fract_x
_atom_site_fract_y
_atom_site_fract_z
Sn1 Sn -0.51984(5) 0.10343(7) 0.23880(4)
C1 C -0.5155(8) 0.1172(9) 0.3627(6)
C2 C -0.4369(9) 0.1592(12) 0.4233(8)
C3 C -0.4379(12) 0.1705(13) 0.5049(8)
C4 C -0.5199(14) 0.1450(15) 0.5228(9)
C5 C -0.5978(12) 0.1045(15) 0.4652(9)
C6 C -0.5957(9) 0.0915(10) 0.3844(7)
C7 C -0.6498(8) 0.1430(10) 0.1434(6)
C8 C -0.6502(11) 0.1423(12) 0.0628(8)
C9 C -0.7353(13) 0.1699(15) -0.0035(8)
C10 C -0.8174(12) 0.1971(15) 0.0123(9)
C11 C -0.8178(10) 0.2005(14) 0.0911(10)
C12 C -0.7350(9) 0.1688(13) 0.1573(8)
C13 C -0.4031(9) 0.0574(9) 0.1982(8)
C14 C -0.4130(10) -0.0432(13) 0.1565(9)
C15 C -0.4102(9) -0.1342(11) 0.2122(9)
C16 C -0.5019(7) -0.1451(10) 0.2324(6)
N1 N -0.5591(6) -0.0677(9) 0.2352(5)
N2 N -0.6371(7) -0.1088(11) 0.2526(6)
N3 N -0.6263(7) -0.2025(10) 0.2614(6)
N4 N -0.5390(6) -0.2275(9) 0.2493(5)
H1 H -0.3809(9) 0.1807(12) 0.4100(8)
H2 H -0.3813(12) 0.1958(13) 0.5477(8)
H3 H -0.5216(14) 0.1565(15) 0.5776(9)
H4 H -0.6542(12) 0.0850(15) 0.4788(9)
H5 H -0.6520(9) 0.0635(10) 0.3429(7)
H6 H -0.5923(11) 0.1231(12) 0.0515(8)
H7 H -0.7349(13) 0.1696(15) -0.0593(8)
H8 H -0.8755(12) 0.2136(15) -0.0328(9)
H9 H -0.8744(10) 0.2247(14) 0.1021(10)
H10 H -0.7380(9) 0.1652(13) 0.2123(8)
H11 H -0.3447(9) 0.0557(9) 0.2458(8)
H12 H -0.3963(9) 0.1073(9) 0.1599(8)
H13 H -0.4742(10) -0.0441(13) 0.1117(9)
H14 H -0.3605(10) -0.0499(13) 0.1347(9)
H15 H -0.3560(9) -0.1272(11) 0.2627(9)
H16 H -0.4020(9) -0.1942(11) 0.1839(9)
N4A N -0.4610(6) 0.2725(9) 0.2507(5)
Sn1A Sn -0.48016(5) -0.39657(7) 0.26120(4)
Sn2 Sn 0.01305(5) -0.01928(7) 0.73874(5)
C17 C 0.0957(8) -0.0570(12) 0.8622(7)
C18 C 0.0534(11) -0.0708(14) 0.9213(9)
C19 C 0.1057(16) -0.0979(19) 1.0011(10)
C20 C 0.2019(17) -0.1066(19) 1.0241(10)
C21 C 0.2480(12) -0.0994(18) 0.9685(11)
C22 C 0.1957(9) -0.0715(16) 0.8870(9)
C23 C 0.0828(8) -0.0324(9) 0.6472(6)
C24 C 0.0526(11) -0.1056(13) 0.5858(8)
C25 C 0.0981(13) -0.1143(14) 0.5269(8)
C26 C 0.1751(11) -0.0518(16) 0.5309(8)
C27 C 0.2036(11) 0.0176(17) 0.5885(9)
C28 C 0.1580(9) 0.0306(15) 0.6479(8)
C29 C -0.1363(8) 0.0229(11) 0.7073(8)
C30 C -0.1602(8) 0.1359(12) 0.6852(7)
C31 C -0.1153(8) 0.2079(12) 0.7521(8)
C32 C -0.0070(7) 0.2222(10) 0.7669(6)
N5 N 0.0520(7) 0.1507(9) 0.7668(5)
N6 N 0.1425(7) 0.1922(10) 0.7851(6)
N7 N 0.1357(7) 0.2857(11) 0.7945(6)
N8 N 0.0394(7) 0.3098(8) 0.7835(5)
H17 H -0.0157(11) -0.0608(14) 0.9066(9)
H18 H 0.0729(16) -0.1109(19) 1.0402(10)
H19 H 0.2392(17) -0.1180(19) 1.0813(10)
H20 H 0.3167(12) -0.1131(18) 0.9846(11)
H21 H 0.2292(9) -0.0625(16) 0.8478(9)
H22 H 0.0000(11) -0.1502(13) 0.5843(8)
H23 H 0.0756(13) -0.1639(14) 0.4839(8)
H24 H 0.2081(11) -0.0589(16) 0.4912(8)
H25 H 0.2570(11) 0.0609(17) 0.5897(9)
H26 H 0.1791(9) 0.0829(15) 0.6887(8)
H27 H -0.1566(8) 0.0072(11) 0.7537(8)
H28 H -0.1733(8) -0.0168(11) 0.6604(8)
H29 H -0.2297(8) 0.1440(12) 0.6685(7)
H30 H -0.1385(8) 0.1521(12) 0.6396(7)
H31 H -0.1472(8) 0.2718(12) 0.7374(8)
H32 H -0.1236(8) 0.1838(12) 0.8021(8)
N8A N -0.0394(7) -0.1902(8) 0.7165(5)
Sn2A Sn -0.01305(5) 0.48072(7) 0.76126(5)
loop_
_geom_bond_atom_site_label_1
_geom_bond_atom_site_label_2
_geom_bond_site_symmetry_1
_geom_bond_site_symmetry_2
Sn1 C1 1_555 1_555
C1 C2 1_555 1_555
C2 C3 1_555 1_555
C3 C4 1_555 1_555
C4 C5 1_555 1_555
C5 C6 1_555 1_555
C6 C1 1_555 1_555
C7 Sn1 1_555 1_555
C8 C7 1_555 1_555
C9 C8 1_555 1_555
C10 C9 1_555 1_555
C11 C10 1_555 1_555
C12 C7 1_555 1_555
C13 Sn1 1_555 1_555
C14 C13 1_555 1_555
C15 C14 1_555 1_555
C16 C15 1_555 1_555
N1 Sn1 1_555 1_555
N2 N1 1_555 1_555
N3 N2 1_555 1_555
N4 C16 1_555 1_555
Sn2 C17 1_555 1_555
C17 C18 1_555 1_555
C18 C19 1_555 1_555
C19 C20 1_555 1_555
C20 C21 1_555 1_555
C21 C22 1_555 1_555
C22 C17 1_555 1_555
C23 Sn2 1_555 1_555
C24 C23 1_555 1_555
C25 C24 1_555 1_555
C26 C25 1_555 1_555
C27 C26 1_555 1_555
C28 C23 1_555 1_555
C29 Sn2 1_555 1_555
C30 C29 1_555 1_555
C31 C30 1_555 1_555
C32 C31 1_555 1_555
N5 Sn2 1_555 1_555
N6 N5 1_555 1_555
N7 N6 1_555 1_555
N8 C32 1_555 1_555
H1 C2 1_555 1_555
H2 C3 1_555 1_555
H3 C4 1_555 1_555
H4 C5 1_555 1_555
H5 C6 1_555 1_555
H6 C8 1_555 1_555
H7 C9 1_555 1_555
H8 C10 1_555 1_555
H9 C11 1_555 1_555
H10 C12 1_555 1_555
H11 C13 1_555 1_555
H12 C13 1_555 1_555
H13 C14 1_555 1_555
H14 C14 1_555 1_555
H15 C15 1_555 1_555
H16 C15 1_555 1_555
H17 C18 1_555 1_555
H18 C19 1_555 1_555
H19 C20 1_555 1_555
H20 C21 1_555 1_555
H21 C22 1_555 1_555
H22 C24 1_555 1_555
H23 C25 1_555 1_555
H24 C26 1_555 1_555
H25 C27 1_555 1_555
H26 C28 1_555 1_555
H27 C29 1_555 1_555
H28 C29 1_555 1_555
H29 C30 1_555 1_555
H30 C30 1_555 1_555
H31 C31 1_555 1_555
H32 C31 1_555 1_555
N4A Sn1 1_555 1_555
Sn1A N4 1_555 1_555
N8A Sn2 1_555 1_555
Sn2A N8 1_555 1_555
C11 C12 1_555 1_555
C16 N1 1_555 1_555
N3 N4 1_555 1_555
C27 C28 1_555 1_555
C32 N5 1_555 1_555
N7 N8 1_555 1_555

#END
