
#######################################################################
#
#                 Cambridge Crystallographic Data Centre
#                                CCDC 
#
#######################################################################
#
# If this CIF has been generated from an entry in the Cambridge 
# Structural Database, then it will include bibliographic, chemical, 
# crystal, experimental, refinement or atomic coordinate data resulting 
# from the CCDC's data processing and validation procedures.
#
#######################################################################

data_SAHLET
_symmetry_cell_setting           triclinic
_symmetry_space_group_name_H-M   'P -1'
_symmetry_Int_Tables_number      2
_space_group_name_Hall           '-P 1'
loop_
_symmetry_equiv_pos_site_id
_symmetry_equiv_pos_as_xyz
1 x,y,z
2 -x,-y,-z
_cell_length_a                   9.6137(6)
_cell_length_b                   11.3905(7)
_cell_length_c                   11.5527(7)
_cell_angle_alpha                70.7740(10)
_cell_angle_beta                 74.8060(10)
_cell_angle_gamma                70.4950(10)
_cell_volume                     1109.4
loop_
_atom_site_label
_atom_site_type_symbol
_atom_site_fract_x
_atom_site_fract_y
_atom_site_fract_z
Mo1 Mo 0.19978(2) -0.165180(19) 0.281190(19)
Mo2 Mo 0.49981(2) -0.40946(2) 0.236650(19)
Mo3 Mo -0.06139(2) -0.247740(19) 0.522220(18)
Cu1 Cu 0.29829(3) 0.15997(3) 0.20010(3)
P1 P 0.18527(7) -0.49226(6) 0.39381(6)
P2 P 0.29320(7) -0.40472(6) 0.54856(6)
O1 O 0.32141(18) -0.51023(17) 0.29197(16)
O2 O 0.33705(19) -0.27120(17) 0.17952(16)
O3 O 0.5736(2) -0.47353(19) 0.11263(17)
O4 O 0.41600(19) -0.44155(17) 0.62673(16)
O5 O 0.6168(2) -0.32197(18) 0.22782(18)
O6 O 0.3000(2) -0.06574(18) 0.27798(17)
O7 O 0.0889(2) -0.07816(18) 0.17166(18)
O8 O 0.14318(19) -0.33186(17) 0.60761(16)
O9 O 0.15655(19) 0.18768(17) 0.35057(16)
O10 O 0.07966(19) -0.56895(17) 0.39706(16)
O11 O -0.1984(2) -0.20720(17) 0.43714(17)
O12 O 0.04844(19) -0.13289(17) 0.42561(17)
O13 O 0.09535(19) -0.34778(16) 0.37391(16)
O14 O 0.34977(19) -0.32894(17) 0.41596(16)
O15 O 0.3066(3) 0.3636(2) 0.1323(2)
N1 N 0.1467(2) 0.2004(2) 0.0947(2)
N2 N 0.4270(2) 0.0854(2) 0.06388(19)
N3 N 0.5064(2) -0.1025(2) -0.2593(2)
C1 C 0.2597(3) -0.5453(2) 0.5351(2)
C2 C 0.0109(3) 0.2819(3) 0.1108(2)
C3 C -0.0788(3) 0.3309(3) 0.0206(3)
C4 C -0.0234(3) 0.2973(3) -0.0907(3)
C5 C 0.1192(3) 0.2119(2) -0.1088(2)
C6 C 0.1999(3) 0.1624(2) -0.0123(2)
C7 C 0.3542(3) 0.0734(2) -0.0148(2)
C8 C 0.4322(3) -0.0188(2) -0.0821(2)
C9 C 0.3878(3) -0.0553(2) -0.1774(2)
C10 C 0.2431(3) -0.0504(2) -0.1814(2)
C11 C 0.2194(3) -0.0844(2) -0.2788(3)
C12 C 0.3394(3) -0.1229(3) -0.3674(3)
C13 C 0.4825(3) -0.1342(3) -0.3526(2)
H1 H 0.340(4) -0.604(3) 0.522(3)
H2 H 0.194(4) -0.566(4) 0.600(4)
H3 H -0.019(4) 0.307(3) 0.177(3)
H4 H -0.164(4) 0.379(4) 0.033(4)
H5 H -0.082(4) 0.334(3) -0.152(3)
H6 H 0.157(4) 0.195(3) -0.184(3)
H7 H 0.166(4) -0.025(3) -0.123(3)
H8 H 0.123(4) -0.080(3) -0.284(3)
H9 H 0.325(4) -0.145(3) -0.435(3)
H10 H 0.565(4) -0.166(3) -0.408(3)
H11 H 0.316(5) 0.399(5) 0.168(4)
H12 H 0.353(5) 0.386(4) 0.067(4)
C8A C 0.5678(3) 0.0188(2) 0.0821(2)
C7A C 0.6458(3) -0.0734(2) 0.0148(2)
N2A N 0.5730(2) -0.0854(2) -0.06388(19)
C6A C 0.8001(3) -0.1624(2) 0.0123(2)
N1A N 0.8533(2) -0.2004(2) -0.0947(2)
C2A C 0.9891(3) -0.2819(3) -0.1108(2)
C3A C 1.0788(3) -0.3309(3) -0.0206(3)
C4A C 1.0234(3) -0.2973(3) 0.0907(3)
C5A C 0.8808(3) -0.2119(2) 0.1088(2)
H6A H 0.843(4) -0.195(3) 0.184(3)
H5A H 1.082(4) -0.334(3) 0.152(3)
H4A H 1.164(4) -0.379(4) -0.033(4)
H3A H 1.019(4) -0.307(3) -0.177(3)
C9A C 0.6122(3) 0.0553(2) 0.1774(2)
N3A N 0.4936(2) 0.1025(2) 0.2593(2)
C13A C 0.5175(3) 0.1342(3) 0.3526(2)
C12A C 0.6606(3) 0.1229(3) 0.3674(3)
C11A C 0.7806(3) 0.0844(2) 0.2788(3)
C10A C 0.7569(3) 0.0504(2) 0.1814(2)
H7A H 0.834(4) 0.025(3) 0.123(3)
H8A H 0.877(4) 0.080(3) 0.284(3)
H9A H 0.675(4) 0.145(3) 0.435(3)
H10A H 0.435(4) 0.166(3) 0.408(3)
Mo2A Mo 0.50019(2) -0.59054(2) 0.763350(19)
Mo3A Mo 0.06139(2) -0.752260(19) 0.477780(18)
P1A P 0.81473(7) -0.50774(6) 0.60619(6)
P2A P 0.70680(7) -0.59528(6) 0.45144(6)
O1A O 0.67859(18) -0.48977(17) 0.70803(16)
O4A O 0.58400(19) -0.55845(17) 0.37327(16)
O8A O 0.85682(19) -0.66814(17) 0.39239(16)
O10A O 0.92034(19) -0.43105(17) 0.60294(16)
O13A O 0.90465(19) -0.65222(16) 0.62609(16)
O14A O 0.65023(19) -0.67106(17) 0.58404(16)
C1A C 0.7403(3) -0.4547(2) 0.4649(2)
H1A H 0.660(4) -0.396(3) 0.478(3)
H2A H 0.806(4) -0.434(4) 0.400(4)
O9A O -0.15655(19) -0.18768(17) 0.64943(16)
O2A O 0.66295(19) -0.72880(17) 0.82048(16)
O3A O 0.4264(2) -0.52647(19) 0.88737(17)
O5A O 0.3832(2) -0.67803(18) 0.77218(18)
O11A O 0.1984(2) -0.79280(17) 0.56286(17)
O12A O -0.04844(19) -0.86711(17) 0.57439(17)
Mo1A Mo 0.80022(2) -0.834820(19) 0.718810(19)
O6A O 0.7000(2) -0.93426(18) 0.72202(17)
O7A O 0.9111(2) -0.92184(18) 0.82834(18)
O10A_2 O -0.07966(19) -0.43105(17) 0.60294(16)
Cu1A Cu 0.70171(3) -0.15997(3) -0.20010(3)
O8A_2 O -0.14318(19) -0.66814(17) 0.39239(16)
O9_2 O 0.15655(19) -0.81232(17) 0.35057(16)
O13A_2 O -0.09535(19) -0.65222(16) 0.62609(16)
Mo3A_2 Mo 1.06139(2) -0.752260(19) 0.477780(18)
Mo3_2 Mo 0.93861(2) -0.247740(19) 0.522220(18)
Mo3A_3 Mo 0.06139(2) 0.247740(19) 0.477780(18)
O12A_2 O 0.95156(19) -0.86711(17) 0.57439(17)
Cu1A_2 Cu 0.70171(3) -1.15997(3) 0.79990(3)
Cu1_2 Cu 0.29829(3) -0.84003(3) 0.20010(3)
O6_2 O 0.3000(2) -1.06574(18) 0.27798(17)
O15_2 O 0.3066(3) -0.6364(2) 0.1323(2)
N1_2 N 0.1467(2) -0.7996(2) 0.0947(2)
N2_2 N 0.4270(2) -0.9146(2) 0.06388(19)
N3A_2 N 0.4936(2) -0.8975(2) 0.2593(2)
H11_2 H 0.316(5) -0.601(5) 0.168(4)
H12_2 H 0.353(5) -0.614(4) 0.067(4)
loop_
_geom_bond_atom_site_label_1
_geom_bond_atom_site_label_2
_geom_bond_site_symmetry_1
_geom_bond_site_symmetry_2
Mo1 O2 1_555 1_555
Mo2 O1 1_555 1_555
Mo3 O8 1_555 1_555
Cu1 O6 1_555 1_555
P1 O1 1_555 1_555
P2 O4 1_555 1_555
O2 Mo2 1_555 1_555
O3 Mo2 1_555 1_555
O4 Mo2A 1_555 1_555
O5 Mo2 1_555 1_555
O6 Mo1 1_555 1_555
O7 Mo1 1_555 1_555
O8 P2 1_555 1_555
O9 Cu1 1_555 1_555
O10 P1 1_555 1_555
O11 Mo3 1_555 1_555
O12 Mo1 1_555 1_555
O13 Mo1 1_555 1_555
O14 Mo1 1_555 1_555
O15 Cu1 1_555 1_555
N1 Cu1 1_555 1_555
N2 Cu1 1_555 1_555
N3 C9 1_555 1_555
C1 P1 1_555 1_555
C2 N1 1_555 1_555
C3 C2 1_555 1_555
C4 C3 1_555 1_555
C5 C4 1_555 1_555
C6 N1 1_555 1_555
C7 N2 1_555 1_555
C8 C7 1_555 1_555
C9 C8 1_555 1_555
C10 C9 1_555 1_555
C11 C10 1_555 1_555
C12 C11 1_555 1_555
C13 N3 1_555 1_555
H1 C1 1_555 1_555
H2 C1 1_555 1_555
H3 C2 1_555 1_555
H4 C3 1_555 1_555
H5 C4 1_555 1_555
H6 C5 1_555 1_555
H7 C10 1_555 1_555
H8 C11 1_555 1_555
H9 C12 1_555 1_555
H10 C13 1_555 1_555
H11 O15 1_555 1_555
H12 O15 1_555 1_555
C8A N2 1_555 1_555
C7A C8A 1_555 1_555
N2A C8 1_555 1_555
C6A C7A 1_555 1_555
N1A C6A 1_555 1_555
C2A N1A 1_555 1_555
C3A C2A 1_555 1_555
C4A C3A 1_555 1_555
C5A C6A 1_555 1_555
H6A C5A 1_555 1_555
H5A C4A 1_555 1_555
H4A C3A 1_555 1_555
H3A C2A 1_555 1_555
C9A C8A 1_555 1_555
N3A Cu1 1_555 1_555
C13A N3A 1_555 1_555
C12A C13A 1_555 1_555
C11A C12A 1_555 1_555
C10A C9A 1_555 1_555
H7A C10A 1_555 1_555
H8A C11A 1_555 1_555
H9A C12A 1_555 1_555
H10A C13A 1_555 1_555
Mo2A O1A 1_555 1_555
Mo3A O10 1_555 1_555
P1A O1A 1_555 1_555
P2A O4A 1_555 1_555
O4A Mo2 1_555 1_555
O8A P2A 1_555 1_555
O10A P1A 1_555 1_555
O13A P1A 1_555 1_555
O14A Mo2A 1_555 1_555
C1A P1A 1_555 1_555
H1A C1A 1_555 1_555
H2A C1A 1_555 1_555
O9A Mo3 1_555 1_555
O2A Mo2A 1_555 1_555
O3A Mo2A 1_555 1_555
O5A Mo2A 1_555 1_555
O11A Mo3A 1_555 1_555
O12A Mo3A 1_555 1_555
Mo1A O13A 1_555 1_555
O6A Mo1A 1_555 1_555
O7A Mo1A 1_555 1_555
O10A_2 Mo3 1_555 1_555
Cu1A N3 1_555 1_555
O8A_2 Mo3A 1_555 1_555
O9_2 Mo3A 1_555 1_555
O13A_2 Mo3A 1_555 1_555
Mo3A_2 O8A 1_555 1_555
Mo3_2 O10A 1_555 1_555
Mo3A_3 O9 1_555 1_555
O12A_2 Mo1A 1_555 1_555
Cu1A_2 O6A 1_555 1_555
Cu1_2 O9_2 1_555 1_555
O6_2 Cu1_2 1_555 1_555
O15_2 Cu1_2 1_555 1_555
N1_2 Cu1_2 1_555 1_555
N2_2 Cu1_2 1_555 1_555
N3A_2 Cu1_2 1_555 1_555
H11_2 O15_2 1_555 1_555
H12_2 O15_2 1_555 1_555
Mo2 O14 1_555 1_555
Mo3 O12 1_555 1_555
Mo3 O13 1_555 1_555
P1 O13 1_555 1_555
P2 C1 1_555 1_555
P2 O14 1_555 1_555
C5 C6 1_555 1_555
C6 C7 1_555 1_555
C12 C13 1_555 1_555
C7A N2A 1_555 1_555
N2A Cu1A 1_555 1_555
N1A Cu1A 1_555 1_555
C4A C5A 1_555 1_555
C9A N3A 1_555 1_555
C11A C10A 1_555 1_555
P2A C1A 1_555 1_555
P2A O14A 1_555 1_555
O13A Mo3A_2 1_555 1_555
O14A Mo1A 1_555 1_555
O2A Mo1A 1_555 1_555
Mo3A_2 O12A_2 1_555 1_555

#END
