
#######################################################################
#
#                 Cambridge Crystallographic Data Centre
#                                CCDC 
#
#######################################################################
#
# If this CIF has been generated from an entry in the Cambridge 
# Structural Database, then it will include bibliographic, chemical, 
# crystal, experimental, refinement or atomic coordinate data resulting 
# from the CCDC's data processing and validation procedures.
#
#######################################################################

data_SAHMOE
_symmetry_cell_setting           monoclinic
_symmetry_space_group_name_H-M   'C c'
_symmetry_Int_Tables_number      9
_space_group_name_Hall           'C -2yc'
loop_
_symmetry_equiv_pos_site_id
_symmetry_equiv_pos_as_xyz
1 x,y,z
2 x,-y,1/2+z
3 1/2+x,1/2+y,z
4 1/2+x,1/2-y,1/2+z
_cell_length_a                   11.8055(14)
_cell_length_b                   24.057(3)
_cell_length_c                   22.381(3)
_cell_angle_alpha                90
_cell_angle_beta                 99.901(2)
_cell_angle_gamma                90
_cell_volume                     6261.65
loop_
_atom_site_label
_atom_site_type_symbol
_atom_site_fract_x
_atom_site_fract_y
_atom_site_fract_z
Mo1 Mo 0.82086(5) 0.46254(3) 0.05101(3)
Mo2 Mo 0.68350(6) 0.33268(3) 0.03453(3)
Mo3 Mo 0.86666(6) 0.24217(3) 0.09100(3)
Mo4 Mo 1.00355(5) 0.35694(3) 0.06958(3)
Mo5 Mo 1.01860(6) 0.27040(3) 0.22009(3)
Mo6 Mo 1.14801(6) 0.41315(3) 0.23260(3)
Mo7 Mo 0.98197(6) 0.52338(3) 0.20467(3)
P1 P 0.85803(17) 0.38896(8) 0.18725(9)
P2 P 0.70245(17) 0.48818(8) 0.16864(10)
O1 O 0.8527(5) 0.3886(2) 0.1178(2)
O2 O 0.8709(5) 0.3300(2) 0.2117(3)
O3 O 0.9543(5) 0.4281(2) 0.2168(2)
O4 O 0.8095(5) 0.5228(2) 0.1953(3)
O5 O 0.5951(5) 0.5131(2) 0.1826(3)
O6 O 0.6982(5) 0.4798(2) 0.0998(2)
O7 O 0.9211(5) 0.4961(2) 0.1062(3)
O8 O 0.9304(5) 0.4168(2) 0.0199(2)
O9 O 0.7858(5) 0.5102(2) -0.0049(3)
O10 O 0.7055(5) 0.4045(2) 0.0123(3)
O11 O 0.6098(5) 0.3380(2) 0.0931(3)
O12 O 0.5905(5) 0.3059(2) -0.0252(3)
O13 O 0.7157(5) 0.2448(3) 0.0730(3)
O14 O 0.8480(5) 0.3097(2) 0.0359(3)
O15 O 0.9123(6) 0.1889(2) 0.0516(3)
O16 O 0.8940(5) 0.2236(2) 0.1711(3)
O17 O 0.9992(5) 0.2922(2) 0.1224(2)
O18 O 1.0862(5) 0.3332(2) 0.0203(3)
O19 O 1.0961(5) 0.3927(2) 0.1256(3)
O20 O 1.1287(5) 0.2272(2) 0.2111(3)
O21 O 0.9929(5) 0.2535(2) 0.2904(3)
O22 O 1.1046(5) 0.3377(2) 0.2337(3)
O23 O 1.2878(5) 0.4073(2) 0.2242(3)
O24 O 1.1590(5) 0.4288(2) 0.3070(3)
O25 O 1.1193(5) 0.4875(2) 0.1973(2)
O26 O 0.9989(5) 0.5358(2) 0.2807(3)
O27 O 1.0032(5) 0.5875(2) 0.1756(3)
C1 C 0.7286(7) 0.4189(3) 0.2013(4)
H1 H 0.7310 0.4211 0.2456
H2 H 0.6637 0.3943 0.1843
Ni1 Ni 0.37995(9) 0.56470(4) 0.39974(5)
Ni2 Ni 0.62267(8) 0.31348(4) 0.39276(5)
N1 N 0.3077(6) 0.5731(3) 0.3066(3)
N2 N 0.3000(6) 0.6402(3) 0.3965(3)
N3 N 0.4153(6) 0.5897(3) 0.4901(3)
N4 N 0.2589(6) 0.5119(3) 0.4311(4)
N5 N 0.4596(6) 0.4888(3) 0.4003(3)
N6 N 0.5364(6) 0.5845(3) 0.3733(3)
N7 N 0.7468(5) 0.3632(3) 0.3645(3)
N8 N 0.5525(5) 0.3896(3) 0.3947(3)
N9 N 0.4661(6) 0.2943(3) 0.4166(3)
N10 N 0.0487(6) 0.7801(3) 0.3078(3)
N11 N 0.2000(5) 0.7384(3) 0.3942(3)
N12 N 0.2282(6) 0.8134(3) 0.4792(3)
C2 C 0.3360(7) 0.5422(3) 0.2621(4)
H3 H 0.3697 0.5068 0.2721
C3 C 0.3193(7) 0.5584(4) 0.2029(4)
H4 H 0.3375 0.5339 0.1726
C4 C 0.2755(7) 0.6107(4) 0.1870(4)
H5 H 0.2680 0.6239 0.1465
C5 C 0.2427(7) 0.6437(3) 0.2328(4)
H6 H 0.2094 0.6793 0.2236
C6 C 0.2593(7) 0.6237(3) 0.2917(4)
C7 C 0.3148(6) 0.6688(3) 0.4483(3)
C8 C 0.3612(6) 0.6373(3) 0.5029(4)
C9 C 0.3402(7) 0.6500(4) 0.5591(4)
H7 H 0.3020 0.6836 0.5657
C10 C 0.3754(8) 0.6130(4) 0.6073(4)
H8 H 0.3618 0.6210 0.6470
C11 C 0.4304(7) 0.5646(4) 0.5952(4)
H9 H 0.4537 0.5380 0.6262
C12 C 0.4507(7) 0.5558(3) 0.5364(4)
H10 H 0.4925 0.5235 0.5290
C13 C 0.1741(7) 0.5290(4) 0.4589(4)
H11 H 0.1436 0.5652 0.4497
C14 C 0.1276(8) 0.4974(4) 0.5002(5)
H12 H 0.0655 0.5111 0.5179
C15 C 0.1736(8) 0.4452(4) 0.5154(4)
H13 H 0.1449 0.4231 0.5445
C16 C 0.2618(7) 0.4258(3) 0.4876(4)
H14 H 0.2947 0.3902 0.4974
C17 C 0.3016(7) 0.4595(3) 0.4448(4)
C18 C 0.4011(7) 0.4450(3) 0.4165(4)
C19 C 0.5605(7) 0.4872(3) 0.3816(4)
C20 C 0.5955(6) 0.5397(3) 0.3578(4)
C21 C 0.6711(7) 0.5449(3) 0.3168(4)
H15 H 0.7075 0.5130 0.3038
C22 C 0.6933(7) 0.5976(3) 0.2948(4)
H16 H 0.7450 0.6022 0.2670
C23 C 0.6379(7) 0.6424(3) 0.3147(4)
H17 H 0.6545 0.6790 0.3026
C24 C 0.5592(7) 0.6344(3) 0.3517(4)
H18 H 0.5185 0.6658 0.3628
C25 C 0.8467(7) 0.3448(3) 0.3527(4)
H19 H 0.8542 0.3064 0.3441
C26 C 0.9396(7) 0.3792(3) 0.3526(4)
H20 H 1.0094 0.3649 0.3432
C27 C 0.9307(7) 0.4345(4) 0.3660(4)
H21 H 0.9945 0.4586 0.3666
C28 C 0.8272(7) 0.4548(3) 0.3790(3)
H22 H 0.8204 0.4926 0.3902
C29 C 0.7338(6) 0.4189(3) 0.3752(3)
C30 C 0.6162(7) 0.4342(3) 0.3839(3)
C31 C 0.4467(7) 0.3932(3) 0.4078(4)
C32 C 0.3908(6) 0.3371(3) 0.4082(3)
C33 C 0.2719(7) 0.3294(3) 0.3966(4)
H23 H 0.2212 0.3602 0.3894
C34 C 0.2302(7) 0.2762(3) 0.3959(4)
H24 H 0.1496 0.2698 0.3876
C35 C 0.3054(7) 0.2321(3) 0.4072(4)
H25 H 0.2777 0.1952 0.4086
C36 C 0.4226(7) 0.2430(3) 0.4165(4)
H26 H 0.4744 0.2126 0.4231
C37 C -0.0450(7) 0.8008(3) 0.2717(4)
H27 H -0.0619 0.8393 0.2744
C38 C -0.1169(7) 0.7684(4) 0.2312(4)
H28 H -0.1828 0.7843 0.2069
C39 C -0.0931(7) 0.7127(4) 0.2260(4)
H29 H -0.1430 0.6896 0.1988
C40 C 0.0048(7) 0.6909(3) 0.2612(4)
H30 H 0.0245 0.6529 0.2579
C41 C 0.0734(7) 0.7260(3) 0.3014(4)
C42 C 0.1747(7) 0.7058(3) 0.3454(4)
C43 C 0.2410(7) 0.6574(3) 0.3438(4)
C44 C 0.2733(6) 0.7251(3) 0.4447(4)
C45 C 0.3027(7) 0.7707(3) 0.4876(4)
C46 C 0.4043(7) 0.7727(3) 0.5312(4)
H31 H 0.4580 0.7429 0.5353
C47 C 0.4235(8) 0.8188(3) 0.5675(4)
H32 H 0.4913 0.8213 0.5972
C48 C 0.3437(8) 0.8623(4) 0.5610(4)
H33 H 0.3559 0.8942 0.5863
C49 C 0.2468(8) 0.8578(3) 0.5168(4)
H34 H 0.1913 0.8868 0.5127
N10B N 0.5487(6) 0.2801(3) 0.3078(3)
N11B N 0.7000(5) 0.2384(3) 0.3942(3)
N12B N 0.7282(6) 0.3134(3) 0.4792(3)
Ni2B Ni 0.12267(8) 0.81348(4) 0.39276(5)
O28 O 0.9737(8) 0.6105(3) 0.3865(4)
O29 O 0.0202(8) 0.0788(3) 0.0634(5)
O30 O 0.5100(8) 0.4392(4) 0.2596(4)
O31 O 0.1530(13) 0.7729(7) 0.1987(7)
loop_
_geom_bond_atom_site_label_1
_geom_bond_atom_site_label_2
_geom_bond_site_symmetry_1
_geom_bond_site_symmetry_2
Mo1 O1 1_555 1_555
Mo2 O10 1_555 1_555
Mo3 O13 1_555 1_555
Mo4 O1 1_555 1_555
Mo5 O2 1_555 1_555
Mo6 O3 1_555 1_555
Mo7 O3 1_555 1_555
Ni1 N1 1_555 1_555
Ni2 N7 1_555 1_555
P1 O1 1_555 1_555
P2 O4 1_555 1_555
O2 P1 1_555 1_555
O3 P1 1_555 1_555
O4 Mo7 1_555 1_555
O5 P2 1_555 1_555
O6 Mo1 1_555 1_555
O7 Mo1 1_555 1_555
O8 Mo1 1_555 1_555
O9 Mo1 1_555 1_555
O10 Mo1 1_555 1_555
O11 Mo2 1_555 1_555
O12 Mo2 1_555 1_555
O13 Mo2 1_555 1_555
O14 Mo2 1_555 1_555
O15 Mo3 1_555 1_555
O16 Mo3 1_555 1_555
O17 Mo3 1_555 1_555
O18 Mo4 1_555 1_555
O19 Mo4 1_555 1_555
O20 Mo5 1_555 1_555
O21 Mo5 1_555 1_555
O22 Mo5 1_555 1_555
O23 Mo6 1_555 1_555
O24 Mo6 1_555 1_555
O25 Mo6 1_555 1_555
O26 Mo7 1_555 1_555
O27 Mo7 1_555 1_555
N1 C2 1_555 1_555
N2 Ni1 1_555 1_555
N3 Ni1 1_555 1_555
N4 Ni1 1_555 1_555
N5 Ni1 1_555 1_555
N6 Ni1 1_555 1_555
N7 C25 1_555 1_555
N8 Ni2 1_555 1_555
N9 Ni2 1_555 1_555
N10 C37 1_555 1_555
N11 C42 1_555 1_555
N12 C45 1_555 1_555
C1 P1 1_555 1_555
H1 C1 1_555 1_555
H2 C1 1_555 1_555
C2 H3 1_555 1_555
C3 C2 1_555 1_555
H4 C3 1_555 1_555
C4 C3 1_555 1_555
H5 C4 1_555 1_555
C5 C4 1_555 1_555
H6 C5 1_555 1_555
C6 N1 1_555 1_555
C7 N2 1_555 1_555
C8 N3 1_555 1_555
C9 C8 1_555 1_555
H7 C9 1_555 1_555
C10 C9 1_555 1_555
H8 C10 1_555 1_555
C11 C10 1_555 1_555
H9 C11 1_555 1_555
C12 N3 1_555 1_555
H10 C12 1_555 1_555
C13 N4 1_555 1_555
H11 C13 1_555 1_555
C14 C13 1_555 1_555
H12 C14 1_555 1_555
C15 C14 1_555 1_555
H13 C15 1_555 1_555
C16 C15 1_555 1_555
H14 C16 1_555 1_555
C17 N4 1_555 1_555
C18 N5 1_555 1_555
C19 N5 1_555 1_555
C20 N6 1_555 1_555
C21 C20 1_555 1_555
H15 C21 1_555 1_555
C22 C21 1_555 1_555
H16 C22 1_555 1_555
C23 C22 1_555 1_555
H17 C23 1_555 1_555
C24 N6 1_555 1_555
H18 C24 1_555 1_555
C25 H19 1_555 1_555
C26 C25 1_555 1_555
H20 C26 1_555 1_555
C27 C26 1_555 1_555
H21 C27 1_555 1_555
C28 C27 1_555 1_555
H22 C28 1_555 1_555
C29 N7 1_555 1_555
C30 N8 1_555 1_555
C31 N8 1_555 1_555
C32 N9 1_555 1_555
C33 C32 1_555 1_555
H23 C33 1_555 1_555
C34 C33 1_555 1_555
H24 C34 1_555 1_555
C35 C34 1_555 1_555
H25 C35 1_555 1_555
C36 N9 1_555 1_555
H26 C36 1_555 1_555
C37 H27 1_555 1_555
C38 C37 1_555 1_555
H28 C38 1_555 1_555
C39 C38 1_555 1_555
H29 C39 1_555 1_555
C40 C39 1_555 1_555
H30 C40 1_555 1_555
C41 N10 1_555 1_555
C42 C41 1_555 1_555
C43 N2 1_555 1_555
C44 N11 1_555 1_555
C45 C44 1_555 1_555
C46 C45 1_555 1_555
H31 C46 1_555 1_555
C47 C46 1_555 1_555
H32 C47 1_555 1_555
C48 C47 1_555 1_555
H33 C48 1_555 1_555
C49 N12 1_555 1_555
H34 C49 1_555 1_555
N10B Ni2 1_555 1_555
N11B Ni2 1_555 1_555
N12B Ni2 1_555 1_555
Ni2B N10 1_555 1_555
Mo3 O14 1_555 1_555
Mo4 O17 1_555 1_555
Mo4 O8 1_555 1_555
Mo4 O14 1_555 1_555
Mo5 O16 1_555 1_555
Mo5 O17 1_555 1_555
Mo6 O19 1_555 1_555
Mo6 O22 1_555 1_555
Mo7 O7 1_555 1_555
Mo7 O25 1_555 1_555
P2 C1 1_555 1_555
P2 O6 1_555 1_555
N11 Ni2B 1_555 1_555
N12 Ni2B 1_555 1_555
C5 C6 1_555 1_555
C6 C43 1_555 1_555
C7 C8 1_555 1_555
C7 C44 1_555 1_555
C11 C12 1_555 1_555
C16 C17 1_555 1_555
C17 C18 1_555 1_555
C18 C31 1_555 1_555
C19 C20 1_555 1_555
C19 C30 1_555 1_555
C23 C24 1_555 1_555
C28 C29 1_555 1_555
C29 C30 1_555 1_555
C31 C32 1_555 1_555
C35 C36 1_555 1_555
C40 C41 1_555 1_555
C42 C43 1_555 1_555
C48 C49 1_555 1_555

#END
