
#######################################################################
#
#                 Cambridge Crystallographic Data Centre
#                                CCDC 
#
#######################################################################
#
# If this CIF has been generated from an entry in the Cambridge 
# Structural Database, then it will include bibliographic, chemical, 
# crystal, experimental, refinement or atomic coordinate data resulting 
# from the CCDC's data processing and validation procedures.
#
#######################################################################

data_SAHMAQ
_symmetry_cell_setting           monoclinic
_symmetry_space_group_name_H-M   'P 21/n'
_symmetry_Int_Tables_number      14
_space_group_name_Hall           '-P 2yn'
loop_
_symmetry_equiv_pos_site_id
_symmetry_equiv_pos_as_xyz
1 x,y,z
2 1/2+x,1/2-y,1/2+z
3 -x,-y,-z
4 1/2-x,1/2+y,1/2-z
_cell_length_a                   16.2142(6)
_cell_length_b                   16.8347(6)
_cell_length_c                   23.7990(9)
_cell_angle_alpha                90
_cell_angle_beta                 104.6050(10)
_cell_angle_gamma                90
_cell_volume                     6286.29
loop_
_atom_site_label
_atom_site_type_symbol
_atom_site_fract_x
_atom_site_fract_y
_atom_site_fract_z
Mo1 Mo 0.168723(17) -0.039886(15) 0.897074(11)
Mo2 Mo -0.014895(17) -0.078949(16) 0.771959(12)
Mo3 Mo 0.077531(18) -0.138141(16) 0.665465(12)
Mo4 Mo 0.280562(17) -0.188711(15) 0.726337(11)
Mo5 Mo 0.332141(18) -0.141633(16) 0.869361(12)
Ni1 Ni 0.29151(3) -0.35965(2) 0.634230(17)
Ni2 Ni 0.23505(3) -0.05650(2) 0.447440(17)
P1 P 0.13569(6) -0.21577(5) 0.80941(4)
P2 P 0.29750(5) -0.50965(5) 0.73607(3)
O1 O 0.19205(15) -0.15550(13) 0.85150(10)
O2 O 0.15157(14) -0.20970(13) 0.74858(9)
O3 O 0.04347(15) -0.19933(14) 0.80759(10)
O4 O 0.30261(14) -0.46309(12) 0.68176(9)
O5 O 0.38542(14) -0.54514(13) 0.76433(10)
O6 O 0.22893(14) -0.57525(13) 0.71969(10)
O7 O 0.28654(15) -0.05595(13) 0.90750(10)
O8 O 0.06215(14) -0.04347(13) 0.84270(10)
O9 O -0.01609(15) -0.13446(14) 0.70287(10)
O10 O 0.19843(15) -0.13282(13) 0.66922(9)
O11 O 0.32087(14) -0.21629(13) 0.80662(9)
O12 O 0.14663(16) -0.09145(14) 0.95317(10)
O13 O 0.17355(14) 0.05835(13) 0.92278(10)
O14 O -0.05284(15) 0.01098(14) 0.74330(10)
O15 O -0.09956(16) -0.11389(15) 0.79505(12)
O16 O 0.04230(16) -0.06945(15) 0.61231(10)
O17 O 0.05191(16) -0.22683(14) 0.63090(10)
O18 O 0.27139(14) -0.28350(13) 0.69622(10)
O19 O 0.37063(16) -0.15233(14) 0.71101(11)
O20 O 0.42773(15) -0.09820(14) 0.86963(11)
O21 O 0.35678(17) -0.20737(15) 0.92545(10)
N1 N 0.41384(17) -0.31588(15) 0.64820(12)
N2 N 0.27553(17) -0.27169(15) 0.57434(11)
N3 N 0.16521(17) -0.37122(15) 0.59241(11)
N4 N 0.12401(17) -0.12049(16) 0.41566(11)
N5 N 0.25282(17) -0.15022(15) 0.50180(11)
N6 N 0.35133(17) -0.02781(16) 0.50385(12)
N7 N 0.28862(18) -0.10560(16) 0.38387(12)
N8 N 0.21971(17) 0.03224(16) 0.39027(12)
N9 N 0.17494(17) 0.02784(16) 0.48563(12)
N10 N 0.2244(2) 0.28864(19) 0.42308(14)
N11 N 0.23439(17) 0.16145(17) 0.32475(12)
N12 N 0.39692(19) 0.06117(19) 0.29019(13)
C1 C 0.4830(2) -0.3520(2) 0.68020(15)
H1 H 0.4760 -0.3942 0.7051
C2 C 0.5648(2) -0.3303(2) 0.67852(18)
H2 H 0.6130 -0.3556 0.7030
C3 C 0.5747(2) -0.2712(2) 0.6407(2)
H3 H 0.6300 -0.2565 0.6377
C4 C 0.5030(2) -0.2333(2) 0.60696(17)
H4 H 0.5085 -0.1930 0.5802
C5 C 0.4235(2) -0.25550(19) 0.61303(14)
C6 C 0.3417(2) -0.22331(18) 0.57706(13)
C7 C 0.1992(2) -0.26509(18) 0.53626(13)
C8 C 0.1346(2) -0.32109(18) 0.54724(13)
C9 C 0.0491(2) -0.3225(2) 0.51750(14)
H5 H 0.0273 -0.2841 0.4883
C10 C -0.0043(2) -0.3804(2) 0.53052(15)
H6 H -0.0623 -0.3834 0.5092
C11 C 0.0281(2) -0.4331(2) 0.57477(15)
H7 H -0.0064 -0.4742 0.5839
C12 C 0.1128(2) -0.42462(18) 0.60582(14)
H8 H 0.1341 -0.4586 0.6381
C13 C 0.0651(2) -0.1022(2) 0.36696(14)
H9 H 0.0609 -0.0488 0.3536
C14 C 0.0100(2) -0.1584(2) 0.33539(15)
H10 H -0.0335 -0.1432 0.3023
C15 C 0.0194(2) -0.2368(2) 0.35290(15)
H11 H -0.0144 -0.2770 0.3302
C16 C 0.0792(2) -0.25632(19) 0.40452(14)
H12 H 0.0863 -0.3098 0.4177
C17 C 0.12782(19) -0.19600(18) 0.43599(13)
C18 C 0.19282(19) -0.20677(17) 0.49239(13)
C19 C 0.3254(2) -0.15231(18) 0.54415(13)
C20 C 0.3762(2) -0.07807(18) 0.54976(14)
C21 C 0.4399(2) -0.05763(19) 0.59823(15)
H13 H 0.4554 -0.0927 0.6305
C22 C 0.4809(2) 0.0154(2) 0.59889(16)
H14 H 0.5249 0.0304 0.6317
C23 C 0.4574(2) 0.0653(2) 0.55198(16)
H15 H 0.4853 0.1148 0.5515
C24 C 0.3916(2) 0.04164(19) 0.50525(15)
H16 H 0.3746 0.0764 0.4729
C25 C 0.3179(3) -0.1798(2) 0.38223(19)
H17 H 0.3277 -0.2115 0.4163
C26 C 0.3343(4) -0.2119(3) 0.3328(2)
H18 H 0.3581 -0.2636 0.3334
C27 C 0.3153(4) -0.1671(3) 0.2824(2)
H19 H 0.3208 -0.1897 0.2470
C28 C 0.2881(3) -0.0892(2) 0.28382(18)
H20 H 0.2760 -0.0573 0.2498
C29 C 0.2789(2) -0.0592(2) 0.33606(14)
C30 C 0.2538(2) 0.02380(19) 0.34480(13)
C31 C 0.1903(2) 0.10232(18) 0.40368(14)
C32 C 0.1570(2) 0.09770(19) 0.45655(14)
C33 C 0.1096(2) 0.1559(2) 0.47490(16)
H21 H 0.0973 0.2047 0.4544
C34 C 0.0804(2) 0.1413(2) 0.52403(16)
H22 H 0.0471 0.1802 0.5372
C35 C 0.0992(2) 0.0710(2) 0.55368(16)
H23 H 0.0802 0.0608 0.5877
C36 C 0.1464(2) 0.0154(2) 0.53274(15)
H24 H 0.1592 -0.0337 0.5527
C37 C 0.0994(2) 0.3725(2) 0.34374(17)
H25 H 0.0563 0.4012 0.3170
C38 C 0.1541(2) 0.4109(2) 0.38899(18)
H26 H 0.1505 0.4667 0.3934
C39 C 0.2144(3) 0.3671(2) 0.42792(19)
H27 H 0.2507 0.3939 0.4598
C40 C 0.1080(2) 0.2909(2) 0.33755(15)
H28 H 0.0709 0.2626 0.3068
C41 C 0.1723(2) 0.25233(19) 0.37763(15)
C42 C 0.1962(2) 0.16804(19) 0.36847(14)
C43 C 0.2657(2) 0.0911(2) 0.31352(14)
C44 C 0.3183(2) 0.0908(2) 0.27060(14)
C45 C 0.2895(3) 0.1207(4) 0.2162(2)
H29 H 0.2345 0.1441 0.2045
C46 C 0.3412(3) 0.1166(4) 0.1779(2)
H30 H 0.3211 0.1351 0.1392
C47 C 0.4211(2) 0.0859(2) 0.19643(17)
H31 H 0.4579 0.0824 0.1711
C48 C 0.4470(2) 0.0602(2) 0.25314(17)
H32 H 0.5035 0.0406 0.2667
C49 C 0.1695(2) -0.3110(2) 0.84183(16)
H33 H 0.2319 -0.3151 0.8476
H34 H 0.1579 -0.3122 0.8807
C50 C 0.1285(2) -0.3845(2) 0.80832(17)
H35 H 0.1297 -0.4282 0.8364
H36 H 0.0680 -0.3725 0.7898
C51 C 0.2634(2) -0.4443(2) 0.78591(15)
H37 H 0.2670 -0.4730 0.8228
H38 H 0.3025 -0.3983 0.7945
C52 C 0.1705(2) -0.4137(2) 0.76157(16)
H39 H 0.1712 -0.3697 0.7341
H40 H 0.1356 -0.4572 0.7396
O4C O 0.19739(14) 0.03691(12) 0.81824(9)
O5C O 0.11458(14) -0.04514(13) 0.73567(10)
O6C O 0.27107(14) -0.07525(13) 0.78031(10)
O13C O 0.32645(14) -0.44165(13) 0.57722(10)
Mo1C Mo 0.331277(17) -0.539886(15) 0.602926(11)
Mo3C Mo 0.422469(18) -0.638141(16) 0.834535(12)
Mo4C Mo 0.219438(17) -0.688711(15) 0.773663(11)
Mo5C Mo 0.167859(18) -0.641633(16) 0.630639(12)
Ni1C Ni 0.20849(3) 0.14035(2) 0.865770(17)
O22 O 0.0104(3) 0.7692(3) 0.91627(17)
O23 O 0.1257(3) 0.7184(3) 0.01669(19)
O24 O 0.0956(5) 0.1877(4) 0.0161(3)
O26 O 0.2402(5) 0.0920(7) 0.0448(3)
O27 O 0.0315(5) 0.9301(4) 0.0308(3)
O28 O 0.8445(5) 0.9922(5) 0.8820(3)
O25? O 0.2090(12) 0.1383(10) 0.0356(5)
O29? O 0.9207(8) 0.9164(8) 0.9174(5)
O30? O 0.1836(12) 0.7244(9) -0.0264(6)
loop_
_geom_bond_atom_site_label_1
_geom_bond_atom_site_label_2
_geom_bond_site_symmetry_1
_geom_bond_site_symmetry_2
Mo1 O1 1_555 1_555
Mo2 O3 1_555 1_555
Mo3 O2 1_555 1_555
Mo4 O2 1_555 1_555
Mo5 O1 1_555 1_555
Ni1 O4 1_555 1_555
Ni2 N4 1_555 1_555
P1 O1 1_555 1_555
P2 O4 1_555 1_555
O2 P1 1_555 1_555
O3 P1 1_555 1_555
O4 Mo1C 1_555 1_555
O5 P2 1_555 1_555
O6 P2 1_555 1_555
O7 Mo1 1_555 1_555
O8 Mo1 1_555 1_555
O9 Mo2 1_555 1_555
O10 Mo3 1_555 1_555
O11 Mo4 1_555 1_555
O12 Mo1 1_555 1_555
O13 Mo1 1_555 1_555
O14 Mo2 1_555 1_555
O15 Mo2 1_555 1_555
O16 Mo3 1_555 1_555
O17 Mo3 1_555 1_555
O18 Mo4 1_555 1_555
O19 Mo4 1_555 1_555
O20 Mo5 1_555 1_555
O21 Mo5 1_555 1_555
N1 Ni1 1_555 1_555
N2 Ni1 1_555 1_555
N3 Ni1 1_555 1_555
N4 C13 1_555 1_555
N5 Ni2 1_555 1_555
N6 Ni2 1_555 1_555
N7 Ni2 1_555 1_555
N8 Ni2 1_555 1_555
N9 Ni2 1_555 1_555
N10 C39 1_555 1_555
N11 C42 1_555 1_555
N12 C44 1_555 1_555
C1 N1 1_555 1_555
H1 C1 1_555 1_555
C2 C1 1_555 1_555
H2 C2 1_555 1_555
C3 C2 1_555 1_555
H3 C3 1_555 1_555
C4 C3 1_555 1_555
H4 C4 1_555 1_555
C5 N1 1_555 1_555
C6 N2 1_555 1_555
C7 N2 1_555 1_555
C8 N3 1_555 1_555
C9 C8 1_555 1_555
H5 C9 1_555 1_555
C10 C9 1_555 1_555
H6 C10 1_555 1_555
C11 C10 1_555 1_555
H7 C11 1_555 1_555
C12 N3 1_555 1_555
H8 C12 1_555 1_555
C13 H9 1_555 1_555
C14 C13 1_555 1_555
H10 C14 1_555 1_555
C15 C14 1_555 1_555
H11 C15 1_555 1_555
C16 C15 1_555 1_555
H12 C16 1_555 1_555
C17 N4 1_555 1_555
C18 N5 1_555 1_555
C19 N5 1_555 1_555
C20 N6 1_555 1_555
C21 C20 1_555 1_555
H13 C21 1_555 1_555
C22 C21 1_555 1_555
H14 C22 1_555 1_555
C23 C22 1_555 1_555
H15 C23 1_555 1_555
C24 N6 1_555 1_555
H16 C24 1_555 1_555
C25 N7 1_555 1_555
H17 C25 1_555 1_555
C26 C25 1_555 1_555
H18 C26 1_555 1_555
C27 C26 1_555 1_555
H19 C27 1_555 1_555
C28 C27 1_555 1_555
H20 C28 1_555 1_555
C29 N7 1_555 1_555
C30 N8 1_555 1_555
C31 N8 1_555 1_555
C32 N9 1_555 1_555
C33 C32 1_555 1_555
H21 C33 1_555 1_555
C34 C33 1_555 1_555
H22 C34 1_555 1_555
C35 C34 1_555 1_555
H23 C35 1_555 1_555
C36 N9 1_555 1_555
H24 C36 1_555 1_555
C37 H25 1_555 1_555
C38 C37 1_555 1_555
H26 C38 1_555 1_555
C39 C38 1_555 1_555
H27 C39 1_555 1_555
C40 C37 1_555 1_555
H28 C40 1_555 1_555
C41 N10 1_555 1_555
C42 C31 1_555 1_555
C43 N11 1_555 1_555
C44 C43 1_555 1_555
C45 C44 1_555 1_555
H29 C45 1_555 1_555
C46 C45 1_555 1_555
H30 C46 1_555 1_555
C47 C46 1_555 1_555
H31 C47 1_555 1_555
C48 N12 1_555 1_555
H32 C48 1_555 1_555
C49 P1 1_555 1_555
H33 C49 1_555 1_555
H34 C49 1_555 1_555
C50 C49 1_555 1_555
H35 C50 1_555 1_555
H36 C50 1_555 1_555
C51 P2 1_555 1_555
H37 C51 1_555 1_555
H38 C51 1_555 1_555
C52 C50 1_555 1_555
H39 C52 1_555 1_555
H40 C52 1_555 1_555
O4C Mo1 1_555 1_555
O5C Mo3 1_555 1_555
O6C Mo4 1_555 1_555
O13C Ni1 1_555 1_555
Mo1C O13C 1_555 1_555
Mo3C O5 1_555 1_555
Mo4C O6 1_555 1_555
Mo5C O6 1_555 1_555
Ni1C O13 1_555 1_555
Mo2 O8 1_555 1_555
Mo3 O9 1_555 1_555
Mo4 O10 1_555 1_555
Mo5 O7 1_555 1_555
Mo5 O11 1_555 1_555
Mo5 O6C 1_555 1_555
Ni1 O18 1_555 1_555
C4 C5 1_555 1_555
C5 C6 1_555 1_555
C6 C19 1_555 1_555
C7 C8 1_555 1_555
C7 C18 1_555 1_555
C11 C12 1_555 1_555
C16 C17 1_555 1_555
C17 C18 1_555 1_555
C19 C20 1_555 1_555
C23 C24 1_555 1_555
C28 C29 1_555 1_555
C29 C30 1_555 1_555
C30 C43 1_555 1_555
C31 C32 1_555 1_555
C35 C36 1_555 1_555
C40 C41 1_555 1_555
C41 C42 1_555 1_555
C47 C48 1_555 1_555
C51 C52 1_555 1_555
O4C Ni1C 1_555 1_555

#END
