
#######################################################################
#
#                 Cambridge Crystallographic Data Centre
#                                CCDC 
#
#######################################################################
#
# If this CIF has been generated from an entry in the Cambridge 
# Structural Database, then it will include bibliographic, chemical, 
# crystal, experimental, refinement or atomic coordinate data resulting 
# from the CCDC's data processing and validation procedures.
#
#######################################################################

data_SAHMEU
_symmetry_cell_setting           triclinic
_symmetry_space_group_name_H-M   'P -1'
_symmetry_Int_Tables_number      2
_space_group_name_Hall           '-P 1'
loop_
_symmetry_equiv_pos_site_id
_symmetry_equiv_pos_as_xyz
1 x,y,z
2 -x,-y,-z
_cell_length_a                   12.4451(6)
_cell_length_b                   12.9157(7)
_cell_length_c                   13.4289(7)
_cell_angle_alpha                96.8270(10)
_cell_angle_beta                 99.0470(10)
_cell_angle_gamma                92.3020(10)
_cell_volume                     2112.74
loop_
_atom_site_label
_atom_site_type_symbol
_atom_site_fract_x
_atom_site_fract_y
_atom_site_fract_z
O24 O 0.9300(2) 0.31680(18) 0.42275(18)
H33 H 0.914(5) 0.368(5) 0.412(4)
H34 H 0.973(6) 0.322(6) 0.460(6)
O25 O 0.8214(2) 0.4577(2) 0.93962(18)
H35 H 0.814(4) 0.473(4) 1.006(4)
H36 H 0.898(6) 0.445(5) 0.937(5)
O26 O 0.5335(10) 0.0444(9) 0.2432(10)
Mo1 Mo 0.618119(18) 0.762169(18) 0.321895(18)
Mo2 Mo 0.758764(18) 0.561624(17) 0.401833(16)
Mo3 Mo 0.964533(18) 0.513049(17) 0.234454(16)
Mo4 Mo 0.972427(19) 0.733838(17) 0.120491(17)
Mo5 Mo 0.75694(2) 0.876848(18) 0.164492(18)
Ni1 Ni 0.96109(3) 0.22562(3) 0.13078(3)
Ni2 Ni 0.73849(3) 0.46141(3) 0.64002(3)
P1 P 0.90342(5) 0.76518(5) 0.35891(5)
P2 P 0.72787(6) 0.60251(5) 0.14488(5)
O1 O 0.79979(16) 0.81772(15) 0.31751(15)
O2 O 0.88154(16) 0.69815(15) 0.44007(14)
O3 O 0.94836(16) 0.69623(15) 0.27395(14)
O4 O 0.79660(16) 0.50787(15) 0.14299(15)
O5 O 0.78411(17) 0.69674(15) 0.10922(15)
O6 O 0.70434(16) 0.63055(15) 0.25443(15)
O7 O 0.66628(16) 0.67287(16) 0.42558(15)
O8 O 0.88183(16) 0.50900(15) 0.33955(14)
O9 O 0.98495(16) 0.58438(15) 0.12169(14)
O10 O 0.91018(18) 0.86122(16) 0.16154(16)
O11 O 0.62593(17) 0.81581(16) 0.19538(16)
O12 O 0.61072(19) 0.87237(17) 0.40367(18)
O13 O 0.48653(18) 0.71116(18) 0.28795(19)
O14 O 0.79141(17) 0.53585(16) 0.52657(15)
O15 O 0.66761(17) 0.46045(16) 0.34974(16)
O16 O 1.09571(16) 0.53460(16) 0.30237(15)
O17 O 0.96534(16) 0.38290(15) 0.18419(15)
O18 O 1.10366(17) 0.77723(17) 0.16379(16)
O19 O 0.95972(17) 0.73460(15) -0.01092(15)
O20 O 0.7115(2) 0.88807(18) 0.04006(17)
O21 O 0.76374(19) 1.00306(17) 0.22288(17)
O22 O 0.8735(2) 0.19811(19) 0.24280(17)
O23 O 0.71346(19) 0.3837(2) 0.75774(18)
N1 N 0.81471(19) 0.19942(18) 0.03291(18)
N2 N 0.97325(19) 0.07702(18) 0.06475(17)
N3 N 0.90133(19) -0.17839(18) -0.22035(17)
N4 N 0.7009(2) 0.31888(19) 0.5501(2)
N5 N 0.58149(18) 0.47502(18) 0.56841(17)
N6 N 0.3059(2) 0.4026(2) 0.28230(18)
C1 C 0.7294(2) 0.2575(2) 0.0389(2)
H1 H 0.7400 0.3244 0.0782
C2 C 0.6255(3) 0.2232(3) -0.0105(3)
H2 H 0.5663 0.2668 -0.0064
C3 C 0.6089(2) 0.1249(2) -0.0658(3)
H3 H 0.5380 0.0996 -0.0991
C4 C 0.6973(2) 0.0639(2) -0.0720(2)
H4 H 0.6879 -0.0042 -0.1089
C5 C 0.8002(2) 0.1040(2) -0.0231(2)
C6 C 0.9016(2) 0.0460(2) -0.0198(2)
C7 C 0.9310(2) -0.0345(2) -0.0889(2)
C8 C 0.8719(2) -0.0812(2) -0.1901(2)
C9 C 0.7983(2) -0.0291(2) -0.2525(2)
H5 H 0.7835 0.0413 -0.2326
C10 C 0.7468(2) -0.0830(2) -0.3450(2)
H6 H 0.6924 -0.0513 -0.3871
C11 C 0.7755(2) -0.1831(2) -0.3752(2)
H7 H 0.7411 -0.2210 -0.4379
C12 C 0.8555(2) -0.2264(2) -0.3119(2)
H8 H 0.8787 -0.2931 -0.3344
C13 C 0.7574(2) 0.2351(2) 0.5643(3)
H9 H 0.8273 0.2441 0.6055
C14 C 0.7180(3) 0.1350(3) 0.5210(3)
H10 H 0.7620 0.0771 0.5288
C15 C 0.6125(3) 0.1211(2) 0.4659(3)
H11 H 0.5825 0.0534 0.4370
C16 C 0.5524(2) 0.2080(2) 0.4542(3)
H12 H 0.4794 0.2004 0.4195
C17 C 0.5997(2) 0.3058(2) 0.4935(2)
C18 C 0.5432(2) 0.4044(2) 0.4882(2)
C19 C 0.4585(2) 0.4312(2) 0.4155(2)
C20 C 0.4068(2) 0.3721(2) 0.3167(2)
C21 C 0.4588(2) 0.3007(2) 0.2589(2)
H13 H 0.5313 0.2840 0.2823
C22 C 0.4024(3) 0.2536(3) 0.1652(2)
H14 H 0.4349 0.2020 0.1252
C23 C 0.2986(3) 0.2831(3) 0.1314(2)
H15 H 0.2586 0.2516 0.0682
C24 C 0.2544(2) 0.3592(2) 0.1913(2)
H16 H 0.1844 0.3815 0.1666
C25 C 1.0030(2) 0.8683(2) 0.4145(2)
H17 H 1.0601 0.8401 0.4621
H18 H 1.0381 0.8940 0.3602
C26 C 0.9548(2) 0.9604(2) 0.4719(2)
H19 H 0.9046 0.9949 0.4232
H20 H 0.9125 0.9343 0.5213
C27 C 0.5272(4) 0.4968(5) 0.0971(4)
H21 H 0.5598 0.4281 0.0952
H22 H 0.5218 0.5215 0.1687
C28 C 0.6022(17) 0.5755(14) 0.0570(11)
H23 H 0.5651 0.6411 0.0491
C30 C 0.5868(4) 0.5158(4) -0.0337(4)
H27 H 0.6338 0.5596 -0.0672
H28 H 0.6172 0.4461 -0.0342
H29 H 0.842(4) 0.147(4) 0.245(3)
H30 H 0.885(4) 0.230(4) 0.295(4)
H31 H 0.740(4) 0.412(4) 0.817(4)
H32 H 0.648(5) 0.355(5) 0.751(5)
C26A C 1.0452(2) 1.0396(2) 0.5281(2)
C25A C 0.9970(2) 1.1317(2) 0.5855(2)
P1A P 1.09658(5) 1.23482(5) 0.64109(5)
O1A O 1.20021(16) 1.18228(15) 0.68249(15)
O2A O 1.11846(16) 1.30185(15) 0.55993(14)
O3A O 1.05164(16) 1.30377(15) 0.72605(14)
H17A H 0.9399 1.1599 0.5379
H18A H 0.9619 1.1060 0.6398
H19A H 1.0954 1.0051 0.5768
H20A H 1.0875 1.0657 0.4787
C30A C 0.4132(4) 0.4842(4) 0.0337(4)
C28A C 0.3978(17) 0.4245(14) -0.0570(11)
P2A P 0.27213(6) 0.39749(5) -0.14488(5)
O4A O 0.20340(16) 0.49213(15) -0.14299(15)
O5A O 0.21589(17) 0.30326(15) -0.10922(15)
O6A O 0.29566(16) 0.36945(15) -0.25443(15)
C27A C 0.4728(4) 0.5032(5) -0.0971(4)
H21A H 0.4402 0.5719 -0.0952
H22A H 0.4782 0.4785 -0.1687
H23A H 0.4349 0.3589 -0.0491
H27A H 0.3662 0.4404 0.0672
H28A H 0.3828 0.5539 0.0342
C7A C 1.0690(2) 0.0345(2) 0.0889(2)
C6A C 1.0984(2) -0.0460(2) 0.0198(2)
N2A N 1.02675(19) -0.07702(18) -0.06475(17)
C5A C 1.1998(2) -0.1040(2) 0.0231(2)
N1A N 1.18529(19) -0.19942(18) -0.03291(18)
C1A C 1.2706(2) -0.2575(2) -0.0389(2)
H1A H 1.2600 -0.3244 -0.0782
C2A C 1.3745(3) -0.2232(3) 0.0105(3)
H2A H 1.4337 -0.2668 0.0064
C3A C 1.3911(2) -0.1249(2) 0.0658(3)
H3A H 1.4620 -0.0996 0.0991
C4A C 1.3027(2) -0.0639(2) 0.0720(2)
H4A H 1.3121 0.0042 0.1089
C8A C 1.1281(2) 0.0812(2) 0.1901(2)
N3A N 1.09867(19) 0.17839(18) 0.22035(17)
C12A C 1.1445(2) 0.2264(2) 0.3119(2)
C11A C 1.2245(2) 0.1831(2) 0.3752(2)
C10A C 1.2532(2) 0.0830(2) 0.3450(2)
C9A C 1.2017(2) 0.0291(2) 0.2525(2)
H5A H 1.2165 -0.0413 0.2326
H6A H 1.3076 0.0513 0.3871
H7A H 1.2589 0.2210 0.4379
H8A H 1.1213 0.2931 0.3344
C19A C 0.5415(2) 0.5688(2) 0.5845(2)
C18A C 0.4568(2) 0.5956(2) 0.5118(2)
N5A N 0.41851(18) 0.52498(18) 0.43159(17)
C17A C 0.4003(2) 0.6942(2) 0.5065(2)
N4A N 0.2991(2) 0.68112(19) 0.4499(2)
C13A C 0.2426(2) 0.7649(2) 0.4357(3)
H9A H 0.1727 0.7559 0.3945
C14A C 0.2820(3) 0.8650(3) 0.4790(3)
H10A H 0.2380 0.9229 0.4712
C15A C 0.3875(3) 0.8789(2) 0.5341(3)
H11A H 0.4175 0.9466 0.5630
C16A C 0.4476(2) 0.7920(2) 0.5458(3)
H12A H 0.5206 0.7996 0.5805
C20A C 0.5932(2) 0.6279(2) 0.6833(2)
N6A N 0.6941(2) 0.5974(2) 0.71770(18)
C24A C 0.7456(2) 0.6408(2) 0.8087(2)
C23A C 0.7014(3) 0.7169(3) 0.8686(2)
C22A C 0.5976(3) 0.7464(3) 0.8348(2)
C21A C 0.5412(2) 0.6993(2) 0.7411(2)
H13A H 0.4687 0.7160 0.7177
H14A H 0.5651 0.7980 0.8748
H15A H 0.7414 0.7484 0.9318
H16A H 0.8156 0.6185 0.8334
Mo1A Mo 1.381881(18) 1.237831(18) 0.678105(18)
Mo2A Mo 1.241236(18) 1.438376(17) 0.598167(16)
Mo3A Mo 1.035467(18) 1.486951(17) 0.765546(16)
Mo4A Mo 1.027573(19) 1.266162(17) 0.879509(17)
Mo5A Mo 1.24306(2) 1.123152(18) 0.835508(18)
O7A O 1.33372(16) 1.32713(16) 0.57442(15)
O11A O 1.37407(17) 1.18419(16) 0.80462(16)
O12A O 1.38928(19) 1.12763(17) 0.59633(18)
O13A O 1.51347(18) 1.28884(18) 0.71205(19)
O8A O 1.11817(16) 1.49100(15) 0.66045(14)
O14A O 1.20859(17) 1.46415(16) 0.47343(15)
O15A O 1.33239(17) 1.53955(16) 0.65026(16)
O9A O 1.01505(16) 1.41562(15) 0.87831(14)
O16A O 0.90429(16) 1.46540(16) 0.69763(15)
O17A O 1.03466(16) 1.61710(15) 0.81581(15)
O10A O 1.08982(18) 1.13878(16) 0.83846(16)
O18A O 0.89634(17) 1.22277(17) 0.83621(16)
O19A O 1.04028(17) 1.26540(15) 1.01092(15)
O20A O 1.2885(2) 1.11193(18) 0.95994(17)
O21A O 1.23626(19) 0.99694(17) 0.77712(17)
Ni1A Ni 1.03891(3) 1.77438(3) 0.86922(3)
Ni2A Ni 1.26151(3) 1.53859(3) 0.35998(3)
O22A O 1.1265(2) 1.80189(19) 0.75720(17)
H29A H 1.158(4) 1.853(4) 0.755(3)
H30A H 1.115(4) 1.770(4) 0.705(4)
O23A O 1.28654(19) 1.6163(2) 0.24226(18)
H31A H 1.260(4) 1.588(4) 0.183(4)
H32A H 1.352(5) 1.645(5) 0.249(5)
O19A_2 O 1.04028(17) 0.26540(15) 0.01092(15)
O16A_2 O 0.90429(16) 0.46540(16) 0.69763(15)
Ni2A_2 Ni 1.26151(3) 0.53859(3) 0.35998(3)
Ni1A_2 Ni 1.03891(3) 0.77438(3) -0.13078(3)
Ni1A_3 Ni 1.03891(3) -0.22562(3) -0.13078(3)
Ni2A_3 Ni 0.26151(3) 0.53859(3) 0.35998(3)
Mo3A_2 Mo 0.035467(18) 0.486951(17) -0.234454(16)
Mo4A_2 Mo 0.027573(19) 0.266162(17) -0.120491(17)
Mo5A_2 Mo 0.24306(2) 0.123152(18) -0.164492(18)
Mo1A_2 Mo 0.381881(18) 0.237831(18) -0.321895(18)
Mo2A_2 Mo 0.241236(18) 0.438376(17) -0.401833(16)
O6A_2 O 1.29566(16) 1.36945(15) 0.74557(15)
O4A_2 O 1.20340(16) 1.49213(15) 0.85701(15)
O5A_2 O 1.21589(17) 1.30326(15) 0.89078(15)
Ni2_2 Ni 0.73849(3) 1.46141(3) 0.64002(3)
Ni1_2 Ni 0.96109(3) 1.22562(3) 1.13078(3)
O19_2 O 0.95972(17) 1.73460(15) 0.98908(15)
N1A_2 N 1.18529(19) 1.80058(18) 0.96709(18)
N2A_2 N 1.02675(19) 1.92298(18) 0.93525(17)
N3_2 N 0.90133(19) 1.82161(18) 0.77965(17)
O16_2 O 1.09571(16) 1.53460(16) 0.30237(15)
N4A_2 N 1.2991(2) 1.68112(19) 0.4499(2)
N5A_2 N 1.41851(18) 1.52498(18) 0.43159(17)
N6_2 N 1.3059(2) 1.4026(2) 0.28230(18)
H24? H 0.6176 0.5459 -0.0104
C29? C 0.5939(18) 0.5645(15) 0.0772(12)
H25? H 0.5597 0.5138 0.1142
H26? H 0.5502 0.6269 0.0783
loop_
_geom_bond_atom_site_label_1
_geom_bond_atom_site_label_2
_geom_bond_site_symmetry_1
_geom_bond_site_symmetry_2
Mo1 O1 1_555 1_555
Mo2 O2 1_555 1_555
Mo3 O3 1_555 1_555
Mo4 O3 1_555 1_555
Mo5 O1 1_555 1_555
Ni1 O17 1_555 1_555
Ni2 O14 1_555 1_555
P1 O1 1_555 1_555
P2 O4 1_555 1_555
O2 P1 1_555 1_555
O3 P1 1_555 1_555
O4 Mo3 1_555 1_555
O5 Mo4 1_555 1_555
O6 Mo1 1_555 1_555
O7 Mo1 1_555 1_555
O8 Mo2 1_555 1_555
O9 Mo3 1_555 1_555
O10 Mo4 1_555 1_555
O11 Mo1 1_555 1_555
O12 Mo1 1_555 1_555
O13 Mo1 1_555 1_555
O14 Mo2 1_555 1_555
O15 Mo2 1_555 1_555
O16 Mo3 1_555 1_555
O17 Mo3 1_555 1_555
O18 Mo4 1_555 1_555
O19 Mo4 1_555 1_555
O20 Mo5 1_555 1_555
O21 Mo5 1_555 1_555
O22 Ni1 1_555 1_555
O23 Ni2 1_555 1_555
O24 H33 1_555 1_555
O25 H35 1_555 1_555
N1 Ni1 1_555 1_555
N2 Ni1 1_555 1_555
N3 C8 1_555 1_555
N4 Ni2 1_555 1_555
N5 Ni2 1_555 1_555
N6 C20 1_555 1_555
C1 N1 1_555 1_555
H1 C1 1_555 1_555
C2 C1 1_555 1_555
H2 C2 1_555 1_555
C3 C2 1_555 1_555
H3 C3 1_555 1_555
C4 C3 1_555 1_555
H4 C4 1_555 1_555
C5 N1 1_555 1_555
C6 N2 1_555 1_555
C7 C6 1_555 1_555
C8 C7 1_555 1_555
C9 C8 1_555 1_555
H5 C9 1_555 1_555
C10 C9 1_555 1_555
H6 C10 1_555 1_555
C11 C10 1_555 1_555
H7 C11 1_555 1_555
C12 N3 1_555 1_555
H8 C12 1_555 1_555
C13 N4 1_555 1_555
H9 C13 1_555 1_555
C14 C13 1_555 1_555
H10 C14 1_555 1_555
C15 C14 1_555 1_555
H11 C15 1_555 1_555
C16 C15 1_555 1_555
H12 C16 1_555 1_555
C17 N4 1_555 1_555
C18 N5 1_555 1_555
C19 C18 1_555 1_555
C20 C19 1_555 1_555
C21 C20 1_555 1_555
H13 C21 1_555 1_555
C22 C21 1_555 1_555
H14 C22 1_555 1_555
C23 C22 1_555 1_555
H15 C23 1_555 1_555
C24 N6 1_555 1_555
H16 C24 1_555 1_555
C25 P1 1_555 1_555
H17 C25 1_555 1_555
H18 C25 1_555 1_555
C26 C25 1_555 1_555
H19 C26 1_555 1_555
H20 C26 1_555 1_555
C27 H21 1_555 1_555
H22 C27 1_555 1_555
C28 P2 1_555 1_555
H23 C28 1_555 1_555
C30 C28 1_555 1_555
H27 C30 1_555 1_555
H28 C30 1_555 1_555
H29 O22 1_555 1_555
H30 O22 1_555 1_555
H31 O23 1_555 1_555
H32 O23 1_555 1_555
H34 O24 1_555 1_555
H36 O25 1_555 1_555
C26A C26 1_555 1_555
C25A C26A 1_555 1_555
P1A C25A 1_555 1_555
O1A P1A 1_555 1_555
O2A P1A 1_555 1_555
O3A P1A 1_555 1_555
H17A C25A 1_555 1_555
H18A C25A 1_555 1_555
H19A C26A 1_555 1_555
H20A C26A 1_555 1_555
C30A C27 1_555 1_555
C28A C30A 1_555 1_555
P2A C28A 1_555 1_555
O4A P2A 1_555 1_555
O5A P2A 1_555 1_555
O6A P2A 1_555 1_555
C27A C30 1_555 1_555
H21A C27A 1_555 1_555
H22A C27A 1_555 1_555
H23A C28A 1_555 1_555
H27A C30A 1_555 1_555
H28A C30A 1_555 1_555
C7A N2 1_555 1_555
C6A C7A 1_555 1_555
N2A C7 1_555 1_555
C5A C6A 1_555 1_555
N1A C5A 1_555 1_555
C1A N1A 1_555 1_555
H1A C1A 1_555 1_555
C2A C1A 1_555 1_555
H2A C2A 1_555 1_555
C3A C2A 1_555 1_555
H3A C3A 1_555 1_555
C4A C5A 1_555 1_555
H4A C4A 1_555 1_555
C8A C7A 1_555 1_555
N3A Ni1 1_555 1_555
C12A N3A 1_555 1_555
C11A C12A 1_555 1_555
C10A C11A 1_555 1_555
C9A C8A 1_555 1_555
H5A C9A 1_555 1_555
H6A C10A 1_555 1_555
H7A C11A 1_555 1_555
H8A C12A 1_555 1_555
C19A N5 1_555 1_555
C18A C19A 1_555 1_555
N5A C19 1_555 1_555
C17A C18A 1_555 1_555
N4A C17A 1_555 1_555
C13A N4A 1_555 1_555
H9A C13A 1_555 1_555
C14A C13A 1_555 1_555
H10A C14A 1_555 1_555
C15A C14A 1_555 1_555
H11A C15A 1_555 1_555
C16A C17A 1_555 1_555
H12A C16A 1_555 1_555
C20A C19A 1_555 1_555
N6A Ni2 1_555 1_555
C24A N6A 1_555 1_555
C23A C24A 1_555 1_555
C22A C23A 1_555 1_555
C21A C20A 1_555 1_555
H13A C21A 1_555 1_555
H14A C22A 1_555 1_555
H15A C23A 1_555 1_555
H16A C24A 1_555 1_555
Mo1A O1A 1_555 1_555
Mo2A O2A 1_555 1_555
Mo3A O3A 1_555 1_555
Mo4A O3A 1_555 1_555
Mo5A O1A 1_555 1_555
O7A Mo1A 1_555 1_555
O11A Mo1A 1_555 1_555
O12A Mo1A 1_555 1_555
O13A Mo1A 1_555 1_555
O8A Mo2A 1_555 1_555
O14A Mo2A 1_555 1_555
O15A Mo2A 1_555 1_555
O9A Mo3A 1_555 1_555
O16A Mo3A 1_555 1_555
O17A Mo3A 1_555 1_555
O10A Mo4A 1_555 1_555
O18A Mo4A 1_555 1_555
O19A Mo4A 1_555 1_555
O20A Mo5A 1_555 1_555
O21A Mo5A 1_555 1_555
Ni1A O17A 1_555 1_555
Ni2A O14A 1_555 1_555
O22A Ni1A 1_555 1_555
H29A O22A 1_555 1_555
H30A O22A 1_555 1_555
O23A Ni2A 1_555 1_555
H31A O23A 1_555 1_555
H32A O23A 1_555 1_555
O19A_2 Ni1 1_555 1_555
O16A_2 Ni2 1_555 1_555
Ni2A_2 O16 1_555 1_555
Ni1A_2 O19 1_555 1_555
Ni1A_3 N3 1_555 1_555
Ni2A_3 N6 1_555 1_555
Mo3A_2 O4A 1_555 1_555
Mo4A_2 O5A 1_555 1_555
Mo5A_2 O5A 1_555 1_555
Mo1A_2 O6A 1_555 1_555
Mo2A_2 O6A 1_555 1_555
O6A_2 Mo1A 1_555 1_555
O4A_2 Mo3A 1_555 1_555
O5A_2 Mo4A 1_555 1_555
Ni2_2 O16A 1_555 1_555
Ni1_2 O19A 1_555 1_555
O19_2 Ni1A 1_555 1_555
N1A_2 Ni1A 1_555 1_555
N2A_2 Ni1A 1_555 1_555
N3_2 Ni1A 1_555 1_555
O16_2 Ni2A 1_555 1_555
N4A_2 Ni2A 1_555 1_555
N5A_2 Ni2A 1_555 1_555
N6_2 Ni2A 1_555 1_555
Mo2 O6 1_555 1_555
Mo2 O7 1_555 1_555
Mo3 O8 1_555 1_555
Mo4 O9 1_555 1_555
Mo5 O5 1_555 1_555
Mo5 O11 1_555 1_555
Mo5 O10 1_555 1_555
P2 O5 1_555 1_555
P2 O6 1_555 1_555
C4 C5 1_555 1_555
C5 C6 1_555 1_555
C11 C12 1_555 1_555
C16 C17 1_555 1_555
C17 C18 1_555 1_555
C23 C24 1_555 1_555
C27 C28 1_555 1_555
C28A C27A 1_555 1_555
C6A N2A 1_555 1_555
N2A Ni1A_3 1_555 1_555
N1A Ni1A_3 1_555 1_555
C3A C4A 1_555 1_555
C8A N3A 1_555 1_555
C10A C9A 1_555 1_555
C18A N5A 1_555 1_555
N5A Ni2A_3 1_555 1_555
N4A Ni2A_3 1_555 1_555
C15A C16A 1_555 1_555
C20A N6A 1_555 1_555
C22A C21A 1_555 1_555
Mo2A O7A 1_555 1_555
Mo2A O6A_2 1_555 1_555
Mo3A O8A 1_555 1_555
Mo4A O9A 1_555 1_555
Mo5A O10A 1_555 1_555
Mo5A O11A 1_555 1_555
Mo5A O5A_2 1_555 1_555

#END
