
#######################################################################
#
#                 Cambridge Crystallographic Data Centre
#                                CCDC 
#
#######################################################################
#
# If this CIF has been generated from an entry in the Cambridge 
# Structural Database, then it will include bibliographic, chemical, 
# crystal, experimental, refinement or atomic coordinate data resulting 
# from the CCDC's data processing and validation procedures.
#
#######################################################################

data_SAHSIF
_symmetry_cell_setting           orthorhombic
_symmetry_space_group_name_H-M   'P b c a'
_symmetry_Int_Tables_number      61
_space_group_name_Hall           '-P 2ac 2ab'
loop_
_symmetry_equiv_pos_site_id
_symmetry_equiv_pos_as_xyz
1 x,y,z
2 1/2-x,-y,1/2+z
3 -x,1/2+y,1/2-z
4 1/2+x,1/2-y,-z
5 -x,-y,-z
6 1/2+x,y,1/2-z
7 x,1/2-y,1/2+z
8 1/2-x,1/2+y,z
_cell_length_a                   8.6638(4)
_cell_length_b                   12.9337(7)
_cell_length_c                   18.6880(10)
_cell_angle_alpha                90
_cell_angle_beta                 90
_cell_angle_gamma                90
_cell_volume                     2094.08
loop_
_atom_site_label
_atom_site_type_symbol
_atom_site_fract_x
_atom_site_fract_y
_atom_site_fract_z
Cu1 Cu 0.136890(19) 0.537011(13) 1.010409(10)
C1 C 0.42380(17) 0.83609(11) 1.06459(8)
C2 C 0.38102(19) 0.73998(12) 1.10696(9)
H1 H 0.2674 0.7321 1.1062
H2 H 0.4126 0.7502 1.1574
C3 C -0.08291(17) 0.58271(11) 1.11615(8)
C4 C -0.14315(18) 0.64014(13) 1.18119(9)
H3 H -0.2107 0.6973 1.1651
H4 H -0.0549 0.6710 1.2072
C5 C -0.2325(2) 0.57175(15) 1.23179(9)
H5 H -0.3125 0.5329 1.2051
H6 H -0.2845 0.6145 1.2685
C6 C 0.45350(18) 0.64069(12) 1.07957(8)
H7 H 0.5636 0.6533 1.0684
H8 H 0.4484 0.5873 1.1174
N1 N -0.1471(3) 0.32088(16) 1.24755(14)
N2 N -0.14266(19) 0.40731(13) 1.25399(9)
N3 N -0.1241(2) 0.49878(14) 1.26645(10)
N4 N 0.37366(14) 0.60227(11) 1.01445(7)
N5 N 0.43097(15) 0.62698(10) 0.95605(7)
N6 N 0.4717(2) 0.64226(14) 0.90003(9)
O1 O 0.05627(12) 0.59478(9) 1.09966(6)
O2 O 0.55810(13) 0.84023(9) 1.03962(7)
O3 O -0.17923(13) 0.52890(9) 1.08240(7)
O4 O 0.32344(14) 0.90545(9) 1.05885(7)
Cu1D Cu -0.136890(19) 0.462989(13) 0.989591(10)
Cu1C Cu 0.636890(19) 0.962989(13) 0.989591(10)
Cu1G Cu 0.363110(19) 1.037011(13) 1.010409(10)
O2C O 0.05810(13) 0.65977(9) 0.96038(7)
O3D O 0.17923(13) 0.47110(9) 0.91760(7)
O4G O 0.17656(14) 0.40545(9) 1.05885(7)
loop_
_geom_bond_atom_site_label_1
_geom_bond_atom_site_label_2
_geom_bond_site_symmetry_1
_geom_bond_site_symmetry_2
Cu1 N4 1_555 1_555
C1 C2 1_555 1_555
C2 H1 1_555 1_555
H2 C2 1_555 1_555
C3 C4 1_555 1_555
C4 H3 1_555 1_555
H4 C4 1_555 1_555
C5 C4 1_555 1_555
H5 C5 1_555 1_555
H6 C5 1_555 1_555
C6 C2 1_555 1_555
H7 C6 1_555 1_555
H8 C6 1_555 1_555
N1 N2 1_555 1_555
N2 N3 1_555 1_555
N3 C5 1_555 1_555
N4 C6 1_555 1_555
N5 N4 1_555 1_555
N6 N5 1_555 1_555
O1 Cu1 1_555 1_555
O2 C1 1_555 1_555
O3 C3 1_555 1_555
O4 C1 1_555 1_555
Cu1D Cu1 1_555 1_555
Cu1C O2 1_555 1_555
Cu1G O4 1_555 1_555
O2C Cu1 1_555 1_555
O3D Cu1 1_555 1_555
O4G Cu1 1_555 1_555
C3 O1 1_555 1_555
O3 Cu1D 1_555 1_555
Cu1C Cu1G 1_555 1_555

#END
