
#######################################################################
#
#                 Cambridge Crystallographic Data Centre
#                                CCDC 
#
#######################################################################
#
# If this CIF has been generated from an entry in the Cambridge 
# Structural Database, then it will include bibliographic, chemical, 
# crystal, experimental, refinement or atomic coordinate data resulting 
# from the CCDC's data processing and validation procedures.
#
#######################################################################

data_SAHYAD03
_symmetry_cell_setting           tetragonal
_symmetry_space_group_name_H-M   'P 43 21 2'
_symmetry_Int_Tables_number      96
_space_group_name_Hall           'P 4nw 2abw'
loop_
_symmetry_equiv_pos_site_id
_symmetry_equiv_pos_as_xyz
1 x,y,z
2 -x,-y,1/2+z
3 1/2-y,1/2+x,3/4+z
4 1/2+y,1/2-x,1/4+z
5 1/2-x,1/2+y,3/4-z
6 1/2+x,1/2-y,1/4-z
7 y,x,-z
8 -y,-x,1/2-z
_cell_length_a                   15.8633(10)
_cell_length_b                   15.8633(10)
_cell_length_c                   21.586(3)
_cell_angle_alpha                90
_cell_angle_beta                 90
_cell_angle_gamma                90
_cell_volume                     5431.99
loop_
_atom_site_label
_atom_site_type_symbol
_atom_site_fract_x
_atom_site_fract_y
_atom_site_fract_z
C1 C -0.3602(4) 0.4127(4) -0.1090(3)
H1 H -0.3896 0.4626 -0.0980
C2 C -0.2986(4) 0.3838(4) -0.0692(3)
H2 H -0.2859 0.4141 -0.0324
C3 C -0.2551(4) 0.3098(4) -0.0831(3)
C4 C -0.2834(4) 0.2658(4) -0.1356(3)
H3 H -0.2606 0.2119 -0.1450
C5 C -0.3433(4) 0.3002(4) -0.1732(3)
H4 H -0.3592 0.2696 -0.2092
C6 C -0.1828(4) 0.2790(4) -0.0462(3)
C7 C -0.1645(4) 0.3096(4) 0.0133(3)
H5 H -0.2000 0.3509 0.0315
C8 C -0.0962(4) 0.2807(4) 0.0452(3)
H6 H -0.0859 0.3018 0.0857
C9 C -0.0414(4) 0.2214(4) 0.0203(3)
H7 H 0.0070 0.2031 0.0425
C10 C -0.0600(4) 0.1896(3) -0.0386(2)
C11 C -0.1289(4) 0.2185(4) -0.0713(3)
H8 H -0.1398 0.1968 -0.1115
C12 C -0.0038(3) 0.1273(4) -0.0694(2)
C13 C 0.0908(3) 0.0761(3) -0.1320(2)
C14 C 0.1612(3) 0.0675(4) -0.1765(2)
C15 C 0.1627(4) -0.0048(4) -0.2132(3)
H9 H 0.1193 -0.0459 -0.2100
C16 C 0.2289(4) -0.0155(4) -0.2543(4)
H10 H 0.2311 -0.0645 -0.2796
C17 C 0.2916(4) 0.0446(4) -0.2589(3)
H11 H 0.3363 0.0364 -0.2875
C18 C 0.2907(4) 0.1165(4) -0.2226(3)
C19 C 0.2248(4) 0.1264(4) -0.1807(3)
H12 H 0.2237 0.1746 -0.1546
C20 C 0.3575(4) 0.1820(4) -0.2281(3)
C21 C 0.4052(4) 0.1912(4) -0.2817(3)
H13 H 0.3988 0.1523 -0.3148
C22 C 0.4617(4) 0.2567(4) -0.2869(3)
H14 H 0.4931 0.2618 -0.3242
C23 C 0.4310(4) 0.3035(4) -0.1897(3)
H15 H 0.4400 0.3424 -0.1570
C24 C 0.3735(4) 0.2395(4) -0.1806(3)
H16 H 0.3449 0.2346 -0.1421
Cd1 Cd -0.44095(2) 0.44095(2) -0.2500
N1 N -0.3812(3) 0.3743(3) -0.1625(2)
N2 N -0.0064(3) 0.0441(3) -0.0655(2)
N3 N 0.0542(3) 0.0117(3) -0.1045(2)
N4 N 0.0560(3) 0.1491(3) -0.1112(2)
N5 N 0.0744(4) 0.2309(3) -0.1317(3)
H17 H 0.0290 0.2575 -0.1446
H18 H 0.0865 0.2599 -0.0978
N6 N 0.4746(3) 0.3137(3) -0.2421(2)
C1G C -0.4127(4) 0.3602(4) -0.3910(3)
H1G H -0.4626 0.3896 -0.4020
C2G C -0.3838(4) 0.2986(4) -0.4308(3)
H2G H -0.4141 0.2859 -0.4676
C3G C -0.3098(4) 0.2551(4) -0.4169(3)
C4G C -0.2658(4) 0.2834(4) -0.3644(3)
H3G H -0.2119 0.2606 -0.3550
C5G C -0.3002(4) 0.3433(4) -0.3268(3)
H4G H -0.2696 0.3592 -0.2908
C6G C -0.2790(4) 0.1828(4) -0.4538(3)
C7G C -0.3096(4) 0.1645(4) -0.5133(3)
H5G H -0.3509 0.2000 -0.5315
C8G C -0.2807(4) 0.0962(4) -0.5452(3)
H6G H -0.3018 0.0859 -0.5857
C9G C -0.2214(4) 0.0414(4) -0.5203(3)
H7G H -0.2031 -0.0070 -0.5425
C10G C -0.1896(3) 0.0600(4) -0.4614(2)
C11G C -0.2185(4) 0.1289(4) -0.4287(3)
H8G H -0.1968 0.1398 -0.3885
C12G C -0.1273(4) 0.0038(3) -0.4306(2)
C13G C -0.0761(3) -0.0908(3) -0.3680(2)
C14G C -0.0675(4) -0.1612(3) -0.3235(2)
C15G C 0.0048(4) -0.1627(4) -0.2868(3)
H9G H 0.0459 -0.1193 -0.2900
C16G C 0.0155(4) -0.2289(4) -0.2457(4)
H10G H 0.0645 -0.2311 -0.2204
C17G C -0.0446(4) -0.2916(4) -0.2411(3)
H11G H -0.0364 -0.3363 -0.2125
C18G C -0.1165(4) -0.2907(4) -0.2774(3)
C19G C -0.1264(4) -0.2248(4) -0.3193(3)
H12G H -0.1746 -0.2237 -0.3454
C20G C -0.1820(4) -0.3575(4) -0.2719(3)
C21G C -0.1912(4) -0.4052(4) -0.2183(3)
H13G H -0.1523 -0.3988 -0.1852
C22G C -0.2567(4) -0.4617(4) -0.2131(3)
H14G H -0.2618 -0.4931 -0.1758
C23G C -0.3035(4) -0.4310(4) -0.3103(3)
H15G H -0.3424 -0.4400 -0.3430
C24G C -0.2395(4) -0.3735(4) -0.3194(3)
H16G H -0.2346 -0.3449 -0.3579
Cd1C Cd -0.05905(2) -0.05905(2) 0.0000
Cd1_2 Cd 0.55905(2) 0.44095(2) -0.2500
Cd1B Cd 0.05905(2) 0.05905(2) -0.5000
Cd1_3 Cd -0.44095(2) -0.55905(2) -0.2500
N1G N -0.3743(3) 0.3812(3) -0.3375(2)
N2G N -0.0441(3) 0.0064(3) -0.4345(2)
N2B N -0.5441(3) 0.4936(3) -0.3155(2)
N2D N -0.4936(3) 0.5441(3) -0.1845(2)
N3G N -0.0117(3) -0.0542(3) -0.3955(2)
N4G N -0.1491(3) -0.0560(3) -0.3888(2)
N5G N -0.2309(3) -0.0744(4) -0.3683(3)
H17G H -0.2575 -0.0290 -0.3554
H18G H -0.2599 -0.0865 -0.4022
N6G N -0.3137(3) -0.4746(3) -0.2579(2)
N6_2 N -0.5254(3) 0.3137(3) -0.2421(2)
N6G_2 N -0.3137(3) 0.5254(3) -0.2579(2)
Cl2 Cl 0.23112(12) 0.23112(12) 0.0000
O1 O 0.2552(8) 0.2725(6) -0.0522(3)
O3 O 0.2941(12) 0.1583(14) -0.0223(19)
O1F O 0.2725(6) 0.2552(8) 0.0522(3)
O3F O 0.1583(14) 0.2941(12) 0.0223(19)
Cl3 Cl 0.4159(2) 0.9363(3) 0.15465(15)
C25 C 0.4630(6) 0.9582(6) 0.0852(4)
H19 H 0.4229 0.9788 0.0529
Cl4 Cl 0.5273(3) 0.8787(3) 0.06015(17)
Cl5 Cl 0.5236(10) 1.0357(9) 0.1166(8)
Cl1? Cl 0.12464(14) 0.87536(14) 0.2500
O2? O 0.1704(5) 0.1704(5) 0.0000
O4? O 0.0914(13) 0.9499(9) 0.2219(9)
O5? O 0.1842(13) 0.8997(11) 0.2939(9)
O6? O 0.1116(19) 0.7872(11) 0.2607(13)
C26? C 0.4630(6) 0.9582(6) 0.0852(4)
Cl6? Cl 0.5693(5) 0.9562(7) 0.0762(4)
Cl7? Cl 0.4199(4) 1.0397(4) 0.0447(3)
H20? H 0.4454 0.9086 0.0597
O7? O 0.0960(16) 0.8813(14) 0.3093(6)
loop_
_geom_bond_atom_site_label_1
_geom_bond_atom_site_label_2
_geom_bond_site_symmetry_1
_geom_bond_site_symmetry_2
C1 H1 1_555 1_555
C2 C1 1_555 1_555
H2 C2 1_555 1_555
C3 C2 1_555 1_555
C4 C3 1_555 1_555
H3 C4 1_555 1_555
C5 C4 1_555 1_555
H4 C5 1_555 1_555
C6 C3 1_555 1_555
C7 C6 1_555 1_555
H5 C7 1_555 1_555
C8 C7 1_555 1_555
H6 C8 1_555 1_555
C9 C8 1_555 1_555
H7 C9 1_555 1_555
C10 C9 1_555 1_555
C11 C6 1_555 1_555
H8 C11 1_555 1_555
C12 C10 1_555 1_555
C13 C14 1_555 1_555
C14 C15 1_555 1_555
C15 H9 1_555 1_555
C16 C15 1_555 1_555
H10 C16 1_555 1_555
C17 C16 1_555 1_555
H11 C17 1_555 1_555
C18 C17 1_555 1_555
C19 C14 1_555 1_555
H12 C19 1_555 1_555
C20 C18 1_555 1_555
C21 C20 1_555 1_555
H13 C21 1_555 1_555
C22 C21 1_555 1_555
H14 C22 1_555 1_555
C23 H15 1_555 1_555
C24 C20 1_555 1_555
H16 C24 1_555 1_555
Cd1 N1 1_555 1_555
Cl2 O1 1_555 1_555
Cl3 C25 1_555 1_555
N1 C1 1_555 1_555
N2 C12 1_555 1_555
N3 C13 1_555 1_555
N4 C12 1_555 1_555
N5 N4 1_555 1_555
H17 N5 1_555 1_555
H18 N5 1_555 1_555
N6 C22 1_555 1_555
O3 Cl2 1_555 1_555
C25 H19 1_555 1_555
Cl4 C25 1_555 1_555
Cl5 C25 1_555 1_555
C1G H1G 1_555 1_555
C2G C1G 1_555 1_555
H2G C2G 1_555 1_555
C3G C2G 1_555 1_555
C4G C3G 1_555 1_555
H3G C4G 1_555 1_555
C5G C4G 1_555 1_555
H4G C5G 1_555 1_555
C6G C3G 1_555 1_555
C7G C6G 1_555 1_555
H5G C7G 1_555 1_555
C8G C7G 1_555 1_555
H6G C8G 1_555 1_555
C9G C8G 1_555 1_555
H7G C9G 1_555 1_555
C10G C9G 1_555 1_555
C11G C6G 1_555 1_555
H8G C11G 1_555 1_555
C12G C10G 1_555 1_555
C13G C14G 1_555 1_555
C14G C15G 1_555 1_555
C15G H9G 1_555 1_555
C16G C15G 1_555 1_555
H10G C16G 1_555 1_555
C17G C16G 1_555 1_555
H11G C17G 1_555 1_555
C18G C17G 1_555 1_555
C19G C14G 1_555 1_555
H12G C19G 1_555 1_555
C20G C18G 1_555 1_555
C21G C20G 1_555 1_555
H13G C21G 1_555 1_555
C22G C21G 1_555 1_555
H14G C22G 1_555 1_555
C23G H15G 1_555 1_555
C24G C20G 1_555 1_555
H16G C24G 1_555 1_555
Cd1C N2 1_555 1_555
Cd1_2 N6 1_555 1_555
Cd1B N2G 1_555 1_555
Cd1_3 N6G 1_555 1_555
N1G Cd1 1_555 1_555
N2G C12G 1_555 1_555
N2B Cd1 1_555 1_555
N2D Cd1 1_555 1_555
N3G C13G 1_555 1_555
N4G C12G 1_555 1_555
N5G N4G 1_555 1_555
H17G N5G 1_555 1_555
H18G N5G 1_555 1_555
N6G C22G 1_555 1_555
N6_2 Cd1 1_555 1_555
N6G_2 Cd1 1_555 1_555
O1F Cl2 1_555 1_555
O3F Cl2 1_555 1_555
C5 N1 1_555 1_555
C10 C11 1_555 1_555
C13 N4 1_555 1_555
C18 C19 1_555 1_555
C23 C24 1_555 1_555
C23 N6 1_555 1_555
N2 N3 1_555 1_555
C1G N1G 1_555 1_555
C5G N1G 1_555 1_555
C10G C11G 1_555 1_555
C13G N4G 1_555 1_555
C18G C19G 1_555 1_555
C23G C24G 1_555 1_555
C23G N6G 1_555 1_555
N2G N3G 1_555 1_555

#END
