
#######################################################################
#
#                 Cambridge Crystallographic Data Centre
#                                CCDC 
#
#######################################################################
#
# If this CIF has been generated from an entry in the Cambridge 
# Structural Database, then it will include bibliographic, chemical, 
# crystal, experimental, refinement or atomic coordinate data resulting 
# from the CCDC's data processing and validation procedures.
#
#######################################################################

data_SAHYAD01
_symmetry_cell_setting           tetragonal
_symmetry_space_group_name_H-M   'P 41 21 2'
_symmetry_Int_Tables_number      92
_space_group_name_Hall           'P 4abw 2nw'
loop_
_symmetry_equiv_pos_site_id
_symmetry_equiv_pos_as_xyz
1 x,y,z
2 -x,-y,1/2+z
3 1/2-y,1/2+x,1/4+z
4 1/2+y,1/2-x,3/4+z
5 1/2-x,1/2+y,1/4-z
6 1/2+x,1/2-y,3/4-z
7 y,x,-z
8 -y,-x,1/2-z
_cell_length_a                   15.8632(18)
_cell_length_b                   15.8632(18)
_cell_length_c                   21.760(3)
_cell_angle_alpha                90
_cell_angle_beta                 90
_cell_angle_gamma                90
_cell_volume                     5475.71
loop_
_atom_site_label
_atom_site_type_symbol
_atom_site_fract_x
_atom_site_fract_y
_atom_site_fract_z
C1 C 0.7410(4) 0.5395(4) -0.2854(3)
H1 H 0.7354 0.5087 -0.3226
C2 C 0.8074(4) 0.5964(4) -0.2804(3)
H2 H 0.8464 0.6028 -0.3132
C3 C 0.8163(4) 0.6436(4) -0.2275(3)
C4 C 0.7585(4) 0.6278(4) -0.1807(3)
H3 H 0.7624 0.6574 -0.1429
C5 C 0.6959(4) 0.5695(4) -0.1894(3)
H4 H 0.6578 0.5595 -0.1566
C6 C 0.8816(4) 0.7105(4) -0.2220(3)
C7 C 0.9537(4) 0.7103(4) -0.2588(3)
H5 H 0.9615 0.6664 -0.2879
C8 C 1.0136(4) 0.7724(4) -0.2538(3)
H6 H 1.0627 0.7703 -0.2788
C9 C 1.0030(4) 0.8382(4) -0.2126(3)
H7 H 1.0443 0.8814 -0.2092
C10 C 0.9306(3) 0.8400(3) -0.1762(2)
C11 C 0.8721(3) 0.7767(4) -0.1805(3)
H8 H 0.8240 0.7779 -0.1545
C12 C 0.9229(3) 0.9100(3) -0.1318(2)
C13 C 0.8716(4) 1.0046(3) -0.0696(2)
C14 C 0.8098(3) 1.0605(4) -0.0393(2)
C15 C 0.7786(4) 1.0429(4) 0.0186(3)
H9 H 0.7978 0.9949 0.0407
C16 C 0.7184(4) 1.0969(4) 0.0441(3)
H10 H 0.6975 1.0862 0.0843
C17 C 0.6892(4) 1.1651(4) 0.0117(2)
H11 H 0.6478 1.2008 0.0296
C18 C 0.7197(3) 1.1829(3) -0.0474(2)
C19 C 0.7803(4) 1.1294(4) -0.0719(2)
H12 H 0.8019 1.1403 -0.1118
C20 C 0.6887(4) 1.2551(4) -0.0843(3)
C21 C 0.6150(4) 1.2986(4) -0.0706(2)
H13 H 0.5844 1.2855 -0.0343
C22 C 0.5862(4) 1.3609(4) -0.1098(3)
H14 H 0.5369 1.3912 -0.0984
C23 C 0.6989(4) 1.3433(4) -0.1736(3)
H15 H 0.7298 1.3593 -0.2091
C24 C 0.7326(4) 1.2835(4) -0.1362(3)
H16 H 0.7865 1.2608 -0.1453
Cd1 Cd 0.55816(2) 0.44184(2) -0.2500
N1 N 0.6855(3) 0.5261(3) -0.2413(2)
N2 N 0.9866(3) 0.9454(3) -0.1038(2)
N3 N 0.9546(3) 1.0059(3) -0.0651(2)
N4 N 0.8502(3) 0.9452(3) -0.1119(2)
N5 N 0.7685(3) 0.9283(4) -0.1333(3)
H17 H 0.7475 0.9740 -0.1502
H18 H 0.7399 0.9158 -0.0997
N6 N 0.6242(3) 1.3810(3) -0.1630(2)
C1_2 C 0.7410(4) -0.4605(4) -0.2854(3)
H1_2 H 0.7354 -0.4913 -0.3226
C2_2 C 0.8074(4) -0.4036(4) -0.2804(3)
H2_2 H 0.8464 -0.3972 -0.3132
C3_2 C 0.8163(4) -0.3564(4) -0.2275(3)
C4_2 C 0.7585(4) -0.3722(4) -0.1807(3)
H3_2 H 0.7624 -0.3426 -0.1429
C5_2 C 0.6959(4) -0.4305(4) -0.1894(3)
H4_2 H 0.6578 -0.4405 -0.1566
C6_2 C 0.8816(4) -0.2895(4) -0.2220(3)
C7_2 C 0.9537(4) -0.2897(4) -0.2588(3)
H5_2 H 0.9615 -0.3336 -0.2879
C8_2 C 1.0136(4) -0.2276(4) -0.2538(3)
H6_2 H 1.0627 -0.2297 -0.2788
C9_2 C 1.0030(4) -0.1618(4) -0.2126(3)
H7_2 H 1.0443 -0.1186 -0.2092
C10_2 C 0.9306(3) -0.1600(3) -0.1762(2)
C11_2 C 0.8721(3) -0.2233(4) -0.1805(3)
H8_2 H 0.8240 -0.2221 -0.1545
C12_2 C 0.9229(3) -0.0900(3) -0.1318(2)
C13_2 C 0.8716(4) 0.0046(3) -0.0696(2)
C14_2 C 0.8098(3) 0.0605(4) -0.0393(2)
C15_2 C 0.7786(4) 0.0429(4) 0.0186(3)
H9_2 H 0.7978 -0.0051 0.0407
C16_2 C 0.7184(4) 0.0969(4) 0.0441(3)
H10_2 H 0.6975 0.0862 0.0843
C17_2 C 0.6892(4) 0.1651(4) 0.0117(2)
H11_2 H 0.6478 0.2008 0.0296
C18_2 C 0.7197(3) 0.1829(3) -0.0474(2)
C19_2 C 0.7803(4) 0.1294(4) -0.0719(2)
H12_2 H 0.8019 0.1403 -0.1118
C20_2 C 0.6887(4) 0.2551(4) -0.0843(3)
C21_2 C 0.6150(4) 0.2986(4) -0.0706(2)
H13_2 H 0.5844 0.2855 -0.0343
C22_2 C 0.5862(4) 0.3609(4) -0.1098(3)
H14_2 H 0.5369 0.3912 -0.0984
C23_2 C 0.6989(4) 0.3433(4) -0.1736(3)
H15_2 H 0.7298 0.3593 -0.2091
C24_2 C 0.7326(4) 0.2835(4) -0.1362(3)
H16_2 H 0.7865 0.2608 -0.1453
Cd1B Cd 1.05816(2) 1.05816(2) 0.0000
Cd1_2 Cd 0.55816(2) 1.44184(2) -0.2500
Cd1_3 Cd 0.55816(2) -0.55816(2) -0.2500
Cd1B_2 Cd 1.05816(2) 0.05816(2) 0.0000
N1_2 N 0.6855(3) -0.4739(3) -0.2413(2)
N1G N 0.4739(3) 0.3145(3) -0.2587(2)
N2_2 N 0.9866(3) -0.0546(3) -0.1038(2)
N3_2 N 0.9546(3) 0.0059(3) -0.0651(2)
N3E N 0.4546(3) 0.4941(3) -0.1849(2)
N3C N 0.5059(3) 0.5454(3) -0.3151(2)
N4_2 N 0.8502(3) -0.0548(3) -0.1119(2)
N5_2 N 0.7685(3) -0.0717(4) -0.1333(3)
H17_2 H 0.7475 -0.0260 -0.1502
H18_2 H 0.7399 -0.0842 -0.0997
N6_2 N 0.6242(3) 0.3810(3) -0.1630(2)
N6G N 0.6190(3) 0.3758(3) -0.3370(2)
Cl1 Cl 0.12554(14) 0.87446(14) 0.2500
O1 O 0.1133(13) 0.7878(9) 0.2453(13)
O6 O 0.0744(13) 0.8864(12) 0.2053(8)
O1G O 0.2122(9) 0.8867(13) 0.2547(13)
O6G O 0.1136(12) 0.9256(13) 0.2947(8)
Cl2 Cl 0.76932(13) 0.76932(13) 0.0000
O3 O 0.7269(7) 0.7457(7) -0.0503(4)
O5 O 0.7096(13) 0.8367(14) 0.0251(14)
O3F O 0.7457(7) 0.7269(7) 0.0503(4)
O5F O 0.8367(14) 0.7096(13) -0.0251(14)
C25 C 0.0406(6) 0.5335(6) 0.0890(4)
H19 H 0.0231 0.5754 0.0572
Cl3 Cl 0.0642(3) 0.5818(2) 0.15663(15)
Cl4 Cl 0.1206(3) 0.4709(3) 0.06297(18)
Cl5 Cl -0.0412(5) 0.4735(8) 0.1113(9)
O2? O 0.0574(9) 0.9426(9) 0.2500
O4? O 0.8303(5) 0.8303(5) 0.0000
C26? C 0.0406(6) 0.5335(6) 0.0890(4)
Cl6? Cl 0.0642(3) 0.5818(2) 0.15663(15)
Cl7? Cl 0.0520(8) 0.4298(5) 0.0766(5)
Cl8? Cl -0.0397(4) 0.5772(4) 0.0474(3)
H20? H 0.0892 0.5543 0.0640
O7? O 0.1008(9) 0.838(2) 0.3020(8)
loop_
_geom_bond_atom_site_label_1
_geom_bond_atom_site_label_2
_geom_bond_site_symmetry_1
_geom_bond_site_symmetry_2
C1 H1 1_555 1_555
C2 C1 1_555 1_555
H2 C2 1_555 1_555
C3 C2 1_555 1_555
C4 C3 1_555 1_555
H3 C4 1_555 1_555
C5 C4 1_555 1_555
H4 C5 1_555 1_555
C6 C3 1_555 1_555
C7 C6 1_555 1_555
H5 C7 1_555 1_555
C8 C7 1_555 1_555
H6 C8 1_555 1_555
C9 C8 1_555 1_555
H7 C9 1_555 1_555
C10 C9 1_555 1_555
C11 C6 1_555 1_555
H8 C11 1_555 1_555
C12 C10 1_555 1_555
C13 C14 1_555 1_555
C14 C15 1_555 1_555
C15 H9 1_555 1_555
C16 C15 1_555 1_555
H10 C16 1_555 1_555
C17 C16 1_555 1_555
H11 C17 1_555 1_555
C18 C17 1_555 1_555
C19 C14 1_555 1_555
H12 C19 1_555 1_555
C20 C18 1_555 1_555
C21 C20 1_555 1_555
H13 C21 1_555 1_555
C22 C21 1_555 1_555
H14 C22 1_555 1_555
C23 H15 1_555 1_555
C24 C20 1_555 1_555
H16 C24 1_555 1_555
Cd1 N1 1_555 1_555
Cl1 O1 1_555 1_555
Cl2 O3 1_555 1_555
N1 C1 1_555 1_555
N2 C12 1_555 1_555
N3 C13 1_555 1_555
N4 C12 1_555 1_555
N5 N4 1_555 1_555
H17 N5 1_555 1_555
H18 N5 1_555 1_555
N6 C22 1_555 1_555
O5 Cl2 1_555 1_555
C25 H19 1_555 1_555
Cl3 C25 1_555 1_555
Cl4 C25 1_555 1_555
Cl5 C25 1_555 1_555
O6 Cl1 1_555 1_555
C1_2 H1_2 1_555 1_555
C2_2 C1_2 1_555 1_555
H2_2 C2_2 1_555 1_555
C3_2 C2_2 1_555 1_555
C4_2 C3_2 1_555 1_555
H3_2 C4_2 1_555 1_555
C5_2 C4_2 1_555 1_555
H4_2 C5_2 1_555 1_555
C6_2 C3_2 1_555 1_555
C7_2 C6_2 1_555 1_555
H5_2 C7_2 1_555 1_555
C8_2 C7_2 1_555 1_555
H6_2 C8_2 1_555 1_555
C9_2 C8_2 1_555 1_555
H7_2 C9_2 1_555 1_555
C10_2 C9_2 1_555 1_555
C11_2 C6_2 1_555 1_555
H8_2 C11_2 1_555 1_555
C12_2 C10_2 1_555 1_555
C13_2 C14_2 1_555 1_555
C14_2 C15_2 1_555 1_555
C15_2 H9_2 1_555 1_555
C16_2 C15_2 1_555 1_555
H10_2 C16_2 1_555 1_555
C17_2 C16_2 1_555 1_555
H11_2 C17_2 1_555 1_555
C18_2 C17_2 1_555 1_555
C19_2 C14_2 1_555 1_555
H12_2 C19_2 1_555 1_555
C20_2 C18_2 1_555 1_555
C21_2 C20_2 1_555 1_555
H13_2 C21_2 1_555 1_555
C22_2 C21_2 1_555 1_555
H14_2 C22_2 1_555 1_555
C23_2 H15_2 1_555 1_555
C24_2 C20_2 1_555 1_555
H16_2 C24_2 1_555 1_555
Cd1B N3 1_555 1_555
Cd1_2 N6 1_555 1_555
Cd1_3 N1_2 1_555 1_555
Cd1B_2 N3_2 1_555 1_555
N1_2 C1_2 1_555 1_555
N1G Cd1 1_555 1_555
N2_2 C12_2 1_555 1_555
N3_2 C13_2 1_555 1_555
N3E Cd1 1_555 1_555
N3C Cd1 1_555 1_555
N4_2 C12_2 1_555 1_555
N5_2 N4_2 1_555 1_555
H17_2 N5_2 1_555 1_555
H18_2 N5_2 1_555 1_555
N6_2 Cd1 1_555 1_555
N6G Cd1 1_555 1_555
O1G Cl1 1_555 1_555
O3F Cl2 1_555 1_555
O5F Cl2 1_555 1_555
O6G Cl1 1_555 1_555
C5 N1 1_555 1_555
C10 C11 1_555 1_555
C13 N4 1_555 1_555
C18 C19 1_555 1_555
C23 C24 1_555 1_555
C23 N6 1_555 1_555
N2 N3 1_555 1_555
C5_2 N1_2 1_555 1_555
C10_2 C11_2 1_555 1_555
C13_2 N4_2 1_555 1_555
C18_2 C19_2 1_555 1_555
C22_2 N6_2 1_555 1_555
C23_2 C24_2 1_555 1_555
C23_2 N6_2 1_555 1_555
N2_2 N3_2 1_555 1_555

#END
