
#######################################################################
#
#                 Cambridge Crystallographic Data Centre
#                                CCDC 
#
#######################################################################
#
# If this CIF has been generated from an entry in the Cambridge 
# Structural Database, then it will include bibliographic, chemical, 
# crystal, experimental, refinement or atomic coordinate data resulting 
# from the CCDC's data processing and validation procedures.
#
#######################################################################

data_SAJBUB
_symmetry_cell_setting           trigonal
_symmetry_space_group_name_H-M   'P -3 1 m'
_symmetry_Int_Tables_number      162
_space_group_name_Hall           "-P 3 2'"
loop_
_symmetry_equiv_pos_site_id
_symmetry_equiv_pos_as_xyz
1 x,y,z
2 -y,x-y,z
3 -x+y,-x,z
4 x,x-y,-z
5 -x+y,y,-z
6 y,x,z
7 -x,-y,-z
8 y,-x+y,-z
9 x-y,x,-z
10 -x,-x+y,z
11 x-y,-y,z
12 -y,-x,-z
_cell_length_a                   13.7520(6)
_cell_length_b                   13.7520(6)
_cell_length_c                   9.1950(5)
_cell_angle_alpha                90
_cell_angle_beta                 90
_cell_angle_gamma                120
_cell_volume                     1505.96
loop_
_atom_site_label
_atom_site_type_symbol
_atom_site_fract_x
_atom_site_fract_y
_atom_site_fract_z
C3 C 0.0597(3) 0.5923(3) 0.4149(4)
C4 C 0.0586(5) 0.7201(5) 0.2385(5)
H1 H 0.0968 0.7819 0.1778
C5 C 0.1183(4) 0.6886(4) 0.3255(5)
H2 H 0.1963 0.7297 0.3263
N1 N 0.1165(4) 0.5583(2) 0.50000
C3I C -0.0597(3) 0.5326(4) 0.4149(4)
C5I C -0.1183(4) 0.5703(6) 0.3255(5)
C4I C -0.0586(5) 0.6615(7) 0.2385(5)
C3C C 0.0597(3) 0.4674(4) 0.5851(4)
C3F C -0.0597(3) 0.4077(3) 0.5851(4)
C5C C 0.1183(4) 0.4297(6) 0.6745(5)
C4C C 0.0586(5) 0.3385(7) 0.7615(5)
C4F C -0.0586(5) 0.2799(5) 0.7615(5)
H1F H -0.0968 0.2181 0.8222
C5F C -0.1183(4) 0.3114(4) 0.6745(5)
N1F N -0.1165(4) 0.4417(2) 0.50000
H2F H -0.1963 0.2703 0.6737
H1C H 0.0968 0.3149 0.8222
H2C H 0.1963 0.4666 0.6737
H1I H -0.0968 0.6851 0.1778
H2I H -0.1963 0.5334 0.3263
O2 O 0.3333 0.6667 0.50000
H3 H 0.239(8) 0.620(4) 0.50000
H3A H 0.380(4) 0.619(9) 0.50000
H3B H 0.381(9) 0.761(8) 0.50000
Zn1 Zn 0.3333 0.6667 0.00000
Cl1 Cl 0.0000 0.33603(10) 0.24392(16)
O1 O 0.1963(2) 0.5383(2) 0.1122(3)
C1 C 0.1021(3) 0.5136(3) 0.0627(4)
C2 C 0.0000 0.4257(4) 0.1107(5)
C1C C 0.1021(3) 0.5885(4) -0.0627(4)
O1C O 0.1963(2) 0.6580(3) -0.1122(3)
C2C C 0.0000 0.5743(4) -0.1107(5)
Cl1C Cl 0.0000 0.66397(10) -0.24392(16)
C1F C -0.1021(3) 0.4864(3) -0.0627(4)
O1F O -0.1963(2) 0.4617(2) -0.1122(3)
C1I C -0.1021(3) 0.4115(4) 0.0627(4)
O1I O -0.1963(2) 0.3420(3) 0.1122(3)
O1A O 0.4617(2) 0.6580(3) 0.1122(3)
O1D O 0.3420(3) 0.5383(2) -0.1122(3)
O1B O 0.3420(3) 0.8037(2) 0.1122(3)
O1K O 0.4617(2) 0.8037(2) -0.1122(3)
Zn1F Zn -0.3333 0.3333 0.00000
Cl1G Cl -0.66397(10) 0.33603(10) -0.24392(16)
O1G O -0.4617(2) 0.3420(3) -0.1122(3)
C1G C -0.4864(3) 0.4115(4) -0.0627(4)
C2G C -0.5743(4) 0.4257(4) -0.1107(5)
C1J C -0.4115(4) 0.4864(3) 0.0627(4)
O1J O -0.3420(3) 0.4617(2) 0.1122(3)
C2J C -0.4257(4) 0.5743(4) 0.1107(5)
Cl1J Cl -0.33603(10) 0.66397(10) 0.24392(16)
C1A C -0.5136(3) 0.5885(4) 0.0627(4)
O1A_2 O -0.5383(2) 0.6580(3) 0.1122(3)
C1D C -0.5885(4) 0.5136(3) -0.0627(4)
O1D_2 O -0.6580(3) 0.5383(2) -0.1122(3)
Cl1H Cl -0.33603(10) 0.0000 -0.24392(16)
O1H O -0.3420(3) 0.1963(2) -0.1122(3)
C1H C -0.4115(4) 0.1021(3) -0.0627(4)
C2H C -0.4257(4) 0.0000 -0.1107(5)
C1E C -0.4864(3) 0.1021(3) 0.0627(4)
O1E O -0.4617(2) 0.1963(2) 0.1122(3)
C2E C -0.5743(4) 0.0000 0.1107(5)
Cl1E Cl -0.66397(10) 0.0000 0.24392(16)
C1B C -0.5885(4) -0.1021(3) 0.0627(4)
O1B_2 O -0.6580(3) -0.1963(2) 0.1122(3)
C1K C -0.5136(3) -0.1021(3) -0.0627(4)
O1K_2 O -0.5383(2) -0.1963(2) -0.1122(3)
Zn1_2 Zn -0.6667 0.6667 0.00000
Zn1_3 Zn -0.6667 -0.3333 0.00000
loop_
_geom_bond_atom_site_label_1
_geom_bond_atom_site_label_2
_geom_bond_site_symmetry_1
_geom_bond_site_symmetry_2
Zn1 O1 1_555 1_555
Cl1 C2 1_555 1_555
O1 C1 1_555 1_555
C1 C2 1_555 1_555
C2 C1I 1_555 1_555
C3 C5 1_555 1_555
C4 H1 1_555 1_555
C5 C4 1_555 1_555
H2 C5 1_555 1_555
N1 C3 1_555 1_555
O2 H3 1_555 1_555
C1C C1 1_555 1_555
O1C Zn1 1_555 1_555
C2C C1C 1_555 1_555
Cl1C C2C 1_555 1_555
C1F C2C 1_555 1_555
O1F C1F 1_555 1_555
C1I C1F 1_555 1_555
O1I C1I 1_555 1_555
C3I C3 1_555 1_555
C5I C3I 1_555 1_555
C4I C4 1_555 1_555
C3C N1 1_555 1_555
C3F C3C 1_555 1_555
C5C C3C 1_555 1_555
C4C C5C 1_555 1_555
C4F C4C 1_555 1_555
H1F C4F 1_555 1_555
C5F C3F 1_555 1_555
N1F C3I 1_555 1_555
H2F C5F 1_555 1_555
H1C C4C 1_555 1_555
H2C C5C 1_555 1_555
H1I C4I 1_555 1_555
H2I C5I 1_555 1_555
H3A O2 1_555 1_555
H3B O2 1_555 1_555
O1A Zn1 1_555 1_555
O1D Zn1 1_555 1_555
O1B Zn1 1_555 1_555
O1K Zn1 1_555 1_555
Zn1F O1F 1_555 1_555
Cl1G C2G 1_555 1_555
O1G Zn1F 1_555 1_555
C1G O1G 1_555 1_555
C2G C1G 1_555 1_555
C1J C1G 1_555 1_555
O1J Zn1F 1_555 1_555
C2J C1J 1_555 1_555
Cl1J C2J 1_555 1_555
C1A C2J 1_555 1_555
O1A_2 C1A 1_555 1_555
C1D C2G 1_555 1_555
O1D_2 C1D 1_555 1_555
Cl1H C2H 1_555 1_555
O1H Zn1F 1_555 1_555
C1H O1H 1_555 1_555
C2H C1H 1_555 1_555
C1E C1H 1_555 1_555
O1E Zn1F 1_555 1_555
C2E C1E 1_555 1_555
Cl1E C2E 1_555 1_555
C1B C2E 1_555 1_555
O1B_2 C1B 1_555 1_555
C1K C2H 1_555 1_555
O1K_2 C1K 1_555 1_555
Zn1_2 O1A_2 1_555 1_555
Zn1_3 O1B_2 1_555 1_555
C1C O1C 1_555 1_555
O1I Zn1F 1_555 1_555
C5I C4I 1_555 1_555
C3F N1F 1_555 1_555
C4F C5F 1_555 1_555
C1J O1J 1_555 1_555
C1A C1D 1_555 1_555
O1D_2 Zn1_2 1_555 1_555
C1E O1E 1_555 1_555
C1B C1K 1_555 1_555
O1K_2 Zn1_3 1_555 1_555

#END
