
#######################################################################
#
#                 Cambridge Crystallographic Data Centre
#                                CCDC 
#
#######################################################################
#
# If this CIF has been generated from an entry in the Cambridge 
# Structural Database, then it will include bibliographic, chemical, 
# crystal, experimental, refinement or atomic coordinate data resulting 
# from the CCDC's data processing and validation procedures.
#
#######################################################################

data_SAJBOV
_symmetry_cell_setting           trigonal
_symmetry_space_group_name_H-M   'P -3 1 m'
_symmetry_Int_Tables_number      162
_space_group_name_Hall           "-P 3 2'"
loop_
_symmetry_equiv_pos_site_id
_symmetry_equiv_pos_as_xyz
1 x,y,z
2 -y,x-y,z
3 -x+y,-x,z
4 x,x-y,-z
5 -x+y,y,-z
6 y,x,z
7 -x,-y,-z
8 y,-x+y,-z
9 x-y,x,-z
10 -x,-x+y,z
11 x-y,-y,z
12 -y,-x,-z
_cell_length_a                   14.359(2)
_cell_length_b                   14.359(2)
_cell_length_c                   8.6510(17)
_cell_angle_alpha                90
_cell_angle_beta                 90
_cell_angle_gamma                120
_cell_volume                     1544.7
loop_
_atom_site_label
_atom_site_type_symbol
_atom_site_fract_x
_atom_site_fract_y
_atom_site_fract_z
C3 C 0.4660(3) 0.4085(3) -0.4162(4)
C4 C 0.4264(4) 0.3130(3) -0.3243(4)
H1 H 0.4631 0.275 -0.3222
C5 C 0.3360(4) 0.2787(4) -0.2415(5)
H2 H 0.3103 0.2163 -0.1829
N1 N 0.55621(15) 0.44379(15) -0.5
C3E C 0.4085(3) 0.4660(3) -0.4162(4)
C4E C 0.3130(3) 0.4264(4) -0.3243(4)
H1E H 0.275 0.4631 -0.3222
C5E C 0.2787(4) 0.3360(4) -0.2415(5)
C3K C 0.5915(3) 0.5340(3) -0.5838(4)
C3F C 0.5340(3) 0.5915(3) -0.5838(4)
C4K C 0.6870(3) 0.5736(4) -0.6757(4)
H1K H 0.725 0.5369 -0.6778
C5K C 0.7213(4) 0.6640(4) -0.7585(5)
C5F C 0.6640(4) 0.7213(4) -0.7585(5)
C4F C 0.5736(4) 0.6870(3) -0.6757(4)
N1F N 0.44379(15) 0.55621(15) -0.5
H1F H 0.5369 0.725 -0.6778
H2F H 0.6897 0.7837 -0.8171
H2K H 0.7837 0.6897 -0.8171
H2E H 0.2163 0.3103 -0.1829
O2 O 0.6667 0.3333 -0.5
H3 H 0.631(3) 0.369(3) -0.5
H3A H 0.631(3) 0.262(4) -0.5
H3B H 0.738(4) 0.369(3) -0.5
Cd1 Cd 0.6667 0.3333 0.00000
Cl1 Cl 0.33091(8) 0.00000 -0.23658(15)
C1 C 0.5103(2) 0.0981(2) -0.0615(3)
C2 C 0.4236(3) 0.00000 -0.1077(5)
O1 O 0.5302(2) 0.1869(2) -0.1148(3)
C1D C 0.5878(3) 0.0981(2) 0.0615(3)
C2D C 0.57640(30) 0.00000 0.1077(5)
Cl1D Cl 0.66909(8) 0.00000 0.23658(15)
C1F C 0.4897(2) -0.0981(2) 0.0615(3)
C1J C 0.4122(3) -0.0981(2) -0.0615(3)
O1J O 0.3433(3) -0.1869(2) -0.1148(3)
O1F O 0.4698(2) -0.1869(2) 0.1148(3)
O1D O 0.6567(3) 0.1869(2) 0.1148(3)
O1A O 0.8131(2) 0.3433(3) -0.1148(3)
O1K O 0.8131(2) 0.4698(2) 0.1148(3)
O1B O 0.6567(3) 0.4698(2) -0.1148(3)
O1C O 0.5302(2) 0.3433(3) 0.1148(3)
Cd1J Cd 0.3334 -0.3333 0.00000
Cl1I Cl 0.66909(8) -0.33091(8) -0.23658(15)
C1I C 0.4897(2) -0.4122(3) -0.0615(3)
C2I C 0.5764(3) -0.42360(30) -0.1077(5)
O1I O 0.4698(2) -0.3433(3) -0.1148(3)
C1H C 0.4122(3) -0.4897(2) 0.0615(3)
C2H C 0.42360(30) -0.5764(3) 0.1077(5)
Cl1H Cl 0.33091(8) -0.66909(8) 0.23658(15)
C1C C 0.5103(2) -0.5878(3) 0.0615(3)
C1B C 0.5878(3) -0.5103(2) -0.0615(3)
O1B_2 O 0.6567(3) -0.5302(2) -0.1148(3)
O1C_2 O 0.5302(2) -0.6567(3) 0.1148(3)
O1H O 0.3433(3) -0.4698(2) 0.1148(3)
Cl1E Cl 0.00000 -0.66909(8) -0.23658(15)
C1E C 0.0981(2) -0.4897(2) -0.0615(3)
C2E C 0.00000 -0.5764(3) -0.1077(5)
O1E O 0.1869(2) -0.4698(2) -0.1148(3)
C1G C 0.0981(2) -0.4122(3) 0.0615(3)
C2G C 0.00000 -0.42360(30) 0.1077(5)
Cl1G Cl 0.00000 -0.33091(8) 0.23658(15)
C1K C -0.0981(2) -0.5103(2) 0.0615(3)
C1A C -0.0981(2) -0.5878(3) -0.0615(3)
O1A_2 O -0.1869(2) -0.6567(3) -0.1148(3)
O1K_2 O -0.1869(2) -0.5302(2) 0.1148(3)
O1G O 0.1869(2) -0.3433(3) 0.1148(3)
Cd1_2 Cd 0.6667 -0.6667 0.00000
Cd1_3 Cd -0.3333 -0.6667 0.00000
loop_
_geom_bond_atom_site_label_1
_geom_bond_atom_site_label_2
_geom_bond_site_symmetry_1
_geom_bond_site_symmetry_2
Cd1 O1 1_555 1_555
Cl1 C2 1_555 1_555
C1 C2 1_555 1_555
C2 C1J 1_555 1_555
C3 C4 1_555 1_555
C4 H1 1_555 1_555
C5 C4 1_555 1_555
H2 C5 1_555 1_555
O1 C1 1_555 1_555
O2 H3 1_555 1_555
N1 C3 1_555 1_555
C1D C1 1_555 1_555
C2D C1D 1_555 1_555
Cl1D C2D 1_555 1_555
C1F C2D 1_555 1_555
C1J C1F 1_555 1_555
O1J C1J 1_555 1_555
O1F C1F 1_555 1_555
O1D Cd1 1_555 1_555
C3E C3 1_555 1_555
C4E C3E 1_555 1_555
H1E C4E 1_555 1_555
C5E C5 1_555 1_555
C3K N1 1_555 1_555
C3F C3K 1_555 1_555
C4K C3K 1_555 1_555
H1K C4K 1_555 1_555
C5K C4K 1_555 1_555
C5F C5K 1_555 1_555
C4F C3F 1_555 1_555
N1F C3E 1_555 1_555
H1F C4F 1_555 1_555
H2F C5F 1_555 1_555
H2K C5K 1_555 1_555
H2E C5E 1_555 1_555
H3A O2 1_555 1_555
H3B O2 1_555 1_555
O1A Cd1 1_555 1_555
O1K Cd1 1_555 1_555
O1B Cd1 1_555 1_555
O1C Cd1 1_555 1_555
Cd1J O1J 1_555 1_555
Cl1I C2I 1_555 1_555
C1I C2I 1_555 1_555
C2I C1B 1_555 1_555
O1I Cd1J 1_555 1_555
C1H C1I 1_555 1_555
C2H C1H 1_555 1_555
Cl1H C2H 1_555 1_555
C1C C2H 1_555 1_555
C1B C1C 1_555 1_555
O1B_2 C1B 1_555 1_555
O1C_2 C1C 1_555 1_555
O1H Cd1J 1_555 1_555
Cl1E C2E 1_555 1_555
C1E C2E 1_555 1_555
C2E C1A 1_555 1_555
O1E Cd1J 1_555 1_555
C1G C1E 1_555 1_555
C2G C1G 1_555 1_555
Cl1G C2G 1_555 1_555
C1K C2G 1_555 1_555
C1A C1K 1_555 1_555
O1A_2 C1A 1_555 1_555
O1K_2 C1K 1_555 1_555
O1G Cd1J 1_555 1_555
Cd1_2 O1B_2 1_555 1_555
Cd1_3 O1A_2 1_555 1_555
C1D O1D 1_555 1_555
O1F Cd1J 1_555 1_555
C4E C5E 1_555 1_555
C3F N1F 1_555 1_555
C5F C4F 1_555 1_555
C1I O1I 1_555 1_555
C1H O1H 1_555 1_555
O1C_2 Cd1_2 1_555 1_555
C1E O1E 1_555 1_555
C1G O1G 1_555 1_555
O1K_2 Cd1_3 1_555 1_555

#END
