
#######################################################################
#
#                 Cambridge Crystallographic Data Centre
#                                CCDC 
#
#######################################################################
#
# If this CIF has been generated from an entry in the Cambridge 
# Structural Database, then it will include bibliographic, chemical, 
# crystal, experimental, refinement or atomic coordinate data resulting 
# from the CCDC's data processing and validation procedures.
#
#######################################################################

data_SAJBEK
_symmetry_cell_setting           monoclinic
_symmetry_space_group_name_H-M   'P 21/n'
_symmetry_Int_Tables_number      14
_space_group_name_Hall           '-P 2yn'
loop_
_symmetry_equiv_pos_site_id
_symmetry_equiv_pos_as_xyz
1 x,y,z
2 1/2-x,1/2+y,1/2-z
3 -x,-y,-z
4 1/2+x,1/2-y,1/2+z
_cell_length_a                   20.064(4)
_cell_length_b                   17.064(4)
_cell_length_c                   22.673(2)
_cell_angle_alpha                90
_cell_angle_beta                 113.82(1)
_cell_angle_gamma                90
_cell_volume                     7101.37
loop_
_atom_site_label
_atom_site_type_symbol
_atom_site_fract_x
_atom_site_fract_y
_atom_site_fract_z
Gd1 Gd 0.2288(1) -0.0320(1) 0.7582(1)
O1 O 0.2484(9) -0.0052(11) 0.8680(9)
O2 O 0.3460(7) 0.0281(9) 0.8150(6)
O3 O 0.1959(8) -0.1491(9) 0.7939(7)
O4 O 0.1099(8) -0.0124(9) 0.7520(8)
O5 O 0.1468(8) -0.0821(9) 0.6595(8)
O6 O 0.2744(8) -0.0094(9) 0.6779(7)
O7 O 0.1974(8) 0.1015(10) 0.7254(8)
O8 O 0.1859(9) 0.3687(10) 0.7348(8)
N1 N 0.1750(10) 0.1703(11) 0.7097(9)
N2 N 0.1707(10) 0.2943(12) 0.7123(9)
C1 C 0.2976(12) 0.0185(14) 0.9175(8)
C2 C 0.3646(12) 0.0481(14) 0.9204(12)
C3 C 0.3832(8) 0.0471(13) 0.8708(11)
C4 C 0.2807(8) 0.0141(10) 0.9785(6)
C5 C 0.4592(7) 0.0817(10) 0.8818(8)
C6 C 0.1374(13) -0.1747(9) 0.7992(11)
C7 C 0.0746(15) -0.1315(18) 0.7867(14)
C8 C 0.0645(8) -0.0552(14) 0.7622(11)
C9 C 0.1487(7) -0.2572(6) 0.8307(6)
C10 C -0.0145(7) -0.0231(10) 0.7389(8)
C11 C 0.1427(10) -0.0887(13) 0.6017(10)
C12 C 0.1949(14) -0.0639(15) 0.5803(13)
C13 C 0.2562(10) -0.0264(14) 0.6195(10)
C14 C 0.0729(7) -0.1332(10) 0.5570(7)
C15 C 0.3146(9) -0.0092(11) 0.5927(9)
C16 C 0.2053(13) 0.2343(14) 0.7455(12)
C17 C 0.1134(12) 0.1835(14) 0.6499(11)
C18 C 0.1097(13) 0.2784(14) 0.6525(12)
C19 C 0.2676(12) 0.2320(14) 0.8101(11)
C20 C 0.2352(18) 0.2253(17) 0.8592(16)
C21 C 0.1328(14) 0.1542(14) 0.5944(11)
C22 C 0.0432(12) 0.1440(14) 0.6472(16)
C23 C 0.0406(14) 0.3114(22) 0.6576(17)
C24 C 0.1136(19) 0.3151(20) 0.5919(14)
F1 F 0.2846(8) -0.0596(10) 0.9943(6)
F2 F 0.2155(8) 0.0401(10) 0.9663(6)
F3 F 0.3280(8) 0.0538(10) 1.0258(6)
F4 F 0.4918(7) 0.1058(10) 0.9410(8)
F5 F 0.4972(7) 0.0259(10) 0.8713(8)
F6 F 0.4529(7) 0.1396(10) 0.8427(8)
F7 F 0.1937(7) -0.2512(6) 0.8908(6)
F8 F 0.1744(7) -0.3068(6) 0.8016(6)
F9 F 0.0859(7) -0.2819(6) 0.8273(6)
F10 F -0.0609(7) -0.0707(10) 0.7467(8)
F11 F -0.0378(7) -0.0031(10) 0.6786(8)
F12 F -0.0074(7) 0.0391(10) 0.7741(8)
F13 F 0.0597(7) -0.1964(10) 0.5824(7)
F14 F 0.0195(7) -0.0840(10) 0.5447(7)
F15 F 0.0794(7) -0.1509(10) 0.5038(7)
F16 F 0.3558(9) 0.0495(11) 0.6223(9)
F17 F 0.2817(9) 0.0067(11) 0.5315(9)
F18 F 0.3544(9) -0.0716(11) 0.6004(9)
O8A O 0.3141(9) -0.1313(10) 0.7652(8)
Gd1A Gd 0.2712(1) 0.4680(1) 0.7418(1)
Gd2 Gd 0.2180(1) -0.2564(1) 0.2235(1)
O9 O 0.2057(8) -0.2407(9) 0.3220(7)
O10 O 0.3286(8) -0.3036(9) 0.3057(7)
O11 O 0.2917(8) -0.2810(9) 0.1674(7)
O12 O 0.1482(8) -0.3202(9) 0.1256(7)
O13 O 0.1847(8) -0.1505(9) 0.1505(7)
O14 O 0.0940(8) -0.2263(9) 0.1984(7)
O15 O 0.2964(8) -0.1483(9) 0.2766(9)
O16 O 0.3018(8) 0.1155(9) 0.2513(8)
N3 N 0.3170(11) -0.0798(12) 0.2661(9)
N4 N 0.3218(10) 0.0415(12) 0.2577(9)
C25 C 0.2442(12) -0.2528(14) 0.3801(9)
C26 C 0.3178(16) -0.2847(17) 0.4045(17)
C27 C 0.3521(8) -0.3064(13) 0.3677(11)
C28 C 0.2087(9) -0.2333(11) 0.4278(8)
C29 C 0.4303(6) -0.3411(8) 0.3940(7)
C30 C 0.2827(11) -0.2933(15) 0.1113(12)
C31 C 0.2176(15) -0.3140(16) 0.0615(15)
C32 C 0.1526(8) -0.3286(9) 0.0719(9)
C33 C 0.3468(8) -0.2849(11) 0.0895(9)
C34 C 0.0854(7) -0.3650(8) 0.0169(7)
C35 C 0.1250(8) -0.1216(9) 0.1119(9)
C36 C 0.0544(14) -0.1418(15) 0.1083(13)
C37 C 0.0458(11) -0.1906(9) 0.1517(9)
C38 C 0.1347(7) -0.0673(8) 0.0606(9)
C39 C -0.0341(8) -0.2121(9) 0.1403(8)
C40 C 0.2803(11) -0.0132(12) 0.2649(9)
C41 C 0.3885(11) 0.0182(12) 0.2489(9)
C42 C 0.3908(17) -0.0672(18) 0.2684(15)
C43 C 0.2143(13) -0.0073(16) 0.2756(12)
C44 C 0.2282(15) -0.0100(18) 0.3432(12)
C45 C 0.4582(16) 0.0673(20) 0.2828(18)
C46 C 0.3649(22) 0.0194(26) 0.1747(11)
C47 C 0.4248(21) -0.1365(22) 0.2463(24)
C48 C 0.4416(25) -0.0724(32) 0.3415(16)
F19 F 0.1897(9) -0.1599(11) 0.4194(8)
F20 F 0.1515(9) -0.2764(11) 0.4170(8)
F21 F 0.2557(9) -0.2440(11) 0.4868(8)
F22 F 0.4520(6) -0.3423(8) 0.4564(7)
F23 F 0.4735(6) -0.2967(8) 0.3787(7)
F24 F 0.4315(6) -0.4119(8) 0.3732(7)
F25 F 0.4069(8) -0.2828(11) 0.1413(9)
F26 F 0.3475(8) -0.3456(11) 0.0551(9)
F27 F 0.3414(8) -0.2215(11) 0.0561(9)
F28 F 0.0274(7) -0.3385(9) 0.0224(6)
F29 F 0.0868(7) -0.4410(9) 0.0213(6)
F30 F 0.0841(7) -0.3445(9) -0.0387(6)
F31 F 0.0729(7) -0.0367(7) 0.0227(6)
F32 F 0.1797(7) -0.0119(7) 0.0915(6)
F33 F 0.1618(7) -0.1069(7) 0.0264(6)
F34 F -0.0406(6) -0.2175(9) 0.1949(7)
F35 F -0.0781(6) -0.1584(9) 0.1049(7)
F36 F -0.0502(6) -0.2790(9) 0.1105(7)
O16A O 0.1982(8) -0.3845(9) 0.2487(8)
Gd2A Gd 0.2820(1) 0.2436(1) 0.2765(1)
loop_
_geom_bond_atom_site_label_1
_geom_bond_atom_site_label_2
_geom_bond_site_symmetry_1
_geom_bond_site_symmetry_2
Gd1 O1 1_555 1_555
Gd2 O9 1_555 1_555
O1 C1 1_555 1_555
O2 Gd1 1_555 1_555
O3 Gd1 1_555 1_555
O4 Gd1 1_555 1_555
O5 Gd1 1_555 1_555
O6 Gd1 1_555 1_555
O7 Gd1 1_555 1_555
O8 N2 1_555 1_555
O9 C25 1_555 1_555
O10 Gd2 1_555 1_555
O11 Gd2 1_555 1_555
O12 Gd2 1_555 1_555
O13 Gd2 1_555 1_555
O14 Gd2 1_555 1_555
O15 Gd2 1_555 1_555
O16 N4 1_555 1_555
N1 O7 1_555 1_555
N2 C16 1_555 1_555
N3 O15 1_555 1_555
N4 C40 1_555 1_555
C1 C2 1_555 1_555
C2 C3 1_555 1_555
C3 O2 1_555 1_555
C4 C1 1_555 1_555
C5 C3 1_555 1_555
C6 O3 1_555 1_555
C7 C6 1_555 1_555
C8 O4 1_555 1_555
C9 C6 1_555 1_555
C10 C8 1_555 1_555
C11 O5 1_555 1_555
C12 C11 1_555 1_555
C13 O6 1_555 1_555
C14 C11 1_555 1_555
C15 C13 1_555 1_555
C16 N1 1_555 1_555
C17 N1 1_555 1_555
C18 N2 1_555 1_555
C19 C16 1_555 1_555
C20 C19 1_555 1_555
C21 C17 1_555 1_555
C22 C17 1_555 1_555
C23 C18 1_555 1_555
C24 C18 1_555 1_555
C25 C26 1_555 1_555
C26 C27 1_555 1_555
C27 O10 1_555 1_555
C28 C25 1_555 1_555
C29 C27 1_555 1_555
C30 O11 1_555 1_555
C31 C30 1_555 1_555
C32 O12 1_555 1_555
C33 C30 1_555 1_555
C34 C32 1_555 1_555
C35 O13 1_555 1_555
C36 C35 1_555 1_555
C37 O14 1_555 1_555
C38 C35 1_555 1_555
C39 C37 1_555 1_555
C40 N3 1_555 1_555
C41 N4 1_555 1_555
C42 N3 1_555 1_555
C43 C40 1_555 1_555
C44 C43 1_555 1_555
C45 C41 1_555 1_555
C46 C41 1_555 1_555
C47 C42 1_555 1_555
C48 C42 1_555 1_555
F1 C4 1_555 1_555
F2 C4 1_555 1_555
F3 C4 1_555 1_555
F4 C5 1_555 1_555
F5 C5 1_555 1_555
F6 C5 1_555 1_555
F7 C9 1_555 1_555
F8 C9 1_555 1_555
F9 C9 1_555 1_555
F10 C10 1_555 1_555
F11 C10 1_555 1_555
F12 C10 1_555 1_555
F13 C14 1_555 1_555
F14 C14 1_555 1_555
F15 C14 1_555 1_555
F16 C15 1_555 1_555
F17 C15 1_555 1_555
F18 C15 1_555 1_555
F19 C28 1_555 1_555
F20 C28 1_555 1_555
F21 C28 1_555 1_555
F22 C29 1_555 1_555
F23 C29 1_555 1_555
F24 C29 1_555 1_555
F25 C33 1_555 1_555
F26 C33 1_555 1_555
F27 C33 1_555 1_555
F28 C34 1_555 1_555
F29 C34 1_555 1_555
F30 C34 1_555 1_555
F31 C38 1_555 1_555
F32 C38 1_555 1_555
F33 C38 1_555 1_555
F34 C39 1_555 1_555
F35 C39 1_555 1_555
F36 C39 1_555 1_555
O8A Gd1 1_555 1_555
O16A Gd2 1_555 1_555
Gd1A O8 1_555 1_555
Gd2A O16 1_555 1_555
C7 C8 1_555 1_555
C12 C13 1_555 1_555
C17 C18 1_555 1_555
C31 C32 1_555 1_555
C36 C37 1_555 1_555
C41 C42 1_555 1_555

#END
