
#######################################################################
#
#                 Cambridge Crystallographic Data Centre
#                                CCDC 
#
#######################################################################
#
# If this CIF has been generated from an entry in the Cambridge 
# Structural Database, then it will include bibliographic, chemical, 
# crystal, experimental, refinement or atomic coordinate data resulting 
# from the CCDC's data processing and validation procedures.
#
#######################################################################

data_SAJCAI
_symmetry_cell_setting           trigonal
_symmetry_space_group_name_H-M   'P -3 1 m'
_symmetry_Int_Tables_number      162
_space_group_name_Hall           "-P 3 2'"
loop_
_symmetry_equiv_pos_site_id
_symmetry_equiv_pos_as_xyz
1 x,y,z
2 -y,x-y,z
3 -x+y,-x,z
4 x,x-y,-z
5 -x+y,y,-z
6 y,x,z
7 -x,-y,-z
8 y,-x+y,-z
9 x-y,x,-z
10 -x,-x+y,z
11 x-y,-y,z
12 -y,-x,-z
_cell_length_a                   13.7930(8)
_cell_length_b                   13.7930(8)
_cell_length_c                   9.1310(7)
_cell_angle_alpha                90
_cell_angle_beta                 90
_cell_angle_gamma                120
_cell_volume                     1504.41
loop_
_atom_site_label
_atom_site_type_symbol
_atom_site_fract_x
_atom_site_fract_y
_atom_site_fract_z
N1 N 0.556 0.112 0.50000
C3 C 0.5923(4) 0.0596(4) 0.4145(5)
C4 C 0.6880(5) 0.1183(4) 0.3240(6)
H1 H 0.7279 0.1962 0.3227
C5 C 0.7201(5) 0.0584(5) 0.2390(7)
H2 H 0.7827 0.0962 0.1793
C3J C 0.5327(6) -0.0596(4) 0.4145(5)
N1J N 0.444 -0.112 0.50000
C3F C 0.4077(4) -0.0596(4) 0.5855(5)
C3D C 0.4673(6) 0.0596(4) 0.5855(5)
C4D C 0.4303(6) 0.1183(4) 0.6760(6)
H1D H 0.4683 0.1962 0.6773
C5D C 0.3383(7) 0.0584(5) 0.7610(7)
C5F C 0.2799(5) -0.0584(5) 0.7610(7)
C4F C 0.3120(5) -0.1183(4) 0.6760(6)
H1F H 0.2721 -0.1962 0.6773
H2F H 0.2173 -0.0962 0.8207
H2D H 0.3135 0.0962 0.8207
C4J C 0.5697(6) -0.1183(4) 0.3240(6)
H1J H 0.5317 -0.1962 0.3227
C5J C 0.6617(7) -0.0584(5) 0.2390(7)
H2J H 0.6865 -0.0962 0.1793
O2 O 0.6667 0.3333 0.50000
H3 H 0.621 0.242 0.50000
H3A H 0.758 0.379 0.50000
H3B H 0.621 0.379 0.50000
Co1 Co 0.6667 0.3333 0.00000
Cl1 Cl 0.33499(12) 0.0000 0.24295(18)
O1 O 0.5367(3) 0.1968(2) 0.1102(3)
C1 C 0.5137(4) 0.1023(4) 0.0615(5)
C2 C 0.4261(5) 0.0000 0.1124(7)
C1D C 0.5886(6) 0.1023(4) -0.0615(5)
O1D O 0.6601(4) 0.1968(2) -0.1102(3)
C2D C 0.5739(5) 0.0000 -0.1124(7)
Cl1D Cl 0.66501(12) 0.0000 -0.24295(18)
C1F C 0.4863(4) -0.1023(4) -0.0615(5)
O1F O 0.4633(3) -0.1968(2) -0.1102(3)
C1J C 0.4114(6) -0.1023(4) 0.0615(5)
O1J O 0.3399(4) -0.1968(2) 0.1102(3)
O1A O 0.8032(2) 0.3399(4) 0.1102(3)
O1K O 0.8032(2) 0.4633(3) -0.1102(3)
O1B O 0.6601(4) 0.4633(3) 0.1102(3)
O1C O 0.5367(3) 0.3399(4) -0.1102(3)
Co1F Co 0.3333 -0.3333 0.00000
Cl1G Cl 0.0000 -0.33499(12) -0.24295(18)
O1G O 0.1968(2) -0.3399(4) -0.1102(3)
C1G C 0.1023(4) -0.4114(6) -0.0615(5)
C2G C 0.0000 -0.4261(5) -0.1124(7)
C1E C 0.1023(4) -0.4863(4) 0.0615(5)
O1E O 0.1968(2) -0.4633(3) 0.1102(3)
C2E C 0.0000 -0.5739(5) 0.1124(7)
Cl1E Cl 0.0000 -0.66501(12) 0.24295(18)
C1A C -0.1023(4) -0.5886(6) 0.0615(5)
O1A_2 O -0.1968(2) -0.6601(4) 0.1102(3)
C1K C -0.1023(4) -0.5137(4) -0.0615(5)
O1K_2 O -0.1968(2) -0.5367(3) -0.1102(3)
Cl1H Cl 0.33499(12) -0.66501(12) -0.24295(18)
O1H O 0.3399(4) -0.4633(3) -0.1102(3)
C1H C 0.4114(6) -0.4863(4) -0.0615(5)
C2H C 0.4261(5) -0.5739(5) -0.1124(7)
C1I C 0.4863(4) -0.4114(6) 0.0615(5)
O1I O 0.4633(3) -0.3399(4) 0.1102(3)
C2I C 0.5739(5) -0.4261(5) 0.1124(7)
Cl1I Cl 0.66501(12) -0.33499(12) 0.24295(18)
C1B C 0.5886(6) -0.5137(4) 0.0615(5)
O1B_2 O 0.6601(4) -0.5367(3) 0.1102(3)
C1C C 0.5137(4) -0.5886(6) -0.0615(5)
O1C_2 O 0.5367(3) -0.6601(4) -0.1102(3)
Co1_2 Co -0.3333 -0.6667 0.00000
Co1_3 Co 0.6667 -0.6667 0.00000
loop_
_geom_bond_atom_site_label_1
_geom_bond_atom_site_label_2
_geom_bond_site_symmetry_1
_geom_bond_site_symmetry_2
Co1 O1 1_555 1_555
Cl1 C2 1_555 1_555
O1 C1 1_555 1_555
C1 C2 1_555 1_555
N1 C3 1_555 1_555
C2 C1J 1_555 1_555
C3 C4 1_555 1_555
C4 H1 1_555 1_555
C5 C4 1_555 1_555
H2 C5 1_555 1_555
O2 H3 1_555 1_555
C1D C1 1_555 1_555
O1D Co1 1_555 1_555
C2D C1D 1_555 1_555
Cl1D C2D 1_555 1_555
C1F C2D 1_555 1_555
O1F C1F 1_555 1_555
C1J C1F 1_555 1_555
O1J C1J 1_555 1_555
C3J C3 1_555 1_555
N1J C3J 1_555 1_555
C3F N1J 1_555 1_555
C3D N1 1_555 1_555
C4D C3D 1_555 1_555
H1D C4D 1_555 1_555
C5D C4D 1_555 1_555
C5F C5D 1_555 1_555
C4F C3F 1_555 1_555
H1F C4F 1_555 1_555
H2F C5F 1_555 1_555
H2D C5D 1_555 1_555
C4J C3J 1_555 1_555
H1J C4J 1_555 1_555
C5J C5 1_555 1_555
H2J C5J 1_555 1_555
H3A O2 1_555 1_555
H3B O2 1_555 1_555
O1A Co1 1_555 1_555
O1K Co1 1_555 1_555
O1B Co1 1_555 1_555
O1C Co1 1_555 1_555
Co1F O1F 1_555 1_555
Cl1G C2G 1_555 1_555
O1G Co1F 1_555 1_555
C1G O1G 1_555 1_555
C2G C1G 1_555 1_555
C1E C1G 1_555 1_555
O1E Co1F 1_555 1_555
C2E C1E 1_555 1_555
Cl1E C2E 1_555 1_555
C1A C2E 1_555 1_555
O1A_2 C1A 1_555 1_555
C1K C2G 1_555 1_555
O1K_2 C1K 1_555 1_555
Cl1H C2H 1_555 1_555
O1H Co1F 1_555 1_555
C1H O1H 1_555 1_555
C2H C1H 1_555 1_555
C1I C1H 1_555 1_555
O1I Co1F 1_555 1_555
C2I C1I 1_555 1_555
Cl1I C2I 1_555 1_555
C1B C2I 1_555 1_555
O1B_2 C1B 1_555 1_555
C1C C2H 1_555 1_555
O1C_2 C1C 1_555 1_555
Co1_2 O1A_2 1_555 1_555
Co1_3 O1B_2 1_555 1_555
C1D O1D 1_555 1_555
O1J Co1F 1_555 1_555
C3F C3D 1_555 1_555
C5F C4F 1_555 1_555
C4J C5J 1_555 1_555
C1E O1E 1_555 1_555
C1A C1K 1_555 1_555
O1K_2 Co1_2 1_555 1_555
C1I O1I 1_555 1_555
C1B C1C 1_555 1_555
O1C_2 Co1_3 1_555 1_555

#END
