
#######################################################################
#
#                 Cambridge Crystallographic Data Centre
#                                CCDC 
#
#######################################################################
#
# If this CIF has been generated from an entry in the Cambridge 
# Structural Database, then it will include bibliographic, chemical, 
# crystal, experimental, refinement or atomic coordinate data resulting 
# from the CCDC's data processing and validation procedures.
#
#######################################################################

data_SAJDOX
_symmetry_cell_setting           triclinic
_symmetry_space_group_name_H-M   'P -1'
_symmetry_Int_Tables_number      2
_space_group_name_Hall           '-P 1'
loop_
_symmetry_equiv_pos_site_id
_symmetry_equiv_pos_as_xyz
1 x,y,z
2 -x,-y,-z
_cell_length_a                   9.444(2)
_cell_length_b                   10.226(3)
_cell_length_c                   16.511(3)
_cell_angle_alpha                85.09(2)
_cell_angle_beta                 77.16(1)
_cell_angle_gamma                80.08(1)
_cell_volume                     1529.56
loop_
_atom_site_label
_atom_site_type_symbol
_atom_site_fract_x
_atom_site_fract_y
_atom_site_fract_z
Mn1 Mn -0.35185(5) 0.14933(4) 0.47656(3)
N1 N -0.4682(3) 0.2234(3) 0.36803(18)
C1 C -0.4756(4) 0.1389(4) 0.3118(2)
H1 H -0.4448 0.0488 0.3219
C2 C -0.5257(5) 0.1775(5) 0.2407(3)
H2 H -0.5300 0.1139 0.2047
C3 C -0.5700(5) 0.3105(6) 0.2220(3)
C4 C -0.5661(4) 0.3987(4) 0.2818(3)
H3 H -0.5977 0.4891 0.2734
C5 C -0.5161(4) 0.3527(4) 0.3526(2)
H4 H -0.5153 0.4134 0.3913
N2 N -0.2628(3) 0.0905(2) 0.59462(17)
C6 C -0.1587(3) -0.0144(3) 0.6048(2)
H5 H -0.1135 -0.0650 0.5591
C7 C -0.1160(4) -0.0503(3) 0.6786(2)
H6 H -0.0429 -0.1231 0.6817
C8 C -0.1804(4) 0.0205(3) 0.7483(2)
C9 C -0.2864(4) 0.1300(3) 0.7381(2)
H7 H -0.3322 0.1823 0.7828
C10 C -0.3235(4) 0.1608(3) 0.6623(2)
H8 H -0.3946 0.2345 0.6575
N3 N -1.1583(7) 0.2819(5) 0.0896(5)
C11 C -1.1719(7) 0.3207(6) 0.1649(5)
H9 H -1.2538 0.3034 0.2048
C12 C -1.0748(6) 0.3840(5) 0.1881(3)
H10 H -1.0921 0.4102 0.2425
C13 C -0.9518(5) 0.4101(5) 0.1330(3)
C14 C -0.9322(7) 0.3681(6) 0.0565(4)
H11 H -0.8486 0.3821 0.0170
C15 C -1.0340(10) 0.3051(6) 0.0360(4)
H12 H -1.0168 0.2764 -0.0177
N4 N 0.3998(5) 0.2568(6) 0.8965(3)
C16 C 0.3684(6) 0.1379(7) 0.9253(3)
H13 H 0.4107 0.0967 0.9686
C17 C 0.2785(6) 0.0724(5) 0.8958(3)
H14 H 0.2609 -0.0109 0.9191
C18 C 0.2127(4) 0.1282(4) 0.8312(2)
C19 C 0.2438(5) 0.2509(5) 0.8005(3)
H15 H 0.2028 0.2935 0.7571
C20 C 0.3368(6) 0.3122(5) 0.8343(4)
H16 H 0.3561 0.3957 0.8125
C21 C -0.6081(8) 0.3521(9) 0.1363(4)
H17 H -0.5161 0.3519 0.0960
H18 H -0.6558 0.2833 0.1218
C22 C -0.6977(9) 0.4754(9) 0.1254(5)
H19 H -0.6570 0.5435 0.1461
H20 H -0.6897 0.4946 0.0661
C23 C -0.8477(8) 0.4882(8) 0.1629(6)
H21 H -0.8881 0.5817 0.1585
H22 H -0.8542 0.4647 0.2217
C24 C -0.1417(5) -0.0157(4) 0.8318(2)
H23 H -0.0941 -0.1077 0.8324
H24 H -0.2319 -0.0092 0.8740
C25 C -0.0413(4) 0.0701(4) 0.8551(2)
H25 H -0.0878 0.1623 0.8535
H26 H -0.0309 0.0456 0.9118
C26 C 0.1093(5) 0.0578(4) 0.7992(3)
H27 H 0.1006 0.0949 0.7441
H28 H 0.1507 -0.0356 0.7943
O1 O -0.3519(2) 0.36435(19) 0.49929(14)
O2 O -0.1615(2) 0.2592(2) 0.41391(15)
O3 O -0.2451(2) 0.96393(19) 0.42930(14)
O4 O -0.4393(2) 0.86191(19) 0.44609(14)
C27 C -0.2305(3) 0.3626(3) 0.44850(19)
C28 C -0.1675(3) 0.4897(3) 0.42877(17)
C29 C -0.2602(3) 0.6109(3) 0.43910(17)
H29 H -0.3612 0.6129 0.4558
C30 C -0.2025(3) 0.7299(2) 0.42455(17)
C31 C -0.0510(3) 0.7246(3) 0.40075(19)
H30 H -0.0113 0.8031 0.3925
C32 C 0.0413(3) 0.6047(3) 0.3892(2)
H31 H 0.1425 0.6025 0.3728
C33 C -0.0171(3) 0.4868(3) 0.40219(19)
H32 H 0.0448 0.4059 0.3930
C34 C -0.3035(3) 0.8606(3) 0.43487(17)
Mn1A Mn -0.64815(5) 0.85067(4) 0.52344(3)
O3_2 O -0.2451(2) -0.03607(19) 0.42930(14)
O4A O -0.5607(2) 0.13809(19) 0.55391(14)
Mn1_2 Mn -0.35185(5) 1.14933(4) 0.47656(3)
O5 O -0.6525(10) 0.7983(8) 0.0164(7)
H33 H -0.697(15) 0.762(11) -0.017(7)
H34 H -0.601(15) 0.735(9) 0.045(8)
loop_
_geom_bond_atom_site_label_1
_geom_bond_atom_site_label_2
_geom_bond_site_symmetry_1
_geom_bond_site_symmetry_2
Mn1 N1 1_555 1_555
N1 C1 1_555 1_555
C1 H1 1_555 1_555
C2 C1 1_555 1_555
H2 C2 1_555 1_555
C3 C2 1_555 1_555
C4 C3 1_555 1_555
H3 C4 1_555 1_555
C5 N1 1_555 1_555
H4 C5 1_555 1_555
N2 Mn1 1_555 1_555
C6 N2 1_555 1_555
H5 C6 1_555 1_555
C7 C6 1_555 1_555
H6 C7 1_555 1_555
C8 C7 1_555 1_555
C9 C8 1_555 1_555
H7 C9 1_555 1_555
C10 N2 1_555 1_555
H8 C10 1_555 1_555
N3 C11 1_555 1_555
C11 H9 1_555 1_555
C12 C11 1_555 1_555
H10 C12 1_555 1_555
C13 C12 1_555 1_555
C14 C13 1_555 1_555
H11 C14 1_555 1_555
C15 N3 1_555 1_555
H12 C15 1_555 1_555
N4 C16 1_555 1_555
C16 H13 1_555 1_555
C17 C16 1_555 1_555
H14 C17 1_555 1_555
C18 C17 1_555 1_555
C19 C18 1_555 1_555
H15 C19 1_555 1_555
C20 N4 1_555 1_555
H16 C20 1_555 1_555
C21 C3 1_555 1_555
H17 C21 1_555 1_555
H18 C21 1_555 1_555
C22 C21 1_555 1_555
H19 C22 1_555 1_555
H20 C22 1_555 1_555
C23 C13 1_555 1_555
H21 C23 1_555 1_555
H22 C23 1_555 1_555
C24 C8 1_555 1_555
H23 C24 1_555 1_555
H24 C24 1_555 1_555
C25 C24 1_555 1_555
H25 C25 1_555 1_555
H26 C25 1_555 1_555
C26 C18 1_555 1_555
H27 C26 1_555 1_555
H28 C26 1_555 1_555
O1 Mn1 1_555 1_555
O2 Mn1 1_555 1_555
O3 C34 1_555 1_555
O4 C34 1_555 1_555
C27 O1 1_555 1_555
C28 C27 1_555 1_555
C29 C28 1_555 1_555
H29 C29 1_555 1_555
C30 C29 1_555 1_555
C31 C30 1_555 1_555
H30 C31 1_555 1_555
C32 C31 1_555 1_555
H31 C32 1_555 1_555
C33 C28 1_555 1_555
H32 C33 1_555 1_555
C34 C30 1_555 1_555
O5 H33 1_555 1_555
H34 O5 1_555 1_555
Mn1A O4 1_555 1_555
O3_2 Mn1 1_555 1_555
O4A Mn1 1_555 1_555
Mn1_2 O3 1_555 1_555
C4 C5 1_555 1_555
C9 C10 1_555 1_555
C14 C15 1_555 1_555
C19 C20 1_555 1_555
C22 C23 1_555 1_555
C25 C26 1_555 1_555
O2 C27 1_555 1_555
C32 C33 1_555 1_555

#END
