
#######################################################################
#
#                 Cambridge Crystallographic Data Centre
#                                CCDC 
#
#######################################################################
#
# If this CIF has been generated from an entry in the Cambridge 
# Structural Database, then it will include bibliographic, chemical, 
# crystal, experimental, refinement or atomic coordinate data resulting 
# from the CCDC's data processing and validation procedures.
#
#######################################################################

data_SAJFEO
_symmetry_cell_setting           monoclinic
_symmetry_space_group_name_H-M   'C 2'
_symmetry_Int_Tables_number      5
_space_group_name_Hall           'C 2y'
loop_
_symmetry_equiv_pos_site_id
_symmetry_equiv_pos_as_xyz
1 x,y,z
2 -x,y,-z
3 1/2+x,1/2+y,z
4 1/2-x,1/2+y,-z
_cell_length_a                   36.080(8)
_cell_length_b                   10.906(1)
_cell_length_c                   10.935(2)
_cell_angle_alpha                90
_cell_angle_beta                 105.55(1)
_cell_angle_gamma                90
_cell_volume                     4145.3
loop_
_atom_site_label
_atom_site_type_symbol
_atom_site_fract_x
_atom_site_fract_y
_atom_site_fract_z
La1 La 0.1188(1) -0.0009(1) 0.8533(1)
Cr1 Cr 0.0533(1) 0.0242(1) 0.2978(1)
O1 O 0.0584(1) 0.1338(3) 0.4447(3)
O2 O 0.0915(1) -0.0761(3) 0.4193(3)
C1 C 0.0811(1) 0.0896(4) 0.5474(4)
C2 C 0.0984(1) -0.0363(4) 0.5338(3)
O3 O 0.0893(1) 0.1372(3) 0.6527(3)
O4 O 0.1170(1) -0.0886(4) 0.6277(3)
O5 O 0.0902(1) 0.1196(3) 1.2314(3)
O6 O 0.0551(1) -0.0878(3) 1.1580(3)
C3 C 0.0971(1) 0.0729(4) 1.1323(4)
C4 C 0.0775(1) -0.0507(4) 1.0912(3)
O7 O 0.1181(1) 0.1159(3) 1.0713(3)
O8 O 0.0829(1) -0.1047(3) 0.9997(3)
O9 O -0.0096(1) 0.1204(3) 0.8067(3)
O10 O -0.0116(1) -0.0730(3) 0.6645(3)
C5 C 0.0229(1) 0.0783(4) 0.8039(4)
C6 C 0.0218(1) -0.0384(4) 0.7240(4)
O11 O 0.0544(1) 0.1228(3) 0.8595(3)
O12 O 0.0523(1) -0.0890(3) 0.7227(3)
O13 O 0.1755(1) -0.0518(5) 1.0478(3)
O14 O 0.1839(1) -0.0305(7) 0.7969(4)
O15 O 0.1259(2) -0.2350(5) 0.8616(5)
O16 O 0.1534(2) 0.2012(6) 0.8801(5)
Cr1_2 Cr 0.0533(1) 0.0242(1) 1.2978(1)
Cr1A Cr -0.0533(1) 0.0242(1) 0.7022(1)
O5_2 O 0.0902(1) 0.1196(3) 0.2314(3)
O6_2 O 0.0551(1) -0.0878(3) 0.1580(3)
C3_2 C 0.0971(1) 0.0729(4) 0.1323(4)
C4_2 C 0.0775(1) -0.0507(4) 0.0912(3)
O7_2 O 0.1181(1) 0.1159(3) 0.0713(3)
O8_2 O 0.0829(1) -0.1047(3) -0.0003(3)
O9A O 0.0096(1) 0.1204(3) 0.1933(3)
O10A O 0.0116(1) -0.0730(3) 0.3355(3)
C5A C -0.0229(1) 0.0783(4) 0.1961(4)
C6A C -0.0218(1) -0.0384(4) 0.2760(4)
O11A O -0.0544(1) 0.1228(3) 0.1405(3)
O12A O -0.0523(1) -0.0890(3) 0.2773(3)
O1A O -0.0584(1) 0.1338(3) 0.5553(3)
O2A O -0.0915(1) -0.0761(3) 0.5807(3)
C1A C -0.0811(1) 0.0896(4) 0.4526(4)
C2A C -0.0984(1) -0.0363(4) 0.4662(3)
O3A O -0.0893(1) 0.1372(3) 0.3473(3)
O4A O -0.1170(1) -0.0886(4) 0.3723(3)
O5A O -0.0902(1) 0.1196(3) 0.7686(3)
O6A O -0.0551(1) -0.0878(3) 0.8420(3)
La1A La -0.1188(1) -0.0009(1) 0.1467(1)
La1_2 La 0.1188(1) -0.0009(1) -0.1467(1)
O7A O -0.1181(1) 0.1159(3) -0.0713(3)
O8A O -0.0829(1) -0.1047(3) 0.0003(3)
O13A O -0.1755(1) -0.0518(5) -0.0478(3)
O14A O -0.1839(1) -0.0305(7) 0.2031(4)
O15A O -0.1259(2) -0.2350(5) 0.1384(5)
O16A O -0.1534(2) 0.2012(6) 0.1199(5)
La2 La 0.1319(1) 0.5308(1) -0.6547(1)
Cr2 Cr 0.3030(1) 0.5319(1) -0.4400(1)
O17 O 0.2639(1) 0.6014(3) -0.5852(3)
O18 O 0.2573(1) 0.4597(3) -0.3991(3)
C7 C 0.2295(1) 0.5687(4) -0.5901(4)
C8 C 0.2260(1) 0.4903(4) -0.4777(4)
O19 O 0.2004(1) 0.5974(3) -0.6739(3)
O20 O 0.1932(1) 0.4605(3) -0.4706(3)
O21 O 0.1899(1) 0.8865(3) -0.4599(3)
O22 O 0.1629(1) 0.9403(3) -0.6999(3)
C9 C 0.1695(1) 0.8036(4) -0.5272(4)
C10 C 0.1542(1) 0.8336(4) -0.6690(4)
O23 O 0.1615(1) 0.7030(3) -0.4894(3)
O24 O 0.1359(1) 0.7554(3) -0.7403(3)
O25 O 0.1565(1) 0.1265(3) -0.5136(3)
O26 O 0.1974(1) 0.1730(3) -0.6723(3)
C11 C 0.1500(1) 0.2312(4) -0.5675(4)
C12 C 0.1729(1) 0.2561(4) -0.6649(4)
O27 O 0.1290(1) 0.3127(3) -0.5482(4)
O28 O 0.1674(1) 0.3512(3) -0.7277(4)
O29 O 0.0688(2) 0.6521(5) -0.7297(10)
O30 O 0.0989(2) 0.5364(6) -0.4810(6)
O31 O 0.0758(2) 0.3914(5) -0.7728(7)
O32 O 0.1249(2) 0.5526(6) -0.8948(5)
Cr2C Cr 0.1970(1) 1.0319(1) -0.5600(1)
Cr2C_2 Cr 0.1970(1) 0.0319(1) -0.5600(1)
O21C O 0.3101(1) 0.3865(3) -0.5401(3)
O22C O 0.3371(1) 0.4403(3) -0.3001(3)
C9C C 0.3305(1) 0.3036(4) -0.4728(4)
C10C C 0.3458(1) 0.3336(4) -0.3310(4)
O23C O 0.3385(1) 0.2030(3) -0.5106(3)
O24C O 0.3641(1) 0.2554(3) -0.2597(3)
O25C O 0.3435(1) 0.6265(3) -0.4864(3)
O26C O 0.3026(1) 0.6730(3) -0.3277(3)
C11C C 0.3500(1) 0.7312(4) -0.4325(4)
C12C C 0.3271(1) 0.7561(4) -0.3351(4)
O27C O 0.3710(1) 0.8127(3) -0.4518(4)
O28C O 0.3326(1) 0.8512(3) -0.2723(4)
La2C La 0.3681(1) 0.0308(1) -0.3453(1)
La2C_2 La 0.3681(1) 1.0308(1) -0.3453(1)
O19C O 0.2996(1) 1.0974(3) -0.3261(3)
O20C O 0.3068(1) 0.9605(3) -0.5294(3)
O23C_2 O 0.3385(1) 1.2030(3) -0.5106(3)
O24C_2 O 0.3641(1) 1.2554(3) -0.2597(3)
O29C O 0.4312(2) 1.1521(5) -0.2703(10)
O30C O 0.4011(2) 1.0364(6) -0.5190(6)
O31C O 0.4242(2) 0.8914(5) -0.2272(7)
O32C O 0.3751(2) 1.0526(6) -0.1052(5)
O17C O 0.2361(1) 1.1014(3) -0.4148(3)
O18C O 0.2427(1) 0.9597(3) -0.6009(3)
O25_2 O 0.1565(1) 1.1265(3) -0.5136(3)
O26_2 O 0.1974(1) 1.1730(3) -0.6723(3)
C8C C 0.2740(1) 0.9903(4) -0.5223(4)
C7C C 0.2705(1) 1.0687(4) -0.4099(4)
O33 O 0.2043(2) 0.2841(8) 0.7469(7)
O34 O 0.1743(3) 0.6271(8) 0.7666(6)
O35 O 0.2442(3) 0.4941(19) 1.0495(13)
O36 O 0.0731(4) 0.3759(9) 0.6813(10)
O37 O 0.2164(4) 0.7316(11) 1.1123(10)
O38 O 0.0432(3) 0.7042(8) 0.5489(10)
O39 O 0.0367(5) 0.3652(16) 0.9729(16)
O40 O 0.2021(5) 0.3222(16) 0.0798(17)
O41 O 0.0000 0.7110(4) 0.0000
O42 O 0.2424(6) 0.1668(19) 0.1433(19)
O43 O 0.1310(8) -0.5470(3) 0.8860(3)
O44 O 0.0091(7) 0.3620(2) 0.3950(2)
O45 O 0.0000(6) 0.5690(2) 0.7020(2)
O46 O 0.0627(6) 0.6480(2) 0.9110(2)
loop_
_geom_bond_atom_site_label_1
_geom_bond_atom_site_label_2
_geom_bond_site_symmetry_1
_geom_bond_site_symmetry_2
La1 O3 1_555 1_555
Cr1 O1 1_555 1_555
O1 C1 1_555 1_555
O2 Cr1 1_555 1_555
C1 C2 1_555 1_555
C2 O2 1_555 1_555
O3 C1 1_555 1_555
O4 La1 1_555 1_555
O5 C3 1_555 1_555
O6 C4 1_555 1_555
C3 C4 1_555 1_555
C4 O8 1_555 1_555
O7 La1 1_555 1_555
O8 La1 1_555 1_555
O9 C5 1_555 1_555
O10 C6 1_555 1_555
C5 C6 1_555 1_555
C6 O12 1_555 1_555
O11 La1 1_555 1_555
O12 La1 1_555 1_555
O13 La1 1_555 1_555
O14 La1 1_555 1_555
O15 La1 1_555 1_555
O16 La1 1_555 1_555
La2 O19 1_555 1_555
Cr2 O17 1_555 1_555
O17 C7 1_555 1_555
O18 Cr2 1_555 1_555
C7 C8 1_555 1_555
C8 O18 1_555 1_555
O19 C7 1_555 1_555
O20 La2 1_555 1_555
O21 C9 1_555 1_555
O22 C10 1_555 1_555
C9 C10 1_555 1_555
C10 O24 1_555 1_555
O23 La2 1_555 1_555
O24 La2 1_555 1_555
O25 C11 1_555 1_555
O26 C12 1_555 1_555
C11 C12 1_555 1_555
C12 O28 1_555 1_555
O27 La2 1_555 1_555
O28 La2 1_555 1_555
O29 La2 1_555 1_555
O30 La2 1_555 1_555
O31 La2 1_555 1_555
O32 La2 1_555 1_555
Cr1_2 O5 1_555 1_555
Cr1A O9 1_555 1_555
O5_2 Cr1 1_555 1_555
O6_2 Cr1 1_555 1_555
C3_2 O5_2 1_555 1_555
C4_2 O6_2 1_555 1_555
O7_2 C3_2 1_555 1_555
O8_2 C4_2 1_555 1_555
O9A Cr1 1_555 1_555
O10A Cr1 1_555 1_555
C5A O9A 1_555 1_555
C6A O10A 1_555 1_555
O11A C5A 1_555 1_555
O12A C6A 1_555 1_555
O1A Cr1A 1_555 1_555
O2A Cr1A 1_555 1_555
C1A O1A 1_555 1_555
C2A O2A 1_555 1_555
O3A C1A 1_555 1_555
O4A C2A 1_555 1_555
O5A Cr1A 1_555 1_555
O6A Cr1A 1_555 1_555
La1A O11A 1_555 1_555
La1_2 O7_2 1_555 1_555
O7A La1A 1_555 1_555
O8A La1A 1_555 1_555
O13A La1A 1_555 1_555
O14A La1A 1_555 1_555
O15A La1A 1_555 1_555
O16A La1A 1_555 1_555
Cr2C O21 1_555 1_555
Cr2C_2 O25 1_555 1_555
O21C Cr2 1_555 1_555
O22C Cr2 1_555 1_555
C9C O21C 1_555 1_555
C10C O22C 1_555 1_555
O23C C9C 1_555 1_555
O24C C10C 1_555 1_555
O25C Cr2 1_555 1_555
O26C Cr2 1_555 1_555
C11C O25C 1_555 1_555
C12C O26C 1_555 1_555
O27C C11C 1_555 1_555
O28C C12C 1_555 1_555
La2C O23C 1_555 1_555
La2C_2 O27C 1_555 1_555
O19C La2C_2 1_555 1_555
O20C La2C_2 1_555 1_555
O23C_2 La2C_2 1_555 1_555
O24C_2 La2C_2 1_555 1_555
O29C La2C_2 1_555 1_555
O30C La2C_2 1_555 1_555
O31C La2C_2 1_555 1_555
O32C La2C_2 1_555 1_555
O17C Cr2C 1_555 1_555
O18C Cr2C 1_555 1_555
O25_2 Cr2C 1_555 1_555
O26_2 Cr2C 1_555 1_555
C8C O20C 1_555 1_555
C7C O19C 1_555 1_555
C2 O4 1_555 1_555
O6 Cr1_2 1_555 1_555
C3 O7 1_555 1_555
O10 Cr1A 1_555 1_555
C5 O11 1_555 1_555
C8 O20 1_555 1_555
O22 Cr2C 1_555 1_555
C9 O23 1_555 1_555
O26 Cr2C_2 1_555 1_555
C11 O27 1_555 1_555
C3_2 C4_2 1_555 1_555
O8_2 La1_2 1_555 1_555
C5A C6A 1_555 1_555
O12A La1A 1_555 1_555
C1A C2A 1_555 1_555
O3A La1A 1_555 1_555
O4A La1A 1_555 1_555
C9C C10C 1_555 1_555
O24C La2C 1_555 1_555
C11C C12C 1_555 1_555
O28C La2C_2 1_555 1_555
O17C C7C 1_555 1_555
O18C C8C 1_555 1_555
C8C C7C 1_555 1_555

#END
