
#######################################################################
#
#                 Cambridge Crystallographic Data Centre
#                                CCDC 
#
#######################################################################
#
# If this CIF has been generated from an entry in the Cambridge 
# Structural Database, then it will include bibliographic, chemical, 
# crystal, experimental, refinement or atomic coordinate data resulting 
# from the CCDC's data processing and validation procedures.
#
#######################################################################

data_SAJGIU
_symmetry_cell_setting           orthorhombic
_symmetry_space_group_name_H-M   'P b c a'
_symmetry_Int_Tables_number      61
_space_group_name_Hall           '-P 2ac 2ab'
loop_
_symmetry_equiv_pos_site_id
_symmetry_equiv_pos_as_xyz
1 x,y,z
2 1/2+x,y,1/2-z
3 x,1/2-y,1/2+z
4 1/2-x,1/2+y,z
5 -x,-y,-z
6 1/2-x,-y,1/2+z
7 -x,1/2+y,1/2-z
8 1/2+x,1/2-y,-z
_cell_length_a                   7.9264(16)
_cell_length_b                   8.4573(17)
_cell_length_c                   26.754(5)
_cell_angle_alpha                90
_cell_angle_beta                 90
_cell_angle_gamma                90
_cell_volume                     1793.48
loop_
_atom_site_label
_atom_site_type_symbol
_atom_site_fract_x
_atom_site_fract_y
_atom_site_fract_z
Pb1 Pb 0.02063(6) 0.04475(5) 0.322155(17)
N1 N 0.2112(14) 0.0432(12) 0.4002(4)
N2 N -0.2623(13) -0.2148(14) 0.3683(5)
N3 N 0.3561(13) -0.1327(12) 0.2796(4)
O1 O -0.1680(14) -0.1164(14) 0.3874(5)
O2 O -0.3883(13) -0.2651(11) 0.3880(5)
O3 O -0.222(2) -0.269(3) 0.3278(6)
O4 O 0.2814(14) -0.1965(11) 0.3157(3)
O5 O 0.4775(12) -0.1960(13) 0.2610(5)
O6 O 0.3064(15) 0.0011(12) 0.2654(4)
C1 C 0.161(2) -0.011(3) 0.4426(6)
H1 H 0.0484 -0.0386 0.4465
C2 C 0.270(3) -0.031(2) 0.4827(8)
H2 H 0.2286 -0.0708 0.5127
C3 C 0.4382(17) 0.0064(17) 0.4790(4)
C4 C 0.4882(18) 0.068(2) 0.4336(8)
H3 H 0.5989 0.1013 0.4289
C5 C 0.372(2) 0.0799(19) 0.3951(6)
H4 H 0.4088 0.1155 0.3641
C3D C 0.5618(17) -0.0064(17) 0.5210(4)
C2D C 0.730(3) 0.031(2) 0.5173(8)
C1D C 0.839(2) 0.011(3) 0.5574(6)
N1D N 0.7888(14) -0.0432(12) 0.5998(4)
C5D C 0.628(2) -0.0799(19) 0.6049(6)
C4D C 0.5118(18) -0.068(2) 0.5664(8)
H3D H 0.4011 -0.1013 0.5711
H4D H 0.5912 -0.1155 0.6359
H1D H 0.9516 0.0386 0.5535
H2D H 0.7714 0.0708 0.4873
N2C N -0.2377(13) 0.2852(14) 0.3683(5)
O1C O -0.3320(14) 0.3836(14) 0.3874(5)
O2C O -0.1117(13) 0.2349(11) 0.3880(5)
O3C O -0.278(2) 0.231(3) 0.3278(6)
N3C N 0.1439(13) 0.3673(12) 0.2796(4)
O4C O 0.2186(14) 0.3035(11) 0.3157(3)
O5C O 0.0225(12) 0.3040(13) 0.2610(5)
O6C O 0.1936(15) 0.5011(12) 0.2654(4)
Pb1D Pb 0.97937(6) -0.04475(5) 0.677845(17)
O5A O -0.0225(12) -0.1960(13) 0.2390(5)
O6A O -0.1936(15) 0.0011(12) 0.2346(4)
Pb1C Pb -0.52063(6) -0.45525(5) 0.322155(17)
Pb1C_2 Pb 0.47937(6) -0.45525(5) 0.322155(17)
Pb1A Pb 0.52063(6) 0.04475(5) 0.177845(17)
Pb1C_3 Pb -0.52063(6) 0.54475(5) 0.322155(17)
Pb1C_4 Pb 0.47937(6) 0.54475(5) 0.322155(17)
Pb1F Pb -0.02063(6) 0.54475(5) 0.177845(17)
O1D O 1.1680(14) 0.1164(14) 0.6126(5)
O2G O 1.1117(13) -0.2349(11) 0.6120(5)
O3G O 1.278(2) -0.231(3) 0.6722(6)
O4D O 0.7186(14) 0.1965(11) 0.6843(3)
O4G O 0.7814(14) -0.3035(11) 0.6843(3)
O5E O 1.0225(12) 0.1960(13) 0.7610(5)
O5G O 0.9775(12) -0.3040(13) 0.7390(5)
O6D O 0.6936(15) -0.0011(12) 0.7346(4)
O6E O 1.1936(15) -0.0011(12) 0.7654(4)
loop_
_geom_bond_atom_site_label_1
_geom_bond_atom_site_label_2
_geom_bond_site_symmetry_1
_geom_bond_site_symmetry_2
Pb1 N1 1_555 1_555
N1 C1 1_555 1_555
N2 O1 1_555 1_555
N3 O4 1_555 1_555
O1 Pb1 1_555 1_555
O2 N2 1_555 1_555
O3 N2 1_555 1_555
O4 Pb1 1_555 1_555
O5 N3 1_555 1_555
O6 Pb1 1_555 1_555
C1 H1 1_555 1_555
C2 C1 1_555 1_555
H2 C2 1_555 1_555
C3 C2 1_555 1_555
C4 C3 1_555 1_555
H3 C4 1_555 1_555
C5 N1 1_555 1_555
H4 C5 1_555 1_555
C3D C3 1_555 1_555
C2D C3D 1_555 1_555
C1D C2D 1_555 1_555
N1D C1D 1_555 1_555
C5D N1D 1_555 1_555
C4D C3D 1_555 1_555
H3D C4D 1_555 1_555
H4D C5D 1_555 1_555
H1D C1D 1_555 1_555
H2D C2D 1_555 1_555
N2C O1C 1_555 1_555
O1C Pb1C_3 1_555 1_555
O2C Pb1 1_555 1_555
O3C Pb1 1_555 1_555
N3C O4C 1_555 1_555
O4C Pb1 1_555 1_555
O5C Pb1 1_555 1_555
O6C N3C 1_555 1_555
Pb1D N1D 1_555 1_555
O5A Pb1 1_555 1_555
O6A Pb1 1_555 1_555
Pb1C O2 1_555 1_555
Pb1C_2 O4 1_555 1_555
Pb1A O5 1_555 1_555
Pb1C_4 O4C 1_555 1_555
Pb1F O5C 1_555 1_555
O1D Pb1D 1_555 1_555
O2G Pb1D 1_555 1_555
O3G Pb1D 1_555 1_555
O4D Pb1D 1_555 1_555
O4G Pb1D 1_555 1_555
O5E Pb1D 1_555 1_555
O5G Pb1D 1_555 1_555
O6D Pb1D 1_555 1_555
O6E Pb1D 1_555 1_555
N3 O6 1_555 1_555
O3 Pb1C 1_555 1_555
O5 Pb1C_2 1_555 1_555
O6 Pb1A 1_555 1_555
C4 C5 1_555 1_555
C5D C4D 1_555 1_555
N2C O2C 1_555 1_555
N2C O3C 1_555 1_555
N3C O5C 1_555 1_555
O6C Pb1C_4 1_555 1_555
O6C Pb1F 1_555 1_555

#END
