
#######################################################################
#
#                 Cambridge Crystallographic Data Centre
#                                CCDC 
#
#######################################################################
#
# If this CIF has been generated from an entry in the Cambridge 
# Structural Database, then it will include bibliographic, chemical, 
# crystal, experimental, refinement or atomic coordinate data resulting 
# from the CCDC's data processing and validation procedures.
#
#######################################################################

data_SAJKOD
_symmetry_cell_setting           monoclinic
_symmetry_space_group_name_H-M   'P 21/n'
_symmetry_Int_Tables_number      14
_space_group_name_Hall           '-P 2yn'
loop_
_symmetry_equiv_pos_site_id
_symmetry_equiv_pos_as_xyz
1 x,y,z
2 1/2-x,1/2+y,1/2-z
3 -x,-y,-z
4 1/2+x,1/2-y,1/2+z
_cell_length_a                   18.264(7)
_cell_length_b                   16.223(7)
_cell_length_c                   10.623(5)
_cell_angle_alpha                90
_cell_angle_beta                 92.77(5)
_cell_angle_gamma                90
_cell_volume                     3143.88
loop_
_atom_site_label
_atom_site_type_symbol
_atom_site_fract_x
_atom_site_fract_y
_atom_site_fract_z
Hg1 Hg -0.27383(3) 0.29228(4) 0.53313(6)
Co1 Co -0.25589(10) 0.43232(12) 0.02890(20)
S1 S -0.3720(2) 0.3837(3) 0.4240(4)
S2 S -0.2862(2) 0.7141(3) 0.1428(4)
S3 S -0.1725(2) 0.3925(3) -0.3936(4)
S4 S -0.3211(3) 0.2013(4) 0.6950(6)
C1 C -0.3236(7) 0.4067(9) 0.3004(15)
C2 C -0.2858(7) 0.6239(8) 0.0752(14)
C3 C -0.2027(7) 0.4154(9) -0.2580(14)
C4 C -0.4077(11) 0.2332(12) 0.6825(19)
N1 N -0.2903(6) 0.4216(8) 0.2176(13)
N2 N -0.2870(6) 0.5585(7) 0.0344(13)
N3 N -0.2233(6) 0.4328(7) -0.1610(11)
N4 N -0.4679(9) 0.2506(14) 0.6788(21)
O1 O -0.2178(5) 0.3126(6) 0.0366(11)
C5 C -0.2416(8) 0.2416(9) 0.0337(14)
C6 C -0.3209(9) 0.2175(10) 0.0560(17)
C7 C -0.3199(11) 0.1235(10) 0.0621(19)
C8 C -0.2474(10) 0.0976(10) 0.0118(22)
N5 N -0.2053(7) 0.1730(8) 0.0129(14)
C9 C -0.1234(9) 0.1751(12) -0.0168(22)
C10 C -0.1172(11) 0.1838(16) -0.1537(24)
O2 O -0.3645(5) 0.3993(6) -0.0199(10)
C11 C -0.4118(7) 0.4177(9) -0.1043(16)
C12 C -0.4010(8) 0.4543(10) -0.2312(15)
C13 C -0.4786(8) 0.4668(13) -0.2894(18)
C14 C -0.5311(8) 0.4256(13) -0.1958(17)
N6 N -0.4830(6) 0.4055(8) -0.0862(13)
C15 C -0.5119(8) 0.3695(10) 0.0303(18)
C16 C -0.5234(10) 0.2773(12) 0.0122(21)
O3 O -0.1520(5) 0.4767(6) 0.0815(10)
C17 C -0.1041(7) 0.4650(10) 0.1685(14)
C18 C -0.1001(9) 0.3980(10) 0.2609(16)
C19 C -0.0357(9) 0.4230(11) 0.3480(17)
C20 C 0.0046(10) 0.4926(13) 0.2836(18)
N7 N -0.0469(7) 0.5151(8) 0.1789(13)
C21 C -0.0310(11) 0.5867(11) 0.0961(19)
C22 C -0.0455(15) 0.6613(14) 0.1550(24)
S2A S -0.2138(2) 0.2141(3) 0.3572(4)
S3_2 S -0.1725(2) 0.3925(3) 0.6064(4)
Hg1A Hg -0.22617(3) 0.79228(4) -0.03313(6)
Hg1_2 Hg -0.27383(3) 0.29228(4) -0.46687(6)
loop_
_geom_bond_atom_site_label_1
_geom_bond_atom_site_label_2
_geom_bond_site_symmetry_1
_geom_bond_site_symmetry_2
Hg1 S1 1_555 1_555
Co1 N1 1_555 1_555
S1 C1 1_555 1_555
S2 C2 1_555 1_555
S3 C3 1_555 1_555
S4 Hg1 1_555 1_555
C1 N1 1_555 1_555
C2 N2 1_555 1_555
C3 N3 1_555 1_555
C4 S4 1_555 1_555
N2 Co1 1_555 1_555
N3 Co1 1_555 1_555
N4 C4 1_555 1_555
O1 Co1 1_555 1_555
C5 O1 1_555 1_555
C6 C5 1_555 1_555
C7 C6 1_555 1_555
C8 C7 1_555 1_555
N5 C5 1_555 1_555
C9 N5 1_555 1_555
C10 C9 1_555 1_555
O2 Co1 1_555 1_555
C11 O2 1_555 1_555
C12 C11 1_555 1_555
C13 C12 1_555 1_555
C14 C13 1_555 1_555
N6 C11 1_555 1_555
C15 N6 1_555 1_555
C16 C15 1_555 1_555
O3 Co1 1_555 1_555
C17 O3 1_555 1_555
C18 C17 1_555 1_555
C19 C18 1_555 1_555
C20 C19 1_555 1_555
N7 C17 1_555 1_555
C21 N7 1_555 1_555
C22 C21 1_555 1_555
S2A Hg1 1_555 1_555
S3_2 Hg1 1_555 1_555
Hg1A S2 1_555 1_555
Hg1_2 S3 1_555 1_555
C8 N5 1_555 1_555
C14 N6 1_555 1_555
C20 N7 1_555 1_555

#END
