
#######################################################################
#
#                 Cambridge Crystallographic Data Centre
#                                CCDC 
#
#######################################################################
#
# If this CIF has been generated from an entry in the Cambridge 
# Structural Database, then it will include bibliographic, chemical, 
# crystal, experimental, refinement or atomic coordinate data resulting 
# from the CCDC's data processing and validation procedures.
#
#######################################################################

data_SAJSAY
_symmetry_cell_setting           monoclinic
_symmetry_space_group_name_H-M   'P 21/a'
_symmetry_Int_Tables_number      14
_space_group_name_Hall           '-P 2yab'
loop_
_symmetry_equiv_pos_site_id
_symmetry_equiv_pos_as_xyz
1 x,y,z
2 1/2+x,1/2-y,z
3 -x,-y,-z
4 1/2-x,1/2+y,-z
_cell_length_a                   10.2784(2)
_cell_length_b                   9.0649(2)
_cell_length_c                   11.0712(2)
_cell_angle_alpha                90
_cell_angle_beta                 107.2800(10)
_cell_angle_gamma                90
_cell_volume                     984.975
loop_
_atom_site_label
_atom_site_type_symbol
_atom_site_fract_x
_atom_site_fract_y
_atom_site_fract_z
Mn1 Mn 0.35530(3) 0.09773(3) -0.15657(2)
P1 P 0.17962(5) 0.30787(5) -0.00567(4)
N1 N 0.16181(16) 0.15043(18) 0.20866(14)
H1 H 0.144(2) 0.245(3) 0.236(2)
O1 O 0.29350(14) 0.25894(15) -0.05641(13)
O2 O 0.05673(15) 0.35844(19) -0.11021(15)
O3 O 0.23056(16) 0.41886(15) 0.09966(14)
O4 O 0.37176(14) -0.07022(16) 0.67256(12)
O5 O 0.26297(19) 0.14138(18) 0.64861(14)
C1 C 0.1192(2) 0.1509(2) 0.06662(17)
H2 H 0.148(2) 0.068(3) 0.042(2)
H3 H 0.024(2) 0.155(3) 0.041(2)
C2 C 0.31140(19) 0.1210(2) 0.26616(18)
H4 H 0.328(2) 0.022(3) 0.236(2)
H5 H 0.360(2) 0.198(2) 0.233(2)
C3 C 0.3472(2) 0.1277(2) 0.40945(18)
H6 H 0.442(3) 0.112(2) 0.446(2)
H7 H 0.329(2) 0.227(3) 0.436(2)
C4 C 0.2661(2) 0.0140(2) 0.46022(17)
H8 H 0.291(2) -0.084(2) 0.438(2)
C5 C 0.1142(2) 0.0403(2) 0.39727(18)
H9 H 0.096(2) 0.142(2) 0.4281(19)
H10 H 0.062(3) -0.034(3) 0.422(2)
C6 C 0.0790(2) 0.0381(2) 0.25392(18)
H11 H -0.011(2) 0.062(2) 0.2138(19)
H12 H 0.101(2) -0.060(3) 0.225(2)
C7 C 0.3023(2) 0.0278(2) 0.60320(18)
O2A O 0.55673(15) 0.14156(19) -0.11021(15)
O3C O 0.26944(16) -0.08114(15) -0.09966(14)
O4_2 O 0.37176(14) -0.07022(16) -0.32744(12)
O5_2 O 0.26297(19) 0.14138(18) -0.35139(14)
Mn1A Mn -0.14470(3) 0.40227(3) -0.15657(2)
Mn1C Mn 0.14470(3) 0.59773(3) 0.15657(2)
Mn1_2 Mn 0.35530(3) 0.09773(3) 0.84343(2)
loop_
_geom_bond_atom_site_label_1
_geom_bond_atom_site_label_2
_geom_bond_site_symmetry_1
_geom_bond_site_symmetry_2
Mn1 O1 1_555 1_555
P1 O1 1_555 1_555
N1 H1 1_555 1_555
O2 P1 1_555 1_555
O3 P1 1_555 1_555
O4 C7 1_555 1_555
O5 C7 1_555 1_555
C1 P1 1_555 1_555
H2 C1 1_555 1_555
H3 C1 1_555 1_555
C2 N1 1_555 1_555
H4 C2 1_555 1_555
H5 C2 1_555 1_555
C3 C2 1_555 1_555
H6 C3 1_555 1_555
H7 C3 1_555 1_555
C4 C3 1_555 1_555
H8 C4 1_555 1_555
C5 C4 1_555 1_555
H9 C5 1_555 1_555
H10 C5 1_555 1_555
C6 N1 1_555 1_555
H11 C6 1_555 1_555
H12 C6 1_555 1_555
C7 C4 1_555 1_555
O2A Mn1 1_555 1_555
O3C Mn1 1_555 1_555
O4_2 Mn1 1_555 1_555
O5_2 Mn1 1_555 1_555
Mn1A O2 1_555 1_555
Mn1C O3 1_555 1_555
Mn1_2 O4 1_555 1_555
N1 C1 1_555 1_555
O5 Mn1_2 1_555 1_555
C5 C6 1_555 1_555

#END
