
#######################################################################
#
#                 Cambridge Crystallographic Data Centre
#                                CCDC 
#
#######################################################################
#
# If this CIF has been generated from an entry in the Cambridge 
# Structural Database, then it will include bibliographic, chemical, 
# crystal, experimental, refinement or atomic coordinate data resulting 
# from the CCDC's data processing and validation procedures.
#
#######################################################################

data_SAJTOM
_symmetry_cell_setting           orthorhombic
_symmetry_space_group_name_H-M   'P c a b'
_symmetry_Int_Tables_number      61
_space_group_name_Hall           '-P 2bc 2ac'
loop_
_symmetry_equiv_pos_site_id
_symmetry_equiv_pos_as_xyz
1 x,y,z
2 -x,1/2-y,1/2+z
3 1/2+x,-y,1/2-z
4 1/2-x,1/2+y,-z
5 -x,-y,-z
6 x,1/2+y,1/2-z
7 1/2-x,y,1/2+z
8 1/2+x,1/2-y,z
_cell_length_a                   8.511(7)
_cell_length_b                   22.305(10)
_cell_length_c                   29.431(13)
_cell_angle_alpha                90
_cell_angle_beta                 90
_cell_angle_gamma                90
_cell_volume                     5587.12
loop_
_atom_site_label
_atom_site_type_symbol
_atom_site_fract_x
_atom_site_fract_y
_atom_site_fract_z
Li1 Li 0.235(1) 0.4223(4) -0.2450(3)
N1 N -0.0445(7) 0.4835(2) -0.2378(2)
O1 O 0.0489(5) 0.4546(2) -0.2134(1)
O2 O 0.3568(5) 0.4831(2) -0.2797(2)
O3 O -0.0341(7) 0.4785(2) -0.2786(2)
N2 N 0.2079(7) 0.3571(2) -0.2976(2)
C1 C 0.1121(9) 0.3095(3) -0.2945(3)
C2 C 0.0255(10) 0.3017(4) -0.2522(3)
C3 C 0.0960(11) 0.2704(4) -0.3311(4)
C4 C 0.174(1) 0.2796(5) -0.3707(4)
C5 C 0.272(1) 0.3284(4) -0.3735(3)
C6 C 0.2843(9) 0.3661(3) -0.3365(3)
N3 N 0.3381(7) 0.3754(2) -0.1906(2)
C7 C 0.4807(10) 0.3516(3) -0.1903(2)
C8 C 0.5840(9) 0.3672(4) -0.2285(3)
C9 C 0.5297(10) 0.3133(3) -0.1552(3)
C10 C 0.430(1) 0.3009(4) -0.1199(3)
C11 C 0.285(1) 0.3265(4) -0.1195(3)
C12 C 0.2443(9) 0.3630(3) -0.1550(3)
H1 H -0.084 0.300 -0.256
H2 H 0.057 0.262 -0.239
H3 H 0.035 0.327 -0.224
H4 H 0.025 0.234 -0.327
H5 H 0.161 0.252 -0.396
H6 H 0.331 0.334 -0.402
H7 H 0.354 0.402 -0.340
H8 H 0.680 0.386 -0.215
H9 H 0.620 0.332 -0.243
H10 H 0.559 0.395 -0.253
H11 H 0.637 0.296 -0.158
H12 H 0.464 0.276 -0.095
H13 H 0.210 0.316 -0.095
H14 H 0.141 0.383 -0.153
O2B O -0.1432(5) 0.5169(2) -0.2203(2)
N1B N 0.4555(7) 0.5165(2) -0.2622(2)
Li1B Li -0.265(1) 0.5777(4) -0.2550(3)
O1B O 0.5489(5) 0.5454(2) -0.2866(1)
O3B O 0.4659(7) 0.5215(2) -0.2214(2)
O1B_2 O -0.4511(5) 0.5454(2) -0.2866(1)
N2B N -0.2921(7) 0.6429(2) -0.2024(2)
N3B N -0.1619(7) 0.6246(2) -0.3094(2)
Li1B_2 Li 0.735(1) 0.5777(4) -0.2550(3)
C1B C -0.3879(9) 0.6905(3) -0.2055(3)
C6B C -0.2157(9) 0.6339(3) -0.1635(3)
C7B C -0.0193(10) 0.6484(3) -0.3097(2)
C12B C -0.2557(9) 0.6370(3) -0.3450(3)
C2B C -0.4745(10) 0.6983(4) -0.2478(3)
C3B C -0.4040(11) 0.7296(4) -0.1689(4)
C5B C -0.228(1) 0.6716(4) -0.1265(3)
H7B H -0.146 0.598 -0.160
C8B C 0.0840(9) 0.6328(4) -0.2715(3)
C9B C 0.0297(10) 0.6867(3) -0.3448(3)
C11B C -0.215(1) 0.6735(4) -0.3805(3)
H14B H -0.359 0.617 -0.347
H1B H -0.584 0.700 -0.244
H2B H -0.443 0.738 -0.261
H3B H -0.465 0.673 -0.276
C4B C -0.326(1) 0.7204(5) -0.1293(4)
H4B H -0.475 0.766 -0.173
H6B H -0.169 0.666 -0.098
H8B H 0.180 0.614 -0.285
H9B H 0.120 0.668 -0.257
H10B H 0.059 0.605 -0.247
C10B C -0.070(1) 0.6991(4) -0.3801(3)
H11B H 0.137 0.704 -0.342
H13B H -0.290 0.684 -0.405
H5B H -0.339 0.748 -0.104
H12B H -0.036 0.724 -0.405
Li2 Li 0.706(1) -0.1715(4) 0.0(3)
N4 N 0.4257(7) -0.2316(3) 0.0039(2)
O4 O 0.4939(5) -0.1912(2) 0.0244(2)
O5 O 0.8117(6) -0.2448(3) 0.0220(2)
O6 O 0.4691(8) -0.2472(3) -0.0328(2)
N5 N 0.7028(7) -0.1230(2) -0.0612(2)
C13 C 0.6025(9) -0.0785(3) -0.0702(2)
C14 C 0.478(1) -0.0660(4) -0.0364(3)
C15 C 0.611(1) -0.0461(3) -0.1107(3)
C16 C 0.721(1) -0.0592(4) -0.1416(3)
C17 C 0.8262(9) -0.1035(3) -0.1326(2)
C18 C 0.8133(8) -0.1344(3) -0.0923(2)
N6 N 0.7900(7) -0.1095(2) 0.0493(2)
C19 C 0.9283(10) -0.0811(3) 0.0501(2)
C20 C 1.0383(9) -0.0933(4) 0.0122(2)
C21 C 0.9700(10) -0.0415(3) 0.0851(3)
C22 C 0.869(1) -0.0333(3) 0.1202(3)
C23 C 0.730(1) -0.0630(4) 0.1210(3)
C24 C 0.6957(8) -0.1000(3) 0.0847(3)
H15 H 0.414 -0.102 -0.033
H16 H 0.524 -0.057 -0.008
H17 H 0.400 -0.035 -0.042
H18 H 0.534 -0.015 -0.118
H19 H 0.727 -0.034 -0.169
H20 H 0.911 -0.114 -0.155
H21 H 0.893 -0.167 -0.086
H22 H 1.061 -0.136 0.011
H23 H 0.989 -0.083 -0.016
H24 H 1.140 -0.075 0.012
H25 H 1.074 -0.020 0.084
H26 H 0.894 -0.006 0.145
H27 H 0.654 -0.056 0.147
H28 H 0.591 -0.122 0.085
O5G O 0.3117(6) -0.2552(3) 0.0220(2)
N4G N 0.9257(7) -0.2684(3) 0.0039(2)
Li2G Li 0.206(1) -0.3285(4) 0.0(3)
O4G O 0.9939(5) -0.3088(2) 0.0244(2)
O6G O 0.9691(8) -0.2528(3) -0.0328(2)
O4G_2 O -0.0061(5) -0.3088(2) 0.0244(2)
N5G N 0.2028(7) -0.3770(2) -0.0612(2)
N6G N 0.2900(7) -0.3905(2) 0.0493(2)
Li2G_2 Li 1.206(1) -0.3285(4) 0.0(3)
C13G C 0.1025(9) -0.4215(3) -0.0702(2)
C18G C 0.3133(8) -0.3656(3) -0.0923(2)
C19G C 0.4283(10) -0.4189(3) 0.0501(2)
C24G C 0.1957(8) -0.4000(3) 0.0847(3)
C14G C -0.022(1) -0.4340(4) -0.0364(3)
C15G C 0.111(1) -0.4539(3) -0.1107(3)
C17G C 0.3262(9) -0.3965(3) -0.1326(2)
H21G H 0.393 -0.333 -0.086
C20G C 0.5383(9) -0.4067(4) 0.0122(2)
C21G C 0.4700(10) -0.4585(3) 0.0851(3)
C23G C 0.230(1) -0.4370(4) 0.1210(3)
H28G H 0.091 -0.378 0.085
H15G H -0.086 -0.398 -0.033
H16G H 0.024 -0.443 -0.008
H17G H -0.100 -0.465 -0.042
C16G C 0.221(1) -0.4408(4) -0.1416(3)
H18G H 0.034 -0.485 -0.118
H20G H 0.411 -0.386 -0.155
H22G H 0.561 -0.364 0.011
H23G H 0.489 -0.417 -0.016
H24G H 0.640 -0.425 0.012
C22G C 0.369(1) -0.4667(3) 0.1202(3)
H25G H 0.574 -0.480 0.084
H27G H 0.154 -0.444 0.147
H19G H 0.227 -0.466 -0.169
H26G H 0.394 -0.494 0.145
loop_
_geom_bond_atom_site_label_1
_geom_bond_atom_site_label_2
_geom_bond_site_symmetry_1
_geom_bond_site_symmetry_2
Li1 O1 1_555 1_555
N1 O1 1_555 1_555
O2 Li1 1_555 1_555
O3 N1 1_555 1_555
N2 Li1 1_555 1_555
C1 N2 1_555 1_555
C2 C1 1_555 1_555
C3 C1 1_555 1_555
C4 C3 1_555 1_555
C5 C4 1_555 1_555
C6 N2 1_555 1_555
N3 Li1 1_555 1_555
C7 N3 1_555 1_555
C8 C7 1_555 1_555
C9 C7 1_555 1_555
C10 C9 1_555 1_555
C11 C10 1_555 1_555
C12 N3 1_555 1_555
H1 C2 1_555 1_555
H2 C2 1_555 1_555
H3 C2 1_555 1_555
H4 C3 1_555 1_555
H5 C4 1_555 1_555
H6 C5 1_555 1_555
H7 C6 1_555 1_555
H8 C8 1_555 1_555
H9 C8 1_555 1_555
H10 C8 1_555 1_555
H11 C9 1_555 1_555
H12 C10 1_555 1_555
H13 C11 1_555 1_555
H14 C12 1_555 1_555
Li2 O4 1_555 1_555
N4 O4 1_555 1_555
O5 Li2 1_555 1_555
O6 N4 1_555 1_555
N5 Li2 1_555 1_555
C13 N5 1_555 1_555
C14 C13 1_555 1_555
C15 C13 1_555 1_555
C16 C15 1_555 1_555
C17 C16 1_555 1_555
C18 N5 1_555 1_555
N6 Li2 1_555 1_555
C19 N6 1_555 1_555
C20 C19 1_555 1_555
C21 C19 1_555 1_555
C22 C21 1_555 1_555
C23 C22 1_555 1_555
C24 N6 1_555 1_555
H15 C14 1_555 1_555
H16 C14 1_555 1_555
H17 C14 1_555 1_555
H18 C15 1_555 1_555
H19 C16 1_555 1_555
H20 C17 1_555 1_555
H21 C18 1_555 1_555
H22 C20 1_555 1_555
H23 C20 1_555 1_555
H24 C20 1_555 1_555
H25 C21 1_555 1_555
H26 C22 1_555 1_555
H27 C23 1_555 1_555
H28 C24 1_555 1_555
O2B N1 1_555 1_555
N1B O2 1_555 1_555
Li1B O2B 1_555 1_555
O1B N1B 1_555 1_555
O3B N1B 1_555 1_555
O1B_2 Li1B 1_555 1_555
N2B Li1B 1_555 1_555
N3B Li1B 1_555 1_555
Li1B_2 O1B 1_555 1_555
C1B N2B 1_555 1_555
C6B N2B 1_555 1_555
C7B N3B 1_555 1_555
C12B N3B 1_555 1_555
C2B C1B 1_555 1_555
C3B C1B 1_555 1_555
C5B C6B 1_555 1_555
H7B C6B 1_555 1_555
C8B C7B 1_555 1_555
C9B C7B 1_555 1_555
C11B C12B 1_555 1_555
H14B C12B 1_555 1_555
H1B C2B 1_555 1_555
H2B C2B 1_555 1_555
H3B C2B 1_555 1_555
C4B C3B 1_555 1_555
H4B C3B 1_555 1_555
H6B C5B 1_555 1_555
H8B C8B 1_555 1_555
H9B C8B 1_555 1_555
H10B C8B 1_555 1_555
C10B C9B 1_555 1_555
H11B C9B 1_555 1_555
H13B C11B 1_555 1_555
H5B C4B 1_555 1_555
H12B C10B 1_555 1_555
O5G N4 1_555 1_555
N4G O5 1_555 1_555
Li2G O5G 1_555 1_555
O4G N4G 1_555 1_555
O6G N4G 1_555 1_555
O4G_2 Li2G 1_555 1_555
N5G Li2G 1_555 1_555
N6G Li2G 1_555 1_555
Li2G_2 O4G 1_555 1_555
C13G N5G 1_555 1_555
C18G N5G 1_555 1_555
C19G N6G 1_555 1_555
C24G N6G 1_555 1_555
C14G C13G 1_555 1_555
C15G C13G 1_555 1_555
C17G C18G 1_555 1_555
H21G C18G 1_555 1_555
C20G C19G 1_555 1_555
C21G C19G 1_555 1_555
C23G C24G 1_555 1_555
H28G C24G 1_555 1_555
H15G C14G 1_555 1_555
H16G C14G 1_555 1_555
H17G C14G 1_555 1_555
C16G C15G 1_555 1_555
H18G C15G 1_555 1_555
H20G C17G 1_555 1_555
H22G C20G 1_555 1_555
H23G C20G 1_555 1_555
H24G C20G 1_555 1_555
C22G C21G 1_555 1_555
H25G C21G 1_555 1_555
H27G C23G 1_555 1_555
H19G C16G 1_555 1_555
H26G C22G 1_555 1_555
C5 C6 1_555 1_555
C11 C12 1_555 1_555
C17 C18 1_555 1_555
C23 C24 1_555 1_555
C5B C4B 1_555 1_555
C11B C10B 1_555 1_555
C17G C16G 1_555 1_555
C23G C22G 1_555 1_555

#END
