
#######################################################################
#
#                 Cambridge Crystallographic Data Centre
#                                CCDC 
#
#######################################################################
#
# If this CIF has been generated from an entry in the Cambridge 
# Structural Database, then it will include bibliographic, chemical, 
# crystal, experimental, refinement or atomic coordinate data resulting 
# from the CCDC's data processing and validation procedures.
#
#######################################################################

data_SAKBOW
_symmetry_cell_setting           monoclinic
_symmetry_space_group_name_H-M   'P 21/c'
_symmetry_Int_Tables_number      14
_space_group_name_Hall           '-P 2ybc'
loop_
_symmetry_equiv_pos_site_id
_symmetry_equiv_pos_as_xyz
1 x,y,z
2 x,1/2-y,1/2+z
3 -x,-y,-z
4 -x,1/2+y,1/2-z
_cell_length_a                   9.9851(6)
_cell_length_b                   23.4212(19)
_cell_length_c                   19.0934(15)
_cell_angle_alpha                90
_cell_angle_beta                 91.270(6)
_cell_angle_gamma                90
_cell_volume                     4464.14
loop_
_atom_site_label
_atom_site_type_symbol
_atom_site_fract_x
_atom_site_fract_y
_atom_site_fract_z
Au1 Au 0.00725(4) 0.418314(14) 0.20765(2)
Au2 Au 0.98744(4) 0.280912(14) 0.21380(2)
N1 N 0.4951(7) 0.3635(3) -0.0240(4)
P1 P -0.1679(2) 0.45483(10) 0.26671(11)
P2 P 1.1422(2) 0.25563(10) 0.29697(12)
C1 C 0.6176(8) 0.3408(3) 0.0840(4)
C2 C 0.6059(9) 0.3480(4) 0.0103(4)
H1 H 0.6834 0.3411 -0.0164
C3 C 0.3872(9) 0.3713(3) 0.0142(5)
H2 H 0.3055 0.3807 -0.0094
C4 C 0.3865(8) 0.3665(3) 0.0867(4)
C5 C 0.5027(8) 0.3514(3) 0.1215(4)
H3 H 0.5047 0.3483 0.1711
C6 C 0.7411(9) 0.3210(3) 0.1183(4)
C7 C 0.8360(8) 0.3034(3) 0.1497(4)
C8 C 0.2641(9) 0.3783(4) 0.1233(5)
C9 C 0.1690(9) 0.3925(4) 0.1554(4)
C10 C 1.1961(8) 0.3180(3) 0.3470(4)
C11 C 1.3280(10) 0.3335(4) 0.3547(4)
H4 H 1.3954 0.3100 0.3354
C12 C 1.3643(11) 0.3828(4) 0.3899(5)
H5 H 1.4563 0.3928 0.3945
C13 C 1.2708(10) 0.4169(4) 0.4179(5)
C14 C 1.1391(11) 0.4021(4) 0.4104(5)
H6 H 1.0721 0.4259 0.4296
C15 C 1.1027(9) 0.3533(4) 0.3754(4)
H7 H 1.0105 0.3437 0.3706
C16 C 1.3130(12) 0.4709(4) 0.4572(5)
H8 H 1.2332 0.4906 0.4738
H9 H 1.3617 0.4961 0.4257
H10 H 1.3710 0.4606 0.4973
C17 C 1.0773(8) 0.2050(3) 0.3599(4)
C18 C 1.0761(8) 0.2153(3) 0.4314(5)
H11 H 1.1070 0.2509 0.4492
C19 C 1.0299(8) 0.1739(4) 0.4773(4)
H12 H 1.0279 0.1824 0.5258
C20 C 0.9874(8) 0.1213(4) 0.4549(5)
C21 C 0.9922(10) 0.1116(4) 0.3841(6)
H13 H 0.9671 0.0750 0.3668
C22 C 1.0324(9) 0.1530(5) 0.3365(4)
H14 H 1.0285 0.1452 0.2877
C23 C 0.9459(9) 0.0770(4) 0.5053(5)
H15 H 0.9194 0.0424 0.4798
H16 H 0.8699 0.0911 0.5320
H17 H 1.0208 0.0683 0.5375
C24 C 1.2971(8) 0.2222(4) 0.2693(4)
C25 C 1.3497(9) 0.2380(3) 0.2060(5)
H18 H 1.3021 0.2636 0.1760
C26 C 1.4726(9) 0.2163(4) 0.1864(5)
H19 H 1.5086 0.2275 0.1429
C27 C 1.5433(10) 0.1789(4) 0.2288(6)
C28 C 1.4880(10) 0.1637(4) 0.2920(6)
H20 H 1.5350 0.1381 0.3224
C29 C 1.3671(9) 0.1849(4) 0.3113(5)
H21 H 1.3309 0.1736 0.3547
C30 C 1.6800(9) 0.1552(4) 0.2076(6)
H22 H 1.7144 0.1295 0.2443
H23 H 1.7429 0.1869 0.2016
H24 H 1.6700 0.1342 0.1635
C31 C -0.3175(9) 0.4702(3) 0.2152(4)
C32 C -0.3050(10) 0.4909(3) 0.1481(5)
H25 H -0.2193 0.4940 0.1278
C33 C -0.4189(11) 0.5074(3) 0.1104(5)
H26 H -0.4104 0.5201 0.0634
C34 C -0.5457(10) 0.5058(4) 0.1396(6)
C35 C -0.5564(9) 0.4844(4) 0.2057(5)
H27 H -0.6425 0.4808 0.2255
C36 C -0.4454(9) 0.4679(4) 0.2443(5)
H28 H -0.4551 0.4549 0.2910
C37 C -0.6686(10) 0.5242(4) 0.0974(5)
H29 H -0.6413 0.5382 0.0515
H30 H -0.7149 0.5547 0.1223
H31 H -0.7290 0.4915 0.0910
C38 C -0.1280(9) 0.5217(3) 0.3106(4)
C39 C -0.2237(10) 0.5608(4) 0.3273(4)
H32 H -0.3144 0.5546 0.3132
C40 C -0.1893(12) 0.6091(4) 0.3644(5)
H33 H -0.2584 0.6351 0.3759
C41 C -0.0619(13) 0.6217(4) 0.3856(5)
C42 C 0.0328(10) 0.5826(4) 0.3678(5)
H34 H 0.1233 0.5893 0.3817
C43 C 0.0023(10) 0.5338(4) 0.3304(4)
H35 H 0.0719 0.5083 0.3182
C44 C -0.0304(12) 0.6734(3) 0.4269(5)
H36 H 0.0663 0.6752 0.4367
H37 H -0.0782 0.6722 0.4711
H38 H -0.0583 0.7073 0.4002
C45 C -0.2265(8) 0.4087(3) 0.3359(4)
C46 C -0.2658(7) 0.3535(4) 0.3186(4)
H39 H -0.2657 0.3418 0.2710
C47 C -0.3047(9) 0.3156(4) 0.3688(5)
H40 H -0.3292 0.2778 0.3555
C48 C -0.3089(10) 0.3314(4) 0.4386(5)
C49 C -0.2680(10) 0.3860(4) 0.4564(5)
H41 H -0.2674 0.3977 0.5041
C50 C -0.2276(9) 0.4237(4) 0.4050(4)
H42 H -0.2000 0.4611 0.4182
C51 C -0.3597(13) 0.2924(4) 0.4943(6)
H43 H -0.3544 0.3119 0.5398
H44 H -0.3047 0.2577 0.4962
H45 H -0.4530 0.2822 0.4834
Au2_2 Au -0.01256(4) 0.280912(14) 0.21380(2)
Au1_2 Au 1.00725(4) 0.418314(14) 0.20765(2)
loop_
_geom_bond_atom_site_label_1
_geom_bond_atom_site_label_2
_geom_bond_site_symmetry_1
_geom_bond_site_symmetry_2
Au1 P1 1_555 1_555
Au2 P2 1_555 1_555
N1 C2 1_555 1_555
P1 C31 1_555 1_555
P2 C10 1_555 1_555
C1 C2 1_555 1_555
C2 H1 1_555 1_555
C3 N1 1_555 1_555
H2 C3 1_555 1_555
C4 C3 1_555 1_555
C5 C1 1_555 1_555
H3 C5 1_555 1_555
C6 C1 1_555 1_555
C7 Au2 1_555 1_555
C8 C4 1_555 1_555
C9 Au1 1_555 1_555
C10 C11 1_555 1_555
C11 H4 1_555 1_555
C12 C11 1_555 1_555
H5 C12 1_555 1_555
C13 C12 1_555 1_555
C14 C13 1_555 1_555
H6 C14 1_555 1_555
C15 C10 1_555 1_555
H7 C15 1_555 1_555
C16 C13 1_555 1_555
H8 C16 1_555 1_555
H9 C16 1_555 1_555
H10 C16 1_555 1_555
C17 P2 1_555 1_555
C18 C17 1_555 1_555
H11 C18 1_555 1_555
C19 C18 1_555 1_555
H12 C19 1_555 1_555
C20 C19 1_555 1_555
C21 C20 1_555 1_555
H13 C21 1_555 1_555
C22 C17 1_555 1_555
H14 C22 1_555 1_555
C23 C20 1_555 1_555
H15 C23 1_555 1_555
H16 C23 1_555 1_555
H17 C23 1_555 1_555
C24 P2 1_555 1_555
C25 C24 1_555 1_555
H18 C25 1_555 1_555
C26 C25 1_555 1_555
H19 C26 1_555 1_555
C27 C26 1_555 1_555
C28 C27 1_555 1_555
H20 C28 1_555 1_555
C29 C24 1_555 1_555
H21 C29 1_555 1_555
C30 C27 1_555 1_555
H22 C30 1_555 1_555
H23 C30 1_555 1_555
H24 C30 1_555 1_555
C31 C32 1_555 1_555
C32 H25 1_555 1_555
C33 C32 1_555 1_555
H26 C33 1_555 1_555
C34 C33 1_555 1_555
C35 C34 1_555 1_555
H27 C35 1_555 1_555
C36 C31 1_555 1_555
H28 C36 1_555 1_555
C37 C34 1_555 1_555
H29 C37 1_555 1_555
H30 C37 1_555 1_555
H31 C37 1_555 1_555
C38 P1 1_555 1_555
C39 C38 1_555 1_555
H32 C39 1_555 1_555
C40 C39 1_555 1_555
H33 C40 1_555 1_555
C41 C40 1_555 1_555
C42 C41 1_555 1_555
H34 C42 1_555 1_555
C43 C38 1_555 1_555
H35 C43 1_555 1_555
C44 C41 1_555 1_555
H36 C44 1_555 1_555
H37 C44 1_555 1_555
H38 C44 1_555 1_555
C45 P1 1_555 1_555
C46 C45 1_555 1_555
H39 C46 1_555 1_555
C47 C46 1_555 1_555
H40 C47 1_555 1_555
C48 C47 1_555 1_555
C49 C48 1_555 1_555
H41 C49 1_555 1_555
C50 C45 1_555 1_555
H42 C50 1_555 1_555
C51 C48 1_555 1_555
H43 C51 1_555 1_555
H44 C51 1_555 1_555
H45 C51 1_555 1_555
Au2_2 Au1 1_555 1_555
Au1_2 Au2 1_555 1_555
C4 C5 1_555 1_555
C6 C7 1_555 1_555
C8 C9 1_555 1_555
C14 C15 1_555 1_555
C21 C22 1_555 1_555
C28 C29 1_555 1_555
C35 C36 1_555 1_555
C42 C43 1_555 1_555
C49 C50 1_555 1_555

#END
