
#######################################################################
#
#                 Cambridge Crystallographic Data Centre
#                                CCDC 
#
#######################################################################
#
# If this CIF has been generated from an entry in the Cambridge 
# Structural Database, then it will include bibliographic, chemical, 
# crystal, experimental, refinement or atomic coordinate data resulting 
# from the CCDC's data processing and validation procedures.
#
#######################################################################

data_SAKBOV
_symmetry_cell_setting           monoclinic
_symmetry_space_group_name_H-M   'P 21/c'
_symmetry_Int_Tables_number      14
_space_group_name_Hall           '-P 2ybc'
loop_
_symmetry_equiv_pos_site_id
_symmetry_equiv_pos_as_xyz
1 x,y,z
2 -x,1/2+y,1/2-z
3 -x,-y,-z
4 x,1/2-y,1/2+z
_cell_length_a                   9.998(2)
_cell_length_b                   13.769(3)
_cell_length_c                   7.798(1)
_cell_angle_alpha                90
_cell_angle_beta                 100.61(4)
_cell_angle_gamma                90
_cell_volume                     1055.14
loop_
_atom_site_label
_atom_site_type_symbol
_atom_site_fract_x
_atom_site_fract_y
_atom_site_fract_z
Hg1 Hg 0.2705(1) 0.1992(1) 0.7801(1)
Cl1 Cl 0.1068(5) 0.2078(4) 0.4513(7)
Cl2 Cl 0.4159(6) 0.3297(4) 0.7258(9)
S1 S 0.2686(7) 0.0295(4) 0.8553(9)
O1 O 0.2331(17) -0.2539(12) 0.4600(19)
N1 N 0.2640(19) -0.0028(12) 0.5094(24)
C1 C 0.2550(26) -0.0357(14) 0.6640(32)
N2 N 0.2407(19) -0.1340(12) 0.6665(24)
C2 C 0.2405(22) -0.1704(14) 0.5007(28)
C3 C 0.2508(28) -0.0842(15) 0.3805(32)
C4 C 0.3835(22) -0.0902(15) 0.3077(33)
C5 C 0.1129(26) -0.0707(17) 0.2402(31)
H1 H 0.2778 0.0669 0.4813
Cl1C Cl 0.1068(5) 0.2922(4) 0.9513(7)
Hg1C Hg 0.2705(1) 0.3008(1) 0.2801(1)
Hg1C_2 Hg 0.2705(1) 0.3008(1) 1.2801(1)
Cl1C_2 Cl 0.1068(5) 0.2922(4) -0.0487(7)
Cl2C Cl 0.4159(6) 0.1703(4) 0.2258(9)
S1C S 0.2686(7) 0.4705(4) 0.3553(9)
C1C C 0.2550(26) 0.5357(14) 0.1640(32)
N1C N 0.2640(19) 0.5028(12) 0.0094(24)
N2C N 0.2407(19) 0.6340(12) 0.1665(24)
C3C C 0.2508(28) 0.5842(15) -0.1195(32)
H1C H 0.2778 0.4331 -0.0187
C2C C 0.2405(22) 0.6704(14) 0.0007(28)
C4C C 0.3835(22) 0.5902(15) -0.1923(33)
C5C C 0.1129(26) 0.5707(17) -0.2598(31)
O1C O 0.2331(17) 0.7539(12) -0.0400(19)
loop_
_geom_bond_atom_site_label_1
_geom_bond_atom_site_label_2
_geom_bond_site_symmetry_1
_geom_bond_site_symmetry_2
Hg1 Cl1 1_555 1_555
Cl1 Hg1C 1_555 1_555
Cl2 Hg1 1_555 1_555
S1 Hg1 1_555 1_555
O1 C2 1_555 1_555
N1 C1 1_555 1_555
C1 S1 1_555 1_555
N2 C1 1_555 1_555
C2 N2 1_555 1_555
C3 N1 1_555 1_555
C4 C3 1_555 1_555
C5 C3 1_555 1_555
H1 N1 1_555 1_555
Cl1C Hg1 1_555 1_555
Hg1C Cl1C_2 1_555 1_555
Hg1C_2 Cl1C 1_555 1_555
Cl2C Hg1C 1_555 1_555
S1C Hg1C 1_555 1_555
C1C S1C 1_555 1_555
N1C C1C 1_555 1_555
N2C C1C 1_555 1_555
C3C N1C 1_555 1_555
H1C N1C 1_555 1_555
C2C N2C 1_555 1_555
C4C C3C 1_555 1_555
C5C C3C 1_555 1_555
O1C C2C 1_555 1_555
C2 C3 1_555 1_555
C3C C2C 1_555 1_555

#END
