
#######################################################################
#
#                 Cambridge Crystallographic Data Centre
#                                CCDC 
#
#######################################################################
#
# If this CIF has been generated from an entry in the Cambridge 
# Structural Database, then it will include bibliographic, chemical, 
# crystal, experimental, refinement or atomic coordinate data resulting 
# from the CCDC's data processing and validation procedures.
#
#######################################################################

data_SAKCAI10
_symmetry_cell_setting           monoclinic
_symmetry_space_group_name_H-M   'P n'
_symmetry_Int_Tables_number      7
_space_group_name_Hall           'P -2yac'
loop_
_symmetry_equiv_pos_site_id
_symmetry_equiv_pos_as_xyz
1 x,y,z
2 1/2+x,-y,1/2+z
_cell_length_a                   28.90(2)
_cell_length_b                   10.251(4)
_cell_length_c                   5.981(1)
_cell_angle_alpha                90
_cell_angle_beta                 94.68(3)
_cell_angle_gamma                90
_cell_volume                     1765.99
loop_
_atom_site_label
_atom_site_type_symbol
_atom_site_fract_x
_atom_site_fract_y
_atom_site_fract_z
Sc1 Sc 0.7500 0.8751(2) 0.2500
Sc2 Sc 0.7511(2) 0.3774(5) 0.2500(9)
S1 S 0.8149(1) 0.6461(2) 0.0190(4)
S2 S 0.6832(1) 0.6252(2) 0.4631(4)
S3 S 0.8154(1) 1.1215(2) 0.0341(4)
S4 S 0.6844(1) 1.0999(2) 0.4844(4)
O1 O 0.7081(3) 0.8496(7) -0.0608(11)
O2 O 0.7868(3) 0.9007(7) 0.5634(11)
O3 O 0.7994(4) 0.3952(10) 0.5877(15)
O4 O 0.6992(3) 0.3584(8) -0.0870(14)
O5 O 0.8030(2) 0.7574(6) 0.1714(12)
O6 O 0.7810(3) 0.5498(7) 0.0143(16)
O7 O 0.8261(3) 0.6946(9) -0.2009(13)
O8 O 0.7180(3) 0.7177(7) 0.3855(13)
O9 O 0.6894(2) 0.4966(6) 0.3879(12)
O10 O 0.6820(2) 0.6378(8) 0.7017(12)
O11 O 0.8091(3) 1.2498(7) 0.1222(16)
O12 O 0.7796(2) 1.0337(7) 0.1164(12)
O13 O 0.8178(3) 1.1083(7) -0.2056(12)
O14 O 0.7185(3) 1.2010(7) 0.4950(13)
O15 O 0.6953(2) 0.9893(7) 0.3506(13)
O16 O 0.6738(3) 1.0485(8) 0.6937(13)
C1 C 0.8645(3) 0.5832(8) 0.1510(15)
C2 C 0.8832(4) 0.6245(11) 0.3784(16)
C3 C 0.9243(4) 0.5622(11) 0.4843(18)
C4 C 0.9446(3) 0.4719(10) 0.3549(17)
C5 C 0.9273(3) 0.4298(9) 0.1482(16)
C6 C 0.8863(3) 0.4852(9) 0.0315(19)
C7 C 0.6292(3) 0.6853(8) 0.3389(14)
C8 C 0.6141(3) 0.6374(9) 0.1415(16)
C9 C 0.5745(4) 0.6890(11) 0.0435(15)
C10 C 0.5480(4) 0.7966(10) 0.1259(16)
C11 C 0.5657(4) 0.8326(8) 0.3405(16)
C12 C 0.6068(3) 0.7812(7) 0.4492(13)
C13 C 0.8659(3) 1.0633(9) 0.1618(15)
C14 C 0.8834(4) 1.1097(11) 0.3884(14)
C15 C 0.9249(4) 1.0514(11) 0.4938(16)
C16 C 0.9464(4) 0.9626(11) 0.3762(18)
C17 C 0.9298(3) 0.9181(10) 0.1683(16)
C18 C 0.8899(4) 0.9656(10) 0.0517(19)
C19 C 0.6306(3) 1.1680(9) 0.3521(15)
C20 C 0.6156(3) 1.1266(9) 0.1554(15)
C21 C 0.5775(4) 1.1809(10) 0.0479(16)
C22 C 0.5531(4) 1.2918(11) 0.1381(17)
C23 C 0.5727(4) 1.3267(9) 0.3547(17)
C24 C 0.6100(3) 1.2682(8) 0.4590(14)
N1 N 0.9492(2) 0.3172(7) 0.0319(15)
N2 N 0.5403(3) 0.9285(8) 0.4481(14)
N3 N 0.9555(3) 0.8098(7) 0.0478(15)
N4 N 0.5495(4) 1.4261(9) 0.4530(16)
O17 O 0.9375(3) 0.3026(7) -0.1602(14)
O18 O 0.9822(3) 0.2675(8) 0.1362(16)
O19 O 0.5557(3) 0.9655(9) 0.6453(14)
O20 O 0.5111(3) 0.9920(8) 0.3500(13)
O21 O 0.9438(3) 0.7878(8) -0.1422(14)
O22 O 0.9906(3) 0.7650(8) 0.1566(16)
O23 O 0.5676(3) 1.4669(8) 0.6436(15)
O24 O 0.5176(3) 1.4871(8) 0.3583(15)
O11_2 O 0.8091(3) 0.2498(7) 0.1222(16)
O14_2 O 0.7185(3) 0.2010(7) 0.4950(13)
Sc2_2 Sc 0.7511(2) 1.3774(5) 0.2500(9)
loop_
_geom_bond_atom_site_label_1
_geom_bond_atom_site_label_2
_geom_bond_site_symmetry_1
_geom_bond_site_symmetry_2
Sc1 O1 1_555 1_555
Sc2 O3 1_555 1_555
S1 O5 1_555 1_555
S2 O8 1_555 1_555
S3 O11 1_555 1_555
S4 O14 1_555 1_555
O2 Sc1 1_555 1_555
O4 Sc2 1_555 1_555
O5 Sc1 1_555 1_555
O6 Sc2 1_555 1_555
O7 S1 1_555 1_555
O8 Sc1 1_555 1_555
O9 Sc2 1_555 1_555
O10 S2 1_555 1_555
O11 Sc2_2 1_555 1_555
O12 Sc1 1_555 1_555
O13 S3 1_555 1_555
O14 Sc2_2 1_555 1_555
O15 Sc1 1_555 1_555
O16 S4 1_555 1_555
C1 S1 1_555 1_555
C2 C1 1_555 1_555
C3 C2 1_555 1_555
C4 C3 1_555 1_555
C5 C4 1_555 1_555
C6 C1 1_555 1_555
C7 S2 1_555 1_555
C8 C7 1_555 1_555
C9 C8 1_555 1_555
C10 C9 1_555 1_555
C11 C10 1_555 1_555
C12 C7 1_555 1_555
C13 S3 1_555 1_555
C14 C13 1_555 1_555
C15 C14 1_555 1_555
C16 C15 1_555 1_555
C17 C16 1_555 1_555
C18 C13 1_555 1_555
C19 S4 1_555 1_555
C20 C19 1_555 1_555
C21 C20 1_555 1_555
C22 C21 1_555 1_555
C23 C22 1_555 1_555
C24 C19 1_555 1_555
N1 C5 1_555 1_555
N2 C11 1_555 1_555
N3 C17 1_555 1_555
N4 C23 1_555 1_555
O17 N1 1_555 1_555
O18 N1 1_555 1_555
O19 N2 1_555 1_555
O20 N2 1_555 1_555
O21 N3 1_555 1_555
O22 N3 1_555 1_555
O23 N4 1_555 1_555
O24 N4 1_555 1_555
O11_2 Sc2 1_555 1_555
O14_2 Sc2 1_555 1_555
S1 O6 1_555 1_555
S2 O9 1_555 1_555
S3 O12 1_555 1_555
S4 O15 1_555 1_555
C5 C6 1_555 1_555
C11 C12 1_555 1_555
C17 C18 1_555 1_555
C23 C24 1_555 1_555

#END
