
#######################################################################
#
#                 Cambridge Crystallographic Data Centre
#                                CCDC 
#
#######################################################################
#
# If this CIF has been generated from an entry in the Cambridge 
# Structural Database, then it will include bibliographic, chemical, 
# crystal, experimental, refinement or atomic coordinate data resulting 
# from the CCDC's data processing and validation procedures.
#
#######################################################################

data_SAKJIX
_symmetry_cell_setting           monoclinic
_symmetry_space_group_name_H-M   'P 21/n'
_symmetry_Int_Tables_number      14
_space_group_name_Hall           '-P 2yn'
loop_
_symmetry_equiv_pos_site_id
_symmetry_equiv_pos_as_xyz
1 x,y,z
2 1/2-x,1/2+y,1/2-z
3 -x,-y,-z
4 1/2+x,1/2-y,1/2+z
_cell_length_a                   21.125(14)
_cell_length_b                   15.888(7)
_cell_length_c                   15.788(5)
_cell_angle_alpha                90
_cell_angle_beta                 93.27(4)
_cell_angle_gamma                90
_cell_volume                     5290.36
loop_
_atom_site_label
_atom_site_type_symbol
_atom_site_fract_x
_atom_site_fract_y
_atom_site_fract_z
Pr1 Pr 0.29913(4) 0.76354(5) 0.01584(5)
Pr2 Pr 0.14279(4) 0.78980(5) -0.18532(5)
Pr3 Pr 0.46192(4) 0.74575(5) 0.18285(5)
S1 S 0.2234(2) 0.7809(3) 0.2124(3)
S2 S 0.1833(3) 0.9331(3) -0.3511(3)
S3 S 0.4338(2) 0.8026(3) 0.4012(3)
S4 S 0.3700(3) 0.9230(3) -0.1101(3)
Cl1 Cl 0.1848(4) 1.0583(4) 0.0685(5)
Cl2 Cl 0.3168(4) 0.7148(8) -0.3715(4)
Cl3 Cl 0.0623(3) 0.5907(4) 0.0576(4)
Cl4 Cl -0.0038(5) 1.0559(6) -0.1135(7)
Cl5 Cl 0.1122(3) 0.6645(4) -0.5585(4)
Cl6 Cl 0.0864(2) 0.4547(3) -0.1674(3)
Cl7 Cl 0.5322(3) 0.6084(4) -0.1068(4)
Cl8 Cl 0.2867(3) 0.4428(3) 0.0938(4)
Cl9 Cl 0.3619(4) 1.0324(4) 0.2522(5)
O1 O 0.2362(5) 0.7252(7) 0.1374(6)
O2 O 0.1727(6) 0.9175(7) -0.2566(7)
O3 O 0.4128(5) 0.7532(8) 0.3218(6)
O4 O 0.3455(6) 0.8939(7) -0.0290(7)
O5 O 0.2292(5) 0.8845(7) 0.0558(7)
O6 O 0.2076(5) 0.8684(6) -0.0783(7)
O7 O 0.3282(5) 0.7269(7) -0.1283(7)
O8 O 0.2477(5) 0.7538(8) -0.2221(6)
O9 O 0.2072(5) 0.6910(7) -0.0450(6)
O10 O 0.1077(4) 0.7266(7) -0.0484(6)
O11 O 0.0697(5) 0.8984(7) -0.1253(8)
O12 O 0.0264(6) 0.8618(7) -0.2455(7)
O13 O 0.1229(6) 0.7666(7) -0.3355(7)
O14 O 0.0467(5) 0.6906(7) -0.4009(7)
O15 O 0.1330(4) 0.6277(6) -0.1999(7)
O16 O 0.0411(5) 0.6892(6) -0.2104(6)
O17 O 0.4910(5) 0.6484(7) 0.0626(7)
O18 O 0.4202(4) 0.7451(6) 0.0253(6)
O19 O 0.3803(5) 0.6379(7) 0.1779(7)
O20 O 0.3242(5) 0.6165(6) 0.0577(7)
O21 O 0.4375(5) 0.9004(6) 0.1779(8)
O22 O 0.3540(4) 0.8228(6) 0.1478(6)
C1 C 0.2453(10) 0.7169(13) 0.3035(12)
C2 C 0.1390(10) 0.7783(16) 0.2186(13)
C3 C 0.2366(9) 1.0212(13) -0.3522(14)
C4 C 0.1136(10) 0.9840(14) -0.3873(15)
C5 C 0.3603(10) 0.8369(16) 0.4419(13)
C6 C 0.4560(10) 0.7231(15) 0.4788(11)
C7 C 0.4433(9) 0.9703(13) -0.0826(16)
C8 C 0.3233(11) 1.0148(13) -0.1326(15)
C9 C 0.2046(7) 0.9093(10) -0.0123(9)
C10 C 0.1664(10) 0.9914(11) -0.0193(12)
C11 C 0.3020(7) 0.7356(10) -0.2019(8)
C12 C 0.3530(10) 0.7246(18) -0.2674(11)
C13 C 0.1501(7) 0.6804(9) -0.0233(9)
C14 C 0.1406(8) 0.6048(11) 0.0292(12)
C15 C 0.0300(7) 0.9085(10) -0.1844(10)
C16 C -0.0200(10) 0.9793(14) -0.1868(14)
C17 C 0.0998(8) 0.7271(9) -0.3972(9)
C18 C 0.1426(9) 0.7272(12) -0.4702(12)
C19 C 0.0752(7) 0.6254(9) -0.1991(9)
C20 C 0.0369(7) 0.5460(10) -0.1799(11)
C21 C 0.4630(7) 0.6890(9) 0.0071(9)
C22 C 0.4724(9) 0.6834(13) -0.0863(11)
C23 C 0.3456(6) 0.5968(9) 0.1283(10)
C24 C 0.3287(10) 0.5112(12) 0.1667(13)
C25 C 0.3791(7) 0.8914(10) 0.1650(9)
C26 C 0.3348(8) 0.9691(11) 0.1689(12)
O12C O 0.5264(6) 0.6382(7) 0.2545(7)
O14C O 0.5467(5) 0.8094(7) 0.0991(7)
O16C O 0.5411(5) 0.8108(6) 0.2896(6)
Pr3C Pr -0.03808(4) 0.75425(5) -0.31715(5)
loop_
_geom_bond_atom_site_label_1
_geom_bond_atom_site_label_2
_geom_bond_site_symmetry_1
_geom_bond_site_symmetry_2
Pr1 O1 1_555 1_555
Pr2 O2 1_555 1_555
Pr3 O3 1_555 1_555
S1 O1 1_555 1_555
S2 O2 1_555 1_555
S3 O3 1_555 1_555
S4 O4 1_555 1_555
Cl1 C10 1_555 1_555
Cl2 C12 1_555 1_555
Cl3 C14 1_555 1_555
Cl4 C16 1_555 1_555
Cl5 C18 1_555 1_555
Cl6 C20 1_555 1_555
Cl7 C22 1_555 1_555
Cl8 C24 1_555 1_555
Cl9 C26 1_555 1_555
O4 Pr1 1_555 1_555
O5 Pr1 1_555 1_555
O6 Pr1 1_555 1_555
O7 Pr1 1_555 1_555
O8 Pr2 1_555 1_555
O9 Pr1 1_555 1_555
O10 Pr2 1_555 1_555
O11 Pr2 1_555 1_555
O12 Pr2 1_555 1_555
O13 Pr2 1_555 1_555
O14 C17 1_555 1_555
O15 Pr2 1_555 1_555
O16 Pr2 1_555 1_555
O17 Pr3 1_555 1_555
O18 Pr1 1_555 1_555
O19 Pr3 1_555 1_555
O20 Pr1 1_555 1_555
O21 Pr3 1_555 1_555
O22 Pr1 1_555 1_555
C1 S1 1_555 1_555
C2 S1 1_555 1_555
C3 S2 1_555 1_555
C4 S2 1_555 1_555
C5 S3 1_555 1_555
C6 S3 1_555 1_555
C7 S4 1_555 1_555
C8 S4 1_555 1_555
C9 O5 1_555 1_555
C10 C9 1_555 1_555
C11 O7 1_555 1_555
C12 C11 1_555 1_555
C13 O9 1_555 1_555
C14 C13 1_555 1_555
C15 O11 1_555 1_555
C16 C15 1_555 1_555
C17 O13 1_555 1_555
C18 C17 1_555 1_555
C19 O15 1_555 1_555
C20 C19 1_555 1_555
C21 O17 1_555 1_555
C22 C21 1_555 1_555
C23 O19 1_555 1_555
C24 C23 1_555 1_555
C25 O21 1_555 1_555
C26 C25 1_555 1_555
O12C Pr3 1_555 1_555
O14C Pr3 1_555 1_555
O16C Pr3 1_555 1_555
Pr3C O12 1_555 1_555
Pr2 O6 1_555 1_555
Pr2 O9 1_555 1_555
Pr3 O18 1_555 1_555
Pr3 O22 1_555 1_555
O6 C9 1_555 1_555
O8 C11 1_555 1_555
O10 C13 1_555 1_555
O12 C15 1_555 1_555
O14 Pr3C 1_555 1_555
O16 C19 1_555 1_555
O16 Pr3C 1_555 1_555
O18 C21 1_555 1_555
O20 C23 1_555 1_555
O22 C25 1_555 1_555

#END
