
#######################################################################
#
#                 Cambridge Crystallographic Data Centre
#                                CCDC 
#
#######################################################################
#
# If this CIF has been generated from an entry in the Cambridge 
# Structural Database, then it will include bibliographic, chemical, 
# crystal, experimental, refinement or atomic coordinate data resulting 
# from the CCDC's data processing and validation procedures.
#
#######################################################################

data_SAKJAP
_symmetry_cell_setting           monoclinic
_symmetry_space_group_name_H-M   'P 21/n'
_symmetry_Int_Tables_number      14
_space_group_name_Hall           '-P 2yn'
loop_
_symmetry_equiv_pos_site_id
_symmetry_equiv_pos_as_xyz
1 x,y,z
2 1/2-x,1/2+y,1/2-z
3 -x,-y,-z
4 1/2+x,1/2-y,1/2+z
_cell_length_a                   21.106(21)
_cell_length_b                   15.871(8)
_cell_length_c                   15.748(7)
_cell_angle_alpha                90
_cell_angle_beta                 93.29(5)
_cell_angle_gamma                90
_cell_volume                     5266.47
loop_
_atom_site_label
_atom_site_type_symbol
_atom_site_fract_x
_atom_site_fract_y
_atom_site_fract_z
Nd1 Nd 0.29895(2) 0.76276(3) 0.01632(3)
Nd2 Nd 0.14262(2) 0.78909(3) -0.18630(3)
Nd3 Nd 0.46178(2) 0.74590(3) 0.18211(3)
S1 S 0.2240(1) 0.7800(2) 0.2127(2)
S2 S 0.1837(2) 0.9323(2) -0.3517(2)
S3 S 0.4343(1) 0.8020(2) 0.4001(2)
S4 S 0.3694(2) 0.9228(2) -0.1094(2)
Cl1 Cl 0.1846(2) 1.0558(3) 0.0692(3)
Cl2 Cl 0.3164(2) 0.7142(5) -0.3714(3)
Cl3 Cl 0.0616(2) 0.5910(3) 0.0570(2)
Cl4 Cl -0.0025(3) 1.0555(4) -0.1142(4)
Cl5 Cl 0.1103(2) 0.6638(2) -0.5602(2)
Cl6 Cl 0.0865(2) 0.4545(2) -0.1683(2)
Cl7 Cl 0.5321(2) 0.6089(3) -0.1071(2)
Cl8 Cl 0.2875(2) 0.4424(2) 0.0931(2)
Cl9 Cl 0.3609(3) 1.0312(3) 0.2540(3)
O1 O 0.2366(3) 0.7237(4) 0.1378(4)
O2 O 0.1739(4) 0.9175(5) -0.2573(4)
O3 O 0.4134(3) 0.7535(5) 0.3205(4)
O4 O 0.3449(3) 0.8931(4) -0.0265(4)
O5 O 0.2287(3) 0.8818(5) 0.0566(4)
O6 O 0.2082(3) 0.8673(4) -0.0806(4)
O7 O 0.3266(3) 0.7278(4) -0.1276(4)
O8 O 0.2469(3) 0.7526(5) -0.2223(4)
O9 O 0.2072(3) 0.6905(4) -0.0447(4)
O10 O 0.1072(3) 0.7279(4) -0.0502(4)
O11 O 0.0702(3) 0.8972(5) -0.1267(4)
O12 O 0.0264(3) 0.8614(4) -0.2485(4)
O13 O 0.1250(4) 0.7654(5) -0.3355(4)
O14 O 0.0471(3) 0.6917(5) -0.4007(4)
O15 O 0.1322(3) 0.6271(4) -0.1991(4)
O16 O 0.0408(3) 0.6902(4) -0.2120(4)
O17 O 0.4916(3) 0.6490(4) 0.0629(4)
O18 O 0.4202(3) 0.7452(4) 0.0249(4)
O19 O 0.3813(3) 0.6371(4) 0.1786(4)
O20 O 0.3252(3) 0.6177(4) 0.0566(4)
O21 O 0.4371(3) 0.8986(4) 0.1773(5)
O22 O 0.3534(3) 0.8219(4) 0.1479(4)
C1 C 0.2455(6) 0.7150(8) 0.3031(7)
C2 C 0.1390(6) 0.7779(10) 0.2172(9)
C3 C 0.2365(6) 1.0201(8) -0.3535(9)
C4 C 0.1126(5) 0.9829(9) -0.3895(8)
C5 C 0.3610(7) 0.8370(11) 0.4409(8)
C6 C 0.4568(6) 0.7221(9) 0.4785(7)
C7 C 0.4433(7) 0.9698(10) -0.0792(11)
C8 C 0.3222(7) 1.0148(9) -0.1327(9)
C9 C 0.2037(4) 0.9070(6) -0.0121(6)
C10 C 0.1664(6) 0.9896(7) -0.0189(7)
C11 C 0.3026(4) 0.7355(6) -0.2012(5)
C12 C 0.3518(6) 0.7214(12) -0.2675(7)
C13 C 0.1506(4) 0.6809(6) -0.0244(5)
C14 C 0.1410(5) 0.6033(7) 0.0295(7)
C15 C 0.0291(5) 0.9078(6) -0.1854(6)
C16 C -0.0195(6) 0.9777(8) -0.1883(9)
C17 C 0.0992(4) 0.7268(6) -0.3974(6)
C18 C 0.1399(5) 0.7274(8) -0.4741(7)
C19 C 0.0744(4) 0.6244(6) -0.2004(5)
C20 C 0.0380(4) 0.5465(6) -0.1801(7)
C21 C 0.4622(4) 0.6901(6) 0.0076(6)
C22 C 0.4727(5) 0.6839(8) -0.0869(7)
C23 C 0.3462(4) 0.5960(6) 0.1281(6)
C24 C 0.3270(6) 0.5109(8) 0.1670(8)
C25 C 0.3795(4) 0.8918(6) 0.1635(5)
C26 C 0.3357(5) 0.9682(7) 0.1673(7)
O12C O 0.5264(3) 0.6386(4) 0.2515(4)
O14C O 0.5471(3) 0.8083(5) 0.0993(4)
O16C O 0.5408(3) 0.8098(4) 0.2880(4)
Nd3C Nd -0.03822(2) 0.75410(3) -0.31789(3)
loop_
_geom_bond_atom_site_label_1
_geom_bond_atom_site_label_2
_geom_bond_site_symmetry_1
_geom_bond_site_symmetry_2
Nd1 O1 1_555 1_555
Nd2 O2 1_555 1_555
Nd3 O3 1_555 1_555
S1 O1 1_555 1_555
S2 O2 1_555 1_555
S3 O3 1_555 1_555
S4 O4 1_555 1_555
Cl1 C10 1_555 1_555
Cl2 C12 1_555 1_555
Cl3 C14 1_555 1_555
Cl4 C16 1_555 1_555
Cl5 C18 1_555 1_555
Cl6 C20 1_555 1_555
Cl7 C22 1_555 1_555
Cl8 C24 1_555 1_555
Cl9 C26 1_555 1_555
O4 Nd1 1_555 1_555
O5 Nd1 1_555 1_555
O6 Nd1 1_555 1_555
O7 Nd1 1_555 1_555
O8 Nd2 1_555 1_555
O9 Nd1 1_555 1_555
O10 Nd2 1_555 1_555
O11 Nd2 1_555 1_555
O12 Nd2 1_555 1_555
O13 Nd2 1_555 1_555
O14 C17 1_555 1_555
O15 Nd2 1_555 1_555
O16 Nd2 1_555 1_555
O17 Nd3 1_555 1_555
O18 Nd1 1_555 1_555
O19 Nd3 1_555 1_555
O20 Nd1 1_555 1_555
O21 Nd3 1_555 1_555
O22 Nd1 1_555 1_555
C1 S1 1_555 1_555
C2 S1 1_555 1_555
C3 S2 1_555 1_555
C4 S2 1_555 1_555
C5 S3 1_555 1_555
C6 S3 1_555 1_555
C7 S4 1_555 1_555
C8 S4 1_555 1_555
C9 O5 1_555 1_555
C10 C9 1_555 1_555
C11 O7 1_555 1_555
C12 C11 1_555 1_555
C13 O9 1_555 1_555
C14 C13 1_555 1_555
C15 O11 1_555 1_555
C16 C15 1_555 1_555
C17 O13 1_555 1_555
C18 C17 1_555 1_555
C19 O15 1_555 1_555
C20 C19 1_555 1_555
C21 O17 1_555 1_555
C22 C21 1_555 1_555
C23 O19 1_555 1_555
C24 C23 1_555 1_555
C25 O21 1_555 1_555
C26 C25 1_555 1_555
O12C Nd3 1_555 1_555
O14C Nd3 1_555 1_555
O16C Nd3 1_555 1_555
Nd3C O12 1_555 1_555
Nd2 O6 1_555 1_555
Nd2 O9 1_555 1_555
Nd3 O18 1_555 1_555
Nd3 O22 1_555 1_555
O6 C9 1_555 1_555
O8 C11 1_555 1_555
O10 C13 1_555 1_555
O12 C15 1_555 1_555
O14 Nd3C 1_555 1_555
O16 C19 1_555 1_555
O16 Nd3C 1_555 1_555
O18 C21 1_555 1_555
O20 C23 1_555 1_555
O22 C25 1_555 1_555

#END
