
#######################################################################
#
#                 Cambridge Crystallographic Data Centre
#                                CCDC 
#
#######################################################################
#
# If this CIF has been generated from an entry in the Cambridge 
# Structural Database, then it will include bibliographic, chemical, 
# crystal, experimental, refinement or atomic coordinate data resulting 
# from the CCDC's data processing and validation procedures.
#
#######################################################################

data_SAKLUM
_symmetry_cell_setting           monoclinic
_symmetry_space_group_name_H-M   'P 21/n'
_symmetry_Int_Tables_number      14
_space_group_name_Hall           '-P 2yn'
loop_
_symmetry_equiv_pos_site_id
_symmetry_equiv_pos_as_xyz
1 x,y,z
2 1/2+x,1/2-y,1/2+z
3 -x,-y,-z
4 1/2-x,1/2+y,1/2-z
_cell_length_a                   10.191(2)
_cell_length_b                   11.602(1)
_cell_length_c                   10.562(2)
_cell_angle_alpha                90
_cell_angle_beta                 94.20(3)
_cell_angle_gamma                90
_cell_volume                     1245.45
loop_
_atom_site_label
_atom_site_type_symbol
_atom_site_fract_x
_atom_site_fract_y
_atom_site_fract_z
C1 C 1.10782(17) -0.06826(16) 0.39113(19)
H1 H 1.054(3) -0.096(2) 0.450(3)
C2 C 1.06887(16) 0.02541(15) 0.31725(17)
N1 N 1.03663(15) 0.10470(14) 0.25693(16)
C3 C 1.22993(17) -0.11757(14) 0.38260(17)
N2 N 1.33210(15) -0.15965(14) 0.37557(16)
C4 C 0.8443(2) 0.12344(19) -0.0290(2)
H2 H 0.8273 0.0751 0.0441
H3 H 0.9218 0.0944 -0.0686
H4 H 0.7678 0.1213 -0.0909
C5 C 0.9025(2) 0.3127(2) -0.0942(2)
H5 H 0.8297 0.3117 -0.1602
H6 H 0.9819 0.2816 -0.1287
H7 H 0.9189 0.3921 -0.0657
N3 N 0.86803(14) 0.24208(13) 0.01325(15)
C6 C 0.75095(19) 0.2885(2) 0.0703(2)
H8 H 0.7107 0.2270 0.1195
H9 H 0.6854 0.3130 0.0018
C7 C 0.7848(2) 0.3900(2) 0.1566(3)
H10 H 0.8211 0.4530 0.1065
H11 H 0.7036 0.4188 0.1919
N4 N 0.87896(15) 0.35958(13) 0.25930(15)
C8 C 0.8230(3) 0.3022(2) 0.3639(3)
H12 H 0.7531 0.3502 0.3951
H13 H 0.8916 0.2897 0.4324
H14 H 0.7862 0.2279 0.3352
C9 C 0.9445(3) 0.4664(2) 0.3113(3)
H15 H 0.8779 0.5197 0.3392
H16 H 0.9927 0.5032 0.2451
H17 H 1.0061 0.4464 0.3836
Li1 Li 1.0099(3) 0.2532(2) 0.1661(3)
Li1C Li 1.4901(3) -0.2468(2) 0.3339(3)
N2C N 1.16790(15) 0.34035(14) 0.12443(16)
loop_
_geom_bond_atom_site_label_1
_geom_bond_atom_site_label_2
_geom_bond_site_symmetry_1
_geom_bond_site_symmetry_2
C1 H1 1_555 1_555
C2 C1 1_555 1_555
N1 C2 1_555 1_555
C3 C1 1_555 1_555
N2 C3 1_555 1_555
C4 H2 1_555 1_555
H3 C4 1_555 1_555
H4 C4 1_555 1_555
C5 H5 1_555 1_555
H6 C5 1_555 1_555
H7 C5 1_555 1_555
N3 C4 1_555 1_555
C6 N3 1_555 1_555
H8 C6 1_555 1_555
H9 C6 1_555 1_555
C7 C6 1_555 1_555
H10 C7 1_555 1_555
H11 C7 1_555 1_555
N4 C7 1_555 1_555
C8 N4 1_555 1_555
H12 C8 1_555 1_555
H13 C8 1_555 1_555
H14 C8 1_555 1_555
C9 N4 1_555 1_555
H15 C9 1_555 1_555
H16 C9 1_555 1_555
H17 C9 1_555 1_555
Li1 N1 1_555 1_555
Li1C N2 1_555 1_555
N2C Li1 1_555 1_555
C5 N3 1_555 1_555
N3 Li1 1_555 1_555
N4 Li1 1_555 1_555

#END
