
#######################################################################
#
#                 Cambridge Crystallographic Data Centre
#                                CCDC 
#
#######################################################################
#
# If this CIF has been generated from an entry in the Cambridge 
# Structural Database, then it will include bibliographic, chemical, 
# crystal, experimental, refinement or atomic coordinate data resulting 
# from the CCDC's data processing and validation procedures.
#
#######################################################################

data_SAKNUP
_symmetry_cell_setting           monoclinic
_symmetry_space_group_name_H-M   'P 21/c'
_symmetry_Int_Tables_number      14
_space_group_name_Hall           '-P 2ybc'
loop_
_symmetry_equiv_pos_site_id
_symmetry_equiv_pos_as_xyz
1 x,y,z
2 -x,1/2+y,1/2-z
3 -x,-y,-z
4 x,1/2-y,1/2+z
_cell_length_a                   8.501(7)
_cell_length_b                   29.47(2)
_cell_length_c                   20.745(16)
_cell_angle_alpha                90
_cell_angle_beta                 100.744(14)
_cell_angle_gamma                90
_cell_volume                     5106.02
loop_
_atom_site_label
_atom_site_type_symbol
_atom_site_fract_x
_atom_site_fract_y
_atom_site_fract_z
C1 C -1.035(2) 0.9080(6) 0.0344(8)
H1 H -0.9782 0.8826 0.0523
C2 C -0.7961(17) 0.9015(5) 0.6379(7)
H2 H -0.7279 0.9122 0.6751
C3 C -1.3480(16) 0.9411(5) 0.4181(6)
H3 H -1.4071 0.9276 0.3808
C4 C -1.3825(17) 0.9847(5) 0.4326(7)
H4 H -1.4642 1.0004 0.4056
C5 C -1.2959(17) 1.0055(5) 0.4876(7)
H5 H -1.3179 1.0353 0.4975
C6 C -1.1748(16) 0.9814(5) 0.5284(7)
C7 C -1.1454(15) 0.9369(4) 0.5089(6)
C8 C -1.0204(15) 0.9113(4) 0.5486(6)
C9 C -0.9221(16) 0.9291(5) 0.6031(7)
C10 C -0.957(2) 0.9739(5) 0.6234(7)
H6 H -0.8970 0.9857 0.6619
C11 C -1.074(2) 0.9994(5) 0.5881(7)
H7 H -1.0902 1.0288 0.6016
C12 C -0.8856(16) 0.8426(5) 0.5597(7)
H8 H -0.8742 0.8130 0.5459
C13 C -1.1239(19) 0.9541(7) -0.0602(8)
H9 H -1.1300 0.9603 -0.1046
C14 C -1.1983(19) 0.9815(6) -0.0217(7)
C15 C -1.289(2) 1.0227(6) -0.0426(8)
H10 H -1.2947 1.0325 -0.0855
C16 C -1.3559(19) 1.0345(5) 0.0664(8)
C17 C -1.4330(18) 1.0567(5) 0.1110(9)
H11 H -1.4909 1.0832 0.0990
C18 C -1.2673(16) 0.9956(5) 0.0882(7)
C19 C -1.3641(17) 1.0469(5) -0.0036(8)
H12 H -1.4232 1.0722 -0.0204
C20 C -1.9466(16) 0.6537(5) 0.2687(7)
H13 H -1.8608 0.6680 0.2954
C21 C -1.9808(19) 0.6089(6) 0.2817(8)
H14 H -1.9194 0.5936 0.3168
C22 C -2.1073(18) 0.5874(5) 0.2418(7)
H15 H -2.1322 0.5575 0.2501
C23 C -2.1971(16) 0.6108(5) 0.1892(8)
C24 C -2.1577(15) 0.6560(4) 0.1808(6)
C25 C -2.2450(15) 0.6816(4) 0.1270(6)
C26 C -2.2837(16) 0.7507(5) 0.0744(6)
H16 H -2.2540 0.7809 0.0718
C27 C -2.4142(19) 0.7337(6) 0.0288(8)
H17 H -2.4707 0.7527 -0.0031
C28 C -2.4568(18) 0.6899(6) 0.0317(8)
H18 H -2.5399 0.6781 0.0005
C29 C -2.3733(15) 0.6611(5) 0.0831(7)
C30 C -2.4054(18) 0.6155(6) 0.0927(9)
H19 H -2.4842 0.6010 0.0627
C31 C -2.3261(18) 0.5918(6) 0.1441(8)
H20 H -2.3568 0.5620 0.1501
C32 C -1.1862(16) 0.9697(5) 0.0446(6)
C33 C -1.041(2) 0.9175(7) -0.0318(7)
H21 H -0.9883 0.8987 -0.0568
C34 C -1.3359(17) 1.0003(5) 0.1916(8)
H22 H -1.3329 0.9889 0.2336
C35 C -0.7800(15) 0.8595(5) 0.6148(6)
H23 H -0.6970 0.8411 0.6357
C36 C -1.4224(18) 1.0395(5) 0.1713(9)
H24 H -1.4749 1.0543 0.2008
Cu1 Cu -1.16893(17) 0.85313(5) 0.44417(7)
Cu2 Cu -2.01547(17) 0.74236(5) 0.19314(8)
Cu3 Cu -1.11941(18) 0.92365(5) 0.16717(8)
Mo1 Mo -1.75329(12) 0.76616(4) 0.33645(5)
Mo2 Mo -0.79250(12) 0.87415(4) 0.37186(5)
Mo3 Mo -1.52218(12) 0.86113(4) 0.15024(5)
Mo4 Mo -1.61695(12) 0.75926(4) 0.19353(5)
Mo5 Mo -1.71998(13) 0.93934(4) 0.24618(5)
N1 N -1.1040(13) 0.9331(4) 0.0724(6)
N2 N -1.2565(13) 0.9789(4) 0.1498(6)
N3 N -1.2319(13) 0.9171(4) 0.4558(6)
N4 N -1.0025(12) 0.8688(4) 0.5268(6)
N5 N -2.0330(13) 0.6771(4) 0.2190(6)
N6 N -2.2017(13) 0.7244(4) 0.1211(5)
O1 O -0.6917(11) 0.9012(3) 0.4400(4)
O2 O -1.1279(12) 0.7886(3) 0.4518(5)
H25 H -1.1886 0.7752 0.4225
O3 O -1.3554(10) 0.8404(3) 0.3778(4)
O4 O -1.9297(10) 0.7478(3) 0.3527(4)
O5 O -1.8823(10) 0.8277(3) 0.2791(4)
O6 O -2.1868(11) 0.7696(3) 0.2595(5)
H26 H -2.2551 0.7858 0.2378
O7 O -1.7905(10) 0.7466(3) 0.2447(4)
O8 O -2.0152(10) 0.8047(3) 0.1642(4)
O9 O -1.7339(11) 0.7418(3) 0.1205(5)
O10 O -1.6416(12) 0.8581(3) 0.0738(4)
O11 O -1.4706(9) 0.7976(3) 0.1638(4)
O12 O -1.3462(10) 0.8813(3) 0.1332(5)
O13 O -1.8482(11) 0.9755(3) 0.1992(4)
O14 O -1.5790(11) 0.9742(3) 0.2889(4)
O15 O -1.4981(10) 0.7144(3) 0.2202(4)
O16 O -0.9860(10) 0.8693(3) 0.3842(4)
O17 O -1.7071(10) 0.8156(3) 0.3947(4)
O18 O -0.8426(9) 0.9240(3) 0.3118(4)
O19 O -1.6056(9) 0.8772(3) 0.3139(4)
O20 O -1.3874(9) 0.8574(3) 0.2563(4)
O21 O -1.6100(10) 0.9135(3) 0.1842(4)
O22 O -1.1623(10) 0.9190(3) 0.2581(4)
H27 H -1.0827 0.9271 0.2843
O23 O -1.9279(10) 0.8860(3) 0.1881(4)
O24 O -1.7250(10) 0.8268(3) 0.1867(4)
O25 O -1.5435(9) 0.7953(3) 0.2944(4)
O26 O -1.6208(11) 0.7262(3) 0.3741(4)
P1 P -1.4683(3) 0.84218(11) 0.31188(15)
P2 P -1.8922(4) 0.83612(11) 0.20445(15)
Cu3_2 Cu -2.11941(18) 0.92365(5) 0.16717(8)
Mo2_2 Mo -1.79250(12) 0.87415(4) 0.37186(5)
Mo5_2 Mo -0.71998(13) 0.93934(4) 0.24618(5)
O5_2 O -0.8823(10) 0.8277(3) 0.2791(4)
O17_2 O -0.7071(10) 0.8156(3) 0.3947(4)
O18_2 O -1.8426(9) 0.9240(3) 0.3118(4)
O19_2 O -0.6056(9) 0.8772(3) 0.3139(4)
O23_2 O -0.9279(10) 0.8860(3) 0.1881(4)
O27 O 0.2352(15) 0.6577(4) 0.4385(6)
O28 O 0.074(3) 0.7256(7) 0.5027(8)
O29 O 0.7114(11) 0.7281(3) 0.3673(5)
O30 O 0.432(3) 0.1344(9) 0.2002(14)
O31 O 0.368(4) 0.1505(12) 0.031(2)
loop_
_geom_bond_atom_site_label_1
_geom_bond_atom_site_label_2
_geom_bond_site_symmetry_1
_geom_bond_site_symmetry_2
C1 H1 1_555 1_555
C2 H2 1_555 1_555
C3 H3 1_555 1_555
C4 C3 1_555 1_555
H4 C4 1_555 1_555
C5 C4 1_555 1_555
H5 C5 1_555 1_555
C6 C5 1_555 1_555
C7 C6 1_555 1_555
C8 C7 1_555 1_555
C9 C2 1_555 1_555
C10 C9 1_555 1_555
H6 C10 1_555 1_555
C11 C6 1_555 1_555
H7 C11 1_555 1_555
C12 H8 1_555 1_555
C13 H9 1_555 1_555
C14 C13 1_555 1_555
C15 C14 1_555 1_555
H10 C15 1_555 1_555
C16 C17 1_555 1_555
C17 H11 1_555 1_555
C18 C16 1_555 1_555
C19 C15 1_555 1_555
H12 C19 1_555 1_555
C20 H13 1_555 1_555
C21 C20 1_555 1_555
H14 C21 1_555 1_555
C22 C21 1_555 1_555
H15 C22 1_555 1_555
C23 C22 1_555 1_555
C24 C23 1_555 1_555
C25 C24 1_555 1_555
C26 H16 1_555 1_555
C27 C26 1_555 1_555
H17 C27 1_555 1_555
C28 C27 1_555 1_555
H18 C28 1_555 1_555
C29 C25 1_555 1_555
C30 C29 1_555 1_555
H19 C30 1_555 1_555
C31 C23 1_555 1_555
H20 C31 1_555 1_555
C32 C14 1_555 1_555
C33 C1 1_555 1_555
H21 C33 1_555 1_555
C34 H22 1_555 1_555
C35 C2 1_555 1_555
H23 C35 1_555 1_555
C36 C17 1_555 1_555
H24 C36 1_555 1_555
Cu1 N3 1_555 1_555
Cu2 N5 1_555 1_555
Cu3 N1 1_555 1_555
Mo1 O4 1_555 1_555
Mo2 O1 1_555 1_555
Mo3 O10 1_555 1_555
Mo4 O7 1_555 1_555
Mo5 O13 1_555 1_555
N1 C1 1_555 1_555
N2 C18 1_555 1_555
N3 C3 1_555 1_555
N4 C8 1_555 1_555
N5 C20 1_555 1_555
N6 C25 1_555 1_555
O2 Cu1 1_555 1_555
H25 O2 1_555 1_555
O3 Cu1 1_555 1_555
O5 Mo1 1_555 1_555
O6 Cu2 1_555 1_555
H26 O6 1_555 1_555
O7 Cu2 1_555 1_555
O8 Cu2 1_555 1_555
O9 Mo4 1_555 1_555
O11 Mo3 1_555 1_555
O12 Cu3 1_555 1_555
O14 Mo5 1_555 1_555
O15 Mo4 1_555 1_555
O16 Cu1 1_555 1_555
O17 Mo1 1_555 1_555
O18 Mo2 1_555 1_555
O19 Mo5 1_555 1_555
O20 Mo3 1_555 1_555
O21 Mo3 1_555 1_555
O22 Cu3 1_555 1_555
H27 O22 1_555 1_555
O23 Mo5 1_555 1_555
O24 Mo3 1_555 1_555
O25 Mo1 1_555 1_555
O26 Mo1 1_555 1_555
P1 O3 1_555 1_555
P2 O5 1_555 1_555
Cu3_2 O23 1_555 1_555
Mo2_2 O5 1_555 1_555
Mo5_2 O18 1_555 1_555
O5_2 Mo2 1_555 1_555
O17_2 Mo2 1_555 1_555
O18_2 Mo5 1_555 1_555
O19_2 Mo2 1_555 1_555
O23_2 Cu3 1_555 1_555
C7 N3 1_555 1_555
C8 C9 1_555 1_555
C10 C11 1_555 1_555
C12 C35 1_555 1_555
C12 N4 1_555 1_555
C13 C33 1_555 1_555
C16 C19 1_555 1_555
C18 C32 1_555 1_555
C24 N5 1_555 1_555
C26 N6 1_555 1_555
C28 C29 1_555 1_555
C30 C31 1_555 1_555
C32 N1 1_555 1_555
C34 C36 1_555 1_555
C34 N2 1_555 1_555
Cu1 N4 1_555 1_555
Cu2 N6 1_555 1_555
Cu3 N2 1_555 1_555
Mo1 O7 1_555 1_555
Mo2 O16 1_555 1_555
Mo3 O12 1_555 1_555
Mo4 O11 1_555 1_555
Mo4 O24 1_555 1_555
Mo4 O25 1_555 1_555
Mo5 O21 1_555 1_555
O8 P2 1_555 1_555
O17 Mo2_2 1_555 1_555
O19 P1 1_555 1_555
O19 Mo2_2 1_555 1_555
O20 P1 1_555 1_555
O23 P2 1_555 1_555
O24 P2 1_555 1_555
O25 P1 1_555 1_555
Mo2_2 O18_2 1_555 1_555
Mo5_2 O19_2 1_555 1_555
Mo5_2 O23_2 1_555 1_555

#END
