
#######################################################################
#
#                 Cambridge Crystallographic Data Centre
#                                CCDC 
#
#######################################################################
#
# If this CIF has been generated from an entry in the Cambridge 
# Structural Database, then it will include bibliographic, chemical, 
# crystal, experimental, refinement or atomic coordinate data resulting 
# from the CCDC's data processing and validation procedures.
#
#######################################################################

data_SAKRAZ
_symmetry_cell_setting           orthorhombic
_symmetry_space_group_name_H-M   'P 21 21 21'
_symmetry_Int_Tables_number      19
_space_group_name_Hall           'P 2ac 2ab'
loop_
_symmetry_equiv_pos_site_id
_symmetry_equiv_pos_as_xyz
1 x,y,z
2 1/2-x,-y,1/2+z
3 -x,1/2+y,1/2-z
4 1/2+x,1/2-y,-z
_cell_length_a                   10.334(2)
_cell_length_b                   11.672(2)
_cell_length_c                   20.341(4)
_cell_angle_alpha                90
_cell_angle_beta                 90
_cell_angle_gamma                90
_cell_volume                     2453.5
loop_
_atom_site_label
_atom_site_type_symbol
_atom_site_fract_x
_atom_site_fract_y
_atom_site_fract_z
Zn1 Zn 0.84731(3) 0.32513(3) -0.011465(19)
Zn2 Zn 0.53438(3) 0.41947(3) -0.007170(19)
O1 O 0.8234(2) 0.4171(2) 0.07101(11)
O2 O 0.6091(2) 0.4462(2) 0.08297(11)
O3 O 0.9052(2) 0.5399(2) 0.40334(12)
O4 O 0.6944(2) 0.5838(2) 0.40903(12)
C1 C 0.7237(3) 0.4436(3) 0.10387(15)
C2 C 0.7439(3) 0.4758(3) 0.17451(16)
C3 C 0.8663(3) 0.4648(3) 0.20312(17)
H1 H 0.9359 0.4393 0.1781
C4 C 0.6405(3) 0.5173(3) 0.21160(17)
H2 H 0.5600 0.5281 0.1920
C5 C 0.8839(3) 0.4921(3) 0.26940(16)
H3 H 0.9652 0.4854 0.2886
C6 C 0.6576(3) 0.5424(3) 0.27736(17)
H4 H 0.5881 0.5680 0.3024
C7 C 0.7790(3) 0.5293(3) 0.30636(16)
C8 C 0.7948(3) 0.5541(3) 0.37917(15)
O5 O 0.6496(2) 0.26876(19) -0.00984(12)
O6 O 0.5313(2) 0.1197(2) 0.02414(13)
O7 O 0.8707(2) 0.16134(17) 0.00579(12)
C9 C 0.6375(3) 0.1688(3) 0.01257(14)
C10 C 0.7600(3) 0.1049(3) 0.03165(17)
H5 H 0.7559 0.0277 0.0128
C11 C 0.7664(3) 0.0942(3) 0.10628(18)
H6 H 0.8433 0.0533 0.1184
H7 H 0.6918 0.0533 0.1218
H8 H 0.7681 0.1692 0.1256
O8 O 0.4555(2) 0.58719(19) -0.00177(12)
N1 N 0.4403(3) 0.7655(2) 0.04140(17)
C12 C 0.4846(3) 0.6611(3) 0.03948(17)
H9 H 0.5433 0.6400 0.0720
C13 C 0.4802(5) 0.8470(4) 0.0935(2)
H10 H 0.5453 0.8122 0.1206
H11 H 0.4066 0.8666 0.1200
H12 H 0.5146 0.9151 0.0736
C14 C 0.3409(4) 0.8036(4) -0.0053(3)
H13 H 0.3239 0.7437 -0.0364
H14 H 0.3709 0.8706 -0.0281
H15 H 0.2628 0.8216 0.0182
Zn1A Zn 0.65269(3) 0.67487(3) 0.488535(19)
Zn1C Zn 0.34731(3) 0.17487(3) 0.011465(19)
Zn2A Zn 0.96562(3) 0.58053(3) 0.492830(19)
Zn2C Zn 1.03438(3) 0.08053(3) 0.007170(19)
O3A O 0.5948(2) 0.4601(2) -0.09666(12)
O4A O 0.8056(2) 0.4162(2) -0.09097(12)
O6C O 1.0313(2) 0.3803(2) -0.02414(13)
O7C O 0.3707(2) 0.33866(17) -0.00579(12)
O9 O 0.8906(4) 0.1796(3) -0.17282(18)
H16 H 0.9441 0.1436 -0.1513
C15 C 0.7742(4) -0.0011(3) -0.1882(2)
C16 C 0.7909(4) -0.1075(4) -0.2176(2)
H17 H 0.8424 -0.1142 -0.2549
C17 C 0.7315(5) -0.2027(4) -0.1919(3)
H18 H 0.7438 -0.2739 -0.2115
C18 C 0.6529(5) -0.1929(5) -0.1366(3)
H19 H 0.6099 -0.2568 -0.1203
C19 C 0.6390(5) -0.0878(5) -0.1061(3)
H20 H 0.5891 -0.0813 -0.0683
C20 C 0.6997(5) 0.0078(4) -0.1320(2)
H21 H 0.6902 0.0786 -0.1115
C21 C 0.8321(5) 0.1051(4) -0.2203(2)
H22 H 0.8982 0.0811 -0.2520
C22 C 0.7321(5) 0.1748(4) -0.2555(3)
H23 H 0.7727 0.2400 -0.2756
H24 H 0.6679 0.2003 -0.2248
H25 H 0.6917 0.1288 -0.2888
loop_
_geom_bond_atom_site_label_1
_geom_bond_atom_site_label_2
_geom_bond_site_symmetry_1
_geom_bond_site_symmetry_2
Zn1 O1 1_555 1_555
Zn2 O2 1_555 1_555
O1 C1 1_555 1_555
O2 C1 1_555 1_555
O3 C8 1_555 1_555
O4 C8 1_555 1_555
C1 C2 1_555 1_555
C2 C3 1_555 1_555
C3 H1 1_555 1_555
C4 C2 1_555 1_555
H2 C4 1_555 1_555
C5 C3 1_555 1_555
H3 C5 1_555 1_555
C6 C4 1_555 1_555
H4 C6 1_555 1_555
C7 C5 1_555 1_555
C8 C7 1_555 1_555
O5 Zn1 1_555 1_555
O6 C9 1_555 1_555
O7 Zn1 1_555 1_555
C9 O5 1_555 1_555
C10 O7 1_555 1_555
H5 C10 1_555 1_555
C11 C10 1_555 1_555
H6 C11 1_555 1_555
H7 C11 1_555 1_555
H8 C11 1_555 1_555
O8 Zn2 1_555 1_555
N1 C12 1_555 1_555
C12 O8 1_555 1_555
H9 C12 1_555 1_555
C13 N1 1_555 1_555
H10 C13 1_555 1_555
H11 C13 1_555 1_555
H12 C13 1_555 1_555
C14 N1 1_555 1_555
H13 C14 1_555 1_555
H14 C14 1_555 1_555
H15 C14 1_555 1_555
O9 H16 1_555 1_555
C15 C16 1_555 1_555
C16 H17 1_555 1_555
C17 C16 1_555 1_555
H18 C17 1_555 1_555
C18 C17 1_555 1_555
H19 C18 1_555 1_555
C19 C18 1_555 1_555
H20 C19 1_555 1_555
C20 C15 1_555 1_555
H21 C20 1_555 1_555
C21 O9 1_555 1_555
H22 C21 1_555 1_555
C22 C21 1_555 1_555
H23 C22 1_555 1_555
H24 C22 1_555 1_555
H25 C22 1_555 1_555
Zn1A O4 1_555 1_555
Zn1C O6 1_555 1_555
Zn2A O3 1_555 1_555
Zn2C O7 1_555 1_555
O3A Zn2 1_555 1_555
O4A Zn1 1_555 1_555
O6C Zn1 1_555 1_555
O7C Zn2 1_555 1_555
Zn2 O5 1_555 1_555
C6 C7 1_555 1_555
C9 C10 1_555 1_555
C15 C21 1_555 1_555
C19 C20 1_555 1_555
Zn1C O7C 1_555 1_555

#END
