
#######################################################################
#
#                 Cambridge Crystallographic Data Centre
#                                CCDC 
#
#######################################################################
#
# If this CIF has been generated from an entry in the Cambridge 
# Structural Database, then it will include bibliographic, chemical, 
# crystal, experimental, refinement or atomic coordinate data resulting 
# from the CCDC's data processing and validation procedures.
#
#######################################################################

data_SAKRED
_symmetry_cell_setting           orthorhombic
_symmetry_space_group_name_H-M   'P 21 21 21'
_symmetry_Int_Tables_number      19
_space_group_name_Hall           'P 2ac 2ab'
loop_
_symmetry_equiv_pos_site_id
_symmetry_equiv_pos_as_xyz
1 x,y,z
2 1/2-x,-y,1/2+z
3 -x,1/2+y,1/2-z
4 1/2+x,1/2-y,-z
_cell_length_a                   10.337(2)
_cell_length_b                   11.649(2)
_cell_length_c                   20.464(4)
_cell_angle_alpha                90
_cell_angle_beta                 90
_cell_angle_gamma                90
_cell_volume                     2464.19
loop_
_atom_site_label
_atom_site_type_symbol
_atom_site_fract_x
_atom_site_fract_y
_atom_site_fract_z
Zn1 Zn 0.04354(3) 0.42234(3) -0.00678(2)
Zn2 Zn 0.35700(3) 0.32479(3) -0.00728(2)
O1 O 0.3329(2) 0.4141(2) 0.07553(12)
O2 O 0.1219(3) 0.4579(2) 0.07990(12)
O3 O 0.3818(2) 0.5353(2) 0.40725(12)
O4 O 0.1800(2) 0.6088(2) 0.40491(13)
C1 C 0.2329(3) 0.4467(3) 0.10468(16)
C2 C 0.2454(3) 0.4778(3) 0.17575(17)
C3 C 0.1384(3) 0.5187(3) 0.20975(17)
H1 H 0.0596 0.5274 0.1884
C4 C 0.3629(4) 0.4654(4) 0.20773(18)
H2 H 0.4346 0.4385 0.1850
C5 C 0.1489(3) 0.5467(3) 0.27605(17)
H3 H 0.0773 0.5743 0.2986
C6 C 0.3740(3) 0.4929(4) 0.27356(17)
H4 H 0.4531 0.4844 0.2947
C7 C 0.2666(3) 0.5332(3) 0.30809(16)
C8 C 0.2772(3) 0.5620(3) 0.37939(17)
O5 O 0.1586(2) 0.2708(2) -0.00535(12)
O6 O 0.0403(2) 0.1156(2) 0.01848(13)
O7 O 0.3801(2) 0.15880(19) 0.00706(14)
C9 C 0.1460(3) 0.1670(3) 0.01210(15)
C10 C 0.2676(3) 0.1004(3) 0.02896(19)
H5 H 0.2636 0.0254 0.0073
C11 C 0.2732(3) 0.0813(4) 0.1028(2)
H6 H 0.3501 0.0392 0.1136
H7 H 0.1986 0.0385 0.1165
H8 H 0.2743 0.1541 0.1247
O8 O -0.0392(2) 0.5892(2) -0.00522(13)
N1 N -0.0678(3) 0.7663(3) 0.03800(19)
C12 C -0.0168(4) 0.6628(3) 0.03705(19)
H9 H 0.0401 0.6435 0.0705
C13 C -0.1616(5) 0.8018(4) -0.0110(3)
H10 H -0.1723 0.7416 -0.0426
H11 H -0.1313 0.8700 -0.0325
H12 H -0.2431 0.8172 0.0097
C14 C -0.0372(6) 0.8489(4) 0.0890(3)
H13 H 0.0269 0.8171 0.1177
H14 H -0.1140 0.8663 0.1134
H15 H -0.0042 0.9179 0.0695
Zn1A Zn 0.45646(3) 0.57766(3) 0.49322(2)
Zn1C Zn 0.54354(3) 0.07766(3) 0.00678(2)
Zn2A Zn 0.14300(3) 0.67521(3) 0.49272(2)
Zn2C Zn -0.14300(3) 0.17521(3) 0.00728(2)
O3A O 0.1182(2) 0.4647(2) -0.09275(12)
O4A O 0.3200(2) 0.3912(2) -0.09509(13)
O6C O 0.5403(2) 0.3844(2) -0.01848(13)
O7C O -0.1199(2) 0.34120(19) -0.00706(14)
O9 O 0.3979(5) 0.1429(5) -0.2645(3)
H16 H 0.4138 0.2063 -0.2799
C15 C 0.1691(6) -0.1768(6) -0.1435(4)
H17 H 0.1377 -0.2457 -0.1269
C16 C 0.2417(7) -0.1761(5) -0.2006(3)
H18 H 0.2644 -0.2441 -0.2215
C17 C 0.2795(5) -0.0700(5) -0.2253(3)
H19 H 0.3270 -0.0684 -0.2639
C18 C 0.2499(5) 0.0338(5) -0.1953(3)
C19 C 0.1829(6) 0.0301(6) -0.1362(3)
H20 H 0.1653 0.0979 -0.1138
C20 C 0.1427(6) -0.0727(6) -0.1109(3)
H21 H 0.0975 -0.0740 -0.0716
C21 C 0.2844(6) 0.1497(5) -0.2248(3)
H22 H 0.2984 0.2056 -0.1896
C22 C 0.1800(7) 0.1920(6) -0.2690(3)
H23 H 0.2043 0.2651 -0.2868
H24 H 0.1010 0.1999 -0.2448
H25 H 0.1674 0.1381 -0.3039
loop_
_geom_bond_atom_site_label_1
_geom_bond_atom_site_label_2
_geom_bond_site_symmetry_1
_geom_bond_site_symmetry_2
Zn1 O2 1_555 1_555
Zn2 O1 1_555 1_555
O1 C1 1_555 1_555
O2 C1 1_555 1_555
O3 C8 1_555 1_555
O4 C8 1_555 1_555
C1 C2 1_555 1_555
C2 C3 1_555 1_555
C3 H1 1_555 1_555
C4 C2 1_555 1_555
H2 C4 1_555 1_555
C5 C3 1_555 1_555
H3 C5 1_555 1_555
C6 C4 1_555 1_555
H4 C6 1_555 1_555
C7 C5 1_555 1_555
C8 C7 1_555 1_555
O5 Zn1 1_555 1_555
O6 C9 1_555 1_555
O7 Zn2 1_555 1_555
C9 O5 1_555 1_555
C10 O7 1_555 1_555
H5 C10 1_555 1_555
C11 C10 1_555 1_555
H6 C11 1_555 1_555
H7 C11 1_555 1_555
H8 C11 1_555 1_555
O8 Zn1 1_555 1_555
N1 C12 1_555 1_555
C12 O8 1_555 1_555
H9 C12 1_555 1_555
C13 N1 1_555 1_555
H10 C13 1_555 1_555
H11 C13 1_555 1_555
H12 C13 1_555 1_555
C14 N1 1_555 1_555
H13 C14 1_555 1_555
H14 C14 1_555 1_555
H15 C14 1_555 1_555
O9 H16 1_555 1_555
C15 H17 1_555 1_555
C16 C15 1_555 1_555
H18 C16 1_555 1_555
C17 C16 1_555 1_555
H19 C17 1_555 1_555
C18 C17 1_555 1_555
C19 C18 1_555 1_555
H20 C19 1_555 1_555
C20 C15 1_555 1_555
H21 C20 1_555 1_555
C21 O9 1_555 1_555
H22 C21 1_555 1_555
C22 C21 1_555 1_555
H23 C22 1_555 1_555
H24 C22 1_555 1_555
H25 C22 1_555 1_555
Zn1A O3 1_555 1_555
Zn1C O7 1_555 1_555
Zn2A O4 1_555 1_555
Zn2C O6 1_555 1_555
O3A Zn1 1_555 1_555
O4A Zn2 1_555 1_555
O6C Zn2 1_555 1_555
O7C Zn1 1_555 1_555
Zn2 O5 1_555 1_555
C6 C7 1_555 1_555
C9 C10 1_555 1_555
C18 C21 1_555 1_555
C19 C20 1_555 1_555
Zn2C O7C 1_555 1_555

#END
