
#######################################################################
#
#                 Cambridge Crystallographic Data Centre
#                                CCDC 
#
#######################################################################
#
# If this CIF has been generated from an entry in the Cambridge 
# Structural Database, then it will include bibliographic, chemical, 
# crystal, experimental, refinement or atomic coordinate data resulting 
# from the CCDC's data processing and validation procedures.
#
#######################################################################

data_SAKSOO
_symmetry_cell_setting           monoclinic
_symmetry_space_group_name_H-M   'C 2/c'
_symmetry_Int_Tables_number      15
_space_group_name_Hall           '-C 2yn'
loop_
_symmetry_equiv_pos_site_id
_symmetry_equiv_pos_as_xyz
1 x,y,z
2 -x,y,1/2-z
3 1/2+x,1/2+y,z
4 1/2-x,1/2+y,1/2-z
5 -x,-y,-z
6 x,-y,1/2+z
7 1/2-x,1/2-y,-z
8 1/2+x,1/2-y,1/2+z
_cell_length_a                   29.28(2)
_cell_length_b                   14.524(10)
_cell_length_c                   20.084(15)
_cell_angle_alpha                90
_cell_angle_beta                 115.414(11)
_cell_angle_gamma                90
_cell_volume                     7714.47
loop_
_atom_site_label
_atom_site_type_symbol
_atom_site_fract_x
_atom_site_fract_y
_atom_site_fract_z
Cd1 Cd 0.134426(16) 0.48068(3) 0.28729(2)
N1 N -0.2262(2) 0.3342(4) -0.2118(3)
N2 N -0.20083(18) 0.4569(4) -0.2684(3)
N3 N -0.28367(19) 0.3895(4) -0.3299(3)
N4 N -0.1474(2) 0.4010(4) -0.1530(3)
H1 H -0.1258 0.4419 -0.1519
N5 N -0.3057(2) 0.2733(4) -0.2739(3)
H2 H -0.2984 0.2367 -0.2371
N6 N -0.2604(2) 0.5111(5) -0.3811(3)
H3 H -0.2420 0.5592 -0.3758
C1 C -0.1927(2) 0.3956(4) -0.2122(3)
C2 C -0.2701(2) 0.3338(4) -0.2720(3)
C3 C -0.2477(2) 0.4490(5) -0.3252(3)
C4 C -0.1349(3) 0.3384(6) -0.0914(3)
H6 H -0.1619 0.3385 -0.0755
H7 H -0.1315 0.2763 -0.1066
C5 C -0.3557(2) 0.2669(5) -0.3350(3)
H8 H -0.3774 0.2302 -0.3200
H9 H -0.3702 0.3280 -0.3473
C6 C -0.3051(4) 0.4960(8) -0.4497(5)
H10 H -0.3004 0.4411 -0.4737
H11 H -0.3341 0.4860 -0.4392
C7 C 0.0482(2) 0.4560(5) 0.1605(3)
C8 C -0.3569(3) 0.0926(7) -0.5967(4)
C9 C -0.3501(2) 0.8083(4) -0.6482(3)
C10 C -0.0853(2) 0.3678(5) -0.0273(3)
C11 C -0.0383(3) 0.3553(6) -0.0246(3)
H12 H -0.0358 0.3268 -0.0644
C12 C 0.0056(3) 0.3825(6) 0.0341(3)
H13 H 0.0371 0.3719 0.0346
C13 C 0.0008(2) 0.4272(5) 0.0935(3)
C14 C -0.0455(3) 0.4434(6) 0.0908(4)
H14 H -0.0482 0.4751 0.1292
C15 C -0.0889(3) 0.4134(6) 0.0318(4)
H15 H -0.1204 0.4235 0.0313
C16 C -0.3538(2) 0.2236(5) -0.4029(3)
C17 C -0.3289(3) 0.1406(6) -0.3987(4)
H16 H -0.3115 0.1122 -0.3532
C18 C -0.3297(3) 0.1006(6) -0.4604(4)
H17 H -0.3128 0.0451 -0.4559
C19 C -0.3546(3) 0.1393(6) -0.5292(4)
C20 C -0.3789(3) 0.2238(7) -0.5344(4)
H18 H -0.3965 0.2513 -0.5802
C21 C -0.3766(3) 0.2666(5) -0.4715(4)
H19 H -0.3906 0.3250 -0.4751
C22 C -0.3152(3) 0.5770(6) -0.5009(4)
C23 C -0.3603(3) 0.6210(7) -0.5245(4)
H20 H -0.3843 0.6011 -0.5088
C24 C -0.3710(3) 0.6971(6) -0.5728(4)
H21 H -0.4017 0.7277 -0.5874
C25 C -0.3380(3) 0.7259(5) -0.5980(3)
C26 C -0.2909(3) 0.6788(6) -0.5747(4)
H22 H -0.2674 0.6965 -0.5919
C27 C -0.2814(3) 0.6073(6) -0.5267(4)
H23 H -0.2504 0.5775 -0.5105
O1 O 0.09078(17) 0.4364(4) 0.1629(2)
O3 O 0.0440(2) 0.4952(5) 0.2133(3)
O4 O -0.3842(3) 0.1210(5) -0.6588(3)
O5 O -0.3345(3) 0.0223(5) -0.5893(4)
O6 O -0.3931(2) 0.8401(4) -0.6747(3)
O7 O -0.31472(18) 0.8420(3) -0.6624(2)
Cd1D Cd -0.134426(16) 0.51932(3) -0.28729(2)
Cd1B Cd -0.365574(16) -0.01932(3) -0.71271(2)
Cd1B_2 Cd -0.365574(16) 0.98068(3) -0.71271(2)
N2D N 0.20083(18) 0.5431(4) 0.2684(3)
O4B O 0.1158(3) 0.6210(5) 0.3412(3)
O5B O 0.1655(3) 0.5223(5) 0.4107(4)
O6B O 0.1069(2) 0.3401(4) 0.3253(3)
O7B O 0.18528(18) 0.3420(3) 0.3376(2)
N7 N 0.5000 0.2222(9) 0.7500
H4 H 0.4739 0.1855 0.7226
C28 C 0.4825(6) 0.2821(13) 0.8004(11)
H24 H 0.4737 0.2424 0.8312
H25 H 0.4537 0.3184 0.7700
H26 H 0.5096 0.3221 0.8307
H4A H 0.5261 0.1855 0.7774
C28A C 0.5175(6) 0.2821(13) 0.6996(11)
H24A H 0.5263 0.2424 0.6688
H25A H 0.5463 0.3184 0.7300
H26A H 0.4904 0.3221 0.6693
N8 N 0.0000 0.3537(10) -0.2500
H5 H 0.0273 0.3906 -0.2323
C29 C -0.0004(6) 0.3080(12) -0.1894(9)
H27 H -0.0008 0.3523 -0.1541
H28 H 0.0294 0.2704 -0.1671
H29 H -0.0299 0.2699 -0.2050
H5A H -0.0273 0.3906 -0.2677
C29A C 0.0004(6) 0.3080(12) -0.3106(9)
H27A H 0.0008 0.3523 -0.3459
H28A H -0.0294 0.2704 -0.3329
H29A H 0.0299 0.2699 -0.2950
O2 O 0.3524(7) 0.5983(15) 0.7140(10)
loop_
_geom_bond_atom_site_label_1
_geom_bond_atom_site_label_2
_geom_bond_site_symmetry_1
_geom_bond_site_symmetry_2
Cd1 O1 1_555 1_555
N1 C1 1_555 1_555
N2 C1 1_555 1_555
N3 C2 1_555 1_555
N4 H1 1_555 1_555
N5 H2 1_555 1_555
N6 H3 1_555 1_555
N7 H4 1_555 1_555
N8 H5 1_555 1_555
C1 N4 1_555 1_555
C2 N1 1_555 1_555
C3 N2 1_555 1_555
C4 N4 1_555 1_555
H6 C4 1_555 1_555
H7 C4 1_555 1_555
C5 N5 1_555 1_555
H8 C5 1_555 1_555
H9 C5 1_555 1_555
C6 N6 1_555 1_555
H10 C6 1_555 1_555
H11 C6 1_555 1_555
C7 C13 1_555 1_555
C8 C19 1_555 1_555
C9 C25 1_555 1_555
C10 C4 1_555 1_555
C11 C10 1_555 1_555
H12 C11 1_555 1_555
C12 C11 1_555 1_555
H13 C12 1_555 1_555
C13 C12 1_555 1_555
C14 C13 1_555 1_555
H14 C14 1_555 1_555
C15 C10 1_555 1_555
H15 C15 1_555 1_555
C16 C5 1_555 1_555
C17 C16 1_555 1_555
H16 C17 1_555 1_555
C18 C17 1_555 1_555
H17 C18 1_555 1_555
C19 C18 1_555 1_555
C20 C19 1_555 1_555
H18 C20 1_555 1_555
C21 C16 1_555 1_555
H19 C21 1_555 1_555
C22 C6 1_555 1_555
C23 C22 1_555 1_555
H20 C23 1_555 1_555
C24 C23 1_555 1_555
H21 C24 1_555 1_555
C25 C24 1_555 1_555
C26 C25 1_555 1_555
H22 C26 1_555 1_555
C27 C22 1_555 1_555
H23 C27 1_555 1_555
C28 N7 1_555 1_555
H24 C28 1_555 1_555
H25 C28 1_555 1_555
H26 C28 1_555 1_555
C29 N8 1_555 1_555
H27 C29 1_555 1_555
H28 C29 1_555 1_555
H29 C29 1_555 1_555
O1 C7 1_555 1_555
O3 Cd1 1_555 1_555
O4 C8 1_555 1_555
O5 C8 1_555 1_555
O6 C9 1_555 1_555
O7 C9 1_555 1_555
Cd1D N2 1_555 1_555
Cd1B O4 1_555 1_555
Cd1B_2 O6 1_555 1_555
N2D Cd1 1_555 1_555
H4A N7 1_555 1_555
H5A N8 1_555 1_555
C28A N7 1_555 1_555
H24A C28A 1_555 1_555
H25A C28A 1_555 1_555
H26A C28A 1_555 1_555
C29A N8 1_555 1_555
H27A C29A 1_555 1_555
H28A C29A 1_555 1_555
H29A C29A 1_555 1_555
O4B Cd1 1_555 1_555
O5B Cd1 1_555 1_555
O6B Cd1 1_555 1_555
O7B Cd1 1_555 1_555
N3 C3 1_555 1_555
N5 C2 1_555 1_555
N6 C3 1_555 1_555
C7 O3 1_555 1_555
C14 C15 1_555 1_555
C20 C21 1_555 1_555
C26 C27 1_555 1_555
O5 Cd1B 1_555 1_555
O7 Cd1B_2 1_555 1_555

#END
