
#######################################################################
#
#                 Cambridge Crystallographic Data Centre
#                                CCDC 
#
#######################################################################
#
# If this CIF has been generated from an entry in the Cambridge 
# Structural Database, then it will include bibliographic, chemical, 
# crystal, experimental, refinement or atomic coordinate data resulting 
# from the CCDC's data processing and validation procedures.
#
#######################################################################

data_SAKSII
_symmetry_cell_setting           monoclinic
_symmetry_space_group_name_H-M   'P 21/c'
_symmetry_Int_Tables_number      14
_space_group_name_Hall           '-P 2ybc'
loop_
_symmetry_equiv_pos_site_id
_symmetry_equiv_pos_as_xyz
1 x,y,z
2 -x,1/2+y,1/2-z
3 -x,-y,-z
4 x,1/2-y,1/2+z
_cell_length_a                   12.943(4)
_cell_length_b                   12.329(3)
_cell_length_c                   23.867(5)
_cell_angle_alpha                90
_cell_angle_beta                 108.881(12)
_cell_angle_gamma                90
_cell_volume                     3603.63
loop_
_atom_site_label
_atom_site_type_symbol
_atom_site_fract_x
_atom_site_fract_y
_atom_site_fract_z
Cd1 Cd 0.25767(2) 0.48046(2) -0.236148(12)
O1 O 0.1838(2) 0.3169(2) -0.21732(15)
O2 O 0.2854(2) 0.3050(2) -0.27600(14)
O3 O 0.1003(3) 0.0140(2) 0.17176(15)
O4 O 0.2496(2) -0.0768(3) 0.17902(13)
O5 O 0.5691(3) -0.5807(4) 0.18904(16)
O6 O 0.6011(3) -0.4309(3) 0.15020(18)
N1 N 0.1523(3) -0.2685(2) -0.25765(15)
H1 H 0.2077 -0.2941 -0.2656
N2 N 0.1716(2) -0.4056(2) -0.18775(14)
N3 N 0.0693(3) -0.2446(2) -0.18734(15)
N4 N 0.0841(3) -0.3812(2) -0.11410(14)
N5 N -0.0205(3) -0.2266(3) -0.12075(15)
H2 H -0.0383 -0.1637 -0.1365
N6 N 0.1840(3) -0.5339(3) -0.11548(17)
H3 H 0.2220 -0.5713 -0.1321
C1 C 0.1306(3) -0.3066(3) -0.20942(17)
C2 C 0.0468(3) -0.2867(3) -0.14116(16)
C3 C 0.1455(3) -0.4375(3) -0.13936(16)
C4 C 0.0838(4) -0.1851(3) -0.29692(19)
H4 H 0.0106 -0.1897 -0.2945
H5 H 0.0794 -0.2013 -0.3374
C5 C -0.0644(4) -0.2592(4) -0.0751(2)
H6 H -0.0569 -0.3372 -0.0699
H7 H -0.1417 -0.2421 -0.0877
C6 C 0.1686(4) -0.5787(4) -0.06314(18)
H8 H 0.1550 -0.6559 -0.0689
H9 H 0.1045 -0.5459 -0.0576
C7 C 0.2234(3) 0.2624(3) -0.2500(2)
C8 C 0.1529(3) -0.0504(3) 0.15079(17)
C9 C 0.5438(4) -0.5129(4) 0.1480(2)
C10 C 0.1248(3) -0.0700(3) -0.28273(17)
C11 C 0.1877(4) -0.0218(3) -0.3131(2)
H10 H 0.2070 -0.0614 -0.3414
C12 C 0.2222(3) 0.0851(3) -0.3016(2)
H11 H 0.2647 0.1164 -0.3221
C13 C 0.1939(3) 0.1451(3) -0.26004(19)
C14 C 0.1305(4) 0.0970(3) -0.2295(2)
H12 H 0.1114 0.1366 -0.2012
C15 C 0.0957(4) -0.0096(3) -0.2412(2)
H13 H 0.0526 -0.0407 -0.2210
C16 C -0.0085(3) -0.2046(4) -0.01620(19)
C17 C -0.0649(3) -0.1355(3) 0.0092(2)
H14 H -0.1387 -0.1224 -0.0100
C18 C -0.0133(3) -0.0859(3) 0.06227(19)
H15 H -0.0527 -0.0405 0.0789
C19 C 0.0974(3) -0.1027(3) 0.09161(17)
C20 C 0.1543(4) -0.1706(5) 0.0663(2)
H16 H 0.2283 -0.1828 0.0854
C21 C 0.1022(4) -0.2207(5) 0.0127(2)
H17 H 0.1417 -0.2656 -0.0042
C22 C 0.2653(3) -0.5613(3) -0.00782(19)
C23 C 0.3202(6) -0.4646(5) 0.0047(3)
H18 H 0.2961 -0.4069 -0.0213
C24 C 0.4088(6) -0.4497(5) 0.0540(3)
H19 H 0.4449 -0.3834 0.0600
C25 C 0.4450(4) -0.5302(4) 0.0943(2)
C26 C 0.3903(4) -0.6282(4) 0.0840(2)
H20 H 0.4127 -0.6843 0.1113
C27 C 0.3022(4) -0.6426(4) 0.0332(2)
H21 H 0.2668 -0.7093 0.0265
Cd1C Cd 0.25767(2) 0.01954(2) 0.263852(12)
Cd1B Cd 0.74233(2) -0.48046(2) 0.236148(12)
Cd1_2 Cd 0.25767(2) -0.51954(2) -0.236148(12)
O3C O 0.1003(3) 0.4860(2) -0.32824(15)
O4C O 0.2496(2) 0.5768(3) -0.32098(13)
O5B O 0.4309(3) 0.5807(4) -0.18904(16)
O6B O 0.3989(3) 0.4309(3) -0.15020(18)
N2_2 N 0.1716(2) 0.5944(2) -0.18775(14)
N7 N 0.4939(3) 0.2289(4) -0.2469(2)
H22 H 0.4253 0.2530 -0.2643
H23 H 0.5088 0.1805 -0.2715
C28 C 0.5007(6) 0.1746(9) -0.1908(4)
H24 H 0.4495 0.1157 -0.1985
H25 H 0.4839 0.2257 -0.1646
H26 H 0.5733 0.1471 -0.1726
C29 C 0.5693(6) 0.3198(7) -0.2383(5)
H27 H 0.5621 0.3525 -0.2758
H28 H 0.6428 0.2943 -0.2205
H29 H 0.5527 0.3725 -0.2128
O7 O 0.3657(8) -0.8920(7) 0.1228(5)
O8 O 0.3698(10) -0.1060(12) -0.0362(11)
loop_
_geom_bond_atom_site_label_1
_geom_bond_atom_site_label_2
_geom_bond_site_symmetry_1
_geom_bond_site_symmetry_2
Cd1 O1 1_555 1_555
O1 C7 1_555 1_555
O2 Cd1 1_555 1_555
O3 C8 1_555 1_555
O4 C8 1_555 1_555
O5 C9 1_555 1_555
O6 C9 1_555 1_555
N1 H1 1_555 1_555
N2 C1 1_555 1_555
N3 C1 1_555 1_555
N4 C2 1_555 1_555
N5 H2 1_555 1_555
N6 H3 1_555 1_555
C1 N1 1_555 1_555
C2 N3 1_555 1_555
C3 N2 1_555 1_555
C4 N1 1_555 1_555
H4 C4 1_555 1_555
H5 C4 1_555 1_555
C5 N5 1_555 1_555
H6 C5 1_555 1_555
H7 C5 1_555 1_555
C6 N6 1_555 1_555
H8 C6 1_555 1_555
H9 C6 1_555 1_555
C7 O2 1_555 1_555
C8 C19 1_555 1_555
C9 C25 1_555 1_555
C10 C4 1_555 1_555
C11 C10 1_555 1_555
H10 C11 1_555 1_555
C12 C11 1_555 1_555
H11 C12 1_555 1_555
C13 C7 1_555 1_555
C14 C13 1_555 1_555
H12 C14 1_555 1_555
C15 C10 1_555 1_555
H13 C15 1_555 1_555
C16 C5 1_555 1_555
C17 C16 1_555 1_555
H14 C17 1_555 1_555
C18 C17 1_555 1_555
H15 C18 1_555 1_555
C19 C18 1_555 1_555
C20 C19 1_555 1_555
H16 C20 1_555 1_555
C21 C16 1_555 1_555
H17 C21 1_555 1_555
C22 C6 1_555 1_555
C23 C22 1_555 1_555
H18 C23 1_555 1_555
C24 C23 1_555 1_555
H19 C24 1_555 1_555
C25 C24 1_555 1_555
C26 C25 1_555 1_555
H20 C26 1_555 1_555
C27 C22 1_555 1_555
H21 C27 1_555 1_555
N7 H22 1_555 1_555
H23 N7 1_555 1_555
C28 N7 1_555 1_555
H24 C28 1_555 1_555
H25 C28 1_555 1_555
H26 C28 1_555 1_555
C29 N7 1_555 1_555
H27 C29 1_555 1_555
H28 C29 1_555 1_555
H29 C29 1_555 1_555
Cd1C O3 1_555 1_555
Cd1B O5 1_555 1_555
Cd1_2 N2 1_555 1_555
O3C Cd1 1_555 1_555
O4C Cd1 1_555 1_555
O5B Cd1 1_555 1_555
O6B Cd1 1_555 1_555
N2_2 Cd1 1_555 1_555
O4 Cd1C 1_555 1_555
O6 Cd1B 1_555 1_555
N4 C3 1_555 1_555
N5 C2 1_555 1_555
N6 C3 1_555 1_555
C12 C13 1_555 1_555
C14 C15 1_555 1_555
C20 C21 1_555 1_555
C26 C27 1_555 1_555

#END
