
#######################################################################
#
#                 Cambridge Crystallographic Data Centre
#                                CCDC 
#
#######################################################################
#
# If this CIF has been generated from an entry in the Cambridge 
# Structural Database, then it will include bibliographic, chemical, 
# crystal, experimental, refinement or atomic coordinate data resulting 
# from the CCDC's data processing and validation procedures.
#
#######################################################################

data_SAKSUT
_symmetry_cell_setting           orthorhombic
_symmetry_space_group_name_H-M   'P 21 21 21'
_symmetry_Int_Tables_number      19
_space_group_name_Hall           'P 2ac 2ab'
loop_
_symmetry_equiv_pos_site_id
_symmetry_equiv_pos_as_xyz
1 x,y,z
2 1/2-x,-y,1/2+z
3 -x,1/2+y,1/2-z
4 1/2+x,1/2-y,-z
_cell_length_a                   8.6561(8)
_cell_length_b                   16.1930(15)
_cell_length_c                   33.492(3)
_cell_angle_alpha                90
_cell_angle_beta                 90
_cell_angle_gamma                90
_cell_volume                     4694.51
loop_
_atom_site_label
_atom_site_type_symbol
_atom_site_fract_x
_atom_site_fract_y
_atom_site_fract_z
C1 C 0.1315(5) 0.9757(2) 0.08470(12)
H1 H 0.0802 1.0046 0.1055
C2 C 0.1176(5) 0.9954(2) 0.04405(12)
H2 H 0.0575 1.0386 0.0328
C3 C 0.2087(5) 0.9394(2) 0.02356(12)
H3 H 0.2230 0.9367 -0.0045
C4 C 0.2769(5) 0.8869(2) 0.05257(12)
C5 C 0.3784(4) 0.8205(2) 0.04602(12)
C6 C 0.4379(5) 0.7685(2) 0.07595(12)
C7 C 0.5534(5) 0.7063(2) 0.07105(12)
H4 H 0.6006 0.6898 0.0467
C8 C 0.5832(5) 0.6748(2) 0.10858(12)
H5 H 0.6545 0.6322 0.1150
C9 C 0.4872(5) 0.7182(2) 0.13583(12)
H6 H 0.4837 0.7086 0.1638
C10 C 0.4229(4) 0.8038(2) 0.00419(11)
C11 C 0.4976(5) 0.8635(2) -0.01915(12)
H7 H 0.5266 0.9146 -0.0073
C12 C 0.5298(4) 0.8498(2) -0.05882(12)
H8 H 0.5788 0.8917 -0.0741
C13 C 0.4910(5) 0.7750(2) -0.07678(12)
C14 C 0.4239(5) 0.7127(2) -0.05301(12)
H9 H 0.4015 0.6604 -0.0644
C15 C 0.3903(5) 0.7270(2) -0.01343(12)
H10 H 0.3445 0.6845 0.0021
C16 C 0.5889(6) 0.8477(2) -0.14820(13)
H11 H 0.5239 0.8947 -0.1407
H12 H 0.5941 0.8436 -0.1774
H13 H 0.6931 0.8555 -0.1374
C17 C 0.0216(5) 1.0230(2) 0.21570(13)
C18 C 0.1200(5) 0.9466(2) 0.20492(12)
C19 C 0.1828(5) 0.9020(2) 0.23579(13)
H14 H 0.1736 0.9204 0.2626
C20 C 0.2609(5) 0.8286(2) 0.22664(12)
C21 C 0.3139(5) 0.7750(3) 0.26255(14)
Cu1 Cu 0.25469(5) 0.85076(2) 0.140234(14)
F1 F 0.0019(4) 1.03431(17) 0.25448(7)
F2 F -0.1189(3) 1.01720(16) 0.19939(9)
F3 F 0.0866(4) 1.09100(13) 0.20076(8)
F4 F 0.2144(3) 0.71501(18) 0.26982(10)
F5 F 0.3315(4) 0.81959(18) 0.29581(8)
F6 F 0.4503(3) 0.73942(14) 0.25547(7)
N1 N 0.2262(4) 0.91103(17) 0.09053(10)
N2 N 0.4018(4) 0.77466(18) 0.11635(10)
O1 O 0.1276(4) 0.93497(16) 0.16806(8)
O2 O 0.2913(3) 0.79832(15) 0.19341(8)
S1 S 0.50739(12) 0.75435(6) -0.12821(3)
S1C S 0.00739(12) 0.74565(6) 0.12821(3)
Cu1C Cu 0.75469(5) 0.64924(2) -0.140234(14)
C22 C 0.8337(5) 0.0221(2) 0.91559(12)
H15 H 0.8852 -0.0070 0.8949
C23 C 0.8477(5) 0.0034(2) 0.95626(11)
H16 H 0.9069 -0.0399 0.9677
C24 C 0.7577(5) 0.0609(2) 0.97655(12)
H17 H 0.7450 0.0652 1.0047
C25 C 0.6877(4) 0.1124(2) 0.94675(11)
C26 C 0.5879(4) 0.1784(2) 0.95337(12)
C27 C 0.5262(4) 0.2294(2) 0.92309(12)
C28 C 0.4112(5) 0.2921(2) 0.92743(13)
H18 H 0.3647 0.3096 0.9517
C29 C 0.3803(5) 0.3223(2) 0.88989(12)
H19 H 0.3088 0.3646 0.8831
C30 C 0.4760(5) 0.2780(2) 0.86350(13)
H20 H 0.4785 0.2861 0.8354
C31 C 0.5410(4) 0.1963(2) 0.99496(12)
C32 C 0.4694(4) 0.1367(2) 1.01885(11)
H21 H 0.4432 0.0849 1.0074
C33 C 0.4357(4) 0.1507(2) 1.05856(12)
H22 H 0.3859 0.1093 1.0740
C34 C 0.4757(5) 0.2269(2) 1.07606(12)
C35 C 0.5409(5) 0.2877(2) 1.05193(12)
H23 H 0.5632 0.3403 1.0631
C36 C 0.5734(5) 0.2735(2) 1.01273(12)
H24 H 0.6186 0.3161 0.9971
C37 C 0.3840(6) 0.1546(2) 1.14826(13)
H25 H 0.2826 0.1428 1.1366
H26 H 0.3736 0.1606 1.1773
H27 H 0.4548 0.1090 1.1423
C38 C 0.9458(5) -0.0278(2) 0.78477(13)
C39 C 0.8546(5) 0.0513(2) 0.79522(12)
C40 C 0.8166(5) 0.1053(2) 0.76483(12)
H28 H 0.8459 0.0930 0.7382
C41 C 0.7357(5) 0.1778(2) 0.77294(12)
C42 C 0.7028(5) 0.2372(2) 0.73836(13)
Cu2 Cu 0.70856(5) 0.14549(3) 0.859233(14)
F7 F 0.8549(4) -0.09311(14) 0.79054(9)
F8 F 0.9924(4) -0.03015(18) 0.74730(7)
F9 F 1.0670(4) -0.03633(16) 0.80824(9)
F10 F 0.7670(4) 0.21322(16) 0.70442(8)
F11 F 0.7600(3) 0.31231(14) 0.74579(8)
F12 F 0.5527(3) 0.24759(19) 0.73307(9)
N3 N 0.7382(4) 0.08648(17) 0.90941(10)
N4 N 0.5640(4) 0.22244(18) 0.88335(10)
O3 O 0.8255(4) 0.05745(16) 0.83170(8)
O4 O 0.6853(3) 0.20161(15) 0.80628(8)
S2 S 0.45913(12) 0.24862(6) 1.12747(3)
S2C S 0.95913(12) 0.25138(6) 0.87253(3)
Cu2C Cu 0.20856(5) 0.35451(3) 1.140767(14)
C43 C 0.6917(5) 0.9131(2) 0.12450(12)
H29 H 0.6700 0.8544 0.1186
H30 H 0.7985 0.9171 0.1349
Cl1 Cl 0.67600(14) 0.97207(6) 0.07996(3)
Cl2 Cl 0.56076(13) 0.94914(6) 0.16098(3)
C44 C 0.2682(5) 0.0849(2) 0.87742(13)
H31 H 0.2888 0.1441 0.8826
H32 H 0.1609 0.0797 0.8675
Cl3 Cl 0.39908(14) 0.04770(6) 0.84059(3)
Cl4 Cl 0.28888(14) 0.02812(6) 0.92216(3)
loop_
_geom_bond_atom_site_label_1
_geom_bond_atom_site_label_2
_geom_bond_site_symmetry_1
_geom_bond_site_symmetry_2
C1 H1 1_555 1_555
C2 C1 1_555 1_555
H2 C2 1_555 1_555
C3 C2 1_555 1_555
H3 C3 1_555 1_555
C4 C3 1_555 1_555
C5 C4 1_555 1_555
C6 C5 1_555 1_555
C7 C6 1_555 1_555
H4 C7 1_555 1_555
C8 C7 1_555 1_555
H5 C8 1_555 1_555
C9 C8 1_555 1_555
H6 C9 1_555 1_555
C10 C5 1_555 1_555
C11 C10 1_555 1_555
H7 C11 1_555 1_555
C12 C11 1_555 1_555
H8 C12 1_555 1_555
C13 C12 1_555 1_555
C14 C13 1_555 1_555
H9 C14 1_555 1_555
C15 C10 1_555 1_555
H10 C15 1_555 1_555
C16 H11 1_555 1_555
H12 C16 1_555 1_555
H13 C16 1_555 1_555
C17 C18 1_555 1_555
C18 C19 1_555 1_555
C19 H14 1_555 1_555
C20 C19 1_555 1_555
C21 C20 1_555 1_555
C22 H15 1_555 1_555
C23 C22 1_555 1_555
H16 C23 1_555 1_555
C24 C23 1_555 1_555
H17 C24 1_555 1_555
C25 C24 1_555 1_555
C26 C25 1_555 1_555
C27 C26 1_555 1_555
C28 C27 1_555 1_555
H18 C28 1_555 1_555
C29 C28 1_555 1_555
H19 C29 1_555 1_555
C30 C29 1_555 1_555
H20 C30 1_555 1_555
C31 C26 1_555 1_555
C32 C31 1_555 1_555
H21 C32 1_555 1_555
C33 C32 1_555 1_555
H22 C33 1_555 1_555
C34 C33 1_555 1_555
C35 C34 1_555 1_555
H23 C35 1_555 1_555
C36 C31 1_555 1_555
H24 C36 1_555 1_555
C37 H25 1_555 1_555
H26 C37 1_555 1_555
H27 C37 1_555 1_555
C38 C39 1_555 1_555
C39 C40 1_555 1_555
C40 H28 1_555 1_555
C41 C40 1_555 1_555
C42 C41 1_555 1_555
C43 H29 1_555 1_555
H30 C43 1_555 1_555
C44 H31 1_555 1_555
H32 C44 1_555 1_555
Cl1 C43 1_555 1_555
Cl2 C43 1_555 1_555
Cl3 C44 1_555 1_555
Cl4 C44 1_555 1_555
Cu1 N1 1_555 1_555
Cu2 N3 1_555 1_555
F1 C17 1_555 1_555
F2 C17 1_555 1_555
F3 C17 1_555 1_555
F4 C21 1_555 1_555
F5 C21 1_555 1_555
F6 C21 1_555 1_555
F7 C38 1_555 1_555
F8 C38 1_555 1_555
F9 C38 1_555 1_555
F10 C42 1_555 1_555
F11 C42 1_555 1_555
F12 C42 1_555 1_555
N1 C1 1_555 1_555
N2 C6 1_555 1_555
N3 C22 1_555 1_555
N4 C27 1_555 1_555
O1 C18 1_555 1_555
O2 C20 1_555 1_555
O3 C39 1_555 1_555
O4 C41 1_555 1_555
S1 C13 1_555 1_555
S2 C34 1_555 1_555
S1C Cu1 1_555 1_555
S2C Cu2 1_555 1_555
Cu1C S1 1_555 1_555
Cu2C S2 1_555 1_555
C4 N1 1_555 1_555
C9 N2 1_555 1_555
C14 C15 1_555 1_555
C16 S1 1_555 1_555
C25 N3 1_555 1_555
C30 N4 1_555 1_555
C35 C36 1_555 1_555
C37 S2 1_555 1_555
Cu1 O1 1_555 1_555
Cu1 N2 1_555 1_555
Cu1 O2 1_555 1_555
Cu2 O3 1_555 1_555
Cu2 N4 1_555 1_555
Cu2 O4 1_555 1_555

#END
