
#######################################################################
#
#                 Cambridge Crystallographic Data Centre
#                                CCDC 
#
#######################################################################
#
# If this CIF has been generated from an entry in the Cambridge 
# Structural Database, then it will include bibliographic, chemical, 
# crystal, experimental, refinement or atomic coordinate data resulting 
# from the CCDC's data processing and validation procedures.
#
#######################################################################

data_SAKVOQ
_symmetry_cell_setting           monoclinic
_symmetry_space_group_name_H-M   'P 21/c'
_symmetry_Int_Tables_number      14
_space_group_name_Hall           '-P 2ybc'
loop_
_symmetry_equiv_pos_site_id
_symmetry_equiv_pos_as_xyz
1 x,y,z
2 x,1/2-y,1/2+z
3 -x,-y,-z
4 -x,1/2+y,1/2-z
_cell_length_a                   15.1464(12)
_cell_length_b                   8.7729(7)
_cell_length_c                   16.6884(13)
_cell_angle_alpha                90
_cell_angle_beta                 105.0870(10)
_cell_angle_gamma                90
_cell_volume                     2141.08
loop_
_atom_site_label
_atom_site_type_symbol
_atom_site_fract_x
_atom_site_fract_y
_atom_site_fract_z
Ag1 Ag 0.0000 0.5000 0.0000
Ag2 Ag 0.5000 0.5000 0.0000
S1 S 0.09588(4) 0.57281(7) 0.17002(4)
S2 S 0.51615(4) 0.56484(7) 0.17660(4)
N1 N 0.05150(12) 0.7338(2) -0.00541(11)
N2 N 0.44603(13) 0.7322(2) 0.00527(12)
C1 C 0.06343(16) 0.7837(3) -0.07794(14)
H1 H 0.0447 0.7201 -0.1254
C2 C 0.10164(16) 0.9232(3) -0.08631(16)
H2 H 0.1081 0.9559 -0.1387
C3 C 0.13033(18) 1.0146(3) -0.01721(18)
H3 H 0.1572 1.1112 -0.0212
C4 C 0.11935(16) 0.9632(3) 0.05829(15)
H4 H 0.1391 1.0240 0.1068
C5 C 0.07926(15) 0.8224(2) 0.06230(14)
C6 C 0.06087(16) 0.7684(3) 0.14201(14)
H5 H -0.0055 0.7776 0.1372
H6 H 0.0932 0.8366 0.1875
C7 C 0.21324(16) 0.5775(2) 0.17103(13)
C8 C 0.24830(19) 0.4656(3) 0.12891(16)
H7 H 0.2087 0.3896 0.0985
C9 C 0.33903(19) 0.4636(3) 0.13081(16)
H8 H 0.3616 0.3862 0.1016
C10 C 0.39865(16) 0.5725(3) 0.17465(14)
C11 C 0.36378(17) 0.6862(3) 0.21688(15)
H9 H 0.4035 0.7625 0.2468
C12 C 0.27255(17) 0.6885(3) 0.21544(15)
H10 H 0.2498 0.7656 0.2447
C13 C 0.38447(16) 0.7847(3) -0.06176(15)
H11 H 0.3675 0.7217 -0.1096
C14 C 0.34464(17) 0.9268(3) -0.06417(16)
H12 H 0.3023 0.9618 -0.1132
C15 C 0.36742(19) 1.0171(3) 0.00587(19)
H13 H 0.3411 1.1154 0.0059
C16 C 0.42940(17) 0.9617(3) 0.07615(17)
H14 H 0.4453 1.0212 0.1254
C17 C 0.46786(15) 0.8196(3) 0.07423(14)
C18 C 0.53799(16) 0.7594(3) 0.14845(15)
H15 H 0.5400 0.8270 0.1964
H16 H 0.5988 0.7631 0.1369
S1B S -0.09588(4) 0.42719(7) -0.17002(4)
S2B S -0.51615(4) 0.43516(7) -0.17660(4)
N1B N -0.05150(12) 0.2662(2) 0.00541(11)
N2B N -0.44603(13) 0.2678(2) -0.00527(12)
C1B C -0.06343(16) 0.2163(3) 0.07794(14)
H1B H -0.0447 0.2799 0.1254
C2B C -0.10164(16) 0.0768(3) 0.08631(16)
H2B H -0.1081 0.0441 0.1387
C3B C -0.13033(18) -0.0146(3) 0.01721(18)
H3B H -0.1572 -0.1112 0.0212
C4B C -0.11935(16) 0.0368(3) -0.05829(15)
H4B H -0.1391 -0.0240 -0.1068
C5B C -0.07926(15) 0.1776(2) -0.06230(14)
C6B C -0.06087(16) 0.2316(3) -0.14201(14)
H5B H 0.0055 0.2224 -0.1372
H6B H -0.0932 0.1634 -0.1875
C7B C -0.21324(16) 0.4225(2) -0.17103(13)
C8B C -0.24830(19) 0.5344(3) -0.12891(16)
H7B H -0.2087 0.6104 -0.0985
C9B C -0.33903(19) 0.5364(3) -0.13081(16)
H8B H -0.3616 0.6138 -0.1016
C10B C -0.39865(16) 0.4275(3) -0.17465(14)
C11B C -0.36378(17) 0.3138(3) -0.21688(15)
H9B H -0.4035 0.2375 -0.2468
C12B C -0.27255(17) 0.3115(3) -0.21544(15)
H10B H -0.2498 0.2344 -0.2447
C13B C -0.38447(16) 0.2153(3) 0.06176(15)
H11B H -0.3675 0.2783 0.1096
C14B C -0.34464(17) 0.0732(3) 0.06417(16)
H12B H -0.3023 0.0382 0.1132
C15B C -0.36742(19) -0.0171(3) -0.00587(19)
H13B H -0.3411 -0.1154 -0.0059
C16B C -0.42940(17) 0.0383(3) -0.07615(17)
H14B H -0.4453 -0.0212 -0.1254
C17B C -0.46786(15) 0.1804(3) -0.07423(14)
C18B C -0.53799(16) 0.2406(3) -0.14845(15)
H15B H -0.5400 0.1730 -0.1964
H16B H -0.5988 0.2369 -0.1369
S2B_2 S 0.48385(4) 0.43516(7) -0.17660(4)
N2B_2 N 0.55397(13) 0.2678(2) -0.00527(12)
Ag2_2 Ag -0.5000 0.5000 0.0000
S3 S 0.78690(4) 0.55919(7) 0.11597(4)
F1 F 0.79628(12) 0.82545(17) 0.18756(10)
F2 F 0.75295(11) 0.64477(19) 0.25556(9)
F3 F 0.89396(11) 0.6643(2) 0.25482(9)
O1 O 0.85451(12) 0.6100(2) 0.07522(11)
O2 O 0.80025(13) 0.4087(2) 0.14986(13)
O3 O 0.69395(12) 0.5973(2) 0.07384(11)
C19 C 0.80865(17) 0.6787(3) 0.20822(15)
loop_
_geom_bond_atom_site_label_1
_geom_bond_atom_site_label_2
_geom_bond_site_symmetry_1
_geom_bond_site_symmetry_2
Ag1 S1 1_555 1_555
Ag2 S2 1_555 1_555
S1 C6 1_555 1_555
S2 C10 1_555 1_555
S3 O1 1_555 1_555
F1 C19 1_555 1_555
F2 C19 1_555 1_555
F3 C19 1_555 1_555
O2 S3 1_555 1_555
O3 S3 1_555 1_555
N1 Ag1 1_555 1_555
N2 Ag2 1_555 1_555
C1 N1 1_555 1_555
H1 C1 1_555 1_555
C2 C1 1_555 1_555
H2 C2 1_555 1_555
C3 C2 1_555 1_555
H3 C3 1_555 1_555
C4 C3 1_555 1_555
H4 C4 1_555 1_555
C5 N1 1_555 1_555
C6 C5 1_555 1_555
H5 C6 1_555 1_555
H6 C6 1_555 1_555
C7 S1 1_555 1_555
C8 C7 1_555 1_555
H7 C8 1_555 1_555
C9 C8 1_555 1_555
H8 C9 1_555 1_555
C10 C9 1_555 1_555
C11 C10 1_555 1_555
H9 C11 1_555 1_555
C12 C7 1_555 1_555
H10 C12 1_555 1_555
C13 N2 1_555 1_555
H11 C13 1_555 1_555
C14 C13 1_555 1_555
H12 C14 1_555 1_555
C15 C14 1_555 1_555
H13 C15 1_555 1_555
C16 C15 1_555 1_555
H14 C16 1_555 1_555
C17 N2 1_555 1_555
C18 S2 1_555 1_555
H15 C18 1_555 1_555
H16 C18 1_555 1_555
C19 S3 1_555 1_555
S1B Ag1 1_555 1_555
S2B C10B 1_555 1_555
N1B Ag1 1_555 1_555
N2B C13B 1_555 1_555
C1B N1B 1_555 1_555
H1B C1B 1_555 1_555
C2B C1B 1_555 1_555
H2B C2B 1_555 1_555
C3B C2B 1_555 1_555
H3B C3B 1_555 1_555
C4B C3B 1_555 1_555
H4B C4B 1_555 1_555
C5B N1B 1_555 1_555
C6B S1B 1_555 1_555
H5B C6B 1_555 1_555
H6B C6B 1_555 1_555
C7B S1B 1_555 1_555
C8B C7B 1_555 1_555
H7B C8B 1_555 1_555
C9B C8B 1_555 1_555
H8B C9B 1_555 1_555
C10B C9B 1_555 1_555
C11B C10B 1_555 1_555
H9B C11B 1_555 1_555
C12B C7B 1_555 1_555
H10B C12B 1_555 1_555
C13B H11B 1_555 1_555
C14B C13B 1_555 1_555
H12B C14B 1_555 1_555
C15B C14B 1_555 1_555
H13B C15B 1_555 1_555
C16B C15B 1_555 1_555
H14B C16B 1_555 1_555
C17B N2B 1_555 1_555
C18B S2B 1_555 1_555
H15B C18B 1_555 1_555
H16B C18B 1_555 1_555
S2B_2 Ag2 1_555 1_555
N2B_2 Ag2 1_555 1_555
Ag2_2 S2B 1_555 1_555
C4 C5 1_555 1_555
C11 C12 1_555 1_555
C16 C17 1_555 1_555
C17 C18 1_555 1_555
N2B Ag2_2 1_555 1_555
C4B C5B 1_555 1_555
C5B C6B 1_555 1_555
C11B C12B 1_555 1_555
C16B C17B 1_555 1_555
C17B C18B 1_555 1_555

#END
