
#######################################################################
#
#                 Cambridge Crystallographic Data Centre
#                                CCDC 
#
#######################################################################
#
# If this CIF has been generated from an entry in the Cambridge 
# Structural Database, then it will include bibliographic, chemical, 
# crystal, experimental, refinement or atomic coordinate data resulting 
# from the CCDC's data processing and validation procedures.
#
#######################################################################

data_SAKYOT
_symmetry_cell_setting           monoclinic
_symmetry_space_group_name_H-M   'P 21/c'
_symmetry_Int_Tables_number      14
_space_group_name_Hall           '-P 2ybc'
loop_
_symmetry_equiv_pos_site_id
_symmetry_equiv_pos_as_xyz
1 x,y,z
2 x,1/2-y,1/2+z
3 -x,-y,-z
4 -x,1/2+y,1/2-z
_cell_length_a                   5.1600(10)
_cell_length_b                   13.280(3)
_cell_length_c                   8.2800(17)
_cell_angle_alpha                90
_cell_angle_beta                 90.45(3)
_cell_angle_gamma                90
_cell_volume                     567.368
loop_
_atom_site_label
_atom_site_type_symbol
_atom_site_fract_x
_atom_site_fract_y
_atom_site_fract_z
Mn1 Mn -0.5000 0.5000 -0.5000
O1 O -0.5623(3) 0.64984(11) -0.42388(19)
C1 C -0.6955(4) 0.71558(15) -0.4985(2)
C2 C -1.0487(4) 0.77083(16) -0.6742(3)
C3 C -0.6390(4) 0.82062(16) -0.4776(3)
C4 C -0.9134(4) 0.69350(14) -0.6036(2)
C5 C -0.7745(5) 0.89206(16) -0.5577(3)
O2 O -0.8243(3) 0.52031(11) -0.65381(19)
N1 N -0.9792(4) 0.86751(13) -0.6538(2)
H1 H -1.0652 0.9143 -0.7021
C6 C -0.9977(4) 0.58904(15) -0.6494(2)
O3 O -1.2296(3) 0.57425(11) -0.68840(19)
H2 H -0.737(5) 0.962(2) -0.548(3)
H3 H -1.182(5) 0.7589(19) -0.749(3)
H4 H -0.504(5) 0.840(2) -0.404(3)
O1B O -0.4377(3) 0.35016(11) -0.57612(19)
C1B C -0.3045(4) 0.28442(15) -0.5015(2)
C2B C 0.0487(4) 0.22917(16) -0.3258(3)
C3B C -0.3610(4) 0.17938(16) -0.5224(3)
C4B C -0.0866(4) 0.30650(14) -0.3964(2)
C5B C -0.2255(5) 0.10794(16) -0.4423(3)
O2B O -0.1757(3) 0.47969(11) -0.34619(19)
N1B N -0.0208(4) 0.13249(13) -0.3462(2)
H1B H 0.0652 0.0857 -0.2979
C6B C -0.0023(4) 0.41096(15) -0.3506(2)
O3B O 0.2296(3) 0.42575(11) -0.31160(19)
H2B H -0.263(5) 0.038(2) -0.452(3)
H3B H 0.182(5) 0.2411(19) -0.251(3)
H4B H -0.496(5) 0.160(2) -0.596(3)
O3_2 O -0.2296(3) 0.57425(11) -0.68840(19)
O3B_2 O -0.7704(3) 0.42575(11) -0.31160(19)
Mn1_2 Mn -1.5000 0.5000 -0.5000
Mn1_3 Mn 0.5000 0.5000 -0.5000
loop_
_geom_bond_atom_site_label_1
_geom_bond_atom_site_label_2
_geom_bond_site_symmetry_1
_geom_bond_site_symmetry_2
Mn1 O1 1_555 1_555
O1 C1 1_555 1_555
C1 C3 1_555 1_555
C2 C4 1_555 1_555
C3 C5 1_555 1_555
C4 C1 1_555 1_555
C5 N1 1_555 1_555
O2 Mn1 1_555 1_555
N1 C2 1_555 1_555
H1 N1 1_555 1_555
C6 C4 1_555 1_555
O3 C6 1_555 1_555
H2 C5 1_555 1_555
H3 C2 1_555 1_555
H4 C3 1_555 1_555
O1B Mn1 1_555 1_555
C1B O1B 1_555 1_555
C2B C4B 1_555 1_555
C3B C1B 1_555 1_555
C4B C1B 1_555 1_555
C5B C3B 1_555 1_555
O2B Mn1 1_555 1_555
N1B C2B 1_555 1_555
H1B N1B 1_555 1_555
C6B C4B 1_555 1_555
O3B C6B 1_555 1_555
H2B C5B 1_555 1_555
H3B C2B 1_555 1_555
H4B C3B 1_555 1_555
O3_2 Mn1 1_555 1_555
O3B_2 Mn1 1_555 1_555
Mn1_2 O3 1_555 1_555
Mn1_3 O3B 1_555 1_555
O2 C6 1_555 1_555
C5B N1B 1_555 1_555
O2B C6B 1_555 1_555

#END
