
#######################################################################
#
#                 Cambridge Crystallographic Data Centre
#                                CCDC 
#
#######################################################################
#
# If this CIF has been generated from an entry in the Cambridge 
# Structural Database, then it will include bibliographic, chemical, 
# crystal, experimental, refinement or atomic coordinate data resulting 
# from the CCDC's data processing and validation procedures.
#
#######################################################################

data_SAKYEJ
_symmetry_cell_setting           triclinic
_symmetry_space_group_name_H-M   'P -1'
_symmetry_Int_Tables_number      2
_space_group_name_Hall           '-P 1'
loop_
_symmetry_equiv_pos_site_id
_symmetry_equiv_pos_as_xyz
1 x,y,z
2 -x,-y,-z
_cell_length_a                   4.773(2)
_cell_length_b                   9.252(5)
_cell_length_c                   14.451(9)
_cell_angle_alpha                83.08(4)
_cell_angle_beta                 80.74(5)
_cell_angle_gamma                89.47(6)
_cell_volume                     625.215
loop_
_atom_site_label
_atom_site_type_symbol
_atom_site_fract_x
_atom_site_fract_y
_atom_site_fract_z
Pb1 Pb 0.0000 0.0000 0.0000
I1 I -0.56927(10) 0.08215(5) 0.14015(3)
N1 N 0.3662(14) -0.3904(7) 0.3204(5)
N2 N -0.0499(15) -0.2693(6) 0.0918(4)
C1 C 0.9065(14) -0.0531(7) 0.4856(4)
C2 C 0.7241(16) -0.1439(8) 0.5530(5)
H1 H 0.7211 -0.1374 0.6182
C3 C 0.5482(17) -0.2429(8) 0.5257(5)
H2 H 0.4279 -0.3039 0.5731
C4 C 0.5410(15) -0.2565(8) 0.4320(5)
C5 C 0.7159(17) -0.1664(9) 0.3652(5)
H3 H 0.7132 -0.1725 0.3002
C6 C 0.8963(18) -0.0666(10) 0.3902(5)
H4 H 1.0154 -0.0063 0.3422
C7 C 0.3518(17) -0.3632(8) 0.4044(5)
H5 H 0.2139 -0.4134 0.4518
C8 C 0.175(2) -0.5010(9) 0.3025(6)
H6 H 0.0231 -0.5211 0.3579
H7 H 0.2809 -0.5922 0.2942
C9 C 0.0706(16) -0.3154(8) 0.1669(5)
H8 H 0.1855 -0.2482 0.1892
C10 C 0.0391(16) -0.4551(8) 0.2147(5)
C11 C -0.1255(17) -0.5526(8) 0.1815(5)
H9 H -0.1483 -0.6501 0.2112
C12 C -0.255(2) -0.5079(10) 0.1062(6)
H10 H -0.3697 -0.5736 0.0827
C13 C -0.216(2) -0.3647(9) 0.0639(6)
H11 H -0.3135 -0.3335 0.0127
C1A C 1.0935(14) 0.0531(7) 0.5144(4)
C2A C 1.2759(16) 0.1439(8) 0.4470(5)
H1A H 1.2789 0.1374 0.3818
C3A C 1.4518(17) 0.2429(8) 0.4743(5)
H2A H 1.5721 0.3039 0.4269
C4A C 1.4590(15) 0.2565(8) 0.5680(5)
C5A C 1.2841(17) 0.1664(9) 0.6348(5)
H3A H 1.2868 0.1725 0.6998
C6A C 1.1037(18) 0.0666(10) 0.6098(5)
H4A H 0.9846 0.0063 0.6578
C7A C 1.6482(17) 0.3632(8) 0.5956(5)
N1A N 1.6338(14) 0.3904(7) 0.6796(5)
C8A C 1.825(2) 0.5010(9) 0.6975(6)
H6A H 1.9769 0.5211 0.6421
H7A H 1.7191 0.5922 0.7058
C10A C 1.9609(16) 0.4551(8) 0.7853(5)
C9A C 1.9294(16) 0.3154(8) 0.8331(5)
N2A N 2.0499(15) 0.2693(6) 0.9082(4)
C13A C 2.216(2) 0.3647(9) 0.9361(6)
C12A C 2.255(2) 0.5079(10) 0.8938(6)
C11A C 2.1255(17) 0.5526(8) 0.8185(5)
H9A H 2.1483 0.6501 0.7888
H10A H 2.3697 0.5736 0.9173
H11A H 2.3135 0.3335 0.9873
H8A H 1.8145 0.2482 0.8108
H5A H 1.7861 0.4134 0.5482
I1_2 I 0.43073(10) 0.08215(5) 0.14015(3)
I1A I -0.43073(10) -0.08215(5) -0.14015(3)
I1A_2 I 0.56927(10) -0.08215(5) -0.14015(3)
N2A_2 N 0.0499(15) 0.2693(6) -0.0918(4)
Pb1_2 Pb -1.0000 0.0000 0.0000
Pb1_3 Pb 2.0000 0.0000 1.0000
Pb1_4 Pb 1.0000 0.0000 0.0000
loop_
_geom_bond_atom_site_label_1
_geom_bond_atom_site_label_2
_geom_bond_site_symmetry_1
_geom_bond_site_symmetry_2
Pb1 I1 1_555 1_555
I1 Pb1_2 1_555 1_555
N1 C7 1_555 1_555
N2 Pb1 1_555 1_555
C1 C2 1_555 1_555
C2 H1 1_555 1_555
C3 C2 1_555 1_555
H2 C3 1_555 1_555
C4 C3 1_555 1_555
C5 C4 1_555 1_555
H3 C5 1_555 1_555
C6 C1 1_555 1_555
H4 C6 1_555 1_555
C7 C4 1_555 1_555
H5 C7 1_555 1_555
C8 N1 1_555 1_555
H6 C8 1_555 1_555
H7 C8 1_555 1_555
C9 N2 1_555 1_555
H8 C9 1_555 1_555
C10 C8 1_555 1_555
C11 C10 1_555 1_555
H9 C11 1_555 1_555
C12 C11 1_555 1_555
H10 C12 1_555 1_555
C13 N2 1_555 1_555
H11 C13 1_555 1_555
C1A C1 1_555 1_555
C2A C1A 1_555 1_555
H1A C2A 1_555 1_555
C3A C2A 1_555 1_555
H2A C3A 1_555 1_555
C4A C3A 1_555 1_555
C5A C4A 1_555 1_555
H3A C5A 1_555 1_555
C6A C1A 1_555 1_555
H4A C6A 1_555 1_555
C7A C4A 1_555 1_555
N1A C7A 1_555 1_555
C8A N1A 1_555 1_555
H6A C8A 1_555 1_555
H7A C8A 1_555 1_555
C10A C8A 1_555 1_555
C9A C10A 1_555 1_555
N2A C9A 1_555 1_555
C13A N2A 1_555 1_555
C12A C13A 1_555 1_555
C11A C10A 1_555 1_555
H9A C11A 1_555 1_555
H10A C12A 1_555 1_555
H11A C13A 1_555 1_555
H8A C9A 1_555 1_555
H5A C7A 1_555 1_555
I1_2 Pb1 1_555 1_555
I1A Pb1 1_555 1_555
I1A_2 Pb1 1_555 1_555
N2A_2 Pb1 1_555 1_555
Pb1_2 I1A 1_555 1_555
Pb1_3 N2A 1_555 1_555
Pb1_4 I1_2 1_555 1_555
C5 C6 1_555 1_555
C9 C10 1_555 1_555
C12 C13 1_555 1_555
C5A C6A 1_555 1_555
C12A C11A 1_555 1_555
I1A_2 Pb1_4 1_555 1_555

#END
