
#######################################################################
#
#                 Cambridge Crystallographic Data Centre
#                                CCDC 
#
#######################################################################
#
# If this CIF has been generated from an entry in the Cambridge 
# Structural Database, then it will include bibliographic, chemical, 
# crystal, experimental, refinement or atomic coordinate data resulting 
# from the CCDC's data processing and validation procedures.
#
#######################################################################

data_SAKYIN
_symmetry_cell_setting           monoclinic
_symmetry_space_group_name_H-M   'P 21/n'
_symmetry_Int_Tables_number      14
_space_group_name_Hall           '-P 2yn'
loop_
_symmetry_equiv_pos_site_id
_symmetry_equiv_pos_as_xyz
1 x,y,z
2 1/2+x,1/2-y,1/2+z
3 -x,-y,-z
4 1/2-x,1/2+y,1/2-z
_cell_length_a                   4.623(4)
_cell_length_b                   18.335(13)
_cell_length_c                   18.090(11)
_cell_angle_alpha                90
_cell_angle_beta                 89.42(5)
_cell_angle_gamma                90
_cell_volume                     1533.28
loop_
_atom_site_label
_atom_site_type_symbol
_atom_site_fract_x
_atom_site_fract_y
_atom_site_fract_z
Pb1 Pb 0.24454(6) 0.947071(17) 0.104586(14)
I1 I -0.24030(11) 1.00193(3) 0.21259(2)
I2 I -0.22230(11) 0.89152(3) -0.01111(2)
N1 N -0.3007(16) 0.7825(4) 0.3471(4)
N2 N 0.2321(14) 0.8200(4) 0.1649(3)
C1 C -0.9049(18) 0.9707(5) 0.4873(4)
C2 C -0.747(2) 0.9273(6) 0.5369(4)
H1 H -0.7632 0.9368 0.5884
C3 C -0.572(2) 0.8721(6) 0.5132(5)
H2 H -0.4743 0.8429 0.5484
C4 C -0.535(2) 0.8579(5) 0.4384(4)
C5 C -0.685(2) 0.9014(6) 0.3888(4)
H3 H -0.6660 0.8924 0.3372
C6 C -0.856(2) 0.9556(6) 0.4124(4)
H4 H -0.9484 0.9852 0.3767
C7 C -0.333(2) 0.8005(5) 0.4144(5)
H5 H -0.2228 0.7760 0.4507
C8 C -0.106(2) 0.7230(5) 0.3293(5)
H6 H -0.2207 0.6780 0.3222
H7 H 0.0245 0.7149 0.3715
C9 C 0.072(2) 0.8056(5) 0.2243(5)
H8 H -0.0490 0.8430 0.2435
C10 C 0.0727(18) 0.7370(5) 0.2609(5)
C11 C 0.246(2) 0.6854(5) 0.2315(5)
H9 H 0.2515 0.6385 0.2537
C12 C 0.413(2) 0.6988(6) 0.1704(6)
H10 H 0.5367 0.6625 0.1499
C13 C 0.394(2) 0.7682(5) 0.1398(5)
H11 H 0.5083 0.7781 0.0971
C1B C -1.0951(18) 1.0293(5) 0.5127(4)
C2B C -1.253(2) 1.0727(6) 0.4631(4)
H1B H -1.2368 1.0632 0.4116
C3B C -1.428(2) 1.1279(6) 0.4868(5)
H2B H -1.5257 1.1571 0.4516
C4B C -1.465(2) 1.1421(5) 0.5616(4)
C5B C -1.315(2) 1.0986(6) 0.6112(4)
H3B H -1.3340 1.1076 0.6628
C6B C -1.144(2) 1.0444(6) 0.5876(4)
H4B H -1.0516 1.0148 0.6233
C7B C -1.667(2) 1.1995(5) 0.5856(5)
N1B N -1.6993(16) 1.2175(4) 0.6529(4)
C8B C -1.894(2) 1.2770(5) 0.6707(5)
H6B H -1.7793 1.3220 0.6778
H7B H -2.0245 1.2851 0.6285
C10B C -2.0727(18) 1.2630(5) 0.7391(5)
C9B C -2.072(2) 1.1944(5) 0.7757(5)
N2B N -2.2321(14) 1.1800(4) 0.8351(3)
C13B C -2.394(2) 1.2318(5) 0.8602(5)
C12B C -2.413(2) 1.3012(6) 0.8296(6)
C11B C -2.246(2) 1.3146(5) 0.7685(5)
H9B H -2.2515 1.3615 0.7463
H10B H -2.5367 1.3375 0.8501
H11B H -2.5083 1.2219 0.9029
H8B H -1.9510 1.1570 0.7565
H5B H -1.7772 1.2240 0.5493
I1_2 I 0.75970(11) 1.00193(3) 0.21259(2)
I2_2 I 0.77770(11) 0.89152(3) -0.01111(2)
Pb1_2 Pb 1.24454(6) 0.947071(17) 0.104586(14)
I2B I 0.22230(11) 1.10848(3) 0.01111(2)
Pb1_3 Pb -0.75546(6) 0.947071(17) 0.104586(14)
Pb1B Pb -0.24454(6) 1.052929(17) -0.104586(14)
Pb1B_2 Pb -2.24454(6) 1.052929(17) 0.895414(14)
Pb1B_3 Pb 0.75546(6) 1.052929(17) -0.104586(14)
I1_3 I 1.75970(11) 1.00193(3) 0.21259(2)
I2_3 I 1.77770(11) 0.89152(3) -0.01111(2)
I2B_2 I 1.22230(11) 1.10848(3) 0.01111(2)
N2_2 N 1.2321(14) 0.8200(4) 0.1649(3)
loop_
_geom_bond_atom_site_label_1
_geom_bond_atom_site_label_2
_geom_bond_site_symmetry_1
_geom_bond_site_symmetry_2
Pb1 I1 1_555 1_555
I1 Pb1_3 1_555 1_555
I2 Pb1 1_555 1_555
N1 C7 1_555 1_555
N2 Pb1 1_555 1_555
C1 C2 1_555 1_555
C2 H1 1_555 1_555
C3 C2 1_555 1_555
H2 C3 1_555 1_555
C4 C3 1_555 1_555
C5 C4 1_555 1_555
H3 C5 1_555 1_555
C6 C1 1_555 1_555
H4 C6 1_555 1_555
C7 C4 1_555 1_555
H5 C7 1_555 1_555
C8 N1 1_555 1_555
H6 C8 1_555 1_555
H7 C8 1_555 1_555
C9 N2 1_555 1_555
H8 C9 1_555 1_555
C10 C8 1_555 1_555
C11 C10 1_555 1_555
H9 C11 1_555 1_555
C12 C11 1_555 1_555
H10 C12 1_555 1_555
C13 N2 1_555 1_555
H11 C13 1_555 1_555
C1B C1 1_555 1_555
C2B C1B 1_555 1_555
H1B C2B 1_555 1_555
C3B C2B 1_555 1_555
H2B C3B 1_555 1_555
C4B C3B 1_555 1_555
C5B C4B 1_555 1_555
H3B C5B 1_555 1_555
C6B C1B 1_555 1_555
H4B C6B 1_555 1_555
C7B C4B 1_555 1_555
N1B C7B 1_555 1_555
C8B N1B 1_555 1_555
H6B C8B 1_555 1_555
H7B C8B 1_555 1_555
C10B C8B 1_555 1_555
C9B C10B 1_555 1_555
N2B C9B 1_555 1_555
C13B N2B 1_555 1_555
C12B C13B 1_555 1_555
C11B C10B 1_555 1_555
H9B C11B 1_555 1_555
H10B C12B 1_555 1_555
H11B C13B 1_555 1_555
H8B C9B 1_555 1_555
H5B C7B 1_555 1_555
I1_2 Pb1 1_555 1_555
I2_2 Pb1 1_555 1_555
Pb1_2 I1_2 1_555 1_555
I2B Pb1 1_555 1_555
Pb1_3 I2 1_555 1_555
Pb1B I2 1_555 1_555
Pb1B_2 N2B 1_555 1_555
Pb1B_3 I2_2 1_555 1_555
I1_3 Pb1_2 1_555 1_555
I2_3 Pb1_2 1_555 1_555
I2B_2 Pb1_2 1_555 1_555
N2_2 Pb1_2 1_555 1_555
C5 C6 1_555 1_555
C9 C10 1_555 1_555
C12 C13 1_555 1_555
C5B C6B 1_555 1_555
C12B C11B 1_555 1_555
I2_2 Pb1_2 1_555 1_555
I2B Pb1B 1_555 1_555
I2B Pb1B_3 1_555 1_555
Pb1B_3 I2B_2 1_555 1_555

#END
