
#######################################################################
#
#                 Cambridge Crystallographic Data Centre
#                                CCDC 
#
#######################################################################
#
# If this CIF has been generated from an entry in the Cambridge 
# Structural Database, then it will include bibliographic, chemical, 
# crystal, experimental, refinement or atomic coordinate data resulting 
# from the CCDC's data processing and validation procedures.
#
#######################################################################

data_SALAAM10
_symmetry_cell_setting           monoclinic
_symmetry_space_group_name_H-M   'P 21/c'
_symmetry_Int_Tables_number      14
_space_group_name_Hall           '-P 2ybc'
loop_
_symmetry_equiv_pos_site_id
_symmetry_equiv_pos_as_xyz
1 x,y,z
2 -x,1/2+y,1/2-z
3 -x,-y,-z
4 x,1/2-y,1/2+z
_cell_length_a                   13.69(2)
_cell_length_b                   6.762(2)
_cell_length_c                   24.14(1)
_cell_angle_alpha                90
_cell_angle_beta                 112.89(5)
_cell_angle_gamma                90
_cell_volume                     2058.71
loop_
_atom_site_label
_atom_site_type_symbol
_atom_site_fract_x
_atom_site_fract_y
_atom_site_fract_z
Am1 Am 0.10059 0.15110 0.27031
O1 O 0.40190 0.20740 0.36690
O2 O 0.27080 0.34820 0.29290
O3 O 0.29440 0.65490 0.24260
O4 O 0.08100 0.34620 0.18020
O5 O -0.02280 0.60750 0.15600
O6 O 0.01390 0.88400 0.09130
O7 O 0.06790 -0.51230 0.30700
O8 O 0.09240 -0.21070 0.28160
O9 O 0.25320 0.00270 0.35360
O10 O 0.18160 -0.00570 0.20740
C1 C 0.36610 0.33720 0.32800
C2 C 0.43530 0.49790 0.32380
C3 C 0.39880 0.65280 0.28360
C4 C 0.46390 0.81320 0.28230
C5 C 0.57350 0.80030 0.32220
C6 C 0.61190 0.63900 0.36260
C7 C 0.54380 0.49250 0.36230
C8 C 0.04700 0.50280 0.15000
C9 C 0.08360 0.55500 0.10280
C10 C 0.06670 0.73670 0.07450
C11 C 0.10490 0.78330 0.02970
C12 C 0.15820 0.64070 0.01240
C13 C 0.17530 0.45450 0.03860
C14 C 0.13530 0.41050 0.08170
C15 C 0.12070 -0.34590 0.31850
C16 C 0.21620 -0.32930 0.37500
C17 C 0.27470 -0.15020 0.38920
C18 C 0.36760 -0.13520 0.44450
C19 C 0.39810 -0.30340 0.48420
C20 C 0.33440 -0.47700 0.46980
C21 C 0.24310 -0.49040 0.41670
O7_2 O 0.06790 0.48770 0.30700
O8A O -0.09240 0.28930 0.21840
Am1A Am -0.10059 -0.34890 0.22969
Am1A_2 Am -0.10059 0.65110 0.22969
O5A O 0.02280 0.10750 0.34400
O7A O -0.06790 -0.01230 0.19300
Am1_2 Am 0.10059 -0.84890 0.27031
loop_
_geom_bond_atom_site_label_1
_geom_bond_atom_site_label_2
_geom_bond_site_symmetry_1
_geom_bond_site_symmetry_2
Am1 O2 1_555 1_555
O1 C1 1_555 1_555
O2 C1 1_555 1_555
O3 C3 1_555 1_555
O4 Am1 1_555 1_555
O5 C8 1_555 1_555
O6 C10 1_555 1_555
O7 C15 1_555 1_555
O8 Am1 1_555 1_555
O9 Am1 1_555 1_555
O10 Am1 1_555 1_555
C1 C2 1_555 1_555
C2 C3 1_555 1_555
C3 C4 1_555 1_555
C4 C5 1_555 1_555
C5 C6 1_555 1_555
C6 C7 1_555 1_555
C7 C2 1_555 1_555
C8 O4 1_555 1_555
C9 C8 1_555 1_555
C10 C9 1_555 1_555
C11 C10 1_555 1_555
C12 C11 1_555 1_555
C13 C12 1_555 1_555
C14 C9 1_555 1_555
C15 O8 1_555 1_555
C16 C15 1_555 1_555
C17 O9 1_555 1_555
C18 C17 1_555 1_555
C19 C18 1_555 1_555
C20 C19 1_555 1_555
C21 C16 1_555 1_555
O7_2 Am1 1_555 1_555
O8A Am1 1_555 1_555
Am1A O7 1_555 1_555
Am1A_2 O5 1_555 1_555
O5A Am1 1_555 1_555
O7A Am1 1_555 1_555
Am1_2 O7 1_555 1_555
O8 Am1A 1_555 1_555
C13 C14 1_555 1_555
C16 C17 1_555 1_555
C20 C21 1_555 1_555
O7_2 Am1A_2 1_555 1_555
O8A Am1A_2 1_555 1_555
Am1A O7A 1_555 1_555

#END
