
#######################################################################
#
#                 Cambridge Crystallographic Data Centre
#                                CCDC 
#
#######################################################################
#
# If this CIF has been generated from an entry in the Cambridge 
# Structural Database, then it will include bibliographic, chemical, 
# crystal, experimental, refinement or atomic coordinate data resulting 
# from the CCDC's data processing and validation procedures.
#
#######################################################################

data_SALASM10
_symmetry_cell_setting           monoclinic
_symmetry_space_group_name_H-M   'P 21/c'
_symmetry_Int_Tables_number      14
_space_group_name_Hall           '-P 2ybc'
loop_
_symmetry_equiv_pos_site_id
_symmetry_equiv_pos_as_xyz
1 x,y,z
2 -x,1/2+y,1/2-z
3 -x,-y,-z
4 x,1/2-y,1/2+z
_cell_length_a                   13.641(3)
_cell_length_b                   6.752(1)
_cell_length_c                   24.202(7)
_cell_angle_alpha                90
_cell_angle_beta                 113.24(2)
_cell_angle_gamma                90
_cell_volume                     2048.23
loop_
_atom_site_label
_atom_site_type_symbol
_atom_site_fract_x
_atom_site_fract_y
_atom_site_fract_z
Sm1 Sm 0.10109 0.15586 0.27070
O1 O 0.40220 0.21250 0.36690
O2 O 0.26690 0.35150 0.29300
O3 O 0.29570 0.66220 0.24310
O4 O 0.08150 0.34860 0.18200
O5 O -0.02070 0.61530 0.15920
O6 O 0.01780 0.88950 0.09460
O7 O 0.07030 -0.50880 0.30540
O8 O 0.08780 -0.20640 0.28110
O9 O 0.24990 0.01190 0.35440
O10 O 0.18480 -0.00160 0.21080
C1 C 0.36500 0.34450 0.32810
C2 C 0.43680 0.50240 0.32440
C3 C 0.39900 0.65910 0.28320
C4 C 0.46590 0.81170 0.28290
C5 C 0.57410 0.80410 0.32390
C6 C 0.61240 0.64590 0.36180
C7 C 0.54520 0.49460 0.36290
C8 C 0.04610 0.49960 0.15170
C9 C 0.08320 0.55170 0.10340
C10 C 0.06850 0.74200 0.07760
C11 C 0.10830 0.78910 0.03400
C12 C 0.15800 0.64300 0.01420
C13 C 0.17040 0.45090 0.03780
C14 C 0.13460 0.40660 0.08200
C15 C 0.12120 -0.34700 0.31820
C16 C 0.21430 -0.32600 0.37580
C17 C 0.27480 -0.14680 0.39090
C18 C 0.36520 -0.13680 0.44520
C19 C 0.39460 -0.29940 0.48370
C20 C 0.33400 -0.47300 0.46960
C21 C 0.24540 -0.48450 0.41610
O7_2 O 0.07030 0.49120 0.30540
O8A O -0.08780 0.29360 0.21890
Sm1A Sm -0.10109 -0.34414 0.22930
Sm1A_2 Sm -0.10109 0.65586 0.22930
O5A O 0.02070 0.11530 0.34080
O7A O -0.07030 -0.00880 0.19460
Sm1_2 Sm 0.10109 -0.84414 0.27070
loop_
_geom_bond_atom_site_label_1
_geom_bond_atom_site_label_2
_geom_bond_site_symmetry_1
_geom_bond_site_symmetry_2
Sm1 O2 1_555 1_555
O1 C1 1_555 1_555
O2 C1 1_555 1_555
O3 C3 1_555 1_555
O4 Sm1 1_555 1_555
O5 C8 1_555 1_555
O6 C10 1_555 1_555
O7 C15 1_555 1_555
O8 Sm1 1_555 1_555
O9 Sm1 1_555 1_555
O10 Sm1 1_555 1_555
C1 C2 1_555 1_555
C2 C3 1_555 1_555
C3 C4 1_555 1_555
C4 C5 1_555 1_555
C5 C6 1_555 1_555
C6 C7 1_555 1_555
C7 C2 1_555 1_555
C8 O4 1_555 1_555
C9 C8 1_555 1_555
C10 C9 1_555 1_555
C11 C10 1_555 1_555
C12 C11 1_555 1_555
C13 C12 1_555 1_555
C14 C9 1_555 1_555
C15 O8 1_555 1_555
C16 C15 1_555 1_555
C17 O9 1_555 1_555
C18 C17 1_555 1_555
C19 C18 1_555 1_555
C20 C19 1_555 1_555
C21 C16 1_555 1_555
O7_2 Sm1 1_555 1_555
O8A Sm1 1_555 1_555
Sm1A O7 1_555 1_555
Sm1A_2 O5 1_555 1_555
O5A Sm1 1_555 1_555
O7A Sm1 1_555 1_555
Sm1_2 O7 1_555 1_555
O8 Sm1A 1_555 1_555
C13 C14 1_555 1_555
C16 C17 1_555 1_555
C20 C21 1_555 1_555
O7_2 Sm1A_2 1_555 1_555
O8A Sm1A_2 1_555 1_555
Sm1A O7A 1_555 1_555

#END
