
#######################################################################
#
#                 Cambridge Crystallographic Data Centre
#                                CCDC 
#
#######################################################################
#
# If this CIF has been generated from an entry in the Cambridge 
# Structural Database, then it will include bibliographic, chemical, 
# crystal, experimental, refinement or atomic coordinate data resulting 
# from the CCDC's data processing and validation procedures.
#
#######################################################################

data_SALBOX
_symmetry_cell_setting           tetragonal
_symmetry_space_group_name_H-M   'P 43 21 2'
_symmetry_Int_Tables_number      96
_space_group_name_Hall           'P 4nw 2abw'
loop_
_symmetry_equiv_pos_site_id
_symmetry_equiv_pos_as_xyz
1 x,y,z
2 -x,-y,1/2+z
3 1/2-y,1/2+x,3/4+z
4 1/2+y,1/2-x,1/4+z
5 1/2-x,1/2+y,3/4-z
6 1/2+x,1/2-y,1/4-z
7 y,x,-z
8 -y,-x,1/2-z
_cell_length_a                   8.8956(6)
_cell_length_b                   8.8956(6)
_cell_length_c                   21.905(2)
_cell_angle_alpha                90
_cell_angle_beta                 90
_cell_angle_gamma                90
_cell_volume                     1733.38
loop_
_atom_site_label
_atom_site_type_symbol
_atom_site_fract_x
_atom_site_fract_y
_atom_site_fract_z
C1 C 0.2413(8) 0.1452(7) 0.0928(3)
H1 H 0.2012 0.2266 0.1139
C2 C 0.2049(7) 0.0015(7) 0.1118(2)
C3 C 0.2639(7) -0.1182(8) 0.0792(3)
H2 H 0.2399 -0.2162 0.0903
C4 C 0.3587(8) -0.0923(7) 0.0301(3)
H3 H 0.3998 -0.1716 0.0080
C5 C 0.3896(8) 0.0529(7) 0.0152(3)
C6 C 0.4933(8) 0.0959(9) -0.0370(3)
C7 C 0.1032(8) -0.0241(8) 0.1655(3)
N1 N 0.3326(6) 0.1719(6) 0.0450(2)
O1 O 0.4915(5) 0.2375(5) -0.05210(19)
O2 O 0.5716(6) -0.0002(6) -0.0621(2)
O3 O 0.0469(5) 0.0940(5) 0.1896(2)
O4 O 0.0797(6) -0.1532(5) 0.1827(2)
Fe1 Fe 0.38648(10) 0.38648(10) 0.0000
C1F C 0.1452(7) 0.2413(8) -0.0928(3)
H1F H 0.2266 0.2012 -0.1139
C2F C 0.0015(7) 0.2049(7) -0.1118(2)
C3F C -0.1182(8) 0.2639(7) -0.0792(3)
H2F H -0.2162 0.2399 -0.0903
C4F C -0.0923(7) 0.3587(8) -0.0301(3)
H3F H -0.1716 0.3998 -0.0080
C5F C 0.0529(7) 0.3896(8) -0.0152(3)
C6F C 0.0959(9) 0.4933(8) 0.0370(3)
C7F C -0.0241(8) 0.1032(8) -0.1655(3)
N1F N 0.1719(6) 0.3326(6) -0.0450(2)
O1F O 0.2375(5) 0.4915(5) 0.05210(19)
O2F O -0.0002(6) 0.5716(6) 0.0621(2)
O3F O 0.0940(5) 0.0469(5) -0.1896(2)
O4F O -0.1532(5) 0.0797(6) -0.1827(2)
Fe1C Fe -0.11352(10) 0.11352(10) 0.2500
O3B O 0.4060(5) 0.5469(5) -0.0604(2)
O3E O 0.5469(5) 0.4060(5) 0.0604(2)
Fe1B Fe 0.11352(10) -0.11352(10) -0.2500
C8 C 0.8173(11) 0.9290(10) 0.0482(4)
N2 N 0.8115(7) 0.8115(7) 0.0000
C8F C 0.9290(10) 0.8173(11) -0.0482(4)
loop_
_geom_bond_atom_site_label_1
_geom_bond_atom_site_label_2
_geom_bond_site_symmetry_1
_geom_bond_site_symmetry_2
C1 H1 1_555 1_555
C2 C1 1_555 1_555
C3 C2 1_555 1_555
H2 C3 1_555 1_555
C4 C3 1_555 1_555
H3 C4 1_555 1_555
C5 C4 1_555 1_555
C6 C5 1_555 1_555
C7 C2 1_555 1_555
C8 N2 1_555 1_555
N1 C1 1_555 1_555
N2 C8F 1_555 1_555
O1 C6 1_555 1_555
O2 C6 1_555 1_555
O3 C7 1_555 1_555
O4 C7 1_555 1_555
Fe1 N1 1_555 1_555
C1F H1F 1_555 1_555
C2F C1F 1_555 1_555
C3F C2F 1_555 1_555
H2F C3F 1_555 1_555
C4F C3F 1_555 1_555
H3F C4F 1_555 1_555
C5F C4F 1_555 1_555
C6F C5F 1_555 1_555
C7F C2F 1_555 1_555
N1F Fe1 1_555 1_555
O1F Fe1 1_555 1_555
O2F C6F 1_555 1_555
O3F C7F 1_555 1_555
O4F C7F 1_555 1_555
Fe1C O3 1_555 1_555
O3B Fe1 1_555 1_555
O3E Fe1 1_555 1_555
Fe1B O3F 1_555 1_555
C5 N1 1_555 1_555
O1 Fe1 1_555 1_555
C1F N1F 1_555 1_555
C5F N1F 1_555 1_555
C6F O1F 1_555 1_555

#END
