
#######################################################################
#
#                 Cambridge Crystallographic Data Centre
#                                CCDC 
#
#######################################################################
#
# If this CIF has been generated from an entry in the Cambridge 
# Structural Database, then it will include bibliographic, chemical, 
# crystal, experimental, refinement or atomic coordinate data resulting 
# from the CCDC's data processing and validation procedures.
#
#######################################################################

data_SALBIR
_symmetry_cell_setting           monoclinic
_symmetry_space_group_name_H-M   'C 2/c'
_symmetry_Int_Tables_number      15
_space_group_name_Hall           '-C 2yn'
loop_
_symmetry_equiv_pos_site_id
_symmetry_equiv_pos_as_xyz
1 x,y,z
2 x,-y,1/2+z
3 1/2+x,1/2+y,z
4 1/2+x,1/2-y,1/2+z
5 -x,-y,-z
6 -x,y,1/2-z
7 1/2-x,1/2-y,-z
8 1/2-x,1/2+y,1/2-z
_cell_length_a                   15.0657(9)
_cell_length_b                   8.3054(5)
_cell_length_c                   17.0198(10)
_cell_angle_alpha                90
_cell_angle_beta                 100.851(2)
_cell_angle_gamma                90
_cell_volume                     2091.55
loop_
_atom_site_label
_atom_site_type_symbol
_atom_site_fract_x
_atom_site_fract_y
_atom_site_fract_z
C1 C -0.1718(2) 0.2917(4) 0.26336(19)
H1 H -0.1549 0.2798 0.3185
C2 C -0.2560(2) 0.3562(4) 0.2330(2)
C3 C -0.2781(2) 0.3825(4) 0.1517(2)
H2 H -0.3334 0.4283 0.1294
C4 C -0.2177(2) 0.3406(5) 0.1034(2)
H3 H -0.2308 0.3609 0.0487
C5 C -0.1377(2) 0.2681(4) 0.13803(18)
C6 C -0.0718(2) 0.2004(5) 0.08889(19)
C7 C -0.3219(2) 0.3877(4) 0.2886(3)
N1 N -0.11347(15) 0.2457(3) 0.21711(15)
O1 O -0.00684(14) 0.1179(3) 0.12693(13)
O2 O -0.08615(18) 0.2279(5) 0.01650(15)
O3 O -0.2936(2) 0.3940(4) 0.36091(19)
O4 O -0.40364(16) 0.4012(3) 0.25438(19)
Fe1 Fe 0.0000 0.08264(8) 0.2500
C1E C 0.1718(2) 0.2917(4) 0.23664(19)
H1E H 0.1549 0.2798 0.1815
C2E C 0.2560(2) 0.3562(4) 0.2670(2)
C3E C 0.2781(2) 0.3825(4) 0.3483(2)
H2E H 0.3334 0.4283 0.3706
C4E C 0.2177(2) 0.3406(5) 0.3966(2)
H3E H 0.2308 0.3609 0.4513
C5E C 0.1377(2) 0.2681(4) 0.36197(18)
C6E C 0.0718(2) 0.2004(5) 0.41111(19)
C7E C 0.3219(2) 0.3877(4) 0.2114(3)
N1E N 0.11347(15) 0.2457(3) 0.28289(15)
O1E O 0.00684(14) 0.1179(3) 0.37307(13)
O2E O 0.08615(18) 0.2279(5) 0.48350(15)
O3E O 0.2936(2) 0.3940(4) 0.13909(19)
O4E O 0.40364(16) 0.4012(3) 0.24562(19)
Fe1B Fe -0.5000 0.58264(8) 0.2500
O4B O 0.09636(16) -0.0988(3) 0.25438(19)
O4G O -0.09636(16) -0.0988(3) 0.24562(19)
Fe1B_2 Fe 0.5000 0.58264(8) 0.2500
C8 C -0.1226(3) 0.2857(8) 0.5069(3)
H4 H -0.1441 0.1953 0.4736
H5 H -0.0994 0.3661 0.4757
H6 H -0.1716 0.3302 0.5288
C9 C -0.0130(4) 0.3593(6) 0.6265(3)
H7 H 0.0334 0.3152 0.6673
H8 H -0.0596 0.4055 0.6508
H9 H 0.0125 0.4410 0.5976
N2 N -0.0508(3) 0.2332(4) 0.5722(2)
H10 H -0.0730 0.1560 0.6002
H11 H -0.0061 0.1889 0.5509
loop_
_geom_bond_atom_site_label_1
_geom_bond_atom_site_label_2
_geom_bond_site_symmetry_1
_geom_bond_site_symmetry_2
C1 H1 1_555 1_555
C2 C1 1_555 1_555
C3 C2 1_555 1_555
H2 C3 1_555 1_555
C4 C3 1_555 1_555
H3 C4 1_555 1_555
C5 C4 1_555 1_555
C6 C5 1_555 1_555
C7 C2 1_555 1_555
C8 H4 1_555 1_555
H5 C8 1_555 1_555
H6 C8 1_555 1_555
C9 H7 1_555 1_555
H8 C9 1_555 1_555
H9 C9 1_555 1_555
N1 C1 1_555 1_555
N2 C8 1_555 1_555
H10 N2 1_555 1_555
H11 N2 1_555 1_555
O1 C6 1_555 1_555
O2 C6 1_555 1_555
O3 C7 1_555 1_555
O4 C7 1_555 1_555
Fe1 N1 1_555 1_555
C1E H1E 1_555 1_555
C2E C1E 1_555 1_555
C3E C2E 1_555 1_555
H2E C3E 1_555 1_555
C4E C3E 1_555 1_555
H3E C4E 1_555 1_555
C5E C4E 1_555 1_555
C6E C5E 1_555 1_555
C7E C2E 1_555 1_555
N1E Fe1 1_555 1_555
O1E Fe1 1_555 1_555
O2E C6E 1_555 1_555
O3E C7E 1_555 1_555
O4E C7E 1_555 1_555
Fe1B O4 1_555 1_555
O4B Fe1 1_555 1_555
O4G Fe1 1_555 1_555
Fe1B_2 O4E 1_555 1_555
C5 N1 1_555 1_555
C9 N2 1_555 1_555
O1 Fe1 1_555 1_555
C1E N1E 1_555 1_555
C5E N1E 1_555 1_555
C6E O1E 1_555 1_555

#END
