
#######################################################################
#
#                 Cambridge Crystallographic Data Centre
#                                CCDC 
#
#######################################################################
#
# If this CIF has been generated from an entry in the Cambridge 
# Structural Database, then it will include bibliographic, chemical, 
# crystal, experimental, refinement or atomic coordinate data resulting 
# from the CCDC's data processing and validation procedures.
#
#######################################################################

data_SALCEO
_symmetry_cell_setting           monoclinic
_symmetry_space_group_name_H-M   'C 2/c'
_symmetry_Int_Tables_number      15
_space_group_name_Hall           '-C 2yn'
loop_
_symmetry_equiv_pos_site_id
_symmetry_equiv_pos_as_xyz
1 x,y,z
2 1/2+x,1/2+y,z
3 x,-y,1/2+z
4 1/2+x,1/2-y,1/2+z
5 -x,-y,-z
6 1/2-x,1/2-y,-z
7 -x,y,1/2-z
8 1/2-x,1/2+y,1/2-z
_cell_length_a                   20.7489(15)
_cell_length_b                   11.1708(8)
_cell_length_c                   13.6401(10)
_cell_angle_alpha                90
_cell_angle_beta                 109.1690(10)
_cell_angle_gamma                90
_cell_volume                     2986.23
loop_
_atom_site_label
_atom_site_type_symbol
_atom_site_fract_x
_atom_site_fract_y
_atom_site_fract_z
Ru1 Ru 0.501795(15) 0.45145(3) 0.42674(2)
I1 I 0.5000 0.31266(3) 0.2500
O1 O 0.54085(13) 0.6002(2) 0.3838(2)
O2 O 0.40732(12) 0.5155(2) 0.35107(19)
O3 O 0.53621(13) 0.6954(2) 0.5251(2)
O4 O 0.40381(12) 0.6103(2) 0.4937(2)
C1 C 0.54795(19) 0.6933(4) 0.4392(3)
C2 C 0.5711(2) 0.8056(4) 0.4034(3)
C3 C 0.5695(3) 0.9118(4) 0.4543(4)
H1 H 0.5559 0.9126 0.5129
C4 C 0.5883(3) 1.0174(5) 0.4175(6)
H2 H 0.5864 1.0900 0.4499
C5 C 0.6099(4) 1.0133(6) 0.3319(6)
H3 H 0.6240 1.0834 0.3083
C6 C 0.6109(3) 0.9092(6) 0.2819(5)
H4 H 0.6248 0.9085 0.2236
C7 C 0.5913(3) 0.8042(5) 0.3172(4)
H5 H 0.5918 0.7326 0.2826
C8 C 0.37828(19) 0.5849(4) 0.3975(3)
C9 C 0.31257(19) 0.6413(4) 0.3367(3)
C10 C 0.2821(2) 0.7238(4) 0.3829(4)
H6 H 0.3020 0.7426 0.4528
C11 C 0.2212(3) 0.7790(5) 0.3238(5)
H7 H 0.1992 0.8322 0.3547
C12 C 0.1943(3) 0.7539(6) 0.2207(5)
H8 H 0.1547 0.7927 0.1809
C13 C 0.2245(3) 0.6725(6) 0.1741(5)
H9 H 0.2049 0.6549 0.1039
C14 C 0.2844(2) 0.6168(5) 0.2327(4)
H10 H 0.3056 0.5627 0.2014
O1D O 0.45915(13) 0.3998(2) 0.6162(2)
O3D O 0.46379(13) 0.3046(2) 0.4749(2)
C1D C 0.45205(19) 0.3067(4) 0.5608(3)
C2D C 0.4289(2) 0.1944(4) 0.5966(3)
C3D C 0.4305(3) 0.0882(4) 0.5457(4)
H1D H 0.4441 0.0874 0.4871
C4D C 0.4117(3) -0.0174(5) 0.5825(6)
H2D H 0.4136 -0.0900 0.5501
C5D C 0.3901(4) -0.0133(6) 0.6681(6)
H3D H 0.3760 -0.0834 0.6917
C6D C 0.3891(3) 0.0908(6) 0.7181(5)
H4D H 0.3752 0.0915 0.7764
C7D C 0.4087(3) 0.1958(5) 0.6828(4)
H5D H 0.4082 0.2674 0.7174
O2D O 0.59268(12) 0.4845(2) 0.64893(19)
O4D O 0.59619(12) 0.3897(2) 0.5063(2)
C8D C 0.62172(19) 0.4151(4) 0.6025(3)
C9D C 0.68743(19) 0.3587(4) 0.6633(3)
C10D C 0.7179(2) 0.2762(4) 0.6171(4)
H6D H 0.6980 0.2574 0.5472
C11D C 0.7788(3) 0.2210(5) 0.6762(5)
H7D H 0.8008 0.1678 0.6453
C12D C 0.8057(3) 0.2461(6) 0.7793(5)
H8D H 0.8453 0.2073 0.8191
C13D C 0.7755(3) 0.3275(6) 0.8259(5)
H9D H 0.7951 0.3451 0.8961
C14D C 0.7156(2) 0.3832(5) 0.7673(4)
H10D H 0.6944 0.4373 0.7986
Ru1F Ru 0.498205(15) 0.45145(3) 0.07326(2)
Ru1D Ru 0.498205(15) 0.54855(3) 0.57326(2)
I1B I 0.5000 0.68734(3) 0.7500
loop_
_geom_bond_atom_site_label_1
_geom_bond_atom_site_label_2
_geom_bond_site_symmetry_1
_geom_bond_site_symmetry_2
Ru1 I1 1_555 1_555
I1 Ru1F 1_555 1_555
O1 Ru1 1_555 1_555
O2 Ru1 1_555 1_555
O3 C1 1_555 1_555
O4 C8 1_555 1_555
C1 O1 1_555 1_555
C2 C1 1_555 1_555
C3 C2 1_555 1_555
H1 C3 1_555 1_555
C4 C3 1_555 1_555
H2 C4 1_555 1_555
C5 C4 1_555 1_555
H3 C5 1_555 1_555
C6 C5 1_555 1_555
H4 C6 1_555 1_555
C7 C2 1_555 1_555
H5 C7 1_555 1_555
C8 O2 1_555 1_555
C9 C8 1_555 1_555
C10 C9 1_555 1_555
H6 C10 1_555 1_555
C11 C10 1_555 1_555
H7 C11 1_555 1_555
C12 C11 1_555 1_555
H8 C12 1_555 1_555
C13 C12 1_555 1_555
H9 C13 1_555 1_555
C14 C9 1_555 1_555
H10 C14 1_555 1_555
O1D C1D 1_555 1_555
O3D Ru1 1_555 1_555
C1D O3D 1_555 1_555
C2D C1D 1_555 1_555
C3D C2D 1_555 1_555
H1D C3D 1_555 1_555
C4D C3D 1_555 1_555
H2D C4D 1_555 1_555
C5D C4D 1_555 1_555
H3D C5D 1_555 1_555
C6D C5D 1_555 1_555
H4D C6D 1_555 1_555
C7D C2D 1_555 1_555
H5D C7D 1_555 1_555
O2D C8D 1_555 1_555
O4D Ru1 1_555 1_555
C8D O4D 1_555 1_555
C9D C8D 1_555 1_555
C10D C9D 1_555 1_555
H6D C10D 1_555 1_555
C11D C10D 1_555 1_555
H7D C11D 1_555 1_555
C12D C11D 1_555 1_555
H8D C12D 1_555 1_555
C13D C12D 1_555 1_555
H9D C13D 1_555 1_555
C14D C9D 1_555 1_555
H10D C14D 1_555 1_555
Ru1D Ru1 1_555 1_555
I1B Ru1D 1_555 1_555
O3 Ru1D 1_555 1_555
O4 Ru1D 1_555 1_555
C6 C7 1_555 1_555
C13 C14 1_555 1_555
O1D Ru1D 1_555 1_555
C6D C7D 1_555 1_555
O2D Ru1D 1_555 1_555
C13D C14D 1_555 1_555

#END
