
#######################################################################
#
#                 Cambridge Crystallographic Data Centre
#                                CCDC 
#
#######################################################################
#
# If this CIF has been generated from an entry in the Cambridge 
# Structural Database, then it will include bibliographic, chemical, 
# crystal, experimental, refinement or atomic coordinate data resulting 
# from the CCDC's data processing and validation procedures.
#
#######################################################################

data_SALCAK
_symmetry_cell_setting           monoclinic
_symmetry_space_group_name_H-M   'C 2/c'
_symmetry_Int_Tables_number      15
_space_group_name_Hall           '-C 2yn'
loop_
_symmetry_equiv_pos_site_id
_symmetry_equiv_pos_as_xyz
1 x,y,z
2 1/2+x,1/2+y,z
3 x,-y,1/2+z
4 1/2+x,1/2-y,1/2+z
5 -x,-y,-z
6 1/2-x,1/2-y,-z
7 -x,y,1/2-z
8 1/2-x,1/2+y,1/2-z
_cell_length_a                   20.9722(16)
_cell_length_b                   10.9455(9)
_cell_length_c                   13.1733(10)
_cell_angle_alpha                90
_cell_angle_beta                 108.9060(10)
_cell_angle_gamma                90
_cell_volume                     2860.81
loop_
_atom_site_label
_atom_site_type_symbol
_atom_site_fract_x
_atom_site_fract_y
_atom_site_fract_z
Ru1 Ru 0.998018(17) 0.45205(3) 0.07620(3)
Br1 Br 1.0000 0.32458(6) 0.2500
O1 O 0.95923(13) 0.6046(3) 0.1185(2)
O2 O 0.90454(13) 0.3892(3) -0.0049(2)
O3 O 0.96437(13) 0.6992(2) -0.0287(2)
O4 O 0.90862(13) 0.4827(3) -0.1539(2)
C1 C 0.95268(19) 0.6995(4) 0.0597(3)
C2 C 0.9308(2) 0.8144(4) 0.0965(3)
C3 C 0.9336(2) 0.9224(4) 0.0425(4)
H1 H 0.9465 0.9209 -0.0188
C4 C 0.9173(3) 1.0322(5) 0.0803(5)
H2 H 0.9201 1.1049 0.0455
C5 C 0.8969(3) 1.0332(6) 0.1690(6)
H3 H 0.8854 1.1067 0.1939
C6 C 0.8933(3) 0.9265(5) 0.2215(5)
H4 H 0.8791 0.9277 0.2815
C7 C 0.9108(2) 0.8171(5) 0.1850(4)
H5 H 0.9090 0.7449 0.2212
C8 C 0.8795(2) 0.4142(4) -0.1042(4)
C9 C 0.8147(2) 0.3572(4) -0.1669(4)
C10 C 0.7872(3) 0.3813(5) -0.2750(4)
H6 H 0.8088 0.4351 -0.3077
C11 C 0.7274(3) 0.3259(7) -0.3353(6)
H7 H 0.7087 0.3428 -0.4082
C12 C 0.6963(3) 0.2468(7) -0.2871(7)
H8 H 0.6562 0.2101 -0.3277
C13 C 0.7229(3) 0.2198(6) -0.1799(6)
H9 H 0.7013 0.1650 -0.1481
C14 C 0.7833(2) 0.2766(5) -0.1190(5)
H10 H 0.8019 0.2596 -0.0461
O1D O 1.04077(13) 0.3954(3) -0.1185(2)
O3D O 1.03563(13) 0.3008(2) 0.0287(2)
C1D C 1.04732(19) 0.3005(4) -0.0597(3)
C2D C 1.0692(2) 0.1856(4) -0.0965(3)
C3D C 1.0664(2) 0.0776(4) -0.0425(4)
H1D H 1.0535 0.0791 0.0188
C4D C 1.0827(3) -0.0322(5) -0.0803(5)
H2D H 1.0799 -0.1049 -0.0455
C5D C 1.1031(3) -0.0332(6) -0.1690(6)
H3D H 1.1146 -0.1067 -0.1939
C6D C 1.1067(3) 0.0735(5) -0.2215(5)
H4D H 1.1209 0.0723 -0.2815
C7D C 1.0892(2) 0.1829(5) -0.1850(4)
H5D H 1.0910 0.2551 -0.2212
O2D O 1.09546(13) 0.6108(3) 0.0049(2)
O4D O 1.09138(13) 0.5173(3) 0.1539(2)
C8D C 1.1205(2) 0.5858(4) 0.1042(4)
C9D C 1.1853(2) 0.6428(4) 0.1669(4)
C10D C 1.2128(3) 0.6187(5) 0.2750(4)
H6D H 1.1912 0.5649 0.3077
C11D C 1.2726(3) 0.6741(7) 0.3353(6)
H7D H 1.2913 0.6572 0.4082
C12D C 1.3037(3) 0.7532(7) 0.2871(7)
H8D H 1.3438 0.7899 0.3277
C13D C 1.2771(3) 0.7802(6) 0.1799(6)
H9D H 1.2987 0.8350 0.1481
C14D C 1.2167(2) 0.7234(5) 0.1190(5)
H10D H 1.1981 0.7404 0.0461
Ru1F Ru 1.001982(17) 0.45205(3) 0.42380(3)
Ru1D Ru 1.001982(17) 0.54795(3) -0.07620(3)
Br1B Br 1.0000 0.67542(6) -0.2500
loop_
_geom_bond_atom_site_label_1
_geom_bond_atom_site_label_2
_geom_bond_site_symmetry_1
_geom_bond_site_symmetry_2
Ru1 Br1 1_555 1_555
Br1 Ru1F 1_555 1_555
O1 Ru1 1_555 1_555
O2 Ru1 1_555 1_555
O3 C1 1_555 1_555
O4 C8 1_555 1_555
C1 O1 1_555 1_555
C2 C1 1_555 1_555
C3 C2 1_555 1_555
H1 C3 1_555 1_555
C4 C3 1_555 1_555
H2 C4 1_555 1_555
C5 C4 1_555 1_555
H3 C5 1_555 1_555
C6 C5 1_555 1_555
H4 C6 1_555 1_555
C7 C2 1_555 1_555
H5 C7 1_555 1_555
C8 O2 1_555 1_555
C9 C8 1_555 1_555
C10 C9 1_555 1_555
H6 C10 1_555 1_555
C11 C10 1_555 1_555
H7 C11 1_555 1_555
C12 C11 1_555 1_555
H8 C12 1_555 1_555
C13 C12 1_555 1_555
H9 C13 1_555 1_555
C14 C9 1_555 1_555
H10 C14 1_555 1_555
O1D C1D 1_555 1_555
O3D Ru1 1_555 1_555
C1D O3D 1_555 1_555
C2D C1D 1_555 1_555
C3D C2D 1_555 1_555
H1D C3D 1_555 1_555
C4D C3D 1_555 1_555
H2D C4D 1_555 1_555
C5D C4D 1_555 1_555
H3D C5D 1_555 1_555
C6D C5D 1_555 1_555
H4D C6D 1_555 1_555
C7D C2D 1_555 1_555
H5D C7D 1_555 1_555
O2D C8D 1_555 1_555
O4D Ru1 1_555 1_555
C8D O4D 1_555 1_555
C9D C8D 1_555 1_555
C10D C9D 1_555 1_555
H6D C10D 1_555 1_555
C11D C10D 1_555 1_555
H7D C11D 1_555 1_555
C12D C11D 1_555 1_555
H8D C12D 1_555 1_555
C13D C12D 1_555 1_555
H9D C13D 1_555 1_555
C14D C9D 1_555 1_555
H10D C14D 1_555 1_555
Ru1D Ru1 1_555 1_555
Br1B Ru1D 1_555 1_555
O3 Ru1D 1_555 1_555
O4 Ru1D 1_555 1_555
C6 C7 1_555 1_555
C13 C14 1_555 1_555
O1D Ru1D 1_555 1_555
C6D C7D 1_555 1_555
O2D Ru1D 1_555 1_555
C13D C14D 1_555 1_555

#END
