
#######################################################################
#
#                 Cambridge Crystallographic Data Centre
#                                CCDC 
#
#######################################################################
#
# If this CIF has been generated from an entry in the Cambridge 
# Structural Database, then it will include bibliographic, chemical, 
# crystal, experimental, refinement or atomic coordinate data resulting 
# from the CCDC's data processing and validation procedures.
#
#######################################################################

data_SALDEQ
_symmetry_cell_setting           triclinic
_symmetry_space_group_name_H-M   'P -1'
_symmetry_Int_Tables_number      2
_space_group_name_Hall           '-P 1'
loop_
_symmetry_equiv_pos_site_id
_symmetry_equiv_pos_as_xyz
1 x,y,z
2 -x,-y,-z
_cell_length_a                   7.311(2)
_cell_length_b                   10.562(3)
_cell_length_c                   11.339(3)
_cell_angle_alpha                103.765(14)
_cell_angle_beta                 98.100(12)
_cell_angle_gamma                95.523(13)
_cell_volume                     834.25
loop_
_atom_site_label
_atom_site_type_symbol
_atom_site_fract_x
_atom_site_fract_y
_atom_site_fract_z
N1 N 0.131(3) 0.337(2) 0.9739(17)
N2 N 0.134(3) 0.5681(18) 0.8825(17)
N3 N 0.198(3) 0.5885(18) 1.1373(17)
N4 N 0.394(3) 0.598(2) 1.1409(18)
N5 N 0.331(3) 0.5633(19) 0.8873(18)
C1 C 0.075(4) 0.622(2) 0.798(2)
H1 H -0.0499 0.6388 0.7788
C2 C 0.368(3) 0.614(2) 0.794(2)
H2 H 0.4868 0.6214 0.7699
N6 N 0.189(3) 0.1432(18) 0.9425(18)
C3 C 0.053(4) 0.218(3) 0.952(2)
H3 H -0.0757 0.1893 0.9451
N7 N 0.195(3) 0.7087(19) 0.6406(18)
N8 N 0.167(3) 0.007(2) 0.9124(19)
C4 C 0.481(4) 0.669(2) 1.244(2)
H4 H 0.6127 0.6859 1.2684
C5 C 0.184(4) 0.665(2) 1.245(2)
H5 H 0.0696 0.6828 1.2711
N9 N 0.216(3) 0.6518(19) 0.7399(17)
N10 N 0.355(3) 0.7142(19) 1.3128(17)
N11 N 0.384(3) 0.7980(19) 1.4311(18)
Fe1 Fe 0.5000 0.5000 1.0000
N14 N 0.321(3) 0.3423(19) 0.9782(16)
C6 C 0.351(4) 0.223(3) 0.959(2)
H6 H 0.4698 0.1939 0.9578
Fe2 Fe 0.0000 0.5000 1.0000
H7 H 0.4281 0.8791 1.4302
H8 H 0.2614 0.7865 0.6577
H9 H 0.0467 -0.0247 0.9060
H10 H 0.4535 0.7658 1.4838
H11 H 0.2204 0.6533 0.5728
H12 H 0.2343 -0.0228 0.9710
N1A N 0.869(3) 0.663(2) 1.0261(17)
N1A_2 N -0.131(3) 0.663(2) 1.0261(17)
N2A N 0.866(3) 0.4319(18) 1.1175(17)
N2A_2 N -0.134(3) 0.4319(18) 1.1175(17)
N3A N 0.802(3) 0.4115(18) 0.8627(17)
N3A_2 N -0.198(3) 0.4115(18) 0.8627(17)
N4A N 0.606(3) 0.402(2) 0.8591(18)
N5A N 0.669(3) 0.4367(19) 1.1127(18)
C1A C 0.925(4) 0.378(2) 1.202(2)
H1A H 1.0499 0.3612 1.2212
C2A C 0.632(3) 0.386(2) 1.206(2)
H2A H 0.5132 0.3786 1.2301
N6A N 0.811(3) 0.8568(18) 1.0575(18)
C3A C 0.947(4) 0.782(3) 1.048(2)
H3A H 1.0757 0.8107 1.0549
N7A N 0.805(3) 0.2913(19) 1.3594(18)
N8A N 0.833(3) 0.993(2) 1.0876(19)
C4A C 0.519(4) 0.331(2) 0.756(2)
H4A H 0.3873 0.3141 0.7316
C5A C 0.816(4) 0.335(2) 0.755(2)
H5A H 0.9304 0.3172 0.7289
N9A N 0.784(3) 0.3482(19) 1.2601(17)
N10A N 0.645(3) 0.2858(19) 0.6872(17)
N11A N 0.616(3) 0.2020(19) 0.5689(18)
N14A N 0.679(3) 0.6577(19) 1.0218(16)
C6A C 0.649(4) 0.777(3) 1.041(2)
H6A H 0.5302 0.8061 1.0422
Fe2_2 Fe 1.0000 0.5000 1.0000
H7A H 0.5719 0.1209 0.5698
H8A H 0.7386 0.2135 1.3423
H9A H 0.9533 1.0247 1.0940
H10A H 0.5465 0.2342 0.5162
H11A H 0.7796 0.3467 1.4272
H12A H 0.7657 1.0228 1.0290
O1 O 0.514(3) 0.898(2) 0.8369(18)
O2 O 0.665(3) 1.083(2) 0.8444(19)
N12 N 0.568(4) 0.978(3) 0.789(3)
O3 O 0.526(3) 0.963(2) 0.677(2)
O4 O 0.311(3) 0.394(2) 0.544(2)
O5 O 0.319(3) 0.321(2) 0.3553(19)
O6 O 0.218(3) 0.505(2) 0.423(2)
N13 N 0.287(4) 0.411(3) 0.435(3)
O7 O 0.879(3) 0.8479(15) 0.3444(15)
H13 H 0.9137 0.8324 0.4147
H15 H 0.9194 0.9291 0.3503
O8 O 0.939(3) 0.8979(17) 0.6138(14)
H14 H 0.9257 0.8533 0.6669
H16 H 0.9459 0.8439 0.5451
loop_
_geom_bond_atom_site_label_1
_geom_bond_atom_site_label_2
_geom_bond_site_symmetry_1
_geom_bond_site_symmetry_2
N1 C3 1_555 1_555
N2 N5 1_555 1_555
N3 N4 1_555 1_555
N4 C4 1_555 1_555
N5 C2 1_555 1_555
C1 N2 1_555 1_555
H1 C1 1_555 1_555
C2 H2 1_555 1_555
N6 C3 1_555 1_555
C3 H3 1_555 1_555
N7 N9 1_555 1_555
N8 N6 1_555 1_555
C4 H4 1_555 1_555
C5 N3 1_555 1_555
H5 C5 1_555 1_555
N9 C1 1_555 1_555
N10 C4 1_555 1_555
N11 N10 1_555 1_555
O1 N12 1_555 1_555
O2 N12 1_555 1_555
N12 O3 1_555 1_555
O4 N13 1_555 1_555
O5 N13 1_555 1_555
O6 N13 1_555 1_555
O7 H13 1_555 1_555
O8 H14 1_555 1_555
Fe1 N4 1_555 1_555
N14 N1 1_555 1_555
C6 N6 1_555 1_555
H6 C6 1_555 1_555
Fe2 N1 1_555 1_555
H7 N11 1_555 1_555
H8 N7 1_555 1_555
H9 N8 1_555 1_555
H10 N11 1_555 1_555
H11 N7 1_555 1_555
H12 N8 1_555 1_555
H15 O7 1_555 1_555
H16 O8 1_555 1_555
N1A C3A 1_555 1_555
N1A_2 Fe2 1_555 1_555
N2A N5A 1_555 1_555
N2A_2 Fe2 1_555 1_555
N3A N4A 1_555 1_555
N3A_2 Fe2 1_555 1_555
N4A Fe1 1_555 1_555
N5A Fe1 1_555 1_555
C1A N2A 1_555 1_555
H1A C1A 1_555 1_555
C2A N5A 1_555 1_555
H2A C2A 1_555 1_555
N6A C3A 1_555 1_555
C3A H3A 1_555 1_555
N7A N9A 1_555 1_555
N8A N6A 1_555 1_555
C4A N4A 1_555 1_555
H4A C4A 1_555 1_555
C5A N3A 1_555 1_555
H5A C5A 1_555 1_555
N9A C1A 1_555 1_555
N10A C4A 1_555 1_555
N11A N10A 1_555 1_555
N14A Fe1 1_555 1_555
C6A N6A 1_555 1_555
H6A C6A 1_555 1_555
Fe2_2 N1A 1_555 1_555
H7A N11A 1_555 1_555
H8A N7A 1_555 1_555
H9A N8A 1_555 1_555
H10A N11A 1_555 1_555
H11A N7A 1_555 1_555
H12A N8A 1_555 1_555
N2 Fe2 1_555 1_555
N3 Fe2 1_555 1_555
N5 Fe1 1_555 1_555
C2 N9 1_555 1_555
C5 N10 1_555 1_555
Fe1 N14 1_555 1_555
N14 C6 1_555 1_555
N1A N14A 1_555 1_555
N2A Fe2_2 1_555 1_555
N3A Fe2_2 1_555 1_555
C2A N9A 1_555 1_555
C5A N10A 1_555 1_555
N14A C6A 1_555 1_555

#END
