
#######################################################################
#
#                 Cambridge Crystallographic Data Centre
#                                CCDC 
#
#######################################################################
#
# If this CIF has been generated from an entry in the Cambridge 
# Structural Database, then it will include bibliographic, chemical, 
# crystal, experimental, refinement or atomic coordinate data resulting 
# from the CCDC's data processing and validation procedures.
#
#######################################################################

data_SALFAO01
_symmetry_cell_setting           rhombohedral
_symmetry_space_group_name_H-M   'R -3'
_symmetry_Int_Tables_number      148
_space_group_name_Hall           '-R 3'
loop_
_symmetry_equiv_pos_site_id
_symmetry_equiv_pos_as_xyz
1 x,y,z
2 -y,x-y,z
3 -x+y,-x,z
4 2/3+x,1/3+y,1/3+z
5 2/3-y,1/3+x-y,1/3+z
6 2/3-x+y,1/3-x,1/3+z
7 1/3+x,2/3+y,2/3+z
8 1/3-y,2/3+x-y,2/3+z
9 1/3-x+y,2/3-x,2/3+z
10 -x,-y,-z
11 y,-x+y,-z
12 x-y,x,-z
13 1/3-x,2/3-y,2/3-z
14 1/3+y,2/3-x+y,2/3-z
15 1/3+x-y,2/3+x,2/3-z
16 2/3-x,1/3-y,1/3-z
17 2/3+y,1/3-x+y,1/3-z
18 2/3+x-y,1/3+x,1/3-z
_cell_length_a                   18.4690(4)
_cell_length_b                   18.4690(4)
_cell_length_c                   25.3532(6)
_cell_angle_alpha                90
_cell_angle_beta                 90
_cell_angle_gamma                120
_cell_volume                     7489.45
loop_
_atom_site_label
_atom_site_type_symbol
_atom_site_fract_x
_atom_site_fract_y
_atom_site_fract_z
I1 I -0.3333 0.3333 -0.09016(2)
I2 I -0.44625(2) 0.17440(2) 0.054140(13)
Cu1 Cu -0.07649(4) -0.11420(4) -0.06066(2)
Cu2 Cu -0.30240(4) 0.27027(4) -0.00514(3)
Cu3 Cu -0.3333 0.3333 0.07857(4)
C1 C -0.2823(3) -0.0923(3) -0.0850(2)
H1 H -0.3395 -0.1120 -0.0927
N1 N -0.1490(3) -0.0103(3) -0.05973(16)
C2 C -0.2384(3) 0.0557(3) -0.05390(19)
C3 C -0.2237(3) -0.0135(3) -0.06682(18)
C4 C -0.2402(3) -0.1363(3) -0.08960(19)
C5 C -0.1746(3) 0.1362(3) -0.0415(2)
H2 H -0.1179 0.1493 -0.0415
N2 N -0.2737(3) 0.1823(3) -0.02809(16)
C6 C -0.2227(3) -0.2433(3) -0.13979(19)
H3 H -0.1698 -0.2003 -0.1518
C7 C -0.1951(3) 0.1966(3) -0.02928(19)
H4 H -0.1511 0.2513 -0.0213
C8 C -0.2707(3) -0.2237(3) -0.10723(19)
C9 C -0.3768(4) -0.3682(4) -0.1080(2)
H5 H -0.4304 -0.4110 -0.0968
C10 C -0.3197(3) 0.0410(4) -0.0528(2)
H6 H -0.3650 -0.0129 -0.0611
C11 C -0.3346(4) 0.1048(4) -0.0396(2)
H7 H -0.3909 0.0931 -0.0387
C12 C -0.3494(4) -0.2873(4) -0.0930(2)
H8 H -0.3849 -0.2747 -0.0727
N3 N -0.3333 0.3333 0.1595(3)
H9 H -0.3221 0.2936 0.1715
C13 C -0.2514(4) -0.3255(4) -0.1550(2)
H10 H -0.2174 -0.3381 -0.1768
C14 C -0.3288(4) -0.3893(4) -0.1388(2)
C15 C -0.3590(4) -0.4788(4) -0.1542(3)
H11 H -0.3885 -0.5156 -0.1244
H12 H -0.3111 -0.4850 -0.1640
H13 H -0.3972 -0.4938 -0.1844
N4 N -0.1600(3) -0.0875(3) -0.07383(16)
I2B I -0.37935(3) 0.44625(2) 0.054140(13)
I2A I -0.17440(2) 0.37935(3) 0.054140(13)
Cu1A Cu -0.88580(4) 0.03771(6) -0.06066(2)
Cu1_2 Cu -0.07649(4) 0.88580(4) -0.06066(2)
Cu1B Cu -0.03771(6) 0.07649(4) -0.06066(2)
Cu1B_2 Cu -1.03771(6) 0.07649(4) -0.06066(2)
Cu1A_2 Cu 0.11420(4) 1.03771(6) -0.06066(2)
Cu2B Cu -0.42733(6) 0.30240(4) -0.00514(3)
Cu2A Cu -0.27027(4) 0.42733(6) -0.00514(3)
C1B C -0.8100(4) 0.2823(3) -0.0850(2)
C1A C 0.0923(3) 0.8100(4) -0.0850(2)
H1B H -0.7725 0.3395 -0.0927
H1A H 0.1120 0.7725 -0.0927
N1B N -0.8613(4) 0.1490(3) -0.05973(16)
N1A N 0.0103(3) 0.8613(4) -0.05973(16)
N1A_2 N 0.0103(3) -0.1387(4) -0.05973(16)
N1_2 N -1.1490(3) -0.0103(3) -0.05973(16)
N1B_2 N 0.1387(4) 1.1490(3) -0.05973(16)
C2B C -0.7059(4) 0.2384(3) -0.05390(19)
C2A C -0.0557(3) 0.7059(4) -0.05390(19)
C3B C -0.7898(4) 0.2237(3) -0.06682(18)
C3A C 0.0135(3) 0.7898(4) -0.06682(18)
C4B C -0.8961(4) 0.2402(3) -0.08960(19)
C4A C 0.1363(3) 0.8961(4) -0.08960(19)
C5B C -0.6892(4) 0.1746(3) -0.0415(2)
C5A C -0.1362(3) 0.6892(4) -0.0415(2)
H2B H -0.7328 0.1179 -0.0415
H2A H -0.1493 0.7328 -0.0415
N2B N -0.5440(4) 0.2737(3) -0.02809(16)
N2A N -0.1823(3) 0.5440(4) -0.02809(16)
C6B C -1.0206(4) 0.2227(3) -0.13979(19)
C6A C 0.2433(3) 1.0206(4) -0.13979(19)
H3B H -1.0305 0.1698 -0.1518
H3A H 0.2003 1.0305 -0.1518
C7B C -0.6083(4) 0.1951(3) -0.02928(19)
C7A C -0.1966(3) 0.6083(4) -0.02928(19)
H4B H -0.5976 0.1511 -0.0213
H4A H -0.2513 0.5976 -0.0213
C8B C -0.9530(4) 0.2707(3) -0.10723(19)
C8A C 0.2237(3) 0.9530(4) -0.10723(19)
C9B C -0.9914(6) 0.3768(4) -0.1080(2)
C9A C 0.3682(4) 0.9914(6) -0.1080(2)
H5B H -0.9806 0.4304 -0.0968
H5A H 0.4110 0.9806 -0.0968
C10B C -0.6393(5) 0.3197(3) -0.0528(2)
C10A C -0.0410(4) 0.6393(5) -0.0528(2)
H6B H -0.6479 0.3650 -0.0611
H6A H 0.0129 0.6479 -0.0611
C11B C -0.5606(6) 0.3346(4) -0.0396(2)
C11A C -0.1048(4) 0.5606(6) -0.0396(2)
H7B H -0.5160 0.3909 -0.0387
H7A H -0.0931 0.5160 -0.0387
C12B C -0.9379(6) 0.3494(4) -0.0930(2)
C12A C 0.2873(4) 0.9379(6) -0.0930(2)
H8B H -0.8898 0.3849 -0.0727
H8A H 0.2747 0.8898 -0.0727
H9A H -0.2936 0.3843 0.1715
H9B H -0.3843 0.3221 0.1715
C13B C -1.0741(6) 0.2514(4) -0.1550(2)
C13A C 0.3255(4) 1.0741(6) -0.1550(2)
H10B H -1.1207 0.2174 -0.1768
H10A H 0.3381 1.1207 -0.1768
C14B C -1.0605(6) 0.3288(4) -0.1388(2)
C14A C 0.3893(4) 1.0605(6) -0.1388(2)
C15B C -1.1198(6) 0.3590(4) -0.1542(3)
C15A C 0.4788(4) 1.1198(6) -0.1542(3)
H11B H -1.1271 0.3885 -0.1244
H11A H 0.5156 1.1271 -0.1244
H12B H -1.1739 0.3111 -0.1640
H12A H 0.4850 1.1739 -0.1640
H13B H -1.0966 0.3972 -0.1844
H13A H 0.4938 1.0966 -0.1844
N4B N -0.9275(4) 0.1600(3) -0.07383(16)
N4A N 0.0875(3) 0.9275(4) -0.07383(16)
loop_
_geom_bond_atom_site_label_1
_geom_bond_atom_site_label_2
_geom_bond_site_symmetry_1
_geom_bond_site_symmetry_2
I1 Cu2 1_555 1_555
I2 Cu2 1_555 1_555
Cu1 N4 1_555 1_555
Cu2 N2 1_555 1_555
Cu3 I2 1_555 1_555
C1 H1 1_555 1_555
N1 C3 1_555 1_555
C2 C3 1_555 1_555
C3 C1 1_555 1_555
C4 C1 1_555 1_555
C5 C2 1_555 1_555
H2 C5 1_555 1_555
N2 C7 1_555 1_555
C6 H3 1_555 1_555
C7 C5 1_555 1_555
H4 C7 1_555 1_555
C8 C4 1_555 1_555
C9 H5 1_555 1_555
C10 C2 1_555 1_555
H6 C10 1_555 1_555
C11 N2 1_555 1_555
H7 C11 1_555 1_555
C12 C8 1_555 1_555
H8 C12 1_555 1_555
N3 Cu3 1_555 1_555
H9 N3 1_555 1_555
C13 C6 1_555 1_555
H10 C13 1_555 1_555
C14 C9 1_555 1_555
C15 C14 1_555 1_555
H11 C15 1_555 1_555
H12 C15 1_555 1_555
H13 C15 1_555 1_555
N4 N1 1_555 1_555
I2B Cu3 1_555 1_555
I2A Cu2 1_555 1_555
Cu1A N1B 1_555 1_555
Cu1_2 N1A 1_555 1_555
Cu1B N1 1_555 1_555
Cu1B_2 N1_2 1_555 1_555
Cu1A_2 N1B_2 1_555 1_555
Cu2B I1 1_555 1_555
Cu2A I1 1_555 1_555
C1B H1B 1_555 1_555
C1A H1A 1_555 1_555
N1B C3B 1_555 1_555
N1A C3A 1_555 1_555
N1A_2 Cu1 1_555 1_555
C2B C3B 1_555 1_555
C2A C3A 1_555 1_555
C3B C1B 1_555 1_555
C3A C1A 1_555 1_555
C4B C1B 1_555 1_555
C4A C1A 1_555 1_555
C5B C2B 1_555 1_555
C5A C2A 1_555 1_555
H2B C5B 1_555 1_555
H2A C5A 1_555 1_555
N2B Cu2B 1_555 1_555
N2A Cu2A 1_555 1_555
C6B H3B 1_555 1_555
C6A H3A 1_555 1_555
C7B C5B 1_555 1_555
C7A C5A 1_555 1_555
H4B C7B 1_555 1_555
H4A C7A 1_555 1_555
C8B C4B 1_555 1_555
C8A C4A 1_555 1_555
C9B H5B 1_555 1_555
C9A H5A 1_555 1_555
C10B C2B 1_555 1_555
C10A C2A 1_555 1_555
H6B C10B 1_555 1_555
H6A C10A 1_555 1_555
C11B N2B 1_555 1_555
C11A N2A 1_555 1_555
H7B C11B 1_555 1_555
H7A C11A 1_555 1_555
C12B C8B 1_555 1_555
C12A C8A 1_555 1_555
H8B C12B 1_555 1_555
H8A C12A 1_555 1_555
H9A N3 1_555 1_555
H9B N3 1_555 1_555
C13B C6B 1_555 1_555
C13A C6A 1_555 1_555
H10B C13B 1_555 1_555
H10A C13A 1_555 1_555
C14B C9B 1_555 1_555
C14A C9A 1_555 1_555
C15B C14B 1_555 1_555
C15A C14A 1_555 1_555
H11B C15B 1_555 1_555
H11A C15A 1_555 1_555
H12B C15B 1_555 1_555
H12A C15A 1_555 1_555
H13B C15B 1_555 1_555
H13A C15A 1_555 1_555
N4B Cu1B_2 1_555 1_555
N4A Cu1A_2 1_555 1_555
I2 Cu2B 1_555 1_555
Cu3 I2A 1_555 1_555
C4 N4 1_555 1_555
C6 C8 1_555 1_555
C9 C12 1_555 1_555
C10 C11 1_555 1_555
C13 C14 1_555 1_555
I2B Cu2B 1_555 1_555
I2B Cu2A 1_555 1_555
I2A Cu2A 1_555 1_555
N1B N4B 1_555 1_555
N1A N4A 1_555 1_555
C4B N4B 1_555 1_555
C4A N4A 1_555 1_555
N2B C7B 1_555 1_555
N2A C7A 1_555 1_555
C6B C8B 1_555 1_555
C6A C8A 1_555 1_555
C9B C12B 1_555 1_555
C9A C12A 1_555 1_555
C10B C11B 1_555 1_555
C10A C11A 1_555 1_555
C13B C14B 1_555 1_555
C13A C14A 1_555 1_555

#END
