
#######################################################################
#
#                 Cambridge Crystallographic Data Centre
#                                CCDC 
#
#######################################################################
#
# If this CIF has been generated from an entry in the Cambridge 
# Structural Database, then it will include bibliographic, chemical, 
# crystal, experimental, refinement or atomic coordinate data resulting 
# from the CCDC's data processing and validation procedures.
#
#######################################################################

data_SALFAO
_symmetry_cell_setting           rhombohedral
_symmetry_space_group_name_H-M   'R -3'
_symmetry_Int_Tables_number      148
_space_group_name_Hall           '-R 3'
loop_
_symmetry_equiv_pos_site_id
_symmetry_equiv_pos_as_xyz
1 x,y,z
2 -y,x-y,z
3 -x+y,-x,z
4 2/3+x,1/3+y,1/3+z
5 2/3-y,1/3+x-y,1/3+z
6 2/3-x+y,1/3-x,1/3+z
7 1/3+x,2/3+y,2/3+z
8 1/3-y,2/3+x-y,2/3+z
9 1/3-x+y,2/3-x,2/3+z
10 -x,-y,-z
11 y,-x+y,-z
12 x-y,x,-z
13 1/3-x,2/3-y,2/3-z
14 1/3+y,2/3-x+y,2/3-z
15 1/3+x-y,2/3+x,2/3-z
16 2/3-x,1/3-y,1/3-z
17 2/3+y,1/3-x+y,1/3-z
18 2/3+x-y,1/3+x,1/3-z
_cell_length_a                   18.4873(4)
_cell_length_b                   18.4873(4)
_cell_length_c                   25.7549(6)
_cell_angle_alpha                90
_cell_angle_beta                 90
_cell_angle_gamma                120
_cell_volume                     7623.2
loop_
_atom_site_label
_atom_site_type_symbol
_atom_site_fract_x
_atom_site_fract_y
_atom_site_fract_z
Cu1 Cu 0.88646(3) 0.92363(3) 0.06095(2)
Cu2 Cu 1.27045(4) 0.69905(4) 0.00541(3)
Cu3 Cu 1.3333 0.6667 -0.07790(4)
I1 I 1.3333 0.6667 0.08880(2)
I2 I 1.38004(2) 0.82615(2) -0.053041(14)
N1 N 0.9134(2) 0.8406(2) 0.07378(14)
N2 N 0.9899(2) 0.8515(2) 0.06007(14)
N3 N 1.1831(2) 0.7280(2) 0.02801(15)
N4 N 1.3333 0.6667 -0.1572(3)
H1 H 1.2889 0.6685 -0.1687
C1 C 1.1352(3) 0.8250(3) 0.04066(19)
H2 H 1.1476 0.8803 0.0395
C2 C 1.1958(3) 0.8056(3) 0.02871(19)
H3 H 1.2489 0.8491 0.0206
C3 C 1.1063(3) 0.6678(3) 0.0412(2)
H4 H 1.0955 0.6130 0.0417
C4 C 1.0431(3) 0.6822(3) 0.0541(2)
H5 H 0.9909 0.6377 0.0627
C5 C 1.0562(3) 0.7633(3) 0.05430(17)
C6 C 0.9868(3) 0.7772(3) 0.06690(17)
C7 C 0.9091(3) 0.7195(3) 0.08528(18)
H6 H 0.8904 0.6638 0.0932
C8 C 0.8642(3) 0.7608(3) 0.08960(17)
C9 C 0.7782(3) 0.7301(3) 0.10696(17)
C10 C 0.7147(3) 0.6523(3) 0.0924(2)
H7 H 0.7269 0.6177 0.0726
C11 C 0.6328(3) 0.6250(3) 0.1068(2)
H8 H 0.5909 0.5728 0.0958
C12 C 0.6119(3) 0.6728(3) 0.1369(2)
C13 C 0.6760(3) 0.7489(3) 0.1533(2)
H9 H 0.6638 0.7818 0.1748
C14 C 0.7581(3) 0.7778(3) 0.13872(18)
H10 H 0.7999 0.8296 0.1504
C15 C 0.5228(3) 0.6433(4) 0.1508(3)
H11 H 0.4871 0.6107 0.1228
H12 H 0.5157 0.6906 0.1570
H13 H 0.5083 0.6096 0.1816
Cu1B Cu 2.03717(4) 1.11354(3) 0.06095(2)
Cu1A Cu 1.07637(3) -0.03717(4) 0.06095(2)
Cu1A_2 Cu 1.07637(3) 0.96283(4) 0.06095(2)
Cu1_2 Cu 1.88646(3) 0.92363(3) 0.06095(2)
Cu1B_2 Cu 1.03717(4) 0.11354(3) 0.06095(2)
Cu2B Cu 1.42860(6) 0.72955(4) 0.00541(3)
Cu2A Cu 1.30095(4) 0.57140(6) 0.00541(3)
I2B I 1.44611(3) 0.61996(2) -0.053041(14)
I2A I 1.17385(2) 0.55389(3) -0.053041(14)
N1B N 1.9272(3) 1.0866(2) 0.07378(14)
N1A N 1.1594(2) 0.0728(3) 0.07378(14)
N2B N 1.8616(3) 1.0101(2) 0.06007(14)
N2A N 1.1485(2) 0.1384(3) 0.06007(14)
N2B_2 N 0.8616(3) 1.0101(2) 0.06007(14)
N2A_2 N 2.1485(2) 1.1384(3) 0.06007(14)
N2_2 N 0.9899(2) -0.1485(2) 0.06007(14)
N3B N 1.5449(3) 0.8169(2) 0.02801(15)
N3A N 1.2720(2) 0.4551(3) 0.02801(15)
H1A H 1.3315 0.6204 -0.1687
H1B H 1.3796 0.7111 -0.1687
C1B C 1.6898(4) 0.8648(3) 0.04066(19)
C1A C 1.1750(3) 0.3102(4) 0.04066(19)
H2B H 1.7327 0.8524 0.0395
H2A H 1.1197 0.2673 0.0395
C2B C 1.6098(4) 0.8042(3) 0.02871(19)
C2A C 1.1944(3) 0.3902(4) 0.02871(19)
H3B H 1.6002 0.7511 0.0206
H3A H 1.1509 0.3998 0.0206
C3B C 1.5615(4) 0.8937(3) 0.0412(2)
C3A C 1.3322(3) 0.4385(4) 0.0412(2)
H4B H 1.5175 0.9045 0.0417
H4A H 1.3870 0.4825 0.0417
C4B C 1.6391(4) 0.9569(3) 0.0541(2)
C4A C 1.3178(3) 0.3609(4) 0.0541(2)
H5B H 1.6468 1.0091 0.0627
H5A H 1.3623 0.3532 0.0627
C5B C 1.7071(4) 0.9438(3) 0.05430(17)
C5A C 1.2367(3) 0.2929(4) 0.05430(17)
C6B C 1.7904(4) 1.0132(3) 0.06690(17)
C6A C 1.2228(3) 0.2096(4) 0.06690(17)
C7B C 1.8104(4) 1.0909(3) 0.08528(18)
C7A C 1.2805(3) 0.1896(4) 0.08528(18)
H6B H 1.7734 1.1096 0.0932
H6A H 1.3362 0.2266 0.0932
C8B C 1.8966(4) 1.1358(3) 0.08960(17)
C8A C 1.2392(3) 0.1034(4) 0.08960(17)
C9B C 1.9519(4) 1.2218(3) 0.10696(17)
C9A C 1.2699(3) 0.0481(4) 0.10696(17)
C10B C 1.9376(4) 1.2853(3) 0.0924(2)
C10A C 1.3477(3) 0.0624(4) 0.0924(2)
H7B H 1.8908 1.2731 0.0726
H7A H 1.3823 0.1092 0.0726
C11B C 1.9922(4) 1.3672(3) 0.1068(2)
C11A C 1.3750(3) 0.0078(4) 0.1068(2)
H8B H 1.9819 1.4091 0.0958
H8A H 1.4272 0.0181 0.0958
C12B C 2.0609(4) 1.3881(3) 0.1369(2)
C12A C 1.3272(3) -0.0609(4) 0.1369(2)
C13B C 2.0729(4) 1.3240(3) 0.1533(2)
C13A C 1.2511(3) -0.0729(4) 0.1533(2)
H9B H 2.1180 1.3362 0.1748
H9A H 1.2182 -0.1180 0.1748
C14B C 2.0197(4) 1.2419(3) 0.13872(18)
C14A C 1.2222(3) -0.0197(4) 0.13872(18)
H10B H 2.0297 1.2001 0.1504
H10A H 1.1704 -0.0297 0.1504
C15B C 2.1205(5) 1.4772(3) 0.1508(3)
C15A C 1.3567(4) -0.1205(5) 0.1508(3)
H11B H 2.1236 1.5129 0.1228
H11A H 1.3893 -0.1236 0.1228
H12B H 2.1749 1.4843 0.1570
H12A H 1.3094 -0.1749 0.1570
H13B H 2.1013 1.4917 0.1816
H13A H 1.3904 -0.1013 0.1816
loop_
_geom_bond_atom_site_label_1
_geom_bond_atom_site_label_2
_geom_bond_site_symmetry_1
_geom_bond_site_symmetry_2
Cu1 N1 1_555 1_555
Cu2 I1 1_555 1_555
Cu3 I2 1_555 1_555
I1 Cu2B 1_555 1_555
I2 Cu2 1_555 1_555
N1 N2 1_555 1_555
N2 C6 1_555 1_555
N3 Cu2 1_555 1_555
N4 Cu3 1_555 1_555
H1 N4 1_555 1_555
C1 H2 1_555 1_555
C2 N3 1_555 1_555
H3 C2 1_555 1_555
C3 N3 1_555 1_555
H4 C3 1_555 1_555
C4 C3 1_555 1_555
H5 C4 1_555 1_555
C5 C1 1_555 1_555
C6 C5 1_555 1_555
C7 C6 1_555 1_555
H6 C7 1_555 1_555
C8 N1 1_555 1_555
C9 C8 1_555 1_555
C10 C9 1_555 1_555
H7 C10 1_555 1_555
C11 C10 1_555 1_555
H8 C11 1_555 1_555
C12 C11 1_555 1_555
C13 C12 1_555 1_555
H9 C13 1_555 1_555
C14 C9 1_555 1_555
H10 C14 1_555 1_555
C15 C12 1_555 1_555
H11 C15 1_555 1_555
H12 C15 1_555 1_555
H13 C15 1_555 1_555
Cu1B N1B 1_555 1_555
Cu1A N1A 1_555 1_555
Cu1A_2 N2 1_555 1_555
Cu1_2 N2B 1_555 1_555
Cu1B_2 N2A 1_555 1_555
Cu2B I2 1_555 1_555
Cu2A I1 1_555 1_555
I2B Cu3 1_555 1_555
I2A Cu2 1_555 1_555
N1B N2B 1_555 1_555
N1A N2A 1_555 1_555
N2B C6B 1_555 1_555
N2A C6A 1_555 1_555
N2B_2 Cu1 1_555 1_555
N2A_2 Cu1B 1_555 1_555
N2_2 Cu1A 1_555 1_555
N3B Cu2B 1_555 1_555
N3A Cu2A 1_555 1_555
H1A N4 1_555 1_555
H1B N4 1_555 1_555
C1B H2B 1_555 1_555
C1A H2A 1_555 1_555
C2B N3B 1_555 1_555
C2A N3A 1_555 1_555
H3B C2B 1_555 1_555
H3A C2A 1_555 1_555
C3B N3B 1_555 1_555
C3A N3A 1_555 1_555
H4B C3B 1_555 1_555
H4A C3A 1_555 1_555
C4B C3B 1_555 1_555
C4A C3A 1_555 1_555
H5B C4B 1_555 1_555
H5A C4A 1_555 1_555
C5B C1B 1_555 1_555
C5A C1A 1_555 1_555
C6B C5B 1_555 1_555
C6A C5A 1_555 1_555
C7B C6B 1_555 1_555
C7A C6A 1_555 1_555
H6B C7B 1_555 1_555
H6A C7A 1_555 1_555
C8B N1B 1_555 1_555
C8A N1A 1_555 1_555
C9B C8B 1_555 1_555
C9A C8A 1_555 1_555
C10B C9B 1_555 1_555
C10A C9A 1_555 1_555
H7B C10B 1_555 1_555
H7A C10A 1_555 1_555
C11B C10B 1_555 1_555
C11A C10A 1_555 1_555
H8B C11B 1_555 1_555
H8A C11A 1_555 1_555
C12B C11B 1_555 1_555
C12A C11A 1_555 1_555
C13B C12B 1_555 1_555
C13A C12A 1_555 1_555
H9B C13B 1_555 1_555
H9A C13A 1_555 1_555
C14B C9B 1_555 1_555
C14A C9A 1_555 1_555
H10B C14B 1_555 1_555
H10A C14A 1_555 1_555
C15B C12B 1_555 1_555
C15A C12A 1_555 1_555
H11B C15B 1_555 1_555
H11A C15A 1_555 1_555
H12B C15B 1_555 1_555
H12A C15A 1_555 1_555
H13B C15B 1_555 1_555
H13A C15A 1_555 1_555
Cu3 I2A 1_555 1_555
C1 C2 1_555 1_555
C4 C5 1_555 1_555
C7 C8 1_555 1_555
C13 C14 1_555 1_555
Cu2B I2B 1_555 1_555
Cu2A I2B 1_555 1_555
Cu2A I2A 1_555 1_555
C1B C2B 1_555 1_555
C1A C2A 1_555 1_555
C4B C5B 1_555 1_555
C4A C5A 1_555 1_555
C7B C8B 1_555 1_555
C7A C8A 1_555 1_555
C13B C14B 1_555 1_555
C13A C14A 1_555 1_555

#END
