
#######################################################################
#
#                 Cambridge Crystallographic Data Centre
#                                CCDC 
#
#######################################################################
#
# If this CIF has been generated from an entry in the Cambridge 
# Structural Database, then it will include bibliographic, chemical, 
# crystal, experimental, refinement or atomic coordinate data resulting 
# from the CCDC's data processing and validation procedures.
#
#######################################################################

data_SALKEW
_symmetry_cell_setting           monoclinic
_symmetry_space_group_name_H-M   'C 2/c'
_symmetry_Int_Tables_number      15
_space_group_name_Hall           '-C 2yn'
loop_
_symmetry_equiv_pos_site_id
_symmetry_equiv_pos_as_xyz
1 x,y,z
2 1/2+x,1/2+y,z
3 x,-y,1/2+z
4 1/2+x,1/2-y,1/2+z
5 -x,-y,-z
6 1/2-x,1/2-y,-z
7 -x,y,1/2-z
8 1/2-x,1/2+y,1/2-z
_cell_length_a                   25.6114(4)
_cell_length_b                   18.3781(2)
_cell_length_c                   16.5180(3)
_cell_angle_alpha                90
_cell_angle_beta                 124.0610(10)
_cell_angle_gamma                90
_cell_volume                     6441
loop_
_atom_site_label
_atom_site_type_symbol
_atom_site_fract_x
_atom_site_fract_y
_atom_site_fract_z
Cu1 Cu 0.11734(5) 0.19556(5) 0.61545(7)
N1 N 0.1093(3) 0.2879(3) 0.6774(4)
N2 N 0.1077(3) 0.1489(3) 0.7166(5)
P1 P 0.16058(10) 0.04872(11) 0.55892(17)
P2 P -0.02869(10) 0.13397(11) 0.41355(17)
P3 P -0.17185(10) 0.73488(11) 0.50073(16)
O1 O 0.1700(3) 0.1143(3) 0.6208(4)
O2 O 0.1639(4) 0.0690(4) 0.4704(6)
H1 H 0.163(5) 0.107(6) 0.464(7)
O3 O 0.0998(2) 0.0066(3) 0.5202(4)
O4 O 0.0184(2) 0.1610(3) 0.5112(4)
O5 O -0.0048(4) 0.0688(4) 0.3812(6)
H2 H 0.022(5) 0.049(6) 0.426(8)
O6 O -0.0918(3) 0.1094(4) 0.3992(5)
H3 H -0.091(4) 0.062(6) 0.431(7)
O7 O -0.1225(2) 0.7464(3) 0.4791(4)
O8 O -0.1789(3) 0.7953(4) 0.5561(5)
H4 H -0.178(10) 0.826(12) 0.543(16)
O9 O -0.2367(3) 0.7191(3) 0.4015(4)
C1 C 0.1122(4) 0.3571(5) 0.6581(7)
H5 H 0.118(3) 0.373(4) 0.613(5)
C2 C 0.1049(4) 0.4139(5) 0.7068(7)
H6 H 0.106(3) 0.461(4) 0.692(5)
C3 C 0.0936(4) 0.3991(5) 0.7769(6)
H7 H 0.084(3) 0.434(4) 0.805(5)
C4 C 0.0889(4) 0.3269(5) 0.7979(6)
C5 C 0.0756(5) 0.3041(6) 0.8683(7)
H8 H 0.074(4) 0.345(5) 0.904(7)
C6 C 0.0722(5) 0.2341(6) 0.8843(7)
H9 H 0.073(4) 0.221(4) 0.928(6)
C7 C 0.0817(4) 0.1768(5) 0.8340(6)
C8 C 0.0784(5) 0.1021(6) 0.8472(7)
H10 H 0.076(5) 0.089(6) 0.901(8)
C9 C 0.0899(6) 0.0540(6) 0.7965(9)
H11 H 0.088(3) 0.012(4) 0.801(5)
C10 C 0.1034(5) 0.0780(5) 0.7302(7)
H12 H 0.109(4) 0.043(5) 0.691(6)
C11 C 0.0962(3) 0.1975(4) 0.7671(5)
C12 C 0.0977(3) 0.2728(4) 0.7464(5)
C13 C 0.2268(5) -0.0112(5) 0.6364(8)
H13 H 0.259(4) 0.016(4) 0.650(6)
H14 H 0.228(5) -0.024(6) 0.695(8)
C14 C 0.2309(4) -0.0822(4) 0.5920(6)
C15 C 0.2431(5) -0.0834(5) 0.5207(9)
H15 H 0.244(4) -0.045(5) 0.498(6)
C16 C 0.2505(5) -0.1474(5) 0.4858(8)
H16 H 0.252(4) -0.146(5) 0.435(6)
C17 C 0.2459(4) -0.2151(4) 0.5188(6)
C18 C 0.2340(5) -0.2121(5) 0.5901(9)
H17 H 0.235(4) -0.248(4) 0.615(6)
C19 C 0.2268(5) -0.1476(5) 0.6255(9)
H18 H 0.230(5) -0.149(6) 0.679(7)
C20 C -0.1536(5) 0.6533(5) 0.5737(7)
H19 H -0.187(4) 0.647(4) 0.571(6)
H20 H -0.112(4) 0.666(4) 0.643(6)
C21 C -0.1433(4) 0.5856(4) 0.5320(6)
C22 C -0.1907(4) 0.5519(5) 0.4474(7)
H21 H -0.228(4) 0.570(5) 0.415(7)
C23 C -0.1792(4) 0.4916(5) 0.4093(7)
H22 H -0.211(3) 0.473(3) 0.351(5)
C24 C -0.0832(4) 0.5566(5) 0.5782(7)
H23 H -0.048(4) 0.580(4) 0.639(6)
C25 C -0.0717(4) 0.4965(5) 0.5395(7)
H24 H -0.033(3) 0.479(4) 0.574(5)
C26 C -0.1186(4) 0.4628(4) 0.4539(6)
C27 C -0.1049(4) 0.3979(4) 0.4134(6)
C28 C -0.1505(5) 0.3511(5) 0.3454(7)
H25 H -0.187(5) 0.358(5) 0.320(7)
C29 C -0.1356(4) 0.2895(6) 0.3151(7)
H26 H -0.158(3) 0.263(4) 0.275(5)
C30 C -0.0432(4) 0.3824(5) 0.4438(7)
H27 H -0.008(4) 0.415(5) 0.496(7)
C31 C -0.0286(4) 0.3207(5) 0.4122(7)
H28 H 0.013(3) 0.311(4) 0.447(5)
C32 C -0.0740(4) 0.2727(4) 0.3476(6)
C33 C -0.0545(5) 0.2027(5) 0.3211(7)
H29 H -0.020(5) 0.217(5) 0.315(7)
H30 H -0.086(4) 0.185(4) 0.271(6)
C17E C 0.2541(4) -0.2849(4) 0.4812(6)
C16E C 0.2495(5) -0.3526(5) 0.5142(8)
C15E C 0.2569(5) -0.4166(5) 0.4793(9)
C14E C 0.2691(4) -0.4178(4) 0.4080(6)
C13E C 0.2732(5) -0.4888(5) 0.3636(8)
P1E P 0.33942(10) -0.54872(11) 0.44108(17)
O1E O 0.3300(3) -0.6143(3) 0.3792(4)
O2E O 0.3361(4) -0.5690(4) 0.5296(6)
H1E H 0.337(5) -0.607(6) 0.536(7)
O3E O 0.4002(2) -0.5066(3) 0.4798(4)
H13E H 0.241(4) -0.516(4) 0.350(6)
H14E H 0.272(5) -0.476(6) 0.305(8)
C19E C 0.2732(5) -0.3524(5) 0.3745(9)
C18E C 0.2660(5) -0.2879(5) 0.4099(9)
H17E H 0.265(4) -0.252(4) 0.385(6)
H18E H 0.270(5) -0.351(6) 0.321(7)
H15E H 0.256(4) -0.455(5) 0.502(6)
H16E H 0.248(4) -0.354(5) 0.565(6)
P2D P 0.02869(10) 0.86603(11) 0.58645(17)
P3D P 0.17185(10) 0.26512(11) 0.49927(16)
O4D O -0.0184(2) 0.8390(3) 0.4888(4)
O5D O 0.0048(4) 0.9312(4) 0.6188(6)
H2D H -0.022(5) 0.951(6) 0.574(8)
O6D O 0.0918(3) 0.8906(4) 0.6008(5)
H3D H 0.091(4) 0.938(6) 0.569(7)
O7D O 0.1225(2) 0.2536(3) 0.5209(4)
O8D O 0.1789(3) 0.2047(4) 0.4439(5)
H4D H 0.178(10) 0.174(12) 0.457(16)
O9D O 0.2367(3) 0.2809(3) 0.5985(4)
C20D C 0.1536(5) 0.3467(5) 0.4263(7)
H19D H 0.187(4) 0.353(4) 0.429(6)
H20D H 0.112(4) 0.334(4) 0.357(6)
C21D C 0.1433(4) 0.4144(4) 0.4680(6)
C22D C 0.1907(4) 0.4481(5) 0.5526(7)
H21D H 0.228(4) 0.430(5) 0.585(7)
C23D C 0.1792(4) 0.5084(5) 0.5907(7)
H22D H 0.211(3) 0.527(3) 0.649(5)
C24D C 0.0832(4) 0.4434(5) 0.4218(7)
H23D H 0.048(4) 0.420(4) 0.361(6)
C25D C 0.0717(4) 0.5035(5) 0.4605(7)
H24D H 0.033(3) 0.521(4) 0.426(5)
C26D C 0.1186(4) 0.5372(4) 0.5461(6)
C27D C 0.1049(4) 0.6021(4) 0.5866(6)
C28D C 0.1505(5) 0.6489(5) 0.6546(7)
H25D H 0.187(5) 0.642(5) 0.680(7)
C29D C 0.1356(4) 0.7105(6) 0.6849(7)
H26D H 0.158(3) 0.737(4) 0.725(5)
C30D C 0.0432(4) 0.6176(5) 0.5562(7)
H27D H 0.008(4) 0.585(5) 0.504(7)
C31D C 0.0286(4) 0.6793(5) 0.5878(7)
H28D H -0.013(3) 0.689(4) 0.553(5)
C32D C 0.0740(4) 0.7273(4) 0.6524(6)
C33D C 0.0545(5) 0.7973(5) 0.6789(7)
H29D H 0.020(5) 0.783(5) 0.685(7)
H30D H 0.086(4) 0.815(4) 0.729(6)
Cu1E Cu 0.38266(5) -0.69556(5) 0.38455(7)
N1E N 0.3907(3) -0.7879(3) 0.3226(4)
N2E N 0.3923(3) -0.6489(3) 0.2834(5)
C1E C 0.3878(4) -0.8571(5) 0.3419(7)
H5E H 0.382(3) -0.873(4) 0.387(5)
C2E C 0.3951(4) -0.9139(5) 0.2932(7)
H6E H 0.394(3) -0.961(4) 0.308(5)
C3E C 0.4064(4) -0.8991(5) 0.2231(6)
H7E H 0.416(3) -0.934(4) 0.195(5)
C4E C 0.4111(4) -0.8269(5) 0.2021(6)
C5E C 0.4244(5) -0.8041(6) 0.1317(7)
H8E H 0.426(4) -0.845(5) 0.096(7)
C6E C 0.4278(5) -0.7341(6) 0.1157(7)
H9E H 0.427(4) -0.721(4) 0.072(6)
C7E C 0.4183(4) -0.6768(5) 0.1660(6)
C8E C 0.4216(5) -0.6021(6) 0.1528(7)
H10E H 0.424(5) -0.589(6) 0.099(8)
C9E C 0.4101(6) -0.5540(6) 0.2035(9)
H11E H 0.412(3) -0.512(4) 0.199(5)
C10E C 0.3966(5) -0.5780(5) 0.2698(7)
H12E H 0.391(4) -0.543(5) 0.309(6)
C11E C 0.4038(3) -0.6975(4) 0.2329(5)
C12E C 0.4023(3) -0.7728(4) 0.2536(5)
Cu1D Cu -0.11734(5) 0.80444(5) 0.38455(7)
O4E O 0.4816(2) -0.6610(3) 0.4888(4)
O7A O 0.3775(2) -0.7536(3) 0.4791(4)
loop_
_geom_bond_atom_site_label_1
_geom_bond_atom_site_label_2
_geom_bond_site_symmetry_1
_geom_bond_site_symmetry_2
Cu1 N1 1_555 1_555
N1 C1 1_555 1_555
N2 Cu1 1_555 1_555
P1 O1 1_555 1_555
P2 O4 1_555 1_555
P3 O7 1_555 1_555
O1 Cu1 1_555 1_555
O2 P1 1_555 1_555
H1 O2 1_555 1_555
O3 P1 1_555 1_555
O4 Cu1 1_555 1_555
O5 P2 1_555 1_555
H2 O5 1_555 1_555
O6 P2 1_555 1_555
H3 O6 1_555 1_555
O7 Cu1D 1_555 1_555
O8 P3 1_555 1_555
H4 O8 1_555 1_555
O9 P3 1_555 1_555
C1 H5 1_555 1_555
C2 C1 1_555 1_555
H6 C2 1_555 1_555
C3 C2 1_555 1_555
H7 C3 1_555 1_555
C4 C3 1_555 1_555
C5 C4 1_555 1_555
H8 C5 1_555 1_555
C6 C5 1_555 1_555
H9 C6 1_555 1_555
C7 C6 1_555 1_555
C8 C7 1_555 1_555
H10 C8 1_555 1_555
C9 C8 1_555 1_555
H11 C9 1_555 1_555
C10 N2 1_555 1_555
H12 C10 1_555 1_555
C11 N2 1_555 1_555
C12 N1 1_555 1_555
C13 P1 1_555 1_555
H13 C13 1_555 1_555
H14 C13 1_555 1_555
C14 C13 1_555 1_555
C15 C14 1_555 1_555
H15 C15 1_555 1_555
C16 C15 1_555 1_555
H16 C16 1_555 1_555
C17 C16 1_555 1_555
C18 C17 1_555 1_555
H17 C18 1_555 1_555
C19 C14 1_555 1_555
H18 C19 1_555 1_555
C20 P3 1_555 1_555
H19 C20 1_555 1_555
H20 C20 1_555 1_555
C21 C20 1_555 1_555
C22 C21 1_555 1_555
H21 C22 1_555 1_555
C23 C22 1_555 1_555
H22 C23 1_555 1_555
C24 C21 1_555 1_555
H23 C24 1_555 1_555
C25 C24 1_555 1_555
H24 C25 1_555 1_555
C26 C23 1_555 1_555
C27 C26 1_555 1_555
C28 C27 1_555 1_555
H25 C28 1_555 1_555
C29 C28 1_555 1_555
H26 C29 1_555 1_555
C30 C27 1_555 1_555
H27 C30 1_555 1_555
C31 C30 1_555 1_555
H28 C31 1_555 1_555
C32 C29 1_555 1_555
C33 P2 1_555 1_555
H29 C33 1_555 1_555
H30 C33 1_555 1_555
C17E C17 1_555 1_555
C16E C17E 1_555 1_555
C15E C16E 1_555 1_555
C14E C15E 1_555 1_555
C13E C14E 1_555 1_555
P1E C13E 1_555 1_555
O1E P1E 1_555 1_555
O2E P1E 1_555 1_555
H1E O2E 1_555 1_555
O3E P1E 1_555 1_555
H13E C13E 1_555 1_555
H14E C13E 1_555 1_555
C19E C14E 1_555 1_555
C18E C17E 1_555 1_555
H17E C18E 1_555 1_555
H18E C19E 1_555 1_555
H15E C15E 1_555 1_555
H16E C16E 1_555 1_555
P2D O4D 1_555 1_555
P3D O7D 1_555 1_555
O4D Cu1D 1_555 1_555
O5D P2D 1_555 1_555
H2D O5D 1_555 1_555
O6D P2D 1_555 1_555
H3D O6D 1_555 1_555
O7D Cu1 1_555 1_555
O8D P3D 1_555 1_555
H4D O8D 1_555 1_555
O9D P3D 1_555 1_555
C20D P3D 1_555 1_555
H19D C20D 1_555 1_555
H20D C20D 1_555 1_555
C21D C20D 1_555 1_555
C22D C21D 1_555 1_555
H21D C22D 1_555 1_555
C23D C22D 1_555 1_555
H22D C23D 1_555 1_555
C24D C21D 1_555 1_555
H23D C24D 1_555 1_555
C25D C24D 1_555 1_555
H24D C25D 1_555 1_555
C26D C23D 1_555 1_555
C27D C26D 1_555 1_555
C28D C27D 1_555 1_555
H25D C28D 1_555 1_555
C29D C28D 1_555 1_555
H26D C29D 1_555 1_555
C30D C27D 1_555 1_555
H27D C30D 1_555 1_555
C31D C30D 1_555 1_555
H28D C31D 1_555 1_555
C32D C29D 1_555 1_555
C33D P2D 1_555 1_555
H29D C33D 1_555 1_555
H30D C33D 1_555 1_555
Cu1E O1E 1_555 1_555
N1E Cu1E 1_555 1_555
N2E Cu1E 1_555 1_555
C1E N1E 1_555 1_555
H5E C1E 1_555 1_555
C2E C1E 1_555 1_555
H6E C2E 1_555 1_555
C3E C2E 1_555 1_555
H7E C3E 1_555 1_555
C4E C3E 1_555 1_555
C5E C4E 1_555 1_555
H8E C5E 1_555 1_555
C6E C5E 1_555 1_555
H9E C6E 1_555 1_555
C7E C6E 1_555 1_555
C8E C7E 1_555 1_555
H10E C8E 1_555 1_555
C9E C8E 1_555 1_555
H11E C9E 1_555 1_555
C10E N2E 1_555 1_555
H12E C10E 1_555 1_555
C11E N2E 1_555 1_555
C12E N1E 1_555 1_555
O4E Cu1E 1_555 1_555
O7A Cu1E 1_555 1_555
C4 C12 1_555 1_555
C7 C11 1_555 1_555
C9 C10 1_555 1_555
C11 C12 1_555 1_555
C18 C19 1_555 1_555
C25 C26 1_555 1_555
C31 C32 1_555 1_555
C32 C33 1_555 1_555
C19E C18E 1_555 1_555
C25D C26D 1_555 1_555
C31D C32D 1_555 1_555
C32D C33D 1_555 1_555
C4E C12E 1_555 1_555
C7E C11E 1_555 1_555
C9E C10E 1_555 1_555
C11E C12E 1_555 1_555

#END
