
#######################################################################
#
#                 Cambridge Crystallographic Data Centre
#                                CCDC 
#
#######################################################################
#
# If this CIF has been generated from an entry in the Cambridge 
# Structural Database, then it will include bibliographic, chemical, 
# crystal, experimental, refinement or atomic coordinate data resulting 
# from the CCDC's data processing and validation procedures.
#
#######################################################################

data_SALSAB
_symmetry_cell_setting           tetragonal
_symmetry_space_group_name_H-M   'I 41/a c d'
_symmetry_Int_Tables_number      142
_space_group_name_Hall           '-I 4bd 2c'
loop_
_symmetry_equiv_pos_site_id
_symmetry_equiv_pos_as_xyz
1 x,y,z
2 1/2-x,-y,1/2+z
3 1/4-y,3/4+x,1/4+z
4 1/4+y,1/4-x,3/4+z
5 1/2-x,y,-z
6 x,-y,1/2-z
7 1/4+y,3/4+x,3/4-z
8 1/4-y,1/4-x,1/4-z
9 1/2+x,1/2+y,1/2+z
10 -x,1/2-y,z
11 3/4-y,1/4+x,3/4+z
12 3/4+y,3/4-x,1/4+z
13 -x,1/2+y,1/2-z
14 1/2+x,1/2-y,-z
15 3/4+y,1/4+x,1/4-z
16 3/4-y,3/4-x,3/4-z
17 -x,-y,-z
18 1/2+x,y,1/2-z
19 3/4+y,1/4-x,3/4-z
20 3/4-y,3/4+x,1/4-z
21 1/2+x,-y,z
22 -x,y,1/2+z
23 3/4-y,1/4-x,1/4+z
24 3/4+y,3/4+x,3/4+z
25 1/2-x,1/2-y,1/2-z
26 x,1/2+y,-z
27 1/4+y,3/4-x,1/4-z
28 1/4-y,1/4+x,3/4-z
29 x,1/2-y,1/2+z
30 1/2-x,1/2+y,z
31 1/4-y,3/4-x,3/4+z
32 1/4+y,1/4+x,1/4+z
_cell_length_a                   21.7448(8)
_cell_length_b                   21.7448(8)
_cell_length_c                   38.3937(15)
_cell_angle_alpha                90
_cell_angle_beta                 90
_cell_angle_gamma                90
_cell_volume                     18153.9
loop_
_atom_site_label
_atom_site_type_symbol
_atom_site_fract_x
_atom_site_fract_y
_atom_site_fract_z
N1 N 0.75640(19) 0.02112(15) 0.03322(12)
O1 O 0.8593(2) 0.01640(17) 0.15069(10)
O2 O 0.8586(2) 0.01760(19) 0.09336(11)
O3 O 1.1756(3) -0.01830(19) 0.15736(10)
C1 C 1.0823(2) -0.0082(2) 0.12811(12)
C2 C 0.8841(2) 0.0153(2) 0.12220(12)
C3 C 0.9530(2) 0.0090(2) 0.12274(12)
O4 O 1.17560(18) -0.0162(3) 0.10013(11)
C4 C 1.1502(2) -0.0147(2) 0.12865(12)
C5 C 0.7518(3) 0.0858(3) 0.02004(17)
C6 C 0.9789(2) -0.0151(2) 0.15287(14)
C7 C 1.0554(2) 0.0167(3) 0.09822(15)
C8 C 0.9918(2) 0.0264(3) 0.09508(14)
C9 C 0.6985(3) -0.0123(3) 0.02296(16)
C10 C 1.0422(2) -0.0242(2) 0.15598(14)
Br1 Br 0.96315(9) 0.06287(6) 0.05436(3)
Br2 Br 1.06918(9) -0.05808(6) 0.19799(4)
C11 C 0.8090(3) -0.0100(3) 0.01672(17)
Zn1 Zn 0.76611(2) 0.01869(2) 0.086621(14)
N1D N 0.74360(19) 0.02112(15) -0.03322(12)
O1S O 0.73360(17) -0.3907(2) 0.09931(10)
O1N O 0.76640(17) 0.1093(2) 0.09931(10)
O1J O 0.73360(17) 0.1093(2) -0.09931(10)
O2S O 0.73240(19) -0.3914(2) 0.15664(11)
O2D O 0.6414(2) 0.01760(19) -0.09336(11)
O3S O 0.76830(19) -0.0744(3) 0.09264(10)
O3W O 0.73170(19) -0.0744(3) -0.09264(10)
C1S C 0.7582(2) -0.1677(2) 0.12189(12)
C2S C 0.7347(2) -0.3659(2) 0.12780(12)
C3S C 0.7410(2) -0.2970(2) 0.12726(12)
O4S O 0.7662(3) -0.07440(18) 0.14987(11)
O4T O 0.67560(18) 0.0162(3) 0.10013(11)
O4P O 0.82440(18) 0.0162(3) -0.10013(11)
C4S C 0.7647(2) -0.0998(2) 0.12135(12)
C5D C 0.7482(3) 0.0858(3) -0.02004(17)
C6S C 0.7651(2) -0.2711(2) 0.09713(14)
C7S C 0.7333(3) -0.1946(2) 0.15178(15)
C8S C 0.7236(3) -0.2582(2) 0.15492(14)
C9D C 0.8015(3) -0.0123(3) -0.02296(16)
C10S C 0.7742(2) -0.2078(2) 0.09402(14)
Br1S Br 0.68713(6) -0.28685(9) 0.19564(3)
Br2S Br 0.80808(6) -0.18082(9) 0.05201(4)
C11D C 0.6910(3) -0.0100(3) -0.01672(17)
Zn1D Zn 0.73389(2) 0.01869(2) -0.086621(14)
Zn1N Zn 0.76869(2) 0.01611(2) 0.163379(14)
Zn1Z Zn 1.26869(2) -0.01611(2) 0.163379(14)
Zn1T Zn 1.26611(2) -0.01869(2) 0.086621(14)
Zn1CA Zn 0.73389(2) -0.48131(2) 0.086621(14)
Zn1S Zn 0.73131(2) -0.48389(2) 0.163379(14)
loop_
_geom_bond_atom_site_label_1
_geom_bond_atom_site_label_2
_geom_bond_site_symmetry_1
_geom_bond_site_symmetry_2
N1 C5 1_555 1_555
O1 C2 1_555 1_555
O2 C2 1_555 1_555
O3 C4 1_555 1_555
C1 C4 1_555 1_555
C2 C3 1_555 1_555
C3 C6 1_555 1_555
O4 C4 1_555 1_555
C5 C5D 1_555 1_555
C6 C10 1_555 1_555
C7 C1 1_555 1_555
C8 C3 1_555 1_555
C9 N1 1_555 1_555
C10 C1 1_555 1_555
Br1 C8 1_555 1_555
Br2 C10 1_555 1_555
C11 N1 1_555 1_555
Zn1 N1 1_555 1_555
N1D C5D 1_555 1_555
O1S C2S 1_555 1_555
O1N Zn1 1_555 1_555
O1J Zn1D 1_555 1_555
O2S C2S 1_555 1_555
O2D Zn1D 1_555 1_555
O3S Zn1 1_555 1_555
O3W Zn1D 1_555 1_555
C1S C4S 1_555 1_555
C2S C3S 1_555 1_555
C3S C6S 1_555 1_555
O4S C4S 1_555 1_555
O4T Zn1 1_555 1_555
O4P Zn1D 1_555 1_555
C4S O3S 1_555 1_555
C6S C10S 1_555 1_555
C7S C1S 1_555 1_555
C8S C3S 1_555 1_555
C9D C11 1_555 1_555
C10S C1S 1_555 1_555
Br1S C8S 1_555 1_555
Br2S C10S 1_555 1_555
C11D C9 1_555 1_555
Zn1D N1D 1_555 1_555
Zn1N O1 1_555 1_555
Zn1Z O3 1_555 1_555
Zn1T O4 1_555 1_555
Zn1CA O1S 1_555 1_555
Zn1S O2S 1_555 1_555
O2 Zn1 1_555 1_555
C7 C8 1_555 1_555
N1D C9D 1_555 1_555
N1D C11D 1_555 1_555
O4S Zn1N 1_555 1_555
C7S C8S 1_555 1_555

#END
