
#######################################################################
#
#                 Cambridge Crystallographic Data Centre
#                                CCDC 
#
#######################################################################
#
# If this CIF has been generated from an entry in the Cambridge 
# Structural Database, then it will include bibliographic, chemical, 
# crystal, experimental, refinement or atomic coordinate data resulting 
# from the CCDC's data processing and validation procedures.
#
#######################################################################

data_SALZOV
_symmetry_cell_setting           triclinic
_symmetry_space_group_name_H-M   'P -1'
_symmetry_Int_Tables_number      2
_space_group_name_Hall           '-P 1'
loop_
_symmetry_equiv_pos_site_id
_symmetry_equiv_pos_as_xyz
1 x,y,z
2 -x,-y,-z
_cell_length_a                   7.745(3)
_cell_length_b                   11.620(5)
_cell_length_c                   13.563(5)
_cell_angle_alpha                82.994(6)
_cell_angle_beta                 83.969(7)
_cell_angle_gamma                70.966(7)
_cell_volume                     1142.5
loop_
_atom_site_label
_atom_site_type_symbol
_atom_site_fract_x
_atom_site_fract_y
_atom_site_fract_z
Zn1 Zn 0.30917(7) 0.11816(5) 0.01593(4)
O1 O 0.3711(4) 0.1549(3) 0.1496(2)
O2 O 0.1113(5) 0.1933(3) 0.2483(2)
O3 O 0.7444(7) 0.4002(4) 0.4870(3)
O4 O 0.7393(5) 0.2074(3) 0.9856(2)
O5 O 0.5925(4) 0.0761(3) 0.9642(2)
O6 O 0.0559(4) 0.1133(3) 0.0826(2)
H1 H 0.0519 0.1453 0.1455
H2 H -0.0290 0.1629 0.0423
N1 N 0.2518(5) 0.3125(3) -0.0358(3)
N2 N 0.2208(5) 0.1304(3) -0.1297(3)
C1 C 0.2731(7) 0.1908(4) 0.2288(3)
C2 C 0.3672(6) 0.2322(4) 0.3025(3)
C3 C 0.5351(7) 0.2511(4) 0.2772(3)
H3 H 0.5879 0.2410 0.2127
C4 C 0.6250(7) 0.2846(5) 0.3460(3)
H4 H 0.7371 0.2971 0.3275
C5 C 0.5482(7) 0.2997(4) 0.4425(3)
C6 C 0.3800(7) 0.2828(5) 0.4677(3)
H5 H 0.3274 0.2933 0.5322
C7 C 0.2885(7) 0.2508(5) 0.3988(3)
H6 H 0.1741 0.2417 0.4168
C8 C 0.6472(7) 0.3377(5) 0.5157(4)
C9 C 0.6285(6) 0.2960(4) 0.6239(3)
C10 C 0.6372(6) 0.3717(4) 0.6938(3)
H7 H 0.6366 0.4513 0.6738
C11 C 0.6466(6) 0.3280(4) 0.7927(3)
H8 H 0.6546 0.3783 0.8392
C12 C 0.6445(6) 0.2105(4) 0.8244(3)
C13 C 0.6292(6) 0.1371(4) 0.7553(3)
H9 H 0.6238 0.0590 0.7759
C14 C 0.6219(7) 0.1794(4) 0.6556(3)
H10 H 0.6124 0.1292 0.6094
C15 C 0.6636(6) 0.1622(4) 0.9332(3)
C16 C 0.2758(7) 0.4013(4) 0.0097(4)
H11 H 0.3218 0.3817 0.0723
C17 C 0.2350(7) 0.5226(4) -0.0325(4)
H12 H 0.2543 0.5817 0.0013
C18 C 0.1670(7) 0.5521(4) -0.1234(4)
H13 H 0.1387 0.6324 -0.1520
C19 C 0.1386(6) 0.4624(4) -0.1751(3)
C20 C 0.0717(6) 0.4855(5) -0.2718(3)
H14 H 0.0383 0.5647 -0.3028
C21 C 0.0558(7) 0.3938(5) -0.3191(4)
H15 H 0.0120 0.4109 -0.3823
C22 C 0.1056(6) 0.2710(4) -0.2732(3)
C23 C 0.0961(7) 0.1718(5) -0.3201(3)
H16 H 0.0537 0.1843 -0.3834
C24 C 0.1499(7) 0.0568(5) -0.2717(4)
H17 H 0.1446 -0.0093 -0.3021
C25 C 0.2126(6) 0.0389(4) -0.1769(3)
H18 H 0.2501 -0.0400 -0.1454
C26 C 0.1688(6) 0.2457(4) -0.1779(3)
C27 C 0.1864(6) 0.3428(4) -0.1269(3)
O5_2 O 0.5925(4) 0.0761(3) -0.0358(2)
O5A O 0.4075(4) -0.0761(3) 0.0358(2)
Zn1_2 Zn 0.30917(7) 0.11816(5) 1.01593(4)
Zn1A Zn 0.69083(7) -0.11816(5) 0.98407(4)
loop_
_geom_bond_atom_site_label_1
_geom_bond_atom_site_label_2
_geom_bond_site_symmetry_1
_geom_bond_site_symmetry_2
Zn1 O1 1_555 1_555
O1 C1 1_555 1_555
O2 C1 1_555 1_555
O3 C8 1_555 1_555
O4 C15 1_555 1_555
O5 C15 1_555 1_555
O6 Zn1 1_555 1_555
H1 O6 1_555 1_555
H2 O6 1_555 1_555
N1 Zn1 1_555 1_555
N2 Zn1 1_555 1_555
C1 C2 1_555 1_555
C2 C3 1_555 1_555
C3 H3 1_555 1_555
C4 C3 1_555 1_555
H4 C4 1_555 1_555
C5 C4 1_555 1_555
C6 C5 1_555 1_555
H5 C6 1_555 1_555
C7 C2 1_555 1_555
H6 C7 1_555 1_555
C8 C5 1_555 1_555
C9 C8 1_555 1_555
C10 C9 1_555 1_555
H7 C10 1_555 1_555
C11 C10 1_555 1_555
H8 C11 1_555 1_555
C12 C11 1_555 1_555
C13 C12 1_555 1_555
H9 C13 1_555 1_555
C14 C9 1_555 1_555
H10 C14 1_555 1_555
C15 C12 1_555 1_555
C16 N1 1_555 1_555
H11 C16 1_555 1_555
C17 C16 1_555 1_555
H12 C17 1_555 1_555
C18 C17 1_555 1_555
H13 C18 1_555 1_555
C19 C18 1_555 1_555
C20 C19 1_555 1_555
H14 C20 1_555 1_555
C21 C20 1_555 1_555
H15 C21 1_555 1_555
C22 C21 1_555 1_555
C23 C22 1_555 1_555
H16 C23 1_555 1_555
C24 C23 1_555 1_555
H17 C24 1_555 1_555
C25 N2 1_555 1_555
H18 C25 1_555 1_555
C26 N2 1_555 1_555
C27 N1 1_555 1_555
O5_2 Zn1 1_555 1_555
O5A Zn1 1_555 1_555
Zn1_2 O5 1_555 1_555
Zn1A O5 1_555 1_555
C6 C7 1_555 1_555
C13 C14 1_555 1_555
C19 C27 1_555 1_555
C22 C26 1_555 1_555
C24 C25 1_555 1_555
C26 C27 1_555 1_555

#END
