
#######################################################################
#
#                 Cambridge Crystallographic Data Centre
#                                CCDC 
#
#######################################################################
#
# If this CIF has been generated from an entry in the Cambridge 
# Structural Database, then it will include bibliographic, chemical, 
# crystal, experimental, refinement or atomic coordinate data resulting 
# from the CCDC's data processing and validation procedures.
#
#######################################################################

data_SALZAH
_symmetry_cell_setting           monoclinic
_symmetry_space_group_name_H-M   'C 2/c'
_symmetry_Int_Tables_number      15
_space_group_name_Hall           '-C 2yn'
loop_
_symmetry_equiv_pos_site_id
_symmetry_equiv_pos_as_xyz
1 x,y,z
2 -x,y,1/2-z
3 1/2+x,1/2+y,z
4 1/2-x,1/2+y,1/2-z
5 -x,-y,-z
6 x,-y,1/2+z
7 1/2-x,1/2-y,-z
8 1/2+x,1/2-y,1/2+z
_cell_length_a                   22.624(3)
_cell_length_b                   12.645(1)
_cell_length_c                   14.735(2)
_cell_angle_alpha                90
_cell_angle_beta                 94.92(1)
_cell_angle_gamma                90
_cell_volume                     4199.86
loop_
_atom_site_label
_atom_site_type_symbol
_atom_site_fract_x
_atom_site_fract_y
_atom_site_fract_z
O4 O 0.30730(16) 0.6851(3) 0.9785(3)
H1 H 0.3104 0.6242 0.9549
H2 H 0.3134 0.7323 0.9394
O5 O 0.04885(17) 0.6602(3) 0.5414(3)
H3 H 0.0813 0.6265 0.5512
H4 H 0.0334 0.6693 0.5914
Cd1 Cd 0.254390(16) -0.08444(3) 0.75341(3)
Cd2 Cd 0.0000 0.16791(4) 0.7500
C1 C 0.1344(2) 0.0640(4) 0.7691(4)
H5 H 0.1304 0.0635 0.7030
H6 H 0.1150 0.0011 0.7899
C2 C 0.2255(2) 0.1622(4) 0.7713(4)
H7 H 0.2673 0.1631 0.7924
H8 H 0.2225 0.1635 0.7053
C3 C 0.2026(2) 0.0644(4) 0.9048(4)
H9 H 0.1848 0.0010 0.9276
H10 H 0.2440 0.0658 0.9283
C4 C 0.1125(2) 0.1563(4) 0.9026(4)
H11 H 0.0918 0.2167 0.9253
H12 H 0.0942 0.0929 0.9245
C5 C 0.1343(2) 0.2547(4) 0.7698(4)
H13 H 0.1305 0.2569 0.7037
H14 H 0.1147 0.3167 0.7919
C6 C 0.2025(2) 0.2521(4) 0.9047(4)
H15 H 0.2436 0.2503 0.9264
H16 H 0.1854 0.3159 0.9280
C7 C 0.3409(2) 0.0490(4) 0.4333(4)
C8 C 0.3839(2) 0.0952(4) 0.5065(4)
H17 H 0.4174 0.1290 0.4884
C9 C 0.3773(2) 0.0910(4) 0.5945(4)
H18 H 0.4065 0.1207 0.6349
C10 C 0.3240(2) 0.0396(4) 0.6327(4)
N1 N 0.1047(2) 0.1571(3) 0.8013(3)
N2 N 0.19875(19) 0.0605(3) 0.8019(3)
N3 N 0.1718(2) 0.1595(3) 0.9385(3)
N4 N 0.19806(19) 0.2564(3) 0.8033(3)
O6 O 0.33501(16) -0.0018(3) 0.7124(3)
O7 O 0.27572(16) 0.0369(3) 0.5917(3)
O8 O 0.34163(15) -0.0476(3) 0.4179(2)
O9 O 0.30733(15) 0.1176(3) 0.3893(3)
O10 O 0.17693(15) -0.1179(3) 0.6405(3)
H19 H 0.1605 -0.1864 0.6505
H20 H 0.1920 -0.1161 0.5815
O11 O 0.18772(16) -0.1876(3) 0.8310(3)
H21 H 0.1621 -0.1416 0.8617
H22 H 0.2095 -0.2320 0.8749
O12 O -0.0099(3) 0.3030(5) 0.8513(5)
H23 H 0.0066 0.3662 0.8275
H24 H -0.0514 0.3132 0.8571
O13 O -0.0165(3) 0.0511(5) 0.8599(5)
H25 H -0.0239 -0.0129 0.8455
H26 H -0.0306 0.0734 0.9080
C1A C -0.1344(2) 0.0640(4) 0.7309(4)
H5A H -0.1304 0.0635 0.7970
H6A H -0.1150 0.0011 0.7101
C2A C -0.2255(2) 0.1622(4) 0.7287(4)
H7A H -0.2673 0.1631 0.7076
H8A H -0.2225 0.1635 0.7947
C3A C -0.2026(2) 0.0644(4) 0.5952(4)
H9A H -0.1848 0.0010 0.5724
H10A H -0.2440 0.0658 0.5717
C4A C -0.1125(2) 0.1563(4) 0.5974(4)
H11A H -0.0918 0.2167 0.5747
H12A H -0.0942 0.0929 0.5755
C5A C -0.1343(2) 0.2547(4) 0.7302(4)
H13A H -0.1305 0.2569 0.7963
H14A H -0.1147 0.3167 0.7081
C6A C -0.2025(2) 0.2521(4) 0.5953(4)
H15A H -0.2436 0.2503 0.5736
H16A H -0.1854 0.3159 0.5720
N1A N -0.1047(2) 0.1571(3) 0.6987(3)
N2A N -0.19875(19) 0.0605(3) 0.6981(3)
N3A N -0.1718(2) 0.1595(3) 0.5615(3)
N4A N -0.19806(19) 0.2564(3) 0.6967(3)
O12A O 0.0099(3) 0.3030(5) 0.6487(5)
H23A H -0.0066 0.3662 0.6725
H24A H 0.0514 0.3132 0.6429
O13A O 0.0165(3) 0.0511(5) 0.6401(5)
H25A H 0.0239 -0.0129 0.6545
H26A H 0.0306 0.0734 0.5920
Cd1A Cd -0.254390(16) -0.08444(3) 0.74659(3)
C7E C 0.3409(2) -0.0490(4) 0.9333(4)
C8E C 0.3839(2) -0.0952(4) 1.0065(4)
H17E H 0.4174 -0.1290 0.9884
C9E C 0.3773(2) -0.0910(4) 1.0945(4)
H18E H 0.4065 -0.1207 1.1349
C10E C 0.3240(2) -0.0396(4) 1.1327(4)
O6E O 0.33501(16) 0.0018(3) 1.2124(3)
O7E O 0.27572(16) -0.0369(3) 1.0917(3)
O8E O 0.34163(15) 0.0476(3) 0.9179(2)
O9E O 0.30733(15) -0.1176(3) 0.8893(3)
O10A O -0.17693(15) -0.1179(3) 0.8595(3)
H19A H -0.1605 -0.1864 0.8495
H20A H -0.1920 -0.1161 0.9185
O11A O -0.18772(16) -0.1876(3) 0.6690(3)
H21A H -0.1621 -0.1416 0.6383
H22A H -0.2095 -0.2320 0.6251
N4C N 0.30194(19) -0.2436(3) 0.6967(3)
Cd1C Cd 0.245610(16) 0.41556(3) 0.74659(3)
Cd1E Cd 0.254390(16) 0.08444(3) 0.25341(3)
Cd1B Cd -0.245610(16) 0.41556(3) 0.75341(3)
N4B N -0.30194(19) -0.2436(3) 0.8033(3)
O6A O -0.33501(16) -0.0018(3) 0.7876(3)
O9D O -0.30733(15) -0.1176(3) 0.6107(3)
Cd1E_2 Cd 0.254390(16) 0.08444(3) 1.25341(3)
S1 S 0.97686(11) 0.7950(2) 0.75633(17)
O1 O 1.0000 0.6893(4) 0.7500
O2 O 0.91860(18) 0.7708(6) 0.7849(5)
O3 O 0.97891(16) 0.8562(3) 0.6734(2)
S1A S 1.02314(11) 0.7950(2) 0.74367(17)
O2A O 1.08140(18) 0.7708(6) 0.7151(5)
O3A O 1.02109(16) 0.8562(3) 0.8266(2)
loop_
_geom_bond_atom_site_label_1
_geom_bond_atom_site_label_2
_geom_bond_site_symmetry_1
_geom_bond_site_symmetry_2
S1 O1 1_555 1_555
O1 S1A 1_555 1_555
O2 S1 1_555 1_555
O3 S1 1_555 1_555
O4 H1 1_555 1_555
H2 O4 1_555 1_555
O5 H3 1_555 1_555
H4 O5 1_555 1_555
Cd1 N2 1_555 1_555
Cd2 N1 1_555 1_555
C1 H5 1_555 1_555
H6 C1 1_555 1_555
C2 H7 1_555 1_555
H8 C2 1_555 1_555
C3 H9 1_555 1_555
H10 C3 1_555 1_555
C4 H11 1_555 1_555
H12 C4 1_555 1_555
C5 H13 1_555 1_555
H14 C5 1_555 1_555
C6 H15 1_555 1_555
H16 C6 1_555 1_555
C7 C8 1_555 1_555
C8 H17 1_555 1_555
C9 C8 1_555 1_555
H18 C9 1_555 1_555
C10 C9 1_555 1_555
N1 C1 1_555 1_555
N2 C1 1_555 1_555
N3 C3 1_555 1_555
N4 C2 1_555 1_555
O6 Cd1 1_555 1_555
O7 C10 1_555 1_555
O8 C7 1_555 1_555
O9 C7 1_555 1_555
O10 Cd1 1_555 1_555
H19 O10 1_555 1_555
H20 O10 1_555 1_555
O11 Cd1 1_555 1_555
H21 O11 1_555 1_555
H22 O11 1_555 1_555
O12 Cd2 1_555 1_555
H23 O12 1_555 1_555
H24 O12 1_555 1_555
O13 Cd2 1_555 1_555
H25 O13 1_555 1_555
H26 O13 1_555 1_555
S1A S1 1_555 1_555
O2A S1A 1_555 1_555
O3A S1 1_555 1_555
C1A H5A 1_555 1_555
H6A C1A 1_555 1_555
C2A H7A 1_555 1_555
H8A C2A 1_555 1_555
C3A H9A 1_555 1_555
H10A C3A 1_555 1_555
C4A H11A 1_555 1_555
H12A C4A 1_555 1_555
C5A H13A 1_555 1_555
H14A C5A 1_555 1_555
C6A H15A 1_555 1_555
H16A C6A 1_555 1_555
N1A Cd2 1_555 1_555
N2A C1A 1_555 1_555
N3A C3A 1_555 1_555
N4A C2A 1_555 1_555
O12A Cd2 1_555 1_555
H23A O12A 1_555 1_555
H24A O12A 1_555 1_555
O13A Cd2 1_555 1_555
H25A O13A 1_555 1_555
H26A O13A 1_555 1_555
Cd1A N2A 1_555 1_555
C7E C8E 1_555 1_555
C8E H17E 1_555 1_555
C9E C8E 1_555 1_555
H18E C9E 1_555 1_555
C10E C9E 1_555 1_555
O6E C10E 1_555 1_555
O7E C10E 1_555 1_555
O8E C7E 1_555 1_555
O9E Cd1 1_555 1_555
O10A Cd1A 1_555 1_555
H19A O10A 1_555 1_555
H20A O10A 1_555 1_555
O11A Cd1A 1_555 1_555
H21A O11A 1_555 1_555
H22A O11A 1_555 1_555
N4C Cd1 1_555 1_555
Cd1C N4 1_555 1_555
Cd1E O9 1_555 1_555
Cd1B N4A 1_555 1_555
N4B Cd1A 1_555 1_555
O6A Cd1A 1_555 1_555
O9D Cd1A 1_555 1_555
Cd1E_2 O6E 1_555 1_555
O3 S1A 1_555 1_555
C2 N2 1_555 1_555
C3 N2 1_555 1_555
C4 N1 1_555 1_555
C4 N3 1_555 1_555
C5 N1 1_555 1_555
C5 N4 1_555 1_555
C6 N3 1_555 1_555
C6 N4 1_555 1_555
C10 O6 1_555 1_555
S1A O3A 1_555 1_555
C1A N1A 1_555 1_555
C2A N2A 1_555 1_555
C3A N2A 1_555 1_555
C4A N1A 1_555 1_555
C4A N3A 1_555 1_555
C5A N1A 1_555 1_555
C5A N4A 1_555 1_555
C6A N3A 1_555 1_555
C6A N4A 1_555 1_555
C7E O9E 1_555 1_555

#END
