
#######################################################################
#
#                 Cambridge Crystallographic Data Centre
#                                CCDC 
#
#######################################################################
#
# If this CIF has been generated from an entry in the Cambridge 
# Structural Database, then it will include bibliographic, chemical, 
# crystal, experimental, refinement or atomic coordinate data resulting 
# from the CCDC's data processing and validation procedures.
#
#######################################################################

data_SALZUB
_symmetry_cell_setting           triclinic
_symmetry_space_group_name_H-M   'P -1'
_symmetry_Int_Tables_number      2
_space_group_name_Hall           '-P 1'
loop_
_symmetry_equiv_pos_site_id
_symmetry_equiv_pos_as_xyz
1 x,y,z
2 -x,-y,-z
_cell_length_a                   11.306(6)
_cell_length_b                   11.507(6)
_cell_length_c                   13.796(7)
_cell_angle_alpha                74.806(10)
_cell_angle_beta                 73.198(9)
_cell_angle_gamma                64.976(8)
_cell_volume                     1536.57
loop_
_atom_site_label
_atom_site_type_symbol
_atom_site_fract_x
_atom_site_fract_y
_atom_site_fract_z
H2 H 0.7569 0.9816 0.9142
H3 H 1.1023 0.6164 0.8971
H4 H 0.9145 0.8046 0.9342
H5 H 0.6774 0.6465 0.8891
H6 H 0.8652 0.4583 0.8520
O1 O 0.989(2) 0.695(2) 1.005(2)
O2 O 0.687(2) 0.766(2) 0.8796(19)
Zn1 Zn 0.61133(4) 0.21316(5) 0.25279(4)
O3 O 0.4019(4) 0.2902(3) 0.2813(3)
O4 O 0.4647(3) 0.2356(4) 0.4251(4)
O5 O -0.2501(3) 0.3885(4) 0.5648(3)
O6 O -0.1396(3) 0.1394(4) 1.0892(3)
O7 O -0.3571(3) 0.2473(3) 1.1008(2)
N1 N 0.6269(3) 0.3987(3) 0.2536(3)
N2 N 0.6129(3) 1.0161(3) 0.2584(3)
N3 N 0.7658(3) 0.1208(3) 0.3387(3)
C1 C 0.3757(5) 0.2771(4) 0.3734(6)
C2 C 0.2334(4) 0.3047(4) 0.4347(4)
C3 C 0.1339(5) 0.3242(4) 0.3859(4)
H7 H 0.1525 0.3268 0.3153
C4 C 0.0072(4) 0.3397(4) 0.4420(4)
H8 H -0.0597 0.3521 0.4094
C5 C -0.0204(4) 0.3367(4) 0.5473(4)
C6 C 0.0769(4) 0.3248(4) 0.5931(4)
H9 H 0.0582 0.3276 0.6629
C7 C 0.2033(5) 0.3087(5) 0.5357(4)
H10 H 0.2692 0.3003 0.5676
C8 C -0.1579(4) 0.3492(5) 0.6081(4)
C9 C -0.1775(4) 0.3073(4) 0.7222(4)
C10 C -0.0886(4) 0.1983(4) 0.7688(4)
H11 H -0.0132 0.1459 0.7286
C11 C -0.1088(4) 0.1656(4) 0.8727(4)
H12 H -0.0460 0.0919 0.9022
C12 C -0.2215(4) 0.2399(4) 0.9358(4)
C13 C -0.2371(4) 0.2050(4) 1.0504(4)
C14 C -0.3137(4) 0.3479(4) 0.8885(4)
H13 H -0.3911 0.3987 0.9281
C15 C -0.2912(4) 0.3802(4) 0.7826(4)
H14 H -0.3541 0.4525 0.7519
C16 C 0.5940(5) 0.4437(4) 0.3400(4)
H15 H 0.5720 0.3923 0.4011
C17 C 0.5907(5) 0.5648(4) 0.3442(4)
H16 H 0.5648 0.5933 0.4070
C18 C 0.6256(4) 0.6421(4) 0.2557(4)
C19 C 0.6624(5) 0.5938(4) 0.1652(4)
H17 H 0.6882 0.6414 0.1031
C20 C 0.6602(5) 0.4722(4) 0.1686(4)
H18 H 0.6836 0.4416 0.1070
C21 C 0.6213(4) 0.7720(4) 0.2552(3)
C22 C 0.5135(4) 0.8579(4) 0.3112(4)
H19 H 0.4419 0.8352 0.3496
C23 C 0.5138(5) 0.9785(4) 0.3091(4)
H20 H 0.4394 1.0366 0.3458
C24 C 0.7158(4) 0.9324(4) 0.2063(4)
H21 H 0.7873 0.9565 0.1699
C25 C 0.7232(4) 0.8108(4) 0.2029(4)
H22 H 0.7982 0.7554 0.1646
C26 C 0.8796(4) 0.1355(5) 0.3078(4)
H23 H 0.8975 0.1797 0.2418
C27 C 0.9759(4) 0.0897(5) 0.3665(4)
H24 H 1.0557 0.1027 0.3400
C28 C 0.9516(4) 0.0244(4) 0.4655(4)
C29 C 0.8324(4) 0.0069(4) 0.4974(4)
H25 H 0.8116 -0.0377 0.5625
C30 C 0.7426(4) 0.0565(4) 0.4316(4)
H26 H 0.6626 0.0435 0.4546
C28A C 1.0484(4) -0.0244(4) 0.5345(4)
C27A C 1.0241(4) -0.0897(5) 0.6335(4)
C26A C 1.1204(4) -0.1355(5) 0.6922(4)
N3A N 1.2342(3) -0.1208(3) 0.6613(3)
C30A C 1.2574(4) -0.0565(4) 0.5684(4)
C29A C 1.1676(4) -0.0069(4) 0.5026(4)
H25A H 1.1884 0.0377 0.4375
H26A H 1.3374 -0.0435 0.5454
H23A H 1.1025 -0.1797 0.7582
H24A H 0.9443 -0.1027 0.6600
O3_2 O 1.4019(4) 0.2902(3) -0.7187(3)
O4_2 O 1.4647(3) 0.2356(4) -0.5749(4)
O5_2 O 0.7499(3) 0.3885(4) -0.4352(3)
O6_2 O 0.8604(3) 0.1394(4) 0.0892(3)
O7_2 O 0.6429(3) 0.2473(3) 0.1008(2)
C1_2 C 1.3757(5) 0.2771(4) -0.6266(6)
C2_2 C 1.2334(4) 0.3047(4) -0.5653(4)
C3_2 C 1.1339(5) 0.3242(4) -0.6141(4)
H7_2 H 1.1525 0.3268 -0.6847
C4_2 C 1.0072(4) 0.3397(4) -0.5580(4)
H8_2 H 0.9403 0.3521 -0.5906
C5_2 C 0.9796(4) 0.3367(4) -0.4527(4)
C6_2 C 1.0769(4) 0.3248(4) -0.4069(4)
H9_2 H 1.0582 0.3276 -0.3371
C7_2 C 1.2033(5) 0.3087(5) -0.4643(4)
H10_2 H 1.2692 0.3003 -0.4324
C8_2 C 0.8421(4) 0.3492(5) -0.3919(4)
C9_2 C 0.8225(4) 0.3073(4) -0.2778(4)
C10_2 C 0.9114(4) 0.1983(4) -0.2312(4)
H11_2 H 0.9868 0.1459 -0.2714
C11_2 C 0.8912(4) 0.1656(4) -0.1273(4)
H12_2 H 0.9540 0.0919 -0.0978
C12_2 C 0.7785(4) 0.2399(4) -0.0642(4)
C13_2 C 0.7629(4) 0.2050(4) 0.0504(4)
C14_2 C 0.6863(4) 0.3479(4) -0.1115(4)
H13_2 H 0.6089 0.3987 -0.0719
C15_2 C 0.7088(4) 0.3802(4) -0.2174(4)
H14_2 H 0.6459 0.4525 -0.2481
N1_2 N 0.6269(3) -0.6013(3) 0.2536(3)
N2_2 N 0.6129(3) 0.0161(3) 0.2584(3)
C16_2 C 0.5940(5) -0.5563(4) 0.3400(4)
H15_2 H 0.5720 -0.6077 0.4011
C17_2 C 0.5907(5) -0.4352(4) 0.3442(4)
H16_2 H 0.5648 -0.4067 0.4070
C18_2 C 0.6256(4) -0.3579(4) 0.2557(4)
C19_2 C 0.6624(5) -0.4062(4) 0.1652(4)
H17_2 H 0.6882 -0.3586 0.1031
C20_2 C 0.6602(5) -0.5278(4) 0.1686(4)
H18_2 H 0.6836 -0.5584 0.1070
C21_2 C 0.6213(4) -0.2280(4) 0.2552(3)
C22_2 C 0.5135(4) -0.1421(4) 0.3112(4)
H19_2 H 0.4419 -0.1648 0.3496
C23_2 C 0.5138(5) -0.0215(4) 0.3091(4)
H20_2 H 0.4394 0.0366 0.3458
C24_2 C 0.7158(4) -0.0676(4) 0.2063(4)
H21_2 H 0.7873 -0.0435 0.1699
C25_2 C 0.7232(4) -0.1892(4) 0.2029(4)
H22_2 H 0.7982 -0.2446 0.1646
Zn1_2 Zn 1.61133(4) 0.21316(5) -0.74721(4)
Zn1_3 Zn -0.38867(4) 0.21316(5) 1.25279(4)
Zn1_4 Zn 0.61133(4) 1.21316(5) 0.25279(4)
Zn1A Zn 1.38867(4) -0.21316(5) 0.74721(4)
Zn1_5 Zn 0.61133(4) -0.78684(5) 0.25279(4)
O7_3 O 1.6429(3) 0.2473(3) -0.8992(2)
N1_3 N 1.6269(3) 0.3987(3) -0.7464(3)
N2_3 N 1.6129(3) 0.0161(3) -0.7416(3)
N3_2 N 1.7658(3) 0.1208(3) -0.6613(3)
H1 H 0.5223 0.7712 0.9834
N4? N 0.4392(5) 1.0683(5) 1.0195(5)
C31? C 0.4241(5) 0.9541(6) 1.0208(5)
H27? H 0.3387 0.9470 1.0482
C32? C 0.5327(6) 0.8501(5) 0.9825(5)
C33? C 0.6564(6) 0.8603(6) 0.9428(5)
C34? C 0.6715(5) 0.9745(6) 0.9415(5)
C35? C 0.5629(6) 1.0785(5) 0.9799(5)
H28? H 0.5733 1.1574 0.9789
N5? N 1.0009(8) 0.5202(8) 0.8712(8)
C36? C 1.0155(7) 0.6226(8) 0.8955(9)
C37? C 0.9045(6) 0.7339(7) 0.9174(7)
C38? C 0.7788(6) 0.7428(6) 0.9151(6)
C39? C 0.7642(8) 0.6404(6) 0.8908(6)
C40? C 0.8753(9) 0.5291(7) 0.8688(7)
N6? N 0.9987(8) 0.5260(8) 0.8594(8)
C41? C 1.0131(7) 0.6416(9) 0.8546(9)
H29? H 1.1003 0.6453 0.8352
C42? C 0.9014(6) 0.7518(8) 0.8779(7)
H30? H 0.9114 0.8316 0.8746
C43? C 0.7752(6) 0.7465(6) 0.9061(6)
C44? C 0.7607(8) 0.6309(6) 0.9109(6)
H31? H 0.6736 0.6272 0.9303
C45? C 0.8725(9) 0.5206(7) 0.8875(7)
H32? H 0.8625 0.4408 0.8908
O8? O 0.5794(16) 0.8506(18) 0.9259(16)
O9? O 0.778(3) 0.831(3) 0.840(2)
loop_
_geom_bond_atom_site_label_1
_geom_bond_atom_site_label_2
_geom_bond_site_symmetry_1
_geom_bond_site_symmetry_2
Zn1 O3 1_555 1_555
O3 C1 1_555 1_555
O4 Zn1 1_555 1_555
O5 C8 1_555 1_555
O6 C13 1_555 1_555
O7 C13 1_555 1_555
N1 Zn1 1_555 1_555
N2 C23 1_555 1_555
N3 Zn1 1_555 1_555
C1 O4 1_555 1_555
C2 C1 1_555 1_555
C3 C2 1_555 1_555
H7 C3 1_555 1_555
C4 C3 1_555 1_555
H8 C4 1_555 1_555
C5 C4 1_555 1_555
C6 C5 1_555 1_555
H9 C6 1_555 1_555
C7 C2 1_555 1_555
H10 C7 1_555 1_555
C8 C5 1_555 1_555
C9 C8 1_555 1_555
C10 C9 1_555 1_555
H11 C10 1_555 1_555
C11 C10 1_555 1_555
H12 C11 1_555 1_555
C12 C11 1_555 1_555
C13 C12 1_555 1_555
C14 C12 1_555 1_555
H13 C14 1_555 1_555
C15 C9 1_555 1_555
H14 C15 1_555 1_555
C16 N1 1_555 1_555
H15 C16 1_555 1_555
C17 C16 1_555 1_555
H16 C17 1_555 1_555
C18 C17 1_555 1_555
C19 C18 1_555 1_555
H17 C19 1_555 1_555
C20 N1 1_555 1_555
H18 C20 1_555 1_555
C21 C18 1_555 1_555
C22 C21 1_555 1_555
H19 C22 1_555 1_555
C23 C22 1_555 1_555
H20 C23 1_555 1_555
C24 N2 1_555 1_555
H21 C24 1_555 1_555
C25 C21 1_555 1_555
H22 C25 1_555 1_555
C26 N3 1_555 1_555
H23 C26 1_555 1_555
C27 C26 1_555 1_555
H24 C27 1_555 1_555
C28 C27 1_555 1_555
C29 C28 1_555 1_555
H25 C29 1_555 1_555
C30 N3 1_555 1_555
H26 C30 1_555 1_555
C28A C28 1_555 1_555
C27A C28A 1_555 1_555
C26A C27A 1_555 1_555
N3A C26A 1_555 1_555
C30A N3A 1_555 1_555
C29A C28A 1_555 1_555
H25A C29A 1_555 1_555
H26A C30A 1_555 1_555
H23A C26A 1_555 1_555
H24A C27A 1_555 1_555
O3_2 C1_2 1_555 1_555
O4_2 C1_2 1_555 1_555
O5_2 C8_2 1_555 1_555
O6_2 C13_2 1_555 1_555
O7_2 Zn1 1_555 1_555
C1_2 C2_2 1_555 1_555
C2_2 C3_2 1_555 1_555
C3_2 H7_2 1_555 1_555
C4_2 C3_2 1_555 1_555
H8_2 C4_2 1_555 1_555
C5_2 C4_2 1_555 1_555
C6_2 C5_2 1_555 1_555
H9_2 C6_2 1_555 1_555
C7_2 C2_2 1_555 1_555
H10_2 C7_2 1_555 1_555
C8_2 C5_2 1_555 1_555
C9_2 C8_2 1_555 1_555
C10_2 C9_2 1_555 1_555
H11_2 C10_2 1_555 1_555
C11_2 C10_2 1_555 1_555
H12_2 C11_2 1_555 1_555
C12_2 C11_2 1_555 1_555
C13_2 O7_2 1_555 1_555
C14_2 C12_2 1_555 1_555
H13_2 C14_2 1_555 1_555
C15_2 C9_2 1_555 1_555
H14_2 C15_2 1_555 1_555
N1_2 C16_2 1_555 1_555
N2_2 Zn1 1_555 1_555
C16_2 H15_2 1_555 1_555
C17_2 C16_2 1_555 1_555
H16_2 C17_2 1_555 1_555
C18_2 C17_2 1_555 1_555
C19_2 C18_2 1_555 1_555
H17_2 C19_2 1_555 1_555
C20_2 N1_2 1_555 1_555
H18_2 C20_2 1_555 1_555
C21_2 C18_2 1_555 1_555
C22_2 C21_2 1_555 1_555
H19_2 C22_2 1_555 1_555
C23_2 N2_2 1_555 1_555
H20_2 C23_2 1_555 1_555
C24_2 N2_2 1_555 1_555
H21_2 C24_2 1_555 1_555
C25_2 C21_2 1_555 1_555
H22_2 C25_2 1_555 1_555
Zn1_2 O3_2 1_555 1_555
Zn1_3 O7 1_555 1_555
Zn1_4 N2 1_555 1_555
Zn1A N3A 1_555 1_555
Zn1_5 N1_2 1_555 1_555
O7_3 Zn1_2 1_555 1_555
N1_3 Zn1_2 1_555 1_555
N2_3 Zn1_2 1_555 1_555
N3_2 Zn1_2 1_555 1_555
C6 C7 1_555 1_555
C14 C15 1_555 1_555
C19 C20 1_555 1_555
C24 C25 1_555 1_555
C29 C30 1_555 1_555
C30A C29A 1_555 1_555
O4_2 Zn1_2 1_555 1_555
C6_2 C7_2 1_555 1_555
C12_2 C13_2 1_555 1_555
C14_2 C15_2 1_555 1_555
C19_2 C20_2 1_555 1_555
C22_2 C23_2 1_555 1_555
C24_2 C25_2 1_555 1_555

#END
