
#######################################################################
#
#                 Cambridge Crystallographic Data Centre
#                                CCDC 
#
#######################################################################
#
# If this CIF has been generated from an entry in the Cambridge 
# Structural Database, then it will include bibliographic, chemical, 
# crystal, experimental, refinement or atomic coordinate data resulting 
# from the CCDC's data processing and validation procedures.
#
#######################################################################

data_SAMCOZ
_symmetry_cell_setting           triclinic
_symmetry_space_group_name_H-M   'P -1'
_symmetry_Int_Tables_number      2
_space_group_name_Hall           '-P 1'
loop_
_symmetry_equiv_pos_site_id
_symmetry_equiv_pos_as_xyz
1 x,y,z
2 -x,-y,-z
_cell_length_a                   8.360(3)
_cell_length_b                   12.892(5)
_cell_length_c                   12.899(5)
_cell_angle_alpha                115.472(5)
_cell_angle_beta                 106.053(6)
_cell_angle_gamma                91.981(6)
_cell_volume                     1187.12
loop_
_atom_site_label
_atom_site_type_symbol
_atom_site_fract_x
_atom_site_fract_y
_atom_site_fract_z
Pt1 Pt 0.0000 0.5000 1.5000
Na1 Na 0.2547(3) 0.1770(2) 0.8855(2)
N1 N 0.1752(9) 0.1980(6) 1.0595(6)
N2 N -0.0116(9) -0.0052(5) 1.2169(7)
O1 O 0.3101(5) 0.3978(3) 0.9570(4)
O2 O 0.5192(5) 0.3149(4) 1.0665(4)
O3 O 0.5023(6) 0.0833(4) 0.9253(4)
O4 O 0.3386(6) 0.0791(4) 0.7044(4)
O5 O 0.1156(5) 0.2381(3) 0.7330(4)
S1 S 0.0852(2) 0.43208(14) 1.32876(16)
S2 S -0.0484(2) 0.29840(14) 1.41917(16)
C1 C 0.3552(7) 0.4600(5) 1.0796(6)
C2 C 0.2982(8) 0.5576(5) 1.1424(6)
H1 H 0.2225 0.5885 1.1006
C3 C 0.3525(7) 0.6124(5) 1.2703(6)
C4 C 0.2908(9) 0.7125(6) 1.3388(7)
H2 H 0.2130 0.7443 1.2993
C5 C 0.3466(10) 0.7620(7) 1.4631(7)
H3 H 0.3043 0.8266 1.5070
C6 C 0.4640(10) 0.7181(7) 1.5249(8)
H4 H 0.5014 0.7534 1.6092
C7 C 0.5242(9) 0.6227(7) 1.4607(7)
H5 H 0.6040 0.5938 1.5025
C8 C 0.4694(8) 0.5661(6) 1.3327(6)
C9 C 0.5287(8) 0.4639(6) 1.2651(6)
H6 H 0.6062 0.4326 1.3054
C10 C 0.4724(8) 0.4128(5) 1.1427(6)
C11 C 0.6106(9) 0.2475(6) 1.1178(7)
H7 H 0.5419 0.2150 1.1500
H8 H 0.7130 0.2955 1.1830
C12 C 0.6526(10) 0.1523(7) 1.0171(7)
H9 H 0.7200 0.1856 0.9849
H10 H 0.7180 0.1046 1.0474
C13 C 0.5282(10) 0.0068(7) 0.8147(7)
H11 H 0.4478 -0.0656 0.7754
H12 H 0.6412 -0.0114 0.8321
C14 C 0.5070(9) 0.0606(7) 0.7315(7)
H13 H 0.5848 0.1341 0.7703
H14 H 0.5293 0.0091 0.6579
C15 C 0.2850(10) 0.1213(6) 0.6182(7)
H15 H 0.2788 0.0620 0.5382
H16 H 0.3638 0.1898 0.6395
C16 C 0.1145(9) 0.1514(6) 0.6192(6)
H17 H 0.0722 0.1783 0.5588
H18 H 0.0374 0.0815 0.5967
C17 C 0.1736(9) 0.3548(5) 0.7572(6)
H19 H 0.0937 0.3765 0.7027
H20 H 0.2822 0.3596 0.7445
C18 C 0.1900(8) 0.4348(5) 0.8846(6)
H21 H 0.2285 0.5147 0.9038
H22 H 0.0821 0.4301 0.8982
C19 C 0.0390(7) 0.2931(5) 1.3112(5)
C20 C 0.0661(8) 0.1923(5) 1.2238(6)
C21 C 0.1282(9) 0.1944(6) 1.1325(7)
C22 C 0.0247(9) 0.0822(6) 1.2198(6)
N1A N -0.1752(9) 0.8020(6) 1.9405(6)
N2A N 0.0116(9) 1.0052(5) 1.7831(7)
S1A S -0.0852(2) 0.56792(14) 1.67124(16)
S2A S 0.0484(2) 0.70160(14) 1.58083(16)
C19A C -0.0390(7) 0.7069(5) 1.6888(5)
C20A C -0.0661(8) 0.8077(5) 1.7762(6)
C21A C -0.1282(9) 0.8056(6) 1.8675(7)
C22A C -0.0247(9) 0.9178(6) 1.7802(6)
Na1A Na -0.2547(3) 0.8230(2) 2.1145(2)
O1A O -0.3101(5) 0.6022(3) 2.0430(4)
O2A O -0.5192(5) 0.6851(4) 1.9335(4)
O3A O -0.5023(6) 0.9167(4) 2.0747(4)
O4A O -0.3386(6) 0.9209(4) 2.2956(4)
O5A O -0.1156(5) 0.7619(3) 2.2670(4)
C1A C -0.3552(7) 0.5400(5) 1.9204(6)
C2A C -0.2982(8) 0.4424(5) 1.8576(6)
H1A H -0.2225 0.4115 1.8994
C3A C -0.3525(7) 0.3876(5) 1.7297(6)
C4A C -0.2908(9) 0.2875(6) 1.6612(7)
H2A H -0.2130 0.2557 1.7007
C5A C -0.3466(10) 0.2380(7) 1.5369(7)
H3A H -0.3043 0.1734 1.4930
C6A C -0.4640(10) 0.2819(7) 1.4751(8)
H4A H -0.5014 0.2466 1.3908
C7A C -0.5242(9) 0.3773(7) 1.5393(7)
H5A H -0.6040 0.4062 1.4975
C8A C -0.4694(8) 0.4339(6) 1.6673(6)
C9A C -0.5287(8) 0.5361(6) 1.7349(6)
H6A H -0.6062 0.5674 1.6946
C10A C -0.4724(8) 0.5872(5) 1.8573(6)
C11A C -0.6106(9) 0.7525(6) 1.8822(7)
H7A H -0.5419 0.7850 1.8500
H8A H -0.7130 0.7045 1.8170
C12A C -0.6526(10) 0.8477(7) 1.9829(7)
H9A H -0.7200 0.8144 2.0151
H10A H -0.7180 0.8954 1.9526
C13A C -0.5282(10) 0.9932(7) 2.1853(7)
H11A H -0.4478 1.0656 2.2246
H12A H -0.6412 1.0114 2.1679
C14A C -0.5070(9) 0.9394(7) 2.2685(7)
H13A H -0.5848 0.8659 2.2297
H14A H -0.5293 0.9909 2.3421
C15A C -0.2850(10) 0.8787(6) 2.3818(7)
H15A H -0.2788 0.9380 2.4618
H16A H -0.3638 0.8102 2.3605
C16A C -0.1145(9) 0.8486(6) 2.3808(6)
H17A H -0.0722 0.8217 2.4412
H18A H -0.0374 0.9185 2.4033
C17A C -0.1736(9) 0.6452(5) 2.2428(6)
H19A H -0.0937 0.6235 2.2973
H20A H -0.2822 0.6404 2.2555
C18A C -0.1900(8) 0.5652(5) 2.1154(6)
H21A H -0.2285 0.4853 2.0962
H22A H -0.0821 0.5699 2.1018
N2A_2 N 0.0116(9) 0.0052(5) 0.7831(7)
Na1A_2 Na -0.2547(3) -0.1770(2) 1.1145(2)
Na1_2 Na 0.2547(3) 1.1770(2) 1.8855(2)
N2_2 N -0.0116(9) 0.9948(5) 2.2169(7)
loop_
_geom_bond_atom_site_label_1
_geom_bond_atom_site_label_2
_geom_bond_site_symmetry_1
_geom_bond_site_symmetry_2
Pt1 S1 1_555 1_555
Na1 N1 1_555 1_555
N1 C21 1_555 1_555
N2 C22 1_555 1_555
O1 Na1 1_555 1_555
O2 Na1 1_555 1_555
O3 Na1 1_555 1_555
O4 Na1 1_555 1_555
O5 Na1 1_555 1_555
S1 C19 1_555 1_555
S2 Pt1 1_555 1_555
C1 O1 1_555 1_555
C2 C1 1_555 1_555
H1 C2 1_555 1_555
C3 C2 1_555 1_555
C4 C3 1_555 1_555
H2 C4 1_555 1_555
C5 C4 1_555 1_555
H3 C5 1_555 1_555
C6 C5 1_555 1_555
H4 C6 1_555 1_555
C7 C6 1_555 1_555
H5 C7 1_555 1_555
C8 C3 1_555 1_555
C9 C8 1_555 1_555
H6 C9 1_555 1_555
C10 O2 1_555 1_555
C11 O2 1_555 1_555
H7 C11 1_555 1_555
H8 C11 1_555 1_555
C12 O3 1_555 1_555
H9 C12 1_555 1_555
H10 C12 1_555 1_555
C13 O3 1_555 1_555
H11 C13 1_555 1_555
H12 C13 1_555 1_555
C14 O4 1_555 1_555
H13 C14 1_555 1_555
H14 C14 1_555 1_555
C15 O4 1_555 1_555
H15 C15 1_555 1_555
H16 C15 1_555 1_555
C16 O5 1_555 1_555
H17 C16 1_555 1_555
H18 C16 1_555 1_555
C17 O5 1_555 1_555
H19 C17 1_555 1_555
H20 C17 1_555 1_555
C18 O1 1_555 1_555
H21 C18 1_555 1_555
H22 C18 1_555 1_555
C19 S2 1_555 1_555
C20 C19 1_555 1_555
C21 C20 1_555 1_555
C22 C20 1_555 1_555
N1A C21A 1_555 1_555
N2A C22A 1_555 1_555
S1A Pt1 1_555 1_555
S2A Pt1 1_555 1_555
C19A S1A 1_555 1_555
C20A C19A 1_555 1_555
C21A C20A 1_555 1_555
C22A C20A 1_555 1_555
Na1A N1A 1_555 1_555
O1A Na1A 1_555 1_555
O2A Na1A 1_555 1_555
O3A Na1A 1_555 1_555
O4A Na1A 1_555 1_555
O5A Na1A 1_555 1_555
C1A O1A 1_555 1_555
C2A C1A 1_555 1_555
H1A C2A 1_555 1_555
C3A C2A 1_555 1_555
C4A C3A 1_555 1_555
H2A C4A 1_555 1_555
C5A C4A 1_555 1_555
H3A C5A 1_555 1_555
C6A C5A 1_555 1_555
H4A C6A 1_555 1_555
C7A C6A 1_555 1_555
H5A C7A 1_555 1_555
C8A C3A 1_555 1_555
C9A C8A 1_555 1_555
H6A C9A 1_555 1_555
C10A O2A 1_555 1_555
C11A O2A 1_555 1_555
H7A C11A 1_555 1_555
H8A C11A 1_555 1_555
C12A O3A 1_555 1_555
H9A C12A 1_555 1_555
H10A C12A 1_555 1_555
C13A O3A 1_555 1_555
H11A C13A 1_555 1_555
H12A C13A 1_555 1_555
C14A O4A 1_555 1_555
H13A C14A 1_555 1_555
H14A C14A 1_555 1_555
C15A O4A 1_555 1_555
H15A C15A 1_555 1_555
H16A C15A 1_555 1_555
C16A O5A 1_555 1_555
H17A C16A 1_555 1_555
H18A C16A 1_555 1_555
C17A O5A 1_555 1_555
H19A C17A 1_555 1_555
H20A C17A 1_555 1_555
C18A O1A 1_555 1_555
H21A C18A 1_555 1_555
H22A C18A 1_555 1_555
N2A_2 Na1 1_555 1_555
Na1A_2 N2 1_555 1_555
Na1_2 N2A 1_555 1_555
N2_2 Na1A 1_555 1_555
C1 C10 1_555 1_555
C7 C8 1_555 1_555
C9 C10 1_555 1_555
C11 C12 1_555 1_555
C13 C14 1_555 1_555
C15 C16 1_555 1_555
C17 C18 1_555 1_555
S2A C19A 1_555 1_555
C1A C10A 1_555 1_555
C7A C8A 1_555 1_555
C9A C10A 1_555 1_555
C11A C12A 1_555 1_555
C13A C14A 1_555 1_555
C15A C16A 1_555 1_555
C17A C18A 1_555 1_555

#END
