
#######################################################################
#
#                 Cambridge Crystallographic Data Centre
#                                CCDC 
#
#######################################################################
#
# If this CIF has been generated from an entry in the Cambridge 
# Structural Database, then it will include bibliographic, chemical, 
# crystal, experimental, refinement or atomic coordinate data resulting 
# from the CCDC's data processing and validation procedures.
#
#######################################################################

data_SAMKOI
_symmetry_cell_setting           monoclinic
_symmetry_space_group_name_H-M   'P 21/c'
_symmetry_Int_Tables_number      14
_space_group_name_Hall           '-P 2ybc'
loop_
_symmetry_equiv_pos_site_id
_symmetry_equiv_pos_as_xyz
1 x,y,z
2 -x,1/2+y,1/2-z
3 -x,-y,-z
4 x,1/2-y,1/2+z
_cell_length_a                   11.4413(2)
_cell_length_b                   14.2690(2)
_cell_length_c                   14.9766(4)
_cell_angle_alpha                90
_cell_angle_beta                 116.696(2)
_cell_angle_gamma                90
_cell_volume                     2184.39
loop_
_atom_site_label
_atom_site_type_symbol
_atom_site_fract_x
_atom_site_fract_y
_atom_site_fract_z
Cd1 Cd -1.86814(3) 0.399620(19) -0.94048(2)
O1 O -1.7241(3) 0.2649(2) -0.8833(2)
O2 O -1.6405(3) 0.40499(19) -0.8357(3)
O3 O -1.1180(3) 0.0582(2) -0.5751(2)
O4 O -1.0423(3) 0.1978(2) -0.5152(2)
O5 O -1.4860(4) 0.4440(3) -0.6335(3)
O6 O -1.3443(4) 0.4780(3) -0.6878(3)
O7 O -1.9010(3) 0.3887(2) -0.8007(2)
O8 O -1.8337(4) 0.4098(2) -1.0763(3)
N1 N -1.4131(4) 0.4224(3) -0.6704(3)
N2 N -1.8235(6) 0.3983(3) -0.6329(3)
N3 N -1.8700(5) 0.3901(3) -1.2355(3)
C1 C -1.5038(4) 0.2734(3) -0.7620(3)
C2 C -1.4001(4) 0.3233(3) -0.6896(3)
C3 C -1.2806(4) 0.2835(3) -0.6279(3)
H1 H -1.2117 0.3207 -0.5808
C4 C -1.2631(4) 0.1878(3) -0.6361(3)
C5 C -1.3649(4) 0.1356(3) -0.7052(3)
H2 H -1.3543 0.0702 -0.7105
C6 C -1.4831(4) 0.1783(3) -0.7674(3)
H3 H -1.5517 0.1411 -0.8149
C7 C -1.6320(4) 0.3168(3) -0.8319(3)
C8 C -1.1319(4) 0.1444(3) -0.5707(3)
C9 C -1.8214(5) 0.4166(3) -0.7177(4)
H4 H -1.7520 0.4548 -0.7151
C10 C -1.9261(9) 0.3403(5) -0.6290(5)
H5 H -1.9622 0.2987 -0.6872
H6 H -1.8893 0.3027 -0.5677
H7 H -1.9957 0.3806 -0.6294
C11 C -1.7257(7) 0.4369(5) -0.5394(4)
H8 H -1.6795 0.4883 -0.5533
H9 H -1.7685 0.4606 -0.5001
H10 H -1.6630 0.3878 -0.5016
C12 C -1.9083(5) 0.4101(3) -1.1678(4)
H11 H -1.9977 0.4257 -1.1893
C13 C -1.7365(7) 0.3587(6) -1.2031(6)
H12 H -1.7157 0.3095 -1.1525
H13 H -1.7270 0.3338 -1.2604
H14 H -1.6765 0.4117 -1.1743
C14 C -1.9508(8) 0.3890(5) -1.3394(5)
H15 H -2.0427 0.3899 -1.3525
H16 H -1.9323 0.4442 -1.3698
H17 H -1.9335 0.3321 -1.3682
Cd1A Cd -1.13186(3) -0.100380(19) -0.55952(2)
Cd1C Cd -0.86814(3) 0.100380(19) -0.44048(2)
O3A O -1.8820(3) 0.5582(2) -0.9249(2)
O3C O -2.1180(3) 0.4418(2) -1.0751(2)
O4C O -2.0423(3) 0.3022(2) -1.0152(2)
N4 N -0.3361(7) 0.2927(6) 0.0784(5)
O9 O -0.2522(6) 0.1463(5) 0.1218(5)
C15 C -0.4651(11) 0.2563(10) 0.0118(9)
H18 H -0.4669 0.1885 0.0215
H19 H -0.4841 0.2692 -0.0577
H20 H -0.5310 0.2867 0.0268
C16 C -0.2339(12) 0.2332(10) 0.1310(8)
H21 H -0.1500 0.2575 0.1741
C17 C -0.3286(18) 0.3908(8) 0.0817(11)
H22 H -0.2396 0.4101 0.1281
H23 H -0.3904 0.4158 0.1045
H24 H -0.3506 0.4151 0.0148
C18? C -0.3487(17) 0.1966(10) 0.0718(10)
C19? C -0.2169(16) 0.3398(11) 0.1406(15)
C20? C -0.4473(17) 0.3492(14) 0.0208(12)
H25? H -0.4305 0.1688 0.0293
H26? H -0.2308 0.4077 0.1332
H27? H -0.1491 0.3219 0.1209
H28? H -0.1891 0.3222 0.2105
H29? H -0.4231 0.4156 0.0330
H30? H -0.5168 0.3358 0.0401
H31? H -0.4785 0.3352 -0.0503
N5? N -0.3361(7) 0.2927(6) 0.0784(5)
O10? O -0.2522(6) 0.1463(5) 0.1218(5)
loop_
_geom_bond_atom_site_label_1
_geom_bond_atom_site_label_2
_geom_bond_site_symmetry_1
_geom_bond_site_symmetry_2
Cd1 O1 1_555 1_555
O1 C7 1_555 1_555
O2 Cd1 1_555 1_555
O3 C8 1_555 1_555
O4 C8 1_555 1_555
O5 N1 1_555 1_555
O6 N1 1_555 1_555
O7 Cd1 1_555 1_555
O8 Cd1 1_555 1_555
N1 C2 1_555 1_555
N2 C9 1_555 1_555
N3 C12 1_555 1_555
C1 C2 1_555 1_555
C2 C3 1_555 1_555
C3 H1 1_555 1_555
C4 C3 1_555 1_555
C5 C4 1_555 1_555
H2 C5 1_555 1_555
C6 C1 1_555 1_555
H3 C6 1_555 1_555
C7 O2 1_555 1_555
C8 C4 1_555 1_555
C9 O7 1_555 1_555
H4 C9 1_555 1_555
C10 N2 1_555 1_555
H5 C10 1_555 1_555
H6 C10 1_555 1_555
H7 C10 1_555 1_555
C11 N2 1_555 1_555
H8 C11 1_555 1_555
H9 C11 1_555 1_555
H10 C11 1_555 1_555
C12 O8 1_555 1_555
H11 C12 1_555 1_555
C13 N3 1_555 1_555
H12 C13 1_555 1_555
H13 C13 1_555 1_555
H14 C13 1_555 1_555
C14 N3 1_555 1_555
H15 C14 1_555 1_555
H16 C14 1_555 1_555
H17 C14 1_555 1_555
N4 C15 1_555 1_555
O9 C16 1_555 1_555
C15 H18 1_555 1_555
H19 C15 1_555 1_555
H20 C15 1_555 1_555
C16 N4 1_555 1_555
H21 C16 1_555 1_555
C17 N4 1_555 1_555
H22 C17 1_555 1_555
H23 C17 1_555 1_555
H24 C17 1_555 1_555
Cd1A O3 1_555 1_555
Cd1C O3 1_555 1_555
O3A Cd1 1_555 1_555
O3C Cd1 1_555 1_555
O4C Cd1 1_555 1_555
O4 Cd1C 1_555 1_555
C1 C7 1_555 1_555
C5 C6 1_555 1_555

#END
