
#######################################################################
#
#                 Cambridge Crystallographic Data Centre
#                                CCDC 
#
#######################################################################
#
# If this CIF has been generated from an entry in the Cambridge 
# Structural Database, then it will include bibliographic, chemical, 
# crystal, experimental, refinement or atomic coordinate data resulting 
# from the CCDC's data processing and validation procedures.
#
#######################################################################

data_SAMLAT
_symmetry_cell_setting           triclinic
_symmetry_space_group_name_H-M   'P -1'
_symmetry_Int_Tables_number      2
_space_group_name_Hall           '-P 1'
loop_
_symmetry_equiv_pos_site_id
_symmetry_equiv_pos_as_xyz
1 x,y,z
2 -x,-y,-z
_cell_length_a                   8.967(3)
_cell_length_b                   11.816(4)
_cell_length_c                   12.551(4)
_cell_angle_alpha                67.11(3)
_cell_angle_beta                 73.45(2)
_cell_angle_gamma                78.23(2)
_cell_volume                     1167.8
loop_
_atom_site_label
_atom_site_type_symbol
_atom_site_fract_x
_atom_site_fract_y
_atom_site_fract_z
O1 O 0.15951(15) 0.25052(11) 0.18520(11)
C1 C 0.23125(19) 0.20326(15) 0.10040(15)
C2 C 0.18512(18) 0.09439(15) 0.10215(15)
C3 C 0.2557(2) 0.05637(16) 0.00623(17)
C4 C 0.3698(2) 0.11693(18) -0.09051(17)
C5 C 0.4192(2) 0.21828(17) -0.08738(16)
C6 C 0.3524(2) 0.26150(16) 0.00682(16)
C7 C 0.4101(2) 0.36577(18) 0.00680(17)
C8 C 0.4667(2) 0.45155(18) 0.00198(17)
C9 C 0.0601(2) 0.02289(16) 0.20540(17)
C10 C -0.0990(2) 0.09967(19) 0.2043(2)
C11 C 0.1015(3) -0.00950(19) 0.32523(18)
C12 C 0.0451(3) -0.09930(18) 0.1943(2)
C13 C 0.4380(3) 0.0698(2) -0.19187(19)
C14 C 0.1163(3) 0.62645(18) 0.0892(2)
O2 O 0.06927(17) 0.50461(11) 0.12323(12)
C15 C -0.0422(3) 0.5006(2) 0.06091(17)
C16 C -0.0906(2) 0.32882(18) 0.36688(17)
C17 C -0.1638(3) 0.4141(2) 0.4384(2)
C18 C -0.3003(3) 0.3643(2) 0.5390(2)
C19 C -0.2139(6) 0.5408(3) 0.3598(3)
C20 C 0.2765(2) 0.4003(2) 0.30691(18)
C21 C 0.3776(3) 0.2949(3) 0.3796(2)
C22 C 0.2812(4) 0.2008(3) 0.4817(3)
C23 C 0.4976(4) 0.2322(4) 0.3055(3)
Al1 Al 0.11451(6) 0.35811(5) 0.25510(5)
H1 H 0.2247 -0.0150 0.0064
H2 H 0.4991 0.2591 -0.1495
H3 H -0.1774 0.0543 0.2700
H4 H -0.1269 0.1163 0.1300
H5 H -0.0938 0.1771 0.2123
H6 H 0.0211 -0.0548 0.3888
H7 H 0.1083 0.0659 0.3364
H8 H 0.2014 -0.0600 0.3261
H9 H -0.0337 -0.1428 0.2610
H10 H 0.1449 -0.1501 0.1942
H11 H 0.0147 -0.0820 0.1209
H12 H 0.5131 0.1239 -0.2518
H13 H 0.3549 0.0681 -0.2264
H14 H 0.4900 -0.0130 -0.1626
H15 H 0.1918 0.6219 0.1332
H16 H 0.0253 0.6822 0.1069
H17 H 0.1632 0.6567 0.0047
H18 H -0.1203 0.5729 0.0541
H19 H -0.0967 0.4263 0.1057
H20 H -0.1651 0.3319 0.3216
H21 H -0.0812 0.2442 0.4238
H22 H -0.0823 0.4220 0.4735
H23 H -0.3408 0.4214 0.5814
H24 H -0.2661 0.2847 0.5929
H25 H -0.3819 0.3546 0.5074
H26 H -0.1258 0.5732 0.2955
H27 H -0.2506 0.5948 0.4058
H28 H -0.2977 0.5365 0.3272
H29 H 0.3465 0.4503 0.2358
H30 H 0.2249 0.4530 0.3539
H31 H 0.4338 0.3313 0.4140
H32 H 0.3498 0.1360 0.5255
H33 H 0.2217 0.1653 0.4510
H34 H 0.2099 0.2407 0.5340
H35 H 0.5587 0.1662 0.3553
H36 H 0.5660 0.2915 0.2448
H37 H 0.4462 0.1982 0.2680
C8A C 0.5333(2) 0.54845(18) -0.00198(17)
C7A C 0.5899(2) 0.63423(18) -0.00680(17)
C6A C 0.6476(2) 0.73850(16) -0.00682(16)
C1A C 0.76875(19) 0.79674(15) -0.10040(15)
O1A O 0.84049(15) 0.74948(11) -0.18520(11)
Al1A Al 0.88549(6) 0.64189(5) -0.25510(5)
O2A O 0.93073(17) 0.49539(11) -0.12323(12)
C16A C 1.0906(2) 0.67118(18) -0.36688(17)
C17A C 1.1638(3) 0.5859(2) -0.4384(2)
C18A C 1.3003(3) 0.6357(2) -0.5390(2)
H23A H 1.3408 0.5786 -0.5814
H24A H 1.2661 0.7153 -0.5929
H25A H 1.3819 0.6454 -0.5074
C19A C 1.2139(6) 0.4592(3) -0.3598(3)
H26A H 1.1258 0.4268 -0.2955
H27A H 1.2506 0.4052 -0.4058
H28A H 1.2977 0.4635 -0.3272
H22A H 1.0823 0.5780 -0.4735
H20A H 1.1651 0.6681 -0.3216
H21A H 1.0812 0.7558 -0.4238
C20A C 0.7235(2) 0.5997(2) -0.30691(18)
C21A C 0.6224(3) 0.7051(3) -0.3796(2)
C22A C 0.7188(4) 0.7992(3) -0.4817(3)
H32A H 0.6502 0.8640 -0.5255
H33A H 0.7783 0.8347 -0.4510
H34A H 0.7901 0.7593 -0.5340
C23A C 0.5024(4) 0.7678(4) -0.3055(3)
H35A H 0.4413 0.8338 -0.3553
H36A H 0.4340 0.7085 -0.2448
H37A H 0.5538 0.8018 -0.2680
H31A H 0.5662 0.6687 -0.4140
H29A H 0.6535 0.5497 -0.2358
H30A H 0.7751 0.5470 -0.3539
C2A C 0.81488(18) 0.90561(15) -0.10215(15)
C3A C 0.7443(2) 0.94363(16) -0.00623(17)
C4A C 0.6302(2) 0.88307(18) 0.09051(17)
C5A C 0.5808(2) 0.78172(17) 0.08738(16)
H2A H 0.5009 0.7409 0.1495
C13A C 0.5620(3) 0.9302(2) 0.19187(19)
H12A H 0.4869 0.8761 0.2518
H13A H 0.6451 0.9319 0.2264
H14A H 0.5100 1.0130 0.1626
H1A H 0.7753 1.0150 -0.0064
C9A C 0.9399(2) 0.97711(16) -0.20540(17)
C10A C 1.0990(2) 0.90033(19) -0.2043(2)
H3A H 1.1774 0.9457 -0.2700
H4A H 1.1269 0.8837 -0.1300
H5A H 1.0938 0.8229 -0.2123
C11A C 0.8985(3) 1.00950(19) -0.32523(18)
H6A H 0.9789 1.0548 -0.3888
H7A H 0.8917 0.9341 -0.3364
H8A H 0.7986 1.0600 -0.3261
C12A C 0.9549(3) 1.09930(18) -0.1943(2)
H9A H 1.0337 1.1428 -0.2610
H10A H 0.8551 1.1501 -0.1942
H11A H 0.9853 1.0820 -0.1209
C15A C 0.0422(3) 0.4994(2) -0.06091(17)
O2A_2 O -0.06927(17) 0.49539(11) -0.12323(12)
C14A C -0.1163(3) 0.37355(18) -0.0892(2)
H15A H -0.1918 0.3781 -0.1332
H16A H -0.0253 0.3178 -0.1069
H17A H -0.1632 0.3433 -0.0047
Al1A_2 Al -0.11451(6) 0.64189(5) -0.25510(5)
H18A H 0.1203 0.4271 -0.0541
H19A H 0.0967 0.5737 -0.1057
loop_
_geom_bond_atom_site_label_1
_geom_bond_atom_site_label_2
_geom_bond_site_symmetry_1
_geom_bond_site_symmetry_2
O1 C1 1_555 1_555
C1 C2 1_555 1_555
C2 C3 1_555 1_555
C3 C4 1_555 1_555
C4 C5 1_555 1_555
C5 C6 1_555 1_555
C6 C1 1_555 1_555
C7 C6 1_555 1_555
C8 C7 1_555 1_555
C9 C2 1_555 1_555
C10 C9 1_555 1_555
C11 C9 1_555 1_555
C12 C9 1_555 1_555
C13 C4 1_555 1_555
C14 O2 1_555 1_555
O2 C15 1_555 1_555
C15 H18 1_555 1_555
C16 C17 1_555 1_555
C17 C18 1_555 1_555
C18 H23 1_555 1_555
C19 C17 1_555 1_555
C20 C21 1_555 1_555
C21 C22 1_555 1_555
C22 H32 1_555 1_555
C23 C21 1_555 1_555
Al1 O1 1_555 1_555
H1 C3 1_555 1_555
H2 C5 1_555 1_555
H3 C10 1_555 1_555
H4 C10 1_555 1_555
H5 C10 1_555 1_555
H6 C11 1_555 1_555
H7 C11 1_555 1_555
H8 C11 1_555 1_555
H9 C12 1_555 1_555
H10 C12 1_555 1_555
H11 C12 1_555 1_555
H12 C13 1_555 1_555
H13 C13 1_555 1_555
H14 C13 1_555 1_555
H15 C14 1_555 1_555
H16 C14 1_555 1_555
H17 C14 1_555 1_555
H19 C15 1_555 1_555
H20 C16 1_555 1_555
H21 C16 1_555 1_555
H22 C17 1_555 1_555
H24 C18 1_555 1_555
H25 C18 1_555 1_555
H26 C19 1_555 1_555
H27 C19 1_555 1_555
H28 C19 1_555 1_555
H29 C20 1_555 1_555
H30 C20 1_555 1_555
H31 C21 1_555 1_555
H33 C22 1_555 1_555
H34 C22 1_555 1_555
H35 C23 1_555 1_555
H36 C23 1_555 1_555
H37 C23 1_555 1_555
C8A C8 1_555 1_555
C7A C8A 1_555 1_555
C6A C7A 1_555 1_555
C1A C6A 1_555 1_555
O1A C1A 1_555 1_555
Al1A O1A 1_555 1_555
O2A Al1A 1_555 1_555
C16A Al1A 1_555 1_555
C17A C16A 1_555 1_555
C18A C17A 1_555 1_555
H23A C18A 1_555 1_555
H24A C18A 1_555 1_555
H25A C18A 1_555 1_555
C19A C17A 1_555 1_555
H26A C19A 1_555 1_555
H27A C19A 1_555 1_555
H28A C19A 1_555 1_555
H22A C17A 1_555 1_555
H20A C16A 1_555 1_555
H21A C16A 1_555 1_555
C20A Al1A 1_555 1_555
C21A C20A 1_555 1_555
C22A C21A 1_555 1_555
H32A C22A 1_555 1_555
H33A C22A 1_555 1_555
H34A C22A 1_555 1_555
C23A C21A 1_555 1_555
H35A C23A 1_555 1_555
H36A C23A 1_555 1_555
H37A C23A 1_555 1_555
H31A C21A 1_555 1_555
H29A C20A 1_555 1_555
H30A C20A 1_555 1_555
C2A C1A 1_555 1_555
C3A C2A 1_555 1_555
C4A C3A 1_555 1_555
C5A C6A 1_555 1_555
H2A C5A 1_555 1_555
C13A C4A 1_555 1_555
H12A C13A 1_555 1_555
H13A C13A 1_555 1_555
H14A C13A 1_555 1_555
H1A C3A 1_555 1_555
C9A C2A 1_555 1_555
C10A C9A 1_555 1_555
H3A C10A 1_555 1_555
H4A C10A 1_555 1_555
H5A C10A 1_555 1_555
C11A C9A 1_555 1_555
H6A C11A 1_555 1_555
H7A C11A 1_555 1_555
H8A C11A 1_555 1_555
C12A C9A 1_555 1_555
H9A C12A 1_555 1_555
H10A C12A 1_555 1_555
H11A C12A 1_555 1_555
C15A C15 1_555 1_555
O2A_2 C15A 1_555 1_555
C14A O2A_2 1_555 1_555
H15A C14A 1_555 1_555
H16A C14A 1_555 1_555
H17A C14A 1_555 1_555
Al1A_2 O2A_2 1_555 1_555
H18A C15A 1_555 1_555
H19A C15A 1_555 1_555
O2 Al1 1_555 1_555
C16 Al1 1_555 1_555
C20 Al1 1_555 1_555
C4A C5A 1_555 1_555

#END
