
#######################################################################
#
#                 Cambridge Crystallographic Data Centre
#                                CCDC 
#
#######################################################################
#
# If this CIF has been generated from an entry in the Cambridge 
# Structural Database, then it will include bibliographic, chemical, 
# crystal, experimental, refinement or atomic coordinate data resulting 
# from the CCDC's data processing and validation procedures.
#
#######################################################################

data_SAMMEA
_symmetry_cell_setting           triclinic
_symmetry_space_group_name_H-M   'P -1'
_symmetry_Int_Tables_number      2
_space_group_name_Hall           '-P 1'
loop_
_symmetry_equiv_pos_site_id
_symmetry_equiv_pos_as_xyz
1 x,y,z
2 -x,-y,-z
_cell_length_a                   8.6554(3)
_cell_length_b                   16.9210(6)
_cell_length_c                   20.0587(8)
_cell_angle_alpha                104.959(2)
_cell_angle_beta                 102.301(2)
_cell_angle_gamma                91.736(2)
_cell_volume                     2761.7
loop_
_atom_site_label
_atom_site_type_symbol
_atom_site_fract_x
_atom_site_fract_y
_atom_site_fract_z
Cu1 Cu 0.58786(7) 0.34899(4) 0.00684(3)
Cu2 Cu 0.08170(7) 0.16082(4) 0.01420(3)
O1 O 0.5186(4) 0.2667(2) 0.07936(18)
O2 O 0.3639(4) 0.30346(19) -0.04448(16)
O3 O 0.3045(4) 0.1827(2) 0.06795(16)
O4 O 0.1546(4) 0.22373(19) -0.04464(15)
O5 O 0.8117(4) 0.36837(19) 0.06352(15)
O6 O 0.6653(4) 0.25090(19) -0.04871(15)
O7 O 1.0109(4) 0.2905(2) 0.08472(16)
O8 O 0.8581(4) 0.16963(19) -0.03295(15)
O9 O 0.5104(4) 0.44456(19) 0.06385(15)
O10 O 0.4221(4) 0.56757(19) 0.06392(16)
O11 O 0.0199(4) 0.09131(18) 0.06939(14)
O12 O -0.0626(4) -0.03670(19) 0.06483(15)
C31 C 0.3838(7) 0.2344(3) 0.0491(2)
C32 C 0.2948(6) 0.2564(3) -0.0189(2)
C33 C 0.8837(6) 0.3043(3) 0.0509(2)
C34 C 0.7961(6) 0.2358(3) -0.0156(2)
C35 C 0.4813(6) 0.5044(3) 0.0375(2)
C36 C -0.0132(6) 0.0148(3) 0.0384(2)
Cu1A Cu 0.41214(7) 0.65101(4) -0.00684(3)
Cu1_2 Cu -0.41214(7) 0.34899(4) 0.00684(3)
Cu2_2 Cu 1.08170(7) 0.16082(4) 0.01420(3)
Cu2A Cu -0.08170(7) -0.16082(4) -0.01420(3)
Cu2A_2 Cu 0.91830(7) 0.83918(4) -0.01420(3)
O1A O 0.4814(4) 0.7333(2) -0.07936(18)
O2A O 0.6361(4) 0.69654(19) 0.04448(16)
O3A O 0.6955(4) 0.8173(2) -0.06795(16)
O3_2 O 1.3045(4) 0.1827(2) 0.06795(16)
O4A O 0.8454(4) 0.77627(19) 0.04464(15)
O4_2 O 1.1546(4) 0.22373(19) -0.04464(15)
O5_2 O -0.1883(4) 0.36837(19) 0.06352(15)
O5A O 0.1883(4) 0.63163(19) -0.06352(15)
O6_2 O -0.3347(4) 0.25090(19) -0.04871(15)
O6A O 0.3347(4) 0.74910(19) 0.04871(15)
O7_2 O 0.0109(4) 0.2905(2) 0.08472(16)
O8_2 O -0.1419(4) 0.16963(19) -0.03295(15)
O9A O 0.4896(4) 0.55544(19) -0.06385(15)
O10A O 0.5779(4) 0.43243(19) -0.06392(16)
O11A O -0.0199(4) -0.09131(18) -0.06939(14)
O11_2 O 1.0199(4) 0.09131(18) 0.06939(14)
O12A O 0.0626(4) 0.03670(19) -0.06483(15)
O12A_2 O 1.0626(4) 0.03670(19) -0.06483(15)
C31A C 0.6162(7) 0.7656(3) -0.0491(2)
C32A C 0.7052(6) 0.7436(3) 0.0189(2)
C33_2 C -0.1163(6) 0.3043(3) 0.0509(2)
C34_2 C -0.2039(6) 0.2358(3) -0.0156(2)
C35A C 0.5187(6) 0.4956(3) -0.0375(2)
C36A C 0.0132(6) -0.0148(3) -0.0384(2)
S1 S 0.27528(16) -0.12332(7) 0.43997(6)
S2 S 0.11208(15) 0.01367(7) 0.40177(6)
S3 S 0.37284(15) -0.01678(7) 0.60353(6)
S4 S 0.21393(15) 0.12132(7) 0.56539(6)
S5 S 0.21710(16) -0.23141(7) 0.29628(6)
S6 S 0.03358(15) -0.06533(7) 0.24691(6)
S7 S 0.45956(15) 0.06174(7) 0.75752(6)
S8 S 0.27923(16) 0.23007(7) 0.70951(6)
C1 C 0.2206(5) -0.0243(3) 0.4683(2)
C2 C 0.2629(5) 0.0215(3) 0.5372(2)
C3 C 0.1911(5) -0.1359(3) 0.3499(2)
C4 C 0.1194(5) -0.0722(3) 0.3325(2)
C5 C 0.3684(6) 0.0700(3) 0.6730(2)
C6 C 0.2990(5) 0.1336(3) 0.6549(2)
C7 C 0.0941(6) -0.2290(3) 0.2115(2)
H1 H 0.1199 -0.2736 0.1737
H2 H -0.0187 -0.2399 0.2119
C8 C 0.1150(6) -0.1489(3) 0.1940(2)
H3 H 0.0639 -0.1562 0.1435
H4 H 0.2298 -0.1342 0.2004
C9 C 0.3948(6) 0.1504(3) 0.8132(2)
H5 H 0.2810 0.1393 0.8118
H6 H 0.4549 0.1588 0.8627
C10 C 0.4170(6) 0.2287(3) 0.7910(2)
H7 H 0.5269 0.2350 0.7849
H8 H 0.4035 0.2763 0.8295
S9 S 1.05987(15) 0.35119(7) 0.39462(6)
S10 S 0.90822(15) 0.21822(7) 0.43402(6)
S11 S 1.15205(15) 0.45708(7) 0.55754(6)
S12 S 0.99703(15) 0.32597(7) 0.59820(6)
S13 S 1.00925(15) 0.26149(7) 0.24220(6)
S14 S 0.83663(15) 0.10274(7) 0.29334(6)
S15 S 1.27234(16) 0.56179(7) 0.70118(6)
S16 S 1.08639(15) 0.40536(7) 0.75191(6)
C11 C 1.0131(5) 0.3148(3) 0.4618(2)
C12 C 1.0511(5) 0.3601(3) 0.5310(2)
C13 C 0.9898(5) 0.2606(3) 0.3269(2)
C14 C 0.9221(5) 0.1995(3) 0.3456(2)
C15 C 1.1673(6) 0.4697(3) 0.6479(2)
C16 C 1.0959(6) 0.4098(3) 0.6670(2)
C17 C 0.8477(5) 0.1861(3) 0.1891(2)
H9 H 0.7460 0.2072 0.1974
H10 H 0.8463 0.1785 0.1384
C18 C 0.8598(6) 0.1040(3) 0.2054(2)
H11 H 0.9646 0.0850 0.2000
H12 H 0.7777 0.0639 0.1698
C19 C 1.2217(7) 0.5659(3) 0.7851(2)
H13 H 1.2964 0.6078 0.8228
H14 H 1.1140 0.5847 0.7832
C20 C 1.2246(7) 0.4888(3) 0.8052(3)
H15 H 1.2084 0.5007 0.8541
H16 H 1.3324 0.4704 0.8067
S17 S 0.54964(15) 0.34817(7) 0.40392(6)
S18 S 0.39977(15) 0.21723(7) 0.44612(6)
S19 S 0.64003(15) 0.45803(7) 0.56731(6)
S20 S 0.49368(15) 0.32593(7) 0.60947(6)
S21 S 0.48263(15) 0.25936(7) 0.25098(6)
S22 S 0.30179(15) 0.10435(7) 0.30423(6)
S23 S 0.75560(16) 0.56529(7) 0.71088(6)
S24 S 0.59534(16) 0.40398(7) 0.76373(6)
C21 C 0.5015(5) 0.3139(3) 0.4720(2)
C22 C 0.5417(5) 0.3610(3) 0.5413(2)
C23 C 0.4675(5) 0.2596(3) 0.3370(2)
C24 C 0.3966(5) 0.1995(3) 0.3560(2)
C25 C 0.6579(6) 0.4714(3) 0.6580(2)
C26 C 0.5948(5) 0.4103(3) 0.6777(2)
C27 C 0.4521(6) 0.1496(3) 0.2095(2)
H17 H 0.4523 0.1395 0.1587
H18 H 0.5419 0.1230 0.2316
C28 C 0.3002(6) 0.1108(3) 0.2159(2)
H19 H 0.2791 0.0548 0.1832
H20 H 0.2123 0.1431 0.2009
C29 C 0.7092(6) 0.5686(3) 0.7955(2)
H21 H 0.7763 0.6143 0.8325
H22 H 0.5969 0.5801 0.7930
C30 C 0.7347(6) 0.4904(3) 0.8167(2)
H23 H 0.7282 0.5003 0.8668
H24 H 0.8434 0.4758 0.8137
O13 O 0.3648(6) -0.0453(3) 0.1047(2)
C37 C 0.4397(10) -0.0342(5) 0.0521(4)
O14 O -0.1333(8) -0.3905(4) 0.1020(3)
C38 C -0.0583(11) -0.4199(5) 0.0495(4)
O15? O 0.092(3) -0.3811(11) 0.0815(9)
loop_
_geom_bond_atom_site_label_1
_geom_bond_atom_site_label_2
_geom_bond_site_symmetry_1
_geom_bond_site_symmetry_2
Cu1 O1 1_555 1_555
Cu2 O3 1_555 1_555
S1 C1 1_555 1_555
S2 C1 1_555 1_555
S3 C2 1_555 1_555
S4 C2 1_555 1_555
S5 C3 1_555 1_555
S6 C4 1_555 1_555
S7 C5 1_555 1_555
S8 C6 1_555 1_555
S9 C11 1_555 1_555
S10 C11 1_555 1_555
S11 C12 1_555 1_555
S12 C12 1_555 1_555
S13 C13 1_555 1_555
S14 C14 1_555 1_555
S15 C15 1_555 1_555
S16 C16 1_555 1_555
S17 C21 1_555 1_555
S18 C21 1_555 1_555
S19 C22 1_555 1_555
S20 C22 1_555 1_555
S21 C23 1_555 1_555
S22 C24 1_555 1_555
S23 C25 1_555 1_555
S24 C26 1_555 1_555
O1 C31 1_555 1_555
O2 Cu1 1_555 1_555
O3 C31 1_555 1_555
O4 Cu2 1_555 1_555
O5 Cu1 1_555 1_555
O6 Cu1 1_555 1_555
O7 C33 1_555 1_555
O8 C34 1_555 1_555
O9 Cu1 1_555 1_555
O10 C35 1_555 1_555
O11 Cu2 1_555 1_555
O12 C36 1_555 1_555
C1 C2 1_555 1_555
C3 S1 1_555 1_555
C4 S2 1_555 1_555
C5 S3 1_555 1_555
C6 S4 1_555 1_555
C7 S5 1_555 1_555
H1 C7 1_555 1_555
H2 C7 1_555 1_555
C8 S6 1_555 1_555
H3 C8 1_555 1_555
H4 C8 1_555 1_555
C9 S7 1_555 1_555
H5 C9 1_555 1_555
H6 C9 1_555 1_555
C10 S8 1_555 1_555
H7 C10 1_555 1_555
H8 C10 1_555 1_555
C11 C12 1_555 1_555
C13 S9 1_555 1_555
C14 S10 1_555 1_555
C15 S11 1_555 1_555
C16 S12 1_555 1_555
C17 S13 1_555 1_555
H9 C17 1_555 1_555
H10 C17 1_555 1_555
C18 S14 1_555 1_555
H11 C18 1_555 1_555
H12 C18 1_555 1_555
C19 S15 1_555 1_555
H13 C19 1_555 1_555
H14 C19 1_555 1_555
C20 S16 1_555 1_555
H15 C20 1_555 1_555
H16 C20 1_555 1_555
C21 C22 1_555 1_555
C23 S17 1_555 1_555
C24 S18 1_555 1_555
C25 S19 1_555 1_555
C26 S20 1_555 1_555
C27 S21 1_555 1_555
H17 C27 1_555 1_555
H18 C27 1_555 1_555
C28 S22 1_555 1_555
H19 C28 1_555 1_555
H20 C28 1_555 1_555
C29 S23 1_555 1_555
H21 C29 1_555 1_555
H22 C29 1_555 1_555
C30 S24 1_555 1_555
H23 C30 1_555 1_555
H24 C30 1_555 1_555
C31 C32 1_555 1_555
C32 O2 1_555 1_555
C33 O5 1_555 1_555
C34 O6 1_555 1_555
C35 O9 1_555 1_555
C36 O11 1_555 1_555
O13 C37 1_555 1_555
O14 C38 1_555 1_555
Cu1A O10 1_555 1_555
Cu1_2 O5_2 1_555 1_555
Cu2_2 O7 1_555 1_555
Cu2A O12 1_555 1_555
Cu2A_2 O3A 1_555 1_555
O1A Cu1A 1_555 1_555
O2A Cu1A 1_555 1_555
O3A C31A 1_555 1_555
O3_2 Cu2_2 1_555 1_555
O4A Cu2A_2 1_555 1_555
O4_2 Cu2_2 1_555 1_555
O5_2 C33_2 1_555 1_555
O5A Cu1A 1_555 1_555
O6_2 Cu1_2 1_555 1_555
O6A Cu1A 1_555 1_555
O7_2 Cu2 1_555 1_555
O8_2 Cu2 1_555 1_555
O9A Cu1A 1_555 1_555
O10A Cu1 1_555 1_555
O11A Cu2A 1_555 1_555
O11_2 Cu2_2 1_555 1_555
O12A Cu2 1_555 1_555
O12A_2 Cu2_2 1_555 1_555
C31A O1A 1_555 1_555
C32A O2A 1_555 1_555
C33_2 O7_2 1_555 1_555
C34_2 O6_2 1_555 1_555
C35A C35 1_555 1_555
C36A C36 1_555 1_555
O4 C32 1_555 1_555
O8 Cu2_2 1_555 1_555
C3 C4 1_555 1_555
C5 C6 1_555 1_555
C7 C8 1_555 1_555
C9 C10 1_555 1_555
C13 C14 1_555 1_555
C15 C16 1_555 1_555
C17 C18 1_555 1_555
C19 C20 1_555 1_555
C23 C24 1_555 1_555
C25 C26 1_555 1_555
C27 C28 1_555 1_555
C29 C30 1_555 1_555
C33 C34 1_555 1_555
O4A C32A 1_555 1_555
O8_2 C34_2 1_555 1_555
O9A C35A 1_555 1_555
O10A C35A 1_555 1_555
O11A C36A 1_555 1_555
O12A C36A 1_555 1_555
C31A C32A 1_555 1_555
C33_2 C34_2 1_555 1_555

#END
