
#######################################################################
#
#                 Cambridge Crystallographic Data Centre
#                                CCDC 
#
#######################################################################
#
# If this CIF has been generated from an entry in the Cambridge 
# Structural Database, then it will include bibliographic, chemical, 
# crystal, experimental, refinement or atomic coordinate data resulting 
# from the CCDC's data processing and validation procedures.
#
#######################################################################

data_SAMNAW
_symmetry_cell_setting           monoclinic
_symmetry_space_group_name_H-M   'P 2/c'
_symmetry_Int_Tables_number      13
_space_group_name_Hall           '-P 2yc'
loop_
_symmetry_equiv_pos_site_id
_symmetry_equiv_pos_as_xyz
1 x,y,z
2 x,-y,1/2+z
3 -x,-y,-z
4 -x,y,1/2-z
_cell_length_a                   15.846(3)
_cell_length_b                   11.452(2)
_cell_length_c                   23.008(5)
_cell_angle_alpha                90
_cell_angle_beta                 92.77(3)
_cell_angle_gamma                90
_cell_volume                     4170.35
loop_
_atom_site_label
_atom_site_type_symbol
_atom_site_fract_x
_atom_site_fract_y
_atom_site_fract_z
Co1 Co 0.0000 0.0000 0.0000
P1 P 0.22234(13) 0.02506(17) 0.00017(8)
O1 O 0.1305(3) 0.0058(4) 0.00640(19)
O2 O 0.2654(4) 0.0560(4) 0.0626(2)
O3 O 0.2554(4) -0.1002(5) -0.0125(2)
O4 O 0.2470(3) 0.1114(4) -0.0440(2)
N1 N 0.0012(4) -0.0098(5) -0.0953(2)
N2 N 0.0043(4) -0.1902(4) 0.0022(2)
C1 C 0.2984(6) 0.1684(7) 0.0850(4)
C2 C 0.3805(6) 0.1939(9) 0.0545(6)
H1 H 0.4198 0.1321 0.0591
H2 H 0.3650 0.2036 0.0148
H3 H 0.4059 0.2629 0.0692
C3 C 0.3152(8) 0.1474(9) 0.1492(4)
H4 H 0.3541 0.0850 0.1529
H5 H 0.3387 0.2131 0.1686
H6 H 0.2636 0.1266 0.1658
C4 C 0.2335(6) 0.2654(8) 0.0744(4)
H7 H 0.2248 0.2820 0.0345
H8 H 0.1810 0.2449 0.0899
H9 H 0.2559 0.3316 0.0939
C5 C 0.3427(6) -0.1400(8) -0.0222(4)
C6 C 0.3307(9) -0.2641(10) -0.0462(6)
H10 H 0.3013 -0.3058 -0.0182
H11 H 0.2955 -0.2562 -0.0803
H12 H 0.3809 -0.3047 -0.0547
C7 C 0.3860(8) -0.0581(15) -0.0638(6)
H13 H 0.3985 0.0150 -0.0470
H14 H 0.4371 -0.0950 -0.0733
H15 H 0.3507 -0.0481 -0.0977
C8 C 0.3939(6) -0.1490(9) 0.0348(4)
H16 H 0.3634 -0.1950 0.0606
H17 H 0.4439 -0.1885 0.0250
H18 H 0.4088 -0.0777 0.0528
C9 C -0.0687(5) -0.0357(7) -0.1275(3)
H19 H -0.1170 -0.0524 -0.1087
C10 C -0.0724(5) -0.0406(8) -0.1869(3)
H20 H -0.1221 -0.0612 -0.2065
C11 C 0.0003(4) -0.0185(5) -0.2177(3)
C12 C 0.0731(5) 0.0060(7) -0.1854(3)
H21 H 0.1227 0.0217 -0.2031
C13 C 0.0702(5) 0.0105(7) -0.1247(3)
H22 H 0.1193 0.0298 -0.1040
C14 C 0.0616(5) -0.2517(7) -0.0256(3)
H23 H 0.1028 -0.2124 -0.0443
C15 C 0.0621(5) -0.3706(7) -0.0283(3)
H24 H 0.1025 -0.4082 -0.0484
C16 C 0.0007(4) -0.4337(6) 0.0004(3)
C17 C -0.0573(5) -0.3701(7) 0.0303(4)
H25 H -0.0985 -0.4071 0.0501
C18 C -0.0537(5) -0.2505(7) 0.0294(4)
H26 H -0.0927 -0.2108 0.0500
C11C C -0.0003(4) -0.0185(5) -0.2823(3)
C10C C 0.0724(5) -0.0406(8) -0.3131(3)
C9C C 0.0687(5) -0.0357(7) -0.3725(3)
N1C N -0.0012(4) -0.0098(5) -0.4047(2)
C13C C -0.0702(5) 0.0105(7) -0.3753(3)
C12C C -0.0731(5) 0.0060(7) -0.3146(3)
H21C H -0.1227 0.0217 -0.2969
H22C H -0.1193 0.0298 -0.3960
H19C H 0.1170 -0.0524 -0.3913
H20C H 0.1221 -0.0612 -0.2935
C16B C -0.0007(4) -0.5663(6) -0.0004(3)
C15B C -0.0621(5) -0.6294(7) 0.0283(3)
C14B C -0.0616(5) -0.7483(7) 0.0256(3)
N2B N -0.0043(4) -0.8098(4) -0.0022(2)
C18B C 0.0537(5) -0.7495(7) -0.0294(4)
C17B C 0.0573(5) -0.6299(7) -0.0303(4)
H25B H 0.0985 -0.5929 -0.0501
H26B H 0.0927 -0.7892 -0.0500
H23B H -0.1028 -0.7876 0.0443
H24B H -0.1025 -0.5918 0.0484
P1B P -0.22234(13) -0.02506(17) -0.00017(8)
O1B O -0.1305(3) -0.0058(4) -0.00640(19)
O2B O -0.2654(4) -0.0560(4) -0.0626(2)
O3B O -0.2554(4) 0.1002(5) 0.0125(2)
O4B O -0.2470(3) -0.1114(4) 0.0440(2)
C1B C -0.2984(6) -0.1684(7) -0.0850(4)
C2B C -0.3805(6) -0.1939(9) -0.0545(6)
H1B H -0.4198 -0.1321 -0.0591
H2B H -0.3650 -0.2036 -0.0148
H3B H -0.4059 -0.2629 -0.0692
C3B C -0.3152(8) -0.1474(9) -0.1492(4)
H4B H -0.3541 -0.0850 -0.1529
H5B H -0.3387 -0.2131 -0.1686
H6B H -0.2636 -0.1266 -0.1658
C4B C -0.2335(6) -0.2654(8) -0.0744(4)
H7B H -0.2248 -0.2820 -0.0345
H8B H -0.1810 -0.2449 -0.0899
H9B H -0.2559 -0.3316 -0.0939
C5B C -0.3427(6) 0.1400(8) 0.0222(4)
C6B C -0.3307(9) 0.2641(10) 0.0462(6)
H10B H -0.3013 0.3058 0.0182
H11B H -0.2955 0.2562 0.0803
H12B H -0.3809 0.3047 0.0547
C7B C -0.3860(8) 0.0581(15) 0.0638(6)
H13B H -0.3985 -0.0150 0.0470
H14B H -0.4371 0.0950 0.0733
H15B H -0.3507 0.0481 0.0977
C8B C -0.3939(6) 0.1490(9) -0.0348(4)
H16B H -0.3634 0.1950 -0.0606
H17B H -0.4439 0.1885 -0.0250
H18B H -0.4088 0.0777 -0.0528
N1B N -0.0012(4) 0.0098(5) 0.0953(2)
N2B_2 N -0.0043(4) 0.1902(4) -0.0022(2)
Co1A Co 0.0000 0.0000 -0.5000
Co1_2 Co 0.0000 -1.0000 0.0000
Co2 Co 0.5000 0.42905(12) 0.7500
P2 P 0.27728(13) 0.42505(16) 0.75443(8)
O5 O 0.3709(3) 0.4322(4) 0.7466(2)
O6 O 0.2290(4) 0.4135(5) 0.6928(2)
O7 O 0.2544(4) 0.5580(5) 0.7694(2)
O8 O 0.2493(4) 0.3398(5) 0.7970(2)
N3 N 0.5029(4) 0.4385(5) 0.8478(3)
N4 N 0.5000 0.6117(8) 0.7500
N5 N 0.5000 1.2421(8) 0.7500
C19 C 0.1986(6) 0.3031(8) 0.6645(4)
C20 C 0.1131(7) 0.2736(10) 0.6885(6)
H27 H 0.0725 0.3337 0.6830
H28 H 0.0915 0.2048 0.6710
H29 H 0.1240 0.2610 0.7285
C21 C 0.1889(8) 0.3355(10) 0.6004(4)
H30 H 0.1468 0.3939 0.5970
H31 H 0.2407 0.3643 0.5870
H32 H 0.1712 0.2705 0.5780
C22 C 0.2625(7) 0.2053(8) 0.6737(4)
H33 H 0.3128 0.2300 0.6565
H34 H 0.2741 0.1914 0.7135
H35 H 0.2426 0.1363 0.6555
C23 C 0.1673(6) 0.6048(8) 0.7785(4)
C24 C 0.1090(8) 0.5145(12) 0.8065(6)
H36 H 0.0993 0.4479 0.7833
H37 H 0.1364 0.4926 0.8422
H38 H 0.0564 0.5504 0.8135
C25 C 0.1284(6) 0.6353(9) 0.7189(4)
H39 H 0.1155 0.5668 0.6977
H40 H 0.0777 0.6767 0.7246
H41 H 0.1657 0.6818 0.6979
C26 C 0.1832(10) 0.7127(15) 0.8142(8)
H42 H 0.2094 0.6957 0.8508
H43 H 0.2205 0.7581 0.7926
H44 H 0.1322 0.7543 0.8190
C27 C 0.5720(5) 0.4740(7) 0.8784(3)
H45 H 0.6219 0.4799 0.8597
C28 C 0.5729(5) 0.4965(6) 0.9373(3)
H46 H 0.6235 0.5145 0.9565
C29 C 0.5002(5) 0.4871(5) 0.9684(3)
C30 C 0.4295(5) 0.4474(7) 0.9365(3)
H47 H 0.3792 0.4394 0.9544
C31 C 0.4327(5) 0.4235(7) 0.8774(3)
H48 H 0.3836 0.4008 0.8577
C32 C 0.4434(5) 0.6786(7) 0.7790(3)
H49 H 0.3998 0.6391 0.7950
C33 C 0.4423(5) 0.7996(7) 0.7801(3)
H50 H 0.3986 0.8371 0.7970
C34 C 0.5000 0.8680(10) 0.7500
C35 C 0.5000 0.9934(10) 0.7500
C36 C 0.5628(6) 1.0600(7) 0.7236(3)
H51 H 0.6022 1.0227 0.7024
C37 C 0.5597(5) 1.1793(7) 0.7243(3)
H52 H 0.5986 1.2189 0.7037
C29B C 0.4998(5) 0.5129(5) 1.0316(3)
C28B C 0.4271(5) 0.5035(6) 1.0627(3)
C27B C 0.4280(5) 0.5260(7) 1.1216(3)
N3B N 0.4971(4) 0.5615(5) 1.1522(3)
C31B C 0.5673(5) 0.5765(7) 1.1226(3)
C30B C 0.5705(5) 0.5526(7) 1.0635(3)
H47B H 0.6208 0.5606 1.0456
H48B H 0.6164 0.5992 1.1423
H45B H 0.3781 0.5201 1.1403
H46B H 0.3765 0.4855 1.0435
C33C C 0.5577(5) 0.7996(7) 0.7199(3)
C32C C 0.5566(5) 0.6786(7) 0.7210(3)
H49C H 0.6002 0.6391 0.7050
H50C H 0.6014 0.8371 0.7030
C37C C 0.4403(5) 1.1793(7) 0.7757(3)
C36C C 0.4372(6) 1.0600(7) 0.7764(3)
H51C H 0.3978 1.0227 0.7976
H52C H 0.4014 1.2189 0.7963
P2C P 0.72272(13) 0.42505(16) 0.74557(8)
O5C O 0.6291(3) 0.4322(4) 0.7534(2)
O6C O 0.7710(4) 0.4135(5) 0.8072(2)
O7C O 0.7456(4) 0.5580(5) 0.7306(2)
O8C O 0.7507(4) 0.3398(5) 0.7030(2)
C19C C 0.8014(6) 0.3031(8) 0.8355(4)
C20C C 0.8869(7) 0.2736(10) 0.8115(6)
H27C H 0.9275 0.3337 0.8170
H28C H 0.9085 0.2048 0.8290
H29C H 0.8760 0.2610 0.7715
C21C C 0.8111(8) 0.3355(10) 0.8996(4)
H30C H 0.8532 0.3939 0.9030
H31C H 0.7593 0.3643 0.9130
H32C H 0.8288 0.2705 0.9220
C22C C 0.7375(7) 0.2053(8) 0.8263(4)
H33C H 0.6872 0.2300 0.8435
H34C H 0.7259 0.1914 0.7865
H35C H 0.7574 0.1363 0.8445
C23C C 0.8327(6) 0.6048(8) 0.7215(4)
C24C C 0.8910(8) 0.5145(12) 0.6935(6)
H36C H 0.9007 0.4479 0.7167
H37C H 0.8636 0.4926 0.6578
H38C H 0.9436 0.5504 0.6865
C25C C 0.8716(6) 0.6353(9) 0.7811(4)
H39C H 0.8845 0.5668 0.8023
H40C H 0.9223 0.6767 0.7754
H41C H 0.8343 0.6818 0.8021
C26C C 0.8168(10) 0.7127(15) 0.6858(8)
H42C H 0.7906 0.6957 0.6492
H43C H 0.7795 0.7581 0.7074
H44C H 0.8678 0.7543 0.6810
N3C N 0.4971(4) 0.4385(5) 0.6522(3)
N5_2 N 0.5000 0.2421(8) 0.7500
Co2_2 Co 0.5000 1.42905(12) 0.7500
Co2A Co 0.5000 0.57095(12) 1.2500
O9 O 0.7608(4) 0.6485(5) 0.0812(2)
H53 H 0.7599 0.7145 0.0705
H54 H 0.7579 0.6525 0.1165
O10 O 0.2612(4) 0.8985(5) 0.3327(2)
H55 H 0.2435 0.8834 0.3617
H56 H 0.2545 0.8284 0.3137
loop_
_geom_bond_atom_site_label_1
_geom_bond_atom_site_label_2
_geom_bond_site_symmetry_1
_geom_bond_site_symmetry_2
Co1 O1 1_555 1_555
Co2 O5 1_555 1_555
P1 O1 1_555 1_555
P2 O5 1_555 1_555
O2 P1 1_555 1_555
O3 P1 1_555 1_555
O4 P1 1_555 1_555
O6 P2 1_555 1_555
O7 P2 1_555 1_555
O8 P2 1_555 1_555
N1 Co1 1_555 1_555
N2 Co1 1_555 1_555
N3 Co2 1_555 1_555
N4 Co2 1_555 1_555
N5 C37 1_555 1_555
C1 O2 1_555 1_555
C2 C1 1_555 1_555
H1 C2 1_555 1_555
H2 C2 1_555 1_555
H3 C2 1_555 1_555
C3 C1 1_555 1_555
H4 C3 1_555 1_555
H5 C3 1_555 1_555
H6 C3 1_555 1_555
C4 C1 1_555 1_555
H7 C4 1_555 1_555
H8 C4 1_555 1_555
H9 C4 1_555 1_555
C5 O3 1_555 1_555
C6 C5 1_555 1_555
H10 C6 1_555 1_555
H11 C6 1_555 1_555
H12 C6 1_555 1_555
C7 C5 1_555 1_555
H13 C7 1_555 1_555
H14 C7 1_555 1_555
H15 C7 1_555 1_555
C8 C5 1_555 1_555
H16 C8 1_555 1_555
H17 C8 1_555 1_555
H18 C8 1_555 1_555
C9 N1 1_555 1_555
H19 C9 1_555 1_555
C10 C9 1_555 1_555
H20 C10 1_555 1_555
C11 C10 1_555 1_555
C12 C11 1_555 1_555
H21 C12 1_555 1_555
C13 N1 1_555 1_555
H22 C13 1_555 1_555
C14 N2 1_555 1_555
H23 C14 1_555 1_555
C15 C14 1_555 1_555
H24 C15 1_555 1_555
C16 C15 1_555 1_555
C17 C16 1_555 1_555
H25 C17 1_555 1_555
C18 N2 1_555 1_555
H26 C18 1_555 1_555
C19 O6 1_555 1_555
C20 C19 1_555 1_555
H27 C20 1_555 1_555
H28 C20 1_555 1_555
H29 C20 1_555 1_555
C21 C19 1_555 1_555
H30 C21 1_555 1_555
H31 C21 1_555 1_555
H32 C21 1_555 1_555
C22 C19 1_555 1_555
H33 C22 1_555 1_555
H34 C22 1_555 1_555
H35 C22 1_555 1_555
C23 O7 1_555 1_555
C24 C23 1_555 1_555
H36 C24 1_555 1_555
H37 C24 1_555 1_555
H38 C24 1_555 1_555
C25 C23 1_555 1_555
H39 C25 1_555 1_555
H40 C25 1_555 1_555
H41 C25 1_555 1_555
C26 C23 1_555 1_555
H42 C26 1_555 1_555
H43 C26 1_555 1_555
H44 C26 1_555 1_555
C27 N3 1_555 1_555
H45 C27 1_555 1_555
C28 C27 1_555 1_555
H46 C28 1_555 1_555
C29 C28 1_555 1_555
C30 C29 1_555 1_555
H47 C30 1_555 1_555
C31 N3 1_555 1_555
H48 C31 1_555 1_555
C32 N4 1_555 1_555
H49 C32 1_555 1_555
C33 C32 1_555 1_555
H50 C33 1_555 1_555
C34 C33 1_555 1_555
C35 C34 1_555 1_555
C36 C35 1_555 1_555
H51 C36 1_555 1_555
C37 C36 1_555 1_555
H52 C37 1_555 1_555
O9 H53 1_555 1_555
H54 O9 1_555 1_555
O10 H55 1_555 1_555
H56 O10 1_555 1_555
C11C C11 1_555 1_555
C10C C11C 1_555 1_555
C9C C10C 1_555 1_555
N1C C9C 1_555 1_555
C13C N1C 1_555 1_555
C12C C11C 1_555 1_555
H21C C12C 1_555 1_555
H22C C13C 1_555 1_555
H19C C9C 1_555 1_555
H20C C10C 1_555 1_555
C16B C16 1_555 1_555
C15B C16B 1_555 1_555
C14B C15B 1_555 1_555
N2B C14B 1_555 1_555
C18B N2B 1_555 1_555
C17B C16B 1_555 1_555
H25B C17B 1_555 1_555
H26B C18B 1_555 1_555
H23B C14B 1_555 1_555
H24B C15B 1_555 1_555
C29B C29 1_555 1_555
C28B C29B 1_555 1_555
C27B C28B 1_555 1_555
N3B C27B 1_555 1_555
C31B N3B 1_555 1_555
C30B C29B 1_555 1_555
H47B C30B 1_555 1_555
H48B C31B 1_555 1_555
H45B C27B 1_555 1_555
H46B C28B 1_555 1_555
C33C C34 1_555 1_555
C32C N4 1_555 1_555
H49C C32C 1_555 1_555
H50C C33C 1_555 1_555
C37C N5 1_555 1_555
C36C C35 1_555 1_555
H51C C36C 1_555 1_555
H52C C37C 1_555 1_555
P1B O1B 1_555 1_555
O1B Co1 1_555 1_555
O2B P1B 1_555 1_555
O3B P1B 1_555 1_555
O4B P1B 1_555 1_555
C1B O2B 1_555 1_555
C2B C1B 1_555 1_555
H1B C2B 1_555 1_555
H2B C2B 1_555 1_555
H3B C2B 1_555 1_555
C3B C1B 1_555 1_555
H4B C3B 1_555 1_555
H5B C3B 1_555 1_555
H6B C3B 1_555 1_555
C4B C1B 1_555 1_555
H7B C4B 1_555 1_555
H8B C4B 1_555 1_555
H9B C4B 1_555 1_555
C5B O3B 1_555 1_555
C6B C5B 1_555 1_555
H10B C6B 1_555 1_555
H11B C6B 1_555 1_555
H12B C6B 1_555 1_555
C7B C5B 1_555 1_555
H13B C7B 1_555 1_555
H14B C7B 1_555 1_555
H15B C7B 1_555 1_555
C8B C5B 1_555 1_555
H16B C8B 1_555 1_555
H17B C8B 1_555 1_555
H18B C8B 1_555 1_555
P2C O5C 1_555 1_555
O5C Co2 1_555 1_555
O6C P2C 1_555 1_555
O7C P2C 1_555 1_555
O8C P2C 1_555 1_555
C19C O6C 1_555 1_555
C20C C19C 1_555 1_555
H27C C20C 1_555 1_555
H28C C20C 1_555 1_555
H29C C20C 1_555 1_555
C21C C19C 1_555 1_555
H30C C21C 1_555 1_555
H31C C21C 1_555 1_555
H32C C21C 1_555 1_555
C22C C19C 1_555 1_555
H33C C22C 1_555 1_555
H34C C22C 1_555 1_555
H35C C22C 1_555 1_555
C23C O7C 1_555 1_555
C24C C23C 1_555 1_555
H36C C24C 1_555 1_555
H37C C24C 1_555 1_555
H38C C24C 1_555 1_555
C25C C23C 1_555 1_555
H39C C25C 1_555 1_555
H40C C25C 1_555 1_555
H41C C25C 1_555 1_555
C26C C23C 1_555 1_555
H42C C26C 1_555 1_555
H43C C26C 1_555 1_555
H44C C26C 1_555 1_555
N1B Co1 1_555 1_555
N2B_2 Co1 1_555 1_555
N3C Co2 1_555 1_555
N5_2 Co2 1_555 1_555
Co2_2 N5 1_555 1_555
Co1A N1C 1_555 1_555
Co1_2 N2B 1_555 1_555
Co2A N3B 1_555 1_555
C12 C13 1_555 1_555
C17 C18 1_555 1_555
C30 C31 1_555 1_555
C13C C12C 1_555 1_555
C18B C17B 1_555 1_555
C31B C30B 1_555 1_555
C33C C32C 1_555 1_555
C37C C36C 1_555 1_555

#END
