
#######################################################################
#
#                 Cambridge Crystallographic Data Centre
#                                CCDC 
#
#######################################################################
#
# If this CIF has been generated from an entry in the Cambridge 
# Structural Database, then it will include bibliographic, chemical, 
# crystal, experimental, refinement or atomic coordinate data resulting 
# from the CCDC's data processing and validation procedures.
#
#######################################################################

data_SAMVIN
_symmetry_cell_setting           monoclinic
_symmetry_space_group_name_H-M   'P 21/c'
_symmetry_Int_Tables_number      14
_space_group_name_Hall           '-P 2ybc'
loop_
_symmetry_equiv_pos_site_id
_symmetry_equiv_pos_as_xyz
1 x,y,z
2 -x,1/2+y,1/2-z
3 -x,-y,-z
4 x,1/2-y,1/2+z
_cell_length_a                   14.6523(19)
_cell_length_b                   13.0180(17)
_cell_length_c                   11.8102(15)
_cell_angle_alpha                90
_cell_angle_beta                 103.795(2)
_cell_angle_gamma                90
_cell_volume                     2187.74
loop_
_atom_site_label
_atom_site_type_symbol
_atom_site_fract_x
_atom_site_fract_y
_atom_site_fract_z
Sm1 Sm 0.152570(12) 0.143066(13) 0.082286(14)
O1 O 0.5179(2) 0.1173(2) -0.1658(2)
H1 H 0.4616 0.1141 -0.1680
O2 O 0.25541(18) 0.1115(2) -0.0458(2)
O3 O 0.6507(2) 0.1214(3) -0.0301(3)
O4 O 0.34881(19) 0.1098(2) -0.1684(2)
C1 C 0.4175(3) 0.1214(3) 0.0327(3)
C2 C 0.5655(3) 0.1206(3) -0.0578(4)
C3 C 0.3340(3) 0.1141(3) -0.0662(3)
C4 C 0.5114(3) 0.1219(3) 0.0328(3)
C5 C 0.4751(3) 0.1341(3) 0.5227(4)
H2 H 0.4308 0.1438 0.5664
C6 C 0.4494(3) 0.1383(3) 0.4020(4)
H3 H 0.3872 0.1497 0.3628
C7 C 0.5185(3) 0.1251(3) 0.3410(3)
C8 C 0.4935(3) 0.1268(3) 0.2129(3)
N1 N 0.4077(2) 0.1248(3) 0.1459(3)
N2 N 0.5584(2) 0.1260(2) 0.1465(3)
H4 H 0.6184 0.1278 0.1724
O5 O 0.17670(16) 0.19111(18) 0.28516(19)
C9 C 0.0030(2) 0.3957(3) 0.2429(3)
O6 O 0.10903(17) 0.24422(18) 0.42390(18)
O7 O 0.06528(17) 0.45972(19) 0.4327(2)
N3 N 0.0243(2) 0.2689(2) 0.1214(2)
O8 O 0.24386(19) 0.3047(2) 0.1206(2)
H5 H 0.2852 0.3413 0.1001
H6 H 0.2463 0.3178 0.1918
O9 O -0.05870(17) 0.53679(19) 0.3191(2)
C10 C 0.0036(2) 0.4693(3) 0.3399(3)
N4 N 0.6349(3) 0.1017(3) 0.5196(3)
C11 C 0.5681(4) 0.1152(3) 0.5765(4)
H7 H 0.5848 0.1118 0.6575
C12 C 0.6091(3) 0.1068(4) 0.4029(4)
H8 H 0.6551 0.0974 0.3615
O11 O 0.24609(18) -0.0013(2) 0.1731(2)
H11 H 0.3011 -0.0218 0.1729
H12 H 0.2169 -0.0514 0.1944
N5 N -0.0546(2) 0.4107(2) 0.1344(2)
H13 H -0.0930 0.4611 0.1142
C13 C 0.1172(2) 0.2449(3) 0.3207(3)
C14 C 0.0511(2) 0.3069(3) 0.2337(3)
C15 C -0.0970(2) 0.3188(3) -0.0554(3)
C16 C -0.0411(2) 0.3332(3) 0.0647(3)
N6 N -0.1793(2) 0.1992(3) -0.1983(3)
C17 C -0.1219(3) 0.3988(3) -0.1346(3)
H14 H -0.1046 0.4661 -0.1132
C18 C -0.1998(3) 0.2758(4) -0.2737(3)
H15 H -0.2338 0.2613 -0.3491
C19 C -0.1281(3) 0.2217(3) -0.0918(3)
H16 H -0.1123 0.1682 -0.0385
C20 C -0.1734(3) 0.3759(3) -0.2463(3)
H17 H -0.1897 0.4275 -0.3020
Sm1C Sm 0.152570(12) 0.356934(13) 0.582286(14)
Sm1A Sm -0.152570(12) 0.643066(13) 0.417714(14)
O6C O 0.10903(17) 0.25578(18) -0.07610(18)
O7C O 0.06528(17) 0.04028(19) -0.0673(2)
O9A O 0.05870(17) 0.03679(19) 0.1809(2)
O10 O 0.21212(18) 0.0365(2) 0.4486(2)
H9 H 0.2581 -0.0036 0.4483
H10 H 0.2040 0.0767 0.3900
loop_
_geom_bond_atom_site_label_1
_geom_bond_atom_site_label_2
_geom_bond_site_symmetry_1
_geom_bond_site_symmetry_2
Sm1 O2 1_555 1_555
O1 H1 1_555 1_555
O2 C3 1_555 1_555
O3 C2 1_555 1_555
O4 C3 1_555 1_555
C1 C3 1_555 1_555
C2 O1 1_555 1_555
C4 C1 1_555 1_555
C5 H2 1_555 1_555
C6 C5 1_555 1_555
H3 C6 1_555 1_555
C7 C6 1_555 1_555
C8 C7 1_555 1_555
N1 C1 1_555 1_555
N2 C4 1_555 1_555
H4 N2 1_555 1_555
O5 Sm1 1_555 1_555
C9 C10 1_555 1_555
O6 C13 1_555 1_555
O7 C10 1_555 1_555
N3 Sm1 1_555 1_555
O8 Sm1 1_555 1_555
H5 O8 1_555 1_555
H6 O8 1_555 1_555
O9 C10 1_555 1_555
N4 C11 1_555 1_555
C11 C5 1_555 1_555
H7 C11 1_555 1_555
C12 C7 1_555 1_555
H8 C12 1_555 1_555
O10 H9 1_555 1_555
H10 O10 1_555 1_555
O11 Sm1 1_555 1_555
H11 O11 1_555 1_555
H12 O11 1_555 1_555
N5 C9 1_555 1_555
H13 N5 1_555 1_555
C13 O5 1_555 1_555
C14 C9 1_555 1_555
C15 C16 1_555 1_555
C16 N3 1_555 1_555
N6 C18 1_555 1_555
C17 C15 1_555 1_555
H14 C17 1_555 1_555
C18 H15 1_555 1_555
C19 C15 1_555 1_555
H16 C19 1_555 1_555
C20 C17 1_555 1_555
H17 C20 1_555 1_555
Sm1C O6 1_555 1_555
Sm1A O9 1_555 1_555
O6C Sm1 1_555 1_555
O7C Sm1 1_555 1_555
O9A Sm1 1_555 1_555
C2 C4 1_555 1_555
C8 N1 1_555 1_555
C8 N2 1_555 1_555
O7 Sm1C 1_555 1_555
N3 C14 1_555 1_555
N4 C12 1_555 1_555
N5 C16 1_555 1_555
C13 C14 1_555 1_555
N6 C19 1_555 1_555
C18 C20 1_555 1_555

#END
