
#######################################################################
#
#                 Cambridge Crystallographic Data Centre
#                                CCDC 
#
#######################################################################
#
# If this CIF has been generated from an entry in the Cambridge 
# Structural Database, then it will include bibliographic, chemical, 
# crystal, experimental, refinement or atomic coordinate data resulting 
# from the CCDC's data processing and validation procedures.
#
#######################################################################

data_SAMVEJ
_symmetry_cell_setting           monoclinic
_symmetry_space_group_name_H-M   'P 21/c'
_symmetry_Int_Tables_number      14
_space_group_name_Hall           '-P 2ybc'
loop_
_symmetry_equiv_pos_site_id
_symmetry_equiv_pos_as_xyz
1 x,y,z
2 -x,1/2+y,1/2-z
3 -x,-y,-z
4 x,1/2-y,1/2+z
_cell_length_a                   14.588(2)
_cell_length_b                   13.057(2)
_cell_length_c                   11.8612(19)
_cell_angle_alpha                90
_cell_angle_beta                 104.100(2)
_cell_angle_gamma                90
_cell_volume                     2191.2
loop_
_atom_site_label
_atom_site_type_symbol
_atom_site_fract_x
_atom_site_fract_y
_atom_site_fract_z
Nd1 Nd 0.655373(16) 0.142329(17) 0.58332(2)
O1 O 0.67802(19) 0.1917(2) 0.7866(2)
O2 O 0.5645(2) 0.4593(2) 0.9320(3)
O3 O 0.6093(2) 0.2442(2) 0.9235(2)
O4 O 1.0205(2) 0.1155(3) 0.3360(3)
H1 H 0.9637 0.1147 0.3323
O5 O 0.4397(2) 0.5355(2) 0.8174(2)
O6 O 0.7462(2) 0.3066(2) 0.6215(3)
H2 H 0.7327 0.3530 0.5688
H3 H 0.7669 0.3371 0.6872
N1 N 0.5248(2) 0.2691(3) 0.6220(3)
O7 O 0.7555(2) 0.1104(2) 0.4494(3)
O8 O 1.1534(2) 0.1214(3) 0.4741(3)
O9 O 0.7480(2) -0.0060(3) 0.6745(3)
H4 H 0.7370 -0.0642 0.7036
H5 H 0.7916 -0.0163 0.6383
O10 O 0.8513(2) 0.1084(3) 0.3306(3)
C1 C 0.5026(3) 0.4686(3) 0.8381(4)
N2 N 0.4456(3) 0.4107(3) 0.6343(3)
C2 C 0.5031(3) 0.3949(3) 0.7425(4)
C3 C 0.9473(4) 0.1394(3) 0.8987(4)
H6 H 0.8849 0.1510 0.8590
C4 C 0.4591(3) 0.3333(3) 0.5650(4)
C5 C 0.9180(3) 0.1220(3) 0.5324(4)
C6 C 0.9719(4) 0.1349(3) 1.0190(5)
H7 H 0.9268 0.1449 1.0616
C7 C 0.8353(3) 0.1130(4) 0.4313(4)
C8 C 1.0159(3) 0.1264(3) 0.8387(4)
N3 N 0.3211(3) 0.2009(3) 0.3008(4)
C9 C 0.3274(3) 0.3771(4) 0.2550(4)
H8 H 0.3111 0.4288 0.1998
C10 C 1.0123(3) 0.1228(3) 0.5329(4)
C11 C 0.9926(3) 0.1279(3) 0.7117(4)
C12 C 0.4039(3) 0.3194(3) 0.4454(4)
C13 C 0.3726(3) 0.2225(4) 0.4080(4)
H9 H 0.3882 0.1688 0.4607
C14 C 1.0676(3) 0.1201(3) 0.4452(4)
C15 C 1.0651(4) 0.1154(4) 1.0741(5)
H10 H 1.0815 0.1116 1.1548
C16 C 0.3009(3) 0.2777(4) 0.2270(4)
H11 H 0.2666 0.2638 0.1516
C17 C 0.3788(3) 0.3993(4) 0.3665(4)
H12 H 0.3963 0.4664 0.3882
N4 N 1.1324(3) 0.1018(3) 1.0181(4)
N5 N 1.0580(3) 0.1262(3) 0.6472(4)
N6 N 0.9063(3) 0.1260(3) 0.6438(3)
C18 C 0.6193(3) 0.2444(3) 0.8226(3)
C19 C 0.5510(3) 0.3066(3) 0.7337(3)
C20 C 1.1073(4) 0.1067(4) 0.9020(4)
H13 H 1.1537 0.0963 0.8616
H16 H 0.399(3) 0.458(3) 0.614(4)
H17 H 1.116(4) 0.127(3) 0.672(4)
Nd1C Nd 0.655373(16) 0.357671(17) 1.08332(2)
Nd1A Nd 0.344627(16) 0.642329(17) 0.91668(2)
O2C O 0.5645(2) 0.0407(2) 0.4320(3)
O3C O 0.6093(2) 0.2558(2) 0.4235(2)
O5A O 0.5603(2) 0.0355(2) 0.6826(2)
O11 O 0.7127(2) 0.0354(2) 0.9483(3)
H14 H 0.7585 -0.0037 0.9421
H15 H 0.7032 0.0774 0.8911
loop_
_geom_bond_atom_site_label_1
_geom_bond_atom_site_label_2
_geom_bond_site_symmetry_1
_geom_bond_site_symmetry_2
Nd1 O1 1_555 1_555
O1 C18 1_555 1_555
O2 C1 1_555 1_555
O3 C18 1_555 1_555
O4 H1 1_555 1_555
O5 C1 1_555 1_555
O6 Nd1 1_555 1_555
H2 O6 1_555 1_555
H3 O6 1_555 1_555
N1 Nd1 1_555 1_555
O7 Nd1 1_555 1_555
O8 C14 1_555 1_555
O9 Nd1 1_555 1_555
H4 O9 1_555 1_555
H5 O9 1_555 1_555
O10 C7 1_555 1_555
C1 C2 1_555 1_555
N2 C2 1_555 1_555
C2 C19 1_555 1_555
C3 H6 1_555 1_555
C4 N1 1_555 1_555
C5 C7 1_555 1_555
C6 C3 1_555 1_555
H7 C6 1_555 1_555
C7 O7 1_555 1_555
C8 C3 1_555 1_555
N3 C13 1_555 1_555
C9 H8 1_555 1_555
C10 C5 1_555 1_555
C11 C8 1_555 1_555
C12 C4 1_555 1_555
C13 C12 1_555 1_555
H9 C13 1_555 1_555
C14 O4 1_555 1_555
C15 C6 1_555 1_555
H10 C15 1_555 1_555
C16 N3 1_555 1_555
H11 C16 1_555 1_555
C17 C9 1_555 1_555
H12 C17 1_555 1_555
N4 C15 1_555 1_555
N5 C10 1_555 1_555
N6 C5 1_555 1_555
C18 C19 1_555 1_555
C19 N1 1_555 1_555
C20 C8 1_555 1_555
H13 C20 1_555 1_555
O11 H14 1_555 1_555
H15 O11 1_555 1_555
H16 N2 1_555 1_555
H17 N5 1_555 1_555
Nd1C O2 1_555 1_555
Nd1A O5 1_555 1_555
O2C Nd1 1_555 1_555
O3C Nd1 1_555 1_555
O5A Nd1 1_555 1_555
O3 Nd1C 1_555 1_555
N2 C4 1_555 1_555
C9 C16 1_555 1_555
C10 C14 1_555 1_555
C11 N5 1_555 1_555
C11 N6 1_555 1_555
C12 C17 1_555 1_555
N4 C20 1_555 1_555

#END
