
#######################################################################
#
#                 Cambridge Crystallographic Data Centre
#                                CCDC 
#
#######################################################################
#
# If this CIF has been generated from an entry in the Cambridge 
# Structural Database, then it will include bibliographic, chemical, 
# crystal, experimental, refinement or atomic coordinate data resulting 
# from the CCDC's data processing and validation procedures.
#
#######################################################################

data_SAMWEK
_symmetry_cell_setting           monoclinic
_symmetry_space_group_name_H-M   'P 21/c'
_symmetry_Int_Tables_number      14
_space_group_name_Hall           '-P 2ybc'
loop_
_symmetry_equiv_pos_site_id
_symmetry_equiv_pos_as_xyz
1 x,y,z
2 -x,1/2+y,1/2-z
3 -x,-y,-z
4 x,1/2-y,1/2+z
_cell_length_a                   15.9862(12)
_cell_length_b                   11.9750(9)
_cell_length_c                   12.9496(9)
_cell_angle_alpha                90
_cell_angle_beta                 111.6240(10)
_cell_angle_gamma                90
_cell_volume                     2304.54
loop_
_atom_site_label
_atom_site_type_symbol
_atom_site_fract_x
_atom_site_fract_y
_atom_site_fract_z
Tb1 Tb 0.626587(10) 0.666262(14) 1.078140(12)
N1 N 0.51343(18) 0.7855(2) 1.1241(2)
O1 O 0.67025(15) 0.7120(2) 1.27069(19)
O2 O 0.78339(16) 0.6392(2) 1.1623(2)
H1 H 0.8040 0.6613 1.2297
H2 H 0.8260 0.6078 1.1494
C1 C 0.4369(2) 0.8399(3) 1.0718(3)
N2 N 0.40998(19) 0.8936(3) 1.1451(2)
H3 H 0.3620 0.9332 1.1289
O3 O 0.67727(19) 0.8543(2) 1.0931(2)
H4 H 0.6837 0.9105 1.1359
H5 H 0.6524 0.8775 1.0267
O4 O 0.64554(16) 0.7809(2) 1.41615(19)
C2 C 0.6231(2) 0.7645(3) 1.3139(3)
C3 C 0.3921(2) 0.8493(3) 0.9511(3)
N3 N 0.2581(2) 0.8442(3) 0.7874(3)
C4 C 0.4712(2) 0.8750(3) 1.2498(3)
C5 C 0.2998(3) 0.8337(3) 0.8969(3)
H6 H 0.2658 0.8151 0.9391
C6 C 0.4425(3) 0.8770(3) 0.8869(3)
H7 H 0.5043 0.8878 0.9201
C7 C 0.5358(2) 0.8079(3) 1.2354(3)
O5 O 0.65378(18) 0.4890(2) 1.0041(2)
H8 H 0.6190 0.4379 1.0080
H9 H 0.6847 0.4645 0.9676
O8 O 0.48845(16) 0.8812(2) 1.44023(19)
O9 O 0.41888(18) 1.0204(2) 1.3274(2)
C18 C 0.3993(3) 0.8883(4) 0.7736(3)
H15 H 0.4313 0.9075 0.7290
C19 C 0.3084(3) 0.8705(4) 0.7281(3)
H16 H 0.2800 0.8772 0.6515
C20 C 0.4594(2) 0.9295(3) 1.3468(3)
Tb1C Tb 0.626587(10) 0.833738(14) 1.578140(12)
Tb1A Tb 0.373413(10) 1.166262(14) 1.421860(12)
O4C O 0.64554(16) 0.7191(2) 0.91615(19)
O8C O 0.48845(16) 0.6188(2) 0.94023(19)
O9A O 0.58112(18) 0.5204(2) 1.1726(2)
O6 O -0.18721(18) 0.3848(3) 0.0452(2)
N4 N -0.0761(2) 0.5759(3) 0.0929(2)
C8 C -0.1059(3) 0.3722(3) 0.0780(3)
C9 C -0.0436(2) 0.4686(3) 0.1051(3)
C10 C -0.0039(3) 0.6410(3) 0.1257(3)
N5 N -0.0943(2) 0.9297(3) 0.0643(3)
C11 C -0.0863(3) 0.8186(3) 0.0705(3)
H10 H -0.1381 0.7759 0.0391
C12 C -0.0057(2) 0.7636(3) 0.1208(3)
C13 C 0.0717(3) 0.8278(4) 0.1644(3)
H11 H 0.1277 0.7943 0.1979
C14 C 0.0494(2) 0.4705(3) 0.1481(3)
C15 C -0.0202(3) 0.9890(4) 0.1082(3)
H12 H -0.0252 1.0665 0.1060
C16 C 0.0636(3) 0.9431(4) 0.1570(3)
H13 H 0.1143 0.9885 0.1846
C17 C 0.1206(3) 0.3823(4) 0.1831(3)
N6 N 0.0728(2) 0.5800(3) 0.1607(3)
O7 O -0.07097(19) 0.2726(2) 0.0902(3)
H14 H -0.0163 0.2770 0.1222
O11 O 0.0958(2) 0.2805(3) 0.1753(2)
O12 O 0.19914(19) 0.4158(3) 0.2185(3)
H19 H 0.129(4) 0.605(4) 0.187(4)
O10 O 0.26920(17) 0.0391(2) 0.0715(2)
H17 H 0.2131 0.0346 0.0318
H18 H 0.2760 0.0824 0.1265
loop_
_geom_bond_atom_site_label_1
_geom_bond_atom_site_label_2
_geom_bond_site_symmetry_1
_geom_bond_site_symmetry_2
Tb1 N1 1_555 1_555
N1 C1 1_555 1_555
O1 Tb1 1_555 1_555
O2 Tb1 1_555 1_555
H1 O2 1_555 1_555
H2 O2 1_555 1_555
C1 N2 1_555 1_555
N2 H3 1_555 1_555
O3 Tb1 1_555 1_555
H4 O3 1_555 1_555
H5 O3 1_555 1_555
O4 C2 1_555 1_555
C2 O1 1_555 1_555
C3 C1 1_555 1_555
N3 C5 1_555 1_555
C4 N2 1_555 1_555
C5 C3 1_555 1_555
H6 C5 1_555 1_555
C6 C3 1_555 1_555
H7 C6 1_555 1_555
C7 N1 1_555 1_555
O5 Tb1 1_555 1_555
H8 O5 1_555 1_555
H9 O5 1_555 1_555
O6 C8 1_555 1_555
N4 C9 1_555 1_555
C8 C9 1_555 1_555
C9 C14 1_555 1_555
C10 N4 1_555 1_555
N5 C11 1_555 1_555
C11 H10 1_555 1_555
C12 C10 1_555 1_555
C13 C12 1_555 1_555
H11 C13 1_555 1_555
C14 C17 1_555 1_555
C15 N5 1_555 1_555
H12 C15 1_555 1_555
C16 C13 1_555 1_555
H13 C16 1_555 1_555
C17 O11 1_555 1_555
N6 C10 1_555 1_555
O7 C8 1_555 1_555
H14 O7 1_555 1_555
O8 C20 1_555 1_555
O9 C20 1_555 1_555
C18 C6 1_555 1_555
H15 C18 1_555 1_555
C19 N3 1_555 1_555
H16 C19 1_555 1_555
O10 H17 1_555 1_555
H18 O10 1_555 1_555
O12 C17 1_555 1_555
C20 C4 1_555 1_555
H19 N6 1_555 1_555
Tb1C O4 1_555 1_555
Tb1A O9 1_555 1_555
O4C Tb1 1_555 1_555
O8C Tb1 1_555 1_555
O9A Tb1 1_555 1_555
C2 C7 1_555 1_555
C4 C7 1_555 1_555
C11 C12 1_555 1_555
C14 N6 1_555 1_555
C15 C16 1_555 1_555
O8 Tb1C 1_555 1_555
C18 C19 1_555 1_555

#END
