
#######################################################################
#
#                 Cambridge Crystallographic Data Centre
#                                CCDC 
#
#######################################################################
#
# If this CIF has been generated from an entry in the Cambridge 
# Structural Database, then it will include bibliographic, chemical, 
# crystal, experimental, refinement or atomic coordinate data resulting 
# from the CCDC's data processing and validation procedures.
#
#######################################################################

data_SAMWOU
_symmetry_cell_setting           monoclinic
_symmetry_space_group_name_H-M   'P 21/c'
_symmetry_Int_Tables_number      14
_space_group_name_Hall           '-P 2ybc'
loop_
_symmetry_equiv_pos_site_id
_symmetry_equiv_pos_as_xyz
1 x,y,z
2 -x,1/2+y,1/2-z
3 -x,-y,-z
4 x,1/2-y,1/2+z
_cell_length_a                   15.9140(17)
_cell_length_b                   11.9588(13)
_cell_length_c                   12.8754(14)
_cell_angle_alpha                90
_cell_angle_beta                 111.3490(10)
_cell_angle_gamma                90
_cell_volume                     2282.21
loop_
_atom_site_label
_atom_site_type_symbol
_atom_site_fract_x
_atom_site_fract_y
_atom_site_fract_z
Ho1 Ho 0.626110(8) 0.333527(11) 0.578270(10)
C1 C 0.4372(2) 0.1613(2) 0.5720(3)
C2 C 0.47122(19) 0.1254(3) 0.7507(2)
O1 O 0.67042(13) 0.28929(17) 0.77100(16)
N1 N 0.40989(16) 0.1062(2) 0.6456(2)
H1 H 0.3621 0.0659 0.6294
C3 C 0.5361(2) 0.1930(2) 0.7361(2)
O2 O 0.64561(14) 0.22080(19) 0.91743(17)
N2 N 0.51364(16) 0.2156(2) 0.62444(19)
C4 C 0.3922(2) 0.1513(3) 0.4512(3)
N3 N 0.2583(2) 0.1562(3) 0.2871(3)
C5 C 0.2998(2) 0.1670(3) 0.3969(3)
H2 H 0.2654 0.1859 0.4393
C6 C 0.4424(2) 0.1226(3) 0.3868(3)
H3 H 0.5043 0.1108 0.4201
C7 C 0.45955(19) 0.0705(2) 0.8487(2)
O3 O 0.48875(13) 0.11796(17) 0.94209(16)
O4 O 0.65342(15) 0.50757(19) 0.50210(19)
H4 H 0.7073 0.5327 0.5186
H5 H 0.6203 0.5618 0.5100
O5 O 0.41877(15) -0.02063(18) 0.82836(17)
O6 O 0.67524(16) 0.14610(18) 0.59308(19)
H6 H 0.6903 0.1219 0.5402
H7 H 0.7147 0.1256 0.6556
O7 O 0.78165(14) 0.36141(18) 0.66177(19)
H8 H 0.8134 0.3883 0.6263
H9 H 0.8139 0.3139 0.7096
C8 C 0.62295(18) 0.2367(2) 0.8143(2)
C9 C 0.3999(2) 0.1116(3) 0.2732(3)
H10 H 0.4324 0.0929 0.2286
C10 C 0.3090(2) 0.1288(3) 0.2276(3)
H11 H 0.2806 0.1211 0.1508
Ho1A Ho 0.373890(8) -0.166473(11) 0.921730(10)
Ho1C Ho 0.626110(8) 0.166473(11) 1.078270(10)
O2C O 0.64561(14) 0.27920(19) 0.41743(17)
O3C O 0.48875(13) 0.38204(17) 0.44209(16)
O5A O 0.58123(15) 0.47937(18) 0.67164(17)
O8 O -0.18735(15) 0.6151(2) 0.5458(2)
N4 N -0.07609(17) 0.4234(2) 0.5931(2)
C11 C -0.1060(2) 0.6277(3) 0.5783(3)
N5 N -0.0945(2) 0.0694(2) 0.5652(2)
C12 C -0.0435(2) 0.5314(3) 0.6056(3)
C13 C -0.0040(2) 0.3584(3) 0.6256(3)
C14 C -0.0054(2) 0.2354(3) 0.6214(3)
C15 C -0.0866(2) 0.1801(3) 0.5718(3)
H12 H -0.1387 0.2228 0.5413
N6 N 0.07294(17) 0.4195(2) 0.6610(2)
H13 H 0.1270 0.3935 0.6872
C16 C 0.0722(2) 0.1711(3) 0.6636(3)
H14 H 0.1284 0.2049 0.6956
C17 C 0.1214(2) 0.6177(3) 0.6833(3)
C18 C 0.0491(2) 0.5302(3) 0.6474(3)
C19 C 0.0646(2) 0.0556(3) 0.6573(3)
H15 H 0.1156 0.0106 0.6853
C20 C -0.0196(3) 0.0086(3) 0.6090(3)
H16 H -0.0245 -0.0689 0.6067
O9 O -0.07051(17) 0.7276(2) 0.5910(2)
H17 H -0.0154 0.7227 0.6187
O10 O 0.09581(16) 0.7192(2) 0.6752(2)
O11 O 0.19991(16) 0.5837(2) 0.7180(2)
O12 O 0.26921(14) 0.96208(19) 0.57160(19)
H18 H 0.2125 0.9668 0.5336
H19 H 0.2770 0.9166 0.6256
loop_
_geom_bond_atom_site_label_1
_geom_bond_atom_site_label_2
_geom_bond_site_symmetry_1
_geom_bond_site_symmetry_2
Ho1 O1 1_555 1_555
C1 N1 1_555 1_555
C2 N1 1_555 1_555
O1 C8 1_555 1_555
N1 H1 1_555 1_555
C3 C2 1_555 1_555
O2 C8 1_555 1_555
N2 Ho1 1_555 1_555
C4 C1 1_555 1_555
N3 C5 1_555 1_555
C5 C4 1_555 1_555
H2 C5 1_555 1_555
C6 C4 1_555 1_555
H3 C6 1_555 1_555
C7 C2 1_555 1_555
O3 C7 1_555 1_555
O4 Ho1 1_555 1_555
H4 O4 1_555 1_555
H5 O4 1_555 1_555
O5 C7 1_555 1_555
O6 Ho1 1_555 1_555
H6 O6 1_555 1_555
H7 O6 1_555 1_555
O7 Ho1 1_555 1_555
H8 O7 1_555 1_555
H9 O7 1_555 1_555
C8 C3 1_555 1_555
C9 C6 1_555 1_555
H10 C9 1_555 1_555
C10 N3 1_555 1_555
H11 C10 1_555 1_555
O8 C11 1_555 1_555
N4 C12 1_555 1_555
C11 C12 1_555 1_555
N5 C15 1_555 1_555
C12 C18 1_555 1_555
C13 N4 1_555 1_555
C14 C13 1_555 1_555
C15 C14 1_555 1_555
H12 C15 1_555 1_555
N6 C13 1_555 1_555
H13 N6 1_555 1_555
C16 C14 1_555 1_555
H14 C16 1_555 1_555
C17 C18 1_555 1_555
C18 N6 1_555 1_555
C19 C16 1_555 1_555
H15 C19 1_555 1_555
C20 N5 1_555 1_555
H16 C20 1_555 1_555
O9 C11 1_555 1_555
H17 O9 1_555 1_555
O10 C17 1_555 1_555
O11 C17 1_555 1_555
O12 H18 1_555 1_555
H19 O12 1_555 1_555
Ho1A O5 1_555 1_555
Ho1C O2 1_555 1_555
O2C Ho1 1_555 1_555
O3C Ho1 1_555 1_555
O5A Ho1 1_555 1_555
C1 N2 1_555 1_555
C3 N2 1_555 1_555
O3 Ho1C 1_555 1_555
C9 C10 1_555 1_555
C19 C20 1_555 1_555

#END
