
#######################################################################
#
#                 Cambridge Crystallographic Data Centre
#                                CCDC 
#
#######################################################################
#
# If this CIF has been generated from an entry in the Cambridge 
# Structural Database, then it will include bibliographic, chemical, 
# crystal, experimental, refinement or atomic coordinate data resulting 
# from the CCDC's data processing and validation procedures.
#
#######################################################################

data_SAMWAG
_symmetry_cell_setting           monoclinic
_symmetry_space_group_name_H-M   'P 21/c'
_symmetry_Int_Tables_number      14
_space_group_name_Hall           '-P 2ybc'
loop_
_symmetry_equiv_pos_site_id
_symmetry_equiv_pos_as_xyz
1 x,y,z
2 -x,1/2+y,1/2-z
3 -x,-y,-z
4 x,1/2-y,1/2+z
_cell_length_a                   16.0045(18)
_cell_length_b                   11.9723(13)
_cell_length_c                   12.9776(14)
_cell_angle_alpha                90
_cell_angle_beta                 111.8070(10)
_cell_angle_gamma                90
_cell_volume                     2308.7
loop_
_atom_site_label
_atom_site_type_symbol
_atom_site_fract_x
_atom_site_fract_y
_atom_site_fract_z
Gd1 Gd 0.626850(16) 0.665831(19) 0.078349(19)
N1 N 0.5135(3) 0.7860(3) 0.1232(3)
C1 C 0.5357(3) 0.8079(4) 0.2356(4)
C2 C 0.4587(3) 0.9290(4) 0.3463(4)
C3 C 0.3919(4) 0.8495(4) -0.0485(4)
N2 N 0.4098(3) 0.8941(3) 0.1443(3)
H1 H 0.3620 0.9341 0.1277
C4 C 0.4370(4) 0.8402(4) 0.0719(4)
C5 C 0.6225(3) 0.7652(4) 0.3140(4)
C6 C 0.4711(4) 0.8747(4) 0.2492(4)
O1 O 0.4875(2) 0.8815(3) 0.4390(3)
O2 O 0.4191(3) 1.0200(3) 0.3269(3)
O3 O 0.6699(2) 0.7125(3) 0.2714(3)
O4 O 0.6458(2) 0.7813(3) 0.4163(3)
O5 O 0.7846(2) 0.6375(3) 0.1630(3)
H2 H 0.8239 0.6152 0.1369
H3 H 0.8126 0.6754 0.2220
O6 O 0.6758(3) 0.8554(3) 0.0909(3)
H4 H 0.6719 0.9094 0.1314
H5 H 0.7294 0.8543 0.0924
O7 O 0.6536(3) 0.4882(3) 0.0040(3)
H6 H 0.6238 0.4338 0.0167
H7 H 0.7068 0.4648 0.0139
N3 N 0.2588(4) 0.8440(4) -0.2130(4)
C7 C 0.4424(4) 0.8768(4) -0.1123(4)
H8 H 0.5042 0.8876 -0.0790
C8 C 0.3000(4) 0.8346(4) -0.1027(5)
H9 H 0.2656 0.8173 -0.0608
C9 C 0.3093(5) 0.8702(6) -0.2709(5)
H10 H 0.2812 0.8769 -0.3476
C10 C 0.3993(4) 0.8876(5) -0.2248(5)
H11 H 0.4314 0.9066 -0.2691
Gd1C Gd 0.626850(16) 0.834169(19) 0.578349(19)
Gd1A Gd 0.373150(16) 1.165831(19) 0.421651(19)
O1C O 0.4875(2) 0.6185(3) -0.0610(3)
O2A O 0.5809(3) 0.5200(3) 0.1731(3)
O4C O 0.6458(2) 0.7187(3) -0.0837(3)
O8 O -0.1866(3) 0.3840(3) 0.0452(3)
N4 N -0.0762(3) 0.5755(4) 0.0923(4)
C11 C -0.1059(4) 0.3715(5) 0.0783(5)
N5 N -0.0954(3) 0.9285(4) 0.0633(4)
C12 C -0.0873(4) 0.8168(4) 0.0701(5)
H12 H -0.1390 0.7736 0.0394
C13 C -0.0040(4) 0.6407(4) 0.1262(4)
C14 C -0.0434(4) 0.4675(4) 0.1049(4)
C15 C -0.0056(4) 0.7631(4) 0.1208(5)
O9 O -0.0702(3) 0.2724(3) 0.0907(4)
H13 H -0.0158 0.2771 0.1254
N6 N 0.0723(3) 0.5792(3) 0.1610(4)
H14 H 0.1263 0.6049 0.1872
C16 C 0.1208(4) 0.3824(5) 0.1833(5)
C17 C 0.0486(4) 0.4695(4) 0.1473(4)
C18 C 0.0707(4) 0.8277(5) 0.1639(5)
H15 H 0.1268 0.7941 0.1972
C19 C 0.0636(4) 0.9424(5) 0.1573(5)
H16 H 0.1143 0.9876 0.1857
C20 C -0.0207(5) 0.9879(5) 0.1075(5)
H17 H -0.0257 1.0653 0.1047
O10 O 0.0955(3) 0.2814(3) 0.1754(4)
O11 O 0.1988(3) 0.4164(3) 0.2186(4)
O12 O 0.2700(2) 0.0393(3) 0.0712(3)
H18 H 0.2072 0.0364 0.0159
H19 H 0.2636 0.0574 0.1226
loop_
_geom_bond_atom_site_label_1
_geom_bond_atom_site_label_2
_geom_bond_site_symmetry_1
_geom_bond_site_symmetry_2
Gd1 N1 1_555 1_555
N1 C1 1_555 1_555
C1 C5 1_555 1_555
C2 C6 1_555 1_555
C3 C4 1_555 1_555
N2 H1 1_555 1_555
C4 N1 1_555 1_555
C5 O3 1_555 1_555
C6 C1 1_555 1_555
O1 C2 1_555 1_555
O2 C2 1_555 1_555
O3 Gd1 1_555 1_555
O4 C5 1_555 1_555
O5 Gd1 1_555 1_555
H2 O5 1_555 1_555
H3 O5 1_555 1_555
O6 Gd1 1_555 1_555
H4 O6 1_555 1_555
H5 O6 1_555 1_555
O7 Gd1 1_555 1_555
H6 O7 1_555 1_555
H7 O7 1_555 1_555
N3 C8 1_555 1_555
C7 C3 1_555 1_555
H8 C7 1_555 1_555
C8 C3 1_555 1_555
H9 C8 1_555 1_555
C9 N3 1_555 1_555
H10 C9 1_555 1_555
C10 C7 1_555 1_555
H11 C10 1_555 1_555
O8 C11 1_555 1_555
N4 C13 1_555 1_555
C11 C14 1_555 1_555
N5 C12 1_555 1_555
C12 H12 1_555 1_555
C13 C15 1_555 1_555
C14 N4 1_555 1_555
C15 C12 1_555 1_555
O9 C11 1_555 1_555
H13 O9 1_555 1_555
N6 C13 1_555 1_555
H14 N6 1_555 1_555
C16 C17 1_555 1_555
C17 C14 1_555 1_555
C18 C15 1_555 1_555
H15 C18 1_555 1_555
C19 C18 1_555 1_555
H16 C19 1_555 1_555
C20 N5 1_555 1_555
H17 C20 1_555 1_555
O10 C16 1_555 1_555
O11 C16 1_555 1_555
O12 H18 1_555 1_555
H19 O12 1_555 1_555
Gd1C O1 1_555 1_555
Gd1A O2 1_555 1_555
O1C Gd1 1_555 1_555
O2A Gd1 1_555 1_555
O4C Gd1 1_555 1_555
N2 C4 1_555 1_555
N2 C6 1_555 1_555
O4 Gd1C 1_555 1_555
C9 C10 1_555 1_555
N6 C17 1_555 1_555
C19 C20 1_555 1_555

#END
