
#######################################################################
#
#                 Cambridge Crystallographic Data Centre
#                                CCDC 
#
#######################################################################
#
# If this CIF has been generated from an entry in the Cambridge 
# Structural Database, then it will include bibliographic, chemical, 
# crystal, experimental, refinement or atomic coordinate data resulting 
# from the CCDC's data processing and validation procedures.
#
#######################################################################

data_SAMWUA
_symmetry_cell_setting           monoclinic
_symmetry_space_group_name_H-M   'P 21/c'
_symmetry_Int_Tables_number      14
_space_group_name_Hall           '-P 2ybc'
loop_
_symmetry_equiv_pos_site_id
_symmetry_equiv_pos_as_xyz
1 x,y,z
2 -x,1/2+y,1/2-z
3 -x,-y,-z
4 x,1/2-y,1/2+z
_cell_length_a                   15.9024(16)
_cell_length_b                   11.9494(12)
_cell_length_c                   12.8469(13)
_cell_angle_alpha                90
_cell_angle_beta                 111.2340(10)
_cell_angle_gamma                90
_cell_volume                     2275.48
loop_
_atom_site_label
_atom_site_type_symbol
_atom_site_fract_x
_atom_site_fract_y
_atom_site_fract_z
Er1 Er 0.125969(9) 0.833580(12) 1.078420(11)
O1 O 0.17045(14) 0.78969(19) 1.27084(18)
O2 O 0.28041(16) 0.8614(2) 1.1602(2)
H1 H 0.3239 0.8991 1.1546
H2 H 0.3019 0.8178 1.2158
O3 O 0.17591(17) 0.6475(2) 1.0945(2)
H3 H 0.1796 0.6225 1.0343
H4 H 0.1788 0.5920 1.1370
O4 O 0.14563(16) 0.7212(2) 1.41790(18)
O5 O -0.01062(15) 0.6180(2) 1.44308(18)
O6 O 0.15391(17) 1.0063(2) 1.0023(2)
H5 H 0.2062 1.0290 1.0068
H6 H 0.1224 1.0639 1.0054
O7 O -0.08190(17) 0.4793(2) 1.32895(19)
C1 C 0.1228(2) 0.7370(3) 1.3149(3)
C2 C 0.0361(2) 0.6931(3) 1.2367(3)
C3 C -0.0625(2) 0.6618(3) 1.0725(3)
C4 C -0.0286(2) 0.6259(3) 1.2517(3)
N3 N 0.01369(18) 0.7163(2) 1.1245(2)
C14 C -0.0406(2) 0.5706(3) 1.3489(3)
N5 N -0.09012(19) 0.6069(2) 1.1462(2)
H13 H -0.1381 0.5668 1.1299
C16 C -0.1077(2) 0.6527(3) 0.9509(3)
N6 N -0.2414(2) 0.6570(3) 0.7869(3)
C17 C -0.0575(3) 0.6225(3) 0.8862(3)
H14 H 0.0042 0.6100 0.9193
C18 C -0.1997(3) 0.6677(3) 0.8970(3)
H15 H -0.2341 0.6863 0.9396
C19 C -0.1003(3) 0.6116(3) 0.7729(3)
H16 H -0.0681 0.5916 0.7280
C20 C -0.1909(3) 0.6305(4) 0.7274(3)
H17 H -0.2191 0.6246 0.6503
Er1C Er 0.125969(9) 0.666420(12) 1.578420(11)
Er1A Er -0.125969(9) 0.333580(12) 1.421580(11)
O4C O 0.14563(16) 0.7788(2) 0.91790(18)
O5C O -0.01062(15) 0.8820(2) 0.94308(18)
O7A O 0.08190(17) 0.9793(2) 1.17105(19)
O8 O 0.57042(19) 0.7272(2) 0.4090(3)
H7 H 0.5163 0.7231 0.3722
O9 O 0.40362(19) 0.7193(2) 0.3250(2)
O10 O 0.29995(19) 0.5831(3) 0.2828(3)
O11 O 0.68728(18) 0.6146(2) 0.4538(2)
C5 C 0.6059(3) 0.6271(3) 0.4218(3)
C6 C 0.3785(3) 0.6174(4) 0.3181(3)
C7 C 0.4505(2) 0.5296(3) 0.3524(3)
C8 C 0.5041(2) 0.3581(3) 0.3747(3)
C9 C 0.5437(2) 0.5308(3) 0.3945(3)
C10 C 0.4279(3) 0.1703(4) 0.3371(3)
H8 H 0.3716 0.2040 0.3058
C11 C 0.5864(3) 0.1806(3) 0.4280(3)
H9 H 0.6382 0.2238 0.4586
C12 C 0.5194(3) 0.0092(4) 0.3906(3)
H10 H 0.5242 -0.0684 0.3925
N1 N 0.5949(2) 0.0690(3) 0.4345(3)
C13 C 0.5052(2) 0.2348(3) 0.3784(3)
N2 N 0.5761(2) 0.4233(3) 0.4065(2)
N4 N 0.42697(19) 0.4192(3) 0.3393(2)
H11 H 0.3729 0.3931 0.3133
C15 C 0.4355(3) 0.0553(4) 0.3431(3)
H12 H 0.3846 0.0101 0.3153
O12 O 0.76953(17) 0.0378(2) 0.5706(2)
H18 H 0.7125 0.0323 0.5331
H19 H 0.7772 0.0879 0.6209
loop_
_geom_bond_atom_site_label_1
_geom_bond_atom_site_label_2
_geom_bond_site_symmetry_1
_geom_bond_site_symmetry_2
Er1 O1 1_555 1_555
O1 C1 1_555 1_555
O2 Er1 1_555 1_555
H1 O2 1_555 1_555
H2 O2 1_555 1_555
O3 Er1 1_555 1_555
H3 O3 1_555 1_555
H4 O3 1_555 1_555
O4 C1 1_555 1_555
O5 C14 1_555 1_555
O6 Er1 1_555 1_555
H5 O6 1_555 1_555
H6 O6 1_555 1_555
O7 C14 1_555 1_555
O8 H7 1_555 1_555
O9 C6 1_555 1_555
O10 C6 1_555 1_555
O11 C5 1_555 1_555
C1 C2 1_555 1_555
C2 C4 1_555 1_555
C3 N3 1_555 1_555
C4 C14 1_555 1_555
C5 O8 1_555 1_555
C6 C7 1_555 1_555
C7 C9 1_555 1_555
C8 C13 1_555 1_555
C9 C5 1_555 1_555
C10 H8 1_555 1_555
C11 H9 1_555 1_555
C12 H10 1_555 1_555
N1 C11 1_555 1_555
C13 C10 1_555 1_555
N2 C8 1_555 1_555
N3 Er1 1_555 1_555
N4 C7 1_555 1_555
H11 N4 1_555 1_555
C15 C10 1_555 1_555
H12 C15 1_555 1_555
N5 C3 1_555 1_555
H13 N5 1_555 1_555
C16 C3 1_555 1_555
N6 C18 1_555 1_555
C17 C16 1_555 1_555
H14 C17 1_555 1_555
C18 C16 1_555 1_555
H15 C18 1_555 1_555
C19 C17 1_555 1_555
H16 C19 1_555 1_555
C20 N6 1_555 1_555
H17 C20 1_555 1_555
O12 H18 1_555 1_555
H19 O12 1_555 1_555
Er1C O4 1_555 1_555
Er1A O7 1_555 1_555
O4C Er1 1_555 1_555
O5C Er1 1_555 1_555
O7A Er1 1_555 1_555
O5 Er1C 1_555 1_555
C2 N3 1_555 1_555
C4 N5 1_555 1_555
C8 N4 1_555 1_555
C9 N2 1_555 1_555
C11 C13 1_555 1_555
C12 N1 1_555 1_555
C12 C15 1_555 1_555
C19 C20 1_555 1_555

#END
