
#######################################################################
#
#                 Cambridge Crystallographic Data Centre
#                                CCDC 
#
#######################################################################
#
# If this CIF has been generated from an entry in the Cambridge 
# Structural Database, then it will include bibliographic, chemical, 
# crystal, experimental, refinement or atomic coordinate data resulting 
# from the CCDC's data processing and validation procedures.
#
#######################################################################

data_SAMXAH
_symmetry_cell_setting           triclinic
_symmetry_space_group_name_H-M   'P -1'
_symmetry_Int_Tables_number      2
_space_group_name_Hall           '-P 1'
loop_
_symmetry_equiv_pos_site_id
_symmetry_equiv_pos_as_xyz
1 x,y,z
2 -x,-y,-z
_cell_length_a                   11.4107(16)
_cell_length_b                   11.6334(16)
_cell_length_c                   15.649(2)
_cell_angle_alpha                79.718(2)
_cell_angle_beta                 79.127(2)
_cell_angle_gamma                73.046(2)
_cell_volume                     1934.44
loop_
_atom_site_label
_atom_site_type_symbol
_atom_site_fract_x
_atom_site_fract_y
_atom_site_fract_z
Y1 Y -0.06617(4) 0.13329(4) 0.34452(3)
Y2 Y 0.11226(4) 0.34519(4) 0.14924(3)
O1 O -0.0845(3) 0.3028(3) 0.2259(2)
N3 N -0.3581(4) 0.5703(4) 0.0760(3)
O2 O -0.2535(3) 0.2564(3) 0.2925(2)
N4 N -0.3984(4) 0.4258(4) 0.1793(3)
C11 C -0.4442(4) 0.5179(4) 0.1197(3)
C12 C -0.2006(4) 0.3215(4) 0.2335(3)
C13 C -0.2751(4) 0.4172(4) 0.1751(3)
O3 O 0.1260(3) 0.1644(3) 0.2724(2)
O4 O 0.0503(3) 0.4472(3) 0.2784(2)
H9 H 0.1055 0.4648 0.3006
H10 H -0.0173 0.5043 0.2863
O5 O 0.2691(3) 0.2597(3) 0.2520(2)
O6 O -0.1319(3) 0.6089(3) 0.0030(2)
N5 N -0.7696(4) 0.5074(4) 0.1195(3)
O7 O 0.0672(4) 0.1965(3) 0.0904(2)
H11 H 0.0240 0.1502 0.1210
H12 H 0.0816 0.1824 0.0371
O8 O 0.3136(3) 0.2457(3) 0.0765(2)
H13 H 0.3380 0.2748 0.0241
H14 H 0.3767 0.2188 0.1041
O9 O -0.0461(3) 0.5054(3) 0.1191(2)
C14 C -0.1344(5) 0.5431(5) 0.0741(3)
O10 O -0.0169(3) 0.0321(3) 0.2220(2)
H15 H -0.0801 0.0235 0.2070
H16 H 0.0435 -0.0297 0.2106
O11 O 0.1776(3) -0.1337(3) 0.5131(2)
O12 O -0.0411(4) 0.2896(3) 0.4057(2)
H17 H -0.0093 0.3363 0.3677
H18 H -0.0087 0.2793 0.4524
O13 O 0.0724(3) -0.0164(3) 0.4094(2)
N6 N 0.8078(4) -0.0234(4) 0.3752(3)
N7 N 0.3935(4) -0.0854(4) 0.4299(3)
N8 N 0.4309(3) 0.0689(4) 0.3351(3)
C15 C 0.6111(4) -0.0696(4) 0.3995(3)
C16 C 0.2827(4) -0.0232(4) 0.4019(3)
C17 C 0.1695(4) -0.0608(4) 0.4442(3)
C18 C 0.4799(4) -0.0280(4) 0.3880(3)
C19 C 0.8550(5) -0.1338(5) 0.4162(4)
H19 H 0.9391 -0.1574 0.4204
C20 C 0.6876(4) 0.0058(5) 0.3663(3)
H20 H 0.6537 0.0811 0.3361
C21 C -0.5748(4) 0.5560(5) 0.1028(3)
C22 C -0.6218(5) 0.6656(5) 0.0551(3)
H21 H -0.5722 0.7180 0.0325
C23 C 0.6622(5) -0.1816(5) 0.4454(4)
H22 H 0.6132 -0.2337 0.4709
C24 C 0.3077(4) 0.0718(4) 0.3424(3)
C25 C -0.2513(4) 0.5067(4) 0.1100(3)
C26 C 0.2289(4) 0.1714(4) 0.2873(3)
C27 C -0.6516(4) 0.4790(5) 0.1331(3)
H23 H -0.6191 0.4041 0.1644
C28 C 0.7864(5) -0.2142(5) 0.4524(4)
H24 H 0.8232 -0.2896 0.4812
C29 C -0.8143(5) 0.6158(5) 0.0748(4)
H25 H -0.8966 0.6380 0.0657
C30 C -0.7435(5) 0.6971(5) 0.0413(4)
H26 H -0.7777 0.7716 0.0101
H33 H 0.403(5) -0.153(5) 0.469(3)
H34 H -0.437(4) 0.391(4) 0.220(3)
Y1A Y 0.06617(4) -0.13329(4) 0.65548(3)
Y1_2 Y 0.93383(4) 0.13329(4) 0.34452(3)
Y2A Y -0.11226(4) 0.65481(4) -0.14924(3)
Y2_2 Y -0.88774(4) 0.34519(4) 0.14924(3)
O6A O 0.1319(3) 0.3911(3) -0.0030(2)
N5_2 N 0.2304(4) 0.5074(4) 0.1195(3)
O11A O -0.1776(3) 0.1337(3) 0.4869(2)
N6_2 N -0.1922(4) -0.0234(4) 0.3752(3)
C1 C 0.5833(5) 0.7219(5) 0.2572(4)
C2 C 0.4544(5) 0.7791(5) 0.2372(4)
C3 C 0.2386(6) 0.7908(6) 0.2590(4)
H1 H 0.1740 0.7584 0.2880
C4 C 0.6105(6) 0.6225(5) 0.3214(4)
H2 H 0.5473 0.5916 0.3550
C5 C 0.6817(6) 0.7654(6) 0.2135(4)
H3 H 0.6687 0.8335 0.1715
C6 C 0.7995(6) 0.7075(6) 0.2324(4)
H4 H 0.8646 0.7380 0.2018
C7 C 0.4253(6) 0.8828(5) 0.1773(4)
H5 H 0.4875 0.9174 0.1467
C8 C 0.3563(6) 0.7317(6) 0.2783(4)
H6 H 0.3697 0.6612 0.3181
C9 C 0.3047(6) 0.9345(6) 0.1632(4)
H7 H 0.2876 1.0050 0.1237
C10 C 0.7308(6) 0.5703(6) 0.3348(4)
H8 H 0.7473 0.5023 0.3767
N1 N 0.2115(5) 0.8892(5) 0.2028(4)
N2 N 0.8248(5) 0.6114(5) 0.2916(3)
O14 O 0.5467(3) 0.6697(3) 0.6708(2)
H27 H 0.5665 0.7364 0.6594
H28 H 0.6114 0.6134 0.6801
O15 O 0.4318(4) 0.6849(3) 0.5251(3)
H29 H 0.3712 0.6534 0.5323
H30 H 0.4546 0.6795 0.5753
O16 O 0.5290(4) 0.1658(4) 0.1544(3)
H31 H 0.4941 0.1344 0.2018
H32 H 0.6067 0.1355 0.1523
N9 N 0.1885(7) 0.5529(6) 0.4207(4)
O18 O 0.2690(7) 0.5550(7) 0.4630(4)
O20 O 0.2216(4) 0.4934(5) 0.3570(3)
O21 O 0.0873(7) 0.6109(7) 0.4374(5)
N10 N 0.8230(7) 0.9693(6) 0.0836(4)
O17 O 0.7908(4) 1.0333(5) 0.1439(3)
O19 O 0.9275(7) 0.9002(6) 0.0761(4)
O22 O 0.7496(7) 0.9734(6) 0.0353(4)
loop_
_geom_bond_atom_site_label_1
_geom_bond_atom_site_label_2
_geom_bond_site_symmetry_1
_geom_bond_site_symmetry_2
Y1 O1 1_555 1_555
Y2 O1 1_555 1_555
C1 C2 1_555 1_555
C2 C7 1_555 1_555
C3 H1 1_555 1_555
C4 C1 1_555 1_555
H2 C4 1_555 1_555
C5 C1 1_555 1_555
H3 C5 1_555 1_555
C6 C5 1_555 1_555
H4 C6 1_555 1_555
C7 H5 1_555 1_555
C8 C2 1_555 1_555
H6 C8 1_555 1_555
C9 C7 1_555 1_555
H7 C9 1_555 1_555
C10 C4 1_555 1_555
H8 C10 1_555 1_555
N1 C3 1_555 1_555
N2 C6 1_555 1_555
O1 C12 1_555 1_555
N3 C11 1_555 1_555
O2 Y1 1_555 1_555
N4 C11 1_555 1_555
C11 C21 1_555 1_555
C12 O2 1_555 1_555
C13 N4 1_555 1_555
O3 Y1 1_555 1_555
O4 Y2 1_555 1_555
H9 O4 1_555 1_555
H10 O4 1_555 1_555
O5 Y2 1_555 1_555
O6 C14 1_555 1_555
N5 C27 1_555 1_555
O7 Y2 1_555 1_555
H11 O7 1_555 1_555
H12 O7 1_555 1_555
O8 Y2 1_555 1_555
H13 O8 1_555 1_555
H14 O8 1_555 1_555
O9 Y2 1_555 1_555
C14 O9 1_555 1_555
O10 Y1 1_555 1_555
H15 O10 1_555 1_555
H16 O10 1_555 1_555
O11 C17 1_555 1_555
O12 Y1 1_555 1_555
H17 O12 1_555 1_555
H18 O12 1_555 1_555
O13 Y1 1_555 1_555
N6 C19 1_555 1_555
N7 C16 1_555 1_555
N8 C18 1_555 1_555
C15 C18 1_555 1_555
C16 C17 1_555 1_555
C17 O13 1_555 1_555
C18 N7 1_555 1_555
C19 H19 1_555 1_555
C20 N6 1_555 1_555
H20 C20 1_555 1_555
C21 C22 1_555 1_555
C22 H21 1_555 1_555
C23 C15 1_555 1_555
H22 C23 1_555 1_555
C24 N8 1_555 1_555
C25 N3 1_555 1_555
C26 O3 1_555 1_555
C27 C21 1_555 1_555
H23 C27 1_555 1_555
C28 C19 1_555 1_555
H24 C28 1_555 1_555
C29 N5 1_555 1_555
H25 C29 1_555 1_555
C30 C22 1_555 1_555
H26 C30 1_555 1_555
O14 H27 1_555 1_555
H28 O14 1_555 1_555
O15 H29 1_555 1_555
H30 O15 1_555 1_555
O16 H31 1_555 1_555
H32 O16 1_555 1_555
N9 O18 1_555 1_555
N10 O17 1_555 1_555
O19 N10 1_555 1_555
O20 N9 1_555 1_555
O21 N9 1_555 1_555
O22 N10 1_555 1_555
H33 N7 1_555 1_555
H34 N4 1_555 1_555
Y1A O11 1_555 1_555
Y1_2 N6 1_555 1_555
Y2A O6 1_555 1_555
Y2_2 N5 1_555 1_555
O6A Y2 1_555 1_555
N5_2 Y2 1_555 1_555
O11A Y1 1_555 1_555
N6_2 Y1 1_555 1_555
Y2 O3 1_555 1_555
C3 C8 1_555 1_555
C9 N1 1_555 1_555
C10 N2 1_555 1_555
C12 C13 1_555 1_555
C13 C25 1_555 1_555
O5 C26 1_555 1_555
C14 C25 1_555 1_555
C15 C20 1_555 1_555
C16 C24 1_555 1_555
C23 C28 1_555 1_555
C24 C26 1_555 1_555
C29 C30 1_555 1_555

#END
