
#######################################################################
#
#                 Cambridge Crystallographic Data Centre
#                                CCDC 
#
#######################################################################
#
# If this CIF has been generated from an entry in the Cambridge 
# Structural Database, then it will include bibliographic, chemical, 
# crystal, experimental, refinement or atomic coordinate data resulting 
# from the CCDC's data processing and validation procedures.
#
#######################################################################

data_SANBOZ
_symmetry_cell_setting           orthorhombic
_symmetry_space_group_name_H-M   'I m m 2'
_symmetry_Int_Tables_number      44
_space_group_name_Hall           'I 2 -2'
loop_
_symmetry_equiv_pos_site_id
_symmetry_equiv_pos_as_xyz
1 x,y,z
2 -x,-y,z
3 x,-y,z
4 -x,y,z
5 1/2+x,1/2+y,1/2+z
6 1/2-x,1/2-y,1/2+z
7 1/2+x,1/2-y,1/2+z
8 1/2-x,1/2+y,1/2+z
_cell_length_a                   7.6130(11)
_cell_length_b                   15.736(2)
_cell_length_c                   6.9581(10)
_cell_angle_alpha                90
_cell_angle_beta                 90
_cell_angle_gamma                90
_cell_volume                     833.568
loop_
_atom_site_label
_atom_site_type_symbol
_atom_site_fract_x
_atom_site_fract_y
_atom_site_fract_z
Zn1 Zn 1.0000 0.80540(3) 0.01958(13)
C1 C 0.8316(6) 0.6704(3) 0.2728(6)
C2 C 1.0000 0.6198(4) 0.2507(10)
H1 H 1.0000 0.5746 0.3455
H2 H 1.0000 0.5934 0.1247
C3 C 1.0000 1.0000 0.0794(12)
H3 H 1.1030 1.0000 -0.0027
C4 C 0.8417(6) 0.9243(3) 0.3275(6)
H4 H 0.7364 0.9237 0.2490
H5 H 0.8396 0.8742 0.4088
C5 C 1.0000 1.0000 0.5668(13)
H6 H 1.0000 0.9502 0.6488
N1 N 1.0000 0.9208(3) 0.1995(7)
N2 N 0.8413(7) 1.0000 0.4477(7)
O1 O 0.8138(4) 0.7398(2) 0.1851(5)
O2 O 0.7165(5) 0.63795(19) 0.3801(5)
O3 O 1.0000 0.7063(3) -0.1892(8)
H7 H 0.8909 0.7071 -0.2584
C1C C 1.1684(6) 0.6704(3) 0.2728(6)
O1C O 1.1862(4) 0.7398(2) 0.1851(5)
O2C O 1.2835(5) 0.63795(19) 0.3801(5)
H3A H 0.8970 1.0000 -0.0027
C4B C 0.8417(6) 1.0757(3) 0.3275(6)
H4B H 0.7364 1.0763 0.2490
H5B H 0.8396 1.1258 0.4088
N1B N 1.0000 1.0792(3) 0.1995(7)
C4A C 1.1583(6) 1.0757(3) 0.3275(6)
H4A H 1.2636 1.0763 0.2490
H5A H 1.1604 1.1258 0.4088
N2A N 1.1587(7) 1.0000 0.4477(7)
C4C C 1.1583(6) 0.9243(3) 0.3275(6)
H4C H 1.2636 0.9237 0.2490
H5C H 1.1604 0.8742 0.4088
H6A H 1.0000 1.0498 0.6488
H7C H 1.1091 0.7071 -0.2584
C1E C 0.6684(6) 0.8296(3) -0.2272(6)
C2E C 0.5000 0.8802(4) -0.2493(10)
H1E H 0.5000 0.9254 -0.1545
H2E H 0.5000 0.9066 -0.3753
O1E O 0.6862(4) 0.7602(2) -0.3149(5)
O2E O 0.7835(5) 0.86205(19) -0.1199(5)
C1F C 0.3316(6) 0.8296(3) -0.2272(6)
O1F O 0.3138(4) 0.7602(2) -0.3149(5)
O2F O 0.2165(5) 0.86205(19) -0.1199(5)
Zn1B Zn 1.0000 1.19460(3) 0.01958(13)
O3B O 1.0000 1.2937(3) -0.1892(8)
H7B H 0.8909 1.2929 -0.2584
H7A H 1.1091 1.2929 -0.2584
O2F_2 O 1.2165(5) 0.86205(19) -0.1199(5)
Zn1E Zn 0.5000 0.69460(3) 0.51958(13)
Zn1E_2 Zn 1.5000 0.69460(3) 0.51958(13)
Zn1E_3 Zn 0.5000 0.69460(3) -0.48042(13)
Zn1_2 Zn 0.0000 0.80540(3) 0.01958(13)
O1A O 1.1862(4) 1.2602(2) 0.1851(5)
O1B O 0.8138(4) 1.2602(2) 0.1851(5)
O2D O 1.2165(5) 1.13795(19) -0.1199(5)
O2G O 0.7835(5) 1.13795(19) -0.1199(5)
loop_
_geom_bond_atom_site_label_1
_geom_bond_atom_site_label_2
_geom_bond_site_symmetry_1
_geom_bond_site_symmetry_2
Zn1 N1 1_555 1_555
C1 C2 1_555 1_555
C2 H1 1_555 1_555
H2 C2 1_555 1_555
C3 H3 1_555 1_555
C4 H4 1_555 1_555
H5 C4 1_555 1_555
C5 H6 1_555 1_555
N1 C3 1_555 1_555
N2 C4 1_555 1_555
O1 Zn1 1_555 1_555
O2 C1 1_555 1_555
O3 Zn1 1_555 1_555
H7 O3 1_555 1_555
C1C C2 1_555 1_555
O1C Zn1 1_555 1_555
O2C C1C 1_555 1_555
H3A C3 1_555 1_555
C4B N2 1_555 1_555
H4B C4B 1_555 1_555
H5B C4B 1_555 1_555
N1B C3 1_555 1_555
C4A N1B 1_555 1_555
H4A C4A 1_555 1_555
H5A C4A 1_555 1_555
N2A C5 1_555 1_555
C4C N1 1_555 1_555
H4C C4C 1_555 1_555
H5C C4C 1_555 1_555
H6A C5 1_555 1_555
H7C O3 1_555 1_555
C1E C2E 1_555 1_555
C2E H1E 1_555 1_555
H2E C2E 1_555 1_555
O1E C1E 1_555 1_555
O2E Zn1 1_555 1_555
C1F C2E 1_555 1_555
O1F C1F 1_555 1_555
O2F C1F 1_555 1_555
Zn1B N1B 1_555 1_555
O3B Zn1B 1_555 1_555
H7B O3B 1_555 1_555
H7A O3B 1_555 1_555
O2F_2 Zn1 1_555 1_555
Zn1E O2 1_555 1_555
Zn1E_2 O2C 1_555 1_555
Zn1E_3 O1E 1_555 1_555
Zn1_2 O2F 1_555 1_555
O1A Zn1B 1_555 1_555
O1B Zn1B 1_555 1_555
O2D Zn1B 1_555 1_555
O2G Zn1B 1_555 1_555
C1 O1 1_555 1_555
C4 N1 1_555 1_555
C5 N2 1_555 1_555
C1C O1C 1_555 1_555
C4B N1B 1_555 1_555
C4A N2A 1_555 1_555
N2A C4C 1_555 1_555
C1E O2E 1_555 1_555
O1F Zn1E_3 1_555 1_555

#END
