
#######################################################################
#
#                 Cambridge Crystallographic Data Centre
#                                CCDC 
#
#######################################################################
#
# If this CIF has been generated from an entry in the Cambridge 
# Structural Database, then it will include bibliographic, chemical, 
# crystal, experimental, refinement or atomic coordinate data resulting 
# from the CCDC's data processing and validation procedures.
#
#######################################################################

data_SANBUF01
_symmetry_cell_setting           orthorhombic
_symmetry_space_group_name_H-M   'I m m 2'
_symmetry_Int_Tables_number      44
_space_group_name_Hall           'I 2 -2'
loop_
_symmetry_equiv_pos_site_id
_symmetry_equiv_pos_as_xyz
1 x,y,z
2 -x,-y,z
3 x,-y,z
4 -x,y,z
5 1/2+x,1/2+y,1/2+z
6 1/2-x,1/2-y,1/2+z
7 1/2+x,1/2-y,1/2+z
8 1/2-x,1/2+y,1/2+z
_cell_length_a                   6.962(3)
_cell_length_b                   15.500(7)
_cell_length_c                   7.627(3)
_cell_angle_alpha                90
_cell_angle_beta                 90
_cell_angle_gamma                90
_cell_volume                     823.037
loop_
_atom_site_label
_atom_site_type_symbol
_atom_site_fract_x
_atom_site_fract_y
_atom_site_fract_z
Cu1 Cu 0.5000 0.69148(8) 0.5021(3)
O1 O 0.7198(14) 0.6351(4) 0.6464(13)
O2 O 0.8101(14) 0.7410(5) 0.8383(14)
C1 C 0.835(2) 0.6699(7) 0.7529(16)
C2 C 1.0000 0.6197(9) 0.782(3)
H1 H 1.0000 0.5981 0.9009
H2 H 1.0000 0.5707 0.7025
O3 O 0.5000 0.7884(7) 0.698(2)
H3 H 0.612(12) 0.770(5) 0.732(13)
N1 N 0.5000 0.5795(7) 0.3296(15)
C3 C 0.5000 0.5000 0.451(2)
H4 H 0.578(16) 0.5000 0.539(17)
C4 C 0.6589(14) 0.5759(6) 0.2037(14)
H5 H 0.7788 0.5755 0.2684
H6 H 0.6566 0.6282 0.1337
N2 N 0.6568(17) 0.5000 0.0827(17)
C5 C 0.5000 0.5000 -0.035(3)
H7 H 0.5000 0.566(14) -0.13(4)
Cu1_2 Cu 1.5000 0.69148(8) 0.5021(3)
Cu1E Cu 1.0000 0.80852(8) 1.0021(3)
Cu1A Cu 0.5000 0.30852(8) 0.5021(3)
Cu1E_2 Cu 0.0000 0.80852(8) 1.0021(3)
Cu1_3 Cu -0.5000 0.69148(8) 0.5021(3)
O1C O 1.2802(14) 0.6351(4) 0.6464(13)
O1C_2 O 0.2802(14) 0.6351(4) 0.6464(13)
O1_2 O -0.2802(14) 0.6351(4) 0.6464(13)
O1_3 O 1.7198(14) 0.6351(4) 0.6464(13)
O2C O 1.1899(14) 0.7410(5) 0.8383(14)
O2C_2 O 0.1899(14) 0.7410(5) 0.8383(14)
O2_2 O -0.1899(14) 0.7410(5) 0.8383(14)
O2E O 0.6899(14) 0.7590(5) 0.3383(14)
O2F O 0.3101(14) 0.7590(5) 0.3383(14)
O2E_2 O 1.6899(14) 0.7590(5) 0.3383(14)
O2F_2 O 1.3101(14) 0.7590(5) 0.3383(14)
C1C C 1.165(2) 0.6699(7) 0.7529(16)
C1C_2 C 0.165(2) 0.6699(7) 0.7529(16)
C1_2 C -0.165(2) 0.6699(7) 0.7529(16)
C2_2 C 0.0000 0.6197(9) 0.782(3)
H1_2 H 0.0000 0.5981 0.9009
H2_2 H 0.0000 0.5707 0.7025
O3_2 O 1.5000 0.7884(7) 0.698(2)
H3C H 0.388(12) 0.770(5) 0.732(13)
H3C_2 H 1.388(12) 0.770(5) 0.732(13)
H3_2 H 1.612(12) 0.770(5) 0.732(13)
N1A N 0.5000 0.4205(7) 0.3296(15)
N1_2 N 1.5000 0.5795(7) 0.3296(15)
H4A H 0.422(16) 0.5000 0.539(17)
C4A C 0.3411(14) 0.4241(6) 0.2037(14)
C4C C 0.3411(14) 0.5759(6) 0.2037(14)
C4B C 0.6589(14) 0.4241(6) 0.2037(14)
H5A H 0.2212 0.4245 0.2684
H5B H 0.7788 0.4245 0.2684
H5C H 0.2212 0.5755 0.2684
H6A H 0.3434 0.3718 0.1337
H6B H 0.6566 0.3718 0.1337
H6C H 0.3434 0.6282 0.1337
N2A N 0.3432(17) 0.5000 0.0827(17)
H7A H 0.5000 0.434(14) -0.13(4)
loop_
_geom_bond_atom_site_label_1
_geom_bond_atom_site_label_2
_geom_bond_site_symmetry_1
_geom_bond_site_symmetry_2
Cu1 O1 1_555 1_555
O1 C1 1_555 1_555
O2 C1 1_555 1_555
C1 C2 1_555 1_555
C2 H1 1_555 1_555
H2 C2 1_555 1_555
O3 Cu1 1_555 1_555
H3 O3 1_555 1_555
N1 Cu1 1_555 1_555
C3 N1 1_555 1_555
H4 C3 1_555 1_555
C4 N1 1_555 1_555
H5 C4 1_555 1_555
H6 C4 1_555 1_555
N2 C4 1_555 1_555
C5 N2 1_555 1_555
H7 C5 1_555 1_555
Cu1_2 O1C 1_555 1_555
Cu1E O2 1_555 1_555
Cu1A N1A 1_555 1_555
Cu1E_2 O2C_2 1_555 1_555
Cu1_3 O1_2 1_555 1_555
O1C C1C 1_555 1_555
O1C_2 Cu1 1_555 1_555
O1_2 C1_2 1_555 1_555
O1_3 Cu1_2 1_555 1_555
O2C Cu1E 1_555 1_555
O2C_2 C1C_2 1_555 1_555
O2_2 Cu1E_2 1_555 1_555
O2E Cu1 1_555 1_555
O2F Cu1 1_555 1_555
O2E_2 Cu1_2 1_555 1_555
O2F_2 Cu1_2 1_555 1_555
C1C C2 1_555 1_555
C1C_2 O1C_2 1_555 1_555
C1_2 O2_2 1_555 1_555
C2_2 C1C_2 1_555 1_555
H1_2 C2_2 1_555 1_555
H2_2 C2_2 1_555 1_555
O3_2 Cu1_2 1_555 1_555
H3C O3 1_555 1_555
H3C_2 O3_2 1_555 1_555
H3_2 O3_2 1_555 1_555
N1A C3 1_555 1_555
N1_2 Cu1_2 1_555 1_555
H4A C3 1_555 1_555
C4A N1A 1_555 1_555
C4C N1 1_555 1_555
C4B N2 1_555 1_555
H5A C4A 1_555 1_555
H5B C4B 1_555 1_555
H5C C4C 1_555 1_555
H6A C4A 1_555 1_555
H6B C4B 1_555 1_555
H6C C4C 1_555 1_555
N2A C5 1_555 1_555
H7A C5 1_555 1_555
O2C C1C 1_555 1_555
C1_2 C2_2 1_555 1_555
N1A C4B 1_555 1_555
C4A N2A 1_555 1_555
C4C N2A 1_555 1_555

#END
