
#######################################################################
#
#                 Cambridge Crystallographic Data Centre
#                                CCDC 
#
#######################################################################
#
# If this CIF has been generated from an entry in the Cambridge 
# Structural Database, then it will include bibliographic, chemical, 
# crystal, experimental, refinement or atomic coordinate data resulting 
# from the CCDC's data processing and validation procedures.
#
#######################################################################

data_SANCOB
_symmetry_cell_setting           monoclinic
_symmetry_space_group_name_H-M   'P 21/c'
_symmetry_Int_Tables_number      14
_space_group_name_Hall           '-P 2ybc'
loop_
_symmetry_equiv_pos_site_id
_symmetry_equiv_pos_as_xyz
1 x,y,z
2 -x,1/2+y,1/2-z
3 -x,-y,-z
4 x,1/2-y,1/2+z
_cell_length_a                   8.6904(17)
_cell_length_b                   17.947(4)
_cell_length_c                   16.487(3)
_cell_angle_alpha                90
_cell_angle_beta                 100.94(3)
_cell_angle_gamma                90
_cell_volume                     2524.69
loop_
_atom_site_label
_atom_site_type_symbol
_atom_site_fract_x
_atom_site_fract_y
_atom_site_fract_z
La1 La -0.93633(3) 0.739701(12) 0.658596(13)
Sb1 Sb -0.58307(3) 1.034370(15) 0.609130(17)
Sb2 Sb -0.34399(3) 0.910480(15) 0.882580(17)
O1 O -0.7277(4) 0.93516(18) 0.6107(2)
O2 O -0.9471(4) 0.59673(18) 0.6612(3)
O3 O -0.7142(4) 0.81109(17) 0.6146(2)
O4 O -1.2035(5) 0.6972(2) 0.5787(3)
O5 O -0.4217(4) 0.95278(16) 0.6295(2)
O6 O -1.0483(5) 0.6936(2) 0.7834(2)
O7 O -0.4816(3) 0.87374(17) 0.77851(18)
O8 O -0.8482(5) 0.6830(2) 0.5348(2)
O9 O -0.1755(4) 0.89148(19) 0.8026(2)
O10 O -1.0395(4) 0.8347(2) 0.5387(2)
O11 O -0.1466(4) 0.8272(2) 0.6911(2)
O13 O -0.4354(4) 0.45241(17) 0.5951(2)
O14 O -0.3001(4) 0.5565(2) 0.5879(2)
O16 O -0.6672(4) 0.51739(17) 0.6509(2)
O17 O -0.3755(4) 0.54641(17) 0.77737(19)
O19 O -0.6145(4) 0.60167(18) 0.8343(2)
O21 O -0.6794(4) 0.68372(18) 0.7321(2)
C1 C -0.6506(5) 0.8739(2) 0.6184(2)
C2 C -0.4717(5) 0.8782(2) 0.6319(3)
H1 H -0.4344 0.8494 0.5890
C3 C -0.4075(5) 0.8433(2) 0.7175(3)
H2 H -0.4294 0.7897 0.7141
C4 C -0.2278(5) 0.8541(2) 0.7370(3)
C5 C -0.4144(5) 0.5229(2) 0.6062(3)
C6 C -0.5416(5) 0.5644(2) 0.6412(3)
H3 H -0.5828 0.6046 0.6030
C7 C -0.4646(5) 0.6001(2) 0.7263(3)
H4 H -0.3951 0.6406 0.7162
C8 C -0.5958(5) 0.6326(2) 0.7657(3)
O23 O -0.8007(4) 0.8346(2) 0.7752(2)
H7 H -1.013(4) 0.5729(19) 0.683(3)
H8 H -0.880(3) 0.5656(16) 0.650(3)
H12 H -1.128(6) 0.711(4) 0.798(5)
H18 H -1.123(5) 0.810(4) 0.525(4)
H19 H -1.010(9) 0.850(5) 0.496(2)
H20 H -1.011(11) 0.659(5) 0.816(5)
H21 H -1.256(4) 0.710(2) 0.5327(14)
H22 H -0.927(6) 0.666(5) 0.502(3)
H23 H -0.716(5) 0.843(5) 0.808(4)
H24 H -1.229(7) 0.6527(12) 0.585(3)
H25 H -0.853(12) 0.875(4) 0.769(10)
H26 H -0.788(6) 0.703(4) 0.507(3)
La1_2 La 0.06367(3) 0.739701(12) 0.658596(13)
Sb1A Sb -0.41693(3) 0.534370(15) 0.890870(17)
Sb2A Sb -0.65601(3) 0.410480(15) 0.617420(17)
O11_2 O -1.1466(4) 0.8272(2) 0.6911(2)
O13A O -0.5646(4) 0.95241(17) 0.9049(2)
O16A O -0.3328(4) 1.01739(17) 0.8491(2)
O17A O -0.6245(4) 1.04641(17) 0.72263(19)
O19A O -0.3855(4) 1.10167(18) 0.6657(2)
Cl1 Cl -0.31310(15) 0.72105(7) 0.89867(8)
O12 O -0.6673(7) 0.7540(3) 0.9296(3)
H9 H -0.5687(14) 0.756(4) 0.938(4)
H10 H -0.704(6) 0.774(4) 0.884(2)
O15 O -0.8790(5) 0.4773(2) 0.8972(3)
H5 H -0.908(9) 0.467(7) 0.942(4)
H6 H -0.790(3) 0.460(3) 0.897(3)
O18 O 0.1227(5) 0.6280(2) 0.9216(3)
H15 H 0.183(8) 0.639(4) 0.889(4)
H17 H 0.110(11) 0.5814(9) 0.921(5)
O20 O -1.0923(5) 0.4866(2) 0.7416(3)
H11 H -1.176(5) 0.510(4) 0.743(4)
H13 H -1.063(12) 0.465(7) 0.787(4)
O22 O -0.9391(8) 0.5546(3) 0.4469(4)
H14 H -0.971(17) 0.562(6) 0.3960(15)
H16 H -0.887(9) 0.514(3) 0.453(5)
loop_
_geom_bond_atom_site_label_1
_geom_bond_atom_site_label_2
_geom_bond_site_symmetry_1
_geom_bond_site_symmetry_2
La1 O2 1_555 1_555
Sb1 O1 1_555 1_555
Sb2 O7 1_555 1_555
O1 C1 1_555 1_555
O2 H7 1_555 1_555
O3 La1 1_555 1_555
O4 La1 1_555 1_555
O5 Sb1 1_555 1_555
O6 La1 1_555 1_555
O7 C3 1_555 1_555
O8 La1 1_555 1_555
O9 Sb2 1_555 1_555
O10 La1 1_555 1_555
O11 C4 1_555 1_555
O12 H9 1_555 1_555
O13 C5 1_555 1_555
O14 C5 1_555 1_555
O15 H5 1_555 1_555
O16 C6 1_555 1_555
O17 C7 1_555 1_555
O18 H15 1_555 1_555
O19 C8 1_555 1_555
O20 H11 1_555 1_555
O21 La1 1_555 1_555
C1 O3 1_555 1_555
C2 O5 1_555 1_555
H1 C2 1_555 1_555
C3 C2 1_555 1_555
H2 C3 1_555 1_555
C4 O9 1_555 1_555
C5 C6 1_555 1_555
C6 H3 1_555 1_555
C7 C6 1_555 1_555
H4 C7 1_555 1_555
C8 O21 1_555 1_555
H6 O15 1_555 1_555
O22 H14 1_555 1_555
O23 La1 1_555 1_555
H8 O2 1_555 1_555
H10 O12 1_555 1_555
H12 O6 1_555 1_555
H13 O20 1_555 1_555
H16 O22 1_555 1_555
H17 O18 1_555 1_555
H18 O10 1_555 1_555
H19 O10 1_555 1_555
H20 O6 1_555 1_555
H21 O4 1_555 1_555
H22 O8 1_555 1_555
H23 O23 1_555 1_555
H24 O4 1_555 1_555
H25 O23 1_555 1_555
H26 O8 1_555 1_555
La1_2 O11 1_555 1_555
Sb1A O17 1_555 1_555
Sb2A O13 1_555 1_555
O11_2 La1 1_555 1_555
O13A Sb2 1_555 1_555
O16A Sb2 1_555 1_555
O17A Sb1 1_555 1_555
O19A Sb1 1_555 1_555
O16 Sb2A 1_555 1_555
O19 Sb1A 1_555 1_555
C1 C2 1_555 1_555
C3 C4 1_555 1_555
C7 C8 1_555 1_555

#END
