
#######################################################################
#
#                 Cambridge Crystallographic Data Centre
#                                CCDC 
#
#######################################################################
#
# If this CIF has been generated from an entry in the Cambridge 
# Structural Database, then it will include bibliographic, chemical, 
# crystal, experimental, refinement or atomic coordinate data resulting 
# from the CCDC's data processing and validation procedures.
#
#######################################################################

data_SANCUH
_symmetry_cell_setting           monoclinic
_symmetry_space_group_name_H-M   'P 21/c'
_symmetry_Int_Tables_number      14
_space_group_name_Hall           '-P 2ybc'
loop_
_symmetry_equiv_pos_site_id
_symmetry_equiv_pos_as_xyz
1 x,y,z
2 -x,1/2+y,1/2-z
3 -x,-y,-z
4 x,1/2-y,1/2+z
_cell_length_a                   8.6375(17)
_cell_length_b                   17.883(4)
_cell_length_c                   16.376(3)
_cell_angle_alpha                90
_cell_angle_beta                 100.89(3)
_cell_angle_gamma                90
_cell_volume                     2483.96
loop_
_atom_site_label
_atom_site_type_symbol
_atom_site_fract_x
_atom_site_fract_y
_atom_site_fract_z
Pr1 Pr -1.06452(4) 1.26071(2) 0.84148(2)
Sb1 Sb -1.41693(6) 0.96573(3) 0.89096(3)
Sb2 Sb -1.65684(6) 1.09051(3) 0.61702(3)
O1 O -1.0525(7) 1.4026(3) 0.8403(4)
O2 O -1.2714(7) 1.0655(3) 0.8890(4)
O3 O -1.1512(8) 1.3165(4) 0.9652(4)
O4 O -1.2837(7) 1.1898(3) 0.8842(4)
O5 O -0.9553(8) 1.3070(4) 0.7181(4)
O6 O -1.5793(6) 1.0477(3) 0.8706(4)
O7 O -0.7999(8) 1.3040(4) 0.9198(4)
O8 O -1.5179(6) 1.1269(3) 0.7217(3)
O9 O -0.9636(7) 1.1669(3) 0.9595(4)
O10 O -1.8274(7) 1.1092(3) 0.6976(4)
O11 O -1.1965(8) 1.1673(3) 0.7256(4)
O12 O -1.8557(7) 1.1737(3) 0.8098(4)
O13 O -1.5637(7) 1.5477(3) 0.9055(4)
O15 O -1.6996(7) 1.4435(3) 0.9127(4)
O17 O -1.3310(6) 1.4825(3) 0.8497(3)
O19 O -1.6242(6) 1.4535(3) 0.7234(3)
O21 O -1.3851(7) 1.3979(3) 0.6655(4)
O23 O -1.3178(7) 1.3159(3) 0.7686(4)
C1 C -1.3503(9) 1.1269(4) 0.8818(4)
C2 C -1.5279(9) 1.1223(4) 0.8683(4)
H1 H -1.5651 1.1510 0.9118
C3 C -1.5948(9) 1.1574(4) 0.7828(4)
H2 H -1.5730 1.2111 0.7863
C4 C -1.7716(9) 1.1469(4) 0.7632(5)
C5 C -1.5849(9) 1.4782(4) 0.8942(5)
C6 C -1.4573(9) 1.4355(4) 0.8594(4)
H3 H -1.4165 1.3953 0.8983
C7 C -1.5320(8) 1.4000(4) 0.7742(4)
H4 H -1.6011 1.3590 0.7845
C8 C -1.4015(9) 1.3677(4) 0.7343(5)
Pr1_2 Pr -2.06452(4) 1.26071(2) 0.84148(2)
Sb1A Sb -1.58307(6) 1.46573(3) 0.60904(3)
Sb2A Sb -1.34316(6) 1.59051(3) 0.88298(3)
O12_2 O -0.8557(7) 1.1737(3) 0.8098(4)
O13A O -1.4363(7) 1.0477(3) 0.5945(4)
O17A O -1.6690(6) 0.9825(3) 0.6503(3)
O19A O -1.3758(6) 0.9535(3) 0.7766(3)
O21A O -1.6149(7) 0.8979(3) 0.8345(4)
Cl1 Cl -0.6893(3) 1.22038(13) 1.10100(15)
O14 O -0.9088(8) 1.5130(4) 0.7585(4)
O16 O -1.0585(12) 1.4440(4) 1.0539(6)
O18 O -1.3344(11) 1.2544(5) 1.0700(5)
O20 O -1.1206(8) 1.5230(4) 0.6023(5)
O22 O -1.1229(9) 1.1276(4) 1.0788(4)
loop_
_geom_bond_atom_site_label_1
_geom_bond_atom_site_label_2
_geom_bond_site_symmetry_1
_geom_bond_site_symmetry_2
Pr1 O1 1_555 1_555
Sb1 O2 1_555 1_555
Sb2 O8 1_555 1_555
O2 C1 1_555 1_555
O3 Pr1 1_555 1_555
O4 Pr1 1_555 1_555
O5 Pr1 1_555 1_555
O6 Sb1 1_555 1_555
O7 Pr1 1_555 1_555
O8 C3 1_555 1_555
O9 Pr1 1_555 1_555
O10 Sb2 1_555 1_555
O11 Pr1 1_555 1_555
O12 C4 1_555 1_555
O13 C5 1_555 1_555
O15 C5 1_555 1_555
O17 C6 1_555 1_555
O19 C7 1_555 1_555
O21 C8 1_555 1_555
O23 Pr1 1_555 1_555
C1 O4 1_555 1_555
C2 O6 1_555 1_555
H1 C2 1_555 1_555
C3 C2 1_555 1_555
H2 C3 1_555 1_555
C4 O10 1_555 1_555
C5 C6 1_555 1_555
C6 H3 1_555 1_555
C7 C6 1_555 1_555
H4 C7 1_555 1_555
C8 O23 1_555 1_555
Pr1_2 O12 1_555 1_555
Sb1A O19 1_555 1_555
Sb2A O13 1_555 1_555
O12_2 Pr1 1_555 1_555
O13A Sb2 1_555 1_555
O17A Sb2 1_555 1_555
O19A Sb1 1_555 1_555
O21A Sb1 1_555 1_555
O17 Sb2A 1_555 1_555
O21 Sb1A 1_555 1_555
C1 C2 1_555 1_555
C3 C4 1_555 1_555
C7 C8 1_555 1_555

#END
