
#######################################################################
#
#                 Cambridge Crystallographic Data Centre
#                                CCDC 
#
#######################################################################
#
# If this CIF has been generated from an entry in the Cambridge 
# Structural Database, then it will include bibliographic, chemical, 
# crystal, experimental, refinement or atomic coordinate data resulting 
# from the CCDC's data processing and validation procedures.
#
#######################################################################

data_SANDAO
_symmetry_cell_setting           monoclinic
_symmetry_space_group_name_H-M   'P 21/n'
_symmetry_Int_Tables_number      14
_space_group_name_Hall           '-P 2yn'
loop_
_symmetry_equiv_pos_site_id
_symmetry_equiv_pos_as_xyz
1 x,y,z
2 1/2-x,1/2+y,1/2-z
3 -x,-y,-z
4 1/2+x,1/2-y,1/2+z
_cell_length_a                   8.6470(17)
_cell_length_b                   18.061(4)
_cell_length_c                   23.333(5)
_cell_angle_alpha                90
_cell_angle_beta                 93.73(3)
_cell_angle_gamma                90
_cell_volume                     3636.28
loop_
_atom_site_label
_atom_site_type_symbol
_atom_site_fract_x
_atom_site_fract_y
_atom_site_fract_z
Ba1 Ba -0.53083(3) 0.739961(11) 0.786489(9)
Ba2 Ba -0.04034(2) 0.709981(11) 0.699012(9)
Sb1 Sb -0.49461(3) 0.478262(12) 0.829963(10)
Sb2 Sb -0.50262(3) 0.465987(12) 0.606795(10)
Sb3 Sb 0.01555(3) 0.839999(13) 0.507766(12)
Sb4 Sb 0.58861(3) 0.838833(14) 0.570597(11)
O1 O -0.2457(4) 0.65339(16) 0.78713(15)
O2 O -0.5880(3) 0.58368(13) 0.79930(11)
O3 O -0.7908(3) 0.63250(14) 0.75135(12)
O4 O -0.7458(3) 0.80294(15) 0.70122(13)
O5 O -0.6566(3) 0.44597(12) 0.77099(11)
O6 O -0.4976(4) 0.67375(17) 0.68366(13)
O7 O -0.6161(3) 0.52632(13) 0.66154(11)
O8 O -0.6682(7) 0.7117(4) 0.8895(2)
O9 O -0.3253(4) 0.7877(2) 0.87526(15)
O10 O -0.6789(3) 0.38969(13) 0.62968(11)
O11 O -0.2443(4) 0.68887(17) 0.60059(15)
O12 O -0.8869(3) 0.38011(14) 0.67963(12)
O13 O 0.0413(6) 0.7660(2) 0.80451(16)
O14 O -0.1765(3) 1.04577(14) 0.86893(12)
O15 O -0.3883(3) 1.06209(14) 0.81166(12)
O17 O -0.1256(3) 0.91025(13) 0.83421(11)
O19 O -0.1657(3) 1.00328(12) 0.72385(11)
O21 O -0.1034(3) 0.86866(13) 0.68903(11)
O23 O -0.2929(3) 0.81507(13) 0.73259(12)
O24 O 0.0473(3) 0.76925(15) 0.58408(12)
O25 O 0.1389(3) 0.65893(15) 0.60952(12)
O26 O 0.1836(3) 0.77283(14) 0.48689(11)
O27 O 0.4253(3) 0.76404(14) 0.58504(11)
O28 O 0.5827(3) 0.77537(16) 0.49235(13)
O29 O 0.4686(4) 0.67806(19) 0.44920(15)
O30 O 0.4752(4) 0.90363(17) 0.63351(12)
O31 O 0.3667(5) 1.01419(18) 0.63966(14)
O32 O 0.4540(3) 0.90248(14) 0.52036(10)
O33 O 0.1362(3) 0.90960(15) 0.55694(12)
O34 O 0.1061(3) 0.90924(16) 0.44410(13)
O35 O 0.2499(4) 1.0097(2) 0.43423(16)
C1 C -0.7130(4) 0.57794(18) 0.76663(15)
C2 C -0.7576(4) 0.49991(17) 0.74594(15)
H1 H -0.8631 0.4892 0.7565
C3 C -0.7544(4) 0.49667(18) 0.68073(15)
H2 H -0.8416 0.5258 0.6639
C4 C -0.7782(4) 0.41632(19) 0.66289(15)
C5 C -0.2797(4) 1.02423(19) 0.83009(16)
C6 C -0.2598(4) 0.94506(18) 0.80851(15)
H3 H -0.3499 0.9165 0.8191
C7 C -0.2628(4) 0.94690(18) 0.74335(15)
H4 H -0.3692 0.9578 0.7288
C8 C -0.2200(4) 0.87117(18) 0.72111(15)
C9 C 0.1297(4) 0.7118(2) 0.57590(16)
C10 C 0.2197(4) 0.7114(2) 0.52233(16)
H5 H 0.1950 0.6660 0.5006
C11 C 0.3917(4) 0.7104(2) 0.54255(16)
H6 H 0.4160 0.6616 0.5592
C12 C 0.4866(4) 0.7206(2) 0.49002(18)
C13 C 0.4089(5) 0.9619(2) 0.61169(18)
C14 C 0.3874(4) 0.9635(2) 0.54691(16)
H7 H 0.4360 1.0087 0.5333
C15 C 0.2147(4) 0.9672(2) 0.52984(19)
H8 H 0.1746 1.0148 0.5426
C16 C 0.1922(4) 0.9635(2) 0.4642(2)
H9 H -0.263(8) 0.6111(17) 0.773(3)
H10 H -0.244(4) 0.811(3) 0.869(2)
H11 H -0.542(6) 0.6318(15) 0.681(2)
H13 H 0.046(8) 0.8099(10) 0.816(2)
H14 H 0.051(8) 0.737(2) 0.8322(15)
H15 H -0.278(6) 0.6475(14) 0.611(2)
H16 H -0.534(6) 0.699(2) 0.6552(15)
H17 H -0.174(7) 0.651(3) 0.813(3)
H18 H -0.184(7) 0.682(3) 0.574(2)
H20 H -0.315(7) 0.769(4) 0.9082(14)
Ba1A Ba -0.96917(3) 0.239961(11) 0.713511(9)
Ba2_2 Ba -1.04034(2) 0.709981(11) 0.699012(9)
Ba2A Ba -0.45966(2) 1.209981(11) 0.800988(9)
Sb1A Sb -0.00539(3) 0.978262(12) 0.670037(10)
Sb2A Sb 0.00262(3) 0.965987(12) 0.893205(10)
O3_2 O 0.2092(3) 0.63250(14) 0.75135(12)
O4_2 O 0.2542(3) 0.80294(15) 0.70122(13)
O12A O -0.6131(3) 0.88011(14) 0.82037(12)
O14A O -0.3235(3) 0.54577(14) 0.63107(12)
O15A O -0.1117(3) 0.56209(14) 0.68834(12)
O17A O -0.3744(3) 0.41025(13) 0.66579(11)
O19A O -0.3343(3) 0.50328(12) 0.77615(11)
O21A O -0.3966(3) 0.36866(13) 0.81097(11)
O16 O -0.4179(7) 0.9313(3) 0.9371(2)
H21 H -0.439(8) 0.896(3) 0.915(3)
H22 H -0.494(5) 0.961(3) 0.935(3)
O18 O -0.1509(5) 0.6662(3) 0.4851(2)
O20 O 0.1729(5) 0.5229(2) 0.55090(19)
H12 H 0.153(9) 0.559(3) 0.572(2)
H19 H 0.146(9) 0.533(4) 0.5165(9)
O22 O 0.5045(7) 1.1467(2) 0.61752(18)
loop_
_geom_bond_atom_site_label_1
_geom_bond_atom_site_label_2
_geom_bond_site_symmetry_1
_geom_bond_site_symmetry_2
Ba1 O1 1_555 1_555
Ba2 O1 1_555 1_555
Sb1 O2 1_555 1_555
Sb2 O7 1_555 1_555
Sb3 O24 1_555 1_555
Sb4 O27 1_555 1_555
O1 H9 1_555 1_555
O2 Ba1 1_555 1_555
O3 Ba1 1_555 1_555
O4 Ba1 1_555 1_555
O5 Sb1 1_555 1_555
O6 Ba1 1_555 1_555
O7 C3 1_555 1_555
O8 Ba1 1_555 1_555
O9 Ba1 1_555 1_555
O10 Sb2 1_555 1_555
O11 Ba2 1_555 1_555
O12 C4 1_555 1_555
O13 Ba2 1_555 1_555
O14 C5 1_555 1_555
O15 C5 1_555 1_555
O16 H21 1_555 1_555
O17 C6 1_555 1_555
O19 C7 1_555 1_555
O20 H12 1_555 1_555
O21 Ba2 1_555 1_555
O23 Ba1 1_555 1_555
O24 Ba2 1_555 1_555
O25 Ba2 1_555 1_555
O26 Sb3 1_555 1_555
O27 C11 1_555 1_555
O28 Sb4 1_555 1_555
O29 C12 1_555 1_555
O30 Sb4 1_555 1_555
O31 C13 1_555 1_555
O32 Sb4 1_555 1_555
O33 Sb3 1_555 1_555
O34 Sb3 1_555 1_555
O35 C16 1_555 1_555
C1 O2 1_555 1_555
C2 O5 1_555 1_555
H1 C2 1_555 1_555
C3 C2 1_555 1_555
H2 C3 1_555 1_555
C4 O10 1_555 1_555
C5 C6 1_555 1_555
C6 H3 1_555 1_555
C7 C6 1_555 1_555
H4 C7 1_555 1_555
C8 O21 1_555 1_555
C9 O24 1_555 1_555
C10 O26 1_555 1_555
H5 C10 1_555 1_555
C11 C10 1_555 1_555
H6 C11 1_555 1_555
C12 O28 1_555 1_555
C13 O30 1_555 1_555
C14 O32 1_555 1_555
H7 C14 1_555 1_555
C15 O33 1_555 1_555
H8 C15 1_555 1_555
C16 O34 1_555 1_555
H10 O9 1_555 1_555
H11 O6 1_555 1_555
H13 O13 1_555 1_555
H14 O13 1_555 1_555
H15 O11 1_555 1_555
H16 O6 1_555 1_555
H17 O1 1_555 1_555
H18 O11 1_555 1_555
H19 O20 1_555 1_555
H20 O9 1_555 1_555
H22 O16 1_555 1_555
Ba1A O12 1_555 1_555
Ba2_2 O3 1_555 1_555
Ba2A O15 1_555 1_555
Sb1A O19 1_555 1_555
Sb2A O14 1_555 1_555
O3_2 Ba2 1_555 1_555
O4_2 Ba2 1_555 1_555
O12A Ba1 1_555 1_555
O14A Sb2 1_555 1_555
O15A Ba2 1_555 1_555
O17A Sb2 1_555 1_555
O19A Sb1 1_555 1_555
O21A Sb1 1_555 1_555
Ba2 O23 1_555 1_555
O3 C1 1_555 1_555
O4 Ba2_2 1_555 1_555
O17 Sb2A 1_555 1_555
O21 Sb1A 1_555 1_555
O23 C8 1_555 1_555
O25 C9 1_555 1_555
C1 C2 1_555 1_555
C3 C4 1_555 1_555
C7 C8 1_555 1_555
C9 C10 1_555 1_555
C11 C12 1_555 1_555
C13 C14 1_555 1_555
C14 C15 1_555 1_555
C15 C16 1_555 1_555

#END
