
#######################################################################
#
#                 Cambridge Crystallographic Data Centre
#                                CCDC 
#
#######################################################################
#
# If this CIF has been generated from an entry in the Cambridge 
# Structural Database, then it will include bibliographic, chemical, 
# crystal, experimental, refinement or atomic coordinate data resulting 
# from the CCDC's data processing and validation procedures.
#
#######################################################################

data_SANHIY
_symmetry_cell_setting           monoclinic
_symmetry_space_group_name_H-M   'I 2/a'
_symmetry_Int_Tables_number      15
_space_group_name_Hall           '-I 2ya'
loop_
_symmetry_equiv_pos_site_id
_symmetry_equiv_pos_as_xyz
1 x,y,z
2 1/2+x,1/2+y,1/2+z
3 1/2-x,y,-z
4 -x,1/2+y,1/2-z
5 -x,-y,-z
6 1/2-x,1/2-y,1/2-z
7 1/2+x,-y,z
8 x,1/2-y,1/2+z
_cell_length_a                   17.116(3)
_cell_length_b                   14.656(2)
_cell_length_c                   13.980(2)
_cell_angle_alpha                90
_cell_angle_beta                 93.96(2)
_cell_angle_gamma                90
_cell_volume                     3498.54
loop_
_atom_site_label
_atom_site_type_symbol
_atom_site_fract_x
_atom_site_fract_y
_atom_site_fract_z
Zr1 Zr 0.0115(1) 0.2162(1) 0.0349(1)
O1 O -0.0018(5) 0.0693(5) 0.0929(5)
O2 O 0.0123(6) 0.1801(4) 0.1933(5)
O3 O 0.0170(5) 0.3439(5) 0.1062(5)
O4 O 0.0826(6) 0.4576(5) 0.0440(7)
C1 C 0.0010(7) 0.0969(7) 0.1777(8)
C2 C -0.0090(8) 0.0344(7) 0.2565(9)
C3 C -0.0219(7) -0.0164(7) 0.3172(9)
C4 C 0.0432(7) 0.4260(6) 0.1026(8)
C5 C 0.097(1) 0.192(2) -0.101(1)
C6 C 0.112(1) 0.1242(9) -0.041(2)
C7 C 0.150(1) 0.163(2) 0.043(1)
C8 C 0.152(1) 0.257(2) 0.026(2)
C9 C 0.118(1) 0.272(1) -0.060(2)
C10 C -0.0932(9) 0.158(1) -0.082(1)
C11 C -0.1263(9) 0.166(1) 0.004(1)
C12 C -0.1328(9) 0.251(1) 0.029(1)
C13 C -0.101(1) 0.3056(9) -0.041(2)
C14 C -0.075(1) 0.246(2) -0.112(1)
H1 H 0.0710 0.1837 -0.1727
H2 H 0.0991 0.0529 -0.0529
H3 H 0.1723 0.1275 0.1074
H4 H 0.1773 0.3078 0.0746
H5 H 0.1089 0.3378 -0.0925
H6 H -0.0830 0.0956 -0.1198
H7 H -0.1446 0.1085 0.0459
H8 H -0.1580 0.2749 0.0930
H9 H -0.0982 0.3792 -0.0413
H10 H -0.0467 0.2650 -0.1760
C4C C -0.0432(7) -0.0740(6) 0.3974(8)
C3C C 0.0219(7) 0.4836(7) 0.1828(9)
O3C O -0.0170(5) -0.1561(5) 0.3938(5)
O4C O -0.0826(6) -0.0424(5) 0.4560(7)
C2C C 0.0090(8) 0.5344(7) 0.2435(9)
Zr1C Zr -0.0115(1) -0.2838(1) 0.4651(1)
C1C C -0.0010(7) 0.5969(7) 0.3223(8)
O1C O 0.0018(5) -0.4307(5) 0.4071(5)
O2C O -0.0123(6) -0.3199(4) 0.3067(5)
C5C C -0.097(1) -0.308(2) 0.601(1)
C6C C -0.112(1) -0.3758(9) 0.541(2)
C7C C -0.150(1) -0.337(2) 0.457(1)
C8C C -0.152(1) -0.243(2) 0.474(2)
C9C C -0.118(1) -0.228(1) 0.560(2)
C10C C 0.0932(9) -0.342(1) 0.582(1)
C11C C 0.1263(9) -0.334(1) 0.496(1)
C12C C 0.1328(9) -0.249(1) 0.471(1)
C13C C 0.101(1) -0.1944(9) 0.541(2)
C14C C 0.075(1) -0.254(2) 0.612(1)
O1C_2 O 0.0018(5) 0.5693(5) 0.4071(5)
O2C_2 O -0.0123(6) 0.6801(4) 0.3067(5)
H1C H -0.0710 -0.3163 0.6727
H2C H -0.0991 -0.4471 0.5529
H3C H -0.1723 -0.3725 0.3926
H4C H -0.1773 -0.1922 0.4254
H5C H -0.1089 -0.1622 0.5925
H6C H 0.0830 -0.4044 0.6198
H7C H 0.1446 -0.3915 0.4541
H8C H 0.1580 -0.2251 0.4070
H9C H 0.0982 -0.1208 0.5413
H10C H 0.0467 -0.2350 0.6760
Zr1C_2 Zr -0.0115(1) 0.7162(1) 0.4651(1)
C15 C 0.2327(9) 0.526(1) 0.185(1)
Cl1 Cl 0.3104(4) 0.5113(5) 0.1234(7)
Cl2 Cl 0.2200(4) 0.4336(8) 0.2579(7)
Cl3 Cl 0.2419(5) 0.6258(7) 0.2504(6)
H11 H 0.1811 0.5312 0.1365
loop_
_geom_bond_atom_site_label_1
_geom_bond_atom_site_label_2
_geom_bond_site_symmetry_1
_geom_bond_site_symmetry_2
Zr1 O1 1_555 1_555
O1 C1 1_555 1_555
O2 Zr1 1_555 1_555
O3 Zr1 1_555 1_555
O4 C4 1_555 1_555
C1 O2 1_555 1_555
C2 C1 1_555 1_555
C3 C2 1_555 1_555
C4 O3 1_555 1_555
C5 Zr1 1_555 1_555
C6 Zr1 1_555 1_555
C7 Zr1 1_555 1_555
C8 Zr1 1_555 1_555
C9 Zr1 1_555 1_555
C10 Zr1 1_555 1_555
C11 Zr1 1_555 1_555
C12 Zr1 1_555 1_555
C13 Zr1 1_555 1_555
C14 Zr1 1_555 1_555
C15 Cl1 1_555 1_555
Cl2 C15 1_555 1_555
Cl3 C15 1_555 1_555
H1 C5 1_555 1_555
H2 C6 1_555 1_555
H3 C7 1_555 1_555
H4 C8 1_555 1_555
H5 C9 1_555 1_555
H6 C10 1_555 1_555
H7 C11 1_555 1_555
H8 C12 1_555 1_555
H9 C13 1_555 1_555
H10 C14 1_555 1_555
H11 C15 1_555 1_555
C4C C3 1_555 1_555
C3C C4 1_555 1_555
O3C C4C 1_555 1_555
O4C C4C 1_555 1_555
C2C C3C 1_555 1_555
Zr1C O3C 1_555 1_555
C1C C2C 1_555 1_555
O1C Zr1C 1_555 1_555
O2C Zr1C 1_555 1_555
C5C Zr1C 1_555 1_555
C6C Zr1C 1_555 1_555
C7C Zr1C 1_555 1_555
C8C Zr1C 1_555 1_555
C9C Zr1C 1_555 1_555
C10C Zr1C 1_555 1_555
C11C Zr1C 1_555 1_555
C12C Zr1C 1_555 1_555
C13C Zr1C 1_555 1_555
C14C Zr1C 1_555 1_555
O1C_2 C1C 1_555 1_555
O2C_2 C1C 1_555 1_555
H1C C5C 1_555 1_555
H2C C6C 1_555 1_555
H3C C7C 1_555 1_555
H4C C8C 1_555 1_555
H5C C9C 1_555 1_555
H6C C10C 1_555 1_555
H7C C11C 1_555 1_555
H8C C12C 1_555 1_555
H9C C13C 1_555 1_555
H10C C14C 1_555 1_555
Zr1C_2 O1C_2 1_555 1_555
C5 C6 1_555 1_555
C5 C9 1_555 1_555
C6 C7 1_555 1_555
C7 C8 1_555 1_555
C8 C9 1_555 1_555
C10 C11 1_555 1_555
C10 C14 1_555 1_555
C11 C12 1_555 1_555
C12 C13 1_555 1_555
C13 C14 1_555 1_555
C5C C6C 1_555 1_555
C5C C9C 1_555 1_555
C6C C7C 1_555 1_555
C7C C8C 1_555 1_555
C8C C9C 1_555 1_555
C10C C11C 1_555 1_555
C10C C14C 1_555 1_555
C11C C12C 1_555 1_555
C12C C13C 1_555 1_555
C13C C14C 1_555 1_555
O2C_2 Zr1C_2 1_555 1_555

#END
