
#######################################################################
#
#                 Cambridge Crystallographic Data Centre
#                                CCDC 
#
#######################################################################
#
# If this CIF has been generated from an entry in the Cambridge 
# Structural Database, then it will include bibliographic, chemical, 
# crystal, experimental, refinement or atomic coordinate data resulting 
# from the CCDC's data processing and validation procedures.
#
#######################################################################

data_SANHOE
_symmetry_cell_setting           orthorhombic
_symmetry_space_group_name_H-M   'P b c a'
_symmetry_Int_Tables_number      61
_space_group_name_Hall           '-P 2ac 2ab'
loop_
_symmetry_equiv_pos_site_id
_symmetry_equiv_pos_as_xyz
1 x,y,z
2 1/2-x,1/2+y,z
3 x,1/2-y,1/2+z
4 1/2-x,-y,1/2+z
5 -x,-y,-z
6 1/2+x,1/2-y,-z
7 -x,1/2+y,1/2-z
8 1/2+x,y,1/2-z
_cell_length_a                   7.942(2)
_cell_length_b                   14.214(2)
_cell_length_c                   22.607(4)
_cell_angle_alpha                90
_cell_angle_beta                 90
_cell_angle_gamma                90
_cell_volume                     2552.05
loop_
_atom_site_label
_atom_site_type_symbol
_atom_site_fract_x
_atom_site_fract_y
_atom_site_fract_z
Zr1 Zr 0.1157(1) 0.1362(1) 0.1251(1)
O1 O 0.2154(3) 0.2758(2) 0.1664(1)
O2 O 0.0576(4) 0.1828(2) 0.2186(1)
O3 O 0.0172(3) 0.5222(2) 0.3372(1)
O4 O 0.1236(5) 0.4171(2) 0.3998(1)
C1 C 0.1370(5) 0.2588(2) 0.2133(2)
C2 C 0.1338(5) 0.3263(3) 0.2614(2)
C3 C 0.1155(5) 0.3813(2) 0.3001(2)
C4 C 0.0855(5) 0.4442(3) 0.3511(2)
C5 C 0.4134(5) 0.1449(3) 0.0918(2)
C6 C 0.4198(5) 0.1074(4) 0.1496(2)
C7 C 0.3438(6) 0.0191(3) 0.1475(2)
C8 C 0.2946(6) 0.0033(3) 0.0890(2)
C9 C 0.3408(6) 0.0791(4) 0.0560(2)
C10 C 0.0503(6) 0.2296(5) 0.0357(2)
C11 C -0.0380(7) 0.2739(3) 0.0800(3)
C12 C -0.1612(5) 0.2138(3) 0.0999(2)
C13 C -0.1542(5) 0.1321(3) 0.0667(2)
C14 C -0.0240(7) 0.1412(4) 0.0270(2)
H1 H 0.4578 0.2138 0.0780
H2 H 0.4735 0.1406 0.1884
H3 H 0.3261 -0.0291 0.1841
H4 H 0.2303 -0.0584 0.0727
H5 H 0.3237 0.0855 0.0087
H6 H 0.1562 0.2593 0.0119
H7 H -0.0141 0.3436 0.0974
H8 H -0.2491 0.2286 0.1349
H9 H -0.2361 0.0720 0.0718
H10 H 0.0153 0.0898 -0.0055
O3F O -0.0172(3) 0.0222(2) 0.1628(1)
Zr1F Zr -0.1157(1) 0.6362(1) 0.3749(1)
loop_
_geom_bond_atom_site_label_1
_geom_bond_atom_site_label_2
_geom_bond_site_symmetry_1
_geom_bond_site_symmetry_2
Zr1 O1 1_555 1_555
O1 C1 1_555 1_555
O2 Zr1 1_555 1_555
O3 C4 1_555 1_555
O4 C4 1_555 1_555
C1 O2 1_555 1_555
C2 C1 1_555 1_555
C3 C2 1_555 1_555
C4 C3 1_555 1_555
C5 Zr1 1_555 1_555
C6 Zr1 1_555 1_555
C7 Zr1 1_555 1_555
C8 Zr1 1_555 1_555
C9 Zr1 1_555 1_555
C10 Zr1 1_555 1_555
C11 Zr1 1_555 1_555
C12 Zr1 1_555 1_555
C13 Zr1 1_555 1_555
C14 Zr1 1_555 1_555
H1 C5 1_555 1_555
H2 C6 1_555 1_555
H3 C7 1_555 1_555
H4 C8 1_555 1_555
H5 C9 1_555 1_555
H6 C10 1_555 1_555
H7 C11 1_555 1_555
H8 C12 1_555 1_555
H9 C13 1_555 1_555
H10 C14 1_555 1_555
O3F Zr1 1_555 1_555
Zr1F O3 1_555 1_555
C5 C6 1_555 1_555
C5 C9 1_555 1_555
C6 C7 1_555 1_555
C7 C8 1_555 1_555
C8 C9 1_555 1_555
C10 C11 1_555 1_555
C10 C14 1_555 1_555
C11 C12 1_555 1_555
C12 C13 1_555 1_555
C13 C14 1_555 1_555

#END
