
#######################################################################
#
#                 Cambridge Crystallographic Data Centre
#                                CCDC 
#
#######################################################################
#
# If this CIF has been generated from an entry in the Cambridge 
# Structural Database, then it will include bibliographic, chemical, 
# crystal, experimental, refinement or atomic coordinate data resulting 
# from the CCDC's data processing and validation procedures.
#
#######################################################################

data_SANRAB
_symmetry_cell_setting           monoclinic
_symmetry_space_group_name_H-M   'C 2/c'
_symmetry_Int_Tables_number      15
_space_group_name_Hall           '-C 2yn'
loop_
_symmetry_equiv_pos_site_id
_symmetry_equiv_pos_as_xyz
1 x,y,z
2 1/2+x,1/2+y,z
3 -x,y,1/2-z
4 1/2-x,1/2+y,1/2-z
5 -x,-y,-z
6 1/2-x,1/2-y,-z
7 x,-y,1/2+z
8 1/2+x,1/2-y,1/2+z
_cell_length_a                   14.379(2)
_cell_length_b                   13.234(2)
_cell_length_c                   19.705(3)
_cell_angle_alpha                90
_cell_angle_beta                 104.00(3)
_cell_angle_gamma                90
_cell_volume                     3638.32
loop_
_atom_site_label
_atom_site_type_symbol
_atom_site_fract_x
_atom_site_fract_y
_atom_site_fract_z
Mn1 Mn 0.75561(5) 0.79563(5) 0.62120(3)
N1 N 0.8419(2) 0.8701(3) 0.71681(18)
N2 N 0.8265(3) 0.6716(3) 0.69679(19)
O1 O 0.6192(2) 0.7915(2) 0.66021(16)
O2 O 0.6315(2) 0.6948(2) 0.57219(15)
O3 O 0.1895(2) 0.6410(2) 0.57211(17)
O4 O 0.1079(3) 0.4223(3) 0.46691(18)
O5 O 0.2164(2) 0.4350(2) 0.56862(16)
O6 O 0.8585(3) 0.7647(3) 0.56178(16)
C1 C 0.5818(3) 0.7334(3) 0.6107(2)
C2 C 0.4786(3) 0.7077(3) 0.5983(2)
C3 C 0.4256(3) 0.7396(3) 0.6450(2)
C4 C 0.3301(3) 0.7160(3) 0.6352(2)
C5 C 0.2847(3) 0.6593(3) 0.5773(2)
C6 C 0.3347(3) 0.6283(4) 0.5291(2)
C7 C 0.4314(3) 0.6519(3) 0.5407(2)
C8 C 0.1368(3) 0.5830(4) 0.5150(3)
C9 C 0.1569(3) 0.4688(4) 0.5179(2)
C10 C 0.8480(3) 0.9708(4) 0.7231(2)
C11 C 0.8960(4) 1.0178(4) 0.7839(3)
C12 C 0.9379(4) 0.9576(5) 0.8394(3)
C13 C 0.9337(4) 0.8555(4) 0.8336(3)
C14 C 0.8846(3) 0.8119(4) 0.7713(2)
C15 C 0.8776(3) 0.7006(4) 0.7601(2)
C16 C 0.9221(3) 0.6323(4) 0.8107(3)
C17 C 0.9124(4) 0.5317(5) 0.7971(3)
C18 C 0.8599(4) 0.4996(4) 0.7325(3)
C19 C 0.8193(3) 0.5724(4) 0.6841(3)
H1 H 0.853(4) 0.793(4) 0.5225(14)
H2 H 0.859(4) 0.7007(10) 0.556(3)
H3 H 0.4556 0.7778 0.6837
H4 H 0.2962 0.7379 0.6671
H5 H 0.3040 0.5921 0.4896
H6 H 0.4654 0.6296 0.5090
H7 H 0.1499 0.6095 0.4724
H8 H 0.0690 0.5929 0.5119
H9 H 0.8187 1.0105 0.6850
H10 H 0.8997 1.0878 0.7871
H11 H 0.9696 0.9871 0.8815
H12 H 0.9635 0.8150 0.8711
H13 H 0.9584 0.6550 0.8536
H14 H 0.9410 0.4849 0.8309
H15 H 0.8521 0.4312 0.7219
H16 H 0.7849 0.5511 0.6402
Mn1A Mn 0.25561(5) 0.29563(5) 0.62120(3)
O5A O 0.7164(2) 0.9350(2) 0.56862(16)
loop_
_geom_bond_atom_site_label_1
_geom_bond_atom_site_label_2
_geom_bond_site_symmetry_1
_geom_bond_site_symmetry_2
Mn1 N1 1_555 1_555
N1 C10 1_555 1_555
N2 Mn1 1_555 1_555
O1 Mn1 1_555 1_555
O2 Mn1 1_555 1_555
O3 C5 1_555 1_555
O4 C9 1_555 1_555
O5 C9 1_555 1_555
O6 Mn1 1_555 1_555
C1 O1 1_555 1_555
C2 C1 1_555 1_555
C3 C2 1_555 1_555
C4 C3 1_555 1_555
C5 C4 1_555 1_555
C6 C5 1_555 1_555
C7 C2 1_555 1_555
C8 O3 1_555 1_555
C9 C8 1_555 1_555
C10 C11 1_555 1_555
C11 C12 1_555 1_555
C12 C13 1_555 1_555
C13 C14 1_555 1_555
C14 N1 1_555 1_555
C15 N2 1_555 1_555
C16 C15 1_555 1_555
C17 C16 1_555 1_555
C18 C17 1_555 1_555
C19 N2 1_555 1_555
H1 O6 1_555 1_555
H2 O6 1_555 1_555
H3 C3 1_555 1_555
H4 C4 1_555 1_555
H5 C6 1_555 1_555
H6 C7 1_555 1_555
H7 C8 1_555 1_555
H8 C8 1_555 1_555
H9 C10 1_555 1_555
H10 C11 1_555 1_555
H11 C12 1_555 1_555
H12 C13 1_555 1_555
H13 C16 1_555 1_555
H14 C17 1_555 1_555
H15 C18 1_555 1_555
H16 C19 1_555 1_555
Mn1A O5 1_555 1_555
O5A Mn1 1_555 1_555
O2 C1 1_555 1_555
C6 C7 1_555 1_555
C14 C15 1_555 1_555
C18 C19 1_555 1_555

#END
