
#######################################################################
#
#                 Cambridge Crystallographic Data Centre
#                                CCDC 
#
#######################################################################
#
# If this CIF has been generated from an entry in the Cambridge 
# Structural Database, then it will include bibliographic, chemical, 
# crystal, experimental, refinement or atomic coordinate data resulting 
# from the CCDC's data processing and validation procedures.
#
#######################################################################

data_SANTMN
_symmetry_cell_setting           monoclinic
_symmetry_space_group_name_H-M   'P 21/c'
_symmetry_Int_Tables_number      14
_space_group_name_Hall           '-P 2ybc'
loop_
_symmetry_equiv_pos_site_id
_symmetry_equiv_pos_as_xyz
1 x,y,z
2 -x,1/2+y,1/2-z
3 -x,-y,-z
4 x,1/2-y,1/2+z
_cell_length_a                   12.096(6)
_cell_length_b                   9.084(5)
_cell_length_c                   15.447(7)
_cell_angle_alpha                90
_cell_angle_beta                 106.8(1)
_cell_angle_gamma                90
_cell_volume                     1624.87
loop_
_atom_site_label
_atom_site_type_symbol
_atom_site_fract_x
_atom_site_fract_y
_atom_site_fract_z
C1 C 0.30090 0.61900 0.12410
C2 C 0.40550 0.30670 -0.02190
C3 C 0.50780 0.24110 0.02390
C4 C 0.50520 0.12390 0.07910
C5 C 0.40500 0.07400 0.09040
C6 C 0.29970 0.13950 0.04640
C7 C 0.09020 -0.04620 -0.13210
C9 C 0.40600 0.55640 0.16800
C10 C 0.40860 0.42130 0.21020
C11 C 0.30900 0.34980 0.21130
C12 C 0.20020 0.41050 0.16630
C13 C 0.19800 0.54870 0.12400
C14 C 0.08940 0.62950 0.08050
C15 C 0.20000 0.34000 -0.05830
C16 C 0.30050 0.25980 -0.01120
H1 H 0.29700 0.73200 0.09500
H2 H 0.56200 0.06400 0.11700
H3 H 0.41100 -0.01100 0.13700
H4 H 0.04800 -0.09100 -0.19700
H5 H 0.14800 -0.12200 -0.10700
H6 H 0.12900 0.04500 -0.14500
H7 H 0.47800 0.60000 0.17000
H8 H 0.48000 0.37100 0.25100
H9 H 0.31100 0.26300 0.22800
H10 H 0.02000 0.36900 0.14300
H11 H 0.11300 0.25900 0.20900
H12 H 0.21300 0.42900 -0.09700
H13 H 0.40900 0.38500 -0.06100
H14 H 0.57200 0.27500 0.00800
Mn1 Mn 0.05020 0.15980 0.02170
N1 N 0.10020 0.32670 0.15900
N2 N -0.00690 0.59360 0.09770
N3 N 0.09760 0.31320 -0.05010
O1 O 0.09280 0.73770 0.02450
O2 O 0.20430 0.09030 0.06250
O3 O 0.00800 -0.01340 -0.08490
O1B O -0.09280 0.26230 -0.02450
O3B O -0.00800 0.01340 0.08490
N3B N -0.09760 0.68680 0.05010
N2B N 0.00690 0.40640 -0.09770
Mn1B Mn -0.05020 0.84020 -0.02170
Mn1B_2 Mn -0.05020 -0.15980 -0.02170
C14B C -0.08940 0.37050 -0.08050
C7B C -0.09020 0.04620 0.13210
C15B C -0.20000 0.66000 0.05830
N1B N -0.10020 0.67330 -0.15900
O2B O -0.20430 0.90970 -0.06250
O3_2 O 0.00800 0.98660 -0.08490
O3B_2 O -0.00800 1.01340 0.08490
C13B C -0.19800 0.45130 -0.12400
H4B H -0.04800 0.09100 0.19700
H5B H -0.14800 0.12200 0.10700
H6B H -0.12900 -0.04500 0.14500
C16B C -0.30050 0.74020 0.01120
H12B H -0.21300 0.57100 0.09700
C12B C -0.20020 0.58950 -0.16630
H10B H -0.02000 0.63100 -0.14300
H11B H -0.11300 0.74100 -0.20900
C6B C -0.29970 0.86050 -0.04640
C1B C -0.30090 0.38100 -0.12410
C2B C -0.40550 0.69330 0.02190
C11B C -0.30900 0.65020 -0.21130
C5B C -0.40500 0.92600 -0.09040
C9B C -0.40600 0.44360 -0.16800
H1B H -0.29700 0.26800 -0.09500
C3B C -0.50780 0.75890 -0.02390
H13B H -0.40900 0.61500 0.06100
C10B C -0.40860 0.57870 -0.21020
H9B H -0.31100 0.73700 -0.22800
C4B C -0.50520 0.87610 -0.07910
H3B H -0.41100 1.01100 -0.13700
H7B H -0.47800 0.40000 -0.17000
H14B H -0.57200 0.72500 -0.00800
H8B H -0.48000 0.62900 -0.25100
H2B H -0.56200 0.93600 -0.11700
C8 C 0.20350 0.86390 0.27310
O4 O 0.22690 0.99900 0.24970
loop_
_geom_bond_atom_site_label_1
_geom_bond_atom_site_label_2
_geom_bond_site_symmetry_1
_geom_bond_site_symmetry_2
C1 C9 1_555 1_555
C2 C3 1_555 1_555
C3 C4 1_555 1_555
C4 C5 1_555 1_555
C5 C6 1_555 1_555
C6 C16 1_555 1_555
C7 H4 1_555 1_555
C8 O4 1_555 1_555
C9 C10 1_555 1_555
C10 C11 1_555 1_555
C11 C12 1_555 1_555
C12 C13 1_555 1_555
C13 C1 1_555 1_555
C14 C13 1_555 1_555
C15 C16 1_555 1_555
C16 C2 1_555 1_555
H1 C1 1_555 1_555
H2 C4 1_555 1_555
H3 C5 1_555 1_555
H5 C7 1_555 1_555
H6 C7 1_555 1_555
H7 C9 1_555 1_555
H8 C10 1_555 1_555
H9 C11 1_555 1_555
H10 N1 1_555 1_555
H11 N1 1_555 1_555
H12 C15 1_555 1_555
H13 C2 1_555 1_555
H14 C3 1_555 1_555
Mn1 N1 1_555 1_555
N1 C12 1_555 1_555
N2 C14 1_555 1_555
N3 C15 1_555 1_555
O1 C14 1_555 1_555
O2 C6 1_555 1_555
O3 C7 1_555 1_555
O1B Mn1 1_555 1_555
O3B Mn1 1_555 1_555
N3B N2 1_555 1_555
N2B N3 1_555 1_555
Mn1B O1 1_555 1_555
Mn1B_2 O3 1_555 1_555
C14B O1B 1_555 1_555
C7B O3B 1_555 1_555
C15B N3B 1_555 1_555
N1B Mn1B 1_555 1_555
O2B Mn1B 1_555 1_555
O3_2 Mn1B 1_555 1_555
O3B_2 Mn1B 1_555 1_555
C13B C14B 1_555 1_555
H4B C7B 1_555 1_555
H5B C7B 1_555 1_555
H6B C7B 1_555 1_555
C16B C15B 1_555 1_555
H12B C15B 1_555 1_555
C12B N1B 1_555 1_555
H10B N1B 1_555 1_555
H11B N1B 1_555 1_555
C6B O2B 1_555 1_555
C1B C13B 1_555 1_555
C2B C16B 1_555 1_555
C11B C12B 1_555 1_555
C5B C6B 1_555 1_555
C9B C1B 1_555 1_555
H1B C1B 1_555 1_555
C3B C2B 1_555 1_555
H13B C2B 1_555 1_555
C10B C11B 1_555 1_555
H9B C11B 1_555 1_555
C4B C5B 1_555 1_555
H3B C5B 1_555 1_555
H7B C9B 1_555 1_555
H14B C3B 1_555 1_555
H8B C10B 1_555 1_555
H2B C4B 1_555 1_555
Mn1 N3 1_555 1_555
Mn1 O2 1_555 1_555
Mn1 O3 1_555 1_555
O3B Mn1B_2 1_555 1_555
N3B Mn1B 1_555 1_555
N2B C14B 1_555 1_555
C13B C12B 1_555 1_555
C16B C6B 1_555 1_555
C9B C10B 1_555 1_555
C3B C4B 1_555 1_555

#END
