
#######################################################################
#
#                 Cambridge Crystallographic Data Centre
#                                CCDC 
#
#######################################################################
#
# If this CIF has been generated from an entry in the Cambridge 
# Structural Database, then it will include bibliographic, chemical, 
# crystal, experimental, refinement or atomic coordinate data resulting 
# from the CCDC's data processing and validation procedures.
#
#######################################################################

data_SANVEI
_symmetry_cell_setting           trigonal
_symmetry_space_group_name_H-M   'P 31'
_symmetry_Int_Tables_number      144
_space_group_name_Hall           'P 31'
loop_
_symmetry_equiv_pos_site_id
_symmetry_equiv_pos_as_xyz
1 x,y,z
2 -y,x-y,1/3+z
3 -x+y,-x,2/3+z
_cell_length_a                   9.317(5)
_cell_length_b                   9.317(5)
_cell_length_c                   12.895(5)
_cell_angle_alpha                90
_cell_angle_beta                 90
_cell_angle_gamma                120
_cell_volume                     969.403
loop_
_atom_site_label
_atom_site_type_symbol
_atom_site_fract_x
_atom_site_fract_y
_atom_site_fract_z
Sn1 Sn -0.63583(3) -0.00748(3) -0.02520
O1 O -0.4211(3) 0.0880(4) -0.1328(2)
O2 O -0.2444(3) -0.1268(4) -0.2600(2)
O3 O -0.2358(4) 0.2908(4) -0.0326(3)
O4 O -0.2588(4) -0.2713(5) -0.1210(3)
N1 N -0.2311(4) 0.1659(4) -0.2953(2)
C1 C -0.2794(4) 0.2082(4) -0.1130(3)
C2 C -0.1489(4) 0.2459(4) -0.1961(3)
C3 C -0.0301(4) 0.1857(5) -0.1600(3)
C4 C -0.1082(4) 0.0200(4) -0.1044(3)
C5 C -0.2108(4) -0.1373(4) -0.1644(3)
C6 C -0.6113(7) 0.2296(6) -0.0065(5)
C7 C -0.7862(7) -0.1559(9) -0.1472(5)
C8 C -0.5258(7) -0.1140(7) 0.0711(5)
O2A O -0.8732(4) -0.1176(5) 0.0733(2)
Sn1B Sn -0.37165(4) -0.36417(3) -0.35853
loop_
_geom_bond_atom_site_label_1
_geom_bond_atom_site_label_2
_geom_bond_site_symmetry_1
_geom_bond_site_symmetry_2
Sn1 O1 1_555 1_555
O1 C1 1_555 1_555
O2 C5 1_555 1_555
O3 C1 1_555 1_555
O4 C5 1_555 1_555
N1 C2 1_555 1_555
C1 C2 1_555 1_555
C2 C3 1_555 1_555
C3 C4 1_555 1_555
C4 C5 1_555 1_555
C6 Sn1 1_555 1_555
C7 Sn1 1_555 1_555
C8 Sn1 1_555 1_555
O2A Sn1 1_555 1_555
Sn1B O2 1_555 1_555

#END
