
#######################################################################
#
#                 Cambridge Crystallographic Data Centre
#                                CCDC 
#
#######################################################################
#
# If this CIF has been generated from an entry in the Cambridge 
# Structural Database, then it will include bibliographic, chemical, 
# crystal, experimental, refinement or atomic coordinate data resulting 
# from the CCDC's data processing and validation procedures.
#
#######################################################################

data_SANWIO
_symmetry_cell_setting           orthorhombic
_symmetry_space_group_name_H-M   'P n a 21'
_symmetry_Int_Tables_number      33
_space_group_name_Hall           'P 2c -2n'
loop_
_symmetry_equiv_pos_site_id
_symmetry_equiv_pos_as_xyz
1 x,y,z
2 -x,-y,1/2+z
3 1/2+x,1/2-y,z
4 1/2-x,1/2+y,1/2+z
_cell_length_a                   19.2667(17)
_cell_length_b                   11.1275(10)
_cell_length_c                   6.6484(6)
_cell_angle_alpha                90
_cell_angle_beta                 90
_cell_angle_gamma                90
_cell_volume                     1425.35
loop_
_atom_site_label
_atom_site_type_symbol
_atom_site_fract_x
_atom_site_fract_y
_atom_site_fract_z
Mn1 Mn 0.42022(3) 0.35684(5) 0.38082(9)
Cl1 Cl 0.43362(7) 0.14881(11) 0.2383(2)
O1 O 0.40861(15) 0.5439(3) 0.5082(5)
O2 O 0.50410(15) 0.5601(3) 0.6911(5)
O3 O 0.4884(2) 0.3213(3) 0.6261(6)
N1 N 0.33283(17) 0.4169(3) 0.1801(5)
N2 N 0.32096(17) 0.3021(3) 0.5410(6)
C1 C 0.4510(2) 0.5996(4) 0.6111(7)
H1 H 0.4419 0.6808 0.6308
C2 C 0.3389(2) 0.4735(4) 0.0080(7)
H2 H 0.3833 0.4857 -0.0432
C3 C 0.2829(2) 0.5162(4) -0.1022(9)
H3 H 0.2899 0.5567 -0.2229
C4 C 0.2176(3) 0.4978(4) -0.0303(8)
H4 H 0.1793 0.5247 -0.1025
C5 C 0.2086(2) 0.4383(4) 0.1522(8)
C6 C 0.1419(2) 0.4161(5) 0.2389(9)
H5 H 0.1022 0.4425 0.1724
C7 C 0.1356(2) 0.3578(5) 0.4139(10)
H6 H 0.0914 0.3441 0.4653
C8 C 0.1948(2) 0.3157(4) 0.5257(8)
C9 C 0.1914(3) 0.2533(5) 0.7057(9)
H7 H 0.1484 0.2363 0.7625
C10 C 0.2498(3) 0.2170(4) 0.7992(8)
H8 H 0.2472 0.1744 0.9194
C11 C 0.3145(3) 0.2439(4) 0.7137(7)
H9 H 0.3545 0.2199 0.7811
C12 C 0.2620(2) 0.3380(4) 0.4456(7)
C13 C 0.2680(2) 0.3987(4) 0.2551(7)
H12 H 0.501(2) 0.2578(18) 0.666(6)
H13 H 0.502(2) 0.383(2) 0.678(7)
Mn1A Mn 0.57978(3) 0.64316(5) 0.88082(9)
O2A O 0.49590(15) 0.4399(3) 0.1911(5)
O4 O 0.4843(2) 0.8783(3) 0.3350(6)
H10 H 0.5169(17) 0.874(3) 0.417(6)
H11 H 0.4729(19) 0.948(2) 0.311(6)
loop_
_geom_bond_atom_site_label_1
_geom_bond_atom_site_label_2
_geom_bond_site_symmetry_1
_geom_bond_site_symmetry_2
Mn1 Cl1 1_555 1_555
O1 Mn1 1_555 1_555
O2 C1 1_555 1_555
O3 Mn1 1_555 1_555
O4 H10 1_555 1_555
N1 Mn1 1_555 1_555
N2 Mn1 1_555 1_555
C1 O1 1_555 1_555
H1 C1 1_555 1_555
C2 N1 1_555 1_555
H2 C2 1_555 1_555
C3 C2 1_555 1_555
H3 C3 1_555 1_555
C4 C3 1_555 1_555
H4 C4 1_555 1_555
C5 C4 1_555 1_555
C6 C5 1_555 1_555
H5 C6 1_555 1_555
C7 C6 1_555 1_555
H6 C7 1_555 1_555
C8 C7 1_555 1_555
C9 C8 1_555 1_555
H7 C9 1_555 1_555
C10 C9 1_555 1_555
H8 C10 1_555 1_555
C11 N2 1_555 1_555
H9 C11 1_555 1_555
C12 N2 1_555 1_555
C13 N1 1_555 1_555
H11 O4 1_555 1_555
H12 O3 1_555 1_555
H13 O3 1_555 1_555
Mn1A O2 1_555 1_555
O2A Mn1 1_555 1_555
C5 C13 1_555 1_555
C8 C12 1_555 1_555
C10 C11 1_555 1_555
C12 C13 1_555 1_555

#END
