
#######################################################################
#
#                 Cambridge Crystallographic Data Centre
#                                CCDC 
#
#######################################################################
#
# If this CIF has been generated from an entry in the Cambridge 
# Structural Database, then it will include bibliographic, chemical, 
# crystal, experimental, refinement or atomic coordinate data resulting 
# from the CCDC's data processing and validation procedures.
#
#######################################################################

data_SANZAJ
_symmetry_cell_setting           triclinic
_symmetry_space_group_name_H-M   'P -1'
_symmetry_Int_Tables_number      2
_space_group_name_Hall           '-P 1'
loop_
_symmetry_equiv_pos_site_id
_symmetry_equiv_pos_as_xyz
1 x,y,z
2 -x,-y,-z
_cell_length_a                   6.6920(13)
_cell_length_b                   7.6470(15)
_cell_length_c                   12.997(3)
_cell_angle_alpha                83.72(3)
_cell_angle_beta                 77.11(3)
_cell_angle_gamma                80.69(3)
_cell_volume                     637.944
loop_
_atom_site_label
_atom_site_type_symbol
_atom_site_fract_x
_atom_site_fract_y
_atom_site_fract_z
Cu1 Cu 0.0000 0.0000 0.0000
O1 O -0.20981(15) 0.02994(13) 0.13387(8)
O2 O -0.1009(2) 0.2434(2) 0.20548(9)
O3 O -0.1901(2) -0.21625(13) -0.03357(9)
O4 O -0.4264(2) 0.3488(2) 0.57250(9)
O5 O -0.7544(2) 0.3383(2) 0.62520(11)
N1 N -0.5903(3) 0.3110(2) 0.56077(11)
N2 N -0.8154(2) -0.17808(15) 0.07894(9)
C1 C -0.2230(2) 0.1375(2) 0.20391(11)
C2 C -0.4121(2) 0.1379(2) 0.29334(11)
C3 C -0.4140(2) 0.2193(2) 0.38455(11)
C4 C -0.5915(3) 0.2279(2) 0.46367(12)
C5 C -0.7680(3) 0.1638(2) 0.45455(13)
C6 C -0.7642(3) 0.0825(2) 0.36381(14)
C7 C -0.5856(2) 0.0673(2) 0.28352(12)
C8 C -0.6109(2) -0.2106(2) 0.03762(11)
C9 C -0.4750(2) -0.3321(2) 0.08491(11)
C10 C -0.5532(2) -0.4207(2) 0.18103(12)
C11 C -0.7637(2) -0.3887(2) 0.22432(12)
C12 C -0.8899(2) -0.2670(2) 0.17124(11)
C13 C -0.2499(2) -0.3687(2) 0.03120(12)
H1 H -0.303(3) 0.270(2) 0.3900(14)
H2 H -0.884(3) 0.174(3) 0.5109(17)
H3 H -0.880(3) 0.036(3) 0.3554(17)
H4 H -0.581(3) 0.014(2) 0.2206(15)
H5 H -0.561(3) -0.142(2) -0.0258(14)
H6 H -0.464(3) -0.500(3) 0.2169(15)
H7 H -0.823(3) -0.448(3) 0.2883(16)
H8 H -1.035(3) -0.243(2) 0.2004(14)
H9 H -0.231(3) -0.470(3) -0.0096(15)
H10 H -0.170(3) -0.404(2) 0.0864(14)
H11 H -0.112(4) -0.246(3) -0.085(2)
Cu1_2 Cu -1.0000 0.0000 0.0000
Cu1_3 Cu 1.0000 0.0000 0.0000
O1A O 0.20981(15) -0.02994(13) -0.13387(8)
O2A O 0.1009(2) -0.2434(2) -0.20548(9)
O3A O 0.1901(2) 0.21625(13) 0.03357(9)
O4A O 0.4264(2) -0.3488(2) -0.57250(9)
O5A O 0.7544(2) -0.3383(2) -0.62520(11)
N1A N 0.5903(3) -0.3110(2) -0.56077(11)
N2A N 0.8154(2) 0.17808(15) -0.07894(9)
N2_2 N 0.1846(2) -0.17808(15) 0.07894(9)
N2A_2 N -0.1846(2) 0.17808(15) -0.07894(9)
C1A C 0.2230(2) -0.1375(2) -0.20391(11)
C2A C 0.4121(2) -0.1379(2) -0.29334(11)
C3A C 0.4140(2) -0.2193(2) -0.38455(11)
C4A C 0.5915(3) -0.2279(2) -0.46367(12)
C5A C 0.7680(3) -0.1638(2) -0.45455(13)
C6A C 0.7642(3) -0.0825(2) -0.36381(14)
C7A C 0.5856(2) -0.0673(2) -0.28352(12)
C8A C 0.6109(2) 0.2106(2) -0.03762(11)
C9A C 0.4750(2) 0.3321(2) -0.08491(11)
C10A C 0.5532(2) 0.4207(2) -0.18103(12)
C11A C 0.7637(2) 0.3887(2) -0.22432(12)
C12A C 0.8899(2) 0.2670(2) -0.17124(11)
C13A C 0.2499(2) 0.3687(2) -0.03120(12)
H1A H 0.303(3) -0.270(2) -0.3900(14)
H2A H 0.884(3) -0.174(3) -0.5109(17)
H3A H 0.880(3) -0.036(3) -0.3554(17)
H4A H 0.581(3) -0.014(2) -0.2206(15)
H5A H 0.561(3) 0.142(2) 0.0258(14)
H6A H 0.464(3) 0.500(3) -0.2169(15)
H7A H 0.823(3) 0.448(3) -0.2883(16)
H8A H 1.035(3) 0.243(2) -0.2004(14)
H9A H 0.231(3) 0.470(3) 0.0096(15)
H10A H 0.170(3) 0.404(2) -0.0864(14)
H11A H 0.112(4) 0.246(3) 0.085(2)
loop_
_geom_bond_atom_site_label_1
_geom_bond_atom_site_label_2
_geom_bond_site_symmetry_1
_geom_bond_site_symmetry_2
Cu1 O1 1_555 1_555
O1 C1 1_555 1_555
O2 C1 1_555 1_555
O3 Cu1 1_555 1_555
O4 N1 1_555 1_555
O5 N1 1_555 1_555
N1 C4 1_555 1_555
N2 C8 1_555 1_555
C1 C2 1_555 1_555
C2 C3 1_555 1_555
C3 C4 1_555 1_555
C4 C5 1_555 1_555
C5 C6 1_555 1_555
C6 C7 1_555 1_555
C7 C2 1_555 1_555
C8 C9 1_555 1_555
C9 C10 1_555 1_555
C10 C11 1_555 1_555
C11 C12 1_555 1_555
C12 N2 1_555 1_555
C13 O3 1_555 1_555
H1 C3 1_555 1_555
H2 C5 1_555 1_555
H3 C6 1_555 1_555
H4 C7 1_555 1_555
H5 C8 1_555 1_555
H6 C10 1_555 1_555
H7 C11 1_555 1_555
H8 C12 1_555 1_555
H9 C13 1_555 1_555
H10 C13 1_555 1_555
H11 O3 1_555 1_555
Cu1_2 N2 1_555 1_555
Cu1_3 N2A 1_555 1_555
O1A Cu1 1_555 1_555
O2A C1A 1_555 1_555
O3A Cu1 1_555 1_555
O4A N1A 1_555 1_555
O5A N1A 1_555 1_555
N1A C4A 1_555 1_555
N2A C8A 1_555 1_555
N2_2 Cu1 1_555 1_555
N2A_2 Cu1 1_555 1_555
C1A O1A 1_555 1_555
C2A C1A 1_555 1_555
C3A C2A 1_555 1_555
C4A C3A 1_555 1_555
C5A C4A 1_555 1_555
C6A C5A 1_555 1_555
C7A C2A 1_555 1_555
C8A C9A 1_555 1_555
C9A C10A 1_555 1_555
C10A C11A 1_555 1_555
C11A C12A 1_555 1_555
C12A N2A 1_555 1_555
C13A O3A 1_555 1_555
H1A C3A 1_555 1_555
H2A C5A 1_555 1_555
H3A C6A 1_555 1_555
H4A C7A 1_555 1_555
H5A C8A 1_555 1_555
H6A C10A 1_555 1_555
H7A C11A 1_555 1_555
H8A C12A 1_555 1_555
H9A C13A 1_555 1_555
H10A C13A 1_555 1_555
H11A O3A 1_555 1_555
C9 C13 1_555 1_555
C6A C7A 1_555 1_555
C9A C13A 1_555 1_555

#END
