
#######################################################################
#
#                 Cambridge Crystallographic Data Centre
#                                CCDC 
#
#######################################################################
#
# If this CIF has been generated from an entry in the Cambridge 
# Structural Database, then it will include bibliographic, chemical, 
# crystal, experimental, refinement or atomic coordinate data resulting 
# from the CCDC's data processing and validation procedures.
#
#######################################################################

data_SAPBER
_symmetry_cell_setting           monoclinic
_symmetry_space_group_name_H-M   'C 2/c'
_symmetry_Int_Tables_number      15
_space_group_name_Hall           '-C 2yn'
loop_
_symmetry_equiv_pos_site_id
_symmetry_equiv_pos_as_xyz
1 x,y,z
2 1/2+x,1/2+y,z
3 -x,y,1/2-z
4 1/2-x,1/2+y,1/2-z
5 -x,-y,-z
6 1/2-x,1/2-y,-z
7 x,-y,1/2+z
8 1/2+x,1/2-y,1/2+z
_cell_length_a                   14.5546(6)
_cell_length_b                   11.5095(4)
_cell_length_c                   13.9115(6)
_cell_angle_alpha                90
_cell_angle_beta                 90.487(2)
_cell_angle_gamma                90
_cell_volume                     2330.32
loop_
_atom_site_label
_atom_site_type_symbol
_atom_site_fract_x
_atom_site_fract_y
_atom_site_fract_z
Cu1 Cu 0.2500 0.2500 0.5000
N1 N 0.38114(9) 0.28862(12) 0.49034(9)
O1 O 0.24538(8) 0.31140(11) 0.36821(8)
O2 O 0.33305(8) 0.39563(12) 0.25818(8)
O3 O 0.23959(8) 0.44551(11) 0.57931(8)
O4 O 0.18872(9) 0.61054(12) 0.64210(10)
H1 H 0.2380(17) 0.610(2) 0.6754(16)
O5 O 0.12605(10) 0.59630(18) 0.28900(9)
O6 O 0.22089(10) 0.61049(15) 0.41248(10)
H2 H 0.2527(19) 0.629(2) 0.370(2)
C1 C 0.40153(11) 0.34157(16) 0.40714(11)
C2 C 0.48814(13) 0.3815(2) 0.38824(14)
H3 H 0.4995(15) 0.4195(19) 0.3323(15)
C3 C 0.55649(14) 0.3655(2) 0.45715(15)
H4 H 0.6130(18) 0.391(2) 0.4451(16)
C4 C 0.53578(13) 0.31102(18) 0.54120(13)
H5 H 0.5775(14) 0.3024(18) 0.5897(14)
C5 C 0.44737(12) 0.27373(16) 0.55611(12)
H6 H 0.4297(13) 0.2373(14) 0.6079(14)
C6 C 0.32148(11) 0.35129(15) 0.33817(11)
C7 C 0.08886(11) 0.51270(14) 0.53782(11)
C8 C 0.07126(11) 0.53943(15) 0.44159(11)
C9 C 0.01711(11) 0.47410(15) 0.59482(12)
H7 H 0.0264(13) 0.4589(15) 0.6599(13)
C10 C 0.18161(11) 0.51963(15) 0.58646(11)
C11 C 0.14177(12) 0.58414(17) 0.37275(12)
Cu1A Cu -0.2500 0.7500 0.5000
N1E N 0.11886(9) 0.21138(12) 0.50966(9)
O1E O 0.25462(8) 0.18860(11) 0.63179(8)
O2E O 0.16695(8) 0.10437(12) 0.74182(8)
O3D O -0.23959(8) 0.55449(11) 0.42069(8)
O3E O 0.26041(8) 0.05449(11) 0.42069(8)
O4D O -0.18872(9) 0.38946(12) 0.35790(10)
H1D H -0.2380(17) 0.390(2) 0.3246(16)
O5D O -0.12605(10) 0.40370(18) 0.71100(9)
O6D O -0.22089(10) 0.38951(15) 0.58752(10)
H2D H -0.2527(19) 0.371(2) 0.630(2)
C1E C 0.09847(11) 0.15843(16) 0.59286(11)
C2E C 0.01186(13) 0.1185(2) 0.61176(14)
H3E H 0.0005(15) 0.0805(19) 0.6677(15)
C3E C -0.05649(14) 0.1345(2) 0.54285(15)
H4E H -0.1130(18) 0.109(2) 0.5549(16)
C4E C -0.03578(13) 0.18898(18) 0.45880(13)
H5E H -0.0775(14) 0.1976(18) 0.4103(14)
C5E C 0.05263(12) 0.22627(16) 0.44389(12)
H6E H 0.0703(13) 0.2627(14) 0.3921(14)
C6E C 0.17852(11) 0.14871(15) 0.66183(11)
C7D C -0.08886(11) 0.48730(14) 0.46218(11)
C8D C -0.07126(11) 0.46057(15) 0.55841(11)
C9D C -0.01711(11) 0.52590(15) 0.40518(12)
H7D H -0.0264(13) 0.5411(15) 0.3401(13)
C10D C -0.18161(11) 0.48037(15) 0.41354(11)
C11D C -0.14177(12) 0.41586(17) 0.62725(12)
O7 O 0.33615(10) 0.35078(16) 0.76704(10)
H8 H 0.3333(18) 0.416(2) 0.7376(19)
H9 H 0.319(2) 0.296(3) 0.729(2)
loop_
_geom_bond_atom_site_label_1
_geom_bond_atom_site_label_2
_geom_bond_site_symmetry_1
_geom_bond_site_symmetry_2
Cu1 N1 1_555 1_555
N1 C1 1_555 1_555
O1 Cu1 1_555 1_555
O2 C6 1_555 1_555
O3 Cu1 1_555 1_555
O4 H1 1_555 1_555
O5 C11 1_555 1_555
O6 H2 1_555 1_555
C1 C2 1_555 1_555
C2 H3 1_555 1_555
C3 C2 1_555 1_555
H4 C3 1_555 1_555
C4 C3 1_555 1_555
H5 C4 1_555 1_555
C5 N1 1_555 1_555
H6 C5 1_555 1_555
C6 O1 1_555 1_555
C7 C8 1_555 1_555
C8 C11 1_555 1_555
C9 C7 1_555 1_555
H7 C9 1_555 1_555
C10 O3 1_555 1_555
C11 O6 1_555 1_555
O7 H8 1_555 1_555
H9 O7 1_555 1_555
Cu1A O3D 1_555 1_555
N1E Cu1 1_555 1_555
O1E Cu1 1_555 1_555
O2E C6E 1_555 1_555
O3D C10D 1_555 1_555
O3E Cu1 1_555 1_555
O4D H1D 1_555 1_555
O5D C11D 1_555 1_555
O6D H2D 1_555 1_555
C1E N1E 1_555 1_555
C2E C1E 1_555 1_555
H3E C2E 1_555 1_555
C3E C2E 1_555 1_555
H4E C3E 1_555 1_555
C4E C3E 1_555 1_555
H5E C4E 1_555 1_555
C5E N1E 1_555 1_555
H6E C5E 1_555 1_555
C6E O1E 1_555 1_555
C7D C8D 1_555 1_555
C8D C9 1_555 1_555
C9D C8 1_555 1_555
H7D C9D 1_555 1_555
C10D O4D 1_555 1_555
C11D O6D 1_555 1_555
O4 C10 1_555 1_555
C1 C6 1_555 1_555
C4 C5 1_555 1_555
C7 C10 1_555 1_555
C1E C6E 1_555 1_555
C4E C5E 1_555 1_555
C7D C9D 1_555 1_555
C7D C10D 1_555 1_555
C8D C11D 1_555 1_555

#END
