
#######################################################################
#
#                 Cambridge Crystallographic Data Centre
#                                CCDC 
#
#######################################################################
#
# If this CIF has been generated from an entry in the Cambridge 
# Structural Database, then it will include bibliographic, chemical, 
# crystal, experimental, refinement or atomic coordinate data resulting 
# from the CCDC's data processing and validation procedures.
#
#######################################################################

data_SAPBIW
_symmetry_cell_setting           cubic
_symmetry_space_group_name_H-M   'I a 3 d'
_symmetry_Int_Tables_number      230
_space_group_name_Hall           '-I 4bd 2c 3'
loop_
_symmetry_equiv_pos_site_id
_symmetry_equiv_pos_as_xyz
1 x,y,z
2 1/2-x,-y,1/2+z
3 -x,1/2+y,1/2-z
4 1/2+x,1/2-y,-z
5 z,x,y
6 1/2+z,1/2-x,-y
7 1/2-z,-x,1/2+y
8 -z,1/2+x,1/2-y
9 y,z,x
10 -y,1/2+z,1/2-x
11 1/2+y,1/2-z,-x
12 1/2-y,-z,1/2+x
13 3/4+y,1/4+x,1/4-z
14 3/4-y,3/4-x,3/4-z
15 1/4+y,1/4-x,3/4+z
16 1/4-y,3/4+x,1/4+z
17 3/4+x,1/4+z,1/4-y
18 1/4-x,3/4+z,1/4+y
19 3/4-x,3/4-z,3/4-y
20 1/4+x,1/4-z,3/4+y
21 3/4+z,1/4+y,1/4-x
22 1/4+z,1/4-y,3/4+x
23 1/4-z,3/4+y,1/4+x
24 3/4-z,3/4-y,3/4-x
25 1/2+x,1/2+y,1/2+z
26 -x,1/2-y,z
27 1/2-x,y,-z
28 x,-y,1/2-z
29 1/2+z,1/2+x,1/2+y
30 z,-x,1/2-y
31 -z,1/2-x,y
32 1/2-z,x,-y
33 1/2+y,1/2+z,1/2+x
34 1/2-y,z,-x
35 y,-z,1/2-x
36 -y,1/2-z,x
37 1/4+y,3/4+x,3/4-z
38 1/4-y,1/4-x,1/4-z
39 3/4+y,3/4-x,1/4+z
40 3/4-y,1/4+x,3/4+z
41 1/4+x,3/4+z,3/4-y
42 3/4-x,1/4+z,3/4+y
43 1/4-x,1/4-z,1/4-y
44 3/4+x,3/4-z,1/4+y
45 1/4+z,3/4+y,3/4-x
46 3/4+z,3/4-y,1/4+x
47 3/4-z,1/4+y,3/4+x
48 1/4-z,1/4-y,1/4-x
49 -x,-y,-z
50 1/2+x,y,1/2-z
51 x,1/2-y,1/2+z
52 1/2-x,1/2+y,z
53 -z,-x,-y
54 1/2-z,1/2+x,y
55 1/2+z,x,1/2-y
56 z,1/2-x,1/2+y
57 -y,-z,-x
58 y,1/2-z,1/2+x
59 1/2-y,1/2+z,x
60 1/2+y,z,1/2-x
61 1/4-y,3/4-x,3/4+z
62 1/4+y,1/4+x,1/4+z
63 3/4-y,3/4+x,1/4-z
64 3/4+y,1/4-x,3/4-z
65 1/4-x,3/4-z,3/4+y
66 3/4+x,1/4-z,3/4-y
67 1/4+x,1/4+z,1/4+y
68 3/4-x,3/4+z,1/4-y
69 1/4-z,3/4-y,3/4+x
70 3/4-z,3/4+y,1/4-x
71 3/4+z,1/4-y,3/4-x
72 1/4+z,1/4+y,1/4+x
73 1/2-x,1/2-y,1/2-z
74 x,1/2+y,-z
75 1/2+x,-y,z
76 -x,y,1/2+z
77 1/2-z,1/2-x,1/2-y
78 -z,x,1/2+y
79 z,1/2+x,-y
80 1/2+z,-x,y
81 1/2-y,1/2-z,1/2-x
82 1/2+y,-z,x
83 -y,z,1/2+x
84 y,1/2+z,-x
85 3/4-y,1/4-x,1/4+z
86 3/4+y,3/4+x,3/4+z
87 1/4-y,1/4+x,3/4-z
88 1/4+y,3/4-x,1/4-z
89 3/4-x,1/4-z,1/4+y
90 1/4+x,3/4-z,1/4-y
91 3/4+x,3/4+z,3/4+y
92 1/4-x,1/4+z,3/4-y
93 3/4-z,1/4-y,1/4+x
94 1/4-z,1/4+y,3/4-x
95 1/4+z,3/4-y,1/4-x
96 3/4+z,3/4+y,3/4+x
_cell_length_a                   69.12(2)
_cell_length_b                   69.12(2)
_cell_length_c                   69.12(2)
_cell_angle_alpha                90
_cell_angle_beta                 90
_cell_angle_gamma                90
_cell_volume                     330226
loop_
_atom_site_label
_atom_site_type_symbol
_atom_site_fract_x
_atom_site_fract_y
_atom_site_fract_z
Zn1 Zn 0.48946(2) 0.22986(2) 0.18967(2)
Zn2 Zn 0.436884(18) 0.224604(18) 0.12422(2)
N1 N 0.45012(12) 0.24370(14) 0.14342(14)
C1 C 0.45954(14) 0.23611(17) 0.15833(16)
H1 H 0.4566 0.2233 0.1613
N2 N 0.47283(12) 0.24486(13) 0.16962(12)
C2 C 0.47555(16) 0.26318(16) 0.16400(18)
C3 C 0.46633(16) 0.27318(17) 0.14825(18)
C4 C 0.45317(19) 0.26317(19) 0.13844(19)
N3 N 0.47379(13) 0.29166(12) 0.14588(15)
C5 C 0.48642(17) 0.29169(18) 0.16084(17)
H2 H 0.4937 0.3027 0.1636
N4 N 0.48835(13) 0.27558(14) 0.17179(14)
N5 N 0.44332(13) 0.27191(12) 0.12346(15)
H3 H 0.4457 0.2838 0.1205
H4 H 0.4348 0.2655 0.1171
O1 O 0.5000 0.2500 0.20618(13)
C6 C 0.4709(2) 0.1973(2) 0.1955(2)
O2 O 0.47684(16) 0.21104(14) 0.20520(17)
O3 O 0.47244(17) 0.19581(15) 0.17792(16)
C7 C 0.45977(17) 0.18176(18) 0.2061(2)
C8 C 0.4512(2) 0.16717(18) 0.19656(19)
H5 H 0.4518 0.1668 0.1831
C9 C 0.4412(2) 0.15233(19) 0.20649(18)
H6 H 0.4356 0.1422 0.1995
C10 C 0.4395(2) 0.15267(18) 0.22581(19)
C11 C 0.4471(3) 0.1681(2) 0.2348(2)
H7 H 0.4447 0.1697 0.2480
C12 C 0.4584(3) 0.1821(2) 0.2254(2)
H8 H 0.4649 0.1916 0.2325
C13 C 0.3988(2) 0.0930(2) 0.2678(2)
O4 O 0.38807(12) 0.08232(10) 0.25832(11)
O5 O 0.3996(2) 0.09167(18) 0.28525(14)
C14 C 0.40962(17) 0.10843(17) 0.25668(19)
C15 C 0.4099(2) 0.10877(18) 0.23774(18)
H9 H 0.4034 0.0992 0.2308
C16 C 0.4198(2) 0.1235(2) 0.22766(19)
H10 H 0.4200 0.1232 0.2142
C17 C 0.4290(2) 0.13786(18) 0.2366(2)
C18 C 0.4296(3) 0.1369(2) 0.2560(2)
H11 H 0.4371 0.1456 0.2630
C19 C 0.4191(3) 0.1228(2) 0.2656(2)
H12 H 0.4185 0.1233 0.2791
C20 C 0.4252(2) 0.1952(2) 0.1457(2)
O6 O 0.43832(11) 0.19874(11) 0.13372(14)
O7 O 0.41450(14) 0.20772(12) 0.15138(18)
C21 C 0.42114(16) 0.17411(17) 0.15106(15)
C22 C 0.40605(19) 0.16913(18) 0.16246(18)
H13 H 0.3982 0.1788 0.1676
C23 C 0.40208(19) 0.14982(18) 0.1666(2)
H14 H 0.3915 0.1466 0.1743
C24 C 0.41367(18) 0.13582(16) 0.15948(17)
C25 C 0.42890(17) 0.14068(18) 0.14821(17)
H15 H 0.4369 0.1310 0.1434
C26 C 0.43270(17) 0.16000(16) 0.14380(18)
H16 H 0.4431 0.1632 0.1359
Zn1Y Zn 0.51054(2) 0.27014(2) 0.18967(2)
Zn1BC Zn 0.27014(2) 0.31033(2) 0.01054(2)
Zn2Y Zn 0.563116(18) 0.275396(18) 0.12422(2)
Zn2IC Zn 0.474604(18) 0.313116(18) 0.12578(2)
Zn2XB Zn 0.37578(2) 0.063116(18) 0.275396(18)
Zn2U Zn 0.37422(2) 0.025396(18) 0.186884(18)
Zn2JB Zn 0.525396(18) 0.186884(18) 0.12578(2)
N1Y N 0.54988(12) 0.25630(14) 0.14342(14)
C1Y C 0.54046(14) 0.26389(17) 0.15833(16)
H1Y H 0.5434 0.2767 0.1613
N2Y N 0.52717(12) 0.25514(13) 0.16962(12)
C2Y C 0.52445(16) 0.23682(16) 0.16400(18)
C3Y C 0.53367(16) 0.22682(17) 0.14825(18)
C4Y C 0.54683(19) 0.23683(19) 0.13844(19)
N3Y N 0.52621(13) 0.20834(12) 0.14588(15)
N3JB N 0.45834(12) 0.22379(13) 0.10412(15)
N3IC N 0.54166(12) 0.27621(13) 0.10412(15)
C5Y C 0.51358(17) 0.20831(18) 0.16084(17)
H2Y H 0.5063 0.1973 0.1636
N4Y N 0.51165(13) 0.22442(14) 0.17179(14)
N5Y N 0.55668(13) 0.22809(12) 0.12346(15)
H3Y H 0.5543 0.2162 0.1205
H4Y H 0.5652 0.2345 0.1171
C6BC C 0.3027(2) 0.3045(2) 0.0291(2)
O2BC O 0.28896(14) 0.29480(17) 0.02316(16)
O2Y O 0.52316(16) 0.28896(14) 0.20520(17)
O3BC O 0.30419(15) 0.32208(16) 0.02756(17)
C7BC C 0.31824(18) 0.2939(2) 0.04023(17)
C8BC C 0.33283(18) 0.30344(19) 0.0488(2)
H5BC H 0.3332 0.3169 0.0482
C9BC C 0.34767(19) 0.29351(18) 0.0588(2)
H6BC H 0.3578 0.3005 0.0644
C10BC C 0.34733(18) 0.27419(19) 0.0605(2)
C11BC C 0.3319(2) 0.2652(2) 0.0529(3)
H7BC H 0.3303 0.2520 0.0553
C12BC C 0.3179(2) 0.2746(2) 0.0416(3)
H8BC H 0.3084 0.2675 0.0351
C13BC C 0.4070(2) 0.2322(2) 0.1012(2)
O4BC O 0.41768(10) 0.24168(11) 0.11193(12)
O4GB O 0.58232(10) 0.25832(11) 0.11193(12)
O5BC O 0.40833(18) 0.21475(14) 0.1004(2)
C14BC C 0.39157(17) 0.24332(19) 0.09038(17)
C15BC C 0.39123(18) 0.26226(18) 0.0901(2)
H9BC H 0.4008 0.2692 0.0966
C16BC C 0.3765(2) 0.27234(19) 0.0802(2)
H10BC H 0.3768 0.2858 0.0800
C17BC C 0.36214(18) 0.2634(2) 0.0710(2)
C18BC C 0.3631(2) 0.2440(2) 0.0704(3)
H11BC H 0.3544 0.2370 0.0629
C19BC C 0.3772(2) 0.2344(2) 0.0809(3)
H12BC H 0.3767 0.2209 0.0815
C20U C 0.3957(2) 0.0548(2) 0.1752(2)
O6U O 0.38372(14) 0.05126(11) 0.18832(11)
O6Y O 0.56168(11) 0.30126(11) 0.13372(14)
O7U O 0.40138(18) 0.04228(12) 0.16450(14)
C21U C 0.40106(15) 0.07589(17) 0.17114(16)
C22U C 0.41246(18) 0.08087(18) 0.15605(19)
H13U H 0.4176 0.0712 0.1482
C23U C 0.4166(2) 0.10018(18) 0.15208(19)
H14U H 0.4243 0.1034 0.1415
C24U C 0.40948(17) 0.11418(16) 0.16367(18)
C25U C 0.39821(17) 0.10932(18) 0.17890(17)
H15U H 0.3934 0.1190 0.1869
C26U C 0.39380(18) 0.09000(16) 0.18270(17)
H16U H 0.3859 0.0868 0.1931
loop_
_geom_bond_atom_site_label_1
_geom_bond_atom_site_label_2
_geom_bond_site_symmetry_1
_geom_bond_site_symmetry_2
Zn1 N2 1_555 1_555
Zn2 N1 1_555 1_555
N1 C1 1_555 1_555
C1 H1 1_555 1_555
N2 C1 1_555 1_555
C2 N2 1_555 1_555
C3 C2 1_555 1_555
C4 N1 1_555 1_555
N3 C3 1_555 1_555
C5 N3 1_555 1_555
H2 C5 1_555 1_555
N4 C2 1_555 1_555
N5 C4 1_555 1_555
H3 N5 1_555 1_555
H4 N5 1_555 1_555
O1 Zn1 1_555 1_555
C6 O2 1_555 1_555
O2 Zn1 1_555 1_555
O3 C6 1_555 1_555
C7 C6 1_555 1_555
C8 C7 1_555 1_555
H5 C8 1_555 1_555
C9 C8 1_555 1_555
H6 C9 1_555 1_555
C10 C9 1_555 1_555
C11 C10 1_555 1_555
H7 C11 1_555 1_555
C12 C7 1_555 1_555
H8 C12 1_555 1_555
C13 O4 1_555 1_555
O4 Zn2XB 1_555 1_555
O5 C13 1_555 1_555
C14 C13 1_555 1_555
C15 C14 1_555 1_555
H9 C15 1_555 1_555
C16 C15 1_555 1_555
H10 C16 1_555 1_555
C17 C10 1_555 1_555
C18 C17 1_555 1_555
H11 C18 1_555 1_555
C19 C14 1_555 1_555
H12 C19 1_555 1_555
C20 O6 1_555 1_555
O6 Zn2 1_555 1_555
O7 C20 1_555 1_555
C21 C20 1_555 1_555
C22 C21 1_555 1_555
H13 C22 1_555 1_555
C23 C22 1_555 1_555
H14 C23 1_555 1_555
C24 C23 1_555 1_555
C25 C24 1_555 1_555
H15 C25 1_555 1_555
C26 C21 1_555 1_555
H16 C26 1_555 1_555
Zn1Y N4 1_555 1_555
Zn1BC O2BC 1_555 1_555
Zn2Y N1Y 1_555 1_555
Zn2IC N3 1_555 1_555
Zn2U O6U 1_555 1_555
Zn2JB N3Y 1_555 1_555
N1Y C1Y 1_555 1_555
C1Y H1Y 1_555 1_555
N2Y Zn1Y 1_555 1_555
C2Y N2Y 1_555 1_555
C3Y C2Y 1_555 1_555
C4Y N1Y 1_555 1_555
N3Y C3Y 1_555 1_555
N3JB Zn2 1_555 1_555
N3IC Zn2Y 1_555 1_555
C5Y N3Y 1_555 1_555
H2Y C5Y 1_555 1_555
N4Y Zn1 1_555 1_555
N5Y C4Y 1_555 1_555
H3Y N5Y 1_555 1_555
H4Y N5Y 1_555 1_555
C6BC O2BC 1_555 1_555
O2Y Zn1Y 1_555 1_555
O3BC C6BC 1_555 1_555
C7BC C6BC 1_555 1_555
C8BC C7BC 1_555 1_555
H5BC C8BC 1_555 1_555
C9BC C8BC 1_555 1_555
H6BC C9BC 1_555 1_555
C10BC C9BC 1_555 1_555
C11BC C10BC 1_555 1_555
H7BC C11BC 1_555 1_555
C12BC C7BC 1_555 1_555
H8BC C12BC 1_555 1_555
C13BC O4BC 1_555 1_555
O4BC Zn2 1_555 1_555
O4GB Zn2Y 1_555 1_555
O5BC C13BC 1_555 1_555
C14BC C13BC 1_555 1_555
C15BC C14BC 1_555 1_555
H9BC C15BC 1_555 1_555
C16BC C15BC 1_555 1_555
H10BC C16BC 1_555 1_555
C17BC C10BC 1_555 1_555
C18BC C17BC 1_555 1_555
H11BC C18BC 1_555 1_555
C19BC C14BC 1_555 1_555
H12BC C19BC 1_555 1_555
C20U O6U 1_555 1_555
O6Y Zn2Y 1_555 1_555
O7U C20U 1_555 1_555
C21U C20U 1_555 1_555
C22U C21U 1_555 1_555
H13U C22U 1_555 1_555
C23U C22U 1_555 1_555
H14U C23U 1_555 1_555
C24U C24 1_555 1_555
C25U C24U 1_555 1_555
H15U C25U 1_555 1_555
C26U C21U 1_555 1_555
H16U C26U 1_555 1_555
C3 C4 1_555 1_555
C5 N4 1_555 1_555
O1 Zn1Y 1_555 1_555
C11 C12 1_555 1_555
C16 C17 1_555 1_555
C18 C19 1_555 1_555
C25 C26 1_555 1_555
C1Y N2Y 1_555 1_555
C2Y N4Y 1_555 1_555
C3Y C4Y 1_555 1_555
C5Y N4Y 1_555 1_555
C11BC C12BC 1_555 1_555
C16BC C17BC 1_555 1_555
C18BC C19BC 1_555 1_555
C23U C24U 1_555 1_555
C25U C26U 1_555 1_555

#END
