
#######################################################################
#
#                 Cambridge Crystallographic Data Centre
#                                CCDC 
#
#######################################################################
#
# If this CIF has been generated from an entry in the Cambridge 
# Structural Database, then it will include bibliographic, chemical, 
# crystal, experimental, refinement or atomic coordinate data resulting 
# from the CCDC's data processing and validation procedures.
#
#######################################################################

data_SAPDAO
_symmetry_cell_setting           monoclinic
_symmetry_space_group_name_H-M   'A 2'
_symmetry_Int_Tables_number      5
_space_group_name_Hall           'A 2y'
loop_
_symmetry_equiv_pos_site_id
_symmetry_equiv_pos_as_xyz
1 x,y,z
2 x,1/2+y,1/2+z
3 -x,y,-z
4 -x,1/2+y,1/2-z
_cell_length_a                   5.655(3)
_cell_length_b                   7.791(2)
_cell_length_c                   30.502(5)
_cell_angle_alpha                90
_cell_angle_beta                 94.90(2)
_cell_angle_gamma                90
_cell_volume                     1338.95
loop_
_atom_site_label
_atom_site_type_symbol
_atom_site_fract_x
_atom_site_fract_y
_atom_site_fract_z
Ag1 Ag 0.0000 0.0000 0.00000
C1 C 0.3013(5) -0.2780(4) 0.17517(8)
C2 C 0.0983(6) -0.2224(5) 0.1934(1)
C3 C 0.0793(7) -0.2377(6) 0.2383(1)
C4 C 0.2577(7) -0.3135(6) 0.2651(1)
C5 C 0.4615(6) -0.3697(6) 0.2464(1)
C6 C 0.4825(6) -0.3527(5) 0.2022(1)
C7 C 0.0933(4) 0.0127(5) 0.11101(7)
C8 C 0.2477(6) 0.1137(4) 0.1376(1)
C9 C 0.1847(7) 0.2793(5) 0.1484(1)
C10 C -0.0361(7) 0.3431(4) 0.1337(1)
C11 C -0.1935(7) 0.2400(5) 0.1083(1)
C12 C -0.1302(5) 0.0766(5) 0.0967(1)
C13 C 0.3257(5) -0.2715(4) 0.12677(9)
C14 C 0.1674(5) -0.1585(3) 0.09658(8)
C15 C 0.2246(7) -0.3640(5) 0.0433(1)
C16 C 0.4758(6) -0.3733(5) 0.0630(1)
N1 N 0.5000 0.1561(6) 0.00000
N2 N 0.1179(5) -0.2034(4) 0.05686(8)
N3 N 0.4803(5) -0.3678(4) 0.11123(8)
O1 O 0.5000 0.0000 0.00000
O2 O 0.3115(6) 0.2325(5) 0.0030(2)
O2B O 0.6885(6) 0.2325(5) -0.0030(2)
C1B C -0.3013(5) -0.2780(4) -0.17517(8)
C2B C -0.0983(6) -0.2224(5) -0.1934(1)
C3B C -0.0793(7) -0.2377(6) -0.2383(1)
C4B C -0.2577(7) -0.3135(6) -0.2651(1)
C5B C -0.4615(6) -0.3697(6) -0.2464(1)
C6B C -0.4825(6) -0.3527(5) -0.2022(1)
C7B C -0.0933(4) 0.0127(5) -0.11101(7)
C8B C -0.2477(6) 0.1137(4) -0.1376(1)
C9B C -0.1847(7) 0.2793(5) -0.1484(1)
C10B C 0.0361(7) 0.3431(4) -0.1337(1)
C11B C 0.1935(7) 0.2400(5) -0.1083(1)
C12B C 0.1302(5) 0.0766(5) -0.0967(1)
C13B C -0.3257(5) -0.2715(4) -0.12677(9)
C14B C -0.1674(5) -0.1585(3) -0.09658(8)
C15B C -0.2246(7) -0.3640(5) -0.0433(1)
C16B C -0.4758(6) -0.3733(5) -0.0630(1)
N2B N -0.1179(5) -0.2034(4) -0.05686(8)
N3B N -0.4803(5) -0.3678(4) -0.11123(8)
O2B_2 O -0.3115(6) 0.2325(5) -0.0030(2)
Ag1_2 Ag 1.0000 0.0000 0.00000
loop_
_geom_bond_atom_site_label_1
_geom_bond_atom_site_label_2
_geom_bond_site_symmetry_1
_geom_bond_site_symmetry_2
Ag1 N2 1_555 1_555
C1 C2 1_555 1_555
C2 C3 1_555 1_555
C3 C4 1_555 1_555
C4 C5 1_555 1_555
C5 C6 1_555 1_555
C6 C1 1_555 1_555
C7 C8 1_555 1_555
C8 C9 1_555 1_555
C9 C10 1_555 1_555
C10 C11 1_555 1_555
C11 C12 1_555 1_555
C12 C7 1_555 1_555
C13 C1 1_555 1_555
C14 C7 1_555 1_555
C15 C16 1_555 1_555
C16 N3 1_555 1_555
N1 O1 1_555 1_555
N2 C14 1_555 1_555
N3 C13 1_555 1_555
O2 Ag1 1_555 1_555
O2B N1 1_555 1_555
C1B C2B 1_555 1_555
C2B C3B 1_555 1_555
C3B C4B 1_555 1_555
C4B C5B 1_555 1_555
C5B C6B 1_555 1_555
C6B C1B 1_555 1_555
C7B C8B 1_555 1_555
C8B C9B 1_555 1_555
C9B C10B 1_555 1_555
C10B C11B 1_555 1_555
C11B C12B 1_555 1_555
C12B C7B 1_555 1_555
C13B C1B 1_555 1_555
C14B C7B 1_555 1_555
C15B C16B 1_555 1_555
C16B N3B 1_555 1_555
N2B Ag1 1_555 1_555
N3B C13B 1_555 1_555
O2B_2 Ag1 1_555 1_555
Ag1_2 O2B 1_555 1_555
C13 C14 1_555 1_555
C15 N2 1_555 1_555
N1 O2 1_555 1_555
C13B C14B 1_555 1_555
C14B N2B 1_555 1_555
C15B N2B 1_555 1_555

#END
