
#######################################################################
#
#                 Cambridge Crystallographic Data Centre
#                                CCDC 
#
#######################################################################
#
# If this CIF has been generated from an entry in the Cambridge 
# Structural Database, then it will include bibliographic, chemical, 
# crystal, experimental, refinement or atomic coordinate data resulting 
# from the CCDC's data processing and validation procedures.
#
#######################################################################

data_SAPHOI
_symmetry_cell_setting           monoclinic
_symmetry_space_group_name_H-M   'C 2/c'
_symmetry_Int_Tables_number      15
_space_group_name_Hall           '-C 2yn'
loop_
_symmetry_equiv_pos_site_id
_symmetry_equiv_pos_as_xyz
1 x,y,z
2 1/2+x,1/2+y,z
3 -x,y,1/2-z
4 1/2-x,1/2+y,1/2-z
5 -x,-y,-z
6 1/2-x,1/2-y,-z
7 x,-y,1/2+z
8 1/2+x,1/2-y,1/2+z
_cell_length_a                   35.610(5)
_cell_length_b                   17.813(2)
_cell_length_c                   32.235(4)
_cell_angle_alpha                90
_cell_angle_beta                 112.749(9)
_cell_angle_gamma                90
_cell_volume                     18856.7
loop_
_atom_site_label
_atom_site_type_symbol
_atom_site_fract_x
_atom_site_fract_y
_atom_site_fract_z
N3 N 0.2587(4) 0.8860(7) 0.0255(4)
C13 C 0.2296(5) 0.8640(10) 0.0363(6)
H13 H 0.2361 0.8394 0.0643
C14 C 0.1894(6) 0.8740(11) 0.0094(6)
H14 H 0.1681 0.8577 0.0181
C15 C 0.1818(5) 0.9095(10) -0.0313(6)
H15 H 0.1546 0.9160 -0.0522
C16 C 0.2137(4) 0.9352(9) -0.0412(5)
H16 H 0.2081 0.9615 -0.0686
C17 C 0.2532(5) 0.9243(8) -0.0128(5)
C18 C 0.2864(5) 0.9520(7) -0.0203(4)
C19 C 0.2837(4) 1.0114(7) -0.0488(4)
H17 H 0.2579 1.0328 -0.0660
C20 C 0.3182(4) 1.0401(8) -0.0526(5)
H18 H 0.3169 1.0819 -0.0714
C21 C 0.3529(5) 1.0073(9) -0.0293(5)
H19 H 0.3772 1.0250 -0.0317
C22 C 0.3549(5) 0.9503(9) -0.0026(5)
H20 H 0.3806 0.9282 0.0140
N4 N 0.3234(4) 0.9234(7) 0.0020(4)
C23 C 0.3259(6) 0.8587(9) 0.0316(5)
H21 H 0.3164 0.8126 0.0133
H22 H 0.3544 0.8509 0.0527
C24 C 0.3008(5) 0.8734(9) 0.0563(5)
H23 H 0.3110 0.9183 0.0755
H24 H 0.3020 0.8302 0.0761
O1 O 0.0250(6) 0.1837(11) 0.4797(7)
O2 O 0.0431(4) 0.6544(8) 0.3043(5)
O3 O 0.1042(5) 0.7067(9) 0.3746(5)
O4 O 0.2435(6) 0.9569(11) 0.1195(7)
O5 O 0.1762(8) 0.0431(15) 0.1034(9)
O6 O 0.1616(11) -0.003(2) 0.1789(13)
O7 O 0.0588(10) 0.329(2) 0.4909(12)
N5 N 0.0251(4) 0.4437(7) 0.2260(4)
C25 C 0.0515(5) 0.4464(9) 0.2070(5)
H25 H 0.0566 0.4924 0.1952
C26 C 0.0711(5) 0.3840(8) 0.2043(5)
H26 H 0.0897 0.3853 0.1897
C27 C 0.0650(5) 0.3206(9) 0.2219(5)
H27 H 0.0806 0.2775 0.2217
C28 C 0.0366(4) 0.3160(8) 0.2402(5)
H28 H 0.0315 0.2700 0.2521
C29 C 0.0156(4) 0.3796(8) 0.2410(5)
C30 C 0.0028(5) 0.5103(8) 0.2296(5)
H29 H 0.0180 0.5558 0.2278
H30 H -0.0241 0.5114 0.2042
N5B N -0.0251(4) 0.4437(7) 0.2740(4)
C25B C -0.0515(5) 0.4464(9) 0.2930(5)
H25B H -0.0566 0.4924 0.3048
C26B C -0.0711(5) 0.3840(8) 0.2957(5)
H26B H -0.0897 0.3853 0.3103
C27B C -0.0650(5) 0.3206(9) 0.2781(5)
H27B H -0.0806 0.2775 0.2783
C28B C -0.0366(4) 0.3160(8) 0.2598(5)
H28B H -0.0315 0.2700 0.2479
C29B C -0.0156(4) 0.3796(8) 0.2590(5)
C30B C -0.0028(5) 0.5103(8) 0.2704(5)
H29B H -0.0180 0.5558 0.2722
H30B H 0.0241 0.5114 0.2958
O8 O -0.0382(12) 0.889(2) 0.0956(14)
O9 O 0.1423(17) 0.845(3) 0.106(2)
C31 C 0.1616(4) 0.3775(7) 0.3223(4)
C32 C 0.1505(4) 0.3088(7) 0.3347(4)
C33 C 0.1197(3) 0.3058(7) 0.3493(4)
H31 H 0.1124 0.2590 0.3581
C34 C 0.0987(4) 0.3699(7) 0.3516(4)
C35 C 0.1094(4) 0.4362(7) 0.3379(4)
H32 H 0.0947 0.4804 0.3386
C36 C 0.1401(4) 0.4410(7) 0.3236(4)
C37 C 0.1536(4) 0.5160(7) 0.3125(4)
H33 H 0.1470 0.5549 0.3306
H34 H 0.1836 0.5149 0.3222
C38 C 0.1355(4) 0.5400(7) 0.2639(4)
C39 C 0.1070(4) 0.5956(8) 0.2509(5)
H35 H 0.0976 0.6168 0.2722
C40 C 0.0921(4) 0.6205(8) 0.2089(5)
C41 C 0.1051(4) 0.5896(8) 0.1773(5)
H36 H 0.0949 0.6086 0.1475
C42 C 0.1323(4) 0.5323(7) 0.1888(4)
C43 C 0.1483(4) 0.5084(7) 0.2328(4)
C44 C 0.1460(4) 0.4979(8) 0.1550(4)
H37 H 0.1509 0.4437 0.1618
H38 H 0.1237 0.5023 0.1249
C45 C 0.1832(4) 0.5312(7) 0.1528(4)
C46 C 0.1795(4) 0.5932(7) 0.1260(4)
H39 H 0.1535 0.6154 0.1106
C47 C 0.2127(4) 0.6227(7) 0.1215(4)
C48 C 0.2499(4) 0.5891(7) 0.1421(4)
H40 H 0.2730 0.6080 0.1377
C49 C 0.2535(4) 0.5285(7) 0.1690(4)
C50 C 0.2205(4) 0.5014(7) 0.1743(4)
C51 C 0.2951(4) 0.4934(7) 0.1925(4)
H41 H 0.3130 0.5296 0.2146
H42 H 0.2924 0.4485 0.2093
C52 C 0.3146(4) 0.4708(7) 0.1605(4)
C53 C 0.3459(4) 0.5093(7) 0.1594(4)
H43 H 0.3550 0.5523 0.1780
C54 C 0.3658(4) 0.4884(7) 0.1318(5)
C55 C 0.3516(4) 0.4302(7) 0.1047(4)
H44 H 0.3644 0.4169 0.0847
C56 C 0.3190(4) 0.3882(7) 0.1041(4)
C57 C 0.3014(4) 0.4067(7) 0.1333(4)
C58 C 0.3060(4) 0.3228(7) 0.0736(4)
H45 H 0.3111 0.2767 0.0921
H46 H 0.3231 0.3203 0.0558
C59 C 0.2621(4) 0.3231(7) 0.0418(4)
C60 C 0.2503(4) 0.3633(7) 0.0030(4)
H47 H 0.2694 0.3926 -0.0037
C61 C 0.2106(4) 0.3608(7) -0.0259(4)
C62 C 0.1839(4) 0.3136(7) -0.0177(4)
H48 H 0.1564 0.3109 -0.0385
C63 C 0.1966(4) 0.2702(7) 0.0204(4)
C64 C 0.2355(4) 0.2790(7) 0.0510(4)
C65 C 0.1673(4) 0.2172(8) 0.0259(4)
H49 H 0.1811 0.1686 0.0367
H50 H 0.1451 0.2084 -0.0037
C66 C 0.1494(4) 0.2440(8) 0.0581(4)
C67 C 0.1157(4) 0.2851(8) 0.0440(5)
H51 H 0.1016 0.2939 0.0127
C68 C 0.1013(5) 0.3145(8) 0.0735(5)
C69 C 0.1223(5) 0.3028(8) 0.1179(5)
H52 H 0.1127 0.3250 0.1388
C70 C 0.1564(4) 0.2606(8) 0.1335(4)
C71 C 0.1694(4) 0.2286(7) 0.1032(4)
C72 C 0.1822(5) 0.2557(9) 0.1833(5)
H53 H 0.2076 0.2286 0.1872
H54 H 0.1899 0.3073 0.1949
C73 C 0.1633(4) 0.2184(8) 0.2109(5)
C74 C 0.1306(4) 0.1700(8) 0.1945(5)
H55 H 0.1201 0.1555 0.1638
C75 C 0.1138(5) 0.1440(8) 0.2218(5)
C76 C 0.1268(4) 0.1674(8) 0.2659(5)
H56 H 0.1128 0.1514 0.2840
C77 C 0.1592(4) 0.2127(8) 0.2832(4)
C78 C 0.1790(4) 0.2373(8) 0.2561(4)
C79 C 0.1729(4) 0.2390(8) 0.3310(4)
H57 H 0.1682 0.1988 0.3496
H58 H 0.2025 0.2495 0.3429
O10 O 0.1931(3) 0.3830(5) 0.3109(3)
O11 O 0.1764(3) 0.4555(5) 0.2434(3)
H59 H 0.1840 0.4452 0.2709
O12 O 0.2261(3) 0.4431(5) 0.2028(3)
H60 H 0.2036 0.4306 0.2036
O13 O 0.2717(3) 0.3690(5) 0.1380(3)
H61 H 0.2653 0.3326 0.1201
O14 O 0.2491(3) 0.2463(5) 0.0910(3)
H62 H 0.2305 0.2200 0.0935
O15 O 0.2017(3) 0.1861(5) 0.1172(3)
H63 H 0.2061 0.1701 0.0949
O16 O 0.2124(3) 0.2775(5) 0.2715(3)
H64 H 0.2190 0.2857 0.2991
S1 S 0.06147(11) 0.3647(2) 0.37288(12)
S2 S 0.05663(13) 0.6930(2) 0.19103(15)
S3 S 0.20852(12) 0.70502(19) 0.08971(12)
S4 S 0.40830(14) 0.5379(3) 0.13330(16)
S5 S 0.19109(13) 0.4131(2) -0.07530(12)
S6 S 0.05658(15) 0.3649(3) 0.05350(16)
S7 S 0.07324(18) 0.0828(3) 0.20141(16)
O17 O 0.0344(3) 0.3093(7) 0.3493(4)
O18 O 0.0415(4) 0.4347(7) 0.3643(5)
O19 O 0.0810(3) 0.3481(8) 0.4187(4)
O20 O 0.0773(4) 0.7553(7) 0.1805(5)
O21 O 0.0465(4) 0.7137(7) 0.2274(4)
O22 O 0.0228(4) 0.6633(7) 0.1559(5)
O23 O 0.2379(3) 0.6988(5) 0.0698(3)
O24 O 0.2171(4) 0.7659(5) 0.1201(3)
O25 O 0.1679(3) 0.7051(6) 0.0571(3)
O26 O 0.4134(4) 0.5179(7) 0.0932(5)
O27 O 0.3987(4) 0.6145(6) 0.1354(4)
O28 O 0.4424(3) 0.5111(7) 0.1719(4)
O29 O 0.1587(3) 0.4575(6) -0.0721(3)
O30 O 0.2230(4) 0.4564(7) -0.0759(4)
O31 O 0.1749(3) 0.3609(5) -0.1115(3)
O32 O 0.0481(5) 0.3850(9) 0.0887(5)
O33 O 0.0607(4) 0.4201(8) 0.0249(5)
O34 O 0.0267(4) 0.3146(8) 0.0228(5)
O35 O 0.0376(4) 0.1240(8) 0.1839(5)
O36 O 0.0809(6) 0.0361(10) 0.1708(6)
O37 O 0.0737(5) 0.0392(8) 0.2382(5)
Ba1 Ba -0.01310(3) 0.63393(7) 0.06691(4)
O38 O 0.0093(4) 0.5009(7) 0.1055(5)
O39 O 0.0522(4) 0.5765(8) 0.0519(5)
O40 O -0.0762(4) 0.5630(7) 0.0785(4)
O41 O -0.0673(3) 0.7552(7) 0.0757(4)
O42 O 0.5347(4) 0.6758(8) 0.3000(4)
O43 O 0.0403(5) 0.7458(10) 0.0791(7)
O44 O 0.5000 0.4053(12) 0.2500
Ba2 Ba 0.50311(14) 0.55257(14) 0.24032(11)
C31D C -0.1616(4) 0.6225(7) -0.3223(4)
C32D C -0.1505(4) 0.6912(7) -0.3347(4)
C33D C -0.1197(3) 0.6942(7) -0.3493(4)
H31D H -0.1124 0.7410 -0.3581
C34D C -0.0987(4) 0.6301(7) -0.3516(4)
C35D C -0.1094(4) 0.5638(7) -0.3379(4)
H32D H -0.0947 0.5196 -0.3386
C36D C -0.1401(4) 0.5590(7) -0.3236(4)
C37D C -0.1536(4) 0.4840(7) -0.3125(4)
H33D H -0.1470 0.4451 -0.3306
H34D H -0.1836 0.4851 -0.3222
C38D C -0.1355(4) 0.4600(7) -0.2639(4)
C39D C -0.1070(4) 0.4044(8) -0.2509(5)
H35D H -0.0976 0.3832 -0.2722
C40D C -0.0921(4) 0.3795(8) -0.2089(5)
C41D C -0.1051(4) 0.4104(8) -0.1773(5)
H36D H -0.0949 0.3914 -0.1475
C42D C -0.1323(4) 0.4677(7) -0.1888(4)
C43D C -0.1483(4) 0.4916(7) -0.2328(4)
C44D C -0.1460(4) 0.5021(8) -0.1550(4)
H37D H -0.1509 0.5563 -0.1618
H38D H -0.1237 0.4977 -0.1249
C45D C -0.1832(4) 0.4688(7) -0.1528(4)
C46D C -0.1795(4) 0.4068(7) -0.1260(4)
H39D H -0.1535 0.3846 -0.1106
C47D C -0.2127(4) 0.3773(7) -0.1215(4)
C48D C -0.2499(4) 0.4109(7) -0.1421(4)
H40D H -0.2730 0.3920 -0.1377
C49D C -0.2535(4) 0.4715(7) -0.1690(4)
C50D C -0.2205(4) 0.4986(7) -0.1743(4)
C51D C -0.2951(4) 0.5066(7) -0.1925(4)
H41D H -0.3130 0.4704 -0.2146
H42D H -0.2924 0.5515 -0.2093
C52D C -0.3146(4) 0.5292(7) -0.1605(4)
C53D C -0.3459(4) 0.4907(7) -0.1594(4)
H43D H -0.3550 0.4477 -0.1780
C54D C -0.3658(4) 0.5116(7) -0.1318(5)
C55D C -0.3516(4) 0.5698(7) -0.1047(4)
H44D H -0.3644 0.5831 -0.0847
C56D C -0.3190(4) 0.6118(7) -0.1041(4)
C57D C -0.3014(4) 0.5933(7) -0.1333(4)
C58D C -0.3060(4) 0.6772(7) -0.0736(4)
H45D H -0.3111 0.7233 -0.0921
H46D H -0.3231 0.6797 -0.0558
C59D C -0.2621(4) 0.6769(7) -0.0418(4)
C60D C -0.2503(4) 0.6367(7) -0.0030(4)
H47D H -0.2694 0.6074 0.0037
C61D C -0.2106(4) 0.6392(7) 0.0259(4)
C62D C -0.1839(4) 0.6864(7) 0.0177(4)
H48D H -0.1564 0.6891 0.0385
C63D C -0.1966(4) 0.7298(7) -0.0204(4)
C64D C -0.2355(4) 0.7210(7) -0.0510(4)
C65D C -0.1673(4) 0.7828(8) -0.0259(4)
H49D H -0.1811 0.8314 -0.0367
H50D H -0.1451 0.7916 0.0037
C66D C -0.1494(4) 0.7560(8) -0.0581(4)
C67D C -0.1157(4) 0.7149(8) -0.0440(5)
H51D H -0.1016 0.7061 -0.0127
C68D C -0.1013(5) 0.6855(8) -0.0735(5)
C69D C -0.1223(5) 0.6972(8) -0.1179(5)
H52D H -0.1127 0.6750 -0.1388
C70D C -0.1564(4) 0.7394(8) -0.1335(4)
C71D C -0.1694(4) 0.7714(7) -0.1032(4)
C72D C -0.1822(5) 0.7443(9) -0.1833(5)
H53D H -0.2076 0.7714 -0.1872
H54D H -0.1899 0.6927 -0.1949
C73D C -0.1633(4) 0.7816(8) -0.2109(5)
C74D C -0.1306(4) 0.8300(8) -0.1945(5)
H55D H -0.1201 0.8445 -0.1638
C75D C -0.1138(5) 0.8560(8) -0.2218(5)
C76D C -0.1268(4) 0.8326(8) -0.2659(5)
H56D H -0.1128 0.8486 -0.2840
C77D C -0.1592(4) 0.7873(8) -0.2832(4)
C78D C -0.1790(4) 0.7627(8) -0.2561(4)
C79D C -0.1729(4) 0.7610(8) -0.3310(4)
H57D H -0.1682 0.8012 -0.3496
H58D H -0.2025 0.7505 -0.3429
O10D O -0.1931(3) 0.6170(5) -0.3109(3)
O11D O -0.1764(3) 0.5445(5) -0.2434(3)
H59D H -0.1840 0.5548 -0.2709
O12D O -0.2261(3) 0.5569(5) -0.2028(3)
H60D H -0.2036 0.5694 -0.2036
O13D O -0.2717(3) 0.6310(5) -0.1380(3)
H61D H -0.2653 0.6674 -0.1201
O14D O -0.2491(3) 0.7537(5) -0.0910(3)
H62D H -0.2305 0.7800 -0.0935
O15D O -0.2017(3) 0.8139(5) -0.1172(3)
H63D H -0.2061 0.8299 -0.0949
O16D O -0.2124(3) 0.7225(5) -0.2715(3)
H64D H -0.2190 0.7143 -0.2991
S1D S -0.06147(11) 0.6353(2) -0.37288(12)
S2D S -0.05663(13) 0.3070(2) -0.19103(15)
S3D S -0.20852(12) 0.29498(19) -0.08971(12)
S4D S -0.40830(14) 0.4621(3) -0.13330(16)
S5D S -0.19109(13) 0.5869(2) 0.07530(12)
S6D S -0.05658(15) 0.6351(3) -0.05350(16)
S7D S -0.07324(18) 0.9172(3) -0.20141(16)
O17D O -0.0344(3) 0.6907(7) -0.3493(4)
O18D O -0.0415(4) 0.5653(7) -0.3643(5)
O19D O -0.0810(3) 0.6519(8) -0.4187(4)
O20D O -0.0773(4) 0.2447(7) -0.1805(5)
O21D O -0.0465(4) 0.2863(7) -0.2274(4)
O22D O -0.0228(4) 0.3367(7) -0.1559(5)
O23D O -0.2379(3) 0.3012(5) -0.0698(3)
O24D O -0.2171(4) 0.2341(5) -0.1201(3)
O25D O -0.1679(3) 0.2949(6) -0.0571(3)
O26D O -0.4134(4) 0.4821(7) -0.0932(5)
O27D O -0.3987(4) 0.3855(6) -0.1354(4)
O28D O -0.4424(3) 0.4889(7) -0.1719(4)
O28B O 0.5576(3) 0.5111(7) 0.3281(4)
O28F O -0.5576(3) 0.4889(7) -0.3281(4)
O29D O -0.1587(3) 0.5425(6) 0.0721(3)
O30D O -0.2230(4) 0.5436(7) 0.0759(4)
O31D O -0.1749(3) 0.6391(5) 0.1115(3)
O32D O -0.0481(5) 0.6150(9) -0.0887(5)
O33D O -0.0607(4) 0.5799(8) -0.0249(5)
O34D O -0.0267(4) 0.6854(8) -0.0228(5)
O35D O -0.0376(4) 0.8760(8) -0.1839(5)
O35A O 0.5376(4) 0.6240(8) 0.1839(5)
O35E O -0.5376(4) 0.3760(8) -0.1839(5)
O36D O -0.0809(6) 0.9639(10) -0.1708(6)
O37D O -0.0737(5) 0.9608(8) -0.2382(5)
O37A O 0.5737(5) 0.5392(8) 0.2382(5)
O37C O 0.4263(5) 0.5392(8) 0.2618(5)
O37E O -0.5737(5) 0.4608(8) -0.2382(5)
O37G O -0.4263(5) 0.4608(8) -0.2618(5)
Ba1D Ba 0.01310(3) 0.36607(7) -0.06691(4)
O38D O -0.0093(4) 0.4991(7) -0.1055(5)
O39D O -0.0522(4) 0.4235(8) -0.0519(5)
O40D O 0.0762(4) 0.4370(7) -0.0785(4)
O41D O 0.0673(3) 0.2448(7) -0.0757(4)
O42B O 0.4653(4) 0.6758(8) 0.2000(4)
O42D O -0.5347(4) 0.3242(8) -0.3000(4)
O42F O -0.4653(4) 0.3242(8) -0.2000(4)
O43D O -0.0403(5) 0.2542(10) -0.0791(7)
O44F O -0.5000 0.5947(12) -0.2500
Ba2D Ba -0.50311(14) 0.44743(14) -0.24032(11)
Ba2B Ba 0.49689(14) 0.55257(14) 0.25968(11)
Ba2A Ba 0.00311(14) 0.05257(14) 0.24032(11)
Ba2C Ba -0.00311(14) 0.05257(14) 0.25968(11)
Ba2F Ba -0.49689(14) 0.44743(14) -0.25968(11)
Ba2E Ba -0.00311(14) 0.94743(14) -0.24032(11)
Ba2G Ba 0.00311(14) 0.94743(14) -0.25968(11)
N1 N 0.2959(4) 0.2064(6) 0.2611(4)
N2 N 0.3420(4) 0.3267(7) 0.2520(4)
C1 C 0.2713(5) 0.1561(7) 0.2636(5)
H1 H 0.2656 0.1544 0.2901
C2 C 0.2526(5) 0.1046(8) 0.2304(4)
H2 H 0.2339 0.0683 0.2328
C3 C 0.2628(4) 0.1091(7) 0.1934(4)
H3 H 0.2517 0.0737 0.1697
C4 C 0.2886(4) 0.1636(7) 0.1902(4)
H4 H 0.2941 0.1672 0.1637
C5 C 0.3066(4) 0.2132(7) 0.2249(4)
C6 C 0.3347(5) 0.2675(8) 0.2235(5)
C7 C 0.3570(4) 0.2632(8) 0.1971(5)
H5 H 0.3532 0.2226 0.1767
C8 C 0.3849(5) 0.3180(8) 0.2006(5)
H6 H 0.4000 0.3164 0.1820
C9 C 0.3907(5) 0.3726(9) 0.2294(5)
H7 H 0.4110 0.4091 0.2324
C10 C 0.3691(5) 0.3782(9) 0.2544(5)
H8 H 0.3731 0.4195 0.2743
C11 C 0.3176(5) 0.3326(9) 0.2794(5)
H9 H 0.2899 0.3505 0.2606
H10 H 0.3302 0.3693 0.3039
C12 C 0.3150(5) 0.2585(9) 0.2987(5)
H11 H 0.3426 0.2405 0.3180
H12 H 0.2985 0.2621 0.3173
loop_
_geom_bond_atom_site_label_1
_geom_bond_atom_site_label_2
_geom_bond_site_symmetry_1
_geom_bond_site_symmetry_2
N1 C1 1_555 1_555
N2 C6 1_555 1_555
C1 H1 1_555 1_555
C2 C1 1_555 1_555
H2 C2 1_555 1_555
C3 C2 1_555 1_555
H3 C3 1_555 1_555
C4 C3 1_555 1_555
H4 C4 1_555 1_555
C5 N1 1_555 1_555
C6 C5 1_555 1_555
C7 C6 1_555 1_555
H5 C7 1_555 1_555
C8 C7 1_555 1_555
H6 C8 1_555 1_555
C9 C8 1_555 1_555
H7 C9 1_555 1_555
C10 N2 1_555 1_555
H8 C10 1_555 1_555
C11 N2 1_555 1_555
H9 C11 1_555 1_555
H10 C11 1_555 1_555
C12 N1 1_555 1_555
H11 C12 1_555 1_555
H12 C12 1_555 1_555
N3 C13 1_555 1_555
C13 H13 1_555 1_555
C14 C13 1_555 1_555
H14 C14 1_555 1_555
C15 C14 1_555 1_555
H15 C15 1_555 1_555
C16 C15 1_555 1_555
H16 C16 1_555 1_555
C17 N3 1_555 1_555
C18 C17 1_555 1_555
C19 C18 1_555 1_555
H17 C19 1_555 1_555
C20 C19 1_555 1_555
H18 C20 1_555 1_555
C21 C20 1_555 1_555
H19 C21 1_555 1_555
C22 C21 1_555 1_555
H20 C22 1_555 1_555
N4 C18 1_555 1_555
C23 N4 1_555 1_555
H21 C23 1_555 1_555
H22 C23 1_555 1_555
C24 N3 1_555 1_555
H23 C24 1_555 1_555
H24 C24 1_555 1_555
N5 C25 1_555 1_555
C25 H25 1_555 1_555
C26 C25 1_555 1_555
H26 C26 1_555 1_555
C27 C26 1_555 1_555
H27 C27 1_555 1_555
C28 C27 1_555 1_555
H28 C28 1_555 1_555
C29 N5 1_555 1_555
C30 N5 1_555 1_555
H29 C30 1_555 1_555
H30 C30 1_555 1_555
C31 C32 1_555 1_555
C32 C33 1_555 1_555
C33 H31 1_555 1_555
C34 C33 1_555 1_555
C35 C34 1_555 1_555
H32 C35 1_555 1_555
C36 C31 1_555 1_555
C37 C36 1_555 1_555
H33 C37 1_555 1_555
H34 C37 1_555 1_555
C38 C37 1_555 1_555
C39 C38 1_555 1_555
H35 C39 1_555 1_555
C40 C39 1_555 1_555
C41 C40 1_555 1_555
H36 C41 1_555 1_555
C42 C41 1_555 1_555
C43 C38 1_555 1_555
C44 C42 1_555 1_555
H37 C44 1_555 1_555
H38 C44 1_555 1_555
C45 C44 1_555 1_555
C46 C45 1_555 1_555
H39 C46 1_555 1_555
C47 C46 1_555 1_555
C48 C47 1_555 1_555
H40 C48 1_555 1_555
C49 C48 1_555 1_555
C50 C45 1_555 1_555
C51 C49 1_555 1_555
H41 C51 1_555 1_555
H42 C51 1_555 1_555
C52 C51 1_555 1_555
C53 C52 1_555 1_555
H43 C53 1_555 1_555
C54 C53 1_555 1_555
C55 C54 1_555 1_555
H44 C55 1_555 1_555
C56 C55 1_555 1_555
C57 C52 1_555 1_555
C58 C56 1_555 1_555
H45 C58 1_555 1_555
H46 C58 1_555 1_555
C59 C58 1_555 1_555
C60 C59 1_555 1_555
H47 C60 1_555 1_555
C61 C60 1_555 1_555
C62 C61 1_555 1_555
H48 C62 1_555 1_555
C63 C62 1_555 1_555
C64 C59 1_555 1_555
C65 C63 1_555 1_555
H49 C65 1_555 1_555
H50 C65 1_555 1_555
C66 C65 1_555 1_555
C67 C66 1_555 1_555
H51 C67 1_555 1_555
C68 C67 1_555 1_555
C69 C68 1_555 1_555
H52 C69 1_555 1_555
C70 C69 1_555 1_555
C71 C66 1_555 1_555
C72 C70 1_555 1_555
H53 C72 1_555 1_555
H54 C72 1_555 1_555
C73 C72 1_555 1_555
C74 C73 1_555 1_555
H55 C74 1_555 1_555
C75 C74 1_555 1_555
C76 C75 1_555 1_555
H56 C76 1_555 1_555
C77 C76 1_555 1_555
C78 C73 1_555 1_555
C79 C32 1_555 1_555
H57 C79 1_555 1_555
H58 C79 1_555 1_555
O10 C31 1_555 1_555
O11 C43 1_555 1_555
H59 O11 1_555 1_555
O12 C50 1_555 1_555
H60 O12 1_555 1_555
O13 C57 1_555 1_555
H61 O13 1_555 1_555
O14 C64 1_555 1_555
H62 O14 1_555 1_555
O15 C71 1_555 1_555
H63 O15 1_555 1_555
O16 C78 1_555 1_555
H64 O16 1_555 1_555
S1 C34 1_555 1_555
S2 C40 1_555 1_555
S3 C47 1_555 1_555
S4 C54 1_555 1_555
S5 C61 1_555 1_555
S6 C68 1_555 1_555
S7 C75 1_555 1_555
O17 S1 1_555 1_555
O18 S1 1_555 1_555
O19 S1 1_555 1_555
O20 S2 1_555 1_555
O21 S2 1_555 1_555
O22 S2 1_555 1_555
O23 S3 1_555 1_555
O24 S3 1_555 1_555
O25 S3 1_555 1_555
O26 S4 1_555 1_555
O27 S4 1_555 1_555
O28 S4 1_555 1_555
O29 S5 1_555 1_555
O30 S5 1_555 1_555
O31 S5 1_555 1_555
O32 S6 1_555 1_555
O33 S6 1_555 1_555
O34 S6 1_555 1_555
O35 S7 1_555 1_555
O36 S7 1_555 1_555
O37 S7 1_555 1_555
Ba1 O22 1_555 1_555
O38 Ba1 1_555 1_555
O39 Ba1 1_555 1_555
O40 Ba1 1_555 1_555
O41 Ba1 1_555 1_555
O42 Ba2 1_555 1_555
O43 Ba1 1_555 1_555
O44 Ba2 1_555 1_555
Ba2 O28 1_555 1_555
N5B C25B 1_555 1_555
C25B H25B 1_555 1_555
C26B C25B 1_555 1_555
H26B C26B 1_555 1_555
C27B C26B 1_555 1_555
H27B C27B 1_555 1_555
C28B C27B 1_555 1_555
H28B C28B 1_555 1_555
C29B C29 1_555 1_555
C30B C30 1_555 1_555
H29B C30B 1_555 1_555
H30B C30B 1_555 1_555
C31D C32D 1_555 1_555
C32D C33D 1_555 1_555
C33D H31D 1_555 1_555
C34D C33D 1_555 1_555
C35D C34D 1_555 1_555
H32D C35D 1_555 1_555
C36D C31D 1_555 1_555
C37D C36D 1_555 1_555
H33D C37D 1_555 1_555
H34D C37D 1_555 1_555
C38D C37D 1_555 1_555
C39D C38D 1_555 1_555
H35D C39D 1_555 1_555
C40D C39D 1_555 1_555
C41D C40D 1_555 1_555
H36D C41D 1_555 1_555
C42D C41D 1_555 1_555
C43D C38D 1_555 1_555
C44D C42D 1_555 1_555
H37D C44D 1_555 1_555
H38D C44D 1_555 1_555
C45D C44D 1_555 1_555
C46D C45D 1_555 1_555
H39D C46D 1_555 1_555
C47D C46D 1_555 1_555
C48D C47D 1_555 1_555
H40D C48D 1_555 1_555
C49D C48D 1_555 1_555
C50D C45D 1_555 1_555
C51D C49D 1_555 1_555
H41D C51D 1_555 1_555
H42D C51D 1_555 1_555
C52D C51D 1_555 1_555
C53D C52D 1_555 1_555
H43D C53D 1_555 1_555
C54D C53D 1_555 1_555
C55D C54D 1_555 1_555
H44D C55D 1_555 1_555
C56D C55D 1_555 1_555
C57D C52D 1_555 1_555
C58D C56D 1_555 1_555
H45D C58D 1_555 1_555
H46D C58D 1_555 1_555
C59D C58D 1_555 1_555
C60D C59D 1_555 1_555
H47D C60D 1_555 1_555
C61D C60D 1_555 1_555
C62D C61D 1_555 1_555
H48D C62D 1_555 1_555
C63D C62D 1_555 1_555
C64D C59D 1_555 1_555
C65D C63D 1_555 1_555
H49D C65D 1_555 1_555
H50D C65D 1_555 1_555
C66D C65D 1_555 1_555
C67D C66D 1_555 1_555
H51D C67D 1_555 1_555
C68D C67D 1_555 1_555
C69D C68D 1_555 1_555
H52D C69D 1_555 1_555
C70D C69D 1_555 1_555
C71D C66D 1_555 1_555
C72D C70D 1_555 1_555
H53D C72D 1_555 1_555
H54D C72D 1_555 1_555
C73D C72D 1_555 1_555
C74D C73D 1_555 1_555
H55D C74D 1_555 1_555
C75D C74D 1_555 1_555
C76D C75D 1_555 1_555
H56D C76D 1_555 1_555
C77D C76D 1_555 1_555
C78D C73D 1_555 1_555
C79D C32D 1_555 1_555
H57D C79D 1_555 1_555
H58D C79D 1_555 1_555
O10D C31D 1_555 1_555
O11D C43D 1_555 1_555
H59D O11D 1_555 1_555
O12D C50D 1_555 1_555
H60D O12D 1_555 1_555
O13D C57D 1_555 1_555
H61D O13D 1_555 1_555
O14D C64D 1_555 1_555
H62D O14D 1_555 1_555
O15D C71D 1_555 1_555
H63D O15D 1_555 1_555
O16D C78D 1_555 1_555
H64D O16D 1_555 1_555
S1D C34D 1_555 1_555
S2D C40D 1_555 1_555
S3D C47D 1_555 1_555
S4D C54D 1_555 1_555
S5D C61D 1_555 1_555
S6D C68D 1_555 1_555
S7D C75D 1_555 1_555
O17D S1D 1_555 1_555
O18D S1D 1_555 1_555
O19D S1D 1_555 1_555
O20D S2D 1_555 1_555
O21D S2D 1_555 1_555
O22D S2D 1_555 1_555
O23D S3D 1_555 1_555
O24D S3D 1_555 1_555
O25D S3D 1_555 1_555
O26D S4D 1_555 1_555
O27D S4D 1_555 1_555
O28D S4D 1_555 1_555
O28B Ba2 1_555 1_555
O28F Ba2D 1_555 1_555
O29D S5D 1_555 1_555
O30D S5D 1_555 1_555
O31D S5D 1_555 1_555
O32D S6D 1_555 1_555
O33D Ba1 1_555 1_555
O34D Ba1 1_555 1_555
O35D S7D 1_555 1_555
O35A Ba2 1_555 1_555
O35E Ba2D 1_555 1_555
O36D S7D 1_555 1_555
O37D S7D 1_555 1_555
O37A Ba2 1_555 1_555
O37C Ba2 1_555 1_555
O37E Ba2D 1_555 1_555
O37G Ba2D 1_555 1_555
Ba1D O33 1_555 1_555
O38D Ba1D 1_555 1_555
O39D Ba1D 1_555 1_555
O40D Ba1D 1_555 1_555
O41D Ba1D 1_555 1_555
O42B Ba2 1_555 1_555
O42D Ba2D 1_555 1_555
O42F Ba2D 1_555 1_555
O43D Ba1D 1_555 1_555
O44F Ba2D 1_555 1_555
Ba2D O28D 1_555 1_555
Ba2B O28 1_555 1_555
Ba2A O35 1_555 1_555
Ba2C O37 1_555 1_555
Ba2F O28D 1_555 1_555
Ba2E O35D 1_555 1_555
Ba2G O37D 1_555 1_555
C4 C5 1_555 1_555
C9 C10 1_555 1_555
C11 C12 1_555 1_555
C16 C17 1_555 1_555
C22 N4 1_555 1_555
C23 C24 1_555 1_555
C28 C29 1_555 1_555
C35 C36 1_555 1_555
C42 C43 1_555 1_555
C49 C50 1_555 1_555
C56 C57 1_555 1_555
C63 C64 1_555 1_555
C70 C71 1_555 1_555
C77 C78 1_555 1_555
C77 C79 1_555 1_555
O34 Ba1D 1_555 1_555
O37 Ba2A 1_555 1_555
O42 Ba2B 1_555 1_555
O44 Ba2B 1_555 1_555
Ba2 Ba2B 1_555 1_555
N5B C29B 1_555 1_555
N5B C30B 1_555 1_555
C28B C29B 1_555 1_555
C35D C36D 1_555 1_555
C42D C43D 1_555 1_555
C49D C50D 1_555 1_555
C56D C57D 1_555 1_555
C63D C64D 1_555 1_555
C70D C71D 1_555 1_555
C77D C78D 1_555 1_555
C77D C79D 1_555 1_555
S6D O33D 1_555 1_555
S6D O34D 1_555 1_555
O22D Ba1D 1_555 1_555
O28B Ba2B 1_555 1_555
O28F Ba2F 1_555 1_555
O37D Ba2E 1_555 1_555
O37A Ba2B 1_555 1_555
O37C Ba2B 1_555 1_555
O37E Ba2F 1_555 1_555
O37G Ba2F 1_555 1_555
O42B Ba2B 1_555 1_555
O42D Ba2F 1_555 1_555
O42F Ba2F 1_555 1_555
O44F Ba2F 1_555 1_555
Ba2D Ba2F 1_555 1_555
Ba2A Ba2C 1_555 1_555
Ba2E Ba2G 1_555 1_555

#END
