
#######################################################################
#
#                 Cambridge Crystallographic Data Centre
#                                CCDC 
#
#######################################################################
#
# If this CIF has been generated from an entry in the Cambridge 
# Structural Database, then it will include bibliographic, chemical, 
# crystal, experimental, refinement or atomic coordinate data resulting 
# from the CCDC's data processing and validation procedures.
#
#######################################################################

data_SAPHEX
_symmetry_cell_setting           orthorhombic
_symmetry_space_group_name_H-M   'P b c a'
_symmetry_Int_Tables_number      61
_space_group_name_Hall           '-P 2ac 2ab'
loop_
_symmetry_equiv_pos_site_id
_symmetry_equiv_pos_as_xyz
1 x,y,z
2 1/2-x,-y,1/2+z
3 -x,1/2+y,1/2-z
4 1/2+x,1/2-y,-z
5 -x,-y,-z
6 1/2+x,y,1/2-z
7 x,1/2-y,1/2+z
8 1/2-x,1/2+y,z
_cell_length_a                   9.8745(7)
_cell_length_b                   17.3467(11)
_cell_length_c                   21.7544(14)
_cell_angle_alpha                90
_cell_angle_beta                 90
_cell_angle_gamma                90
_cell_volume                     3726.31
loop_
_atom_site_label
_atom_site_type_symbol
_atom_site_fract_x
_atom_site_fract_y
_atom_site_fract_z
Pb1 Pb 0.012034(17) 0.385166(11) 0.448302(8)
S1 S 0.72907(12) 0.70615(7) 0.44696(6)
N1 N -0.0961(4) 0.4317(2) 0.34876(17)
N2 N 0.0954(4) 0.3174(2) 0.35195(17)
O1 O 0.1885(4) 0.4734(2) 0.41364(15)
O2 O 0.1613(4) 0.50416(19) 0.51176(15)
O3 O 0.8124(4) 0.6697(2) 0.40102(17)
O4 O 0.7882(4) 0.7055(2) 0.50752(16)
O5 O 0.6858(4) 0.7817(2) 0.4268(2)
C1 C -0.1914(5) 0.4849(3) 0.3464(2)
H1 H -0.2171 0.5086 0.3829
C2 C -0.2558(6) 0.5074(3) 0.2925(2)
H2 H -0.3239 0.5444 0.2933
C3 C -0.2174(5) 0.4745(3) 0.2386(2)
H3 H -0.2598 0.4885 0.2021
C4 C -0.1142(5) 0.4197(3) 0.2382(2)
C5 C -0.0669(6) 0.3859(3) 0.1829(2)
H4 H -0.1029 0.4016 0.1454
C6 C 0.0302(6) 0.3308(3) 0.1841(3)
H5 H 0.0610 0.3098 0.1474
C7 C 0.0863(5) 0.3044(3) 0.2412(2)
C8 C 0.1818(6) 0.2453(3) 0.2442(3)
H6 H 0.2113 0.2210 0.2085
C9 C 0.2309(6) 0.2235(3) 0.2996(3)
H7 H 0.2943 0.1840 0.3024
C10 C 0.1854(5) 0.2609(3) 0.3523(3)
H8 H 0.2204 0.2452 0.3900
C11 C 0.0439(5) 0.3384(3) 0.2967(2)
C12 C -0.0564(5) 0.3987(3) 0.2948(2)
C13 C 0.2244(5) 0.5094(3) 0.4615(2)
C14 C 0.3476(5) 0.5595(3) 0.4588(2)
C15 C 0.4091(5) 0.5747(3) 0.4026(2)
H9 H 0.3730 0.5538 0.3668
C16 C 0.5230(5) 0.6204(3) 0.3993(3)
H10 H 0.5615 0.6318 0.3614
C17 C 0.5792(5) 0.6491(3) 0.4521(2)
C18 C 0.5211(5) 0.6346(3) 0.5080(2)
H11 H 0.5597 0.6544 0.5437
C19 C 0.4043(5) 0.5901(3) 0.5114(2)
H12 H 0.3640 0.5809 0.5493
Pb1D Pb -0.012034(17) 0.614834(11) 0.551698(8)
Pb1D_2 Pb 0.987966(17) 0.614834(11) 0.551698(8)
Pb1G Pb 0.487966(17) 0.885166(11) 0.448302(8)
O2D O -0.1613(4) 0.49584(19) 0.48824(15)
O4D O 0.2118(4) 0.2945(2) 0.49248(16)
O5G O -0.1858(4) 0.2817(2) 0.4268(2)
O6 O 1.0458(11) 0.6033(6) 0.3419(8)
O7? O 1.0701(15) 0.6345(9) 0.4038(9)
loop_
_geom_bond_atom_site_label_1
_geom_bond_atom_site_label_2
_geom_bond_site_symmetry_1
_geom_bond_site_symmetry_2
Pb1 N1 1_555 1_555
S1 O3 1_555 1_555
N1 C1 1_555 1_555
N2 Pb1 1_555 1_555
O1 Pb1 1_555 1_555
O2 Pb1 1_555 1_555
O4 S1 1_555 1_555
O5 S1 1_555 1_555
C1 H1 1_555 1_555
C2 C1 1_555 1_555
H2 C2 1_555 1_555
C3 C2 1_555 1_555
H3 C3 1_555 1_555
C4 C3 1_555 1_555
C5 C4 1_555 1_555
H4 C5 1_555 1_555
C6 C5 1_555 1_555
H5 C6 1_555 1_555
C7 C6 1_555 1_555
C8 C7 1_555 1_555
H6 C8 1_555 1_555
C9 C8 1_555 1_555
H7 C9 1_555 1_555
C10 N2 1_555 1_555
H8 C10 1_555 1_555
C11 N2 1_555 1_555
C12 N1 1_555 1_555
C13 O1 1_555 1_555
C14 C13 1_555 1_555
C15 C14 1_555 1_555
H9 C15 1_555 1_555
C16 C15 1_555 1_555
H10 C16 1_555 1_555
C17 S1 1_555 1_555
C18 C17 1_555 1_555
H11 C18 1_555 1_555
C19 C14 1_555 1_555
H12 C19 1_555 1_555
Pb1D O2 1_555 1_555
Pb1D_2 O4 1_555 1_555
Pb1G O5 1_555 1_555
O2D Pb1 1_555 1_555
O4D Pb1 1_555 1_555
O5G Pb1 1_555 1_555
O2 C13 1_555 1_555
C4 C12 1_555 1_555
C7 C11 1_555 1_555
C9 C10 1_555 1_555
C11 C12 1_555 1_555
C16 C17 1_555 1_555
C18 C19 1_555 1_555
Pb1D O2D 1_555 1_555

#END
