
#######################################################################
#
#                 Cambridge Crystallographic Data Centre
#                                CCDC 
#
#######################################################################
#
# If this CIF has been generated from an entry in the Cambridge 
# Structural Database, then it will include bibliographic, chemical, 
# crystal, experimental, refinement or atomic coordinate data resulting 
# from the CCDC's data processing and validation procedures.
#
#######################################################################

data_SAPHUO
_symmetry_cell_setting           rhombohedral
_symmetry_space_group_name_H-M   'R -3'
_symmetry_Int_Tables_number      148
_space_group_name_Hall           '-R 3'
loop_
_symmetry_equiv_pos_site_id
_symmetry_equiv_pos_as_xyz
1 x,y,z
2 -y,x-y,z
3 -x+y,-x,z
4 2/3+x,1/3+y,1/3+z
5 2/3-y,1/3+x-y,1/3+z
6 2/3-x+y,1/3-x,1/3+z
7 1/3+x,2/3+y,2/3+z
8 1/3-y,2/3+x-y,2/3+z
9 1/3-x+y,2/3-x,2/3+z
10 -x,-y,-z
11 y,-x+y,-z
12 x-y,x,-z
13 1/3-x,2/3-y,2/3-z
14 1/3+y,2/3-x+y,2/3-z
15 1/3+x-y,2/3+x,2/3-z
16 2/3-x,1/3-y,1/3-z
17 2/3+y,1/3-x+y,1/3-z
18 2/3+x-y,1/3+x,1/3-z
_cell_length_a                   12.9637(4)
_cell_length_b                   12.9637(4)
_cell_length_c                   59.607(4)
_cell_angle_alpha                90
_cell_angle_beta                 90
_cell_angle_gamma                120
_cell_volume                     8675.33
loop_
_atom_site_label
_atom_site_type_symbol
_atom_site_fract_x
_atom_site_fract_y
_atom_site_fract_z
Mn1 Mn -0.27420(4) -0.16198(4) 0.427836(8)
Ca1 Ca -0.6667 -0.3333 0.42693(2)
Na1 Na 0.0000 0.0000 0.44771(4)
O1 O -0.2076(2) -0.0723(2) 0.45391(4)
O2 O -0.4272(2) -0.1783(2) 0.43413(4)
O3 O -0.5646(2) -0.1608(2) 0.45195(5)
O4 O -0.3364(2) -0.2468(2) 0.40104(4)
O5 O -0.1252(2) -0.1598(2) 0.42312(4)
O6 O -0.0011(2) -0.2064(2) 0.40702(5)
O7 O -0.3464(3) -0.3358(3) 0.44649(5)
O8 O -0.5721(2) -0.3902(3) 0.39899(5)
H1 H -0.4810 -0.3480 0.4011
H2 H -0.5821 -0.4513 0.3974
C1 C -0.2461(3) -0.0052(3) 0.46403(5)
C2 C -0.1653(3) 0.0902(4) 0.47715(7)
H3 H -0.0867 0.1070 0.4780
C3 C -0.1985(4) 0.1597(4) 0.48890(8)
H4 H -0.1422 0.2243 0.4972
C4 C -0.3173(5) 0.1335(5) 0.48846(8)
H5 H -0.3409 0.1788 0.4968
C5 C -0.3983(4) 0.0403(4) 0.47562(7)
H6 H -0.4773 0.0225 0.4754
C6 C -0.3648(3) -0.0288(3) 0.46276(5)
C7 C -0.4567(3) -0.1265(3) 0.44922(6)
C8 C -0.2715(3) -0.2382(3) 0.38304(6)
C9 C -0.3250(4) -0.2572(4) 0.36192(7)
H7 H -0.4032 -0.2734 0.3609
C10 C -0.2647(5) -0.2524(6) 0.34285(7)
H8 H -0.3023 -0.2654 0.3290
C11 C -0.1471(5) -0.2284(6) 0.34384(8)
H9 H -0.1062 -0.2256 0.3308
C12 C -0.0929(4) -0.2090(5) 0.36458(7)
H10 H -0.0141 -0.1912 0.3654
C13 C -0.1536(3) -0.2154(3) 0.38427(6)
C14 C -0.0905(3) -0.1934(3) 0.40582(6)
Mn1A Mn -0.83802(4) -0.11222(6) 0.427836(8)
Mn1B Mn -0.88778(6) -0.72580(4) 0.427836(8)
Mn1A_2 Mn 0.16198(4) -0.11222(6) 0.427836(8)
Mn1B_2 Mn 0.11222(6) 0.27420(4) 0.427836(8)
Na1_2 Na -1.0000 0.0000 0.44771(4)
Na1_3 Na -1.0000 -1.0000 0.44771(4)
O1A O -0.9277(2) -0.1353(3) 0.45391(4)
O1B O -0.8647(3) -0.7924(2) 0.45391(4)
O1A_2 O 0.0723(2) -0.1353(3) 0.45391(4)
O1B_2 O 0.1353(3) 0.2076(2) 0.45391(4)
O2A O -0.8217(2) -0.2489(3) 0.43413(4)
O2B O -0.7511(3) -0.5728(2) 0.43413(4)
O3A O -0.8392(2) -0.4038(3) 0.45195(5)
O3B O -0.5962(3) -0.4354(2) 0.45195(5)
O4B O 0.0896(3) 0.3364(2) 0.40104(4)
O4A O 0.2468(2) -0.0896(3) 0.40104(4)
O4A_2 O -0.7532(2) -0.0896(3) 0.40104(4)
O4B_2 O -0.9104(3) -0.6636(2) 0.40104(4)
O5B O -0.0346(3) 0.1252(2) 0.42312(4)
O5A O 0.1598(2) 0.0346(3) 0.42312(4)
O5A_2 O -0.8402(2) 0.0346(3) 0.42312(4)
O5B_2 O -1.0346(3) -0.8748(2) 0.42312(4)
O6B O -0.2053(3) 0.0011(2) 0.40702(5)
O6A O 0.2064(2) 0.2053(3) 0.40702(5)
O6_2 O -1.0011(2) -0.2064(2) 0.40702(5)
O6A_2 O -0.7936(2) -0.7947(3) 0.40702(5)
O7A O -0.6642(3) -0.0106(4) 0.44649(5)
O7B O -0.9894(4) -0.6536(3) 0.44649(5)
O8A O -0.6098(3) -0.1819(4) 0.39899(5)
O8B O -0.8181(4) -0.4279(2) 0.39899(5)
H1A H -0.6520 -0.1330 0.4011
H1B H -0.8670 -0.5190 0.4011
H2A H -0.5487 -0.1308 0.3974
H2B H -0.8692 -0.4179 0.3974
C1A C -0.9948(3) -0.2409(4) 0.46403(5)
C1B C -0.7591(4) -0.7539(3) 0.46403(5)
C2A C -1.0902(4) -0.2555(5) 0.47715(7)
C2B C -0.7445(5) -0.8347(3) 0.47715(7)
H3A H -1.1070 -0.1937 0.4780
H3B H -0.8063 -0.9133 0.4780
C3A C -1.1597(4) -0.3582(6) 0.48890(8)
C3B C -0.6418(6) -0.8015(4) 0.48890(8)
H4A H -1.2243 -0.3665 0.4972
H4B H -0.6335 -0.8578 0.4972
C4A C -1.1335(5) -0.4508(7) 0.48846(8)
C4B C -0.5492(7) -0.6827(5) 0.48846(8)
H5A H -1.1788 -0.5197 0.4968
H5B H -0.4803 -0.6591 0.4968
C5A C -1.0403(4) -0.4386(6) 0.47562(7)
C5B C -0.5614(6) -0.6017(4) 0.47562(7)
H6A H -1.0225 -0.4998 0.4754
H6B H -0.5002 -0.5227 0.4754
C6A C -0.9712(3) -0.3360(4) 0.46276(5)
C6B C -0.6640(4) -0.6352(3) 0.46276(5)
C7A C -0.8735(3) -0.3302(4) 0.44922(6)
C7B C -0.6698(4) -0.5433(3) 0.44922(6)
C8B C 0.0333(4) 0.2715(3) 0.38304(6)
C8A C 0.2382(3) -0.0333(4) 0.38304(6)
C9B C 0.0678(6) 0.3250(4) 0.36192(7)
C9A C 0.2572(4) -0.0678(6) 0.36192(7)
H7B H 0.1298 0.4032 0.3609
H7A H 0.2734 -0.1298 0.3609
C10B C 0.0123(8) 0.2647(5) 0.34285(7)
C10A C 0.2524(6) -0.0123(8) 0.34285(7)
H8B H 0.0369 0.3023 0.3290
H8A H 0.2654 -0.0369 0.3290
C11B C -0.0813(8) 0.1471(5) 0.34384(8)
C11A C 0.2284(6) 0.0813(8) 0.34384(8)
H9B H -0.1194 0.1062 0.3308
H9A H 0.2256 0.1194 0.3308
C12B C -0.1161(6) 0.0929(4) 0.36458(7)
C12A C 0.2090(5) 0.1161(6) 0.36458(7)
H10B H -0.1771 0.0141 0.3654
H10A H 0.1912 0.1771 0.3654
C13B C -0.0618(4) 0.1536(3) 0.38427(6)
C13A C 0.2154(3) 0.0618(4) 0.38427(6)
C14B C -0.1029(4) 0.0905(3) 0.40582(6)
C14A C 0.1934(3) 0.1029(4) 0.40582(6)
O9 O -0.5936(7) -0.6033(5) 0.38665(15)
O10 O 0.0000 0.0000 0.3077(6)
O11 O -0.295(2) -0.5016(15) 0.4299(4)
O12 O -0.450(2) -0.643(3) 0.3563(4)
loop_
_geom_bond_atom_site_label_1
_geom_bond_atom_site_label_2
_geom_bond_site_symmetry_1
_geom_bond_site_symmetry_2
Mn1 O1 1_555 1_555
Ca1 O2 1_555 1_555
Na1 O1 1_555 1_555
O1 C1 1_555 1_555
O2 Mn1 1_555 1_555
O3 Ca1 1_555 1_555
O4 Mn1 1_555 1_555
O5 Mn1 1_555 1_555
O6 C14 1_555 1_555
O7 Mn1 1_555 1_555
O8 Ca1 1_555 1_555
H1 O8 1_555 1_555
H2 O8 1_555 1_555
C1 C2 1_555 1_555
C2 H3 1_555 1_555
C3 C2 1_555 1_555
H4 C3 1_555 1_555
C4 C3 1_555 1_555
H5 C4 1_555 1_555
C5 C4 1_555 1_555
H6 C5 1_555 1_555
C6 C1 1_555 1_555
C7 O2 1_555 1_555
C8 O4 1_555 1_555
C9 C8 1_555 1_555
H7 C9 1_555 1_555
C10 C9 1_555 1_555
H8 C10 1_555 1_555
C11 C10 1_555 1_555
H9 C11 1_555 1_555
C12 C11 1_555 1_555
H10 C12 1_555 1_555
C13 C8 1_555 1_555
C14 O5 1_555 1_555
Mn1A O1A 1_555 1_555
Mn1B O1B 1_555 1_555
Mn1A_2 O6 1_555 1_555
Mn1B_2 O1B_2 1_555 1_555
Na1_2 O1A 1_555 1_555
Na1_3 O1B 1_555 1_555
O1A C1A 1_555 1_555
O1B C1B 1_555 1_555
O1A_2 Na1 1_555 1_555
O1B_2 Na1 1_555 1_555
O2A Ca1 1_555 1_555
O2B Ca1 1_555 1_555
O3A Ca1 1_555 1_555
O3B Ca1 1_555 1_555
O4B Mn1B_2 1_555 1_555
O4A Mn1A_2 1_555 1_555
O4A_2 Mn1A 1_555 1_555
O4B_2 Mn1B 1_555 1_555
O5B Na1 1_555 1_555
O5A Na1 1_555 1_555
O5A_2 Mn1A 1_555 1_555
O5B_2 Mn1B 1_555 1_555
O6B Mn1 1_555 1_555
O6A Mn1B_2 1_555 1_555
O6_2 Mn1A 1_555 1_555
O6A_2 Mn1B 1_555 1_555
O7A Mn1A 1_555 1_555
O7B Mn1B 1_555 1_555
O8A Ca1 1_555 1_555
O8B Ca1 1_555 1_555
H1A O8A 1_555 1_555
H1B O8B 1_555 1_555
H2A O8A 1_555 1_555
H2B O8B 1_555 1_555
C1A C2A 1_555 1_555
C1B C2B 1_555 1_555
C2A H3A 1_555 1_555
C2B H3B 1_555 1_555
C3A C2A 1_555 1_555
C3B C2B 1_555 1_555
H4A C3A 1_555 1_555
H4B C3B 1_555 1_555
C4A C3A 1_555 1_555
C4B C3B 1_555 1_555
H5A C4A 1_555 1_555
H5B C4B 1_555 1_555
C5A C4A 1_555 1_555
C5B C4B 1_555 1_555
H6A C5A 1_555 1_555
H6B C5B 1_555 1_555
C6A C1A 1_555 1_555
C6B C1B 1_555 1_555
C7A O2A 1_555 1_555
C7B O2B 1_555 1_555
C8B O4B 1_555 1_555
C8A O4A 1_555 1_555
C9B C8B 1_555 1_555
C9A C8A 1_555 1_555
H7B C9B 1_555 1_555
H7A C9A 1_555 1_555
C10B C9B 1_555 1_555
C10A C9A 1_555 1_555
H8B C10B 1_555 1_555
H8A C10A 1_555 1_555
C11B C10B 1_555 1_555
C11A C10A 1_555 1_555
H9B C11B 1_555 1_555
H9A C11A 1_555 1_555
C12B C11B 1_555 1_555
C12A C11A 1_555 1_555
H10B C12B 1_555 1_555
H10A C12A 1_555 1_555
C13B C8B 1_555 1_555
C13A C8A 1_555 1_555
C14B O5B 1_555 1_555
C14A O5A 1_555 1_555
Na1 O5 1_555 1_555
O3 C7 1_555 1_555
C5 C6 1_555 1_555
C6 C7 1_555 1_555
C12 C13 1_555 1_555
C13 C14 1_555 1_555
Mn1A O2A 1_555 1_555
Mn1B O2B 1_555 1_555
Mn1A_2 O1A_2 1_555 1_555
Mn1A_2 O5A 1_555 1_555
Mn1B_2 O5B 1_555 1_555
Na1_2 O5A_2 1_555 1_555
Na1_3 O5B_2 1_555 1_555
O3A C7A 1_555 1_555
O3B C7B 1_555 1_555
O6B C14B 1_555 1_555
O6A C14A 1_555 1_555
C5A C6A 1_555 1_555
C5B C6B 1_555 1_555
C6A C7A 1_555 1_555
C6B C7B 1_555 1_555
C12B C13B 1_555 1_555
C12A C13A 1_555 1_555
C13B C14B 1_555 1_555
C13A C14A 1_555 1_555

#END
