
#######################################################################
#
#                 Cambridge Crystallographic Data Centre
#                                CCDC 
#
#######################################################################
#
# If this CIF has been generated from an entry in the Cambridge 
# Structural Database, then it will include bibliographic, chemical, 
# crystal, experimental, refinement or atomic coordinate data resulting 
# from the CCDC's data processing and validation procedures.
#
#######################################################################

data_SAPKOL
_symmetry_cell_setting           monoclinic
_symmetry_space_group_name_H-M   'P 21/n'
_symmetry_Int_Tables_number      14
_space_group_name_Hall           '-P 2yn'
loop_
_symmetry_equiv_pos_site_id
_symmetry_equiv_pos_as_xyz
1 x,y,z
2 1/2-x,1/2+y,1/2-z
3 -x,-y,-z
4 1/2+x,1/2-y,1/2+z
_cell_length_a                   12.7580(10)
_cell_length_b                   9.5881(8)
_cell_length_c                   12.9304(11)
_cell_angle_alpha                90
_cell_angle_beta                 110.2330(10)
_cell_angle_gamma                90
_cell_volume                     1484.11
loop_
_atom_site_label
_atom_site_type_symbol
_atom_site_fract_x
_atom_site_fract_y
_atom_site_fract_z
Pr1 Pr -0.04115(4) 0.15849(5) 0.38439(4)
Pr2 Pr 0.05132(4) 0.36598(5) 0.13085(3)
S1 S 0.24912(17) -0.0031(2) 0.50241(17)
O1 O 0.0598(5) 0.3621(6) 0.3353(5)
O2 O 0.4531(5) 0.3304(6) 0.6846(5)
O3 O 0.1635(5) 0.0994(7) 0.4404(5)
C1 C 0.1374(8) 0.4513(9) 0.3656(7)
O4 O 0.1699(6) 0.5065(7) 0.2932(5)
O5 O 0.2034(5) -0.1005(7) 0.5636(5)
C2 C 0.3608(7) 0.3969(8) 0.6435(7)
C3 C 0.3081(7) 0.4078(10) 0.5219(7)
H1 H 0.3589 0.4565 0.4931
H2 H 0.2972 0.3146 0.4908
C4 C -0.0025(7) 0.2586(9) 0.9065(7)
O6 O 0.3448(5) 0.0731(7) 0.5818(5)
O7 O 0.1926(6) 0.1954(7) 0.2388(5)
H3 H 0.2374 0.1236 0.2171
H4 H 0.1917 0.1723 0.3136
O8 O 0.2875(5) -0.0798(7) 0.4233(5)
O9 O -0.0005(6) 0.3111(7) 0.5464(5)
O10 O -0.1755(6) 0.3452(7) 0.2866(5)
H5 H -0.2171 0.4145 0.3151
H6 H -0.1854 0.3671 0.2084
O11 O -0.0261(5) 0.3860(6) 0.9211(5)
O12 O 0.3187(5) 0.4514(7) 0.7077(5)
C5 C 0.1968(8) 0.4833(10) 0.4842(7)
H7 H 0.1523 0.4528 0.5275
H8 H 0.2087 0.5830 0.4943
C6 C 0.0249(7) 0.2220(9) 0.6214(7)
O13 O 0.0257(5) 0.0929(6) 0.5963(5)
C7 C -0.0283(8) 0.2039(10) 0.7915(7)
H9 H -0.1047 0.2274 0.7473
H10 H -0.0214 0.1031 0.7936
O14 O 0.0425(6) 0.1837(7) 0.9890(5)
C8 C 0.0513(8) 0.2663(10) 0.7390(7)
H11 H 0.0477 0.3672 0.7420
H12 H 0.1270 0.2382 0.7815
Pr1C Pr 0.45885(4) 0.34151(5) 0.88439(4)
Pr1B Pr 0.04115(4) -0.15849(5) 0.61561(4)
Pr2C Pr 0.55132(4) 0.13402(5) 0.63085(3)
Pr2A Pr 0.44868(4) -0.13402(5) 0.36915(3)
Pr2_2 Pr 0.05132(4) 0.36598(5) 1.13085(3)
Pr2B Pr -0.05132(4) 0.63402(5) 0.86915(3)
O2C O -0.0469(5) 0.1696(6) 0.1846(5)
O5B O -0.2034(5) 0.1005(7) 0.4364(5)
O6C O -0.1552(5) 0.4269(7) 0.0818(5)
O8A O 0.2125(5) 0.4202(7) 0.0767(5)
O11_2 O -0.0261(5) 0.3860(6) -0.0789(5)
O11B O 0.0261(5) 0.6140(6) 0.0789(5)
O12C O -0.1813(5) 0.0486(7) 0.2077(5)
O13B O -0.0257(5) -0.0929(6) 0.4037(5)
O14_2 O 0.0425(6) 0.1837(7) -0.0110(5)
loop_
_geom_bond_atom_site_label_1
_geom_bond_atom_site_label_2
_geom_bond_site_symmetry_1
_geom_bond_site_symmetry_2
Pr1 O1 1_555 1_555
Pr2 O1 1_555 1_555
S1 O3 1_555 1_555
O1 C1 1_555 1_555
O2 C2 1_555 1_555
O3 Pr1 1_555 1_555
C1 O4 1_555 1_555
O4 Pr2 1_555 1_555
O5 S1 1_555 1_555
C2 C3 1_555 1_555
C3 H1 1_555 1_555
H2 C3 1_555 1_555
C4 O11 1_555 1_555
O6 S1 1_555 1_555
O7 Pr2 1_555 1_555
H3 O7 1_555 1_555
H4 O7 1_555 1_555
O8 S1 1_555 1_555
O9 Pr1 1_555 1_555
O10 Pr1 1_555 1_555
H5 O10 1_555 1_555
H6 O10 1_555 1_555
O11 Pr2_2 1_555 1_555
O12 C2 1_555 1_555
C5 C1 1_555 1_555
H7 C5 1_555 1_555
H8 C5 1_555 1_555
C6 O9 1_555 1_555
O13 Pr1 1_555 1_555
C7 C4 1_555 1_555
H9 C7 1_555 1_555
H10 C7 1_555 1_555
O14 C4 1_555 1_555
C8 C6 1_555 1_555
H11 C8 1_555 1_555
H12 C8 1_555 1_555
Pr1C O2 1_555 1_555
Pr1B O5 1_555 1_555
Pr2C O2 1_555 1_555
Pr2A O8 1_555 1_555
Pr2_2 O14 1_555 1_555
Pr2B O11 1_555 1_555
O2C Pr1 1_555 1_555
O5B Pr1 1_555 1_555
O6C Pr2 1_555 1_555
O8A Pr2 1_555 1_555
O11_2 Pr2 1_555 1_555
O11B Pr2 1_555 1_555
O12C Pr1 1_555 1_555
O13B Pr1 1_555 1_555
O14_2 Pr2 1_555 1_555
Pr2 O2C 1_555 1_555
C3 C5 1_555 1_555
O6 Pr2C 1_555 1_555
O12 Pr1C 1_555 1_555
C6 O13 1_555 1_555
O13 Pr1B 1_555 1_555
C7 C8 1_555 1_555
Pr1B O13B 1_555 1_555

#END
