
#######################################################################
#
#                 Cambridge Crystallographic Data Centre
#                                CCDC 
#
#######################################################################
#
# If this CIF has been generated from an entry in the Cambridge 
# Structural Database, then it will include bibliographic, chemical, 
# crystal, experimental, refinement or atomic coordinate data resulting 
# from the CCDC's data processing and validation procedures.
#
#######################################################################

data_SAPKUR
_symmetry_cell_setting           monoclinic
_symmetry_space_group_name_H-M   'P 21/n'
_symmetry_Int_Tables_number      14
_space_group_name_Hall           '-P 2yn'
loop_
_symmetry_equiv_pos_site_id
_symmetry_equiv_pos_as_xyz
1 x,y,z
2 1/2-x,1/2+y,1/2-z
3 -x,-y,-z
4 1/2+x,1/2-y,1/2+z
_cell_length_a                   12.7225(19)
_cell_length_b                   9.5748(14)
_cell_length_c                   12.897(2)
_cell_angle_alpha                90
_cell_angle_beta                 110.205(2)
_cell_angle_gamma                90
_cell_volume                     1474.38
loop_
_atom_site_label
_atom_site_type_symbol
_atom_site_fract_x
_atom_site_fract_y
_atom_site_fract_z
C1 C 0.0528(19) -0.267(2) -0.2605(17)
H1 H 0.1290 -0.2402 -0.2179
H2 H 0.0484 -0.3684 -0.2584
O1 O -0.2975(12) -0.6016(16) 0.0632(12)
Nd1 Nd -0.04081(9) -0.15835(11) 0.38456(8)
Nd2 Nd 0.05133(9) -0.36679(11) 0.13101(8)
S1 S -0.2509(4) -0.5032(5) 0.0023(4)
O2 O -0.3372(13) -0.4001(16) -0.0602(12)
O3 O -0.4401(13) -0.1377(16) -0.1653(13)
C2 C -0.1411(17) -0.103(2) 0.1427(16)
O4 O -0.0454(13) -0.1710(17) 0.1863(12)
C3 C -0.0032(16) -0.259(2) -0.0935(16)
O5 O -0.3303(13) 0.0080(18) -0.2077(12)
O6 O -0.1808(14) -0.0485(18) 0.2084(12)
C4 C -0.3627(17) -0.047(2) -0.1340(16)
O7 O -0.1553(13) -0.4256(16) 0.0822(12)
O8 O 0.0439(15) -0.1830(17) -0.0084(13)
O9 O -0.2125(13) -0.5806(16) -0.0788(12)
C5 C -0.0267(19) -0.204(2) -0.2079(17)
H3 H -0.0188 -0.1035 -0.2054
H4 H -0.1033 -0.2264 -0.2529
C6 C -0.1903(18) -0.092(2) 0.0224(17)
H5 H -0.2009 -0.1856 -0.0092
H6 H -0.1387 -0.0433 -0.0052
O10 O 0.0242(13) -0.0924(15) -0.4055(11)
C7 C -0.303(2) -0.015(2) -0.0157(17)
H7 H -0.2913 0.0844 -0.0056
H8 H -0.3481 -0.0458 0.0277
C8 C 0.0256(18) -0.221(2) -0.3782(17)
O11 O -0.0010(15) -0.3111(17) -0.4550(12)
O12 O -0.1760(15) -0.3447(18) 0.2884(14)
H9 H -0.2021 -0.3886 0.3458
H10 H -0.1797 -0.3585 0.2105
O13 O -0.0257(13) -0.3870(15) -0.0777(11)
O14 O 0.1920(14) -0.1971(18) 0.2392(14)
H11 H 0.2455 -0.1394 0.2162
H12 H 0.2120 -0.1823 0.3227
O1A O -0.2025(12) -0.1016(16) 0.4368(12)
Nd1_2 Nd -0.04081(9) -0.15835(11) -0.61544(8)
Nd1B Nd 0.04081(9) 0.15835(11) -0.38456(8)
Nd1A Nd -0.45919(9) -0.65835(11) 0.11544(8)
Nd1C Nd -0.54081(9) -0.34165(11) -0.11544(8)
Nd2B Nd -0.05133(9) -0.63321(11) -0.13101(8)
Nd2C Nd -0.44867(9) -0.13321(11) -0.36899(8)
O2C O 0.1628(13) -0.0999(16) 0.4398(12)
O3C O 0.0599(13) -0.3623(16) 0.3347(13)
O5C O 0.1697(13) -0.5080(18) 0.2923(12)
O9B O 0.2125(13) -0.4194(16) 0.0788(12)
O10B O -0.0242(13) 0.0924(15) 0.4055(11)
O10_2 O 0.0242(13) -0.0924(15) 0.5945(11)
O11_2 O -0.0010(15) -0.3111(17) 0.5450(12)
O13B O 0.0257(13) -0.6130(15) 0.0777(11)
loop_
_geom_bond_atom_site_label_1
_geom_bond_atom_site_label_2
_geom_bond_site_symmetry_1
_geom_bond_site_symmetry_2
C1 H1 1_555 1_555
H2 C1 1_555 1_555
O1 S1 1_555 1_555
Nd1 O4 1_555 1_555
Nd2 O4 1_555 1_555
S1 O2 1_555 1_555
O2 Nd1C 1_555 1_555
O3 C4 1_555 1_555
C2 O4 1_555 1_555
C3 O8 1_555 1_555
O5 C4 1_555 1_555
O6 Nd1 1_555 1_555
C4 C7 1_555 1_555
O7 Nd2 1_555 1_555
O8 Nd2 1_555 1_555
O9 S1 1_555 1_555
C5 C1 1_555 1_555
H3 C5 1_555 1_555
H4 C5 1_555 1_555
C6 C2 1_555 1_555
H5 C6 1_555 1_555
H6 C6 1_555 1_555
O10 C8 1_555 1_555
C7 C6 1_555 1_555
H7 C7 1_555 1_555
H8 C7 1_555 1_555
C8 C1 1_555 1_555
O11 C8 1_555 1_555
O12 Nd1 1_555 1_555
H9 O12 1_555 1_555
H10 O12 1_555 1_555
O13 Nd2 1_555 1_555
O14 Nd2 1_555 1_555
H11 O14 1_555 1_555
H12 O14 1_555 1_555
O1A Nd1 1_555 1_555
Nd1_2 O10 1_555 1_555
Nd1B O10 1_555 1_555
Nd1A O1 1_555 1_555
Nd1C O3 1_555 1_555
Nd2B O9 1_555 1_555
Nd2C O3 1_555 1_555
O2C Nd1 1_555 1_555
O3C Nd1 1_555 1_555
O5C Nd2 1_555 1_555
O9B Nd2 1_555 1_555
O10B Nd1 1_555 1_555
O10_2 Nd1 1_555 1_555
O11_2 Nd1 1_555 1_555
O13B Nd2 1_555 1_555
Nd2 O3C 1_555 1_555
S1 O7 1_555 1_555
C2 O6 1_555 1_555
C3 C5 1_555 1_555
C3 O13 1_555 1_555
O5 Nd2C 1_555 1_555
O11 Nd1_2 1_555 1_555
O13 Nd2B 1_555 1_555
Nd2B O13B 1_555 1_555

#END
