
#######################################################################
#
#                 Cambridge Crystallographic Data Centre
#                                CCDC 
#
#######################################################################
#
# If this CIF has been generated from an entry in the Cambridge 
# Structural Database, then it will include bibliographic, chemical, 
# crystal, experimental, refinement or atomic coordinate data resulting 
# from the CCDC's data processing and validation procedures.
#
#######################################################################

data_SAPKIF
_symmetry_cell_setting           monoclinic
_symmetry_space_group_name_H-M   'P 21/n'
_symmetry_Int_Tables_number      14
_space_group_name_Hall           '-P 2yn'
loop_
_symmetry_equiv_pos_site_id
_symmetry_equiv_pos_as_xyz
1 x,y,z
2 1/2-x,1/2+y,1/2-z
3 -x,-y,-z
4 1/2+x,1/2-y,1/2+z
_cell_length_a                   12.881(2)
_cell_length_b                   9.6559(16)
_cell_length_c                   13.088(2)
_cell_angle_alpha                90
_cell_angle_beta                 110.357(3)
_cell_angle_gamma                90
_cell_volume                     1526.18
loop_
_atom_site_label
_atom_site_type_symbol
_atom_site_fract_x
_atom_site_fract_y
_atom_site_fract_z
La1 La 0.45869(3) 0.65956(4) 0.38491(3)
La2 La 0.55146(3) 0.86532(4) 0.13082(3)
S1 S 0.74942(14) 0.49710(18) 0.50244(13)
O1 O 0.5616(4) 0.8622(5) 0.3367(4)
O2 O 0.6643(4) 0.5986(5) 0.4412(4)
O3 O 0.9519(4) 0.8313(5) 0.6838(4)
O4 O 0.7037(4) 0.3998(5) 0.5627(4)
C1 C 0.8596(6) 0.8971(7) 0.6436(5)
O5 O 0.5260(4) 0.5950(5) 0.5978(4)
O6 O 0.8435(4) 0.5727(5) 0.5811(4)
O7 O 0.6709(5) 1.0064(6) 0.2955(4)
O8 O 0.5423(5) 0.6827(5) 0.9861(4)
O9 O 0.4735(4) 0.8844(5) 0.9190(4)
O10 O 0.8168(4) 0.9500(6) 0.7063(4)
O11 O 0.4986(5) 0.8128(5) 0.5495(4)
O12 O 0.7873(4) 0.4215(6) 0.4242(4)
C2 C 0.6966(6) 0.9834(8) 0.4849(6)
H1 H 0.6519 0.9537 0.5272
H2 H 0.7087 1.0824 0.4948
O13 O 0.6926(5) 0.6916(6) 0.2406(4)
H3 H 0.7369 0.6130 0.2239
H4 H 0.7410 0.6820 0.3250
C3 C 0.5255(6) 0.7231(7) 0.6221(5)
C4 C 0.6382(6) 0.9508(7) 0.3666(5)
C5 C 0.8077(6) 0.9068(8) 0.5231(5)
H5 H 0.8583 0.9542 0.4947
H6 H 0.7965 0.8140 0.4929
C6 C 0.5516(6) 0.7657(8) 0.7405(5)
H7 H 0.5490 0.8659 0.7444
H8 H 0.6264 0.7367 0.7826
C7 C 0.4722(6) 0.7044(8) 0.7921(5)
H9 H 0.3967 0.7282 0.7481
H10 H 0.4786 0.6042 0.7939
O14 O 0.3232(5) 0.8489(6) 0.2852(4)
H11 H 0.3012 0.9135 0.3099
H12 H 0.3063 0.8572 0.2044
C8 C 0.4975(6) 0.7579(7) 0.9050(5)
La1C La 0.95869(3) 0.84044(4) 0.88491(3)
La1B La 0.54131(3) 0.34044(4) 0.61509(3)
La2C La 1.05146(3) 0.63468(4) 0.63082(3)
La2_2 La 0.55146(3) 0.86532(4) 1.13082(3)
La2B La 0.44854(3) 1.13468(4) 0.86918(3)
La2A La 0.94854(3) 0.36532(4) 0.36918(3)
O3C O 0.4519(4) 0.6687(5) 0.1838(4)
O4B O 0.2963(4) 0.6002(5) 0.4373(4)
O5B O 0.4740(4) 0.4050(5) 0.4022(4)
O6C O 0.3435(4) 0.9273(5) 0.0811(4)
O8_2 O 0.5423(5) 0.6827(5) -0.0139(4)
O9_2 O 0.4735(4) 0.8844(5) -0.0810(4)
O9B O 0.5265(4) 1.1156(5) 0.0810(4)
O10C O 0.3168(4) 0.5500(6) 0.2063(4)
O12A O 0.7127(4) 0.9215(6) 0.0758(4)
loop_
_geom_bond_atom_site_label_1
_geom_bond_atom_site_label_2
_geom_bond_site_symmetry_1
_geom_bond_site_symmetry_2
La1 O1 1_555 1_555
La2 O1 1_555 1_555
S1 O2 1_555 1_555
O1 C4 1_555 1_555
O2 La1 1_555 1_555
O3 C1 1_555 1_555
O4 S1 1_555 1_555
C1 O10 1_555 1_555
O5 La1 1_555 1_555
O6 S1 1_555 1_555
O7 La2 1_555 1_555
O8 C8 1_555 1_555
O9 C8 1_555 1_555
O10 La1C 1_555 1_555
O11 La1 1_555 1_555
O12 S1 1_555 1_555
C2 H1 1_555 1_555
H2 C2 1_555 1_555
O13 La2 1_555 1_555
H3 O13 1_555 1_555
H4 O13 1_555 1_555
C3 O5 1_555 1_555
C4 O7 1_555 1_555
C5 C1 1_555 1_555
H5 C5 1_555 1_555
H6 C5 1_555 1_555
C6 C3 1_555 1_555
H7 C6 1_555 1_555
H8 C6 1_555 1_555
C7 C6 1_555 1_555
H9 C7 1_555 1_555
H10 C7 1_555 1_555
O14 La1 1_555 1_555
H11 O14 1_555 1_555
H12 O14 1_555 1_555
C8 C7 1_555 1_555
La1C O3 1_555 1_555
La1B O4 1_555 1_555
La2C O3 1_555 1_555
La2_2 O8 1_555 1_555
La2B O9 1_555 1_555
La2A O12 1_555 1_555
O3C La1 1_555 1_555
O4B La1 1_555 1_555
O5B La1 1_555 1_555
O6C La2 1_555 1_555
O8_2 La2 1_555 1_555
O9_2 La2 1_555 1_555
O9B La2 1_555 1_555
O10C La1 1_555 1_555
O12A La2 1_555 1_555
La2 O3C 1_555 1_555
O5 La1B 1_555 1_555
O6 La2C 1_555 1_555
O9 La2_2 1_555 1_555
O11 C3 1_555 1_555
C2 C4 1_555 1_555
C2 C5 1_555 1_555
La1B O5B 1_555 1_555

#END
