
#######################################################################
#
#                 Cambridge Crystallographic Data Centre
#                                CCDC 
#
#######################################################################
#
# If this CIF has been generated from an entry in the Cambridge 
# Structural Database, then it will include bibliographic, chemical, 
# crystal, experimental, refinement or atomic coordinate data resulting 
# from the CCDC's data processing and validation procedures.
#
#######################################################################

data_SAPLAY
_symmetry_cell_setting           monoclinic
_symmetry_space_group_name_H-M   'P 21/n'
_symmetry_Int_Tables_number      14
_space_group_name_Hall           '-P 2yn'
loop_
_symmetry_equiv_pos_site_id
_symmetry_equiv_pos_as_xyz
1 x,y,z
2 1/2-x,1/2+y,1/2-z
3 -x,-y,-z
4 1/2+x,1/2-y,1/2+z
_cell_length_a                   12.6365(6)
_cell_length_b                   9.5308(4)
_cell_length_c                   12.8091(6)
_cell_angle_alpha                90
_cell_angle_beta                 110.1280(10)
_cell_angle_gamma                90
_cell_volume                     1448.46
loop_
_atom_site_label
_atom_site_type_symbol
_atom_site_fract_x
_atom_site_fract_y
_atom_site_fract_z
H1 H -0.676(12) 0.370(14) -0.777(12)
H2 H -0.262(14) 0.141(17) -0.781(12)
H3 H -0.704(11) 0.382(13) -0.688(10)
H4 H -0.312(8) 0.167(10) -0.706(9)
Sm1 Sm -0.54102(4) 0.15763(5) -0.61594(4)
Sm2 Sm -0.44844(4) 0.36721(5) -0.86890(4)
S1 S -0.2508(2) -0.0027(3) -0.4974(2)
O1 O -0.0444(6) 0.3288(7) -0.3136(5)
O2 O -0.3372(6) 0.1014(7) -0.5595(6)
C1 C -0.3637(8) 0.4521(10) -0.6356(8)
C2 C -0.1383(8) 0.3969(10) -0.3564(8)
C3 C -0.5027(8) 0.2600(10) -0.0923(8)
O3 O -0.4419(6) 0.3622(7) -0.6666(6)
O4 O -0.3310(6) 0.5072(8) -0.7094(6)
O5 O -0.1545(6) 0.0744(7) -0.4170(5)
O6 O -0.4563(7) 0.1847(7) -0.0079(6)
O7 O -0.2976(6) -0.1016(7) -0.4364(6)
C4 C -0.1905(9) 0.4079(11) -0.4776(8)
H5 H -0.1393 0.4571 -0.5066
H6 H -0.2014 0.3142 -0.5091
O8 O -0.4750(6) 0.0905(7) -0.4048(6)
O9 O -0.5252(6) 0.3878(7) -0.0766(5)
O10 O -0.2119(6) -0.0798(8) -0.5776(5)
O11 O -0.1803(6) 0.4515(8) -0.2906(6)
O12 O -0.5011(6) 0.3097(7) -0.4559(6)
O13 O -0.3078(7) 0.2005(8) -0.7618(7)
O14 O -0.6749(7) 0.3419(9) -0.7113(7)
C5 C -0.4751(8) 0.2199(10) -0.3806(8)
C6 C -0.3039(9) 0.4843(11) -0.5159(8)
H7 H -0.3488 0.4535 -0.4721
H8 H -0.2920 0.5846 -0.5057
C7 C -0.5275(9) 0.2028(11) -0.2077(8)
H9 H -0.6048 0.2243 -0.2528
H10 H -0.5189 0.1016 -0.2044
C8 C -0.4477(9) 0.2668(11) -0.2609(8)
H11 H -0.4523 0.3682 -0.2586
H12 H -0.3709 0.2398 -0.2181
Sm1B Sm -0.45898(4) -0.15763(5) -0.38406(4)
Sm1C Sm -0.04102(4) 0.34237(5) -0.11594(4)
Sm2C Sm 0.05156(4) 0.13279(5) -0.36890(4)
Sm2_2 Sm -0.44844(4) 0.36721(5) 0.13110(4)
Sm2B Sm -0.55156(4) 0.63279(5) -0.13110(4)
Sm2A Sm -0.05156(4) -0.13279(5) -0.63110(4)
O1C O -0.5444(6) 0.1712(7) -0.8136(5)
O5C O -0.6545(6) 0.4256(7) -0.9170(5)
O6_2 O -0.4563(7) 0.1847(7) -1.0079(6)
O7B O -0.7024(6) 0.1016(7) -0.5636(6)
O8B O -0.5250(6) -0.0905(7) -0.5952(6)
O9_2 O -0.5252(6) 0.3878(7) -1.0766(5)
O9B O -0.4748(6) 0.6122(7) -0.9234(5)
O10A O -0.2881(6) 0.4202(8) -0.9224(5)
O11C O -0.6803(6) 0.0485(8) -0.7906(6)
loop_
_geom_bond_atom_site_label_1
_geom_bond_atom_site_label_2
_geom_bond_site_symmetry_1
_geom_bond_site_symmetry_2
H1 O14 1_555 1_555
H2 O13 1_555 1_555
H3 O14 1_555 1_555
H4 O13 1_555 1_555
Sm1 O2 1_555 1_555
Sm2 O3 1_555 1_555
S1 O2 1_555 1_555
O1 C2 1_555 1_555
C1 O3 1_555 1_555
C2 C4 1_555 1_555
C3 O6 1_555 1_555
O3 Sm1 1_555 1_555
O4 Sm2 1_555 1_555
O5 S1 1_555 1_555
O6 Sm2_2 1_555 1_555
O7 S1 1_555 1_555
C4 H5 1_555 1_555
H6 C4 1_555 1_555
O8 Sm1 1_555 1_555
O9 C3 1_555 1_555
O10 S1 1_555 1_555
O11 C2 1_555 1_555
O12 Sm1 1_555 1_555
O13 Sm2 1_555 1_555
O14 Sm1 1_555 1_555
C5 O8 1_555 1_555
C6 C1 1_555 1_555
H7 C6 1_555 1_555
H8 C6 1_555 1_555
C7 C3 1_555 1_555
H9 C7 1_555 1_555
H10 C7 1_555 1_555
C8 C5 1_555 1_555
H11 C8 1_555 1_555
H12 C8 1_555 1_555
Sm1B O7 1_555 1_555
Sm1C O1 1_555 1_555
Sm2C O1 1_555 1_555
Sm2_2 O9 1_555 1_555
Sm2B O9 1_555 1_555
Sm2A O10 1_555 1_555
O1C Sm1 1_555 1_555
O5C Sm2 1_555 1_555
O6_2 Sm2 1_555 1_555
O7B Sm1 1_555 1_555
O8B Sm1 1_555 1_555
O9_2 Sm2 1_555 1_555
O9B Sm2 1_555 1_555
O10A Sm2 1_555 1_555
O11C Sm1 1_555 1_555
Sm2 O1C 1_555 1_555
C1 O4 1_555 1_555
O5 Sm2C 1_555 1_555
C4 C6 1_555 1_555
O8 Sm1B 1_555 1_555
O11 Sm1C 1_555 1_555
O12 C5 1_555 1_555
C7 C8 1_555 1_555
Sm1B O8B 1_555 1_555

#END
