
#######################################################################
#
#                 Cambridge Crystallographic Data Centre
#                                CCDC 
#
#######################################################################
#
# If this CIF has been generated from an entry in the Cambridge 
# Structural Database, then it will include bibliographic, chemical, 
# crystal, experimental, refinement or atomic coordinate data resulting 
# from the CCDC's data processing and validation procedures.
#
#######################################################################

data_SAPQOQ
_symmetry_cell_setting           monoclinic
_symmetry_space_group_name_H-M   'P 21/n'
_symmetry_Int_Tables_number      14
_space_group_name_Hall           '-P 2yn'
loop_
_symmetry_equiv_pos_site_id
_symmetry_equiv_pos_as_xyz
1 x,y,z
2 1/2-x,1/2+y,1/2-z
3 -x,-y,-z
4 1/2+x,1/2-y,1/2+z
_cell_length_a                   11.361(3)
_cell_length_b                   7.098(2)
_cell_length_c                   14.597(4)
_cell_angle_alpha                90
_cell_angle_beta                 107.538(4)
_cell_angle_gamma                90
_cell_volume                     1122.39
loop_
_atom_site_label
_atom_site_type_symbol
_atom_site_fract_x
_atom_site_fract_y
_atom_site_fract_z
Ni1 Ni 1.0000 0.0000 0.0000
Ni2 Ni 1.0000 0.0000 0.5000
N1 N 0.85205(16) -0.0113(2) 0.37069(12)
O1 O 0.92584(13) 0.0396(2) 0.11077(10)
O2 O 0.72665(13) -0.00626(19) 0.02887(10)
O3 O 0.43161(13) -0.1317(2) 0.21445(10)
O4 O 0.47474(14) 0.00632(19) 0.35713(11)
C1 C 0.87551(19) -0.0023(3) 0.28606(15)
H1 H 0.9574 0.0027 0.2863
C2 C 0.78409(19) -0.0002(3) 0.19858(15)
C3 C 0.66241(18) -0.0128(3) 0.19808(14)
H2 H 0.5990 -0.0135 0.1403
C4 C 0.63594(19) -0.0244(3) 0.28510(15)
C5 C 0.73327(19) -0.0208(3) 0.36942(15)
H3 H 0.7158 -0.0252 0.4277
C6 C 0.81471(19) 0.0115(3) 0.10497(14)
C7 C 0.50369(18) -0.0520(3) 0.28532(15)
O5 O 1.07419(13) 0.2666(2) 0.01304(10)
H4 H 1.0599 0.3238 0.0592
H5 H 1.0446 0.3212 -0.0406
O6 O 0.84595(13) 0.0953(2) -0.10451(10)
H6 H 0.8393 0.0655 -0.1627
H7 H 0.7864 0.0499 -0.0874
O7 O 0.89368(14) 0.1636(2) 0.56528(11)
H8 H 0.8565 0.2580 0.5330
H9 H 0.8549 0.1179 0.6017
O8 O 0.94191(14) -0.2408(2) 0.54640(10)
H10 H 0.9516 -0.2660 0.6045
H11 H 0.8919 -0.3105 0.5071
Ni2_2 Ni 1.0000 0.0000 -0.5000
N1B N 1.14795(16) 0.0113(2) -0.37069(12)
N1B_2 N 1.14795(16) 0.0113(2) 0.62931(12)
O1B O 1.07416(13) -0.0396(2) -0.11077(10)
O2B O 1.27335(13) 0.00626(19) -0.02887(10)
O3B O 1.56839(13) 0.1317(2) -0.21445(10)
O4B O 1.52526(14) -0.00632(19) -0.35713(11)
C1B C 1.12449(19) 0.0023(3) -0.28606(15)
H1B H 1.0426 -0.0027 -0.2863
C2B C 1.21591(19) 0.0002(3) -0.19858(15)
C3B C 1.33759(18) 0.0128(3) -0.19808(14)
H2B H 1.4010 0.0135 -0.1403
C4B C 1.36406(19) 0.0244(3) -0.28510(15)
C5B C 1.26673(19) 0.0208(3) -0.36942(15)
H3B H 1.2842 0.0252 -0.4277
C6B C 1.18529(19) -0.0115(3) -0.10497(14)
C7B C 1.49631(18) 0.0520(3) -0.28532(15)
O5B O 0.92581(13) -0.2666(2) -0.01304(10)
H4B H 0.9401 -0.3238 -0.0592
H5B H 0.9554 -0.3212 0.0406
O6B O 1.15405(13) -0.0953(2) 0.10451(10)
H6B H 1.1607 -0.0655 0.1627
H7B H 1.2136 -0.0499 0.0874
O7B O 1.10632(14) -0.1636(2) 0.43472(11)
H8B H 1.1435 -0.2580 0.4670
H9B H 1.1451 -0.1179 0.3983
O8B O 1.05809(14) 0.2408(2) 0.45360(10)
H10B H 1.0484 0.2660 0.3955
H11B H 1.1081 0.3105 0.4929
O9 O 0.79288(16) 0.9774(2) 0.70009(13)
H12 H 0.8247 0.8680 0.7053
H13 H 0.7149 0.9752 0.6792
loop_
_geom_bond_atom_site_label_1
_geom_bond_atom_site_label_2
_geom_bond_site_symmetry_1
_geom_bond_site_symmetry_2
Ni1 O1 1_555 1_555
Ni2 N1 1_555 1_555
N1 C1 1_555 1_555
O1 C6 1_555 1_555
O2 C6 1_555 1_555
O3 C7 1_555 1_555
O4 C7 1_555 1_555
C1 H1 1_555 1_555
C2 C1 1_555 1_555
C3 C2 1_555 1_555
H2 C3 1_555 1_555
C4 C3 1_555 1_555
C5 N1 1_555 1_555
H3 C5 1_555 1_555
C6 C2 1_555 1_555
C7 C4 1_555 1_555
O5 Ni1 1_555 1_555
H4 O5 1_555 1_555
H5 O5 1_555 1_555
O6 Ni1 1_555 1_555
H6 O6 1_555 1_555
H7 O6 1_555 1_555
O7 Ni2 1_555 1_555
H8 O7 1_555 1_555
H9 O7 1_555 1_555
O8 Ni2 1_555 1_555
H10 O8 1_555 1_555
H11 O8 1_555 1_555
O9 H12 1_555 1_555
H13 O9 1_555 1_555
Ni2_2 N1B 1_555 1_555
N1B C1B 1_555 1_555
N1B_2 Ni2 1_555 1_555
O1B Ni1 1_555 1_555
O2B C6B 1_555 1_555
O3B C7B 1_555 1_555
O4B C7B 1_555 1_555
C1B H1B 1_555 1_555
C2B C1B 1_555 1_555
C3B C2B 1_555 1_555
H2B C3B 1_555 1_555
C4B C3B 1_555 1_555
C5B N1B 1_555 1_555
H3B C5B 1_555 1_555
C6B O1B 1_555 1_555
C7B C4B 1_555 1_555
O5B Ni1 1_555 1_555
H4B O5B 1_555 1_555
H5B O5B 1_555 1_555
O6B Ni1 1_555 1_555
H6B O6B 1_555 1_555
H7B O6B 1_555 1_555
O7B Ni2 1_555 1_555
H8B O7B 1_555 1_555
H9B O7B 1_555 1_555
O8B Ni2 1_555 1_555
H10B O8B 1_555 1_555
H11B O8B 1_555 1_555
C4 C5 1_555 1_555
C2B C6B 1_555 1_555
C4B C5B 1_555 1_555

#END
