
#######################################################################
#
#                 Cambridge Crystallographic Data Centre
#                                CCDC 
#
#######################################################################
#
# If this CIF has been generated from an entry in the Cambridge 
# Structural Database, then it will include bibliographic, chemical, 
# crystal, experimental, refinement or atomic coordinate data resulting 
# from the CCDC's data processing and validation procedures.
#
#######################################################################

data_SAPQOQ01
_symmetry_cell_setting           monoclinic
_symmetry_space_group_name_H-M   'P 21/n'
_symmetry_Int_Tables_number      14
_space_group_name_Hall           '-P 2yn'
loop_
_symmetry_equiv_pos_site_id
_symmetry_equiv_pos_as_xyz
1 x,y,z
2 1/2-x,1/2+y,1/2-z
3 -x,-y,-z
4 1/2+x,1/2-y,1/2+z
_cell_length_a                   11.377(2)
_cell_length_b                   7.1027(13)
_cell_length_c                   14.608(3)
_cell_angle_alpha                90
_cell_angle_beta                 107.579(2)
_cell_angle_gamma                90
_cell_volume                     1125.31
loop_
_atom_site_label
_atom_site_type_symbol
_atom_site_fract_x
_atom_site_fract_y
_atom_site_fract_z
Ni1 Ni 0.5000 -0.5000 0.5000
Ni2 Ni 0.5000 -0.5000 0.0000
O1 O 0.4256(3) -0.5385(5) 0.1111(2)
O2 O -0.0249(3) -0.5064(4) 0.3571(2)
O3 O -0.0677(3) -0.3676(5) 0.2146(2)
O4 O 0.2267(3) -0.4933(4) 0.0289(2)
O5 O 0.6074(3) -0.3360(5) 0.4348(2)
O6 O 0.5591(3) -0.7419(4) 0.4534(2)
O7 O 0.5737(3) -0.7687(4) 0.0133(2)
O8 O 0.6553(3) -0.4070(5) 0.1049(2)
C1 C 0.0049(4) -0.4495(6) 0.2855(3)
C2 C 0.2845(4) -0.4991(6) 0.1990(3)
C3 C 0.3149(4) -0.5111(6) 0.1051(3)
C4 C 0.1618(4) -0.4879(6) 0.1986(3)
H1 H 0.0984 -0.4877 0.1408
N1 N 0.3521(3) -0.4880(5) 0.3709(2)
C5 C 0.1353(4) -0.4770(6) 0.2849(3)
C6 C 0.2327(4) -0.4798(6) 0.3686(3)
H2 H 0.2150 -0.4759 0.4267
C7 C 0.3756(4) -0.4972(6) 0.2859(3)
H3 H 0.4574 -0.5025 0.2860
Ni1_2 Ni 0.5000 -0.5000 -0.5000
O1B O 0.5744(3) -0.4615(5) -0.1111(2)
O2B O 1.0249(3) -0.4936(4) -0.3571(2)
O3B O 1.0677(3) -0.6324(5) -0.2146(2)
O4B O 0.7733(3) -0.5067(4) -0.0289(2)
O5B O 0.3926(3) -0.6640(5) 0.5652(2)
O6B O 0.4409(3) -0.2581(4) 0.5466(2)
O7B O 0.4263(3) -0.2313(4) -0.0133(2)
O8B O 0.3447(3) -0.5930(5) -0.1049(2)
C1B C 0.9951(4) -0.5505(6) -0.2855(3)
C2B C 0.7155(4) -0.5009(6) -0.1990(3)
C3B C 0.6851(4) -0.4889(6) -0.1051(3)
C4B C 0.8382(4) -0.5121(6) -0.1986(3)
H1B H 0.9016 -0.5123 -0.1408
N1B N 0.6479(3) -0.5120(5) -0.3709(2)
N1B_2 N 0.6479(3) -0.5120(5) 0.6291(2)
C5B C 0.8647(4) -0.5230(6) -0.2849(3)
C6B C 0.7673(4) -0.5202(6) -0.3686(3)
H2B H 0.7850 -0.5241 -0.4267
C7B C 0.6244(4) -0.5028(6) -0.2859(3)
H3B H 0.5426 -0.4975 -0.2860
O9 O -0.2080(4) -0.0238(5) 0.1995(3)
loop_
_geom_bond_atom_site_label_1
_geom_bond_atom_site_label_2
_geom_bond_site_symmetry_1
_geom_bond_site_symmetry_2
Ni1 O5 1_555 1_555
Ni2 O1 1_555 1_555
O1 C3 1_555 1_555
O2 C1 1_555 1_555
O3 C1 1_555 1_555
O4 C3 1_555 1_555
O6 Ni1 1_555 1_555
O7 Ni2 1_555 1_555
O8 Ni2 1_555 1_555
C1 C5 1_555 1_555
C2 C3 1_555 1_555
C4 C2 1_555 1_555
H1 C4 1_555 1_555
N1 Ni1 1_555 1_555
C5 C4 1_555 1_555
C6 N1 1_555 1_555
H2 C6 1_555 1_555
C7 C2 1_555 1_555
H3 C7 1_555 1_555
Ni1_2 N1B 1_555 1_555
O1B Ni2 1_555 1_555
O2B C1B 1_555 1_555
O3B C1B 1_555 1_555
O4B C3B 1_555 1_555
O5B Ni1 1_555 1_555
O6B Ni1 1_555 1_555
O7B Ni2 1_555 1_555
O8B Ni2 1_555 1_555
C1B C5B 1_555 1_555
C2B C3B 1_555 1_555
C3B O1B 1_555 1_555
C4B C2B 1_555 1_555
H1B C4B 1_555 1_555
N1B C6B 1_555 1_555
N1B_2 Ni1 1_555 1_555
C5B C4B 1_555 1_555
C6B C5B 1_555 1_555
H2B C6B 1_555 1_555
C7B C2B 1_555 1_555
H3B C7B 1_555 1_555
N1 C7 1_555 1_555
C5 C6 1_555 1_555
N1B C7B 1_555 1_555

#END
