
#######################################################################
#
#                 Cambridge Crystallographic Data Centre
#                                CCDC 
#
#######################################################################
#
# If this CIF has been generated from an entry in the Cambridge 
# Structural Database, then it will include bibliographic, chemical, 
# crystal, experimental, refinement or atomic coordinate data resulting 
# from the CCDC's data processing and validation procedures.
#
#######################################################################

data_SAPVOV
_symmetry_cell_setting           triclinic
_symmetry_space_group_name_H-M   'P -1'
_symmetry_Int_Tables_number      2
_space_group_name_Hall           '-P 1'
loop_
_symmetry_equiv_pos_site_id
_symmetry_equiv_pos_as_xyz
1 x,y,z
2 -x,-y,-z
_cell_length_a                   4.5914(6)
_cell_length_b                   5.9810(8)
_cell_length_c                   17.811(3)
_cell_angle_alpha                81.513(16)
_cell_angle_beta                 86.272(16)
_cell_angle_gamma                82.251(15)
_cell_volume                     478.829
loop_
_atom_site_label
_atom_site_type_symbol
_atom_site_fract_x
_atom_site_fract_y
_atom_site_fract_z
Cu1 Cu 0.0000 0.5000 0.5000
P1 P 0.4936(2) 0.65866(16) 0.61449(5)
O1 O 0.2255(6) 0.7698(4) 0.57026(14)
O2 O 0.6847(6) 0.4721(4) 0.57905(14)
O3 O 0.6818(6) 0.8504(4) 0.62641(16)
H1 H 0.8492 0.8216 0.6084
O4 O 1.3150(7) -0.0703(5) 0.93043(18)
O5 O 1.2963(7) 0.2672(5) 0.97168(17)
H2 H 1.4024 0.1915 1.0039
O6 O -0.2320(6) 0.7659(4) 0.44253(15)
H3 H -0.2289 0.8992 0.4450
H4 H -0.4256 0.7540 0.4469
C1 C 0.3566(9) 0.5436(7) 0.7069(2)
H5 H 0.2318 0.6644 0.7285
H6 H 0.2342 0.4280 0.7008
C2 C 0.5886(9) 0.4390(6) 0.7632(2)
C3 C 0.7238(9) 0.2155(6) 0.7625(2)
H7 H 0.6769 0.1311 0.7261
C4 C 0.9274(9) 0.1196(6) 0.8158(2)
H8 H 1.0144 -0.0300 0.8155
C5 C 1.0031(9) 0.2445(6) 0.8698(2)
C6 C 0.8735(9) 0.4689(7) 0.8708(2)
H9 H 0.9239 0.5543 0.9065
C7 C 0.6660(9) 0.5629(7) 0.8170(2)
H10 H 0.5778 0.7121 0.8173
C8 C 1.2194(9) 0.1360(7) 0.9273(2)
Cu1_2 Cu 1.0000 0.5000 0.5000
Cu1_3 Cu -1.0000 0.5000 0.5000
P1A P -0.4936(2) 0.34134(16) 0.38551(5)
O1A O -0.2255(6) 0.2302(4) 0.42974(14)
O2A O -0.6847(6) 0.5279(4) 0.42095(14)
O2_2 O -0.3153(6) 0.4721(4) 0.57905(14)
O2A_2 O 0.3153(6) 0.5279(4) 0.42095(14)
O3A O -0.6818(6) 0.1496(4) 0.37359(16)
H1A H -0.8492 0.1784 0.3916
O4A O -1.3150(7) 1.0703(5) 0.06957(18)
O5A O -1.2963(7) 0.7328(5) 0.02832(17)
H2A H -1.4024 0.8085 -0.0039
O6A O 0.2320(6) 0.2341(4) 0.55747(15)
H3A H 0.2289 0.1008 0.5550
H4A H 0.4256 0.2460 0.5531
C1A C -0.3566(9) 0.4564(7) 0.2931(2)
H5A H -0.2318 0.3356 0.2715
H6A H -0.2342 0.5720 0.2992
C2A C -0.5886(9) 0.5610(6) 0.2368(2)
C3A C -0.7238(9) 0.7845(6) 0.2375(2)
H7A H -0.6769 0.8689 0.2739
C4A C -0.9274(9) 0.8804(6) 0.1842(2)
H8A H -1.0144 1.0300 0.1845
C5A C -1.0031(9) 0.7555(6) 0.1302(2)
C6A C -0.8735(9) 0.5311(7) 0.1292(2)
H9A H -0.9239 0.4457 0.0935
C7A C -0.6660(9) 0.4371(7) 0.1830(2)
H10A H -0.5778 0.2879 0.1827
C8A C -1.2194(9) 0.8640(7) 0.0727(2)
loop_
_geom_bond_atom_site_label_1
_geom_bond_atom_site_label_2
_geom_bond_site_symmetry_1
_geom_bond_site_symmetry_2
Cu1 O1 1_555 1_555
P1 O1 1_555 1_555
O2 P1 1_555 1_555
O3 P1 1_555 1_555
H1 O3 1_555 1_555
O4 C8 1_555 1_555
O5 H2 1_555 1_555
O6 Cu1 1_555 1_555
H3 O6 1_555 1_555
H4 O6 1_555 1_555
C1 P1 1_555 1_555
H5 C1 1_555 1_555
H6 C1 1_555 1_555
C2 C1 1_555 1_555
C3 C2 1_555 1_555
H7 C3 1_555 1_555
C4 C3 1_555 1_555
H8 C4 1_555 1_555
C5 C4 1_555 1_555
C6 C5 1_555 1_555
H9 C6 1_555 1_555
C7 C2 1_555 1_555
H10 C7 1_555 1_555
C8 O5 1_555 1_555
Cu1_2 O2 1_555 1_555
Cu1_3 O2A 1_555 1_555
P1A O1A 1_555 1_555
O1A Cu1 1_555 1_555
O2A P1A 1_555 1_555
O2_2 Cu1 1_555 1_555
O2A_2 Cu1 1_555 1_555
O3A P1A 1_555 1_555
H1A O3A 1_555 1_555
O4A C8A 1_555 1_555
O5A H2A 1_555 1_555
O6A Cu1 1_555 1_555
H3A O6A 1_555 1_555
H4A O6A 1_555 1_555
C1A P1A 1_555 1_555
H5A C1A 1_555 1_555
H6A C1A 1_555 1_555
C2A C1A 1_555 1_555
C3A C2A 1_555 1_555
H7A C3A 1_555 1_555
C4A C3A 1_555 1_555
H8A C4A 1_555 1_555
C5A C4A 1_555 1_555
C6A C5A 1_555 1_555
H9A C6A 1_555 1_555
C7A C2A 1_555 1_555
H10A C7A 1_555 1_555
C8A O5A 1_555 1_555
C5 C8 1_555 1_555
C6 C7 1_555 1_555
C5A C8A 1_555 1_555
C6A C7A 1_555 1_555

#END
