
#######################################################################
#
#                 Cambridge Crystallographic Data Centre
#                                CCDC 
#
#######################################################################
#
# If this CIF has been generated from an entry in the Cambridge 
# Structural Database, then it will include bibliographic, chemical, 
# crystal, experimental, refinement or atomic coordinate data resulting 
# from the CCDC's data processing and validation procedures.
#
#######################################################################

data_SAPVIP
_symmetry_cell_setting           triclinic
_symmetry_space_group_name_H-M   'P -1'
_symmetry_Int_Tables_number      2
_space_group_name_Hall           '-P 1'
loop_
_symmetry_equiv_pos_site_id
_symmetry_equiv_pos_as_xyz
1 x,y,z
2 -x,-y,-z
_cell_length_a                   4.61980(10)
_cell_length_b                   5.9379(2)
_cell_length_c                   18.0676(2)
_cell_angle_alpha                83.119(2)
_cell_angle_beta                 88.307(2)
_cell_angle_gamma                84.461(2)
_cell_volume                     489.68
loop_
_atom_site_label
_atom_site_type_symbol
_atom_site_fract_x
_atom_site_fract_y
_atom_site_fract_z
Mn1 Mn 0.0000 0.5000 0.5000
P1 P 0.47415(11) 0.61071(9) 0.62130(3)
O1 O 0.2036(3) 0.7092(3) 0.57768(8)
O2 O 0.6689(3) 0.4360(2) 0.58434(8)
O3 O 0.6557(3) 0.8134(3) 0.63616(9)
H1 H 0.813(6) 0.800(5) 0.6195(15)
O4 O 1.3206(4) -0.0771(3) 0.92766(10)
H2 H 1.4384 -0.1482 0.9655
O5 O 1.2840(4) 0.2536(3) 0.97585(10)
O6 O -0.2496(4) 0.8163(3) 0.45782(10)
H3 H -0.226(6) 0.949(5) 0.4498(15)
H4 H -0.412(7) 0.804(5) 0.4420(15)
C1 C 0.3458(5) 0.4943(4) 0.71143(12)
H5 H 0.2221 0.6125 0.7327
H6 H 0.2259 0.3733 0.7046
C2 C 0.5766(5) 0.4005(4) 0.76702(11)
C3 C 0.7128(5) 0.1808(4) 0.76583(13)
H7 H 0.6647 0.0930 0.7295
C4 C 0.9184(5) 0.0923(4) 0.81806(13)
H8 H 1.0064 -0.0549 0.8169
C5 C 0.9946(5) 0.2224(4) 0.87238(12)
C6 C 0.8616(5) 0.4420(4) 0.87377(13)
H9 H 0.9118 0.5303 0.9097
C7 C 0.6545(5) 0.5290(4) 0.82154(13)
H10 H 0.5657 0.6759 0.8229
C8 C 1.2130(5) 0.1252(4) 0.92861(12)
Mn1_2 Mn 1.0000 0.5000 0.5000
Mn1_3 Mn -1.0000 0.5000 0.5000
P1A P -0.47415(11) 0.38929(9) 0.37870(3)
O1A O -0.2036(3) 0.2908(3) 0.42232(8)
O2A O -0.6689(3) 0.5640(2) 0.41566(8)
O2_2 O -0.3311(3) 0.4360(2) 0.58434(8)
O2A_2 O 0.3311(3) 0.5640(2) 0.41566(8)
O3A O -0.6557(3) 0.1866(3) 0.36384(9)
H1A H -0.813(6) 0.200(5) 0.3805(15)
O4A O -1.3206(4) 1.0771(3) 0.07234(10)
H2A H -1.4384 1.1482 0.0345
O5A O -1.2840(4) 0.7464(3) 0.02415(10)
O6A O 0.2496(4) 0.1837(3) 0.54218(10)
H3A H 0.226(6) 0.051(5) 0.5502(15)
H4A H 0.412(7) 0.196(5) 0.5580(15)
C1A C -0.3458(5) 0.5057(4) 0.28857(12)
H5A H -0.2221 0.3875 0.2673
H6A H -0.2259 0.6267 0.2954
C2A C -0.5766(5) 0.5995(4) 0.23298(11)
C3A C -0.7128(5) 0.8192(4) 0.23417(13)
H7A H -0.6647 0.9070 0.2705
C4A C -0.9184(5) 0.9077(4) 0.18194(13)
H8A H -1.0064 1.0549 0.1831
C5A C -0.9946(5) 0.7776(4) 0.12762(12)
C6A C -0.8616(5) 0.5580(4) 0.12623(13)
H9A H -0.9118 0.4697 0.0903
C7A C -0.6545(5) 0.4710(4) 0.17846(13)
H10A H -0.5657 0.3241 0.1771
C8A C -1.2130(5) 0.8748(4) 0.07139(12)
loop_
_geom_bond_atom_site_label_1
_geom_bond_atom_site_label_2
_geom_bond_site_symmetry_1
_geom_bond_site_symmetry_2
Mn1 O1 1_555 1_555
P1 O1 1_555 1_555
O2 P1 1_555 1_555
O3 P1 1_555 1_555
H1 O3 1_555 1_555
O4 H2 1_555 1_555
O5 C8 1_555 1_555
O6 Mn1 1_555 1_555
H3 O6 1_555 1_555
H4 O6 1_555 1_555
C1 P1 1_555 1_555
H5 C1 1_555 1_555
H6 C1 1_555 1_555
C2 C1 1_555 1_555
C3 C2 1_555 1_555
H7 C3 1_555 1_555
C4 C3 1_555 1_555
H8 C4 1_555 1_555
C5 C4 1_555 1_555
C6 C5 1_555 1_555
H9 C6 1_555 1_555
C7 C2 1_555 1_555
H10 C7 1_555 1_555
C8 O4 1_555 1_555
Mn1_2 O2 1_555 1_555
Mn1_3 O2A 1_555 1_555
P1A O1A 1_555 1_555
O1A Mn1 1_555 1_555
O2A P1A 1_555 1_555
O2_2 Mn1 1_555 1_555
O2A_2 Mn1 1_555 1_555
O3A P1A 1_555 1_555
H1A O3A 1_555 1_555
O4A H2A 1_555 1_555
O5A C8A 1_555 1_555
O6A Mn1 1_555 1_555
H3A O6A 1_555 1_555
H4A O6A 1_555 1_555
C1A P1A 1_555 1_555
H5A C1A 1_555 1_555
H6A C1A 1_555 1_555
C2A C1A 1_555 1_555
C3A C2A 1_555 1_555
H7A C3A 1_555 1_555
C4A C3A 1_555 1_555
H8A C4A 1_555 1_555
C5A C4A 1_555 1_555
C6A C5A 1_555 1_555
H9A C6A 1_555 1_555
C7A C2A 1_555 1_555
H10A C7A 1_555 1_555
C8A O4A 1_555 1_555
C5 C8 1_555 1_555
C6 C7 1_555 1_555
C5A C8A 1_555 1_555
C6A C7A 1_555 1_555

#END
