
#######################################################################
#
#                 Cambridge Crystallographic Data Centre
#                                CCDC 
#
#######################################################################
#
# If this CIF has been generated from an entry in the Cambridge 
# Structural Database, then it will include bibliographic, chemical, 
# crystal, experimental, refinement or atomic coordinate data resulting 
# from the CCDC's data processing and validation procedures.
#
#######################################################################

data_SAQGEW
_symmetry_cell_setting           monoclinic
_symmetry_space_group_name_H-M   'P 21/n'
_symmetry_Int_Tables_number      14
_space_group_name_Hall           '-P 2yn'
loop_
_symmetry_equiv_pos_site_id
_symmetry_equiv_pos_as_xyz
1 x,y,z
2 1/2-x,1/2+y,1/2-z
3 -x,-y,-z
4 1/2+x,1/2-y,1/2+z
_cell_length_a                   13.495(7)
_cell_length_b                   14.220(9)
_cell_length_c                   33.137(5)
_cell_angle_alpha                90
_cell_angle_beta                 96.74(2)
_cell_angle_gamma                90
_cell_volume                     6315.01
loop_
_atom_site_label
_atom_site_type_symbol
_atom_site_fract_x
_atom_site_fract_y
_atom_site_fract_z
Fe1 Fe 0.3017(1) 0.8081(1) -0.02802(5)
Fe2 Fe 0.5000 0.5000 0.0000
Fe3 Fe 0.2008(1) 0.3057(1) 0.02324(5)
Fe4 Fe 0.0000 0.0000 0.0000
O1 O 0.3919(6) 0.8888(5) 0.0029(2)
O2 O 0.3215(6) 0.8253(6) -0.0830(2)
O3 O 0.2002(6) 0.3242(5) 0.0803(2)
O4 O 0.0939(6) 0.3748(6) -0.0044(2)
N1 N 0.2454(8) 0.7711(8) 0.0254(3)
N2 N 0.1914(8) 0.7072(7) -0.0464(4)
N3 N 0.3999(8) 0.6948(8) -0.0206(4)
N4 N 0.559(1) 0.575(1) 0.0882(5)
N5 N 0.2980(8) 0.4207(7) 0.0207(3)
N6 N 0.3290(7) 0.2213(7) 0.0375(3)
N7 N 0.2421(8) 0.2664(7) -0.0344(3)
N8 N 0.1135(7) 0.1804(8) 0.0230(3)
N9 N 0.1844(8) -0.0872(7) -0.0320(3)
N10 N -0.0641(9) 0.1014(8) -0.0809(3)
C1 C 0.4157(10) 0.9006(9) 0.0427(4)
C2 C 0.4968(10) 0.9602(9) 0.0557(4)
C3 C 0.525(1) 0.9748(10) 0.0964(5)
C4 C 0.476(1) 0.929(1) 0.1255(4)
C5 C 0.398(1) 0.873(1) 0.1136(5)
C6 C 0.366(1) 0.8572(9) 0.0723(4)
C7 C 0.280(1) 0.796(1) 0.0599(5)
C8 C 0.1535(10) 0.714(1) 0.0220(4)
C9 C 0.156(1) 0.653(1) -0.0138(5)
C10 C 0.152(1) 0.6964(10) -0.0825(5)
C11 C 0.181(1) 0.742(1) -0.1178(5)
C12 C 0.127(1) 0.728(1) -0.1562(6)
C13 C 0.147(1) 0.765(1) -0.1923(5)
C14 C 0.229(1) 0.820(1) -0.1905(5)
C15 C 0.289(1) 0.8389(10) -0.1536(5)
C16 C 0.267(1) 0.8021(9) -0.1167(4)
C17 C 0.4363(9) 0.625(1) -0.0134(4)
C18 C 0.537(1) 0.547(1) 0.0567(5)
C19 C 0.3710(10) 0.4516(8) 0.0129(4)
C20 C 0.277(1) 0.3267(8) 0.1088(4)
C21 C 0.264(1) 0.363(1) 0.1471(4)
C22 C 0.341(2) 0.370(1) 0.1780(5)
C23 C 0.433(2) 0.340(1) 0.1731(5)
C24 C 0.448(1) 0.299(1) 0.1360(5)
C25 C 0.3722(10) 0.2885(9) 0.1044(4)
C26 C 0.3900(10) 0.2345(9) 0.0688(5)
C27 C 0.3536(10) 0.1597(10) 0.0046(4)
C28 C 0.338(1) 0.215(1) -0.0342(4)
C29 C 0.199(1) 0.291(1) -0.0683(4)
C30 C 0.113(1) 0.352(1) -0.0744(4)
C31 C 0.076(2) 0.373(1) -0.1144(5)
C32 C -0.004(1) 0.434(1) -0.1232(5)
C33 C -0.045(1) 0.477(1) -0.0925(5)
C34 C -0.0123(10) 0.4586(9) -0.0537(4)
C35 C 0.0662(9) 0.3939(9) -0.0428(4)
C36 C 0.0706(8) 0.1113(8) 0.0167(4)
C37 C 0.1154(9) -0.0509(8) -0.0217(4)
C38 C -0.0405(10) 0.0638(9) -0.0521(4)
C17B C 0.5637(9) 0.375(1) 0.0134(4)
N3B N 0.6001(8) 0.3052(8) 0.0206(4)
Fe1B Fe 0.6983(1) 0.1919(1) 0.02802(5)
N3_2 N 0.3999(8) -0.3052(8) -0.0206(4)
Fe1_2 Fe 0.3017(1) -0.1919(1) -0.02802(5)
O1_2 O 0.3919(6) -0.1112(5) 0.0029(2)
C1_2 C 0.4157(10) -0.0994(9) 0.0427(4)
C2_2 C 0.4968(10) -0.0398(9) 0.0557(4)
C3_2 C 0.525(1) -0.0252(10) 0.0964(5)
C4_2 C 0.476(1) -0.071(1) 0.1255(4)
C5_2 C 0.398(1) -0.127(1) 0.1136(5)
C6_2 C 0.366(1) -0.1428(9) 0.0723(4)
C7_2 C 0.280(1) -0.204(1) 0.0599(5)
N1_2 N 0.2454(8) -0.2289(8) 0.0254(3)
O2_2 O 0.3215(6) -0.1747(6) -0.0830(2)
C16_2 C 0.267(1) -0.1979(9) -0.1167(4)
C11_2 C 0.181(1) -0.258(1) -0.1178(5)
C10_2 C 0.152(1) -0.3036(10) -0.0825(5)
N2_2 N 0.1914(8) -0.2928(7) -0.0464(4)
N9_2 N 0.1844(8) 0.9128(7) -0.0320(3)
C18B C 0.463(1) 0.453(1) -0.0567(5)
N4B N 0.441(1) 0.425(1) -0.0882(5)
C19B C 0.6290(10) 0.5484(8) -0.0129(4)
N5B N 0.7020(8) 0.5793(7) -0.0207(3)
Fe3B Fe 0.7992(1) 0.6943(1) -0.02324(5)
C36B C -0.0706(8) -0.1113(8) -0.0167(4)
N8B N -0.1135(7) -0.1804(8) -0.0230(3)
Fe3B_2 Fe -0.2008(1) -0.3057(1) -0.02324(5)
C37B C -0.1154(9) 0.0509(8) 0.0217(4)
N9B N -0.1844(8) 0.0872(7) 0.0320(3)
Fe1B_2 Fe -0.3017(1) 0.1919(1) 0.02802(5)
O1B O -0.3919(6) 0.1112(5) -0.0029(2)
C1B C -0.4157(10) 0.0994(9) -0.0427(4)
C2B C -0.4968(10) 0.0398(9) -0.0557(4)
C3B C -0.525(1) 0.0252(10) -0.0964(5)
C4B C -0.476(1) 0.071(1) -0.1255(4)
C5B C -0.398(1) 0.127(1) -0.1136(5)
C6B C -0.366(1) 0.1428(9) -0.0723(4)
C7B C -0.280(1) 0.204(1) -0.0599(5)
N1B N -0.2454(8) 0.2289(8) -0.0254(3)
O2B O -0.3215(6) 0.1747(6) 0.0830(2)
C16B C -0.267(1) 0.1979(9) 0.1167(4)
C11B C -0.181(1) 0.258(1) 0.1178(5)
C10B C -0.152(1) 0.3036(10) 0.0825(5)
N2B N -0.1914(8) 0.2928(7) 0.0464(4)
N3B_2 N -0.3999(8) 0.3052(8) 0.0206(4)
C9B C -0.156(1) 0.347(1) 0.0138(5)
C8B C -0.1535(10) 0.286(1) -0.0220(4)
C12B C -0.127(1) 0.272(1) 0.1562(6)
C13B C -0.147(1) 0.235(1) 0.1923(5)
C14B C -0.229(1) 0.180(1) 0.1905(5)
C15B C -0.289(1) 0.1611(10) 0.1536(5)
C38B C 0.0405(10) -0.0638(9) 0.0521(4)
N10B N 0.0641(9) -0.1014(8) 0.0809(3)
C9_2 C 0.156(1) -0.347(1) -0.0138(5)
C8_2 C 0.1535(10) -0.286(1) 0.0220(4)
C12_2 C 0.127(1) -0.272(1) -0.1562(6)
C13_2 C 0.147(1) -0.235(1) -0.1923(5)
C14_2 C 0.229(1) -0.180(1) -0.1905(5)
C15_2 C 0.289(1) -0.1611(10) -0.1536(5)
Fe5 Fe 0.3652(2) 0.4826(2) 0.30189(6)
O5 O 0.2434(8) 0.4422(8) 0.2699(3)
O6 O 0.4711(8) 0.4192(8) 0.2818(3)
O7 O 0.3831(9) 0.5997(9) 0.2637(3)
O8 O 0.3522(8) 0.3732(7) 0.3444(3)
N11 N 0.272(1) 0.5664(8) 0.3362(3)
N12 N 0.4697(9) 0.5467(8) 0.3456(3)
C39 C 0.154(1) 0.478(1) 0.2664(4)
C40 C 0.092(1) 0.440(1) 0.2369(5)
C41 C -0.005(2) 0.473(1) 0.2303(5)
C42 C -0.040(1) 0.549(1) 0.2530(6)
C43 C 0.029(1) 0.581(1) 0.2839(5)
C44 C 0.124(1) 0.548(1) 0.2913(4)
C45 C 0.179(1) 0.585(1) 0.3259(5)
C46 C 0.330(1) 0.601(1) 0.3752(4)
C47 C 0.436(1) 0.624(1) 0.3689(5)
C48 C 0.556(1) 0.519(1) 0.3550(4)
C49 C 0.604(1) 0.442(1) 0.3360(4)
C50 C 0.700(1) 0.411(1) 0.3509(5)
C51 C 0.751(1) 0.335(2) 0.3335(6)
C52 C 0.709(1) 0.293(2) 0.3004(6)
C53 C 0.616(2) 0.317(1) 0.2844(5)
C54 C 0.562(1) 0.396(1) 0.3004(5)
C55 C 0.297(3) 0.689(3) 0.2496(9)
C56 C 0.343(2) 0.275(2) 0.3333(7)
O9 O 0.987(1) 0.141(1) 0.2865(5)
O10 O 1.128(2) 0.117(1) 0.3713(7)
O11 O 0.822(2) 0.040(2) 0.333(1)
loop_
_geom_bond_atom_site_label_1
_geom_bond_atom_site_label_2
_geom_bond_site_symmetry_1
_geom_bond_site_symmetry_2
Fe1 O1 1_555 1_555
Fe2 C17 1_555 1_555
Fe3 O3 1_555 1_555
Fe4 C36 1_555 1_555
Fe5 O5 1_555 1_555
O1 C1 1_555 1_555
O2 Fe1 1_555 1_555
O3 C20 1_555 1_555
O4 Fe3 1_555 1_555
O5 C39 1_555 1_555
O6 Fe5 1_555 1_555
O7 Fe5 1_555 1_555
O8 Fe5 1_555 1_555
N1 Fe1 1_555 1_555
N2 Fe1 1_555 1_555
N3 Fe1 1_555 1_555
N4 C18 1_555 1_555
N5 Fe3 1_555 1_555
N6 Fe3 1_555 1_555
N7 Fe3 1_555 1_555
N8 Fe3 1_555 1_555
N9 C37 1_555 1_555
N10 C38 1_555 1_555
N11 Fe5 1_555 1_555
N12 Fe5 1_555 1_555
C1 C2 1_555 1_555
C2 C3 1_555 1_555
C3 C4 1_555 1_555
C4 C5 1_555 1_555
C5 C6 1_555 1_555
C6 C1 1_555 1_555
C7 N1 1_555 1_555
C8 N1 1_555 1_555
C9 N2 1_555 1_555
C10 N2 1_555 1_555
C11 C10 1_555 1_555
C12 C11 1_555 1_555
C13 C12 1_555 1_555
C14 C13 1_555 1_555
C15 C14 1_555 1_555
C16 O2 1_555 1_555
C17 N3 1_555 1_555
C18 Fe2 1_555 1_555
C19 Fe2 1_555 1_555
C20 C21 1_555 1_555
C21 C22 1_555 1_555
C22 C23 1_555 1_555
C23 C24 1_555 1_555
C24 C25 1_555 1_555
C25 C20 1_555 1_555
C26 N6 1_555 1_555
C27 N6 1_555 1_555
C28 N7 1_555 1_555
C29 N7 1_555 1_555
C30 C29 1_555 1_555
C31 C30 1_555 1_555
C32 C31 1_555 1_555
C33 C32 1_555 1_555
C34 C33 1_555 1_555
C35 O4 1_555 1_555
C36 N8 1_555 1_555
C37 Fe4 1_555 1_555
C38 Fe4 1_555 1_555
C39 C40 1_555 1_555
C40 C41 1_555 1_555
C41 C42 1_555 1_555
C42 C43 1_555 1_555
C43 C44 1_555 1_555
C44 C39 1_555 1_555
C45 N11 1_555 1_555
C46 N11 1_555 1_555
C47 N12 1_555 1_555
C48 N12 1_555 1_555
C49 C48 1_555 1_555
C50 C49 1_555 1_555
C51 C50 1_555 1_555
C52 C51 1_555 1_555
C53 C52 1_555 1_555
C54 O6 1_555 1_555
C55 O7 1_555 1_555
C56 O8 1_555 1_555
C17B Fe2 1_555 1_555
N3B C17B 1_555 1_555
Fe1B N3B 1_555 1_555
N3_2 Fe1_2 1_555 1_555
Fe1_2 N9 1_555 1_555
O1_2 Fe1_2 1_555 1_555
C1_2 O1_2 1_555 1_555
C2_2 C1_2 1_555 1_555
C3_2 C2_2 1_555 1_555
C4_2 C3_2 1_555 1_555
C5_2 C4_2 1_555 1_555
C6_2 C1_2 1_555 1_555
C7_2 C6_2 1_555 1_555
N1_2 Fe1_2 1_555 1_555
O2_2 Fe1_2 1_555 1_555
C16_2 O2_2 1_555 1_555
C11_2 C16_2 1_555 1_555
C10_2 C11_2 1_555 1_555
N2_2 Fe1_2 1_555 1_555
N9_2 Fe1 1_555 1_555
C18B Fe2 1_555 1_555
N4B C18B 1_555 1_555
C19B Fe2 1_555 1_555
N5B C19B 1_555 1_555
Fe3B N5B 1_555 1_555
C36B Fe4 1_555 1_555
N8B C36B 1_555 1_555
Fe3B_2 N8B 1_555 1_555
C37B Fe4 1_555 1_555
N9B C37B 1_555 1_555
Fe1B_2 N9B 1_555 1_555
O1B Fe1B_2 1_555 1_555
C1B O1B 1_555 1_555
C2B C1B 1_555 1_555
C3B C2B 1_555 1_555
C4B C3B 1_555 1_555
C5B C4B 1_555 1_555
C6B C1B 1_555 1_555
C7B C6B 1_555 1_555
N1B Fe1B_2 1_555 1_555
O2B Fe1B_2 1_555 1_555
C16B O2B 1_555 1_555
C11B C16B 1_555 1_555
C10B C11B 1_555 1_555
N2B Fe1B_2 1_555 1_555
N3B_2 Fe1B_2 1_555 1_555
C9B N2B 1_555 1_555
C8B N1B 1_555 1_555
C12B C11B 1_555 1_555
C13B C12B 1_555 1_555
C14B C13B 1_555 1_555
C15B C16B 1_555 1_555
C38B Fe4 1_555 1_555
N10B C38B 1_555 1_555
C9_2 N2_2 1_555 1_555
C8_2 N1_2 1_555 1_555
C12_2 C11_2 1_555 1_555
C13_2 C12_2 1_555 1_555
C14_2 C13_2 1_555 1_555
C15_2 C16_2 1_555 1_555
N5 C19 1_555 1_555
C6 C7 1_555 1_555
C8 C9 1_555 1_555
C11 C16 1_555 1_555
C15 C16 1_555 1_555
C25 C26 1_555 1_555
C27 C28 1_555 1_555
C30 C35 1_555 1_555
C34 C35 1_555 1_555
C44 C45 1_555 1_555
C46 C47 1_555 1_555
C49 C54 1_555 1_555
C53 C54 1_555 1_555
C5_2 C6_2 1_555 1_555
C7_2 N1_2 1_555 1_555
C10_2 N2_2 1_555 1_555
C5B C6B 1_555 1_555
C7B N1B 1_555 1_555
C10B N2B 1_555 1_555
C9B C8B 1_555 1_555
C14B C15B 1_555 1_555
C9_2 C8_2 1_555 1_555
C14_2 C15_2 1_555 1_555

#END
