
#######################################################################
#
#                 Cambridge Crystallographic Data Centre
#                                CCDC 
#
#######################################################################
#
# If this CIF has been generated from an entry in the Cambridge 
# Structural Database, then it will include bibliographic, chemical, 
# crystal, experimental, refinement or atomic coordinate data resulting 
# from the CCDC's data processing and validation procedures.
#
#######################################################################

data_SAQGAU
_symmetry_cell_setting           monoclinic
_symmetry_space_group_name_H-M   'C 2'
_symmetry_Int_Tables_number      5
_space_group_name_Hall           'C 2y'
loop_
_symmetry_equiv_pos_site_id
_symmetry_equiv_pos_as_xyz
1 x,y,z
2 -x,y,-z
3 1/2+x,1/2+y,z
4 1/2-x,1/2+y,-z
_cell_length_a                   9.47(3)
_cell_length_b                   13.33(3)
_cell_length_c                   7.460(18)
_cell_angle_alpha                90
_cell_angle_beta                 128.25(5)
_cell_angle_gamma                90
_cell_volume                     739.544
loop_
_atom_site_label
_atom_site_type_symbol
_atom_site_fract_x
_atom_site_fract_y
_atom_site_fract_z
Cu1 Cu 0.5000 0.4681(3) 0.5000
N1 N 0.389(2) 0.3656(10) 0.263(3)
O1 O 0.119(2) 0.0771(10) -0.261(3)
O2 O 0.2566(19) 0.1570(10) -0.3761(19)
O3 O 0.2394(13) 0.4715(13) 0.5138(15)
H1 H 0.2306 0.4634 0.6203
C1 C 0.308(3) 0.2831(12) 0.261(3)
H2 H 0.2941 0.2743 0.3732
C2 C 0.241(3) 0.2074(15) 0.087(3)
H3 H 0.1962 0.1473 0.0962
C3 C 0.244(3) 0.2242(17) -0.094(4)
C4 C 0.324(3) 0.3127(13) -0.094(3)
H4 H 0.3349 0.3237 -0.2083
C5 C 0.387(3) 0.3832(16) 0.074(4)
H5 H 0.4287 0.4442 0.0639
C6 C 0.192(4) 0.149(2) -0.262(5)
C7 C 0.064(3) 0.458(5) 0.315(4)
H6 H 0.0635 0.4135 0.2145
H7 H 0.0152 0.5221 0.2411
H8 H -0.0085 0.4309 0.3530
Cu1B Cu 0.0000 -0.0319(3) -0.5000
Cu1B_2 Cu 1.0000 -0.0319(3) 1.5000
N1A N 0.611(2) 0.3656(10) 0.737(3)
O1A O 0.881(2) 0.0771(10) 1.261(3)
O1B O 0.619(2) 0.5771(10) 0.739(3)
O1C O 0.381(2) 0.5771(10) 0.261(3)
O2A O 0.7434(19) 0.1570(10) 1.3761(19)
O3A O 0.7606(13) 0.4715(13) 0.4862(15)
H1A H 0.7694 0.4634 0.3797
C1A C 0.692(3) 0.2831(12) 0.739(3)
H2A H 0.7059 0.2743 0.6268
C2A C 0.759(3) 0.2074(15) 0.913(3)
H3A H 0.8038 0.1473 0.9038
C3A C 0.756(3) 0.2242(17) 1.094(4)
C4A C 0.676(3) 0.3127(13) 1.094(3)
H4A H 0.6651 0.3237 1.2083
C5A C 0.613(3) 0.3832(16) 0.926(4)
H5A H 0.5713 0.4442 0.9361
C6A C 0.808(4) 0.149(2) 1.262(5)
C7A C 0.936(3) 0.458(5) 0.685(4)
H6A H 0.9365 0.4135 0.7855
H7A H 0.9848 0.5221 0.7589
H8A H 1.0085 0.4309 0.6470
loop_
_geom_bond_atom_site_label_1
_geom_bond_atom_site_label_2
_geom_bond_site_symmetry_1
_geom_bond_site_symmetry_2
Cu1 N1 1_555 1_555
N1 C1 1_555 1_555
O1 C6 1_555 1_555
O2 C6 1_555 1_555
O3 Cu1 1_555 1_555
H1 O3 1_555 1_555
C1 H2 1_555 1_555
C2 C1 1_555 1_555
H3 C2 1_555 1_555
C3 C2 1_555 1_555
C4 C3 1_555 1_555
H4 C4 1_555 1_555
C5 N1 1_555 1_555
H5 C5 1_555 1_555
C6 C3 1_555 1_555
C7 O3 1_555 1_555
H6 C7 1_555 1_555
H7 C7 1_555 1_555
H8 C7 1_555 1_555
Cu1B O1 1_555 1_555
Cu1B_2 O1A 1_555 1_555
N1A Cu1 1_555 1_555
O1A C6A 1_555 1_555
O1B Cu1 1_555 1_555
O1C Cu1 1_555 1_555
O2A C6A 1_555 1_555
O3A Cu1 1_555 1_555
H1A O3A 1_555 1_555
C1A N1A 1_555 1_555
H2A C1A 1_555 1_555
C2A C1A 1_555 1_555
H3A C2A 1_555 1_555
C3A C2A 1_555 1_555
C4A C3A 1_555 1_555
H4A C4A 1_555 1_555
C5A N1A 1_555 1_555
H5A C5A 1_555 1_555
C6A C3A 1_555 1_555
C7A O3A 1_555 1_555
H6A C7A 1_555 1_555
H7A C7A 1_555 1_555
H8A C7A 1_555 1_555
C4 C5 1_555 1_555
C4A C5A 1_555 1_555

#END
